data_crystal

_cell_length_a 16.78439
_cell_length_b 17.53960
_cell_length_c 38.43784
_cell_angle_alpha 60.66195
_cell_angle_beta  119.13964
_cell_angle_gamma 133.28536

_symmetry_space_group_name_	'P 1'
_symmetry_space_group_name_H-M	'P 1'

loop_
_symmetry_equiv_pos_as_xyz
  x,y,z

loop_
_atom_site_label
_atom_site_type_symbol
_atom_site_fract_x
_atom_site_fract_y
_atom_site_fract_z
_atom_site_charge
C 	C 	0.53266 0.21410 0.98279 -0.06600
C 	C 	0.48363 0.25788 0.97943 0.02300
C 	C 	0.55135 0.36525 0.98141 -0.05800
H 	H 	0.47988 0.13065 0.98158 0.05600
H 	H 	0.51304 0.40071 0.97722 0.06100
C 	C 	0.66871 0.38756 0.50514 -0.06400
C 	C 	0.63184 0.27975 0.51767 0.02700
C 	C 	0.70279 0.25808 0.52174 -0.06200
H 	H 	0.61314 0.40544 0.50019 0.05700
H 	H 	0.67559 0.17525 0.53231 0.05500
C 	C 	0.22101 0.61859 0.15734 0.03600
C 	C 	0.33609 0.66939 0.16475 -0.07400
C 	C 	0.37216 0.62507 0.15912 0.04300
C 	C 	0.29360 0.52454 0.14948 -0.07400
C 	C 	0.17771 0.47372 0.14083 0.03700
C 	C 	0.14148 0.51896 0.14625 -0.07400
H 	H 	0.39753 0.74693 0.17252 0.06400
H 	H 	0.32285 0.48683 0.14835 0.05900
H 	H 	0.05229 0.47735 0.14155 0.04700
C 	C 	0.32194 0.62768 0.67841 0.04000
C 	C 	0.27597 0.52020 0.68362 -0.07300
C 	C 	0.33430 0.49642 0.67896 0.04500
C 	C 	0.44389 0.57886 0.67333 -0.07300
C 	C 	0.49035 0.68674 0.66748 0.04400
C 	C 	0.43030 0.71101 0.67060 -0.07000
H 	H 	0.19174 0.45572 0.68874 0.05800
H 	H 	0.49251 0.55927 0.67318 0.06400
H 	H 	0.46586 0.79471 0.66504 0.05900
Co	Co	0.01111 0.00988 0.01862 1.16500
Co	Co	0.04221 0.84496 0.02007 1.14700
C 	C 	0.22405 0.08400 0.01346 0.36800
O 	O 	0.01301 0.13369 0.01116 -0.48300
C 	C 	0.02285 0.25170 0.08806 0.28100
C 	C 	0.63560 0.80265 0.12186 0.32500
C 	C 	0.12111 0.78845 0.10978 0.31800
O 	O 	0.15733 0.84937 0.07599 -0.39900
O 	O 	0.07586 0.80834 0.12141 -0.40600
O 	O 	0.04997 0.20756 0.08020 -0.40900
O 	O 	0.16305 0.00526 0.99547 -0.41400
O 	O 	0.18073 0.08244 0.03473 -0.42600
Co	Co	0.06253 0.84553 0.60225 1.17900
Co	Co	0.07567 0.12188 0.58200 1.17300
Co	Co	0.15517 0.05658 0.54453 1.18400
Co	Co	0.18383 0.88983 0.54381 1.17100
C 	C 	0.37869 0.11029 0.55769 0.35700
C 	C 	0.03128 0.94277 0.71711 0.27700
O 	O 	0.15596 0.17676 0.54052 -0.46900
C 	C 	0.19649 0.25264 0.64394 0.31200
C 	C 	0.22748 0.79948 0.63447 0.32600
C 	C 	0.11887 0.02142 0.46702 0.33100
O 	O 	0.07380 0.94081 0.69662 -0.38900
O 	O 	0.18477 0.77682 0.59896 -0.41200
O 	O 	0.20498 0.85081 0.64002 -0.40200
O 	O 	0.12531 0.17570 0.66783 -0.41200
O 	O 	0.20845 0.22912 0.61952 -0.40200
O 	O 	0.19536 0.00293 0.48817 -0.41200
O 	O 	0.09688 0.05601 0.48270 -0.38500
O 	O 	0.11925 0.93014 0.56188 -0.76700
O 	O 	0.34739 0.01130 0.56659 -0.40200
O 	O 	0.32602 0.12661 0.56698 -0.41300
C 	C 	0.09029 0.95980 0.75897 -0.06900
C 	C 	0.04820 0.87105 0.79223 0.10900
C 	C 	0.03884 0.88289 0.82342 -0.07600
C 	C 	0.06451 0.98123 0.81987 0.02800
C 	C 	0.12265 0.07323 0.78988 0.07600
C 	C 	0.14717 0.06266 0.76317 -0.04100
H 	H 	0.00306 0.81369 0.84836 0.06900
C 	C 	0.02332 0.98487 0.84542 -0.02600
H 	H 	0.19733 0.13373 0.74188 0.07200
C 	C 	0.09922 0.06039 0.86958 -0.06100
C 	C 	0.05993 0.06383 0.89325 0.08400
H 	H 	0.18737 0.11858 0.86886 0.07900
Br	Br	0.15115 0.20796 0.77982 -0.24500
Br	Br	0.14097 0.19630 0.90661 -0.23000
C 	C 	0.12210 0.07689 0.36065 0.09200
C 	C 	0.14964 0.09657 0.39750 -0.00700
H 	H 	0.23181 0.16680 0.40706 0.06100
H 	H 	0.05022 0.91512 0.25438 0.06700
Br	Br	0.22433 0.18353 0.32509 -0.22400
Br	Br	0.13323 0.89840 0.34432 -0.21600
C 	C 	0.27868 0.36281 0.65046 -0.13800
C 	C 	0.27883 0.38457 0.67967 -0.00500
H 	H 	0.33178 0.42810 0.62892 0.07700
H 	H 	0.22565 0.31903 0.70107 0.05700
C 	C 	0.63437 0.77425 0.63271 -0.13400
C 	C 	0.60281 0.77497 0.65857 0.00300
H 	H 	0.57684 0.70899 0.61739 0.07900
H 	H 	0.66032 0.84184 0.67310 0.04700
C 	C 	0.24624 0.65218 0.67246 0.00900
C 	C 	0.28455 0.75188 0.66926 -0.14600
H 	H 	0.15604 0.59383 0.66221 0.03800
H 	H 	0.36720 0.80384 0.68713 0.08700
C 	C 	0.09323 0.37127 0.12729 -0.00500
C 	C 	0.11148 0.35079 0.10322 -0.13400
H 	H 	0.19083 0.40775 0.09419 0.07500
C 	C 	0.52078 0.71260 0.12723 -0.13700
C 	C 	0.49144 0.68908 0.15987 0.00100
H 	H 	0.45810 0.66896 0.10331 0.07800
H 	H 	0.55546 0.73067 0.18431 0.06000
C 	C 	0.18575 0.67556 0.15827 0.00700
C 	C 	0.10457 0.68384 0.12790 -0.15800
H 	H 	0.24342 0.73140 0.17799 0.04200
H 	H 	0.04174 0.62405 0.10988 0.07100
C 	C 	0.52016 0.18827 0.52761 0.03000
C 	C 	0.47670 0.19553 0.54673 -0.19600
H 	H 	0.47637 0.11187 0.52139 0.03300
H 	H 	0.51715 0.27320 0.55086 0.09700
C 	C 	0.36302 0.18699 0.97780 0.05500
C 	C 	0.32698 0.17048 0.00711 -0.21400
H 	H 	0.30579 0.13486 0.95664 0.04300
H 	H 	0.38197 0.22808 0.02593 0.10000
O 	O 	0.68579 0.78966 0.10977 -0.39100
H 	H 	0.65328 0.50210 0.03260 0.09200
C 	C 	0.64962 0.27091 0.99418 0.04300
O 	O 	0.69156 0.88785 0.13509 -0.38400
C 	C 	0.07417 0.02306 0.42316 -0.14600
C 	C 	0.03306 0.93420 0.30120 0.04400
C 	C 	0.66893 0.42549 0.99001 0.02900
O 	O 	0.69474 0.03169 0.04968 -0.39900
O 	O 	0.02710 0.96718 0.58035 -0.59300
C 	C 	0.75097 0.85400 0.62883 0.31700
C 	C 	0.69656 0.20905 0.01667 -0.00200
Br	Br	0.75717 0.98646 0.19903 -0.27100
H 	H 	0.70540 0.17868 0.04978 0.02600
C 	C 	0.71627 0.17981 0.99690 -0.15700
C 	C 	0.71778 0.37843 0.99593 -0.05300
C 	C 	0.73258 0.55536 0.02384 -0.18300
C 	C 	0.73493 0.10396 0.01697 0.33300
H 	H 	0.72679 0.22433 0.96564 0.10100
C 	C 	0.74207 0.53535 0.99541 0.03100
O 	O 	0.01547 0.77507 0.52165 -0.42000
C 	C 	0.01945 0.98082 0.34982 -0.05500
Co	Co	0.80485 0.04680 0.10644 1.17500
H 	H 	0.78983 0.83970 0.87984 0.07500
O 	O 	0.79434 0.95792 0.61771 -0.38400
C 	C 	0.77911 0.47262 0.50022 0.03600
O 	O 	0.80483 0.11051 0.00684 -0.37800
O 	O 	0.81022 0.66954 0.06331 -0.39100
H 	H 	0.78565 0.54206 0.55204 0.09300
Br	Br	0.79467 0.82815 0.80616 -0.20900
C 	C 	0.00773 0.93107 0.26104 -0.03900
H 	H 	0.01267 0.31378 0.13562 0.03300
H 	H 	0.80874 0.42261 0.00501 0.05000
H 	H 	0.81546 0.59661 0.98233 0.04000
O 	O 	0.81003 0.81878 0.63763 -0.36900
C 	C 	0.81313 0.34307 0.51668 0.03000
C 	C 	0.82482 0.64236 0.04150 0.34700
O 	O 	0.99997 0.02843 0.61723 -0.75100
Br	Br	0.99131 0.73133 0.79292 -0.16700
O 	O 	0.98786 0.79244 0.64529 -0.43300
O 	O 	0.98259 0.88586 0.04055 -0.73000
C 	C 	0.95331 0.97592 0.90145 -0.03200
O 	O 	0.94974 0.00270 0.95695 -0.33600
C 	C 	0.93884 0.93930 0.94293 0.30200
C 	C 	0.84877 0.45000 0.50397 -0.06400
H 	H 	0.93499 0.51579 0.50118 0.06300
Co	Co	0.93515 0.80905 0.08413 1.19500
Co	Co	0.92818 0.08528 0.04954 1.20100
Co	Co	0.85731 0.88744 0.11681 1.19000
O 	O 	0.92670 0.06140 0.16016 -0.37100
O 	O 	0.86217 0.00021 0.08825 -0.75600
C 	C 	0.92555 0.97693 0.18568 0.31200
O 	O 	0.87731 0.77400 0.12930 -0.44800
O 	O 	0.89823 0.93074 0.05907 -0.56900
O 	O 	0.93852 0.92594 0.17431 -0.36800
O 	O 	0.91661 0.20905 0.08152 -0.37400
O 	O 	0.92376 0.84713 0.96654 -0.37300
O 	O 	0.92681 0.68251 0.04276 -0.40200
Co	Co	0.97958 0.90871 0.63884 1.20200
C 	C 	0.93857 0.70172 0.54384 0.37600
Co	Co	0.95684 0.07017 0.64433 1.17900
O 	O 	0.94647 0.94960 0.69756 -0.35600
C 	C 	0.93782 0.20013 0.55622 0.36300
O 	O 	0.97012 0.20027 0.59496 -0.40600
O 	O 	0.96019 0.15846 0.54455 -0.38100
O 	O 	0.95757 0.70762 0.58068 -0.37500
C 	C 	0.87509 0.90397 0.87585 -0.04200
C 	C 	0.90823 0.91189 0.84634 0.13300
C 	C 	0.96654 0.93415 0.40982 0.17900
C 	C 	0.94117 0.91099 0.37420 -0.03900
H 	H 	0.85919 0.84046 0.36477 0.07100
C 	C 	0.98440 0.96305 0.30937 0.11200
C 	C 	0.90269 0.97730 0.27851 -0.11000
C 	C 	0.87420 0.97055 0.23900 0.15800
C 	C 	0.93134 0.95315 0.22928 -0.06500
H 	H 	0.86211 0.99551 0.28510 0.09700
Br	Br	0.85203 0.84579 0.43912 -0.22400
C 	C 	0.89915 0.32251 0.53673 0.03000
C 	C 	0.88869 0.24982 0.52806 -0.19400
H 	H 	0.96696 0.36033 0.56179 0.04600
H 	H 	0.83924 0.23044 0.49830 0.10500
C 	C 	0.82854 0.58358 0.49796 0.01500
C 	C 	0.84244 0.60614 0.53164 -0.16000
H 	H 	0.87548 0.64921 0.47466 0.06300
