data_crystal

_cell_length_a 30.54254
_cell_length_b 28.00657
_cell_length_c 44.13268
_cell_angle_alpha 103.72887
_cell_angle_beta  115.83228
_cell_angle_gamma 112.16033

_symmetry_space_group_name_	'P 1'
_symmetry_space_group_name_H-M	'P 1'

loop_
_symmetry_equiv_pos_as_xyz
  x,y,z

loop_
_atom_site_label
_atom_site_type_symbol
_atom_site_fract_x
_atom_site_fract_y
_atom_site_fract_z
_atom_site_charge
C 	C 	0.59039 0.29524 0.92671 0.03000
C 	C 	0.60353 0.25196 0.92343 -0.02300
C 	C 	0.66149 0.26797 0.94406 0.03200
C 	C 	0.70675 0.32795 0.96601 -0.02200
C 	C 	0.69413 0.37134 0.96752 0.03200
C 	C 	0.63604 0.35481 0.94977 -0.02300
C 	C 	0.53494 0.27463 0.91960 -0.05500
S 	S 	0.54858 0.19159 0.91394 0.01000
C 	C 	0.67879 0.23073 0.93278 -0.05500
S 	S 	0.76511 0.33370 0.96927 0.00900
C 	C 	0.73185 0.42826 0.97498 -0.05700
S 	S 	0.63195 0.40871 0.94181 0.00700
C 	C 	0.50548 0.21582 0.91146 0.00400
H 	H 	0.52153 0.30386 0.92649 0.05500
C 	C 	0.73645 0.26195 0.94452 0.00400
H 	H 	0.64965 0.18333 0.91534 0.05600
C 	C 	0.70272 0.45555 0.96260 0.00600
H 	H 	0.77677 0.44603 0.98517 0.05700
C 	C 	0.78563 0.55679 0.93737 -0.03800
C 	C 	0.75791 0.50682 0.93989 -0.02800
C 	C 	0.72505 0.50406 0.95468 0.01500
C 	C 	0.71692 0.54994 0.96438 -0.02800
H 	H 	0.81248 0.55940 0.92715 0.05800
H 	H 	0.76280 0.47076 0.93101 0.04700
H 	H 	0.69105 0.54792 0.97534 0.04900
C 	C 	0.37820 0.14860 0.93363 0.04300
C 	C 	0.37073 0.11306 0.90110 -0.03300
C 	C 	0.41272 0.13485 0.89413 -0.02800
C 	C 	0.46260 0.19214 0.91976 0.01600
C 	C 	0.47141 0.22650 0.95333 -0.03000
C 	C 	0.42920 0.20491 0.96009 -0.03800
H 	H 	0.33168 0.06926 0.88073 0.06100
H 	H 	0.40601 0.10764 0.86849 0.04900
H 	H 	0.51072 0.27003 0.97403 0.04700
H 	H 	0.43555 0.23236 0.98549 0.05500
C 	C 	0.83381 0.18251 0.95407 0.04300
C 	C 	0.77963 0.15689 0.91954 -0.03500
C 	C 	0.74842 0.18356 0.91617 -0.02900
C 	C 	0.77105 0.23585 0.94745 0.01900
C 	C 	0.82606 0.26214 0.98171 -0.03000
C 	C 	0.85747 0.23586 0.98482 -0.03300
H 	H 	0.76124 0.11582 0.89559 0.05500
H 	H 	0.70647 0.16333 0.88941 0.04700
H 	H 	0.84391 0.30210 0.00625 0.05600
H 	H 	0.89945 0.25597 0.01155 0.06600
C 	C 	0.56586 0.28800 0.41874 0.03100
C 	C 	0.56742 0.23807 0.40558 -0.02400
C 	C 	0.62069 0.24358 0.41776 0.03000
C 	C 	0.67206 0.30000 0.44022 -0.02500
C 	C 	0.67042 0.35031 0.45100 0.03200
C 	C 	0.61798 0.34379 0.44288 -0.02400
C 	C 	0.51600 0.27483 0.41845 -0.05700
S 	S 	0.50967 0.18043 0.39585 0.00800
C 	C 	0.62532 0.20024 0.39759 -0.05700
S 	S 	0.72019 0.29572 0.43339 0.01500
C 	C 	0.71180 0.40651 0.45961 -0.05700
S 	S 	0.62280 0.40590 0.44509 0.01100
C 	C 	0.47917 0.21491 0.40526 0.00400
H 	H 	0.51228 0.30834 0.43324 0.05900
C 	C 	0.67945 0.22342 0.40326 0.00300
H 	H 	0.59036 0.15415 0.37912 0.05700
C 	C 	0.69126 0.44355 0.45834 0.00500
H 	H 	0.75157 0.41707 0.46209 0.05800
C 	C 	0.80265 0.59120 0.48008 -0.03800
C 	C 	0.77749 0.53992 0.48214 -0.02800
C 	C 	0.71738 0.49753 0.45588 0.01600
C 	C 	0.68268 0.50704 0.42750 -0.02700
C 	C 	0.70785 0.55865 0.42573 -0.03200
H 	H 	0.80463 0.53328 0.50429 0.05000
H 	H 	0.63644 0.47433 0.40661 0.05100
H 	H 	0.68076 0.56578 0.40390 0.06600
C 	C 	0.36506 0.15921 0.43876 0.04700
C 	C 	0.35150 0.17699 0.41059 -0.03600
C 	C 	0.38834 0.19413 0.39918 -0.02800
C 	C 	0.43877 0.19320 0.41564 0.01500
C 	C 	0.45208 0.17488 0.44362 -0.02700
C 	C 	0.41519 0.15775 0.45504 -0.03800
H 	H 	0.31273 0.17808 0.39784 0.06600
H 	H 	0.37793 0.20854 0.37776 0.04800
H 	H 	0.49145 0.17496 0.45701 0.04900
H 	H 	0.42591 0.14407 0.47682 0.06100
C 	C 	0.76647 0.13476 0.40324 0.04700
C 	C 	0.74211 0.13277 0.42388 -0.03300
C 	C 	0.71136 0.15952 0.42253 -0.02800
C 	C 	0.70516 0.18897 0.40081 0.01600
C 	C 	0.72832 0.18980 0.37948 -0.02800
C 	C 	0.75869 0.16258 0.38056 -0.04000
H 	H 	0.74840 0.11188 0.44177 0.07100
H 	H 	0.69405 0.15907 0.43937 0.05000
H 	H 	0.72385 0.21256 0.36272 0.05100
H 	H 	0.77749 0.16447 0.36463 0.05700
C 	C 	0.30359 0.44552 0.99402 0.03800
C 	C 	0.27488 0.46988 0.97607 -0.03400
C 	C 	0.30696 0.52680 0.98239 -0.03600
C 	C 	0.36811 0.55997 0.00690 0.02200
C 	C 	0.39682 0.53466 0.02359 -0.03200
C 	C 	0.36466 0.47761 0.01718 -0.02700
H 	H 	0.22774 0.44513 0.95784 0.05400
H 	H 	0.28432 0.54540 0.96865 0.04700
H 	H 	0.44396 0.55968 0.04226 0.05000
H 	H 	0.38713 0.45885 0.03088 0.05800
C 	C 	0.33331 0.59565 0.47658 0.00400
C 	C 	0.24844 0.42586 0.46712 0.04400
C 	C 	0.29604 0.47478 0.50319 -0.03200
C 	C 	0.32412 0.53024 0.50633 -0.02900
C 	C 	0.30527 0.53706 0.47334 0.01500
C 	C 	0.25878 0.48784 0.43718 -0.02900
C 	C 	0.23031 0.43249 0.43409 -0.03900
H 	H 	0.31082 0.46991 0.52879 0.06200
H 	H 	0.36049 0.56783 0.53434 0.04900
H 	H 	0.24413 0.49264 0.41155 0.04700
H 	H 	0.19389 0.39488 0.40609 0.05400
Zn	Zn	0.16680 0.13231 0.00568 1.18900
Zn	Zn	0.06260 0.09609 0.92977 1.20700
O 	O 	0.04803 0.00198 0.86133 -0.44800
O 	O 	0.03117 0.07498 0.87405 -0.42000
C 	C 	0.20496 0.09398 0.96338 0.34500
O 	O 	0.00966 0.01430 0.91439 -0.88500
C 	C 	0.16923 0.21916 0.97758 0.34100
O 	O 	0.22292 0.12366 0.99873 -0.43700
O 	O 	0.14958 0.06577 0.93539 -0.36000
O 	O 	0.08903 0.10031 0.98221 -0.76400
O 	O 	0.11485 0.18067 0.94686 -0.41400
O 	O 	0.19128 0.21066 0.00744 -0.44500
Zn	Zn	0.03657 0.01866 0.96399 1.21400
O 	O 	0.96696 0.04403 0.96080 -0.44200
Zn	Zn	0.03277 0.05043 0.03546 1.20100
C 	C 	0.97166 0.08358 0.98744 0.37100
O 	O 	0.06896 0.04637 0.08275 -0.46400
O 	O 	0.00191 0.09523 0.02329 -0.50400
O 	O 	0.06269 0.02165 0.01304 -0.89800
C 	C 	0.04063 0.04240 0.85404 0.31100
H 	H 	0.10519 0.04004 0.03067 0.17100
H 	H 	0.96831 0.00159 0.89932 0.18100
Zn	Zn	0.13223 0.12594 0.49494 1.18900
Zn	Zn	0.03630 0.07078 0.41107 1.19700
O 	O 	0.01201 0.03961 0.35610 -0.44000
C 	C 	0.19128 0.09873 0.46679 0.33800
C 	C 	0.13228 0.20043 0.45765 0.35100
O 	O 	0.19893 0.12696 0.49885 -0.45300
O 	O 	0.13887 0.06692 0.43448 -0.34200
O 	O 	0.05322 0.08488 0.46382 -0.77000
O 	O 	0.09277 0.15190 0.42397 -0.43000
O 	O 	0.14868 0.19889 0.49023 -0.44400
O 	O 	0.92576 0.02049 0.43187 -0.45500
Zn	Zn	0.98091 0.04101 0.51161 1.21000
C 	C 	0.92140 0.05936 0.45197 0.35400
O 	O 	0.01204 0.04848 0.56284 -0.45900
O 	O 	0.94382 0.07526 0.48834 -0.44800
O 	O 	0.02323 0.01708 0.49997 -0.90300
H 	H 	0.06533 0.04017 0.52099 0.17100
C 	C 	0.04930 0.02310 0.67877 0.10400
C 	C 	0.06879 0.07389 0.67490 -0.08400
C 	C 	0.06065 0.06950 0.64040 0.03100
H 	H 	0.08990 0.11661 0.69849 0.07000
H 	H 	0.07525 0.10890 0.63759 0.03500
N 	N 	0.05518 0.02663 0.71303 -0.08400
N 	N 	0.04861 0.06175 0.73104 -0.08600
C 	C 	0.04715 0.05383 0.82491 -0.08500
C 	C 	0.01143 0.06780 0.80103 0.02300
C 	C 	0.01338 0.07221 0.77066 -0.10500
C 	C 	0.05076 0.06247 0.76388 0.11600
C 	C 	0.08915 0.05221 0.78924 -0.08100
C 	C 	0.08711 0.04758 0.81948 0.04400
H 	H 	0.98093 0.07343 0.80522 0.05700
H 	H 	0.98458 0.08141 0.75168 0.08700
H 	H 	0.11984 0.04692 0.78514 0.08200
H 	H 	0.11601 0.03835 0.83836 0.05500
C 	C 	0.11142 0.04364 0.15406 0.03900
C 	C 	0.11147 0.04010 0.18511 -0.09000
H 	H 	0.13802 0.08612 0.15755 0.03200
H 	H 	0.13827 0.07974 0.21239 0.06800
N 	N 	0.06346 0.01932 0.22775 -0.08500
C 	C 	0.03479 0.00922 0.31212 -0.09900
C 	C 	0.05909 0.06304 0.31226 0.04200
C 	C 	0.06912 0.06617 0.28455 -0.08900
C 	C 	0.05525 0.01577 0.25659 0.10900
H 	H 	0.07100 0.10259 0.33415 0.05100
H 	H 	0.08783 0.10785 0.28483 0.06900
C 	C 	0.21746 0.36765 0.46393 -0.00800
C 	C 	0.18149 0.35627 0.47670 0.13700
C 	C 	0.15375 0.30142 0.47445 -0.02400
C 	C 	0.16059 0.25723 0.45885 -0.11600
C 	C 	0.19568 0.26819 0.44541 0.20300
C 	C 	0.22403 0.32331 0.44811 -0.09800
H 	H 	0.12649 0.29302 0.48458 0.07600
H 	H 	0.25150 0.33180 0.43814 0.08600
Cl	Cl	0.16968 0.40983 0.49470 -0.31600
Cl	Cl	0.20577 0.21384 0.42606 -0.32800
Cl	Cl	0.82794 0.03000 0.49324 -0.32800
H 	H 	0.19619 0.01717 0.49686 0.07100
Cl	Cl	0.29658 0.01084 0.52660 -0.31200
C 	C 	0.20255 0.27686 0.98117 -0.11600
C 	C 	0.21072 0.28090 0.95257 0.20200
C 	C 	0.24417 0.33620 0.95716 -0.09700
C 	C 	0.26971 0.38763 0.99008 -0.01000
C 	C 	0.26137 0.38361 0.01856 0.13900
C 	C 	0.22809 0.32841 0.01407 -0.01900
H 	H 	0.25043 0.33917 0.93515 0.08600
H 	H 	0.22179 0.32560 0.03608 0.07100
Cl	Cl	0.18093 0.21717 0.91143 -0.32700
Cl	Cl	0.29180 0.44750 0.05981 -0.31600
C 	C 	0.80531 0.11341 0.40877 -0.00500
C 	C 	0.78338 0.05313 0.39613 0.14100
C 	C 	0.82190 0.03494 0.40781 -0.01900
C 	C 	0.88221 0.07650 0.43214 -0.12100
C 	C 	0.90396 0.13602 0.44196 0.20700
C 	C 	0.86552 0.15426 0.43035 -0.09600
H 	H 	0.88256 0.20054 0.43935 0.08900
Cl	Cl	0.97943 0.18829 0.46931 -0.33600
Cl	Cl	0.78334 0.58821 0.38666 -0.30700
C 	C 	0.32684 0.14260 0.45136 -0.00500
C 	C 	0.33137 0.18605 0.47861 0.14600
C 	C 	0.28926 0.17054 0.48593 -0.01400
C 	C 	0.24195 0.11194 0.46579 -0.10300
C 	C 	0.24006 0.06785 0.44076 0.20900
C 	C 	0.28238 0.08344 0.43361 -0.09200
H 	H 	0.29156 0.20458 0.50567 0.08200
H 	H 	0.27972 0.04970 0.41339 0.08600
Cl	Cl	0.38842 0.26044 0.50270 -0.30600
C 	C 	0.86401 0.15158 0.95909 -0.00400
C 	C 	0.86462 0.12344 0.98164 0.13100
C 	C 	0.89959 0.10101 0.99045 -0.01700
C 	C 	0.93269 0.10450 0.97588 -0.13500
C 	C 	0.93043 0.13069 0.95208 0.21300
C 	C 	0.89607 0.15406 0.94378 -0.10500
H 	H 	0.90163 0.08147 0.00908 0.07100
H 	H 	0.89557 0.17561 0.92633 0.08800
Cl	Cl	0.82190 0.11629 0.99923 -0.29700
Cl	Cl	0.97310 0.13784 0.93442 -0.38600
C 	C 	0.24736 0.10342 0.95419 -0.10200
C 	C 	0.29480 0.09884 0.97462 0.20400
C 	C 	0.33642 0.11174 0.96680 -0.09500
C 	C 	0.33088 0.12879 0.93856 -0.00900
C 	C 	0.28220 0.13103 0.91714 0.14300
C 	C 	0.24061 0.11794 0.92483 -0.02300
H 	H 	0.37342 0.10915 0.98296 0.08200
H 	H 	0.20359 0.12038 0.90853 0.08800
Cl	Cl	0.30162 0.07509 0.00907 -0.32300
Cl	Cl	0.27382 0.15222 0.88145 -0.31200
C 	C 	0.03320 0.01432 0.60951 -0.08600
C 	C 	0.01873 0.00877 0.57177 0.31900
C 	C 	0.02698 0.00639 0.34241 0.31800
Zn	Zn	0.00496 0.00452 0.45017 1.21200
Cl	Cl	0.70783 0.00013 0.36622 -0.31600
C 	C 	0.06499 0.99821 0.08363 0.32900
O 	O 	0.10823 0.99807 0.96940 -0.45300
C 	C 	0.76796 0.60070 0.45186 0.04600
C 	C 	0.07526 0.99282 0.11816 -0.09800
H 	H 	0.81219 0.98160 0.96848 0.07700
C 	C 	0.78012 0.60400 0.94910 0.04300
C 	C 	0.74418 0.59965 0.96144 -0.03300
H 	H 	0.73891 0.63558 0.96992 0.06100
H 	H 	0.84909 0.62360 0.50044 0.06000
C 	C 	0.48060 0.75376 0.00527 0.03000
C 	C 	0.48157 0.80575 0.01684 -0.02500
C 	C 	0.45000 0.81054 0.03156 0.03100
C 	C 	0.41468 0.76168 0.03243 -0.02500
C 	C 	0.40695 0.70733 0.01565 0.03000
C 	C 	0.44011 0.70361 0.00218 -0.02400
C 	C 	0.53218 0.76309 0.00907 -0.05700
S 	S 	0.54593 0.86143 0.03234 0.01600
C 	C 	0.43294 0.85125 0.03200 -0.05700
S 	S 	0.36343 0.76914 0.03272 0.01400
C 	C 	0.38477 0.66090 0.02328 -0.05700
S 	S 	0.44317 0.64513 0.00119 0.00600
C 	C 	0.57383 0.82266 0.02467 0.00200
H 	H 	0.53908 0.72825 0.00134 0.05300
C 	C 	0.38469 0.83411 0.03343 0.00300
H 	H 	0.44846 0.88563 0.02496 0.05600
C 	C 	0.40190 0.62188 0.01656 0.00400
H 	H 	0.35812 0.65642 0.03379 0.05900
C 	C 	0.71441 0.88712 0.01356 0.04800
C 	C 	0.66093 0.83448 0.98355 -0.03800
C 	C 	0.61499 0.81319 0.98711 -0.03300
C 	C 	0.62234 0.84425 0.02089 0.02000
C 	C 	0.67590 0.89697 0.05087 -0.02900
C 	C 	0.72179 0.91825 0.04724 -0.03500
H 	H 	0.65495 0.81020 0.95745 0.05800
H 	H 	0.57359 0.77299 0.96349 0.04700
H 	H 	0.68205 0.92129 0.07704 0.05000
H 	H 	0.76303 0.95886 0.07058 0.06100
C 	C 	0.26667 0.88866 0.99440 0.04000
C 	C 	0.24840 0.83044 0.97383 -0.03600
C 	C 	0.28728 0.81287 0.98594 -0.03500
C 	C 	0.34469 0.85334 0.01901 0.02200
C 	C 	0.36345 0.91207 0.03884 -0.03100
C 	C 	0.32459 0.92972 0.02653 -0.02600
H 	H 	0.20394 0.79871 0.94867 0.05300
H 	H 	0.27274 0.76783 0.96968 0.04700
H 	H 	0.40783 0.94377 0.06411 0.05300
H 	H 	0.33920 0.97499 0.04225 0.07100
C 	C 	0.42975 0.72888 0.47528 0.03000
C 	C 	0.43120 0.78108 0.48685 -0.02500
C 	C 	0.41709 0.79546 0.51249 0.03000
C 	C 	0.39478 0.75370 0.52304 -0.02400
C 	C 	0.38786 0.69888 0.50861 0.03000
C 	C 	0.41011 0.68882 0.48746 -0.02500
C 	C 	0.46673 0.73193 0.46347 -0.05700
S 	S 	0.47853 0.82973 0.48346 0.00900
C 	C 	0.40013 0.83611 0.51580 -0.05700
S 	S 	0.35283 0.76584 0.53393 0.00800
C 	C 	0.34545 0.64635 0.50309 -0.05800
S 	S 	0.37580 0.61621 0.46181 0.00900
C 	C 	0.49584 0.78626 0.46533 0.00400
H 	H 	0.47780 0.69965 0.45908 0.05700
C 	C 	0.36430 0.82551 0.52853 0.00400
H 	H 	0.40579 0.86537 0.50362 0.05600
H 	H 	0.32430 0.64542 0.51747 0.05700
C 	C 	0.64929 0.85302 0.46788 0.04500
C 	C 	0.64786 0.83441 0.49449 -0.03300
C 	C 	0.59756 0.81208 0.49354 -0.02800
C 	C 	0.54861 0.80883 0.46623 0.01500
C 	C 	0.55055 0.82862 0.44020 -0.02700
C 	C 	0.60059 0.85040 0.44092 -0.03900
H 	H 	0.68545 0.83673 0.51562 0.06500
H 	H 	0.59676 0.79767 0.51411 0.04900
H 	H 	0.51314 0.82672 0.41925 0.04900
H 	H 	0.60141 0.86488 0.42037 0.06100
C 	C 	0.24558 0.88064 0.50583 0.04500
C 	C 	0.27815 0.88515 0.54187 -0.03600
C 	C 	0.31678 0.86692 0.54919 -0.02900
C 	C 	0.32317 0.84416 0.52054 0.01500
C 	C 	0.28988 0.83892 0.48428 -0.02900
C 	C 	0.25141 0.85727 0.47703 -0.03600
H 	H 	0.27364 0.90288 0.56419 0.05600
H 	H 	0.34199 0.87082 0.57717 0.04900
H 	H 	0.29352 0.82029 0.46167 0.04700
H 	H 	0.22606 0.85326 0.44903 0.06200
O 	O 	0.05335 0.92228 0.90882 -0.47100
Zn	Zn	0.91219 0.91585 0.93346 1.18300
Zn	Zn	0.01733 0.93910 0.99801 1.18500
C 	C 	0.91105 0.82026 0.95397 0.35400
C 	C 	0.89308 0.95514 0.98819 0.33400
O 	O 	0.96838 0.85399 0.97832 -0.43800
O 	O 	0.88118 0.83740 0.93262 -0.42700
O 	O 	0.87367 0.94092 0.95233 -0.46500
O 	O 	0.94544 0.96735 0.01232 -0.43100
O 	O 	0.98406 0.93718 0.94585 -0.77600
O 	O 	0.05132 0.95448 0.05402 -0.42500
Zn	Zn	0.02314 0.96402 0.88845 1.19300
C 	C 	0.09811 0.95090 0.94491 0.34600
O 	O 	0.03976 0.97425 0.35763 -0.45100
O 	O 	0.04082 0.90946 0.41442 -0.46700
O 	O 	0.98573 0.99083 0.39987 -0.85500
O 	O 	0.08464 0.99182 0.46932 -0.45900
Zn	Zn	0.88078 0.89613 0.41541 1.18100
Zn	Zn	0.98215 0.93720 0.49074 1.20000
C 	C 	0.88045 0.81503 0.44906 0.35300
C 	C 	0.84391 0.93452 0.45846 0.35300
O 	O 	0.93608 0.85417 0.47738 -0.41800
O 	O 	0.85357 0.82118 0.41884 -0.44800
O 	O 	0.83088 0.91553 0.42367 -0.47100
O 	O 	0.89636 0.95367 0.48759 -0.44800
O 	O 	0.95679 0.92434 0.43655 -0.77500
O 	O 	0.01306 0.96432 0.54766 -0.42800
Zn	Zn	0.00993 0.94275 0.38501 1.18700
C 	C 	0.07922 0.94264 0.45173 0.34900
H 	H 	0.94393 0.97389 0.38083 0.15700
C 	C 	0.01610 0.96397 0.61410 0.00900
C 	C 	0.02440 0.96851 0.64867 -0.07600
H 	H 	0.99508 0.92116 0.59062 0.08100
H 	H 	0.01028 0.92936 0.65178 0.06400
C 	C 	0.07530 0.98574 0.18053 0.11200
C 	C 	0.04296 0.93440 0.14573 -0.08800
C 	C 	0.04283 0.93783 0.11459 0.04700
H 	H 	0.01599 0.89217 0.14233 0.07500
H 	H 	0.01538 0.89814 0.08723 0.05200
N 	N 	0.06929 0.98286 0.21021 -0.08500
C 	C 	0.03017 0.96165 0.25611 -0.08900
C 	C 	0.02042 0.95855 0.28392 0.03900
H 	H 	0.01782 0.92202 0.23406 0.06900
H 	H 	0.00133 0.91670 0.28340 0.02400
C 	C 	0.79610 0.91467 0.46274 -0.11300
C 	C 	0.78466 0.95468 0.47812 0.20600
C 	C 	0.73747 0.93439 0.48061 -0.09400
C 	C 	0.70136 0.87428 0.46772 -0.00600
C 	C 	0.71329 0.83440 0.45270 0.14200
C 	C 	0.76045 0.85474 0.45027 -0.01300
H 	H 	0.72834 0.96520 0.49206 0.08600
H 	H 	0.76908 0.82380 0.43832 0.07700
Cl	Cl	0.66853 0.75859 0.43582 -0.31100
C 	C 	0.20467 0.89960 0.49795 -0.00700
C 	C 	0.22298 0.95760 0.50462 0.14000
C 	C 	0.18209 0.97287 0.49249 -0.01500
C 	C 	0.12268 0.93017 0.47251 -0.12900
C 	C 	0.10503 0.87340 0.46842 0.20500
C 	C 	0.14601 0.85830 0.48100 -0.10000
H 	H 	0.13202 0.81405 0.47679 0.08500
Cl	Cl	0.03191 0.82120 0.44830 -0.35400
C 	C 	0.76309 0.90894 0.00998 -0.00300
C 	C 	0.76710 0.94189 0.99060 0.13500
C 	C 	0.81075 0.95812 0.98466 -0.02100
C 	C 	0.85122 0.94237 0.99828 -0.12000
C 	C 	0.84730 0.90956 0.01802 0.20800
C 	C 	0.80381 0.89385 0.02414 -0.10000
H 	H 	0.80053 0.86815 0.03888 0.08700
Cl	Cl	0.71689 0.96209 0.97291 -0.29400
Cl	Cl	0.89307 0.88351 0.03253 -0.32900
C 	C 	0.14093 0.93460 0.95714 -0.12400
C 	C 	0.16690 0.92976 0.93780 0.21200
C 	C 	0.20848 0.91548 0.95052 -0.09100
C 	C 	0.22481 0.90633 0.98253 -0.00600
C 	C 	0.19937 0.91178 0.00208 0.14600
C 	C 	0.15789 0.92619 0.98945 -0.02700
H 	H 	0.22834 0.91175 0.93561 0.08600
H 	H 	0.13842 0.93036 0.00460 0.04700
Cl	Cl	0.14974 0.94386 0.89864 -0.33800
Cl	Cl	0.21825 0.89951 0.04198 -0.31900
H 	H 	0.80493 0.98885 0.39942 0.07300
C 	C 	0.84984 0.76015 0.44903 -0.11300
C 	C 	0.84017 0.76091 0.47751 0.20500
C 	C 	0.81244 0.70844 0.47778 -0.09300
C 	C 	0.79458 0.65509 0.45000 -0.00500
C 	C 	0.80387 0.65428 0.42134 0.13900
C 	C 	0.83099 0.70668 0.42081 -0.01600
H 	H 	0.80510 0.70917 0.49976 0.08900
H 	H 	0.83842 0.70597 0.39887 0.07700
Cl	Cl	0.86194 0.82725 0.51274 -0.32500
Cl	Cl	0.18516 0.99294 0.41829 -0.32800
C 	C 	0.81437 0.65910 0.95036 -0.00700
C 	C 	0.86371 0.70898 0.98566 0.14000
C 	C 	0.89595 0.76082 0.98638 -0.02000
C 	C 	0.87957 0.76357 0.95211 -0.10700
C 	C 	0.83169 0.71279 0.91663 0.20500
C 	C 	0.79896 0.66115 0.91599 -0.09700
H 	H 	0.93336 0.79933 0.01370 0.09300
H 	H 	0.76192 0.62232 0.88871 0.08500
Cl	Cl	0.88622 0.70681 0.02921 -0.30200
Cl	Cl	0.81457 0.71190 0.87277 -0.33300
