data_crystal

_cell_length_a 36.94094
_cell_length_b 33.06105
_cell_length_c 29.69840
_cell_angle_alpha 89.94926
_cell_angle_beta  89.94614
_cell_angle_gamma 90.68898

_symmetry_space_group_name_	'P 1'
_symmetry_space_group_name_H-M	'P 1'

loop_
_symmetry_equiv_pos_as_xyz
  x,y,z

loop_
_atom_site_label
_atom_site_type_symbol
_atom_site_fract_x
_atom_site_fract_y
_atom_site_fract_z
_atom_site_charge
Zn	Zn	0.50799 0.50794 0.01094 1.22200
C 	C 	0.53817 0.58850 0.01598 0.33500
O 	O 	0.54188 0.47471 0.04535 -0.47300
O 	O 	0.52037 0.59144 0.05417 -0.45100
O 	O 	0.56634 0.52487 0.08787 -0.49500
C 	C 	0.44842 0.53876 0.05981 0.35300
O 	O 	0.46481 0.53941 0.02075 -0.45700
O 	O 	0.46679 0.53169 0.09672 -0.50800
C 	C 	0.56981 0.49083 0.06595 0.34400
O 	O 	0.46866 0.45191 0.00584 -0.33200
Zn	Zn	0.51832 0.54547 0.10108 1.17000
O 	O 	0.54027 0.55355 0.99495 -0.43000
C 	C 	0.47985 0.44881 0.96466 0.30600
O 	O 	0.50354 0.47581 0.95218 -0.37900
Zn	Zn	0.38669 0.13439 0.97434 1.22400
C 	C 	0.40328 0.14300 0.06768 0.31100
O 	O 	0.34807 0.10176 0.00350 -0.45300
O 	O 	0.37145 0.15714 0.07840 -0.44300
O 	O 	0.31020 0.15535 0.01107 -0.51300
C 	C 	0.39512 0.22032 0.96444 0.34100
O 	O 	0.39026 0.18611 0.94267 -0.46200
O 	O 	0.38743 0.22282 0.00751 -0.49300
C 	C 	0.31567 0.11623 0.01130 0.35000
O 	O 	0.37486 0.10303 0.90336 -0.31600
Zn	Zn	0.34567 0.19444 0.03282 1.17200
O 	O 	0.41591 0.14859 0.02700 -0.44500
C 	C 	0.40458 0.08377 0.91173 0.27600
O 	O 	0.42064 0.09338 0.94880 -0.39100
C 	C 	0.52288 0.97959 0.72605 0.13700
C 	C 	0.55076 0.96126 0.75062 -0.10000
H 	H 	0.57481 0.95102 0.73340 0.06800
C 	C 	0.54751 0.95688 0.79742 0.04600
C 	C 	0.51551 0.96854 0.81881 -0.08200
C 	C 	0.48954 0.99074 0.79539 0.04500
C 	C 	0.49283 0.99547 0.74868 -0.10200
H 	H 	0.47258 0.01190 0.73000 0.06800
N 	N 	0.52521 0.98250 0.67786 -0.18200
C 	C 	0.50872 0.95346 0.65179 0.19700
C 	C 	0.50741 0.95794 0.60467 -0.08100
C 	C 	0.52300 0.99252 0.58469 0.06000
C 	C 	0.54216 0.02038 0.61157 -0.08000
C 	C 	0.54271 0.01501 0.65862 0.19800
C 	C 	0.49167 0.92792 0.57736 0.01000
C 	C 	0.49002 0.93309 0.53078 -0.05900
C 	C 	0.50155 0.96990 0.51076 0.01600
C 	C 	0.52017 0.99875 0.53763 -0.03100
C 	C 	0.53726 0.03289 0.51760 0.01800
C 	C 	0.56128 0.05240 0.59109 0.01000
C 	C 	0.56011 0.05761 0.54448 -0.05900
C 	C 	0.49655 0.97758 0.46406 0.01300
C 	C 	0.51386 0.01150 0.44394 -0.02800
C 	C 	0.53257 0.04034 0.47075 0.01500
O 	O 	0.55952 0.04173 0.68435 -0.20400
O 	O 	0.49347 0.92157 0.67102 -0.20300
H 	H 	0.57810 0.07259 0.61102 0.04200
H 	H 	0.57845 0.07943 0.52944 0.04500
H 	H 	0.48161 0.89992 0.59195 0.04200
H 	H 	0.48154 0.90763 0.51045 0.04500
C 	C 	0.54464 0.07682 0.45041 -0.05800
C 	C 	0.54354 0.08150 0.40372 0.01000
C 	C 	0.52762 0.05146 0.37659 -0.08200
C 	C 	0.51125 0.01746 0.39683 0.06200
C 	C 	0.47322 0.95323 0.43742 -0.05900
C 	C 	0.47193 0.95839 0.39081 0.01000
C 	C 	0.49161 0.98988 0.37013 -0.08400
C 	C 	0.52695 0.05533 0.32937 0.19700
N 	N 	0.50999 0.02644 0.30352 -0.18100
C 	C 	0.49130 0.99490 0.32304 0.19600
C 	C 	0.51332 0.02816 0.25534 0.13600
C 	C 	0.48964 0.05198 0.23002 -0.10000
C 	C 	0.49298 0.05361 0.18300 0.04500
C 	C 	0.51938 0.03036 0.16140 -0.08200
C 	C 	0.54375 0.00744 0.18670 0.04600
C 	C 	0.54023 0.00582 0.23366 -0.10000
O 	O 	0.54342 0.08631 0.30985 -0.20500
O 	O 	0.47359 0.96873 0.29754 -0.20700
H 	H 	0.46873 0.06891 0.24693 0.06700
H 	H 	0.55810 0.98708 0.25339 0.06400
H 	H 	0.55311 0.10243 0.47051 0.04500
H 	H 	0.55410 0.10918 0.38890 0.04200
H 	H 	0.45469 0.93172 0.45267 0.04400
H 	H 	0.45473 0.93848 0.37102 0.04100
H 	H 	0.52090 0.03012 0.12495 0.05100
H 	H 	0.51267 0.96432 0.85487 0.05100
Zn	Zn	0.67296 0.90057 0.00398 1.22100
C 	C 	0.64754 0.91565 0.09407 0.31300
O 	O 	0.72629 0.90472 0.00286 -0.46200
O 	O 	0.65407 0.87794 0.10501 -0.44500
O 	O 	0.73096 0.89550 0.07859 -0.49700
C 	C 	0.64502 0.82072 0.01860 0.35400
O 	O 	0.63600 0.85858 0.01260 -0.46200
O 	O 	0.67569 0.81184 0.03815 -0.51400
C 	C 	0.74493 0.90800 0.04039 0.33700
O 	O 	0.67016 0.88314 0.92658 -0.31900
Zn	Zn	0.69903 0.84857 0.08045 1.17100
O 	O 	0.66321 0.93199 0.05868 -0.43800
C 	C 	0.65703 0.91910 0.92115 0.27400
O 	O 	0.65626 0.94085 0.95731 -0.38400
Zn	Zn	0.14410 0.60645 0.00269 1.22100
C 	C 	0.12653 0.60557 0.09645 0.31200
O 	O 	0.10679 0.64849 0.00732 -0.45200
O 	O 	0.13298 0.64455 0.09981 -0.44600
O 	O 	0.14819 0.69876 0.01978 -0.51300
C 	C 	0.21876 0.60661 0.02919 0.33500
O 	O 	0.19661 0.60418 0.99465 -0.46000
O 	O 	0.20872 0.62467 0.06639 -0.49600
C 	C 	0.11558 0.68708 0.00780 0.34500
O 	O 	0.13723 0.60698 0.92310 -0.31800
Zn	Zn	0.17602 0.67012 0.06495 1.17100
O 	O 	0.14158 0.58485 0.06403 -0.44300
C 	C 	0.12065 0.57252 0.92922 0.27400
O 	O 	0.11897 0.56021 0.97046 -0.38600
C 	C 	0.98791 0.49605 0.25980 0.14000
C 	C 	0.96284 0.47515 0.23268 -0.10100
H 	H 	0.94212 0.45636 0.24823 0.06800
C 	C 	0.96487 0.47844 0.18566 0.04600
C 	C 	0.99247 0.50192 0.16596 -0.07900
C 	C 	0.01775 0.52250 0.19287 0.04300
C 	C 	0.01525 0.51984 0.23986 -0.10400
H 	H 	0.03453 0.53583 0.26098 0.06600
N 	N 	0.98592 0.49271 0.30799 -0.18100
C 	C 	0.00363 0.46191 0.32931 0.19500
C 	C 	0.00446 0.46008 0.37668 -0.08500
C 	C 	0.98754 0.49046 0.40182 0.06400
C 	C 	0.96750 0.52020 0.37946 -0.08200
C 	C 	0.96716 0.52099 0.33205 0.19800
C 	C 	0.02096 0.42777 0.39906 0.01000
C 	C 	0.02194 0.42661 0.44602 -0.05900
C 	C 	0.00911 0.45953 0.47167 0.01300
C 	C 	0.98991 0.49052 0.44943 -0.02700
C 	C 	0.97181 0.52061 0.47447 0.01600
C 	C 	0.94727 0.54787 0.40462 0.01000
C 	C 	0.94822 0.54704 0.45158 -0.05900
C 	C 	0.01346 0.46113 0.51925 0.01300
C 	C 	0.99540 0.49127 0.54428 -0.02700
C 	C 	0.97626 0.52229 0.52202 0.01500
O 	O 	0.94920 0.54938 0.31068 -0.20500
O 	O 	0.02044 0.43430 0.30536 -0.20500
H 	H 	0.92983 0.56930 0.38793 0.04100
H 	H 	0.92922 0.56547 0.46977 0.04500
H 	H 	0.03205 0.40275 0.38022 0.04200
H 	H 	0.03092 0.39917 0.46205 0.04500
C 	C 	0.96360 0.55533 0.54761 -0.05800
C 	C 	0.96469 0.55428 0.59456 0.01000
C 	C 	0.98105 0.52191 0.61699 -0.08200
C 	C 	0.99777 0.49135 0.59189 0.06400
C 	C 	0.03688 0.43456 0.54220 -0.05800
C 	C 	0.03770 0.43366 0.58917 0.01000
C 	C 	0.01758 0.46145 0.61429 -0.08400
C 	C 	0.98197 0.52019 0.66436 0.19800
N 	N 	0.99935 0.48918 0.68572 -0.18000
C 	C 	0.01782 0.46063 0.66170 0.19500
C 	C 	0.99733 0.48593 0.73392 0.14100
C 	C 	0.02434 0.50370 0.76086 -0.10300
C 	C 	0.02247 0.50022 0.80788 0.04400
C 	C 	0.99287 0.48013 0.82779 -0.07800
C 	C 	0.96546 0.46305 0.80102 0.04600
C 	C 	0.96814 0.46525 0.75401 -0.10100
O 	O 	0.96559 0.54814 0.68828 -0.20300
O 	O 	0.03536 0.43193 0.68310 -0.20400
H 	H 	0.04652 0.52017 0.74519 0.06800
H 	H 	0.94766 0.45112 0.73300 0.06700
H 	H 	0.95466 0.58275 0.53151 0.04500
H 	H 	0.95375 0.57941 0.61336 0.04300
H 	H 	0.05588 0.41607 0.52408 0.04500
H 	H 	0.05500 0.41211 0.60589 0.04200
H 	H 	0.99110 0.47793 0.86414 0.05200
H 	H 	0.99459 0.50374 0.12959 0.05100
Zn	Zn	0.84717 0.36864 0.98824 1.22300
C 	C 	0.85393 0.37989 0.89296 0.31400
O 	O 	0.79598 0.36675 0.00605 -0.46900
O 	O 	0.84572 0.34197 0.88439 -0.44300
O 	O 	0.77561 0.35431 0.93506 -0.49000
C 	C 	0.87722 0.29144 0.96638 0.35000
O 	O 	0.88451 0.33017 0.97111 -0.45700
O 	O 	0.84390 0.27886 0.95917 -0.50900
C 	C 	0.77018 0.36832 0.97581 0.34300
O 	O 	0.86552 0.35886 0.06412 -0.32000
Zn	Zn	0.80944 0.31047 0.92469 1.17200
O 	O 	0.84255 0.39657 0.93029 -0.44000
C 	C 	0.87422 0.39701 0.06262 0.27500
O 	O 	0.86838 0.41482 0.02464 -0.38800
Zn	Zn	0.02873 0.00694 0.02923 1.22100
C 	C 	0.04539 0.92211 0.02112 0.33700
O 	O 	0.98730 0.00714 0.07074 -0.46900
O 	O 	0.06546 0.92755 0.05719 -0.45600
O 	O 	0.99759 0.94703 0.10479 -0.49600
C 	C 	0.09886 0.01478 0.06858 0.35200
O 	O 	0.08132 0.00951 0.03069 -0.45400
O 	O 	0.08341 0.00549 0.10707 -0.51000
C 	C 	0.97499 0.97371 0.08909 0.34300
O 	O 	0.03033 0.07811 0.03224 -0.32900
Zn	Zn	0.04857 0.96078 0.11171 1.16900
O 	O 	0.02422 0.95105 0.00643 -0.43600
C 	C 	0.01518 0.07682 0.99292 0.30200
O 	O 	0.00951 0.04081 0.97700 -0.37900
C 	C 	0.99517 0.11078 0.97662 -0.09700
C 	C 	0.97775 0.13964 0.96518 0.06400
C 	C 	0.95619 0.17422 0.95359 -0.04900
C 	C 	0.95575 0.20655 0.98073 -0.05700
C 	C 	0.92872 0.23726 0.97504 0.07600
C 	C 	0.90556 0.26240 0.97097 -0.13000
H 	H 	0.97392 0.20836 0.00944 0.05100
H 	H 	0.93812 0.17239 0.92479 0.04700
C 	C 	0.87890 0.44421 0.84689 0.00900
H 	H 	0.85439 0.46322 0.84910 0.03500
C 	C 	0.89716 0.43011 0.80266 -0.04800
H 	H 	0.88778 0.43781 0.76824 0.04200
C 	C 	0.91643 0.45503 0.86685 -0.04400
H 	H 	0.92310 0.48334 0.88533 0.04300
C 	C 	0.93445 0.44068 0.82299 0.00700
C 	C 	0.88235 0.40118 0.86588 -0.08100
C 	C 	0.91957 0.41178 0.88608 0.00600
H 	H 	0.92860 0.40407 0.92066 0.03200
C 	C 	0.93778 0.39760 0.84203 -0.04500
H 	H 	0.96228 0.37857 0.83993 0.04500
C 	C 	0.90017 0.38668 0.82205 0.00900
H 	H 	0.89323 0.35834 0.80380 0.03200
C 	C 	0.92233 0.47444 0.11356 -0.04200
H 	H 	0.92589 0.50638 0.10265 0.04100
C 	C 	0.88568 0.45389 0.12511 0.00200
H 	H 	0.85882 0.46852 0.12334 0.03400
C 	C 	0.93353 0.43698 0.08611 0.00200
H 	H 	0.94621 0.43769 0.05219 0.03400
C 	C 	0.89711 0.41662 0.09792 -0.06400
C 	C 	0.93905 0.45534 0.15590 0.00500
C 	C 	0.95038 0.41798 0.12868 -0.04400
H 	H 	0.97725 0.40337 0.13034 0.04400
C 	C 	0.91362 0.39729 0.14018 0.00300
H 	H 	0.90986 0.36532 0.15082 0.03900
C 	C 	0.90257 0.43498 0.16792 -0.04300
H 	H 	0.88967 0.43426 0.20169 0.04200
C 	C 	0.04693 0.88417 0.99786 -0.12000
C 	C 	0.05008 0.85118 0.98116 0.07100
C 	C 	0.05625 0.81093 0.96442 -0.05800
C 	C 	0.04488 0.77898 0.98851 -0.05300
C 	C 	0.06790 0.74430 0.99294 0.06900
C 	C 	0.08879 0.71706 0.99878 -0.12700
H 	H 	0.02287 0.78244 0.01246 0.04200
H 	H 	0.07671 0.80697 0.93853 0.05000
C 	C 	0.10339 0.51489 0.86900 0.00200
H 	H 	0.12823 0.49650 0.87187 0.03400
C 	C 	0.08914 0.53452 0.82507 -0.04300
H 	H 	0.10217 0.53206 0.79150 0.04200
C 	C 	0.06459 0.50030 0.88079 -0.04200
H 	H 	0.05724 0.46956 0.89312 0.04100
C 	C 	0.05054 0.52014 0.83735 0.00600
C 	C 	0.09630 0.55457 0.89425 -0.06300
C 	C 	0.05774 0.54016 0.90630 0.00200
H 	H 	0.04482 0.54255 0.93996 0.03700
C 	C 	0.04359 0.55988 0.86265 -0.04400
H 	H 	0.01874 0.57827 0.85989 0.04400
C 	C 	0.08247 0.57458 0.85088 0.00300
H 	H 	0.09004 0.60533 0.83883 0.04000
C 	C 	0.07219 0.52730 0.13476 -0.04500
H 	H 	0.07131 0.49514 0.12402 0.04200
C 	C 	0.10532 0.54916 0.15575 0.00800
H 	H 	0.13213 0.53541 0.16197 0.03200
C 	C 	0.06549 0.56403 0.10386 0.00600
H 	H 	0.05943 0.56252 0.06728 0.03100
C 	C 	0.09834 0.58570 0.12507 -0.08200
C 	C 	0.04774 0.54635 0.17076 0.00700
C 	C 	0.04086 0.58298 0.14005 -0.04700
H 	H 	0.01406 0.59672 0.13370 0.04100
C 	C 	0.07407 0.60499 0.16101 0.00800
H 	H 	0.07508 0.63720 0.17156 0.02900
C 	C 	0.08061 0.56805 0.19217 -0.04800
H 	H 	0.08707 0.56977 0.22861 0.03900
C 	C 	0.93695 0.96463 0.08788 -0.13100
C 	C 	0.90504 0.95679 0.08597 0.07300
C 	C 	0.86698 0.94701 0.08331 -0.05800
C 	C 	0.84973 0.94800 0.04369 -0.05900
C 	C 	0.81250 0.93479 0.04066 0.07200
C 	C 	0.78151 0.92301 0.03949 -0.13400
H 	H 	0.86396 0.95744 0.01333 0.05200
H 	H 	0.85270 0.93756 0.11363 0.04500
C 	C 	0.57921 0.90725 0.85613 -0.04300
H 	H 	0.55770 0.88351 0.85688 0.04400
C 	C 	0.59065 0.93401 0.89635 0.00200
H 	H 	0.57883 0.93227 0.93071 0.03500
C 	C 	0.61956 0.90031 0.84430 0.00300
H 	H 	0.63171 0.87076 0.83569 0.03900
C 	C 	0.63063 0.92730 0.88429 -0.06300
C 	C 	0.57932 0.94501 0.82585 0.00500
C 	C 	0.61932 0.93832 0.81341 -0.04300
H 	H 	0.63114 0.94012 0.77909 0.04200
C 	C 	0.63092 0.96503 0.85404 0.00300
H 	H 	0.65240 0.98880 0.85347 0.03500
C 	C 	0.59074 0.97182 0.86594 -0.04300
H 	H 	0.57877 0.00140 0.87491 0.04300
C 	C 	0.60118 0.92603 0.16361 0.00800
H 	H 	0.60535 0.89700 0.18158 0.02900
C 	C 	0.56481 0.94049 0.14362 -0.04700
H 	H 	0.53863 0.92373 0.14543 0.04200
C 	C 	0.60820 0.96873 0.18350 -0.04800
H 	H 	0.61817 0.97517 0.21804 0.04000
C 	C 	0.57211 0.98286 0.16322 0.00600
C 	C 	0.62044 0.93931 0.12003 -0.08100
C 	C 	0.62782 0.98164 0.13957 0.00900
H 	H 	0.65401 0.99839 0.13771 0.03300
C 	C 	0.59152 0.99606 0.11959 -0.04700
H 	H 	0.58761 0.02507 0.10146 0.04300
C 	C 	0.58446 0.95345 0.09975 0.00700
H 	H 	0.57490 0.94695 0.06504 0.03000
C 	C 	0.28563 0.08930 0.01930 -0.13400
C 	C 	0.25903 0.06881 0.02648 0.07400
C 	C 	0.22600 0.04650 0.03527 -0.05900
C 	C 	0.20169 0.06113 0.06429 -0.05800
C 	C 	0.16563 0.04410 0.06649 0.07300
C 	C 	0.13520 0.03057 0.06784 -0.13200
H 	H 	0.20806 0.08792 0.08409 0.04500
H 	H 	0.21977 0.01967 0.01549 0.05000
C 	C 	0.43339 0.04474 0.80658 -0.04200
H 	H 	0.42511 0.05070 0.77129 0.04300
C 	C 	0.44819 0.07697 0.84003 0.00400
H 	H 	0.45204 0.10966 0.83261 0.03700
C 	C 	0.40822 0.02744 0.84416 0.00400
H 	H 	0.37915 0.01935 0.84013 0.03600
C 	C 	0.42352 0.05926 0.87698 -0.06400
C 	C 	0.46334 0.01572 0.82182 0.00800
C 	C 	0.43851 0.99810 0.85875 -0.04900
H 	H 	0.43471 0.96544 0.86634 0.04200
C 	C 	0.45344 0.03016 0.89181 0.00400
H 	H 	0.46181 0.02408 0.92706 0.03800
C 	C 	0.47825 0.04773 0.85475 -0.04300
H 	H 	0.50726 0.05601 0.85913 0.04300
C 	C 	0.45026 0.08601 0.08609 0.00600
H 	H 	0.45328 0.07481 0.05106 0.03600
C 	C 	0.43709 0.06032 0.12652 -0.04700
H 	H 	0.42956 0.02773 0.12522 0.04300
C 	C 	0.48098 0.10438 0.11506 -0.04400
H 	H 	0.50960 0.10823 0.10424 0.04200
C 	C 	0.46768 0.07878 0.15528 0.00700
C 	C 	0.42533 0.12041 0.10122 -0.08100
C 	C 	0.45584 0.13898 0.12994 0.00800
H 	H 	0.46337 0.17158 0.13110 0.03000
C 	C 	0.44275 0.11321 0.17063 -0.04700
H 	H 	0.43968 0.12461 0.20555 0.04100
C 	C 	0.41181 0.09497 0.14135 0.00800
H 	H 	0.38312 0.09131 0.15190 0.03200
C 	C 	0.40739 0.25576 0.94080 -0.13400
C 	C 	0.41714 0.28682 0.92303 0.07500
C 	C 	0.42817 0.32553 0.90504 -0.06000
C 	C 	0.46256 0.33795 0.90941 -0.05000
C 	C 	0.47003 0.37862 0.92434 0.06500
C 	C 	0.47513 0.41153 0.94069 -0.10300
H 	H 	0.48381 0.31570 0.91274 0.05000
H 	H 	0.40730 0.34759 0.89819 0.05000
C 	C 	0.25446 0.59033 0.02613 -0.13400
C 	C 	0.28485 0.57753 0.02513 0.07300
C 	C 	0.32153 0.56325 0.02528 -0.06400
C 	C 	0.34043 0.56262 0.06370 -0.05700
C 	C 	0.37847 0.55359 0.06316 0.07200
C 	C 	0.41039 0.54659 0.06218 -0.13100
H 	H 	0.32769 0.57085 0.09534 0.04400
H 	H 	0.33423 0.55501 0.99362 0.05600
C 	C 	0.73615 0.38617 0.98708 -0.13400
C 	C 	0.70749 0.40118 0.99626 0.08100
C 	C 	0.67304 0.41901 0.00652 -0.06800
C 	C 	0.66820 0.43938 0.04495 -0.05300
C 	C 	0.63389 0.45798 0.05420 0.07200
C 	C 	0.60484 0.47321 0.06052 -0.13100
H 	H 	0.69010 0.44243 0.06917 0.04800
H 	H 	0.65106 0.41603 0.98239 0.05600
C 	C 	0.55678 0.62344 0.99858 -0.11700
C 	C 	0.57239 0.65391 0.98697 0.06900
C 	C 	0.59119 0.69118 0.97653 -0.05300
C 	C 	0.57702 0.72648 0.98913 -0.06400
C 	C 	0.60034 0.76089 0.99749 0.08200
C 	C 	0.62036 0.78879 0.00635 -0.14200
H 	H 	0.54889 0.72781 0.99976 0.05100
H 	H 	0.61911 0.68994 0.96508 0.04900
