data_crystal

_cell_length_a 35.23035
_cell_length_b 35.74613
_cell_length_c 26.49288
_cell_angle_alpha 95.55259
_cell_angle_beta  95.55548
_cell_angle_gamma 125.36158

_symmetry_space_group_name_	'P 1'
_symmetry_space_group_name_H-M	'P 1'

loop_
_symmetry_equiv_pos_as_xyz
  x,y,z

loop_
_atom_site_label
_atom_site_type_symbol
_atom_site_fract_x
_atom_site_fract_y
_atom_site_fract_z
_atom_site_charge
C 	C 	0.98486 0.02842 0.99913 0.12200
C 	C 	0.05281 0.03188 0.99236 0.13200
N 	N 	0.03127 0.05332 0.99523 -0.13800
N 	N 	0.00154 0.02347 0.42045 -0.13900
C 	C 	0.02315 0.00210 0.42268 0.13500
Cu	Cu	0.65834 0.27030 0.99307 0.92800
Cu	Cu	0.70143 0.27421 0.88772 0.87100
Cu	Cu	0.68924 0.34634 0.92834 0.89600
Cu	Cu	0.65677 0.35606 0.02620 0.89700
C 	C 	0.66651 0.30273 0.09995 0.28800
O 	O 	0.58865 0.24227 0.98767 -0.36500
C 	C 	0.67803 0.31581 0.81635 0.28800
O 	O 	0.69658 0.34311 0.00000 -0.63700
O 	O 	0.65617 0.27735 0.91990 -0.64200
O 	O 	0.68733 0.23623 0.99224 -0.37500
O 	O 	0.74287 0.28526 0.94796 -0.44500
O 	O 	0.64549 0.32174 0.08481 -0.38000
O 	O 	0.72457 0.41364 0.94168 -0.38200
C 	C 	0.71898 0.43799 0.97690 0.30200
C 	C 	0.57073 0.26244 0.96805 0.30300
O 	O 	0.59898 0.30614 0.96294 -0.39600
O 	O 	0.68504 0.41760 0.00426 -0.38700
O 	O 	0.67041 0.27576 0.06647 -0.35400
C 	C 	0.72818 0.25400 0.97767 0.31200
O 	O 	0.69316 0.35051 0.85498 -0.38500
O 	O 	0.67491 0.27832 0.82415 -0.41600
H 	H 	0.72981 0.36290 0.01886 0.16600
H 	H 	0.62405 0.25873 0.89827 0.17400
Cu	Cu	0.72542 0.33693 0.42486 0.92800
Cu	Cu	0.72484 0.29821 0.53252 0.87100
Cu	Cu	0.64987 0.30770 0.49191 0.89700
Cu	Cu	0.63654 0.33647 0.39278 0.89600
C 	C 	0.68725 0.32309 0.31842 0.28700
O 	O 	0.75278 0.40537 0.42821 -0.36100
C 	C 	0.68327 0.32183 0.60403 0.28800
O 	O 	0.65155 0.29882 0.41997 -0.63900
O 	O 	0.71992 0.34109 0.49862 -0.64000
O 	O 	0.75991 0.30800 0.42583 -0.37200
O 	O 	0.71173 0.25557 0.47320 -0.44400
O 	O 	0.66949 0.34541 0.33307 -0.37900
O 	O 	0.58149 0.27179 0.48033 -0.38200
C 	C 	0.55548 0.27530 0.44451 0.30800
C 	C 	0.73214 0.42294 0.44769 0.30100
O 	O 	0.68821 0.39498 0.45416 -0.39300
O 	O 	0.57483 0.30841 0.41658 -0.39300
O 	O 	0.71815 0.32326 0.35121 -0.35700
C 	C 	0.74241 0.26857 0.44237 0.30900
O 	O 	0.64736 0.30581 0.56585 -0.38500
O 	O 	0.72169 0.32596 0.59560 -0.41600
H 	H 	0.63149 0.26573 0.40217 0.16500
H 	H 	0.73877 0.37316 0.51920 0.17400
C 	C 	0.67329 0.32288 0.76287 -0.07900
C 	C 	0.71121 0.36269 0.74817 -0.02600
C 	C 	0.71289 0.36470 0.69584 0.03800
C 	C 	0.67652 0.32631 0.65776 -0.07900
C 	C 	0.63611 0.28898 0.67250 -0.02600
C 	C 	0.63421 0.28721 0.72482 0.03800
S 	S 	0.76007 0.41572 0.67851 -0.05200
S 	S 	0.58254 0.24063 0.74220 -0.05300
H 	H 	0.55245 0.25263 0.74812 0.03700
H 	H 	0.74788 0.44540 0.67297 0.03700
H 	H 	0.74045 0.39117 0.77738 0.04500
H 	H 	0.60708 0.26027 0.64331 0.04600
C 	C 	0.68262 0.30937 0.26274 -0.07400
C 	C 	0.72301 0.33219 0.24002 -0.01900
C 	C 	0.71831 0.32791 0.18623 0.03500
C 	C 	0.67282 0.30046 0.15490 -0.07100
C 	C 	0.63273 0.27450 0.17739 -0.02000
C 	C 	0.63740 0.27863 0.23105 0.03800
S 	S 	0.76948 0.35826 0.15875 -0.05700
S 	S 	0.58642 0.24520 0.25817 -0.07200
H 	H 	0.57872 0.20373 0.26370 0.03700
H 	H 	0.78298 0.32993 0.14678 0.04400
H 	H 	0.75795 0.35506 0.26422 0.05100
H 	H 	0.59776 0.25217 0.15318 0.05000
C 	C 	0.77061 0.51265 0.45365 0.04600
C 	C 	0.75381 0.47192 0.45175 -0.11000
C 	C 	0.89388 0.06767 0.42001 0.01200
C 	C 	0.90868 0.10303 0.46209 -0.04000
C 	C 	0.88967 0.12819 0.46219 -0.03800
C 	C 	0.85564 0.11813 0.42016 0.00500
C 	C 	0.84095 0.08280 0.37795 -0.03800
C 	C 	0.86003 0.05764 0.37790 -0.04000
C 	C 	0.83443 0.14365 0.42114 0.01100
C 	C 	0.80783 0.14008 0.45900 -0.04500
C 	C 	0.78909 0.16546 0.46116 -0.03000
C 	C 	0.79673 0.19459 0.42550 -0.01200
C 	C 	0.82286 0.19788 0.38726 -0.02900
C 	C 	0.84166 0.17246 0.38505 -0.04500
C 	C 	0.77845 0.22169 0.42902 0.04700
C 	C 	0.76234 0.24354 0.43384 -0.12100
C 	C 	0.91441 0.04258 0.41955 0.00600
C 	C 	0.93205 0.02201 0.41995 -0.04200
H 	H 	0.93499 0.11111 0.49467 0.04200
H 	H 	0.90132 0.15546 0.49489 0.03900
H 	H 	0.81455 0.07462 0.34544 0.04000
H 	H 	0.84852 0.03046 0.34515 0.04300
H 	H 	0.80186 0.11779 0.48687 0.04000
H 	H 	0.76887 0.16270 0.49078 0.03400
H 	H 	0.82890 0.22031 0.35954 0.04000
H 	H 	0.86222 0.17553 0.35572 0.04200
C 	C 	0.16552 0.07532 0.42762 0.01300
C 	C 	0.19330 0.07415 0.46811 -0.04000
C 	C 	0.24207 0.09845 0.47025 -0.03800
C 	C 	0.26336 0.12411 0.43187 0.00500
C 	C 	0.23546 0.12519 0.39129 -0.03700
C 	C 	0.18667 0.10084 0.38919 -0.03900
C 	C 	0.31491 0.15025 0.43452 0.01100
C 	C 	0.34660 0.18703 0.47608 -0.04400
C 	C 	0.39547 0.21189 0.47856 -0.02900
C 	C 	0.41296 0.20015 0.43950 -0.00900
C 	C 	0.38139 0.16335 0.39807 -0.03000
C 	C 	0.33250 0.13844 0.39556 -0.04400
C 	C 	0.46326 0.22652 0.44137 0.04700
C 	C 	0.50537 0.24857 0.44290 -0.10700
C 	C 	0.11523 0.04987 0.42525 0.00600
C 	C 	0.07318 0.02836 0.42386 -0.03900
H 	H 	0.17714 0.05438 0.49787 0.04300
H 	H 	0.26329 0.09728 0.50162 0.04000
H 	H 	0.25161 0.14505 0.36159 0.04100
H 	H 	0.16537 0.10184 0.35773 0.04400
H 	H 	0.33335 0.19648 0.50627 0.04200
H 	H 	0.41969 0.24036 0.51067 0.04000
H 	H 	0.39469 0.15411 0.36775 0.03800
H 	H 	0.30832 0.10994 0.36347 0.04200
C 	C 	0.76521 0.52862 0.98048 0.04500
C 	C 	0.74447 0.48727 0.97877 -0.10600
C 	C 	0.91822 0.09113 0.00145 0.02300
C 	C 	0.89703 0.09158 0.04340 -0.04300
C 	C 	0.87295 0.11184 0.04351 -0.03600
C 	C 	0.86989 0.13172 0.00157 0.00700
C 	C 	0.89154 0.13165 0.95983 -0.04100
C 	C 	0.91562 0.11140 0.95978 -0.04800
C 	C 	0.84318 0.15169 0.00078 0.02100
C 	C 	0.85915 0.19166 0.03680 -0.05100
C 	C 	0.83508 0.21193 0.03429 -0.01700
C 	C 	0.79495 0.19231 0.99583 -0.02400
C 	C 	0.77844 0.15188 0.96050 -0.02300
C 	C 	0.80244 0.13161 0.96296 -0.05600
C 	C 	0.77205 0.21487 0.99089 0.05100
C 	C 	0.75214 0.23296 0.98577 -0.12600
C 	C 	0.94182 0.06909 0.00071 0.00000
C 	C 	0.96158 0.05063 0.00013 -0.02800
H 	H 	0.89894 0.07598 0.07575 0.04500
H 	H 	0.85630 0.11168 0.07587 0.04000
H 	H 	0.88956 0.14712 0.92740 0.03800
H 	H 	0.93200 0.11125 0.92726 0.04300
H 	H 	0.89056 0.20740 0.06615 0.04400
H 	H 	0.84803 0.24319 0.06174 0.03700
H 	H 	0.74739 0.13651 0.93071 0.03200
H 	H 	0.78969 0.10058 0.93520 0.04200
C 	C 	0.43017 0.20161 0.96240 -0.01600
C 	C 	0.41025 0.18135 0.00424 -0.02300
C 	C 	0.36301 0.16273 0.00576 -0.03900
C 	C 	0.33534 0.16431 0.96542 0.00600
C 	C 	0.35520 0.18424 0.92328 -0.04400
C 	C 	0.40252 0.20286 0.92182 -0.02900
C 	C 	0.28549 0.14460 0.96710 0.00100
C 	C 	0.27430 0.16336 0.00699 -0.03300
C 	C 	0.22697 0.14230 0.01099 -0.03400
C 	C 	0.19061 0.10245 0.97513 0.00600
C 	C 	0.20166 0.08447 0.93445 -0.03900
C 	C 	0.24896 0.10546 0.93043 -0.03800
C 	C 	0.14218 0.07835 0.98178 0.00600
C 	C 	0.10144 0.05770 0.98671 -0.04100
C 	C 	0.47955 0.22305 0.96250 0.04800
C 	C 	0.52101 0.24067 0.96389 -0.11400
H 	H 	0.43148 0.18035 0.03579 0.04000
H 	H 	0.34788 0.14708 0.03823 0.04200
H 	H 	0.33409 0.18556 0.89193 0.04100
H 	H 	0.41774 0.21860 0.88942 0.03800
H 	H 	0.30227 0.19378 0.03528 0.04100
H 	H 	0.21865 0.15647 0.04245 0.04300
H 	H 	0.17369 0.05370 0.90655 0.04300
H 	H 	0.25725 0.09072 0.89952 0.04000
C 	C 	0.78962 0.56105 0.45593 -0.00900
H 	H 	0.72211 0.54916 0.45626 0.03900
C 	C 	0.75934 0.57456 0.45557 -0.03000
H 	H 	0.72541 0.57382 0.97860 0.03900
C 	C 	0.78930 0.57792 0.98247 -0.00900
H 	H 	0.86133 0.58396 0.45536 0.04000
C 	C 	0.95444 0.99885 0.42085 0.13500
N 	N 	0.95997 0.98207 0.99995 -0.13800
C 	C 	0.98157 0.96070 0.99710 0.13200
N 	N 	0.02794 0.98561 0.99325 -0.13800
N 	N 	0.99773 0.95617 0.42544 -0.14100
C 	C 	0.95069 0.93147 0.42592 0.13300
N 	N 	0.92895 0.95280 0.42370 -0.14000
C 	C 	0.77681 0.62068 0.45306 -0.04400
C 	C 	0.82471 0.65360 0.45086 0.01100
C 	C 	0.85523 0.64029 0.45253 -0.04400
C 	C 	0.83771 0.59413 0.45502 -0.03000
C 	C 	0.84252 0.70150 0.44487 0.00500
C 	C 	0.84297 0.73122 0.48407 -0.03800
C 	C 	0.86168 0.77723 0.47920 -0.04000
C 	C 	0.87997 0.79374 0.43512 0.01300
C 	C 	0.87840 0.76372 0.39539 -0.03900
C 	C 	0.85974 0.71776 0.40021 -0.03800
C 	C 	0.90399 0.84240 0.43254 0.00600
C 	C 	0.92428 0.88298 0.42950 -0.03800
H 	H 	0.75298 0.63062 0.45183 0.04200
H 	H 	0.89235 0.66554 0.45127 0.04200
H 	H 	0.82959 0.71894 0.51860 0.04000
H 	H 	0.86282 0.80025 0.51010 0.04300
H 	H 	0.89247 0.77624 0.36121 0.04400
H 	H 	0.85907 0.69493 0.36950 0.04100
C 	C 	0.90786 0.82047 0.99197 0.00700
C 	C 	0.90760 0.79305 0.95019 -0.03900
C 	C 	0.88405 0.74517 0.94840 -0.03700
C 	C 	0.86065 0.72443 0.98844 -0.00100
C 	C 	0.86071 0.75190 0.03011 -0.03200
C 	C 	0.88426 0.79980 0.03185 -0.03400
C 	C 	0.83611 0.67399 0.98672 0.01200
C 	C 	0.86191 0.65535 0.98802 -0.04500
C 	C 	0.83854 0.60743 0.98589 -0.03000
C 	C 	0.76350 0.59647 0.98124 -0.03000
C 	C 	0.78681 0.64436 0.98334 -0.04500
C 	C 	0.93341 0.87001 0.99450 0.00600
C 	C 	0.95500 0.91142 0.99593 -0.04000
H 	H 	0.92579 0.80884 0.91924 0.04300
H 	H 	0.88397 0.72420 0.91593 0.04000
H 	H 	0.84279 0.73620 0.06124 0.04100
H 	H 	0.88440 0.82083 0.06430 0.04400
H 	H 	0.90001 0.67798 0.99078 0.04100
H 	H 	0.85870 0.59330 0.98693 0.03800
H 	H 	0.76658 0.65841 0.98210 0.04100
