data_crystal

_cell_length_a 18.50322
_cell_length_b 18.77852
_cell_length_c 34.71801
_cell_angle_alpha 95.43325
_cell_angle_beta  95.43368
_cell_angle_gamma 126.41290

_symmetry_space_group_name_	'P 1'
_symmetry_space_group_name_H-M	'P 1'

loop_
_symmetry_equiv_pos_as_xyz
  x,y,z

loop_
_atom_site_label
_atom_site_type_symbol
_atom_site_fract_x
_atom_site_fract_y
_atom_site_fract_z
_atom_site_charge
C 	C 	0.89737 0.98610 0.96714 0.14400
N 	N 	0.98829 0.04075 0.96681 -0.13900
C 	C 	0.03500 0.00624 0.96499 0.12400
N 	N 	0.99115 0.91717 0.96450 -0.13100
C 	C 	0.90067 0.86228 0.96566 0.12900
N 	N 	0.85331 0.89662 0.96683 -0.12900
C 	C 	0.95924 0.04302 0.48953 0.11300
N 	N 	0.05024 0.08704 0.49066 -0.12600
C 	C 	0.08532 0.04075 0.49140 0.11600
N 	N 	0.02976 0.95121 0.49168 -0.12400
C 	C 	0.93912 0.90738 0.49073 0.12400
N 	N 	0.90373 0.95313 0.48914 -0.12300
Cu	Cu	0.74404 0.32815 0.95966 0.93100
Cu	Cu	0.71317 0.25296 0.04252 0.87700
Cu	Cu	0.60297 0.30444 0.00642 0.89600
Cu	Cu	0.57418 0.31803 0.92135 0.91000
C 	C 	0.68643 0.29270 0.87577 0.31600
O 	O 	0.79457 0.45847 0.95681 -0.34200
C 	C 	0.64040 0.31693 0.09213 0.30500
O 	O 	0.60176 0.25847 0.95339 -0.62900
O 	O 	0.73093 0.34541 0.01471 -0.64500
O 	O 	0.80467 0.26944 0.96792 -0.35100
O 	O 	0.69483 0.16988 0.99982 -0.41500
O 	O 	0.65303 0.33707 0.88224 -0.36400
O 	O 	0.48135 0.27407 0.99702 -0.35700
C 	C 	0.42134 0.22955 0.96376 0.28900
C 	C 	0.75021 0.49142 0.96549 0.27900
O 	O 	0.66273 0.43665 0.96694 -0.38400
O 	O 	0.44663 0.24710 0.92951 -0.37000
O 	O 	0.73604 0.29074 0.90488 -0.35500
C 	C 	0.76185 0.19311 0.98105 0.28700
O 	O 	0.60445 0.33306 0.06262 -0.35500
O 	O 	0.70698 0.31067 0.08908 -0.39500
H 	H 	0.56132 0.19191 0.94603 0.17400
H 	H 	0.77552 0.40770 0.02984 0.18400
Cu	Cu	0.63556 0.21894 0.50878 0.93100
Cu	Cu	0.70763 0.24427 0.42514 0.87500
Cu	Cu	0.65150 0.35075 0.45964 0.90100
Cu	Cu	0.64373 0.38600 0.54497 0.90900
C 	C 	0.67468 0.28068 0.59239 0.31600
O 	O 	0.50442 0.16830 0.51282 -0.34800
C 	C 	0.63623 0.30910 0.37417 0.30500
O 	O 	0.70339 0.35804 0.51279 -0.63200
O 	O 	0.61397 0.22633 0.45321 -0.64200
O 	O 	0.69396 0.15872 0.50086 -0.35700
O 	O 	0.79357 0.26457 0.46779 -0.42600
O 	O 	0.62849 0.31229 0.58552 -0.36400
O 	O 	0.67776 0.46861 0.46719 -0.36300
C 	C 	0.72489 0.53099 0.49938 0.28900
C 	C 	0.46841 0.20866 0.50243 0.27800
O 	O 	0.52151 0.29479 0.50058 -0.38700
O 	O 	0.71258 0.50987 0.53456 -0.37100
O 	O 	0.67757 0.23188 0.56361 -0.35200
C 	C 	0.77109 0.20028 0.48761 0.29300
O 	O 	0.61786 0.34341 0.40326 -0.35300
O 	O 	0.64652 0.24624 0.37803 -0.39900
H 	H 	0.77106 0.39916 0.51919 0.17400
H 	H 	0.55054 0.18027 0.43865 0.18400
C 	C 	0.69040 0.26816 0.83483 -0.09500
C 	C 	0.61141 0.22117 0.80520 0.14800
C 	C 	0.61921 0.21663 0.76552 -0.08000
C 	C 	0.70497 0.25599 0.75497 0.02600
C 	C 	0.78271 0.29534 0.78455 0.08300
C 	C 	0.77528 0.30185 0.82431 -0.00600
H 	H 	0.55881 0.18431 0.74285 0.09000
C 	C 	0.71406 0.26494 0.71349 0.02600
H 	H 	0.83607 0.33622 0.84695 0.07400
C 	C 	0.75161 0.34887 0.70270 -0.07900
C 	C 	0.74626 0.35596 0.66295 0.14800
C 	C 	0.70006 0.27798 0.63350 -0.09200
C 	C 	0.66826 0.19510 0.64426 -0.00400
C 	C 	0.67589 0.18850 0.68408 0.08400
H 	H 	0.78311 0.40834 0.72524 0.09100
H 	H 	0.63463 0.13515 0.62177 0.07600
Br	Br	0.89945 0.34085 0.77120 -0.19400
Br	Br	0.49211 0.16146 0.81838 -0.24700
Br	Br	0.80411 0.47293 0.64946 -0.24100
Br	Br	0.63351 0.07464 0.69775 -0.19600
C 	C 	0.61577 0.31943 0.13102 -0.09200
C 	C 	0.64286 0.40085 0.15350 0.15200
C 	C 	0.63556 0.40562 0.19334 -0.07900
C 	C 	0.60402 0.33056 0.21122 0.02300
C 	C 	0.57141 0.24780 0.18806 0.08600
C 	C 	0.57673 0.24253 0.14812 -0.01200
H 	H 	0.65931 0.46905 0.21091 0.08900
C 	C 	0.61658 0.34181 0.25464 0.02400
H 	H 	0.55450 0.17944 0.13076 0.05500
C 	C 	0.54098 0.30968 0.27306 -0.08000
C 	C 	0.54742 0.30267 0.31289 0.15200
C 	C 	0.63113 0.33073 0.33485 -0.09300
C 	C 	0.70833 0.36952 0.31714 -0.01200
C 	C 	0.70137 0.37454 0.27720 0.08500
H 	H 	0.47591 0.28554 0.25592 0.08800
H 	H 	0.77311 0.39231 0.33407 0.05500
Br	Br	0.52501 0.14266 0.21106 -0.20900
Br	Br	0.69576 0.50767 0.13121 -0.21300
Br	Br	0.43973 0.24883 0.33584 -0.21300
Br	Br	0.80715 0.42115 0.25340 -0.20600
C 	C 	0.77697 0.62655 0.49586 -0.06800
C 	C 	0.77096 0.68468 0.52142 0.01000
C 	C 	0.82262 0.77635 0.51976 -0.02200
C 	C 	0.87957 0.81037 0.49153 0.00200
C 	C 	0.88407 0.75196 0.46541 -0.03700
C 	C 	0.83409 0.66069 0.46766 0.02000
H 	H 	0.72659 0.65861 0.54289 0.05300
H 	H 	0.92787 0.77805 0.44372 0.06200
C 	C 	0.84442 0.60337 0.44189 0.07900
C 	C 	0.81940 0.83553 0.54810 0.10200
N 	N 	0.85265 0.55748 0.42123 -0.11900
N 	N 	0.81683 0.88293 0.57079 -0.10100
C 	C 	0.92092 0.09274 0.48987 0.00600
C 	C 	0.89764 0.11140 0.52469 -0.04300
C 	C 	0.85009 0.14801 0.52459 0.02700
C 	C 	0.82444 0.16520 0.48911 -0.08200
C 	C 	0.85023 0.14896 0.45455 0.00900
C 	C 	0.89808 0.11277 0.45475 -0.02700
H 	H 	0.91551 0.09623 0.55177 0.06300
H 	H 	0.83135 0.16282 0.42729 0.02400
C 	C 	0.92112 0.09389 0.41851 0.09600
C 	C 	0.83024 0.16995 0.56118 0.09000
N 	N 	0.93942 0.07869 0.38945 -0.10200
N 	N 	0.81454 0.18752 0.59055 -0.09200
C 	C 	0.18429 0.08825 0.49473 0.00200
C 	C 	0.23340 0.08957 0.52849 -0.04000
C 	C 	0.32556 0.12611 0.53089 0.01900
C 	C 	0.36939 0.16139 0.49900 -0.07000
C 	C 	0.32037 0.16044 0.46529 0.00400
C 	C 	0.22814 0.12398 0.46295 -0.02100
H 	H 	0.19957 0.06171 0.55288 0.05900
H 	H 	0.35424 0.18851 0.44094 0.05100
C 	C 	0.17867 0.12203 0.42758 0.10200
C 	C 	0.37528 0.12952 0.56664 0.08700
N 	N 	0.13914 0.12049 0.39921 -0.09700
N 	N 	0.41510 0.13227 0.59526 -0.09700
C 	C 	0.79360 0.58789 0.96628 -0.06900
C 	C 	0.79000 0.63734 0.99800 0.01300
C 	C 	0.82011 0.72559 0.99727 -0.01200
C 	C 	0.85403 0.76513 0.96438 -0.00100
C 	C 	0.85643 0.71524 0.93246 -0.03600
C 	C 	0.82660 0.62721 0.93319 0.01900
H 	H 	0.76314 0.60684 0.02317 0.04400
H 	H 	0.88298 0.74564 0.90723 0.06200
C 	C 	0.82823 0.57713 0.89946 0.08900
C 	C 	0.81743 0.77553 0.03067 0.09000
N 	N 	0.82960 0.53712 0.87243 -0.09500
N 	N 	0.81529 0.81558 0.05741 -0.10000
C 	C 	0.79315 0.13665 0.97734 -0.06300
C 	C 	0.79999 0.10734 0.94011 0.00400
C 	C 	0.82672 0.05138 0.93589 -0.01300
C 	C 	0.84794 0.02507 0.96926 -0.00400
C 	C 	0.83808 0.05181 0.00622 -0.04400
C 	C 	0.81199 0.10819 0.01059 0.01100
H 	H 	0.78391 0.12754 0.91440 0.05500
H 	H 	0.85503 0.03225 0.03197 0.05700
C 	C 	0.80935 0.14019 0.04956 0.05800
C 	C 	0.83182 0.02085 0.89718 0.08900
N 	N 	0.80726 0.16580 0.08079 -0.12600
N 	N 	0.83583 0.99630 0.86616 -0.08500
C 	C 	0.32298 0.17433 0.96520 -0.06900
C 	C 	0.26484 0.18056 0.93920 0.00900
C 	C 	0.17072 0.12601 0.93874 -0.02000
C 	C 	0.13407 0.06590 0.96534 -0.00200
C 	C 	0.19231 0.06060 0.99173 -0.02800
C 	C 	0.28616 0.11356 0.99155 0.02700
H 	H 	0.29287 0.22744 0.91904 0.05400
H 	H 	0.16427 0.01444 0.01219 0.05000
C 	C 	0.34356 0.10292 0.01759 0.06600
C 	C 	0.11200 0.12980 0.90988 0.10200
N 	N 	0.38951 0.09443 0.03846 -0.11900
N 	N 	0.06511 0.13295 0.88675 -0.09900
