data_crystal

_cell_length_a 21.40062
_cell_length_b 25.80476
_cell_length_c 26.55157
_cell_angle_alpha 90.00046
_cell_angle_beta  90.01894
_cell_angle_gamma 92.64630

_symmetry_space_group_name_	'P 1'
_symmetry_space_group_name_H-M	'P 1'

loop_
_symmetry_equiv_pos_as_xyz
  x,y,z

loop_
_atom_site_label
_atom_site_type_symbol
_atom_site_fract_x
_atom_site_fract_y
_atom_site_fract_z
_atom_site_charge
C 	C 	0.93756 0.88974 0.95141 0.09800
N 	N 	0.97840 0.91758 0.98039 -0.16500
C 	C 	0.03175 0.89190 0.98052 0.12200
C 	C 	0.08490 0.90514 0.01482 -0.08400
C 	C 	0.10236 0.96025 0.02408 0.07900
C 	C 	0.12759 0.86472 0.03168 0.04500
C 	C 	0.10338 0.81700 0.05045 -0.04800
C 	C 	0.14314 0.77621 0.05847 -0.03500
C 	C 	0.20762 0.78357 0.04971 0.04000
C 	C 	0.19268 0.87316 0.02691 -0.04200
N 	N 	0.09943 0.99702 0.98832 -0.10100
C 	C 	0.11408 0.98165 0.07097 -0.05400
C 	C 	0.11073 0.04231 0.01259 0.05500
C 	C 	0.09715 0.09276 0.99013 -0.05600
C 	C 	0.14263 0.13692 0.99660 0.06800
C 	C 	0.24458 0.17793 0.97933 0.00100
C 	C 	0.12653 0.18046 0.02452 -0.07600
C 	C 	0.16943 0.22262 0.02990 -0.01300
C 	C 	0.22856 0.22147 0.00725 0.01300
N 	N 	0.98953 0.06879 0.96093 -0.17200
C 	C 	0.94632 0.09262 0.93360 0.10800
C 	C 	0.97305 0.13594 0.90973 -0.05800
C 	C 	0.03542 0.13847 0.92328 -0.05500
C 	C 	0.87865 0.08520 0.94378 -0.07700
C 	C 	0.84071 0.13056 0.95291 0.06000
C 	C 	0.76697 0.19221 0.92309 -0.03600
C 	C 	0.76594 0.21499 0.97106 0.05900
C 	C 	0.80293 0.19564 0.00980 -0.04600
C 	C 	0.84070 0.15390 0.00058 -0.06400
N 	N 	0.87966 0.99009 0.93076 -0.11900
C 	C 	0.79322 0.96518 0.97442 -0.01900
C 	C 	0.84503 0.94920 0.94862 0.07800
C 	C 	0.86931 0.89667 0.95283 -0.05200
C 	C 	0.82501 0.85116 0.95664 0.01100
C 	C 	0.77959 0.84196 0.91916 -0.01800
C 	C 	0.73344 0.80237 0.92525 -0.05800
C 	C 	0.73245 0.77160 0.96878 0.09500
C 	C 	0.77885 0.77983 0.00564 -0.10200
C 	C 	0.82510 0.81940 0.99951 0.02500
C 	C 	0.96499 0.84614 0.93255 -0.05100
C 	C 	0.02551 0.84772 0.95096 -0.06100
C 	C 	0.23253 0.83310 0.03707 -0.02700
C 	C 	0.11927 0.03456 0.06363 -0.05700
C 	C 	0.04380 0.09662 0.95493 0.10300
C 	C 	0.79565 0.01851 0.97168 -0.07600
C 	C 	0.84886 0.03234 0.94429 0.09400
C 	C 	0.80398 0.14995 0.91414 -0.04700
H 	H 	0.96583 0.94397 0.00806 0.08000
H 	H 	0.97904 0.04506 0.99199 0.09900
H 	H 	0.69791 0.79610 0.89654 0.06600
H 	H 	0.77845 0.75612 0.03932 0.07200
H 	H 	0.77941 0.86610 0.88578 0.05000
H 	H 	0.86000 0.82623 0.02863 0.02100
H 	H 	0.12357 0.73842 0.06943 0.05400
H 	H 	0.21226 0.91007 0.01349 0.05500
H 	H 	0.28247 0.83954 0.03170 0.06300
H 	H 	0.05355 0.81076 0.05656 0.04700
H 	H 	0.15687 0.25604 0.05174 0.05300
H 	H 	0.08085 0.18161 0.04196 0.05500
C 	C 	0.20178 0.13579 0.97406 -0.05700
H 	H 	0.29028 0.17672 0.96192 0.05800
H 	H 	0.73842 0.20679 0.89300 0.05800
H 	H 	0.80401 0.13220 0.87716 0.05500
H 	H 	0.86910 0.13912 0.03066 0.04900
H 	H 	0.80192 0.21261 0.04709 0.06000
H 	H 	0.93979 0.81143 0.91932 0.06300
H 	H 	0.05523 0.81495 0.95248 0.07200
H 	H 	0.10230 0.96293 0.10642 0.05200
H 	H 	0.11144 0.06314 0.09252 0.04800
H 	H 	0.94763 0.16889 0.89720 0.06400
H 	H 	0.06510 0.17358 0.92230 0.06700
H 	H 	0.76879 0.94288 0.00348 0.03200
H 	H 	0.77341 0.04345 0.99839 0.06300
H 	H 	0.21443 0.10235 0.95228 0.06200
C 	C 	0.07254 0.09727 0.42543 0.10300
N 	N 	0.02370 0.07202 0.44796 -0.17200
C 	C 	0.97192 0.09482 0.43213 0.10100
C 	C 	0.91192 0.08967 0.45986 -0.07100
C 	C 	0.88751 0.03778 0.47570 0.08800
C 	C 	0.87378 0.13536 0.46820 0.04100
C 	C 	0.90106 0.18121 0.48870 -0.04400
C 	C 	0.86525 0.22469 0.49513 -0.02600
C 	C 	0.80129 0.22192 0.48317 0.04000
C 	C 	0.80996 0.13289 0.45579 -0.04300
N 	N 	0.90238 0.99390 0.45199 -0.12200
C 	C 	0.85981 0.02719 0.52180 -0.06600
C 	C 	0.88239 0.95505 0.48271 0.08900
C 	C 	0.90242 0.90152 0.47697 -0.07100
C 	C 	0.85584 0.85797 0.48356 0.04300
C 	C 	0.75693 0.81466 0.46037 -0.02700
C 	C 	0.86381 0.82091 0.52142 -0.04600
C 	C 	0.81840 0.78083 0.52872 -0.03000
C 	C 	0.76481 0.77764 0.49822 0.03900
N 	N 	0.01642 0.92291 0.46871 -0.17200
C 	C 	0.06670 0.89640 0.45571 0.10200
C 	C 	0.04809 0.84855 0.43557 -0.05700
C 	C 	0.98347 0.84595 0.43648 -0.06000
C 	C 	0.12976 0.90874 0.47674 -0.07100
C 	C 	0.16778 0.86666 0.49606 0.04100
C 	C 	0.25801 0.81375 0.48823 -0.02700
C 	C 	0.23614 0.78270 0.52848 0.04100
C 	C 	0.18044 0.79429 0.55301 -0.03300
C 	C 	0.14639 0.83619 0.53688 -0.04500
N 	N 	0.13425 0.99851 0.44280 -0.12200
C 	C 	0.20213 0.03653 0.49780 -0.06300
C 	C 	0.16217 0.04389 0.45769 0.08800
C 	C 	0.13735 0.09463 0.44433 -0.07200
C 	C 	0.17795 0.14228 0.44850 0.04200
C 	C 	0.21606 0.15838 0.40796 -0.04500
C 	C 	0.25653 0.20222 0.41265 -0.03400
C 	C 	0.25989 0.22981 0.45822 0.04000
C 	C 	0.22123 0.21391 0.49861 -0.02700
C 	C 	0.17978 0.17074 0.49349 -0.04500
C 	C 	0.05200 0.13640 0.39469 -0.06000
C 	C 	0.98758 0.13472 0.39883 -0.05900
C 	C 	0.77379 0.17575 0.46376 -0.03400
C 	C 	0.85654 0.97395 0.52631 -0.04900
C 	C 	0.96572 0.89229 0.45719 0.10300
C 	C 	0.19925 0.98404 0.50749 -0.04900
C 	C 	0.15770 0.96208 0.47285 0.09000
C 	C 	0.22408 0.85564 0.47221 -0.04400
H 	H 	0.02676 0.05148 0.48175 0.09300
H 	H 	0.01701 0.95235 0.49577 0.09600
H 	H 	0.28624 0.21410 0.38130 0.05700
H 	H 	0.22405 0.23449 0.53416 0.06300
H 	H 	0.21461 0.13672 0.37299 0.05200
H 	H 	0.15023 0.15864 0.52487 0.05100
H 	H 	0.88706 0.26039 0.50957 0.06600
H 	H 	0.78847 0.09782 0.43972 0.05300
H 	H 	0.72447 0.17332 0.45432 0.05900
H 	H 	0.95007 0.18332 0.49909 0.05400
H 	H 	0.82479 0.75237 0.55805 0.05600
H 	H 	0.90490 0.82334 0.54529 0.05000
C 	C 	0.80230 0.85461 0.45301 -0.04300
H 	H 	0.71565 0.81245 0.43670 0.06000
H 	H 	0.30068 0.80478 0.46879 0.06100
H 	H 	0.24080 0.87883 0.44053 0.05500
H 	H 	0.10298 0.84451 0.55557 0.05100
H 	H 	0.16309 0.77037 0.58397 0.05700
H 	H 	0.08008 0.17027 0.38311 0.05900
H 	H 	0.95860 0.16687 0.39034 0.05600
H 	H 	0.85965 0.05396 0.55319 0.05900
H 	H 	0.85371 0.95329 0.56178 0.05300
H 	H 	0.07674 0.81508 0.43432 0.05700
H 	H 	0.95493 0.81022 0.43577 0.06200
H 	H 	0.21568 0.06592 0.52529 0.05500
H 	H 	0.21051 0.96693 0.54341 0.05900
H 	H 	0.79582 0.88303 0.42367 0.05600
Ni	Ni	0.46661 0.53719 0.06399 1.10000
O 	O 	0.53159 0.48173 0.05527 -0.70800
Ni	Ni	0.51528 0.45912 0.98442 1.10600
O 	O 	0.49429 0.55036 0.13717 -0.34900
O 	O 	0.48203 0.46411 0.15625 -0.38000
O 	O 	0.53703 0.58779 0.04019 -0.37300
Ni	Ni	0.51902 0.42116 0.09793 1.08100
O 	O 	0.35429 0.57811 0.99402 -0.39200
O 	O 	0.42957 0.40681 0.07350 -0.38900
O 	O 	0.58726 0.41091 0.97893 -0.35100
O 	O 	0.44267 0.50592 0.99708 -0.68000
O 	O 	0.40558 0.59701 0.06892 -0.33500
O 	O 	0.50234 0.45595 0.90780 -0.36500
O 	O 	0.50217 0.54413 0.90369 -0.40900
Ni	Ni	0.42756 0.56157 0.94968 1.07600
H 	H 	0.57502 0.49627 0.05864 0.16000
H 	H 	0.40318 0.48493 0.00135 0.14500
C 	C 	0.41818 0.38481 0.02982 0.30800
O 	O 	0.47776 0.62362 0.97929 -0.35400
C 	C 	0.50354 0.51126 0.16789 0.28900
C 	C 	0.59525 0.37523 0.01376 0.28400
C 	C 	0.53165 0.61962 0.00209 0.27600
C 	C 	0.50340 0.49887 0.88105 0.29300
C 	C 	0.36121 0.60625 0.03539 0.30800
O 	O 	0.45558 0.39427 0.99121 -0.33900
O 	O 	0.55283 0.36662 0.04980 -0.36600
Ni	Ni	0.48823 0.53511 0.56120 1.10300
O 	O 	0.55466 0.48140 0.55238 -0.70500
Ni	Ni	0.55148 0.46991 0.47815 1.10300
O 	O 	0.50328 0.53683 0.63742 -0.35400
O 	O 	0.48620 0.44881 0.64379 -0.39600
O 	O 	0.56152 0.58839 0.55263 -0.37300
Ni	Ni	0.53510 0.41541 0.58498 1.07100
O 	O 	0.38746 0.58904 0.48668 -0.38900
O 	O 	0.45146 0.40406 0.54865 -0.40400
O 	O 	0.62532 0.42352 0.47474 -0.35000
O 	O 	0.47596 0.51438 0.48880 -0.70100
O 	O 	0.42648 0.59384 0.56815 -0.35800
O 	O 	0.55196 0.47709 0.40104 -0.35200
O 	O 	0.54758 0.56487 0.40719 -0.39600
Ni	Ni	0.46759 0.57710 0.44880 1.08300
H 	H 	0.59684 0.49498 0.56249 0.16400
H 	H 	0.43649 0.49305 0.48608 0.16700
C 	C 	0.44887 0.38942 0.50143 0.31700
O 	O 	0.51369 0.63286 0.49088 -0.38400
C 	C 	0.50291 0.49391 0.66440 0.29000
C 	C 	0.62855 0.38393 0.50612 0.30600
C 	C 	0.56372 0.62376 0.51716 0.32400
C 	C 	0.55082 0.52292 0.37945 0.29200
C 	C 	0.38636 0.60788 0.53302 0.32300
O 	O 	0.49332 0.40431 0.46962 -0.34200
O 	O 	0.57973 0.36924 0.53456 -0.37700
C 	C 	0.50263 0.49642 0.82560 -0.09800
C 	C 	0.54135 0.46281 0.79941 0.14600
C 	C 	0.54377 0.46455 0.74661 -0.05000
C 	C 	0.50582 0.49770 0.71966 -0.09000
C 	C 	0.46743 0.53153 0.74588 0.14400
C 	C 	0.46480 0.52964 0.79859 -0.04600
H 	H 	0.57460 0.43951 0.72658 0.04400
H 	H 	0.43352 0.55438 0.81851 0.04000
O 	O 	0.58146 0.43198 0.82550 -0.18000
O 	O 	0.42756 0.56261 0.71984 -0.17800
C 	C 	0.55512 0.38083 0.82705 -0.03200
H 	H 	0.50657 0.37903 0.84232 0.06800
H 	H 	0.58390 0.35756 0.85252 0.07200
H 	H 	0.55599 0.36250 0.78914 0.04800
C 	C 	0.45452 0.61355 0.71805 -0.03600
H 	H 	0.45452 0.63190 0.75598 0.05500
H 	H 	0.42566 0.63710 0.69290 0.07700
H 	H 	0.50280 0.61489 0.70225 0.07600
C 	C 	0.52415 0.52176 0.21982 -0.08800
C 	C 	0.57030 0.49177 0.24175 0.14600
C 	C 	0.58034 0.49383 0.29385 -0.04200
C 	C 	0.54569 0.52646 0.32422 -0.09200
C 	C 	0.50157 0.55840 0.30179 0.14900
C 	C 	0.49271 0.55714 0.24946 -0.04400
H 	H 	0.61418 0.46913 0.31078 0.08300
H 	H 	0.45848 0.58143 0.23246 0.08300
O 	O 	0.60146 0.45661 0.21292 -0.21300
O 	O 	0.46874 0.59237 0.33080 -0.21600
C 	C 	0.65683 0.48145 0.19438 -0.02900
H 	H 	0.64661 0.51488 0.16963 0.03700
H 	H 	0.68176 0.45328 0.17112 0.04000
H 	H 	0.68884 0.49409 0.22559 0.05400
C 	C 	0.41062 0.56805 0.34397 -0.03900
H 	H 	0.38105 0.55999 0.31010 0.06300
H 	H 	0.38518 0.59483 0.36843 0.02600
H 	H 	0.41651 0.53178 0.36587 0.00800
C 	C 	0.26890 0.73561 0.54192 -0.00800
C 	C 	0.32915 0.73944 0.56331 0.14200
C 	C 	0.36569 0.69588 0.56463 -0.03100
C 	C 	0.34250 0.64843 0.54471 -0.10000
C 	C 	0.27968 0.64329 0.52888 0.19700
C 	C 	0.24333 0.68693 0.52719 -0.09400
H 	H 	0.41329 0.69965 0.57856 0.09800
H 	H 	0.19608 0.68342 0.51246 0.08600
Cl	Cl	0.35993 0.79890 0.58735 -0.30000
Cl	Cl	0.24588 0.58239 0.51138 -0.31000
C 	C 	0.61739 0.66118 0.51518 -0.11000
C 	C 	0.62076 0.70450 0.54745 0.20500
C 	C 	0.67030 0.74156 0.54278 -0.09700
C 	C 	0.71656 0.73576 0.50605 -0.00700
C 	C 	0.71407 0.69165 0.47477 0.13900
C 	C 	0.66449 0.65467 0.47938 -0.03000
H 	H 	0.67219 0.77538 0.56705 0.08800
H 	H 	0.66225 0.62113 0.45476 0.06600
Cl	Cl	0.56262 0.71329 0.59323 -0.31000
Cl	Cl	0.77263 0.68244 0.42946 -0.31400
C 	C 	0.67854 0.34725 0.49921 -0.09600
C 	C 	0.69309 0.32812 0.45096 0.20500
C 	C 	0.73669 0.28974 0.44608 -0.09400
C 	C 	0.76343 0.26792 0.48890 -0.00600
C 	C 	0.74897 0.28698 0.53703 0.14100
C 	C 	0.70758 0.32707 0.54184 -0.03000
H 	H 	0.74759 0.27506 0.40900 0.08600
H 	H 	0.69625 0.34133 0.57898 0.05600
Cl	Cl	0.65315 0.34815 0.39673 -0.28800
Cl	Cl	0.77929 0.25890 0.59182 -0.31700
C 	C 	0.30821 0.27204 0.46526 -0.00700
C 	C 	0.29144 0.32333 0.47480 0.13900
C 	C 	0.33788 0.36173 0.48573 -0.02800
C 	C 	0.40114 0.34978 0.48587 -0.10400
C 	C 	0.41801 0.29904 0.47403 0.19800
C 	C 	0.37158 0.26047 0.46419 -0.09500
H 	H 	0.32474 0.40087 0.49413 0.07200
H 	H 	0.38475 0.22119 0.45647 0.08500
Cl	Cl	0.21273 0.34028 0.47185 -0.30600
Cl	Cl	0.49706 0.28275 0.47285 -0.29600
C 	C 	0.24741 0.73838 0.04652 -0.02300
C 	C 	0.27190 0.72326 0.99983 0.15600
C 	C 	0.31129 0.68175 0.99740 -0.00300
C 	C 	0.32401 0.65278 0.04065 -0.11100
C 	C 	0.29816 0.66697 0.08733 0.20400
C 	C 	0.26079 0.71015 0.09011 -0.09000
H 	H 	0.33108 0.67124 0.96144 0.06500
H 	H 	0.24145 0.72130 0.12603 0.08500
Cl	Cl	0.25101 0.75432 0.94354 -0.30500
Cl	Cl	0.30902 0.62966 0.14196 -0.31200
C 	C 	0.68103 0.73252 0.97690 -0.04600
C 	C 	0.68906 0.67984 0.96612 0.16400
C 	C 	0.63975 0.64327 0.97417 -0.05600
C 	C 	0.58216 0.65886 0.99259 -0.04400
C 	C 	0.57411 0.71160 0.00339 0.13800
C 	C 	0.62346 0.74814 0.99535 -0.02500
H 	H 	0.64615 0.60270 0.96598 0.07400
H 	H 	0.61721 0.78867 0.00380 0.05700
Cl	Cl	0.76052 0.65923 0.94214 -0.31000
Cl	Cl	0.50328 0.73219 0.02874 -0.30200
C 	C 	0.63870 0.33425 0.00276 -0.10800
C 	C 	0.61596 0.28353 0.99104 0.21300
C 	C 	0.65793 0.24484 0.98133 -0.09300
C 	C 	0.72258 0.25648 0.98166 -0.01500
C 	C 	0.74528 0.30759 0.99162 0.16100
C 	C 	0.70329 0.34611 0.00244 -0.05600
H 	H 	0.64027 0.20573 0.97298 0.08700
H 	H 	0.72089 0.38532 0.01040 0.06700
Cl	Cl	0.53500 0.26850 0.98572 -0.28500
Cl	Cl	0.82598 0.32424 0.98911 -0.30300
C 	C 	0.27483 0.26479 0.01464 -0.01400
C 	C 	0.27488 0.30888 0.98341 0.15100
C 	C 	0.32154 0.34827 0.98904 -0.00500
C 	C 	0.36823 0.34405 0.02568 -0.12000
C 	C 	0.36815 0.29982 0.05688 0.21200
C 	C 	0.32126 0.26071 0.05145 -0.09800
H 	H 	0.32163 0.38207 0.96478 0.06400
H 	H 	0.32161 0.22657 0.07521 0.08700
Cl	Cl	0.21738 0.31479 0.93654 -0.30400
Cl	Cl	0.42836 0.29149 0.10105 -0.32400
