data_crystal

_cell_length_a 24.59661
_cell_length_b 24.80677
_cell_length_c 26.34652
_cell_angle_alpha 95.51608
_cell_angle_beta  95.51601
_cell_angle_gamma 125.78016

_symmetry_space_group_name_	'P 1'
_symmetry_space_group_name_H-M	'P 1'

loop_
_symmetry_equiv_pos_as_xyz
  x,y,z

loop_
_atom_site_label
_atom_site_type_symbol
_atom_site_fract_x
_atom_site_fract_y
_atom_site_fract_z
_atom_site_charge
C 	C 	0.04944 0.01680 0.48227 0.03800
C 	C 	0.03079 0.05855 0.47080 -0.07600
S 	S 	0.16550 0.02416 0.51394 -0.01100
C 	C 	0.14635 0.05794 0.96035 -0.05500
C 	C 	0.04851 0.05897 0.03840 -0.07700
C 	C 	0.21708 0.03288 0.47356 0.00300
C 	C 	0.11655 0.03528 0.47467 -0.00400
C 	C 	0.24221 0.08712 0.91589 -0.06000
C 	C 	0.12047 0.02996 0.00362 -0.00900
H 	H 	0.09399 0.11039 0.05248 0.05100
H 	H 	0.06537 0.10349 0.45541 0.05300
C 	C 	0.28455 0.05632 0.48953 -0.05600
C 	C 	0.19712 0.04595 0.42722 0.02700
C 	C 	0.13956 0.04601 0.42752 -0.06000
H 	H 	0.30264 0.05680 0.52885 0.04700
H 	H 	0.11753 0.05601 0.39557 0.04600
C 	C 	0.29842 0.08584 0.91653 0.00100
C 	C 	0.19381 0.04732 0.94570 0.02400
S 	S 	0.37273 0.14811 0.90372 0.01700
C 	C 	0.24293 0.07688 0.39343 -0.06100
C 	C 	0.20322 0.00926 0.97659 0.00500
H 	H 	0.75408 0.16199 0.06972 0.04600
C 	C 	0.32931 0.08409 0.45453 0.01400
H 	H 	0.23064 0.09331 0.36044 0.04700
C 	C 	0.30725 0.09121 0.40599 0.00300
C 	C 	0.79712 0.18779 0.05013 -0.01900
H 	H 	0.81481 0.10665 0.10535 0.04600
H 	H 	0.71069 0.22388 0.28461 0.04600
C 	C 	0.31148 0.05364 0.95167 0.01300
C 	C 	0.26429 0.01614 0.98315 -0.05200
C 	C 	0.84503 0.17350 0.04957 0.01200
C 	C 	0.40140 0.12601 0.46991 -0.02000
H 	H 	0.42703 0.13427 0.50881 0.04700
C 	C 	0.85330 0.13717 0.08294 -0.05600
S 	S 	0.65041 0.21528 0.27175 -0.06200
C 	C 	0.42289 0.13494 0.93888 -0.07700
O 	O 	0.69605 0.20657 0.00884 -0.37900
O 	O 	0.53205 0.17554 0.98813 -0.36100
H 	H 	0.63253 0.21403 0.16257 0.05100
C 	C 	0.80999 0.23707 0.02052 -0.08700
C 	C 	0.38157 0.08124 0.96419 -0.02100
H 	H 	0.58529 0.19391 0.89921 0.17500
S 	S 	0.37591 0.15021 0.38461 0.01200
C 	C 	0.75676 0.24165 0.99644 0.29800
C 	C 	0.49572 0.18849 0.95932 0.28100
S 	S 	0.87889 0.26041 0.99456 0.01100
C 	C 	0.89313 0.20969 0.01890 -0.00000
C 	C 	0.43487 0.16546 0.43321 -0.07400
Cu	Cu	0.70630 0.24034 0.89640 0.87100
Cu	Cu	0.63519 0.23430 0.99677 0.92900
O 	O 	0.66489 0.23026 0.82795 -0.41200
O 	O 	0.63004 0.23109 0.92094 -0.63900
C 	C 	0.91271 0.14080 0.08588 0.00300
C 	C 	0.65113 0.26369 0.18262 -0.02000
O 	O 	0.65199 0.25552 0.07106 -0.36100
H 	H 	0.40205 0.06993 0.99622 0.04700
O 	O 	0.76883 0.27802 0.96029 -0.43900
S 	S 	0.91639 0.07863 0.09850 -0.01300
O 	O 	0.55000 0.23103 0.48094 -0.37600
C 	C 	0.50592 0.22653 0.44452 0.28400
S 	S 	0.78611 0.18236 0.37604 0.01200
H 	H 	0.62885 0.25643 0.39814 0.16300
C 	C 	0.66346 0.27790 0.23697 0.03600
C 	C 	0.96053 0.17642 0.05386 0.02700
C 	C 	0.95281 0.21454 0.02191 -0.06600
H 	H 	0.78904 0.06536 0.37616 0.04600
C 	C 	0.84848 0.17392 0.38126 0.00300
O 	O 	0.52448 0.24946 0.94908 -0.38700
H 	H 	0.23881 0.12154 0.89591 0.04600
C 	C 	0.90929 0.23720 0.40510 0.01300
C 	C 	0.83921 0.11353 0.38672 -0.06200
C 	C 	0.66763 0.28033 0.81204 0.28400
O 	O 	0.76658 0.26628 0.46081 -0.43600
C 	C 	0.90051 0.28866 0.41539 -0.02300
H 	H 	0.84627 0.01156 0.41833 0.04500
S 	S 	0.79011 0.28998 0.77950 -0.08900
C 	C 	0.94781 0.08619 0.46681 -0.00400
C 	C 	0.96431 0.24115 0.43132 -0.05700
C 	C 	0.89021 0.06408 0.43013 -0.06100
C 	C 	0.89559 0.11785 0.41020 0.02600
C 	C 	0.97864 0.09498 0.06644 -0.00600
H 	H 	0.98940 0.24272 0.99752 0.04900
C 	C 	0.67853 0.29160 0.75874 -0.08000
C 	C 	0.73070 0.29291 0.73921 0.04000
C 	C 	0.83285 0.26533 0.39998 -0.07700
O 	O 	0.52155 0.27957 0.42423 -0.38800
C 	C 	0.98431 0.04206 0.04369 0.03800
C 	C 	0.95813 0.18124 0.43005 0.00300
C 	C 	0.99781 0.15088 0.04333 -0.06000
O 	O 	0.65047 0.28390 0.56433 -0.38300
H 	H 	0.77672 0.29882 0.67269 0.03800
C 	C 	0.73811 0.30032 0.68790 -0.02700
C 	C 	0.80460 0.29571 0.42643 0.28700
C 	C 	0.96749 0.04215 0.47884 0.03700
C 	C 	0.63762 0.30262 0.72745 -0.02100
C 	C 	0.05398 0.01005 0.01391 0.03200
H 	H 	0.13171 0.08499 0.94030 0.04500
C 	C 	0.63938 0.29412 0.09701 0.28700
Cu	Cu	0.64777 0.29999 0.49222 0.89700
O 	O 	0.64904 0.30122 0.41959 -0.63800
H 	H 	0.59865 0.30343 0.74268 0.04900
C 	C 	0.69658 0.31022 0.65617 -0.07700
H 	H 	0.02795 0.16460 0.01301 0.04300
H 	H 	0.00859 0.28847 0.45439 0.04300
S 	S 	0.00362 0.17038 0.47280 -0.01800
O 	O 	0.65431 0.31642 0.84106 -0.37600
O 	O 	0.59501 0.30262 0.07502 -0.38100
C 	C 	0.66037 0.31252 0.15402 -0.07600
Cu	Cu	0.77827 0.31830 0.52440 0.87200
C 	C 	0.64729 0.31340 0.67676 0.03600
C 	C 	0.70523 0.31656 0.60170 0.28500
H 	H 	0.93879 0.33695 0.44076 0.03200
Cu	Cu	0.65560 0.32327 0.91655 0.89800
O 	O 	0.66941 0.33326 0.99076 -0.63400
H 	H 	0.84366 0.35433 0.80387 0.03100
Cu	Cu	0.59925 0.33714 0.00907 0.89200
C 	C 	0.68469 0.34135 0.26312 -0.07400
O 	O 	0.76625 0.34328 0.59061 -0.41800
O 	O 	0.81965 0.35368 0.41737 -0.37300
S 	S 	0.60087 0.33546 0.64121 -0.03900
Cu	Cu	0.60823 0.34251 0.39922 0.89500
C 	C 	0.69044 0.35469 0.31966 0.28600
O 	O 	0.74323 0.36553 0.34994 -0.35600
H 	H 	0.71610 0.37136 0.00902 0.15900
O 	O 	0.74850 0.36855 0.49765 -0.64100
O 	O 	0.65343 0.37190 0.33806 -0.38200
Cu	Cu	0.75411 0.37536 0.42402 0.92800
C 	C 	0.68604 0.37752 0.18042 0.03900
C 	C 	0.69718 0.39124 0.23469 -0.02100
H 	H 	0.63707 0.40445 0.65038 0.03500
H 	H 	0.76720 0.41173 0.52102 0.17200
O 	O 	0.68673 0.41537 0.91752 -0.37800
O 	O 	0.62417 0.41653 0.97687 -0.38900
O 	O 	0.67357 0.42699 0.46375 -0.38400
H 	H 	0.71539 0.44073 0.25484 0.04900
S 	S 	0.70703 0.44289 0.14612 -0.07500
C 	C 	0.67320 0.44845 0.94976 0.29000
O 	O 	0.77343 0.46750 0.43584 -0.35900
H 	H 	0.77302 0.47579 0.13886 0.03400
C 	C 	0.73457 0.47827 0.45878 0.28000
C 	C 	0.70488 0.51999 0.94856 -0.07900
H 	H 	0.27657 0.99675 0.01383 0.04200
S 	S 	0.15487 0.99151 0.02153 -0.01800
C 	C 	0.00398 0.95748 0.50066 -0.07600
H 	H 	0.01717 0.92367 0.50728 0.05500
H 	H 	0.66395 0.54527 0.00917 0.03500
C 	C 	0.68861 0.55849 0.97581 -0.01200
S 	S 	0.70975 0.57222 0.44785 0.01000
H 	H 	0.70409 0.67206 0.02293 0.04200
H 	H 	0.72064 0.69679 0.44850 0.04600
C 	C 	0.71229 0.61907 0.95728 0.01100
C 	C 	0.72324 0.67564 0.98709 -0.05100
C 	C 	0.74568 0.64209 0.49216 0.00400
C 	C 	0.75171 0.69965 0.48227 -0.06200
C 	C 	0.74479 0.62617 0.91457 0.00100
S 	S 	0.74578 0.55972 0.90202 0.02600
C 	C 	0.75529 0.54724 0.47180 -0.07200
C 	C 	0.76443 0.73802 0.97156 0.00600
C 	C 	0.79361 0.69010 0.90390 -0.06000
H 	H 	0.80509 0.82973 0.46502 0.04500
C 	C 	0.80185 0.74617 0.93198 0.02600
S 	S 	0.80520 0.81257 0.01093 -0.02100
C 	C 	0.79591 0.64772 0.52792 0.01400
C 	C 	0.80310 0.76202 0.51456 0.02600
C 	C 	0.80027 0.59332 0.51699 -0.02200
H 	H 	0.82687 0.69647 0.87709 0.04700
C 	C 	0.82807 0.82524 0.49999 -0.06000
H 	H 	0.87543 0.96350 0.02532 0.05500
H 	H 	0.83641 0.58938 0.53988 0.03400
H 	H 	0.87376 0.97053 0.50445 0.05000
C 	C 	0.86795 0.85772 0.97829 0.00000
C 	C 	0.86031 0.81379 0.93571 -0.06100
C 	C 	0.84853 0.76617 0.55444 0.00300
C 	C 	0.84871 0.71046 0.55900 -0.05600
C 	C 	0.92539 0.97599 0.02372 -0.08000
C 	C 	0.89280 0.87852 0.52863 -0.00500
H 	H 	0.89831 0.82835 0.91155 0.04500
C 	C 	0.93058 0.92662 0.99972 0.03900
C 	C 	0.92254 0.98320 0.49795 -0.07700
H 	H 	0.89107 0.71674 0.58301 0.04600
C 	C 	0.94070 0.94083 0.50905 0.03800
S 	S 	0.91799 0.84600 0.56932 -0.01300
H 	H 	0.99970 0.90562 0.97732 0.05200
C 	C 	0.99517 0.94359 0.99547 -0.07000
