data_crystal

_cell_length_a 20.49233
_cell_length_b 20.99368
_cell_length_c 43.60057
_cell_angle_alpha 60.41910
_cell_angle_beta  119.33075
_cell_angle_gamma 133.21550

_symmetry_space_group_name_	'P 1'
_symmetry_space_group_name_H-M	'P 1'

loop_
_symmetry_equiv_pos_as_xyz
  x,y,z

loop_
_atom_site_label
_atom_site_type_symbol
_atom_site_fract_x
_atom_site_fract_y
_atom_site_fract_z
_atom_site_charge
C 	C 	0.59079 0.22598 0.01709 -0.09200
C 	C 	0.57713 0.27856 0.02079 0.04200
C 	C 	0.65264 0.36117 0.02938 -0.08900
H 	H 	0.53175 0.16379 0.00874 0.04300
H 	H 	0.64171 0.40352 0.03066 0.05700
C 	C 	0.62416 0.20771 0.53695 -0.08700
C 	C 	0.60492 0.24749 0.54636 0.03700
C 	C 	0.67320 0.33534 0.55035 -0.08500
H 	H 	0.57711 0.13572 0.53938 0.04200
H 	H 	0.66139 0.36422 0.56030 0.05600
C 	C 	0.30813 0.68328 0.13192 0.04500
C 	C 	0.40004 0.71166 0.14297 -0.08700
C 	C 	0.42039 0.66252 0.14083 0.04400
C 	C 	0.34919 0.58141 0.13057 -0.08500
C 	C 	0.25749 0.55023 0.12073 0.04400
C 	C 	0.23656 0.60261 0.12004 -0.08600
H 	H 	0.45577 0.77360 0.15186 0.05900
H 	H 	0.36531 0.54269 0.12976 0.05600
H 	H 	0.16573 0.58061 0.11071 0.05900
C 	C 	0.30647 0.66390 0.64688 0.04300
C 	C 	0.39794 0.69018 0.65948 -0.08400
C 	C 	0.41899 0.64355 0.65589 0.04400
C 	C 	0.34804 0.56178 0.64630 -0.08500
C 	C 	0.25740 0.53509 0.63305 0.04400
C 	C 	0.23640 0.58767 0.63205 -0.08600
H 	H 	0.45326 0.74996 0.66986 0.05700
H 	H 	0.36448 0.52316 0.64563 0.05600
H 	H 	0.16676 0.56943 0.62007 0.05900
Co	Co	0.96093 0.05941 0.06375 1.14100
Co	Co	0.03364 0.01980 0.02694 1.15500
Co	Co	0.10325 0.92019 0.02669 1.18400
C 	C 	0.20761 0.11886 0.00904 0.31000
O 	O 	0.02402 0.06986 0.16584 -0.36900
C 	C 	0.04545 0.01272 0.18751 0.12100
O 	O 	0.00167 0.09963 0.01972 -0.47900
C 	C 	0.03470 0.20957 0.08990 0.34800
C 	C 	0.21462 0.91559 0.10131 0.30200
O 	O 	0.05555 0.97555 0.17424 -0.29700
O 	O 	0.22035 0.96445 0.06787 -0.36700
O 	O 	0.16618 0.90595 0.11726 -0.37100
O 	O 	0.95280 0.15818 0.09568 -0.45500
O 	O 	0.05963 0.17725 0.08160 -0.41300
O 	O 	0.04724 0.93560 0.04975 -0.72600
O 	O 	0.15973 0.05183 0.99459 -0.43800
O 	O 	0.17186 0.11575 0.02832 -0.42500
Co	Co	0.97693 0.06875 0.56206 1.14500
Co	Co	0.05694 0.02400 0.53171 1.16300
Co	Co	0.11674 0.91198 0.53526 1.18500
C 	C 	0.23603 0.11004 0.52236 0.32000
O 	O 	0.00468 0.06411 0.66165 -0.37100
C 	C 	0.01914 0.00231 0.68430 0.12900
O 	O 	0.03394 0.11215 0.52279 -0.47400
C 	C 	0.04632 0.21402 0.59020 0.35100
C 	C 	0.21040 0.89449 0.61247 0.30500
O 	O 	0.03370 0.96565 0.67288 -0.30000
O 	O 	0.22556 0.94536 0.58007 -0.36800
O 	O 	0.16006 0.88974 0.62543 -0.37200
O 	O 	0.95998 0.16738 0.58984 -0.45200
O 	O 	0.07336 0.18064 0.58386 -0.41500
O 	O 	0.05816 0.93234 0.55465 -0.72300
O 	O 	0.18672 0.04566 0.50624 -0.44600
O 	O 	0.19799 0.10967 0.53955 -0.42500
C 	C 	0.02156 0.02427 0.87801 -0.09800
C 	C 	0.01426 0.02687 0.90768 -0.04200
C 	C 	0.00534 0.00024 0.81022 -0.23000
C 	C 	0.02240 0.98857 0.78445 0.22900
C 	C 	0.09993 0.06069 0.76979 -0.16600
C 	C 	0.10647 0.05925 0.73965 -0.06500
C 	C 	0.03478 0.98634 0.72341 0.08700
H 	H 	0.08039 0.08165 0.86629 0.04300
H 	H 	0.06750 0.08619 0.91836 0.03800
H 	H 	0.02065 0.06482 0.80539 0.07400
H 	H 	0.15280 0.11999 0.78052 0.06100
H 	H 	0.16327 0.11830 0.72698 0.04300
C 	C 	0.05551 0.03794 0.41415 -0.03800
C 	C 	0.06486 0.03624 0.38480 -0.09800
C 	C 	0.99850 0.95940 0.37076 0.04800
C 	C 	0.01675 0.94819 0.34525 0.05400
C 	C 	0.06808 0.99864 0.22700 0.10100
C 	C 	0.14009 0.07354 0.24205 -0.12200
C 	C 	0.13727 0.07574 0.27298 -0.02100
H 	H 	0.10991 0.09515 0.42612 0.03900
H 	H 	0.12617 0.09235 0.37447 0.04200
H 	H 	0.00105 0.88350 0.34997 0.03600
H 	H 	0.19365 0.13335 0.22788 0.05600
H 	H 	0.18993 0.13643 0.28279 0.02700
C 	C 	0.18043 0.45851 0.58491 -0.09000
C 	C 	0.18598 0.45274 0.61952 -0.01600
C 	C 	0.14954 0.36788 0.64476 0.06400
C 	C 	0.11848 0.29286 0.63667 -0.02100
C 	C 	0.11334 0.29828 0.60223 -0.12400
C 	C 	0.14807 0.38290 0.57657 0.13200
N 	N 	0.15313 0.39267 0.54441 -0.20600
H 	H 	0.20910 0.52379 0.56556 0.05700
H 	H 	0.09213 0.22840 0.65646 0.04300
N 	N 	0.14569 0.35842 0.67714 -0.19300
H 	H 	0.17676 0.45482 0.52517 0.08900
H 	H 	0.13596 0.33947 0.53860 0.09700
H 	H 	0.16258 0.41161 0.68287 0.08300
H 	H 	0.12237 0.29637 0.69645 0.07900
C 	C 	0.60748 0.76411 0.61189 0.13500
C 	C 	0.52647 0.73164 0.61739 -0.09000
C 	C 	0.51141 0.69031 0.65242 -0.01400
C 	C 	0.57800 0.67980 0.68242 0.06400
H 	H 	0.47334 0.73564 0.59421 0.06100
N 	N 	0.61808 0.79850 0.57753 -0.20200
H 	H 	0.50541 0.61428 0.72182 0.08500
H 	H 	0.67492 0.81725 0.57261 0.10900
H 	H 	0.56760 0.80379 0.55523 0.10200
C 	C 	0.34875 0.81777 0.63288 -0.08700
C 	C 	0.28739 0.72364 0.64482 -0.01500
C 	C 	0.20956 0.68825 0.65485 0.07000
C 	C 	0.18740 0.74623 0.64702 -0.02400
C 	C 	0.24738 0.83983 0.63352 -0.10000
C 	C 	0.33336 0.87562 0.63071 0.12900
N 	N 	0.40090 0.96570 0.62556 -0.16000
H 	H 	0.40908 0.84630 0.62552 0.06000
H 	H 	0.12272 0.71815 0.65071 0.04900
N 	N 	0.15876 0.60067 0.67323 -0.19400
H 	H 	0.46267 0.99299 0.62140 0.10500
H 	H 	0.39444 0.00837 0.62778 0.04000
H 	H 	0.18247 0.56075 0.68509 0.08400
H 	H 	0.09808 0.57371 0.67819 0.08700
C 	C 	0.13894 0.30653 0.13256 -0.02200
C 	C 	0.10081 0.30042 0.09642 -0.12200
C 	C 	0.10386 0.37504 0.06819 0.13300
C 	C 	0.14579 0.45426 0.07681 -0.09000
C 	C 	0.18418 0.45998 0.11307 -0.01600
C 	C 	0.17474 0.38301 0.14117 0.06400
N 	N 	0.20110 0.38278 0.17654 -0.19300
H 	H 	0.13495 0.24896 0.15429 0.04300
H 	H 	0.15285 0.51309 0.05515 0.05700
N 	N 	0.06731 0.37134 0.03284 -0.20400
H 	H 	0.19764 0.32726 0.19736 0.08000
H 	H 	0.22176 0.43616 0.18357 0.08400
H 	H 	0.04058 0.31571 0.02545 0.09400
H 	H 	0.06704 0.42538 0.01222 0.08900
C 	C 	0.62977 0.76019 0.11554 0.13000
C 	C 	0.54295 0.73188 0.11320 -0.09000
C 	C 	0.51626 0.70135 0.14453 -0.01600
C 	C 	0.57659 0.69645 0.17907 0.06500
H 	H 	0.49491 0.73150 0.08689 0.05500
N 	N 	0.65108 0.78299 0.08496 -0.20200
H 	H 	0.48491 0.63644 0.20953 0.08600
H 	H 	0.71285 0.79952 0.08591 0.09800
H 	H 	0.60380 0.78100 0.05979 0.09100
C 	C 	0.34383 0.83653 0.11202 -0.07800
C 	C 	0.28922 0.74418 0.12883 -0.01800
C 	C 	0.22065 0.71235 0.14377 0.07300
C 	C 	0.20027 0.77097 0.13706 -0.02400
C 	C 	0.25342 0.86263 0.11910 -0.09600
C 	C 	0.33157 0.89663 0.11011 0.12000
N 	N 	0.39539 0.98700 0.09996 -0.11800
H 	H 	0.39782 0.86229 0.10125 0.06200
H 	H 	0.14245 0.74480 0.14545 0.04800
N 	N 	0.17707 0.62773 0.16557 -0.19300
H 	H 	0.45022 0.01221 0.09123 0.02300
H 	H 	0.39411 0.03259 0.10285 0.03900
H 	H 	0.20054 0.58821 0.17586 0.08600
H 	H 	0.12297 0.60313 0.17458 0.08800
N 	N 	0.56999 0.11459 0.48422 -0.19400
H 	H 	0.97347 0.32617 0.51025 0.07800
H 	H 	0.93987 0.22601 0.50602 0.08000
H 	H 	0.55462 0.16095 0.47353 0.07700
H 	H 	0.51894 0.05198 0.47783 0.06500
H 	H 	0.98314 0.59111 0.60905 0.03300
N 	N 	0.91762 0.44576 0.59543 -0.19400
H 	H 	0.89298 0.39186 0.58745 0.07900
H 	H 	0.96697 0.45839 0.62001 0.07000
C 	C 	0.45539 0.21623 0.50563 -0.09700
C 	C 	0.50883 0.20949 0.54130 -0.01900
C 	C 	0.47833 0.18837 0.57014 0.05300
C 	C 	0.39210 0.16866 0.56284 -0.01900
C 	C 	0.33626 0.16927 0.52738 -0.12900
C 	C 	0.37253 0.20229 0.49834 0.12800
N 	N 	0.32717 0.21968 0.46337 -0.20400
H 	H 	0.48137 0.23801 0.48328 0.05100
H 	H 	0.36551 0.14599 0.58515 0.03500
N 	N 	0.53103 0.18620 0.60478 -0.19400
H 	H 	0.35175 0.23996 0.44182 0.07900
H 	H 	0.26942 0.21699 0.45737 0.09000
H 	H 	0.59072 0.19127 0.61172 0.07100
H 	H 	0.51079 0.17622 0.62549 0.07000
H 	H 	0.84172 0.42371 0.10336 0.04500
N 	N 	0.93606 0.57025 0.12400 -0.20300
H 	H 	0.92854 0.51379 0.14525 0.07400
C 	C 	0.42528 0.24928 0.98322 -0.08800
C 	C 	0.48386 0.24497 0.01776 -0.02600
C 	C 	0.45675 0.21821 0.04878 0.06000
C 	C 	0.36895 0.19074 0.04464 -0.02100
C 	C 	0.30664 0.18508 0.01054 -0.13000
C 	C 	0.33783 0.22220 0.97928 0.13100
N 	N 	0.28392 0.23189 0.94552 -0.20500
H 	H 	0.44832 0.27500 0.95933 0.05000
H 	H 	0.34605 0.16542 0.06851 0.03600
N 	N 	0.51350 0.21629 0.08260 -0.19400
H 	H 	0.30528 0.25546 0.92244 0.08000
H 	H 	0.22232 0.21988 0.94194 0.09100
H 	H 	0.57418 0.22533 0.08733 0.07900
H 	H 	0.49492 0.20132 0.10497 0.07300
C 	C 	0.68074 0.25216 0.02546 0.04200
C 	C 	0.74214 0.38815 0.03766 0.04200
C 	C 	0.75654 0.33237 0.03700 -0.09200
H 	H 	0.82603 0.35195 0.04473 0.05000
C 	C 	0.70200 0.26232 0.52282 0.03600
C 	C 	0.75164 0.38962 0.53756 0.04300
C 	C 	0.76213 0.35560 0.52088 -0.08600
H 	H 	0.81723 0.40108 0.50705 0.04800
Co	Co	0.03275 0.87617 0.09236 1.19500
Co	Co	0.96144 0.91706 0.12981 1.17900
C 	C 	0.97462 0.73219 0.06605 0.28600
Co	Co	0.89919 0.02810 0.12848 1.12000
O 	O 	0.93735 0.99480 0.10471 -0.71200
O 	O 	0.99842 0.84062 0.13753 -0.47700
O 	O 	0.96563 0.94603 0.07320 -0.56700
C 	C 	0.79338 0.82899 0.15159 0.31200
C 	C 	0.96153 0.93734 0.96493 0.28200
O 	O 	0.84187 0.90039 0.16326 -0.39200
O 	O 	0.83315 0.81505 0.14163 -0.39400
O 	O 	0.97972 0.87855 0.98871 -0.39200
O 	O 	0.96649 0.99101 0.97535 -0.34200
C 	C 	0.78483 0.03386 0.05385 0.20000
O 	O 	0.78086 0.98522 0.08757 -0.30700
O 	O 	0.83763 0.05041 0.03768 -0.39500
O 	O 	0.05567 0.78979 0.05856 -0.38600
O 	O 	0.94877 0.75305 0.08014 -0.39600
Co	Co	0.03228 0.87045 0.59562 1.19600
Co	Co	0.95132 0.91565 0.62621 1.18100
C 	C 	0.96948 0.72770 0.56733 0.28900
Co	Co	0.89048 0.03428 0.61871 1.13200
O 	O 	0.93689 0.99955 0.59972 -0.70700
O 	O 	0.98593 0.83451 0.63728 -0.47400
O 	O 	0.97411 0.95009 0.57273 -0.56500
C 	C 	0.77390 0.83304 0.63952 0.31800
C 	C 	0.99246 0.94734 0.46896 0.31000
O 	O 	0.81993 0.90451 0.65066 -0.38600
O 	O 	0.81572 0.81929 0.63064 -0.39100
O 	O 	0.00177 0.88277 0.49299 -0.37100
O 	O 	0.00065 0.00377 0.47900 -0.41400
C 	C 	0.80327 0.05749 0.54029 0.30500
O 	O 	0.78417 0.00585 0.57238 -0.43000
O 	O 	0.85758 0.06362 0.52917 -0.41400
O 	O 	0.05434 0.77897 0.56453 -0.38900
O 	O 	0.94512 0.74906 0.58182 -0.39700
C 	C 	0.94483 0.94949 0.92608 -0.02800
C 	C 	0.87552 0.87383 0.91141 0.00300
C 	C 	0.88174 0.87155 0.88141 -0.06000
C 	C 	0.95688 0.94520 0.86548 0.05500
C 	C 	0.97421 0.93381 0.83968 0.05600
C 	C 	0.96251 0.90991 0.74057 -0.02900
C 	C 	0.95536 0.91147 0.77057 -0.12000
H 	H 	0.82085 0.81398 0.92504 0.03700
H 	H 	0.83067 0.81066 0.87176 0.04400
H 	H 	0.95870 0.86919 0.84439 0.01600
H 	H 	0.90714 0.85272 0.72859 0.04400
H 	H 	0.89493 0.85519 0.78144 0.06400
C 	C 	0.98157 0.96191 0.43050 -0.03400
C 	C 	0.91994 0.88735 0.38478 -0.06000
C 	C 	0.91125 0.88882 0.41433 0.00600
C 	C 	0.04815 0.01475 0.31586 -0.13000
C 	C 	0.06313 0.00255 0.28951 -0.02000
C 	C 	0.99664 0.92359 0.27684 -0.01100
C 	C 	0.00053 0.92112 0.24624 -0.01700
H 	H 	0.86766 0.82823 0.37394 0.04300
H 	H 	0.85327 0.83008 0.42639 0.03400
H 	H 	0.06450 0.07964 0.31135 0.05200
H 	H 	0.93874 0.86640 0.28912 0.03500
H 	H 	0.94546 0.86213 0.23535 0.03500
C 	C 	0.66047 0.71511 0.67686 -0.01700
C 	C 	0.67806 0.76248 0.64212 -0.11700
N 	N 	0.56421 0.63788 0.71659 -0.19300
H 	H 	0.71413 0.71212 0.70002 0.03900
H 	H 	0.61343 0.62963 0.73852 0.08100
C 	C 	0.66511 0.72853 0.18125 -0.02000
C 	C 	0.69395 0.76491 0.14966 -0.11600
N 	N 	0.55042 0.66166 0.21012 -0.19300
H 	H 	0.71353 0.72989 0.20751 0.04100
H 	H 	0.59579 0.65892 0.23546 0.08200
C 	C 	0.81841 0.25933 0.51880 -0.09600
C 	C 	0.72538 0.22115 0.51336 -0.01700
C 	C 	0.65649 0.13776 0.50327 0.05200
C 	C 	0.68140 0.08315 0.50999 -0.02300
C 	C 	0.77482 0.11887 0.51905 -0.12700
C 	C 	0.84127 0.21210 0.51702 0.12800
N 	N 	0.92503 0.25710 0.51174 -0.20300
H 	H 	0.87308 0.32469 0.52484 0.05000
H 	H 	0.62853 0.01370 0.50804 0.02000
C 	C 	0.80181 0.54616 0.51727 -0.09000
C 	C 	0.82121 0.48278 0.54112 -0.01900
C 	C 	0.89008 0.50105 0.57378 0.06100
C 	C 	0.93034 0.57701 0.58395 -0.02400
C 	C 	0.90746 0.63809 0.56096 -0.11100
C 	C 	0.84169 0.62201 0.52747 0.12200
N 	N 	0.81564 0.67840 0.50528 -0.20400
H 	H 	0.74951 0.53232 0.49204 0.05300
H 	H 	0.77013 0.66837 0.47984 0.08600
H 	H 	0.83743 0.73048 0.51358 0.09800
C 	C 	0.64334 0.09945 0.04267 -0.06900
C 	C 	0.69471 0.19154 0.02506 -0.03400
C 	C 	0.76122 0.22519 0.00854 0.06500
C 	C 	0.78614 0.17035 0.01557 -0.04500
C 	C 	0.73920 0.08005 0.03567 -0.07700
C 	C 	0.66061 0.04240 0.04549 0.03400
N 	N 	0.60094 0.95161 0.05702 -0.15600
H 	H 	0.58967 0.07199 0.05411 0.02500
H 	H 	0.84366 0.19880 0.00627 0.03900
N 	N 	0.79889 0.30828 0.98516 -0.19200
H 	H 	0.54624 0.92415 0.06648 0.09700
H 	H 	0.60478 0.90766 0.05428 0.10600
H 	H 	0.77194 0.34464 0.97514 0.08200
H 	H 	0.85191 0.33476 0.97491 0.07600
C 	C 	0.88326 0.63646 0.02392 -0.03200
C 	C 	0.91411 0.64221 0.05971 -0.10500
C 	C 	0.90265 0.56573 0.08886 0.11800
C 	C 	0.85559 0.48377 0.08128 -0.08900
C 	C 	0.82017 0.47721 0.04531 -0.02200
C 	C 	0.83993 0.55571 0.01660 0.06200
N 	N 	0.81613 0.55338 0.98187 -0.19000
H 	H 	0.89589 0.69607 0.00170 0.04100
H 	H 	0.82747 0.61069 0.96049 0.08200
H 	H 	0.78935 0.49573 0.97598 0.08400
H 	H 	0.96924 0.62923 0.13065 0.08500
