data_crystal

_cell_length_a 43.36046
_cell_length_b 41.98071
_cell_length_c 23.05947
_cell_angle_alpha 89.96082
_cell_angle_beta  89.94878
_cell_angle_gamma 87.30825

_symmetry_space_group_name_	'P 1'
_symmetry_space_group_name_H-M	'P 1'

loop_
_symmetry_equiv_pos_as_xyz
  x,y,z

loop_
_atom_site_label
_atom_site_type_symbol
_atom_site_fract_x
_atom_site_fract_y
_atom_site_fract_z
_atom_site_charge
C 	C 	0.45334 0.55282 0.98743 -0.03300
C 	C 	0.48036 0.56958 0.98690 -0.03800
C 	C 	0.45461 0.51930 0.99223 0.00500
C 	C 	0.48369 0.50255 0.99423 0.00100
C 	C 	0.51112 0.51958 0.99415 -0.00700
C 	C 	0.50945 0.55333 0.99103 0.01300
C 	C 	0.48540 0.46877 0.99613 0.00600
C 	C 	0.51455 0.45245 0.99668 -0.03100
C 	C 	0.54019 0.50285 0.99731 0.01700
C 	C 	0.53703 0.57015 0.99184 -0.00500
C 	C 	0.56559 0.55340 0.99602 -0.03800
C 	C 	0.56743 0.52011 0.99981 -0.01800
C 	C 	0.42728 0.50211 0.99446 0.00400
C 	C 	0.42920 0.46877 0.99657 -0.04900
C 	C 	0.45782 0.45196 0.99706 0.00400
C 	C 	0.53648 0.60538 0.99066 0.01000
C 	C 	0.54186 0.62137 0.93845 -0.03700
C 	C 	0.54691 0.65404 0.93871 -0.02300
C 	C 	0.54681 0.67089 0.99126 0.00300
C 	C 	0.53965 0.65523 0.04306 -0.02000
C 	C 	0.53462 0.62258 0.04276 -0.02900
C 	C 	0.59793 0.50389 0.00987 0.04200
C 	C 	0.60640 0.49388 0.06592 -0.04300
C 	C 	0.63648 0.48205 0.07695 -0.02600
C 	C 	0.61947 0.50107 0.96456 -0.05200
C 	C 	0.64961 0.48942 0.97562 -0.02800
C 	C 	0.65847 0.48061 0.03215 0.01800
C 	C 	0.39644 0.51862 0.99586 0.00200
C 	C 	0.38498 0.53190 0.04785 -0.01900
C 	C 	0.35451 0.54421 0.05096 -0.03500
C 	C 	0.33520 0.54301 0.00229 0.02600
C 	C 	0.34692 0.53050 0.94992 -0.04000
C 	C 	0.37746 0.51845 0.94666 -0.02800
C 	C 	0.45841 0.41672 0.99848 0.00200
C 	C 	0.45320 0.39961 0.94748 -0.02800
C 	C 	0.45027 0.36660 0.94968 -0.03900
C 	C 	0.45270 0.35042 0.00286 0.02500
C 	C 	0.45870 0.36744 0.05370 -0.03500
C 	C 	0.46143 0.40049 0.05153 -0.01900
C 	C 	0.54154 0.46924 0.99725 -0.03900
H 	H 	0.54323 0.60827 0.89799 0.05500
H 	H 	0.55211 0.66595 0.89842 0.06000
H 	H 	0.53889 0.66816 0.08373 0.05700
H 	H 	0.53031 0.61043 0.08323 0.05400
H 	H 	0.33217 0.52951 0.91212 0.06300
H 	H 	0.38615 0.50823 0.90637 0.05300
H 	H 	0.34561 0.55375 0.09163 0.06100
H 	H 	0.39948 0.53204 0.08608 0.05300
H 	H 	0.45077 0.41198 0.90638 0.05400
H 	H 	0.44571 0.35367 0.91020 0.06500
H 	H 	0.46532 0.41357 0.09114 0.05300
H 	H 	0.46044 0.35520 0.09503 0.06000
H 	H 	0.58983 0.49587 0.10109 0.05700
H 	H 	0.64287 0.47464 0.12049 0.05500
H 	H 	0.61306 0.50867 0.92113 0.05900
H 	H 	0.66633 0.48820 0.94065 0.06300
H 	H 	0.43143 0.56610 0.98358 0.04900
H 	H 	0.47848 0.59530 0.98305 0.05100
H 	H 	0.58658 0.56646 0.99770 0.05100
H 	H 	0.56352 0.45591 0.99701 0.05100
H 	H 	0.51651 0.42666 0.99648 0.04900
H 	H 	0.40816 0.45576 0.99807 0.05800
Zn	Zn	0.38138 0.11725 0.98275 1.22900
C 	C 	0.32901 0.07724 0.98526 0.29700
O 	O 	0.37957 0.10583 0.06539 -0.40500
O 	O 	0.34665 0.05535 0.01140 -0.39800
O 	O 	0.41189 0.06218 0.05264 -0.43900
C 	C 	0.39980 0.08091 0.88149 0.33600
O 	O 	0.40625 0.10510 0.91467 -0.39800
O 	O 	0.38576 0.05675 0.90362 -0.45500
C 	C 	0.39809 0.08325 0.08703 0.34200
O 	O 	0.41930 0.15444 0.00372 -0.21900
Zn	Zn	0.39142 0.04580 0.98459 1.18300
O 	O 	0.34156 0.10102 0.95819 -0.39400
C 	C 	0.39727 0.17584 0.99441 0.26700
O 	O 	0.37078 0.16495 0.98096 -0.33300
C 	C 	0.51826 0.01105 0.51884 0.04700
C 	C 	0.49133 0.03152 0.52384 0.04200
C 	C 	0.52147 0.98993 0.47170 -0.03900
C 	C 	0.49812 0.98898 0.42956 0.04100
C 	C 	0.46813 0.03075 0.48142 -0.04100
C 	C 	0.47132 0.00960 0.43437 0.03800
H 	H 	0.44766 0.04644 0.48511 0.07600
H 	H 	0.54195 0.97427 0.46792 0.07700
C 	C 	0.44796 0.00797 0.39204 -0.01200
C 	C 	0.45142 0.98778 0.34373 0.03800
C 	C 	0.43294 0.99825 0.29561 -0.02000
C 	C 	0.41592 0.02686 0.30592 0.02900
S 	S 	0.42422 0.03857 0.37292 0.10400
H 	H 	0.43505 0.98794 0.25276 0.09000
C 	C 	0.50058 0.96747 0.38256 -0.00600
C 	C 	0.47801 0.96745 0.33877 0.03300
C 	C 	0.48966 0.95522 0.28496 -0.00800
C 	C 	0.52127 0.94702 0.28650 -0.00100
S 	S 	0.53399 0.95435 0.35309 0.10400
H 	H 	0.47637 0.95504 0.24534 0.08400
C 	C 	0.53724 0.03171 0.61116 0.04100
C 	C 	0.54147 0.01251 0.56158 -0.01500
S 	S 	0.56606 0.98218 0.57907 0.12800
C 	C 	0.57301 0.99271 0.64732 -0.00400
C 	C 	0.55519 0.02052 0.65940 -0.00700
C 	C 	0.48857 0.05261 0.57143 -0.00800
C 	C 	0.51072 0.05210 0.61591 0.03600
C 	C 	0.49878 0.06427 0.66953 -0.00400
C 	C 	0.46729 0.07303 0.66707 -0.00300
S 	S 	0.45504 0.06607 0.59999 0.10800
H 	H 	0.51178 0.06415 0.70951 0.08300
H 	H 	0.55247 0.02987 0.70288 0.08400
Zn	Zn	0.60769 0.90533 0.97019 1.22600
C 	C 	0.66487 0.93807 0.98035 0.30500
O 	O 	0.58115 0.91930 0.03569 -0.39900
O 	O 	0.65106 0.96322 0.95613 -0.36000
O 	O 	0.60663 0.96409 0.05454 -0.44500
C 	C 	0.60062 0.94297 0.86713 0.33900
O 	O 	0.61480 0.91764 0.88983 -0.40000
O 	O 	0.58742 0.96483 0.90072 -0.46000
C 	C 	0.58933 0.94126 0.07231 0.33400
O 	O 	0.56735 0.87446 0.93504 -0.28700
Zn	Zn	0.60586 0.97689 0.97379 1.18900
O 	O 	0.64846 0.91514 0.00149 -0.37500
C 	C 	0.58415 0.85023 0.95399 0.27800
O 	O 	0.60994 0.85702 0.97814 -0.31700
Zn	Zn	0.09875 0.58523 0.02235 1.22700
C 	C 	0.05863 0.64068 0.04366 0.30700
O 	O 	0.09140 0.58094 0.10604 -0.40600
O 	O 	0.03973 0.62127 0.06868 -0.37600
O 	O 	0.04968 0.55089 0.09334 -0.42400
C 	C 	0.05986 0.57696 0.92229 0.33500
O 	O 	0.08553 0.56747 0.94849 -0.40200
O 	O 	0.03649 0.58906 0.95233 -0.45500
C 	C 	0.07179 0.56090 0.12644 0.33900
O 	O 	0.13473 0.54134 0.02692 -0.26900
Zn	Zn	0.03089 0.57769 0.03290 1.20000
O 	O 	0.08183 0.62912 0.01207 -0.39900
C 	C 	0.15546 0.56251 0.02214 0.27200
O 	O 	0.14498 0.59182 0.01826 -0.33600
C 	C 	0.00235 0.50865 0.56465 0.03700
C 	C 	0.97811 0.48708 0.56695 0.03700
C 	C 	0.02530 0.50507 0.52177 -0.04500
C 	C 	0.02355 0.48110 0.47948 0.03200
C 	C 	0.97688 0.46249 0.52581 -0.04100
C 	C 	0.99903 0.45980 0.48128 0.02800
H 	H 	0.95846 0.44597 0.52777 0.07300
H 	H 	0.04404 0.52124 0.52062 0.07600
C 	C 	0.99717 0.43649 0.43740 -0.01000
C 	C 	0.01729 0.43588 0.38961 0.03100
C 	C 	0.00457 0.42166 0.33938 -0.02200
C 	C 	0.97456 0.41162 0.34782 0.03000
S 	S 	0.96442 0.42092 0.41576 0.07800
H 	H 	0.01498 0.42251 0.29683 0.09200
C 	C 	0.04549 0.47802 0.43424 -0.01100
C 	C 	0.04172 0.45674 0.38814 0.03100
C 	C 	0.05707 0.46585 0.33641 -0.02300
C 	C 	0.07234 0.49434 0.34199 0.03100
S 	S 	0.06612 0.50767 0.40936 0.08300
H 	H 	0.05397 0.45453 0.29486 0.09200
C 	C 	0.97915 0.53833 0.64680 0.03600
C 	C 	0.00206 0.53436 0.60405 -0.01300
S 	S 	0.03355 0.55129 0.62851 0.10200
C 	C 	0.01921 0.56606 0.69058 0.03000
C 	C 	0.98867 0.55692 0.69472 -0.01800
C 	C 	0.95484 0.49157 0.60939 -0.01000
C 	C 	0.95561 0.51646 0.65015 0.03200
C 	C 	0.93951 0.50976 0.70238 -0.00900
C 	C 	0.92764 0.47941 0.70316 -0.00300
S 	S 	0.93633 0.46188 0.64006 0.10600
H 	H 	0.93932 0.52490 0.74029 0.08000
H 	H 	0.97540 0.56000 0.73420 0.08800
Zn	Zn	0.89237 0.39490 0.02878 1.22800
C 	C 	0.83399 0.43062 0.03657 0.31100
O 	O 	0.91288 0.41187 0.95991 -0.43000
O 	O 	0.84884 0.45175 0.06638 -0.36800
O 	O 	0.88610 0.45968 0.95949 -0.43700
C 	C 	0.90708 0.42348 0.13645 0.34100
O 	O 	0.88989 0.40247 0.11190 -0.42100
O 	O 	0.91633 0.44776 0.10636 -0.43200
C 	C 	0.90130 0.43676 0.93156 0.33700
O 	O 	0.93713 0.36255 0.04875 -0.29100
Zn	Zn	0.89200 0.46554 0.04211 1.19500
O 	O 	0.84935 0.40727 0.00953 -0.37800
C 	C 	0.92105 0.33925 0.03053 0.27400
O 	O 	0.89322 0.34705 0.01380 -0.32800
C 	C 	0.94298 0.00893 0.99383 -0.03600
C 	C 	0.95916 0.03682 0.99543 -0.03200
C 	C 	0.95882 0.97885 0.99262 0.01200
C 	C 	0.99151 0.97711 0.99393 -0.00600
C 	C 	0.00797 0.00547 0.99512 0.00500
C 	C 	0.99170 0.03551 0.99579 0.00500
C 	C 	0.00776 0.94706 0.99398 0.01400
C 	C 	0.04031 0.94575 0.99361 -0.03600
C 	C 	0.04067 0.00374 0.99565 0.00600
C 	C 	0.00836 0.06373 0.99697 0.00400
C 	C 	0.04064 0.06179 0.99760 -0.04800
C 	C 	0.05691 0.03224 0.99714 0.00400
C 	C 	0.94258 0.95037 0.99042 -0.00200
C 	C 	0.95881 0.92080 0.99171 -0.04400
C 	C 	0.99108 0.91884 0.99394 -0.00200
C 	C 	0.99234 0.09555 0.99803 0.01000
C 	C 	0.98408 0.11091 0.94593 -0.03800
C 	C 	0.97026 0.14167 0.94684 -0.02000
C 	C 	0.96467 0.15729 0.99991 -0.01300
C 	C 	0.97276 0.14177 0.05202 -0.00700
C 	C 	0.98651 0.11099 0.05106 -0.03000
C 	C 	0.09099 0.03159 0.99872 0.00300
C 	C 	0.10651 0.02965 0.05202 -0.01900
C 	C 	0.13862 0.03137 0.05392 -0.03500
C 	C 	0.10778 0.03496 0.94727 -0.02800
C 	C 	0.13988 0.03673 0.94911 -0.03900
C 	C 	0.15543 0.03507 0.00246 0.02500
C 	C 	0.90858 0.95113 0.98543 0.01000
C 	C 	0.89027 0.94879 0.03526 -0.02900
C 	C 	0.85809 0.94965 0.03054 -0.01300
C 	C 	0.84401 0.95289 0.97593 0.00000
C 	C 	0.86242 0.95472 0.92598 -0.02600
C 	C 	0.89458 0.95386 0.93076 -0.03600
C 	C 	0.00703 0.88702 0.99700 0.00600
C 	C 	0.01137 0.86876 0.94653 -0.02900
C 	C 	0.02423 0.83767 0.94994 -0.04200
C 	C 	0.03299 0.82463 0.00394 0.02300
C 	C 	0.02918 0.84319 0.05428 -0.02900
C 	C 	0.01620 0.87424 0.05082 -0.02200
C 	C 	0.05651 0.97365 0.99443 -0.03200
H 	H 	0.98862 0.09914 0.90480 0.05500
H 	H 	0.96442 0.15357 0.90634 0.05400
H 	H 	0.96855 0.15362 0.09318 0.06200
H 	H 	0.99288 0.09925 0.09146 0.05800
H 	H 	0.85181 0.95673 0.88354 0.05700
H 	H 	0.90861 0.95542 0.89206 0.05500
H 	H 	0.84411 0.94813 0.06932 0.06200
H 	H 	0.90096 0.94651 0.07760 0.05700
H 	H 	0.00424 0.87847 0.90484 0.05400
H 	H 	0.02662 0.82343 0.91089 0.06100
H 	H 	0.01289 0.88823 0.09000 0.05500
H 	H 	0.03588 0.83340 0.09614 0.06500
H 	H 	0.09366 0.02722 0.09196 0.05500
H 	H 	0.15035 0.03041 0.09539 0.06200
H 	H 	0.09592 0.03658 0.90596 0.05400
H 	H 	0.15264 0.03955 0.90916 0.06500
H 	H 	0.91800 0.01091 0.99391 0.05000
H 	H 	0.94617 0.05947 0.99648 0.04900
H 	H 	0.05323 0.08352 0.99868 0.05900
H 	H 	0.08148 0.97168 0.99391 0.04900
H 	H 	0.05327 0.92309 0.99226 0.05000
H 	H 	0.94619 0.89908 0.99086 0.05600
C 	C 	0.95648 0.24394 0.03020 0.11200
C 	C 	0.92849 0.25237 0.00230 0.11100
N 	N 	0.91742 0.28317 0.00306 -0.07600
C 	C 	0.93330 0.30601 0.03042 0.00800
C 	C 	0.96127 0.29747 0.05849 0.05700
N 	N 	0.97228 0.26660 0.05780 -0.08800
N 	N 	0.96766 0.21320 0.02910 -0.10400
N 	N 	0.91275 0.22971 0.97451 -0.09300
H 	H 	0.97407 0.31523 0.08095 0.08500
C 	C 	0.95206 0.19047 0.00091 0.08000
C 	C 	0.92397 0.19890 0.97328 -0.00400
H 	H 	0.91111 0.18102 0.95126 0.05700
C 	C 	0.89264 0.45344 0.77137 -0.00100
C 	C 	0.92276 0.46144 0.75721 0.10200
C 	C 	0.94700 0.45543 0.79787 -0.14300
C 	C 	0.93950 0.44658 0.85475 0.08300
C 	C 	0.90896 0.44102 0.87003 -0.02600
C 	C 	0.88567 0.44215 0.82708 -0.06200
C 	C 	0.85310 0.43285 0.84125 0.77100
H 	H 	0.87441 0.45729 0.73966 0.09700
H 	H 	0.95729 0.44505 0.88778 0.07700
C 	C 	0.98061 0.46009 0.78242 0.79500
F 	F 	0.83624 0.42790 0.79136 -0.43000
F 	F 	0.83819 0.45686 0.87306 -0.44000
F 	F 	0.85385 0.40487 0.87310 -0.44100
F 	F 	0.98696 0.49189 0.78808 -0.45100
F 	F 	0.98717 0.45016 0.72647 -0.44200
F 	F 	0.00013 0.44248 0.81903 -0.40300
C 	C 	0.93565 0.38948 0.20815 0.08300
C 	C 	0.91872 0.41795 0.19576 -0.02000
C 	C 	0.91536 0.44191 0.23875 -0.06400
C 	C 	0.93335 0.43920 0.28929 0.00500
C 	C 	0.95196 0.41156 0.30005 0.09400
C 	C 	0.95143 0.38557 0.26113 -0.13500
C 	C 	0.96926 0.35445 0.27423 0.79200
H 	H 	0.93750 0.37088 0.17557 0.07700
H 	H 	0.93370 0.45900 0.31939 0.09100
C 	C 	0.89381 0.47105 0.22995 0.77100
F 	F 	0.95970 0.32999 0.23927 -0.43100
F 	F 	0.96475 0.34565 0.33136 -0.42600
F 	F 	0.00039 0.35811 0.26481 -0.43000
F 	F 	0.86674 0.46274 0.20334 -0.43800
F 	F 	0.90820 0.49305 0.19589 -0.44400
F 	F 	0.88598 0.48522 0.28248 -0.42400
C 	C 	0.06088 0.72703 0.01171 0.11100
C 	C 	0.03790 0.73981 0.04910 0.10800
N 	N 	0.02974 0.77139 0.04677 -0.10400
C 	C 	0.04362 0.79084 0.00845 0.06300
C 	C 	0.06721 0.77818 0.97216 0.00300
N 	N 	0.07527 0.74649 0.97436 -0.09300
N 	N 	0.06781 0.69515 0.01174 -0.07700
N 	N 	0.02326 0.72032 0.08596 -0.09400
H 	H 	0.07887 0.79343 0.94219 0.05700
C 	C 	0.05265 0.67541 0.04769 -0.00400
C 	C 	0.03023 0.68840 0.08620 0.05400
H 	H 	0.01824 0.67318 0.11574 0.08800
C 	C 	0.04736 0.54153 0.77382 0.00400
C 	C 	0.03844 0.56915 0.74267 0.10400
C 	C 	0.04275 0.59942 0.76716 -0.13900
C 	C 	0.05137 0.60149 0.82574 0.08500
C 	C 	0.05705 0.57384 0.85895 -0.02600
C 	C 	0.05624 0.54346 0.83233 -0.05500
C 	C 	0.06394 0.51316 0.86653 0.77500
H 	H 	0.04528 0.51848 0.75348 0.12400
H 	H 	0.05242 0.62462 0.84632 0.07700
C 	C 	0.03576 0.62955 0.73235 0.79400
F 	F 	0.06029 0.48606 0.83354 -0.39100
F 	F 	0.04474 0.51163 0.91431 -0.44600
F 	F 	0.09431 0.51295 0.88482 -0.42200
F 	F 	0.00413 0.63508 0.72850 -0.43400
F 	F 	0.04797 0.62634 0.67709 -0.42900
F 	F 	0.04840 0.65575 0.75796 -0.43000
C 	C 	0.09962 0.52712 0.19931 0.08300
C 	C 	0.07512 0.54886 0.18610 -0.01700
C 	C 	0.05259 0.55686 0.22872 -0.06600
C 	C 	0.05241 0.53926 0.28054 0.00600
C 	C 	0.07592 0.51607 0.29242 0.09400
C 	C 	0.10086 0.51144 0.25325 -0.13300
C 	C 	0.12779 0.48837 0.26735 0.79300
H 	H 	0.11714 0.52164 0.16678 0.08200
H 	H 	0.03343 0.54279 0.31084 0.09300
C 	C 	0.02815 0.58330 0.21824 0.77200
F 	F 	0.15272 0.49295 0.23121 -0.42400
F 	F 	0.11881 0.45742 0.26070 -0.42600
F 	F 	0.13742 0.49271 0.32388 -0.42400
F 	F 	0.00638 0.57292 0.17969 -0.45400
F 	F 	0.04154 0.60988 0.19560 -0.43800
F 	F 	0.01331 0.59237 0.26921 -0.42400
C 	C 	0.76216 0.93239 0.99237 0.10100
C 	C 	0.74677 0.95776 0.96295 0.11000
N 	N 	0.71549 0.95905 0.95954 -0.06500
C 	C 	0.69880 0.93596 0.98436 -0.00200
C 	C 	0.71427 0.91052 0.01373 0.06600
N 	N 	0.74564 0.90929 0.01714 -0.09000
N 	N 	0.79346 0.93119 0.99600 -0.10500
N 	N 	0.76326 0.98094 0.93836 -0.08500
H 	H 	0.70146 0.89195 0.03386 0.08000
C 	C 	0.81007 0.95433 0.97111 0.05800
C 	C 	0.79459 0.97977 0.94192 0.01300
H 	H 	0.80743 0.99860 0.92265 0.05600
C 	C 	0.61319 0.97420 0.71674 0.00100
C 	C 	0.58394 0.97021 0.69279 0.10600
C 	C 	0.56334 0.94986 0.72073 -0.13100
C 	C 	0.57035 0.93875 0.77700 0.08500
C 	C 	0.59804 0.94625 0.80385 -0.02100
C 	C 	0.62079 0.96169 0.77175 -0.06700
C 	C 	0.65207 0.96754 0.79811 0.77200
H 	H 	0.62918 0.98901 0.69429 0.09600
H 	H 	0.55371 0.92551 0.80108 0.08300
C 	C 	0.53483 0.93880 0.68977 0.79400
F 	F 	0.67298 0.97631 0.75629 -0.42900
F 	F 	0.66406 0.94013 0.82472 -0.43100
F 	F 	0.64894 0.99172 0.83867 -0.45500
F 	F 	0.54357 0.92287 0.63948 -0.43400
F 	F 	0.51519 0.96455 0.67600 -0.40000
F 	F 	0.51857 0.91813 0.72370 -0.41300
C 	C 	0.55771 0.91884 0.21937 -0.00100
C 	C 	0.54138 0.94719 0.23481 0.10100
C 	C 	0.54384 0.97487 0.19979 -0.14300
C 	C 	0.55928 0.97210 0.14632 0.08400
C 	C 	0.57485 0.94346 0.13012 -0.02500
C 	C 	0.57570 0.91711 0.16858 -0.06100
C 	C 	0.59471 0.88673 0.15481 0.77100
H 	H 	0.55606 0.89797 0.24671 0.09800
H 	H 	0.55881 0.99216 0.11665 0.06700
C 	C 	0.52895 0.00701 0.21733 0.79400
F 	F 	0.59963 0.86827 0.20400 -0.42500
F 	F 	0.62333 0.89380 0.13292 -0.43600
F 	F 	0.57929 0.86905 0.11447 -0.43200
F 	F 	0.53268 0.01265 0.27588 -0.44600
F 	F 	0.49783 0.00791 0.20414 -0.45000
F 	F 	0.54225 0.03163 0.18785 -0.41500
C 	C 	0.25183 0.04499 0.00848 0.11500
C 	C 	0.23249 0.06793 0.98049 0.09800
N 	N 	0.20155 0.06430 0.97895 -0.10700
C 	C 	0.18907 0.03864 0.00456 0.06000
C 	C 	0.20848 0.01563 0.03235 0.01500
N 	N 	0.23948 0.01930 0.03379 -0.08900
N 	N 	0.28278 0.04855 0.00978 -0.07400
N 	N 	0.24485 0.09358 0.95506 -0.09500
H 	H 	0.19896 0.99490 0.05230 0.05700
C 	C 	0.29531 0.07418 0.98414 -0.01500
C 	C 	0.27585 0.09721 0.95633 0.05500
H 	H 	0.28531 0.11780 0.93580 0.07500
C 	C 	0.43006 0.10154 0.73238 -0.00200
C 	C 	0.44669 0.07318 0.71811 0.10500
C 	C 	0.44423 0.04585 0.75397 -0.14800
C 	C 	0.42916 0.04920 0.80767 0.08700
C 	C 	0.41352 0.07795 0.82302 -0.02800
C 	C 	0.41205 0.10368 0.78314 -0.05800
C 	C 	0.39222 0.13376 0.79503 0.77100
H 	H 	0.43149 0.12211 0.70422 0.09800
H 	H 	0.43005 0.02952 0.83818 0.05900
C 	C 	0.45889 0.01352 0.73732 0.80000
F 	F 	0.38607 0.15058 0.74434 -0.42500
F 	F 	0.40753 0.15317 0.83270 -0.43400
F 	F 	0.36418 0.12637 0.81908 -0.43600
F 	F 	0.48976 0.01223 0.75245 -0.43500
F 	F 	0.45606 0.00780 0.67860 -0.42100
F 	F 	0.44470 0.98922 0.76613 -0.42000
C 	C 	0.37496 0.06630 0.17930 0.08100
C 	C 	0.40010 0.07873 0.15011 -0.02400
C 	C 	0.42861 0.08100 0.17919 -0.05400
C 	C 	0.43298 0.06554 0.23279 0.00600
C 	C 	0.40876 0.04978 0.25894 0.10200
C 	C 	0.37888 0.05235 0.23444 -0.13800
C 	C 	0.35182 0.03781 0.26461 0.79300
H 	H 	0.35292 0.06552 0.15733 0.07800
H 	H 	0.45567 0.06415 0.25263 0.12000
C 	C 	0.45513 0.09762 0.15122 0.77400
F 	F 	0.32395 0.04852 0.24063 -0.42700
F 	F 	0.35145 0.04598 0.32273 -0.42700
F 	F 	0.35446 0.00497 0.25956 -0.43500
F 	F 	0.44440 0.12504 0.12296 -0.42600
F 	F 	0.46982 0.07731 0.11172 -0.41100
F 	F 	0.47641 0.10630 0.19235 -0.40500
C 	C 	0.43617 0.25218 0.01035 0.12000
C 	C 	0.41352 0.27419 0.98909 0.09800
N 	N 	0.41931 0.30567 0.98699 -0.10700
C 	C 	0.44680 0.31618 0.00579 0.06100
C 	C 	0.46941 0.29416 0.02724 0.01500
N 	N 	0.46365 0.26258 0.02901 -0.08500
N 	N 	0.43046 0.22063 0.01196 -0.06600
N 	N 	0.38599 0.26385 0.97074 -0.09300
H 	H 	0.49146 0.30212 0.04198 0.05900
C 	C 	0.40287 0.21017 0.99345 0.01400
C 	C 	0.38016 0.23232 0.97259 0.05300
H 	H 	0.35813 0.22448 0.95754 0.07700
C 	C 	0.24038 0.56876 0.01740 0.10500
C 	C 	0.25038 0.53694 0.00730 0.11100
N 	N 	0.28099 0.52919 0.00229 -0.10100
C 	C 	0.30215 0.55194 0.00756 0.05400
C 	C 	0.29217 0.58374 0.01800 0.01400
N 	N 	0.26145 0.59154 0.02256 -0.09000
N 	N 	0.20972 0.57653 0.02210 -0.07800
N 	N 	0.22938 0.51410 0.00283 -0.09000
H 	H 	0.30876 0.60209 0.02217 0.05600
C 	C 	0.18858 0.55366 0.01762 0.01000
C 	C 	0.19869 0.52178 0.00795 0.05500
H 	H 	0.18223 0.50329 0.00402 0.08600
C 	C 	0.73740 0.44340 0.01883 0.11700
C 	C 	0.75316 0.45942 0.06236 0.10600
N 	N 	0.78413 0.45430 0.06826 -0.07300
C 	C 	0.80013 0.43370 0.03248 0.01300
C 	C 	0.78422 0.41727 0.98950 0.05000
N 	N 	0.75318 0.42250 0.98353 -0.09600
N 	N 	0.70671 0.44984 0.01084 -0.10200
N 	N 	0.73756 0.48090 0.09672 -0.08700
H 	H 	0.79655 0.40101 0.96026 0.09600
C 	C 	0.69105 0.47164 0.04486 0.05600
C 	C 	0.70683 0.48735 0.08886 0.01400
H 	H 	0.69486 0.50517 0.11560 0.05600
C 	C 	0.55201 0.75685 0.95675 0.10600
C 	C 	0.57713 0.76502 0.99125 0.10100
N 	N 	0.58713 0.79516 0.98956 -0.07000
C 	C 	0.57290 0.81770 0.95506 0.01100
C 	C 	0.54767 0.80953 0.92072 0.04800
N 	N 	0.53778 0.77924 0.92219 -0.09600
N 	N 	0.54229 0.72654 0.95784 -0.10500
N 	N 	0.59137 0.74267 0.02584 -0.08100
H 	H 	0.53617 0.82707 0.89275 0.07200
C 	C 	0.55653 0.70408 0.99258 0.04700
C 	C 	0.58158 0.71238 0.02721 0.02400
H 	H 	0.59347 0.69469 0.05432 0.05600
