data_crystal

_cell_length_a 15.15583
_cell_length_b 15.01000
_cell_length_c 40.07826
_cell_angle_alpha 95.38664
_cell_angle_beta  95.38436
_cell_angle_gamma 126.63732

_symmetry_space_group_name_	'P 1'
_symmetry_space_group_name_H-M	'P 1'

loop_
_symmetry_equiv_pos_as_xyz
  x,y,z

loop_
_atom_site_label
_atom_site_type_symbol
_atom_site_fract_x
_atom_site_fract_y
_atom_site_fract_z
_atom_site_charge
N 	N 	0.05364 0.92658 0.47545 -0.13100
C 	C 	0.02316 0.00313 0.98044 0.11400
N 	N 	0.06602 0.09050 0.47714 -0.13600
C 	C 	0.11615 0.04008 0.47711 0.10700
C 	C 	0.13771 0.06493 0.97362 -0.02300
H 	H 	0.14981 0.05115 0.94789 0.04000
N 	N 	0.98021 0.05897 0.98733 -0.14100
N 	N 	0.95805 0.88921 0.97796 -0.13600
C 	C 	0.87280 0.00114 0.99228 0.10500
Cu	Cu	0.71440 0.31922 0.95994 0.92800
Cu	Cu	0.76923 0.30189 0.03914 0.86700
Cu	Cu	0.57779 0.30360 0.01367 0.89500
Cu	Cu	0.49079 0.29019 0.94102 0.89300
C 	C 	0.60972 0.25930 0.89053 0.29300
O 	O 	0.76698 0.46818 0.94750 -0.37700
C 	C 	0.68829 0.38028 0.08585 0.28200
O 	O 	0.54821 0.23170 0.96753 -0.64000
O 	O 	0.73666 0.37653 0.00888 -0.64200
O 	O 	0.80650 0.26553 0.96335 -0.37700
O 	O 	0.73148 0.17706 0.00722 -0.44500
O 	O 	0.52035 0.25042 0.89636 -0.38300
O 	O 	0.42117 0.22061 0.01680 -0.38800
C 	C 	0.34150 0.19715 0.99241 0.30300
C 	C 	0.72750 0.52090 0.95800 0.29900
O 	O 	0.62802 0.46418 0.96647 -0.39000
O 	O 	0.36561 0.24789 0.96573 -0.39100
O 	O 	0.66593 0.24457 0.91354 -0.36700
C 	C 	0.78924 0.19338 0.98293 0.30700
O 	O 	0.61198 0.36708 0.06235 -0.37900
O 	O 	0.77713 0.39322 0.07773 -0.41900
H 	H 	0.50084 0.14816 0.96384 0.16400
H 	H 	0.78621 0.45986 0.01585 0.17300
Cu	Cu	0.62798 0.17539 0.51131 0.92800
Cu	Cu	0.70424 0.17480 0.43727 0.86700
Cu	Cu	0.67030 0.34237 0.46470 0.89600
Cu	Cu	0.62357 0.37869 0.53297 0.89400
C 	C 	0.66942 0.26736 0.58215 0.28900
O 	O 	0.46673 0.10530 0.51346 -0.37200
C 	C 	0.64420 0.27081 0.39080 0.28400
O 	O 	0.71245 0.34933 0.51203 -0.64100
O 	O 	0.60272 0.17879 0.46212 -0.64000
O 	O 	0.69200 0.09171 0.50886 -0.37500
O 	O 	0.80850 0.20136 0.47446 -0.44500
O 	O 	0.61361 0.30593 0.57318 -0.38300
O 	O 	0.74653 0.50363 0.46964 -0.38800
C 	C 	0.74104 0.56660 0.49349 0.30600
C 	C 	0.41704 0.14359 0.49922 0.30500
O 	O 	0.47674 0.24900 0.49484 -0.39700
O 	O 	0.67953 0.52326 0.51715 -0.39600
O 	O 	0.67518 0.20166 0.55961 -0.36200
C 	C 	0.77712 0.12498 0.49370 0.30700
O 	O 	0.64241 0.33546 0.41517 -0.38000
O 	O 	0.63292 0.17970 0.39644 -0.42100
H 	H 	0.79387 0.40292 0.52127 0.16400
H 	H 	0.52387 0.12661 0.44999 0.17200
C 	C 	0.69850 0.27252 0.61872 -0.08600
C 	C 	0.74721 0.37314 0.64196 0.01700
C 	C 	0.75369 0.37310 0.67697 -0.06900
C 	C 	0.71136 0.27252 0.68901 0.04000
C 	C 	0.66985 0.17365 0.66606 -0.07000
C 	C 	0.66368 0.17363 0.63099 0.02000
C 	C 	0.69743 0.26779 0.72400 -0.02100
C 	C 	0.68686 0.26655 0.75344 -0.02100
C 	C 	0.67116 0.26715 0.78831 0.04000
C 	C 	0.69205 0.20836 0.80867 -0.06900
C 	C 	0.67272 0.20602 0.84218 0.01800
C 	C 	0.63189 0.26224 0.85543 -0.08500
C 	C 	0.61214 0.32183 0.83500 0.01800
C 	C 	0.63169 0.32420 0.80161 -0.06900
H 	H 	0.77589 0.45032 0.63281 0.02300
H 	H 	0.78711 0.45019 0.69461 0.04900
H 	H 	0.63789 0.09575 0.67521 0.04900
H 	H 	0.62651 0.09552 0.61334 0.03800
H 	H 	0.72242 0.16387 0.79851 0.04900
H 	H 	0.68802 0.15938 0.85759 0.03900
H 	H 	0.58205 0.36672 0.84504 0.03000
H 	H 	0.61559 0.36999 0.78602 0.05000
C 	C 	0.64327 0.29190 0.35550 -0.09100
C 	C 	0.61194 0.35831 0.34558 0.01700
C 	C 	0.61512 0.38084 0.31241 -0.07100
C 	C 	0.64956 0.33732 0.28899 0.03900
C 	C 	0.68013 0.27070 0.29873 -0.07200
C 	C 	0.67717 0.24814 0.33179 0.01400
C 	C 	0.65424 0.36109 0.25495 -0.02300
C 	C 	0.65961 0.37849 0.22617 -0.02300
C 	C 	0.66732 0.39594 0.19152 0.03800
C 	C 	0.77226 0.45923 0.18186 -0.07100
C 	C 	0.77960 0.45972 0.14735 0.01500
C 	C 	0.68175 0.39641 0.12220 -0.09000
C 	C 	0.57686 0.33887 0.13212 0.01200
C 	C 	0.56978 0.33843 0.16666 -0.07000
H 	H 	0.58499 0.39221 0.36345 0.03800
H 	H 	0.59105 0.43221 0.30500 0.04900
H 	H 	0.70687 0.23686 0.28073 0.04500
H 	H 	0.70272 0.19788 0.33910 0.02100
H 	H 	0.84810 0.50479 0.20099 0.04700
H 	H 	0.86118 0.50677 0.14017 0.03100
H 	H 	0.50070 0.29033 0.11304 0.03400
H 	H 	0.48834 0.28982 0.17395 0.04700
C 	C 	0.79651 0.68677 0.49199 -0.12800
C 	C 	0.87563 0.74119 0.47298 -0.02000
H 	H 	0.77715 0.73299 0.50817 0.07900
C 	C 	0.82894 0.06740 0.49536 -0.14400
C 	C 	0.90069 0.08374 0.47487 -0.02000
H 	H 	0.80641 0.00919 0.51296 0.07900
C 	C 	0.29421 0.06906 0.48968 -0.15000
C 	C 	0.23885 0.10982 0.48063 -0.01500
H 	H 	0.24824 0.98110 0.49226 0.09300
H 	H 	0.28502 0.19801 0.47825 0.04800
C 	C 	0.79644 0.64431 0.96044 -0.13200
C 	C 	0.77918 0.70749 0.98043 -0.02300
H 	H 	0.86540 0.68462 0.94663 0.08000
C 	C 	0.82357 0.05990 0.99769 -0.02000
C 	C 	0.84036 0.13581 0.97858 -0.14200
H 	H 	0.76680 0.03500 0.01565 0.03800
H 	H 	0.89243 0.15560 0.95935 0.08200
C 	C 	0.22637 0.13422 0.99905 -0.12700
H 	H 	0.21381 0.14116 0.02516 0.07600
N 	N 	0.80936 0.88795 0.99106 -0.13300
C 	C 	0.85091 0.83140 0.98328 0.12000
C 	C 	0.95470 0.02895 0.47707 0.10000
N 	N 	0.89256 0.91565 0.47625 -0.13100
C 	C 	0.94229 0.86442 0.47539 0.11400
H 	H 	0.89932 0.69660 0.45817 0.05000
H 	H 	0.92600 0.14434 0.45798 0.03300
H 	H 	0.70932 0.66733 0.99389 0.05000
