data_crystal

_cell_length_a 18.34312
_cell_length_b 18.81675
_cell_length_c 17.76529
_cell_angle_alpha 95.42573
_cell_angle_beta  95.42634
_cell_angle_gamma 126.41606

_symmetry_space_group_name_	'P 1'
_symmetry_space_group_name_H-M	'P 1'

loop_
_symmetry_equiv_pos_as_xyz
  x,y,z

loop_
_atom_site_label
_atom_site_type_symbol
_atom_site_fract_x
_atom_site_fract_y
_atom_site_fract_z
_atom_site_charge
C 	C 	0.95261 0.03876 0.99751 -0.01500
C 	C 	0.89543 0.94500 0.99074 -0.05700
C 	C 	0.92905 0.89672 0.97233 0.02300
C 	C 	0.02026 0.94208 0.96217 -0.06500
C 	C 	0.07897 0.03585 0.97223 0.02400
C 	C 	0.04474 0.08437 0.98819 -0.05400
H 	H 	0.82473 0.90970 0.99903 0.04400
H 	H 	0.04671 0.90465 0.94962 0.04900
H 	H 	0.08969 0.15698 0.99446 0.04200
C 	C 	0.90381 0.99164 0.41516 0.03100
C 	C 	0.85897 0.90025 0.41923 -0.07000
C 	C 	0.91139 0.86885 0.43299 0.02800
C 	C 	0.00753 0.92866 0.44328 -0.06400
C 	C 	0.05183 0.01901 0.43923 0.03000
C 	C 	0.00014 0.05017 0.42383 -0.06900
H 	H 	0.78457 0.85466 0.41314 0.05200
H 	H 	0.04799 0.90478 0.45454 0.05500
H 	H 	0.03500 0.12059 0.42140 0.05200
Cu	Cu	0.63904 0.23025 0.03430 0.93200
Cu	Cu	0.77045 0.28118 0.90726 0.85900
Cu	Cu	0.66626 0.34365 0.91224 0.88400
Cu	Cu	0.60346 0.37601 0.05264 0.90100
C 	C 	0.63533 0.30383 0.18201 0.19600
O 	O 	0.49887 0.15901 0.01237 -0.34000
C 	C 	0.69690 0.29419 0.76295 0.19100
O 	O 	0.69292 0.36380 0.02450 -0.62800
O 	O 	0.64569 0.22946 0.92379 -0.64900
O 	O 	0.70851 0.18126 0.05528 -0.35200
O 	O 	0.82599 0.29289 0.00743 -0.42600
O 	O 	0.58150 0.31927 0.14541 -0.35600
O 	O 	0.69530 0.45979 0.90443 -0.38400
C 	C 	0.70789 0.51686 0.96299 0.27500
C 	C 	0.45754 0.18628 0.97354 0.27200
O 	O 	0.50699 0.26750 0.95814 -0.41000
O 	O 	0.65420 0.48903 0.01459 -0.37200
O 	O 	0.65526 0.25493 0.14498 -0.32000
C 	C 	0.79084 0.22119 0.03826 0.30300
O 	O 	0.65642 0.32272 0.79947 -0.34100
O 	O 	0.73325 0.26042 0.79847 -0.38600
H 	H 	0.75783 0.41335 0.04863 0.16100
H 	H 	0.59411 0.17606 0.88590 0.18200
Cu	Cu	0.74292 0.33315 0.40758 0.92400
Cu	Cu	0.72654 0.23060 0.55040 0.86800
Cu	Cu	0.62582 0.30019 0.53278 0.89100
Cu	Cu	0.58843 0.36075 0.39235 0.89600
C 	C 	0.65581 0.32436 0.25904 0.19500
O 	O 	0.81307 0.47006 0.41974 -0.35600
C 	C 	0.69589 0.29306 0.68736 0.19400
O 	O 	0.60631 0.27713 0.42114 -0.63300
O 	O 	0.75119 0.33882 0.52101 -0.63700
O 	O 	0.78831 0.25913 0.38770 -0.36000
O 	O 	0.68401 0.15899 0.45203 -0.44200
O 	O 	0.63676 0.37487 0.29452 -0.35800
O 	O 	0.49945 0.25317 0.53699 -0.38000
C 	C 	0.44647 0.25396 0.48195 0.29600
C 	C 	0.78495 0.51110 0.45721 0.28700
O 	O 	0.70560 0.46267 0.47945 -0.39600
O 	O 	0.48155 0.31963 0.44272 -0.39200
O 	O 	0.70919 0.30858 0.29673 -0.32000
C 	C 	0.74514 0.18022 0.40858 0.29700
O 	O 	0.64704 0.31222 0.64672 -0.34000
O 	O 	0.74932 0.27871 0.65590 -0.39000
H 	H 	0.55710 0.21365 0.39637 0.16600
H 	H 	0.80268 0.39639 0.55479 0.17700
C 	C 	0.86667 0.77337 0.43710 0.00200
C 	C 	0.86201 0.74870 0.50962 -0.07100
C 	C 	0.84291 0.66603 0.51779 0.05400
C 	C 	0.82570 0.60561 0.45244 -0.09300
C 	C 	0.82960 0.63004 0.37976 -0.01000
C 	C 	0.84936 0.71304 0.37179 -0.00400
S 	S 	0.84436 0.64054 0.61055 -0.05900
S 	S 	0.85282 0.74108 0.27976 -0.04400
H 	H 	0.76688 0.71216 0.24634 0.03500
H 	H 	0.75791 0.59716 0.62782 0.04200
H 	H 	0.87739 0.79565 0.56027 0.05100
H 	H 	0.81427 0.58322 0.32900 0.04200
C 	C 	0.85200 0.02920 0.41182 0.00100
C 	C 	0.82963 0.04690 0.34160 -0.07100
C 	C 	0.79710 0.09832 0.33963 0.05500
C 	C 	0.78737 0.13307 0.40868 -0.10700
C 	C 	0.80940 0.11480 0.47862 -0.00200
C 	C 	0.84050 0.06259 0.48041 -0.00700
S 	S 	0.76817 0.11769 0.25055 -0.02600
S 	S 	0.86693 0.04121 0.56940 -0.05200
H 	H 	0.67700 0.05068 0.21994 0.04400
H 	H 	0.83943 0.02235 0.28876 0.05000
H 	H 	0.80186 0.14100 0.53189 -0.00800
C 	C 	0.15290 0.08095 0.45066 0.00400
C 	C 	0.19612 0.08403 0.38885 -0.07100
C 	C 	0.29213 0.13688 0.39957 0.05700
C 	C 	0.34598 0.18952 0.47249 -0.09700
C 	C 	0.30280 0.18560 0.53466 0.00000
C 	C 	0.20653 0.13133 0.52420 -0.00400
S 	S 	0.34415 0.13362 0.32218 -0.07800
S 	S 	0.15390 0.12684 0.60340 -0.04300
H 	H 	0.13956 0.19062 0.60686 0.03300
H 	H 	0.36560 0.20150 0.28354 0.03400
H 	H 	0.15478 0.04379 0.33268 0.05300
H 	H 	0.34410 0.22588 0.59082 0.04300
C 	C 	0.76906 0.61320 0.96216 -0.11300
C 	C 	0.75129 0.64630 0.90131 -0.00100
C 	C 	0.80252 0.73899 0.90423 -0.00200
C 	C 	0.87104 0.79916 0.96937 -0.01700
C 	C 	0.88945 0.76585 0.02964 -0.04900
C 	C 	0.84052 0.67338 0.02542 0.07000
S 	S 	0.78168 0.77885 0.82551 -0.04600
S 	S 	0.87297 0.63361 0.09716 -0.07200
H 	H 	0.81125 0.60176 0.14610 0.03500
H 	H 	0.83796 0.78966 0.77486 0.03500
H 	H 	0.69683 0.59996 0.85223 0.04200
H 	H 	0.94372 0.81215 0.07887 0.05000
C 	C 	0.82839 0.17085 0.02966 -0.09300
C 	C 	0.89471 0.18596 0.08912 0.00700
C 	C 	0.93611 0.14341 0.07949 -0.02300
C 	C 	0.91353 0.08785 0.00847 0.05800
C 	C 	0.84734 0.07307 0.94912 -0.10800
C 	C 	0.80365 0.11287 0.95973 0.04700
S 	S 	0.71685 0.08828 0.88547 -0.13100
H 	H 	0.63272 0.01640 0.89642 0.04400
H 	H 	0.96582 0.09107 0.19892 0.03100
H 	H 	0.91409 0.23074 0.14284 0.03800
H 	H 	0.82865 0.02914 0.89500 0.05900
C 	C 	0.17814 0.08288 0.97384 -0.01700
C 	C 	0.21048 0.09344 0.90422 -0.06900
C 	C 	0.30007 0.12157 0.90246 0.05400
C 	C 	0.35852 0.14012 0.97120 -0.11100
C 	C 	0.32586 0.12915 0.04074 0.00900
C 	C 	0.23668 0.10176 0.04253 0.01400
S 	S 	0.33709 0.13017 0.81355 -0.05500
S 	S 	0.19879 0.09117 0.13116 -0.03900
H 	H 	0.15550 0.00466 0.14242 0.03900
H 	H 	0.37756 0.21537 0.79972 0.04300
H 	H 	0.16492 0.07710 0.85105 0.05000
H 	H 	0.37114 0.14510 0.09398 0.04200
H 	H 	0.95819 0.10691 0.60067 0.03200
S 	S 	0.01340 0.15776 0.15738 -0.02100
