data_crystal

_cell_length_a 15.70994
_cell_length_b 15.98555
_cell_length_c 51.39580
_cell_angle_alpha 90.20347
_cell_angle_beta  90.21646
_cell_angle_gamma 119.37684

_symmetry_space_group_name_	'P 1'
_symmetry_space_group_name_H-M	'P 1'

loop_
_symmetry_equiv_pos_as_xyz
  x,y,z

loop_
_atom_site_label
_atom_site_type_symbol
_atom_site_fract_x
_atom_site_fract_y
_atom_site_fract_z
_atom_site_charge
C 	C 	0.20468 0.70675 0.45369 0.33300
C 	C 	0.21907 0.72223 0.37875 0.31000
Ni	Ni	0.18963 0.56279 0.41583 1.12700
O 	O 	0.19345 0.49253 0.38353 -0.35700
O 	O 	0.25692 0.77106 0.43613 -0.37100
O 	O 	0.15903 0.65403 0.39510 -0.36700
O 	O 	0.18468 0.44980 0.43576 -0.35900
O 	O 	0.17896 0.61594 0.45026 -0.37000
C 	C 	0.16004 0.63595 0.15958 0.30900
C 	C 	0.30746 0.56507 0.06354 0.32900
C 	C 	0.18457 0.42110 0.14074 0.33100
Ni	Ni	0.18807 0.57534 0.10664 1.11800
O 	O 	0.13074 0.62614 0.13495 -0.35300
O 	O 	0.24682 0.51489 0.08197 -0.36000
O 	O 	0.12984 0.45080 0.12910 -0.35200
O 	O 	0.21455 0.68462 0.08000 -0.36100
C 	C 	0.06217 0.86297 0.22756 0.30500
C 	C 	0.10752 0.16837 0.30044 0.32100
C 	C 	0.08152 0.88296 0.30057 0.33000
C 	C 	0.06834 0.15843 0.22554 0.31100
Ni	Ni	0.12595 0.03874 0.26130 1.11600
O 	O 	0.11648 0.95813 0.22843 -0.34800
O 	O 	0.00289 0.81380 0.24698 -0.37300
O 	O 	0.14094 0.10854 0.29661 -0.35900
O 	O 	0.04625 0.17271 0.28372 -0.37700
O 	O 	0.14040 0.93356 0.28166 -0.36400
O 	O 	0.98982 0.86290 0.30069 -0.37700
O 	O 	0.13837 0.15741 0.24021 -0.36100
C 	C 	0.14047 0.34082 0.15909 -0.10800
C 	C 	0.18257 0.28158 0.16227 -0.05100
C 	C 	0.16105 0.22301 0.18421 0.16900
C 	C 	0.09625 0.22282 0.20303 -0.09700
C 	C 	0.05082 0.27868 0.19920 -0.05600
C 	C 	0.07106 0.33587 0.17716 0.17400
H 	H 	0.23485 0.28372 0.14821 0.07700
O 	O 	0.20082 0.16381 0.18675 -0.27100
H 	H 	0.00007 0.27831 0.21349 0.07300
O 	O 	0.02790 0.39196 0.17424 -0.26500
H 	H 	0.26398 0.20290 0.19593 0.15700
C 	C 	0.13299 0.69079 0.17774 -0.08800
C 	C 	0.20364 0.75785 0.19480 -0.05600
C 	C 	0.18208 0.81703 0.21039 0.17900
C 	C 	0.08910 0.80967 0.20899 -0.08900
C 	C 	0.01784 0.74159 0.19228 -0.05300
C 	C 	0.03951 0.68275 0.17653 0.18100
O 	O 	0.25199 0.88199 0.22703 -0.27200
C 	C 	0.23232 0.38663 0.35954 -0.08600
C 	C 	0.20868 0.29190 0.36529 -0.05700
C 	C 	0.16850 0.22029 0.34603 0.17600
C 	C 	0.15354 0.24367 0.32063 -0.10100
C 	C 	0.18176 0.33934 0.31462 -0.05000
C 	C 	0.22155 0.41073 0.33389 0.16500
H 	H 	0.21694 0.27276 0.38498 0.09100
O 	O 	0.14266 0.12740 0.35217 -0.26000
H 	H 	0.17242 0.35839 0.29501 0.07300
H 	H 	0.07376 0.09768 0.35794 0.16700
C 	C 	0.17599 0.75477 0.35861 -0.08800
C 	C 	0.12830 0.80570 0.36593 -0.05500
C 	C 	0.09933 0.84973 0.34709 0.18300
C 	C 	0.11619 0.84119 0.32059 -0.10300
C 	C 	0.16324 0.78954 0.31324 -0.04800
C 	C 	0.19420 0.74736 0.33218 0.17000
H 	H 	0.11686 0.81412 0.38635 0.07900
H 	H 	0.17565 0.78193 0.29285 0.06700
O 	O 	0.24047 0.69733 0.32479 -0.27300
H 	H 	0.02809 0.81840 0.55835 0.09400
C 	C 	0.03428 0.73178 0.51353 0.02500
C 	C 	0.10155 0.70102 0.51966 -0.08300
C 	C 	0.16585 0.70222 0.50079 0.15200
C 	C 	0.16235 0.73353 0.47545 -0.09400
C 	C 	0.10409 0.77590 0.47035 -0.00400
C 	C 	0.04066 0.77599 0.48943 0.09200
H 	H 	0.10004 0.67110 0.53865 0.08600
H 	H 	0.10394 0.80371 0.45116 0.07300
Br	Br	0.25664 0.65895 0.50978 -0.20400
C 	C 	0.15835 0.36667 0.49387 -0.00100
H 	H 	0.11235 0.39968 0.49367 0.08000
Br	Br	0.07615 0.30049 0.54463 -0.18900
C 	C 	0.16527 0.38775 0.00103 0.02800
C 	C 	0.22179 0.36317 0.01711 -0.08600
C 	C 	0.28635 0.42972 0.03530 0.15000
C 	C 	0.29279 0.52047 0.03765 -0.09100
C 	C 	0.25312 0.55114 0.01784 -0.01100
H 	H 	0.20920 0.29022 0.01713 0.09400
H 	H 	0.26318 0.62323 0.01841 0.07500
C 	C 	0.25235 0.92267 0.08448 0.14300
Br	Br	0.24724 0.92247 0.12180 -0.21700
C 	C 	0.25302 0.45608 0.38083 0.30000
C 	C 	0.27379 0.77802 0.08405 0.30900
O 	O 	0.20714 0.59140 0.16855 -0.36300
O 	O 	0.06088 0.90657 0.35471 -0.26800
C 	C 	0.16129 0.31715 0.51603 0.08900
C 	C 	0.25940 0.00136 0.07076 -0.08100
C 	C 	0.25085 0.84561 0.07082 -0.09100
H 	H 	0.26663 0.06331 0.08134 0.09200
O 	O 	0.24629 0.50343 0.32785 -0.26600
O 	O 	0.27893 0.47591 0.14112 -0.38500
C 	C 	0.24521 0.45978 0.45482 0.33100
H 	H 	0.31595 0.53459 0.32271 0.15300
C 	C 	0.22059 0.38019 0.47290 -0.09300
Br	Br	0.35767 0.39264 0.05850 -0.19500
H 	H 	0.28980 0.40508 0.55891 0.09700
O 	O 	0.31320 0.77835 0.38421 -0.36900
Ni	Ni	0.40817 0.59070 0.42093 1.12000
Ni	Ni	0.37246 0.77340 0.41833 1.13200
O 	O 	0.31610 0.46448 0.39958 -0.34500
O 	O 	0.42006 0.76338 0.45397 -0.36200
O 	O 	0.33413 0.53238 0.45510 -0.35700
O 	O 	0.32690 0.64151 0.41192 -0.71900
H 	H 	0.33179 0.64231 0.39281 0.16600
Ni	Ni	0.42230 0.72525 0.10095 1.12700
Ni	Ni	0.33833 0.61172 0.15433 1.12000
O 	O 	0.36240 0.65892 0.06616 -0.35600
O 	O 	0.36447 0.81129 0.09302 -0.35500
O 	O 	0.31129 0.65321 0.12237 -0.71100
H 	H 	0.30244 0.70688 0.12841 0.16700
H 	H 	0.27572 0.76483 0.19583 0.07600
H 	H 	0.24290 0.84700 0.24359 0.15600
H 	H 	0.31104 0.74540 0.32454 0.16100
C 	C 	0.27565 0.33237 0.47274 0.15300
C 	C 	0.28160 0.28640 0.49515 -0.07900
C 	C 	0.22948 0.28391 0.51753 0.02900
C 	C 	0.26331 0.26869 0.54317 0.03000
C 	C 	0.30105 0.34395 0.56147 -0.08300
C 	C 	0.35742 0.34302 0.58235 0.15400
C 	C 	0.38727 0.27314 0.58325 -0.09300
C 	C 	0.34160 0.19267 0.56676 -0.00900
C 	C 	0.27649 0.18851 0.54738 0.08000
H 	H 	0.35895 0.13512 0.56840 0.07100
Br	Br	0.20503 0.07288 0.52726 -0.18400
C 	C 	0.47873 0.21485 0.01446 0.15400
C 	C 	0.42108 0.15474 0.03432 -0.07200
C 	C 	0.31977 0.09924 0.03079 0.02300
C 	C 	0.27510 0.12198 0.01028 0.09500
H 	H 	0.45569 0.14348 0.05121 0.09700
C 	C 	0.26834 0.00475 0.04354 0.03500
C 	C 	0.24323 0.84214 0.04367 -0.00700
C 	C 	0.25396 0.92178 0.02990 0.08000
H 	H 	0.23789 0.78085 0.03313 0.07500
Br	Br	0.13581 0.06646 0.00850 -0.19200
Br	Br	0.61799 0.28431 0.01859 -0.18800
H 	H 	0.33221 0.25871 0.49576 0.09400
O 	O 	0.47100 0.63167 0.10385 -0.36800
C 	C 	0.47550 0.29211 0.59809 0.31100
O 	O 	0.48987 0.66345 0.38893 -0.36900
O 	O 	0.50606 0.81010 0.40207 -0.35000
C 	C 	0.50747 0.61826 0.12533 0.33200
O 	O 	0.40526 0.75019 0.16401 -0.39400
O 	O 	0.47084 0.62010 0.14831 -0.37900
Br	Br	0.34740 0.33333 0.44251 -0.22900
H 	H 	0.48814 0.44073 0.11820 0.07400
Br	Br	0.57731 0.36517 0.08058 -0.18400
C 	C 	0.50264 0.76356 0.45663 0.32900
O 	O 	0.51871 0.70308 0.44291 -0.35400
C 	C 	0.49418 0.80572 0.15565 0.32200
O 	O 	0.51314 0.81459 0.13009 -0.35300
C 	C 	0.55910 0.50085 0.11361 -0.00400
C 	C 	0.52684 0.75732 0.38577 0.30500
Br	Br	0.53999 0.97744 0.44492 -0.25900
O 	O 	0.54801 0.38186 0.59956 -0.37000
H 	H 	0.49576 0.69318 0.19409 0.04800
C 	C 	0.58517 0.59270 0.12313 -0.09600
Br	Br	0.61464 0.66728 0.04839 -0.20300
C 	C 	0.61721 0.48983 0.09478 0.09100
C 	C 	0.57423 0.82982 0.17447 -0.09700
C 	C 	0.56245 0.76170 0.19342 -0.04300
O 	O 	0.56360 0.92351 0.35635 -0.27900
H 	H 	0.59435 0.97518 0.36964 0.16900
C 	C 	0.59249 0.93417 0.47229 0.15900
C 	C 	0.58226 0.84134 0.47189 -0.09700
H 	H 	0.64947 0.92029 0.56053 0.10000
O 	O 	0.64452 0.19737 0.59707 -0.36500
C 	C 	0.61155 0.80668 0.36838 -0.08800
H 	H 	0.63531 0.75082 0.48810 0.07600
C 	C 	0.63919 0.82035 0.48895 -0.00300
C 	C 	0.64492 0.99801 0.49234 -0.08500
C 	C 	0.69920 0.61648 0.03948 0.09000
C 	C 	0.62603 0.88699 0.35379 0.16900
H 	H 	0.64397 0.06515 0.49402 0.09900
C 	C 	0.72194 0.61406 0.01333 -0.01000
C 	C 	0.70241 0.57105 0.08601 0.02400
C 	C 	0.68210 0.66657 0.11956 0.15000
C 	C 	0.63532 0.78153 0.21178 0.17800
C 	C 	0.65860 0.92077 0.17495 0.18700
O 	O 	0.62137 0.71422 0.23025 -0.27800
H 	H 	0.64686 0.67419 0.22238 0.15900
C 	C 	0.70748 0.05752 0.57955 0.17000
C 	C 	0.69562 0.99716 0.55848 -0.11200
C 	C 	0.69691 0.97511 0.51054 0.01600
C 	C 	0.69844 0.88785 0.50785 0.08700
C 	C 	0.73305 0.57641 0.05855 0.02300
O 	O 	0.66900 0.99005 0.15757 -0.27300
H 	H 	0.66749 0.71028 0.37710 0.07700
C 	C 	0.74049 0.65575 0.10079 -0.08200
C 	C 	0.73695 0.21872 0.59402 0.31000
C 	C 	0.67565 0.76975 0.36527 -0.05900
Br	Br	0.73171 0.78581 0.13782 -0.23900
H 	H 	0.70476 0.98284 0.14265 0.17500
C 	C 	0.73653 0.03584 0.53424 0.05600
C 	C 	0.77058 0.56434 0.00556 -0.07800
C 	C 	0.70078 0.92598 0.33528 -0.04600
C 	C 	0.75669 0.15786 0.57621 -0.09500
H 	H 	0.70940 0.98555 0.32342 0.06700
C 	C 	0.71955 0.87193 0.21235 -0.09100
C 	C 	0.73079 0.94188 0.19406 -0.05100
C 	C 	0.79495 0.54043 0.05123 -0.07200
Br	Br	0.78167 0.86034 0.52942 -0.18100
H 	H 	0.73912 0.49705 0.54376 0.06600
C 	C 	0.79394 0.53726 0.59398 0.30400
C 	C 	0.74787 0.80651 0.34623 0.17900
C 	C 	0.76028 0.88444 0.33097 -0.10700
C 	C 	0.79852 0.13599 0.53212 0.07900
C 	C 	0.80696 0.19665 0.55297 0.00000
C 	C 	0.81479 0.53520 0.02482 0.14800
H 	H 	0.82597 0.51471 0.06594 0.08700
H 	H 	0.81044 0.71648 0.09576 0.08500
Br	Br	0.78897 0.19028 0.02505 -0.17900
H 	H 	0.79518 0.01236 0.19466 0.06900
C 	C 	0.80125 0.56793 0.54690 -0.01100
O 	O 	0.83691 0.48424 0.59728 -0.36000
C 	C 	0.79242 0.89507 0.23304 0.30700
O 	O 	0.80056 0.95770 0.25137 -0.36900
H 	H 	0.77016 0.71263 0.32987 0.15500
H 	H 	0.84787 0.27382 0.55053 0.07200
C 	C 	0.82664 0.60483 0.57223 -0.08600
H 	H 	0.98994 0.86225 0.35671 0.17300
O 	O 	0.80788 0.84821 0.29007 -0.38000
O 	O 	0.80616 0.76587 0.34246 -0.28700
C 	C 	0.82463 0.91274 0.30824 0.33400
O 	O 	0.82897 0.83629 0.23662 -0.37300
Br	Br	0.86771 0.19121 0.50045 -0.18300
Br	Br	0.83395 0.55629 0.49241 -0.19400
H 	H 	0.00504 0.28569 0.03067 0.08900
C 	C 	0.86284 0.61639 0.52613 0.08900
Br	Br	0.90636 0.49375 0.01578 -0.19700
C 	C 	0.90348 0.69940 0.57592 0.15100
C 	C 	0.89430 0.23671 0.00077 0.15500
O 	O 	0.88543 0.00413 0.30409 -0.39000
Ni	Ni	0.91318 0.84875 0.26765 1.12300
Ni	Ni	0.92917 0.05503 0.26809 1.12300
C 	C 	0.94952 0.70372 0.53069 0.03100
H 	H 	0.94522 0.73358 0.19167 0.06900
C 	C 	0.96420 0.74888 0.55503 -0.07900
Br	Br	0.96083 0.83315 0.48195 -0.17000
H 	H 	0.97043 0.64793 0.14450 0.16500
O 	O 	0.97668 0.12022 0.23362 -0.38300
C 	C 	0.99034 0.27585 0.00994 -0.08100
O 	O 	0.96790 0.61444 0.16093 -0.27300
H 	H 	0.98216 0.97711 0.24089 0.15700
O 	O 	0.99001 0.98096 0.25993 -0.72000
H 	H 	0.96673 0.35166 0.16435 0.16300
Br	Br	0.38879 0.43475 0.61006 -0.22600
H 	H 	0.67888 0.35401 0.60530 0.16400
O 	O 	0.80939 0.28290 0.60922 -0.35000
Br	Br	0.93272 0.75805 0.60982 -0.19600
O 	O 	0.47602 0.22074 0.61160 -0.36600
Br	Br	0.65217 0.00136 0.61248 -0.21200
O 	O 	0.74046 0.54639 0.61270 -0.34500
O 	O 	0.68025 0.35356 0.62445 -0.72000
Ni	Ni	0.59245 0.22183 0.63034 1.12700
Ni	Ni	0.81428 0.40039 0.62992 1.11700
Ni	Ni	0.62748 0.43501 0.63196 1.12900
O 	O 	0.50575 0.34916 0.65242 -0.37200
O 	O 	0.68554 0.18632 0.64883 -0.35900
O 	O 	0.85213 0.52676 0.65094 -0.35300
H 	H 	0.80257 0.10558 0.66005 0.09200
H 	H 	0.30970 0.23144 0.66146 0.08400
C 	C 	0.49947 0.28363 0.66894 0.32600
O 	O 	0.55100 0.24031 0.66560 -0.37300
O 	O 	0.69887 0.47595 0.66632 -0.38000
O 	O 	0.72030 0.66657 0.67057 -0.27300
C 	C 	0.74674 0.23905 0.66730 0.33000
O 	O 	0.79563 0.33246 0.66525 -0.37400
C 	C 	0.79291 0.53468 0.66758 0.32700
C 	C 	0.32555 0.21787 0.68106 -0.05300
H 	H 	0.65566 0.62102 0.67793 0.15200
C 	C 	0.80843 0.12861 0.68014 -0.05100
H 	H 	0.13006 0.07329 0.68318 0.16900
C 	C 	0.42199 0.24633 0.68852 -0.10000
C 	C 	0.77645 0.19328 0.68742 -0.09500
C 	C 	0.78747 0.67287 0.68874 0.17400
C 	C 	0.83102 0.61423 0.68658 -0.09500
O 	O 	0.15453 0.13846 0.69066 -0.26200
H 	H 	0.83293 0.97193 0.69283 0.14600
O 	O 	0.88823 0.03807 0.69078 -0.24800
C 	C 	0.24875 0.16770 0.69841 0.17500
C 	C 	0.85280 0.09741 0.69847 0.17600
C 	C 	0.81526 0.74045 0.70894 -0.04900
C 	C 	0.90359 0.62535 0.70442 -0.05400
H 	H 	0.93648 0.57967 0.70310 0.06700
C 	C 	0.44190 0.22798 0.71392 0.17200
C 	C 	0.78667 0.22471 0.71344 0.17300
H 	H 	0.78219 0.78597 0.71031 0.06400
C 	C 	0.26852 0.14765 0.72369 -0.10100
O 	O 	0.53606 0.25650 0.72156 -0.26100
O 	O 	0.75163 0.28441 0.72111 -0.26700
H 	H 	0.80768 0.35042 0.71959 0.15800
C 	C 	0.93180 0.69342 0.72455 0.17500
H 	H 	0.56153 0.32221 0.72875 0.15700
C 	C 	0.86594 0.13147 0.72429 -0.10100
C 	C 	0.88661 0.75047 0.72703 -0.10500
H 	H 	0.06422 0.74846 0.73502 0.15200
C 	C 	0.36532 0.17833 0.73132 -0.05300
C 	C 	0.83094 0.19353 0.73176 -0.05200
O 	O 	0.00038 0.70113 0.74244 -0.28700
C 	C 	0.18929 0.10020 0.74266 0.32600
O 	O 	0.12431 0.12866 0.74477 -0.37300
O 	O 	0.87995 0.00771 0.74676 -0.36500
C 	C 	0.91280 0.09969 0.74374 0.33000
C 	C 	0.91943 0.82561 0.74722 0.32800
H 	H 	0.38139 0.16486 0.75090 0.08100
H 	H 	0.83805 0.21765 0.75179 0.07100
O 	O 	0.01161 0.89159 0.74827 -0.38700
O 	O 	0.19526 0.04377 0.76036 -0.36900
O 	O 	0.97257 0.16152 0.76106 -0.37400
O 	O 	0.85652 0.82553 0.76409 -0.37100
Ni	Ni	0.08019 0.14806 0.77957 1.12500
Ni	Ni	0.08155 0.95003 0.78217 1.11500
Ni	Ni	0.87511 0.94962 0.78302 1.10500
O 	O 	0.01063 0.01592 0.78798 -0.71100
O 	O 	0.20493 0.16955 0.79790 -0.37400
H 	H 	0.01402 0.02005 0.80712 0.16500
O 	O 	0.86363 0.06129 0.80190 -0.35600
H 	H 	0.94019 0.32552 0.80521 0.15600
O 	O 	0.98074 0.83421 0.80306 -0.37200
C 	C 	0.21180 0.11282 0.81581 0.30800
O 	O 	0.16283 0.01756 0.81362 -0.37000
O 	O 	0.36261 0.06295 0.81811 -0.27700
O 	O 	0.02537 0.17142 0.81250 -0.36300
O 	O 	0.86725 0.87750 0.81712 -0.36600
H 	H 	0.88404 0.65195 0.81875 0.07700
C 	C 	0.92097 0.83556 0.82130 0.30000
C 	C 	0.93037 0.12837 0.81767 0.30300
O 	O 	0.98635 0.32695 0.81866 -0.27500
H 	H 	0.32723 0.00012 0.82700 0.16200
C 	C 	0.29207 0.15645 0.83483 -0.09400
C 	C 	0.36457 0.12891 0.83561 0.17400
C 	C 	0.87264 0.67244 0.83800 -0.05800
C 	C 	0.89733 0.17013 0.83811 -0.09000
C 	C 	0.92865 0.26926 0.83829 0.17300
H 	H 	0.74390 0.47717 0.84623 0.15600
C 	C 	0.89264 0.76675 0.84292 -0.09500
C 	C 	0.29874 0.22872 0.85162 -0.05700
H 	H 	0.24356 0.25072 0.85096 0.07400
C 	C 	0.44133 0.17180 0.85361 -0.05200
H 	H 	0.49617 0.14937 0.85438 0.07100
O 	O 	0.81295 0.51072 0.85220 -0.27500
H 	H 	0.81369 0.03575 0.85816 0.08000
C 	C 	0.83409 0.60314 0.85755 0.17400
C 	C 	0.83752 0.11192 0.85810 -0.05900
C 	C 	0.90079 0.30933 0.85855 -0.04900
H 	H 	0.92400 0.38535 0.85841 0.07800
C 	C 	0.44646 0.24205 0.87093 -0.10200
C 	C 	0.37553 0.27160 0.86964 0.17800
C 	C 	0.87580 0.79208 0.86790 0.16900
O 	O 	0.89482 0.88399 0.87302 -0.28200
H 	H 	0.41577 0.40100 0.87824 0.15500
C 	C 	0.81752 0.62843 0.88258 -0.10200
C 	C 	0.80933 0.15197 0.87829 0.17800
C 	C 	0.83984 0.25084 0.87832 -0.10400
H 	H 	0.96375 0.91889 0.87906 0.15200
O 	O 	0.37793 0.33817 0.88699 -0.27300
C 	C 	0.51820 0.27527 0.89226 0.32800
O 	O 	0.57069 0.36753 0.89702 -0.37200
C 	C 	0.83781 0.72282 0.88756 -0.05200
O 	O 	0.70454 0.25646 0.89755 -0.38200
O 	O 	0.74977 0.09402 0.89761 -0.28500
C 	C 	0.78520 0.55780 0.90383 0.32300
O 	O 	0.82448 0.50234 0.90611 -0.36700
C 	C 	0.79926 0.29038 0.89726 0.32700
O 	O 	0.51343 0.21248 0.90945 -0.36400
H 	H 	0.79462 0.09431 0.91129 0.16400
H 	H 	0.82578 0.74302 0.90678 0.07500
O 	O 	0.85660 0.35018 0.91552 -0.37500
O 	O 	0.71785 0.55093 0.92011 -0.36900
Ni	Ni	0.62944 0.22631 0.93064 1.12800
Br	Br	0.15069 0.31701 0.94151 -0.19600
Ni	Ni	0.60997 0.41993 0.93464 1.11800
O 	O 	0.68339 0.35773 0.94036 -0.71900
Ni	Ni	0.82138 0.43132 0.93892 1.12800
H 	H 	0.93674 0.24330 0.93585 0.06700
O 	O 	0.48582 0.30148 0.94995 -0.34800
O 	O 	0.72725 0.20045 0.95092 -0.35600
H 	H 	0.67621 0.34915 0.95931 0.17000
C 	C 	0.95131 0.25125 0.95658 -0.01500
C 	C 	0.04763 0.28936 0.96568 0.09500
C 	C 	0.49063 0.24110 0.96682 0.30600
O 	O 	0.53804 0.19336 0.96128 -0.34400
O 	O 	0.65644 0.48339 0.97088 -0.35600
O 	O 	0.81998 0.53397 0.96318 -0.34500
C 	C 	0.80334 0.26284 0.96531 0.32000
O 	O 	0.82342 0.35256 0.96872 -0.35600
Br	Br	0.12526 0.52600 0.97480 -0.19700
H 	H 	0.29848 0.18906 0.97269 0.08100
C 	C 	0.74759 0.51876 0.97945 0.30500
C 	C 	0.87667 0.23720 0.97398 -0.08700
C 	C 	0.18859 0.48488 0.99960 0.08800
C 	C 	0.06804 0.31157 0.99227 0.02600
C 	C 	0.43465 0.21870 0.99100 -0.08500
C 	C 	0.33289 0.18024 0.98998 -0.00700
Br	Br	0.26255 0.92025 0.99262 -0.19600
H 	H 	0.69267 0.64196 0.99872 0.07400
