data_crystal

_cell_length_a 25.91978
_cell_length_b 26.97321
_cell_length_c 21.35134
_cell_angle_alpha 61.81758
_cell_angle_beta  117.80040
_cell_angle_gamma 133.11130

_symmetry_space_group_name_	'P 1'
_symmetry_space_group_name_H-M	'P 1'

loop_
_symmetry_equiv_pos_as_xyz
  x,y,z

loop_
_atom_site_label
_atom_site_type_symbol
_atom_site_fract_x
_atom_site_fract_y
_atom_site_fract_z
_atom_site_charge
H 	H 	0.22672 0.54621 0.40624 0.05400
H 	H 	0.16495 0.53931 0.84657 0.06100
Co	Co	0.11447 0.97791 0.24258 1.17900
Co	Co	0.06961 0.03947 0.29434 1.19000
C 	C 	0.11170 0.85539 0.28082 0.27100
Co	Co	0.11035 0.93389 0.12284 1.17000
O 	O 	0.08536 0.17897 0.28289 -0.33900
C 	C 	0.13876 0.17443 0.32748 0.26200
O 	O 	0.12894 0.00404 0.32726 -0.45200
C 	C 	0.24227 0.06681 0.17486 0.26300
O 	O 	0.15010 0.13693 0.31953 -0.35900
O 	O 	0.21104 0.03084 0.12661 -0.34700
O 	O 	0.22074 0.03640 0.23624 -0.35900
O 	O 	0.00433 0.97052 0.36825 -0.32900
O 	O 	0.07694 0.96663 0.15842 -0.76100
O 	O 	0.14634 0.89057 0.22825 -0.38200
O 	O 	0.08184 0.87632 0.28845 -0.37700
O 	O 	0.07929 0.97623 0.01470 -0.36700
Co	Co	0.07045 0.95644 0.71817 1.18200
Co	Co	0.04187 0.02358 0.77913 1.20600
C 	C 	0.04802 0.81737 0.78268 0.27800
Co	Co	0.01569 0.85755 0.62082 1.18000
O 	O 	0.04384 0.11170 0.84085 -0.34200
C 	C 	0.09787 0.15320 0.80842 0.27200
O 	O 	0.11570 0.01353 0.78837 -0.44600
C 	C 	0.16701 0.98495 0.64703 0.22700
O 	O 	0.10830 0.12833 0.77865 -0.36100
O 	O 	0.12759 0.91676 0.65928 -0.37100
O 	O 	0.15803 0.01337 0.67347 -0.34700
O 	O 	0.01439 0.95890 0.87967 -0.29300
O 	O 	0.00942 0.91844 0.64814 -0.74500
O 	O 	0.00370 0.79284 0.72391 -0.36600
O 	O 	0.05421 0.86530 0.79461 -0.37300
O 	O 	0.02772 0.92773 0.51997 -0.31100
C 	C 	0.19137 0.31021 0.84940 0.12200
C 	C 	0.18497 0.34104 0.88038 -0.09200
C 	C 	0.17281 0.39166 0.83417 0.03500
C 	C 	0.17443 0.41624 0.76164 0.11700
C 	C 	0.18216 0.38653 0.73066 -0.08100
C 	C 	0.19201 0.33409 0.77635 0.01200
O 	O 	0.16918 0.24178 0.87860 -0.18300
C 	C 	0.15308 0.22547 0.81575 0.04900
C 	C 	0.16779 0.28056 0.75491 -0.05400
O 	O 	0.19220 0.48317 0.73153 -0.20600
C 	C 	0.20152 0.49635 0.79339 0.12900
C 	C 	0.19030 0.44221 0.85483 -0.10200
H 	H 	0.18489 0.32300 0.93771 0.07700
H 	H 	0.18177 0.40442 0.67322 0.07600
H 	H 	0.14106 0.27436 0.69939 0.06600
C 	C 	0.15579 0.75963 0.89789 0.13300
C 	C 	0.21936 0.77040 0.90520 -0.10000
C 	C 	0.21362 0.71425 0.90651 0.03200
C 	C 	0.14689 0.65312 0.89087 0.10900
C 	C 	0.08321 0.64373 0.87967 -0.06200
C 	C 	0.08935 0.69620 0.88830 -0.02400
O 	O 	0.15151 0.81498 0.87167 -0.19000
C 	C 	0.07690 0.77962 0.84276 0.02000
C 	C 	0.03948 0.70875 0.85355 0.03700
O 	O 	0.14795 0.61750 0.86165 -0.20700
H 	H 	0.03093 0.59987 0.85906 0.07700
H 	H 	0.98729 0.67634 0.82009 -0.00800
C 	C 	0.26728 0.33845 0.36333 0.12000
C 	C 	0.28995 0.40737 0.32712 -0.09000
C 	C 	0.27040 0.43555 0.34507 0.03200
C 	C 	0.23755 0.40082 0.40214 0.11700
C 	C 	0.21684 0.33283 0.44020 -0.08300
C 	C 	0.23290 0.30270 0.41991 0.01400
O 	O 	0.25064 0.29507 0.32876 -0.18100
C 	C 	0.19928 0.23028 0.36599 0.05200
C 	C 	0.19012 0.23435 0.42178 -0.06500
O 	O 	0.24739 0.44423 0.43094 -0.20800
C 	C 	0.29020 0.50847 0.38559 0.12500
C 	C 	0.30418 0.50376 0.33434 -0.10300
H 	H 	0.31701 0.43595 0.28280 0.07400
H 	H 	0.18909 0.30427 0.48395 0.07300
H 	H 	0.14135 0.19543 0.44299 0.06000
C 	C 	0.12137 0.71410 0.37511 0.12900
C 	C 	0.12014 0.66458 0.36685 -0.09200
C 	C 	0.17943 0.66161 0.40611 0.03500
C 	C 	0.18228 0.76208 0.41548 0.01000
O 	O 	0.07720 0.73479 0.32517 -0.18200
C 	C 	0.11776 0.80028 0.33820 0.04900
C 	C 	0.18056 0.81694 0.39187 -0.05300
C 	C 	0.19771 0.63380 0.38951 -0.10300
H 	H 	0.07655 0.63233 0.32839 0.08300
H 	H 	0.22824 0.86992 0.39537 0.05400
H 	H 	0.16686 0.60717 0.34591 0.07100
C 	C 	0.22273 0.02947 0.60520 0.07200
C 	C 	0.31532 0.13173 0.17220 0.05100
H 	H 	0.28608 0.18367 0.06201 0.06700
C 	C 	0.21473 0.58168 0.82729 -0.02300
O 	O 	0.04888 0.02026 0.18993 -0.53100
O 	O 	0.00347 0.99640 0.67313 -0.56200
H 	H 	0.22216 0.12143 0.55707 0.06400
C 	C 	0.28335 0.58818 0.40481 -0.02400
O 	O 	0.99426 0.04541 0.37735 -0.37700
C 	C 	0.22124 0.66376 0.85963 0.12500
C 	C 	0.24104 0.56790 0.79782 -0.01500
C 	C 	0.32837 0.18472 0.10945 -0.05800
H 	H 	0.34845 0.54597 0.30664 0.06400
C 	C 	0.24596 0.76620 0.44425 -0.08100
C 	C 	0.24224 0.71263 0.44190 0.11500
O 	O 	0.24344 0.00128 0.58936 -0.18400
C 	C 	0.32501 0.57588 0.39812 -0.01400
C 	C 	0.25222 0.65000 0.83151 -0.01300
H 	H 	0.21413 0.44847 0.91027 0.06900
C 	C 	0.26096 0.72116 0.88696 -0.10700
H 	H 	0.27044 0.82216 0.90388 0.07000
C 	C 	0.27159 0.66819 0.41729 0.12700
C 	C 	0.24163 0.09464 0.56157 -0.06400
C 	C 	0.01500 0.96382 0.98508 0.34200
H 	H 	0.29720 0.81107 0.46428 0.06900
C 	C 	0.31478 0.65496 0.40880 -0.01400
C 	C 	0.30554 0.62217 0.77340 -0.01800
H 	H 	0.31302 0.76960 0.87680 0.06000
O 	O 	0.30375 0.71975 0.45129 -0.21100
C 	C 	0.27304 0.10985 0.51377 0.01500
C 	C 	0.27579 0.05525 0.53191 0.12300
O 	O 	0.37473 0.12997 0.21363 -0.18400
C 	C 	0.31712 0.70446 0.80660 -0.03000
H 	H 	0.32661 0.61109 0.75213 0.06200
C 	C 	0.39550 0.21600 0.10585 0.01300
C 	C 	0.98962 0.95308 0.48143 0.15600
C 	C 	0.72883 0.32920 0.99777 -0.03500
C 	C 	0.65491 0.28977 0.99439 -0.02400
C 	C 	0.62882 0.31746 0.00219 -0.01400
C 	C 	0.67476 0.38751 0.00477 -0.01900
C 	C 	0.74827 0.42875 0.00488 -0.02600
C 	C 	0.77566 0.39925 0.00275 -0.01100
H 	H 	0.61853 0.23570 0.99110 0.05500
H 	H 	0.65459 0.40849 0.01190 0.05100
H 	H 	0.83326 0.42990 0.00750 0.03800
C 	C 	0.67845 0.30236 0.50275 -0.01600
C 	C 	0.71426 0.36476 0.52065 -0.01900
C 	C 	0.67434 0.38410 0.51699 -0.01800
C 	C 	0.59839 0.33976 0.49821 -0.02300
C 	C 	0.56203 0.27757 0.48005 -0.01400
C 	C 	0.60225 0.26012 0.48010 -0.03000
H 	H 	0.77293 0.39843 0.53677 0.05600
H 	H 	0.56771 0.35344 0.49844 0.05600
H 	H 	0.57420 0.21345 0.46351 0.04200
C 	C 	0.38843 0.70876 0.40719 -0.02400
C 	C 	0.43050 0.69581 0.40262 -0.01600
C 	C 	0.39910 0.62913 0.39973 -0.02400
H 	H 	0.41282 0.76058 0.40903 0.05300
H 	H 	0.43191 0.61926 0.39666 0.05000
C 	C 	0.34455 0.69010 0.77923 -0.01600
H 	H 	0.34573 0.75774 0.80739 0.04000
Co	Co	0.94518 0.00022 0.17864 1.17100
Co	Co	0.99190 0.94061 0.12687 1.16200
Co	Co	0.97852 0.09288 0.26595 1.14600
O 	O 	0.00835 0.05402 0.23447 -0.71900
O 	O 	0.90775 0.93439 0.12244 -0.48100
C 	C 	0.91760 0.11121 0.10545 0.26400
C 	C 	0.99523 0.99059 0.40563 0.15400
C 	C 	0.95768 0.80424 0.14377 0.20700
O 	O 	0.96698 0.14440 0.15769 -0.38300
O 	O 	0.91200 0.06170 0.09751 -0.37400
O 	O 	0.00918 0.83845 0.10987 -0.32400
O 	O 	0.95231 0.83660 0.16888 -0.39500
C 	C 	0.84273 0.94529 0.26095 0.25300
O 	O 	0.86800 0.01062 0.24709 -0.37500
O 	O 	0.87672 0.93048 0.25039 -0.40500
O 	O 	0.98842 0.97191 0.01672 -0.42100
Co	Co	0.90615 0.98413 0.66785 1.17300
Co	Co	0.93409 0.91449 0.60880 1.16500
Co	Co	0.93674 0.04504 0.79014 1.16300
O 	O 	0.96588 0.01954 0.73935 -0.78800
O 	O 	0.86712 0.93716 0.58957 -0.47800
C 	C 	0.90595 0.11004 0.63120 0.26400
C 	C 	0.98752 0.96419 0.91412 0.05000
C 	C 	0.85913 0.76697 0.61806 0.27000
O 	O 	0.94799 0.12263 0.69594 -0.40000
O 	O 	0.88646 0.05970 0.60859 -0.35900
O 	O 	0.93068 0.96514 0.88022 -0.32900
O 	O 	0.90470 0.79395 0.58062 -0.40800
O 	O 	0.86715 0.80694 0.64572 -0.39900
C 	C 	0.79629 0.91404 0.74782 0.27500
O 	O 	0.82640 0.97787 0.74718 -0.39300
O 	O 	0.82710 0.90248 0.72713 -0.39700
O 	O 	0.93572 0.93259 0.50310 -0.35800
C 	C 	0.63802 0.81449 0.80633 0.12300
C 	C 	0.59922 0.81843 0.83037 -0.09600
C 	C 	0.53297 0.80625 0.78544 0.02700
C 	C 	0.50343 0.78566 0.72189 0.11300
C 	C 	0.54217 0.78163 0.69778 -0.08400
C 	C 	0.60875 0.79427 0.74252 0.00900
O 	O 	0.71301 0.85321 0.82693 -0.19100
C 	C 	0.72636 0.85641 0.76833 0.04000
C 	C 	0.66448 0.82091 0.71807 -0.05200
O 	O 	0.42841 0.74737 0.70119 -0.21000
C 	C 	0.41559 0.74547 0.75941 0.12300
C 	C 	0.47772 0.78089 0.80954 -0.10700
H 	H 	0.62143 0.83348 0.88086 0.06900
H 	H 	0.51995 0.76666 0.64724 0.07200
H 	H 	0.66285 0.83317 0.66124 0.05600
H 	H 	0.47951 0.76947 0.86620 0.06200
C 	C 	0.61107 0.79349 0.39606 0.11400
C 	C 	0.66447 0.78950 0.40187 -0.08700
C 	C 	0.68889 0.81646 0.33900 0.01200
C 	C 	0.66512 0.85007 0.27431 0.12000
C 	C 	0.61277 0.85515 0.26892 -0.09600
C 	C 	0.58852 0.82853 0.33176 0.02700
O 	O 	0.56137 0.74482 0.44040 -0.21100
C 	C 	0.50624 0.75305 0.39599 0.12300
C 	C 	0.52232 0.80317 0.33146 -0.10600
O 	O 	0.71302 0.89690 0.22830 -0.19600
C 	C 	0.76875 0.88959 0.27226 0.04600
C 	C 	0.75491 0.84175 0.33847 -0.05900
H 	H 	0.68379 0.76349 0.45264 0.07800
H 	H 	0.59344 0.88110 0.21810 0.06700
H 	H 	0.48186 0.80349 0.28242 0.06300
H 	H 	0.79647 0.84312 0.38700 0.06300
C 	C 	0.81240 0.18446 0.51969 0.11800
C 	C 	0.74513 0.17202 0.49928 -0.09500
C 	C 	0.74043 0.20939 0.52234 0.02900
C 	C 	0.80022 0.26112 0.55815 0.11200
C 	C 	0.86819 0.27603 0.57579 -0.08700
C 	C 	0.87312 0.23748 0.55460 0.00400
O 	O 	0.81751 0.13225 0.53226 -0.18500
C 	C 	0.88569 0.15749 0.57994 0.03900
C 	C 	0.91952 0.22064 0.59252 -0.06100
O 	O 	0.79165 0.30792 0.55490 -0.21800
C 	C 	0.72076 0.27951 0.51224 0.12300
C 	C 	0.69007 0.22081 0.49219 -0.10500
H 	H 	0.69731 0.13128 0.47110 0.07300
H 	H 	0.91554 0.31607 0.60504 0.05900
H 	H 	0.96149 0.23943 0.64015 0.04600
H 	H 	0.64619 0.20239 0.44546 0.06300
C 	C 	0.72789 0.60834 0.57353 0.12300
C 	C 	0.70533 0.58186 0.51555 -0.09600
C 	C 	0.72735 0.54283 0.52605 0.02800
C 	C 	0.76205 0.52295 0.59321 0.10800
C 	C 	0.78187 0.54646 0.65232 -0.08600
C 	C 	0.76391 0.58938 0.64111 0.00600
O 	O 	0.74340 0.67233 0.56094 -0.19100
C 	C 	0.79676 0.69332 0.62388 0.03900
C 	C 	0.80664 0.64263 0.67328 -0.05800
O 	O 	0.75511 0.46434 0.60165 -0.21500
C 	C 	0.71214 0.45099 0.53270 0.12400
C 	C 	0.69507 0.49737 0.48742 -0.10800
H 	H 	0.67696 0.59621 0.46244 0.07100
H 	H 	0.81102 0.53257 0.70503 0.06000
H 	H 	0.85624 0.65409 0.71428 0.04400
H 	H 	0.64892 0.48665 0.44158 0.06600
C 	C 	0.37499 0.18796 0.45793 0.11800
C 	C 	0.32477 0.17786 0.48034 -0.08100
C 	C 	0.32853 0.06614 0.51335 -0.09000
C 	C 	0.37497 0.13228 0.47241 0.03100
O 	O 	0.44118 0.25270 0.44840 -0.21300
C 	C 	0.48164 0.23072 0.46124 0.12600
C 	C 	0.44242 0.15910 0.47513 -0.10200
H 	H 	0.33008 0.22224 0.47776 0.07500
H 	H 	0.33692 0.02626 0.53511 0.07600
H 	H 	0.46590 0.13077 0.50625 0.06500
C 	C 	0.86249 0.21849 0.99896 0.10700
C 	C 	0.87899 0.28107 0.99610 -0.10300
C 	C 	0.83197 0.27640 0.01738 0.04000
C 	C 	0.76778 0.21381 0.03337 0.11200
C 	C 	0.74876 0.15175 0.03175 -0.08800
C 	C 	0.79693 0.15546 0.01330 0.02100
O 	O 	0.91667 0.21179 0.01717 -0.19000
C 	C 	0.87890 0.13965 0.04675 0.04700
C 	C 	0.80713 0.10565 0.04258 -0.06200
O 	O 	0.71735 0.22025 0.02864 -0.21700
C 	C 	0.75743 0.29323 0.00688 0.14300
C 	C 	0.82600 0.32735 0.99966 -0.13000
H 	H 	0.92963 0.33082 0.98386 0.06100
H 	H 	0.69853 0.10209 0.04519 0.07300
H 	H 	0.77542 0.05608 0.07887 0.06400
H 	H 	0.85735 0.37940 0.96634 0.06000
C 	C 	0.86107 0.57270 0.08120 0.10500
C 	C 	0.88795 0.59375 0.14491 -0.08800
C 	C 	0.87015 0.63231 0.14572 0.01000
C 	C 	0.82936 0.65141 0.08481 0.12000
C 	C 	0.80147 0.62917 0.02154 -0.09300
C 	C 	0.82125 0.59261 0.02015 0.03600
O 	O 	0.85011 0.51422 0.08223 -0.22200
C 	C 	0.79816 0.49967 0.01690 0.13400
C 	C 	0.78129 0.54666 0.97921 -0.12600
O 	O 	0.84327 0.71210 0.08174 -0.19400
C 	C 	0.89953 0.73036 0.14374 0.05900
C 	C 	0.91427 0.68189 0.18315 -0.06900
H 	H 	0.92069 0.57963 0.19270 0.05700
H 	H 	0.76895 0.64343 0.97358 0.06700
H 	H 	0.73098 0.53536 0.93991 0.06700
H 	H 	0.96632 0.69447 0.21845 0.05100
C 	C 	0.46435 0.23933 0.03683 0.12100
C 	C 	0.41679 0.24618 0.03993 -0.07700
C 	C 	0.42165 0.18141 0.16680 0.12100
C 	C 	0.47129 0.17708 0.16369 -0.09300
C 	C 	0.48723 0.20195 0.09626 0.03100
O 	O 	0.50767 0.28474 0.98625 -0.22100
C 	C 	0.55840 0.27012 0.02136 0.13400
C 	C 	0.54687 0.22125 0.08708 -0.10600
H 	H 	0.39632 0.27332 0.99246 0.06600
H 	H 	0.49170 0.14968 0.21079 0.07200
H 	H 	0.58884 0.21784 0.13101 0.06800
