data_crystal

_cell_length_a 25.02956
_cell_length_b 20.84686
_cell_length_c 54.97816
_cell_angle_alpha 90.59099
_cell_angle_beta  91.22689
_cell_angle_gamma 110.72584

_symmetry_space_group_name_	'P 1'
_symmetry_space_group_name_H-M	'P 1'

loop_
_symmetry_equiv_pos_as_xyz
  x,y,z

loop_
_atom_site_label
_atom_site_type_symbol
_atom_site_fract_x
_atom_site_fract_y
_atom_site_fract_z
_atom_site_charge
Ni	Ni	0.70352 0.31917 0.88532 1.10500
O 	O 	0.63930 0.26548 0.86122 -0.70200
Ni	Ni	0.57121 0.27014 0.87814 1.10900
O 	O 	0.76401 0.30519 0.86352 -0.33800
O 	O 	0.71704 0.18911 0.86114 -0.39600
O 	O 	0.70578 0.40255 0.86545 -0.36900
Ni	Ni	0.62949 0.16950 0.85695 1.07500
O 	O 	0.70957 0.39188 0.93930 -0.41100
O 	O 	0.62096 0.14959 0.89330 -0.40800
O 	O 	0.51299 0.22405 0.85126 -0.35000
O 	O 	0.63420 0.31092 0.90415 -0.70100
O 	O 	0.76757 0.38026 0.90847 -0.36400
O 	O 	0.51247 0.30180 0.89530 -0.36200
O 	O 	0.57775 0.41016 0.89799 -0.40600
Ni	Ni	0.64517 0.40096 0.91839 1.07600
H 	H 	0.64277 0.28784 0.84523 0.18400
H 	H 	0.63103 0.27844 0.91750 0.16900
C 	C 	0.57420 0.14559 0.90460 0.31500
O 	O 	0.70495 0.47139 0.89798 -0.39700
C 	C 	0.75685 0.24517 0.85327 0.29400
C 	C 	0.51099 0.16494 0.84149 0.30200
C 	C 	0.71485 0.46358 0.87497 0.33200
C 	C 	0.52563 0.36695 0.90129 0.30600
C 	C 	0.76064 0.40064 0.93076 0.32200
O 	O 	0.54180 0.17930 0.89669 -0.36700
O 	O 	0.54239 0.13106 0.85096 -0.39600
Ni	Ni	0.63546 0.32790 0.57184 1.10100
O 	O 	0.70489 0.35841 0.54967 -0.69800
Ni	Ni	0.74870 0.30003 0.56223 1.10200
O 	O 	0.60345 0.40099 0.56041 -0.35600
O 	O 	0.68781 0.49027 0.56076 -0.40000
O 	O 	0.58393 0.26846 0.54404 -0.36200
Ni	Ni	0.75425 0.45514 0.55460 1.07100
O 	O 	0.55139 0.18150 0.58108 -0.37500
O 	O 	0.76222 0.44316 0.59095 -0.41200
O 	O 	0.81683 0.33588 0.53976 -0.35800
O 	O 	0.67880 0.26872 0.58385 -0.70000
O 	O 	0.56882 0.29137 0.59463 -0.37100
O 	O 	0.77975 0.22695 0.57448 -0.33500
O 	O 	0.69559 0.13742 0.56887 -0.38700
Ni	Ni	0.62990 0.17321 0.57650 1.07800
H 	H 	0.69404 0.34799 0.53226 0.16100
H 	H 	0.68870 0.27663 0.60143 0.17100
C 	C 	0.79965 0.41709 0.59900 0.31100
O 	O 	0.62916 0.19179 0.54044 -0.41400
C 	C 	0.63647 0.45906 0.55133 0.30700
C 	C 	0.84350 0.40212 0.53654 0.31400
C 	C 	0.59577 0.22176 0.53125 0.31900
C 	C 	0.74723 0.16330 0.57867 0.30100
C 	C 	0.54085 0.22490 0.59631 0.30700
O 	O 	0.79743 0.35632 0.59124 -0.34600
O 	O 	0.83237 0.44732 0.55051 -0.41000
Ni	Ni	0.01301 0.96920 0.74456 1.10100
O 	O 	0.03198 0.89478 0.72637 -0.71100
Ni	Ni	0.06909 0.94506 0.69687 1.10300
O 	O 	0.97527 0.90321 0.77196 -0.33400
O 	O 	0.91500 0.82530 0.74522 -0.38300
O 	O 	0.08857 0.99700 0.76486 -0.36400
Ni	Ni	0.96216 0.82093 0.71500 1.07700
O 	O 	0.08216 0.12144 0.75633 -0.38100
O 	O 	0.92728 0.88500 0.69859 -0.38200
O 	O 	0.08646 0.86514 0.68158 -0.34400
O 	O 	0.04474 0.01904 0.71359 -0.69000
O 	O 	0.99237 0.04423 0.76112 -0.33800
O 	O 	0.12234 0.00812 0.67219 -0.34600
O 	O 	0.14653 0.11487 0.68905 -0.37100
Ni	Ni	0.10815 0.10383 0.72274 1.08100
H 	H 	0.05789 0.87709 0.73573 0.17100
H 	H 	0.01533 0.03055 0.70424 0.17400
C 	C 	0.94944 0.92009 0.67931 0.31000
O 	O 	0.15303 0.04655 0.73546 -0.39100
C 	C 	0.93802 0.84140 0.76715 0.29900
C 	C 	0.04507 0.80475 0.67948 0.29100
C 	C 	0.13968 0.01145 0.75554 0.30700
C 	C 	0.16182 0.06707 0.67870 0.30800
C 	C 	0.02797 0.10782 0.76123 0.30000
O 	O 	0.00112 0.92605 0.67258 -0.36400
O 	O 	0.99164 0.79946 0.68283 -0.37600
Ni	Ni	0.26068 0.69453 0.40115 1.10200
O 	O 	0.32058 0.72093 0.37447 -0.70000
Ni	Ni	0.39028 0.71992 0.39365 1.10000
O 	O 	0.19840 0.71574 0.38158 -0.34000
O 	O 	0.25427 0.81356 0.36364 -0.38700
O 	O 	0.22194 0.59711 0.38623 -0.35500
Ni	Ni	0.33806 0.81621 0.36426 1.07400
O 	O 	0.22489 0.56696 0.43416 -0.39200
O 	O 	0.34387 0.84876 0.39959 -0.41000
O 	O 	0.44774 0.75205 0.36656 -0.35900
O 	O 	0.32913 0.68952 0.41953 -0.70400
O 	O 	0.20638 0.66636 0.42940 -0.35700
O 	O 	0.45129 0.70196 0.41546 -0.35200
O 	O 	0.39293 0.59422 0.42464 -0.40200
Ni	Ni	0.31042 0.59317 0.42838 1.07200
H 	H 	0.31116 0.68820 0.36048 0.16500
H 	H 	0.33837 0.72008 0.43413 0.16500
C 	C 	0.38936 0.85586 0.41312 0.31200
O 	O 	0.29497 0.55802 0.39341 -0.40800
C 	C 	0.20873 0.75746 0.36310 0.30200
C 	C 	0.45427 0.80955 0.35523 0.30700
C 	C 	0.24682 0.55216 0.38217 0.31300
C 	C 	0.43787 0.64887 0.42981 0.30600
C 	C 	0.19894 0.60913 0.44118 0.30800
O 	O 	0.42072 0.81796 0.40879 -0.36300
O 	O 	0.42510 0.84813 0.36208 -0.39600
Ni	Ni	0.33594 0.67346 0.05780 1.10300
O 	O 	0.26731 0.65674 0.03438 -0.70100
Ni	Ni	0.22298 0.70551 0.05229 1.10200
O 	O 	0.36903 0.61232 0.03820 -0.34900
O 	O 	0.28498 0.52255 0.03447 -0.38900
O 	O 	0.38633 0.75159 0.03637 -0.35800
Ni	Ni	0.21831 0.55950 0.03213 1.07600
O 	O 	0.41828 0.80940 0.07981 -0.39500
O 	O 	0.21294 0.55139 0.06896 -0.39800
O 	O 	0.15782 0.68550 0.02721 -0.36900
O 	O 	0.29083 0.72100 0.07609 -0.69900
O 	O 	0.40219 0.69489 0.08238 -0.35600
O 	O 	0.18980 0.76816 0.07081 -0.35700
O 	O 	0.27336 0.85673 0.07806 -0.38300
Ni	Ni	0.33961 0.81865 0.07845 1.07900
H 	H 	0.27812 0.67616 0.01808 0.17100
H 	H 	0.27964 0.70086 0.09227 0.17700
C 	C 	0.17815 0.57398 0.08080 0.31500
O 	O 	0.34083 0.82776 0.04172 -0.41600
C 	C 	0.33581 0.55702 0.02638 0.30800
C 	C 	0.13168 0.62267 0.01868 0.31300
C 	C 	0.37208 0.80292 0.02846 0.31200
C 	C 	0.22113 0.82087 0.08436 0.30800
C 	C 	0.42942 0.75836 0.09002 0.30800
O 	O 	0.16956 0.62979 0.07373 -0.36400
O 	O 	0.14063 0.57057 0.02916 -0.40600
Ni	Ni	0.93991 0.02860 0.25277 1.10900
O 	O 	0.94369 0.10945 0.23114 -0.69700
Ni	Ni	0.90473 0.05962 0.20081 1.10900
O 	O 	0.98248 0.09366 0.28089 -0.33600
O 	O 	0.05532 0.15049 0.25592 -0.37400
O 	O 	0.86279 0.03051 0.26434 -0.36200
Ni	Ni	0.02090 0.16595 0.22266 1.08500
O 	O 	0.89843 0.85571 0.24389 -0.38600
O 	O 	0.04070 0.08569 0.20921 -0.38700
O 	O 	0.90497 0.14387 0.18223 -0.34200
O 	O 	0.91281 0.98111 0.22072 -0.70100
O 	O 	0.93085 0.94332 0.27286 -0.35700
O 	O 	0.84653 0.99545 0.17627 -0.35000
O 	O 	0.79206 0.93561 0.20717 -0.38900
Ni	Ni	0.84731 0.89771 0.22582 1.08000
H 	H 	0.92267 0.13761 0.23785 0.19200
H 	H 	0.94354 0.96658 0.21446 0.16500
C 	C 	0.01961 0.05596 0.18826 0.30300
O 	O 	0.81820 0.91529 0.25866 -0.38200
C 	C 	0.02842 0.14727 0.27643 0.29700
C 	C 	0.95329 0.19732 0.18119 0.30500
C 	C 	0.81693 0.97490 0.26571 0.31800
C 	C 	0.79842 0.95026 0.18391 0.29500
C 	C 	0.93260 0.88625 0.26268 0.30400
O 	O 	0.97075 0.05729 0.17944 -0.34800
O 	O 	0.00240 0.19183 0.18846 -0.38200
C 	C 	0.13677 0.52707 0.09716 -0.09700
C 	C 	0.15485 0.49178 0.11542 0.15100
C 	C 	0.11428 0.44043 0.12838 -0.08500
C 	C 	0.05566 0.42453 0.12355 0.03400
C 	C 	0.03758 0.46253 0.10634 0.07900
C 	C 	0.07805 0.51328 0.09317 -0.00600
H 	H 	0.12831 0.41234 0.14206 0.09100
C 	C 	0.01375 0.36627 0.13593 0.00100
H 	H 	0.06379 0.54061 0.07930 0.07200
C 	C 	0.99650 0.37595 0.15935 -0.05100
C 	C 	0.96748 0.31926 0.17347 0.13000
C 	C 	0.95641 0.25242 0.16427 -0.07100
C 	C 	0.96651 0.24315 0.13971 -0.01300
C 	C 	0.99605 0.29964 0.12563 0.11100
H 	H 	0.00799 0.42732 0.16701 0.08100
H 	H 	0.95645 0.19174 0.13226 0.09000
Br	Br	0.95779 0.44477 0.10019 -0.18300
Br	Br	0.23449 0.51497 0.12370 -0.21700
Br	Br	0.94648 0.33381 0.20583 -0.19800
Br	Br	0.01548 0.28448 0.09302 -0.19500
C 	C 	0.48380 0.77416 0.10356 -0.09200
C 	C 	0.53392 0.77897 0.09131 0.15300
C 	C 	0.58696 0.80494 0.10358 -0.08200
C 	C 	0.59044 0.82560 0.12809 0.02600
C 	C 	0.54013 0.81811 0.14060 0.08600
C 	C 	0.48714 0.79270 0.12826 -0.01400
H 	H 	0.62556 0.80990 0.09399 0.08900
C 	C 	0.64695 0.85746 0.14025 0.02400
H 	H 	0.44864 0.78886 0.13775 0.06000
C 	C 	0.67210 0.92917 0.14173 -0.07800
C 	C 	0.72308 0.96039 0.15515 0.14900
C 	C 	0.74992 0.91952 0.16681 -0.09000
C 	C 	0.72600 0.84785 0.16439 -0.01100
C 	C 	0.67468 0.81670 0.15124 0.08700
H 	H 	0.65102 0.96065 0.13310 0.08700
H 	H 	0.74654 0.81624 0.17332 0.04800
Br	Br	0.54311 0.84302 0.17446 -0.18900
Br	Br	0.53091 0.75206 0.05764 -0.20600
Br	Br	0.75316 0.05860 0.15864 -0.18300
Br	Br	0.64200 0.71839 0.14922 -0.19200
C 	C 	0.19191 0.85323 0.10075 -0.09500
C 	C 	0.21676 0.88119 0.12352 0.15000
C 	C 	0.18966 0.91480 0.13826 -0.08100
C 	C 	0.13691 0.91865 0.13092 0.02700
C 	C 	0.11117 0.88876 0.10857 0.08300
C 	C 	0.13893 0.85687 0.09352 -0.00500
H 	H 	0.20920 0.93710 0.15561 0.09300
C 	C 	0.10932 0.95500 0.14652 0.01900
H 	H 	0.11944 0.83526 0.07609 0.07600
C 	C 	0.11281 0.02164 0.14066 -0.07200
C 	C 	0.08356 0.05512 0.15422 0.14800
C 	C 	0.05157 0.02238 0.17419 -0.08700
C 	C 	0.04950 0.95663 0.18053 -0.01500
C 	C 	0.07780 0.92257 0.16668 0.08900
H 	H 	0.13731 0.04683 0.12523 0.08900
H 	H 	0.02511 0.93151 0.19599 0.05700
Br	Br	0.03763 0.89010 0.09848 -0.19600
Br	Br	0.28576 0.87045 0.13547 -0.27100
Br	Br	0.08755 0.14539 0.14512 -0.20200
Br	Br	0.07158 0.83110 0.17512 -0.19000
C 	C 	0.77008 0.97567 0.28123 -0.08900
C 	C 	0.72174 0.98572 0.27091 0.14200
C 	C 	0.67027 0.96472 0.28336 -0.07700
C 	C 	0.66673 0.93401 0.30615 0.02400
C 	C 	0.71620 0.92874 0.31725 0.08800
C 	C 	0.76769 0.95034 0.30489 -0.00600
H 	H 	0.63265 0.97051 0.27503 0.08900
C 	C 	0.61059 0.90395 0.31764 0.02500
H 	H 	0.80498 0.94328 0.31305 0.07600
C 	C 	0.57490 0.83681 0.31128 -0.07900
C 	C 	0.52309 0.80592 0.32301 0.14500
C 	C 	0.50706 0.84208 0.34160 -0.09000
C 	C 	0.54228 0.90990 0.34750 -0.00900
C 	C 	0.59350 0.94104 0.33547 0.08500
H 	H 	0.58753 0.80850 0.29727 0.08900
H 	H 	0.53019 0.93822 0.36167 0.07800
Br	Br	0.71358 0.88892 0.34875 -0.18500
Br	Br	0.72469 0.02561 0.23943 -0.19800
Br	Br	0.47374 0.71586 0.31254 -0.21900
Br	Br	0.63981 0.03414 0.34379 -0.18000
C 	C 	0.21542 0.48868 0.36817 -0.09800
C 	C 	0.15901 0.44752 0.37405 0.15100
C 	C 	0.12992 0.38822 0.36030 -0.08400
C 	C 	0.15589 0.36930 0.34060 0.02700
C 	C 	0.21235 0.40950 0.33488 0.08500
C 	C 	0.24201 0.46858 0.34881 -0.01100
H 	H 	0.08650 0.35722 0.36473 0.09000
C 	C 	0.12175 0.31104 0.32477 0.02400
H 	H 	0.28538 0.49950 0.34431 0.06500
C 	C 	0.08570 0.32145 0.30661 -0.08000
C 	C 	0.05136 0.26663 0.29195 0.14300
C 	C 	0.05335 0.20063 0.29518 -0.09200
C 	C 	0.08775 0.18958 0.31395 -0.00500
C 	C 	0.12177 0.24443 0.32883 0.08800
H 	H 	0.08439 0.37230 0.30390 0.09000
H 	H 	0.08951 0.13886 0.31648 0.07600
Br	Br	0.24925 0.38505 0.30793 -0.18900
Br	Br	0.12078 0.46988 0.40096 -0.21300
Br	Br	0.00208 0.28279 0.26743 -0.26600
Br	Br	0.16859 0.22770 0.35429 -0.19000
C 	C 	0.16001 0.75696 0.34770 -0.09200
C 	C 	0.11862 0.78161 0.35687 0.15300
C 	C 	0.07744 0.79061 0.34110 -0.08400
C 	C 	0.07711 0.77539 0.31620 0.02900
C 	C 	0.11634 0.74694 0.30729 0.08300
C 	C 	0.15775 0.73814 0.32305 -0.01500
H 	H 	0.04696 0.81196 0.34805 0.09000
C 	C 	0.04087 0.79771 0.29932 0.01600
H 	H 	0.18903 0.71823 0.31601 0.05200
C 	C 	0.06478 0.86000 0.28730 -0.07300
C 	C 	0.02982 0.88774 0.27430 0.13900
C 	C 	0.97021 0.85349 0.27354 -0.08500
C 	C 	0.94653 0.78935 0.28440 -0.00900
C 	C 	0.98162 0.76128 0.29726 0.09500
H 	H 	0.11049 0.88763 0.28854 0.08800
H 	H 	0.90075 0.76214 0.28339 0.07300
Br	Br	0.11431 0.72065 0.27362 -0.18800
Br	Br	0.11942 0.80667 0.39064 -0.19400
Br	Br	0.06430 0.97193 0.25733 -0.25700
Br	Br	0.94800 0.67349 0.31199 -0.18000
C 	C 	0.44402 0.03963 0.43635 -0.10600
C 	C 	0.46514 0.03228 0.45953 0.01500
C 	C 	0.45920 0.96656 0.46786 0.12200
C 	C 	0.43274 0.90879 0.45288 -0.02800
C 	C 	0.41243 0.91614 0.42951 -0.11600
C 	C 	0.41767 0.98196 0.42132 0.19800
C 	C 	0.49666 0.09361 0.47449 0.00700
O 	O 	0.47891 0.95874 0.49071 -0.26500
H 	H 	0.42865 0.85834 0.45934 0.06000
O 	O 	0.40025 0.99041 0.39812 -0.29000
H 	H 	0.44904 0.09024 0.42979 0.08200
C 	C 	0.55570 0.12699 0.47168 0.12100
C 	C 	0.58763 0.17554 0.48912 -0.02900
C 	C 	0.56095 0.19100 0.50939 -0.11900
C 	C 	0.50091 0.16329 0.51064 0.19700
C 	C 	0.46906 0.11432 0.49328 -0.10600
O 	O 	0.58288 0.10851 0.45293 -0.26200
H 	H 	0.63366 0.19789 0.48772 0.06100
O 	O 	0.47389 0.17919 0.53000 -0.26800
H 	H 	0.42330 0.08997 0.49513 0.08800
H 	H 	0.36053 0.98942 0.39960 0.16100
H 	H 	0.58194 0.13936 0.43944 0.15700
H 	H 	0.46428 0.21932 0.52479 0.16100
H 	H 	0.51898 0.96173 0.48860 0.16200
C 	C 	0.04906 0.55975 0.46522 -0.10300
C 	C 	0.05047 0.51341 0.48328 0.00500
C 	C 	0.10143 0.50161 0.48840 0.12700
C 	C 	0.15059 0.53616 0.47547 -0.03000
C 	C 	0.14920 0.58175 0.45703 -0.10500
C 	C 	0.09778 0.59324 0.45186 0.20300
C 	C 	0.99945 0.48059 0.49784 0.01700
O 	O 	0.10266 0.45419 0.50532 -0.26300
H 	H 	0.18957 0.52631 0.47942 0.05300
O 	O 	0.09491 0.63672 0.43373 -0.26300
H 	H 	0.00996 0.56946 0.46140 0.08500
C 	C 	0.99489 0.50802 0.52080 0.12800
C 	C 	0.94475 0.48013 0.53375 -0.02700
C 	C 	0.89838 0.42501 0.52389 -0.11000
C 	C 	0.90364 0.39601 0.50122 0.19900
C 	C 	0.95406 0.42408 0.48824 -0.10800
O 	O 	0.03820 0.56464 0.53001 -0.27100
H 	H 	0.94151 0.50235 0.55132 0.07500
O 	O 	0.85862 0.34291 0.49112 -0.29000
H 	H 	0.95746 0.40274 0.47053 0.09200
H 	H 	0.08271 0.60740 0.41883 0.17900
H 	H 	0.06196 0.54632 0.54051 0.15200
H 	H 	0.86463 0.30061 0.49647 0.17700
H 	H 	0.11595 0.48066 0.52075 0.15100
C 	C 	0.55547 0.49531 0.49754 -0.11400
C 	C 	0.56879 0.56627 0.50021 0.00700
C 	C 	0.60416 0.60215 0.51980 0.12300
C 	C 	0.62534 0.56677 0.53675 -0.03100
C 	C 	0.61184 0.49560 0.53415 -0.12500
C 	C 	0.57673 0.45989 0.51439 0.19300
C 	C 	0.54283 0.60192 0.48321 0.00900
O 	O 	0.61692 0.67145 0.52275 -0.26200
H 	H 	0.65213 0.59466 0.55193 0.07100
O 	O 	0.56547 0.39102 0.51086 -0.29700
H 	H 	0.52831 0.46749 0.48244 0.07500
C 	C 	0.56080 0.61254 0.45901 0.12000
C 	C 	0.52906 0.63443 0.44184 -0.02300
C 	C 	0.47890 0.64460 0.44861 -0.11800
C 	C 	0.46328 0.63857 0.47314 0.18900
C 	C 	0.49552 0.61786 0.49037 -0.10500
O 	O 	0.60914 0.60124 0.45212 -0.26300
H 	H 	0.54178 0.63996 0.42303 0.07300
O 	O 	0.41612 0.65227 0.48024 -0.29800
H 	H 	0.48215 0.61109 0.50909 0.08600
H 	H 	0.52896 0.36768 0.51910 0.16600
H 	H 	0.59579 0.55279 0.44631 0.15200
H 	H 	0.38392 0.60768 0.47898 0.12100
H 	H 	0.65238 0.69315 0.51362 0.16100
C 	C 	0.91404 0.94685 0.66368 -0.09300
C 	C 	0.88850 0.99188 0.67319 0.13600
C 	C 	0.85896 0.02100 0.65759 -0.07200
C 	C 	0.85183 0.00294 0.63278 0.03000
C 	C 	0.87461 0.95507 0.62353 0.08000
C 	C 	0.90649 0.92833 0.63890 -0.00600
H 	H 	0.84128 0.05761 0.66478 0.09100
C 	C 	0.82310 0.03716 0.61647 0.02500
H 	H 	0.92489 0.89251 0.63162 0.08200
C 	C 	0.85551 0.08579 0.60008 -0.07800
C 	C 	0.83019 0.12348 0.58610 0.15400
C 	C 	0.77275 0.11657 0.58997 -0.09100
C 	C 	0.73984 0.06593 0.60566 -0.01400
C 	C 	0.76444 0.02542 0.61852 0.08800
H 	H 	0.90035 0.09368 0.59798 0.09400
H 	H 	0.69525 0.05870 0.60813 0.05600
Br	Br	0.86101 0.92392 0.59020 -0.19100
Br	Br	0.89307 0.01429 0.70735 -0.24000
Br	Br	0.87279 0.17747 0.56008 -0.18000
Br	Br	0.71706 0.95351 0.63847 -0.19700
C 	C 	0.21786 0.08799 0.66681 -0.08400
C 	C 	0.26863 0.12769 0.67958 0.14800
C 	C 	0.32085 0.14882 0.66776 -0.07900
C 	C 	0.32350 0.12986 0.64342 0.02500
C 	C 	0.27332 0.08835 0.63087 0.09100
C 	C 	0.22081 0.06813 0.64250 -0.00800
H 	H 	0.35955 0.17989 0.67756 0.08900
C 	C 	0.37902 0.15418 0.63118 0.02600
H 	H 	0.18224 0.03735 0.63255 0.08700
C 	C 	0.41743 0.11955 0.63464 -0.08000
C 	C 	0.47102 0.14322 0.62387 0.14800
C 	C 	0.48621 0.20165 0.60915 -0.08900
C 	C 	0.44787 0.23659 0.60589 -0.00600
C 	C 	0.39473 0.21351 0.61697 0.08700
H 	H 	0.40589 0.07460 0.64592 0.09100
H 	H 	0.45911 0.28137 0.59453 0.07600
Br	Br	0.27571 0.05860 0.59788 -0.18000
Br	Br	0.26846 0.15087 0.71347 -0.23200
Br	Br	0.52389 0.09728 0.63060 -0.25500
Br	Br	0.34431 0.26396 0.61263 -0.19200
C 	C 	0.84913 0.46018 0.61435 -0.09200
C 	C 	0.90500 0.45884 0.61111 0.14200
C 	C 	0.95234 0.51094 0.62148 -0.07800
C 	C 	0.94514 0.56324 0.63559 0.01900
C 	C 	0.88967 0.56178 0.64041 0.09100
C 	C 	0.84212 0.51021 0.62994 -0.01700
H 	H 	0.99499 0.51113 0.61830 0.08700
C 	C 	0.99567 0.62184 0.64398 0.03900
H 	H 	0.79968 0.51054 0.63323 0.07200
C 	C 	0.01486 0.68068 0.62975 -0.09300
C 	C 	0.04538 0.74434 0.64076 0.15400
C 	C 	0.05464 0.74890 0.66616 -0.08600
C 	C 	0.04812 0.68861 0.67881 -0.01600
C 	C 	0.01733 0.62478 0.66795 0.07800
H 	H 	0.00169 0.67793 0.61075 0.08500
H 	H 	0.05965 0.69163 0.69801 0.05600
Br	Br	0.87810 0.63139 0.66052 -0.21500
Br	Br	0.91875 0.38656 0.59323 -0.19100
Br	Br	0.06521 0.82567 0.62174 -0.19400
Br	Br	0.00015 0.54328 0.68676 -0.20100
C 	C 	0.89347 0.44224 0.97031 -0.11200
C 	C 	0.91612 0.51393 0.96872 0.00900
C 	C 	0.88537 0.54851 0.95607 0.12800
C 	C 	0.83305 0.51112 0.94455 -0.02700
C 	C 	0.81136 0.43934 0.94548 -0.12100
C 	C 	0.84119 0.40490 0.95876 0.20200
C 	C 	0.97280 0.55219 0.97967 0.01700
O 	O 	0.90770 0.61847 0.95395 -0.25500
H 	H 	0.80996 0.53782 0.93441 0.06100
O 	O 	0.82042 0.33463 0.95965 -0.28400
H 	H 	0.91687 0.41546 0.98021 0.08400
C 	C 	0.97770 0.58659 0.00221 0.13100
C 	C 	0.03120 0.61546 0.01394 -0.03100
C 	C 	0.07962 0.60822 0.00369 -0.11500
C 	C 	0.07507 0.57631 0.98070 0.19400
C 	C 	0.02185 0.54922 0.96863 -0.11300
O 	O 	0.93014 0.59118 0.01293 -0.26600
H 	H 	0.03451 0.64009 0.03166 0.07400
O 	O 	0.12260 0.57142 0.97005 -0.28900
H 	H 	0.01836 0.52364 0.95109 0.08800
H 	H 	0.79636 0.32355 0.97422 0.15900
H 	H 	0.91551 0.54998 0.02316 0.15900
H 	H 	0.12446 0.52687 0.97533 0.14200
H 	H 	0.89246 0.63691 0.96781 0.16500
C 	C 	0.50323 0.06007 0.96159 -0.11000
C 	C 	0.49721 0.99166 0.95674 0.00500
C 	C 	0.52089 0.97491 0.93570 0.12100
C 	C 	0.54853 0.02617 0.91924 -0.02000
C 	C 	0.55261 0.09425 0.92361 -0.12200
C 	C 	0.53042 0.11126 0.94505 0.20100
C 	C 	0.46493 0.93754 0.97347 0.00900
O 	O 	0.51476 0.90806 0.93064 -0.26300
H 	H 	0.56507 0.01255 0.90268 0.06100
O 	O 	0.53657 0.17811 0.95017 -0.30500
H 	H 	0.48605 0.07340 0.97803 0.07900
C 	C 	0.49393 0.91185 0.99079 0.12300
C 	C 	0.46302 0.86440 0.00781 -0.03100
C 	C 	0.40319 0.84362 0.00809 -0.11600
C 	C 	0.37412 0.86802 0.99033 0.19500
C 	C 	0.40503 0.91438 0.97299 -0.10900
O 	O 	0.55246 0.93308 0.99113 -0.26700
H 	H 	0.48574 0.84600 0.02143 0.08400
O 	O 	0.31553 0.84543 0.98956 -0.29100
H 	H 	0.38248 0.93339 0.95947 0.08600
H 	H 	0.50115 0.18347 0.94365 0.16100
H 	H 	0.56573 0.97389 0.00219 0.15300
H 	H 	0.30542 0.87954 0.99934 0.16100
H 	H 	0.54920 0.90211 0.93800 0.16300
C 	C 	0.45411 0.47806 0.93105 -0.11300
C 	C 	0.43019 0.43856 0.95120 0.00700
C 	C 	0.43195 0.37221 0.95336 0.12500
C 	C 	0.45981 0.34698 0.93594 -0.03500
C 	C 	0.48704 0.38821 0.91657 -0.12600
C 	C 	0.48278 0.45335 0.91382 0.19400
C 	C 	0.40593 0.46812 0.97062 0.00900
O 	O 	0.40627 0.33188 0.97242 -0.26400
H 	H 	0.46241 0.29653 0.93810 0.06100
O 	O 	0.50557 0.49226 0.89403 -0.27100
H 	H 	0.45172 0.52865 0.92906 0.08200
C 	C 	0.43923 0.49859 0.99145 0.12100
C 	C 	0.41601 0.52702 0.00976 -0.02400
C 	C 	0.35975 0.52590 0.00731 -0.11900
C 	C 	0.32660 0.49570 0.98634 0.19800
C 	C 	0.34987 0.46717 0.96810 -0.10900
O 	O 	0.49406 0.49933 0.99416 -0.27200
H 	H 	0.44170 0.54973 0.02588 0.08000
O 	O 	0.27249 0.49705 0.98314 -0.31700
H 	H 	0.32437 0.44453 0.95192 0.08700
H 	H 	0.54425 0.52306 0.89952 0.15700
H 	H 	0.51848 0.54267 0.98673 0.15200
H 	H 	0.24666 0.45300 0.98960 0.14800
H 	H 	0.43635 0.34174 0.98541 0.15700
C 	C 	0.80322 0.23819 0.83840 -0.09000
C 	C 	0.83519 0.29143 0.82306 0.14600
C 	C 	0.88186 0.28576 0.81083 -0.07700
C 	C 	0.89413 0.22525 0.81198 0.02600
C 	C 	0.86079 0.17099 0.82642 0.08300
C 	C 	0.81654 0.17826 0.83992 -0.01300
H 	H 	0.90686 0.32713 0.79941 0.09500
C 	C 	0.93910 0.21684 0.79666 0.02300
H 	H 	0.79229 0.13698 0.85151 0.07200
C 	C 	0.98968 0.21514 0.80769 -0.06900
C 	C 	0.02414 0.18631 0.79517 0.14800
C 	C 	0.00904 0.16161 0.77111 -0.09900
C 	C 	0.96401 0.17419 0.75896 -0.00400
C 	C 	0.92808 0.19996 0.77174 0.09000
H 	H 	0.99964 0.23088 0.82660 0.09100
H 	H 	0.95365 0.15779 0.74013 0.06600
Br	Br	0.87349 0.08535 0.82718 -0.17200
Br	Br	0.81240 0.36857 0.81633 -0.18600
Br	Br	0.08839 0.17542 0.81193 -0.18700
Br	Br	0.86113 0.20514 0.75543 -0.18700
C 	C 	0.46044 0.12625 0.82630 -0.08800
C 	C 	0.44346 0.15728 0.80641 0.14600
C 	C 	0.38969 0.12521 0.79522 -0.07700
C 	C 	0.35288 0.06194 0.80352 0.02100
C 	C 	0.37175 0.02822 0.82199 0.09400
C 	C 	0.42526 0.06053 0.83336 -0.01100
H 	H 	0.37589 0.15027 0.78047 0.09200
C 	C 	0.29339 0.03421 0.79407 0.03500
H 	H 	0.43847 0.03576 0.84837 0.07600
C 	C 	0.28086 0.99691 0.77203 -0.08500
C 	C 	0.22743 0.98186 0.76042 0.14700
C 	C 	0.18636 0.00504 0.77078 -0.08500
C 	C 	0.19687 0.03587 0.79405 -0.00800
C 	C 	0.25036 0.05124 0.80561 0.08900
H 	H 	0.31333 0.98184 0.76348 0.09000
H 	H 	0.16498 0.05251 0.80236 0.08900
Br	Br	0.32423 0.93908 0.83244 -0.19700
Br	Br	0.49361 0.24253 0.79393 -0.20800
Br	Br	0.21162 0.93098 0.73015 -0.24600
Br	Br	0.26507 0.09942 0.83640 -0.17600
C 	C 	0.91323 0.79512 0.78718 -0.09000
C 	C 	0.87217 0.80635 0.80209 0.15100
C 	C 	0.84104 0.75523 0.81793 -0.07900
C 	C 	0.85038 0.69281 0.81896 0.02600
C 	C 	0.89288 0.68266 0.80472 0.08700
C 	C 	0.92421 0.73388 0.78901 -0.01400
H 	H 	0.80872 0.76344 0.82905 0.08900
C 	C 	0.81364 0.63706 0.83404 0.02600
H 	H 	0.95578 0.72507 0.77758 0.05000
C 	C 	0.76243 0.59045 0.82401 -0.08000
C 	C 	0.72896 0.53448 0.83743 0.15400
C 	C 	0.74704 0.52459 0.86110 -0.09600
C 	C 	0.79747 0.57239 0.87135 -0.00300
C 	C 	0.83061 0.62858 0.85799 0.08600
H 	H 	0.74887 0.59742 0.80568 0.09000
H 	H 	0.81155 0.56512 0.88954 0.06900
Br	Br	0.90745 0.59826 0.80590 -0.17900
Br	Br	0.85618 0.88975 0.80028 -0.17500
Br	Br	0.65767 0.47395 0.82352 -0.20700
Br	Br	0.89945 0.69260 0.87260 -0.18200
