data_crystal

_cell_length_a 32.89476
_cell_length_b 27.22380
_cell_length_c 35.90672
_cell_angle_alpha 103.65816
_cell_angle_beta  115.76414
_cell_angle_gamma 112.40507

_symmetry_space_group_name_	'P 1'
_symmetry_space_group_name_H-M	'P 1'

loop_
_symmetry_equiv_pos_as_xyz
  x,y,z

loop_
_atom_site_label
_atom_site_type_symbol
_atom_site_fract_x
_atom_site_fract_y
_atom_site_fract_z
_atom_site_charge
Zn	Zn	0.01648 0.02308 0.92875 1.21800
O 	O 	0.03853 0.03406 0.99079 -0.88200
O 	O 	0.00057 0.00569 0.29402 -0.43800
H 	H 	0.05578 0.00411 0.49603 0.14700
C 	C 	0.02044 0.02835 0.67194 0.08400
N 	N 	0.01840 0.02656 0.63306 -0.09500
C 	C 	0.03672 0.02150 0.19718 0.08000
N 	N 	0.03186 0.01937 0.23251 -0.09700
C 	C 	0.03504 0.02317 0.07962 0.29900
C 	C 	0.02383 0.02924 0.79100 0.29200
C 	C 	0.02220 0.02866 0.74925 -0.04200
C 	C 	0.04090 0.02311 0.12262 -0.04100
O 	O 	0.01607 0.02469 0.55425 -0.45700
H 	H 	0.07810 0.05578 0.01444 0.14900
O 	O 	0.13518 0.02912 0.40501 -0.34000
Zn	Zn	0.02857 0.03537 0.36289 1.19600
H 	H 	0.27709 0.01952 0.39953 0.04700
H 	H 	0.20146 0.04528 0.89515 0.03100
O 	O 	0.04230 0.05045 0.42688 -0.78300
C 	C 	0.22803 0.02853 0.42160 0.02600
O 	O 	0.01585 0.06645 0.81323 -0.44100
O 	O 	0.08932 0.00916 0.94576 -0.46300
C 	C 	0.01846 0.07211 0.73573 0.04300
N 	N 	0.01768 0.07103 0.69735 -0.11300
C 	C 	0.27701 0.04224 0.42864 -0.08000
H 	H 	0.37094 0.03074 0.45136 0.04100
O 	O 	0.03737 0.06942 0.07286 -0.46800
C 	C 	0.17815 0.05706 0.44871 0.31000
O 	O 	0.15166 0.08870 0.91623 -0.34000
C 	C 	0.06317 0.07724 0.16165 0.04100
N 	N 	0.06040 0.07527 0.19800 -0.11400
C 	C 	0.22816 0.06138 0.45820 -0.10600
H 	H 	0.28511 0.06650 0.90219 0.05000
Zn	Zn	0.04437 0.09480 0.88222 1.19600
C 	C 	0.24049 0.08070 0.92804 0.03500
H 	H 	0.65360 0.06573 0.86516 0.03200
H 	H 	0.37638 0.07531 0.94818 0.04100
Zn	Zn	0.11487 0.08979 0.46868 1.18700
O 	O 	0.17806 0.08629 0.48346 -0.46300
O 	O 	0.06189 0.10627 0.94688 -0.78100
C 	C 	0.28773 0.09220 0.93217 -0.08300
H 	H 	0.01651 0.10666 0.75572 0.03900
C 	C 	0.39398 0.07896 0.46336 -0.05900
H 	H 	0.45471 0.07757 0.45535 0.03300
C 	C 	0.68769 0.09321 0.86526 0.02000
C 	C 	0.32586 0.08853 0.47243 0.06500
H 	H 	0.66841 0.09275 0.34761 0.03200
C 	C 	0.19508 0.11319 0.95900 0.30900
H 	H 	0.08160 0.12045 0.16259 0.03200
O 	O 	0.08888 0.11596 0.38121 -0.45000
C 	C 	0.24390 0.11683 0.96568 -0.09900
C 	C 	0.27764 0.10319 0.50279 0.07000
C 	C 	0.44118 0.10536 0.46559 -0.02100
Zn	Zn	0.00593 0.06427 0.01096 1.20100
N 	N 	0.71821 0.07217 0.86225 -0.10900
C 	C 	0.71179 0.11571 0.37251 -0.02200
H 	H 	0.71788 0.05675 0.32655 0.03900
H 	H 	0.45636 0.11539 0.94622 0.03400
C 	C 	0.37677 0.11534 0.47665 0.05100
N 	N 	0.32498 0.11625 0.50874 -0.11800
C 	C 	0.40074 0.12313 0.95951 -0.05900
O 	O 	0.19637 0.13919 0.99568 -0.45900
Zn	Zn	0.13484 0.14427 0.98520 1.18600
H 	H 	0.27872 0.12743 0.53218 0.02900
C 	C 	0.73960 0.09490 0.36087 -0.06000
C 	C 	0.33822 0.13982 0.97409 0.07300
H 	H 	0.47990 0.14062 0.40858 0.03600
H 	H 	0.75967 0.00403 0.34950 0.04500
C 	C 	0.44586 0.14574 0.95848 -0.01700
H 	H 	0.16959 0.00949 0.01083 -0.00500
C 	C 	0.76373 0.10702 0.86572 0.04700
C 	C 	0.70347 0.15236 0.87313 -0.01400
O 	O 	0.13775 0.16494 0.46246 -0.45900
C 	C 	0.12392 0.16640 0.42248 0.32400
C 	C 	0.29510 0.16066 0.00834 0.05900
C 	C 	0.38727 0.16274 0.97515 0.05100
C 	C 	0.77613 0.16290 0.86679 -0.05700
O 	O 	0.09893 0.17867 0.89994 -0.45300
C 	C 	0.74018 0.16574 0.41660 -0.01500
C 	C 	0.47075 0.16773 0.48113 -0.01400
N 	N 	0.34070 0.17156 0.01144 -0.12300
H 	H 	0.71476 0.17119 0.95537 0.04000
C 	C 	0.79551 0.12348 0.39415 0.04900
N 	N 	0.40674 0.17610 0.49256 -0.10800
C 	C 	0.80219 0.03563 0.36582 -0.08500
C 	C 	0.51779 0.17773 0.44175 -0.02900
H 	H 	0.14970 0.18661 0.36254 0.03800
H 	H 	0.47783 0.17908 0.89599 0.03800
C 	C 	0.80611 0.09446 0.88148 0.06800
H 	H 	0.74009 0.17785 0.49371 0.03600
C 	C 	0.68429 0.18328 0.89375 0.00500
C 	C 	0.74599 0.18575 0.87079 -0.02100
H 	H 	0.29878 0.18807 0.03837 0.02800
H 	H 	0.81187 0.19085 0.86906 0.04100
C 	C 	0.71148 0.18708 0.43062 0.00400
H 	H 	0.81567 0.09510 0.82559 0.04700
N 	N 	0.82482 0.09008 0.92179 -0.12100
H 	H 	0.56152 0.19297 0.41094 0.04700
H 	H 	0.77030 0.00603 0.05763 0.03800
N 	N 	0.82260 0.17369 0.43596 -0.10900
C 	C 	0.69596 0.19179 0.93817 -0.02800
C 	C 	0.82520 0.09849 0.38572 0.06400
C 	C 	0.79644 0.19533 0.44762 0.02000
C 	C 	0.71833 0.19393 0.47334 -0.03000
C 	C 	0.52025 0.19651 0.48302 0.00500
C 	C 	0.83037 0.09188 0.85780 -0.09200
H 	H 	0.67517 0.20007 0.37034 0.03500
C 	C 	0.83558 0.01417 0.37120 0.03200
C 	C 	0.45270 0.20268 0.49482 0.02100
H 	H 	0.64989 0.20296 0.83720 0.03600
C 	C 	0.68163 0.20622 0.40382 -0.02900
C 	C 	0.47732 0.20764 0.97336 -0.02100
C 	C 	0.56403 0.20754 0.44306 -0.06900
C 	C 	0.65984 0.21005 0.87181 -0.02900
C 	C 	0.51782 0.21288 0.92847 -0.03100
O 	O 	0.15804 0.22082 0.98084 -0.46200
H 	H 	0.55671 0.22236 0.89327 0.04800
N 	N 	0.41917 0.22304 0.99050 -0.10800
C 	C 	0.14280 0.22496 0.94172 0.32900
C 	C 	0.15251 0.22495 0.42438 -0.11500
C 	C 	0.69948 0.22419 0.49100 -0.06800
C 	C 	0.86812 0.08548 0.94104 0.07700
O 	O 	0.94472 0.04139 0.91270 -0.47200
Zn	Zn	0.98519 0.01717 0.49155 1.19400
H 	H 	0.88224 0.08294 0.97352 0.02200
C 	C 	0.92810 0.03683 0.41979 0.32300
O 	O 	0.99487 0.01189 0.86653 -0.89300
O 	O 	0.95460 0.05677 0.46540 -0.49800
C 	C 	0.89159 0.05538 0.39793 -0.13100
C 	C 	0.94105 0.07891 0.94006 0.32700
C 	C 	0.89413 0.08383 0.91895 -0.13300
C 	C 	0.87441 0.08613 0.87655 0.03900
H 	H 	0.89364 0.08459 0.85868 0.00300
O 	O 	0.97217 0.10183 0.98596 -0.50400
C 	C 	0.91225 0.11705 0.41273 0.07300
N 	N 	0.87894 0.13714 0.40624 -0.12100
H 	H 	0.95538 0.14952 0.43218 0.00900
H 	H 	0.19032 0.99427 0.38729 0.04000
O 	O 	0.01630 0.98301 0.47234 -0.87600
C 	C 	0.37538 0.63776 0.99816 0.02000
C 	C 	0.40113 0.68407 0.04337 -0.04500
C 	C 	0.43555 0.74447 0.05669 -0.05900
C 	C 	0.44434 0.75932 0.02492 0.06300
C 	C 	0.41939 0.71266 0.97984 -0.05400
C 	C 	0.38511 0.65218 0.96662 -0.03800
N 	N 	0.47674 0.82241 0.03823 -0.13900
C 	C 	0.38824 0.90548 0.01574 0.00100
C 	C 	0.43867 0.93408 0.05878 -0.03000
C 	C 	0.46842 0.90750 0.06531 -0.06500
C 	C 	0.44783 0.85186 0.02910 0.06800
C 	C 	0.39778 0.82402 0.98544 -0.06000
C 	C 	0.36832 0.85086 0.97887 -0.02300
H 	H 	0.39411 0.67328 0.06805 0.04000
H 	H 	0.45468 0.78002 0.09145 0.04700
H 	H 	0.42559 0.72328 0.95481 0.04500
H 	H 	0.36547 0.61667 0.93165 0.04100
H 	H 	0.46823 0.83330 0.96195 0.04700
H 	H 	0.45440 0.97636 0.08740 0.03800
H 	H 	0.38187 0.78195 0.95665 0.04700
H 	H 	0.32950 0.82865 0.94541 0.03800
C 	C 	0.35383 0.57880 0.47712 0.00500
C 	C 	0.38060 0.62453 0.52293 -0.02900
C 	C 	0.41428 0.68523 0.53639 -0.06700
C 	C 	0.42153 0.70096 0.50429 0.07800
C 	C 	0.39591 0.65489 0.45872 -0.06900
C 	C 	0.36215 0.59414 0.44526 -0.02900
N 	N 	0.45314 0.76430 0.51788 -0.14300
C 	C 	0.36360 0.84616 0.49723 0.00600
C 	C 	0.41412 0.87460 0.54013 -0.02900
C 	C 	0.44414 0.84838 0.54609 -0.06600
C 	C 	0.42374 0.79326 0.50943 0.07800
C 	C 	0.37355 0.76555 0.46594 -0.06900
C 	C 	0.34381 0.79204 0.45995 -0.02800
H 	H 	0.37487 0.61307 0.54794 0.03900
H 	H 	0.43406 0.72030 0.57156 0.05100
H 	H 	0.40108 0.66614 0.43349 0.04700
H 	H 	0.34177 0.55913 0.40985 0.03700
H 	H 	0.44220 0.77194 0.44008 0.04700
H 	H 	0.42974 0.91650 0.56906 0.03900
H 	H 	0.35772 0.72387 0.43684 0.04800
H 	H 	0.30491 0.76996 0.42661 0.03800
O 	O 	0.03716 0.99547 0.80767 -0.45900
O 	O 	0.04412 0.92632 0.87544 -0.49900
O 	O 	0.02625 0.97611 0.04798 -0.40700
C 	C 	0.08605 0.96271 0.91967 0.33600
O 	O 	0.01097 0.92603 0.28553 -0.47200
O 	O 	0.01876 0.86571 0.35910 -0.49500
O 	O 	0.06569 0.95107 0.42833 -0.45000
C 	C 	0.01277 0.97911 0.56249 0.31300
O 	O 	0.00328 0.93035 0.53188 -0.42200
C 	C 	0.00442 0.96430 0.27091 0.30400
C 	C 	0.06146 0.90327 0.40292 0.32400
C 	C 	0.02427 0.98502 0.68537 0.09800
N 	N 	0.02520 0.98607 0.72373 -0.09300
N 	N 	0.02627 0.94181 0.65953 -0.11400
C 	C 	0.01962 0.98285 0.60661 -0.02900
C 	C 	0.02397 0.93977 0.62038 0.04400
H 	H 	0.02520 0.90477 0.59998 0.04100
C 	C 	0.21359 0.33720 0.43364 0.06700
N 	N 	0.20084 0.33346 0.46468 -0.11900
C 	C 	0.17120 0.27910 0.46097 0.07200
C 	C 	0.16369 0.22770 0.39119 0.03900
C 	C 	0.19421 0.28396 0.39570 -0.08300
H 	H 	0.16226 0.27799 0.48655 0.02300
H 	H 	0.20283 0.28620 0.37004 0.05300
C 	C 	0.31595 0.51510 0.46221 -0.01400
C 	C 	0.32689 0.47124 0.45034 -0.02000
C 	C 	0.29251 0.41215 0.43932 -0.05800
C 	C 	0.24709 0.39730 0.44002 0.05000
N 	N 	0.23682 0.44055 0.45111 -0.10700
C 	C 	0.26974 0.49838 0.46177 0.02100
H 	H 	0.36252 0.48321 0.45070 0.03500
H 	H 	0.30191 0.37865 0.43167 0.04500
H 	H 	0.26042 0.53161 0.47055 0.03400
C 	C 	0.25175 0.89778 0.47017 0.05100
N 	N 	0.26264 0.87483 0.50049 -0.10800
C 	C 	0.30079 0.86135 0.51180 0.02200
C 	C 	0.32986 0.87085 0.49214 -0.01400
C 	C 	0.32179 0.89806 0.46341 -0.02000
C 	C 	0.28289 0.91206 0.45262 -0.05700
H 	H 	0.30709 0.84110 0.53465 0.03400
H 	H 	0.34434 0.90655 0.44834 0.03400
H 	H 	0.27557 0.93172 0.42942 0.04400
C 	C 	0.10948 0.89982 0.41975 -0.12800
C 	C 	0.11788 0.87372 0.38749 0.04400
C 	C 	0.16516 0.87457 0.40384 -0.08700
C 	C 	0.20411 0.90175 0.45254 0.07000
N 	N 	0.19519 0.92663 0.48348 -0.11900
C 	C 	0.14937 0.92670 0.46826 0.07700
H 	H 	0.08827 0.85364 0.34988 0.02000
H 	H 	0.17117 0.85344 0.37883 0.05200
H 	H 	0.14395 0.94757 0.49385 0.01300
C 	C 	0.26917 0.45658 0.96174 0.05100
N 	N 	0.31768 0.47473 0.96838 -0.10700
C 	C 	0.35147 0.53208 0.97871 0.02300
C 	C 	0.33723 0.57440 0.98352 -0.01800
C 	C 	0.28748 0.55659 0.97653 -0.01700
C 	C 	0.25330 0.49756 0.96566 -0.05800
H 	H 	0.38988 0.54513 0.98410 0.03300
H 	H 	0.27575 0.58863 0.98021 0.03700
H 	H 	0.21544 0.48419 0.96153 0.04500
C 	C 	0.17480 0.28330 0.94488 -0.12100
C 	C 	0.14957 0.30190 0.91396 0.04200
C 	C 	0.18028 0.35830 0.91880 -0.08600
C 	C 	0.23614 0.39589 0.95475 0.06900
N 	N 	0.26018 0.37624 0.98360 -0.12000
C 	C 	0.23098 0.32144 0.97955 0.08400
H 	H 	0.10630 0.27324 0.88676 0.02700
H 	H 	0.16087 0.37279 0.89493 0.05300
H 	H 	0.25149 0.30743 0.00319 0.01600
C 	C 	0.22893 0.96148 0.96975 0.07600
N 	N 	0.22047 0.98760 0.00062 -0.12900
C 	C 	0.17466 0.98771 0.98528 0.10200
C 	C 	0.13431 0.95965 0.93673 -0.14000
C 	C 	0.14222 0.93220 0.90455 0.05000
C 	C 	0.18950 0.93304 0.92101 -0.09100
H 	H 	0.11222 0.91102 0.86688 0.02100
H 	H 	0.19515 0.91092 0.89608 0.05300
C 	C 	0.35458 0.93037 0.01019 -0.02300
C 	C 	0.34604 0.95633 0.98056 -0.01000
C 	C 	0.30721 0.97047 0.96948 -0.06100
C 	C 	0.27657 0.95752 0.98761 0.05700
N 	N 	0.28792 0.93579 0.01873 -0.11300
C 	C 	0.32605 0.92225 0.03037 0.02300
H 	H 	0.36817 0.96374 0.96506 0.03400
H 	H 	0.29955 0.98925 0.94566 0.04500
H 	H 	0.33271 0.90298 0.05389 0.03200
Zn	Zn	0.01223 0.96043 0.84189 1.18800
C 	C 	0.00797 0.96550 0.23174 -0.01100
C 	C 	0.01627 0.96761 0.15913 0.11500
N 	N 	0.01873 0.96943 0.12265 -0.08800
C 	C 	0.46333 0.24600 0.98979 0.03500
C 	C 	0.50718 0.84308 0.98798 -0.06100
C 	C 	0.51700 0.83759 0.02864 0.06800
H 	H 	0.50691 0.92933 0.09894 0.04900
C 	C 	0.48208 0.78433 0.46666 -0.06900
C 	C 	0.49334 0.78099 0.50827 0.07800
H 	H 	0.51311 0.80465 0.42669 0.03600
H 	H 	0.48274 0.87010 0.57958 0.05100
H 	H 	0.47501 0.25095 0.50691 0.03200
H 	H 	0.48733 0.29404 0.00164 0.02200
C 	C 	0.52464 0.23234 0.97181 0.01700
C 	C 	0.54769 0.86048 0.98060 -0.02300
C 	C 	0.56726 0.84847 0.06100 -0.06600
H 	H 	0.53989 0.86512 0.94946 0.03800
H 	H 	0.57510 0.84409 0.09222 0.04700
C 	C 	0.52231 0.80274 0.45898 -0.02900
C 	C 	0.54502 0.79593 0.54166 -0.06800
H 	H 	0.55405 0.79360 0.57377 0.04900
C 	C 	0.59818 0.87210 0.01341 -0.00000
C 	C 	0.57419 0.81829 0.49277 0.00500
C 	C 	0.58532 0.81471 0.53411 -0.02900
H 	H 	0.63018 0.76731 0.48981 0.03100
H 	H 	0.59403 0.81041 0.93890 0.03000
C 	C 	0.56256 0.23742 0.92693 -0.07000
C 	C 	0.57646 0.27697 0.01352 -0.04000
H 	H 	0.58210 0.29237 0.04713 0.03700
C 	C 	0.56940 0.24519 0.52561 -0.02900
H 	H 	0.57177 0.25986 0.55770 0.03700
C 	C 	0.60764 0.86560 0.05346 -0.03100
H 	H 	0.60290 0.33397 0.90913 0.04800
H 	H 	0.59355 0.29958 0.41988 0.04700
H 	H 	0.62528 0.82682 0.56049 0.03500
C 	C 	0.61678 0.83795 0.48474 -0.01500
C 	C 	0.64207 0.80655 0.48452 0.02000
C 	C 	0.63247 0.85342 0.96517 0.03000
C 	C 	0.61468 0.28171 0.96891 0.08600
C 	C 	0.61318 0.25683 0.48574 0.07700
C 	C 	0.61547 0.27534 0.52684 -0.06800
H 	H 	0.64629 0.87386 0.07876 0.03300
C 	C 	0.64115 0.89098 0.00581 -0.02400
H 	H 	0.61422 0.91381 0.47817 0.03500
C 	C 	0.62116 0.30162 0.01200 -0.07600
H 	H 	0.62008 0.38520 0.40361 0.03700
C 	C 	0.63275 0.88844 0.47765 -0.02100
H 	H 	0.63928 0.42577 0.90153 0.03700
H 	H 	0.63057 0.26762 0.87774 0.04800
C 	C 	0.63463 0.33914 0.44410 -0.07000
C 	C 	0.64581 0.36871 0.93320 -0.06900
C 	C 	0.64970 0.38764 0.43479 -0.02900
H 	H 	0.63853 0.24944 0.39979 0.04700
N 	N 	0.67250 0.87055 0.95870 -0.11000
C 	C 	0.64968 0.24753 0.89516 -0.06900
H 	H 	0.65324 0.31286 0.55986 0.04900
C 	C 	0.67317 0.90649 0.47031 -0.05800
H 	H 	0.66112 0.33555 0.04443 0.04700
C 	C 	0.66646 0.42069 0.92879 -0.02800
N 	N 	0.66195 0.30422 0.96871 -0.14300
C 	C 	0.66469 0.25916 0.94108 0.07900
N 	N 	0.66192 0.28676 0.48841 -0.14300
C 	C 	0.66190 0.23552 0.42106 -0.07000
N 	N 	0.68164 0.82514 0.47757 -0.10900
H 	H 	0.68598 0.94588 0.46528 0.04400
C 	C 	0.69118 0.94640 0.03923 -0.01800
H 	H 	0.69859 0.97650 0.07062 0.03300
C 	C 	0.68111 0.36057 0.96729 0.07700
C 	C 	0.67368 0.34029 0.48292 0.07800
C 	C 	0.67315 0.24734 0.46601 0.07800
H 	H 	0.69494 0.89485 0.39896 0.05000
C 	C 	0.69732 0.87373 0.47008 0.04900
C 	C 	0.68609 0.22942 0.96159 -0.06700
H 	H 	0.69700 0.23741 0.99656 0.05100
H 	H 	0.70786 0.55779 0.97101 0.03400
C 	C 	0.70345 0.43802 0.46456 0.00400
C 	C 	0.72183 0.92376 0.99127 0.05700
C 	C 	0.73167 0.96300 0.03197 -0.06400
H 	H 	0.70717 0.23177 0.52504 0.04900
H 	H 	0.72036 0.42717 0.39652 0.03400
C 	C 	0.72150 0.48422 0.45071 -0.01500
C 	C 	0.72232 0.46501 0.95848 0.00200
C 	C 	0.73204 0.89944 0.42330 -0.08600
H 	H 	0.72791 0.55269 0.50210 0.03000
C 	C 	0.73012 0.47190 0.41570 -0.02100
C 	C 	0.72640 0.39247 0.51427 -0.06800
C 	C 	0.73378 0.56135 0.95942 -0.02200
C 	C 	0.74044 0.89219 0.46288 0.06700
C 	C 	0.73450 0.54245 0.47501 0.02000
C 	C 	0.73650 0.40630 0.99828 -0.06000
N 	N 	0.75177 0.93357 0.94020 -0.11800
H 	H 	0.74640 0.66863 0.89500 0.05100
C 	C 	0.74130 0.44110 0.50513 -0.02900
C 	C 	0.74484 0.51679 0.95090 -0.01300
H 	H 	0.74983 0.64665 0.96163 0.04400
C 	C 	0.75292 0.51799 0.40650 -0.05900
C 	C 	0.76427 0.93971 0.98321 0.07300
N 	N 	0.75654 0.58682 0.46534 -0.10900
C 	C 	0.75720 0.61128 0.95387 -0.05800
H 	H 	0.76382 0.91430 0.38307 0.02400
H 	H 	0.76031 0.50884 0.37983 0.04200
C 	C 	0.75708 0.45819 0.99387 -0.02100
H 	H 	0.75646 0.39409 0.54458 0.04900
C 	C 	0.76700 0.57623 0.43253 0.04900
C 	C 	0.77089 0.91021 0.41424 0.04100
H 	H 	0.75838 0.23121 0.87593 0.03500
H 	H 	0.76381 0.40062 0.02487 0.03900
H 	H 	0.77693 0.93759 0.89529 0.03100
N 	N 	0.77324 0.65960 0.41527 -0.12000
H 	H 	0.78080 0.73355 0.40246 0.02500
C 	C 	0.77895 0.52285 0.93640 0.02000
N 	N 	0.78693 0.89712 0.49271 -0.11900
C 	C 	0.78831 0.94256 0.92979 0.07300
H 	H 	0.78280 0.48012 0.52853 0.03600
H 	H 	0.78787 0.48871 0.92958 0.03200
C 	C 	0.78948 0.69119 0.91128 -0.08500
C 	C 	0.79122 0.61587 0.93933 0.04900
C 	C 	0.79448 0.62643 0.42565 0.06600
H 	H 	0.79406 0.75957 0.89024 0.02800
C 	C 	0.79855 0.70782 0.41032 0.07200
N 	N 	0.80144 0.57193 0.93120 -0.10900
H 	H 	0.80019 0.49257 0.01732 0.02600
C 	C 	0.81612 0.95642 0.01815 -0.09100
C 	C 	0.81788 0.91372 0.44471 -0.12200
H 	H 	0.81843 0.96602 0.35767 0.02200
C 	C 	0.81626 0.74204 0.90804 0.03900
C 	C 	0.81861 0.66958 0.93550 0.06700
H 	H 	0.81932 0.23523 0.48127 0.03100
C 	C 	0.82567 0.90829 0.48486 0.07200
H 	H 	0.82635 0.96064 0.05228 0.05000
O 	O 	0.83766 0.89137 0.38809 -0.48100
C 	C 	0.84001 0.95729 0.96328 -0.11300
C 	C 	0.84377 0.64216 0.43199 -0.08700
C 	C 	0.84811 0.72516 0.41677 -0.12200
O 	O 	0.85015 0.78823 0.37965 -0.46700
C 	C 	0.85409 0.96547 0.00820 0.02700
C 	C 	0.85625 0.91776 0.43265 0.32800
O 	O 	0.85898 0.93580 0.90575 -0.47700
H 	H 	0.86167 0.91093 0.50900 0.02900
H 	H 	0.86142 0.61664 0.44093 0.04900
C 	C 	0.87067 0.69179 0.42764 0.04000
Zn	Zn	0.99477 0.96875 0.40988 1.21000
O 	O 	0.92592 0.99199 0.39297 -0.46700
Zn	Zn	0.98780 0.89873 0.32345 1.17400
Zn	Zn	0.90115 0.91337 0.88984 1.17600
Zn	Zn	0.99826 0.95101 0.97810 1.18600
C 	C 	0.90126 0.82647 0.92757 0.32800
C 	C 	0.87777 0.96071 0.95047 0.32200
O 	O 	0.95405 0.86472 0.96012 -0.46000
O 	O 	0.87499 0.83504 0.89234 -0.46600
O 	O 	0.92659 0.97602 0.98258 -0.48100
O 	O 	0.97077 0.93992 0.91124 -0.80000
H 	H 	0.95625 0.99703 0.84522 0.15100
O 	O 	0.97403 0.95508 0.34725 -0.88600
Zn	Zn	0.87798 0.86370 0.37328 1.17400
Zn	Zn	0.97486 0.90159 0.46161 1.18400
C 	C 	0.87723 0.77954 0.41448 0.32800
O 	O 	0.93033 0.81654 0.44553 -0.46700
O 	O 	0.90465 0.93261 0.46523 -0.48200
O 	O 	0.94694 0.88702 0.39391 -0.80200
H 	H 	0.93634 0.94310 0.32577 0.15300
C 	C 	0.98817 0.91168 0.19397 0.01300
N 	N 	0.99248 0.91380 0.15829 -0.12700
H 	H 	0.96902 0.86845 0.19280 0.02100
H 	H 	0.89378 0.97730 0.03493 0.02900
H 	H 	0.90891 0.70433 0.43279 0.02200
C 	C 	0.87182 0.77068 0.92852 -0.11800
N 	N 	0.87239 0.69727 0.95439 -0.12000
C 	C 	0.89936 0.74697 0.95162 0.07400
H 	H 	0.94215 0.76790 0.96724 0.02800
