data_crystal

_cell_length_a 19.46737
_cell_length_b 18.12440
_cell_length_c 26.64134
_cell_angle_alpha 95.41282
_cell_angle_beta  95.41358
_cell_angle_gamma 126.43884

_symmetry_space_group_name_	'P 1'
_symmetry_space_group_name_H-M	'P 1'

loop_
_symmetry_equiv_pos_as_xyz
  x,y,z

loop_
_atom_site_label
_atom_site_type_symbol
_atom_site_fract_x
_atom_site_fract_y
_atom_site_fract_z
_atom_site_charge
C 	C 	0.92054 0.01350 0.96084 0.13400
C 	C 	0.04932 0.02755 0.97342 0.16300
N 	N 	0.00869 0.06745 0.96909 -0.10200
C 	C 	0.95187 0.03251 0.47690 0.13500
N 	N 	0.03891 0.08071 0.47960 -0.10000
C 	C 	0.07591 0.03726 0.48605 0.15600
Cu	Cu	0.69546 0.30175 0.94441 0.92800
Cu	Cu	0.74985 0.27245 0.05732 0.90500
Cu	Cu	0.58557 0.27998 0.02521 0.92300
Cu	Cu	0.54422 0.32114 0.92327 0.91500
C 	C 	0.62518 0.28954 0.84114 0.29200
C 	C 	0.64063 0.26647 0.12325 0.28700
O 	O 	0.56739 0.24569 0.95239 -0.63800
O 	O 	0.70843 0.33124 0.02031 -0.62000
O 	O 	0.73108 0.21746 0.93872 -0.34000
O 	O 	0.82745 0.28945 0.01425 -0.37800
O 	O 	0.56388 0.29536 0.85352 -0.34000
O 	O 	0.46457 0.22276 0.02569 -0.33700
C 	C 	0.41805 0.23304 0.99199 0.32200
O 	O 	0.45575 0.29938 0.96459 -0.35500
O 	O 	0.66001 0.26158 0.87143 -0.33800
C 	C 	0.79601 0.23196 0.97021 0.32200
O 	O 	0.60780 0.30209 0.09943 -0.34200
O 	O 	0.65796 0.21658 0.09665 -0.38500
H 	H 	0.52283 0.17791 0.93914 0.18900
Cu	Cu	0.73845 0.32805 0.44756 0.93500
Cu	Cu	0.73501 0.24666 0.55291 0.89300
Cu	Cu	0.61157 0.28176 0.52053 0.90300
Cu	Cu	0.57785 0.32795 0.42142 0.91100
C 	C 	0.66338 0.29967 0.34229 0.29000
C 	C 	0.66893 0.29689 0.62965 0.28300
O 	O 	0.60465 0.25355 0.44833 -0.64000
O 	O 	0.73725 0.34093 0.52219 -0.63400
O 	O 	0.80365 0.27485 0.44610 -0.33500
O 	O 	0.71636 0.16817 0.49280 -0.41500
O 	O 	0.62921 0.34026 0.35852 -0.34600
O 	O 	0.48750 0.21466 0.51542 -0.35700
C 	C 	0.43776 0.22157 0.48205 0.33800
O 	O 	0.47013 0.27991 0.44960 -0.35700
O 	O 	0.71657 0.29506 0.37418 -0.33300
C 	C 	0.77736 0.19990 0.46525 0.34000
O 	O 	0.62236 0.30646 0.59523 -0.34400
O 	O 	0.73390 0.29754 0.61867 -0.37800
H 	H 	0.56459 0.18625 0.43284 0.18600
H 	H 	0.77730 0.40490 0.54287 0.20600
C 	C 	0.63691 0.28916 0.78704 -0.04200
C 	C 	0.71879 0.35659 0.77510 0.01200
C 	C 	0.72722 0.36469 0.72355 0.01500
C 	C 	0.65610 0.29899 0.68353 -0.04600
C 	C 	0.57472 0.22961 0.69541 0.00800
C 	C 	0.56520 0.22449 0.74708 0.01300
C 	C 	0.50119 0.16231 0.65448 0.10600
C 	C 	0.48260 0.15034 0.75911 0.11300
N 	N 	0.41673 0.09118 0.76870 -0.08100
N 	N 	0.44254 0.10865 0.62184 -0.08900
C 	C 	0.66039 0.28220 0.28652 -0.04300
C 	C 	0.57996 0.21405 0.25344 0.00800
C 	C 	0.57298 0.21015 0.19993 0.01700
C 	C 	0.64725 0.27179 0.17929 -0.05600
C 	C 	0.72870 0.33632 0.21211 0.01100
C 	C 	0.73530 0.34181 0.26570 0.01400
C 	C 	0.50469 0.14732 0.27450 0.09900
C 	C 	0.80544 0.39821 0.19071 0.08400
C 	C 	0.81871 0.41025 0.29945 0.12400
C 	C 	0.48930 0.14332 0.16614 0.11400
N 	N 	0.42257 0.09011 0.13914 -0.08200
N 	N 	0.44463 0.09399 0.29129 -0.08800
C 	C 	0.92169 0.13848 0.51637 0.07300
C 	C 	0.91242 0.08083 0.47277 -0.02700
C 	C 	0.86500 0.06906 0.42537 0.04900
C 	C 	0.82203 0.10986 0.42246 0.12700
C 	C 	0.82966 0.16564 0.46643 -0.12600
C 	C 	0.88341 0.18396 0.51262 0.11900
Br	Br	0.90837 0.27517 0.56980 -0.24600
Br	Br	0.98358 0.15180 0.58174 -0.13700
Br	Br	0.75187 0.08848 0.35857 -0.17100
C 	C 	0.23172 0.14819 0.52892 0.07600
C 	C 	0.16867 0.08683 0.48484 -0.02900
C 	C 	0.19390 0.06746 0.44074 0.05300
C 	C 	0.28156 0.10636 0.44139 0.12300
C 	C 	0.34518 0.17068 0.48464 -0.11300
C 	C 	0.32026 0.19214 0.52838 0.12200
Br	Br	0.40740 0.28459 0.58658 -0.14400
Br	Br	0.19651 0.17011 0.59037 -0.11500
Br	Br	0.31431 0.06883 0.38386 -0.18800
C 	C 	0.79536 0.10302 0.99679 0.11600
C 	C 	0.81633 0.16554 0.96273 -0.11800
C 	C 	0.86053 0.16748 0.92337 0.12100
C 	C 	0.88825 0.11115 0.92017 0.07300
C 	C 	0.87685 0.05773 0.95832 -0.02600
C 	C 	0.82982 0.05339 0.99653 0.04500
Br	Br	0.71486 0.08066 0.04134 -0.24600
Br	Br	0.93943 0.10489 0.86291 -0.13900
Br	Br	0.88488 0.24878 0.87475 -0.15600
C 	C 	0.19862 0.13836 0.02558 0.08900
C 	C 	0.14380 0.08426 0.97786 -0.04600
C 	C 	0.17893 0.07719 0.93555 0.08200
C 	C 	0.26822 0.12049 0.94147 0.11600
C 	C 	0.32365 0.17699 0.98868 -0.11800
C 	C 	0.28888 0.18641 0.03075 0.12800
Br	Br	0.36493 0.26748 0.09476 -0.13700
Br	Br	0.14963 0.14472 0.08402 -0.12400
Br	Br	0.31454 0.09985 0.88547 -0.19900
Br	Br	0.10461 0.00997 0.86910 -0.12400
H 	H 	0.74810 0.39929 0.03349 0.18900
C 	C 	0.79472 0.41645 0.81570 0.11800
O 	O 	0.76284 0.43943 0.93984 -0.34100
Br	Br	0.86098 0.99934 0.36437 -0.08000
Br	Br	0.81818 0.98543 0.05082 -0.07400
N 	N 	0.86659 0.44754 0.17359 -0.10000
N 	N 	0.88523 0.46484 0.32639 -0.08000
C 	C 	0.80801 0.44256 0.71174 0.12200
N 	N 	0.87312 0.91936 0.95704 -0.09400
C 	C 	0.91419 0.87983 0.96214 0.17600
N 	N 	0.00206 0.93400 0.97005 -0.08900
N 	N 	0.02581 0.94561 0.48931 -0.08800
C 	C 	0.93877 0.89690 0.48576 0.17500
N 	N 	0.90174 0.94043 0.47978 -0.09500
C 	C 	0.73555 0.48738 0.95527 0.32800
O 	O 	0.66103 0.44552 0.97051 -0.36900
O 	O 	0.79107 0.46438 0.44904 -0.33400
C 	C 	0.75747 0.50199 0.46989 0.32700
O 	O 	0.67844 0.44820 0.47921 -0.36600
N 	N 	0.87244 0.50471 0.70231 -0.07800
N 	N 	0.85548 0.46425 0.84798 -0.08000
C 	C 	0.83336 0.66067 0.52279 0.11700
C 	C 	0.80185 0.60286 0.47411 -0.11000
C 	C 	0.80926 0.64097 0.42934 0.11700
C 	C 	0.85020 0.73691 0.43330 0.08100
C 	C 	0.88397 0.79511 0.48189 -0.03800
C 	C 	0.87406 0.75676 0.52664 0.08100
Br	Br	0.91656 0.83622 0.59309 -0.11100
Br	Br	0.82299 0.60863 0.58408 -0.16600
Br	Br	0.86165 0.78921 0.37202 -0.11500
Br	Br	0.76227 0.56170 0.36252 -0.16300
Br	Br	0.10858 0.99014 0.37887 -0.06500
C 	C 	0.81827 0.71603 0.91360 0.08300
C 	C 	0.86412 0.77887 0.96071 -0.04600
C 	C 	0.87147 0.74628 0.00533 0.08900
C 	C 	0.83651 0.65188 0.00239 0.13000
C 	C 	0.78820 0.58833 0.95565 -0.12100
C 	C 	0.77786 0.62038 0.91142 0.11800
Br	Br	0.70391 0.53268 0.84875 -0.18500
Br	Br	0.81318 0.76149 0.85176 -0.11200
Br	Br	0.85491 0.60957 0.06234 -0.17600
Br	Br	0.92689 0.83062 0.07080 -0.11100
