data_crystal

_cell_length_a 23.86767
_cell_length_b 24.05456
_cell_length_c 33.06042
_cell_angle_alpha 95.49458
_cell_angle_beta  95.49507
_cell_angle_gamma 125.79914

_symmetry_space_group_name_	'P 1'
_symmetry_space_group_name_H-M	'P 1'

loop_
_symmetry_equiv_pos_as_xyz
  x,y,z

loop_
_atom_site_label
_atom_site_type_symbol
_atom_site_fract_x
_atom_site_fract_y
_atom_site_fract_z
_atom_site_charge
C 	C 	0.07240 0.10338 0.99126 -0.02700
C 	C 	0.07689 0.05423 0.96838 -0.01400
C 	C 	0.01814 0.98403 0.95836 -0.04200
H 	H 	0.11896 0.15683 0.00143 0.03300
H 	H 	0.02295 0.94551 0.94298 0.04000
C 	C 	0.01709 0.99779 0.46836 -0.02100
H 	H 	0.02632 0.91565 0.47790 0.03400
C 	C 	0.18933 0.16006 0.49569 0.06900
C 	C 	0.24834 0.21591 0.48312 -0.08100
C 	C 	0.19683 0.12497 0.52438 0.02700
N 	N 	0.12570 0.11744 0.47087 -0.17000
C 	C 	0.09293 0.05495 0.48279 0.07900
C 	C 	0.13477 0.05787 0.51645 -0.09100
H 	H 	0.24244 0.23636 0.45654 0.05000
H 	H 	0.12851 0.01318 0.52631 0.05200
H 	H 	0.11283 0.12482 0.44174 0.08100
C 	C 	0.24193 0.08779 0.96231 0.07100
C 	C 	0.25432 0.14635 0.94851 0.02500
N 	N 	0.17455 0.04443 0.96687 -0.17000
C 	C 	0.14393 0.07510 0.95653 0.07800
C 	C 	0.19172 0.13845 0.94486 -0.09000
H 	H 	0.18759 0.18107 0.94617 0.05200
H 	H 	0.15694 0.00822 0.98660 0.08400
C 	C 	0.26311 0.14235 0.53975 -0.09100
C 	C 	0.31507 0.23989 0.50342 0.00800
H 	H 	0.26799 0.10752 0.55554 0.05500
C 	C 	0.29669 0.09131 0.98554 -0.08400
C 	C 	0.32105 0.21095 0.95863 -0.09000
H 	H 	0.28738 0.04574 0.99601 0.05300
H 	H 	0.33044 0.25657 0.94820 0.05400
C 	C 	0.32256 0.20293 0.53067 0.07900
C 	C 	0.36319 0.15603 0.99591 0.01600
C 	C 	0.37551 0.21459 0.98225 0.07700
N 	N 	0.38385 0.21217 0.53037 -0.15200
C 	C 	0.37432 0.27269 0.48564 -0.04600
H 	H 	0.37615 0.28761 0.45561 0.04700
H 	H 	0.39348 0.17725 0.53875 0.09500
N 	N 	0.44330 0.25883 0.97870 -0.15300
C 	C 	0.42630 0.16480 0.00062 -0.05300
H 	H 	0.43177 0.12316 0.00068 0.04900
C 	C 	0.41542 0.25441 0.50302 0.00200
H 	H 	0.46257 0.29773 0.96078 0.08600
C 	C 	0.47379 0.22808 0.98898 0.00200
C 	C 	0.47232 0.26050 0.48480 0.26200
O 	O 	0.48570 0.28481 0.44991 -0.38600
O 	O 	0.50046 0.23141 0.49987 -0.37400
C 	C 	0.54985 0.26327 0.99375 0.26200
H 	H 	0.54338 0.31951 0.21156 0.06400
H 	H 	0.55721 0.18728 0.71345 0.06300
O 	O 	0.57709 0.23309 0.00788 -0.36600
H 	H 	0.58885 0.21007 0.80063 0.04800
H 	H 	0.55624 0.31690 0.29199 0.05300
H 	H 	0.54073 0.19867 0.42480 0.16600
C 	C 	0.55656 0.28334 0.20949 -0.09000
O 	O 	0.59067 0.32580 0.98498 -0.38000
Cu	Cu	0.56913 0.31507 0.42364 0.89300
C 	C 	0.57976 0.27156 0.17455 0.11600
C 	C 	0.55640 0.25141 0.24291 0.01000
C 	C 	0.55899 0.27440 0.28213 -0.06300
O 	O 	0.60091 0.31486 0.14550 -0.19500
H 	H 	0.62607 0.24472 0.93666 0.17200
O 	O 	0.57951 0.24732 0.43838 -0.63700
C 	C 	0.61382 0.22438 0.71724 -0.08900
O 	O 	0.60919 0.23300 0.64382 -0.19400
Cu	Cu	0.59504 0.26274 0.49771 0.89700
O 	O 	0.60239 0.32037 0.36996 -0.37700
O 	O 	0.60467 0.25771 0.55701 -0.37000
C 	C 	0.63539 0.25456 0.79247 -0.06000
C 	C 	0.58863 0.21889 0.24451 0.11300
C 	C 	0.60622 0.23363 0.17474 0.00800
C 	C 	0.59224 0.25454 0.30648 0.04300
O 	O 	0.67473 0.27452 0.95275 -0.64100
O 	O 	0.69358 0.25454 0.87652 -0.40600
C 	C 	0.61336 0.27714 0.35165 0.25500
C 	C 	0.64634 0.24684 0.68303 0.11400
C 	C 	0.65699 0.25457 0.75659 0.00700
C 	C 	0.61663 0.21166 0.21069 -0.08600
C 	C 	0.64332 0.29996 0.12881 0.04600
O 	O 	0.61244 0.21845 0.28446 -0.18600
Cu	Cu	0.68096 0.27737 0.01285 0.92600
C 	C 	0.64651 0.25147 0.14575 -0.05700
C 	C 	0.67251 0.32589 0.09200 0.25700
C 	C 	0.70163 0.30911 0.86450 0.25400
C 	C 	0.66123 0.27369 0.58151 0.25600
O 	O 	0.66133 0.39533 0.46970 -0.38600
C 	C 	0.66486 0.28333 0.62638 0.04000
C 	C 	0.69386 0.31008 0.82016 0.04100
H 	H 	0.63603 0.03846 0.45194 0.08000
Cu	Cu	0.68321 0.41126 0.02900 0.89300
O 	O 	0.72963 0.23337 0.02044 -0.37000
O 	O 	0.68455 0.38476 0.08458 -0.36300
O 	O 	0.69791 0.29780 0.07176 -0.35800
O 	O 	0.64679 0.15309 0.46240 -0.43100
O 	O 	0.65524 0.26561 0.37153 -0.34000
H 	H 	0.64902 0.19377 0.21325 0.06600
Cu	Cu	0.73775 0.26056 0.92963 0.87200
Cu	Cu	0.68202 0.28564 0.43053 0.92700
H 	H 	0.68737 0.24467 0.14425 0.05900
N 	N 	0.66148 0.05115 0.42660 -0.15200
Cu	Cu	0.72453 0.37562 0.95061 0.89800
Cu	Cu	0.68930 0.22030 0.51212 0.87100
O 	O 	0.69102 0.29331 0.49116 -0.64300
C 	C 	0.68086 0.16461 0.43165 0.26100
C 	C 	0.72612 0.31206 0.76242 0.11500
C 	C 	0.71700 0.30074 0.68875 0.00700
H 	H 	0.67515 0.95621 0.45698 0.05100
H 	H 	0.78157 0.16622 0.05840 0.04700
O 	O 	0.73694 0.38387 0.00975 -0.63700
O 	O 	0.72981 0.36761 0.89119 -0.36900
O 	O 	0.70763 0.26847 0.56668 -0.40900
H 	H 	0.72050 0.52200 0.51131 0.08600
C 	C 	0.68652 0.11080 0.41203 -0.00400
C 	C 	0.83319 0.21435 0.05951 -0.04400
C 	C 	0.69909 0.02901 0.41543 0.07600
C 	C 	0.79111 0.26119 0.00960 0.25500
C 	C 	0.72419 0.42655 0.46029 0.25400
O 	O 	0.72045 0.49154 0.99954 -0.38200
O 	O 	0.71332 0.22554 0.42010 -0.36400
C 	C 	0.72849 0.32586 0.65364 -0.05900
H 	H 	0.72897 0.34042 0.50729 0.17100
C 	C 	0.71293 0.99163 0.43940 -0.09300
O 	O 	0.75332 0.35083 0.80238 -0.19500
O 	O 	0.73814 0.39087 0.43618 -0.35500
H 	H 	0.05921 0.22193 0.99570 0.05500
C 	C 	0.75704 0.33860 0.72834 -0.09000
O 	O 	0.80624 0.29410 0.97828 -0.42600
C 	C 	0.73979 0.12633 0.39043 -0.04200
N 	N 	0.76953 0.53904 0.50457 -0.15300
C 	C 	0.74789 0.07419 0.39267 0.00900
H 	H 	0.77404 0.65359 0.52698 0.05400
H 	H 	0.75849 0.90985 0.45930 0.05100
H 	H 	0.78691 0.41408 0.02375 0.16500
C 	C 	0.78028 0.50021 0.47889 -0.00300
H 	H 	0.77961 0.35967 0.64525 0.05000
O 	O 	0.77756 0.47528 0.95302 -0.36600
C 	C 	0.77400 0.51678 0.98000 0.25700
C 	C 	0.77911 0.00561 0.44237 0.02400
H 	H 	0.78138 0.17855 0.38661 0.05200
H 	H 	0.80800 0.62775 0.04114 0.04700
H 	H 	0.80879 0.38789 0.73249 0.06400
C 	C 	0.79373 0.95934 0.44984 -0.09000
C 	C 	0.83475 0.64100 0.01502 -0.06500
C 	C 	0.82216 0.59246 0.98193 0.01000
C 	C 	0.03678 0.20241 0.02259 -0.09500
H 	H 	0.02804 0.31074 0.01444 0.04600
C 	C 	0.81657 0.66070 0.51304 -0.09000
H 	H 	0.81647 0.59217 0.91741 0.09400
H 	H 	0.81622 0.84911 0.43468 0.03900
C 	C 	0.82289 0.60626 0.50545 0.07700
C 	C 	0.81256 0.08488 0.39398 -0.08300
H 	H 	0.84908 0.76204 0.04682 0.05400
C 	C 	0.84657 0.26444 0.03603 -0.00300
N 	N 	0.83862 0.62091 0.94762 -0.15200
H 	H 	0.83137 0.79020 0.51044 0.05300
C 	C 	0.84728 0.79051 0.98669 0.07900
C 	C 	0.85075 0.75162 0.01452 -0.09800
C 	C 	0.82729 0.05011 0.41958 0.06900
H 	H 	0.85580 0.11939 0.08091 0.05100
C 	C 	0.84084 0.54268 0.46291 -0.04600
C 	C 	0.84873 0.77640 0.94510 0.02200
C 	C 	0.85110 0.76978 0.49033 -0.09100
C 	C 	0.85586 0.72459 0.93024 -0.08600
C 	C 	0.86026 0.70162 0.99992 0.02800
H 	H 	0.84980 0.52771 0.43365 0.05200
C 	C 	0.85027 0.97755 0.43069 0.07600
H 	H 	0.85067 0.12026 0.37653 0.05200
C 	C 	0.86157 0.68737 0.95844 0.07300
H 	H 	0.85742 0.71395 0.89794 0.05500
C 	C 	0.86350 0.72232 0.49882 0.02600
C 	C 	0.00841 0.08293 0.00246 -0.02700
C 	C 	0.86824 0.61048 0.48015 0.00900
N 	N 	0.87482 0.85820 0.99824 -0.16800
C 	C 	0.87219 0.89048 0.44383 -0.04000
N 	N 	0.87087 0.03348 0.41288 -0.17000
C 	C 	0.87912 0.83860 0.93100 -0.08800
C 	C 	0.00741 0.22694 0.04556 0.01700
C 	C 	0.89552 0.22186 0.06790 0.01100
C 	C 	0.89945 0.16692 0.07310 -0.08400
C 	C 	0.89011 0.80219 0.46028 0.07700
C 	C 	0.89556 0.88821 0.96481 0.07600
H 	H 	0.89711 0.88551 0.02877 0.08000
H 	H 	0.89841 0.99713 0.99714 0.03800
C 	C 	0.00520 0.13440 0.02855 0.07700
C 	C 	0.89845 0.95996 0.44309 -0.01200
H 	H 	0.90280 0.04954 0.39056 0.08300
H 	H 	0.90580 0.85051 0.90485 0.05300
C 	C 	0.90694 0.72561 0.47254 0.06900
C 	C 	0.90678 0.66796 0.46059 -0.08000
N 	N 	0.91358 0.30138 0.02974 -0.15200
H 	H 	0.91783 0.06589 0.05657 0.08100
C 	C 	0.91825 0.87446 0.45657 -0.01300
N 	N 	0.92212 0.77339 0.44882 -0.16900
H 	H 	0.93077 0.32778 0.00510 0.08300
H 	H 	0.93167 0.66607 0.43529 0.05300
H 	H 	0.99059 0.06727 0.45678 0.04300
C 	C 	0.99077 0.92809 0.46828 -0.03000
C 	C 	0.97074 0.01339 0.45568 -0.03100
C 	C 	0.95403 0.96312 0.96946 -0.01100
C 	C 	0.94870 0.01305 0.99015 -0.02700
H 	H 	0.96198 0.79387 0.43136 0.08300
C 	C 	0.95874 0.17263 0.06401 0.07500
C 	C 	0.94356 0.27548 0.04884 0.07300
C 	C 	0.99786 0.27634 0.03507 -0.08200
N 	N 	0.95819 0.11675 0.05388 -0.16900
