data_crystal

_cell_length_a 42.16849
_cell_length_b 38.92662
_cell_length_c 26.12552
_cell_angle_alpha 89.96497
_cell_angle_beta  89.95140
_cell_angle_gamma 89.99860

_symmetry_space_group_name_	'P 1'
_symmetry_space_group_name_H-M	'P 1'

loop_
_symmetry_equiv_pos_as_xyz
  x,y,z

loop_
_atom_site_label
_atom_site_type_symbol
_atom_site_fract_x
_atom_site_fract_y
_atom_site_fract_z
_atom_site_charge
C 	C 	0.53514 0.45666 0.04119 0.10100
N 	N 	0.50860 0.46289 0.01420 -0.17200
C 	C 	0.48995 0.43508 0.01996 0.09800
C 	C 	0.46128 0.42882 0.98844 -0.07400
C 	C 	0.44251 0.45831 0.96927 0.08800
C 	C 	0.45028 0.39335 0.97925 0.04400
C 	C 	0.46637 0.37228 0.94430 -0.05800
C 	C 	0.45651 0.33837 0.93673 -0.03000
C 	C 	0.43053 0.32536 0.96413 0.00900
C 	C 	0.42417 0.38041 0.00635 -0.06200
N 	N 	0.44463 0.48999 0.98964 -0.12800
C 	C 	0.41737 0.45608 0.93538 -0.06200
C 	C 	0.42116 0.50826 0.96781 0.08800
C 	C 	0.41168 0.54265 0.98646 -0.07100
C 	C 	0.37772 0.55219 0.98890 0.04100
C 	C 	0.32437 0.54106 0.01967 -0.03600
C 	C 	0.36684 0.58186 0.96391 -0.05500
C 	C 	0.33487 0.59118 0.96704 -0.03300
C 	C 	0.31357 0.57084 0.99500 0.01300
N 	N 	0.46749 0.56232 0.99710 -0.17100
C 	C 	0.48264 0.58337 0.02973 0.10000
C 	C 	0.46105 0.60190 0.05844 -0.06400
C 	C 	0.43127 0.59103 0.04330 -0.06100
C 	C 	0.51654 0.59222 0.02462 -0.07500
C 	C 	0.52643 0.62861 0.02222 0.03900
C 	C 	0.56000 0.67493 0.05256 -0.03600
C 	C 	0.54925 0.69598 0.01261 0.01000
C 	C 	0.52639 0.68358 0.97832 -0.03100
C 	C 	0.51497 0.65001 0.98314 -0.05300
N 	N 	0.53644 0.53339 0.04354 -0.12800
C 	C 	0.58217 0.53437 0.99862 -0.06100
C 	C 	0.56209 0.51506 0.02909 0.08600
C 	C 	0.56438 0.47736 0.03535 -0.07500
C 	C 	0.59599 0.46087 0.03799 0.04000
C 	C 	0.61878 0.47315 0.07254 -0.05500
C 	C 	0.64979 0.46060 0.07092 -0.03600
C 	C 	0.65823 0.43534 0.03512 0.00900
C 	C 	0.63503 0.42169 0.00243 -0.03200
C 	C 	0.60410 0.43467 0.00347 -0.05800
C 	C 	0.53360 0.42466 0.06436 -0.06400
C 	C 	0.50460 0.41081 0.05075 -0.06300
C 	C 	0.41434 0.34651 0.99883 -0.02900
C 	C 	0.40361 0.48820 0.93451 -0.06200
C 	C 	0.43619 0.56701 0.00494 0.09300
C 	C 	0.56844 0.56635 0.99470 -0.06100
C 	C 	0.54070 0.56475 0.02279 0.08600
C 	C 	0.54860 0.64140 0.05741 -0.05500
H 	H 	0.50737 0.47989 0.98328 0.09700
H 	H 	0.47765 0.55052 0.96512 0.09200
H 	H 	0.66749 0.47121 0.09645 0.03700
H 	H 	0.64122 0.40185 0.97512 0.04300
H 	H 	0.61266 0.49309 0.09973 0.04500
H 	H 	0.58667 0.42497 0.97669 0.04600
H 	H 	0.46917 0.32215 0.90993 0.04000
H 	H 	0.41165 0.39655 0.03342 0.04700
H 	H 	0.39423 0.33664 0.02008 0.03700
H 	H 	0.48660 0.38211 0.92331 0.04500
H 	H 	0.32666 0.61417 0.94778 0.04000
H 	H 	0.38314 0.59766 0.94212 0.04500
C 	C 	0.35637 0.53191 0.01697 -0.05700
H 	H 	0.30801 0.52514 0.04112 0.03900
H 	H 	0.57750 0.68443 0.07940 0.03900
H 	H 	0.55732 0.62517 0.08803 0.04500
H 	H 	0.49781 0.64038 0.95585 0.04500
H 	H 	0.51792 0.69973 0.94743 0.04100
H 	H 	0.55383 0.40985 0.07714 0.04800
H 	H 	0.49904 0.38367 0.05133 0.04800
H 	H 	0.40568 0.43255 0.92395 0.04800
H 	H 	0.37958 0.49349 0.92232 0.04700
H 	H 	0.46636 0.61623 0.09287 0.04900
H 	H 	0.40993 0.59337 0.06609 0.04900
H 	H 	0.59909 0.52391 0.97162 0.04600
H 	H 	0.57325 0.58467 0.96448 0.04600
H 	H 	0.36459 0.50911 0.03672 0.04600
Zn	Zn	0.36476 0.12631 0.97090 1.22200
C 	C 	0.30828 0.08505 0.98299 0.32800
O 	O 	0.38840 0.12172 0.03563 -0.45900
O 	O 	0.32546 0.05908 0.96676 -0.44500
O 	O 	0.36442 0.07209 0.05969 -0.47900
C 	C 	0.38172 0.07796 0.89364 0.31400
O 	O 	0.36299 0.10398 0.90401 -0.44800
O 	O 	0.39432 0.06010 0.93099 -0.49700
C 	C 	0.38016 0.09995 0.07170 0.30400
O 	O 	0.40690 0.15974 0.93819 -0.32300
Zn	Zn	0.37081 0.05092 0.99343 1.17300
O 	O 	0.32202 0.11427 0.99511 -0.43700
C 	C 	0.38803 0.18568 0.94498 0.29200
O 	O 	0.36035 0.17810 0.96315 -0.38500
C 	C 	0.50344 0.95795 0.50752 0.01100
C 	C 	0.47663 0.97950 0.51494 0.01300
C 	C 	0.52448 0.96449 0.46691 -0.05400
C 	C 	0.51942 0.99265 0.43427 0.01200
C 	C 	0.47081 0.00677 0.48089 -0.05500
C 	C 	0.49211 0.01359 0.44076 0.01100
H 	H 	0.45006 0.02282 0.48598 0.05200
H 	H 	0.54486 0.94801 0.46113 0.05100
C 	C 	0.48745 0.04173 0.40740 -0.01300
C 	C 	0.50805 0.04793 0.36611 0.00700
C 	C 	0.49346 0.06641 0.32531 -0.04600
C 	C 	0.46155 0.07418 0.33463 -0.00300
S 	S 	0.45209 0.05768 0.39167 -0.00200
H 	H 	0.50421 0.06972 0.28804 0.04800
C 	C 	0.54150 0.00134 0.39578 -0.01400
C 	C 	0.53547 0.02777 0.36065 0.00800
C 	C 	0.55325 0.02450 0.31449 -0.04800
C 	C 	0.57290 0.99552 0.31406 -0.00300
S 	S 	0.56700 0.97413 0.36863 -0.00200
H 	H 	0.54951 0.04030 0.28097 0.04800
C 	C 	0.49016 0.92662 0.58626 0.00600
C 	C 	0.50896 0.93076 0.54224 -0.01300
S 	S 	0.54487 0.91545 0.55598 -0.00300
C 	C 	0.53830 0.90248 0.61590 -0.00300
C 	C 	0.50665 0.91023 0.62732 -0.04600
C 	C 	0.45635 0.97315 0.55687 -0.01600
C 	C 	0.46334 0.94765 0.59320 0.01000
C 	C 	0.44891 0.95389 0.64168 -0.05100
C 	C 	0.43185 0.98478 0.64365 -0.00300
S 	S 	0.43482 0.00323 0.58630 0.00800
H 	H 	0.45326 0.93842 0.67533 0.04500
H 	H 	0.49754 0.90887 0.66596 0.04800
Zn	Zn	0.64134 0.88341 0.97516 1.22100
C 	C 	0.70503 0.90978 0.96101 0.32700
O 	O 	0.62337 0.91221 0.03008 -0.45100
O 	O 	0.69245 0.93102 0.92758 -0.45100
O 	O 	0.65638 0.95751 0.01666 -0.49800
C 	C 	0.62843 0.90533 0.87319 0.31500
O 	O 	0.64354 0.88244 0.90076 -0.45200
O 	O 	0.62357 0.93630 0.89127 -0.49500
C 	C 	0.63779 0.93985 0.04712 0.30600
O 	O 	0.59197 0.85496 0.96703 -0.32800
Zn	Zn	0.65078 0.95648 0.94312 1.17200
O 	O 	0.68669 0.89002 0.98919 -0.43000
C 	C 	0.60620 0.82949 0.98939 0.29200
O 	O 	0.63555 0.83471 0.00151 -0.38200
Zn	Zn	0.12262 0.62082 0.03291 1.22000
C 	C 	0.07813 0.67693 0.04180 0.33100
O 	O 	0.11658 0.59190 0.09434 -0.45000
O 	O 	0.05668 0.65658 0.02146 -0.45400
O 	O 	0.06657 0.61054 0.11051 -0.49300
C 	C 	0.08673 0.60264 0.94442 0.31500
O 	O 	0.10714 0.62479 0.96289 -0.45200
O 	O 	0.06832 0.58529 0.97556 -0.49400
C 	C 	0.09323 0.59710 0.12668 0.30600
O 	O 	0.15934 0.58029 0.00119 -0.31800
Zn	Zn	0.05369 0.60520 0.03980 1.17000
O 	O 	0.10522 0.66441 0.05846 -0.43500
C 	C 	0.18066 0.60298 0.01293 0.28900
O 	O 	0.17006 0.63096 0.03358 -0.38600
C 	C 	0.00133 0.45845 0.47160 0.01200
C 	C 	0.03043 0.47645 0.47716 0.01300
C 	C 	0.97638 0.46441 0.50622 -0.05400
C 	C 	0.97976 0.48897 0.54525 0.01100
C 	C 	0.03408 0.50043 0.51699 -0.05400
C 	C 	0.00876 0.50721 0.55054 0.01300
H 	H 	0.05630 0.51406 0.52140 0.05200
H 	H 	0.95432 0.45040 0.50235 0.05200
C 	C 	0.01097 0.53324 0.58801 -0.01500
C 	C 	0.98577 0.54034 0.62150 0.00900
C 	C 	0.99577 0.55678 0.66748 -0.04900
C 	C 	0.02865 0.56148 0.67037 -0.00300
S 	S 	0.04444 0.54498 0.61721 0.00300
H 	H 	0.98036 0.56115 0.69992 0.04600
C 	C 	0.95420 0.49722 0.57793 -0.01300
C 	C 	0.95720 0.52202 0.61663 0.00700
C 	C 	0.93499 0.51743 0.65726 -0.04700
C 	C 	0.91544 0.48874 0.65078 -0.00300
S 	S 	0.92616 0.46956 0.59628 -0.00200
H 	H 	0.93580 0.53163 0.69279 0.04700
C 	C 	0.02220 0.43000 0.39469 0.00800
C 	C 	0.99800 0.43476 0.43102 -0.01500
S 	S 	0.96369 0.42599 0.40212 0.00500
C 	C 	0.97757 0.41433 0.34498 -0.00400
C 	C 	0.01063 0.41784 0.34665 -0.05000
C 	C 	0.05529 0.46981 0.44230 -0.01600
C 	C 	0.05118 0.44752 0.40058 0.00800
C 	C 	0.07251 0.45446 0.35941 -0.04700
C 	C 	0.09228 0.48277 0.36818 -0.00800
S 	S 	0.08302 0.49830 0.42582 0.01100
H 	H 	0.07087 0.44232 0.32231 0.04400
H 	H 	0.02509 0.41607 0.31258 0.04500
Zn	Zn	0.85474 0.38907 0.00188 1.21900
C 	C 	0.79271 0.41644 0.02473 0.32900
O 	O 	0.86851 0.41270 0.93880 -0.44800
O 	O 	0.80760 0.44048 0.05055 -0.44900
O 	O 	0.83660 0.45909 0.95046 -0.49500
C 	C 	0.87476 0.41871 0.09636 0.31500
O 	O 	0.85751 0.39426 0.07598 -0.45400
O 	O 	0.87879 0.44772 0.07167 -0.49600
C 	C 	0.85320 0.43923 0.91999 0.30400
O 	O 	0.90482 0.36215 0.00649 -0.32100
Zn	Zn	0.84777 0.46393 0.02211 1.16900
O 	O 	0.80862 0.39521 0.99515 -0.43600
C 	C 	0.88983 0.33451 0.99290 0.29000
O 	O 	0.85970 0.33821 0.98495 -0.38600
C 	C 	0.99655 0.94029 0.07930 0.10000
N 	N 	0.98249 0.96615 0.05369 -0.17300
C 	C 	0.95112 0.96299 0.06203 0.09900
C 	C 	0.92708 0.98089 0.03042 -0.07400
C 	C 	0.93264 0.01676 0.01456 0.08500
C 	C 	0.89574 0.96507 0.02095 0.03800
C 	C 	0.89348 0.93354 0.99515 -0.05400
C 	C 	0.86371 0.91919 0.98507 -0.03200
C 	C 	0.83605 0.93670 0.99964 0.01200
C 	C 	0.86805 0.98213 0.03646 -0.05200
N 	N 	0.95046 0.03889 0.04175 -0.12800
C 	C 	0.92488 0.03003 0.96712 -0.06100
C 	C 	0.95354 0.06674 0.01154 0.08600
C 	C 	0.97570 0.09500 0.02278 -0.07500
C 	C 	0.96466 0.13078 0.01659 0.04000
C 	C 	0.92764 0.17617 0.03852 -0.03100
C 	C 	0.97958 0.15276 0.98146 -0.05500
C 	C 	0.96866 0.18644 0.97512 -0.03000
C 	C 	0.94258 0.19818 0.00353 0.00600
N 	N 	0.02230 0.05805 0.04247 -0.17200
C 	C 	0.05166 0.06350 0.06103 0.10000
C 	C 	0.05435 0.09673 0.07961 -0.06300
C 	C 	0.02519 0.11211 0.07208 -0.06300
C 	C 	0.07900 0.04137 0.04758 -0.07600
C 	C 	0.11023 0.05682 0.03677 0.03900
C 	C 	0.16323 0.07082 0.06603 -0.03400
C 	C 	0.17344 0.07376 0.01510 0.01000
C 	C 	0.15152 0.07000 0.97513 -0.03100
C 	C 	0.11991 0.06199 0.98599 -0.05500
N 	N 	0.05167 0.98741 0.07353 -0.12800
C 	C 	0.08099 0.94893 0.02968 -0.06100
C 	C 	0.05495 0.95396 0.06107 0.08800
C 	C 	0.02915 0.92858 0.06758 -0.07600
C 	C 	0.03625 0.89148 0.06387 0.04100
C 	C 	0.05655 0.87593 0.09953 -0.05500
C 	C 	0.06375 0.84099 0.09547 -0.03200
C 	C 	0.05080 0.82141 0.05561 0.01000
C 	C 	0.03065 0.83698 0.01976 -0.03600
C 	C 	0.02328 0.87188 0.02401 -0.05800
C 	C 	0.97406 0.92045 0.10433 -0.06400
C 	C 	0.94496 0.93503 0.09334 -0.06300
C 	C 	0.83837 0.96812 0.02558 -0.03700
C 	C 	0.93837 0.06223 0.96517 -0.06000
C 	C 	0.00613 0.08759 0.04908 0.09900
C 	C 	0.09464 0.98073 0.02309 -0.06400
C 	C 	0.07617 0.00353 0.05064 0.08800
C 	C 	0.13179 0.06212 0.07681 -0.05500
H 	H 	0.99240 0.97855 0.02199 0.09200
H 	H 	0.01677 0.03950 0.01498 0.09200
H 	H 	0.07929 0.82911 0.12334 0.04100
H 	H 	0.02060 0.82201 0.98882 0.03800
H 	H 	0.06666 0.89090 0.13042 0.04700
H 	H 	0.00767 0.88373 0.99623 0.04500
H 	H 	0.86215 0.89461 0.96585 0.03800
H 	H 	0.86956 0.00636 0.05670 0.04600
H 	H 	0.81712 0.98172 0.03714 0.03800
H 	H 	0.91473 0.92021 0.98294 0.04300
H 	H 	0.98039 0.20335 0.94815 0.03800
H 	H 	0.99959 0.14376 0.95916 0.04400
C 	C 	0.93864 0.14262 0.04505 -0.05400
H 	H 	0.90754 0.18511 0.06068 0.04000
H 	H 	0.17997 0.07383 0.09713 0.04100
H 	H 	0.12443 0.05833 0.11615 0.04600
H 	H 	0.10335 0.05800 0.95487 0.04300
H 	H 	0.15926 0.07179 0.93568 0.03700
H 	H 	0.97741 0.89402 0.11605 0.04800
H 	H 	0.92251 0.92167 0.09586 0.04700
H 	H 	0.91842 0.01486 0.93402 0.04600
H 	H 	0.94410 0.07591 0.93028 0.04600
H 	H 	0.07641 0.11061 0.08403 0.04800
H 	H 	0.02143 0.13959 0.07022 0.04800
H 	H 	0.08382 0.92763 0.00344 0.04600
H 	H 	0.10983 0.98762 0.99129 0.04800
H 	H 	0.92698 0.12581 0.07226 0.04800
C 	C 	0.90510 0.30029 0.99336 -0.09000
C 	C 	0.93010 0.29282 0.02766 0.09900
C 	C 	0.94314 0.25962 0.02895 -0.09200
C 	C 	0.93113 0.23370 0.99731 0.00800
C 	C 	0.90663 0.24117 0.96255 0.03900
C 	C 	0.89373 0.27444 0.96072 -0.02100
H 	H 	0.96205 0.25380 0.05568 0.05400
H 	H 	0.87471 0.28004 0.93409 0.04900
N 	N 	0.94169 0.31876 0.06216 -0.13400
N 	N 	0.89435 0.21461 0.92979 -0.13500
C 	C 	0.92752 0.31473 0.11294 -0.09100
H 	H 	0.90125 0.31673 0.11066 0.05900
H 	H 	0.93621 0.33558 0.13830 0.06000
H 	H 	0.93426 0.28966 0.13021 0.04900
C 	C 	0.90756 0.21768 0.87819 -0.09200
H 	H 	0.90000 0.24216 0.85992 0.05000
H 	H 	0.89888 0.19602 0.85440 0.04900
H 	H 	0.93388 0.21634 0.87928 0.05300
H 	H 	0.96645 0.31777 0.06460 0.08100
H 	H 	0.86956 0.21563 0.92855 0.07700
C 	C 	0.88573 0.44296 0.78825 0.08500
C 	C 	0.86923 0.47115 0.76781 0.09300
N 	N 	0.87784 0.48416 0.72162 -0.11700
C 	C 	0.90216 0.46999 0.69463 0.05100
C 	C 	0.91786 0.44096 0.71428 -0.00000
N 	N 	0.90936 0.42809 0.76074 -0.10600
N 	N 	0.87940 0.43224 0.83669 -0.09000
N 	N 	0.84625 0.48669 0.79589 -0.11800
H 	H 	0.93764 0.42973 0.69381 0.04100
C 	C 	0.85714 0.44857 0.86566 -0.04200
C 	C 	0.83971 0.47585 0.84425 0.04000
H 	H 	0.82149 0.48873 0.86625 0.03000
C 	C 	0.92152 0.40255 0.23726 0.09200
C 	C 	0.92735 0.43221 0.20806 0.08300
N 	N 	0.91182 0.43700 0.16316 -0.09500
C 	C 	0.89058 0.41334 0.14598 -0.04100
C 	C 	0.88437 0.38389 0.17566 0.04200
N 	N 	0.90006 0.37906 0.22062 -0.11800
N 	N 	0.93765 0.39737 0.28163 -0.11600
N 	N 	0.94875 0.45573 0.22463 -0.11000
H 	H 	0.86735 0.36492 0.16295 0.03600
C 	C 	0.95950 0.42070 0.29788 0.05100
C 	C 	0.96486 0.45065 0.26903 -0.00200
H 	H 	0.98181 0.46968 0.28186 0.04000
C 	C 	0.05774 0.78439 0.05214 0.00500
C 	C 	0.03847 0.76040 0.07778 0.03500
C 	C 	0.04557 0.72521 0.07460 -0.01200
C 	C 	0.07170 0.71389 0.04603 -0.11100
C 	C 	0.09093 0.73787 0.02024 0.10600
C 	C 	0.08385 0.77309 0.02348 -0.09200
H 	H 	0.03078 0.70673 0.09451 0.03100
H 	H 	0.09861 0.79158 0.00357 0.05200
N 	N 	0.01190 0.77195 0.10781 -0.13500
N 	N 	0.11737 0.72630 0.98991 -0.14100
C 	C 	0.98215 0.76680 0.08010 -0.09000
H 	H 	0.98271 0.78035 0.04264 0.04900
H 	H 	0.96230 0.77762 0.10291 0.04600
H 	H 	0.97753 0.73898 0.07390 0.04100
C 	C 	0.10839 0.72353 0.93600 -0.09200
H 	H 	0.08816 0.70548 0.93135 0.05900
H 	H 	0.12874 0.71324 0.91380 0.05300
H 	H 	0.10196 0.74912 0.92013 0.04700
H 	H 	0.01126 0.75910 0.14301 0.07500
H 	H 	0.13672 0.74292 0.99405 0.08000
C 	C 	0.06574 0.56456 0.81929 0.08400
C 	C 	0.06915 0.59293 0.78645 0.09300
N 	N 	0.05878 0.59082 0.73732 -0.11600
C 	C 	0.04545 0.56130 0.71951 0.05100
C 	C 	0.04361 0.53242 0.75167 -0.00100
N 	N 	0.05359 0.53470 0.80102 -0.10700
N 	N 	0.07267 0.56786 0.86979 -0.09300
N 	N 	0.08076 0.62298 0.80501 -0.11700
H 	H 	0.03309 0.50876 0.73802 0.04100
C 	C 	0.08340 0.59826 0.88882 -0.04200
C 	C 	0.08822 0.62614 0.85546 0.04300
H 	H 	0.09675 0.65051 0.86991 0.03300
C 	C 	0.09235 0.55358 0.27423 0.09400
C 	C 	0.11211 0.54008 0.23585 0.08400
N 	N 	0.11338 0.55556 0.18927 -0.09200
C 	C 	0.09542 0.58387 0.17927 -0.04200
C 	C 	0.07670 0.59813 0.21841 0.04200
N 	N 	0.07550 0.58265 0.26505 -0.11600
N 	N 	0.08812 0.53591 0.31853 -0.11600
N 	N 	0.12773 0.51008 0.24416 -0.10700
H 	H 	0.06270 0.62097 0.21142 0.03400
C 	C 	0.10266 0.50508 0.32602 0.05300
C 	C 	0.12344 0.49234 0.28852 -0.00200
H 	H 	0.13511 0.46782 0.29383 0.03900
C 	C 	0.80453 0.92239 0.98772 0.00500
C 	C 	0.79243 0.92430 0.93761 0.03500
C 	C 	0.76008 0.91802 0.92882 -0.01700
C 	C 	0.73967 0.91024 0.96971 -0.10800
C 	C 	0.75226 0.90652 0.01953 0.10400
C 	C 	0.78480 0.91173 0.02785 -0.09500
H 	H 	0.75066 0.92043 0.89039 0.04300
H 	H 	0.79430 0.90959 0.06627 0.05300
N 	N 	0.81268 0.93480 0.89609 -0.13500
N 	N 	0.73168 0.89917 0.06216 -0.13500
C 	C 	0.82045 0.90563 0.86308 -0.09200
H 	H 	0.83105 0.88434 0.88572 0.05000
H 	H 	0.83813 0.91388 0.83406 0.04800
H 	H 	0.79899 0.89621 0.84276 0.04700
C 	C 	0.72474 0.93043 0.09117 -0.09100
H 	H 	0.74641 0.94010 0.11066 0.04600
H 	H 	0.70658 0.92462 0.12072 0.05800
H 	H 	0.71509 0.95076 0.06566 0.05700
H 	H 	0.80185 0.95433 0.87479 0.07500
H 	H 	0.74188 0.88060 0.08601 0.08000
C 	C 	0.60050 0.91431 0.74010 0.08500
C 	C 	0.58386 0.88339 0.73322 0.09400
N 	N 	0.56527 0.87918 0.69123 -0.11600
C 	C 	0.56301 0.90448 0.65539 0.05100
C 	C 	0.58069 0.93485 0.66149 -0.00000
N 	N 	0.59900 0.93915 0.70376 -0.10900
N 	N 	0.61605 0.92017 0.78467 -0.09600
N 	N 	0.58465 0.85896 0.77036 -0.11600
H 	H 	0.57868 0.95554 0.63398 0.04000
C 	C 	0.61608 0.89621 0.82259 -0.04000
C 	C 	0.60064 0.86464 0.81479 0.04600
H 	H 	0.60020 0.84542 0.84475 0.03500
C 	C 	0.61641 0.97890 0.19376 0.09300
C 	C 	0.59987 0.95049 0.17413 0.08400
N 	N 	0.60759 0.93779 0.12735 -0.09100
C 	C 	0.63124 0.95238 0.09922 -0.04400
C 	C 	0.64827 0.98031 0.11955 0.03900
N 	N 	0.64043 0.99304 0.16632 -0.11800
N 	N 	0.60771 0.99262 0.23939 -0.11700
N 	N 	0.57557 0.93662 0.20132 -0.10700
H 	H 	0.66743 0.99198 0.09812 0.02800
C 	C 	0.58329 0.97888 0.26660 0.05100
C 	C 	0.56695 0.95024 0.24721 -0.00100
H 	H 	0.54714 0.93935 0.26804 0.04000
C 	C 	0.20759 0.07634 0.00371 0.00200
C 	C 	0.22098 0.10768 0.98782 0.04000
C 	C 	0.25392 0.11011 0.98039 -0.01400
C 	C 	0.27352 0.08140 0.98821 -0.10500
C 	C 	0.25990 0.04984 0.00339 0.10200
C 	C 	0.22702 0.04758 0.01103 -0.09000
H 	H 	0.26424 0.13444 0.96896 0.04600
H 	H 	0.21666 0.02353 0.02365 0.05200
N 	N 	0.20121 0.13754 0.98169 -0.13400
N 	N 	0.27972 0.02054 0.01375 -0.14800
C 	C 	0.19712 0.14604 0.92752 -0.09200
H 	H 	0.21991 0.15468 0.91035 0.04800
H 	H 	0.17965 0.16722 0.92393 0.05000
H 	H 	0.18790 0.12358 0.90590 0.05100
C 	C 	0.27708 0.99504 0.97282 -0.08900
H 	H 	0.25286 0.98377 0.97175 0.04500
H 	H 	0.29432 0.97402 0.97990 0.03700
H 	H 	0.28277 0.00675 0.93507 0.05500
H 	H 	0.21092 0.15844 0.00141 0.07700
H 	H 	0.27370 0.00955 0.04903 0.07300
C 	C 	0.39734 0.03944 0.74554 0.09400
C 	C 	0.42173 0.03923 0.78215 0.08500
N 	N 	0.41675 0.05351 0.82879 -0.09300
C 	C 	0.38845 0.06837 0.84045 -0.04100
C 	C 	0.36453 0.06990 0.80306 0.04400
N 	N 	0.36940 0.05522 0.75641 -0.11500
N 	N 	0.40127 0.02234 0.70063 -0.11500
N 	N 	0.44949 0.02307 0.77171 -0.10800
H 	H 	0.34177 0.08140 0.81179 0.03700
C 	C 	0.42869 0.00504 0.69089 0.05100
C 	C 	0.45359 0.00623 0.72667 -0.00100
H 	H 	0.47598 0.99369 0.71875 0.04000
C 	C 	0.42360 0.10624 0.21654 0.09300
C 	C 	0.40274 0.07922 0.20498 0.08300
N 	N 	0.38777 0.07858 0.15902 -0.09600
C 	C 	0.39279 0.10387 0.12390 -0.04200
C 	C 	0.41253 0.13175 0.13655 0.04200
N 	N 	0.42768 0.13224 0.18249 -0.11700
N 	N 	0.44115 0.10502 0.26005 -0.11700
N 	N 	0.39943 0.05267 0.23825 -0.10900
H 	H 	0.41635 0.15246 0.10961 0.03800
C 	C 	0.43852 0.07798 0.29285 0.05100
C 	C 	0.41684 0.05150 0.28198 -0.00100
H 	H 	0.41485 0.02945 0.30705 0.04000
C 	C 	0.40044 0.22082 0.94833 -0.09300
C 	C 	0.41928 0.23071 0.99027 0.10300
C 	C 	0.42930 0.26497 0.99479 -0.08700
C 	C 	0.42084 0.28926 0.95765 0.00400
C 	C 	0.40229 0.27930 0.91541 0.04000
C 	C 	0.39216 0.24503 0.91096 -0.02000
H 	H 	0.44341 0.27271 0.02748 0.05100
H 	H 	0.37763 0.23740 0.87870 0.04000
N 	N 	0.42721 0.20609 0.02935 -0.14000
N 	N 	0.39358 0.30418 0.87714 -0.13600
C 	C 	0.46005 0.19453 0.02381 -0.09300
H 	H 	0.46407 0.18350 0.98509 0.06500
H 	H 	0.46492 0.17412 0.05245 0.05400
H 	H 	0.47686 0.21607 0.03047 0.04700
C 	C 	0.36128 0.31661 0.88581 -0.09200
H 	H 	0.34380 0.29539 0.88164 0.05000
H 	H 	0.35564 0.33675 0.85714 0.04900
H 	H 	0.35910 0.32824 0.92452 0.05300
H 	H 	0.42360 0.21663 0.06575 0.08000
H 	H 	0.39562 0.29361 0.84045 0.07700
C 	C 	0.21491 0.59631 0.00648 -0.09400
C 	C 	0.22606 0.57637 0.96510 0.10300
C 	C 	0.25849 0.56844 0.96149 -0.09000
C 	C 	0.27986 0.58059 0.99827 0.00500
C 	C 	0.26897 0.60145 0.03858 0.03800
C 	C 	0.23654 0.60939 0.04233 -0.02000
H 	H 	0.26701 0.55282 0.93001 0.05300
H 	H 	0.22817 0.62522 0.07367 0.04900
N 	N 	0.20445 0.56472 0.92617 -0.13500
N 	N 	0.29105 0.61497 0.07541 -0.13500
C 	C 	0.20486 0.58801 0.88221 -0.09100
H 	H 	0.19815 0.61446 0.89414 0.05800
H 	H 	0.18726 0.57913 0.85353 0.05700
H 	H 	0.22867 0.58838 0.86386 0.04700
C 	C 	0.28939 0.59570 0.12345 -0.09200
H 	H 	0.26586 0.59906 0.14205 0.05100
H 	H 	0.30792 0.60537 0.14996 0.05000
H 	H 	0.29391 0.56794 0.11669 0.05300
H 	H 	0.21007 0.53970 0.91463 0.08200
H 	H 	0.28658 0.64105 0.08199 0.07700
C 	C 	0.69186 0.42538 0.02916 0.00300
C 	C 	0.70868 0.43426 0.98439 0.03700
C 	C 	0.74159 0.42889 0.98203 -0.01300
C 	C 	0.75793 0.41589 0.02449 -0.11400
C 	C 	0.74107 0.40589 0.06851 0.10600
C 	C 	0.70801 0.41032 0.07042 -0.09300
H 	H 	0.75460 0.43638 0.94799 0.03900
H 	H 	0.69508 0.40310 0.10466 0.05200
N 	N 	0.69241 0.44995 0.94197 -0.13600
N 	N 	0.75771 0.39177 0.11175 -0.14200
C 	C 	0.69607 0.48731 0.94319 -0.09100
H 	H 	0.68668 0.49794 0.97968 0.05100
H 	H 	0.68231 0.49882 0.91128 0.04700
H 	H 	0.72139 0.49471 0.93855 0.04400
C 	C 	0.75627 0.35423 0.11105 -0.09100
H 	H 	0.73135 0.34514 0.11461 0.04700
H 	H 	0.77007 0.34392 0.14381 0.05200
H 	H 	0.76694 0.34405 0.07519 0.05800
H 	H 	0.70080 0.44011 0.90722 0.07700
H 	H 	0.74834 0.40125 0.14606 0.07800
C 	C 	0.56322 0.73032 0.00511 0.00000
C 	C 	0.54643 0.76002 0.01956 0.04100
C 	C 	0.56054 0.79248 0.01353 -0.02300
C 	C 	0.59137 0.79539 0.99384 -0.09100
C 	C 	0.60787 0.76566 0.97831 0.10100
C 	C 	0.59375 0.73326 0.98436 -0.08600
H 	H 	0.54767 0.81534 0.02497 0.04600
H 	H 	0.60652 0.71038 0.97271 0.05200
N 	N 	0.51502 0.75710 0.04074 -0.13600
N 	N 	0.63877 0.76854 0.95521 -0.13700
C 	C 	0.51600 0.75920 0.09662 -0.09200
H 	H 	0.53136 0.73861 0.11262 0.05300
H 	H 	0.49171 0.75554 0.11208 0.04900
H 	H 	0.52483 0.78475 0.10925 0.05000
C 	C 	0.63634 0.76761 0.89937 -0.09200
H 	H 	0.62681 0.74247 0.88622 0.04800
H 	H 	0.66028 0.77120 0.88247 0.05300
H 	H 	0.62090 0.78876 0.88536 0.05900
H 	H 	0.50020 0.77622 0.02587 0.07600
H 	H 	0.65372 0.74893 0.96822 0.08000
