data_crystal

_cell_length_a 18.14422
_cell_length_b 16.19465
_cell_length_c 37.89746
_cell_angle_alpha 90.94558
_cell_angle_beta  91.38469
_cell_angle_gamma 111.28357

_symmetry_space_group_name_	'P 1'
_symmetry_space_group_name_H-M	'P 1'

loop_
_symmetry_equiv_pos_as_xyz
  x,y,z

loop_
_atom_site_label
_atom_site_type_symbol
_atom_site_fract_x
_atom_site_fract_y
_atom_site_fract_z
_atom_site_charge
Ni	Ni	0.73470 0.32837 0.89438 1.10000
O 	O 	0.63431 0.23973 0.87099 -0.70600
Ni	Ni	0.55253 0.25749 0.90096 1.10300
O 	O 	0.80101 0.29524 0.85815 -0.36100
O 	O 	0.74937 0.14888 0.87305 -0.39100
O 	O 	0.71661 0.41545 0.85991 -0.39200
Ni	Ni	0.62585 0.11718 0.87045 1.07200
O 	O 	0.78019 0.46392 0.96509 -0.39600
O 	O 	0.62176 0.10627 0.92395 -0.39700
O 	O 	0.45740 0.17800 0.87144 -0.36800
O 	O 	0.65412 0.32999 0.92893 -0.70200
O 	O 	0.83470 0.42598 0.91546 -0.36500
O 	O 	0.48237 0.31175 0.92725 -0.35700
O 	O 	0.57036 0.45066 0.91728 -0.39800
Ni	Ni	0.67575 0.45455 0.94119 1.07600
H 	H 	0.62687 0.25656 0.84654 0.16400
H 	H 	0.66071 0.29845 0.95023 0.16500
C 	C 	0.55629 0.09816 0.93995 0.29000
O 	O 	0.73918 0.52735 0.90087 -0.38300
C 	C 	0.80125 0.21433 0.85575 0.27300
C 	C 	0.45416 0.10125 0.85712 0.27600
C 	C 	0.73382 0.49946 0.86785 0.30700
C 	C 	0.50202 0.39830 0.92893 0.26900
C 	C 	0.84214 0.46272 0.94750 0.28500
O 	O 	0.52649 0.16083 0.93830 -0.35800
O 	O 	0.50395 0.06227 0.86765 -0.39300
Ni	Ni	0.59752 0.31580 0.52499 1.10200
O 	O 	0.69851 0.33111 0.49845 -0.70100
Ni	Ni	0.77055 0.32179 0.53782 1.10100
O 	O 	0.55273 0.37522 0.48732 -0.36600
O 	O 	0.66718 0.49656 0.48729 -0.39400
O 	O 	0.53742 0.19708 0.49840 -0.35700
Ni	Ni	0.74969 0.44058 0.47345 1.07500
O 	O 	0.50094 0.15268 0.56722 -0.39800
O 	O 	0.83097 0.52867 0.50789 -0.38300
O 	O 	0.87950 0.36149 0.51443 -0.35700
O 	O 	0.66452 0.28907 0.56212 -0.70400
O 	O 	0.49905 0.29018 0.55435 -0.36200
O 	O 	0.81780 0.28686 0.58220 -0.35700
O 	O 	0.72444 0.14724 0.57786 -0.40000
Ni	Ni	0.61648 0.16336 0.57152 1.07200
H 	H 	0.68925 0.28055 0.48170 0.16300
H 	H 	0.66829 0.32557 0.58379 0.16400
C 	C 	0.84207 0.51929 0.54183 0.30100
O 	O 	0.61328 0.12300 0.52021 -0.40200
C 	C 	0.59133 0.45774 0.47896 0.26800
C 	C 	0.89520 0.40226 0.48392 0.29300
C 	C 	0.55866 0.12774 0.49795 0.28800
C 	C 	0.78627 0.20620 0.59440 0.27500
C 	C 	0.47402 0.21739 0.57324 0.27200
O 	O 	0.79788 0.44804 0.55822 -0.38900
O 	O 	0.83801 0.39769 0.46077 -0.39900
Ni	Ni	0.99844 0.94849 0.75719 1.09600
O 	O 	0.00161 0.86629 0.71684 -0.71100
Ni	Ni	0.06516 0.95298 0.68233 1.10000
O 	O 	0.93117 0.84307 0.78574 -0.35300
O 	O 	0.83590 0.79615 0.74180 -0.40100
O 	O 	0.09709 0.93748 0.78247 -0.35600
Ni	Ni	0.89563 0.80872 0.69477 1.06800
O 	O 	0.11001 0.13407 0.79037 -0.40100
O 	O 	0.87403 0.92303 0.68475 -0.39600
O 	O 	0.06769 0.85933 0.64607 -0.35400
O 	O 	0.05013 0.03877 0.71991 -0.69000
O 	O 	0.98854 0.02842 0.79655 -0.37200
O 	O 	0.14362 0.05050 0.65366 -0.35000
O 	O 	0.20668 0.16452 0.69288 -0.38400
Ni	Ni	0.14673 0.12991 0.73991 1.07500
H 	H 	0.02648 0.82335 0.72357 0.17600
H 	H 	0.01357 0.06825 0.71236 0.16300
C 	C 	0.91846 0.98095 0.66283 0.27800
O 	O 	0.19136 0.03421 0.74844 -0.41600
C 	C 	0.86657 0.78277 0.77199 0.28100
C 	C 	0.00005 0.79539 0.63607 0.28300
C 	C 	0.17208 0.98364 0.77591 0.28300
C 	C 	0.20929 0.11115 0.66661 0.28700
C 	C 	0.03478 0.11146 0.79790 0.29000
O 	O 	0.97995 0.96897 0.65035 -0.36800
O 	O 	0.93152 0.80099 0.64460 -0.39700
Ni	Ni	0.22732 0.67755 0.40485 1.10200
O 	O 	0.32717 0.73986 0.37748 -0.70500
Ni	Ni	0.41011 0.72536 0.40934 1.10400
O 	O 	0.16082 0.70268 0.36544 -0.36000
O 	O 	0.23081 0.85239 0.37054 -0.39400
O 	O 	0.22271 0.56746 0.37636 -0.38400
Ni	Ni	0.35044 0.86463 0.36983 1.07000
O 	O 	0.18271 0.57096 0.47930 -0.39600
O 	O 	0.36342 0.89929 0.42242 -0.39900
O 	O 	0.50238 0.77739 0.37675 -0.35900
O 	O 	0.31235 0.68048 0.43997 -0.70200
O 	O 	0.12456 0.60655 0.42979 -0.36300
O 	O 	0.47723 0.67480 0.44026 -0.36000
O 	O 	0.37805 0.53925 0.43811 -0.40100
Ni	Ni	0.28291 0.56228 0.45958 1.07500
H 	H 	0.32608 0.70927 0.35453 0.17100
H 	H 	0.31540 0.72418 0.45906 0.16300
C 	C 	0.42762 0.90490 0.44064 0.29400
O 	O 	0.21063 0.47482 0.42268 -0.38700
C 	C 	0.17094 0.78401 0.35659 0.27400
C 	C 	0.51021 0.84800 0.35772 0.27300
C 	C 	0.20601 0.48761 0.38868 0.30400
C 	C 	0.45126 0.58981 0.44674 0.27000
C 	C 	0.11959 0.56093 0.45890 0.28900
O 	O 	0.45616 0.84114 0.43912 -0.36200
O 	O 	0.47131 0.90139 0.36566 -0.39400
Ni	Ni	0.37832 0.68691 0.01338 1.10100
O 	O 	0.26931 0.66180 0.99035 -0.70300
Ni	Ni	0.20971 0.68319 0.03121 1.10100
O 	O 	0.41170 0.61453 0.97663 -0.36500
O 	O 	0.29913 0.49303 0.98287 -0.39400
O 	O 	0.42940 0.79556 0.98210 -0.35600
Ni	Ni	0.21129 0.54356 0.97051 1.07500
O 	O 	0.48674 0.86242 0.05057 -0.39400
O 	O 	0.14031 0.47324 0.00980 -0.38500
O 	O 	0.09379 0.63060 0.01177 -0.35700
O 	O 	0.32354 0.72734 0.05134 -0.70000
O 	O 	0.48469 0.72149 0.03947 -0.36800
O 	O 	0.17526 0.73568 0.07475 -0.35200
O 	O 	0.26574 0.87252 0.06345 -0.39100
Ni	Ni	0.37282 0.85570 0.05668 1.07700
H 	H 	0.27230 0.70608 0.97221 0.16700
H 	H 	0.32777 0.69892 0.07384 0.16600
C 	C 	0.15349 0.48794 0.04404 0.29900
O 	O 	0.36108 0.87596 0.00465 -0.40600
C 	C 	0.37133 0.52963 0.97117 0.26800
C 	C 	0.07137 0.59192 0.98009 0.29900
C 	C 	0.41309 0.86828 0.98296 0.29700
C 	C 	0.21093 0.82050 0.08359 0.27200
C 	C 	0.51209 0.79727 0.05782 0.27900
O 	O 	0.19474 0.56779 0.05718 -0.38400
O 	O 	0.12329 0.58700 0.95708 -0.40100
Ni	Ni	0.95386 0.03131 0.25825 1.09600
O 	O 	0.97352 0.12170 0.21947 -0.71700
Ni	Ni	0.93048 0.04375 0.17712 1.09800
O 	O 	0.00368 0.13203 0.29460 -0.35200
O 	O 	0.11853 0.17394 0.26480 -0.39600
O 	O 	0.84245 0.03013 0.27014 -0.35800
Ni	Ni	0.08701 0.17892 0.21183 1.07500
O 	O 	0.85561 0.81706 0.27119 -0.38600
O 	O 	0.10989 0.06486 0.20236 -0.40000
O 	O 	0.94655 0.14458 0.14283 -0.36500
O 	O 	0.92656 0.95039 0.21444 -0.68800
O 	O 	0.94189 0.94400 0.29679 -0.37300
O 	O 	0.85936 0.95605 0.13998 -0.35500
O 	O 	0.78913 0.83056 0.16818 -0.36700
Ni	Ni	0.83134 0.84409 0.22032 1.08400
H 	H 	0.94705 0.16481 0.22312 0.17100
H 	H 	0.97073 0.92906 0.21229 0.15000
C 	C 	0.08350 0.01722 0.17315 0.29000
O 	O 	0.76675 0.91889 0.23273 -0.39800
C 	C 	0.07631 0.18769 0.29047 0.27700
C 	C 	0.01765 0.20848 0.14173 0.28100
C 	C 	0.77685 0.96054 0.26332 0.28800
C 	C 	0.79094 0.89633 0.14797 0.28000
C 	C 	0.92276 0.86014 0.28876 0.27700
O 	O 	0.02563 0.02669 0.15457 -0.35600
O 	O 	0.07941 0.20049 0.15890 -0.38800
C 	C 	0.03472 0.27140 0.11236 -0.05500
C 	C 	0.07802 0.25853 0.08374 0.00600
C 	C 	0.12075 0.33064 0.06288 0.00400
C 	C 	0.11399 0.41422 0.06827 -0.06100
C 	C 	0.06329 0.42427 0.09449 0.00500
C 	C 	0.02488 0.35331 0.11687 0.00400
C 	C 	0.08022 0.17125 0.07639 0.10600
C 	C 	0.04898 0.50638 0.09795 0.09800
C 	C 	0.97627 0.36508 0.14489 0.07200
C 	C 	0.17389 0.31953 0.03681 0.08900
N 	N 	0.93749 0.37444 0.16726 -0.11000
N 	N 	0.21621 0.31033 0.01604 -0.10200
N 	N 	0.03728 0.57174 0.10084 -0.09400
N 	N 	0.08197 0.10161 0.07058 -0.09300
C 	C 	0.72306 0.88073 0.12328 -0.05800
C 	C 	0.72474 0.84844 0.08854 0.00500
C 	C 	0.65533 0.81996 0.06689 0.00700
C 	C 	0.58310 0.81725 0.08091 -0.06600
C 	C 	0.58116 0.84507 0.11614 0.00300
C 	C 	0.65199 0.88423 0.13605 -0.00100
C 	C 	0.79735 0.84314 0.07533 0.10500
C 	C 	0.50588 0.82945 0.13237 0.06000
C 	C 	0.65251 0.93301 0.16851 0.07900
C 	C 	0.65850 0.79491 0.03019 0.09900
N 	N 	0.65223 0.97231 0.19426 -0.10600
N 	N 	0.66102 0.77493 0.00091 -0.10400
N 	N 	0.44577 0.81655 0.14536 -0.12400
N 	N 	0.85529 0.83892 0.06484 -0.09600
C 	C 	0.11830 0.95238 0.16056 -0.07000
C 	C 	0.06831 0.87334 0.14325 0.01400
C 	C 	0.09708 0.83546 0.11590 0.00500
C 	C 	0.17938 0.86102 0.11209 -0.05600
C 	C 	0.23160 0.92962 0.13443 0.00100
C 	C 	0.20098 0.97786 0.15755 0.00600
C 	C 	0.98828 0.82903 0.15433 0.07800
C 	C 	0.31641 0.95171 0.13317 0.06700
C 	C 	0.25440 0.05410 0.17751 0.09300
C 	C 	0.04198 0.77826 0.08953 0.11800
N 	N 	0.29713 0.11495 0.19343 -0.11100
N 	N 	0.99788 0.73292 0.06847 -0.09900
N 	N 	0.38415 0.96977 0.13214 -0.13300
N 	N 	0.92420 0.79185 0.16286 -0.13100
C 	C 	0.71017 0.93304 0.28871 -0.05700
C 	C 	0.69585 0.99576 0.31144 0.00500
C 	C 	0.63291 0.96750 0.33525 0.00000
C 	C 	0.57759 0.87912 0.33318 -0.05600
C 	C 	0.58924 0.81818 0.30905 0.00100
C 	C 	0.65771 0.84305 0.28886 0.00700
C 	C 	0.74307 0.08938 0.30949 0.10100
C 	C 	0.53065 0.72915 0.30493 0.08500
C 	C 	0.67422 0.77520 0.26861 0.07900
C 	C 	0.62765 0.02820 0.36279 0.10100
N 	N 	0.68655 0.72057 0.25246 -0.13500
N 	N 	0.62354 0.07665 0.38478 -0.11000
N 	N 	0.48428 0.65799 0.30159 -0.10800
N 	N 	0.78065 0.16417 0.30799 -0.10500
C 	C 	0.11250 0.26289 0.31588 -0.06400
C 	C 	0.15976 0.34691 0.30368 0.00300
C 	C 	0.19698 0.41717 0.32799 0.00400
C 	C 	0.17489 0.40936 0.36378 -0.06100
C 	C 	0.12157 0.32672 0.37529 0.00400
C 	C 	0.09784 0.25206 0.35224 0.00800
C 	C 	0.16700 0.36246 0.26608 0.06300
C 	C 	0.08641 0.31951 0.40963 0.10200
C 	C 	0.06135 0.16407 0.36621 0.10200
C 	C 	0.25920 0.49606 0.31623 0.09500
N 	N 	0.03231 0.09389 0.37735 -0.09400
N 	N 	0.30859 0.55900 0.30667 -0.11300
N 	N 	0.05816 0.31332 0.43698 -0.09900
N 	N 	0.17273 0.37495 0.23611 -0.14300
C 	C 	0.10312 0.79910 0.33936 -0.06000
C 	C 	0.05066 0.82439 0.36005 0.00800
C 	C 	0.98017 0.82711 0.34452 0.00500
C 	C 	0.96486 0.81091 0.30791 -0.07100
C 	C 	0.01055 0.77290 0.28875 0.00600
C 	C 	0.08163 0.77070 0.30388 -0.00100
C 	C 	0.06875 0.84656 0.39730 0.09500
C 	C 	0.98331 0.73388 0.25398 0.06000
C 	C 	0.13292 0.73995 0.28292 0.08100
C 	C 	0.92383 0.84801 0.36596 0.10400
N 	N 	0.17386 0.71539 0.26622 -0.11100
N 	N 	0.87883 0.86473 0.38305 -0.09800
N 	N 	0.96150 0.70200 0.22630 -0.11500
N 	N 	0.08318 0.86423 0.42701 -0.10200
C 	C 	0.51143 0.05020 0.47749 -0.02400
C 	C 	0.47148 0.98456 0.46066 -0.03700
C 	C 	0.97587 0.45607 0.47649 -0.03800
C 	C 	0.04237 0.50351 0.46950 -0.01500
C 	C 	0.54712 0.50994 0.46734 -0.03500
C 	C 	0.50556 0.54920 0.45786 -0.03700
C 	C 	0.83493 0.17339 0.61765 -0.06000
C 	C 	0.80615 0.13712 0.65039 0.00100
C 	C 	0.83918 0.08123 0.66751 0.00200
C 	C 	0.89787 0.05780 0.65063 -0.06200
C 	C 	0.93559 0.10740 0.62104 -0.00500
C 	C 	0.90300 0.16362 0.60444 0.01100
C 	C 	0.74245 0.15706 0.66630 0.07000
C 	C 	0.00898 0.10365 0.60813 0.11600
C 	C 	0.93735 0.20794 0.57247 0.09800
C 	C 	0.81833 0.05525 0.70344 0.08600
N 	N 	0.96489 0.24304 0.54701 -0.09600
N 	N 	0.80175 0.03471 0.73215 -0.11200
N 	N 	0.06737 0.10177 0.59721 -0.08900
N 	N 	0.69161 0.17299 0.67900 -0.12100
C 	C 	0.27813 0.14170 0.64280 -0.05800
C 	C 	0.32208 0.23352 0.63813 0.00400
C 	C 	0.38730 0.25939 0.61564 -0.00500
C 	C 	0.39958 0.19572 0.59296 -0.05600
C 	C 	0.34624 0.10698 0.59345 -0.00300
C 	C 	0.29492 0.07871 0.62156 0.01200
C 	C 	0.29755 0.30098 0.65411 0.09600
C 	C 	0.34049 0.04648 0.56398 0.11100
C 	C 	0.26425 0.98568 0.63009 0.07900
C 	C 	0.44176 0.35074 0.61631 0.08500
N 	N 	0.24029 0.91135 0.63685 -0.10200
N 	N 	0.48520 0.42369 0.61687 -0.11500
N 	N 	0.33587 0.99820 0.54044 -0.10900
N 	N 	0.27815 0.35508 0.66677 -0.11000
C 	C 	0.99841 0.73808 0.60538 -0.05800
C 	C 	0.99782 0.65224 0.61107 -0.01300
C 	C 	0.95123 0.58097 0.58854 0.00700
C 	C 	0.90029 0.59527 0.56239 -0.06600
C 	C 	0.90947 0.68362 0.55430 0.00500
C 	C 	0.96596 0.75446 0.57347 0.00500
C 	C 	0.04230 0.63679 0.64083 0.08800
C 	C 	0.85671 0.70156 0.52875 0.09600
C 	C 	0.98462 0.84483 0.56244 0.10400
C 	C 	0.96132 0.49643 0.59017 0.08900
N 	N 	0.99949 0.91696 0.55358 -0.09600
N 	N 	0.97037 0.42943 0.59159 -0.09500
N 	N 	0.81465 0.71605 0.50840 -0.10300
N 	N 	0.07784 0.62452 0.66463 -0.10700
C 	C 	0.92054 0.51102 0.96160 -0.02500
C 	C 	0.98856 0.54979 0.97109 -0.03700
C 	C 	0.50946 0.01480 0.95466 -0.02600
C 	C 	0.46608 0.94670 0.96700 -0.04000
C 	C 	0.44957 0.43659 0.94383 -0.03900
C 	C 	0.41064 0.47540 0.95641 -0.03400
C 	C 	0.87216 0.20251 0.84146 -0.05900
C 	C 	0.92814 0.18718 0.86445 0.00800
C 	C 	0.99553 0.17603 0.85050 -0.00500
C 	C 	0.00469 0.17602 0.81374 -0.05900
C 	C 	0.95807 0.20896 0.79212 -0.00700
C 	C 	0.88966 0.21855 0.80552 0.00700
C 	C 	0.91716 0.18438 0.90224 0.08900
C 	C 	0.97754 0.22687 0.75546 0.05700
C 	C 	0.83633 0.24229 0.78222 0.08700
C 	C 	0.05407 0.16170 0.87374 0.10700
N 	N 	0.79378 0.26121 0.76362 -0.10900
N 	N 	0.10091 0.15045 0.89233 -0.10000
N 	N 	0.99307 0.24117 0.72619 -0.12800
N 	N 	0.90840 0.18220 0.93241 -0.10700
C 	C 	0.37930 0.04529 0.83888 -0.06300
C 	C 	0.37927 0.01552 0.80372 0.00500
C 	C 	0.30701 0.97790 0.78435 -0.00500
C 	C 	0.23614 0.97679 0.79929 -0.06000
C 	C 	0.23493 0.99155 0.83606 -0.00700
C 	C 	0.30678 0.02511 0.85597 0.01300
C 	C 	0.45333 0.02619 0.78721 0.07000
C 	C 	0.16035 0.97334 0.85323 0.10500
C 	C 	0.30625 0.03774 0.89394 0.10100
C 	C 	0.30533 0.94102 0.74910 0.08700
N 	N 	0.30593 0.04780 0.92423 -0.09500
N 	N 	0.30397 0.91158 0.72095 -0.11000
N 	N 	0.10077 0.95861 0.86694 -0.09300
N 	N 	0.51245 0.03474 0.77404 -0.12100
C 	C 	0.76234 0.56520 0.83996 -0.06500
C 	C 	0.83309 0.57455 0.82279 0.00800
C 	C 	0.86307 0.64123 0.79795 0.00200
C 	C 	0.82557 0.70236 0.79189 -0.06800
C 	C 	0.75325 0.69107 0.80789 0.00500
C 	C 	0.72109 0.62170 0.83158 0.00400
C 	C 	0.87724 0.51867 0.83199 0.09600
C 	C 	0.71297 0.75194 0.80062 0.09300
C 	C 	0.64563 0.60836 0.84727 0.08400
C 	C 	0.93288 0.64730 0.77863 0.07100
N 	N 	0.58541 0.59780 0.85977 -0.10500
N 	N 	0.98854 0.65214 0.76322 -0.11900
N 	N 	0.68086 0.80053 0.79483 -0.10800
N 	N 	0.91295 0.47456 0.83922 -0.09800
