data_crystal

_cell_length_a 18.97415
_cell_length_b 21.17360
_cell_length_c 29.76819
_cell_angle_alpha 60.83450
_cell_angle_beta  118.88543
_cell_angle_gamma 133.19270

_symmetry_space_group_name_	'P 1'
_symmetry_space_group_name_H-M	'P 1'

loop_
_symmetry_equiv_pos_as_xyz
  x,y,z

loop_
_atom_site_label
_atom_site_type_symbol
_atom_site_fract_x
_atom_site_fract_y
_atom_site_fract_z
_atom_site_charge
O 	O 	0.02394 0.98282 0.10082 -0.53500
C 	C 	0.01912 0.01105 0.43919 0.21700
F 	F 	0.08086 0.26528 0.79223 -0.39800
Co	Co	0.05382 0.87891 0.13783 1.19600
Co	Co	0.04114 0.10557 0.09098 1.18400
O 	O 	0.05792 0.12384 0.72093 -0.34100
C 	C 	0.07651 0.22533 0.76455 0.76600
O 	O 	0.13198 0.07000 0.99102 -0.35000
O 	O 	0.01750 0.99191 0.22857 -0.28300
C 	C 	0.10246 0.01367 0.92358 -0.12800
F 	F 	0.03652 0.47107 0.59204 -0.47100
C 	C 	0.01402 0.04067 0.28839 -0.02700
C 	C 	0.06996 0.35168 0.99891 0.77300
Co	Co	0.03722 0.01267 0.54806 1.16800
C 	C 	0.10393 0.03996 0.38156 0.02700
C 	C 	0.07916 0.02284 0.33363 -0.01300
F 	F 	0.02872 0.63377 0.26021 -0.36800
F 	F 	0.10807 0.31588 0.04837 -0.45100
O 	O 	0.03664 0.05694 0.46649 -0.33600
C 	C 	0.04939 0.05647 0.38812 -0.05200
F 	F 	0.12772 0.18818 0.79936 -0.42000
F 	F 	0.00077 0.39989 0.18107 -0.42600
F 	F 	0.12948 0.44339 0.99167 -0.37600
O 	O 	0.12137 0.95312 0.09190 -0.73000
O 	O 	0.08443 0.12756 0.55681 -0.41400
C 	C 	0.03088 0.76779 0.63837 0.27500
O 	O 	0.02490 0.81539 0.65127 -0.32100
C 	C 	0.10459 0.00257 0.84548 -0.07000
C 	C 	0.18720 0.04314 0.42347 0.11500
N 	N 	0.25446 0.04633 0.45662 -0.06500
H 	H 	0.08425 0.37698 0.70447 0.11000
C 	C 	0.15570 0.03808 0.97605 0.33700
C 	C 	0.11923 0.98564 0.33189 0.25000
C 	C 	0.12260 0.19376 0.69298 0.29800
C 	C 	0.12249 0.29356 0.71723 -0.08000
C 	C 	0.02500 0.62944 0.68675 -0.09200
H 	H 	0.06726 0.34825 0.10516 0.10300
H 	H 	0.02790 0.52825 0.68812 0.12400
O 	O 	0.15776 0.15925 0.06473 -0.39200
C 	C 	0.15568 0.03181 0.89285 0.09300
N 	N 	0.15147 0.95592 0.33074 -0.03600
Co	Co	0.15874 0.05957 0.07096 1.17500
C 	C 	0.06315 0.20121 0.15147 0.27000
O 	O 	0.13165 0.18466 0.65495 -0.33600
C 	C 	0.05334 0.42701 0.14792 0.76600
F 	F 	0.07405 0.33494 0.96103 -0.38800
O 	O 	0.10870 0.18022 0.14452 -0.29100
O 	O 	0.13016 0.94279 0.53711 -0.38300
C 	C 	0.13481 0.37450 0.69910 0.03200
C 	C 	0.07897 0.72276 0.67840 0.03200
C 	C 	0.10030 0.34072 0.14725 0.08600
C 	C 	0.07201 0.59617 0.69087 0.04100
F 	F 	0.14899 0.74460 0.30248 -0.37900
O 	O 	0.16147 0.81282 0.14295 -0.32800
C 	C 	0.16682 0.28383 0.69582 0.00400
C 	C 	0.12157 0.27730 0.17491 0.04200
C 	C 	0.10856 0.38505 0.17455 -0.10000
Co	Co	0.18914 0.91971 0.07748 1.20500
C 	C 	0.16101 0.02737 0.81285 0.17000
H 	H 	0.14253 0.49174 0.24239 0.13500
O 	O 	0.22056 0.02085 0.00883 -0.40500
O 	O 	0.16699 0.86704 0.19487 -0.30100
O 	O 	0.15938 0.01082 0.59101 -0.38400
C 	C 	0.12330 0.67282 0.29261 0.78200
F 	F 	0.11951 0.51908 0.13577 -0.38700
C 	C 	0.18545 0.82141 0.18971 0.32200
C 	C 	0.18284 0.97508 0.57959 0.33900
H 	H 	0.18607 0.51489 0.72550 0.11700
C 	C 	0.17298 0.65367 0.69132 0.08600
C 	C 	0.16796 0.27023 0.22960 -0.10300
C 	C 	0.15987 0.38151 0.22835 0.08400
F 	F 	0.19632 0.16667 0.24415 -0.45300
O 	O 	0.04605 0.83717 0.03899 -0.37500
C 	C 	0.26248 0.07751 0.91073 0.14700
N 	N 	0.20627 0.04734 0.78688 -0.05700
C 	C 	0.20620 0.55902 0.68798 -0.02900
C 	C 	0.21652 0.45297 0.67788 0.09300
C 	C 	0.18303 0.77410 0.69211 0.06500
C 	C 	0.17068 0.31146 0.25673 0.01100
H 	H 	0.17258 0.57507 0.29559 0.11100
C 	C 	0.20851 0.63646 0.66649 0.07000
C 	C 	0.22974 0.53951 0.65980 0.09200
C 	C 	0.24724 0.36165 0.67305 0.08300
C 	C 	0.19606 0.70321 0.26615 -0.04900
F 	F 	0.12320 0.61121 0.34039 -0.38100
C 	C 	0.21808 0.51885 0.24680 -0.02200
H 	H 	0.22624 0.84318 0.69181 0.11800
H 	H 	0.20102 0.30249 0.29912 0.08700
C 	C 	0.21154 0.64275 0.27154 0.04700
F 	F 	0.23389 0.96379 0.69295 -0.40000
C 	C 	0.23106 0.73842 0.70109 -0.11900
C 	C 	0.24549 0.79051 0.23342 0.04000
C 	C 	0.24039 0.69531 0.61932 -0.03200
C 	C 	0.25888 0.60061 0.61228 -0.02800
C 	C 	0.23906 0.24473 0.25436 0.78500
C 	C 	0.23905 0.46648 0.24604 0.08200
Co	Co	0.01026 0.09786 0.60400 1.17700
H 	H 	0.26421 0.92409 0.56176 0.07800
H 	H 	0.24499 0.75605 0.60286 0.12600
H 	H 	0.26974 0.58527 0.58745 0.15300
C 	C 	0.28108 0.44645 0.67134 -0.11400
F 	F 	0.26874 0.23254 0.30876 -0.43800
H 	H 	0.01399 0.36055 0.57410 0.06100
H 	H 	0.28771 0.35664 0.66036 0.10700
O 	O 	0.30360 0.10568 0.11382 -0.34900
C 	C 	0.27674 0.67032 0.24501 0.09400
F 	F 	0.31906 0.71937 0.14984 -0.38000
C 	C 	0.28287 0.99365 0.60486 0.00400
F 	F 	0.03523 0.63138 0.16839 -0.42700
C 	C 	0.29684 0.60781 0.25251 0.08500
C 	C 	0.29012 0.68709 0.60225 0.10300
O 	O 	0.32471 0.00702 0.11966 -0.34900
C 	C 	0.33006 0.82200 0.22274 0.07100
F 	F 	0.30593 0.79921 0.49921 -0.37000
F 	F 	0.32253 0.31258 0.23379 -0.38500
F 	F 	0.31203 0.59567 0.14316 -0.37600
C 	C 	0.33099 0.76134 0.21617 -0.10400
C 	C 	0.31708 0.97770 0.58178 0.14000
C 	C 	0.32309 0.04415 0.68222 0.75100
F 	F 	0.31454 0.11322 0.66303 -0.40800
N 	N 	0.34758 0.11315 0.92499 -0.02400
C 	C 	0.33814 0.50190 0.25438 -0.03800
C 	C 	0.35570 0.08944 0.10938 0.31700
F 	F 	0.34683 0.71796 0.50372 -0.38800
C 	C 	0.34274 0.79049 0.72081 0.78800
F 	F 	0.36030 0.85522 0.13037 -0.41400
H 	H 	0.35579 0.46230 0.25510 0.13100
F 	F 	0.35390 0.50829 0.15887 -0.40500
C 	C 	0.37078 0.79008 0.17090 0.78700
C 	C 	0.35329 0.04677 0.64224 -0.08800
H 	H 	0.36411 0.21065 0.01752 0.07400
H 	H 	0.37872 0.89254 0.20549 0.14500
F 	F 	0.36976 0.73278 0.75243 -0.38600
F 	F 	0.37678 0.94969 0.53027 -0.36600
C 	C 	0.99500 0.08505 0.34249 0.04600
O 	O 	0.99000 0.84924 0.19065 -0.34600
H 	H 	0.99445 0.42045 0.00652 0.12200
C 	C 	0.98008 0.08034 0.29236 0.03700
C 	C 	0.95289 0.11787 0.34708 0.13800
O 	O 	0.98612 0.75230 0.59115 -0.33200
N 	N 	0.91927 0.14414 0.35073 -0.04000
F 	F 	0.98556 0.40120 0.10155 -0.43700
O 	O 	0.97015 0.17102 0.12639 -0.35200
C 	C 	0.97373 0.01204 0.23831 0.27500
C 	C 	0.93217 0.11814 0.24526 0.11600
C 	C 	0.91456 0.56780 0.68142 0.80900
N 	N 	0.89379 0.14841 0.20790 -0.07400
F 	F 	0.88849 0.48680 0.71815 -0.35100
Co	Co	0.97696 0.84511 0.52200 1.19000
O 	O 	0.95567 0.92445 0.44956 -0.26200
O 	O 	0.95898 0.90058 0.55467 -0.71300
C 	C 	0.94462 0.93772 0.77438 0.28800
F 	F 	0.97766 0.15904 0.74777 -0.47200
F 	F 	0.86880 0.55385 0.63120 -0.42400
F 	F 	0.88267 0.60304 0.68953 -0.40800
F 	F 	0.55967 0.58134 0.40488 -0.42900
F 	F 	0.72358 0.69175 0.41568 -0.39400
F 	F 	0.62700 0.68463 0.44414 -0.40200
C 	C 	0.80293 0.36672 0.98060 0.07700
C 	C 	0.71243 0.30310 0.99632 0.00400
C 	C 	0.67265 0.33015 0.00625 0.06900
C 	C 	0.72536 0.41968 0.00345 -0.03200
C 	C 	0.82085 0.48168 0.99487 0.10300
C 	C 	0.85934 0.45634 0.98182 -0.00900
H 	H 	0.67495 0.23251 0.00271 0.09400
H 	H 	0.69708 0.43933 0.01448 0.12500
H 	H 	0.93230 0.50537 0.97332 0.13600
C 	C 	0.71176 0.29926 0.54700 0.07500
C 	C 	0.70701 0.37157 0.53042 -0.01800
C 	C 	0.63407 0.35880 0.54253 0.07500
C 	C 	0.55350 0.27133 0.55845 -0.02900
C 	C 	0.56076 0.20017 0.57799 0.07200
C 	C 	0.64526 0.21701 0.57660 -0.01600
H 	H 	0.75775 0.43591 0.50804 0.13400
H 	H 	0.48798 0.25920 0.55844 0.10800
H 	H 	0.65750 0.16573 0.59654 0.12900
C 	C 	0.39463 0.64052 0.25947 -0.02600
C 	C 	0.41123 0.59239 0.25134 0.08600
H 	H 	0.45664 0.70567 0.26745 0.13000
Co	Co	0.95613 0.93599 0.16535 1.21900
Co	Co	0.85519 0.03781 0.12594 1.16600
C 	C 	0.97753 0.76587 0.06556 0.31400
O 	O 	0.82131 0.07723 0.04411 -0.35000
O 	O 	0.94548 0.01808 0.12043 -0.76300
C 	C 	0.89199 0.14851 0.01888 0.28200
C 	C 	0.74409 0.84220 0.16026 0.30300
O 	O 	0.96485 0.15032 0.02147 -0.28200
O 	O 	0.73500 0.90672 0.12628 -0.31500
O 	O 	0.80603 0.83571 0.15786 -0.30100
O 	O 	0.88674 0.99546 0.20834 -0.29400
O 	O 	0.96074 0.77051 0.10264 -0.28000
Co	Co	0.89521 0.91777 0.66888 1.21300
Co	Co	0.91315 0.83470 0.60925 1.20100
Co	Co	0.91005 0.06492 0.68468 1.20400
C 	C 	0.77580 0.69537 0.54294 0.30600
O 	O 	0.94727 0.18334 0.62689 -0.35200
O 	O 	0.93393 0.02330 0.64617 -0.77500
C 	C 	0.91755 0.18891 0.57599 0.30400
O 	O 	0.87148 0.80771 0.67109 -0.37600
C 	C 	0.71321 0.91299 0.64153 0.30300
O 	O 	0.93015 0.96208 0.59149 -0.50300
O 	O 	0.93647 0.15870 0.55624 -0.29600
O 	O 	0.76436 0.99611 0.64374 -0.26100
O 	O 	0.75377 0.86871 0.66603 -0.29300
O 	O 	0.87874 0.95481 0.74856 -0.27600
O 	O 	0.97485 0.92879 0.74729 -0.29700
O 	O 	0.82463 0.75485 0.50554 -0.29200
O 	O 	0.78622 0.72026 0.58045 -0.30600
C 	C 	0.99931 0.94983 0.83011 0.10600
C 	C 	0.94643 0.92402 0.86405 -0.01500
C 	C 	0.99745 0.95944 0.90876 0.13200
C 	C 	0.83965 0.85715 0.85479 0.20900
C 	C 	0.94112 0.93591 0.94099 0.12400
N 	N 	0.89612 0.91698 0.96670 -0.06000
N 	N 	0.75457 0.80326 0.84840 -0.00000
C 	C 	0.38903 0.52463 0.67044 0.78700
F 	F 	0.42335 0.58643 0.69397 -0.41100
F 	F 	0.39962 0.56576 0.61889 -0.41500
F 	F 	0.44826 0.49465 0.69823 -0.37100
C 	C 	0.54868 0.85310 0.57827 0.09700
C 	C 	0.60528 0.86010 0.63027 0.03500
C 	C 	0.55820 0.81736 0.67144 -0.03300
C 	C 	0.45508 0.76494 0.66024 0.05800
C 	C 	0.39766 0.75680 0.60863 0.10000
C 	C 	0.44455 0.80387 0.56662 -0.07900
C 	C 	0.38413 0.79712 0.51030 0.79200
H 	H 	0.58555 0.88448 0.54724 0.13500
H 	H 	0.41814 0.72403 0.69239 0.14500
C 	C 	0.61747 0.82091 0.72836 0.78000
F 	F 	0.44200 0.86756 0.47427 -0.35100
F 	F 	0.68986 0.90865 0.73208 -0.40100
F 	F 	0.66135 0.77889 0.74526 -0.38500
F 	F 	0.55810 0.77838 0.76217 -0.35400
F 	F 	0.38688 0.84432 0.67836 -0.42200
F 	F 	0.37754 0.84412 0.75083 -0.36700
C 	C 	0.59181 0.67991 0.26266 0.02800
C 	C 	0.49624 0.63988 0.22988 0.09100
C 	C 	0.48365 0.65262 0.17561 -0.09500
C 	C 	0.56773 0.71541 0.15436 0.08600
C 	C 	0.66262 0.76239 0.18622 0.01200
C 	C 	0.67576 0.73757 0.24195 -0.06100
C 	C 	0.77763 0.77576 0.27978 0.78100
H 	H 	0.60086 0.66780 0.30429 0.13900
H 	H 	0.55950 0.72996 0.11252 0.11600
C 	C 	0.38279 0.59503 0.14139 0.78600
F 	F 	0.77356 0.71196 0.32698 -0.37900
F 	F 	0.80592 0.84794 0.29038 -0.41400
F 	F 	0.84896 0.80151 0.26031 -0.44200
F 	F 	0.38578 0.62563 0.08885 -0.37600
F 	F 	0.47066 0.82530 0.18821 -0.41100
C 	C 	0.73503 0.24248 0.50266 0.01800
C 	C 	0.77850 0.30521 0.52960 0.09900
C 	C 	0.88245 0.35411 0.55161 -0.13500
C 	C 	0.93559 0.32712 0.55469 0.12300
C 	C 	0.88484 0.24813 0.54084 -0.00100
C 	C 	0.78754 0.21303 0.50829 -0.05500
C 	C 	0.73725 0.14020 0.48281 0.78300
H 	H 	0.65756 0.21059 0.48169 0.14500
C 	C 	0.93709 0.43560 0.57050 0.81500
F 	F 	0.65368 0.12984 0.44337 -0.37600
F 	F 	0.70889 0.06017 0.52068 -0.44000
F 	F 	0.80203 0.16137 0.46023 -0.39800
F 	F 	0.89762 0.41350 0.60892 -0.41600
F 	F 	0.93043 0.50116 0.52828 -0.41200
C 	C 	0.64431 0.49923 0.49310 0.03100
C 	C 	0.64501 0.43668 0.54137 0.08200
C 	C 	0.65849 0.45029 0.58831 -0.07900
C 	C 	0.68403 0.53193 0.58625 0.08200
C 	C 	0.70024 0.60003 0.53953 0.02900
C 	C 	0.66414 0.57764 0.49144 -0.07000
C 	C 	0.64360 0.63485 0.43850 0.77900
H 	H 	0.62730 0.48651 0.45674 0.10400
H 	H 	0.69917 0.54509 0.62192 0.14000
C 	C 	0.64531 0.37887 0.64024 0.79000
F 	F 	0.69672 0.34646 0.65140 -0.38300
F 	F 	0.54543 0.30974 0.63717 -0.41400
F 	F 	0.68051 0.41210 0.68230 -0.34300
C 	C 	0.45423 0.10416 0.64152 0.02500
C 	C 	0.48282 0.11021 0.60320 0.10400
C 	C 	0.41694 0.03838 0.57846 -0.16500
H 	H 	0.50838 0.15139 0.66617 0.15700
C 	C 	0.45215 0.02607 0.54905 0.77000
F 	F 	0.39465 0.05459 0.72945 -0.37400
F 	F 	0.52861 0.01784 0.58269 -0.42800
F 	F 	0.48433 0.09810 0.50616 -0.42900
C 	C 	0.93863 0.36250 0.99009 0.03600
C 	C 	0.84071 0.33741 0.96644 0.09800
C 	C 	0.77364 0.26834 0.93942 -0.11800
C 	C 	0.79259 0.20684 0.95297 0.08300
C 	C 	0.88537 0.22429 0.98443 0.02100
C 	C 	0.96329 0.31056 0.99364 -0.06000
H 	H 	0.73481 0.14501 0.94029 0.10600
C 	C 	0.68405 0.26068 0.89593 0.79300
F 	F 	0.69279 0.33935 0.87697 -0.36300
F 	F 	0.59876 0.19192 0.91483 -0.40400
F 	F 	0.67520 0.24219 0.85409 -0.35900
C 	C 	0.92312 0.56372 0.06366 0.02900
C 	C 	0.88473 0.56668 0.00950 0.07400
C 	C 	0.87192 0.63476 0.97466 -0.10900
C 	C 	0.87833 0.68613 0.99544 0.09600
C 	C 	0.91418 0.68135 0.05005 -0.00000
C 	C 	0.92457 0.61149 0.08464 -0.07000
C 	C 	0.93562 0.58604 0.14354 0.80200
H 	H 	0.93733 0.51406 0.09026 0.14500
H 	H 	0.86600 0.73693 0.96860 0.08200
C 	C 	0.84663 0.65051 0.91525 0.79500
F 	F 	0.89176 0.49523 0.16377 -0.37600
F 	F 	0.89008 0.60515 0.15476 -0.38300
F 	F 	0.74610 0.61281 0.89532 -0.37100
F 	F 	0.87034 0.61443 0.90140 -0.39100
F 	F 	0.90002 0.74112 0.89222 -0.42800
C 	C 	0.60127 0.21645 0.08319 0.01400
C 	C 	0.58710 0.26346 0.03047 0.08800
C 	C 	0.49978 0.26032 0.00584 -0.13000
C 	C 	0.43090 0.21314 0.03569 0.08300
C 	C 	0.44352 0.16324 0.08762 -0.01400
C 	C 	0.53346 0.17129 0.11308 -0.05200
C 	C 	0.55687 0.12997 0.17165 0.77500
H 	H 	0.66853 0.21957 0.10185 0.10800
C 	C 	0.48200 0.31073 0.94872 0.79600
F 	F 	0.65805 0.18239 0.19324 -0.38500
F 	F 	0.52785 0.04636 0.17825 -0.42100
F 	F 	0.50895 0.12240 0.19918 -0.39600
F 	F 	0.51617 0.30881 0.91784 -0.37500
F 	F 	0.53050 0.39853 0.94675 -0.38400
F 	F 	0.38159 0.27314 0.92698 -0.39800
