data_crystal

_cell_length_a 18.71212
_cell_length_b 17.26550
_cell_length_c 48.67573
_cell_angle_alpha 89.61373
_cell_angle_beta  89.61724
_cell_angle_gamma 119.43208

_symmetry_space_group_name_	'P 1'
_symmetry_space_group_name_H-M	'P 1'

loop_
_symmetry_equiv_pos_as_xyz
  x,y,z

loop_
_atom_site_label
_atom_site_type_symbol
_atom_site_fract_x
_atom_site_fract_y
_atom_site_fract_z
_atom_site_charge
C 	C 	0.09905 0.95190 0.76659 0.29900
C 	C 	0.07586 0.74810 0.68238 0.00200
C 	C 	0.05291 0.50490 0.91565 0.13200
N 	N 	0.05102 0.46879 0.89074 -0.20100
C 	C 	0.08847 0.94487 0.84436 -0.06900
H 	H 	0.00992 0.23652 0.49447 0.11200
C 	C 	0.16111 0.15744 0.66536 0.32400
Ni	Ni	0.17338 0.06886 0.71702 1.12100
Ni	Ni	0.04296 0.14028 0.70870 1.12400
O 	O 	0.11847 0.22577 0.73733 -0.34900
O 	O 	0.14308 0.93999 0.70594 -0.35500
O 	O 	0.17943 0.09856 0.67531 -0.34200
O 	O 	0.13870 0.20168 0.68184 -0.36300
O 	O 	0.16587 0.02413 0.75745 -0.33900
O 	O 	0.06753 0.05382 0.72260 -0.71900
H 	H 	0.07161 0.06989 0.74213 0.16500
C 	C 	0.12642 0.48270 0.46707 0.32000
O 	O 	0.14389 0.46132 0.44316 -0.36900
C 	C 	0.10157 0.17633 0.17933 0.31700
C 	C 	0.10366 0.22575 0.26061 0.29900
C 	C 	0.01411 0.90864 0.19766 0.32300
C 	C 	0.01613 0.94245 0.27415 0.30500
Ni	Ni	0.09331 0.07372 0.22966 1.12700
O 	O 	0.06825 0.95233 0.21673 -0.36800
O 	O 	0.07703 0.22038 0.19526 -0.35300
O 	O 	0.11471 0.11403 0.18971 -0.34900
O 	O 	0.07357 0.02479 0.26796 -0.37400
O 	O 	0.14365 0.20102 0.24341 -0.35900
C 	C 	0.14331 0.28682 0.04863 -0.07000
C 	C 	0.20062 0.28340 0.06632 0.02900
C 	C 	0.17048 0.34075 0.02486 0.12700
C 	C 	0.17758 0.25635 0.09545 0.03000
N 	N 	0.11281 0.35078 0.00801 -0.02400
H 	H 	0.07883 0.25311 0.05433 0.08600
C 	C 	0.20303 0.32061 0.11640 0.06900
C 	C 	0.17531 0.29405 0.14355 0.00100
C 	C 	0.12418 0.20387 0.15021 -0.07900
C 	C 	0.10009 0.13963 0.12923 0.12900
C 	C 	0.12647 0.16648 0.10207 -0.07000
N 	N 	0.25949 0.41234 0.11041 -0.01400
H 	H 	0.19514 0.34354 0.15954 0.07900
N 	N 	0.04832 0.04710 0.13532 -0.02600
H 	H 	0.10667 0.11712 0.08603 0.08900
O 	O 	0.04838 0.34874 0.01907 -0.08600
O 	O 	0.12603 0.36462 0.98169 -0.08500
O 	O 	0.07094 0.99029 0.12767 -0.07600
O 	O 	0.24187 0.45504 0.09198 -0.08900
C 	C 	0.97029 0.72301 0.14840 0.07100
C 	C 	0.95991 0.77273 0.16906 0.01100
C 	C 	0.02767 0.85033 0.17885 -0.08800
O 	O 	0.99484 0.81739 0.08655 -0.06900
C 	C 	0.08691 0.15242 0.33440 -0.06400
C 	C 	0.16051 0.21846 0.34545 0.02900
C 	C 	0.21685 0.28841 0.32804 0.06200
C 	C 	0.19862 0.28958 0.30013 0.00200
C 	C 	0.12060 0.22931 0.29033 -0.08300
C 	C 	0.06205 0.16556 0.30857 0.11800
C 	C 	0.17251 0.22159 0.37577 0.02800
C 	C 	0.11389 0.22328 0.39400 0.06100
C 	C 	0.13710 0.25339 0.42082 -0.00400
C 	C 	0.22052 0.29860 0.42718 -0.07800
H 	H 	0.09384 0.25996 0.43419 0.06700
C 	C 	0.03711 0.89457 0.29470 -0.07600
C 	C 	0.00075 0.87580 0.32114 0.11200
H 	H 	0.00962 0.83902 0.36292 0.08100
O 	O 	0.05073 0.55030 0.39985 -0.09900
C 	C 	0.03995 0.43895 0.47633 -0.10200
N 	N 	0.04105 0.30413 0.48924 -0.20500
H 	H 	0.10502 0.33679 0.48863 0.11700
C 	C 	0.11907 0.14740 0.61670 0.00100
N 	N 	0.07447 0.12775 0.56872 -0.01500
H 	H 	0.05661 0.10192 0.62309 0.08900
O 	O 	0.02108 0.04335 0.56978 -0.07600
O 	O 	0.06827 0.17815 0.54998 -0.08700
H 	H 	0.02428 0.59585 0.59265 0.07800
H 	H 	0.08844 0.74454 0.70392 0.07400
O 	O 	0.04604 0.53586 0.66386 -0.07900
C 	C 	0.12873 0.56674 0.92683 -0.03400
C 	C 	0.13281 0.60191 0.95309 -0.08100
C 	C 	0.05941 0.57842 0.96774 0.11100
H 	H 	0.18501 0.58473 0.91553 0.06800
N 	N 	0.05981 0.62250 0.99080 -0.19300
H 	H 	0.10475 0.49133 0.87902 0.11900
H 	H 	0.10912 0.68501 0.99507 0.10300
O 	O 	0.10677 0.30917 0.78388 -0.07400
C 	C 	0.10703 0.97889 0.81738 0.11600
N 	N 	0.13188 0.07029 0.81232 -0.02200
H 	H 	0.09606 0.98900 0.86118 0.08000
N 	N 	0.13102 0.77836 0.88583 -0.01300
O 	O 	0.08158 0.09191 0.80076 -0.09100
O 	O 	0.19389 0.85823 0.88467 -0.09600
O 	O 	0.14150 0.71005 0.88213 -0.09200
O 	O 	0.98635 0.06157 0.23150 -0.71300
C 	C 	0.04220 0.67086 0.66646 0.06800
C 	C 	0.09516 0.92145 0.79531 -0.07600
C 	C 	0.25377 0.39112 0.43538 0.30700
O 	O 	0.18508 0.52662 0.48475 -0.36000
C 	C 	0.21217 0.64394 0.96732 0.31900
O 	O 	0.24575 0.72752 0.97477 -0.38300
O 	O 	0.32628 0.45455 0.12458 -0.07700
C 	C 	0.04907 0.75114 0.13738 0.02100
O 	O 	0.09063 0.46944 0.08062 -0.07400
H 	H 	0.24373 0.33997 0.28646 0.07300
C 	C 	0.27273 0.27630 0.41239 0.12500
C 	C 	0.24790 0.23667 0.38647 -0.06100
C 	C 	0.03736 0.85345 0.34257 -0.07000
C 	C 	0.10550 0.88376 0.28959 -0.00600
H 	H 	0.13286 0.89689 0.26918 0.07400
H 	H 	0.05759 0.67811 0.35182 0.08600
C 	C 	0.13837 0.16560 0.58864 0.06900
C 	C 	0.18065 0.18553 0.63645 -0.07800
O 	O 	0.20362 0.13203 0.82019 -0.08400
C 	C 	0.19599 0.24505 0.74066 0.30600
C 	C 	0.08184 0.89272 0.68950 0.32400
H 	H 	0.28965 0.22530 0.37382 0.09800
O 	O 	0.22883 0.20473 0.72622 -0.35000
O 	O 	0.26685 0.44908 0.41532 -0.35600
C 	C 	0.25545 0.39497 0.02010 -0.08800
C 	C 	0.10730 0.87411 0.16923 0.13400
C 	C 	0.06058 0.70740 0.11328 0.03400
C 	C 	0.07949 0.75089 0.08750 0.05400
N 	N 	0.06707 0.82543 0.08278 -0.01800
H 	H 	0.04978 0.59501 0.13637 0.09100
O 	O 	0.28494 0.41933 0.35422 -0.07500
N 	N 	0.11475 0.59890 0.38447 -0.03100
O 	O 	0.14350 0.56089 0.36826 -0.10700
N 	N 	0.16348 0.29906 0.79598 -0.02100
O 	O 	0.15205 0.27053 0.82130 -0.07500
N 	N 	0.28980 0.36068 0.33888 -0.01700
Ni	Ni	0.23951 0.54749 0.41895 1.13300
O 	O 	0.24743 0.40906 0.46177 -0.35100
O 	O 	0.21071 0.64100 0.42804 -0.37600
C 	C 	0.20042 0.65509 0.05593 0.33600
C 	C 	0.28574 0.48966 0.01441 0.32500
O 	O 	0.20274 0.66872 0.02943 -0.38700
O 	O 	0.26886 0.53381 0.03242 -0.35700
O 	O 	0.25375 0.60120 0.96858 -0.37300
C 	C 	0.28261 0.31887 0.05724 0.06000
C 	C 	0.30881 0.37188 0.03329 -0.00400
C 	C 	0.11736 0.82461 0.14852 -0.06600
C 	C 	0.11660 0.72554 0.06712 0.00300
C 	C 	0.13591 0.65806 0.07244 -0.10000
C 	C 	0.10549 0.60591 0.09656 0.13200
C 	C 	0.06859 0.63151 0.11705 -0.07700
H 	H 	0.13609 0.76290 0.04795 0.04700
N 	N 	0.11204 0.52719 0.10025 -0.02400
N 	N 	0.35455 0.30521 0.42175 -0.02400
O 	O 	0.36935 0.30936 0.44794 -0.08900
C 	C 	0.10832 0.84729 0.33765 0.02400
C 	C 	0.14153 0.86079 0.31087 0.06700
C 	C 	0.14559 0.69268 0.38234 0.12300
C 	C 	0.10930 0.72467 0.36387 -0.07100
C 	C 	0.22078 0.21982 0.58023 0.02700
H 	H 	0.19176 0.07392 0.55050 0.09600
O 	O 	0.22812 0.37536 0.54573 -0.09900
O 	O 	0.12741 0.90057 0.07386 -0.09000
C 	C 	0.08541 0.82773 0.67119 -0.08500
Ni	Ni	0.29998 0.53619 0.48022 1.12000
O 	O 	0.34139 0.53229 0.99501 -0.36600
N 	N 	0.34023 0.30628 0.07318 -0.01700
N 	N 	0.17784 0.95004 0.17980 -0.02700
C 	C 	0.14159 0.81604 0.35979 0.02700
H 	H 	0.27299 0.75772 0.53591 0.11600
C 	C 	0.23820 0.13653 0.54169 -0.07300
C 	C 	0.24663 0.21684 0.55155 0.03300
C 	C 	0.26153 0.24630 0.62820 0.12700
C 	C 	0.25252 0.32743 0.75506 -0.07400
C 	C 	0.24346 0.33549 0.78352 0.12300
O 	O 	0.17253 0.98183 0.63022 -0.08100
C 	C 	0.25395 0.72024 0.41730 0.32300
O 	O 	0.35289 0.64628 0.50670 -0.34600
O 	O 	0.31247 0.61679 0.38609 -0.35400
O 	O 	0.32404 0.59216 0.44529 -0.71600
Ni	Ni	0.30201 0.77060 0.01121 1.12200
O 	O 	0.26527 0.66174 0.06831 -0.34800
H 	H 	0.37269 0.40410 0.02720 0.05800
O 	O 	0.32329 0.22669 0.08085 -0.08200
O 	O 	0.40980 0.37438 0.07993 -0.09000
H 	H 	0.17834 0.84476 0.14054 0.08700
O 	O 	0.21046 0.02505 0.16625 -0.06900
O 	O 	0.21523 0.94126 0.20103 -0.07900
O 	O 	0.36128 0.37294 0.33110 -0.07500
O 	O 	0.41453 0.32895 0.40413 -0.08400
N 	N 	0.21366 0.85421 0.30541 -0.01600
C 	C 	0.21405 0.75306 0.39787 -0.09400
O 	O 	0.21183 0.77836 0.30849 -0.07900
H 	H 	0.29108 0.86804 0.54249 0.12400
C 	C 	0.29988 0.29649 0.53737 0.05000
C 	C 	0.29634 0.13809 0.52293 0.12400
N 	N 	0.29803 0.37694 0.54297 -0.01900
N 	N 	0.29015 0.05642 0.51335 -0.02300
C 	C 	0.28127 0.26322 0.60020 -0.06500
O 	O 	0.32698 0.05570 0.49066 -0.08400
O 	O 	0.24389 0.98198 0.52640 -0.10200
C 	C 	0.20843 0.87663 0.37557 0.06300
H 	H 	0.36021 0.57121 0.43762 0.16700
O 	O 	0.13360 0.51010 0.12389 -0.07600
N 	N 	0.31218 0.82646 0.53485 -0.19900
N 	N 	0.32422 0.28964 0.64819 -0.02500
O 	O 	0.35360 0.24544 0.66113 -0.08200
C 	C 	0.32656 0.38780 0.74199 -0.00300
H 	H 	0.33184 0.38813 0.71979 0.08400
C 	C 	0.07585 0.83388 0.64275 0.12900
N 	N 	0.09686 0.91763 0.63019 -0.02600
C 	C 	0.31374 0.38540 0.79933 -0.06700
Ni	Ni	0.37065 0.65714 0.98071 1.12400
O 	O 	0.36234 0.70918 0.01403 -0.71800
C 	C 	0.24446 0.84489 0.39451 0.00200
H 	H 	0.30865 0.38415 0.82154 0.09100
Ni	Ni	0.35866 0.65272 0.04749 1.12300
O 	O 	0.39634 0.86876 0.99060 -0.36200
N 	N 	0.23860 0.97021 0.37288 -0.01900
O 	O 	0.23005 0.01380 0.39315 -0.08700
C 	C 	0.35865 0.29754 0.51902 -0.00600
H 	H 	0.34462 0.30604 0.59394 0.07800
O 	O 	0.36613 0.45219 0.54452 -0.10800
O 	O 	0.35619 0.37473 0.65195 -0.07900
H 	H 	0.39573 0.85070 0.91811 0.12200
H 	H 	0.35673 0.76774 0.35311 0.07600
C 	C 	0.04087 0.75672 0.62701 -0.07100
C 	C 	0.36439 0.72543 0.49973 0.31000
C 	C 	0.39423 0.66511 0.38493 0.31800
O 	O 	0.33476 0.76185 0.41906 -0.37200
O 	O 	0.34529 0.83056 0.04849 -0.36000
H 	H 	0.29600 0.89165 0.40656 0.07200
O 	O 	0.27821 0.92150 0.29456 -0.06200
C 	C 	0.36478 0.22036 0.51572 -0.08400
H 	H 	0.41537 0.94907 0.89946 0.10900
N 	N 	0.02942 0.58851 0.67819 -0.01500
O 	O 	0.27952 0.01284 0.35096 -0.07000
C 	C 	0.39047 0.86086 0.52538 0.13300
C 	C 	0.39573 0.44222 0.75764 0.06400
H 	H 	0.02643 0.76022 0.60566 0.08100
C 	C 	0.39111 0.43333 0.78651 0.02900
O 	O 	0.41633 0.55106 0.47929 -0.35100
O 	O 	0.40822 0.77390 0.95937 -0.36900
H 	H 	0.41837 0.76010 0.01488 0.16400
H 	H 	0.37274 0.84933 0.11387 0.07400
C 	C 	0.41950 0.80431 0.51586 -0.09100
H 	H 	0.40585 0.36018 0.51042 0.07300
N 	N 	0.42853 0.91980 0.91611 -0.19900
O 	O 	0.03910 0.23103 0.25209 -0.33800
C 	C 	0.99887 0.34852 0.48481 0.14600
C 	C 	0.41122 0.76625 0.34615 0.00100
Ni	Ni	0.39720 0.71625 0.44219 1.12200
C 	C 	0.43717 0.85420 0.97072 0.28900
C 	C 	0.43329 0.70764 0.35867 -0.08100
O 	O 	0.46762 0.55719 0.36213 -0.07400
O 	O 	0.43941 0.69206 0.40730 -0.38100
O 	O 	0.45530 0.62822 0.03589 -0.35100
O 	O 	0.50826 0.97545 0.17459 -0.06800
O 	O 	0.41497 0.55587 0.85609 -0.09600
H 	H 	0.02612 0.55199 0.46544 0.05800
C 	C 	0.01652 0.67398 0.63949 0.02200
C 	C 	0.41394 0.84330 0.06066 0.30200
H 	H 	0.04432 0.09710 0.34721 0.09600
O 	O 	0.02956 0.26666 0.37001 -0.07800
O 	O 	0.44473 0.61237 0.81310 -0.07400
O 	O 	0.34500 0.73834 0.47520 -0.38000
H 	H 	0.42025 0.99740 0.53145 0.08100
H 	H 	0.51785 0.59324 0.41888 0.12200
N 	N 	0.47164 0.50267 0.74420 -0.01700
O 	O 	0.43388 0.77936 0.06212 -0.34900
N 	N 	0.44605 0.55905 0.83185 -0.01600
O 	O 	0.42995 0.94308 0.33209 -0.06700
O 	O 	0.48550 0.69541 0.99273 -0.38300
C 	C 	0.43406 0.89987 0.10772 -0.00500
C 	C 	0.44318 0.95357 0.52499 -0.03300
O 	O 	0.40312 0.00204 0.60339 -0.07900
C 	C 	0.60747 0.64718 0.98307 0.12600
C 	C 	0.48177 0.62355 0.46974 0.29000
C 	C 	0.50039 0.65333 0.01269 0.30100
C 	C 	0.48996 0.97058 0.93363 0.11700
C 	C 	0.46584 0.45502 0.80242 0.03200
C 	C 	0.44643 0.22902 0.51793 0.32300
N 	N 	0.44294 0.89242 0.31550 -0.01500
O 	O 	0.43059 0.89481 0.28932 -0.06800
C 	C 	0.50436 0.83927 0.51251 -0.04400
O 	O 	0.49617 0.47776 0.72262 -0.07400
N 	N 	0.03552 0.20639 0.38442 -0.02200
C 	C 	0.45445 0.91715 0.07973 -0.07000
N 	N 	0.47673 0.91447 0.15591 -0.01600
C 	C 	0.46276 0.82808 0.32633 0.06700
H 	H 	0.52840 0.79479 0.50846 0.06400
C 	C 	0.50512 0.93269 0.95714 -0.07300
O 	O 	0.48093 0.69997 0.46566 -0.37100
C 	C 	0.62265 0.58751 0.96810 -0.04600
C 	C 	0.48520 0.50729 0.82625 0.05800
O 	O 	0.46670 0.92310 0.59430 -0.09600
C 	C 	0.50293 0.70431 0.34905 0.12700
H 	H 	0.49897 0.37534 0.77698 0.09300
O 	O 	0.51538 0.58332 0.75319 -0.06500
O 	O 	0.47252 0.22562 0.54245 -0.37000
O 	O 	0.42641 0.83249 0.16314 -0.07000
N 	N 	0.52332 0.64064 0.36020 -0.02700
N 	N 	0.54503 0.55721 0.42642 -0.19900
N 	N 	0.46606 0.98997 0.60623 -0.02700
H 	H 	0.52069 0.09262 0.91224 0.05600
C 	C 	0.55527 0.61626 0.00645 -0.08500
C 	C 	0.49581 0.93794 0.12743 0.07500
H 	H 	0.55166 0.51357 0.41323 0.12700
C 	C 	0.51155 0.41314 0.79574 -0.07100
O 	O 	0.00353 0.56739 0.70346 -0.07000
O 	O 	0.49889 0.26240 0.49725 -0.35500
C 	C 	0.53703 0.06250 0.92888 -0.02800
O 	O 	0.56388 0.39092 0.94325 -0.35600
C 	C 	0.52498 0.98982 0.51587 -0.08600
C 	C 	0.55652 0.93174 0.50998 0.11700
C 	C 	0.06791 0.83118 0.80067 -0.00300
C 	C 	0.56054 0.62414 0.47072 -0.08300
O 	O 	0.51039 0.01206 0.79246 -0.07300
C 	C 	0.57356 0.56886 0.45250 0.12300
H 	H 	0.05959 0.78682 0.78383 0.07700
O 	O 	0.57033 0.23567 0.94168 -0.38100
O 	O 	0.48689 0.02266 0.03013 -0.08900
C 	C 	0.53611 0.82977 0.31846 0.02700
C 	C 	0.54244 0.50751 0.84481 0.00100
C 	C 	0.57695 0.98403 0.97215 -0.04400
C 	C 	0.55371 0.76516 0.32889 -0.06900
C 	C 	0.53060 0.99033 0.07217 0.10700
C 	C 	0.59534 0.50113 0.97809 -0.07800
O 	O 	0.57929 0.41006 0.88602 -0.38100
H 	H 	0.55401 0.54379 0.86385 0.06900
Ni	Ni	0.58939 0.32714 0.91270 1.12400
O 	O 	0.54844 0.13408 0.50025 -0.36800
H 	H 	0.59275 0.95331 0.98878 0.06600
C 	C 	0.57058 0.41586 0.81375 0.12900
O 	O 	0.58145 0.28864 0.80314 -0.07800
H 	H 	0.56108 0.15024 0.83596 0.08000
C 	C 	0.61583 0.44192 0.96246 0.28800
C 	C 	0.53443 0.05012 0.62248 0.12700
C 	C 	0.60048 0.11678 0.94680 -0.08500
C 	C 	0.53852 0.53498 0.01854 -0.04000
H 	H 	0.60030 0.69646 0.50858 0.05700
N 	N 	0.54590 0.02387 0.04445 -0.02200
O 	O 	0.59874 0.66513 0.36673 -0.08700
C 	C 	0.60373 0.64782 0.49549 -0.03600
H 	H 	0.55374 0.94679 0.63994 0.08600
C 	C 	0.58170 0.45752 0.83950 -0.08600
C 	C 	0.57665 0.08790 0.51336 0.31600
H 	H 	0.50704 0.51526 0.03824 0.07300
C 	C 	0.55532 0.47532 0.00410 0.12200
N 	N 	0.63428 0.96342 0.50013 -0.20200
H 	H 	0.50265 0.37527 0.03425 0.11700
N 	N 	0.53060 0.39290 0.01484 -0.20100
O 	O 	0.04197 0.89819 0.74922 -0.36300
C 	C 	0.57750 0.99404 0.11872 0.01200
H 	H 	0.53700 0.34489 0.00388 0.12200
H 	H 	0.53929 0.84849 0.26318 0.09500
C 	C 	0.05067 0.76573 0.89145 0.05700
O 	O 	0.55943 0.77129 0.14254 -0.07000
H 	H 	0.60863 0.76440 0.32206 0.09000
H 	H 	0.65843 0.92063 0.49767 0.10100
C 	C 	0.61016 0.51986 0.46223 -0.03700
O 	O 	0.59209 0.89740 0.71235 -0.07200
C 	C 	0.56064 0.18052 0.59337 0.33400
H 	H 	0.61174 0.46979 0.44932 0.06800
C 	C 	0.05512 0.85336 0.84942 0.02700
N 	N 	0.64384 0.73412 0.97524 -0.19900
H 	H 	0.65680 0.60873 0.94888 0.06800
O 	O 	0.59709 0.25014 0.88260 -0.37600
O 	O 	0.57792 0.15150 0.57102 -0.38100
C 	C 	0.57404 0.01739 0.63946 -0.07200
H 	H 	0.00706 0.59896 0.00311 0.10300
C 	C 	0.59288 0.02764 0.09176 -0.05300
C 	C 	0.59867 0.90372 0.30160 0.03000
C 	C 	0.56652 0.14275 0.61981 -0.09700
O 	O 	0.56402 0.25818 0.59293 -0.36100
H 	H 	0.66888 0.02845 0.49269 0.11700
N 	N 	0.58867 0.06564 0.79514 -0.01700
C 	C 	0.61963 0.43472 0.86251 0.31900
N 	N 	0.61762 0.37442 0.80607 -0.02200
O 	O 	0.04875 0.66126 0.82538 -0.07600
C 	C 	0.62527 0.21315 0.94781 0.31200
H 	H 	0.67689 0.75552 0.95676 0.11800
H 	H 	0.64274 0.78173 0.98811 0.11400
Ni	Ni	0.57981 0.33052 0.55668 1.11600
O 	O 	0.57956 0.41615 0.52570 -0.36300
O 	O 	0.62028 0.06347 0.03448 -0.10600
C 	C 	0.59483 0.89805 0.27292 -0.06700
C 	C 	0.62716 0.07550 0.96633 0.15000
C 	C 	0.60289 0.12630 0.84144 -0.00300
Ni	Ni	0.61096 0.26810 0.49679 1.12300
O 	O 	0.61662 0.03858 0.71351 -0.06000
C 	C 	0.04545 0.79634 0.82737 0.06600
C 	C 	0.63465 0.52730 0.48972 -0.08200
N 	N 	0.63332 0.97937 0.70365 -0.02300
O 	O 	0.61720 0.99449 0.35579 -0.07900
C 	C 	0.64087 0.59927 0.50524 0.11800
C 	C 	0.62445 0.08200 0.82183 0.07200
H 	H 	0.65440 0.07753 0.08561 0.08000
N 	N 	0.67251 0.98258 0.34319 -0.01600
O 	O 	0.73269 0.98465 0.35700 -0.07400
O 	O 	0.63260 0.11049 0.77396 -0.05800
O 	O 	0.67220 0.42500 0.97264 -0.36300
C 	C 	0.62941 0.44843 0.50382 0.29700
O 	O 	0.65013 0.12799 0.52407 -0.38500
O 	O 	0.04185 0.92723 0.61673 -0.08000
C 	C 	0.64428 0.15063 0.86658 -0.08400
N 	N 	0.60015 0.84170 0.12712 -0.01500
O 	O 	0.59554 0.83469 0.10051 -0.08700
C 	C 	0.66942 0.97164 0.31400 0.06400
O 	O 	0.66674 0.02151 0.21431 -0.06600
C 	C 	0.64612 0.00041 0.13512 0.04400
C 	C 	0.65973 0.23487 0.87909 0.30500
O 	O 	0.64152 0.29637 0.53423 -0.71700
C 	C 	0.64531 0.07666 0.65338 0.03200
C 	C 	0.62544 0.19912 0.63857 0.00300
O 	O 	0.67933 0.41715 0.85709 -0.35900
H 	H 	0.69822 0.14117 0.14175 0.09000
H 	H 	0.66621 0.91238 0.80211 0.09100
C 	C 	0.66384 0.95350 0.25679 0.12000
H 	H 	0.69933 0.45685 0.91864 0.15600
O 	O 	0.65685 0.40066 0.49059 -0.37600
O 	O 	0.69388 0.42320 0.79843 -0.06400
O 	O 	0.69286 0.27107 0.96008 -0.35100
N 	N 	0.65768 0.95157 0.22755 -0.02600
H 	H 	0.64594 0.26978 0.63814 0.07400
O 	O 	0.70431 0.40312 0.91649 -0.71700
C 	C 	0.65562 0.92497 0.13931 0.06000
C 	C 	0.66750 0.16731 0.65461 0.05900
N 	N 	0.70395 0.11949 0.97683 -0.19800
N 	N 	0.68028 0.62026 0.52968 -0.19900
O 	O 	0.94379 0.90837 0.19717 -0.36900
N 	N 	0.92579 0.87715 0.32619 -0.02100
O 	O 	0.91626 0.91109 0.34878 -0.07800
O 	O 	0.95249 0.89526 0.25762 -0.34700
H 	H 	0.98317 0.07037 0.25130 0.16700
H 	H 	0.89891 0.75186 0.17713 0.07000
N 	N 	0.90080 0.64377 0.13880 -0.01700
O 	O 	0.85700 0.57918 0.15594 -0.08000
O 	O 	0.87767 0.63889 0.11343 -0.07400
O 	O 	0.97311 0.01843 0.14346 -0.07300
O 	O 	0.92472 0.12316 0.61193 -0.08300
C 	C 	0.85096 0.59094 0.91658 0.29600
C 	C 	0.89842 0.42743 0.91844 0.32900
Ni	Ni	0.75641 0.40682 0.94939 1.11200
Ni	Ni	0.76856 0.42883 0.88302 1.12900
O 	O 	0.83832 0.54500 0.94053 -0.35600
O 	O 	0.80673 0.55538 0.89405 -0.35700
O 	O 	0.83787 0.37125 0.93351 -0.37400
O 	O 	0.88306 0.45788 0.89596 -0.36600
O 	O 	0.73654 0.30070 0.87901 -0.35300
C 	C 	0.74604 0.39960 0.58181 0.30700
C 	C 	0.78907 0.31260 0.50173 0.29000
Ni	Ni	0.68437 0.22816 0.55066 1.12400
O 	O 	0.69110 0.42218 0.57351 -0.36400
O 	O 	0.72853 0.31500 0.58271 -0.36600
O 	O 	0.78778 0.29766 0.52860 -0.36000
O 	O 	0.72049 0.27414 0.48679 -0.36700
H 	H 	0.69213 0.35386 0.53161 0.16400
C 	C 	0.90039 0.99986 0.68271 0.31800
C 	C 	0.91490 0.04091 0.75381 0.31100
Ni	Ni	0.97681 0.93596 0.72420 1.13000
O 	O 	0.88865 0.93781 0.70088 -0.36000
O 	O 	0.01523 0.89991 0.69010 -0.36200
O 	O 	0.94157 0.10034 0.73312 -0.36700
O 	O 	0.93343 0.97579 0.75577 -0.36000
O 	O 	0.97436 0.06607 0.67779 -0.37000
C 	C 	0.81629 0.03105 0.25570 0.31300
C 	C 	0.84077 0.01780 0.18496 0.33500
Ni	Ni	0.97022 0.15485 0.21917 1.12500
Ni	Ni	0.90003 0.94225 0.22988 1.12600
O 	O 	0.85547 0.10451 0.23993 -0.33000
O 	O 	0.84489 0.97517 0.25969 -0.35800
O 	O 	0.91383 0.08729 0.18410 -0.35500
O 	O 	0.82060 0.95576 0.20407 -0.36300
C 	C 	0.72046 0.93177 0.15519 0.00900
C 	C 	0.77749 0.01363 0.16625 -0.08100
C 	C 	0.77048 0.09013 0.16070 0.13500
C 	C 	0.70440 0.08276 0.14545 -0.07300
H 	H 	0.72664 0.87332 0.15881 0.07500
N 	N 	0.82883 0.17480 0.17126 -0.03000
O 	O 	0.89145 0.22927 0.15620 -0.08400
O 	O 	0.81481 0.20103 0.19466 -0.08600
C 	C 	0.73908 0.02507 0.29783 0.00300
C 	C 	0.73875 0.01089 0.26949 -0.06900
H 	H 	0.79483 0.07327 0.30762 0.09000
O 	O 	0.63075 0.87661 0.21474 -0.08000
N 	N 	0.97644 0.12755 0.30323 -0.02800
O 	O 	0.92757 0.04372 0.30850 -0.07800
O 	O 	0.94566 0.17972 0.29914 -0.07800
O 	O 	0.96939 0.13575 0.39287 -0.07400
O 	O 	0.86368 0.83475 0.30998 -0.07600
C 	C 	0.99510 0.48365 0.47282 -0.00700
C 	C 	0.91368 0.30471 0.48950 -0.04200
C 	C 	0.86951 0.35069 0.48752 -0.06400
C 	C 	0.90994 0.44000 0.47796 0.11600
N 	N 	0.86743 0.48382 0.47340 -0.19600
H 	H 	0.88254 0.23600 0.49654 0.06800
H 	H 	0.89802 0.55080 0.46742 0.11000
H 	H 	0.80358 0.45099 0.47467 0.11100
H 	H 	0.71201 0.58821 0.53650 0.10800
H 	H 	0.68210 0.67130 0.54161 0.10600
C 	C 	0.76836 0.06499 0.64104 -0.06500
C 	C 	0.70602 0.04887 0.66015 0.01900
C 	C 	0.70167 0.00567 0.68523 0.07900
C 	C 	0.76385 0.98629 0.69193 -0.01500
C 	C 	0.82885 0.00669 0.67339 -0.07500
C 	C 	0.82855 0.04199 0.64723 0.11900
H 	H 	0.76312 0.95825 0.71195 0.08300
N 	N 	0.88653 0.05026 0.62647 -0.02300
H 	H 	0.76927 0.09422 0.62117 0.07700
N 	N 	0.73850 0.22871 0.66953 -0.01600
O 	O 	0.89402 0.98159 0.61998 -0.07700
O 	O 	0.79454 0.30105 0.65758 -0.08000
O 	O 	0.74565 0.21405 0.69534 -0.06400
C 	C 	0.96293 0.56518 0.60147 -0.06400
C 	C 	0.94966 0.59349 0.62699 0.03300
C 	C 	0.86944 0.55405 0.63823 0.06700
C 	C 	0.80375 0.48858 0.62360 0.00300
C 	C 	0.81647 0.46455 0.59739 -0.08300
C 	C 	0.89650 0.50248 0.58631 0.11800
N 	N 	0.85402 0.58339 0.66390 -0.01600
H 	H 	0.74225 0.45838 0.63229 0.07000
N 	N 	0.90983 0.48239 0.55892 -0.02500
O 	O 	0.95901 0.45056 0.55447 -0.08500
O 	O 	0.87969 0.50459 0.53826 -0.10800
O 	O 	0.86228 0.66249 0.66578 -0.08200
O 	O 	0.82327 0.52781 0.68447 -0.06300
C 	C 	0.98469 0.51153 0.95763 -0.01800
C 	C 	0.97995 0.47831 0.93106 -0.10000
H 	H 	0.92896 0.49068 0.96958 0.03500
H 	H 	0.99713 0.41564 0.88329 0.13100
H 	H 	0.74984 0.17693 0.96731 0.13400
H 	H 	0.72159 0.08977 0.99214 0.11900
C 	C 	0.70878 0.06206 0.85542 -0.06700
C 	C 	0.68447 0.05823 0.82817 0.02300
C 	C 	0.69119 0.11037 0.87457 0.12100
C 	C 	0.73769 0.05466 0.80642 0.03600
N 	N 	0.72251 0.11974 0.90180 -0.02800
H 	H 	0.74988 0.03707 0.86089 0.08600
C 	C 	0.81194 0.13196 0.79961 0.06700
C 	C 	0.87078 0.12576 0.78344 -0.00100
C 	C 	0.85642 0.04326 0.77368 -0.07400
C 	C 	0.78180 0.96570 0.78039 0.12000
C 	C 	0.72259 0.97213 0.79647 -0.07400
N 	N 	0.82939 0.21641 0.81031 -0.01700
H 	H 	0.92778 0.18552 0.77832 0.08300
N 	N 	0.76672 0.88024 0.77152 -0.02600
O 	O 	0.77993 0.19690 0.90985 -0.08400
O 	O 	0.70820 0.04883 0.91569 -0.10000
O 	O 	0.71236 0.83856 0.75273 -0.07600
O 	O 	0.79711 0.83844 0.78523 -0.08000
O 	O 	0.88943 0.25746 0.82737 -0.07900
O 	O 	0.78833 0.25453 0.80183 -0.06600
C 	C 	0.02177 0.81598 0.87712 0.02300
N 	N 	0.00849 0.70231 0.83177 -0.01700
C 	C 	0.99809 0.69917 0.91011 0.00800
C 	C 	0.91789 0.68369 0.91447 -0.08000
C 	C 	0.89884 0.74929 0.90582 0.12200
C 	C 	0.94951 0.81361 0.88634 -0.06600
H 	H 	0.01671 0.65448 0.91897 0.05600
N 	N 	0.82585 0.74752 0.91566 -0.02500
H 	H 	0.93013 0.85752 0.87714 0.08300
O 	O 	0.93186 0.65661 0.83937 -0.08600
O 	O 	0.81015 0.74132 0.94189 -0.10500
O 	O 	0.77641 0.75493 0.89853 -0.09700
