data_crystal

_cell_length_a 15.50439
_cell_length_b 16.60204
_cell_length_c 49.18333
_cell_angle_alpha 90.25305
_cell_angle_beta  90.25319
_cell_angle_gamma 119.43030

_symmetry_space_group_name_	'P 1'
_symmetry_space_group_name_H-M	'P 1'

loop_
_symmetry_equiv_pos_as_xyz
  x,y,z

loop_
_atom_site_label
_atom_site_type_symbol
_atom_site_fract_x
_atom_site_fract_y
_atom_site_fract_z
_atom_site_charge
C 	C 	0.19263 0.07075 0.74203 0.30600
C 	C 	0.19442 0.02639 0.81711 0.27000
Ni	Ni	0.06416 0.07735 0.78301 1.11500
Ni	Ni	0.08032 0.89564 0.77347 1.12100
O 	O 	0.11850 0.08559 0.74597 -0.40000
O 	O 	0.15388 0.93920 0.80870 -0.37500
O 	O 	0.01333 0.85926 0.73683 -0.38900
O 	O 	0.18818 0.09121 0.80245 -0.37900
O 	O 	0.19757 0.00345 0.75496 -0.38400
C 	C 	0.11183 0.50264 0.42099 0.27100
C 	C 	0.18926 0.57862 0.34988 0.30900
Ni	Ni	0.19885 0.69344 0.39926 1.11200
O 	O 	0.09679 0.57373 0.41776 -0.36800
O 	O 	0.16330 0.48287 0.40282 -0.37000
O 	O 	0.14154 0.61237 0.36368 -0.36000
C 	C 	0.12308 0.59846 0.13072 0.27700
O 	O 	0.25951 0.80918 0.14414 -0.37600
O 	O 	0.14562 0.62244 0.15680 -0.37500
O 	O 	0.17912 0.65225 0.11080 -0.37700
C 	C 	0.17892 0.95052 0.26181 0.30700
C 	C 	0.10172 0.24994 0.29623 0.30300
C 	C 	0.16563 0.02673 0.33472 0.29800
C 	C 	0.14503 0.18202 0.22969 0.29200
Ni	Ni	0.18996 0.12591 0.28322 1.11100
O 	O 	0.23098 0.02424 0.27751 -0.38300
O 	O 	0.08817 0.88713 0.26883 -0.37200
O 	O 	0.18156 0.24771 0.28820 -0.37100
O 	O 	0.17495 0.10323 0.32461 -0.37800
O 	O 	0.11237 0.94731 0.32190 -0.35900
O 	O 	0.19738 0.14987 0.24209 -0.38500
O 	O 	0.06121 0.17341 0.24028 -0.37500
O 	O 	0.05749 0.03623 0.27618 -0.71600
H 	H 	0.06275 0.01643 0.25766 0.15200
C 	C 	0.19453 0.24912 0.20767 -0.07400
C 	C 	0.18969 0.32736 0.16660 -0.02300
C 	C 	0.14187 0.25436 0.18496 0.03600
H 	H 	0.14807 0.33429 0.14993 0.04200
C 	C 	0.26811 0.89312 0.18558 -0.07400
C 	C 	0.34153 0.95238 0.20408 -0.02500
C 	C 	0.31509 0.97506 0.22900 0.05600
C 	C 	0.21436 0.94573 0.23423 -0.08200
C 	C 	0.14441 0.90368 0.21315 -0.01700
C 	C 	0.17033 0.87593 0.18906 0.03600
S 	S 	0.40789 0.03450 0.25376 -0.05400
S 	S 	0.07844 0.81523 0.16423 -0.02600
H 	H 	0.07649 0.87671 0.14609 0.04000
H 	H 	0.44402 0.12774 0.25112 0.03500
H 	H 	0.41819 0.97150 0.20051 0.05600
H 	H 	0.06845 0.88800 0.21609 0.04800
C 	C 	0.10841 0.33847 0.30534 -0.07700
C 	C 	0.04377 0.33705 0.32555 -0.02600
C 	C 	0.05606 0.41988 0.33673 0.03700
C 	C 	0.13823 0.50469 0.32927 -0.08200
C 	C 	0.19133 0.50680 0.30592 -0.02100
C 	C 	0.17667 0.42423 0.29380 0.03500
C 	C 	0.26152 0.96347 0.39575 -0.04000
C 	C 	0.20756 0.99642 0.38114 0.05600
C 	C 	0.23847 0.03266 0.35497 -0.09700
S 	S 	0.09841 0.98660 0.39501 -0.02800
H 	H 	0.23359 0.92929 0.41499 0.05000
C 	C 	0.08628 0.49301 0.49298 0.01900
C 	C 	0.14651 0.54622 0.51476 -0.04600
C 	C 	0.10506 0.56742 0.53705 -0.03800
C 	C 	0.07106 0.44689 0.44545 -0.05800
C 	C 	0.12848 0.47973 0.46931 -0.03100
H 	H 	0.22580 0.57429 0.51397 0.03900
H 	H 	0.15256 0.60831 0.55372 0.03600
H 	H 	0.20821 0.50978 0.46808 0.04100
H 	H 	0.37873 0.24220 0.78619 0.04100
C 	C 	0.03306 0.43357 0.11792 -0.03100
C 	C 	0.03027 0.51527 0.12342 -0.05600
H 	H 	0.03620 0.28289 0.09922 0.03900
H 	H 	0.09223 0.42466 0.12653 0.04200
O 	O 	0.99748 0.07058 0.81842 -0.38400
O 	O 	0.00006 0.94672 0.78459 -0.71700
H 	H 	0.00045 0.93824 0.80439 0.16300
O 	O 	0.24590 0.51760 0.16851 -0.38400
C 	C 	0.29743 0.30879 0.20933 -0.02400
C 	C 	0.28790 0.39727 0.17154 -0.07500
H 	H 	0.12077 0.06557 0.40931 0.03100
H 	H 	0.18359 0.10379 0.86403 0.04500
H 	H 	0.18070 0.42306 0.24153 0.04100
S 	S 	0.23897 0.42964 0.26340 -0.02500
H 	H 	0.24946 0.57251 0.29851 0.04900
C 	C 	0.33196 0.05057 0.34596 -0.00900
H 	H 	0.35941 0.08406 0.32656 0.03700
C 	C 	0.28692 0.82760 0.16992 0.30900
H 	H 	0.32405 0.89565 0.81392 0.03600
C 	C 	0.35595 0.88155 0.38879 0.30100
C 	C 	0.28348 0.78753 0.45617 0.28100
C 	C 	0.42099 0.60164 0.44425 0.28100
Ni	Ni	0.42495 0.77068 0.42087 1.12200
Ni	Ni	0.31059 0.57056 0.39325 1.12000
O 	O 	0.48825 0.78673 0.38477 -0.38700
O 	O 	0.29617 0.80430 0.37643 -0.37300
O 	O 	0.40370 0.87990 0.41081 -0.37200
O 	O 	0.35272 0.53871 0.42804 -0.38700
O 	O 	0.27964 0.60212 0.35655 -0.39200
O 	O 	0.22479 0.77744 0.43471 -0.36400
O 	O 	0.35287 0.76343 0.45516 -0.38700
O 	O 	0.45422 0.63607 0.38109 -0.37800
O 	O 	0.30075 0.66867 0.41000 -0.71100
H 	H 	0.27602 0.63949 0.42772 0.15400
C 	C 	0.31471 0.49333 0.16470 0.29100
C 	C 	0.48103 0.72568 0.19712 0.30900
C 	C 	0.41209 0.66439 0.08136 0.28300
Ni	Ni	0.46514 0.68107 0.13872 1.11000
Ni	Ni	0.31759 0.75480 0.11753 1.11900
Ni	Ni	0.27665 0.64884 0.17452 1.12200
O 	O 	0.40992 0.55634 0.16081 -0.36800
O 	O 	0.44996 0.86095 0.12851 -0.38200
O 	O 	0.38813 0.66061 0.19974 -0.37300
O 	O 	0.40980 0.61476 0.10223 -0.38300
O 	O 	0.37369 0.72162 0.08305 -0.36800
O 	O 	0.32179 0.78112 0.18291 -0.38800
O 	O 	0.34084 0.67450 0.14027 -0.71200
H 	H 	0.29807 0.61528 0.13098 0.16400
C 	C 	0.34479 0.38032 0.19069 0.03900
S 	S 	0.47493 0.44231 0.19011 -0.03900
H 	H 	0.50867 0.39909 0.17285 0.03500
H 	H 	0.34043 0.30051 0.22541 0.04500
C 	C 	0.34250 0.96179 0.38363 -0.05600
C 	C 	0.38395 0.01476 0.36018 0.01800
S 	S 	0.49596 0.02923 0.34717 -0.04500
H 	H 	0.57338 0.10751 0.35816 0.03400
C 	C 	0.44193 0.94978 0.51631 -0.02800
C 	C 	0.43149 0.99371 0.49304 0.05000
C 	C 	0.36749 0.85951 0.52280 0.03200
C 	C 	0.38032 0.81437 0.54529 -0.05000
C 	C 	0.35166 0.94329 0.47506 -0.03900
C 	C 	0.29079 0.84769 0.47886 -0.04800
C 	C 	0.28650 0.81248 0.50501 -0.03300
H 	H 	0.32454 0.74429 0.55012 0.03900
H 	H 	0.34812 0.97384 0.45593 0.05400
H 	H 	0.23119 0.74176 0.50926 0.04300
C 	C 	0.40538 0.51479 0.51464 0.01800
C 	C 	0.36462 0.51831 0.53978 -0.04200
C 	C 	0.34870 0.45294 0.55985 -0.04200
C 	C 	0.37677 0.38534 0.55541 0.01900
C 	C 	0.37535 0.32893 0.57677 -0.02500
C 	C 	0.41685 0.57714 0.49388 -0.03100
H 	H 	0.34636 0.57229 0.54397 0.03700
H 	H 	0.31785 0.45702 0.57920 0.04000
H 	H 	0.35019 0.33646 0.59665 0.04400
H 	H 	0.39291 0.62784 0.49703 0.04000
C 	C 	0.27547 0.13603 0.72500 -0.08000
C 	C 	0.25515 0.15267 0.69844 -0.02200
C 	C 	0.33036 0.21986 0.68245 0.03400
C 	C 	0.42838 0.26765 0.69244 -0.08100
C 	C 	0.44576 0.25973 0.72006 -0.01900
C 	C 	0.37058 0.19332 0.73628 0.03400
S 	S 	0.30093 0.24308 0.64994 -0.03400
S 	S 	0.39675 0.18363 0.77056 -0.02800
H 	H 	0.27937 0.31368 0.65165 0.03700
H 	H 	0.18052 0.11375 0.69028 0.04600
H 	H 	0.52021 0.29945 0.72828 0.04500
C 	C 	0.41026 0.03657 0.02083 -0.01300
C 	C 	0.39133 0.94670 0.01443 -0.00900
C 	C 	0.43794 0.90676 0.02927 -0.06500
C 	C 	0.49793 0.95356 0.05185 0.05600
C 	C 	0.38559 0.08641 0.00238 -0.01300
H 	H 	0.34542 0.91003 0.99703 0.03600
H 	H 	0.42609 0.83907 0.02346 0.04900
H 	H 	0.54222 0.85249 0.06055 0.06100
H 	H 	0.34030 0.05126 0.98470 0.03800
C 	C 	0.48742 0.68055 0.06054 -0.06200
C 	C 	0.46784 0.68177 0.03267 -0.02600
H 	H 	0.45342 0.68884 0.97829 0.04000
H 	H 	0.39815 0.67592 0.02608 0.04100
C 	C 	0.40036 0.11414 0.88366 -0.08500
C 	C 	0.41374 0.06906 0.86132 -0.01400
C 	C 	0.34739 0.04038 0.83935 0.02000
C 	C 	0.26534 0.05569 0.83992 -0.06200
C 	C 	0.24841 0.09508 0.86309 -0.03400
C 	C 	0.31471 0.12321 0.88508 0.04300
S 	S 	0.37078 0.98968 0.81080 -0.00900
S 	S 	0.29026 0.17034 0.91424 -0.05100
H 	H 	0.24022 0.10155 0.93273 0.04100
H 	H 	0.47918 0.06135 0.86029 0.04100
H 	H 	0.83568 0.90050 0.87959 0.04200
C 	C 	0.52893 0.87240 0.11622 0.29200
C 	C 	0.54062 0.91271 0.06783 -0.05200
C 	C 	0.51120 0.21717 0.97823 0.28400
C 	C 	0.48544 0.17078 0.90136 0.31100
O 	O 	0.48828 0.25521 0.95750 -0.36500
O 	O 	0.50262 0.13438 0.92302 -0.38000
C 	C 	0.51085 0.29284 0.67359 0.30900
C 	C 	0.49584 0.29069 0.59632 0.28000
O 	O 	0.46841 0.22522 0.61534 -0.37500
C 	C 	0.50162 0.72304 0.37287 0.30700
O 	O 	0.47758 0.68860 0.43617 -0.37800
O 	O 	0.54867 0.80365 0.11610 -0.36600
O 	O 	0.51484 0.76119 0.17338 -0.37600
C 	C 	0.55256 0.74548 0.21922 -0.07700
S 	S 	0.51085 0.87744 0.23934 -0.02600
H 	H 	0.46166 0.84675 0.26343 0.04300
H 	H 	0.58263 0.63649 0.20765 0.04400
H 	H 	0.50836 0.81785 0.32836 0.05500
C 	C 	0.50583 0.08385 0.48674 -0.07600
C 	C 	0.52806 0.99469 0.53247 0.02900
C 	C 	0.46669 0.85873 0.56121 -0.03000
H 	H 	0.49915 0.11796 0.46876 0.04400
H 	H 	0.47530 0.82327 0.57857 0.03900
C 	C 	0.44947 0.31588 0.52608 0.02000
C 	C 	0.41747 0.38120 0.53023 -0.00800
C 	C 	0.43195 0.44597 0.50986 -0.00700
C 	C 	0.42749 0.27996 0.57425 -0.05200
C 	C 	0.45062 0.26255 0.54807 -0.03100
C 	C 	0.45045 0.56838 0.46816 -0.05300
C 	C 	0.51048 0.04019 0.05964 -0.04800
C 	C 	0.47127 0.08382 0.04337 0.01500
C 	C 	0.50190 0.17811 0.04766 0.00700
C 	C 	0.56867 0.94295 0.09471 -0.03400
C 	C 	0.48645 0.22773 0.02676 -0.02300
C 	C 	0.44618 0.18272 0.00175 -0.06100
C 	C 	0.53754 0.68727 0.01332 0.01500
C 	C 	0.51865 0.68682 0.98534 -0.04000
C 	C 	0.57832 0.68866 0.06904 -0.01700
H 	H 	0.56488 0.67705 0.94481 0.04100
H 	H 	0.59417 0.68918 0.09056 0.02600
O 	O 	0.53442 0.25991 0.89751 -0.37800
C 	C 	0.58227 0.68048 0.96630 -0.04300
O 	O 	0.53597 0.36039 0.65594 -0.37700
O 	O 	0.54794 0.23775 0.67175 -0.39500
C 	C 	0.60979 0.70116 0.21863 -0.02300
C 	C 	0.57568 0.75247 0.35110 -0.07500
C 	C 	0.57595 0.81511 0.33199 -0.01900
C 	C 	0.54013 0.94950 0.55518 0.00100
C 	C 	0.47431 0.44276 0.48488 0.01700
C 	C 	0.48517 0.50529 0.46431 -0.02200
C 	C 	0.56507 0.08436 0.08332 0.03800
C 	C 	0.59202 0.03439 0.10136 -0.05600
H 	H 	0.52209 0.30255 0.02796 0.03800
H 	H 	0.48398 0.21879 0.54567 0.04100
Ni	Ni	0.56213 0.19130 0.63576 1.12100
C 	C 	0.58721 0.82809 0.23416 0.04000
C 	C 	0.58977 0.13004 0.50353 -0.02500
C 	C 	0.48911 0.31153 0.50087 -0.04600
C 	C 	0.55801 0.22325 0.07103 -0.03300
C 	C 	0.58800 0.17596 0.08907 -0.05200
C 	C 	0.62504 0.68820 0.02210 -0.00400
C 	C 	0.64584 0.69024 0.05004 0.01300
Ni	Ni	0.59111 0.35142 0.92971 1.11300
O 	O 	0.57501 0.18650 0.97555 -0.38300
O 	O 	0.57224 0.37464 0.60003 -0.38700
C 	C 	0.60041 0.08650 0.52673 -0.01600
C 	C 	0.50184 0.37479 0.48041 -0.04100
H 	H 	0.51324 0.50014 0.44458 0.04500
H 	H 	0.57930 0.29483 0.07509 0.03900
H 	H 	0.62141 0.06239 0.12137 0.04800
O 	O 	0.58513 0.13737 0.60202 -0.38400
H 	H 	0.64576 0.19981 0.49863 0.03300
H 	H 	0.51253 0.26084 0.49732 0.03800
H 	H 	0.63066 0.21119 0.10708 0.04500
C 	C 	0.66416 0.67236 0.97508 0.02100
H 	H 	0.53375 0.37125 0.46119 0.03900
O 	O 	0.62768 0.12682 0.65569 -0.37400
C 	C 	0.66218 0.74585 0.35464 0.03700
S 	S 	0.66271 0.66090 0.37582 -0.03300
C 	C 	0.61992 0.99958 0.57313 0.00800
H 	H 	0.69355 0.17146 0.72734 0.04600
C 	C 	0.68742 0.67932 0.00300 -0.00900
O 	O 	0.01731 0.17324 0.29822 -0.39000
Ni	Ni	0.63978 0.18577 0.94054 1.12100
O 	O 	0.67206 0.45775 0.90185 -0.37200
O 	O 	0.66085 0.45032 0.95936 -0.38200
C 	C 	0.70705 0.74596 0.22880 0.03800
H 	H 	0.77336 0.64169 0.24663 0.04200
C 	C 	0.66534 0.88567 0.32188 0.03900
S 	S 	0.66686 0.98450 0.30836 -0.01400
H 	H 	0.69818 0.05188 0.32804 0.02800
H 	H 	0.68281 0.69350 0.40204 0.04400
H 	H 	0.62633 0.96685 0.59149 0.04300
H 	H 	0.84379 0.34951 0.83818 0.04800
H 	H 	0.65526 0.47769 0.84153 0.04500
O 	O 	0.68381 0.31459 0.93881 -0.71400
Ni	Ni	0.65999 0.41015 0.63255 1.12000
O 	O 	0.67530 0.30472 0.62631 -0.71400
H 	H 	0.67062 0.30080 0.60632 0.15700
C 	C 	0.68471 0.87398 0.24390 -0.02100
S 	S 	0.78137 0.69391 0.22430 -0.03600
C 	C 	0.67396 0.09639 0.57115 -0.08200
C 	C 	0.67695 0.13597 0.54572 -0.01200
H 	H 	0.71228 0.05768 0.78461 0.03900
C 	C 	0.73104 0.68768 0.05870 -0.03800
C 	C 	0.71452 0.64472 0.95689 -0.02700
H 	H 	0.69298 0.63392 0.93559 0.04500
H 	H 	0.65607 0.63612 0.79697 0.03600
S 	S 	0.01832 0.16888 0.17864 -0.04300
H 	H 	0.74865 0.69120 0.08017 0.03700
H 	H 	0.69133 0.32947 0.95832 0.15600
C 	C 	0.67260 0.14825 0.59502 0.28600
O 	O 	0.69053 0.17916 0.90393 -0.39400
C 	C 	0.74615 0.83475 0.24059 -0.07200
H 	H 	0.71382 0.94166 0.25321 0.04600
S 	S 	0.78530 0.13547 0.77255 -0.03100
C 	C 	0.73162 0.13605 0.71969 -0.01900
S 	S 	0.70423 0.58642 0.79321 -0.03700
C 	C 	0.70224 0.16966 0.67288 0.30800
H 	H 	0.72686 0.20930 0.54284 0.03600
H 	H 	0.72540 0.45270 0.04449 0.04100
H 	H 	0.72432 0.35669 0.00641 0.03800
C 	C 	0.75001 0.80919 0.34178 -0.02200
C 	C 	0.76669 0.66669 0.01202 0.02100
C 	C 	0.73229 0.53101 0.84313 -0.01900
C 	C 	0.75278 0.51827 0.95697 0.28300
C 	C 	0.74374 0.46158 0.88659 0.30800
C 	C 	0.75390 0.88213 0.32625 -0.07700
H 	H 	0.74429 0.38961 0.72949 0.04700
C 	C 	0.77379 0.60912 0.96716 -0.05300
H 	H 	0.71635 0.42454 0.54309 0.04200
O 	O 	0.73648 0.43908 0.66763 -0.39000
H 	H 	0.69970 0.37052 0.49551 0.03800
C 	C 	0.79070 0.67526 0.03980 -0.04500
S 	S 	0.91626 0.34004 0.85140 -0.03400
O 	O 	0.76415 0.25743 0.67015 -0.38000
C 	C 	0.72842 0.11681 0.69179 -0.08100
C 	C 	0.78811 0.11473 0.73754 0.03300
H 	H 	0.01705 0.09871 0.16356 0.03500
O 	O 	0.77947 0.40626 0.89107 -0.38700
O 	O 	0.76364 0.20890 0.96150 -0.37800
O 	O 	0.75114 0.18789 0.61178 -0.36800
O 	O 	0.78437 0.48783 0.60909 -0.36900
C 	C 	0.76686 0.33380 0.01847 -0.02200
C 	C 	0.81186 0.63399 0.99365 -0.02900
C 	C 	0.78921 0.53299 0.86555 -0.08100
C 	C 	0.77491 0.59628 0.82243 0.03800
C 	C 	0.77406 0.43460 0.05555 -0.04400
H 	H 	0.81587 0.80290 0.34443 0.04200
C 	C 	0.78512 0.22066 0.89842 0.30900
H 	H 	0.80621 0.53687 0.08673 0.03800
Ni	Ni	0.81852 0.38972 0.92879 1.12100
O 	O 	0.82143 0.50967 0.94262 -0.37000
Ni	Ni	0.80077 0.31611 0.63223 1.11300
C 	C 	0.79632 0.45858 0.54121 -0.02800
C 	C 	0.81582 0.28489 0.97645 0.28000
C 	C 	0.77868 0.39589 0.49514 -0.04300
S 	S 	0.84535 0.44362 0.72944 -0.03000
C 	C 	0.79560 0.36769 0.04502 0.01800
C 	C 	0.87597 0.22175 0.85629 0.04300
C 	C 	0.80473 0.28125 0.00614 -0.05900
C 	C 	0.83241 0.47663 0.66795 0.30800
C 	C 	0.81993 0.45288 0.59041 0.27700
H 	H 	0.77322 0.33730 0.45560 0.03800
H 	H 	0.85299 0.66830 0.04689 0.04200
H 	H 	0.94275 0.21005 0.81932 0.04800
C 	C 	0.81987 0.48236 0.07955 -0.04200
C 	C 	0.85057 0.88774 0.24936 0.29200
H 	H 	0.86450 0.61386 0.00107 0.04400
C 	C 	0.84953 0.95019 0.31365 0.30400
C 	C 	0.82076 0.17512 0.87935 -0.08200
C 	C 	0.89768 0.17334 0.83663 -0.02800
O 	O 	0.84920 0.29366 0.91265 -0.37500
O 	O 	0.86365 0.36710 0.96482 -0.37500
O 	O 	0.84494 0.38987 0.59685 -0.37300
O 	O 	0.84950 0.99979 0.29271 -0.37700
O 	O 	0.83736 0.96912 0.80297 -0.34900
C 	C 	0.83863 0.44706 0.51724 0.01700
C 	C 	0.85618 0.49940 0.56434 -0.05600
C 	C 	0.84403 0.07510 0.72730 -0.07300
C 	C 	0.77655 0.06928 0.68210 0.03600
C 	C 	0.87804 0.54970 0.71363 0.04100
C 	C 	0.82047 0.37648 0.47253 -0.04200
O 	O 	0.87682 0.44623 0.65145 -0.36500
O 	O 	0.85498 0.77530 0.75150 -0.36800
H 	H 	0.87681 0.61638 0.75117 0.05400
C 	C 	0.85421 0.24660 0.02211 -0.02200
Ni	Ni	0.86379 0.88000 0.77746 1.11500
O 	O 	0.85825 0.79480 0.80852 -0.37300
O 	O 	0.88413 0.85112 0.26798 -0.37700
C 	C 	0.88953 0.55851 0.68521 -0.07900
C 	C 	0.88825 0.62433 0.72940 -0.02300
C 	C 	0.85615 0.34238 0.06004 -0.00700
C 	C 	0.87435 0.66751 0.82483 -0.07200
C 	C 	0.89124 0.59932 0.86667 0.04300
O 	O 	0.87513 0.95618 0.74351 -0.36300
C 	C 	0.86316 0.07811 0.83933 -0.06200
O 	O 	0.90419 0.97424 0.24109 -0.38000
H 	H 	0.88497 0.82867 0.66512 0.03900
H 	H 	0.88013 0.20305 0.01282 0.04300
C 	C 	0.78722 0.08004 0.88222 -0.01100
C 	C 	0.88082 0.27751 0.04911 0.01700
C 	C 	0.88806 0.46402 0.09319 0.01600
C 	C 	0.89527 0.04193 0.74567 0.28700
C 	C 	0.83632 0.05144 0.69962 -0.02600
C 	C 	0.92510 0.64602 0.67349 -0.02400
C 	C 	0.91298 0.70909 0.71720 -0.07900
H 	H 	0.74411 0.04372 0.89985 0.03400
O 	O 	0.93071 0.94965 0.32073 -0.38600
C 	C 	0.80745 0.03133 0.86227 0.01500
C 	C 	0.91063 0.75132 0.80831 0.29000
C 	C 	0.90036 0.03317 0.82061 0.27100
S 	S 	0.76238 0.03130 0.64808 -0.04100
H 	H 	0.93601 0.65372 0.65170 0.04800
C 	C 	0.90182 0.39011 0.08432 -0.00800
C 	C 	0.92529 0.78718 0.73435 0.31300
C 	C 	0.93513 0.72093 0.68920 0.03700
C 	C 	0.93283 0.66625 0.84637 -0.01800
C 	C 	0.92299 0.40894 0.47163 0.01800
C 	C 	0.94170 0.48140 0.51620 -0.00000
C 	C 	0.95945 0.55002 0.56107 -0.00900
S 	S 	0.96708 0.60152 0.89373 -0.06500
H 	H 	0.94670 0.58661 0.11851 0.04400
H 	H 	0.84113 0.09430 0.63324 0.03900
H 	H 	0.96934 0.66079 0.91356 0.05000
H 	H 	0.92180 0.36544 0.43011 0.03900
C 	C 	0.95132 0.52529 0.11326 -0.02100
O 	O 	0.95527 0.09595 0.76505 -0.37100
Ni	Ni	0.96624 0.07787 0.26818 1.11300
S 	S 	0.96874 0.82697 0.67322 -0.02000
S 	S 	0.76445 0.91235 0.86656 -0.02100
C 	C 	0.94130 0.25280 0.06421 -0.04100
S 	S 	0.96542 0.41656 0.35876 -0.02900
H 	H 	0.87536 0.01714 0.69182 0.04700
H 	H 	0.95779 0.20063 0.05651 0.04100
H 	H 	0.00972 0.71993 0.84801 0.03900
H 	H 	0.96764 0.37478 0.38245 0.04300
C 	C 	0.97099 0.37198 0.09775 0.02100
C 	C 	0.98586 0.29957 0.08847 -0.04000
O 	O 	0.98020 0.76873 0.78960 -0.36900
Ni	Ni	0.00435 0.91844 0.29341 1.12300
H 	H 	0.00588 0.58775 0.57832 0.03900
C 	C 	0.96724 0.39841 0.44792 -0.02100
C 	C 	0.98343 0.46009 0.49377 -0.00700
H 	H 	0.98484 0.27165 0.33287 0.05100
C 	C 	0.00273 0.53534 0.53789 0.00600
