data_crystal

_cell_length_a 22.36462
_cell_length_b 23.33643
_cell_length_c 31.91494
_cell_angle_alpha 60.96565
_cell_angle_beta  118.71887
_cell_angle_gamma 133.16976

_symmetry_space_group_name_	'P 1'
_symmetry_space_group_name_H-M	'P 1'

loop_
_symmetry_equiv_pos_as_xyz
  x,y,z

loop_
_atom_site_label
_atom_site_type_symbol
_atom_site_fract_x
_atom_site_fract_y
_atom_site_fract_z
_atom_site_charge
C 	C 	0.26031 0.65991 0.19855 0.13400
N 	N 	0.34416 0.71012 0.19981 -0.13100
C 	C 	0.37883 0.68536 0.19363 0.14100
N 	N 	0.33028 0.61135 0.18589 -0.13400
C 	C 	0.24709 0.56085 0.18419 0.13800
N 	N 	0.21107 0.58464 0.19052 -0.13100
C 	C 	0.29143 0.65469 0.70404 0.13500
N 	N 	0.23797 0.57906 0.69590 -0.13100
C 	C 	0.26188 0.55881 0.67621 0.13900
N 	N 	0.33674 0.61379 0.66384 -0.13500
C 	C 	0.39258 0.68568 0.67561 0.14100
N 	N 	0.37026 0.70678 0.69570 -0.12900
Co	Co	0.04479 0.02458 0.05844 1.16700
Co	Co	0.00125 0.09064 0.10534 1.17700
C 	C 	0.21017 0.08646 0.05571 0.33500
Co	Co	0.08866 0.91089 0.06972 1.19000
O 	O 	0.04214 0.11594 0.04909 -0.46200
C 	C 	0.10285 0.20409 0.17488 0.31200
C 	C 	0.15217 0.87953 0.17558 0.31300
O 	O 	0.99535 0.89410 0.00603 -0.37400
O 	O 	0.05804 0.14536 0.20796 -0.37600
O 	O 	0.10434 0.18784 0.14038 -0.37100
O 	O 	0.17612 0.93366 0.13519 -0.37200
O 	O 	0.09829 0.86926 0.19054 -0.36200
O 	O 	0.03388 0.93639 0.08997 -0.72600
C 	C 	0.96861 0.96968 0.27651 0.30200
O 	O 	0.16372 0.02945 0.03325 -0.41300
O 	O 	0.17515 0.09064 0.07649 -0.40600
Co	Co	0.06478 0.00901 0.56726 1.16100
Co	Co	0.00315 0.06780 0.60723 1.17400
C 	C 	0.22911 0.03461 0.57990 0.26300
Co	Co	0.06978 0.87421 0.56662 1.17800
O 	O 	0.05971 0.09954 0.55696 -0.46400
C 	C 	0.06201 0.19650 0.64715 0.32400
C 	C 	0.09713 0.79380 0.67169 0.32700
O 	O 	0.08717 0.96139 0.50087 -0.38000
O 	O 	0.98222 0.15529 0.64459 -0.39700
O 	O 	0.08779 0.17228 0.63352 -0.37900
O 	O 	0.05583 0.78049 0.62818 -0.40600
O 	O 	0.08969 0.83161 0.68706 -0.36800
O 	O 	0.04342 0.91664 0.59530 -0.74200
C 	C 	0.00018 0.98755 0.77761 0.35400
O 	O 	0.19333 0.95584 0.59584 -0.34800
O 	O 	0.19283 0.06714 0.57368 -0.37400
C 	C 	0.06088 0.96736 0.91685 0.08800
C 	C 	0.05466 0.96587 0.87082 0.00700
H 	H 	0.09881 0.96286 0.86802 0.07000
N 	N 	0.12522 0.96439 0.95820 -0.00100
O 	O 	0.10855 0.89485 0.98798 -0.12500
O 	O 	0.20317 0.02812 0.96048 -0.12700
C 	C 	0.06229 0.03705 0.34783 0.06800
C 	C 	0.06532 0.04485 0.39054 -0.07600
H 	H 	0.11876 0.09948 0.40344 0.07100
N 	N 	0.12753 0.10309 0.32152 -0.02000
O 	O 	0.15453 0.17700 0.31312 -0.10100
O 	O 	0.16358 0.08989 0.30869 -0.10300
C 	C 	0.21387 0.47736 0.67332 -0.01600
C 	C 	0.18304 0.41304 0.66860 0.00400
C 	C 	0.15013 0.34005 0.66141 0.06900
C 	C 	0.11645 0.27617 0.65470 -0.09700
C 	C 	0.25972 0.68461 0.71254 -0.01200
C 	C 	0.23126 0.71161 0.71553 0.00500
C 	C 	0.19277 0.74392 0.71203 0.06900
C 	C 	0.15313 0.76967 0.70006 -0.09400
C 	C 	0.13226 0.28459 0.16926 -0.08900
C 	C 	0.15102 0.34727 0.16909 0.06500
C 	C 	0.17325 0.41864 0.17256 0.00500
C 	C 	0.19954 0.48142 0.17739 -0.01600
C 	C 	0.16349 0.81638 0.19324 -0.09000
C 	C 	0.17763 0.77005 0.20020 0.06700
C 	C 	0.19942 0.72326 0.20240 0.00600
C 	C 	0.22328 0.69013 0.20144 -0.01200
C 	C 	0.31259 0.08669 0.57274 -0.08700
C 	C 	0.38199 0.12496 0.56726 0.05100
C 	C 	0.46335 0.16758 0.56189 0.00400
C 	C 	0.45180 0.18671 0.07424 -0.00300
C 	C 	0.37094 0.15744 0.07206 0.07300
C 	C 	0.29922 0.12933 0.06697 -0.11000
C 	C 	0.70835 0.29095 0.04590 0.13000
N 	N 	0.76183 0.36658 0.05405 -0.13300
C 	C 	0.73805 0.38679 0.07385 0.13700
N 	N 	0.66329 0.33177 0.08633 -0.13600
C 	C 	0.60738 0.25990 0.07454 0.13500
N 	N 	0.62959 0.23884 0.05434 -0.13500
C 	C 	0.73954 0.28554 0.55164 0.13100
N 	N 	0.78872 0.36083 0.55962 -0.13100
C 	C 	0.75264 0.38457 0.56595 0.13600
N 	N 	0.66946 0.33400 0.56430 -0.13500
C 	C 	0.62098 0.25998 0.55660 0.13900
N 	N 	0.65570 0.23527 0.55042 -0.13500
Co	Co	0.93512 0.93633 0.18290 1.19100
Co	Co	0.99647 0.87760 0.14270 1.17800
Co	Co	0.92980 0.07098 0.18348 1.16400
C 	C 	0.93799 0.74904 0.10296 0.31400
O 	O 	0.94356 0.16465 0.12189 -0.41400
O 	O 	0.95634 0.02870 0.15481 -0.77800
C 	C 	0.90218 0.15135 0.07837 0.32600
O 	O 	0.94030 0.84587 0.19319 -0.45100
C 	C 	0.77065 0.91046 0.17030 0.31000
O 	O 	0.97055 0.97098 0.11352 -0.56000
C 	C 	0.99989 0.95795 0.97254 0.30600
O 	O 	0.90989 0.11394 0.06284 -0.38500
O 	O 	0.00599 0.01061 0.98463 -0.37500
O 	O 	0.80632 0.98920 0.15427 -0.36700
O 	O 	0.80706 0.87800 0.17661 -0.36500
O 	O 	0.91260 0.98386 0.24926 -0.38600
O 	O 	0.99758 0.95722 0.25577 -0.35100
O 	O 	0.01780 0.79024 0.10556 -0.38800
O 	O 	0.91217 0.77323 0.11658 -0.37600
Co	Co	0.95518 0.92084 0.69173 1.18900
Co	Co	0.99825 0.85486 0.64455 1.17800
Co	Co	0.91137 0.03462 0.68043 1.17500
C 	C 	0.89672 0.74131 0.57520 0.31100
O 	O 	0.82383 0.01183 0.61497 -0.40000
O 	O 	0.96617 0.00911 0.66020 -0.76700
C 	C 	0.84764 0.06595 0.57453 0.31300
O 	O 	0.95777 0.82947 0.70103 -0.45300
C 	C 	0.78984 0.85905 0.69449 0.33400
O 	O 	0.02949 0.97484 0.63662 -0.54700
C 	C 	0.03131 0.97575 0.47360 0.29400
O 	O 	0.90140 0.07623 0.55946 -0.37900
O 	O 	0.00240 0.98827 0.49434 -0.33700
O 	O 	0.83634 0.91609 0.71694 -0.37800
O 	O 	0.82481 0.85481 0.67371 -0.38700
O 	O 	0.00473 0.05141 0.74411 -0.40600
O 	O 	0.99409 0.93489 0.76553 -0.36300
O 	O 	0.94153 0.80006 0.54212 -0.37300
O 	O 	0.89541 0.75753 0.60980 -0.37000
C 	C 	0.94543 0.97966 0.87932 -0.04400
C 	C 	0.00569 0.97419 0.92157 -0.02800
C 	C 	0.99439 0.97134 0.82858 -0.09500
C 	C 	0.93921 0.97818 0.83329 0.11500
N 	N 	0.87488 0.98118 0.79194 -0.01100
H 	H 	0.90127 0.98267 0.88213 0.08000
O 	O 	0.79692 0.91748 0.78968 -0.09100
O 	O 	0.89158 0.05072 0.76215 -0.16200
C 	C 	0.93461 0.90061 0.35957 -0.02300
C 	C 	0.99525 0.96509 0.33103 -0.04000
C 	C 	0.00467 0.98038 0.41908 -0.00500
C 	C 	0.93762 0.90843 0.40227 0.07100
N 	N 	0.87237 0.84240 0.42857 -0.01900
H 	H 	0.88118 0.84598 0.34668 0.06700
O 	O 	0.83632 0.85564 0.44138 -0.08800
O 	O 	0.84532 0.76848 0.43696 -0.09700
C 	C 	0.47854 0.73030 0.67573 -0.01200
C 	C 	0.54822 0.75889 0.67598 0.00800
C 	C 	0.62908 0.78814 0.67816 0.07900
C 	C 	0.70079 0.81621 0.68324 -0.09400
C 	C 	0.46553 0.73873 0.19169 -0.01500
C 	C 	0.53648 0.77759 0.18840 0.00900
C 	C 	0.61782 0.82012 0.18302 0.06700
C 	C 	0.68719 0.85834 0.17751 -0.08700
C 	C 	0.83632 0.12907 0.55695 -0.10200
C 	C 	0.82222 0.17541 0.55000 0.06200
C 	C 	0.80046 0.22223 0.54780 -0.00100
C 	C 	0.77662 0.25537 0.54876 -0.01700
C 	C 	0.80013 0.46401 0.57270 -0.01700
C 	C 	0.82638 0.52680 0.57751 0.00500
C 	C 	0.84857 0.59816 0.58096 0.06500
C 	C 	0.86732 0.66083 0.58079 -0.08900
C 	C 	0.53430 0.20653 0.55858 -0.02400
C 	C 	0.74001 0.26103 0.03739 -0.01900
C 	C 	0.76845 0.23400 0.03441 -0.00500
C 	C 	0.80688 0.20161 0.03795 0.06100
C 	C 	0.84641 0.17574 0.04997 -0.10700
C 	C 	0.78605 0.46824 0.07671 -0.01900
C 	C 	0.81690 0.53256 0.08143 0.00300
C 	C 	0.84985 0.60555 0.08863 0.06600
C 	C 	0.88356 0.66942 0.09536 -0.09400
C 	C 	0.52147 0.21530 0.07448 -0.02000
