data_crystal

_cell_length_a 17.31093
_cell_length_b 17.52971
_cell_length_c 25.80716
_cell_angle_alpha 90.00000
_cell_angle_beta  90.00000
_cell_angle_gamma 90.05249

_symmetry_space_group_name_	'P 1'
_symmetry_space_group_name_H-M	'P 1'

loop_
_symmetry_equiv_pos_as_xyz
  x,y,z

loop_
_atom_site_label
_atom_site_type_symbol
_atom_site_fract_x
_atom_site_fract_y
_atom_site_fract_z
_atom_site_charge
Co	Co	0.92649 0.04475 0.00230 1.18200
Co	Co	0.92894 0.88459 0.00339 1.18100
Co	Co	0.75948 0.96168 0.00763 1.17100
O 	O 	0.16311 0.96883 0.00824 -0.76700
O 	O 	0.88131 0.96380 0.01674 -0.79200
O 	O 	0.02352 0.96653 0.02849 -0.55200
O 	O 	0.18978 0.82045 0.04148 -0.37500
O 	O 	0.18474 0.11842 0.04059 -0.37800
H 	H 	0.27162 0.23481 0.04696 0.10900
O 	O 	0.86345 0.81435 0.04998 -0.40100
O 	O 	0.30091 0.88999 0.05077 -0.37800
O 	O 	0.85798 0.11359 0.04846 -0.39200
O 	O 	0.29987 0.05453 0.04766 -0.37400
O 	O 	0.75101 0.87926 0.06522 -0.38300
C 	C 	0.24484 0.84876 0.07117 0.30000
O 	O 	0.74836 0.04422 0.06475 -0.38000
C 	C 	0.24317 0.09379 0.06892 0.30100
C 	C 	0.81041 0.83948 0.08241 0.30100
C 	C 	0.80605 0.08703 0.08131 0.30100
N 	N 	0.26587 0.25592 0.08456 -0.20300
H 	H 	0.26684 0.31506 0.08970 0.09200
H 	H 	0.81405 0.68934 0.10225 0.04600
H 	H 	0.37446 0.78302 0.10638 0.05000
C 	C 	0.25681 0.81529 0.12300 -0.10700
C 	C 	0.25668 0.12847 0.12008 -0.10900
C 	C 	0.26341 0.20855 0.12631 0.13500
C 	C 	0.32857 0.78252 0.13499 -0.02000
H 	H 	0.12197 0.88801 0.11964 0.07200
H 	H 	0.67878 0.15374 0.11898 0.05000
C 	C 	0.80404 0.80292 0.13367 -0.11400
C 	C 	0.80581 0.72305 0.13706 -0.02200
H 	H 	0.93586 0.05757 0.12440 0.06000
C 	C 	0.79820 0.12452 0.13218 -0.10700
H 	H 	0.81056 0.57680 0.15389 0.08100
H 	H 	0.81871 0.95283 0.14480 0.08100
C 	C 	0.72656 0.15584 0.14613 -0.02100
H 	H 	0.45715 0.72261 0.16757 0.08500
N 	N 	0.12957 0.85306 0.15198 -0.20200
C 	C 	0.19713 0.81546 0.16058 0.12300
H 	H 	0.26007 0.01917 0.15825 0.04200
C 	C 	0.26379 0.08053 0.16329 -0.02400
N 	N 	0.92904 0.09228 0.15692 -0.20100
C 	C 	0.34169 0.74918 0.18364 0.05900
C 	C 	0.86067 0.12719 0.16766 0.11500
C 	C 	0.79364 0.84704 0.17911 0.11900
C 	C 	0.79660 0.68628 0.18496 0.05600
N 	N 	0.80129 0.60885 0.18747 -0.19200
C 	C 	0.27093 0.23914 0.17631 -0.09800
H 	H 	0.27349 0.30050 0.18148 0.06000
N 	N 	0.41297 0.72116 0.19516 -0.19200
H 	H 	0.08484 0.85038 0.17913 0.09000
H 	H 	0.59854 0.21224 0.18234 0.08300
N 	N 	0.79923 0.92442 0.17780 -0.20300
C 	C 	0.71567 0.18893 0.19505 0.06000
H 	H 	0.97552 0.09693 0.18259 0.07000
C 	C 	0.20892 0.77834 0.20813 -0.09500
N 	N 	0.64448 0.21524 0.20855 -0.19200
C 	C 	0.28073 0.74591 0.22016 0.00100
H 	H 	0.79686 0.57972 0.22261 0.08300
H 	H 	0.42585 0.69930 0.23177 0.08600
H 	H 	0.78809 0.95676 0.21100 0.08000
C 	C 	0.27645 0.11097 0.21287 0.06200
H 	H 	0.42286 0.22186 0.22221 0.08700
C 	C 	0.85088 0.16415 0.21546 -0.09500
C 	C 	0.78035 0.81017 0.22652 -0.09800
C 	C 	0.78300 0.73044 0.23001 -0.00100
C 	C 	0.27868 0.19118 0.21948 0.00200
H 	H 	0.27740 0.59550 0.23827 0.06000
H 	H 	0.16268 0.77646 0.23647 0.06100
C 	C 	0.77875 0.19367 0.22981 -0.00200
H 	H 	0.63351 0.23762 0.24530 0.08500
H 	H 	0.78362 0.34312 0.25050 0.05400
N 	N 	0.42326 0.25276 0.25678 -0.19200
H 	H 	0.89891 0.16770 0.24235 0.04900
H 	H 	0.65297 0.66858 0.26733 0.05500
H 	H 	0.28376 0.00395 0.24859 0.08600
C 	C 	0.28715 0.62802 0.27342 -0.09600
C 	C 	0.29106 0.70782 0.27091 0.00200
H 	H 	0.77070 0.84374 0.26123 0.05300
H 	H 	0.91863 0.73799 0.26760 0.07800
H 	H 	0.47517 0.27812 0.26829 0.07900
N 	N 	0.28731 0.06301 0.25370 -0.19200
H 	H 	0.31019 0.85777 0.27996 0.08400
H 	H 	0.29251 0.48094 0.28723 0.08900
C 	C 	0.77295 0.69398 0.28125 0.00000
C 	C 	0.28798 0.22576 0.27148 0.00400
C 	C 	0.35931 0.25795 0.28726 0.05600
C 	C 	0.77004 0.22970 0.28130 0.00000
C 	C 	0.77304 0.30940 0.28503 -0.09900
H 	H 	0.76503 0.45591 0.30068 0.08300
C 	C 	0.70037 0.66449 0.29467 -0.09700
N 	N 	0.90682 0.71483 0.30401 -0.19200
C 	C 	0.22436 0.22777 0.30506 -0.10000
H 	H 	0.17024 0.20189 0.29320 0.06400
H 	H 	0.30125 0.08350 0.29051 0.09000
C 	C 	0.29895 0.58973 0.32052 0.12500
C 	C 	0.30514 0.75054 0.31653 0.05800
N 	N 	0.30348 0.51224 0.32093 -0.20300
N 	N 	0.31215 0.82785 0.31490 -0.19100
H 	H 	0.75786 0.07879 0.28847 0.08500
C 	C 	0.83526 0.68839 0.31658 0.05300
H 	H 	0.57459 0.59743 0.32590 0.07900
N 	N 	0.75257 0.42344 0.33362 -0.20300
H 	H 	0.95215 0.71126 0.33065 0.07200
C 	C 	0.75818 0.34607 0.33229 0.12100
C 	C 	0.36424 0.29499 0.33539 -0.02300
C 	C 	0.75555 0.18532 0.32614 0.05500
C 	C 	0.68934 0.62686 0.34209 0.11900
H 	H 	0.32206 0.48265 0.35370 0.08700
N 	N 	0.75145 0.10786 0.32350 -0.19200
H 	H 	0.41788 0.32226 0.34679 0.02800
N 	N 	0.62059 0.59193 0.35187 -0.20200
H 	H 	0.32124 0.85893 0.34893 0.08200
H 	H 	0.73173 0.45172 0.36628 0.08500
C 	C 	0.82317 0.65442 0.36511 -0.02000
C 	C 	0.30887 0.63252 0.36661 -0.11000
C 	C 	0.31253 0.71242 0.36412 -0.02000
C 	C 	0.23105 0.25978 0.35470 0.13700
C 	C 	0.75096 0.62351 0.37820 -0.11300
C 	C 	0.30051 0.29720 0.36887 -0.11400
H 	H 	0.74108 0.07568 0.35689 0.08200
H 	H 	0.61312 0.55619 0.38382 0.06400
C 	C 	0.74601 0.30177 0.37747 -0.11500
C 	C 	0.74475 0.22190 0.37396 -0.02200
H 	H 	0.87035 0.65165 0.39270 0.04100
H 	H 	0.11965 0.22754 0.37747 0.09500
H 	H 	0.32076 0.74514 0.39936 0.04800
N 	N 	0.17222 0.25133 0.38918 -0.20400
C 	C 	0.31238 0.59457 0.41759 0.30100
C 	C 	0.30678 0.34061 0.41761 0.30200
C 	C 	0.74114 0.58675 0.42915 0.30200
H 	H 	0.73547 0.18805 0.40859 0.04500
C 	C 	0.73669 0.33820 0.42856 0.30200
O 	O 	0.25231 0.55378 0.43266 -0.37800
O 	O 	0.25145 0.38953 0.42947 -0.38500
O 	O 	0.79743 0.54322 0.44685 -0.39200
O 	O 	0.79481 0.37847 0.44723 -0.38900
H 	H 	0.17972 0.26325 0.42849 0.10600
O 	O 	0.36338 0.61900 0.45176 -0.39400
O 	O 	0.68781 0.61330 0.46086 -0.39400
O 	O 	0.35599 0.31655 0.45305 -0.39400
O 	O 	0.68171 0.31311 0.45956 -0.40100
O 	O 	0.52134 0.46587 0.47261 -0.58200
O 	O 	0.38014 0.46760 0.48314 -0.78500
Co	Co	0.25839 0.46907 0.48896 1.16600
O 	O 	0.66135 0.46345 0.49104 -0.78500
Co	Co	0.42727 0.54734 0.49866 1.18400
Co	Co	0.61524 0.54377 0.50382 1.18400
Co	Co	0.78221 0.46145 0.50444 1.16300
Co	Co	0.42438 0.38704 0.49785 1.18600
Co	Co	0.61225 0.38385 0.50290 1.18400
Co	Co	0.11403 0.04800 0.99681 1.18000
Co	Co	0.11633 0.88728 0.99772 1.17200
Co	Co	0.28320 0.96979 0.99230 1.14900
C 	C 	0.81246 0.06310 0.91822 0.31700
O 	O 	0.27800 0.88124 0.93781 -0.41000
C 	C 	0.21900 0.86966 0.90637 0.30900
O 	O 	0.02298 0.81858 0.99384 -0.47100
O 	O 	0.01879 0.11372 0.99259 -0.46500
C 	C 	0.21600 0.06465 0.90443 0.31200
C 	C 	0.81578 0.86106 0.91863 0.31600
O 	O 	0.14813 0.88579 0.92106 -0.41800
O 	O 	0.75854 0.87569 0.95098 -0.41300
O 	O 	0.88687 0.88253 0.92896 -0.43100
O 	O 	0.27557 0.05448 0.93562 -0.41000
O 	O 	0.14509 0.04984 0.92000 -0.40700
O 	O 	0.75632 0.04805 0.95131 -0.40400
O 	O 	0.88423 0.04375 0.92829 -0.42400
C 	C 	0.72234 0.56177 0.59192 0.31400
O 	O 	0.52223 0.61221 0.51016 -0.47800
O 	O 	0.51641 0.31881 0.50953 -0.47700
C 	C 	0.31020 0.56250 0.58261 0.30800
C 	C 	0.71884 0.36149 0.59144 0.31400
O 	O 	0.25674 0.55368 0.54650 -0.40100
O 	O 	0.38342 0.54815 0.57266 -0.41000
O 	O 	0.77836 0.37556 0.56082 -0.40600
O 	O 	0.64849 0.38249 0.57861 -0.41200
C 	C 	0.30665 0.36984 0.58010 0.31000
O 	O 	0.25372 0.38083 0.54402 -0.39900
O 	O 	0.37937 0.38746 0.57146 -0.41500
O 	O 	0.78062 0.54806 0.56025 -0.40600
O 	O 	0.65134 0.54255 0.57937 -0.41300
C 	C 	0.22775 0.10671 0.85543 -0.11600
C 	C 	0.19097 0.08400 0.80875 0.13400
C 	C 	0.19866 0.12965 0.76434 -0.09900
C 	C 	0.24653 0.19416 0.76464 0.00300
C 	C 	0.28500 0.21571 0.81078 0.05700
C 	C 	0.27459 0.17211 0.85582 -0.02100
N 	N 	0.15102 0.01729 0.80567 -0.19900
H 	H 	0.16986 0.11307 0.72875 0.06300
C 	C 	0.25914 0.23632 0.71569 0.00200
N 	N 	0.33207 0.27794 0.81210 -0.19100
H 	H 	0.30260 0.18959 0.89149 0.04200
C 	C 	0.21478 0.30151 0.70552 -0.09700
C 	C 	0.22938 0.34656 0.66158 0.12900
C 	C 	0.28746 0.32372 0.62608 -0.11500
C 	C 	0.33002 0.25710 0.63553 -0.01900
C 	C 	0.31704 0.21349 0.68023 0.05900
H 	H 	0.17039 0.31861 0.73280 0.06100
N 	N 	0.18916 0.41246 0.65467 -0.20500
H 	H 	0.37409 0.23950 0.60815 0.04200
N 	N 	0.36080 0.15032 0.68906 -0.19200
H 	H 	0.14655 0.42861 0.68117 0.08900
H 	H 	0.20056 0.44904 0.62377 0.09300
H 	H 	0.40349 0.13410 0.66263 0.08500
H 	H 	0.35324 0.11680 0.72210 0.08800
H 	H 	0.36023 0.29329 0.84638 0.08100
H 	H 	0.34144 0.31159 0.77933 0.08700
H 	H 	0.15143 0.97781 0.83581 0.10000
H 	H 	0.12211 0.00246 0.77156 0.09500
C 	C 	0.73607 0.60649 0.63937 -0.11700
C 	C 	0.69441 0.67447 0.64953 0.12800
C 	C 	0.70549 0.71251 0.69677 -0.09900
C 	C 	0.76310 0.68882 0.73134 0.00100
C 	C 	0.80758 0.62306 0.72000 0.05300
C 	C 	0.79201 0.58136 0.67473 -0.02100
N 	N 	0.64669 0.70539 0.61328 -0.20200
H 	H 	0.67185 0.76308 0.70548 0.05500
C 	C 	0.77660 0.73374 0.77912 0.00100
N 	N 	0.86581 0.60034 0.75189 -0.19200
H 	H 	0.82422 0.52963 0.66671 0.03500
C 	C 	0.74935 0.70544 0.82652 -0.10100
C 	C 	0.76431 0.74452 0.87292 0.12600
C 	C 	0.80057 0.81705 0.87108 -0.12200
C 	C 	0.82527 0.84667 0.82341 -0.02100
C 	C 	0.81573 0.80475 0.77752 0.05200
H 	H 	0.71948 0.65105 0.82756 0.05500
N 	N 	0.74684 0.71069 0.91893 -0.20500
H 	H 	0.85335 0.90199 0.82213 0.03900
N 	N 	0.84525 0.83234 0.73236 -0.19200
H 	H 	0.71643 0.65916 0.91972 0.08000
H 	H 	0.76724 0.73232 0.95403 0.09100
H 	H 	0.87228 0.88567 0.73140 0.07300
H 	H 	0.84365 0.80058 0.69818 0.08200
H 	H 	0.89708 0.55078 0.74374 0.07200
H 	H 	0.88201 0.63237 0.78420 0.07900
H 	H 	0.64678 0.68631 0.57498 0.08600
H 	H 	0.61273 0.75283 0.62233 0.08500
C 	C 	0.73050 0.31722 0.63930 -0.11800
C 	C 	0.76554 0.24415 0.63828 0.12700
C 	C 	0.77873 0.20545 0.68504 -0.10000
C 	C 	0.75135 0.23501 0.73204 0.00000
C 	C 	0.71292 0.30635 0.73276 0.05600
C 	C 	0.70475 0.34764 0.68647 -0.02100
N 	N 	0.78375 0.20962 0.59265 -0.20500
H 	H 	0.80783 0.15069 0.68463 0.05400
C 	C 	0.76487 0.19148 0.78040 -0.00000
N 	N 	0.68287 0.33493 0.77745 -0.19200
H 	H 	0.67736 0.40327 0.68709 0.04500
C 	C 	0.82275 0.21604 0.81452 -0.09900
C 	C 	0.83587 0.17758 0.86136 0.12400
C 	C 	0.79550 0.10885 0.87172 -0.11700
C 	C 	0.73850 0.08349 0.83717 -0.02000
C 	C 	0.72126 0.12525 0.79220 0.05700
H 	H 	0.85556 0.26710 0.80556 0.05100
N 	N 	0.88458 0.20858 0.89702 -0.20200
H 	H 	0.70708 0.03134 0.84546 0.04100
N 	N 	0.66235 0.10208 0.76101 -0.19200
H 	H 	0.91737 0.25682 0.88783 0.07700
H 	H 	0.88664 0.18845 0.93505 0.07800
H 	H 	0.63184 0.05209 0.76938 0.08300
H 	H 	0.64478 0.13428 0.72911 0.08800
H 	H 	0.65649 0.38854 0.77781 0.08100
H 	H 	0.68335 0.30361 0.81185 0.08600
H 	H 	0.76512 0.23149 0.55718 0.09600
H 	H 	0.81309 0.15753 0.59247 0.08200
C 	C 	0.23053 0.82571 0.85819 -0.11500
C 	C 	0.28529 0.84839 0.82029 0.12400
C 	C 	0.29580 0.80313 0.77592 -0.09800
C 	C 	0.25020 0.73814 0.76754 0.00000
C 	C 	0.19366 0.71700 0.80448 0.06000
C 	C 	0.18514 0.76050 0.84974 -0.02000
N 	N 	0.32609 0.91436 0.82534 -0.20400
H 	H 	0.33857 0.81942 0.74727 0.05500
C 	C 	0.26295 0.69208 0.72021 0.00100
N 	N 	0.14707 0.65549 0.79658 -0.19200
H 	H 	0.14287 0.74353 0.87856 0.04500
C 	C 	0.31043 0.62755 0.72309 -0.09900
C 	C 	0.32206 0.58100 0.67954 0.12900
C 	C 	0.28978 0.60269 0.63118 -0.11500
C 	C 	0.24144 0.66687 0.62855 -0.02200
C 	C 	0.22706 0.71143 0.67271 0.06000
H 	H 	0.33660 0.61220 0.75982 0.05700
N 	N 	0.36157 0.51445 0.68490 -0.20500
H 	H 	0.21606 0.68315 0.59176 0.04900
N 	N 	0.17881 0.77248 0.66922 -0.19200
H 	H 	0.38762 0.50054 0.72019 0.08600
H 	H 	0.36306 0.47403 0.65539 0.10500
H 	H 	0.15311 0.78663 0.63385 0.08700
H 	H 	0.16562 0.80599 0.70145 0.09000
H 	H 	0.10598 0.63997 0.82434 0.08900
H 	H 	0.15019 0.62316 0.76269 0.09100
H 	H 	0.31595 0.95217 0.85574 0.08600
H 	H 	0.36702 0.92984 0.79748 0.08000
