data_crystal

_cell_length_a 19.65871
_cell_length_b 21.51660
_cell_length_c 31.24667
_cell_angle_alpha 60.76205
_cell_angle_beta  118.96305
_cell_angle_gamma 133.29661

_symmetry_space_group_name_	'P 1'
_symmetry_space_group_name_H-M	'P 1'

loop_
_symmetry_equiv_pos_as_xyz
  x,y,z

loop_
_atom_site_label
_atom_site_type_symbol
_atom_site_fract_x
_atom_site_fract_y
_atom_site_fract_z
_atom_site_charge
O 	O 	0.01424 0.08054 0.63775 -0.75100
Co	Co	0.02908 0.83621 0.04630 1.17300
C 	C 	0.01788 0.02033 0.75860 0.31600
Br	Br	0.01359 0.13240 0.87713 -0.10300
C 	C 	0.02852 0.61141 0.20248 0.10400
Br	Br	0.04279 0.66840 0.72556 -0.13800
Co	Co	0.05048 0.99035 0.05956 1.15100
Co	Co	0.97880 0.05907 0.09454 1.20500
O 	O 	0.06710 0.09724 0.05650 -0.41900
C 	C 	0.05484 0.18755 0.14613 0.32200
C 	C 	0.07693 0.76333 0.16092 0.33200
O 	O 	0.98834 0.89648 0.97491 -0.29900
O 	O 	0.96436 0.15687 0.13282 -0.37200
O 	O 	0.07964 0.15016 0.13892 -0.35100
O 	O 	0.05949 0.76031 0.11550 -0.37000
O 	O 	0.06656 0.81237 0.16761 -0.38700
O 	O 	0.99192 0.88008 0.07264 -0.73800
C 	C 	0.95427 0.96026 0.25975 0.28600
Co	Co	0.11731 0.06503 0.54710 1.20200
Co	Co	0.06193 0.14404 0.58641 1.19000
Co	Co	0.14687 0.92179 0.56290 1.17000
O 	O 	0.11199 0.16593 0.53239 -0.41200
C 	C 	0.16668 0.27244 0.65210 0.32300
C 	C 	0.20557 0.87852 0.67359 0.33200
O 	O 	0.04750 0.91400 0.49471 -0.36700
O 	O 	0.11343 0.20717 0.68491 -0.35500
O 	O 	0.16881 0.25781 0.61560 -0.33400
O 	O 	0.23980 0.93329 0.63298 -0.37500
O 	O 	0.14289 0.87374 0.68310 -0.35000
O 	O 	0.10288 0.96872 0.58195 -0.77800
C 	C 	0.10060 0.98141 0.90331 0.04800
C 	C 	0.08463 0.98108 0.85391 0.07700
Br	Br	0.09560 0.90524 0.84571 -0.14000
Br	Br	0.16249 0.92984 0.96022 -0.16000
C 	C 	0.09444 0.99726 0.39146 0.08200
C 	C 	0.06063 0.96901 0.34818 0.08100
Br	Br	0.13901 0.96046 0.33422 -0.15400
Br	Br	0.22895 0.05752 0.42367 -0.10000
C 	C 	0.21354 0.36281 0.65239 -0.09800
C 	C 	0.18379 0.41321 0.61042 0.10900
C 	C 	0.17620 0.46770 0.61762 0.08500
Br	Br	0.11073 0.51754 0.56283 -0.14600
C 	C 	0.15777 0.72532 0.70789 0.11300
Br	Br	0.07512 0.55584 0.69985 -0.12400
C 	C 	0.13631 0.32049 0.22284 0.08500
C 	C 	0.12735 0.26730 0.16571 -0.09500
C 	C 	0.13311 0.25967 0.21443 0.10800
Br	Br	0.16332 0.18288 0.27053 -0.12400
Br	Br	0.12465 0.30026 0.28692 -0.12200
Br	Br	0.89763 0.54958 0.20186 -0.12600
Br	Br	0.96665 0.45834 0.18376 -0.10400
Br	Br	0.97348 0.65245 0.04874 -0.17500
C 	C 	0.68329 0.22562 0.06135 0.17700
N 	N 	0.62617 0.15909 0.09430 -0.12000
C 	C 	0.59107 0.17338 0.11419 0.19100
N 	N 	0.61842 0.25603 0.10329 -0.12000
C 	C 	0.67330 0.32274 0.06953 0.17800
N 	N 	0.70535 0.30711 0.04827 -0.11600
C 	C 	0.78999 0.38689 0.49137 0.18400
N 	N 	0.69352 0.34425 0.47185 -0.11700
C 	C 	0.64534 0.36468 0.47582 0.18600
N 	N 	0.69566 0.43742 0.49156 -0.12300
C 	C 	0.79232 0.48408 0.50869 0.18400
N 	N 	0.83997 0.45719 0.51040 -0.11100
C 	C 	0.20399 0.58190 0.20903 0.17900
N 	N 	0.29584 0.64449 0.20315 -0.11500
C 	C 	0.34355 0.62172 0.20131 0.19100
N 	N 	0.29871 0.53805 0.20254 -0.12700
C 	C 	0.20402 0.47801 0.20093 0.18600
N 	N 	0.15633 0.49831 0.20617 -0.11200
C 	C 	0.29895 0.68673 0.68748 0.17400
N 	N 	0.24665 0.60116 0.68669 -0.11100
C 	C 	0.26995 0.58138 0.66267 0.18300
N 	N 	0.34673 0.64556 0.64195 -0.12600
C 	C 	0.40452 0.72781 0.64773 0.18800
N 	N 	0.37761 0.74967 0.66761 -0.12400
Co	Co	0.90142 0.89161 0.17128 1.19000
Co	Co	0.94840 0.81546 0.12558 1.19000
C 	C 	0.21462 0.98077 0.09568 0.22200
Co	Co	0.86124 0.02471 0.15875 1.19200
C 	C 	0.84773 0.67243 0.07258 0.32500
O 	O 	0.77640 0.01808 0.08687 -0.35300
O 	O 	0.91250 0.98634 0.13841 -0.77300
C 	C 	0.81461 0.08197 0.04878 0.31900
O 	O 	0.90980 0.79427 0.18407 -0.41800
C 	C 	0.71113 0.83060 0.17095 0.35300
O 	O 	0.93774 0.92859 0.09922 -0.56200
C 	C 	0.04084 0.98128 0.95904 0.19600
O 	O 	0.89065 0.10251 0.04153 -0.32900
O 	O 	0.06072 0.03077 0.98336 -0.26100
O 	O 	0.76062 0.89679 0.19014 -0.38800
O 	O 	0.75421 0.81568 0.15945 -0.36300
O 	O 	0.95558 0.02937 0.22825 -0.32300
O 	O 	0.96081 0.91526 0.24501 -0.32200
O 	O 	0.17126 0.94774 0.05645 -0.35500
O 	O 	0.17969 0.00884 0.10317 -0.31700
O 	O 	0.88564 0.73442 0.03463 -0.35200
O 	O 	0.84676 0.69153 0.10708 -0.33300
Co	Co	0.98984 0.98056 0.66761 1.18600
Co	Co	0.04526 0.90361 0.62961 1.17800
C 	C 	0.29914 0.11901 0.54005 0.34600
Co	Co	0.96796 0.12138 0.65972 1.19000
C 	C 	0.95694 0.76027 0.58537 0.36100
O 	O 	0.97959 0.21910 0.59430 -0.38200
C 	C 	0.93675 0.20177 0.55034 0.33400
O 	O 	0.98330 0.87537 0.67913 -0.41600
C 	C 	0.79590 0.94323 0.64425 0.30200
O 	O 	0.08069 0.03567 0.61660 -0.54500
C 	C 	0.05195 0.98410 0.46172 0.27200
O 	O 	0.94851 0.15716 0.53983 -0.33800
O 	O 	0.05112 0.03471 0.47492 -0.29600
O 	O 	0.82848 0.02658 0.63119 -0.32700
O 	O 	0.84289 0.92076 0.64276 -0.36500
O 	O 	0.95002 0.02980 0.72842 -0.34700
O 	O 	0.05133 0.00201 0.74151 -0.31600
O 	O 	0.24637 0.04578 0.52664 -0.35100
O 	O 	0.26352 0.13452 0.55713 -0.34900
O 	O 	0.04674 0.79155 0.59480 -0.40900
O 	O 	0.93644 0.80057 0.59336 -0.35400
C 	C 	0.04930 0.07543 0.86899 0.08600
C 	C 	0.07208 0.01993 0.91104 0.02400
C 	C 	0.05754 0.03359 0.81142 -0.04200
C 	C 	0.05052 0.08813 0.82021 0.11700
Br	Br	0.04828 0.18363 0.76674 -0.18400
C 	C 	0.94312 0.97114 0.37391 0.14100
C 	C 	0.03308 0.99208 0.40677 -0.10300
C 	C 	0.97092 0.94857 0.31503 -0.03800
C 	C 	0.91024 0.94525 0.32981 0.08900
Br	Br	0.78062 0.90225 0.29095 -0.15000
Br	Br	0.86732 0.98385 0.38698 -0.13300
C 	C 	0.25657 0.38317 0.69950 0.11700
C 	C 	0.22115 0.49000 0.66411 -0.03900
C 	C 	0.25439 0.44212 0.70604 0.08600
Br	Br	0.29883 0.45898 0.77211 -0.10300
Br	Br	0.31890 0.33044 0.75473 -0.11600
Br	Br	0.17010 0.41961 0.54353 -0.14300
C 	C 	0.66878 0.82966 0.69189 0.11100
C 	C 	0.69505 0.87543 0.64555 -0.09900
C 	C 	0.62390 0.86236 0.60030 0.12000
C 	C 	0.53012 0.82177 0.60058 0.08700
C 	C 	0.50494 0.78224 0.64693 -0.04700
C 	C 	0.57263 0.77973 0.69252 0.08800
Br	Br	0.53116 0.69869 0.75440 -0.11300
Br	Br	0.76324 0.83085 0.75411 -0.15200
Br	Br	0.43671 0.82108 0.53790 -0.12600
Br	Br	0.65254 0.89004 0.53980 -0.14100
C 	C 	0.34792 0.79068 0.72892 0.08200
C 	C 	0.27461 0.71229 0.71190 -0.03400
C 	C 	0.17797 0.67513 0.70619 0.07900
C 	C 	0.22997 0.81533 0.70601 -0.10800
C 	C 	0.32620 0.84550 0.72222 0.12000
Br	Br	0.42680 0.96040 0.73561 -0.13600
Br	Br	0.47404 0.81827 0.76483 -0.11600
C 	C 	0.15255 0.39808 0.18517 -0.03800
C 	C 	0.15808 0.40975 0.13795 0.08600
C 	C 	0.15624 0.34874 0.13087 0.11700
Br	Br	0.21080 0.38251 0.07972 -0.12400
Br	Br	0.17436 0.51209 0.08429 -0.11300
C 	C 	0.51435 0.68188 0.23479 0.08600
C 	C 	0.44160 0.68752 0.19499 -0.04000
C 	C 	0.45622 0.73302 0.14574 0.08700
C 	C 	0.53908 0.76499 0.13582 0.11700
C 	C 	0.61241 0.76118 0.17581 -0.11200
C 	C 	0.59612 0.71259 0.22450 0.12600
Br	Br	0.68671 0.68888 0.27683 -0.12300
Br	Br	0.50020 0.63020 0.30322 -0.09900
Br	Br	0.55172 0.81174 0.06756 -0.15200
Br	Br	0.36188 0.75021 0.09198 -0.10900
C 	C 	0.05998 0.56734 0.20448 0.07900
C 	C 	0.15978 0.60518 0.22145 -0.02800
C 	C 	0.22109 0.67919 0.24205 0.08500
C 	C 	0.19049 0.73032 0.23007 0.12200
C 	C 	0.09522 0.70046 0.20399 -0.10100
Br	Br	0.27880 0.84129 0.24763 -0.14800
Br	Br	0.33969 0.70318 0.29106 -0.11000
C 	C 	0.79531 0.25748 0.53834 0.08800
C 	C 	0.83239 0.34110 0.50465 -0.03300
C 	C 	0.88640 0.36672 0.47401 0.09300
C 	C 	0.90633 0.30989 0.48003 0.11800
C 	C 	0.87026 0.22739 0.51558 -0.08600
C 	C 	0.79851 0.19688 0.53516 0.10400
Br	Br	0.69364 0.07521 0.54656 -0.10400
Br	Br	0.74538 0.22758 0.59055 -0.12100
Br	Br	0.97298 0.34004 0.43648 -0.10000
Br	Br	0.93310 0.47811 0.42479 -0.10000
C 	C 	0.85454 0.59854 0.59584 0.12300
C 	C 	0.88066 0.68204 0.56378 -0.10600
C 	C 	0.86474 0.69420 0.51237 0.11500
C 	C 	0.85673 0.63779 0.49660 0.08300
C 	C 	0.84241 0.55793 0.53017 -0.03500
C 	C 	0.84146 0.53860 0.58025 0.08400
Br	Br	0.81486 0.42739 0.62609 -0.10200
Br	Br	0.81023 0.55828 0.65318 -0.10600
Br	Br	0.86002 0.66757 0.42831 -0.11800
Br	Br	0.82494 0.76850 0.46398 -0.12800
C 	C 	0.45247 0.16606 0.53771 0.11900
C 	C 	0.39329 0.18953 0.52696 -0.09800
C 	C 	0.40917 0.26820 0.49006 0.12000
C 	C 	0.48544 0.32260 0.46614 0.08800
C 	C 	0.54292 0.29665 0.47771 -0.03600
C 	C 	0.51306 0.21087 0.50629 0.08900
Br	Br	0.52747 0.14569 0.48998 -0.09700
Br	Br	0.44652 0.06942 0.59356 -0.11500
Br	Br	0.50719 0.42897 0.41517 -0.10400
Br	Br	0.32430 0.29906 0.47013 -0.13700
C 	C 	0.68785 0.10691 0.00537 0.10200
C 	C 	0.78637 0.14310 0.02192 -0.09300
C 	C 	0.85064 0.22622 0.03215 0.10600
C 	C 	0.81869 0.25433 0.04605 0.08200
C 	C 	0.71901 0.20825 0.03877 -0.03800
C 	C 	0.65360 0.13900 0.01410 0.07400
Br	Br	0.51881 0.08997 0.99150 -0.06600
Br	Br	0.60175 0.01600 0.96980 -0.05500
Br	Br	0.91114 0.34830 0.07994 -0.12500
Br	Br	0.97242 0.30787 0.01523 -0.11600
C 	C 	0.84274 0.56577 0.05590 0.12000
C 	C 	0.80175 0.57991 0.07441 -0.09200
C 	C 	0.70784 0.50997 0.08262 0.12000
C 	C 	0.65814 0.42754 0.07384 0.08900
C 	C 	0.70401 0.41387 0.05905 -0.03300
C 	C 	0.78790 0.48763 0.04188 0.07500
Br	Br	0.81333 0.49103 0.98808 -0.07100
Br	Br	0.52184 0.34243 0.07028 -0.12800
Br	Br	0.64503 0.52675 0.10372 -0.12100
C 	C 	0.34806 0.96843 0.11902 0.01100
C 	C 	0.31224 0.00190 0.12520 0.02300
C 	C 	0.37650 0.06603 0.15361 0.08500
C 	C 	0.47625 0.11389 0.16077 0.11600
C 	C 	0.50954 0.09779 0.13901 -0.06900
C 	C 	0.44799 0.01562 0.12779 0.18100
Br	Br	0.50065 0.96015 0.13568 -0.17800
Br	Br	0.26315 0.85433 0.10533 -0.14300
Br	Br	0.56687 0.19403 0.20410 -0.09900
Br	Br	0.33030 0.07595 0.19053 -0.10500
