data_crystal

_cell_length_a 19.24924
_cell_length_b 16.82485
_cell_length_c 35.81775
_cell_angle_alpha 88.28040
_cell_angle_beta  88.44287
_cell_angle_gamma 107.44418

_symmetry_space_group_name_	'P 1'
_symmetry_space_group_name_H-M	'P 1'

loop_
_symmetry_equiv_pos_as_xyz
  x,y,z

loop_
_atom_site_label
_atom_site_type_symbol
_atom_site_fract_x
_atom_site_fract_y
_atom_site_fract_z
_atom_site_charge
Zn	Zn	0.56620 0.32130 0.89102 1.23100
Zn	Zn	0.68515 0.46934 0.93228 1.20400
C 	C 	0.76967 0.21676 0.84367 0.31200
Zn	Zn	0.73535 0.36365 0.87631 1.22200
Zn	Zn	0.60842 0.18913 0.84881 1.19500
H 	H 	0.67241 0.31317 0.93991 0.20000
C 	C 	0.71504 0.52030 0.84874 0.29300
O 	O 	0.49998 0.15029 0.84586 -0.45400
O 	O 	0.47695 0.27466 0.85601 -0.35000
O 	O 	0.66623 0.35107 0.91945 -0.78300
O 	O 	0.58800 0.47081 0.95021 -0.43300
O 	O 	0.51926 0.22882 0.92670 -0.37300
O 	O 	0.52869 0.41768 0.89785 -0.38300
O 	O 	0.59486 0.15484 0.90876 -0.40600
O 	O 	0.78731 0.53124 0.92163 -0.46100
H 	H 	0.62802 0.33933 0.82781 0.18200
O 	O 	0.82872 0.42158 0.90864 -0.39200
O 	O 	0.63512 0.31153 0.85153 -0.79500
O 	O 	0.70431 0.16522 0.85268 -0.44300
O 	O 	0.75351 0.46769 0.84540 -0.42700
O 	O 	0.79283 0.29034 0.85884 -0.41800
O 	O 	0.66564 0.50981 0.87619 -0.40800
C 	C 	0.45730 0.19874 0.84320 0.31600
C 	C 	0.52968 0.45297 0.93024 0.31700
C 	C 	0.54011 0.16189 0.92980 0.31300
C 	C 	0.83860 0.49524 0.92283 0.31800
Zn	Zn	0.66260 0.42610 0.54011 1.22500
Zn	Zn	0.50245 0.30473 0.50508 1.19500
C 	C 	0.68182 0.16656 0.60391 0.31400
Zn	Zn	0.58937 0.23383 0.55792 1.22200
Zn	Zn	0.72572 0.35059 0.60456 1.19800
H 	H 	0.63096 0.29692 0.49450 0.17500
C 	C 	0.44820 0.23804 0.58523 0.29700
O 	O 	0.79758 0.46175 0.59913 -0.45900
O 	O 	0.72444 0.52937 0.57144 -0.36900
O 	O 	0.60498 0.31378 0.51563 -0.79100
O 	O 	0.50429 0.42266 0.50649 -0.41500
O 	O 	0.75351 0.42564 0.51389 -0.43400
O 	O 	0.61912 0.50645 0.51641 -0.36400
O 	O 	0.77232 0.32223 0.55169 -0.40900
O 	O 	0.44958 0.18274 0.50389 -0.45200
H 	H 	0.59785 0.36702 0.60210 0.19300
O 	O 	0.54249 0.13317 0.52277 -0.39000
O 	O 	0.63074 0.34996 0.58447 -0.78700
O 	O 	0.70460 0.23319 0.62381 -0.46100
O 	O 	0.49775 0.19955 0.58907 -0.42700
O 	O 	0.65895 0.17242 0.57001 -0.43200
O 	O 	0.46123 0.30336 0.56229 -0.39600
C 	C 	0.78549 0.53120 0.58777 0.30200
C 	C 	0.56119 0.48555 0.49583 0.27300
C 	C 	0.79346 0.37778 0.52351 0.31200
C 	C 	0.48082 0.12277 0.50565 0.31200
Zn	Zn	0.93828 0.91217 0.70296 1.22600
Zn	Zn	0.04129 0.91868 0.77622 1.20200
C 	C 	0.15333 0.11213 0.64553 0.30900
Zn	Zn	0.07537 0.06001 0.71698 1.22700
Zn	Zn	0.99251 0.03289 0.63410 1.19100
H 	H 	0.08048 0.91374 0.70717 0.19200
C 	C 	0.98062 0.07279 0.78010 0.25700
O 	O 	0.88956 0.98629 0.62153 -0.44600
O 	O 	0.83984 0.90750 0.67509 -0.36200
O 	O 	0.04684 0.93759 0.72113 -0.77600
O 	O 	0.95449 0.81630 0.78225 -0.46000
O 	O 	0.95034 0.82548 0.67134 -0.43600
O 	O 	0.87655 0.86725 0.74828 -0.41900
O 	O 	0.00358 0.90993 0.62138 -0.34200
O 	O 	0.12130 0.00739 0.79914 -0.44000
H 	H 	0.94613 0.06090 0.69715 0.17700
O 	O 	0.17381 0.07402 0.74433 -0.40400
O 	O 	0.97927 0.02908 0.68911 -0.82000
O 	O 	0.10197 0.07174 0.62320 -0.41300
O 	O 	0.03517 0.11462 0.75721 -0.39800
O 	O 	0.13621 0.13665 0.67811 -0.43700
O 	O 	0.96700 0.99195 0.78648 -0.40500
C 	C 	0.83488 0.95667 0.64634 0.30300
C 	C 	0.88824 0.81029 0.77125 0.32900
C 	C 	0.96224 0.83747 0.63523 0.29900
C 	C 	0.17783 0.05771 0.78008 0.30000
Zn	Zn	0.32492 0.68841 0.38047 1.22500
Zn	Zn	0.21128 0.52098 0.42632 1.21100
C 	C 	0.12219 0.79266 0.34979 0.27200
Zn	Zn	0.15511 0.64601 0.38078 1.22900
Zn	Zn	0.28112 0.82830 0.34519 1.19500
H 	H 	0.22729 0.67425 0.43890 0.25900
C 	C 	0.15401 0.49044 0.34647 0.31000
O 	O 	0.39019 0.87268 0.34004 -0.45400
O 	O 	0.41050 0.74566 0.34063 -0.39800
O 	O 	0.23047 0.64326 0.41620 -0.78200
O 	O 	0.31124 0.50853 0.42952 -0.43200
O 	O 	0.37078 0.77409 0.41635 -0.41300
O 	O 	0.36034 0.59240 0.37851 -0.44400
O 	O 	0.28812 0.84364 0.40527 -0.35400
O 	O 	0.10468 0.46774 0.42976 -0.42800
H 	H 	0.25428 0.68003 0.32312 0.17600
O 	O 	0.06755 0.58348 0.42035 -0.32200
O 	O 	0.25089 0.70440 0.34767 -0.78700
O 	O 	0.18570 0.85041 0.35123 -0.40800
O 	O 	0.12545 0.55250 0.34679 -0.42100
O 	O 	0.10319 0.73068 0.37511 -0.37100
O 	O 	0.20961 0.49157 0.36745 -0.40700
C 	C 	0.43416 0.82688 0.33432 0.29200
C 	C 	0.36847 0.55396 0.40954 0.32900
C 	C 	0.34229 0.83362 0.42449 0.29900
C 	C 	0.05820 0.50929 0.43650 0.32600
Zn	Zn	0.19502 0.73454 0.06212 1.22300
Zn	Zn	0.31646 0.84583 0.11760 1.20200
C 	C 	0.35992 0.57255 0.02983 0.30100
Zn	Zn	0.35793 0.72817 0.06377 1.22400
Zn	Zn	0.21573 0.58468 0.02526 1.19800
H 	H 	0.26897 0.68798 0.11981 0.19000
C 	C 	0.39349 0.90307 0.03880 0.29800
O 	O 	0.11414 0.57551 0.01460 -0.44000
O 	O 	0.11905 0.71305 0.01829 -0.33200
O 	O 	0.27938 0.73212 0.09973 -0.78800
O 	O 	0.22534 0.87624 0.12195 -0.45800
O 	O 	0.12039 0.64876 0.09339 -0.37400
O 	O 	0.18459 0.84962 0.06300 -0.40100
O 	O 	0.18161 0.55483 0.08364 -0.40700
O 	O 	0.42184 0.87689 0.12324 -0.42400
H 	H 	0.27470 0.73729 0.00536 0.17700
O 	O 	0.44055 0.75568 0.10473 -0.38100
O 	O 	0.26664 0.70540 0.02960 -0.78800
O 	O 	0.29153 0.53400 0.03877 -0.44400
O 	O 	0.40973 0.83290 0.03584 -0.39200
O 	O 	0.39690 0.63584 0.04920 -0.40300
O 	O 	0.33928 0.90684 0.06137 -0.38600
C 	C 	0.09054 0.63857 0.00477 0.28900
C 	C 	0.19415 0.89615 0.09260 0.33500
C 	C 	0.12591 0.57345 0.09862 0.32100
C 	C 	0.46318 0.82758 0.12114 0.32100
Zn	Zn	0.99078 0.14469 0.20956 1.22000
Zn	Zn	0.88442 0.09179 0.29318 1.19800
C 	C 	0.76069 0.98208 0.15433 0.32000
Zn	Zn	0.85082 0.99479 0.22004 1.22800
Zn	Zn	0.91263 0.09440 0.13635 1.19500
H 	H 	0.85366 0.14173 0.22980 0.17800
C 	C 	0.92179 0.92618 0.27550 0.32400
O 	O 	0.01199 0.16051 0.11875 -0.42300
O 	O 	0.08113 0.16412 0.17009 -0.35300
O 	O 	0.88627 0.10935 0.23787 -0.78800
O 	O 	0.98978 0.12409 0.30568 -0.45700
O 	O 	0.98664 0.25672 0.19705 -0.45100
O 	O 	0.05613 0.14668 0.25065 -0.41800
O 	O 	0.89896 0.21280 0.15460 -0.39600
O 	O 	0.77861 0.04553 0.30458 -0.45300
H 	H 	0.96673 0.00989 0.17757 0.18300
O 	O 	0.75987 0.94612 0.25993 -0.37800
O 	O 	0.93767 0.04775 0.18326 -0.80600
O 	O 	0.80240 0.05358 0.13887 -0.42900
O 	O 	0.90171 0.91997 0.24079 -0.43100
O 	O 	0.78325 0.94304 0.18161 -0.43500
O 	O 	0.89081 0.96430 0.29928 -0.39200
C 	C 	0.06914 0.14756 0.13445 0.28300
C 	C 	0.04093 0.17317 0.28319 0.32600
C 	C 	0.95090 0.27303 0.16880 0.30800
C 	C 	0.73527 0.98175 0.28769 0.32600
C 	C 	0.97428 0.35774 0.15097 -0.07100
C 	C 	0.97979 0.36756 0.11187 -0.03400
C 	C 	0.02508 0.44148 0.09470 0.05700
C 	C 	0.06498 0.50655 0.11643 -0.06700
C 	C 	0.05319 0.50048 0.15553 0.08300
C 	C 	0.00729 0.42648 0.17259 0.00200
H 	H 	0.03228 0.44634 0.06453 0.05700
H 	H 	0.00118 0.42053 0.20281 0.06500
H 	H 	0.95356 0.31579 0.09477 0.05100
I 	I 	0.10777 0.59935 0.18968 -0.10800
C 	C 	0.53894 0.85928 0.13288 -0.02400
C 	C 	0.59473 0.83672 0.11414 0.01200
C 	C 	0.66763 0.88114 0.11923 0.03300
C 	C 	0.68547 0.94819 0.14320 -0.08300
C 	C 	0.62969 0.97006 0.16241 0.09800
C 	C 	0.55706 0.92417 0.15806 -0.01800
H 	H 	0.71037 0.86262 0.10500 0.05000
H 	H 	0.51439 0.94119 0.17313 0.06300
H 	H 	0.58172 0.78679 0.09467 0.08100
I 	I 	0.65376 0.07306 0.19786 -0.11300
C 	C 	0.10468 0.09174 0.11639 -0.06200
C 	C 	0.06223 0.02006 0.09935 -0.00200
C 	C 	0.09343 0.95919 0.08805 0.00700
C 	C 	0.16733 0.96937 0.09360 -0.08100
C 	C 	0.21154 0.04541 0.10712 0.07600
C 	C 	0.17967 0.10530 0.11919 -0.02000
H 	H 	0.05912 0.90179 0.07719 0.08300
H 	H 	0.21312 0.16187 0.13110 0.06900
H 	H 	0.00421 0.00928 0.09675 0.01100
I 	I 	0.32665 0.07320 0.10820 -0.07200
C 	C 	0.51210 0.86753 0.32354 -0.05000
C 	C 	0.53651 0.95180 0.31126 -0.02300
C 	C 	0.61009 0.98974 0.30113 0.01100
C 	C 	0.65996 0.94373 0.30256 -0.09500
C 	C 	0.63622 0.86002 0.31613 0.08200
C 	C 	0.56261 0.82231 0.32633 -0.04000
H 	H 	0.62804 0.05457 0.29149 0.03600
H 	H 	0.54498 0.75809 0.33686 0.07000
H 	H 	0.49855 0.98784 0.30924 0.04600
I 	I 	0.71082 0.79053 0.32406 -0.07800
C 	C 	0.06968 0.26201 0.29117 -0.10000
C 	C 	0.14494 0.30107 0.29105 0.00800
C 	C 	0.17224 0.37953 0.30628 -0.00400
C 	C 	0.12446 0.41940 0.32209 -0.08200
C 	C 	0.04823 0.38309 0.31888 0.07600
C 	C 	0.02174 0.30501 0.30326 0.01100
H 	H 	0.23065 0.40757 0.30740 0.04800
H 	H 	0.96344 0.27621 0.30186 -0.01900
H 	H 	0.18241 0.26903 0.28088 0.04700
I 	I 	0.97028 0.44091 0.33827 -0.13600
C 	C 	0.06579 0.81150 0.32742 -0.00200
C 	C 	0.99484 0.79722 0.34235 -0.05800
C 	C 	0.94561 0.82891 0.32351 0.04100
C 	C 	0.96710 0.87605 0.28979 -0.12700
C 	C 	0.03683 0.88476 0.27344 0.12000
C 	C 	0.08513 0.85146 0.29215 -0.06100
H 	H 	0.89189 0.82032 0.33604 0.05000
H 	H 	0.13914 0.85991 0.27995 0.04300
H 	H 	0.97877 0.76491 0.36929 0.08000
I 	I 	0.07413 0.95276 0.22217 -0.12300
C 	C 	0.44577 0.04261 0.48878 -0.10400
C 	C 	0.48753 0.00466 0.46708 0.03400
C 	C 	0.45381 0.93255 0.44828 -0.03900
C 	C 	0.37790 0.89659 0.45138 0.03800
C 	C 	0.33645 0.92898 0.47688 -0.12400
C 	C 	0.37047 0.00452 0.49392 0.09600
H 	H 	0.48634 0.90699 0.42972 0.06800
H 	H 	0.33857 0.03323 0.51136 0.06500
H 	H 	0.54591 0.03301 0.46350 0.03800
C 	C 	0.25640 0.88442 0.48570 0.79300
F 	F 	0.23500 0.90587 0.52023 -0.42900
F 	F 	0.21470 0.90645 0.45878 -0.43200
F 	F 	0.24309 0.79885 0.48677 -0.43200
C 	C 	0.86757 0.39750 0.50690 -0.10700
C 	C 	0.87930 0.36085 0.47369 0.03000
C 	C 	0.94218 0.39693 0.45124 -0.04400
C 	C 	0.99365 0.47092 0.46144 0.01100
C 	C 	0.98516 0.50462 0.49650 -0.15300
C 	C 	0.92144 0.46766 0.51878 0.09700
H 	H 	0.95010 0.36831 0.42543 0.05300
H 	H 	0.91178 0.49606 0.54437 0.05400
H 	H 	0.83804 0.30664 0.46431 0.02700
C 	C 	0.04196 0.58180 0.50945 0.81100
F 	F 	0.03936 0.65079 0.48822 -0.41800
F 	F 	0.03000 0.59571 0.54665 -0.43500
F 	F 	0.11092 0.57281 0.50566 -0.46500
C 	C 	0.44079 0.57039 0.42467 -0.12800
C 	C 	0.49063 0.53365 0.40919 0.04300
C 	C 	0.54693 0.52335 0.43074 -0.06800
C 	C 	0.55045 0.54597 0.46817 0.04100
C 	C 	0.51373 0.60282 0.47953 -0.12800
C 	C 	0.45581 0.61123 0.45839 0.10100
H 	H 	0.58005 0.48617 0.42042 0.03800
H 	H 	0.41978 0.64450 0.46921 0.05600
H 	H 	0.48184 0.50628 0.38206 0.03000
C 	C 	0.52907 0.64474 0.51645 0.79300
F 	F 	0.60274 0.66604 0.52310 -0.43900
F 	F 	0.50863 0.71695 0.51627 -0.44200
F 	F 	0.49049 0.59111 0.54499 -0.44000
C 	C 	0.69324 0.08820 0.61758 -0.06000
C 	C 	0.70612 0.03171 0.59228 -0.01100
C 	C 	0.74130 0.97432 0.60398 0.01600
C 	C 	0.76640 0.97576 0.64049 -0.08200
C 	C 	0.74037 0.02059 0.66738 0.06500
C 	C 	0.70352 0.07644 0.65575 -0.03200
H 	H 	0.75654 0.93563 0.58361 0.06300
H 	H 	0.68772 0.11500 0.67601 0.05400
H 	H 	0.69417 0.03644 0.56306 0.06400
I 	I 	0.76242 0.01252 0.72500 -0.12300
C 	C 	0.37587 0.20477 0.60448 -0.04800
C 	C 	0.33866 0.25966 0.61696 -0.01700
C 	C 	0.26618 0.22906 0.63024 0.01400
C 	C 	0.22969 0.14316 0.63108 -0.08700
C 	C 	0.26755 0.08746 0.61960 0.07400
C 	C 	0.34030 0.11854 0.60627 -0.03100
H 	H 	0.23804 0.27233 0.63948 0.05100
H 	H 	0.36847 0.07577 0.59645 0.07300
H 	H 	0.36557 0.32627 0.61583 0.06500
I 	I 	0.21756 0.95627 0.62342 -0.02500
C 	C 	0.84187 0.61159 0.59338 -0.03800
C 	C 	0.90084 0.61378 0.61608 -0.00100
C 	C 	0.95025 0.68993 0.62455 0.03300
C 	C 	0.94020 0.76487 0.61139 -0.07100
C 	C 	0.88943 0.76206 0.58337 0.08900
C 	C 	0.83859 0.68571 0.57549 -0.02500
H 	H 	0.99200 0.69093 0.64438 0.05200
H 	H 	0.79753 0.68413 0.55519 0.09200
H 	H 	0.90673 0.55679 0.62850 0.05800
I 	I 	0.89436 0.86900 0.54942 -0.05600
C 	C 	0.90367 0.53413 0.94354 -0.11300
C 	C 	0.97280 0.55230 0.92618 0.00900
C 	C 	0.03416 0.59692 0.94483 -0.02900
C 	C 	0.02716 0.62264 0.98132 0.05400
C 	C 	0.95686 0.61063 0.99774 -0.16000
C 	C 	0.89567 0.56386 0.97906 0.09900
H 	H 	0.08778 0.60722 0.93180 0.03800
H 	H 	0.84164 0.55058 0.99200 0.04000
H 	H 	0.97907 0.53195 0.89821 0.03700
C 	C 	0.94723 0.64433 0.03576 0.79500
F 	F 	0.98627 0.72794 0.03628 -0.46200
F 	F 	0.87490 0.63693 0.04424 -0.45800
F 	F 	0.97172 0.60062 0.06308 -0.46600
C 	C 	0.50323 0.09584 0.95783 -0.08900
C 	C 	0.42684 0.06718 0.96069 0.04500
C 	C 	0.39128 0.00666 0.98812 -0.04600
C 	C 	0.43155 0.97544 0.01365 0.04100
C 	C 	0.50882 0.00906 0.01268 -0.12600
C 	C 	0.54400 0.06583 0.98337 0.09200
H 	H 	0.33232 0.98277 0.98904 0.06600
H 	H 	0.60296 0.08876 0.98114 0.06300
H 	H 	0.39494 0.09095 0.94127 0.06400
C 	C 	0.55321 0.98820 0.04369 0.79100
F 	F 	0.55452 0.90691 0.04109 -0.46300
F 	F 	0.62442 0.03994 0.04177 -0.45600
F 	F 	0.52275 0.99817 0.07793 -0.45600
C 	C 	0.39675 0.54004 0.00022 -0.11100
C 	C 	0.44214 0.59486 0.97334 0.02300
C 	C 	0.47596 0.56391 0.94468 -0.04300
C 	C 	0.46725 0.47818 0.94361 0.02900
C 	C 	0.41272 0.42215 0.96698 -0.13000
C 	C 	0.38005 0.45371 0.99628 0.09000
H 	H 	0.51499 0.60722 0.92563 0.05600
H 	H 	0.34287 0.41130 0.01638 0.06900
H 	H 	0.45214 0.66155 0.97496 0.03300
C 	C 	0.39522 0.32877 0.96344 0.78400
F 	F 	0.32685 0.28736 0.97905 -0.45100
F 	F 	0.39567 0.30910 0.92623 -0.45800
F 	F 	0.44645 0.30107 0.98173 -0.45700
C 	C 	0.93172 0.11549 0.79751 -0.03900
C 	C 	0.89704 0.08602 0.83242 -0.02100
C 	C 	0.84393 0.11882 0.84713 0.01600
C 	C 	0.82482 0.18180 0.82729 -0.09400
C 	C 	0.86014 0.21257 0.79245 0.07700
C 	C 	0.91363 0.17954 0.77778 -0.04300
H 	H 	0.81767 0.09530 0.87408 0.04600
H 	H 	0.93910 0.20168 0.75054 0.04900
H 	H 	0.91068 0.03691 0.84801 0.05000
I 	I 	0.83074 0.30496 0.76038 -0.15800
C 	C 	0.24596 0.09819 0.79889 -0.04700
C 	C 	0.26661 0.05885 0.82992 -0.01600
C 	C 	0.33552 0.09239 0.84451 0.01900
C 	C 	0.38451 0.16535 0.82815 -0.08400
C 	C 	0.36341 0.20570 0.79738 0.08200
C 	C 	0.29398 0.17285 0.78339 -0.03300
H 	H 	0.35111 0.06127 0.86835 0.04400
H 	H 	0.27814 0.20417 0.75970 0.07000
H 	H 	0.23016 0.00124 0.84215 0.04600
I 	I 	0.43722 0.31204 0.76925 -0.10800
C 	C 	0.73866 0.59972 0.82694 -0.04600
C 	C 	0.76399 0.67463 0.84550 -0.01700
C 	C 	0.80801 0.74636 0.82626 0.01500
C 	C 	0.82608 0.74413 0.78819 -0.09500
C 	C 	0.79322 0.67179 0.76859 0.07800
C 	C 	0.75034 0.59962 0.78814 -0.03400
H 	H 	0.83159 0.80227 0.84144 0.03900
H 	H 	0.72902 0.54248 0.77346 0.05400
H 	H 	0.75431 0.67570 0.87540 0.04800
I 	I 	0.80889 0.66869 0.70987 -0.10700
