data_crystal

_cell_length_a 25.81352
_cell_length_b 26.17761
_cell_length_c 17.57341
_cell_angle_alpha 95.44645
_cell_angle_beta  95.45467
_cell_angle_gamma 125.77372

_symmetry_space_group_name_	'P 1'
_symmetry_space_group_name_H-M	'P 1'

loop_
_symmetry_equiv_pos_as_xyz
  x,y,z

loop_
_atom_site_label
_atom_site_type_symbol
_atom_site_fract_x
_atom_site_fract_y
_atom_site_fract_z
_atom_site_charge
C 	C 	0.97365 0.03257 0.00280 0.11400
N 	N 	0.03755 0.06301 0.99919 -0.09700
C 	C 	0.05915 0.02842 0.97681 0.14300
N 	N 	0.01725 0.96352 0.96021 -0.09800
C 	C 	0.95359 0.93304 0.96385 0.14300
N 	N 	0.93187 0.96757 0.98511 -0.11200
C 	C 	0.94174 0.00155 0.41715 0.11600
N 	N 	0.00768 0.04074 0.43516 -0.10700
C 	C 	0.04035 0.01682 0.45591 0.14000
N 	N 	0.00709 0.95380 0.45974 -0.09300
C 	C 	0.94119 0.91456 0.44270 0.14400
N 	N 	0.90842 0.93836 0.42107 -0.11200
Cu	Cu	0.64607 0.25105 0.01379 0.93200
Cu	Cu	0.74275 0.28210 0.89197 0.87600
Cu	Cu	0.67594 0.33683 0.89480 0.89600
Cu	Cu	0.63242 0.36432 0.03561 0.90700
C 	C 	0.64305 0.30341 0.16220 0.20500
O 	O 	0.54868 0.20859 0.98717 -0.32700
C 	C 	0.70058 0.30196 0.74622 0.19700
O 	O 	0.69147 0.34852 0.00809 -0.63700
O 	O 	0.65546 0.25230 0.90408 -0.63700
O 	O 	0.68883 0.20951 0.03585 -0.33100
O 	O 	0.77826 0.28818 0.99488 -0.41600
O 	O 	0.60857 0.31860 0.12497 -0.33700
O 	O 	0.69030 0.41772 0.88518 -0.36600
C 	C 	0.70820 0.46336 0.94400 0.31600
C 	C 	0.52487 0.23264 0.94603 0.29600
O 	O 	0.56400 0.29208 0.93555 -0.38900
O 	O 	0.68249 0.44984 0.00709 -0.36300
O 	O 	0.65441 0.26588 0.12476 -0.30800
C 	C 	0.74935 0.23765 0.02781 0.31200
O 	O 	0.67137 0.32255 0.78210 -0.32700
O 	O 	0.72357 0.27487 0.78171 -0.36700
H 	H 	0.73748 0.38083 0.03374 0.17900
H 	H 	0.61895 0.21597 0.86438 0.20200
Cu	Cu	0.72571 0.33088 0.38765 0.93000
Cu	Cu	0.72985 0.26316 0.53139 0.87500
Cu	Cu	0.64742 0.30419 0.51700 0.89900
Cu	Cu	0.60460 0.33300 0.37576 0.91200
C 	C 	0.65715 0.31728 0.23981 0.20000
O 	O 	0.76293 0.42539 0.39908 -0.34700
C 	C 	0.70172 0.30287 0.67048 0.19900
O 	O 	0.62881 0.28130 0.40499 -0.63800
O 	O 	0.73639 0.33620 0.50141 -0.63900
O 	O 	0.77070 0.29122 0.36665 -0.35400
O 	O 	0.70680 0.21259 0.43213 -0.41600
O 	O 	0.63905 0.34896 0.27690 -0.32600
O 	O 	0.55859 0.26622 0.52977 -0.37100
C 	C 	0.51625 0.27077 0.48864 0.31700
C 	C 	0.73983 0.44990 0.44066 0.29800
O 	O 	0.68419 0.41144 0.46302 -0.37400
O 	O 	0.52453 0.28985 0.42089 -0.36100
O 	O 	0.69881 0.31005 0.27674 -0.30900
C 	C 	0.74773 0.23481 0.38399 0.31400
O 	O 	0.67006 0.32037 0.63080 -0.32700
O 	O 	0.74108 0.29393 0.63935 -0.37000
H 	H 	0.59713 0.23482 0.38382 0.18200
H 	H 	0.77161 0.37848 0.53377 0.18600
C 	C 	0.75729 0.60417 0.43863 -0.06900
C 	C 	0.82491 0.64920 0.44941 0.03300
C 	C 	0.86486 0.62918 0.46069 0.06100
C 	C 	0.83662 0.56425 0.46036 -0.00100
C 	C 	0.76877 0.51876 0.44704 -0.08500
C 	C 	0.72892 0.53908 0.43549 0.12600
C 	C 	0.85350 0.71720 0.44773 0.01900
N 	N 	0.93406 0.67447 0.47132 -0.01700
H 	H 	0.86751 0.54908 0.46900 0.06600
N 	N 	0.65973 0.49349 0.41645 -0.02600
H 	H 	0.72649 0.61945 0.43005 0.09300
C 	C 	0.84478 0.73602 0.37790 0.07800
C 	C 	0.87019 0.80019 0.37788 -0.03000
C 	C 	0.90561 0.84616 0.44646 -0.02000
C 	C 	0.91321 0.82714 0.51661 0.10100
C 	C 	0.88712 0.76281 0.51683 -0.05400
N 	N 	0.81116 0.69026 0.30663 -0.01900
H 	H 	0.86463 0.81473 0.32378 0.08600
N 	N 	0.94727 0.87307 0.58776 -0.02100
H 	H 	0.89270 0.74825 0.57089 0.08800
O 	O 	0.63199 0.45866 0.34704 -0.11300
O 	O 	0.62432 0.49192 0.46543 -0.07200
O 	O 	0.97061 0.68036 0.53296 -0.08200
O 	O 	0.96065 0.70647 0.41689 -0.07100
O 	O 	0.92912 0.90791 0.61167 -0.07000
O 	O 	0.99467 0.87812 0.63031 -0.06300
O 	O 	0.76030 0.68122 0.26722 -0.06900
O 	O 	0.83362 0.66050 0.27880 -0.06800
C 	C 	0.76425 0.10274 0.33232 -0.07000
C 	C 	0.83010 0.13435 0.36353 0.03800
C 	C 	0.87087 0.20143 0.38862 0.05900
C 	C 	0.84442 0.23536 0.38720 -0.00200
C 	C 	0.77739 0.20278 0.36290 -0.09700
C 	C 	0.73773 0.13665 0.33151 0.12900
C 	C 	0.85525 0.09655 0.37384 0.01700
N 	N 	0.93859 0.23487 0.41868 -0.01700
H 	H 	0.87535 0.28643 0.41005 0.05900
N 	N 	0.67039 0.10373 0.29930 -0.02500
H 	H 	0.73335 0.05158 0.31005 0.09400
C 	C 	0.83664 0.05709 0.43038 0.08400
C 	C 	0.86200 0.02277 0.44065 -0.06600
C 	C 	0.90654 0.02810 0.39585 -0.00700
C 	C 	0.92275 0.06514 0.33675 0.09100
C 	C 	0.89805 0.10014 0.32720 -0.05000
N 	N 	0.79345 0.05322 0.47903 -0.03100
H 	H 	0.84924 0.99419 0.48591 0.10500
N 	N 	0.96338 0.06643 0.28551 -0.02900
H 	H 	0.91216 0.13009 0.28347 0.09600
O 	O 	0.62650 0.04972 0.31876 -0.08100
O 	O 	0.65326 0.12605 0.24748 -0.07600
O 	O 	0.98180 0.28103 0.38673 -0.07500
O 	O 	0.95692 0.22304 0.48194 -0.08300
O 	O 	0.94942 0.01306 0.24885 -0.09400
O 	O 	0.01140 0.12079 0.27106 -0.05200
O 	O 	0.73976 0.99790 0.48103 -0.05800
O 	O 	0.81003 0.10423 0.52552 -0.09200
C 	C 	0.21273 0.08357 0.43768 -0.04800
C 	C 	0.24800 0.13313 0.50301 0.01600
C 	C 	0.21483 0.14569 0.55178 0.08200
C 	C 	0.14680 0.10829 0.53473 -0.03100
C 	C 	0.11165 0.05822 0.46998 -0.01300
C 	C 	0.14487 0.04634 0.42069 0.08600
C 	C 	0.31975 0.17372 0.51731 0.03700
N 	N 	0.25003 0.19650 0.61838 -0.01900
H 	H 	0.12125 0.11738 0.57275 0.08600
N 	N 	0.10983 0.99725 0.35240 -0.01200
H 	H 	0.23821 0.07470 0.39926 0.08200
C 	C 	0.35286 0.14736 0.53549 0.05800
C 	C 	0.41899 0.18172 0.53192 0.00100
C 	C 	0.45251 0.24245 0.51127 -0.08700
C 	C 	0.42102 0.27153 0.50164 0.12900
C 	C 	0.35455 0.23658 0.50336 -0.07300
N 	N 	0.31891 0.08483 0.55506 -0.01700
H 	H 	0.44352 0.15998 0.54197 0.06700
N 	N 	0.45647 0.33649 0.49002 -0.02400
H 	H 	0.32963 0.25778 0.49200 0.09600
O 	O 	0.11820 0.95288 0.34130 -0.05600
O 	O 	0.07312 0.99947 0.29884 -0.04800
O 	O 	0.23874 0.23878 0.62887 -0.06800
O 	O 	0.29050 0.19835 0.67082 -0.06200
O 	O 	0.50925 0.38171 0.53881 -0.07100
O 	O 	0.43409 0.35091 0.43314 -0.07100
O 	O 	0.32328 0.04204 0.51914 -0.08300
O 	O 	0.28598 0.07156 0.61110 -0.06400
C 	C 	0.83386 0.64250 0.98542 -0.06500
C 	C 	0.80758 0.66036 0.92983 0.03200
C 	C 	0.75268 0.61283 0.87298 0.06200
C 	C 	0.72309 0.54797 0.87448 0.00300
C 	C 	0.74706 0.53021 0.93312 -0.08800
C 	C 	0.80390 0.57774 0.98743 0.12600
C 	C 	0.83729 0.72889 0.93242 0.01700
N 	N 	0.72586 0.63023 0.81495 -0.01700
H 	H 	0.67958 0.51148 0.83235 0.07500
N 	N 	0.83106 0.56029 0.04506 -0.02600
H 	H 	0.87720 0.67904 0.02775 0.08700
C 	C 	0.83334 0.76417 0.99435 0.08700
C 	C 	0.86936 0.83078 0.00216 -0.04200
C 	C 	0.90885 0.86254 0.94834 -0.01400
C 	C 	0.90923 0.82668 0.88341 0.09700
C 	C 	0.87418 0.76018 0.87645 -0.05300
N 	N 	0.79400 0.73258 0.05050 -0.02100
H 	H 	0.86796 0.85803 0.05132 0.08500
N 	N 	0.94473 0.85761 0.82419 -0.02200
H 	H 	0.87612 0.73290 0.82787 0.08400
O 	O 	0.84498 0.58604 0.11802 -0.07500
O 	O 	0.84547 0.52164 0.02413 -0.11700
O 	O 	0.71958 0.61045 0.74159 -0.08000
O 	O 	0.70321 0.66164 0.83535 -0.06700
O 	O 	0.98602 0.84835 0.80314 -0.07600
O 	O 	0.93336 0.89240 0.78860 -0.06700
O 	O 	0.81924 0.75203 0.12430 -0.07400
O 	O 	0.73221 0.68670 0.02815 -0.06700
C 	C 	0.93925 0.15525 0.01025 -0.06300
C 	C 	0.88740 0.12812 0.05074 0.01800
C 	C 	0.86822 0.07302 0.08199 0.07100
C 	C 	0.90035 0.04520 0.07076 -0.03400
C 	C 	0.94914 0.06965 0.02543 -0.01700
C 	C 	0.96925 0.12570 0.99595 0.09200
C 	C 	0.84898 0.15338 0.05251 0.03600
N 	N 	0.81367 0.04294 0.12103 -0.02800
H 	H 	0.88576 0.00310 0.09512 0.07800
N 	N 	0.01733 0.15058 0.94765 -0.01200
H 	H 	0.95399 0.19751 0.98613 0.08500
C 	C 	0.87574 0.21423 0.09645 0.05300
C 	C 	0.84142 0.24032 0.09045 0.00500
C 	C 	0.78040 0.20604 0.04163 -0.10300
C 	C 	0.75264 0.14419 0.99999 0.13200
C 	C 	0.78697 0.11820 0.00582 -0.08500
N 	N 	0.93816 0.25005 0.14623 -0.01500
H 	H 	0.86260 0.28762 0.12311 0.06600
N 	N 	0.69084 0.10878 0.94905 -0.02400
H 	H 	0.76626 0.07139 0.97204 0.09300
O 	O 	0.07351 0.20579 0.97234 -0.05600
O 	O 	0.00296 0.12078 0.87665 -0.06700
O 	O 	0.77120 0.98087 0.10684 -0.05900
O 	O 	0.80730 0.07731 0.17216 -0.09500
O 	O 	0.68437 0.12881 0.88639 -0.12400
O 	O 	0.64270 0.05363 0.96156 -0.07000
O 	O 	0.98317 0.30867 0.13969 -0.08500
O 	O 	0.94870 0.22553 0.20121 -0.08000
C 	C 	0.34383 0.10579 0.93005 -0.07000
C 	C 	0.32174 0.14369 0.93188 0.03100
C 	C 	0.36476 0.20894 0.92735 0.06400
C 	C 	0.43040 0.23677 0.92727 -0.00500
C 	C 	0.45369 0.19986 0.93042 -0.08300
C 	C 	0.40914 0.13312 0.92716 0.12600
C 	C 	0.25431 0.11558 0.94216 0.02200
N 	N 	0.34207 0.24736 0.92392 -0.01700
H 	H 	0.46359 0.28758 0.92682 0.06700
N 	N 	0.42946 0.09271 0.91818 -0.02100
H 	H 	0.31021 0.05500 0.93053 0.09000
C 	C 	0.20126 0.07026 0.88203 0.08000
C 	C 	0.13778 0.04317 0.89357 -0.03400
C 	C 	0.12651 0.06096 0.96446 -0.01100
C 	C 	0.17959 0.10677 0.02435 0.09700
C 	C 	0.24314 0.13398 0.01275 -0.05800
N 	N 	0.21168 0.05158 0.80919 -0.03000
H 	H 	0.09709 0.00826 0.84719 0.09000
N 	N 	0.16915 0.12435 0.09779 -0.02100
H 	H 	0.28385 0.16870 0.05916 0.08400
O 	O 	0.41630 0.05269 0.96503 -0.07500
O 	O 	0.45689 0.09264 0.85982 -0.08300
O 	O 	0.37033 0.30020 0.97419 -0.07600
O 	O 	0.29565 0.23145 0.86792 -0.05900
O 	O 	0.13967 0.08189 0.14160 -0.07300
O 	O 	0.19353 0.18384 0.12347 -0.06400
O 	O 	0.18313 0.99129 0.78201 -0.04100
O 	O 	0.24575 0.09428 0.76741 -0.06100
