data_crystal

_cell_length_a 30.32223
_cell_length_b 30.35145
_cell_length_c 30.89752
_cell_angle_alpha 95.53674
_cell_angle_beta  95.51134
_cell_angle_gamma 125.60142

_symmetry_space_group_name_	'P 1'
_symmetry_space_group_name_H-M	'P 1'

loop_
_symmetry_equiv_pos_as_xyz
  x,y,z

loop_
_atom_site_label
_atom_site_type_symbol
_atom_site_fract_x
_atom_site_fract_y
_atom_site_fract_z
_atom_site_charge
C 	C 	0.97833 0.04018 0.00335 0.03000
C 	C 	0.03417 0.06676 0.00068 -0.08300
C 	C 	0.05576 0.03656 0.99788 0.03400
C 	C 	0.02151 0.97984 0.99821 -0.06600
C 	C 	0.96554 0.95293 0.00004 0.01300
C 	C 	0.94403 0.98317 0.00284 -0.07300
H 	H 	0.06060 0.11067 0.00057 0.04900
H 	H 	0.03835 0.95662 0.99690 0.04800
H 	H 	0.90066 0.96235 0.00406 0.04700
C 	C 	0.94972 0.99734 0.44785 0.03100
C 	C 	0.92135 0.94111 0.44956 -0.07700
C 	C 	0.95006 0.91793 0.45267 0.03100
C 	C 	0.00709 0.95092 0.45305 -0.07600
C 	C 	0.03536 0.00682 0.45042 0.03200
C 	C 	0.00672 0.03004 0.44815 -0.07600
H 	H 	0.87718 0.91558 0.44873 0.04900
H 	H 	0.02942 0.93318 0.45549 0.04900
H 	H 	0.02887 0.07360 0.44728 0.05000
Cu	Cu	0.64369 0.25952 0.00105 0.92400
Cu	Cu	0.69099 0.25689 0.90992 0.87100
Cu	Cu	0.67523 0.34273 0.93919 0.89800
Cu	Cu	0.63588 0.35829 0.02095 0.89000
C 	C 	0.65640 0.30780 0.09016 0.28100
O 	O 	0.56164 0.22293 0.99614 -0.36000
C 	C 	0.66097 0.29953 0.84479 0.28400
O 	O 	0.68440 0.34438 0.00156 -0.64300
O 	O 	0.63901 0.26208 0.93693 -0.63700
O 	O 	0.68120 0.22302 0.00484 -0.38000
O 	O 	0.74157 0.27670 0.96213 -0.44100
O 	O 	0.62749 0.32467 0.07478 -0.38600
O 	O 	0.71372 0.42176 0.94632 -0.38200
C 	C 	0.70436 0.45080 0.97337 0.28800
C 	C 	0.53825 0.24274 0.97612 0.28500
O 	O 	0.56908 0.29339 0.96886 -0.39100
O 	O 	0.66411 0.42672 0.99626 -0.39200
O 	O 	0.65887 0.27201 0.06461 -0.36100
C 	C 	0.72726 0.24250 0.98987 0.29500
O 	O 	0.68023 0.34296 0.87587 -0.38800
O 	O 	0.65702 0.25612 0.85435 -0.41900
H 	H 	0.72314 0.37019 0.01757 0.16000
H 	H 	0.60115 0.23810 0.91907 0.17100
Cu	Cu	0.72496 0.32472 0.43779 0.92800
Cu	Cu	0.73371 0.28836 0.53327 0.86900
Cu	Cu	0.64673 0.30175 0.50229 0.89700
Cu	Cu	0.62568 0.33094 0.41627 0.89200
C 	C 	0.67791 0.30966 0.34721 0.28300
O 	O 	0.76076 0.40539 0.43659 -0.36600
C 	C 	0.69474 0.32479 0.59721 0.28300
O 	O 	0.64126 0.28550 0.43974 -0.64200
O 	O 	0.72669 0.33683 0.50228 -0.64100
O 	O 	0.76068 0.28647 0.43696 -0.37500
O 	O 	0.70996 0.23210 0.48418 -0.44300
O 	O 	0.65766 0.33581 0.36156 -0.38500
O 	O 	0.56808 0.26342 0.49777 -0.38400
C 	C 	0.53631 0.26625 0.46751 0.28800
C 	C 	0.74262 0.43130 0.45527 0.28200
O 	O 	0.69260 0.40274 0.46431 -0.39100
O 	O 	0.55775 0.30376 0.44194 -0.39400
O 	O 	0.70836 0.30230 0.37471 -0.36200
C 	C 	0.74076 0.24182 0.45410 0.28900
O 	O 	0.65035 0.30438 0.56677 -0.38800
O 	O 	0.73764 0.32797 0.58712 -0.42000
H 	H 	0.61509 0.24580 0.42631 0.16300
H 	H 	0.75136 0.37585 0.51767 0.17100
C 	C 	0.69240 0.33497 0.64420 -0.07600
C 	C 	0.73926 0.38021 0.67363 0.00400
C 	C 	0.74011 0.38558 0.71922 -0.05900
C 	C 	0.69443 0.34518 0.73592 0.01100
C 	C 	0.64637 0.30065 0.70632 0.01200
C 	C 	0.64526 0.29634 0.66051 -0.02100
C 	C 	0.60127 0.25941 0.72301 -0.06000
C 	C 	0.60505 0.26060 0.76861 0.00500
C 	C 	0.65343 0.30361 0.79804 -0.07600
C 	C 	0.69728 0.34696 0.78176 -0.02000
H 	H 	0.77549 0.41061 0.66123 0.02900
H 	H 	0.77692 0.42025 0.74158 0.04000
H 	H 	0.60894 0.26147 0.63778 0.04000
H 	H 	0.56397 0.22543 0.70064 0.04100
H 	H 	0.57087 0.22732 0.78103 0.02800
H 	H 	0.73462 0.38029 0.80456 0.03800
C 	C 	0.67433 0.31863 0.13836 -0.07300
C 	C 	0.70111 0.37206 0.16270 0.00300
C 	C 	0.71073 0.38160 0.20889 -0.05900
C 	C 	0.69333 0.33770 0.23135 0.01400
C 	C 	0.66869 0.28420 0.20717 0.01200
C 	C 	0.65964 0.27496 0.16064 -0.01700
C 	C 	0.65146 0.24035 0.22981 -0.05700
C 	C 	0.65647 0.24913 0.27591 0.00200
C 	C 	0.67855 0.30168 0.29969 -0.07000
C 	C 	0.69832 0.34616 0.27752 -0.01900
H 	H 	0.71324 0.40604 0.14570 0.01900
H 	H 	0.73047 0.42293 0.22717 0.04000
H 	H 	0.63913 0.23366 0.14187 0.04500
H 	H 	0.63317 0.19929 0.21171 0.04200
H 	H 	0.64176 0.21476 0.29296 0.03000
H 	H 	0.71637 0.38700 0.29610 0.04300
C 	C 	0.92050 0.85918 0.45600 -0.00800
C 	C 	0.89078 0.83891 0.49025 -0.03100
C 	C 	0.86355 0.78351 0.49378 -0.05300
C 	C 	0.86662 0.74819 0.46365 0.02700
C 	C 	0.89582 0.76827 0.42911 -0.05300
C 	C 	0.92259 0.82349 0.42529 -0.03100
C 	C 	0.83706 0.68953 0.46710 -0.04600
C 	C 	0.86399 0.66675 0.46978 -0.05700
C 	C 	0.83373 0.60663 0.46739 0.04600
C 	C 	0.84574 0.57755 0.43908 -0.07700
C 	C 	0.81686 0.52060 0.43582 0.01700
C 	C 	0.77585 0.49206 0.46120 -0.09400
C 	C 	0.76518 0.52153 0.49078 0.01500
C 	C 	0.79420 0.57860 0.49404 -0.07600
H 	H 	0.88902 0.86611 0.51422 0.03500
H 	H 	0.84055 0.76820 0.52021 0.04000
H 	H 	0.89738 0.74099 0.40505 0.04000
H 	H 	0.94483 0.83851 0.39843 0.03500
H 	H 	0.79310 0.66492 0.46752 0.04000
H 	H 	0.90804 0.69180 0.46954 0.04200
H 	H 	0.87682 0.59895 0.41896 0.04600
H 	H 	0.82566 0.49854 0.41290 0.03500
H 	H 	0.73448 0.50032 0.51122 0.02900
H 	H 	0.78603 0.60096 0.51729 0.04600
C 	C 	0.75717 0.20534 0.44278 -0.10000
C 	C 	0.78953 0.21468 0.41017 0.01900
C 	C 	0.80892 0.18311 0.40239 -0.07900
C 	C 	0.79654 0.14231 0.42730 0.04700
C 	C 	0.76201 0.13107 0.45827 -0.08000
C 	C 	0.74251 0.16241 0.46605 0.01500
C 	C 	0.82023 0.11171 0.42119 -0.05800
C 	C 	0.84918 0.11003 0.45597 -0.04600
C 	C 	0.87062 0.07710 0.45115 0.02600
C 	C 	0.86727 0.04664 0.48372 -0.05300
C 	C 	0.89193 0.01954 0.48205 -0.03100
C 	C 	0.92025 0.02262 0.44775 -0.00700
C 	C 	0.92287 0.05234 0.41469 -0.03200
C 	C 	0.89874 0.07999 0.41664 -0.05200
H 	H 	0.80027 0.24676 0.39124 0.03700
H 	H 	0.83461 0.19127 0.37774 0.04700
H 	H 	0.75082 0.09846 0.47671 0.04500
H 	H 	0.71677 0.15386 0.49069 0.02100
H 	H 	0.81491 0.09148 0.38809 0.04300
H 	H 	0.85429 0.13053 0.48893 0.03800
H 	H 	0.84621 0.04462 0.51072 0.03800
H 	H 	0.89003 0.99711 0.50793 0.03400
H 	H 	0.94452 0.05489 0.38801 0.03500
H 	H 	0.90311 0.10470 0.39201 0.04000
C 	C 	0.09516 0.04127 0.45041 -0.00800
C 	C 	0.11506 0.06371 0.41303 -0.03100
C 	C 	0.17182 0.09704 0.41322 -0.05300
C 	C 	0.20912 0.10780 0.45061 0.02700
C 	C 	0.18922 0.08594 0.48828 -0.05200
C 	C 	0.13245 0.05252 0.48803 -0.03100
C 	C 	0.26915 0.14440 0.45092 -0.04600
C 	C 	0.30184 0.13015 0.46482 -0.05700
C 	C 	0.36197 0.16717 0.46590 0.04700
C 	C 	0.39872 0.17936 0.50424 -0.07800
C 	C 	0.45560 0.21242 0.50508 0.01900
C 	C 	0.47633 0.23310 0.46726 -0.09100
C 	C 	0.43942 0.22066 0.42877 0.01700
C 	C 	0.38253 0.18769 0.42804 -0.07700
H 	H 	0.08655 0.05536 0.38388 0.03500
H 	H 	0.18679 0.11430 0.38424 0.03900
H 	H 	0.21770 0.09538 0.51787 0.04100
H 	H 	0.11749 0.03589 0.51722 0.03600
H 	H 	0.28635 0.18222 0.43796 0.04000
H 	H 	0.28461 0.09220 0.47759 0.04200
H 	H 	0.38320 0.16332 0.53348 0.04600
H 	H 	0.48348 0.22192 0.53512 0.03600
H 	H 	0.45468 0.23564 0.39918 0.02400
H 	H 	0.35443 0.17737 0.39786 0.04600
C 	C 	0.73341 0.51016 0.97277 -0.08300
C 	C 	0.75559 0.53185 0.93570 0.01700
C 	C 	0.78045 0.58747 0.93442 -0.07500
C 	C 	0.78387 0.62206 0.97026 0.05000
C 	C 	0.76153 0.60038 0.00726 -0.08100
C 	C 	0.73700 0.54493 0.00870 0.00900
C 	C 	0.80836 0.68026 0.96784 -0.04400
C 	C 	0.84522 0.72123 0.00195 -0.06700
C 	C 	0.87095 0.77959 0.99922 0.04400
C 	C 	0.87666 0.81533 0.03543 -0.06200
C 	C 	0.90559 0.87169 0.03496 -0.03900
C 	C 	0.92942 0.89284 0.99839 0.00800
C 	C 	0.92265 0.85693 0.96172 -0.03400
C 	C 	0.89403 0.80068 0.96227 -0.05600
H 	H 	0.75273 0.50552 0.90756 0.03700
H 	H 	0.79700 0.60366 0.90552 0.04600
H 	H 	0.76254 0.62630 0.03463 0.04600
H 	H 	0.72036 0.52891 0.03761 0.02500
H 	H 	0.79805 0.68984 0.93718 0.04000
H 	H 	0.85546 0.71162 0.03263 0.04200
H 	H 	0.85938 0.79957 0.06421 0.04100
H 	H 	0.91079 0.89912 0.06349 0.03600
H 	H 	0.94091 0.87290 0.93332 0.03700
H 	H 	0.89115 0.77382 0.93456 0.04200
C 	C 	0.75818 0.21955 0.99864 -0.09300
C 	C 	0.75468 0.19604 0.03636 0.01000
C 	C 	0.78177 0.17180 0.04325 -0.07300
C 	C 	0.81301 0.17132 0.01278 0.03600
C 	C 	0.81645 0.19479 0.97506 -0.06700
C 	C 	0.78963 0.21915 0.96824 0.01200
C 	C 	0.83827 0.14219 0.01859 -0.05600
C 	C 	0.88995 0.16458 0.01190 -0.04600
C 	C 	0.91165 0.13180 0.00972 0.01900
C 	C 	0.93564 0.12988 0.97366 -0.04600
C 	C 	0.95711 0.09976 0.97147 -0.02500
C 	C 	0.95548 0.07187 0.00567 -0.01500
C 	C 	0.93214 0.07436 0.04210 -0.03100
C 	C 	0.91047 0.10435 0.04420 -0.05200
H 	H 	0.73085 0.19630 0.06023 0.03700
H 	H 	0.77832 0.15325 0.07219 0.04500
H 	H 	0.83887 0.19306 0.95050 0.04300
H 	H 	0.79216 0.23644 0.93870 0.01200
H 	H 	0.81408 0.10177 0.02772 0.04100
H 	H 	0.91446 0.20553 0.00371 0.03700
H 	H 	0.93724 0.15138 0.94713 0.03900
H 	H 	0.97491 0.09799 0.94317 0.03500
H 	H 	0.93117 0.05342 0.06888 0.03400
H 	H 	0.89328 0.10667 0.07275 0.04000
C 	C 	0.11422 0.06410 0.99428 -0.00100
C 	C 	0.12778 0.04346 0.95949 -0.03200
C 	C 	0.18291 0.06554 0.95860 -0.05200
C 	C 	0.22528 0.10975 0.99181 0.03100
C 	C 	0.21173 0.13118 0.02600 -0.05800
C 	C 	0.15649 0.10847 0.02726 -0.03800
C 	C 	0.28349 0.13067 0.99330 -0.03800
C 	C 	0.30501 0.13739 0.95625 -0.05800
C 	C 	0.36389 0.16075 0.95839 0.04700
C 	C 	0.39572 0.20192 0.93424 -0.07700
C 	C 	0.45221 0.22685 0.93829 0.01700
C 	C 	0.47744 0.21073 0.96655 -0.09500
C 	C 	0.44476 0.16698 0.98850 0.02400
C 	C 	0.38821 0.14189 0.98421 -0.07100
H 	H 	0.09548 0.00935 0.93376 0.03600
H 	H 	0.19252 0.04735 0.93278 0.04100
H 	H 	0.24399 0.16490 0.05198 0.04000
H 	H 	0.14650 0.12449 0.05441 0.03600
H 	H 	0.30989 0.14364 0.02536 0.03400
H 	H 	0.28032 0.12979 0.92465 0.04300
H 	H 	0.37699 0.21562 0.91320 0.04700
H 	H 	0.47653 0.25945 0.92016 0.03000
H 	H 	0.46333 0.15336 0.00981 0.02900
H 	H 	0.36349 0.10836 0.00144 0.04100
