data_crystal

_cell_length_a 18.65616
_cell_length_b 18.86091
_cell_length_c 39.37809
_cell_angle_alpha 95.42348
_cell_angle_beta  95.42374
_cell_angle_gamma 126.41460

_symmetry_space_group_name_	'P 1'
_symmetry_space_group_name_H-M	'P 1'

loop_
_symmetry_equiv_pos_as_xyz
  x,y,z

loop_
_atom_site_label
_atom_site_type_symbol
_atom_site_fract_x
_atom_site_fract_y
_atom_site_fract_z
_atom_site_charge
C 	C 	0.92108 0.98780 0.97221 0.04500
C 	C 	0.86756 0.89472 0.97194 -0.06000
C 	C 	0.90623 0.84951 0.96866 0.05600
C 	C 	0.99706 0.89702 0.96522 -0.06100
C 	C 	0.05027 0.98931 0.96590 0.04300
C 	C 	0.01186 0.03417 0.96846 -0.04900
H 	H 	0.79764 0.85853 0.97518 0.06900
H 	H 	0.02726 0.86261 0.96327 0.06800
H 	H 	0.05362 0.10591 0.96910 0.06900
C 	C 	0.94235 0.06146 0.50340 0.07000
C 	C 	0.88906 0.96929 0.50373 -0.08100
C 	C 	0.92814 0.92484 0.50306 0.07000
C 	C 	0.02071 0.97262 0.50283 -0.08400
C 	C 	0.07432 0.06452 0.50249 0.07300
C 	C 	0.03546 0.10941 0.50310 -0.07500
H 	H 	0.81692 0.93182 0.50338 0.07300
H 	H 	0.05067 0.93787 0.50211 0.07300
H 	H 	0.07673 0.18049 0.50244 0.07500
Cu	Cu	0.76291 0.32523 0.96126 0.92800
Cu	Cu	0.79237 0.29814 0.04488 0.88000
Cu	Cu	0.61238 0.25502 0.00397 0.90200
Cu	Cu	0.58700 0.30990 0.93607 0.90800
C 	C 	0.69271 0.29253 0.88779 0.29300
O 	O 	0.81234 0.45552 0.96087 -0.33900
C 	C 	0.66352 0.29314 0.08017 0.29000
O 	O 	0.62170 0.24613 0.95623 -0.64100
O 	O 	0.74871 0.33767 0.01072 -0.63500
O 	O 	0.82044 0.26206 0.96210 -0.32900
O 	O 	0.87175 0.29395 0.02017 -0.41300
O 	O 	0.64878 0.32519 0.89559 -0.35500
O 	O 	0.48178 0.17588 0.99322 -0.37100
C 	C 	0.43292 0.18579 0.97052 0.30800
C 	C 	0.76688 0.48519 0.96991 0.29500
O 	O 	0.68399 0.42868 0.97515 -0.37600
O 	O 	0.47127 0.25425 0.95403 -0.37100
O 	O 	0.75126 0.29750 0.91178 -0.34000
C 	C 	0.84170 0.24021 0.99008 0.28600
O 	O 	0.60118 0.23802 0.05234 -0.38800
O 	O 	0.75016 0.33665 0.07924 -0.40900
H 	H 	0.58789 0.18342 0.94389 0.18000
H 	H 	0.77170 0.39945 0.02035 0.17000
Cu	Cu	0.61091 0.22783 0.50578 0.93100
Cu	Cu	0.66828 0.22763 0.42953 0.87600
Cu	Cu	0.65272 0.36631 0.46021 0.90000
Cu	Cu	0.61530 0.39356 0.53105 0.90700
C 	C 	0.65001 0.29900 0.57883 0.29300
O 	O 	0.47987 0.17374 0.50860 -0.34400
C 	C 	0.61195 0.30089 0.38390 0.29000
O 	O 	0.68299 0.36680 0.50828 -0.63700
O 	O 	0.59054 0.23480 0.45630 -0.63800
O 	O 	0.66903 0.16719 0.50123 -0.35300
O 	O 	0.76048 0.25920 0.46659 -0.43000
O 	O 	0.60828 0.33437 0.57138 -0.35600
O 	O 	0.72012 0.49512 0.46725 -0.37300
C 	C 	0.72078 0.54418 0.49373 0.31000
C 	C 	0.44348 0.21181 0.49805 0.30000
O 	O 	0.49565 0.29403 0.49253 -0.38400
O 	O 	0.66129 0.50722 0.51444 -0.37000
O 	O 	0.64901 0.24427 0.55479 -0.33800
C 	C 	0.74316 0.20400 0.48802 0.30700
O 	O 	0.64240 0.36800 0.40981 -0.37700
O 	O 	0.60407 0.22883 0.38926 -0.41100
H 	H 	0.74885 0.40615 0.51793 0.18100
H 	H 	0.52624 0.19707 0.44448 0.17800
C 	C 	0.67627 0.30171 0.61569 -0.06800
C 	C 	0.64748 0.22231 0.62756 0.03100
C 	C 	0.65555 0.22169 0.66323 -0.06500
C 	C 	0.69351 0.30078 0.68732 0.05400
C 	C 	0.72753 0.38109 0.67542 -0.06500
C 	C 	0.71923 0.38164 0.63982 0.02400
C 	C 	0.68515 0.29754 0.72423 -0.04700
C 	C 	0.70938 0.25620 0.74275 -0.04800
C 	C 	0.70201 0.25553 0.77983 0.05400
C 	C 	0.77781 0.28627 0.80492 -0.06600
C 	C 	0.77391 0.29473 0.84029 0.02900
C 	C 	0.69371 0.27171 0.85079 -0.06900
C 	C 	0.61625 0.23558 0.82554 0.02400
C 	C 	0.62028 0.22729 0.79025 -0.06600
H 	H 	0.61449 0.16018 0.60921 0.05800
H 	H 	0.62833 0.15902 0.67204 0.06100
H 	H 	0.75738 0.44254 0.69375 0.06000
H 	H 	0.74289 0.44356 0.63096 0.04100
H 	H 	0.66273 0.33310 0.73690 0.05500
H 	H 	0.73974 0.22768 0.73118 0.05300
H 	H 	0.84067 0.30658 0.79710 0.06100
H 	H 	0.83405 0.32205 0.85943 0.05400
H 	H 	0.55338 0.21558 0.83327 0.04200
H 	H 	0.56044 0.20060 0.77103 0.06000
C 	C 	0.63584 0.29267 0.11417 -0.08800
C 	C 	0.55596 0.21504 0.12051 0.02300
C 	C 	0.53673 0.20983 0.15407 -0.07100
C 	C 	0.59626 0.28247 0.18152 0.05200
C 	C 	0.67392 0.36170 0.17491 -0.07200
C 	C 	0.69338 0.36688 0.14137 0.02200
C 	C 	0.58365 0.27067 0.21764 -0.04900
C 	C 	0.58764 0.33168 0.24018 -0.04900
C 	C 	0.58656 0.32538 0.27739 0.05200
C 	C 	0.65024 0.40172 0.30296 -0.07100
C 	C 	0.65546 0.39480 0.33803 0.02200
C 	C 	0.59676 0.31138 0.34785 -0.08600
C 	C 	0.52918 0.23619 0.32244 0.02300
C 	C 	0.52350 0.24331 0.28741 -0.07100
H 	H 	0.51062 0.15738 0.09979 0.04400
H 	H 	0.47677 0.14836 0.15890 0.05900
H 	H 	0.72097 0.41795 0.19595 0.05500
H 	H 	0.75447 0.42769 0.13677 0.03800
H 	H 	0.57133 0.21149 0.22587 0.04900
H 	H 	0.59985 0.39072 0.23183 0.05100
H 	H 	0.69774 0.46581 0.29558 0.05700
H 	H 	0.70743 0.45354 0.35739 0.04300
H 	H 	0.48204 0.17193 0.32976 0.03800
H 	H 	0.47109 0.18482 0.26805 0.05700
C 	C 	0.77314 0.67650 0.46641 -0.00700
C 	C 	0.77601 0.64164 0.49599 -0.08800
C 	C 	0.82727 0.70011 0.52814 0.11100
C 	C 	0.87384 0.79248 0.53043 -0.06700
C 	C 	0.87147 0.82727 0.50082 -0.00600
C 	C 	0.82102 0.76902 0.46863 0.06300
N 	N 	0.81866 0.80375 0.43811 -0.01800
H 	H 	0.73330 0.63171 0.44170 0.06600
H 	H 	0.91390 0.83749 0.55509 0.07200
N 	N 	0.83390 0.66603 0.55832 -0.02500
O 	O 	0.89201 0.85330 0.42547 -0.08000
O 	O 	0.74194 0.78070 0.42161 -0.09400
O 	O 	0.86543 0.62028 0.55807 -0.11900
O 	O 	0.81459 0.68621 0.58682 -0.10400
C 	C 	0.87059 0.12522 0.52905 -0.07000
C 	C 	0.89873 0.10561 0.50018 -0.00300
C 	C 	0.87886 0.12179 0.46771 0.06100
C 	C 	0.82986 0.15590 0.46428 -0.00800
C 	C 	0.79940 0.17325 0.49290 -0.09700
C 	C 	0.82188 0.15986 0.52569 0.11800
N 	N 	0.79791 0.18394 0.55578 -0.02200
H 	H 	0.88660 0.11365 0.55414 0.07300
H 	H 	0.81322 0.16645 0.43906 0.04200
N 	N 	0.90679 0.10193 0.43796 -0.01900
O 	O 	0.74900 0.12410 0.57422 -0.09600
O 	O 	0.83085 0.26707 0.56624 -0.09800
O 	O 	0.87285 0.01937 0.42552 -0.07600
O 	O 	0.96017 0.16538 0.42159 -0.09200
C 	C 	0.23431 0.14928 0.53180 -0.06800
C 	C 	0.17089 0.11277 0.50082 -0.00500
C 	C 	0.19703 0.10710 0.46882 0.06300
C 	C 	0.28554 0.13601 0.46827 -0.00900
C 	C 	0.34815 0.17030 0.49933 -0.09000
C 	C 	0.32231 0.17698 0.53126 0.11200
N 	N 	0.38546 0.21208 0.56321 -0.02700
H 	H 	0.21413 0.15266 0.55647 0.07200
H 	H 	0.30590 0.13290 0.44362 0.05400
N 	N 	0.13320 0.07024 0.43690 -0.01800
O 	O 	0.41224 0.28674 0.58230 -0.10700
O 	O 	0.40954 0.16535 0.57473 -0.08900
O 	O 	0.09387 0.10606 0.42839 -0.07800
O 	O 	0.11827 0.00408 0.41545 -0.08900
C 	C 	0.83475 0.63881 0.00103 -0.01000
C 	C 	0.80359 0.57916 0.96953 -0.08700
C 	C 	0.79415 0.60539 0.93808 0.11000
C 	C 	0.81748 0.69125 0.93842 -0.07000
C 	C 	0.85332 0.75277 0.96977 0.00200
C 	C 	0.85965 0.72535 0.00134 0.05900
N 	N 	0.89409 0.78624 0.03372 -0.01600
H 	H 	0.83900 0.61785 0.02537 0.05400
H 	H 	0.81306 0.71200 0.91405 0.07200
N 	N 	0.76180 0.54534 0.90567 -0.02700
O 	O 	0.85456 0.82141 0.04258 -0.08900
O 	O 	0.96123 0.80190 0.05534 -0.09100
O 	O 	0.68644 0.51782 0.88614 -0.10700
O 	O 	0.81168 0.52480 0.89427 -0.09100
C 	C 	0.82647 0.03556 0.95347 -0.06500
C 	C 	0.88556 0.03906 0.97967 0.00700
C 	C 	0.92368 0.10355 0.01051 0.05700
C 	C 	0.90926 0.16872 0.01347 -0.01700
C 	C 	0.85394 0.16854 0.98651 -0.08800
C 	C 	0.80873 0.09847 0.95701 0.10800
N 	N 	0.74275 0.08905 0.93124 -0.01900
H 	H 	0.79537 0.98491 0.93003 0.06700
H 	H 	0.94146 0.21963 0.03684 0.06000
N 	N 	0.97936 0.10458 0.03857 -0.01800
O 	O 	0.75500 0.09366 0.89931 -0.09400
O 	O 	0.66710 0.06851 0.93905 -0.12200
O 	O 	0.05756 0.17932 0.05314 -0.08900
O 	O 	0.94982 0.03184 0.05073 -0.07700
C 	C 	0.30182 0.12727 0.00014 -0.00900
C 	C 	0.33474 0.13157 0.96923 -0.08600
C 	C 	0.27385 0.08907 0.93710 0.11400
C 	C 	0.18099 0.04405 0.93626 -0.07100
C 	C 	0.14830 0.04025 0.96716 0.00800
C 	C 	0.20901 0.08185 0.99928 0.06300
N 	N 	0.17666 0.07901 0.03107 -0.01800
H 	H 	0.34854 0.16027 0.02486 0.06500
H 	H 	0.13409 0.01091 0.91158 0.07500
N 	N 	0.30596 0.09020 0.90537 -0.02500
O 	O 	0.12187 0.00258 0.04066 -0.07700
O 	O 	0.20851 0.15330 0.05190 -0.08500
O 	O 	0.35127 0.05882 0.90128 -0.11300
O 	O 	0.28442 0.11674 0.87969 -0.10200
