data_crystal

_cell_length_a 25.77833
_cell_length_b 20.40798
_cell_length_c 67.26644
_cell_angle_alpha 90.47803
_cell_angle_beta  91.17400
_cell_angle_gamma 110.65766

_symmetry_space_group_name_	'P 1'
_symmetry_space_group_name_H-M	'P 1'

loop_
_symmetry_equiv_pos_as_xyz
  x,y,z

loop_
_atom_site_label
_atom_site_type_symbol
_atom_site_fract_x
_atom_site_fract_y
_atom_site_fract_z
_atom_site_charge
Ni	Ni	0.69636 0.34047 0.88342 1.10000
O 	O 	0.63674 0.28451 0.86302 -0.70400
Ni	Ni	0.56894 0.29022 0.87535 1.10200
O 	O 	0.75758 0.32557 0.86703 -0.36600
O 	O 	0.71225 0.20681 0.86436 -0.40700
O 	O 	0.70024 0.42351 0.86598 -0.39800
Ni	Ni	0.62721 0.18616 0.86013 1.06600
O 	O 	0.69659 0.41768 0.92760 -0.41500
O 	O 	0.61632 0.16635 0.88985 -0.41100
O 	O 	0.51573 0.24264 0.85266 -0.38300
O 	O 	0.62723 0.33291 0.89750 -0.70400
O 	O 	0.75480 0.40426 0.90328 -0.37800
O 	O 	0.50890 0.32072 0.88794 -0.37100
O 	O 	0.57081 0.43131 0.89186 -0.42100
Ni	Ni	0.63742 0.42568 0.90851 1.07100
H 	H 	0.64175 0.30673 0.84982 0.15700
H 	H 	0.62292 0.30053 0.90871 0.15300
C 	C 	0.57179 0.16733 0.89885 0.28400
O 	O 	0.69629 0.49564 0.89156 -0.40100
C 	C 	0.75101 0.26482 0.85841 0.28900
C 	C 	0.51285 0.18073 0.84571 0.29500
C 	C 	0.70482 0.48558 0.87280 0.32400
C 	C 	0.52131 0.38495 0.89494 0.27800
C 	C 	0.74484 0.41464 0.92213 0.28700
O 	O 	0.53962 0.19778 0.89061 -0.37100
O 	O 	0.54290 0.14645 0.85404 -0.40400
Ni	Ni	0.63180 0.32866 0.58520 1.10100
O 	O 	0.69015 0.33190 0.56456 -0.70000
Ni	Ni	0.74389 0.30227 0.58077 1.09900
O 	O 	0.60086 0.39485 0.57018 -0.37200
O 	O 	0.68838 0.47213 0.56667 -0.41900
O 	O 	0.57460 0.24534 0.56996 -0.37300
Ni	Ni	0.73088 0.41897 0.55149 1.07100
O 	O 	0.55917 0.19751 0.60713 -0.40600
O 	O 	0.80172 0.46223 0.56877 -0.40200
O 	O 	0.67924 0.28513 0.59980 -0.70200
O 	O 	0.57451 0.31559 0.60664 -0.37900
O 	O 	0.78109 0.25219 0.59966 -0.36600
O 	O 	0.70229 0.15484 0.59988 -0.41100
Ni	Ni	0.63461 0.18677 0.60310 1.06600
H 	H 	0.67411 0.29611 0.55399 0.15500
H 	H 	0.69146 0.30868 0.61289 0.15500
C 	C 	0.80495 0.45538 0.58807 0.31900
O 	O 	0.61871 0.16666 0.57350 -0.41600
C 	C 	0.63471 0.45457 0.56336 0.27500
C 	C 	0.58506 0.19041 0.56353 0.31000
C 	C 	0.75197 0.19109 0.60723 0.29200
C 	C 	0.55136 0.25346 0.61473 0.29200
O 	O 	0.78081 0.39447 0.59642 -0.39200
O 	O 	0.76918 0.36488 0.53589 -0.42100
Ni	Ni	0.01662 0.98610 0.74713 1.09000
O 	O 	0.04431 0.91505 0.73401 -0.71300
Ni	Ni	0.07819 0.96534 0.70936 1.09300
O 	O 	0.08773 0.02242 0.76507 -0.36500
O 	O 	0.07357 0.14325 0.75728 -0.40800
O 	O 	0.10003 0.88785 0.69647 -0.37900
O 	O 	0.04791 0.03665 0.72208 -0.69200
O 	O 	0.12550 0.03417 0.68913 -0.36100
O 	O 	0.14390 0.14231 0.70314 -0.40000
Ni	Ni	0.10311 0.12774 0.73013 1.06800
H 	H 	0.07346 0.90704 0.74239 0.15100
H 	H 	0.01794 0.04347 0.71388 0.15200
O 	O 	0.15227 0.07890 0.74212 -0.42200
C 	C 	0.06292 0.82356 0.69521 0.31300
C 	C 	0.13867 0.04148 0.75827 0.29400
C 	C 	0.16135 0.09575 0.69463 0.30000
C 	C 	0.02033 0.12357 0.76135 0.30400
Ni	Ni	0.26456 0.67514 0.39201 1.09900
O 	O 	0.32486 0.72136 0.37190 -0.70300
Ni	Ni	0.39239 0.71962 0.38645 1.10200
O 	O 	0.20467 0.68376 0.37275 -0.36700
O 	O 	0.25112 0.80109 0.36875 -0.41100
O 	O 	0.26034 0.58455 0.37784 -0.40300
Ni	Ni	0.33551 0.81834 0.36619 1.06500
O 	O 	0.26291 0.61609 0.43753 -0.42200
O 	O 	0.34716 0.84987 0.39542 -0.41200
O 	O 	0.44634 0.75744 0.36411 -0.37800
O 	O 	0.33362 0.68691 0.40791 -0.70000
O 	O 	0.20385 0.62066 0.41153 -0.37800
O 	O 	0.45120 0.69276 0.40207 -0.37200
O 	O 	0.38757 0.58477 0.40673 -0.42100
Ni	Ni	0.32253 0.59885 0.42148 1.07200
H 	H 	0.31933 0.69379 0.35935 0.15700
H 	H 	0.33861 0.72378 0.41816 0.15400
C 	C 	0.39170 0.85222 0.40568 0.28500
O 	O 	0.26306 0.52105 0.40544 -0.40100
C 	C 	0.21183 0.74199 0.36304 0.29100
C 	C 	0.44750 0.81448 0.35465 0.29200
C 	C 	0.24882 0.52454 0.38673 0.33100
C 	C 	0.43778 0.63034 0.40988 0.30000
C 	C 	0.21264 0.60609 0.43025 0.31000
O 	O 	0.42309 0.81784 0.39947 -0.37200
O 	O 	0.41944 0.85337 0.36134 -0.40600
Ni	Ni	0.35279 0.68379 0.07482 1.10200
O 	O 	0.28289 0.66289 0.05715 -0.70100
Ni	Ni	0.23343 0.69139 0.07510 1.09900
O 	O 	0.38492 0.62125 0.05888 -0.37100
O 	O 	0.30256 0.53163 0.06000 -0.42000
O 	O 	0.39528 0.76611 0.05692 -0.37000
Ni	Ni	0.24304 0.56698 0.04786 1.07200
O 	O 	0.42450 0.82719 0.09304 -0.40700
O 	O 	0.18486 0.51776 0.06875 -0.39900
O 	O 	0.15804 0.65173 0.05976 -0.38000
O 	O 	0.30695 0.72387 0.09110 -0.70100
O 	O 	0.42042 0.71294 0.09339 -0.37800
O 	O 	0.19896 0.73866 0.09538 -0.36800
O 	O 	0.26993 0.84382 0.09294 -0.41200
Ni	Ni	0.34429 0.82515 0.09217 1.06600
H 	H 	0.29048 0.69351 0.04544 0.15500
H 	H 	0.30284 0.70448 0.10466 0.15700
C 	C 	0.17949 0.54318 0.08631 0.32800
O 	O 	0.34370 0.83529 0.06210 -0.41700
C 	C 	0.35334 0.55739 0.05353 0.30200
C 	C 	0.14926 0.61703 0.04248 0.31300
C 	C 	0.37600 0.81442 0.05083 0.30500
C 	C 	0.22632 0.80248 0.10224 0.29200
C 	C 	0.44049 0.77748 0.10068 0.29500
O 	O 	0.21281 0.60491 0.09247 -0.40300
O 	O 	0.18886 0.60226 0.03346 -0.42500
O 	O 	0.04591 0.12928 0.26400 -0.41200
Ni	Ni	0.02099 0.14829 0.23553 1.06400
O 	O 	0.04088 0.06543 0.22527 -0.41400
C 	C 	0.02292 0.03621 0.20780 0.30200
C 	C 	0.01595 0.12572 0.27991 0.28700
O 	O 	0.01220 0.17850 0.20694 -0.40800
C 	C 	0.00733 0.32942 0.15443 -0.00500
C 	C 	0.03834 0.39938 0.15944 -0.03500
C 	C 	0.06927 0.44460 0.14500 -0.03400
C 	C 	0.06909 0.42018 0.12545 -0.00600
C 	C 	0.03456 0.35197 0.12007 -0.03200
C 	C 	0.00360 0.30673 0.13453 -0.03700
C 	C 	0.10778 0.46291 0.11144 0.05000
C 	C 	0.14036 0.49923 0.09987 -0.10700
C 	C 	0.99048 0.27843 0.16995 0.04500
H 	H 	0.04121 0.41758 0.17474 0.03600
H 	H 	0.09516 0.49763 0.14921 0.04000
H 	H 	0.03345 0.33302 0.10492 0.04100
C 	C 	0.68174 0.88133 0.15715 -0.00500
C 	C 	0.65984 0.93092 0.15017 -0.03400
C 	C 	0.61156 0.90956 0.13824 -0.03500
C 	C 	0.58504 0.83855 0.13326 -0.00500
C 	C 	0.60779 0.78922 0.13978 -0.03500
C 	C 	0.65607 0.81059 0.15171 -0.03500
C 	C 	0.53389 0.81622 0.12184 0.04300
C 	C 	0.49107 0.79812 0.11226 -0.10600
C 	C 	0.72758 0.90203 0.17121 0.04300
H 	H 	0.67950 0.98572 0.15432 0.04100
H 	H 	0.59437 0.94802 0.13313 0.03900
H 	H 	0.58768 0.73428 0.13586 0.04100
H 	H 	0.67282 0.77199 0.15705 0.03700
C 	C 	0.15492 0.88714 0.14392 -0.00700
C 	C 	0.17780 0.90281 0.16325 -0.03500
C 	C 	0.15298 0.93284 0.17723 -0.03700
C 	C 	0.10528 0.94719 0.17188 -0.00400
C 	C 	0.08242 0.93121 0.15259 -0.03600
C 	C 	0.10716 0.90129 0.13866 -0.03300
C 	C 	0.07971 0.97885 0.18598 0.03900
C 	C 	0.05541 0.00520 0.19670 -0.10500
C 	C 	0.18062 0.85720 0.12940 0.04300
C 	C 	0.20150 0.83211 0.11703 -0.11100
H 	H 	0.21476 0.89197 0.16742 0.03400
H 	H 	0.17087 0.94504 0.19212 0.03800
H 	H 	0.04554 0.94219 0.14837 0.04300
H 	H 	0.08929 0.88931 0.12375 0.04200
C 	C 	0.57860 0.90505 0.31865 -0.00300
C 	C 	0.63022 0.94408 0.32744 -0.03400
C 	C 	0.67771 0.96642 0.31590 -0.03300
C 	C 	0.67380 0.94971 0.29553 -0.00500
C 	C 	0.62161 0.91475 0.28652 -0.03400
C 	C 	0.57413 0.89237 0.29806 -0.03600
C 	C 	0.72328 0.95659 0.28480 0.04700
C 	C 	0.76388 0.96154 0.27542 -0.10300
C 	C 	0.53149 0.87275 0.33097 0.04100
C 	C 	0.49260 0.84620 0.34155 -0.10100
H 	H 	0.63394 0.95480 0.34331 0.04400
H 	H 	0.71781 0.99365 0.32298 0.04300
H 	H 	0.61814 0.90187 0.27077 0.03900
H 	H 	0.53429 0.86293 0.29111 0.03600
C 	C 	0.09065 0.24881 0.32779 -0.00400
C 	C 	0.06872 0.29768 0.33518 -0.03500
C 	C 	0.09932 0.34881 0.34902 -0.03300
C 	C 	0.15198 0.35129 0.35553 -0.00700
C 	C 	0.17246 0.29984 0.34907 -0.03300
C 	C 	0.14182 0.24863 0.33521 -0.03500
C 	C 	0.18735 0.41107 0.36681 0.05200
C 	C 	0.21586 0.46188 0.37623 -0.11000
C 	C 	0.06398 0.20467 0.31106 0.04100
C 	C 	0.04149 0.16780 0.29703 -0.10700
H 	H 	0.02901 0.29781 0.32961 0.03900
H 	H 	0.08306 0.38816 0.35407 0.04300
H 	H 	0.21297 0.30111 0.35416 0.04000
H 	H 	0.15882 0.21060 0.32969 0.04100
C 	C 	0.01062 0.77517 0.29972 -0.00800
C 	C 	0.05889 0.76953 0.29189 -0.03500
C 	C 	0.09809 0.75704 0.30451 -0.03600
C 	C 	0.08907 0.75001 0.32499 -0.00600
C 	C 	0.03924 0.75121 0.33261 -0.03300
C 	C 	0.00006 0.76368 0.32000 -0.03600
C 	C 	0.13253 0.74709 0.33834 0.04200
C 	C 	0.16874 0.74463 0.34960 -0.10900
H 	H 	0.06726 0.77803 0.27622 0.03600
H 	H 	0.13625 0.75532 0.29847 0.03500
H 	H 	0.03170 0.74501 0.34839 0.04200
H 	H 	0.96274 0.76767 0.32615 0.04600
C 	C 	0.40920 0.89793 0.42345 -0.08800
C 	C 	0.36947 0.90736 0.43602 0.00700
C 	C 	0.38623 0.94569 0.45382 -0.06100
C 	C 	0.44272 0.97479 0.45913 0.01100
C 	C 	0.48245 0.96731 0.44628 -0.06000
C 	C 	0.46581 0.92915 0.42852 0.01200
C 	C 	0.46029 0.00996 0.47855 0.02700
C 	C 	0.47980 0.97681 0.49361 -0.06900
C 	C 	0.50231 0.01294 0.51129 -0.00300
C 	C 	0.50543 0.08236 0.51401 -0.02100
C 	C 	0.48439 0.11486 0.49924 -0.02100
C 	C 	0.46179 0.07870 0.48154 -0.05200
C 	C 	0.53284 0.12122 0.53148 0.05400
C 	C 	0.55648 0.15316 0.54611 -0.11500
H 	H 	0.32567 0.88345 0.43230 0.02900
H 	H 	0.35532 0.95147 0.46366 0.04300
H 	H 	0.52619 0.99021 0.45022 0.04500
H 	H 	0.49691 0.92323 0.41879 0.04200
H 	H 	0.47862 0.92364 0.49142 0.04600
H 	H 	0.51830 0.98744 0.52269 0.02700
H 	H 	0.48650 0.16848 0.50130 0.03600
H 	H 	0.44676 0.10462 0.46998 0.04500
C 	C 	0.04641 0.43427 0.49388 -0.04300
C 	C 	0.08956 0.46732 0.48104 -0.03200
C 	C 	0.08355 0.51464 0.46697 -0.00600
C 	C 	0.03427 0.52895 0.46583 -0.03500
C 	C 	0.12802 0.54828 0.45367 0.04500
C 	C 	0.16604 0.57545 0.44279 -0.10500
H 	H 	0.05133 0.39755 0.50465 0.04100
H 	H 	0.12757 0.45603 0.48200 0.03900
H 	H 	0.02935 0.56554 0.45502 0.04100
C 	C 	0.61423 0.49219 0.54814 -0.09700
C 	C 	0.65196 0.54727 0.53761 0.00200
C 	C 	0.63398 0.57433 0.52090 -0.06800
C 	C 	0.57812 0.54730 0.51467 0.02400
C 	C 	0.53977 0.49563 0.52589 -0.06700
C 	C 	0.55763 0.46842 0.54260 0.01400
C 	C 	0.56028 0.57021 0.49586 0.00200
C 	C 	0.57885 0.55355 0.47768 -0.04200
C 	C 	0.55820 0.56991 0.45974 -0.03100
C 	C 	0.51906 0.60317 0.45989 -0.01300
C 	C 	0.50177 0.62172 0.47803 -0.03300
C 	C 	0.52227 0.60527 0.49596 -0.04200
C 	C 	0.49319 0.61323 0.44159 0.04500
C 	C 	0.46928 0.62119 0.42674 -0.13200
H 	H 	0.69549 0.56761 0.54196 0.01900
H 	H 	0.66368 0.61521 0.51253 0.04400
H 	H 	0.49638 0.47513 0.52133 0.04700
H 	H 	0.52771 0.42738 0.55083 0.04200
H 	H 	0.60820 0.52646 0.47745 0.03700
H 	H 	0.57173 0.55539 0.44577 0.03900
H 	H 	0.47151 0.64748 0.47825 0.03000
H 	H 	0.50793 0.61865 0.50992 0.03900
H 	H 	0.75868 0.98517 0.63536 0.02200
C 	C 	0.31088 0.16302 0.66736 -0.00300
C 	C 	0.33152 0.11317 0.65978 -0.03400
C 	C 	0.38191 0.13468 0.64995 -0.03400
C 	C 	0.41199 0.20619 0.64763 -0.00400
C 	C 	0.39176 0.25620 0.65543 -0.03500
C 	C 	0.34126 0.23464 0.66529 -0.03400
C 	C 	0.46214 0.22767 0.63638 0.04100
C 	C 	0.50366 0.24191 0.62680 -0.10100
C 	C 	0.25816 0.14048 0.67703 0.04400
C 	C 	0.21397 0.12046 0.68507 -0.10000
H 	H 	0.30835 0.05777 0.66135 0.04400
H 	H 	0.39723 0.09572 0.64393 0.04100
H 	H 	0.41471 0.31157 0.65368 0.04100
H 	H 	0.32565 0.27352 0.67116 0.04000
C 	C 	0.04500 0.78966 0.67624 -0.10600
H 	H 	0.04429 0.64713 0.64496 0.04200
C 	C 	0.97391 0.48322 0.00913 -0.02400
C 	C 	0.00288 0.55541 0.01122 -0.01800
C 	C 	0.05300 0.58023 0.02323 0.05100
C 	C 	0.09628 0.59866 0.03254 -0.11000
H 	H 	0.98562 0.44668 0.01816 0.03900
C 	C 	0.55476 0.12869 0.91744 -0.08600
C 	C 	0.52582 0.15242 0.93158 0.01000
C 	C 	0.50502 0.11265 0.94835 -0.06000
C 	C 	0.51287 0.04870 0.95115 0.01500
C 	C 	0.54316 0.02586 0.93733 -0.05100
C 	C 	0.56413 0.06575 0.92056 0.01000
C 	C 	0.48812 0.00487 0.96827 0.02600
C 	C 	0.52224 0.98982 0.98269 -0.06500
C 	C 	0.49878 0.94980 0.99918 -0.02100
C 	C 	0.44114 0.92463 0.00134 -0.01500
C 	C 	0.40696 0.93907 0.98688 -0.02500
C 	C 	0.43034 0.97899 0.97037 -0.05700
C 	C 	0.41721 0.88520 0.01863 0.04800
C 	C 	0.39785 0.85262 0.03324 -0.11000
H 	H 	0.51901 0.20139 0.92949 0.02400
H 	H 	0.48235 0.13117 0.95908 0.04400
H 	H 	0.54954 0.97662 0.93939 0.03700
H 	H 	0.58627 0.04676 0.90974 0.03400
H 	H 	0.56687 0.00966 0.98123 0.05000
H 	H 	0.52544 0.93881 0.01031 0.03800
H 	H 	0.36236 0.91970 0.98845 0.03500
H 	H 	0.40364 0.98999 0.95926 0.04300
C 	C 	0.48770 0.39840 0.91089 -0.10300
C 	C 	0.49248 0.46741 0.91573 0.00500
C 	C 	0.46912 0.48158 0.93309 -0.06900
C 	C 	0.44059 0.42688 0.94569 0.02300
C 	C 	0.43298 0.35756 0.94029 -0.06800
C 	C 	0.45624 0.34329 0.92295 0.00900
C 	C 	0.42188 0.44257 0.96511 0.00200
C 	C 	0.44686 0.43024 0.98274 -0.04200
C 	C 	0.43126 0.44868 0.00114 -0.03000
C 	C 	0.39055 0.47935 0.00202 -0.01300
C 	C 	0.36475 0.49034 0.98446 -0.03200
C 	C 	0.38038 0.47205 0.96605 -0.04200
C 	C 	0.37790 0.50408 0.02075 0.04700
C 	C 	0.36700 0.52700 0.03603 -0.13200
H 	H 	0.51577 0.51028 0.90640 0.02800
H 	H 	0.47466 0.53524 0.93705 0.04500
H 	H 	0.41034 0.31493 0.94981 0.04600
H 	H 	0.45186 0.28970 0.91938 0.03600
H 	H 	0.47899 0.40755 0.98214 0.03700
H 	H 	0.45146 0.44019 0.01465 0.03900
H 	H 	0.33327 0.51412 0.98505 0.03000
H 	H 	0.36070 0.48146 0.95254 0.04000
C 	C 	0.79471 0.25958 0.84630 -0.10600
C 	C 	0.26881 0.03744 0.79309 -0.00400
C 	C 	0.31717 0.03687 0.78399 -0.03400
C 	C 	0.36722 0.05620 0.79495 -0.03500
C 	C 	0.36897 0.07588 0.81503 -0.00300
C 	C 	0.31972 0.07057 0.82449 -0.03300
C 	C 	0.26978 0.05149 0.81354 -0.03300
C 	C 	0.42150 0.11131 0.82506 0.04300
C 	C 	0.46422 0.14141 0.83416 -0.10000
C 	C 	0.22187 0.03684 0.78100 0.04400
C 	C 	0.18255 0.03633 0.77090 -0.10400
H 	H 	0.31669 0.02530 0.76822 0.04000
H 	H 	0.40498 0.05930 0.78758 0.03800
H 	H 	0.32059 0.08475 0.84009 0.04500
H 	H 	0.23253 0.05145 0.82072 0.04400
C 	C 	0.75270 0.59245 0.84957 0.04900
C 	C 	0.73021 0.54494 0.86053 -0.10900
C 	C 	0.76597 0.91912 0.18299 -0.10800
C 	C 	0.77856 0.15684 0.62033 -0.11200
H 	H 	0.79949 0.91551 0.65616 0.04900
O 	O 	0.81072 0.32670 0.56199 -0.37100
C 	C 	0.79516 0.01158 0.64461 0.00400
H 	H 	0.84075 0.28085 0.79680 0.03700
C 	C 	0.81095 0.34902 0.54343 0.29300
C 	C 	0.79817 0.12500 0.63138 0.05000
H 	H 	0.73630 0.38219 0.96116 0.02900
C 	C 	0.77876 0.64849 0.83615 -0.00700
H 	H 	0.72106 0.60243 0.81179 0.03800
H 	H 	0.84330 0.70659 0.85725 0.04100
O 	O 	0.79861 0.92209 0.21628 -0.41700
C 	C 	0.81801 0.97215 0.65650 -0.07700
C 	C 	0.83167 0.25656 0.83602 0.04100
C 	C 	0.81042 0.95956 0.26438 0.31700
C 	C 	0.84584 0.51034 0.59933 -0.10800
C 	C 	0.82794 0.70259 0.84201 -0.03300
C 	C 	0.75912 0.64398 0.81642 -0.03400
O 	O 	0.81137 0.89815 0.25903 -0.39400
H 	H 	0.87665 0.68377 0.61733 0.04000
C 	C 	0.81018 0.93877 0.19759 0.28700
C 	C 	0.82015 0.08478 0.64434 -0.02300
C 	C 	0.79025 0.43099 0.93712 -0.08600
C 	C 	0.77816 0.41313 0.95706 0.01300
C 	C 	0.87340 0.26492 0.80310 -0.03600
C 	C 	0.85886 0.74963 0.82794 -0.03500
C 	C 	0.79002 0.69096 0.80237 -0.03600
H 	H 	0.81358 0.31452 0.50456 0.03100
C 	C 	0.88090 0.55726 0.60831 0.04800
C 	C 	0.86037 0.36119 0.53133 -0.08500
C 	C 	0.87554 0.25316 0.82354 -0.00400
H 	H 	0.77549 0.68562 0.78700 0.03800
O 	O 	0.85591 0.01531 0.26419 -0.38700
H 	H 	0.89777 0.78989 0.83243 0.04100
C 	C 	0.84067 0.74272 0.80799 -0.00500
Ni	Ni	0.84636 0.87975 0.23362 1.07100
C 	C 	0.91354 0.67599 0.62313 -0.03100
H 	H 	0.90794 0.25816 0.77465 0.03600
H 	H 	0.91871 0.41251 0.55510 0.04100
C 	C 	0.86586 0.00581 0.66817 0.03200
H 	H 	0.85486 0.48413 0.91668 0.04200
C 	C 	0.84494 0.46998 0.93200 0.01500
O 	O 	0.85914 0.98363 0.19290 -0.37600
C 	C 	0.85401 0.34497 0.51089 0.01400
C 	C 	0.81973 0.43651 0.97181 -0.06500
H 	H 	0.80965 0.42373 0.98720 0.04600
C 	C 	0.91183 0.25274 0.79057 -0.03300
C 	C 	0.91323 0.39964 0.53936 0.01600
H 	H 	0.94174 0.77355 0.63958 0.04700
C 	C 	0.87606 0.78443 0.79303 0.04300
C 	C 	0.86680 0.11853 0.65654 -0.02100
C 	C 	0.89507 0.96567 0.67770 0.01800
C 	C 	0.92262 0.61354 0.61903 -0.00900
C 	C 	0.95076 0.72722 0.63556 -0.03800
C 	C 	0.90517 0.81889 0.78031 -0.11100
O 	O 	0.92754 0.83817 0.74628 -0.42100
C 	C 	0.88956 0.07916 0.66844 -0.05100
C 	C 	0.92275 0.93690 0.68604 -0.10200
O 	O 	0.89056 0.83435 0.25060 -0.40800
C 	C 	0.87393 0.47748 0.96679 0.02500
O 	O 	0.94441 0.84946 0.70391 -0.39300
H 	H 	0.88602 0.17509 0.65656 0.03600
C 	C 	0.88661 0.49309 0.94678 -0.06400
C 	C 	0.91871 0.23420 0.83159 -0.03400
C 	C 	0.89920 0.37089 0.49840 -0.06500
Ni	Ni	0.91135 0.04599 0.21447 1.10200
H 	H 	0.93368 0.61341 0.97591 0.04200
C 	C 	0.93971 0.85832 0.76492 0.29500
O 	O 	0.91230 0.96336 0.23125 -0.70500
O 	O 	0.91529 0.92212 0.27474 -0.37500
H 	H 	0.92341 0.12458 0.24460 0.15800
H 	H 	0.92129 0.22630 0.84744 0.04300
O 	O 	0.91850 0.13406 0.19902 -0.37700
C 	C 	0.95844 0.42583 0.52684 -0.06400
H 	H 	0.89343 0.35975 0.48257 0.04700
C 	C 	0.91764 0.86308 0.26734 0.30300
C 	C 	0.95234 0.22829 0.79840 -0.00700
C 	C 	0.96198 0.91043 0.69515 0.28700
Ni	Ni	0.93211 0.00997 0.25792 1.10000
H 	H 	0.95323 0.50757 0.47776 0.03900
C 	C 	0.95120 0.41334 0.50623 0.02600
H 	H 	0.92857 0.52382 0.94272 0.04800
H 	H 	0.92662 0.10557 0.67741 0.03900
C 	C 	0.97120 0.60480 0.62617 -0.02700
O 	O 	0.94365 0.09424 0.24005 -0.70800
C 	C 	0.91727 0.50445 0.98248 0.00600
H 	H 	0.99855 0.45798 0.53307 0.04800
C 	C 	0.94485 0.57690 0.98512 -0.04500
Ni	Ni	0.98620 0.82453 0.72749 1.06800
C 	C 	0.95717 0.22204 0.81905 -0.03100
C 	C 	0.99702 0.71599 0.64406 0.00500
H 	H 	0.94275 0.94742 0.22740 0.15300
H 	H 	0.97910 0.55727 0.62271 0.04100
C 	C 	0.94884 0.82856 0.27813 -0.10900
O 	O 	0.96815 0.07409 0.28176 -0.36500
O 	O 	0.97831 0.91891 0.76928 -0.37700
H 	H 	0.97942 0.25291 0.13046 0.04700
C 	C 	0.97908 0.19436 0.78535 0.05100
C 	C 	0.96731 0.18568 0.19856 0.29400
H 	H 	0.91010 0.40179 0.99294 0.04200
C 	C 	0.99111 0.49599 0.47868 -0.03700
C 	C 	0.00845 0.65609 0.63859 -0.04400
C 	C 	0.93134 0.45777 0.99478 -0.04400
C 	C 	0.98764 0.60225 0.99942 -0.02100
O 	O 	0.98784 0.05838 0.75853 -0.38700
O 	O 	0.01322 0.93695 0.68960 -0.38400
C 	C 	0.97657 0.23620 0.18306 -0.09900
C 	C 	0.99694 0.44834 0.49274 0.00500
H 	H 	0.00995 0.65813 0.00092 0.03500
C 	C 	0.02366 0.75557 0.66159 0.04400
O 	O 	0.03825 0.79143 0.71120 -0.42100
O 	O 	0.97847 0.04176 0.19925 -0.37000
C 	C 	0.97722 0.80424 0.28786 0.05000
H 	H 	0.98856 0.20364 0.82528 0.04400
C 	C 	0.00118 0.16612 0.77426 -0.11100
