data_crystal

_cell_length_a 18.62276
_cell_length_b 16.24834
_cell_length_c 40.49607
_cell_angle_alpha 90.86232
_cell_angle_beta  91.26080
_cell_angle_gamma 111.04772

_symmetry_space_group_name_	'P 1'
_symmetry_space_group_name_H-M	'P 1'

loop_
_symmetry_equiv_pos_as_xyz
  x,y,z

loop_
_atom_site_label
_atom_site_type_symbol
_atom_site_fract_x
_atom_site_fract_y
_atom_site_fract_z
_atom_site_charge
Ni	Ni	0.71937 0.32950 0.88912 1.10600
O 	O 	0.63093 0.25507 0.85824 -0.70400
Ni	Ni	0.54164 0.26527 0.88144 1.10700
O 	O 	0.79726 0.30812 0.85854 -0.35800
O 	O 	0.73646 0.15760 0.86026 -0.38900
O 	O 	0.71760 0.43017 0.86007 -0.40200
Ni	Ni	0.61744 0.13156 0.85469 1.07100
O 	O 	0.73375 0.43626 0.96088 -0.39800
O 	O 	0.60869 0.11307 0.90452 -0.40500
O 	O 	0.46151 0.20074 0.84629 -0.37900
O 	O 	0.62865 0.32327 0.91557 -0.70000
O 	O 	0.80768 0.41412 0.91858 -0.35200
O 	O 	0.46431 0.30997 0.90399 -0.36000
O 	O 	0.55373 0.44819 0.90394 -0.38800
Ni	Ni	0.64593 0.44283 0.93208 1.08500
H 	H 	0.63396 0.28007 0.83595 0.16300
H 	H 	0.62575 0.28480 0.93458 0.18900
C 	C 	0.54737 0.11156 0.92031 0.33600
O 	O 	0.72463 0.52790 0.90211 -0.37500
C 	C 	0.79168 0.22807 0.84901 0.29400
C 	C 	0.45226 0.11950 0.83642 0.29700
C 	C 	0.73456 0.51115 0.87109 0.32900
C 	C 	0.48417 0.39478 0.91075 0.32500
C 	C 	0.80094 0.44119 0.94914 0.34100
O 	O 	0.50322 0.15285 0.90882 -0.35300
O 	O 	0.49869 0.07901 0.84774 -0.38800
Ni	Ni	0.60399 0.32075 0.56667 1.10300
O 	O 	0.69290 0.33656 0.53534 -0.69500
Ni	Ni	0.76464 0.29751 0.56317 1.10500
O 	O 	0.55846 0.39972 0.54111 -0.34600
O 	O 	0.67642 0.50710 0.54014 -0.41100
O 	O 	0.53356 0.21569 0.53770 -0.35300
Ni	Ni	0.74832 0.45271 0.51783 1.08700
O 	O 	0.50231 0.14675 0.59763 -0.39400
O 	O 	0.83608 0.51912 0.55109 -0.38600
O 	O 	0.86129 0.33200 0.53457 -0.36300
O 	O 	0.67034 0.27009 0.59240 -0.70000
O 	O 	0.51745 0.29364 0.59934 -0.37900
O 	O 	0.81404 0.23515 0.59532 -0.36200
O 	O 	0.70799 0.10867 0.59132 -0.38800
Ni	Ni	0.61156 0.14391 0.59496 1.06800
H 	H 	0.67514 0.29513 0.51618 0.19900
H 	H 	0.68352 0.29826 0.61467 0.15500
C 	C 	0.85986 0.48643 0.57690 0.31200
O 	O 	0.60047 0.12396 0.54518 -0.38700
C 	C 	0.60332 0.47759 0.53139 0.32700
C 	C 	0.87333 0.38458 0.50886 0.33900
C 	C 	0.55394 0.15046 0.52725 0.33900
C 	C 	0.77567 0.15435 0.60494 0.29400
C 	C 	0.48339 0.21240 0.60971 0.29600
O 	O 	0.81430 0.41299 0.58998 -0.39500
O 	O 	0.81635 0.40047 0.49377 -0.37200
Ni	Ni	0.99050 0.95104 0.75591 1.10000
O 	O 	0.00813 0.85908 0.72600 -0.71100
Ni	Ni	0.05955 0.93240 0.68819 1.09800
O 	O 	0.93889 0.85735 0.78979 -0.35400
O 	O 	0.84932 0.77622 0.75134 -0.41100
O 	O 	0.09372 0.97694 0.78235 -0.35800
Ni	Ni	0.90887 0.77630 0.70850 1.07000
O 	O 	0.08161 0.14639 0.77768 -0.39800
O 	O 	0.87038 0.87129 0.69081 -0.40500
O 	O 	0.07562 0.83139 0.66210 -0.36600
O 	O 	0.03149 0.02450 0.71586 -0.69100
O 	O 	0.96449 0.03919 0.78413 -0.37000
O 	O 	0.13446 0.02080 0.65750 -0.35900
O 	O 	0.16328 0.15349 0.68427 -0.39400
Ni	Ni	0.11565 0.13195 0.73072 1.07300
H 	H 	0.04020 0.82898 0.73647 0.16900
H 	H 	0.99066 0.04199 0.70565 0.16300
C 	C 	0.90351 0.92068 0.66605 0.30500
O 	O 	0.17746 0.05666 0.74358 -0.41600
C 	C 	0.88205 0.78459 0.78088 0.30400
C 	C 	0.01558 0.75670 0.65787 0.29500
C 	C 	0.16385 0.00911 0.77023 0.30400
C 	C 	0.18596 0.09607 0.66856 0.30500
C 	C 	0.00856 0.12232 0.78561 0.30900
O 	O 	0.97012 0.92160 0.65592 -0.37100
O 	O 	0.94560 0.75562 0.66328 -0.39900
Ni	Ni	0.24401 0.68711 0.39354 1.10600
O 	O 	0.33265 0.74124 0.36238 -0.70400
Ni	Ni	0.42151 0.73718 0.38960 1.10600
O 	O 	0.16801 0.69856 0.35841 -0.35500
O 	O 	0.23418 0.84737 0.35439 -0.38900
O 	O 	0.23726 0.57085 0.37149 -0.39200
Ni	Ni	0.35104 0.86317 0.35212 1.06800
O 	O 	0.22620 0.60462 0.46764 -0.37200
O 	O 	0.36445 0.90501 0.40060 -0.38100
O 	O 	0.50153 0.78115 0.35451 -0.36000
O 	O 	0.33501 0.69878 0.42288 -0.69700
O 	O 	0.15330 0.62318 0.42343 -0.36900
O 	O 	0.49667 0.69957 0.41798 -0.33700
O 	O 	0.40411 0.56397 0.42147 -0.41200
Ni	Ni	0.31493 0.58630 0.44487 1.08300
H 	H 	0.32676 0.70562 0.34175 0.16300
H 	H 	0.34135 0.74558 0.43981 0.18500
C 	C 	0.42590 0.91084 0.41845 0.33100
O 	O 	0.23620 0.48762 0.41653 -0.39100
C 	C 	0.17587 0.77472 0.34519 0.29100
C 	C 	0.50671 0.85157 0.33736 0.29300
C 	C 	0.21237 0.49529 0.38633 0.32600
C 	C 	0.47506 0.61762 0.42759 0.31900
C 	C 	0.15895 0.58793 0.45232 0.33700
O 	O 	0.46623 0.86129 0.41130 -0.36100
O 	O 	0.46849 0.90342 0.34621 -0.40100
Ni	Ni	0.37825 0.69833 0.05749 1.10500
O 	O 	0.28049 0.68360 0.03013 -0.69800
Ni	Ni	0.21522 0.71159 0.06403 1.10400
O 	O 	0.41644 0.62323 0.02619 -0.35300
O 	O 	0.29906 0.51383 0.02619 -0.39300
O 	O 	0.43928 0.80708 0.03066 -0.33500
Ni	Ni	0.22250 0.57021 0.00882 1.08000
O 	O 	0.48514 0.87015 0.09191 -0.39900
O 	O 	0.14002 0.50195 0.04155 -0.39000
O 	O 	0.10853 0.67146 0.03969 -0.33900
O 	O 	0.31921 0.74321 0.08891 -0.70200
O 	O 	0.47384 0.72452 0.08692 -0.36800
O 	O 	0.17429 0.76521 0.10235 -0.34300
O 	O 	0.27414 0.89659 0.09797 -0.39600
Ni	Ni	0.37479 0.86952 0.09444 1.06700
H 	H 	0.29155 0.72890 0.01301 0.17400
H 	H 	0.31467 0.71341 0.11033 0.15700
C 	C 	0.13969 0.51760 0.07356 0.32400
O 	O 	0.37113 0.89288 0.04541 -0.41200
C 	C 	0.37017 0.54425 0.01622 0.32800
C 	C 	0.09421 0.63264 0.00991 0.34200
C 	C 	0.41687 0.87384 0.02500 0.32800
C 	C 	0.21375 0.84589 0.11380 0.28600
C 	C 	0.50828 0.80453 0.10012 0.29500
O 	O 	0.18472 0.59304 0.08724 -0.38900
O 	O 	0.15052 0.62833 0.99172 -0.40900
Ni	Ni	0.95975 0.04293 0.26407 1.09800
O 	O 	0.96785 0.13807 0.23070 -0.71300
Ni	Ni	0.93215 0.06669 0.18925 1.10000
O 	O 	0.99893 0.13765 0.30088 -0.36000
O 	O 	0.10897 0.20518 0.27294 -0.40500
O 	O 	0.84718 0.02679 0.27515 -0.36100
Ni	Ni	0.07526 0.21235 0.22401 1.06600
O 	O 	0.87122 0.83105 0.27240 -0.40800
O 	O 	0.11274 0.11114 0.21196 -0.40500
O 	O 	0.93518 0.17028 0.16064 -0.35800
O 	O 	0.94037 0.97090 0.22106 -0.68800
O 	O 	0.95907 0.95183 0.29763 -0.37500
O 	O 	0.86791 0.98349 0.15209 -0.35200
O 	O 	0.82834 0.84786 0.17428 -0.39600
Ni	Ni	0.85437 0.85788 0.22443 1.07500
H 	H 	0.93549 0.17309 0.23594 0.16600
H 	H 	0.98627 0.95584 0.21724 0.15500
C 	C 	0.08979 0.06511 0.18422 0.31000
O 	O 	0.78437 0.92566 0.23420 -0.40900
C 	C 	0.06409 0.20424 0.29770 0.29700
C 	C 	0.99916 0.24138 0.16096 0.28600
C 	C 	0.78473 0.96225 0.26337 0.30800
C 	C 	0.81229 0.90953 0.15886 0.31100
C 	C 	0.93763 0.86928 0.28826 0.30500
O 	O 	0.03120 0.07050 0.16721 -0.36700
O 	O 	0.06321 0.23963 0.17545 -0.40000
C 	C 	0.00787 0.30872 0.13601 -0.09300
C 	C 	0.02708 0.39688 0.14661 -0.06300
C 	C 	0.06793 0.46598 0.12612 0.17000
C 	C 	0.08913 0.44683 0.09447 -0.09700
C 	C 	0.06150 0.35887 0.08256 -0.05300
C 	C 	0.02101 0.29017 0.10316 0.17800
H 	H 	0.01498 0.41182 0.17159 0.04700
O 	O 	0.08492 0.55167 0.13673 -0.27400
H 	H 	0.07404 0.34321 0.05775 0.08200
O 	O 	0.99748 0.20447 0.09158 -0.26300
H 	H 	0.04159 0.18527 0.09609 0.17100
H 	H 	0.13387 0.56732 0.14981 0.14500
C 	C 	0.58523 0.82740 0.11605 -0.09700
C 	C 	0.60887 0.89401 0.14074 -0.06000
C 	C 	0.68460 0.92478 0.15338 0.16900
C 	C 	0.73691 0.88703 0.14214 -0.10600
C 	C 	0.71363 0.82030 0.11758 -0.04800
C 	C 	0.63830 0.79059 0.10436 0.17100
H 	H 	0.56864 0.92281 0.14985 0.04800
O 	O 	0.70652 0.98933 0.17773 -0.29500
H 	H 	0.75390 0.79114 0.10880 0.07800
O 	O 	0.61795 0.72897 0.07897 -0.25700
H 	H 	0.60021 0.67101 0.08981 0.15800
H 	H 	0.72649 0.04579 0.16593 0.15000
C 	C 	0.12130 0.99726 0.17453 -0.11100
C 	C 	0.07160 0.91722 0.16013 -0.05100
C 	C 	0.10114 0.86218 0.14263 0.17000
C 	C 	0.18134 0.88698 0.13953 -0.09700
C 	C 	0.23084 0.96087 0.15771 -0.06300
C 	C 	0.20113 0.01633 0.17498 0.17400
H 	H 	0.00979 0.89998 0.16096 0.05800
O 	O 	0.05142 0.78758 0.12681 -0.25300
H 	H 	0.29265 0.97814 0.15688 0.04400
O 	O 	0.25052 0.09237 0.19006 -0.28100
H 	H 	0.25849 0.07575 0.21294 0.14700
H 	H 	0.04198 0.74013 0.14310 0.15700
C 	C 	0.71089 0.93845 0.28084 -0.09800
C 	C 	0.65389 0.85485 0.27463 -0.05300
C 	C 	0.58449 0.82902 0.29121 0.16300
C 	C 	0.57174 0.88581 0.31497 -0.09800
C 	C 	0.62693 0.97091 0.32029 -0.05600
C 	C 	0.69645 0.99746 0.30341 0.17600
H 	H 	0.66387 0.80903 0.25723 0.05600
O 	O 	0.53033 0.74652 0.28514 -0.28400
H 	H 	0.61721 0.01548 0.33833 0.07700
O 	O 	0.74860 0.08164 0.30825 -0.27700
H 	H 	0.78086 0.07871 0.32770 0.17100
H 	H 	0.49671 0.75400 0.26699 0.13400
C 	C 	0.09227 0.27110 0.32423 -0.10400
C 	C 	0.06966 0.34450 0.32422 -0.06000
C 	C 	0.10630 0.41657 0.34559 0.17300
C 	C 	0.16631 0.41542 0.36717 -0.10500
C 	C 	0.18551 0.33952 0.36859 -0.05400
C 	C 	0.14871 0.26746 0.34719 0.17700
H 	H 	0.02562 0.34711 0.30675 0.05100
O 	O 	0.08591 0.48968 0.34429 -0.28200
H 	H 	0.23104 0.33769 0.38537 0.07400
O 	O 	0.17073 0.19546 0.34757 -0.28000
H 	H 	0.13666 0.15488 0.36350 0.16500
H 	H 	0.04355 0.47874 0.35999 0.15900
C 	C 	0.98610 0.81898 0.29763 -0.11700
C 	C 	0.97685 0.77942 0.32855 -0.04500
C 	C 	0.03777 0.76144 0.34376 0.17000
C 	C 	0.10866 0.78329 0.32793 -0.09400
C 	C 	0.11543 0.81504 0.29579 -0.06200
C 	C 	0.05439 0.83255 0.28054 0.16500
H 	H 	0.92439 0.76830 0.34182 0.07200
O 	O 	0.02976 0.72858 0.37504 -0.26900
H 	H 	0.16880 0.82871 0.28295 0.04300
O 	O 	0.06252 0.86592 0.24935 -0.31900
H 	H 	0.08813 0.93069 0.25255 0.13300
H 	H 	0.00919 0.66350 0.37186 0.16300
C 	C 	0.43986 0.05936 0.49291 -0.07900
C 	C 	0.51994 0.10221 0.49641 -0.12000
C 	C 	0.56788 0.08914 0.47224 0.34700
C 	C 	0.53643 0.02971 0.44589 -0.08000
C 	C 	0.45684 0.98231 0.44351 -0.12200
C 	C 	0.40829 0.99925 0.46662 0.33800
F 	F 	0.33115 0.95437 0.46456 -0.43800
H 	H 	0.40243 0.06943 0.51140 0.11100
H 	H 	0.57415 0.01891 0.42770 0.11000
F 	F 	0.64523 0.13233 0.47481 -0.43900
C 	C 	0.02786 0.47289 0.44708 -0.08700
C 	C 	0.08845 0.52836 0.46740 -0.12500
C 	C 	0.08160 0.52519 0.50195 0.34300
C 	C 	0.01326 0.47026 0.51572 -0.08500
C 	C 	0.95051 0.42062 0.49518 -0.12400
C 	C 	0.95923 0.41936 0.46085 0.34100
F 	F 	0.90043 0.36777 0.44078 -0.42900
H 	H 	0.03373 0.47181 0.42055 0.09200
H 	H 	0.00758 0.47016 0.54228 0.09800
F 	F 	0.13961 0.57800 0.52209 -0.43300
C 	C 	0.52602 0.50572 0.44746 -0.09300
C 	C 	0.52371 0.59076 0.45070 -0.13300
C 	C 	0.55442 0.64163 0.47957 0.32800
C 	C 	0.58174 0.60496 0.50580 -0.08500
C 	C 	0.57809 0.51742 0.50341 -0.15000
C 	C 	0.55265 0.46892 0.47373 0.33200
F 	F 	0.55312 0.38580 0.47049 -0.45400
H 	H 	0.50372 0.46659 0.42507 0.09700
H 	H 	0.60351 0.64362 0.52832 0.09100
F 	F 	0.55335 0.72443 0.48300 -0.44000
C 	C 	0.86862 0.97937 0.65059 -0.11300
C 	C 	0.87920 0.99708 0.61686 -0.05800
C 	C 	0.85503 0.06062 0.60243 0.17700
C 	C 	0.81783 0.10544 0.62146 -0.10100
C 	C 	0.80818 0.08906 0.65525 -0.06800
C 	C 	0.83339 0.02633 0.66992 0.16700
H 	H 	0.90666 0.96178 0.60183 0.07800
O 	O 	0.86409 0.07553 0.56925 -0.26600
H 	H 	0.77936 0.12337 0.67001 0.04500
O 	O 	0.82660 0.01389 0.70331 -0.30400
H 	H 	0.77500 0.96796 0.70597 0.15200
H 	H 	0.91481 0.12376 0.56752 0.16200
C 	C 	0.40740 0.18963 0.62445 -0.09800
C 	C 	0.40175 0.19802 0.65870 -0.06200
C 	C 	0.32946 0.16801 0.67324 0.16300
C 	C 	0.26219 0.12855 0.65343 -0.09900
C 	C 	0.26795 0.12139 0.61909 -0.05400
C 	C 	0.34009 0.15222 0.60457 0.17500
H 	H 	0.45340 0.22611 0.67415 0.04800
O 	O 	0.32499 0.17313 0.70694 -0.29300
H 	H 	0.21648 0.09216 0.60361 0.08000
O 	O 	0.34493 0.14293 0.57105 -0.26700
H 	H 	0.34283 0.19816 0.56173 0.16500
H 	H 	0.32124 0.23150 0.71166 0.14100
C 	C 	0.92873 0.54528 0.59625 -0.09900
C 	C 	0.93914 0.52942 0.62971 -0.05600
C 	C 	0.98780 0.59767 0.65041 0.16200
C 	C 	0.02160 0.68319 0.63805 -0.09800
C 	C 	0.02664 0.69232 0.60376 -0.04800
C 	C 	0.97910 0.62423 0.58269 0.17500
H 	H 	0.90619 0.46652 0.64014 0.06600
O 	O 	0.99192 0.58434 0.68364 -0.31400
H 	H 	0.05914 0.75583 0.59363 0.08000
O 	O 	0.98198 0.63490 0.54914 -0.26500
H 	H 	0.94925 0.66994 0.54411 0.16100
H 	H 	0.03734 0.56675 0.68681 0.15300
C 	C 	0.99855 0.49285 0.98711 -0.08600
C 	C 	0.01482 0.57898 0.99959 -0.12500
C 	C 	0.95707 0.61555 0.99889 0.34600
C 	C 	0.88523 0.56824 0.98390 -0.08400
C 	C 	0.87098 0.48439 0.96950 -0.12400
C 	C 	0.92710 0.44585 0.97212 0.34300
F 	F 	0.91296 0.36348 0.95945 -0.44100
H 	H 	0.04233 0.46346 0.98804 0.08200
H 	H 	0.84188 0.59821 0.98221 0.09800
F 	F 	0.97168 0.69835 0.01119 -0.42700
C 	C 	0.51227 0.96365 0.94496 -0.08400
C 	C 	0.52127 0.05290 0.94829 -0.12700
C 	C 	0.49699 0.08341 0.97701 0.34400
C 	C 	0.46290 0.02487 0.00194 -0.08800
C 	C 	0.45217 0.93503 0.99836 -0.12200
C 	C 	0.47728 0.90469 0.96970 0.34000
F 	F 	0.46567 0.81778 0.96534 -0.44000
H 	H 	0.52989 0.93936 0.92266 0.09500
H 	H 	0.44511 0.04946 0.02413 0.09800
F 	F 	0.50617 0.16985 0.98067 -0.45300
C 	C 	0.40812 0.37500 0.96172 -0.09800
C 	C 	0.43928 0.42545 0.93409 -0.13700
C 	C 	0.44010 0.51206 0.93229 0.33900
C 	C 	0.41665 0.55030 0.95906 -0.09900
C 	C 	0.39076 0.50193 0.98759 -0.13900
C 	C 	0.38384 0.41310 0.98839 0.34200
F 	F 	0.35678 0.36490 0.01554 -0.43600
H 	H 	0.40660 0.30788 0.96331 0.11500
H 	H 	0.41938 0.61794 0.95778 0.11300
F 	F 	0.46646 0.56023 0.90505 -0.43700
C 	C 	0.85958 0.21715 0.83429 -0.09400
C 	C 	0.90552 0.18194 0.85294 -0.05300
C 	C 	0.96760 0.16689 0.83848 0.17800
C 	C 	0.98127 0.18246 0.80465 -0.10600
C 	C 	0.94220 0.22902 0.78751 -0.06000
C 	C 	0.88119 0.24611 0.80217 0.16600
H 	H 	0.89219 0.16444 0.87839 0.08400
O 	O 	0.00910 0.12735 0.85637 -0.26000
H 	H 	0.95394 0.24412 0.76175 0.04500
O 	O 	0.83964 0.28561 0.78428 -0.30000
H 	H 	0.86550 0.34976 0.78898 0.15500
H 	H 	0.05339 0.17665 0.86625 0.16400
C 	C 	0.37626 0.06491 0.82217 -0.09100
C 	C 	0.31002 0.05532 0.84000 -0.05300
C 	C 	0.23739 0.02613 0.82402 0.17200
C 	C 	0.23070 0.00590 0.78986 -0.10100
C 	C 	0.29566 0.00384 0.77325 -0.04800
C 	C 	0.36854 0.03505 0.78909 0.16500
H 	H 	0.31538 0.07577 0.86583 0.08200
O 	O 	0.17441 0.02525 0.84116 -0.25900
H 	H 	0.29065 0.98485 0.74728 0.06000
O 	O 	0.43224 0.03888 0.77186 -0.29200
H 	H 	0.44981 0.09724 0.76131 0.14300
H 	H 	0.15251 0.96511 0.85012 0.16300
C 	C 	0.77520 0.58412 0.84956 -0.10300
C 	C 	0.83250 0.57664 0.82909 -0.05200
C 	C 	0.86820 0.64273 0.80685 0.16500
C 	C 	0.84785 0.71784 0.80539 -0.10500
C 	C 	0.79207 0.72670 0.82637 -0.04800
C 	C 	0.75514 0.65975 0.84824 0.17200
H 	H 	0.84895 0.51914 0.83027 0.07100
O 	O 	0.92414 0.63465 0.78695 -0.29200
H 	H 	0.77630 0.78468 0.82527 0.07000
O 	O 	0.69946 0.66820 0.86820 -0.26500
H 	H 	0.65039 0.64151 0.85528 0.16400
H 	H 	0.89640 0.60354 0.76658 0.12800
