data_crystal

_cell_length_a 22.48290
_cell_length_b 23.62661
_cell_length_c 29.34404
_cell_angle_alpha 90.00000
_cell_angle_beta  90.00000
_cell_angle_gamma 118.22956

_symmetry_space_group_name_	'P 1'
_symmetry_space_group_name_H-M	'P 1'

loop_
_symmetry_equiv_pos_as_xyz
  x,y,z

loop_
_atom_site_label
_atom_site_type_symbol
_atom_site_fract_x
_atom_site_fract_y
_atom_site_fract_z
_atom_site_charge
Ni	Ni	0.05944 0.03298 0.99103 1.09800
O 	O 	0.83925 0.91593 0.93927 -0.37700
O 	O 	0.13286 0.07364 0.94336 -0.41000
O 	O 	0.12838 0.05957 0.04216 -0.37100
O 	O 	0.09052 0.97529 0.09093 -0.38800
Ni	Ni	0.98823 0.92060 0.07332 1.05000
C 	C 	0.00356 0.12817 0.98997 0.28600
O 	O 	0.01521 0.88868 0.01694 -0.38500
C 	C 	0.83660 0.96483 0.92076 0.28600
C 	C 	0.13732 0.12117 0.91822 0.29800
C 	C 	0.13710 0.01497 0.06258 0.27900
O 	O 	0.05581 0.11876 0.99967 -0.37500
O 	O 	0.08245 0.12597 0.90785 -0.40800
Ni	Ni	0.07842 0.55365 0.00138 1.10900
O 	O 	0.00260 0.50570 0.95496 -0.67000
O 	O 	0.15112 0.58527 0.95292 -0.38500
O 	O 	0.11767 0.50747 0.89995 -0.40400
O 	O 	0.06509 0.63424 0.99386 -0.39000
Ni	Ni	0.01499 0.44690 0.91296 1.07000
O 	O 	0.08595 0.63773 0.08431 -0.40300
O 	O 	0.03959 0.40814 0.96689 -0.39800
O 	O 	0.14995 0.59844 0.04976 -0.38700
C 	C 	0.16007 0.54094 0.93242 0.30600
C 	C 	0.84533 0.46084 0.06763 0.29000
C 	C 	0.14369 0.63560 0.08040 0.28700
Ni	Ni	0.43205 0.95432 0.01206 1.10800
O 	O 	0.48864 0.00628 0.95758 -0.71500
Ni	Ni	0.57591 0.05699 0.98999 1.08900
O 	O 	0.34339 0.92332 0.97788 -0.39300
O 	O 	0.36041 0.00496 0.92971 -0.41700
O 	O 	0.43750 0.87269 0.99066 -0.37600
Ni	Ni	0.46382 0.06986 0.93262 1.06100
O 	O 	0.45048 0.86427 0.08440 -0.41100
O 	O 	0.45675 0.09722 0.99747 -0.45200
O 	O 	0.62648 0.10607 0.93408 -0.41100
O 	O 	0.51949 0.00493 0.04444 -0.69600
O 	O 	0.38148 0.90868 0.06890 -0.40300
O 	O 	0.66470 0.08527 0.02242 -0.37200
O 	O 	0.64926 0.00295 0.06913 -0.40200
Ni	Ni	0.54440 0.94272 0.07221 1.06500
H 	H 	0.49312 0.97919 0.93350 0.16100
H 	H 	0.51463 0.03235 0.06808 0.15200
C 	C 	0.51112 0.13834 0.01933 0.30400
O 	O 	0.54808 0.90933 0.00971 -0.41500
C 	C 	0.32662 0.96616 0.96341 0.31800
C 	C 	0.61506 0.15062 0.91637 0.29700
C 	C 	0.49295 0.86613 0.99035 0.27400
C 	C 	0.67963 0.04018 0.03387 0.28400
C 	C 	0.39091 0.86328 0.08753 0.29700
O 	O 	0.56877 0.13644 0.01409 -0.36700
O 	O 	0.55668 0.15024 0.92388 -0.42000
Ni	Ni	0.56258 0.54564 0.01937 1.10600
O 	O 	0.51240 0.49546 0.96218 -0.70400
Ni	Ni	0.42400 0.43909 0.99091 1.09000
O 	O 	0.65670 0.58157 0.99114 -0.38000
O 	O 	0.64282 0.51146 0.93411 -0.40700
O 	O 	0.55035 0.62359 0.99714 -0.37400
Ni	Ni	0.54339 0.43777 0.93471 1.06300
O 	O 	0.52819 0.62847 0.08889 -0.41300
O 	O 	0.55208 0.41027 0.99898 -0.44700
O 	O 	0.38244 0.39190 0.93244 -0.41700
O 	O 	0.47336 0.48917 0.04810 -0.69300
O 	O 	0.60481 0.59175 0.07819 -0.40500
O 	O 	0.32971 0.40299 0.01811 -0.36700
O 	O 	0.33881 0.47518 0.07218 -0.40100
Ni	Ni	0.44006 0.54510 0.07527 1.06600
H 	H 	0.50733 0.52318 0.93888 0.15600
H 	H 	0.47816 0.46149 0.07156 0.15300
C 	C 	0.49887 0.36593 0.02007 0.30000
O 	O 	0.43697 0.57541 0.01138 -0.41400
C 	C 	0.67385 0.54138 0.97163 0.29500
C 	C 	0.39411 0.34532 0.91994 0.30100
C 	C 	0.49117 0.62346 0.99438 0.26400
C 	C 	0.31105 0.44376 0.03443 0.28000
C 	C 	0.58960 0.63473 0.09461 0.30200
O 	O 	0.43877 0.36333 0.01481 -0.37300
O 	O 	0.45580 0.35199 0.92405 -0.41800
C 	C 	0.43171 0.68974 0.99781 0.01300
C 	C 	0.43127 0.74735 0.99554 0.03900
C 	C 	0.48790 0.80277 0.98022 -0.09300
C 	C 	0.54603 0.79825 0.96726 -0.01300
H 	H 	0.59144 0.84064 0.95714 0.03300
C 	C 	0.54648 0.73906 0.96946 -0.01600
H 	H 	0.59189 0.73658 0.96042 0.04500
C 	C 	0.48886 0.68398 0.98459 -0.08000
C 	C 	0.36486 0.65422 0.97484 -0.07600
H 	H 	0.32486 0.72179 0.99367 0.05900
H 	H 	0.32557 0.61972 0.99824 0.04700
H 	H 	0.36740 0.73718 0.93650 0.05600
H 	H 	0.36776 0.63520 0.94070 0.04800
C 	C 	0.36455 0.71991 0.97212 -0.08500
C 	C 	0.56677 0.31140 0.04081 0.03700
C 	C 	0.57069 0.25496 0.03966 0.04700
C 	C 	0.51144 0.19558 0.04037 -0.09600
C 	C 	0.44995 0.19498 0.05064 -0.00900
H 	H 	0.40515 0.15001 0.05729 0.03400
C 	C 	0.44552 0.25230 0.04883 -0.00800
H 	H 	0.39690 0.25086 0.05218 0.04100
C 	C 	0.50381 0.31071 0.04031 -0.09200
C 	C 	0.61430 0.33801 0.08000 -0.08600
H 	H 	0.60123 0.24539 0.10908 0.04600
H 	H 	0.58968 0.34176 0.11194 0.04300
H 	H 	0.67123 0.28373 0.06626 0.05900
H 	H 	0.66150 0.38173 0.07112 0.05300
C 	C 	0.62060 0.27532 0.07783 -0.08700
C 	C 	0.79363 0.26472 0.88281 0.02700
C 	C 	0.73318 0.20931 0.88426 0.02900
C 	C 	0.67389 0.21019 0.89961 -0.09100
C 	C 	0.67535 0.27009 0.90453 -0.01100
H 	H 	0.62993 0.27269 0.91335 0.03200
C 	C 	0.73734 0.32675 0.90282 -0.01300
H 	H 	0.73879 0.37235 0.91001 0.02800
C 	C 	0.79788 0.32328 0.89758 -0.09300
C 	C 	0.83217 0.23444 0.90409 -0.08000
H 	H 	0.74851 0.15843 0.94252 0.06600
H 	H 	0.85242 0.25292 0.93863 0.05900
H 	H 	0.76182 0.13307 0.88416 0.04400
C 	C 	0.76362 0.17188 0.90645 -0.08400
C 	C 	0.26920 0.80314 0.11313 0.03200
C 	C 	0.20890 0.74739 0.11234 0.03200
C 	C 	0.20656 0.68898 0.09934 -0.08500
C 	C 	0.26786 0.68634 0.09662 -0.01000
H 	H 	0.26759 0.64114 0.08981 0.03600
C 	C 	0.32969 0.74333 0.09768 -0.00900
H 	H 	0.37615 0.74123 0.09172 0.03700
C 	C 	0.33030 0.80297 0.10168 -0.08600
C 	C 	0.24110 0.84001 0.08758 -0.08500
H 	H 	0.15647 0.75821 0.05224 0.07000
H 	H 	0.26123 0.85331 0.05249 0.07200
H 	H 	0.13345 0.78034 0.10860 0.04700
H 	H 	0.24013 0.87900 0.10824 0.05000
C 	C 	0.17266 0.77712 0.08735 -0.08100
C 	C 	0.80335 0.54055 0.05329 0.02800
C 	C 	0.76321 0.56005 0.03005 0.06500
C 	C 	0.71898 0.52145 0.99560 -0.12600
C 	C 	0.71828 0.46338 0.98408 -0.01600
H 	H 	0.68493 0.43282 0.95764 0.01800
C 	C 	0.75800 0.44283 0.00845 -0.00100
H 	H 	0.75350 0.39603 0.00120 0.04900
C 	C 	0.80001 0.48076 0.04402 -0.10700
C 	C 	0.78628 0.55703 0.09880 -0.07800
H 	H 	0.75699 0.63041 0.07459 0.06300
H 	H 	0.68556 0.54596 0.08018 0.05200
H 	H 	0.75756 0.51457 0.12111 0.04300
C 	C 	0.73974 0.57800 0.07256 -0.09600
C 	C 	0.28819 0.48749 0.96245 -0.01900
C 	C 	0.25202 0.51069 0.93833 0.06600
C 	C 	0.19564 0.51184 0.95754 -0.15300
C 	C 	0.17833 0.49186 0.00303 0.05000
H 	H 	0.13537 0.49282 0.01874 -0.02700
C 	C 	0.21462 0.46744 0.02759 -0.03500
H 	H 	0.20039 0.45149 0.06240 0.04300
C 	C 	0.26831 0.46265 0.00686 -0.05900
C 	C 	0.29015 0.44833 0.92303 -0.07500
H 	H 	0.19665 0.43618 0.88761 0.04900
H 	H 	0.26209 0.39553 0.92881 0.05400
H 	H 	0.27692 0.50654 0.86746 0.04500
H 	H 	0.34188 0.46732 0.90889 0.03600
C 	C 	0.24843 0.47436 0.89612 -0.09800
C 	C 	0.71002 0.80384 0.07074 0.04900
C 	C 	0.64929 0.75116 0.07935 0.05000
C 	C 	0.64578 0.69891 0.10415 -0.09500
C 	C 	0.70523 0.70433 0.12418 -0.00900
H 	H 	0.70367 0.66478 0.14377 0.02600
C 	C 	0.76776 0.75798 0.11489 -0.01000
H 	H 	0.81361 0.75975 0.12806 0.02400
C 	C 	0.77073 0.80738 0.08669 -0.09100
C 	C 	0.68600 0.85022 0.08509 -0.09100
H 	H 	0.57589 0.78595 0.07208 0.05100
H 	H 	0.68355 0.87935 0.05609 0.05700
H 	H 	0.60407 0.78433 0.13213 0.04000
H 	H 	0.71121 0.87785 0.11634 0.04000
C 	C 	0.61695 0.79016 0.09521 -0.09000
C 	C 	0.30714 0.24982 0.87877 0.02600
C 	C 	0.24198 0.20009 0.87744 0.02900
C 	C 	0.20288 0.17978 0.91738 -0.09000
C 	C 	0.23031 0.21188 0.95834 -0.00900
H 	H 	0.20038 0.19798 0.98926 0.04100
C 	C 	0.29724 0.25984 0.96016 -0.00800
H 	H 	0.31767 0.28359 0.99225 0.04100
C 	C 	0.33610 0.28054 0.92020 -0.08900
C 	C 	0.33443 0.21342 0.85201 -0.08300
H 	H 	0.25440 0.11407 0.86935 0.04400
H 	H 	0.36885 0.20108 0.87194 0.03800
H 	H 	0.23851 0.14805 0.81561 0.03700
H 	H 	0.35368 0.23527 0.81805 0.03400
C 	C 	0.26061 0.15733 0.85042 -0.08900
C 	C 	0.76231 0.01606 0.92898 0.02900
C 	C 	0.72148 0.03017 0.95622 0.00700
C 	C 	0.72446 0.02646 0.00430 -0.08400
C 	C 	0.77653 0.01779 0.02367 0.01900
H 	H 	0.78395 0.02070 0.06024 0.02300
C 	C 	0.81957 0.00577 0.99554 -0.04600
C 	C 	0.80791 0.99828 0.94827 -0.09100
C 	C 	0.70716 0.97356 0.89765 -0.07900
H 	H 	0.62260 0.94579 0.94608 0.04400
H 	H 	0.69490 0.92210 0.89930 0.04800
H 	H 	0.63924 0.01576 0.90926 0.03000
H 	H 	0.71359 0.99407 0.86279 0.04000
C 	C 	0.66020 0.98885 0.92832 -0.09000
C 	C 	0.29762 0.03925 0.00737 0.09000
C 	C 	0.25600 0.05026 0.03593 0.00000
C 	C 	0.19065 0.00039 0.04614 -0.07700
C 	C 	0.17422 0.93722 0.03361 -0.04100
H 	H 	0.12728 0.89717 0.04467 0.04600
C 	C 	0.21718 0.92619 0.00457 0.05800
H 	H 	0.20288 0.87778 0.99332 0.00900
C 	C 	0.27804 0.97789 0.98974 -0.16500
C 	C 	0.31383 0.09616 0.97797 -0.14100
H 	H 	0.22515 0.10821 0.99406 0.04600
H 	H 	0.29125 0.08327 0.94331 0.06100
H 	H 	0.29798 0.15419 0.03250 0.04300
H 	H 	0.36763 0.13300 0.97847 0.05200
C 	C 	0.26924 0.11058 0.01147 -0.03100
C 	C 	0.05997 0.30415 0.99626 0.05200
C 	C 	0.06326 0.24771 0.99715 -0.00000
C 	C 	0.00480 0.18881 0.00413 -0.01200
C 	C 	0.09955 0.32643 0.95307 -0.09000
H 	H 	0.15654 0.27217 0.96071 0.05400
H 	H 	0.14891 0.36949 0.95825 0.05500
C 	C 	0.10423 0.26310 0.95443 -0.07000
O 	O 	0.85793 0.41827 0.04790 -0.38000
H 	H 	0.01627 0.47087 0.06241 0.16300
H 	H 	0.86190 0.00276 0.01034 -0.01000
O 	O 	0.88155 0.99769 0.88945 -0.40200
O 	O 	0.83269 0.89409 0.03562 -0.38200
C 	C 	0.83547 0.85591 0.06689 0.28900
O 	O 	0.85611 0.40932 0.95020 -0.40800
O 	O 	0.88805 0.49887 0.09854 -0.40800
C 	C 	0.86139 0.37449 0.91723 0.29000
H 	H 	0.86854 0.23097 0.88008 0.03500
H 	H 	0.83024 0.59793 0.11510 0.03400
Ni	Ni	0.90801 0.93880 0.98978 1.09400
O 	O 	0.91483 0.85504 0.97957 -0.36800
O 	O 	0.88983 0.84790 0.07031 -0.41500
Ni	Ni	0.92877 0.45132 0.99818 1.08000
O 	O 	0.93868 0.36843 0.00429 -0.35000
O 	O 	0.91835 0.37145 0.91142 -0.43400
H 	H 	0.89378 0.24703 0.02303 0.04400
O 	O 	0.96216 0.59459 0.02907 -0.44700
C 	C 	0.99851 0.30507 0.00341 -0.08700
C 	C 	0.99297 0.36380 0.99234 0.22200
H 	H 	0.14558 0.77456 0.93673 0.05700
H 	H 	0.86913 0.72678 0.97686 0.04800
C 	C 	0.05017 0.74612 0.97140 0.08000
C 	C 	0.91964 0.73228 0.97400 -0.02500
C 	C 	0.09210 0.76128 0.92919 -0.09800
H 	H 	0.12675 0.86723 0.92766 0.04500
H 	H 	0.88608 0.63095 0.98072 0.02400
C 	C 	0.92936 0.67801 0.97726 0.01000
C 	C 	0.04041 0.79900 0.96693 0.03700
C 	C 	0.08006 0.82065 0.92383 -0.08400
H 	H 	0.89918 0.14481 0.02295 0.04800
O 	O 	0.95857 0.09215 0.95974 -0.44200
H 	H 	0.04882 0.81709 0.89346 0.05100
H 	H 	0.06833 0.72538 0.90146 0.05700
C 	C 	0.00647 0.63388 0.99961 0.34000
C 	C 	0.97000 0.84994 0.98791 0.23800
C 	C 	0.94136 0.24757 0.01612 0.00300
O 	O 	0.00434 0.49962 0.04456 -0.67900
H 	H 	0.06987 0.32839 0.92331 0.04500
Ni	Ni	0.99014 0.56033 0.08394 1.05000
C 	C 	0.97570 0.79380 0.97140 -0.10200
O 	O 	0.98100 0.98642 0.03558 -0.70000
H 	H 	0.99022 0.53475 0.93792 0.12000
C 	C 	0.99517 0.68518 0.97922 -0.17100
O 	O 	0.98693 0.98687 0.94563 -0.70800
Ni	Ni	0.98377 0.05326 0.90591 1.05200
H 	H 	0.99732 0.95728 0.92754 0.14700
H 	H 	0.97099 0.01598 0.05403 0.14800
C 	C 	0.94444 0.18943 0.01621 -0.06000
H 	H 	0.07776 0.23125 0.92515 0.05300
