data_crystal

_cell_length_a 25.96137
_cell_length_b 26.67050
_cell_length_c 26.43136
_cell_angle_alpha 95.50557
_cell_angle_beta  95.50678
_cell_angle_gamma 125.84399

_symmetry_space_group_name_	'P 1'
_symmetry_space_group_name_H-M	'P 1'

loop_
_symmetry_equiv_pos_as_xyz
  x,y,z

loop_
_atom_site_label
_atom_site_type_symbol
_atom_site_fract_x
_atom_site_fract_y
_atom_site_fract_z
_atom_site_charge
C 	C 	0.96317 0.02639 0.01118 0.08400
C 	C 	0.92985 0.96557 0.02255 -0.07500
C 	C 	0.95428 0.93098 0.01516 0.09100
C 	C 	0.01325 0.95830 0.99815 -0.08400
C 	C 	0.05025 0.02147 0.99265 0.08400
C 	C 	0.02474 0.05534 0.99843 -0.08900
H 	H 	0.88381 0.94434 0.03501 0.08300
H 	H 	0.03153 0.93117 0.99111 0.08800
H 	H 	0.05246 0.10376 0.99284 0.08400
C 	C 	0.93231 0.99638 0.42240 0.10000
C 	C 	0.99761 0.02860 0.41829 -0.10100
C 	C 	0.02735 0.99879 0.42225 0.09900
C 	C 	0.99075 0.93516 0.42597 -0.08400
C 	C 	0.92487 0.90172 0.42786 0.08700
C 	C 	0.89609 0.93288 0.42795 -0.08500
H 	H 	0.02604 0.07775 0.41469 0.08700
H 	H 	0.01368 0.91187 0.42817 0.08200
H 	H 	0.84608 0.90801 0.43241 0.08900
Cu	Cu	0.63683 0.24075 0.99994 0.93000
Cu	Cu	0.70261 0.25893 0.89731 0.87700
Cu	Cu	0.68108 0.34817 0.94038 0.90000
Cu	Cu	0.63436 0.35473 0.03848 0.91600
C 	C 	0.65030 0.28166 0.10826 0.28200
O 	O 	0.54095 0.20046 0.99369 -0.34700
C 	C 	0.67096 0.31637 0.82732 0.28800
O 	O 	0.68926 0.33941 0.01109 -0.63400
O 	O 	0.63587 0.25523 0.92779 -0.63900
O 	O 	0.67985 0.19876 0.99674 -0.35100
O 	O 	0.75755 0.27385 0.95881 -0.42800
O 	O 	0.62093 0.30709 0.09592 -0.34700
O 	O 	0.73058 0.43873 0.95759 -0.36500
C 	C 	0.72248 0.46857 0.99509 0.29100
C 	C 	0.51737 0.22989 0.97854 0.31000
O 	O 	0.55698 0.28881 0.97379 -0.37100
O 	O 	0.67141 0.43767 0.01729 -0.34200
O 	O 	0.65116 0.24357 0.07303 -0.32600
C 	C 	0.73823 0.22914 0.98593 0.31300
O 	O 	0.68133 0.35730 0.86720 -0.36600
O 	O 	0.66887 0.26679 0.83368 -0.39900
H 	H 	0.73436 0.36560 0.03054 0.18400
H 	H 	0.59289 0.23056 0.90479 0.18700
Cu	Cu	0.74130 0.34293 0.43572 0.93300
Cu	Cu	0.73159 0.29061 0.54396 0.88900
Cu	Cu	0.63902 0.31018 0.50216 0.90200
Cu	Cu	0.61828 0.33628 0.39827 0.90300
C 	C 	0.69073 0.31873 0.32769 0.28800
O 	O 	0.77580 0.43405 0.43457 -0.33100
C 	C 	0.67751 0.32703 0.61492 0.28600
O 	O 	0.64003 0.28948 0.43070 -0.63700
O 	O 	0.73383 0.35248 0.50938 -0.63500
O 	O 	0.78910 0.30533 0.44103 -0.34800
O 	O 	0.71706 0.23461 0.48513 -0.40700
O 	O 	0.66542 0.34798 0.34001 -0.36600
O 	O 	0.54585 0.26273 0.49237 -0.35700
C 	C 	0.50846 0.25835 0.45188 0.31700
C 	C 	0.74548 0.45622 0.45180 0.30600
O 	O 	0.68614 0.41669 0.45913 -0.38700
O 	O 	0.53264 0.29715 0.41884 -0.37400
O 	O 	0.73166 0.31986 0.36246 -0.34200
C 	C 	0.76379 0.25290 0.45916 0.30800
O 	O 	0.64053 0.32688 0.57665 -0.35700
O 	O 	0.72741 0.32782 0.60729 -0.38900
H 	H 	0.61262 0.24382 0.41610 0.18600
H 	H 	0.76133 0.39590 0.52984 0.19800
C 	C 	0.66447 0.32786 0.77418 -0.05900
C 	C 	0.71643 0.38227 0.75941 0.00500
C 	C 	0.71737 0.38524 0.70647 0.00800
C 	C 	0.66718 0.33340 0.66851 -0.05500
C 	C 	0.61121 0.28330 0.68345 0.00300
C 	C 	0.60970 0.28077 0.73641 0.00800
C 	C 	0.76969 0.43419 0.79845 0.09800
C 	C 	0.55617 0.23347 0.64438 0.09500
C 	C 	0.55206 0.22983 0.75208 0.09500
C 	C 	0.76994 0.44137 0.69099 0.10200
N 	N 	0.50608 0.18919 0.76463 -0.10100
N 	N 	0.81188 0.48615 0.67861 -0.09200
N 	N 	0.51226 0.19374 0.61318 -0.09300
N 	N 	0.81218 0.47563 0.82961 -0.09600
C 	C 	0.66542 0.28126 0.16340 -0.04400
C 	C 	0.61583 0.23795 0.18823 0.01100
C 	C 	0.62637 0.24664 0.24272 0.00700
C 	C 	0.68614 0.29903 0.27226 -0.05500
C 	C 	0.73797 0.33792 0.24720 0.01400
C 	C 	0.72762 0.32870 0.19265 0.00400
C 	C 	0.55358 0.18551 0.15776 0.11400
C 	C 	0.80112 0.38872 0.27750 0.10900
C 	C 	0.78048 0.36881 0.16664 0.09800
C 	C 	0.57535 0.20258 0.26851 0.08700
N 	N 	0.82261 0.40077 0.14582 -0.09900
N 	N 	0.53468 0.16748 0.28914 -0.10000
N 	N 	0.85150 0.42926 0.30170 -0.08800
N 	N 	0.50391 0.14371 0.13339 -0.08400
C 	C 	0.88651 0.83408 0.43003 -0.02300
C 	C 	0.87166 0.79003 0.38638 0.11400
C 	C 	0.84868 0.72885 0.39159 -0.06100
C 	C 	0.83808 0.71032 0.43971 0.01300
C 	C 	0.84924 0.75324 0.48273 0.10200
C 	C 	0.87374 0.81495 0.47777 -0.04800
H 	H 	0.83876 0.69555 0.35813 0.08900
C 	C 	0.81402 0.64549 0.44438 0.03100
H 	H 	0.88467 0.84856 0.51139 0.08200
C 	C 	0.85704 0.63433 0.46638 -0.08000
C 	C 	0.83527 0.57288 0.46978 0.15200
C 	C 	0.77023 0.52171 0.44933 -0.09400
C 	C 	0.72746 0.53316 0.42720 -0.00600
C 	C 	0.74879 0.59459 0.42529 0.08200
H 	H 	0.90724 0.67351 0.48146 0.09300
H 	H 	0.67738 0.49415 0.41148 0.05800
Br	Br	0.83117 0.72838 0.54840 -0.18000
Br	Br	0.88242 0.81271 0.31934 -0.18600
Br	Br	0.89398 0.56058 0.50545 -0.20100
Br	Br	0.68767 0.60816 0.39747 -0.18200
C 	C 	0.79034 0.21675 0.45310 -0.09800
C 	C 	0.79041 0.18305 0.49134 0.15500
C 	C 	0.80807 0.14309 0.48182 -0.08200
C 	C 	0.83354 0.14202 0.43769 0.03100
C 	C 	0.83713 0.17834 0.40083 0.08300
C 	C 	0.81410 0.21422 0.40808 -0.00400
H 	H 	0.80598 0.11583 0.51054 0.09400
C 	C 	0.86024 0.10599 0.43231 0.01300
H 	H 	0.81505 0.24040 0.37879 0.07900
C 	C 	0.82801 0.05106 0.39439 -0.06000
C 	C 	0.85126 0.01510 0.39033 0.11000
C 	C 	0.90458 0.03156 0.42691 -0.03100
C 	C 	0.93551 0.08553 0.46569 -0.04800
C 	C 	0.91523 0.12389 0.46732 0.09900
H 	H 	0.78564 0.03700 0.36740 0.08800
H 	H 	0.97689 0.09885 0.49360 0.08200
Br	Br	0.87555 0.18159 0.34150 -0.18000
Br	Br	0.77617 0.19760 0.55955 -0.26600
Br	Br	0.81246 0.94674 0.33256 -0.18200
Br	Br	0.96533 0.20228 0.51591 -0.18300
C 	C 	0.43828 0.21930 0.44989 -0.09300
C 	C 	0.40235 0.15383 0.44769 0.15100
C 	C 	0.33515 0.11719 0.44358 -0.08100
C 	C 	0.30333 0.14517 0.44094 0.03000
C 	C 	0.33926 0.21061 0.44350 0.08500
C 	C 	0.40642 0.24732 0.44803 -0.00400
H 	H 	0.30752 0.06679 0.44169 0.09100
C 	C 	0.23249 0.10579 0.43588 0.01300
H 	H 	0.43390 0.29770 0.44989 0.07500
C 	C 	0.20538 0.09840 0.48045 -0.06400
C 	C 	0.13841 0.06380 0.47632 0.11600
C 	C 	0.09792 0.03564 0.42717 -0.03400
C 	C 	0.12493 0.04231 0.38261 -0.04500
C 	C 	0.19200 0.07727 0.38673 0.10100
H 	H 	0.23649 0.12032 0.51830 0.08700
H 	H 	0.09381 0.02047 0.34476 0.08200
Br	Br	0.29725 0.25050 0.44017 -0.18000
Br	Br	0.44364 0.11313 0.44757 -0.21800
Br	Br	0.10303 0.05606 0.53816 -0.20500
Br	Br	0.22756 0.08628 0.32489 -0.18000
C 	C 	0.91630 0.86478 0.02213 -0.01400
C 	C 	0.94382 0.84455 0.05524 0.11300
C 	C 	0.91288 0.78017 0.05303 -0.06300
C 	C 	0.85281 0.73574 0.02028 0.01900
C 	C 	0.82160 0.75622 0.99225 0.10200
C 	C 	0.85421 0.82043 0.99205 -0.05500
H 	H 	0.93563 0.76464 0.07662 0.08700
C 	C 	0.82365 0.66810 0.01477 0.03600
H 	H 	0.83178 0.83577 0.96781 0.08900
C 	C 	0.80146 0.63775 0.05669 -0.08100
C 	C 	0.77306 0.57353 0.05201 0.14700
C 	C 	0.76216 0.53803 0.00361 -0.07000
C 	C 	0.78720 0.56919 0.96242 -0.01900
C 	C 	0.81960 0.63419 0.96836 0.08500
H 	H 	0.80752 0.66439 0.09332 0.09300
H 	H 	0.78124 0.54289 0.92564 0.08400
Br	Br	0.73425 0.69735 0.95480 -0.17800
Br	Br	0.02165 0.90403 0.10552 -0.19500
Br	Br	0.75649 0.53726 0.11335 -0.21700
Br	Br	0.85993 0.67614 0.91339 -0.17700
C 	C 	0.77687 0.20543 0.99504 -0.11400
C 	C 	0.77683 0.17968 0.03935 0.16400
C 	C 	0.80863 0.15184 0.04396 -0.08800
C 	C 	0.84417 0.15317 0.00663 0.04200
C 	C 	0.84839 0.18327 0.96464 0.06900
C 	C 	0.81388 0.20802 0.95847 -0.00300
H 	H 	0.80651 0.12997 0.07699 0.09700
C 	C 	0.87337 0.11956 0.00987 0.01600
H 	H 	0.81547 0.22892 0.92491 0.04900
C 	C 	0.84570 0.06335 0.97482 -0.06400
C 	C 	0.87587 0.03388 0.97373 0.10200
C 	C 	0.93226 0.05849 0.01030 -0.01400
C 	C 	0.95914 0.11393 0.04622 -0.04900
C 	C 	0.93053 0.14503 0.04568 0.10300
H 	H 	0.80200 0.04390 0.94698 0.08500
H 	H 	0.00266 0.13323 0.07421 0.07900
Br	Br	0.90207 0.19202 0.91573 -0.19100
Br	Br	0.73970 0.18756 0.09629 -0.18900
Br	Br	0.84200 0.96285 0.91965 -0.18700
Br	Br	0.97150 0.22331 0.09278 -0.18000
C 	C 	0.11834 0.05381 0.98713 -0.02900
C 	C 	0.13857 0.07380 0.94070 0.11200
C 	C 	0.20289 0.10182 0.93580 -0.05800
C 	C 	0.24671 0.10816 0.97619 0.00100
C 	C 	0.22596 0.08670 0.02201 0.10900
C 	C 	0.16242 0.06067 0.02758 -0.04500
H 	H 	0.21871 0.11825 0.90046 0.08700
C 	C 	0.31523 0.14112 0.97182 0.04200
H 	H 	0.14685 0.04465 0.06310 0.08600
C 	C 	0.36111 0.20318 0.99846 -0.10700
C 	C 	0.42717 0.23217 0.00191 0.17700
C 	C 	0.44792 0.20034 0.97535 -0.11000
C 	C 	0.40182 0.13901 0.94698 0.00200
C 	C 	0.33570 0.10910 0.94548 0.07700
H 	H 	0.34542 0.22769 0.01904 0.10400
H 	H 	0.41738 0.11425 0.92663 0.06600
Br	Br	0.28340 0.09114 0.07694 -0.17600
Br	Br	0.07864 0.06092 0.88294 -0.18800
Br	Br	0.48763 0.31204 0.04783 -0.24100
Br	Br	0.27423 0.02390 0.90876 -0.18500
