data_crystal

_cell_length_a 26.35116
_cell_length_b 26.34378
_cell_length_c 34.81135
_cell_angle_alpha 95.46983
_cell_angle_beta  95.46452
_cell_angle_gamma 125.72612

_symmetry_space_group_name_	'P 1'
_symmetry_space_group_name_H-M	'P 1'

loop_
_symmetry_equiv_pos_as_xyz
  x,y,z

loop_
_atom_site_label
_atom_site_type_symbol
_atom_site_fract_x
_atom_site_fract_y
_atom_site_fract_z
_atom_site_charge
C 	C 	0.96566 0.03006 0.98849 0.02200
C 	C 	0.93087 0.96496 0.98997 -0.07100
C 	C 	0.96153 0.93596 0.99191 0.02100
C 	C 	0.02718 0.97207 0.99291 -0.06900
C 	C 	0.06246 0.03727 0.99204 0.02300
C 	C 	0.03157 0.06614 0.98937 -0.06900
H 	H 	0.88014 0.93705 0.98974 0.04900
H 	H 	0.05086 0.94954 0.99452 0.04900
H 	H 	0.05870 0.11641 0.98824 0.04800
C 	C 	0.93919 0.99935 0.45306 0.01800
C 	C 	0.00540 0.03680 0.45529 -0.06600
C 	C 	0.03716 0.00886 0.45698 0.02200
C 	C 	0.00278 0.94339 0.45645 -0.06900
C 	C 	0.93672 0.90568 0.45433 0.02000
C 	C 	0.90486 0.93363 0.45252 -0.06800
H 	H 	0.03222 0.08767 0.45636 0.04800
H 	H 	0.02745 0.92186 0.45795 0.04800
H 	H 	0.85375 0.90452 0.45087 0.04700
Cu	Cu	0.63744 0.24078 0.00498 0.92700
Cu	Cu	0.68058 0.24065 0.91959 0.87000
Cu	Cu	0.67365 0.34325 0.95544 0.89700
Cu	Cu	0.64226 0.36054 0.03404 0.89300
C 	C 	0.66385 0.29035 0.08736 0.27700
O 	O 	0.54578 0.20471 0.00692 -0.36500
C 	C 	0.64916 0.30088 0.86913 0.27900
O 	O 	0.69026 0.34004 0.00944 -0.64200
O 	O 	0.62671 0.24890 0.94935 -0.64000
O 	O 	0.67346 0.19224 0.99978 -0.37100
O 	O 	0.74182 0.25605 0.96185 -0.44000
O 	O 	0.63479 0.31637 0.07906 -0.38300
O 	O 	0.72379 0.43506 0.96520 -0.38300
C 	C 	0.71936 0.46982 0.99270 0.28700
C 	C 	0.52075 0.23259 0.99466 0.28000
O 	O 	0.55804 0.29179 0.98970 -0.39000
O 	O 	0.67808 0.44361 0.01654 -0.39600
O 	O 	0.66124 0.24960 0.06037 -0.35900
C 	C 	0.72533 0.21467 0.98515 0.28700
O 	O 	0.67220 0.34810 0.89909 -0.38700
O 	O 	0.63975 0.24724 0.87419 -0.41900
H 	H 	0.73600 0.36644 0.02144 0.16200
H 	H 	0.58207 0.22436 0.93542 0.17200
Cu	Cu	0.73453 0.33251 0.45552 0.92700
Cu	Cu	0.73194 0.28921 0.54121 0.87000
Cu	Cu	0.63119 0.29745 0.50382 0.89700
Cu	Cu	0.61706 0.33018 0.42550 0.89300
C 	C 	0.69364 0.31604 0.37266 0.28000
O 	O 	0.77214 0.42498 0.45413 -0.36300
C 	C 	0.67163 0.32212 0.59036 0.27900
O 	O 	0.63549 0.28079 0.45001 -0.64100
O 	O 	0.72539 0.34334 0.51089 -0.64100
O 	O 	0.77996 0.29300 0.46075 -0.37200
O 	O 	0.71454 0.22694 0.49912 -0.44000
O 	O 	0.66448 0.34168 0.38150 -0.38400
O 	O 	0.53961 0.24839 0.49317 -0.38400
C 	C 	0.50594 0.25473 0.46608 0.28700
C 	C 	0.74409 0.45007 0.46609 0.27800
O 	O 	0.68485 0.41265 0.47091 -0.39300
O 	O 	0.53279 0.29426 0.44131 -0.39400
O 	O 	0.72626 0.30919 0.40022 -0.36200
C 	C 	0.75598 0.24143 0.47608 0.28400
O 	O 	0.62490 0.29882 0.56002 -0.38600
O 	O 	0.72528 0.33113 0.58595 -0.41900
H 	H 	0.60865 0.23510 0.43780 0.16500
H 	H 	0.75011 0.38801 0.52483 0.17200
C 	C 	0.75032 0.43107 0.72844 -0.04400
C 	C 	0.74673 0.42817 0.76812 -0.04400
C 	C 	0.69441 0.37421 0.77890 0.01400
C 	C 	0.64393 0.32407 0.74955 -0.00900
C 	C 	0.64719 0.32733 0.70960 -0.00900
C 	C 	0.70142 0.38023 0.69905 0.01400
C 	C 	0.59767 0.27628 0.68025 0.01400
C 	C 	0.54428 0.22334 0.69103 -0.04400
C 	C 	0.54139 0.21977 0.73072 -0.04400
C 	C 	0.59166 0.26930 0.76012 0.01400
C 	C 	0.59168 0.26354 0.79979 -0.02700
C 	C 	0.64343 0.31208 0.82887 -0.06300
C 	C 	0.69341 0.36839 0.81853 -0.02800
C 	C 	0.70737 0.38027 0.65940 -0.02700
C 	C 	0.65958 0.32795 0.63035 -0.06300
C 	C 	0.60366 0.27734 0.64065 -0.02800
H 	H 	0.79173 0.47235 0.72062 0.03600
H 	H 	0.78538 0.46729 0.79046 0.03700
H 	H 	0.50563 0.18423 0.66869 0.03700
H 	H 	0.50057 0.17792 0.73854 0.03600
H 	H 	0.55261 0.22060 0.80796 0.03800
H 	H 	0.73304 0.40606 0.84109 0.04100
H 	H 	0.75001 0.41979 0.65126 0.03800
H 	H 	0.56655 0.23727 0.61810 0.04100
C 	C 	0.63162 0.18459 0.20114 -0.04200
C 	C 	0.63553 0.18823 0.24185 -0.04300
C 	C 	0.67158 0.24773 0.26716 0.01600
C 	C 	0.70614 0.30396 0.25153 -0.00800
C 	C 	0.70209 0.30030 0.21058 -0.00800
C 	C 	0.66363 0.24041 0.18526 0.01600
C 	C 	0.73392 0.35659 0.19488 0.01600
C 	C 	0.77203 0.41604 0.22027 -0.04300
C 	C 	0.77619 0.41968 0.26093 -0.04300
C 	C 	0.74223 0.36391 0.27670 0.01500
C 	C 	0.74142 0.36737 0.31705 -0.02400
C 	C 	0.70421 0.31155 0.33230 -0.05600
C 	C 	0.67115 0.25183 0.30766 -0.02900
C 	C 	0.65515 0.23720 0.14441 -0.02400
C 	C 	0.68373 0.29334 0.12890 -0.05700
C 	C 	0.72474 0.35279 0.15406 -0.02900
H 	H 	0.60259 0.13834 0.18196 0.03900
H 	H 	0.60948 0.14475 0.25359 0.03800
H 	H 	0.79740 0.45954 0.20850 0.03600
H 	H 	0.80475 0.46594 0.28009 0.03700
H 	H 	0.76752 0.41340 0.33638 0.04300
H 	H 	0.64296 0.20884 0.31970 0.03500
H 	H 	0.62377 0.19131 0.12485 0.04800
H 	H 	0.74734 0.39599 0.14190 0.02900
C 	C 	0.90138 0.83709 0.45485 0.01300
C 	C 	0.87583 0.81333 0.48790 -0.04900
C 	C 	0.85080 0.75068 0.49133 -0.02900
C 	C 	0.84863 0.70970 0.46069 -0.01500
C 	C 	0.87687 0.73481 0.42804 0.03200
C 	C 	0.90094 0.79751 0.42473 -0.06900
C 	C 	0.88385 0.69830 0.40015 -0.05400
C 	C 	0.86441 0.63773 0.40460 -0.03500
C 	C 	0.83375 0.61072 0.43561 0.00100
C 	C 	0.82265 0.64522 0.46288 0.01300
C 	C 	0.78306 0.61338 0.49001 -0.05800
C 	C 	0.76041 0.55096 0.49230 0.00200
C 	C 	0.77439 0.51819 0.46666 -0.07700
C 	C 	0.81137 0.54832 0.43852 -0.01600
H 	H 	0.87813 0.84442 0.51190 0.03900
H 	H 	0.83744 0.73602 0.51884 0.03300
H 	H 	0.92193 0.81646 0.39953 0.04600
H 	H 	0.90606 0.71763 0.37541 0.04000
H 	H 	0.87197 0.61107 0.38330 0.03500
H 	H 	0.76633 0.63488 0.50758 0.04100
H 	H 	0.73023 0.52735 0.51331 0.03100
H 	H 	0.82028 0.52223 0.41772 0.04300
C 	C 	0.90643 0.02964 0.45325 0.01500
C 	C 	0.91245 0.06646 0.42500 -0.04900
C 	C 	0.88758 0.10095 0.42746 -0.02800
C 	C 	0.85322 0.09664 0.45741 -0.01600
C 	C 	0.84898 0.06085 0.48661 0.03200
C 	C 	0.87426 0.02649 0.48378 -0.06800
C 	C 	0.82243 0.06226 0.51935 -0.05500
C 	C 	0.80181 0.10014 0.52419 -0.03400
C 	C 	0.80388 0.13457 0.49529 -0.00200
C 	C 	0.82648 0.13059 0.46061 0.01500
C 	C 	0.81952 0.15843 0.42963 -0.05900
C 	C 	0.79791 0.19565 0.43508 0.00900
C 	C 	0.77979 0.20306 0.47053 -0.08500
C 	C 	0.78213 0.17187 0.50036 -0.01500
H 	H 	0.93851 0.07019 0.40181 0.04000
H 	H 	0.89867 0.13364 0.40756 0.03400
H 	H 	0.87106 0.99928 0.50617 0.04400
H 	H 	0.81939 0.03520 0.54178 0.03900
H 	H 	0.78332 0.10209 0.55037 0.03100
H 	H 	0.82710 0.14862 0.40076 0.04300
H 	H 	0.79340 0.21710 0.41119 0.03900
H 	H 	0.76692 0.17653 0.52752 0.02100
C 	C 	0.10669 0.04826 0.45976 0.01300
C 	C 	0.14544 0.05495 0.49331 -0.04800
C 	C 	0.21093 0.08870 0.49521 -0.02800
C 	C 	0.23926 0.11891 0.46397 -0.01500
C 	C 	0.19940 0.10895 0.42920 0.03200
C 	C 	0.13365 0.07524 0.42778 -0.06900
C 	C 	0.22518 0.13020 0.39570 -0.05400
C 	C 	0.28969 0.15998 0.39600 -0.03500
C 	C 	0.33043 0.17272 0.43052 0.00100
C 	C 	0.30616 0.15549 0.46546 0.01400
C 	C 	0.34944 0.17774 0.50113 -0.05700
C 	C 	0.41420 0.20906 0.50108 0.00600
C 	C 	0.43745 0.22150 0.46590 -0.07500
C 	C 	0.39561 0.20412 0.43077 -0.01600
H 	H 	0.12445 0.03236 0.51758 0.04100
H 	H 	0.23844 0.08782 0.51985 0.03400
H 	H 	0.10320 0.06832 0.40139 0.04600
H 	H 	0.19477 0.12209 0.36895 0.04000
H 	H 	0.30828 0.17420 0.36941 0.03500
H 	H 	0.33401 0.17424 0.52905 0.04200
H 	H 	0.44664 0.22534 0.52867 0.03900
H 	H 	0.41376 0.21516 0.40370 0.03600
C 	C 	0.92490 0.86759 0.99288 0.01400
C 	C 	0.92837 0.84757 0.02822 -0.05000
C 	C 	0.89622 0.78288 0.02908 -0.03000
C 	C 	0.85782 0.73684 0.99451 -0.01400
C 	C 	0.85812 0.75765 0.95838 0.03200
C 	C 	0.89010 0.82277 0.95800 -0.06900
C 	C 	0.82878 0.71355 0.92294 -0.05300
C 	C 	0.79987 0.64922 0.92287 -0.03500
C 	C 	0.79602 0.62713 0.95835 0.00200
C 	C 	0.82203 0.67037 0.99461 0.01500
C 	C 	0.80855 0.64591 0.02969 -0.05900
C 	C 	0.77639 0.58080 0.02895 0.00300
C 	C 	0.75481 0.53865 0.99326 -0.07400
C 	C 	0.76427 0.56185 0.95799 -0.01500
H 	H 	0.95740 0.88235 0.05496 0.04000
H 	H 	0.90445 0.76939 0.05601 0.03300
H 	H 	0.88931 0.83870 0.93048 0.04600
H 	H 	0.82972 0.72938 0.89521 0.04000
H 	H 	0.77912 0.61617 0.89508 0.03600
H 	H 	0.81954 0.67622 0.05715 0.04100
H 	H 	0.76738 0.56298 0.05619 0.02700
H 	H 	0.74536 0.52894 0.93023 0.04500
C 	C 	0.75796 0.18499 0.98878 -0.08400
C 	C 	0.72822 0.12273 0.96897 0.00500
C 	C 	0.76133 0.09637 0.96875 -0.06100
C 	C 	0.82568 0.13295 0.98768 0.01600
C 	C 	0.85322 0.19323 0.01112 -0.00300
C 	C 	0.81999 0.21984 0.01039 -0.01100
C 	C 	0.91274 0.22532 0.03577 -0.03300
C 	C 	0.94489 0.19801 0.03758 -0.05400
C 	C 	0.92031 0.14041 0.01267 0.03100
C 	C 	0.86225 0.10937 0.98576 -0.01500
C 	C 	0.84438 0.05832 0.95618 -0.02900
C 	C 	0.87912 0.03371 0.95666 -0.04700
C 	C 	0.93281 0.06023 0.98600 0.01400
C 	C 	0.95404 0.11433 0.01355 -0.07000
H 	H 	0.67941 0.09480 0.95344 0.01800
H 	H 	0.73594 0.04690 0.95542 0.04200
H 	H 	0.84214 0.26731 0.02676 0.03300
H 	H 	0.93353 0.27091 0.05430 0.03500
H 	H 	0.98984 0.22255 0.05775 0.04000
H 	H 	0.80579 0.03961 0.93178 0.03300
H 	H 	0.86439 0.99402 0.93406 0.03800
H 	H 	0.99655 0.13594 0.03562 0.04600
C 	C 	0.13211 0.07547 0.99530 0.01400
C 	C 	0.16952 0.08017 0.02889 -0.04900
C 	C 	0.23389 0.10792 0.02996 -0.03000
C 	C 	0.26131 0.12946 0.99666 -0.01400
C 	C 	0.22548 0.13171 0.96476 0.03200
C 	C 	0.16055 0.10319 0.96381 -0.06900
C 	C 	0.25507 0.16307 0.93453 -0.05300
C 	C 	0.31967 0.19182 0.93556 -0.03500
C 	C 	0.35471 0.18594 0.96540 0.00100
C 	C 	0.32473 0.15159 0.99506 0.01400
C 	C 	0.35720 0.13659 0.02057 -0.05900
C 	C 	0.42065 0.16213 0.01979 0.00300
C 	C 	0.45226 0.20130 0.99286 -0.07600
C 	C 	0.41892 0.21227 0.96523 -0.01700
H 	H 	0.14846 0.06174 0.05411 0.04000
H 	H 	0.26252 0.11481 0.05714 0.03500
H 	H 	0.13202 0.10157 0.93841 0.04600
H 	H 	0.22824 0.16614 0.91047 0.04000
H 	H 	0.34212 0.21731 0.91250 0.03500
H 	H 	0.33293 0.10305 0.03973 0.04300
H 	H 	0.44544 0.15173 0.04041 0.03900
H 	H 	0.44265 0.24055 0.94341 0.03700
