data_crystal

_cell_length_a 30.27629
_cell_length_b 30.37422
_cell_length_c 30.28596
_cell_angle_alpha 89.90723
_cell_angle_beta  89.90395
_cell_angle_gamma 89.90397

_symmetry_space_group_name_	'P 1'
_symmetry_space_group_name_H-M	'P 1'

loop_
_symmetry_equiv_pos_as_xyz
  x,y,z

loop_
_atom_site_label
_atom_site_type_symbol
_atom_site_fract_x
_atom_site_fract_y
_atom_site_fract_z
_atom_site_charge
Co	Co	0.97962 0.02198 0.45719 1.18600
Co	Co	0.03996 0.95819 0.57060 1.18800
Co	Co	0.97105 0.02477 0.56441 1.18500
Co	Co	0.05044 0.95766 0.46397 1.18800
C 	C 	0.99786 0.07980 0.37870 0.30700
Co	Co	0.02030 0.98386 0.36521 1.16800
Co	Co	0.99614 0.98776 0.66307 1.16300
C 	C 	0.03113 0.89154 0.39656 0.30600
O 	O 	0.93289 0.96428 0.65275 -0.39500
O 	O 	0.00598 0.99403 0.59462 -0.76900
C 	C 	0.90495 0.98526 0.62695 0.29900
O 	O 	0.94682 0.05038 0.50777 -0.46900
O 	O 	0.07397 0.93080 0.52032 -0.47300
C 	C 	0.00510 0.89458 0.63410 0.31200
O 	O 	0.02356 0.00498 0.51505 -0.58200
C 	C 	0.98052 0.08458 0.64348 0.30200
C 	C 	0.92450 0.97569 0.38768 0.29600
C 	C 	0.11539 0.99187 0.39227 0.29200
O 	O 	0.91448 0.99198 0.58493 -0.39900
O 	O 	0.95769 0.95635 0.36717 -0.39400
O 	O 	0.92758 0.98641 0.42992 -0.39700
O 	O 	0.01954 0.92333 0.66318 -0.40000
O 	O 	0.00441 0.90481 0.59192 -0.40400
O 	O 	0.96852 0.05060 0.66780 -0.40800
O 	O 	0.98267 0.08163 0.59998 -0.39300
O 	O 	0.08240 0.01135 0.37117 -0.39000
O 	O 	0.10931 0.96869 0.42930 -0.38200
O 	O 	0.01917 0.99165 0.43390 -0.77100
C 	C 	0.09428 0.99895 0.64531 0.28600
O 	O 	0.05977 0.01304 0.66841 -0.38400
O 	O 	0.09056 0.96620 0.61653 -0.38300
O 	O 	0.99060 0.04472 0.35435 -0.41100
O 	O 	0.99596 0.07780 0.42212 -0.39500
O 	O 	0.04771 0.92103 0.36949 -0.40500
O 	O 	0.02170 0.90243 0.43749 -0.40300
Co	Co	0.97594 0.44292 0.04027 1.18700
Co	Co	0.02787 0.55668 0.97021 1.18500
Co	Co	0.95991 0.54880 0.03756 1.18900
Co	Co	0.04604 0.45114 0.97507 1.18300
C 	C 	0.92521 0.36846 0.99944 0.25800
Co	Co	0.02232 0.35196 0.00608 1.17400
Co	Co	0.97514 0.64626 0.99800 1.15800
C 	C 	0.11570 0.38424 0.00761 0.33000
O 	O 	0.99862 0.65150 0.06210 -0.38500
O 	O 	0.99218 0.57970 0.00522 -0.76400
C 	C 	0.98336 0.62858 0.09615 0.31000
O 	O 	0.93948 0.49227 0.06612 -0.46700
O 	O 	0.06466 0.50741 0.94476 -0.46900
C 	C 	0.07367 0.64365 0.98286 0.30900
O 	O 	0.01575 0.50252 0.01999 -0.57200
C 	C 	0.88706 0.60362 0.00566 0.32800
C 	C 	0.00255 0.36943 0.10221 0.33300
C 	C 	0.02824 0.37962 0.91204 0.32600
O 	O 	0.95980 0.59193 0.09127 -0.38100
O 	O 	0.99616 0.34244 0.06900 -0.41100
O 	O 	0.99356 0.41175 0.09860 -0.39400
O 	O 	0.03623 0.66225 0.97102 -0.41000
O 	O 	0.07772 0.60046 0.98459 -0.39800
O 	O 	0.91130 0.63579 0.02137 -0.39900
O 	O 	0.90377 0.56378 0.00230 -0.39900
O 	O 	0.04696 0.35466 0.94205 -0.41500
O 	O 	0.01763 0.42055 0.92131 -0.40500
O 	O 	0.01728 0.42078 0.01122 -0.75900
C 	C 	0.97702 0.61261 0.90523 0.31500
O 	O 	0.95306 0.63439 0.93425 -0.39900
O 	O 	0.99163 0.57258 0.91413 -0.40300
O 	O 	0.95875 0.34725 0.98154 -0.39300
O 	O 	0.92685 0.41155 0.00498 -0.38200
O 	O 	0.08515 0.36314 0.03050 -0.39200
O 	O 	0.10746 0.42211 0.98691 -0.39600
Co	Co	0.56938 0.03041 0.03405 1.19100
Co	Co	0.45316 0.97738 0.96872 1.18200
Co	Co	0.46284 0.04244 0.03834 1.18900
Co	Co	0.55946 0.96482 0.96522 1.18300
C 	C 	0.64932 0.00511 0.08754 0.32200
Co	Co	0.65955 0.99092 0.98975 1.15900
Co	Co	0.36346 0.02609 0.00399 1.17400
C 	C 	0.62449 0.98819 0.89783 0.32600
O 	O 	0.37336 0.08905 0.02886 -0.39400
O 	O 	0.43100 0.01063 0.00660 -0.76300
C 	C 	0.40410 0.11469 0.01218 0.29600
O 	O 	0.52023 0.06297 0.06514 -0.46500
O 	O 	0.50216 0.94358 0.93888 -0.47000
C 	C 	0.39119 0.02780 0.90958 0.31700
O 	O 	0.50996 0.98925 0.01567 -0.57400
C 	C 	0.38803 0.01221 0.10015 0.31100
C 	C 	0.63761 0.08717 0.98874 0.31500
C 	C 	0.62889 0.89618 0.99519 0.30200
O 	O 	0.44434 0.09943 0.00620 -0.39200
O 	O 	0.65836 0.05558 0.96729 -0.39300
O 	O 	0.59543 0.08320 0.99903 -0.40700
O 	O 	0.37084 0.05038 0.94059 -0.40200
O 	O 	0.43236 0.01445 0.91511 -0.40000
O 	O 	0.36198 0.99984 0.06734 -0.38500
O 	O 	0.42235 0.03883 0.09399 -0.38200
O 	O 	0.65430 0.92687 0.01298 -0.37400
O 	O 	0.59480 0.90574 0.96911 -0.38300
O 	O 	0.59110 0.99238 0.00073 -0.76100
C 	C 	0.36835 0.92849 0.98662 0.32300
O 	O 	0.34779 0.96525 0.97645 -0.41300
O 	O 	0.41165 0.92530 0.98355 -0.39600
O 	O 	0.67285 0.01509 0.05246 -0.40000
O 	O 	0.60624 0.01154 0.08827 -0.38900
O 	O 	0.65251 0.96915 0.92489 -0.40600
O 	O 	0.58429 0.99749 0.91127 -0.40700
C 	C 	0.84047 0.61193 0.99558 -0.12200
C 	C 	0.80843 0.60436 0.02823 0.03600
C 	C 	0.76849 0.62765 0.02737 -0.04200
C 	C 	0.76052 0.65873 0.99390 -0.01500
C 	C 	0.79015 0.66186 0.95831 -0.05500
C 	C 	0.82988 0.63836 0.95909 0.01800
C 	C 	0.72634 0.69310 0.00008 0.04800
C 	C 	0.72781 0.72043 0.03745 -0.05400
C 	C 	0.70222 0.75873 0.03912 -0.02200
C 	C 	0.67504 0.77013 0.00350 -0.00400
C 	C 	0.67113 0.74138 0.96754 -0.03700
C 	C 	0.69652 0.70284 0.96592 -0.06900
C 	C 	0.65649 0.81381 0.00104 0.07700
C 	C 	0.64286 0.85110 0.99866 -0.13100
H 	H 	0.81591 0.58330 0.05615 0.02900
H 	H 	0.74519 0.62383 0.05429 0.04400
H 	H 	0.78400 0.68500 0.93175 0.04200
H 	H 	0.85404 0.64369 0.93320 0.03100
H 	H 	0.75056 0.71327 0.06410 0.04800
H 	H 	0.70518 0.78062 0.06719 0.04000
H 	H 	0.64987 0.74976 0.94001 0.03900
H 	H 	0.69453 0.68167 0.93724 0.04600
C 	C 	0.88227 0.34615 0.00161 -0.05100
C 	C 	0.84458 0.36539 0.98262 -0.00100
C 	C 	0.80463 0.34228 0.98196 -0.08700
C 	C 	0.80209 0.30003 0.00060 0.06700
C 	C 	0.83946 0.28145 0.02066 -0.07200
C 	C 	0.87936 0.30435 0.02106 0.01000
C 	C 	0.76150 0.27377 0.99633 -0.04000
C 	C 	0.74975 0.25642 0.95508 -0.02800
C 	C 	0.71832 0.22287 0.95241 -0.03500
C 	C 	0.69839 0.20663 0.99091 -0.02000
C 	C 	0.70731 0.22655 0.03162 -0.02100
C 	C 	0.73874 0.26009 0.03434 -0.01400
C 	C 	0.67491 0.16553 0.98967 0.04900
C 	C 	0.65700 0.13016 0.98903 -0.11200
H 	H 	0.84649 0.39764 0.96742 0.03800
H 	H 	0.77592 0.35686 0.96638 0.05100
H 	H 	0.83781 0.24879 0.03502 0.05300
H 	H 	0.90820 0.28940 0.03608 0.03300
H 	H 	0.76683 0.26708 0.92548 0.03600
H 	H 	0.71125 0.20794 0.92073 0.04100
H 	H 	0.69166 0.21450 0.06148 0.04200
H 	H 	0.74714 0.27374 0.06627 0.03700
C 	C 	0.11367 0.67091 0.98551 -0.10900
C 	C 	0.14696 0.66054 0.01606 0.03700
C 	C 	0.18466 0.68690 0.01902 -0.05300
C 	C 	0.18942 0.72361 0.99129 0.01500
C 	C 	0.15638 0.73371 0.96049 -0.06800
C 	C 	0.11869 0.70752 0.95760 0.02100
C 	C 	0.22814 0.75247 0.99545 -0.01100
C 	C 	0.23252 0.77976 0.03250 -0.02700
C 	C 	0.26484 0.81254 0.03311 -0.01300
C 	C 	0.29296 0.81812 0.99675 -0.02800
C 	C 	0.29030 0.78922 0.96085 -0.02700
C 	C 	0.25800 0.75644 0.96020 -0.04100
C 	C 	0.32070 0.85636 0.99397 0.05300
C 	C 	0.34294 0.88903 0.99093 -0.11700
H 	H 	0.14338 0.63245 0.03786 0.03500
H 	H 	0.21002 0.67894 0.04295 0.04900
H 	H 	0.15978 0.76211 0.93905 0.04600
H 	H 	0.09348 0.71555 0.93353 0.03200
H 	H 	0.20974 0.77676 0.05997 0.04100
H 	H 	0.26689 0.83464 0.06109 0.03900
H 	H 	0.31215 0.79317 0.93275 0.03900
H 	H 	0.25511 0.73521 0.93164 0.04100
C 	C 	0.39341 0.16068 0.00200 -0.05300
C 	C 	0.36447 0.16993 0.96708 -0.02200
C 	C 	0.34129 0.20975 0.96604 -0.03600
C 	C 	0.34711 0.24079 0.99983 -0.02800
C 	C 	0.37988 0.23362 0.03186 -0.02400
C 	C 	0.40289 0.19360 0.03297 -0.00400
C 	C 	0.31425 0.27644 0.00579 0.05000
C 	C 	0.30411 0.30489 0.97059 -0.06800
C 	C 	0.26676 0.33205 0.97281 -0.04000
C 	C 	0.23963 0.33128 0.01037 0.00500
C 	C 	0.25153 0.30533 0.04675 -0.02600
C 	C 	0.28863 0.27797 0.04449 -0.05400
C 	C 	0.19684 0.35215 0.00937 0.05100
C 	C 	0.16019 0.36780 0.00860 -0.10300
H 	H 	0.35747 0.14498 0.94255 0.04200
H 	H 	0.31664 0.21514 0.94070 0.03700
H 	H 	0.38556 0.25785 0.05743 0.04000
H 	H 	0.42568 0.18703 0.05974 0.03900
H 	H 	0.32399 0.30452 0.94082 0.04600
H 	H 	0.25799 0.35231 0.94467 0.04000
H 	H 	0.23090 0.30479 0.07602 0.04100
H 	H 	0.29612 0.25629 0.07193 0.04700
C 	C 	0.86021 0.99444 0.64347 -0.09400
C 	C 	0.85495 0.01609 0.68398 0.01800
C 	C 	0.81304 0.02091 0.70257 -0.06700
C 	C 	0.77582 0.00396 0.68095 0.02900
C 	C 	0.78078 0.98384 0.63947 -0.06900
C 	C 	0.82289 0.97922 0.62070 0.02200
C 	C 	0.73290 0.00282 0.70420 0.00500
C 	C 	0.71482 0.04190 0.72127 -0.04100
C 	C 	0.68330 0.04009 0.75506 -0.02800
C 	C 	0.66929 0.99928 0.77152 -0.01100
C 	C 	0.68312 0.96048 0.75059 -0.02900
C 	C 	0.71489 0.96221 0.71706 -0.04200
C 	C 	0.64974 0.99674 0.81485 0.05200
C 	C 	0.63645 0.99354 0.85227 -0.11000
H 	H 	0.88352 0.02833 0.70159 0.02600
H 	H 	0.80965 0.03634 0.73463 0.04600
H 	H 	0.75226 0.97078 0.62239 0.04800
H 	H 	0.82658 0.96258 0.58929 0.03500
H 	H 	0.72758 0.07352 0.71071 0.04100
H 	H 	0.67214 0.07032 0.77046 0.04100
H 	H 	0.67181 0.92878 0.76253 0.04000
H 	H 	0.72792 0.93184 0.70353 0.04100
C 	C 	0.13908 0.01212 0.65998 -0.07900
C 	C 	0.14414 0.04281 0.69433 0.01100
C 	C 	0.18539 0.04892 0.71398 -0.06400
C 	C 	0.22224 0.02508 0.69904 0.02600
C 	C 	0.21810 0.99759 0.66208 -0.06500
C 	C 	0.17677 0.99114 0.64259 0.01000
C 	C 	0.26327 0.02458 0.72545 0.00500
C 	C 	0.27843 0.98488 0.74386 -0.04100
C 	C 	0.31140 0.98527 0.77609 -0.03300
C 	C 	0.32931 0.02530 0.79033 -0.00500
C 	C 	0.31669 0.06464 0.76958 -0.03200
C 	C 	0.28391 0.06429 0.73707 -0.04100
C 	C 	0.35405 0.02670 0.83087 0.04900
C 	C 	0.37242 0.02741 0.86614 -0.10800
H 	H 	0.11586 0.06069 0.70698 0.03700
H 	H 	0.18830 0.07072 0.74211 0.04600
H 	H 	0.24658 0.97990 0.64955 0.04700
H 	H 	0.17389 0.96869 0.61501 0.03800
H 	H 	0.26301 0.95398 0.73495 0.04100
H 	H 	0.32123 0.95468 0.79173 0.04100
H 	H 	0.33067 0.09571 0.78012 0.04000
H 	H 	0.27310 0.09504 0.72245 0.04000
C 	C 	0.16046 0.99598 0.37407 -0.08700
C 	C 	0.17143 0.03209 0.34718 0.01400
C 	C 	0.21091 0.03212 0.32323 -0.06400
C 	C 	0.24008 0.99626 0.32623 0.02500
C 	C 	0.23075 0.96176 0.35569 -0.06500
C 	C 	0.19107 0.96155 0.37943 0.01400
C 	C 	0.27710 0.99230 0.29460 0.00200
C 	C 	0.27834 0.95688 0.26487 -0.03900
C 	C 	0.30760 0.95753 0.22914 -0.03200
C 	C 	0.33567 0.99360 0.22272 -0.00600
C 	C 	0.33686 0.02738 0.25419 -0.03100
C 	C 	0.30781 0.02665 0.29016 -0.03800
C 	C 	0.35705 0.99957 0.18064 0.04600
C 	C 	0.37258 0.00504 0.14437 -0.10000
H 	H 	0.14869 0.05944 0.34364 0.03500
H 	H 	0.21791 0.05910 0.30087 0.04700
H 	H 	0.25338 0.93427 0.35883 0.04700
H 	H 	0.18329 0.93368 0.40039 0.03700
H 	H 	0.25503 0.93004 0.26810 0.04000
H 	H 	0.30671 0.93112 0.20513 0.04100
H 	H 	0.35876 0.05522 0.24968 0.04200
H 	H 	0.30774 0.05375 0.31338 0.04100
C 	C 	0.88067 0.97409 0.36716 -0.09000
C 	C 	0.85862 0.01343 0.35697 0.01500
C 	C 	0.82243 0.01307 0.32831 -0.06400
C 	C 	0.80776 0.97324 0.31002 0.02600
C 	C 	0.82755 0.93351 0.32325 -0.06700
C 	C 	0.86406 0.93396 0.35145 0.02000
C 	C 	0.77600 0.97366 0.27299 0.00300
C 	C 	0.78841 0.95637 0.23181 -0.04000
C 	C 	0.76017 0.96029 0.19559 -0.03100
C 	C 	0.71942 0.98172 0.20008 -0.00700
C 	C 	0.70635 0.99802 0.24138 -0.03200
C 	C 	0.73450 0.99390 0.27780 -0.04100
C 	C 	0.69273 0.98982 0.16156 0.05000
C 	C 	0.67200 0.99672 0.12828 -0.10700
H 	H 	0.87110 0.04455 0.36912 0.02700
H 	H 	0.80726 0.04392 0.31860 0.04700
H 	H 	0.81591 0.90249 0.31008 0.04700
H 	H 	0.88054 0.90332 0.35962 0.03200
H 	H 	0.82042 0.94093 0.22761 0.04000
H 	H 	0.77047 0.94762 0.16376 0.04000
H 	H 	0.67484 0.01458 0.24512 0.04300
H 	H 	0.72444 0.00709 0.30948 0.04200
C 	C 	0.98249 0.12856 0.66424 -0.09400
C 	C 	0.95924 0.13684 0.70358 0.01700
C 	C 	0.96309 0.17752 0.72466 -0.06800
C 	C 	0.98990 0.21060 0.70653 0.02500
C 	C 	0.01209 0.20291 0.66651 -0.06300
C 	C 	0.00850 0.16203 0.64551 0.02100
C 	C 	0.99750 0.25179 0.73137 -0.00500
C 	C 	0.04032 0.26275 0.74522 -0.03200
C 	C 	0.04663 0.29626 0.77616 -0.03600
C 	C 	0.01023 0.31885 0.79373 -0.00000
C 	C 	0.96782 0.31035 0.77735 -0.04000
C 	C 	0.96147 0.27709 0.74607 -0.03600
C 	C 	0.01543 0.34389 0.83376 0.04900
C 	C 	0.02069 0.36202 0.86876 -0.10900
H 	H 	0.93841 0.11166 0.71803 0.03100
H 	H 	0.94598 0.18299 0.75562 0.04500
H 	H 	0.03272 0.22828 0.65211 0.04700
H 	H 	0.02662 0.15615 0.61521 0.03400
H 	H 	0.06844 0.24376 0.73385 0.03800
H 	H 	0.07958 0.30287 0.78839 0.04100
H 	H 	0.93951 0.32791 0.79046 0.04200
H 	H 	0.92836 0.26957 0.73489 0.03900
C 	C 	0.99159 0.85056 0.64892 -0.10000
C 	C 	0.96482 0.84622 0.68648 0.02200
C 	C 	0.95813 0.80489 0.70552 -0.06800
C 	C 	0.97826 0.76745 0.68723 0.02600
C 	C 	0.00265 0.77136 0.64794 -0.06400
C 	C 	0.00920 0.81282 0.62876 0.02600
C 	C 	0.97879 0.72586 0.71250 -0.00200
C 	C 	0.01882 0.71000 0.72969 -0.03600
C 	C 	0.01861 0.67887 0.76374 -0.02700
C 	C 	0.97845 0.66344 0.78077 -0.01300
C 	C 	0.93871 0.67575 0.76050 -0.03100
C 	C 	0.93887 0.70674 0.72629 -0.04000
C 	C 	0.97759 0.64265 0.82349 0.04900
C 	C 	0.97717 0.62765 0.86035 -0.11100
H 	H 	0.95046 0.87510 0.70184 0.02700
H 	H 	0.93908 0.80225 0.73572 0.04600
H 	H 	0.01793 0.74260 0.63327 0.04900
H 	H 	0.02961 0.81578 0.59949 0.03200
H 	H 	0.04989 0.72402 0.71887 0.04100
H 	H 	0.04954 0.66900 0.77880 0.04000
H 	H 	0.90753 0.66343 0.77302 0.03900
H 	H 	0.90782 0.71799 0.71253 0.04000
C 	C 	0.02485 0.84620 0.38111 -0.08900
C 	C 	0.98231 0.82799 0.38011 0.01600
C 	C 	0.97372 0.79112 0.35379 -0.07300
C 	C 	0.00764 0.77235 0.32823 0.03800
C 	C 	0.05097 0.78808 0.33266 -0.07000
C 	C 	0.05953 0.82477 0.35905 0.02000
C 	C 	0.99690 0.74126 0.29227 -0.00900
C 	C 	0.01998 0.70125 0.28841 -0.03300
C 	C 	0.01553 0.67559 0.25029 -0.03000
C 	C 	0.98772 0.68957 0.21605 -0.00800
C 	C 	0.96296 0.72827 0.22085 -0.03300
C 	C 	0.96755 0.75406 0.25873 -0.03600
C 	C 	0.98694 0.66617 0.17467 0.04600
C 	C 	0.98575 0.64816 0.13922 -0.10300
H 	H 	0.95534 0.84408 0.39729 0.03400
H 	H 	0.94030 0.77867 0.35140 0.04800
H 	H 	0.07755 0.77359 0.31357 0.04900
H 	H 	0.09265 0.83818 0.36018 0.03100
H 	H 	0.04240 0.69079 0.31424 0.04000
H 	H 	0.03454 0.64551 0.24696 0.04100
H 	H 	0.94118 0.73913 0.19463 0.04000
H 	H 	0.94967 0.78489 0.26122 0.03800
C 	C 	0.99968 0.12316 0.35721 -0.10000
C 	C 	0.97240 0.13231 0.32092 0.02200
C 	C 	0.97545 0.17278 0.29926 -0.07500
C 	C 	0.00582 0.20449 0.31362 0.03500
C 	C 	0.03247 0.19579 0.35048 -0.07100
C 	C 	0.02929 0.15530 0.37232 0.02700
C 	C 	0.01192 0.24521 0.28792 0.00400
C 	C 	0.05054 0.25109 0.26295 -0.03900
C 	C 	0.05204 0.28332 0.23000 -0.03200
C 	C 	0.01499 0.30981 0.22191 -0.00300
C 	C 	0.97803 0.30679 0.24966 -0.03500
C 	C 	0.97651 0.27461 0.28265 -0.04200
C 	C 	0.01160 0.33333 0.18083 0.05200
C 	C 	0.00789 0.35092 0.14537 -0.10900
H 	H 	0.94895 0.10801 0.30940 0.03100
H 	H 	0.95485 0.17919 0.27073 0.04900
H 	H 	0.05603 0.22008 0.36176 0.04900
H 	H 	0.05046 0.14857 0.40035 0.03200
H 	H 	0.07831 0.22893 0.26718 0.04100
H 	H 	0.08097 0.28584 0.20902 0.04100
H 	H 	0.94946 0.32757 0.24398 0.04200
H 	H 	0.94685 0.27085 0.30236 0.04100
