data_crystal

_cell_length_a 27.92005
_cell_length_b 27.90431
_cell_length_c 26.66609
_cell_angle_alpha 95.51870
_cell_angle_beta  95.52025
_cell_angle_gamma 125.65341

_symmetry_space_group_name_	'P 1'
_symmetry_space_group_name_H-M	'P 1'

loop_
_symmetry_equiv_pos_as_xyz
  x,y,z

loop_
_atom_site_label
_atom_site_type_symbol
_atom_site_fract_x
_atom_site_fract_y
_atom_site_fract_z
_atom_site_charge
N 	N 	0.05997 0.09007 0.99798 -0.13900
C 	C 	0.08551 0.06117 0.99286 0.13400
N 	N 	0.98172 0.01258 0.43823 -0.13400
Cu	Cu	0.67116 0.27661 0.00637 0.92800
Cu	Cu	0.70593 0.26464 0.89414 0.87000
Cu	Cu	0.69959 0.36386 0.93270 0.89700
Cu	Cu	0.67983 0.39384 0.03801 0.89700
C 	C 	0.68281 0.32024 0.11201 0.29000
O 	O 	0.58480 0.24170 0.01037 -0.36700
C 	C 	0.66852 0.31075 0.82188 0.28800
O 	O 	0.72025 0.36895 0.00462 -0.63700
O 	O 	0.65672 0.27607 0.93211 -0.64300
O 	O 	0.70784 0.23297 0.00478 -0.36900
O 	O 	0.76722 0.28623 0.94934 -0.44300
O 	O 	0.68998 0.37017 0.10454 -0.38100
O 	O 	0.74624 0.45009 0.93829 -0.38100
C 	C 	0.74459 0.48577 0.97315 0.30400
C 	C 	0.56132 0.26910 0.99780 0.30200
O 	O 	0.59517 0.32327 0.98777 -0.39200
O 	O 	0.70555 0.46406 0.00421 -0.38800
O 	O 	0.69539 0.29225 0.07919 -0.36100
C 	C 	0.75522 0.25216 0.98381 0.30700
O 	O 	0.69203 0.35909 0.85757 -0.38400
O 	O 	0.66344 0.26308 0.83285 -0.41800
H 	H 	0.76400 0.39380 0.01790 0.16700
H 	H 	0.61391 0.25150 0.91539 0.17400
Cu	Cu	0.70582 0.31089 0.42778 0.92800
Cu	Cu	0.70683 0.26246 0.53501 0.87100
Cu	Cu	0.61291 0.27600 0.49639 0.89700
Cu	Cu	0.59447 0.31045 0.39721 0.89500
C 	C 	0.66357 0.30097 0.32158 0.29100
O 	O 	0.74105 0.39889 0.43029 -0.36200
C 	C 	0.65891 0.29751 0.60741 0.28800
O 	O 	0.61292 0.26223 0.42453 -0.64100
O 	O 	0.70110 0.31770 0.50138 -0.64100
O 	O 	0.74857 0.27321 0.42811 -0.37300
O 	O 	0.68839 0.20657 0.47623 -0.44200
O 	O 	0.63524 0.32315 0.33664 -0.38100
O 	O 	0.52652 0.23109 0.48667 -0.38200
C 	C 	0.49313 0.23533 0.45150 0.30900
C 	C 	0.71573 0.42180 0.45035 0.30200
O 	O 	0.66044 0.38604 0.45761 -0.39400
O 	O 	0.51700 0.27568 0.42161 -0.39300
O 	O 	0.69430 0.29153 0.35475 -0.36100
C 	C 	0.72606 0.22250 0.44455 0.30900
O 	O 	0.61228 0.27617 0.57050 -0.38400
O 	O 	0.70569 0.29979 0.59816 -0.41500
H 	H 	0.58691 0.21944 0.40753 0.16600
H 	H 	0.72596 0.35918 0.52144 0.17400
C 	C 	0.65814 0.31432 0.76750 -0.07800
C 	C 	0.70391 0.36315 0.74859 -0.02600
C 	C 	0.70191 0.36061 0.69567 0.03800
C 	C 	0.65398 0.30849 0.66120 -0.07800
C 	C 	0.60498 0.26279 0.67997 -0.02500
C 	C 	0.60661 0.26566 0.73290 0.03700
S 	S 	0.75917 0.42313 0.67304 -0.05300
S 	S 	0.54354 0.20888 0.75531 -0.04800
H 	H 	0.54837 0.16353 0.76118 0.03500
H 	H 	0.74302 0.46014 0.66540 0.03800
H 	H 	0.74245 0.40192 0.77503 0.04600
H 	H 	0.56678 0.22373 0.65350 0.04600
C 	C 	0.67062 0.29808 0.26758 -0.07300
C 	C 	0.61927 0.26100 0.22898 -0.02200
C 	C 	0.62315 0.26555 0.17745 0.03300
C 	C 	0.67912 0.30707 0.16415 -0.07000
C 	C 	0.73101 0.34143 0.20234 -0.02000
C 	C 	0.72709 0.33774 0.25397 0.03900
S 	S 	0.55736 0.22050 0.13021 -0.04300
S 	S 	0.79263 0.38561 0.30122 -0.03000
H 	H 	0.81793 0.35694 0.31147 0.04400
H 	H 	0.54961 0.16863 0.11092 0.04400
H 	H 	0.57590 0.23014 0.23923 0.03600
H 	H 	0.77419 0.37303 0.19210 0.04600
C 	C 	0.78747 0.59859 0.45609 -0.00900
C 	C 	0.78489 0.67295 0.41826 -0.04300
C 	C 	0.76153 0.61298 0.41851 -0.02800
C 	C 	0.76415 0.53686 0.45546 0.04700
C 	C 	0.74318 0.48466 0.45384 -0.11000
H 	H 	0.76523 0.68377 0.38857 0.04500
H 	H 	0.72368 0.57780 0.38923 0.03900
C 	C 	0.79130 0.12545 0.42172 -0.01100
C 	C 	0.75668 0.06573 0.42890 -0.03000
C 	C 	0.78118 0.03399 0.42901 -0.03900
C 	C 	0.76852 0.16021 0.42764 0.04800
C 	C 	0.74933 0.18900 0.43428 -0.12000
H 	H 	0.71131 0.04434 0.43555 0.03900
C 	C 	0.31428 0.14518 0.45152 -0.00900
C 	C 	0.28054 0.15514 0.41776 -0.02800
C 	C 	0.21911 0.12460 0.41708 -0.04400
C 	C 	0.19121 0.08404 0.45017 0.01900
C 	C 	0.22503 0.07436 0.48416 -0.04400
C 	C 	0.28646 0.10489 0.48485 -0.02800
C 	C 	0.37740 0.17634 0.45193 0.04800
C 	C 	0.43025 0.20289 0.45194 -0.10700
C 	C 	0.12760 0.05092 0.44817 0.00200
C 	C 	0.07426 0.02243 0.44643 -0.03100
H 	H 	0.30181 0.18633 0.39197 0.04000
H 	H 	0.19322 0.13222 0.39065 0.04600
H 	H 	0.20371 0.04298 0.50980 0.04600
H 	H 	0.31230 0.09708 0.51111 0.04100
C 	C 	0.92133 0.75922 0.95817 -0.04400
C 	C 	0.89066 0.69754 0.95630 -0.02900
C 	C 	0.83248 0.66308 0.96688 -0.00800
C 	C 	0.80467 0.69032 0.97848 -0.02900
C 	C 	0.80226 0.60036 0.96808 0.04600
C 	C 	0.77640 0.54796 0.96991 -0.10600
H 	H 	0.91241 0.67677 0.94727 0.03900
H 	H 	0.75965 0.66391 0.98667 0.04000
C 	C 	0.82874 0.13263 0.02028 -0.02600
C 	C 	0.85414 0.18895 0.00666 -0.01000
C 	C 	0.91201 0.22128 0.99519 -0.03100
C 	C 	0.94367 0.19671 0.99600 -0.04900
C 	C 	0.81913 0.21141 0.00045 0.05500
C 	C 	0.78983 0.23003 0.99379 -0.12500
H 	H 	0.78403 0.10734 0.02918 0.04100
H 	H 	0.93194 0.26484 0.98459 0.03700
C 	C 	0.26456 0.14811 0.99588 0.01300
C 	C 	0.28772 0.16194 0.95072 -0.04300
C 	C 	0.34748 0.18456 0.95052 -0.02800
C 	C 	0.38428 0.19328 0.99543 -0.01300
C 	C 	0.36126 0.17989 0.04068 -0.02500
C 	C 	0.30152 0.15731 0.04089 -0.04000
C 	C 	0.20177 0.11994 0.99501 0.00500
C 	C 	0.14887 0.09447 0.99415 -0.03900
C 	C 	0.44630 0.21828 0.99565 0.04800
C 	C 	0.49857 0.24047 0.99629 -0.11300
H 	H 	0.25932 0.15459 0.91569 0.04500
H 	H 	0.36510 0.19521 0.91548 0.04000
H 	H 	0.38956 0.18690 0.07564 0.04000
H 	H 	0.28383 0.14636 0.07587 0.04500
C 	C 	0.99996 0.05800 0.99703 0.13000
C 	C 	0.83617 0.64435 0.49398 -0.02800
C 	C 	0.85952 0.70435 0.49374 -0.04300
C 	C 	0.83422 0.71881 0.45563 0.01700
H 	H 	0.85628 0.63357 0.52329 0.03900
H 	H 	0.89781 0.73958 0.52266 0.04500
C 	C 	0.84040 0.06183 0.42191 0.01600
C 	C 	0.87444 0.12097 0.41327 -0.04300
C 	C 	0.84996 0.15272 0.41321 -0.02900
C 	C 	0.86742 0.03103 0.42632 0.00300
C 	C 	0.89125 0.00648 0.43055 -0.03100
H 	H 	0.92021 0.14274 0.40762 0.04600
H 	H 	0.87703 0.19886 0.40768 0.04000
C 	C 	0.83534 0.75201 0.98037 -0.04400
C 	C 	0.91763 0.13970 0.00831 0.02300
C 	C 	0.86042 0.10807 0.02113 -0.04500
C 	C 	0.94802 0.11218 0.00496 0.00200
C 	C 	0.97242 0.08813 0.00158 -0.03100
H 	H 	0.84003 0.06402 0.03079 0.04700
H 	H 	0.98791 0.22149 0.98614 0.04500
C 	C 	0.86191 0.78077 0.45249 0.00500
H 	H 	0.81387 0.77291 0.99001 0.04400
N 	N 	0.05117 0.00049 0.98679 -0.13900
H 	H 	0.96661 0.78576 0.95056 0.04400
C 	C 	0.01071 0.98733 0.44437 0.12400
H 	H 	0.75453 0.98825 0.43559 0.04000
C 	C 	0.89392 0.78665 0.97066 0.01600
N 	N 	0.97956 0.92870 0.44831 -0.13900
C 	C 	0.99136 0.96851 0.98580 0.13000
N 	N 	0.96570 0.99721 0.99095 -0.14200
C 	C 	0.92149 0.97914 0.43603 0.12500
N 	N 	0.89023 0.92031 0.44000 -0.13900
C 	C 	0.91941 0.89514 0.44615 0.13200
C 	C 	0.88685 0.83285 0.44962 -0.03800
C 	C 	0.92689 0.85067 0.97562 0.00400
C 	C 	0.95557 0.90442 0.98014 -0.03900
