data_crystal

_cell_length_a 25.31277
_cell_length_b 22.35751
_cell_length_c 47.60277
_cell_angle_alpha 90.55417
_cell_angle_beta  90.65669
_cell_angle_gamma 112.78239

_symmetry_space_group_name_	'P 1'
_symmetry_space_group_name_H-M	'P 1'

loop_
_symmetry_equiv_pos_as_xyz
  x,y,z

loop_
_atom_site_label
_atom_site_type_symbol
_atom_site_fract_x
_atom_site_fract_y
_atom_site_fract_z
_atom_site_charge
C 	C 	0.02516 0.98301 0.73832 -0.05400
H 	H 	0.02450 0.97950 0.71496 0.03900
C 	C 	0.02789 0.99193 0.79424 -0.04900
H 	H 	0.02934 0.99621 0.81756 0.04100
C 	C 	0.08537 0.00987 0.75171 0.00800
C 	C 	0.08684 0.01399 0.78054 0.00100
C 	C 	0.10107 0.35893 0.23712 -0.05400
C 	C 	0.08898 0.29713 0.22540 0.03000
C 	C 	0.10506 0.29115 0.19777 -0.05400
C 	C 	0.05970 0.23882 0.24219 -0.05800
H 	H 	0.08901 0.36393 0.25852 0.04300
H 	H 	0.09656 0.24364 0.18867 0.04100
H 	H 	0.08012 0.23235 0.26147 0.04500
C 	C 	0.08091 0.98271 0.22529 0.02700
C 	C 	0.10436 0.88692 0.22617 -0.03500
C 	C 	0.06890 0.91891 0.23412 -0.04900
C 	C 	0.04925 0.02055 0.23693 -0.05100
H 	H 	0.03340 0.89499 0.24791 0.04300
H 	H 	0.07322 0.06992 0.24445 0.04200
C 	C 	0.04726 0.27819 0.33355 0.02800
C 	C 	0.04631 0.37877 0.35271 -0.03500
C 	C 	0.01726 0.31735 0.34051 -0.05000
C 	C 	0.01672 0.21281 0.32135 -0.05300
H 	H 	0.02266 0.40822 0.35851 0.03700
H 	H 	0.02322 0.17208 0.33081 0.04100
C 	C 	0.10169 0.97549 0.30335 -0.05000
C 	C 	0.04481 0.93523 0.30953 0.02800
C 	C 	0.03349 0.87567 0.32257 -0.05000
C 	C 	0.07852 0.85709 0.32994 -0.03500
H 	H 	0.06934 0.81186 0.34078 0.04100
H 	H 	0.03272 0.04923 0.31339 0.03800
C 	C 	0.03049 0.57949 0.48446 0.04600
C 	C 	0.02712 0.57264 0.45507 -0.07500
C 	C 	0.07530 0.60514 0.43880 0.01900
C 	C 	0.08198 0.62132 0.49735 -0.07600
H 	H 	0.07282 0.59695 0.41627 0.03700
H 	H 	0.08577 0.62608 0.52002 0.04600
C 	C 	0.07911 0.57621 0.09129 0.02000
C 	C 	0.03101 0.54518 0.07401 -0.07600
C 	C 	0.03533 0.55185 0.04479 0.04700
C 	C 	0.08694 0.59354 0.03309 -0.07700
H 	H 	0.07601 0.56839 0.11374 0.03700
H 	H 	0.09001 0.60115 0.01062 0.04700
C 	C 	0.00496 0.19411 0.23415 -0.03600
H 	H 	0.09607 0.83886 0.23402 0.03700
C 	C 	0.10568 0.40189 0.35760 0.00100
C 	C 	0.12708 0.41436 0.22094 -0.03300
C 	C 	0.12787 0.01339 0.20800 -0.05200
H 	H 	0.13788 0.06271 0.20131 0.03900
C 	C 	0.13499 0.62455 0.05032 0.01900
O 	O 	0.20655 0.74123 0.35361 -0.37800
O 	O 	0.22790 0.66604 0.44843 -0.42200
O 	O 	0.18046 0.68037 0.40879 -0.37500
O 	O 	0.21315 0.57083 0.40519 -0.40800
C 	C 	0.22501 0.80024 0.34332 0.29100
C 	C 	0.21205 0.57187 0.37765 0.32400
C 	C 	0.18106 0.66600 0.43585 0.29300
O 	O 	0.18252 0.65663 0.12311 -0.37800
O 	O 	0.20265 0.74378 0.17205 -0.37600
C 	C 	0.18435 0.63756 0.09673 0.29300
C 	C 	0.21751 0.80606 0.17797 0.29100
C 	C 	0.14284 0.40841 0.19312 0.00100
C 	C 	0.13181 0.34649 0.18171 -0.03400
C 	C 	0.16474 0.46560 0.17466 0.01100
C 	C 	0.20465 0.52275 0.18366 -0.14900
H 	H 	0.13352 0.46154 0.22977 0.03800
H 	H 	0.14331 0.34123 0.16024 0.03500
H 	H 	0.15047 0.45956 0.15279 0.03800
H 	H 	0.21903 0.52954 0.20548 0.07200
C 	C 	0.16292 0.98122 0.19985 -0.03500
C 	C 	0.15164 0.91807 0.20900 0.00100
C 	C 	0.19299 0.88792 0.20278 0.00600
C 	C 	0.17580 0.82768 0.19165 -0.15000
H 	H 	0.19958 0.00587 0.18680 0.03400
H 	H 	0.13060 0.79616 0.19097 0.07900
C 	C 	0.10655 0.30112 0.33856 -0.05200
C 	C 	0.13573 0.36284 0.35042 -0.03500
C 	C 	0.13517 0.46415 0.37272 0.01200
C 	C 	0.18109 0.51120 0.36179 -0.15100
H 	H 	0.13000 0.27114 0.33326 0.03900
H 	H 	0.18141 0.37976 0.35456 0.03800
H 	H 	0.11807 0.47234 0.39259 0.03700
H 	H 	0.19495 0.50542 0.34077 0.07400
C 	C 	0.13532 0.89733 0.32373 0.00200
C 	C 	0.14663 0.95673 0.31058 -0.03600
C 	C 	0.18351 0.88054 0.33338 0.00500
C 	C 	0.18294 0.82076 0.32907 -0.14900
H 	H 	0.19027 0.98827 0.30585 0.03300
H 	H 	0.11099 0.02063 0.29244 0.04100
H 	H 	0.21955 0.91740 0.34433 0.03400
H 	H 	0.14768 0.78471 0.31733 0.07400
C 	C 	0.12744 0.64457 0.45182 -0.09100
C 	C 	0.12980 0.65445 0.48107 0.01700
H 	H 	0.16955 0.68542 0.49135 0.02800
C 	C 	0.23770 0.10190 0.72704 0.02800
C 	C 	0.18208 0.08649 0.74100 -0.05200
C 	C 	0.13491 0.02850 0.73524 -0.04200
H 	H 	0.23314 0.00309 0.72647 0.03900
H 	H 	0.17727 0.12241 0.75516 0.04500
H 	H 	0.13357 0.00209 0.71579 0.03900
C 	C 	0.13174 0.61455 0.07942 -0.09300
H 	H 	0.17508 0.65524 0.04101 0.02600
C 	C 	0.23111 0.09257 0.81762 0.02900
C 	C 	0.17021 0.07639 0.80983 -0.05500
C 	C 	0.13830 0.01985 0.79714 -0.03600
H 	H 	0.22943 0.15257 0.85318 0.04000
H 	H 	0.15266 0.11345 0.81240 0.04200
H 	H 	0.15344 0.98058 0.79616 0.03800
O 	O 	0.22919 0.56414 0.13705 -0.40500
C 	C 	0.22945 0.57695 0.16404 0.32000
O 	O 	0.23120 0.63381 0.08619 -0.42100
O 	O 	0.23024 0.62704 0.36426 -0.39900
O 	O 	0.24219 0.63667 0.17315 -0.39900
H 	H 	0.23849 0.91831 0.20402 0.01400
H 	H 	0.25683 0.20477 0.72593 0.04100
C 	C 	0.25587 0.13605 0.84001 -0.05200
H 	H 	0.24822 0.03931 0.78294 0.04200
Ni	Ni	0.25212 0.71589 0.38372 1.09900
Ni	Ni	0.25317 0.71296 0.14699 1.09900
O 	O 	0.26197 0.84976 0.16559 -0.41700
C 	C 	0.27256 0.16684 0.72191 -0.05100
C 	C 	0.25893 0.05328 0.72191 -0.05100
C 	C 	0.26627 0.07201 0.80058 -0.05000
O 	O 	0.27485 0.84500 0.35178 -0.41700
Ni	Ni	0.28035 0.62920 0.42987 1.07200
Ni	Ni	0.29130 0.61756 0.10966 1.07100
C 	C 	0.31446 0.06973 0.71183 -0.03700
C 	C 	0.31493 0.15934 0.84514 -0.03400
H 	H 	0.03144 0.47812 0.99989 0.04200
O 	O 	0.31284 0.71048 0.40962 -0.70000
H 	H 	0.31408 0.71797 0.34048 0.15400
H 	H 	0.32016 0.74717 0.19093 0.15200
C 	C 	0.32793 0.18322 0.71178 -0.03400
C 	C 	0.32528 0.09524 0.80579 -0.03500
O 	O 	0.32172 0.74395 0.35813 -0.70600
H 	H 	0.32287 0.74641 0.42354 0.15500
O 	O 	0.31622 0.70623 0.12387 -0.70200
O 	O 	0.32389 0.76301 0.17141 -0.70500
H 	H 	0.33042 0.03194 0.70797 0.03300
H 	H 	0.33350 0.19267 0.86260 0.04200
H 	H 	0.32146 0.73469 0.10749 0.15400
H 	H 	0.33154 0.56074 0.46213 -0.01900
O 	O 	0.33754 0.59606 0.41134 -0.42000
H 	H 	0.34243 0.90344 0.44166 0.02500
H 	H 	0.33807 0.90991 0.08098 0.03000
Ni	Ni	0.34598 0.85645 0.17094 1.06300
C 	C 	0.34957 0.13485 0.70717 0.00200
H 	H 	0.35385 0.23345 0.70733 0.04200
C 	C 	0.34996 0.13986 0.82774 0.00100
H 	H 	0.35194 0.07946 0.79244 0.03300
O 	O 	0.35197 0.86285 0.12840 -0.41800
H 	H 	0.00329 0.72133 0.71465 0.04200
Ni	Ni	0.35418 0.83587 0.35004 1.06200
O 	O 	0.35673 0.60352 0.13143 -0.42000
H 	H 	0.35974 0.53631 0.08849 -0.00300
O 	O 	0.36460 0.86464 0.39132 -0.41500
H 	H 	0.36986 0.54326 0.50754 0.04500
H 	H 	0.37734 0.97265 0.48396 0.04600
C 	C 	0.37741 0.57563 0.46494 0.01900
H 	H 	0.37521 0.97561 0.03900 0.04600
Ni	Ni	0.37825 0.72531 0.38206 1.10100
C 	C 	0.38097 0.91845 0.07405 0.01500
Ni	Ni	0.38432 0.74347 0.15139 1.10000
C 	C 	0.38697 0.91879 0.44813 0.01600
C 	C 	0.39217 0.62597 0.41772 0.28300
C 	C 	0.39449 0.85637 0.11502 0.29000
C 	C 	0.39912 0.56562 0.49072 -0.08400
C 	C 	0.40328 0.85665 0.40771 0.28900
C 	C 	0.40684 0.95837 0.47202 -0.07700
H 	H 	0.40565 0.45284 0.58041 0.04800
C 	C 	0.40726 0.15166 0.69524 0.00800
C 	C 	0.40205 0.95583 0.05027 -0.07700
C 	C 	0.40534 0.56135 0.08535 0.01200
H 	H 	0.40472 0.50384 0.04880 0.04400
C 	C 	0.41213 0.16351 0.83343 0.00800
C 	C 	0.41008 0.63819 0.12477 0.27700
H 	H 	0.41206 0.12414 0.67719 0.03700
H 	H 	0.41489 0.11180 0.54858 0.04700
C 	C 	0.41486 0.60748 0.44335 -0.11200
C 	C 	0.41526 0.89235 0.08885 -0.09400
O 	O 	0.42082 0.68293 0.40675 -0.37400
O 	O 	0.42174 0.82230 0.12591 -0.37400
H 	H 	0.42401 0.47977 0.52624 0.04200
H 	H 	0.42531 0.26188 0.82920 0.07600
O 	O 	0.42483 0.81341 0.40132 -0.37500
C 	C 	0.42422 0.89811 0.43295 -0.09600
H 	H 	0.42938 0.13217 0.98428 0.04700
C 	C 	0.43071 0.54335 0.06261 -0.08100
H 	H 	0.43135 0.12841 0.83718 0.02900
O 	O 	0.43301 0.70002 0.13209 -0.37500
O 	O 	0.43288 0.88263 0.17593 -0.41400
H 	H 	0.43375 0.46968 0.96689 0.04600
C 	C 	0.43834 0.61296 0.10331 -0.10500
O 	O 	0.43940 0.84859 0.34708 -0.41300
O 	O 	0.44050 0.74650 0.35297 -0.39000
C 	C 	0.44419 0.22746 0.83499 -0.14900
C 	C 	0.99975 0.01299 0.30056 -0.03800
C 	C 	0.99660 0.95165 0.29947 -0.05300
C 	C 	0.98546 0.51591 0.02657 -0.05400
H 	H 	0.99087 0.51440 0.08326 0.04600
H 	H 	0.94420 0.51765 0.03141 0.04200
C 	C 	0.99191 0.99496 0.23861 -0.03900
Ni	Ni	0.71602 0.35244 0.88357 1.09900
O 	O 	0.64102 0.31511 0.86102 -0.70800
Ni	Ni	0.59065 0.34449 0.88453 1.10000
O 	O 	0.75510 0.31345 0.85537 -0.37700
O 	O 	0.68627 0.21132 0.86119 -0.41700
O 	O 	0.73425 0.43236 0.85877 -0.39700
Ni	Ni	0.60726 0.22112 0.85935 1.06200
O 	O 	0.75637 0.42841 0.94567 -0.41700
O 	O 	0.60583 0.21072 0.90196 -0.41700
O 	O 	0.52206 0.31295 0.85789 -0.39000
O 	O 	0.66179 0.36867 0.90991 -0.70400
O 	O 	0.79165 0.39731 0.90573 -0.37800
O 	O 	0.55403 0.39639 0.90756 -0.37500
O 	O 	0.63770 0.48547 0.90788 -0.42000
Ni	Ni	0.69919 0.45642 0.92528 1.07100
H 	H 	0.64444 0.33332 0.84193 0.15400
H 	H 	0.65490 0.33822 0.92567 0.15300
C 	C 	0.56916 0.22374 0.91755 0.29000
O 	O 	0.75876 0.50314 0.89594 -0.40400
C 	C 	0.73374 0.25079 0.84922 0.28900
C 	C 	0.50162 0.25233 0.84836 0.29600
C 	C 	0.75044 0.49178 0.86884 0.31800
C 	C 	0.58398 0.45687 0.91549 0.27700
C 	C 	0.79464 0.41067 0.93307 0.29000
O 	O 	0.54769 0.26566 0.90918 -0.37400
O 	O 	0.52245 0.20985 0.85802 -0.41300
Ni	Ni	0.58042 0.33043 0.65157 1.10200
O 	O 	0.64502 0.36203 0.62296 -0.70100
Ni	Ni	0.70812 0.34916 0.64421 1.09900
O 	O 	0.53456 0.37987 0.63453 -0.37500
O 	O 	0.61569 0.47086 0.63554 -0.42000
O 	O 	0.53628 0.25154 0.62582 -0.37400
Ni	Ni	0.67403 0.45181 0.61070 1.07200
O 	O 	0.52560 0.19224 0.67574 -0.41400
O 	O 	0.74214 0.50136 0.63720 -0.40600
O 	O 	0.77775 0.39994 0.61953 -0.37700
O 	O 	0.63980 0.30537 0.66984 -0.70300
O 	O 	0.51943 0.29200 0.68084 -0.38900
O 	O 	0.75798 0.31568 0.66834 -0.37600
O 	O 	0.69284 0.21054 0.66442 -0.41700
Ni	Ni	0.61117 0.21126 0.66973 1.06300
H 	H 	0.63568 0.33371 0.60601 0.15600
H 	H 	0.64738 0.32266 0.68935 0.15300
C 	C 	0.74627 0.48660 0.66353 0.32900
O 	O 	0.60084 0.20300 0.62726 -0.41800
C 	C 	0.56096 0.44184 0.62910 0.28200
C 	C 	0.77461 0.42376 0.59430 0.29100
C 	C 	0.55997 0.21455 0.61413 0.28800
C 	C 	0.74006 0.25446 0.67577 0.29300
C 	C 	0.50480 0.23128 0.68873 0.29500
O 	O 	0.72670 0.42613 0.67147 -0.40500
O 	O 	0.72744 0.42992 0.58514 -0.42100
C 	C 	0.99737 0.02750 0.75040 0.00700
C 	C 	0.99463 0.91847 0.75325 0.00500
C 	C 	0.99857 0.03189 0.77938 0.00100
C 	C 	0.99537 0.92307 0.78225 0.00500
C 	C 	0.46009 0.80356 0.34066 0.29600
O 	O 	0.44846 0.78798 0.17972 -0.38800
C 	C 	0.45843 0.84791 0.18849 0.29200
C 	C 	0.93791 0.07431 0.23863 -0.05100
H 	H 	0.93860 0.07118 0.21530 0.04000
C 	C 	0.93640 0.08106 0.29453 -0.05100
H 	H 	0.93493 0.08280 0.31784 0.04200
C 	C 	0.96177 0.02991 0.25397 0.00400
C 	C 	0.97303 0.14180 0.25137 0.00300
C 	C 	0.87826 0.05686 0.25107 0.00700
C 	C 	0.96151 0.03357 0.28281 0.00400
C 	C 	0.97188 0.14566 0.28030 0.00700
C 	C 	0.87737 0.05958 0.27993 0.00400
H 	H 	0.98950 0.19545 0.21287 0.03700
C 	C 	0.72399 0.00554 0.22766 0.02900
C 	C 	0.67707 0.99666 0.24490 -0.05100
C 	C 	0.62269 0.95136 0.23736 -0.03400
C 	C 	0.61431 0.91633 0.21190 0.00200
C 	C 	0.66081 0.92715 0.19413 -0.03500
C 	C 	0.71522 0.97227 0.20173 -0.05100
C 	C 	0.55697 0.86852 0.20348 0.00800
C 	C 	0.51044 0.88327 0.20541 -0.14500
C 	C 	0.78219 0.04826 0.23741 -0.05200
C 	C 	0.82858 0.02939 0.23424 -0.03900
H 	H 	0.68320 0.02288 0.26473 0.04200
H 	H 	0.58738 0.94267 0.25154 0.03400
H 	H 	0.65463 0.90115 0.17424 0.03800
H 	H 	0.75033 0.98156 0.18740 0.04000
H 	H 	0.55418 0.82508 0.19200 0.04200
H 	H 	0.51380 0.92794 0.21598 0.06300
H 	H 	0.78716 0.08999 0.25071 0.04300
H 	H 	0.82841 0.99724 0.21698 0.03700
H 	H 	0.96719 0.94735 0.22955 0.03700
C 	C 	0.61487 0.90430 0.32049 0.00200
C 	C 	0.65696 0.95312 0.33649 -0.03600
C 	C 	0.71487 0.97336 0.32968 -0.05100
C 	C 	0.73125 0.94604 0.30631 0.02800
C 	C 	0.68946 0.89542 0.29099 -0.05000
C 	C 	0.63147 0.87541 0.29769 -0.03500
C 	C 	0.79190 0.97073 0.29733 -0.05200
C 	C 	0.82361 0.03483 0.29617 -0.03700
C 	C 	0.55336 0.88613 0.32709 0.00500
C 	C 	0.51626 0.82364 0.32679 -0.14400
H 	H 	0.64479 0.97539 0.35425 0.03700
H 	H 	0.74687 0.01035 0.34251 0.04000
H 	H 	0.70159 0.87370 0.27304 0.04200
H 	H 	0.59950 0.83909 0.28459 0.03600
H 	H 	0.80821 0.93673 0.28809 0.04400
H 	H 	0.80768 0.06953 0.30493 0.03600
H 	H 	0.54003 0.92352 0.33533 0.03500
H 	H 	0.53028 0.78599 0.31960 0.07400
C 	C 	0.98935 0.20511 0.29510 -0.04300
H 	H 	0.97139 0.29986 0.33684 0.04000
H 	H 	0.98821 0.24762 0.28462 0.04200
H 	H 	0.98981 0.84384 0.32706 0.03900
H 	H 	0.95983 0.91402 0.28933 0.04200
C 	C 	0.53898 0.18353 0.58654 -0.09600
C 	C 	0.48078 0.16335 0.57900 0.02000
C 	C 	0.46006 0.12833 0.55397 -0.07800
C 	C 	0.49721 0.11277 0.53646 0.04600
C 	C 	0.55589 0.13581 0.54329 -0.07700
C 	C 	0.57662 0.17077 0.56826 0.01700
C 	C 	0.47447 0.07206 0.51106 -0.05400
C 	C 	0.48555 0.01866 0.50644 -0.05400
C 	C 	0.46444 0.97851 0.48072 0.04500
C 	C 	0.50142 0.95708 0.46579 -0.07800
C 	C 	0.48150 0.91724 0.44197 0.02000
H 	H 	0.45133 0.17321 0.59284 0.03700
H 	H 	0.58530 0.12602 0.52940 0.04700
H 	H 	0.62187 0.18749 0.57351 0.02500
H 	H 	0.44691 0.08452 0.49660 0.04200
H 	H 	0.51309 0.00643 0.52102 0.04200
H 	H 	0.54570 0.97159 0.47257 0.04700
H 	H 	0.51070 0.90175 0.43040 0.03700
C 	C 	0.82602 0.44838 0.57677 -0.09100
C 	C 	0.87962 0.48569 0.58899 0.01900
C 	C 	0.92601 0.52002 0.57198 -0.07600
C 	C 	0.91944 0.51680 0.54262 0.04500
C 	C 	0.86642 0.47735 0.53039 -0.07600
C 	C 	0.82016 0.44288 0.54737 0.01700
C 	C 	0.96640 0.55981 0.52502 -0.05300
C 	C 	0.98221 0.53717 0.50163 -0.05400
H 	H 	0.88466 0.49063 0.61164 0.03600
H 	H 	0.96668 0.55038 0.58164 0.04600
H 	H 	0.86042 0.47522 0.50778 0.04600
H 	H 	0.77913 0.41385 0.53768 0.02700
H 	H 	0.98941 0.60990 0.53179 0.04100
H 	H 	0.95875 0.48720 0.49477 0.04100
H 	H 	0.98769 0.54053 0.44488 0.04500
C 	C 	0.47422 0.62729 0.44759 0.02800
C 	C 	0.49592 0.61678 0.47338 -0.08200
C 	C 	0.45847 0.58588 0.49502 0.04900
C 	C 	0.48176 0.57705 0.52249 -0.05500
C 	C 	0.46085 0.51939 0.53526 -0.05500
C 	C 	0.48699 0.50845 0.56157 0.04900
C 	C 	0.45185 0.46989 0.58248 -0.08200
C 	C 	0.47615 0.45141 0.60562 0.02800
C 	C 	0.53585 0.47112 0.60798 -0.11100
C 	C 	0.57108 0.51252 0.58778 0.02000
C 	C 	0.54682 0.53024 0.56451 -0.08400
H 	H 	0.50355 0.65167 0.43108 0.03300
H 	H 	0.54182 0.63280 0.47657 0.04800
H 	H 	0.51816 0.61699 0.53162 0.04100
H 	H 	0.44854 0.42014 0.62125 0.03300
H 	H 	0.61723 0.52806 0.58928 -0.02000
H 	H 	0.57447 0.55853 0.54819 0.04400
C 	C 	0.83317 0.16236 0.69641 0.00100
C 	C 	0.82023 0.09773 0.70366 -0.03700
C 	C 	0.86183 0.08016 0.71653 -0.05200
C 	C 	0.91716 0.12714 0.72200 0.02900
C 	C 	0.93031 0.19165 0.71437 -0.05200
C 	C 	0.88879 0.20909 0.70129 -0.03400
C 	C 	0.96038 0.10987 0.73718 -0.05200
C 	C 	0.96303 0.04899 0.73316 -0.04100
C 	C 	0.78890 0.18028 0.68268 0.00700
C 	C 	0.78012 0.23312 0.69111 -0.15200
H 	H 	0.77762 0.06126 0.69975 0.03200
H 	H 	0.85057 0.03044 0.72294 0.03800
H 	H 	0.97279 0.22823 0.71846 0.04000
H 	H 	0.89988 0.25879 0.69488 0.04000
H 	H 	0.99149 0.14580 0.75094 0.04300
H 	H 	0.94339 0.02084 0.71435 0.03700
H 	H 	0.76237 0.14913 0.66599 0.03400
H 	H 	0.80606 0.26370 0.70809 0.07200
C 	C 	0.45266 0.20237 0.70542 -0.14700
H 	H 	0.44810 0.22854 0.72399 0.06700
C 	C 	0.86352 0.63676 0.69583 -0.00000
C 	C 	0.83814 0.67056 0.71228 -0.03300
C 	C 	0.87224 0.72280 0.72929 -0.05200
C 	C 	0.93202 0.74221 0.72975 0.03000
C 	C 	0.95720 0.70695 0.71422 -0.05400
C 	C 	0.92312 0.65482 0.69707 -0.03300
C 	C 	0.96835 0.80218 0.74474 -0.05400
C 	C 	0.96486 0.86120 0.73774 -0.04000
C 	C 	0.82853 0.58606 0.67560 0.01500
C 	C 	0.78031 0.53765 0.68362 -0.15400
H 	H 	0.79223 0.65752 0.71128 0.03700
H 	H 	0.85236 0.74928 0.74153 0.04200
H 	H 	0.94309 0.62905 0.68445 0.03600
H 	H 	0.99927 0.80061 0.76044 0.04300
H 	H 	0.94444 0.86454 0.71794 0.03800
H 	H 	0.84382 0.58658 0.65431 0.03600
H 	H 	0.76790 0.53359 0.70552 0.07500
C 	C 	0.99024 0.48014 0.00464 -0.05500
C 	C 	0.94180 0.44988 0.98485 0.04700
C 	C 	0.94845 0.46554 0.95632 -0.07700
C 	C 	0.90037 0.44794 0.93853 0.02100
C 	C 	0.84547 0.41432 0.94923 -0.09200
C 	C 	0.83960 0.39287 0.97705 0.01900
C 	C 	0.88765 0.41032 0.99479 -0.07700
H 	H 	0.99040 0.49454 0.94832 0.04700
H 	H 	0.90548 0.46380 0.91694 0.03700
H 	H 	0.79752 0.36522 0.98527 0.02400
H 	H 	0.88247 0.39571 0.01655 0.04700
C 	C 	0.47016 0.90240 0.07898 0.01800
C 	C 	0.49106 0.93961 0.05513 -0.07700
C 	C 	0.45769 0.96772 0.04109 0.04500
C 	C 	0.48087 0.00861 0.01646 -0.05300
C 	C 	0.48072 0.06853 0.01506 -0.05400
C 	C 	0.50428 0.10967 0.99054 0.04600
C 	C 	0.47174 0.13944 0.97691 -0.07700
C 	C 	0.49320 0.17748 0.95334 0.01900
C 	C 	0.54780 0.18666 0.94335 -0.09600
C 	C 	0.58119 0.15867 0.95763 0.01600
C 	C 	0.55962 0.12057 0.98118 -0.07700
H 	H 	0.49704 0.88231 0.09001 0.03900
H 	H 	0.53366 0.94763 0.04789 0.04600
H 	H 	0.50098 0.99098 0.00007 0.04100
H 	H 	0.46054 0.08610 0.03145 0.04200
H 	H 	0.46697 0.19883 0.94258 0.03800
H 	H 	0.62384 0.16648 0.95054 0.02800
H 	H 	0.58590 0.09958 0.99215 0.04600
C 	C 	0.49760 0.64405 0.09903 0.02300
C 	C 	0.52295 0.62580 0.07629 -0.08000
C 	C 	0.48930 0.57679 0.05751 0.04600
C 	C 	0.51589 0.55952 0.03288 -0.05500
C 	C 	0.49356 0.55698 0.00689 -0.05400
C 	C 	0.51697 0.53452 0.98246 0.04500
C 	C 	0.47958 0.48846 0.96365 -0.07900
C 	C 	0.50126 0.46519 0.94102 0.02200
C 	C 	0.56067 0.48805 0.93688 -0.10200
C 	C 	0.59790 0.53684 0.95487 0.01300
C 	C 	0.57613 0.56013 0.97747 -0.07900
H 	H 	0.52385 0.68300 0.11301 0.03500
H 	H 	0.56850 0.65073 0.07294 0.04700
H 	H 	0.55453 0.55003 0.03597 0.04000
H 	H 	0.45504 0.56683 0.00393 0.04000
H 	H 	0.47190 0.42863 0.92699 0.03600
H 	H 	0.64377 0.55558 0.95181 0.00300
H 	H 	0.60526 0.59769 0.99118 0.04400
C 	C 	0.87668 0.07448 0.80819 0.02800
C 	C 	0.83217 0.08211 0.79278 -0.05200
C 	C 	0.80129 0.11604 0.80447 -0.03500
C 	C 	0.81362 0.14117 0.83199 0.00100
C 	C 	0.85734 0.13244 0.84763 -0.03500
C 	C 	0.88894 0.09951 0.83577 -0.05100
C 	C 	0.77647 0.16968 0.84565 0.00500
C 	C 	0.77084 0.22272 0.83532 -0.14600
C 	C 	0.90884 0.03811 0.79564 -0.05200
C 	C 	0.96644 0.06344 0.79559 -0.03600
H 	H 	0.82104 0.06111 0.77190 0.04100
H 	H 	0.76672 0.12115 0.79244 0.03100
H 	H 	0.86643 0.15055 0.86908 0.03700
H 	H 	0.92215 0.09243 0.84817 0.04000
H 	H 	0.75548 0.14870 0.86506 0.03500
H 	H 	0.79576 0.24713 0.81736 0.07100
H 	H 	0.88538 0.99358 0.78384 0.04200
H 	H 	0.99027 0.10819 0.80710 0.03700
C 	C 	0.87227 0.77702 0.80999 0.02800
C 	C 	0.89488 0.72913 0.81320 -0.05000
C 	C 	0.86455 0.67266 0.82795 -0.03400
C 	C 	0.81100 0.66320 0.83937 0.00100
C 	C 	0.78805 0.71061 0.83574 -0.03500
C 	C 	0.81824 0.76690 0.82081 -0.05200
C 	C 	0.78165 0.60716 0.85759 0.01200
C 	C 	0.77345 0.54644 0.84935 -0.15200
C 	C 	0.90396 0.83655 0.79427 -0.05200
C 	C 	0.96237 0.87238 0.79981 -0.04000
H 	H 	0.93594 0.73569 0.80433 0.04200
H 	H 	0.88318 0.63693 0.83098 0.04000
H 	H 	0.74699 0.70402 0.84464 0.03500
H 	H 	0.80005 0.80311 0.81806 0.03900
H 	H 	0.76596 0.61562 0.87779 0.03100
H 	H 	0.78443 0.53724 0.82818 0.07800
H 	H 	0.88131 0.85296 0.77855 0.04200
H 	H 	0.98062 0.86669 0.81988 0.03800
