data_crystal

_cell_length_a 18.49985
_cell_length_b 18.80232
_cell_length_c 34.65792
_cell_angle_alpha 95.41544
_cell_angle_beta  95.41593
_cell_angle_gamma 126.38475

_symmetry_space_group_name_	'P 1'
_symmetry_space_group_name_H-M	'P 1'

loop_
_symmetry_equiv_pos_as_xyz
  x,y,z

loop_
_atom_site_label
_atom_site_type_symbol
_atom_site_fract_x
_atom_site_fract_y
_atom_site_fract_z
_atom_site_charge
C 	C 	0.91081 0.99652 0.97173 0.22800
N 	N 	0.00062 0.04767 0.96940 -0.12800
C 	C 	0.04649 0.01231 0.97067 0.16400
N 	N 	0.00246 0.92514 0.97407 -0.07100
C 	C 	0.91237 0.87282 0.97612 0.17000
N 	N 	0.86621 0.90868 0.97523 -0.09400
C 	C 	0.94451 0.02945 0.48955 0.11500
N 	N 	0.89843 0.94275 0.49437 -0.08600
C 	C 	0.94006 0.90296 0.49440 0.16400
N 	N 	0.02813 0.94993 0.48958 -0.06600
C 	C 	0.07470 0.03638 0.48443 0.15900
N 	N 	0.03293 0.07645 0.48448 -0.08300
Cu	Cu	0.75270 0.33837 0.96077 0.92900
Cu	Cu	0.72816 0.25735 0.04399 0.89300
Cu	Cu	0.60843 0.30941 0.00612 0.91700
Cu	Cu	0.58094 0.32825 0.92259 0.91400
C 	C 	0.70191 0.31819 0.87638 0.33300
O 	O 	0.80145 0.47009 0.96237 -0.31200
C 	C 	0.62901 0.30101 0.08639 0.33400
O 	O 	0.60985 0.26716 0.95275 -0.63400
O 	O 	0.73457 0.34614 0.01611 -0.63200
O 	O 	0.81287 0.27633 0.96220 -0.29400
O 	O 	0.82865 0.27166 0.02774 -0.38300
O 	O 	0.66230 0.35601 0.88383 -0.35600
O 	O 	0.48874 0.28285 0.99733 -0.33100
C 	C 	0.42819 0.23774 0.96430 0.34100
C 	C 	0.75351 0.49925 0.97080 0.32700
O 	O 	0.66552 0.44157 0.97071 -0.38200
O 	O 	0.45284 0.25219 0.92978 -0.36400
O 	O 	0.74985 0.31330 0.90516 -0.31800
C 	C 	0.82116 0.23935 0.99121 0.31000
O 	O 	0.61690 0.34320 0.06163 -0.33200
O 	O 	0.63430 0.23670 0.07302 -0.39600
H 	H 	0.56976 0.20084 0.94473 0.17400
H 	H 	0.77842 0.40795 0.03169 0.20500
Cu	Cu	0.61577 0.20519 0.50305 0.93700
Cu	Cu	0.72316 0.26084 0.42930 0.88600
Cu	Cu	0.65459 0.35050 0.45839 0.90400
Cu	Cu	0.63094 0.37470 0.54194 0.92300
C 	C 	0.63667 0.25125 0.58710 0.33100
O 	O 	0.48376 0.16036 0.50069 -0.33400
C 	C 	0.64517 0.31468 0.37303 0.33100
O 	O 	0.69303 0.34608 0.51199 -0.63500
O 	O 	0.61328 0.22563 0.44864 -0.64000
O 	O 	0.66944 0.14016 0.49616 -0.31800
O 	O 	0.78820 0.25707 0.47386 -0.41700
O 	O 	0.60009 0.29221 0.58003 -0.34300
O 	O 	0.68559 0.47010 0.46818 -0.33200
C 	C 	0.72905 0.52788 0.50187 0.34300
C 	C 	0.45652 0.20891 0.49163 0.32900
O 	O 	0.51676 0.29586 0.49307 -0.35700
O 	O 	0.71034 0.50141 0.53582 -0.36000
O 	O 	0.64044 0.20378 0.55798 -0.32900
C 	C 	0.75163 0.18223 0.48756 0.34800
O 	O 	0.62576 0.34775 0.40225 -0.33900
O 	O 	0.68036 0.27164 0.37900 -0.37700
H 	H 	0.76008 0.38333 0.52086 0.18500
H 	H 	0.55471 0.18316 0.42976 0.20400
C 	C 	0.71407 0.30457 0.83553 -0.10400
C 	C 	0.75061 0.37573 0.81443 0.12800
C 	C 	0.74110 0.35789 0.77321 0.06800
C 	C 	0.70326 0.27054 0.75356 0.02000
C 	C 	0.67920 0.20249 0.77553 0.07100
C 	C 	0.68186 0.21863 0.81636 0.12600
C 	C 	0.68189 0.24868 0.70978 0.01900
C 	C 	0.59328 0.21082 0.68966 0.06700
C 	C 	0.57613 0.20137 0.64841 0.12800
C 	C 	0.64910 0.23755 0.62770 -0.10600
C 	C 	0.73613 0.26928 0.64731 0.12400
C 	C 	0.75171 0.27231 0.68822 0.07000
Br	Br	0.64114 0.08709 0.74946 -0.11700
Br	Br	0.81802 0.49801 0.84225 -0.12600
Br	Br	0.45237 0.13533 0.62001 -0.12400
Br	Br	0.86878 0.31047 0.71497 -0.11700
Br	Br	0.63794 0.12234 0.84559 -0.14700
Br	Br	0.77553 0.45184 0.74346 -0.12300
Br	Br	0.49676 0.17643 0.71883 -0.12500
Br	Br	0.83463 0.31196 0.61850 -0.16200
C 	C 	0.62786 0.31913 0.12861 -0.11100
C 	C 	0.54961 0.30379 0.14063 0.12800
C 	C 	0.54634 0.31343 0.18109 0.07000
C 	C 	0.61745 0.33047 0.20928 0.02000
C 	C 	0.69611 0.34717 0.19729 0.06800
C 	C 	0.70280 0.34528 0.15719 0.12600
C 	C 	0.60746 0.32573 0.25116 0.02000
C 	C 	0.65291 0.40544 0.27944 0.07000
C 	C 	0.66158 0.40227 0.31995 0.12200
C 	C 	0.61955 0.31860 0.33206 -0.10400
C 	C 	0.56242 0.23850 0.30375 0.12600
C 	C 	0.55963 0.24192 0.26333 0.06800
Br	Br	0.79310 0.36915 0.23566 -0.13400
Br	Br	0.44455 0.26330 0.10182 -0.10900
Br	Br	0.73493 0.51245 0.35851 -0.11100
Br	Br	0.49468 0.13223 0.22474 -0.12800
Br	Br	0.81560 0.38113 0.14142 -0.20000
Br	Br	0.44448 0.30279 0.19802 -0.10500
Br	Br	0.70514 0.51876 0.26252 -0.10900
Br	Br	0.48616 0.12456 0.32049 -0.15600
C 	C 	0.89865 0.75109 0.47335 -0.11700
C 	C 	0.88839 0.80770 0.49748 -0.04300
C 	C 	0.82787 0.77257 0.52412 0.32200
C 	C 	0.77649 0.68124 0.52578 -0.06000
C 	C 	0.78557 0.62440 0.50112 -0.12800
C 	C 	0.84789 0.65997 0.47530 0.37000
F 	F 	0.86031 0.60647 0.45258 -0.43200
H 	H 	0.94543 0.77761 0.45283 0.13700
H 	H 	0.72889 0.65443 0.54595 0.11900
F 	F 	0.81972 0.82712 0.54871 -0.39800
C 	C 	0.89248 0.19530 0.50763 -0.04100
C 	C 	0.79964 0.14196 0.48997 -0.15100
C 	C 	0.75554 0.05276 0.47131 0.38600
C 	C 	0.80398 0.01747 0.47012 -0.17700
C 	C 	0.89676 0.07042 0.48801 -0.00900
C 	C 	0.94083 0.15967 0.50691 0.26900
F 	F 	0.02962 0.21111 0.52538 -0.37200
H 	H 	0.92711 0.26432 0.52202 0.10100
H 	H 	0.76937 0.94880 0.45524 0.16800
F 	F 	0.66645 0.00110 0.45323 -0.43500
C 	C 	0.23691 0.17237 0.50470 -0.11900
C 	C 	0.17157 0.08744 0.48085 -0.02700
C 	C 	0.20056 0.04586 0.45806 0.28400
C 	C 	0.29375 0.08620 0.46123 -0.04900
C 	C 	0.35882 0.16905 0.48652 -0.12900
C 	C 	0.33010 0.21298 0.50767 0.37500
F 	F 	0.39229 0.29298 0.53252 -0.42700
H 	H 	0.21545 0.20501 0.52239 0.14700
H 	H 	0.31530 0.05275 0.44421 0.10100
F 	F 	0.13826 0.96552 0.43345 -0.36700
C 	C 	0.91040 0.75262 0.00230 -0.09300
C 	C 	0.86520 0.77702 0.97855 -0.04800
C 	C 	0.78262 0.70946 0.95271 0.33000
C 	C 	0.74716 0.61908 0.94999 -0.06300
C 	C 	0.79386 0.59512 0.97286 -0.11500
C 	C 	0.87530 0.66225 0.99928 0.35200
F 	F 	0.91994 0.64005 0.02235 -0.41800
H 	H 	0.97393 0.80402 0.02249 0.12200
H 	H 	0.68394 0.56766 0.92964 0.10500
F 	F 	0.73869 0.73147 0.92902 -0.39700
C 	C 	0.81607 0.11200 0.01127 -0.07700
C 	C 	0.83102 0.16658 0.98312 -0.12600
C 	C 	0.85534 0.15118 0.94770 0.35400
C 	C 	0.87068 0.08670 0.94202 -0.09600
C 	C 	0.86369 0.03805 0.97173 -0.09800
C 	C 	0.83247 0.04827 0.00565 0.33600
F 	F 	0.82372 0.00073 0.03437 -0.42400
H 	H 	0.79373 0.12033 0.03798 0.08900
H 	H 	0.89357 0.07845 0.91547 0.11400
F 	F 	0.86785 0.20090 0.91949 -0.40800
C 	C 	0.27170 0.09535 0.94157 -0.05300
C 	C 	0.33070 0.18041 0.96603 -0.13500
C 	C 	0.29607 0.20994 0.99211 0.37400
C 	C 	0.20326 0.15436 0.99385 -0.12300
C 	C 	0.14429 0.06914 0.96948 -0.03600
C 	C 	0.17885 0.03978 0.94329 0.28600
F 	F 	0.12212 0.95826 0.91893 -0.36300
H 	H 	0.29796 0.07220 0.92134 0.09700
H 	H 	0.17703 0.17753 0.01408 0.13900
F 	F 	0.35190 0.29329 0.01503 -0.39900
