data_crystal

_cell_length_a 26.23676
_cell_length_b 26.48916
_cell_length_c 26.61143
_cell_angle_alpha 95.48227
_cell_angle_beta  95.48238
_cell_angle_gamma 125.84998

_symmetry_space_group_name_	'P 1'
_symmetry_space_group_name_H-M	'P 1'

loop_
_symmetry_equiv_pos_as_xyz
  x,y,z

loop_
_atom_site_label
_atom_site_type_symbol
_atom_site_fract_x
_atom_site_fract_y
_atom_site_fract_z
_atom_site_charge
C 	C 	0.97412 0.03496 0.99232 0.16000
C 	C 	0.93792 0.96935 0.99062 -0.12700
C 	C 	0.96603 0.93822 0.98398 0.15900
C 	C 	0.03040 0.97271 0.97907 -0.12300
C 	C 	0.06682 0.03826 0.98089 0.15300
C 	C 	0.03873 0.06946 0.98763 -0.10800
H 	H 	0.88797 0.94257 0.99412 0.10300
H 	H 	0.05227 0.94868 0.97430 0.10400
H 	H 	0.06693 0.12023 0.98917 0.12100
C 	C 	0.93260 0.00130 0.44932 0.13600
C 	C 	0.99915 0.03655 0.45322 -0.08100
C 	C 	0.02870 0.00643 0.45588 0.11800
C 	C 	0.99149 0.94088 0.45453 -0.07500
C 	C 	0.92518 0.90564 0.45158 0.13300
C 	C 	0.89558 0.93575 0.44858 -0.10300
H 	H 	0.02782 0.08726 0.45424 0.09500
H 	H 	0.01413 0.91734 0.45598 0.10300
H 	H 	0.84422 0.90847 0.44607 0.10300
Cu	Cu	0.64353 0.24464 0.00467 0.93700
Cu	Cu	0.69894 0.24717 0.89865 0.88800
Cu	Cu	0.68951 0.34872 0.94077 0.90400
Cu	Cu	0.64938 0.36475 0.03885 0.90700
C 	C 	0.65567 0.28829 0.11137 0.30800
O 	O 	0.55054 0.21093 0.99988 -0.31600
C 	C 	0.67269 0.30757 0.82872 0.31000
O 	O 	0.69978 0.34385 0.01194 -0.63800
O 	O 	0.64085 0.25462 0.93193 -0.63600
O 	O 	0.67978 0.19618 0.00295 -0.31700
O 	O 	0.75500 0.26147 0.95800 -0.42300
O 	O 	0.63047 0.31667 0.09652 -0.35500
O 	O 	0.74079 0.44020 0.95443 -0.34500
C 	C 	0.73232 0.47469 0.98675 0.34300
C 	C 	0.52961 0.24078 0.98021 0.33200
O 	O 	0.57088 0.29992 0.97540 -0.38700
O 	O 	0.69190 0.44974 0.01893 -0.36900
O 	O 	0.65986 0.25141 0.07772 -0.33800
C 	C 	0.73467 0.21943 0.98806 0.32900
O 	O 	0.69424 0.35456 0.86757 -0.36400
O 	O 	0.66389 0.25470 0.83617 -0.39600
H 	H 	0.74479 0.36934 0.03020 0.18800
H 	H 	0.59744 0.23075 0.91076 0.19900
Cu	Cu	0.72859 0.33624 0.43479 0.93300
Cu	Cu	0.73884 0.29609 0.54602 0.88600
Cu	Cu	0.63102 0.29841 0.50553 0.90300
Cu	Cu	0.60200 0.32231 0.40258 0.91700
C 	C 	0.67318 0.30875 0.32798 0.30800
O 	O 	0.75885 0.42633 0.43242 -0.34100
C 	C 	0.68166 0.32493 0.61760 0.30500
O 	O 	0.62932 0.27916 0.43373 -0.63800
O 	O 	0.72550 0.34770 0.50876 -0.63600
O 	O 	0.77959 0.30243 0.43791 -0.32700
O 	O 	0.72042 0.23468 0.48985 -0.42700
O 	O 	0.64391 0.33351 0.34148 -0.34900
O 	O 	0.53867 0.24557 0.49783 -0.36700
C 	C 	0.49897 0.24337 0.46155 0.35200
C 	C 	0.72818 0.44749 0.45017 0.32900
O 	O 	0.67051 0.40725 0.45950 -0.35200
O 	O 	0.51969 0.28189 0.42805 -0.34800
O 	O 	0.71535 0.31135 0.36182 -0.33700
C 	C 	0.75906 0.25088 0.45680 0.33900
O 	O 	0.63280 0.30483 0.58053 -0.36700
O 	O 	0.73530 0.33645 0.60731 -0.38800
H 	H 	0.60399 0.23333 0.41925 0.18700
H 	H 	0.75004 0.39228 0.52674 0.18900
C 	C 	0.66879 0.31853 0.77569 -0.09300
C 	C 	0.72140 0.37268 0.76207 -0.05400
C 	C 	0.72383 0.37752 0.71025 0.17700
C 	C 	0.67340 0.32779 0.67160 -0.09600
C 	C 	0.61819 0.27660 0.68546 -0.05300
C 	C 	0.61600 0.27145 0.73724 0.17600
H 	H 	0.76176 0.40972 0.79150 0.08300
O 	O 	0.77668 0.42959 0.69742 -0.26700
H 	H 	0.57830 0.23903 0.65599 0.07900
O 	O 	0.56206 0.22071 0.75023 -0.26400
H 	H 	0.56775 0.18674 0.74812 0.16600
H 	H 	0.76681 0.46033 0.69572 0.16700
C 	C 	0.66176 0.28327 0.16575 -0.08700
C 	C 	0.72188 0.32298 0.19823 -0.05100
C 	C 	0.72671 0.32792 0.25167 0.18200
C 	C 	0.67086 0.29316 0.27281 -0.08500
C 	C 	0.61128 0.25008 0.24003 -0.05200
C 	C 	0.60660 0.24478 0.18667 0.18400
H 	H 	0.76462 0.35219 0.18225 0.07600
O 	O 	0.78540 0.37024 0.28315 -0.25700
H 	H 	0.56820 0.22253 0.25599 0.07800
O 	O 	0.54761 0.20479 0.15516 -0.26000
H 	H 	0.54112 0.16389 0.14662 0.17800
H 	H 	0.80260 0.34594 0.28857 0.18100
C 	C 	0.85615 0.75265 0.49997 -0.11500
C 	C 	0.83235 0.70932 0.45369 0.00500
C 	C 	0.83423 0.72982 0.40666 0.31300
C 	C 	0.86149 0.79358 0.40606 -0.09200
C 	C 	0.88714 0.83729 0.45234 -0.07100
C 	C 	0.88351 0.81643 0.49935 0.34600
C 	C 	0.80567 0.64257 0.45449 0.02300
F 	F 	0.81104 0.68826 0.36162 -0.40700
H 	H 	0.86440 0.80940 0.36965 0.11100
F 	F 	0.90813 0.85833 0.54437 -0.40000
H 	H 	0.85419 0.73704 0.53639 0.13200
C 	C 	0.84638 0.62598 0.46825 0.29400
C 	C 	0.82095 0.56234 0.46742 -0.05200
C 	C 	0.75469 0.51480 0.45289 -0.13600
C 	C 	0.71400 0.53165 0.43933 0.37500
C 	C 	0.73949 0.59525 0.44039 -0.13600
F 	F 	0.91059 0.67143 0.48178 -0.40400
H 	H 	0.85274 0.55000 0.47802 0.10300
F 	F 	0.65004 0.48629 0.42356 -0.43500
H 	H 	0.70785 0.60772 0.42963 0.13500
C 	C 	0.86980 0.20609 0.43946 -0.14600
C 	C 	0.82772 0.14010 0.43575 0.02400
C 	C 	0.76203 0.11019 0.43304 0.30000
C 	C 	0.73912 0.14635 0.43658 -0.05400
C 	C 	0.78162 0.21273 0.44312 -0.14500
C 	C 	0.84695 0.24236 0.44308 0.37400
C 	C 	0.85319 0.10322 0.43925 0.00400
F 	F 	0.72075 0.04633 0.42898 -0.39900
H 	H 	0.68856 0.12294 0.43588 0.10000
F 	F 	0.88876 0.30644 0.44931 -0.42700
H 	H 	0.92052 0.22944 0.44116 0.13000
C 	C 	0.84455 0.06286 0.39558 0.32200
C 	C 	0.86881 0.02801 0.39929 -0.08800
C 	C 	0.90196 0.03339 0.44654 -0.07400
C 	C 	0.90979 0.07309 0.49032 0.34500
C 	C 	0.88551 0.10785 0.48663 -0.12500
F 	F 	0.81335 0.05798 0.34953 -0.39600
H 	H 	0.86284 0.99770 0.36530 0.10800
F 	F 	0.94143 0.07837 0.53630 -0.40800
H 	H 	0.89188 0.13848 0.52056 0.12200
C 	C 	0.32013 0.12103 0.42538 -0.13400
C 	C 	0.29965 0.14082 0.46433 0.02400
C 	C 	0.34516 0.19226 0.50399 0.29100
C 	C 	0.41049 0.22414 0.50410 -0.04500
C 	C 	0.43082 0.20555 0.46428 -0.14000
C 	C 	0.38546 0.15363 0.42507 0.37900
C 	C 	0.23062 0.10827 0.46306 0.00400
F 	F 	0.32603 0.21225 0.54166 -0.40300
H 	H 	0.44531 0.26437 0.53438 0.10300
F 	F 	0.40470 0.13507 0.38650 -0.43500
H 	H 	0.28536 0.08089 0.39502 0.13700
C 	C 	0.19309 0.10894 0.42213 0.31200
C 	C 	0.12733 0.07624 0.42017 -0.09500
C 	C 	0.09864 0.04338 0.45939 -0.06600
C 	C 	0.13651 0.04419 0.50104 0.34200
C 	C 	0.20206 0.07594 0.50253 -0.11200
F 	F 	0.22041 0.14132 0.38435 -0.40800
H 	H 	0.09853 0.07596 0.38796 0.10800
F 	F 	0.10974 0.01426 0.54004 -0.40300
H 	H 	0.23070 0.07535 0.53429 0.13600
C 	C 	0.87828 0.76291 0.93711 -0.12700
C 	C 	0.86263 0.73961 0.98275 0.00400
C 	C 	0.87952 0.78145 0.02853 0.32300
C 	C 	0.91217 0.84619 0.02860 -0.08600
C 	C 	0.92841 0.86959 0.98307 -0.08600
C 	C 	0.91102 0.82767 0.93720 0.34600
C 	C 	0.82891 0.67151 0.98262 0.02200
F 	F 	0.86493 0.75942 0.07297 -0.39900
H 	H 	0.92564 0.87832 0.06415 0.11200
F 	F 	0.92603 0.84978 0.89284 -0.41700
H 	H 	0.86514 0.73082 0.90163 0.12400
C 	C 	0.76407 0.63321 0.98664 0.30400
C 	C 	0.73261 0.56890 0.98773 -0.05300
C 	C 	0.76556 0.54222 0.98459 -0.13700
C 	C 	0.83037 0.58051 0.98006 0.37700
C 	C 	0.86181 0.64489 0.97905 -0.14500
F 	F 	0.73159 0.65836 0.98940 -0.39800
H 	H 	0.68249 0.53967 0.99072 0.10600
F 	F 	0.86324 0.55573 0.97797 -0.43000
H 	H 	0.91192 0.67427 0.97602 0.12700
C 	C 	0.90168 0.11913 0.96155 -0.12400
C 	C 	0.87880 0.12119 0.00667 0.01300
C 	C 	0.88936 0.09699 0.04782 0.31100
C 	C 	0.92188 0.07019 0.04352 -0.08000
C 	C 	0.94390 0.06725 0.99807 -0.08300
C 	C 	0.93402 0.09221 0.95718 0.34900
C 	C 	0.84232 0.14712 0.01004 0.01900
F 	F 	0.86783 0.09915 0.09178 -0.40100
H 	H 	0.92942 0.05114 0.07526 0.11300
F 	F 	0.95440 0.08898 0.91280 -0.41500
H 	H 	0.89360 0.13765 0.92963 0.12700
C 	C 	0.87388 0.21273 0.01576 0.29700
C 	C 	0.83851 0.23659 0.01167 -0.05800
C 	C 	0.77130 0.19513 0.00169 -0.13400
C 	C 	0.73982 0.12968 0.99885 0.36400
C 	C 	0.77531 0.10590 0.00302 -0.12800
F 	F 	0.93879 0.25316 0.02374 -0.40200
H 	H 	0.86329 0.28720 0.01477 0.10300
F 	F 	0.67489 0.08884 0.98926 -0.42200
H 	H 	0.75067 0.05521 0.99894 0.13100
C 	C 	0.24668 0.13869 0.01758 -0.11400
C 	C 	0.26327 0.13102 0.97035 0.00400
C 	C 	0.21549 0.09604 0.92599 0.31400
C 	C 	0.15146 0.06771 0.92917 -0.08600
C 	C 	0.13474 0.07423 0.97661 -0.08000
C 	C 	0.18269 0.11049 0.02073 0.34600
C 	C 	0.33054 0.15880 0.96774 0.02400
F 	F 	0.23110 0.08915 0.87994 -0.40200
H 	H 	0.11467 0.03977 0.89497 0.12400
F 	F 	0.16703 0.11686 0.06687 -0.41900
H 	H 	0.28333 0.16575 0.05195 0.13100
C 	C 	0.37629 0.22481 0.97534 0.29300
C 	C 	0.44094 0.25133 0.97762 -0.05400
C 	C 	0.46061 0.21212 0.97226 -0.13700
C 	C 	0.41428 0.14582 0.96230 0.37600
C 	C 	0.34960 0.11941 0.96036 -0.13600
F 	F 	0.35817 0.26332 0.98141 -0.40400
H 	H 	0.47595 0.30244 0.98494 0.09800
F 	F 	0.43183 0.10703 0.95442 -0.42300
H 	H 	0.31438 0.06834 0.95388 0.13600
