data_crystal

_cell_length_a 21.05126
_cell_length_b 19.85266
_cell_length_c 38.86012
_cell_angle_alpha 90.68510
_cell_angle_beta  90.77916
_cell_angle_gamma 113.41299

_symmetry_space_group_name_	'P 1'
_symmetry_space_group_name_H-M	'P 1'

loop_
_symmetry_equiv_pos_as_xyz
  x,y,z

loop_
_atom_site_label
_atom_site_type_symbol
_atom_site_fract_x
_atom_site_fract_y
_atom_site_fract_z
_atom_site_charge
O 	O 	0.67591 0.33306 0.89937 -0.70200
Ni	Ni	0.58747 0.33667 0.91660 1.09900
Ni	Ni	0.66186 0.23060 0.89259 1.06400
O 	O 	0.63166 0.20576 0.94203 -0.42200
O 	O 	0.52937 0.29243 0.87375 -0.36900
O 	O 	0.51048 0.36700 0.93482 -0.37100
O 	O 	0.58881 0.48435 0.94309 -0.41500
H 	H 	0.69002 0.36041 0.87772 0.15500
C 	C 	0.56915 0.19475 0.95156 0.30500
C 	C 	0.53905 0.23907 0.85719 0.25000
C 	C 	0.52478 0.43587 0.94342 0.28700
O 	O 	0.53806 0.23627 0.94007 -0.36800
O 	O 	0.56263 0.19590 0.87399 -0.40500
Ni	Ni	0.63965 0.24869 0.57717 1.09900
O 	O 	0.56583 0.24783 0.61156 -0.38300
O 	O 	0.53796 0.19507 0.50767 -0.41500
O 	O 	0.62954 0.31845 0.54286 -0.70400
O 	O 	0.57210 0.15015 0.55626 -0.37600
O 	O 	0.62570 0.46871 0.54236 -0.37300
O 	O 	0.52240 0.37524 0.55337 -0.42300
Ni	Ni	0.53121 0.28387 0.53099 1.07000
H 	H 	0.65566 0.31708 0.52206 0.16100
O 	O 	0.48003 0.21826 0.57056 -0.38900
C 	C 	0.50039 0.22961 0.60295 0.27200
C 	C 	0.55768 0.44109 0.54143 0.29100
C 	C 	0.54614 0.14121 0.52446 0.30600
C 	C 	0.03604 0.98390 0.73108 -0.03100
H 	H 	0.02503 0.97228 0.70306 0.04000
C 	C 	0.06289 0.01036 0.79826 -0.01900
H 	H 	0.07508 0.02160 0.82620 0.03300
C 	C 	0.01573 0.91545 0.75311 -0.02400
C 	C 	0.11208 0.02722 0.74035 -0.01700
C 	C 	0.02874 0.92826 0.78773 -0.02800
C 	C 	0.12614 0.04111 0.77484 -0.02300
Ni	Ni	0.20785 0.68876 0.40086 1.09700
O 	O 	0.29256 0.71995 0.36967 -0.70000
Ni	Ni	0.35761 0.68888 0.39762 1.09600
O 	O 	0.15560 0.73371 0.36984 -0.35800
O 	O 	0.24674 0.84388 0.36803 -0.40500
O 	O 	0.15945 0.59533 0.37110 -0.36500
Ni	Ni	0.33736 0.82698 0.36572 1.06400
O 	O 	0.12500 0.53725 0.43227 -0.40700
O 	O 	0.34026 0.83950 0.41774 -0.42600
O 	O 	0.43805 0.72319 0.36403 -0.36700
O 	O 	0.27321 0.65858 0.42911 -0.70000
O 	O 	0.12610 0.65286 0.43353 -0.38100
O 	O 	0.40941 0.64077 0.42701 -0.36300
O 	O 	0.31752 0.53301 0.43544 -0.41000
Ni	Ni	0.22695 0.55104 0.43342 1.06400
H 	H 	0.28244 0.69572 0.34666 0.15000
H 	H 	0.28381 0.68390 0.45188 0.15300
C 	C 	0.38832 0.83112 0.43635 0.31100
O 	O 	0.22667 0.53204 0.38194 -0.40800
C 	C 	0.18794 0.79699 0.35502 0.25300
C 	C 	0.45698 0.78801 0.34967 0.25100
C 	C 	0.19104 0.55408 0.36029 0.25600
C 	C 	0.37796 0.58233 0.44557 0.29400
C 	C 	0.10119 0.58488 0.44453 0.29700
O 	O 	0.41170 0.78115 0.42776 -0.36900
O 	O 	0.43808 0.83837 0.36318 -0.40200
Ni	Ni	0.36771 0.72347 0.04858 1.10100
O 	O 	0.28006 0.73568 0.03487 -0.70800
Ni	Ni	0.24053 0.73887 0.08122 1.10100
O 	O 	0.37733 0.68213 0.00142 -0.37900
O 	O 	0.26838 0.59192 0.00165 -0.40600
O 	O 	0.42667 0.82813 0.03171 -0.37100
Ni	Ni	0.21318 0.65961 0.00553 1.07000
O 	O 	0.48810 0.82988 0.09336 -0.40000
O 	O 	0.14809 0.59009 0.04041 -0.39000
O 	O 	0.14312 0.73106 0.06759 -0.37700
O 	O 	0.33473 0.74037 0.09449 -0.70900
O 	O 	0.45535 0.71686 0.06626 -0.37900
O 	O 	0.22577 0.76188 0.13117 -0.37100
O 	O 	0.32496 0.86830 0.13470 -0.39900
Ni	Ni	0.39878 0.83537 0.11209 1.06400
H 	H 	0.29102 0.78350 0.02380 0.16100
H 	H 	0.33181 0.70086 0.11050 0.15700
C 	C 	0.16865 0.57542 0.07030 0.26700
O 	O 	0.38782 0.89027 0.07011 -0.42000
C 	C 	0.33348 0.61625 0.99184 0.27400
C 	C 	0.11663 0.71654 0.03594 0.32100
C 	C 	0.41667 0.88724 0.04086 0.30500
C 	C 	0.26228 0.82641 0.14567 0.24900
C 	C 	0.49921 0.76965 0.08598 0.25400
O 	O 	0.20350 0.62874 0.09230 -0.37700
O 	O 	0.15584 0.72070 0.00910 -0.41900
C 	C 	0.12241 0.40555 0.11376 0.08400
C 	C 	0.12890 0.37217 0.14450 -0.09600
C 	C 	0.06819 0.33125 0.16199 0.03500
C 	C 	0.00336 0.32327 0.14933 0.05500
C 	C 	0.99684 0.35557 0.11825 -0.06200
C 	C 	0.05749 0.39544 0.10036 -0.00200
N 	N 	0.17088 0.46927 0.10292 -0.15400
C 	C 	0.13727 0.49954 0.08249 0.00200
C 	C 	0.06685 0.45566 0.08029 -0.03600
C 	C 	0.98750 0.22823 0.17999 0.08900
C 	C 	0.05833 0.27006 0.18138 -0.09800
H 	H 	0.17924 0.37875 0.15465 0.05400
H 	H 	0.02701 0.47568 0.07445 0.05100
H 	H 	0.09752 0.24928 0.18739 0.05400
H 	H 	0.21813 0.49869 0.11565 0.08100
C 	C 	0.73650 0.91078 0.09446 -0.08200
C 	C 	0.68316 0.84142 0.08915 0.01100
C 	C 	0.66436 0.78993 0.11533 0.07700
N 	N 	0.59560 0.74999 0.11393 -0.15500
C 	C 	0.57044 0.77547 0.08731 0.00700
C 	C 	0.62319 0.83119 0.07104 -0.04300
H 	H 	0.74236 0.95525 0.07718 0.05300
H 	H 	0.61567 0.87375 0.05645 0.05500
H 	H 	0.56637 0.72420 0.13515 0.07300
C 	C 	0.05356 0.93129 0.17167 0.07000
C 	C 	0.06592 0.86995 0.18204 -0.07900
C 	C 	0.13497 0.87798 0.18633 0.01200
C 	C 	0.18969 0.94484 0.18071 0.07200
C 	C 	0.17707 0.00641 0.17088 -0.08700
C 	C 	0.10819 0.99761 0.16531 0.02400
C 	C 	0.01540 0.01635 0.18028 0.07700
C 	C 	0.08400 0.05222 0.17074 -0.08700
N 	N 	0.24562 0.93365 0.17041 -0.15400
C 	C 	0.22696 0.86006 0.16861 0.00100
C 	C 	0.15841 0.82363 0.17850 -0.04900
H 	H 	0.02340 0.81802 0.18673 0.05300
H 	H 	0.21951 0.05864 0.16659 0.05100
H 	H 	0.11657 0.10835 0.17815 0.04900
H 	H 	0.12502 0.76841 0.17014 0.05700
H 	H 	0.28548 0.97136 0.15618 0.08700
C 	C 	0.57119 0.86452 0.27782 0.00600
C 	C 	0.60118 0.82222 0.29436 0.07700
C 	C 	0.67276 0.84017 0.29213 -0.08900
N 	N 	0.56291 0.78805 0.32144 -0.15100
C 	C 	0.50902 0.80881 0.32232 0.00100
C 	C 	0.51252 0.85681 0.29590 -0.05700
H 	H 	0.69877 0.81577 0.30901 0.05600
H 	H 	0.48826 0.89577 0.29607 0.03000
H 	H 	0.58154 0.76878 0.34258 0.09500
C 	C 	0.10986 0.46271 0.28317 0.07700
C 	C 	0.04358 0.41703 0.27048 -0.08700
C 	C 	0.03425 0.34758 0.25760 0.02100
C 	C 	0.08475 0.32027 0.26203 0.07200
C 	C 	0.14844 0.36264 0.27787 -0.08300
C 	C 	0.16204 0.43622 0.28596 0.01000
N 	N 	0.12013 0.51610 0.30689 -0.15200
C 	C 	0.17781 0.52354 0.32508 -0.00500
C 	C 	0.20545 0.47524 0.31266 -0.05000
N 	N 	0.05629 0.24663 0.26201 -0.17200
H 	H 	0.18380 0.33808 0.28586 0.05100
H 	H 	0.23737 0.45486 0.32785 0.05000
H 	H 	0.08071 0.53016 0.31642 0.09600
H 	H 	0.08356 0.21355 0.25735 0.08100
C 	C 	0.07995 0.87574 0.32045 0.08100
C 	C 	0.01664 0.87608 0.30915 -0.09500
C 	C 	0.01707 0.91832 0.28043 0.01900
C 	C 	0.07860 0.96069 0.26455 0.07400
C 	C 	0.14164 0.95960 0.27564 -0.08300
C 	C 	0.14099 0.91707 0.30410 0.00900
N 	N 	0.08566 0.81817 0.33592 -0.15100
C 	C 	0.15066 0.82327 0.33020 -0.00300
C 	C 	0.18528 0.88253 0.30926 -0.04800
N 	N 	0.07353 0.01957 0.25029 -0.16700
C 	C 	0.00945 0.01573 0.25701 0.07000
H 	H 	0.18942 0.99139 0.26285 0.05000
H 	H 	0.24069 0.90724 0.30553 0.02700
H 	H 	0.05394 0.78850 0.35564 0.09400
H 	H 	0.11549 0.06772 0.24408 0.08100
C 	C 	0.42787 0.88929 0.45969 -0.10000
C 	C 	0.45896 0.94299 0.47719 0.03600
C 	C 	0.49234 0.00983 0.49535 0.03600
C 	C 	0.51826 0.06916 0.50928 -0.09500
C 	C 	0.03493 0.55684 0.46125 -0.10200
C 	C 	0.41949 0.55899 0.46798 -0.09600
C 	C 	0.45311 0.53624 0.48608 0.02800
C 	C 	0.49096 0.50618 0.50633 0.03300
C 	C 	0.52207 0.47779 0.52282 -0.10900
C 	C 	0.25696 0.13690 0.69183 0.07000
C 	C 	0.29265 0.19268 0.66877 -0.08100
C 	C 	0.34135 0.18173 0.64751 0.01000
C 	C 	0.35512 0.11913 0.64981 0.08000
C 	C 	0.31886 0.06304 0.67267 -0.08900
C 	C 	0.27022 0.07406 0.69386 0.02600
N 	N 	0.19314 0.12387 0.70331 -0.16900
C 	C 	0.16584 0.05319 0.71355 0.07800
C 	C 	0.21146 0.01964 0.70674 -0.08600
N 	N 	0.41994 0.13325 0.63953 -0.15100
C 	C 	0.44763 0.20427 0.62976 0.00400
C 	C 	0.40065 0.23664 0.63538 -0.04800
H 	H 	0.28270 0.24207 0.66731 0.04900
H 	H 	0.32921 0.01393 0.67441 0.05500
H 	H 	0.20888 0.96850 0.71740 0.05000
H 	H 	0.40303 0.28728 0.62420 0.04300
H 	H 	0.17517 0.16416 0.71015 0.07900
H 	H 	0.43821 0.09329 0.63247 0.09200
H 	H 	0.06637 0.82217 0.72082 0.05400
C 	C 	0.04374 0.67917 0.03172 -0.11400
C 	C 	0.53102 0.13026 0.97086 -0.09600
C 	C 	0.50198 0.07450 0.98654 0.02500
C 	C 	0.47065 0.00849 0.00478 0.04100
C 	C 	0.44548 0.95251 0.02076 -0.10300
C 	C 	0.47038 0.46007 0.95131 -0.10000
C 	C 	0.43041 0.48757 0.95903 0.03100
C 	C 	0.38998 0.52672 0.96924 0.02700
C 	C 	0.36100 0.56510 0.97896 -0.09200
C 	C 	0.42502 0.20676 0.78688 0.08000
C 	C 	0.36327 0.21624 0.78076 -0.08900
C 	C 	0.30250 0.15356 0.77603 0.02800
C 	C 	0.30143 0.08415 0.78009 0.07200
C 	C 	0.36168 0.07406 0.78842 -0.08000
C 	C 	0.42423 0.13627 0.79011 0.01000
N 	N 	0.47677 0.25494 0.80625 -0.15300
C 	C 	0.50737 0.21620 0.82296 -0.00800
C 	C 	0.47738 0.14280 0.81281 -0.04700
N 	N 	0.23804 0.03711 0.78884 -0.16900
C 	C 	0.19719 0.07525 0.78869 0.08300
C 	C 	0.23710 0.14914 0.78309 -0.08800
H 	H 	0.36171 0.26998 0.78329 0.05500
H 	H 	0.35913 0.02113 0.79669 0.05100
H 	H 	0.47773 0.09825 0.82858 0.04800
H 	H 	0.21686 0.18887 0.77493 0.05300
H 	H 	0.47767 0.30526 0.81515 0.09000
H 	H 	0.22004 0.98008 0.78588 0.08100
H 	H 	0.03553 0.78894 0.79923 0.07800
O 	O 	0.75997 0.24271 0.90990 -0.40500
O 	O 	0.65272 0.37779 0.95810 -0.70100
Ni	Ni	0.66405 0.47543 0.97545 1.06800
H 	H 	0.63892 0.34288 0.97730 0.15400
O 	O 	0.70048 0.34813 0.59903 -0.70400
Ni	Ni	0.67718 0.41625 0.56885 1.10100
O 	O 	0.67734 0.19463 0.61123 -0.36100
H 	H 	0.68742 0.35277 0.62305 0.15300
C 	C 	0.70259 0.80423 0.14637 -0.09000
C 	C 	0.67994 0.93590 0.25202 0.06800
C 	C 	0.61150 0.92632 0.25881 -0.08300
C 	C 	0.70964 0.89351 0.26824 0.02400
H 	H 	0.59143 0.96629 0.25082 0.04600
H 	H 	0.71732 0.14680 0.67690 0.08200
C 	C 	0.01107 0.80771 0.71913 -0.10800
Ni	Ni	0.74291 0.38169 0.93937 1.09800
O 	O 	0.77021 0.47710 0.91257 -0.38900
O 	O 	0.73596 0.55188 0.94560 -0.38900
C 	C 	0.78303 0.54144 0.92693 0.27200
O 	O 	0.73028 0.50883 0.59688 -0.37000
C 	C 	0.74456 0.21230 0.61329 0.24400
O 	O 	0.75534 0.45442 0.53283 -0.36300
C 	C 	0.77508 0.92432 0.12520 0.07300
C 	C 	0.76051 0.87064 0.15007 0.02500
H 	H 	0.68302 0.76913 0.16826 0.05300
H 	H 	0.80847 0.04038 0.12850 0.08200
N 	N 	0.75493 0.13875 0.66214 -0.15300
C 	C 	0.77090 0.16200 0.62948 0.00400
H 	H 	0.76773 0.06975 0.72158 0.05100
H 	H 	0.74662 0.62405 0.64465 0.04700
H 	H 	0.80375 0.68834 0.92736 0.09200
O 	O 	0.82285 0.36613 0.91538 -0.36300
O 	O 	0.73938 0.47921 0.00928 -0.41300
C 	C 	0.81668 0.30097 0.90412 0.24800
O 	O 	0.78643 0.26377 0.59349 -0.40800
Ni	Ni	0.79906 0.37298 0.59667 1.06400
O 	O 	0.79894 0.36920 0.54434 -0.41800
C 	C 	0.79201 0.52003 0.61006 0.25100
N 	N 	0.80399 0.99137 0.13997 -0.17200
N 	N 	0.72936 0.99945 0.24174 -0.16900
C 	C 	0.78054 0.93325 0.26848 -0.09100
H 	H 	0.81815 0.90922 0.27136 0.05100
H 	H 	0.72201 0.03442 0.22369 0.08300
C 	C 	0.81051 0.12969 0.67523 0.07100
C 	C 	0.80746 0.08259 0.70239 -0.08700
C 	C 	0.80042 0.63752 0.63881 -0.03700
N 	N 	0.84426 0.67563 0.91826 -0.15200
C 	C 	0.84130 0.60660 0.91441 0.00200
H 	H 	0.80222 0.75245 0.68090 0.05400
O 	O 	0.80864 0.43490 0.97936 -0.38500
C 	C 	0.80084 0.48585 0.99885 0.30100
C 	C 	0.80068 0.42544 0.52685 0.30800
O 	O 	0.82867 0.48479 0.59716 -0.40100
C 	C 	0.80775 0.98189 0.17409 0.08200
C 	C 	0.78163 0.90742 0.18123 -0.09000
C 	C 	0.79105 0.99722 0.25053 0.07900
C 	C 	0.83550 0.16328 0.62128 -0.04900
C 	C 	0.82834 0.58680 0.63072 -0.00400
H 	H 	0.86431 0.19811 0.92480 0.08900
H 	H 	0.86847 0.81431 0.89548 0.05500
H 	H 	0.79540 0.88392 0.20363 0.05500
C 	C 	0.85834 0.05337 0.70400 0.02300
C 	C 	0.86131 0.14569 0.65077 0.00700
H 	H 	0.86618 0.19060 0.59952 0.04800
C 	C 	0.85124 0.74978 0.67479 -0.08000
C 	C 	0.85551 0.70002 0.64996 0.00900
N 	N 	0.89404 0.23502 0.90650 -0.15300
C 	C 	0.87914 0.29041 0.89389 0.00400
C 	C 	0.89270 0.71777 0.89658 0.08000
C 	C 	0.86140 0.46510 0.50697 -0.09300
H 	H 	0.86469 0.03708 0.75960 0.05600
H 	H 	0.88803 0.33526 0.84213 0.03400
C 	C 	0.89096 0.78139 0.88192 -0.09100
C 	C 	0.88853 0.60423 0.89016 -0.04300
H 	H 	0.01382 0.70222 0.67187 0.04700
C 	C 	0.85579 0.03855 0.23161 -0.02000
C 	C 	0.85955 0.03844 0.19630 -0.01900
C 	C 	0.91071 0.07219 0.67981 0.07300
C 	C 	0.91136 0.11637 0.65200 -0.08200
C 	C 	0.88661 0.04052 0.73432 -0.08900
N 	N 	0.89773 0.61614 0.63552 -0.15000
H 	H 	0.88400 0.85903 0.72697 0.08700
C 	C 	0.86113 0.54432 0.01200 -0.09200
C 	C 	0.90837 0.31041 0.86172 -0.05000
H 	H 	0.92151 0.11119 0.90004 0.05500
C 	C 	0.92172 0.67568 0.87906 0.00700
H 	H 	0.88344 0.55582 0.87526 0.05100
C 	C 	0.91207 0.79235 0.69299 0.06900
C 	C 	0.91465 0.68480 0.64772 0.07900
C 	C 	0.93158 0.21842 0.88266 0.07900
C 	C 	0.92959 0.14721 0.87834 -0.09300
C 	C 	0.91826 0.80041 0.84903 0.02800
H 	H 	0.95129 0.12996 0.63287 0.05200
N 	N 	0.91370 0.82838 0.72258 -0.17100
C 	C 	0.94205 0.26452 0.85464 0.00700
C 	C 	0.93381 0.12250 0.84488 0.02700
H 	H 	0.93081 0.91386 0.84065 0.05500
C 	C 	0.93145 0.08464 0.18219 -0.02300
H 	H 	0.93485 0.08597 0.15366 0.04000
C 	C 	0.92467 0.08313 0.25056 -0.02700
H 	H 	0.92193 0.08269 0.27912 0.03800
H 	H 	0.90499 0.23354 0.14958 0.08300
H 	H 	0.92516 0.28928 0.24325 0.05600
H 	H 	0.93020 0.94780 0.29210 0.05000
C 	C 	0.91488 0.49629 0.49182 0.03100
N 	N 	0.96895 0.07237 0.69424 -0.16800
C 	C 	0.95558 0.05532 0.72755 0.07800
H 	H 	0.92826 0.58584 0.63821 0.07700
C 	C 	0.91585 0.59135 0.02032 0.03100
C 	C 	0.94545 0.16875 0.81705 0.06500
C 	C 	0.94981 0.24076 0.82132 -0.08200
C 	C 	0.95982 0.07063 0.83653 -0.09700
H 	H 	0.95774 0.27649 0.79952 0.04800
H 	H 	0.97666 0.04062 0.85508 0.05400
C 	C 	0.94839 0.75918 0.83183 0.06900
C 	C 	0.94976 0.69522 0.84626 -0.08000
C 	C 	0.95057 0.87157 0.83777 -0.09500
C 	C 	0.95155 0.16016 0.19942 -0.02300
C 	C 	0.94836 0.15973 0.23474 -0.01800
H 	H 	0.95699 0.90676 0.19542 0.08800
C 	C 	0.97217 0.72100 0.66957 -0.08800
C 	C 	0.97128 0.77911 0.68994 0.03300
N 	N 	0.97737 0.14766 0.79190 -0.16900
H 	H 	0.97226 0.66238 0.83264 0.05000
C 	C 	0.01347 0.04268 0.78279 -0.03600
C 	C 	0.98353 0.64157 0.02733 0.05400
N 	N 	0.95413 0.26080 0.16088 -0.16700
H 	H 	0.00021 0.43296 0.27290 0.05500
H 	H 	0.01853 0.09813 0.68423 0.07800
C 	C 	0.97171 0.28787 0.25480 -0.08200
C 	C 	0.97261 0.95317 0.27544 -0.08100
H 	H 	0.96885 0.84388 0.32183 0.06100
C 	C 	0.97937 0.53033 0.47513 0.04000
C 	C 	0.97841 0.05317 0.20016 -0.01600
C 	C 	0.97510 0.05235 0.23542 -0.01600
C 	C 	0.97623 0.84265 0.73774 0.09600
C 	C 	0.98624 0.08809 0.80375 0.08700
C 	C 	0.98765 0.22608 0.25576 0.08400
H 	H 	0.00688 0.18181 0.77269 0.07800
C 	C 	0.99899 0.02780 0.74823 -0.00500
N 	N 	0.99624 0.80163 0.80991 -0.16700
C 	C 	0.99793 0.87020 0.81352 0.08700
H 	H 	0.94649 0.34911 0.10816 0.05100
N 	N 	0.99712 0.94285 0.18075 -0.16300
