data_crystal

_cell_length_a 29.12921
_cell_length_b 26.31448
_cell_length_c 36.92761
_cell_angle_alpha 89.93154
_cell_angle_beta  89.92674
_cell_angle_gamma 90.85143

_symmetry_space_group_name_	'P 1'
_symmetry_space_group_name_H-M	'P 1'

loop_
_symmetry_equiv_pos_as_xyz
  x,y,z

loop_
_atom_site_label
_atom_site_type_symbol
_atom_site_fract_x
_atom_site_fract_y
_atom_site_fract_z
_atom_site_charge
Zn	Zn	0.52607 0.54741 0.97289 1.21600
C 	C 	0.57929 0.45797 0.96414 0.30300
O 	O 	0.56656 0.60318 0.95732 -0.47600
O 	O 	0.56430 0.45864 0.93042 -0.44900
O 	O 	0.60703 0.55939 0.91560 -0.49600
C 	C 	0.46164 0.50023 0.92649 0.32300
O 	O 	0.48310 0.49660 0.95722 -0.47100
O 	O 	0.48394 0.51699 0.89793 -0.49700
C 	C 	0.60475 0.59582 0.93962 0.31200
O 	O 	0.46541 0.60388 0.96914 -0.33700
Zn	Zn	0.55156 0.52283 0.90000 1.16400
O 	O 	0.57219 0.49681 0.98606 -0.43400
C 	C 	0.46629 0.60473 0.00416 0.26500
O 	O 	0.49717 0.57652 0.01933 -0.38100
Zn	Zn	0.24913 0.29479 0.93926 1.22100
C 	C 	0.27328 0.30419 0.01510 0.33000
O 	O 	0.18205 0.29588 0.93782 -0.47300
O 	O 	0.26826 0.35363 0.01233 -0.45100
O 	O 	0.17088 0.33451 0.99172 -0.48900
C 	C 	0.29588 0.39062 0.93297 0.31900
O 	O 	0.30081 0.34156 0.93706 -0.45800
O 	O 	0.25667 0.41168 0.94111 -0.50800
C 	C 	0.15900 0.29954 0.96816 0.30500
O 	O 	0.25300 0.29199 0.87535 -0.32800
Zn	Zn	0.21788 0.38545 0.98036 1.17000
O 	O 	0.25734 0.27350 0.98985 -0.44300
C 	C 	0.26532 0.24520 0.87983 0.29400
O 	O 	0.26601 0.22990 0.91312 -0.39000
C 	C 	0.49801 0.07981 0.27854 0.14200
C 	C 	0.46847 0.11053 0.25820 -0.11000
H 	H 	0.44423 0.13479 0.27188 0.07100
C 	C 	0.47046 0.10957 0.22021 0.06500
C 	C 	0.50155 0.07776 0.20272 -0.09900
C 	C 	0.53075 0.04701 0.22292 0.07000
C 	C 	0.52925 0.04827 0.26077 -0.11400
H 	H 	0.55198 0.02458 0.27648 0.07000
N 	N 	0.49599 0.07993 0.31749 -0.18300
C 	C 	0.47589 0.03943 0.33516 0.19800
C 	C 	0.48254 0.03279 0.37264 -0.08900
C 	C 	0.50778 0.06956 0.39207 0.06200
C 	C 	0.52503 0.11289 0.37406 -0.08200
C 	C 	0.51850 0.11760 0.33640 0.19700
C 	C 	0.46607 0.98897 0.39050 0.01600
C 	C 	0.47400 0.98220 0.42749 -0.05500
C 	C 	0.49672 0.02041 0.44784 0.01100
C 	C 	0.51631 0.06268 0.42945 -0.03000
C 	C 	0.54472 0.09788 0.44817 0.01500
C 	C 	0.54904 0.15042 0.39376 0.01000
C 	C 	0.55812 0.14347 0.43058 -0.05900
C 	C 	0.50208 0.01635 0.48600 0.01000
C 	C 	0.53420 0.04846 0.50383 -0.02900
C 	C 	0.55747 0.08755 0.48454 0.01500
O 	O 	0.53558 0.15741 0.31904 -0.20500
O 	O 	0.45128 0.00587 0.31678 -0.21100
H 	H 	0.56047 0.18528 0.38072 0.04200
H 	H 	0.57374 0.17449 0.44553 0.04500
H 	H 	0.44816 0.95930 0.37561 0.04100
H 	H 	0.46455 0.94614 0.43963 0.04400
C 	C 	0.59409 0.11392 0.50158 -0.05900
C 	C 	0.60289 0.10667 0.53841 0.00900
C 	C 	0.57642 0.07170 0.55867 -0.08100
C 	C 	0.54279 0.04179 0.54122 0.06100
C 	C 	0.47473 0.98254 0.50691 -0.05300
C 	C 	0.48307 0.97647 0.54390 0.01400
C 	C 	0.51732 0.00570 0.56121 -0.08600
C 	C 	0.58256 0.06664 0.59636 0.19700
N 	N 	0.55554 0.03328 0.61582 -0.18200
C 	C 	0.52517 0.00101 0.59870 0.19200
C 	C 	0.55510 0.03623 0.65473 0.14200
C 	C 	0.58967 0.01298 0.67522 -0.11400
C 	C 	0.58845 0.01558 0.71319 0.05900
C 	C 	0.55267 0.04094 0.73051 -0.09500
C 	C 	0.51811 0.06373 0.71017 0.06400
C 	C 	0.51948 0.06176 0.67234 -0.11200
O 	O 	0.61316 0.09545 0.61320 -0.20600
O 	O 	0.50233 0.96642 0.61761 -0.19900
H 	H 	0.61705 0.99300 0.66167 0.07700
H 	H 	0.49280 0.07955 0.65652 0.07000
H 	H 	0.61706 0.13835 0.48620 0.04500
H 	H 	0.63057 0.12809 0.55103 0.04200
H 	H 	0.44550 0.96290 0.49518 0.04400
H 	H 	0.46188 0.94993 0.55922 0.04200
H 	H 	0.55156 0.04260 0.75987 0.05100
H 	H 	0.50288 0.07682 0.17335 0.05400
Zn	Zn	0.79950 0.81397 0.98939 1.22100
C 	C 	0.75833 0.81731 0.06048 0.33600
O 	O 	0.86601 0.81327 0.99772 -0.46700
O 	O 	0.76275 0.76775 0.06279 -0.45100
O 	O 	0.86365 0.78402 0.05542 -0.48800
C 	C 	0.75474 0.71699 0.98392 0.32000
O 	O 	0.74855 0.76619 0.98449 -0.45700
O 	O 	0.79024 0.69744 0.00045 -0.50800
C 	C 	0.88198 0.81421 0.03095 0.30300
O 	O 	0.80967 0.80642 0.92600 -0.32800
Zn	Zn	0.81932 0.73110 0.04199 1.16800
O 	O 	0.78074 0.84349 0.03566 -0.44800
C 	C 	0.79718 0.85355 0.92471 0.29300
O 	O 	0.78925 0.87408 0.95587 -0.38700
Zn	Zn	0.22318 0.71521 0.04213 1.21900
C 	C 	0.19882 0.70872 0.11773 0.33500
O 	O 	0.20640 0.78328 0.02483 -0.46300
O 	O 	0.23873 0.72974 0.12564 -0.45200
O 	O 	0.20870 0.81784 0.08119 -0.49500
C 	C 	0.31550 0.70215 0.06591 0.31600
O 	O 	0.27528 0.67968 0.06271 -0.45900
O 	O 	0.31796 0.75105 0.07257 -0.50800
C 	C 	0.19429 0.81891 0.04756 0.30500
O 	O 	0.25415 0.69634 0.98439 -0.33300
Zn	Zn	0.26679 0.78718 0.09421 1.16800
O 	O 	0.18273 0.71053 0.08455 -0.44500
C 	C 	0.21725 0.66876 0.98042 0.29800
O 	O 	0.18933 0.66796 0.00765 -0.39800
C 	C 	0.96715 0.44259 0.35722 0.14300
C 	C 	0.93337 0.41448 0.33858 -0.11000
H 	H 	0.91454 0.38434 0.35237 0.07200
C 	C 	0.92514 0.42442 0.30190 0.06600
C 	C 	0.95020 0.46277 0.28409 -0.09800
C 	C 	0.98463 0.48995 0.30237 0.07200
C 	C 	0.99278 0.48031 0.33905 -0.10500
H 	H 	0.01972 0.50098 0.35325 0.06500
N 	N 	0.97712 0.43113 0.39438 -0.17800
C 	C 	0.01126 0.39756 0.40234 0.19100
C 	C 	0.02505 0.39011 0.43844 -0.08000
C 	C 	0.00286 0.41666 0.46624 0.05600
C 	C 	0.96676 0.44942 0.45775 -0.07500
C 	C 	0.95402 0.45593 0.42131 0.19700
C 	C 	0.06149 0.35777 0.44696 0.00900
C 	C 	0.07493 0.35092 0.48291 -0.06000
C 	C 	0.05100 0.37492 0.51129 0.01800
C 	C 	0.01704 0.41079 0.50255 -0.03800
C 	C 	0.99738 0.44104 0.52993 0.03000
C 	C 	0.94407 0.47528 0.48567 0.01100
C 	C 	0.95875 0.47059 0.52149 -0.06200
C 	C 	0.06155 0.36568 0.54823 0.01200
C 	C 	0.04556 0.39958 0.57496 -0.02700
C 	C 	0.01561 0.43923 0.56549 0.00700
O 	O 	0.92040 0.48681 0.41295 -0.20300
O 	O 	0.03164 0.37270 0.37599 -0.20800
H 	H 	0.91478 0.49878 0.47978 0.04300
H 	H 	0.93874 0.48812 0.54263 0.04700
H 	H 	0.08014 0.33858 0.42571 0.04100
H 	H 	0.10532 0.32908 0.48830 0.04500
C 	C 	0.00613 0.47718 0.59132 -0.06500
C 	C 	0.02065 0.47175 0.62711 0.01100
C 	C 	0.04605 0.42917 0.63757 -0.08300
C 	C 	0.05921 0.39355 0.61137 0.06000
C 	C 	0.08576 0.32216 0.55922 -0.05800
C 	C 	0.09827 0.31575 0.59544 0.00800
C 	C 	0.08547 0.35157 0.62165 -0.08100
C 	C 	0.05811 0.42130 0.67399 0.19700
N 	N 	0.08191 0.37886 0.68386 -0.18300
C 	C 	0.09710 0.34516 0.65836 0.19700
C 	C 	0.08771 0.36755 0.72162 0.14400
C 	C 	0.12069 0.39441 0.74199 -0.11000
C 	C 	0.12110 0.38993 0.77980 0.06700
C 	C 	0.09059 0.35600 0.79690 -0.09700
C 	C 	0.05629 0.33108 0.77693 0.07100
C 	C 	0.05583 0.33550 0.73918 -0.11400
O 	O 	0.04517 0.45395 0.69892 -0.20700
O 	O 	0.12200 0.30616 0.66837 -0.20500
H 	H 	0.14354 0.42142 0.72865 0.07300
H 	H 	0.02873 0.31715 0.72364 0.07000
H 	H 	0.98931 0.51189 0.58355 0.05000
H 	H 	0.01228 0.50093 0.64661 0.04000
H 	H 	0.09287 0.29193 0.54032 0.04400
H 	H 	0.11709 0.28222 0.60313 0.04200
H 	H 	0.09029 0.35340 0.82625 0.05700
H 	H 	0.94441 0.46974 0.25548 0.05600
Zn	Zn	0.73700 0.21066 0.01981 1.22300
C 	C 	0.76421 0.23652 0.94613 0.33800
O 	O 	0.70309 0.27335 0.01402 -0.44600
O 	O 	0.72046 0.23747 0.93737 -0.45600
O 	O 	0.64159 0.23118 0.99006 -0.50100
C 	C 	0.73874 0.11608 0.98461 0.31200
O 	O 	0.72744 0.13758 0.01531 -0.48300
O 	O 	0.71445 0.12655 0.95585 -0.48600
C 	C 	0.66081 0.27347 0.00205 0.30900
O 	O 	0.71450 0.20529 0.08156 -0.32800
Zn	Zn	0.67344 0.18471 0.95708 1.16800
O 	O 	0.77733 0.21970 0.97791 -0.44700
C 	C 	0.75668 0.21908 0.08805 0.29400
O 	O 	0.78202 0.22669 0.05980 -0.39400
Zn	Zn	0.00029 0.04462 0.00606 1.22100
C 	C 	0.08097 0.98354 0.01621 0.30900
O 	O 	0.96759 0.03127 0.05098 -0.49100
O 	O 	0.09582 0.02393 0.03356 -0.46200
O 	O 	0.02103 0.99231 0.08356 -0.48500
C 	C 	0.05970 0.12817 0.01663 0.31100
O 	O 	0.04714 0.09358 0.99290 -0.44500
O 	O 	0.05114 0.12125 0.05139 -0.49900
C 	C 	0.97987 0.99175 0.06955 0.32000
O 	O 	0.94989 0.11050 0.99413 -0.32100
Zn	Zn	0.05808 0.05447 0.07480 1.16700
O 	O 	0.03879 0.98239 0.00309 -0.42900
C 	C 	0.92737 0.07857 0.97397 0.26500
O 	O 	0.94732 0.03514 0.96971 -0.38100
C 	C 	0.81642 0.11154 0.94527 -0.00400
H 	H 	0.80351 0.12858 0.91979 0.03300
C 	C 	0.83885 0.05852 0.94855 -0.01800
H 	H 	0.84479 0.03179 0.92585 0.03900
C 	C 	0.85448 0.13481 0.96946 -0.01000
H 	H 	0.87317 0.17107 0.96384 0.04500
C 	C 	0.87631 0.08221 0.97286 -0.05200
C 	C 	0.78761 0.10021 0.97948 -0.08000
C 	C 	0.82557 0.12336 0.00354 -0.00900
H 	H 	0.82080 0.14983 0.02653 0.03300
C 	C 	0.84739 0.07061 0.00689 -0.01900
H 	H 	0.86040 0.05380 0.03242 0.04000
C 	C 	0.80902 0.04726 0.98277 -0.00300
H 	H 	0.79000 0.01125 0.98842 0.03600
C 	C 	0.90297 0.26276 0.81181 -0.08300
C 	C 	0.94212 0.28704 0.83478 0.04200
C 	C 	0.88145 0.32551 0.87593 -0.07300
C 	C 	0.86948 0.26793 0.87556 0.01900
C 	C 	0.86015 0.25149 0.83586 -0.07300
H 	H 	0.89338 0.28883 0.78938 0.04600
H 	H 	0.91484 0.22683 0.79925 0.04600
C 	C 	0.98282 0.29886 0.81251 -0.01200
H 	H 	0.88846 0.33839 0.90413 0.04300
H 	H 	0.85184 0.34766 0.86576 0.04200
C 	C 	0.82949 0.25750 0.89890 0.03200
H 	H 	0.83012 0.27217 0.82491 0.04100
H 	H 	0.85156 0.21016 0.83479 0.04100
C 	C 	0.91168 0.23845 0.88969 -0.07300
H 	H 	0.90411 0.19684 0.88966 0.04400
H 	H 	0.91934 0.24948 0.91818 0.04600
C 	C 	0.95439 0.24970 0.86571 -0.08300
H 	H 	0.98239 0.26616 0.88275 0.04700
H 	H 	0.96722 0.21351 0.85417 0.04800
C 	C 	0.92409 0.33674 0.85198 -0.08200
H 	H 	0.95143 0.35504 0.86877 0.04500
H 	H 	0.91487 0.36433 0.83039 0.04600
C 	C 	0.01638 0.31168 0.79555 -0.04200
C 	C 	0.79846 0.24863 0.91960 -0.11900
C 	C 	0.85682 0.36339 0.19556 -0.08200
C 	C 	0.84835 0.33678 0.23252 0.04500
C 	C 	0.77129 0.30414 0.20838 -0.07500
C 	C 	0.80685 0.28634 0.17989 0.02500
C 	C 	0.83253 0.33388 0.16476 -0.07500
H 	H 	0.84385 0.40298 0.19636 0.04300
H 	H 	0.89432 0.36595 0.18973 0.04300
C 	C 	0.87272 0.36584 0.26078 -0.02500
H 	H 	0.75243 0.27072 0.21986 0.04500
H 	H 	0.74545 0.32893 0.19532 0.04500
C 	C 	0.78497 0.25916 0.14951 0.02300
H 	H 	0.80795 0.35937 0.15086 0.04300
H 	H 	0.85846 0.32238 0.14426 0.04500
C 	C 	0.84225 0.25212 0.19918 -0.07500
H 	H 	0.86833 0.23879 0.17941 0.04200
H 	H 	0.82471 0.21775 0.21051 0.04300
C 	C 	0.86667 0.28180 0.23014 -0.08300
H 	H 	0.86082 0.26163 0.25630 0.04600
H 	H 	0.90437 0.28260 0.22511 0.04500
C 	C 	0.79578 0.33390 0.23943 -0.08300
H 	H 	0.78864 0.31472 0.26577 0.04700
H 	H 	0.78162 0.37289 0.24118 0.04600
C 	C 	0.89537 0.39166 0.28112 -0.02900
C 	C 	0.77027 0.23941 0.12242 -0.09200
C 	C 	0.16639 0.91319 0.05226 -0.01200
H 	H 	0.19237 0.92596 0.07240 0.01600
C 	C 	0.11400 0.91288 0.05819 -0.01800
H 	H 	0.09637 0.92543 0.08323 0.02200
C 	C 	0.16010 0.93626 0.01420 -0.01900
H 	H 	0.18063 0.96834 0.00275 0.03300
C 	C 	0.10776 0.93589 0.02018 -0.07200
C 	C 	0.16241 0.85972 0.03582 -0.07800
C 	C 	0.15638 0.88229 0.99767 -0.00300
H 	H 	0.17426 0.86939 0.97284 0.03500
C 	C 	0.10345 0.88250 0.00348 -0.01600
H 	H 	0.07723 0.87024 0.98340 0.03900
C 	C 	0.11013 0.85899 0.04174 -0.00600
H 	H 	0.08977 0.82686 0.05331 0.03100
C 	C 	0.18855 0.59274 0.86039 -0.07300
C 	C 	0.19374 0.56716 0.89804 0.02000
C 	C 	0.13547 0.49951 0.87877 -0.08400
C 	C 	0.17243 0.49867 0.84847 0.04500
C 	C 	0.17577 0.55242 0.83122 -0.08400
H 	H 	0.16145 0.62209 0.86146 0.04400
H 	H 	0.22122 0.61238 0.85264 0.04400
C 	C 	0.20467 0.60489 0.92628 0.02200
H 	H 	0.13252 0.46147 0.89191 0.03300
H 	H 	0.10125 0.50811 0.86703 0.04400
C 	C 	0.15895 0.46011 0.82153 -0.02500
H 	H 	0.14243 0.56238 0.81855 0.04700
H 	H 	0.20217 0.55301 0.80939 0.04600
C 	C 	0.21937 0.48643 0.86597 -0.08500
H 	H 	0.24674 0.48613 0.84491 0.04800
H 	H 	0.21807 0.44791 0.87843 0.04800
C 	C 	0.23171 0.52659 0.89535 -0.07200
H 	H 	0.23558 0.50731 0.92195 0.03800
H 	H 	0.26528 0.54505 0.88859 0.04300
C 	C 	0.14781 0.53985 0.90770 -0.07200
H 	H 	0.15043 0.52110 0.93466 0.02600
H 	H 	0.11968 0.56794 0.90953 0.04100
C 	C 	0.21140 0.63465 0.95053 -0.09800
C 	C 	0.14388 0.42807 0.80136 -0.02700
C 	C 	0.08703 0.66720 0.21287 -0.07300
C 	C 	0.12127 0.63170 0.19342 0.01900
C 	C 	0.12041 0.57471 0.24937 -0.08300
C 	C 	0.06904 0.57935 0.23893 0.04300
C 	C 	0.05629 0.63638 0.23966 -0.08300
H 	H 	0.10612 0.69744 0.22790 0.04000
H 	H 	0.06497 0.68647 0.19261 0.03900
C 	C 	0.15008 0.66044 0.16754 0.03100
H 	H 	0.13062 0.53411 0.24901 0.04500
H 	H 	0.12604 0.58903 0.27739 0.04500
C 	C 	0.03959 0.54946 0.26368 -0.02400
H 	H 	0.06069 0.65187 0.26750 0.04400
H 	H 	0.01956 0.64093 0.23217 0.04100
C 	C 	0.06273 0.55936 0.19971 -0.08300
H 	H 	0.02614 0.56235 0.19136 0.03900
H 	H 	0.07177 0.51843 0.19828 0.04100
C 	C 	0.09338 0.59007 0.17301 -0.07300
H 	H 	0.11705 0.56381 0.15886 0.04000
H 	H 	0.07142 0.60773 0.15193 0.03900
C 	C 	0.15116 0.60553 0.22258 -0.07300
H 	H 	0.17603 0.57962 0.20943 0.04200
H 	H 	0.17150 0.63457 0.23780 0.04200
C 	C 	0.17281 0.68294 0.14528 -0.11500
C 	C 	0.01482 0.52326 0.28228 -0.03900
C 	C 	0.93914 0.89197 0.01703 -0.01600
H 	H 	0.94415 0.88488 0.98767 0.04700
C 	C 	0.97783 0.89459 0.04569 -0.00000
H 	H 	0.01485 0.88965 0.04025 0.03300
C 	C 	0.91726 0.93975 0.03346 -0.01000
H 	H 	0.90373 0.97202 0.01756 0.04100
C 	C 	0.95580 0.94214 0.06206 -0.08500
C 	C 	0.91018 0.85894 0.04295 -0.06900
C 	C 	0.88817 0.90642 0.05938 -0.01300
H 	H 	0.85099 0.91121 0.06484 0.04200
C 	C 	0.92685 0.90919 0.08812 -0.00500
H 	H 	0.92196 0.91657 0.11745 0.02800
C 	C 	0.94850 0.86080 0.07162 -0.01400
H 	H 	0.96122 0.82773 0.08715 0.03100
C 	C 	0.65239 0.90762 0.80438 -0.08200
C 	C 	0.67901 0.95066 0.78423 0.04200
C 	C 	0.72201 0.96990 0.84296 -0.08000
C 	C 	0.72967 0.91236 0.83671 0.02700
C 	C 	0.68207 0.88519 0.83513 -0.07600
H 	H 	0.62001 0.92254 0.81607 0.04300
H 	H 	0.64260 0.87689 0.78505 0.04500
C 	C 	0.64961 0.97246 0.75578 -0.02600
H 	H 	0.75563 0.99053 0.84402 0.04600
H 	H 	0.70465 0.97600 0.86945 0.04400
C 	C 	0.75693 0.89109 0.86667 0.02200
H 	H 	0.66381 0.88944 0.86145 0.04300
H 	H 	0.68643 0.84373 0.83049 0.04300
C 	C 	0.75369 0.90568 0.79946 -0.07600
H 	H 	0.75952 0.86465 0.79414 0.04500
H 	H 	0.78793 0.92503 0.79968 0.04500
C 	C 	0.72384 0.92824 0.76855 -0.08200
H 	H 	0.74383 0.95836 0.75403 0.04700
H 	H 	0.71541 0.89797 0.74849 0.04600
C 	C 	0.69230 0.99236 0.81219 -0.06900
H 	H 	0.71173 0.02373 0.79856 0.03600
H 	H 	0.66081 0.00916 0.82406 0.03200
C 	C 	0.62302 0.99144 0.73488 -0.02300
C 	C 	0.77670 0.87389 0.89253 -0.08900
C 	C 	0.64899 0.98848 0.14158 -0.06800
C 	C 	0.61825 0.95472 0.16646 0.03700
C 	C 	0.62185 0.88452 0.11900 -0.07500
C 	C 	0.67290 0.89797 0.12689 0.02200
C 	C 	0.68107 0.95517 0.11835 -0.07800
H 	H 	0.62726 0.01187 0.12343 0.03700
H 	H 	0.67007 0.01525 0.15822 0.04000
C 	C 	0.58758 0.98679 0.18807 -0.01200
H 	H 	0.61488 0.84366 0.12505 0.04200
H 	H 	0.61421 0.89053 0.08978 0.04200
C 	C 	0.70339 0.86692 0.10435 0.03200
H 	H 	0.67465 0.96269 0.08912 0.04600
H 	H 	0.71748 0.96605 0.12389 0.04700
C 	C 	0.68201 0.88928 0.16783 -0.07400
H 	H 	0.71844 0.89879 0.17434 0.04300
H 	H 	0.67623 0.84852 0.17482 0.04200
C 	C 	0.64983 0.92269 0.19112 -0.08100
H 	H 	0.62868 0.89789 0.20925 0.04500
H 	H 	0.67090 0.94816 0.20876 0.04600
C 	C 	0.58973 0.91787 0.14225 -0.08000
H 	H 	0.56740 0.89294 0.15940 0.04300
H 	H 	0.56677 0.93977 0.12412 0.04200
C 	C 	0.56198 0.01388 0.20458 -0.04300
C 	C 	0.72839 0.84322 0.08485 -0.11300
C 	C 	0.06473 0.21570 0.97906 -0.00300
H 	H 	0.02918 0.21579 0.96824 0.03300
C 	C 	0.10920 0.21427 0.95601 -0.01400
H 	H 	0.11067 0.21398 0.92597 0.04000
C 	C 	0.08659 0.25741 0.00351 -0.01900
H 	H 	0.06949 0.29266 0.01249 0.02800
C 	C 	0.13064 0.25526 0.98062 -0.06700
C 	C 	0.08460 0.17484 0.00414 -0.08200
C 	C 	0.10602 0.21583 0.02874 -0.00500
H 	H 	0.10463 0.21615 0.05879 0.02300
C 	C 	0.15036 0.21430 0.00570 -0.02400
H 	H 	0.18580 0.21384 0.01669 0.04000
C 	C 	0.12864 0.17284 0.98125 -0.00100
H 	H 	0.14584 0.13765 0.97225 0.03600
C 	C 	0.33221 0.16191 0.77128 -0.07500
C 	C 	0.35297 0.17633 0.80864 0.02600
C 	C 	0.40749 0.10192 0.80269 -0.08200
C 	C 	0.41542 0.13310 0.76748 0.04400
C 	C 	0.36901 0.13643 0.74703 -0.08300
H 	H 	0.30247 0.13535 0.77497 0.04500
H 	H 	0.31922 0.19646 0.75748 0.04600
C 	C 	0.31890 0.20055 0.83229 0.02300
H 	H 	0.44020 0.09897 0.81808 0.04000
H 	H 	0.39603 0.06251 0.79592 0.04300
C 	C 	0.45083 0.10885 0.74515 -0.02600
H 	H 	0.35682 0.09772 0.73913 0.04600
H 	H 	0.37358 0.15882 0.72164 0.04600
C 	C 	0.43107 0.18767 0.77811 -0.08300
H 	H 	0.43683 0.21108 0.75334 0.04400
H 	H 	0.46428 0.18654 0.79296 0.04000
C 	C 	0.39440 0.21306 0.80228 -0.07500
H 	H 	0.41016 0.22405 0.82864 0.04100
H 	H 	0.38265 0.24862 0.78906 0.04400
C 	C 	0.37084 0.12728 0.82684 -0.07500
H 	H 	0.38609 0.13642 0.85374 0.04200
H 	H 	0.34187 0.10000 0.83160 0.04300
C 	C 	0.29315 0.22071 0.85320 -0.09100
C 	C 	0.48100 0.08857 0.72841 -0.03100
C 	C 	0.34080 0.26826 0.13563 -0.07300
C 	C 	0.34364 0.23873 0.09931 0.02000
C 	C 	0.42232 0.20720 0.11843 -0.08300
C 	C 	0.39038 0.19177 0.15042 0.04500
C 	C 	0.36831 0.24061 0.16572 -0.08400
H 	H 	0.35479 0.30755 0.13207 0.04200
H 	H 	0.30432 0.27160 0.14420 0.03900
C 	C 	0.31785 0.26422 0.07026 0.02900
H 	H 	0.43864 0.17289 0.10675 0.04200
H 	H 	0.45051 0.23268 0.12823 0.04500
C 	C 	0.41709 0.16472 0.17819 -0.02700
H 	H 	0.39543 0.26670 0.17650 0.04600
H 	H 	0.34497 0.23073 0.18864 0.04400
C 	C 	0.35152 0.15668 0.13553 -0.08300
H 	H 	0.32780 0.14519 0.15785 0.04000
H 	H 	0.36629 0.12126 0.12425 0.03900
C 	C 	0.32411 0.18422 0.10554 -0.07300
H 	H 	0.32584 0.16191 0.07998 0.03900
H 	H 	0.28729 0.18587 0.11353 0.03600
C 	C 	0.39493 0.23471 0.08847 -0.07300
H 	H 	0.39817 0.21350 0.06254 0.04100
H 	H 	0.41002 0.27334 0.08398 0.04200
C 	C 	0.29731 0.28336 0.04550 -0.11300
C 	C 	0.44052 0.14061 0.19872 -0.03000
C 	C 	0.34265 0.48083 0.93328 -0.01300
H 	H 	0.31487 0.50731 0.94051 0.02800
C 	C 	0.37389 0.48440 0.89917 -0.01000
H 	H 	0.37179 0.51368 0.87760 0.03100
C 	C 	0.38524 0.47141 0.95704 -0.01000
H 	H 	0.39233 0.49026 0.98339 0.03700
C 	C 	0.41600 0.47442 0.92308 -0.07600
C 	C 	0.33769 0.42312 0.92761 -0.07700
C 	C 	0.37996 0.41368 0.95140 -0.00700
H 	H 	0.38237 0.38463 0.97313 0.04000
C 	C 	0.41080 0.41679 0.91745 -0.00600
H 	H 	0.43914 0.39056 0.91091 0.03000
C 	C 	0.36806 0.42602 0.89351 -0.01100
H 	H 	0.36043 0.40695 0.86735 0.03300
C 	C 	0.41676 0.62942 0.06540 -0.01800
H 	H 	0.43671 0.61054 0.08705 0.03800
C 	C 	0.36571 0.61796 0.05586 -0.00600
H 	H 	0.34296 0.58996 0.06986 0.03300
C 	C 	0.40746 0.68734 0.06276 -0.00700
H 	H 	0.41916 0.71659 0.08246 0.02800
C 	C 	0.35715 0.67537 0.05287 -0.07800
C 	C 	0.42851 0.62901 0.02481 -0.05400
C 	C 	0.41982 0.68639 0.02197 -0.01600
H 	H 	0.44241 0.71448 0.00791 0.03300
C 	C 	0.36920 0.67471 0.01238 -0.00900
H 	H 	0.34962 0.69351 0.99049 0.04300
C 	C 	0.37809 0.61719 0.01513 -0.01600
H 	H 	0.36611 0.58808 0.99539 0.03900
C 	C 	0.60590 0.39057 0.01678 -0.01100
H 	H 	0.59464 0.41050 0.04166 0.03700
C 	C 	0.65601 0.37550 0.00784 -0.01200
H 	H 	0.68625 0.38230 0.02556 0.04000
C 	C 	0.58872 0.33735 0.00403 -0.01700
H 	H 	0.56345 0.31265 0.01847 0.03200
C 	C 	0.63838 0.32312 0.99488 -0.06800
C 	C 	0.60077 0.41055 0.97787 -0.06600
C 	C 	0.58324 0.35803 0.96507 -0.01000
H 	H 	0.55303 0.35101 0.94735 0.03200
C 	C 	0.63309 0.34336 0.95610 -0.01600
H 	H 	0.64429 0.32359 0.93112 0.02200
C 	C 	0.65041 0.39615 0.96883 -0.00900
H 	H 	0.67574 0.42072 0.95434 0.03000
C 	C 	0.64394 0.68323 0.95902 -0.00800
H 	H 	0.61253 0.70659 0.95812 0.03700
C 	C 	0.68807 0.69337 0.93665 -0.01100
H 	H 	0.69364 0.72552 0.91757 0.03600
C 	C 	0.67314 0.67317 0.99311 -0.00600
H 	H 	0.66639 0.68860 0.02055 0.03100
C 	C 	0.71687 0.68299 0.97070 -0.07600
C 	C 	0.64647 0.62651 0.94929 -0.07600
C 	C 	0.67533 0.61614 0.98329 -0.01000
H 	H 	0.66972 0.58402 0.00240 0.02900
C 	C 	0.71963 0.62628 0.96096 -0.01000
H 	H 	0.75113 0.60309 0.96193 0.03100
C 	C 	0.69015 0.63617 0.92673 -0.01100
H 	H 	0.69678 0.62071 0.89929 0.03000
