data_crystal

_cell_length_a 15.30282
_cell_length_b 19.20649
_cell_length_c 49.60788
_cell_angle_alpha 90.42529
_cell_angle_beta  90.43324
_cell_angle_gamma 119.44862

_symmetry_space_group_name_	'P 1'
_symmetry_space_group_name_H-M	'P 1'

loop_
_symmetry_equiv_pos_as_xyz
  x,y,z

loop_
_atom_site_label
_atom_site_type_symbol
_atom_site_fract_x
_atom_site_fract_y
_atom_site_fract_z
_atom_site_charge
C 	C 	0.61699 0.31192 0.97897 0.29000
C 	C 	0.45615 0.21005 0.86875 0.40900
C 	C 	0.43920 0.11115 0.94625 0.34200
C 	C 	0.62886 0.42797 0.89612 0.39200
Ni	Ni	0.50060 0.27342 0.92482 1.12200
Ni	Ni	0.66033 0.21433 0.93980 1.12900
O 	O 	0.52800 0.28393 0.96661 -0.35900
O 	O 	0.45042 0.26116 0.88523 -0.33300
O 	O 	0.54197 0.21133 0.86519 -0.31600
O 	O 	0.42014 0.14974 0.92754 -0.34200
O 	O 	0.52762 0.14374 0.95826 -0.36400
O 	O 	0.57368 0.39593 0.91787 -0.34500
O 	O 	0.63634 0.38241 0.87691 -0.33900
O 	O 	0.62530 0.12573 0.91265 -0.34300
O 	O 	0.62253 0.27671 0.91826 -0.71900
C 	C 	0.45915 0.30379 0.67289 0.29900
C 	C 	0.38148 0.08250 0.69331 0.40700
Ni	Ni	0.50845 0.18712 0.64970 1.12600
Ni	Ni	0.54574 0.24098 0.71246 1.14200
O 	O 	0.59633 0.17242 0.73057 -0.30100
O 	O 	0.42141 0.23319 0.66104 -0.35600
O 	O 	0.58803 0.28558 0.62687 -0.38200
O 	O 	0.40533 0.14914 0.70680 -0.34800
O 	O 	0.41363 0.08432 0.66840 -0.33200
O 	O 	0.57828 0.13054 0.63242 -0.34900
O 	O 	0.50742 0.31810 0.69617 -0.32100
O 	O 	0.59916 0.22489 0.67953 -0.71900
H 	H 	0.59181 0.17190 0.68301 0.17200
C 	C 	0.05036 0.90996 0.75644 0.41400
C 	C 	0.07383 0.96712 0.82746 0.38500
O 	O 	0.04993 0.96867 0.77027 -0.33100
O 	O 	0.05915 0.89447 0.82087 -0.29800
O 	O 	0.00383 0.98739 0.82344 -0.32000
O 	O 	0.00010 0.83562 0.76458 -0.32200
C 	C 	0.44104 0.69261 0.47876 0.30700
C 	C 	0.55766 0.78431 0.36689 0.40300
C 	C 	0.60977 0.89011 0.44450 0.34600
C 	C 	0.39026 0.56815 0.39624 0.38600
C 	C 	0.35840 0.85836 0.39314 0.42000
C 	C 	0.18821 0.65125 0.42608 0.30200
Ni	Ni	0.53557 0.72502 0.42260 1.12300
Ni	Ni	0.34621 0.70187 0.38532 1.13800
Ni	Ni	0.38589 0.78926 0.44287 1.13000
O 	O 	0.52515 0.71937 0.46477 -0.35500
O 	O 	0.37258 0.71423 0.47313 -0.36300
O 	O 	0.30108 0.78403 0.38500 -0.35200
O 	O 	0.56787 0.73299 0.38193 -0.33400
O 	O 	0.47062 0.78241 0.36521 -0.31100
O 	O 	0.23609 0.72690 0.43461 -0.34500
O 	O 	0.61942 0.84880 0.42477 -0.34500
O 	O 	0.52625 0.86079 0.45828 -0.36200
O 	O 	0.21573 0.62847 0.40378 -0.31300
O 	O 	0.45739 0.60167 0.41613 -0.33400
O 	O 	0.37884 0.61252 0.37759 -0.33200
O 	O 	0.40943 0.87465 0.41600 -0.34200
O 	O 	0.41283 0.72358 0.41950 -0.71700
H 	H 	0.37038 0.67162 0.42799 0.15500
C 	C 	0.33178 0.79456 0.23066 0.38100
C 	C 	0.32149 0.67736 0.12116 0.31500
C 	C 	0.30959 0.58319 0.21295 0.40100
C 	C 	0.31141 0.82345 0.13985 0.28700
C 	C 	0.56706 0.69669 0.16892 0.31600
C 	C 	0.62585 0.91026 0.19448 0.41100
Ni	Ni	0.27151 0.69449 0.17916 1.12100
Ni	Ni	0.49401 0.80403 0.15099 1.12700
Ni	Ni	0.47918 0.74642 0.21244 1.13900
O 	O 	0.26139 0.72727 0.21906 -0.32000
O 	O 	0.42553 0.80809 0.23393 -0.30600
O 	O 	0.59375 0.76705 0.15861 -0.35200
O 	O 	0.25154 0.65065 0.13964 -0.35300
O 	O 	0.41589 0.70478 0.12782 -0.37900
O 	O 	0.61303 0.84425 0.20605 -0.35500
O 	O 	0.26365 0.58759 0.19116 -0.33200
O 	O 	0.36271 0.64716 0.22776 -0.33800
O 	O 	0.58566 0.90784 0.17049 -0.33500
O 	O 	0.26619 0.79136 0.16274 -0.34200
O 	O 	0.40986 0.85283 0.13691 -0.35000
O 	O 	0.52211 0.67641 0.19245 -0.31800
O 	O 	0.41235 0.75983 0.18166 -0.71900
H 	H 	0.41542 0.81071 0.18656 0.17400
C 	C 	0.23065 0.03802 0.25974 0.39100
C 	C 	0.24431 0.27095 0.34266 0.39600
C 	C 	0.23560 0.04281 0.33096 0.41100
C 	C 	0.23904 0.29970 0.26729 0.38300
Ni	Ni	0.28557 0.18607 0.29706 1.13300
O 	O 	0.30302 0.10560 0.27102 -0.29800
O 	O 	0.13596 0.02142 0.25939 -0.32400
O 	O 	0.30725 0.27882 0.32342 -0.31000
O 	O 	0.14965 0.21556 0.34062 -0.32500
O 	O 	0.27746 0.12090 0.33097 -0.33200
O 	O 	0.16969 0.99868 0.31222 -0.31500
O 	O 	0.29465 0.26394 0.26676 -0.30800
O 	O 	0.18455 0.29423 0.28874 -0.33000
O 	O 	0.14531 0.13587 0.29229 -0.72100
H 	H 	0.14277 0.14227 0.27267 0.17600
C 	C 	0.35821 0.42912 0.24633 0.28400
C 	C 	0.26051 0.36407 0.24806 -0.17600
C 	C 	0.18078 0.36768 0.23513 0.27800
C 	C 	0.19743 0.43786 0.22230 0.29000
C 	C 	0.29409 0.50506 0.22232 -0.19000
C 	C 	0.37491 0.49934 0.23365 0.28400
F 	F 	0.46917 0.56294 0.23328 -0.37500
F 	F 	0.43615 0.42623 0.25849 -0.35400
F 	F 	0.11872 0.44187 0.21117 -0.36500
C 	C 	0.69994 0.01845 0.22842 0.29000
C 	C 	0.71041 0.98545 0.20414 -0.18200
C 	C 	0.80714 0.00526 0.19554 0.28900
F 	F 	0.60798 0.00400 0.23636 -0.33700
F 	F 	0.81959 0.97895 0.17116 -0.37900
C 	C 	0.36153 0.93452 0.22774 0.29600
C 	C 	0.30702 0.85724 0.23844 -0.17500
C 	C 	0.22349 0.83822 0.25457 0.29500
C 	C 	0.19586 0.89617 0.26043 0.29400
C 	C 	0.25425 0.97502 0.25119 -0.16400
C 	C 	0.33714 0.99379 0.23476 0.29700
F 	F 	0.39178 0.06855 0.22476 -0.35400
F 	F 	0.43380 0.95073 0.20927 -0.37000
F 	F 	0.11261 0.87572 0.27522 -0.36900
F 	F 	0.16862 0.76336 0.26448 -0.35100
C 	C 	0.67802 0.92979 0.36177 0.29200
C 	C 	0.64712 0.84999 0.35451 -0.18100
C 	C 	0.71001 0.83266 0.33879 0.28800
F 	F 	0.61741 0.94750 0.37672 -0.36500
F 	F 	0.67980 0.75613 0.33100 -0.35000
C 	C 	0.24520 0.43549 0.38464 0.27900
C 	C 	0.34808 0.48231 0.39050 -0.18800
C 	C 	0.41227 0.45085 0.38563 0.28800
C 	C 	0.37584 0.37716 0.37224 0.28500
C 	C 	0.27532 0.33504 0.36327 -0.17800
C 	C 	0.20884 0.36234 0.37098 0.28100
F 	F 	0.11035 0.32076 0.36370 -0.36900
F 	F 	0.18139 0.46327 0.39072 -0.38200
F 	F 	0.43922 0.34842 0.36690 -0.35700
F 	F 	0.51133 0.49413 0.39217 -0.36500
C 	C 	0.37358 0.93470 0.35180 0.29500
C 	C 	0.34947 0.92165 0.37922 -0.18200
C 	C 	0.29743 0.95659 0.39139 0.28800
C 	C 	0.26284 0.99869 0.37575 0.28900
C 	C 	0.28019 0.00604 0.34792 -0.18300
C 	C 	0.33888 0.97657 0.33620 0.29500
F 	F 	0.36085 0.98740 0.30957 -0.36400
F 	F 	0.42668 0.90347 0.34002 -0.34900
F 	F 	0.20893 0.02941 0.38740 -0.36600
F 	F 	0.27487 0.94532 0.41798 -0.38000
C 	C 	0.67437 0.12759 0.58412 0.01700
C 	C 	0.72393 0.12877 0.56056 -0.05700
C 	C 	0.84283 0.06480 0.48674 0.01000
C 	C 	0.87426 0.03684 0.50875 -0.01800
C 	C 	0.88794 0.07383 0.53400 -0.03100
C 	C 	0.76809 0.00687 0.46873 0.08000
C 	C 	0.69831 0.95504 0.45627 -0.07400
H 	H 	0.59707 0.11451 0.58285 0.05000
H 	H 	0.68342 0.11400 0.54149 0.06100
H 	H 	0.87368 0.98030 0.50722 0.05800
H 	H 	0.89745 0.04539 0.55170 0.06000
C 	C 	0.02382 0.55351 0.45223 0.08100
C 	C 	0.09745 0.59602 0.43937 -0.05000
H 	H 	0.58361 0.35241 0.58157 0.04400
C 	C 	0.44477 0.36635 0.66027 -0.05500
C 	C 	0.52626 0.44414 0.65827 0.02800
C 	C 	0.52248 0.49730 0.63983 -0.04800
C 	C 	0.43697 0.47306 0.62342 0.03600
C 	C 	0.35170 0.39854 0.62760 -0.04900
C 	C 	0.35554 0.34539 0.64597 0.02500
C 	C 	0.44244 0.51896 0.59924 0.01300
C 	C 	0.37566 0.54862 0.59572 -0.03000
C 	C 	0.37343 0.58413 0.57140 -0.02200
C 	C 	0.43784 0.59005 0.55052 0.00400
C 	C 	0.50580 0.56186 0.55421 -0.02400
C 	C 	0.50809 0.52638 0.57846 -0.03200
C 	C 	0.43499 0.62545 0.52534 0.05800
C 	C 	0.43571 0.65552 0.50408 -0.07900
H 	H 	0.59495 0.46150 0.66958 0.06200
H 	H 	0.58800 0.55548 0.63716 0.07300
H 	H 	0.28464 0.37986 0.61538 0.06200
H 	H 	0.29112 0.28624 0.64795 0.07000
H 	H 	0.32453 0.54297 0.61163 0.06700
H 	H 	0.32116 0.60635 0.56873 0.06000
H 	H 	0.55612 0.56664 0.53818 0.05400
H 	H 	0.55910 0.50283 0.58086 0.05000
F 	F 	0.56102 0.02234 0.70688 -0.36300
C 	C 	0.19836 0.99145 0.69333 0.28200
C 	C 	0.29426 0.00939 0.70267 -0.17000
C 	C 	0.30305 0.97571 0.72688 0.28500
C 	C 	0.22012 0.93641 0.74362 0.29700
C 	C 	0.12794 0.93009 0.73613 -0.17800
C 	C 	0.11562 0.95330 0.71029 0.29500
F 	F 	0.02515 0.94347 0.70229 -0.36100
F 	F 	0.18769 0.01966 0.66923 -0.37500
F 	F 	0.23147 0.91063 0.76813 -0.35300
F 	F 	0.39448 0.98978 0.73573 -0.33500
C 	C 	0.07293 0.43960 0.96543 -0.05500
C 	C 	0.09084 0.51838 0.96771 0.03100
C 	C 	0.14286 0.56649 0.99186 0.01600
C 	C 	0.08821 0.58232 0.01122 -0.03800
C 	C 	0.12998 0.61166 0.03670 -0.02500
C 	C 	0.22694 0.62619 0.04296 -0.00400
C 	C 	0.28408 0.61530 0.02315 -0.02200
C 	C 	0.24220 0.58558 0.99763 -0.03500
C 	C 	0.26385 0.64523 0.07026 0.05700
C 	C 	0.29169 0.65995 0.09341 -0.09500
H 	H 	0.11036 0.41836 0.97898 0.06600
H 	H 	0.08553 0.62019 0.05191 0.04400
H 	H 	0.35952 0.62713 0.02779 0.05400
H 	H 	0.28529 0.57416 0.98277 0.06500
C 	C 	0.25564 0.83938 0.11889 -0.06200
C 	C 	0.29705 0.91564 0.10764 0.02400
C 	C 	0.25962 0.92627 0.08321 -0.05100
C 	C 	0.18115 0.86049 0.06968 0.03100
C 	C 	0.13316 0.78593 0.08227 -0.05200
C 	C 	0.16986 0.77555 0.10695 0.01300
C 	C 	0.16370 0.86670 0.04078 0.00900
C 	C 	0.20078 0.83347 0.02180 -0.03100
C 	C 	0.22890 0.86754 0.99633 -0.02200
C 	C 	0.22003 0.93474 0.98990 0.01400
C 	C 	0.16484 0.95715 0.00682 -0.02100
C 	C 	0.13674 0.92319 0.03231 -0.03000
C 	C 	0.29145 0.99302 0.97197 0.07300
C 	C 	0.35681 0.04536 0.95910 -0.06700
H 	H 	0.36168 0.96578 0.11707 0.06800
H 	H 	0.29622 0.98443 0.07384 0.06200
H 	H 	0.07097 0.73522 0.07231 0.05300
H 	H 	0.13584 0.71674 0.11583 0.04700
H 	H 	0.21842 0.78761 0.02777 0.04900
H 	H 	0.26760 0.84739 0.98286 0.06600
H 	H 	0.15359 0.00683 0.00150 0.06200
H 	H 	0.10387 0.94680 0.04643 0.06100
C 	C 	0.63109 0.35012 0.00584 -0.06900
C 	C 	0.72799 0.40102 0.01625 0.01900
C 	C 	0.74046 0.43862 0.04141 -0.05600
C 	C 	0.65619 0.42619 0.05626 0.03400
C 	C 	0.55961 0.37421 0.04603 -0.05700
C 	C 	0.54710 0.33609 0.02111 0.02000
C 	C 	0.66838 0.47287 0.08125 0.00900
C 	C 	0.61553 0.43405 0.10454 -0.02600
C 	C 	0.60578 0.47832 0.12569 -0.02200
C 	C 	0.65052 0.56164 0.12393 0.01400
C 	C 	0.71142 0.60091 0.10192 -0.02700
C 	C 	0.72004 0.55677 0.08061 -0.03100
C 	C 	0.62102 0.60532 0.14197 0.06700
C 	C 	0.59596 0.64501 0.15538 -0.05400
H 	H 	0.81544 0.47843 0.04913 0.05300
H 	H 	0.49404 0.36472 0.05715 0.06000
H 	H 	0.47193 0.29592 0.01362 0.05100
H 	H 	0.57748 0.36941 0.10559 0.06200
H 	H 	0.55965 0.44753 0.14279 0.07600
H 	H 	0.74735 0.66545 0.10059 0.05900
H 	H 	0.76199 0.58757 0.06293 0.04900
F 	F 	0.59264 0.10102 0.83494 -0.35500
C 	C 	0.30615 0.16808 0.83930 0.29400
C 	C 	0.36434 0.14722 0.85575 -0.18500
C 	C 	0.32882 0.06665 0.86216 0.29400
C 	C 	0.23348 0.00784 0.85330 0.28800
C 	C 	0.17401 0.02891 0.83727 -0.16800
C 	C 	0.21215 0.10926 0.82978 0.28300
F 	F 	0.15883 0.13012 0.81289 -0.35800
F 	F 	0.34085 0.24560 0.83254 -0.34100
F 	F 	0.19796 0.93087 0.86087 -0.35100
F 	F 	0.38533 0.04574 0.87776 -0.36800
F 	F 	0.48946 0.46416 0.87099 -0.35300
C 	C 	0.04425 0.54574 0.94946 -0.02500
H 	H 	0.05990 0.60719 0.95049 0.07900
H 	H 	0.01145 0.56775 0.00698 0.05300
O 	O 	0.68532 0.29311 0.97041 -0.36800
C 	C 	0.66564 0.13922 0.88857 0.41600
Ni	Ni	0.67358 0.29461 0.88260 1.13600
H 	H 	0.66767 0.32987 0.92615 0.15700
C 	C 	0.67639 0.15561 0.63332 0.28800
C 	C 	0.78148 0.05656 0.24624 0.29200
F 	F 	0.76839 0.08096 0.27090 -0.34700
C 	C 	0.80465 0.89383 0.33135 0.28500
C 	C 	0.77350 0.99106 0.35469 0.29100
C 	C 	0.72518 0.14584 0.60909 -0.06900
C 	C 	0.65014 0.35312 0.57390 0.02000
H 	H 	0.63876 0.39862 0.53523 0.06000
H 	H 	0.79350 0.41249 0.00472 0.04400
C 	C 	0.63860 0.06262 0.84588 0.29500
F 	F 	0.63814 0.00692 0.80278 -0.35600
C 	C 	0.65440 0.50980 0.88904 -0.19500
C 	C 	0.58677 0.52256 0.87351 0.29400
F 	F 	0.86332 0.87609 0.31554 -0.38200
C 	C 	0.68040 0.30965 0.61902 0.29300
C 	C 	0.68136 0.37930 0.54760 -0.05900
C 	C 	0.82483 0.14748 0.56153 0.02900
C 	C 	0.87224 0.13956 0.53682 0.00800
C 	C 	0.85318 0.14140 0.48837 -0.02300
O 	O 	0.71887 0.21263 0.87972 -0.35200
C 	C 	0.68662 0.18124 0.72541 0.37900
O 	O 	0.67209 0.33567 0.72724 -0.33400
O 	O 	0.72902 0.18336 0.65599 -0.35000
C 	C 	0.88851 0.04207 0.21355 0.28500
C 	C 	0.87396 0.06293 0.23958 -0.17200
C 	C 	0.83823 0.97318 0.33993 -0.18200
F 	F 	0.80411 0.06732 0.36288 -0.35100
C 	C 	0.70722 0.33108 0.59051 -0.07900
C 	C 	0.64208 0.03759 0.72240 0.29500
C 	C 	0.66639 0.07368 0.87329 -0.18500
C 	C 	0.66174 0.01461 0.82948 0.29400
F 	F 	0.55393 0.60561 0.84463 -0.34900
F 	F 	0.59761 0.90003 0.71938 -0.35400
C 	C 	0.62061 0.59365 0.85927 0.27800
Ni	Ni	0.73979 0.28345 0.67533 1.11900
O 	O 	0.75366 0.33052 0.63684 -0.35500
C 	C 	0.82606 0.16354 0.61014 0.01700
C 	C 	0.86922 0.17946 0.51352 -0.03100
H 	H 	0.83582 0.16650 0.47100 0.07000
C 	C 	0.66281 0.97565 0.72791 0.29900
C 	C 	0.70767 0.11587 0.73168 -0.17300
C 	C 	0.72331 0.39925 0.71272 0.39500
C 	C 	0.87559 0.16435 0.58643 -0.05700
C 	C 	0.76924 0.38292 0.53763 0.03300
C 	C 	0.75248 0.57268 0.89319 0.28300
O 	O 	0.75725 0.24714 0.71390 -0.32400
C 	C 	0.79362 0.33300 0.58019 0.01900
O 	O 	0.76148 0.39314 0.68987 -0.33700
C 	C 	0.71042 0.03117 0.88460 0.29100
H 	H 	0.86648 0.17762 0.62920 0.05800
F 	F 	0.81473 0.56458 0.91088 -0.41000
O 	O 	0.80534 0.27609 0.92769 -0.35600
O 	O 	0.81100 0.37074 0.89791 -0.34100
C 	C 	0.81121 0.42182 0.51165 0.01000
O 	O 	0.69639 0.85738 0.82000 -0.31800
H 	H 	0.80690 0.31760 0.49336 0.05200
C 	C 	0.79747 0.13263 0.74488 0.29000
C 	C 	0.82506 0.54867 0.71684 0.28200
C 	C 	0.73566 0.47723 0.72185 -0.19300
C 	C 	0.71205 0.97664 0.84040 -0.17700
C 	C 	0.72364 0.65105 0.85955 -0.16100
C 	C 	0.82367 0.35780 0.55387 -0.06100
H 	H 	0.82561 0.53545 0.52366 0.05300
O 	O 	0.70666 0.70215 0.81644 -0.29400
F 	F 	0.73666 0.04059 0.91113 -0.38400
C 	C 	0.75160 0.99202 0.74168 -0.18400
O 	O 	0.69592 0.86525 0.76326 -0.30600
C 	C 	0.83956 0.62128 0.72765 0.28000
H 	H 	0.86510 0.23397 0.51530 0.04400
C 	C 	0.73311 0.98270 0.86816 0.27800
C 	C 	0.78734 0.64331 0.87855 0.27000
Ni	Ni	0.72086 0.79253 0.79011 1.13400
O 	O 	0.74370 0.73367 0.75782 -0.32700
C 	C 	0.83473 0.38126 0.49180 -0.02700
H 	H 	0.83866 0.31664 0.59276 0.04100
C 	C 	0.65879 0.48024 0.73639 0.27900
F 	F 	0.08640 0.30427 0.23596 -0.36500
Ni	Ni	0.07586 0.18962 0.30475 1.14400
F 	F 	0.57193 0.41221 0.74153 -0.37600
C 	C 	0.74972 0.93663 0.82244 0.38400
C 	C 	0.76466 0.62325 0.74329 -0.19000
C 	C 	0.76631 0.71001 0.83739 0.36600
Ni	Ni	0.06843 0.02352 0.29384 1.15100
C 	C 	0.67279 0.55306 0.74661 0.28500
C 	C 	0.84885 0.35089 0.91887 0.29000
C 	C 	0.76791 0.92563 0.75044 0.40500
C 	C 	0.79037 0.69224 0.76105 0.41300
C 	C 	0.84422 0.50363 0.50869 -0.02900
F 	F 	0.59959 0.55445 0.76152 -0.35700
C 	C 	0.82039 0.07152 0.74938 0.29600
H 	H 	0.89170 0.36055 0.54645 0.05200
O 	O 	0.81800 0.98126 0.80429 -0.31600
F 	F 	0.77979 0.94469 0.87897 -0.37600
F 	F 	0.86246 0.20821 0.75350 -0.35600
F 	F 	0.97970 0.05285 0.20632 -0.37200
O 	O 	0.83817 0.69795 0.78373 -0.35200
C 	C 	0.89967 0.42384 0.47089 -0.02000
H 	H 	0.85411 0.86293 0.81838 0.17300
C 	C 	0.93940 0.03743 0.33253 0.40000
C 	C 	0.95027 0.08268 0.26059 0.38900
O 	O 	0.85934 0.93753 0.75217 -0.33800
O 	O 	0.86579 0.75500 0.83588 -0.31400
O 	O 	0.85847 0.85457 0.79894 -0.72800
O 	O 	0.95031 0.10504 0.32306 -0.30900
O 	O 	0.94978 0.02224 0.27402 -0.32800
C 	C 	0.90798 0.54590 0.48759 -0.02100
H 	H 	0.92243 0.39288 0.45665 0.07300
F 	F 	0.89994 0.54726 0.70277 -0.37200
F 	F 	0.88295 0.70333 0.88256 -0.36500
H 	H 	0.98365 0.32443 0.94667 0.05000
H 	H 	0.95303 0.17764 0.58743 0.06000
C 	C 	0.94466 0.41102 0.93134 -0.06800
F 	F 	0.90863 0.08938 0.76170 -0.39700
C 	C 	0.93953 0.50682 0.46937 0.00600
H 	H 	0.93740 0.60989 0.48634 0.06000
F 	F 	0.92836 0.68916 0.72403 -0.37100
Ni	Ni	0.92843 0.96236 0.78842 1.14600
C 	C 	0.00038 0.38617 0.94727 0.05100
H 	H 	0.93403 0.51330 0.91782 0.10300
Ni	Ni	0.93810 0.80388 0.80109 1.13300
O 	O 	0.99696 0.15730 0.27014 -0.31400
C 	C 	0.97208 0.49233 0.93114 0.00500
O 	O 	0.01187 0.02063 0.33010 -0.33700
