data_crystal

_cell_length_a 18.66869
_cell_length_b 18.88467
_cell_length_c 26.52083
_cell_angle_alpha 95.42179
_cell_angle_beta  95.42249
_cell_angle_gamma 126.41900

_symmetry_space_group_name_	'P 1'
_symmetry_space_group_name_H-M	'P 1'

loop_
_symmetry_equiv_pos_as_xyz
  x,y,z

loop_
_atom_site_label
_atom_site_type_symbol
_atom_site_fract_x
_atom_site_fract_y
_atom_site_fract_z
_atom_site_charge
C 	C 	0.94546 0.03252 0.00192 0.21500
C 	C 	0.88797 0.94002 0.00054 -0.10700
C 	C 	0.92236 0.89150 0.99934 0.22100
C 	C 	0.01454 0.93509 0.99989 -0.12900
C 	C 	0.07287 0.02749 0.00123 0.22700
C 	C 	0.03839 0.07667 0.00210 -0.11300
H 	H 	0.81615 0.90560 0.99966 0.12800
H 	H 	0.04075 0.89693 0.99859 0.13200
H 	H 	0.08313 0.14814 0.00263 0.14100
C 	C 	0.91613 0.00418 0.44552 0.22000
C 	C 	0.00980 0.06003 0.44661 -0.12300
C 	C 	0.05858 0.02561 0.45008 0.23000
C 	C 	0.01385 0.93488 0.45157 -0.12500
C 	C 	0.92021 0.87796 0.45000 0.22100
C 	C 	0.87100 0.91267 0.44725 -0.11700
H 	H 	0.04502 0.13069 0.44606 0.13600
H 	H 	0.05208 0.90865 0.45441 0.13200
H 	H 	0.79875 0.86927 0.44693 0.13900
Cu	Cu	0.62104 0.21271 0.01185 0.93300
Cu	Cu	0.67220 0.19194 0.89763 0.90500
Cu	Cu	0.64220 0.33870 0.94001 0.92000
Cu	Cu	0.59621 0.36276 0.04198 0.91800
C 	C 	0.64476 0.28594 0.11824 0.28900
O 	O 	0.48495 0.14380 0.01124 -0.31600
C 	C 	0.66067 0.30504 0.83816 0.28700
O 	O 	0.67542 0.34783 0.01255 -0.63100
O 	O 	0.60099 0.21332 0.93675 -0.62900
O 	O 	0.70682 0.18048 0.01604 -0.32100
O 	O 	0.66060 0.10523 0.93319 -0.37300
O 	O 	0.59208 0.30793 0.10329 -0.33100
O 	O 	0.69117 0.46250 0.94466 -0.34100
C 	C 	0.69293 0.51105 0.98464 0.38900
C 	C 	0.44122 0.17359 0.99267 0.38100
O 	O 	0.48705 0.25484 0.98283 -0.37200
O 	O 	0.63489 0.47355 0.01606 -0.33700
O 	O 	0.65304 0.23460 0.08590 -0.31400
C 	C 	0.71002 0.13107 0.97914 0.38100
O 	O 	0.61791 0.32449 0.86581 -0.33200
O 	O 	0.71536 0.29053 0.86092 -0.38600
H 	H 	0.74064 0.39454 0.02706 0.18700
H 	H 	0.53626 0.16980 0.92029 0.18800
Cu	Cu	0.76170 0.34756 0.44425 0.93400
Cu	Cu	0.75219 0.27087 0.55154 0.90400
Cu	Cu	0.62278 0.30275 0.51360 0.90800
Cu	Cu	0.59907 0.35432 0.41316 0.91700
C 	C 	0.69513 0.32990 0.33743 0.28800
O 	O 	0.82106 0.48100 0.44690 -0.32100
C 	C 	0.68550 0.32512 0.62576 0.28900
O 	O 	0.62186 0.28007 0.44116 -0.63500
O 	O 	0.75446 0.35898 0.51853 -0.63400
O 	O 	0.81615 0.28170 0.44418 -0.32600
O 	O 	0.71742 0.18692 0.49169 -0.39800
O 	O 	0.66180 0.37146 0.35332 -0.33300
O 	O 	0.49318 0.24034 0.50401 -0.34200
C 	C 	0.44465 0.24405 0.46623 0.39600
C 	C 	0.78365 0.51710 0.46480 0.38400
O 	O 	0.70117 0.46490 0.47387 -0.36300
O 	O 	0.48315 0.30593 0.43738 -0.34300
O 	O 	0.74427 0.31906 0.37037 -0.31500
C 	C 	0.77642 0.20624 0.46189 0.38600
O 	O 	0.62112 0.30693 0.58851 -0.33700
O 	O 	0.75475 0.32808 0.61540 -0.38100
H 	H 	0.58003 0.21604 0.42443 0.19000
H 	H 	0.79502 0.42067 0.53900 0.20200
C 	C 	0.66180 0.31723 0.78411 -0.05500
C 	C 	0.74084 0.39020 0.77113 0.00000
C 	C 	0.74666 0.39792 0.71938 0.04100
C 	C 	0.67352 0.33055 0.67993 -0.04600
C 	C 	0.59226 0.26097 0.69315 -0.00900
C 	C 	0.58611 0.25388 0.74495 0.04400
S 	S 	0.84427 0.49373 0.70463 0.05100
S 	S 	0.48452 0.16354 0.76011 0.01300
H 	H 	0.43046 0.18856 0.76828 0.08900
H 	H 	0.90668 0.47862 0.69924 0.06000
H 	H 	0.79813 0.44063 0.80130 0.07200
H 	H 	0.53518 0.20996 0.66305 0.07900
C 	C 	0.67363 0.29782 0.17404 -0.04300
C 	C 	0.63614 0.22235 0.19747 0.00700
C 	C 	0.64838 0.23224 0.25139 0.03900
C 	C 	0.69865 0.31841 0.28221 -0.03500
C 	C 	0.74230 0.39398 0.25878 -0.00600
C 	C 	0.73001 0.38415 0.20499 0.04100
S 	S 	0.59749 0.13622 0.27968 0.06700
S 	S 	0.78534 0.48041 0.17683 0.05100
H 	H 	0.86756 0.50327 0.16894 0.07000
H 	H 	0.51313 0.10815 0.28663 0.06200
H 	H 	0.59416 0.15582 0.17380 0.09100
H 	H 	0.78323 0.46048 0.28243 0.10600
C 	C 	0.85341 0.75173 0.49847 0.25300
C 	C 	0.87471 0.78222 0.45184 -0.14000
C 	C 	0.86867 0.72612 0.41003 0.24900
C 	C 	0.84376 0.64140 0.41514 0.29000
C 	C 	0.82349 0.61125 0.46198 -0.20300
C 	C 	0.82773 0.66662 0.50348 0.29200
F 	F 	0.80728 0.63804 0.54877 -0.37800
F 	F 	0.86026 0.80565 0.53943 -0.35300
F 	F 	0.83687 0.58760 0.37409 -0.38800
F 	F 	0.88895 0.75467 0.36472 -0.35800
C 	C 	0.85350 0.07537 0.40437 0.25100
C 	C 	0.86767 0.04401 0.44744 -0.13900
C 	C 	0.85070 0.06517 0.49481 0.25200
C 	C 	0.82290 0.11953 0.49969 0.29100
C 	C 	0.81012 0.15232 0.45688 -0.20700
C 	C 	0.82471 0.12918 0.40904 0.29700
F 	F 	0.81033 0.15807 0.36703 -0.37200
F 	F 	0.86964 0.05539 0.35831 -0.35400
F 	F 	0.81106 0.14267 0.54648 -0.41100
F 	F 	0.86533 0.03645 0.53685 -0.35400
C 	C 	0.19483 0.09045 0.40972 0.25700
C 	C 	0.15734 0.08521 0.45388 -0.14700
C 	C 	0.21431 0.13276 0.50217 0.25300
C 	C 	0.30831 0.18456 0.50637 0.29600
C 	C 	0.34593 0.18901 0.46222 -0.20300
C 	C 	0.28878 0.14219 0.41383 0.29200
F 	F 	0.32439 0.14562 0.37096 -0.38300
F 	F 	0.14002 0.04442 0.36290 -0.34900
F 	F 	0.36290 0.23154 0.55314 -0.37000
F 	F 	0.17838 0.12801 0.54506 -0.35900
C 	C 	0.80593 0.73813 0.94868 0.25200
C 	C 	0.86119 0.79432 0.99596 -0.15200
C 	C 	0.85896 0.75743 0.03977 0.26200
C 	C 	0.80282 0.66468 0.03618 0.29700
C 	C 	0.74855 0.60826 0.98869 -0.21100
C 	C 	0.74959 0.64536 0.94504 0.29800
F 	F 	0.69531 0.59146 0.89930 -0.36700
F 	F 	0.80754 0.77364 0.90621 -0.36000
F 	F 	0.80265 0.62936 0.07850 -0.39100
F 	F 	0.91183 0.81165 0.08571 -0.35000
C 	C 	0.82650 0.12084 0.94741 0.29400
C 	C 	0.78021 0.11728 0.98726 -0.21500
C 	C 	0.80299 0.10283 0.03527 0.30500
C 	C 	0.86670 0.08618 0.04216 0.24500
C 	C 	0.90641 0.08132 0.00079 -0.12700
C 	C 	0.88902 0.10264 0.95416 0.24300
F 	F 	0.92872 0.10052 0.91431 -0.35400
F 	F 	0.81074 0.14165 0.90212 -0.40900
F 	F 	0.88528 0.06859 0.08803 -0.35200
F 	F 	0.76072 0.10123 0.07458 -0.36700
C 	C 	0.19994 0.08729 0.95308 0.24500
C 	C 	0.16937 0.07137 0.00006 -0.13500
C 	C 	0.22621 0.08143 0.04346 0.24900
C 	C 	0.31288 0.10748 0.03995 0.29800
C 	C 	0.34400 0.12470 0.99312 -0.21200
C 	C 	0.28663 0.11349 0.94957 0.29500
F 	F 	0.31580 0.12984 0.90405 -0.38400
F 	F 	0.14475 0.07537 0.91051 -0.35300
F 	F 	0.36811 0.11977 0.08263 -0.37800
F 	F 	0.19685 0.06482 0.08891 -0.35300
