data_crystal

_cell_length_a 24.45733
_cell_length_b 24.95236
_cell_length_c 30.87559
_cell_angle_alpha 95.49903
_cell_angle_beta  95.50056
_cell_angle_gamma 125.83573

_symmetry_space_group_name_	'P 1'
_symmetry_space_group_name_H-M	'P 1'

loop_
_symmetry_equiv_pos_as_xyz
  x,y,z

loop_
_atom_site_label
_atom_site_type_symbol
_atom_site_fract_x
_atom_site_fract_y
_atom_site_fract_z
_atom_site_charge
C 	C 	0.05323 0.09091 0.99608 -0.02800
C 	C 	0.07542 0.05095 0.98664 -0.01500
C 	C 	0.02797 0.98054 0.97915 -0.03200
H 	H 	0.08995 0.14531 0.00309 0.04600
H 	H 	0.04523 0.94969 0.97292 0.05000
C 	C 	0.01189 0.97251 0.45111 -0.03300
H 	H 	0.00156 0.87996 0.44111 0.04600
H 	H 	0.00555 0.05535 0.45838 0.04400
C 	C 	0.18775 0.09479 0.44787 0.11200
C 	C 	0.24007 0.13531 0.42479 -0.08500
C 	C 	0.29514 0.13135 0.42687 0.00800
C 	C 	0.30053 0.09217 0.45298 0.11900
C 	C 	0.24835 0.05188 0.47615 -0.09600
C 	C 	0.19353 0.05611 0.47429 0.02900
O 	O 	0.12072 0.07288 0.43467 -0.21700
C 	C 	0.08704 0.01631 0.45464 0.13000
C 	C 	0.12988 0.00637 0.47868 -0.10900
O 	O 	0.36734 0.11379 0.46622 -0.19100
C 	C 	0.40146 0.17043 0.44639 0.04100
C 	C 	0.35906 0.18136 0.42280 -0.05900
H 	H 	0.23667 0.16679 0.40460 0.06600
H 	H 	0.25175 0.02039 0.49634 0.06800
H 	H 	0.11446 0.95949 0.48841 0.06100
H 	H 	0.37488 0.22970 0.41564 0.05600
C 	C 	0.36978 0.21079 0.98198 0.12100
C 	C 	0.31039 0.20303 0.96332 -0.09600
C 	C 	0.24649 0.14265 0.96427 0.02700
C 	C 	0.24145 0.09382 0.98513 0.11500
C 	C 	0.30096 0.10155 0.00348 -0.08900
C 	C 	0.36467 0.16187 0.00249 0.00600
O 	O 	0.43312 0.25443 0.97000 -0.19400
O 	O 	0.17934 0.05236 0.99903 -0.21600
C 	C 	0.14851 0.08234 0.98567 0.12300
C 	C 	0.18780 0.13564 0.96454 -0.10600
H 	H 	0.31383 0.24174 0.94774 0.06800
H 	H 	0.29766 0.06312 0.01934 0.06600
H 	H 	0.18014 0.17330 0.95934 0.06300
C 	C 	0.42370 0.16964 0.00293 -0.06200
C 	C 	0.54029 0.26443 0.99262 0.25100
O 	O 	0.51097 0.21572 0.49002 -0.35600
C 	C 	0.47654 0.21934 0.45628 0.25500
O 	O 	0.50694 0.27127 0.43582 -0.38100
H 	H 	0.53484 0.18430 0.71078 0.04500
C 	C 	0.46511 0.22609 0.98487 0.04300
H 	H 	0.44022 0.14547 0.02180 0.05900
H 	H 	0.54343 0.18382 0.63188 0.03600
O 	O 	0.56968 0.23986 0.01153 -0.35500
O 	O 	0.57825 0.32633 0.98536 -0.36900
C 	C 	0.57844 0.22801 0.70119 -0.05700
H 	H 	0.58878 0.23659 0.78898 0.04000
H 	H 	0.58535 0.20930 0.42370 0.16600
C 	C 	0.58308 0.22789 0.65640 0.00600
H 	H 	0.61605 0.25465 0.93360 0.17500
Cu	Cu	0.59897 0.31456 0.41873 0.89500
O 	O 	0.60139 0.25666 0.56455 -0.38100
Cu	Cu	0.60943 0.26469 0.50201 0.89800
O 	O 	0.61520 0.25617 0.44048 -0.64000
C 	C 	0.63102 0.28344 0.73350 0.01400
C 	C 	0.63020 0.28133 0.77874 -0.01900
C 	C 	0.64055 0.28290 0.64352 -0.07200
H 	H 	0.65008 0.19208 0.21682 0.04700
H 	H 	0.64846 0.19819 0.29691 0.03400
O 	O 	0.65174 0.33327 0.36944 -0.38200
C 	C 	0.65165 0.27730 0.59791 0.28400
O 	O 	0.65248 0.36212 0.08993 -0.38100
C 	C 	0.97715 0.00122 0.45437 -0.00900
C 	C 	0.97493 0.90230 0.44466 -0.01200
H 	H 	0.95083 0.08374 0.50767 0.06300
C 	C 	0.98375 0.06046 0.99737 -0.00800
C 	C 	0.95833 0.94995 0.97967 -0.01200
C 	C 	0.93643 0.98992 0.98870 -0.02900
H 	H 	0.88234 0.96610 0.98802 0.05300
C 	C 	0.90604 0.96030 0.45319 -0.02500
C 	C 	0.86911 0.89010 0.44625 -0.01900
C 	C 	0.90362 0.86091 0.44269 -0.02400
H 	H 	0.81390 0.85841 0.44412 0.04800
Cu	Cu	0.67143 0.28376 0.01503 0.92700
Cu	Cu	0.72890 0.28092 0.92357 0.87200
Cu	Cu	0.70568 0.38232 0.95226 0.89900
Cu	Cu	0.66352 0.40501 0.03685 0.89500
C 	C 	0.68751 0.34064 0.10495 0.28300
C 	C 	0.68920 0.33002 0.85764 0.28400
O 	O 	0.72153 0.38686 0.01498 -0.63900
O 	O 	0.66348 0.28513 0.95094 -0.64100
O 	O 	0.72029 0.24187 0.01787 -0.35100
O 	O 	0.79478 0.30884 0.97516 -0.42700
O 	O 	0.74910 0.47731 0.95810 -0.36100
C 	C 	0.72733 0.50824 0.97875 0.26200
O 	O 	0.70263 0.49189 0.01556 -0.38300
O 	O 	0.69283 0.29967 0.07846 -0.35700
C 	C 	0.77959 0.27035 0.00492 0.25100
O 	O 	0.70798 0.38143 0.88844 -0.38100
O 	O 	0.68451 0.27765 0.86803 -0.41600
H 	H 	0.77045 0.41846 0.02960 0.16700
Cu	Cu	0.72143 0.30780 0.44697 0.92900
Cu	Cu	0.71167 0.24428 0.53675 0.87500
C 	C 	0.68012 0.30464 0.35566 0.28400
O 	O 	0.76551 0.40724 0.45280 -0.35400
O 	O 	0.71045 0.31030 0.50977 -0.63900
O 	O 	0.76685 0.26250 0.44696 -0.35300
O 	O 	0.69079 0.18519 0.48410 -0.42800
C 	C 	0.73786 0.43398 0.47055 0.24800
O 	O 	0.67282 0.39530 0.47392 -0.36700
O 	O 	0.71349 0.29188 0.38392 -0.35800
C 	C 	0.73710 0.20386 0.45911 0.25700
O 	O 	0.70692 0.28262 0.59132 -0.41400
H 	H 	0.73854 0.35565 0.52870 0.17600
C 	C 	0.68416 0.33619 0.81079 -0.07200
C 	C 	0.73698 0.39464 0.79758 0.00600
C 	C 	0.73843 0.39684 0.75262 -0.05600
C 	C 	0.68670 0.34076 0.72039 0.01400
C 	C 	0.69130 0.34007 0.67540 -0.01800
H 	H 	0.77847 0.43741 0.82217 0.03800
H 	H 	0.78067 0.44153 0.74293 0.04500
H 	H 	0.73523 0.38293 0.66532 0.04000
C 	C 	0.70461 0.34801 0.15319 -0.06800
C 	C 	0.73291 0.40989 0.18070 0.00500
C 	C 	0.73908 0.41497 0.22660 -0.05500
C 	C 	0.71651 0.35804 0.24552 0.01600
C 	C 	0.69122 0.29635 0.21823 0.01600
C 	C 	0.68592 0.29176 0.17209 -0.01600
C 	C 	0.66866 0.23942 0.23730 -0.05400
C 	C 	0.66799 0.24291 0.28274 0.00500
C 	C 	0.68978 0.30322 0.30945 -0.06700
C 	C 	0.71607 0.36122 0.29106 -0.01700
H 	H 	0.74846 0.45371 0.16638 0.02600
H 	H 	0.75966 0.46278 0.24733 0.04600
H 	H 	0.66437 0.24396 0.15089 0.05200
H 	H 	0.73428 0.40820 0.31197 0.04600
C 	C 	0.79172 0.60071 0.48729 0.11800
C 	C 	0.77206 0.64283 0.48235 -0.09700
C 	C 	0.80128 0.68788 0.45307 0.02700
C 	C 	0.85100 0.69405 0.43158 0.11300
C 	C 	0.87174 0.65300 0.43730 -0.08700
C 	C 	0.84293 0.60824 0.46679 0.00800
O 	O 	0.74795 0.53749 0.49794 -0.19300
C 	C 	0.77708 0.50751 0.48115 0.04000
C 	C 	0.83393 0.54948 0.46289 -0.05900
O 	O 	0.89307 0.75582 0.41886 -0.21800
C 	C 	0.86533 0.78701 0.43609 0.12700
C 	C 	0.81050 0.74679 0.45658 -0.10700
H 	H 	0.73309 0.63847 0.49914 0.06800
H 	H 	0.91061 0.65732 0.42041 0.06600
H 	H 	0.85143 0.53225 0.43796 0.05900
H 	H 	0.79525 0.76560 0.48219 0.06200
C 	C 	0.81159 0.12612 0.48625 0.12100
C 	C 	0.86186 0.11924 0.50333 -0.10000
C 	C 	0.84874 0.05642 0.49180 0.02900
C 	C 	0.79419 0.00658 0.45893 0.11000
C 	C 	0.74700 0.01602 0.43916 -0.08100
C 	C 	0.75434 0.07447 0.45633 0.00100
O 	O 	0.82420 0.18816 0.48701 -0.20700
C 	C 	0.76777 0.16839 0.45523 0.03600
C 	C 	0.72813 0.10130 0.43518 -0.05200
O 	O 	0.80424 0.96195 0.43789 -0.21700
C 	C 	0.87048 0.99087 0.46065 0.12700
C 	C 	0.89703 0.04658 0.49293 -0.10800
H 	H 	0.91051 0.16192 0.52305 0.06700
H 	H 	0.70872 0.98119 0.41011 0.06400
H 	H 	0.67617 0.07288 0.41658 0.04900
C 	C 	0.81498 0.77922 0.96805 0.11100
C 	C 	0.76685 0.72247 0.98481 -0.08000
C 	C 	0.74814 0.65966 0.96478 0.00400
C 	C 	0.78327 0.65446 0.93419 0.12000
C 	C 	0.83526 0.71215 0.91994 -0.09600
C 	C 	0.84624 0.77322 0.93493 0.02800
O 	O 	0.85125 0.84409 0.99241 -0.21600
C 	C 	0.90805 0.87599 0.97155 0.12400
C 	C 	0.90520 0.83440 0.93712 -0.10600
O 	O 	0.78112 0.59735 0.93229 -0.18700
C 	C 	0.74262 0.56981 0.96520 0.04100
C 	C 	0.72260 0.60624 0.98464 -0.05200
H 	H 	0.74814 0.72770 0.01414 0.06200
H 	H 	0.86869 0.71029 0.90027 0.06900
H 	H 	0.94829 0.84498 0.92246 0.06200
H 	H 	0.70838 0.60353 0.01699 0.05200
C 	C 	0.85930 0.19772 0.04067 0.11700
C 	C 	0.85044 0.13702 0.04182 -0.09500
C 	C 	0.88793 0.12374 0.01734 0.02200
C 	C 	0.93670 0.17041 0.99602 0.11500
C 	C 	0.94766 0.23216 0.99608 -0.08600
C 	C 	0.90880 0.24517 0.01951 0.00500
O 	O 	0.80644 0.20317 0.04438 -0.18800
C 	C 	0.82767 0.25679 0.02231 0.03800
C 	C 	0.88879 0.28245 0.00777 -0.06300
O 	O 	0.98469 0.15982 0.98702 -0.21400
C 	C 	0.96002 0.10245 0.00579 0.11600
C 	C 	0.90258 0.08100 0.02415 -0.10400
H 	H 	0.81234 0.09969 0.05859 0.06800
H 	H 	0.98510 0.26881 0.97864 0.06400
H 	H 	0.90409 0.30985 0.98072 0.05000
H 	H 	0.88402 0.04752 0.04781 0.06300
