data_crystal

_cell_length_a 16.22962
_cell_length_b 16.32038
_cell_length_c 37.95184
_cell_angle_alpha 89.87619
_cell_angle_beta  89.87822
_cell_angle_gamma 119.38970

_symmetry_space_group_name_	'P 1'
_symmetry_space_group_name_H-M	'P 1'

loop_
_symmetry_equiv_pos_as_xyz
  x,y,z

loop_
_atom_site_label
_atom_site_type_symbol
_atom_site_fract_x
_atom_site_fract_y
_atom_site_fract_z
_atom_site_charge
Ni	Ni	0.05525 0.92605 0.75453 1.09900
Ni	Ni	0.05594 0.12516 0.74865 1.10600
O 	O 	0.07222 0.21036 0.26537 -0.37000
C 	C 	0.08061 0.13157 0.10845 0.09900
N 	N 	0.04206 0.05447 0.09878 -0.10200
C 	C 	0.06192 0.12299 0.35869 0.08600
N 	N 	0.05631 0.23635 0.43899 -0.10800
N 	N 	0.03316 0.53900 0.34453 -0.09700
C 	C 	0.05838 0.62595 0.48255 -0.15000
C 	C 	0.03390 0.59775 0.51760 -0.07700
H 	H 	0.01719 0.70736 0.42417 0.15600
C 	C 	0.13619 0.51412 0.96289 0.18100
C 	C 	0.13264 0.52537 0.99971 -0.09800
C 	C 	0.05892 0.45383 0.01929 -0.09300
C 	C 	0.05033 0.81923 0.84745 0.05100
O 	O 	0.13124 0.99859 0.79791 -0.37600
O 	O 	0.11130 0.10410 0.70481 -0.40100
C 	C 	0.08029 0.17419 0.18386 0.26600
C 	C 	0.12375 0.19076 0.28719 0.28400
C 	C 	0.02494 0.88636 0.19197 0.26400
C 	C 	0.04981 0.88898 0.28540 0.23800
Ni	Ni	0.10624 0.05010 0.23462 1.11700
O 	O 	0.06075 0.97728 0.19053 -0.38700
C 	C 	0.12396 0.24902 0.15649 -0.04900
C 	C 	0.12920 0.22802 0.12044 -0.00100
C 	C 	0.17730 0.28552 0.05871 0.09500
N 	N 	0.17109 0.27208 0.02865 -0.10600
C 	C 	0.07286 0.75915 0.19639 -0.04200
C 	C 	0.14001 0.28986 0.37790 0.01000
C 	C 	0.12267 0.22230 0.35148 -0.00100
C 	C 	0.09348 0.26016 0.41188 0.09300
C 	C 	0.04943 0.75617 0.32061 -0.04700
C 	C 	0.09058 0.85348 0.31317 -0.03100
C 	C 	0.06520 0.61921 0.34039 0.09300
H 	H 	0.08868 0.61228 0.53683 0.07000
H 	H 	0.05945 0.45693 0.04782 0.07500
H 	H 	0.19156 0.62655 0.93599 0.16600
N 	N 	0.12618 0.85245 0.83602 -0.10100
C 	C 	0.08403 0.84353 0.18067 -0.04400
C 	C 	0.10542 0.71969 0.33525 0.02200
O 	O 	0.10712 0.94020 0.25942 -0.37300
C 	C 	0.06314 0.43598 0.94615 -0.09200
H 	H 	0.06417 0.43090 0.91769 0.07300
N 	N 	0.10677 0.13163 0.88091 -0.10900
N 	N 	0.07192 0.70807 0.92554 -0.10200
N 	N 	0.14005 0.59363 0.22426 -0.09700
C 	C 	0.13782 0.65208 0.20767 0.08400
O 	O 	0.13775 0.16792 0.20669 -0.36100
C 	C 	0.13512 0.72546 0.18696 0.02700
O 	O 	0.21051 0.57978 0.94324 -0.27200
C 	C 	0.16544 0.25144 0.31810 -0.05300
C 	C 	0.18902 0.09007 0.79818 0.28800
C 	C 	0.18127 0.08720 0.70579 0.31200
O 	O 	0.17217 0.15101 0.77973 -0.36400
O 	O 	0.17563 0.01747 0.72501 -0.36700
C 	C 	0.14967 0.64214 0.46971 0.34800
O 	O 	0.15796 0.56918 0.46034 -0.38400
C 	C 	0.21501 0.60137 0.01793 0.31800
O 	O 	0.20368 0.65862 0.03970 -0.34900
O 	O 	0.15613 0.13380 0.27751 -0.36500
C 	C 	0.18021 0.34140 0.16787 0.00400
C 	C 	0.18510 0.30251 0.09628 0.00500
C 	C 	0.16109 0.37155 0.20134 0.09700
N 	N 	0.14583 0.39605 0.22795 -0.10000
N 	N 	0.15069 0.91839 0.63725 -0.10500
C 	C 	0.17404 0.13126 0.87097 0.09000
N 	N 	0.13631 0.28781 0.67031 -0.10400
C 	C 	0.20643 0.45993 0.39568 0.30800
O 	O 	0.22358 0.54024 0.38293 -0.36800
O 	O 	0.22380 0.45490 0.42928 -0.36700
O 	O 	0.22486 0.72453 0.47452 -0.39500
O 	O 	0.21137 0.68338 0.10713 -0.38000
C 	C 	0.24723 0.39370 0.10927 -0.04900
C 	C 	0.15525 0.88859 0.15473 -0.00800
C 	C 	0.19585 0.83955 0.13904 0.02100
C 	C 	0.19188 0.76089 0.15660 -0.08100
C 	C 	0.20079 0.38650 0.37069 -0.07100
C 	C 	0.20039 0.78099 0.34496 -0.06400
C 	C 	0.18231 0.91463 0.32608 -0.00800
C 	C 	0.19627 0.99857 0.64164 0.10200
C 	C 	0.06067 0.24538 0.65901 0.04200
N 	N 	0.03525 0.41251 0.60456 -0.14600
C 	C 	0.23790 0.34413 0.31315 0.00600
O 	O 	0.23360 0.74811 0.40331 -0.37500
C 	C 	0.24916 0.74756 0.36958 0.30800
C 	C 	0.23107 0.70593 0.13954 0.31800
C 	C 	0.26974 0.47928 0.08761 0.28400
O 	O 	0.25945 0.54262 0.10412 -0.36900
C 	C 	0.25415 0.40506 0.14652 0.01000
C 	C 	0.19167 0.98670 0.14555 0.10000
C 	C 	0.22942 0.86279 0.10304 0.05600
C 	C 	0.25320 0.41291 0.33844 0.01500
C 	C 	0.23945 0.87825 0.33890 0.01100
C 	C 	0.21454 0.01406 0.32963 0.09100
C 	C 	0.25970 0.13760 0.68083 -0.06300
C 	C 	0.25409 0.09883 0.64717 0.00800
C 	C 	0.25829 0.13074 0.85848 0.00500
N 	N 	0.22192 0.06518 0.13824 -0.10500
O 	O 	0.29867 0.62370 0.00602 -0.37600
Ni	Ni	0.28078 0.56873 0.46308 1.12300
N 	N 	0.25477 0.88211 0.07417 -0.14300
C 	C 	0.29631 0.36895 0.28165 0.10900
N 	N 	0.24194 0.09368 0.33313 -0.10200
H 	H 	0.27341 0.80120 0.54063 0.07300
N 	N 	0.26238 0.10842 0.55419 -0.09800
C 	C 	0.27201 0.12544 0.82196 -0.05300
C 	C 	0.28346 0.12980 0.58322 0.10000
O 	O 	0.31695 0.73186 0.35808 -0.35300
Ni	Ni	0.30821 0.75786 0.07055 1.12700
O 	O 	0.30350 0.70316 0.15294 -0.35700
O 	O 	0.32855 0.50490 0.05943 -0.34000
C 	C 	0.30920 0.15726 0.61946 0.01100
N 	N 	0.29424 0.13148 0.95037 -0.10000
O 	O 	0.01078 0.64372 0.42425 -0.31000
N 	N 	0.01352 0.04367 0.36439 -0.11600
C 	C 	0.30814 0.13256 0.92041 0.09700
Ni	Ni	0.33404 0.77935 0.44030 1.12300
O 	O 	0.32608 0.65206 0.50739 -0.36600
C 	C 	0.33322 0.48478 0.16290 0.06100
C 	C 	0.32093 0.51034 0.33063 0.06500
H 	H 	0.29771 0.34479 0.45136 0.07100
C 	C 	0.32390 0.23443 0.68633 0.00900
C 	C 	0.32783 0.27738 0.72013 0.08600
N 	N 	0.33181 0.31255 0.74699 -0.10400
C 	C 	0.32566 0.13399 0.88288 0.00500
O 	O 	0.33516 0.96867 0.56813 -0.27800
O 	O 	0.34643 0.67137 0.43102 -0.71800
N 	N 	0.34290 0.38868 0.25655 -0.09600
C 	C 	0.33818 0.94172 0.34669 0.09100
C 	C 	0.34443 0.83206 0.55114 -0.06200
H 	H 	0.34290 0.99856 0.54468 0.16600
H 	H 	0.30375 0.16722 0.46249 0.15500
C 	C 	0.35407 0.12379 0.81033 0.00300
O 	O 	0.32688 0.21596 0.48111 -0.27300
Ni	Ni	0.36121 0.64625 0.38438 1.12200
O 	O 	0.37755 0.82454 0.02673 -0.37300
C 	C 	0.37045 0.11911 0.77303 0.09400
Ni	Ni	0.37924 0.65244 0.12346 1.12300
O 	O 	0.37936 0.69739 0.07743 -0.71500
N 	N 	0.38472 0.11528 0.74337 -0.10100
C 	C 	0.01198 0.71379 0.91129 0.05300
C 	C 	0.38788 0.74447 0.50956 0.31500
Ni	Ni	0.40332 0.64305 0.03757 1.12400
N 	N 	0.37459 0.87050 0.21785 -0.09900
N 	N 	0.37511 0.58759 0.32378 -0.14100
C 	C 	0.38557 0.92176 0.56617 0.17900
C 	C 	0.37049 0.35976 0.45006 -0.06000
C 	C 	0.38543 0.24609 0.62701 -0.06600
C 	C 	0.38476 0.28915 0.65884 0.00800
N 	N 	0.39504 0.54744 0.17710 -0.12400
O 	O 	0.39757 0.55534 0.46080 -0.37200
C 	C 	0.40088 0.79115 0.54366 -0.09500
O 	O 	0.41961 0.40144 0.07773 -0.27100
O 	O 	0.41180 0.55249 0.39963 -0.34800
H 	H 	0.41141 0.69413 0.43941 0.17600
O 	O 	0.40469 0.85757 0.10786 -0.34600
C 	C 	0.39515 0.29618 0.46511 0.17300
N 	N 	0.40913 0.80803 0.29287 -0.09300
C 	C 	0.41968 0.52410 0.43211 0.30900
O 	O 	0.41889 0.79935 0.48129 -0.37700
C 	C 	0.41129 0.14092 0.87088 -0.05300
N 	N 	0.41690 0.99300 0.35279 -0.10000
C 	C 	0.41908 0.12358 0.83501 0.00400
H 	H 	0.43929 0.37966 0.01012 0.07800
H 	H 	0.44492 0.36248 0.08809 0.16300
O 	O 	0.44263 0.86728 0.40659 -0.35900
H 	H 	0.44204 0.75239 0.07618 0.16200
C 	C 	0.44054 0.44590 0.43615 -0.09200
H 	H 	0.44521 0.97595 0.05787 0.07200
C 	C 	0.44473 0.89149 0.20313 0.10100
C 	C 	0.44333 0.38995 0.66264 0.10100
O 	O 	0.46306 0.58830 0.11018 -0.34800
C 	C 	0.46498 0.84420 0.02147 0.30200
C 	C 	0.47643 0.27233 0.61025 0.31500
C 	C 	0.47789 0.84045 0.30930 0.09800
C 	C 	0.47944 0.86007 0.12596 0.26600
C 	C 	0.48076 0.96589 0.57665 -0.10100
O 	O 	0.48412 0.77460 0.01567 -0.34100
C 	C 	0.48600 0.09427 0.82404 0.10500
C 	C 	0.48764 0.82522 0.56127 0.17100
C 	C 	0.99302 0.70195 0.21906 0.15300
O 	O 	0.99118 0.14318 0.19275 -0.32200
H 	H 	0.99053 0.01762 0.27495 0.16500
N 	N 	0.89297 0.27789 0.71621 -0.09800
O 	O 	0.98153 0.01702 0.24926 -0.70500
C 	C 	0.98737 0.61199 0.45828 0.25300
H 	H 	0.99277 0.00324 0.78571 0.17300
O 	O 	0.98525 0.14770 0.78716 -0.35700
O 	O 	0.94488 0.83553 0.20893 -0.33400
O 	O 	0.95600 0.85558 0.28373 -0.32800
O 	O 	0.99188 0.99592 0.75992 -0.70200
N 	N 	0.92879 0.65524 0.23684 -0.10600
C 	C 	0.94819 0.69594 0.31753 0.15600
H 	H 	0.93067 0.25944 0.02519 0.17000
C 	C 	0.49866 0.19927 0.89163 0.29100
C 	C 	0.81107 0.57016 0.91803 0.30800
C 	C 	0.73716 0.31350 0.85441 0.30900
C 	C 	0.60542 0.45027 0.97625 0.30700
C 	C 	0.89118 0.35524 0.94826 0.32500
C 	C 	0.67179 0.20689 0.99586 0.31000
Ni	Ni	0.64312 0.39655 0.89971 1.11400
Ni	Ni	0.76112 0.41283 0.97060 1.12700
Ni	Ni	0.69632 0.23772 0.92136 1.12800
O 	O 	0.51195 0.28142 0.90194 -0.37300
O 	O 	0.56972 0.17890 0.89167 -0.34500
O 	O 	0.87286 0.42383 0.94556 -0.37700
O 	O 	0.77858 0.50479 0.89445 -0.36700
O 	O 	0.79820 0.54673 0.95186 -0.34100
O 	O 	0.63115 0.17499 0.96519 -0.38000
O 	O 	0.66792 0.33432 0.85374 -0.34500
O 	O 	0.77807 0.32318 0.88380 -0.38400
O 	O 	0.73888 0.29717 0.00061 -0.34300
O 	O 	0.60941 0.46635 0.94102 -0.34400
O 	O 	0.64597 0.40642 0.99083 -0.37700
O 	O 	0.82180 0.26790 0.94479 -0.36300
O 	O 	0.67521 0.33677 0.93519 -0.71700
H 	H 	0.61445 0.30118 0.94770 0.18500
C 	C 	0.77816 0.42894 0.50622 0.30400
C 	C 	0.53878 0.06892 0.57389 0.32500
C 	C 	0.52205 0.27647 0.49431 0.32300
C 	C 	0.79681 0.21607 0.58396 0.28000
C 	C 	0.73008 0.46811 0.61941 0.29300
Ni	Ni	0.66404 0.22546 0.52548 1.11700
Ni	Ni	0.64782 0.25401 0.60968 1.12500
Ni	Ni	0.61697 0.38519 0.55564 1.12500
O 	O 	0.77545 0.34640 0.50444 -0.35700
O 	O 	0.70032 0.43513 0.51148 -0.36800
O 	O 	0.51098 0.21528 0.61413 -0.38100
O 	O 	0.54187 0.10913 0.54355 -0.37100
O 	O 	0.60162 0.11573 0.59840 -0.37400
O 	O 	0.72027 0.48014 0.58549 -0.37200
O 	O 	0.58467 0.24975 0.48693 -0.35400
O 	O 	0.50785 0.29011 0.52706 -0.37900
O 	O 	0.69585 0.38213 0.63388 -0.36200
O 	O 	0.75189 0.18395 0.55313 -0.34600
O 	O 	0.77885 0.27055 0.60480 -0.36700
O 	O 	0.52758 0.35687 0.59668 -0.38100
O 	O 	0.66470 0.30142 0.56318 -0.71900
H 	H 	0.73262 0.34697 0.56475 0.16500
C 	C 	0.89478 0.80080 0.70881 0.30400
C 	C 	0.89780 0.83049 0.80952 0.28200
C 	C 	0.91487 0.06645 0.69176 0.31100
C 	C 	0.89380 0.11912 0.78373 0.29300
Ni	Ni	0.85881 0.93258 0.75165 1.12300
O 	O 	0.86773 0.97670 0.70098 -0.36800
O 	O 	0.98613 0.85850 0.70877 -0.34700
O 	O 	0.84095 0.80823 0.73296 -0.36700
O 	O 	0.83309 0.03490 0.77067 -0.36400
O 	O 	0.95141 0.81781 0.78591 -0.33400
O 	O 	0.84832 0.87320 0.80035 -0.34800
O 	O 	0.96144 0.13079 0.71574 -0.36200
C 	C 	0.50348 0.84856 0.38938 0.29500
O 	O 	0.49292 0.76328 0.38873 -0.36200
C 	C 	0.52303 0.61448 0.08351 0.33200
O 	O 	0.52371 0.67380 0.06121 -0.39300
O 	O 	0.48882 0.78430 0.13110 -0.35400
C 	C 	0.81334 0.97297 0.30051 0.29100
C 	C 	0.77504 0.95920 0.20587 0.29900
Ni	Ni	0.94313 0.10794 0.24495 1.12200
Ni	Ni	0.88972 0.88801 0.24461 1.12400
O 	O 	0.88033 0.06140 0.29428 -0.34900
O 	O 	0.80169 0.90156 0.27987 -0.36200
O 	O 	0.80450 0.02840 0.22831 -0.36600
O 	O 	0.81585 0.90603 0.20387 -0.35200
C 	C 	0.69219 0.94002 0.18348 -0.05500
C 	C 	0.70675 0.99064 0.15147 0.00800
C 	C 	0.63189 0.00055 0.13678 -0.00200
C 	C 	0.53955 0.94044 0.14875 -0.04800
C 	C 	0.53221 0.91791 0.18461 0.00000
C 	C 	0.60130 0.89909 0.19928 0.01000
C 	C 	0.79938 0.03882 0.13537 0.10100
C 	C 	0.57160 0.81912 0.22236 0.09400
C 	C 	0.65347 0.08972 0.12151 0.09200
N 	N 	0.54614 0.75336 0.24009 -0.09800
N 	N 	0.67312 0.16282 0.11009 -0.10700
N 	N 	0.87319 0.07791 0.12226 -0.08900
C 	C 	0.56892 0.91623 0.36317 -0.05200
C 	C 	0.56439 0.88139 0.32928 0.00300
C 	C 	0.64265 0.87775 0.31680 0.00700
C 	C 	0.73231 0.95465 0.32426 -0.05000
C 	C 	0.73949 0.01451 0.35287 0.00500
C 	C 	0.65781 0.98987 0.37415 0.00400
C 	C 	0.82643 0.10062 0.35969 0.10900
C 	C 	0.66563 0.03801 0.40698 0.10400
C 	C 	0.63326 0.78598 0.31097 0.11000
N 	N 	0.67182 0.07649 0.43325 -0.10800
N 	N 	0.62583 0.71248 0.30660 -0.09800
N 	N 	0.89530 0.17015 0.36521 -0.09100
N 	N 	0.86720 0.64773 0.31529 -0.10400
C 	C 	0.52584 0.91155 0.57897 -0.04900
H 	H 	0.59341 0.93931 0.59193 0.07300
O 	O 	0.53956 0.78003 0.55796 -0.27000
H 	H 	0.52051 0.73615 0.57830 0.15900
C 	C 	0.93942 0.53891 0.52668 0.20900
C 	C 	0.86857 0.51413 0.50113 -0.09300
C 	C 	0.89226 0.55639 0.46775 -0.06600
O 	O 	0.91659 0.50196 0.56008 -0.28100
H 	H 	0.83765 0.53929 0.44820 0.08400
H 	H 	0.91845 0.44218 0.55911 0.16500
C 	C 	0.49058 0.31853 0.46637 -0.10400
C 	C 	0.55823 0.39766 0.44759 -0.05400
C 	C 	0.53377 0.46214 0.43296 0.17100
H 	H 	0.63110 0.41293 0.44655 0.07900
O 	O 	0.60255 0.54409 0.41812 -0.27200
H 	H 	0.60285 0.52984 0.39274 0.16500
C 	C 	0.90560 0.09788 0.65523 -0.06600
C 	C 	0.83206 0.03843 0.63180 0.01300
C 	C 	0.81517 0.07772 0.60123 -0.00500
C 	C 	0.85452 0.17582 0.59857 -0.03900
C 	C 	0.93642 0.23316 0.61817 -0.02500
C 	C 	0.96604 0.19259 0.64472 0.06200
C 	C 	0.77465 0.93856 0.63852 0.10100
C 	C 	0.99117 0.33284 0.61055 0.15300
C 	C 	0.77400 0.02021 0.57039 0.10400
N 	N 	0.74171 0.97445 0.54559 -0.09500
N 	N 	0.72839 0.85868 0.64373 -0.10500
N 	N 	0.48988 0.47056 0.66560 -0.10300
C 	C 	0.85517 0.71597 0.68624 -0.05800
C 	C 	0.86895 0.72557 0.64957 0.01100
C 	C 	0.83444 0.64513 0.62806 0.00400
C 	C 	0.77485 0.55383 0.64270 -0.04600
C 	C 	0.75376 0.54614 0.67934 0.00300
C 	C 	0.80050 0.62562 0.70123 0.00900
C 	C 	0.91465 0.81858 0.63361 0.11100
C 	C 	0.67812 0.45964 0.69406 0.11000
C 	C 	0.79234 0.61418 0.73924 0.10700
C 	C 	0.85812 0.65777 0.59086 0.11700
N 	N 	0.78574 0.60517 0.76955 -0.09600
N 	N 	0.87709 0.66961 0.56120 -0.09400
N 	N 	0.61771 0.39073 0.70585 -0.10200
N 	N 	0.95076 0.89264 0.62086 -0.09000
C 	C 	0.98073 0.37607 0.96482 -0.07200
C 	C 	0.98483 0.37712 0.00193 0.20500
O 	O 	0.91219 0.30831 0.02117 -0.27700
C 	C 	0.65483 0.13622 0.02261 -0.08300
C 	C 	0.69306 0.07642 0.01630 -0.05500
C 	C 	0.63371 0.97828 0.01737 0.17800
C 	C 	0.54057 0.94129 0.02993 -0.10200
C 	C 	0.51413 0.00309 0.04583 -0.05400
C 	C 	0.56946 0.10008 0.04125 0.17700
H 	H 	0.76286 0.10506 0.00465 0.07900
O 	O 	0.66631 0.91998 0.00557 -0.26600
O 	O 	0.53041 0.15654 0.04786 -0.27400
H 	H 	0.54696 0.17773 0.07254 0.16500
H 	H 	0.65348 0.91344 0.97989 0.16200
C 	C 	0.57694 0.50055 0.00093 -0.08700
C 	C 	0.49435 0.44533 0.02082 -0.06800
C 	C 	0.49052 0.46556 0.05658 0.17700
C 	C 	0.55771 0.55291 0.07010 -0.11300
C 	C 	0.64513 0.59884 0.05281 -0.04700
C 	C 	0.65057 0.58162 0.01692 0.16800
H 	H 	0.70309 0.66026 0.06481 0.07700
O 	O 	0.73277 0.63691 0.99879 -0.27100
H 	H 	0.72767 0.69207 0.99074 0.16600
C 	C 	0.73931 0.24210 0.83044 -0.06800
C 	C 	0.77664 0.27004 0.79614 0.01200
C 	C 	0.83137 0.23288 0.78071 0.00300
C 	C 	0.85411 0.17315 0.80074 -0.05100
C 	C 	0.81810 0.14754 0.83474 0.00600
C 	C 	0.74828 0.16742 0.84643 0.01200
C 	C 	0.76449 0.34107 0.77780 0.09800
C 	C 	0.84822 0.09458 0.85699 0.10300
C 	C 	0.68666 0.11056 0.87466 0.03400
C 	C 	0.86571 0.25777 0.74485 0.09700
N 	N 	0.63919 0.06228 0.89714 -0.11900
N 	N 	0.87211 0.05226 0.87467 -0.09300
N 	N 	0.75509 0.39818 0.76321 -0.09700
N 	N 	0.53815 0.06955 0.81476 -0.10200
C 	C 	0.88183 0.78337 0.84522 -0.04800
C 	C 	0.79175 0.74251 0.86183 0.00400
C 	C 	0.77597 0.69164 0.89370 0.00100
C 	C 	0.84379 0.66829 0.90610 -0.06300
C 	C 	0.93680 0.72087 0.89350 0.04000
C 	C 	0.95596 0.77567 0.86237 0.03400
C 	C 	0.71351 0.74689 0.84531 0.10300
C 	C 	0.69082 0.66522 0.91387 0.08900
N 	N 	0.62240 0.64544 0.92962 -0.10300
N 	N 	0.65084 0.75016 0.83221 -0.10300
