data_crystal

_cell_length_a 27.08503
_cell_length_b 28.86278
_cell_length_c 39.11479
_cell_angle_alpha 61.10142
_cell_angle_beta  118.60566
_cell_angle_gamma 133.21456

_symmetry_space_group_name_	'P 1'
_symmetry_space_group_name_H-M	'P 1'

loop_
_symmetry_equiv_pos_as_xyz
  x,y,z

loop_
_atom_site_label
_atom_site_type_symbol
_atom_site_fract_x
_atom_site_fract_y
_atom_site_fract_z
_atom_site_charge
C 	C 	0.74820 0.31912 0.03038 0.14900
N 	N 	0.77690 0.38347 0.02312 -0.13200
C 	C 	0.75189 0.39994 0.03496 0.14500
N 	N 	0.69895 0.35246 0.05396 -0.14600
C 	C 	0.67052 0.28851 0.06145 0.14500
N 	N 	0.69556 0.27184 0.04991 -0.13000
C 	C 	0.71143 0.30883 0.51677 0.14500
N 	N 	0.64691 0.28020 0.51932 -0.12500
C 	C 	0.63419 0.31583 0.52263 0.14700
N 	N 	0.68536 0.38005 0.52226 -0.14600
C 	C 	0.75109 0.40699 0.52371 0.14800
N 	N 	0.76423 0.37152 0.52066 -0.13700
C 	C 	0.30078 0.63129 0.24178 0.15100
N 	N 	0.37044 0.66220 0.25029 -0.14100
C 	C 	0.39472 0.63614 0.24733 0.15200
N 	N 	0.34895 0.57795 0.23722 -0.14000
C 	C 	0.27950 0.54699 0.22851 0.15500
N 	N 	0.25530 0.57377 0.23065 -0.13900
C 	C 	0.24934 0.62321 0.71122 0.14900
N 	N 	0.31878 0.65134 0.72271 -0.13500
C 	C 	0.34251 0.62262 0.72240 0.15100
N 	N 	0.29676 0.56589 0.71060 -0.14500
C 	C 	0.22762 0.53776 0.69882 0.14800
N 	N 	0.20361 0.56663 0.69876 -0.13800
Co	Co	0.05920 0.02405 0.06472 1.18600
Co	Co	0.00456 0.06739 0.09523 1.18000
C 	C 	0.19263 0.06042 0.06418 0.32800
Co	Co	0.07484 0.91972 0.06675 1.16700
O 	O 	0.05387 0.09599 0.05552 -0.45800
C 	C 	0.80568 0.90509 0.13975 0.32500
C 	C 	0.06257 0.16297 0.14123 0.32300
C 	C 	0.11179 0.87422 0.15519 0.32200
O 	O 	0.82278 0.96474 0.12695 -0.39400
O 	O 	0.83971 0.89230 0.13457 -0.39100
O 	O 	0.02370 0.11460 0.16737 -0.39300
O 	O 	0.07282 0.15191 0.11668 -0.37500
O 	O 	0.13832 0.91713 0.12348 -0.39800
O 	O 	0.06657 0.86969 0.16387 -0.37900
O 	O 	0.04659 0.95126 0.08813 -0.76200
O 	O 	0.15292 0.01502 0.04452 -0.41000
O 	O 	0.16540 0.07697 0.07250 -0.37600
Co	Co	0.03686 0.00970 0.56800 1.18400
Co	Co	0.96207 0.03305 0.59781 1.19100
C 	C 	0.18374 0.08609 0.56880 0.33500
Co	Co	0.10629 0.94355 0.58101 1.17300
O 	O 	0.00763 0.06622 0.55451 -0.46400
C 	C 	0.78916 0.85467 0.66948 0.32000
C 	C 	0.01585 0.12949 0.64050 0.29200
C 	C 	0.15600 0.92543 0.66826 0.32300
O 	O 	0.79615 0.91004 0.64826 -0.39400
O 	O 	0.83447 0.84569 0.67435 -0.36600
O 	O 	0.98357 0.08504 0.66991 -0.37100
O 	O 	0.03256 0.11521 0.62185 -0.39200
O 	O 	0.17661 0.96522 0.63468 -0.37800
O 	O 	0.10926 0.91896 0.67660 -0.38800
O 	O 	0.04331 0.94710 0.59498 -0.76300
O 	O 	0.15941 0.04218 0.55207 -0.40200
O 	O 	0.14300 0.07849 0.58319 -0.40100
C 	C 	0.07535 0.03878 0.90415 -0.03700
C 	C 	0.07020 0.04530 0.93555 0.01800
C 	C 	0.14327 0.07144 0.89925 0.09700
C 	C 	0.87893 0.92773 0.92930 0.09500
C 	C 	0.98711 0.91953 0.80978 0.04800
C 	C 	0.99546 0.92907 0.84501 -0.02600
C 	C 	0.98027 0.87617 0.88102 0.10600
C 	C 	0.12545 0.10319 0.95111 0.08100
N 	N 	0.96812 0.83397 0.90979 -0.10300
N 	N 	0.19755 0.09754 0.89534 -0.10800
N 	N 	0.16902 0.14991 0.96322 -0.10700
N 	N 	0.82573 0.89990 0.93545 -0.10200
N 	N 	0.83420 0.90126 0.83446 -0.10900
C 	C 	0.06153 0.97942 0.41589 -0.02500
C 	C 	0.07021 0.98395 0.45296 0.01800
C 	C 	0.13223 0.99459 0.48431 0.07400
C 	C 	0.08389 0.09180 0.32709 0.10400
C 	C 	0.11098 0.97920 0.41074 0.09200
N 	N 	0.11934 0.14215 0.33429 -0.11100
N 	N 	0.85349 0.96932 0.32938 -0.10400
N 	N 	0.86657 0.96300 0.43834 -0.09800
N 	N 	0.18190 0.00290 0.50904 -0.12500
N 	N 	0.15037 0.97902 0.40658 -0.10600
C 	C 	0.13972 0.36535 0.70040 -0.09800
C 	C 	0.12850 0.37189 0.65990 -0.00900
C 	C 	0.13901 0.43004 0.63144 0.13600
C 	C 	0.16375 0.48220 0.64393 -0.06400
C 	C 	0.17971 0.47737 0.68484 -0.05800
C 	C 	0.16569 0.41790 0.71297 0.16500
C 	C 	0.10250 0.31645 0.64718 0.01600
O 	O 	0.12523 0.43606 0.59146 -0.27900
H 	H 	0.17442 0.52779 0.62206 0.06600
O 	O 	0.17850 0.41147 0.75290 -0.27700
H 	H 	0.12960 0.31993 0.72230 0.07400
C 	C 	0.14695 0.30073 0.65560 0.11600
C 	C 	0.11936 0.24250 0.64879 -0.02700
C 	C 	0.04725 0.19853 0.63522 -0.11300
C 	C 	0.00383 0.21676 0.62427 0.17200
C 	C 	0.03174 0.27584 0.62978 -0.12900
O 	O 	0.21714 0.34205 0.67047 -0.27000
H 	H 	0.15354 0.22993 0.65622 0.06800
O 	O 	0.93387 0.17639 0.60876 -0.27300
H 	H 	0.99756 0.28846 0.62231 0.10100
H 	H 	0.22693 0.42468 0.76451 0.15700
H 	H 	0.22397 0.32652 0.70010 0.15100
H 	H 	0.91210 0.15024 0.63200 0.15300
H 	H 	0.16944 0.45447 0.58704 0.15500
C 	C 	0.60222 0.73447 0.67450 -0.11400
C 	C 	0.60866 0.73432 0.71233 0.01000
C 	C 	0.67448 0.76192 0.73894 0.12400
C 	C 	0.73383 0.79401 0.72636 -0.03300
C 	C 	0.72809 0.80100 0.68681 -0.11900
C 	C 	0.66174 0.76849 0.66146 0.19900
C 	C 	0.54771 0.71130 0.72219 -0.00300
O 	O 	0.68109 0.75887 0.77688 -0.26400
H 	H 	0.78479 0.81785 0.74634 0.06600
O 	O 	0.65511 0.77140 0.62356 -0.28300
H 	H 	0.55131 0.71135 0.65436 0.07600
C 	C 	0.52202 0.74898 0.70342 0.13100
C 	C 	0.45748 0.72210 0.70722 -0.06200
C 	C 	0.41771 0.65726 0.72910 -0.05600
C 	C 	0.44671 0.62208 0.75107 0.16700
C 	C 	0.51153 0.64922 0.74751 -0.09400
O 	O 	0.55974 0.81190 0.68114 -0.27400
H 	H 	0.43644 0.75020 0.69103 0.07000
O 	O 	0.41178 0.56129 0.77607 -0.27400
H 	H 	0.53234 0.62095 0.76319 0.08200
H 	H 	0.65441 0.80985 0.60592 0.15800
H 	H 	0.54312 0.80800 0.65326 0.14800
H 	H 	0.38578 0.52955 0.75992 0.15300
H 	H 	0.68850 0.79903 0.77438 0.15900
C 	C 	0.20827 0.69411 0.74501 -0.09400
C 	C 	0.20066 0.73793 0.70924 -0.00500
C 	C 	0.20247 0.73920 0.67336 0.13700
C 	C 	0.21422 0.69851 0.67378 -0.06300
C 	C 	0.22449 0.65653 0.70980 -0.05600
C 	C 	0.22005 0.65341 0.74539 0.16500
C 	C 	0.19483 0.78522 0.70968 0.01100
O 	O 	0.19680 0.78282 0.63834 -0.27800
H 	H 	0.21789 0.70140 0.64632 0.06900
O 	O 	0.23034 0.61284 0.78088 -0.27500
H 	H 	0.20673 0.69266 0.77271 0.07400
C 	C 	0.13176 0.76466 0.71191 0.11400
C 	C 	0.12180 0.81141 0.70322 -0.02800
C 	C 	0.17449 0.87869 0.69212 -0.12500
C 	C 	0.24058 0.89877 0.69535 0.19700
C 	C 	0.25045 0.85206 0.70405 -0.11000
O 	O 	0.07798 0.69923 0.71946 -0.27700
H 	H 	0.07133 0.79519 0.70204 0.05200
O 	O 	0.29543 0.96404 0.68973 -0.27600
H 	H 	0.30043 0.86807 0.70450 0.08400
H 	H 	0.18342 0.57077 0.78262 0.15500
H 	H 	0.08388 0.68474 0.74900 0.14900
H 	H 	0.29690 0.97903 0.66123 0.16300
H 	H 	0.14663 0.75855 0.62489 0.15800
C 	C 	0.17372 0.37728 0.21752 -0.09300
C 	C 	0.17708 0.39140 0.17864 -0.00600
C 	C 	0.20404 0.45548 0.15424 0.13100
C 	C 	0.23042 0.50541 0.16947 -0.06200
C 	C 	0.23225 0.49234 0.20942 -0.06100
C 	C 	0.20127 0.42757 0.23296 0.16600
C 	C 	0.15429 0.33947 0.16404 0.01000
O 	O 	0.20556 0.46954 0.11571 -0.27500
H 	H 	0.25355 0.55520 0.15105 0.06900
O 	O 	0.20208 0.41404 0.27194 -0.27600
H 	H 	0.15165 0.32769 0.23617 0.08100
C 	C 	0.19172 0.31286 0.18135 0.11500
C 	C 	0.16506 0.25840 0.17061 -0.02400
C 	C 	0.10135 0.23051 0.14264 -0.12300
C 	C 	0.06838 0.26187 0.12209 0.19300
C 	C 	0.09402 0.31528 0.13342 -0.11300
O 	O 	0.25267 0.33820 0.20997 -0.26500
H 	H 	0.19258 0.23645 0.18512 0.06700
H 	H 	0.06622 0.33697 0.11900 0.08500
H 	H 	0.15822 0.40412 0.27055 0.15300
H 	H 	0.28989 0.37273 0.19487 0.14800
H 	H 	0.25097 0.48153 0.11793 0.14900
C 	C 	0.55884 0.68140 0.24269 -0.09500
C 	C 	0.58740 0.74600 0.21937 -0.00300
C 	C 	0.56129 0.77854 0.21347 0.13500
C 	C 	0.50154 0.74392 0.22644 -0.06200
C 	C 	0.46815 0.67699 0.24590 -0.05600
C 	C 	0.50009 0.64717 0.25655 0.16700
C 	C 	0.64080 0.77775 0.19863 0.01200
O 	O 	0.59175 0.84316 0.19301 -0.27600
H 	H 	0.47891 0.76814 0.21920 0.06800
O 	O 	0.47415 0.58482 0.28066 -0.27400
H 	H 	0.58051 0.65688 0.24878 0.07200
C 	C 	0.70744 0.79329 0.22070 0.11700
C 	C 	0.75959 0.82936 0.20060 -0.02900
C 	C 	0.74656 0.85205 0.15873 -0.12900
C 	C 	0.67902 0.83358 0.13654 0.20300
C 	C 	0.62602 0.79530 0.15650 -0.11200
O 	O 	0.72308 0.77742 0.26188 -0.26500
H 	H 	0.81143 0.84333 0.21770 0.06000
O 	O 	0.66480 0.85300 0.09540 -0.28400
H 	H 	0.57412 0.78155 0.13930 0.08500
H 	H 	0.44469 0.55576 0.26210 0.15700
H 	H 	0.71542 0.73491 0.27026 0.15300
H 	H 	0.67213 0.89490 0.08867 0.16100
H 	H 	0.62757 0.86833 0.21386 0.15700
C 	C 	0.25985 0.75298 0.19842 -0.09800
C 	C 	0.22411 0.73169 0.22543 -0.00600
C 	C 	0.21454 0.67771 0.25839 0.13500
C 	C 	0.23957 0.64477 0.26362 -0.06300
C 	C 	0.27542 0.66633 0.23660 -0.05900
C 	C 	0.28617 0.72107 0.20415 0.16600
C 	C 	0.19337 0.76377 0.21759 0.01400
O 	O 	0.17921 0.65606 0.28485 -0.27600
H 	H 	0.23120 0.60262 0.28868 0.06800
O 	O 	0.31963 0.74157 0.17696 -0.28000
H 	H 	0.26651 0.79392 0.17267 0.07000
C 	C 	0.23669 0.82995 0.21847 0.11200
C 	C 	0.20850 0.86490 0.20132 -0.02500
C 	C 	0.13727 0.83420 0.18322 -0.12900
C 	C 	0.09294 0.76638 0.18629 0.19500
C 	C 	0.12116 0.73152 0.20314 -0.11300
O 	O 	0.30659 0.86060 0.23575 -0.26700
H 	H 	0.24255 0.91658 0.20045 0.05600
O 	O 	0.02282 0.73530 0.16972 -0.29400
H 	H 	0.08733 0.68028 0.20297 0.08400
H 	H 	0.36943 0.77513 0.18706 0.15300
H 	H 	0.32899 0.88168 0.21350 0.14600
H 	H 	0.00210 0.71928 0.19160 0.15400
H 	H 	0.21533 0.68057 0.30598 0.15600
C 	C 	0.82445 0.17641 0.50181 -0.10700
C 	C 	0.76338 0.15013 0.51005 0.01300
C 	C 	0.71887 0.08209 0.52537 0.12300
C 	C 	0.74028 0.04282 0.53735 -0.03200
C 	C 	0.80768 0.07172 0.53661 -0.11400
C 	C 	0.75287 0.19452 0.50972 -0.00600
O 	O 	0.65606 0.05441 0.53049 -0.26900
H 	H 	0.70802 0.99137 0.55189 0.06000
C 	C 	0.79642 0.23150 0.53877 0.13300
C 	C 	0.78273 0.26888 0.54072 -0.06300
C 	C 	0.72584 0.27004 0.51380 -0.05300
C 	C 	0.68312 0.23426 0.48412 0.16500
C 	C 	0.69663 0.19653 0.48228 -0.09100
H 	H 	0.81579 0.29613 0.56368 0.07200
O 	O 	0.62760 0.23528 0.45731 -0.26900
H 	H 	0.66294 0.16830 0.45982 0.08300
H 	H 	0.64636 0.27250 0.43418 0.15400
H 	H 	0.66597 0.05591 0.55800 0.15400
C 	C 	0.86043 0.64851 0.57107 -0.11500
C 	C 	0.90114 0.62759 0.58201 0.00800
C 	C 	0.88859 0.70349 0.58203 0.20100
C 	C 	0.87320 0.57318 0.56746 0.00100
O 	O 	0.84925 0.72509 0.56963 -0.28000
H 	H 	0.80761 0.62326 0.55315 0.07900
C 	C 	0.85762 0.51263 0.59440 0.13700
C 	C 	0.82784 0.46044 0.58000 -0.06100
C 	C 	0.80837 0.46648 0.53858 -0.05700
C 	C 	0.82763 0.52805 0.51188 0.16900
C 	C 	0.86074 0.58138 0.52643 -0.09700
O 	O 	0.86982 0.50386 0.63464 -0.27100
H 	H 	0.81369 0.41327 0.60079 0.06900
O 	O 	0.81243 0.53573 0.47145 -0.27400
H 	H 	0.87444 0.62844 0.50565 0.08000
H 	H 	0.85839 0.75636 0.54316 0.15800
H 	H 	0.82650 0.48842 0.63843 0.15200
H 	H 	0.76602 0.52707 0.46066 0.15500
C 	C 	0.44481 0.21381 0.52308 -0.09400
C 	C 	0.45091 0.23599 0.55089 -0.00600
C 	C 	0.51722 0.28018 0.57149 0.13600
C 	C 	0.57669 0.30208 0.56414 -0.06300
C 	C 	0.57090 0.28299 0.53468 -0.05600
C 	C 	0.50450 0.23814 0.51433 0.16500
C 	C 	0.38773 0.21155 0.55911 0.01400
O 	O 	0.52401 0.30157 0.59912 -0.27500
H 	H 	0.62761 0.33552 0.58059 0.06800
O 	O 	0.49773 0.21799 0.48600 -0.26800
H 	H 	0.39379 0.17843 0.50785 0.07500
C 	C 	0.33991 0.22408 0.52849 0.11500
C 	C 	0.27455 0.19073 0.53446 -0.02400
C 	C 	0.25620 0.14383 0.57043 -0.12900
C 	C 	0.30818 0.14018 0.60309 0.19600
C 	C 	0.37307 0.17233 0.59707 -0.11100
O 	O 	0.35676 0.26841 0.49274 -0.26700
H 	H 	0.23580 0.19646 0.50973 0.05900
O 	O 	0.29322 0.09976 0.63983 -0.27900
H 	H 	0.41078 0.16457 0.62137 0.08900
H 	H 	0.49522 0.24956 0.46020 0.15600
H 	H 	0.33848 0.24224 0.47467 0.15100
H 	H 	0.30555 0.12767 0.65448 0.16000
H 	H 	0.52564 0.34163 0.58368 0.15500
C 	C 	0.74772 0.23777 0.97824 -0.09100
C 	C 	0.80594 0.23754 0.00302 -0.00500
C 	C 	0.85033 0.27238 0.03329 0.13100
C 	C 	0.83444 0.30431 0.03969 -0.06000
C 	C 	0.77343 0.30022 0.01694 -0.05600
C 	C 	0.73113 0.26861 0.98524 0.16900
C 	C 	0.81539 0.19407 0.00090 0.00800
H 	H 	0.86762 0.32917 0.06386 0.07200
O 	O 	0.67152 0.26466 0.96252 -0.27700
H 	H 	0.71366 0.21168 0.95465 0.08300
C 	C 	0.77006 0.12561 0.01474 0.11800
C 	C 	0.79102 0.08653 0.02531 -0.03200
O 	O 	0.70722 0.09733 0.02014 -0.26800
H 	H 	0.75851 0.03473 0.03917 0.05900
H 	H 	0.68591 0.30398 0.93973 0.15600
H 	H 	0.71689 0.09703 0.04810 0.14900
H 	H 	0.89239 0.23544 0.08041 0.15600
C 	C 	0.83620 0.68712 0.01609 -0.11000
C 	C 	0.82659 0.63049 0.04590 0.01200
C 	C 	0.83330 0.62507 0.08542 0.11600
C 	C 	0.85824 0.67923 0.09577 -0.02300
C 	C 	0.85935 0.74052 0.02635 0.19500
C 	C 	0.81331 0.57856 0.03622 -0.00300
O 	O 	0.81969 0.56838 0.11445 -0.26700
H 	H 	0.82841 0.69078 0.98524 0.09300
C 	C 	0.75039 0.54067 0.01058 0.13100
C 	C 	0.73516 0.48710 0.00520 -0.06200
C 	C 	0.78066 0.46881 0.02689 -0.05600
C 	C 	0.84608 0.50994 0.04984 0.16700
C 	C 	0.86250 0.56503 0.05407 -0.09000
O 	O 	0.70303 0.55496 0.99145 -0.27000
H 	H 	0.68525 0.45646 0.98677 0.07000
O 	O 	0.89302 0.49510 0.06932 -0.27300
H 	H 	0.67254 0.52942 0.01015 0.14800
H 	H 	0.88300 0.46745 0.09624 0.15600
H 	H 	0.76963 0.54130 0.11376 0.14800
C 	C 	0.48661 0.14572 0.07127 -0.09200
C 	C 	0.47688 0.16865 0.09038 -0.00700
C 	C 	0.53532 0.21997 0.10935 0.13300
C 	C 	0.60155 0.25252 0.10508 -0.06400
C 	C 	0.60926 0.23767 0.07939 -0.05600
C 	C 	0.55205 0.18121 0.06453 0.16700
C 	C 	0.40622 0.14748 0.08400 0.00800
O 	O 	0.52753 0.24012 0.13066 -0.27300
H 	H 	0.64609 0.29330 0.11881 0.06900
O 	O 	0.55935 0.16188 0.04238 -0.27200
H 	H 	0.44223 0.10381 0.05851 0.07900
C 	C 	0.36752 0.15755 0.04482 0.11500
C 	C 	0.29845 0.13192 0.03855 -0.02800
C 	C 	0.26853 0.09968 0.07122 -0.12300
C 	C 	0.30920 0.09480 0.11057 0.19500
C 	C 	0.37746 0.11761 0.11686 -0.11200
O 	O 	0.39638 0.19031 0.01249 -0.27100
H 	H 	0.26738 0.13489 0.00822 0.06900
O 	O 	0.28226 0.06749 0.14286 -0.28600
H 	H 	0.40753 0.11118 0.14719 0.08600
H 	H 	0.54799 0.18365 0.01401 0.16300
H 	H 	0.41844 0.23708 0.00844 0.15000
H 	H 	0.26313 0.02065 0.15078 0.15500
H 	H 	0.52105 0.27460 0.11091 0.15000
O 	O 	0.02584 0.99235 0.11991 -0.58400
O 	O 	0.00474 0.00558 0.00721 -0.38800
O 	O 	0.01205 0.00009 0.51022 -0.37000
O 	O 	0.99874 0.95805 0.71607 -0.38400
C 	C 	0.01405 0.99743 0.87902 0.00700
C 	C 	0.01819 0.99029 0.84489 0.01000
C 	C 	0.04311 0.04411 0.81180 -0.04200
C 	C 	0.06234 0.10623 0.80939 0.09500
N 	N 	0.07769 0.15585 0.80745 -0.11300
C 	C 	0.00452 0.97427 0.38396 -0.02500
C 	C 	0.99689 0.97121 0.34421 0.07000
C 	C 	0.03948 0.02869 0.31811 -0.06400
C 	C 	0.87668 0.73882 0.06690 -0.12100
H 	H 	0.86920 0.67665 0.12692 0.06500
O 	O 	0.87124 0.79656 0.99719 -0.27800
H 	H 	0.82687 0.79131 0.98772 0.16400
C 	C 	0.03856 0.02476 0.28318 0.00300
C 	C 	0.85886 0.11601 0.02507 -0.11800
C 	C 	0.04542 0.03611 0.77989 0.02400
C 	C 	0.00815 0.97280 0.77600 -0.11600
C 	C 	0.09247 0.08022 0.26141 0.08500
N 	N 	0.13608 0.12448 0.24433 -0.10400
O 	O 	0.98293 0.94782 0.21401 -0.36800
C 	C 	0.09018 0.09255 0.75304 0.08000
N 	N 	0.12665 0.13782 0.73188 -0.10700
C 	C 	0.87632 0.22100 0.99214 -0.10100
H 	H 	0.85739 0.22818 0.48809 0.08000
C 	C 	0.98867 0.96527 0.27130 -0.05400
O 	O 	0.85043 0.22870 0.56650 -0.27200
Co	Co	0.00004 0.89722 0.12367 1.18100
C 	C 	0.01927 0.96556 0.50162 0.29500
O 	O 	0.90829 0.27391 0.05728 -0.26500
C 	C 	0.95494 0.85483 0.80781 0.08100
N 	N 	0.92918 0.80315 0.80620 -0.09700
C 	C 	0.95341 0.91002 0.33491 -0.04700
O 	O 	0.00914 0.23838 0.09226 -0.29400
O 	O 	0.06005 0.84525 0.61042 -0.42100
O 	O 	0.00621 0.92385 0.01219 -0.38200
C 	C 	0.96483 0.96692 0.22794 0.29900
O 	O 	0.02804 0.92084 0.52970 -0.39100
C 	C 	0.97182 0.96054 0.73523 0.33000
C 	C 	0.88494 0.92875 0.85744 0.10300
C 	C 	0.89884 0.97102 0.35604 0.09700
C 	C 	0.90890 0.96767 0.43350 0.09400
H 	H 	0.02554 0.26269 0.06709 0.16700
H 	H 	0.91225 0.59554 0.07264 0.08500
Co	Co	0.94668 0.94083 0.15465 1.19100
Co	Co	0.92116 0.04046 0.14866 1.17200
C 	C 	0.93392 0.80007 0.08005 0.33300
O 	O 	0.91976 0.10543 0.09357 -0.38900
O 	O 	0.96538 0.01614 0.13421 -0.75100
C 	C 	0.89690 0.09096 0.05966 0.32900
O 	O 	0.94863 0.86747 0.16248 -0.44800
C 	C 	0.01047 0.97800 0.99152 0.30400
O 	O 	0.91795 0.06478 0.05517 -0.38500
O 	O 	0.91691 0.97709 0.20560 -0.39300
O 	O 	0.99799 0.82156 0.08655 -0.38100
O 	O 	0.92153 0.82942 0.08905 -0.38700
Co	Co	0.93631 0.91834 0.66598 1.19000
Co	Co	0.01298 0.89606 0.63725 1.17700
Co	Co	0.88704 0.99782 0.66053 1.17100
C 	C 	0.99326 0.80212 0.60968 0.34600
O 	O 	0.86211 0.05141 0.60554 -0.39700
O 	O 	0.92760 0.97942 0.63832 -0.75800
C 	C 	0.84485 0.04455 0.56982 0.32500
O 	O 	0.96325 0.86033 0.67889 -0.44500
O 	O 	0.96253 0.94880 0.60826 -0.56400
O 	O 	0.87243 0.02768 0.56200 -0.37500
O 	O 	0.91038 0.94899 0.71901 -0.40500
O 	O 	0.96219 0.81196 0.62054 -0.37000
C 	C 	0.94856 0.96318 0.88620 -0.02300
C 	C 	0.00752 0.99990 0.94802 -0.09300
C 	C 	0.94548 0.96286 0.92149 0.04600
C 	C 	0.95567 0.97313 0.38939 -0.01000
C 	C 	0.96187 0.97352 0.42741 0.03400
C 	C 	0.01864 0.97777 0.45964 -0.08900
C 	C 	0.95010 0.90705 0.29870 0.02600
C 	C 	0.91217 0.85035 0.36248 0.11200
C 	C 	0.91060 0.84417 0.29085 0.08900
N 	N 	0.87924 0.79385 0.28475 -0.10500
N 	N 	0.87925 0.80274 0.38451 -0.10800
C 	C 	0.84687 0.13743 0.51518 0.20400
O 	O 	0.90976 0.16501 0.51021 -0.28200
H 	H 	0.94491 0.18380 0.53376 0.16500
H 	H 	0.89159 0.26564 0.55464 0.15600
C 	C 	0.96903 0.65968 0.60594 0.13800
C 	C 	0.99645 0.71336 0.61771 -0.00700
C 	C 	0.95742 0.73686 0.60501 -0.12700
O 	O 	0.01032 0.64137 0.61562 -0.29000
H 	H 	0.04956 0.73890 0.63506 0.05200
H 	H 	0.00615 0.61180 0.64292 0.16100
C 	C 	0.89751 0.18169 0.00355 0.19600
O 	O 	0.96077 0.20982 0.99887 -0.28300
H 	H 	0.90994 0.27316 0.97951 0.08600
H 	H 	0.95051 0.20414 0.97265 0.16200
