data_crystal

_cell_length_a 15.25275
_cell_length_b 15.16216
_cell_length_c 26.65547
_cell_angle_alpha 95.39406
_cell_angle_beta  95.39334
_cell_angle_gamma 126.67647

_symmetry_space_group_name_	'P 1'
_symmetry_space_group_name_H-M	'P 1'

loop_
_symmetry_equiv_pos_as_xyz
  x,y,z

loop_
_atom_site_label
_atom_site_type_symbol
_atom_site_fract_x
_atom_site_fract_y
_atom_site_fract_z
_atom_site_charge
C 	C 	0.90377 0.00546 0.97785 0.07200
C 	C 	0.05273 0.00536 0.96158 0.11800
N 	N 	0.01119 0.06191 0.97163 -0.12100
C 	C 	0.93763 0.04999 0.48352 0.07600
C 	C 	0.10318 0.06893 0.49048 0.10100
C 	C 	0.87907 0.09788 0.47415 -0.01400
C 	C 	0.85764 0.06546 0.98793 0.01300
C 	C 	0.16834 0.06605 0.95364 -0.02700
C 	C 	0.81011 0.08940 0.50470 -0.15000
H 	H 	0.79244 0.04158 0.53528 0.07900
C 	C 	0.28001 0.09838 0.48939 -0.13300
H 	H 	0.81455 0.05107 0.02002 0.00700
H 	H 	0.18375 0.04791 0.91649 0.04100
H 	H 	0.23477 0.00822 0.48232 0.07400
N 	N 	0.04811 0.11246 0.48303 -0.12300
O 	O 	0.67332 0.11594 0.52002 -0.37800
H 	H 	0.89927 0.14808 0.44443 0.02900
H 	H 	0.89924 0.13944 0.92239 0.08300
N 	N 	0.83863 0.89302 0.97487 -0.12000
C 	C 	0.87917 0.83596 0.96430 0.12200
N 	N 	0.98612 0.89216 0.95700 -0.13500
N 	N 	0.88090 0.94203 0.49002 -0.11800
C 	C 	0.93547 0.89759 0.49714 0.10500
N 	N 	0.04694 0.96164 0.49824 -0.10900
Cu	Cu	0.74265 0.32211 0.93812 0.93100
Cu	Cu	0.78598 0.27591 0.05241 0.86200
Cu	Cu	0.59977 0.29032 0.01870 0.89000
Cu	Cu	0.52899 0.31065 0.91305 0.89500
C 	C 	0.64990 0.29321 0.83484 0.28600
O 	O 	0.80741 0.47906 0.92925 -0.37500
C 	C 	0.69847 0.33149 0.12688 0.27500
O 	O 	0.57572 0.23719 0.94674 -0.63300
O 	O 	0.75891 0.36160 0.01327 -0.64900
O 	O 	0.82666 0.26015 0.93694 -0.37500
O 	O 	0.74532 0.16032 0.99864 -0.43800
O 	O 	0.56151 0.28408 0.84454 -0.38000
O 	O 	0.44273 0.20970 0.02013 -0.40200
C 	C 	0.36979 0.20046 0.98464 0.31500
C 	C 	0.76954 0.53127 0.94701 0.30000
O 	O 	0.66929 0.47436 0.95831 -0.38400
O 	O 	0.40224 0.26417 0.94936 -0.38900
O 	O 	0.69932 0.26625 0.86601 -0.36300
C 	C 	0.80642 0.18316 0.96328 0.31300
O 	O 	0.62469 0.32734 0.09418 -0.37800
O 	O 	0.79003 0.35462 0.11361 -0.42100
H 	H 	0.52537 0.15459 0.93639 0.16500
H 	H 	0.80965 0.44294 0.02749 0.16800
Cu	Cu	0.61138 0.20036 0.51836 0.92800
Cu	Cu	0.67326 0.16841 0.40673 0.86800
Cu	Cu	0.64736 0.34767 0.43905 0.89600
Cu	Cu	0.61407 0.40869 0.54138 0.89400
C 	C 	0.65721 0.30789 0.62262 0.28400
O 	O 	0.45321 0.13633 0.52358 -0.36900
C 	C 	0.62160 0.25746 0.33149 0.27600
O 	O 	0.69583 0.36884 0.51136 -0.64100
O 	O 	0.57951 0.18763 0.44300 -0.63800
O 	O 	0.78266 0.20813 0.46306 -0.44800
O 	O 	0.60650 0.34909 0.60599 -0.38100
O 	O 	0.72394 0.50573 0.43868 -0.38500
C 	C 	0.73443 0.57899 0.47486 0.30400
C 	C 	0.40244 0.17134 0.50052 0.29800
O 	O 	0.46082 0.27226 0.48922 -0.39200
O 	O 	0.67504 0.54705 0.51172 -0.39100
O 	O 	0.66539 0.24163 0.59095 -0.36200
C 	C 	0.75583 0.14258 0.49679 0.30900
O 	O 	0.61617 0.32548 0.36352 -0.37500
O 	O 	0.60068 0.16557 0.34391 -0.42000
H 	H 	0.77747 0.42176 0.52340 0.16300
H 	H 	0.49980 0.13461 0.42674 0.17000
C 	C 	0.65623 0.21673 0.74959 -0.00700
C 	C 	0.67463 0.30578 0.78297 -0.06300
C 	C 	0.70368 0.40198 0.76468 -0.01100
C 	C 	0.70700 0.40626 0.71272 -0.01000
C 	C 	0.67957 0.31357 0.67838 -0.06300
C 	C 	0.65860 0.22048 0.69742 -0.01000
H 	H 	0.63471 0.14243 0.76350 0.04200
H 	H 	0.71981 0.47189 0.79040 0.03700
H 	H 	0.72616 0.47973 0.69878 0.03500
H 	H 	0.63848 0.14876 0.67153 0.04700
C 	C 	0.72617 0.27377 0.20752 -0.01700
C 	C 	0.68248 0.31831 0.18019 -0.07300
C 	C 	0.61951 0.34467 0.20310 -0.01100
C 	C 	0.60003 0.32579 0.25275 -0.00900
C 	C 	0.64241 0.27939 0.27956 -0.07300
C 	C 	0.70602 0.25419 0.25675 -0.01600
H 	H 	0.77415 0.25230 0.19022 0.01800
H 	H 	0.58573 0.37963 0.18258 0.04400
H 	H 	0.55093 0.34579 0.26999 0.04300
H 	H 	0.74023 0.21962 0.27730 0.01600
C 	C 	0.87451 0.78117 0.50497 -0.01600
C 	C 	0.79487 0.69567 0.46749 -0.12700
H 	H 	0.89795 0.76490 0.54070 0.03900
H 	H 	0.77796 0.71178 0.43030 0.07900
C 	C 	0.22508 0.14144 0.49391 -0.01500
H 	H 	0.27073 0.23172 0.50074 0.04700
C 	C 	0.80431 0.71260 0.95751 -0.02000
C 	C 	0.84447 0.65448 0.95873 -0.12900
H 	H 	0.71494 0.66877 0.95152 0.05100
H 	H 	0.93375 0.69801 0.96493 0.08000
C 	C 	0.85831 0.12775 0.95513 -0.15700
C 	C 	0.25393 0.13932 0.99235 -0.10400
H 	H 	0.23833 0.15050 0.03053 0.06000
