data_crystal

_cell_length_a 20.62856
_cell_length_b 21.22278
_cell_length_c 37.05628
_cell_angle_alpha 60.70589
_cell_angle_beta  119.00778
_cell_angle_gamma 133.25834

_symmetry_space_group_name_	'P 1'
_symmetry_space_group_name_H-M	'P 1'

loop_
_symmetry_equiv_pos_as_xyz
  x,y,z

loop_
_atom_site_label
_atom_site_type_symbol
_atom_site_fract_x
_atom_site_fract_y
_atom_site_fract_z
_atom_site_charge
C 	C 	0.64553 0.21125 0.03866 0.14100
N 	N 	0.55696 0.17694 0.03231 -0.13900
C 	C 	0.53753 0.21725 0.04071 0.15100
N 	N 	0.60613 0.29297 0.05432 -0.14000
C 	C 	0.74373 0.32698 0.49948 0.13900
N 	N 	0.67906 0.39913 0.50368 -0.13200
C 	C 	0.62613 0.31037 0.50797 0.14600
N 	N 	0.65852 0.27414 0.50608 -0.13100
C 	C 	0.25854 0.64903 0.13800 0.13800
N 	N 	0.34851 0.68469 0.14645 -0.13500
C 	C 	0.37252 0.64468 0.14103 0.14100
N 	N 	0.30693 0.56860 0.12756 -0.14300
C 	C 	0.21727 0.53033 0.12051 0.14000
N 	N 	0.19251 0.57059 0.12552 -0.13200
C 	C 	0.33067 0.68141 0.67699 0.13600
N 	N 	0.42261 0.73123 0.68132 -0.12600
C 	C 	0.45811 0.69776 0.67954 0.14000
N 	N 	0.40297 0.61356 0.67565 -0.13900
C 	C 	0.31153 0.56518 0.66887 0.14500
N 	N 	0.27449 0.59883 0.66934 -0.14000
Co	Co	0.04591 0.87408 0.02468 1.16600
C 	C 	0.16410 0.07052 0.00980 0.32000
C 	C 	0.00681 0.97499 0.21660 0.25700
C 	C 	0.00225 0.17498 0.10506 0.32700
C 	C 	0.15115 0.85787 0.11273 0.31400
O 	O 	0.01065 0.93419 0.20030 -0.37400
O 	O 	0.16061 0.90821 0.07410 -0.39000
O 	O 	0.10536 0.85150 0.13164 -0.37900
O 	O 	0.02507 0.14298 0.09387 -0.39200
O 	O 	0.11162 0.00664 0.99035 -0.39100
O 	O 	0.12988 0.07169 0.03140 -0.39600
Co	Co	0.04586 0.12299 0.57485 1.19200
Co	Co	0.12665 0.06752 0.54633 1.18900
Co	Co	0.14535 0.92777 0.54519 1.16700
C 	C 	0.30812 0.09596 0.57019 0.31700
O 	O 	0.12164 0.16706 0.53711 -0.45400
C 	C 	0.12776 0.25910 0.61672 0.33200
C 	C 	0.14679 0.82149 0.63455 0.31900
O 	O 	0.11991 0.81631 0.59564 -0.41100
O 	O 	0.13201 0.86391 0.64310 -0.38300
O 	O 	0.14773 0.21885 0.61013 -0.38800
O 	O 	0.09332 0.96128 0.56368 -0.76900
O 	O 	0.27158 0.01041 0.58025 -0.38500
O 	O 	0.26659 0.12349 0.57057 -0.38400
C 	C 	0.03264 0.02097 0.80275 0.10100
C 	C 	0.05838 0.05313 0.83611 -0.07300
N 	N 	0.08856 0.05726 0.77904 -0.14600
H 	H 	0.11382 0.12219 0.83718 0.06400
H 	H 	0.04720 0.06777 0.90716 0.06600
H 	H 	0.13590 0.12594 0.76845 0.09600
C 	C 	0.09087 0.04134 0.30642 0.09100
C 	C 	0.15406 0.09331 0.33632 -0.08300
N 	N 	0.11264 0.04457 0.27649 -0.14700
C 	C 	0.04034 0.96908 0.26241 0.01000
C 	C 	0.15781 0.11121 0.39874 -0.04600
H 	H 	0.21913 0.15605 0.33041 0.06000
H 	H 	0.22836 0.16597 0.40800 0.05200
H 	H 	0.16009 0.10369 0.25888 0.09200
C 	C 	0.25387 0.48333 0.65473 -0.04400
C 	C 	0.24562 0.49212 0.61287 -0.08700
C 	C 	0.22241 0.42304 0.60201 0.18200
C 	C 	0.19885 0.34091 0.63198 -0.11900
C 	C 	0.21217 0.33390 0.67436 -0.04300
C 	C 	0.23658 0.40333 0.68548 0.14000
H 	H 	0.26259 0.55475 0.58929 0.07000
O 	O 	0.21596 0.43361 0.56108 -0.28400
H 	H 	0.19618 0.27163 0.69806 0.06200
O 	O 	0.24812 0.39455 0.72699 -0.27300
H 	H 	0.18742 0.36852 0.72909 0.14900
H 	H 	0.27734 0.45745 0.56100 0.15800
C 	C 	0.71001 0.83788 0.65088 -0.12000
C 	C 	0.65811 0.87195 0.62855 -0.04400
C 	C 	0.57970 0.83139 0.64039 0.13800
C 	C 	0.55221 0.75568 0.67488 -0.03700
C 	C 	0.60409 0.72152 0.69701 -0.09200
C 	C 	0.68096 0.76071 0.68441 0.18900
H 	H 	0.68082 0.93231 0.60306 0.05700
O 	O 	0.52991 0.86575 0.61811 -0.26800
H 	H 	0.58212 0.66174 0.72285 0.07800
O 	O 	0.72735 0.72305 0.70475 -0.28100
H 	H 	0.48458 0.83518 0.59463 0.15000
C 	C 	0.29120 0.71852 0.67881 -0.03500
C 	C 	0.20304 0.66096 0.68613 -0.08900
C 	C 	0.15946 0.69590 0.68063 0.18300
C 	C 	0.20277 0.78877 0.66659 -0.10800
C 	C 	0.29636 0.84540 0.66770 -0.04800
C 	C 	0.34006 0.81163 0.67209 0.13800
H 	H 	0.16706 0.58928 0.69488 0.07600
O 	O 	0.07330 0.63895 0.68756 -0.28000
H 	H 	0.33263 0.91683 0.66027 0.06600
O 	O 	0.42802 0.87017 0.66711 -0.27200
H 	H 	0.46773 0.87915 0.69592 0.15500
C 	C 	0.14902 0.43940 0.11374 -0.03700
C 	C 	0.12152 0.36672 0.14908 -0.09000
C 	C 	0.08334 0.28194 0.14782 0.18500
C 	C 	0.06678 0.26736 0.11000 -0.11800
C 	C 	0.09181 0.33952 0.07412 -0.04000
C 	C 	0.13356 0.42538 0.07598 0.13900
H 	H 	0.13479 0.37698 0.17854 0.07600
O 	O 	0.05921 0.21244 0.18327 -0.29000
H 	H 	0.07676 0.32883 0.04444 0.06100
O 	O 	0.15852 0.49535 0.04074 -0.27400
H 	H 	0.22163 0.51983 0.04290 0.15200
H 	H 	0.11459 0.21330 0.19971 0.15500
C 	C 	0.46952 0.68327 0.14974 -0.04300
C 	C 	0.50087 0.69407 0.11954 -0.09000
C 	C 	0.59121 0.72462 0.12841 0.19100
C 	C 	0.65128 0.74459 0.16791 -0.12200
C 	C 	0.61842 0.72969 0.19881 -0.04300
C 	C 	0.52812 0.69931 0.18987 0.13700
H 	H 	0.45527 0.67937 0.08898 0.07500
O 	O 	0.62058 0.73502 0.09839 -0.28500
H 	H 	0.66392 0.74439 0.22939 0.06000
O 	O 	0.49770 0.68640 0.22023 -0.27500
H 	H 	0.47242 0.62347 0.23667 0.15000
H 	H 	0.64167 0.79605 0.07996 0.15800
C 	C 	0.23378 0.70053 0.13870 -0.03600
C 	C 	0.29845 0.79348 0.13425 -0.09000
C 	C 	0.27574 0.84431 0.13226 0.18100
C 	C 	0.18674 0.80345 0.13340 -0.11400
C 	C 	0.12506 0.70971 0.14230 -0.04200
C 	C 	0.14740 0.65820 0.14426 0.14100
H 	H 	0.36583 0.82715 0.13101 0.07600
O 	O 	0.33859 0.93526 0.12567 -0.28000
H 	H 	0.05751 0.67698 0.14497 0.07200
O 	O 	0.08571 0.56700 0.15259 -0.26700
H 	H 	0.04420 0.55384 0.12454 0.15500
H 	H 	0.37189 0.94639 0.15453 0.15700
C 	C 	0.72056 0.19680 0.49521 0.14200
O 	O 	0.62735 0.15266 0.48289 -0.27000
H 	H 	0.61197 0.16517 0.45144 0.15100
C 	C 	0.39558 0.16138 0.55760 -0.11600
C 	C 	0.39962 0.21927 0.51680 -0.04000
C 	C 	0.47206 0.26375 0.49922 0.14100
C 	C 	0.54278 0.25268 0.52303 -0.03700
C 	C 	0.54078 0.19790 0.56447 -0.08700
C 	C 	0.46771 0.15236 0.58181 0.19000
H 	H 	0.34408 0.22613 0.49782 0.05900
O 	O 	0.47439 0.31905 0.45898 -0.27300
H 	H 	0.59682 0.19184 0.58359 0.08100
O 	O 	0.46745 0.09997 0.62267 -0.27900
H 	H 	0.44414 0.04253 0.62038 0.16500
H 	H 	0.44117 0.28038 0.43966 0.14700
C 	C 	0.60425 0.06565 0.04406 -0.09800
H 	H 	0.53913 0.03191 0.04985 0.08200
O 	O 	0.56652 0.92333 0.05559 -0.29900
H 	H 	0.57586 0.90243 0.08703 0.15500
C 	C 	0.44257 0.18235 0.03268 -0.05200
C 	C 	0.38965 0.18573 0.99083 -0.07500
C 	C 	0.30054 0.15745 0.98248 0.19800
C 	C 	0.26352 0.12470 0.01629 -0.13000
C 	C 	0.31868 0.12656 0.05787 -0.03100
C 	C 	0.40788 0.15513 0.06615 0.14900
H 	H 	0.41774 0.21067 0.96471 0.07700
O 	O 	0.24994 0.16279 0.94123 -0.28600
H 	H 	0.29067 0.10105 0.08413 0.06800
O 	O 	0.45952 0.15230 0.10726 -0.26900
H 	H 	0.49203 0.21099 0.11190 0.15100
H 	H 	0.22097 0.10702 0.93478 0.15600
C 	C 	0.12128 0.05631 0.46734 0.27700
O 	O 	0.17859 0.03583 0.49289 -0.39900
O 	O 	0.08515 0.06806 0.48254 -0.36900
C 	C 	0.12914 0.06040 0.37421 0.02500
C 	C 	0.09201 0.05783 0.42228 0.01500
H 	H 	0.71144 0.08140 0.50667 0.06700
C 	C 	0.62773 0.01468 0.04714 0.20300
C 	C 	0.04526 0.98128 0.38137 0.07900
C 	C 	0.01001 0.99177 0.86827 0.00200
C 	C 	0.66634 0.15929 0.03581 -0.03400
O 	O 	0.05639 0.09538 0.69063 -0.38700
C 	C 	0.05010 0.99479 0.75954 -0.01300
O 	O 	0.04722 0.97412 0.69943 -0.38400
C 	C 	0.05033 0.02179 0.71470 0.29500
C 	C 	0.69430 0.33010 0.05885 0.14300
C 	C 	0.00772 0.96225 0.31370 0.02200
N 	N 	0.02129 0.98096 0.40936 -0.15600
O 	O 	0.04270 0.22426 0.61115 -0.41500
H 	H 	0.03077 0.34568 0.54732 0.16500
H 	H 	0.03085 0.61999 0.66073 0.15500
N 	N 	0.71443 0.28882 0.05151 -0.13400
Co	Co	0.03122 0.88488 0.60013 1.19000
C 	C 	0.71400 0.05692 0.04203 -0.12500
O 	O 	0.01699 0.99537 0.57974 -0.58500
O 	O 	0.01190 0.84995 0.51391 -0.38200
O 	O 	0.00256 0.33626 0.51826 -0.26900
O 	O 	0.99673 0.89467 0.05284 -0.76500
Co	Co	0.99153 0.98331 0.02776 1.17700
C 	C 	0.99545 0.01133 0.89292 -0.02500
O 	O 	0.98946 0.74246 0.05905 -0.41500
C 	C 	0.75714 0.15197 0.50554 -0.04500
O 	O 	0.98767 0.03296 0.19188 -0.36700
C 	C 	0.76618 0.45147 0.50030 0.14400
Co	Co	0.97791 0.83312 0.10192 1.18500
H 	H 	0.77051 0.74730 0.73024 0.14800
C 	C 	0.77964 0.28607 0.49844 -0.04100
C 	C 	0.97666 0.91343 0.28747 -0.06500
O 	O 	0.96697 0.06695 0.02071 -0.46000
O 	O 	0.92492 0.96018 0.96617 -0.36300
H 	H 	0.78301 0.60016 0.44285 0.07100
H 	H 	0.78148 0.72867 0.45213 0.15400
H 	H 	0.75958 0.38332 0.12924 0.07400
H 	H 	0.78970 0.53136 0.13827 0.15900
Co	Co	0.92462 0.02690 0.07192 1.19000
C 	C 	0.78253 0.43809 0.10161 -0.09300
C 	C 	0.81947 0.60828 0.47509 -0.08900
O 	O 	0.84119 0.74719 0.45297 -0.29300
O 	O 	0.84464 0.54046 0.13945 -0.28800
O 	O 	0.92081 0.12496 0.11167 -0.40200
C 	C 	0.85169 0.68291 0.48481 0.18400
C 	C 	0.82513 0.52465 0.10248 0.18800
N 	N 	0.79883 0.41574 0.49793 -0.14000
Co	Co	0.91497 0.87967 0.14729 1.18200
C 	C 	0.90958 0.68836 0.06829 0.32500
Co	Co	0.86416 0.99528 0.14862 1.16600
O 	O 	0.89895 0.96169 0.11944 -0.76500
O 	O 	0.94324 0.79833 0.15483 -0.46000
O 	O 	0.92149 0.91091 0.08100 -0.58600
C 	C 	0.75093 0.79833 0.17359 0.32400
C 	C 	0.91682 0.90679 0.95260 0.27100
O 	O 	0.80468 0.86843 0.18866 -0.41600
O 	O 	0.78437 0.78378 0.15828 -0.37600
O 	O 	0.92553 0.84253 0.97958 -0.38300
C 	C 	0.75312 0.00658 0.06121 0.33100
O 	O 	0.74729 0.95642 0.10033 -0.41100
O 	O 	0.80532 0.02323 0.04179 -0.37500
O 	O 	0.88762 0.71271 0.08495 -0.38300
Co	Co	0.97334 0.94909 0.63840 1.17800
C 	C 	0.94889 0.77916 0.53553 0.30400
Co	Co	0.95447 0.09146 0.63741 1.17200
O 	O 	0.98839 0.04889 0.61332 -0.75300
O 	O 	0.96973 0.84632 0.64358 -0.45800
C 	C 	0.80560 0.89741 0.64858 0.32700
O 	O 	0.86340 0.96253 0.66742 -0.42300
O 	O 	0.83492 0.87852 0.63321 -0.38100
C 	C 	0.88912 0.14295 0.54438 0.30300
O 	O 	0.86072 0.08512 0.57970 -0.38500
O 	O 	0.95232 0.15649 0.53383 -0.35800
O 	O 	0.93799 0.78311 0.56718 -0.37400
C 	C 	0.93904 0.90368 0.86690 0.06900
C 	C 	0.91319 0.87169 0.83335 -0.07100
C 	C 	0.96110 0.93346 0.80099 -0.01200
N 	N 	0.88230 0.86776 0.89015 -0.14900
C 	C 	0.91878 0.93136 0.90833 -0.01100
C 	C 	0.97339 0.91463 0.77494 -0.03500
H 	H 	0.85749 0.80277 0.83212 0.05700
H 	H 	0.91958 0.86047 0.75929 0.04600
H 	H 	0.83601 0.79915 0.90146 0.09500
C 	C 	0.98263 0.92896 0.35154 -0.09500
H 	H 	0.91700 0.86676 0.35710 0.06600
H 	H 	0.90559 0.85939 0.27831 0.05500
H 	H 	0.97221 0.92334 0.42651 0.10300
C 	C 	0.87419 0.33348 0.50414 -0.08700
C 	C 	0.91037 0.28904 0.51301 0.17300
C 	C 	0.85225 0.19620 0.51720 -0.10200
H 	H 	0.92032 0.40377 0.50351 0.07200
C 	C 	0.89561 0.69232 0.52694 -0.11400
C 	C 	0.90596 0.62608 0.55897 -0.04300
C 	C 	0.87445 0.55185 0.54918 0.14000
C 	C 	0.82834 0.54120 0.50729 -0.04200
H 	H 	0.94087 0.63341 0.59130 0.05900
O 	O 	0.88329 0.48668 0.58115 -0.27400
H 	H 	0.94257 0.50392 0.58226 0.14600
C 	C 	0.77135 0.15051 0.02872 -0.03400
C 	C 	0.74857 0.20188 0.02610 0.13800
H 	H 	0.83665 0.18374 0.02327 0.06200
O 	O 	0.80545 0.29319 0.01302 -0.27100
H 	H 	0.85292 0.31334 0.03902 0.15300
C 	C 	0.76500 0.42129 0.06447 -0.03800
C 	C 	0.85098 0.59534 0.06600 -0.12400
C 	C 	0.83626 0.57882 0.02944 -0.03600
C 	C 	0.79530 0.49278 0.02889 0.12500
H 	H 	0.85799 0.63328 0.00154 0.05000
O 	O 	0.77887 0.47755 0.99238 -0.25800
H 	H 	0.83351 0.48405 0.99531 0.15900
