data_crystal

_cell_length_a 27.49001
_cell_length_b 29.01269
_cell_length_c 39.37355
_cell_angle_alpha 60.84460
_cell_angle_beta  118.86248
_cell_angle_gamma 133.16990

_symmetry_space_group_name_	'P 1'
_symmetry_space_group_name_H-M	'P 1'

loop_
_symmetry_equiv_pos_as_xyz
  x,y,z

loop_
_atom_site_label
_atom_site_type_symbol
_atom_site_fract_x
_atom_site_fract_y
_atom_site_fract_z
_atom_site_charge
C 	C 	0.72539 0.33747 0.99784 0.14500
N 	N 	0.77226 0.40228 0.99644 -0.13200
C 	C 	0.75396 0.43548 0.99649 0.14500
N 	N 	0.68850 0.40414 0.99661 -0.14700
C 	C 	0.64399 0.33852 0.00253 0.14900
N 	N 	0.66197 0.30514 0.00237 -0.14000
C 	C 	0.72788 0.25748 0.59301 0.14900
N 	N 	0.75788 0.31194 0.60322 -0.13100
C 	C 	0.72369 0.31279 0.61871 0.14700
N 	N 	0.66040 0.25884 0.62455 -0.14300
C 	C 	0.62953 0.20538 0.61320 0.15100
N 	N 	0.66328 0.20468 0.59742 -0.14000
C 	C 	0.27220 0.66189 0.18981 0.14600
N 	N 	0.33108 0.70766 0.17660 -0.13600
C 	C 	0.35294 0.68999 0.16376 0.14800
N 	N 	0.31620 0.62687 0.16425 -0.13700
C 	C 	0.25862 0.58068 0.17832 0.14900
N 	N 	0.23591 0.59807 0.19084 -0.13900
C 	C 	0.25205 0.61942 0.70193 0.14800
N 	N 	0.31811 0.66471 0.69821 -0.14200
C 	C 	0.34901 0.64818 0.69264 0.15100
N 	N 	0.31383 0.58684 0.69041 -0.13500
C 	C 	0.24945 0.54046 0.69625 0.15300
N 	N 	0.21791 0.55667 0.70173 -0.13800
Co	Co	0.07260 0.03709 0.06787 1.19200
Co	Co	0.00807 0.07384 0.09469 1.18200
C 	C 	0.21713 0.07653 0.08902 0.32000
Co	Co	0.10680 0.94407 0.07605 1.16500
O 	O 	0.06373 0.10669 0.05805 -0.45900
C 	C 	0.06175 0.16872 0.13589 0.31000
C 	C 	0.12062 0.88435 0.16359 0.33300
O 	O 	0.11731 0.01214 0.02122 -0.38400
O 	O 	0.07990 0.14329 0.12821 -0.39100
O 	O 	0.10236 0.87426 0.12914 -0.40900
O 	O 	0.09834 0.90929 0.16775 -0.40100
O 	O 	0.05807 0.96371 0.08920 -0.77300
C 	C 	0.99589 0.99450 0.22642 0.29900
O 	O 	0.19970 0.01677 0.10180 -0.37400
O 	O 	0.17887 0.08878 0.08941 -0.38400
Co	Co	0.02787 0.98873 0.56734 1.16900
Co	Co	0.00528 0.05585 0.60153 1.18300
C 	C 	0.13673 0.97752 0.58087 0.30600
Co	Co	0.99224 0.86348 0.55667 1.17700
O 	O 	0.05418 0.07409 0.56620 -0.45900
C 	C 	0.08240 0.16093 0.63997 0.32500
C 	C 	0.06074 0.83621 0.64488 0.32200
O 	O 	0.02113 0.14418 0.63312 -0.40600
O 	O 	0.08894 0.12408 0.63462 -0.39000
O 	O 	0.02300 0.81441 0.61222 -0.41000
O 	O 	0.05618 0.87303 0.65207 -0.41100
C 	C 	0.01455 0.99833 0.73387 0.28000
O 	O 	0.09272 0.94353 0.55356 -0.40100
O 	O 	0.12048 0.00078 0.59225 -0.39000
C 	C 	0.04921 0.05283 0.88678 -0.04300
C 	C 	0.05681 0.06021 0.92227 0.04100
S 	S 	0.08996 0.13679 0.92412 -0.02800
H 	H 	0.06267 0.09396 0.86089 0.05000
C 	C 	0.08094 0.01202 0.80397 0.07000
C 	C 	0.08321 0.01502 0.83942 -0.05200
S 	S 	0.15775 0.04739 0.79419 -0.02200
H 	H 	0.13217 0.03972 0.86001 0.05700
H 	H 	0.16005 0.17243 0.93647 0.05000
H 	H 	0.18915 0.11291 0.77760 0.04600
C 	C 	0.06773 0.04661 0.31898 0.00900
C 	C 	0.06868 0.04066 0.28600 0.02000
C 	C 	0.01345 0.98559 0.27031 -0.11700
S 	S 	0.12583 0.12357 0.32970 -0.02200
H 	H 	0.10876 0.08178 0.26999 0.05800
C 	C 	0.06889 0.01699 0.44297 0.06700
C 	C 	0.07050 0.01268 0.40955 -0.05100
S 	S 	0.14536 0.05239 0.47918 -0.01700
H 	H 	0.11613 0.02270 0.40911 0.05800
H 	H 	0.17713 0.11815 0.46911 0.04400
H 	H 	0.09747 0.15723 0.30825 0.04200
C 	C 	0.14809 0.38498 0.66847 -0.10000
C 	C 	0.19300 0.36667 0.69193 -0.00600
C 	C 	0.24717 0.39744 0.72274 0.14000
C 	C 	0.25815 0.44826 0.72837 -0.06500
C 	C 	0.21856 0.47194 0.70174 -0.05900
C 	C 	0.16087 0.43764 0.67320 0.16400
C 	C 	0.18527 0.31789 0.68263 0.01200
O 	O 	0.29310 0.38206 0.74494 -0.26800
H 	H 	0.30185 0.47356 0.75105 0.07400
O 	O 	0.12044 0.45888 0.64761 -0.27800
H 	H 	0.10503 0.36023 0.64543 0.07400
C 	C 	0.16656 0.25689 0.70978 0.12100
C 	C 	0.14953 0.20800 0.69811 -0.03700
C 	C 	0.14171 0.21634 0.65801 -0.12000
C 	C 	0.16983 0.27969 0.63283 0.20000
C 	C 	0.19152 0.33038 0.64517 -0.11300
O 	O 	0.16182 0.24393 0.74696 -0.27800
H 	H 	0.13369 0.16085 0.71883 0.06400
O 	O 	0.17294 0.29141 0.59546 -0.28700
H 	H 	0.20961 0.37829 0.62484 0.08100
H 	H 	0.08377 0.43522 0.66108 0.15200
H 	H 	0.11388 0.22600 0.74352 0.14300
H 	H 	0.12988 0.28638 0.57725 0.16200
H 	H 	0.27797 0.35125 0.77017 0.15900
C 	C 	0.63612 0.79992 0.65223 -0.11300
C 	C 	0.62588 0.79918 0.68419 0.01000
C 	C 	0.68247 0.83007 0.71425 0.11600
C 	C 	0.74854 0.86103 0.71238 -0.03000
C 	C 	0.75941 0.86438 0.67961 -0.12600
C 	C 	0.70273 0.83334 0.64948 0.19500
C 	C 	0.55581 0.76294 0.68748 -0.00400
O 	O 	0.67311 0.82924 0.74582 -0.27400
O 	O 	0.71228 0.83587 0.61731 -0.28400
H 	H 	0.59252 0.77518 0.62933 0.07600
C 	C 	0.51497 0.78531 0.66051 0.12900
C 	C 	0.44859 0.75039 0.66426 -0.06200
C 	C 	0.42276 0.69319 0.69468 -0.06300
C 	C 	0.46534 0.67340 0.72308 0.16800
C 	C 	0.53090 0.70737 0.71888 -0.09500
O 	O 	0.54035 0.84187 0.63111 -0.27800
H 	H 	0.41633 0.76634 0.64259 0.06600
O 	O 	0.44147 0.61882 0.75387 -0.28100
H 	H 	0.56254 0.69053 0.74008 0.08200
H 	H 	0.71629 0.87526 0.59683 0.14800
H 	H 	0.52646 0.82817 0.60741 0.14600
H 	H 	0.45378 0.63468 0.77606 0.15100
H 	H 	0.67512 0.86876 0.73714 0.14700
C 	C 	0.14173 0.67198 0.67431 -0.10100
C 	C 	0.17208 0.70141 0.70532 -0.00900
C 	C 	0.22314 0.69664 0.73768 0.13900
C 	C 	0.24582 0.66548 0.73782 -0.06600
C 	C 	0.21780 0.63884 0.70583 -0.05900
C 	C 	0.16402 0.64037 0.67462 0.16300
C 	C 	0.15130 0.73862 0.70306 0.01000
O 	O 	0.24997 0.72123 0.76951 -0.27600
H 	H 	0.28662 0.66371 0.76224 0.06600
O 	O 	0.13617 0.61469 0.64313 -0.27900
H 	H 	0.10186 0.67486 0.64950 0.06900
C 	C 	0.19339 0.80734 0.69164 0.11400
C 	C 	0.16666 0.84157 0.68017 -0.03600
C 	C 	0.09683 0.80753 0.67680 -0.12600
C 	C 	0.05796 0.73979 0.69361 0.18400
C 	C 	0.08510 0.70550 0.70638 -0.11300
O 	O 	0.25944 0.84092 0.68999 -0.27400
H 	H 	0.19829 0.89420 0.66977 0.05100
O 	O 	0.99079 0.70609 0.69316 -0.28500
H 	H 	0.05306 0.65278 0.71634 0.07300
H 	H 	0.09699 0.56880 0.65080 0.15500
H 	H 	0.25623 0.84595 0.66234 0.14500
H 	H 	0.99207 0.70511 0.71910 0.15500
H 	H 	0.29150 0.76614 0.76336 0.16000
C 	C 	0.14287 0.28511 0.19421 -0.11400
C 	C 	0.16655 0.34366 0.16467 0.01200
C 	C 	0.17071 0.34658 0.12929 0.11800
C 	C 	0.14459 0.28940 0.12214 -0.03300
C 	C 	0.11359 0.22921 0.14989 -0.11800
C 	C 	0.11604 0.22803 0.18691 0.19200
C 	C 	0.18639 0.40151 0.17093 -0.00300
O 	O 	0.20144 0.40519 0.10216 -0.26700
H 	H 	0.14420 0.29124 0.09385 0.05800
O 	O 	0.08951 0.17052 0.21538 -0.29000
H 	H 	0.14231 0.28311 0.22225 0.07400
C 	C 	0.14344 0.42228 0.15047 0.13200
C 	C 	0.16316 0.47740 0.15660 -0.06300
C 	C 	0.22528 0.51170 0.18323 -0.05900
C 	C 	0.26416 0.48654 0.20673 0.16700
C 	C 	0.24544 0.43257 0.19994 -0.09700
O 	O 	0.08139 0.38771 0.12551 -0.27700
H 	H 	0.13200 0.49544 0.13905 0.06500
O 	O 	0.32341 0.51774 0.23427 -0.27900
H 	H 	0.27723 0.41520 0.21703 0.07700
H 	H 	0.09006 0.40989 0.09832 0.14500
H 	H 	0.30915 0.49707 0.25964 0.15300
H 	H 	0.16350 0.40812 0.08192 0.14400
C 	C 	0.54288 0.79680 0.17475 -0.10200
C 	C 	0.54458 0.79250 0.14141 -0.00600
C 	C 	0.48412 0.76570 0.11173 0.14000
C 	C 	0.42176 0.73925 0.11697 -0.06400
C 	C 	0.41890 0.73769 0.15221 -0.05800
C 	C 	0.48026 0.76910 0.18040 0.16700
C 	C 	0.60934 0.81431 0.13833 0.01200
O 	O 	0.48508 0.76128 0.07895 -0.27000
H 	H 	0.37484 0.71588 0.09487 0.06900
O 	O 	0.47889 0.77092 0.21410 -0.28500
H 	H 	0.58980 0.81945 0.19704 0.06900
C 	C 	0.64699 0.87364 0.11192 0.11800
C 	C 	0.71227 0.89789 0.11280 -0.03600
C 	C 	0.74218 0.86537 0.14153 -0.12500
C 	C 	0.70232 0.80338 0.16557 0.19700
C 	C 	0.63587 0.77787 0.16378 -0.11400
O 	O 	0.62056 0.90855 0.08570 -0.27600
H 	H 	0.74128 0.94407 0.09279 0.05600
O 	O 	0.72823 0.76785 0.19090 -0.28100
H 	H 	0.60604 0.73096 0.18322 0.08100
H 	H 	0.47408 0.73118 0.23453 0.15700
H 	H 	0.63621 0.93812 0.10023 0.14400
H 	H 	0.74786 0.77790 0.21713 0.14900
H 	H 	0.49111 0.80103 0.05793 0.15900
C 	C 	0.26724 0.73803 0.24246 -0.10000
C 	C 	0.21171 0.74099 0.21644 -0.00400
C 	C 	0.17202 0.71189 0.18388 0.13900
C 	C 	0.18940 0.68214 0.17692 -0.06600
C 	C 	0.24691 0.68202 0.20178 -0.05600
C 	C 	0.28538 0.70934 0.23501 0.16600
C 	C 	0.19983 0.78080 0.22050 0.00900
O 	O 	0.11931 0.71657 0.15724 -0.27800
H 	H 	0.15992 0.66177 0.15109 0.06700
O 	O 	0.34039 0.70766 0.26040 -0.28100
H 	H 	0.29772 0.75980 0.26773 0.07100
C 	C 	0.13729 0.75177 0.22737 0.11900
C 	C 	0.11587 0.79026 0.21671 -0.02900
C 	C 	0.15598 0.85707 0.19839 -0.12700
C 	C 	0.22461 0.88735 0.20073 0.19200
C 	C 	0.24582 0.84906 0.21064 -0.11400
O 	O 	0.09451 0.68545 0.24104 -0.27500
H 	H 	0.06445 0.76681 0.21771 0.05700
O 	O 	0.26748 0.95369 0.18723 -0.29500
H 	H 	0.29587 0.87227 0.20757 0.07500
H 	H 	0.38074 0.74906 0.24975 0.16000
H 	H 	0.10773 0.67730 0.27059 0.14800
H 	H 	0.29179 0.97094 0.21122 0.15000
H 	H 	0.07755 0.67620 0.16694 0.15800
C 	C 	0.77042 0.23960 0.52411 -0.09200
C 	C 	0.81734 0.22482 0.55132 -0.00300
C 	C 	0.84127 0.22934 0.59108 0.13600
C 	C 	0.81588 0.24555 0.60368 -0.06200
C 	C 	0.76507 0.25531 0.57729 -0.05400
C 	C 	0.74334 0.25366 0.53711 0.16700
O 	O 	0.88848 0.21672 0.61785 -0.27700
H 	H 	0.83322 0.24726 0.63456 0.06800
O 	O 	0.69574 0.26582 0.51053 -0.27400
C 	C 	0.78522 0.13299 0.53429 0.11500
O 	O 	0.71741 0.10168 0.53101 -0.27000
H 	H 	0.65061 0.22257 0.51154 0.15600
H 	H 	0.69716 0.11028 0.50186 0.14800
H 	H 	0.86110 0.16923 0.63028 0.14700
C 	C 	0.84056 0.47387 0.64639 -0.09900
C 	C 	0.79588 0.49170 0.63024 -0.00600
C 	C 	0.72702 0.44931 0.61193 0.14000
C 	C 	0.70425 0.39147 0.60797 -0.06400
C 	C 	0.74942 0.37465 0.62278 -0.05500
C 	C 	0.81750 0.41541 0.64291 0.16400
O 	O 	0.68309 0.46656 0.59536 -0.26900
H 	H 	0.65160 0.36018 0.59268 0.07600
O 	O 	0.86195 0.39906 0.65836 -0.27800
C 	C 	0.80846 0.57351 0.64653 0.12100
O 	O 	0.77352 0.52556 0.67603 -0.27200
H 	H 	0.81256 0.64625 0.65247 0.06800
H 	H 	0.85705 0.37324 0.68618 0.15100
H 	H 	0.80950 0.52798 0.70101 0.15100
H 	H 	0.96281 0.73569 0.56903 0.14200
C 	C 	0.29297 0.99059 0.59676 -0.15000
C 	C 	0.34611 0.04959 0.60810 0.04400
C 	C 	0.33065 0.08235 0.61369 0.10000
C 	C 	0.26218 0.05714 0.60647 0.00000
C 	C 	0.20863 0.99961 0.59313 -0.15100
C 	C 	0.22451 0.96562 0.58899 0.20700
C 	C 	0.41728 0.08069 0.60951 -0.01000
O 	O 	0.38232 0.14117 0.62368 -0.26400
H 	H 	0.25092 0.08376 0.60979 0.05900
O 	O 	0.17339 0.91000 0.57528 -0.29900
H 	H 	0.30474 0.96514 0.59256 0.08000
C 	C 	0.46442 0.08014 0.64639 0.13800
C 	C 	0.53375 0.11667 0.64738 -0.06200
C 	C 	0.55623 0.15362 0.61170 -0.05900
C 	C 	0.50803 0.14967 0.57475 0.16600
C 	C 	0.43890 0.11369 0.57378 -0.09100
O 	O 	0.44272 0.04336 0.68138 -0.26800
H 	H 	0.57047 0.11849 0.67593 0.06700
O 	O 	0.52922 0.18507 0.53962 -0.27600
H 	H 	0.40246 0.11318 0.54526 0.07700
H 	H 	0.16259 0.87342 0.59953 0.14600
H 	H 	0.44923 0.07323 0.69126 0.14800
H 	H 	0.52669 0.15558 0.53185 0.15200
H 	H 	0.39256 0.13049 0.65326 0.14600
C 	C 	0.78488 0.27919 0.96876 -0.10500
C 	C 	0.78666 0.23164 0.00355 0.00200
C 	C 	0.76799 0.21883 0.03639 0.13800
C 	C 	0.74753 0.25328 0.03417 -0.05700
C 	C 	0.74593 0.30092 0.99947 -0.06200
C 	C 	0.76441 0.31371 0.96657 0.16800
O 	O 	0.77281 0.17484 0.07132 -0.27400
H 	H 	0.73385 0.24359 0.05969 0.07100
O 	O 	0.76367 0.36064 0.93257 -0.27700
O 	O 	0.69604 0.09807 0.00081 -0.26900
H 	H 	0.71688 0.33750 0.91538 0.15200
H 	H 	0.72662 0.13282 0.06926 0.16000
H 	H 	0.78946 0.62404 0.04289 0.07500
C 	C 	0.86629 0.54648 0.06384 0.13700
C 	C 	0.83924 0.49640 0.04870 -0.06200
C 	C 	0.80685 0.49761 0.00804 -0.04800
C 	C 	0.80968 0.55351 0.98163 0.16100
O 	O 	0.89249 0.54195 0.10420 -0.27500
H 	H 	0.83773 0.45371 0.06920 0.07500
H 	H 	0.85314 0.51914 0.11510 0.15400
H 	H 	0.73382 0.53971 0.93718 0.15100
C 	C 	0.35446 0.21500 0.03245 -0.11300
C 	C 	0.40702 0.20700 0.05701 0.01200
C 	C 	0.40125 0.16461 0.09543 0.12100
C 	C 	0.34154 0.12781 0.10803 -0.02800
C 	C 	0.28609 0.13078 0.08187 -0.12100
C 	C 	0.29404 0.17704 0.04475 0.19500
C 	C 	0.46717 0.24160 0.04215 -0.00800
O 	O 	0.45350 0.15835 0.12044 -0.26800
H 	H 	0.33654 0.09367 0.13717 0.07400
O 	O 	0.24064 0.18118 0.01905 -0.29700
H 	H 	0.35946 0.24893 0.00324 0.07300
C 	C 	0.46064 0.22386 0.01185 0.14000
C 	C 	0.51884 0.25468 0.99953 -0.07300
C 	C 	0.58354 0.30333 0.01716 -0.05400
C 	C 	0.59003 0.32016 0.04798 0.16400
C 	C 	0.53188 0.28979 0.05996 -0.09300
O 	O 	0.39793 0.17474 0.99540 -0.27700
H 	H 	0.51352 0.24116 0.97605 0.06900
O 	O 	0.65361 0.36379 0.06780 -0.27800
H 	H 	0.53726 0.30292 0.08368 0.08000
H 	H 	0.24738 0.21472 0.02529 0.15500
H 	H 	0.37804 0.19671 0.97159 0.14700
H 	H 	0.66065 0.40649 0.05431 0.15000
H 	H 	0.44344 0.12274 0.11443 0.15800
Co	Co	0.01471 0.90899 0.12576 1.18200
C 	C 	0.06742 0.01764 0.99688 0.29000
O 	O 	0.04046 0.02957 0.00908 -0.36600
O 	O 	0.99486 0.04530 0.20312 -0.36700
O 	O 	0.00155 0.96470 0.21262 -0.39400
O 	O 	0.00654 0.00534 0.50463 -0.36400
O 	O 	0.01900 0.05191 0.71101 -0.38300
O 	O 	0.01488 0.96495 0.71984 -0.38800
C 	C 	0.01680 0.99267 0.34080 -0.01000
C 	C 	0.01432 0.99744 0.37624 -0.00900
C 	C 	0.00722 0.99635 0.44615 -0.12200
H 	H 	0.66057 0.44762 0.61678 0.16100
O 	O 	0.78188 0.55714 0.94140 -0.27600
H 	H 	0.04259 0.15508 0.21203 0.14400
H 	H 	0.79169 0.88446 0.73582 0.05600
C 	C 	0.03980 0.00698 0.95625 -0.05200
C 	C 	0.01746 0.98041 0.77681 -0.11000
H 	H 	0.76830 0.04788 0.53580 0.06200
O 	O 	0.99676 0.14302 0.12836 -0.39900
C 	C 	0.02629 0.99315 0.88505 -0.00900
C 	C 	0.02265 0.98734 0.84796 -0.01000
C 	C 	0.80605 0.09884 0.53644 -0.03100
O 	O 	0.82280 0.71972 0.06147 -0.28200
C 	C 	0.84415 0.65882 0.05299 -0.11600
C 	C 	0.86523 0.60050 0.03775 0.00000
H 	H 	0.81570 0.74541 0.03378 0.15200
C 	C 	0.83476 0.19679 0.53973 0.00700
C 	C 	0.81087 0.19716 0.00636 0.00900
C 	C 	0.76539 0.12981 0.00888 0.12000
H 	H 	0.67914 0.09962 0.97188 0.14900
C 	C 	0.81726 0.90275 0.15294 0.32600
C 	C 	0.82976 0.90814 0.67439 0.32500
H 	H 	0.84098 0.91401 0.33315 0.03900
H 	H 	0.75270 0.23744 0.49330 0.07300
C 	C 	0.82412 0.55941 0.62518 0.01600
C 	C 	0.82637 0.63625 0.63662 -0.02100
C 	C 	0.86842 0.71203 0.06381 0.19900
C 	C 	0.83949 0.60503 0.99649 -0.10000
H 	H 	0.75624 0.04159 0.02713 0.06800
O 	O 	0.98304 0.90714 0.58078 -0.75300
H 	H 	0.89377 0.50642 0.66044 0.07300
C 	C 	0.99343 0.96840 0.48635 0.30400
H 	H 	0.99847 0.24176 0.52098 0.15700
O 	O 	0.95770 0.90509 0.50006 -0.37800
Co	Co	0.95396 0.94730 0.15474 1.18300
Co	Co	0.92565 0.04394 0.14882 1.17400
C 	C 	0.96688 0.82235 0.07675 0.33100
O 	O 	0.86350 0.04254 0.09199 -0.39100
O 	O 	0.96219 0.01807 0.13020 -0.74100
C 	C 	0.88964 0.08692 0.06070 0.31500
O 	O 	0.96342 0.87797 0.16454 -0.45100
O 	O 	0.99162 0.98248 0.10106 -0.58400
O 	O 	0.93820 0.09601 0.05300 -0.35900
O 	O 	0.85289 0.94760 0.17198 -0.42400
O 	O 	0.84813 0.89040 0.14488 -0.38100
O 	O 	0.00763 0.87395 0.05282 -0.41100
O 	O 	0.95312 0.82776 0.10236 -0.36500
Co	Co	0.95174 0.93709 0.66511 1.18200
Co	Co	0.96824 0.86954 0.62724 1.18500
Co	Co	0.94626 0.05045 0.65847 1.17900
C 	C 	0.87724 0.75104 0.59405 0.31900
O 	O 	0.87733 0.04426 0.60387 -0.38700
O 	O 	0.96342 0.00867 0.63855 -0.74300
C 	C 	0.89893 0.08445 0.57072 0.31700
O 	O 	0.95404 0.86252 0.67615 -0.46000
O 	O 	0.96179 0.95392 0.60530 -0.57600
O 	O 	0.94705 0.09310 0.56258 -0.36000
O 	O 	0.87388 0.96087 0.68779 -0.42100
O 	O 	0.85079 0.88708 0.66506 -0.38000
O 	O 	0.89136 0.78928 0.55922 -0.36600
O 	O 	0.88766 0.77424 0.62056 -0.37300
C 	C 	0.00794 0.93968 0.91873 0.00300
C 	C 	0.01226 0.94626 0.95332 -0.05100
S 	S 	0.98365 0.86540 0.91906 -0.01800
H 	H 	0.99860 0.90499 0.97900 0.06000
C 	C 	0.95899 0.95319 0.82166 0.00400
C 	C 	0.95678 0.94743 0.78743 0.00100
S 	S 	0.88210 0.92099 0.82976 -0.03100
H 	H 	0.90777 0.92124 0.76746 0.04200
H 	H 	0.87025 0.96754 0.81154 0.03600
H 	H 	0.91366 0.82428 0.90727 0.04100
C 	C 	0.96818 0.93353 0.32901 -0.05900
C 	C 	0.96468 0.93049 0.29317 0.06100
S 	S 	0.89668 0.85896 0.27610 -0.03500
H 	H 	0.93096 0.89084 0.34660 0.05500
C 	C 	0.95617 0.98669 0.37695 0.00200
C 	C 	0.95205 0.98403 0.41226 0.01500
S 	S 	0.88938 0.97847 0.33380 -0.03700
H 	H 	0.90501 0.97010 0.41377 0.04200
H 	H 	0.84198 0.86215 0.25405 0.03900
C 	C 	0.87615 0.12710 0.54555 -0.12100
C 	C 	0.92397 0.19446 0.54338 0.19400
C 	C 	0.90327 0.22900 0.54092 -0.11000
O 	O 	0.99209 0.22473 0.54838 -0.28500
H 	H 	0.94130 0.27927 0.54303 0.08500
C 	C 	0.86075 0.68537 0.60579 -0.11600
C 	C 	0.87945 0.67151 0.58598 0.20600
C 	C 	0.86069 0.60887 0.59564 -0.11400
O 	O 	0.91394 0.71851 0.55615 -0.30600
H 	H 	0.87311 0.59826 0.57928 0.08300
H 	H 	0.79958 0.28955 0.94348 0.07500
C 	C 	0.79124 0.09414 0.02249 -0.03000
C 	C 	0.86237 0.12549 0.03310 -0.11700
C 	C 	0.90701 0.19409 0.02520 0.19500
C 	C 	0.88109 0.22966 0.01190 -0.11100
O 	O 	0.97611 0.22624 0.03169 -0.28300
H 	H 	0.91612 0.28201 0.00827 0.08100
H 	H 	0.99634 0.23326 0.05893 0.15900
C 	C 	0.89055 0.65212 0.05354 0.00600
C 	C 	0.96124 0.69630 0.06769 0.13200
C 	C 	0.98521 0.74803 0.07975 -0.01900
C 	C 	0.93941 0.75792 0.07621 -0.12700
O 	O 	0.00725 0.69199 0.06676 -0.27800
H 	H 	0.03999 0.78310 0.08937 0.04800
H 	H 	0.84057 0.64754 0.97609 0.07300
H 	H 	0.01499 0.66433 0.09329 0.16300
