data_crystal

_cell_length_a 18.57846
_cell_length_b 18.79014
_cell_length_c 26.42106
_cell_angle_alpha 95.41872
_cell_angle_beta  95.41898
_cell_angle_gamma 126.42008

_symmetry_space_group_name_	'P 1'
_symmetry_space_group_name_H-M	'P 1'

loop_
_symmetry_equiv_pos_as_xyz
  x,y,z

loop_
_atom_site_label
_atom_site_type_symbol
_atom_site_fract_x
_atom_site_fract_y
_atom_site_fract_z
_atom_site_charge
C 	C 	0.95432 0.04196 0.00332 0.11000
N 	N 	0.04523 0.08862 0.00436 -0.13900
C 	C 	0.08327 0.04528 0.00588 0.12000
N 	N 	0.03030 0.95551 0.00527 -0.13300
C 	C 	0.93969 0.90891 0.00374 0.12700
N 	N 	0.90181 0.95225 0.00341 -0.13600
C 	C 	0.90829 0.99729 0.45694 0.13600
N 	N 	0.99738 0.04659 0.45310 -0.14300
C 	C 	0.04058 0.00861 0.45346 0.12200
N 	N 	0.99497 0.92119 0.45808 -0.13400
C 	C 	0.90577 0.87118 0.46188 0.12600
N 	N 	0.86198 0.90912 0.46112 -0.13900
Cu	Cu	0.62058 0.20703 0.00773 0.93000
Cu	Cu	0.67918 0.21119 0.89425 0.87900
Cu	Cu	0.66244 0.34841 0.94191 0.90300
Cu	Cu	0.62829 0.37451 0.04832 0.90300
C 	C 	0.66185 0.27614 0.11687 0.39300
O 	O 	0.48975 0.15482 0.01258 -0.34700
C 	C 	0.62742 0.29019 0.82774 0.38300
O 	O 	0.69474 0.34712 0.01287 -0.64000
O 	O 	0.60022 0.21631 0.93451 -0.63700
O 	O 	0.67688 0.14448 0.99915 -0.35500
O 	O 	0.77073 0.23906 0.94900 -0.42700
O 	O 	0.61973 0.31176 0.10697 -0.37500
O 	O 	0.73113 0.47778 0.95323 -0.35900
C 	C 	0.73440 0.52752 0.99357 0.30200
C 	C 	0.45398 0.19389 0.99704 0.29300
O 	O 	0.50736 0.27752 0.99052 -0.38600
O 	O 	0.67714 0.49104 0.02584 -0.38400
O 	O 	0.65898 0.22086 0.08039 -0.34800
C 	C 	0.75193 0.18211 0.98008 0.29700
O 	O 	0.64562 0.35101 0.86721 -0.35600
O 	O 	0.61687 0.21627 0.83485 -0.39600
H 	H 	0.76105 0.38597 0.02667 0.17800
H 	H 	0.53575 0.17856 0.91673 0.18400
Cu	Cu	0.75702 0.34277 0.44294 0.93100
Cu	Cu	0.74675 0.27904 0.55498 0.88100
Cu	Cu	0.60433 0.28630 0.50340 0.90200
Cu	Cu	0.58128 0.32146 0.39726 0.90100
C 	C 	0.69794 0.30877 0.33286 0.40000
O 	O 	0.80146 0.47140 0.44025 -0.33600
C 	C 	0.65616 0.31956 0.61826 0.38700
O 	O 	0.61417 0.26052 0.43346 -0.63800
O 	O 	0.73936 0.35593 0.51492 -0.63900
O 	O 	0.82354 0.28994 0.45307 -0.35800
O 	O 	0.72359 0.19219 0.49976 -0.42800
O 	O 	0.65483 0.34315 0.34215 -0.37900
O 	O 	0.47319 0.21132 0.48795 -0.36500
C 	C 	0.42358 0.21746 0.45204 0.30300
C 	C 	0.75376 0.49905 0.45332 0.29000
O 	O 	0.66846 0.44002 0.45740 -0.39000
O 	O 	0.45593 0.25732 0.41238 -0.38400
O 	O 	0.75152 0.31091 0.37061 -0.35100
C 	C 	0.78455 0.21410 0.47066 0.29700
O 	O 	0.59353 0.29459 0.57738 -0.35900
O 	O 	0.73413 0.33556 0.61324 -0.39800
H 	H 	0.57949 0.19563 0.41899 0.18500
H 	H 	0.77284 0.41867 0.53354 0.18700
C 	C 	0.55841 0.24473 0.68294 0.26600
C 	C 	0.63544 0.32207 0.67056 -0.20600
C 	C 	0.70061 0.39542 0.71032 0.27000
C 	C 	0.69380 0.38793 0.76216 0.26500
C 	C 	0.62189 0.30682 0.77460 -0.20500
C 	C 	0.55182 0.23702 0.73478 0.26900
F 	F 	0.47923 0.16024 0.74633 -0.40100
F 	F 	0.49315 0.17453 0.64482 -0.40200
F 	F 	0.76039 0.45722 0.80026 -0.40100
F 	F 	0.77300 0.47235 0.69877 -0.40000
C 	C 	0.75986 0.35990 0.20348 0.26500
C 	C 	0.68894 0.27769 0.17128 -0.20600
C 	C 	0.63365 0.20123 0.19326 0.27400
C 	C 	0.64303 0.20931 0.24717 0.26500
C 	C 	0.70780 0.29371 0.27927 -0.20600
C 	C 	0.76949 0.36780 0.25732 0.27500
F 	F 	0.83445 0.44912 0.28813 -0.39500
F 	F 	0.81586 0.43350 0.18259 -0.41500
F 	F 	0.58503 0.13649 0.26809 -0.41300
F 	F 	0.56642 0.12069 0.16246 -0.39600
C 	C 	0.78758 0.70987 0.42327 -0.06900
C 	C 	0.85624 0.77508 0.46489 -0.02900
C 	C 	0.88849 0.74862 0.50401 0.09200
C 	C 	0.85716 0.65880 0.49832 -0.02800
C 	C 	0.79121 0.59428 0.45556 -0.08900
C 	C 	0.75565 0.61991 0.41765 0.12700
N 	N 	0.69315 0.55938 0.37506 -0.19800
H 	H 	0.76254 0.73009 0.39351 0.06200
H 	H 	0.88249 0.63869 0.52799 0.05300
N 	N 	0.94784 0.80859 0.54757 -0.19400
H 	H 	0.66582 0.57843 0.34800 0.09700
H 	H 	0.67300 0.49390 0.36754 0.09100
H 	H 	0.96543 0.87317 0.55522 0.10200
H 	H 	0.97405 0.78965 0.57542 0.10400
C 	C 	0.86466 0.15911 0.51023 -0.02700
C 	C 	0.81956 0.16144 0.46550 -0.10400
C 	C 	0.79610 0.10282 0.41860 0.13100
C 	C 	0.81935 0.04379 0.41747 -0.07100
C 	C 	0.86547 0.04245 0.46216 -0.03600
C 	C 	0.88622 0.09899 0.50930 0.08500
N 	N 	0.92628 0.09545 0.55385 -0.19500
H 	H 	0.88077 0.20258 0.54637 0.02900
H 	H 	0.80413 0.00092 0.38128 0.06000
N 	N 	0.75163 0.10289 0.37464 -0.20300
H 	H 	0.94400 0.13935 0.58820 0.08900
H 	H 	0.93763 0.04743 0.55520 0.09500
H 	H 	0.73469 0.14677 0.37386 0.12200
H 	H 	0.73399 0.05891 0.34034 0.11000
C 	C 	0.20031 0.13135 0.49440 -0.07100
C 	C 	0.13795 0.06352 0.45180 -0.02600
C 	C 	0.16945 0.04877 0.40826 0.08300
C 	C 	0.26335 0.10015 0.40916 -0.02400
C 	C 	0.32584 0.16739 0.45200 -0.09700
C 	C 	0.29413 0.18472 0.49461 0.13300
N 	N 	0.35297 0.25363 0.53511 -0.19900
H 	H 	0.17564 0.14314 0.52737 0.06200
H 	H 	0.28794 0.08772 0.37637 0.05300
N 	N 	0.11010 0.98660 0.36528 -0.19000
H 	H 	0.32902 0.26383 0.56714 0.10500
H 	H 	0.42222 0.29968 0.53446 0.10800
H 	H 	0.03987 0.95111 0.36199 0.10400
H 	H 	0.13421 0.97487 0.33383 0.10100
C 	C 	0.77733 0.65779 0.95294 -0.02800
C 	C 	0.78891 0.62524 0.99616 -0.08600
C 	C 	0.84900 0.68635 0.04224 0.11900
C 	C 	0.89336 0.77870 0.04478 -0.06500
C 	C 	0.88268 0.81133 0.00141 -0.03500
C 	C 	0.82460 0.75046 0.95481 0.09900
N 	N 	0.81489 0.78044 0.91164 -0.19500
H 	H 	0.73116 0.61076 0.91771 0.07000
H 	H 	0.93904 0.82575 0.08012 0.06000
N 	N 	0.86678 0.65719 0.08343 -0.19900
H 	H 	0.77112 0.73472 0.87765 0.10500
H 	H 	0.85126 0.84897 0.91098 0.10200
H 	H 	0.84272 0.59047 0.08101 0.09900
H 	H 	0.90864 0.70246 0.11791 0.10400
C 	C 	0.90267 0.12667 0.04083 -0.08100
C 	C 	0.91110 0.08624 0.99676 -0.01500
C 	C 	0.86975 0.08017 0.94710 0.07900
C 	C 	0.81758 0.11150 0.94268 -0.02400
C 	C 	0.80742 0.15022 0.98677 -0.10200
C 	C 	0.85228 0.16011 0.03633 0.13100
N 	N 	0.84889 0.20300 0.07946 -0.20100
H 	H 	0.93495 0.13167 0.07880 0.06300
H 	H 	0.78450 0.10548 0.90470 0.02900
N 	N 	0.87993 0.04452 0.90358 -0.19300
H 	H 	0.87990 0.20746 0.11598 0.10600
H 	H 	0.81841 0.23494 0.07714 0.11600
H 	H 	0.92175 0.02454 0.90527 0.09400
H 	H 	0.84730 0.03832 0.86714 0.08800
C 	C 	0.32468 0.12607 0.04347 -0.03900
C 	C 	0.35732 0.15135 0.99763 -0.08900
C 	C 	0.30112 0.14763 0.95562 0.12100
C 	C 	0.21432 0.12123 0.96101 -0.06300
C 	C 	0.18122 0.09446 0.00652 -0.03700
C 	C 	0.23790 0.09951 0.04875 0.09300
N 	N 	0.21005 0.08071 0.09473 -0.19600
H 	H 	0.36844 0.13065 0.07597 0.06900
H 	H 	0.17045 0.11662 0.92857 0.05900
N 	N 	0.32860 0.16593 0.90950 -0.19900
H 	H 	0.25094 0.08159 0.12521 0.10000
H 	H 	0.14933 0.06835 0.10132 0.09800
H 	H 	0.38828 0.17641 0.90242 0.10000
H 	H 	0.28809 0.16605 0.87929 0.10100
