data_crystal

_cell_length_a 20.32911
_cell_length_b 20.57343
_cell_length_c 26.73179
_cell_angle_alpha 95.45849
_cell_angle_beta  95.45949
_cell_angle_gamma 126.12876

_symmetry_space_group_name_	'P 1'
_symmetry_space_group_name_H-M	'P 1'

loop_
_symmetry_equiv_pos_as_xyz
  x,y,z

loop_
_atom_site_label
_atom_site_type_symbol
_atom_site_fract_x
_atom_site_fract_y
_atom_site_fract_z
_atom_site_charge
C 	C 	0.94379 0.02920 0.99994 0.04400
C 	C 	0.06375 0.03157 0.99340 0.05600
C 	C 	0.02907 0.07349 0.99932 -0.08400
C 	C 	0.92551 0.01019 0.44422 0.05300
C 	C 	0.01172 0.05915 0.44781 -0.07500
C 	C 	0.05382 0.02492 0.45300 0.05500
C 	C 	0.88434 0.04838 0.44214 -0.00300
C 	C 	0.85613 0.08629 0.44177 -0.00800
C 	C 	0.14223 0.07524 0.45745 -0.00400
C 	C 	0.90583 0.07023 0.00303 0.00900
C 	C 	0.15083 0.07495 0.99303 -0.00800
H 	H 	0.04609 0.12406 0.44719 0.06900
C 	C 	0.82746 0.13470 0.44348 0.07500
C 	C 	0.21619 0.11572 0.46096 -0.00700
C 	C 	0.86998 0.10054 0.00419 -0.00800
C 	C 	0.22261 0.10522 0.99234 -0.00800
C 	C 	0.82503 0.13301 0.00336 0.07200
H 	H 	0.06778 0.13961 0.00310 0.07800
C 	C 	0.30571 0.13684 0.99142 0.06900
F 	F 	0.58362 0.15339 0.16542 -0.38200
C 	C 	0.89407 0.94371 0.99475 -0.07200
C 	C 	0.92901 0.90249 0.98860 0.05400
C 	C 	0.01350 0.94632 0.98794 -0.07500
H 	H 	0.82827 0.90938 0.99513 0.06600
H 	H 	0.04037 0.91405 0.98339 0.06900
C 	C 	0.01011 0.94157 0.45397 -0.07400
C 	C 	0.92406 0.89176 0.45021 0.05600
C 	C 	0.88115 0.92593 0.44545 -0.07300
H 	H 	0.04318 0.91536 0.45783 0.07100
H 	H 	0.81450 0.88776 0.44306 0.07000
Cu	Cu	0.61703 0.21668 0.01071 0.93400
Cu	Cu	0.67557 0.20657 0.90187 0.89000
Cu	Cu	0.65657 0.33603 0.93683 0.90200
Cu	Cu	0.61632 0.36816 0.03758 0.91200
C 	C 	0.64666 0.28998 0.11574 0.38800
O 	O 	0.49567 0.16741 0.01095 -0.32700
C 	C 	0.63867 0.27351 0.82714 0.37700
O 	O 	0.68157 0.34257 0.00928 -0.63000
O 	O 	0.60190 0.21679 0.93624 -0.63900
O 	O 	0.67168 0.16133 0.01138 -0.33300
O 	O 	0.75729 0.23991 0.95951 -0.41900
O 	O 	0.60705 0.31935 0.10012 -0.35800
O 	O 	0.71548 0.45315 0.94288 -0.35600
C 	C 	0.71219 0.49986 0.97841 0.30500
C 	C 	0.46236 0.19997 0.99078 0.29400
O 	O 	0.51023 0.27340 0.98029 -0.38200
O 	O 	0.65747 0.46846 0.00879 -0.35800
O 	O 	0.64863 0.23802 0.08397 -0.33000
C 	C 	0.73990 0.19190 0.99281 0.28900
O 	O 	0.64969 0.33159 0.86156 -0.34400
O 	O 	0.62109 0.20538 0.83974 -0.38100
H 	H 	0.74140 0.37993 0.02456 0.18600
H 	H 	0.54361 0.18047 0.91780 0.18600
Cu	Cu	0.75285 0.34943 0.43890 0.93100
Cu	Cu	0.76003 0.28903 0.54720 0.89200
Cu	Cu	0.62930 0.30713 0.51113 0.90400
Cu	Cu	0.59888 0.34861 0.41055 0.90600
C 	C 	0.68586 0.32781 0.33322 0.39600
O 	O 	0.80200 0.47005 0.43971 -0.33300
C 	C 	0.69067 0.32425 0.62121 0.37800
O 	O 	0.62507 0.28438 0.43877 -0.63500
O 	O 	0.75043 0.36241 0.51305 -0.63500
O 	O 	0.80760 0.29357 0.43829 -0.34700
O 	O 	0.72614 0.20846 0.48941 -0.41900
O 	O 	0.65220 0.36287 0.34917 -0.36200
O 	O 	0.51041 0.24762 0.50383 -0.35600
C 	C 	0.46325 0.24922 0.46719 0.31600
C 	C 	0.76692 0.50146 0.45894 0.30500
O 	O 	0.69249 0.45264 0.46900 -0.37800
O 	O 	0.49519 0.30442 0.43754 -0.37400
O 	O 	0.73309 0.32000 0.36565 -0.33900
C 	C 	0.77494 0.22531 0.45629 0.31400
O 	O 	0.63176 0.31214 0.58623 -0.34300
O 	O 	0.76009 0.34213 0.60916 -0.38100
H 	H 	0.58805 0.22546 0.42299 0.18500
H 	H 	0.78640 0.41975 0.53193 0.18700
C 	C 	0.70238 0.27118 0.69904 0.26900
C 	C 	0.67598 0.31111 0.67375 -0.19900
C 	C 	0.63646 0.33853 0.69895 0.27500
C 	C 	0.62395 0.32633 0.74905 0.27500
C 	C 	0.65137 0.28710 0.77438 -0.19900
C 	C 	0.69127 0.26034 0.74912 0.26900
F 	F 	0.72057 0.22481 0.77351 -0.41400
F 	F 	0.73800 0.24176 0.67471 -0.41400
F 	F 	0.58430 0.35158 0.77257 -0.38600
F 	F 	0.61131 0.37794 0.67531 -0.38600
C 	C 	0.64232 0.23923 0.24803 0.27300
C 	C 	0.68893 0.31785 0.27844 -0.19800
C 	C 	0.73071 0.38705 0.25530 0.27800
C 	C 	0.72136 0.37772 0.20199 0.27000
C 	C 	0.67017 0.29912 0.17128 -0.19500
C 	C 	0.63281 0.22980 0.19457 0.27700
F 	F 	0.60291 0.17193 0.27008 -0.39600
F 	F 	0.75982 0.44515 0.18002 -0.40300
F 	F 	0.77820 0.46341 0.28449 -0.38800
C 	C 	0.88127 0.80587 0.45169 -0.00200
C 	C 	0.85305 0.73558 0.45339 -0.00300
C 	C 	0.82469 0.65450 0.45557 0.07500
C 	C 	0.80037 0.58528 0.45732 -0.08300
C 	C 	0.80410 0.17681 0.44749 -0.09400
C 	C 	0.30249 0.16197 0.46438 0.07700
C 	C 	0.37608 0.20145 0.46635 -0.08900
C 	C 	0.75761 0.58527 0.97755 -0.08500
C 	C 	0.79512 0.65749 0.97844 0.07400
C 	C 	0.83940 0.74233 0.98101 -0.00600
C 	C 	0.87885 0.81520 0.98416 -0.00500
C 	C 	0.78583 0.15973 0.00020 -0.08000
C 	C 	0.37676 0.16398 0.99085 -0.09000
