data_crystal

_cell_length_a 42.67995
_cell_length_b 42.68825
_cell_length_c 29.39852
_cell_angle_alpha 90.00301
_cell_angle_beta  89.99867
_cell_angle_gamma 120.00326

_symmetry_space_group_name_	'P 1'
_symmetry_space_group_name_H-M	'P 1'

loop_
_symmetry_equiv_pos_as_xyz
  x,y,z

loop_
_atom_site_label
_atom_site_type_symbol
_atom_site_fract_x
_atom_site_fract_y
_atom_site_fract_z
_atom_site_charge
C 	C 	0.58344 0.44073 0.71889 0.29100
C 	C 	0.71506 0.57694 0.67690 0.30700
C 	C 	0.61377 0.52558 0.76984 0.30900
C 	C 	0.68176 0.49322 0.61123 0.28800
C 	C 	0.61825 0.58357 0.64355 0.30900
C 	C 	0.57489 0.49474 0.57956 0.29000
Ni	Ni	0.65662 0.50571 0.70565 1.11200
Ni	Ni	0.65262 0.54335 0.61207 1.12100
Ni	Ni	0.58441 0.50813 0.67817 1.12100
O 	O 	0.61692 0.45185 0.70498 -0.38000
O 	O 	0.56789 0.46124 0.71522 -0.37600
O 	O 	0.64928 0.58454 0.63915 -0.39000
O 	O 	0.69144 0.56079 0.70926 -0.38100
O 	O 	0.70512 0.56856 0.63419 -0.37800
O 	O 	0.56241 0.48090 0.62052 -0.38700
O 	O 	0.63199 0.50838 0.76599 -0.37800
O 	O 	0.60695 0.53901 0.73375 -0.39100
O 	O 	0.60653 0.52539 0.57406 -0.38200
O 	O 	0.68899 0.50015 0.65558 -0.37200
O 	O 	0.66286 0.50499 0.58807 -0.38100
O 	O 	0.58794 0.55240 0.64782 -0.38700
O 	O 	0.62836 0.51068 0.66069 -0.71900
H 	H 	0.61865 0.48742 0.64455 0.16600
C 	C 	0.38258 0.50585 0.21642 0.29000
C 	C 	0.24565 0.37348 0.17742 0.31000
C 	C 	0.34361 0.41877 0.27275 0.32900
C 	C 	0.28266 0.45539 0.10988 0.29100
C 	C 	0.33829 0.35898 0.14767 0.33000
C 	C 	0.38781 0.44865 0.08461 0.30500
Ni	Ni	0.30656 0.44379 0.20625 1.11300
Ni	Ni	0.30914 0.40339 0.11423 1.12100
Ni	Ni	0.37548 0.43430 0.18273 1.12100
O 	O 	0.34877 0.49675 0.20607 -0.37500
O 	O 	0.39311 0.48118 0.21989 -0.37600
O 	O 	0.30859 0.36036 0.14207 -0.39100
O 	O 	0.26854 0.38947 0.21060 -0.37900
O 	O 	0.25653 0.38144 0.13495 -0.38100
O 	O 	0.40046 0.46110 0.12594 -0.38600
O 	O 	0.32903 0.43932 0.26765 -0.37300
O 	O 	0.34909 0.40386 0.23723 -0.39000
O 	O 	0.35571 0.41885 0.07813 -0.38100
O 	O 	0.27668 0.45210 0.15486 -0.37000
O 	O 	0.30285 0.44393 0.08935 -0.38400
O 	O 	0.36961 0.38882 0.15308 -0.38600
O 	O 	0.33387 0.43557 0.16294 -0.71900
H 	H 	0.34548 0.45889 0.14670 0.16500
C 	C 	0.50978 0.10416 0.04658 0.28800
C 	C 	0.37363 0.10278 0.01404 0.30400
C 	C 	0.42348 0.05112 0.10381 0.30900
C 	C 	0.45760 0.15233 0.94644 0.30600
C 	C 	0.36404 0.99854 0.97681 0.31000
C 	C 	0.45280 0.04355 0.91313 0.28900
Ni	Ni	0.44519 0.11450 0.04039 1.11000
Ni	Ni	0.40543 0.07348 0.94724 1.12100
Ni	Ni	0.43952 0.03865 0.01183 1.11600
O 	O 	0.49899 0.12795 0.03864 -0.37900
O 	O 	0.48639 0.06854 0.04877 -0.38000
O 	O 	0.36391 0.02912 0.97421 -0.38900
O 	O 	0.39036 0.09546 0.04583 -0.38200
O 	O 	0.38162 0.10162 0.97104 -0.37200
O 	O 	0.46630 0.04347 0.95388 -0.38400
O 	O 	0.44256 0.08652 0.10006 -0.37400
O 	O 	0.40909 0.03132 0.06757 -0.39200
O 	O 	0.42228 0.04488 0.90830 -0.38100
O 	O 	0.45085 0.15275 0.99075 -0.36800
O 	O 	0.44412 0.12173 0.92281 -0.38100
O 	O 	0.39473 0.99849 0.98159 -0.38400
O 	O 	0.43844 0.08093 0.99496 -0.71400
H 	H 	0.46157 0.09403 0.97843 0.16500
C 	C 	0.44362 0.83970 0.54629 0.29000
C 	C 	0.57850 0.83876 0.51408 0.32800
C 	C 	0.53036 0.89178 0.60350 0.32900
C 	C 	0.49521 0.78996 0.44626 0.30700
C 	C 	0.58994 0.94359 0.47680 0.31000
C 	C 	0.50075 0.89911 0.41308 0.30700
Ni	Ni	0.50738 0.82811 0.54029 1.11400
Ni	Ni	0.54758 0.86870 0.44710 1.12200
Ni	Ni	0.51442 0.90449 0.51162 1.12100
O 	O 	0.45385 0.81550 0.53836 -0.37500
O 	O 	0.46748 0.87520 0.54862 -0.37600
O 	O 	0.58957 0.91278 0.47393 -0.39000
O 	O 	0.56211 0.84661 0.54567 -0.38000
O 	O 	0.57070 0.83994 0.47108 -0.37700
O 	O 	0.48771 0.90006 0.45376 -0.38700
O 	O 	0.51043 0.85648 0.59982 -0.37300
O 	O 	0.54485 0.91143 0.56727 -0.38900
O 	O 	0.53118 0.89771 0.40819 -0.38100
O 	O 	0.50103 0.78934 0.49088 -0.36900
O 	O 	0.50826 0.82069 0.42302 -0.38100
O 	O 	0.55947 0.94412 0.48124 -0.38500
O 	O 	0.51472 0.86180 0.49479 -0.71900
H 	H 	0.49156 0.84899 0.47828 0.16400
C 	C 	0.11155 0.56923 0.88145 0.30900
C 	C 	0.11161 0.70379 0.84306 0.32900
C 	C 	0.05896 0.60462 0.93566 0.32400
C 	C 	0.16083 0.66837 0.77797 0.30700
C 	C 	0.00727 0.60961 0.80824 0.33000
C 	C 	0.05097 0.56337 0.74676 0.30800
Ni	Ni	0.12263 0.64418 0.87223 1.11400
Ni	Ni	0.08202 0.64155 0.77811 1.12200
Ni	Ni	0.04647 0.57398 0.84488 1.12100
O 	O 	0.13555 0.60349 0.87246 -0.37500
O 	O 	0.07598 0.55728 0.88330 -0.37400
O 	O 	0.03793 0.63999 0.80403 -0.38900
O 	O 	0.10388 0.68028 0.87556 -0.37900
O 	O 	0.11066 0.69394 0.80048 -0.37600
O 	O 	0.05114 0.55078 0.78801 -0.38500
O 	O 	0.09427 0.62001 0.93220 -0.36900
O 	O 	0.03941 0.59866 0.89916 -0.38700
O 	O 	0.05306 0.59540 0.74035 -0.37800
O 	O 	0.16137 0.67566 0.82231 -0.36800
O 	O 	0.13014 0.64995 0.75484 -0.38000
O 	O 	0.00678 0.57874 0.81345 -0.38500
O 	O 	0.08905 0.61670 0.82711 -0.71900
H 	H 	0.10197 0.60612 0.81138 0.16600
C 	C 	0.84465 0.37187 0.37763 0.30700
C 	C 	0.84431 0.23657 0.34326 0.32900
C 	C 	0.89651 0.33772 0.43356 0.31000
C 	C 	0.79570 0.27166 0.27517 0.30700
C 	C 	0.94904 0.33025 0.30742 0.32900
C 	C 	0.90490 0.37509 0.24294 0.29000
Ni	Ni	0.83326 0.29680 0.36952 1.11400
Ni	Ni	0.87440 0.29771 0.27669 1.12200
Ni	Ni	0.90968 0.36652 0.34161 1.12100
O 	O 	0.82083 0.33781 0.36744 -0.37700
O 	O 	0.88032 0.38427 0.37838 -0.37700
O 	O 	0.91839 0.29978 0.30383 -0.39000
O 	O 	0.85175 0.26058 0.37504 -0.38000
O 	O 	0.84554 0.24573 0.30032 -0.37700
O 	O 	0.90547 0.38888 0.28370 -0.38500
O 	O 	0.86114 0.32176 0.42944 -0.37300
O 	O 	0.91656 0.34327 0.39753 -0.38800
O 	O 	0.90360 0.34325 0.23812 -0.38000
O 	O 	0.79490 0.26465 0.31961 -0.36900
O 	O 	0.82651 0.28897 0.25201 -0.38100
O 	O 	0.94947 0.36117 0.31155 -0.38700
O 	O 	0.86721 0.32344 0.32443 -0.71900
H 	H 	0.85444 0.33378 0.30780 0.16400
C 	C 	0.91392 0.35660 0.47630 -0.09100
C 	C 	0.89659 0.36983 0.50463 0.01900
C 	C 	0.91560 0.39359 0.54015 -0.06600
C 	C 	0.95205 0.40430 0.54778 0.02700
C 	C 	0.96883 0.38967 0.52110 -0.06600
C 	C 	0.94982 0.36579 0.48565 0.01600
C 	C 	0.97303 0.43210 0.58224 0.00200
C 	C 	0.00012 0.46675 0.56872 -0.03900
C 	C 	0.01816 0.49394 0.60122 -0.03200
C 	C 	0.00931 0.48658 0.64737 -0.00400
C 	C 	0.98287 0.45175 0.66099 -0.03100
C 	C 	0.96476 0.42461 0.62854 -0.03900
C 	C 	0.02580 0.51508 0.68065 0.04600
C 	C 	0.03822 0.53791 0.70991 -0.09600
H 	H 	0.86894 0.36305 0.49790 0.03900
H 	H 	0.90235 0.40456 0.56084 0.04800
H 	H 	0.99681 0.39737 0.52722 0.04800
H 	H 	0.96334 0.35533 0.46459 0.03800
H 	H 	0.00666 0.47279 0.53302 0.04100
H 	H 	0.03857 0.52078 0.59044 0.04100
H 	H 	0.97593 0.44586 0.69663 0.04200
H 	H 	0.94399 0.39792 0.63931 0.04200
C 	C 	0.91534 0.39954 0.20335 -0.07900
C 	C 	0.90685 0.42738 0.20252 0.01300
C 	C 	0.92298 0.45517 0.17042 -0.06400
C 	C 	0.94748 0.45520 0.13861 0.02600
C 	C 	0.95410 0.42616 0.13744 -0.06400
C 	C 	0.93810 0.39843 0.16962 0.01400
C 	C 	0.96749 0.48639 0.10797 0.00200
C 	C 	0.94886 0.49498 0.07550 -0.03900
C 	C 	0.96808 0.52293 0.04437 -0.03400
C 	C 	0.00600 0.54245 0.04548 -0.00200
C 	C 	0.02457 0.53485 0.07903 -0.03400
C 	C 	0.00539 0.50698 0.11026 -0.03900
C 	C 	0.02572 0.56650 0.00862 0.03500
C 	C 	0.04150 0.58503 0.97625 -0.09400
H 	H 	0.88876 0.42818 0.22777 0.03700
H 	H 	0.91727 0.47721 0.17115 0.04700
H 	H 	0.97242 0.42559 0.11237 0.04700
H 	H 	0.94473 0.37703 0.16956 0.03900
H 	H 	0.91961 0.47941 0.07365 0.04000
H 	H 	0.95354 0.52860 0.01846 0.04000
H 	H 	0.05388 0.54979 0.08008 0.04100
H 	H 	0.01998 0.50090 0.13565 0.04100
C 	C 	0.40720 0.82639 0.56532 -0.08000
C 	C 	0.40293 0.84169 0.60552 0.01500
C 	C 	0.37075 0.82359 0.63035 -0.06400
C 	C 	0.34249 0.79021 0.61505 0.02600
C 	C 	0.34567 0.77637 0.57310 -0.06400
C 	C 	0.37788 0.79441 0.54831 0.01400
C 	C 	0.31094 0.76845 0.64456 0.00300
C 	C 	0.28801 0.78168 0.65723 -0.04000
C 	C 	0.25853 0.76129 0.68590 -0.03200
C 	C 	0.25179 0.72758 0.70208 -0.00400
C 	C 	0.27472 0.71437 0.68961 -0.03200
C 	C 	0.30425 0.73475 0.66099 -0.03900
C 	C 	0.22046 0.70597 0.72990 0.04500
C 	C 	0.19364 0.68838 0.75244 -0.09600
H 	H 	0.42528 0.86642 0.61899 0.03900
H 	H 	0.36838 0.83471 0.66245 0.04700
H 	H 	0.32368 0.75100 0.56051 0.04800
H 	H 	0.38062 0.78266 0.51695 0.03500
H 	H 	0.29296 0.80765 0.64477 0.04000
H 	H 	0.24081 0.77160 0.69529 0.04200
H 	H 	0.26963 0.68830 0.70190 0.04100
H 	H 	0.32199 0.72445 0.65173 0.04200
C 	C 	0.62381 0.97746 0.46663 -0.08800
C 	C 	0.65741 0.97976 0.47434 0.01700
C 	C 	0.68929 0.00972 0.45881 -0.06600
C 	C 	0.68791 0.03772 0.43567 0.02700
C 	C 	0.65457 0.03621 0.42968 -0.06600
C 	C 	0.62267 0.00625 0.44507 0.01700
C 	C 	0.72125 0.06843 0.41715 0.00300
C 	C 	0.72469 0.07517 0.37016 -0.04000
C 	C 	0.75393 0.10695 0.35317 -0.03100
C 	C 	0.77996 0.13212 0.38301 -0.00800
C 	C 	0.77782 0.12426 0.42960 -0.03100
C 	C 	0.74854 0.09253 0.44665 -0.04000
C 	C 	0.80458 0.16821 0.36737 0.05200
C 	C 	0.82370 0.19911 0.35547 -0.10900
H 	H 	0.65876 0.95803 0.49156 0.04000
H 	H 	0.71497 0.01086 0.46407 0.04900
H 	H 	0.65333 0.05802 0.41248 0.04800
H 	H 	0.59701 0.00494 0.43892 0.03900
H 	H 	0.70406 0.05640 0.34702 0.04100
H 	H 	0.75546 0.11275 0.31709 0.04100
H 	H 	0.79789 0.14353 0.45288 0.04200
H 	H 	0.74632 0.08738 0.48293 0.04200
C 	C 	0.42584 0.03356 0.14589 -0.09400
C 	C 	0.45701 0.05079 0.17319 0.01800
C 	C 	0.46306 0.03137 0.20696 -0.06800
C 	C 	0.43793 0.99466 0.21400 0.02800
C 	C 	0.40566 0.97809 0.18890 -0.06700
C 	C 	0.39957 0.99748 0.15510 0.01600
C 	C 	0.44633 0.97314 0.24578 0.00100
C 	C 	0.47639 0.96878 0.23792 -0.03900
C 	C 	0.48556 0.95008 0.26930 -0.03300
C 	C 	0.46470 0.93550 0.30864 -0.00500
C 	C 	0.43399 0.93879 0.31579 -0.03300
C 	C 	0.42481 0.95754 0.28447 -0.03900
C 	C 	0.47706 0.92095 0.34400 0.04500
C 	C 	0.48776 0.91010 0.37478 -0.09800
H 	H 	0.47739 0.07868 0.16681 0.03700
H 	H 	0.48776 0.04457 0.22676 0.04700
H 	H 	0.38585 0.94989 0.19456 0.04700
H 	H 	0.37508 0.98406 0.13492 0.03500
H 	H 	0.49291 0.98034 0.20785 0.03900
H 	H 	0.50936 0.94769 0.26357 0.04000
H 	H 	0.41778 0.92767 0.34620 0.04200
H 	H 	0.40146 0.96059 0.29072 0.04100
C 	C 	0.46659 0.03272 0.87364 -0.07900
C 	C 	0.50287 0.04099 0.87266 0.01300
C 	C 	0.51440 0.02504 0.84012 -0.06300
C 	C 	0.48987 0.00092 0.80804 0.02500
C 	C 	0.45420 0.99433 0.80727 -0.06300
C 	C 	0.44259 0.01013 0.83989 0.01300
C 	C 	0.50103 0.98135 0.77655 0.00400
C 	C 	0.48355 0.94342 0.77773 -0.04100
C 	C 	0.49240 0.92473 0.74591 -0.03100
C 	C 	0.51889 0.94381 0.71289 -0.00900
C 	C 	0.53729 0.98174 0.71271 -0.03000
C 	C 	0.52840 0.00047 0.74443 -0.04100
C 	C 	0.52399 0.92462 0.67598 0.05100
C 	C 	0.52743 0.90914 0.64374 -0.11300
H 	H 	0.52184 0.05888 0.89797 0.03700
H 	H 	0.54212 0.03066 0.84062 0.04800
H 	H 	0.43523 0.97625 0.78209 0.04600
H 	H 	0.41457 0.00357 0.84004 0.03800
H 	H 	0.46271 0.92843 0.80279 0.04100
H 	H 	0.47800 0.89541 0.74621 0.04100
H 	H 	0.55773 0.99668 0.68719 0.04000
H 	H 	0.54216 0.02975 0.74337 0.04100
C 	C 	0.54640 0.11803 0.06537 -0.08200
C 	C 	0.55145 0.10183 0.10418 0.01300
C 	C 	0.58381 0.11972 0.12871 -0.06500
C 	C 	0.61152 0.15379 0.11445 0.02600
C 	C 	0.60751 0.16874 0.07387 -0.06500
C 	C 	0.57512 0.15092 0.04941 0.01300
C 	C 	0.64357 0.17484 0.14352 0.00200
C 	C 	0.65036 0.20794 0.16225 -0.03900
C 	C 	0.68049 0.22772 0.19023 -0.03300
C 	C 	0.70394 0.21451 0.19976 -0.00500
C 	C 	0.69712 0.18141 0.18127 -0.03300
C 	C 	0.66704 0.16162 0.15324 -0.04000
C 	C 	0.73567 0.23540 0.22731 0.04400
C 	C 	0.76273 0.25237 0.24969 -0.09700
H 	H 	0.52965 0.07634 0.11674 0.03500
H 	H 	0.58681 0.10776 0.15973 0.04600
H 	H 	0.62906 0.19468 0.06206 0.04600
H 	H 	0.57181 0.16339 0.01908 0.03300
H 	H 	0.63225 0.21825 0.15524 0.04000
H 	H 	0.68562 0.25331 0.20434 0.04000
H 	H 	0.71521 0.17108 0.18840 0.04100
H 	H 	0.66204 0.13612 0.13897 0.04000
C 	C 	0.33059 0.96450 0.96587 -0.08800
C 	C 	0.33246 0.93629 0.94376 0.01700
C 	C 	0.30094 0.90613 0.92789 -0.06600
C 	C 	0.26724 0.90386 0.93388 0.02700
C 	C 	0.26515 0.93134 0.95739 -0.06500
C 	C 	0.29665 0.96147 0.97345 0.01700
C 	C 	0.23421 0.87275 0.91527 0.00300
C 	C 	0.20672 0.84882 0.94466 -0.03900
C 	C 	0.17764 0.81691 0.92765 -0.03100
C 	C 	0.17593 0.80867 0.88122 -0.00700
C 	C 	0.20222 0.83361 0.85144 -0.03100
C 	C 	0.23124 0.86560 0.86837 -0.04000
C 	C 	0.15140 0.77246 0.86587 0.05200
C 	C 	0.13228 0.74143 0.85444 -0.10800
H 	H 	0.35839 0.93822 0.93759 0.03800
H 	H 	0.30273 0.88474 0.91040 0.04800
H 	H 	0.23921 0.92964 0.96260 0.04900
H 	H 	0.29475 0.98277 0.99102 0.04000
H 	H 	0.20858 0.85426 0.98085 0.04200
H 	H 	0.15738 0.79780 0.95089 0.04300
H 	H 	0.20104 0.82750 0.81549 0.04100
H 	H 	0.25201 0.88423 0.84529 0.04100
C 	C 	0.20663 0.35477 0.18766 -0.09100
C 	C 	0.19390 0.33625 0.22908 0.01700
C 	C 	0.15928 0.32668 0.24462 -0.06600
C 	C 	0.13703 0.33532 0.21874 0.02700
C 	C 	0.14856 0.35107 0.17564 -0.06600
C 	C 	0.18317 0.36067 0.16009 0.01700
C 	C 	0.10352 0.33141 0.23857 0.00300
C 	C 	0.07001 0.30866 0.21792 -0.04000
C 	C 	0.03871 0.30759 0.23422 -0.03100
C 	C 	0.04073 0.32925 0.27122 -0.00800
C 	C 	0.07401 0.35129 0.29261 -0.03100
C 	C 	0.10533 0.35237 0.27637 -0.04000
C 	C 	0.00896 0.33016 0.28564 0.05000
C 	C 	0.98193 0.33058 0.29646 -0.10700
H 	H 	0.21144 0.33083 0.25023 0.03800
H 	H 	0.15030 0.31383 0.27754 0.04800
H 	H 	0.13139 0.35746 0.15517 0.04700
H 	H 	0.19250 0.37470 0.12790 0.03800
H 	H 	0.06833 0.29230 0.18883 0.04000
H 	H 	0.01302 0.29040 0.21761 0.04000
H 	H 	0.07575 0.36806 0.32127 0.04000
H 	H 	0.13110 0.37011 0.29245 0.04100
C 	C 	0.26106 0.46595 0.08124 -0.08200
C 	C 	0.24754 0.44877 0.03919 0.01700
C 	C 	0.22594 0.45764 0.01264 -0.07200
C 	C 	0.21766 0.48383 0.02772 0.01400
C 	C 	0.23105 0.50098 0.06979 -0.06000
C 	C 	0.25258 0.49200 0.09651 0.01200
C 	C 	0.19565 0.49385 0.99895 0.03000
C 	C 	0.20769 0.50811 0.95526 -0.05200
C 	C 	0.18748 0.51870 0.92856 -0.02000
C 	C 	0.15514 0.51521 0.94533 -0.01800
C 	C 	0.14253 0.50001 0.98842 -0.00000
C 	C 	0.16268 0.48930 0.01513 -0.07300
C 	C 	0.13784 0.53189 0.92130 0.05300
C 	C 	0.12483 0.54771 0.90224 -0.09800
H 	H 	0.25330 0.42814 0.02738 0.03000
H 	H 	0.21554 0.44407 0.98040 0.05400
H 	H 	0.22499 0.52141 0.08161 0.04500
H 	H 	0.26281 0.50543 0.12886 0.03300
H 	H 	0.23304 0.51162 0.94237 0.04600
H 	H 	0.19752 0.53062 0.89541 0.03900
H 	H 	0.11764 0.49738 0.00172 0.02800
H 	H 	0.15290 0.47788 0.04855 0.04700
C 	C 	0.40578 0.54190 0.23645 -0.08000
C 	C 	0.40452 0.57192 0.21916 0.01300
C 	C 	0.41898 0.60399 0.24426 -0.06400
C 	C 	0.43500 0.60640 0.28676 0.02600
C 	C 	0.43861 0.57734 0.30253 -0.06400
C 	C 	0.42414 0.54524 0.27745 0.01400
C 	C 	0.44555 0.63821 0.31609 0.00200
C 	C 	0.42786 0.63428 0.35779 -0.03900
C 	C 	0.43688 0.66461 0.38482 -0.03300
C 	C 	0.46356 0.69902 0.37033 -0.00500
C 	C 	0.48133 0.70297 0.32880 -0.03200
C 	C 	0.47236 0.67268 0.30176 -0.04000
C 	C 	0.47326 0.73027 0.39831 0.04500
C 	C 	0.48247 0.75709 0.42086 -0.09700
H 	H 	0.39090 0.56985 0.18726 0.03400
H 	H 	0.41649 0.62646 0.23151 0.04700
H 	H 	0.45150 0.57918 0.33495 0.04700
H 	H 	0.42542 0.52235 0.29117 0.03900
H 	H 	0.40694 0.60782 0.36901 0.04100
H 	H 	0.42310 0.66134 0.41693 0.04000
H 	H 	0.50209 0.72949 0.31747 0.04100
H 	H 	0.48618 0.67599 0.26967 0.04000
C 	C 	0.35441 0.12218 0.02670 -0.10700
C 	C 	0.33893 0.11725 0.07018 0.02300
C 	C 	0.32982 0.14220 0.08733 -0.07500
C 	C 	0.33568 0.17203 0.06095 0.03900
C 	C 	0.34787 0.17506 0.01598 -0.09500
C 	C 	0.35709 0.15019 0.99884 0.04600
C 	C 	0.33298 0.20200 0.08181 -0.00300
C 	C 	0.30818 0.21156 0.06486 -0.03800
C 	C 	0.30849 0.24248 0.08113 -0.03300
C 	C 	0.33359 0.26404 0.11441 -0.00700
C 	C 	0.35762 0.25393 0.13241 -0.03300
C 	C 	0.35731 0.22298 0.11621 -0.03700
C 	C 	0.33604 0.29760 0.12795 0.05100
C 	C 	0.33758 0.32573 0.13788 -0.10700
H 	H 	0.33572 0.09516 0.09156 0.03400
H 	H 	0.31961 0.13918 0.12174 0.05000
H 	H 	0.35197 0.19773 0.99511 0.06100
H 	H 	0.36844 0.15408 0.96497 0.03400
H 	H 	0.28922 0.19547 0.03843 0.03900
H 	H 	0.28972 0.25008 0.06719 0.04000
H 	H 	0.37703 0.27041 0.15823 0.04100
H 	H 	0.37663 0.21586 0.12944 0.03900
C 	C 	0.70207 0.47964 0.58534 -0.08100
C 	C 	0.73841 0.49164 0.59609 0.01400
C 	C 	0.75875 0.48145 0.56905 -0.06500
C 	C 	0.74289 0.45886 0.53127 0.02600
C 	C 	0.70642 0.44642 0.52087 -0.06400
C 	C 	0.68614 0.45689 0.54768 0.01400
C 	C 	0.76424 0.44750 0.50331 0.00300
C 	C 	0.76827 0.45458 0.45636 -0.04000
C 	C 	0.78745 0.44265 0.42975 -0.03200
C 	C 	0.80294 0.42385 0.44997 -0.00600
C 	C 	0.79973 0.41761 0.49698 -0.03200
C 	C 	0.78036 0.42926 0.52354 -0.04000
C 	C 	0.81890 0.40774 0.42219 0.04500
C 	C 	0.83133 0.39248 0.40065 -0.10000
H 	H 	0.75116 0.50955 0.62474 0.03500
H 	H 	0.78691 0.49130 0.57729 0.04700
H 	H 	0.69379 0.42861 0.49210 0.04700
H 	H 	0.65811 0.44741 0.53912 0.03500
H 	H 	0.75628 0.46900 0.44048 0.04000
H 	H 	0.78973 0.44748 0.39339 0.04000
H 	H 	0.81152 0.40297 0.51280 0.04000
H 	H 	0.77740 0.42362 0.55971 0.04100
C 	C 	0.75389 0.59514 0.68853 -0.09200
C 	C 	0.76549 0.61054 0.73187 0.01500
C 	C 	0.79948 0.61845 0.74809 -0.06600
C 	C 	0.82229 0.61144 0.72092 0.02700
C 	C 	0.81212 0.59926 0.67613 -0.06700
C 	C 	0.77816 0.59133 0.65988 0.01700
C 	C 	0.85494 0.61333 0.74068 0.00200
C 	C 	0.88921 0.63751 0.72290 -0.03900
C 	C 	0.91979 0.63696 0.73884 -0.03100
C 	C 	0.91631 0.61222 0.77260 -0.00700
C 	C 	0.88224 0.58861 0.79116 -0.03100
C 	C 	0.85163 0.58916 0.77529 -0.03900
C 	C 	0.94755 0.61023 0.78683 0.05200
C 	C 	0.97435 0.60931 0.79746 -0.10500
H 	H 	0.74747 0.61461 0.75387 0.03700
H 	H 	0.80748 0.62868 0.78237 0.04900
H 	H 	0.82980 0.59427 0.65465 0.04700
H 	H 	0.76992 0.58011 0.62605 0.03800
H 	H 	0.89205 0.65631 0.69628 0.04100
H 	H 	0.94609 0.65538 0.72446 0.04100
H 	H 	0.87937 0.56948 0.81734 0.04200
H 	H 	0.82527 0.57029 0.78911 0.04000
C 	C 	0.59468 0.52322 0.81268 -0.09400
C 	C 	0.58262 0.49273 0.84088 0.02000
C 	C 	0.55871 0.48699 0.87661 -0.06700
C 	C 	0.54671 0.51168 0.88458 0.02800
C 	C 	0.56017 0.54307 0.85799 -0.06700
C 	C 	0.58415 0.54889 0.82230 0.01600
C 	C 	0.51879 0.50378 0.91931 0.00300
C 	C 	0.48393 0.49581 0.90616 -0.03800
C 	C 	0.45677 0.48601 0.93888 -0.03400
C 	C 	0.46435 0.48422 0.98487 0.00300
C 	C 	0.49934 0.49288 0.99811 -0.02400
C 	C 	0.52646 0.50260 0.96546 -0.04100
C 	C 	0.43600 0.47195 0.01837 0.03400
C 	C 	0.41325 0.46140 0.04774 -0.09400
H 	H 	0.59044 0.47266 0.83391 0.03700
H 	H 	0.54864 0.46279 0.89720 0.04900
H 	H 	0.55147 0.56255 0.86437 0.04900
H 	H 	0.59368 0.57280 0.80129 0.03700
H 	H 	0.47774 0.49660 0.87058 0.04100
H 	H 	0.42980 0.47937 0.92839 0.04300
H 	H 	0.50539 0.49160 0.03364 0.03500
H 	H 	0.55331 0.50882 0.97594 0.04300
C 	C 	0.54929 0.48104 0.54095 -0.08000
C 	C 	0.52044 0.44515 0.54112 0.01300
C 	C 	0.49236 0.43396 0.50949 -0.06400
C 	C 	0.49302 0.45842 0.47708 0.02500
C 	C 	0.52285 0.49363 0.47515 -0.06500
C 	C 	0.55083 0.50492 0.50691 0.01300
C 	C 	0.46200 0.44757 0.44612 0.00300
C 	C 	0.45200 0.41892 0.41544 -0.04000
C 	C 	0.42420 0.41028 0.38408 -0.03100
C 	C 	0.40626 0.43024 0.38309 -0.00900
C 	C 	0.41537 0.45806 0.41472 -0.03100
C 	C 	0.44305 0.46662 0.44625 -0.04100
C 	C 	0.38208 0.42533 0.34609 0.05000
C 	C 	0.36339 0.42189 0.31358 -0.11300
H 	H 	0.51922 0.42623 0.56659 0.03600
H 	H 	0.46967 0.40658 0.51089 0.04700
H 	H 	0.52395 0.51249 0.44967 0.04600
H 	H 	0.57293 0.53262 0.50612 0.03700
H 	H 	0.46634 0.40395 0.41516 0.04000
H 	H 	0.41739 0.38881 0.35963 0.04000
H 	H 	0.40170 0.47368 0.41410 0.04000
H 	H 	0.45022 0.48846 0.47021 0.04000
C 	C 	0.56572 0.40797 0.74710 -0.08400
C 	C 	0.58511 0.40339 0.78255 0.01700
C 	C 	0.56963 0.37128 0.80743 -0.06600
C 	C 	0.53462 0.34335 0.79715 0.02700
C 	C 	0.51466 0.34832 0.76276 -0.06500
C 	C 	0.53016 0.38063 0.73787 0.01500
C 	C 	0.51958 0.30851 0.82124 0.00200
C 	C 	0.49105 0.29810 0.85222 -0.03900
C 	C 	0.47911 0.26672 0.87824 -0.03200
C 	C 	0.49563 0.24560 0.87343 -0.00500
C 	C 	0.52371 0.25563 0.84196 -0.03200
C 	C 	0.53564 0.28696 0.81592 -0.03900
C 	C 	0.48311 0.21310 0.89988 0.04500
C 	C 	0.47204 0.18559 0.92154 -0.09800
H 	H 	0.61232 0.42468 0.79056 0.02900
H 	H 	0.58502 0.36788 0.83435 0.04800
H 	H 	0.48748 0.32695 0.75480 0.04800
H 	H 	0.51488 0.38402 0.71080 0.03200
H 	H 	0.47858 0.31463 0.85669 0.04100
H 	H 	0.45718 0.25895 0.90226 0.04100
H 	H 	0.53638 0.23925 0.83778 0.04100
H 	H 	0.55767 0.29478 0.79205 0.04100
C 	C 	0.61677 0.61682 0.63500 -0.09000
C 	C 	0.64677 0.65073 0.64544 0.01700
C 	C 	0.64793 0.68246 0.63085 -0.06600
C 	C 	0.61904 0.68060 0.60593 0.02700
C 	C 	0.58832 0.64684 0.59733 -0.06600
C 	C 	0.58717 0.61509 0.61178 0.01700
C 	C 	0.62115 0.71388 0.58808 0.00300
C 	C 	0.61941 0.71841 0.54103 -0.04000
C 	C 	0.61719 0.74792 0.52437 -0.03100
C 	C 	0.61684 0.77312 0.55459 -0.00800
C 	C 	0.62082 0.76981 0.60140 -0.03100
C 	C 	0.62292 0.74026 0.61812 -0.04000
C 	C 	0.60603 0.79818 0.53872 0.05200
C 	C 	0.59478 0.81769 0.52660 -0.11000
H 	H 	0.66956 0.65246 0.66391 0.03900
H 	H 	0.67158 0.70842 0.63810 0.04800
H 	H 	0.56562 0.64519 0.57876 0.04800
H 	H 	0.56386 0.58916 0.60346 0.03700
H 	H 	0.61868 0.69852 0.51751 0.04100
H 	H 	0.61422 0.75033 0.48813 0.04100
H 	H 	0.62062 0.78922 0.62499 0.04100
H 	H 	0.62463 0.73720 0.65447 0.04100
