data_crystal

_cell_length_a 26.11489
_cell_length_b 26.26774
_cell_length_c 53.24275
_cell_angle_alpha 89.96925
_cell_angle_beta  90.03133
_cell_angle_gamma 120.01117

_symmetry_space_group_name_	'P 1'
_symmetry_space_group_name_H-M	'P 1'

loop_
_symmetry_equiv_pos_as_xyz
  x,y,z

loop_
_atom_site_label
_atom_site_type_symbol
_atom_site_fract_x
_atom_site_fract_y
_atom_site_fract_z
_atom_site_charge
C 	C 	0.98858 0.41967 0.63123 -0.05300
H 	H 	0.00727 0.53073 0.18337 0.03600
C 	C 	0.03732 0.46712 0.03753 -0.08000
C 	C 	0.99923 0.52744 0.48771 -0.05000
C 	C 	0.03802 0.47702 0.01162 -0.00100
H 	H 	0.00784 0.50964 0.47100 0.03900
C 	C 	0.02205 0.46297 0.86992 -0.04200
C 	C 	0.04332 0.57318 0.13656 0.28500
C 	C 	0.03507 0.45201 0.84566 0.00500
C 	C 	0.03631 0.44936 0.69856 0.00500
O 	O 	0.05228 0.57087 0.11225 -0.38600
C 	C 	0.03809 0.43755 0.67270 0.00400
H 	H 	0.03011 0.43694 0.62137 0.04000
C 	C 	0.06043 0.43955 0.79558 0.00300
C 	C 	0.03388 0.59021 0.52480 0.00600
H 	H 	0.07672 0.51302 0.00292 0.01800
O 	O 	0.07961 0.51508 0.07723 -0.37800
H 	H 	0.06978 0.43561 0.77609 0.03200
H 	H 	0.05727 0.49293 0.88230 0.03600
C 	C 	0.08774 0.50877 0.05316 0.27700
C 	C 	0.04548 0.57543 0.50066 0.00300
C 	C 	0.97597 0.56124 0.53436 -0.01500
O 	O 	0.08659 0.60837 0.15194 -0.39300
H 	H 	0.08761 0.48626 0.73234 0.04600
C 	C 	0.08858 0.47518 0.71278 -0.01600
C 	C 	0.09379 0.48122 0.83707 -0.01800
H 	H 	0.08192 0.57995 0.45183 0.04000
C 	C 	0.09083 0.44330 0.66269 -0.05600
C 	C 	0.10661 0.47491 0.81207 -0.07300
H 	H 	0.07184 0.64338 0.55800 0.03600
H 	H 	0.09148 0.42575 0.64442 0.04000
Cu	Cu	0.12621 0.58760 0.09687 0.89700
C 	C 	0.08049 0.63223 0.53949 -0.04100
O 	O 	0.14072 0.53783 0.04307 -0.41800
C 	C 	0.10411 0.60680 0.49088 0.00600
H 	H 	0.12920 0.51018 0.84963 0.04200
C 	C 	0.11683 0.60151 0.46553 -0.05400
C 	C 	0.14203 0.48632 0.70185 -0.08100
H 	H 	0.15477 0.69134 0.10694 0.16200
C 	C 	0.14256 0.46868 0.67704 0.00300
O 	O 	0.17028 0.66483 0.11111 -0.64000
Cu	Cu	0.17380 0.65131 0.14576 0.89200
H 	H 	0.96689 0.57364 0.55254 0.04100
Cu	Cu	0.18682 0.62103 0.04576 0.86800
C 	C 	0.16804 0.50736 0.80274 0.28300
O 	O 	0.20409 0.61148 0.08046 -0.64000
O 	O 	0.19760 0.58444 0.13770 -0.39200
O 	O 	0.17766 0.53015 0.77998 -0.36300
C 	C 	0.15094 0.64604 0.50674 0.00600
C 	C 	0.13860 0.65867 0.53082 -0.04100
H 	H 	0.21674 0.58190 0.08246 0.17000
O 	O 	0.20866 0.70174 0.04580 -0.43900
C 	C 	0.19731 0.51602 0.71643 0.28600
C 	C 	0.17542 0.62737 0.45738 0.00500
H 	H 	0.18460 0.62131 0.43811 0.02500
H 	H 	0.18314 0.47460 0.66883 0.02100
O 	O 	0.20531 0.55619 0.73304 -0.37700
O 	O 	0.21203 0.52392 0.81887 -0.38600
H 	H 	0.17416 0.68958 0.54282 0.03600
C 	C 	0.25290 0.59987 0.13289 0.27700
O 	O 	0.23833 0.50182 0.71305 -0.44000
H 	H 	0.22916 0.53828 0.17617 0.03500
Cu	Cu	0.25486 0.68681 0.09766 0.92700
H 	H 	0.25013 0.75355 0.00040 0.02400
C 	C 	0.27678 0.56224 0.14108 -0.07500
O 	O 	0.24876 0.72634 0.15266 -0.38500
C 	C 	0.26101 0.53421 0.16453 -0.01700
H 	H 	0.27415 0.80202 0.95952 0.03400
H 	H 	0.24628 0.46210 0.77413 0.16300
C 	C 	0.20968 0.67262 0.49822 -0.01600
C 	C 	0.22200 0.66166 0.47384 -0.07600
H 	H 	0.33303 0.58157 0.10859 0.02900
C 	C 	0.98637 0.41870 0.65778 0.00400
Cu	Cu	0.25289 0.56668 0.76368 0.92700
C 	C 	0.31960 0.55887 0.12646 0.00300
O 	O 	0.28752 0.64960 0.12120 -0.36300
C 	C 	0.26354 0.74261 0.05001 0.28700
H 	H 	0.24696 0.48670 0.21006 0.03500
C 	C 	0.28871 0.50371 0.17359 0.00600
C 	C 	0.27898 0.79540 0.00940 -0.01700
C 	C 	0.27601 0.77026 0.13662 0.28200
C 	C 	0.34690 0.52810 0.13511 -0.05400
C 	C 	0.30183 0.84389 0.96869 -0.04000
C 	C 	0.27797 0.48180 0.19822 -0.04100
O 	O 	0.27335 0.50411 0.77804 -0.64000
C 	C 	0.32990 0.49783 0.15829 0.00500
H 	H 	0.40221 0.91251 0.29672 0.03400
O 	O 	0.29147 0.76129 0.11420 -0.36300
H 	H 	0.38773 0.45257 0.13144 0.04000
O 	O 	0.29439 0.73483 0.06747 -0.37700
H 	H 	0.38352 0.53113 0.12447 0.04100
H 	H 	0.33218 0.89030 0.93375 0.03900
H 	H 	0.29447 0.80814 0.18512 0.04100
Cu	Cu	0.28675 0.52246 0.81256 0.89200
C 	C 	0.29043 0.79725 0.03522 -0.08200
C 	C 	0.38798 0.44775 0.15159 -0.05300
C 	C 	0.30206 0.83137 0.14579 -0.07200
H 	H 	0.43361 0.00169 0.27174 0.03700
O 	O 	0.29101 0.63757 0.78663 -0.36300
C 	C 	0.35611 0.46514 0.16745 0.00500
C 	C 	0.30966 0.84375 0.17164 -0.01900
C 	C 	0.30706 0.84701 0.99496 0.00400
H 	H 	0.32122 0.87868 0.21940 0.03600
H 	H 	0.30956 0.86820 0.10876 0.03400
C 	C 	0.33451 0.89407 0.95405 -0.04300
C 	C 	0.31905 0.87752 0.12857 0.00200
H 	H 	0.24573 0.70070 0.51070 0.03400
H 	H 	0.44288 0.40860 0.14924 0.03100
C 	C 	0.34007 0.91430 0.20588 -0.04200
C 	C 	0.33700 0.90221 0.18010 0.00700
C 	C 	0.41730 0.42015 0.16159 0.00200
C 	C 	0.36601 0.97222 0.21436 -0.04200
H 	H 	0.36618 0.98061 0.23429 0.03600
C 	C 	0.28350 0.68354 0.46592 0.27800
Cu	Cu	0.31957 0.56067 0.71275 0.86800
O 	O 	0.32877 0.58989 0.74696 -0.64100
C 	C 	0.34041 0.65220 0.79875 0.27700
O 	O 	0.32925 0.47831 0.81969 -0.39300
C 	C 	0.32954 0.85091 0.04668 0.00500
C 	C 	0.34783 0.44717 0.19294 0.00700
C 	C 	0.30869 0.45555 0.20805 -0.04200
C 	C 	0.39327 0.01917 0.19736 0.00800
C 	C 	0.36010 0.94895 0.16251 0.00500
C 	C 	0.34705 0.93576 0.13679 -0.05300
C 	C 	0.42529 0.00239 0.29164 -0.04200
C 	C 	0.40747 0.95175 0.30583 -0.04200
H 	H 	0.37956 0.86293 0.33709 0.02300
H 	H 	0.42067 0.08602 0.22598 0.04000
O 	O 	0.29732 0.64831 0.45393 -0.36300
H 	H 	0.30290 0.72085 0.41574 0.17000
Cu	Cu	0.35116 0.53607 0.76414 0.89700
O 	O 	0.35500 0.61207 0.80379 -0.39400
H 	H 	0.35904 0.63196 0.74863 0.17100
H 	H 	0.35722 0.75141 0.77591 0.03600
C 	C 	0.36972 0.94890 0.96548 0.00900
C 	C 	0.34351 0.90187 0.00681 0.00600
H 	H 	0.34006 0.85234 0.06643 0.03800
C 	C 	0.41300 0.40660 0.18726 -0.07300
C 	C 	0.37754 0.41943 0.20284 -0.01800
C 	C 	0.39299 0.00788 0.17132 0.00400
C 	C 	0.42271 0.07731 0.20621 -0.02000
C 	C 	0.39651 0.95141 0.33160 0.00500
C 	C 	0.38078 0.90080 0.34586 -0.02000
H 	H 	0.46525 0.10543 0.26897 0.04500
C 	C 	0.94179 0.49923 0.49736 0.00200
H 	H 	0.94031 0.40473 0.59684 0.04200
C 	C 	0.38052 0.76001 0.79367 -0.01800
C 	C 	0.35631 0.90279 0.03266 -0.05500
H 	H 	0.30127 0.44079 0.22741 0.03600
O 	O 	0.36637 0.47889 0.78016 -0.38600
C 	C 	0.36397 0.46887 0.80458 0.28700
C 	C 	0.37845 0.71333 0.80733 -0.07500
H 	H 	0.39756 0.85669 0.76992 0.03600
H 	H 	0.40638 0.99470 0.93057 0.04800
C 	C 	0.43498 0.05447 0.30312 0.00700
C 	C 	0.92984 0.51609 0.52058 -0.07300
C 	C 	0.44415 0.37722 0.19758 0.28600
H 	H 	0.43967 0.26159 0.22853 0.16300
H 	H 	0.37341 0.38103 0.78267 0.04000
C 	C 	0.45765 0.10634 0.28896 -0.01600
O 	O 	0.32454 0.73785 0.47107 -0.39200
C 	C 	0.37061 0.95381 0.99196 0.00200
O 	O 	0.33579 0.79676 0.37684 -0.41800
H 	H 	0.35554 0.96988 0.12331 0.03900
C 	C 	0.40440 0.99900 0.95075 -0.02200
H 	H 	0.37211 0.40683 0.22249 0.04200
C 	C 	0.45528 0.12418 0.18964 -0.07200
C 	C 	0.36063 0.84941 0.38698 0.27800
O 	O 	0.34499 0.73225 0.41371 -0.64000
Cu	Cu	0.49876 0.30154 0.18962 0.89300
C 	C 	0.48711 0.18513 0.19919 0.28300
O 	O 	0.48169 0.28866 0.22428 -0.64000
O 	O 	0.48267 0.25351 0.28951 -0.43900
O 	O 	0.50328 0.22903 0.18322 -0.38600
O 	O 	0.45631 0.38188 0.22187 -0.38600
O 	O 	0.45061 0.33987 0.18306 -0.39400
O 	O 	0.50970 0.19475 0.22201 -0.36300
C 	C 	0.49901 0.21433 0.28583 0.28600
O 	O 	0.42502 0.56177 0.74532 -0.37800
O 	O 	0.40336 0.59823 0.71021 -0.41900
C 	C 	0.41152 0.72499 0.82949 0.00200
C 	C 	0.44372 0.78234 0.83878 -0.05400
C 	C 	0.44131 0.82879 0.82647 0.00500
C 	C 	0.41292 0.81782 0.80279 0.00700
C 	C 	0.41813 0.86474 0.78829 -0.04100
C 	C 	0.45073 0.92232 0.79709 -0.04200
H 	H 	0.41217 0.68955 0.83964 0.03000
H 	H 	0.45530 0.95808 0.78535 0.03600
C 	C 	0.42370 0.36446 0.81046 0.00700
C 	C 	0.39389 0.43831 0.81470 -0.07300
C 	C 	0.39485 0.39335 0.80088 -0.01600
H 	H 	0.40842 0.31150 0.77722 0.03700
H 	H 	0.38942 0.94265 0.04167 0.04000
C 	C 	0.45849 0.11267 0.16413 0.00200
C 	C 	0.42858 0.05507 0.15507 -0.05300
H 	H 	0.43600 0.04730 0.13584 0.04000
C 	C 	0.47198 0.15964 0.30056 -0.08100
C 	C 	0.42457 0.05543 0.32925 0.00500
C 	C 	0.40157 0.00218 0.34331 0.00500
C 	C 	0.36890 0.89965 0.37159 -0.08000
Cu	Cu	0.37196 0.74965 0.37910 0.86900
C 	C 	0.42816 0.32255 0.79576 -0.04100
Cu	Cu	0.36773 0.67969 0.43060 0.92700
O 	O 	0.37667 0.85746 0.41090 -0.37700
H 	H 	0.44713 0.64728 0.29174 0.03400
H 	H 	0.47639 0.58822 0.26614 0.03900
C 	C 	0.93742 0.40298 0.61715 0.00200
C 	C 	0.43340 0.57655 0.72127 0.27600
C 	C 	0.39721 0.01031 0.00282 -0.05400
O 	O 	0.37586 0.64076 0.40016 -0.37800
Cu	Cu	0.51399 0.36655 0.23779 0.89600
C 	C 	0.47554 0.93375 0.82124 0.00800
C 	C 	0.43797 0.05428 0.96222 -0.07500
H 	H 	0.39003 0.01621 0.02234 0.03800
H 	H 	0.48555 0.14825 0.15137 0.03600
C 	C 	0.46880 0.88672 0.83663 0.00500
H 	H 	0.46410 0.26517 0.79249 0.03600
C 	C 	0.42273 0.45514 0.83795 0.00300
C 	C 	0.45959 0.29605 0.80448 -0.04100
H 	H 	0.42413 0.49139 0.84825 0.03000
C 	C 	0.46521 0.62286 0.30090 -0.04000
C 	C 	0.48214 0.58959 0.28634 -0.04400
H 	H 	0.42919 0.67671 0.33273 0.02300
H 	H 	0.51142 0.51781 0.26326 0.04800
O 	O 	0.53874 0.22343 0.26869 -0.37700
H 	H 	0.47434 0.86262 0.87527 0.04000
Cu	Cu	0.54604 0.26980 0.23815 0.92800
O 	O 	0.54071 0.44030 0.25631 -0.37800
H 	H 	0.47234 0.79059 0.85477 0.04000
H 	H 	0.49696 0.55194 0.37472 0.04000
H 	H 	0.90677 0.46286 0.48708 0.03000
C 	C 	0.46195 0.60932 0.37961 0.00700
C 	C 	0.48620 0.58194 0.36538 -0.05600
H 	H 	0.45784 0.60282 0.39977 0.03600
H 	H 	0.59052 0.48684 0.32826 0.03100
H 	H 	0.56757 0.55092 0.35333 0.03900
C 	C 	0.55074 0.54011 0.33436 -0.05300
C 	C 	0.56601 0.50560 0.31974 -0.00300
C 	C 	0.98229 0.43445 0.71000 -0.04000
H 	H 	0.46547 0.60683 0.67240 0.02900
Cu	Cu	0.53931 0.33520 0.28928 0.86700
C 	C 	0.45190 0.42703 0.84760 -0.05300
C 	C 	0.43141 0.05998 0.98810 -0.00300
Cu	Cu	0.65946 0.38445 0.57137 0.92700
Cu	Cu	0.73178 0.39080 0.62261 0.86800
Cu	Cu	0.78939 0.41772 0.57115 0.89700
Cu	Cu	0.73796 0.43014 0.52253 0.89200
C 	C 	0.63340 0.44325 0.53234 0.28200
O 	O 	0.62761 0.31376 0.54838 -0.36200
C 	C 	0.83220 0.37953 0.61434 0.27600
O 	O 	0.74247 0.44813 0.55710 -0.64000
O 	O 	0.71301 0.36258 0.58820 -0.64000
O 	O 	0.62103 0.39331 0.60189 -0.37700
O 	O 	0.70787 0.44822 0.62250 -0.43900
O 	O 	0.66117 0.42737 0.51617 -0.38500
O 	O 	0.86159 0.47592 0.55514 -0.38600
C 	C 	0.86918 0.48537 0.53070 0.28700
C 	C 	0.66294 0.30001 0.53629 0.27700
O 	O 	0.71752 0.34083 0.53107 -0.39200
O 	O 	0.82490 0.47566 0.51555 -0.39200
O 	O 	0.61987 0.41984 0.55499 -0.36200
C 	C 	0.65236 0.43293 0.61888 0.28700
O 	O 	0.83879 0.39415 0.59028 -0.37800
O 	O 	0.77979 0.35542 0.62502 -0.41800
H 	H 	0.75678 0.48996 0.56103 0.16300
H 	H 	0.70180 0.32076 0.58638 0.17000
Cu	Cu	0.40051 0.80875 0.43039 0.89700
Cu	Cu	0.41472 0.75854 0.47915 0.89200
C 	C 	0.42793 0.65440 0.46941 0.28200
O 	O 	0.43181 0.76264 0.44448 -0.63900
O 	O 	0.43012 0.72642 0.37897 -0.43900
O 	O 	0.41246 0.68241 0.48560 -0.38400
O 	O 	0.45880 0.88089 0.44630 -0.38500
C 	C 	0.46824 0.88858 0.47075 0.28600
O 	O 	0.46060 0.84511 0.48578 -0.39200
O 	O 	0.40397 0.64091 0.44683 -0.36400
C 	C 	0.41524 0.67149 0.38296 0.28800
H 	H 	0.47380 0.77691 0.44034 0.16300
O 	O 	0.61606 0.30882 0.21459 -0.36200
C 	C 	0.55325 0.44788 0.28058 0.27500
O 	O 	0.56857 0.34487 0.25498 -0.64100
C 	C 	0.62974 0.35812 0.20283 0.27600
O 	O 	0.58841 0.37134 0.19782 -0.39400
O 	O 	0.57508 0.41847 0.29206 -0.41800
H 	H 	0.61080 0.37525 0.25333 0.17100
Cu	Cu	0.66546 0.27269 0.90521 0.92800
Cu	Cu	0.59829 0.20211 0.95644 0.86700
Cu	Cu	0.56684 0.14467 0.90514 0.89700
Cu	Cu	0.63246 0.19352 0.85676 0.89200
C 	C 	0.75097 0.29700 0.86648 0.28200
O 	O 	0.62760 0.30480 0.88169 -0.36200
C 	C 	0.48453 0.10445 0.94791 0.27600
O 	O 	0.64502 0.18938 0.89146 -0.64000
O 	O 	0.58951 0.22116 0.92196 -0.64100
O 	O 	0.71260 0.31065 0.93578 -0.37700
O 	O 	0.67973 0.22451 0.95674 -0.43900
O 	O 	0.70715 0.26931 0.85032 -0.38400
O 	O 	0.55113 0.07176 0.88960 -0.38700
C 	C 	0.55458 0.06344 0.86531 0.28600
C 	C 	0.57818 0.26993 0.86967 0.27700
O 	O 	0.56387 0.21538 0.86463 -0.39300
O 	O 	0.59065 0.10687 0.85024 -0.39300
O 	O 	0.74090 0.31042 0.88913 -0.36400
C 	C 	0.72076 0.27925 0.95277 0.28700
O 	O 	0.49268 0.09788 0.92385 -0.37800
O 	O 	0.51442 0.15618 0.95884 -0.41900
H 	H 	0.67184 0.17422 0.89577 0.16300
H 	H 	0.55943 0.23332 0.92003 0.17100
C 	C 	0.48586 0.89810 0.86213 -0.05300
C 	C 	0.51449 0.95568 0.87128 0.00300
C 	C 	0.52474 0.00268 0.85551 -0.07200
C 	C 	0.50493 0.99154 0.83055 -0.01900
H 	H 	0.52814 0.96361 0.89077 0.03600
H 	H 	0.51095 0.02759 0.81860 0.03700
C 	C 	0.00190 0.41005 0.80395 -0.05700
C 	C 	0.98874 0.41335 0.82944 0.00800
C 	C 	0.96362 0.43701 0.87811 -0.04100
C 	C 	0.91735 0.39672 0.86279 0.00900
C 	C 	0.92981 0.38193 0.83886 0.00300
C 	C 	0.88391 0.33431 0.82563 -0.05200
C 	C 	0.82582 0.30727 0.83455 -0.00000
C 	C 	0.81269 0.32563 0.85719 -0.07100
C 	C 	0.85880 0.36982 0.87145 -0.02000
H 	H 	0.96712 0.38757 0.79027 0.04200
H 	H 	0.95438 0.44744 0.89666 0.03700
H 	H 	0.89323 0.31589 0.80931 0.03900
H 	H 	0.79121 0.27100 0.82409 0.02800
H 	H 	0.84928 0.38311 0.88931 0.04800
C 	C 	0.53933 0.29248 0.86162 -0.07600
C 	C 	0.52741 0.32694 0.87803 0.00500
C 	C 	0.49507 0.35301 0.86982 -0.05400
C 	C 	0.47710 0.34778 0.84445 0.00600
C 	C 	0.48445 0.30853 0.82860 0.00600
C 	C 	0.51619 0.28172 0.83719 -0.01600
C 	C 	0.45005 0.37916 0.83463 0.00500
H 	H 	0.54257 0.33290 0.89732 0.02500
H 	H 	0.48191 0.37465 0.88349 0.04000
H 	H 	0.52391 0.25356 0.82474 0.03400
H 	H 	0.47838 0.44483 0.86433 0.04100
C 	C 	0.98775 0.44350 0.99704 -0.05400
C 	C 	0.93615 0.39708 0.00796 0.00400
C 	C 	0.93511 0.38771 0.03425 0.00700
C 	C 	0.98615 0.42173 0.04872 -0.01500
C 	C 	0.88225 0.34693 0.04604 -0.04200
C 	C 	0.82985 0.31757 0.03233 -0.04100
C 	C 	0.82990 0.32592 0.00633 0.00400
C 	C 	0.88374 0.36275 0.99365 0.00600
C 	C 	0.88388 0.36356 0.96710 -0.05500
C 	C 	0.83058 0.33635 0.95386 0.00700
C 	C 	0.77681 0.30475 0.96667 -0.08100
C 	C 	0.77664 0.29769 0.99277 -0.01600
H 	H 	0.98815 0.45658 0.97778 0.03800
H 	H 	0.98535 0.41412 0.06879 0.04600
H 	H 	0.88131 0.33952 0.06611 0.03900
H 	H 	0.78902 0.28808 0.04199 0.03500
H 	H 	0.92473 0.38245 0.95662 0.04100
H 	H 	0.83120 0.33879 0.93354 0.03600
H 	H 	0.73508 0.27128 0.00255 0.02400
H 	H 	0.45371 0.10284 0.99694 0.02900
C 	C 	0.69108 0.39723 0.19444 -0.07500
C 	C 	0.70239 0.42896 0.17196 0.00300
C 	C 	0.76005 0.46111 0.16263 -0.05400
C 	C 	0.80712 0.45998 0.17525 0.00500
C 	C 	0.79641 0.43311 0.19922 0.00700
C 	C 	0.73835 0.40085 0.20840 -0.01800
C 	C 	0.84380 0.43946 0.21392 -0.04100
C 	C 	0.90162 0.47161 0.20501 -0.04100
C 	C 	0.91285 0.49492 0.18062 0.00700
C 	C 	0.86538 0.48715 0.16507 0.00500
C 	C 	0.87670 0.50292 0.13943 -0.05300
C 	C 	0.93463 0.53134 0.13028 0.00300
C 	C 	0.98203 0.54265 0.14619 -0.07200
C 	C 	0.97091 0.52394 0.17128 -0.01800
H 	H 	0.66644 0.42844 0.16158 0.03000
H 	H 	0.76801 0.48862 0.14634 0.04000
H 	H 	0.72993 0.37859 0.22638 0.03600
H 	H 	0.83591 0.42005 0.23250 0.03600
H 	H 	0.93774 0.47704 0.21689 0.03600
H 	H 	0.84095 0.49067 0.12625 0.04100
H 	H 	0.94253 0.54411 0.11069 0.03700
C 	C 	0.46345 0.16122 0.32645 0.00400
C 	C 	0.44139 0.11003 0.34086 -0.05600
C 	C 	0.38262 0.99797 0.36850 -0.05500
C 	C 	0.36823 0.94771 0.38268 0.00700
H 	H 	0.47621 0.20268 0.33565 0.01800
H 	H 	0.44096 0.11396 0.36102 0.04000
H 	H 	0.37629 0.03188 0.37685 0.04100
H 	H 	0.35580 0.94590 0.40221 0.03800
C 	C 	0.44221 0.64417 0.36793 -0.08200
C 	C 	0.49219 0.59010 0.33906 0.00700
C 	C 	0.46875 0.62235 0.32719 0.00300
C 	C 	0.44602 0.65101 0.34178 -0.01500
C 	C 	0.50679 0.55863 0.29771 0.00900
C 	C 	0.51625 0.56247 0.32399 0.00200
C 	C 	0.54888 0.49448 0.29440 -0.07400
C 	C 	0.52197 0.52360 0.28313 -0.02300
C 	C 	0.64075 0.23894 0.52817 -0.07600
C 	C 	0.60567 0.19236 0.54441 0.00500
C 	C 	0.58008 0.13423 0.53613 -0.05400
C 	C 	0.58645 0.12196 0.51084 0.00600
C 	C 	0.62630 0.16882 0.49519 0.00600
C 	C 	0.65258 0.22709 0.50386 -0.01600
C 	C 	0.63995 0.15701 0.47121 -0.04100
C 	C 	0.61408 0.09936 0.46245 -0.04100
C 	C 	0.57161 0.05267 0.47692 0.00700
C 	C 	0.55568 0.06374 0.50092 0.00500
C 	C 	0.50727 0.01732 0.51362 -0.05300
C 	C 	0.47986 0.96028 0.50392 0.00200
C 	C 	0.49790 0.94888 0.48086 -0.07200
C 	C 	0.54339 0.99517 0.46728 -0.01600
H 	H 	0.59888 0.20116 0.56363 0.02600
H 	H 	0.55795 0.09933 0.54970 0.04000
H 	H 	0.68120 0.26314 0.49154 0.03400
H 	H 	0.67129 0.19261 0.45939 0.03600
H 	H 	0.62606 0.09111 0.44403 0.03700
H 	H 	0.48852 0.02545 0.53017 0.04000
H 	H 	0.44323 0.92510 0.51403 0.02900
H 	H 	0.55667 0.98650 0.44921 0.04100
C 	C 	0.46066 0.62549 0.47861 -0.07100
C 	C 	0.49306 0.64416 0.50107 -0.00000
C 	C 	0.52402 0.61705 0.50984 -0.05300
C 	C 	0.52122 0.56899 0.49668 0.00400
C 	C 	0.49294 0.55375 0.47295 0.00800
C 	C 	0.46154 0.58086 0.46440 -0.01900
C 	C 	0.49766 0.51281 0.45768 -0.04200
C 	C 	0.52989 0.48664 0.46573 -0.04100
C 	C 	0.55494 0.49811 0.48982 0.00700
C 	C 	0.54860 0.53749 0.50599 0.00500
C 	C 	0.56624 0.54148 0.53135 -0.05300
C 	C 	0.59510 0.51187 0.53959 0.00100
C 	C 	0.60453 0.47572 0.52314 -0.07200
C 	C 	0.58424 0.46876 0.49828 -0.01800
H 	H 	0.49553 0.68075 0.51147 0.02800
H 	H 	0.55256 0.63578 0.52596 0.03900
H 	H 	0.43817 0.56744 0.44663 0.04800
H 	H 	0.47716 0.50199 0.43927 0.03700
H 	H 	0.53413 0.45614 0.45339 0.03600
H 	H 	0.55502 0.56463 0.54506 0.04000
H 	H 	0.60944 0.51643 0.55897 0.03200
H 	H 	0.58967 0.43922 0.48576 0.04200
C 	C 	0.88359 0.38706 0.62911 -0.07600
C 	C 	0.93212 0.40344 0.66981 0.00600
C 	C 	0.88084 0.38560 0.65546 -0.02200
C 	C 	0.93040 0.40991 0.69590 -0.04300
H 	H 	0.83949 0.37388 0.66481 0.03000
H 	H 	0.88895 0.39807 0.70516 0.03400
H 	H 	0.98038 0.44149 0.72996 0.03800
C 	C 	0.62538 0.46051 0.63377 -0.08200
C 	C 	0.58709 0.47636 0.62230 0.00600
C 	C 	0.56062 0.50180 0.63638 -0.05500
C 	C 	0.57302 0.51277 0.66230 0.00600
C 	C 	0.60861 0.49306 0.67413 0.00400
C 	C 	0.63634 0.46914 0.65963 -0.01600
C 	C 	0.61341 0.49441 0.70041 -0.04000
C 	C 	0.58114 0.51248 0.71508 -0.04300
C 	C 	0.54681 0.53341 0.70368 0.00900
C 	C 	0.54639 0.53810 0.67721 0.00200
C 	C 	0.52078 0.56919 0.66644 -0.05400
C 	C 	0.48699 0.58529 0.68119 -0.00300
C 	C 	0.47984 0.57240 0.70701 -0.07500
C 	C 	0.51255 0.54946 0.71843 -0.02200
H 	H 	0.57714 0.46823 0.60245 0.03800
H 	H 	0.52810 0.50961 0.62735 0.04100
H 	H 	0.66463 0.45522 0.66861 0.02400
H 	H 	0.64044 0.47922 0.70955 0.03400
H 	H 	0.58311 0.51049 0.73537 0.03900
H 	H 	0.52842 0.58268 0.64697 0.03900
H 	H 	0.51016 0.54267 0.73859 0.04800
