data_crystal

_cell_length_a 18.80529
_cell_length_b 17.13312
_cell_length_c 46.43337
_cell_angle_alpha 89.62422
_cell_angle_beta  89.63494
_cell_angle_gamma 119.45037

_symmetry_space_group_name_	'P 1'
_symmetry_space_group_name_H-M	'P 1'

loop_
_symmetry_equiv_pos_as_xyz
  x,y,z

loop_
_atom_site_label
_atom_site_type_symbol
_atom_site_fract_x
_atom_site_fract_y
_atom_site_fract_z
_atom_site_charge
O 	O 	0.03475 0.90290 0.69716 -0.36700
O 	O 	0.04743 0.04642 0.73523 -0.69800
H 	H 	0.05770 0.27237 0.08342 0.08400
C 	C 	0.98526 0.49959 0.43286 -0.07300
C 	C 	0.05910 0.53032 0.93716 -0.01700
H 	H 	0.05004 0.54594 0.91534 0.06400
H 	H 	0.08755 0.76310 0.86239 0.07700
O 	O 	0.05732 0.19694 0.75902 -0.35500
Ni	Ni	0.10713 0.98634 0.72965 1.09400
Ni	Ni	0.09027 0.16580 0.72136 1.12300
H 	H 	0.05871 0.05976 0.75580 0.15900
C 	C 	0.09882 0.22999 0.19331 0.27600
C 	C 	0.07503 0.11896 0.27255 0.25400
C 	C 	0.02269 0.97862 0.15756 0.24300
C 	C 	0.98407 0.86842 0.23089 0.24700
O 	O 	0.05055 0.17348 0.26153 -0.33900
C 	C 	0.11577 0.27950 0.08995 -0.07500
C 	C 	0.08875 0.26972 0.14202 -0.04800
O 	O 	0.01666 0.87604 0.11934 -0.17800
C 	C 	0.03873 0.10158 0.34767 0.12500
C 	C 	0.01201 0.13025 0.37151 -0.07600
C 	C 	0.06595 0.17052 0.39446 0.02200
C 	C 	0.06648 0.23626 0.41029 -0.05300
O 	O 	0.00607 0.09606 0.32049 -0.17900
H 	H 	0.02023 0.25641 0.40860 0.07700
C 	C 	0.98318 0.81095 0.27989 -0.06500
H 	H 	0.96325 0.85419 0.28981 0.05600
H 	H 	0.01611 0.59383 0.46758 0.07800
C 	C 	0.08732 0.48656 0.99253 -0.03100
H 	H 	0.10024 0.46735 0.01331 0.07400
O 	O 	0.03644 0.89282 0.76211 -0.34100
C 	C 	0.04538 0.75364 0.11253 -0.07300
O 	O 	0.11257 0.13357 0.68178 -0.35500
C 	C 	0.07210 0.53136 0.42428 0.31600
O 	O 	0.08801 0.49076 0.40336 -0.35500
Ni	Ni	0.08081 0.06013 0.21312 1.12800
O 	O 	0.06559 0.05528 0.17049 -0.35000
O 	O 	0.13240 0.19459 0.20951 -0.35500
O 	O 	0.04840 0.92854 0.21591 -0.37300
O 	O 	0.10474 0.07885 0.25585 -0.35100
C 	C 	0.17626 0.29375 0.06924 0.12500
C 	C 	0.13812 0.29079 0.11894 0.01500
C 	C 	0.13492 0.26795 0.16490 0.04600
O 	O 	0.18181 0.33918 0.04372 -0.17300
C 	C 	0.07166 0.84460 0.11674 0.11200
C 	C 	0.06308 0.95152 0.13609 0.06500
H 	H 	0.06689 0.61680 0.09234 0.06500
C 	C 	0.07157 0.10488 0.30380 0.05200
C 	C 	0.03283 0.78577 0.29265 0.02500
C 	C 	0.99513 0.80833 0.25059 0.05100
H 	H 	0.03556 0.82834 0.33676 0.07500
C 	C 	0.14305 0.56912 0.97999 -0.06700
C 	C 	0.12992 0.59005 0.95178 0.09900
C 	C 	0.16523 0.10586 0.67672 0.28600
O 	O 	0.19250 0.07390 0.75860 -0.33300
O 	O 	0.18724 0.06904 0.69733 -0.34300
O 	O 	0.13111 0.58500 0.44147 -0.36600
C 	C 	0.21042 0.29931 0.12780 0.12400
O 	O 	0.21367 0.28519 0.15715 -0.18100
C 	C 	0.14593 0.89880 0.12940 0.03700
C 	C 	0.09249 0.71798 0.12379 0.01000
C 	C 	0.10003 0.65195 0.11137 -0.05100
C 	C 	0.14141 0.96757 0.14097 -0.10700
C 	C 	0.14615 0.18880 0.39260 0.12700
C 	C 	0.11635 0.11185 0.34719 0.01900
C 	C 	0.14711 0.29514 0.41639 0.06000
C 	C 	0.13704 0.11351 0.31932 -0.05000
C 	C 	0.06771 0.81441 0.31991 -0.08800
O 	O 	0.05071 0.77932 0.24350 -0.17900
H 	H 	0.19300 0.99635 0.63819 0.01900
N 	N 	0.18694 0.67322 0.93829 -0.01900
O 	O 	0.21925 0.67334 0.91343 -0.09700
C 	C 	0.22021 0.16154 0.75749 0.25700
O 	O 	0.20491 0.19926 0.73507 -0.35900
C 	C 	0.17533 0.39118 0.41512 0.25700
O 	O 	0.16279 0.43022 0.43800 -0.34400
C 	C 	0.21755 0.63029 0.99557 0.31600
O 	O 	0.21296 0.68444 0.01450 -0.36100
C 	C 	0.25105 0.30437 0.07811 0.02500
C 	C 	0.17260 0.15935 0.36881 -0.07900
O 	O 	0.20024 0.26475 0.40751 -0.18200
H 	H 	0.19921 0.14432 0.31112 0.06800
C 	C 	0.07377 0.76903 0.27096 0.11700
C 	C 	0.20802 0.12807 0.64887 0.02700
C 	C 	0.22105 0.06745 0.63341 0.02400
O 	O 	0.20050 0.74865 0.94950 -0.08700
H 	H 	0.17813 0.00573 0.15902 0.09000
Ni	Ni	0.19449 0.54597 0.38021 1.12500
O 	O 	0.19345 0.43010 0.38919 -0.35400
O 	O 	0.18377 0.65565 0.37464 -0.36100
O 	O 	0.21177 0.64835 0.07025 -0.37400
C 	C 	0.26823 0.30415 0.10769 -0.08700
C 	C 	0.26661 0.39140 0.04106 0.05600
C 	C 	0.16494 0.77139 0.13773 0.12600
C 	C 	0.19209 0.86281 0.14123 -0.09500
C 	C 	0.17741 0.66754 0.11797 0.03800
C 	C 	0.14380 0.82079 0.32516 0.11900
O 	O 	0.16706 0.80972 0.35255 -0.17900
H 	H 	0.24258 0.99748 0.58206 0.04000
Ni	Ni	0.23141 0.56736 0.44887 1.11500
C 	C 	0.22373 0.64491 0.09761 0.28600
C 	C 	0.30015 0.48833 0.03866 0.25800
O 	O 	0.28785 0.65053 0.98371 -0.37000
C 	C 	0.30714 0.36219 0.05913 -0.05900
H 	H 	0.23699 0.18178 0.36569 0.08200
C 	C 	0.15017 0.77626 0.27620 -0.08300
C 	C 	0.24298 0.06090 0.58159 -0.00300
C 	C 	0.24539 0.10481 0.60716 -0.03200
O 	O 	0.22118 0.20416 0.63312 -0.18100
O 	O 	0.28606 0.52742 0.06039 -0.35800
O 	O 	0.32979 0.53082 0.01353 -0.35300
H 	H 	0.32710 0.31456 0.11466 0.08000
O 	O 	0.21958 0.73933 0.13650 -0.17700
C 	C 	0.18547 0.80619 0.30328 0.01200
C 	C 	0.24484 0.18419 0.60711 0.14400
C 	C 	0.25521 0.10830 0.55546 0.10000
C 	C 	0.28431 0.21878 0.77741 0.05400
C 	C 	0.24437 0.73098 0.36464 0.27700
O 	O 	0.27060 0.59489 0.41062 -0.71700
Ni	Ni	0.29573 0.74868 0.04548 1.12200
H 	H 	0.24923 0.90537 0.15192 0.07400
C 	C 	0.22588 0.78572 0.34502 0.05200
H 	H 	0.18260 0.76287 0.25932 0.07300
C 	C 	0.24799 0.22767 0.58115 -0.09900
C 	C 	0.25594 0.18984 0.55530 0.03400
O 	O 	0.26703 0.22416 0.80645 -0.18300
O 	O 	0.28083 0.58106 0.34823 -0.35600
H 	H 	0.29752 0.55829 0.40894 0.16100
O 	O 	0.29180 0.65028 0.10611 -0.34800
H 	H 	0.37103 0.40364 0.06456 0.06400
C 	C 	0.23762 0.78424 0.31569 -0.05500
O 	O 	0.30292 0.10197 0.53369 -0.15300
H 	H 	0.24987 0.29188 0.58112 0.07800
O 	O 	0.36298 0.01615 0.01086 -0.07000
C 	C 	0.05555 0.79731 0.86989 -0.09100
O 	O 	0.05467 0.85520 0.82157 -0.19000
O 	O 	0.29437 0.69308 0.46915 -0.35100
Ni	Ni	0.38475 0.66791 0.00613 1.12000
O 	O 	0.36307 0.84745 0.01715 -0.36200
O 	O 	0.36504 0.69687 0.04385 -0.70300
H 	H 	0.26044 0.74401 0.30548 0.06700
H 	H 	0.33612 0.82729 0.50943 0.06400
C 	C 	0.36592 0.25105 0.77125 -0.05200
C 	C 	0.34626 0.26492 0.81686 0.12700
H 	H 	0.32309 0.29960 0.85927 0.08200
O 	O 	0.32071 0.74886 0.36749 -0.35400
O 	O 	0.33485 0.55838 0.45824 -0.35400
Ni	Ni	0.37580 0.64257 0.07846 1.11400
O 	O 	0.35995 0.82079 0.08079 -0.34200
O 	O 	0.37330 0.97481 0.54556 -0.10100
C 	C 	0.30855 0.23984 0.53422 -0.05700
O 	O 	0.52023 0.49346 0.93580 -0.10300
C 	C 	0.34300 0.19062 0.52371 0.05600
C 	C 	0.32964 0.76975 0.45480 0.32300
C 	C 	0.35940 0.60467 0.35136 0.26300
O 	O 	0.31830 0.76949 0.42722 -0.36800
H 	H 	0.46102 0.54677 0.98446 0.05400
C 	C 	0.36850 0.31184 0.84278 -0.08600
H 	H 	0.39398 0.26812 0.75002 0.06300
Ni	Ni	0.36140 0.70801 0.40165 1.13200
C 	C 	0.43563 0.86445 0.00751 0.28500
H 	H 	0.41900 0.75038 0.04437 0.13800
C 	C 	0.38945 0.87228 0.49672 0.01800
O 	O 	0.46991 0.66948 0.52629 -0.09800
H 	H 	0.34067 0.31259 0.53428 0.06300
N 	N 	0.41568 0.01471 0.02855 -0.02200
O 	O 	0.40290 0.01259 0.05617 -0.07900
C 	C 	0.40451 0.27962 0.79633 0.01400
O 	O 	0.40043 0.64646 0.37463 -0.37100
O 	O 	0.44505 0.80078 0.99426 -0.35600
N 	N 	0.43966 0.97451 0.53770 -0.01400
O 	O 	0.49418 0.98604 0.55680 -0.09800
C 	C 	0.40851 0.61526 0.44774 0.29300
C 	C 	0.43533 0.83814 0.08744 0.23800
O 	O 	0.46811 0.61647 0.06374 -0.36100
C 	C 	0.40703 0.60978 0.32560 0.05500
C 	C 	0.39716 0.85116 0.46813 -0.10000
N 	N 	0.49989 0.43704 0.95725 -0.02200
O 	O 	0.45010 0.35226 0.95314 -0.09800
N 	N 	0.49936 0.68964 0.50019 -0.02100
C 	C 	0.49712 0.52684 0.99748 -0.01600
C 	C 	0.43198 0.23567 0.52149 0.27900
O 	O 	0.42451 0.69284 0.43540 -0.34400
C 	C 	0.49307 0.62270 0.03679 0.31500
O 	O 	0.49164 0.68179 0.01924 -0.38700
O 	O 	0.45255 0.77246 0.09250 -0.34100
O 	O 	0.40625 0.65960 0.30181 -0.18300
C 	C 	0.44918 0.95318 0.50870 0.03200
O 	O 	0.52236 0.76920 0.48969 -0.08600
C 	C 	0.45131 0.37464 0.84689 0.02100
C 	C 	0.49321 0.03072 0.01788 0.13300
H 	H 	0.45622 0.36160 0.89262 0.08600
C 	C 	0.51080 0.62624 0.48370 0.10000
C 	C 	0.50418 0.95940 0.00731 -0.09500
C 	C 	0.52283 0.46952 0.98586 0.09300
C 	C 	0.48663 0.34442 0.79976 -0.08200
C 	C 	0.47680 0.60155 0.45607 -0.06400
C 	C 	0.48815 0.39090 0.87252 -0.05500
C 	C 	0.04313 0.85433 0.85131 0.12500
C 	C 	0.01863 0.77888 0.89745 0.03400
O 	O 	0.47276 0.24757 0.54524 -0.35200
O 	O 	0.46992 0.27549 0.49730 -0.34700
O 	O 	0.50160 0.98089 0.11445 -0.20900
C 	C 	0.47924 0.60767 0.32832 -0.05600
C 	C 	0.51833 0.55912 0.02564 -0.08700
C 	C 	0.51002 0.38847 0.82629 0.11700
C 	C 	0.00416 0.88946 0.81303 0.06000
C 	C 	0.49967 0.93111 0.09055 0.07400
H 	H 	0.49992 0.59333 0.34841 0.06800
C 	C 	0.46954 0.90871 0.45233 0.14600
C 	C 	0.48675 0.69528 0.29259 0.11900
H 	H 	0.57638 0.60214 0.51735 0.06800
H 	H 	0.53182 0.35536 0.78333 0.07100
H 	H 	0.98832 0.71116 0.10179 0.07000
O 	O 	0.95282 0.91684 0.16873 -0.35600
C 	C 	0.96831 0.53396 0.45773 -0.03000
C 	C 	0.86637 0.59062 0.93352 0.25800
C 	C 	0.67234 0.22214 0.98514 0.32800
C 	C 	0.91202 0.41366 0.94136 0.32200
C 	C 	0.62327 0.41425 0.98742 0.29700
C 	C 	0.68345 0.22590 0.89383 0.28600
C 	C 	0.61804 0.39990 0.88866 0.26200
Ni	Ni	0.78202 0.42046 0.97410 1.11600
Ni	Ni	0.61723 0.29379 0.93859 1.12600
Ni	Ni	0.78228 0.41612 0.90431 1.12200
O 	O 	0.86845 0.55018 0.95818 -0.34600
O 	O 	0.81883 0.54592 0.91170 -0.36200
O 	O 	0.61908 0.23140 0.90201 -0.36000
O 	O 	0.71075 0.30089 0.99761 -0.35400
O 	O 	0.65760 0.21732 0.95770 -0.36900
O 	O 	0.68569 0.39956 0.87975 -0.35600
O 	O 	0.85306 0.36764 0.95970 -0.35600
O 	O 	0.89650 0.44618 0.91793 -0.37600
O 	O 	0.58488 0.36823 0.91445 -0.35600
O 	O 	0.70353 0.46149 0.99057 -0.36200
O 	O 	0.58765 0.33106 0.97706 -0.35600
O 	O 	0.75680 0.28896 0.90053 -0.36400
O 	O 	0.72357 0.39548 0.93962 -0.71700
H 	H 	0.70981 0.44405 0.93935 0.17200
C 	C 	0.76390 0.43306 0.56570 0.26200
C 	C 	0.59597 0.21312 0.58654 0.28400
C 	C 	0.58585 0.46093 0.49572 0.30400
C 	C 	0.55913 0.10986 0.49840 0.29200
C 	C 	0.75884 0.34606 0.47721 0.29400
Ni	Ni	0.58641 0.35711 0.55135 1.11500
Ni	Ni	0.58097 0.28953 0.48563 1.12800
Ni	Ni	0.68693 0.25634 0.53265 1.12400
O 	O 	0.70562 0.45336 0.55997 -0.35400
O 	O 	0.75080 0.34904 0.56398 -0.35000
O 	O 	0.52442 0.15566 0.48941 -0.35600
O 	O 	0.77441 0.32432 0.50299 -0.36200
O 	O 	0.59804 0.29087 0.58749 -0.35500
O 	O 	0.59958 0.17990 0.56171 -0.34500
O 	O 	0.68406 0.30211 0.46595 -0.35800
O 	O 	0.56231 0.43893 0.52321 -0.36300
O 	O 	0.61950 0.42148 0.48095 -0.35400
O 	O 	0.63684 0.15112 0.50550 -0.35900
O 	O 	0.63212 0.31986 0.52209 -0.72000
H 	H 	0.67965 0.37790 0.51683 0.16900
C 	C 	0.95488 0.85727 0.69885 0.26900
C 	C 	0.99543 0.90882 0.78266 0.23600
C 	C 	0.93519 0.09596 0.68971 0.28700
C 	C 	0.98185 0.14958 0.76967 0.25400
Ni	Ni	0.93160 0.98007 0.73701 1.10100
O 	O 	0.91171 0.01235 0.69720 -0.35500
O 	O 	0.91640 0.86207 0.72182 -0.37400
O 	O 	0.92297 0.08285 0.75500 -0.34600
O 	O 	0.93998 0.93291 0.77623 -0.37700
O 	O 	0.99054 0.16289 0.70468 -0.35600
C 	C 	0.80947 0.95947 0.25380 0.22000
C 	C 	0.85040 0.07728 0.17971 0.26900
Ni	Ni	0.95395 0.13042 0.23243 1.11400
Ni	Ni	0.88989 0.93862 0.20011 1.11000
O 	O 	0.86760 0.04023 0.26157 -0.31600
O 	O 	0.80043 0.93460 0.22641 -0.36600
O 	O 	0.02840 0.22243 0.20098 -0.35500
O 	O 	0.90906 0.85427 0.22554 -0.36200
O 	O 	0.85440 0.10199 0.20663 -0.35300
O 	O 	0.87653 0.02187 0.17196 -0.33600
O 	O 	0.97244 0.03636 0.22101 -0.70300
H 	H 	0.96385 0.00615 0.23982 0.16000
H 	H 	0.02260 0.23490 0.14144 0.07300
C 	C 	0.58435 0.04371 0.11421 0.14100
C 	C 	0.62484 0.08526 0.13957 -0.08300
C 	C 	0.70925 0.11747 0.14111 0.01400
C 	C 	0.75058 0.10071 0.11945 0.13000
C 	C 	0.70996 0.05831 0.09422 -0.09600
C 	C 	0.62741 0.03419 0.09151 0.06800
C 	C 	0.57368 0.96301 0.07657 -0.12100
O 	O 	0.81766 0.09478 0.12899 -0.17700
C 	C 	0.81147 0.10709 0.15838 0.04900
C 	C 	0.74804 0.12192 0.16573 -0.05200
H 	H 	0.59027 0.08383 0.15852 0.08200
H 	H 	0.73920 0.03619 0.07863 0.09600
H 	H 	0.58999 0.92245 0.06318 0.07000
H 	H 	0.71941 0.10812 0.18690 0.06900
C 	C 	0.52826 0.78016 0.27930 -0.08300
C 	C 	0.61172 0.83386 0.28468 0.01400
C 	C 	0.65515 0.80133 0.29920 0.12300
C 	C 	0.61508 0.71492 0.31126 -0.08600
C 	C 	0.53004 0.66271 0.30775 0.02000
O 	O 	0.73847 0.84707 0.29314 -0.19300
C 	C 	0.74019 0.91014 0.27344 0.06100
C 	C 	0.66481 0.90219 0.26808 -0.06200
H 	H 	0.49514 0.80634 0.26734 0.07000
H 	H 	0.64859 0.68960 0.32340 0.07700
H 	H 	0.64909 0.92496 0.24853 0.05900
H 	H 	0.95479 0.13104 0.37067 0.08200
C 	C 	0.53018 0.98718 0.46490 -0.14100
C 	C 	0.51758 0.01343 0.49203 0.04900
N 	N 	0.48019 0.89039 0.42309 -0.04500
H 	H 	0.58362 0.03240 0.45225 0.12600
O 	O 	0.45056 0.91737 0.40251 -0.11900
O 	O 	0.53462 0.86699 0.41693 -0.11900
C 	C 	0.84261 0.38059 0.43221 -0.02500
C 	C 	0.82904 0.40855 0.45899 -0.06300
C 	C 	0.89055 0.48939 0.47069 0.09700
C 	C 	0.91958 0.42722 0.41861 0.10200
N 	N 	0.92962 0.40357 0.38996 -0.01800
H 	H 	0.79425 0.32133 0.42227 0.07800
N 	N 	0.87507 0.52476 0.49635 -0.02200
O 	O 	0.91282 0.32196 0.38444 -0.09900
O 	O 	0.94861 0.46141 0.36900 -0.09600
O 	O 	0.92685 0.55024 0.51737 -0.10800
O 	O 	0.81306 0.53863 0.49769 -0.10800
C 	C 	0.49406 0.54510 0.43937 -0.02900
C 	C 	0.55307 0.58553 0.49565 -0.02600
C 	C 	0.56164 0.52028 0.48023 -0.06800
C 	C 	0.53565 0.50379 0.45124 0.10100
N 	N 	0.54702 0.44132 0.43434 -0.02200
H 	H 	0.46997 0.52800 0.41777 0.06300
O 	O 	0.48770 0.35940 0.43189 -0.10400
O 	O 	0.61368 0.46852 0.41922 -0.09100
C 	C 	0.66597 0.10630 0.63320 0.09100
C 	C 	0.70364 0.05294 0.63384 -0.00500
C 	C 	0.78577 0.09335 0.64199 -0.03600
C 	C 	0.82744 0.18093 0.65091 0.14300
C 	C 	0.78816 0.23219 0.65210 -0.09800
C 	C 	0.70596 0.19216 0.64402 0.03500
O 	O 	0.60620 0.09264 0.61327 -0.15500
C 	C 	0.61525 0.17875 0.61265 0.04900
C 	C 	0.67283 0.23730 0.63154 -0.06100
O 	O 	0.89523 0.20085 0.66740 -0.17700
C 	C 	0.88817 0.11581 0.66868 0.02700
C 	C 	0.82293 0.05083 0.65360 0.02600
H 	H 	0.67183 0.98443 0.62639 0.03100
H 	H 	0.82045 0.30098 0.65931 0.08000
H 	H 	0.70440 0.30962 0.62892 0.07600
H 	H 	0.79365 0.97943 0.65802 0.01800
C 	C 	0.88605 0.72565 0.63691 0.12100
C 	C 	0.90120 0.71179 0.60839 -0.08800
C 	C 	0.89729 0.63004 0.60156 0.01700
C 	C 	0.87823 0.56404 0.62225 0.11800
C 	C 	0.86605 0.57978 0.65103 -0.08500
C 	C 	0.86552 0.65939 0.65735 0.01000
O 	O 	0.91511 0.81064 0.64821 -0.19200
C 	C 	0.91007 0.78866 0.67747 0.04200
C 	C 	0.88124 0.69884 0.68314 -0.05300
O 	O 	0.84088 0.47794 0.61121 -0.19100
C 	C 	0.83351 0.49749 0.58249 0.06200
C 	C 	0.86941 0.58812 0.57645 -0.05200
H 	H 	0.91547 0.76288 0.59203 0.07100
H 	H 	0.85123 0.52872 0.66745 0.06900
H 	H 	0.89479 0.67262 0.70239 0.05900
H 	H 	0.85212 0.61613 0.55858 0.07500
C 	C 	0.99792 0.45361 0.95126 -0.08800
C 	C 	0.01604 0.42728 0.97791 0.10800
N 	N 	0.96541 0.33853 0.98912 -0.02100
O 	O 	0.94728 0.26959 0.97297 -0.06500
O 	O 	0.94283 0.32649 0.01607 -0.09200
C 	C 	0.58244 0.97885 0.99790 -0.07200
C 	C 	0.55780 0.11916 0.01632 -0.03000
C 	C 	0.63089 0.13893 0.00236 -0.08400
C 	C 	0.64599 0.06812 0.99581 0.14500
N 	N 	0.72509 0.08701 0.98582 -0.02600
H 	H 	0.59410 0.92503 0.99204 0.07700
H 	H 	0.54726 0.17339 0.02277 0.07300
O 	O 	0.73238 0.04847 0.96282 -0.06500
O 	O 	0.78967 0.14047 0.00031 -0.06700
C 	C 	0.58881 0.47287 0.03094 -0.02600
C 	C 	0.57279 0.44633 0.00205 -0.06500
C 	C 	0.56278 0.52995 0.04272 0.10200
N 	N 	0.58567 0.56199 0.07141 -0.02000
H 	H 	0.62606 0.45387 0.04372 0.07000
O 	O 	0.55934 0.50587 0.09304 -0.10100
O 	O 	0.63842 0.64584 0.07568 -0.09200
C 	C 	0.74627 0.11245 0.85122 0.12700
C 	C 	0.81821 0.10694 0.85009 -0.08100
C 	C 	0.87969 0.16278 0.83061 0.02200
C 	C 	0.86721 0.21423 0.81065 0.12000
C 	C 	0.79288 0.21429 0.81012 -0.08400
C 	C 	0.73253 0.16235 0.83068 0.01700
O 	O 	0.70682 0.10494 0.87724 -0.16700
C 	C 	0.67575 0.16254 0.87170 0.05100
C 	C 	0.68507 0.19063 0.84335 -0.05200
O 	O 	0.91709 0.23571 0.78648 -0.18100
C 	C 	0.95720 0.18756 0.79297 0.05900
C 	C 	0.93634 0.14534 0.81956 -0.05900
H 	H 	0.82868 0.06635 0.86563 0.08600
H 	H 	0.78268 0.25472 0.79442 0.07300
H 	H 	0.68363 0.25050 0.83646 0.06100
H 	H 	0.94101 0.08639 0.82505 0.06700
O 	O 	0.58696 0.41625 0.83760 -0.18400
C 	C 	0.56838 0.41359 0.86692 0.06000
C 	C 	0.96210 0.80499 0.90462 0.11100
C 	C 	0.94619 0.85782 0.88532 -0.08000
C 	C 	0.99206 0.88677 0.85963 0.00500
O 	O 	0.90411 0.74901 0.92479 -0.18200
C 	C 	0.92832 0.68433 0.92817 0.06000
C 	C 	0.99781 0.70325 0.91249 -0.06700
C 	C 	0.96715 0.90884 0.83545 -0.06800
H 	H 	0.89550 0.86983 0.88915 0.06900
H 	H 	0.01199 0.65244 0.90534 0.06800
H 	H 	0.91311 0.91582 0.83364 0.05500
