data_crystal

_cell_length_a 26.22397
_cell_length_b 26.54299
_cell_length_c 34.92941
_cell_angle_alpha 95.50519
_cell_angle_beta  95.50258
_cell_angle_gamma 125.83422

_symmetry_space_group_name_	'P 1'
_symmetry_space_group_name_H-M	'P 1'

loop_
_symmetry_equiv_pos_as_xyz
  x,y,z

loop_
_atom_site_label
_atom_site_type_symbol
_atom_site_fract_x
_atom_site_fract_y
_atom_site_fract_z
_atom_site_charge
C 	C 	0.98652 0.04923 0.99311 0.05900
C 	C 	0.05141 0.08506 0.99006 -0.08800
C 	C 	0.08247 0.05645 0.98859 0.05500
C 	C 	0.04864 0.99207 0.99020 -0.09100
C 	C 	0.98396 0.95623 0.99341 0.05600
C 	C 	0.95301 0.98490 0.99502 -0.08800
H 	H 	0.07740 0.13475 0.98847 0.06300
H 	H 	0.07262 0.96991 0.98896 0.06400
H 	H 	0.90301 0.95726 0.99771 0.06300
C 	C 	0.91969 0.98661 0.46047 0.01800
C 	C 	0.88323 0.92169 0.46167 -0.06100
C 	C 	0.91309 0.89182 0.46411 0.02700
C 	C 	0.97899 0.92660 0.46443 -0.05000
C 	C 	0.01570 0.99152 0.46377 0.00800
C 	C 	0.98594 0.02142 0.46178 -0.04000
H 	H 	0.83223 0.89486 0.46129 0.05700
H 	H 	0.00173 0.90320 0.46544 0.05100
H 	H 	0.01425 0.07168 0.46144 0.04900
Cu	Cu	0.66016 0.26198 0.00218 0.93500
Cu	Cu	0.70220 0.26398 0.91657 0.89000
Cu	Cu	0.70276 0.36842 0.95627 0.90600
Cu	Cu	0.67740 0.38579 0.03744 0.91300
C 	C 	0.66784 0.29183 0.08453 0.30900
O 	O 	0.56890 0.22899 0.00425 -0.31700
C 	C 	0.67175 0.32857 0.86989 0.30800
O 	O 	0.71931 0.36128 0.00923 -0.63700
O 	O 	0.65076 0.27415 0.94774 -0.63900
O 	O 	0.69344 0.21159 0.99493 -0.35200
O 	O 	0.76318 0.27567 0.95767 -0.42100
O 	O 	0.67818 0.34696 0.08379 -0.31600
O 	O 	0.75780 0.45970 0.96819 -0.36500
C 	C 	0.75335 0.49418 0.99558 0.29400
C 	C 	0.54837 0.26258 0.99726 0.30700
O 	O 	0.58934 0.32206 0.99466 -0.36700
O 	O 	0.71310 0.46822 0.02002 -0.36800
O 	O 	0.68118 0.26601 0.05684 -0.33800
C 	C 	0.74580 0.23390 0.98054 0.29200
O 	O 	0.70038 0.37560 0.90045 -0.35600
O 	O 	0.66276 0.27478 0.87254 -0.34000
H 	H 	0.76524 0.38394 0.02033 0.18100
H 	H 	0.60608 0.25257 0.93419 0.21100
Cu	Cu	0.71793 0.32338 0.44933 0.93400
Cu	Cu	0.72426 0.27849 0.53279 0.88400
Cu	Cu	0.61769 0.28250 0.50152 0.91100
Cu	Cu	0.59261 0.31164 0.42404 0.90800
C 	C 	0.66631 0.30101 0.36775 0.30900
O 	O 	0.74952 0.41428 0.44959 -0.34500
C 	C 	0.66750 0.30894 0.58676 0.30900
O 	O 	0.61821 0.26670 0.44683 -0.63500
O 	O 	0.71241 0.33164 0.50534 -0.63700
O 	O 	0.76735 0.28772 0.45125 -0.33900
O 	O 	0.70548 0.21822 0.48915 -0.42000
O 	O 	0.63665 0.32525 0.37828 -0.35700
O 	O 	0.52518 0.23034 0.49424 -0.35000
C 	C 	0.48674 0.23030 0.46679 0.29900
C 	C 	0.71857 0.43505 0.46325 0.28800
O 	O 	0.66010 0.39435 0.46909 -0.36600
O 	O 	0.50899 0.27004 0.44204 -0.36600
O 	O 	0.70713 0.30191 0.39369 -0.30400
C 	C 	0.74474 0.23483 0.46433 0.30100
O 	O 	0.61741 0.28374 0.55828 -0.32700
O 	O 	0.72055 0.31801 0.57979 -0.37600
H 	H 	0.59293 0.22136 0.43475 0.20600
H 	H 	0.73667 0.37566 0.51983 0.20300
C 	C 	0.59791 0.30016 0.76488 0.03800
C 	C 	0.65319 0.34174 0.75010 0.08900
C 	C 	0.71066 0.39026 0.77633 -0.10600
C 	C 	0.71479 0.38827 0.81654 0.07900
C 	C 	0.66162 0.34096 0.83069 0.00100
C 	C 	0.60122 0.30045 0.80534 -0.06600
C 	C 	0.65239 0.32960 0.70761 0.09400
C 	C 	0.76813 0.44233 0.76135 0.78900
H 	H 	0.76021 0.42109 0.83653 0.08100
C 	C 	0.54106 0.25488 0.82081 0.77700
H 	H 	0.55321 0.26516 0.74469 0.10700
C 	C 	0.66530 0.28767 0.69207 -0.11200
C 	C 	0.66862 0.28087 0.65218 0.07800
C 	C 	0.65969 0.31514 0.62782 -0.00600
C 	C 	0.64522 0.35589 0.64313 -0.06300
C 	C 	0.63914 0.36057 0.68270 0.03100
C 	C 	0.67275 0.24812 0.71752 0.78900
H 	H 	0.67824 0.24884 0.63984 0.07100
C 	C 	0.63500 0.39332 0.61732 0.77600
H 	H 	0.62579 0.38970 0.69454 0.11300
F 	F 	0.53660 0.20114 0.82470 -0.42400
F 	F 	0.48696 0.23735 0.79552 -0.42800
F 	F 	0.54218 0.28262 0.85684 -0.45200
F 	F 	0.75037 0.47132 0.73850 -0.42600
F 	F 	0.79177 0.41711 0.73915 -0.40800
F 	F 	0.81687 0.48837 0.79176 -0.42900
F 	F 	0.57775 0.35261 0.59100 -0.44400
F 	F 	0.68461 0.42476 0.59695 -0.44100
F 	F 	0.63278 0.43816 0.63915 -0.42100
F 	F 	0.68796 0.21252 0.69733 -0.43300
F 	F 	0.61598 0.20702 0.73002 -0.43100
F 	F 	0.72111 0.28677 0.74978 -0.41700
C 	C 	0.60639 0.24808 0.17799 0.03800
C 	C 	0.66103 0.26213 0.20169 0.08800
C 	C 	0.71126 0.27004 0.18425 -0.10400
C 	C 	0.71117 0.27586 0.14461 0.08100
C 	C 	0.65974 0.26932 0.12200 0.00500
C 	C 	0.60445 0.24960 0.13778 -0.06900
C 	C 	0.66736 0.27373 0.24486 0.09600
C 	C 	0.76523 0.27350 0.20797 0.78900
H 	H 	0.75227 0.28840 0.13178 0.08500
C 	C 	0.54421 0.23195 0.11210 0.77700
H 	H 	0.56674 0.23894 0.19129 0.10500
C 	C 	0.69161 0.33424 0.26588 -0.11200
C 	C 	0.69246 0.34222 0.30636 0.07600
C 	C 	0.66884 0.29115 0.32593 -0.00200
C 	C 	0.64448 0.23068 0.30500 -0.07000
C 	C 	0.64418 0.22270 0.26450 0.03000
C 	C 	0.71172 0.38899 0.24477 0.78900
H 	H 	0.71029 0.38805 0.32273 0.08300
C 	C 	0.61895 0.17481 0.32574 0.77600
H 	H 	0.62508 0.17659 0.24798 0.11700
F 	F 	0.55288 0.28604 0.10366 -0.44300
F 	F 	0.49187 0.20021 0.13036 -0.43300
F 	F 	0.53056 0.19263 0.07754 -0.45100
F 	F 	0.74016 0.22070 0.22510 -0.42900
F 	F 	0.80059 0.32717 0.23696 -0.40300
F 	F 	0.80613 0.27548 0.18479 -0.42800
F 	F 	0.59208 0.11892 0.29973 -0.42600
F 	F 	0.57222 0.16715 0.34546 -0.46000
F 	F 	0.66840 0.18536 0.35225 -0.43200
F 	F 	0.74081 0.44533 0.27083 -0.43000
F 	F 	0.65839 0.37662 0.22163 -0.43400
F 	F 	0.75487 0.39739 0.22144 -0.41000
C 	C 	0.72981 0.58436 0.46685 -0.05200
C 	C 	0.79557 0.63022 0.46881 0.03500
C 	C 	0.83657 0.61239 0.47040 -0.05200
C 	C 	0.81179 0.54896 0.46937 0.02500
C 	C 	0.74570 0.50274 0.46678 -0.06700
C 	C 	0.70497 0.52103 0.46591 0.02500
C 	C 	0.82144 0.69682 0.46879 0.01000
H 	H 	0.88751 0.64756 0.47204 0.06300
H 	H 	0.84391 0.53582 0.47046 0.05400
H 	H 	0.65390 0.48605 0.46380 0.05100
H 	H 	0.69786 0.59773 0.46585 0.06300
C 	C 	0.80498 0.71374 0.43548 -0.03100
C 	C 	0.83218 0.77731 0.43471 -0.03000
C 	C 	0.87599 0.82441 0.46724 0.00700
C 	C 	0.89041 0.80714 0.50110 -0.03100
C 	C 	0.86338 0.74366 0.50183 -0.03100
H 	H 	0.77227 0.67784 0.40992 0.05700
H 	H 	0.82085 0.79013 0.40841 0.05200
H 	H 	0.92403 0.84314 0.52641 0.05200
H 	H 	0.87572 0.73098 0.52785 0.05900
C 	C 	0.88256 0.10204 0.48618 -0.03100
C 	C 	0.84026 0.08849 0.45215 0.00900
C 	C 	0.82152 0.03912 0.42162 -0.03100
C 	C 	0.84580 0.00439 0.42485 -0.02700
C 	C 	0.88898 0.01873 0.45862 0.01200
C 	C 	0.90676 0.06732 0.48941 -0.03300
C 	C 	0.81423 0.12486 0.44905 0.03600
H 	H 	0.78862 0.02805 0.39532 0.06200
H 	H 	0.83202 0.96719 0.40084 0.04900
H 	H 	0.93993 0.07867 0.51563 0.05300
H 	H 	0.89664 0.13946 0.51012 0.05100
C 	C 	0.74863 0.09480 0.44760 -0.05200
C 	C 	0.72518 0.13046 0.44992 0.03100
C 	C 	0.76715 0.19659 0.45383 -0.06500
C 	C 	0.83216 0.22622 0.45284 0.02400
C 	C 	0.85563 0.19051 0.45057 -0.05300
H 	H 	0.71617 0.04411 0.44605 0.06400
H 	H 	0.67473 0.10690 0.44999 0.06000
H 	H 	0.86501 0.27714 0.45563 0.05200
H 	H 	0.90625 0.21407 0.45116 0.06300
C 	C 	0.18904 0.05794 0.49616 -0.03200
C 	C 	0.21752 0.09368 0.46732 0.00800
C 	C 	0.17985 0.09729 0.43794 -0.03100
C 	C 	0.11412 0.06430 0.43690 -0.03500
C 	C 	0.08560 0.02833 0.46565 0.01500
C 	C 	0.12357 0.02599 0.49557 -0.02900
C 	C 	0.28667 0.12693 0.46769 0.03200
H 	H 	0.20144 0.12537 0.41581 0.05200
H 	H 	0.08527 0.06622 0.41357 0.05100
H 	H 	0.10221 0.99894 0.51816 0.04700
H 	H 	0.21754 0.05458 0.51887 0.05500
C 	C 	0.33186 0.16834 0.50163 -0.05100
C 	C 	0.39727 0.20048 0.50175 0.02200
C 	C 	0.41809 0.19236 0.46775 -0.06700
C 	C 	0.37304 0.15074 0.43393 0.01900
C 	C 	0.30760 0.11766 0.43399 -0.05400
H 	H 	0.31635 0.17618 0.52773 0.06500
H 	H 	0.43178 0.23287 0.52793 0.07500
H 	H 	0.38875 0.14412 0.40757 0.04900
H 	H 	0.27317 0.08512 0.40782 0.06000
C 	C 	0.88066 0.66237 0.98577 -0.05500
C 	C 	0.85150 0.69138 0.99484 0.03200
C 	C 	0.79023 0.65565 0.00417 -0.05500
C 	C 	0.75826 0.59132 0.00451 0.02500
C 	C 	0.78729 0.56208 0.99540 -0.07400
C 	C 	0.84863 0.59791 0.98595 0.02400
C 	C 	0.88509 0.75914 0.99463 0.01000
H 	H 	0.76743 0.67778 0.01120 0.06100
H 	H 	0.71069 0.56407 0.01146 0.05100
H 	H 	0.87165 0.57597 0.97907 0.05000
H 	H 	0.92804 0.68975 0.97853 0.06400
C 	C 	0.93730 0.80440 0.02449 -0.03600
C 	C 	0.96880 0.86880 0.02453 -0.01800
C 	C 	0.94850 0.88839 0.99458 -0.00700
C 	C 	0.89598 0.84305 0.96484 -0.02400
C 	C 	0.86431 0.77865 0.96492 -0.03500
H 	H 	0.95331 0.78964 0.04767 0.05600
H 	H 	0.00916 0.90349 0.04769 0.04500
H 	H 	0.88021 0.85774 0.94148 0.04900
H 	H 	0.82390 0.74390 0.94181 0.05800
C 	C 	0.93921 0.15435 0.02479 -0.03500
C 	C 	0.88685 0.13161 0.99498 0.01000
C 	C 	0.86801 0.08255 0.96426 -0.03500
C 	C 	0.90104 0.05620 0.96343 -0.02400
C 	C 	0.95314 0.07859 0.99336 -0.00700
C 	C 	0.97222 0.12790 0.02400 -0.01700
C 	C 	0.85249 0.15992 0.99543 0.03500
H 	H 	0.82796 0.06508 0.94095 0.05400
H 	H 	0.88616 0.01835 0.93957 0.05000
H 	H 	0.01223 0.14532 0.04732 0.04500
H 	H 	0.95413 0.19228 0.04859 0.06000
C 	C 	0.78779 0.12321 0.99886 -0.05700
C 	C 	0.75344 0.14812 0.99547 0.02500
C 	C 	0.78351 0.20996 0.98848 -0.07900
C 	C 	0.84896 0.24746 0.98661 0.02300
C 	C 	0.88324 0.22251 0.99003 -0.05700
H 	H 	0.76382 0.07498 0.00336 0.06500
H 	H 	0.70306 0.11871 0.99711 0.05400
H 	H 	0.87305 0.29560 0.98192 0.04700
H 	H 	0.93329 0.25130 0.98757 0.06100
C 	C 	0.36930 0.14186 0.98843 -0.04400
C 	C 	0.34880 0.18010 0.98660 0.03800
C 	C 	0.39343 0.24484 0.98690 -0.04700
C 	C 	0.45828 0.27148 0.98962 0.03100
C 	C 	0.47925 0.23355 0.99211 -0.05000
C 	C 	0.43419 0.16839 0.99115 0.04000
C 	C 	0.28088 0.15265 0.98552 0.01300
H 	H 	0.37790 0.27461 0.98532 0.06400
H 	H 	0.49227 0.32176 0.99031 0.05700
H 	H 	0.44937 0.13837 0.99284 0.07700
H 	H 	0.33506 0.09176 0.98824 0.06900
C 	C 	0.23440 0.10740 0.95316 -0.03400
C 	C 	0.16956 0.07819 0.95332 -0.02400
C 	C 	0.15072 0.09387 0.98590 -0.00500
C 	C 	0.19735 0.14086 0.01761 -0.02300
C 	C 	0.26222 0.17015 0.01743 -0.03100
H 	H 	0.24848 0.09416 0.92821 0.06100
H 	H 	0.13386 0.04223 0.92859 0.05200
H 	H 	0.18323 0.15322 0.04289 0.05100
H 	H 	0.29786 0.20530 0.04245 0.06500
