data_crystal

_cell_length_a 23.51367
_cell_length_b 23.87583
_cell_length_c 31.75688
_cell_angle_alpha 95.49245
_cell_angle_beta  95.49186
_cell_angle_gamma 125.82734

_symmetry_space_group_name_	'P 1'
_symmetry_space_group_name_H-M	'P 1'

loop_
_symmetry_equiv_pos_as_xyz
  x,y,z

loop_
_atom_site_label
_atom_site_type_symbol
_atom_site_fract_x
_atom_site_fract_y
_atom_site_fract_z
_atom_site_charge
C 	C 	0.04742 0.99528 0.97649 -0.00500
C 	C 	0.03609 0.04489 0.99098 -0.05300
H 	H 	0.08022 0.10050 0.99771 0.04400
C 	C 	0.06293 0.04460 0.47730 -0.00600
H 	H 	0.02636 0.10516 0.46014 0.04300
H 	H 	0.08260 0.97062 0.49299 0.04200
C 	C 	0.23284 0.21356 0.49713 0.06800
C 	C 	0.29082 0.26568 0.48044 -0.08100
C 	C 	0.35990 0.29605 0.50268 0.00700
C 	C 	0.37084 0.26841 0.53657 0.07800
C 	C 	0.31260 0.21106 0.55027 -0.09100
C 	C 	0.24378 0.18776 0.53215 0.02500
N 	N 	0.16805 0.16439 0.47259 -0.16900
C 	C 	0.13826 0.10688 0.49095 0.07400
C 	C 	0.18284 0.11963 0.52844 -0.09000
N 	N 	0.43421 0.27943 0.53884 -0.15200
C 	C 	0.46366 0.31339 0.50653 -0.00000
C 	C 	0.41913 0.32469 0.48336 -0.04600
H 	H 	0.28251 0.27811 0.44957 0.04900
H 	H 	0.32034 0.18241 0.57167 0.05300
H 	H 	0.17960 0.07953 0.54384 0.05100
H 	H 	0.41883 0.33088 0.45000 0.04600
H 	H 	0.15306 0.16372 0.44036 0.08000
H 	H 	0.44668 0.24922 0.55304 0.09100
C 	C 	0.19491 0.00179 0.95150 0.06800
C 	C 	0.25428 0.00217 0.96298 -0.08000
C 	C 	0.31402 0.04421 0.94400 0.00800
C 	C 	0.31862 0.09214 0.91998 0.07700
C 	C 	0.26240 0.09787 0.91316 -0.09100
C 	C 	0.19884 0.04846 0.92665 0.02500
N 	N 	0.14505 0.98310 0.97609 -0.16300
C 	C 	0.11826 0.01881 0.96816 0.07400
C 	C 	0.15092 0.06035 0.93790 -0.09000
N 	N 	0.38741 0.14708 0.92275 -0.15300
H 	H 	0.25568 0.97455 0.98775 0.05300
H 	H 	0.26984 0.14208 0.90084 0.05300
H 	H 	0.13390 0.08713 0.92123 0.05200
H 	H 	0.14016 0.95940 0.00290 0.07100
H 	H 	0.40432 0.19695 0.91782 0.08700
C 	C 	0.38321 0.07167 0.96245 -0.04600
C 	C 	0.04260 0.97735 0.48101 -0.04800
H 	H 	0.02170 0.16160 0.97656 0.04800
H 	H 	0.39748 0.06004 0.99209 0.05300
C 	C 	0.01104 0.05293 0.46156 -0.04700
C 	C 	0.52121 0.31572 0.48988 0.26300
C 	C 	0.42694 0.13500 0.94852 -0.00100
O 	O 	0.53674 0.17733 0.99577 -0.35000
C 	C 	0.50040 0.19180 0.97097 0.25400
O 	O 	0.52977 0.25691 0.96607 -0.38600
O 	O 	0.54424 0.28245 0.50672 -0.37800
O 	O 	0.53926 0.34002 0.45392 -0.38700
H 	H 	0.57832 0.26632 0.63619 0.03500
H 	H 	0.57701 0.26919 0.71393 0.04600
H 	H 	0.56584 0.30945 0.22401 0.04400
H 	H 	0.57922 0.32393 0.30311 0.02400
H 	H 	0.60507 0.20400 0.92635 0.17500
H 	H 	0.59007 0.24826 0.43108 0.16500
Cu	Cu	0.62764 0.36921 0.43150 0.89300
C 	C 	0.62689 0.29120 0.70268 -0.05800
Cu	Cu	0.64531 0.24129 0.00843 0.92300
Cu	Cu	0.60081 0.34262 0.02017 0.88800
O 	O 	0.64804 0.24412 0.94673 -0.63900
O 	O 	0.58849 0.29769 0.07180 -0.39100
Cu	Cu	0.63918 0.30856 0.50825 0.89600
O 	O 	0.63022 0.29610 0.44664 -0.63700
O 	O 	0.67020 0.37894 0.37871 -0.38600
O 	O 	0.64143 0.30215 0.56981 -0.39000
C 	C 	0.62772 0.28979 0.65861 0.00900
C 	C 	0.60791 0.31088 0.24265 -0.05800
C 	C 	0.61563 0.31927 0.28748 0.00900
C 	C 	0.63320 0.28799 0.09148 0.30500
O 	O 	0.65532 0.25645 0.06985 -0.36600
C 	C 	0.68108 0.33525 0.35955 0.28800
C 	C 	0.68767 0.31374 0.77660 0.03600
C 	C 	0.65472 0.30502 0.22201 0.01300
C 	C 	0.64182 0.29392 0.13739 -0.10300
C 	C 	0.64811 0.29887 0.17596 0.03700
C 	C 	0.67044 0.32202 0.31208 -0.08300
O 	O 	0.70161 0.26117 0.87246 -0.42100
C 	C 	0.68985 0.31899 0.73190 0.01200
C 	C 	0.68666 0.30868 0.81397 -0.10500
Cu	Cu	0.66496 0.33570 0.94449 0.89800
C 	C 	0.68670 0.30221 0.85842 0.30100
O 	O 	0.67781 0.34385 0.00618 -0.64400
O 	O 	0.71222 0.21666 0.01994 -0.36600
C 	C 	0.65309 0.44903 0.96339 0.26700
O 	O 	0.63071 0.43102 0.99985 -0.38200
O 	O 	0.66123 0.32843 0.88207 -0.38300
C 	C 	0.69105 0.30648 0.59677 0.28800
O 	O 	0.71692 0.44344 0.48355 -0.38800
C 	C 	0.69164 0.31589 0.64347 -0.08700
H 	H 	0.91164 0.57637 0.45132 0.05000
H 	H 	0.67832 0.07709 0.46655 0.07500
C 	C 	0.64318 0.54897 0.97217 -0.02400
H 	H 	0.63939 0.54946 0.00592 0.03300
Cu	Cu	0.73746 0.27056 0.93143 0.86700
O 	O 	0.68109 0.18912 0.47145 -0.43300
O 	O 	0.71552 0.31607 0.38164 -0.36400
C 	C 	0.70864 0.30639 0.24630 -0.05700
C 	C 	0.65333 0.50517 0.94760 -0.00600
C 	C 	0.71649 0.31476 0.29118 0.01300
O 	O 	0.68692 0.42745 0.94527 -0.37800
H 	H 	0.72579 0.38429 0.02198 0.16300
Cu	Cu	0.73465 0.33034 0.44323 0.92700
Cu	Cu	0.72045 0.25163 0.52519 0.86900
O 	O 	0.73536 0.33259 0.50560 -0.64300
C 	C 	0.78240 0.47354 0.47691 0.25400
C 	C 	0.72092 0.20150 0.44224 0.26100
O 	O 	0.73539 0.29554 0.58273 -0.42100
C 	C 	0.75418 0.34771 0.71711 -0.05900
N 	N 	0.69956 0.08654 0.43836 -0.15200
H 	H 	0.71512 0.99175 0.46971 0.05000
C 	C 	0.67019 0.60711 0.95285 -0.00600
N 	N 	0.68505 0.53401 0.91444 -0.15200
H 	H 	0.69154 0.68348 0.00705 0.03600
C 	C 	0.75517 0.34630 0.67309 0.00900
H 	H 	0.76504 0.16058 0.06286 0.05100
C 	C 	0.90162 0.59070 0.48164 -0.04600
H 	H 	0.99497 0.71619 0.45421 0.05100
C 	C 	0.73383 0.06102 0.42436 0.07400
C 	C 	0.72366 0.14522 0.42175 -0.00800
C 	C 	0.70195 0.67518 0.97542 -0.05800
C 	C 	0.69578 0.59627 0.91754 0.08400
C 	C 	0.77811 0.25836 0.01352 0.25000
O 	O 	0.79735 0.43728 0.45282 -0.35600
O 	O 	0.76066 0.26480 0.43293 -0.36800
H 	H 	0.77475 0.37783 0.52440 0.17200
H 	H 	0.75917 0.31699 0.30967 0.04100
H 	H 	0.74490 0.30169 0.23051 0.04700
C 	C 	0.74994 0.02415 0.44875 -0.09100
H 	H 	0.71470 0.52183 0.89879 0.09300
O 	O 	0.79398 0.30269 0.98730 -0.42100
C 	C 	0.83941 0.54717 0.49751 -0.00400
H 	H 	0.80317 0.36978 0.73960 0.04200
C 	C 	0.77300 0.15687 0.39605 -0.04400
C 	C 	0.75300 0.73221 0.95784 0.06200
C 	C 	0.75232 0.65360 0.90279 -0.09400
C 	C 	0.81763 0.19968 0.05647 -0.04100
H 	H 	0.80505 0.36774 0.66197 0.03100
C 	C 	0.77932 0.10296 0.39761 0.00900
H 	H 	0.82079 0.08761 0.07249 0.04800
C 	C 	0.96871 0.71734 0.48016 -0.08100
C 	C 	0.77665 0.72136 0.92150 0.03100
C 	C 	0.92889 0.65876 0.49991 0.00800
C 	C 	0.83273 0.25116 0.03251 -0.00700
H 	H 	0.77982 0.64598 0.88006 0.05500
H 	H 	0.81608 0.96018 0.48183 0.05000
C 	C 	0.81481 0.03469 0.44739 0.02100
N 	N 	0.80398 0.79613 0.98190 -0.16100
H 	H 	0.80658 0.81133 0.01444 0.07100
H 	H 	0.81461 0.20806 0.38978 0.05100
H 	H 	0.00672 0.82895 0.44066 0.07900
C 	C 	0.82935 0.98788 0.45509 -0.08700
C 	C 	0.85522 0.12289 0.05244 -0.07200
C 	C 	0.86845 0.18840 0.05263 -0.00200
N 	N 	0.82759 0.58568 0.52407 -0.15300
H 	H 	0.85742 0.93333 0.99052 0.05000
H 	H 	0.86287 0.88236 0.44564 0.04000
C 	C 	0.84249 0.11014 0.39478 -0.08300
C 	C 	0.85894 0.07506 0.42033 0.07000
C 	C 	0.84532 0.78145 0.92390 -0.09100
C 	C 	0.88581 0.10344 0.02440 0.04700
N 	N 	0.89094 0.27215 0.01497 -0.16200
C 	C 	0.86069 0.82550 0.96197 0.07500
H 	H 	0.88647 0.02897 0.05582 0.07800
C 	C 	0.88176 0.65363 0.52558 0.07700
H 	H 	0.77742 0.56809 0.53056 0.08500
H 	H 	0.90146 0.29477 0.98742 0.08100
N 	N 	0.90095 0.05847 0.03131 -0.16300
C 	C 	0.91240 0.23356 0.02649 0.08700
C 	C 	0.96891 0.77543 0.49291 0.06900
N 	N 	0.98501 0.82417 0.46850 -0.16700
C 	C 	0.88473 0.00421 0.43342 0.07100
H 	H 	0.87806 0.14294 0.37425 0.05100
H 	H 	0.88467 0.78487 0.90681 0.05300
C 	C 	0.91075 0.95054 0.98765 -0.04700
C 	C 	0.92899 0.14795 0.99831 0.05600
N 	N 	0.90017 0.05559 0.41099 -0.16900
C 	C 	0.92173 0.90084 0.97317 -0.00500
C 	C 	0.91865 0.92747 0.45412 -0.04900
C 	C 	0.94592 0.21504 0.00016 -0.13100
C 	C 	0.87485 0.70813 0.53340 -0.09100
C 	C 	0.95453 0.07440 0.01017 0.04800
C 	C 	0.93905 0.99444 0.44927 -0.00200
C 	C 	0.96769 0.02256 0.99667 0.01300
C 	C 	0.92335 0.77100 0.51954 0.02500
C 	C 	0.94868 0.84977 0.47839 0.07200
C 	C 	0.97275 0.12945 0.98879 -0.07900
H 	H 	0.83089 0.70028 0.54727 0.05300
H 	H 	0.94445 0.08363 0.39616 0.08100
H 	H 	0.98034 0.24993 0.97995 0.06600
C 	C 	0.97038 0.91891 0.47021 -0.00200
C 	C 	0.91070 0.81875 0.51050 -0.08800
H 	H 	0.86695 0.81881 0.51845 0.05100
C 	C 	0.99028 0.92324 0.96807 -0.04100
H 	H 	0.99893 0.88489 0.95691 0.04300
