data_crystal

_cell_length_a 26.16440
_cell_length_b 26.28784
_cell_length_c 34.92227
_cell_angle_alpha 95.53494
_cell_angle_beta  95.53659
_cell_angle_gamma 125.69248

_symmetry_space_group_name_	'P 1'
_symmetry_space_group_name_H-M	'P 1'

loop_
_symmetry_equiv_pos_as_xyz
  x,y,z

loop_
_atom_site_label
_atom_site_type_symbol
_atom_site_fract_x
_atom_site_fract_y
_atom_site_fract_z
_atom_site_charge
C 	C 	0.96021 0.01458 0.99516 0.11100
N 	N 	0.02378 0.04646 0.99454 -0.13100
C 	C 	0.04887 0.01373 0.99011 0.11900
N 	N 	0.01038 0.94928 0.98601 -0.12900
C 	C 	0.94703 0.91735 0.98650 0.11600
N 	N 	0.92201 0.95000 0.99114 -0.13200
C 	C 	0.94901 0.01954 0.45794 0.11400
N 	N 	0.91644 0.95705 0.46114 -0.13300
C 	C 	0.94872 0.93166 0.46731 0.11600
N 	N 	0.01327 0.96876 0.47003 -0.13000
C 	C 	0.04588 0.03104 0.46711 0.12100
N 	N 	0.01372 0.05634 0.46111 -0.13200
Cu	Cu	0.63058 0.22492 0.00080 0.93100
Cu	Cu	0.68280 0.22885 0.91883 0.88700
Cu	Cu	0.66332 0.32416 0.94965 0.90500
Cu	Cu	0.62873 0.34143 0.02623 0.90400
C 	C 	0.64684 0.27179 0.08233 0.39900
O 	O 	0.53657 0.18563 0.99967 -0.34100
C 	C 	0.65115 0.28463 0.86450 0.39100
O 	O 	0.68086 0.32385 0.00410 -0.64100
O 	O 	0.62186 0.23091 0.94482 -0.63700
O 	O 	0.67215 0.18112 0.99908 -0.35000
O 	O 	0.74290 0.24824 0.96340 -0.41800
O 	O 	0.61753 0.29686 0.07147 -0.35800
O 	O 	0.70933 0.41553 0.95776 -0.36400
C 	C 	0.70112 0.44977 0.98311 0.29700
C 	C 	0.51070 0.21207 0.98557 0.28100
O 	O 	0.54797 0.27113 0.98022 -0.37700
O 	O 	0.66351 0.42446 0.00904 -0.37900
O 	O 	0.65224 0.23577 0.05649 -0.34200
C 	C 	0.72690 0.20736 0.98698 0.28900
O 	O 	0.65682 0.32577 0.89298 -0.35200
O 	O 	0.64379 0.23247 0.87125 -0.38300
H 	H 	0.72683 0.35233 0.01647 0.18600
H 	H 	0.57754 0.20347 0.92952 0.18800
Cu	Cu	0.74769 0.35758 0.45405 0.93200
Cu	Cu	0.74480 0.31144 0.53815 0.88400
Cu	Cu	0.64298 0.31906 0.50209 0.90400
Cu	Cu	0.62379 0.34583 0.42301 0.90400
C 	C 	0.70324 0.33589 0.37137 0.40100
O 	O 	0.77942 0.44909 0.45310 -0.33700
C 	C 	0.68220 0.34005 0.58853 0.39300
O 	O 	0.64733 0.30067 0.44852 -0.63800
O 	O 	0.73792 0.36678 0.50918 -0.63900
O 	O 	0.79646 0.32102 0.45943 -0.35100
O 	O 	0.72947 0.25102 0.49553 -0.42200
O 	O 	0.67343 0.36107 0.37996 -0.35900
O 	O 	0.55048 0.26718 0.49217 -0.35700
C 	C 	0.51383 0.26976 0.46480 0.29100
C 	C 	0.74724 0.46993 0.46489 0.28300
O 	O 	0.68759 0.42892 0.46878 -0.38400
O 	O 	0.53693 0.30299 0.43668 -0.37600
O 	O 	0.74089 0.33500 0.39891 -0.34000
C 	C 	0.77168 0.26753 0.47271 0.28800
O 	O 	0.63832 0.32595 0.55839 -0.35200
O 	O 	0.73665 0.35043 0.58361 -0.38600
H 	H 	0.62220 0.25468 0.43718 0.18800
H 	H 	0.76222 0.41119 0.52363 0.18900
C 	C 	0.61896 0.33075 0.77064 0.22600
C 	C 	0.65408 0.32054 0.74728 -0.00600
C 	C 	0.68772 0.29823 0.76236 0.22300
C 	C 	0.68666 0.28651 0.80057 0.30500
C 	C 	0.65148 0.29655 0.82406 -0.21600
C 	C 	0.61757 0.31873 0.80890 0.30800
C 	C 	0.65518 0.33236 0.70681 -0.00500
F 	F 	0.72156 0.28797 0.73989 -0.36400
F 	F 	0.58242 0.32756 0.83095 -0.39000
C 	C 	0.71009 0.38670 0.69808 0.22400
C 	C 	0.71705 0.39154 0.65909 0.30900
C 	C 	0.66905 0.34207 0.62852 -0.21700
C 	C 	0.61183 0.29026 0.63722 0.30500
C 	C 	0.60504 0.28537 0.67625 0.22300
F 	F 	0.75792 0.43345 0.72746 -0.35900
F 	F 	0.56451 0.24266 0.60797 -0.39600
F 	F 	0.77124 0.44338 0.65101 -0.39100
F 	F 	0.55115 0.23330 0.68441 -0.35800
F 	F 	0.58611 0.35213 0.75623 -0.35500
F 	F 	0.72089 0.26660 0.81508 -0.40700
C 	C 	0.68065 0.25030 0.27104 0.22600
C 	C 	0.69902 0.29843 0.24899 -0.00500
C 	C 	0.72542 0.36052 0.26806 0.22200
C 	C 	0.72996 0.37356 0.30851 0.31100
C 	C 	0.70796 0.32456 0.33024 -0.21700
C 	C 	0.68524 0.26339 0.31158 0.30600
C 	C 	0.68390 0.28246 0.20579 -0.00500
F 	F 	0.74427 0.40761 0.24710 -0.36000
F 	F 	0.66508 0.21600 0.33245 -0.39700
C 	C 	0.62131 0.25406 0.18603 0.22100
C 	C 	0.60861 0.24790 0.14538 0.31000
C 	C 	0.65847 0.27033 0.12413 -0.21700
C 	C 	0.72034 0.29543 0.14357 0.30600
C 	C 	0.73306 0.30161 0.18431 0.22600
F 	F 	0.57327 0.23457 0.20647 -0.36100
F 	F 	0.76862 0.31612 0.12320 -0.39700
F 	F 	0.54801 0.22103 0.12666 -0.39200
F 	F 	0.79351 0.32805 0.20308 -0.35600
F 	F 	0.65630 0.19042 0.25296 -0.35700
F 	F 	0.75444 0.43353 0.32653 -0.38800
C 	C 	0.91411 0.86388 0.47084 0.00100
C 	C 	0.85288 0.81737 0.44829 -0.02700
C 	C 	0.82361 0.75253 0.44769 -0.02700
C 	C 	0.85459 0.73311 0.47079 -0.00400
C 	C 	0.91749 0.78015 0.49224 0.03600
C 	C 	0.94553 0.84505 0.49350 -0.04900
C 	C 	0.95310 0.76190 0.51046 -0.04900
C 	C 	0.92785 0.69766 0.50662 -0.02400
C 	C 	0.86485 0.65021 0.48688 0.01300
C 	C 	0.82627 0.66748 0.47085 0.02000
C 	C 	0.76010 0.61927 0.45723 -0.04600
C 	C 	0.73487 0.55514 0.45511 0.01500
C 	C 	0.77439 0.53790 0.46786 -0.05900
C 	C 	0.83918 0.58548 0.48411 -0.00700
H 	H 	0.82905 0.83123 0.42974 0.05300
H 	H 	0.77921 0.71801 0.42728 0.04900
H 	H 	0.99293 0.88091 0.51096 0.05600
H 	H 	0.00143 0.79778 0.52662 0.06100
H 	H 	0.95708 0.68472 0.51970 0.05100
H 	H 	0.72746 0.63103 0.45022 0.05300
H 	H 	0.68426 0.51872 0.44372 0.04100
H 	H 	0.86919 0.57224 0.49535 0.05200
C 	C 	0.91467 0.04799 0.45172 0.00100
C 	C 	0.93884 0.09869 0.43128 -0.02600
C 	C 	0.91224 0.13180 0.42987 -0.02900
C 	C 	0.86218 0.11604 0.45018 -0.00300
C 	C 	0.83279 0.06006 0.46654 0.03300
C 	C 	0.86013 0.02727 0.46809 -0.05100
C 	C 	0.77622 0.03716 0.48085 -0.04500
C 	C 	0.74945 0.07002 0.48001 -0.02800
C 	C 	0.78106 0.12868 0.46739 0.01300
C 	C 	0.83901 0.15345 0.45353 0.01700
C 	C 	0.87481 0.21666 0.44655 -0.04500
C 	C 	0.85133 0.25257 0.45097 0.01200
C 	C 	0.79286 0.22708 0.46347 -0.06200
C 	C 	0.75715 0.16450 0.47066 -0.01200
H 	H 	0.97831 0.11243 0.41635 0.05000
H 	H 	0.92874 0.16739 0.41156 0.05000
H 	H 	0.83980 0.98666 0.48268 0.06000
H 	H 	0.75251 0.99338 0.49235 0.05500
H 	H 	0.70513 0.05096 0.49066 0.05000
H 	H 	0.92245 0.23975 0.44023 0.05400
H 	H 	0.88006 0.30125 0.44621 0.05500
H 	H 	0.71184 0.14450 0.48023 0.05400
C 	C 	0.44491 0.23466 0.46570 -0.05700
C 	C 	0.41345 0.18025 0.48282 0.01400
C 	C 	0.34835 0.14699 0.48395 -0.04200
C 	C 	0.31398 0.16922 0.46920 0.01700
C 	C 	0.34463 0.22126 0.44930 0.01400
C 	C 	0.41024 0.25475 0.44869 -0.01200
C 	C 	0.30895 0.23783 0.42905 -0.03000
C 	C 	0.24306 0.20256 0.42765 -0.04100
C 	C 	0.21236 0.15273 0.44858 0.03100
C 	C 	0.24836 0.13818 0.47149 0.00000
C 	C 	0.21874 0.09539 0.49733 -0.03000
C 	C 	0.15291 0.06116 0.49610 -0.02300
C 	C 	0.11604 0.07093 0.47043 -0.00200
C 	C 	0.14613 0.11795 0.44747 -0.04600
H 	H 	0.43906 0.16262 0.49440 0.06200
H 	H 	0.32439 0.10232 0.49424 0.05800
H 	H 	0.43415 0.29610 0.43476 0.05300
H 	H 	0.33207 0.27717 0.41344 0.05000
H 	H 	0.21595 0.21474 0.41073 0.05200
H 	H 	0.24663 0.09069 0.51963 0.05400
H 	H 	0.13064 0.02756 0.51558 0.05300
H 	H 	0.11800 0.12696 0.42848 0.05600
C 	C 	0.73229 0.51760 0.98116 -0.05500
C 	C 	0.75581 0.54091 0.94754 0.01100
C 	C 	0.78680 0.60528 0.94598 -0.04400
C 	C 	0.79714 0.64814 0.97884 0.01900
C 	C 	0.76779 0.62343 0.01108 0.01100
C 	C 	0.73730 0.55881 0.01260 -0.01700
C 	C 	0.76796 0.66316 0.04100 -0.03100
C 	C 	0.79758 0.72725 0.03948 -0.04200
C 	C 	0.83138 0.75381 0.00948 0.02800
C 	C 	0.83381 0.71496 0.97972 0.00200
C 	C 	0.87642 0.74438 0.95363 -0.02800
C 	C 	0.91126 0.80997 0.95503 -0.02500
C 	C 	0.90606 0.84771 0.98315 0.00400
C 	C 	0.86574 0.81954 0.01012 -0.05200
H 	H 	0.74888 0.50888 0.92218 0.06700
H 	H 	0.79942 0.62062 0.91857 0.06100
H 	H 	0.71747 0.54068 0.03817 0.05500
H 	H 	0.74420 0.64410 0.06525 0.05100
H 	H 	0.79602 0.75687 0.06247 0.05100
H 	H 	0.88580 0.71769 0.93391 0.05100
H 	H 	0.94364 0.83178 0.93478 0.05400
H 	H 	0.86328 0.84916 0.03261 0.05500
C 	C 	0.76787 0.18708 0.99703 -0.05600
C 	C 	0.83183 0.22426 0.99187 0.00800
C 	C 	0.86824 0.20134 0.99599 -0.04000
C 	C 	0.84022 0.13947 0.00388 0.01200
C 	C 	0.77874 0.10573 0.01406 0.01600
C 	C 	0.74236 0.12903 0.00977 -0.01700
C 	C 	0.75443 0.04934 0.02853 -0.02900
C 	C 	0.78959 0.02509 0.03187 -0.04500
C 	C 	0.84767 0.05439 0.01834 0.03600
C 	C 	0.87265 0.11089 0.00298 -0.00800
C 	C 	0.92585 0.13413 0.98421 -0.02200
C 	C 	0.95582 0.10422 0.98319 -0.03000
C 	C 	0.93241 0.04969 0.99972 0.00800
C 	C 	0.87910 0.02567 0.01794 -0.05800
H 	H 	0.85350 0.27113 0.98471 0.05200
H 	H 	0.91859 0.23286 0.99474 0.05400
H 	H 	0.69396 0.10143 0.01555 0.06100
H 	H 	0.70827 0.02436 0.03749 0.05300
H 	H 	0.77034 0.98188 0.04363 0.05500
H 	H 	0.94164 0.17248 0.96821 0.04600
H 	H 	0.99572 0.12199 0.96802 0.05300
H 	H 	0.86085 0.98345 0.03071 0.05900
C 	C 	0.44110 0.17990 0.98245 -0.05300
C 	C 	0.41235 0.20443 0.96354 0.00500
C 	C 	0.34902 0.18028 0.96525 -0.04300
C 	C 	0.31174 0.12827 0.98416 0.01800
C 	C 	0.34142 0.10468 0.00411 0.01600
C 	C 	0.40507 0.12926 0.00211 -0.01600
C 	C 	0.30840 0.05908 0.02745 -0.02800
C 	C 	0.24683 0.03739 0.03188 -0.03800
C 	C 	0.21541 0.05783 0.01116 0.02900
C 	C 	0.24643 0.10139 0.98571 0.00300
C 	C 	0.21051 0.11424 0.96113 -0.02900
C 	C 	0.14736 0.08888 0.96453 -0.02500
C 	C 	0.11785 0.04781 0.99082 0.00400
C 	C 	0.15210 0.03288 0.01432 -0.05100
H 	H 	0.43991 0.24408 0.94871 0.05500
H 	H 	0.33098 0.20493 0.95405 0.05400
H 	H 	0.42734 0.11081 0.01732 0.06900
H 	H 	0.33120 0.04148 0.04307 0.06100
H 	H 	0.22285 0.00338 0.05091 0.05600
H 	H 	0.22929 0.13995 0.93769 0.04900
H 	H 	0.12030 0.09863 0.94522 0.05200
H 	H 	0.12873 0.00017 0.03419 0.05800
