data_crystal

_cell_length_a 26.13052
_cell_length_b 26.41884
_cell_length_c 30.77225
_cell_angle_alpha 95.43556
_cell_angle_beta  95.43485
_cell_angle_gamma 125.92216

_symmetry_space_group_name_	'P 1'
_symmetry_space_group_name_H-M	'P 1'

loop_
_symmetry_equiv_pos_as_xyz
  x,y,z

loop_
_atom_site_label
_atom_site_type_symbol
_atom_site_fract_x
_atom_site_fract_y
_atom_site_fract_z
_atom_site_charge
C 	C 	0.99617 0.06403 0.00345 0.15600
N 	N 	0.06019 0.09598 0.00389 -0.12300
C 	C 	0.08647 0.06431 0.00402 0.16000
N 	N 	0.04886 0.00098 0.00418 -0.12900
C 	C 	0.98526 0.96929 0.00447 0.16200
N 	N 	0.95917 0.00102 0.00504 -0.12500
C 	C 	0.91243 0.96625 0.44320 0.16300
N 	N 	0.97316 0.99473 0.43540 -0.12900
C 	C 	0.00066 0.96438 0.43770 0.16400
N 	N 	0.96703 0.90500 0.44724 -0.12600
C 	C 	0.90675 0.87655 0.45580 0.15900
N 	N 	0.87964 0.90747 0.45425 -0.12600
Cu	Cu	0.67011 0.27619 0.00562 0.93200
Cu	Cu	0.71239 0.27763 0.90912 0.87800
Cu	Cu	0.69973 0.37533 0.94776 0.90200
Cu	Cu	0.67737 0.39770 0.04109 0.91200
C 	C 	0.67754 0.31215 0.09752 0.28300
O 	O 	0.57677 0.23497 0.00891 -0.35800
C 	C 	0.67202 0.32948 0.85028 0.28500
O 	O 	0.72129 0.37528 0.00904 -0.63400
O 	O 	0.65576 0.28193 0.94260 -0.63900
O 	O 	0.71283 0.23415 0.00030 -0.34900
O 	O 	0.77802 0.30109 0.95715 -0.42600
O 	O 	0.69018 0.36819 0.09570 -0.35200
O 	O 	0.74824 0.46677 0.95681 -0.36000
C 	C 	0.74527 0.50104 0.98912 0.31300
C 	C 	0.55204 0.26573 0.00426 0.30900
O 	O 	0.58756 0.32386 0.99667 -0.37200
O 	O 	0.70251 0.47390 0.01514 -0.36800
O 	O 	0.69378 0.28649 0.06831 -0.33600
C 	C 	0.76649 0.26202 0.98465 0.30900
O 	O 	0.69217 0.37669 0.88337 -0.37100
O 	O 	0.66691 0.27838 0.85732 -0.40400
H 	H 	0.76819 0.40169 0.02046 0.18600
H 	H 	0.61014 0.25549 0.92754 0.18200
Cu	Cu	0.71202 0.30709 0.44353 0.93000
Cu	Cu	0.70148 0.25562 0.53777 0.89100
Cu	Cu	0.60149 0.26415 0.49394 0.90300
Cu	Cu	0.59212 0.30128 0.40616 0.90200
C 	C 	0.67384 0.29167 0.34943 0.28500
O 	O 	0.74734 0.39948 0.44479 -0.35100
C 	C 	0.63659 0.28463 0.59203 0.28800
O 	O 	0.61111 0.25212 0.43373 -0.63900
O 	O 	0.69714 0.31226 0.50520 -0.63700
O 	O 	0.76081 0.27062 0.45025 -0.35500
O 	O 	0.69055 0.19872 0.48902 -0.41300
O 	O 	0.64458 0.31748 0.35883 -0.36900
O 	O 	0.50872 0.21286 0.47886 -0.36500
C 	C 	0.47567 0.21753 0.44636 0.31400
C 	C 	0.71660 0.42158 0.45866 0.30100
O 	O 	0.65521 0.38179 0.46011 -0.36300
O 	O 	0.50411 0.25986 0.42031 -0.36600
O 	O 	0.70948 0.28878 0.38115 -0.35200
C 	C 	0.73699 0.21819 0.46641 0.30900
O 	O 	0.59083 0.26170 0.55675 -0.36300
O 	O 	0.69087 0.29303 0.58871 -0.39400
H 	H 	0.58581 0.20705 0.41883 0.17300
H 	H 	0.72052 0.35587 0.52249 0.19000
C 	C 	0.66372 0.33794 0.80420 -0.06400
C 	C 	0.71129 0.39470 0.79125 0.01000
C 	C 	0.71132 0.39834 0.74623 -0.04900
C 	C 	0.66356 0.34531 0.71370 0.02300
C 	C 	0.61258 0.28992 0.72664 0.02100
C 	C 	0.61289 0.28652 0.77194 -0.01400
C 	C 	0.56415 0.23734 0.69406 -0.04700
C 	C 	0.56909 0.23781 0.64921 0.01100
C 	C 	0.62260 0.29065 0.63658 -0.05800
C 	C 	0.66819 0.34544 0.66861 -0.01300
H 	H 	0.75013 0.43494 0.81598 0.05000
H 	H 	0.74978 0.44161 0.73668 0.06000
H 	H 	0.57530 0.24316 0.78199 0.05100
H 	H 	0.52396 0.19519 0.70352 0.05800
H 	H 	0.53319 0.19569 0.62457 0.05100
H 	H 	0.70885 0.38678 0.65870 0.05600
C 	C 	0.66251 0.28782 0.13895 -0.04700
C 	C 	0.60053 0.25929 0.14810 0.00900
C 	C 	0.58841 0.24697 0.19056 -0.04200
C 	C 	0.63851 0.26389 0.22448 0.02200
C 	C 	0.70022 0.28932 0.21477 0.02700
C 	C 	0.71176 0.30057 0.17177 -0.01100
C 	C 	0.75040 0.30668 0.24883 -0.04700
C 	C 	0.74065 0.30323 0.29272 0.01500
C 	C 	0.68050 0.28198 0.30292 -0.06000
C 	C 	0.62877 0.25945 0.26845 -0.01400
H 	H 	0.56216 0.24855 0.12265 0.05500
H 	H 	0.54063 0.22641 0.19745 0.06100
H 	H 	0.75956 0.32215 0.16448 0.06700
H 	H 	0.79759 0.32508 0.24163 0.06500
H 	H 	0.78068 0.31990 0.31899 0.05700
H 	H 	0.58189 0.24155 0.27617 0.04500
C 	C 	0.87056 0.81169 0.46571 -0.02900
C 	C 	0.89839 0.79694 0.49888 0.12400
C 	C 	0.87137 0.73334 0.50077 -0.06600
C 	C 	0.81574 0.68411 0.47058 0.01500
C 	C 	0.78422 0.69883 0.44049 0.10300
C 	C 	0.81201 0.76248 0.43792 -0.03600
H 	H 	0.89439 0.72220 0.52513 0.08500
C 	C 	0.79320 0.61772 0.46882 0.02900
H 	H 	0.78943 0.77351 0.41312 0.09200
C 	C 	0.75910 0.58371 0.50086 -0.08300
C 	C 	0.73727 0.52074 0.49956 0.14900
C 	C 	0.74779 0.49058 0.46501 -0.09400
C 	C 	0.78422 0.52558 0.43409 -0.01000
C 	C 	0.80751 0.58901 0.43615 0.08600
H 	H 	0.75003 0.60639 0.52701 0.09000
H 	H 	0.79334 0.50309 0.40782 0.07400
Br	Br	0.70401 0.63268 0.40210 -0.18000
Br	Br	0.97219 0.86295 0.54261 -0.19500
Br	Br	0.69754 0.47856 0.54704 -0.22300
Br	Br	0.85916 0.63584 0.39424 -0.18200
C 	C 	0.76558 0.18389 0.46211 -0.10200
C 	C 	0.77932 0.16287 0.49892 0.15400
C 	C 	0.80011 0.12492 0.49317 -0.08200
C 	C 	0.81188 0.11120 0.45180 0.02800
C 	C 	0.80091 0.13444 0.41543 0.08200
C 	C 	0.77719 0.17002 0.42062 -0.00500
H 	H 	0.80955 0.10806 0.52140 0.09200
C 	C 	0.83850 0.07494 0.44752 0.02000
H 	H 	0.76751 0.18659 0.39231 0.07000
C 	C 	0.79846 0.01082 0.42635 -0.07400
C 	C 	0.82212 0.97497 0.42397 0.13300
C 	C 	0.88570 0.00254 0.44500 -0.03900
C 	C 	0.92552 0.06670 0.46624 -0.03300
C 	C 	0.90268 0.10314 0.46683 0.09500
H 	H 	0.74917 0.98907 0.41115 0.09300
H 	H 	0.97459 0.08850 0.48205 0.08000
Br	Br	0.81955 0.11949 0.35880 -0.18700
Br	Br	0.77652 0.19065 0.55809 -0.27800
Br	Br	0.76843 0.89053 0.38896 -0.18600
Br	Br	0.96051 0.19193 0.49308 -0.18800
C 	C 	0.40563 0.18014 0.44263 -0.09400
C 	C 	0.37714 0.20966 0.45494 0.15200
C 	C 	0.31040 0.17308 0.45175 -0.08300
C 	C 	0.27175 0.10707 0.43687 0.03100
C 	C 	0.30015 0.07765 0.42413 0.08300
C 	C 	0.36690 0.11423 0.42724 -0.00800
H 	H 	0.28866 0.19580 0.46169 0.09200
C 	C 	0.20203 0.06882 0.43667 0.01300
H 	H 	0.38867 0.09139 0.41771 0.06100
C 	C 	0.16005 0.05779 0.39876 -0.06300
C 	C 	0.09393 0.02285 0.39843 0.12000
C 	C 	0.06953 0.99917 0.43654 -0.02500
C 	C 	0.11153 0.00974 0.47426 -0.04400
C 	C 	0.17751 0.04448 0.47453 0.10400
H 	H 	0.17878 0.07617 0.36948 0.08700
H 	H 	0.09295 0.99159 0.50364 0.09300
Br	Br	0.24858 0.98752 0.40291 -0.18100
Br	Br	0.42877 0.29934 0.47809 -0.19500
Br	Br	0.03760 0.00592 0.34514 -0.17900
Br	Br	0.23351 0.05848 0.52698 -0.18500
C 	C 	0.94406 0.90016 0.00083 -0.03000
C 	C 	0.92473 0.86018 0.95959 0.12400
C 	C 	0.89063 0.79464 0.95730 -0.06500
C 	C 	0.87533 0.76856 0.99584 0.01500
C 	C 	0.89331 0.80839 0.03694 0.10100
C 	C 	0.92744 0.87397 0.03922 -0.03700
H 	H 	0.87631 0.76396 0.92558 0.08700
C 	C 	0.84173 0.69979 0.99306 0.03000
H 	H 	0.94211 0.90471 0.07097 0.08000
C 	C 	0.87760 0.67633 0.99887 -0.08300
C 	C 	0.84651 0.61127 0.99719 0.14900
C 	C 	0.77886 0.56909 0.98926 -0.09400
C 	C 	0.74303 0.59254 0.98284 -0.00500
C 	C 	0.77412 0.65757 0.98463 0.08500
H 	H 	0.92969 0.70883 0.00527 0.09200
H 	H 	0.69093 0.56015 0.97653 0.07300
Br	Br	0.87217 0.77406 0.09027 -0.18000
Br	Br	0.94452 0.89434 0.90608 -0.16900
Br	Br	0.89726 0.58132 0.00774 -0.22000
Br	Br	0.72357 0.68805 0.97593 -0.17900
C 	C 	0.80815 0.24153 0.99148 -0.10300
C 	C 	0.81428 0.21998 0.03062 0.15300
C 	C 	0.84743 0.19343 0.03340 -0.08200
C 	C 	0.87872 0.19248 0.99908 0.02800
C 	C 	0.87746 0.21917 0.96192 0.08000
C 	C 	0.84128 0.24225 0.95783 -0.01000
H 	H 	0.84974 0.17441 0.06260 0.09300
C 	C 	0.90894 0.15970 0.00080 0.01700
H 	H 	0.83843 0.26021 0.92818 0.05300
C 	C 	0.87972 0.10144 0.97218 -0.06400
C 	C 	0.90949 0.07153 0.97105 0.12000
C 	C 	0.96693 0.09761 0.00127 -0.02600
C 	C 	0.99594 0.15573 0.03017 -0.04100
C 	C 	0.96775 0.18729 0.02961 0.09700
H 	H 	0.83496 0.08060 0.94951 0.08600
H 	H 	0.04044 0.17642 0.05311 0.08400
Br	Br	0.92581 0.22547 0.91669 -0.19100
Br	Br	0.78439 0.23255 0.08234 -0.20100
Br	Br	0.87437 0.99897 0.92506 -0.16600
Br	Br	0.01130 0.26888 0.06734 -0.18100
C 	C 	0.15599 0.09876 0.00624 -0.03100
C 	C 	0.18594 0.13054 0.97190 0.12300
C 	C 	0.25089 0.15766 0.97262 -0.06500
C 	C 	0.28581 0.15172 0.00657 0.01600
C 	C 	0.25595 0.12013 0.04088 0.09900
C 	C 	0.19154 0.09442 0.04080 -0.03800
H 	H 	0.27391 0.18222 0.94627 0.08800
C 	C 	0.35395 0.17983 0.00646 0.03100
H 	H 	0.16861 0.06975 0.06715 0.07900
C 	C 	0.40192 0.23811 0.03440 -0.08400
C 	C 	0.46679 0.26505 0.03544 0.15200
C 	C 	0.48420 0.23482 0.00684 -0.10300
C 	C 	0.43620 0.17601 0.97934 -0.00600
C 	C 	0.37121 0.14825 0.97919 0.08000
H 	H 	0.38870 0.26190 0.05600 0.09300
H 	H 	0.44936 0.15223 0.95768 0.06300
Br	Br	0.30177 0.10971 0.08733 -0.19600
Br	Br	0.13816 0.13394 0.92234 -0.17300
Br	Br	0.53067 0.34090 0.07820 -0.25500
Br	Br	0.30675 0.06689 0.94203 -0.18900
