data_crystal

_cell_length_a 23.34218
_cell_length_b 24.02886
_cell_length_c 26.95670
_cell_angle_alpha 90.00030
_cell_angle_beta  90.02036
_cell_angle_gamma 92.64198

_symmetry_space_group_name_	'P 1'
_symmetry_space_group_name_H-M	'P 1'

loop_
_symmetry_equiv_pos_as_xyz
  x,y,z

loop_
_atom_site_label
_atom_site_type_symbol
_atom_site_fract_x
_atom_site_fract_y
_atom_site_fract_z
_atom_site_charge
C 	C 	0.92326 0.87564 0.99065 0.12900
N 	N 	0.96872 0.90938 0.00286 -0.17700
C 	C 	0.01530 0.87891 0.99783 0.11000
C 	C 	0.07265 0.89724 0.01699 -0.06500
C 	C 	0.08857 0.95736 0.02030 0.09000
C 	C 	0.11642 0.85611 0.02585 0.04000
C 	C 	0.11111 0.81953 0.06628 -0.03400
C 	C 	0.15186 0.77957 0.07380 -0.00200
C 	C 	0.19853 0.77657 0.04132 0.03800
C 	C 	0.16291 0.85288 0.99326 -0.01300
N 	N 	0.06920 0.99497 0.98808 -0.12100
C 	C 	0.13208 0.98043 0.04970 -0.03900
C 	C 	0.10049 0.04240 0.99713 0.11400
C 	C 	0.08571 0.09699 0.97658 -0.07000
C 	C 	0.13032 0.14250 0.97358 0.06400
C 	C 	0.21286 0.18599 0.93175 0.00800
C 	C 	0.13864 0.17954 0.01338 -0.04600
C 	C 	0.18476 0.21880 0.01292 0.00100
C 	C 	0.22294 0.22112 0.97269 0.03400
N 	N 	0.98034 0.07607 0.97065 -0.16600
C 	C 	0.93584 0.10024 0.94895 0.11200
C 	C 	0.95530 0.14414 0.91901 -0.04800
C 	C 	0.01447 0.14638 0.92251 -0.05400
C 	C 	0.87584 0.09154 0.96662 -0.06900
C 	C 	0.83594 0.13724 0.96345 0.06100
C 	C 	0.76842 0.18962 0.91612 0.00100
C 	C 	0.75579 0.22038 0.95866 0.03300
C 	C 	0.78325 0.20921 0.00364 -0.00000
C 	C 	0.82394 0.16846 0.00580 -0.04700
N 	N 	0.88069 0.98877 0.97599 -0.12500
C 	C 	0.79963 0.96983 0.01937 -0.06100
C 	C 	0.84608 0.94800 0.99569 0.11300
C 	C 	0.86326 0.88969 0.00083 -0.08400
C 	C 	0.81970 0.84510 0.01257 0.05300
C 	C 	0.78841 0.81846 0.97429 -0.04000
C 	C 	0.74669 0.77673 0.98536 0.01300
C 	C 	0.73586 0.76140 0.03482 0.01700
C 	C 	0.76702 0.78824 0.07315 0.00700
C 	C 	0.80922 0.82960 0.06201 -0.04500
C 	C 	0.94064 0.82314 0.97794 -0.06000
C 	C 	0.99972 0.82525 0.98247 -0.03600
C 	C 	0.20366 0.81305 0.00081 -0.01800
C 	C 	0.13920 0.03526 0.03519 -0.06100
C 	C 	0.02820 0.10390 0.95447 0.10900
C 	C 	0.80528 0.02668 0.01322 -0.05700
C 	C 	0.85558 0.03668 0.98681 0.10200
C 	C 	0.80807 0.14792 0.91861 -0.04400
H 	H 	0.96667 0.94407 0.02607 0.10500
H 	H 	0.97747 0.05424 0.00416 0.10100
H 	H 	0.72221 0.75681 0.95559 0.07900
H 	H 	0.75831 0.77730 0.11149 0.07600
H 	H 	0.79630 0.83023 0.93602 0.07200
H 	H 	0.83321 0.85007 0.09177 0.06700
H 	H 	0.14724 0.75101 0.10478 0.08400
H 	H 	0.16710 0.88089 0.96184 0.07200
H 	H 	0.23911 0.81033 0.97513 0.09800
H 	H 	0.07519 0.82176 0.09153 0.06700
H 	H 	0.19157 0.24658 0.04424 0.08300
H 	H 	0.11023 0.17700 0.04515 0.07200
C 	C 	0.16709 0.14632 0.93246 -0.03800
H 	H 	0.24133 0.18845 0.90002 0.09000
H 	H 	0.74695 0.19758 0.88137 0.07600
H 	H 	0.81697 0.12374 0.88581 0.06900
H 	H 	0.84508 0.16015 0.04063 0.07000
H 	H 	0.77257 0.23167 0.03698 0.08500
H 	H 	0.91371 0.78526 0.97899 0.09100
H 	H 	0.02535 0.78923 0.98724 0.07100
H 	H 	0.16339 0.95742 0.06984 0.08900
H 	H 	0.17582 0.06284 0.04383 0.09900
H 	H 	0.93021 0.17888 0.90809 0.08300
H 	H 	0.04171 0.18294 0.91450 0.07400
H 	H 	0.76095 0.94672 0.03075 0.07100
H 	H 	0.77088 0.05509 0.01688 0.06700
H 	H 	0.16069 0.11807 0.90142 0.07500
C 	C 	0.97443 0.88857 0.46952 0.11500
N 	N 	0.01951 0.92110 0.48487 -0.17400
C 	C 	0.06602 0.89047 0.48014 0.10900
C 	C 	0.12261 0.90723 0.50187 -0.06700
C 	C 	0.13976 0.96705 0.50614 0.09900
C 	C 	0.16434 0.86476 0.51357 0.05500
C 	C 	0.15212 0.82495 0.55061 -0.04100
C 	C 	0.19066 0.78343 0.56020 0.00600
C 	C 	0.24219 0.78225 0.53357 0.02800
C 	C 	0.21583 0.86345 0.48690 -0.03900
N 	N 	0.12337 0.00553 0.47334 -0.12300
C 	C 	0.18024 0.98932 0.53890 -0.05000
C 	C 	0.15386 0.05268 0.48523 0.09700
C 	C 	0.13999 0.10802 0.46570 -0.06600
C 	C 	0.18429 0.15410 0.46611 0.05400
C 	C 	0.27783 0.19206 0.44051 0.00500
C 	C 	0.17745 0.20086 0.49630 -0.04100
C 	C 	0.22108 0.24266 0.49921 0.00600
C 	C 	0.27156 0.23832 0.47147 0.02900
N 	N 	0.03467 0.08872 0.45736 -0.17400
C 	C 	0.99123 0.11410 0.43519 0.12200
C 	C 	0.01228 0.15792 0.40589 -0.06200
C 	C 	0.07133 0.15882 0.41029 -0.04500
C 	C 	0.93077 0.10643 0.45186 -0.07000
C 	C 	0.89379 0.15459 0.45387 0.05500
C 	C 	0.83124 0.21773 0.41254 -0.00000
C 	C 	0.81670 0.24055 0.45852 0.02900
C 	C 	0.84104 0.22026 0.50216 0.00500
C 	C 	0.88041 0.17829 0.49972 -0.04000
N 	N 	0.93424 0.00311 0.45771 -0.12300
C 	C 	0.84861 0.98243 0.49345 -0.05100
C 	C 	0.89775 0.96160 0.47339 0.09800
C 	C 	0.91404 0.90289 0.47748 -0.06900
C 	C 	0.86942 0.85831 0.48625 0.05400
C 	C 	0.83571 0.83758 0.44672 -0.04300
C 	C 	0.79235 0.79660 0.45521 0.00500
C 	C 	0.78244 0.77594 0.50329 0.02500
C 	C 	0.81600 0.79690 0.54289 0.00600
C 	C 	0.85972 0.83758 0.53430 -0.04200
C 	C 	0.99199 0.83675 0.45498 -0.04800
C 	C 	0.05079 0.83797 0.46171 -0.05200
C 	C 	0.25455 0.82230 0.49681 0.00600
C 	C 	0.18877 0.04445 0.52578 -0.04900
C 	C 	0.08341 0.11575 0.44218 0.11100
C 	C 	0.85463 0.03948 0.48917 -0.05300
C 	C 	0.90766 0.05053 0.46737 0.09700
C 	C 	0.86899 0.17438 0.41031 -0.04300
H 	H 	0.01663 0.95461 0.50933 0.10400
H 	H 	0.03061 0.06631 0.49051 0.10400
H 	H 	0.76608 0.78125 0.42455 0.07900
H 	H 	0.80806 0.78184 0.58025 0.08000
H 	H 	0.84288 0.85349 0.40953 0.07000
H 	H 	0.88550 0.85352 0.56504 0.06800
H 	H 	0.18050 0.75219 0.58822 0.08200
H 	H 	0.22549 0.89394 0.45813 0.07400
H 	H 	0.29391 0.82116 0.47563 0.08800
H 	H 	0.11246 0.82575 0.57141 0.06900
H 	H 	0.21619 0.27783 0.52375 0.08800
H 	H 	0.13892 0.20423 0.51828 0.07300
C 	C 	0.23432 0.15018 0.43775 -0.04000
H 	H 	0.31696 0.18799 0.41947 0.08600
H 	H 	0.81214 0.23268 0.37872 0.07500
H 	H 	0.87863 0.15585 0.37482 0.06700
H 	H 	0.89904 0.16285 0.53357 0.07000
H 	H 	0.82859 0.23623 0.53795 0.08900
H 	H 	0.96467 0.79916 0.45303 0.08700
H 	H 	0.07596 0.80148 0.46534 0.07400
H 	H 	0.20880 0.96589 0.56164 0.08700
H 	H 	0.22330 0.07246 0.53858 0.07400
H 	H 	0.98829 0.19332 0.39482 0.08700
H 	H 	0.09959 0.19481 0.40278 0.08600
H 	H 	0.80887 0.95884 0.50071 0.06900
H 	H 	0.81979 0.06765 0.49049 0.06800
H 	H 	0.23986 0.11428 0.41422 0.07500
Ni	Ni	0.44688 0.52641 0.05416 1.11000
O 	O 	0.51409 0.47715 0.03881 -0.70300
Ni	Ni	0.50389 0.46734 0.96470 1.10500
O 	O 	0.45434 0.52129 0.12993 -0.33600
O 	O 	0.46848 0.42847 0.13469 -0.37400
O 	O 	0.50134 0.59621 0.06138 -0.33200
Ni	Ni	0.50296 0.40250 0.06802 1.07700
O 	O 	0.41664 0.63700 0.00478 -0.32900
O 	O 	0.42077 0.39435 0.04233 -0.38400
O 	O 	0.57044 0.41734 0.95354 -0.36300
O 	O 	0.43895 0.51804 0.98007 -0.70400
O 	O 	0.37982 0.57634 0.06309 -0.29900
O 	O 	0.49000 0.47168 0.88977 -0.33100
O 	O 	0.49934 0.56679 0.88794 -0.37500
Ni	Ni	0.45444 0.59182 0.95049 1.09800
H 	H 	0.55207 0.49469 0.04718 0.16200
H 	H 	0.40075 0.50223 0.97046 0.25700
C 	C 	0.40977 0.38367 0.99561 0.31800
O 	O 	0.53343 0.60186 0.98169 -0.38000
C 	C 	0.47621 0.47894 0.15286 0.27700
C 	C 	0.57596 0.37293 0.98118 0.30300
C 	C 	0.54045 0.61262 0.02885 0.29500
C 	C 	0.49173 0.51873 0.86494 0.29200
C 	C 	0.37323 0.61823 0.03250 0.30300
O 	O 	0.44769 0.39813 0.96126 -0.29700
O 	O 	0.53422 0.35594 0.01142 -0.35300
Ni	Ni	0.49937 0.54117 0.55080 1.10400
O 	O 	0.56760 0.49424 0.53573 -0.70600
Ni	Ni	0.55297 0.47495 0.46383 1.10200
O 	O 	0.52057 0.54808 0.62437 -0.35400
O 	O 	0.52118 0.45385 0.63659 -0.35800
O 	O 	0.54905 0.61421 0.54427 -0.31800
Ni	Ni	0.56119 0.42417 0.57312 1.09000
O 	O 	0.45468 0.64196 0.49475 -0.32200
O 	O 	0.47904 0.40724 0.55003 -0.34900
O 	O 	0.62284 0.42886 0.45469 -0.32600
O 	O 	0.48409 0.52165 0.47880 -0.70000
O 	O 	0.42971 0.58736 0.56122 -0.34300
O 	O 	0.53659 0.46866 0.38905 -0.34000
O 	O 	0.52383 0.56116 0.37721 -0.37100
Ni	Ni	0.48815 0.59214 0.44162 1.09800
H 	H 	0.60521 0.51420 0.54074 0.17300
H 	H 	0.44667 0.50117 0.47433 0.19500
C 	C 	0.46762 0.38914 0.50534 0.30600
O 	O 	0.57044 0.61182 0.46192 -0.37900
C 	C 	0.52483 0.50508 0.65395 0.28200
C 	C 	0.63422 0.38990 0.48701 0.28200
C 	C 	0.58426 0.62604 0.50734 0.29600
C 	C 	0.51723 0.50932 0.36203 0.28200
C 	C 	0.41632 0.62447 0.52789 0.30900
O 	O 	0.50265 0.40188 0.46846 -0.32500
O 	O 	0.59546 0.37368 0.52047 -0.31200
C 	C 	0.50146 0.51693 0.81111 -0.05400
C 	C 	0.55420 0.50015 0.79132 0.05500
C 	C 	0.56151 0.49830 0.73967 -0.01700
C 	C 	0.51754 0.51327 0.70764 -0.05800
C 	C 	0.46502 0.53071 0.72750 0.06200
C 	C 	0.45804 0.53326 0.77916 -0.01800
H 	H 	0.60137 0.48436 0.72437 0.05200
H 	H 	0.41822 0.54723 0.79452 0.06800
C 	C 	0.60261 0.48273 0.82464 -0.05500
C 	C 	0.41613 0.54722 0.69428 -0.06000
C 	C 	0.60183 0.41946 0.83052 -0.16000
H 	H 	0.60106 0.50258 0.86178 0.06500
H 	H 	0.64445 0.49701 0.80823 0.07100
H 	H 	0.56013 0.40331 0.84576 0.12600
H 	H 	0.63645 0.40807 0.85638 0.10700
H 	H 	0.60919 0.39931 0.79413 0.10000
C 	C 	0.41827 0.61005 0.68532 -0.15500
H 	H 	0.37445 0.53505 0.71211 0.08000
H 	H 	0.41597 0.52489 0.65823 0.07500
H 	H 	0.41350 0.63265 0.72092 0.10200
H 	H 	0.38259 0.62077 0.66033 0.10700
H 	H 	0.45942 0.62409 0.66770 0.11700
C 	C 	0.48910 0.48482 0.20612 -0.05800
C 	C 	0.53436 0.52117 0.22306 0.04200
C 	C 	0.54297 0.52828 0.27423 -0.01300
C 	C 	0.50783 0.49921 0.30866 -0.05900
C 	C 	0.46369 0.46154 0.29168 0.05500
C 	C 	0.45491 0.45466 0.24050 -0.01700
H 	H 	0.57730 0.55653 0.28731 0.06700
H 	H 	0.42079 0.42618 0.22739 0.07600
C 	C 	0.57352 0.55321 0.18716 -0.05200
C 	C 	0.42644 0.42732 0.32747 -0.05900
C 	C 	0.55511 0.61294 0.18086 -0.16200
H 	H 	0.57506 0.53274 0.15028 0.04200
H 	H 	0.61821 0.55439 0.20158 0.06600
H 	H 	0.51061 0.61338 0.16640 0.13200
H 	H 	0.58425 0.63530 0.15427 0.10700
H 	H 	0.55743 0.63536 0.21690 0.10200
C 	C 	0.44994 0.36968 0.33522 -0.15900
H 	H 	0.38219 0.42211 0.31234 0.10400
H 	H 	0.42224 0.44849 0.36380 0.07300
H 	H 	0.45256 0.34734 0.29927 0.10700
H 	H 	0.42095 0.34475 0.36013 0.12200
H 	H 	0.49321 0.37309 0.35232 0.13300
C 	C 	0.37469 0.70620 0.56716 0.07500
C 	C 	0.36712 0.65868 0.53736 -0.00300
C 	C 	0.31417 0.64711 0.51323 -0.08000
C 	C 	0.27206 0.68704 0.51460 0.01100
C 	C 	0.28133 0.73663 0.54141 0.08600
C 	C 	0.33136 0.74471 0.57070 -0.12800
C 	C 	0.34012 0.79591 0.60329 0.79200
H 	H 	0.41518 0.71403 0.58620 0.11100
H 	H 	0.23306 0.68084 0.49307 0.09600
C 	C 	0.30402 0.59389 0.48353 0.77500
F 	F 	0.38497 0.79028 0.63627 -0.41400
F 	F 	0.29117 0.80432 0.63069 -0.43600
F 	F 	0.35231 0.84213 0.57393 -0.42300
F 	F 	0.31816 0.54840 0.51174 -0.44400
F 	F 	0.33772 0.59619 0.44132 -0.46600
F 	F 	0.24720 0.58614 0.46935 -0.41300
C 	C 	0.67988 0.75658 0.52372 0.00100
C 	C 	0.73358 0.73593 0.51272 0.08800
C 	C 	0.73925 0.67789 0.50692 -0.13500
C 	C 	0.68974 0.64213 0.50778 0.07200
C 	C 	0.63545 0.66319 0.51567 -0.01400
C 	C 	0.63040 0.72084 0.52515 -0.06700
C 	C 	0.57222 0.74461 0.53490 0.77500
H 	H 	0.67654 0.80096 0.52935 0.09500
H 	H 	0.69305 0.59801 0.50066 0.06300
C 	C 	0.79756 0.65438 0.49759 0.79100
F 	F 	0.57649 0.80157 0.54293 -0.41700
F 	F 	0.54762 0.71998 0.57659 -0.42400
F 	F 	0.53667 0.73477 0.49450 -0.43500
F 	F 	0.83624 0.67365 0.53322 -0.43300
F 	F 	0.81724 0.67078 0.45123 -0.43200
F 	F 	0.79517 0.59673 0.49942 -0.41900
C 	C 	0.73757 0.37139 0.48606 0.06700
C 	C 	0.68098 0.35302 0.47568 -0.00000
C 	C 	0.66988 0.30006 0.45369 -0.06500
C 	C 	0.71472 0.26334 0.44986 0.00700
C 	C 	0.77121 0.28118 0.46130 0.08500
C 	C 	0.78339 0.33705 0.47616 -0.12800
C 	C 	0.84469 0.35979 0.48284 0.78900
H 	H 	0.74584 0.41251 0.50178 0.08000
H 	H 	0.70583 0.22069 0.43802 0.09300
C 	C 	0.61026 0.28184 0.43564 0.77400
F 	F 	0.84762 0.41747 0.48200 -0.40500
F 	F 	0.87933 0.34158 0.44507 -0.42500
F 	F 	0.86566 0.34232 0.52791 -0.43200
F 	F 	0.58558 0.32442 0.40991 -0.43300
F 	F 	0.57617 0.26679 0.47573 -0.39300
F 	F 	0.61210 0.23659 0.40396 -0.42700
C 	C 	0.35985 0.26618 0.51787 0.00500
C 	C 	0.32093 0.27791 0.48021 0.09200
C 	C 	0.32958 0.32658 0.45108 -0.13500
C 	C 	0.37787 0.36246 0.46022 0.07500
C 	C 	0.41776 0.35000 0.49707 -0.00500
C 	C 	0.40915 0.30082 0.52598 -0.05500
C 	C 	0.45008 0.28672 0.56757 0.77200
H 	H 	0.35161 0.22968 0.54087 0.09900
H 	H 	0.38430 0.40053 0.43907 0.06300
C 	C 	0.28770 0.34000 0.41013 0.79100
F 	F 	0.44217 0.23164 0.58215 -0.41200
F 	F 	0.44048 0.32019 0.60817 -0.43200
F 	F 	0.50644 0.29452 0.55255 -0.41600
F 	F 	0.23317 0.34345 0.42961 -0.42200
F 	F 	0.28715 0.29855 0.37452 -0.44200
F 	F 	0.30233 0.39022 0.38722 -0.43500
C 	C 	0.33770 0.70680 0.06402 0.07200
C 	C 	0.32586 0.65503 0.04140 0.00900
C 	C 	0.26971 0.64043 0.02473 -0.08000
C 	C 	0.22728 0.67992 0.02793 0.01300
C 	C 	0.24015 0.73294 0.04776 0.08000
C 	C 	0.29474 0.74545 0.06884 -0.12000
C 	C 	0.30818 0.80104 0.09405 0.79000
H 	H 	0.38082 0.71730 0.07693 0.13400
H 	H 	0.18469 0.67037 0.01336 0.09500
C 	C 	0.25527 0.58307 0.00324 0.77100
F 	F 	0.35843 0.80028 0.12131 -0.39900
F 	F 	0.26445 0.81355 0.12624 -0.43100
F 	F 	0.31428 0.84250 0.05863 -0.42200
F 	F 	0.26434 0.54299 0.03884 -0.40100
F 	F 	0.28975 0.57391 0.96258 -0.42900
F 	F 	0.19863 0.57727 0.98810 -0.40100
C 	C 	0.64498 0.62733 0.04135 0.06900
C 	C 	0.59009 0.64841 0.04466 -0.02600
C 	C 	0.58420 0.70578 0.05486 -0.07600
C 	C 	0.63337 0.74188 0.05493 -0.00200
C 	C 	0.68775 0.72143 0.04656 0.08900
C 	C 	0.69425 0.66329 0.04341 -0.14100
C 	C 	0.75328 0.63986 0.03889 0.78800
H 	H 	0.64910 0.58322 0.03462 0.05700
H 	H 	0.62921 0.78641 0.05875 0.09500
C 	C 	0.52546 0.72930 0.06184 0.77400
F 	F 	0.75138 0.58286 0.04677 -0.42800
F 	F 	0.79011 0.66419 0.07369 -0.43600
F 	F 	0.77485 0.65049 0.99190 -0.42900
F 	F 	0.49470 0.69903 0.09729 -0.43800
F 	F 	0.49599 0.72710 0.01736 -0.44100
F 	F 	0.52948 0.78422 0.07751 -0.41500
C 	C 	0.65309 0.24153 0.95271 0.00400
C 	C 	0.71039 0.26109 0.95701 0.08500
C 	C 	0.72349 0.31896 0.96193 -0.13600
C 	C 	0.67868 0.35482 0.97058 0.06800
C 	C 	0.62137 0.33476 0.96873 -0.02200
C 	C 	0.60840 0.27859 0.95507 -0.06800
C 	C 	0.54738 0.25752 0.94398 0.77400
H 	H 	0.64339 0.19730 0.94786 0.09600
H 	H 	0.68833 0.39828 0.97936 0.07600
C 	C 	0.78498 0.34237 0.95990 0.79500
F 	F 	0.54696 0.20989 0.91503 -0.41200
F 	F 	0.51791 0.29705 0.91826 -0.42500
F 	F 	0.51919 0.24487 0.98792 -0.41600
F 	F 	0.81518 0.31665 0.92290 -0.43400
F 	F 	0.81141 0.33412 0.00503 -0.43800
F 	F 	0.78701 0.39895 0.94986 -0.41700
C 	C 	0.26711 0.31524 0.95630 0.01300
C 	C 	0.27330 0.26076 0.97340 0.08600
C 	C 	0.32632 0.24538 0.99357 -0.11500
C 	C 	0.37115 0.28611 0.99881 0.08900
C 	C 	0.36416 0.34122 0.98370 0.00600
C 	C 	0.31233 0.35578 0.96082 -0.06700
C 	C 	0.30407 0.41500 0.94374 0.77400
H 	H 	0.22643 0.32624 0.94058 0.10200
H 	H 	0.41123 0.27547 0.01585 0.10500
C 	C 	0.33467 0.18596 0.01051 0.78200
F 	F 	0.25218 0.42005 0.91964 -0.40400
F 	F 	0.34732 0.43156 0.91116 -0.44200
F 	F 	0.30529 0.45000 0.98444 -0.41600
F 	F 	0.32400 0.14949 0.97157 -0.41700
F 	F 	0.29743 0.17252 0.04902 -0.43600
F 	F 	0.39004 0.17884 0.02697 -0.40000
