data_crystal

_cell_length_a 20.25010
_cell_length_b 20.34584
_cell_length_c 47.96055
_cell_angle_alpha 90.02132
_cell_angle_beta  90.02606
_cell_angle_gamma 119.41890

_symmetry_space_group_name_	'P 1'
_symmetry_space_group_name_H-M	'P 1'

loop_
_symmetry_equiv_pos_as_xyz
  x,y,z

loop_
_atom_site_label
_atom_site_type_symbol
_atom_site_fract_x
_atom_site_fract_y
_atom_site_fract_z
_atom_site_charge
C 	C 	0.51034 0.18391 0.87804 0.28700
C 	C 	0.74673 0.49800 0.89529 0.30600
C 	C 	0.70518 0.27786 0.85545 0.30400
C 	C 	0.54805 0.39055 0.92871 0.27700
C 	C 	0.80608 0.34576 0.93657 0.30200
C 	C 	0.61462 0.23722 0.97150 0.28100
Ni	Ni	0.61739 0.34917 0.87977 1.11300
Ni	Ni	0.68929 0.38802 0.94181 1.12200
Ni	Ni	0.65694 0.23369 0.91297 1.11900
O 	O 	0.51544 0.25060 0.88123 -0.38100
O 	O 	0.56502 0.16932 0.88681 -0.37300
O 	O 	0.78972 0.39927 0.93129 -0.38700
O 	O 	0.72448 0.44278 0.87733 -0.37800
O 	O 	0.71811 0.48485 0.92050 -0.37800
O 	O 	0.59631 0.19582 0.94833 -0.38200
O 	O 	0.65082 0.29409 0.85046 -0.37400
O 	O 	0.72904 0.27992 0.88082 -0.38900
O 	O 	0.66923 0.30926 0.97175 -0.38000
O 	O 	0.57390 0.40809 0.90263 -0.36500
O 	O 	0.59100 0.38749 0.94911 -0.37300
O 	O 	0.75200 0.27443 0.93682 -0.38000
O 	O 	0.63630 0.31498 0.91359 -0.71600
H 	H 	0.58527 0.28814 0.92186 0.16200
C 	C 	0.70391 0.27510 0.65498 0.28400
C 	C 	0.71497 0.54009 0.60656 0.30300
C 	C 	0.55399 0.33601 0.65707 0.30300
C 	C 	0.85756 0.48923 0.60037 0.28700
C 	C 	0.54962 0.32592 0.56122 0.30100
C 	C 	0.66227 0.24428 0.56203 0.28700
Ni	Ni	0.71954 0.42488 0.64147 1.11300
Ni	Ni	0.70834 0.41045 0.57354 1.11900
Ni	Ni	0.59484 0.26963 0.61118 1.11900
O 	O 	0.74864 0.34877 0.65806 -0.36800
O 	O 	0.63116 0.24643 0.64806 -0.37700
O 	O 	0.60321 0.39246 0.56879 -0.39000
O 	O 	0.67654 0.48990 0.62549 -0.37800
O 	O 	0.74003 0.52022 0.58446 -0.37700
O 	O 	0.64979 0.22920 0.58885 -0.39300
O 	O 	0.62350 0.37014 0.66695 -0.36800
O 	O 	0.54211 0.31868 0.63066 -0.38400
O 	O 	0.68833 0.31429 0.55194 -0.37700
O 	O 	0.82870 0.49684 0.62451 -0.36700
O 	O 	0.81599 0.43719 0.58181 -0.38400
O 	O 	0.53621 0.26603 0.57603 -0.38500
O 	O 	0.68709 0.36366 0.60926 -0.70600
H 	H 	0.72435 0.34589 0.60922 0.16300
C 	C 	0.89873 0.85249 0.71729 0.28100
C 	C 	0.15023 0.06340 0.78749 0.29200
C 	C 	0.94104 0.84808 0.79625 0.30500
C 	C 	0.14263 0.09113 0.71854 0.29200
C 	C 	0.92016 0.07647 0.79808 0.30000
C 	C 	0.88102 0.05840 0.73312 0.27500
Ni	Ni	0.04254 0.94089 0.74963 1.10600
Ni	Ni	0.03600 0.09789 0.75836 1.11300
Ni	Ni	0.88435 0.93704 0.76614 1.12000
O 	O 	0.97363 0.88303 0.71574 -0.36000
O 	O 	0.86564 0.84713 0.74171 -0.37500
O 	O 	0.99293 0.10060 0.79548 -0.38700
O 	O 	0.10143 0.99104 0.78584 -0.38200
O 	O 	0.13415 0.11493 0.77764 -0.37800
O 	O 	0.85493 0.98456 0.73540 -0.38400
O 	O 	0.97196 0.84519 0.77259 -0.36900
O 	O 	0.91331 0.89409 0.79916 -0.37400
O 	O 	0.95367 0.10999 0.73803 -0.37500
O 	O 	0.13021 0.02238 0.72486 -0.38100
O 	O 	0.08971 0.11042 0.72174 -0.39200
O 	O 	0.87080 0.00503 0.79365 -0.38800
O 	O 	0.98657 0.99220 0.75296 -0.70300
H 	H 	0.97646 0.99388 0.73295 0.15300
C 	C 	0.45364 0.75388 0.37210 0.28600
C 	C 	0.21524 0.47791 0.41863 0.30500
C 	C 	0.24291 0.69248 0.38197 0.30400
C 	C 	0.39917 0.52052 0.41715 0.28300
C 	C 	0.27183 0.68290 0.47407 0.30200
C 	C 	0.46937 0.75885 0.46683 0.28600
Ni	Ni	0.32396 0.60157 0.38512 1.11200
Ni	Ni	0.34197 0.59792 0.45297 1.11900
Ni	Ni	0.36563 0.74874 0.42317 1.12000
O 	O 	0.42422 0.68088 0.36679 -0.37000
O 	O 	0.41280 0.78054 0.38435 -0.37700
O 	O 	0.25859 0.61630 0.46564 -0.38700
O 	O 	0.22181 0.53466 0.40423 -0.38100
O 	O 	0.25916 0.49137 0.44063 -0.37500
O 	O 	0.46566 0.78120 0.44131 -0.39200
O 	O 	0.27728 0.66345 0.36732 -0.37100
O 	O 	0.25926 0.70843 0.40837 -0.38300
O 	O 	0.42447 0.68741 0.47528 -0.37500
O 	O 	0.36444 0.52499 0.39402 -0.36600
O 	O 	0.41680 0.56893 0.43795 -0.38100
O 	O 	0.32283 0.74489 0.46168 -0.38900
O 	O 	0.36094 0.65341 0.41903 -0.70900
H 	H 	0.41505 0.66947 0.41657 0.16400
C 	C 	0.52494 0.72644 0.12142 0.28900
C 	C 	0.24739 0.65580 0.05331 0.30200
C 	C 	0.43971 0.84519 0.10423 0.30200
C 	C 	0.31454 0.53917 0.06061 0.28200
C 	C 	0.23497 0.70618 0.14241 0.30800
C 	C 	0.28886 0.54961 0.15948 0.28400
Ni	Ni	0.40428 0.70170 0.07547 1.11200
Ni	Ni	0.24372 0.59120 0.10686 1.12000
Ni	Ni	0.38306 0.71344 0.14212 1.12000
O 	O 	0.51070 0.73851 0.09517 -0.36600
O 	O 	0.47018 0.69243 0.14003 -0.38600
O 	O 	0.20522 0.63355 0.13704 -0.38800
O 	O 	0.31772 0.67716 0.04624 -0.37300
O 	O 	0.23179 0.65911 0.07942 -0.39100
O 	O 	0.31906 0.62201 0.16702 -0.38000
O 	O 	0.40723 0.80327 0.08236 -0.37400
O 	O 	0.45666 0.81697 0.12597 -0.38200
O 	O 	0.25251 0.52456 0.13547 -0.38300
O 	O 	0.38365 0.59388 0.06676 -0.37400
O 	O 	0.25319 0.52705 0.07524 -0.37200
O 	O 	0.30847 0.75064 0.14194 -0.39400
O 	O 	0.35004 0.65702 0.10850 -0.71500
H 	H 	0.36605 0.61923 0.11212 0.16400
C 	C 	0.11004 0.15849 0.23574 0.28500
C 	C 	0.84323 0.92105 0.29403 0.30700
C 	C 	0.06403 0.13719 0.31124 0.30000
C 	C 	0.87915 0.91521 0.22155 0.28700
C 	C 	0.05845 0.91676 0.31616 0.29700
C 	C 	0.10730 0.93445 0.23883 0.28900
Ni	Ni	0.96043 0.05206 0.26269 1.11300
Ni	Ni	0.96271 0.89446 0.26807 1.12400
Ni	Ni	0.11550 0.04929 0.27816 1.11900
O 	O 	0.03532 0.12095 0.23216 -0.37400
O 	O 	0.14264 0.14877 0.25833 -0.38000
O 	O 	0.98895 0.89695 0.30846 -0.37900
O 	O 	0.89328 0.99266 0.29619 -0.37600
O 	O 	0.85774 0.87534 0.27918 -0.38500
O 	O 	0.14707 0.00726 0.24573 -0.38400
O 	O 	0.02531 0.14125 0.28986 -0.37300
O 	O 	0.08208 0.08352 0.31248 -0.38300
O 	O 	0.05345 0.88540 0.25558 -0.38900
O 	O 	0.88036 0.97498 0.23388 -0.36400
O 	O 	0.92666 0.89063 0.22858 -0.38100
O 	O 	0.11679 0.96804 0.30201 -0.37600
O 	O 	0.01556 0.00074 0.26319 -0.72300
H 	H 	0.02791 0.00428 0.24320 0.15700
C 	C 	0.27786 0.49268 0.18067 -0.06600
C 	C 	0.25195 0.49690 0.20742 0.00400
C 	C 	0.21750 0.43267 0.22435 -0.05600
C 	C 	0.20817 0.36351 0.21458 0.01300
C 	C 	0.23947 0.36043 0.18863 0.01600
C 	C 	0.27613 0.42569 0.17217 -0.02000
C 	C 	0.22965 0.29116 0.17873 -0.05600
C 	C 	0.18698 0.22504 0.19409 0.00400
C 	C 	0.15414 0.22761 0.21948 -0.06700
C 	C 	0.16537 0.29691 0.22986 -0.01800
H 	H 	0.25408 0.54856 0.21439 0.04000
H 	H 	0.19535 0.43605 0.24454 0.04300
H 	H 	0.29810 0.42296 0.15183 0.04400
H 	H 	0.25390 0.28826 0.15894 0.04400
H 	H 	0.17927 0.17182 0.18619 0.03000
H 	H 	0.13940 0.29863 0.24941 0.04200
C 	C 	0.60399 0.76477 0.13151 -0.06800
C 	C 	0.65345 0.83999 0.12379 0.00700
C 	C 	0.71958 0.88416 0.13917 -0.05600
C 	C 	0.73720 0.85341 0.16232 0.01500
C 	C 	0.69061 0.77620 0.16882 0.01500
C 	C 	0.62484 0.73204 0.15311 -0.02000
C 	C 	0.70839 0.74507 0.19177 -0.05700
C 	C 	0.77049 0.79056 0.20866 0.00600
C 	C 	0.81559 0.86780 0.20289 -0.06700
C 	C 	0.79941 0.89915 0.17955 -0.01900
H 	H 	0.63853 0.86553 0.10688 0.03900
H 	H 	0.75569 0.94285 0.13359 0.04500
H 	H 	0.58766 0.67347 0.15869 0.04500
H 	H 	0.67336 0.68584 0.19683 0.04500
H 	H 	0.78274 0.76604 0.22662 0.03200
H 	H 	0.83470 0.95868 0.17493 0.04400
C 	C 	0.18751 0.73608 0.15401 -0.07400
C 	C 	0.11971 0.68813 0.16799 0.00800
C 	C 	0.08559 0.71844 0.18516 -0.05700
C 	C 	0.11988 0.79689 0.18898 0.01400
C 	C 	0.18500 0.84540 0.17346 0.01500
C 	C 	0.21665 0.81469 0.15517 -0.01600
C 	C 	0.22054 0.92372 0.17784 -0.05800
C 	C 	0.19442 0.95329 0.19873 0.01200
C 	C 	0.13167 0.90489 0.21512 -0.07100
C 	C 	0.09248 0.82699 0.20924 -0.01800
H 	H 	0.09543 0.62745 0.16667 0.03900
H 	H 	0.03452 0.68079 0.19651 0.04300
H 	H 	0.26700 0.85188 0.14333 0.04700
H 	H 	0.26988 0.96153 0.16570 0.04600
H 	H 	0.22369 0.01360 0.20238 0.03600
H 	H 	0.04226 0.78956 0.22107 0.04200
C 	C 	0.76498 0.89501 0.30293 -0.07800
C 	C 	0.70471 0.84817 0.28526 0.01100
C 	C 	0.63001 0.81775 0.29434 -0.05800
C 	C 	0.61470 0.83339 0.32127 0.01700
C 	C 	0.67493 0.88367 0.33864 0.01300
C 	C 	0.75002 0.91487 0.32924 -0.01500
C 	C 	0.65931 0.89891 0.36565 -0.05300
C 	C 	0.58525 0.86040 0.37599 0.00200
C 	C 	0.52637 0.80668 0.35938 -0.06700
C 	C 	0.54056 0.79611 0.33163 -0.01600
H 	H 	0.71589 0.83466 0.26455 0.03900
H 	H 	0.58414 0.78043 0.28067 0.04500
H 	H 	0.79662 0.95204 0.34270 0.04600
H 	H 	0.70477 0.93845 0.37898 0.04500
H 	H 	0.57431 0.86960 0.39735 0.03800
H 	H 	0.49451 0.75593 0.31861 0.04500
C 	C 	0.10511 0.20418 0.32899 -0.07300
C 	C 	0.15902 0.27214 0.31683 0.00400
C 	C 	0.19266 0.33847 0.33239 -0.05200
C 	C 	0.17362 0.33763 0.36053 0.00700
C 	C 	0.12256 0.26886 0.37350 0.01800
C 	C 	0.08802 0.20192 0.35756 -0.02000
C 	C 	0.10551 0.26849 0.40200 -0.06200
C 	C 	0.13748 0.33642 0.41718 0.01200
C 	C 	0.18590 0.40499 0.40389 -0.08800
C 	C 	0.20377 0.40506 0.37559 -0.00100
H 	H 	0.17423 0.27364 0.29511 0.03900
H 	H 	0.23305 0.39083 0.32246 0.04100
H 	H 	0.04707 0.14910 0.36708 0.04000
H 	H 	0.06713 0.21604 0.41232 0.04300
H 	H 	0.12351 0.33573 0.43901 0.03100
H 	H 	0.24010 0.45802 0.36512 0.00600
C 	C 	0.19210 0.71524 0.36800 -0.07300
C 	C 	0.16406 0.68859 0.34111 0.01000
C 	C 	0.12296 0.71648 0.32672 -0.05700
C 	C 	0.10995 0.77180 0.33894 0.01600
C 	C 	0.13475 0.79612 0.36647 0.01400
C 	C 	0.17481 0.76698 0.38101 -0.01700
C 	C 	0.12292 0.85245 0.37850 -0.05600
C 	C 	0.09189 0.88825 0.36261 0.00800
C 	C 	0.07099 0.86701 0.33480 -0.07200
C 	C 	0.07673 0.80645 0.32343 -0.01700
H 	H 	0.17506 0.64712 0.33117 0.03700
H 	H 	0.10307 0.69656 0.30577 0.04500
H 	H 	0.19512 0.78683 0.40194 0.04300
H 	H 	0.14059 0.87069 0.39976 0.04400
H 	H 	0.08720 0.93472 0.37153 0.03400
H 	H 	0.06009 0.78985 0.30193 0.04000
C 	C 	0.44011 0.91561 0.53513 -0.04400
C 	C 	0.46184 0.98920 0.54368 -0.03500
C 	C 	0.53391 0.04895 0.53682 0.01100
C 	C 	0.58450 0.03469 0.52127 -0.00800
C 	C 	0.56168 0.96098 0.51186 -0.00800
C 	C 	0.48935 0.90119 0.51895 0.02000
C 	C 	0.61006 0.94746 0.49461 0.02700
C 	C 	0.68289 0.00697 0.48831 -0.05700
C 	C 	0.70700 0.07968 0.49879 -0.03600
C 	C 	0.65797 0.09410 0.51519 0.01500
C 	C 	0.68209 0.16652 0.52632 -0.02400
C 	C 	0.63239 0.17972 0.54281 -0.05700
C 	C 	0.55701 0.12210 0.54633 -0.02300
C 	C 	0.46519 0.82887 0.50814 -0.02700
C 	C 	0.50881 0.81780 0.48790 -0.05500
C 	C 	0.58327 0.87573 0.48257 -0.02900
H 	H 	0.38428 0.87012 0.54056 0.04300
H 	H 	0.42281 0.99959 0.55586 0.03900
H 	H 	0.72075 0.99712 0.47520 0.04800
H 	H 	0.76354 0.12476 0.49397 0.03900
H 	H 	0.74010 0.21112 0.52338 0.04400
H 	H 	0.51831 0.13285 0.55859 0.04000
H 	H 	0.40893 0.78328 0.51306 0.04800
H 	H 	0.61783 0.86660 0.46747 0.04500
C 	C 	0.12721 0.57788 0.58873 -0.03600
C 	C 	0.18759 0.60493 0.56980 -0.04500
C 	C 	0.18582 0.64220 0.54539 0.01700
C 	C 	0.12611 0.65798 0.54113 -0.01000
C 	C 	0.06486 0.62980 0.55993 -0.00100
C 	C 	0.06416 0.58726 0.58331 -0.00100
C 	C 	0.00081 0.63712 0.55372 0.00400
C 	C 	0.00186 0.67984 0.53055 -0.05100
C 	C 	0.06334 0.70924 0.51220 -0.03900
C 	C 	0.12391 0.69539 0.51662 0.01500
C 	C 	0.17824 0.71186 0.49574 -0.02000
C 	C 	0.23223 0.68827 0.49870 -0.06600
C 	C 	0.23905 0.65790 0.52413 -0.02400
C 	C 	0.99782 0.54899 0.59937 -0.00800
C 	C 	0.93160 0.54970 0.59121 -0.06400
C 	C 	0.93400 0.59540 0.56887 -0.01300
H 	H 	0.12810 0.54686 0.60696 0.03600
H 	H 	0.23433 0.59438 0.57364 0.04000
H 	H 	0.95375 0.68782 0.52616 0.04800
H 	H 	0.06212 0.73970 0.49385 0.03800
H 	H 	0.17465 0.73720 0.47630 0.04200
H 	H 	0.28268 0.64207 0.52659 0.03500
H 	H 	0.99577 0.51347 0.61659 0.04000
H 	H 	0.88180 0.59159 0.56132 0.03800
C 	C 	0.57767 0.43973 0.44249 -0.04300
C 	C 	0.59993 0.41118 0.46496 -0.03900
C 	C 	0.54694 0.36680 0.48539 0.01300
C 	C 	0.46976 0.34480 0.48175 -0.00400
C 	C 	0.44703 0.37179 0.45867 -0.01100
C 	C 	0.50197 0.42323 0.43999 0.02100
C 	C 	0.37075 0.35407 0.45600 0.02100
C 	C 	0.31673 0.30496 0.47527 -0.04500
C 	C 	0.33962 0.27968 0.49859 -0.04000
C 	C 	0.41656 0.30207 0.50258 0.01300
C 	C 	0.44198 0.28808 0.52806 -0.01900
C 	C 	0.51985 0.31661 0.53262 -0.06800
C 	C 	0.57117 0.35043 0.51050 -0.01800
C 	C 	0.48210 0.46378 0.42124 -0.02700
C 	C 	0.40859 0.45425 0.42170 -0.05200
C 	C 	0.35134 0.39260 0.43623 -0.03200
H 	H 	0.61992 0.47722 0.42773 0.04200
H 	H 	0.65908 0.42667 0.46720 0.03900
H 	H 	0.25759 0.28951 0.47300 0.04000
H 	H 	0.29789 0.24499 0.51401 0.03800
H 	H 	0.40215 0.26010 0.54490 0.04100
H 	H 	0.63100 0.37014 0.51380 0.02800
H 	H 	0.52563 0.50876 0.40884 0.04400
H 	H 	0.29344 0.38157 0.43499 0.05100
C 	C 	0.73422 0.22479 0.66164 -0.07000
C 	C 	0.80140 0.23681 0.64872 0.00900
C 	C 	0.84174 0.20308 0.65929 -0.05600
C 	C 	0.81511 0.15664 0.68286 0.01700
C 	C 	0.74455 0.13979 0.69472 0.01300
C 	C 	0.70416 0.17389 0.68393 -0.01600
C 	C 	0.71701 0.09148 0.71784 -0.05500
C 	C 	0.76047 0.06249 0.72970 0.00200
C 	C 	0.83276 0.08342 0.71913 -0.06300
C 	C 	0.85916 0.12891 0.69531 -0.01900
H 	H 	0.82413 0.27514 0.63119 0.03500
H 	H 	0.89483 0.21490 0.64963 0.04700
H 	H 	0.65182 0.16407 0.69375 0.04200
H 	H 	0.66237 0.07692 0.72680 0.04200
H 	H 	0.73834 0.02451 0.74730 0.02800
H 	H 	0.91412 0.14320 0.68666 0.04800
C 	C 	0.21465 0.14462 0.70507 -0.07400
C 	C 	0.21633 0.19529 0.68483 0.00500
C 	C 	0.28515 0.24854 0.67305 -0.05800
C 	C 	0.35320 0.25234 0.68163 0.01300
C 	C 	0.35205 0.20286 0.70252 0.01300
C 	C 	0.28255 0.14784 0.71358 -0.02100
C 	C 	0.42036 0.20806 0.71160 -0.05900
C 	C 	0.48860 0.25802 0.69856 0.00600
C 	C 	0.48911 0.30292 0.67624 -0.07700
C 	C 	0.42195 0.30269 0.66877 -0.01800
H 	H 	0.16421 0.19303 0.67804 0.03700
H 	H 	0.28543 0.28650 0.65714 0.04400
H 	H 	0.28129 0.10809 0.72892 0.04100
H 	H 	0.42039 0.17189 0.72819 0.04200
H 	H 	0.54032 0.25838 0.70464 0.04000
H 	H 	0.42261 0.33850 0.65189 0.04500
C 	C 	0.74976 0.62072 0.61448 -0.07800
C 	C 	0.82584 0.67074 0.60771 0.01100
C 	C 	0.87014 0.73242 0.62500 -0.05800
C 	C 	0.83776 0.74615 0.64859 0.01800
C 	C 	0.75860 0.70337 0.65272 0.01200
C 	C 	0.71456 0.64200 0.63509 -0.01800
C 	C 	0.72557 0.71852 0.67572 -0.05500
C 	C 	0.77128 0.77068 0.69587 0.00500
C 	C 	0.85082 0.80781 0.69345 -0.06200
C 	C 	0.88374 0.79849 0.66898 -0.02200
H 	H 	0.85173 0.65973 0.59006 0.03800
H 	H 	0.93007 0.76745 0.62067 0.04900
H 	H 	0.65451 0.60639 0.63921 0.04600
H 	H 	0.66462 0.68795 0.67856 0.04500
H 	H 	0.74483 0.78040 0.71384 0.03700
H 	H 	0.94477 0.82937 0.66631 0.05200
C 	C 	0.13565 0.57828 0.95915 -0.04200
C 	C 	0.07493 0.53014 0.94199 -0.03900
C 	C 	0.01084 0.46788 0.95344 0.00600
C 	C 	0.00944 0.45180 0.98208 -0.01300
C 	C 	0.06966 0.50116 0.99946 -0.00500
C 	C 	0.13264 0.56520 0.98801 0.01300
C 	C 	0.06537 0.48819 0.02841 0.01400
C 	C 	0.00325 0.42366 0.03962 -0.04800
C 	C 	0.94395 0.37410 0.02233 -0.03400
C 	C 	0.94562 0.38893 0.99368 0.02200
C 	C 	0.88194 0.34541 0.97696 -0.02300
C 	C 	0.87979 0.36717 0.94936 -0.06400
C 	C 	0.94603 0.42489 0.93709 -0.01000
C 	C 	0.19081 0.61622 0.00567 -0.01900
C 	C 	0.18530 0.60446 0.03465 -0.07300
C 	C 	0.12234 0.54048 0.04589 -0.01300
H 	H 	0.18421 0.62661 0.95007 0.03900
H 	H 	0.07710 0.54228 0.91990 0.03700
H 	H 	0.00025 0.41248 0.06181 0.03900
H 	H 	0.89563 0.32543 0.03139 0.03800
H 	H 	0.83146 0.29940 0.98614 0.04500
H 	H 	0.94493 0.44013 0.91548 0.04400
H 	H 	0.23968 0.66513 0.99698 0.04200
H 	H 	0.11839 0.53087 0.06823 0.01700
C 	C 	0.39242 0.02946 0.06129 -0.04400
C 	C 	0.41657 0.08134 0.03929 -0.04200
C 	C 	0.49297 0.11857 0.03107 0.01800
C 	C 	0.54642 0.10777 0.04642 -0.01000
C 	C 	0.52196 0.05495 0.06834 -0.00200
C 	C 	0.44425 0.01357 0.07506 0.01000
C 	C 	0.57405 0.03807 0.08166 0.00600
C 	C 	0.65141 0.07973 0.07496 -0.03800
C 	C 	0.67599 0.13334 0.05355 -0.04400
C 	C 	0.62338 0.14546 0.03849 0.01800
C 	C 	0.64592 0.19116 0.01465 -0.02500
C 	C 	0.59188 0.19761 0.99827 -0.05300
C 	C 	0.51596 0.16321 0.00688 -0.02700
C 	C 	0.41848 0.95136 0.09300 -0.01300
C 	C 	0.46860 0.92658 0.10201 -0.06700
C 	C 	0.54698 0.97460 0.09910 -0.01400
H 	H 	0.33282 0.99918 0.06676 0.04400
H 	H 	0.37542 0.09082 0.02815 0.03800
H 	H 	0.69217 0.06856 0.08556 0.03700
H 	H 	0.73556 0.16341 0.04802 0.04000
H 	H 	0.70474 0.21891 0.00809 0.04500
H 	H 	0.47476 0.16974 0.99445 0.03900
H 	H 	0.35817 0.91631 0.09679 0.04300
H 	H 	0.58604 0.95759 0.10750 0.04100
C 	C 	0.37000 0.54474 0.96217 -0.04300
C 	C 	0.40597 0.52322 0.94214 -0.04100
C 	C 	0.41273 0.45846 0.94627 0.01700
C 	C 	0.37614 0.41084 0.96923 -0.00700
C 	C 	0.34143 0.43335 0.98968 -0.00800
C 	C 	0.34145 0.50228 0.98669 0.01900
C 	C 	0.31447 0.39130 0.01455 0.01800
C 	C 	0.31419 0.32246 0.01728 -0.04200
C 	C 	0.34736 0.29930 0.99670 -0.04100
C 	C 	0.38198 0.34528 0.97337 0.01800
C 	C 	0.42951 0.33144 0.95605 -0.02500
C 	C 	0.47557 0.38556 0.93629 -0.05400
C 	C 	0.46212 0.44517 0.92968 -0.02500
C 	C 	0.32088 0.53177 0.00936 -0.02800
C 	C 	0.30457 0.49507 0.03529 -0.05300
C 	C 	0.29563 0.42239 0.03730 -0.02600
H 	H 	0.36794 0.59654 0.95928 0.03900
H 	H 	0.43152 0.55876 0.92408 0.04000
H 	H 	0.29134 0.28848 0.03588 0.04000
H 	H 	0.34974 0.24769 0.99965 0.03900
H 	H 	0.43730 0.28317 0.96004 0.04100
H 	H 	0.49550 0.48521 0.91358 0.04600
H 	H 	0.32486 0.58672 0.00765 0.04600
H 	H 	0.28046 0.39309 0.05716 0.04300
C 	C 	0.89294 0.12912 0.80680 -0.08100
C 	C 	0.94385 0.20067 0.81763 0.02200
C 	C 	0.91834 0.25085 0.82521 -0.06200
C 	C 	0.84156 0.23014 0.82210 0.01800
C 	C 	0.79063 0.15962 0.81026 0.01100
C 	C 	0.81629 0.10906 0.80294 -0.01400
C 	C 	0.71382 0.13907 0.80720 -0.05500
C 	C 	0.68641 0.18445 0.81864 0.00500
C 	C 	0.73558 0.25074 0.83310 -0.07500
C 	C 	0.81403 0.27662 0.83257 -0.01700
H 	H 	0.00307 0.21725 0.82047 0.02600
H 	H 	0.95805 0.30520 0.83405 0.04900
H 	H 	0.77655 0.05384 0.79480 0.04000
H 	H 	0.67465 0.08628 0.79721 0.04100
H 	H 	0.62604 0.16481 0.81831 0.03600
H 	H 	0.85250 0.32923 0.84288 0.04600
C 	C 	0.44966 0.13019 0.85955 -0.06800
C 	C 	0.38638 0.06745 0.87110 0.00500
C 	C 	0.31538 0.03683 0.85791 -0.06100
C 	C 	0.30676 0.07048 0.83355 0.01500
C 	C 	0.37136 0.13037 0.82100 0.01400
C 	C 	0.44314 0.15579 0.83301 -0.02000
C 	C 	0.36268 0.16865 0.79818 -0.05800
C 	C 	0.29033 0.14931 0.78842 0.00300
C 	C 	0.22581 0.08800 0.79999 -0.07200
C 	C 	0.23417 0.04801 0.82247 -0.02100
H 	H 	0.39082 0.04606 0.89129 0.03200
H 	H 	0.26653 0.98997 0.86751 0.04700
H 	H 	0.49261 0.20251 0.82356 0.03900
H 	H 	0.41186 0.21525 0.78860 0.04200
H 	H 	0.28452 0.18173 0.77166 0.03700
H 	H 	0.18448 0.00118 0.83173 0.04500
C 	C 	0.78920 0.57594 0.88522 -0.07500
C 	C 	0.76156 0.62606 0.89023 0.00800
C 	C 	0.79177 0.69445 0.87585 -0.05600
C 	C 	0.84988 0.71326 0.85632 0.01300
C 	C 	0.88184 0.66567 0.85289 0.01900
C 	C 	0.85150 0.59730 0.86751 -0.01700
C 	C 	0.94069 0.68500 0.83369 -0.06400
C 	C 	0.96352 0.74771 0.81644 0.02800
C 	C 	0.92731 0.79149 0.81803 -0.07700
C 	C 	0.87323 0.77639 0.83900 -0.01400
H 	H 	0.71405 0.61030 0.90419 0.04100
H 	H 	0.76802 0.73136 0.87913 0.04600
H 	H 	0.87389 0.55920 0.86415 0.04600
H 	H 	0.96720 0.65018 0.83151 0.04900
H 	H 	0.00778 0.76087 0.80121 0.02200
H 	H 	0.84681 0.81138 0.84095 0.04800
