data_crystal

_cell_length_a 20.30208
_cell_length_b 20.57117
_cell_length_c 35.10497
_cell_angle_alpha 95.46958
_cell_angle_beta  95.46917
_cell_angle_gamma 126.11438

_symmetry_space_group_name_	'P 1'
_symmetry_space_group_name_H-M	'P 1'

loop_
_symmetry_equiv_pos_as_xyz
  x,y,z

loop_
_atom_site_label
_atom_site_type_symbol
_atom_site_fract_x
_atom_site_fract_y
_atom_site_fract_z
_atom_site_charge
C 	C 	0.02946 0.95545 0.99180 -0.08900
C 	C 	0.07992 0.03980 0.99247 0.05300
C 	C 	0.04613 0.08288 0.99485 -0.08700
H 	H 	0.05561 0.92223 0.98996 0.06100
H 	H 	0.08505 0.14828 0.99520 0.05900
C 	C 	0.99958 0.92961 0.46390 -0.06700
C 	C 	0.04167 0.01258 0.46260 0.03600
C 	C 	0.99856 0.04607 0.46062 -0.06600
H 	H 	0.03342 0.90397 0.46537 0.05500
H 	H 	0.03166 0.11068 0.45974 0.05400
Cu	Cu	0.63378 0.22440 0.00574 0.93000
Cu	Cu	0.70785 0.24293 0.92550 0.87000
Cu	Cu	0.66775 0.34910 0.95489 0.89600
Cu	Cu	0.63300 0.37341 0.03336 0.89800
C 	C 	0.65541 0.28135 0.08734 0.29100
O 	O 	0.51209 0.17507 0.00543 -0.35200
C 	C 	0.64470 0.29715 0.86982 0.28800
O 	O 	0.69829 0.35138 0.00896 -0.63900
O 	O 	0.62109 0.23169 0.95018 -0.64300
O 	O 	0.68871 0.16995 0.00260 -0.36000
O 	O 	0.78255 0.26358 0.97012 -0.43900
O 	O 	0.61714 0.31302 0.07719 -0.37900
O 	O 	0.72162 0.46553 0.96119 -0.38300
C 	C 	0.72618 0.51243 0.99140 0.31300
C 	C 	0.47980 0.20988 0.99158 0.30100
O 	O 	0.52875 0.28615 0.98712 -0.39800
O 	O 	0.68136 0.48182 0.01863 -0.38800
O 	O 	0.66440 0.23818 0.06098 -0.35300
C 	C 	0.76018 0.20654 0.99092 0.31000
O 	O 	0.64489 0.34425 0.89848 -0.37500
O 	O 	0.65717 0.24274 0.87660 -0.41000
H 	H 	0.75864 0.38881 0.01968 0.16800
H 	H 	0.56437 0.19334 0.93435 0.18100
Cu	Cu	0.74459 0.33722 0.45528 0.92700
Cu	Cu	0.72840 0.26626 0.53621 0.87000
Cu	Cu	0.61670 0.30091 0.50596 0.89700
Cu	Cu	0.59112 0.33507 0.42729 0.90000
C 	C 	0.68259 0.31056 0.37372 0.29000
O 	O 	0.79324 0.45764 0.45545 -0.35400
C 	C 	0.67105 0.32629 0.59126 0.28800
O 	O 	0.61548 0.27218 0.45188 -0.63800
O 	O 	0.73649 0.34963 0.51079 -0.64200
O 	O 	0.79856 0.28117 0.45844 -0.36500
O 	O 	0.70432 0.19041 0.49184 -0.43900
O 	O 	0.65207 0.35000 0.38357 -0.37400
O 	O 	0.49814 0.24515 0.49926 -0.38200
C 	C 	0.45044 0.23907 0.46861 0.31600
C 	C 	0.75596 0.48823 0.46830 0.30300
O 	O 	0.67916 0.43871 0.47323 -0.39500
O 	O 	0.48148 0.28627 0.44246 -0.38700
O 	O 	0.73149 0.30761 0.39997 -0.35700
C 	C 	0.76056 0.21056 0.47028 0.31000
O 	O 	0.61997 0.32114 0.56243 -0.37600
O 	O 	0.72867 0.31762 0.58460 -0.41000
H 	H 	0.57847 0.21265 0.44109 0.16800
H 	H 	0.77424 0.40595 0.52634 0.18100
C 	C 	0.57165 0.30290 0.67979 -0.04000
C 	C 	0.64070 0.33943 0.71025 0.02100
C 	C 	0.72074 0.38199 0.70154 -0.05800
C 	C 	0.73206 0.38503 0.66282 0.02400
C 	C 	0.66225 0.34052 0.63210 -0.07900
C 	C 	0.58257 0.30257 0.64093 0.00700
C 	C 	0.62940 0.32736 0.75091 0.02100
C 	C 	0.58968 0.24852 0.75948 -0.05800
C 	C 	0.58728 0.23689 0.79815 0.02400
C 	C 	0.62976 0.30545 0.82897 -0.07900
C 	C 	0.66492 0.38371 0.82028 0.00700
C 	C 	0.66382 0.39477 0.78146 -0.04000
C 	C 	0.53821 0.15444 0.80579 0.07600
C 	C 	0.69795 0.47533 0.77323 0.09000
C 	C 	0.48949 0.26573 0.68817 0.09000
N 	N 	0.49884 0.08836 0.81188 -0.11400
N 	N 	0.72530 0.53986 0.76660 -0.11400
N 	N 	0.42369 0.23595 0.69490 -0.11400
H 	H 	0.52884 0.27063 0.61755 0.04500
H 	H 	0.77421 0.41214 0.72494 0.05300
H 	H 	0.56117 0.19623 0.73601 0.05300
H 	H 	0.69526 0.43635 0.84373 0.04500
C 	C 	0.75581 0.30662 0.27904 -0.03800
C 	C 	0.68382 0.27596 0.25160 0.02200
C 	C 	0.60906 0.24633 0.26433 -0.05800
C 	C 	0.60669 0.25192 0.30420 0.02400
C 	C 	0.68038 0.28949 0.33186 -0.07600
C 	C 	0.75399 0.31399 0.31900 0.01400
C 	C 	0.68702 0.27917 0.20967 0.02300
C 	C 	0.64866 0.20621 0.18268 -0.05900
C 	C 	0.64048 0.20612 0.14253 0.02700
C 	C 	0.67296 0.28045 0.12911 -0.07700
C 	C 	0.71491 0.35389 0.15624 0.00900
C 	C 	0.72120 0.35357 0.19630 -0.03900
C 	C 	0.59516 0.12906 0.11550 0.08500
C 	C 	0.76045 0.42947 0.22347 0.09200
C 	C 	0.52818 0.21779 0.31646 0.06200
N 	N 	0.55883 0.06730 0.09387 -0.10400
N 	N 	0.79188 0.49024 0.24525 -0.11300
N 	N 	0.46532 0.19045 0.32630 -0.12000
H 	H 	0.81042 0.34117 0.34007 0.05000
H 	H 	0.55302 0.22031 0.24319 0.05500
H 	H 	0.62254 0.14900 0.19294 0.05500
H 	H 	0.74036 0.41111 0.14608 0.03100
C 	C 	0.79112 0.57278 0.46812 -0.10600
C 	C 	0.12965 0.06357 0.46396 -0.00800
C 	C 	0.20336 0.10481 0.46522 -0.02500
C 	C 	0.28951 0.15186 0.46665 0.06800
C 	C 	0.36308 0.19166 0.46771 -0.10900
C 	C 	0.77089 0.59804 0.99141 -0.11000
C 	C 	0.80677 0.17473 0.99490 -0.11800
C 	C 	0.16653 0.08142 0.99128 -0.01600
C 	C 	0.23824 0.11145 0.99049 -0.02000
C 	C 	0.32172 0.14388 0.99005 0.06100
C 	C 	0.39338 0.17225 0.99029 -0.10700
C 	C 	0.96158 0.04077 0.99662 0.05500
C 	C 	0.91158 0.95625 0.99610 -0.08500
C 	C 	0.94557 0.91376 0.99360 0.05600
H 	H 	0.84627 0.92360 0.99735 0.06100
C 	C 	0.91304 0.99678 0.46035 0.04100
C 	C 	0.87035 0.91296 0.46183 -0.07400
C 	C 	0.91420 0.87952 0.46353 0.04300
H 	H 	0.80423 0.87454 0.46183 0.05800
C 	C 	0.81530 0.43663 0.65502 0.07600
N 	N 	0.88201 0.47803 0.64880 -0.11300
C 	C 	0.83193 0.33156 0.26644 0.09400
N 	N 	0.89290 0.35156 0.25632 -0.11200
C 	C 	0.81637 0.64247 0.46744 0.06300
C 	C 	0.84510 0.72379 0.46623 -0.02100
C 	C 	0.87290 0.79399 0.46502 -0.01000
C 	C 	0.87088 0.03405 0.46020 -0.01000
C 	C 	0.84192 0.07130 0.46070 -0.02500
C 	C 	0.81266 0.11920 0.46233 0.06300
C 	C 	0.78920 0.16128 0.46501 -0.11700
C 	C 	0.89462 0.82719 0.99288 -0.01500
C 	C 	0.85414 0.75474 0.99229 -0.02000
C 	C 	0.80876 0.67018 0.99171 0.06500
C 	C 	0.92477 0.08301 0.99751 -0.01500
C 	C 	0.88986 0.11432 0.99763 -0.02300
C 	C 	0.84575 0.14770 0.99678 0.06300
