data_crystal

_cell_length_a 30.60666
_cell_length_b 31.07317
_cell_length_c 35.06214
_cell_angle_alpha 95.54555
_cell_angle_beta  95.54487
_cell_angle_gamma 125.54745

_symmetry_space_group_name_	'P 1'
_symmetry_space_group_name_H-M	'P 1'

loop_
_symmetry_equiv_pos_as_xyz
  x,y,z

loop_
_atom_site_label
_atom_site_type_symbol
_atom_site_fract_x
_atom_site_fract_y
_atom_site_fract_z
_atom_site_charge
C 	C 	0.97619 0.02528 0.98829 0.12000
N 	N 	0.02972 0.05155 0.98562 -0.14200
C 	C 	0.05225 0.02463 0.98472 0.12000
N 	N 	0.02113 0.97142 0.98635 -0.14100
C 	C 	0.96771 0.94505 0.98901 0.12200
N 	N 	0.94529 0.97203 0.98999 -0.14100
C 	C 	0.94196 0.99438 0.44768 0.12100
N 	N 	0.99726 0.02664 0.45123 -0.14000
C 	C 	0.02565 0.00582 0.45540 0.11900
N 	N 	0.99860 0.95254 0.45588 -0.14000
C 	C 	0.94338 0.92006 0.45241 0.12000
N 	N 	0.91502 0.94104 0.44848 -0.13900
Cu	Cu	0.65193 0.25702 0.99726 0.93000
Cu	Cu	0.71423 0.28069 0.92305 0.86500
Cu	Cu	0.67639 0.34111 0.94842 0.89500
Cu	Cu	0.64402 0.35136 0.02359 0.89700
C 	C 	0.65689 0.28950 0.07805 0.29300
O 	O 	0.57072 0.22138 0.99185 -0.36000
C 	C 	0.67097 0.31478 0.86499 0.29000
O 	O 	0.69192 0.34054 0.00270 -0.64200
O 	O 	0.65004 0.26515 0.94234 -0.64600
O 	O 	0.68907 0.22181 0.99649 -0.36700
O 	O 	0.75665 0.28753 0.96979 -0.43700
O 	O 	0.63137 0.31008 0.06673 -0.37700
O 	O 	0.70783 0.41689 0.95483 -0.38100
C 	C 	0.70631 0.44609 0.98398 0.29300
C 	C 	0.54834 0.24298 0.97670 0.28600
O 	O 	0.57933 0.29428 0.97454 -0.39500
O 	O 	0.67670 0.42428 0.01100 -0.38800
O 	O 	0.66529 0.26217 0.05248 -0.35300
C 	C 	0.73808 0.24662 0.98785 0.29600
O 	O 	0.65831 0.33568 0.89259 -0.37400
O 	O 	0.68906 0.28613 0.87237 -0.41000
H 	H 	0.73097 0.36591 0.01534 0.16900
H 	H 	0.61478 0.23940 0.92400 0.18300
Cu	Cu	0.72680 0.33270 0.44849 0.93000
Cu	Cu	0.71043 0.27839 0.52618 0.86600
Cu	Cu	0.64348 0.30941 0.49939 0.89500
Cu	Cu	0.62831 0.33698 0.42308 0.89700
C 	C 	0.68952 0.32305 0.36741 0.29300
O 	O 	0.76178 0.41235 0.45130 -0.35800
C 	C 	0.67480 0.32073 0.58325 0.28900
O 	O 	0.64211 0.29225 0.44501 -0.64300
O 	O 	0.72137 0.33808 0.50399 -0.64400
O 	O 	0.76275 0.29603 0.44957 -0.36500
O 	O 	0.69928 0.23278 0.48019 -0.43700
O 	O 	0.66733 0.34705 0.37842 -0.37800
O 	O 	0.56602 0.27581 0.49412 -0.38000
C 	C 	0.53486 0.27565 0.46512 0.29400
C 	C 	0.73947 0.43453 0.46554 0.28500
O 	O 	0.68826 0.40372 0.46983 -0.39200
O 	O 	0.55578 0.30582 0.43840 -0.39000
O 	O 	0.71858 0.31633 0.39313 -0.35500
C 	C 	0.73842 0.24879 0.45998 0.29200
O 	O 	0.65075 0.32997 0.55518 -0.37300
O 	O 	0.70720 0.30680 0.57633 -0.41000
H 	H 	0.61674 0.25343 0.43327 0.16800
H 	H 	0.74719 0.37401 0.52099 0.18300
C 	C 	0.61527 0.31502 0.67452 -0.03900
C 	C 	0.66157 0.33617 0.70363 0.02100
C 	C 	0.71344 0.36073 0.69325 -0.04000
C 	C 	0.71834 0.36177 0.65377 0.02100
C 	C 	0.67090 0.33268 0.62430 -0.07600
C 	C 	0.61932 0.31087 0.63478 0.01800
C 	C 	0.65514 0.32886 0.74474 0.02100
C 	C 	0.76144 0.38351 0.72307 0.09500
C 	C 	0.57030 0.28237 0.60491 0.08200
C 	C 	0.63348 0.27804 0.75477 -0.04000
C 	C 	0.63258 0.27244 0.79412 0.02100
C 	C 	0.65920 0.31859 0.82387 -0.07700
C 	C 	0.67847 0.36902 0.81374 0.01900
C 	C 	0.67392 0.37339 0.77410 -0.03900
C 	C 	0.61350 0.23190 0.72472 0.09500
C 	C 	0.70485 0.41667 0.84390 0.08200
C 	C 	0.60285 0.21920 0.80395 0.08000
C 	C 	0.68921 0.42376 0.76348 0.09800
C 	C 	0.56342 0.29678 0.68551 0.09800
C 	C 	0.77203 0.39408 0.64351 0.08100
N 	N 	0.57911 0.17671 0.81178 -0.11600
N 	N 	0.59757 0.19513 0.70071 -0.11700
N 	N 	0.72592 0.45473 0.86791 -0.10700
N 	N 	0.70142 0.46394 0.75495 -0.11200
N 	N 	0.79971 0.40168 0.74689 -0.11600
N 	N 	0.81488 0.41989 0.63533 -0.11500
N 	N 	0.53113 0.25961 0.58113 -0.10700
N 	N 	0.52206 0.28222 0.69432 -0.11300
C 	C 	0.72233 0.30594 0.18126 -0.03800
C 	C 	0.67845 0.28973 0.20090 0.02100
C 	C 	0.62600 0.26705 0.17940 -0.03900
C 	C 	0.61809 0.26298 0.13860 0.02200
C 	C 	0.66334 0.28508 0.11958 -0.07500
C 	C 	0.71512 0.30477 0.14072 0.01800
C 	C 	0.68823 0.29997 0.24445 0.02100
C 	C 	0.58047 0.24888 0.19941 0.09600
C 	C 	0.76114 0.32480 0.12094 0.08000
C 	C 	0.70991 0.35155 0.26538 -0.03900
C 	C 	0.71436 0.36005 0.30620 0.02100
C 	C 	0.69350 0.31613 0.32582 -0.07500
C 	C 	0.67460 0.26521 0.30522 0.01800
C 	C 	0.67308 0.25749 0.26465 -0.03800
C 	C 	0.72673 0.39560 0.24478 0.09600
C 	C 	0.65580 0.22062 0.32558 0.08000
C 	C 	0.74182 0.41413 0.32815 0.08700
C 	C 	0.65543 0.20579 0.24359 0.09800
C 	C 	0.77494 0.32443 0.20288 0.09800
C 	C 	0.56329 0.23462 0.11603 0.08800
N 	N 	0.76372 0.45727 0.34566 -0.11100
N 	N 	0.74013 0.43070 0.22830 -0.11500
N 	N 	0.64084 0.18508 0.34187 -0.11200
N 	N 	0.64133 0.16455 0.22673 -0.11200
N 	N 	0.54418 0.23439 0.21542 -0.11500
N 	N 	0.51960 0.21200 0.09800 -0.10900
N 	N 	0.79782 0.34074 0.10514 -0.11200
N 	N 	0.81691 0.33919 0.22018 -0.11200
C 	C 	0.91447 0.86201 0.45196 -0.02200
C 	C 	0.87436 0.83565 0.47490 -0.01500
C 	C 	0.85182 0.78222 0.47804 -0.05100
C 	C 	0.86907 0.75486 0.45814 0.02800
C 	C 	0.90768 0.78052 0.43421 -0.05100
C 	C 	0.93028 0.83383 0.43111 -0.01500
C 	C 	0.84830 0.70092 0.46292 -0.01300
C 	C 	0.83175 0.65577 0.46627 -0.02000
C 	C 	0.81250 0.60173 0.46942 0.04200
C 	C 	0.83223 0.57744 0.44887 -0.06600
C 	C 	0.81047 0.52357 0.44925 0.01900
C 	C 	0.76846 0.49340 0.47007 -0.08500
C 	C 	0.75058 0.51869 0.49212 0.01600
C 	C 	0.77242 0.57259 0.49165 -0.06700
H 	H 	0.86186 0.85696 0.49117 0.04100
H 	H 	0.82168 0.76248 0.49639 0.04700
H 	H 	0.92079 0.75943 0.41845 0.04800
H 	H 	0.96070 0.85353 0.41295 0.04200
H 	H 	0.86358 0.59991 0.43188 0.05500
H 	H 	0.82499 0.50487 0.43228 0.04700
H 	H 	0.71898 0.49631 0.50892 0.03700
H 	H 	0.75743 0.59132 0.50799 0.05200
C 	C 	0.91140 0.01728 0.44256 -0.02200
C 	C 	0.86797 0.00181 0.46227 -0.01600
C 	C 	0.84261 0.02744 0.46032 -0.05100
C 	C 	0.86032 0.06849 0.43858 0.02800
C 	C 	0.90235 0.08270 0.41783 -0.05100
C 	C 	0.92779 0.05722 0.41977 -0.01500
C 	C 	0.83754 0.09812 0.43936 -0.01300
C 	C 	0.81845 0.12289 0.44003 -0.02200
C 	C 	0.79639 0.15316 0.44148 0.04300
C 	C 	0.82864 0.20709 0.43705 -0.06900
C 	C 	0.80905 0.23790 0.44167 0.01900
C 	C 	0.75695 0.21494 0.45091 -0.09200
C 	C 	0.72396 0.16023 0.45389 0.01800
C 	C 	0.74373 0.12959 0.44933 -0.07000
H 	H 	0.85492 0.97110 0.47996 0.04100
H 	H 	0.80999 0.01612 0.47634 0.04600
H 	H 	0.91601 0.11415 0.40075 0.04800
H 	H 	0.96068 0.06897 0.40395 0.04100
H 	H 	0.86931 0.22549 0.43077 0.05300
H 	H 	0.83493 0.27988 0.43908 0.04000
H 	H 	0.68334 0.14161 0.46029 0.03200
H 	H 	0.71841 0.08779 0.45251 0.05100
C 	C 	0.08564 0.04076 0.45896 -0.02200
C 	C 	0.11777 0.03117 0.48261 -0.01600
C 	C 	0.17431 0.06251 0.48446 -0.05100
C 	C 	0.19920 0.10368 0.46279 0.02800
C 	C 	0.16747 0.11403 0.43970 -0.05100
C 	C 	0.11087 0.08272 0.43778 -0.01500
C 	C 	0.25708 0.13430 0.46347 -0.01300
C 	C 	0.30558 0.15966 0.46427 -0.02100
C 	C 	0.36345 0.18947 0.46515 0.04400
C 	C 	0.39072 0.23551 0.44834 -0.06900
C 	C 	0.44670 0.26384 0.44844 0.02000
C 	C 	0.47585 0.24620 0.46536 -0.08500
C 	C 	0.44834 0.20012 0.48237 0.02200
C 	C 	0.39237 0.17193 0.48227 -0.06800
H 	H 	0.09897 0.99941 0.49949 0.04300
H 	H 	0.19867 0.05448 0.50252 0.04800
H 	H 	0.18651 0.14588 0.42289 0.04700
H 	H 	0.08659 0.09042 0.41927 0.04100
H 	H 	0.36858 0.24933 0.43512 0.05200
H 	H 	0.46740 0.29961 0.43558 0.03700
H 	H 	0.47014 0.18581 0.49530 0.03600
H 	H 	0.37148 0.13629 0.49529 0.05300
C 	C 	0.73437 0.50405 0.98430 -0.08800
C 	C 	0.71439 0.53072 0.00123 0.02300
C 	C 	0.74159 0.58581 0.00203 -0.06600
C 	C 	0.78881 0.61462 0.98591 0.04100
C 	C 	0.80856 0.58812 0.96869 -0.06800
C 	C 	0.78151 0.53306 0.96788 0.02300
C 	C 	0.81777 0.67162 0.98782 -0.02100
C 	C 	0.84248 0.71938 0.98919 -0.01300
C 	C 	0.87290 0.77649 0.99087 0.02600
C 	C 	0.92708 0.81115 0.01108 -0.04900
C 	C 	0.95769 0.86637 0.01117 -0.01100
C 	C 	0.93430 0.88734 0.99095 -0.02600
C 	C 	0.87957 0.85261 0.97138 -0.01400
C 	C 	0.84903 0.79734 0.97132 -0.05100
H 	H 	0.67773 0.50878 0.01359 0.03600
H 	H 	0.72604 0.60609 0.01530 0.05200
H 	H 	0.84511 0.61024 0.95620 0.05300
H 	H 	0.79757 0.51314 0.95493 0.03600
H 	H 	0.94567 0.79527 0.02641 0.04800
H 	H 	0.99963 0.89280 0.02682 0.04100
H 	H 	0.86109 0.86823 0.95556 0.04100
H 	H 	0.80709 0.77071 0.95568 0.04800
C 	C 	0.95169 0.05444 0.98955 -0.02500
C 	C 	0.89697 0.02824 0.97167 -0.01600
C 	C 	0.87297 0.05505 0.97421 -0.05000
C 	C 	0.90340 0.10822 0.99457 0.02300
C 	C 	0.95817 0.13477 0.01207 -0.04800
C 	C 	0.98231 0.10802 0.00957 -0.01200
C 	C 	0.87820 0.13534 0.99754 -0.01000
C 	C 	0.85604 0.15704 0.99956 -0.02900
C 	C 	0.82838 0.18181 0.00116 0.05300
C 	C 	0.85467 0.23479 0.99519 -0.07800
C 	C 	0.82588 0.25687 0.99249 0.02200
C 	C 	0.77033 0.22585 0.99546 -0.10000
C 	C 	0.74486 0.17351 0.00318 0.02700
C 	C 	0.77381 0.15163 0.00593 -0.07400
H 	H 	0.87306 0.98714 0.95577 0.04100
H 	H 	0.83067 0.03441 0.96045 0.04600
H 	H 	0.98195 0.17595 0.02780 0.04800
H 	H 	0.02444 0.12862 0.02371 0.04200
H 	H 	0.89705 0.25852 0.99182 0.05200
H 	H 	0.84649 0.29768 0.98738 0.03100
H 	H 	0.70226 0.14919 0.00592 0.04000
H 	H 	0.75336 0.11072 0.01082 0.05500
C 	C 	0.11050 0.05309 0.98277 -0.02500
C 	C 	0.13429 0.09027 0.95776 -0.01500
C 	C 	0.18844 0.11387 0.95366 -0.05100
C 	C 	0.21906 0.10056 0.97459 0.02600
C 	C 	0.19581 0.06448 0.00020 -0.04900
C 	C 	0.14179 0.04085 0.00431 -0.01200
C 	C 	0.27423 0.12350 0.96972 -0.01300
C 	C 	0.32054 0.14176 0.96652 -0.02100
C 	C 	0.37609 0.16300 0.96408 0.04200
C 	C 	0.39956 0.14002 0.98067 -0.06700
C 	C 	0.45531 0.16443 0.98287 0.01900
C 	C 	0.48818 0.21234 0.96860 -0.08600
C 	C 	0.46374 0.23346 0.94989 0.01600
C 	C 	0.40794 0.20899 0.94786 -0.06800
H 	H 	0.11053 0.09993 0.94089 0.04100
H 	H 	0.20632 0.14199 0.93395 0.04700
H 	H 	0.21945 0.05439 0.01670 0.04800
H 	H 	0.12412 0.01274 0.02405 0.04100
H 	H 	0.37497 0.10411 0.99293 0.05300
H 	H 	0.47322 0.14715 0.99693 0.04500
H 	H 	0.48817 0.26957 0.93785 0.03700
H 	H 	0.38985 0.22658 0.93456 0.05200
