data_crystal

_cell_length_a 19.31401
_cell_length_b 17.99492
_cell_length_c 26.58943
_cell_angle_alpha 95.42671
_cell_angle_beta  95.42651
_cell_angle_gamma 126.42319

_symmetry_space_group_name_	'P 1'
_symmetry_space_group_name_H-M	'P 1'

loop_
_symmetry_equiv_pos_as_xyz
  x,y,z

loop_
_atom_site_label
_atom_site_type_symbol
_atom_site_fract_x
_atom_site_fract_y
_atom_site_fract_z
_atom_site_charge
C 	C 	0.93363 0.02851 0.99654 0.08800
C 	C 	0.05461 0.02709 0.99628 0.14000
N 	N 	0.02047 0.07480 0.99716 -0.02200
N 	N 	0.02884 0.07763 0.46391 -0.03000
C 	C 	0.07549 0.04428 0.47163 0.14500
Cu	Cu	0.71862 0.31958 0.94459 0.94100
Cu	Cu	0.67994 0.20273 0.03718 0.89600
Cu	Cu	0.59303 0.28036 0.01703 0.91000
Cu	Cu	0.55179 0.31195 0.91325 0.94100
C 	C 	0.65331 0.30300 0.83903 0.33700
C 	C 	0.65198 0.28277 0.12433 0.34200
O 	O 	0.58332 0.24360 0.94364 -0.63300
O 	O 	0.71315 0.31986 0.01804 -0.63600
O 	O 	0.78580 0.26796 0.94269 -0.28300
O 	O 	0.68115 0.14429 0.97471 -0.37400
O 	O 	0.47750 0.25166 0.01558 -0.28200
C 	C 	0.41479 0.21351 0.97463 0.30600
O 	O 	0.43325 0.23111 0.92878 -0.32400
O 	O 	0.70394 0.29475 0.87101 -0.27900
C 	C 	0.75356 0.18658 0.95626 0.31900
O 	O 	0.60697 0.29906 0.09258 -0.29700
O 	O 	0.69379 0.25125 0.10728 -0.36600
H 	H 	0.54427 0.17484 0.93070 0.21200
Cu	Cu	0.73549 0.32132 0.44417 0.94200
Cu	Cu	0.71009 0.20611 0.53814 0.89800
Cu	Cu	0.60529 0.27141 0.51656 0.91600
Cu	Cu	0.59600 0.35931 0.42789 0.92700
C 	C 	0.67433 0.33160 0.34352 0.33900
C 	C 	0.66147 0.26334 0.62267 0.35000
O 	O 	0.60343 0.26391 0.44382 -0.63400
O 	O 	0.72850 0.31647 0.51808 -0.63100
O 	O 	0.78213 0.24854 0.43223 -0.28000
O 	O 	0.68159 0.13696 0.47194 -0.39000
O 	O 	0.48309 0.22012 0.50976 -0.31900
C 	C 	0.44353 0.24131 0.47761 0.31100
O 	O 	0.48869 0.31611 0.45625 -0.29900
O 	O 	0.71817 0.30897 0.37071 -0.28100
C 	C 	0.74456 0.16632 0.44578 0.31800
O 	O 	0.60244 0.25806 0.58940 -0.32200
O 	O 	0.71824 0.25232 0.60741 -0.36500
H 	H 	0.55783 0.20058 0.42284 0.22900
C 	C 	0.65581 0.29274 0.78360 -0.07800
C 	C 	0.66109 0.22367 0.75957 0.35600
C 	C 	0.66287 0.21425 0.70699 -0.06100
C 	C 	0.65840 0.27287 0.67780 -0.10700
H 	H 	0.66668 0.16062 0.68877 0.13200
F 	F 	0.66251 0.16436 0.78685 -0.36000
C 	C 	0.59264 0.29232 0.25496 -0.06800
C 	C 	0.66968 0.32210 0.28748 -0.08900
C 	C 	0.66020 0.30520 0.18040 -0.09200
C 	C 	0.58778 0.28391 0.20166 0.36800
F 	F 	0.51203 0.25260 0.17074 -0.35500
H 	H 	0.53609 0.27449 0.27097 0.14500
C 	C 	0.86783 0.07121 0.41019 0.01600
C 	C 	0.89138 0.05830 0.45828 0.09500
C 	C 	0.86619 0.08016 0.50217 -0.11400
C 	C 	0.81619 0.11305 0.49670 0.08100
C 	C 	0.79231 0.12587 0.44862 -0.02000
C 	C 	0.81598 0.10214 0.40449 -0.05000
C 	C 	0.78797 0.11162 0.35163 0.77200
H 	H 	0.88921 0.05607 0.37713 0.12000
H 	H 	0.79652 0.13001 0.53004 0.04100
C 	C 	0.89027 0.06579 0.55457 0.74400
F 	F 	0.79945 0.06484 0.31294 -0.39100
F 	F 	0.83750 0.20559 0.34799 -0.38700
F 	F 	0.70021 0.07375 0.34350 -0.40500
F 	F 	0.97915 0.10927 0.56587 -0.38500
F 	F 	0.87038 0.10318 0.59340 -0.40400
C 	C 	0.19901 0.09009 0.42800 0.03100
C 	C 	0.16994 0.10443 0.47158 0.09000
C 	C 	0.23122 0.16675 0.51677 -0.10300
C 	C 	0.32080 0.21108 0.51787 0.07900
C 	C 	0.34946 0.19396 0.47488 0.00900
C 	C 	0.28835 0.13299 0.42939 -0.06100
C 	C 	0.31832 0.11319 0.38256 0.77500
H 	H 	0.36861 0.25900 0.55216 0.11300
C 	C 	0.20118 0.18682 0.56345 0.79200
F 	F 	0.36657 0.08190 0.39616 -0.43400
F 	F 	0.36978 0.19455 0.36309 -0.42300
F 	F 	0.14308 0.10418 0.58038 -0.37500
F 	F 	0.16019 0.22623 0.55039 -0.35700
F 	F 	0.27057 0.24876 0.60379 -0.37700
C 	C 	0.84651 0.16819 0.01591 0.07800
C 	C 	0.80982 0.15733 0.96512 -0.01400
C 	C 	0.81890 0.10932 0.92419 -0.05000
C 	C 	0.86062 0.06835 0.93538 0.02100
C 	C 	0.89378 0.07566 0.98638 0.09600
C 	C 	0.88843 0.12751 0.02708 -0.11000
C 	C 	0.92598 0.13798 0.08238 0.74800
H 	H 	0.83998 0.20620 0.04680 0.05700
C 	C 	0.78220 0.09976 0.86888 0.77500
F 	F 	0.91445 0.19112 0.11657 -0.40300
F 	F 	0.01485 0.18187 0.08768 -0.33500
F 	F 	0.88496 0.05021 0.09548 -0.39500
F 	F 	0.81757 0.18793 0.85768 -0.38200
F 	F 	0.69208 0.04813 0.86202 -0.39400
C 	C 	0.27235 0.18538 0.95320 0.08300
C 	C 	0.32310 0.16568 0.98135 0.00900
C 	C 	0.28375 0.09616 0.01248 -0.04600
C 	C 	0.19795 0.05728 0.01966 0.02600
C 	C 	0.14638 0.07436 0.98990 0.09300
C 	C 	0.18225 0.13333 0.95310 -0.10200
C 	C 	0.12552 0.14041 0.91321 0.78900
H 	H 	0.30259 0.23915 0.92982 0.11100
C 	C 	0.33216 0.06304 0.03801 0.72700
F 	F 	0.16589 0.17316 0.87163 -0.37500
F 	F 	0.11153 0.20230 0.93491 -0.37800
F 	F 	0.04585 0.05329 0.89450 -0.39600
F 	F 	0.39226 0.12947 0.08063 -0.38500
F 	F 	0.37516 0.04890 0.00412 -0.44100
C 	C 	0.94090 0.02031 0.46210 0.08100
H 	H 	0.17045 0.01202 0.04766 0.13200
C 	C 	0.65259 0.34144 0.70166 0.37600
O 	O 	0.61842 0.34242 0.85623 -0.29800
F 	F 	0.80153 0.05488 0.83435 -0.38700
C 	C 	0.65151 0.35146 0.75426 -0.07600
H 	H 	0.86651 0.02962 0.90456 0.12500
C 	C 	0.74315 0.34691 0.26639 0.37400
C 	C 	0.73839 0.33869 0.21320 -0.06700
O 	O 	0.65146 0.38080 0.36586 -0.33500
H 	H 	0.77256 0.37606 0.54269 0.23400
H 	H 	0.15130 0.04299 0.39350 0.14100
H 	H 	0.79527 0.35729 0.19734 0.14000
F 	F 	0.81962 0.38051 0.29746 -0.36900
H 	H 	0.75933 0.37865 0.04264 0.20700
F 	F 	0.24828 0.04496 0.34397 -0.38000
F 	F 	0.65002 0.39985 0.67413 -0.37000
H 	H 	0.64808 0.40547 0.77230 0.17900
O 	O 	0.64231 0.42902 0.97610 -0.33100
O 	O 	0.76525 0.45665 0.95206 -0.29500
O 	O 	0.70229 0.45845 0.49117 -0.31900
O 	O 	0.80847 0.46336 0.45824 -0.30800
N 	N 	0.88175 0.93528 0.99806 -0.04000
C 	C 	0.91680 0.88859 0.00043 0.15500
N 	N 	0.00280 0.93419 0.99849 -0.01600
N 	N 	0.03393 0.95326 0.47623 -0.00300
C 	C 	0.94590 0.89531 0.47293 0.14900
N 	N 	0.89934 0.92886 0.46609 -0.02800
C 	C 	0.72496 0.48813 0.97186 0.28500
C 	C 	0.78193 0.50738 0.48160 0.30400
C 	C 	0.84400 0.63800 0.43362 0.07500
C 	C 	0.82861 0.60804 0.48089 0.00100
C 	C 	0.85208 0.67295 0.52585 -0.05700
C 	C 	0.88561 0.76569 0.52177 0.03200
C 	C 	0.90079 0.79539 0.47446 0.09100
C 	C 	0.87896 0.73100 0.42973 -0.10800
C 	C 	0.89421 0.76183 0.37803 0.79000
H 	H 	0.82670 0.58782 0.39962 0.10000
H 	H 	0.90138 0.81551 0.55555 0.14800
C 	C 	0.83981 0.64327 0.57789 0.77700
F 	F 	0.85985 0.68668 0.33828 -0.39100
F 	F 	0.98317 0.82557 0.37912 -0.40000
F 	F 	0.85464 0.80371 0.36748 -0.38800
F 	F 	0.86941 0.59058 0.58473 -0.41500
F 	F 	0.75197 0.59012 0.58083 -0.38900
F 	F 	0.88607 0.72039 0.61774 -0.37300
F 	F 	0.84445 0.97068 0.55441 -0.34400
C 	C 	0.80534 0.72983 0.94853 0.03800
C 	C 	0.85901 0.78580 0.99604 0.07400
C 	C 	0.86282 0.74327 0.03729 -0.08800
C 	C 	0.81857 0.64541 0.02850 0.07000
C 	C 	0.76745 0.58972 0.98029 0.01200
C 	C 	0.75894 0.63182 0.94009 -0.06500
C 	C 	0.70527 0.57334 0.88726 0.78000
H 	H 	0.80259 0.76344 0.91748 0.12800
H 	H 	0.82473 0.61251 0.05891 0.09100
C 	C 	0.91687 0.80235 0.08995 0.74400
F 	F 	0.69970 0.62605 0.85474 -0.38200
F 	F 	0.62092 0.50038 0.89140 -0.44500
F 	F 	0.74410 0.53742 0.86521 -0.42000
F 	F 	0.90149 0.86664 0.10412 -0.35600
F 	F 	0.00487 0.85004 0.08860 -0.32600
F 	F 	0.89608 0.74723 0.12726 -0.37900
F 	F 	0.27496 0.97874 0.05384 -0.31500
