data_crystal

_cell_length_a 30.18441
_cell_length_b 30.74101
_cell_length_c 17.45260
_cell_angle_alpha 95.53383
_cell_angle_beta  95.53501
_cell_angle_gamma 125.54214

_symmetry_space_group_name_	'P 1'
_symmetry_space_group_name_H-M	'P 1'

loop_
_symmetry_equiv_pos_as_xyz
  x,y,z

loop_
_atom_site_label
_atom_site_type_symbol
_atom_site_fract_x
_atom_site_fract_y
_atom_site_fract_z
_atom_site_charge
C 	C 	0.97687 0.02768 0.03072 0.10100
N 	N 	0.03039 0.05655 0.02006 -0.15000
C 	C 	0.05112 0.03008 0.99342 0.14800
N 	N 	0.01870 0.97495 0.97802 -0.13600
C 	C 	0.96554 0.94608 0.98888 0.14700
N 	N 	0.94456 0.97232 0.01506 -0.15100
C 	C 	0.94972 0.00071 0.34953 0.10600
N 	N 	0.00571 0.03224 0.37275 -0.13400
C 	C 	0.03136 0.00949 0.39339 0.11500
N 	N 	0.00092 0.95501 0.39069 -0.13200
C 	C 	0.94497 0.92324 0.36813 0.11200
N 	N 	0.91925 0.94607 0.34770 -0.13700
Cu	Cu	0.65236 0.26056 0.01163 0.92000
Cu	Cu	0.73161 0.27912 0.88540 0.86400
Cu	Cu	0.68162 0.33476 0.89195 0.89600
Cu	Cu	0.63256 0.35107 0.02305 0.88500
C 	C 	0.65033 0.30906 0.15833 0.19500
O 	O 	0.56865 0.21826 0.98476 -0.35000
C 	C 	0.70060 0.30373 0.74162 0.19400
O 	O 	0.68804 0.34264 0.00398 -0.65200
O 	O 	0.65981 0.26088 0.90062 -0.63600
O 	O 	0.69142 0.22828 0.03838 -0.37100
O 	O 	0.76607 0.29125 0.99035 -0.41800
O 	O 	0.61894 0.32006 0.12063 -0.36000
O 	O 	0.70901 0.40925 0.88799 -0.37900
C 	C 	0.70271 0.43973 0.93768 0.28700
C 	C 	0.54475 0.23492 0.94225 0.28600
O 	O 	0.57506 0.28424 0.92701 -0.38900
O 	O 	0.66206 0.41775 0.97778 -0.37900
O 	O 	0.65811 0.27479 0.12267 -0.32600
C 	C 	0.74315 0.25236 0.03132 0.29300
O 	O 	0.67720 0.32275 0.77871 -0.34200
O 	O 	0.71590 0.27632 0.77476 -0.39000
H 	H 	0.72582 0.37139 0.03407 0.15800
H 	H 	0.62737 0.23102 0.86104 0.17700
Cu	Cu	0.72645 0.33602 0.38323 0.92700
Cu	Cu	0.72793 0.27476 0.52474 0.86300
Cu	Cu	0.65909 0.31227 0.51341 0.89400
Cu	Cu	0.62793 0.34614 0.37517 0.89400
C 	C 	0.66636 0.32521 0.23591 0.19400
O 	O 	0.76392 0.41751 0.39669 -0.36400
C 	C 	0.70290 0.30643 0.66602 0.19200
O 	O 	0.64416 0.29784 0.40065 -0.64000
O 	O 	0.73484 0.33834 0.49758 -0.64100
O 	O 	0.76166 0.29942 0.35849 -0.37100
O 	O 	0.70699 0.23224 0.42346 -0.44300
O 	O 	0.65311 0.35463 0.27248 -0.35700
O 	O 	0.58315 0.28085 0.52431 -0.38300
C 	C 	0.54730 0.28131 0.47534 0.30800
C 	C 	0.74663 0.44108 0.43803 0.30300
O 	O 	0.69920 0.41099 0.46122 -0.39700
O 	O 	0.56379 0.31764 0.42943 -0.39400
O 	O 	0.70377 0.32080 0.27183 -0.32400
C 	C 	0.74096 0.25086 0.37381 0.31500
O 	O 	0.67761 0.32366 0.62760 -0.34000
O 	O 	0.73643 0.29873 0.63435 -0.38900
H 	H 	0.61580 0.25909 0.37613 0.16200
H 	H 	0.76515 0.37367 0.53131 0.17600
C 	C 	0.91262 0.86424 0.36613 -0.02000
C 	C 	0.92910 0.83460 0.32909 -0.02100
C 	C 	0.90577 0.78130 0.33939 -0.04900
C 	C 	0.86584 0.75713 0.38703 0.01200
C 	C 	0.84728 0.78573 0.42094 -0.04800
C 	C 	0.87050 0.83908 0.41033 -0.02100
C 	C 	0.84506 0.70272 0.40365 0.00700
C 	C 	0.78883 0.65889 0.37919 -0.04400
C 	C 	0.76989 0.60673 0.39073 -0.03100
C 	C 	0.80699 0.59802 0.42677 -0.01000
C 	C 	0.86295 0.64190 0.45264 -0.03100
C 	C 	0.88194 0.69413 0.44128 -0.04300
C 	C 	0.78795 0.54357 0.43372 0.04400
C 	C 	0.77035 0.49726 0.43725 -0.11200
H 	H 	0.96118 0.85345 0.29419 0.03800
H 	H 	0.91960 0.75920 0.31174 0.04000
H 	H 	0.81608 0.76724 0.45724 0.04200
H 	H 	0.85746 0.86156 0.43919 0.03900
H 	H 	0.76005 0.66506 0.35007 0.03900
H 	H 	0.72654 0.57298 0.37062 0.03500
H 	H 	0.89185 0.63552 0.48067 0.03800
H 	H 	0.92536 0.72777 0.46091 0.04000
C 	C 	0.92223 0.02617 0.32806 -0.01700
C 	C 	0.86873 0.00448 0.34254 -0.02900
C 	C 	0.84583 0.03257 0.33164 -0.04600
C 	C 	0.87621 0.08267 0.30641 0.00900
C 	C 	0.92872 0.10326 0.28903 -0.04500
C 	C 	0.95131 0.07488 0.29884 -0.02300
C 	C 	0.85521 0.11578 0.30494 0.00800
C 	C 	0.80272 0.09395 0.26124 -0.04300
C 	C 	0.78046 0.12313 0.26715 -0.02900
C 	C 	0.81069 0.17436 0.31632 -0.01200
C 	C 	0.86429 0.19741 0.35641 -0.03100
C 	C 	0.88643 0.16824 0.35097 -0.04500
C 	C 	0.78480 0.20070 0.33250 0.04800
C 	C 	0.76420 0.22332 0.34962 -0.12200
H 	H 	0.84567 0.96693 0.36485 0.04500
H 	H 	0.80531 0.01635 0.34546 0.03900
H 	H 	0.95215 0.14141 0.26826 0.04100
H 	H 	0.99184 0.09124 0.28493 0.04000
H 	H 	0.77887 0.05413 0.22383 0.03800
H 	H 	0.73933 0.10539 0.23491 0.03900
H 	H 	0.88810 0.23719 0.39399 0.03400
H 	H 	0.92713 0.18569 0.38448 0.03900
C 	C 	0.09216 0.04371 0.41775 -0.01800
C 	C 	0.12610 0.08795 0.38142 -0.02100
C 	C 	0.18376 0.11834 0.40125 -0.04700
C 	C 	0.20804 0.10487 0.45766 0.01100
C 	C 	0.17423 0.06155 0.49537 -0.04500
C 	C 	0.11657 0.03111 0.47557 -0.02700
C 	C 	0.26865 0.13437 0.47422 0.00800
C 	C 	0.30358 0.19047 0.50471 -0.04300
C 	C 	0.36106 0.21943 0.51296 -0.03000
C 	C 	0.38392 0.19250 0.49090 -0.00900
C 	C 	0.34922 0.13613 0.46337 -0.03100
C 	C 	0.29175 0.10712 0.45506 -0.04400
C 	C 	0.44207 0.22342 0.48841 0.04600
C 	C 	0.49039 0.24964 0.48384 -0.10900
H 	H 	0.10784 0.09800 0.33654 0.04100
H 	H 	0.20957 0.15164 0.37166 0.04200
H 	H 	0.19265 0.05116 0.53945 0.04100
H 	H 	0.09088 0.99762 0.50492 0.04800
H 	H 	0.28615 0.21176 0.52036 0.04200
H 	H 	0.38766 0.26301 0.53441 0.04000
H 	H 	0.36663 0.11504 0.44623 0.03600
H 	H 	0.26512 0.06379 0.43164 0.04000
C 	C 	0.73433 0.49842 0.93711 -0.06500
C 	C 	0.74757 0.53467 0.00580 -0.00800
C 	C 	0.77472 0.58993 0.00486 -0.08900
C 	C 	0.78890 0.60958 0.93524 0.05100
C 	C 	0.77658 0.57364 0.86676 -0.06900
C 	C 	0.74943 0.51824 0.86765 0.01300
C 	C 	0.81691 0.66784 0.93440 -0.00600
C 	C 	0.87157 0.70023 0.92158 -0.03000
C 	C 	0.90009 0.75647 0.92865 -0.04200
C 	C 	0.87414 0.78062 0.94855 0.01600
C 	C 	0.81901 0.74816 0.95903 -0.04100
C 	C 	0.79041 0.69190 0.95185 -0.02900
C 	C 	0.90507 0.83889 0.96225 0.00900
C 	C 	0.93201 0.88780 0.97432 -0.03900
H 	H 	0.73672 0.51996 0.05994 0.02500
H 	H 	0.78472 0.61753 0.05823 0.04600
H 	H 	0.78754 0.58852 0.81277 0.04900
H 	H 	0.73924 0.49069 0.81413 0.04100
H 	H 	0.89237 0.68203 0.90810 0.03900
H 	H 	0.94268 0.78135 0.92021 0.04500
H 	H 	0.79863 0.76657 0.97407 0.04700
H 	H 	0.74807 0.66714 0.96132 0.04300
C 	C 	0.95302 0.05621 0.05563 -0.01400
C 	C 	0.97622 0.10920 0.04222 -0.03800
C 	C 	0.95019 0.13377 0.05794 -0.04300
C 	C 	0.90059 0.10565 0.08692 0.00600
C 	C 	0.87844 0.05355 0.10301 -0.04200
C 	C 	0.90487 0.02925 0.08847 -0.03200
C 	C 	0.86922 0.12856 0.09316 0.00800
C 	C 	0.81525 0.09997 0.04971 -0.04600
C 	C 	0.78852 0.12476 0.04594 -0.03300
C 	C 	0.81558 0.17839 0.08513 -0.01200
C 	C 	0.86810 0.20589 0.13249 -0.03100
C 	C 	0.89480 0.18096 0.13680 -0.04400
C 	C 	0.79174 0.20665 0.07010 0.04200
C 	C 	0.77044 0.22860 0.05397 -0.12000
H 	H 	0.01340 0.13073 0.01728 0.04700
H 	H 	0.96751 0.17390 0.04494 0.03500
H 	H 	0.84060 0.03179 0.12645 0.03900
H 	H 	0.88746 0.98918 0.10176 0.04700
H 	H 	0.79488 0.05935 0.01641 0.03600
H 	H 	0.74760 0.10300 0.01007 0.03100
H 	H 	0.88881 0.24698 0.16430 0.03700
H 	H 	0.93582 0.20282 0.17234 0.03800
C 	C 	0.48369 0.20391 0.92837 -0.09000
C 	C 	0.45218 0.16267 0.97091 0.03100
C 	C 	0.39686 0.14164 0.97107 -0.04100
C 	C 	0.37233 0.16125 0.92835 0.01500
C 	C 	0.40229 0.19923 0.88103 -0.05900
C 	C 	0.45763 0.22025 0.88063 0.01000
C 	C 	0.31679 0.14483 0.93748 0.02600
C 	C 	0.27217 0.11401 0.87391 -0.03900
C 	C 	0.21888 0.09565 0.88411 -0.04200
C 	C 	0.20994 0.10809 0.95783 0.03600
C 	C 	0.25477 0.14035 0.02071 -0.06200
C 	C 	0.30805 0.15874 0.01059 -0.05800
C 	C 	0.15425 0.08302 0.97088 0.00600
C 	C 	0.10734 0.06013 0.98160 -0.03500
H 	H 	0.47112 0.14858 0.00656 0.01900
H 	H 	0.37356 0.11134 0.00636 0.02600
H 	H 	0.38332 0.21383 0.84666 0.04700
H 	H 	0.48078 0.25072 0.84552 0.03700
H 	H 	0.27856 0.10332 0.81716 0.04100
H 	H 	0.18438 0.07065 0.83523 0.04500
H 	H 	0.24818 0.15011 0.07786 0.04200
H 	H 	0.34238 0.18306 0.05979 0.03800
