data_crystal

_cell_length_a 26.58470
_cell_length_b 26.94947
_cell_length_c 35.03846
_cell_angle_alpha 95.53741
_cell_angle_beta  95.53656
_cell_angle_gamma 125.64297

_symmetry_space_group_name_	'P 1'
_symmetry_space_group_name_H-M	'P 1'

loop_
_symmetry_equiv_pos_as_xyz
  x,y,z

loop_
_atom_site_label
_atom_site_type_symbol
_atom_site_fract_x
_atom_site_fract_y
_atom_site_fract_z
_atom_site_charge
C 	C 	0.09421 0.11265 0.01059 -0.09700
C 	C 	0.11591 0.07614 0.00747 0.06000
C 	C 	0.07425 0.01207 0.00729 -0.08900
H 	H 	0.12591 0.16187 0.00997 0.05700
H 	H 	0.09046 0.98341 0.00403 0.05300
C 	C 	0.94883 0.99315 0.45502 -0.10300
C 	C 	0.98421 0.97064 0.46222 0.06400
C 	C 	0.95449 0.91017 0.46994 -0.09800
H 	H 	0.97174 0.03983 0.44918 0.06000
H 	H 	0.98218 0.89363 0.47731 0.05900
C 	C 	0.08236 0.99471 0.44423 -0.04700
C 	C 	0.05323 0.01248 0.46451 -0.05700
H 	H 	0.05625 0.94713 0.42852 0.04300
H 	H 	0.07972 0.05997 0.48049 0.04800
C 	C 	0.18173 0.10491 0.00269 -0.06000
H 	H 	0.20301 0.14070 0.98499 0.04900
C 	C 	0.03161 0.08573 0.01429 0.06100
C 	C 	0.01174 0.98506 0.01154 0.05200
C 	C 	0.99093 0.02221 0.01582 -0.08900
H 	H 	0.94312 0.00170 0.02005 0.05700
C 	C 	0.88399 0.95559 0.45548 0.06800
C 	C 	0.88918 0.87184 0.46928 0.06600
C 	C 	0.85423 0.89477 0.46202 -0.10100
H 	H 	0.80404 0.86560 0.46208 0.05800
Cu	Cu	0.69623 0.29769 0.00967 0.92900
Cu	Cu	0.73761 0.27820 0.92738 0.87400
Cu	Cu	0.72640 0.38063 0.94863 0.90100
Cu	Cu	0.69759 0.41621 0.02456 0.90100
C 	C 	0.70047 0.34791 0.08666 0.30600
O 	O 	0.60444 0.25869 0.00964 -0.36800
C 	C 	0.69904 0.31868 0.86671 0.30800
O 	O 	0.74439 0.39139 0.00433 -0.63700
O 	O 	0.68336 0.29116 0.95222 -0.64000
O 	O 	0.73723 0.25533 0.01488 -0.37200
O 	O 	0.80024 0.30566 0.97185 -0.44200
O 	O 	0.70728 0.39803 0.07784 -0.36300
O 	O 	0.77316 0.46887 0.94936 -0.37500
C 	C 	0.76921 0.50671 0.97347 0.31000
C 	C 	0.57698 0.28269 0.99599 0.31400
O 	O 	0.61074 0.33774 0.98650 -0.38100
O 	O 	0.72448 0.48480 0.99464 -0.38600
O 	O 	0.71842 0.31964 0.06533 -0.36100
C 	C 	0.78686 0.27249 0.99943 0.31300
O 	O 	0.72343 0.37091 0.89164 -0.37000
O 	O 	0.69426 0.27117 0.87819 -0.41100
H 	H 	0.78999 0.41919 0.01573 0.16800
H 	H 	0.63874 0.26398 0.93868 0.18000
Cu	Cu	0.66978 0.28514 0.43484 0.93000
Cu	Cu	0.69029 0.25294 0.52038 0.87600
Cu	Cu	0.58816 0.26507 0.49600 0.89800
Cu	Cu	0.55052 0.28490 0.41686 0.89600
C 	C 	0.61923 0.27515 0.35686 0.30800
O 	O 	0.70886 0.37407 0.43020 -0.37200
C 	C 	0.65180 0.29844 0.57873 0.30700
O 	O 	0.57552 0.24067 0.44062 -0.63800
O 	O 	0.67822 0.30446 0.49213 -0.64100
O 	O 	0.71231 0.24407 0.43289 -0.36700
O 	O 	0.66193 0.18743 0.47828 -0.44000
O 	O 	0.56932 0.27141 0.36433 -0.37300
O 	O 	0.49915 0.22097 0.49611 -0.37900
C 	C 	0.45929 0.21855 0.46904 0.30900
C 	C 	0.68741 0.40412 0.44361 0.30600
O 	O 	0.63089 0.37355 0.45253 -0.38700
O 	O 	0.47966 0.25944 0.44554 -0.39000
O 	O 	0.64571 0.25703 0.37969 -0.34800
C 	C 	0.69528 0.19746 0.45080 0.31600
O 	O 	0.59944 0.27550 0.55350 -0.38100
O 	O 	0.69902 0.30054 0.56788 -0.39600
H 	H 	0.54677 0.19510 0.43120 0.17200
H 	H 	0.70672 0.34926 0.50399 0.18200
C 	C 	0.71420 0.36571 0.68655 -0.07100
C 	C 	0.66273 0.32136 0.70220 0.02400
C 	C 	0.60474 0.27532 0.67716 0.05700
C 	C 	0.60017 0.27125 0.63666 -0.00600
C 	C 	0.65323 0.31232 0.62082 -0.09000
C 	C 	0.70963 0.36182 0.64601 0.11800
C 	C 	0.67137 0.32007 0.74431 0.02700
N 	N 	0.55091 0.23136 0.69272 -0.01700
H 	H 	0.55624 0.23395 0.61750 0.06200
N 	N 	0.76211 0.40842 0.63054 -0.02200
H 	H 	0.75818 0.40253 0.70586 0.07900
C 	C 	0.70353 0.29707 0.75934 0.05400
C 	C 	0.71154 0.29614 0.79926 -0.00300
C 	C 	0.68733 0.31748 0.82449 -0.09300
C 	C 	0.65429 0.33967 0.80937 0.12000
C 	C 	0.64708 0.34142 0.76943 -0.07300
N 	N 	0.72839 0.27485 0.73409 -0.01600
H 	H 	0.73711 0.27921 0.81072 0.05000
N 	N 	0.62671 0.35900 0.83425 -0.02300
H 	H 	0.62174 0.35850 0.75784 0.08100
O 	O 	0.81810 0.42378 0.64258 -0.10200
O 	O 	0.75459 0.43809 0.60618 -0.10900
O 	O 	0.50013 0.22841 0.68647 -0.10100
O 	O 	0.55085 0.19099 0.71034 -0.09300
O 	O 	0.58493 0.32014 0.85322 -0.10800
O 	O 	0.63994 0.41392 0.83574 -0.10100
O 	O 	0.78834 0.30010 0.74062 -0.10800
O 	O 	0.69056 0.22672 0.70623 -0.09800
C 	C 	0.63480 0.32527 0.17996 -0.07000
C 	C 	0.67377 0.31618 0.20315 0.02400
C 	C 	0.72032 0.31538 0.18759 0.05700
C 	C 	0.72754 0.32399 0.14910 -0.00400
C 	C 	0.68936 0.33439 0.12613 -0.08500
C 	C 	0.64231 0.33440 0.14166 0.11500
C 	C 	0.66518 0.30715 0.24366 0.02800
N 	N 	0.76095 0.30675 0.21095 -0.01600
H 	H 	0.76410 0.32438 0.13750 0.06700
N 	N 	0.60134 0.34263 0.11837 -0.02500
H 	H 	0.59838 0.32502 0.19167 0.07800
C 	C 	0.67912 0.35620 0.27224 0.05500
C 	C 	0.66368 0.34500 0.30912 -0.00500
C 	C 	0.63576 0.28572 0.31812 -0.08900
C 	C 	0.62344 0.23704 0.28995 0.12300
C 	C 	0.63826 0.24805 0.25289 -0.07400
N 	N 	0.70882 0.41740 0.26384 -0.01600
H 	H 	0.67397 0.38267 0.33094 0.05400
N 	N 	0.59454 0.17608 0.29854 -0.02200
H 	H 	0.62731 0.21021 0.23095 0.08100
O 	O 	0.59974 0.38903 0.12964 -0.10500
O 	O 	0.56154 0.30066 0.08795 -0.11900
O 	O 	0.76478 0.26213 0.19869 -0.10100
O 	O 	0.79739 0.34608 0.24309 -0.09000
O 	O 	0.53839 0.14533 0.30694 -0.10100
O 	O 	0.62220 0.14938 0.29485 -0.09400
O 	O 	0.68359 0.44614 0.26961 -0.10500
O 	O 	0.76292 0.44581 0.25264 -0.09100
C 	C 	0.75147 0.57497 0.46840 0.00700
C 	C 	0.72260 0.60323 0.45869 -0.03300
C 	C 	0.75942 0.66655 0.45703 -0.04500
C 	C 	0.82552 0.70235 0.46564 0.02800
C 	C 	0.85436 0.67457 0.47660 -0.04500
C 	C 	0.81756 0.61140 0.47860 -0.03200
C 	C 	0.86461 0.76780 0.46055 -0.03900
C 	C 	0.85748 0.80897 0.47870 -0.06200
C 	C 	0.71236 0.50687 0.46660 0.01100
C 	C 	0.72727 0.47241 0.44797 -0.14800
H 	H 	0.67171 0.57578 0.45128 0.04200
H 	H 	0.73664 0.68744 0.44821 0.04500
H 	H 	0.90528 0.70186 0.48345 0.04600
H 	H 	0.84037 0.59059 0.48751 0.04500
H 	H 	0.89923 0.78228 0.44175 0.04300
H 	H 	0.82314 0.79418 0.49776 0.04900
H 	H 	0.66904 0.48454 0.47814 0.04000
H 	H 	0.76959 0.49498 0.43534 0.08400
C 	C 	0.82439 0.05408 0.46833 0.02600
C 	C 	0.81494 0.07537 0.50305 -0.04600
C 	C 	0.77718 0.09577 0.50180 -0.03400
C 	C 	0.74955 0.09630 0.46582 0.00400
C 	C 	0.75851 0.07449 0.43096 -0.03200
C 	C 	0.79629 0.05404 0.43221 -0.04500
C 	C 	0.71083 0.11924 0.46503 0.01000
C 	C 	0.72221 0.16319 0.44436 -0.15500
C 	C 	0.86580 0.03420 0.47012 -0.03600
C 	C 	0.84678 0.97970 0.44921 -0.06700
H 	H 	0.83668 0.07587 0.53102 0.04500
H 	H 	0.77011 0.11203 0.52882 0.03800
H 	H 	0.73635 0.07351 0.40299 0.04700
H 	H 	0.80410 0.03866 0.40519 0.04700
H 	H 	0.67799 0.10546 0.48503 0.03300
H 	H 	0.75561 0.17739 0.42471 0.08800
H 	H 	0.90953 0.06145 0.49150 0.04200
H 	H 	0.80063 0.94994 0.43027 0.04900
C 	C 	0.27960 0.12144 0.44232 0.00600
C 	C 	0.23963 0.13836 0.43326 -0.03300
C 	C 	0.17536 0.09729 0.43407 -0.04700
C 	C 	0.15045 0.03875 0.44387 0.03000
C 	C 	0.19004 0.02105 0.45170 -0.04400
C 	C 	0.25436 0.06219 0.45100 -0.03400
C 	C 	0.34741 0.16489 0.44097 0.00900
C 	C 	0.39167 0.17855 0.47099 -0.14500
H 	H 	0.25839 0.18342 0.42574 0.04200
H 	H 	0.14486 0.11074 0.42679 0.04500
H 	H 	0.17106 0.97553 0.45849 0.04200
H 	H 	0.28443 0.04787 0.45688 0.04300
H 	H 	0.36108 0.18717 0.41578 0.03500
H 	H 	0.37759 0.15738 0.49655 0.08400
C 	C 	0.92165 0.80840 0.99011 0.02800
C 	C 	0.88211 0.76365 0.95634 -0.04700
C 	C 	0.84489 0.70044 0.95819 -0.03300
C 	C 	0.84794 0.68136 0.99374 0.00700
C 	C 	0.88709 0.72612 0.02756 -0.03400
C 	C 	0.92431 0.78932 0.02572 -0.04700
C 	C 	0.80847 0.61468 0.99610 0.01000
C 	C 	0.80661 0.57295 0.97041 -0.14300
C 	C 	0.96325 0.87488 0.98743 -0.04300
C 	C 	0.96877 0.91843 0.01364 -0.05700
H 	H 	0.87999 0.77787 0.92871 0.04600
H 	H 	0.81356 0.66637 0.93207 0.04700
H 	H 	0.88938 0.71189 0.05517 0.04100
H 	H 	0.95580 0.82335 0.05182 0.04400
H 	H 	0.78410 0.60037 0.02054 0.03700
H 	H 	0.83456 0.58819 0.94760 0.08400
H 	H 	0.98759 0.88807 0.96289 0.04300
H 	H 	0.93955 0.90467 0.03583 0.04700
C 	C 	0.89256 0.22094 0.99243 0.00200
C 	C 	0.91128 0.21167 0.02829 -0.03200
C 	C 	0.93250 0.17487 0.02910 -0.04700
C 	C 	0.93608 0.14787 0.99407 0.02700
C 	C 	0.91797 0.15772 0.95837 -0.04800
C 	C 	0.89697 0.19463 0.95757 -0.03400
C 	C 	0.95540 0.10642 0.99436 -0.03900
C 	C 	0.00916 0.12463 0.01710 -0.06300
C 	C 	0.86908 0.25884 0.99102 0.01000
C 	C 	0.82105 0.24607 0.00862 -0.15800
H 	H 	0.90924 0.23279 0.05545 0.04500
H 	H 	0.94548 0.16682 0.05683 0.04600
H 	H 	0.92024 0.13681 0.93121 0.04400
H 	H 	0.88318 0.20200 0.92980 0.03500
H 	H 	0.92816 0.06279 0.97345 0.04300
H 	H 	0.03928 0.17061 0.03551 0.04800
H 	H 	0.88613 0.29237 0.97168 0.03100
H 	H 	0.80376 0.21216 0.02771 0.08500
C 	C 	0.28302 0.12085 0.01842 0.02700
C 	C 	0.32820 0.13988 0.05175 -0.04400
C 	C 	0.39054 0.16567 0.04852 -0.03200
C 	C 	0.40840 0.17290 0.01193 0.01100
C 	C 	0.36307 0.15292 0.97838 -0.03400
C 	C 	0.30057 0.12673 0.98157 -0.04400
C 	C 	0.47409 0.19885 0.00885 0.01500
C 	C 	0.50812 0.24829 0.99173 -0.14100
C 	C 	0.21659 0.09071 0.02210 -0.04000
H 	H 	0.31496 0.13460 0.08020 0.04700
H 	H 	0.42505 0.18024 0.07449 0.05400
H 	H 	0.37604 0.15678 0.94985 0.04500
H 	H 	0.26566 0.11004 0.95541 0.04500
H 	H 	0.49681 0.18198 0.02464 0.04900
H 	H 	0.48583 0.26664 0.97733 0.08300
H 	H 	0.19731 0.05966 0.04287 0.04300
