data_crystal

_cell_length_a 26.24839
_cell_length_b 26.43695
_cell_length_c 35.05377
_cell_angle_alpha 95.51323
_cell_angle_beta  95.51020
_cell_angle_gamma 125.84574

_symmetry_space_group_name_	'P 1'
_symmetry_space_group_name_H-M	'P 1'

loop_
_symmetry_equiv_pos_as_xyz
  x,y,z

loop_
_atom_site_label
_atom_site_type_symbol
_atom_site_fract_x
_atom_site_fract_y
_atom_site_fract_z
_atom_site_charge
C 	C 	0.96328 0.02460 0.97428 0.11800
C 	C 	0.92431 0.96027 0.97724 -0.08800
C 	C 	0.95022 0.92671 0.97905 0.12200
C 	C 	0.01519 0.95758 0.97807 -0.08700
C 	C 	0.05351 0.02093 0.97295 0.11600
C 	C 	0.02724 0.05423 0.97069 -0.08800
H 	H 	0.87436 0.93679 0.97891 0.10200
H 	H 	0.03550 0.93192 0.98031 0.10100
H 	H 	0.05684 0.10340 0.96712 0.10300
C 	C 	0.94312 0.00650 0.46893 0.11900
C 	C 	0.91065 0.94114 0.46784 -0.08400
C 	C 	0.94534 0.91681 0.47448 0.12100
C 	C 	0.01239 0.95769 0.48118 -0.08700
C 	C 	0.04477 0.02256 0.48086 0.12000
C 	C 	0.01019 0.04715 0.47558 -0.08900
H 	H 	0.85877 0.90950 0.46222 0.10300
H 	H 	0.03923 0.93879 0.48566 0.10200
H 	H 	0.03532 0.09751 0.47580 0.10200
Cu	Cu	0.64343 0.24398 0.00310 0.93600
Cu	Cu	0.69930 0.26153 0.92206 0.88300
Cu	Cu	0.65939 0.33666 0.95161 0.90200
Cu	Cu	0.63341 0.35400 0.03081 0.90900
C 	C 	0.65722 0.28641 0.08452 0.30600
O 	O 	0.54893 0.20025 0.00259 -0.33200
C 	C 	0.64066 0.29538 0.86651 0.30200
O 	O 	0.68647 0.34112 0.00573 -0.63600
O 	O 	0.63103 0.24780 0.94741 -0.64100
O 	O 	0.68764 0.20351 0.00017 -0.33200
O 	O 	0.75697 0.27427 0.96549 -0.41000
O 	O 	0.62349 0.30665 0.07396 -0.36300
O 	O 	0.69345 0.42538 0.95698 -0.35600
C 	C 	0.70001 0.46208 0.98842 0.33000
C 	C 	0.51941 0.22320 0.98872 0.31700
O 	O 	0.55265 0.28326 0.98539 -0.37000
O 	O 	0.66822 0.43835 0.01685 -0.35200
O 	O 	0.66880 0.25668 0.05843 -0.34700
C 	C 	0.73971 0.22865 0.98523 0.33100
O 	O 	0.63871 0.33047 0.89516 -0.35500
O 	O 	0.65640 0.25742 0.87329 -0.40000
H 	H 	0.73304 0.37249 0.01583 0.18900
H 	H 	0.58744 0.21561 0.93189 0.19700
Cu	Cu	0.73601 0.33856 0.45302 0.93500
Cu	Cu	0.73946 0.28998 0.53520 0.88400
Cu	Cu	0.64653 0.31514 0.50906 0.90400
Cu	Cu	0.61294 0.33088 0.43074 0.91300
C 	C 	0.68470 0.32024 0.37277 0.30500
O 	O 	0.76742 0.42933 0.45143 -0.33900
C 	C 	0.68681 0.32462 0.59117 0.29300
O 	O 	0.63793 0.28599 0.45469 -0.63900
O 	O 	0.73800 0.35153 0.50964 -0.63600
O 	O 	0.78593 0.30393 0.45338 -0.33900
O 	O 	0.72459 0.23298 0.49072 -0.40900
O 	O 	0.65663 0.34545 0.38475 -0.35600
O 	O 	0.55627 0.27359 0.50843 -0.36700
C 	C 	0.51412 0.26747 0.48072 0.34400
C 	C 	0.74047 0.45298 0.46761 0.32500
O 	O 	0.68253 0.41441 0.47486 -0.37300
O 	O 	0.52852 0.28641 0.44721 -0.35600
O 	O 	0.71783 0.31075 0.39778 -0.35000
C 	C 	0.76601 0.25217 0.46729 0.33500
O 	O 	0.65974 0.33947 0.56545 -0.35700
O 	O 	0.73570 0.32497 0.58461 -0.39200
H 	H 	0.60954 0.23926 0.44597 0.19200
H 	H 	0.76834 0.39591 0.52401 0.20200
C 	C 	0.62494 0.29876 0.82566 -0.09600
C 	C 	0.59234 0.24405 0.79592 0.14400
C 	C 	0.59872 0.25117 0.75714 -0.09200
C 	C 	0.63196 0.31165 0.74732 0.00600
C 	C 	0.65387 0.36505 0.77611 0.07600
C 	C 	0.65185 0.35843 0.81536 -0.02100
N 	N 	0.55357 0.18493 0.80431 -0.20100
H 	H 	0.57831 0.20968 0.73465 0.07300
C 	C 	0.64736 0.31883 0.70764 0.00700
N 	N 	0.67779 0.42262 0.76638 -0.19200
H 	H 	0.67371 0.40012 0.83796 0.06800
C 	C 	0.59734 0.29220 0.67556 -0.09100
C 	C 	0.60859 0.28995 0.63730 0.13900
C 	C 	0.67241 0.32237 0.63106 -0.09700
C 	C 	0.72287 0.35176 0.66326 -0.01800
C 	C 	0.71069 0.34750 0.70139 0.07300
H 	H 	0.54882 0.26950 0.68038 0.07700
N 	N 	0.55799 0.25362 0.60704 -0.20000
H 	H 	0.77170 0.37645 0.65862 0.06500
N 	N 	0.75961 0.36965 0.73163 -0.19100
H 	H 	0.51156 0.23417 0.61152 0.11800
H 	H 	0.56340 0.23975 0.57977 0.11100
H 	H 	0.80646 0.39294 0.72683 0.10800
H 	H 	0.75153 0.36167 0.75974 0.10300
H 	H 	0.69614 0.46232 0.78799 0.11600
H 	H 	0.67630 0.42803 0.73727 0.11200
H 	H 	0.54133 0.17856 0.83185 0.11900
H 	H 	0.53204 0.14463 0.78254 0.11200
C 	C 	0.67307 0.28831 0.12640 -0.09800
C 	C 	0.64824 0.23196 0.14175 0.15000
C 	C 	0.65923 0.23623 0.18236 -0.09300
C 	C 	0.68743 0.29409 0.20778 0.00900
C 	C 	0.71297 0.35042 0.19249 0.07500
C 	C 	0.70737 0.34705 0.15197 -0.01600
N 	N 	0.61127 0.17370 0.11805 -0.20200
H 	H 	0.64089 0.19343 0.19424 0.07900
C 	C 	0.68444 0.29413 0.24981 0.00800
N 	N 	0.74146 0.40752 0.21638 -0.19100
H 	H 	0.72698 0.39014 0.14019 0.05200
C 	C 	0.74004 0.31737 0.27663 -0.09200
C 	C 	0.74262 0.33040 0.31686 0.14700
C 	C 	0.68555 0.31027 0.33066 -0.09600
C 	C 	0.62861 0.28216 0.30378 -0.01600
C 	C 	0.62791 0.27598 0.26349 0.07600
H 	H 	0.78312 0.33096 0.26603 0.07800
N 	N 	0.80037 0.36612 0.34150 -0.20100
H 	H 	0.58495 0.26665 0.31428 0.05800
N 	N 	0.57325 0.25364 0.23825 -0.19100
H 	H 	0.84106 0.37581 0.33166 0.11800
H 	H 	0.80675 0.38979 0.36915 0.12400
H 	H 	0.53167 0.23970 0.24870 0.11300
H 	H 	0.57152 0.25082 0.20821 0.11100
H 	H 	0.76045 0.44877 0.20473 0.11200
H 	H 	0.74446 0.41166 0.24654 0.10900
H 	H 	0.59389 0.16755 0.08866 0.13300
H 	H 	0.59613 0.13299 0.12957 0.12000
C 	C 	0.76950 0.52109 0.47007 -0.11500
C 	C 	0.73560 0.53975 0.44989 0.13100
C 	C 	0.76236 0.60452 0.45339 0.06500
C 	C 	0.82556 0.65099 0.47352 0.02300
C 	C 	0.86050 0.63253 0.49239 0.06600
C 	C 	0.83164 0.56771 0.49188 0.12700
C 	C 	0.85591 0.71918 0.47375 0.00900
C 	C 	0.88209 0.74604 0.44150 0.08100
C 	C 	0.90763 0.80975 0.44074 0.09200
C 	C 	0.91151 0.84808 0.47344 -0.05100
C 	C 	0.88661 0.82162 0.50607 0.09300
C 	C 	0.85699 0.75672 0.50568 0.08100
Br	Br	0.94819 0.69608 0.51830 -0.12600
Br	Br	0.65513 0.47721 0.41480 -0.19100
Br	Br	0.93590 0.84428 0.39457 -0.12800
Br	Br	0.81719 0.71888 0.54859 -0.12400
Br	Br	0.87625 0.54294 0.52220 -0.17700
Br	Br	0.71241 0.62982 0.43078 -0.12200
Br	Br	0.88384 0.69568 0.39874 -0.13300
Br	Br	0.89528 0.87483 0.55178 -0.12500
C 	C 	0.79094 0.21608 0.45733 -0.12100
C 	C 	0.85618 0.24372 0.46995 0.12300
C 	C 	0.87773 0.20604 0.46620 0.06400
C 	C 	0.83361 0.14017 0.45185 0.02300
C 	C 	0.76909 0.11320 0.43742 0.06400
C 	C 	0.74828 0.15164 0.43905 0.12800
C 	C 	0.85422 0.09885 0.45460 0.00800
C 	C 	0.87424 0.08284 0.42273 0.08100
C 	C 	0.89902 0.04828 0.42662 0.09200
C 	C 	0.90697 0.03268 0.46294 -0.05100
C 	C 	0.88510 0.04693 0.49443 0.09200
C 	C 	0.85725 0.07857 0.48992 0.08100
Br	Br	0.70893 0.02328 0.41687 -0.12600
Br	Br	0.91521 0.33213 0.49463 -0.17300
Br	Br	0.92180 0.02190 0.38227 -0.12600
Br	Br	0.82393 0.09499 0.53222 -0.14300
Br	Br	0.66189 0.11667 0.41539 -0.16500
Br	Br	0.96744 0.24414 0.48144 -0.13000
Br	Br	0.86960 0.11013 0.37426 -0.12400
Br	Br	0.89591 0.02558 0.54417 -0.13000
C 	C 	0.44778 0.23525 0.48649 -0.11800
C 	C 	0.42253 0.26964 0.49039 0.12600
C 	C 	0.35742 0.23774 0.49214 0.06500
C 	C 	0.31791 0.17166 0.49092 0.02300
C 	C 	0.34414 0.13799 0.48951 0.06300
C 	C 	0.40883 0.16958 0.48674 0.12600
C 	C 	0.24810 0.13687 0.48847 0.00900
C 	C 	0.22234 0.12825 0.52280 0.08100
C 	C 	0.15568 0.09221 0.52031 0.09300
C 	C 	0.11477 0.06401 0.48352 -0.05200
C 	C 	0.14060 0.07360 0.44921 0.09300
C 	C 	0.20724 0.11055 0.45169 0.08000
Br	Br	0.29092 0.04835 0.49071 -0.13300
Br	Br	0.47755 0.36060 0.49404 -0.14700
Br	Br	0.12016 0.08121 0.56717 -0.13400
Br	Br	0.24284 0.12488 0.40475 -0.12700
Br	Br	0.44344 0.12244 0.48158 -0.18300
Br	Br	0.32183 0.28408 0.49539 -0.12100
Br	Br	0.27850 0.16514 0.57311 -0.13600
Br	Br	0.08443 0.03483 0.39885 -0.12400
C 	C 	0.90893 0.85863 0.98110 -0.05700
C 	C 	0.87970 0.81253 0.94655 0.09400
C 	C 	0.84476 0.74774 0.94856 0.08200
C 	C 	0.83722 0.72887 0.98511 0.00300
C 	C 	0.86408 0.77484 0.01959 0.08600
C 	C 	0.90064 0.83976 0.01761 0.09800
C 	C 	0.80212 0.66078 0.98730 0.02300
C 	C 	0.73504 0.62180 0.98365 0.06500
C 	C 	0.70136 0.55639 0.98343 0.12700
C 	C 	0.73501 0.53045 0.98864 -0.11300
C 	C 	0.80222 0.56978 0.99339 0.12000
C 	C 	0.83568 0.63471 0.99210 0.06500
Br	Br	0.85085 0.74863 0.06944 -0.12200
Br	Br	0.88720 0.83836 0.89650 -0.12800
Br	Br	0.60902 0.50182 0.97419 -0.14500
Br	Br	0.92744 0.68800 0.99648 -0.13400
Br	Br	0.94028 0.90302 0.06486 -0.12300
Br	Br	0.80798 0.68472 0.90139 -0.13700
Br	Br	0.68955 0.65825 0.97896 -0.12500
Br	Br	0.84839 0.53476 0.00245 -0.17900
C 	C 	0.77485 0.20101 0.98691 -0.13300
C 	C 	0.84131 0.24032 0.00153 0.14200
C 	C 	0.87613 0.21556 0.99874 0.05000
C 	C 	0.84372 0.15015 0.98494 0.02800
C 	C 	0.77673 0.11003 0.97281 0.06000
C 	C 	0.74280 0.13591 0.97181 0.12700
C 	C 	0.87998 0.12350 0.98294 0.00100
C 	C 	0.89411 0.11095 0.94702 0.08200
C 	C 	0.92085 0.07795 0.94399 0.09300
C 	C 	0.93812 0.06196 0.97754 -0.05600
C 	C 	0.92911 0.07955 0.01408 0.09700
C 	C 	0.89751 0.10773 0.01650 0.08700
Br	Br	0.73153 0.01951 0.95783 -0.13200
Br	Br	0.88398 0.32706 0.02714 -0.15500
Br	Br	0.93132 0.05226 0.89373 -0.13600
Br	Br	0.87609 0.12264 0.06538 -0.12300
Br	Br	0.65379 0.08334 0.94681 -0.18600
Br	Br	0.96826 0.27129 0.01289 -0.11700
Br	Br	0.87670 0.13899 0.90210 -0.14000
Br	Br	0.96183 0.06673 0.06089 -0.12300
C 	C 	0.44872 0.18306 0.97983 -0.12400
C 	C 	0.41740 0.18689 0.94644 0.13000
C 	C 	0.35292 0.16304 0.94326 0.06200
C 	C 	0.31672 0.12557 0.96968 0.02600
C 	C 	0.34571 0.11308 0.99941 0.05100
C 	C 	0.41243 0.14612 0.00664 0.14100
C 	C 	0.24970 0.10296 0.96801 0.00700
C 	C 	0.23499 0.13155 0.99647 0.07800
C 	C 	0.17083 0.10318 0.99925 0.08800
C 	C 	0.12129 0.05226 0.96985 -0.04800
C 	C 	0.13660 0.02881 0.93862 0.08800
C 	C 	0.20012 0.05060 0.93946 0.08200
Br	Br	0.29396 0.05109 0.03030 -0.12400
Br	Br	0.46137 0.22058 0.90397 -0.18700
Br	Br	0.15102 0.13023 0.04496 -0.12700
Br	Br	0.21869 0.00651 0.90310 -0.13000
Br	Br	0.45400 0.14677 0.05544 -0.16700
Br	Br	0.31556 0.18509 0.90444 -0.12400
Br	Br	0.30274 0.20976 0.03130 -0.12600
Br	Br	0.07138 0.96978 0.89380 -0.12600
