data_crystal

_cell_length_a 18.28254
_cell_length_b 18.28683
_cell_length_c 58.51026
_cell_angle_alpha 90.04202
_cell_angle_beta  90.02997
_cell_angle_gamma 119.84633

_symmetry_space_group_name_	'P 1'
_symmetry_space_group_name_H-M	'P 1'

loop_
_symmetry_equiv_pos_as_xyz
  x,y,z

loop_
_atom_site_label
_atom_site_type_symbol
_atom_site_fract_x
_atom_site_fract_y
_atom_site_fract_z
_atom_site_charge
C 	C 	0.14849 0.56604 0.47603 0.29400
C 	C 	0.19525 0.58422 0.41083 0.32800
Ni	Ni	0.26445 0.71606 0.44755 1.11500
Ni	Ni	0.28103 0.54756 0.44834 1.11800
O 	O 	0.18366 0.64905 0.47401 -0.37200
O 	O 	0.16487 0.52045 0.46114 -0.37700
O 	O 	0.33879 0.77361 0.41946 -0.38100
O 	O 	0.32628 0.53472 0.47854 -0.39000
O 	O 	0.17537 0.62335 0.42625 -0.37700
O 	O 	0.24714 0.55666 0.41584 -0.37600
O 	O 	0.33781 0.82468 0.46745 -0.37200
O 	O 	0.37637 0.53839 0.43356 -0.38500
O 	O 	0.32737 0.66419 0.45534 -0.71600
H 	H 	0.31768 0.65928 0.47199 0.15400
C 	C 	0.20882 0.76488 0.67774 0.30900
C 	C 	0.32681 0.55075 0.63074 0.32900
C 	C 	0.10983 0.53975 0.67127 0.33800
C 	C 	0.31488 0.53010 0.70432 0.32800
Ni	Ni	0.25008 0.65727 0.64376 1.11400
Ni	Ni	0.26067 0.65376 0.69911 1.12300
O 	O 	0.18786 0.71877 0.65845 -0.35900
O 	O 	0.25897 0.76065 0.69326 -0.38100
O 	O 	0.29734 0.59767 0.62248 -0.36600
O 	O 	0.34077 0.55170 0.65248 -0.38600
O 	O 	0.37041 0.71328 0.71781 -0.37500
O 	O 	0.16532 0.54208 0.65715 -0.38300
O 	O 	0.13618 0.59151 0.68885 -0.37400
O 	O 	0.34659 0.76609 0.63019 -0.36900
O 	O 	0.25005 0.54056 0.70125 -0.38700
O 	O 	0.31659 0.67953 0.67026 -0.71200
H 	H 	0.34693 0.74153 0.67050 0.17000
C 	C 	0.12232 0.17422 0.76041 0.30600
C 	C 	0.11257 0.17688 0.81547 0.30700
C 	C 	0.06221 0.88854 0.81670 0.29200
C 	C 	0.04617 0.89850 0.75283 0.28900
Ni	Ni	0.11315 0.03580 0.78793 1.10300
O 	O 	0.04751 0.16485 0.76619 -0.38000
O 	O 	0.13646 0.11011 0.76041 -0.39100
O 	O 	0.10617 0.94101 0.76816 -0.37700
O 	O 	0.03092 0.13123 0.81708 -0.39600
O 	O 	0.15725 0.14430 0.80715 -0.38300
O 	O 	0.09762 0.97111 0.81677 -0.37700
C 	C 	0.27253 0.49223 0.86551 0.30900
C 	C 	0.29264 0.51998 0.92857 0.30000
C 	C 	0.21671 0.73346 0.86952 0.29900
C 	C 	0.21310 0.71542 0.92331 0.30000
Ni	Ni	0.22213 0.59093 0.89414 1.11800
O 	O 	0.17715 0.65205 0.87448 -0.38100
O 	O 	0.34787 0.51932 0.87435 -0.36800
O 	O 	0.23874 0.54087 0.86520 -0.38500
O 	O 	0.29038 0.77956 0.91921 -0.37900
O 	O 	0.19592 0.63640 0.92210 -0.38700
O 	O 	0.37276 0.55649 0.92247 -0.36500
O 	O 	0.23302 0.50273 0.91312 -0.38400
O 	O 	0.29915 0.77644 0.86867 -0.38500
O 	O 	0.34016 0.66875 0.89761 -0.70600
H 	H 	0.34210 0.67009 0.91445 0.14300
C 	C 	0.16983 0.07119 0.25575 0.29900
C 	C 	0.15823 0.06551 0.19563 0.27200
Ni	Ni	0.04115 0.92207 0.22965 1.10200
Ni	Ni	0.05701 0.10722 0.22636 1.10800
O 	O 	0.02627 0.12147 0.25836 -0.41100
O 	O 	0.11225 0.99183 0.25736 -0.36100
O 	O 	0.16524 0.11908 0.23982 -0.38500
O 	O 	0.13775 0.99200 0.20567 -0.34900
O 	O 	0.10825 0.09901 0.19653 -0.38500
C 	C 	0.12757 0.22448 0.00439 0.30800
C 	C 	0.22925 0.10136 0.00738 0.32600
C 	C 	0.02094 0.88505 0.97677 0.30800
Ni	Ni	0.09399 0.07583 0.03759 1.10500
Ni	Ni	0.07190 0.06242 0.98234 1.11500
O 	O 	0.15164 0.19962 0.02319 -0.36300
O 	O 	0.07297 0.16985 0.98971 -0.39400
O 	O 	0.05277 0.96945 0.05874 -0.35200
O 	O 	0.17726 0.04741 0.02197 -0.38900
O 	O 	0.19840 0.12560 0.99057 -0.37500
O 	O 	0.08478 0.96168 0.97810 -0.36800
O 	O 	0.02245 0.03098 0.01200 -0.74500
C 	C 	0.31646 0.12508 0.27610 0.03400
C 	C 	0.24875 0.09982 0.26718 -0.09600
C 	C 	0.37487 0.19758 0.02705 0.04500
C 	C 	0.31256 0.15727 0.01565 -0.10600
C 	C 	0.23498 0.12905 0.15940 -0.04800
C 	C 	0.23791 0.10950 0.18244 -0.08200
C 	C 	0.31744 0.13725 0.19305 0.10600
C 	C 	0.30955 0.17307 0.14653 0.11100
N 	N 	0.30419 0.18278 0.12364 -0.20200
H 	H 	0.17441 0.10775 0.15123 0.05000
N 	N 	0.32324 0.11424 0.21476 -0.19800
H 	H 	0.24560 0.16263 0.11594 0.08500
H 	H 	0.35699 0.20639 0.11308 0.10800
H 	H 	0.27393 0.06108 0.22227 0.09800
C 	C 	0.17843 0.30841 0.99598 -0.08800
C 	C 	0.21360 0.37013 0.98413 0.04100
C 	C 	0.24611 0.43065 0.96653 0.03900
C 	C 	0.26875 0.47429 0.94970 -0.08400
C 	C 	0.15439 0.73286 0.93489 -0.08700
C 	C 	0.10836 0.75218 0.94457 0.04000
C 	C 	0.06241 0.78424 0.95598 0.04100
C 	C 	0.03464 0.82317 0.96571 -0.08400
C 	C 	0.13421 0.87979 0.85188 -0.04100
C 	C 	0.10073 0.84761 0.83024 -0.08600
C 	C 	0.10255 0.77548 0.82195 0.10900
C 	C 	0.13253 0.73405 0.83618 -0.03900
C 	C 	0.16957 0.76847 0.85739 -0.08700
C 	C 	0.17078 0.84260 0.86528 0.10800
N 	N 	0.20662 0.87833 0.88564 -0.20100
H 	H 	0.13262 0.93464 0.85830 0.06100
H 	H 	0.13268 0.67824 0.82997 0.05500
N 	N 	0.08045 0.74866 0.80002 -0.19900
H 	H 	0.20506 0.93148 0.89156 0.09600
H 	H 	0.23778 0.85521 0.89554 0.09300
H 	H 	0.07369 0.78629 0.78778 0.10700
H 	H 	0.07641 0.69232 0.79457 0.09000
C 	C 	0.20108 0.26587 0.84765 -0.04000
C 	C 	0.15591 0.25883 0.82762 -0.09300
C 	C 	0.14753 0.32836 0.82031 0.10400
C 	C 	0.18902 0.40481 0.83240 -0.04100
C 	C 	0.23089 0.41071 0.85299 -0.09400
C 	C 	0.23374 0.33904 0.86122 0.11000
N 	N 	0.26294 0.33819 0.88255 -0.20000
H 	H 	0.20592 0.21220 0.85353 0.04900
H 	H 	0.18639 0.45919 0.82608 0.05600
N 	N 	0.09876 0.32188 0.80203 -0.19800
H 	H 	0.27078 0.28785 0.88776 0.08800
H 	H 	0.27099 0.38317 0.89476 0.10800
H 	H 	0.05410 0.26348 0.79557 0.07800
H 	H 	0.09974 0.37545 0.79542 0.08800
C 	C 	0.30125 0.45643 0.71646 -0.09100
C 	C 	0.27334 0.39118 0.72687 0.04400
C 	C 	0.22723 0.31450 0.73882 0.03800
C 	C 	0.18113 0.24994 0.74875 -0.08700
C 	C 	0.15895 0.80031 0.68538 -0.08400
C 	C 	0.12427 0.82830 0.69696 0.04500
C 	C 	0.09222 0.85701 0.71454 0.03900
C 	C 	0.06990 0.87779 0.73150 -0.07600
C 	C 	0.03674 0.50392 0.35690 -0.00300
C 	C 	0.10032 0.53269 0.37378 0.05500
C 	C 	0.14681 0.55651 0.39010 -0.10100
C 	C 	0.02736 0.51111 0.66212 -0.13100
H 	H 	0.34365 0.41858 0.46270 0.09000
H 	H 	0.36709 0.79324 0.52397 0.09900
C 	C 	0.07254 0.52228 0.49057 -0.09800
C 	C 	0.07495 0.54529 0.51378 0.08700
N 	N 	0.14979 0.59238 0.52476 -0.19500
H 	H 	0.15118 0.61171 0.54165 0.08800
H 	H 	0.20698 0.60737 0.51699 0.09400
C 	C 	0.02037 0.89275 0.05049 0.30500
C 	C 	0.36217 0.51390 0.61595 -0.09800
C 	C 	0.41512 0.83666 0.42215 0.33400
C 	C 	0.40048 0.83967 0.48181 0.30300
C 	C 	0.40880 0.56976 0.48222 0.29400
Ni	Ni	0.40961 0.66101 0.66928 1.12200
O 	O 	0.39078 0.58710 0.69722 -0.37600
Ni	Ni	0.41815 0.63009 0.89329 1.11400
Ni	Ni	0.37316 0.78498 0.89486 1.11900
C 	C 	0.39572 0.15670 0.28670 0.03700
C 	C 	0.39164 0.18812 0.18081 -0.03900
C 	C 	0.38889 0.20424 0.15754 -0.09600
H 	H 	0.38102 0.14387 0.22337 0.09300
C 	C 	0.39883 0.48349 0.60625 0.04200
N 	N 	0.39430 0.41089 0.46751 -0.19700
H 	H 	0.40189 0.36456 0.45915 0.09000
N 	N 	0.41463 0.84941 0.53101 -0.19800
H 	H 	0.42758 0.85036 0.54845 0.09500
C 	C 	0.42679 0.78899 0.63334 0.30700
C 	C 	0.43698 0.23582 0.04415 0.03200
C 	C 	0.43581 0.91757 0.41303 -0.11100
O 	O 	0.43352 0.78988 0.48320 -0.38200
C 	C 	0.44144 0.91961 0.49449 -0.09400
C 	C 	0.44133 0.52299 0.49539 -0.08600
C 	C 	0.45186 0.60118 0.42853 0.32200
Ni	Ni	0.44682 0.72974 0.45604 1.12400
C 	C 	0.44790 0.76674 0.71005 0.31200
O 	O 	0.45041 0.73340 0.63979 -0.36600
H 	H 	0.45222 0.21177 0.18920 0.05800
C 	C 	0.45718 0.98785 0.40643 0.08400
C 	C 	0.44817 0.45066 0.59722 0.04000
C 	C 	0.44449 0.45381 0.48550 0.10700
O 	O 	0.46247 0.65083 0.47759 -0.37700
O 	O 	0.46152 0.81523 0.91946 -0.37700
O 	O 	0.46720 0.82359 0.87096 -0.37100
C 	C 	0.46166 0.18602 0.29683 -0.09100
C 	C 	0.45554 0.92096 0.51831 0.11100
O 	O 	0.46755 0.67925 0.42831 -0.38600
O 	O 	0.46704 0.83256 0.43709 -0.37400
O 	O 	0.47092 0.76317 0.68888 -0.38400
O 	O 	0.46508 0.69975 0.86387 -0.37500
C 	C 	0.46919 0.24765 0.14476 0.31200
H 	H 	0.46819 0.99401 0.46386 0.05600
C 	C 	0.48139 0.26142 0.06083 -0.08300
C 	C 	0.47839 0.99534 0.48216 -0.01500
C 	C 	0.49043 0.07247 0.39949 -0.00500
C 	C 	0.48772 0.87180 0.62574 -0.09600
H 	H 	0.48587 0.61354 0.52285 0.05600
O 	O 	0.48745 0.31474 0.13249 -0.37200
C 	C 	0.49488 0.42661 0.59047 -0.09400
C 	C 	0.48815 0.56057 0.51526 -0.04000
O 	O 	0.00330 0.87971 0.02886 -0.38500
C 	C 	0.49891 0.42787 0.49476 -0.03900
H 	H 	0.00109 0.53426 0.54368 0.03700
O 	O 	0.50615 0.22391 0.09753 -0.38200
H 	H 	0.50040 0.37419 0.48737 0.05300
C 	C 	0.50575 0.78247 0.86426 0.30000
O 	O 	0.51495 0.72666 0.91230 -0.37100
C 	C 	0.51012 0.99771 0.52909 -0.01500
C 	C 	0.51448 0.81249 0.72612 -0.08000
C 	C 	0.51565 0.58227 0.42143 -0.09200
H 	H 	0.52028 0.99907 0.54739 0.05900
C 	C 	0.52592 0.80195 0.91747 0.30600
C 	C 	0.52557 0.28469 0.08222 0.29900
O 	O 	0.52366 0.22142 0.14680 -0.38400
O 	O 	0.52538 0.23355 0.33277 -0.39300
C 	C 	0.52462 0.94305 0.61860 0.07700
O 	O 	0.52866 0.34324 0.53423 -0.37900
C 	C 	0.52919 0.14555 0.39393 -0.07100
O 	O 	0.53539 0.16947 0.57591 -0.37800
C 	C 	0.53537 0.22386 0.31094 0.31400
C 	C 	0.53277 0.07214 0.49295 0.09100
H 	H 	0.53619 0.73744 0.82335 0.06100
O 	O 	0.53872 0.32606 0.58354 -0.39000
C 	C 	0.99459 0.46776 0.48026 -0.02400
H 	H 	0.99264 0.45075 0.46242 0.05800
C 	C 	0.58843 0.15334 0.52943 0.30400
C 	C 	0.81178 0.41890 0.59541 0.32000
C 	C 	0.59089 0.16979 0.59041 0.31700
C 	C 	0.84429 0.42415 0.52982 0.29700
C 	C 	0.55537 0.40443 0.58240 0.32300
C 	C 	0.58207 0.42200 0.52737 0.29400
Ni	Ni	0.73299 0.28103 0.56091 1.11400
Ni	Ni	0.71878 0.45056 0.55890 1.12000
Ni	Ni	0.55004 0.26830 0.55593 1.12200
O 	O 	0.65153 0.16820 0.54360 -0.37700
O 	O 	0.55298 0.20122 0.52894 -0.38500
O 	O 	0.62876 0.46486 0.57505 -0.38400
O 	O 	0.82814 0.37779 0.57979 -0.37400
O 	O 	0.76171 0.44905 0.59084 -0.37100
O 	O 	0.66798 0.23261 0.59091 -0.38000
O 	O 	0.66532 0.45666 0.52941 -0.38700
O 	O 	0.80568 0.34115 0.53252 -0.37400
O 	O 	0.83090 0.47355 0.54411 -0.36900
O 	O 	0.66927 0.33242 0.55374 -0.71700
H 	H 	0.67379 0.33310 0.53694 0.15500
C 	C 	0.82319 0.92892 0.81686 0.33000
C 	C 	0.80935 0.93849 0.76471 0.33500
Ni	Ni	0.95686 0.07570 0.78879 1.11100
Ni	Ni	0.92175 0.87980 0.78746 1.12200
O 	O 	0.98845 0.84091 0.80676 -0.36100
O 	O 	0.85620 0.00904 0.81130 -0.39500
O 	O 	0.86930 0.89242 0.81648 -0.38300
O 	O 	0.96644 0.85363 0.75916 -0.35900
O 	O 	0.86841 0.01834 0.76317 -0.39300
O 	O 	0.82889 0.87830 0.76751 -0.37900
O 	O 	0.99574 0.99907 0.78397 -0.66700
H 	H 	0.99393 0.00030 0.76713 0.12600
C 	C 	0.78890 0.52453 0.10219 0.31500
C 	C 	0.73005 0.48075 0.15916 0.30900
C 	C 	0.71995 0.21963 0.15172 0.30400
C 	C 	0.73474 0.22571 0.09640 0.30200
Ni	Ni	0.60917 0.40255 0.12150 1.11200
Ni	Ni	0.58885 0.21584 0.11970 1.11900
Ni	Ni	0.77374 0.37676 0.12721 1.12200
O 	O 	0.71683 0.51398 0.11071 -0.37300
O 	O 	0.80847 0.46387 0.10213 -0.37400
O 	O 	0.64579 0.17367 0.14180 -0.38500
O 	O 	0.79262 0.29869 0.10579 -0.37200
O 	O 	0.65042 0.42832 0.15491 -0.37700
O 	O 	0.78996 0.47145 0.14925 -0.36900
O 	O 	0.65501 0.20543 0.09401 -0.39200
O 	O 	0.56207 0.36485 0.08862 -0.36500
O 	O 	0.75178 0.30133 0.15412 -0.38800
O 	O 	0.65989 0.33497 0.11833 -0.71300
H 	H 	0.67097 0.34136 0.10177 0.15500
C 	C 	0.87770 0.79556 0.20819 0.28900
C 	C 	0.89477 0.82884 0.26307 0.32600
C 	C 	0.94814 0.08511 0.26567 0.34600
C 	C 	0.89530 0.08110 0.20261 0.27100
Ni	Ni	0.87487 0.94395 0.23286 1.12600
O 	O 	0.96028 0.84018 0.20509 -0.36300
O 	O 	0.83317 0.83063 0.21595 -0.37000
O 	O 	0.85874 0.99819 0.20502 -0.35800
O 	O 	0.96109 0.83208 0.25339 -0.36900
O 	O 	0.88312 0.89348 0.26260 -0.38000
O 	O 	0.97186 0.13405 0.21110 -0.36400
O 	O 	0.88529 0.04138 0.25152 -0.40900
O 	O 	0.98932 0.98708 0.22455 -0.69900
H 	H 	0.98142 0.98014 0.20784 0.17000
C 	C 	0.59002 0.23009 0.38761 0.28900
C 	C 	0.88906 0.44998 0.33794 0.30800
C 	C 	0.69412 0.46714 0.38301 0.33400
C 	C 	0.79362 0.22830 0.34143 0.30900
C 	C 	0.68752 0.45497 0.31011 0.32600
Ni	Ni	0.76317 0.35251 0.37165 1.11300
Ni	Ni	0.72703 0.31957 0.31641 1.12300
Ni	Ni	0.59708 0.34275 0.34867 1.12000
O 	O 	0.67066 0.25289 0.38976 -0.36700
O 	O 	0.56575 0.28411 0.38025 -0.36800
O 	O 	0.73545 0.42434 0.30363 -0.38200
O 	O 	0.83966 0.45692 0.35251 -0.37500
O 	O 	0.85550 0.38986 0.32237 -0.36200
O 	O 	0.72692 0.42420 0.39187 -0.36600
O 	O 	0.67411 0.45784 0.36159 -0.39100
O 	O 	0.61050 0.24461 0.30199 -0.37100
O 	O 	0.82022 0.28321 0.35887 -0.36000
O 	O 	0.73234 0.21913 0.32786 -0.38400
O 	O 	0.61235 0.40546 0.31897 -0.38500
O 	O 	0.68684 0.31978 0.34672 -0.70800
H 	H 	0.65456 0.25849 0.34908 0.16300
C 	C 	0.91863 0.02831 0.05101 0.27000
C 	C 	0.88272 0.98735 0.97462 0.34200
Ni	Ni	0.93076 0.91938 0.01359 1.13200
O 	O 	0.94602 0.86598 0.98480 -0.35600
O 	O 	0.95842 0.01131 0.96553 -0.39600
O 	O 	0.86342 0.95828 0.99573 -0.38100
O 	O 	0.99900 0.08629 0.05322 -0.35600
O 	O 	0.89506 0.94966 0.04417 -0.33900
H 	H 	0.99106 0.06167 0.01275 0.18200
C 	C 	0.83697 0.75444 0.27538 -0.09200
C 	C 	0.79088 0.68883 0.28485 0.04900
C 	C 	0.74296 0.60864 0.29494 0.04600
C 	C 	0.71080 0.53822 0.30256 -0.08300
C 	C 	0.93082 0.11393 0.28672 -0.09600
C 	C 	0.91182 0.13947 0.30340 0.05000
C 	C 	0.88155 0.17070 0.32086 0.03900
C 	C 	0.84657 0.19772 0.33272 -0.08400
C 	C 	0.98354 0.82112 0.06545 -0.06500
C 	C 	0.94567 0.75539 0.07567 0.03900
C 	C 	0.89529 0.67515 0.08563 0.05000
C 	C 	0.84842 0.60597 0.09326 -0.08400
C 	C 	0.76213 0.17295 0.08566 -0.09000
C 	C 	0.78586 0.12841 0.07713 0.04000
C 	C 	0.81955 0.08065 0.06760 0.03000
C 	C 	0.85801 0.04887 0.05975 -0.07900
C 	C 	0.78333 0.20391 0.18784 -0.04100
C 	C 	0.75678 0.17678 0.16533 -0.09000
C 	C 	0.77401 0.11583 0.15541 0.10900
C 	C 	0.82273 0.08886 0.16756 -0.04700
C 	C 	0.84938 0.11623 0.18996 -0.08000
C 	C 	0.82775 0.17294 0.20046 0.10700
N 	N 	0.84776 0.19669 0.22267 -0.20000
H 	H 	0.76893 0.24903 0.19568 0.05800
H 	H 	0.83791 0.04430 0.15970 0.05200
N 	N 	0.74329 0.08197 0.13449 -0.20100
H 	H 	0.83362 0.24033 0.23000 0.09200
H 	H 	0.87479 0.17038 0.23311 0.11000
H 	H 	0.69359 0.08554 0.12702 0.09900
H 	H 	0.76384 0.04441 0.12642 0.09000
C 	C 	0.77073 0.69379 0.18108 -0.04100
C 	C 	0.83144 0.71005 0.19793 -0.08000
C 	C 	0.85050 0.64599 0.20387 0.11000
C 	C 	0.81054 0.56858 0.19220 -0.03700
C 	C 	0.75422 0.55441 0.17427 -0.08900
C 	C 	0.73227 0.61710 0.16899 0.11200
N 	N 	0.67581 0.60512 0.15218 -0.19300
H 	H 	0.75520 0.74216 0.17677 0.05900
H 	H 	0.82612 0.52024 0.19651 0.05500
N 	N 	0.90687 0.65809 0.22067 -0.19900
H 	H 	0.66358 0.65345 0.14783 0.09200
H 	H 	0.64141 0.54770 0.14379 0.07200
H 	H 	0.93951 0.71501 0.22935 0.10100
H 	H 	0.91925 0.60992 0.22509 0.09600
C 	C 	0.81357 0.96830 0.95963 -0.08400
C 	C 	0.74991 0.94271 0.94857 0.05100
C 	C 	0.67182 0.90255 0.93707 0.04100
C 	C 	0.60443 0.86039 0.92798 -0.08300
C 	C 	0.59178 0.79084 0.83058 -0.04100
C 	C 	0.58473 0.82794 0.85086 -0.08600
C 	C 	0.65741 0.89967 0.85983 0.10900
C 	C 	0.73592 0.92775 0.84931 -0.03200
C 	C 	0.74304 0.88836 0.82958 -0.09500
C 	C 	0.67072 0.81728 0.82058 0.11100
N 	N 	0.67692 0.77247 0.80289 -0.19800
H 	H 	0.79138 0.98251 0.85609 0.06400
N 	N 	0.65234 0.94305 0.87807 -0.20000
H 	H 	0.62264 0.72533 0.79492 0.09400
H 	H 	0.73474 0.77870 0.79823 0.08500
H 	H 	0.59511 0.93584 0.88362 0.10400
H 	H 	0.70724 0.99025 0.88579 0.09900
C 	C 	0.57788 0.84873 0.73736 0.04200
C 	C 	0.65722 0.88662 0.74822 0.05000
C 	C 	0.72679 0.91374 0.75615 -0.08700
C 	C 	0.65753 0.50379 0.39738 -0.10000
C 	C 	0.61850 0.53225 0.40674 0.04600
C 	C 	0.56554 0.56151 0.41527 0.04100
C 	C 	0.97343 0.47893 0.34568 -0.05400
C 	C 	0.85971 0.44286 0.61621 -0.07800
C 	C 	0.90488 0.46323 0.63277 0.03000
C 	C 	0.96617 0.48824 0.65016 0.07800
C 	C 	0.55432 0.02473 0.60960 0.00200
C 	C 	0.57263 0.09210 0.60130 -0.08300
C 	C 	0.54700 0.46672 0.51435 -0.08700
C 	C 	0.54414 0.53610 0.52412 0.10900
N 	N 	0.59678 0.58116 0.54149 -0.19800
H 	H 	0.64980 0.57619 0.54535 0.09600
H 	H 	0.58911 0.62713 0.55003 0.09600
C 	C 	0.54717 0.07343 0.51674 -0.11100
N 	N 	0.57305 0.14383 0.48027 -0.19700
H 	H 	0.61990 0.20031 0.48736 0.09600
H 	H 	0.56011 0.14283 0.46283 0.08800
C 	C 	0.99910 0.51719 0.52584 0.00000
C 	C 	0.92104 0.46361 0.51546 -0.09400
C 	C 	0.91864 0.43944 0.49234 0.11100
N 	N 	0.84384 0.39162 0.48141 -0.19800
H 	H 	0.78654 0.37641 0.48914 0.09600
H 	H 	0.84257 0.37176 0.46458 0.09100
