data_crystal

_cell_length_a 16.52180
_cell_length_b 15.65356
_cell_length_c 34.54430
_cell_angle_alpha 89.85804
_cell_angle_beta  89.86080
_cell_angle_gamma 119.38876

_symmetry_space_group_name_	'P 1'
_symmetry_space_group_name_H-M	'P 1'

loop_
_symmetry_equiv_pos_as_xyz
  x,y,z

loop_
_atom_site_label
_atom_site_type_symbol
_atom_site_fract_x
_atom_site_fract_y
_atom_site_fract_z
_atom_site_charge
Ni	Ni	0.06525 0.96408 0.75504 1.08800
Ni	Ni	0.05468 0.16040 0.73360 1.10900
O 	O 	0.03312 0.16947 0.18437 -0.36300
O 	O 	0.01755 0.20361 0.26430 -0.37000
C 	C 	0.06275 0.20636 0.10164 -0.00400
H 	H 	0.08031 0.30913 0.05662 0.09800
C 	C 	0.02574 0.71489 0.17018 -0.03700
C 	C 	0.10632 0.41516 0.26082 0.00200
C 	C 	0.00521 0.41393 0.45811 -0.23400
F 	F 	0.05595 0.37731 0.51734 -0.39200
C 	C 	0.08586 0.47608 0.93007 0.29800
C 	C 	0.14472 0.55089 0.95527 0.25700
C 	C 	0.12885 0.54041 0.99553 -0.16200
F 	F 	0.10202 0.48797 0.89136 -0.39800
C 	C 	0.19842 0.15063 0.78995 0.28100
C 	C 	0.18560 0.11826 0.69516 0.30900
O 	O 	0.14042 0.05861 0.79802 -0.36500
O 	O 	0.17230 0.20658 0.76917 -0.36000
O 	O 	0.18090 0.05009 0.71896 -0.35700
O 	O 	0.11310 0.12765 0.68951 -0.39000
C 	C 	0.20095 0.81202 0.41614 0.28500
C 	C 	0.09735 0.48937 0.44661 0.40200
C 	C 	0.24568 0.60738 0.32681 0.28400
Ni	Ni	0.25462 0.68240 0.46736 1.12400
Ni	Ni	0.27923 0.55235 0.40139 1.12800
O 	O 	0.22517 0.79635 0.45153 -0.31300
O 	O 	0.24104 0.80360 0.38424 -0.37000
O 	O 	0.31153 0.70204 0.33252 -0.36400
O 	O 	0.20509 0.54776 0.35597 -0.37200
O 	O 	0.12076 0.57777 0.45905 -0.38200
O 	O 	0.16090 0.46524 0.43436 -0.33400
O 	O 	0.26964 0.66466 0.41483 -0.71400
H 	H 	0.20839 0.64823 0.40431 0.18100
C 	C 	0.17607 0.60261 0.15031 0.30600
C 	C 	0.26583 0.41446 0.07846 0.30600
C 	C 	0.20990 0.58868 0.02081 0.39100
Ni	Ni	0.34146 0.56999 0.13836 1.11800
Ni	Ni	0.29649 0.72201 0.08899 1.12700
Ni	Ni	0.38884 0.61306 0.04525 1.13200
O 	O 	0.23393 0.67579 0.03622 -0.34400
O 	O 	0.23138 0.57564 0.16722 -0.35100
O 	O 	0.18049 0.61459 0.11303 -0.36500
O 	O 	0.43652 0.74668 0.01885 -0.34100
O 	O 	0.24705 0.44455 0.11085 -0.35400
O 	O 	0.34516 0.46966 0.06000 -0.34200
O 	O 	0.26960 0.55725 0.01779 -0.37600
O 	O 	0.35472 0.64558 0.09295 -0.71400
C 	C 	0.07541 0.13145 0.16387 0.30200
C 	C 	0.10841 0.25501 0.25880 0.29000
C 	C 	0.05880 0.86468 0.20840 0.27700
C 	C 	0.06569 0.95162 0.31067 0.23900
Ni	Ni	0.11723 0.06644 0.23821 1.12500
O 	O 	0.12157 0.94102 0.22781 -0.38100
O 	O 	0.10363 0.07494 0.18035 -0.36200
O 	O 	0.12385 0.03887 0.29498 -0.33900
O 	O 	0.15724 0.21342 0.24568 -0.36500
C 	C 	0.11204 0.27271 0.07180 0.00700
C 	C 	0.20850 0.31025 0.06933 -0.03300
C 	C 	0.24180 0.24800 0.08159 -0.00200
C 	C 	0.19379 0.17975 0.11101 0.01400
C 	C 	0.10803 0.16785 0.12422 -0.04600
H 	H 	0.31008 0.26205 0.07291 0.12100
H 	H 	0.22620 0.14276 0.12538 0.07100
C 	C 	0.17759 0.70989 0.20388 -0.00100
C 	C 	0.12988 0.64621 0.17327 -0.07300
C 	C 	0.05029 0.64513 0.15822 0.00800
C 	C 	0.07914 0.78500 0.19806 -0.04400
C 	C 	0.15268 0.77916 0.21612 -0.01400
H 	H 	0.23781 0.71033 0.21644 0.05200
H 	H 	0.01128 0.59466 0.13526 0.06400
H 	H 	0.19201 0.82970 0.23898 0.05500
C 	C 	0.15621 0.36383 0.26361 -0.05200
C 	C 	0.25155 0.41678 0.27186 -0.00700
C 	C 	0.29231 0.51546 0.28311 -0.01300
C 	C 	0.23658 0.55937 0.28912 -0.05500
C 	C 	0.14808 0.51415 0.27200 -0.00200
H 	H 	0.29291 0.38040 0.27194 0.05400
H 	H 	0.36271 0.55102 0.29361 0.05000
H 	H 	0.10636 0.55010 0.27297 0.05200
C 	C 	0.19301 0.96140 0.40227 -0.02600
C 	C 	0.14540 0.86119 0.41198 -0.02000
C 	C 	0.05382 0.80451 0.39891 -0.00100
C 	C 	0.02243 0.83810 0.36782 -0.02600
C 	C 	0.08155 0.93032 0.35107 -0.02900
C 	C 	0.16287 0.99538 0.37089 -0.03200
H 	H 	0.26076 0.00884 0.41453 0.13100
H 	H 	0.01252 0.72921 0.40859 0.06500
H 	H 	0.20617 0.06953 0.36037 0.09000
F 	F 	0.30999 0.01861 0.55022 -0.35300
F 	F 	0.24197 0.34398 0.49895 -0.36800
C 	C 	0.33241 0.27866 0.69996 -0.01000
C 	C 	0.27527 0.19294 0.67902 -0.06800
C 	C 	0.29829 0.18665 0.64053 0.01700
C 	C 	0.38452 0.25720 0.62583 0.00000
H 	H 	0.25048 0.12702 0.62229 0.08500
H 	H 	0.40291 0.25107 0.59635 0.09800
F 	F 	0.22162 0.63008 0.94093 -0.37700
F 	F 	0.38534 0.95070 0.00761 -0.38100
C 	C 	0.37489 0.19591 0.86564 -0.00100
C 	C 	0.36354 0.18961 0.78522 -0.01200
C 	C 	0.29239 0.19253 0.80686 -0.05200
C 	C 	0.29973 0.19677 0.84733 0.00400
H 	H 	0.35419 0.17268 0.75474 0.05100
H 	H 	0.24363 0.19337 0.86479 0.06500
H 	H 	0.06010 0.89072 0.86425 0.03100
Ni	Ni	0.34851 0.77873 0.38516 1.12200
H 	H 	0.31003 0.29247 0.72743 0.04500
F 	F 	0.46476 0.38415 0.09315 -0.39800
F 	F 	0.47827 0.33664 0.01767 -0.37400
O 	O 	0.27406 0.57278 0.49416 -0.32600
F 	F 	0.33992 0.98343 0.47550 -0.40000
H 	H 	0.37823 0.19800 0.89698 0.08400
C 	C 	0.33332 0.54729 0.48024 0.42100
C 	C 	0.42430 0.86204 0.46309 0.39900
C 	C 	0.46892 0.70006 0.37416 0.31100
O 	O 	0.39790 0.61133 0.36769 -0.36500
O 	O 	0.36468 0.57173 0.44525 -0.37600
O 	O 	0.39439 0.77144 0.47123 -0.34800
O 	O 	0.40178 0.88296 0.42901 -0.34600
O 	O 	0.45661 0.76092 0.39509 -0.37600
C 	C 	0.51824 0.59428 0.09500 0.38000
C 	C 	0.42790 0.77975 0.15821 0.27100
C 	C 	0.45528 0.83115 0.03566 0.38600
O 	O 	0.45563 0.54834 0.12325 -0.33700
O 	O 	0.51002 0.65501 0.07151 -0.37800
O 	O 	0.40604 0.83542 0.06494 -0.37000
O 	O 	0.41897 0.69528 0.16978 -0.36000
O 	O 	0.35594 0.78439 0.14203 -0.35400
H 	H 	0.41597 0.70091 0.09797 0.14500
H 	H 	0.48908 0.69717 0.29578 0.04500
C 	C 	0.43130 0.98904 0.57225 -0.24000
C 	C 	0.37057 0.98542 0.54293 0.24000
C 	C 	0.38452 0.96574 0.50466 0.25900
C 	C 	0.44413 0.92763 0.49666 -0.21000
C 	C 	0.38952 0.35639 0.51113 0.27800
C 	C 	0.33425 0.40072 0.50584 0.27300
C 	C 	0.37513 0.50347 0.50481 -0.19300
F 	F 	0.34889 0.25714 0.51294 -0.36700
C 	C 	0.45189 0.32511 0.65109 -0.05000
C 	C 	0.42149 0.34424 0.68618 -0.00100
H 	H 	0.47009 0.40222 0.70484 0.04700
C 	C 	0.53753 0.08372 0.99694 0.32600
C 	C 	0.51513 0.92383 0.01554 -0.16900
C 	C 	0.47856 0.98566 0.00644 0.22800
F 	F 	0.50079 0.14233 0.98829 -0.37300
C 	C 	0.53309 0.42986 0.03019 0.26600
C 	C 	0.57351 0.55169 0.08016 -0.20000
C 	C 	0.52535 0.45390 0.06854 0.27800
C 	C 	0.45158 0.20652 0.84398 -0.04200
C 	C 	0.44381 0.19987 0.80352 -0.00400
H 	H 	0.50065 0.20543 0.78609 0.04800
C 	C 	0.54421 0.26369 0.86175 0.28800
O 	O 	0.56042 0.34641 0.87820 -0.36100
C 	C 	0.47333 0.07769 0.59685 0.41800
C 	C 	0.54351 0.33242 0.65027 0.29700
O 	O 	0.54985 0.25621 0.66154 -0.37600
O 	O 	0.48508 0.15593 0.58007 -0.38100
H 	H 	0.51960 0.92927 0.21036 0.04300
C 	C 	0.48608 0.41452 0.51580 -0.19800
C 	C 	0.46997 0.56063 0.51302 0.27700
C 	C 	0.60303 0.49976 0.00578 -0.20200
C 	C 	0.48102 0.93937 0.56567 0.27600
C 	C 	0.63547 0.46326 0.97368 0.40200
C 	C 	0.55558 0.74068 0.35149 -0.06200
O 	O 	0.65102 0.50591 0.93830 -0.34600
O 	O 	0.66942 0.40605 0.98355 -0.35200
C 	C 	0.53888 0.37222 0.53369 0.41800
O 	O 	0.53478 0.08834 0.62331 -0.33900
O 	O 	0.56348 0.39490 0.56928 -0.39000
O 	O 	0.61874 0.41477 0.64022 -0.36900
C 	C 	0.52317 0.86291 0.15621 -0.05700
C 	C 	0.56172 0.91371 0.19062 -0.00000
C 	C 	0.55197 0.74547 0.31103 -0.00300
C 	C 	0.49456 0.91732 0.52765 0.25700
F 	F 	0.52257 0.91983 0.59557 -0.40400
C 	C 	0.52587 0.51706 0.51596 0.27700
F 	F 	0.50992 0.65991 0.51367 -0.35900
C 	C 	0.63304 0.11916 0.99250 -0.19700
C 	C 	0.61159 0.96102 0.01404 0.22900
C 	C 	0.66452 0.59272 0.02105 0.26600
C 	C 	0.65417 0.61509 0.05936 0.28000
H 	H 	0.01804 0.74560 0.68247 0.03000
H 	H 	0.03459 0.37788 0.25148 0.05200
O 	O 	0.54293 0.29849 0.51759 -0.32100
F 	F 	0.55071 0.87814 0.52121 -0.37000
O 	O 	0.61280 0.24158 0.85486 -0.35200
H 	H 	0.64763 0.32632 0.92624 0.19600
F 	F 	0.64838 0.90343 0.02423 -0.38000
Ni	Ni	0.59873 0.21888 0.54505 1.12400
C 	C 	0.05087 0.45550 0.00956 0.20800
C 	C 	0.67040 0.05832 0.00236 0.31300
C 	C 	0.58407 0.85557 0.12950 -0.00000
H 	H 	0.56164 0.83184 0.10027 0.06800
C 	C 	0.62833 0.81666 0.29014 -0.01900
H 	H 	0.62926 0.81017 0.25911 0.05000
F 	F 	0.61878 0.57444 0.52122 -0.39100
C 	C 	0.68337 0.20007 0.96536 0.40500
O 	O 	0.66420 0.18121 0.92820 -0.36600
Ni	Ni	0.64232 0.22574 0.63822 1.12700
C 	C 	0.64968 0.93075 0.20242 -0.01600
C 	C 	0.63798 0.80710 0.37033 0.00400
H 	H 	0.64276 0.80403 0.40155 0.08000
Ni	Ni	0.69051 0.46086 0.88606 1.11500
O 	O 	0.65036 0.12195 0.56026 -0.32200
O 	O 	0.66276 0.29376 0.58858 -0.71200
H 	H 	0.65587 0.23939 0.78357 0.05000
F 	F 	0.71264 0.70570 0.07344 -0.38500
Ni	Ni	0.68712 0.42480 0.59018 1.13100
H 	H 	0.67822 0.96912 0.22911 0.04100
O 	O 	0.70962 0.37090 0.91538 -0.71700
H 	H 	0.70472 0.46850 0.71286 0.05500
H 	H 	0.03134 0.77125 0.91645 0.05500
F 	F 	0.73747 0.65892 0.99961 -0.38200
H 	H 	0.68218 0.94706 0.57953 0.08200
C 	C 	0.66828 0.86407 0.14231 0.00600
F 	F 	0.03428 0.44264 0.04824 -0.40300
C 	C 	0.70648 0.88975 0.30950 -0.04800
O 	O 	0.70891 0.29913 0.50959 -0.35000
C 	C 	0.69820 0.89484 0.18021 -0.06000
C 	C 	0.70912 0.88539 0.35000 -0.00500
H 	H 	0.00226 0.05322 0.78238 0.14800
O 	O 	0.71808 0.43077 0.82878 -0.35700
H 	H 	0.71252 0.12233 0.77132 0.05900
H 	H 	0.74750 0.70635 0.92368 0.08500
O 	O 	0.75586 0.28403 0.97744 -0.31600
C 	C 	0.72231 0.14277 0.58385 0.30400
H 	H 	0.72626 0.30692 0.58297 0.17300
Ni	Ni	0.73345 0.28052 0.88771 1.12600
O 	O 	0.72722 0.17855 0.61900 -0.35500
H 	H 	0.71022 0.84786 0.12273 0.09900
H 	H 	0.74574 0.63571 0.73334 0.05100
C 	C 	0.72907 0.26691 0.77862 -0.01400
O 	O 	0.75169 0.45103 0.53634 -0.33000
O 	O 	0.74825 0.33985 0.66767 -0.35500
F 	F 	0.76290 0.09167 0.99838 -0.34400
C 	C 	0.74986 0.00380 0.58870 0.10400
H 	H 	0.77022 0.93825 0.36548 0.06300
H 	H 	0.76219 0.91332 0.63276 0.09000
C 	C 	0.77355 0.52871 0.70662 -0.01400
C 	C 	0.76152 0.20016 0.77194 -0.01300
H 	H 	0.77393 0.82178 0.87028 0.05800
O 	O 	0.00757 0.87674 0.28845 -0.37000
C 	C 	0.77269 0.38910 0.51773 0.37900
Ni	Ni	0.78558 0.42238 0.95994 1.13500
C 	C 	0.78372 0.40750 0.82277 0.30400
C 	C 	0.78313 0.10087 0.57659 -0.05500
C 	C 	0.00172 0.39897 0.94392 -0.25500
O 	O 	0.99796 0.03293 0.75513 -0.66900
H 	H 	0.99043 0.36508 0.75793 0.06100
H 	H 	0.99300 0.19088 0.10889 0.09700
H 	H 	0.99289 0.20674 0.62096 0.08200
C 	C 	0.99286 0.39252 0.49783 0.32000
O 	O 	0.97343 0.84947 0.20547 -0.35900
O 	O 	0.98771 0.02003 0.24601 -0.69300
H 	H 	0.99005 0.03963 0.27323 0.17300
F 	F 	0.93445 0.41897 0.39870 -0.38800
O 	O 	0.98572 0.19914 0.77108 -0.35800
C 	C 	0.93157 0.41344 0.43794 0.30400
H 	H 	0.96729 0.71642 0.15674 0.08800
H 	H 	0.95552 0.78970 0.35503 0.08100
C 	C 	0.85427 0.61696 0.92228 0.30800
C 	C 	0.91841 0.38515 0.92406 0.44500
O 	O 	0.89685 0.45297 0.92898 -0.39800
O 	O 	0.82712 0.56736 0.89044 -0.36400
O 	O 	0.82806 0.56980 0.95553 -0.32100
O 	O 	0.81888 0.38868 0.85247 -0.37000
O 	O 	0.85362 0.29802 0.91233 -0.34500
C 	C 	0.79765 0.43265 0.65554 0.29100
O 	O 	0.80272 0.45567 0.61870 -0.35600
C 	C 	0.90560 0.80615 0.71627 0.30600
C 	C 	0.92186 0.88768 0.82015 0.28300
C 	C 	0.90551 0.05799 0.67479 0.32200
C 	C 	0.89512 0.16460 0.76717 0.28500
Ni	Ni	0.86501 0.95757 0.75101 1.11100
O 	O 	0.85992 0.97397 0.69358 -0.40000
O 	O 	0.98964 0.87738 0.70953 -0.37100
O 	O 	0.84996 0.82178 0.73905 -0.36600
O 	O 	0.83609 0.06812 0.76457 -0.34700
O 	O 	0.97003 0.86495 0.79534 -0.35700
O 	O 	0.86518 0.91967 0.80748 -0.36600
O 	O 	0.95670 0.14085 0.69378 -0.37000
C 	C 	0.79575 0.94033 0.28871 0.25400
C 	C 	0.79053 0.91128 0.19297 0.30100
Ni	Ni	0.93342 0.09155 0.22717 1.12500
Ni	Ni	0.91527 0.88077 0.25017 1.12000
O 	O 	0.81883 0.02081 0.26694 -0.32000
O 	O 	0.85361 0.90704 0.29437 -0.37700
O 	O 	0.86290 0.99367 0.18417 -0.38400
O 	O 	0.79781 0.85047 0.21773 -0.36200
C 	C 	0.92898 0.40909 0.51863 0.24700
C 	C 	0.86263 0.42401 0.49894 -0.17600
C 	C 	0.86530 0.42731 0.45817 0.26800
F 	F 	0.92777 0.40484 0.55791 -0.40800
F 	F 	0.79925 0.43654 0.43823 -0.37300
C 	C 	0.87867 0.16511 0.58142 0.02100
C 	C 	0.92467 0.14937 0.61242 -0.00200
C 	C 	0.87795 0.06235 0.63420 0.00400
C 	C 	0.79503 0.98498 0.61914 -0.08600
H 	H 	0.91136 0.23529 0.56680 0.10400
C 	C 	0.83541 0.51311 0.68370 -0.05100
C 	C 	0.92600 0.59065 0.67802 -0.01700
C 	C 	0.94935 0.68578 0.68915 0.02900
C 	C 	0.88299 0.70394 0.70731 -0.07300
C 	C 	0.79638 0.62401 0.71774 0.00600
H 	H 	0.97569 0.57886 0.66166 0.07300
C 	C 	0.99349 0.38085 0.98395 0.32900
F 	F 	0.92219 0.29648 0.99812 -0.36700
C 	C 	0.88365 0.40189 0.77145 0.00600
C 	C 	0.79276 0.36612 0.78566 -0.06700
C 	C 	0.85752 0.23455 0.76789 -0.04400
C 	C 	0.91748 0.33643 0.76449 -0.00200
H 	H 	0.93207 0.47992 0.77207 0.05600
C 	C 	0.81654 0.74822 0.91144 -0.00300
C 	C 	0.88458 0.72185 0.92001 -0.03100
C 	C 	0.97576 0.78466 0.90745 0.01700
C 	C 	0.99168 0.85120 0.87732 0.02600
C 	C 	0.91659 0.85695 0.86101 -0.05900
C 	C 	0.83123 0.81315 0.88080 0.00600
