data_crystal

_cell_length_a 17.97375
_cell_length_b 17.66504
_cell_length_c 43.55034
_cell_angle_alpha 89.62097
_cell_angle_beta  89.63116
_cell_angle_gamma 119.44502

_symmetry_space_group_name_	'P 1'
_symmetry_space_group_name_H-M	'P 1'

loop_
_symmetry_equiv_pos_as_xyz
  x,y,z

loop_
_atom_site_label
_atom_site_type_symbol
_atom_site_fract_x
_atom_site_fract_y
_atom_site_fract_z
_atom_site_charge
C 	C 	0.11370 0.16568 0.76813 0.25700
C 	C 	0.14744 0.03371 0.70660 0.27000
Ni	Ni	0.03600 0.96564 0.76241 1.11400
Ni	Ni	0.01549 0.08841 0.71137 1.11600
O 	O 	0.12628 0.09724 0.77029 -0.34800
O 	O 	0.06377 0.17118 0.74687 -0.36400
O 	O 	0.10125 0.96366 0.72322 -0.34600
O 	O 	0.13413 0.10037 0.70820 -0.35000
C 	C 	0.25754 0.63262 0.36448 0.26500
C 	C 	0.24784 0.54911 0.46155 0.39500
O 	O 	0.27771 0.56961 0.36808 -0.35000
O 	O 	0.23955 0.51827 0.43329 -0.35600
C 	C 	0.11731 0.63204 0.07082 0.29100
C 	C 	0.21540 0.49208 0.01506 0.29200
C 	C 	0.18087 0.67987 0.97539 0.40800
O 	O 	0.20856 0.75435 0.98964 -0.35500
O 	O 	0.13533 0.67225 0.04421 -0.33500
O 	O 	0.28255 0.54406 0.99782 -0.33100
O 	O 	0.23338 0.65135 0.96833 -0.35200
C 	C 	0.04712 0.13169 0.15594 0.27600
C 	C 	0.17997 0.20641 0.22832 0.25500
C 	C 	0.93075 0.85596 0.18458 0.28500
C 	C 	0.06676 0.92030 0.25522 0.25400
Ni	Ni	0.08109 0.02593 0.20032 1.11900
O 	O 	0.01392 0.89910 0.18873 -0.35500
O 	O 	0.05212 0.18369 0.17833 -0.34700
O 	O 	0.03595 0.05387 0.16190 -0.36400
O 	O 	0.98218 0.87912 0.25123 -0.35200
O 	O 	0.12001 0.98642 0.23722 -0.34700
O 	O 	0.17268 0.15427 0.20512 -0.34800
C 	C 	0.11657 0.19130 0.07898 0.12800
C 	C 	0.17957 0.23971 0.05682 -0.08400
C 	C 	0.15893 0.27895 0.03259 0.03100
C 	C 	0.08151 0.27776 0.03212 0.12000
C 	C 	0.02005 0.23282 0.05521 -0.07900
C 	C 	0.03749 0.18602 0.07746 0.01900
O 	O 	0.13733 0.17577 0.10821 -0.17500
C 	C 	0.06500 0.16464 0.12422 0.05300
C 	C 	0.00477 0.16914 0.10615 -0.05700
O 	O 	0.08515 0.34899 0.01706 -0.13700
C 	C 	0.17302 0.39765 0.01122 0.06500
C 	C 	0.21630 0.35389 0.01886 -0.05300
H 	H 	0.24476 0.25337 0.05999 0.10800
H 	H 	0.96426 0.24087 0.05737 0.09800
H 	H 	0.95372 0.17976 0.11449 0.07100
H 	H 	0.28362 0.38635 0.02395 0.07800
C 	C 	0.89479 0.65583 0.15716 0.12600
C 	C 	0.93564 0.60639 0.15319 -0.08200
C 	C 	0.94818 0.58569 0.12327 0.02700
C 	C 	0.92774 0.61922 0.09796 0.12500
C 	C 	0.88919 0.67088 0.10195 -0.07600
C 	C 	0.86960 0.68496 0.13188 0.02200
O 	O 	0.90873 0.70621 0.18306 -0.17700
C 	C 	0.89297 0.77002 0.17077 0.04900
C 	C 	0.86872 0.75749 0.14049 -0.04800
O 	O 	0.97748 0.62874 0.07216 -0.16000
C 	C 	0.03268 0.60265 0.08469 0.05700
C 	C 	0.37814 0.35671 0.26163 0.02400
C 	C 	0.35893 0.40945 0.24374 0.12200
C 	C 	0.38809 0.49600 0.25211 -0.08000
C 	C 	0.44184 0.52855 0.27760 0.01300
C 	C 	0.44932 0.59460 0.29493 -0.05000
O 	O 	0.28720 0.36409 0.22567 -0.17700
C 	C 	0.26481 0.27941 0.23465 0.06200
C 	C 	0.31799 0.27418 0.25617 -0.05900
H 	H 	0.36468 0.53454 0.24055 0.07400
H 	H 	0.41815 0.63247 0.29000 0.06200
H 	H 	0.29931 0.22029 0.27212 0.06600
C 	C 	0.15791 0.79961 0.28560 0.12300
C 	C 	0.18117 0.73532 0.28184 -0.07900
C 	C 	0.15417 0.66891 0.30423 0.01600
C 	C 	0.10665 0.66747 0.32959 0.12900
C 	C 	0.07758 0.72799 0.33180 -0.07800
C 	C 	0.10851 0.79627 0.31028 0.02900
O 	O 	0.15852 0.85180 0.26152 -0.17600
C 	C 	0.10291 0.87777 0.27410 0.06200
C 	C 	0.07190 0.84426 0.30304 -0.05600
O 	O 	0.12166 0.63154 0.35567 -0.16100
C 	C 	0.18657 0.61702 0.34444 0.06000
C 	C 	0.20271 0.63477 0.31343 -0.05200
H 	H 	0.22062 0.73789 0.26252 0.07500
H 	H 	0.03892 0.72647 0.35122 0.09600
H 	H 	0.01293 0.83611 0.31298 0.06900
H 	H 	0.26287 0.64979 0.30244 0.06000
C 	C 	0.05642 0.40354 0.51061 0.27400
C 	C 	0.13859 0.44190 0.49764 0.27900
C 	C 	0.17017 0.51923 0.48046 -0.19000
C 	C 	0.12101 0.56080 0.47783 0.27900
F 	F 	0.15162 0.63638 0.46162 -0.37900
F 	F 	0.18593 0.40155 0.50047 -0.37500
F 	F 	0.02503 0.32590 0.52552 -0.39500
C 	C 	0.22597 0.04519 0.69204 0.03100
C 	C 	0.22559 0.98757 0.67083 -0.00000
H 	H 	0.17561 0.95257 0.65432 0.06200
C 	C 	0.06169 0.65898 0.94117 0.27200
C 	C 	0.09168 0.62958 0.96564 -0.19600
F 	F 	0.06811 0.51594 0.00111 -0.39200
F 	F 	0.11086 0.74006 0.92922 -0.37700
C 	C 	0.17299 0.24553 0.78378 0.05700
H 	H 	0.12204 0.21482 0.83060 0.06100
C 	C 	0.03907 0.52315 0.49109 0.27300
O 	O 	0.98315 0.01154 0.67446 -0.37100
Ni	Ni	0.25274 0.77106 0.03301 1.12700
C 	C 	0.01458 0.57515 0.11489 -0.05500
H 	H 	0.98131 0.05410 0.55673 0.09900
O 	O 	0.96534 0.99810 0.74129 -0.69800
H 	H 	0.95378 0.02903 0.75775 0.14400
C 	C 	0.16098 0.26329 0.81348 -0.06100
O 	O 	0.31203 0.71481 0.37116 -0.33300
O 	O 	0.24577 0.31084 0.76913 -0.17800
Ni	Ni	0.33998 0.55261 0.40487 1.13000
O 	O 	0.32384 0.58993 0.47503 -0.34100
O 	O 	0.39354 0.51195 0.43695 -0.33100
H 	H 	0.33126 0.67052 0.41948 0.17600
Ni	Ni	0.33508 0.67717 0.99357 1.14100
O 	O 	0.17648 0.62584 0.08636 -0.35300
O 	O 	0.19230 0.52165 0.03855 -0.32700
O 	O 	0.36268 0.87487 0.01907 -0.34300
O 	O 	0.30430 0.69992 0.03299 -0.71300
H 	H 	0.96482 0.59263 0.17256 0.08000
H 	H 	0.06075 0.57513 0.13079 0.07000
C 	C 	0.45606 0.47425 0.29666 0.12500
C 	C 	0.42146 0.38596 0.28950 -0.08300
C 	C 	0.30675 0.00434 0.66836 -0.03600
O 	O 	0.30609 0.10007 0.70451 -0.17800
H 	H 	0.30441 0.95168 0.62327 0.08500
O 	O 	0.28387 0.80044 0.07853 -0.33700
H 	H 	0.42295 0.34069 0.30605 0.09000
O 	O 	0.96271 0.95200 0.80134 -0.34400
H 	H 	0.93937 0.94979 0.86167 0.08000
C 	C 	0.46885 0.57896 0.32407 0.04700
H 	H 	0.88290 0.70623 0.08263 0.08700
C 	C 	0.04162 0.54429 0.97680 0.26800
C 	C 	0.70602 0.59018 0.94658 0.25500
C 	C 	0.59303 0.22018 0.95967 0.39800
C 	C 	0.83647 0.47960 0.93925 0.41600
C 	C 	0.47797 0.35775 0.97225 0.37600
C 	C 	0.65456 0.30066 0.87240 0.27600
C 	C 	0.53639 0.44244 0.87605 0.27300
Ni	Ni	0.66276 0.41147 0.96967 1.12700
Ni	Ni	0.52725 0.30014 0.91571 1.12900
Ni	Ni	0.70455 0.47255 0.89761 1.12900
O 	O 	0.67198 0.53482 0.97019 -0.32400
O 	O 	0.75199 0.57853 0.92518 -0.32800
O 	O 	0.58905 0.25252 0.89068 -0.33300
O 	O 	0.66204 0.29278 0.96750 -0.32100
O 	O 	0.52458 0.22220 0.95046 -0.35900
O 	O 	0.61854 0.50124 0.87888 -0.36100
O 	O 	0.79420 0.48080 0.96376 -0.34900
O 	O 	0.79773 0.44894 0.91298 -0.35900
O 	O 	0.50975 0.35803 0.87834 -0.35400
O 	O 	0.53710 0.34586 0.98544 -0.33000
O 	O 	0.45463 0.33161 0.94356 -0.33700
O 	O 	0.67503 0.38120 0.86557 -0.35600
O 	O 	0.62556 0.40353 0.92880 -0.71300
H 	H 	0.59665 0.43817 0.93062 0.15500
C 	C 	0.77733 0.15257 0.52822 0.26800
C 	C 	0.67171 0.40320 0.48190 0.41600
C 	C 	0.91442 0.39680 0.51688 0.40100
C 	C 	0.55339 0.16245 0.49034 0.39100
C 	C 	0.74326 0.43375 0.58072 0.28300
C 	C 	0.60039 0.19029 0.59138 0.26700
Ni	Ni	0.74368 0.28087 0.49062 1.12200
Ni	Ni	0.61567 0.30230 0.53875 1.12900
Ni	Ni	0.77806 0.29532 0.56396 1.12500
O 	O 	0.80054 0.20582 0.50382 -0.33200
O 	O 	0.76686 0.17773 0.55587 -0.34500
O 	O 	0.66142 0.38117 0.57559 -0.34600
O 	O 	0.69278 0.35038 0.46799 -0.32700
O 	O 	0.67500 0.40935 0.51178 -0.36700
O 	O 	0.68270 0.24603 0.59642 -0.36400
O 	O 	0.85618 0.39546 0.49856 -0.33900
O 	O 	0.89165 0.34351 0.54071 -0.34600
O 	O 	0.55929 0.20104 0.56803 -0.32900
O 	O 	0.62792 0.17295 0.48043 -0.35400
O 	O 	0.54643 0.22799 0.50235 -0.32300
O 	O 	0.80139 0.41730 0.56925 -0.36400
O 	O 	0.70165 0.27203 0.53090 -0.71800
H 	H 	0.66664 0.20847 0.53312 0.16900
C 	C 	0.91921 0.78998 0.73564 0.27800
C 	C 	0.87771 0.90932 0.80115 0.25600
C 	C 	0.90338 0.95774 0.66735 0.29500
C 	C 	0.84969 0.07665 0.73155 0.23900
Ni	Ni	0.85180 0.91147 0.73247 1.12300
O 	O 	0.84150 0.93600 0.68775 -0.36800
O 	O 	0.96409 0.83016 0.75987 -0.33800
O 	O 	0.88926 0.82763 0.71745 -0.36900
O 	O 	0.90960 0.10275 0.70959 -0.35700
O 	O 	0.81175 0.99597 0.74275 -0.33900
O 	O 	0.83480 0.86390 0.77674 -0.34600
C 	C 	0.58857 0.82790 0.42475 0.29400
C 	C 	0.45398 0.61817 0.35145 0.28000
C 	C 	0.39510 0.84037 0.44204 0.38300
C 	C 	0.47357 0.55976 0.44556 0.38300
Ni	Ni	0.43529 0.75665 0.38590 1.11900
Ni	Ni	0.42836 0.69632 0.45695 1.13300
O 	O 	0.50050 0.63857 0.45602 -0.33900
O 	O 	0.55696 0.78683 0.39910 -0.35100
O 	O 	0.53883 0.81132 0.44911 -0.33500
O 	O 	0.44373 0.68667 0.34866 -0.35700
O 	O 	0.44186 0.57871 0.37798 -0.34600
O 	O 	0.43678 0.85197 0.41531 -0.34200
O 	O 	0.37049 0.76942 0.45919 -0.32300
O 	O 	0.38537 0.67023 0.41629 -0.72400
C 	C 	0.42973 0.62024 0.03088 0.37700
C 	C 	0.34789 0.79674 0.09258 0.25700
C 	C 	0.41599 0.87478 0.99765 0.36300
Ni	Ni	0.27861 0.61989 0.06578 1.11800
O 	O 	0.37849 0.59287 0.05553 -0.34000
O 	O 	0.43835 0.68724 0.01477 -0.34700
O 	O 	0.39612 0.80528 0.98018 -0.31500
O 	O 	0.35237 0.72408 0.09362 -0.34200
H 	H 	0.36195 0.74422 0.03922 0.15500
C 	C 	0.93195 0.06631 0.28678 0.23900
C 	C 	0.81185 0.00396 0.20780 0.24200
Ni	Ni	0.99153 0.13891 0.22108 1.11500
Ni	Ni	0.90958 0.93480 0.23999 1.12600
O 	O 	0.92732 0.11448 0.26388 -0.33600
O 	O 	0.92482 0.98873 0.28187 -0.34700
O 	O 	0.87690 0.07661 0.19786 -0.34600
O 	O 	0.81700 0.96751 0.23345 -0.34500
O 	O 	0.11285 0.21039 0.23925 -0.34900
O 	O 	0.88057 0.87905 0.19867 -0.36900
O 	O 	0.00440 0.04047 0.22642 -0.72800
H 	H 	0.03813 0.05698 0.24538 0.15400
C 	C 	0.48981 0.91377 0.14945 0.12400
C 	C 	0.52118 0.89842 0.17694 -0.07800
C 	C 	0.60286 0.90658 0.17637 0.01800
C 	C 	0.65491 0.93730 0.15083 0.12700
C 	C 	0.62570 0.95721 0.12398 -0.07900
C 	C 	0.54262 0.94558 0.12389 0.03300
O 	O 	0.40349 0.86782 0.14241 -0.17600
C 	C 	0.40950 0.87070 0.11033 0.06800
C 	C 	0.49204 0.91857 0.09930 -0.03000
O 	O 	0.74109 0.97219 0.15695 -0.17500
C 	C 	0.73569 0.96042 0.18880 0.06900
C 	C 	0.65359 0.92184 0.20074 -0.05900
H 	H 	0.48087 0.87450 0.19726 0.07600
H 	H 	0.66616 0.98053 0.10366 0.09600
H 	H 	0.51263 0.90553 0.07748 0.09700
H 	H 	0.63724 0.92936 0.22409 0.07000
H 	H 	0.87739 0.80926 0.12483 0.07100
C 	C 	0.79961 0.98312 0.40785 0.14600
C 	C 	0.87230 0.99601 0.39138 -0.06300
C 	C 	0.90334 0.05812 0.36747 0.00900
C 	C 	0.85766 0.09748 0.35755 0.12100
C 	C 	0.78334 0.08243 0.37342 -0.07100
C 	C 	0.75893 0.02934 0.39992 -0.01700
O 	O 	0.74729 0.90546 0.42337 -0.15300
C 	C 	0.67101 0.90833 0.42353 0.05100
C 	C 	0.67778 0.98233 0.40999 -0.02200
O 	O 	0.87030 0.12111 0.32660 -0.17800
C 	C 	0.92572 0.08994 0.31865 0.05800
C 	C 	0.94681 0.05385 0.34298 -0.05100
H 	H 	0.89888 0.95343 0.39518 0.09400
H 	H 	0.74194 0.10486 0.36392 0.07900
H 	H 	0.62444 0.98615 0.40013 0.06900
H 	H 	0.96876 0.00690 0.34062 0.06500
O 	O 	0.47539 0.50352 0.32662 -0.16600
C 	C 	0.45330 0.07244 0.45006 0.26300
C 	C 	0.47608 0.08362 0.48116 -0.17200
C 	C 	0.44259 0.01069 0.50073 0.25000
C 	C 	0.40237 0.92718 0.48833 0.29800
C 	C 	0.39603 0.91689 0.45619 -0.18600
C 	C 	0.41203 0.98896 0.43768 0.29600
F 	F 	0.39434 0.97889 0.40723 -0.38100
F 	F 	0.47989 0.14266 0.43119 -0.34900
F 	F 	0.37552 0.85713 0.50733 -0.37600
F 	F 	0.45767 0.02082 0.53134 -0.38900
C 	C 	0.00519 0.44290 0.50677 -0.20000
F 	F 	0.99216 0.56397 0.48829 -0.35900
C 	C 	0.66602 0.53438 0.46437 0.28400
C 	C 	0.62996 0.44373 0.46461 -0.19800
C 	C 	0.54661 0.39195 0.45370 0.27700
C 	C 	0.49625 0.42956 0.44609 0.27700
C 	C 	0.52975 0.52009 0.44864 -0.18000
C 	C 	0.61698 0.57263 0.45579 0.27200
F 	F 	0.65409 0.66065 0.45468 -0.37400
F 	F 	0.74796 0.58544 0.47340 -0.36700
F 	F 	0.41464 0.37769 0.43689 -0.37000
F 	F 	0.51287 0.30461 0.45186 -0.35400
C 	C 	0.88991 0.95283 0.58679 0.14600
C 	C 	0.91467 0.00660 0.56059 -0.09100
C 	C 	0.85094 0.00641 0.54202 0.02000
C 	C 	0.76574 0.95998 0.55054 0.14400
C 	C 	0.74116 0.90749 0.57708 -0.07500
C 	C 	0.80429 0.90206 0.59419 0.02000
O 	O 	0.94366 0.97251 0.61183 -0.16600
C 	C 	0.88244 0.93226 0.63509 0.04800
C 	C 	0.79947 0.88912 0.62477 -0.04700
O 	O 	0.71769 0.99659 0.54000 -0.15800
C 	C 	0.78238 0.07258 0.52643 0.05200
C 	C 	0.86116 0.07695 0.52639 -0.04700
H 	H 	0.67639 0.87962 0.58593 0.08900
H 	H 	0.74387 0.87486 0.63875 0.07100
H 	H 	0.92127 0.13744 0.52488 0.10500
C 	C 	0.43296 0.04030 0.63830 0.09200
C 	C 	0.34375 0.99222 0.64170 -0.02300
C 	C 	0.35401 0.07108 0.68827 0.14200
C 	C 	0.44248 0.12277 0.68386 -0.09600
C 	C 	0.48140 0.10121 0.65997 0.03400
O 	O 	0.47286 0.05451 0.60976 -0.14400
C 	C 	0.54922 0.13017 0.61614 0.06100
C 	C 	0.55496 0.15810 0.64599 -0.06000
H 	H 	0.47863 0.18106 0.69718 0.07900
H 	H 	0.59441 0.22497 0.65303 0.07100
C 	C 	0.91121 0.63512 0.68759 0.12500
C 	C 	0.92530 0.63238 0.65597 -0.08200
C 	C 	0.85419 0.59488 0.63676 0.02200
C 	C 	0.77238 0.55188 0.64839 0.12000
C 	C 	0.75787 0.54945 0.68010 -0.08300
C 	C 	0.82880 0.59195 0.69946 0.01500
O 	O 	0.96724 0.70533 0.70506 -0.17400
C 	C 	0.90991 0.70631 0.72664 0.05300
C 	C 	0.82865 0.63580 0.72452 -0.05100
O 	O 	0.71309 0.49140 0.62854 -0.17600
C 	C 	0.76811 0.50117 0.60409 0.05500
C 	C 	0.85247 0.56285 0.60883 -0.04700
H 	H 	0.98952 0.66526 0.64645 0.08600
H 	H 	0.69341 0.51686 0.68940 0.07400
H 	H 	0.77192 0.63571 0.73324 0.05800
H 	H 	0.90689 0.56392 0.59752 0.08300
C 	C 	0.96314 0.48880 0.96361 0.29100
C 	C 	0.92938 0.52022 0.94121 -0.20500
C 	C 	0.98050 0.60454 0.92906 0.29000
F 	F 	0.91546 0.40665 0.97491 -0.38000
F 	F 	0.94928 0.63555 0.90696 -0.39600
C 	C 	0.57603 0.11400 0.00025 0.28400
C 	C 	0.58346 0.13559 0.96896 -0.18800
C 	C 	0.55565 0.06882 0.94723 0.26200
C 	C 	0.50798 0.98156 0.95666 0.28700
C 	C 	0.48849 0.96060 0.98802 -0.16600
C 	C 	0.52757 0.02718 0.00980 0.25700
F 	F 	0.51173 0.00881 0.04014 -0.40500
F 	F 	0.60708 0.17778 0.02156 -0.37900
F 	F 	0.47555 0.91838 0.93516 -0.37200
F 	F 	0.56832 0.08876 0.91680 -0.39300
C 	C 	0.45345 0.42216 0.01910 0.26600
C 	C 	0.45444 0.41808 0.98682 -0.20400
C 	C 	0.45442 0.48496 0.96929 0.26800
C 	C 	0.45634 0.55623 0.98367 0.26400
C 	C 	0.45273 0.55915 0.01603 -0.19500
C 	C 	0.45525 0.49346 0.03357 0.26600
F 	F 	0.45686 0.49732 0.06470 -0.38900
F 	F 	0.45147 0.35703 0.03646 -0.38300
F 	F 	0.45932 0.62139 0.96605 -0.41400
F 	F 	0.45592 0.48266 0.93820 -0.40900
C 	C 	0.72807 0.15381 0.76703 0.11800
C 	C 	0.66831 0.12962 0.79113 -0.07900
C 	C 	0.69484 0.17484 0.81875 0.01700
C 	C 	0.77358 0.24794 0.82132 0.12800
C 	C 	0.83290 0.27394 0.79707 -0.08600
C 	C 	0.80829 0.22587 0.76984 0.02100
O 	O 	0.72566 0.09287 0.74661 -0.18200
C 	C 	0.81243 0.13143 0.73909 0.06100
C 	C 	0.86165 0.21186 0.75209 -0.06300
O 	O 	0.77702 0.30497 0.84375 -0.17100
C 	C 	0.69242 0.25865 0.85429 0.06500
C 	C 	0.64296 0.18117 0.83951 -0.03200
H 	H 	0.60532 0.07334 0.78915 0.08000
H 	H 	0.89595 0.33001 0.79925 0.08300
H 	H 	0.92954 0.24015 0.75629 0.06700
H 	H 	0.57400 0.14958 0.83769 0.07900
C 	C 	0.34996 0.43107 0.85064 0.12500
C 	C 	0.26324 0.36844 0.84865 -0.07700
C 	C 	0.22784 0.34185 0.81947 0.02100
C 	C 	0.27834 0.36899 0.79325 0.12100
C 	C 	0.36578 0.42876 0.79533 -0.08100
C 	C 	0.39941 0.46257 0.82426 0.02100
O 	O 	0.39660 0.43677 0.87660 -0.14500
C 	C 	0.47760 0.46897 0.86330 0.06100
C 	C 	0.48024 0.48721 0.83234 -0.05300
H 	H 	0.22693 0.33557 0.86916 0.08600
H 	H 	0.40760 0.44201 0.77560 0.07600
H 	H 	0.52809 0.48898 0.81659 0.06500
C 	C 	0.73523 0.83673 0.86504 0.12800
C 	C 	0.66790 0.76604 0.88049 -0.07400
C 	C 	0.67896 0.75050 0.91143 0.03700
C 	C 	0.75749 0.79663 0.92529 0.12900
C 	C 	0.82561 0.86571 0.90947 -0.07200
C 	C 	0.81105 0.88791 0.87996 0.02700
O 	O 	0.74314 0.83987 0.83314 -0.17600
C 	C 	0.83098 0.89681 0.83043 0.06100
C 	C 	0.87183 0.92584 0.85811 -0.05300
O 	O 	0.77199 0.74960 0.94788 -0.16200
C 	C 	0.69835 0.66882 0.94479 0.07100
C 	C 	0.64071 0.67071 0.92438 -0.04100
H 	H 	0.61221 0.71976 0.86799 0.09000
H 	H 	0.88961 0.89554 0.91866 0.09400
H 	H 	0.59208 0.61355 0.91302 0.09900
