data_crystal

_cell_length_a 26.14700
_cell_length_b 26.52200
_cell_length_c 38.68548
_cell_angle_alpha 95.51396
_cell_angle_beta  95.51144
_cell_angle_gamma 125.67900

_symmetry_space_group_name_	'P 1'
_symmetry_space_group_name_H-M	'P 1'

loop_
_symmetry_equiv_pos_as_xyz
  x,y,z

loop_
_atom_site_label
_atom_site_type_symbol
_atom_site_fract_x
_atom_site_fract_y
_atom_site_fract_z
_atom_site_charge
C 	C 	0.96176 0.01718 0.98705 0.05400
C 	C 	0.02474 0.04696 0.98134 -0.09200
C 	C 	0.05450 0.01719 0.98533 0.05100
H 	H 	0.05099 0.09370 0.97471 0.05600
C 	C 	0.03030 0.01077 0.46590 0.03400
C 	C 	0.99911 0.03937 0.46624 -0.07100
H 	H 	0.02502 0.08869 0.46401 0.05100
Cu	Cu	0.64180 0.23481 0.99988 0.92600
Cu	Cu	0.68911 0.24812 0.92389 0.87000
Cu	Cu	0.67180 0.33977 0.95935 0.89600
Cu	Cu	0.64067 0.34820 0.03161 0.89500
C 	C 	0.66911 0.27809 0.07482 0.28800
O 	O 	0.54813 0.19336 0.00114 -0.35700
C 	C 	0.64530 0.30236 0.88130 0.29000
O 	O 	0.69084 0.33348 0.00709 -0.63800
O 	O 	0.63028 0.24709 0.95099 -0.64200
O 	O 	0.68397 0.19298 0.99235 -0.37900
O 	O 	0.75238 0.26550 0.96172 -0.44100
O 	O 	0.63643 0.30116 0.06978 -0.38600
O 	O 	0.71757 0.43031 0.97045 -0.38400
C 	C 	0.71269 0.46146 0.99711 0.29300
C 	C 	0.52118 0.22100 0.99330 0.28400
O 	O 	0.55696 0.28101 0.99100 -0.39400
O 	O 	0.67348 0.43231 0.01923 -0.38900
O 	O 	0.66578 0.23905 0.04914 -0.36100
C 	C 	0.73870 0.22280 0.98120 0.29500
O 	O 	0.66781 0.34785 0.90904 -0.38700
O 	O 	0.64480 0.25285 0.88373 -0.42000
H 	H 	0.73715 0.36078 0.01753 0.16300
H 	H 	0.58534 0.22105 0.93812 0.17300
Cu	Cu	0.73458 0.34175 0.46023 0.92800
Cu	Cu	0.72787 0.29917 0.53764 0.87100
Cu	Cu	0.62638 0.30508 0.50054 0.89800
Cu	Cu	0.61520 0.33505 0.42851 0.89400
C 	C 	0.69500 0.31924 0.38498 0.28900
O 	O 	0.76985 0.43264 0.45830 -0.36400
C 	C 	0.66486 0.33477 0.57859 0.28900
O 	O 	0.63425 0.28819 0.45288 -0.64100
O 	O 	0.72146 0.35179 0.50908 -0.64200
O 	O 	0.78281 0.30585 0.46807 -0.37400
O 	O 	0.71527 0.23756 0.50109 -0.43800
O 	O 	0.66656 0.34640 0.39086 -0.38600
O 	O 	0.53388 0.25504 0.48927 -0.37800
C 	C 	0.50028 0.25569 0.46172 0.29400
C 	C 	0.74019 0.45620 0.46879 0.28500
O 	O 	0.67879 0.41809 0.46970 -0.38800
O 	O 	0.52816 0.29633 0.44027 -0.39300
O 	O 	0.73074 0.31827 0.41110 -0.36100
C 	C 	0.75734 0.25316 0.48039 0.29400
O 	O 	0.61786 0.30756 0.55071 -0.38700
O 	O 	0.71812 0.34046 0.57689 -0.41900
H 	H 	0.60878 0.24272 0.44232 0.16400
H 	H 	0.74521 0.39607 0.52153 0.17100
C 	C 	0.65332 0.34924 0.61349 -0.09300
C 	C 	0.70466 0.39891 0.63950 0.01900
C 	C 	0.69590 0.40658 0.67420 -0.07700
C 	C 	0.63598 0.36434 0.68324 0.04600
C 	C 	0.58355 0.31751 0.65674 -0.07600
C 	C 	0.59219 0.30992 0.62202 0.01800
C 	C 	0.62962 0.36635 0.72079 -0.05400
C 	C 	0.60942 0.31539 0.73560 -0.05300
C 	C 	0.61277 0.31877 0.77428 0.04600
C 	C 	0.56495 0.26624 0.78707 -0.07700
C 	C 	0.57372 0.26269 0.82274 0.02000
C 	C 	0.63022 0.31184 0.84603 -0.09400
C 	C 	0.67624 0.36625 0.83382 0.01900
C 	C 	0.66803 0.36945 0.79804 -0.07600
H 	H 	0.75170 0.43052 0.63306 0.02700
H 	H 	0.73631 0.44372 0.69434 0.04600
H 	H 	0.53662 0.28576 0.66328 0.04800
H 	H 	0.55195 0.27190 0.60213 0.03500
H 	H 	0.64712 0.41110 0.73704 0.04200
H 	H 	0.59086 0.27053 0.71901 0.04200
H 	H 	0.52214 0.22695 0.76907 0.04600
H 	H 	0.53764 0.22069 0.83198 0.02500
H 	H 	0.72010 0.40446 0.85160 0.02900
H 	H 	0.70609 0.40973 0.78853 0.04700
C 	C 	0.70085 0.30536 0.34847 -0.08800
C 	C 	0.68677 0.24666 0.33501 0.01800
C 	C 	0.68759 0.23176 0.29944 -0.07500
C 	C 	0.70390 0.27599 0.27734 0.04700
C 	C 	0.71952 0.33531 0.29111 -0.07600
C 	C 	0.71804 0.34989 0.32648 0.02100
C 	C 	0.69781 0.25778 0.23902 -0.05300
C 	C 	0.74538 0.29541 0.22209 -0.05300
C 	C 	0.73217 0.29148 0.18353 0.04700
C 	C 	0.74991 0.34596 0.17042 -0.07700
C 	C 	0.73151 0.34188 0.13456 0.01900
C 	C 	0.69594 0.28338 0.11134 -0.09000
C 	C 	0.68163 0.22942 0.12400 0.02300
C 	C 	0.69980 0.23347 0.15999 -0.07600
H 	H 	0.67358 0.21201 0.35182 0.02800
H 	H 	0.67487 0.18566 0.28899 0.04800
H 	H 	0.73112 0.36944 0.27415 0.04800
H 	H 	0.72956 0.39557 0.33671 0.03300
H 	H 	0.65226 0.21612 0.22416 0.04300
H 	H 	0.79139 0.33587 0.23734 0.04400
H 	H 	0.77597 0.39113 0.18826 0.04600
H 	H 	0.74366 0.38397 0.12494 0.01800
H 	H 	0.65468 0.18408 0.10626 0.03500
H 	H 	0.68766 0.19144 0.16966 0.04900
C 	C 	0.84564 0.71899 0.48016 -0.00200
C 	C 	0.81936 0.73427 0.45322 0.01300
C 	C 	0.82343 0.65310 0.47932 0.01700
S 	S 	0.75189 0.67451 0.42119 -0.04600
H 	H 	0.91373 0.75528 0.52885 0.04600
C 	C 	0.84150 0.62525 0.45535 -0.00800
C 	C 	0.81571 0.56137 0.45294 -0.00500
C 	C 	0.77373 0.52532 0.47515 -0.09500
C 	C 	0.76082 0.55503 0.50154 0.05600
C 	C 	0.78443 0.61822 0.50287 -0.07600
S 	S 	0.89704 0.67006 0.42862 -0.04300
H 	H 	0.82734 0.53940 0.43329 0.04400
S 	S 	0.71950 0.51537 0.53458 -0.05700
H 	H 	0.77281 0.64039 0.52239 0.05300
H 	H 	0.95791 0.69841 0.44671 0.03500
H 	H 	0.76209 0.52257 0.56185 0.03100
H 	H 	0.77156 0.65991 0.39284 0.03700
C 	C 	0.85858 0.08132 0.43770 -0.05500
C 	C 	0.84955 0.10214 0.46965 -0.00300
C 	C 	0.86398 0.08661 0.50118 0.01300
C 	C 	0.89021 0.05323 0.50069 -0.05000
C 	C 	0.90135 0.03432 0.46893 -0.01500
C 	C 	0.88401 0.04722 0.43713 0.01700
C 	C 	0.82645 0.14153 0.46997 0.01900
S 	S 	0.84983 0.10903 0.54139 -0.05100
S 	S 	0.89294 0.02005 0.39644 -0.04700
H 	H 	0.84641 0.09223 0.41333 0.04800
C 	C 	0.86992 0.20797 0.47903 -0.00900
C 	C 	0.84687 0.24416 0.48113 -0.00400
C 	C 	0.78073 0.21479 0.47397 -0.10100
C 	C 	0.73748 0.14855 0.46283 0.06000
C 	C 	0.76053 0.11232 0.46131 -0.07800
S 	S 	0.95321 0.24628 0.48788 -0.04500
H 	H 	0.88036 0.29510 0.48913 0.03400
S 	S 	0.65492 0.11081 0.44903 -0.06000
H 	H 	0.72717 0.06135 0.45342 0.05300
H 	H 	0.97589 0.25704 0.45687 0.03700
H 	H 	0.62487 0.09340 0.47742 0.03600
H 	H 	0.90263 0.16821 0.55750 0.03500
C 	C 	0.32599 0.11993 0.45685 -0.07700
C 	C 	0.29830 0.15196 0.45853 0.01900
C 	C 	0.33661 0.21770 0.45965 -0.00800
C 	C 	0.40229 0.25086 0.45977 -0.00100
C 	C 	0.43036 0.21912 0.45898 -0.09300
C 	C 	0.39165 0.15303 0.45687 0.05800
C 	C 	0.22951 0.11651 0.46015 -0.00200
S 	S 	0.30288 0.25895 0.46091 -0.04000
H 	H 	0.43180 0.30159 0.46115 0.04000
S 	S 	0.42428 0.11092 0.45294 -0.06300
H 	H 	0.29636 0.06922 0.45552 0.05200
C 	C 	0.18269 0.08839 0.42898 0.01200
C 	C 	0.11775 0.05453 0.43117 -0.05000
C 	C 	0.09902 0.04833 0.46419 -0.01300
C 	C 	0.14588 0.07678 0.49536 0.01600
C 	C 	0.21077 0.11060 0.49317 -0.05400
S 	S 	0.20480 0.09524 0.38715 -0.04900
H 	H 	0.08174 0.03270 0.40719 0.04600
H 	H 	0.24677 0.13240 0.51715 0.04900
H 	H 	0.42176 0.09379 0.41791 0.03200
H 	H 	0.20887 0.04727 0.37601 0.03500
H 	H 	0.28063 0.25766 0.42705 0.03600
C 	C 	0.81319 0.66050 0.00274 0.02300
S 	S 	0.82380 0.69268 0.92831 -0.04400
C 	C 	0.84717 0.63463 0.00644 -0.01100
C 	C 	0.81377 0.56960 0.00504 0.00300
C 	C 	0.74665 0.52993 0.99989 -0.10000
C 	C 	0.71265 0.55593 0.99646 0.06200
C 	C 	0.74618 0.62110 0.99838 -0.08200
S 	S 	0.93140 0.68306 0.01226 -0.04100
H 	H 	0.83998 0.54974 0.00773 0.03100
S 	S 	0.62822 0.50717 0.98767 -0.05200
H 	H 	0.72004 0.64098 0.99535 0.05400
H 	H 	0.95703 0.70640 0.04759 0.03400
H 	H 	0.60650 0.48798 0.95186 0.03900
H 	H 	0.86734 0.68178 0.92147 0.03600
C 	C 	0.81473 0.14670 0.01485 -0.07400
C 	C 	0.84537 0.14685 0.98698 0.01500
C 	C 	0.84534 0.17663 0.95872 -0.01000
C 	C 	0.81121 0.20206 0.95743 -0.00400
C 	C 	0.77902 0.20054 0.98484 -0.10600
C 	C 	0.78395 0.17569 0.01469 0.06200
C 	C 	0.87577 0.11412 0.98708 -0.00300
S 	S 	0.88911 0.18370 0.92525 -0.04900
H 	H 	0.80915 0.22248 0.93485 0.02200
S 	S 	0.75770 0.18594 0.05324 -0.04000
H 	H 	0.81614 0.12526 0.03707 0.05200
C 	C 	0.93341 0.13953 0.01062 0.01100
C 	C 	0.96069 0.10719 0.01055 -0.03800
C 	C 	0.93257 0.05098 0.98618 -0.02500
C 	C 	0.87652 0.02718 0.96151 0.02100
C 	C 	0.84736 0.05766 0.96291 -0.05600
S 	S 	0.97282 0.21259 0.03955 -0.04300
H 	H 	0.00411 0.12598 0.02930 0.04200
H 	H 	0.80346 0.03847 0.94450 0.04800
H 	H 	0.69544 0.13516 0.05178 0.04600
H 	H 	0.95003 0.20262 0.07055 0.03500
H 	H 	0.95069 0.23764 0.93548 0.03600
C 	C 	0.34872 0.11583 0.00613 -0.07300
C 	C 	0.31893 0.12877 0.98014 0.01400
C 	C 	0.35501 0.16925 0.95728 -0.00700
C 	C 	0.42019 0.19585 0.96049 -0.00500
C 	C 	0.45077 0.18508 0.98745 -0.09900
C 	C 	0.41456 0.14494 0.01061 0.05700
C 	C 	0.25122 0.10367 0.97905 -0.00400
S 	S 	0.31979 0.18899 0.92550 -0.04200
H 	H 	0.44765 0.22657 0.94266 0.03600
S 	S 	0.45156 0.13486 0.04706 -0.03800
H 	H 	0.32102 0.08503 0.02388 0.05200
C 	C 	0.20170 0.05013 0.95390 0.01000
C 	C 	0.13771 0.02467 0.95497 -0.04600
C 	C 	0.12233 0.05015 0.98196 -0.02400
C 	C 	0.17197 0.10349 0.00729 0.02200
C 	C 	0.23596 0.13067 0.00519 -0.05300
S 	S 	0.21906 0.01289 0.92200 -0.05000
S 	S 	0.15479 0.13417 0.04302 -0.05100
H 	H 	0.27403 0.17158 0.02469 0.04800
H 	H 	0.47300 0.18223 0.07521 0.03800
H 	H 	0.14813 0.10227 0.07010 0.03700
H 	H 	0.29641 0.14702 0.89428 0.03500
C 	C 	0.89503 0.76709 0.50741 -0.05600
C 	C 	0.84687 0.79769 0.45193 -0.05000
C 	C 	0.92090 0.83037 0.50689 0.01600
H 	H 	0.82861 0.80946 0.43026 0.04500
C 	C 	0.87242 0.77272 0.03220 -0.05800
C 	C 	0.84697 0.72794 0.00089 0.00300
C 	C 	0.85522 0.74781 0.96806 0.00600
H 	H 	0.86587 0.75743 0.05745 0.04800
S 	S 	0.12388 0.07058 0.53723 -0.04800
H 	H 	0.11955 0.11850 0.54801 0.03500
H 	H 	0.87362 0.98236 0.89900 0.03600
H 	H 	0.09971 0.98359 0.93554 0.04200
H 	H 	0.90282 0.04275 0.52511 0.04500
C 	C 	0.89885 0.84608 0.47807 -0.01500
C 	C 	0.88966 0.81212 0.96691 -0.04400
S 	S 	0.97923 0.88922 0.54292 -0.04700
H 	H 	0.94968 0.89947 0.56705 0.03500
C 	C 	0.91638 0.85704 0.99823 -0.02500
C 	C 	0.90739 0.83718 0.03105 0.02400
H 	H 	0.89645 0.82740 0.94166 0.04500
C 	C 	0.90170 0.94122 0.47373 -0.08100
C 	C 	0.93303 0.91260 0.47359 0.04000
H 	H 	0.85213 0.91450 0.47702 0.05200
H 	H 	0.02071 0.92468 0.46776 0.05100
S 	S 	0.94031 0.89254 0.07081 -0.04900
H 	H 	0.89782 0.90465 0.07816 0.03600
H 	H 	0.83887 0.96022 0.38264 0.03400
C 	C 	0.95567 0.92463 0.99632 0.05300
H 	H 	0.04178 0.93178 0.99439 0.05500
H 	H 	0.87895 0.93301 0.99947 0.05600
C 	C 	0.99676 0.94701 0.46859 -0.07100
C 	C 	0.93447 0.00439 0.46953 0.04100
C 	C 	0.01957 0.95571 0.99241 -0.09400
C 	C 	0.92763 0.95625 0.99505 -0.08900
S 	S 	0.84470 0.96177 0.92747 -0.05300
H 	H 	0.22316 0.96945 0.93584 0.03400
