data_crystal

_cell_length_a 17.04726
_cell_length_b 16.79665
_cell_length_c 57.54154
_cell_angle_alpha 90.03254
_cell_angle_beta  90.02188
_cell_angle_gamma 119.85231

_symmetry_space_group_name_	'P 1'
_symmetry_space_group_name_H-M	'P 1'

loop_
_symmetry_equiv_pos_as_xyz
  x,y,z

loop_
_atom_site_label
_atom_site_type_symbol
_atom_site_fract_x
_atom_site_fract_y
_atom_site_fract_z
_atom_site_charge
O 	O 	0.04110 0.16382 0.75330 -0.33800
O 	O 	0.03911 0.12044 0.80442 -0.36000
H 	H 	0.00964 0.01716 0.24922 0.12700
C 	C 	0.05646 0.86070 0.98521 0.30900
O 	O 	0.06197 0.96492 0.05537 -0.31000
O 	O 	0.01288 0.00735 0.00668 -0.71000
H 	H 	0.10287 0.81666 0.03638 0.11400
F 	F 	0.10168 0.32418 0.79457 -0.40500
C 	C 	0.11554 0.56595 0.35855 -0.04500
F 	F 	0.00853 0.57781 0.54101 -0.37700
C 	C 	0.11391 0.56481 0.65769 0.31000
C 	C 	0.11726 0.17233 0.74425 0.29400
C 	C 	0.12567 0.17153 0.80161 0.41500
C 	C 	0.05835 0.86401 0.80201 0.42200
C 	C 	0.04424 0.88111 0.73368 0.32600
Ni	Ni	0.11805 0.02234 0.77066 1.10900
O 	O 	0.10663 0.91916 0.75007 -0.34600
O 	O 	0.10506 0.95423 0.80046 -0.32800
Ni	Ni	0.07667 0.94481 0.23225 1.13300
Ni	Ni	0.03854 0.11095 0.21847 1.12400
O 	O 	0.10555 0.97196 0.19714 -0.30300
O 	O 	0.03702 0.90432 0.26651 -0.34000
Ni	Ni	0.07128 0.07051 0.03423 1.11100
Ni	Ni	0.06978 0.04024 0.97667 1.11600
O 	O 	0.11203 0.20086 0.01908 -0.36800
O 	O 	0.08092 0.16423 0.98027 -0.37700
O 	O 	0.05646 0.91730 0.96932 -0.34400
H 	H 	0.04349 0.80981 0.30190 0.07400
H 	H 	0.05306 0.72151 0.33399 0.10200
N 	N 	0.05542 0.75013 0.04155 -0.19200
H 	H 	0.05584 0.69480 0.03334 0.09900
N 	N 	0.11687 0.38837 0.00278 -0.20200
H 	H 	0.09666 0.43742 0.00083 0.09400
H 	H 	0.09355 0.34500 0.01720 0.11100
C 	C 	0.10216 0.80895 0.97945 -0.09100
C 	C 	0.05338 0.72286 0.96832 0.13600
C 	C 	0.09796 0.69547 0.95259 -0.03900
H 	H 	0.05934 0.63260 0.94274 0.07200
C 	C 	0.12280 0.79047 0.85771 0.28300
C 	C 	0.08955 0.81742 0.81828 -0.18700
C 	C 	0.08757 0.82982 0.84238 0.29000
F 	F 	0.12230 0.80461 0.88093 -0.37900
C 	C 	0.15447 0.32678 0.81257 0.27200
F 	F 	0.17030 0.46954 0.82467 -0.35900
H 	H 	0.10822 0.12829 0.70112 0.09800
C 	C 	0.07323 0.88195 0.70924 -0.10800
C 	C 	0.02520 0.80536 0.69435 0.14500
C 	C 	0.07347 0.78544 0.67775 -0.05300
H 	H 	0.03976 0.72144 0.66813 0.06800
C 	C 	0.04639 0.52438 0.34165 0.12100
C 	C 	0.09480 0.57649 0.38161 -0.09100
C 	C 	0.00513 0.55115 0.38751 0.13500
N 	N 	0.06787 0.51409 0.31952 -0.20300
H 	H 	0.03588 0.61724 0.41996 0.13100
H 	H 	0.13521 0.53796 0.31486 0.09900
C 	C 	0.03176 0.54492 0.64413 -0.08200
C 	C 	0.03748 0.59418 0.62335 0.12900
N 	N 	0.11808 0.65952 0.61469 -0.19000
H 	H 	0.12052 0.70934 0.60336 0.12300
C 	C 	0.07227 0.57882 0.50414 0.29100
C 	C 	0.06315 0.54122 0.48191 -0.19600
F 	F 	0.05226 0.88060 0.85094 -0.35500
H 	H 	0.01831 0.48264 0.30674 0.11300
H 	H 	0.18483 0.58700 0.35391 0.05400
C 	C 	0.14111 0.57627 0.46643 0.41100
C 	C 	0.16306 0.60000 0.40007 0.30800
O 	O 	0.15644 0.64541 0.45235 -0.35900
O 	O 	0.17929 0.52492 0.46305 -0.34900
O 	O 	0.14699 0.53936 0.41650 -0.35100
C 	C 	0.22298 0.80126 0.67131 0.29300
O 	O 	0.21904 0.76248 0.65062 -0.35100
O 	O 	0.18051 0.56585 0.64673 -0.37400
O 	O 	0.12994 0.60740 0.67794 -0.35700
O 	O 	0.13316 0.10276 0.74309 -0.39500
O 	O 	0.17133 0.14209 0.78942 -0.36800
C 	C 	0.21107 0.71058 0.86476 0.41800
Ni	Ni	0.21555 0.57763 0.89845 1.12700
O 	O 	0.16685 0.64921 0.88106 -0.35500
O 	O 	0.22160 0.51957 0.86795 -0.33400
O 	O 	0.20317 0.63387 0.92779 -0.38200
O 	O 	0.23120 0.48249 0.91705 -0.35800
C 	C 	0.20312 0.15208 0.24543 0.28900
C 	C 	0.14871 0.05576 0.18879 0.37800
O 	O 	0.19339 0.06902 0.24153 -0.35100
O 	O 	0.13432 0.16824 0.24358 -0.37100
O 	O 	0.14310 0.12285 0.19892 -0.35700
C 	C 	0.13037 0.22183 0.99660 0.28900
C 	C 	0.23618 0.11944 0.00779 0.29900
O 	O 	0.18734 0.07117 0.02501 -0.38500
O 	O 	0.20519 0.09777 0.98618 -0.38400
C 	C 	0.22217 0.08047 0.17211 -0.19000
F 	F 	0.15067 0.13073 0.14462 -0.36400
C 	C 	0.21365 0.45025 0.96965 -0.04500
C 	C 	0.19897 0.31508 0.98926 -0.09000
C 	C 	0.17597 0.38482 0.98757 0.11800
H 	H 	0.19292 0.50131 0.96757 0.05400
C 	C 	0.19698 0.85721 0.97816 -0.03600
C 	C 	0.19143 0.74994 0.94890 -0.06800
C 	C 	0.24247 0.82809 0.96302 0.11700
H 	H 	0.23493 0.92065 0.98781 0.06100
C 	C 	0.16149 0.73954 0.84902 -0.19000
C 	C 	0.16169 0.72554 0.82496 0.28700
C 	C 	0.12538 0.76378 0.80966 0.28400
F 	F 	0.12791 0.75140 0.78641 -0.37900
C 	C 	0.17405 0.25550 0.81558 -0.21400
C 	C 	0.23594 0.39955 0.84814 -0.18400
C 	C 	0.18690 0.39948 0.82843 0.26800
C 	C 	0.22907 0.33697 0.74741 -0.04000
C 	C 	0.18160 0.25964 0.73327 -0.07500
C 	C 	0.19158 0.26862 0.70882 0.11000
H 	H 	0.22643 0.32904 0.76611 0.08500
N 	N 	0.14990 0.19415 0.69459 -0.19900
H 	H 	0.15841 0.20181 0.67659 0.09000
C 	C 	0.16028 0.95037 0.70255 0.02100
C 	C 	0.16699 0.84370 0.67524 -0.07000
C 	C 	0.20708 0.93204 0.68521 0.09900
H 	H 	0.19410 0.01468 0.71202 0.01600
H 	H 	0.17475 0.65163 0.61538 0.04700
F 	F 	0.15370 0.64789 0.51143 -0.36300
O 	O 	0.22432 0.68641 0.40334 -0.37400
C 	C 	0.23359 0.72309 0.93044 0.29400
C 	C 	0.22566 0.12932 0.15199 0.27200
O 	O 	0.23557 0.53820 0.69754 -0.37500
H 	H 	0.18441 0.23797 0.28122 0.10500
F 	F 	0.19864 0.67630 0.81637 -0.35600
C 	C 	0.22755 0.25817 0.83438 0.28600
H 	H 	0.23804 0.34872 0.59262 0.11400
H 	H 	0.24360 0.45105 0.60380 0.12100
O 	O 	0.00103 0.99647 0.23291 -0.68000
F 	F 	0.01318 0.69799 0.19365 -0.37000
Ni	Ni	0.24645 0.53006 0.43368 1.12800
Ni	Ni	0.25373 0.66484 0.69503 1.12600
O 	O 	0.25903 0.78553 0.68988 -0.37100
C 	C 	0.26423 0.47258 0.86604 0.38800
N 	N 	0.24826 0.29629 0.28020 -0.19600
C 	C 	0.24336 0.35644 0.69910 -0.03400
Ni	Ni	0.27914 0.73647 0.43607 1.12100
Ni	Ni	0.28793 0.69263 0.63923 1.11900
H 	H 	0.26234 0.35076 0.29143 0.09600
C 	C 	0.27460 0.44718 0.95373 -0.08300
C 	C 	0.27144 0.32285 0.97594 -0.05300
C 	C 	0.25732 0.32887 0.85079 0.26900
F 	F 	0.24624 0.18920 0.83754 -0.38100
C 	C 	0.27981 0.43490 0.71324 -0.09700
C 	C 	0.27458 0.42502 0.73771 0.13400
H 	H 	0.24917 0.36416 0.68036 0.05500
H 	H 	0.30641 0.49158 0.76997 0.13100
H 	H 	0.26117 0.37488 0.41599 0.09400
N 	N 	0.27551 0.41280 0.60061 -0.19700
C 	C 	0.29702 0.50238 0.93237 0.29100
O 	O 	0.28187 0.78458 0.91390 -0.34400
H 	H 	0.28710 0.28949 0.02352 0.05400
H 	H 	0.29111 0.27125 0.97753 0.05700
H 	H 	0.27755 0.27770 0.41467 0.11100
N 	N 	0.30926 0.49961 0.75192 -0.20200
C 	C 	0.29627 0.23007 0.24973 -0.06800
C 	C 	0.29922 0.07683 0.17908 0.26700
F 	F 	0.29595 0.02749 0.19811 -0.40400
C 	C 	0.30529 0.38381 0.95722 0.12600
N 	N 	0.29212 0.99728 0.67913 -0.17400
N 	N 	0.29578 0.34385 0.40904 -0.19200
O 	O 	0.29963 0.75352 0.86382 -0.35300
O 	O 	0.29908 0.53357 0.40263 -0.39900
C 	C 	0.30181 0.52273 0.70251 0.31800
C 	C 	0.31517 0.29794 0.26698 0.11100
C 	C 	0.30725 0.18013 0.14003 0.27800
F 	F 	0.30911 0.22572 0.12036 -0.38900
H 	H 	0.33201 0.89512 0.35205 0.10200
O 	O 	0.32403 0.65586 0.44005 -0.72900
H 	H 	0.32469 0.65263 0.45714 0.18200
O 	O 	0.32745 0.48540 0.88101 -0.33300
H 	H 	0.33788 0.80772 0.36856 0.10700
C 	C 	0.32933 0.19380 0.01305 -0.09600
N 	N 	0.33443 0.87408 0.96251 -0.19700
H 	H 	0.32348 0.06145 0.68727 0.06700
H 	H 	0.32634 0.98562 0.66568 0.10500
F 	F 	0.30393 0.32663 0.86968 -0.38400
O 	O 	0.32693 0.48916 0.45019 -0.36700
O 	O 	0.33479 0.70142 0.66930 -0.71500
C 	C 	0.33746 0.26928 0.02568 -0.05300
H 	H 	0.33646 0.56581 0.74528 0.11900
O 	O 	0.34763 0.79761 0.46665 -0.32700
O 	O 	0.34216 0.66055 0.90017 -0.71900
O 	O 	0.34840 0.62920 0.62075 -0.34100
H 	H 	0.34688 0.39057 0.05538 0.10800
H 	H 	0.35091 0.66928 0.91708 0.15600
H 	H 	0.35532 0.18773 0.22258 0.09700
O 	O 	0.35640 0.71986 0.71954 -0.35400
C 	C 	0.35705 0.38410 0.39165 0.13200
N 	N 	0.36654 0.87681 0.36398 -0.20700
H 	H 	0.36027 0.08614 0.98600 0.09200
N 	N 	0.36179 0.37623 0.94179 -0.20000
F 	F 	0.35517 0.51503 0.51242 -0.37400
C 	C 	0.36422 0.44617 0.60591 0.13400
O 	O 	0.36746 0.56455 0.65306 -0.39300
H 	H 	0.36756 0.76840 0.67141 0.16100
C 	C 	0.36888 0.23368 0.23714 -0.04700
H 	H 	0.37012 0.84875 0.95330 0.10300
C 	C 	0.36880 0.57128 0.63060 0.31400
H 	H 	0.37278 0.40483 0.92522 0.13400
H 	H 	0.37134 0.93376 0.97235 0.10200
H 	H 	0.36937 0.33253 0.58986 0.07100
H 	H 	0.37172 0.26513 0.38578 0.06600
Ni	Ni	0.37711 0.78293 0.89231 1.12900
C 	C 	0.37831 0.54021 0.40086 0.32100
C 	C 	0.38152 0.12975 0.16762 0.27100
O 	O 	0.38343 0.55426 0.92644 -0.36000
O 	O 	0.38691 0.58786 0.70021 -0.38800
N 	N 	0.38705 0.36197 0.05984 -0.19900
C 	C 	0.38653 0.18347 0.14832 -0.19700
O 	O 	0.38885 0.84735 0.42047 -0.35000
H 	H 	0.38969 0.33464 0.94560 0.10700
C 	C 	0.38950 0.47703 0.38539 -0.08700
C 	C 	0.38931 0.33313 0.37971 -0.03600
F 	F 	0.39279 0.80259 0.51727 -0.35400
C 	C 	0.39580 0.30403 0.04487 0.12700
O 	O 	0.00034 0.83457 0.00319 -0.37600
C 	C 	0.39649 0.53857 0.46448 0.40400
C 	C 	0.39911 0.17222 0.01516 0.11500
O 	O 	0.40284 0.81208 0.63068 -0.34900
N 	N 	0.40349 0.11165 0.00033 -0.20200
C 	C 	0.40599 0.36370 0.27174 -0.02900
O 	O 	0.99594 0.81427 0.78644 -0.36100
C 	C 	0.99790 0.54400 0.51908 0.26200
N 	N 	0.98506 0.57239 0.40869 -0.20100
O 	O 	0.95805 0.83222 0.73949 -0.37800
H 	H 	0.98480 0.98713 0.75134 0.15300
C 	C 	0.95915 0.56994 0.61051 -0.05000
H 	H 	0.96361 0.60815 0.59488 0.08300
C 	C 	0.58575 0.12751 0.53437 0.40700
C 	C 	0.81884 0.44122 0.59523 0.31200
C 	C 	0.60876 0.16302 0.59833 0.30600
C 	C 	0.83893 0.42696 0.52836 0.39500
C 	C 	0.54893 0.39831 0.58983 0.31900
C 	C 	0.54690 0.38035 0.52597 0.39400
Ni	Ni	0.74144 0.27914 0.56362 1.11800
Ni	Ni	0.70210 0.44721 0.55790 1.12800
Ni	Ni	0.53604 0.24367 0.56313 1.12700
O 	O 	0.65401 0.14889 0.54907 -0.36100
O 	O 	0.53017 0.16126 0.53669 -0.35600
O 	O 	0.59745 0.45115 0.57266 -0.36100
O 	O 	0.84008 0.39652 0.58010 -0.35400
O 	O 	0.75597 0.46210 0.59028 -0.37900
O 	O 	0.49686 0.31490 0.54152 -0.34800
O 	O 	0.68631 0.23715 0.59604 -0.39100
O 	O 	0.54048 0.14762 0.58460 -0.34800
O 	O 	0.63655 0.43177 0.52774 -0.35100
O 	O 	0.80746 0.33885 0.53289 -0.33900
O 	O 	0.82288 0.47995 0.54253 -0.34600
O 	O 	0.53095 0.31252 0.59125 -0.38500
O 	O 	0.66063 0.31954 0.55618 -0.72800
H 	H 	0.65861 0.31124 0.53919 0.18300
C 	C 	0.44051 0.83966 0.40484 0.32600
C 	C 	0.43599 0.82973 0.46933 0.39500
Ni	Ni	0.44805 0.69912 0.43397 1.12800
O 	O 	0.44685 0.59880 0.41384 -0.35200
O 	O 	0.45195 0.76779 0.40453 -0.37900
O 	O 	0.45078 0.62861 0.46189 -0.35700
O 	O 	0.48498 0.81592 0.45331 -0.34000
C 	C 	0.48231 0.83165 0.63915 0.30500
C 	C 	0.44526 0.77673 0.71588 0.29100
Ni	Ni	0.43095 0.67682 0.67319 1.12000
O 	O 	0.48389 0.77996 0.69577 -0.39300
O 	O 	0.49861 0.76528 0.64609 -0.37200
C 	C 	0.81710 0.90118 0.80517 0.37400
C 	C 	0.78304 0.91394 0.75483 0.33800
Ni	Ni	0.95135 0.06399 0.77696 1.10900
Ni	Ni	0.91351 0.85167 0.77020 1.12400
O 	O 	0.86039 0.99069 0.80306 -0.31100
O 	O 	0.85866 0.85404 0.80134 -0.34200
O 	O 	0.84292 0.00291 0.75394 -0.39600
O 	O 	0.80993 0.85269 0.75241 -0.38300
O 	O 	0.99107 0.98236 0.76826 -0.69400
C 	C 	0.53954 0.80366 0.91728 0.29100
C 	C 	0.48639 0.75169 0.85648 0.41900
Ni	Ni	0.41959 0.61440 0.89375 1.13000
O 	O 	0.53541 0.73525 0.90462 -0.33700
O 	O 	0.47248 0.82289 0.91772 -0.37200
O 	O 	0.43574 0.66401 0.86037 -0.34700
O 	O 	0.48147 0.81199 0.87015 -0.35700
C 	C 	0.81164 0.53916 0.09266 0.30000
C 	C 	0.47324 0.23808 0.13601 0.39800
C 	C 	0.75319 0.46668 0.15062 0.37900
C 	C 	0.50721 0.29186 0.07159 0.29500
C 	C 	0.71190 0.18846 0.13514 0.43000
C 	C 	0.72574 0.21551 0.07400 0.30700
Ni	Ni	0.61714 0.40887 0.11187 1.12000
Ni	Ni	0.58135 0.20246 0.10305 1.12500
Ni	Ni	0.78306 0.36434 0.11169 1.13300
O 	O 	0.73326 0.52927 0.10037 -0.35800
O 	O 	0.82262 0.46756 0.08852 -0.37200
O 	O 	0.64911 0.14734 0.11916 -0.37800
O 	O 	0.48938 0.31267 0.12460 -0.33100
O 	O 	0.52832 0.20545 0.13404 -0.34800
O 	O 	0.79114 0.27739 0.08785 -0.34100
O 	O 	0.66643 0.42597 0.14569 -0.33200
O 	O 	0.81084 0.46449 0.13573 -0.34700
O 	O 	0.64318 0.20333 0.07369 -0.40000
O 	O 	0.55594 0.37802 0.07908 -0.35800
O 	O 	0.48748 0.22192 0.08571 -0.35900
O 	O 	0.75141 0.27726 0.13828 -0.36900
O 	O 	0.66294 0.33142 0.10385 -0.71700
H 	H 	0.67247 0.34543 0.08712 0.16100
C 	C 	0.91557 0.78483 0.20917 0.39400
C 	C 	0.95051 0.86270 0.27282 0.27700
C 	C 	0.87113 0.02464 0.19155 0.34700
C 	C 	0.88275 0.08149 0.25070 0.27200
Ni	Ni	0.87384 0.91492 0.23211 1.13200
O 	O 	0.82536 0.96955 0.20879 -0.31100
O 	O 	0.98351 0.80822 0.22362 -0.33600
O 	O 	0.88268 0.83969 0.20590 -0.34800
O 	O 	0.94856 0.13625 0.23598 -0.36800
O 	O 	0.86434 0.99694 0.25563 -0.36100
O 	O 	0.88553 0.83374 0.25686 -0.35200
O 	O 	0.95933 0.06114 0.19033 -0.34500
C 	C 	0.78475 0.58196 0.32984 0.30100
C 	C 	0.62172 0.18607 0.35881 0.30600
C 	C 	0.87786 0.43530 0.33262 0.30800
C 	C 	0.52072 0.34620 0.35858 0.29300
C 	C 	0.68200 0.23492 0.28636 0.32100
C 	C 	0.54113 0.35344 0.28132 0.30000
Ni	Ni	0.71238 0.39256 0.35545 1.11600
Ni	Ni	0.56018 0.25078 0.31984 1.12100
Ni	Ni	0.73670 0.42437 0.29912 1.12400
O 	O 	0.79020 0.53582 0.34823 -0.36100
O 	O 	0.74214 0.54014 0.31048 -0.37800
O 	O 	0.59824 0.21592 0.29007 -0.38900
O 	O 	0.64663 0.26170 0.37073 -0.34800
O 	O 	0.61833 0.18767 0.33627 -0.39300
O 	O 	0.63037 0.39471 0.27659 -0.36300
O 	O 	0.80879 0.36634 0.34215 -0.38000
O 	O 	0.86303 0.47462 0.31451 -0.36300
O 	O 	0.50652 0.31062 0.30111 -0.39800
O 	O 	0.60246 0.40113 0.36697 -0.34700
O 	O 	0.49937 0.26482 0.34933 -0.37000
O 	O 	0.74995 0.31883 0.28842 -0.38200
O 	O 	0.66096 0.36824 0.32547 -0.71400
H 	H 	0.63089 0.40504 0.32580 0.15800
C 	C 	0.99528 0.88077 0.05395 0.30200
C 	C 	0.87049 0.01411 0.03370 0.24400
C 	C 	0.87402 0.93211 0.96479 0.34300
Ni	Ni	0.91549 0.88310 0.00969 1.12200
O 	O 	0.92110 0.86481 0.04386 -0.37800
O 	O 	0.95191 0.00599 0.95958 -0.40100
O 	O 	0.87415 0.86579 0.97656 -0.39600
O 	O 	0.94495 0.04420 0.04662 -0.34400
O 	O 	0.83993 0.94004 0.02006 -0.33900
H 	H 	0.97889 0.03899 0.00342 0.13000
C 	C 	0.47616 0.34985 0.26368 -0.08700
C 	C 	0.45899 0.29413 0.24386 0.13800
H 	H 	0.42067 0.41448 0.28519 0.05400
N 	N 	0.52822 0.29749 0.23141 -0.20300
H 	H 	0.59512 0.34733 0.23483 0.12900
H 	H 	0.51530 0.25311 0.21737 0.14200
C 	C 	0.79883 0.73238 0.32239 -0.03400
C 	C 	0.84088 0.68261 0.32913 -0.09000
C 	C 	0.93448 0.72196 0.32500 0.12300
C 	C 	0.97508 0.78839 0.30747 -0.05500
C 	C 	0.92553 0.82417 0.29663 -0.07200
C 	C 	0.84175 0.80494 0.30648 0.11200
N 	N 	0.80413 0.85729 0.30125 -0.19900
H 	H 	0.72967 0.70911 0.32766 0.05300
N 	N 	0.98539 0.69815 0.33817 -0.20400
H 	H 	0.73973 0.83956 0.30736 0.10300
H 	H 	0.84189 0.92003 0.29289 0.11000
H 	H 	0.96043 0.66398 0.35389 0.10900
C 	C 	0.77458 0.13697 0.24473 -0.04000
C 	C 	0.82313 0.11319 0.26019 -0.07000
C 	C 	0.80553 0.10915 0.28433 0.10400
C 	C 	0.73972 0.12932 0.29240 -0.03200
C 	C 	0.70039 0.16470 0.27722 -0.10000
C 	C 	0.71116 0.16001 0.25305 0.14000
N 	N 	0.66223 0.17966 0.23782 -0.20200
H 	H 	0.78594 0.13724 0.22619 0.08800
H 	H 	0.72833 0.12938 0.31095 0.05600
N 	N 	0.85578 0.09252 0.29989 -0.19900
H 	H 	0.67278 0.17965 0.21993 0.14400
H 	H 	0.61081 0.19138 0.24362 0.12300
H 	H 	0.91411 0.09158 0.29481 0.08900
H 	H 	0.83957 0.08538 0.31756 0.08700
C 	C 	0.94175 0.64675 0.06791 -0.03400
C 	C 	0.88689 0.63278 0.08741 -0.08400
C 	C 	0.89971 0.71018 0.10047 0.13500
C 	C 	0.95187 0.79836 0.09106 -0.03800
C 	C 	0.99260 0.80996 0.06929 -0.07400
C 	C 	0.99795 0.73594 0.05942 0.10100
H 	H 	0.93844 0.58849 0.05888 0.05700
H 	H 	0.95421 0.85686 0.09973 0.08900
N 	N 	0.86437 0.70048 0.12212 -0.19900
H 	H 	0.83670 0.63814 0.13082 0.12400
H 	H 	0.87026 0.75733 0.13109 0.12800
C 	C 	0.46258 0.21129 0.03340 -0.04500
C 	C 	0.45772 0.27271 0.04922 -0.08200
H 	H 	0.51282 0.19043 0.03594 0.05200
H 	H 	0.45256 0.09228 0.00252 0.08200
H 	H 	0.41307 0.37314 0.07666 0.13500
C 	C 	0.74099 0.01132 0.05295 -0.09500
C 	C 	0.81339 0.05457 0.03753 -0.05700
C 	C 	0.84259 0.14528 0.03022 0.09500
C 	C 	0.81076 0.19692 0.04180 -0.02500
C 	C 	0.74540 0.15662 0.05924 -0.09200
C 	C 	0.70503 0.06097 0.06359 0.14200
N 	N 	0.63290 0.01688 0.07808 -0.21700
H 	H 	0.71554 0.94000 0.05757 0.09700
H 	H 	0.83775 0.26874 0.03748 0.05000
N 	N 	0.90034 0.18248 0.01202 -0.19700
H 	H 	0.61030 0.94902 0.08304 0.13500
H 	H 	0.59377 0.04593 0.08287 0.09500
H 	H 	0.91850 0.14270 0.00186 0.08900
H 	H 	0.92329 0.25033 0.00700 0.09000
C 	C 	0.86739 0.10238 0.15456 0.25700
C 	C 	0.82360 0.05401 0.17492 -0.16900
C 	C 	0.73683 0.04049 0.18026 0.22900
C 	C 	0.69913 0.08220 0.16677 0.29000
C 	C 	0.74628 0.13602 0.14760 -0.21900
C 	C 	0.82909 0.14368 0.14111 0.28600
F 	F 	0.87298 0.19212 0.12186 -0.39800
F 	F 	0.94678 0.10921 0.14777 -0.36200
F 	F 	0.61763 0.07225 0.17272 -0.37900
F 	F 	0.68973 0.98852 0.19876 -0.35700
F 	F 	0.45708 0.13144 0.17580 -0.37400
C 	C 	0.88175 0.57421 0.17643 0.26800
C 	C 	0.78936 0.53286 0.17041 -0.19300
C 	C 	0.73618 0.56606 0.18075 0.26400
C 	C 	0.77688 0.64563 0.19442 0.27300
C 	C 	0.87108 0.69317 0.19796 -0.19600
C 	C 	0.92272 0.65505 0.18966 0.26800
F 	F 	0.93243 0.53745 0.16896 -0.38100
F 	F 	0.72469 0.67688 0.20413 -0.39100
F 	F 	0.64543 0.52256 0.17722 -0.38500
C 	C 	0.62618 0.86046 0.95373 -0.04000
C 	C 	0.62504 0.86458 0.92953 -0.08000
C 	C 	0.70819 0.90706 0.91727 0.13300
C 	C 	0.78951 0.93255 0.92924 -0.03200
C 	C 	0.78867 0.91475 0.95311 -0.08600
C 	C 	0.70520 0.87738 0.96546 0.11500
N 	N 	0.69907 0.85188 0.98803 -0.19500
H 	H 	0.56281 0.83143 0.96319 0.05300
H 	H 	0.85287 0.96330 0.91978 0.08500
N 	N 	0.71031 0.92378 0.89411 -0.19800
H 	H 	0.64736 0.84858 0.99847 0.09900
H 	H 	0.73219 0.81776 0.99390 0.08700
H 	H 	0.65254 0.91382 0.88531 0.13100
H 	H 	0.77097 0.95067 0.88486 0.13100
N 	N 	0.96331 0.66752 0.97216 -0.20600
H 	H 	0.92981 0.68203 0.98520 0.10000
H 	H 	0.92671 0.60639 0.96284 0.09800
C 	C 	0.70511 0.78364 0.83244 0.26700
C 	C 	0.72952 0.85784 0.81727 -0.19800
C 	C 	0.67041 0.89287 0.81405 0.26300
C 	C 	0.58861 0.85476 0.82598 0.28300
C 	C 	0.56544 0.78246 0.84152 -0.21600
C 	C 	0.62338 0.74609 0.84449 0.27800
F 	F 	0.60238 0.67721 0.85993 -0.40900
F 	F 	0.76219 0.75054 0.83631 -0.37400
F 	F 	0.53227 0.88919 0.82273 -0.37600
F 	F 	0.69312 0.96497 0.79959 -0.39100
C 	C 	0.52682 0.76081 0.74909 -0.03700
C 	C 	0.50651 0.81805 0.73584 -0.06400
C 	C 	0.56940 0.91296 0.73545 0.10900
C 	C 	0.65899 0.94476 0.74278 0.03600
C 	C 	0.68465 0.88316 0.75181 -0.08700
C 	C 	0.61555 0.79150 0.75687 0.13100
N 	N 	0.63313 0.73314 0.76925 -0.20000
H 	H 	0.47614 0.68944 0.75125 0.06400
H 	H 	0.70894 0.01668 0.74074 0.03600
N 	N 	0.54496 0.97318 0.72717 -0.17200
H 	H 	0.58285 0.66470 0.77152 0.10800
H 	H 	0.69377 0.75570 0.77806 0.10800
H 	H 	0.47779 0.95121 0.72270 0.11000
H 	H 	0.59242 0.04304 0.72584 0.07500
N 	N 	0.93348 0.75550 0.69472 -0.20700
H 	H 	0.89539 0.78296 0.70160 0.11200
H 	H 	0.89942 0.69384 0.68548 0.09400
C 	C 	0.44019 0.51163 0.36513 -0.03300
C 	C 	0.45171 0.37336 0.36160 -0.08300
C 	C 	0.46860 0.45905 0.35263 0.11100
N 	N 	0.51518 0.49247 0.33252 -0.20100
H 	H 	0.45980 0.58061 0.35943 0.05400
H 	H 	0.53335 0.55856 0.32685 0.09600
H 	H 	0.52871 0.45125 0.32170 0.09500
C 	C 	0.93598 0.50405 0.37135 -0.03900
C 	C 	0.95531 0.49180 0.34827 -0.10400
H 	H 	0.86644 0.47770 0.37670 0.02100
H 	H 	0.91785 0.54850 0.41349 0.12500
C 	C 	0.49014 0.03070 0.36367 -0.08100
C 	C 	0.57798 0.09624 0.37056 -0.06900
C 	C 	0.62611 0.07072 0.38612 0.09000
C 	C 	0.58285 0.98155 0.39552 0.01900
C 	C 	0.49353 0.91758 0.38931 -0.10700
C 	C 	0.44898 0.94078 0.37223 0.16000
H 	H 	0.45439 0.04931 0.35115 0.04600
H 	H 	0.61738 0.96328 0.40848 0.07700
N 	N 	0.71341 0.13075 0.39202 -0.19100
H 	H 	0.74867 0.19621 0.38473 0.11400
H 	H 	0.74767 0.11155 0.40380 0.11600
C 	C 	0.40674 0.39577 0.59965 -0.02400
C 	C 	0.49898 0.43022 0.60425 -0.08500
C 	C 	0.54759 0.51294 0.61679 0.11700
C 	C 	0.50682 0.56558 0.62187 -0.03300
C 	C 	0.41473 0.53165 0.61734 -0.08600
H 	H 	0.54512 0.63011 0.63108 0.04600
N 	N 	0.63347 0.54177 0.62412 -0.20000
H 	H 	0.66197 0.49950 0.62265 0.10300
H 	H 	0.67094 0.60513 0.63245 0.09300
C 	C 	0.88039 0.48736 0.61484 -0.08500
C 	C 	0.87184 0.44049 0.63594 0.11000
C 	C 	0.94764 0.47079 0.65067 -0.05200
H 	H 	0.94188 0.43435 0.66670 0.05500
N 	N 	0.79115 0.36781 0.64231 -0.20100
H 	H 	0.73222 0.35031 0.63296 0.10300
H 	H 	0.78591 0.33076 0.65738 0.09200
C 	C 	0.56093 0.07404 0.63496 -0.09400
C 	C 	0.60296 0.08926 0.61330 -0.06000
C 	C 	0.63885 0.03287 0.60619 0.07300
C 	C 	0.61311 0.95061 0.61816 0.02400
C 	C 	0.55549 0.92684 0.63737 -0.11300
C 	C 	0.54198 0.99545 0.64775 0.16400
N 	N 	0.50435 0.98250 0.66918 -0.19000
H 	H 	0.54122 0.12194 0.64162 0.05700
H 	H 	0.63101 0.90165 0.61127 0.06000
N 	N 	0.69942 0.05833 0.58851 -0.18200
H 	H 	0.49177 0.03190 0.67657 0.06300
H 	H 	0.49058 0.92483 0.67898 0.09700
H 	H 	0.73496 0.12620 0.58284 0.07500
H 	H 	0.71835 0.01236 0.58192 0.09800
C 	C 	0.40742 0.48209 0.50367 0.27700
C 	C 	0.42684 0.48929 0.47983 -0.19600
C 	C 	0.48054 0.45450 0.47091 0.27800
C 	C 	0.51755 0.41607 0.48590 0.27500
C 	C 	0.49998 0.41089 0.50985 -0.19000
C 	C 	0.44345 0.44265 0.51863 0.27600
F 	F 	0.42651 0.43873 0.54178 -0.39200
F 	F 	0.57127 0.38484 0.47718 -0.37000
F 	F 	0.49860 0.46000 0.44780 -0.39100
C 	C 	0.58861 0.06331 0.49561 0.24400
C 	C 	0.55817 0.04888 0.51869 -0.21900
C 	C 	0.49384 0.96026 0.52604 0.31200
C 	C 	0.45676 0.88745 0.51012 0.27700
C 	C 	0.48432 0.90259 0.48676 -0.19500
C 	C 	0.55197 0.99053 0.47969 0.33400
F 	F 	0.57878 0.00650 0.45713 -0.41700
F 	F 	0.65131 0.14862 0.48840 -0.36000
F 	F 	0.46529 0.94534 0.54846 -0.37800
C 	C 	0.90411 0.43592 0.48921 0.27500
C 	C 	0.91362 0.47160 0.51174 -0.18700
C 	C 	0.97864 0.47065 0.47434 0.27400
F 	F 	0.96905 0.43545 0.45260 -0.39600
F 	F 	0.82278 0.36693 0.48184 -0.35700
