data_crystal

_cell_length_a 26.55776
_cell_length_b 26.93025
_cell_length_c 26.61512
_cell_angle_alpha 95.49780
_cell_angle_beta  95.50065
_cell_angle_gamma 125.72063

_symmetry_space_group_name_	'P 1'
_symmetry_space_group_name_H-M	'P 1'

loop_
_symmetry_equiv_pos_as_xyz
  x,y,z

loop_
_atom_site_label
_atom_site_type_symbol
_atom_site_fract_x
_atom_site_fract_y
_atom_site_fract_z
_atom_site_charge
N 	N 	0.01245 0.05166 0.99198 -0.14000
C 	C 	0.04662 0.02906 0.99125 0.13600
N 	N 	0.00053 0.03786 0.44512 -0.14100
C 	C 	0.03465 0.01516 0.44449 0.13600
C 	C 	0.20330 0.07964 0.42858 0.02500
C 	C 	0.24247 0.06328 0.44571 -0.04400
C 	C 	0.13465 0.03662 0.42803 -0.03000
C 	C 	0.10315 0.05781 0.44505 -0.07300
H 	H 	0.22281 0.01999 0.45948 0.04600
C 	C 	0.14693 0.04910 0.97725 -0.03000
C 	C 	0.95035 0.01374 0.99512 0.12800
C 	C 	0.92006 0.07775 0.43257 -0.02700
C 	C 	0.90047 0.02372 0.44737 -0.08000
C 	C 	0.91216 0.03717 0.99253 -0.08300
H 	H 	0.86462 0.08065 0.92025 0.04400
H 	H 	0.86159 0.00444 0.97807 0.05600
H 	H 	0.33663 0.08900 0.45762 0.04500
C 	C 	0.11425 0.07115 0.98839 -0.07500
H 	H 	0.20488 0.03673 0.90407 0.04400
H 	H 	0.88421 0.11934 0.35879 0.04400
H 	H 	0.96181 0.10239 0.41519 0.04300
C 	C 	0.86918 0.12289 0.39455 -0.04500
C 	C 	0.88315 0.10250 0.43659 0.02100
H 	H 	0.12784 0.10743 0.45825 0.05800
C 	C 	0.86632 0.10971 0.95250 -0.05600
H 	H 	0.80816 0.12691 0.90751 0.03200
C 	C 	0.83492 0.14704 0.39830 -0.03400
H 	H 	0.13725 0.12096 0.99393 0.05600
C 	C 	0.83462 0.13620 0.94520 -0.03100
C 	C 	0.30710 0.10267 0.44505 -0.03300
C 	C 	0.22909 0.13499 0.40927 -0.04400
H 	H 	0.19896 0.14696 0.39399 0.04500
C 	C 	0.21452 0.09191 0.97400 0.01800
C 	C 	0.23711 0.07774 0.93370 -0.04500
C 	C 	0.30138 0.11650 0.93148 -0.03300
H 	H 	0.31825 0.10532 0.90002 0.04100
C 	C 	0.82965 0.13195 0.48663 -0.03600
C 	C 	0.86377 0.10772 0.48285 -0.04600
H 	H 	0.87549 0.09341 0.51593 0.04200
C 	C 	0.90146 0.12203 0.00100 0.03100
C 	C 	0.93879 0.09787 0.00798 -0.02300
H 	H 	0.98805 0.12974 0.02693 0.04400
C 	C 	0.33329 0.15913 0.42751 0.00700
H 	H 	0.41784 0.13371 0.96310 0.07700
H 	H 	0.81470 0.13553 0.52242 0.03500
H 	H 	0.82300 0.16117 0.36518 0.04600
C 	C 	0.90489 0.16138 0.04198 -0.05100
N 	N 	0.56718 0.22146 0.63954 -0.01900
O 	O 	0.57198 0.18406 0.60932 -0.12700
O 	O 	0.51387 0.21404 0.63532 -0.10400
N 	N 	0.62607 0.20825 0.26715 -0.02500
H 	H 	0.61977 0.20892 0.16673 0.06900
O 	O 	0.56584 0.16345 0.25489 -0.11300
O 	O 	0.66248 0.20181 0.29755 -0.10200
C 	C 	0.29380 0.17457 0.40890 -0.03400
C 	C 	0.40150 0.20079 0.42597 0.01000
C 	C 	0.44517 0.21569 0.46662 -0.14300
H 	H 	0.31325 0.21724 0.39415 0.04200
H 	H 	0.41606 0.22156 0.39218 0.03700
H 	H 	0.43050 0.19592 0.50081 0.09000
C 	C 	0.34377 0.16931 0.97006 -0.00100
C 	C 	0.32110 0.18396 0.00995 -0.02800
C 	C 	0.25697 0.14505 0.01236 -0.03900
C 	C 	0.44362 0.18390 0.96786 -0.14700
H 	H 	0.24047 0.15564 0.04445 0.04500
O 	O 	0.67584 0.20116 0.00974 -0.36500
C 	C 	0.81563 0.15234 0.44464 0.00400
C 	C 	0.77884 0.17717 0.44910 0.01000
H 	H 	0.73913 0.15403 0.46894 0.03500
C 	C 	0.87283 0.18759 0.03474 -0.02400
C 	C 	0.83744 0.17497 0.98628 -0.00400
C 	C 	0.80683 0.20555 0.97729 0.00000
C 	C 	0.76593 0.20066 0.00633 -0.13900
H 	H 	0.93269 0.17194 0.07933 0.04500
H 	H 	0.87644 0.21855 0.06647 0.04200
H 	H 	0.75666 0.17565 0.03805 0.08200
O 	O 	0.54121 0.20242 0.00342 -0.35900
H 	H 	0.56737 0.22343 0.73976 0.06000
H 	H 	0.81333 0.22726 0.94372 0.02600
H 	H 	0.58222 0.21351 0.91118 0.17500
C 	C 	0.41220 0.20884 0.96961 0.01100
C 	C 	0.72870 0.22359 0.99288 0.29700
C 	C 	0.79823 0.23136 0.43467 -0.15400
C 	C 	0.51306 0.22354 0.98060 0.29800
H 	H 	0.35344 0.22465 0.03982 0.04100
O 	O 	0.72843 0.24128 0.47920 -0.43900
H 	H 	0.61312 0.24784 0.41845 0.17500
O 	O 	0.62557 0.24314 0.93152 -0.64100
O 	O 	0.65322 0.24375 0.83522 -0.41300
Cu	Cu	0.68882 0.24277 0.90074 0.87100
Cu	Cu	0.63421 0.24312 0.00633 0.93100
C 	C 	0.51321 0.25709 0.46536 0.31200
O 	O 	0.55278 0.26000 0.50177 -0.37200
C 	C 	0.64598 0.25510 0.19007 -0.02400
H 	H 	0.83841 0.25486 0.41539 0.08300
O 	O 	0.65520 0.25909 0.07993 -0.35400
C 	C 	0.61156 0.26197 0.73143 -0.02400
C 	C 	0.65294 0.26206 0.24375 0.09200
C 	C 	0.76866 0.26209 0.44769 0.31600
H 	H 	0.43814 0.25915 0.97743 0.03300
O 	O 	0.74588 0.26297 0.96129 -0.43700
C 	C 	0.61858 0.26709 0.68023 0.09000
H 	H 	0.12308 0.99919 0.96778 0.04900
H 	H 	0.85575 0.99658 0.46052 0.05900
C 	C 	0.93742 0.99904 0.44460 0.13300
N 	N 	0.01870 0.96837 0.99433 -0.13800
N 	N 	0.00584 0.95371 0.44477 -0.13800
Cu	Cu	0.66129 0.33240 0.93232 0.89800
Cu	Cu	0.62642 0.35498 0.03075 0.90100
C 	C 	0.65184 0.29834 0.11048 0.30400
C 	C 	0.65784 0.29285 0.82448 0.29800
O 	O 	0.61894 0.31773 0.09346 -0.36900
O 	O 	0.54659 0.28099 0.97235 -0.39400
O 	O 	0.64806 0.32510 0.85733 -0.36300
Cu	Cu	0.64338 0.30900 0.50698 0.90000
Cu	Cu	0.61484 0.33925 0.40820 0.89600
C 	C 	0.68304 0.32906 0.32932 0.30400
C 	C 	0.68720 0.31822 0.61581 0.29900
O 	O 	0.63964 0.29253 0.43447 -0.64100
O 	O 	0.65556 0.35369 0.34633 -0.37900
O 	O 	0.68440 0.42015 0.46744 -0.39400
O 	O 	0.53342 0.29762 0.43396 -0.39200
O 	O 	0.64936 0.32081 0.58186 -0.36100
O 	O 	0.73911 0.32729 0.60500 -0.41400
C 	C 	0.67691 0.31567 0.66921 -0.07800
C 	C 	0.66221 0.30477 0.77176 -0.07800
C 	C 	0.67011 0.30721 0.16644 -0.07300
C 	C 	0.70509 0.36722 0.19706 0.08900
C 	C 	0.71141 0.37404 0.25062 -0.02200
C 	C 	0.68401 0.32165 0.27405 -0.07500
H 	H 	0.73690 0.42011 0.27402 0.06400
N 	N 	0.73381 0.42131 0.17378 -0.02300
O 	O 	0.72495 0.46318 0.18644 -0.11900
H 	H 	0.84137 0.54651 0.42356 0.04400
H 	H 	0.11036 0.98694 0.41568 0.05000
C 	C 	0.95648 0.93012 0.99694 0.12000
N 	N 	0.92236 0.95293 0.99721 -0.14300
C 	C 	0.94292 0.91495 0.44490 0.12900
N 	N 	0.90878 0.93764 0.44442 -0.14500
O 	O 	0.67989 0.33832 0.00495 -0.63700
O 	O 	0.70256 0.42061 0.93649 -0.37300
C 	C 	0.69976 0.45672 0.97151 0.30800
O 	O 	0.65952 0.43332 0.00349 -0.38200
H 	H 	0.72521 0.36826 0.02077 0.17800
Cu	Cu	0.73706 0.34663 0.43434 0.93000
Cu	Cu	0.74359 0.29516 0.53966 0.87100
O 	O 	0.76889 0.43598 0.43690 -0.36700
O 	O 	0.73575 0.35334 0.50882 -0.64000
O 	O 	0.78783 0.31426 0.43218 -0.37200
C 	C 	0.74233 0.45834 0.45955 0.30300
O 	O 	0.72255 0.32639 0.36095 -0.34700
H 	H 	0.76230 0.39612 0.52937 0.17600
C 	C 	0.72664 0.35997 0.70965 -0.02500
C 	C 	0.71943 0.35503 0.76080 0.08700
N 	N 	0.77108 0.40001 0.80156 -0.02700
H 	H 	0.77116 0.39807 0.70139 0.06000
O 	O 	0.82472 0.40823 0.80441 -0.12500
O 	O 	0.76613 0.43620 0.83323 -0.10700
O 	O 	0.77152 0.43034 0.14204 -0.12700
C 	C 	0.85034 0.63122 0.45389 0.00700
C 	C 	0.85575 0.65667 0.40940 -0.03600
C 	C 	0.88404 0.72018 0.41326 -0.04400
C 	C 	0.90761 0.75897 0.46174 0.02200
C 	C 	0.90308 0.73374 0.50628 -0.04500
C 	C 	0.87425 0.67002 0.50242 -0.03600
C 	C 	0.93965 0.82652 0.46593 -0.02900
C 	C 	0.91076 0.84775 0.44216 -0.07500
C 	C 	0.82415 0.56492 0.44923 0.00800
C 	C 	0.77479 0.52617 0.47105 -0.14800
H 	H 	0.83828 0.62724 0.37181 0.04400
H 	H 	0.88844 0.73941 0.37860 0.04500
H 	H 	0.92185 0.76346 0.54385 0.04300
H 	H 	0.87149 0.65106 0.53702 0.04100
H 	H 	0.98611 0.85901 0.49013 0.04300
H 	H 	0.86210 0.81519 0.42189 0.05700
H 	H 	0.75553 0.54420 0.49456 0.07700
C 	C 	0.77464 0.63056 0.00229 0.01700
C 	C 	0.82298 0.67784 0.04216 -0.04000
C 	C 	0.85285 0.74039 0.03880 -0.03400
C 	C 	0.83441 0.75615 0.99552 0.01600
C 	C 	0.78508 0.70886 0.95623 -0.04000
C 	C 	0.75534 0.64635 0.95952 -0.04400
C 	C 	0.86366 0.82205 0.99265 -0.03800
C 	C 	0.92683 0.86443 0.00083 -0.05900
C 	C 	0.74214 0.56457 0.00677 0.01500
C 	C 	0.73329 0.52290 0.96791 -0.14800
H 	H 	0.83742 0.66614 0.07573 0.04500
H 	H 	0.88963 0.77651 0.07010 0.04300
H 	H 	0.76971 0.72054 0.92317 0.04300
H 	H 	0.71683 0.61024 0.92917 0.04600
H 	H 	0.83320 0.83505 0.98064 0.04800
H 	H 	0.95698 0.85011 0.00916 0.05400
H 	H 	0.72802 0.55066 0.04294 0.04100
H 	H 	0.75214 0.53810 0.93340 0.08800
