data_crystal

_cell_length_a 17.31963
_cell_length_b 16.88398
_cell_length_c 73.03202
_cell_angle_alpha 90.07507
_cell_angle_beta  89.95024
_cell_angle_gamma 120.09831

_symmetry_space_group_name_	'P 1'
_symmetry_space_group_name_H-M	'P 1'

loop_
_symmetry_equiv_pos_as_xyz
  x,y,z

loop_
_atom_site_label
_atom_site_type_symbol
_atom_site_fract_x
_atom_site_fract_y
_atom_site_fract_z
_atom_site_charge
C 	C 	0.84424 0.40863 0.54042 0.33100
C 	C 	0.60891 0.45009 0.59185 0.29800
C 	C 	0.87379 0.43754 0.59129 0.30400
C 	C 	0.57523 0.39719 0.54338 0.32900
C 	C 	0.62618 0.19721 0.60218 0.30000
C 	C 	0.59366 0.14617 0.54891 0.32400
Ni	Ni	0.74739 0.46535 0.56671 1.11900
Ni	Ni	0.56367 0.27202 0.57327 1.12800
Ni	Ni	0.74866 0.27399 0.57093 1.12500
O 	O 	0.81216 0.46448 0.54296 -0.34100
O 	O 	0.85142 0.36113 0.55418 -0.36000
O 	O 	0.58464 0.24301 0.59886 -0.37500
O 	O 	0.69217 0.47025 0.59138 -0.37400
O 	O 	0.54669 0.37488 0.58386 -0.35500
O 	O 	0.68195 0.18740 0.55034 -0.35300
O 	O 	0.86601 0.49393 0.57999 -0.34900
O 	O 	0.80985 0.35264 0.59294 -0.38500
O 	O 	0.54447 0.15163 0.56239 -0.35100
O 	O 	0.64131 0.46669 0.55260 -0.34800
O 	O 	0.53881 0.31087 0.54891 -0.34400
O 	O 	0.66524 0.17830 0.58877 -0.37100
O 	O 	0.68602 0.33722 0.56614 -0.71900
H 	H 	0.67964 0.32815 0.55279 0.16600
C 	C 	0.35023 0.54795 0.43145 0.32000
C 	C 	0.19459 0.61712 0.36686 0.29900
C 	C 	0.38449 0.52228 0.38115 0.30100
C 	C 	0.13692 0.61088 0.41863 0.33000
C 	C 	0.46405 0.85122 0.38002 0.30100
C 	C 	0.42573 0.82374 0.42774 0.32300
Ni	Ni	0.23636 0.53544 0.39898 1.12300
Ni	Ni	0.29074 0.75086 0.39741 1.12300
Ni	Ni	0.44386 0.69421 0.40224 1.12600
O 	O 	0.26651 0.51663 0.42578 -0.32900
O 	O 	0.41923 0.58944 0.41996 -0.34800
O 	O 	0.37780 0.81256 0.37705 -0.38500
O 	O 	0.22712 0.56450 0.37176 -0.36700
O 	O 	0.19339 0.67648 0.37860 -0.36400
O 	O 	0.47355 0.78491 0.42297 -0.34600
O 	O 	0.31659 0.48184 0.39223 -0.35900
O 	O 	0.43248 0.61237 0.38051 -0.36500
O 	O 	0.38055 0.84247 0.41542 -0.36600
O 	O 	0.13078 0.55588 0.40536 -0.35500
O 	O 	0.19564 0.69960 0.41745 -0.34600
O 	O 	0.49953 0.80087 0.38459 -0.36300
O 	O 	0.32121 0.65975 0.40283 -0.71500
H 	H 	0.31483 0.66296 0.41613 0.15200
C 	C 	0.71973 0.22738 0.09329 0.32200
C 	C 	0.52060 0.26193 0.03276 0.29800
C 	C 	0.77447 0.24447 0.04418 0.30200
C 	C 	0.46576 0.22532 0.08477 0.33400
C 	C 	0.75461 0.51765 0.04425 0.30500
C 	C 	0.72998 0.47923 0.09536 0.31700
Ni	Ni	0.59652 0.19571 0.06164 1.11900
Ni	Ni	0.59853 0.38920 0.06441 1.12700
Ni	Ni	0.78295 0.38841 0.06758 1.12700
O 	O 	0.63862 0.17173 0.08662 -0.33500
O 	O 	0.78579 0.28696 0.08256 -0.34800
O 	O 	0.67182 0.45288 0.04259 -0.39300
O 	O 	0.57104 0.22547 0.03558 -0.36500
O 	O 	0.50372 0.30300 0.04627 -0.35700
O 	O 	0.78973 0.45610 0.09051 -0.35400
O 	O 	0.69937 0.17884 0.05108 -0.35700
O 	O 	0.79129 0.32932 0.04418 -0.37500
O 	O 	0.67979 0.48922 0.08267 -0.35700
O 	O 	0.47404 0.17605 0.07154 -0.35000
O 	O 	0.51094 0.31603 0.08436 -0.34400
O 	O 	0.81261 0.50404 0.05343 -0.36400
O 	O 	0.65591 0.32033 0.06845 -0.71700
H 	H 	0.64720 0.31444 0.08178 0.16200
C 	C 	0.14408 0.06399 0.20375 0.33000
C 	C 	0.92853 0.11271 0.26232 0.30100
C 	C 	0.19730 0.11317 0.25283 0.30000
C 	C 	0.89098 0.09052 0.21307 0.33300
C 	C 	0.93649 0.86388 0.26749 0.32800
C 	C 	0.88193 0.82648 0.21411 0.32500
Ni	Ni	0.06195 0.13697 0.23266 1.10900
Ni	Ni	0.87469 0.95027 0.24107 1.12200
Ni	Ni	0.05212 0.93973 0.23523 1.11700
O 	O 	0.15466 0.13436 0.21412 -0.34700
O 	O 	0.10202 0.97842 0.20986 -0.36200
O 	O 	0.87156 0.84998 0.25633 -0.37900
O 	O 	0.91573 0.03013 0.26341 -0.38000
O 	O 	0.13848 0.13981 0.25466 -0.37500
O 	O 	0.17744 0.03843 0.24344 -0.35800
O 	O 	0.83492 0.86398 0.21982 -0.35100
O 	O 	0.84877 0.04150 0.22781 -0.36100
O 	O 	0.99394 0.00911 0.23210 -0.70300
C 	C 	0.78113 0.57576 0.31601 0.28100
C 	C 	0.66970 0.21218 0.35174 0.30400
C 	C 	0.89819 0.45323 0.32058 0.28500
C 	C 	0.54832 0.34520 0.34883 0.28000
C 	C 	0.69832 0.21665 0.29274 0.30900
C 	C 	0.53595 0.30519 0.28774 0.28700
Ni	Ni	0.74054 0.41151 0.34222 1.11700
Ni	Ni	0.58396 0.23800 0.32018 1.12100
Ni	Ni	0.73599 0.40409 0.29761 1.12400
O 	O 	0.79887 0.54727 0.33179 -0.35700
O 	O 	0.73026 0.51765 0.30316 -0.37300
O 	O 	0.61524 0.18909 0.29765 -0.38000
O 	O 	0.69578 0.29382 0.35859 -0.34800
O 	O 	0.65956 0.19952 0.33416 -0.38900
O 	O 	0.62097 0.34469 0.28193 -0.36000
O 	O 	0.84347 0.39537 0.33258 -0.36400
O 	O 	0.86616 0.47759 0.30665 -0.36100
O 	O 	0.51253 0.27428 0.30460 -0.38800
O 	O 	0.63020 0.41192 0.35247 -0.35700
O 	O 	0.53217 0.26225 0.34362 -0.36900
O 	O 	0.76071 0.30230 0.29422 -0.38100
O 	O 	0.67568 0.36226 0.32038 -0.71500
H 	H 	0.63916 0.39186 0.32005 0.16300
C 	C 	0.89110 0.85839 0.00922 0.30700
Ni	Ni	0.07251 0.00384 0.00242 1.11900
O 	O 	0.86323 0.91407 0.00360 -0.37600
C 	C 	0.31101 0.24878 0.27085 -0.00500
C 	C 	0.29038 0.17341 0.25949 -0.05400
C 	C 	0.35914 0.15645 0.25431 0.00200
C 	C 	0.44521 0.20937 0.26163 -0.00000
C 	C 	0.46333 0.27903 0.27436 -0.05100
C 	C 	0.39709 0.30163 0.27809 -0.00300
H 	H 	0.25983 0.26477 0.27460 0.05100
H 	H 	0.34566 0.10101 0.24500 0.06700
H 	H 	0.49580 0.19159 0.25848 0.05800
H 	H 	0.41036 0.35585 0.28774 0.04500
C 	C 	0.83559 0.79581 0.29431 0.00900
C 	C 	0.91404 0.81445 0.28503 -0.07700
C 	C 	0.96094 0.77121 0.29069 0.03200
C 	C 	0.92245 0.69946 0.30326 -0.02500
C 	C 	0.83756 0.67168 0.31058 -0.04700
C 	C 	0.79759 0.72467 0.30711 -0.01300
H 	H 	0.80074 0.83182 0.29065 0.04100
H 	H 	0.95336 0.65842 0.30541 0.05800
H 	H 	0.73302 0.70533 0.31297 0.04600
C 	C 	0.81427 0.15954 0.25836 -0.00200
C 	C 	0.85941 0.12976 0.26988 -0.06100
C 	C 	0.82805 0.10181 0.28779 -0.00600
C 	C 	0.75855 0.11291 0.29465 -0.00100
C 	C 	0.72171 0.15424 0.28381 -0.06400
C 	C 	0.74331 0.16806 0.26513 0.00300
H 	H 	0.83436 0.17662 0.24422 0.07300
H 	H 	0.85890 0.07368 0.29652 0.05100
H 	H 	0.74013 0.09860 0.30895 0.04800
H 	H 	0.71256 0.19630 0.25639 0.05500
C 	C 	0.83424 0.68753 0.04581 -0.00100
C 	C 	0.78272 0.60690 0.03582 -0.06300
C 	C 	0.74949 0.61139 0.01855 -0.00400
C 	C 	0.77403 0.69629 0.01072 -0.00200
C 	C 	0.83294 0.77719 0.01996 -0.06400
C 	C 	0.85788 0.77226 0.03803 0.00100
H 	H 	0.85648 0.68467 0.05953 0.06200
H 	H 	0.70671 0.54925 0.01099 0.04900
C 	C 	0.44243 0.29748 0.00809 -0.00200
C 	C 	0.46570 0.23666 0.01603 -0.05900
C 	C 	0.42943 0.14798 0.00893 -0.00100
H 	H 	0.47235 0.36732 0.01300 0.04700
H 	H 	0.44793 0.10075 0.01471 0.04600
C 	C 	0.84354 0.14564 0.04594 -0.00100
C 	C 	0.84471 0.22360 0.03883 -0.05300
C 	C 	0.91048 0.27838 0.02604 -0.01400
C 	C 	0.95850 0.16556 0.02441 -0.06600
C 	C 	0.90167 0.11811 0.03905 0.01000
H 	H 	0.79479 0.10390 0.05618 0.07300
H 	H 	0.89560 0.05436 0.04375 0.06200
C 	C 	0.73992 0.21277 0.11216 -0.10400
C 	C 	0.69290 0.22273 0.12695 0.13300
C 	C 	0.70565 0.20054 0.14478 0.07200
C 	C 	0.76997 0.17474 0.14810 0.02300
C 	C 	0.81983 0.16855 0.13349 0.06700
C 	C 	0.80343 0.18543 0.11548 0.13300
C 	C 	0.78583 0.15479 0.16695 0.02000
C 	C 	0.84768 0.22610 0.17823 0.06600
C 	C 	0.84070 0.11324 0.19986 -0.11100
C 	C 	0.76877 0.04322 0.19002 0.13500
C 	C 	0.74272 0.06381 0.17330 0.07100
Br	Br	0.91044 0.13649 0.13825 -0.10300
Br	Br	0.61661 0.27374 0.12304 -0.17100
Br	Br	0.65087 0.96735 0.15869 -0.12400
Br	Br	0.86539 0.16744 0.09539 -0.15700
Br	Br	0.63464 0.20491 0.16472 -0.11200
Br	Br	0.70322 0.92086 0.19976 -0.16900
C 	C 	0.19184 0.08280 0.18590 -0.10500
C 	C 	0.27345 0.16519 0.18306 0.12700
C 	C 	0.30807 0.19001 0.16517 0.06700
C 	C 	0.26248 0.13178 0.15030 0.02000
C 	C 	0.18177 0.05026 0.15333 0.07000
C 	C 	0.15410 0.02001 0.17121 0.13000
C 	C 	0.30662 0.14760 0.13227 0.02200
C 	C 	0.29403 0.20009 0.11891 0.06800
C 	C 	0.33639 0.21478 0.10180 0.13300
C 	C 	0.39369 0.17976 0.09836 -0.10900
C 	C 	0.39445 0.11576 0.11057 0.13000
C 	C 	0.35569 0.10404 0.12797 0.06900
Br	Br	0.11224 0.97654 0.13292 -0.13600
Br	Br	0.34658 0.23327 0.20367 -0.16000
Br	Br	0.31263 0.27844 0.08271 -0.16700
Br	Br	0.37292 0.03163 0.14619 -0.11700
Br	Br	0.08954 0.88976 0.17554 -0.15400
Br	Br	0.41881 0.30246 0.16100 -0.10800
Br	Br	0.22008 0.25275 0.12417 -0.12300
Br	Br	0.44294 0.04009 0.10311 -0.16600
C 	C 	0.73722 0.51755 0.11428 -0.09500
C 	C 	0.81185 0.53723 0.12550 0.12600
C 	C 	0.83501 0.59974 0.13989 0.06700
C 	C 	0.77273 0.62258 0.14655 0.02000
C 	C 	0.69088 0.59099 0.13733 0.07100
C 	C 	0.67281 0.53863 0.12113 0.12400
C 	C 	0.79074 0.67367 0.16403 0.02300
C 	C 	0.77823 0.62747 0.18081 0.06700
C 	C 	0.81145 0.67759 0.19716 0.13200
C 	C 	0.85528 0.77402 0.19683 -0.10200
C 	C 	0.86250 0.81973 0.18016 0.13400
C 	C 	0.83119 0.76963 0.16379 0.07300
Br	Br	0.60336 0.61855 0.14705 -0.11400
Br	Br	0.86646 0.46161 0.12492 -0.13600
Br	Br	0.79363 0.61404 0.22010 -0.15600
Br	Br	0.84550 0.83255 0.14090 -0.11200
Br	Br	0.55460 0.48240 0.11075 -0.14700
Br	Br	0.71594 0.49538 0.18126 -0.11200
C 	C 	0.40875 0.38911 0.38013 -0.00300
C 	C 	0.41394 0.46583 0.37140 -0.05700
C 	C 	0.43979 0.48290 0.35300 -0.00500
C 	C 	0.46805 0.42873 0.34397 -0.00700
C 	C 	0.47495 0.36040 0.35357 -0.05900
C 	C 	0.43789 0.33581 0.37112 0.00100
H 	H 	0.38544 0.37295 0.39414 0.07300
H 	H 	0.43954 0.53883 0.34580 0.04900
H 	H 	0.49365 0.44623 0.33012 0.04000
H 	H 	0.44041 0.28151 0.37850 0.05600
C 	C 	0.08938 0.63684 0.34658 0.02000
C 	C 	0.13805 0.59266 0.35022 -0.07400
C 	C 	0.12101 0.51559 0.33970 0.01000
H 	H 	0.10430 0.69890 0.35384 0.04400
H 	H 	0.16078 0.48312 0.34158 0.04600
C 	C 	0.49728 0.01331 0.37842 0.01900
C 	C 	0.52328 0.94819 0.37488 -0.06400
C 	C 	0.60722 0.97664 0.36702 -0.00700
C 	C 	0.66139 0.06763 0.36147 0.00900
C 	C 	0.63228 0.13116 0.36368 -0.05900
C 	C 	0.55201 0.10458 0.37302 -0.00600
H 	H 	0.43422 0.99307 0.38511 0.04100
H 	H 	0.62919 0.92772 0.36459 0.05600
H 	H 	0.72338 0.08731 0.35436 0.05000
H 	H 	0.52905 0.15305 0.37497 0.05900
C 	C 	0.52378 0.53224 0.58744 -0.00100
C 	C 	0.58792 0.52166 0.59721 -0.06000
C 	C 	0.63177 0.57985 0.61203 -0.00500
C 	C 	0.60354 0.63943 0.61843 -0.00500
C 	C 	0.52867 0.63794 0.61057 -0.05300
C 	C 	0.49453 0.59056 0.59407 0.00000
H 	H 	0.49497 0.49368 0.57503 0.07400
H 	H 	0.68455 0.57587 0.61916 0.04900
H 	H 	0.63320 0.67892 0.63076 0.04300
H 	H 	0.43937 0.59179 0.58736 0.06600
C 	C 	0.95781 0.46778 0.60108 -0.06300
C 	C 	0.01743 0.43974 0.59508 0.00700
C 	C 	0.09914 0.47112 0.60404 0.00000
H 	H 	0.00154 0.39571 0.58321 0.05800
H 	H 	0.14718 0.45396 0.59862 0.06000
C 	C 	0.53112 0.41746 0.52833 -0.10600
C 	C 	0.57740 0.45485 0.51184 0.12600
C 	C 	0.53085 0.45697 0.49629 0.06900
C 	C 	0.44053 0.43285 0.49775 0.02000
C 	C 	0.39485 0.39906 0.51440 0.06900
C 	C 	0.43920 0.38873 0.52953 0.13000
C 	C 	0.39862 0.45649 0.48272 0.02100
C 	C 	0.42208 0.54814 0.48029 0.07000
C 	C 	0.41795 0.57938 0.46284 0.12700
C 	C 	0.36488 0.51574 0.44924 -0.09900
C 	C 	0.32971 0.42114 0.45245 0.13000
C 	C 	0.34980 0.39193 0.46896 0.07000
Br	Br	0.27222 0.36972 0.51659 -0.11700
Br	Br	0.70498 0.50676 0.51071 -0.14600
Br	Br	0.50512 0.70257 0.45647 -0.15400
Br	Br	0.31408 0.26493 0.47245 -0.11100
Br	Br	0.37397 0.33578 0.55187 -0.17600
Br	Br	0.59049 0.49263 0.47290 -0.12400
Br	Br	0.46710 0.63248 0.50057 -0.12000
Br	Br	0.26219 0.33279 0.43366 -0.15300
C 	C 	0.54937 0.07968 0.53376 -0.10100
C 	C 	0.48580 0.08530 0.52261 0.12500
C 	C 	0.47213 0.05209 0.50453 0.07000
C 	C 	0.51157 0.00129 0.49847 0.02200
C 	C 	0.56555 0.98488 0.51052 0.07000
C 	C 	0.58280 0.02238 0.52830 0.12800
C 	C 	0.48852 0.95694 0.48016 0.01800
C 	C 	0.41230 0.86978 0.47810 0.07200
C 	C 	0.39091 0.82669 0.46087 0.12900
C 	C 	0.44517 0.87114 0.44557 -0.10100
C 	C 	0.52043 0.95919 0.44754 0.12500
C 	C 	0.54252 0.00177 0.46486 0.07300
Br	Br	0.61662 0.91207 0.50256 -0.11300
Br	Br	0.40645 0.12232 0.53287 -0.15400
Br	Br	0.28965 0.70520 0.45840 -0.17600
Br	Br	0.64708 0.12085 0.46770 -0.10800
Br	Br	0.64434 0.98813 0.54576 -0.15900
Br	Br	0.40042 0.07725 0.48797 -0.11600
Br	Br	0.33757 0.80950 0.49899 -0.11300
Br	Br	0.59319 0.02127 0.42650 -0.15300
C 	C 	0.08357 0.57175 0.43560 -0.11000
C 	C 	0.05905 0.62475 0.44652 0.13300
C 	C 	0.02979 0.59763 0.46464 0.07000
C 	C 	0.02198 0.51610 0.47161 0.01900
C 	C 	0.04504 0.46294 0.46061 0.07000
C 	C 	0.06595 0.48507 0.44213 0.12700
C 	C 	0.89182 0.41710 0.52329 -0.11100
C 	C 	0.84277 0.38489 0.50697 0.13200
C 	C 	0.88473 0.41977 0.49007 0.06800
Br	Br	0.04639 0.35832 0.47085 -0.11800
Br	Br	0.05345 0.72641 0.43595 -0.15000
Br	Br	0.81473 0.38885 0.46794 -0.11100
Br	Br	0.05057 0.38901 0.42553 -0.18800
Br	Br	0.15701 0.56815 0.50431 -0.10600
Br	Br	0.71814 0.29267 0.50789 -0.15900
O 	O 	0.01963 0.90613 0.26169 -0.39900
H 	H 	0.90195 0.83447 0.04545 0.05300
H 	H 	0.01351 0.28871 0.00805 0.02700
C 	C 	0.87303 0.20532 0.19498 0.13000
C 	C 	0.04789 0.47593 0.32775 -0.04100
C 	C 	0.02858 0.50157 0.50557 0.06500
Br	Br	0.05371 0.51463 0.54493 -0.16000
Br	Br	0.00095 0.67215 0.48001 -0.11600
C 	C 	0.96778 0.24982 0.01898 0.02200
H 	H 	0.91415 0.34021 0.02083 0.05700
Br	Br	0.94773 0.30229 0.21172 -0.16700
C 	C 	0.01519 0.59596 0.33506 -0.06900
H 	H 	0.03111 0.41250 0.32082 0.05000
O 	O 	0.98585 0.17015 0.25024 -0.33900
O 	O 	0.94375 0.82484 0.22483 -0.34100
O 	O 	0.97952 0.13617 0.21196 -0.33400
H 	H 	0.98184 0.00067 0.21888 0.17400
C 	C 	0.98100 0.11439 0.01128 0.31000
O 	O 	0.97271 0.87680 0.00612 -0.37600
O 	O 	0.01432 0.06297 0.01754 -0.38500
H 	H 	0.02294 0.78679 0.28405 0.03100
Br	Br	0.90033 0.35165 0.17033 -0.10700
Br	Br	0.95152 0.65161 0.15096 -0.10500
Br	Br	0.91696 0.95128 0.17962 -0.16600
C 	C 	0.99145 0.51286 0.32623 -0.01100
H 	H 	0.97112 0.62383 0.33458 0.07000
C 	C 	0.97770 0.47961 0.48940 0.02600
C 	C 	0.98541 0.47304 0.52260 0.13200
O 	O 	0.42710 0.69517 0.61598 -0.36200
C 	C 	0.54020 0.13194 0.63108 -0.00700
C 	C 	0.61443 0.15211 0.62012 -0.05700
C 	C 	0.67038 0.11790 0.62522 -0.00600
H 	H 	0.49892 0.16166 0.62802 0.05300
H 	H 	0.73125 0.13752 0.61768 0.04900
C 	C 	0.47271 0.66869 0.68215 0.28200
C 	C 	0.27290 0.82675 0.65327 0.29600
C 	C 	0.22153 0.55960 0.68285 0.30300
C 	C 	0.50842 0.92017 0.65183 0.29600
C 	C 	0.21450 0.58649 0.62478 0.30500
C 	C 	0.46939 0.65321 0.62260 0.28600
Ni	Ni	0.36455 0.75703 0.67568 1.11600
Ni	Ni	0.37681 0.76252 0.63090 1.12500
Ni	Ni	0.33599 0.58031 0.65216 1.12100
O 	O 	0.46111 0.73677 0.68747 -0.35200
O 	O 	0.40427 0.59009 0.67599 -0.36900
O 	O 	0.25100 0.67562 0.62370 -0.37400
O 	O 	0.25767 0.76042 0.66440 -0.37400
O 	O 	0.33108 0.84758 0.63986 -0.36300
O 	O 	0.44316 0.60409 0.63778 -0.38500
O 	O 	0.27723 0.63842 0.69058 -0.34600
O 	O 	0.22251 0.55092 0.66521 -0.39000
O 	O 	0.45722 0.89296 0.66695 -0.36000
O 	O 	0.49834 0.86245 0.63857 -0.38000
O 	O 	0.26300 0.54867 0.62888 -0.37700
O 	O 	0.37883 0.70752 0.65357 -0.71300
H 	H 	0.44303 0.72909 0.65407 0.15500
C 	C 	0.12571 0.96149 0.70165 0.29300
O 	O 	0.04649 0.88838 0.70498 -0.35700
C 	C 	0.62868 0.76257 0.67215 -0.00500
C 	C 	0.56411 0.68504 0.68170 -0.06400
C 	C 	0.59214 0.64923 0.69579 0.00300
C 	C 	0.67899 0.70020 0.70265 -0.00300
C 	C 	0.73813 0.78761 0.69545 -0.04800
C 	C 	0.71459 0.81575 0.67940 -0.00900
H 	H 	0.60902 0.78796 0.66047 0.03600
H 	H 	0.54419 0.58721 0.70276 0.05600
H 	H 	0.76110 0.88022 0.67300 0.04900
C 	C 	0.08332 0.41499 0.69083 -0.00400
C 	C 	0.17461 0.47585 0.69397 -0.05900
C 	C 	0.22472 0.44484 0.70346 -0.00200
C 	C 	0.18682 0.35222 0.70800 0.00500
C 	C 	0.09689 0.29008 0.70390 -0.05700
C 	C 	0.04449 0.32262 0.69586 0.00700
H 	H 	0.04373 0.43802 0.68354 0.05100
H 	H 	0.29489 0.49112 0.70616 0.06400
H 	H 	0.97478 0.27601 0.69283 0.04600
C 	C 	0.16510 0.88106 0.65673 -0.00400
C 	C 	0.25107 0.89540 0.65979 -0.06000
C 	C 	0.30293 0.95472 0.67397 -0.01900
C 	C 	0.26503 0.98795 0.68644 0.01400
C 	C 	0.17427 0.96005 0.68520 -0.06000
C 	C 	0.12655 0.91312 0.66944 -0.00300
H 	H 	0.12496 0.83731 0.64560 0.04700
H 	H 	0.36883 0.96578 0.67672 0.04800
H 	H 	0.30385 0.02730 0.69813 0.04600
H 	H 	0.05744 0.89508 0.66781 0.04900
C 	C 	0.12103 0.52979 0.61917 -0.06100
C 	C 	0.05775 0.55105 0.62605 0.00500
H 	H 	0.93008 0.54074 0.62194 0.04600
H 	H 	0.07355 0.59539 0.63788 0.05100
C 	C 	0.64377 0.05211 0.63908 -0.00200
C 	C 	0.55992 0.01821 0.64741 -0.07000
C 	C 	0.51369 0.06589 0.64484 -0.00300
H 	H 	0.68296 0.01956 0.64170 0.04100
H 	H 	0.45108 0.04374 0.65171 0.04500
C 	C 	0.97702 0.52119 0.61689 -0.00900
C 	C 	0.82083 0.85046 0.70552 0.28700
C 	C 	0.05868 0.19145 0.70809 0.29500
O 	O 	0.85012 0.94024 0.70542 -0.36300
O 	O 	0.11216 0.15651 0.70797 -0.38500
O 	O 	0.97091 0.13869 0.71092 -0.37200
H 	H 	0.00462 0.99683 0.71178 0.15600
H 	H 	0.22766 0.32869 0.71461 0.05500
O 	O 	0.85191 0.81343 0.71727 -0.35700
O 	O 	0.17030 0.02299 0.71480 -0.37000
H 	H 	0.69805 0.67460 0.71437 0.07100
O 	O 	0.00310 0.99520 0.72526 -0.70700
Ni	Ni	0.12089 0.09062 0.72996 1.12200
Ni	Ni	0.91139 0.02468 0.72725 1.11900
Ni	Ni	0.97825 0.87427 0.72916 1.11900
O 	O 	0.09950 0.17766 0.74519 -0.37000
O 	O 	0.09621 0.90042 0.74176 -0.35200
O 	O 	0.82914 0.91594 0.74317 -0.35200
Br	Br	0.64853 0.75307 0.75026 -0.16600
O 	O 	0.94827 0.09954 0.75045 -0.36700
C 	C 	0.12956 0.95839 0.75531 0.36400
C 	C 	0.85692 0.88594 0.75688 0.34300
C 	C 	0.03071 0.15449 0.75614 0.34200
O 	O 	0.13460 0.03842 0.75411 -0.36900
O 	O 	0.92121 0.86711 0.75447 -0.34500
Br	Br	0.17348 0.37443 0.75468 -0.16600
C 	C 	0.15937 0.93283 0.77224 -0.11400
Br	Br	0.32760 0.10219 0.76705 -0.17400
C 	C 	0.04478 0.20821 0.77338 -0.10200
C 	C 	0.12184 0.29533 0.77553 0.12900
C 	C 	0.80365 0.85512 0.77384 -0.10800
C 	C 	0.70941 0.80626 0.77300 0.13300
Br	Br	0.00329 0.74975 0.76831 -0.16900
C 	C 	0.24127 0.99605 0.78049 0.14200
C 	C 	0.10322 0.84807 0.78100 0.13800
C 	C 	0.98669 0.16895 0.78851 0.12200
Br	Br	0.86043 0.08903 0.78482 -0.15000
C 	C 	0.65953 0.78873 0.78913 0.06700
Br	Br	0.53296 0.74408 0.78785 -0.11200
C 	C 	0.84666 0.87495 0.79106 0.13500
C 	C 	0.26288 0.97825 0.79803 0.07600
C 	C 	0.12283 0.83291 0.79887 0.06800
C 	C 	0.15108 0.33113 0.79321 0.06700
Br	Br	0.26318 0.44333 0.79642 -0.11000
Br	Br	0.97472 0.95071 0.79282 -0.14800
C 	C 	0.20373 0.89652 0.80719 0.02100
Br	Br	0.30726 0.79006 0.80154 -0.11700
Br	Br	0.37356 0.06555 0.80955 -0.13000
C 	C 	0.01739 0.20275 0.80621 0.07400
C 	C 	0.09834 0.28539 0.80857 0.01900
C 	C 	0.70224 0.80535 0.80623 0.02200
C 	C 	0.79553 0.84470 0.80714 0.07100
Br	Br	0.03836 0.72485 0.81211 -0.11100
Br	Br	0.01719 0.41239 0.81516 -0.11700
Br	Br	0.61292 0.59692 0.81644 -0.11900
C 	C 	0.64924 0.78197 0.82322 0.02200
C 	C 	0.26865 0.81606 0.82444 0.06700
C 	C 	0.23047 0.87256 0.82468 0.02400
C 	C 	0.12165 0.33043 0.82678 0.02200
C 	C 	0.09120 0.39072 0.83180 0.06600
C 	C 	0.60092 0.69042 0.82915 0.06700
Br	Br	0.85295 0.85593 0.83040 -0.11800
Br	Br	0.69821 0.97341 0.82385 -0.10200
Br	Br	0.94840 0.13601 0.82727 -0.12400
Br	Br	0.21489 0.22978 0.83229 -0.11100
C 	C 	0.64691 0.85121 0.83350 0.06500
C 	C 	0.27741 0.77752 0.84079 0.13100
C 	C 	0.20798 0.89679 0.84150 0.06700
Br	Br	0.15467 0.97334 0.84178 -0.10000
Br	Br	0.31267 0.68583 0.83978 -0.14000
C 	C 	0.17348 0.31255 0.83912 0.06800
C 	C 	0.11615 0.43648 0.84875 0.13200
C 	C 	0.60311 0.83005 0.85042 0.13400
C 	C 	0.54436 0.66748 0.84443 0.13200
Br	Br	0.46036 0.54056 0.84949 -0.13900
C 	C 	0.25636 0.80278 0.85770 -0.11200
C 	C 	0.22203 0.86293 0.85803 0.13100
C 	C 	0.17441 0.42445 0.86043 -0.11500
C 	C 	0.19684 0.35689 0.85623 0.13300
Br	Br	0.06694 0.51169 0.85618 -0.15300
C 	C 	0.54612 0.73771 0.85529 -0.11600
Br	Br	0.62979 0.92696 0.86772 -0.18400
C 	C 	0.48596 0.71516 0.87110 0.35400
C 	C 	0.26824 0.76461 0.87496 0.34900
O 	O 	0.44558 0.76221 0.87381 -0.35200
Br	Br	0.25298 0.32003 0.87448 -0.17400
C 	C 	0.22085 0.48955 0.87559 0.35000
O 	O 	0.30818 0.52878 0.87679 -0.35500
O 	O 	0.22020 0.67639 0.87799 -0.35100
Br	Br	0.18890 0.89414 0.88102 -0.15900
O 	O 	0.18005 0.12474 0.99658 -0.37900
C 	C 	0.36137 0.11614 0.99595 -0.01300
O 	O 	0.94555 0.10218 0.99477 -0.38900
C 	C 	0.37667 0.26656 0.99444 -0.00700
H 	H 	0.35491 0.31233 0.98928 0.04600
H 	H 	0.75332 0.69919 0.99686 0.04400
C 	C 	0.33094 0.17375 0.98928 -0.05500
C 	C 	0.28787 0.77500 0.92895 0.27900
C 	C 	0.53750 0.72708 0.91876 0.28500
C 	C 	0.21371 0.47565 0.92489 0.28800
Ni	Ni	0.41585 0.78983 0.89966 1.12200
Ni	Ni	0.37809 0.58021 0.90005 1.12700
Ni	Ni	0.21439 0.61743 0.90254 1.12600
O 	O 	0.37345 0.81795 0.92419 -0.35400
O 	O 	0.22449 0.72675 0.91672 -0.35500
O 	O 	0.48489 0.65934 0.88371 -0.36400
O 	O 	0.20124 0.54665 0.92531 -0.38600
O 	O 	0.32506 0.81914 0.88728 -0.35100
O 	O 	0.28484 0.47912 0.91672 -0.35700
O 	O 	0.52939 0.79437 0.91111 -0.35100
O 	O 	0.46837 0.64231 0.92050 -0.36700
O 	O 	0.17401 0.49940 0.88865 -0.37600
O 	O 	0.33966 0.66533 0.90483 -0.71800
H 	H 	0.34570 0.66703 0.91827 0.15900
C 	C 	0.00492 0.12519 0.94994 0.26800
C 	C 	0.12350 0.88840 0.97974 0.30000
C 	C 	0.88093 0.86555 0.95012 0.30300
C 	C 	0.23683 0.13184 0.98376 0.28300
Ni	Ni	0.07590 0.00100 0.95795 1.11200
Ni	Ni	0.90780 0.98868 0.98023 1.12500
O 	O 	0.07148 0.11000 0.94666 -0.35800
O 	O 	0.06326 0.88230 0.96840 -0.37200
O 	O 	0.14654 0.94578 0.99366 -0.36700
O 	O 	0.87106 0.86894 0.96768 -0.38500
O 	O 	0.20934 0.08373 0.96801 -0.35900
O 	O 	0.02952 0.02099 0.97965 -0.72200
H 	H 	0.05772 0.08811 0.97939 0.16400
H 	H 	0.32413 0.04372 0.99321 0.04800
C 	C 	0.64014 0.70308 0.93928 -0.01100
C 	C 	0.62804 0.74728 0.92424 -0.04800
C 	C 	0.70351 0.81734 0.91529 -0.00600
C 	C 	0.78902 0.84996 0.92257 0.00300
C 	C 	0.80016 0.81221 0.93876 -0.06400
C 	C 	0.72595 0.73457 0.94634 -0.00300
H 	H 	0.58306 0.64737 0.94603 0.05100
H 	H 	0.69560 0.84920 0.90312 0.07200
H 	H 	0.84553 0.90846 0.91631 0.06500
H 	H 	0.73392 0.70272 0.95851 0.04700
C 	C 	0.09118 0.31717 0.91878 0.00300
C 	C 	0.14129 0.38713 0.93137 -0.05800
C 	C 	0.11834 0.37345 0.94997 -0.00300
C 	C 	0.05431 0.28636 0.95617 -0.01500
C 	C 	0.01574 0.21248 0.94386 -0.05200
C 	C 	0.02605 0.23094 0.92501 -0.00900
H 	H 	0.10473 0.32852 0.90424 0.06500
H 	H 	0.15294 0.42873 0.95971 0.04200
H 	H 	0.04331 0.27404 0.97076 0.04000
C 	C 	0.30232 0.89464 0.95065 -0.00300
C 	C 	0.26247 0.80199 0.94604 -0.05200
C 	C 	0.19049 0.73689 0.95648 -0.01100
C 	C 	0.15316 0.76548 0.97019 -0.00100
C 	C 	0.18551 0.85924 0.97305 -0.06700
C 	C 	0.26312 0.92332 0.96376 -0.01300
H 	H 	0.35875 0.94544 0.94285 0.05800
H 	H 	0.16069 0.66463 0.95338 0.04600
H 	H 	0.09385 0.71505 0.97731 0.04400
H 	H 	0.28655 0.99539 0.96492 0.05200
H 	H 	0.99268 0.17541 0.91527 0.06700
O 	O 	0.92588 0.05866 0.95598 -0.35900
O 	O 	0.95877 0.92138 0.94253 -0.34300
