data_crystal

_cell_length_a 24.49970
_cell_length_b 22.85777
_cell_length_c 22.84850
_cell_angle_alpha 90.02919
_cell_angle_beta  89.12573
_cell_angle_gamma 90.53240

_symmetry_space_group_name_	'P 1'
_symmetry_space_group_name_H-M	'P 1'

loop_
_symmetry_equiv_pos_as_xyz
  x,y,z

loop_
_atom_site_label
_atom_site_type_symbol
_atom_site_fract_x
_atom_site_fract_y
_atom_site_fract_z
_atom_site_charge
C 	C 	0.12244 0.99719 0.10627 0.34000
C 	C 	0.97348 0.11477 0.94916 0.35300
C 	C 	0.04485 0.94109 0.98102 0.33500
C 	C 	0.04750 0.19390 0.04374 0.32500
C 	C 	0.11692 0.04642 0.85455 0.34600
C 	C 	0.21578 0.11889 0.96253 0.30600
Ni	Ni	0.03535 0.05782 0.04099 1.10800
Ni	Ni	0.09422 0.13864 0.93963 1.12100
Ni	Ni	0.14488 0.01450 0.97414 1.11500
O 	O 	0.08954 0.04261 0.10749 -0.39700
O 	O 	0.14459 0.97706 0.05641 -0.35700
O 	O 	0.08489 0.09039 0.86707 -0.38900
O 	O 	0.98710 0.06365 0.96845 -0.38500
O 	O 	0.01158 0.15393 0.93656 -0.39100
O 	O 	0.20658 0.06951 0.99193 -0.38500
O 	O 	0.03381 0.96722 0.03088 -0.36500
O 	O 	0.08511 0.95932 0.94713 -0.37100
O 	O 	0.17762 0.14414 0.92985 -0.36900
O 	O 	0.02220 0.14618 0.06501 -0.37200
O 	O 	0.09234 0.19042 0.01103 -0.38100
O 	O 	0.15730 0.03307 0.88890 -0.39500
O 	O 	0.09685 0.07600 0.99516 -0.72700
H 	H 	0.11917 0.09495 0.02539 0.17000
C 	C 	0.17529 0.76800 0.55384 0.31700
C 	C 	0.03679 0.94572 0.46362 0.31400
C 	C 	0.08912 0.88703 0.61225 0.31500
C 	C 	0.10551 0.85144 0.35874 0.31100
C 	C 	0.93470 0.81019 0.53372 0.32700
C 	C 	0.00885 0.69390 0.47352 0.26100
Ni	Ni	0.12964 0.86745 0.48890 1.11700
Ni	Ni	0.01165 0.82284 0.43568 1.11400
Ni	Ni	0.04998 0.77594 0.56071 1.11800
O 	O 	0.17570 0.79389 0.50257 -0.37100
O 	O 	0.12960 0.76300 0.58587 -0.36700
O 	O 	0.95391 0.84593 0.49374 -0.37900
O 	O 	0.08739 0.94476 0.48093 -0.36700
O 	O 	0.02064 0.91015 0.42209 -0.37900
O 	O 	0.04797 0.70343 0.51185 -0.37600
O 	O 	0.13282 0.88160 0.57877 -0.36900
O 	O 	0.04647 0.85239 0.60567 -0.38000
O 	O 	0.99090 0.73552 0.43724 -0.34300
O 	O 	0.14298 0.86351 0.39827 -0.35800
O 	O 	0.06620 0.81244 0.36900 -0.37600
O 	O 	0.96677 0.77328 0.56061 -0.37000
O 	O 	0.06931 0.81566 0.48934 -0.71700
H 	H 	0.08774 0.78374 0.46815 0.15900
C 	C 	0.91177 0.68871 0.95082 0.30600
C 	C 	0.83814 0.53386 0.13853 0.32700
C 	C 	0.98733 0.60506 0.03524 0.35500
C 	C 	0.74335 0.61741 0.03896 0.30900
C 	C 	0.90703 0.43913 0.00694 0.32800
C 	C 	0.82468 0.50239 0.88368 0.31100
Ni	Ni	0.86792 0.63135 0.05788 1.11700
Ni	Ni	0.80842 0.51066 0.01642 1.12600
Ni	Ni	0.91606 0.55380 0.94847 1.12100
O 	O 	0.86929 0.68728 0.98699 -0.37200
O 	O 	0.93253 0.64015 0.92671 -0.36400
O 	O 	0.86357 0.45065 0.03907 -0.38000
O 	O 	0.87561 0.57362 0.12730 -0.36500
O 	O 	0.79730 0.52629 0.10307 -0.37700
O 	O 	0.86175 0.54497 0.88415 -0.37900
O 	O 	0.95292 0.64337 0.05689 -0.36700
O 	O 	0.96956 0.55556 0.01437 -0.39100
O 	O 	0.80285 0.47983 0.93270 -0.37200
O 	O 	0.78310 0.63738 0.07306 -0.35600
O 	O 	0.74927 0.57040 0.00522 -0.36900
O 	O 	0.91563 0.46592 0.95669 -0.38700
O 	O 	0.85805 0.57318 0.00014 -0.71200
H 	H 	0.83595 0.59471 0.97183 0.16100
C 	C 	0.80695 0.35658 0.63122 0.31000
C 	C 	0.96813 0.29677 0.44974 0.35100
C 	C 	0.87662 0.44256 0.52003 0.32500
C 	C 	0.89525 0.18549 0.52564 0.31100
C 	C 	0.82315 0.37208 0.37971 0.32100
C 	C 	0.72551 0.26402 0.44954 0.31400
Ni	Ni	0.89872 0.31930 0.55440 1.11500
Ni	Ni	0.85016 0.26112 0.43569 1.12200
Ni	Ni	0.78224 0.36309 0.50117 1.12400
O 	O 	0.84356 0.31508 0.62378 -0.36800
O 	O 	0.77082 0.36909 0.59025 -0.36000
O 	O 	0.85807 0.32888 0.38078 -0.38000
O 	O 	0.95220 0.33723 0.48602 -0.38400
O 	O 	0.93409 0.25506 0.43365 -0.37600
O 	O 	0.73038 0.29541 0.49752 -0.38100
O 	O 	0.89249 0.40937 0.56320 -0.37400
O 	O 	0.82681 0.43799 0.50042 -0.37800
O 	O 	0.76890 0.24807 0.41744 -0.36700
O 	O 	0.91848 0.22925 0.55566 -0.35900
O 	O 	0.85250 0.19362 0.49207 -0.37800
O 	O 	0.77910 0.37114 0.41337 -0.38300
O 	O 	0.83968 0.30763 0.50497 -0.71700
H 	H 	0.81972 0.27913 0.52978 0.16300
C 	C 	0.58998 0.03369 0.16427 0.32500
C 	C 	0.48274 0.13135 0.96009 0.32700
C 	C 	0.54653 0.96447 0.02494 0.32200
C 	C 	0.52179 0.21985 0.06941 0.31400
C 	C 	0.63701 0.06959 0.91626 0.31300
C 	C 	0.71378 0.14477 0.02787 0.30600
Ni	Ni	0.51924 0.08364 0.07159 1.10900
Ni	Ni	0.59847 0.16677 0.98815 1.12100
Ni	Ni	0.64273 0.04305 0.04065 1.11700
O 	O 	0.55511 0.07585 0.15254 -0.37700
O 	O 	0.62674 0.01426 0.12497 -0.37600
O 	O 	0.61662 0.12232 0.91501 -0.37800
O 	O 	0.49315 0.08247 0.98649 -0.39700
O 	O 	0.52000 0.17329 0.95749 -0.37300
O 	O 	0.69859 0.10270 0.06465 -0.37800
O 	O 	0.52374 0.99270 0.06865 -0.35900
O 	O 	0.59543 0.97894 0.00577 -0.35900
O 	O 	0.67835 0.18313 0.00723 -0.36100
O 	O 	0.49422 0.17142 0.08445 -0.36300
O 	O 	0.57375 0.21802 0.05465 -0.37600
O 	O 	0.66992 0.05428 0.95808 -0.39200
O 	O 	0.58937 0.10321 0.04320 -0.71300
H 	H 	0.60325 0.12385 0.07792 0.16300
C 	C 	0.47148 0.74143 0.53475 0.30200
C 	C 	0.59026 0.90601 0.68134 0.34100
C 	C 	0.42467 0.82507 0.62903 0.32600
C 	C 	0.66277 0.82786 0.56063 0.30400
C 	C 	0.48421 0.99375 0.56778 0.35400
C 	C 	0.54684 0.91920 0.43031 0.30200
Ni	Ni	0.54590 0.80349 0.61532 1.11400
Ni	Ni	0.58519 0.92625 0.55472 1.12400
Ni	Ni	0.46942 0.87431 0.52061 1.12200
O 	O 	0.52185 0.74089 0.55505 -0.36600
O 	O 	0.45231 0.78731 0.50594 -0.36800
O 	O 	0.53162 0.98259 0.59158 -0.37900
O 	O 	0.55737 0.86083 0.68464 -0.36800
O 	O 	0.61924 0.91572 0.63401 -0.38400
O 	O 	0.50579 0.88208 0.44102 -0.36700
O 	O 	0.46558 0.79336 0.64690 -0.36300
O 	O 	0.43393 0.87387 0.60089 -0.38700
O 	O 	0.56745 0.95246 0.47232 -0.36800
O 	O 	0.63119 0.79722 0.59845 -0.35300
O 	O 	0.64346 0.87019 0.52705 -0.37000
O 	O 	0.46704 0.96228 0.52353 -0.38300
O 	O 	0.53827 0.85919 0.55464 -0.71500
H 	H 	0.55402 0.83636 0.52193 0.16200
C 	C 	0.48171 0.62553 0.03823 0.31500
C 	C 	0.36007 0.54841 0.83391 0.31800
C 	C 	0.43211 0.71377 0.93386 0.32600
C 	C 	0.40096 0.45824 0.96551 0.30700
C 	C 	0.24959 0.64799 0.96745 0.31700
C 	C 	0.30945 0.56065 0.08571 0.29900
Ni	Ni	0.43595 0.58093 0.92724 1.11300
Ni	Ni	0.31016 0.54151 0.95606 1.12000
Ni	Ni	0.36101 0.65709 0.01908 1.12500
O 	O 	0.47664 0.57860 0.00534 -0.37700
O 	O 	0.44033 0.66196 0.04870 -0.36700
O 	O 	0.26975 0.61140 0.92893 -0.38500
O 	O 	0.39042 0.59136 0.85290 -0.37100
O 	O 	0.32800 0.51875 0.87054 -0.36400
O 	O 	0.33633 0.61111 0.08981 -0.36900
O 	O 	0.46272 0.66842 0.92097 -0.36600
O 	O 	0.38095 0.70590 0.94856 -0.38000
O 	O 	0.27921 0.54797 0.03936 -0.37200
O 	O 	0.42695 0.48929 0.92438 -0.36800
O 	O 	0.34893 0.46743 0.97837 -0.37500
O 	O 	0.28170 0.67570 0.00411 -0.36200
O 	O 	0.37355 0.58629 0.97596 -0.71100
H 	H 	0.38529 0.56197 0.00883 0.15500
C 	C 	0.35273 0.40238 0.32459 0.30300
C 	C 	0.41853 0.42591 0.57286 0.32300
C 	C 	0.47344 0.32576 0.40472 0.32300
C 	C 	0.32779 0.49820 0.50394 0.30700
C 	C 	0.37106 0.24641 0.52222 0.32100
C 	C 	0.23807 0.31506 0.45447 0.29800
Ni	Ni	0.40883 0.43018 0.44004 1.11400
Ni	Ni	0.32305 0.36558 0.53119 1.12000
Ni	Ni	0.35405 0.30379 0.40862 1.12200
O 	O 	0.39868 0.42015 0.34944 -0.36100
O 	O 	0.32867 0.35223 0.33989 -0.37000
O 	O 	0.32994 0.27764 0.54314 -0.37500
O 	O 	0.43173 0.45576 0.52528 -0.36300
O 	O 	0.39683 0.37406 0.56763 -0.38700
O 	O 	0.27631 0.27953 0.43282 -0.37300
O 	O 	0.47136 0.37034 0.44054 -0.36900
O 	O 	0.43093 0.31119 0.37310 -0.36700
O 	O 	0.24855 0.35256 0.49745 -0.37500
O 	O 	0.34408 0.48609 0.45051 -0.37700
O 	O 	0.30980 0.45553 0.54006 -0.36100
O 	O 	0.38888 0.25317 0.46826 -0.38500
O 	O 	0.35384 0.37327 0.45464 -0.71100
H 	H 	0.32215 0.39141 0.43621 0.15700
C 	C 	0.41012 0.45661 0.62758 -0.09600
C 	C 	0.39919 0.47961 0.67406 0.04600
C 	C 	0.38431 0.50438 0.72910 0.04000
C 	C 	0.37203 0.52456 0.77654 -0.08400
C 	C 	0.30985 0.52142 0.13479 -0.08000
C 	C 	0.31462 0.49074 0.17734 0.04500
C 	C 	0.32451 0.45747 0.22816 0.04300
C 	C 	0.33598 0.43120 0.27203 -0.07800
C 	C 	0.43781 0.68945 0.53932 -0.07900
C 	C 	0.40811 0.64688 0.54114 0.04100
C 	C 	0.37414 0.59641 0.53804 0.04600
C 	C 	0.34891 0.55194 0.52792 -0.08700
C 	C 	0.45919 0.04982 0.57741 -0.11900
C 	C 	0.43648 0.09656 0.57801 0.05800
C 	C 	0.40998 0.15067 0.56939 0.03500
C 	C 	0.38966 0.19571 0.55316 -0.07900
C 	C 	0.45794 0.76842 0.94879 -0.09600
C 	C 	0.47839 0.81390 0.96462 0.05500
C 	C 	0.50163 0.86673 0.98541 0.03300
C 	C 	0.52163 0.91148 0.00375 -0.06500
C 	C 	0.42640 0.40741 0.98937 -0.09100
C 	C 	0.44645 0.36456 0.01067 0.05300
C 	C 	0.47009 0.31417 0.03503 0.04400
C 	C 	0.49205 0.27102 0.05326 -0.08400
C 	C 	0.60212 0.93844 0.73300 -0.10200
C 	C 	0.61206 0.96698 0.77571 0.09500
C 	C 	0.62282 0.00168 0.82495 0.00500
C 	C 	0.63050 0.03233 0.86674 -0.07100
C 	C 	0.58477 0.00438 0.21982 -0.13500
C 	C 	0.57771 0.98077 0.26664 0.10200
C 	C 	0.56742 0.95531 0.32223 0.02500
C 	C 	0.55793 0.93657 0.37078 -0.05800
C 	C 	0.52429 0.29561 0.39810 -0.08300
C 	C 	0.57005 0.27682 0.39996 0.04700
C 	C 	0.62520 0.26320 0.41019 0.04400
C 	C 	0.67200 0.25920 0.42515 -0.08200
C 	C 	0.02590 0.29110 0.43856 -0.12100
C 	C 	0.07520 0.29099 0.43487 0.05700
C 	C 	0.13296 0.29549 0.43639 0.02800
C 	C 	0.18155 0.30271 0.44222 -0.07200
C 	C 	0.68906 0.63716 0.04988 -0.07700
C 	C 	0.64129 0.64689 0.05637 0.04400
C 	C 	0.58410 0.64907 0.05842 0.04900
C 	C 	0.53575 0.64260 0.05345 -0.08500
C 	C 	0.04283 0.62188 0.02345 -0.12900
C 	C 	0.08964 0.63264 0.01048 0.06700
C 	C 	0.14471 0.64142 0.99385 0.02700
C 	C 	0.19225 0.64592 0.98041 -0.08600
C 	C 	0.81498 0.47257 0.82944 -0.07900
C 	C 	0.80933 0.44611 0.78422 0.04500
C 	C 	0.80556 0.41437 0.73135 0.04500
C 	C 	0.80479 0.38746 0.68594 -0.08000
C 	C 	0.83707 0.50460 0.19372 -0.08400
C 	C 	0.83429 0.47770 0.23882 0.05100
C 	C 	0.82988 0.44355 0.28980 0.04900
C 	C 	0.82623 0.41206 0.33178 -0.08200
C 	C 	0.98108 0.63871 0.47575 -0.04400
C 	C 	0.95808 0.59252 0.48269 0.02900
C 	C 	0.93101 0.53927 0.49477 0.06100
C 	C 	0.90700 0.49460 0.50650 -0.08800
C 	C 	0.92431 0.13195 0.51885 -0.08500
C 	C 	0.94887 0.08778 0.50842 0.04900
C 	C 	0.97813 0.03731 0.49288 0.03500
C 	C 	0.00413 0.99507 0.47888 -0.07200
C 	C 	0.87660 0.80825 0.54482 -0.08300
C 	C 	0.82748 0.80866 0.55119 0.05200
C 	C 	0.76977 0.81182 0.55607 0.04300
C 	C 	0.72072 0.81728 0.55872 -0.07100
C 	C 	0.22648 0.76438 0.58278 -0.08200
C 	C 	0.27153 0.76912 0.60248 0.04200
C 	C 	0.32523 0.78272 0.61907 0.05100
C 	C 	0.37105 0.79987 0.62713 -0.09900
C 	C 	0.94231 0.74227 0.94672 -0.07100
C 	C 	0.96693 0.78798 0.94922 0.03200
C 	C 	0.99459 0.84160 0.95743 0.09100
C 	C 	0.01761 0.88720 0.96736 -0.12400
C 	C 	0.01849 0.24808 0.04392 -0.12500
C 	C 	0.99351 0.29296 0.03942 0.08800
C 	C 	0.96383 0.34464 0.03016 0.03500
C 	C 	0.93812 0.38810 0.02013 -0.07200
C 	C 	0.76983 0.14842 0.00889 -0.07100
C 	C 	0.81670 0.14806 0.99203 0.02900
C 	C 	0.87156 0.14277 0.97311 0.05700
C 	C 	0.91838 0.13314 0.95965 -0.10500
C 	C 	0.42653 0.14485 0.95047 -0.10100
C 	C 	0.37763 0.14919 0.94794 0.04800
C 	C 	0.32005 0.14626 0.95004 0.03500
C 	C 	0.27162 0.13721 0.95478 -0.08000
C 	C 	0.10947 0.01450 0.80139 -0.14300
C 	C 	0.10324 0.98655 0.75736 0.10400
C 	C 	0.09665 0.95274 0.70644 0.02600
C 	C 	0.09225 0.92305 0.66328 -0.07100
C 	C 	0.12453 0.96137 0.15777 -0.08400
C 	C 	0.12253 0.93244 0.20189 0.05100
C 	C 	0.11732 0.90075 0.25479 0.04400
C 	C 	0.11184 0.87635 0.30133 -0.08000
