data_crystal

_cell_length_a 18.37513
_cell_length_b 16.89845
_cell_length_c 47.92108
_cell_angle_alpha 90.72009
_cell_angle_beta  91.01388
_cell_angle_gamma 110.82643

_symmetry_space_group_name_	'P 1'
_symmetry_space_group_name_H-M	'P 1'

loop_
_symmetry_equiv_pos_as_xyz
  x,y,z

loop_
_atom_site_label
_atom_site_type_symbol
_atom_site_fract_x
_atom_site_fract_y
_atom_site_fract_z
_atom_site_charge
O 	O 	0.09478 0.92773 0.76237 -0.70500
Ni	Ni	0.12732 0.04051 0.78275 1.10000
O 	O 	0.11891 0.81395 0.72033 -0.41600
Ni	Ni	0.18623 0.92087 0.74379 1.06100
O 	O 	0.17427 0.01096 0.71797 -0.42200
O 	O 	0.22184 0.03474 0.80473 -0.39000
O 	O 	0.03669 0.04660 0.75898 -0.70100
O 	O 	0.13013 0.14671 0.80500 -0.37400
H 	H 	0.07081 0.87959 0.77483 0.15300
H 	H 	0.05112 0.09968 0.74837 0.15300
C 	C 	0.19918 0.09175 0.72603 0.26800
C 	C 	0.04940 0.80177 0.70942 0.30300
C 	C 	0.28050 0.02507 0.79156 0.29000
C 	C 	0.06530 0.14662 0.81641 0.27800
O 	O 	0.20030 0.11324 0.75291 -0.37600
O 	O 	0.27583 0.01183 0.76437 -0.41800
Ni	Ni	0.34298 0.76453 0.40228 1.09900
O 	O 	0.33630 0.67578 0.37139 -0.69900
Ni	Ni	0.22528 0.65044 0.35832 1.09500
O 	O 	0.43919 0.75820 0.42291 -0.37100
O 	O 	0.44223 0.63030 0.40918 -0.40800
O 	O 	0.41694 0.86008 0.37922 -0.37100
Ni	Ni	0.34111 0.56908 0.38570 1.06400
O 	O 	0.31893 0.93584 0.39549 -0.41800
O 	O 	0.27325 0.57583 0.41814 -0.42700
O 	O 	0.21731 0.55500 0.33085 -0.40200
O 	O 	0.23846 0.74791 0.38563 -0.71200
O 	O 	0.34159 0.85467 0.43036 -0.38200
O 	O 	0.11812 0.64930 0.34509 -0.37700
O 	O 	0.16831 0.78960 0.33467 -0.42800
Ni	Ni	0.24678 0.85261 0.36664 1.05900
H 	H 	0.37290 0.69735 0.35602 0.15300
H 	H 	0.19798 0.73382 0.40000 0.15200
C 	C 	0.19929 0.56561 0.41436 0.27300
O 	O 	0.33703 0.85506 0.34183 -0.42300
C 	C 	0.44546 0.68558 0.42917 0.29100
C 	C 	0.22591 0.48551 0.33940 0.29200
C 	C 	0.40693 0.86849 0.35244 0.28200
C 	C 	0.10790 0.72027 0.33901 0.28000
C 	C 	0.32307 0.91978 0.42239 0.28300
O 	O 	0.16982 0.56588 0.38893 -0.37700
O 	O 	0.24814 0.48040 0.36544 -0.41800
Ni	Ni	0.37273 0.63231 0.13143 1.10000
O 	O 	0.27705 0.60385 0.10507 -0.70100
Ni	Ni	0.20956 0.65021 0.12709 1.09700
O 	O 	0.41291 0.54285 0.11514 -0.37100
O 	O 	0.29160 0.44453 0.11612 -0.41600
O 	O 	0.43857 0.71773 0.10299 -0.37200
Ni	Ni	0.21490 0.48704 0.09454 1.07600
O 	O 	0.47903 0.81107 0.15021 -0.41100
O 	O 	0.12799 0.44789 0.12327 -0.39500
O 	O 	0.10731 0.59831 0.10416 -0.38100
O 	O 	0.31153 0.69382 0.15011 -0.70400
O 	O 	0.46624 0.67283 0.15808 -0.38200
O 	O 	0.16338 0.72252 0.15052 -0.37200
O 	O 	0.26751 0.84271 0.14231 -0.41000
Ni	Ni	0.36873 0.81444 0.14617 1.06400
H 	H 	0.29046 0.63615 0.08767 0.15300
H 	H 	0.30417 0.67873 0.17003 0.15300
C 	C 	0.13249 0.47622 0.14914 0.30300
O 	O 	0.37016 0.80710 0.10382 -0.42100
C 	C 	0.36333 0.46807 0.10730 0.28300
C 	C 	0.10551 0.57341 0.07774 0.28500
C 	C 	0.41685 0.77586 0.09107 0.28800
C 	C 	0.20442 0.80274 0.15640 0.27600
C 	C 	0.49769 0.75427 0.16470 0.27900
O 	O 	0.17336 0.55558 0.15572 -0.39700
O 	O 	0.14603 0.52688 0.06924 -0.41200
O 	O 	0.05166 0.15970 0.25493 -0.38000
O 	O 	0.09919 0.02111 0.24989 -0.40700
O 	O 	0.02232 0.03238 0.21299 -0.36800
O 	O 	0.97321 0.94359 0.32108 -0.42400
Ni	Ni	0.03100 0.98437 0.28413 1.05700
O 	O 	0.05069 0.10434 0.29816 -0.41300
C 	C 	0.07013 0.16944 0.28168 0.29400
C 	C 	0.07180 0.00005 0.22397 0.29300
C 	C 	0.99789 0.38787 0.16174 -0.03900
C 	C 	0.07716 0.42346 0.16942 -0.08500
C 	C 	0.10361 0.40073 0.19490 0.07600
C 	C 	0.05147 0.33749 0.21107 -0.03500
C 	C 	0.97380 0.29651 0.20205 -0.09400
H 	H 	0.97720 0.40752 0.14266 0.05000
H 	H 	0.07214 0.31767 0.23012 0.04600
C 	C 	0.18766 0.44112 0.20439 -0.19200
H 	H 	0.20341 0.51071 0.20670 0.07000
H 	H 	0.22606 0.42728 0.18892 0.06600
H 	H 	0.19867 0.41706 0.22490 0.06400
H 	H 	0.44686 0.75765 0.22172 0.04500
C 	C 	0.18504 0.96362 0.20889 -0.05400
C 	C 	0.10538 0.95033 0.20612 -0.10700
C 	C 	0.05754 0.88560 0.18774 0.06800
C 	C 	0.09123 0.83918 0.17129 -0.03800
C 	C 	0.17072 0.85230 0.17415 -0.08700
C 	C 	0.21753 0.91300 0.19386 0.06500
C 	C 	0.30199 0.92433 0.19896 -0.17900
H 	H 	0.22165 0.01267 0.22310 0.05700
H 	H 	0.05536 0.79255 0.15622 0.05000
C 	C 	0.97099 0.86642 0.18518 -0.18600
H 	H 	0.32480 0.95927 0.21892 0.05000
H 	H 	0.33755 0.96080 0.18175 0.03900
H 	H 	0.30917 0.86193 0.20035 0.02300
H 	H 	0.96005 0.91650 0.17292 0.07100
H 	H 	0.94066 0.80463 0.17431 0.06300
C 	C 	0.22229 0.38148 0.30199 -0.04400
C 	C 	0.18470 0.40671 0.32369 -0.09500
C 	C 	0.10672 0.35788 0.32964 0.08300
C 	C 	0.06891 0.28207 0.31473 -0.04100
C 	C 	0.10743 0.25485 0.29383 -0.09900
C 	C 	0.18419 0.30562 0.28694 0.07500
C 	C 	0.22633 0.27805 0.26421 -0.19600
H 	H 	0.28148 0.42038 0.29704 0.02700
H 	H 	0.00979 0.24316 0.31978 0.02900
C 	C 	0.06404 0.38580 0.35213 -0.20100
H 	H 	0.28603 0.32469 0.26150 0.06100
H 	H 	0.19400 0.27153 0.24401 0.08200
H 	H 	0.23134 0.21633 0.26945 0.07200
H 	H 	0.06479 0.45057 0.34795 0.08900
H 	H 	0.09213 0.38546 0.37281 0.08900
H 	H 	0.00213 0.34319 0.35306 0.06600
C 	C 	0.94430 0.76018 0.30189 -0.05400
C 	C 	0.91677 0.79371 0.32459 -0.10400
C 	C 	0.92886 0.76873 0.35169 0.07300
C 	C 	0.98684 0.73387 0.35627 -0.04400
C 	C 	0.02886 0.72015 0.33375 -0.10200
C 	C 	0.00198 0.72473 0.30627 0.06700
C 	C 	0.04002 0.70066 0.28161 -0.19500
H 	H 	0.00374 0.72453 0.37742 0.02300
C 	C 	0.88901 0.79082 0.37616 -0.19400
H 	H 	0.05405 0.64328 0.28613 0.07700
H 	H 	0.09443 0.75377 0.27683 0.06000
H 	H 	0.83000 0.78924 0.36987 0.07200
H 	H 	0.92411 0.85521 0.38427 0.06400
H 	H 	0.88218 0.74470 0.39313 0.06200
H 	H 	0.33185 0.18633 0.52680 0.04300
C 	C 	0.32156 0.02433 0.49138 -0.04500
C 	C 	0.29599 0.96755 0.46880 -0.00400
C 	C 	0.33192 0.98757 0.44296 -0.10500
H 	H 	0.29712 0.00600 0.51174 0.04300
H 	H 	0.25176 0.90586 0.47185 0.02100
C 	C 	0.05273 0.49574 0.48525 0.01800
C 	C 	0.03492 0.54198 0.46371 -0.06600
C 	C 	0.08149 0.56292 0.44016 0.00700
C 	C 	0.14649 0.53815 0.43804 -0.08800
C 	C 	0.16299 0.49001 0.45932 0.01200
C 	C 	0.11628 0.46891 0.48277 -0.06400
H 	H 	0.06808 0.59998 0.42391 0.02100
H 	H 	0.21231 0.46943 0.45778 0.02900
H 	H 	0.13026 0.43292 0.49923 0.04400
C 	C 	0.51275 0.65507 0.51302 0.01800
C 	C 	0.53272 0.73636 0.50204 -0.06400
C 	C 	0.51402 0.74638 0.47425 0.01400
C 	C 	0.47462 0.67504 0.45720 -0.09100
C 	C 	0.45614 0.59367 0.46808 0.01200
H 	H 	0.56231 0.79175 0.51509 0.04300
H 	H 	0.52937 0.80958 0.46609 0.04000
H 	H 	0.42520 0.53818 0.45526 0.01900
C 	C 	0.25138 0.13124 0.67862 -0.04900
C 	C 	0.24528 0.15630 0.70623 -0.08700
C 	C 	0.29839 0.23543 0.71606 0.07400
C 	C 	0.37019 0.27077 0.70289 -0.04500
C 	C 	0.38248 0.23589 0.67747 -0.09000
C 	C 	0.31859 0.17321 0.66364 0.08100
C 	C 	0.32120 0.15147 0.63315 -0.19600
H 	H 	0.20579 0.07683 0.66928 0.04900
H 	H 	0.41564 0.32527 0.71223 0.03900
C 	C 	0.27527 0.28675 0.73779 -0.18900
H 	H 	0.26167 0.12762 0.62355 0.06700
H 	H 	0.34696 0.10156 0.63078 0.07600
H 	H 	0.35579 0.20836 0.62149 0.08800
H 	H 	0.29807 0.27851 0.75867 0.07300
H 	H 	0.21091 0.26795 0.73845 0.07100
H 	H 	0.29922 0.35510 0.73278 0.06200
C 	C 	0.10637 0.72628 0.66257 -0.19100
H 	H 	0.14988 0.72403 0.67862 0.06800
H 	H 	0.11711 0.79319 0.65722 0.07100
H 	H 	0.11515 0.69301 0.64350 0.06200
C 	C 	0.92259 0.52942 0.03536 -0.06500
C 	C 	0.02953 0.63257 0.01166 -0.06400
C 	C 	0.07803 0.63893 0.03499 0.01100
C 	C 	0.04999 0.58763 0.05806 -0.08800
C 	C 	0.97112 0.53607 0.05874 0.01600
H 	H 	0.13871 0.67978 0.03445 0.01900
H 	H 	0.94879 0.49678 0.07660 0.03100
C 	C 	0.54420 0.92756 0.96660 -0.05300
C 	C 	0.56308 0.95573 0.99436 -0.00200
C 	C 	0.57332 0.98316 0.94472 -0.00900
C 	C 	0.52379 0.90129 0.01744 0.02400
H 	H 	0.55585 0.96164 0.92341 0.03100
H 	H 	0.50511 0.86342 0.96202 0.03700
C 	C 	0.44419 0.88362 0.02156 -0.06800
C 	C 	0.40852 0.83982 0.04511 0.01100
C 	C 	0.45211 0.81308 0.06472 -0.09200
C 	C 	0.53106 0.82778 0.06000 0.01400
C 	C 	0.56679 0.87199 0.03650 -0.06900
H 	H 	0.41049 0.90578 0.00689 0.04400
H 	H 	0.34734 0.82786 0.04833 0.02500
H 	H 	0.56534 0.80753 0.07499 0.03700
C 	C 	0.40033 0.31685 0.98198 -0.06300
C 	C 	0.41375 0.40043 0.02623 0.02400
H 	H 	0.35837 0.26269 0.99177 0.04600
C 	C 	0.33619 0.38364 0.03351 -0.07400
C 	C 	0.31841 0.39744 0.06093 0.01600
C 	C 	0.37831 0.42981 0.08124 -0.11100
C 	C 	0.45510 0.44012 0.07440 0.02500
C 	C 	0.47275 0.42559 0.04700 -0.06900
H 	H 	0.29003 0.36269 0.01773 0.04200
H 	H 	0.25864 0.38766 0.06597 -0.03500
H 	H 	0.50159 0.46312 0.09000 0.03300
C 	C 	0.08240 0.20164 0.87635 -0.19900
H 	H 	0.14132 0.20533 0.86995 0.07700
H 	H 	0.04608 0.13447 0.87990 0.07100
H 	H 	0.08915 0.23814 0.89628 0.06500
C 	C 	0.49390 0.14816 0.80915 -0.04300
C 	C 	0.50418 0.10808 0.83347 -0.10000
C 	C 	0.44350 0.03481 0.84227 0.09100
C 	C 	0.37021 0.00958 0.82869 -0.03400
C 	C 	0.35813 0.05339 0.80550 -0.09400
C 	C 	0.42101 0.12257 0.79530 0.07500
C 	C 	0.41058 0.17022 0.77006 -0.19400
H 	H 	0.32267 0.95551 0.83612 0.02300
C 	C 	0.45565 0.98522 0.86674 -0.22000
H 	H 	0.45950 0.23162 0.76820 0.05600
H 	H 	0.35648 0.18443 0.77174 0.08400
H 	H 	0.40768 0.13191 0.75080 0.07400
H 	H 	0.44696 0.01521 0.88653 0.09800
H 	H 	0.51528 0.98279 0.86686 0.07300
H 	H 	0.41389 0.91884 0.86569 0.06300
Ni	Ni	0.62694 0.27754 0.89969 1.09900
O 	O 	0.63743 0.35318 0.86538 -0.69800
Ni	Ni	0.74988 0.37439 0.85677 1.09400
O 	O 	0.52687 0.28879 0.91390 -0.37100
O 	O 	0.52701 0.41261 0.89591 -0.40600
O 	O 	0.55662 0.17244 0.87773 -0.37500
Ni	Ni	0.63090 0.46438 0.87477 1.06400
O 	O 	0.65116 0.10492 0.90252 -0.41000
O 	O 	0.69441 0.47045 0.91052 -0.42700
O 	O 	0.76223 0.46038 0.82608 -0.40200
O 	O 	0.73346 0.28930 0.88791 -0.71200
O 	O 	0.62471 0.19975 0.93188 -0.38000
O 	O 	0.85854 0.37120 0.84919 -0.37900
O 	O 	0.80959 0.22734 0.84330 -0.42200
Ni	Ni	0.72817 0.17782 0.87422 1.06100
H 	H 	0.60230 0.32513 0.84946 0.15300
H 	H 	0.77192 0.30988 0.90352 0.15300
C 	C 	0.76796 0.47711 0.90995 0.27100
O 	O 	0.64180 0.16357 0.84502 -0.42200
C 	C 	0.51946 0.36252 0.91733 0.29100
C 	C 	0.75274 0.53246 0.83133 0.28900
C 	C 	0.57046 0.15241 0.85241 0.29400
C 	C 	0.86961 0.29868 0.84664 0.27600
C 	C 	0.64036 0.12992 0.92803 0.27500
O 	O 	0.80051 0.47016 0.88605 -0.37800
O 	O 	0.72672 0.54607 0.85574 -0.41500
Ni	Ni	0.58876 0.37905 0.63534 1.10000
O 	O 	0.67527 0.40357 0.60665 -0.70000
Ni	Ni	0.74684 0.35366 0.62513 1.09800
O 	O 	0.54776 0.47092 0.62202 -0.37500
O 	O 	0.67125 0.56502 0.62239 -0.42000
O 	O 	0.51323 0.29465 0.60736 -0.38100
Ni	Ni	0.73575 0.51875 0.59628 1.07300
O 	O 	0.48077 0.20070 0.65300 -0.41400
O 	O 	0.83225 0.55384 0.62233 -0.40200
O 	O 	0.84342 0.40019 0.60023 -0.37900
O 	O 	0.65257 0.31540 0.65068 -0.70400
O 	O 	0.50310 0.34149 0.66373 -0.39000
O 	O 	0.79592 0.27933 0.64626 -0.37600
O 	O 	0.68630 0.16155 0.63918 -0.41000
Ni	Ni	0.58973 0.19576 0.64664 1.06300
H 	H 	0.65533 0.37127 0.58908 0.15300
H 	H 	0.66699 0.33137 0.67051 0.15300
C 	C 	0.83377 0.52777 0.64792 0.30600
O 	O 	0.57580 0.19994 0.60453 -0.41800
C 	C 	0.59712 0.54643 0.61602 0.27700
C 	C 	0.84461 0.43791 0.57591 0.29000
C 	C 	0.53068 0.23677 0.59328 0.28700
C 	C 	0.75488 0.19952 0.65156 0.27500
C 	C 	0.46206 0.26001 0.66654 0.28300
O 	O 	0.79545 0.44866 0.65428 -0.39700
O 	O 	0.79107 0.46990 0.56864 -0.42000
Ni	Ni	0.01891 0.94800 0.73338 1.09900
O 	O 	0.02903 0.86626 0.70325 -0.38200
O 	O 	0.92557 0.85281 0.74946 -0.38400
O 	O 	0.86783 0.98559 0.74520 -0.42300
O 	O 	0.94129 0.97442 0.70801 -0.38000
O 	O 	0.00354 0.07675 0.81613 -0.41500
Ni	Ni	0.94141 0.02854 0.77925 1.06600
O 	O 	0.92961 0.91100 0.79292 -0.42300
C 	C 	0.91071 0.84453 0.77617 0.29400
C 	C 	0.88997 0.00326 0.71904 0.29100
Ni	Ni	0.95243 0.06771 0.23888 1.10400
O 	O 	0.88543 0.09762 0.26849 -0.69600
Ni	Ni	0.85088 0.98763 0.28887 1.09200
O 	O 	0.94153 0.14825 0.20901 -0.37800
O 	O 	0.86128 0.21125 0.22731 -0.40900
Ni	Ni	0.79292 0.11045 0.25150 1.06600
O 	O 	0.79066 0.01403 0.22512 -0.41800
O 	O 	0.76506 0.00514 0.31177 -0.40100
O 	O 	0.93366 0.97106 0.26433 -0.71200
O 	O 	0.84418 0.88137 0.31074 -0.38000
H 	H 	0.91430 0.14621 0.28094 0.15500
H 	H 	0.91393 0.91658 0.25375 0.15400
C 	C 	0.76143 0.93458 0.23331 0.26200
C 	C 	0.92696 0.21667 0.21527 0.30100
C 	C 	0.70242 0.00980 0.29935 0.31500
C 	C 	0.90919 0.87640 0.32109 0.28300
O 	O 	0.76910 0.91482 0.25974 -0.38000
O 	O 	0.70257 0.02625 0.27250 -0.41600
C 	C 	0.94601 0.32412 0.17775 0.08200
C 	C 	0.86197 0.28376 0.16823 -0.19400
H 	H 	0.84961 0.31262 0.14885 0.06600
H 	H 	0.82335 0.29228 0.18463 0.07200
H 	H 	0.84771 0.21511 0.16389 0.07500
C 	C 	0.64034 0.82792 0.16968 -0.03600
C 	C 	0.56912 0.78370 0.18208 -0.08900
C 	C 	0.56546 0.77669 0.21133 0.06400
C 	C 	0.63116 0.82158 0.22791 -0.04000
C 	C 	0.70062 0.87249 0.21559 -0.08500
C 	C 	0.70681 0.87081 0.18623 0.06700
C 	C 	0.78275 0.91721 0.17236 -0.18700
H 	H 	0.64347 0.83098 0.14711 0.04700
H 	H 	0.62676 0.82094 0.25042 0.04900
C 	C 	0.49017 0.72641 0.22503 -0.18600
H 	H 	0.78632 0.88600 0.15215 0.06300
H 	H 	0.83290 0.91755 0.18564 0.05900
H 	H 	0.78752 0.98344 0.16840 0.07000
H 	H 	0.46670 0.66115 0.21599 0.06400
H 	H 	0.49858 0.72128 0.24787 0.05900
H 	H 	0.94510 0.86262 0.20610 0.04700
C 	C 	0.52387 0.85236 0.33240 -0.05500
C 	C 	0.47605 0.90062 0.33492 -0.07600
C 	C 	0.50252 0.98492 0.32556 0.03100
C 	C 	0.57742 0.02016 0.31450 0.01100
C 	C 	0.62643 0.97281 0.31297 -0.13500
C 	C 	0.59880 0.88747 0.32157 0.09700
C 	C 	0.64965 0.83440 0.32033 -0.20800
H 	H 	0.50380 0.78809 0.33993 0.02900
H 	H 	0.59780 0.08473 0.30723 0.01700
C 	C 	0.45215 0.03821 0.32802 -0.16400
H 	H 	0.61609 0.76676 0.32445 0.06500
H 	H 	0.69727 0.85762 0.33634 0.08700
H 	H 	0.67462 0.83688 0.29936 0.08700
H 	H 	0.48079 0.10227 0.31937 0.05400
H 	H 	0.44007 0.04608 0.35031 0.06900
H 	H 	0.39631 0.00730 0.31630 0.06300
H 	H 	0.92956 0.77282 0.28081 0.01700
H 	H 	0.00070 0.68618 0.26286 0.06100
C 	C 	0.38891 0.18454 0.53193 -0.06700
C 	C 	0.42594 0.14788 0.51314 0.02100
C 	C 	0.50003 0.14638 0.51990 -0.06500
C 	C 	0.53515 0.17741 0.54579 0.01200
C 	C 	0.49653 0.21039 0.56517 -0.09500
C 	C 	0.42420 0.21609 0.55780 0.01300
C 	C 	0.38348 0.10127 0.48825 0.01600
H 	H 	0.52910 0.11830 0.50546 0.04800
H 	H 	0.59186 0.17471 0.55093 0.02900
H 	H 	0.39443 0.24291 0.57234 0.03300
C 	C 	0.38743 0.06857 0.43903 0.03200
C 	C 	0.41330 0.12524 0.46166 -0.06700
H 	H 	0.41461 0.08525 0.41900 0.03100
H 	H 	0.46000 0.18541 0.45894 0.04300
C 	C 	0.00993 0.54580 0.52897 -0.06600
C 	C 	0.00690 0.47873 0.51090 0.01900
C 	C 	0.95833 0.39588 0.51694 -0.06400
C 	C 	0.90967 0.38106 0.53996 0.01300
C 	C 	0.90926 0.44899 0.55702 -0.08700
C 	C 	0.96141 0.53096 0.55195 0.01400
H 	H 	0.95643 0.34348 0.50333 0.04400
H 	H 	0.86961 0.31753 0.54369 0.02400
H 	H 	0.96175 0.58377 0.56509 0.02400
H 	H 	0.04836 0.60973 0.52478 0.04100
H 	H 	0.98563 0.56258 0.46539 0.04200
C 	C 	0.61204 0.67182 0.55085 -0.06900
C 	C 	0.53357 0.64430 0.54219 0.01800
C 	C 	0.47561 0.59941 0.56065 -0.06800
C 	C 	0.49631 0.57484 0.58644 0.01700
C 	C 	0.57522 0.59416 0.59380 -0.10500
C 	C 	0.63281 0.64762 0.57666 -0.00100
H 	H 	0.41466 0.58041 0.55451 0.04500
H 	H 	0.45110 0.53683 0.59998 0.03500
H 	H 	0.69390 0.66599 0.58248 -0.00500
H 	H 	0.65716 0.70836 0.53701 0.03900
C 	C 	0.47527 0.58375 0.49583 -0.06600
H 	H 	0.46070 0.52065 0.50402 0.04200
C 	C 	0.74289 0.08878 0.68666 -0.04500
C 	C 	0.79001 0.14847 0.66825 -0.09400
C 	C 	0.86884 0.15629 0.66534 0.07900
C 	C 	0.90069 0.11038 0.68285 -0.04300
C 	C 	0.85369 0.05095 0.70134 -0.10100
C 	C 	0.77313 0.03718 0.70227 0.08100
C 	C 	0.71886 0.96734 0.71940 -0.19700
H 	H 	0.68213 0.08155 0.68852 0.01800
H 	H 	0.96220 0.12017 0.68184 0.03700
C 	C 	0.91913 0.21212 0.64350 -0.19500
H 	H 	0.65712 0.95252 0.71275 0.05400
H 	H 	0.72511 0.98713 0.74176 0.06100
H 	H 	0.73152 0.90813 0.71683 0.07600
H 	H 	0.93822 0.27947 0.65048 0.08200
H 	H 	0.88685 0.20338 0.62320 0.08000
H 	H 	0.97201 0.19634 0.63985 0.06600
C 	C 	0.92801 0.67598 0.70841 -0.03800
C 	C 	0.00227 0.71784 0.69779 -0.09500
C 	C 	0.02522 0.68573 0.67348 0.07700
C 	C 	0.97081 0.61742 0.65870 -0.03400
C 	C 	0.89378 0.58200 0.66759 -0.09200
C 	C 	0.87326 0.60823 0.69344 0.07700
C 	C 	0.79223 0.56737 0.70441 -0.19400
H 	H 	0.91167 0.69865 0.72771 0.04700
H 	H 	0.98724 0.59460 0.63942 0.04800
H 	H 	0.78697 0.59204 0.72558 0.06500
H 	H 	0.77764 0.49795 0.70593 0.06900
H 	H 	0.74936 0.58008 0.69023 0.06500
C 	C 	0.95272 0.57473 0.01126 0.01900
C 	C 	0.90745 0.55395 0.98482 0.01700
H 	H 	0.05277 0.66925 0.99337 0.04200
H 	H 	0.86291 0.48557 0.03540 0.04400
C 	C 	0.93240 0.51513 0.96278 -0.06400
C 	C 	0.88749 0.49111 0.93818 0.00500
C 	C 	0.81714 0.50569 0.93540 -0.09000
C 	C 	0.79282 0.54568 0.95739 0.01000
C 	C 	0.83780 0.56958 0.98197 -0.06500
H 	H 	0.98597 0.50234 0.96491 0.04200
H 	H 	0.90670 0.45983 0.92151 0.02600
H 	H 	0.73906 0.55813 0.95547 0.03100
H 	H 	0.81827 0.59974 0.99887 0.04300
C 	C 	0.61429 0.03869 0.00005 -0.04100
C 	C 	0.64315 0.09443 0.97819 -0.00200
C 	C 	0.62127 0.06758 0.95046 -0.06800
H 	H 	0.62952 0.06084 0.02143 0.04200
H 	H 	0.68064 0.15917 0.98286 0.02900
H 	H 	0.62821 0.88504 0.03341 0.04200
C 	C 	0.43340 0.39381 0.99681 0.01700
C 	C 	0.48657 0.46398 0.98368 -0.06400
C 	C 	0.51019 0.45561 0.95657 0.00900
C 	C 	0.48078 0.37712 0.94240 -0.08900
C 	C 	0.42346 0.30870 0.95484 0.01700
H 	H 	0.51104 0.52429 0.99474 0.04300
H 	H 	0.55421 0.50891 0.94715 0.02000
H 	H 	0.39915 0.24821 0.94387 0.04000
H 	H 	0.53254 0.43611 0.04174 0.04700
C 	C 	0.03065 0.27087 0.80592 -0.04900
C 	C 	0.05690 0.22596 0.82568 -0.10100
C 	C 	0.04435 0.23710 0.85417 0.08200
C 	C 	0.98783 0.27122 0.86161 -0.05400
C 	C 	0.94805 0.29874 0.84088 -0.09200
C 	C 	0.97539 0.30702 0.81332 0.06700
C 	C 	0.94039 0.34633 0.79126 -0.19300
H 	H 	0.04520 0.26817 0.78418 0.02300
H 	H 	0.97050 0.26998 0.88316 0.02400
H 	H 	0.97756 0.36284 0.77262 0.06000
H 	H 	0.93480 0.40561 0.79948 0.07800
H 	H 	0.88196 0.30119 0.78471 0.06300
H 	H 	0.54131 0.20283 0.80199 0.02600
C 	C 	0.75710 0.63362 0.79367 -0.04600
C 	C 	0.79616 0.60638 0.81472 -0.09300
C 	C 	0.87526 0.65364 0.82120 0.08000
C 	C 	0.91256 0.73026 0.80771 -0.04100
C 	C 	0.87257 0.75954 0.78757 -0.09900
C 	C 	0.79475 0.71003 0.77996 0.07300
C 	C 	0.75119 0.73928 0.75780 -0.19500
H 	H 	0.69685 0.59640 0.78842 0.02500
H 	H 	0.97251 0.76798 0.81325 0.02800
C 	C 	0.91913 0.62438 0.84325 -0.20000
H 	H 	0.69009 0.69488 0.75501 0.05800
H 	H 	0.78024 0.74334 0.73747 0.07900
H 	H 	0.74970 0.80246 0.76367 0.06800
H 	H 	0.91437 0.55808 0.83874 0.08600
H 	H 	0.89495 0.62825 0.86407 0.08800
H 	H 	0.98206 0.66401 0.84399 0.06400
