data_crystal

_cell_length_a 19.66010
_cell_length_b 21.05378
_cell_length_c 49.24357
_cell_angle_alpha 60.83291
_cell_angle_beta  119.00050
_cell_angle_gamma 133.33119

_symmetry_space_group_name_	'P 1'
_symmetry_space_group_name_H-M	'P 1'

loop_
_symmetry_equiv_pos_as_xyz
  x,y,z

loop_
_atom_site_label
_atom_site_type_symbol
_atom_site_fract_x
_atom_site_fract_y
_atom_site_fract_z
_atom_site_charge
C 	C 	0.73322 0.34383 0.98670 0.12200
N 	N 	0.79300 0.42220 0.99587 -0.14100
C 	C 	0.75526 0.45743 0.99585 0.12500
N 	N 	0.65917 0.41548 0.98629 -0.14100
C 	C 	0.59959 0.33893 0.97646 0.12500
N 	N 	0.63767 0.30636 0.97490 -0.14200
C 	C 	0.72994 0.30850 0.49645 0.12100
N 	N 	0.77495 0.39750 0.49176 -0.14200
C 	C 	0.73165 0.42434 0.49372 0.12300
N 	N 	0.64045 0.36304 0.49748 -0.14100
C 	C 	0.59668 0.27414 0.50352 0.12300
N 	N 	0.64129 0.24671 0.50284 -0.14400
C 	C 	0.31942 0.66533 0.14109 0.12000
N 	N 	0.25211 0.58970 0.12969 -0.14200
C 	C 	0.27777 0.54051 0.13252 0.12400
N 	N 	0.36885 0.56605 0.14706 -0.14000
C 	C 	0.43822 0.64873 0.15277 0.12300
N 	N 	0.41252 0.69375 0.15323 -0.14100
C 	C 	0.27127 0.58591 0.65357 0.11900
N 	N 	0.20452 0.50443 0.64587 -0.14200
C 	C 	0.23388 0.45920 0.64776 0.12200
N 	N 	0.32898 0.49613 0.65688 -0.13900
C 	C 	0.39461 0.58274 0.65898 0.12200
N 	N 	0.36647 0.62256 0.66165 -0.14100
Co	Co	0.01001 0.11077 0.05328 1.18200
Co	Co	0.10183 0.06857 0.02747 1.17500
C 	C 	0.93989 0.77015 0.03165 0.30200
Co	Co	0.13763 0.93532 0.02928 1.17700
C 	C 	0.29527 0.11748 0.03434 0.30200
O 	O 	0.00619 0.07874 0.14053 -0.39300
C 	C 	0.02012 0.01667 0.16055 0.29400
O 	O 	0.98379 0.85520 0.11218 -0.46900
O 	O 	0.08678 0.16125 0.02235 -0.47000
C 	C 	0.06193 0.23655 0.08292 0.31300
C 	C 	0.77572 0.85360 0.11605 0.32600
C 	C 	0.17287 0.85391 0.09893 0.31800
O 	O 	0.03477 0.97858 0.15068 -0.36900
O 	O 	0.13816 0.83847 0.07086 -0.40800
O 	O 	0.15431 0.89585 0.10409 -0.39800
O 	O 	0.96905 0.18843 0.07698 -0.41200
O 	O 	0.10093 0.21446 0.07666 -0.39500
O 	O 	0.81762 0.92274 0.12607 -0.40900
O 	O 	0.81936 0.85336 0.10275 -0.39700
O 	O 	0.08167 0.96592 0.04378 -0.75100
O 	O 	0.99760 0.83924 0.01235 -0.39300
O 	O 	0.93721 0.77872 0.05638 -0.38200
O 	O 	0.26944 0.03557 0.04945 -0.40100
O 	O 	0.25182 0.14521 0.03475 -0.39100
Co	Co	0.99034 0.05820 0.56241 1.17600
Co	Co	0.10236 0.01907 0.54559 1.17500
C 	C 	0.91889 0.72741 0.53671 0.30300
Co	Co	0.12548 0.87925 0.54479 1.17100
C 	C 	0.29166 0.04682 0.56570 0.28300
O 	O 	0.82853 0.92590 0.63246 -0.40700
C 	C 	0.90868 0.93426 0.65165 0.30500
O 	O 	0.93413 0.79570 0.61601 -0.47200
O 	O 	0.10403 0.11672 0.54607 -0.47100
C 	C 	0.01136 0.14442 0.60287 0.30200
C 	C 	0.68952 0.78858 0.59513 0.31000
C 	C 	0.12471 0.77532 0.61228 0.31000
O 	O 	0.95528 0.92363 0.64355 -0.39600
O 	O 	0.09971 0.76886 0.58341 -0.40900
O 	O 	0.10823 0.81964 0.61711 -0.39400
O 	O 	0.92126 0.11530 0.58841 -0.42000
O 	O 	0.05193 0.11994 0.59863 -0.40600
O 	O 	0.69366 0.85979 0.57481 -0.38900
O 	O 	0.75296 0.77731 0.59989 -0.38600
O 	O 	0.06455 0.91148 0.55640 -0.75300
O 	O 	0.98615 0.79915 0.52090 -0.39200
O 	O 	0.90658 0.73004 0.56057 -0.38400
O 	O 	0.25705 0.96246 0.57174 -0.37800
O 	O 	0.24555 0.06754 0.56865 -0.39600
C 	C 	0.04379 0.02647 0.75314 -0.05000
C 	C 	0.04839 0.03687 0.78027 -0.05400
C 	C 	0.99641 0.06464 0.82287 -0.06400
C 	C 	0.00351 0.07528 0.85044 -0.02200
C 	C 	0.94976 0.94860 0.70934 0.04000
C 	C 	0.93612 0.94138 0.68380 -0.09600
H 	H 	0.10437 0.07664 0.74206 0.04200
H 	H 	0.11331 0.09387 0.79021 0.04100
H 	H 	0.82440 0.85082 0.79181 0.04200
H 	H 	0.81657 0.83275 0.74420 0.04200
H 	H 	0.00947 0.11888 0.80137 0.04300
H 	H 	0.02405 0.13833 0.85008 0.03700
H 	H 	0.95035 0.87128 0.90034 0.03700
H 	H 	0.93771 0.85237 0.85202 0.04500
C 	C 	0.03795 0.98992 0.25154 0.01700
C 	C 	0.11635 0.00417 0.27815 -0.06000
C 	C 	0.11892 0.00966 0.30606 -0.03000
C 	C 	0.04316 0.00129 0.30753 -0.01600
C 	C 	0.04663 0.00939 0.33681 -0.00000
C 	C 	0.12487 0.08676 0.34870 -0.04500
C 	C 	0.12889 0.09342 0.37659 -0.02900
C 	C 	0.04032 0.99646 0.22107 0.06500
C 	C 	0.03445 0.00176 0.19438 -0.12500
H 	H 	0.17609 0.01276 0.27709 0.04200
H 	H 	0.17992 0.02093 0.32638 0.03500
H 	H 	0.18299 0.14134 0.33658 0.04000
H 	H 	0.19122 0.15205 0.38606 0.03700
C 	C 	0.09852 0.29793 0.64960 -0.07500
C 	C 	0.16652 0.38132 0.63341 -0.03400
C 	C 	0.18364 0.38587 0.60749 0.08000
C 	C 	0.14243 0.30614 0.60112 -0.03200
C 	C 	0.07267 0.22246 0.61674 -0.10200
C 	C 	0.04778 0.21888 0.64052 0.11700
N 	N 	0.97490 0.14052 0.65437 -0.20300
H 	H 	0.08476 0.29428 0.66932 0.05200
H 	H 	0.15832 0.30999 0.58190 0.04400
N 	N 	0.23601 0.46650 0.58783 -0.19500
H 	H 	0.96220 0.13730 0.67346 0.08300
H 	H 	0.92652 0.08400 0.64518 0.08500
H 	H 	0.25250 0.52469 0.58844 0.08900
H 	H 	0.25414 0.47042 0.57005 0.08600
C 	C 	0.62823 0.68691 0.64424 -0.02700
C 	C 	0.60870 0.71790 0.61074 -0.11300
C 	C 	0.51782 0.70094 0.59386 0.12600
C 	C 	0.45652 0.67095 0.61063 -0.07900
C 	C 	0.47504 0.63985 0.64401 -0.03200
C 	C 	0.56138 0.64693 0.66109 0.07900
N 	N 	0.58201 0.61862 0.69355 -0.19500
H 	H 	0.69766 0.69884 0.65734 0.04600
H 	H 	0.39050 0.66573 0.59752 0.04800
N 	N 	0.48887 0.71237 0.56156 -0.20200
H 	H 	0.64552 0.62328 0.70598 0.08600
H 	H 	0.53632 0.59353 0.70677 0.09100
H 	H 	0.52892 0.72532 0.54898 0.10300
H 	H 	0.42303 0.70320 0.54897 0.08600
C 	C 	0.15596 0.59531 0.65758 -0.07500
C 	C 	0.24107 0.63942 0.64939 -0.03200
C 	C 	0.29855 0.73500 0.63846 0.08100
C 	C 	0.27123 0.78278 0.63754 -0.03200
C 	C 	0.17681 0.73765 0.63821 -0.10500
C 	C 	0.12337 0.64399 0.65201 0.11900
N 	N 	0.03888 0.60008 0.65863 -0.20300
H 	H 	0.11400 0.52316 0.66756 0.05400
H 	H 	0.31576 0.85563 0.62955 0.05100
N 	N 	0.37213 0.77975 0.62525 -0.19400
H 	H 	0.99721 0.53028 0.66763 0.08300
H 	H 	0.01506 0.63545 0.65546 0.09200
H 	H 	0.37355 0.74745 0.61506 0.09100
H 	H 	0.42093 0.84986 0.62100 0.08600
C 	C 	0.14131 0.38394 0.13057 -0.07400
C 	C 	0.21220 0.46791 0.11604 -0.03300
C 	C 	0.23552 0.47596 0.09090 0.08200
C 	C 	0.19262 0.39817 0.08266 -0.02900
C 	C 	0.12088 0.31348 0.09714 -0.10100
C 	C 	0.09406 0.30682 0.12125 0.11800
N 	N 	0.02563 0.22644 0.13634 -0.19300
H 	H 	0.12399 0.37798 0.14991 0.05200
H 	H 	0.21122 0.40439 0.06362 0.04700
N 	N 	0.29739 0.55831 0.07419 -0.19400
H 	H 	0.02854 0.21709 0.15967 0.08300
H 	H 	0.96057 0.18060 0.12356 0.05700
H 	H 	0.32098 0.61711 0.07712 0.09000
H 	H 	0.31847 0.56403 0.05682 0.08600
C 	C 	0.67399 0.72152 0.15252 -0.02200
C 	C 	0.68069 0.77503 0.12119 -0.11800
C 	C 	0.60179 0.77657 0.09976 0.12500
C 	C 	0.52949 0.74529 0.11166 -0.07700
C 	C 	0.52776 0.70059 0.14396 -0.03200
C 	C 	0.59913 0.68597 0.16445 0.07900
N 	N 	0.59789 0.64066 0.19568 -0.19500
H 	H 	0.73280 0.71639 0.16865 0.04200
H 	H 	0.47140 0.75135 0.09541 0.04800
N 	N 	0.59807 0.81267 0.06791 -0.20400
H 	H 	0.64993 0.62871 0.21049 0.08600
H 	H 	0.54684 0.61881 0.20573 0.09100
H 	H 	0.64955 0.83304 0.05845 0.10300
H 	H 	0.54155 0.81767 0.05214 0.08800
C 	C 	0.21123 0.67906 0.14702 -0.07500
C 	C 	0.29318 0.72091 0.13749 -0.03100
C 	C 	0.34941 0.81574 0.12481 0.08100
C 	C 	0.32123 0.86509 0.12189 -0.03000
C 	C 	0.22887 0.82028 0.12445 -0.10800
C 	C 	0.17895 0.72845 0.14075 0.12200
N 	N 	0.09739 0.68650 0.14886 -0.20400
H 	H 	0.17100 0.60769 0.15843 0.05400
H 	H 	0.36313 0.93718 0.11167 0.05100
N 	N 	0.42415 0.85820 0.11260 -0.19400
H 	H 	0.05803 0.61762 0.15969 0.08600
H 	H 	0.07400 0.72268 0.14523 0.09400
H 	H 	0.43039 0.82283 0.10585 0.09200
H 	H 	0.47059 0.92849 0.10632 0.08700
C 	C 	0.73290 0.22443 0.47566 -0.07800
C 	C 	0.77900 0.27822 0.49642 -0.03300
C 	C 	0.86706 0.29530 0.51877 0.07900
C 	C 	0.90366 0.25451 0.52058 -0.03100
C 	C 	0.84708 0.18711 0.50442 -0.11200
C 	C 	0.76648 0.17871 0.47948 0.12500
N 	N 	0.72000 0.12531 0.45966 -0.20300
H 	H 	0.66845 0.21502 0.45743 0.05400
N 	N 	0.91314 0.34530 0.53987 -0.19500
H 	H 	0.65831 0.11663 0.44189 0.08400
H 	H 	0.74670 0.09439 0.46110 0.09500
H 	H 	0.88095 0.36448 0.54288 0.09100
C 	C 	0.80111 0.63729 0.49662 -0.02700
C 	C 	0.85776 0.64210 0.52799 -0.10500
C 	C 	0.87706 0.57739 0.54698 0.11900
C 	C 	0.84872 0.51577 0.53315 -0.07400
C 	C 	0.79060 0.50971 0.50204 -0.03400
C 	C 	0.76846 0.57243 0.48329 0.08100
N 	N 	0.71739 0.57164 0.45233 -0.19500
H 	H 	0.78700 0.68741 0.48192 0.04700
H 	H 	0.86409 0.46652 0.54773 0.05100
N 	N 	0.92119 0.57310 0.57863 -0.20200
H 	H 	0.69885 0.61650 0.43883 0.08600
H 	H 	0.69834 0.52851 0.44112 0.09000
H 	H 	0.92906 0.60756 0.59077 0.10100
C 	C 	0.52411 0.15883 0.54959 -0.07600
C 	C 	0.51366 0.20932 0.51803 -0.03500
C 	C 	0.43417 0.21338 0.50378 0.08300
C 	C 	0.37029 0.17164 0.52204 -0.03000
C 	C 	0.37833 0.11791 0.55304 -0.10800
C 	C 	0.45872 0.11525 0.56752 0.11800
N 	N 	0.47417 0.07217 0.59880 -0.20300
H 	H 	0.58642 0.15771 0.56084 0.05200
H 	H 	0.30913 0.17439 0.51105 0.04200
N 	N 	0.41712 0.25458 0.47232 -0.19400
H 	H 	0.53124 0.06691 0.60905 0.07900
H 	H 	0.43205 0.04672 0.61350 0.09200
H 	H 	0.45744 0.27800 0.45735 0.09000
H 	H 	0.36001 0.25975 0.46216 0.08800
C 	C 	0.77563 0.16503 0.03948 -0.02100
C 	C 	0.79385 0.15440 0.01820 -0.10900
C 	C 	0.79336 0.20799 0.98632 0.12500
C 	C 	0.78273 0.27599 0.97732 -0.07700
C 	C 	0.76475 0.28626 0.99876 -0.02800
C 	C 	0.76007 0.22934 0.03005 0.07400
N 	N 	0.73901 0.23494 0.05106 -0.19400
H 	H 	0.77474 0.12366 0.06380 0.01600
H 	H 	0.78281 0.31738 0.95301 0.05400
N 	N 	0.79636 0.19081 0.96380 -0.20200
H 	H 	0.73759 0.19373 0.07429 0.07700
H 	H 	0.72200 0.27854 0.04454 0.09100
H 	H 	0.78589 0.13131 0.96798 0.09700
H 	H 	0.80181 0.23384 0.94089 0.08700
C 	C 	0.80912 0.61161 0.98263 -0.07500
C 	C 	0.81712 0.54211 0.00522 -0.03400
C 	C 	0.85670 0.54371 0.03802 0.08100
C 	C 	0.88431 0.61331 0.04741 -0.03000
C 	C 	0.87477 0.68183 0.02460 -0.10600
C 	C 	0.82898 0.67607 0.99241 0.12600
N 	N 	0.80481 0.73315 0.97078 -0.20100
H 	H 	0.77765 0.60991 0.95759 0.05400
H 	H 	0.91953 0.61751 0.07217 0.04800
N 	N 	0.86957 0.47966 0.06048 -0.19600
H 	H 	0.77526 0.73180 0.94663 0.08800
H 	H 	0.81138 0.77660 0.97802 0.09900
H 	H 	0.85796 0.43187 0.05410 0.09400
H 	H 	0.89534 0.47942 0.08472 0.08500
C 	C 	0.45168 0.18609 0.98732 -0.07300
C 	C 	0.49723 0.27888 0.97713 -0.03500
C 	C 	0.45475 0.31289 0.97676 0.08300
C 	C 	0.38614 0.25888 0.99480 -0.02900
C 	C 	0.35227 0.16873 0.01012 -0.10400
C 	C 	0.37877 0.13005 0.00344 0.11500
N 	N 	0.33379 0.03976 0.01189 -0.19700
H 	H 	0.47614 0.15759 0.98415 0.05600
H 	H 	0.36020 0.28733 0.99713 0.05000
N 	N 	0.47861 0.39635 0.95883 -0.19400
H 	H 	0.36796 0.01486 0.01415 0.07600
H 	H 	0.26029 0.99449 0.01066 0.04000
H 	H 	0.52128 0.43342 0.94264 0.09200
H 	H 	0.45036 0.42286 0.95968 0.08700
Co	Co	0.03280 0.89274 0.07531 1.18800
Co	Co	0.96520 0.94571 0.10576 1.18700
Co	Co	0.89471 0.05424 0.10010 1.16600
O 	O 	0.95783 0.03340 0.08442 -0.76400
O 	O 	0.00338 0.99318 0.05980 -0.57900
C 	C 	0.07092 0.03439 0.96842 0.31600
O 	O 	0.14261 0.02834 0.98555 -0.41100
O 	O 	0.03955 0.05193 0.98053 -0.38900
C 	C 	0.82133 0.09252 0.03090 0.29600
O 	O 	0.79521 0.02869 0.05710 -0.39800
O 	O 	0.89329 0.11834 0.02213 -0.37700
Co	Co	0.99990 0.83457 0.58388 1.18500
Co	Co	0.89927 0.87968 0.60280 1.18100
Co	Co	0.80879 0.98475 0.58323 1.17300
O 	O 	0.89440 0.96762 0.57785 -0.75100
O 	O 	0.97007 0.93728 0.56362 -0.57000
C 	C 	0.10299 0.01058 0.48589 0.29300
O 	O 	0.16114 0.98761 0.50535 -0.38800
O 	O 	0.07615 0.03591 0.49651 -0.38500
C 	C 	0.85172 0.10980 0.52067 0.30800
O 	O 	0.78216 0.03410 0.53423 -0.39600
O 	O 	0.92656 0.11794 0.52242 -0.38800
C 	C 	0.96031 0.95281 0.73998 0.01300
C 	C 	0.96915 0.97395 0.79437 0.01800
C 	C 	0.88611 0.89978 0.78132 -0.04000
C 	C 	0.88184 0.88927 0.75434 -0.03500
C 	C 	0.97375 0.98459 0.82328 0.03000
C 	C 	0.98768 0.00596 0.87863 -0.02700
C 	C 	0.96206 0.92505 0.87870 -0.00600
C 	C 	0.95535 0.91445 0.85127 -0.05400
C 	C 	0.01336 0.02269 0.90882 0.04600
C 	C 	0.03412 0.03007 0.93526 -0.11100
C 	C 	0.96413 0.98551 0.28102 -0.01600
C 	C 	0.96156 0.97978 0.25326 -0.04600
C 	C 	0.05468 0.02303 0.39285 -0.02300
C 	C 	0.97500 0.94706 0.38040 -0.01500
C 	C 	0.97100 0.94017 0.35258 -0.03200
C 	C 	0.06875 0.02121 0.42509 0.04100
C 	C 	0.08058 0.01978 0.45198 -0.10500
H 	H 	0.90536 0.97911 0.28170 0.03800
H 	H 	0.90103 0.96950 0.23280 0.04500
H 	H 	0.91769 0.89184 0.39285 0.03900
H 	H 	0.91002 0.88027 0.34370 0.04100
H 	H 	0.97003 0.26622 0.53791 0.04600
H 	H 	0.97996 0.36054 0.55515 0.08800
H 	H 	0.94213 0.53002 0.59193 0.08800
