data_crystal

_cell_length_a 19.53898
_cell_length_b 19.72868
_cell_length_c 19.33692
_cell_angle_alpha 89.99972
_cell_angle_beta  90.00067
_cell_angle_gamma 98.46593

_symmetry_space_group_name_	'P 1'
_symmetry_space_group_name_H-M	'P 1'

loop_
_symmetry_equiv_pos_as_xyz
  x,y,z

loop_
_atom_site_label
_atom_site_type_symbol
_atom_site_fract_x
_atom_site_fract_y
_atom_site_fract_z
_atom_site_charge
Co	Co	0.27107 0.60859 0.97572 1.18600
O 	O 	0.19833 0.54609 0.91573 -0.35900
Co	Co	0.39768 0.73316 0.01935 1.19200
O 	O 	0.30613 0.70544 0.94210 -0.45500
O 	O 	0.43566 0.64472 0.02109 -0.39400
O 	O 	0.16302 0.61624 0.98518 -0.33200
C 	C 	0.41833 0.59166 0.97931 0.32700
O 	O 	0.40781 0.75053 0.91004 -0.35400
C 	C 	0.43645 0.84963 0.07936 0.29100
C 	C 	0.31067 0.63035 0.10759 0.30900
O 	O 	0.46866 0.79705 0.08020 -0.35500
O 	O 	0.38099 0.83654 0.04245 -0.32100
O 	O 	0.27949 0.57407 0.08026 -0.33800
O 	O 	0.31216 0.68198 0.06626 -0.44600
O 	O 	0.36073 0.58420 0.94196 -0.53000
C 	C 	0.14470 0.56882 0.94008 0.29500
C 	C 	0.34654 0.72297 0.89007 0.32200
H 	H 	0.35809 0.55506 0.89859 0.18000
Co	Co	0.27866 0.60346 0.47789 1.18800
O 	O 	0.20805 0.53854 0.41797 -0.36400
Co	Co	0.40436 0.73053 0.51887 1.18900
O 	O 	0.31475 0.69838 0.44039 -0.45700
O 	O 	0.44571 0.64421 0.52340 -0.40500
O 	O 	0.17057 0.61280 0.48083 -0.33200
C 	C 	0.42407 0.58595 0.49055 0.34700
O 	O 	0.41647 0.74399 0.40919 -0.33800
C 	C 	0.44351 0.84953 0.57332 0.29000
C 	C 	0.31571 0.63077 0.61006 0.30700
O 	O 	0.47493 0.79671 0.57748 -0.35100
O 	O 	0.38755 0.83486 0.53734 -0.32700
O 	O 	0.28405 0.57379 0.58443 -0.34200
O 	O 	0.31808 0.68049 0.56608 -0.45500
O 	O 	0.36977 0.57946 0.44891 -0.53000
C 	C 	0.15392 0.56432 0.43638 0.29400
C 	C 	0.35671 0.71310 0.38903 0.31900
H 	H 	0.37046 0.55179 0.40478 0.18700
Co	Co	0.74493 0.36920 0.97830 1.18400
O 	O 	0.81733 0.43309 0.91927 -0.36100
Co	Co	0.61933 0.24284 0.01887 1.19100
O 	O 	0.71232 0.27224 0.94365 -0.45700
O 	O 	0.57958 0.33028 0.02000 -0.39000
O 	O 	0.85339 0.36365 0.98912 -0.33700
C 	C 	0.59739 0.38397 0.97923 0.32900
O 	O 	0.61175 0.22616 0.90918 -0.35100
C 	C 	0.58054 0.12603 0.07822 0.29000
C 	C 	0.70380 0.34527 0.11027 0.30800
O 	O 	0.54793 0.17831 0.07855 -0.35300
O 	O 	0.63645 0.13949 0.04200 -0.32000
O 	O 	0.73404 0.40219 0.08316 -0.33800
O 	O 	0.70352 0.29462 0.06771 -0.44800
O 	O 	0.65537 0.39190 0.94267 -0.53100
C 	C 	0.87121 0.41123 0.94402 0.29600
C 	C 	0.67328 0.25445 0.89071 0.32200
H 	H 	0.65820 0.42073 0.89908 0.18000
Co	Co	0.75447 0.36855 0.47867 1.18800
O 	O 	0.82613 0.43250 0.41865 -0.36200
Co	Co	0.63077 0.23945 0.51952 1.18800
O 	O 	0.72209 0.27178 0.44312 -0.45100
O 	O 	0.58543 0.32351 0.51844 -0.40600
O 	O 	0.86281 0.36161 0.48637 -0.32800
C 	C 	0.60809 0.38258 0.48733 0.34100
O 	O 	0.62243 0.22211 0.41008 -0.35000
C 	C 	0.59617 0.12144 0.57763 0.29500
C 	C 	0.71360 0.34394 0.61037 0.30700
O 	O 	0.56098 0.17180 0.57760 -0.35200
O 	O 	0.65306 0.13826 0.54363 -0.33200
O 	O 	0.74509 0.40077 0.58422 -0.34000
O 	O 	0.71407 0.29347 0.56786 -0.45500
O 	O 	0.66320 0.38973 0.44670 -0.53000
C 	C 	0.88012 0.40821 0.44020 0.29500
C 	C 	0.68244 0.25340 0.39066 0.32200
H 	H 	0.66330 0.41817 0.40302 0.18400
C 	C 	0.70914 0.33255 0.68538 -0.08100
C 	C 	0.65019 0.34497 0.72238 0.05800
C 	C 	0.63887 0.31919 0.78943 -0.01500
C 	C 	0.68792 0.28453 0.82167 -0.10400
C 	C 	0.74946 0.27665 0.78647 0.06700
C 	C 	0.75941 0.30014 0.71838 -0.01800
H 	H 	0.59210 0.32664 0.81674 0.05800
H 	H 	0.80532 0.29131 0.69036 0.06600
I 	I 	0.57864 0.40444 0.67956 -0.07900
I 	I 	0.82635 0.22560 0.83276 -0.07400
C 	C 	0.70429 0.33389 0.18524 -0.07900
C 	C 	0.64726 0.34474 0.22596 0.05800
C 	C 	0.64128 0.31961 0.29369 -0.01600
C 	C 	0.69327 0.28613 0.32232 -0.10500
C 	C 	0.75246 0.27914 0.28288 0.06700
C 	C 	0.75768 0.30312 0.21469 -0.01800
H 	H 	0.59587 0.32565 0.32394 0.05500
H 	H 	0.80201 0.29530 0.18360 0.06800
I 	I 	0.56948 0.39895 0.18666 -0.08000
I 	I 	0.83156 0.22665 0.32220 -0.06300
C 	C 	0.56142 0.05011 0.57979 -0.07000
C 	C 	0.51756 0.02632 0.63527 0.07400
C 	C 	0.47786 0.96118 0.63189 -0.02600
C 	C 	0.48244 0.91909 0.57416 -0.06400
C 	C 	0.52796 0.94219 0.51969 0.06600
C 	C 	0.56698 0.00732 0.52282 -0.01500
H 	H 	0.44425 0.94291 0.67462 0.06100
H 	H 	0.60050 0.02538 0.47994 0.06900
I 	I 	0.51364 0.08571 0.72655 -0.06200
I 	I 	0.53892 0.88052 0.43146 -0.07000
C 	C 	0.95061 0.44737 0.43590 -0.06700
C 	C 	0.00971 0.41418 0.44129 0.06700
C 	C 	0.07571 0.45296 0.44149 -0.02000
C 	C 	0.08396 0.52443 0.43385 -0.06900
C 	C 	0.02527 0.55718 0.42436 0.06800
C 	C 	0.95906 0.51878 0.42649 -0.02100
H 	H 	0.12075 0.42732 0.44745 0.06800
H 	H 	0.91413 0.54458 0.42071 0.07000
I 	I 	0.00216 0.30556 0.44365 -0.05000
I 	I 	0.03493 0.66356 0.40150 -0.06000
C 	C 	0.47062 0.53336 0.48912 -0.09300
C 	C 	0.44434 0.46286 0.49076 0.06800
C 	C 	0.48975 0.41465 0.48568 -0.01200
C 	C 	0.56169 0.43542 0.48616 -0.09400
C 	C 	0.58802 0.50594 0.48996 0.06900
C 	C 	0.54248 0.55423 0.48827 -0.01000
H 	H 	0.46905 0.36061 0.48410 0.06400
H 	H 	0.56308 0.60832 0.48837 0.06700
I 	I 	0.33806 0.42683 0.51054 -0.10000
I 	I 	0.69481 0.54193 0.50697 -0.10000
C 	C 	0.47291 0.92031 0.08941 -0.06500
C 	C 	0.43600 0.97646 0.09437 0.06600
C 	C 	0.47168 0.04335 0.09142 -0.02000
C 	C 	0.54436 0.05523 0.08836 -0.06100
C 	C 	0.58138 0.99912 0.09350 0.06300
C 	C 	0.54563 0.93217 0.09160 -0.02100
H 	H 	0.44273 0.08614 0.09208 0.07300
H 	H 	0.57455 0.88935 0.09233 0.07200
I 	I 	0.32794 0.96283 0.11528 -0.04800
I 	I 	0.68961 0.01294 0.11350 -0.04100
C 	C 	0.07514 0.52766 0.94070 -0.06800
C 	C 	0.06578 0.45534 0.94668 0.07000
C 	C 	0.99893 0.41837 0.94469 -0.02100
C 	C 	0.94083 0.45240 0.94340 -0.07100
C 	C 	0.95022 0.52498 0.94402 0.07200
C 	C 	0.01705 0.56169 0.93935 -0.02400
H 	H 	0.99208 0.36288 0.94680 0.06700
H 	H 	0.02393 0.61720 0.93761 0.06700
I 	I 	0.14904 0.40042 0.96990 -0.07700
I 	I 	0.86734 0.58150 0.96363 -0.07500
C 	C 	0.46465 0.53890 0.97469 -0.09500
C 	C 	0.53716 0.55724 0.97140 0.07300
C 	C 	0.57978 0.50627 0.97483 -0.02200
C 	C 	0.55106 0.43672 0.97466 -0.09400
C 	C 	0.47857 0.41840 0.97069 0.07400
C 	C 	0.43592 0.46935 0.97413 -0.02200
H 	H 	0.63546 0.52076 0.97606 0.05200
H 	H 	0.38022 0.45486 0.97480 0.05200
I 	I 	0.58389 0.65975 0.95154 -0.09000
I 	I 	0.43201 0.31606 0.94969 -0.08600
C 	C 	0.33394 0.69204 0.82122 -0.10600
C 	C 	0.27409 0.70049 0.78342 0.06700
C 	C 	0.26678 0.67700 0.71515 -0.01900
C 	C 	0.31783 0.64370 0.68474 -0.08200
C 	C 	0.37480 0.63049 0.72435 0.05700
C 	C 	0.38376 0.65661 0.79144 -0.01600
H 	H 	0.22223 0.68622 0.68511 0.06500
H 	H 	0.42927 0.64883 0.82072 0.05700
I 	I 	0.19580 0.75202 0.82626 -0.07700
I 	I 	0.44672 0.56918 0.68547 -0.07900
C 	C 	0.31956 0.63934 0.18231 -0.08300
C 	C 	0.26427 0.65256 0.22437 0.07300
C 	C 	0.27680 0.67359 0.29285 -0.02400
C 	C 	0.34419 0.68182 0.31993 -0.10200
C 	C 	0.39866 0.66291 0.27914 0.07500
C 	C 	0.38595 0.64303 0.21040 -0.03100
H 	H 	0.23436 0.68558 0.32445 0.05700
H 	H 	0.42814 0.63105 0.17841 0.05800
I 	I 	0.16154 0.64269 0.18556 -0.05000
I 	I 	0.49878 0.65636 0.31994 -0.07900
