data_crystal

_cell_length_a 22.84966
_cell_length_b 21.18369
_cell_length_c 53.69289
_cell_angle_alpha 89.95175
_cell_angle_beta  89.95322
_cell_angle_gamma 119.40210

_symmetry_space_group_name_	'P 1'
_symmetry_space_group_name_H-M	'P 1'

loop_
_symmetry_equiv_pos_as_xyz
  x,y,z

loop_
_atom_site_label
_atom_site_type_symbol
_atom_site_fract_x
_atom_site_fract_y
_atom_site_fract_z
_atom_site_charge
C 	C 	0.58343 0.28252 0.88736 0.34000
C 	C 	0.81898 0.54163 0.92436 0.36900
C 	C 	0.76648 0.36318 0.86885 0.36300
C 	C 	0.63986 0.45862 0.94638 0.35600
C 	C 	0.82718 0.34969 0.94397 0.35300
C 	C 	0.64370 0.24880 0.96477 0.33200
Ni	Ni	0.69898 0.43004 0.89844 1.12100
Ni	Ni	0.73861 0.40839 0.95431 1.12600
Ni	Ni	0.70159 0.28381 0.91438 1.12800
O 	O 	0.60190 0.35212 0.88996 -0.34100
O 	O 	0.62852 0.25939 0.88757 -0.34500
O 	O 	0.82390 0.40953 0.94541 -0.38500
O 	O 	0.79963 0.50143 0.90440 -0.36700
O 	O 	0.78650 0.51612 0.94542 -0.37500
O 	O 	0.63407 0.22878 0.94098 -0.37600
O 	O 	0.72565 0.39008 0.86733 -0.33800
O 	O 	0.77690 0.34097 0.89020 -0.37700
O 	O 	0.69748 0.31021 0.97210 -0.38000
O 	O 	0.66935 0.48431 0.92431 -0.36500
O 	O 	0.65798 0.42034 0.96102 -0.38400
O 	O 	0.77373 0.28831 0.93764 -0.37500
O 	O 	0.69576 0.36690 0.92362 -0.72000
H 	H 	0.64813 0.34372 0.92856 0.17500
C 	C 	0.79245 0.41459 0.55278 0.33100
C 	C 	0.55196 0.15101 0.58241 0.35600
C 	C 	0.60801 0.36025 0.54337 0.35000
C 	C 	0.73280 0.20809 0.59607 0.34200
C 	C 	0.57061 0.33870 0.62217 0.37000
C 	C 	0.75475 0.41177 0.63593 0.33900
Ni	Ni	0.67024 0.26900 0.55838 1.11700
Ni	Ni	0.64684 0.26218 0.61809 1.12900
Ni	Ni	0.68831 0.40903 0.58890 1.12700
O 	O 	0.76787 0.34400 0.54938 -0.36500
O 	O 	0.75245 0.44162 0.55879 -0.37300
O 	O 	0.56610 0.27546 0.61822 -0.37000
O 	O 	0.56996 0.20392 0.56655 -0.37900
O 	O 	0.58695 0.16164 0.60296 -0.36700
O 	O 	0.76314 0.44131 0.61348 -0.37500
O 	O 	0.64319 0.33047 0.53526 -0.36900
O 	O 	0.60616 0.37212 0.56716 -0.37600
O 	O 	0.70110 0.34780 0.64162 -0.33500
O 	O 	0.69727 0.19619 0.57508 -0.36200
O 	O 	0.72046 0.23609 0.61623 -0.36200
O 	O 	0.62689 0.39896 0.61760 -0.36600
O 	O 	0.68532 0.31800 0.58881 -0.71800
H 	H 	0.73307 0.33344 0.59160 0.17200
C 	C 	0.97640 0.86687 0.72993 0.32600
C 	C 	0.15686 0.10963 0.79362 0.35500
C 	C 	0.97610 0.90157 0.79940 0.34400
C 	C 	0.17182 0.11097 0.72666 0.35300
C 	C 	0.95320 0.09574 0.78582 0.34900
C 	C 	0.95408 0.06645 0.71727 0.32800
Ni	Ni	0.08450 0.98039 0.76176 1.12600
Ni	Ni	0.06695 0.12202 0.75522 1.13800
Ni	Ni	0.93657 0.96563 0.75828 1.12500
O 	O 	0.04219 0.91083 0.73184 -0.31100
O 	O 	0.93288 0.87251 0.74513 -0.34700
O 	O 	0.01774 0.11816 0.78643 -0.34800
O 	O 	0.11512 0.04011 0.79412 -0.37100
O 	O 	0.15153 0.15067 0.77625 -0.32900
O 	O 	0.92351 0.99714 0.72431 -0.36700
O 	O 	0.01542 0.89424 0.78324 -0.31400
O 	O 	0.94698 0.94004 0.79388 -0.36800
O 	O 	0.99343 0.11978 0.73286 -0.31700
O 	O 	0.16870 0.05942 0.74193 -0.31600
O 	O 	0.12375 0.12867 0.72564 -0.36700
O 	O 	0.91265 0.03875 0.77245 -0.35700
O 	O 	0.03093 0.02047 0.75263 -0.71700
H 	H 	0.03191 0.01549 0.73442 0.16900
C 	C 	0.25025 0.77605 0.41422 0.34400
C 	C 	0.37529 0.61993 0.46456 0.37200
C 	C 	0.42810 0.84035 0.43439 0.35700
C 	C 	0.19359 0.55620 0.44856 0.34800
C 	C 	0.43752 0.67788 0.38756 0.37000
C 	C 	0.25585 0.59677 0.36764 0.33800
Ni	Ni	0.30858 0.70808 0.45099 1.11800
Ni	Ni	0.31239 0.58672 0.41558 1.12600
Ni	Ni	0.35030 0.74087 0.39280 1.13100
O 	O 	0.27931 0.78140 0.43635 -0.36100
O 	O 	0.27084 0.75765 0.39370 -0.35400
O 	O 	0.38385 0.61335 0.38908 -0.37200
O 	O 	0.33495 0.64331 0.47269 -0.37400
O 	O 	0.38716 0.62096 0.44070 -0.38400
O 	O 	0.30845 0.66379 0.36533 -0.33100
O 	O 	0.40925 0.78233 0.44785 -0.37700
O 	O 	0.39890 0.83535 0.41279 -0.36400
O 	O 	0.24476 0.55809 0.38831 -0.37900
O 	O 	0.21126 0.62427 0.45432 -0.36700
O 	O 	0.23970 0.53740 0.44260 -0.37800
O 	O 	0.43511 0.73569 0.39458 -0.36200
O 	O 	0.30673 0.67271 0.41882 -0.71800
H 	H 	0.25941 0.65459 0.41423 0.17300
C 	C 	0.40066 0.57469 0.07223 0.32700
C 	C 	0.21759 0.61702 0.13987 0.36100
C 	C 	0.21277 0.45285 0.08434 0.36600
C 	C 	0.40307 0.72775 0.13079 0.33900
C 	C 	0.17363 0.62108 0.06181 0.35400
C 	C 	0.36108 0.75476 0.04923 0.32800
Ni	Ni	0.31127 0.57411 0.11504 1.12400
Ni	Ni	0.28664 0.70461 0.09643 1.12500
Ni	Ni	0.28510 0.59199 0.05686 1.12600
O 	O 	0.36341 0.53808 0.09182 -0.36000
O 	O 	0.37651 0.59992 0.05463 -0.38100
O 	O 	0.21774 0.68661 0.06949 -0.37800
O 	O 	0.26451 0.59947 0.14391 -0.31300
O 	O 	0.20847 0.63464 0.11752 -0.38200
O 	O 	0.31675 0.69016 0.03997 -0.38000
O 	O 	0.21890 0.48946 0.10465 -0.35200
O 	O 	0.25124 0.48537 0.06503 -0.37000
O 	O 	0.35808 0.77205 0.07283 -0.38400
O 	O 	0.39805 0.66339 0.12710 -0.35100
O 	O 	0.35130 0.73958 0.12668 -0.33200
O 	O 	0.18993 0.56992 0.06050 -0.38200
O 	O 	0.31175 0.63378 0.08908 -0.71700
H 	H 	0.36029 0.66569 0.08646 0.16000
C 	C 	0.05400 0.10555 0.21027 0.34100
C 	C 	0.84388 0.93559 0.28490 0.36400
C 	C 	0.05439 0.14197 0.27925 0.38500
C 	C 	0.83409 0.91807 0.22068 0.34400
C 	C 	0.02837 0.92730 0.29568 0.36600
C 	C 	0.02914 0.88079 0.22795 0.36500
Ni	Ni	0.93829 0.04667 0.24799 1.11500
Ni	Ni	0.92345 0.88786 0.25692 1.14000
Ni	Ni	0.06955 0.02608 0.25296 1.13300
O 	O 	0.01738 0.12183 0.22557 -0.35800
O 	O 	0.08441 0.06940 0.21828 -0.32900
O 	O 	0.98755 0.87668 0.28012 -0.37700
O 	O 	0.85101 0.98646 0.26919 -0.36200
O 	O 	0.89100 0.91824 0.28699 -0.35500
O 	O 	0.07458 0.93714 0.24111 -0.36000
O 	O 	0.98965 0.09773 0.28003 -0.37300
O 	O 	0.09276 0.12751 0.26477 -0.34600
O 	O 	0.96401 0.85965 0.22890 -0.34300
O 	O 	0.88122 0.98659 0.21822 -0.36000
O 	O 	0.84099 0.87188 0.23596 -0.30500
O 	O 	0.05970 0.99582 0.28890 -0.33700
O 	O 	0.97580 0.98527 0.24654 -0.72300
H 	H 	0.97511 0.97687 0.22847 0.18200
C 	C 	0.07975 0.27440 0.10537 -0.13500
C 	C 	0.12099 0.24858 0.11515 0.01600
C 	C 	0.18647 0.27627 0.10581 0.29400
C 	C 	0.21434 0.33857 0.09094 -0.05200
C 	C 	0.17718 0.37369 0.08588 -0.14500
C 	C 	0.10793 0.33727 0.09080 0.38200
C 	C 	0.10365 0.21120 0.13939 0.01400
F 	F 	0.22559 0.24840 0.11363 -0.41300
H 	H 	0.26713 0.36436 0.08604 0.09800
F 	F 	0.06995 0.36769 0.08421 -0.43900
H 	H 	0.02794 0.25082 0.11139 0.12900
C 	C 	0.10814 0.25031 0.16109 0.29700
C 	C 	0.09288 0.21583 0.18422 -0.05400
C 	C 	0.07342 0.14208 0.18598 -0.12700
C 	C 	0.06996 0.10304 0.16434 0.37200
C 	C 	0.08499 0.13761 0.14109 -0.12700
F 	F 	0.12791 0.32204 0.15973 -0.41100
H 	H 	0.09641 0.24654 0.20083 0.11000
F 	F 	0.05065 0.03145 0.16577 -0.40700
H 	H 	0.08198 0.10727 0.12445 0.13500
C 	C 	0.52242 0.79114 0.18410 -0.13900
C 	C 	0.58256 0.83646 0.17163 0.02100
C 	C 	0.58062 0.85839 0.14709 0.30000
C 	C 	0.51912 0.83018 0.13450 -0.06100
C 	C 	0.45950 0.77913 0.14621 -0.12100
C 	C 	0.46115 0.76249 0.17149 0.38400
C 	C 	0.64745 0.85760 0.18387 0.01700
F 	F 	0.63844 0.90417 0.13507 -0.40900
H 	H 	0.51852 0.84369 0.11507 0.09000
F 	F 	0.40433 0.71229 0.18300 -0.38900
H 	H 	0.52343 0.77523 0.20321 0.13900
C 	C 	0.68128 0.92353 0.19669 0.30600
C 	C 	0.74132 0.94215 0.20912 -0.05400
C 	C 	0.76843 0.89520 0.20881 -0.12400
C 	C 	0.73420 0.82874 0.19618 0.38000
C 	C 	0.67389 0.81008 0.18377 -0.13600
F 	F 	0.65573 0.96940 0.19722 -0.39900
H 	H 	0.76689 0.99316 0.21904 0.10100
F 	F 	0.75994 0.78307 0.19547 -0.40900
H 	H 	0.64773 0.75877 0.17405 0.12700
C 	C 	0.19121 0.72043 0.19068 -0.13200
C 	C 	0.12174 0.69335 0.18866 0.02100
C 	C 	0.08279 0.63046 0.17465 0.29600
C 	C 	0.11407 0.59934 0.16084 -0.04900
C 	C 	0.18435 0.63094 0.16087 -0.13300
C 	C 	0.22240 0.68919 0.17695 0.37700
C 	C 	0.09141 0.73527 0.19897 0.02100
F 	F 	0.01509 0.60162 0.17348 -0.40100
H 	H 	0.08411 0.55365 0.14880 0.11200
F 	F 	0.29025 0.72005 0.17739 -0.39500
H 	H 	0.22154 0.76822 0.20180 0.14200
C 	C 	0.09353 0.74797 0.22470 0.29700
C 	C 	0.07292 0.79545 0.23407 -0.04600
C 	C 	0.04919 0.82988 0.21789 -0.13100
C 	C 	0.04472 0.81527 0.19228 0.38200
C 	C 	0.06617 0.76846 0.18284 -0.13100
F 	F 	0.11648 0.71510 0.24056 -0.39500
H 	H 	0.07553 0.80568 0.25391 0.10500
F 	F 	0.02133 0.84786 0.17649 -0.40000
H 	H 	0.06469 0.75928 0.16294 0.13400
C 	C 	0.69463 0.77002 0.31111 -0.13800
C 	C 	0.66435 0.80138 0.32538 0.02300
C 	C 	0.68940 0.87668 0.32438 0.29100
C 	C 	0.74644 0.92049 0.31012 -0.04300
C 	C 	0.77866 0.88937 0.29681 -0.14800
C 	C 	0.75120 0.81361 0.29673 0.38200
C 	C 	0.60802 0.75581 0.34203 0.01300
F 	F 	0.65908 0.90734 0.33754 -0.40700
H 	H 	0.76676 0.97870 0.31004 0.10600
F 	F 	0.77999 0.78241 0.28296 -0.44600
H 	H 	0.67494 0.71191 0.31150 0.13800
C 	C 	0.54500 0.70662 0.33213 0.30200
C 	C 	0.48938 0.67180 0.34790 -0.05600
C 	C 	0.49613 0.68758 0.37344 -0.13900
C 	C 	0.56046 0.73012 0.38359 0.37700
C 	C 	0.61623 0.76425 0.36790 -0.13300
F 	F 	0.53694 0.69590 0.30716 -0.40000
H 	H 	0.44020 0.63726 0.34001 0.13600
F 	F 	0.56809 0.74284 0.40848 -0.43100
H 	H 	0.66530 0.79991 0.37573 0.12800
C 	C 	0.16388 0.31887 0.31223 -0.14500
C 	C 	0.13421 0.36026 0.30472 0.01800
C 	C 	0.07833 0.32963 0.28881 0.30900
C 	C 	0.05148 0.25775 0.28097 -0.04500
C 	C 	0.08078 0.21618 0.28867 -0.14300
C 	C 	0.13754 0.24726 0.30413 0.38700
C 	C 	0.15913 0.43382 0.31494 0.02100
F 	F 	0.05007 0.36949 0.28096 -0.38600
H 	H 	0.00851 0.23464 0.26860 0.09400
F 	F 	0.16654 0.20778 0.31159 -0.41400
H 	H 	0.20681 0.34195 0.32462 0.12500
C 	C 	0.12030 0.44678 0.33233 0.30800
C 	C 	0.15021 0.50921 0.34703 -0.05300
C 	C 	0.21949 0.55747 0.34516 -0.12500
C 	C 	0.25544 0.55020 0.32514 0.37900
C 	C 	0.22545 0.48806 0.31023 -0.14200
F 	F 	0.05527 0.39607 0.33647 -0.39300
H 	H 	0.12120 0.51603 0.36171 0.11100
F 	F 	0.32109 0.59970 0.32162 -0.42100
H 	H 	0.25500 0.47996 0.29610 0.13300
C 	C 	0.08536 0.92644 0.36188 -0.12900
C 	C 	0.09942 0.86896 0.36092 0.01600
C 	C 	0.08731 0.82894 0.33881 0.29500
C 	C 	0.06237 0.84691 0.31782 -0.04800
C 	C 	0.05014 0.90567 0.31849 -0.13300
C 	C 	0.06111 0.94502 0.34073 0.38100
C 	C 	0.13146 0.85386 0.38237 0.01400
F 	F 	0.10185 0.77412 0.33743 -0.40300
H 	H 	0.05430 0.81633 0.30079 0.10900
F 	F 	0.04809 0.00096 0.34187 -0.41000
H 	H 	0.09418 0.95736 0.37887 0.13600
C 	C 	0.19833 0.90324 0.38867 0.29300
C 	C 	0.23536 0.88050 0.40324 -0.05200
C 	C 	0.20648 0.80800 0.41097 -0.13600
C 	C 	0.13721 0.76198 0.40773 0.37300
C 	C 	0.09973 0.78500 0.39354 -0.13000
F 	F 	0.22913 0.97109 0.37887 -0.41100
H 	H 	0.28838 0.91715 0.40630 0.09800
F 	F 	0.10774 0.69264 0.41615 -0.44300
H 	H 	0.04740 0.74741 0.38961 0.13100
C 	C 	0.49228 0.95833 0.48901 0.01500
C 	C 	0.43295 0.96172 0.49275 -0.03200
C 	C 	0.42521 0.99477 0.51409 -0.03400
C 	C 	0.47629 0.02438 0.53204 0.01600
C 	C 	0.53564 0.02094 0.52829 -0.03200
C 	C 	0.54330 0.98777 0.50697 -0.03400
C 	C 	0.47163 0.06884 0.55243 0.02200
C 	C 	0.50780 0.08052 0.57463 -0.16400
C 	C 	0.49669 0.91374 0.46867 0.02100
C 	C 	0.46603 0.90804 0.44552 -0.16200
H 	H 	0.39220 0.93731 0.47946 0.05200
H 	H 	0.37963 0.99787 0.51658 0.05700
H 	H 	0.57645 0.04530 0.54157 0.05200
H 	H 	0.58881 0.98452 0.50450 0.05700
H 	H 	0.44933 0.10273 0.54833 0.05700
H 	H 	0.50895 0.03529 0.58371 0.10600
H 	H 	0.51618 0.87734 0.47296 0.05800
H 	H 	0.46488 0.95483 0.43778 0.10500
C 	C 	0.94885 0.45797 0.51979 0.00700
C 	C 	0.01041 0.45904 0.52200 -0.01300
C 	C 	0.05200 0.47371 0.50125 -0.03600
C 	C 	0.03214 0.48701 0.47792 0.03500
C 	C 	0.96932 0.48304 0.47554 -0.04600
C 	C 	0.92781 0.46852 0.49632 -0.02000
C 	C 	0.08201 0.52102 0.45778 0.03200
C 	C 	0.13110 0.50421 0.45411 -0.17600
C 	C 	0.90261 0.43510 0.54124 0.02100
C 	C 	0.85756 0.46126 0.54469 -0.15200
H 	H 	0.02628 0.44901 0.53988 0.06400
H 	H 	0.10080 0.47772 0.50354 0.06100
H 	H 	0.95355 0.49344 0.45770 0.06700
H 	H 	0.87908 0.46474 0.49410 0.05600
H 	H 	0.08479 0.56809 0.44843 0.07700
H 	H 	0.12123 0.44923 0.45752 0.10700
H 	H 	0.89804 0.39066 0.55278 0.07500
H 	H 	0.87182 0.51644 0.53933 0.09900
C 	C 	0.51256 0.45098 0.51853 0.02200
C 	C 	0.48123 0.42125 0.49572 -0.03100
C 	C 	0.45586 0.45709 0.48113 -0.02600
C 	C 	0.46061 0.52237 0.48937 0.00900
C 	C 	0.49186 0.55201 0.51220 -0.02300
C 	C 	0.51718 0.51616 0.52679 -0.03200
C 	C 	0.44001 0.56329 0.47255 0.04200
C 	C 	0.40092 0.59086 0.48061 -0.19200
C 	C 	0.53427 0.41074 0.53516 0.01800
C 	C 	0.57481 0.38230 0.52653 -0.15600
H 	H 	0.47559 0.36996 0.48945 0.05700
H 	H 	0.43250 0.43415 0.46341 0.05500
H 	H 	0.49756 0.60334 0.51846 0.05700
H 	H 	0.54063 0.53915 0.54450 0.06100
H 	H 	0.45301 0.56605 0.45293 0.05500
H 	H 	0.38786 0.58717 0.50024 0.10700
H 	H 	0.52393 0.40980 0.55497 0.07300
H 	H 	0.58246 0.37979 0.50666 0.09600
C 	C 	0.88915 0.15597 0.67256 -0.14100
C 	C 	0.88044 0.11583 0.65075 0.01100
C 	C 	0.89832 0.06114 0.65056 0.30900
C 	C 	0.92346 0.04591 0.67219 -0.05900
C 	C 	0.93126 0.08544 0.69413 -0.12300
C 	C 	0.91420 0.14087 0.69415 0.37400
C 	C 	0.84895 0.12878 0.62870 0.02200
F 	F 	0.89086 0.02244 0.62951 -0.40100
H 	H 	0.93658 0.00322 0.67194 0.10400
F 	F 	0.91933 0.17814 0.71535 -0.41000
H 	H 	0.87497 0.19784 0.67292 0.12500
C 	C 	0.78155 0.07999 0.62292 0.29800
C 	C 	0.74496 0.10248 0.60797 -0.05500
C 	C 	0.77497 0.17421 0.59930 -0.14000
C 	C 	0.84467 0.21889 0.60191 0.37000
C 	C 	0.88152 0.19627 0.61664 -0.14900
F 	F 	0.74990 0.01334 0.63363 -0.39900
H 	H 	0.69158 0.06669 0.60538 0.09800
F 	F 	0.87521 0.28721 0.59251 -0.45100
H 	H 	0.93414 0.23338 0.62027 0.12200
C 	C 	0.39553 0.28121 0.64085 -0.14700
C 	C 	0.40361 0.28759 0.66676 0.02000
C 	C 	0.46808 0.32919 0.67689 0.31000
C 	C 	0.52436 0.35674 0.66134 -0.05700
C 	C 	0.51644 0.34119 0.63579 -0.13900
C 	C 	0.45185 0.30820 0.62536 0.37700
C 	C 	0.34631 0.24280 0.68309 0.01600
F 	F 	0.47639 0.33814 0.70192 -0.38400
H 	H 	0.57414 0.38418 0.66944 0.13800
F 	F 	0.44366 0.29627 0.60044 -0.43700
H 	H 	0.34573 0.25134 0.63284 0.12500
C 	C 	0.31696 0.27484 0.69759 0.31300
C 	C 	0.26131 0.23168 0.71248 -0.04300
C 	C 	0.23414 0.15608 0.71283 -0.12200
C 	C 	0.26453 0.12417 0.69879 0.37900
C 	C 	0.32048 0.16747 0.68398 -0.13800
F 	F 	0.34179 0.34765 0.69696 -0.39000
H 	H 	0.23875 0.25686 0.72357 0.12100
F 	F 	0.23862 0.05117 0.69885 -0.41600
H 	H 	0.34336 0.14251 0.67297 0.12700
C 	C 	0.80043 0.53382 0.69116 -0.13100
C 	C 	0.86587 0.58616 0.68440 0.01700
C 	C 	0.89935 0.57068 0.66549 0.29600
C 	C 	0.86499 0.50686 0.65168 -0.05400
C 	C 	0.79658 0.45902 0.65624 -0.12900
C 	C 	0.76588 0.47022 0.67722 0.37800
C 	C 	0.89627 0.65954 0.69519 0.01700
F 	F 	0.96363 0.61964 0.65940 -0.41200
H 	H 	0.88992 0.49751 0.63609 0.10400
F 	F 	0.70096 0.42252 0.68288 -0.42300
H 	H 	0.77511 0.54421 0.70637 0.13800
C 	C 	0.87007 0.70552 0.68940 0.29900
C 	C 	0.89810 0.77455 0.70003 -0.05700
C 	C 	0.95291 0.79853 0.71627 -0.11600
C 	C 	0.98006 0.75307 0.72163 0.37300
C 	C 	0.95175 0.68390 0.71111 -0.12400
F 	F 	0.81730 0.68313 0.67356 -0.40900
H 	H 	0.87671 0.80908 0.69587 0.10400
F 	F 	0.03201 0.77477 0.73782 -0.40100
H 	H 	0.97235 0.64885 0.71561 0.13800
C 	C 	0.02857 0.50557 0.02565 0.01500
C 	C 	0.01219 0.43399 0.01993 -0.01400
C 	C 	0.98492 0.40422 0.99671 -0.04700
C 	C 	0.97328 0.44554 0.97902 0.03300
C 	C 	0.98904 0.51684 0.98479 -0.05300
C 	C 	0.01596 0.54653 0.00806 -0.00900
C 	C 	0.94532 0.41521 0.95428 0.01800
C 	C 	0.88489 0.34976 0.95236 -0.15600
C 	C 	0.05896 0.53655 0.05015 0.02700
C 	C 	0.11206 0.60790 0.05214 -0.15900
H 	H 	0.02150 0.40177 0.03338 0.07700
H 	H 	0.97361 0.34943 0.99240 0.06100
H 	H 	0.97971 0.54899 0.97132 0.07800
H 	H 	0.02642 0.60097 0.01241 0.05500
H 	H 	0.96005 0.45281 0.93870 0.07300
H 	H 	0.88182 0.29991 0.95913 0.10100
H 	H 	0.05219 0.49888 0.06511 0.07600
H 	H 	0.10599 0.65273 0.04546 0.10100
C 	C 	0.52515 0.06781 0.99409 0.02000
C 	C 	0.45711 0.01498 0.99259 -0.03000
C 	C 	0.43155 0.95291 0.00750 -0.02900
C 	C 	0.47399 0.94268 0.02393 0.01800
C 	C 	0.54187 0.99574 0.02562 -0.03100
C 	C 	0.56760 0.05758 0.01057 -0.02900
C 	C 	0.44628 0.88006 0.04109 0.01800
C 	C 	0.40155 0.80991 0.03261 -0.15500
C 	C 	0.55296 0.12888 0.97620 0.01900
C 	C 	0.60500 0.19785 0.98291 -0.15000
H 	H 	0.42406 0.02187 0.97978 0.06300
H 	H 	0.37862 0.91328 0.00651 0.05900
H 	H 	0.57486 0.98874 0.03844 0.06000
H 	H 	0.62071 0.09663 0.01136 0.05700
H 	H 	0.46096 0.88908 0.06058 0.05400
H 	H 	0.39586 0.79909 0.01271 0.09500
H 	H 	0.53253 0.11945 0.95743 0.06200
H 	H 	0.61796 0.21053 0.00243 0.09400
C 	C 	0.55578 0.50272 0.99501 0.01100
C 	C 	0.57521 0.50631 0.01998 -0.02600
C 	C 	0.56057 0.54590 0.03720 -0.03200
C 	C 	0.52564 0.58154 0.02963 0.02100
C 	C 	0.50827 0.58012 0.00449 -0.03100
C 	C 	0.52259 0.54018 0.98727 -0.02500
C 	C 	0.50242 0.61557 0.04810 0.02100
C 	C 	0.46021 0.57399 0.06753 -0.15500
C 	C 	0.56734 0.45638 0.97756 0.04300
C 	C 	0.60071 0.48333 0.95599 -0.18000
H 	H 	0.60119 0.47784 0.02606 0.05500
H 	H 	0.57537 0.54790 0.05647 0.05900
H 	H 	0.48140 0.60771 0.99850 0.05600
H 	H 	0.50646 0.53691 0.96812 0.05800
H 	H 	0.50375 0.66596 0.04298 0.04800
H 	H 	0.47051 0.53570 0.07739 0.10100
H 	H 	0.55926 0.40430 0.98442 0.05200
H 	H 	0.59976 0.52901 0.94715 0.10900
C 	C 	0.78286 0.26228 0.81542 -0.13000
C 	C 	0.85083 0.28188 0.81806 0.01600
C 	C 	0.89334 0.34324 0.83219 0.29300
C 	C 	0.86635 0.37876 0.84600 -0.04900
C 	C 	0.79669 0.35195 0.84640 -0.14000
C 	C 	0.75580 0.29735 0.82953 0.37800
C 	C 	0.87513 0.23298 0.80901 0.01700
F 	F 	0.95973 0.36469 0.83418 -0.41200
H 	H 	0.89868 0.42255 0.85835 0.10700
F 	F 	0.68872 0.27317 0.82877 -0.42400
H 	H 	0.75018 0.21682 0.80373 0.13900
C 	C 	0.84948 0.16318 0.81926 0.29400
C 	C 	0.87579 0.11878 0.81193 -0.04900
C 	C 	0.92875 0.14415 0.79475 -0.13200
C 	C 	0.95450 0.21395 0.78453 0.37700
C 	C 	0.92736 0.25783 0.79149 -0.12300
F 	F 	0.79997 0.13901 0.83666 -0.41400
H 	H 	0.85526 0.06480 0.81971 0.10400
F 	F 	0.00497 0.23868 0.76752 -0.41200
H 	H 	0.94737 0.31146 0.78346 0.14200
C 	C 	0.40048 0.21324 0.87687 -0.13100
C 	C 	0.39324 0.18728 0.85240 0.01700
C 	C 	0.44534 0.17932 0.84154 0.29800
C 	C 	0.50612 0.20308 0.85429 -0.05500
C 	C 	0.51509 0.23440 0.87801 -0.12600
C 	C 	0.46053 0.23530 0.88979 0.36900
C 	C 	0.33208 0.17096 0.83793 0.01800
F 	F 	0.43779 0.15054 0.81841 -0.39900
H 	H 	0.54749 0.20117 0.84513 0.13500
F 	F 	0.46752 0.26267 0.91313 -0.43800
H 	H 	0.36035 0.21855 0.88560 0.13700
C 	C 	0.26822 0.12067 0.84700 0.29300
C 	C 	0.21063 0.10613 0.83351 -0.05200
C 	C 	0.21603 0.13933 0.81029 -0.13400
C 	C 	0.27990 0.19138 0.80154 0.37900
C 	C 	0.33747 0.20759 0.81547 -0.13000
F 	F 	0.26203 0.08440 0.86857 -0.41000
H 	H 	0.16176 0.06651 0.84059 0.10900
F 	F 	0.28658 0.22393 0.77912 -0.41500
H 	H 	0.38636 0.24780 0.80860 0.14400
C 	C 	0.92687 0.74913 0.84528 -0.14300
C 	C 	0.93716 0.78553 0.86805 0.00900
C 	C 	0.95858 0.86004 0.86822 0.30900
C 	C 	0.96968 0.89769 0.84570 -0.05600
C 	C 	0.96002 0.86123 0.82295 -0.13500
C 	C 	0.93839 0.78673 0.82285 0.37700
C 	C 	0.92206 0.74418 0.89151 0.02900
F 	F 	0.96894 0.89590 0.89013 -0.39900
H 	H 	0.98691 0.95534 0.84593 0.10300
F 	F 	0.92777 0.75062 0.80096 -0.41600
H 	H 	0.90937 0.69142 0.84500 0.12300
C 	C 	0.86208 0.72567 0.90428 0.29200
C 	C 	0.83285 0.66396 0.91943 -0.05300
C 	C 	0.86255 0.61981 0.92127 -0.15600
C 	C 	0.92811 0.64581 0.91227 0.38300
C 	C 	0.95796 0.70819 0.89747 -0.16700
F 	F 	0.82850 0.76250 0.89984 -0.40200
H 	H 	0.78344 0.64596 0.92729 0.09600
F 	F 	0.95958 0.60619 0.91545 -0.44300
H 	H 	0.00588 0.72421 0.88862 0.14000
