data_crystal

_cell_length_a 17.66925
_cell_length_b 18.59554
_cell_length_c 31.09837
_cell_angle_alpha 60.71763
_cell_angle_beta  118.96677
_cell_angle_gamma 133.28662

_symmetry_space_group_name_	'P 1'
_symmetry_space_group_name_H-M	'P 1'

loop_
_symmetry_equiv_pos_as_xyz
  x,y,z

loop_
_atom_site_label
_atom_site_type_symbol
_atom_site_fract_x
_atom_site_fract_y
_atom_site_fract_z
_atom_site_charge
C 	C 	0.71346 0.28426 0.01467 0.12200
N 	N 	0.76615 0.38102 0.01736 -0.12100
C 	C 	0.71315 0.40486 0.02241 0.13100
N 	N 	0.61001 0.33324 0.02499 -0.12200
C 	C 	0.55934 0.23680 0.02514 0.13200
N 	N 	0.61033 0.21194 0.01959 -0.12700
C 	C 	0.73099 0.30958 0.50977 0.12900
N 	N 	0.62821 0.23777 0.51519 -0.12600
C 	C 	0.57774 0.26384 0.52017 0.14500
N 	N 	0.62851 0.36104 0.51885 -0.11500
C 	C 	0.73149 0.43222 0.51590 0.14200
N 	N 	0.78401 0.40708 0.51152 -0.11500
C 	C 	0.25921 0.62404 0.18770 0.13400
N 	N 	0.36326 0.69486 0.18428 -0.11400
C 	C 	0.41302 0.66943 0.17818 0.14600
N 	N 	0.36029 0.57383 0.17627 -0.11500
C 	C 	0.25656 0.50339 0.17774 0.14000
N 	N 	0.20454 0.52777 0.18336 -0.11600
C 	C 	0.27724 0.64939 0.68342 0.13300
N 	N 	0.22292 0.55423 0.67778 -0.11900
C 	C 	0.27556 0.53143 0.67141 0.13700
N 	N 	0.37961 0.60223 0.67061 -0.11800
C 	C 	0.43228 0.69664 0.67416 0.14000
N 	N 	0.38183 0.72057 0.68088 -0.11100
Co	Co	0.07472 0.01870 0.04269 1.15400
Co	Co	0.91008 0.89569 0.16074 1.20500
Co	Co	0.01244 0.09999 0.08964 1.17500
Co	Co	0.96549 0.81301 0.11173 1.18200
C 	C 	0.27411 0.03355 0.06403 0.21800
Co	Co	0.07227 0.84482 0.03766 1.17800
Co	Co	0.90203 0.05951 0.16630 1.15400
C 	C 	0.84705 0.68345 0.03436 0.31700
O 	O 	0.93382 0.18842 0.10836 -0.40700
O 	O 	0.94094 0.01386 0.13505 -0.79700
C 	C 	0.89200 0.18449 0.06139 0.30900
O 	O 	0.08912 0.14049 0.04015 -0.45700
O 	O 	0.90273 0.77644 0.16625 -0.42900
C 	C 	0.70154 0.86683 0.14386 0.31000
O 	O 	0.96533 0.94925 0.09141 -0.53100
C 	C 	0.12637 0.22287 0.16929 0.31100
C 	C 	0.04696 0.99032 0.94534 0.36100
C 	C 	0.08248 0.72522 0.14262 0.31400
O 	O 	0.90815 0.14519 0.04325 -0.37400
O 	O 	0.11187 0.96520 0.97492 -0.34800
O 	O 	0.01978 0.01933 0.96402 -0.36700
O 	O 	0.74919 0.96597 0.12926 -0.33800
O 	O 	0.74710 0.82555 0.15056 -0.33300
O 	O 	0.06154 0.14456 0.19913 -0.38500
O 	O 	0.13716 0.21003 0.13398 -0.36500
O 	O 	0.03684 0.71683 0.09646 -0.39800
O 	O 	0.07883 0.77857 0.15761 -0.35300
O 	O 	0.02938 0.89514 0.06376 -0.71400
C 	C 	0.94349 0.92430 0.25779 0.29100
O 	O 	0.87006 0.93878 0.22933 -0.33500
O 	O 	0.98570 0.91533 0.23643 -0.32300
O 	O 	0.22634 0.93483 0.07570 -0.31200
O 	O 	0.23542 0.07072 0.06839 -0.38000
O 	O 	0.91253 0.76273 0.00474 -0.34200
O 	O 	0.84284 0.69342 0.07323 -0.34400
Co	Co	0.09134 0.04324 0.53796 1.16200
Co	Co	0.92662 0.92001 0.65625 1.20100
Co	Co	0.02932 0.12491 0.58443 1.17700
Co	Co	0.98237 0.83740 0.60695 1.18300
C 	C 	0.29470 0.06180 0.56112 0.22700
Co	Co	0.09468 0.87335 0.53388 1.18300
Co	Co	0.92478 0.08888 0.66219 1.15500
C 	C 	0.86829 0.71158 0.52831 0.30800
O 	O 	0.95412 0.21598 0.60318 -0.40800
O 	O 	0.96155 0.04029 0.63147 -0.78800
C 	C 	0.90958 0.20957 0.55657 0.31200
O 	O 	0.10232 0.16416 0.53361 -0.43900
O 	O 	0.91603 0.79955 0.66038 -0.43400
C 	C 	0.72274 0.89528 0.64182 0.30600
O 	O 	0.98403 0.97418 0.58764 -0.53400
C 	C 	0.14782 0.25210 0.66268 0.32200
C 	C 	0.07067 0.01909 0.44154 0.25300
C 	C 	0.10023 0.75001 0.63825 0.31200
O 	O 	0.92273 0.16738 0.53876 -0.37300
O 	O 	0.13712 0.99626 0.47200 -0.28900
O 	O 	0.03292 0.03758 0.46021 -0.34900
O 	O 	0.77019 0.99438 0.62682 -0.33900
O 	O 	0.76438 0.85366 0.64454 -0.34900
O 	O 	0.08494 0.17415 0.69336 -0.34600
O 	O 	0.15583 0.23862 0.62660 -0.34900
O 	O 	0.05705 0.74379 0.59175 -0.39400
O 	O 	0.09415 0.80110 0.65364 -0.34600
O 	O 	0.04963 0.92108 0.56024 -0.71800
C 	C 	0.96748 0.95415 0.75391 0.26200
O 	O 	0.89553 0.97089 0.72610 -0.35100
O 	O 	0.00023 0.93419 0.73299 -0.27400
O 	O 	0.24710 0.96299 0.57323 -0.30800
O 	O 	0.25361 0.09952 0.56289 -0.35900
O 	O 	0.93553 0.79129 0.49948 -0.36000
O 	O 	0.86130 0.72066 0.56659 -0.34900
C 	C 	0.09643 0.06449 0.86373 -0.00600
C 	C 	0.01411 0.99453 0.88998 0.08300
C 	C 	0.92147 0.90572 0.87225 -0.10900
C 	C 	0.92235 0.87985 0.83650 0.02600
C 	C 	0.00330 0.95054 0.80941 0.11700
C 	C 	0.09602 0.03984 0.82688 -0.17600
C 	C 	0.19945 0.10441 0.81134 0.79700
H 	H 	0.16781 0.13292 0.87652 0.08700
H 	H 	0.85155 0.81060 0.82428 0.09000
C 	C 	0.81664 0.84373 0.88589 0.78600
F 	F 	0.22888 0.20284 0.78746 -0.44300
F 	F 	0.19211 0.06725 0.77936 -0.46600
F 	F 	0.27904 0.10699 0.85427 -0.44300
F 	F 	0.82468 0.87880 0.91919 -0.42400
F 	F 	0.78098 0.74312 0.90739 -0.43000
F 	F 	0.74138 0.84812 0.84215 -0.42200
C 	C 	0.93448 0.91106 0.37942 0.13600
C 	C 	0.02693 0.00694 0.38844 -0.07300
C 	C 	0.09768 0.07148 0.35560 -0.06000
C 	C 	0.08185 0.03383 0.31946 -0.05800
C 	C 	0.98964 0.93746 0.31083 0.10000
C 	C 	0.92032 0.87253 0.34435 -0.14000
C 	C 	0.82596 0.76413 0.34038 0.79500
H 	H 	0.87697 0.86295 0.40235 0.07300
H 	H 	0.13838 0.08238 0.29594 0.09700
C 	C 	0.19434 0.17846 0.36107 0.76700
F 	F 	0.79922 0.70241 0.38675 -0.43800
F 	F 	0.85002 0.72398 0.32550 -0.43800
F 	F 	0.73884 0.76292 0.30523 -0.43100
F 	F 	0.27815 0.17543 0.39773 -0.44200
F 	F 	0.17117 0.22066 0.37500 -0.43400
F 	F 	0.22573 0.24100 0.31573 -0.43600
C 	C 	0.19001 0.35236 0.66205 -0.04000
C 	C 	0.22295 0.43251 0.66549 0.04900
C 	C 	0.62121 0.83024 0.65345 -0.04600
C 	C 	0.53573 0.77343 0.66354 0.05400
C 	C 	0.16827 0.71528 0.66766 -0.05000
C 	C 	0.21854 0.68291 0.67910 0.04800
C 	C 	0.20313 0.40378 0.17236 0.05600
C 	C 	0.16944 0.32321 0.16905 -0.04800
C 	C 	0.60036 0.80184 0.15584 -0.03300
C 	C 	0.51554 0.74546 0.16653 0.05800
C 	C 	0.20110 0.65840 0.18314 0.04700
C 	C 	0.15107 0.69105 0.17168 -0.05400
C 	C 	0.79068 0.27630 0.51522 0.03900
C 	C 	0.84207 0.24479 0.52734 -0.07100
C 	C 	0.78559 0.53167 0.52142 0.05700
C 	C 	0.82182 0.61224 0.52575 -0.04000
C 	C 	0.39457 0.12983 0.54717 -0.03400
C 	C 	0.47766 0.18749 0.53454 0.03500
C 	C 	0.82522 0.22052 0.03184 -0.07500
C 	C 	0.77368 0.25183 0.01980 0.03400
C 	C 	0.76636 0.50382 0.02816 0.04200
C 	C 	0.80163 0.58408 0.03240 -0.04400
C 	C 	0.37464 0.10177 0.05070 -0.05500
C 	C 	0.45843 0.15975 0.03868 0.02000
