data_crystal

_cell_length_a 18.51309
_cell_length_b 18.84423
_cell_length_c 34.89556
_cell_angle_alpha 95.43683
_cell_angle_beta  95.43720
_cell_angle_gamma 126.42687

_symmetry_space_group_name_	'P 1'
_symmetry_space_group_name_H-M	'P 1'

loop_
_symmetry_equiv_pos_as_xyz
  x,y,z

loop_
_atom_site_label
_atom_site_type_symbol
_atom_site_fract_x
_atom_site_fract_y
_atom_site_fract_z
_atom_site_charge
C 	C 	0.90997 0.98630 0.96133 0.11400
N 	N 	0.00094 0.04002 0.96114 -0.13700
C 	C 	0.04761 0.00553 0.96148 0.11500
N 	N 	0.00364 0.91733 0.96229 -0.13200
C 	C 	0.91271 0.86286 0.96223 0.10800
N 	N 	0.86538 0.89722 0.96178 -0.13900
C 	C 	0.93986 0.04232 0.50071 0.10400
N 	N 	0.03121 0.09323 0.50097 -0.13600
C 	C 	0.07444 0.05497 0.50229 0.11400
N 	N 	0.02646 0.96628 0.50306 -0.13000
C 	C 	0.93536 0.91537 0.50230 0.11000
N 	N 	0.89209 0.95341 0.50136 -0.13700
Cu	Cu	0.76111 0.33297 0.95803 0.92600
Cu	Cu	0.75922 0.27545 0.04388 0.87000
Cu	Cu	0.61746 0.28884 0.00835 0.89500
Cu	Cu	0.58994 0.32440 0.92810 0.89500
C 	C 	0.69150 0.29506 0.87517 0.30600
O 	O 	0.81490 0.46343 0.95504 -0.36300
C 	C 	0.68022 0.32564 0.09477 0.30600
O 	O 	0.61901 0.25948 0.95440 -0.63800
O 	O 	0.75195 0.35225 0.01358 -0.64300
O 	O 	0.82197 0.27376 0.96363 -0.37300
O 	O 	0.72633 0.18352 0.00224 -0.44700
O 	O 	0.65240 0.33351 0.88313 -0.39500
O 	O 	0.48602 0.21971 0.99964 -0.38200
C 	C 	0.43569 0.22060 0.97050 0.29900
C 	C 	0.77284 0.49736 0.96522 0.28800
O 	O 	0.68913 0.44407 0.97139 -0.39400
O 	O 	0.47261 0.27680 0.94597 -0.39600
O 	O 	0.74604 0.29570 0.90285 -0.36200
C 	C 	0.78267 0.19974 0.97827 0.29600
O 	O 	0.61381 0.29907 0.06516 -0.37800
O 	O 	0.75592 0.33835 0.08870 -0.42500
H 	H 	0.58009 0.19426 0.94361 0.16300
H 	H 	0.78937 0.41586 0.02693 0.17300
Cu	Cu	0.60976 0.21244 0.50708 0.92800
Cu	Cu	0.65921 0.21062 0.41936 0.87100
Cu	Cu	0.65755 0.35606 0.45818 0.89700
Cu	Cu	0.63174 0.38596 0.54004 0.89300
C 	C 	0.65464 0.27799 0.59040 0.30700
O 	O 	0.48172 0.16823 0.51304 -0.36500
C 	C 	0.61151 0.29603 0.37136 0.30800
O 	O 	0.69136 0.35249 0.51128 -0.64000
O 	O 	0.58738 0.22305 0.45204 -0.64100
O 	O 	0.65709 0.14202 0.49847 -0.36800
O 	O 	0.75055 0.23176 0.45905 -0.44000
O 	O 	0.61982 0.32096 0.58399 -0.39400
O 	O 	0.73329 0.48564 0.46731 -0.38500
C 	C 	0.73907 0.53738 0.49771 0.29800
C 	C 	0.45012 0.21159 0.50240 0.29000
O 	O 	0.50683 0.29452 0.49742 -0.39600
O 	O 	0.68548 0.50360 0.52375 -0.39700
O 	O 	0.65165 0.22503 0.56150 -0.35500
C 	C 	0.72910 0.17357 0.48209 0.29500
O 	O 	0.64084 0.36043 0.40179 -0.38700
O 	O 	0.59708 0.22017 0.37586 -0.40900
H 	H 	0.75798 0.38794 0.52089 0.16300
H 	H 	0.52236 0.18894 0.43958 0.17500
C 	C 	0.65605 0.18667 0.68240 -0.11200
C 	C 	0.69786 0.26396 0.71122 0.00300
C 	C 	0.73456 0.34724 0.69994 0.11800
C 	C 	0.72596 0.35207 0.66017 -0.03800
C 	C 	0.67841 0.27387 0.63133 -0.12200
C 	C 	0.64462 0.19088 0.64259 0.19100
C 	C 	0.69412 0.25619 0.75291 0.00100
O 	O 	0.77785 0.42384 0.72779 -0.28200
H 	H 	0.75332 0.41632 0.65178 0.04400
O 	O 	0.59876 0.11368 0.61490 -0.28300
H 	H 	0.62872 0.12254 0.69090 0.06900
C 	C 	0.61070 0.21635 0.76604 0.11300
C 	C 	0.60979 0.22365 0.80625 -0.03700
C 	C 	0.69171 0.27115 0.83370 -0.12500
C 	C 	0.77465 0.30648 0.82052 0.19100
C 	C 	0.77525 0.29760 0.78023 -0.11200
O 	O 	0.53083 0.17570 0.73970 -0.28000
H 	H 	0.54563 0.19559 0.81612 0.04300
O 	O 	0.85535 0.35172 0.84686 -0.28900
H 	H 	0.83947 0.32690 0.77026 0.07500
H 	H 	0.53350 0.08887 0.61159 0.14900
H 	H 	0.50496 0.11145 0.73360 0.13900
H 	H 	0.87930 0.41551 0.85126 0.14800
H 	H 	0.72911 0.42843 0.73347 0.14500
C 	C 	0.59528 0.35844 0.18479 -0.11700
C 	C 	0.63184 0.33314 0.21250 0.00400
C 	C 	0.68621 0.30811 0.20187 0.11900
C 	C 	0.70210 0.30653 0.16354 -0.03800
C 	C 	0.66506 0.33099 0.13550 -0.12700
C 	C 	0.61233 0.35828 0.14644 0.19000
C 	C 	0.61281 0.33196 0.25266 0.00100
O 	O 	0.72135 0.28218 0.22863 -0.28000
H 	H 	0.74218 0.28485 0.15546 0.04400
O 	O 	0.57675 0.38391 0.11974 -0.29300
H 	H 	0.55385 0.37839 0.19295 0.06800
C 	C 	0.67658 0.40555 0.28300 0.11500
C 	C 	0.67159 0.39576 0.32218 -0.03800
C 	C 	0.60292 0.31279 0.33129 -0.12600
C 	C 	0.53335 0.24244 0.30092 0.19000
C 	C 	0.53896 0.25204 0.26176 -0.11300
O 	O 	0.74778 0.48491 0.27443 -0.28200
H 	H 	0.72422 0.45109 0.34535 0.05500
O 	O 	0.46222 0.16289 0.30939 -0.29100
H 	H 	0.48833 0.19581 0.23847 0.07300
H 	H 	0.62404 0.44960 0.12231 0.14200
H 	H 	0.72511 0.52086 0.27206 0.14000
H 	H 	0.41415 0.17031 0.31229 0.14300
H 	H 	0.78212 0.33802 0.24153 0.14600
C 	C 	0.90060 0.78859 0.53339 -0.07000
C 	C 	0.88337 0.81863 0.50107 -0.02500
C 	C 	0.82228 0.75637 0.46670 0.04600
C 	C 	0.77668 0.66440 0.46581 -0.02100
C 	C 	0.79311 0.63425 0.49834 -0.10100
C 	C 	0.85743 0.69691 0.53202 0.08800
C 	C 	0.87939 0.66640 0.56672 -0.19600
H 	H 	0.94862 0.83687 0.55949 0.05000
H 	H 	0.72742 0.61606 0.43997 0.04500
C 	C 	0.80498 0.78758 0.43110 -0.18000
H 	H 	0.94333 0.72322 0.58681 0.06500
H 	H 	0.88938 0.61548 0.55685 0.06100
H 	H 	0.82275 0.63705 0.58340 0.06800
H 	H 	0.87072 0.84021 0.42287 0.06700
H 	H 	0.76764 0.81522 0.43746 0.07200
H 	H 	0.76330 0.73169 0.40538 0.06400
C 	C 	0.83855 0.06108 0.45919 -0.06800
C 	C 	0.89096 0.08102 0.49588 -0.02900
C 	C 	0.88885 0.13004 0.52839 0.05000
C 	C 	0.83380 0.15821 0.52363 -0.02300
C 	C 	0.78142 0.13827 0.48689 -0.10100
C 	C 	0.78259 0.08805 0.45452 0.08300
C 	C 	0.72486 0.06359 0.41493 -0.19100
H 	H 	0.83998 0.02288 0.43439 0.04400
H 	H 	0.83240 0.19643 0.54842 0.04500
C 	C 	0.94424 0.15146 0.56818 -0.19600
H 	H 	0.72144 0.01196 0.39476 0.06200
H 	H 	0.75456 0.12414 0.40143 0.04500
H 	H 	0.65375 0.03558 0.41792 0.04800
H 	H 	0.01789 0.19117 0.56657 0.08100
H 	H 	0.92183 0.08825 0.57822 0.07300
H 	H 	0.93612 0.19126 0.59044 0.06900
C 	C 	0.29412 0.14259 0.46690 -0.02200
C 	C 	0.35424 0.17329 0.50260 -0.10400
C 	C 	0.32453 0.17509 0.53826 0.09200
C 	C 	0.23379 0.14278 0.53758 -0.07100
C 	C 	0.17257 0.10844 0.50192 -0.02500
C 	C 	0.20349 0.11076 0.46625 0.04600
C 	C 	0.13896 0.07555 0.42754 -0.18100
H 	H 	0.31785 0.14330 0.43958 0.03300
H 	H 	0.20979 0.14126 0.56489 0.05000
C 	C 	0.38939 0.21189 0.57701 -0.20100
H 	H 	0.17610 0.09361 0.40265 0.06400
H 	H 	0.10142 0.10458 0.42717 0.07200
H 	H 	0.08911 0.00123 0.42299 0.07000
H 	H 	0.44718 0.28358 0.57846 0.06600
H 	H 	0.41625 0.17307 0.58037 0.08600
H 	H 	0.35528 0.20773 0.60216 0.07100
C 	C 	0.86248 0.71445 0.92890 -0.07300
C 	C 	0.86591 0.76631 0.96168 -0.02500
C 	C 	0.84207 0.73074 0.99617 0.04700
C 	C 	0.81674 0.64442 0.99752 -0.01800
C 	C 	0.81443 0.59289 0.96489 -0.10600
C 	C 	0.83715 0.62816 0.93015 0.09100
C 	C 	0.83347 0.57401 0.89422 -0.20500
H 	H 	0.88208 0.74243 0.90264 0.04800
H 	H 	0.79743 0.61668 0.02384 0.03100
C 	C 	0.84361 0.78448 0.03158 -0.18400
H 	H 	0.85116 0.61052 0.86933 0.06900
H 	H 	0.76346 0.51010 0.88460 0.08000
H 	H 	0.88294 0.55958 0.90071 0.08400
H 	H 	0.79450 0.79889 0.02396 0.06700
H 	H 	0.91332 0.84875 0.04171 0.06600
H 	H 	0.82409 0.74767 0.05635 0.06200
C 	C 	0.83436 0.11686 0.00610 -0.02600
C 	C 	0.81217 0.14205 0.97300 -0.10700
C 	C 	0.81125 0.10617 0.93529 0.09600
C 	C 	0.83778 0.04991 0.93164 -0.07400
C 	C 	0.86240 0.02691 0.96491 -0.02400
C 	C 	0.85818 0.05864 0.00230 0.03700
C 	C 	0.88296 0.03378 0.03841 -0.18200
H 	H 	0.83362 0.14315 0.03496 0.01700
H 	H 	0.84169 0.02601 0.90298 0.04900
C 	C 	0.78375 0.12859 0.89899 -0.20700
H 	H 	0.86841 0.05720 0.06493 0.05700
H 	H 	0.95695 0.06473 0.04350 0.06300
H 	H 	0.84258 0.95970 0.03463 0.06800
H 	H 	0.83768 0.19967 0.89730 0.09700
H 	H 	0.71805 0.11787 0.89952 0.08100
H 	H 	0.77406 0.08542 0.87193 0.07200
C 	C 	0.20482 0.12964 0.99604 -0.06800
C 	C 	0.14640 0.06423 0.96250 -0.02400
C 	C 	0.18313 0.05217 0.93108 0.04100
C 	C 	0.27812 0.10272 0.93462 -0.02000
C 	C 	0.33664 0.16681 0.96849 -0.10600
C 	C 	0.29994 0.18206 0.99914 0.10300
C 	C 	0.36161 0.25281 0.03537 -0.21100
H 	H 	0.17614 0.13886 0.01999 0.04700
H 	H 	0.30670 0.09228 0.91095 0.03000
C 	C 	0.12139 0.98421 0.89414 -0.17600
H 	H 	0.32288 0.26547 0.05356 0.07400
H 	H 	0.41513 0.31745 0.02717 0.08200
H 	H 	0.39456 0.23046 0.05351 0.09500
H 	H 	0.06688 0.99023 0.88394 0.07400
H 	H 	0.08962 0.91538 0.89984 0.07400
H 	H 	0.15983 0.99445 0.87000 0.06600
