data_crystal

_cell_length_a 19.34904
_cell_length_b 18.39238
_cell_length_c 26.68373
_cell_angle_alpha 95.42665
_cell_angle_beta  95.42666
_cell_angle_gamma 126.41995

_symmetry_space_group_name_	'P 1'
_symmetry_space_group_name_H-M	'P 1'

loop_
_symmetry_equiv_pos_as_xyz
  x,y,z

loop_
_atom_site_label
_atom_site_type_symbol
_atom_site_fract_x
_atom_site_fract_y
_atom_site_fract_z
_atom_site_charge
C 	C 	0.99114 0.03224 0.97198 -0.05800
H 	H 	0.02927 0.10516 0.97126 0.05300
C 	C 	0.95304 0.05076 0.46502 0.03100
C 	C 	0.08801 0.06703 0.47361 0.02700
C 	C 	0.04399 0.10567 0.46813 -0.07000
H 	H 	0.08046 0.17836 0.46716 0.05500
Cu	Cu	0.70771 0.21187 0.05020 0.87800
Cu	Cu	0.57390 0.23784 0.02046 0.89400
C 	C 	0.62957 0.27729 0.84040 0.28900
C 	C 	0.65249 0.26970 0.12923 0.29000
O 	O 	0.56239 0.21221 0.94755 -0.63300
O 	O 	0.75213 0.21889 0.93693 -0.35700
O 	O 	0.67288 0.12527 0.99071 -0.43000
O 	O 	0.55852 0.26571 0.85102 -0.38500
O 	O 	0.44936 0.17291 0.01697 -0.38400
C 	C 	0.40157 0.18462 0.98516 0.30100
O 	O 	0.43810 0.25082 0.95829 -0.38900
O 	O 	0.66882 0.25215 0.86921 -0.36100
C 	C 	0.72676 0.14768 0.95869 0.29300
O 	O 	0.58348 0.24403 0.09556 -0.38000
O 	O 	0.71759 0.27337 0.11493 -0.40700
H 	H 	0.52194 0.14585 0.93222 0.16700
Cu	Cu	0.75431 0.27660 0.55543 0.87200
Cu	Cu	0.62819 0.31582 0.52539 0.89700
C 	C 	0.68517 0.31568 0.63272 0.28700
O 	O 	0.62166 0.29441 0.45252 -0.63700
O 	O 	0.81024 0.29496 0.44585 -0.36100
O 	O 	0.72187 0.19487 0.49416 -0.44000
O 	O 	0.50409 0.25728 0.51949 -0.37700
C 	C 	0.45828 0.26657 0.48434 0.29200
O 	O 	0.49698 0.33346 0.45795 -0.38600
O 	O 	0.73195 0.33108 0.37756 -0.35600
C 	C 	0.77892 0.21927 0.46414 0.29600
O 	O 	0.63281 0.32111 0.60026 -0.37400
H 	H 	0.57841 0.22930 0.43517 0.16600
C 	C 	0.65752 0.23074 0.75879 -0.03400
C 	C 	0.64782 0.29059 0.78807 -0.08200
C 	C 	0.67000 0.30497 0.68560 -0.08500
C 	C 	0.66662 0.23596 0.70741 0.07300
C 	C 	0.67259 0.16765 0.67617 -0.18800
H 	H 	0.65530 0.17807 0.77553 0.05400
H 	H 	0.65185 0.10828 0.69521 0.06800
H 	H 	0.74113 0.20159 0.67119 0.06300
H 	H 	0.62924 0.13981 0.63799 0.05000
C 	C 	0.60878 0.23559 0.26364 -0.03600
C 	C 	0.67473 0.32405 0.29181 -0.08400
C 	C 	0.65438 0.28902 0.18435 -0.08300
C 	C 	0.59806 0.21733 0.21000 0.08100
C 	C 	0.52688 0.12145 0.18044 -0.19500
H 	H 	0.56542 0.18100 0.28347 0.04200
H 	H 	0.49120 0.07248 0.20633 0.07100
H 	H 	0.55547 0.09560 0.15734 0.06400
H 	H 	0.47879 0.12204 0.15461 0.08600
C 	C 	0.82535 0.17813 0.46363 -0.09800
C 	C 	0.85646 0.16836 0.51028 0.01400
C 	C 	0.89769 0.12648 0.51104 -0.04500
C 	C 	0.90811 0.09358 0.46471 0.01700
C 	C 	0.87773 0.10384 0.41801 -0.06300
C 	C 	0.83640 0.14592 0.41721 0.03000
H 	H 	0.84870 0.19368 0.54607 -0.00000
H 	H 	0.88613 0.07894 0.38234 0.05300
C 	C 	0.80392 0.15388 0.36864 0.07300
C 	C 	0.92961 0.11792 0.55960 0.08500
N 	N 	0.77788 0.16029 0.32975 -0.10800
N 	N 	0.95523 0.11102 0.59846 -0.11400
C 	C 	0.18332 0.12385 0.47622 0.01500
C 	C 	0.21562 0.12143 0.43176 -0.06000
C 	C 	0.30506 0.16556 0.43427 0.02300
C 	C 	0.36334 0.21373 0.48173 -0.08300
C 	C 	0.33106 0.21654 0.52622 0.01200
C 	C 	0.24146 0.17209 0.52367 -0.04100
H 	H 	0.17070 0.08327 0.39538 0.05200
H 	H 	0.37585 0.25438 0.56266 0.04300
C 	C 	0.20955 0.17600 0.56989 0.08800
C 	C 	0.33622 0.15879 0.38822 0.05800
N 	N 	0.18388 0.17907 0.60687 -0.11400
N 	N 	0.36123 0.15340 0.35138 -0.12300
C 	C 	0.77665 0.11062 0.95879 -0.08600
C 	C 	0.75981 0.04795 0.91610 0.01600
C 	C 	0.79983 0.00453 0.91779 -0.04800
C 	C 	0.85621 0.02284 0.96302 0.02500
C 	C 	0.87437 0.08705 0.00520 -0.07200
C 	C 	0.83618 0.13200 0.00306 0.01900
H 	H 	0.71486 0.03219 0.88182 0.03500
H 	H 	0.91895 0.10257 0.03963 0.05100
C 	C 	0.86021 0.20178 0.04597 0.02300
N 	N 	0.87970 0.25773 0.08038 -0.14000
C 	C 	0.30714 0.13177 0.98460 -0.07700
C 	C 	0.24968 0.09236 0.93716 0.00800
C 	C 	0.16073 0.05022 0.93471 -0.04000
C 	C 	0.12806 0.04595 0.98021 0.02300
C 	C 	0.18521 0.08521 0.02775 -0.07100
C 	C 	0.27463 0.12853 0.03025 0.01900
H 	H 	0.27465 0.09560 0.90203 0.02900
H 	H 	0.15986 0.08136 0.06278 0.05000
C 	C 	0.33257 0.17113 0.07961 0.07500
C 	C 	0.10322 0.01161 0.88530 0.08300
N 	N 	0.37897 0.20521 0.11915 -0.10900
Cu	Cu	0.69528 0.28109 0.94270 0.92900
Cu	Cu	0.53329 0.28344 0.92005 0.89600
O 	O 	0.69990 0.29721 0.01808 -0.64200
C 	C 	0.68149 0.34211 0.34763 0.29000
O 	O 	0.75572 0.32930 0.62051 -0.41400
Cu	Cu	0.75490 0.35878 0.45119 0.92700
O 	O 	0.75386 0.36876 0.52602 -0.63600
Cu	Cu	0.60330 0.37636 0.42886 0.89700
C 	C 	0.65057 0.35931 0.76608 0.07800
C 	C 	0.66064 0.36507 0.71481 -0.03400
C 	C 	0.71964 0.37772 0.21254 -0.03700
H 	H 	0.73989 0.36165 0.03690 0.17900
H 	H 	0.56789 0.39011 0.79336 0.07500
O 	O 	0.65516 0.38924 0.36606 -0.38400
N 	N 	0.05713 0.98076 0.84574 -0.10500
C 	C 	0.73078 0.39579 0.26616 0.08700
C 	C 	0.03323 0.99179 0.97857 0.02300
C 	C 	0.89971 0.97841 0.96601 0.03200
C 	C 	0.78386 0.94262 0.87281 0.09700
C 	C 	0.98424 0.89779 0.97928 -0.04900
C 	C 	0.89295 0.84301 0.97154 0.02400
C 	C 	0.85054 0.88347 0.96586 -0.06100
H 	H 	0.01696 0.86652 0.98382 0.05100
H 	H 	0.77990 0.84141 0.96104 0.05500
C 	C 	0.90608 0.95662 0.46643 -0.06200
C 	C 	0.95030 0.91804 0.47158 0.03400
C 	C 	0.04120 0.97359 0.47566 -0.06500
H 	H 	0.83581 0.91396 0.46403 0.05400
H 	H 	0.07539 0.94384 0.47983 0.05600
O 	O 	0.75485 0.41665 0.94402 -0.36300
C 	C 	0.72144 0.45648 0.96122 0.28400
O 	O 	0.64293 0.40679 0.97201 -0.38000
O 	O 	0.81688 0.49591 0.45572 -0.36100
C 	C 	0.78739 0.53707 0.47756 0.28700
O 	O 	0.70863 0.48725 0.48814 -0.38700
H 	H 	0.79568 0.43168 0.54666 0.17900
H 	H 	0.66215 0.41717 0.69781 0.05400
C 	C 	0.63872 0.42385 0.79599 -0.19400
H 	H 	0.67011 0.44345 0.83684 0.06900
H 	H 	0.66897 0.48848 0.78063 0.07500
H 	H 	0.76263 0.43254 0.19272 0.04900
C 	C 	0.80064 0.49218 0.29557 -0.20000
H 	H 	0.83949 0.49131 0.32860 0.08700
H 	H 	0.76969 0.52312 0.30973 0.08300
H 	H 	0.84677 0.53679 0.27119 0.07600
C 	C 	0.90157 0.81874 0.47163 0.01500
C 	C 	0.87772 0.78603 0.51720 -0.05800
C 	C 	0.84313 0.69493 0.52025 0.02400
C 	C 	0.83172 0.63551 0.47715 -0.08500
C 	C 	0.85524 0.66829 0.43155 0.00800
C 	C 	0.88916 0.75900 0.42841 -0.04100
H 	H 	0.88829 0.83225 0.55066 0.05700
H 	H 	0.84549 0.62251 0.39817 0.03700
C 	C 	0.91084 0.79033 0.38062 0.08500
C 	C 	0.82235 0.66393 0.56821 0.07100
N 	N 	0.92825 0.81549 0.34236 -0.11800
N 	N 	0.80570 0.63905 0.60662 -0.11100
C 	C 	0.77002 0.55672 0.96572 -0.07600
C 	C 	0.80557 0.59785 0.92408 0.00500
C 	C 	0.83902 0.68927 0.92381 -0.04200
C 	C 	0.84208 0.74243 0.96697 0.02700
C 	C 	0.80850 0.70211 0.00919 -0.07100
C 	C 	0.77303 0.60986 0.00898 0.01600
H 	H 	0.80569 0.55812 0.89143 0.03700
H 	H 	0.81258 0.74343 0.04286 0.05200
C 	C 	0.74415 0.57170 0.05428 0.06800
C 	C 	0.86942 0.72798 0.87888 0.09000
N 	N 	0.72106 0.54110 0.09055 -0.11700
N 	N 	0.89371 0.75897 0.84289 -0.10800
N 	N 	0.77113 0.89300 0.83680 -0.11300
