data_crystal

_cell_length_a 23.38676
_cell_length_b 23.37108
_cell_length_c 24.64483
_cell_angle_alpha 89.99964
_cell_angle_beta  90.00517
_cell_angle_gamma 90.00124

_symmetry_space_group_name_	'P 1'
_symmetry_space_group_name_H-M	'P 1'

loop_
_symmetry_equiv_pos_as_xyz
  x,y,z

loop_
_atom_site_label
_atom_site_type_symbol
_atom_site_fract_x
_atom_site_fract_y
_atom_site_fract_z
_atom_site_charge
Co	Co	0.78145 0.43056 0.92887 1.18600
O 	O 	0.74174 0.39889 0.85881 -0.34000
Co	Co	0.81109 0.45782 0.05912 1.19000
O 	O 	0.76245 0.39477 0.00233 -0.43100
O 	O 	0.78659 0.52850 0.02184 -0.37700
O 	O 	0.81215 0.35371 0.89123 -0.31200
C 	C 	0.74001 0.53139 0.99181 0.27400
O 	O 	0.72592 0.42779 0.07576 -0.32200
C 	C 	0.87262 0.43670 0.14346 0.26400
C 	C 	0.88253 0.47628 0.95896 0.28300
O 	O 	0.85485 0.48632 0.12809 -0.32800
O 	O 	0.85382 0.39726 0.11147 -0.30400
O 	O 	0.85720 0.47862 0.91211 -0.32400
O 	O 	0.85681 0.44035 0.99069 -0.44300
O 	O 	0.73408 0.49977 0.94702 -0.49700
C 	C 	0.77432 0.35469 0.85321 0.26700
C 	C 	0.71629 0.40137 0.03035 0.27200
H 	H 	0.70119 0.50810 0.92140 0.18200
Co	Co	0.57204 0.78985 0.92879 1.18500
O 	O 	0.60365 0.75003 0.85877 -0.34100
Co	Co	0.54529 0.81928 0.05908 1.19000
O 	O 	0.60816 0.77093 0.00203 -0.43100
O 	O 	0.47449 0.79521 0.02186 -0.37600
O 	O 	0.64878 0.82056 0.89109 -0.31000
C 	C 	0.47116 0.74870 0.99178 0.27500
O 	O 	0.57562 0.73399 0.07539 -0.32100
C 	C 	0.56655 0.88064 0.14351 0.26400
C 	C 	0.52648 0.89097 0.95905 0.28400
O 	O 	0.51695 0.86284 0.12819 -0.32700
O 	O 	0.60590 0.86197 0.11138 -0.30300
O 	O 	0.52396 0.86563 0.91221 -0.32200
O 	O 	0.56250 0.86523 0.99068 -0.44200
O 	O 	0.50304 0.74228 0.94724 -0.49700
C 	C 	0.64784 0.78260 0.85319 0.26700
C 	C 	0.60200 0.72461 0.02990 0.27200
H 	H 	0.49477 0.70918 0.92183 0.18200
Co	Co	0.42179 0.22308 0.92785 1.18500
O 	O 	0.38829 0.26279 0.85850 -0.34000
Co	Co	0.44970 0.19149 0.05750 1.19000
O 	O 	0.38479 0.23863 0.00143 -0.43100
O 	O 	0.51948 0.21977 0.02113 -0.37700
O 	O 	0.34676 0.18935 0.88939 -0.31200
C 	C 	0.52093 0.26704 0.99190 0.27400
O 	O 	0.41615 0.27489 0.07576 -0.32200
C 	C 	0.43035 0.12756 0.14075 0.26400
C 	C 	0.47355 0.12479 0.95572 0.28300
O 	O 	0.47928 0.14775 0.12607 -0.32900
O 	O 	0.39065 0.14502 0.10839 -0.30400
O 	O 	0.47419 0.15086 0.90927 -0.32400
O 	O 	0.43551 0.14651 0.98796 -0.44200
O 	O 	0.48815 0.27363 0.94790 -0.49700
C 	C 	0.34580 0.22813 0.85223 0.26700
C 	C 	0.38940 0.28434 0.03055 0.27300
H 	H 	0.49456 0.30801 0.92356 0.18200
Co	Co	0.21442 0.58094 0.92755 1.18500
O 	O 	0.25418 0.61441 0.85824 -0.34000
Co	Co	0.18309 0.55343 0.05724 1.19000
O 	O 	0.22998 0.61823 0.00094 -0.43100
O 	O 	0.21092 0.48343 0.02091 -0.37700
O 	O 	0.18080 0.65600 0.88908 -0.31100
C 	C 	0.25807 0.48161 0.99160 0.27500
O 	O 	0.26652 0.58720 0.07518 -0.32200
C 	C 	0.11944 0.57299 0.14058 0.26500
C 	C 	0.11618 0.52930 0.95559 0.28300
O 	O 	0.13958 0.52400 0.12596 -0.32800
O 	O 	0.13679 0.61265 0.10811 -0.30200
O 	O 	0.14221 0.52852 0.90912 -0.32300
O 	O 	0.13793 0.56744 0.98775 -0.44100
O 	O 	0.26496 0.51458 0.94778 -0.49700
C 	C 	0.21962 0.65699 0.85202 0.26800
C 	C 	0.27579 0.61391 0.02990 0.27300
H 	H 	0.29939 0.50812 0.92353 0.18100
Co	Co	0.07204 0.72124 0.57096 1.18800
O 	O 	0.10364 0.76105 0.64099 -0.33800
Co	Co	0.04528 0.69180 0.44067 1.18900
O 	O 	0.10815 0.74015 0.49772 -0.43900
O 	O 	0.97448 0.71585 0.47789 -0.39500
O 	O 	0.14878 0.69053 0.60868 -0.30800
C 	C 	0.97115 0.76236 0.50797 0.30100
O 	O 	0.07560 0.77709 0.42437 -0.32200
C 	C 	0.06655 0.63044 0.35625 0.26400
C 	C 	0.02648 0.62010 0.54070 0.28200
O 	O 	0.01695 0.64823 0.37156 -0.32700
O 	O 	0.10590 0.64912 0.38838 -0.30500
O 	O 	0.02396 0.64545 0.58754 -0.32000
O 	O 	0.06250 0.64585 0.50907 -0.43300
O 	O 	0.00303 0.76879 0.55251 -0.49500
C 	C 	0.14784 0.72849 0.64658 0.26800
C 	C 	0.10199 0.78647 0.46985 0.27400
H 	H 	0.99477 0.80190 0.57791 0.18100
Co	Co	0.71442 0.93013 0.57222 1.18800
O 	O 	0.75419 0.89666 0.64153 -0.33800
Co	Co	0.68307 0.95765 0.44254 1.18900
O 	O 	0.72997 0.89285 0.49883 -0.43900
O 	O 	0.71091 0.02765 0.47887 -0.39700
O 	O 	0.68080 0.85507 0.61069 -0.30800
C 	C 	0.75806 0.02947 0.50818 0.29800
O 	O 	0.76650 0.92389 0.42460 -0.32300
C 	C 	0.61941 0.93810 0.35919 0.26500
C 	C 	0.61618 0.98177 0.54418 0.29100
O 	O 	0.63955 0.98708 0.37382 -0.32700
O 	O 	0.63676 0.89843 0.39166 -0.30500
O 	O 	0.64221 0.98255 0.59065 -0.32200
O 	O 	0.63792 0.94364 0.51203 -0.43400
O 	O 	0.76495 0.99650 0.55201 -0.49100
C 	C 	0.71963 0.85408 0.64776 0.26700
C 	C 	0.77577 0.89717 0.46988 0.27500
H 	H 	0.79938 0.00296 0.57625 0.17700
Co	Co	0.92180 0.28800 0.57192 1.18700
O 	O 	0.88831 0.24830 0.64128 -0.34000
Co	Co	0.94970 0.31958 0.44228 1.18700
O 	O 	0.88479 0.27244 0.49835 -0.44000
O 	O 	0.01948 0.29129 0.47866 -0.39200
O 	O 	0.84678 0.32173 0.61037 -0.30900
C 	C 	0.02093 0.24402 0.50789 0.31200
O 	O 	0.91614 0.23618 0.42402 -0.32600
C 	C 	0.93035 0.38350 0.35903 0.26500
C 	C 	0.97356 0.38629 0.54405 0.28200
O 	O 	0.97928 0.36331 0.37370 -0.33100
O 	O 	0.89065 0.36605 0.39138 -0.30600
O 	O 	0.97421 0.36022 0.59051 -0.32400
O 	O 	0.93552 0.36456 0.51181 -0.43400
O 	O 	0.98816 0.23745 0.55189 -0.50600
C 	C 	0.84581 0.28296 0.64753 0.26700
C 	C 	0.88940 0.22673 0.46923 0.27400
H 	H 	0.99458 0.20308 0.57624 0.18400
Co	Co	0.28146 0.08053 0.57088 1.18700
O 	O 	0.24174 0.11220 0.64094 -0.34000
Co	Co	0.31107 0.05327 0.44064 1.18600
O 	O 	0.26244 0.11632 0.49743 -0.43900
O 	O 	0.28657 0.98259 0.47792 -0.39000
O 	O 	0.31216 0.15738 0.60853 -0.30800
C 	C 	0.24001 0.97970 0.50795 0.31400
O 	O 	0.22591 0.08331 0.42399 -0.32500
C 	C 	0.37260 0.07439 0.35630 0.26400
C 	C 	0.38253 0.03481 0.54081 0.28200
O 	O 	0.35482 0.02477 0.37168 -0.33100
O 	O 	0.35380 0.11383 0.38829 -0.30600
O 	O 	0.35721 0.03247 0.58766 -0.32300
O 	O 	0.35681 0.07074 0.50907 -0.43600
O 	O 	0.23408 0.01132 0.55274 -0.50800
C 	C 	0.27433 0.15640 0.64654 0.26800
C 	C 	0.21628 0.10972 0.46941 0.27300
H 	H 	0.20119 0.00299 0.57835 0.18500
C 	C 	0.16436 0.14293 0.47966 0.04500
N 	N 	0.12773 0.15510 0.43856 -0.04600
N 	N 	0.08092 0.18611 0.44791 -0.05200
C 	C 	0.06870 0.20445 0.49887 0.03500
N 	N 	0.10489 0.19146 0.54012 -0.05600
N 	N 	0.15214 0.16122 0.53062 -0.06700
C 	C 	0.44436 0.02699 0.53759 0.04800
N 	N 	0.47798 0.04557 0.57878 -0.04500
N 	N 	0.53344 0.03301 0.57952 -0.04500
C 	C 	0.55682 0.00095 0.53941 0.03800
N 	N 	0.52355 0.98348 0.49735 -0.05000
N 	N 	0.46796 0.99645 0.49641 -0.05500
C 	C 	0.79715 0.07764 0.49927 0.03600
N 	N 	0.80878 0.11465 0.54028 -0.05700
N 	N 	0.83794 0.16258 0.53058 -0.06700
C 	C 	0.85630 0.17475 0.47962 0.04300
N 	N 	0.84549 0.13732 0.43882 -0.04700
N 	N 	0.81561 0.08983 0.44836 -0.05400
C 	C 	0.99273 0.44568 0.53932 0.04500
N 	N 	0.02455 0.46914 0.57956 -0.04200
N 	N 	0.03710 0.52463 0.57881 -0.04500
C 	C 	0.01874 0.55822 0.53749 0.05800
N 	N 	0.98845 0.53454 0.49619 -0.06300
N 	N 	0.97549 0.47892 0.49713 -0.05500
C 	C 	0.92251 0.80092 0.49888 0.03700
N 	N 	0.88607 0.81337 0.54009 -0.05700
N 	N 	0.83885 0.84373 0.53068 -0.06700
C 	C 	0.82690 0.86261 0.47984 0.04400
N 	N 	0.86364 0.85072 0.43876 -0.04600
N 	N 	0.91042 0.81963 0.44802 -0.05300
C 	C 	0.13646 0.83767 0.47986 0.04600
N 	N 	0.14968 0.87377 0.43860 -0.04500
N 	N 	0.18204 0.91974 0.44777 -0.05100
C 	C 	0.20083 0.93158 0.49867 0.03600
N 	N 	0.18702 0.89581 0.54002 -0.05500
N 	N 	0.15541 0.84940 0.53071 -0.06600
C 	C 	0.17405 0.71771 0.69964 0.06200
N 	N 	0.21575 0.67761 0.70462 -0.04800
N 	N 	0.23307 0.66065 0.75358 -0.04900
C 	C 	0.20895 0.68311 0.79891 0.06200
N 	N 	0.16901 0.72496 0.79391 -0.04800
N 	N 	0.15192 0.74214 0.74495 -0.04900
C 	C 	0.10343 0.58523 0.19671 0.06800
N 	N 	0.13345 0.56185 0.23831 -0.04800
N 	N 	0.12155 0.57625 0.28940 -0.04800
C 	C 	0.07856 0.61350 0.30029 0.06800
N 	N 	0.04788 0.63610 0.25874 -0.04700
N 	N 	0.06064 0.62271 0.20758 -0.04800
C 	C 	0.31991 0.21724 0.79902 0.06100
N 	N 	0.34243 0.24135 0.75371 -0.05000
N 	N 	0.32550 0.22406 0.70473 -0.04800
C 	C 	0.28535 0.18241 0.69969 0.06200
N 	N 	0.26094 0.16022 0.74500 -0.05000
N 	N 	0.27810 0.17727 0.79397 -0.04900
C 	C 	0.38981 0.08631 0.30038 0.06600
N 	N 	0.42696 0.12943 0.28958 -0.04900
N 	N 	0.44144 0.14139 0.23851 -0.04900
C 	C 	0.41823 0.11133 0.19686 0.06700
N 	N 	0.38087 0.06839 0.20765 -0.04900
N 	N 	0.36741 0.05556 0.25877 -0.04800
C 	C 	0.35630 0.33632 0.02016 0.05500
N 	N 	0.33794 0.34850 0.96920 -0.07500
N 	N 	0.30878 0.39643 0.95950 -0.06600
C 	C 	0.29716 0.43343 0.00051 0.06300
N 	N 	0.31562 0.42124 0.05142 -0.05500
N 	N 	0.34549 0.37374 0.06097 -0.04600
C 	C 	0.70896 0.82796 0.70087 0.06200
N 	N 	0.73308 0.85043 0.74619 -0.05000
N 	N 	0.71576 0.83348 0.79515 -0.04900
C 	C 	0.67406 0.79337 0.80013 0.06100
N 	N 	0.65193 0.76894 0.75482 -0.05000
N 	N 	0.66902 0.78611 0.70586 -0.04800
C 	C 	0.60341 0.92586 0.30306 0.06800
N 	N 	0.63345 0.94923 0.26147 -0.04700
N 	N 	0.62156 0.93482 0.21037 -0.04700
C 	C 	0.57856 0.89758 0.19947 0.06800
N 	N 	0.54785 0.87500 0.24101 -0.04700
N 	N 	0.56061 0.88839 0.29217 -0.04800
C 	C 	0.49271 0.06539 0.96044 0.03700
N 	N 	0.47549 0.03215 0.00263 -0.05000
N 	N 	0.48845 0.97653 0.00356 -0.04700
C 	C 	0.51873 0.95285 0.96225 0.04300
N 	N 	0.53708 0.98645 0.92094 -0.04100
N 	N 	0.52452 0.04194 0.92020 -0.04800
C 	C 	0.32692 0.64845 0.01992 0.05600
N 	N 	0.36369 0.66035 0.06100 -0.04600
N 	N 	0.41046 0.69142 0.05173 -0.05500
C 	C 	0.42254 0.71013 0.00087 0.06300
N 	N 	0.38608 0.69768 0.95966 -0.06600
N 	N 	0.33886 0.66733 0.96908 -0.07500
C 	C 	0.78535 0.32868 0.80006 0.06100
N 	N 	0.76095 0.35089 0.75475 -0.05000
N 	N 	0.77813 0.33384 0.70578 -0.04900
C 	C 	0.81992 0.29385 0.70074 0.06100
N 	N 	0.84243 0.26974 0.74606 -0.05100
N 	N 	0.82549 0.28703 0.79504 -0.04900
C 	C 	0.88983 0.42477 0.19939 0.06700
N 	N 	0.86740 0.45550 0.24099 -0.04800
N 	N 	0.88085 0.44265 0.29212 -0.04900
C 	C 	0.91823 0.39974 0.30291 0.06600
N 	N 	0.94147 0.36970 0.26126 -0.04900
N 	N 	0.92700 0.38168 0.21019 -0.04900
C 	C 	0.05683 0.51013 0.96037 0.03900
N 	N 	0.03344 0.47806 0.92026 -0.04300
N 	N 	0.97798 0.46551 0.92099 -0.04700
C 	C 	0.94436 0.48410 0.96217 0.04000
N 	N 	0.96798 0.51463 0.00336 -0.05300
N 	N 	0.02356 0.52760 0.00243 -0.04400
C 	C 	0.70083 0.57951 0.00108 0.06300
N 	N 	0.68702 0.61529 0.95973 -0.06700
N 	N 	0.65542 0.66169 0.96905 -0.07500
C 	C 	0.63647 0.67342 0.01990 0.05600
N 	N 	0.64970 0.63731 0.06116 -0.04600
N 	N 	0.68205 0.59134 0.05198 -0.05500
C 	C 	0.56871 0.30661 0.00092 0.06300
N 	N 	0.60489 0.31960 0.95965 -0.06600
N 	N 	0.65214 0.34985 0.96915 -0.07600
C 	C 	0.66438 0.36815 0.02010 0.05600
N 	N 	0.62776 0.35597 0.06121 -0.04600
N 	N 	0.58095 0.32495 0.05187 -0.05500
