data_crystal

_cell_length_a 26.43644
_cell_length_b 27.14433
_cell_length_c 38.59035
_cell_angle_alpha 61.02378
_cell_angle_beta  118.68510
_cell_angle_gamma 133.22105

_symmetry_space_group_name_	'P 1'
_symmetry_space_group_name_H-M	'P 1'

loop_
_symmetry_equiv_pos_as_xyz
  x,y,z

loop_
_atom_site_label
_atom_site_type_symbol
_atom_site_fract_x
_atom_site_fract_y
_atom_site_fract_z
_atom_site_charge
Co	Co	0.08107 0.03410 0.08082 1.19000
Co	Co	0.01075 0.08054 0.09795 1.17500
Co	Co	0.11293 0.92743 0.09629 1.16600
O 	O 	0.06952 0.10960 0.06352 -0.46900
C 	C 	0.04923 0.19226 0.12465 0.24300
O 	O 	0.07408 0.16853 0.11905 -0.38200
O 	O 	0.09979 0.88468 0.19140 -0.37400
O 	O 	0.07597 0.96174 0.11069 -0.77200
Co	Co	0.04155 0.99180 0.57853 1.17900
Co	Co	0.00206 0.05877 0.60438 1.17700
Co	Co	0.04026 0.86534 0.58601 1.15700
O 	O 	0.04742 0.07718 0.56560 -0.46800
C 	C 	0.08558 0.16001 0.65803 0.26400
C 	C 	0.08076 0.82292 0.67571 0.26400
O 	O 	0.03414 0.12208 0.67716 -0.39200
O 	O 	0.07329 0.15206 0.62259 -0.38000
O 	O 	0.04326 0.82975 0.68454 -0.38000
O 	O 	0.02563 0.91381 0.60595 -0.77800
C 	C 	0.08566 0.02075 0.92136 -0.03800
C 	C 	0.09146 0.02091 0.95935 0.01900
C 	C 	0.01566 0.03883 0.78381 -0.02500
C 	C 	0.02729 0.04354 0.82183 -0.01700
C 	C 	0.05483 0.10861 0.82621 0.07700
H 	H 	0.02734 0.08393 0.75812 0.03700
C 	C 	0.00825 0.96402 0.34125 -0.06000
C 	C 	0.00865 0.97207 0.30257 -0.01500
C 	C 	0.00781 0.01668 0.40332 -0.07200
C 	C 	0.00865 0.00804 0.44246 0.00800
C 	C 	0.05935 0.06743 0.46009 0.06600
C 	C 	0.05587 0.95062 0.37681 0.08400
N 	N 	0.09400 0.93988 0.40534 -0.12400
H 	H 	0.04558 0.96952 0.29964 0.04000
H 	H 	0.04564 0.06745 0.38686 0.05200
H 	H 	0.14678 0.18911 0.73281 0.09100
C 	C 	0.09398 0.77025 0.70327 0.00100
C 	C 	0.09780 0.26439 0.12861 0.00600
C 	C 	0.07471 0.30397 0.11828 -0.05200
H 	H 	0.07551 0.39378 0.13569 0.04700
H 	H 	0.01923 0.28467 0.10835 0.04100
N 	N 	0.13487 0.78307 0.21167 -0.15300
H 	H 	0.08097 0.75553 0.19672 0.08400
Co	Co	0.02735 0.90705 0.14614 1.17700
O 	O 	0.04227 0.00674 0.13289 -0.58900
O 	O 	0.01685 0.97296 0.63421 -0.59900
C 	C 	0.01786 0.98712 0.89498 0.00200
C 	C 	0.03016 0.98561 0.97209 -0.12100
C 	C 	0.01017 0.98453 0.85504 -0.01900
C 	C 	0.05883 0.70939 0.69285 -0.05100
H 	H 	0.01893 0.69598 0.66484 0.04000
H 	H 	0.10546 0.65881 0.22081 0.05000
O 	O 	0.03990 0.82383 0.12160 -0.42500
H 	H 	0.06185 0.61889 0.67901 0.04700
O 	O 	0.04001 0.91826 0.04069 -0.40300
O 	O 	0.10717 0.86299 0.64299 -0.38900
C 	C 	0.03672 0.97079 0.01554 0.30500
O 	O 	0.02445 0.99999 0.02705 -0.40100
C 	C 	0.11737 0.38645 0.15284 -0.08200
C 	C 	0.10879 0.65629 0.69679 -0.08300
C 	C 	0.10429 0.68980 0.71272 0.00800
N 	N 	0.09982 0.11504 0.47418 -0.11800
N 	N 	0.07693 0.16073 0.82972 -0.11900
O 	O 	0.12135 0.96026 0.55886 -0.41000
H 	H 	0.14358 0.04564 0.97990 0.03200
C 	C 	0.12849 0.35596 0.13904 0.00800
C 	C 	0.14930 0.05332 0.91020 0.08700
C 	C 	0.15407 0.22191 0.67193 0.00300
C 	C 	0.15313 0.89530 0.18600 0.26800
O 	O 	0.14651 0.04004 0.58200 -0.37800
H 	H 	0.14538 0.58293 0.69680 0.08000
H 	H 	0.16269 0.29852 0.61313 0.05000
N 	N 	0.17565 0.22765 0.71030 -0.15200
C 	C 	0.16770 0.01614 0.57323 0.28800
N 	N 	0.16282 0.28999 0.15462 -0.15300
H 	H 	0.16173 0.49350 0.17511 0.08100
C 	C 	0.16046 0.70244 0.22854 -0.09200
N 	N 	0.15833 0.78788 0.72885 -0.15200
C 	C 	0.16301 0.40868 0.18899 0.06800
C 	C 	0.16506 0.73932 0.73467 0.07900
O 	O 	0.17926 0.93909 0.15337 -0.39100
C 	C 	0.17647 0.85014 0.21373 -0.00300
O 	O 	0.18637 0.02713 0.06768 -0.40000
C 	C 	0.17614 0.67404 0.70372 0.06800
H 	H 	0.17321 0.61289 0.22257 0.05000
C 	C 	0.18585 0.28762 0.64544 -0.04200
C 	C 	0.18158 0.34559 0.16124 0.08000
C 	C 	0.17926 0.76936 0.21817 0.07600
O 	O 	0.19031 0.09645 0.08783 -0.37900
N 	N 	0.18594 0.63061 0.70488 -0.16800
N 	N 	0.18164 0.46429 0.19545 -0.16900
H 	H 	0.18215 0.26030 0.17503 0.09000
H 	H 	0.21371 0.29097 0.76448 0.06100
O 	O 	0.97501 0.05628 0.19951 -0.36600
Co	Co	0.98038 0.86504 0.64260 1.19800
O 	O 	0.98014 0.15824 0.11893 -0.37200
C 	C 	0.96806 0.99970 0.22677 0.27700
O 	O 	0.96785 0.86833 0.53151 -0.38300
C 	C 	0.95692 0.96786 0.73595 0.29700
C 	C 	0.98492 0.97519 0.77800 -0.05400
N 	N 	0.20027 0.07943 0.90125 -0.11900
H 	H 	0.20157 0.83882 0.73178 0.08600
C 	C 	0.73821 0.32780 0.01081 -0.00400
C 	C 	0.78644 0.39724 0.01468 -0.04100
C 	C 	0.76258 0.42679 0.01881 -0.00600
C 	C 	0.69053 0.38840 0.01736 -0.04200
C 	C 	0.64309 0.31893 0.01524 -0.00600
C 	C 	0.66661 0.28863 0.01192 -0.04300
H 	H 	0.84203 0.42776 0.01505 0.04400
H 	H 	0.67257 0.41102 0.02118 0.04500
H 	H 	0.62974 0.23410 0.01156 0.04400
C 	C 	0.71245 0.29269 0.52686 -0.00600
C 	C 	0.63744 0.25278 0.51560 -0.04300
C 	C 	0.60242 0.27555 0.51449 -0.00600
C 	C 	0.64235 0.34165 0.52051 -0.04200
C 	C 	0.71701 0.38278 0.53081 -0.00600
C 	C 	0.75231 0.35831 0.53412 -0.04200
H 	H 	0.60628 0.20254 0.50963 0.04300
H 	H 	0.61548 0.35902 0.52028 0.04400
H 	H 	0.81002 0.38872 0.54377 0.04700
C 	C 	0.31418 0.65665 0.23586 -0.00900
C 	C 	0.38033 0.70389 0.22501 -0.04000
C 	C 	0.40505 0.68020 0.21601 -0.00900
C 	C 	0.36156 0.61047 0.21472 -0.04300
C 	C 	0.29498 0.56329 0.22463 -0.00800
C 	C 	0.27222 0.58610 0.23604 -0.04300
H 	H 	0.41255 0.75870 0.22342 0.04100
H 	H 	0.37927 0.59329 0.20562 0.04200
H 	H 	0.22193 0.54885 0.24511 0.04100
C 	C 	0.29113 0.62925 0.72875 -0.00700
C 	C 	0.36537 0.67765 0.73207 -0.04300
C 	C 	0.40281 0.66154 0.72872 -0.00800
C 	C 	0.36610 0.59716 0.72153 -0.04200
C 	C 	0.29237 0.54840 0.71831 -0.00800
C 	C 	0.25490 0.56383 0.72256 -0.04200
H 	H 	0.39375 0.72867 0.73597 0.04200
H 	H 	0.39440 0.58571 0.71715 0.04300
H 	H 	0.19804 0.52555 0.72067 0.03900
Co	Co	0.95394 0.95191 0.16240 1.18700
C 	C 	0.22279 0.08238 0.08071 0.27900
Co	Co	0.90973 0.05123 0.14165 1.17100
C 	C 	0.97231 0.79726 0.11247 0.30600
O 	O 	0.85000 0.04422 0.08279 -0.38000
O 	O 	0.96631 0.02854 0.13543 -0.74400
C 	C 	0.88202 0.08289 0.05257 0.26600
O 	O 	0.96703 0.87709 0.18006 -0.45400
C 	C 	0.80457 0.89788 0.14691 0.27500
O 	O 	0.92487 0.07540 0.05053 -0.36900
O 	O 	0.83300 0.94662 0.16356 -0.39500
O 	O 	0.84542 0.89614 0.13790 -0.39200
O 	O 	0.97364 0.96022 0.21978 -0.36700
O 	O 	0.95343 0.82925 0.11503 -0.38500
Co	Co	0.93674 0.93033 0.66623 1.18900
Co	Co	0.92689 0.05163 0.65377 1.17600
C 	C 	0.89604 0.75015 0.60371 0.27800
O 	O 	0.93607 0.12256 0.59755 -0.38400
O 	O 	0.96352 0.01253 0.64360 -0.75000
C 	C 	0.90680 0.10168 0.56436 0.27400
O 	O 	0.93182 0.84547 0.67985 -0.45700
C 	C 	0.79682 0.90962 0.64192 0.27000
C 	C 	0.97383 0.92644 0.50893 0.29400
O 	O 	0.91665 0.06137 0.56283 -0.37400
O 	O 	0.97384 0.96119 0.52397 -0.37800
O 	O 	0.82358 0.97644 0.62927 -0.39400
O 	O 	0.82915 0.88803 0.64200 -0.38900
O 	O 	0.91164 0.98289 0.71063 -0.40500
O 	O 	0.97408 0.94283 0.72483 -0.37600
O 	O 	0.95799 0.76548 0.60928 -0.38900
O 	O 	0.89276 0.79178 0.60957 -0.38900
C 	C 	0.95675 0.95493 0.90682 -0.04500
C 	C 	0.96248 0.95348 0.94534 0.05200
C 	C 	0.98340 0.92190 0.84994 -0.02200
C 	C 	0.97028 0.91677 0.81159 0.00800
C 	C 	0.93926 0.85075 0.80670 0.08200
C 	C 	0.89854 0.91691 0.95769 0.07200
N 	N 	0.91439 0.79784 0.80278 -0.11000
N 	N 	0.84733 0.88756 0.96761 -0.10900
H 	H 	0.90464 0.92980 0.88637 0.05200
H 	H 	0.97119 0.87674 0.87561 0.04700
C 	C 	0.96150 0.96903 0.34508 0.04100
C 	C 	0.91487 0.98080 0.31030 -0.06100
C 	C 	0.91454 0.98804 0.27175 0.02400
C 	C 	0.96271 0.98503 0.26761 -0.05300
C 	C 	0.95927 0.95969 0.38565 0.03300
C 	C 	0.96084 0.94152 0.46438 -0.06400
C 	C 	0.90873 0.88590 0.44528 0.01000
C 	C 	0.90816 0.89445 0.40631 -0.04100
C 	C 	0.85616 0.83555 0.38816 0.09000
C 	C 	0.86339 0.99687 0.23673 0.05200
N 	N 	0.81452 0.78840 0.37359 -0.11800
N 	N 	0.82234 0.00399 0.20880 -0.11400
H 	H 	0.87819 0.98358 0.31334 0.05400
H 	H 	0.87056 0.83508 0.46155 0.04100
C 	C 	0.22074 0.29623 0.70872 0.08100
C 	C 	0.23010 0.32381 0.73593 -0.09000
C 	C 	0.25639 0.39401 0.72337 0.02700
C 	C 	0.26124 0.43131 0.68358 0.06900
C 	C 	0.24284 0.40104 0.65478 -0.08000
C 	C 	0.22856 0.33500 0.66899 0.00800
N 	N 	0.25789 0.48373 0.67410 -0.16900
C 	C 	0.25452 0.48270 0.70846 0.07300
C 	C 	0.24951 0.42481 0.73914 -0.08800
H 	H 	0.23607 0.42595 0.62255 0.05200
H 	H 	0.26123 0.41891 0.77136 0.05600
H 	H 	0.27525 0.52725 0.64958 0.08300
C 	C 	0.56302 0.79695 0.69543 0.06900
C 	C 	0.58503 0.83545 0.65866 -0.08000
C 	C 	0.62236 0.82437 0.65048 0.00700
C 	C 	0.63982 0.77862 0.67863 0.08200
C 	C 	0.61906 0.74111 0.71577 -0.09200
C 	C 	0.58116 0.75170 0.72388 0.02900
N 	N 	0.50147 0.77499 0.69859 -0.16900
C 	C 	0.47915 0.71533 0.72829 0.07600
C 	C 	0.52792 0.69978 0.74508 -0.08900
N 	N 	0.69994 0.79897 0.67454 -0.15200
C 	C 	0.72179 0.85809 0.64442 0.00300
C 	C 	0.67469 0.87538 0.62866 -0.04200
H 	H 	0.57178 0.87136 0.63669 0.05000
H 	H 	0.63242 0.70527 0.73773 0.05800
H 	H 	0.51479 0.64790 0.76043 0.05500
H 	H 	0.68913 0.92781 0.61390 0.04500
H 	H 	0.46723 0.78726 0.67471 0.08300
H 	H 	0.73417 0.78628 0.69795 0.08900
C 	C 	0.23161 0.75380 0.74351 -0.09200
C 	C 	0.23593 0.72156 0.72666 0.02700
C 	C 	0.25116 0.64883 0.72953 0.07400
C 	C 	0.28393 0.70576 0.74337 -0.09100
H 	H 	0.27879 0.79130 0.76116 0.05500
H 	H 	0.32788 0.72129 0.76975 0.05300
C 	C 	0.22730 0.36785 0.19741 -0.09100
C 	C 	0.21639 0.39873 0.21108 0.02700
C 	C 	0.24696 0.49061 0.22111 0.07500
C 	C 	0.27032 0.45113 0.23159 -0.08900
H 	H 	0.26915 0.36050 0.21456 0.05700
H 	H 	0.32575 0.47030 0.24172 0.05400
C 	C 	0.64430 0.76513 0.17804 0.08300
C 	C 	0.62128 0.74012 0.21291 -0.09000
C 	C 	0.57905 0.75600 0.21055 0.03000
C 	C 	0.55572 0.79062 0.17411 0.07000
C 	C 	0.57584 0.81293 0.13873 -0.07900
C 	C 	0.62106 0.80008 0.14143 0.01000
N 	N 	0.70947 0.78777 0.18023 -0.15100
C 	C 	0.72943 0.83830 0.14595 0.00500
C 	C 	0.67521 0.84656 0.12091 -0.04300
N 	N 	0.49401 0.77342 0.17361 -0.16900
C 	C 	0.47791 0.72795 0.20972 0.07600
C 	C 	0.52926 0.71535 0.23339 -0.08900
H 	H 	0.63878 0.71247 0.24140 0.06000
H 	H 	0.55813 0.84048 0.11032 0.05200
H 	H 	0.68437 0.89475 0.09900 0.04600
H 	H 	0.51941 0.66799 0.25667 0.05600
H 	H 	0.74571 0.78494 0.20770 0.09200
H 	H 	0.45630 0.77604 0.14709 0.08400
C 	C 	0.28693 0.75113 0.25745 0.06900
C 	C 	0.30461 0.81781 0.24768 -0.08000
C 	C 	0.24912 0.82540 0.22658 0.00500
C 	C 	0.21585 0.69442 0.24814 0.02600
N 	N 	0.33077 0.74151 0.25765 -0.16800
C 	C 	0.28855 0.68003 0.24768 0.07500
C 	C 	0.21683 0.64929 0.24158 -0.09000
C 	C 	0.24856 0.87675 0.22525 -0.04300
H 	H 	0.35954 0.86229 0.25429 0.05100
H 	H 	0.29272 0.93161 0.22089 0.04500
H 	H 	0.38399 0.78101 0.25587 0.08300
C 	C 	0.77570 0.12622 0.52389 0.08100
C 	C 	0.73822 0.12116 0.54326 -0.09000
C 	C 	0.76150 0.18267 0.54765 0.02700
C 	C 	0.81318 0.24732 0.52872 0.07300
C 	C 	0.84729 0.25318 0.50672 -0.07900
C 	C 	0.82950 0.19143 0.50590 0.01300
N 	N 	0.79065 0.08036 0.53796 -0.15300
C 	C 	0.85564 0.11577 0.53198 0.00800
C 	C 	0.87983 0.18442 0.51058 -0.04200
N 	N 	0.80526 0.29587 0.52144 -0.16800
C 	C 	0.74860 0.26203 0.53612 0.07700
C 	C 	0.71983 0.19139 0.55255 -0.08800
H 	H 	0.69654 0.07075 0.55743 0.05600
H 	H 	0.88876 0.30382 0.49256 0.05800
H 	H 	0.93584 0.22747 0.51194 0.05500
H 	H 	0.66584 0.15021 0.55667 0.05300
H 	H 	0.76940 0.03491 0.56093 0.09500
H 	H 	0.82337 0.34233 0.49872 0.08800
C 	C 	0.74409 0.52060 0.53931 0.07200
C 	C 	0.75351 0.58380 0.52684 -0.08000
C 	C 	0.76431 0.60721 0.55695 0.01100
C 	C 	0.77802 0.57575 0.59811 0.08200
C 	C 	0.77893 0.51823 0.61036 -0.08800
C 	C 	0.75533 0.48825 0.57986 0.02600
N 	N 	0.74752 0.49791 0.51688 -0.16800
C 	C 	0.75680 0.44720 0.54293 0.07500
C 	C 	0.76697 0.44366 0.58300 -0.08500
N 	N 	0.81826 0.62221 0.62060 -0.15100
C 	C 	0.83075 0.68340 0.59431 0.00300
C 	C 	0.79825 0.67601 0.55441 -0.04200
H 	H 	0.75516 0.61460 0.49568 0.05700
H 	H 	0.79969 0.49974 0.64180 0.05900
H 	H 	0.76028 0.39952 0.60859 0.05700
H 	H 	0.81716 0.71836 0.52803 0.05100
H 	H 	0.72537 0.50230 0.48559 0.08700
H 	H 	0.85169 0.61840 0.64933 0.09200
C 	C 	0.44748 0.15723 0.55112 0.07100
C 	C 	0.39504 0.09274 0.57082 -0.07600
C 	C 	0.32716 0.07718 0.55888 0.00600
C 	C 	0.31276 0.12445 0.52905 0.08500
C 	C 	0.36489 0.18812 0.50863 -0.08900
C 	C 	0.43278 0.20376 0.52106 0.02800
N 	N 	0.50307 0.16937 0.54701 -0.16800
C 	C 	0.52606 0.22545 0.51510 0.07600
C 	C 	0.48084 0.24583 0.49699 -0.08800
N 	N 	0.26126 0.11579 0.53556 -0.15100
C 	C 	0.24090 0.06209 0.56870 -0.00100
C 	C 	0.28240 0.03830 0.58464 -0.03100
H 	H 	0.40662 0.05642 0.59452 0.05400
H 	H 	0.35377 0.22489 0.48518 0.05900
H 	H 	0.49263 0.29524 0.47584 0.05400
H 	H 	0.26950 0.98859 0.60579 0.03600
H 	H 	0.53380 0.15225 0.57018 0.08500
H 	H 	0.23159 0.13493 0.51393 0.09600
C 	C 	0.82952 0.26417 0.02263 0.07300
C 	C 	0.88676 0.27453 0.01898 -0.08200
C 	C 	0.87142 0.22538 0.00493 0.02100
C 	C 	0.80129 0.16872 0.99443 0.07500
C 	C 	0.74410 0.16186 0.99522 -0.09100
C 	C 	0.75996 0.20899 0.01100 0.02900
N 	N 	0.83118 0.31602 0.02102 -0.16800
C 	C 	0.76259 0.29478 0.00717 0.07600
C 	C 	0.71686 0.22803 0.00087 -0.08500
N 	N 	0.79933 0.11305 0.00319 -0.14900
C 	C 	0.86714 0.13255 0.01997 0.00900
C 	C 	0.91344 0.20267 0.02043 -0.04900
H 	H 	0.94130 0.31765 0.02811 0.06000
H 	H 	0.68944 0.11865 0.98637 0.05700
H 	H 	0.66382 0.20588 0.98107 0.05200
H 	H 	0.96524 0.22597 0.04129 0.05800
H 	H 	0.87615 0.36781 0.01939 0.08700
H 	H 	0.75436 0.06150 0.00895 0.09400
C 	C 	0.82245 0.57578 0.03516 0.06900
C 	C 	0.84378 0.64391 0.02514 -0.07100
C 	C 	0.88770 0.67895 0.05648 0.00900
C 	C 	0.90723 0.64712 0.09580 0.08500
C 	C 	0.88605 0.57920 0.10584 -0.08900
C 	C 	0.84256 0.54424 0.07454 0.02900
N 	N 	0.80677 0.54619 0.00854 -0.16600
C 	C 	0.81375 0.49335 0.03081 0.07600
C 	C 	0.84011 0.49366 0.07200 -0.08700
N 	N 	0.92372 0.67709 0.12241 -0.15000
C 	C 	0.91875 0.73118 0.10022 -0.00400
C 	C 	0.89218 0.73100 0.05894 -0.03700
H 	H 	0.82806 0.66877 0.99435 0.05300
H 	H 	0.90211 0.55454 0.13660 0.06000
H 	H 	0.83660 0.44996 0.09702 0.05800
H 	H 	0.89723 0.77530 0.03395 0.05900
H 	H 	0.77580 0.54955 0.97884 0.08400
H 	H 	0.95404 0.67283 0.15224 0.09200
C 	C 	0.36939 0.19026 0.04000 0.08200
C 	C 	0.41535 0.24698 0.01405 -0.08300
C 	C 	0.48525 0.26699 0.02645 0.02400
C 	C 	0.50792 0.23160 0.06302 0.07300
C 	C 	0.46210 0.17607 0.08933 -0.07900
C 	C 	0.39198 0.15535 0.07630 0.01100
N 	N 	0.31291 0.18035 0.04106 -0.15000
C 	C 	0.29705 0.13642 0.07760 0.00200
C 	C 	0.34800 0.12299 0.10111 -0.04400
N 	N 	0.55969 0.23592 0.06031 -0.16900
C 	C 	0.57197 0.27524 0.02269 0.07500
C 	C 	0.52484 0.29346 0.00038 -0.08300
H 	H 	0.39734 0.27384 0.98532 0.05500
H 	H 	0.47947 0.14839 0.11786 0.05500
H 	H 	0.34075 0.07931 0.12721 0.04700
H 	H 	0.53103 0.33475 0.97287 0.05200
H 	H 	0.27676 0.18719 0.01517 0.08900
H 	H 	0.59498 0.22627 0.08521 0.08700
