data_crystal

_cell_length_a 18.58240
_cell_length_b 18.81132
_cell_length_c 35.17772
_cell_angle_alpha 95.42935
_cell_angle_beta  95.43045
_cell_angle_gamma 126.37663

_symmetry_space_group_name_	'P 1'
_symmetry_space_group_name_H-M	'P 1'

loop_
_symmetry_equiv_pos_as_xyz
  x,y,z

loop_
_atom_site_label
_atom_site_type_symbol
_atom_site_fract_x
_atom_site_fract_y
_atom_site_fract_z
_atom_site_charge
C 	C 	0.90376 0.99773 0.95852 0.11600
N 	N 	0.99567 0.05139 0.96195 -0.13200
C 	C 	0.04142 0.01607 0.96428 0.12100
N 	N 	0.99515 0.92661 0.96289 -0.13300
C 	C 	0.90351 0.87219 0.95976 0.12000
N 	N 	0.85729 0.90769 0.95784 -0.13200
C 	C 	0.95270 0.03620 0.50343 0.12200
N 	N 	0.89680 0.94500 0.49777 -0.13800
C 	C 	0.93122 0.89878 0.49364 0.12100
N 	N 	0.02177 0.94384 0.49528 -0.13800
C 	C 	0.07810 0.03476 0.50062 0.12000
N 	N 	0.04365 0.08131 0.50454 -0.13500
Cu	Cu	0.75144 0.34321 0.95726 0.92900
Cu	Cu	0.74850 0.27938 0.04114 0.87700
Cu	Cu	0.61074 0.29941 0.00824 0.89900
Cu	Cu	0.58196 0.33732 0.92975 0.90200
C 	C 	0.68685 0.31722 0.87556 0.34100
O 	O 	0.80397 0.47467 0.95591 -0.33900
C 	C 	0.67475 0.33304 0.09368 0.33700
O 	O 	0.61031 0.27016 0.95431 -0.63700
O 	O 	0.74383 0.35995 0.01272 -0.64200
O 	O 	0.81047 0.28166 0.96071 -0.35700
O 	O 	0.71529 0.18939 0.99863 -0.42800
O 	O 	0.64706 0.35394 0.88526 -0.35900
O 	O 	0.48019 0.23269 0.00072 -0.38000
C 	C 	0.42845 0.23239 0.97207 0.29900
C 	C 	0.76267 0.50811 0.96802 0.28200
O 	O 	0.67965 0.45349 0.97435 -0.38500
O 	O 	0.46354 0.28590 0.94651 -0.38500
O 	O 	0.73505 0.30856 0.90216 -0.35800
C 	C 	0.77140 0.20663 0.97468 0.28500
O 	O 	0.60937 0.31025 0.06476 -0.38000
O 	O 	0.74754 0.34074 0.08713 -0.38300
H 	H 	0.57070 0.20498 0.94333 0.17200
H 	H 	0.78247 0.42315 0.02670 0.18700
Cu	Cu	0.62084 0.20608 0.50884 0.93000
Cu	Cu	0.68917 0.20704 0.42629 0.87400
Cu	Cu	0.65926 0.33871 0.45517 0.90100
Cu	Cu	0.62052 0.37040 0.53283 0.90100
C 	C 	0.64453 0.27344 0.58975 0.34600
O 	O 	0.48770 0.15110 0.50949 -0.35400
C 	C 	0.63757 0.27690 0.37089 0.33200
O 	O 	0.69146 0.34444 0.50959 -0.63800
O 	O 	0.60345 0.20882 0.45276 -0.63900
O 	O 	0.68219 0.14757 0.50745 -0.35800
O 	O 	0.77783 0.24067 0.47005 -0.43200
O 	O 	0.60554 0.31023 0.57862 -0.38400
O 	O 	0.72200 0.46667 0.46046 -0.37000
C 	C 	0.71959 0.51824 0.48778 0.29600
C 	C 	0.45113 0.18802 0.49571 0.28200
O 	O 	0.50411 0.26958 0.48856 -0.38800
O 	O 	0.66876 0.48509 0.51457 -0.38400
O 	O 	0.65633 0.22667 0.56420 -0.34100
C 	C 	0.75854 0.18509 0.49410 0.29200
O 	O 	0.64288 0.33420 0.39829 -0.34600
O 	O 	0.62948 0.20569 0.37884 -0.41100
H 	H 	0.75755 0.38581 0.52042 0.17900
H 	H 	0.53976 0.16770 0.43844 0.18400
C 	C 	0.73544 0.36957 0.77614 -0.14800
C 	C 	0.69214 0.28336 0.75430 0.01100
C 	C 	0.65513 0.20943 0.77319 0.29900
C 	C 	0.65754 0.22129 0.81335 -0.05900
C 	C 	0.69629 0.30681 0.83476 -0.14200
C 	C 	0.73743 0.38134 0.81617 0.37300
C 	C 	0.67689 0.26962 0.71142 0.01400
F 	F 	0.61437 0.12586 0.75247 -0.41600
H 	H 	0.62653 0.16359 0.82754 0.08700
F 	F 	0.77764 0.46490 0.83679 -0.44500
H 	H 	0.76483 0.42703 0.76184 0.11400
C 	C 	0.59214 0.23803 0.69026 0.29400
C 	C 	0.58095 0.23633 0.65025 -0.05800
C 	C 	0.65421 0.26607 0.63094 -0.14400
C 	C 	0.73795 0.29408 0.65177 0.36800
C 	C 	0.74930 0.29622 0.69193 -0.14700
F 	F 	0.52154 0.21193 0.70875 -0.41800
H 	H 	0.51572 0.21337 0.63432 0.09200
F 	F 	0.80920 0.32243 0.63343 -0.44400
H 	H 	0.81488 0.32057 0.70804 0.11600
C 	C 	0.60035 0.34318 0.27658 -0.13900
C 	C 	0.64355 0.32033 0.25324 0.01200
C 	C 	0.68366 0.28261 0.26845 0.28700
C 	C 	0.68117 0.26838 0.30672 -0.06100
C 	C 	0.63840 0.29147 0.33029 -0.14400
C 	C 	0.59758 0.32877 0.31497 0.36900
C 	C 	0.64629 0.33505 0.21273 0.01000
F 	F 	0.72485 0.25942 0.24602 -0.42700
H 	H 	0.71325 0.24007 0.31821 0.07900
F 	F 	0.55371 0.34926 0.33688 -0.43700
H 	H 	0.56872 0.37178 0.26494 0.12100
C 	C 	0.56985 0.27405 0.18325 0.29000
C 	C 	0.57762 0.27761 0.14415 -0.06000
C 	C 	0.66196 0.34167 0.13421 -0.14400
C 	C 	0.73664 0.40681 0.16378 0.36900
C 	C 	0.72870 0.40339 0.20285 -0.13800
F 	F 	0.48932 0.20848 0.19244 -0.42300
H 	H 	0.51927 0.22769 0.12163 0.09100
F 	F 	0.81747 0.47202 0.15468 -0.44000
H 	H 	0.78757 0.45170 0.22545 0.11800
C 	C 	0.89259 0.74995 0.46758 -0.03900
C 	C 	0.87110 0.80017 0.48864 0.00100
C 	C 	0.79556 0.75632 0.50703 -0.03900
C 	C 	0.74436 0.66384 0.50574 0.01000
C 	C 	0.76855 0.61426 0.48625 -0.07200
C 	C 	0.84191 0.65763 0.46654 0.01100
H 	H 	0.94955 0.78272 0.45254 0.05600
H 	H 	0.77795 0.79418 0.52322 0.05400
H 	H 	0.68667 0.63102 0.52034 0.04600
H 	H 	0.86099 0.62026 0.45114 0.04700
C 	C 	0.83840 0.05195 0.52569 -0.03500
C 	C 	0.91387 0.08540 0.50740 0.00000
C 	C 	0.94473 0.15915 0.48903 -0.03600
C 	C 	0.89688 0.19495 0.48657 0.00500
C 	C 	0.81705 0.15682 0.50221 -0.07500
C 	C 	0.79017 0.08730 0.52306 0.01100
H 	H 	0.81538 0.99663 0.54093 0.05400
H 	H 	0.00343 0.18636 0.47521 0.05100
H 	H 	0.92031 0.25042 0.47142 0.04000
H 	H 	0.73049 0.05879 0.53628 0.05600
C 	C 	0.22168 0.05861 0.52593 -0.03800
C 	C 	0.17617 0.08202 0.50240 0.00100
C 	C 	0.22076 0.13921 0.47624 -0.03800
C 	C 	0.30934 0.17112 0.47302 0.00500
C 	C 	0.35453 0.14675 0.49623 -0.07400
C 	C 	0.31020 0.09058 0.52283 0.00800
H 	H 	0.18774 0.01429 0.54619 0.05700
H 	H 	0.18587 0.15667 0.45753 0.05300
H 	H 	0.34276 0.21462 0.45244 0.04900
H 	H 	0.34468 0.07269 0.54151 0.05100
C 	C 	0.80667 0.73358 0.98735 -0.03200
C 	C 	0.85528 0.77490 0.95817 -0.00100
C 	C 	0.87415 0.72844 0.93246 -0.03100
C 	C 	0.84750 0.64308 0.93669 0.00600
C 	C 	0.80072 0.60253 0.96644 -0.06700
C 	C 	0.77964 0.64795 0.99152 0.00900
H 	H 	0.79277 0.76904 0.00772 0.04800
H 	H 	0.91191 0.75970 0.90987 0.06000
H 	H 	0.86205 0.60804 0.91644 0.07300
H 	H 	0.74255 0.61704 0.01432 0.04000
C 	C 	0.88514 0.10866 0.93559 -0.04000
C 	C 	0.85558 0.03829 0.95634 0.00600
C 	C 	0.79106 0.01762 0.97982 -0.04200
C 	C 	0.76098 0.07031 0.98456 0.01200
C 	C 	0.79543 0.14476 0.96593 -0.07800
C 	C 	0.85553 0.16174 0.94045 0.01000
H 	H 	0.93368 0.12433 0.91676 0.05600
H 	H 	0.76731 0.96345 0.99585 0.05400
H 	H 	0.71299 0.05475 0.00365 0.03300
H 	H 	0.88098 0.21709 0.92504 0.05300
C 	C 	0.28621 0.10484 0.99000 0.01600
C 	C 	0.32991 0.17947 0.97156 -0.07600
C 	C 	0.27879 0.20236 0.95204 0.01100
C 	C 	0.18488 0.15000 0.95025 -0.04000
C 	C 	0.14106 0.07446 0.96810 0.00100
C 	C 	0.19244 0.05291 0.98842 -0.03400
H 	H 	0.32466 0.08632 0.00513 0.04100
H 	H 	0.31167 0.26048 0.93814 0.04600
H 	H 	0.14603 0.16728 0.93441 0.05400
H 	H 	0.15962 0.99557 0.00283 0.05100
