data_crystal

_cell_length_a 25.41139
_cell_length_b 26.09240
_cell_length_c 39.68839
_cell_angle_alpha 60.86882
_cell_angle_beta  118.83147
_cell_angle_gamma 133.24146

_symmetry_space_group_name_	'P 1'
_symmetry_space_group_name_H-M	'P 1'

loop_
_symmetry_equiv_pos_as_xyz
  x,y,z

loop_
_atom_site_label
_atom_site_type_symbol
_atom_site_fract_x
_atom_site_fract_y
_atom_site_fract_z
_atom_site_charge
C 	C 	0.70534 0.27914 0.04633 0.11700
N 	N 	0.63389 0.24041 0.04824 -0.13900
C 	C 	0.61590 0.26712 0.05976 0.13300
N 	N 	0.66866 0.33171 0.06940 -0.13800
C 	C 	0.73908 0.37126 0.06675 0.12200
N 	N 	0.75762 0.34543 0.05497 -0.13900
C 	C 	0.71526 0.27710 0.54033 0.13000
N 	N 	0.76551 0.34436 0.54744 -0.13900
C 	C 	0.74391 0.37071 0.55648 0.12200
N 	N 	0.67256 0.33042 0.55798 -0.13800
C 	C 	0.62239 0.26387 0.55071 0.13300
N 	N 	0.64358 0.23669 0.54211 -0.13800
C 	C 	0.27587 0.66727 0.17120 0.13000
N 	N 	0.34919 0.70487 0.17356 -0.13500
C 	C 	0.37240 0.67500 0.16907 0.12200
N 	N 	0.32260 0.60831 0.16193 -0.13700
C 	C 	0.24963 0.57076 0.15909 0.12100
N 	N 	0.22579 0.59999 0.16381 -0.13400
C 	C 	0.28757 0.64963 0.69092 0.13000
N 	N 	0.24045 0.58057 0.68633 -0.13500
C 	C 	0.26759 0.55203 0.68413 0.12100
N 	N 	0.34078 0.59227 0.68634 -0.13700
C 	C 	0.38726 0.66138 0.68961 0.12200
N 	N 	0.36081 0.69042 0.69182 -0.13600
Co	Co	0.04142 0.01595 0.05897 1.18200
Co	Co	0.94448 0.93247 0.15791 1.18800
Co	Co	0.97450 0.05830 0.08737 1.17500
Co	Co	0.01001 0.88924 0.12872 1.19000
C 	C 	0.19048 0.08111 0.05634 0.30700
Co	Co	0.08984 0.92119 0.06921 1.17900
Co	Co	0.90466 0.03480 0.14819 1.17300
C 	C 	0.96240 0.77280 0.09984 0.30100
O 	O 	0.82016 0.00828 0.09840 -0.39600
O 	O 	0.94249 0.00512 0.12945 -0.76900
C 	C 	0.83489 0.05218 0.06376 0.31100
O 	O 	0.02161 0.08788 0.04581 -0.45300
O 	O 	0.96531 0.86117 0.17114 -0.46400
C 	C 	0.80252 0.87416 0.16876 0.32400
O 	O 	0.97074 0.96060 0.10149 -0.58000
C 	C 	0.03219 0.17827 0.11634 0.34200
C 	C 	0.00280 0.95517 0.99263 0.29400
C 	C 	0.15264 0.90056 0.15447 0.29300
O 	O 	0.88431 0.06558 0.05106 -0.37600
O 	O 	0.00204 0.90029 0.02044 -0.37500
O 	O 	0.00693 0.00190 0.00117 -0.36500
O 	O 	0.84460 0.93094 0.18265 -0.38900
O 	O 	0.83144 0.86205 0.15589 -0.38000
O 	O 	0.96254 0.14147 0.11575 -0.41800
O 	O 	0.05373 0.15054 0.10978 -0.38800
O 	O 	0.17079 0.94418 0.12050 -0.38700
O 	O 	0.10685 0.89434 0.16612 -0.37200
O 	O 	0.03984 0.94119 0.08585 -0.74400
C 	C 	0.99905 0.00577 0.22231 0.24800
O 	O 	0.99668 0.05916 0.19463 -0.38300
O 	O 	0.99848 0.96185 0.21337 -0.35300
O 	O 	0.15326 0.02901 0.03937 -0.40400
O 	O 	0.15619 0.08333 0.07151 -0.40000
O 	O 	0.03230 0.81280 0.09941 -0.38900
O 	O 	0.93926 0.79323 0.11120 -0.38700
Co	Co	0.05800 0.00937 0.56757 1.18300
Co	Co	0.94849 0.92444 0.66009 1.18700
Co	Co	0.99680 0.05869 0.59533 1.17700
Co	Co	0.99711 0.86950 0.62703 1.17900
C 	C 	0.20591 0.03960 0.58164 0.27600
Co	Co	0.07263 0.89348 0.56920 1.17500
Co	Co	0.91780 0.03355 0.65163 1.16400
C 	C 	0.92000 0.76565 0.57563 0.31300
O 	O 	0.84072 0.01728 0.59837 -0.39600
O 	O 	0.95383 0.00110 0.63344 -0.77100
C 	C 	0.86175 0.06298 0.56494 0.29400
O 	O 	0.05493 0.09093 0.55892 -0.45400
O 	O 	0.95725 0.84563 0.67053 -0.46200
C 	C 	0.80668 0.87399 0.66800 0.33000
O 	O 	0.97904 0.95561 0.60466 -0.57900
C 	C 	0.05572 0.17342 0.62881 0.34300
C 	C 	0.03500 0.98350 0.49326 0.31600
C 	C 	0.09966 0.82991 0.65545 0.30200
O 	O 	0.91557 0.07729 0.55573 -0.37800
O 	O 	0.08384 0.96950 0.51511 -0.39900
O 	O 	0.01379 0.00032 0.50861 -0.38400
O 	O 	0.84940 0.92990 0.68273 -0.40500
O 	O 	0.83510 0.85958 0.65635 -0.38000
O 	O 	0.98539 0.14135 0.62363 -0.42900
O 	O 	0.07638 0.14343 0.62372 -0.38900
O 	O 	0.06784 0.81469 0.62107 -0.40000
O 	O 	0.08730 0.86438 0.66319 -0.38000
O 	O 	0.03574 0.92507 0.58744 -0.74500
C 	C 	0.00439 0.99169 0.72710 0.30100
O 	O 	0.00175 0.04683 0.70222 -0.38600
O 	O 	0.00815 0.95451 0.71506 -0.36100
O 	O 	0.17996 0.97082 0.59258 -0.37700
O 	O 	0.17253 0.05970 0.58470 -0.38700
O 	O 	0.96052 0.82023 0.54964 -0.39200
O 	O 	0.91779 0.77621 0.60463 -0.37600
C 	C 	0.06984 0.04171 0.82127 -0.05300
C 	C 	0.01189 0.97936 0.84059 0.05400
C 	C 	0.95935 0.91626 0.82599 -0.05200
C 	C 	0.96258 0.91687 0.79107 0.00200
C 	C 	0.01762 0.98089 0.77028 -0.04300
C 	C 	0.07429 0.04140 0.78718 0.00700
C 	C 	0.01194 0.97720 0.87935 0.02400
C 	C 	0.90188 0.85087 0.84675 0.09900
C 	C 	0.13673 0.10375 0.76911 0.08900
C 	C 	0.96820 0.99157 0.88032 -0.02200
C 	C 	0.96740 0.98774 0.91709 -0.00900
C 	C 	0.01178 0.97117 0.95297 -0.04900
C 	C 	0.05834 0.96034 0.95137 0.01800
C 	C 	0.05693 0.96183 0.91490 -0.03100
C 	C 	0.92371 0.00976 0.84362 0.06700
C 	C 	0.10713 0.94646 0.98724 0.06700
C 	C 	0.91933 0.99869 0.91790 0.11500
C 	C 	0.10159 0.94676 0.91402 0.10200
C 	C 	0.12461 0.10637 0.83632 0.09900
C 	C 	0.90863 0.85200 0.77629 0.08300
N 	N 	0.88091 0.00743 0.91852 -0.12800
N 	N 	0.88819 0.02427 0.81427 -0.11500
N 	N 	0.14607 0.93499 0.01562 -0.13800
N 	N 	0.13717 0.93476 0.91327 -0.10700
N 	N 	0.85602 0.79871 0.86336 -0.11400
N 	N 	0.86556 0.80014 0.76454 -0.11000
N 	N 	0.18651 0.15353 0.75466 -0.10900
N 	N 	0.16829 0.15794 0.84836 -0.11500
C 	C 	0.95491 0.99976 0.30462 -0.00300
C 	C 	0.00169 0.98466 0.33884 0.01900
C 	C 	0.04308 0.96991 0.33563 -0.02800
C 	C 	0.04004 0.97342 0.29787 0.02100
C 	C 	0.99469 0.99085 0.26314 -0.04000
C 	C 	0.95124 0.00310 0.26703 -0.02800
C 	C 	0.00815 0.98579 0.37839 0.05600
C 	C 	0.08917 0.95168 0.37107 0.10100
C 	C 	0.90440 0.02165 0.23233 0.07600
C 	C 	0.95349 0.92487 0.40018 -0.05300
C 	C 	0.95434 0.92879 0.43482 0.00400
C 	C 	0.01323 0.99127 0.44977 -0.04700
C 	C 	0.06416 0.05396 0.42635 0.00900
C 	C 	0.06244 0.05100 0.39108 -0.05400
C 	C 	0.89665 0.85813 0.38705 0.10000
C 	C 	0.11854 0.12139 0.43869 0.08200
C 	C 	0.89432 0.86878 0.45491 0.08500
C 	C 	0.11660 0.11488 0.36795 0.10000
C 	C 	0.91103 0.01318 0.30801 0.06700
C 	C 	0.08566 0.96181 0.29484 0.09900
N 	N 	0.84617 0.82084 0.47081 -0.10200
N 	N 	0.85130 0.80489 0.37654 -0.11300
N 	N 	0.16189 0.17527 0.44850 -0.11000
N 	N 	0.15980 0.16583 0.34944 -0.11300
N 	N 	0.12597 0.93713 0.39940 -0.10800
N 	N 	0.12214 0.95255 0.29248 -0.10200
N 	N 	0.86711 0.03689 0.20491 -0.15100
N 	N 	0.87611 0.02386 0.31076 -0.11000
C 	C 	0.17255 0.36243 0.65675 0.00200
C 	C 	0.20149 0.36605 0.69645 -0.03400
C 	C 	0.22381 0.42425 0.70631 -0.01900
C 	C 	0.10844 0.24244 0.63874 -0.10400
C 	C 	0.18440 0.47342 0.63712 -0.01900
C 	C 	0.16224 0.41530 0.62725 -0.03400
C 	C 	0.14172 0.29835 0.64709 0.05700
C 	C 	0.21797 0.47978 0.67651 -0.01400
H 	H 	0.20702 0.32401 0.71969 0.05300
H 	H 	0.24974 0.42843 0.73684 0.04700
H 	H 	0.17975 0.51587 0.61378 0.04700
H 	H 	0.13726 0.41156 0.59665 0.04900
C 	C 	0.59551 0.75789 0.67519 0.00300
C 	C 	0.57416 0.70801 0.71073 -0.03400
C 	C 	0.50935 0.68202 0.71736 -0.01800
C 	C 	0.72957 0.82524 0.66844 -0.10000
C 	C 	0.48811 0.75762 0.65352 -0.01900
C 	C 	0.55305 0.78367 0.64691 -0.03500
C 	C 	0.66709 0.79171 0.67075 0.05500
C 	C 	0.46495 0.70530 0.68837 -0.01500
H 	H 	0.60786 0.68951 0.73331 0.05100
H 	H 	0.49185 0.64133 0.74430 0.04600
H 	H 	0.45402 0.77552 0.63075 0.04600
H 	H 	0.57037 0.82398 0.61987 0.04800
C 	C 	0.21305 0.74164 0.69910 0.03700
C 	C 	0.14476 0.69903 0.70857 -0.06100
C 	C 	0.11291 0.73149 0.70236 0.02100
C 	C 	0.25994 0.68020 0.69435 -0.02700
C 	C 	0.22101 0.84977 0.68165 0.01500
C 	C 	0.25307 0.81749 0.68787 -0.06100
C 	C 	0.23841 0.70756 0.69694 0.00100
C 	C 	0.14748 0.80628 0.68488 -0.08100
H 	H 	0.11434 0.64054 0.71860 0.05700
H 	H 	0.05730 0.69727 0.70652 0.03900
H 	H 	0.24985 0.90788 0.66965 0.04100
H 	H 	0.30709 0.85132 0.68178 0.05500
C 	C 	0.14761 0.37467 0.13594 0.00300
C 	C 	0.16788 0.37764 0.17501 -0.03400
C 	C 	0.19226 0.43901 0.18254 -0.01900
C 	C 	0.08295 0.25046 0.12226 -0.10100
C 	C 	0.17257 0.49334 0.11191 -0.01900
C 	C 	0.14802 0.43185 0.10438 -0.03400
C 	C 	0.11584 0.30845 0.12816 0.05600
C 	C 	0.19740 0.49843 0.15111 -0.01300
H 	H 	0.16522 0.33265 0.19959 0.05200
H 	H 	0.21148 0.44219 0.21294 0.04700
H 	H 	0.17648 0.53880 0.08734 0.04700
H 	H 	0.12989 0.42904 0.07401 0.05000
C 	C 	0.58675 0.76490 0.16582 0.00400
C 	C 	0.55530 0.70745 0.19753 -0.03400
C 	C 	0.48795 0.68223 0.20063 -0.01800
C 	C 	0.72414 0.82798 0.16605 -0.09700
C 	C 	0.48412 0.77329 0.14096 -0.01900
C 	C 	0.55155 0.79851 0.13788 -0.03400
C 	C 	0.66034 0.79652 0.16532 0.05500
C 	C 	0.45127 0.71414 0.17195 -0.01400
H 	H 	0.58305 0.68242 0.21987 0.05000
H 	H 	0.46287 0.63616 0.22453 0.04700
H 	H 	0.45602 0.79784 0.11839 0.04700
H 	H 	0.57648 0.84426 0.11384 0.05200
C 	C 	0.21628 0.76852 0.18399 0.03700
C 	C 	0.14332 0.73559 0.18350 -0.05900
C 	C 	0.12434 0.77717 0.18098 0.01800
C 	C 	0.25145 0.69951 0.17606 -0.02500
C 	C 	0.25198 0.88319 0.18237 0.01900
C 	C 	0.27116 0.84159 0.18538 -0.06100
C 	C 	0.23402 0.72935 0.17997 0.00300
C 	C 	0.17738 0.85257 0.17712 -0.08200
H 	H 	0.10071 0.67869 0.18351 0.05800
H 	H 	0.06713 0.75186 0.17867 0.04400
H 	H 	0.29406 0.94081 0.18050 0.04000
H 	H 	0.32809 0.86723 0.18686 0.05700
C 	C 	0.78182 0.18450 0.52654 0.03400
C 	C 	0.73107 0.11105 0.52600 -0.06600
C 	C 	0.75643 0.07243 0.53279 0.01700
C 	C 	0.73916 0.24631 0.53415 -0.03200
C 	C 	0.88229 0.18240 0.53608 0.01600
C 	C 	0.85696 0.22097 0.52955 -0.06500
C 	C 	0.75881 0.21909 0.52994 -0.00300
C 	C 	0.83288 0.10685 0.54069 -0.08700
H 	H 	0.67260 0.08275 0.52274 0.05100
H 	H 	0.71739 0.01448 0.53527 0.03300
H 	H 	0.94124 0.21007 0.54123 0.03700
H 	H 	0.89645 0.27815 0.52913 0.05100
C 	C 	0.84649 0.57219 0.57199 0.00200
C 	C 	0.83874 0.56834 0.53569 -0.03700
C 	C 	0.81431 0.50406 0.53178 -0.02000
C 	C 	0.88856 0.69398 0.57648 -0.10200
C 	C 	0.81111 0.44933 0.60127 -0.02000
C 	C 	0.83549 0.51360 0.60516 -0.03800
C 	C 	0.86773 0.63714 0.57526 0.04800
C 	C 	0.79661 0.44302 0.56404 -0.01700
H 	H 	0.84946 0.61435 0.51018 0.04900
H 	H 	0.80393 0.50007 0.50299 0.04500
H 	H 	0.79841 0.40275 0.62652 0.04200
H 	H 	0.84369 0.51698 0.63365 0.04500
C 	C 	0.41791 0.15819 0.56432 0.03400
C 	C 	0.36155 0.15992 0.53192 -0.06000
C 	C 	0.29387 0.12814 0.53801 0.01200
C 	C 	0.54799 0.22157 0.55409 -0.03300
C 	C 	0.34049 0.09700 0.60903 0.01800
C 	C 	0.40808 0.12868 0.60294 -0.06400
C 	C 	0.48770 0.19105 0.55820 0.00100
C 	C 	0.28207 0.09413 0.57650 -0.07800
H 	H 	0.36952 0.18445 0.50201 0.05600
H 	H 	0.24901 0.12579 0.51269 0.04000
H 	H 	0.33196 0.07081 0.63889 0.03300
H 	H 	0.45223 0.12901 0.62821 0.05100
C 	C 	0.77012 0.18032 0.02836 0.00100
C 	C 	0.82357 0.24946 0.03592 -0.03700
C 	C 	0.80233 0.28312 0.04006 -0.02300
C 	C 	0.81265 0.09987 0.04535 -0.10400
C 	C 	0.67310 0.18057 0.02648 -0.02300
C 	C 	0.69466 0.14708 0.02240 -0.03700
C 	C 	0.79329 0.13763 0.03540 0.04700
C 	C 	0.72704 0.24776 0.03681 -0.01400
H 	H 	0.88203 0.27571 0.04054 0.04500
H 	H 	0.84476 0.33555 0.04710 0.04600
H 	H 	0.61470 0.15321 0.02268 0.04700
H 	H 	0.65282 0.09373 0.01644 0.04400
C 	C 	0.85115 0.57382 0.08548 0.00300
C 	C 	0.83640 0.56937 0.04775 -0.03800
C 	C 	0.80796 0.50460 0.04227 -0.01900
C 	C 	0.91560 0.70028 0.09566 -0.09900
C 	C 	0.81312 0.44993 0.11262 -0.02000
C 	C 	0.84164 0.51470 0.11810 -0.03800
C 	C 	0.88363 0.64157 0.09132 0.04500
C 	C 	0.79334 0.44363 0.07442 -0.01800
H 	H 	0.84601 0.61570 0.02256 0.04900
H 	H 	0.79297 0.50047 0.01264 0.04500
H 	H 	0.80227 0.40327 0.13771 0.04200
H 	H 	0.85535 0.51851 0.14760 0.04400
C 	C 	0.40946 0.18241 0.06002 0.03600
C 	C 	0.38653 0.14487 0.09566 -0.06400
C 	C 	0.31780 0.12110 0.09590 0.01900
C 	C 	0.54042 0.23033 0.05924 -0.03300
C 	C 	0.29774 0.17751 0.02563 0.02600
C 	C 	0.36643 0.20140 0.02539 -0.06100
C 	C 	0.47973 0.20619 0.05953 0.00100
C 	C 	0.27093 0.13321 0.06031 -0.09000
H 	H 	0.42093 0.13251 0.12296 0.05100
H 	H 	0.29847 0.08821 0.12308 0.03600
H 	H 	0.26260 0.18825 0.99807 0.03500
H 	H 	0.38519 0.23300 0.99804 0.05400
