data_crystal

_cell_length_a 27.90665
_cell_length_b 28.04934
_cell_length_c 28.51887
_cell_angle_alpha 95.52971
_cell_angle_beta  95.52262
_cell_angle_gamma 125.62233

_symmetry_space_group_name_	'P 1'
_symmetry_space_group_name_H-M	'P 1'

loop_
_symmetry_equiv_pos_as_xyz
  x,y,z

loop_
_atom_site_label
_atom_site_type_symbol
_atom_site_fract_x
_atom_site_fract_y
_atom_site_fract_z
_atom_site_charge
C 	C 	0.02221 0.96990 0.98173 -0.07900
C 	C 	0.05669 0.03178 0.98436 0.04800
C 	C 	0.03078 0.06168 0.99170 -0.08200
H 	H 	0.04228 0.94683 0.97610 0.05600
H 	H 	0.05741 0.10962 0.99368 0.05600
C 	C 	0.00525 0.95379 0.45734 -0.08000
C 	C 	0.03781 0.01402 0.45357 0.04800
C 	C 	0.00812 0.04008 0.44666 -0.08200
H 	H 	0.02834 0.93366 0.46262 0.05600
H 	H 	0.03345 0.08684 0.44382 0.05500
Cu	Cu	0.64076 0.24680 0.00421 0.92700
Cu	Cu	0.63833 0.35704 0.02823 0.89500
O 	O 	0.55214 0.21064 0.99862 -0.35900
O 	O 	0.62500 0.31758 0.08522 -0.38400
C 	C 	0.52936 0.23511 0.97818 0.30200
O 	O 	0.56518 0.28984 0.97082 -0.39200
H 	H 	0.59623 0.22574 0.91519 0.17500
Cu	Cu	0.64170 0.30310 0.50372 0.89700
Cu	Cu	0.62138 0.34063 0.41338 0.89500
O 	O 	0.64010 0.29142 0.43607 -0.63900
O 	O 	0.66015 0.35294 0.35593 -0.38300
O 	O 	0.55537 0.25869 0.49606 -0.38000
C 	C 	0.52165 0.26415 0.46462 0.30900
O 	O 	0.54528 0.30615 0.43834 -0.39400
O 	O 	0.64202 0.30156 0.57303 -0.38200
H 	H 	0.61351 0.24914 0.41946 0.16500
C 	C 	0.21906 0.11000 0.46208 0.02100
C 	C 	0.25299 0.16845 0.45330 -0.04700
C 	C 	0.31471 0.19973 0.45493 -0.02700
C 	C 	0.34272 0.17266 0.46533 -0.01000
C 	C 	0.30887 0.11438 0.47448 -0.02700
C 	C 	0.24715 0.08311 0.47286 -0.04700
C 	C 	0.15528 0.07717 0.45915 -0.01200
C 	C 	0.10178 0.04893 0.45661 -0.02700
C 	C 	0.40591 0.20427 0.46561 0.04800
C 	C 	0.45879 0.23122 0.46542 -0.10600
H 	H 	0.23156 0.18952 0.44496 0.04400
H 	H 	0.34063 0.24480 0.44783 0.04000
H 	H 	0.33023 0.09319 0.48255 0.03900
H 	H 	0.22116 0.03792 0.47970 0.04300
C 	C 	0.35241 0.16372 0.97104 -0.00800
C 	C 	0.33832 0.19504 0.00075 -0.02800
C 	C 	0.27833 0.17133 0.00141 -0.04800
C 	C 	0.23217 0.11626 0.97232 0.02300
C 	C 	0.24627 0.08554 0.94187 -0.04700
C 	C 	0.30627 0.10923 0.94123 -0.02700
C 	C 	0.41421 0.18696 0.97214 0.04700
C 	C 	0.46645 0.20781 0.97417 -0.10900
C 	C 	0.17061 0.08899 0.97641 -0.01200
C 	C 	0.11883 0.06429 0.98002 -0.02700
H 	H 	0.37378 0.23732 0.02376 0.03800
H 	H 	0.26782 0.19527 0.02512 0.04400
H 	H 	0.21080 0.04286 0.91935 0.04300
H 	H 	0.31680 0.08487 0.91806 0.03900
C 	C 	0.97031 0.02939 0.99642 0.04700
C 	C 	0.93602 0.96743 0.99385 -0.08200
C 	C 	0.96200 0.93774 0.98649 0.04800
H 	H 	0.88928 0.94242 0.99745 0.05600
C 	C 	0.94575 0.00587 0.44353 0.04500
C 	C 	0.91304 0.94535 0.44725 -0.08100
C 	C 	0.94295 0.91935 0.45415 0.04700
H 	H 	0.86478 0.91878 0.44485 0.05500
Cu	Cu	0.69449 0.24581 0.90702 0.87200
Cu	Cu	0.67816 0.33863 0.93859 0.89800
C 	C 	0.65258 0.29543 0.10172 0.30100
C 	C 	0.66738 0.29517 0.83588 0.30300
O 	O 	0.68868 0.33930 0.00613 -0.64000
O 	O 	0.63706 0.25101 0.93510 -0.63900
O 	O 	0.67926 0.20507 0.00739 -0.37300
O 	O 	0.74803 0.26515 0.96398 -0.44300
O 	O 	0.72237 0.42452 0.94698 -0.38000
C 	C 	0.71573 0.45742 0.97806 0.31100
O 	O 	0.67321 0.43325 0.00404 -0.39500
O 	O 	0.65669 0.25860 0.07297 -0.35700
C 	C 	0.73085 0.22759 0.99358 0.31300
O 	O 	0.68112 0.33940 0.86956 -0.38200
O 	O 	0.66020 0.24705 0.84657 -0.42000
H 	H 	0.73097 0.36580 0.02323 0.16500
Cu	Cu	0.73292 0.33928 0.43718 0.92800
Cu	Cu	0.73598 0.28818 0.53532 0.87100
C 	C 	0.68266 0.32567 0.33959 0.30100
O 	O 	0.76878 0.42728 0.44166 -0.36000
C 	C 	0.68684 0.31561 0.60650 0.30300
O 	O 	0.72972 0.34431 0.50649 -0.64000
O 	O 	0.77495 0.30097 0.43422 -0.37100
O 	O 	0.71565 0.23377 0.47889 -0.44300
C 	C 	0.74412 0.45010 0.46176 0.30200
O 	O 	0.68947 0.41452 0.46987 -0.39300
O 	O 	0.72006 0.32211 0.36840 -0.35700
C 	C 	0.75267 0.25007 0.44872 0.30900
O 	O 	0.73533 0.32331 0.59552 -0.42000
H 	H 	0.75512 0.38523 0.52590 0.17500
C 	C 	0.67936 0.31501 0.65559 -0.09900
C 	C 	0.67433 0.31274 0.69699 0.03300
C 	C 	0.67004 0.30823 0.74552 0.03300
C 	C 	0.66790 0.30296 0.78688 -0.09900
C 	C 	0.66287 0.29821 0.15253 -0.09100
C 	C 	0.66975 0.30197 0.19546 0.03500
C 	C 	0.67593 0.30817 0.24584 0.03500
C 	C 	0.67974 0.31515 0.28878 -0.09000
C 	C 	0.85797 0.74395 0.46366 0.02100
C 	C 	0.81240 0.69808 0.42658 -0.04700
C 	C 	0.79011 0.63879 0.42734 -0.02700
C 	C 	0.81336 0.62510 0.46515 -0.01000
C 	C 	0.85822 0.67083 0.50266 -0.02700
C 	C 	0.88051 0.73015 0.50190 -0.04700
C 	C 	0.88525 0.80544 0.46040 -0.01200
C 	C 	0.91008 0.85718 0.45753 -0.02700
C 	C 	0.79100 0.56406 0.46533 0.04700
C 	C 	0.77079 0.51240 0.46441 -0.10900
H 	H 	0.79492 0.70838 0.39680 0.04400
H 	H 	0.75518 0.60362 0.39835 0.03900
H 	H 	0.87619 0.66058 0.53213 0.03800
H 	H 	0.91593 0.76539 0.53060 0.04300
C 	C 	0.86631 0.08969 0.42747 0.02100
C 	C 	0.80561 0.06116 0.42964 -0.04800
C 	C 	0.78159 0.09320 0.42887 -0.02800
C 	C 	0.81819 0.15393 0.42597 -0.01300
C 	C 	0.87844 0.18196 0.42235 -0.02800
C 	C 	0.90243 0.14991 0.42305 -0.04800
C 	C 	0.89247 0.05831 0.43252 -0.01400
C 	C 	0.91575 0.03343 0.43732 -0.02700
C 	C 	0.79557 0.18868 0.43169 0.04800
C 	C 	0.77632 0.21723 0.43828 -0.12000
H 	H 	0.77735 0.01460 0.43290 0.04200
H 	H 	0.73499 0.07121 0.43175 0.03700
H 	H 	0.90706 0.22888 0.42017 0.03900
H 	H 	0.94936 0.17223 0.42120 0.04300
C 	C 	0.80522 0.63515 0.97735 -0.01000
C 	C 	0.85687 0.66654 0.95717 -0.02700
C 	C 	0.88738 0.72774 0.95820 -0.04700
C 	C 	0.86634 0.75774 0.97941 0.02100
C 	C 	0.81444 0.72626 0.99928 -0.04500
C 	C 	0.78392 0.66506 0.99824 -0.02600
C 	C 	0.77439 0.57241 0.97711 0.04900
C 	C 	0.74804 0.51988 0.97730 -0.10700
C 	C 	0.89893 0.82107 0.98189 -0.01200
C 	C 	0.92707 0.87421 0.98400 -0.02700
H 	H 	0.87354 0.64368 0.94091 0.04000
H 	H 	0.92752 0.75184 0.94280 0.04300
H 	H 	0.79795 0.74918 0.01576 0.04200
H 	H 	0.74396 0.64102 0.01386 0.03800
C 	C 	0.82502 0.15976 0.01560 -0.01400
C 	C 	0.79565 0.09937 0.01818 -0.02700
C 	C 	0.82695 0.07453 0.01719 -0.04800
C 	C 	0.88774 0.10996 0.01353 0.02100
C 	C 	0.91759 0.17077 0.01246 -0.04800
C 	C 	0.88631 0.19562 0.01351 -0.02800
C 	C 	0.79113 0.18336 0.01009 0.04900
C 	C 	0.76317 0.20332 0.00369 -0.12300
C 	C 	0.91841 0.08309 0.00812 -0.01300
C 	C 	0.94290 0.05944 0.00301 -0.03000
H 	H 	0.74830 0.07132 0.01974 0.03800
H 	H 	0.80361 0.02752 0.01820 0.04300
H 	H 	0.96462 0.19850 0.00980 0.04200
H 	H 	0.90933 0.24233 0.01144 0.03700
