data_crystal

_cell_length_a 26.16747
_cell_length_b 26.42391
_cell_length_c 35.13214
_cell_angle_alpha 95.49438
_cell_angle_beta  95.49146
_cell_angle_gamma 125.83838

_symmetry_space_group_name_	'P 1'
_symmetry_space_group_name_H-M	'P 1'

loop_
_symmetry_equiv_pos_as_xyz
  x,y,z

loop_
_atom_site_label
_atom_site_type_symbol
_atom_site_fract_x
_atom_site_fract_y
_atom_site_fract_z
_atom_site_charge
C 	C 	0.96203 0.02181 0.97880 0.08300
C 	C 	0.92006 0.95558 0.97526 -0.08500
C 	C 	0.94292 0.91936 0.97034 0.08600
C 	C 	0.00753 0.94922 0.96818 -0.08700
C 	C 	0.04992 0.01546 0.97222 0.08400
C 	C 	0.02726 0.05188 0.97798 -0.08100
H 	H 	0.86995 0.93240 0.97679 0.08500
H 	H 	0.02518 0.92111 0.96444 0.08400
H 	H 	0.06014 0.10325 0.98178 0.08800
C 	C 	0.94134 0.00458 0.47089 0.08400
C 	C 	0.00829 0.04712 0.47514 -0.08000
C 	C 	0.04567 0.02538 0.48004 0.08600
C 	C 	0.01633 0.96139 0.48173 -0.08400
C 	C 	0.94947 0.91862 0.47757 0.08500
C 	C 	0.91186 0.94018 0.47192 -0.08100
H 	H 	0.03110 0.09677 0.47400 0.09000
H 	H 	0.04535 0.94461 0.48543 0.08500
H 	H 	0.86004 0.90704 0.46812 0.08500
Cu	Cu	0.64262 0.24382 0.00424 0.93600
Cu	Cu	0.71315 0.27129 0.92921 0.88100
Cu	Cu	0.65578 0.33152 0.95048 0.90200
Cu	Cu	0.63681 0.35826 0.03044 0.92000
C 	C 	0.65518 0.28864 0.08477 0.33300
O 	O 	0.54761 0.20427 0.00196 -0.32700
C 	C 	0.65474 0.30000 0.86851 0.32800
O 	O 	0.68700 0.34106 0.00521 -0.63400
O 	O 	0.63555 0.24638 0.94833 -0.64100
O 	O 	0.68402 0.20021 0.00369 -0.32000
O 	O 	0.76174 0.27444 0.97434 -0.41400
O 	O 	0.62175 0.30866 0.07294 -0.34200
O 	O 	0.66925 0.41260 0.95230 -0.34400
C 	C 	0.69509 0.45783 0.98334 0.31000
C 	C 	0.52117 0.23023 0.98789 0.29800
O 	O 	0.55763 0.28985 0.98362 -0.37500
O 	O 	0.68252 0.44433 0.01795 -0.35000
O 	O 	0.66594 0.25702 0.05969 -0.33300
C 	C 	0.73801 0.22454 0.99091 0.30900
O 	O 	0.63127 0.31707 0.89422 -0.34800
O 	O 	0.68049 0.27098 0.87749 -0.38100
H 	H 	0.73411 0.37212 0.01374 0.18500
H 	H 	0.59439 0.21161 0.93109 0.19900
Cu	Cu	0.73549 0.33634 0.45357 0.93500
Cu	Cu	0.71999 0.27544 0.53199 0.88200
Cu	Cu	0.64444 0.31801 0.50732 0.90500
Cu	Cu	0.61949 0.34066 0.42914 0.91800
C 	C 	0.68755 0.32094 0.37311 0.33200
O 	O 	0.77549 0.43005 0.45428 -0.33300
C 	C 	0.68006 0.32478 0.58997 0.32800
O 	O 	0.63690 0.29006 0.45292 -0.63800
O 	O 	0.73378 0.34620 0.50957 -0.63800
O 	O 	0.77831 0.29420 0.45462 -0.34400
O 	O 	0.70544 0.22046 0.48639 -0.40200
O 	O 	0.66586 0.35284 0.38479 -0.34000
O 	O 	0.55537 0.28459 0.50518 -0.34500
C 	C 	0.51476 0.27419 0.47454 0.31600
C 	C 	0.74966 0.45635 0.46862 0.30400
O 	O 	0.69067 0.42012 0.47482 -0.37600
O 	O 	0.53453 0.30214 0.44432 -0.35500
O 	O 	0.72069 0.31159 0.39825 -0.33300
C 	C 	0.75032 0.23891 0.46546 0.31400
O 	O 	0.65711 0.34247 0.56350 -0.34800
O 	O 	0.71888 0.31000 0.58248 -0.38000
H 	H 	0.60596 0.24359 0.44340 0.19400
H 	H 	0.76677 0.38892 0.52561 0.19400
C 	C 	0.64325 0.30449 0.82734 -0.10800
C 	C 	0.66441 0.36348 0.81719 0.12300
C 	C 	0.66177 0.36919 0.77773 0.06900
C 	C 	0.64537 0.31854 0.74892 0.01800
C 	C 	0.62272 0.25930 0.75897 0.06700
C 	C 	0.61722 0.25126 0.79770 0.12600
C 	C 	0.65514 0.32849 0.70859 0.01800
C 	C 	0.60205 0.30324 0.67861 0.06900
C 	C 	0.60973 0.30190 0.63950 0.12200
C 	C 	0.67185 0.33285 0.63065 -0.10900
C 	C 	0.72574 0.36655 0.66118 0.12700
C 	C 	0.71720 0.36042 0.69980 0.06600
Br	Br	0.60262 0.19030 0.72018 -0.13700
Br	Br	0.70133 0.43746 0.85709 -0.15700
Br	Br	0.53499 0.25353 0.59837 -0.15800
Br	Br	0.78998 0.39270 0.74025 -0.13800
Br	Br	0.56982 0.16699 0.80970 -0.15900
Br	Br	0.68088 0.44623 0.76306 -0.12800
Br	Br	0.51904 0.27039 0.69123 -0.12800
Br	Br	0.81071 0.42498 0.65045 -0.16000
C 	C 	0.66949 0.29083 0.12689 -0.10700
C 	C 	0.70156 0.34904 0.15310 0.12500
C 	C 	0.70427 0.34990 0.19334 0.06800
C 	C 	0.68206 0.29380 0.20781 0.02000
C 	C 	0.65685 0.23699 0.18185 0.06900
C 	C 	0.64646 0.23439 0.14142 0.12800
C 	C 	0.68229 0.29389 0.25008 0.02000
C 	C 	0.74003 0.32028 0.27606 0.06900
C 	C 	0.74265 0.33081 0.31646 0.12900
C 	C 	0.68546 0.30679 0.33101 -0.10600
C 	C 	0.62645 0.27363 0.30482 0.12600
C 	C 	0.62540 0.27065 0.26455 0.06800
Br	Br	0.63652 0.16290 0.20175 -0.12200
Br	Br	0.74383 0.42780 0.13393 -0.18000
Br	Br	0.82500 0.38370 0.35115 -0.13800
Br	Br	0.54676 0.23749 0.22940 -0.12300
Br	Br	0.59512 0.15294 0.10665 -0.13100
Br	Br	0.73563 0.42714 0.22844 -0.12400
Br	Br	0.81542 0.34210 0.25620 -0.12400
Br	Br	0.54696 0.23030 0.32407 -0.17400
C 	C 	0.91883 0.85046 0.47644 -0.02300
C 	C 	0.89288 0.82179 0.50821 0.11400
C 	C 	0.86782 0.75809 0.50757 -0.06000
C 	C 	0.86981 0.72308 0.47588 0.01500
C 	C 	0.89666 0.75207 0.44442 0.10100
C 	C 	0.92033 0.81522 0.44465 -0.04800
H 	H 	0.84700 0.73585 0.53177 0.09100
C 	C 	0.83941 0.65487 0.47447 0.03200
H 	H 	0.94099 0.83735 0.42037 0.08200
C 	C 	0.77814 0.60960 0.45186 -0.07900
C 	C 	0.74947 0.54477 0.44858 0.15700
C 	C 	0.78109 0.52450 0.46959 -0.08900
C 	C 	0.84255 0.56982 0.49216 -0.00400
C 	C 	0.87194 0.63486 0.49455 0.08600
H 	H 	0.75344 0.62492 0.43594 0.09700
H 	H 	0.86735 0.55456 0.50802 0.07200
Br	Br	0.90273 0.70654 0.40131 -0.16600
Br	Br	0.89318 0.86935 0.55324 -0.18100
Br	Br	0.66940 0.48515 0.41296 -0.22400
Br	Br	0.95680 0.69557 0.52480 -0.16900
C 	C 	0.77525 0.20183 0.45895 -0.09500
C 	C 	0.73313 0.13570 0.44475 0.15200
C 	C 	0.75664 0.09981 0.44438 -0.08000
C 	C 	0.82202 0.12938 0.45752 0.03200
C 	C 	0.86469 0.19590 0.46943 0.08600
C 	C 	0.84117 0.23174 0.47016 -0.00700
H 	H 	0.72396 0.04882 0.43419 0.09500
C 	C 	0.84526 0.09034 0.45969 0.01300
H 	H 	0.87393 0.28267 0.48058 0.07300
C 	C 	0.86410 0.07507 0.42713 -0.06000
C 	C 	0.89237 0.04377 0.42990 0.11300
C 	C 	0.90230 0.02782 0.46560 -0.02100
C 	C 	0.88029 0.04002 0.49753 -0.04800
C 	C 	0.85166 0.07098 0.49470 0.10500
H 	H 	0.85802 0.08874 0.39992 0.09200
H 	H 	0.88707 0.02706 0.52490 0.08900
Br	Br	0.95508 0.23842 0.48555 -0.17200
Br	Br	0.64410 0.09406 0.42403 -0.18200
Br	Br	0.91734 0.02335 0.38470 -0.18800
Br	Br	0.82299 0.08781 0.53919 -0.18000
C 	C 	0.11503 0.06847 0.48045 -0.02300
C 	C 	0.15922 0.10103 0.51587 0.11500
C 	C 	0.22511 0.13738 0.51581 -0.06100
C 	C 	0.24728 0.14149 0.48062 0.01500
C 	C 	0.20306 0.10988 0.44515 0.10300
C 	C 	0.13725 0.07382 0.44522 -0.04700
H 	H 	0.25908 0.16190 0.54313 0.09400
C 	C 	0.31663 0.17681 0.48119 0.03200
H 	H 	0.10327 0.04889 0.41792 0.08500
C 	C 	0.34481 0.14536 0.48431 -0.07700
C 	C 	0.40962 0.17683 0.48230 0.15500
C 	C 	0.44690 0.24060 0.47738 -0.08400
C 	C 	0.41896 0.27239 0.47501 -0.00100
C 	C 	0.35417 0.24091 0.47707 0.08900
H 	H 	0.31597 0.09602 0.48753 0.09600
H 	H 	0.44766 0.32166 0.47164 0.08000
Br	Br	0.23170 0.11458 0.39641 -0.16700
Br	Br	0.13037 0.09577 0.56457 -0.17500
Br	Br	0.44550 0.13100 0.48443 -0.19800
Br	Br	0.31759 0.28596 0.47389 -0.16400
C 	C 	0.90062 0.85086 0.97077 -0.02800
C 	C 	0.86113 0.80645 0.93628 0.11500
C 	C 	0.82450 0.74133 0.93684 -0.06100
C 	C 	0.82708 0.72018 0.97159 0.01200
C 	C 	0.86609 0.76467 0.00615 0.10500
C 	C 	0.90236 0.82967 0.00561 -0.04500
H 	H 	0.79447 0.70717 0.91022 0.09300
C 	C 	0.79058 0.65151 0.97137 0.03300
H 	H 	0.93275 0.86382 0.03219 0.08000
C 	C 	0.81886 0.62108 0.96338 -0.07800
C 	C 	0.78761 0.55746 0.96675 0.15700
C 	C 	0.72728 0.52369 0.97798 -0.08400
C 	C 	0.69815 0.55358 0.98484 -0.00000
C 	C 	0.72935 0.61715 0.98140 0.08900
H 	H 	0.86589 0.64738 0.95549 0.09600
H 	H 	0.65135 0.52745 0.99304 0.07900
Br	Br	0.87113 0.73744 0.05422 -0.16900
Br	Br	0.85759 0.83388 0.88807 -0.17100
Br	Br	0.82943 0.51840 0.95775 -0.22000
Br	Br	0.68810 0.65661 0.99100 -0.16800
C 	C 	0.93767 0.05967 0.98423 -0.02500
C 	C 	0.92490 0.08245 0.95281 0.11300
C 	C 	0.89597 0.11288 0.95746 -0.06200
C 	C 	0.87852 0.11985 0.99302 0.01100
C 	C 	0.89208 0.09787 0.02460 0.10600
C 	C 	0.92208 0.06847 0.02017 -0.04600
H 	H 	0.88549 0.12965 0.93309 0.08700
C 	C 	0.84190 0.14590 0.99598 0.02900
H 	H 	0.93178 0.05095 0.04440 0.08000
C 	C 	0.77547 0.10604 0.98208 -0.08000
C 	C 	0.74064 0.13080 0.98110 0.14800
C 	C 	0.77224 0.19610 0.99516 -0.09700
C 	C 	0.83846 0.23558 0.01012 -0.00200
C 	C 	0.87344 0.21094 0.01027 0.08800
H 	H 	0.75118 0.05601 0.97089 0.09400
H 	H 	0.86304 0.28578 0.02092 0.07700
Br	Br	0.86830 0.10598 0.07359 -0.16400
Br	Br	0.94361 0.06957 0.90280 -0.16700
Br	Br	0.65122 0.07558 0.95742 -0.19600
Br	Br	0.96447 0.26710 0.02915 -0.16700
C 	C 	0.11895 0.04682 0.97347 -0.02600
C 	C 	0.14816 0.07426 0.94214 0.11400
C 	C 	0.21324 0.10180 0.94340 -0.06000
C 	C 	0.24912 0.10070 0.97520 0.01300
C 	C 	0.21948 0.07186 0.00603 0.10300
C 	C 	0.15491 0.04576 0.00523 -0.04600
H 	H 	0.23592 0.12393 0.91962 0.09200
C 	C 	0.31871 0.13403 0.97746 0.02900
H 	H 	0.13238 0.02389 0.02912 0.07900
C 	C 	0.36190 0.19425 0.00111 -0.07600
C 	C 	0.42798 0.22521 0.00564 0.15800
C 	C 	0.45164 0.19708 0.98478 -0.08900
C 	C 	0.40841 0.13689 0.96093 -0.00400
C 	C 	0.34211 0.10512 0.95734 0.08700
H 	H 	0.34396 0.21621 0.01699 0.09600
H 	H 	0.42628 0.11477 0.94517 0.07400
Br	Br	0.26615 0.06655 0.04910 -0.16600
Br	Br	0.09953 0.07260 0.89685 -0.16600
Br	Br	0.48459 0.30322 0.04291 -0.21900
Br	Br	0.28432 0.02188 0.92553 -0.16800
