data_crystal

_cell_length_a 26.20108
_cell_length_b 26.42190
_cell_length_c 39.26046
_cell_angle_alpha 95.46133
_cell_angle_beta  95.46302
_cell_angle_gamma 125.75294

_symmetry_space_group_name_	'P 1'
_symmetry_space_group_name_H-M	'P 1'

loop_
_symmetry_equiv_pos_as_xyz
  x,y,z

loop_
_atom_site_label
_atom_site_type_symbol
_atom_site_fract_x
_atom_site_fract_y
_atom_site_fract_z
_atom_site_charge
C 	C 	0.96613 0.02843 0.99939 0.01800
C 	C 	0.92546 0.96257 0.99789 -0.06700
C 	C 	0.94975 0.92739 0.99555 0.01800
C 	C 	0.01478 0.95808 0.99479 -0.06600
C 	C 	0.05577 0.02393 0.99660 0.01800
C 	C 	0.03137 0.05911 0.99880 -0.06500
H 	H 	0.87498 0.93873 0.99817 0.04800
H 	H 	0.03352 0.93079 0.99294 0.04800
H 	H 	0.06298 0.11006 0.00016 0.04600
C 	C 	0.93583 0.00419 0.45599 0.01800
C 	C 	0.90252 0.93884 0.45579 -0.06600
C 	C 	0.93573 0.91209 0.45702 0.01900
C 	C 	0.00208 0.95073 0.45831 -0.06500
C 	C 	0.03534 0.01578 0.45850 0.01900
C 	C 	0.00233 0.04252 0.45751 -0.06600
H 	H 	0.85119 0.90905 0.45469 0.04700
H 	H 	0.02786 0.93025 0.45947 0.04800
H 	H 	0.02833 0.09308 0.45811 0.04800
Cu	Cu	0.63806 0.23755 0.00436 0.92700
Cu	Cu	0.68038 0.24281 0.92819 0.86600
Cu	Cu	0.66293 0.33589 0.95988 0.89600
Cu	Cu	0.64156 0.35547 0.03161 0.89300
C 	C 	0.66964 0.28829 0.07751 0.28900
O 	O 	0.54628 0.20059 0.00834 -0.36400
C 	C 	0.64127 0.29831 0.88355 0.28400
O 	O 	0.68864 0.33627 0.00732 -0.64200
O 	O 	0.62225 0.24324 0.95505 -0.64100
O 	O 	0.67670 0.19182 0.99827 -0.37400
O 	O 	0.74323 0.25916 0.96513 -0.44200
O 	O 	0.63788 0.31196 0.07117 -0.38700
O 	O 	0.70912 0.42695 0.96651 -0.38700
C 	C 	0.71077 0.46294 0.99308 0.28900
C 	C 	0.51954 0.22706 0.99755 0.28000
O 	O 	0.55567 0.28630 0.99331 -0.39300
O 	O 	0.67501 0.43825 0.01695 -0.39600
O 	O 	0.66679 0.24821 0.05309 -0.36400
C 	C 	0.72872 0.21675 0.98481 0.28500
O 	O 	0.64245 0.33417 0.91008 -0.38200
O 	O 	0.63784 0.24747 0.88764 -0.42200
H 	H 	0.73548 0.36424 0.01597 0.16200
H 	H 	0.57696 0.21566 0.94298 0.17400
Cu	Cu	0.73598 0.34067 0.45830 0.92700
Cu	Cu	0.73173 0.29826 0.53436 0.86600
Cu	Cu	0.63638 0.31396 0.50278 0.89600
Cu	Cu	0.61644 0.33586 0.43132 0.89300
C 	C 	0.69048 0.31705 0.38473 0.29100
O 	O 	0.77224 0.43196 0.45494 -0.36200
C 	C 	0.67500 0.33554 0.57920 0.28400
O 	O 	0.63655 0.28941 0.45520 -0.64100
O 	O 	0.73002 0.35535 0.50764 -0.64100
O 	O 	0.78196 0.30181 0.46377 -0.37200
O 	O 	0.71473 0.23597 0.49728 -0.44200
O 	O 	0.66279 0.34449 0.39204 -0.38800
O 	O 	0.54438 0.26733 0.49611 -0.38600
C 	C 	0.50752 0.26381 0.46907 0.28700
C 	C 	0.74442 0.45740 0.46566 0.27700
O 	O 	0.68490 0.42047 0.47018 -0.39400
O 	O 	0.53179 0.29957 0.44525 -0.39300
O 	O 	0.72515 0.31304 0.40950 -0.36500
C 	C 	0.75698 0.25023 0.47727 0.28500
O 	O 	0.63756 0.33282 0.55272 -0.38200
O 	O 	0.72682 0.34018 0.57489 -0.42200
H 	H 	0.60882 0.24304 0.44633 0.16300
H 	H 	0.75732 0.40020 0.51978 0.17400
C 	C 	0.66215 0.34007 0.61486 -0.09200
C 	C 	0.60060 0.31873 0.61991 0.01500
C 	C 	0.58618 0.31519 0.65341 -0.07600
C 	C 	0.63306 0.33317 0.68226 0.04400
C 	C 	0.69517 0.35638 0.67735 -0.07700
C 	C 	0.70979 0.36050 0.64395 0.01500
C 	C 	0.61462 0.31986 0.71666 -0.05400
C 	C 	0.65459 0.35965 0.74639 -0.05400
C 	C 	0.64199 0.34082 0.78075 0.04400
C 	C 	0.62031 0.27957 0.78542 -0.07700
C 	C 	0.61680 0.26472 0.81874 0.01500
C 	C 	0.63631 0.31128 0.84797 -0.09200
C 	C 	0.65622 0.37197 0.84317 0.01500
C 	C 	0.65915 0.38661 0.80976 -0.07600
H 	H 	0.56330 0.30284 0.59782 0.03500
H 	H 	0.53806 0.29691 0.65684 0.04600
H 	H 	0.73153 0.36906 0.69921 0.04500
H 	H 	0.75773 0.37796 0.64063 0.02900
H 	H 	0.56810 0.27667 0.71768 0.04100
H 	H 	0.69739 0.40635 0.74539 0.04100
H 	H 	0.60834 0.24411 0.76342 0.04500
H 	H 	0.60050 0.21745 0.82187 0.02900
H 	H 	0.67146 0.40846 0.86539 0.03400
H 	H 	0.67629 0.43408 0.80652 0.04600
C 	C 	0.69613 0.30562 0.34834 -0.09000
C 	C 	0.68512 0.24860 0.33399 0.01800
C 	C 	0.68641 0.23622 0.29871 -0.07600
C 	C 	0.70010 0.28134 0.27777 0.04600
C 	C 	0.71240 0.33892 0.29238 -0.07600
C 	C 	0.71055 0.35101 0.32747 0.02000
C 	C 	0.69509 0.26568 0.23987 -0.05300
C 	C 	0.74159 0.30675 0.22356 -0.05300
C 	C 	0.72861 0.30278 0.18554 0.04600
C 	C 	0.74332 0.35663 0.17261 -0.07700
C 	C 	0.72619 0.35235 0.13708 0.01800
C 	C 	0.69483 0.29429 0.11403 -0.09100
C 	C 	0.68335 0.24114 0.12665 0.02100
C 	C 	0.70034 0.24541 0.16228 -0.07600
H 	H 	0.67409 0.21331 0.34991 0.02700
H 	H 	0.67623 0.19140 0.28761 0.04700
H 	H 	0.72186 0.37363 0.27632 0.04700
H 	H 	0.71981 0.39548 0.33837 0.03200
H 	H 	0.65118 0.22244 0.22492 0.04200
H 	H 	0.78605 0.34897 0.23886 0.04200
H 	H 	0.76628 0.40140 0.19026 0.04500
H 	H 	0.73622 0.39391 0.12756 0.01800
H 	H 	0.65963 0.19616 0.10909 0.03600
H 	H 	0.69067 0.20402 0.17183 0.04800
C 	C 	0.90147 0.84378 0.45752 0.01400
C 	C 	0.87577 0.81961 0.48675 -0.04900
C 	C 	0.85153 0.75732 0.48974 -0.02900
C 	C 	0.85021 0.71705 0.46259 -0.01500
C 	C 	0.87881 0.74266 0.43379 0.03200
C 	C 	0.90215 0.80500 0.43090 -0.06900
C 	C 	0.88675 0.70696 0.40912 -0.05300
C 	C 	0.86760 0.64660 0.41288 -0.03500
C 	C 	0.83626 0.61896 0.44011 0.00200
C 	C 	0.82453 0.65276 0.46435 0.01300
C 	C 	0.78446 0.62041 0.48820 -0.05700
C 	C 	0.76162 0.55802 0.48984 0.00200
C 	C 	0.77580 0.52572 0.46689 -0.07600
C 	C 	0.81365 0.55653 0.44230 -0.01700
H 	H 	0.87733 0.85012 0.50799 0.04000
H 	H 	0.83813 0.74243 0.51409 0.03400
H 	H 	0.92330 0.82427 0.40863 0.04600
H 	H 	0.90938 0.72673 0.38733 0.04000
H 	H 	0.87581 0.62055 0.39401 0.03600
H 	H 	0.76743 0.64148 0.50389 0.04200
H 	H 	0.73098 0.53401 0.50828 0.03300
H 	H 	0.82294 0.53093 0.42379 0.04400
C 	C 	0.90162 0.03313 0.45575 0.01400
C 	C 	0.90639 0.06855 0.43018 -0.04900
C 	C 	0.88189 0.10341 0.43242 -0.02800
C 	C 	0.84902 0.10082 0.45956 -0.01600
C 	C 	0.84548 0.06590 0.48576 0.03200
C 	C 	0.87039 0.03115 0.48318 -0.07000
C 	C 	0.82026 0.06875 0.51519 -0.05500
C 	C 	0.80062 0.10746 0.51965 -0.03400
C 	C 	0.80236 0.14136 0.49385 -0.00300
C 	C 	0.82333 0.13577 0.46268 0.01500
C 	C 	0.81599 0.16328 0.43517 -0.06000
C 	C 	0.79590 0.20178 0.44030 0.00900
C 	C 	0.77950 0.21075 0.47210 -0.08500
C 	C 	0.78197 0.17982 0.49862 -0.01500
H 	H 	0.93156 0.07123 0.40926 0.04000
H 	H 	0.89231 0.13515 0.41433 0.03400
H 	H 	0.86797 0.00482 0.50335 0.04500
H 	H 	0.81763 0.04226 0.53527 0.03900
H 	H 	0.78327 0.11056 0.54317 0.03000
H 	H 	0.82203 0.15227 0.40935 0.04300
H 	H 	0.79110 0.22296 0.41908 0.03800
H 	H 	0.76795 0.18562 0.52297 0.02000
C 	C 	0.10497 0.05597 0.45989 0.01400
C 	C 	0.14663 0.09803 0.49064 -0.04900
C 	C 	0.21283 0.13400 0.49266 -0.02800
C 	C 	0.23830 0.12635 0.46411 -0.01600
C 	C 	0.19606 0.08807 0.43213 0.03200
C 	C 	0.12963 0.05183 0.43050 -0.07000
C 	C 	0.22062 0.08777 0.40197 -0.05400
C 	C 	0.28655 0.12516 0.40315 -0.03500
C 	C 	0.32914 0.16029 0.43492 0.00000
C 	C 	0.30528 0.15857 0.46605 0.01400
C 	C 	0.34831 0.18562 0.49827 -0.05800
C 	C 	0.41411 0.22001 0.49915 0.00600
C 	C 	0.43798 0.22603 0.46811 -0.07600
C 	C 	0.39539 0.19548 0.43608 -0.01500
H 	H 	0.12765 0.10323 0.51297 0.04100
H 	H 	0.24367 0.16971 0.51568 0.03400
H 	H 	0.09713 0.02077 0.40637 0.04600
H 	H 	0.18850 0.05943 0.37734 0.04000
H 	H 	0.30458 0.12562 0.37936 0.03400
H 	H 	0.33116 0.17758 0.52259 0.04200
H 	H 	0.44656 0.24176 0.52407 0.03700
H 	H 	0.41372 0.19809 0.41216 0.03300
C 	C 	0.74656 0.53165 0.99357 -0.07600
C 	C 	0.77018 0.57387 0.02536 0.00400
C 	C 	0.80235 0.63876 0.02609 -0.06000
C 	C 	0.80936 0.66233 0.99470 0.01500
C 	C 	0.79014 0.62037 0.96286 0.00000
C 	C 	0.75734 0.55512 0.96238 -0.01500
C 	C 	0.80578 0.64429 0.93205 -0.03400
C 	C 	0.84138 0.70941 0.93261 -0.05400
C 	C 	0.85839 0.75138 0.96354 0.03200
C 	C 	0.83905 0.72770 0.99441 -0.01500
C 	C 	0.84739 0.76927 0.02356 -0.02900
C 	C 	0.88249 0.83428 0.02358 -0.05000
C 	C 	0.90728 0.85838 0.99416 0.01500
C 	C 	0.89371 0.81681 0.96387 -0.07000
H 	H 	0.76481 0.55655 0.04967 0.02800
H 	H 	0.82454 0.67052 0.05105 0.04100
H 	H 	0.74036 0.52275 0.93780 0.04400
H 	H 	0.79177 0.61245 0.90770 0.03500
H 	H 	0.85492 0.72718 0.90877 0.04000
H 	H 	0.82464 0.75143 0.04553 0.03400
H 	H 	0.89054 0.86603 0.04655 0.04000
H 	H 	0.91093 0.83545 0.94069 0.04700
C 	C 	0.93987 0.06485 0.00056 0.01100
C 	C 	0.91354 0.06896 0.02918 -0.04800
C 	C 	0.88336 0.09845 0.02903 -0.03000
C 	C 	0.87642 0.12165 0.99929 -0.01400
C 	C 	0.90875 0.12308 0.97200 0.03100
C 	C 	0.93909 0.09348 0.97247 -0.06800
C 	C 	0.91108 0.15464 0.94479 -0.05500
C 	C 	0.88079 0.18384 0.94399 -0.03500
C 	C 	0.84428 0.17870 0.96921 -0.00200
C 	C 	0.83980 0.14555 0.99648 0.01500
C 	C 	0.79561 0.13323 0.01854 -0.06000
C 	C 	0.76114 0.15816 0.01538 0.00600
C 	C 	0.76788 0.19344 0.98934 -0.08300
C 	C 	0.80977 0.20386 0.96644 -0.01700
H 	H 	0.91680 0.04957 0.05170 0.03900
H 	H 	0.86840 0.10569 0.05258 0.03400
H 	H 	0.96135 0.09200 0.95084 0.04500
H 	H 	0.93706 0.15717 0.92432 0.03900
H 	H 	0.88409 0.20894 0.92303 0.03100
H 	H 	0.78491 0.10161 0.03676 0.04200
H 	H 	0.72808 0.14878 0.03279 0.04000
H 	H 	0.81394 0.22976 0.94573 0.02600
C 	C 	0.44996 0.19332 0.99460 -0.07600
C 	C 	0.41775 0.20777 0.97168 0.00300
C 	C 	0.35352 0.18174 0.97160 -0.05700
C 	C 	0.31938 0.13827 0.99358 0.01400
C 	C 	0.35289 0.12600 0.01779 0.00100
C 	C 	0.41722 0.15186 0.01732 -0.01800
C 	C 	0.32288 0.09083 0.04338 -0.03500
C 	C 	0.26060 0.06884 0.04574 -0.05400
C 	C 	0.22555 0.07789 0.02114 0.03100
C 	C 	0.25348 0.10981 0.99369 -0.01400
C 	C 	0.21411 0.10949 0.96624 -0.02800
C 	C 	0.15055 0.08395 0.96810 -0.04900
C 	C 	0.12435 0.05592 0.99639 0.01500
C 	C 	0.16189 0.05303 0.02287 -0.07100
H 	H 	0.44310 0.24092 0.95461 0.03300
H 	H 	0.33214 0.19872 0.95610 0.04200
H 	H 	0.44260 0.14210 0.03576 0.04500
H 	H 	0.34858 0.08196 0.06217 0.03600
H 	H 	0.23899 0.04344 0.06639 0.04000
H 	H 	0.23089 0.12507 0.94256 0.03400
H 	H 	0.12090 0.08383 0.94683 0.04000
H 	H 	0.14094 0.02985 0.04431 0.04700
