data_crystal

_cell_length_a 20.44227
_cell_length_b 21.37407
_cell_length_c 35.62269
_cell_angle_alpha 60.91913
_cell_angle_beta  118.77802
_cell_angle_gamma 133.42348

_symmetry_space_group_name_	'P 1'
_symmetry_space_group_name_H-M	'P 1'

loop_
_symmetry_equiv_pos_as_xyz
  x,y,z

loop_
_atom_site_label
_atom_site_type_symbol
_atom_site_fract_x
_atom_site_fract_y
_atom_site_fract_z
_atom_site_charge
C 	C 	0.76844 0.30643 0.02857 0.11100
N 	N 	0.67820 0.25767 0.02834 -0.14500
C 	C 	0.65247 0.28253 0.04404 0.11800
N 	N 	0.71390 0.36112 0.05490 -0.14300
C 	C 	0.80110 0.41616 0.04968 0.11400
N 	N 	0.82984 0.38850 0.03728 -0.14200
C 	C 	0.68722 0.28535 0.50508 0.10800
N 	N 	0.74588 0.36502 0.51575 -0.14300
C 	C 	0.71069 0.40109 0.51541 0.11700
N 	N 	0.61825 0.35675 0.50585 -0.14200
C 	C 	0.56031 0.27303 0.50127 0.11600
N 	N 	0.59431 0.23781 0.49968 -0.14400
C 	C 	0.31299 0.65881 0.18894 0.11400
N 	N 	0.25904 0.57451 0.18445 -0.14500
C 	C 	0.29446 0.54864 0.17577 0.11800
N 	N 	0.38188 0.60701 0.17037 -0.14200
C 	C 	0.43484 0.69105 0.17354 0.12000
N 	N 	0.40099 0.71700 0.18312 -0.14100
C 	C 	0.23061 0.63622 0.66046 0.11400
N 	N 	0.18050 0.55021 0.65946 -0.14400
C 	C 	0.20995 0.52918 0.64317 0.11600
N 	N 	0.29069 0.59236 0.63030 -0.14300
C 	C 	0.34443 0.67559 0.63482 0.11900
N 	N 	0.31387 0.69807 0.64919 -0.14100
Co	Co	0.10080 0.03759 0.04880 1.16300
Co	Co	0.05016 0.10647 0.08957 1.17500
C 	C 	0.28655 0.07784 0.06103 0.25300
Co	Co	0.11933 0.90075 0.04729 1.16800
O 	O 	0.10608 0.14040 0.04274 -0.48600
C 	C 	0.77603 0.90733 0.12558 0.29700
C 	C 	0.14343 0.22199 0.15341 0.29600
C 	C 	0.13596 0.80423 0.14282 0.30700
O 	O 	0.13294 0.99755 0.98858 -0.35000
O 	O 	0.81362 0.99249 0.11504 -0.37300
O 	O 	0.81425 0.87949 0.12235 -0.39100
O 	O 	0.08292 0.15370 0.17780 -0.40900
O 	O 	0.14997 0.21332 0.12065 -0.38300
O 	O 	0.10684 0.79722 0.10237 -0.41100
O 	O 	0.10685 0.82991 0.15471 -0.39000
O 	O 	0.07988 0.93765 0.07283 -0.74900
O 	O 	0.25112 0.99270 0.07559 -0.36700
O 	O 	0.24189 0.10817 0.05476 -0.38900
Co	Co	0.03759 0.00493 0.54347 1.16000
C 	C 	0.21859 0.06623 0.54284 0.31300
Co	Co	0.07528 0.87213 0.55296 1.17400
O 	O 	0.03740 0.10617 0.53534 -0.48300
C 	C 	0.71917 0.86550 0.63614 0.29700
C 	C 	0.08262 0.19359 0.64415 0.29800
C 	C 	0.13454 0.82947 0.64959 0.29700
O 	O 	0.75649 0.95117 0.62282 -0.38500
O 	O 	0.76596 0.83376 0.64713 -0.37900
O 	O 	0.02975 0.12977 0.67239 -0.41100
O 	O 	0.09078 0.17550 0.61615 -0.39500
O 	O 	0.16653 0.88403 0.61379 -0.38800
O 	O 	0.08138 0.83090 0.66011 -0.38800
O 	O 	0.02014 0.90596 0.57047 -0.74300
O 	O 	0.16873 0.00179 0.52383 -0.44000
O 	O 	0.17985 0.07291 0.56019 -0.41900
C 	C 	0.00661 0.99129 0.33554 0.13200
C 	C 	0.01445 0.00900 0.29345 -0.16200
C 	C 	0.02531 0.05636 0.34814 -0.12700
C 	C 	0.01545 0.03789 0.38962 -0.03200
H 	H 	0.03409 0.07302 0.27045 0.05500
H 	H 	0.04793 0.12150 0.32595 0.05000
H 	H 	0.03217 0.08954 0.39892 0.03300
C 	C 	0.10490 0.33730 0.60357 -0.02200
C 	C 	0.12901 0.28619 0.64247 -0.10700
C 	C 	0.17421 0.31343 0.68228 0.09200
C 	C 	0.18550 0.38521 0.68339 -0.07300
C 	C 	0.16183 0.43655 0.64454 -0.02900
C 	C 	0.11863 0.41075 0.60451 0.04400
C 	C 	0.09142 0.46417 0.56231 -0.17800
H 	H 	0.07070 0.31704 0.57293 0.04000
H 	H 	0.21950 0.40536 0.71406 0.04900
C 	C 	0.20758 0.26424 0.72412 -0.19900
H 	H 	0.04366 0.42722 0.53605 0.06000
H 	H 	0.15416 0.52707 0.55034 0.06600
H 	H 	0.05558 0.47977 0.56802 0.06400
H 	H 	0.22940 0.23676 0.71678 0.07300
H 	H 	0.15136 0.20925 0.74209 0.07400
H 	H 	0.26838 0.30937 0.74604 0.06600
C 	C 	0.50838 0.74489 0.67382 -0.07100
C 	C 	0.44193 0.73358 0.63371 -0.02700
C 	C 	0.46604 0.75907 0.59502 0.04600
C 	C 	0.55469 0.79067 0.59764 -0.02400
C 	C 	0.62158 0.80341 0.63760 -0.10200
C 	C 	0.59702 0.77667 0.67640 0.09200
C 	C 	0.66663 0.78675 0.72020 -0.20500
H 	H 	0.48954 0.72466 0.70357 0.05100
H 	H 	0.57349 0.81058 0.56795 0.03700
C 	C 	0.39680 0.75063 0.55110 -0.18100
H 	H 	0.63160 0.74078 0.74810 0.06900
H 	H 	0.71035 0.85586 0.72295 0.07800
H 	H 	0.35584 0.77060 0.54751 0.06900
H 	H 	0.34925 0.68081 0.54856 0.06900
H 	H 	0.43190 0.79425 0.52325 0.06300
C 	C 	0.26462 0.73590 0.69528 -0.07400
C 	C 	0.19792 0.66313 0.67567 -0.02700
C 	C 	0.10331 0.62876 0.66405 0.04500
C 	C 	0.08056 0.67527 0.66686 -0.02600
C 	C 	0.15029 0.75991 0.67525 -0.10600
C 	C 	0.24135 0.78473 0.69496 0.09700
C 	C 	0.31479 0.86450 0.71435 -0.20600
H 	H 	0.33585 0.75798 0.70823 0.05400
H 	H 	0.00890 0.64939 0.65852 0.04000
C 	C 	0.02700 0.54524 0.64755 -0.18400
H 	H 	0.35463 0.84777 0.74714 0.07400
H 	H 	0.28443 0.88693 0.71913 0.08400
H 	H 	0.36314 0.91972 0.69232 0.08200
H 	H 	0.02862 0.48879 0.67256 0.07100
H 	H 	0.03443 0.55512 0.61584 0.07100
C 	C 	0.17188 0.36833 0.12288 -0.02500
C 	C 	0.19316 0.31116 0.15797 -0.10400
C 	C 	0.24014 0.32902 0.20027 0.08800
C 	C 	0.25939 0.39997 0.20730 -0.07200
C 	C 	0.23921 0.45774 0.17210 -0.03100
C 	C 	0.19076 0.43901 0.13006 0.04500
C 	C 	0.16337 0.49703 0.09218 -0.18100
H 	H 	0.13587 0.35483 0.09046 0.04300
H 	H 	0.29622 0.41405 0.23967 0.04600
C 	C 	0.26750 0.27109 0.23837 -0.19700
H 	H 	0.10704 0.46218 0.06560 0.06200
H 	H 	0.22419 0.55852 0.07826 0.06800
H 	H 	0.13743 0.51509 0.10355 0.06900
H 	H 	0.28931 0.24901 0.22701 0.07100
H 	H 	0.20809 0.21202 0.25384 0.07100
H 	H 	0.32674 0.30782 0.26386 0.06300
C 	C 	0.52690 0.79118 0.11738 -0.07100
C 	C 	0.52484 0.75550 0.16214 -0.02700
C 	C 	0.60424 0.76435 0.19456 0.05000
C 	C 	0.68344 0.80610 0.18158 -0.02500
C 	C 	0.68579 0.84260 0.13685 -0.10300
C 	C 	0.60544 0.83144 0.10437 0.09900
C 	C 	0.60221 0.86157 0.05583 -0.20500
H 	H 	0.46522 0.78291 0.09248 0.05100
H 	H 	0.74456 0.81297 0.20643 0.04300
C 	C 	0.60350 0.72626 0.24291 -0.18300
H 	H 	0.53376 0.81216 0.03821 0.07200
H 	H 	0.65555 0.86861 0.04967 0.08600
H 	H 	0.61212 0.92592 0.04161 0.08300
H 	H 	0.56058 0.65270 0.25062 0.06900
H 	H 	0.57446 0.74552 0.25124 0.07300
H 	H 	0.67447 0.75111 0.26421 0.06800
C 	C 	0.32662 0.78265 0.19174 -0.07700
C 	C 	0.27377 0.69136 0.19518 -0.02300
C 	C 	0.18148 0.63537 0.19976 0.04000
C 	C 	0.13805 0.67395 0.18906 -0.01700
C 	C 	0.18685 0.76660 0.17640 -0.10800
C 	C 	0.28391 0.82013 0.18340 0.09800
C 	C 	0.34157 0.91851 0.17789 -0.21400
H 	H 	0.40015 0.82543 0.19351 0.05800
H 	H 	0.06516 0.63201 0.18827 0.03200
C 	C 	0.13120 0.53648 0.21851 -0.17600
H 	H 	0.40620 0.94022 0.20438 0.07900
H 	H 	0.30441 0.93710 0.17986 0.08900
H 	H 	0.36045 0.95412 0.14552 0.09200
H 	H 	0.17971 0.52068 0.24482 0.06900
H 	H 	0.09664 0.50311 0.19182 0.06600
H 	H 	0.07723 0.50896 0.23381 0.05700
C 	C 	0.67298 0.15221 0.51472 -0.10600
C 	C 	0.72449 0.24522 0.50440 -0.01400
C 	C 	0.81152 0.29822 0.49447 0.03100
C 	C 	0.71203 0.11261 0.52098 0.13900
C 	C 	0.65305 0.01330 0.52909 -0.39000
H 	H 	0.60324 0.11031 0.51885 0.05100
H 	H 	0.58763 0.99034 0.50310 0.13300
H 	H 	0.63550 0.98159 0.56158 0.14400
H 	H 	0.68802 0.99113 0.52835 0.14700
H 	H 	0.80849 0.40961 0.44761 0.06500
C 	C 	0.77079 0.46804 0.57472 -0.07300
C 	C 	0.77058 0.48021 0.53221 -0.02900
C 	C 	0.80059 0.56401 0.50220 0.04500
C 	C 	0.82564 0.63262 0.51433 -0.02600
H 	H 	0.74559 0.40304 0.59751 0.04700
C 	C 	0.80149 0.57921 0.45638 -0.18000
H 	H 	0.72969 0.54781 0.43570 0.06700
H 	H 	0.83157 0.55007 0.45782 0.06500
H 	H 	0.84397 0.65117 0.44032 0.06100
C 	C 	0.32775 0.19611 0.49640 -0.01700
C 	C 	0.31409 0.13754 0.53813 -0.11200
C 	C 	0.38413 0.12653 0.56795 0.08800
C 	C 	0.45831 0.16153 0.55314 -0.07400
C 	C 	0.46873 0.21507 0.51031 -0.02900
C 	C 	0.40242 0.23202 0.48155 0.04200
C 	C 	0.41232 0.29020 0.43543 -0.17900
H 	H 	0.27535 0.20692 0.47389 0.03400
H 	H 	0.51082 0.15095 0.57582 0.04500
C 	C 	0.37621 0.07092 0.61447 -0.20100
H 	H 	0.34559 0.27950 0.41395 0.06000
H 	H 	0.43454 0.27487 0.42003 0.06400
H 	H 	0.46450 0.36109 0.43663 0.06900
H 	H 	0.34532 0.00250 0.61587 0.06100
H 	H 	0.33294 0.06887 0.62604 0.07100
H 	H 	0.44569 0.09884 0.63747 0.05800
C 	C 	0.80065 0.26783 0.02207 -0.02300
C 	C 	0.75382 0.17402 0.03327 0.03500
C 	C 	0.78754 0.14183 0.02661 -0.02500
H 	H 	0.75161 0.07092 0.03436 0.03000
C 	C 	0.67563 0.10877 0.05671 -0.17200
H 	H 	0.06518 0.38385 0.01332 0.06100
H 	H 	0.61081 0.09951 0.03303 0.06100
H 	H 	0.69344 0.13162 0.08455 0.06000
H 	H 	0.66207 0.04255 0.07134 0.04800
C 	C 	0.85661 0.50954 0.04978 -0.02500
C 	C 	0.45228 0.14597 0.09446 -0.02900
C 	C 	0.38212 0.14132 0.05661 -0.09600
C 	C 	0.40184 0.18431 0.01440 0.07800
C 	C 	0.48916 0.22425 0.01077 -0.08000
C 	C 	0.55803 0.22569 0.04854 -0.03000
C 	C 	0.53928 0.18505 0.09076 0.03900
C 	C 	0.61245 0.18491 0.13192 -0.17500
H 	H 	0.43788 0.11593 0.12682 0.02700
H 	H 	0.50438 0.25631 0.97844 0.05400
C 	C 	0.32838 0.18177 0.97296 -0.19500
H 	H 	0.58161 0.13471 0.16091 0.05000
H 	H 	0.66335 0.25136 0.13915 0.06400
H 	H 	0.64893 0.16837 0.12753 0.05800
H 	H 	0.28113 0.18521 0.97764 0.08000
H 	H 	0.28860 0.11988 0.96320 0.06700
H 	H 	0.35997 0.23917 0.94544 0.06600
H 	H 	0.71115 0.77094 0.72363 0.08300
C 	C 	0.80661 0.16595 0.52148 -0.13500
H 	H 	0.84848 0.69687 0.49116 0.04400
Co	Co	0.01469 0.86207 0.11100 1.18000
O 	O 	0.05677 0.99238 0.11027 -0.56200
C 	C 	0.06608 0.00630 0.96515 0.19200
C 	C 	0.08025 0.01330 0.79293 -0.07600
C 	C 	0.11381 0.04233 0.83054 -0.02900
C 	C 	0.05275 0.00718 0.85486 -0.04200
C 	C 	0.08590 0.03773 0.89207 -0.07500
H 	H 	0.12753 0.04487 0.77331 0.04200
H 	H 	0.18704 0.09357 0.84011 0.02700
H 	H 	0.15893 0.08905 0.90178 0.04200
C 	C 	0.84663 0.56738 0.00966 -0.08000
O 	O 	0.03120 0.01427 0.98459 -0.38700
C 	C 	0.02570 0.99841 0.91826 0.02000
H 	H 	0.82411 0.55196 0.97892 0.05700
H 	H 	0.77085 0.64576 0.94137 0.06900
H 	H 	0.79783 0.71495 0.96870 0.08100
C 	C 	0.82560 0.68880 0.96495 -0.19600
C 	C 	0.85177 0.63703 0.00876 0.09100
H 	H 	0.83115 0.40957 0.14035 0.06500
H 	H 	0.82384 0.85326 0.85724 0.04300
C 	C 	0.87951 0.32471 0.00485 -0.08300
C 	C 	0.88716 0.53059 0.08976 0.04500
H 	H 	0.88719 0.74489 0.95061 0.08100
C 	C 	0.85308 0.25816 0.50450 -0.00800
C 	C 	0.85948 0.39603 0.47256 -0.17300
C 	C 	0.87784 0.19880 0.02152 -0.11400
C 	C 	0.88322 0.65906 0.04863 -0.10500
C 	C 	0.82990 0.62162 0.55744 -0.10500
C 	C 	0.79480 0.53653 0.58653 0.09200
H 	H 	0.73070 0.44691 0.64242 0.06700
H 	H 	0.76164 0.55584 0.62753 0.08200
C 	C 	0.78410 0.51858 0.63043 -0.20300
H 	H 	0.85131 0.85995 0.79453 0.04600
C 	C 	0.86236 0.13244 0.55348 0.31000
H 	H 	0.91289 0.39564 0.99355 0.05900
C 	C 	0.89981 0.47023 0.13343 -0.17800
H 	H 	0.88363 0.90151 0.92427 0.04800
C 	C 	0.89886 0.60434 0.08892 -0.02000
O 	O 	0.88385 0.10050 0.54099 -0.40300
C 	C 	0.91719 0.29010 0.00362 0.09000
O 	O 	0.87815 0.94967 0.70873 -0.39300
H 	H 	0.90827 0.41999 0.45502 0.05900
C 	C 	0.89705 0.90464 0.86674 -0.06300
H 	H 	0.92365 0.62105 0.11959 0.04100
C 	C 	0.92566 0.75027 0.04750 0.29800
O 	O 	0.91089 0.76495 0.07417 -0.38600
Co	Co	0.89007 0.04394 0.64920 1.15500
O 	O 	0.89911 0.14469 0.59324 -0.41700
O 	O 	0.87470 0.72841 0.58884 -0.39200
H 	H 	0.89952 0.43427 0.49779 0.06600
H 	H 	0.85064 0.53826 0.65530 0.07000
H 	H 	0.93742 0.45083 0.13265 0.06500
H 	H 	0.94021 0.50313 0.16093 0.06200
C 	C 	0.92475 0.90995 0.80487 -0.05700
C 	C 	0.93075 0.93344 0.90447 -0.01300
C 	C 	0.93928 0.17275 0.05374 0.31100
O 	O 	0.91375 0.97508 0.20477 -0.38400
Co	Co	0.90594 0.90399 0.64963 1.19400
C 	C 	0.89920 0.70062 0.57536 0.30800
O 	O 	0.92432 0.00250 0.62354 -0.79300
O 	O 	0.91001 0.80447 0.65974 -0.46800
H 	H 	0.92359 0.29932 0.50156 0.03100
H 	H 	0.93748 0.77726 0.37457 0.03000
O 	O 	0.94751 0.12396 0.04642 -0.41200
Co	Co	0.95339 0.92811 0.14850 1.19200
Co	Co	0.94542 0.07655 0.14798 1.15500
O 	O 	0.94436 0.82367 0.15268 -0.46400
H 	H 	0.94598 0.80700 0.30019 0.04400
H 	H 	0.94390 0.82313 0.42849 0.03700
O 	O 	0.94635 0.94331 0.58811 -0.56200
C 	C 	0.94518 0.94137 0.73202 0.27600
C 	C 	0.95800 0.94002 0.84229 0.07100
C 	C 	0.96541 0.85943 0.31004 -0.03800
C 	C 	0.95901 0.84206 0.35218 -0.02100
C 	C 	0.96650 0.88821 0.40621 -0.01400
H 	H 	0.95764 0.52677 0.64152 0.06900
C 	C 	0.00381 0.35185 0.98707 -0.19000
H 	H 	0.01106 0.31535 0.97712 0.07200
H 	H 	0.00164 0.40426 0.95776 0.06600
C 	C 	0.96844 0.95131 0.23148 0.26900
O 	O 	0.98645 0.73910 0.58061 -0.41200
O 	O 	0.98014 0.93394 0.71239 -0.36900
Co	Co	0.97158 0.83926 0.61508 1.18300
C 	C 	0.98524 0.94881 0.77894 -0.00000
O 	O 	0.99361 0.92614 0.21623 -0.36400
C 	C 	0.99077 0.94203 0.27986 0.02000
O 	O 	0.99403 0.99300 0.47753 -0.34300
Co	Co	0.98138 0.07373 0.58216 1.17600
O 	O 	0.97747 0.86419 0.49440 -0.38700
O 	O 	0.97098 0.18344 0.09342 -0.41600
O 	O 	0.99215 0.03499 0.13019 -0.78500
O 	O 	0.98145 0.81647 0.02098 -0.39700
C 	C 	0.98626 0.93661 0.46568 0.27500
C 	C 	0.97747 0.90702 0.36475 -0.02500
C 	C 	0.98613 0.95390 0.41913 -0.02500
