data_crystal

_cell_length_a 18.64169
_cell_length_b 16.38256
_cell_length_c 40.02723
_cell_angle_alpha 90.91035
_cell_angle_beta  91.29541
_cell_angle_gamma 111.14578

_symmetry_space_group_name_	'P 1'
_symmetry_space_group_name_H-M	'P 1'

loop_
_symmetry_equiv_pos_as_xyz
  x,y,z

loop_
_atom_site_label
_atom_site_type_symbol
_atom_site_fract_x
_atom_site_fract_y
_atom_site_fract_z
_atom_site_charge
Ni	Ni	0.70364 0.31652 0.87945 1.09900
O 	O 	0.61249 0.23238 0.85226 -0.70900
Ni	Ni	0.52577 0.23883 0.87854 1.10500
O 	O 	0.77746 0.29492 0.84655 -0.37000
O 	O 	0.72693 0.14679 0.85494 -0.39700
O 	O 	0.69023 0.40977 0.84932 -0.39900
Ni	Ni	0.60671 0.11225 0.85089 1.07100
O 	O 	0.72761 0.42984 0.95065 -0.39000
O 	O 	0.60567 0.10077 0.90167 -0.39900
O 	O 	0.44208 0.16522 0.84607 -0.38200
O 	O 	0.61742 0.30697 0.90961 -0.69700
O 	O 	0.79412 0.40992 0.90485 -0.37900
O 	O 	0.44818 0.27974 0.90287 -0.35000
O 	O 	0.53172 0.41936 0.89984 -0.41000
Ni	Ni	0.63172 0.42599 0.92491 1.08600
H 	H 	0.60935 0.25277 0.82931 0.15900
H 	H 	0.62094 0.27194 0.92906 0.17100
C 	C 	0.54390 0.09222 0.91845 0.31000
O 	O 	0.69966 0.50990 0.89109 -0.37600
C 	C 	0.77909 0.21595 0.84151 0.26900
C 	C 	0.43542 0.08440 0.83746 0.27800
C 	C 	0.70529 0.49070 0.85952 0.30800
C 	C 	0.46634 0.36351 0.90996 0.29200
C 	C 	0.79273 0.43778 0.93606 0.31300
O 	O 	0.49709 0.13209 0.90910 -0.35600
O 	O 	0.48799 0.05100 0.84728 -0.37700
Ni	Ni	0.61133 0.34249 0.56801 1.10000
O 	O 	0.69688 0.35686 0.53482 -0.69900
Ni	Ni	0.76513 0.30763 0.55987 1.10000
O 	O 	0.57575 0.43578 0.54696 -0.36800
O 	O 	0.69948 0.53166 0.54881 -0.38900
O 	O 	0.53505 0.24868 0.53630 -0.36000
Ni	Ni	0.75804 0.47248 0.51951 1.09500
O 	O 	0.50268 0.16732 0.59499 -0.38500
O 	O 	0.85479 0.52320 0.55000 -0.38300
O 	O 	0.85919 0.34075 0.52961 -0.37900
O 	O 	0.67280 0.28042 0.59054 -0.70200
O 	O 	0.52606 0.31481 0.60184 -0.37500
O 	O 	0.81122 0.23649 0.58933 -0.37000
O 	O 	0.70129 0.11583 0.58306 -0.39400
Ni	Ni	0.60846 0.15648 0.58955 1.06900
H 	H 	0.67620 0.31931 0.51466 0.16300
H 	H 	0.68804 0.30315 0.61371 0.15500
C 	C 	0.87100 0.48942 0.57744 0.29500
O 	O 	0.59502 0.14943 0.53896 -0.40700
C 	C 	0.62622 0.51481 0.54219 0.28900
C 	C 	0.86805 0.38650 0.50185 0.30700
C 	C 	0.54874 0.18143 0.52347 0.30700
C 	C 	0.76943 0.15600 0.59762 0.27600
C 	C 	0.48914 0.23261 0.61033 0.27500
O 	O 	0.82112 0.41704 0.58931 -0.39300
O 	O 	0.81433 0.41486 0.49028 -0.38400
Ni	Ni	0.98189 0.94147 0.75578 1.09000
O 	O 	0.00063 0.85511 0.72346 -0.70100
Ni	Ni	0.06217 0.93563 0.68890 1.09900
O 	O 	0.92003 0.84193 0.78593 -0.36400
O 	O 	0.83642 0.77233 0.74319 -0.41300
O 	O 	0.07804 0.95268 0.78536 -0.35900
Ni	Ni	0.90293 0.78168 0.70141 1.06500
O 	O 	0.07854 0.12606 0.78546 -0.41300
O 	O 	0.87426 0.88550 0.68675 -0.41500
O 	O 	0.07832 0.83885 0.66046 -0.36500
O 	O 	0.03419 0.02333 0.71885 -0.67200
O 	O 	0.95660 0.02606 0.78622 -0.40600
O 	O 	0.14626 0.02682 0.66207 -0.35200
O 	O 	0.17629 0.15236 0.69378 -0.39800
Ni	Ni	0.12049 0.12071 0.73887 1.07000
H 	H 	0.02854 0.82026 0.73381 0.16600
H 	H 	0.99773 0.04708 0.70827 0.13400
C 	C 	0.91197 0.93861 0.66355 0.28000
O 	O 	0.17257 0.03524 0.75085 -0.42200
C 	C 	0.86399 0.77254 0.77369 0.28100
C 	C 	0.01687 0.76769 0.65394 0.29900
C 	C 	0.15039 0.98136 0.77577 0.27400
C 	C 	0.19831 0.09853 0.67554 0.28300
C 	C 	0.00453 0.10650 0.79065 0.33000
O 	O 	0.97918 0.93831 0.65447 -0.37000
O 	O 	0.94760 0.77083 0.65651 -0.41200
Ni	Ni	0.24769 0.68487 0.39441 1.10300
O 	O 	0.34533 0.74425 0.36856 -0.70500
Ni	Ni	0.42598 0.76564 0.40479 1.10100
O 	O 	0.17715 0.71165 0.36003 -0.37200
O 	O 	0.25157 0.85723 0.36122 -0.40600
O 	O 	0.22512 0.56904 0.36816 -0.36900
Ni	Ni	0.35918 0.85600 0.34815 1.07000
O 	O 	0.20372 0.50955 0.43180 -0.38700
O 	O 	0.41546 0.95360 0.38318 -0.38200
O 	O 	0.52219 0.85225 0.38263 -0.36600
O 	O 	0.32889 0.68820 0.42802 -0.70000
O 	O 	0.15653 0.61969 0.42264 -0.37400
O 	O 	0.49319 0.75538 0.44471 -0.35500
O 	O 	0.44027 0.60625 0.44029 -0.39700
Ni	Ni	0.32154 0.56845 0.43506 1.08100
H 	H 	0.35254 0.70374 0.35150 0.15900
H 	H 	0.32101 0.71513 0.44927 0.17700
C 	C 	0.42179 0.94368 0.41557 0.32400
O 	O 	0.33124 0.54235 0.38599 -0.41200
C 	C 	0.18690 0.79245 0.35256 0.26800
C 	C 	0.52542 0.88054 0.35148 0.29700
C 	C 	0.27276 0.52699 0.36498 0.29700
C 	C 	0.48257 0.67788 0.45707 0.29400
C 	C 	0.15377 0.54816 0.43834 0.30300
O 	O 	0.40555 0.86611 0.42827 -0.39400
O 	O 	0.46278 0.85958 0.33183 -0.41100
Ni	Ni	0.36931 0.67775 0.05646 1.10300
O 	O 	0.27484 0.65725 0.02565 -0.69300
Ni	Ni	0.20296 0.68320 0.05692 1.10000
O 	O 	0.41332 0.60131 0.02852 -0.35600
O 	O 	0.29653 0.49230 0.02785 -0.40400
O 	O 	0.43287 0.78369 0.02883 -0.35900
Ni	Ni	0.22184 0.54246 0.00471 1.09700
O 	O 	0.46586 0.85230 0.09243 -0.38900
O 	O 	0.13411 0.47619 0.03579 -0.37100
O 	O 	0.10004 0.63746 0.02936 -0.36700
O 	O 	0.30362 0.72127 0.08494 -0.70300
O 	O 	0.46092 0.70974 0.08901 -0.37300
O 	O 	0.15433 0.73619 0.09271 -0.36800
O 	O 	0.25056 0.86892 0.08714 -0.39700
Ni	Ni	0.35416 0.84757 0.08958 1.07200
H 	H 	0.28725 0.70128 0.00796 0.17500
H 	H 	0.29688 0.69366 0.10705 0.15500
C 	C 	0.12997 0.49169 0.06787 0.29600
O 	O 	0.36018 0.86662 0.03956 -0.39600
C 	C 	0.36857 0.52151 0.01922 0.29400
C 	C 	0.09152 0.59986 0.99911 0.29700
C 	C 	0.41269 0.85099 0.02218 0.30300
C 	C 	0.18861 0.81888 0.10228 0.27100
C 	C 	0.48896 0.78908 0.10307 0.27200
O 	O 	0.17210 0.56755 0.08190 -0.39200
O 	O 	0.15110 0.59589 0.98311 -0.37500
Ni	Ni	0.97693 0.06171 0.26781 1.09100
O 	O 	0.97964 0.14456 0.23020 -0.72200
Ni	Ni	0.92142 0.06120 0.19382 1.09300
O 	O 	0.04125 0.16625 0.29801 -0.35400
O 	O 	0.13706 0.19957 0.26048 -0.41000
O 	O 	0.87562 0.06724 0.28659 -0.36800
Ni	Ni	0.08416 0.19972 0.21429 1.06900
O 	O 	0.87896 0.86072 0.28945 -0.41300
O 	O 	0.10018 0.08457 0.20427 -0.41100
O 	O 	0.92226 0.15578 0.16094 -0.37000
O 	O 	0.93323 0.97466 0.22888 -0.68900
O 	O 	0.98122 0.98178 0.30495 -0.39000
O 	O 	0.83771 0.97194 0.16384 -0.36700
O 	O 	0.79324 0.84892 0.19418 -0.39800
Ni	Ni	0.84348 0.87428 0.24189 1.07100
H 	H 	0.95557 0.18769 0.23587 0.15900
H 	H 	0.97302 0.95111 0.22262 0.14200
C 	C 	0.06738 0.03578 0.17796 0.29400
O 	O 	0.78877 0.95618 0.25494 -0.41200
C 	C 	0.10945 0.21747 0.28835 0.28000
C 	C 	0.98908 0.21923 0.15550 0.26900
C 	C 	0.80727 0.00361 0.28270 0.27900
C 	C 	0.77947 0.90762 0.17583 0.28600
C 	C 	0.95109 0.89723 0.30011 0.29700
O 	O 	0.00324 0.03930 0.16519 -0.36000
O 	O 	0.05435 0.21126 0.16566 -0.39300
C 	C 	0.99386 0.28148 0.12888 -0.12900
C 	C 	0.00347 0.36799 0.13799 0.03300
C 	C 	0.04391 0.43756 0.11754 0.01200
C 	C 	0.07787 0.42036 0.08823 -0.05100
C 	C 	0.05942 0.33295 0.07727 -0.04500
C 	C 	0.01555 0.26395 0.09692 0.09700
S 	S 	0.04530 0.54325 0.12746 -0.00900
S 	S 	0.99328 0.15530 0.08241 -0.05700
H 	H 	0.04974 0.12582 0.09314 0.06800
H 	H 	0.10859 0.58700 0.14750 0.03500
H 	H 	0.98327 0.38167 0.16186 0.00300
H 	H 	0.08076 0.31848 0.05380 0.07000
C 	C 	0.56318 0.81516 0.12135 -0.06600
C 	C 	0.56463 0.81407 0.15630 -0.02900
C 	C 	0.63461 0.84719 0.17446 0.03500
C 	C 	0.70455 0.88039 0.15743 -0.07200
C 	C 	0.70280 0.88149 0.12234 -0.01800
C 	C 	0.63266 0.84940 0.10429 0.04000
S 	S 	0.63334 0.85046 0.21841 -0.05300
S 	S 	0.63254 0.85258 0.06030 -0.00100
H 	H 	0.62331 0.92787 0.05026 0.05700
H 	H 	0.63907 0.77530 0.23059 0.02800
H 	H 	0.51108 0.78924 0.16943 0.02900
H 	H 	0.75613 0.90602 0.10904 0.05900
C 	C 	0.15436 0.85918 0.12765 -0.07400
C 	C 	0.20418 0.92651 0.14847 -0.02900
C 	C 	0.17747 0.98474 0.16540 0.04100
C 	C 	0.09784 0.97047 0.16425 -0.08900
C 	C 	0.04673 0.89581 0.14709 -0.00200
C 	C 	0.07439 0.84214 0.12782 0.02900
S 	S 	0.24537 0.07785 0.18565 -0.04800
S 	S 	0.00836 0.75716 0.10298 -0.00600
H 	H 	0.00156 0.78752 0.07182 0.05100
H 	H 	0.25550 0.05921 0.21828 0.03700
H 	H 	0.26520 0.93768 0.14947 0.02100
H 	H 	0.98529 0.88184 0.14741 0.03000
C 	C 	0.60245 0.92841 0.33736 -0.06700
C 	C 	0.66786 0.91575 0.35089 -0.01400
C 	C 	0.73937 0.95247 0.33590 0.03000
C 	C 	0.74529 0.99817 0.30595 -0.06000
C 	C 	0.68214 0.01829 0.29434 -0.03000
C 	C 	0.61157 0.98618 0.31045 0.05400
S 	S 	0.82099 0.94084 0.35494 -0.01400
S 	S 	0.53839 0.02513 0.29856 -0.05900
H 	H 	0.54656 0.09923 0.31704 0.05500
H 	H 	0.85706 0.01144 0.37591 0.04700
H 	H 	0.66304 0.87617 0.37276 0.05700
H 	H 	0.68721 0.05680 0.27213 0.04800
C 	C 	0.24822 0.44775 0.34364 -0.07900
C 	C 	0.22649 0.36593 0.35875 -0.01500
C 	C 	0.17986 0.29002 0.34121 0.04100
C 	C 	0.15497 0.29594 0.30813 -0.07700
C 	C 	0.18122 0.37682 0.29237 -0.02400
C 	C 	0.22839 0.45229 0.30978 0.04500
S 	S 	0.15407 0.18826 0.36077 -0.02000
S 	S 	0.26207 0.55248 0.28902 -0.07400
H 	H 	0.21153 0.59506 0.29308 0.03900
H 	H 	0.08556 0.17108 0.37628 0.05600
H 	H 	0.24240 0.36202 0.38474 0.04300
H 	H 	0.16480 0.38092 0.26646 0.01500
C 	C 	0.12048 0.81154 0.33974 -0.05900
C 	C 	0.09726 0.79251 0.30609 -0.04100
C 	C 	0.03286 0.80794 0.29342 0.06700
C 	C 	0.99161 0.84372 0.31451 -0.13500
C 	C 	0.00953 0.85270 0.34894 0.04300
C 	C 	0.07441 0.83817 0.36159 0.02000
S 	S 	0.00710 0.78708 0.25067 -0.09500
S 	S 	0.09776 0.85446 0.40467 -0.01900
H 	H 	0.06459 0.77692 0.42057 0.04800
H 	H 	0.05128 0.85675 0.23263 0.02900
H 	H 	0.13001 0.76693 0.28963 0.03700
H 	H 	0.97659 0.87781 0.36547 0.03000
C 	C 	0.55196 0.14318 0.46368 -0.03600
C 	C 	0.50898 0.13864 0.49232 -0.08500
C 	C 	0.43186 0.08087 0.49252 0.12500
C 	C 	0.40093 0.02280 0.46542 -0.03100
C 	C 	0.44664 0.02094 0.43826 -0.08800
C 	C 	0.52136 0.08458 0.43669 0.12900
Br	Br	0.58471 0.08879 0.39914 -0.22900
H 	H 	0.61082 0.18902 0.46314 0.05900
H 	H 	0.34271 0.97555 0.46636 0.06300
Br	Br	0.36973 0.07540 0.53062 -0.22600
C 	C 	0.01293 0.46693 0.43450 -0.01200
C 	C 	0.08152 0.49611 0.45384 -0.08300
C 	C 	0.08055 0.47387 0.48767 0.11700
C 	C 	0.01034 0.42943 0.50252 -0.01500
C 	C 	0.94084 0.40856 0.48400 -0.09800
C 	C 	0.94291 0.42120 0.44920 0.10900
Br	Br	0.85274 0.36848 0.42087 -0.22500
H 	H 	0.01415 0.47896 0.40793 0.07400
H 	H 	0.00959 0.41638 0.52900 0.07300
Br	Br	0.17386 0.50849 0.51452 -0.25400
C 	C 	0.53449 0.59202 0.53537 -0.02900
C 	C 	0.60180 0.58026 0.52538 -0.09100
C 	C 	0.63957 0.62353 0.49683 0.13000
C 	C 	0.60539 0.67007 0.47717 -0.03500
C 	C 	0.53241 0.67003 0.48455 -0.07900
C 	C 	0.49984 0.63691 0.51511 0.11500
Br	Br	0.40473 0.64652 0.52815 -0.26000
H 	H 	0.50696 0.56241 0.55801 0.06800
H 	H 	0.63196 0.69848 0.45420 0.07100
Br	Br	0.73320 0.61284 0.48196 -0.34000
C 	C 	0.80654 0.10371 0.61620 -0.08000
C 	C 	0.88584 0.12305 0.61356 -0.01300
C 	C 	0.92210 0.07334 0.63018 0.01000
C 	C 	0.87723 0.99733 0.64728 -0.06900
C 	C 	0.79782 0.97858 0.64999 -0.03200
C 	C 	0.76319 0.03342 0.63602 0.04600
S 	S 	0.02343 0.11297 0.63212 0.01200
S 	S 	0.66758 0.01768 0.64603 -0.08900
H 	H 	0.66769 0.06651 0.67415 0.02300
H 	H 	0.04926 0.17028 0.65885 0.02300
H 	H 	0.91995 0.17827 0.59911 0.05100
H 	H 	0.76307 0.92234 0.66378 0.05300
C 	C 	0.41812 0.21069 0.62971 -0.06500
C 	C 	0.40973 0.15684 0.65737 -0.02500
C 	C 	0.33811 0.11896 0.67213 0.03300
C 	C 	0.27365 0.13535 0.65944 -0.06600
C 	C 	0.28222 0.19140 0.63243 -0.01600
C 	C 	0.35385 0.22903 0.61746 0.04300
S 	S 	0.32997 0.05059 0.70626 -0.05500
S 	S 	0.36170 0.29788 0.58329 -0.00200
H 	H 	0.34506 0.24908 0.55410 0.06400
H 	H 	0.34419 0.10024 0.73523 0.03700
H 	H 	0.45859 0.14212 0.66680 0.02700
H 	H 	0.23309 0.20547 0.62294 0.05500
C 	C 	0.93908 0.54369 0.59841 -0.06100
C 	C 	0.93768 0.53608 0.63329 -0.03000
C 	C 	0.98200 0.60753 0.65378 0.02900
C 	C 	0.02345 0.68818 0.63926 -0.07400
C 	C 	0.03992 0.68796 0.60537 0.01500
C 	C 	0.99809 0.61578 0.58471 0.00200
S 	S 	0.97645 0.59959 0.69748 -0.13900
S 	S 	0.02133 0.61582 0.54236 0.02900
H 	H 	0.98155 0.65638 0.52401 0.03400
H 	H 	0.03412 0.57403 0.70967 0.06100
H 	H 	0.89838 0.47769 0.64446 0.04700
H 	H 	0.07846 0.74719 0.59441 0.05300
C 	C 	0.91737 0.43241 0.95513 -0.01800
C 	C 	0.86573 0.47655 0.95501 -0.09600
C 	C 	0.88769 0.56082 0.97003 0.14100
C 	C 	0.96095 0.59946 0.98513 -0.07000
C 	C 	0.01377 0.55649 0.98417 -0.03200
C 	C 	0.99144 0.47204 0.96889 0.08800
Br	Br	0.06052 0.40906 0.96582 -0.25100
H 	H 	0.90051 0.36762 0.94359 0.05800
H 	H 	0.97766 0.66419 0.99669 0.07300
Br	Br	0.82110 0.62699 0.96804 -0.24300
C 	C 	0.45546 0.88073 0.96386 -0.04000
C 	C 	0.45313 0.91240 0.99638 -0.07200
C 	C 	0.48982 0.00260 0.00400 0.12200
C 	C 	0.52316 0.06056 0.97854 -0.02600
C 	C 	0.52152 0.02943 0.94563 -0.08400
C 	C 	0.48965 0.93861 0.93851 0.13400
Br	Br	0.49129 0.89222 0.89432 -0.24200
H 	H 	0.42941 0.81118 0.95810 0.08100
H 	H 	0.54991 0.13000 0.98434 0.07100
Br	Br	0.49847 0.04747 0.04913 -0.25700
C 	C 	0.39828 0.45678 0.93130 -0.03500
C 	C 	0.42811 0.39095 0.93719 -0.09500
C 	C 	0.43604 0.36630 0.97032 0.10900
C 	C 	0.41664 0.40970 0.99700 -0.02600
C 	C 	0.39052 0.47834 0.99107 -0.09600
C 	C 	0.38011 0.50101 0.95800 0.12000
Br	Br	0.34305 0.59384 0.94880 -0.31400
H 	H 	0.39249 0.47632 0.90593 0.06800
H 	H 	0.42299 0.39082 0.02241 0.06000
Br	Br	0.47746 0.27723 0.97986 -0.26900
C 	C 	0.85206 0.20876 0.83108 -0.06400
C 	C 	0.89106 0.17121 0.85265 -0.02900
C 	C 	0.95417 0.15238 0.84157 0.05800
C 	C 	0.97724 0.16864 0.80826 -0.11400
C 	C 	0.94679 0.21981 0.78886 -0.01600
C 	C 	0.88313 0.23840 0.79978 0.02900
S 	S 	0.99967 0.10166 0.86871 -0.03700
S 	S 	0.84061 0.29415 0.77329 -0.06300
H 	H 	0.87265 0.38227 0.78036 0.04300
H 	H 	0.96488 0.01258 0.86507 0.05300
H 	H 	0.87085 0.15414 0.87770 0.05500
H 	H 	0.96690 0.23661 0.76378 0.01400
C 	C 	0.21044 0.96742 0.79717 -0.06800
C 	C 	0.26954 0.94787 0.78176 -0.02300
C 	C 	0.34403 0.97787 0.79635 0.03200
C 	C 	0.35790 0.02333 0.82736 -0.05800
C 	C 	0.29519 0.02403 0.84587 -0.01300
C 	C 	0.22170 0.99772 0.83081 0.03000
S 	S 	0.41917 0.96016 0.77528 -0.04900
S 	S 	0.14654 0.01037 0.85342 0.00900
H 	H 	0.15089 0.09515 0.85039 0.05000
H 	H 	0.45757 0.03206 0.75701 0.02500
H 	H 	0.25914 0.91598 0.75727 0.04100
H 	H 	0.30483 0.05253 0.87097 0.06300
C 	C 	0.82374 0.70103 0.79595 -0.07800
C 	C 	0.74556 0.68183 0.80200 -0.01800
C 	C 	0.70597 0.61281 0.82264 0.03500
C 	C 	0.74465 0.56179 0.83708 -0.07300
C 	C 	0.82256 0.58056 0.83084 -0.01700
C 	C 	0.86236 0.64994 0.81048 0.03500
S 	S 	0.60793 0.59028 0.82989 -0.02500
S 	S 	0.95994 0.67075 0.80272 -0.04500
H 	H 	0.96496 0.62122 0.77562 0.02300
H 	H 	0.56388 0.53005 0.80648 0.03500
H 	H 	0.71567 0.72081 0.79075 0.04800
H 	H 	0.85233 0.54130 0.84199 0.05500
