data_crystal

_cell_length_a 20.57827
_cell_length_b 19.06317
_cell_length_c 46.53108
_cell_angle_alpha 90.72239
_cell_angle_beta  90.81253
_cell_angle_gamma 113.77275

_symmetry_space_group_name_	'P 1'
_symmetry_space_group_name_H-M	'P 1'

loop_
_symmetry_equiv_pos_as_xyz
  x,y,z

loop_
_atom_site_label
_atom_site_type_symbol
_atom_site_fract_x
_atom_site_fract_y
_atom_site_fract_z
_atom_site_charge
Ni	Ni	0.41313 0.75931 0.02946 1.10400
O 	O 	0.31455 0.70185 0.01126 -0.70400
Ni	Ni	0.25273 0.71399 0.04201 1.10100
O 	O 	0.37508 0.58744 0.01941 -0.38100
O 	O 	0.47907 0.92792 0.05415 -0.38300
O 	O 	0.22570 0.53509 0.03839 -0.36100
O 	O 	0.15402 0.63605 0.02831 -0.37800
O 	O 	0.35143 0.78489 0.05702 -0.70000
O 	O 	0.50675 0.82297 0.04964 -0.34400
O 	O 	0.20598 0.75340 0.07318 -0.37200
O 	O 	0.26482 0.87686 0.05848 -0.39100
Ni	Ni	0.37123 0.89344 0.05598 1.07400
H 	H 	0.36024 0.77142 0.07675 0.16200
C 	C 	0.23405 0.56231 0.06495 0.32600
O 	O 	0.36084 0.89253 0.01263 -0.41300
C 	C 	0.21933 0.82685 0.07565 0.29500
C 	C 	0.51244 0.88583 0.06369 0.31200
O 	O 	0.26220 0.63651 0.07007 -0.39600
O 	O 	0.19720 0.39959 0.06052 -0.27100
H 	H 	0.24445 0.39863 0.06415 0.16600
O 	O 	0.65412 0.89590 0.06724 -0.26800
H 	H 	0.67881 0.94634 0.05815 0.17300
O 	O 	0.16750 0.93889 0.05808 -0.27700
H 	H 	0.12739 0.90619 0.04533 0.16000
H 	H 	0.02726 0.62870 0.01570 0.10000
C 	C 	0.47748 0.51952 0.00585 0.33300
F 	F 	0.45001 0.49751 0.03222 -0.43700
H 	H 	0.51385 0.42865 0.00182 0.09300
O 	O 	0.46032 0.70152 0.00576 -0.36000
C 	C 	0.43608 0.62624 0.00715 0.31200
C 	C 	0.14009 0.59523 0.00393 0.33200
C 	C 	0.01346 0.57709 0.00262 -0.09800
Ni	Ni	0.28227 0.59201 0.00334 1.08300
C 	C 	0.18197 0.42904 0.08533 0.19700
C 	C 	0.15118 0.90802 0.08486 0.19500
C 	C 	0.20259 0.50895 0.08903 -0.11100
C 	C 	0.55511 0.90867 0.09027 -0.13200
C 	C 	0.62419 0.91084 0.09145 0.20800
C 	C 	0.17367 0.85085 0.09389 -0.12000
H 	H 	0.09760 0.98008 0.09683 0.08400
H 	H 	0.12867 0.31777 0.10379 0.07700
C 	C 	0.11247 0.93413 0.10341 -0.11400
C 	C 	0.14559 0.37903 0.10710 -0.11400
F 	F 	0.89387 0.56485 0.99962 -0.45800
C 	C 	0.19027 0.53760 0.11552 -0.03300
C 	C 	0.52505 0.92387 0.11518 -0.02700
C 	C 	0.66259 0.92806 0.11746 -0.11200
H 	H 	0.47130 0.92087 0.11448 0.02200
H 	H 	0.20684 0.59874 0.11899 0.06700
C 	C 	0.15246 0.81657 0.12061 -0.03300
H 	H 	0.71626 0.93084 0.11819 0.09000
C 	C 	0.09413 0.90214 0.13060 0.01600
H 	H 	0.16834 0.77159 0.12751 0.06200
C 	C 	0.13225 0.40769 0.13325 0.00900
C 	C 	0.15577 0.48742 0.13760 0.12600
C 	C 	0.56370 0.94172 0.14114 0.11300
C 	C 	0.11210 0.84137 0.13879 0.11800
C 	C 	0.63287 0.94423 0.14229 0.01300
C 	C 	0.06122 0.93635 0.15124 -0.01800
C 	C 	0.09676 0.35381 0.15653 -0.00400
H 	H 	0.10288 0.52412 0.16195 0.16200
H 	H 	0.04564 0.76568 0.16174 0.15200
O 	O 	0.14774 0.51665 0.16376 -0.26800
C 	C 	0.02707 0.34084 0.16450 0.13100
C 	C 	0.13031 0.31011 0.16888 -0.09600
H 	H 	0.18399 0.31988 0.16297 0.07400
O 	O 	0.53320 0.95473 0.16554 -0.25500
H 	H 	0.54397 0.01036 0.16570 0.13100
O 	O 	0.09279 0.80836 0.16509 -0.27400
C 	C 	0.67754 0.97291 0.16830 0.01600
H 	H 	0.68606 0.08880 0.16371 0.07100
O 	O 	0.88774 0.94312 0.16375 -0.28200
C 	C 	0.10207 0.98360 0.17394 0.16900
C 	C 	0.70605 0.05163 0.17479 -0.11900
H 	H 	0.86168 0.89571 0.17452 0.16400
H 	H 	0.12077 0.16857 0.18121 0.15000
O 	O 	0.17302 0.99905 0.17679 -0.27800
O 	O 	0.67198 0.84696 0.17838 -0.27000
H 	H 	0.82685 0.18235 0.18196 0.14600
C 	C 	0.09339 0.25052 0.18751 0.15100
C 	C 	0.70181 0.92464 0.18356 0.13000
C 	C 	0.02374 0.23748 0.19552 -0.03500
O 	O 	0.12513 0.20448 0.19743 -0.28800
H 	H 	0.63320 0.82632 0.19238 0.15500
C 	C 	0.07114 0.01751 0.19305 -0.11300
H 	H 	0.17563 0.96005 0.19013 0.16300
C 	C 	0.76483 0.08357 0.19339 0.15900
O 	O 	0.79502 0.16129 0.19836 -0.28300
C 	C 	0.76006 0.95653 0.20251 -0.05200
H 	H 	0.10334 0.05457 0.21027 0.07600
C 	C 	0.79402 0.03628 0.20623 -0.04800
H 	H 	0.78123 0.91967 0.21309 0.06700
C 	C 	0.86539 0.07048 0.21957 0.02500
H 	H 	0.87247 0.86437 0.24014 0.16300
C 	C 	0.87696 0.06986 0.24867 0.02100
C 	C 	0.04598 0.23808 0.25877 -0.02100
H 	H 	0.13104 0.19988 0.25488 0.07700
C 	C 	0.00475 0.98650 0.25387 0.02300
H 	H 	0.76692 0.11015 0.25989 0.08000
C 	C 	0.11443 0.24194 0.26440 -0.08400
H 	H 	0.61781 0.02221 0.27489 0.15400
H 	H 	0.25858 0.33535 0.27465 0.15300
C 	C 	0.06092 0.01651 0.27399 -0.14100
C 	C 	0.02510 0.29353 0.27070 0.14400
C 	C 	0.76368 0.06013 0.27161 -0.07100
C 	C 	0.81791 0.03338 0.26929 -0.04500
O 	O 	0.56710 0.84968 0.28159 -0.27400
H 	H 	0.58276 0.80764 0.27779 0.15000
C 	C 	0.16085 0.29869 0.28299 0.14200
H 	H 	0.25257 0.52414 0.28362 0.14800
H 	H 	0.15632 0.84368 0.27723 0.08300
H 	H 	0.08676 0.07777 0.27791 0.07800
O 	O 	0.65210 0.04849 0.29075 -0.27000
C 	C 	0.13818 0.35100 0.29649 -0.01100
O 	O 	0.20518 0.51336 0.29165 -0.26700
C 	C 	0.07103 0.34955 0.28963 -0.08200
O 	O 	0.22702 0.30070 0.28904 -0.27800
C 	C 	0.04863 0.88791 0.28522 -0.02900
C 	C 	0.08254 0.96765 0.28978 0.17100
C 	C 	0.70454 0.02167 0.28871 0.12100
C 	C 	0.81440 0.97034 0.28585 0.17200
O 	O 	0.86803 0.94532 0.28528 -0.29200
C 	C 	0.12976 0.82517 0.29744 -0.11100
H 	H 	0.05345 0.39005 0.29988 0.08300
C 	C 	0.57460 0.86240 0.31077 0.12300
C 	C 	0.06799 0.83635 0.30330 0.02100
C 	C 	0.70014 0.95706 0.30426 0.01600
C 	C 	0.75513 0.93183 0.30270 -0.10700
C 	C 	0.20552 0.48117 0.31782 0.11400
C 	C 	0.16055 0.79599 0.31852 0.19400
O 	O 	0.13713 0.99787 0.30964 -0.26600
O 	O 	0.22257 0.78797 0.31302 -0.30200
H 	H 	0.26115 0.83793 0.31865 0.12800
H 	H 	0.75233 0.88257 0.31484 0.07900
C 	C 	0.63871 0.91645 0.32278 0.00800
H 	H 	0.46730 0.78348 0.31911 0.04800
C 	C 	0.18062 0.40124 0.32011 0.01600
C 	C 	0.51732 0.82295 0.32860 -0.03900
C 	C 	0.03254 0.81002 0.32918 0.11300
H 	H 	0.11419 0.00096 0.32794 0.13500
C 	C 	0.22512 0.52758 0.34260 -0.03000
H 	H 	0.23882 0.58842 0.34092 0.04200
C 	C 	0.18497 0.36934 0.34668 -0.11300
H 	H 	0.16742 0.30780 0.34843 0.08700
C 	C 	0.12840 0.77600 0.34538 -0.11800
C 	C 	0.64587 0.92814 0.35269 -0.10600
C 	C 	0.06251 0.77917 0.35003 -0.02000
H 	H 	0.28658 0.68930 0.37316 0.16000
C 	C 	0.16880 0.76467 0.36967 0.30600
C 	C 	0.52380 0.83631 0.35844 -0.11100
C 	C 	0.58866 0.88871 0.37049 0.20000
C 	C 	0.22208 0.49479 0.36965 -0.12500
C 	C 	0.20608 0.41590 0.37144 0.20100
H 	H 	0.03674 0.76223 0.37048 0.07400
H 	H 	0.69565 0.96826 0.36214 0.09000
O 	O 	0.14347 0.69976 0.38349 -0.35200
O 	O 	0.22232 0.82424 0.38073 -0.39100
Ni	Ni	0.32448 0.82791 0.38379 1.07300
C 	C 	0.45987 0.80664 0.37614 0.30000
O 	O 	0.43126 0.85468 0.38401 -0.39900
O 	O 	0.29151 0.71868 0.39129 -0.70800
O 	O 	0.17731 0.57179 0.39750 -0.36400
O 	O 	0.44431 0.74170 0.38994 -0.35900
C 	C 	0.22336 0.53977 0.39562 0.29600
O 	O 	0.20468 0.38318 0.39765 -0.28400
O 	O 	0.59637 0.90104 0.39970 -0.26200
H 	H 	0.58266 0.94448 0.40360 0.17200
H 	H 	0.25294 0.38432 0.40056 0.15800
Ni	Ni	0.20247 0.67906 0.41557 1.10300
Ni	Ni	0.36209 0.70559 0.41807 1.10100
O 	O 	0.32617 0.85622 0.42632 -0.37800
O 	O 	0.27531 0.67621 0.44444 -0.69500
O 	O 	0.11517 0.63730 0.44073 -0.34600
O 	O 	0.42317 0.66812 0.44395 -0.33100
C 	C 	0.37656 0.85607 0.44386 0.33200
O 	O 	0.25987 0.53529 0.41849 -0.41600
O 	O 	0.40881 0.81029 0.43873 -0.36100
H 	H 	0.00730 0.41758 0.44682 0.10100
O 	O 	0.13359 0.52897 0.44929 -0.39900
Ni	Ni	0.24109 0.57027 0.45774 1.07500
C 	C 	0.09458 0.56929 0.45222 0.32900
H 	H 	0.38092 0.45809 0.45139 0.08400
C 	C 	0.39828 0.60507 0.45904 0.32800
C 	C 	0.01980 0.53048 0.46165 -0.12900
C 	C 	0.42945 0.49258 0.46314 -0.09400
H 	H 	0.28186 0.71278 0.46062 0.17900
C 	C 	0.44810 0.57110 0.46773 -0.11900
F 	F 	0.45347 0.38163 0.46970 -0.48800
H 	H 	0.50624 0.90301 0.47019 0.12100
C 	C 	0.47243 0.45790 0.47425 0.33800
O 	O 	0.34108 0.58902 0.47449 -0.38700
C 	C 	0.47848 0.93925 0.47510 -0.06300
C 	C 	0.40815 0.91889 0.46524 -0.13400
C 	C 	0.37207 0.96486 0.47315 0.36300
F 	F 	0.30200 0.94239 0.46655 -0.43300
F 	F 	0.02068 0.64977 0.47919 -0.43500
C 	C 	0.51191 0.61564 0.48255 0.34500
O 	O 	0.52199 0.19402 0.48781 -0.39600
H 	H 	0.65110 0.31371 0.49335 0.18000
C 	C 	0.40881 0.03501 0.48738 -0.11100
C 	C 	0.48107 0.05873 0.49442 -0.11500
C 	C 	0.51483 0.00902 0.48957 0.32100
F 	F 	0.58418 0.03045 0.49726 -0.42900
C 	C 	0.55479 0.58081 0.49384 -0.08300
C 	C 	0.53410 0.50144 0.49054 -0.12900
F 	F 	0.53068 0.69185 0.48713 -0.41900
O 	O 	0.64062 0.48548 0.50555 -0.36000
Ni	Ni	0.52817 0.29527 0.50412 1.09700
C 	C 	0.57117 0.46244 0.50693 0.31800
C 	C 	0.52241 0.13763 0.50401 0.34000
H 	H 	0.38170 0.07196 0.49223 0.10500
O 	O 	0.76451 0.45055 0.49636 -0.35900
C 	C 	0.80897 0.41671 0.49374 0.33900
H 	H 	0.60238 0.61495 0.50621 0.10700
O 	O 	0.62939 0.32281 0.51109 -0.69800
O 	O 	0.53377 0.39914 0.52036 -0.38600
F 	F 	0.56383 0.97802 0.99419 -0.41600
O 	O 	0.66468 0.31726 0.89131 -0.70300
Ni	Ni	0.59882 0.33849 0.91787 1.10300
Ni	Ni	0.61467 0.21505 0.87433 1.07500
O 	O 	0.53601 0.16099 0.90295 -0.37300
O 	O 	0.50779 0.29136 0.89318 -0.36000
O 	O 	0.69077 0.37939 0.94169 -0.70700
O 	O 	0.55243 0.38835 0.94571 -0.35700
O 	O 	0.64237 0.50601 0.93885 -0.36700
H 	H 	0.67610 0.35451 0.87559 0.16000
C 	C 	0.54471 0.17124 0.93086 0.33900
C 	C 	0.50915 0.28414 0.86489 0.31100
C 	C 	0.58256 0.46289 0.95131 0.31300
O 	O 	0.56874 0.24099 0.94224 -0.37600
O 	O 	0.54803 0.25126 0.85262 -0.40300
Ni	Ni	0.63753 0.25375 0.54173 1.10500
Ni	Ni	0.69009 0.42845 0.52861 1.10400
O 	O 	0.67159 0.19908 0.57246 -0.35500
O 	O 	0.56960 0.26971 0.57046 -0.39600
O 	O 	0.55890 0.15049 0.52868 -0.35000
H 	H 	0.70051 0.36987 0.57583 0.15800
O 	O 	0.47460 0.23804 0.53932 -0.37400
C 	C 	0.50078 0.24420 0.56562 0.32800
C 	C 	0.04208 0.97219 0.69997 -0.03800
H 	H 	0.03681 0.96219 0.67630 0.05400
C 	C 	0.05452 0.99573 0.75675 -0.00400
H 	H 	0.06032 0.00608 0.78041 0.02900
C 	C 	0.02234 0.89947 0.71794 0.01800
C 	C 	0.11699 0.02379 0.71100 0.00700
C 	C 	0.00167 0.02215 0.74172 -0.01500
C 	C 	0.02932 0.91141 0.74718 0.01800
C 	C 	0.12316 0.03610 0.74011 -0.00100
O 	O 	0.44025 0.84387 0.99855 -0.33200
H 	H 	0.30868 0.72797 0.99378 0.16900
C 	C 	0.41351 0.89614 0.99649 0.32900
O 	O 	0.19127 0.59398 0.98730 -0.37700
O 	O 	0.03103 0.16822 0.70083 -0.29300
H 	H 	0.01630 0.18913 0.71796 0.15100
C 	C 	0.29127 0.06942 0.67300 -0.08200
C 	C 	0.29095 0.12471 0.65344 -0.01800
C 	C 	0.23396 0.14777 0.65309 0.15300
C 	C 	0.17736 0.11457 0.67189 -0.09600
C 	C 	0.17750 0.05897 0.69133 -0.01200
C 	C 	0.23453 0.03596 0.69169 0.12200
C 	C 	0.34763 0.15403 0.63187 0.01700
O 	O 	0.23212 0.20048 0.63365 -0.27500
H 	H 	0.13335 0.13200 0.67129 0.08100
O 	O 	0.23522 0.98127 0.71041 -0.24800
H 	H 	0.33487 0.05130 0.67335 0.06600
C 	C 	0.40367 0.22692 0.63552 0.11600
C 	C 	0.45515 0.25534 0.61425 -0.02700
C 	C 	0.45137 0.21114 0.58941 -0.11900
C 	C 	0.39702 0.13686 0.58645 0.20100
C 	C 	0.34525 0.10896 0.60751 -0.11400
O 	O 	0.40695 0.27142 0.65935 -0.27000
H 	H 	0.49694 0.31233 0.61679 0.05900
O 	O 	0.39341 0.09215 0.56263 -0.27800
H 	H 	0.30283 0.05243 0.60477 0.08100
H 	H 	0.21197 0.93176 0.69976 0.15100
H 	H 	0.43558 0.25779 0.67381 0.14900
H 	H 	0.42225 0.06295 0.56771 0.16300
H 	H 	0.25561 0.25095 0.64366 0.16300
C 	C 	0.03573 0.80300 0.68540 -0.08400
O 	O 	0.04669 0.72788 0.64562 -0.27800
H 	H 	0.09248 0.83685 0.68528 0.07300
H 	H 	0.05055 0.76175 0.62914 0.15200
C 	C 	0.06570 0.55087 0.99508 -0.11800
C 	C 	0.04636 0.48211 0.97908 0.33600
F 	F 	0.09489 0.45234 0.97367 -0.44400
C 	C 	0.55351 0.07459 0.96465 -0.08200
C 	C 	0.51118 0.10421 0.94939 -0.12700
C 	C 	0.43703 0.06338 0.94856 0.32800
C 	C 	0.40560 0.99382 0.96291 -0.07700
C 	C 	0.44778 0.96388 0.97815 -0.10500
C 	C 	0.52213 0.00475 0.97896 0.30300
H 	H 	0.61079 0.10500 0.96508 0.08200
H 	H 	0.34831 0.96343 0.96235 0.09800
F 	F 	0.39538 0.09090 0.93368 -0.43400
C 	C 	0.51032 0.47779 0.99160 -0.08700
C 	C 	0.54045 0.50090 0.96466 -0.12100
C 	C 	0.53592 0.56516 0.95171 0.34100
C 	C 	0.50365 0.60714 0.96602 -0.09400
C 	C 	0.47437 0.58477 0.99313 -0.12000
H 	H 	0.50017 0.65625 0.95575 0.10200
F 	F 	0.56220 0.58644 0.92511 -0.43300
H 	H 	0.04609 0.15884 0.76947 0.06400
H 	H 	0.01100 0.20699 0.82412 0.14900
C 	C 	0.41315 0.30144 0.79859 -0.11300
C 	C 	0.34339 0.26265 0.80776 0.01600
C 	C 	0.32998 0.25831 0.83737 0.11800
C 	C 	0.38631 0.27465 0.85706 -0.02700
C 	C 	0.45577 0.29737 0.84713 -0.11500
C 	C 	0.46972 0.31836 0.81823 0.19700
C 	C 	0.29139 0.20661 0.78813 -0.01600
O 	O 	0.26146 0.22806 0.84677 -0.26800
H 	H 	0.37530 0.26306 0.87962 0.08400
O 	O 	0.53831 0.35383 0.80912 -0.28900
H 	H 	0.42368 0.31056 0.77588 0.08300
C 	C 	0.24875 0.22835 0.76953 0.14800
C 	C 	0.19669 0.17281 0.75223 -0.09500
C 	C 	0.18596 0.09550 0.75402 -0.00600
C 	C 	0.22935 0.07418 0.77231 0.12700
C 	C 	0.28281 0.12987 0.78881 -0.07800
O 	O 	0.25791 0.30360 0.76822 -0.27500
H 	H 	0.16298 0.18932 0.73819 0.07600
O 	O 	0.21942 0.99873 0.77407 -0.25000
H 	H 	0.31636 0.11318 0.80288 0.07200
H 	H 	0.55027 0.31229 0.80096 0.15200
H 	H 	0.22570 0.30961 0.78279 0.15200
H 	H 	0.18500 0.97742 0.78968 0.14900
H 	H 	0.24881 0.27267 0.84947 0.15200
O 	O 	0.08223 0.79386 0.75295 -0.27400
H 	H 	0.12510 0.82275 0.76502 0.15800
C 	C 	0.02589 0.78981 0.76928 0.14200
H 	H 	0.68472 0.35820 0.96127 0.17000
O 	O 	0.68416 0.17523 0.89381 -0.41500
O 	O 	0.71009 0.35845 0.55591 -0.69800
Ni	Ni	0.73688 0.49058 0.94281 1.08200
H 	H 	0.71745 0.20083 0.63178 0.05500
O 	O 	0.74310 0.50148 0.89938 -0.39900
C 	C 	0.73928 0.21149 0.57463 0.30000
H 	H 	0.70972 0.17619 0.83191 0.01300
H 	H 	0.74799 0.50015 0.83088 0.05500
Ni	Ni	0.75090 0.34162 0.91814 1.10300
O 	O 	0.75610 0.52824 0.54802 -0.35900
C 	C 	0.75009 0.17176 0.62449 -0.03800
H 	H 	0.75124 0.93964 0.66007 0.15700
C 	C 	0.75184 0.20544 0.88741 0.30900
C 	C 	0.76237 0.16750 0.59507 -0.11600
C 	C 	0.75335 0.16038 0.83738 -0.02600
H 	H 	0.01182 0.68121 0.78745 0.07100
H 	H 	0.77548 0.62797 0.79261 0.15300
O 	O 	0.77108 0.14719 0.67343 -0.27300
O 	O 	0.76345 0.13298 0.78764 -0.27600
C 	C 	0.79108 0.48773 0.88502 0.31600
O 	O 	0.78484 0.25539 0.55605 -0.39600
O 	O 	0.79159 0.94922 0.64706 -0.24800
C 	C 	0.78289 0.14208 0.64468 0.11800
C 	C 	0.77843 0.16735 0.86590 -0.13600
O 	O 	0.79217 0.27615 0.89568 -0.36100
C 	C 	0.78697 0.13714 0.81560 0.11400
C 	C 	0.80047 0.54311 0.83632 -0.02700
O 	O 	0.80127 0.35806 0.50963 -0.38600
O 	O 	0.81080 0.43319 0.89305 -0.36600
Ni	Ni	0.80862 0.37204 0.55307 1.07000
C 	C 	0.81516 0.53026 0.56024 0.30600
C 	C 	0.80372 0.12832 0.58576 0.19400
O 	O 	0.81156 0.11830 0.55696 -0.26200
H 	H 	0.79473 0.99063 0.78874 0.09500
H 	H 	0.79107 0.18436 0.77973 0.15100
O 	O 	0.80579 0.59910 0.79003 -0.26600
C 	C 	0.00041 0.84817 0.76808 -0.01100
H 	H 	0.80811 0.19706 0.68015 0.14400
O 	O 	0.82769 0.68384 0.56768 -0.27300
H 	H 	0.81903 0.76201 0.81285 0.15600
H 	H 	0.83189 0.68392 0.68454 0.07600
O 	O 	0.83427 0.37579 0.94627 -0.37500
C 	C 	0.82712 0.10641 0.63540 0.00300
H 	H 	0.82568 0.94584 0.73321 0.15200
C 	C 	0.83193 0.54227 0.86317 -0.11800
C 	C 	0.84217 0.57409 0.58701 -0.13900
O 	O 	0.83931 0.49867 0.94603 -0.36500
O 	O 	0.84768 0.48861 0.54958 -0.40700
C 	C 	0.83565 0.09775 0.60592 -0.10600
C 	C 	0.84786 0.64984 0.58990 0.20800
C 	C 	0.83473 0.14635 0.87290 0.20500
H 	H 	0.83177 0.10246 0.90938 0.15800
C 	C 	0.83614 0.60024 0.81657 0.11800
C 	C 	0.84942 0.00362 0.66106 0.09100
H 	H 	0.85745 0.48110 0.60795 0.01500
C 	C 	0.84478 0.11842 0.82246 0.01300
C 	C 	0.84915 0.02808 0.78418 -0.10300
C 	C 	0.85936 0.44643 0.95718 0.32200
H 	H 	0.85664 0.16115 0.55187 0.16100
C 	C 	0.86279 0.53992 0.60993 -0.02800
H 	H 	0.85733 0.82367 0.71508 0.15400
O 	O 	0.85306 0.93656 0.74932 -0.27000
C 	C 	0.00477 0.74409 0.66501 0.14200
O 	O 	0.85961 0.15282 0.90075 -0.28000
H 	H 	0.87100 0.70887 0.55621 0.16800
C 	C 	0.86771 0.08196 0.65643 0.00900
H 	H 	0.86846 0.06886 0.59866 0.08400
O 	O 	0.86467 0.78489 0.82382 -0.27000
C 	C 	0.87434 0.69086 0.61557 -0.12100
C 	C 	0.86734 0.12139 0.85123 -0.11500
H 	H 	0.87929 0.74951 0.61770 0.08300
F 	F 	0.87619 0.33766 0.46148 -0.43300
C 	C 	0.87750 0.45687 0.47916 -0.12400
O 	O 	0.87788 0.79123 0.72485 -0.27100
H 	H 	0.87927 0.92044 0.68167 0.05200
C 	C 	0.88287 0.09748 0.79953 -0.00800
C 	C 	0.89028 0.58139 0.63541 0.11700
C 	C 	0.88587 0.00606 0.76330 0.12800
H 	H 	0.88923 0.57003 0.49319 0.11000
C 	C 	0.88885 0.71696 0.68483 -0.08500
C 	C 	0.89183 0.98084 0.67919 -0.03200
C 	C 	0.89644 0.65719 0.63820 0.01400
H 	H 	0.89863 0.96964 0.30236 0.15600
C 	C 	0.90074 0.59726 0.86982 0.20000
C 	C 	0.90350 0.65752 0.82381 0.01800
O 	O 	0.90984 0.54734 0.65778 -0.27200
C 	C 	0.91141 0.41448 0.46579 0.33300
H 	H 	0.91107 0.10577 0.85669 0.07900
C 	C 	0.91434 0.53668 0.48270 -0.08900
O 	O 	0.91651 0.87577 0.22925 -0.28000
C 	C 	0.91541 0.78456 0.80507 0.14900
C 	C 	0.91958 0.77703 0.70484 0.14400
H 	H 	0.92212 0.09410 0.17753 0.05800
C 	C 	0.92599 0.47392 0.97411 -0.12500
C 	C 	0.92791 0.13698 0.67036 -0.10800
H 	H 	0.95788 0.88719 0.13030 0.07500
H 	H 	0.96824 0.35342 0.13516 0.15100
C 	C 	0.98947 0.92343 0.14784 -0.08600
O 	O 	0.99324 0.38286 0.15262 -0.27400
C 	C 	0.95817 0.95682 0.16716 0.16700
C 	C 	0.99913 0.00438 0.18987 -0.02900
C 	C 	0.99186 0.28456 0.18465 -0.07700
H 	H 	0.93954 0.27707 0.19154 0.06600
C 	C 	0.93225 0.09390 0.20105 -0.05700
C 	C 	0.96637 0.03935 0.21072 0.03000
C 	C 	0.98230 0.17161 0.21395 0.02300
C 	C 	0.97736 0.03891 0.23988 -0.00700
C 	C 	0.99391 0.17159 0.24295 0.02100
H 	H 	0.96273 0.32210 0.24819 0.15600
C 	C 	0.97127 0.90638 0.24902 0.14300
C 	C 	0.95523 0.09407 0.25755 -0.04200
C 	C 	0.99394 0.85762 0.26451 -0.06900
H 	H 	0.96789 0.79616 0.26089 0.07600
O 	O 	0.95814 0.29006 0.26529 -0.27100
H 	H 	0.96557 0.09557 0.28111 0.05000
O 	O 	0.96980 0.81666 0.33446 -0.26000
H 	H 	0.98356 0.86751 0.34408 0.15200
C 	C 	0.98207 0.45106 0.45713 -0.08100
C 	C 	0.98515 0.57323 0.47425 0.34300
C 	C 	0.99077 0.12289 0.77314 -0.09000
O 	O 	0.98582 0.21594 0.80715 -0.27300
C 	C 	0.99563 0.01059 0.71251 0.02600
C 	C 	0.95052 0.03578 0.69394 -0.06100
C 	C 	0.96940 0.11422 0.68905 0.16500
H 	H 	0.94327 0.19736 0.66628 0.07000
C 	C 	0.93067 0.70350 0.66381 -0.00800
C 	C 	0.99297 0.82287 0.70414 -0.00700
H 	H 	0.96045 0.55773 0.65462 0.15800
C 	C 	0.97688 0.44408 0.96854 -0.08200
C 	C 	0.94373 0.53831 0.99247 0.34600
H 	H 	0.96343 0.39328 0.95502 0.10800
C 	C 	0.95352 0.14581 0.79350 0.13700
C 	C 	0.95768 0.05261 0.75828 -0.01300
C 	C 	0.93601 0.65491 0.85024 -0.11200
C 	C 	0.93745 0.72364 0.80483 -0.01200
O 	O 	0.93199 0.59729 0.89606 -0.27700
H 	H 	0.98794 0.69865 0.85590 0.08500
C 	C 	0.94722 0.84666 0.78691 -0.07700
C 	C 	0.99329 0.72696 0.78715 -0.07400
H 	H 	0.93001 0.89328 0.78733 0.08500
H 	H 	0.95891 0.56480 0.89327 0.16700
