data_crystal

_cell_length_a 18.51834
_cell_length_b 18.78349
_cell_length_c 30.80480
_cell_angle_alpha 95.41056
_cell_angle_beta  95.41033
_cell_angle_gamma 126.43756

_symmetry_space_group_name_	'P 1'
_symmetry_space_group_name_H-M	'P 1'

loop_
_symmetry_equiv_pos_as_xyz
  x,y,z

loop_
_atom_site_label
_atom_site_type_symbol
_atom_site_fract_x
_atom_site_fract_y
_atom_site_fract_z
_atom_site_charge
C 	C 	0.87086 0.95820 0.95534 0.12100
N 	N 	0.95917 0.00750 0.95004 -0.13800
C 	C 	0.00294 0.96994 0.94912 0.13100
N 	N 	0.95789 0.88234 0.95247 -0.14000
C 	C 	0.86948 0.83223 0.95755 0.12300
N 	N 	0.82590 0.87043 0.95955 -0.13100
C 	C 	0.99109 0.07956 0.49755 0.11500
N 	N 	0.94130 0.98887 0.49318 -0.13400
C 	C 	0.98357 0.94988 0.49627 0.11500
N 	N 	0.07620 0.00207 0.50397 -0.12800
C 	C 	0.12639 0.09254 0.50670 0.12300
N 	N 	0.08387 0.13161 0.50371 -0.12800
Cu	Cu	0.72520 0.30771 0.95411 0.92900
Cu	Cu	0.71342 0.24577 0.05091 0.87300
Cu	Cu	0.56994 0.25096 0.00442 0.89600
Cu	Cu	0.55117 0.28795 0.91302 0.89900
C 	C 	0.67273 0.27797 0.85897 0.28800
O 	O 	0.77189 0.43684 0.95162 -0.35100
C 	C 	0.62121 0.28839 0.10315 0.28300
O 	O 	0.58186 0.22605 0.94469 -0.63600
O 	O 	0.70549 0.32087 0.01534 -0.64500
O 	O 	0.79068 0.25375 0.96364 -0.36300
O 	O 	0.69070 0.15739 0.00445 -0.44200
O 	O 	0.62481 0.30792 0.86559 -0.37800
O 	O 	0.43831 0.17601 0.99024 -0.37500
C 	C 	0.38909 0.17470 0.95575 0.29600
C 	C 	0.72393 0.46478 0.96197 0.28500
O 	O 	0.63806 0.40587 0.96479 -0.38800
O 	O 	0.42691 0.22906 0.92710 -0.38300
O 	O 	0.72176 0.27648 0.89248 -0.35400
C 	C 	0.75106 0.17810 0.97906 0.29500
O 	O 	0.55694 0.25673 0.06761 -0.38000
O 	O 	0.69957 0.30366 0.09994 -0.41300
H 	H 	0.54721 0.16124 0.93208 0.17300
H 	H 	0.73849 0.38375 0.03098 0.17900
Cu	Cu	0.65702 0.24345 0.51339 0.92700
Cu	Cu	0.69167 0.23515 0.41144 0.87600
Cu	Cu	0.70208 0.38720 0.45833 0.89800
Cu	Cu	0.70514 0.43046 0.55641 0.90000
C 	C 	0.68915 0.29519 0.60711 0.28800
O 	O 	0.53357 0.20678 0.52428 -0.36400
C 	C 	0.64752 0.32617 0.36010 0.28000
O 	O 	0.74557 0.38423 0.51690 -0.63600
O 	O 	0.62860 0.25381 0.45199 -0.64200
O 	O 	0.70085 0.16991 0.50112 -0.36500
O 	O 	0.78709 0.25657 0.45340 -0.43200
O 	O 	0.71702 0.37841 0.60781 -0.37400
O 	O 	0.78150 0.51682 0.46709 -0.38400
C 	C 	0.78425 0.57137 0.49872 0.29500
C 	C 	0.50857 0.25880 0.52017 0.28400
O 	O 	0.56832 0.34289 0.51601 -0.38600
O 	O 	0.76467 0.54968 0.53790 -0.38000
O 	O 	0.69898 0.25305 0.57430 -0.36100
C 	C 	0.76914 0.19938 0.47979 0.28900
O 	O 	0.67402 0.38907 0.39491 -0.37500
O 	O 	0.62695 0.24749 0.36486 -0.41100
H 	H 	0.81202 0.41424 0.52345 0.17100
H 	H 	0.56286 0.22182 0.44025 0.17600
C 	C 	0.67172 0.26032 0.64862 -0.06300
C 	C 	0.58143 0.20053 0.65492 0.00800
C 	C 	0.56324 0.18452 0.69744 -0.05000
C 	C 	0.63545 0.22778 0.73403 0.01900
C 	C 	0.72670 0.28224 0.72725 0.01800
C 	C 	0.74440 0.29817 0.68445 -0.01300
C 	C 	0.79891 0.32418 0.76373 -0.05200
C 	C 	0.78088 0.31740 0.80683 0.01200
C 	C 	0.69054 0.26899 0.81394 -0.06000
C 	C 	0.61781 0.22140 0.77743 -0.01800
H 	H 	0.52511 0.16995 0.62721 0.04100
H 	H 	0.49300 0.14096 0.70208 0.05100
H 	H 	0.81426 0.34345 0.67940 0.04600
H 	H 	0.86911 0.36448 0.75885 0.05000
H 	H 	0.83737 0.35336 0.83481 0.04600
H 	H 	0.54794 0.18258 0.78288 0.04100
C 	C 	0.64253 0.34502 0.31501 -0.07000
C 	C 	0.71696 0.42502 0.30467 0.00300
C 	C 	0.72331 0.43434 0.26038 -0.05500
C 	C 	0.65483 0.36395 0.22598 0.01400
C 	C 	0.57598 0.28664 0.23629 0.01500
C 	C 	0.57012 0.27760 0.28085 -0.01800
C 	C 	0.50655 0.21714 0.20187 -0.05500
C 	C 	0.51838 0.22119 0.15776 0.00500
C 	C 	0.59994 0.29441 0.14763 -0.07100
C 	C 	0.66646 0.36747 0.18160 -0.01800
H 	H 	0.77242 0.47798 0.33086 0.03600
H 	H 	0.78301 0.49495 0.25287 0.04600
H 	H 	0.51150 0.21667 0.28886 0.04500
H 	H 	0.44478 0.15852 0.20933 0.04800
H 	H 	0.46613 0.16514 0.13168 0.03800
H 	H 	0.72865 0.42497 0.17369 0.04300
C 	C 	0.92879 0.85138 0.49358 0.00200
C 	C 	0.85192 0.80730 0.51392 -0.04400
C 	C 	0.80047 0.71465 0.51318 0.02100
C 	C 	0.82857 0.66571 0.49381 -0.07700
C 	C 	0.90302 0.70889 0.47177 0.00800
C 	C 	0.95199 0.80078 0.47073 -0.03500
H 	H 	0.83222 0.84530 0.53045 0.05700
H 	H 	0.92351 0.67115 0.45581 0.04200
C 	C 	0.02339 0.84151 0.44473 0.10200
C 	C 	0.71710 0.66981 0.53083 0.07700
N 	N 	0.08054 0.87396 0.42389 -0.11300
N 	N 	0.65033 0.63395 0.54496 -0.11000
C 	C 	0.94371 0.12024 0.49303 -0.00100
C 	C 	0.89689 0.10732 0.45104 -0.04300
C 	C 	0.83689 0.12952 0.44655 0.02000
C 	C 	0.82456 0.16692 0.48445 -0.08100
C 	C 	0.87220 0.18087 0.52648 0.00600
C 	C 	0.93183 0.15795 0.53094 -0.02400
H 	H 	0.90485 0.07701 0.42194 0.05400
H 	H 	0.86378 0.21062 0.55561 0.04400
C 	C 	0.97978 0.17240 0.57454 0.08200
C 	C 	0.78557 0.11053 0.40311 0.05200
N 	N 	0.01823 0.18397 0.60947 -0.10400
N 	N 	0.74448 0.09530 0.36832 -0.13300
C 	C 	0.22590 0.14658 0.50912 0.00100
C 	C 	0.28417 0.18861 0.55072 -0.04200
C 	C 	0.37687 0.22591 0.55469 0.02000
C 	C 	0.41166 0.22070 0.51669 -0.07800
C 	C 	0.35420 0.18169 0.47490 0.00800
C 	C 	0.26175 0.14515 0.47089 -0.02500
H 	H 	0.25681 0.19006 0.58015 0.05600
H 	H 	0.38141 0.17960 0.44552 0.03200
C 	C 	0.20402 0.10630 0.42743 0.09500
C 	C 	0.43572 0.26910 0.59786 0.06700
N 	N 	0.15772 0.07519 0.39263 -0.11000
N 	N 	0.48287 0.30382 0.63244 -0.11400
C 	C 	0.76038 0.55916 0.96191 -0.07700
C 	C 	0.71661 0.57771 0.93038 0.00700
C 	C 	0.74745 0.66634 0.93049 -0.02600
C 	C 	0.82280 0.73763 0.96263 -0.00300
C 	C 	0.86407 0.71844 0.99530 -0.03300
C 	C 	0.83367 0.62986 0.99494 0.02500
H 	H 	0.65899 0.52309 0.90544 0.03200
H 	H 	0.92179 0.77302 0.02021 0.04700
C 	C 	0.87763 0.61213 0.02875 0.06000
C 	C 	0.70313 0.68374 0.89669 0.09200
N 	N 	0.91283 0.59789 0.05584 -0.11900
N 	N 	0.66764 0.69771 0.86961 -0.11200
C 	C 	0.78135 0.12121 0.97228 -0.07600
C 	C 	0.80541 0.09616 0.00928 -0.00100
C 	C 	0.82823 0.03724 0.00386 -0.03500
C 	C 	0.82766 0.00295 0.96100 0.00900
C 	C 	0.80155 0.02618 0.92391 -0.04400
C 	C 	0.77804 0.08469 0.92924 0.02200
H 	H 	0.80656 0.12280 0.04237 0.02100
H 	H 	0.80151 0.00023 0.89089 0.05600
C 	C 	0.74874 0.10502 0.89035 0.07900
C 	C 	0.85416 0.01385 0.04258 0.08900
N 	N 	0.72523 0.12092 0.85903 -0.10500
N 	N 	0.87495 0.99509 0.07357 -0.11300
C 	C 	0.10151 0.02644 0.94987 -0.00400
C 	C 	0.13409 0.01132 0.91361 -0.03800
C 	C 	0.22806 0.05913 0.91517 0.01900
C 	C 	0.29020 0.12273 0.95349 -0.07700
C 	C 	0.25754 0.13811 0.98966 0.01500
C 	C 	0.16367 0.09047 0.98805 -0.01700
H 	H 	0.08613 0.96143 0.88441 0.05300
H 	H 	0.30540 0.18746 0.01903 0.03800
C 	C 	0.13151 0.10619 0.02607 0.08400
C 	C 	0.26008 0.04065 0.87790 0.07100
N 	N 	0.10569 0.11873 0.05650 -0.10800
N 	N 	0.28575 0.02586 0.84806 -0.11600
