data_crystal

_cell_length_a 30.76651
_cell_length_b 31.06667
_cell_length_c 34.92247
_cell_angle_alpha 95.56376
_cell_angle_beta  95.56243
_cell_angle_gamma 125.55035

_symmetry_space_group_name_	'P 1'
_symmetry_space_group_name_H-M	'P 1'

loop_
_symmetry_equiv_pos_as_xyz
  x,y,z

loop_
_atom_site_label
_atom_site_type_symbol
_atom_site_fract_x
_atom_site_fract_y
_atom_site_fract_z
_atom_site_charge
C 	C 	0.00177 0.95393 0.97064 -0.07800
C 	C 	0.00739 0.03557 0.97510 -0.08000
C 	C 	0.95330 0.00664 0.98045 0.05100
C 	C 	0.92349 0.95141 0.98082 -0.08100
C 	C 	0.94764 0.92495 0.97586 0.03900
C 	C 	0.03171 0.00920 0.97014 0.03800
H 	H 	0.88151 0.92897 0.98468 0.05900
H 	H 	0.02068 0.93360 0.96726 0.05700
H 	H 	0.03040 0.07829 0.97463 0.05900
C 	C 	0.96491 0.02075 0.45878 0.03600
C 	C 	0.02134 0.05248 0.46030 -0.07500
C 	C 	0.04975 0.03038 0.46596 0.03700
C 	C 	0.02170 0.97644 0.47015 -0.07500
C 	C 	0.96538 0.94459 0.46891 0.03600
C 	C 	0.93696 0.96675 0.46311 -0.07500
H 	H 	0.04312 0.09436 0.45742 0.05600
H 	H 	0.04359 0.95918 0.47412 0.05700
H 	H 	0.89339 0.94215 0.46203 0.05600
Cu	Cu	0.62806 0.23732 0.99750 0.93300
Cu	Cu	0.68166 0.24651 0.91944 0.87800
Cu	Cu	0.65762 0.32083 0.94596 0.90100
Cu	Cu	0.62703 0.33677 0.02138 0.90700
C 	C 	0.63940 0.27746 0.07824 0.39700
O 	O 	0.54823 0.20590 0.99362 -0.34200
C 	C 	0.65166 0.29002 0.86205 0.38200
O 	O 	0.67173 0.32110 0.00076 -0.63700
O 	O 	0.62436 0.24273 0.94155 -0.64000
O 	O 	0.66170 0.19864 0.99756 -0.35200
O 	O 	0.72698 0.25796 0.96612 -0.42500
O 	O 	0.61426 0.29798 0.06622 -0.35300
O 	O 	0.69545 0.39793 0.95227 -0.35000
C 	C 	0.69427 0.42862 0.98046 0.30800
C 	C 	0.52797 0.22847 0.97711 0.30600
O 	O 	0.56034 0.27905 0.97354 -0.38200
O 	O 	0.66086 0.40819 0.00551 -0.36800
O 	O 	0.64349 0.24571 0.05336 -0.33500
C 	C 	0.70926 0.22026 0.98733 0.30000
O 	O 	0.64526 0.31766 0.88928 -0.34600
O 	O 	0.65378 0.25025 0.86933 -0.37900
H 	H 	0.71063 0.34502 0.01346 0.18700
H 	H 	0.58791 0.21869 0.92450 0.19200
Cu	Cu	0.74619 0.35541 0.45034 0.93400
Cu	Cu	0.73967 0.30575 0.52992 0.88000
Cu	Cu	0.66300 0.32777 0.50277 0.90200
Cu	Cu	0.64543 0.35603 0.42665 0.90500
C 	C 	0.70413 0.34205 0.36948 0.39800
O 	O 	0.77808 0.43444 0.45289 -0.33900
C 	C 	0.69599 0.33603 0.58690 0.38200
O 	O 	0.66177 0.31249 0.44793 -0.63900
O 	O 	0.74189 0.36094 0.50650 -0.63900
O 	O 	0.78481 0.32152 0.45064 -0.34800
O 	O 	0.72628 0.25879 0.48390 -0.42200
O 	O 	0.68341 0.36707 0.38127 -0.35400
O 	O 	0.58511 0.29008 0.49697 -0.34900
C 	C 	0.55373 0.29058 0.46866 0.31200
C 	C 	0.75544 0.45512 0.46878 0.30500
O 	O 	0.70481 0.42331 0.47339 -0.38100
O 	O 	0.57404 0.32365 0.44357 -0.37200
O 	O 	0.73644 0.33842 0.39447 -0.33600
C 	C 	0.76302 0.27496 0.46170 0.31700
O 	O 	0.66693 0.34093 0.55955 -0.34500
O 	O 	0.73687 0.33525 0.57959 -0.37800
H 	H 	0.63749 0.27377 0.43571 0.18700
H 	H 	0.76623 0.39752 0.52287 0.19200
C 	C 	0.67763 0.36129 0.77575 0.22700
C 	C 	0.65762 0.31864 0.74440 -0.00800
C 	C 	0.63094 0.26587 0.75139 0.22300
C 	C 	0.62603 0.25605 0.78954 0.30400
C 	C 	0.64935 0.29920 0.82133 -0.21100
C 	C 	0.67409 0.35177 0.81410 0.30200
C 	C 	0.66816 0.32963 0.70476 -0.00800
F 	F 	0.61103 0.22426 0.72126 -0.35800
F 	F 	0.69660 0.39391 0.84432 -0.38800
C 	C 	0.72145 0.35743 0.69757 0.22300
C 	C 	0.73094 0.36259 0.65935 0.30400
C 	C 	0.68700 0.33843 0.62769 -0.21000
C 	C 	0.63387 0.31270 0.63514 0.30200
C 	C 	0.62464 0.30888 0.67356 0.22800
F 	F 	0.76391 0.37814 0.72755 -0.35800
F 	F 	0.59095 0.28946 0.60506 -0.38800
F 	F 	0.78284 0.39079 0.65305 -0.39000
F 	F 	0.57317 0.28357 0.68037 -0.35400
F 	F 	0.70190 0.41221 0.76915 -0.35400
F 	F 	0.59880 0.20462 0.79562 -0.39000
C 	C 	0.71185 0.35929 0.26434 0.22300
C 	C 	0.68867 0.30653 0.24546 -0.00500
C 	C 	0.67487 0.26649 0.26777 0.22700
C 	C 	0.68203 0.27864 0.30860 0.30600
C 	C 	0.70273 0.33081 0.32730 -0.21500
C 	C 	0.71894 0.37142 0.30509 0.31100
C 	C 	0.67436 0.29233 0.20231 -0.00500
F 	F 	0.65316 0.21553 0.24979 -0.35600
F 	F 	0.74107 0.42253 0.32300 -0.38600
C 	C 	0.71464 0.30500 0.18006 0.22700
C 	C 	0.70262 0.29806 0.13923 0.30600
C 	C 	0.65034 0.27870 0.12045 -0.21500
C 	C 	0.60942 0.26360 0.14260 0.31100
C 	C 	0.62143 0.27047 0.18335 0.22300
F 	F 	0.76575 0.32541 0.19812 -0.35600
F 	F 	0.55812 0.24269 0.12461 -0.38500
F 	F 	0.74226 0.31200 0.11807 -0.39600
F 	F 	0.58204 0.25738 0.20458 -0.36000
F 	F 	0.72603 0.39843 0.24304 -0.36000
F 	F 	0.66701 0.23928 0.32984 -0.39600
C 	C 	0.93624 0.88781 0.47330 -0.00100
C 	C 	0.95009 0.87518 0.50777 -0.03100
C 	C 	0.92694 0.82152 0.51034 -0.03900
C 	C 	0.88963 0.78004 0.47852 0.01200
C 	C 	0.87453 0.79253 0.44449 -0.03800
C 	C 	0.89776 0.84621 0.44188 -0.03000
C 	C 	0.86763 0.72373 0.48035 0.01400
C 	C 	0.81176 0.68523 0.47888 -0.03700
C 	C 	0.79056 0.63136 0.47878 -0.02400
C 	C 	0.82504 0.61562 0.48014 0.00300
C 	C 	0.88100 0.65415 0.48228 -0.02300
C 	C 	0.90228 0.70807 0.48242 -0.03600
C 	C 	0.80243 0.55948 0.47712 0.06000
C 	C 	0.78200 0.51207 0.47381 -0.08400
H 	H 	0.97952 0.90700 0.53226 0.04400
H 	H 	0.93845 0.81222 0.53686 0.04900
H 	H 	0.84565 0.76075 0.41980 0.05100
H 	H 	0.88691 0.85555 0.41512 0.04600
H 	H 	0.78475 0.69697 0.47747 0.05000
H 	H 	0.74724 0.60178 0.47712 0.05200
H 	H 	0.90789 0.64226 0.48328 0.05500
H 	H 	0.94547 0.73750 0.48354 0.05100
C 	C 	0.93535 0.04450 0.45337 -0.00100
C 	C 	0.90959 0.04881 0.48296 -0.03100
C 	C 	0.88528 0.07510 0.47920 -0.03900
C 	C 	0.88656 0.09734 0.44583 0.01200
C 	C 	0.91128 0.09202 0.41585 -0.03900
C 	C 	0.93552 0.06565 0.41957 -0.03100
C 	C 	0.86376 0.12786 0.44298 0.01400
C 	C 	0.89817 0.18341 0.44313 -0.03700
C 	C 	0.87726 0.21314 0.44349 -0.02400
C 	C 	0.82185 0.18753 0.44362 0.00000
C 	C 	0.78715 0.13180 0.44232 -0.02300
C 	C 	0.80801 0.10203 0.44199 -0.03700
C 	C 	0.80149 0.21900 0.44855 0.06200
C 	C 	0.78416 0.24490 0.45383 -0.09400
H 	H 	0.90939 0.03278 0.50920 0.04500
H 	H 	0.86633 0.07906 0.50252 0.04800
H 	H 	0.91215 0.10874 0.38986 0.05000
H 	H 	0.95502 0.06225 0.39646 0.04500
H 	H 	0.94126 0.20371 0.44387 0.05000
H 	H 	0.90434 0.25621 0.44454 0.05300
H 	H 	0.74426 0.11172 0.44242 0.05300
H 	H 	0.78105 0.05912 0.44159 0.05100
C 	C 	0.10899 0.06367 0.46744 -0.00100
C 	C 	0.13027 0.08348 0.43423 -0.03000
C 	C 	0.18620 0.11288 0.43506 -0.03900
C 	C 	0.22129 0.12271 0.46910 0.01300
C 	C 	0.20010 0.10353 0.50248 -0.03800
C 	C 	0.14417 0.07414 0.50165 -0.03000
C 	C 	0.28008 0.15232 0.46960 0.01400
C 	C 	0.30502 0.12663 0.47469 -0.03500
C 	C 	0.36069 0.15459 0.47486 -0.02200
C 	C 	0.39171 0.20834 0.46992 0.00500
C 	C 	0.36692 0.23410 0.46493 -0.02400
C 	C 	0.31127 0.20620 0.46478 -0.03600
C 	C 	0.44890 0.23696 0.46965 0.06200
C 	C 	0.49677 0.26122 0.46929 -0.07700
H 	H 	0.10339 0.07547 0.40766 0.04500
H 	H 	0.20221 0.12747 0.40914 0.04900
H 	H 	0.22693 0.11126 0.52898 0.05300
H 	H 	0.12813 0.05923 0.52749 0.04600
H 	H 	0.28123 0.08498 0.47830 0.05200
H 	H 	0.37961 0.13443 0.47870 0.05700
H 	H 	0.39070 0.27568 0.46111 0.05300
H 	H 	0.29241 0.22643 0.46097 0.05000
C 	C 	0.91623 0.86679 0.97600 -0.00600
C 	C 	0.89835 0.84721 0.01009 -0.02600
C 	C 	0.87020 0.79228 0.01062 -0.03500
C 	C 	0.85971 0.75653 0.97706 0.00900
C 	C 	0.87714 0.77605 0.94285 -0.03800
C 	C 	0.90529 0.83097 0.94233 -0.02900
C 	C 	0.83087 0.69876 0.97781 0.01500
C 	C 	0.85729 0.67455 0.97275 -0.03600
C 	C 	0.82984 0.61970 0.97333 -0.02200
C 	C 	0.77590 0.58878 0.97899 0.00400
C 	C 	0.74948 0.61289 0.98410 -0.02400
C 	C 	0.77686 0.66772 0.98351 -0.03700
C 	C 	0.74758 0.53231 0.97947 0.06100
C 	C 	0.72349 0.48497 0.97990 -0.07700
H 	H 	0.90679 0.87462 0.03626 0.04600
H 	H 	0.85697 0.77756 0.03718 0.04900
H 	H 	0.86891 0.74867 0.91673 0.05300
H 	H 	0.91875 0.84572 0.91582 0.04500
H 	H 	0.89906 0.69826 0.96848 0.05200
H 	H 	0.85050 0.60130 0.96939 0.05700
H 	H 	0.70774 0.58917 0.98847 0.05200
H 	H 	0.75609 0.68603 0.98731 0.05000
C 	C 	0.73996 0.19829 0.99582 -0.08900
C 	C 	0.79609 0.22965 0.99581 0.02800
C 	C 	0.82380 0.20661 0.99823 -0.07000
C 	C 	0.79578 0.15211 0.00090 0.04800
C 	C 	0.74038 0.12152 0.00307 -0.06600
C 	C 	0.71258 0.14448 0.00059 0.03200
C 	C 	0.82329 0.12609 0.99826 -0.00900
C 	C 	0.80577 0.08519 0.96618 -0.02600
C 	C 	0.83299 0.06180 0.96284 -0.04100
C 	C 	0.87793 0.07915 0.99146 0.01900
C 	C 	0.89542 0.11985 0.02361 -0.03700
C 	C 	0.86820 0.14329 0.02701 -0.02200
C 	C 	0.90557 0.05464 0.98802 -0.00500
C 	C 	0.92785 0.03329 0.98472 -0.02400
H 	H 	0.81799 0.27151 0.99299 0.04500
H 	H 	0.86668 0.23067 0.99685 0.05900
H 	H 	0.71857 0.07957 0.00563 0.06200
H 	H 	0.66941 0.11989 0.00097 0.04900
H 	H 	0.77141 0.07191 0.94369 0.04400
H 	H 	0.81920 0.03028 0.93795 0.05000
H 	H 	0.93005 0.13334 0.04592 0.05200
H 	H 	0.88202 0.17482 0.05189 0.05100
C 	C 	0.08880 0.03946 0.96501 -0.00100
C 	C 	0.13080 0.07988 0.99552 -0.03300
C 	C 	0.18510 0.10436 0.99244 -0.04200
C 	C 	0.19780 0.08860 0.95884 0.01400
C 	C 	0.15586 0.04943 0.92781 -0.03900
C 	C 	0.10157 0.02502 0.93084 -0.03100
C 	C 	0.25483 0.11131 0.95696 0.01300
C 	C 	0.27220 0.07835 0.95701 -0.03600
C 	C 	0.32712 0.10068 0.95821 -0.02300
C 	C 	0.36492 0.15601 0.95928 0.00200
C 	C 	0.34739 0.18871 0.95816 -0.02400
C 	C 	0.29251 0.16645 0.95701 -0.03700
C 	C 	0.42211 0.17999 0.96447 0.06000
C 	C 	0.47029 0.20129 0.96971 -0.08600
H 	H 	0.12135 0.09124 0.02202 0.05000
H 	H 	0.21725 0.13466 0.01652 0.05500
H 	H 	0.16533 0.03735 0.90162 0.04900
H 	H 	0.06940 0.99412 0.90702 0.04500
H 	H 	0.24338 0.03572 0.95697 0.05100
H 	H 	0.34040 0.07518 0.95909 0.05400
H 	H 	0.37641 0.23153 0.95895 0.05200
H 	H 	0.27942 0.19214 0.95674 0.05000
