data_crystal

_cell_length_a 26.12047
_cell_length_b 26.19273
_cell_length_c 32.20177
_cell_angle_alpha 95.50203
_cell_angle_beta  95.49943
_cell_angle_gamma 125.83081

_symmetry_space_group_name_	'P 1'
_symmetry_space_group_name_H-M	'P 1'

loop_
_symmetry_equiv_pos_as_xyz
  x,y,z

loop_
_atom_site_label
_atom_site_type_symbol
_atom_site_fract_x
_atom_site_fract_y
_atom_site_fract_z
_atom_site_charge
C 	C 	0.03104 0.10608 0.99877 0.20500
N 	N 	0.99170 0.04101 0.98965 -0.08700
C 	C 	0.01694 0.00831 0.98551 0.16200
N 	N 	0.08164 0.04075 0.99141 -0.08300
C 	C 	0.12107 0.10579 0.00029 0.18900
N 	N 	0.09580 0.13847 0.00470 -0.08600
C 	C 	0.87662 0.92349 0.44489 0.19400
N 	N 	0.84304 0.85875 0.43598 -0.08800
C 	C 	0.87431 0.83193 0.43996 0.20000
N 	N 	0.93910 0.86999 0.45302 -0.07300
C 	C 	0.97278 0.93471 0.46150 0.20900
N 	N 	0.94152 0.96141 0.45708 -0.08700
Cu	Cu	0.71066 0.33049 0.03076 0.93900
Cu	Cu	0.71791 0.28813 0.93292 0.91200
Cu	Cu	0.72729 0.40685 0.96035 0.91400
Cu	Cu	0.72536 0.46007 0.04859 0.94300
C 	C 	0.73917 0.39490 0.11547 0.27800
O 	O 	0.62298 0.29890 0.04257 -0.31100
C 	C 	0.67088 0.33065 0.87284 0.26600
O 	O 	0.76058 0.42490 0.01978 -0.63500
O 	O 	0.68070 0.31605 0.96901 -0.62400
O 	O 	0.74730 0.28166 0.03066 -0.27800
O 	O 	0.79199 0.31672 0.97268 -0.37500
O 	O 	0.74783 0.44722 0.10596 -0.26500
O 	O 	0.77761 0.49653 0.95620 -0.31600
C 	C 	0.78319 0.54102 0.98369 0.31500
C 	C 	0.59579 0.32593 0.03156 0.29600
O 	O 	0.62835 0.37960 0.01711 -0.31800
O 	O 	0.74626 0.52558 0.01254 -0.29800
O 	O 	0.74912 0.36046 0.08962 -0.31100
C 	C 	0.78684 0.28883 0.00538 0.29600
O 	O 	0.70860 0.38804 0.89762 -0.33900
O 	O 	0.66254 0.28026 0.88536 -0.34000
H 	H 	0.80809 0.45139 0.02679 0.23000
H 	H 	0.63350 0.29099 0.96034 0.20300
Cu	Cu	0.64856 0.24382 0.42945 0.94200
Cu	Cu	0.71457 0.24429 0.52431 0.91300
Cu	Cu	0.57589 0.21608 0.50260 0.92100
Cu	Cu	0.52856 0.24827 0.42365 0.92900
C 	C 	0.58349 0.23459 0.34951 0.25600
O 	O 	0.69112 0.33644 0.42458 -0.29700
C 	C 	0.64950 0.25466 0.58814 0.27100
O 	O 	0.55628 0.20129 0.44219 -0.63600
O 	O 	0.66660 0.26677 0.49243 -0.63000
O 	O 	0.67582 0.18693 0.42083 -0.30000
O 	O 	0.75511 0.23879 0.48001 -0.31900
O 	O 	0.53484 0.23011 0.36314 -0.30000
O 	O 	0.48665 0.16945 0.50759 -0.30600
C 	C 	0.44714 0.17687 0.48512 0.30500
C 	C 	0.66971 0.36769 0.43951 0.29100
O 	O 	0.61801 0.33842 0.45655 -0.31400
O 	O 	0.46959 0.22613 0.46549 -0.31100
O 	O 	0.61397 0.21534 0.36987 -0.28800
C 	C 	0.72265 0.19327 0.44612 0.29800
O 	O 	0.59480 0.21110 0.56180 -0.34300
O 	O 	0.70505 0.27904 0.57608 -0.32200
H 	H 	0.52579 0.15498 0.42973 0.23300
H 	H 	0.68764 0.31290 0.50217 0.23600
C 	C 	0.68011 0.31521 0.69764 0.13700
C 	C 	0.69752 0.36244 0.73231 -0.06500
C 	C 	0.66045 0.34394 0.76435 0.04200
C 	C 	0.61020 0.28051 0.76316 0.13900
C 	C 	0.59139 0.23377 0.72763 -0.06500
C 	C 	0.62908 0.25230 0.69607 0.03700
O 	O 	0.69678 0.32947 0.65839 -0.13500
C 	C 	0.64902 0.26943 0.63309 0.07200
C 	C 	0.60878 0.22311 0.65523 -0.04500
O 	O 	0.59844 0.26525 0.80300 -0.14400
C 	C 	0.64707 0.32506 0.82821 0.07200
C 	C 	0.68375 0.37228 0.80543 -0.04000
H 	H 	0.73796 0.41199 0.73402 0.12200
H 	H 	0.55128 0.18410 0.72595 0.11500
H 	H 	0.56203 0.17861 0.64168 0.10000
H 	H 	0.73265 0.41450 0.81765 0.09900
C 	C 	0.69430 0.37066 0.21554 0.14900
C 	C 	0.64677 0.35691 0.23928 -0.05800
C 	C 	0.61573 0.29979 0.25527 0.05500
C 	C 	0.63492 0.26077 0.25138 0.14100
C 	C 	0.68198 0.27406 0.22734 -0.05800
C 	C 	0.71214 0.33051 0.21052 0.04700
O 	O 	0.70784 0.40766 0.18433 -0.10800
C 	C 	0.73314 0.38411 0.15925 0.09200
C 	C 	0.73604 0.33821 0.17462 -0.03500
O 	O 	0.62155 0.22438 0.28299 -0.13000
C 	C 	0.59253 0.24551 0.30614 0.08600
C 	C 	0.58893 0.29041 0.28991 -0.04000
H 	H 	0.63255 0.38820 0.24355 0.15200
H 	H 	0.69616 0.24273 0.22311 0.13000
H 	H 	0.73674 0.30239 0.15540 0.11800
H 	H 	0.58555 0.32486 0.30833 0.10500
C 	C 	0.82633 0.66496 0.40556 0.05700
C 	C 	0.77871 0.63013 0.42951 0.09100
C 	C 	0.75853 0.66071 0.45436 -0.07400
C 	C 	0.78986 0.72685 0.45676 0.06400
C 	C 	0.83755 0.76158 0.43280 0.07500
C 	C 	0.85266 0.72932 0.40458 -0.06900
C 	C 	0.75304 0.56264 0.43031 0.10500
C 	C 	0.70736 0.62436 0.48094 0.78700
H 	H 	0.77862 0.75192 0.47829 0.14500
C 	C 	0.89830 0.76354 0.37441 0.78500
H 	H 	0.84272 0.64172 0.38756 0.13300
C 	C 	0.70433 0.51203 0.39713 -0.10100
C 	C 	0.67983 0.44857 0.40006 0.08300
C 	C 	0.70209 0.43501 0.43553 0.00600
C 	C 	0.75255 0.48561 0.46775 -0.04700
C 	C 	0.77801 0.54923 0.46453 0.03500
C 	C 	0.68048 0.52568 0.35783 0.79000
H 	H 	0.64255 0.40931 0.37504 0.07100
C 	C 	0.77806 0.47169 0.50599 0.77500
H 	H 	0.81648 0.58855 0.48904 0.14000
F 	F 	0.88871 0.72008 0.34064 -0.36100
F 	F 	0.96110 0.79806 0.39585 -0.38200
F 	F 	0.88862 0.80470 0.35781 -0.38200
F 	F 	0.73310 0.61450 0.51605 -0.38300
F 	F 	0.65531 0.56575 0.45749 -0.37300
F 	F 	0.68482 0.65818 0.49489 -0.35800
F 	F 	0.79809 0.43533 0.49264 -0.41400
F 	F 	0.73002 0.43824 0.52910 -0.41600
F 	F 	0.82983 0.52736 0.53255 -0.37700
F 	F 	0.62698 0.46996 0.33239 -0.40000
F 	F 	0.72844 0.55494 0.33413 -0.39700
F 	F 	0.66354 0.56545 0.36922 -0.36700
C 	C 	0.81756 0.12861 0.42913 0.02400
C 	C 	0.77158 0.06360 0.43018 0.12100
C 	C 	0.70743 0.03998 0.43228 -0.13000
C 	C 	0.69209 0.08329 0.43640 0.08800
C 	C 	0.73852 0.14850 0.43631 -0.00500
C 	C 	0.80069 0.17069 0.42975 -0.04300
C 	C 	0.79252 0.02201 0.43269 0.05100
C 	C 	0.65666 0.96996 0.43399 0.81500
H 	H 	0.64453 0.06675 0.44123 0.08100
C 	C 	0.84997 0.23958 0.42511 0.77700
H 	H 	0.86675 0.14649 0.42835 0.13900
C 	C 	0.80282 0.99696 0.39608 -0.01700
C 	C 	0.82933 0.96360 0.40074 0.04600
C 	C 	0.84291 0.95265 0.44067 0.07000
C 	C 	0.82869 0.97401 0.47671 -0.04700
C 	C 	0.80592 0.01072 0.47257 0.03200
C 	C 	0.79072 0.01015 0.35264 0.73800
H 	H 	0.84113 0.94755 0.37349 0.13700
C 	C 	0.84054 0.96022 0.51992 0.78100
H 	H 	0.79921 0.03132 0.50042 0.12400
F 	F 	0.82149 0.25965 0.39984 -0.38800
F 	F 	0.89848 0.24597 0.40632 -0.36500
F 	F 	0.87713 0.27887 0.46474 -0.38700
F 	F 	0.66634 0.95912 0.47417 -0.38700
F 	F 	0.65957 0.93009 0.40453 -0.35900
F 	F 	0.59537 0.95370 0.42511 -0.37000
F 	F 	0.90598 0.99601 0.53489 -0.35900
F 	F 	0.81338 0.89577 0.51676 -0.37100
F 	F 	0.81382 0.97547 0.54922 -0.35500
F 	F 	0.78915 0.96990 0.32049 -0.33900
F 	F 	0.83940 0.07282 0.35048 -0.38000
F 	F 	0.73240 0.00060 0.34532 -0.36600
C 	C 	0.14328 0.00573 0.51282 -0.00800
C 	C 	0.17801 0.04514 0.48446 0.10600
C 	C 	0.14545 0.05142 0.44982 -0.08300
C 	C 	0.07811 0.01530 0.44328 0.04700
C 	C 	0.04351 0.97594 0.47168 0.07600
C 	C 	0.07666 0.97399 0.50822 -0.02700
C 	C 	0.24772 0.07570 0.48942 0.10300
C 	C 	0.18155 0.09218 0.41778 0.78700
H 	H 	0.05217 0.01625 0.41537 0.12100
C 	C 	0.04107 0.93618 0.54145 0.76800
H 	H 	0.16830 0.99967 0.53841 0.16600
C 	C 	0.29373 0.13537 0.51706 -0.09600
C 	C 	0.35946 0.16646 0.51667 0.08900
C 	C 	0.37940 0.13871 0.48968 0.00700
C 	C 	0.33371 0.07685 0.46467 -0.04200
C 	C 	0.26805 0.04564 0.46514 0.00500
C 	C 	0.27296 0.16504 0.54755 0.79000
H 	H 	0.39527 0.21299 0.53666 0.10600
C 	C 	0.35482 0.04534 0.43625 0.75600
H 	H 	0.23231 0.99888 0.44540 0.16200
F 	F 	0.08285 0.95557 0.57939 -0.35100
F 	F 	0.01099 0.87169 0.52707 -0.38000
F 	F 	0.99555 0.94517 0.54969 -0.34800
F 	F 	0.19926 0.06151 0.39235 -0.39200
F 	F 	0.23602 0.15164 0.43818 -0.37500
F 	F 	0.14387 0.10222 0.39195 -0.37200
F 	F 	0.30358 0.98394 0.41588 -0.35400
F 	F 	0.39870 0.04127 0.46029 -0.41800
F 	F 	0.38320 0.08143 0.40564 -0.42100
F 	F 	0.32464 0.22497 0.56976 -0.37900
F 	F 	0.24393 0.12599 0.57665 -0.39200
F 	F 	0.22991 0.17201 0.52554 -0.36700
C 	C 	0.91106 0.71923 0.99527 0.04800
C 	C 	0.87794 0.73578 0.97008 0.09800
C 	C 	0.81703 0.68703 0.94449 -0.09000
C 	C 	0.78817 0.62269 0.94769 0.08800
C 	C 	0.81919 0.60679 0.97557 0.01400
C 	C 	0.88232 0.65486 0.99814 -0.04800
C 	C 	0.90698 0.80450 0.97162 0.10000
C 	C 	0.78366 0.70334 0.91313 0.78900
H 	H 	0.74076 0.58490 0.92938 0.10600
C 	C 	0.91783 0.63781 0.02668 0.77300
H 	H 	0.95844 0.75691 0.01367 0.13200
C 	C 	0.90285 0.84018 0.00538 -0.08100
C 	C 	0.93819 0.90695 0.00873 0.04900
C 	C 	0.97450 0.93776 0.97804 0.10000
C 	C 	0.97338 0.90113 0.94217 -0.06100
C 	C 	0.94283 0.83539 0.94075 0.05200
C 	C 	0.86548 0.80829 0.03983 0.78700
H 	H 	0.93932 0.93548 0.03603 0.12800
C 	C 	0.00675 0.93218 0.90621 0.77200
H 	H 	0.94715 0.80809 0.91571 0.13900
F 	F 	0.88858 0.61772 0.06135 -0.40300
F 	F 	0.98157 0.68962 0.04129 -0.37100
F 	F 	0.91649 0.58898 0.00450 -0.41600
F 	F 	0.81932 0.72848 0.88177 -0.38400
F 	F 	0.77745 0.74780 0.93364 -0.36000
F 	F 	0.72272 0.64980 0.89381 -0.37600
F 	F 	0.07199 0.96238 0.91770 -0.35700
F 	F 	0.99685 0.97665 0.89699 -0.32400
F 	F 	0.98323 0.88693 0.86952 -0.34400
F 	F 	0.85625 0.84777 0.06424 -0.36300
F 	F 	0.89913 0.79452 0.06621 -0.38400
F 	F 	0.80548 0.75214 0.02220 -0.37000
C 	C 	0.94787 0.18210 0.97450 0.05000
C 	C 	0.94259 0.20014 0.01537 0.09100
C 	C 	0.96828 0.18898 0.05116 -0.08400
C 	C 	0.99843 0.15932 0.04495 0.07700
C 	C 	0.00355 0.14127 0.00406 0.03800
C 	C 	0.97894 0.15346 0.96842 -0.05000
C 	C 	0.90536 0.22588 0.01977 0.10000
C 	C 	0.95853 0.20312 0.09542 0.78900
H 	H 	0.01638 0.14849 0.07182 0.10800
C 	C 	0.98260 0.13274 0.92377 0.78200
H 	H 	0.92651 0.18940 0.94738 0.13000
C 	C 	0.93326 0.29097 0.01829 -0.09100
C 	C 	0.89372 0.31103 0.01570 0.07800
C 	C 	0.82738 0.26756 0.01442 0.00500
C 	C 	0.79979 0.20275 0.01700 -0.06000
C 	C 	0.83966 0.18310 0.02054 0.03400
C 	C 	0.00370 0.33768 0.01530 0.78100
H 	H 	0.91409 0.36018 0.01310 0.10700
C 	C 	0.72812 0.15448 0.01598 0.77600
H 	H 	0.81928 0.13370 0.02228 0.13600
F 	F 	0.04510 0.15592 0.92150 -0.33900
F 	F 	0.96304 0.15563 0.89395 -0.36500
F 	F 	0.94333 0.06653 0.91332 -0.36600
F 	F 	0.89526 0.15782 0.09866 -0.39000
F 	F 	0.97287 0.26342 0.10358 -0.36500
F 	F 	0.99771 0.20128 0.12642 -0.36900
F 	F 	0.69305 0.15521 0.98130 -0.42800
F 	F 	0.71285 0.16954 0.05289 -0.39200
F 	F 	0.70977 0.09261 0.01294 -0.38200
F 	F 	0.02469 0.40057 0.02403 -0.37600
F 	F 	0.01174 0.32534 0.97467 -0.38700
F 	F 	0.04207 0.33186 0.04403 -0.36500
C 	C 	0.29406 0.20726 0.98446 0.05500
C 	C 	0.32374 0.19825 0.01857 0.08800
C 	C 	0.28743 0.16180 0.04819 -0.08100
C 	C 	0.22155 0.13436 0.04244 0.06200
C 	C 	0.19121 0.14047 0.00703 0.05900
C 	C 	0.22742 0.17631 0.97719 -0.05600
C 	C 	0.39338 0.22851 0.02340 0.09200
C 	C 	0.31937 0.15503 0.08712 0.78600
H 	H 	0.19345 0.10773 0.06539 0.11300
C 	C 	0.19577 0.18386 0.93860 0.78400
H 	H 	0.32302 0.23773 0.96322 0.13200
C 	C 	0.41624 0.20045 0.99890 -0.08000
C 	C 	0.48292 0.23349 0.00198 0.06300
C 	C 	0.52651 0.29182 0.03039 0.01100
C 	C 	0.50357 0.31770 0.05677 -0.05800
C 	C 	0.43715 0.28740 0.05127 0.04100
C 	C 	0.36996 0.13781 0.96727 0.78600
H 	H 	0.50116 0.21447 0.98174 0.09800
C 	C 	0.54979 0.37823 0.09009 0.77700
H 	H 	0.41918 0.30938 0.06879 0.13600
F 	F 	0.23653 0.21052 0.90990 -0.35900
F 	F 	0.17937 0.22358 0.95148 -0.35700
F 	F 	0.14108 0.12483 0.91767 -0.33900
F 	F 	0.35784 0.21308 0.11515 -0.39300
F 	F 	0.35668 0.13643 0.07567 -0.37800
F 	F 	0.27442 0.10944 0.10794 -0.37900
F 	F 	0.58197 0.43066 0.07041 -0.41300
F 	F 	0.59398 0.37402 0.11360 -0.42400
F 	F 	0.51782 0.38784 0.11804 -0.37400
F 	F 	0.40059 0.11253 0.95317 -0.38400
F 	F 	0.34439 0.14847 0.93252 -0.39000
F 	F 	0.32054 0.09253 0.98567 -0.36800
