data_crystal

_cell_length_a 20.45096
_cell_length_b 21.18629
_cell_length_c 38.75510
_cell_angle_alpha 60.85107
_cell_angle_beta  118.90795
_cell_angle_gamma 133.38066

_symmetry_space_group_name_	'P 1'
_symmetry_space_group_name_H-M	'P 1'

loop_
_symmetry_equiv_pos_as_xyz
  x,y,z

loop_
_atom_site_label
_atom_site_type_symbol
_atom_site_fract_x
_atom_site_fract_y
_atom_site_fract_z
_atom_site_charge
C 	C 	0.21092 0.55049 0.17152 -0.08100
H 	H 	0.13830 0.52288 0.16225 0.12200
C 	C 	0.27456 0.57636 0.67841 -0.10600
H 	H 	0.19968 0.53582 0.67130 0.09100
Co	Co	0.03640 0.00401 0.04209 1.15900
Co	Co	0.07512 0.87037 0.05018 1.17800
C 	C 	0.20975 0.06947 0.03058 0.31300
O 	O 	0.02972 0.10327 0.03295 -0.45800
C 	C 	0.04582 0.18087 0.13174 0.33400
C 	C 	0.15545 0.84126 0.13794 0.33900
O 	O 	0.17693 0.89562 0.10272 -0.32500
O 	O 	0.08954 0.82232 0.14891 -0.35400
O 	O 	0.05852 0.17577 0.10239 -0.37100
O 	O 	0.03237 0.91009 0.06984 -0.73600
O 	O 	0.15653 0.99873 0.01669 -0.36200
O 	O 	0.17636 0.08379 0.04554 -0.37200
Co	Co	0.05908 0.11428 0.58465 1.18600
Co	Co	0.11313 0.04659 0.54880 1.17400
Co	Co	0.11045 0.89929 0.54110 1.18500
C 	C 	0.28633 0.06929 0.55815 0.29200
O 	O 	0.12472 0.15274 0.54504 -0.44100
C 	C 	0.15276 0.22494 0.64574 0.34500
C 	C 	0.11876 0.79323 0.62733 0.35300
O 	O 	0.08752 0.78817 0.58961 -0.39800
O 	O 	0.09467 0.82161 0.63969 -0.35700
O 	O 	0.08964 0.15618 0.66667 -0.40900
O 	O 	0.15950 0.21816 0.61519 -0.34700
O 	O 	0.07885 0.93990 0.56684 -0.73600
O 	O 	0.24388 0.98223 0.57046 -0.34500
O 	O 	0.25234 0.10666 0.55652 -0.34300
C 	C 	0.06961 0.00365 0.81066 -0.26700
C 	C 	0.06832 0.99570 0.77639 0.33700
O 	O 	0.14734 0.05383 0.76249 -0.34000
H 	H 	0.13235 0.05736 0.82509 0.11500
C 	C 	0.05183 0.93916 0.90011 0.14100
O 	O 	0.10764 0.92213 0.90228 -0.25800
H 	H 	0.08964 0.92190 0.96430 0.05800
H 	H 	0.14928 0.10804 0.74540 0.17000
H 	H 	0.16870 0.98112 0.90009 0.17900
C 	C 	0.09661 0.07204 0.36885 0.16400
C 	C 	0.11510 0.09140 0.40367 -0.03600
O 	O 	0.16566 0.12280 0.34926 -0.26500
H 	H 	0.18520 0.14306 0.41606 0.09700
H 	H 	0.19588 0.09235 0.36205 0.16100
C 	C 	0.22865 0.45075 0.63448 -0.11700
C 	C 	0.26502 0.45475 0.67533 -0.05200
C 	C 	0.27372 0.38708 0.70544 0.30400
C 	C 	0.24947 0.31822 0.69468 -0.06600
C 	C 	0.21023 0.31242 0.65407 -0.14000
C 	C 	0.20236 0.38058 0.62382 0.36700
F 	F 	0.16551 0.37676 0.58428 -0.43000
H 	H 	0.22426 0.50406 0.61084 0.12600
H 	H 	0.25704 0.26672 0.71822 0.09200
C 	C 	0.20590 0.65369 0.68956 -0.12000
C 	C 	0.28295 0.70546 0.67336 -0.05200
C 	C 	0.31503 0.79401 0.65033 0.31000
C 	C 	0.27250 0.82966 0.64498 -0.07300
C 	C 	0.18669 0.77346 0.65450 -0.13000
C 	C 	0.15607 0.68645 0.67897 0.36400
F 	F 	0.07509 0.63169 0.69016 -0.42400
H 	H 	0.18239 0.58700 0.70889 0.11300
H 	H 	0.30055 0.89870 0.62885 0.10700
F 	F 	0.38091 0.84241 0.62981 -0.41900
C 	C 	0.16195 0.34314 0.19137 -0.12800
C 	C 	0.16992 0.41815 0.16052 -0.05100
C 	C 	0.10523 0.34032 0.11007 -0.06700
C 	C 	0.10225 0.26740 0.14114 -0.13200
C 	C 	0.13217 0.27001 0.18192 0.36200
F 	F 	0.13104 0.20070 0.21247 -0.43600
H 	H 	0.18637 0.34477 0.22295 0.11300
H 	H 	0.07941 0.33800 0.07853 0.10100
C 	C 	0.14357 0.70038 0.17981 -0.06500
C 	C 	0.19852 0.79327 0.16303 -0.12200
C 	C 	0.28647 0.83434 0.15974 0.36300
C 	C 	0.31045 0.78240 0.16443 -0.12300
C 	C 	0.25346 0.68863 0.17884 -0.04300
C 	C 	0.17248 0.64860 0.18909 0.30500
F 	F 	0.12244 0.56049 0.20817 -0.42700
H 	H 	0.07685 0.66769 0.18398 0.10100
F 	F 	0.34490 0.92486 0.14770 -0.38600
F 	F 	0.32057 0.20957 0.48646 -0.44000
C 	C 	0.27910 0.63355 0.18256 0.12200
C 	C 	0.37331 0.67070 0.19106 -0.09400
C 	C 	0.33175 0.54587 0.17788 -0.10300
C 	C 	0.23813 0.50552 0.17075 0.12400
C 	C 	0.32822 0.66631 0.67956 0.11900
C 	C 	0.42450 0.72065 0.68343 -0.08900
C 	C 	0.41459 0.59422 0.69197 -0.08100
C 	C 	0.31844 0.54050 0.68470 0.13000
F 	F 	0.30986 0.39051 0.74502 -0.42700
C 	C 	0.13873 0.41532 0.11967 0.30900
F 	F 	0.14563 0.48723 0.08936 -0.41200
H 	H 	0.37201 0.81514 0.15555 0.12700
C 	C 	0.43504 0.10412 0.56595 -0.07800
C 	C 	0.37192 0.12563 0.54507 -0.12900
C 	C 	0.38354 0.19110 0.50810 0.35300
H 	H 	0.42544 0.05215 0.59395 0.09700
C 	C 	0.31330 0.18490 0.98365 -0.07300
C 	C 	0.30294 0.13814 0.02375 -0.13500
C 	C 	0.37573 0.13544 0.05414 0.35200
H 	H 	0.25712 0.18678 0.95985 0.09000
F 	F 	0.36757 0.09222 0.09321 -0.41700
H 	H 	0.35205 0.51378 0.17450 0.08900
O 	O 	0.05921 0.99538 0.60266 -0.54500
C 	C 	0.07614 0.02498 0.46969 0.33900
O 	O 	0.13490 0.00486 0.49014 -0.41200
C 	C 	0.04859 0.93766 0.93569 -0.03100
C 	C 	0.04641 0.03749 0.42523 -0.15100
O 	O 	0.03237 0.88514 0.35233 -0.24300
C 	C 	0.39790 0.63278 0.18282 0.12000
F 	F 	0.40364 0.74909 0.10489 -0.41500
O 	O 	0.04573 0.03449 0.48891 -0.38900
C 	C 	0.39310 0.22354 0.97360 0.31200
F 	F 	0.40236 0.26875 0.93474 -0.42900
C 	C 	0.00740 0.00142 0.35393 -0.12800
H 	H 	0.42710 0.73333 0.20023 0.08900
Co	Co	0.00969 0.86351 0.59984 1.19000
H 	H 	0.00357 0.35235 0.50177 0.11500
O 	O 	0.99817 0.73826 0.08109 -0.40200
O 	O 	0.99738 0.96398 0.09874 -0.54500
H 	H 	0.44839 0.56645 0.69702 0.10900
O 	O 	0.98471 0.10972 0.15358 -0.35800
C 	C 	0.99286 0.95071 0.86299 -0.01200
C 	C 	0.98615 0.94692 0.93518 -0.09400
Co	Co	0.98365 0.84034 0.10979 1.19400
C 	C 	0.46422 0.68648 0.68382 0.11100
C 	C 	0.45968 0.23694 0.49317 -0.12700
H 	H 	0.46751 0.78948 0.68476 0.11700
F 	F 	0.46478 0.65368 0.62064 -0.42300
C 	C 	0.96625 0.91869 0.97437 0.31800
O 	O 	0.96465 0.84940 0.00128 -0.35300
O 	O 	0.96706 0.97114 0.98476 -0.33200
C 	C 	0.99790 0.92519 0.31633 0.09900
Co	Co	0.97058 0.06724 0.07517 1.17400
H 	H 	0.47029 0.28996 0.46552 0.10700
C 	C 	0.98618 0.98399 0.31583 0.15400
C 	C 	0.92852 0.00795 0.24268 0.19300
C 	C 	0.95433 0.02687 0.27888 -0.18500
H 	H 	0.94688 0.07338 0.27829 0.11100
O 	O 	0.89291 0.04793 0.20722 -0.29700
H 	H 	0.82623 0.01038 0.20633 0.13800
C 	C 	0.93858 0.94788 0.24272 -0.06300
O 	O 	0.94088 0.90774 0.19378 -0.34500
C 	C 	0.98990 0.94331 0.82590 0.11700
C 	C 	0.45458 0.17236 0.04401 -0.12000
H 	H 	0.51030 0.16951 0.06773 0.11400
O 	O 	0.82826 0.91917 0.17916 -0.36500
C 	C 	0.89736 0.91717 0.20527 0.33500
O 	O 	0.91816 0.97815 0.68792 -0.34900
C 	C 	0.96910 0.94933 0.71144 0.34000
O 	O 	0.99140 0.92399 0.69618 -0.35400
C 	C 	0.98565 0.93013 0.75569 -0.15100
C 	C 	0.68141 0.28032 0.99848 0.11900
C 	C 	0.58579 0.23866 0.98970 -0.11100
C 	C 	0.55544 0.27426 0.99575 0.14200
C 	C 	0.61845 0.35859 0.00348 -0.11500
C 	C 	0.71322 0.40059 0.01340 0.12200
C 	C 	0.74557 0.36087 0.01176 -0.08600
H 	H 	0.53518 0.17688 0.97987 0.08800
H 	H 	0.59363 0.38713 0.00639 0.09600
H 	H 	0.81889 0.39069 0.02168 0.12400
C 	C 	0.75608 0.31935 0.50543 0.11700
C 	C 	0.81161 0.39937 0.51784 -0.09000
C 	C 	0.76938 0.42508 0.52282 0.12500
C 	C 	0.67444 0.36748 0.51971 -0.10600
C 	C 	0.61964 0.28777 0.50861 0.12000
C 	C 	0.65899 0.26784 0.49786 -0.09500
H 	H 	0.88633 0.43983 0.52453 0.12100
H 	H 	0.64306 0.38456 0.52636 0.09200
H 	H 	0.61444 0.20984 0.48571 0.08700
Co	Co	0.89425 0.89142 0.13499 1.19500
C 	C 	0.91088 0.69593 0.07766 0.35200
Co	Co	0.85147 0.02061 0.12677 1.16000
O 	O 	0.91250 0.99230 0.11183 -0.72300
O 	O 	0.91312 0.79848 0.14825 -0.43000
C 	C 	0.69965 0.84230 0.11143 0.33400
O 	O 	0.72782 0.92621 0.09702 -0.32800
O 	O 	0.74950 0.81908 0.11497 -0.34200
C 	C 	0.84179 0.11741 0.04025 0.35200
O 	O 	0.86789 0.12595 0.07653 -0.40600
O 	O 	0.86160 0.07684 0.03376 -0.38600
O 	O 	0.88477 0.73356 0.08197 -0.36600
Co	Co	0.95062 0.93083 0.63417 1.20200
C 	C 	0.91378 0.75831 0.53684 0.34400
Co	Co	0.95353 0.08464 0.63740 1.17800
O 	O 	0.99549 0.04095 0.61943 -0.78200
O 	O 	0.93673 0.82379 0.63669 -0.43200
C 	C 	0.78000 0.91923 0.61514 0.40100
O 	O 	0.82188 0.00584 0.60514 -0.37100
O 	O 	0.81236 0.88633 0.61133 -0.37700
C 	C 	0.95054 0.18520 0.55090 0.36300
O 	O 	0.98143 0.19458 0.58775 -0.37300
O 	O 	0.96121 0.13865 0.54341 -0.37100
O 	O 	0.97306 0.82491 0.51404 -0.37000
O 	O 	0.90207 0.77273 0.56264 -0.36600
C 	C 	0.91057 0.87112 0.80813 0.08700
C 	C 	0.90875 0.86476 0.77322 0.02100
O 	O 	0.83360 0.80859 0.82388 -0.24900
H 	H 	0.84502 0.81296 0.75796 0.06400
C 	C 	0.92962 0.96235 0.89773 0.20000
C 	C 	0.93391 0.96526 0.86168 -0.08000
O 	O 	0.86915 0.97291 0.89623 -0.25500
H 	H 	0.88944 0.97600 0.83302 0.10000
H 	H 	0.81041 0.91182 0.89921 0.17800
H 	H 	0.84167 0.76127 0.84413 0.16600
C 	C 	0.93574 0.95534 0.37232 -0.01800
C 	C 	0.95484 0.97403 0.40759 0.23900
O 	O 	0.88398 0.93056 0.42459 -0.26200
H 	H 	0.86543 0.90491 0.35940 0.08000
C 	C 	0.97512 0.90814 0.27972 -0.00600
H 	H 	0.98263 0.86162 0.28042 0.08300
H 	H 	0.87688 0.87464 0.44343 0.20500
H 	H 	0.97740 0.82813 0.36273 0.16700
C 	C 	0.62403 0.82538 0.67850 -0.12600
C 	C 	0.54558 0.74609 0.66631 -0.03900
C 	C 	0.54349 0.72501 0.63616 0.30500
C 	C 	0.62159 0.77956 0.62087 -0.04800
C 	C 	0.69945 0.85921 0.63280 -0.14700
C 	C 	0.69850 0.88388 0.66036 0.37900
F 	F 	0.76793 0.96586 0.66836 -0.43800
H 	H 	0.62645 0.84289 0.70130 0.11700
H 	H 	0.62005 0.76172 0.59847 0.11100
C 	C 	0.55058 0.68069 0.18639 -0.12200
C 	C 	0.47912 0.69113 0.16601 -0.06100
C 	C 	0.47468 0.74163 0.12558 0.32000
C 	C 	0.54127 0.78173 0.10593 -0.07300
C 	C 	0.61552 0.77541 0.12685 -0.12200
C 	C 	0.61839 0.72230 0.16688 0.35500
F 	F 	0.68910 0.71439 0.18748 -0.44000
H 	H 	0.55267 0.63916 0.21709 0.10700
H 	H 	0.53779 0.82167 0.07492 0.14000
C 	C 	0.93268 0.30658 0.50463 -0.05100
C 	C 	0.89141 0.21430 0.52061 -0.13600
C 	C 	0.79745 0.15631 0.52068 0.36400
C 	C 	0.75379 0.18989 0.51660 -0.12800
C 	C 	0.79870 0.28318 0.50536 -0.04400
C 	C 	0.88527 0.34074 0.49566 0.30500
F 	F 	0.92275 0.42870 0.47719 -0.42400
H 	H 	0.68678 0.14335 0.52370 0.12100
F 	F 	0.75093 0.06666 0.52867 -0.43500
C 	C 	0.87322 0.60470 0.56909 -0.06700
C 	C 	0.86300 0.66685 0.53425 -0.13700
C 	C 	0.82910 0.65126 0.49579 0.36200
C 	C 	0.81211 0.57849 0.49210 -0.12800
C 	C 	0.82115 0.51575 0.52677 -0.05400
C 	C 	0.85268 0.52966 0.56540 0.31100
F 	F 	0.86037 0.46889 0.59937 -0.41500
H 	H 	0.90072 0.61643 0.59893 0.11100
H 	H 	0.78566 0.56738 0.46221 0.11200
F 	F 	0.81584 0.70882 0.46177 -0.44300
C 	C 	0.52586 0.21927 0.51542 -0.06200
C 	C 	0.51095 0.14986 0.55097 0.31300
F 	F 	0.57383 0.13126 0.57254 -0.42500
C 	C 	0.66151 0.14002 0.00996 -0.13400
C 	C 	0.71314 0.23428 0.99784 -0.04400
C 	C 	0.79401 0.28347 0.98497 0.30400
C 	C 	0.82947 0.24015 0.99043 -0.05700
C 	C 	0.78434 0.14771 0.00850 -0.14400
C 	C 	0.69380 0.09723 0.01196 0.35600
F 	F 	0.64351 0.00662 0.02431 -0.45500
H 	H 	0.59850 0.09991 0.01953 0.10100
H 	H 	0.89678 0.27993 0.98472 0.09900
F 	F 	0.83850 0.37261 0.96754 -0.42100
C 	C 	0.77329 0.55547 0.00455 -0.12900
C 	C 	0.77646 0.48174 0.02905 -0.05100
C 	C 	0.81439 0.47466 0.07106 0.30800
C 	C 	0.84721 0.53954 0.08818 -0.06400
C 	C 	0.84336 0.61284 0.06363 -0.13600
C 	C 	0.80193 0.61773 0.02197 0.35700
F 	F 	0.79229 0.68475 0.99801 -0.42900
H 	H 	0.74218 0.56081 0.97226 0.11700
H 	H 	0.87998 0.53525 0.12031 0.10300
F 	F 	0.81621 0.40310 0.09557 -0.42400
C 	C 	0.46371 0.21651 0.00370 -0.07600
