data_crystal

_cell_length_a 24.46687
_cell_length_b 22.36481
_cell_length_c 31.75115
_cell_angle_alpha 104.02051
_cell_angle_beta  115.94340
_cell_angle_gamma 111.52012

_symmetry_space_group_name_	'P 1'
_symmetry_space_group_name_H-M	'P 1'

loop_
_symmetry_equiv_pos_as_xyz
  x,y,z

loop_
_atom_site_label
_atom_site_type_symbol
_atom_site_fract_x
_atom_site_fract_y
_atom_site_fract_z
_atom_site_charge
C 	C 	0.82467 0.51361 0.05399 -0.06700
C 	C 	0.76075 0.44414 0.01756 0.06600
C 	C 	0.70940 0.43111 0.96690 -0.06000
C 	C 	0.72470 0.48529 0.95174 -0.03300
N 	N 	0.75045 0.38582 0.03134 -0.14000
C 	C 	0.55739 0.28068 0.02253 -0.00500
C 	C 	0.59112 0.24329 0.01771 -0.03100
C 	C 	0.65490 0.27784 0.02150 -0.07100
C 	C 	0.68360 0.34921 0.02713 0.07000
C 	C 	0.65242 0.38832 0.03647 -0.07100
C 	C 	0.58872 0.35350 0.03260 -0.03100
C 	C 	0.80097 0.24727 0.96013 0.00500
C 	C 	0.84979 0.29956 0.01451 -0.04100
C 	C 	0.83340 0.34578 0.03735 -0.06600
C 	C 	0.76716 0.33875 0.00655 0.06500
C 	C 	0.71816 0.28636 0.95186 -0.06000
C 	C 	0.73551 0.24153 0.92876 -0.03500
H 	H 	0.86400 0.52438 0.09325 0.04000
H 	H 	0.65794 0.37924 0.93949 0.04300
H 	H 	0.68628 0.47380 0.91192 0.03200
H 	H 	0.56798 0.18747 0.01111 0.02700
H 	H 	0.68207 0.24932 0.02042 0.04400
H 	H 	0.67758 0.44568 0.04692 0.04300
H 	H 	0.56368 0.38323 0.03754 0.03000
H 	H 	0.89935 0.30267 0.03946 0.02900
H 	H 	0.87140 0.38596 0.07936 0.04100
H 	H 	0.66570 0.27832 0.92796 0.04200
H 	H 	0.69671 0.20010 0.88705 0.03100
C 	C 	0.76376 0.48006 0.45867 -0.02800
C 	C 	0.75071 0.41853 0.46593 -0.07200
C 	C 	0.69432 0.38475 0.47110 0.07200
C 	C 	0.66124 0.42239 0.47893 -0.07200
C 	C 	0.67295 0.48274 0.47013 -0.02900
N 	N 	0.67958 0.31928 0.47754 -0.14200
C 	C 	0.47464 0.19637 0.44757 -0.00800
C 	C 	0.47928 0.22040 0.41166 -0.02700
C 	C 	0.54571 0.25709 0.41947 -0.07300
C 	C 	0.60922 0.27554 0.46588 0.07500
C 	C 	0.60398 0.24913 0.50055 -0.07200
C 	C 	0.53689 0.20871 0.49099 -0.02800
C 	C 	0.72315 0.17838 0.40073 -0.00400
C 	C 	0.75343 0.20492 0.45537 -0.02900
C 	C 	0.73899 0.25128 0.48027 -0.07200
C 	C 	0.69421 0.27167 0.45093 0.07500
C 	C 	0.66300 0.24433 0.39578 -0.07200
C 	C 	0.67805 0.19832 0.37098 -0.03000
H 	H 	0.78448 0.39733 0.46765 0.04600
H 	H 	0.62652 0.40497 0.49167 0.04600
H 	H 	0.64391 0.50845 0.47294 0.02800
H 	H 	0.43213 0.21340 0.37908 0.03000
H 	H 	0.54852 0.27495 0.39130 0.04400
H 	H 	0.65221 0.26094 0.53536 0.04400
H 	H 	0.53372 0.19009 0.51881 0.02900
H 	H 	0.78899 0.19032 0.47865 0.03100
H 	H 	0.76278 0.27173 0.52254 0.04300
H 	H 	0.62876 0.26014 0.37269 0.04300
H 	H 	0.65523 0.17873 0.32890 0.02800
H 	H 	0.27990 0.48828 0.37955 0.03100
Zn	Zn	0.18175 0.17854 0.00786 1.18000
Zn	Zn	0.06675 0.11680 0.89253 1.18500
O 	O 	0.04213 0.08740 0.81671 -0.44600
C 	C 	0.27980 0.18317 0.98163 0.29000
C 	C 	0.18048 0.28022 0.96245 0.33100
O 	O 	0.26764 0.18073 0.01778 -0.47000
O 	O 	0.23483 0.18491 0.94045 -0.33000
O 	O 	0.08364 0.12734 0.96391 -0.77900
O 	O 	0.12741 0.22299 0.91429 -0.45200
O 	O 	0.20482 0.27304 0.00590 -0.46400
O 	O 	0.92571 0.03899 0.91956 -0.45400
Zn	Zn	0.99003 0.04110 0.02547 1.18700
C 	C 	0.90503 0.06583 0.94744 0.31100
O 	O 	0.03133 0.04541 0.09491 -0.48000
O 	O 	0.92567 0.06882 0.99397 -0.50000
O 	O 	0.05387 0.03372 0.01060 -0.88800
H 	H 	0.10574 0.06753 0.04072 0.15700
Zn	Zn	0.12797 0.12012 0.46882 1.18400
Zn	Zn	0.00810 0.04763 0.35189 1.19700
O 	O 	0.98081 0.00275 0.27668 -0.48500
C 	C 	0.21457 0.10395 0.43694 0.29900
C 	C 	0.12812 0.20826 0.41242 0.32500
O 	O 	0.21045 0.11627 0.47766 -0.47300
O 	O 	0.15661 0.07593 0.38889 -0.33800
O 	O 	0.03064 0.07171 0.42592 -0.78800
O 	O 	0.07608 0.14699 0.36640 -0.44800
O 	O 	0.15115 0.20875 0.45872 -0.46500
O 	O 	0.87433 0.99534 0.38397 -0.46500
Zn	Zn	0.95033 0.03523 0.49909 1.19100
C 	C 	0.86834 0.04541 0.41004 0.31000
O 	O 	0.99680 0.05696 0.57330 -0.49100
O 	O 	0.89709 0.06943 0.46116 -0.50100
O 	O 	0.00004 0.99964 0.48313 -0.87200
H 	H 	0.05277 0.02859 0.51131 0.14900
C 	C 	0.07097 0.03739 0.23480 -0.04200
C 	C 	0.08255 0.04389 0.19640 0.00300
H 	H 	0.11891 0.09765 0.20427 0.02700
H 	H 	0.09871 0.08599 0.27206 0.05000
C 	C 	0.24624 0.42119 0.43298 0.01400
C 	C 	0.28031 0.38243 0.44485 -0.01300
C 	C 	0.23951 0.31058 0.43459 0.00100
C 	C 	0.16548 0.27675 0.41211 -0.11000
C 	C 	0.13007 0.31268 0.39493 0.06700
C 	C 	0.17107 0.38498 0.40593 -0.08500
H 	H 	0.26574 0.28136 0.44494 0.03100
H 	H 	0.14457 0.41363 0.39437 0.04900
C 	C 	0.36025 0.41723 0.46927 -0.05200
C 	C 	0.04851 0.27341 0.36225 -0.08600
H 	H 	0.36978 0.37468 0.45382 0.03400
H 	H 	0.38471 0.41184 0.54258 0.05000
C 	C 	0.01474 0.23478 0.30262 -0.10800
H 	H 	0.03269 0.31323 0.37023 0.04200
H 	H 	0.02538 0.23282 0.37342 0.04200
H 	H 	0.03386 0.27534 0.28994 0.04900
H 	H 	0.95495 0.20567 0.27963 0.02600
H 	H 	0.02898 0.19400 0.29325 0.06000
H 	H 	0.32677 0.01115 0.48405 0.02500
C 	C 	0.29820 0.49625 0.98581 0.01000
C 	C 	0.32757 0.45210 0.98750 -0.00400
C 	C 	0.28736 0.38093 0.97860 -0.00200
C 	C 	0.21822 0.35281 0.96729 -0.10500
C 	C 	0.18794 0.39604 0.96396 0.06300
C 	C 	0.22817 0.46732 0.97291 -0.08100
H 	H 	0.31046 0.34767 0.98126 0.03900
H 	H 	0.20518 0.50067 0.97042 0.04800
C 	C 	0.40294 0.48112 0.00109 -0.06400
C 	C 	0.11204 0.36625 0.94929 -0.07600
C 	C 	0.45901 0.51467 0.06094 -0.13700
H 	H 	0.41810 0.52227 0.98792 0.04100
H 	H 	0.40484 0.43558 0.97938 0.03900
H 	H 	0.45982 0.56153 0.08390 0.05000
H 	H 	0.51349 0.53492 0.06963 0.04200
H 	H 	0.44679 0.47292 0.07420 0.05000
C 	C 	0.05684 0.33008 0.88900 -0.13700
H 	H 	0.10859 0.41161 0.96927 0.03800
H 	H 	0.09742 0.32631 0.96352 0.03700
H 	H 	0.06832 0.37063 0.87464 0.05500
H 	H 	0.00178 0.30863 0.87930 0.04900
H 	H 	0.05806 0.28370 0.86776 0.06200
H 	H 	0.40218 0.09120 0.01803 0.04000
C 	C 	0.74238 0.13302 0.37589 0.00300
C 	C 	0.70820 0.05762 0.36096 0.00500
C 	C 	0.74627 0.02336 0.36165 -0.03000
C 	C 	0.81864 0.06485 0.38026 -0.10900
C 	C 	0.84638 0.13482 0.38392 0.05200
C 	C 	0.80741 0.16840 0.38121 -0.07700
H 	H 	0.72237 0.96682 0.35351 0.04300
H 	H 	0.83119 0.22470 0.38871 0.04200
C 	C 	0.63166 0.01362 0.34454 -0.09300
C 	C 	0.91884 0.17540 0.39325 -0.06500
C 	C 	0.57688 0.98805 0.28592 -0.10200
H 	H 	0.62191 0.04604 0.36969 0.04400
H 	H 	0.58331 0.03583 0.27905 0.03700
C 	C 	0.97893 0.23063 0.45224 -0.15900
H 	H 	0.91593 0.20510 0.36967 0.02600
H 	H 	0.93271 0.13649 0.37901 0.00800
H 	H 	0.96737 0.27169 0.46670 0.05100
H 	H 	0.03113 0.25990 0.45757 0.05800
H 	H 	0.98453 0.20244 0.47678 0.04200
C 	C 	0.65991 0.48681 0.34648 -0.05100
C 	C 	0.58274 0.46400 0.32718 -0.14200
H 	H 	0.66960 0.44489 0.35469 0.03500
H 	H 	0.66533 0.48685 0.31349 0.02800
H 	H 	0.57441 0.45995 0.35832 0.05300
H 	H 	0.54395 0.40955 0.29068 0.04500
C 	C 	0.28424 0.12455 0.44493 -0.10300
C 	C 	0.34735 0.19551 0.48418 0.06200
C 	C 	0.40871 0.21723 0.48409 -0.08300
C 	C 	0.40829 0.17047 0.44544 0.01100
C 	C 	0.34588 0.09926 0.40674 -0.00800
C 	C 	0.28504 0.07655 0.40772 -0.00700
H 	H 	0.45725 0.27118 0.51429 0.04500
H 	H 	0.23700 0.02212 0.37800 0.03000
C 	C 	0.35168 0.24774 0.52794 -0.07700
C 	C 	0.34170 0.04810 0.36250 -0.06800
C 	C 	0.37629 0.23463 0.57614 -0.13200
H 	H 	0.29990 0.24438 0.51366 0.04300
H 	H 	0.39146 0.30525 0.54142 0.03500
H 	H 	0.33946 0.17708 0.56450 0.05600
H 	H 	0.37654 0.27173 0.60674 0.03900
H 	H 	0.43193 0.24632 0.59406 0.04800
C 	C 	0.29752 0.04638 0.30968 -0.13800
H 	H 	0.39588 0.06276 0.37235 0.03800
H 	H 	0.24057 0.02379 0.29610 0.05700
H 	H 	0.32068 0.10215 0.31388 0.05300
C 	C 	0.81190 0.18967 0.93893 0.00900
C 	C 	0.86222 0.20360 0.92604 -0.01500
C 	C 	0.88602 0.15554 0.92073 -0.00500
C 	C 	0.85828 0.09329 0.92644 -0.11800
C 	C 	0.79670 0.07183 0.92713 0.05700
C 	C 	0.77741 0.12261 0.93722 -0.08000
H 	H 	0.92980 0.16956 0.91620 0.01100
H 	H 	0.73790 0.11147 0.94615 0.04500
C 	C 	0.89079 0.26903 0.91784 -0.04900
C 	C 	0.96521 0.33250 0.96772 -0.15000
H 	H 	0.85303 0.28802 0.90656 0.03500
H 	H 	0.89510 0.25270 0.88401 0.02400
H 	H 	0.96178 0.35433 0.00114 0.04700
H 	H 	0.98648 0.37740 0.95902 0.04600
H 	H 	0.00363 0.31446 0.98014 0.06000
C 	C 	0.34917 0.19561 0.99164 -0.09300
C 	C 	0.35551 0.17240 0.94907 0.05000
C 	C 	0.42440 0.19676 0.96045 -0.07200
C 	C 	0.48641 0.24213 0.01310 0.00300
C 	C 	0.47959 0.25746 0.05576 -0.00800
C 	C 	0.41097 0.23449 0.04463 -0.01500
H 	H 	0.42985 0.18237 0.92796 0.04300
H 	H 	0.40593 0.24820 0.07737 0.03400
C 	C 	0.29005 0.12260 0.89137 -0.06300
C 	C 	0.54406 0.29259 0.11292 -0.05400
C 	C 	0.27971 0.16672 0.86184 -0.14200
H 	H 	0.24007 0.08936 0.88778 0.02800
H 	H 	0.29807 0.08209 0.87095 0.02900
H 	H 	0.27749 0.21213 0.88315 0.07200
H 	H 	0.22857 0.13054 0.82107 0.05500
H 	H 	0.32504 0.19033 0.85820 0.05200
C 	C 	0.55646 0.23508 0.12534 -0.14100
H 	H 	0.53505 0.32030 0.14109 0.02900
H 	H 	0.59390 0.33583 0.12091 0.03500
H 	H 	0.50838 0.19342 0.12026 0.05000
H 	H 	0.60395 0.26197 0.16733 0.04600
H 	H 	0.56712 0.20734 0.09855 0.05200
C 	C 	0.79009 0.55372 0.98755 0.00200
H 	H 	0.37824 0.61735 0.08174 0.03100
Zn	Zn	0.02900 0.02516 0.94197 1.21600
C 	C 	0.04125 0.03445 0.78598 0.31400
C 	C 	0.01877 0.02117 0.64180 -0.05000
C 	C 	0.99162 0.05528 0.66250 -0.07400
C 	C 	0.00256 0.06296 0.71095 0.05600
C 	C 	0.04076 0.03653 0.73958 -0.13300
H 	H 	0.97880 0.08697 0.72523 0.00600
H 	H 	0.95997 0.07388 0.64016 0.04300
H 	H 	0.52123 0.95540 0.27465 0.04400
C 	C 	0.72243 0.51008 0.45811 -0.00900
H 	H 	0.26981 0.04338 0.96377 0.01700
C 	C 	0.40510 0.45210 0.53010 -0.14200
H 	H 	0.80538 0.50391 0.45275 0.03000
C 	C 	0.04175 0.99411 0.10231 0.33700
H 	H 	0.58407 0.95310 0.26000 0.04500
C 	C 	0.00471 0.96340 0.26271 0.32800
C 	C 	0.02249 0.96884 0.22473 -0.02400
H 	H 	0.57145 0.50443 0.31740 0.05000
C 	C 	0.04386 0.98229 0.14658 -0.09500
H 	H 	0.43437 0.05163 0.95808 0.05100
H 	H 	0.83026 0.00827 0.10589 0.01700
C 	C 	0.34103 0.57348 0.99923 -0.00200
C 	C 	0.83918 0.56832 0.03917 -0.04000
C 	C 	0.28903 0.50075 0.45240 -0.00800
C 	C 	0.30090 0.52659 0.41924 -0.02700
H 	H 	0.37982 0.45902 0.45763 0.03600
H 	H 	0.83793 0.95220 0.16500 0.05200
C 	C 	0.38004 0.63000 0.05135 -0.03200
H 	H 	0.40326 0.50014 0.54741 0.05300
H 	H 	0.46230 0.47098 0.54634 0.04600
H 	H 	0.87011 0.56517 0.95009 0.04800
H 	H 	0.29773 0.01074 0.27865 0.04700
H 	H 	0.31189 0.54723 0.91940 0.03300
C 	C 	0.81552 0.91801 0.12282 -0.15000
H 	H 	0.85947 0.91599 0.12149 0.05900
C 	C 	0.38757 0.03359 0.00151 -0.06700
H 	H 	0.43267 0.03298 0.03186 0.03400
H 	H 	0.88978 0.62117 0.06708 0.02900
C 	C 	0.34245 0.59054 0.95987 -0.03000
C 	C 	0.73282 0.57170 0.44651 0.01400
C 	C 	0.71411 0.56207 0.39538 -0.01600
H 	H 	0.70173 0.59942 0.97400 0.03500
H 	H 	0.83930 0.56054 0.84164 0.04800
H 	H 	0.30460 0.53108 0.52858 0.03100
C 	C 	0.31495 0.55071 0.50321 -0.02600
C 	C 	0.33977 0.60200 0.43724 -0.07400
H 	H 	0.34779 0.62126 0.41104 0.04500
C 	C 	0.74125 0.62390 0.38916 0.00000
C 	C 	0.76797 0.64197 0.48809 -0.08700
H 	H 	0.73044 0.61695 0.35078 0.02600
C 	C 	0.81178 0.60591 0.96866 0.01100
C 	C 	0.85650 0.60632 0.95218 -0.08500
C 	C 	0.88343 0.61737 0.85796 -0.12900
H 	H 	0.95505 0.62692 0.93329 0.03700
O 	O 	0.13500 0.01996 0.96685 -0.48800
C 	C 	0.38255 0.01227 0.94993 -0.14600
H 	H 	0.33848 0.01384 0.91942 0.05100
H 	H 	0.91754 0.61477 0.84420 0.04100
C 	C 	0.38521 0.66336 0.97312 -0.06700
H 	H 	0.77199 0.86164 0.10795 0.04900
C 	C 	0.73809 0.65504 0.98237 -0.04700
C 	C 	0.42256 0.70287 0.06462 -0.07000
H 	H 	0.38856 0.67546 0.94303 0.04500
C 	C 	0.35479 0.62605 0.52161 -0.07300
H 	H 	0.77759 0.64873 0.52616 0.04400
C 	C 	0.79092 0.65714 0.96897 -0.01200
C 	C 	0.88459 0.65996 0.93917 0.07100
C 	C 	0.92973 0.65667 0.91891 -0.08400
H 	H 	0.70227 0.66910 0.95655 0.03300
H 	H 	0.81566 0.69883 0.06770 0.04700
H 	H 	0.73742 0.70429 0.04975 0.04400
H 	H 	0.85954 0.64730 0.84220 0.05100
H 	H 	0.62516 0.71602 0.79319 0.03900
C 	C 	0.00233 0.00855 0.58877 0.32000
H 	H 	0.19832 0.96832 0.43852 0.03100
H 	H 	0.35423 0.95407 0.42617 0.05600
H 	H 	0.31504 0.99164 0.35670 0.04400
Zn	Zn	0.97285 0.97479 0.41194 1.21200
O 	O 	0.00362 0.01512 0.87316 -0.89400
C 	C 	0.75555 0.99754 0.92189 -0.06500
H 	H 	0.76909 0.00444 0.96171 0.04000
H 	H 	0.65205 0.98646 0.89720 0.05300
C 	C 	0.67359 0.95800 0.88212 -0.13700
H 	H 	0.62217 0.96470 0.35045 0.05000
H 	H 	0.77121 0.96139 0.90716 0.05000
H 	H 	0.64714 0.90160 0.87649 0.05200
C 	C 	0.30420 0.91943 0.42210 -0.14900
H 	H 	0.25792 0.91504 0.38870 0.05800
H 	H 	0.65936 0.95434 0.84282 0.05000
H 	H 	0.29494 0.86405 0.41255 0.05900
C 	C 	0.31323 0.95419 0.47426 -0.03500
H 	H 	0.36035 0.95938 0.50740 0.03600
C 	C 	0.42613 0.72001 0.02589 0.07200
N 	N 	0.47325 0.79534 0.04106 -0.14200
C 	C 	0.62992 0.83454 0.00662 -0.01400
C 	C 	0.59715 0.87472 0.00179 -0.02800
C 	C 	0.54604 0.86251 0.01306 -0.07200
C 	C 	0.52414 0.80684 0.02678 0.07200
C 	C 	0.55972 0.76882 0.03352 -0.07300
C 	C 	0.61099 0.78156 0.02240 -0.02700
C 	C 	0.35347 0.89666 0.01039 -0.00500
C 	C 	0.40543 0.91682 0.06302 -0.02700
C 	C 	0.44574 0.88447 0.07281 -0.07000
C 	C 	0.43443 0.83160 0.03017 0.07500
C 	C 	0.38353 0.81272 0.97737 -0.07000
C 	C 	0.34302 0.84484 0.96764 -0.02600
H 	H 	0.45346 0.74608 0.10516 0.04300
H 	H 	0.61233 0.91648 0.99026 0.03400
H 	H 	0.52480 0.89724 0.01199 0.04800
H 	H 	0.54817 0.72993 0.04794 0.04300
H 	H 	0.63667 0.75081 0.02670 0.02500
H 	H 	0.41338 0.95629 0.09625 0.03300
H 	H 	0.48485 0.89940 0.11353 0.04600
H 	H 	0.37601 0.77401 0.94412 0.04500
H 	H 	0.30261 0.82853 0.92685 0.03300
C 	C 	0.36739 0.65229 0.48888 0.07700
N 	N 	0.40708 0.73045 0.50825 -0.14400
C 	C 	0.56773 0.80256 0.47920 -0.00900
C 	C 	0.50246 0.79691 0.44731 -0.02600
C 	C 	0.44939 0.77353 0.45656 -0.07400
C 	C 	0.46177 0.75672 0.49864 0.07600
C 	C 	0.52765 0.76355 0.53087 -0.07300
C 	C 	0.58037 0.78639 0.52125 -0.02700
C 	C 	0.27815 0.82162 0.48887 -0.00800
C 	C 	0.34359 0.85320 0.53843 -0.02600
C 	C 	0.38676 0.82428 0.54400 -0.07100
C 	C 	0.36408 0.76248 0.50053 0.07700
C 	C 	0.29753 0.72992 0.45105 -0.07300
C 	C 	0.25482 0.75928 0.44545 -0.02600
H 	H 	0.37527 0.66426 0.56114 0.04600
H 	H 	0.49250 0.80971 0.41492 0.03200
H 	H 	0.39852 0.76720 0.43048 0.04600
H 	H 	0.53767 0.75066 0.56322 0.04300
H 	H 	0.63097 0.79134 0.54638 0.02700
H 	H 	0.36138 0.90058 0.57241 0.03200
H 	H 	0.43738 0.84915 0.58233 0.04600
H 	H 	0.27952 0.68282 0.41688 0.04600
H 	H 	0.20402 0.73421 0.40716 0.03300
O 	O 	0.02557 0.97310 0.78878 -0.48200
O 	O 	0.09063 0.92685 0.88822 -0.50800
Zn	Zn	0.88007 0.87116 0.88813 1.17600
Zn	Zn	0.01729 0.93202 0.99465 1.19800
C 	C 	0.90227 0.77608 0.93594 0.32500
C 	C 	0.83306 0.89095 0.95181 0.32600
O 	O 	0.97146 0.82674 0.97295 -0.46700
O 	O 	0.86521 0.77826 0.89182 -0.46800
O 	O 	0.81169 0.87367 0.90253 -0.49500
O 	O 	0.90166 0.91977 0.98892 -0.49600
O 	O 	0.97658 0.92243 0.91966 -0.81500
O 	O 	0.05520 0.95709 0.07306 -0.43100
Zn	Zn	0.03454 0.95916 0.84932 1.18500
C 	C 	0.13735 0.96672 0.94024 0.33000
H 	H 	0.95161 0.99476 0.84732 0.15500
O 	O 	0.01987 0.92513 0.28637 -0.47400
O 	O 	0.01747 0.85113 0.36790 -0.49600
O 	O 	0.94719 0.95008 0.34047 -0.87900
O 	O 	0.07282 0.95892 0.44081 -0.45900
Zn	Zn	0.82028 0.84949 0.37369 1.17300
Zn	Zn	0.95010 0.90433 0.47665 1.18500
C 	C 	0.82159 0.75792 0.42766 0.32400
C 	C 	0.78469 0.90526 0.43958 0.32500
O 	O 	0.89179 0.80493 0.46438 -0.46600
O 	O 	0.78760 0.76030 0.38302 -0.47200
O 	O 	0.76383 0.88047 0.38989 -0.48500
O 	O 	0.85203 0.93112 0.47751 -0.48300
O 	O 	0.91323 0.87832 0.39863 -0.79900
O 	O 	0.99241 0.94842 0.55729 -0.44700
Zn	Zn	0.97829 0.88827 0.32294 1.17400
C 	C 	0.06787 0.89738 0.41885 0.32000
H 	H 	0.89498 0.92806 0.31391 0.14700
C 	C 	0.07196 0.00567 0.72033 0.09700
C 	C 	0.05934 0.99701 0.67094 -0.04500
H 	H 	0.08172 0.97210 0.65552 0.04700
N 	N 	0.11537 0.98618 0.74953 -0.18800
H 	H 	0.13397 0.00090 0.78918 0.06600
H 	H 	0.13484 0.96000 0.73375 0.07700
C 	C 	0.99789 0.91187 0.13750 0.10200
C 	C 	0.98926 0.90586 0.17756 -0.08900
H 	H 	0.95316 0.85258 0.17054 0.03500
N 	N 	0.96076 0.85047 0.09036 -0.20200
H 	H 	0.95371 0.85327 0.05625 0.09100
H 	H 	0.93501 0.79860 0.08674 0.08000
C 	C 	0.72943 0.88005 0.45007 -0.11700
C 	C 	0.73309 0.92885 0.49075 0.07800
C 	C 	0.67946 0.90224 0.49942 -0.08900
C 	C 	0.62394 0.82783 0.46959 0.01600
C 	C 	0.62159 0.77864 0.43018 -0.01500
C 	C 	0.67433 0.80536 0.42076 0.00100
H 	H 	0.68070 0.93976 0.52932 0.05000
H 	H 	0.67334 0.76751 0.39124 0.03000
C 	C 	0.79112 0.01010 0.52310 -0.09200
C 	C 	0.56591 0.69688 0.40009 -0.04900
C 	C 	0.77063 0.05075 0.49306 -0.13300
H 	H 	0.84449 0.02029 0.53385 0.03700
H 	H 	0.79880 0.03422 0.56177 0.03600
H 	H 	0.76382 0.02881 0.45470 0.05900
H 	H 	0.81423 0.10987 0.51749 0.04800
H 	H 	0.71945 0.04493 0.48503 0.04900
C 	C 	0.59493 0.65824 0.42844 -0.14500
H 	H 	0.55191 0.67307 0.35907 0.03100
H 	H 	0.51445 0.68469 0.39489 0.03600
H 	H 	0.64255 0.66414 0.42934 0.05900
H 	H 	0.55250 0.59890 0.40652 0.04900
H 	H 	0.61069 0.68149 0.46996 0.05400
C 	C 	0.23292 0.85275 0.48242 0.01600
C 	C 	0.24493 0.91080 0.46987 -0.01600
C 	C 	0.19158 0.92729 0.45157 0.00300
C 	C 	0.12813 0.88878 0.44761 -0.12000
C 	C 	0.11984 0.83643 0.46572 0.07100
C 	C 	0.17242 0.81866 0.48287 -0.08600
H 	H 	0.16523 0.77678 0.49513 0.04900
C 	C 	0.05740 0.80231 0.46978 -0.08900
C 	C 	0.07219 0.85443 0.52019 -0.12900
H 	H 	0.04858 0.75043 0.47088 0.04500
H 	H 	0.00609 0.78736 0.43415 0.04200
H 	H 	0.12345 0.87002 0.55624 0.05200
H 	H 	0.02744 0.82693 0.52363 0.04700
H 	H 	0.07591 0.90473 0.51853 0.01400
C 	C 	0.68315 0.84698 0.99397 0.02400
C 	C 	0.75602 0.90639 0.03145 -0.02400
C 	C 	0.80341 0.92008 0.01632 0.00100
C 	C 	0.78046 0.87352 0.96544 -0.11700
C 	C 	0.70897 0.80997 0.92966 0.07000
C 	C 	0.66035 0.79944 0.94359 -0.09100
H 	H 	0.85880 0.96681 0.04462 0.02400
H 	H 	0.60485 0.75289 0.91548 0.04800
C 	C 	0.78582 0.95131 0.08911 -0.03100
C 	C 	0.68432 0.75089 0.87797 -0.08100
H 	H 	0.74447 0.95621 0.09289 0.03300
C 	C 	0.64156 0.75944 0.83018 -0.12900
H 	H 	0.64875 0.69617 0.87149 0.03800
H 	H 	0.72975 0.74929 0.87929 0.04800
H 	H 	0.59200 0.75383 0.82566 0.04600
H 	H 	0.67467 0.81364 0.83499 0.05300
C 	C 	0.30338 0.92214 0.99986 0.01300
C 	C 	0.31651 0.98400 0.99173 -0.00200
C 	C 	0.26238 0.99964 0.97403 0.01300
C 	C 	0.19779 0.95759 0.96779 -0.12400
C 	C 	0.18803 0.90040 0.98114 0.06900
C 	C 	0.24037 0.88230 0.99602 -0.08500
H 	H 	0.23216 0.83722 0.00495 0.05000
C 	C 	0.12634 0.86358 0.98530 -0.08400
H 	H 	0.37219 0.95639 0.93395 0.06200
C 	C 	0.14864 0.90517 0.04163 -0.14500
H 	H 	0.11110 0.80636 0.97621 0.04500
H 	H 	0.07700 0.85950 0.95577 0.02400
H 	H 	0.19963 0.91234 0.07188 0.05900
H 	H 	0.10598 0.87376 0.04584 0.05800
H 	H 	0.15650 0.95990 0.04955 0.02300
C 	C 	0.78336 0.69460 0.43250 -0.11500
C 	C 	0.79114 0.70361 0.48089 0.06600
C 	C 	0.81827 0.77716 0.52317 -0.08000
C 	C 	0.89421 0.81051 0.57242 -0.13300
H 	H 	0.78104 0.76956 0.53541 0.03900
H 	H 	0.81810 0.81672 0.50777 0.05300
H 	H 	0.89451 0.77436 0.59100 0.04600
H 	H 	0.91220 0.86425 0.60225 0.05700
H 	H 	0.93295 0.81893 0.56170 0.06500
C 	C 	0.82048 0.71181 0.95727 -0.00300
C 	C 	0.86712 0.71376 0.94255 -0.11500
H 	H 	0.80927 0.75459 0.96162 0.03000
C 	C 	0.77743 0.70965 0.04068 -0.14700
H 	H 	0.80741 0.76667 0.04818 0.05400
H 	H 	0.97511 0.71232 0.93466 0.04800
