data_crystal

_cell_length_a 19.88537
_cell_length_b 21.13278
_cell_length_c 44.80171
_cell_angle_alpha 60.63621
_cell_angle_beta  119.14803
_cell_angle_gamma 133.33439

_symmetry_space_group_name_	'P 1'
_symmetry_space_group_name_H-M	'P 1'

loop_
_symmetry_equiv_pos_as_xyz
  x,y,z

loop_
_atom_site_label
_atom_site_type_symbol
_atom_site_fract_x
_atom_site_fract_y
_atom_site_fract_z
_atom_site_charge
C 	C 	0.29386 0.63216 0.14693 0.18500
N 	N 	0.21908 0.55208 0.13786 -0.08100
C 	C 	0.23463 0.49277 0.14375 0.17400
N 	N 	0.32203 0.51134 0.16022 -0.11300
N 	N 	0.38366 0.65411 0.15937 -0.06800
C 	C 	0.28039 0.64941 0.64387 0.18200
N 	N 	0.37203 0.67628 0.65847 -0.08200
N 	N 	0.33873 0.57419 0.63718 -0.11700
C 	C 	0.24476 0.53639 0.62773 0.17800
N 	N 	0.21480 0.57559 0.63008 -0.06700
Co	Co	0.07106 0.02078 0.03593 1.20600
Co	Co	0.12055 0.90251 0.03644 1.17600
C 	C 	0.25254 0.10018 0.02624 0.31700
O 	O 	0.06681 0.11578 0.03477 -0.39000
C 	C 	0.03164 0.16711 0.11014 0.29700
C 	C 	0.21213 0.87565 0.11165 0.29500
O 	O 	0.23053 0.92807 0.08069 -0.36700
O 	O 	0.16276 0.87398 0.12448 -0.29000
O 	O 	0.06520 0.14402 0.10067 -0.34700
O 	O 	0.06355 0.92514 0.05597 -0.76000
O 	O 	0.20216 0.03625 0.01051 -0.34200
O 	O 	0.21622 0.09643 0.04544 -0.34100
Co	Co	0.04178 0.02355 0.52802 1.20400
Co	Co	0.11533 0.91926 0.53376 1.17800
C 	C 	0.22903 0.11841 0.51745 0.31400
O 	O 	0.01885 0.11089 0.52085 -0.37900
C 	C 	0.06142 0.20383 0.60417 0.29300
C 	C 	0.20445 0.89904 0.60905 0.31400
O 	O 	0.01707 0.95770 0.66786 -0.34800
O 	O 	0.22319 0.95345 0.57827 -0.30500
O 	O 	0.14632 0.88799 0.62082 -0.32100
O 	O 	0.01780 0.14024 0.62983 -0.34400
O 	O 	0.07348 0.18551 0.58318 -0.29100
O 	O 	0.04836 0.93554 0.55116 -0.75600
O 	O 	0.18638 0.05147 0.50475 -0.35800
O 	O 	0.18681 0.11359 0.53449 -0.31400
C 	C 	0.05863 0.05748 0.72388 0.06500
C 	C 	0.06477 0.06130 0.75561 -0.01200
C 	C 	0.04181 0.98624 0.78450 0.02200
H 	H 	0.06666 0.11260 0.70094 0.08900
H 	H 	0.08305 0.12135 0.75712 0.09200
C 	C 	0.04929 0.04525 0.38105 -0.02200
C 	C 	0.04218 0.04257 0.41151 0.05200
H 	H 	0.10452 0.10719 0.36776 0.10400
H 	H 	0.09348 0.10184 0.42173 0.07100
C 	C 	0.20619 0.38609 0.64717 0.03800
C 	C 	0.17814 0.44314 0.62369 0.07400
C 	C 	0.11110 0.42160 0.59134 -0.09200
C 	C 	0.07826 0.34609 0.58312 0.06100
C 	C 	0.11753 0.29764 0.60516 0.03100
C 	C 	0.19093 0.32638 0.63511 -0.08200
C 	C 	0.25420 0.29505 0.65381 0.78700
H 	H 	0.25306 0.39867 0.67283 0.10300
H 	H 	0.01979 0.32281 0.56059 0.11600
C 	C 	0.07243 0.47647 0.56633 0.78600
F 	F 	0.34285 0.35794 0.67070 -0.38900
F 	F 	0.26735 0.28293 0.62990 -0.37700
F 	F 	0.21321 0.21495 0.67854 -0.42400
F 	F 	0.14524 0.56322 0.55376 -0.39700
F 	F 	0.03299 0.47844 0.58388 -0.39500
F 	F 	0.00262 0.44069 0.53773 -0.39700
F 	F 	0.53811 0.84330 0.67365 -0.39500
C 	C 	0.32465 0.80368 0.62388 0.04000
C 	C 	0.25883 0.71142 0.63674 0.08200
C 	C 	0.18347 0.68277 0.64758 -0.08900
C 	C 	0.16948 0.74642 0.64092 0.07100
C 	C 	0.23483 0.83842 0.62717 0.00500
C 	C 	0.31908 0.86723 0.62307 -0.05500
C 	C 	0.40292 0.96552 0.61727 0.75000
H 	H 	0.38320 0.82634 0.61604 0.13300
H 	H 	0.10640 0.72412 0.64528 0.11800
C 	C 	0.11578 0.58501 0.66470 0.78800
F 	F 	0.48755 0.97416 0.63188 -0.35500
F 	F 	0.40650 0.01028 0.63307 -0.34000
F 	F 	0.39554 0.00538 0.58154 -0.36800
F 	F 	0.16543 0.54976 0.69034 -0.39200
F 	F 	0.05290 0.53638 0.63931 -0.38000
F 	F 	0.06409 0.57542 0.68085 -0.36400
C 	C 	0.12032 0.32948 0.15516 0.06100
C 	C 	0.16011 0.41131 0.13028 0.08500
C 	C 	0.15857 0.41237 0.09803 -0.08600
C 	C 	0.13051 0.33427 0.09389 0.07300
C 	C 	0.09655 0.25368 0.12017 0.02900
C 	C 	0.10037 0.25438 0.15238 -0.06900
C 	C 	0.08371 0.17563 0.18385 0.77600
H 	H 	0.11698 0.32758 0.17906 0.11400
H 	H 	0.13007 0.33494 0.06946 0.09300
C 	C 	0.19077 0.49749 0.06866 0.79300
F 	F 	0.12821 0.20177 0.21499 -0.42600
F 	F 	0.12069 0.13819 0.18465 -0.43100
F 	F 	0.28889 0.55214 0.07510 -0.39800
F 	F 	0.16148 0.54324 0.06656 -0.37200
F 	F 	0.15267 0.47836 0.03636 -0.39000
C 	C 	0.32915 0.85186 0.12264 0.06900
C 	C 	0.25319 0.82320 0.13250 0.01700
C 	C 	0.20189 0.73440 0.15328 -0.05900
C 	C 	0.21343 0.67183 0.15652 0.05300
C 	C 	0.27878 0.69811 0.14105 0.08100
C 	C 	0.33509 0.78909 0.12273 -0.09200
C 	C 	0.39990 0.81978 0.10254 0.78300
H 	H 	0.37682 0.92243 0.11089 0.11100
H 	H 	0.17256 0.60309 0.17144 0.13500
C 	C 	0.14282 0.70858 0.17467 0.78800
F 	F 	0.41837 0.89813 0.07666 -0.40200
F 	F 	0.35816 0.75567 0.08599 -0.38700
F 	F 	0.48550 0.83600 0.12546 -0.38700
F 	F 	0.19267 0.77516 0.19133 -0.40000
F 	F 	0.12157 0.62948 0.20040 -0.37600
C 	C 	0.41707 0.27185 0.46943 -0.09900
C 	C 	0.33016 0.23176 0.47512 0.08100
C 	C 	0.32038 0.20126 0.50952 0.00700
C 	C 	0.40275 0.22975 0.53720 -0.05400
C 	C 	0.39932 0.22112 0.57214 0.78200
H 	H 	0.26755 0.21554 0.45344 0.08600
C 	C 	0.42562 0.29909 0.43250 0.78800
F 	F 	0.48978 0.27241 0.59210 -0.36000
F 	F 	0.35575 0.13253 0.59110 -0.37500
F 	F 	0.43774 0.24480 0.43009 -0.39200
F 	F 	0.50304 0.38757 0.42512 -0.38900
F 	F 	0.34533 0.29115 0.40721 -0.41000
C 	C 	0.44345 0.26636 0.97879 0.04500
C 	C 	0.42408 0.17403 0.04834 0.07500
C 	C 	0.34883 0.17564 0.02174 0.00300
C 	C 	0.36273 0.23044 0.98761 -0.06400
C 	C 	0.28753 0.24388 0.95961 0.77900
H 	H 	0.45142 0.30290 0.95193 0.11600
H 	H 	0.41370 0.13424 0.07476 0.10300
F 	F 	0.32835 0.32505 0.93510 -0.38600
F 	F 	0.24106 0.24421 0.97453 -0.40800
F 	F 	0.22194 0.17536 0.94245 -0.42100
C 	C 	0.60651 0.31248 0.99583 0.18200
N 	N 	0.60118 0.26902 0.49396 -0.06800
C 	C 	0.58618 0.32199 0.49466 0.19600
N 	N 	0.66136 0.40250 0.50206 -0.10300
C 	C 	0.39798 0.59462 0.16460 0.19600
C 	C 	0.40114 0.63819 0.65528 0.16300
C 	C 	0.52635 0.62869 0.66337 0.02600
C 	C 	0.50224 0.67129 0.66820 0.08500
C 	C 	0.57560 0.75815 0.67391 -0.11800
C 	C 	0.57215 0.79210 0.69569 0.79300
F 	F 	0.51437 0.72151 0.71890 -0.39500
C 	C 	0.49311 0.59914 0.14192 0.04700
C 	C 	0.49106 0.62687 0.16414 0.08100
C 	C 	0.57779 0.68771 0.18393 -0.09200
C 	C 	0.57898 0.64179 0.13487 -0.05600
C 	C 	0.58011 0.61197 0.11056 0.78100
H 	H 	0.42719 0.54746 0.12875 0.13300
F 	F 	0.49951 0.52632 0.10724 -0.38800
F 	F 	0.58399 0.67047 0.07751 -0.38500
F 	F 	0.56503 0.76986 0.20008 -0.38600
C 	C 	0.48790 0.26417 0.53226 0.05100
C 	C 	0.49443 0.28219 0.49881 0.08000
H 	H 	0.54940 0.27723 0.55433 0.13000
F 	F 	0.34869 0.25050 0.56640 -0.38400
C 	C 	0.51569 0.25814 0.00463 0.06000
C 	C 	0.50811 0.21491 0.04022 -0.09700
C 	C 	0.58841 0.21068 0.06935 0.79100
F 	F 	0.67131 0.29646 0.07033 -0.38800
F 	F 	0.60268 0.16287 0.06330 -0.38200
F 	F 	0.56833 0.16887 0.10218 -0.38400
O 	O 	0.02011 0.01169 0.98273 -0.27600
C 	C 	0.03498 0.98615 0.81639 0.03500
H 	H 	0.47697 0.55690 0.66594 0.13500
C 	C 	0.58042 0.70516 0.21367 0.78700
F 	F 	0.51170 0.62745 0.23177 -0.39900
F 	F 	0.49630 0.08579 0.51313 -0.39000
C 	C 	0.02935 0.97844 0.72038 -0.06800
Co	Co	0.03398 0.86195 0.09535 1.20100
C 	C 	0.09698 0.97962 0.84930 -0.01900
H 	H 	0.14914 0.97303 0.85190 0.08700
F 	F 	0.05837 0.69701 0.15287 -0.39900
C 	C 	0.57616 0.09460 0.53898 0.78900
F 	F 	0.55013 0.00992 0.56035 -0.39300
N 	N 	0.66519 0.40121 0.99384 -0.09200
N 	N 	0.63932 0.27253 0.99665 -0.09200
F 	F 	0.63800 0.12006 0.93307 -0.38600
C 	C 	0.60564 0.68053 0.64968 -0.05500
F 	F 	0.60732 0.14525 0.55989 -0.39400
F 	F 	0.62755 0.01268 0.98331 -0.37300
O 	O 	0.04818 0.76842 0.06274 -0.35500
O 	O 	0.05306 0.78679 0.56212 -0.37800
C 	C 	0.09217 0.98204 0.87901 -0.00100
C 	C 	0.02515 0.99076 0.87624 0.03600
H 	H 	0.13994 0.97614 0.90424 0.08600
F 	F 	0.55051 0.54441 0.64272 -0.36400
H 	H 	0.66031 0.21186 0.95946 0.11600
C 	C 	0.65650 0.81104 0.66119 0.08600
F 	F 	0.66239 0.84490 0.71535 -0.41200
F 	F 	0.62459 0.67265 0.60331 -0.39800
C 	C 	0.66287 0.73439 0.17500 0.07100
F 	F 	0.65851 0.61097 0.12388 -0.39000
C 	C 	0.65382 0.13861 0.52188 -0.10000
H 	H 	0.63659 0.01530 0.53574 0.10200
F 	F 	0.69468 0.57594 0.94452 -0.39700
C 	C 	0.69088 0.29208 0.50472 0.18200
C 	C 	0.01526 0.98513 0.90794 0.09400
C 	C 	0.00949 0.97540 0.93598 -0.01100
C 	C 	0.66191 0.71731 0.14812 0.01300
C 	C 	0.66763 0.77471 0.64611 -0.00900
C 	C 	0.62215 0.63564 0.63851 0.77600
F 	F 	0.66804 0.73535 0.23760 -0.40900
C 	C 	0.67615 0.08650 0.52328 0.07100
C 	C 	0.68989 0.09721 0.96507 0.77800
C 	C 	0.00663 0.95393 0.97179 0.29400
C 	C 	0.00773 0.96605 0.27688 0.00700
O 	O 	0.00612 0.88404 0.99429 -0.35500
Co	Co	0.01540 0.86929 0.58987 1.19700
H 	H 	0.70940 0.88101 0.66206 0.06500
C 	C 	0.70702 0.23218 0.50543 0.08000
C 	C 	0.01411 0.90620 0.30945 0.00800
H 	H 	0.02092 0.85751 0.31146 0.09200
F 	F 	0.00188 0.57510 0.12122 -0.40700
C 	C 	0.02048 0.90974 0.78221 -0.02900
C 	C 	0.01483 0.90610 0.75038 0.03300
C 	C 	0.00942 0.90766 0.33951 -0.02200
H 	H 	0.01388 0.86078 0.36439 0.09900
H 	H 	0.00418 0.85171 0.80446 0.09300
O 	O 	0.00086 0.95279 0.16503 -0.35400
F 	F 	0.70721 0.64668 0.65892 -0.38800
C 	C 	0.96821 0.99542 0.81359 -0.02800
C 	C 	0.96315 0.99738 0.84339 -0.01000
C 	C 	0.99732 0.02770 0.27476 0.03600
H 	H 	0.98960 0.07253 0.24968 0.13100
H 	H 	0.91991 0.00056 0.78843 0.11500
H 	H 	0.98317 0.07634 0.30236 0.09500
F 	F 	0.98702 0.11311 0.18161 -0.43700
C 	C 	0.99283 0.02936 0.30471 0.00300
H 	H 	0.91049 0.00322 0.84089 0.12200
Co	Co	0.98385 0.06066 0.06670 1.19800
O 	O 	0.93933 0.12188 0.10628 -0.32400
Co	Co	0.97039 0.07211 0.56186 1.20600
F 	F 	0.94073 0.29392 0.08934 -0.42100
F 	F 	0.80185 0.58195 0.44889 -0.40400
O 	O 	0.89990 0.95179 0.66913 -0.39200
C 	C 	0.98011 0.96063 0.68472 0.32400
C 	C 	0.99958 0.95743 0.24455 0.12400
C 	C 	0.98520 0.95297 0.21565 -0.00900
F 	F 	0.88011 0.56329 0.12123 -0.36500
O 	O 	0.87244 0.94138 0.16077 -0.35600
C 	C 	0.95327 0.95073 0.17895 0.34500
C 	C 	0.73256 0.32069 0.99769 0.18900
N 	N 	0.79298 0.40849 0.99875 -0.08000
C 	C 	0.75948 0.44773 0.99821 0.20300
C 	C 	0.75031 0.42452 0.51428 0.18100
N 	N 	0.76555 0.36898 0.51596 -0.08000
Co	Co	0.93466 0.89774 0.12213 1.19300
C 	C 	0.96039 0.72102 0.06440 0.31800
Co	Co	0.83241 0.98649 0.10643 1.18300
O 	O 	0.91079 0.97374 0.09377 -0.75300
O 	O 	0.98922 0.83049 0.13617 -0.37200
O 	O 	0.97481 0.94213 0.07238 -0.55300
C 	C 	0.73342 0.79130 0.12735 0.29600
O 	O 	0.72382 0.85496 0.10418 -0.30800
O 	O 	0.79775 0.78686 0.12850 -0.29600
C 	C 	0.83287 0.09369 0.03263 0.30300
O 	O 	0.77673 0.02341 0.05353 -0.28900
O 	O 	0.89319 0.09555 0.02683 -0.30600
O 	O 	0.93833 0.74220 0.07996 -0.28600
Co	Co	0.93325 0.91226 0.62129 1.19600
C 	C 	0.96345 0.73217 0.56295 0.31500
Co	Co	0.88072 0.03007 0.61925 1.18700
O 	O 	0.92786 0.00094 0.59818 -0.73500
O 	O 	0.96148 0.82787 0.62965 -0.37500
O 	O 	0.95944 0.95130 0.56904 -0.55700
C 	C 	0.73682 0.83711 0.62395 0.30600
C 	C 	0.98753 0.95028 0.46780 0.27800
O 	O 	0.75126 0.91547 0.60576 -0.36300
O 	O 	0.79272 0.81936 0.62678 -0.28800
O 	O 	0.99930 0.88790 0.49156 -0.36500
O 	O 	0.98612 0.00106 0.47700 -0.31400
C 	C 	0.82191 0.09941 0.54147 0.30900
O 	O 	0.85900 0.11501 0.57251 -0.36700
O 	O 	0.84970 0.07100 0.53240 -0.30500
O 	O 	0.92932 0.75208 0.57346 -0.30100
H 	H 	0.99165 0.84440 0.74830 0.08700
C 	C 	0.97379 0.96187 0.43013 -0.06700
C 	C 	0.90872 0.88546 0.41649 0.04100
C 	C 	0.91567 0.88810 0.38608 -0.03300
C 	C 	0.98756 0.96733 0.36866 0.03600
C 	C 	0.99779 0.96878 0.33722 0.02600
H 	H 	0.85584 0.82256 0.43053 0.08200
H 	H 	0.86623 0.82800 0.37650 0.10700
H 	H 	0.72854 0.78837 0.18710 0.08700
C 	C 	0.76048 0.12836 0.51531 0.01400
C 	C 	0.80261 0.21664 0.49377 -0.06900
C 	C 	0.77842 0.26940 0.49025 0.04400
H 	H 	0.81659 0.33978 0.47651 0.14400
C 	C 	0.87866 0.25693 0.47699 0.78300
F 	F 	0.85561 0.19334 0.46514 -0.40200
F 	F 	0.96518 0.28669 0.50143 -0.42200
F 	F 	0.88725 0.32855 0.44841 -0.38100
C 	C 	0.82434 0.49044 0.56367 0.04500
C 	C 	0.82596 0.50101 0.53048 0.09000
C 	C 	0.87469 0.58798 0.50878 -0.10000
C 	C 	0.90581 0.66082 0.51770 0.07700
C 	C 	0.90122 0.65052 0.55026 0.00100
C 	C 	0.85868 0.56402 0.57341 -0.05000
C 	C 	0.84131 0.54858 0.60659 0.78300
H 	H 	0.78802 0.42334 0.58042 0.13300
H 	H 	0.93794 0.72689 0.49996 0.07400
C 	C 	0.88573 0.60226 0.47436 0.78800
F 	F 	0.79987 0.46001 0.62579 -0.35900
F 	F 	0.78105 0.57042 0.59747 -0.37900
F 	F 	0.92619 0.60135 0.62809 -0.39200
F 	F 	0.90693 0.54765 0.47869 -0.37800
F 	F 	0.95863 0.69033 0.46276 -0.41900
C 	C 	0.72127 0.21726 0.98053 0.04700
C 	C 	0.76996 0.27426 0.00242 0.07200
C 	C 	0.84868 0.27995 0.03037 -0.09200
C 	C 	0.88327 0.23764 0.03263 0.07600
C 	C 	0.82639 0.17015 0.01506 0.00500
C 	C 	0.74807 0.16390 0.98693 -0.05300
H 	H 	0.94948 0.25006 0.05095 0.07300
C 	C 	0.89055 0.32348 0.05948 0.78400
F 	F 	0.74893 0.09511 0.95815 -0.38500
F 	F 	0.81937 0.30154 0.06923 -0.38300
F 	F 	0.95169 0.41560 0.04813 -0.39700
C 	C 	0.85026 0.65630 0.01309 0.06100
C 	C 	0.88769 0.64198 0.04967 0.01300
C 	C 	0.88245 0.56268 0.06865 -0.05900
C 	C 	0.85942 0.50988 0.05025 0.04700
C 	C 	0.82409 0.52505 0.01358 0.07800
C 	C 	0.82427 0.60191 0.99456 -0.09600
C 	C 	0.79273 0.62390 0.95465 0.78600
H 	H 	0.84817 0.71392 0.99877 0.09800
H 	H 	0.86076 0.45188 0.06477 0.16800
C 	C 	0.90555 0.53606 0.10850 0.79000
F 	F 	0.83227 0.71461 0.94084 -0.41900
F 	F 	0.82112 0.60206 0.94061 -0.40600
F 	F 	0.85645 0.44379 0.12089 -0.36100
