data_crystal

_cell_length_a 26.45149
_cell_length_b 26.07863
_cell_length_c 39.70091
_cell_angle_alpha 95.49949
_cell_angle_beta  95.49487
_cell_angle_gamma 125.85153

_symmetry_space_group_name_	'P 1'
_symmetry_space_group_name_H-M	'P 1'

loop_
_symmetry_equiv_pos_as_xyz
  x,y,z

loop_
_atom_site_label
_atom_site_type_symbol
_atom_site_fract_x
_atom_site_fract_y
_atom_site_fract_z
_atom_site_charge
C 	C 	0.97879 0.04090 0.99307 0.18300
N 	N 	0.04277 0.07664 0.99537 -0.11300
C 	C 	0.07117 0.04704 0.99291 0.19000
N 	N 	0.00316 0.03122 0.46408 -0.11800
Cu	Cu	0.64085 0.24150 0.00403 0.93600
Cu	Cu	0.66449 0.22480 0.92527 0.89100
Cu	Cu	0.67448 0.33930 0.95730 0.90800
Cu	Cu	0.66367 0.37233 0.02912 0.91200
C 	C 	0.68143 0.29869 0.07596 0.29300
O 	O 	0.55463 0.21644 0.01142 -0.33200
C 	C 	0.63019 0.28539 0.88218 0.29400
O 	O 	0.70034 0.34106 0.00431 -0.64000
O 	O 	0.62205 0.24416 0.95515 -0.63600
O 	O 	0.66844 0.18526 0.99748 -0.33900
O 	O 	0.72981 0.23904 0.95881 -0.40500
O 	O 	0.65770 0.33029 0.06968 -0.35300
O 	O 	0.73019 0.43198 0.96221 -0.35600
C 	C 	0.73266 0.47329 0.98568 0.34000
C 	C 	0.53328 0.24779 0.00067 0.31800
O 	O 	0.57314 0.30569 0.99410 -0.36000
O 	O 	0.70458 0.45600 0.01266 -0.35600
O 	O 	0.67349 0.25486 0.05170 -0.34000
C 	C 	0.71610 0.20193 0.98180 0.33300
O 	O 	0.66143 0.33673 0.90725 -0.36500
O 	O 	0.61940 0.23074 0.88721 -0.39100
H 	H 	0.74670 0.36484 0.01181 0.19400
H 	H 	0.57666 0.22187 0.94545 0.19900
Cu	Cu	0.73108 0.33561 0.46239 0.93600
Cu	Cu	0.71542 0.27722 0.53300 0.89500
Cu	Cu	0.61767 0.28360 0.49840 0.90400
Cu	Cu	0.60576 0.31422 0.42899 0.91200
C 	C 	0.69574 0.31565 0.38931 0.29100
O 	O 	0.75509 0.42536 0.46264 -0.33100
C 	C 	0.64817 0.30398 0.57458 0.29400
O 	O 	0.63101 0.27113 0.45251 -0.63600
O 	O 	0.71209 0.33668 0.50923 -0.63700
O 	O 	0.78598 0.30710 0.47021 -0.33700
O 	O 	0.71287 0.22590 0.49474 -0.40600
O 	O 	0.66326 0.33826 0.39493 -0.35400
O 	O 	0.52626 0.22745 0.48559 -0.35800
C 	C 	0.49250 0.23272 0.46141 0.34000
C 	C 	0.71821 0.44038 0.47213 0.32200
O 	O 	0.65828 0.39446 0.47219 -0.36700
O 	O 	0.51539 0.25886 0.43454 -0.35400
O 	O 	0.73439 0.31966 0.41486 -0.33300
C 	C 	0.76207 0.25124 0.47948 0.33200
O 	O 	0.60516 0.28417 0.54659 -0.36200
O 	O 	0.70073 0.30954 0.57303 -0.38600
H 	H 	0.60996 0.22565 0.44186 0.18900
H 	H 	0.73264 0.37966 0.52354 0.20000
C 	C 	0.61499 0.29206 0.84678 -0.07200
C 	C 	0.64813 0.35324 0.83765 0.02500
C 	C 	0.64163 0.35880 0.80310 -0.05500
C 	C 	0.60190 0.30347 0.77745 0.05100
C 	C 	0.56532 0.24273 0.78666 -0.05600
C 	C 	0.57161 0.23698 0.82121 0.02500
C 	C 	0.60514 0.30838 0.74181 -0.00000
C 	C 	0.60806 0.31279 0.71200 0.00000
C 	C 	0.61425 0.31791 0.67663 0.05200
C 	C 	0.56401 0.27070 0.65001 -0.05500
C 	C 	0.57382 0.26865 0.61605 0.02700
C 	C 	0.63419 0.31351 0.60863 -0.07100
C 	C 	0.68323 0.36315 0.63503 0.02800
C 	C 	0.67323 0.36534 0.66890 -0.05600
H 	H 	0.68096 0.39631 0.85706 0.06200
H 	H 	0.66955 0.40599 0.79617 0.07300
H 	H 	0.53383 0.19977 0.76697 0.07000
H 	H 	0.54423 0.18962 0.82792 0.05600
H 	H 	0.51812 0.23410 0.65577 0.07300
H 	H 	0.53545 0.23037 0.59585 0.05800
H 	H 	0.72969 0.39873 0.62951 0.05500
H 	H 	0.71213 0.40236 0.68932 0.07100
C 	C 	0.70116 0.30160 0.35363 -0.06500
C 	C 	0.64664 0.26581 0.32765 0.02700
C 	C 	0.65221 0.26064 0.29308 -0.05400
C 	C 	0.71227 0.29135 0.28419 0.05300
C 	C 	0.76661 0.32416 0.31011 -0.05200
C 	C 	0.76111 0.32916 0.34479 0.03400
C 	C 	0.71832 0.29490 0.24869 0.00200
C 	C 	0.72122 0.29672 0.21868 0.00200
C 	C 	0.72227 0.29943 0.18269 0.05300
C 	C 	0.74425 0.35729 0.17151 -0.05400
C 	C 	0.73407 0.35772 0.13637 0.02800
C 	C 	0.70176 0.30017 0.11214 -0.06600
C 	C 	0.68347 0.24299 0.12329 0.03000
C 	C 	0.69354 0.24266 0.15848 -0.05400
H 	H 	0.60010 0.24358 0.33422 0.04500
H 	H 	0.60995 0.23468 0.27316 0.07200
H 	H 	0.81321 0.34766 0.30343 0.07600
H 	H 	0.80355 0.35666 0.36461 0.06800
H 	H 	0.76696 0.40149 0.19009 0.07300
H 	H 	0.74948 0.40236 0.12806 0.04900
H 	H 	0.65890 0.19830 0.10488 0.06400
H 	H 	0.67671 0.19778 0.16693 0.07500
C 	C 	0.74184 0.50837 0.47799 -0.11300
C 	C 	0.80006 0.55570 0.50047 0.12800
C 	C 	0.70846 0.52697 0.45949 0.13100
Br	Br	0.83987 0.53063 0.53101 -0.18000
Br	Br	0.63284 0.46456 0.42536 -0.17900
C 	C 	0.91687 0.04001 0.46986 -0.04800
C 	C 	0.95202 0.10160 0.49104 0.09800
C 	C 	0.93172 0.14044 0.48862 0.08000
C 	C 	0.87085 0.11387 0.47013 0.01100
C 	C 	0.83332 0.05048 0.45101 0.08000
C 	C 	0.84491 0.15108 0.47260 0.02400
C 	C 	0.82571 0.15984 0.50314 0.06400
C 	C 	0.80716 0.20031 0.50675 0.13200
C 	C 	0.79581 0.22196 0.47775 -0.12000
C 	C 	0.81243 0.21085 0.44655 0.13100
C 	C 	0.84110 0.17937 0.44488 0.06500
Br	Br	0.02374 0.12991 0.52596 -0.11000
Br	Br	0.80427 0.23172 0.55201 -0.22900
Br	Br	0.87644 0.17627 0.40511 -0.12400
Br	Br	0.98759 0.23028 0.51010 -0.12400
Br	Br	0.82264 0.11458 0.53951 -0.12500
Br	Br	0.79170 0.23393 0.40552 -0.16200
C 	C 	0.42432 0.19828 0.46103 -0.11400
C 	C 	0.39996 0.23324 0.46716 0.12500
C 	C 	0.33469 0.20039 0.46680 0.06600
C 	C 	0.29407 0.13259 0.46127 0.02300
C 	C 	0.31845 0.09762 0.45510 0.06500
C 	C 	0.38333 0.13042 0.45430 0.13000
C 	C 	0.22595 0.09812 0.46252 0.01300
C 	C 	0.20546 0.08693 0.49427 0.07800
C 	C 	0.14088 0.05507 0.49554 0.10700
C 	C 	0.09649 0.03265 0.46495 -0.06100
C 	C 	0.11677 0.04282 0.43313 0.10700
C 	C 	0.18162 0.07641 0.43196 0.07800
Br	Br	0.26283 0.00478 0.44807 -0.12300
Br	Br	0.45641 0.32619 0.47683 -0.14900
Br	Br	0.21007 0.09317 0.38864 -0.11900
Br	Br	0.41571 0.08254 0.44265 -0.16300
Br	Br	0.30066 0.24802 0.47387 -0.11600
Br	Br	0.26607 0.11514 0.53592 -0.13200
Br	Br	0.05536 0.00938 0.39112 -0.11500
C 	C 	0.76689 0.54075 0.98142 -0.11300
Br	Br	0.88046 0.54842 0.99917 -0.16100
Br	Br	0.64123 0.50760 0.96147 -0.15000
C 	C 	0.75500 0.17981 0.99032 -0.11600
C 	C 	0.72856 0.11404 0.98141 0.12400
C 	C 	0.76769 0.09415 0.98563 0.06500
C 	C 	0.83367 0.14025 0.99721 0.02400
C 	C 	0.85972 0.20568 0.00730 0.06300
C 	C 	0.82005 0.22511 0.00478 0.12700
C 	C 	0.87591 0.12029 0.99704 0.01300
C 	C 	0.89361 0.10528 0.02702 0.07800
C 	C 	0.93066 0.08279 0.02619 0.10000
C 	C 	0.94761 0.07257 0.99505 -0.04900
C 	C 	0.93074 0.08847 0.96522 0.10200
C 	C 	0.89624 0.11380 0.96644 0.07900
Br	Br	0.94993 0.26874 0.02356 -0.12400
Br	Br	0.63945 0.05169 0.96177 -0.16600
Br	Br	0.95872 0.06643 0.06768 -0.11900
Br	Br	0.87631 0.13923 0.92620 -0.13500
Br	Br	0.85419 0.31329 0.02210 -0.17200
Br	Br	0.73126 0.00388 0.97513 -0.12300
Br	Br	0.86569 0.11403 0.06889 -0.12500
Br	Br	0.95249 0.07286 0.92237 -0.12000
C 	C 	0.14068 0.08549 0.99630 -0.05000
C 	C 	0.17698 0.08650 0.02510 0.10100
C 	C 	0.24137 0.11371 0.02573 0.07700
C 	C 	0.27073 0.14410 0.99868 0.01400
C 	C 	0.23563 0.14764 0.97121 0.07900
C 	C 	0.17019 0.11659 0.96945 0.10300
C 	C 	0.33810 0.17107 0.99875 0.02400
C 	C 	0.38702 0.23285 0.01789 0.06500
C 	C 	0.45082 0.25664 0.01984 0.12700
C 	C 	0.46612 0.22130 0.99998 -0.10800
C 	C 	0.41709 0.16041 0.97978 0.12700
C 	C 	0.35319 0.13446 0.98013 0.06600
Br	Br	0.27733 0.19483 0.93599 -0.12200
Br	Br	0.13874 0.05210 0.06406 -0.11500
Br	Br	0.51666 0.33500 0.05176 -0.18100
Br	Br	0.28619 0.04839 0.95549 -0.12200
Br	Br	0.12042 0.11366 0.92946 -0.11200
Br	Br	0.28900 0.10777 0.06305 -0.12500
Br	Br	0.36646 0.28502 0.04117 -0.11700
Br	Br	0.43726 0.11367 0.95059 -0.18000
C 	C 	0.82810 0.62138 0.50144 0.06600
C 	C 	0.79489 0.63971 0.48277 0.02300
C 	C 	0.73322 0.59228 0.46385 0.06600
C 	C 	0.82709 0.70815 0.48007 0.01200
C 	C 	0.83105 0.75106 0.50658 0.07900
C 	C 	0.88201 0.79452 0.44759 0.10500
C 	C 	0.85320 0.73018 0.45070 0.07800
Br	Br	0.68338 0.61717 0.44335 -0.11400
Br	Br	0.85121 0.67262 0.41526 -0.12900
Br	Br	0.91303 0.68615 0.52703 -0.12300
Br	Br	0.78894 0.71943 0.54487 -0.12000
C 	C 	0.83376 0.58172 0.98736 0.12700
C 	C 	0.86648 0.64730 0.98561 0.06600
C 	C 	0.83239 0.67229 0.97886 0.02200
C 	C 	0.76548 0.63093 0.97197 0.06600
C 	C 	0.73277 0.56503 0.97279 0.12700
C 	C 	0.86686 0.74251 0.98071 0.01400
C 	C 	0.88408 0.78282 0.01255 0.07700
C 	C 	0.88279 0.76904 0.95071 0.07900
Br	Br	0.71887 0.66502 0.96209 -0.11700
Br	Br	0.85965 0.71383 0.90719 -0.12800
Br	Br	0.95801 0.70326 0.99282 -0.12100
Br	Br	0.86033 0.74615 0.05337 -0.12300
Br	Br	0.90585 0.82148 0.40458 -0.11800
C 	C 	0.86542 0.81687 0.50493 0.10500
C 	C 	0.89127 0.83872 0.47544 -0.05300
C 	C 	0.91854 0.84971 0.01456 0.10200
C 	C 	0.91588 0.83579 0.95260 0.10300
C 	C 	0.93431 0.87618 0.98458 -0.05100
Br	Br	0.87982 0.87740 0.54369 -0.11800
Br	Br	0.94576 0.90542 0.05852 -0.11000
Br	Br	0.93552 0.87205 0.91141 -0.12000
C 	C 	0.93201 0.90807 0.47465 0.19200
Br	Br	0.81503 0.93712 0.41508 -0.11200
N 	N 	0.99352 0.93785 0.47159 -0.12500
N 	N 	0.90693 0.94100 0.47399 -0.11400
C 	C 	0.97193 0.94629 0.98688 0.19000
C 	C 	0.85832 0.01550 0.44883 0.09800
N 	N 	0.94348 0.97576 0.98893 -0.11600
N 	N 	0.03564 0.98190 0.98861 -0.11500
Br	Br	0.74708 0.01083 0.42896 -0.12800
Br	Br	0.11321 0.04345 0.53927 -0.11900
C 	C 	0.02908 0.99937 0.46632 0.20700
C 	C 	0.94260 0.00275 0.46876 0.17900
