data_crystal

_cell_length_a 26.38082
_cell_length_b 26.88997
_cell_length_c 31.01822
_cell_angle_alpha 95.51142
_cell_angle_beta  95.49811
_cell_angle_gamma 125.74183

_symmetry_space_group_name_	'P 1'
_symmetry_space_group_name_H-M	'P 1'

loop_
_symmetry_equiv_pos_as_xyz
  x,y,z

loop_
_atom_site_label
_atom_site_type_symbol
_atom_site_fract_x
_atom_site_fract_y
_atom_site_fract_z
_atom_site_charge
N 	N 	0.02154 0.96430 0.99425 -0.13100
C 	C 	0.05859 0.02527 0.99047 0.13100
N 	N 	0.03607 0.05942 0.99546 -0.13300
N 	N 	0.00144 0.94647 0.47756 -0.13600
C 	C 	0.03415 0.00693 0.47273 0.12800
N 	N 	0.00474 0.03493 0.47213 -0.13900
C 	C 	0.33979 0.19839 0.47089 0.00300
C 	C 	0.30666 0.13948 0.48306 -0.03600
C 	C 	0.24308 0.10825 0.48736 -0.04700
C 	C 	0.21125 0.13461 0.47807 0.02200
C 	C 	0.24446 0.19355 0.46622 -0.04700
C 	C 	0.30824 0.22505 0.46229 -0.03600
C 	C 	0.14384 0.10189 0.48243 -0.03000
C 	C 	0.10032 0.04065 0.46590 -0.07400
H 	H 	0.32986 0.11756 0.48867 0.03700
H 	H 	0.21861 0.06365 0.49791 0.04100
H 	H 	0.22066 0.21469 0.45957 0.04100
H 	H 	0.33313 0.27018 0.45251 0.03800
H 	H 	0.12945 0.12853 0.49817 0.04500
H 	H 	0.11456 0.01432 0.44943 0.05300
C 	C 	0.22371 0.14075 0.96432 0.01600
C 	C 	0.24174 0.10839 0.94009 -0.04300
C 	C 	0.30565 0.13787 0.93750 -0.03700
C 	C 	0.35208 0.19988 0.95927 0.00700
C 	C 	0.33350 0.23316 0.98128 -0.04200
C 	C 	0.26958 0.20373 0.98377 -0.02900
C 	C 	0.15669 0.10944 0.96872 -0.02600
C 	C 	0.12388 0.05456 0.98256 -0.07500
H 	H 	0.20632 0.06049 0.92339 0.04100
H 	H 	0.31913 0.11247 0.91888 0.03900
H 	H 	0.36880 0.28139 0.99738 0.04100
H 	H 	0.25589 0.22950 0.00161 0.02800
H 	H 	0.13564 0.13362 0.96362 0.04600
H 	H 	0.14548 0.03095 0.98809 0.05600
C 	C 	0.97626 0.03239 0.00313 0.10900
N 	N 	0.93943 0.97146 0.00707 -0.14200
C 	C 	0.96171 0.93718 0.00223 0.12100
C 	C 	0.94305 0.00265 0.47716 0.11900
N 	N 	0.91126 0.94285 0.48333 -0.14100
C 	C 	0.94007 0.91444 0.48320 0.12800
Cu	Cu	0.62965 0.24003 0.00155 0.92500
Cu	Cu	0.67522 0.22750 0.90905 0.86800
Cu	Cu	0.66517 0.32968 0.93717 0.89600
Cu	Cu	0.63881 0.36161 0.02303 0.88600
C 	C 	0.65274 0.29710 0.09165 0.28300
O 	O 	0.53908 0.20955 0.00161 -0.38200
C 	C 	0.65042 0.28166 0.84361 0.27900
O 	O 	0.68479 0.33564 0.99945 -0.62700
O 	O 	0.61913 0.23858 0.93727 -0.63800
O 	O 	0.66245 0.18965 0.00330 -0.39600
O 	O 	0.73317 0.24475 0.95965 -0.45200
O 	O 	0.62731 0.32415 0.07732 -0.38700
O 	O 	0.71601 0.41901 0.94041 -0.38900
C 	C 	0.71972 0.45905 0.97123 0.31300
C 	C 	0.51565 0.23497 0.98186 0.31600
O 	O 	0.55418 0.29177 0.97410 -0.39600
O 	O 	0.67922 0.44020 0.99878 -0.39500
O 	O 	0.65407 0.25715 0.06433 -0.36500
C 	C 	0.71391 0.20680 0.98791 0.34400
O 	O 	0.65152 0.32192 0.87261 -0.37800
O 	O 	0.63920 0.23003 0.85375 -0.41800
H 	H 	0.73076 0.36185 0.01223 0.15100
H 	H 	0.57474 0.21241 0.92083 0.17400
Cu	Cu	0.72026 0.32641 0.43348 0.92700
Cu	Cu	0.73966 0.27523 0.52082 0.86800
Cu	Cu	0.64319 0.30052 0.50718 0.89600
Cu	Cu	0.60702 0.33672 0.42674 0.89300
C 	C 	0.66642 0.32937 0.35004 0.28800
O 	O 	0.76466 0.41862 0.43683 -0.37900
C 	C 	0.70191 0.30535 0.59547 0.27900
O 	O 	0.62677 0.28354 0.44393 -0.64000
O 	O 	0.73203 0.33595 0.49867 -0.64000
O 	O 	0.75999 0.28357 0.42083 -0.37800
O 	O 	0.70941 0.21758 0.46760 -0.44900
O 	O 	0.62247 0.33218 0.36490 -0.38500
O 	O 	0.55473 0.26046 0.51087 -0.38800
C 	C 	0.51643 0.26743 0.48617 0.30800
C 	C 	0.74732 0.44872 0.45882 0.30600
O 	O 	0.69156 0.41789 0.47065 -0.39400
O 	O 	0.53892 0.31165 0.46221 -0.39800
O 	O 	0.69251 0.30686 0.37114 -0.36600
C 	C 	0.74349 0.23352 0.43650 0.31200
O 	O 	0.65884 0.30742 0.57179 -0.38000
O 	O 	0.74983 0.31311 0.57915 -0.42000
H 	H 	0.59477 0.23890 0.43046 0.16400
H 	H 	0.76398 0.37918 0.51507 0.17200
C 	C 	0.65465 0.29100 0.79767 -0.07500
C 	C 	0.62902 0.31867 0.77814 0.00800
C 	C 	0.63359 0.32768 0.73456 -0.05800
C 	C 	0.66416 0.30940 0.71017 0.01400
C 	C 	0.69049 0.28208 0.72991 0.01100
C 	C 	0.68538 0.27283 0.77346 -0.02100
C 	C 	0.72155 0.26429 0.70584 -0.06000
C 	C 	0.72596 0.27287 0.66233 0.00200
C 	C 	0.69935 0.29933 0.64219 -0.07500
C 	C 	0.66864 0.31787 0.66629 -0.01900
H 	H 	0.60505 0.33268 0.79653 0.03900
H 	H 	0.61329 0.34876 0.71982 0.04500
H 	H 	0.70585 0.25213 0.78869 0.02700
H 	H 	0.74201 0.24344 0.72073 0.03700
H 	H 	0.74924 0.25794 0.64397 0.02100
H 	H 	0.64850 0.33883 0.65104 0.04700
C 	C 	0.66532 0.29988 0.13970 -0.07000
C 	C 	0.66545 0.25272 0.15572 0.00400
C 	C 	0.67005 0.25146 0.20082 -0.05700
C 	C 	0.67426 0.29708 0.23047 0.01300
C 	C 	0.67676 0.34601 0.21483 0.01300
C 	C 	0.67325 0.34768 0.16962 -0.02200
C 	C 	0.68046 0.39138 0.24441 -0.05800
C 	C 	0.67902 0.38682 0.28883 0.00400
C 	C 	0.67457 0.33728 0.30431 -0.06900
C 	C 	0.67377 0.29327 0.27530 -0.01900
H 	H 	0.66035 0.21608 0.13316 0.04300
H 	H 	0.66891 0.21417 0.21253 0.04300
H 	H 	0.67505 0.38517 0.15761 0.03600
H 	H 	0.68311 0.42948 0.23286 0.04000
H 	H 	0.68056 0.42142 0.31117 0.03000
H 	H 	0.67042 0.25499 0.28722 0.04700
C 	C 	0.89089 0.75019 0.48672 0.02100
C 	C 	0.89474 0.71226 0.45505 -0.04800
C 	C 	0.85610 0.64763 0.45220 -0.03600
C 	C 	0.81436 0.62038 0.48188 0.00300
C 	C 	0.81115 0.65843 0.51398 -0.03700
C 	C 	0.84967 0.72313 0.51669 -0.04700
C 	C 	0.77074 0.55176 0.47745 0.00800
C 	C 	0.79186 0.51713 0.47138 -0.15300
C 	C 	0.93016 0.81822 0.48824 -0.03100
C 	C 	0.90330 0.84802 0.48703 -0.07500
H 	H 	0.92660 0.73275 0.43194 0.04000
H 	H 	0.85777 0.61866 0.42647 0.03800
H 	H 	0.77886 0.63789 0.53682 0.03800
H 	H 	0.84729 0.75215 0.54190 0.04200
H 	H 	0.72092 0.52946 0.47871 0.03200
H 	H 	0.84214 0.53982 0.47181 0.07500
H 	H 	0.98013 0.84282 0.48646 0.04300
H 	H 	0.85285 0.82251 0.48763 0.05500
C 	C 	0.88005 0.09292 0.44441 0.02100
C 	C 	0.90877 0.15678 0.44770 -0.04900
C 	C 	0.87148 0.17817 0.44637 -0.03700
C 	C 	0.80493 0.13559 0.44087 -0.00100
C 	C 	0.77616 0.07154 0.43581 -0.03700
C 	C 	0.81343 0.05021 0.43709 -0.04900
C 	C 	0.76601 0.15812 0.44611 0.00600
C 	C 	0.77315 0.20268 0.42504 -0.16400
C 	C 	0.91987 0.07090 0.44892 -0.03300
C 	C 	0.91061 0.03233 0.47689 -0.07400
H 	H 	0.96006 0.19000 0.45266 0.03800
H 	H 	0.89441 0.22785 0.45103 0.03300
H 	H 	0.72495 0.03834 0.43158 0.03500
H 	H 	0.79061 0.00058 0.43308 0.04000
H 	H 	0.73131 0.13806 0.46759 0.02300
H 	H 	0.80467 0.21950 0.40127 0.07900
H 	H 	0.95718 0.08674 0.42960 0.04100
H 	H 	0.87411 0.01784 0.49680 0.05100
C 	C 	0.40607 0.23048 0.46388 0.00700
C 	C 	0.45018 0.23443 0.49291 -0.14900
H 	H 	0.41952 0.25355 0.43568 0.03100
H 	H 	0.43710 0.21243 0.52158 0.07800
C 	C 	0.80483 0.63533 0.99281 -0.00400
C 	C 	0.77933 0.66789 0.98572 -0.03300
C 	C 	0.81929 0.73115 0.98343 -0.04400
C 	C 	0.88549 0.76294 0.98954 0.01600
C 	C 	0.91096 0.73029 0.99655 -0.03600
C 	C 	0.87089 0.66687 0.99850 -0.02400
C 	C 	0.92816 0.82963 0.98637 -0.01300
C 	C 	0.92141 0.87124 0.00697 -0.09100
C 	C 	0.76227 0.56865 0.99562 0.02600
C 	C 	0.76331 0.52616 0.96990 -0.15600
H 	H 	0.72843 0.64394 0.98136 0.03900
H 	H 	0.79880 0.75528 0.97650 0.04400
H 	H 	0.96183 0.75417 0.00083 0.02900
H 	H 	0.89117 0.64236 0.00467 0.02500
H 	H 	0.96654 0.84502 0.96813 0.04100
H 	H 	0.88381 0.85590 0.02596 0.05400
H 	H 	0.72724 0.55392 0.01680 0.02200
H 	H 	0.79634 0.54107 0.94714 0.08000
C 	C 	0.81263 0.14512 0.98364 -0.02500
C 	C 	0.87253 0.16928 0.97312 -0.01900
C 	C 	0.89861 0.13692 0.97729 -0.06300
C 	C 	0.86547 0.08040 0.99288 0.04800
C 	C 	0.80575 0.05642 0.00370 -0.09200
C 	C 	0.77919 0.08829 0.99883 0.00900
C 	C 	0.88959 0.04264 0.99332 -0.03700
C 	C 	0.95161 0.06932 0.00699 -0.07900
C 	C 	0.78214 0.17555 0.97332 0.04200
C 	C 	0.74756 0.18030 0.00028 -0.20100
H 	H 	0.89816 0.21239 0.96056 0.03000
H 	H 	0.94355 0.15477 0.96707 0.04500
H 	H 	0.77923 0.01231 0.01493 0.04600
H 	H 	0.73183 0.06776 0.00544 0.01800
H 	H 	0.85602 0.99233 0.98263 0.05500
H 	H 	0.98503 0.11943 0.01869 0.04700
H 	H 	0.78914 0.19539 0.94356 0.01100
H 	H 	0.74165 0.16190 0.03059 0.08700
C 	C 	0.42038 0.22990 0.96008 0.00800
C 	C 	0.44617 0.20122 0.97177 -0.15300
H 	H 	0.45076 0.27823 0.95600 0.03500
H 	H 	0.41580 0.15366 0.97745 0.08000
