data_crystal

_cell_length_a 36.91580
_cell_length_b 36.92997
_cell_length_c 25.15448
_cell_angle_alpha 90.00343
_cell_angle_beta  90.00010
_cell_angle_gamma 120.00130

_symmetry_space_group_name_	'P 1'
_symmetry_space_group_name_H-M	'P 1'

loop_
_symmetry_equiv_pos_as_xyz
  x,y,z

loop_
_atom_site_label
_atom_site_type_symbol
_atom_site_fract_x
_atom_site_fract_y
_atom_site_fract_z
_atom_site_charge
C 	C 	0.57218 0.42878 0.72935 0.29100
C 	C 	0.56298 0.48905 0.56494 0.28900
O 	O 	0.55539 0.45352 0.72457 -0.37600
O 	O 	0.54850 0.47454 0.61329 -0.38600
C 	C 	0.38616 0.51588 0.22744 0.28900
C 	C 	0.23055 0.36188 0.17772 0.30600
C 	C 	0.34638 0.41304 0.28533 0.30800
C 	C 	0.26963 0.45993 0.10666 0.29000
C 	C 	0.34023 0.35157 0.13228 0.30900
C 	C 	0.39352 0.45678 0.06524 0.29100
Ni	Ni	0.29962 0.44217 0.21468 1.11300
Ni	Ni	0.30267 0.40164 0.10167 1.12000
Ni	Ni	0.38093 0.43678 0.17923 1.12000
O 	O 	0.34652 0.50421 0.21717 -0.37600
O 	O 	0.40013 0.48867 0.22699 -0.37800
O 	O 	0.30490 0.35171 0.12823 -0.39100
O 	O 	0.25828 0.37867 0.21552 -0.38100
O 	O 	0.24200 0.37267 0.12796 -0.37900
O 	O 	0.40725 0.47094 0.11395 -0.39000
O 	O 	0.32763 0.43534 0.28346 -0.37500
O 	O 	0.35280 0.39835 0.24132 -0.39000
O 	O 	0.35582 0.42312 0.05652 -0.38400
O 	O 	0.26256 0.45184 0.15870 -0.37100
O 	O 	0.29235 0.44807 0.07839 -0.38300
O 	O 	0.37574 0.38679 0.13932 -0.39000
O 	O 	0.33133 0.43684 0.16031 -0.71800
H 	H 	0.34336 0.46451 0.14327 0.16500
C 	C 	0.52057 0.10619 0.06259 0.28900
C 	C 	0.36710 0.10927 0.01418 0.30100
C 	C 	0.41817 0.04328 0.12189 0.30800
C 	C 	0.46407 0.16664 0.94276 0.28900
C 	C 	0.35579 0.98775 0.96895 0.31000
C 	C 	0.46153 0.04103 0.90151 0.28800
Ni	Ni	0.44681 0.11918 0.05110 1.10900
Ni	Ni	0.40553 0.07526 0.93843 1.12100
Ni	Ni	0.44117 0.03234 0.01550 1.11400
O 	O 	0.50886 0.13424 0.05330 -0.38000
O 	O 	0.49318 0.06510 0.06289 -0.38200
O 	O 	0.35593 0.02324 0.96578 -0.38800
O 	O 	0.38346 0.09788 0.05202 -0.38400
O 	O 	0.37668 0.10707 0.96431 -0.37100
O 	O 	0.47521 0.04005 0.95009 -0.38300
O 	O 	0.43995 0.08436 0.12002 -0.37500
O 	O 	0.40311 0.02212 0.07798 -0.39400
O 	O 	0.42693 0.04349 0.89355 -0.38200
O 	O 	0.45677 0.16593 0.99504 -0.36600
O 	O 	0.45182 0.13188 0.91466 -0.38200
O 	O 	0.39102 0.98745 0.97594 -0.38400
O 	O 	0.44104 0.08197 0.99678 -0.71100
H 	H 	0.46864 0.09759 0.97952 0.16600
C 	C 	0.43538 0.83601 0.56145 0.28800
C 	C 	0.53721 0.89944 0.62189 0.30800
C 	C 	0.49183 0.77635 0.44301 0.28900
C 	C 	0.49545 0.90236 0.40085 0.28900
Ni	Ni	0.50977 0.82391 0.55097 1.11300
Ni	Ni	0.55095 0.86759 0.43833 1.12100
Ni	Ni	0.51495 0.91047 0.51508 1.12000
O 	O 	0.44759 0.80825 0.55277 -0.37600
O 	O 	0.46245 0.87725 0.56181 -0.37800
O 	O 	0.57331 0.84631 0.55241 -0.38100
O 	O 	0.48130 0.90276 0.44930 -0.38800
O 	O 	0.51578 0.85838 0.61982 -0.37400
O 	O 	0.55252 0.92082 0.57817 -0.39000
O 	O 	0.52979 0.89939 0.39298 -0.38200
O 	O 	0.50071 0.77753 0.49478 -0.37100
O 	O 	0.50473 0.81093 0.41434 -0.38200
O 	O 	0.56544 0.95567 0.47599 -0.38700
O 	O 	0.51529 0.86094 0.49650 -0.71800
H 	H 	0.48774 0.84523 0.47916 0.16400
C 	C 	0.10960 0.55895 0.89207 0.29400
C 	C 	0.11887 0.71861 0.84421 0.31000
C 	C 	0.05237 0.60344 0.95352 0.31800
C 	C 	0.17210 0.67668 0.76947 0.29100
C 	C 	0.04381 0.55535 0.73346 0.28900
Ni	Ni	0.12702 0.64717 0.87976 1.11300
Ni	Ni	0.08140 0.64588 0.76921 1.12000
Ni	Ni	0.03696 0.56829 0.84759 1.12100
O 	O 	0.13877 0.59795 0.88087 -0.37600
O 	O 	0.06886 0.54702 0.89348 -0.37700
O 	O 	0.03155 0.64620 0.79936 -0.39100
O 	O 	0.10845 0.69136 0.88253 -0.37900
O 	O 	0.11611 0.70646 0.79446 -0.38200
O 	O 	0.04111 0.53988 0.78196 -0.38600
O 	O 	0.09329 0.62085 0.94997 -0.37200
O 	O 	0.03049 0.59827 0.91052 -0.39000
O 	O 	0.04670 0.59256 0.72571 -0.38400
O 	O 	0.17363 0.68208 0.82231 -0.37000
O 	O 	0.13640 0.65308 0.74380 -0.38500
O 	O 	0.08765 0.61640 0.82699 -0.71700
H 	H 	0.10162 0.60297 0.80905 0.16500
C 	C 	0.01997 0.45947 0.65393 -0.06100
C 	C 	0.03862 0.49181 0.69114 0.01200
C 	C 	0.03238 0.52632 0.68803 -0.07900
H 	H 	0.02355 0.43221 0.65796 0.04600
H 	H 	0.05662 0.48932 0.72350 0.03700
C 	C 	0.03099 0.54059 0.07961 -0.06600
C 	C 	0.03062 0.57971 0.00204 -0.09900
C 	C 	0.05269 0.57140 0.04122 0.01600
H 	H 	0.08654 0.58727 0.04044 0.03200
H 	H 	0.04829 0.53326 0.10827 0.04400
C 	C 	0.35246 0.81676 0.66230 -0.06200
C 	C 	0.31932 0.77858 0.64407 0.01900
C 	C 	0.32253 0.76282 0.59462 -0.06100
C 	C 	0.35947 0.78376 0.56513 0.01200
C 	C 	0.39365 0.82056 0.58489 -0.08000
C 	C 	0.38942 0.83778 0.63272 0.01200
C 	C 	0.28192 0.75425 0.67754 0.02000
H 	H 	0.29692 0.73364 0.57988 0.04600
H 	H 	0.36220 0.77041 0.52802 0.03300
H 	H 	0.41547 0.86625 0.64834 0.03500
H 	H 	0.34999 0.82958 0.69998 0.04400
C 	C 	0.28547 0.73850 0.72691 -0.06200
C 	C 	0.24965 0.71311 0.75701 0.01300
C 	C 	0.20999 0.70307 0.73781 -0.08200
C 	C 	0.20661 0.71940 0.68877 0.01400
C 	C 	0.24238 0.74484 0.65886 -0.06300
H 	H 	0.31587 0.74543 0.74157 0.04600
H 	H 	0.25271 0.70087 0.79483 0.03400
H 	H 	0.17630 0.71269 0.67405 0.03000
H 	H 	0.23934 0.75707 0.62100 0.04500
C 	C 	0.45935 0.02131 0.24777 -0.06600
C 	C 	0.43825 0.97744 0.24722 0.02200
C 	C 	0.40588 0.95551 0.21056 -0.06500
C 	C 	0.39665 0.97724 0.17238 0.01300
C 	C 	0.42021 0.02117 0.16994 -0.09300
C 	C 	0.45021 0.04310 0.20957 0.01700
C 	C 	0.45162 0.95460 0.28304 0.01800
H 	H 	0.38883 0.92164 0.21047 0.04500
H 	H 	0.37241 0.95986 0.14330 0.03400
H 	H 	0.46786 0.07695 0.20933 0.03600
H 	H 	0.48368 0.03854 0.27683 0.04600
C 	C 	0.49266 0.96171 0.28036 -0.06100
C 	C 	0.50631 0.94243 0.31670 0.01100
C 	C 	0.47901 0.91578 0.35612 -0.08000
C 	C 	0.43727 0.90689 0.35681 0.01100
C 	C 	0.42370 0.92634 0.32059 -0.06100
H 	H 	0.51423 0.98288 0.25083 0.04400
H 	H 	0.53857 0.94962 0.31557 0.03700
H 	H 	0.41569 0.88591 0.38647 0.03500
H 	H 	0.39180 0.92021 0.32253 0.04500
C 	C 	0.49290 0.92231 0.74401 -0.06400
C 	C 	0.51754 0.96603 0.74658 0.02000
C 	C 	0.55243 0.98693 0.71316 -0.06200
C 	C 	0.56103 0.96459 0.67516 0.01200
C 	C 	0.53446 0.92118 0.66978 -0.09100
C 	C 	0.50134 0.89996 0.70593 0.01600
C 	C 	0.50542 0.98998 0.78219 0.01900
H 	H 	0.57207 0.02061 0.71544 0.04500
H 	H 	0.48089 0.86645 0.70292 0.03800
H 	H 	0.46642 0.90579 0.77048 0.04600
C 	C 	0.46608 0.98676 0.77671 -0.06100
C 	C 	0.45273 0.00587 0.81367 0.01100
C 	C 	0.47864 0.02847 0.85656 -0.07800
C 	C 	0.51916 0.03405 0.85982 0.01100
C 	C 	0.53237 0.01466 0.82300 -0.06100
H 	H 	0.44542 0.96852 0.74460 0.04500
H 	H 	0.42157 0.00158 0.81019 0.03800
H 	H 	0.53989 0.05221 0.89191 0.03800
H 	H 	0.56306 0.01788 0.82707 0.04700
C 	C 	0.56120 0.12099 0.08847 -0.08200
H 	H 	0.53462 0.08456 0.15976 0.03500
C 	C 	0.20866 0.82901 0.84102 -0.06300
C 	C 	0.20813 0.84132 0.89364 0.02000
C 	C 	0.17368 0.81641 0.92625 -0.06300
C 	C 	0.14185 0.77776 0.90794 0.01500
C 	C 	0.14459 0.76342 0.85716 -0.09100
C 	C 	0.17704 0.79024 0.82280 0.01700
C 	C 	0.24538 0.87782 0.91607 0.02000
H 	H 	0.17255 0.82607 0.96660 0.04800
H 	H 	0.11629 0.75796 0.93427 0.03900
H 	H 	0.17924 0.78003 0.78316 0.03800
H 	H 	0.23460 0.84861 0.81506 0.04700
C 	C 	0.28384 0.87875 0.91707 -0.06300
C 	C 	0.31961 0.91392 0.93634 0.01500
C 	C 	0.31725 0.94855 0.95503 -0.08700
C 	C 	0.27830 0.94679 0.95614 0.01500
C 	C 	0.24260 0.91167 0.93649 -0.06200
H 	H 	0.28610 0.85238 0.90232 0.04700
H 	H 	0.34928 0.91463 0.93543 0.03900
H 	H 	0.27581 0.97290 0.97138 0.04200
H 	H 	0.21293 0.91101 0.93648 0.04800
C 	C 	0.06779 0.36578 0.23952 -0.06300
C 	C 	0.07079 0.32968 0.24686 0.01900
C 	C 	0.03920 0.29551 0.27458 -0.06300
C 	C 	0.00448 0.29706 0.29385 0.01400
C 	C 	0.00087 0.33275 0.28530 -0.08900
C 	C 	0.03300 0.36731 0.25858 0.01400
C 	C 	0.10767 0.32827 0.22687 0.01900
H 	H 	0.04141 0.26764 0.28084 0.04600
H 	H 	0.03056 0.39493 0.25135 0.03600
H 	H 	0.09233 0.39258 0.21885 0.04500
C 	C 	0.11787 0.33445 0.17262 -0.06400
C 	C 	0.15654 0.34069 0.15512 0.01500
C 	C 	0.18569 0.34170 0.19196 -0.09000
C 	C 	0.17331 0.33058 0.24514 0.01100
C 	C 	0.13467 0.32437 0.26261 -0.06300
H 	H 	0.09658 0.33611 0.14439 0.04400
H 	H 	0.16470 0.34713 0.11348 0.03500
H 	H 	0.19461 0.32919 0.27360 0.03700
H 	H 	0.12660 0.31848 0.30435 0.04600
C 	C 	0.17504 0.45900 0.04913 -0.05600
C 	C 	0.19350 0.49250 0.01311 0.00200
C 	C 	0.23737 0.51681 0.01028 -0.07100
C 	C 	0.26236 0.50684 0.04186 0.01400
C 	C 	0.24380 0.47334 0.07769 -0.08100
C 	C 	0.20007 0.44998 0.08190 0.01000
C 	C 	0.16696 0.50285 0.97940 0.05600
H 	H 	0.25206 0.54333 0.98357 0.05500
H 	H 	0.29610 0.52507 0.03836 0.02900
H 	H 	0.18546 0.42414 0.10957 0.03500
H 	H 	0.14131 0.43979 0.05151 0.04000
C 	C 	0.17556 0.51097 0.92488 -0.07600
C 	C 	0.15419 0.52619 0.89474 0.02500
C 	C 	0.12331 0.53237 0.91845 -0.09200
C 	C 	0.11203 0.52051 0.97158 0.04100
C 	C 	0.13424 0.50658 0.00221 -0.10300
H 	H 	0.19971 0.50680 0.90631 0.05200
H 	H 	0.16279 0.53476 0.85355 0.02900
H 	H 	0.08781 0.52458 0.99007 0.03300
H 	H 	0.12703 0.50019 0.04409 0.05200
C 	C 	0.43831 0.59251 0.33842 -0.06200
C 	C 	0.44172 0.62902 0.31628 0.01900
C 	C 	0.43219 0.62945 0.26225 -0.06100
C 	C 	0.41658 0.59294 0.23184 0.01200
C 	C 	0.41143 0.55602 0.25473 -0.08100
C 	C 	0.42390 0.55644 0.30752 0.01300
C 	C 	0.45381 0.66624 0.35012 0.01900
H 	H 	0.43586 0.65773 0.24422 0.04500
H 	H 	0.40730 0.59303 0.19100 0.03000
H 	H 	0.42028 0.52817 0.32549 0.03500
H 	H 	0.44559 0.59169 0.37997 0.04400
C 	C 	0.42996 0.68632 0.34951 -0.06100
C 	C 	0.44173 0.72175 0.38096 0.01200
C 	C 	0.47667 0.73668 0.41444 -0.08100
C 	C 	0.49965 0.71583 0.41643 0.01300
C 	C 	0.48873 0.68123 0.38383 -0.06200
H 	H 	0.40243 0.67458 0.32457 0.04500
H 	H 	0.42381 0.73766 0.37915 0.03100
H 	H 	0.52668 0.72714 0.44215 0.03400
H 	H 	0.50759 0.66629 0.38445 0.04400
C 	C 	0.37636 0.27853 0.08161 -0.06000
C 	C 	0.33919 0.23982 0.08437 0.01000
C 	C 	0.30327 0.23747 0.10666 -0.05900
C 	C 	0.30412 0.27375 0.12453 0.01200
C 	C 	0.34087 0.31280 0.11984 -0.08700
C 	C 	0.37721 0.31485 0.09915 0.01100
C 	C 	0.33794 0.20188 0.06343 0.03700
H 	H 	0.27453 0.20767 0.10943 0.04400
H 	H 	0.27605 0.27157 0.14123 0.04000
H 	H 	0.40581 0.34465 0.09531 0.03600
H 	H 	0.40446 0.28053 0.06524 0.04100
C 	C 	0.34822 0.20030 0.01012 -0.10900
C 	C 	0.35385 0.16761 0.99234 0.05800
C 	C 	0.34950 0.13627 0.02789 -0.11600
C 	C 	0.33518 0.13580 0.07983 0.02400
C 	C 	0.32977 0.16865 0.09763 -0.07700
H 	H 	0.35353 0.22530 0.98303 0.06500
H 	H 	0.36401 0.16805 0.95183 0.02900
H 	H 	0.33036 0.11113 0.10722 0.03300
H 	H 	0.32097 0.16916 0.13860 0.04900
C 	C 	0.54158 0.54482 0.88090 -0.06400
C 	C 	0.52612 0.50874 0.91237 0.02200
C 	C 	0.54348 0.48265 0.90741 -0.06400
C 	C 	0.57391 0.49095 0.86876 0.01900
C 	C 	0.57220 0.55330 0.84248 0.01400
C 	C 	0.49036 0.49711 0.94852 0.01700
H 	H 	0.53253 0.45527 0.93246 0.04800
H 	H 	0.52890 0.56554 0.88496 0.04700
C 	C 	0.49316 0.52448 0.98907 -0.04600
C 	C 	0.46017 0.51246 0.02501 -0.00200
C 	C 	0.42426 0.47265 0.02127 -0.09000
C 	C 	0.42069 0.44614 0.97900 0.02600
C 	C 	0.45354 0.45836 0.94280 -0.06300
H 	H 	0.52121 0.55469 0.99342 0.04500
H 	H 	0.46305 0.53361 0.05670 0.03700
H 	H 	0.39319 0.41546 0.97527 0.03900
H 	H 	0.45068 0.43738 0.91088 0.04700
C 	C 	0.40763 0.45186 0.41273 -0.06400
C 	C 	0.43064 0.43100 0.41166 0.02000
C 	C 	0.42057 0.39914 0.37436 -0.06300
C 	C 	0.38996 0.39042 0.33586 0.01100
C 	C 	0.36963 0.41402 0.33376 -0.09100
C 	C 	0.37707 0.44322 0.37421 0.01600
C 	C 	0.46699 0.44448 0.44714 0.01800
H 	H 	0.43753 0.38222 0.37395 0.04500
H 	H 	0.38346 0.36665 0.30622 0.03600
H 	H 	0.36075 0.46077 0.37432 0.03600
H 	H 	0.41442 0.47574 0.44233 0.04600
C 	C 	0.50081 0.48552 0.44420 -0.06200
C 	C 	0.53378 0.49941 0.48049 0.01200
C 	C 	0.53324 0.47234 0.52015 -0.08000
C 	C 	0.50059 0.43052 0.52094 0.01200
C 	C 	0.46753 0.41672 0.48475 -0.06100
H 	H 	0.50107 0.50694 0.41454 0.04500
H 	H 	0.50014 0.40909 0.55070 0.03600
H 	H 	0.44186 0.38479 0.48681 0.04600
C 	C 	0.51295 0.24942 0.83617 -0.06100
C 	C 	0.50243 0.27898 0.85391 0.01900
C 	C 	0.48034 0.27222 0.90163 -0.06100
C 	C 	0.46872 0.23605 0.93140 0.01100
C 	C 	0.47922 0.20635 0.91369 -0.07900
C 	C 	0.50146 0.21329 0.86592 0.01100
C 	C 	0.51786 0.31867 0.82505 0.02000
H 	H 	0.47238 0.29508 0.91580 0.04600
H 	H 	0.45100 0.23085 0.96772 0.03800
H 	H 	0.50985 0.19072 0.85185 0.03700
H 	H 	0.53047 0.25469 0.79965 0.04700
C 	C 	0.55597 0.35350 0.83975 -0.06300
C 	C 	0.55163 0.39217 0.76437 -0.08300
C 	C 	0.51263 0.35794 0.75081 0.01300
C 	C 	0.49585 0.32114 0.78096 -0.06200
H 	H 	0.49598 0.35934 0.71612 0.03100
H 	H 	0.46626 0.29438 0.76949 0.04700
C 	C 	0.62038 0.80853 0.58305 0.01100
C 	C 	0.62564 0.77564 0.60102 -0.06300
H 	H 	0.62228 0.83162 0.61121 0.03800
H 	H 	0.63137 0.77353 0.64284 0.04600
C 	C 	0.56257 0.10914 0.14108 0.01300
H 	H 	0.55876 0.53169 0.47917 0.03700
H 	H 	0.02656 0.42608 0.54621 0.04600
H 	H 	0.58568 0.46955 0.86389 0.03600
H 	H 	0.58734 0.98127 0.64852 0.03700
H 	H 	0.59707 0.16178 0.02385 0.02800
C 	C 	0.59772 0.15261 0.06460 0.01200
C 	C 	0.58719 0.52540 0.83452 -0.09200
C 	C 	0.57287 0.39000 0.80944 0.01400
H 	H 	0.57302 0.35190 0.87389 0.04700
C 	C 	0.72669 0.58206 0.67518 0.30900
C 	C 	0.61058 0.52825 0.78549 0.30900
C 	C 	0.68710 0.48693 0.60030 0.29000
C 	C 	0.61598 0.59357 0.63586 0.30900
Ni	Ni	0.65769 0.50163 0.71114 1.11200
Ni	Ni	0.65339 0.54462 0.60093 1.12000
Ni	Ni	0.57543 0.50709 0.67945 1.12000
O 	O 	0.61029 0.44002 0.71223 -0.38000
O 	O 	0.65127 0.59347 0.63149 -0.39000
O 	O 	0.69944 0.56496 0.71335 -0.38200
O 	O 	0.71443 0.57293 0.62543 -0.38100
O 	O 	0.63072 0.50736 0.78180 -0.37700
O 	O 	0.60367 0.54389 0.74274 -0.39100
O 	O 	0.59967 0.52414 0.55748 -0.38300
O 	O 	0.69362 0.49217 0.65290 -0.37100
O 	O 	0.66323 0.49869 0.57452 -0.38400
O 	O 	0.58045 0.55822 0.64245 -0.38600
O 	O 	0.62525 0.50795 0.65869 -0.71700
H 	H 	0.61309 0.48068 0.64056 0.16700
C 	C 	0.59020 0.83515 0.51499 0.30600
C 	C 	0.60055 0.95517 0.46853 0.30800
O 	O 	0.60035 0.91964 0.46592 -0.39000
O 	O 	0.57980 0.83592 0.46507 -0.37800
C 	C 	0.99502 0.61206 0.80145 0.31100
O 	O 	0.99235 0.57559 0.81008 -0.38500
C 	C 	0.84253 0.37793 0.39274 0.28800
C 	C 	0.84156 0.22240 0.34520 0.30600
C 	C 	0.90559 0.33898 0.45287 0.30900
C 	C 	0.78307 0.26224 0.27336 0.28900
C 	C 	0.96185 0.33224 0.29963 0.30900
C 	C 	0.90980 0.38506 0.23223 0.28900
Ni	Ni	0.83028 0.29144 0.38156 1.11300
Ni	Ni	0.87433 0.29444 0.26901 1.12000
Ni	Ni	0.91705 0.37290 0.34642 1.12000
O 	O 	0.81471 0.33801 0.38376 -0.37600
O 	O 	0.88376 0.39200 0.39328 -0.37800
O 	O 	0.92632 0.29693 0.29665 -0.39100
O 	O 	0.85264 0.25029 0.38278 -0.38100
O 	O 	0.84251 0.23378 0.29534 -0.37800
O 	O 	0.90955 0.39911 0.28079 -0.38900
O 	O 	0.86454 0.31946 0.45063 -0.37400
O 	O 	0.92706 0.34520 0.40921 -0.39000
O 	O 	0.90632 0.34758 0.22394 -0.38200
O 	O 	0.78406 0.25441 0.32511 -0.37100
O 	O 	0.81775 0.28416 0.24493 -0.38200
O 	O 	0.96233 0.36780 0.30733 -0.38800
O 	O 	0.86752 0.32319 0.32736 -0.71800
H 	H 	0.85189 0.33515 0.31009 0.16400
C 	C 	0.99284 0.41174 0.54398 -0.06300
C 	C 	0.97169 0.42547 0.57734 0.02000
C 	C 	0.92793 0.40597 0.57493 -0.06400
C 	C 	0.90576 0.37504 0.53698 0.01700
C 	C 	0.92719 0.36343 0.50079 -0.09200
C 	C 	0.97068 0.38065 0.50611 0.01200
C 	C 	0.99538 0.46158 0.61289 0.01900
H 	H 	0.91124 0.41570 0.60141 0.04600
H 	H 	0.87219 0.36167 0.53403 0.03800
H 	H 	0.98752 0.37121 0.47948 0.03600
C 	C 	0.01009 0.52965 0.64480 0.01200
C 	C 	0.99171 0.49743 0.60743 -0.06100
H 	H 	0.00537 0.55624 0.64142 0.03700
H 	H 	0.97356 0.49974 0.57511 0.04500
C 	C 	0.98708 0.51824 0.07975 0.01800
C 	C 	0.96510 0.52904 0.04364 -0.06000
C 	C 	0.98674 0.55988 0.00530 -0.00300
C 	C 	0.96420 0.48213 0.11576 0.01800
H 	H 	0.93122 0.51257 0.04410 0.04100
H 	H 	0.96926 0.56700 0.97668 0.04600
C 	C 	0.97107 0.44806 0.11313 -0.06200
C 	C 	0.95120 0.41490 0.14907 0.01100
C 	C 	0.92417 0.41545 0.18801 -0.08000
C 	C 	0.91569 0.44856 0.18879 0.01100
C 	C 	0.93575 0.48181 0.15300 -0.06100
H 	H 	0.99239 0.44763 0.08385 0.04300
H 	H 	0.95814 0.38967 0.14794 0.03600
H 	H 	0.89450 0.44913 0.21814 0.03500
H 	H 	0.92983 0.50771 0.15496 0.04500
C 	C 	0.75465 0.11042 0.34088 -0.06400
C 	C 	0.75068 0.10037 0.39518 0.01900
C 	C 	0.78196 0.12713 0.43069 -0.06300
C 	C 	0.81484 0.16538 0.41293 0.01100
C 	C 	0.81619 0.17766 0.35969 -0.08900
C 	C 	0.78754 0.14871 0.32309 0.01500
C 	C 	0.71228 0.06370 0.41542 0.02000
H 	H 	0.77979 0.11916 0.47247 0.04600
H 	H 	0.83785 0.18649 0.44122 0.03800
H 	H 	0.78931 0.15674 0.28140 0.03600
H 	H 	0.73142 0.08929 0.31281 0.04400
C 	C 	0.67323 0.06084 0.40795 -0.06300
C 	C 	0.63684 0.02622 0.42719 0.01300
C 	C 	0.63914 0.99414 0.45421 -0.08700
C 	C 	0.67839 0.99765 0.46294 0.01500
C 	C 	0.71474 0.03218 0.44347 -0.06400
H 	H 	0.67108 0.08534 0.38704 0.04500
H 	H 	0.60681 0.02386 0.41984 0.03700
H 	H 	0.68068 0.97334 0.48416 0.04000
H 	H 	0.74475 0.03426 0.44983 0.04700
C 	C 	0.68839 0.16977 0.21424 -0.06200
C 	C 	0.67295 0.18942 0.18080 0.01900
C 	C 	0.69283 0.23333 0.17995 -0.06100
C 	C 	0.72838 0.25723 0.21110 0.01200
C 	C 	0.74360 0.23748 0.24453 -0.08100
C 	C 	0.72306 0.19368 0.24661 0.01300
C 	C 	0.63525 0.16401 0.14792 0.01900
H 	H 	0.68076 0.24890 0.15518 0.04500
H 	H 	0.74408 0.29105 0.20921 0.03100
H 	H 	0.73457 0.17817 0.27235 0.03400
H 	H 	0.67364 0.13599 0.21499 0.04300
C 	C 	0.63475 0.17366 0.09397 -0.06200
C 	C 	0.59916 0.13098 0.17097 -0.06200
H 	H 	0.66272 0.19820 0.07523 0.04400
H 	H 	0.59905 0.12311 0.21248 0.04400
H 	H 	0.98012 0.27032 0.31482 0.03900
C 	C 	0.82443 0.44288 0.49296 -0.06200
C 	C 	0.78614 0.43781 0.47513 0.01900
C 	C 	0.76967 0.41802 0.42629 -0.06100
C 	C 	0.79012 0.40140 0.39695 0.01200
C 	C 	0.82712 0.40422 0.41628 -0.08000
C 	C 	0.84493 0.42629 0.46357 0.01200
C 	C 	0.76246 0.45180 0.50840 0.01900
H 	H 	0.74037 0.41436 0.41187 0.04600
H 	H 	0.77629 0.38481 0.36027 0.03300
H 	H 	0.87353 0.42880 0.47891 0.03600
H 	H 	0.83777 0.45875 0.53019 0.04500
C 	C 	0.74752 0.43374 0.55857 -0.06200
C 	C 	0.72287 0.44514 0.58866 0.01200
C 	C 	0.71278 0.47450 0.56868 -0.08100
C 	C 	0.72829 0.49295 0.51881 0.01400
C 	C 	0.75299 0.48167 0.48889 -0.06300
H 	H 	0.75450 0.41049 0.57389 0.04600
H 	H 	0.71125 0.43078 0.62712 0.03400
H 	H 	0.72151 0.51633 0.50342 0.03100
H 	H 	0.76461 0.49598 0.45040 0.04500
C 	C 	0.88229 0.58455 0.78493 -0.06300
C 	C 	0.88628 0.61463 0.74767 0.02100
C 	C 	0.92601 0.64465 0.72962 -0.06400
C 	C 	0.96152 0.64426 0.74795 0.01800
C 	C 	0.95761 0.61366 0.78446 -0.08900
C 	C 	0.91781 0.58401 0.80321 0.01900
C 	C 	0.84872 0.61323 0.72546 0.02000
H 	H 	0.92933 0.66795 0.70084 0.04700
H 	H 	0.99199 0.66720 0.73288 0.02900
H 	H 	0.91437 0.56051 0.83172 0.03400
H 	H 	0.85164 0.56122 0.79907 0.04700
C 	C 	0.83552 0.59809 0.67381 -0.06300
C 	C 	0.79708 0.59159 0.65508 0.01700
C 	C 	0.77140 0.59999 0.68807 -0.09200
C 	C 	0.78638 0.61846 0.73807 0.01400
C 	C 	0.82474 0.62474 0.75684 -0.06300
H 	H 	0.85424 0.58976 0.64900 0.04700
H 	H 	0.78619 0.57766 0.61624 0.03900
H 	H 	0.76734 0.62599 0.76345 0.03700
H 	H 	0.83519 0.63731 0.79637 0.04800
H 	H 	0.58292 0.58059 0.81731 0.03700
H 	H 	0.60295 0.41636 0.82030 0.02900
C 	C 	0.58262 0.66692 0.57870 -0.06300
C 	C 	0.61900 0.70580 0.58608 0.02000
C 	C 	0.65302 0.70795 0.61369 -0.06300
C 	C 	0.65117 0.67142 0.63242 0.01500
C 	C 	0.61536 0.63230 0.62336 -0.08800
C 	C 	0.58080 0.63034 0.59718 0.01400
C 	C 	0.62106 0.74427 0.56566 0.02000
H 	H 	0.68107 0.73785 0.62008 0.04700
H 	H 	0.67787 0.67344 0.65310 0.04000
H 	H 	0.55303 0.60044 0.58972 0.03700
H 	H 	0.55590 0.66502 0.55820 0.04600
C 	C 	0.61511 0.74818 0.51131 -0.06400
C 	C 	0.60979 0.78104 0.49331 0.01500
C 	C 	0.60952 0.80980 0.52975 -0.08900
H 	H 	0.61297 0.72485 0.48337 0.04500
H 	H 	0.60351 0.78268 0.45160 0.03600
