data_crystal

_cell_length_a 32.97189
_cell_length_b 33.71534
_cell_length_c 17.33453
_cell_angle_alpha 95.53288
_cell_angle_beta  95.50497
_cell_angle_gamma 125.44717

_symmetry_space_group_name_	'P 1'
_symmetry_space_group_name_H-M	'P 1'

loop_
_symmetry_equiv_pos_as_xyz
  x,y,z

loop_
_atom_site_label
_atom_site_type_symbol
_atom_site_fract_x
_atom_site_fract_y
_atom_site_fract_z
_atom_site_charge
C 	C 	0.04501 0.06214 0.07872 -0.08100
C 	C 	0.06651 0.03667 0.06855 0.03200
H 	H 	0.06606 0.10064 0.07238 0.05100
C 	C 	0.99616 0.02439 0.30536 -0.06100
C 	C 	0.02143 0.00314 0.32013 0.02100
H 	H 	0.01781 0.06400 0.30718 0.04400
Cu	Cu	0.65590 0.26687 0.99989 0.92500
Cu	Cu	0.74231 0.30391 0.89051 0.85600
Cu	Cu	0.68829 0.34433 0.89536 0.88900
Cu	Cu	0.62771 0.34261 0.01623 0.89700
C 	C 	0.63971 0.29806 0.14536 0.19300
O 	O 	0.57994 0.22395 0.95830 -0.36400
C 	C 	0.71241 0.32590 0.74487 0.19600
O 	O 	0.68380 0.34178 0.00482 -0.63400
O 	O 	0.67203 0.27751 0.89357 -0.64600
O 	O 	0.69540 0.24122 0.02842 -0.36400
O 	O 	0.76576 0.30759 0.99737 -0.44900
O 	O 	0.61015 0.30668 0.10609 -0.35200
O 	O 	0.70956 0.41187 0.90237 -0.38600
C 	C 	0.69849 0.43325 0.95561 0.29100
C 	C 	0.55788 0.23995 0.91817 0.28400
O 	O 	0.58474 0.28655 0.91044 -0.39500
O 	O 	0.65564 0.40706 0.98207 -0.39700
O 	O 	0.65108 0.27032 0.10936 -0.31900
C 	C 	0.74407 0.26727 0.02765 0.30200
O 	O 	0.68859 0.34016 0.78272 -0.34600
O 	O 	0.73695 0.31074 0.78128 -0.39700
H 	H 	0.71573 0.36756 0.04206 0.16000
H 	H 	0.64633 0.25211 0.84772 0.17600
Cu	Cu	0.71384 0.33093 0.37220 0.92700
Cu	Cu	0.73043 0.29140 0.52817 0.86400
Cu	Cu	0.65919 0.31667 0.51168 0.89300
Cu	Cu	0.62175 0.33671 0.36591 0.89300
C 	C 	0.65291 0.31226 0.22360 0.19600
O 	O 	0.74523 0.40368 0.37195 -0.36400
C 	C 	0.71089 0.32548 0.66750 0.18900
O 	O 	0.64073 0.29686 0.39837 -0.63800
O 	O 	0.72787 0.34221 0.48898 -0.64000
O 	O 	0.74545 0.29650 0.35105 -0.37300
O 	O 	0.70337 0.24415 0.43371 -0.44400
O 	O 	0.63949 0.33845 0.25878 -0.35900
O 	O 	0.59028 0.28657 0.52786 -0.38100
C 	C 	0.55508 0.28213 0.47629 0.29000
C 	C 	0.72989 0.42668 0.41088 0.28500
O 	O 	0.68914 0.40088 0.44167 -0.39500
O 	O 	0.56711 0.31396 0.42846 -0.39300
O 	O 	0.68730 0.30889 0.26127 -0.32800
C 	C 	0.72891 0.25504 0.37610 0.29700
O 	O 	0.68018 0.33274 0.62726 -0.34100
O 	O 	0.74391 0.32290 0.63444 -0.39000
H 	H 	0.61533 0.26076 0.37896 0.16200
H 	H 	0.75502 0.37662 0.51641 0.17500
C 	C 	0.75002 0.47784 0.40231 -0.09200
C 	C 	0.71741 0.49196 0.39576 0.01400
C 	C 	0.73518 0.53900 0.38122 -0.06900
C 	C 	0.78587 0.57274 0.37390 0.02700
C 	C 	0.81868 0.55892 0.38104 -0.06800
C 	C 	0.80079 0.51160 0.39495 0.01500
C 	C 	0.80491 0.62312 0.36159 -0.00300
C 	C 	0.82594 0.64011 0.29474 -0.03700
C 	C 	0.84375 0.68780 0.28324 -0.04300
C 	C 	0.84079 0.71889 0.33864 0.00700
C 	C 	0.81870 0.70142 0.40445 -0.04300
C 	C 	0.80114 0.65392 0.41610 -0.03700
H 	H 	0.67798 0.46609 0.40013 0.02100
H 	H 	0.70949 0.54920 0.37540 0.04400
H 	H 	0.85803 0.58487 0.37622 0.04500
H 	H 	0.82635 0.50123 0.39995 0.02900
H 	H 	0.82870 0.61651 0.25200 0.03700
H 	H 	0.86073 0.70092 0.23223 0.04200
H 	H 	0.81594 0.72500 0.44725 0.03800
H 	H 	0.78492 0.64114 0.46780 0.03700
C 	C 	0.74756 0.22634 0.35143 -0.10200
C 	C 	0.77116 0.21560 0.40860 0.01800
C 	C 	0.78935 0.18869 0.38576 -0.07300
C 	C 	0.78355 0.17171 0.30559 0.02900
C 	C 	0.75896 0.18143 0.24827 -0.07000
C 	C 	0.74174 0.20941 0.27107 0.02100
C 	C 	0.80413 0.14457 0.28221 -0.00300
C 	C 	0.85639 0.17058 0.28475 -0.03500
C 	C 	0.87787 0.14508 0.28008 -0.04100
C 	C 	0.84717 0.09325 0.27228 0.00700
C 	C 	0.79444 0.06702 0.26467 -0.04300
C 	C 	0.77301 0.09262 0.26951 -0.03700
C 	C 	0.87059 0.06701 0.27810 0.00700
C 	C 	0.85600 0.02760 0.21816 -0.04000
H 	H 	0.77598 0.22865 0.47075 -0.00000
H 	H 	0.80809 0.18110 0.43034 0.04300
H 	H 	0.75322 0.16735 0.18632 0.05200
H 	H 	0.72341 0.21739 0.22647 0.04100
H 	H 	0.88057 0.21068 0.29316 0.03600
H 	H 	0.77033 0.02701 0.25805 0.03700
H 	H 	0.73255 0.07224 0.26700 0.03700
H 	H 	0.82711 0.01579 0.16742 0.03700
C 	C 	0.07666 0.03504 0.34863 0.00000
C 	C 	0.09635 0.03559 0.42455 -0.03900
C 	C 	0.14866 0.06349 0.45027 -0.04200
C 	C 	0.18179 0.09117 0.40039 0.00600
C 	C 	0.16218 0.09190 0.32538 -0.04200
C 	C 	0.10977 0.06399 0.29967 -0.04000
C 	C 	0.23679 0.11746 0.42526 0.00700
C 	C 	0.27005 0.16911 0.43229 -0.04300
C 	C 	0.32235 0.19367 0.45219 -0.03700
C 	C 	0.34179 0.16676 0.46527 -0.00300
C 	C 	0.30843 0.11533 0.46078 -0.03700
C 	C 	0.25616 0.09076 0.44068 -0.04300
C 	C 	0.39677 0.19154 0.47498 0.02800
C 	C 	0.43009 0.23002 0.53947 -0.06900
C 	C 	0.48249 0.25780 0.54291 0.02000
C 	C 	0.50174 0.24729 0.48182 -0.09200
C 	C 	0.46851 0.20722 0.41963 0.01300
C 	C 	0.41625 0.17940 0.41625 -0.06800
H 	H 	0.07104 0.01396 0.46325 0.03600
H 	H 	0.16346 0.06318 0.50859 0.03700
H 	H 	0.18751 0.11341 0.28662 0.03800
H 	H 	0.09491 0.06438 0.24152 0.04100
H 	H 	0.25540 0.19008 0.42132 0.03800
H 	H 	0.34783 0.23338 0.45526 0.03700
H 	H 	0.32309 0.09428 0.47096 0.03700
H 	H 	0.23074 0.05089 0.43566 0.03800
H 	H 	0.41539 0.23931 0.58557 0.04600
H 	H 	0.50794 0.28869 0.59125 0.03300
H 	H 	0.48313 0.19884 0.37231 0.01700
H 	H 	0.39083 0.14962 0.36644 0.04500
C 	C 	0.72955 0.48783 0.97516 -0.10500
C 	C 	0.75762 0.51682 0.92135 0.02200
C 	C 	0.78689 0.56852 0.94056 -0.08300
C 	C 	0.78845 0.59169 0.01373 0.04000
C 	C 	0.76074 0.56279 0.06767 -0.07700
C 	C 	0.73153 0.51116 0.04859 0.02800
C 	C 	0.81796 0.64613 0.03296 -0.00700
C 	C 	0.87050 0.67610 0.03579 -0.03500
C 	C 	0.89807 0.72770 0.05052 -0.04400
C 	C 	0.82093 0.71974 0.06180 -0.04400
C 	C 	0.79340 0.66818 0.04698 -0.03500
H 	H 	0.75632 0.49938 0.86438 0.03400
H 	H 	0.80791 0.59056 0.89829 0.04700
H 	H 	0.76168 0.58034 0.12424 0.04700
H 	H 	0.71064 0.48928 0.09109 0.02200
H 	H 	0.88985 0.65940 0.02575 0.03700
H 	H 	0.75287 0.64534 0.04518 0.03800
C 	C 	0.77071 0.24502 0.04172 -0.09000
C 	C 	0.81105 0.26648 0.10566 0.01200
C 	C 	0.83654 0.24519 0.11819 -0.06300
C 	C 	0.82212 0.20258 0.06624 0.01500
C 	C 	0.78213 0.18165 0.00172 -0.04500
C 	C 	0.75629 0.20250 0.99003 -0.01400
C 	C 	0.84845 0.17949 0.07946 0.00300
C 	C 	0.90142 0.20786 0.08765 -0.03900
C 	C 	0.89737 0.13365 0.08951 0.00700
C 	C 	0.84448 0.10542 0.08213 -0.03900
C 	C 	0.82028 0.12832 0.07856 -0.03700
H 	H 	0.82223 0.29918 0.14614 0.03100
H 	H 	0.86681 0.26126 0.16885 0.04300
H 	H 	0.77115 0.14928 0.96054 0.03000
H 	H 	0.72541 0.18593 0.94017 0.01600
H 	H 	0.92358 0.24732 0.08801 0.03600
H 	H 	0.82215 0.06577 0.07951 0.03800
H 	H 	0.77955 0.10623 0.07427 0.03800
C 	C 	0.50179 0.20989 0.90095 -0.09000
C 	C 	0.47255 0.16602 0.93104 0.01200
C 	C 	0.42166 0.14475 0.93341 -0.06700
C 	C 	0.39934 0.16673 0.90495 0.02400
C 	C 	0.42694 0.20747 0.86766 -0.06700
C 	C 	0.47782 0.22874 0.86506 0.00800
C 	C 	0.34965 0.15089 0.92260 -0.00100
C 	C 	0.30595 0.10300 0.89028 -0.03700
C 	C 	0.25969 0.08665 0.91255 -0.04600
C 	C 	0.25689 0.11802 0.96748 0.01200
C 	C 	0.30032 0.16622 0.99851 -0.05200
C 	C 	0.34650 0.18263 0.97609 -0.04300
C 	C 	0.20908 0.09965 0.99515 -0.00800
C 	C 	0.20232 0.08469 0.06848 -0.02900
C 	C 	0.15625 0.06543 0.09351 -0.04500
C 	C 	0.11669 0.06136 0.04568 0.00700
C 	C 	0.12388 0.07733 0.97302 -0.05000
C 	C 	0.16988 0.09631 0.94780 -0.03600
H 	H 	0.48982 0.14982 0.95630 0.03600
H 	H 	0.40030 0.11263 0.96086 0.04400
H 	H 	0.40959 0.22389 0.84360 0.04300
H 	H 	0.49916 0.26127 0.83854 0.03200
H 	H 	0.30799 0.07826 0.84890 0.03600
H 	H 	0.22626 0.04938 0.88822 0.03800
H 	H 	0.29843 0.19068 0.04084 0.04500
H 	H 	0.38008 0.21960 0.00158 0.04300
H 	H 	0.23248 0.08727 0.10546 0.03700
H 	H 	0.09346 0.07400 0.93538 0.03700
H 	H 	0.17489 0.10796 0.89121 0.03500
C 	C 	0.03885 0.98662 0.07539 -0.08200
H 	H 	0.05495 0.96661 0.06562 0.05100
C 	C 	0.99350 0.95196 0.31729 -0.06500
H 	H 	0.01317 0.93548 0.32770 0.04300
H 	H 	0.87421 0.92154 0.28558 0.04700
C 	C 	0.86452 0.77099 0.33141 0.00700
C 	C 	0.84821 0.78236 0.26490 -0.04200
C 	C 	0.87214 0.83183 0.25705 -0.03600
H 	H 	0.81700 0.75295 0.21957 0.03900
H 	H 	0.86036 0.84022 0.20438 0.03900
H 	H 	0.86833 0.97394 0.17605 0.03500
C 	C 	0.87336 0.74980 0.06308 0.00800
C 	C 	0.90184 0.80422 0.07320 0.00600
H 	H 	0.80145 0.73635 0.07142 0.03700
H 	H 	0.95949 0.82021 0.16875 0.04000
H 	H 	0.15091 0.05271 0.14923 0.03900
C 	C 	0.87926 0.00375 0.22318 -0.03500
H 	H 	0.91845 0.16563 0.28402 0.03800
C 	C 	0.92578 0.18508 0.09304 -0.04200
H 	H 	0.87676 0.05759 0.98140 0.03000
C 	C 	0.90764 0.08145 0.34398 -0.04200
C 	C 	0.93063 0.05747 0.34920 -0.03700
C 	C 	0.91701 0.01890 0.28844 -0.00100
H 	H 	0.91852 0.11119 0.39126 0.03700
H 	H 	0.93842 0.75046 0.05069 0.03900
C 	C 	0.92274 0.10909 0.09095 0.00700
C 	C 	0.90706 0.06975 0.03003 -0.03700
C 	C 	0.93063 0.04618 0.03147 -0.02700
H 	H 	0.96657 0.20721 0.09819 0.03800
H 	H 	0.91824 0.01589 0.98411 0.02800
H 	H 	0.92974 0.96791 0.11159 0.05100
C 	C 	0.91515 0.94396 0.29252 -0.07200
C 	C 	0.91204 0.87027 0.31635 -0.00200
C 	C 	0.92674 0.85876 0.38439 -0.03700
C 	C 	0.90360 0.80944 0.39136 -0.04300
H 	H 	0.91626 0.80107 0.44317 0.03800
C 	C 	0.88503 0.82482 0.02451 -0.03800
C 	C 	0.91286 0.87619 0.03189 -0.02800
C 	C 	0.95815 0.90757 0.08735 -0.00900
C 	C 	0.97496 0.88705 0.13620 -0.02900
C 	C 	0.94660 0.83563 0.12988 -0.04400
H 	H 	0.85085 0.80099 0.98003 0.03100
H 	H 	0.01022 0.91090 0.17841 0.03400
H 	H 	0.01669 0.11349 0.20272 0.03200
C 	C 	0.96237 0.12467 0.15332 -0.04300
C 	C 	0.99557 0.03732 0.09391 0.04000
C 	C 	0.94301 0.99510 0.29288 0.02400
H 	H 	0.95911 0.06890 0.40046 0.03700
C 	C 	0.97040 0.06193 0.09345 -0.00900
C 	C 	0.98623 0.10128 0.15438 -0.02800
H 	H 	0.97435 0.15452 0.20121 0.03800
C 	C 	0.98945 0.96168 0.09064 0.04000
C 	C 	0.96817 0.98731 0.10094 -0.07900
C 	C 	0.94043 0.92242 0.30575 0.02700
H 	H 	0.95675 0.88811 0.43130 0.03600
H 	H 	0.89989 0.89161 0.99316 0.02800
