data_crystal

_cell_length_a 26.11432
_cell_length_b 26.22554
_cell_length_c 35.11525
_cell_angle_alpha 95.54138
_cell_angle_beta  95.54254
_cell_angle_gamma 125.68091

_symmetry_space_group_name_	'P 1'
_symmetry_space_group_name_H-M	'P 1'

loop_
_symmetry_equiv_pos_as_xyz
  x,y,z

loop_
_atom_site_label
_atom_site_type_symbol
_atom_site_fract_x
_atom_site_fract_y
_atom_site_fract_z
_atom_site_charge
C 	C 	0.96822 0.02990 0.00100 0.10100
N 	N 	0.03239 0.06223 0.00206 -0.13200
C 	C 	0.05828 0.02990 0.99990 0.11200
N 	N 	0.01999 0.96541 0.99647 -0.12900
C 	C 	0.95594 0.93292 0.99502 0.11000
N 	N 	0.93012 0.96522 0.99734 -0.13000
C 	C 	0.94153 0.00343 0.45122 0.10300
N 	N 	0.00645 0.04104 0.45465 -0.13000
C 	C 	0.03859 0.01500 0.45669 0.11100
N 	N 	0.00569 0.95118 0.45523 -0.12800
C 	C 	0.94096 0.91335 0.45209 0.10900
N 	N 	0.90878 0.93948 0.45020 -0.13000
Cu	Cu	0.63813 0.23982 0.00189 0.93100
Cu	Cu	0.68656 0.24493 0.91887 0.87900
Cu	Cu	0.66100 0.33592 0.95055 0.90200
Cu	Cu	0.63372 0.35444 0.02904 0.90300
C 	C 	0.65684 0.28605 0.08323 0.33300
O 	O 	0.54434 0.19953 0.00346 -0.34800
C 	C 	0.64988 0.29918 0.86633 0.33200
O 	O 	0.68530 0.33834 0.00444 -0.63900
O 	O 	0.62483 0.24372 0.94620 -0.63800
O 	O 	0.67990 0.19619 0.99838 -0.35500
O 	O 	0.74832 0.26377 0.96207 -0.42300
O 	O 	0.62440 0.30832 0.07311 -0.36400
O 	O 	0.70264 0.42684 0.95700 -0.36800
C 	C 	0.70381 0.46310 0.98653 0.28600
C 	C 	0.51616 0.22415 0.98970 0.27500
O 	O 	0.55145 0.28341 0.98424 -0.38500
O 	O 	0.66804 0.43828 0.01324 -0.37700
O 	O 	0.66516 0.25328 0.05691 -0.34500
C 	C 	0.73347 0.22211 0.98488 0.28000
O 	O 	0.64528 0.33332 0.89419 -0.35800
O 	O 	0.64578 0.24809 0.87198 -0.39500
H 	H 	0.73196 0.36825 0.01510 0.17800
H 	H 	0.57994 0.21408 0.93181 0.18500
Cu	Cu	0.73656 0.33786 0.45205 0.93100
Cu	Cu	0.73148 0.28977 0.53514 0.88000
Cu	Cu	0.63917 0.31377 0.50308 0.90200
Cu	Cu	0.62086 0.34140 0.42464 0.90300
C 	C 	0.69028 0.31920 0.37064 0.33300
O 	O 	0.77668 0.43135 0.45058 -0.34600
C 	C 	0.67620 0.32545 0.58745 0.33300
O 	O 	0.63745 0.29031 0.44921 -0.63800
O 	O 	0.73207 0.35077 0.50768 -0.63800
O 	O 	0.78031 0.29603 0.45562 -0.35600
O 	O 	0.71238 0.22813 0.49201 -0.42400
O 	O 	0.66748 0.35112 0.38068 -0.36400
O 	O 	0.54763 0.27138 0.49628 -0.36700
C 	C 	0.51131 0.27005 0.46660 0.28400
C 	C 	0.75133 0.45897 0.46400 0.27300
O 	O 	0.69184 0.42341 0.46948 -0.38400
O 	O 	0.53648 0.30667 0.44038 -0.37600
O 	O 	0.72352 0.31134 0.39701 -0.34400
C 	C 	0.75419 0.24271 0.46921 0.28000
O 	O 	0.64104 0.32870 0.55942 -0.35800
O 	O 	0.72795 0.33036 0.58186 -0.39500
H 	H 	0.60774 0.24388 0.43841 0.17800
H 	H 	0.76141 0.39550 0.52207 0.18500
C 	C 	0.66153 0.32356 0.62693 -0.12100
C 	C 	0.63595 0.26712 0.64196 0.12300
C 	C 	0.63035 0.26733 0.68138 0.06500
C 	C 	0.64875 0.32363 0.70559 0.01800
C 	C 	0.66952 0.37868 0.68977 0.06600
C 	C 	0.67691 0.37900 0.65057 0.12900
C 	C 	0.65141 0.32638 0.74816 0.01800
C 	C 	0.59575 0.30458 0.76382 0.06600
C 	C 	0.59549 0.29725 0.80302 0.12900
C 	C 	0.65156 0.31372 0.82684 -0.12100
C 	C 	0.70852 0.34030 0.81197 0.12300
C 	C 	0.70829 0.34587 0.77255 0.06500
Br	Br	0.68892 0.45380 0.72209 -0.15700
Br	Br	0.60859 0.18949 0.60836 -0.23400
Br	Br	0.51785 0.26230 0.82365 -0.18900
Br	Br	0.78523 0.37819 0.75151 -0.16600
Br	Br	0.71045 0.45590 0.62971 -0.18900
Br	Br	0.59947 0.19117 0.70266 -0.16600
Br	Br	0.51975 0.28369 0.73126 -0.15700
Br	Br	0.78687 0.36907 0.84579 -0.23400
C 	C 	0.68873 0.30285 0.32886 -0.11700
C 	C 	0.74624 0.32656 0.31477 0.12600
C 	C 	0.74419 0.31552 0.27443 0.06600
C 	C 	0.68678 0.28913 0.24804 0.01700
C 	C 	0.62947 0.26555 0.26206 0.06600
C 	C 	0.62995 0.26871 0.30229 0.12300
C 	C 	0.68740 0.28984 0.20587 0.01700
C 	C 	0.71019 0.34672 0.19182 0.06600
C 	C 	0.70696 0.34627 0.15159 0.12300
C 	C 	0.67339 0.28780 0.12504 -0.11700
C 	C 	0.65049 0.23071 0.13915 0.12600
C 	C 	0.66173 0.23288 0.17950 0.06600
Br	Br	0.55114 0.23207 0.22638 -0.16400
Br	Br	0.82825 0.37969 0.34991 -0.18400
Br	Br	0.75047 0.42585 0.13285 -0.22100
Br	Br	0.64169 0.15794 0.19875 -0.16100
Br	Br	0.55003 0.22446 0.32103 -0.22100
Br	Br	0.81990 0.33680 0.25522 -0.16100
Br	Br	0.74262 0.42438 0.22747 -0.16500
Br	Br	0.59819 0.14902 0.10404 -0.18400
C 	C 	0.77527 0.65718 0.50893 -0.03500
C 	C 	0.79834 0.71960 0.50534 -0.04400
C 	C 	0.83894 0.75004 0.47883 0.03700
C 	C 	0.85623 0.71730 0.45565 -0.01700
C 	C 	0.83321 0.65456 0.45937 -0.00200
C 	C 	0.79245 0.62435 0.48603 0.02100
C 	C 	0.85074 0.62199 0.43629 0.02200
C 	C 	0.89124 0.65237 0.40975 -0.03400
C 	C 	0.91420 0.71468 0.40611 -0.04300
C 	C 	0.89706 0.74749 0.42903 0.03700
C 	C 	0.92140 0.81057 0.42626 -0.05700
C 	C 	0.90610 0.84410 0.45027 0.01100
C 	C 	0.86369 0.81330 0.47586 -0.05700
C 	C 	0.76852 0.56133 0.48899 -0.02700
C 	C 	0.78438 0.52805 0.46516 -0.05000
C 	C 	0.82661 0.55905 0.43947 -0.02600
H 	H 	0.74395 0.63437 0.52948 0.05100
H 	H 	0.78477 0.74429 0.52329 0.05000
H 	H 	0.90492 0.62772 0.39184 0.05500
H 	H 	0.94554 0.73749 0.38556 0.05200
H 	H 	0.95362 0.83427 0.40623 0.05700
H 	H 	0.85199 0.83929 0.49440 0.05500
H 	H 	0.73667 0.53775 0.50921 0.05600
H 	H 	0.83883 0.53347 0.42103 0.06500
C 	C 	0.74948 0.05693 0.49147 -0.03100
C 	C 	0.77569 0.02321 0.48896 -0.05500
C 	C 	0.82644 0.04289 0.46888 0.04200
C 	C 	0.85009 0.09610 0.45048 -0.02100
C 	C 	0.82378 0.13015 0.45310 0.00100
C 	C 	0.77376 0.11085 0.47399 0.01600
C 	C 	0.84845 0.18425 0.43548 0.01900
C 	C 	0.89819 0.20302 0.41462 -0.03300
C 	C 	0.92425 0.16917 0.41198 -0.04600
C 	C 	0.90095 0.11614 0.43021 0.03900
C 	C 	0.92890 0.08385 0.42917 -0.06000
C 	C 	0.90698 0.03222 0.44866 0.01500
C 	C 	0.85489 0.01102 0.46779 -0.06700
C 	C 	0.74955 0.14645 0.47792 -0.02600
C 	C 	0.77559 0.20186 0.46160 -0.05700
C 	C 	0.82407 0.21973 0.43965 -0.02300
H 	H 	0.71074 0.04146 0.50738 0.04500
H 	H 	0.75687 0.98216 0.50297 0.05500
H 	H 	0.91718 0.24423 0.40073 0.05300
H 	H 	0.96304 0.18468 0.39611 0.04900
H 	H 	0.96827 0.09941 0.41376 0.05400
H 	H 	0.83790 0.97116 0.48278 0.06100
H 	H 	0.71139 0.13176 0.49426 0.04900
H 	H 	0.84354 0.26169 0.42644 0.06400
C 	C 	0.31369 0.09497 0.50445 -0.03200
C 	C 	0.24765 0.05999 0.50369 -0.04400
C 	C 	0.21164 0.07617 0.48327 0.03900
C 	C 	0.24236 0.12830 0.46377 -0.01800
C 	C 	0.30890 0.16365 0.46464 0.00100
C 	C 	0.34461 0.14671 0.48491 0.02000
C 	C 	0.33963 0.21564 0.44503 0.01900
C 	C 	0.30366 0.23208 0.42482 -0.03300
C 	C 	0.23749 0.19681 0.42384 -0.04500
C 	C 	0.20647 0.14473 0.44311 0.03800
C 	C 	0.13991 0.10837 0.44155 -0.05700
C 	C 	0.10906 0.05575 0.46047 0.01100
C 	C 	0.14522 0.04041 0.48174 -0.05800
C 	C 	0.41068 0.18149 0.48528 -0.02200
C 	C 	0.44156 0.23347 0.46583 -0.04900
C 	C 	0.40586 0.25046 0.44579 -0.02200
H 	H 	0.34075 0.08169 0.52020 0.05200
H 	H 	0.22449 0.02009 0.51883 0.05200
H 	H 	0.32684 0.27204 0.40973 0.04800
H 	H 	0.21039 0.20992 0.40796 0.04900
H 	H 	0.11200 0.12011 0.42503 0.05600
H 	H 	0.12157 0.00047 0.49687 0.05800
H 	H 	0.43798 0.16792 0.50043 0.05600
H 	H 	0.42962 0.29086 0.43105 0.05500
C 	C 	0.77537 0.73495 0.02910 -0.04600
C 	C 	0.74062 0.66919 0.02839 -0.03300
C 	C 	0.75679 0.63348 0.00766 0.01800
C 	C 	0.80786 0.66402 0.98716 0.00200
C 	C 	0.84265 0.73014 0.98774 -0.01700
C 	C 	0.82663 0.76581 0.00901 0.03700
C 	C 	0.89395 0.76069 0.96742 0.03900
C 	C 	0.90975 0.72491 0.94640 -0.04400
C 	C 	0.87534 0.65930 0.94593 -0.03200
C 	C 	0.82454 0.62858 0.96636 0.02000
C 	C 	0.79051 0.56300 0.96641 -0.02200
C 	C 	0.73952 0.53231 0.98679 -0.04800
C 	C 	0.72268 0.56772 0.00729 -0.02300
C 	C 	0.86273 0.83203 0.01046 -0.05900
C 	C 	0.91473 0.86275 0.99087 0.01300
C 	C 	0.92943 0.82675 0.96884 -0.05800
H 	H 	0.76254 0.76188 0.04543 0.04900
H 	H 	0.70133 0.64614 0.04414 0.04700
H 	H 	0.94899 0.74795 0.93061 0.05200
H 	H 	0.88836 0.63243 0.92975 0.05200
H 	H 	0.80395 0.53594 0.95088 0.05700
H 	H 	0.68299 0.54410 0.02273 0.05500
H 	H 	0.85144 0.85983 0.02751 0.05600
H 	H 	0.96883 0.85032 0.95316 0.05800
C 	C 	0.80385 0.04983 0.04102 -0.04500
C 	C 	0.77088 0.07685 0.03882 -0.03400
C 	C 	0.79035 0.12666 0.01812 0.02100
C 	C 	0.84433 0.15046 0.00025 -0.00200
C 	C 	0.87753 0.12323 0.00245 -0.02100
C 	C 	0.85674 0.07225 0.02253 0.03800
C 	C 	0.93063 0.14606 0.98383 0.04100
C 	C 	0.95105 0.19689 0.96392 -0.04800
C 	C 	0.91813 0.22398 0.96178 -0.03500
C 	C 	0.86429 0.20052 0.97948 0.01900
C 	C 	0.82937 0.22553 0.97586 -0.02800
C 	C 	0.77398 0.20026 0.99236 -0.05400
C 	C 	0.75562 0.15189 0.01430 -0.02600
C 	C 	0.88816 0.04342 0.02317 -0.06000
C 	C 	0.93976 0.06467 0.00354 0.01300
C 	C 	0.96167 0.11678 0.98456 -0.06600
H 	H 	0.78779 0.01098 0.05676 0.04900
H 	H 	0.72976 0.05853 0.05290 0.05300
H 	H 	0.99205 0.21508 0.94975 0.04800
H 	H 	0.93412 0.26275 0.94598 0.04600
H 	H 	0.84448 0.26366 0.95958 0.04900
H 	H 	0.71374 0.13311 0.02772 0.06500
H 	H 	0.87206 0.00399 0.03845 0.05400
H 	H 	0.00152 0.13323 0.96946 0.06200
C 	C 	0.32042 0.07910 0.04108 -0.03400
C 	C 	0.25749 0.05518 0.04443 -0.04300
C 	C 	0.22468 0.07306 0.02221 0.03500
C 	C 	0.25546 0.11550 0.99653 -0.01500
C 	C 	0.31880 0.13948 0.99309 -0.00100
C 	C 	0.35141 0.12129 0.01552 0.02200
C 	C 	0.34962 0.18190 0.96740 0.02100
C 	C 	0.31675 0.19974 0.94515 -0.03500
C 	C 	0.25373 0.17577 0.94849 -0.04300
C 	C 	0.22273 0.13358 0.97407 0.03500
C 	C 	0.15899 0.10817 0.97687 -0.05400
C 	C 	0.12771 0.06435 0.00157 0.00700
C 	C 	0.16110 0.04802 0.02479 -0.05500
C 	C 	0.41500 0.14648 0.01272 -0.02700
C 	C 	0.44659 0.19039 0.98806 -0.04900
C 	C 	0.41326 0.20683 0.96478 -0.02700
H 	H 	0.34509 0.06489 0.05847 0.05500
H 	H 	0.23422 0.02257 0.06424 0.05200
H 	H 	0.34002 0.23232 0.92533 0.05100
H 	H 	0.22903 0.18993 0.93108 0.05000
H 	H 	0.13307 0.12062 0.95893 0.05500
H 	H 	0.13701 0.01471 0.04416 0.05600
H 	H 	0.44058 0.13371 0.03068 0.06500
H 	H 	0.43727 0.23989 0.94528 0.05600
