data_crystal

_cell_length_a 26.16507
_cell_length_b 26.33850
_cell_length_c 35.54999
_cell_angle_alpha 95.49153
_cell_angle_beta  95.49116
_cell_angle_gamma 125.84725

_symmetry_space_group_name_	'P 1'
_symmetry_space_group_name_H-M	'P 1'

loop_
_symmetry_equiv_pos_as_xyz
  x,y,z

loop_
_atom_site_label
_atom_site_type_symbol
_atom_site_fract_x
_atom_site_fract_y
_atom_site_fract_z
_atom_site_charge
C 	C 	0.97588 0.03977 0.99747 0.14800
N 	N 	0.03957 0.07452 0.99641 -0.13400
C 	C 	0.06910 0.04589 0.99593 0.15300
N 	N 	0.03482 0.98258 0.99643 -0.13800
C 	C 	0.97123 0.94779 0.99740 0.14000
N 	N 	0.94176 0.97637 0.99775 -0.14200
C 	C 	0.93147 0.99299 0.45907 0.13000
N 	N 	0.99412 0.02462 0.45603 -0.12000
C 	C 	0.02012 0.99286 0.45276 0.14100
N 	N 	0.98299 0.92900 0.45140 -0.14100
C 	C 	0.92012 0.89688 0.45385 0.14400
N 	N 	0.89437 0.92894 0.45799 -0.14300
Cu	Cu	0.64095 0.24375 0.00096 0.93000
Cu	Cu	0.67936 0.24820 0.91579 0.87100
Cu	Cu	0.68251 0.35265 0.95773 0.89800
Cu	Cu	0.66771 0.37168 0.03938 0.90000
C 	C 	0.67365 0.28353 0.08330 0.33000
O 	O 	0.55326 0.21967 0.00694 -0.36100
C 	C 	0.65112 0.31743 0.87213 0.32700
O 	O 	0.70450 0.34375 0.00858 -0.63900
O 	O 	0.62934 0.25777 0.94833 -0.64300
O 	O 	0.66820 0.18842 0.98927 -0.37300
O 	O 	0.73987 0.25457 0.95397 -0.43800
O 	O 	0.65284 0.31830 0.07932 -0.39000
O 	O 	0.73872 0.44477 0.96950 -0.38500
C 	C 	0.73671 0.48043 0.99720 0.31300
C 	C 	0.53571 0.25568 0.99857 0.30100
O 	O 	0.57940 0.31581 0.99692 -0.38200
O 	O 	0.71840 0.46080 0.02961 -0.37500
O 	O 	0.66689 0.24476 0.05347 -0.36600
C 	C 	0.72103 0.21105 0.97552 0.31500
O 	O 	0.67138 0.36078 0.90343 -0.39100
O 	O 	0.63998 0.26203 0.87413 -0.42500
H 	H 	0.75086 0.36505 0.01740 0.17300
H 	H 	0.58433 0.23655 0.93572 0.17600
Cu	Cu	0.73151 0.33124 0.45653 0.93000
Cu	Cu	0.72278 0.29109 0.54131 0.87200
Cu	Cu	0.61967 0.28945 0.49816 0.89900
Cu	Cu	0.60610 0.31028 0.41784 0.89600
C 	C 	0.69339 0.30143 0.37407 0.33000
O 	O 	0.75977 0.42020 0.45157 -0.34900
C 	C 	0.65291 0.31963 0.58386 0.32800
O 	O 	0.63051 0.26998 0.44752 -0.64000
O 	O 	0.71536 0.34197 0.50883 -0.64000
O 	O 	0.78404 0.30041 0.46823 -0.36900
O 	O 	0.71419 0.23042 0.50269 -0.43800
O 	O 	0.65965 0.32359 0.37804 -0.39000
O 	O 	0.52698 0.23324 0.48502 -0.37100
C 	C 	0.49151 0.23130 0.45498 0.31400
C 	C 	0.72446 0.43887 0.45972 0.30300
O 	O 	0.66392 0.39625 0.46143 -0.39700
O 	O 	0.51712 0.26575 0.42820 -0.39500
O 	O 	0.73155 0.30687 0.40395 -0.36200
C 	C 	0.75948 0.24805 0.48246 0.31300
O 	O 	0.60904 0.29720 0.55230 -0.38800
O 	O 	0.70881 0.33077 0.58247 -0.42700
H 	H 	0.60806 0.22401 0.43763 0.17100
H 	H 	0.73673 0.38655 0.52173 0.17600
C 	C 	0.66044 0.33874 0.69145 0.00600
C 	C 	0.70264 0.38301 0.72488 -0.03900
C 	C 	0.68927 0.36850 0.76115 -0.03800
C 	C 	0.63298 0.30964 0.76438 0.00600
C 	C 	0.58934 0.26661 0.73095 -0.03900
C 	C 	0.60304 0.28084 0.69467 -0.03700
C 	C 	0.62413 0.28876 0.80198 0.01100
C 	C 	0.64307 0.33179 0.83617 -0.17000
C 	C 	0.68154 0.34892 0.65392 0.01200
C 	C 	0.63765 0.32750 0.61955 -0.17000
H 	H 	0.74718 0.42763 0.72279 0.04000
H 	H 	0.72417 0.40169 0.78661 0.04100
H 	H 	0.54597 0.22097 0.73305 0.04200
H 	H 	0.57056 0.24554 0.66920 0.04300
H 	H 	0.60319 0.23912 0.80284 0.03600
H 	H 	0.65497 0.37854 0.83473 0.08700
H 	H 	0.73208 0.37252 0.65321 0.03500
H 	H 	0.58973 0.31353 0.62069 0.08900
C 	C 	0.67605 0.27931 0.26618 0.00900
C 	C 	0.63082 0.23274 0.23431 -0.03700
C 	C 	0.64098 0.24304 0.19700 -0.03600
C 	C 	0.69621 0.30046 0.19126 0.00900
C 	C 	0.74306 0.34549 0.22311 -0.03700
C 	C 	0.73327 0.33481 0.26042 -0.03600
C 	C 	0.69992 0.31805 0.15289 0.01500
C 	C 	0.68851 0.27607 0.12020 -0.16600
C 	C 	0.65837 0.27517 0.30456 0.01500
C 	C 	0.70067 0.28637 0.33717 -0.16500
H 	H 	0.58652 0.18974 0.23843 0.04300
H 	H 	0.60428 0.20800 0.17264 0.04800
H 	H 	0.78587 0.38992 0.21901 0.04300
H 	H 	0.76846 0.37129 0.28481 0.04800
H 	H 	0.71032 0.36385 0.15012 0.03300
H 	H 	0.69003 0.23637 0.12360 0.09200
H 	H 	0.61234 0.26492 0.30743 0.03200
H 	H 	0.74034 0.28438 0.33373 0.09400
C 	C 	0.83766 0.61951 0.47786 -0.11600
C 	C 	0.79775 0.63342 0.46066 0.00800
C 	C 	0.73323 0.58369 0.44462 0.12000
C 	C 	0.70952 0.52035 0.44473 -0.03400
C 	C 	0.74968 0.50609 0.46120 -0.12300
C 	C 	0.81375 0.55614 0.47851 0.19200
C 	C 	0.82448 0.69981 0.45766 -0.00400
O 	O 	0.69392 0.59677 0.42752 -0.27400
H 	H 	0.66015 0.48223 0.43138 0.05200
O 	O 	0.85324 0.54327 0.49562 -0.28800
H 	H 	0.88733 0.65780 0.49050 0.07200
C 	C 	0.82478 0.73960 0.48720 0.12900
C 	C 	0.85237 0.80324 0.48462 -0.06400
C 	C 	0.88069 0.82774 0.45298 -0.06300
C 	C 	0.87787 0.78707 0.42270 0.16500
C 	C 	0.85019 0.72350 0.42526 -0.09700
O 	O 	0.79765 0.71622 0.51839 -0.27900
H 	H 	0.85390 0.83413 0.50790 0.06300
O 	O 	0.90413 0.81001 0.39119 -0.28400
H 	H 	0.84931 0.69276 0.40221 0.07500
H 	H 	0.84762 0.54301 0.52282 0.14000
H 	H 	0.83285 0.72415 0.53757 0.14400
H 	H 	0.86887 0.80314 0.37264 0.15100
H 	H 	0.67392 0.60227 0.44832 0.15300
C 	C 	0.91627 0.12432 0.49031 -0.09600
C 	C 	0.85656 0.10034 0.46838 -0.00500
C 	C 	0.82005 0.03968 0.44455 0.13200
C 	C 	0.84415 0.00418 0.44212 -0.05600
C 	C 	0.90418 0.02838 0.46389 -0.04900
C 	C 	0.93959 0.08820 0.48875 0.16100
C 	C 	0.83127 0.13782 0.47173 0.01100
O 	O 	0.76147 0.01563 0.42301 -0.26600
H 	H 	0.81658 0.95829 0.42290 0.06000
O 	O 	0.99728 0.11168 0.51127 -0.26900
H 	H 	0.94430 0.17076 0.50897 0.06800
C 	C 	0.81124 0.14568 0.50570 0.11100
C 	C 	0.78898 0.18262 0.50917 -0.03100
C 	C 	0.78638 0.21208 0.47887 -0.13200
C 	C 	0.80657 0.20428 0.44481 0.19600
C 	C 	0.82889 0.16722 0.44140 -0.11300
O 	O 	0.81129 0.11544 0.53505 -0.27300
H 	H 	0.77361 0.18830 0.53548 0.03900
O 	O 	0.80144 0.22998 0.41417 -0.28300
H 	H 	0.84419 0.16121 0.41514 0.08200
H 	H 	0.98651 0.09573 0.53564 0.14900
H 	H 	0.85350 0.14660 0.55237 0.14100
H 	H 	0.84377 0.27209 0.41719 0.15800
H 	H 	0.72986 0.99172 0.43962 0.14300
C 	C 	0.32062 0.10073 0.46302 -0.11500
C 	C 	0.28924 0.12672 0.45123 0.01000
C 	C 	0.32396 0.18620 0.43970 0.11900
C 	C 	0.38999 0.22008 0.44098 -0.03200
C 	C 	0.42171 0.19450 0.45313 -0.12200
C 	C 	0.38647 0.13397 0.46357 0.19400
C 	C 	0.22026 0.09211 0.45163 -0.00400
O 	O 	0.29369 0.21207 0.42817 -0.27000
H 	H 	0.41667 0.26660 0.43291 0.06000
O 	O 	0.41634 0.10749 0.47458 -0.28700
H 	H 	0.29390 0.05469 0.47171 0.07400
C 	C 	0.17427 0.03920 0.42260 0.12800
C 	C 	0.10884 0.00740 0.42286 -0.05300
C 	C 	0.08891 0.02785 0.45210 -0.05000
C 	C 	0.13503 0.08041 0.48138 0.16400
C 	C 	0.20041 0.11252 0.48089 -0.09300
O 	O 	0.19318 0.01987 0.39329 -0.26700
H 	H 	0.07357 0.96696 0.40025 0.06500
O 	O 	0.11626 0.10062 0.51034 -0.26700
H 	H 	0.23575 0.15320 0.50335 0.07800
H 	H 	0.41313 0.08256 0.45052 0.14600
H 	H 	0.19721 0.98760 0.40220 0.13800
H 	H 	0.11322 0.07642 0.53083 0.15000
H 	H 	0.27898 0.19651 0.39997 0.15300
C 	C 	0.77451 0.64415 0.00975 -0.11500
C 	C 	0.83130 0.67862 0.99506 0.01000
C 	C 	0.85578 0.64746 0.97973 0.11800
C 	C 	0.82445 0.58261 0.98022 -0.03200
C 	C 	0.76804 0.54815 0.99544 -0.12100
C 	C 	0.74242 0.57899 0.00958 0.19300
C 	C 	0.86578 0.74763 0.99643 -0.00700
O 	O 	0.91133 0.68077 0.96528 -0.27300
H 	H 	0.84457 0.55936 0.96927 0.06000
O 	O 	0.68650 0.54572 0.02368 -0.28800
H 	H 	0.75525 0.66791 0.02133 0.07300
C 	C 	0.84328 0.76986 0.96995 0.13100
C 	C 	0.87760 0.83542 0.97066 -0.06500
C 	C 	0.93423 0.87914 0.99782 -0.05600
C 	C 	0.95582 0.85688 0.02493 0.15800
C 	C 	0.92178 0.79131 0.02398 -0.09200
O 	O 	0.78919 0.72750 0.94241 -0.27800
H 	H 	0.86072 0.85222 0.94970 0.06600
O 	O 	0.01060 0.89909 0.05203 -0.27100
H 	H 	0.93900 0.77438 0.04462 0.07500
H 	H 	0.65175 0.52930 0.00125 0.15000
H 	H 	0.75321 0.72088 0.95404 0.14600
H 	H 	0.99610 0.90922 0.07441 0.14400
H 	H 	0.89742 0.67728 0.93760 0.15100
C 	C 	0.87249 0.08855 0.02529 -0.09700
C 	C 	0.87273 0.11942 0.99523 -0.00600
C 	C 	0.90974 0.12710 0.96700 0.13500
C 	C 	0.94556 0.10325 0.96876 -0.06400
C 	C 	0.94368 0.07055 0.99814 -0.05900
C 	C 	0.90791 0.06429 0.02692 0.16500
C 	C 	0.83310 0.14247 0.99287 0.00900
O 	O 	0.91126 0.15822 0.93782 -0.27900
H 	H 	0.97337 0.10865 0.94669 0.07000
O 	O 	0.90652 0.03339 0.05620 -0.27800
H 	H 	0.84444 0.08292 0.04725 0.07100
C 	C 	0.76607 0.09915 0.98071 0.11300
C 	C 	0.72933 0.12176 0.97639 -0.03200
C 	C 	0.75906 0.18749 0.98400 -0.13000
C 	C 	0.82592 0.23069 0.99723 0.19500
C 	C 	0.86253 0.20801 0.00189 -0.11300
O 	O 	0.73681 0.03497 0.97137 -0.27300
H 	H 	0.67794 0.08826 0.96610 0.05300
O 	O 	0.85522 0.29486 0.00678 -0.29300
H 	H 	0.91398 0.24146 0.01197 0.07900
H 	H 	0.94280 0.06704 0.07690 0.15000
H 	H 	0.72455 0.01855 0.99545 0.14900
H 	H 	0.86997 0.31200 0.98322 0.15000
H 	H 	0.87556 0.12456 0.91686 0.15000
C 	C 	0.38473 0.23898 0.01107 -0.11600
C 	C 	0.33716 0.17623 0.99172 0.00900
C 	C 	0.35480 0.14084 0.97275 0.12200
C 	C 	0.41979 0.16790 0.97395 -0.03300
C 	C 	0.46757 0.23000 0.99438 -0.12200
C 	C 	0.44975 0.26577 0.01283 0.19500
C 	C 	0.26931 0.14589 0.99408 -0.00600
O 	O 	0.30856 0.08004 0.95274 -0.27300
H 	H 	0.43302 0.14028 0.95938 0.05400
O 	O 	0.49574 0.32653 0.03299 -0.29300
H 	H 	0.37133 0.26637 0.02574 0.07500
C 	C 	0.24240 0.10979 0.02274 0.13300
C 	C 	0.17728 0.07858 0.02377 -0.06100
C 	C 	0.13868 0.08372 0.99659 -0.05800
C 	C 	0.16603 0.12118 0.96845 0.16600
C 	C 	0.23129 0.15241 0.96745 -0.09600
O 	O 	0.27920 0.10319 0.04897 -0.27600
H 	H 	0.15661 0.04989 0.04553 0.07500
O 	O 	0.12909 0.12711 0.94186 -0.28000
H 	H 	0.25204 0.18080 0.94559 0.07500
H 	H 	0.50431 0.32149 0.05965 0.14500
H 	H 	0.29753 0.13894 0.07092 0.14800
H 	H 	0.11182 0.09174 0.91985 0.15300
H 	H 	0.30072 0.05183 0.97154 0.15800
