data_crystal

_cell_length_a 19.35163
_cell_length_b 17.84239
_cell_length_c 36.93465
_cell_angle_alpha 90.27730
_cell_angle_beta  90.99891
_cell_angle_gamma 111.01747

_symmetry_space_group_name_	'P 1'
_symmetry_space_group_name_H-M	'P 1'

loop_
_symmetry_equiv_pos_as_xyz
  x,y,z

loop_
_atom_site_label
_atom_site_type_symbol
_atom_site_fract_x
_atom_site_fract_y
_atom_site_fract_z
_atom_site_charge
Ni	Ni	0.74781 0.37124 0.87959 1.09900
O 	O 	0.65475 0.31672 0.84833 -0.70400
Ni	Ni	0.57625 0.32520 0.88048 1.10500
O 	O 	0.81180 0.35406 0.83913 -0.37400
O 	O 	0.74652 0.21879 0.83832 -0.41700
O 	O 	0.74837 0.47339 0.85518 -0.40900
Ni	Ni	0.63441 0.20366 0.83866 1.06400
O 	O 	0.78454 0.45773 0.96008 -0.40400
O 	O 	0.63462 0.17594 0.89229 -0.42800
O 	O 	0.49058 0.27962 0.84442 -0.37100
O 	O 	0.66761 0.36497 0.91424 -0.70000
O 	O 	0.84270 0.43479 0.90917 -0.37300
O 	O 	0.51043 0.36028 0.91442 -0.36100
O 	O 	0.59722 0.48673 0.91912 -0.39500
Ni	Ni	0.69265 0.47007 0.93785 1.07400
H 	H 	0.65513 0.34540 0.82540 0.15700
H 	H 	0.66589 0.32487 0.93293 0.16700
C 	C 	0.57958 0.17290 0.91316 0.35300
O 	O 	0.75774 0.55641 0.90369 -0.39700
C 	C 	0.79809 0.28237 0.82478 0.29200
C 	C 	0.48393 0.21434 0.82538 0.29500
C 	C 	0.77615 0.54417 0.87062 0.33300
C 	C 	0.53110 0.43462 0.92645 0.34200
C 	C 	0.84538 0.46838 0.94164 0.26200
O 	O 	0.53852 0.21571 0.90556 -0.34900
O 	O 	0.52077 0.16729 0.83526 -0.40800
Ni	Ni	0.48990 0.34425 0.55031 1.10100
O 	O 	0.57729 0.39078 0.51662 -0.70100
Ni	Ni	0.65836 0.37133 0.54479 1.10100
O 	O 	0.43016 0.40898 0.52911 -0.36600
O 	O 	0.53124 0.52214 0.53691 -0.41100
O 	O 	0.43778 0.25313 0.51315 -0.36100
Ni	Ni	0.61121 0.50484 0.50519 1.07200
O 	O 	0.42370 0.16880 0.57809 -0.40800
O 	O 	0.69426 0.56029 0.54272 -0.39900
O 	O 	0.75003 0.44020 0.51617 -0.36300
O 	O 	0.56716 0.31093 0.57475 -0.70000
O 	O 	0.40740 0.28981 0.58496 -0.38500
O 	O 	0.72349 0.32490 0.57480 -0.37100
O 	O 	0.64262 0.19629 0.56573 -0.40500
Ni	Ni	0.53531 0.19477 0.57194 1.06700
H 	H 	0.56829 0.35920 0.49377 0.16100
H 	H 	0.57345 0.32890 0.60040 0.15300
C 	C 	0.69489 0.53590 0.57614 0.32500
O 	O 	0.52483 0.19490 0.51730 -0.40600
C 	C 	0.46154 0.48747 0.52694 0.24600
C 	C 	0.74785 0.47999 0.48601 0.26300
C 	C 	0.46466 0.19885 0.50215 0.26500
C 	C 	0.70055 0.24814 0.58292 0.29600
C 	C 	0.39320 0.21481 0.59493 0.29400
O 	O 	0.67669 0.45952 0.58335 -0.40000
O 	O 	0.68547 0.48421 0.47305 -0.41300
Ni	Ni	0.95289 0.02214 0.68231 1.09800
O 	O 	0.05023 0.02345 0.70581 -0.69200
Ni	Ni	0.01421 0.96994 0.75268 1.09900
O 	O 	0.00718 0.07732 0.63699 -0.36400
O 	O 	0.08562 0.17795 0.67220 -0.41100
O 	O 	0.94130 0.91142 0.66100 -0.39300
Ni	Ni	0.12047 0.13068 0.71728 1.06900
O 	O 	0.77770 0.97581 0.71030 -0.42200
O 	O 	0.04840 0.16440 0.74731 -0.41400
O 	O 	0.11287 0.96474 0.77048 -0.38300
O 	O 	0.92132 0.98676 0.73252 -0.70600
O 	O 	0.85223 0.01319 0.66018 -0.37800
O 	O 	0.95809 0.89103 0.79189 -0.37800
O 	O 	0.87225 0.81915 0.74953 -0.42400
Ni	Ni	0.82591 0.89893 0.72921 1.07100
H 	H 	0.07380 0.99230 0.69159 0.15300
H 	H 	0.91273 0.03157 0.74504 0.15200
C 	C 	0.02558 0.13248 0.77891 0.31900
O 	O 	0.82091 0.85524 0.67767 -0.40000
C 	C 	0.07019 0.13807 0.64123 0.30800
C 	C 	0.17325 0.03017 0.76824 0.30100
C 	C 	0.87785 0.85054 0.66036 0.32500
C 	C 	0.89924 0.82790 0.78286 0.29200
C 	C 	0.79679 0.01679 0.67984 0.30800
O 	O 	0.03233 0.06453 0.78826 -0.37100
O 	O 	0.16728 0.10113 0.76260 -0.40300
Ni	Ni	0.13384 0.74649 0.36836 1.09900
O 	O 	0.23336 0.77964 0.34375 -0.71100
Ni	Ni	0.29798 0.76623 0.38392 1.10300
O 	O 	0.08417 0.77002 0.32258 -0.37500
O 	O 	0.16628 0.89981 0.32126 -0.41600
O 	O 	0.11042 0.62987 0.34950 -0.37100
Ni	Ni	0.27089 0.89277 0.33069 1.06100
O 	O 	0.05519 0.60027 0.41399 -0.41400
O 	O 	0.26547 0.93402 0.38196 -0.42400
O 	O 	0.39008 0.79232 0.35367 -0.37800
O 	O 	0.20063 0.74597 0.41103 -0.69400
O 	O 	0.03519 0.71110 0.39442 -0.39100
O 	O 	0.35367 0.72446 0.42242 -0.33600
O 	O 	0.25958 0.65877 0.45967 -0.38800
Ni	Ni	0.16204 0.63794 0.43120 1.08500
H 	H 	0.23297 0.74488 0.32272 0.15100
H 	H 	0.20320 0.78785 0.42922 0.19000
C 	C 	0.31288 0.93304 0.40758 0.34500
O 	O 	0.19236 0.59506 0.38543 -0.43500
C 	C 	0.10786 0.84145 0.30761 0.29000
C 	C 	0.41286 0.85780 0.33392 0.30000
C 	C 	0.15293 0.58670 0.35518 0.29300
C 	C 	0.32106 0.66405 0.44397 0.36100
C 	C 	0.01683 0.64745 0.41495 0.37500
O 	O 	0.34446 0.87895 0.40705 -0.34200
O 	O 	0.38221 0.91330 0.33693 -0.41300
Ni	Ni	0.32601 0.80707 0.05683 1.10000
O 	O 	0.25683 0.71011 0.08413 -0.70100
Ni	Ni	0.26193 0.61903 0.05385 1.10100
O 	O 	0.30814 0.88474 0.09354 -0.37200
O 	O 	0.18300 0.82734 0.08366 -0.39800
O 	O 	0.40784 0.79634 0.09028 -0.40100
Ni	Ni	0.15448 0.70306 0.08578 1.07600
O 	O 	0.41444 0.83010 0.98083 -0.40600
O 	O 	0.14256 0.69834 0.03086 -0.38900
O 	O 	0.20236 0.52961 0.08702 -0.37800
O 	O 	0.31682 0.71612 0.02262 -0.69800
O 	O 	0.40216 0.90279 0.03080 -0.36900
O 	O 	0.29805 0.54009 0.02601 -0.35900
O 	O 	0.41488 0.62917 0.03303 -0.41100
Ni	Ni	0.41624 0.73087 0.00615 1.07300
H 	H 	0.27580 0.70707 0.10894 0.15100
H 	H 	0.28546 0.71892 0.00160 0.16200
C 	C 	0.12814 0.63003 0.01362 0.34400
O 	O 	0.48707 0.80339 0.04435 -0.40600
C 	C 	0.24018 0.87731 0.10201 0.28400
C 	C 	0.14320 0.53418 0.10284 0.28800
C 	C 	0.47321 0.80079 0.07904 0.32300
C 	C 	0.36941 0.55934 0.02115 0.24500
C 	C 	0.42861 0.89919 0.99810 0.27200
O 	O 	0.17011 0.58692 0.01928 -0.37700
O 	O 	0.10842 0.58019 0.08929 -0.39400
Ni	Ni	0.92054 0.04269 0.18079 1.09700
O 	O 	0.83354 0.05904 0.20563 -0.70200
Ni	Ni	0.87816 0.10571 0.25388 1.09800
O 	O 	0.85664 0.98013 0.13742 -0.37600
O 	O 	0.78061 0.89381 0.17656 -0.42600
O 	O 	0.94070 0.14761 0.15177 -0.37300
Ni	Ni	0.74522 0.96230 0.21167 1.06800
O 	O 	0.07953 0.15933 0.16984 -0.41500
O 	O 	0.77463 0.90787 0.25513 -0.39900
O 	O 	0.78487 0.11052 0.27860 -0.37600
O 	O 	0.96692 0.08939 0.22922 -0.69400
O 	O 	0.01060 0.02760 0.15928 -0.38300
O 	O 	0.94063 0.17823 0.29478 -0.36800
O 	O 	0.05543 0.23767 0.27150 -0.39800
Ni	Ni	0.05216 0.18729 0.22013 1.07000
H 	H 	0.81895 0.09942 0.19246 0.15500
H 	H 	0.98384 0.05073 0.24231 0.15200
C 	C 	0.84166 0.93366 0.26945 0.29000
O 	O 	0.98008 0.23566 0.19973 -0.44100
C 	C 	0.79594 0.91840 0.14331 0.30400
C 	C 	0.71916 0.05279 0.27374 0.31400
C 	C 	0.95537 0.22004 0.16613 0.30900
C 	C 	0.99766 0.24365 0.28790 0.28800
C 	C 	0.07513 0.08646 0.16025 0.31100
O 	O 	0.86908 0.00626 0.28332 -0.37400
O 	O 	0.69586 0.02383 0.24107 -0.42200
C 	C 	0.10637 0.47431 0.13006 -0.14000
C 	C 	0.03535 0.42603 0.12564 0.00500
C 	C 	0.00118 0.36349 0.15250 0.01800
C 	C 	0.96249 0.28765 0.14180 -0.15700
H 	H 	0.01680 0.37691 0.18089 0.03100
H 	H 	0.13894 0.46590 0.15290 0.06200
H 	H 	0.94583 0.27483 0.11350 0.08400
H 	H 	0.00419 0.42967 0.10134 0.04900
C 	C 	0.73718 0.89168 0.11484 -0.16300
C 	C 	0.66560 0.85543 0.12363 0.00600
C 	C 	0.60550 0.83845 0.09587 0.00500
C 	C 	0.53430 0.81510 0.10590 -0.14900
H 	H 	0.61945 0.84674 0.06741 0.04100
H 	H 	0.75171 0.90713 0.08684 0.08300
H 	H 	0.52106 0.80848 0.13447 0.06700
H 	H 	0.65101 0.84136 0.15174 0.00500
C 	C 	0.22813 0.93123 0.12929 -0.13500
C 	C 	0.19520 0.98305 0.12003 -0.01000
C 	C 	0.15704 0.01357 0.14755 0.03700
C 	C 	0.13625 0.07609 0.14041 -0.16200
H 	H 	0.13866 0.97948 0.17217 0.00700
H 	H 	0.23896 0.92265 0.15765 0.05200
H 	H 	0.15926 0.11465 0.11759 0.08900
H 	H 	0.18952 0.99597 0.09160 0.04700
C 	C 	0.48333 0.87728 0.31511 -0.14500
C 	C 	0.54028 0.94648 0.32169 0.01200
C 	C 	0.61175 0.96121 0.30383 0.00500
C 	C 	0.66405 0.03503 0.30250 -0.13700
H 	H 	0.61862 0.91270 0.28807 0.02800
H 	H 	0.49099 0.83150 0.29783 0.06600
H 	H 	0.66142 0.08314 0.31992 0.08100
H 	H 	0.53378 0.99174 0.33975 0.04300
C 	C 	0.14339 0.51690 0.33150 -0.14200
C 	C 	0.07699 0.45742 0.32787 0.00900
C 	C 	0.06840 0.38400 0.30637 0.00200
C 	C 	0.00736 0.31738 0.30930 -0.12700
H 	H 	0.11231 0.38424 0.28834 0.03200
H 	H 	0.19192 0.51065 0.31947 0.06300
H 	H 	0.96368 0.31754 0.32738 0.07300
H 	H 	0.02938 0.46208 0.34162 0.04500
C 	C 	0.87392 0.87462 0.28143 -0.14700
C 	C 	0.93923 0.87734 0.26855 0.01000
C 	C 	0.98513 0.83951 0.28842 0.00000
C 	C 	0.05818 0.86290 0.28240 -0.13600
H 	H 	0.96080 0.79797 0.31016 0.04700
H 	H 	0.84883 0.83514 0.30367 0.08300
H 	H 	0.08271 0.90665 0.26152 0.05300
H 	H 	0.96171 0.91342 0.24494 -0.00000
C 	C 	0.41817 0.13124 0.47932 0.00400
C 	C 	0.39304 0.14475 0.44501 -0.06100
C 	C 	0.35450 0.07965 0.42219 0.05900
C 	C 	0.34047 0.00057 0.43369 -0.17900
C 	C 	0.36157 0.98732 0.46897 0.37000
C 	C 	0.40061 0.05235 0.49153 -0.14100
H 	H 	0.33826 0.09077 0.39512 0.02100
H 	H 	0.41798 0.04145 0.51843 0.09700
H 	H 	0.40540 0.20548 0.43556 0.04800
F 	F 	0.34536 0.91136 0.48115 -0.43800
C 	C 	0.81690 0.52478 0.46779 0.01400
C 	C 	0.81665 0.53427 0.43007 -0.07800
C 	C 	0.88090 0.58197 0.41289 0.08000
C 	C 	0.94610 0.61976 0.43318 -0.22200
C 	C 	0.94551 0.61323 0.47105 0.38600
C 	C 	0.88123 0.56569 0.48826 -0.16700
H 	H 	0.88104 0.58616 0.38363 0.02100
H 	H 	0.88128 0.56111 0.51751 0.11400
H 	H 	0.76692 0.50387 0.41403 0.05700
F 	F 	0.00830 0.65030 0.49098 -0.47800
C 	C 	0.42596 0.53303 0.50519 0.00000
C 	C 	0.37040 0.49346 0.47944 -0.07500
C 	C 	0.34025 0.53746 0.45724 0.06200
C 	C 	0.36504 0.62130 0.46055 -0.20700
C 	C 	0.42195 0.66120 0.48555 0.39800
C 	C 	0.45197 0.61723 0.50790 -0.17600
H 	H 	0.29584 0.50618 0.43822 0.01100
H 	H 	0.49503 0.64856 0.52754 0.10900
H 	H 	0.35072 0.42871 0.47650 0.06000
F 	F 	0.44568 0.74230 0.48937 -0.43400
C 	C 	0.75036 0.21813 0.60381 -0.14800
C 	C 	0.72337 0.15052 0.62298 0.01000
C 	C 	0.77401 0.11689 0.64130 0.00700
C 	C 	0.74805 0.05636 0.66470 -0.14600
H 	H 	0.83262 0.14043 0.63506 0.03900
H 	H 	0.80957 0.25220 0.60406 0.08300
H 	H 	0.69052 0.03607 0.67273 0.07100
H 	H 	0.66381 0.11915 0.62449 0.01600
C 	C 	0.12974 0.14865 0.61554 -0.16600
C 	C 	0.19607 0.15016 0.62753 0.02600
C 	C 	0.26072 0.17631 0.60382 0.00300
C 	C 	0.32632 0.17548 0.61570 -0.13400
H 	H 	0.25610 0.20089 0.57735 0.05100
H 	H 	0.12003 0.15638 0.58697 0.09000
H 	H 	0.33065 0.14679 0.64109 0.05500
H 	H 	0.20347 0.13655 0.65572 -0.02500
C 	C 	0.71958 0.59486 0.60603 -0.14700
C 	C 	0.78105 0.66080 0.60376 0.01300
C 	C 	0.80347 0.71910 0.63438 0.01600
C 	C 	0.86504 0.78541 0.63326 -0.14700
H 	H 	0.76740 0.70951 0.65753 0.03500
H 	H 	0.68931 0.58189 0.63116 0.07200
H 	H 	0.90369 0.79334 0.61134 0.08700
H 	H 	0.81371 0.67204 0.57935 0.04600
C 	C 	0.91854 0.51199 0.95916 0.00900
C 	C 	0.98229 0.49909 0.94760 -0.07000
C 	C 	0.05110 0.53991 0.96448 0.06700
C 	C 	0.05712 0.59410 0.99314 -0.18400
C 	C 	0.99343 0.60806 0.00429 0.36800
C 	C 	0.92485 0.56756 0.98725 -0.15500
H 	H 	0.09955 0.52864 0.95554 0.03100
H 	H 	0.87650 0.57919 0.99605 0.10000
H 	H 	0.97853 0.45669 0.92589 0.06400
F 	F 	0.99735 0.65865 0.03248 -0.47600
C 	C 	0.47659 0.97339 0.98095 0.00400
C 	C 	0.52945 0.97032 0.95600 -0.07400
C 	C 	0.56778 0.03774 0.93577 0.07200
C 	C 	0.55388 0.10916 0.94034 -0.20600
C 	C 	0.50669 0.11461 0.96804 0.38700
C 	C 	0.46761 0.04665 0.98797 -0.15000
H 	H 	0.60557 0.03319 0.91532 0.02000
H 	H 	0.42874 0.05042 0.00801 0.10900
H 	H 	0.53928 0.91495 0.95151 0.05100
F 	F 	0.49739 0.18515 0.97501 -0.45700
C 	C 	0.39499 0.51831 0.99286 -0.00300
C 	C 	0.40141 0.44394 0.99981 -0.05200
C 	C 	0.44326 0.41470 0.97704 0.05500
C 	C 	0.47936 0.46009 0.94737 -0.19900
C 	C 	0.46848 0.53172 0.93900 0.38000
C 	C 	0.42602 0.56034 0.96154 -0.16200
H 	H 	0.45031 0.35859 0.98336 0.04500
H 	H 	0.42018 0.61726 0.95566 0.04800
H 	H 	0.37725 0.41082 0.02379 0.05200
F 	F 	0.50010 0.57427 0.90941 -0.46000
C 	C 	0.98914 0.17072 0.80358 -0.16200
C 	C 	0.94888 0.21251 0.79070 0.01000
C 	C 	0.89873 0.23419 0.81476 0.00700
C 	C 	0.85389 0.27025 0.80164 -0.14500
H 	H 	0.89574 0.21722 0.84313 0.03800
H 	H 	0.98797 0.15678 0.83224 0.08400
H 	H 	0.85826 0.29045 0.77378 0.06500
H 	H 	0.94896 0.22556 0.76195 0.03000
C 	C 	0.42392 0.18546 0.79795 -0.14400
C 	C 	0.37400 0.11016 0.79847 0.01000
C 	C 	0.30789 0.08739 0.77414 0.00700
C 	C 	0.24416 0.02915 0.78308 -0.13400
H 	H 	0.30822 0.12554 0.75117 0.01700
H 	H 	0.41598 0.22868 0.77924 0.06700
H 	H 	0.24382 0.98687 0.80422 0.07700
H 	H 	0.37923 0.06778 0.81844 0.04500
C 	C 	0.81618 0.61316 0.84802 -0.14900
C 	C 	0.85711 0.68492 0.86265 0.01500
C 	C 	0.89504 0.75399 0.83917 0.01000
C 	C 	0.85955 0.76994 0.81033 -0.15000
H 	H 	0.95205 0.79153 0.84552 0.04500
H 	H 	0.81388 0.60463 0.81879 0.08200
H 	H 	0.80136 0.73464 0.80531 0.06800
H 	H 	0.86597 0.69181 0.89179 0.04300
