data_crystal

_cell_length_a 35.12039
_cell_length_b 36.02584
_cell_length_c 35.34989
_cell_angle_alpha 95.56082
_cell_angle_beta  95.56184
_cell_angle_gamma 125.35899

_symmetry_space_group_name_	'P 1'
_symmetry_space_group_name_H-M	'P 1'

loop_
_symmetry_equiv_pos_as_xyz
  x,y,z

loop_
_atom_site_label
_atom_site_type_symbol
_atom_site_fract_x
_atom_site_fract_y
_atom_site_fract_z
_atom_site_charge
C 	C 	0.97802 0.03711 0.00270 0.03300
C 	C 	0.02644 0.06367 0.00046 -0.07200
C 	C 	0.04927 0.04234 0.99648 0.03000
C 	C 	0.02367 0.99444 0.99483 -0.07700
C 	C 	0.97531 0.96778 0.99700 0.03100
C 	C 	0.95254 0.98915 0.00103 -0.07100
H 	H 	0.04624 0.10075 0.00182 0.05100
H 	H 	0.04130 0.97792 0.99171 0.05000
H 	H 	0.91500 0.96848 0.00231 0.05100
C 	C 	0.94995 0.98777 0.45264 0.03000
C 	C 	0.99857 0.01281 0.45151 -0.07200
C 	C 	0.02115 0.99105 0.45321 0.02800
C 	C 	0.99495 0.94406 0.45588 -0.07300
C 	C 	0.94630 0.91881 0.45693 0.03100
C 	C 	0.92377 0.94067 0.45516 -0.07500
H 	H 	0.01876 0.04911 0.44928 0.04900
H 	H 	0.01241 0.92722 0.45728 0.04900
H 	H 	0.88623 0.92129 0.45622 0.05000
Cu	Cu	0.65641 0.28376 0.99993 0.92600
Cu	Cu	0.69908 0.28486 0.92081 0.86900
Cu	Cu	0.69002 0.35857 0.95031 0.89600
Cu	Cu	0.65744 0.37086 0.02235 0.89500
C 	C 	0.66474 0.31846 0.07965 0.32600
O 	O 	0.58682 0.25744 0.99511 -0.36500
C 	C 	0.67895 0.32755 0.86650 0.32800
O 	O 	0.69648 0.35602 0.00413 -0.63900
O 	O 	0.65470 0.28987 0.94466 -0.64100
O 	O 	0.68498 0.24928 0.00081 -0.36900
O 	O 	0.74004 0.29660 0.96657 -0.44300
O 	O 	0.64549 0.33864 0.06734 -0.39600
O 	O 	0.72771 0.42546 0.95974 -0.38400
C 	C 	0.72204 0.45073 0.98488 0.28800
C 	C 	0.56985 0.27784 0.97930 0.28400
O 	O 	0.59919 0.32103 0.97511 -0.39400
O 	O 	0.68720 0.43143 0.00474 -0.39200
O 	O 	0.66743 0.29003 0.05526 -0.36900
C 	C 	0.72522 0.26548 0.98878 0.28700
O 	O 	0.69405 0.36204 0.89534 -0.40000
O 	O 	0.67332 0.28930 0.87285 -0.43000
H 	H 	0.72971 0.37528 0.01848 0.16500
H 	H 	0.62260 0.27205 0.92835 0.17200
Cu	Cu	0.72652 0.32677 0.44202 0.92800
Cu	Cu	0.72553 0.29620 0.52639 0.86900
Cu	Cu	0.64809 0.29875 0.48903 0.89700
Cu	Cu	0.63380 0.31690 0.40979 0.89400
C 	C 	0.69000 0.30281 0.36016 0.32600
O 	O 	0.75016 0.39259 0.43894 -0.36400
C 	C 	0.67782 0.31769 0.57466 0.32700
O 	O 	0.65194 0.28521 0.43649 -0.64200
O 	O 	0.71879 0.33472 0.49624 -0.64200
O 	O 	0.76458 0.30228 0.44925 -0.37500
O 	O 	0.71613 0.25169 0.48563 -0.44300
O 	O 	0.66724 0.32139 0.36598 -0.39300
O 	O 	0.57935 0.25993 0.47870 -0.38500
C 	C 	0.55233 0.26114 0.45083 0.29200
C 	C 	0.72677 0.40883 0.44952 0.28400
O 	O 	0.68212 0.37999 0.45279 -0.39200
O 	O 	0.57067 0.28894 0.42555 -0.39600
O 	O 	0.72240 0.30932 0.38797 -0.37100
C 	C 	0.74730 0.26391 0.46287 0.28900
O 	O 	0.64399 0.30337 0.54445 -0.39600
O 	O 	0.71852 0.32518 0.57041 -0.43100
H 	H 	0.63389 0.25174 0.42568 0.16300
H 	H 	0.73600 0.36720 0.50979 0.17300
C 	C 	0.68889 0.32906 0.68342 0.00400
C 	C 	0.72129 0.36208 0.71624 -0.04100
C 	C 	0.71195 0.35382 0.75326 -0.04000
C 	C 	0.66988 0.31241 0.75783 0.00300
C 	C 	0.63710 0.27972 0.72500 -0.04100
C 	C 	0.64651 0.28792 0.68798 -0.04000
C 	C 	0.66260 0.30073 0.79672 0.01100
C 	C 	0.67437 0.33433 0.82854 -0.17400
C 	C 	0.70235 0.33510 0.64492 0.01000
C 	C 	0.66889 0.32251 0.61183 -0.17400
H 	H 	0.75433 0.39364 0.71310 0.03600
H 	H 	0.73820 0.37884 0.77834 0.03800
H 	H 	0.60483 0.24744 0.72819 0.03600
H 	H 	0.62173 0.26156 0.66295 0.03800
H 	H 	0.64795 0.26550 0.80039 0.03200
H 	H 	0.68257 0.36740 0.82375 0.08400
H 	H 	0.73894 0.34968 0.64257 0.03200
H 	H 	0.63432 0.31395 0.61505 0.08500
C 	C 	0.65429 0.27135 0.25171 0.00600
C 	C 	0.62738 0.28047 0.22797 -0.03900
C 	C 	0.63215 0.28347 0.18945 -0.03900
C 	C 	0.66489 0.27852 0.17437 0.00700
C 	C 	0.68982 0.26669 0.19733 -0.04000
C 	C 	0.68420 0.26261 0.23577 -0.03700
C 	C 	0.67249 0.28501 0.13432 0.01200
C 	C 	0.67279 0.31985 0.11937 -0.16600
C 	C 	0.64977 0.27018 0.29293 0.01200
C 	C 	0.68890 0.28685 0.32221 -0.16800
H 	H 	0.60298 0.28567 0.23951 0.03700
H 	H 	0.61051 0.28980 0.17137 0.04200
H 	H 	0.71377 0.26101 0.18555 0.03900
H 	H 	0.70259 0.25216 0.25279 0.03900
H 	H 	0.67688 0.26193 0.11640 0.04200
H 	H 	0.67336 0.34549 0.13889 0.07800
H 	H 	0.61714 0.26255 0.30100 0.02500
H 	H 	0.71858 0.28712 0.31560 0.08600
C 	C 	0.74968 0.45919 0.45538 -0.09200
C 	C 	0.78821 0.48795 0.43744 0.01700
C 	C 	0.80720 0.53481 0.44022 -0.07300
C 	C 	0.78798 0.55336 0.46095 0.04400
C 	C 	0.75044 0.52516 0.47975 -0.07300
C 	C 	0.73138 0.47827 0.47705 0.01500
C 	C 	0.80588 0.60101 0.46192 -0.03200
C 	C 	0.82117 0.64093 0.46251 0.00000
C 	C 	0.83934 0.68770 0.46283 -0.00700
C 	C 	0.85523 0.72769 0.46289 -0.02400
C 	C 	0.87487 0.77559 0.46280 0.02500
C 	C 	0.86244 0.78824 0.43014 -0.04800
C 	C 	0.88447 0.83506 0.42878 -0.03200
C 	C 	0.91913 0.86949 0.46007 -0.00600
C 	C 	0.93042 0.85668 0.49323 -0.03200
C 	C 	0.90838 0.80988 0.49456 -0.04800
H 	H 	0.80272 0.47382 0.42060 0.03700
H 	H 	0.83638 0.55649 0.42575 0.05000
H 	H 	0.73564 0.53937 0.49608 0.04900
H 	H 	0.70215 0.45675 0.49151 0.03100
H 	H 	0.83644 0.76191 0.40552 0.04300
H 	H 	0.87551 0.84460 0.40306 0.03700
H 	H 	0.95697 0.88301 0.51762 0.03700
H 	H 	0.91801 0.80035 0.51997 0.04300
C 	C 	0.92674 0.01124 0.45190 -0.00400
C 	C 	0.89164 0.99875 0.42018 -0.03300
C 	C 	0.87189 0.02307 0.41839 -0.04700
C 	C 	0.88708 0.05996 0.44829 0.02400
C 	C 	0.92158 0.07201 0.48023 -0.04800
C 	C 	0.94135 0.04774 0.48206 -0.03300
C 	C 	0.86757 0.08574 0.44611 -0.02400
C 	C 	0.85165 0.10769 0.44479 -0.00800
C 	C 	0.83321 0.13362 0.44390 -0.00000
C 	C 	0.81745 0.15578 0.44379 -0.03400
C 	C 	0.79842 0.18209 0.44453 0.04500
C 	C 	0.75133 0.16102 0.44915 -0.07600
C 	C 	0.73407 0.18742 0.45367 0.01800
C 	C 	0.76388 0.23523 0.45369 -0.09800
C 	C 	0.81055 0.25592 0.44757 0.01800
C 	C 	0.82777 0.22942 0.44312 -0.07500
H 	H 	0.88022 0.97071 0.39671 0.03700
H 	H 	0.84510 0.01347 0.39365 0.04300
H 	H 	0.93334 0.10035 0.50353 0.04200
H 	H 	0.96830 0.05754 0.50672 0.03700
H 	H 	0.72835 0.12437 0.45000 0.04800
H 	H 	0.69776 0.17084 0.45771 0.02700
H 	H 	0.83394 0.29272 0.44746 0.03200
H 	H 	0.86419 0.24591 0.43941 0.04900
C 	C 	0.50079 0.23465 0.45053 -0.09100
C 	C 	0.47693 0.19338 0.46524 0.01900
C 	C 	0.42825 0.16866 0.46535 -0.07400
C 	C 	0.40304 0.18491 0.45077 0.04600
C 	C 	0.42663 0.22595 0.43598 -0.07400
C 	C 	0.47530 0.25076 0.43584 0.01800
C 	C 	0.35296 0.15953 0.45107 -0.03300
C 	C 	0.31105 0.13826 0.45133 0.00000
C 	C 	0.26196 0.11343 0.45161 -0.00700
C 	C 	0.22004 0.09228 0.45180 -0.02400
C 	C 	0.16995 0.06705 0.45198 0.02500
C 	C 	0.13676 0.02994 0.42179 -0.04800
C 	C 	0.08813 0.00528 0.42204 -0.03200
C 	C 	0.07240 0.01759 0.45255 -0.00500
C 	C 	0.10571 0.05490 0.48268 -0.03200
C 	C 	0.15433 0.07955 0.48237 -0.04800
H 	H 	0.49599 0.18032 0.47636 0.03000
H 	H 	0.41017 0.13687 0.47676 0.04900
H 	H 	0.40734 0.23874 0.42471 0.04900
H 	H 	0.49323 0.28272 0.42472 0.03200
H 	H 	0.14860 0.02016 0.39816 0.04300
H 	H 	0.06268 0.97664 0.39859 0.03700
H 	H 	0.09392 0.06457 0.50640 0.03700
H 	H 	0.17981 0.10823 0.50579 0.04300
C 	C 	0.75033 0.50118 0.98642 -0.09400
C 	C 	0.75992 0.53081 0.02067 0.02100
C 	C 	0.78394 0.57827 0.02149 -0.06900
C 	C 	0.79861 0.59650 0.98816 0.04100
C 	C 	0.79013 0.56727 0.95419 -0.07300
C 	C 	0.76611 0.51976 0.95328 0.01900
C 	C 	0.82101 0.64494 0.98852 -0.03300
C 	C 	0.83974 0.68555 0.98913 -0.00100
C 	C 	0.86143 0.73306 0.99001 -0.00800
C 	C 	0.87994 0.77366 0.99082 -0.02400
C 	C 	0.90218 0.82218 0.99182 0.02100
C 	C 	0.90717 0.85007 0.02527 -0.04400
C 	C 	0.93024 0.89753 0.02672 -0.02800
C 	C 	0.94846 0.91735 0.99469 -0.01000
C 	C 	0.94273 0.88921 0.96100 -0.03200
C 	C 	0.91969 0.84177 0.95960 -0.04800
H 	H 	0.74852 0.51704 0.04657 0.02500
H 	H 	0.79068 0.60077 0.04792 0.04900
H 	H 	0.80153 0.58120 0.92834 0.04900
H 	H 	0.75885 0.49733 0.92662 0.03600
H 	H 	0.89361 0.83509 0.05025 0.04300
H 	H 	0.93457 0.91900 0.05287 0.03700
H 	H 	0.95651 0.90418 0.93607 0.03700
H 	H 	0.91579 0.82036 0.93360 0.04200
C 	C 	0.75031 0.24433 0.99563 -0.10800
C 	C 	0.74193 0.21859 0.02530 0.02800
C 	C 	0.76442 0.19710 0.03045 -0.08000
C 	C 	0.79543 0.20132 0.00611 0.05400
C 	C 	0.80435 0.22748 0.97696 -0.08500
C 	C 	0.78199 0.24889 0.97170 0.02100
C 	C 	0.81741 0.17802 0.01023 -0.03600
C 	C 	0.83683 0.15936 0.01224 0.00200
C 	C 	0.86027 0.13814 0.01292 -0.00700
C 	C 	0.88075 0.12048 0.01227 -0.02400
C 	C 	0.90561 0.09985 0.01019 0.02900
C 	C 	0.90911 0.07867 0.04022 -0.04900
C 	C 	0.93307 0.05843 0.03794 -0.03200
C 	C 	0.95362 0.05927 0.00558 -0.00200
C 	C 	0.95015 0.08062 0.97562 -0.03600
C 	C 	0.92625 0.10085 0.97795 -0.05300
H 	H 	0.71806 0.21516 0.04427 0.03500
H 	H 	0.75751 0.17703 0.05318 0.05200
H 	H 	0.82831 0.23088 0.95806 0.04800
H 	H 	0.78874 0.26842 0.94861 0.01300
H 	H 	0.89328 0.07782 0.06525 0.04300
H 	H 	0.93565 0.04213 0.06126 0.03800
H 	H 	0.96568 0.08123 0.95044 0.03700
H 	H 	0.92365 0.11717 0.95463 0.04200
C 	C 	0.51801 0.25445 0.97118 -0.09300
C 	C 	0.50018 0.28069 0.96946 0.01700
C 	C 	0.45160 0.25935 0.96734 -0.07400
C 	C 	0.42044 0.21169 0.96676 0.04600
C 	C 	0.43764 0.18498 0.96636 -0.07400
C 	C 	0.48622 0.20621 0.96845 0.01900
C 	C 	0.37168 0.19096 0.96975 -0.03400
C 	C 	0.33089 0.17375 0.97226 0.00000
C 	C 	0.28342 0.15375 0.97609 -0.00800
C 	C 	0.24302 0.13649 0.97998 -0.02300
C 	C 	0.19488 0.11544 0.98521 0.02000
C 	C 	0.16200 0.11208 0.95651 -0.04800
C 	C 	0.11464 0.08946 0.96075 -0.03200
C 	C 	0.09994 0.07001 0.99370 -0.01000
C 	C 	0.13318 0.07438 0.02279 -0.02800
C 	C 	0.18049 0.09702 0.01854 -0.04400
H 	H 	0.52409 0.31783 0.97115 0.02800
H 	H 	0.43844 0.28012 0.96731 0.04800
H 	H 	0.41361 0.14798 0.96547 0.04900
H 	H 	0.49923 0.18533 0.96885 0.03100
H 	H 	0.17294 0.12640 0.93072 0.04200
H 	H 	0.08920 0.08618 0.93811 0.03600
H 	H 	0.12217 0.05960 0.04838 0.03800
H 	H 	0.20580 0.09969 0.04091 0.04300
