data_crystal

_cell_length_a 18.54057
_cell_length_b 18.96192
_cell_length_c 34.79968
_cell_angle_alpha 95.47200
_cell_angle_beta  95.47231
_cell_angle_gamma 126.38437

_symmetry_space_group_name_	'P 1'
_symmetry_space_group_name_H-M	'P 1'

loop_
_symmetry_equiv_pos_as_xyz
  x,y,z

loop_
_atom_site_label
_atom_site_type_symbol
_atom_site_fract_x
_atom_site_fract_y
_atom_site_fract_z
_atom_site_charge
C 	C 	0.91104 0.00722 0.96574 0.05400
C 	C 	0.86447 0.91569 0.96622 -0.09600
C 	C 	0.91271 0.87975 0.96703 0.04900
C 	C 	0.00644 0.93503 0.96701 -0.09800
C 	C 	0.05207 0.02533 0.96563 0.05600
C 	C 	0.00442 0.06121 0.96479 -0.09000
H 	H 	0.79218 0.87350 0.96692 0.05600
H 	H 	0.04388 0.90771 0.96806 0.05800
H 	H 	0.04048 0.13167 0.96448 0.05900
C 	C 	0.94098 0.01855 0.48452 0.05600
C 	C 	0.03531 0.06156 0.48984 -0.09200
C 	C 	0.06785 0.01083 0.49032 0.05400
C 	C 	0.00640 0.91826 0.48751 -0.09900
C 	C 	0.91224 0.87523 0.48053 0.05000
C 	C 	0.87987 0.92534 0.47757 -0.09900
H 	H 	0.08288 0.13363 0.49383 0.05700
H 	H 	0.03183 0.87988 0.49057 0.05600
H 	H 	0.80698 0.89206 0.47218 0.05800
Cu	Cu	0.76817 0.35627 0.96266 0.92700
Cu	Cu	0.76123 0.29698 0.04852 0.87700
Cu	Cu	0.62095 0.30882 0.01102 0.89900
Cu	Cu	0.59545 0.34344 0.93051 0.90200
C 	C 	0.70078 0.31665 0.87926 0.34300
O 	O 	0.81927 0.48523 0.95964 -0.35900
C 	C 	0.67939 0.34679 0.09803 0.33700
O 	O 	0.62565 0.28043 0.95746 -0.63900
O 	O 	0.75561 0.37399 0.01793 -0.64000
O 	O 	0.82987 0.29861 0.96939 -0.37000
O 	O 	0.73157 0.20702 0.00676 -0.43400
O 	O 	0.66054 0.35399 0.88631 -0.37300
O 	O 	0.48969 0.23730 0.00098 -0.38400
C 	C 	0.43950 0.24033 0.97259 0.30200
C 	C 	0.77544 0.51716 0.96951 0.28900
O 	O 	0.69110 0.46260 0.97453 -0.39200
O 	O 	0.47578 0.29284 0.94668 -0.38600
O 	O 	0.75703 0.32090 0.90751 -0.37200
C 	C 	0.78959 0.22436 0.98353 0.29500
O 	O 	0.61459 0.32031 0.06756 -0.38900
O 	O 	0.75481 0.35753 0.09332 -0.38700
H 	H 	0.58814 0.21572 0.94663 0.17700
H 	H 	0.79158 0.43685 0.03162 0.18400
Cu	Cu	0.63018 0.21320 0.51030 0.92400
Cu	Cu	0.66953 0.19404 0.42031 0.87900
Cu	Cu	0.62688 0.32848 0.45640 0.91300
Cu	Cu	0.61460 0.36755 0.53999 0.90700
C 	C 	0.66314 0.28273 0.59299 0.34800
O 	O 	0.49604 0.15014 0.51462 -0.35700
C 	C 	0.63913 0.29824 0.37747 0.33500
O 	O 	0.68167 0.34640 0.51037 -0.63200
O 	O 	0.59927 0.20924 0.45362 -0.63400
O 	O 	0.71417 0.17819 0.50930 -0.35800
O 	O 	0.66518 0.10827 0.44498 -0.41800
O 	O 	0.61046 0.30601 0.58383 -0.37300
O 	O 	0.64256 0.43976 0.45899 -0.35700
C 	C 	0.68122 0.50387 0.49020 0.29500
C 	C 	0.45073 0.18026 0.50238 0.28200
O 	O 	0.49498 0.26322 0.49715 -0.39700
O 	O 	0.67175 0.48611 0.52591 -0.38500
O 	O 	0.67436 0.23809 0.56597 -0.36400
C 	C 	0.71818 0.13379 0.47909 0.29200
O 	O 	0.59244 0.30919 0.40004 -0.35100
O 	O 	0.70102 0.29051 0.39310 -0.43100
H 	H 	0.74866 0.39295 0.51668 0.16800
H 	H 	0.53353 0.16175 0.44313 0.16000
C 	C 	0.62403 0.23221 0.76996 -0.14400
C 	C 	0.70807 0.27728 0.75745 0.01300
C 	C 	0.78940 0.32537 0.78545 0.28300
C 	C 	0.78670 0.33282 0.82562 -0.05900
C 	C 	0.70282 0.29283 0.83806 -0.15200
C 	C 	0.62132 0.23991 0.81006 0.36400
C 	C 	0.71087 0.28252 0.71550 0.01300
F 	F 	0.87108 0.36758 0.77372 -0.42700
H 	H 	0.84997 0.37320 0.84697 0.08700
F 	F 	0.53959 0.19850 0.82171 -0.46000
H 	H 	0.56093 0.19413 0.74855 0.11700
C 	C 	0.67794 0.20632 0.68765 0.28400
C 	C 	0.66739 0.20794 0.64744 -0.05600
C 	C 	0.68920 0.28553 0.63478 -0.15000
C 	C 	0.72674 0.36305 0.66269 0.36500
C 	C 	0.73753 0.36146 0.70285 -0.14300
F 	F 	0.65345 0.12999 0.69954 -0.42700
H 	H 	0.63876 0.14786 0.62617 0.09000
F 	F 	0.75062 0.43929 0.65089 -0.45900
H 	H 	0.76365 0.42074 0.72415 0.11600
C 	C 	0.72350 0.41266 0.20828 -0.14900
C 	C 	0.63859 0.34530 0.21663 0.00700
C 	C 	0.56384 0.28718 0.18568 0.29600
C 	C 	0.57576 0.29212 0.14666 -0.06300
C 	C 	0.66257 0.35484 0.13827 -0.14800
C 	C 	0.73554 0.41773 0.16930 0.36600
C 	C 	0.63096 0.32913 0.25722 0.01300
F 	F 	0.48062 0.22346 0.19343 -0.42400
H 	H 	0.51857 0.24429 0.12302 0.08600
F 	F 	0.81860 0.48227 0.16168 -0.44900
H 	H 	0.78107 0.45891 0.23203 0.10800
C 	C 	0.62888 0.25863 0.26815 0.29100
C 	C 	0.62913 0.24749 0.30728 -0.06100
C 	C 	0.63135 0.30648 0.33587 -0.15400
C 	C 	0.63170 0.37615 0.32482 0.36900
C 	C 	0.63158 0.38734 0.28561 -0.15200
F 	F 	0.62890 0.20227 0.24100 -0.42600
H 	H 	0.62865 0.19352 0.31549 0.06700
F 	F 	0.63574 0.43493 0.35225 -0.44800
H 	H 	0.63360 0.44212 0.27742 0.11000
C 	C 	0.78338 0.62495 0.45518 -0.01900
C 	C 	0.73044 0.59702 0.48462 -0.09500
C 	C 	0.72933 0.65970 0.50961 0.10200
C 	C 	0.79214 0.75062 0.50900 -0.08100
C 	C 	0.84752 0.77890 0.48052 -0.01600
C 	C 	0.83886 0.71502 0.45183 0.04500
C 	C 	0.88975 0.74235 0.41816 -0.18400
H 	H 	0.78217 0.57668 0.43512 0.06100
H 	H 	0.79671 0.79950 0.53024 0.05100
C 	C 	0.66055 0.63055 0.53625 -0.20400
H 	H 	0.85742 0.68488 0.39344 0.08300
H 	H 	0.96123 0.76785 0.42819 0.06800
H 	H 	0.88946 0.79472 0.40649 0.07300
H 	H 	0.68553 0.62112 0.56411 0.08800
H 	H 	0.59327 0.56763 0.52174 0.08300
H 	H 	0.64961 0.68152 0.54353 0.07500
C 	C 	0.89875 0.10781 0.45666 -0.07600
C 	C 	0.90534 0.07039 0.48836 -0.01600
C 	C 	0.86161 0.06721 0.52002 0.04000
C 	C 	0.80048 0.08806 0.51657 -0.01600
C 	C 	0.78758 0.11812 0.48319 -0.10200
C 	C 	0.84257 0.13473 0.45446 0.08900
C 	C 	0.84134 0.18015 0.42137 -0.19400
H 	H 	0.93469 0.11297 0.43297 0.05200
H 	H 	0.76174 0.07930 0.53954 0.05300
C 	C 	0.87501 0.03580 0.55635 -0.17200
H 	H 	0.90284 0.20758 0.40791 0.07100
H 	H 	0.84109 0.23695 0.43234 0.03600
H 	H 	0.78011 0.13150 0.39817 0.05800
H 	H 	0.94665 0.05986 0.56406 0.07300
H 	H 	0.82841 0.96178 0.55120 0.06300
H 	H 	0.86035 0.06184 0.58197 0.07700
C 	C 	0.22177 0.08474 0.53034 -0.08200
C 	C 	0.16618 0.05406 0.49318 -0.01300
C 	C 	0.20266 0.05707 0.45900 0.03700
C 	C 	0.29497 0.09256 0.46258 -0.01700
C 	C 	0.35123 0.12543 0.49972 -0.10200
C 	C 	0.31393 0.11967 0.53393 0.09900
C 	C 	0.37308 0.15465 0.57422 -0.20900
H 	H 	0.19312 0.08103 0.55650 0.05500
H 	H 	0.32379 0.09711 0.43640 0.03600
C 	C 	0.14332 0.02206 0.41874 -0.16900
H 	H 	0.33188 0.13641 0.59777 0.08100
H 	H 	0.42258 0.22851 0.57912 0.07800
H 	H 	0.41069 0.12612 0.57696 0.09600
H 	H 	0.11033 0.05504 0.41530 0.07100
H 	H 	0.08979 0.94888 0.41481 0.06000
H 	H 	0.18343 0.03500 0.39501 0.07100
C 	C 	0.83730 0.66853 0.00396 -0.01800
C 	C 	0.81495 0.61128 0.96874 -0.10300
C 	C 	0.81657 0.64008 0.93257 0.09700
C 	C 	0.84121 0.72589 0.93234 -0.08200
C 	C 	0.86579 0.78393 0.96761 -0.01500
C 	C 	0.86216 0.75447 0.00369 0.03900
C 	C 	0.88719 0.81531 0.04196 -0.18000
H 	H 	0.83417 0.64573 0.03161 0.04200
H 	H 	0.84415 0.74868 0.90470 0.05300
C 	C 	0.78852 0.57847 0.89410 -0.20900
H 	H 	0.87191 0.77964 0.06708 0.07200
H 	H 	0.84775 0.84207 0.04048 0.06700
H 	H 	0.96126 0.87165 0.04783 0.07100
H 	H 	0.71446 0.52268 0.88926 0.07700
H 	H 	0.82776 0.55148 0.89435 0.09400
H 	H 	0.80149 0.61357 0.86886 0.08000
C 	C 	0.83859 0.07082 0.93637 -0.08500
C 	C 	0.86476 0.04909 0.96974 -0.01000
C 	C 	0.86372 0.08317 0.00741 0.03200
C 	C 	0.84191 0.14259 0.01132 -0.01300
C 	C 	0.81852 0.16667 0.97812 -0.11200
C 	C 	0.81438 0.12858 0.94020 0.10800
C 	C 	0.78583 0.15021 0.90385 -0.21400
H 	H 	0.83989 0.04500 0.90748 0.05900
H 	H 	0.84335 0.17042 0.04035 0.02400
C 	C 	0.88953 0.05925 0.04365 -0.16600
H 	H 	0.77510 0.10668 0.87670 0.08800
H 	H 	0.83957 0.22058 0.90182 0.10100
H 	H 	0.72061 0.14006 0.90483 0.09200
H 	H 	0.96281 0.08794 0.04784 0.06800
H 	H 	0.84750 0.98563 0.04058 0.05900
H 	H 	0.87813 0.08524 0.07050 0.06600
C 	C 	0.28121 0.13257 0.93546 -0.01600
C 	C 	0.34065 0.18776 0.97102 -0.10400
C 	C 	0.30501 0.19360 0.00435 0.10500
C 	C 	0.21026 0.13960 0.00209 -0.08300
C 	C 	0.15102 0.08339 0.96669 -0.01300
C 	C 	0.18653 0.08144 0.93283 0.03900
C 	C 	0.12377 0.02338 0.89415 -0.17100
H 	H 	0.30881 0.12915 0.90984 0.04600
H 	H 	0.18244 0.14124 0.02791 0.05500
C 	C 	0.36726 0.25628 0.04240 -0.20900
H 	H 	0.16173 0.03877 0.86951 0.07500
H 	H 	0.07174 0.03432 0.88726 0.07400
H 	H 	0.08903 0.95211 0.89572 0.06500
H 	H 	0.42233 0.32296 0.03677 0.08400
H 	H 	0.39784 0.22842 0.05762 0.09700
H 	H 	0.32950 0.26611 0.06244 0.08000
