data_crystal

_cell_length_a 24.63690
_cell_length_b 22.07227
_cell_length_c 31.72743
_cell_angle_alpha 104.00875
_cell_angle_beta  115.94783
_cell_angle_gamma 111.51981

_symmetry_space_group_name_	'P 1'
_symmetry_space_group_name_H-M	'P 1'

loop_
_symmetry_equiv_pos_as_xyz
  x,y,z

loop_
_atom_site_label
_atom_site_type_symbol
_atom_site_fract_x
_atom_site_fract_y
_atom_site_fract_z
_atom_site_charge
C 	C 	0.78861 0.53432 0.98338 0.00500
C 	C 	0.84129 0.53527 0.02645 -0.03700
C 	C 	0.82272 0.47635 0.03751 -0.06600
C 	C 	0.75160 0.41541 0.00521 0.06800
C 	C 	0.69860 0.41455 0.96205 -0.06400
C 	C 	0.71724 0.47368 0.95112 -0.03400
N 	N 	0.73428 0.35339 0.01573 -0.14400
C 	C 	0.55262 0.28012 0.02144 -0.00500
C 	C 	0.55624 0.22855 0.98877 -0.02500
C 	C 	0.61549 0.25161 0.98666 -0.06700
C 	C 	0.67179 0.32742 0.01694 0.06900
C 	C 	0.66883 0.37821 0.05114 -0.06900
C 	C 	0.60904 0.35496 0.05256 -0.03000
C 	C 	0.77083 0.20247 0.93886 -0.00700
C 	C 	0.80753 0.23696 0.99459 -0.00800
C 	C 	0.79324 0.28433 0.01931 -0.09000
C 	C 	0.74311 0.29880 0.98881 0.09200
C 	C 	0.70565 0.26359 0.93271 -0.07800
C 	C 	0.71979 0.21584 0.90797 -0.02400
H 	H 	0.86375 0.47737 0.07072 0.05000
H 	H 	0.64331 0.36810 0.93704 0.04300
H 	H 	0.67638 0.47225 0.91748 0.03200
H 	H 	0.51256 0.17063 0.96439 0.03100
H 	H 	0.61700 0.21055 0.96135 0.04500
H 	H 	0.71266 0.43601 0.07611 0.04800
H 	H 	0.60626 0.39525 0.07752 0.03100
H 	H 	0.84750 0.22733 0.01874 0.03100
H 	H 	0.82236 0.31130 0.06240 0.05500
H 	H 	0.66521 0.27245 0.90844 0.04700
H 	H 	0.69140 0.18959 0.86493 0.03000
C 	C 	0.69837 0.50660 0.44722 0.00500
C 	C 	0.74942 0.51877 0.49721 -0.02400
C 	C 	0.73608 0.46184 0.51063 -0.06900
C 	C 	0.67250 0.39166 0.47386 0.07600
C 	C 	0.62049 0.37988 0.42411 -0.06900
C 	C 	0.63321 0.43739 0.41118 -0.02900
N 	N 	0.66422 0.33093 0.48564 -0.14100
C 	C 	0.46469 0.20092 0.46142 0.00300
C 	C 	0.50241 0.16856 0.45652 -0.02600
C 	C 	0.56853 0.21120 0.46572 -0.07000
C 	C 	0.59569 0.28606 0.47680 0.07400
C 	C 	0.56043 0.31957 0.48651 -0.06900
C 	C 	0.49457 0.27680 0.47752 -0.02900
C 	C 	0.73540 0.21060 0.42265 0.00400
C 	C 	0.77902 0.26259 0.47708 -0.02700
C 	C 	0.75561 0.30253 0.49733 -0.06800
C 	C 	0.68853 0.29105 0.46345 0.07700
C 	C 	0.64615 0.24142 0.40826 -0.07100
C 	C 	0.66963 0.20136 0.38806 -0.02600
H 	H 	0.77634 0.47128 0.54888 0.04900
H 	H 	0.57046 0.32640 0.39569 0.04600
H 	H 	0.59318 0.42771 0.37271 0.03300
H 	H 	0.48072 0.11046 0.44590 0.03300
H 	H 	0.59866 0.18618 0.46471 0.04900
H 	H 	0.58406 0.37871 0.50108 0.04800
H 	H 	0.46681 0.30271 0.48330 0.03500
H 	H 	0.82996 0.27005 0.50402 0.03800
H 	H 	0.78896 0.34149 0.53961 0.05000
H 	H 	0.59401 0.23166 0.38165 0.04500
H 	H 	0.63564 0.16129 0.34596 0.03100
C 	C 	0.36119 0.55715 0.98929 0.00600
H 	H 	0.35142 0.53696 0.91542 0.03200
C 	C 	0.30674 0.54388 0.49195 0.00200
H 	H 	0.34834 0.51726 0.44755 0.03300
Zn	Zn	0.18092 0.18101 0.00817 1.18600
Zn	Zn	0.07281 0.09854 0.88404 1.19100
O 	O 	0.03933 0.06049 0.80629 -0.45300
C 	C 	0.28263 0.16941 0.99431 0.32300
C 	C 	0.18606 0.26402 0.94935 0.32900
O 	O 	0.27616 0.20108 0.03101 -0.47100
O 	O 	0.22471 0.11573 0.94683 -0.34300
O 	O 	0.08601 0.11683 0.95537 -0.78700
O 	O 	0.14701 0.20082 0.90436 -0.44700
O 	O 	0.19109 0.26496 0.99259 -0.46500
O 	O 	0.92922 0.02769 0.91150 -0.45400
Zn	Zn	0.00402 0.05913 0.02398 1.18900
C 	C 	0.91977 0.07292 0.93912 0.33100
O 	O 	0.04411 0.07138 0.09541 -0.46400
O 	O 	0.95043 0.09527 0.99020 -0.48400
O 	O 	0.05926 0.03320 0.00873 -0.91500
H 	H 	0.11147 0.06554 0.03749 0.15900
Zn	Zn	0.13044 0.12176 0.47711 1.18000
Zn	Zn	0.01700 0.07918 0.36709 1.18300
O 	O 	0.98899 0.05070 0.29102 -0.44000
C 	C 	0.19633 0.07913 0.43260 0.31400
C 	C 	0.14655 0.23788 0.44301 0.32600
O 	O 	0.20545 0.10912 0.47818 -0.47100
O 	O 	0.13295 0.04653 0.38763 -0.36400
O 	O 	0.03509 0.08580 0.43770 -0.80700
O 	O 	0.08846 0.18621 0.39390 -0.45500
O 	O 	0.16842 0.22214 0.48258 -0.47100
O 	O 	0.87791 0.01424 0.39509 -0.46400
Zn	Zn	0.94543 0.02414 0.50211 1.19900
C 	C 	0.87253 0.05896 0.42692 0.32900
O 	O 	0.98433 0.02567 0.57065 -0.46700
O 	O 	0.90213 0.07351 0.47682 -0.49600
O 	O 	0.99367 0.99259 0.48073 -0.84400
H 	H 	0.04579 0.01906 0.50882 0.10900
C 	C 	0.07461 0.07651 0.19745 0.17300
C 	C 	0.05606 0.07325 0.23306 -0.03400
H 	H 	0.08417 0.12291 0.27014 0.05700
Cl	Cl	0.14702 0.16048 0.21569 -0.37200
C 	C 	0.18625 0.31618 0.45489 -0.11500
C 	C 	0.18523 0.33366 0.41474 0.10400
C 	C 	0.21841 0.40840 0.42639 -0.09600
C 	C 	0.26272 0.46590 0.47938 0.00500
C 	C 	0.26863 0.44826 0.52048 0.03100
C 	C 	0.22872 0.37376 0.50770 -0.01600
H 	H 	0.21405 0.42146 0.39469 0.05000
H 	H 	0.23277 0.36067 0.53931 0.03400
N 	N 	0.15976 0.27674 0.36482 -0.13800
N 	N 	0.32042 0.50527 0.57563 -0.13700
C 	C 	0.22029 0.27646 0.36700 -0.09700
H 	H 	0.25950 0.33088 0.37464 0.05100
H 	H 	0.20041 0.23330 0.32822 0.06700
H 	H 	0.24765 0.26332 0.39862 0.05400
C 	C 	0.28590 0.51486 0.60215 -0.09000
H 	H 	0.23871 0.51695 0.57696 0.04200
H 	H 	0.26864 0.46910 0.61162 0.03500
H 	H 	0.13176 0.28514 0.33318 0.07700
H 	H 	0.35784 0.49274 0.59595 0.07200
H 	H 	0.73681 0.05777 0.60384 0.05400
H 	H 	0.79124 0.04976 0.58193 0.06700
C 	C 	0.23169 0.33386 0.95335 -0.11500
C 	C 	0.20104 0.36253 0.92154 0.10400
C 	C 	0.24470 0.43438 0.93148 -0.09600
C 	C 	0.31844 0.47753 0.97296 0.00900
C 	C 	0.34979 0.44644 0.00188 0.02400
C 	C 	0.30605 0.37529 0.99259 -0.00500
H 	H 	0.22074 0.45746 0.90819 0.04800
H 	H 	0.32997 0.35256 0.01629 0.03300
N 	N 	0.12513 0.31921 0.87991 -0.14700
N 	N 	0.42628 0.48789 0.04133 -0.13500
C 	C 	0.08774 0.34510 0.89697 -0.08800
H 	H 	0.10007 0.34575 0.93528 0.04200
H 	H 	0.02892 0.30656 0.86623 0.03000
H 	H 	0.10301 0.40163 0.90170 0.03700
C 	C 	0.46013 0.46171 0.02009 -0.09600
H 	H 	0.44234 0.40342 0.01171 0.04500
H 	H 	0.51931 0.49723 0.05008 0.04300
H 	H 	0.44733 0.46566 0.98299 0.05100
H 	H 	0.11563 0.32161 0.84499 0.07100
H 	H 	0.43817 0.48374 0.07608 0.07000
H 	H 	0.39201 0.06372 0.97648 0.05400
C 	C 	0.82283 0.08206 0.40444 -0.11500
C 	C 	0.84681 0.14737 0.40036 0.09900
C 	C 	0.81192 0.18559 0.39968 -0.09200
C 	C 	0.75427 0.15917 0.40383 0.00200
C 	C 	0.72463 0.08880 0.40055 0.04100
C 	C 	0.75859 0.05002 0.40000 -0.04300
H 	H 	0.83274 0.23821 0.39968 0.05200
H 	H 	0.73833 0.99803 0.40078 0.05700
N 	N 	0.90793 0.17589 0.39839 -0.15700
N 	N 	0.66424 0.06035 0.40333 -0.14800
C 	C 	0.97271 0.23752 0.45055 -0.05000
H 	H 	0.96735 0.28561 0.46221 0.04100
H 	H 	0.01937 0.25561 0.44833 0.00900
H 	H 	0.98375 0.21977 0.48172 0.04100
H 	H 	0.58823 0.01864 0.32048 0.02400
H 	H 	0.89798 0.19297 0.36924 0.07300
H 	H 	0.67440 0.04223 0.43192 0.06800
C 	C 	0.25905 0.09076 0.43216 -0.11300
C 	C 	0.26467 0.10323 0.39220 0.09700
C 	C 	0.33243 0.13864 0.40190 -0.09400
C 	C 	0.39306 0.15522 0.44860 0.00400
C 	C 	0.38556 0.13310 0.48477 0.03200
C 	C 	0.31833 0.10051 0.47619 -0.01700
H 	H 	0.33800 0.15415 0.37343 0.05300
H 	H 	0.31310 0.08597 0.50508 0.03400
N 	N 	0.20186 0.08214 0.34257 -0.13100
N 	N 	0.44688 0.14556 0.53103 -0.13600
C 	C 	0.18862 0.02703 0.29655 -0.14900
H 	H 	0.22266 0.05470 0.28457 0.05900
C 	C 	0.47642 0.21195 0.57861 -0.09000
H 	H 	0.49185 0.26150 0.57260 0.04900
H 	H 	0.52545 0.22210 0.61309 0.04300
H 	H 	0.43704 0.20454 0.58840 0.04000
H 	H 	0.20738 0.12914 0.33835 0.08000
H 	H 	0.43288 0.09916 0.53702 0.06700
C 	C 	0.86657 0.08995 0.91164 -0.11500
C 	C 	0.89038 0.16021 0.91446 0.10500
C 	C 	0.85135 0.19320 0.91470 -0.08900
C 	C 	0.79037 0.15711 0.91380 0.00200
C 	C 	0.75979 0.08149 0.90099 0.04100
C 	C 	0.79770 0.04793 0.89886 -0.03700
H 	H 	0.87222 0.24949 0.92072 0.05600
H 	H 	0.77672 0.99155 0.89261 0.06100
N 	N 	0.95688 0.19996 0.92063 -0.13900
N 	N 	0.69016 0.03822 0.88972 -0.13800
C 	C 	0.01459 0.25895 0.97587 -0.11300
H 	H 	0.00606 0.30505 0.98558 0.03600
H 	H 	0.06659 0.28129 0.98087 0.03800
H 	H 	0.01828 0.23725 0.00453 0.03300
H 	H 	0.95025 0.22222 0.89445 0.07600
H 	H 	0.65717 0.05751 0.87385 0.07100
H 	H 	0.80870 0.53052 0.90639 0.05300
C 	C 	0.35296 0.20184 0.00323 -0.12100
C 	C 	0.36249 0.22545 0.96817 0.10600
C 	C 	0.42877 0.25259 0.97545 -0.09000
C 	C 	0.48583 0.25736 0.01774 -0.00200
C 	C 	0.47771 0.23825 0.05505 0.03200
C 	C 	0.41098 0.20995 0.04713 -0.01100
H 	H 	0.43588 0.27010 0.94815 0.05000
H 	H 	0.40422 0.19376 0.07500 0.03600
N 	N 	0.30561 0.22515 0.92665 -0.14100
N 	N 	0.53743 0.24977 0.10209 -0.13800
C 	C 	0.27177 0.16473 0.87421 -0.09500
H 	H 	0.30910 0.17536 0.86223 0.05300
H 	H 	0.22324 0.16071 0.84407 0.06700
H 	H 	0.25472 0.11075 0.87444 0.07800
C 	C 	0.54135 0.18378 0.09215 -0.09000
H 	H 	0.49315 0.13676 0.08348 0.04200
H 	H 	0.58933 0.19548 0.12848 0.04200
H 	H 	0.54597 0.16793 0.05843 0.04300
H 	H 	0.32537 0.27620 0.92694 0.07700
H 	H 	0.58620 0.29702 0.11733 0.07600
C 	C 	0.37279 0.57862 0.95433 -0.03100
C 	C 	0.34698 0.56055 0.47115 -0.02900
Zn	Zn	0.03281 0.01550 0.93817 1.20500
Zn	Zn	0.96910 0.98401 0.41237 1.22500
H 	H 	0.70431 0.49417 0.36281 0.05200
C 	C 	0.69629 0.03520 0.93708 -0.11700
H 	H 	0.71829 0.09069 0.96832 0.05300
H 	H 	0.73089 0.01419 0.95361 0.05400
C 	C 	0.04477 0.01748 0.10591 0.32300
C 	C 	0.04522 0.00865 0.78132 0.29100
C 	C 	0.99544 0.00062 0.26473 0.38800
C 	C 	0.94539 0.96763 0.63757 0.16500
C 	C 	0.96296 0.98170 0.68864 -0.01300
H 	H 	0.92628 0.98407 0.69814 0.05900
Cl	Cl	0.86181 0.94937 0.58867 -0.35100
C 	C 	0.03791 0.01211 0.14892 -0.15400
C 	C 	0.00430 0.00537 0.22246 -0.20400
H 	H 	0.67804 0.01739 0.50821 0.05800
H 	H 	0.13154 0.99705 0.26233 0.09300
C 	C 	0.98343 0.96841 0.57663 0.35200
C 	C 	0.02717 0.99185 0.72730 -0.12700
H 	H 	0.76560 0.99435 0.49179 0.04500
C 	C 	0.74099 0.01804 0.57829 -0.13600
H 	H 	0.89668 0.58159 0.05118 0.04200
H 	H 	0.80021 0.57181 0.52511 0.04100
C 	C 	0.71590 0.56420 0.43097 0.00500
H 	H 	0.69550 0.59425 0.98378 0.04900
C 	C 	0.72033 0.54960 0.38738 -0.09300
H 	H 	0.61313 0.60332 0.44920 0.04800
H 	H 	0.92870 0.59204 0.91096 0.04900
H 	H 	0.32504 0.56810 0.64020 0.04200
C 	C 	0.38907 0.61167 0.03957 -0.03000
H 	H 	0.37993 0.59562 0.06668 0.03400
H 	H 	0.27282 0.58864 0.53689 0.03500
H 	H 	0.81228 0.54036 0.35489 0.04800
H 	H 	0.70812 0.54319 0.29900 0.07200
C 	C 	0.80928 0.59460 0.97006 0.00800
C 	C 	0.82034 0.58419 0.92979 -0.09500
H 	H 	0.82071 0.58236 0.84637 0.07200
C 	C 	0.59893 0.99980 0.35108 -0.04700
C 	C 	0.30666 0.60104 0.52314 -0.02400
C 	C 	0.41153 0.65403 0.96941 -0.06700
C 	C 	0.38406 0.63271 0.47951 -0.07100
H 	H 	0.81976 0.64883 0.06106 0.08400
H 	H 	0.42318 0.02247 0.94406 0.04400
H 	H 	0.65217 0.66054 0.51812 0.04700
C 	C 	0.73300 0.65451 0.01304 -0.09900
C 	C 	0.93093 0.63798 0.90163 -0.09300
H 	H 	0.94191 0.63334 0.87097 0.04800
H 	H 	0.41876 0.66992 0.94165 0.04400
H 	H 	0.41136 0.64315 0.46066 0.04700
C 	C 	0.73516 0.63587 0.46199 0.03800
C 	C 	0.74871 0.60724 0.37693 0.10700
N 	N 	0.72486 0.64985 0.50378 -0.13700
N 	N 	0.75472 0.59247 0.33295 -0.14400
C 	C 	0.66166 0.65468 0.48666 -0.09100
C 	C 	0.81769 0.58803 0.34711 -0.09300
H 	H 	0.82281 0.57990 0.31342 0.04700
C 	C 	0.84896 0.64363 0.92090 0.11000
N 	N 	0.86276 0.63341 0.88091 -0.14500
H 	H 	0.72277 0.66631 0.04393 0.05400
C 	C 	0.99352 0.96636 0.62531 -0.06600
H 	H 	0.19921 0.98514 0.30517 0.07500
H 	H 	0.55261 0.98203 0.35368 0.04300
H 	H 	0.60333 0.95121 0.33850 0.03900
H 	H 	0.09255 0.97053 0.65323 0.06900
C 	C 	0.39875 0.01634 0.96623 -0.10100
H 	H 	0.43587 0.01812 0.00333 0.03700
C 	C 	0.07277 0.98477 0.71359 0.19100
C 	C 	0.05592 0.97268 0.66284 -0.09200
Cl	Cl	0.15181 0.99245 0.75958 -0.35100
H 	H 	0.74371 0.97797 0.59335 0.08600
H 	H 	0.30049 0.92913 0.57896 0.04800
H 	H 	0.22501 0.97049 0.91063 0.04700
N 	N 	0.32926 0.94571 0.93251 -0.12700
H 	H 	0.33476 0.90082 0.92168 0.07900
H 	H 	0.97587 0.69235 0.93809 0.06200
C 	C 	0.42838 0.68697 0.05489 -0.06900
C 	C 	0.43943 0.70875 0.01993 0.07100
N 	N 	0.47752 0.78697 0.03572 -0.14200
C 	C 	0.63601 0.85671 0.00521 -0.00500
C 	C 	0.57281 0.85476 0.97515 -0.02200
C 	C 	0.51986 0.83060 0.98408 -0.06800
C 	C 	0.53072 0.81040 0.02467 0.07400
C 	C 	0.59437 0.81317 0.05496 -0.06900
C 	C 	0.64617 0.83499 0.04471 -0.02400
C 	C 	0.35236 0.88323 0.00601 -0.00500
C 	C 	0.42189 0.92281 0.05324 -0.02600
C 	C 	0.46256 0.89071 0.06277 -0.06900
C 	C 	0.43413 0.81876 0.02524 0.07400
C 	C 	0.36426 0.77923 0.97768 -0.07000
C 	C 	0.32336 0.81096 0.96868 -0.02600
H 	H 	0.44950 0.72860 0.09371 0.04500
H 	H 	0.56399 0.87028 0.94397 0.03400
H 	H 	0.47024 0.82650 0.95896 0.04800
H 	H 	0.60307 0.79727 0.08594 0.04500
H 	H 	0.69347 0.83355 0.06672 0.03800
H 	H 	0.44441 0.97841 0.08250 0.03700
H 	H 	0.51628 0.92169 0.09929 0.05000
H 	H 	0.34212 0.72478 0.94738 0.04600
H 	H 	0.26940 0.77977 0.93233 0.03100
C 	C 	0.34921 0.67433 0.53580 -0.07000
C 	C 	0.38549 0.69057 0.51212 0.07500
N 	N 	0.41861 0.76497 0.51836 -0.14100
C 	C 	0.57059 0.82728 0.48131 0.00500
C 	C 	0.49825 0.79805 0.44218 -0.02800
C 	C 	0.44772 0.77581 0.45357 -0.07000
C 	C 	0.46950 0.78445 0.50494 0.07600
C 	C 	0.54175 0.81304 0.54378 -0.06900
C 	C 	0.59194 0.83354 0.53186 -0.02500
C 	C 	0.27013 0.83169 0.46972 -0.00200
C 	C 	0.34229 0.88394 0.51280 -0.02600
C 	C 	0.39139 0.86216 0.52784 -0.06900
C 	C 	0.36931 0.78868 0.49877 0.07700
C 	C 	0.29814 0.73803 0.45266 -0.07200
C 	C 	0.24864 0.75922 0.43888 -0.02900
H 	H 	0.35009 0.71810 0.56112 0.04900
H 	H 	0.48102 0.79154 0.40268 0.03400
H 	H 	0.39175 0.75100 0.42240 0.04700
H 	H 	0.55884 0.81893 0.58310 0.04900
H 	H 	0.64714 0.85336 0.56164 0.04000
H 	H 	0.36017 0.94116 0.53487 0.03500
H 	H 	0.44638 0.90200 0.56252 0.05200
H 	H 	0.28114 0.68222 0.42806 0.04600
H 	H 	0.19354 0.71934 0.40429 0.03100
O 	O 	0.06516 0.97040 0.80337 -0.44900
O 	O 	0.08304 0.90177 0.89020 -0.51300
O 	O 	0.00741 0.99801 0.86758 -0.89100
O 	O 	0.13674 0.00805 0.96506 -0.46800
Zn	Zn	0.88491 0.87078 0.89202 1.17900
Zn	Zn	0.01653 0.93258 0.99825 1.18700
C 	C 	0.89915 0.77746 0.94560 0.33300
C 	C 	0.84007 0.91831 0.95276 0.32900
O 	O 	0.96831 0.82803 0.98139 -0.44400
O 	O 	0.86086 0.77949 0.90170 -0.45800
O 	O 	0.82009 0.88992 0.90328 -0.47100
O 	O 	0.90645 0.94453 0.99190 -0.46200
O 	O 	0.98011 0.91384 0.92147 -0.76900
O 	O 	0.04645 0.96535 0.07618 -0.42200
Zn	Zn	0.03598 0.93569 0.84616 1.18200
C 	C 	0.13593 0.95001 0.94043 0.34900
H 	H 	0.95609 0.97835 0.84143 0.18400
O 	O 	0.00672 0.95477 0.28176 -0.47500
O 	O 	0.99525 0.85674 0.34806 -0.46200
O 	O 	0.94566 0.97669 0.34394 -0.85000
O 	O 	0.06030 0.95703 0.42966 -0.46300
Zn	Zn	0.81156 0.84879 0.36233 1.17800
Zn	Zn	0.94135 0.88975 0.46277 1.19300
C 	C 	0.81215 0.74247 0.40538 0.33200
C 	C 	0.77508 0.89732 0.42965 0.32800
O 	O 	0.88272 0.78386 0.43870 -0.45600
O 	O 	0.77712 0.75196 0.36471 -0.45300
O 	O 	0.75476 0.87574 0.38014 -0.47800
O 	O 	0.83938 0.91503 0.46657 -0.45300
O 	O 	0.90453 0.88155 0.38821 -0.79100
O 	O 	0.97709 0.91487 0.54106 -0.42300
Zn	Zn	0.96350 0.90843 0.31406 1.19800
C 	C 	0.04959 0.89573 0.39865 0.29700
H 	H 	0.89563 0.96262 0.31980 0.15600
C 	C 	0.96847 0.94067 0.17440 0.22900
C 	C 	0.98558 0.94430 0.13809 -0.01200
H 	H 	0.95623 0.89485 0.10048 0.06700
Cl	Cl	0.89930 0.85541 0.15782 -0.38800
C 	C 	0.72020 0.87967 0.44023 -0.10600
C 	C 	0.66511 0.80531 0.41720 0.10700
C 	C 	0.61753 0.78887 0.43188 -0.09200
C 	C 	0.62286 0.84599 0.46790 0.00900
C 	C 	0.67608 0.92059 0.48931 0.04300
C 	C 	0.72464 0.93701 0.47536 -0.00300
H 	H 	0.57606 0.73153 0.41491 0.04900
N 	N 	0.65779 0.74629 0.37899 -0.14300
N 	N 	0.67811 0.97972 0.52287 -0.11300
C 	C 	0.59988 0.72180 0.32448 -0.08900
H 	H 	0.54698 0.69584 0.31823 0.04100
H 	H 	0.59860 0.67991 0.29575 0.04200
H 	H 	0.60907 0.76920 0.31594 0.04900
H 	H 	0.64745 0.70141 0.38675 0.07800
C 	C 	0.21748 0.85357 0.45498 0.00400
C 	C 	0.18018 0.85056 0.47885 0.03100
C 	C 	0.12577 0.86518 0.46033 -0.01200
C 	C 	0.10663 0.88041 0.41748 -0.11800
C 	C 	0.14283 0.88208 0.39317 0.10700
C 	C 	0.19943 0.87080 0.41311 -0.09300
H 	H 	0.09762 0.86350 0.47885 0.01700
H 	H 	0.22807 0.87341 0.39494 0.05400
N 	N 	0.19587 0.83103 0.52108 -0.13900
N 	N 	0.12317 0.89730 0.34893 -0.14700
C 	C 	0.24904 0.89731 0.57366 -0.09100
H 	H 	0.25952 0.88039 0.60519 0.04700
H 	H 	0.22842 0.93358 0.57901 0.04600
C 	C 	0.08157 0.82935 0.29840 -0.09400
H 	H 	0.11511 0.80729 0.29710 0.04200
H 	H 	0.06274 0.84203 0.26487 0.04900
H 	H 	0.03356 0.78627 0.29258 0.04200
H 	H 	0.21139 0.79296 0.51737 0.07600
H 	H 	0.16932 0.93628 0.35469 0.09000
C 	C 	0.68787 0.87396 0.99140 0.01900
C 	C 	0.75729 0.93897 0.02707 0.02500
C 	C 	0.80506 0.95484 0.01245 0.01100
C 	C 	0.78549 0.90466 0.96381 -0.11900
C 	C 	0.71595 0.83915 0.92832 0.11100
C 	C 	0.66726 0.82518 0.94198 -0.10000
H 	H 	0.85767 0.00601 0.03923 0.01800
H 	H 	0.61372 0.77531 0.91445 0.05200
N 	N 	0.77814 0.99049 0.07727 -0.12700
N 	N 	0.69534 0.78584 0.87891 -0.14200
C 	C 	0.83395 0.99243 0.12238 -0.05000
H 	H 	0.81770 0.93555 0.11708 0.06000
H 	H 	0.84233 0.02535 0.15969 0.03400
H 	H 	0.88572 0.01911 0.12707 0.04300
C 	C 	0.69551 0.72112 0.88267 -0.09200
H 	H 	0.74761 0.73864 0.91834 0.05800
H 	H 	0.68796 0.68534 0.84668 0.04600
H 	H 	0.65116 0.68798 0.88482 0.04200
H 	H 	0.79612 0.04360 0.08076 0.06200
H 	H 	0.64463 0.76948 0.84724 0.07300
C 	C 	0.30809 0.91561 0.99682 0.00900
C 	C 	0.29209 0.93882 0.95743 0.03600
C 	C 	0.23869 0.95482 0.94189 -0.00200
C 	C 	0.20093 0.94794 0.96488 -0.12500
C 	C 	0.22076 0.93092 0.00706 0.10700
C 	C 	0.27477 0.91532 0.02313 -0.09600
H 	H 	0.28834 0.89962 0.05436 0.05200
N 	N 	0.18478 0.92779 0.03278 -0.15800
C 	C 	0.12938 0.85093 0.01170 -0.10000
H 	H 	0.08775 0.82574 0.96823 0.03600
H 	H 	0.10287 0.85015 0.03242 0.03500
H 	H 	0.15313 0.81706 0.01864 0.04300
H 	H 	0.22181 0.95261 0.07421 0.07400
C 	C 	0.76539 0.69379 0.45247 -0.01600
C 	C 	0.77284 0.67986 0.41047 -0.11000
H 	H 	0.78320 0.74970 0.47786 0.04900
H 	H 	0.67004 0.70390 0.48045 0.05100
H 	H 	0.86744 0.64047 0.38291 0.06100
H 	H 	0.77057 0.69875 0.53860 0.08100
H 	H 	0.64220 0.99628 0.92568 0.06500
C 	C 	0.82415 0.66467 0.00031 0.02700
C 	C 	0.85353 0.72388 0.99175 0.00500
C 	C 	0.86598 0.71375 0.95231 -0.12000
H 	H 	0.86524 0.77760 0.01510 0.04000
N 	N 	0.80773 0.67585 0.03881 -0.12500
H 	H 	0.72235 0.68738 0.99253 0.05700
