data_crystal

_cell_length_a 32.03961
_cell_length_b 29.00410
_cell_length_c 48.91061
_cell_angle_alpha 103.61484
_cell_angle_beta  115.75186
_cell_angle_gamma 112.55806

_symmetry_space_group_name_	'P 1'
_symmetry_space_group_name_H-M	'P 1'

loop_
_symmetry_equiv_pos_as_xyz
  x,y,z

loop_
_atom_site_label
_atom_site_type_symbol
_atom_site_fract_x
_atom_site_fract_y
_atom_site_fract_z
_atom_site_charge
H 	H 	0.60026 0.19796 0.92929 0.05000
H 	H 	0.58550 0.19002 0.42145 0.05000
Zn	Zn	0.13450 0.11542 0.98520 1.18500
Zn	Zn	0.04023 0.06889 0.91025 1.19600
O 	O 	0.01342 0.04366 0.86003 -0.44900
C 	C 	0.19165 0.08904 0.96036 0.30500
C 	C 	0.13683 0.19338 0.95530 0.31700
O 	O 	0.19792 0.11570 0.98898 -0.46400
O 	O 	0.14200 0.05836 0.93074 -0.34900
O 	O 	0.05920 0.07731 0.95762 -0.78100
O 	O 	0.09681 0.14820 0.92413 -0.45400
O 	O 	0.15324 0.18861 0.98376 -0.46300
C 	C 	0.94099 0.05776 0.95389 0.32500
O 	O 	0.96630 0.07200 0.98681 -0.49200
C 	C 	0.02538 0.01156 0.84531 0.32300
Zn	Zn	0.13095 0.11565 0.48418 1.18600
Zn	Zn	0.03675 0.06776 0.40893 1.19700
O 	O 	0.01009 0.04200 0.35869 -0.44800
C 	C 	0.18810 0.08975 0.45931 0.30600
C 	C 	0.13259 0.19257 0.45362 0.31700
O 	O 	0.19462 0.11671 0.48796 -0.46400
O 	O 	0.13816 0.05814 0.42986 -0.35000
O 	O 	0.05562 0.07675 0.45637 -0.78100
O 	O 	0.09306 0.14703 0.42255 -0.45400
O 	O 	0.14868 0.18833 0.48223 -0.46300
C 	C 	0.93713 0.05617 0.45244 0.32500
O 	O 	0.96290 0.07118 0.48548 -0.49400
C 	C 	0.02235 0.00998 0.34422 0.32300
H 	H 	0.03097 0.08224 0.73176 0.03800
C 	C 	0.03612 0.01484 0.76163 0.02900
C 	C 	0.99068 0.01116 0.76101 -0.07200
C 	C 	0.98812 0.01224 0.78897 0.01700
C 	C 	0.03062 0.01628 0.81754 -0.10300
C 	C 	0.07672 0.02144 0.81855 0.02300
C 	C 	0.07958 0.02100 0.79080 -0.07000
H 	H 	0.95240 0.00829 0.78797 0.02100
H 	H 	0.11016 0.02542 0.84074 0.03400
H 	H 	0.11527 0.02482 0.79180 0.04800
C 	C 	0.03376 0.01274 0.26069 0.02900
C 	C 	0.02783 0.01455 0.31650 -0.10300
C 	C 	0.07406 0.01971 0.31770 0.02300
C 	C 	0.07713 0.01907 0.29000 -0.07000
H 	H 	0.10743 0.02383 0.34001 0.03300
H 	H 	0.11291 0.02287 0.29114 0.04800
H 	H 	0.11295 0.08201 0.17036 0.04000
C 	C 	0.16192 0.24886 0.45624 -0.10000
C 	C 	0.16675 0.25274 0.42951 0.02200
H 	H 	0.14830 0.21449 0.40657 0.03600
C 	C 	0.17051 0.25413 0.93132 0.02200
C 	C 	0.16628 0.24988 0.95818 -0.10100
H 	H 	0.15162 0.21604 0.90814 0.03600
C 	C 	0.70237 0.17989 0.38624 -0.04700
C 	C 	0.72878 0.16952 0.41325 0.01800
C 	C 	0.72507 0.18327 0.44119 -0.04600
C 	C 	0.69673 0.20912 0.44277 -0.03300
C 	C 	0.76327 0.14898 0.41379 -0.01400
C 	C 	0.79266 0.13191 0.41543 -0.03100
C 	C 	0.82950 0.11327 0.41943 0.04800
C 	C 	0.80793 0.05493 0.40326 -0.08600
C 	C 	0.84374 0.03622 0.41222 0.04000
C 	C 	0.90115 0.07578 0.43775 -0.12100
C 	C 	0.92288 0.13428 0.45235 0.02900
C 	C 	0.88717 0.15296 0.44311 -0.08200
H 	H 	0.74534 0.17525 0.46212 0.04200
H 	H 	0.69541 0.22107 0.46496 0.03600
H 	H 	0.76337 0.02399 0.38480 0.05000
H 	H 	0.96724 0.16516 0.47179 0.01600
H 	H 	0.90414 0.19817 0.45550 0.04800
C 	C 	0.44338 0.20902 0.41609 -0.04700
C 	C 	0.45350 0.19831 0.44405 0.02000
C 	C 	0.41001 0.17541 0.44865 -0.01500
C 	C 	0.37306 0.15622 0.45206 -0.02700
C 	C 	0.32836 0.13403 0.45570 0.04300
C 	C 	0.33631 0.16294 0.48663 -0.07300
C 	C 	0.29099 0.14649 0.48854 0.02100
C 	C 	0.23719 0.10114 0.45934 -0.09300
C 	C 	0.23006 0.07007 0.42905 0.02000
C 	C 	0.27549 0.08662 0.42726 -0.07300
H 	H 	0.40281 0.19995 0.39783 0.04100
H 	H 	0.37727 0.19929 0.50885 0.04800
H 	H 	0.29745 0.17031 0.51229 0.03200
H 	H 	0.18911 0.03429 0.40654 0.03500
H 	H 	0.26922 0.06368 0.40339 0.04900
C 	C 	0.77239 0.23832 0.95047 -0.04600
C 	C 	0.74552 0.18617 0.92161 0.01900
C 	C 	0.68938 0.15887 0.89442 -0.04600
C 	C 	0.66027 0.18385 0.89607 -0.03300
C 	C 	0.77551 0.16041 0.92042 -0.01300
C 	C 	0.80268 0.14085 0.92083 -0.03000
C 	C 	0.83732 0.11965 0.92340 0.04800
C 	C 	0.81369 0.06077 0.90792 -0.08500
C 	C 	0.84801 0.04020 0.91578 0.04000
C 	C 	0.90600 0.07849 0.93955 -0.12100
C 	C 	0.92959 0.13733 0.95330 0.02900
C 	C 	0.89534 0.15782 0.94512 -0.08200
H 	H 	0.66831 0.11842 0.87208 0.04100
H 	H 	0.61696 0.16275 0.87490 0.03700
H 	H 	0.76883 0.03097 0.89093 0.05000
H 	H 	0.97437 0.16719 0.97138 0.01500
H 	H 	0.91388 0.20342 0.95692 0.04800
C 	C 	0.49304 0.18999 0.91163 -0.03300
C 	C 	0.45099 0.16624 0.91611 -0.04600
C 	C 	0.45947 0.19413 0.94744 0.02000
C 	C 	0.41497 0.17150 0.95124 -0.01400
C 	C 	0.37766 0.15249 0.95438 -0.02600
C 	C 	0.33261 0.13082 0.95777 0.04200
C 	C 	0.34028 0.16029 0.98847 -0.07000
C 	C 	0.29467 0.14467 0.99005 0.02300
C 	C 	0.24086 0.09959 0.96073 -0.09300
C 	C 	0.23395 0.06793 0.93068 0.02000
C 	C 	0.27967 0.08365 0.92923 -0.07200
H 	H 	0.48607 0.16838 0.88725 0.03700
H 	H 	0.41167 0.12652 0.89511 0.04200
H 	H 	0.38126 0.19650 0.01076 0.04500
H 	H 	0.30095 0.16898 0.01361 0.02900
H 	H 	0.19297 0.03233 0.90809 0.03500
H 	H 	0.27358 0.06028 0.90551 0.04900
C 	C 	0.58812 0.26691 0.93378 0.03300
C 	C 	0.60629 0.32009 0.93481 -0.07800
C 	C 	0.65009 0.34503 0.93181 0.03300
C 	C 	0.67517 0.31644 0.92729 -0.07800
C 	C 	0.65735 0.26349 0.92644 0.03300
C 	C 	0.61356 0.23856 0.92944 -0.07800
H 	H 	0.58694 0.34227 0.93839 0.05000
H 	H 	0.70919 0.33585 0.92508 0.05100
C 	C 	0.58204 0.26453 0.42956 0.03300
C 	C 	0.60428 0.31845 0.43169 -0.07800
C 	C 	0.64760 0.33982 0.42788 0.03300
C 	C 	0.66849 0.30711 0.42177 -0.07800
C 	C 	0.64637 0.25322 0.41963 0.03300
C 	C 	0.60274 0.23175 0.42316 -0.07800
H 	H 	0.58859 0.34404 0.43689 0.05000
H 	H 	0.70258 0.32401 0.41934 0.05000
C 	C 	0.18668 0.29904 0.48595 0.02100
C 	C 	0.21634 0.35237 0.48902 -0.07600
C 	C 	0.22148 0.35605 0.46246 0.04300
C 	C 	0.19644 0.30615 0.43265 -0.07400
C 	C 	0.25262 0.41110 0.46588 -0.02900
C 	C 	0.27876 0.45735 0.46897 -0.01600
H 	H 	0.18291 0.29677 0.50663 0.02500
H 	H 	0.23539 0.39080 0.51207 0.04600
H 	H 	0.20020 0.30867 0.41200 0.04900
H 	H 	0.29513 0.47959 0.42284 0.04000
C 	C 	0.28249 0.45889 0.97127 -0.01600
C 	C 	0.25664 0.41260 0.96824 -0.02700
C 	C 	0.22568 0.35740 0.96472 0.04200
C 	C 	0.20011 0.30770 0.93463 -0.07400
C 	C 	0.19161 0.29987 0.98821 0.02300
C 	C 	0.22118 0.35337 0.99143 -0.07300
H 	H 	0.29947 0.48125 0.92535 0.04100
H 	H 	0.20339 0.31051 0.91386 0.04900
H 	H 	0.18830 0.29731 0.00899 0.02200
H 	H 	0.24065 0.39164 0.01471 0.04300
C 	C 	0.67171 0.22121 0.41631 -0.00600
C 	C 	0.67379 0.20559 0.38771 -0.03300
H 	H 	0.65419 0.21433 0.36701 0.03600
H 	H 	0.70496 0.16919 0.36450 0.04000
C 	C 	0.67226 0.39712 0.43121 -0.00700
C 	C 	0.72796 0.44032 0.45871 -0.03300
C 	C 	0.66649 0.46055 0.40720 -0.04700
C 	C 	0.64133 0.40773 0.40576 -0.03400
H 	H 	0.75204 0.43261 0.47860 0.03600
H 	H 	0.64267 0.46807 0.38708 0.04000
H 	H 	0.59826 0.37464 0.38448 0.03600
C 	C 	0.53815 0.24298 0.43499 -0.00600
C 	C 	0.48558 0.23130 0.41156 -0.03300
C 	C 	0.50609 0.21035 0.46763 -0.04700
C 	C 	0.54834 0.23266 0.46314 -0.03300
H 	H 	0.47731 0.23901 0.38971 0.03600
H 	H 	0.51423 0.20238 0.48939 0.04100
H 	H 	0.58891 0.24178 0.48145 0.03600
C 	C 	0.68729 0.23624 0.92494 -0.00600
C 	C 	0.74340 0.26326 0.95217 -0.03300
H 	H 	0.76450 0.30359 0.97461 0.03600
H 	H 	0.81574 0.25949 0.97164 0.04100
C 	C 	0.67139 0.40212 0.93480 -0.00700
C 	C 	0.64191 0.40915 0.90677 -0.03300
C 	C 	0.66594 0.46169 0.90767 -0.04700
C 	C 	0.72389 0.44864 0.96437 -0.03300
H 	H 	0.60127 0.37347 0.88388 0.03600
H 	H 	0.64363 0.46638 0.88552 0.04000
H 	H 	0.74679 0.44361 0.98620 0.03600
C 	C 	0.54381 0.24182 0.93849 -0.00600
C 	C 	0.51036 0.24557 0.97443 -0.04700
C 	C 	0.55244 0.26937 0.96999 -0.03300
H 	H 	0.51714 0.26737 0.99872 0.04100
H 	H 	0.59170 0.30915 0.99097 0.03700
C 	C 	0.03429 0.04913 0.71908 -0.03500
H 	H 	0.03229 0.07452 0.68086 0.04200
C 	C 	0.03547 0.04502 0.69040 -0.04900
H 	H 	0.07020 0.02635 0.50477 0.16100
H 	H 	0.02930 0.08021 0.23081 0.03700
H 	H 	0.07269 0.02594 0.00555 0.15900
C 	C 	0.03264 0.04702 0.21823 -0.03500
H 	H 	0.10884 0.07809 0.11825 0.02200
Zn	Zn	0.99579 0.03358 0.50247 1.20000
Zn	Zn	0.99862 0.03377 0.00341 1.19900
O 	O 	0.93619 0.01678 0.43164 -0.46600
O 	O 	0.03096 0.03629 0.04828 -0.46200
O 	O 	0.02838 0.03664 0.54749 -0.46100
H 	H 	0.11257 0.08414 0.67005 0.04100
C 	C 	0.08085 0.04321 0.14571 -0.05100
C 	C 	0.07868 0.04089 0.11622 0.02700
H 	H 	0.10713 0.07967 0.61752 0.02200
O 	O 	0.93972 0.01835 0.93285 -0.46600
H 	H 	0.03158 0.07260 0.18022 0.04200
C 	C 	0.03435 0.04297 0.18974 -0.04900
C 	C 	0.08041 0.04511 0.64552 -0.05100
C 	C 	0.07749 0.04249 0.61579 0.02800
C 	C 	0.03747 0.01062 0.73137 0.00800
H 	H 	0.95691 0.00644 0.73863 0.04500
C 	C 	0.98542 0.01034 0.28778 0.01700
C 	C 	0.03539 0.00840 0.23051 0.00700
O 	O 	0.03218 0.00635 0.98800 -0.88600
O 	O 	0.02963 0.00639 0.48722 -0.88900
C 	C 	0.98819 0.00910 0.25988 -0.07200
H 	H 	0.94960 0.00640 0.28663 0.02100
C 	C 	0.04042 0.00272 0.67396 0.03300
H 	H 	0.95452 0.00426 0.23739 0.04500
C 	C 	0.75305 0.49308 0.46011 -0.04700
C 	C 	0.03937 0.00060 0.17346 0.03200
C 	C 	0.74784 0.50111 0.96526 -0.04700
C 	C 	0.30980 0.51282 0.47282 0.01800
C 	C 	0.71945 0.50738 0.93662 0.01800
C 	C 	0.72263 0.50300 0.43410 0.01800
C 	C 	0.31346 0.51438 0.97513 0.02100
C 	C 	0.31403 0.51754 0.44612 -0.04700
C 	C 	0.31808 0.51916 0.94856 -0.04700
H 	H 	0.79641 0.52584 0.48107 0.04000
H 	H 	0.78908 0.53639 0.98781 0.04000
H 	H 	0.33161 0.55883 0.52368 0.03900
C 	C 	0.74695 0.55915 0.93592 -0.01500
C 	C 	0.74984 0.55557 0.43407 -0.01500
H 	H 	0.33464 0.56031 0.02580 0.03900
C 	C 	0.33454 0.56214 0.50289 -0.04700
C 	C 	0.33785 0.56367 0.00510 -0.05000
C 	C 	0.34194 0.57132 0.44919 -0.03300
C 	C 	0.34602 0.57297 0.95165 -0.03400
H 	H 	0.34410 0.57455 0.42816 0.03600
H 	H 	0.34848 0.57624 0.93072 0.03600
C 	C 	0.77062 0.60280 0.93577 -0.02900
C 	C 	0.77318 0.59981 0.43438 -0.03000
C 	C 	0.36245 0.61593 0.50599 -0.03400
C 	C 	0.36580 0.61747 0.00823 -0.03600
C 	C 	0.36575 0.62073 0.47899 -0.00600
C 	C 	0.36949 0.62234 0.98136 -0.00400
C 	C 	0.79991 0.65481 0.93581 0.04400
H 	H 	0.87601 0.65734 0.95548 0.04800
C 	C 	0.80177 0.65253 0.43488 0.04300
H 	H 	0.87902 0.65735 0.45504 0.04800
H 	H 	0.73049 0.66408 0.91613 0.04800
H 	H 	0.73103 0.65967 0.41479 0.04700
C 	C 	0.85524 0.67829 0.94697 -0.07700
H 	H 	0.38084 0.65380 0.52914 0.03500
H 	H 	0.38393 0.65531 0.03131 0.03500
C 	C 	0.85742 0.67758 0.44647 -0.07700
C 	C 	0.77326 0.68201 0.92474 -0.07600
C 	C 	0.77405 0.67881 0.42374 -0.07600
H 	H 	0.46107 0.67707 0.98264 0.04900
H 	H 	0.45729 0.67563 0.48027 0.04900
C 	C 	0.39084 0.67712 0.48095 0.03200
C 	C 	0.39471 0.67875 0.98335 0.03100
H 	H 	0.46864 0.70642 0.43073 0.03500
H 	H 	0.47191 0.70703 0.93279 0.03600
C 	C 	0.88398 0.72898 0.94723 0.02400
H 	H 	0.32914 0.69033 0.48125 0.05000
O 	O 	0.03885 0.98000 0.85776 -0.49600
C 	C 	0.88539 0.72886 0.44704 0.02400
H 	H 	0.33309 0.69215 0.98366 0.05000
C 	C 	0.80192 0.73273 0.92497 0.02200
C 	C 	0.44221 0.70097 0.98344 -0.07700
C 	C 	0.43841 0.69949 0.48112 -0.07800
C 	C 	0.80193 0.73012 0.42428 0.02200
H 	H 	0.92671 0.74669 0.95582 0.03000
H 	H 	0.92836 0.74776 0.45594 0.02900
C 	C 	0.36647 0.70805 0.48202 -0.07700
C 	C 	0.37038 0.70975 0.98437 -0.07600
H 	H 	0.78125 0.75396 0.91688 0.02800
C 	C 	0.85750 0.75654 0.93628 -0.10300
H 	H 	0.54951 0.74654 0.42829 0.03900
C 	C 	0.85780 0.75546 0.43598 -0.10300
H 	H 	0.55248 0.74665 0.93003 0.04000
H 	H 	0.78039 0.75057 0.41610 0.02800
C 	C 	0.50703 0.74638 0.45238 -0.03400
C 	C 	0.51035 0.74706 0.95431 -0.03400
C 	C 	0.55278 0.76921 0.45094 -0.04700
C 	C 	0.55593 0.76960 0.95270 -0.04800
C 	C 	0.46157 0.75269 0.48236 0.03100
C 	C 	0.46530 0.75403 0.98451 0.03100
C 	C 	0.38947 0.76122 0.48329 0.03200
C 	C 	0.39330 0.76277 0.98546 0.03100
H 	H 	0.69736 0.90644 0.93371 0.04600
C 	C 	0.88832 0.81108 0.93778 0.32100
C 	C 	0.51064 0.77552 0.48149 -0.00700
C 	C 	0.88768 0.81044 0.43763 0.32100
C 	C 	0.51419 0.77659 0.98345 -0.00400
H 	H 	0.69509 0.90667 0.43275 0.04600
H 	H 	0.34574 0.79073 0.43457 0.03600
O 	O 	0.86164 0.82244 0.91376 -0.46700
O 	O 	0.86025 0.82157 0.41373 -0.46800
C 	C 	0.43716 0.78358 0.48361 -0.07800
H 	H 	0.34869 0.79095 0.93617 0.03600
C 	C 	0.44090 0.78495 0.98568 -0.07600
H 	H 	0.77349 0.93925 0.92656 0.02600
H 	H 	0.77138 0.93922 0.42574 0.02600
C 	C 	0.36201 0.79225 0.48267 -0.00600
C 	C 	0.34053 0.80318 0.45496 -0.03400
C 	C 	0.36574 0.79373 0.98464 -0.00400
C 	C 	0.34373 0.80387 0.95663 -0.03400
O 	O 	0.94266 0.84588 0.96177 -0.46100
C 	C 	0.60241 0.82129 0.47858 0.01800
C 	C 	0.60562 0.82177 0.98017 0.02100
O 	O 	0.94191 0.84607 0.46175 -0.46200
C 	C 	0.73389 0.90685 0.94980 -0.07600
C 	C 	0.73154 0.90699 0.44890 -0.07700
C 	C 	0.35474 0.80841 0.50885 -0.03400
H 	H 	0.37143 0.80047 0.53046 0.03400
H 	H 	0.29377 0.83625 0.43124 0.03900
C 	C 	0.31099 0.82885 0.45304 -0.04700
C 	C 	0.77703 0.92536 0.94572 0.02300
C 	C 	0.77475 0.92535 0.44489 0.02300
C 	C 	0.65231 0.84532 0.97824 -0.01700
H 	H 	0.37592 0.80319 0.03275 0.03400
H 	H 	0.45479 0.82451 0.48437 0.04900
C 	C 	0.64932 0.84506 0.47688 -0.01600
C 	C 	0.35882 0.81052 0.01092 -0.03700
C 	C 	0.31399 0.82934 0.95450 -0.04700
H 	H 	0.45844 0.82574 0.98627 0.04900
H 	H 	0.29636 0.83612 0.93247 0.03900
C 	C 	0.56055 0.82745 0.50928 -0.03400
C 	C 	0.56417 0.82861 0.01106 -0.03700
C 	C 	0.69113 0.86465 0.97637 -0.02800
C 	C 	0.68832 0.86456 0.47519 -0.03000
C 	C 	0.30261 0.84368 0.47874 0.01700
C 	C 	0.32503 0.83395 0.50683 -0.04700
C 	C 	0.60626 0.85024 0.50780 -0.04800
C 	C 	0.60971 0.85111 0.00940 -0.05000
C 	C 	0.73485 0.88789 0.47311 0.04200
C 	C 	0.73743 0.88779 0.97405 0.04200
C 	C 	0.32893 0.83590 0.00870 -0.05000
C 	C 	0.30592 0.84475 0.98028 0.02000
Zn	Zn	0.88899 0.89617 0.41297 1.17400
H 	H 	0.96557 0.90468 0.05704 0.03100
O 	O 	0.03595 0.97869 0.35689 -0.49600
Zn	Zn	0.89130 0.89744 0.91357 1.17400
C 	C 	0.26829 0.86578 0.47512 -0.01600
H 	H 	0.56383 0.85020 0.53191 0.03500
H 	H 	0.31877 0.84536 0.52682 0.03800
H 	H 	0.56762 0.85166 0.03371 0.03500
O 	O 	0.84944 0.91975 0.92615 -0.48300
O 	O 	0.84664 0.91810 0.42519 -0.48200
H 	H 	0.32297 0.84783 0.02878 0.03800
H 	H 	0.96899 0.90897 0.10900 0.04300
C 	C 	0.82400 0.92475 0.96581 -0.10500
C 	C 	0.82156 0.92453 0.46501 -0.10500
C 	C 	0.27147 0.86674 0.97652 -0.01600
C 	C 	0.23856 0.88323 0.47097 -0.03100
H 	H 	0.20822 0.92146 0.42569 0.04700
C 	C 	0.86604 0.93731 0.95846 0.31800
C 	C 	0.86344 0.93651 0.45755 0.31800
H 	H 	0.04184 0.93555 0.22323 0.03400
C 	C 	0.99831 0.94313 0.08181 0.02000
C 	C 	0.18918 0.92055 0.43941 -0.08000
C 	C 	0.20318 0.90436 0.46520 0.04500
Zn	Zn	0.98934 0.92752 0.97689 1.18700
Zn	Zn	0.98750 0.92768 0.47649 1.18700
H 	H 	0.96499 0.90575 0.55731 0.03100
O 	O 	0.01753 0.94793 0.02777 -0.43900
C 	C 	0.24241 0.88502 0.97253 -0.03000
O 	O 	0.01587 0.94866 0.52744 -0.43800
C 	C 	0.04004 0.96580 0.21409 -0.04700
O 	O 	0.91601 0.95148 0.98222 -0.47700
O 	O 	0.96213 0.92018 0.92860 -0.79800
O 	O 	0.95997 0.91966 0.42804 -0.79800
H 	H 	0.64454 0.89044 0.52930 0.03900
H 	H 	0.64803 0.89139 0.03077 0.03900
O 	O 	0.91352 0.95104 0.48142 -0.47700
C 	C 	0.14892 0.93344 0.43028 0.02900
H 	H 	0.13711 0.94420 0.40956 0.01600
H 	H 	0.20889 0.91872 0.92514 0.04700
C 	C 	0.00011 0.94563 0.11123 -0.06400
H 	H 	0.04631 0.92934 0.17349 0.04000
C 	C 	0.17889 0.90410 0.48314 -0.08100
C 	C 	0.04230 0.96210 0.18581 -0.06000
H 	H 	0.18979 0.89199 0.50329 0.04600
C 	C 	0.78243 0.88909 0.49415 -0.07600
C 	C 	0.78509 0.88905 0.99500 -0.07300
C 	C 	0.19074 0.91917 0.93935 -0.07900
H 	H 	0.13706 0.94045 0.90845 0.01600
C 	C 	0.20644 0.90547 0.96621 0.04400
O 	O 	0.03649 0.90642 0.90213 -0.50500
O 	O 	0.98954 0.99015 0.89782 -0.87700
O 	O 	0.08425 0.98281 0.95475 -0.46000
Zn	Zn	0.01120 0.99859 0.94310 1.21200
C 	C 	0.02846 0.99207 0.05218 0.30700
Zn	Zn	0.00774 0.94256 0.87937 1.18200
C 	C 	0.07840 0.93774 0.93502 0.31900
H 	H 	0.94978 0.97597 0.88216 0.14300
O 	O 	0.03395 0.90594 0.40173 -0.50500
O 	O 	0.98642 0.98911 0.39678 -0.87600
O 	O 	0.08187 0.98303 0.45406 -0.45900
Zn	Zn	0.00834 0.99806 0.44219 1.21200
C 	C 	0.02658 0.99282 0.55170 0.30700
Zn	Zn	0.00487 0.94153 0.37861 1.18200
C 	C 	0.07598 0.93770 0.43459 0.31900
H 	H 	0.94660 0.97469 0.38112 0.14300
C 	C 	0.04215 0.96814 0.71482 -0.04700
C 	C 	0.04391 0.96440 0.68637 -0.06000
H 	H 	0.04790 0.93172 0.67394 0.04000
C 	C 	0.04095 0.99799 0.64340 -0.00500
C 	C 	0.00029 0.94725 0.61161 -0.06500
C 	C 	0.99776 0.94445 0.58196 0.02200
C 	C 	0.03546 0.99252 0.58374 -0.11100
H 	H 	0.96968 0.91059 0.60969 0.04400
H 	H 	0.04429 0.93798 0.72398 0.03400
C 	C 	0.04070 0.99609 0.14317 -0.00500
C 	C 	0.03669 0.99125 0.08400 -0.11000
C 	C 	0.82570 0.90743 0.49020 0.02200
H 	H 	0.86152 0.90656 0.50594 0.03100
H 	H 	0.78543 0.87471 0.51307 0.04800
C 	C 	0.12275 0.93077 0.44712 -0.11700
C 	C 	0.13891 0.91758 0.47423 0.02600
H 	H 	0.11924 0.91588 0.48757 0.00500
C 	C 	0.82829 0.90753 0.99098 0.02400
H 	H 	0.86421 0.90677 0.00668 0.02900
H 	H 	0.78826 0.87467 0.01394 0.04500
C 	C 	0.18321 0.90687 0.98473 -0.07800
C 	C 	0.14283 0.91980 0.97550 0.02400
C 	C 	0.12508 0.93063 0.94744 -0.11700
C 	C 	0.15002 0.93142 0.92988 0.02800
H 	H 	0.19537 0.89662 0.00567 0.04300
H 	H 	0.12414 0.91960 0.98941 0.00500
H 	H 	0.82660 0.99095 0.40056 0.00800
H 	H 	0.82943 0.99465 0.90473 0.00900
