data_crystal

_cell_length_a 30.56812
_cell_length_b 30.84187
_cell_length_c 60.36346
_cell_angle_alpha 89.93560
_cell_angle_beta  90.06250
_cell_angle_gamma 120.06934

_symmetry_space_group_name_	'P 1'
_symmetry_space_group_name_H-M	'P 1'

loop_
_symmetry_equiv_pos_as_xyz
  x,y,z

loop_
_atom_site_label
_atom_site_type_symbol
_atom_site_fract_x
_atom_site_fract_y
_atom_site_fract_z
_atom_site_charge
Cu	Cu	0.74814 0.46367 0.56466 0.92800
Cu	Cu	0.80042 0.44911 0.60919 0.86600
Cu	Cu	0.85610 0.48351 0.56632 0.89600
Cu	Cu	0.82408 0.51371 0.52529 0.89200
C 	C 	0.73604 0.52778 0.53390 0.28800
O 	O 	0.72197 0.41245 0.54003 -0.36500
C 	C 	0.88074 0.42984 0.59993 0.28300
O 	O 	0.82264 0.51839 0.55641 -0.64300
O 	O 	0.78721 0.43502 0.57773 -0.64200
O 	O 	0.71114 0.46271 0.59174 -0.37800
O 	O 	0.78206 0.49926 0.61295 -0.44000
O 	O 	0.76167 0.51752 0.51923 -0.38500
O 	O 	0.92233 0.53487 0.55659 -0.38900
C 	C 	0.93417 0.55584 0.53673 0.29200
C 	C 	0.75221 0.40111 0.52923 0.28300
O 	O 	0.80051 0.43443 0.52737 -0.39300
O 	O 	0.89931 0.54967 0.52199 -0.39500
O 	O 	0.72157 0.50319 0.55285 -0.36600
C 	C 	0.73556 0.48905 0.60919 0.29300
O 	O 	0.88977 0.45016 0.57992 -0.38200
O 	O 	0.83644 0.41323 0.60957 -0.42000
H 	H 	0.83658 0.55270 0.56240 0.16300
H 	H 	0.77570 0.39976 0.57378 0.17300
Cu	Cu	0.45045 0.76746 0.43630 0.92800
Cu	Cu	0.44143 0.82002 0.39074 0.86500
Cu	Cu	0.47151 0.87458 0.43355 0.89600
Cu	Cu	0.49895 0.84368 0.47570 0.89200
C 	C 	0.51231 0.75570 0.46867 0.28900
O 	O 	0.39702 0.74340 0.46016 -0.36400
C 	C 	0.42039 0.89944 0.39872 0.28300
O 	O 	0.50560 0.84123 0.44468 -0.64200
O 	O 	0.42345 0.80648 0.42186 -0.64300
O 	O 	0.45115 0.72989 0.40980 -0.37600
O 	O 	0.49099 0.80005 0.38858 -0.44000
O 	O 	0.50076 0.78123 0.48273 -0.38600
O 	O 	0.52238 0.94022 0.44365 -0.39000
C 	C 	0.53978 0.95223 0.46411 0.29400
C 	C 	0.38515 0.77430 0.46986 0.28200
O 	O 	0.41953 0.82185 0.47223 -0.39300
O 	O 	0.53736 0.91837 0.47837 -0.39500
O 	O 	0.48847 0.74046 0.44954 -0.36400
C 	C 	0.47887 0.75346 0.39250 0.29200
O 	O 	0.43846 0.90755 0.41917 -0.38200
O 	O 	0.40580 0.85630 0.38867 -0.42000
H 	H 	0.54056 0.85471 0.43917 0.16300
H 	H 	0.38753 0.79538 0.42492 0.17300
Cu	Cu	0.46542 0.27418 0.23387 0.92800
Cu	Cu	0.47560 0.33869 0.27839 0.86600
Cu	Cu	0.44409 0.36047 0.23480 0.89500
Cu	Cu	0.41581 0.29830 0.19369 0.89200
C 	C 	0.40333 0.19788 0.20269 0.28900
O 	O 	0.51834 0.30101 0.20974 -0.36500
C 	C 	0.49490 0.43769 0.26918 0.28200
O 	O 	0.40993 0.29224 0.22482 -0.64200
O 	O 	0.49244 0.34103 0.24719 -0.64300
O 	O 	0.46576 0.23840 0.26105 -0.37800
O 	O 	0.42591 0.26971 0.28173 -0.43900
O 	O 	0.41420 0.23361 0.18798 -0.38500
O 	O 	0.39308 0.37468 0.22377 -0.38800
C 	C 	0.37576 0.36769 0.20323 0.29300
C 	C 	0.52953 0.34229 0.19889 0.28200
O 	O 	0.49523 0.35577 0.19643 -0.39400
O 	O 	0.37681 0.33393 0.19001 -0.39500
O 	O 	0.42717 0.20826 0.22189 -0.36600
C 	C 	0.43735 0.23462 0.27802 0.29300
O 	O 	0.47571 0.42669 0.24893 -0.38100
O 	O 	0.51110 0.41032 0.27920 -0.42000
H 	H 	0.37514 0.27134 0.23057 0.16300
H 	H 	0.52825 0.36531 0.24377 0.17300
Cu	Cu	0.16709 0.67493 0.10369 0.92800
Cu	Cu	0.11326 0.61208 0.05858 0.86600
Cu	Cu	0.05893 0.58830 0.10169 0.89500
Cu	Cu	0.09177 0.64752 0.14357 0.89200
C 	C 	0.18031 0.74904 0.13573 0.28900
O 	O 	0.19257 0.64710 0.12752 -0.36400
C 	C 	0.03332 0.51208 0.06701 0.28100
O 	O 	0.09296 0.65571 0.11252 -0.64200
O 	O 	0.12738 0.60862 0.08972 -0.64300
O 	O 	0.20395 0.71251 0.07687 -0.37800
O 	O 	0.13260 0.68096 0.05601 -0.44000
O 	O 	0.15487 0.71239 0.15005 -0.38400
O 	O 	0.99315 0.57352 0.11215 -0.38900
C 	C 	0.98167 0.57930 0.13264 0.29500
C 	C 	0.16198 0.60455 0.13749 0.28300
O 	O 	0.11407 0.59083 0.14024 -0.39300
O 	O 	0.01647 0.61019 0.14686 -0.39600
O 	O 	0.19452 0.74000 0.11646 -0.36600
C 	C 	0.17948 0.71610 0.05977 0.29300
O 	O 	0.02455 0.52249 0.08724 -0.38200
O 	O 	0.07709 0.54047 0.05710 -0.42000
H 	H 	0.07920 0.67676 0.10705 0.16300
H 	H 	0.13872 0.58429 0.09290 0.17300
Cu	Cu	0.25975 0.49015 0.76797 0.92800
Cu	Cu	0.32226 0.49338 0.72356 0.86600
Cu	Cu	0.34536 0.46682 0.76785 0.89600
Cu	Cu	0.28563 0.44590 0.80956 0.89200
C 	C 	0.18437 0.43345 0.80055 0.28900
O 	O 	0.28902 0.54590 0.79058 -0.36400
C 	C 	0.42233 0.51295 0.73264 0.28300
O 	O 	0.27735 0.43567 0.77866 -0.64200
O 	O 	0.32639 0.51413 0.75422 -0.64300
O 	O 	0.22226 0.48697 0.74066 -0.37800
O 	O 	0.25243 0.44422 0.72144 -0.44000
O 	O 	0.22108 0.44582 0.81510 -0.38500
O 	O 	0.35869 0.41657 0.78009 -0.38900
C 	C 	0.35179 0.40102 0.80090 0.29400
C 	C 	0.33143 0.55804 0.80101 0.28300
O 	O 	0.34418 0.52381 0.80480 -0.39300
O 	O 	0.32156 0.40752 0.81452 -0.39500
O 	O 	0.19397 0.45493 0.78087 -0.36600
C 	C 	0.21763 0.45669 0.72445 0.29300
O 	O 	0.41131 0.49492 0.75307 -0.38100
O 	O 	0.39440 0.52800 0.72215 -0.42100
H 	H 	0.25538 0.40050 0.77390 0.16300
H 	H 	0.35157 0.54986 0.75675 0.17200
Cu	Cu	0.65695 0.18746 0.89975 0.92800
Cu	Cu	0.59629 0.12959 0.94469 0.86600
Cu	Cu	0.57121 0.07915 0.90071 0.89500
Cu	Cu	0.62937 0.11624 0.85853 0.89300
C 	C 	0.73089 0.20439 0.86667 0.28900
O 	O 	0.62662 0.21331 0.87721 -0.36400
C 	C 	0.49556 0.04992 0.93643 0.28400
O 	O 	0.63885 0.11515 0.88941 -0.64100
O 	O 	0.59091 0.14565 0.91407 -0.64300
O 	O 	0.69559 0.22241 0.92669 -0.37700
O 	O 	0.66628 0.15021 0.94629 -0.44000
O 	O 	0.69362 0.18009 0.85241 -0.38600
O 	O 	0.55706 0.01525 0.88867 -0.38800
C 	C 	0.56269 0.00610 0.86778 0.29300
C 	C 	0.58373 0.18296 0.86720 0.28200
O 	O 	0.57093 0.13600 0.86361 -0.39400
O 	O 	0.59367 0.04209 0.85409 -0.39500
O 	O 	0.72220 0.21727 0.88630 -0.36400
C 	C 	0.70071 0.19730 0.94305 0.29200
O 	O 	0.50577 0.04242 0.91593 -0.38100
O 	O 	0.52421 0.09272 0.94676 -0.42100
H 	H 	0.66094 0.10186 0.89410 0.16300
H 	H 	0.56566 0.15637 0.91172 0.17300
C 	C 	0.53869 0.95352 0.86020 -0.08900
C 	C 	0.52848 0.94215 0.83758 0.01700
C 	C 	0.50586 0.89249 0.83035 -0.07100
C 	C 	0.49316 0.85376 0.84563 0.03900
C 	C 	0.50337 0.86485 0.86819 -0.07100
C 	C 	0.52604 0.91453 0.87548 0.01800
C 	C 	0.46818 0.80252 0.83818 -0.02200
C 	C 	0.44729 0.75994 0.83152 -0.02200
C 	C 	0.42142 0.70945 0.82311 0.04000
C 	C 	0.42001 0.67036 0.83556 -0.07100
C 	C 	0.39198 0.62089 0.82799 0.01800
C 	C 	0.36498 0.61030 0.80799 -0.09200
C 	C 	0.36774 0.64977 0.79529 0.01700
C 	C 	0.39584 0.69910 0.80283 -0.07100
H 	H 	0.53758 0.97169 0.82562 0.02900
H 	H 	0.49787 0.88412 0.81289 0.04700
H 	H 	0.49360 0.83505 0.88010 0.04700
H 	H 	0.53402 0.92266 0.89295 0.03200
H 	H 	0.43988 0.67813 0.85122 0.04700
H 	H 	0.39017 0.59080 0.83796 0.02800
H 	H 	0.34772 0.64218 0.77967 0.02500
H 	H 	0.39709 0.72920 0.79306 0.04700
C 	C 	0.13134 0.40484 0.80819 -0.08700
C 	C 	0.11847 0.37275 0.82660 0.01400
C 	C 	0.06832 0.34580 0.83386 -0.07000
C 	C 	0.03066 0.35053 0.82276 0.03600
C 	C 	0.04320 0.38209 0.80430 -0.07000
C 	C 	0.09326 0.40912 0.79701 0.01700
C 	C 	0.97922 0.32355 0.83046 -0.02000
C 	C 	0.93598 0.30119 0.83673 -0.02300
C 	C 	0.88429 0.27498 0.84414 0.04000
C 	C 	0.84493 0.26062 0.82883 -0.07100
C 	C 	0.79477 0.23706 0.83609 0.01600
C 	C 	0.78363 0.22776 0.85879 -0.08800
C 	C 	0.82324 0.24157 0.87404 0.01600
C 	C 	0.87334 0.26515 0.86672 -0.07100
H 	H 	0.14720 0.36847 0.83521 0.02400
H 	H 	0.05882 0.32131 0.84811 0.04600
H 	H 	0.01421 0.38587 0.79565 0.04700
H 	H 	0.10243 0.43365 0.78280 0.03900
H 	H 	0.85317 0.26814 0.81133 0.04700
H 	H 	0.76475 0.22680 0.82411 0.03300
H 	H 	0.81522 0.23411 0.89156 0.03200
H 	H 	0.90363 0.27605 0.87864 0.04800
C 	C 	0.54976 0.20159 0.86042 -0.09200
C 	C 	0.52121 0.18415 0.84086 0.01800
C 	C 	0.49265 0.20535 0.83346 -0.07100
C 	C 	0.49228 0.24388 0.84561 0.04000
C 	C 	0.51940 0.26017 0.86548 -0.07100
C 	C 	0.54801 0.23914 0.87288 0.01700
C 	C 	0.46589 0.26825 0.83728 -0.02200
C 	C 	0.44418 0.28939 0.83074 -0.02300
C 	C 	0.41905 0.31569 0.82327 0.03900
C 	C 	0.40567 0.34118 0.83856 -0.07100
C 	C 	0.38356 0.36884 0.83128 0.01600
C 	C 	0.37456 0.37118 0.80859 -0.09000
C 	C 	0.38766 0.34518 0.79331 0.01700
C 	C 	0.40985 0.31759 0.80065 -0.07100
H 	H 	0.52220 0.15520 0.83110 0.02800
H 	H 	0.47157 0.19242 0.81811 0.04700
H 	H 	0.51895 0.28966 0.87504 0.04700
H 	H 	0.56921 0.25238 0.88818 0.02600
H 	H 	0.41288 0.34002 0.85607 0.04700
H 	H 	0.37405 0.38895 0.84325 0.03000
H 	H 	0.38055 0.34618 0.77578 0.03200
H 	H 	0.42014 0.29797 0.78873 0.04700
C 	C 	0.74327 0.22299 0.95862 -0.09900
C 	C 	0.73623 0.21146 0.98132 0.01700
C 	C 	0.77445 0.24067 0.99647 -0.07400
C 	C 	0.81996 0.28134 0.98901 0.04000
C 	C 	0.82810 0.29121 0.96627 -0.07300
C 	C 	0.78993 0.26215 0.95111 0.02100
C 	C 	0.85627 0.31570 0.00468 -0.02400
C 	C 	0.88723 0.34500 0.01749 -0.02200
C 	C 	0.92412 0.38153 0.03234 0.03600
C 	C 	0.97573 0.40093 0.02829 -0.06800
C 	C 	0.01170 0.44200 0.04043 0.00900
C 	C 	0.99621 0.46417 0.05665 -0.08500
C 	C 	0.94450 0.44282 0.06149 0.01100
C 	C 	0.90863 0.40171 0.04934 -0.06900
H 	H 	0.70051 0.18118 0.98733 0.01500
H 	H 	0.76803 0.23263 0.01403 0.04600
H 	H 	0.86342 0.32231 0.96037 0.04900
H 	H 	0.79621 0.27078 0.93360 0.03600
H 	H 	0.98798 0.38521 0.01529 0.04600
H 	H 	0.05148 0.45725 0.03685 0.03100
H 	H 	0.93195 0.45927 0.07403 0.03400
H 	H 	0.86875 0.38671 0.05263 0.04600
C 	C 	0.44765 0.01231 0.94678 -0.09000
C 	C 	0.42749 0.96119 0.94205 0.01300
C 	C 	0.38658 0.92499 0.95428 -0.07000
C 	C 	0.36548 0.93961 0.97125 0.03800
C 	C 	0.38356 0.99057 0.97513 -0.07100
C 	C 	0.42442 0.02684 0.96293 0.01500
C 	C 	0.32924 0.90269 0.98617 -0.02300
C 	C 	0.29890 0.87187 0.99870 -0.02400
C 	C 	0.26419 0.83513 0.01412 0.04000
C 	C 	0.27253 0.84346 0.03694 -0.07300
C 	C 	0.24332 0.80522 0.05194 0.02100
C 	C 	0.20553 0.75829 0.04421 -0.09900
C 	C 	0.19560 0.75085 0.02138 0.01700
C 	C 	0.22499 0.78914 0.00639 -0.07400
H 	H 	0.44479 0.94941 0.92956 0.03400
H 	H 	0.37252 0.88561 0.95108 0.04700
H 	H 	0.36704 0.00213 0.98808 0.04600
H 	H 	0.43871 0.06614 0.96639 0.03000
H 	H 	0.30257 0.87908 0.04303 0.04800
H 	H 	0.25073 0.81174 0.06954 0.03500
H 	H 	0.16643 0.71490 0.01519 0.01500
H 	H 	0.21823 0.78251 0.98876 0.04600
C 	C 	0.57992 0.37217 0.18878 -0.09100
C 	C 	0.60342 0.42465 0.18784 0.01300
C 	C 	0.65282 0.45296 0.17972 -0.07100
C 	C 	0.67884 0.42896 0.17243 0.03800
C 	C 	0.65500 0.37660 0.17286 -0.07100
C 	C 	0.60579 0.34830 0.18099 0.01600
C 	C 	0.73057 0.45791 0.16518 -0.02200
C 	C 	0.77388 0.48086 0.15900 -0.02300
C 	C 	0.82568 0.50699 0.15166 0.03900
C 	C 	0.84146 0.48608 0.13510 -0.07100
C 	C 	0.89229 0.50978 0.12882 0.01600
C 	C 	0.92783 0.55473 0.13907 -0.09000
C 	C 	0.91172 0.57590 0.15552 0.01700
C 	C 	0.86083 0.55204 0.16178 -0.07100
H 	H 	0.58395 0.44355 0.19385 0.02900
H 	H 	0.67100 0.49347 0.17938 0.04700
H 	H 	0.67480 0.35781 0.16712 0.04800
H 	H 	0.58787 0.30782 0.18135 0.03600
H 	H 	0.81448 0.45114 0.12726 0.04700
H 	H 	0.90413 0.49284 0.11621 0.03500
H 	H 	0.93849 0.61083 0.16339 0.03000
H 	H 	0.84886 0.56841 0.17460 0.04700
C 	C 	0.34766 0.39264 0.19591 -0.08900
C 	C 	0.34340 0.40009 0.17321 0.01600
C 	C 	0.31683 0.42362 0.16621 -0.07100
C 	C 	0.29438 0.44001 0.18180 0.03900
C 	C 	0.29836 0.43258 0.20444 -0.07100
C 	C 	0.32490 0.40901 0.21150 0.01700
C 	C 	0.26876 0.46599 0.17452 -0.02300
C 	C 	0.24755 0.48764 0.16799 -0.02300
C 	C 	0.22354 0.51437 0.15967 0.04000
C 	C 	0.18436 0.51460 0.17163 -0.07100
C 	C 	0.16305 0.54288 0.16406 0.01800
C 	C 	0.18108 0.57130 0.14455 -0.09200
C 	C 	0.21945 0.56990 0.13235 0.01700
C 	C 	0.24056 0.54157 0.13990 -0.07100
H 	H 	0.36108 0.38811 0.16100 0.02900
H 	H 	0.31407 0.42946 0.14868 0.04700
H 	H 	0.28112 0.44524 0.21658 0.04700
H 	H 	0.32747 0.40323 0.22905 0.03200
H 	H 	0.17088 0.49349 0.18690 0.04700
H 	H 	0.13348 0.54365 0.17363 0.02800
H 	H 	0.23317 0.59105 0.11710 0.02500
H 	H 	0.27059 0.54126 0.13050 0.04700
C 	C 	0.20345 0.80151 0.14344 -0.08700
C 	C 	0.18312 0.81354 0.16174 0.01400
C 	C 	0.20559 0.86303 0.16925 -0.07100
C 	C 	0.24832 0.90087 0.15850 0.03900
C 	C 	0.26823 0.88922 0.14006 -0.07100
C 	C 	0.24595 0.83983 0.13252 0.01700
C 	C 	0.27267 0.95146 0.16673 -0.02300
C 	C 	0.29350 0.99399 0.17342 -0.02300
C 	C 	0.31922 0.04483 0.18138 0.03900
C 	C 	0.35077 0.05768 0.19995 -0.07100
C 	C 	0.37787 0.10745 0.20706 0.01700
C 	C 	0.37372 0.14495 0.19555 -0.08800
C 	C 	0.34124 0.13167 0.17716 0.01400
C 	C 	0.31425 0.08182 0.17008 -0.07100
H 	H 	0.14993 0.78465 0.17012 0.02500
H 	H 	0.18989 0.87186 0.18348 0.04600
H 	H 	0.30125 0.91836 0.13166 0.04800
H 	H 	0.26209 0.83136 0.11836 0.03900
H 	H 	0.35472 0.02920 0.20878 0.04800
H 	H 	0.40252 0.11687 0.22132 0.03800
H 	H 	0.33691 0.15990 0.16833 0.02500
H 	H 	0.28975 0.07207 0.15573 0.04700
C 	C 	0.40934 0.93628 0.38831 -0.09000
C 	C 	0.43798 0.98721 0.39405 0.01300
C 	C 	0.43250 0.02308 0.38211 -0.07100
C 	C 	0.39838 0.00839 0.36439 0.03800
C 	C 	0.36781 0.95746 0.35939 -0.07200
C 	C 	0.37313 0.92147 0.37131 0.01400
C 	C 	0.39863 0.04561 0.34991 -0.02300
C 	C 	0.39874 0.07670 0.33775 -0.02400
C 	C 	0.40051 0.11385 0.32276 0.04000
C 	C 	0.39893 0.10588 0.29986 -0.07300
C 	C 	0.40857 0.14471 0.28516 0.02100
C 	C 	0.41985 0.19185 0.29329 -0.09800
C 	C 	0.41863 0.19889 0.31622 0.01700
C 	C 	0.40915 0.16002 0.33091 -0.07400
H 	H 	0.46584 0.99922 0.40718 0.03300
H 	H 	0.45604 0.06241 0.38615 0.04700
H 	H 	0.34101 0.94582 0.34583 0.04600
H 	H 	0.34990 0.88228 0.36701 0.03000
H 	H 	0.39186 0.07012 0.29344 0.04800
H 	H 	0.40845 0.13853 0.26749 0.03500
H 	H 	0.42703 0.23500 0.32270 0.01500
H 	H 	0.41019 0.16635 0.34860 0.04600
C 	C 	0.49397 0.72669 0.37685 -0.09900
C 	C 	0.49672 0.73690 0.35404 0.01700
C 	C 	0.50485 0.70723 0.33896 -0.07400
C 	C 	0.51053 0.66740 0.34658 0.04000
C 	C 	0.51022 0.65866 0.36938 -0.07300
C 	C 	0.50201 0.68819 0.38447 0.02000
C 	C 	0.51240 0.63298 0.33105 -0.02400
C 	C 	0.51400 0.60368 0.31835 -0.02300
C 	C 	0.51448 0.56727 0.30360 0.03800
C 	C 	0.54812 0.54969 0.30737 -0.07200
C 	C 	0.54356 0.50896 0.29529 0.01400
C 	C 	0.50503 0.48533 0.27940 -0.09000
C 	C 	0.47315 0.50485 0.27484 0.01300
C 	C 	0.47784 0.54561 0.28693 -0.07000
H 	H 	0.49078 0.76660 0.34793 0.01500
H 	H 	0.50532 0.71436 0.32136 0.04600
H 	H 	0.51504 0.62819 0.37539 0.04800
H 	H 	0.50099 0.68057 0.40205 0.03600
H 	H 	0.57684 0.56656 0.32011 0.04600
H 	H 	0.56920 0.49511 0.29866 0.03100
H 	H 	0.44343 0.48721 0.26256 0.03400
H 	H 	0.45186 0.55921 0.28386 0.04700
C 	C 	0.73166 0.35113 0.51914 -0.09200
C 	C 	0.76096 0.32772 0.51822 0.01400
C 	C 	0.73990 0.27877 0.51011 -0.07100
C 	C 	0.68960 0.25308 0.50281 0.03800
C 	C 	0.66077 0.27682 0.50319 -0.07100
C 	C 	0.68165 0.32562 0.51131 0.01600
C 	C 	0.66683 0.20174 0.49567 -0.02200
C 	C 	0.64673 0.15874 0.48961 -0.02300
C 	C 	0.62158 0.10727 0.48248 0.03900
C 	C 	0.58394 0.09073 0.46619 -0.07100
C 	C 	0.55744 0.04021 0.46010 0.01600
C 	C 	0.56843 0.00576 0.47029 -0.09000
C 	C 	0.60665 0.02264 0.48647 0.01600
C 	C 	0.63305 0.07320 0.49253 -0.07200
H 	H 	0.79953 0.34691 0.52426 0.03000
H 	H 	0.76246 0.26065 0.50981 0.04700
H 	H 	0.62195 0.25727 0.49744 0.04800
H 	H 	0.65886 0.34347 0.51166 0.03600
H 	H 	0.57478 0.11688 0.45840 0.04700
H 	H 	0.52793 0.02775 0.44770 0.03400
H 	H 	0.61602 0.99670 0.49429 0.03000
H 	H 	0.66214 0.08577 0.50514 0.04700
C 	C 	0.33287 0.75571 0.47740 -0.09200
C 	C 	0.32332 0.77533 0.49661 0.01800
C 	C 	0.27394 0.75459 0.50471 -0.07200
C 	C 	0.23387 0.71436 0.49361 0.04000
C 	C 	0.24313 0.69578 0.47410 -0.07200
C 	C 	0.29238 0.71633 0.46601 0.01700
C 	C 	0.18352 0.69073 0.50265 -0.02300
C 	C 	0.14095 0.67010 0.50977 -0.02200
C 	C 	0.08978 0.64428 0.51791 0.03700
C 	C 	0.07525 0.60664 0.53394 -0.06900
C 	C 	0.02463 0.57837 0.54042 0.01300
C 	C 	0.98807 0.58753 0.53085 -0.08500
C 	C 	0.00304 0.62618 0.51518 0.01100
C 	C 	0.05369 0.65435 0.50873 -0.06900
H 	H 	0.35419 0.80569 0.50555 0.02800
H 	H 	0.26700 0.76928 0.51977 0.04700
H 	H 	0.21227 0.66492 0.46536 0.04800
H 	H 	0.29911 0.70138 0.45099 0.02500
H 	H 	0.10297 0.59862 0.54109 0.04700
H 	H 	0.01370 0.54868 0.55249 0.03500
H 	H 	0.97547 0.63423 0.50791 0.03100
H 	H 	0.06470 0.68349 0.49636 0.04600
C 	C 	0.54268 0.73362 0.47652 -0.08800
C 	C 	0.54675 0.72664 0.49930 0.01600
C 	C 	0.57382 0.70382 0.50656 -0.07100
C 	C 	0.59707 0.68788 0.49118 0.03900
C 	C 	0.59396 0.69562 0.46851 -0.07000
C 	C 	0.56693 0.71845 0.46118 0.01500
C 	C 	0.62241 0.66180 0.49864 -0.02200
C 	C 	0.64354 0.63999 0.50502 -0.02300
C 	C 	0.66798 0.61327 0.51278 0.03900
C 	C 	0.71079 0.61861 0.50184 -0.07100
C 	C 	0.73335 0.59113 0.50885 0.01400
C 	C 	0.71301 0.55784 0.52683 -0.08700
C 	C 	0.67048 0.55327 0.53797 0.01700
C 	C 	0.64812 0.58085 0.53093 -0.07000
H 	H 	0.52823 0.73802 0.51135 0.03300
H 	H 	0.57614 0.69796 0.52413 0.04700
H 	H 	0.61203 0.68353 0.45653 0.04700
H 	H 	0.56471 0.72418 0.44360 0.03200
H 	H 	0.72647 0.64381 0.48783 0.04600
H 	H 	0.76658 0.59575 0.50031 0.02500
H 	H 	0.65436 0.52797 0.55190 0.03900
H 	H 	0.61506 0.57666 0.53949 0.04800
C 	C 	0.91835 0.41946 0.61030 -0.09200
C 	C 	0.90348 0.38241 0.62676 0.01600
C 	C 	0.93992 0.37836 0.63917 -0.07400
C 	C 	0.99139 0.41103 0.63516 0.04300
C 	C 	0.00632 0.44581 0.61782 -0.07600
C 	C 	0.96998 0.45002 0.60540 0.01600
C 	C 	0.02853 0.41278 0.65037 -0.02700
C 	C 	0.05960 0.41421 0.66312 -0.02200
C 	C 	0.09669 0.41754 0.67878 0.03900
C 	C 	0.08895 0.42024 0.70149 -0.07300
C 	C 	0.12777 0.43082 0.71656 0.02000
C 	C 	0.17468 0.43880 0.70901 -0.09800
C 	C 	0.18144 0.43350 0.68636 0.01700
C 	C 	0.14258 0.42306 0.67129 -0.07400
H 	H 	0.86381 0.35767 0.63037 0.03000
H 	H 	0.92811 0.35099 0.65239 0.04700
H 	H 	0.04610 0.47090 0.61450 0.04800
H 	H 	0.98208 0.47847 0.59264 0.03300
H 	H 	0.05339 0.41560 0.70741 0.04700
H 	H 	0.12175 0.43385 0.73405 0.03500
H 	H 	0.21736 0.43934 0.68032 0.01500
H 	H 	0.14873 0.42080 0.65375 0.04600
C 	C 	0.47027 0.52241 0.72254 -0.09000
C 	C 	0.49445 0.56036 0.70658 0.01500
C 	C 	0.53514 0.56408 0.69446 -0.07200
C 	C 	0.55209 0.53011 0.69824 0.03800
C 	C 	0.53011 0.49420 0.71507 -0.07000
C 	C 	0.48939 0.49037 0.72721 0.01300
C 	C 	0.58794 0.52854 0.68331 -0.02300
C 	C 	0.61798 0.52734 0.67078 -0.02400
C 	C 	0.65226 0.52453 0.65531 0.04000
C 	C 	0.69027 0.51546 0.66292 -0.07400
C 	C 	0.71919 0.50608 0.64781 0.01700
C 	C 	0.70999 0.50539 0.62496 -0.09900
C 	C 	0.67342 0.51674 0.61738 0.02100
C 	C 	0.64469 0.52626 0.63251 -0.07300
H 	H 	0.48096 0.58615 0.70316 0.03000
H 	H 	0.55235 0.59230 0.68163 0.04600
H 	H 	0.54331 0.46805 0.71819 0.04700
H 	H 	0.47137 0.46115 0.73957 0.03400
H 	H 	0.69645 0.51426 0.68054 0.04600
H 	H 	0.74741 0.49756 0.65388 0.01500
H 	H 	0.66660 0.51724 0.59978 0.03500
H 	H 	0.61560 0.53361 0.62650 0.04800
