data_crystal

_cell_length_a 26.09960
_cell_length_b 26.18910
_cell_length_c 23.30212
_cell_angle_alpha 95.50658
_cell_angle_beta  95.50730
_cell_angle_gamma 125.76450

_symmetry_space_group_name_	'P 1'
_symmetry_space_group_name_H-M	'P 1'

loop_
_symmetry_equiv_pos_as_xyz
  x,y,z

loop_
_atom_site_label
_atom_site_type_symbol
_atom_site_fract_x
_atom_site_fract_y
_atom_site_fract_z
_atom_site_charge
C 	C 	0.13651 0.01666 0.43999 -0.06200
N 	N 	0.03659 0.06498 0.00159 -0.13500
C 	C 	0.06178 0.03223 0.99418 0.11100
N 	N 	0.00659 0.03708 0.43003 -0.13500
C 	C 	0.03752 0.01085 0.44207 0.11000
Cu	Cu	0.64487 0.24716 0.01014 0.92600
Cu	Cu	0.70290 0.24640 0.89166 0.86800
Cu	Cu	0.67250 0.33722 0.92306 0.89600
Cu	Cu	0.63150 0.35882 0.03244 0.89300
C 	C 	0.65604 0.30317 0.12737 0.28100
O 	O 	0.54878 0.20192 0.00454 -0.36100
C 	C 	0.66875 0.29111 0.80023 0.27800
O 	O 	0.68900 0.34441 0.00658 -0.64000
O 	O 	0.63721 0.24586 0.92438 -0.63800
O 	O 	0.69221 0.20881 0.01768 -0.37100
O 	O 	0.76185 0.27342 0.96197 -0.44300
O 	O 	0.62213 0.32139 0.10477 -0.38200
O 	O 	0.71274 0.42773 0.92725 -0.38000
C 	C 	0.70520 0.46307 0.96474 0.28200
C 	C 	0.51952 0.22319 0.97846 0.27600
O 	O 	0.55401 0.28053 0.96533 -0.39100
O 	O 	0.66165 0.43692 0.99860 -0.39300
O 	O 	0.66448 0.26557 0.09452 -0.35500
C 	C 	0.74694 0.23446 0.99919 0.28600
O 	O 	0.66627 0.33101 0.83710 -0.37400
O 	O 	0.66411 0.24192 0.81612 -0.41800
H 	H 	0.73463 0.37649 0.02582 0.16300
H 	H 	0.59335 0.21452 0.90081 0.17500
Cu	Cu	0.73514 0.33844 0.42311 0.92600
Cu	Cu	0.73701 0.27956 0.54082 0.87000
Cu	Cu	0.63813 0.29881 0.50554 0.89700
Cu	Cu	0.61808 0.34447 0.39826 0.89400
C 	C 	0.68071 0.32815 0.30536 0.28100
O 	O 	0.77666 0.43395 0.43158 -0.35600
C 	C 	0.68606 0.30768 0.63007 0.28200
O 	O 	0.63601 0.28909 0.42261 -0.63800
O 	O 	0.73213 0.34185 0.50809 -0.64000
O 	O 	0.77672 0.29405 0.41596 -0.36800
O 	O 	0.71222 0.22203 0.47026 -0.44100
O 	O 	0.65890 0.35875 0.32753 -0.38200
O 	O 	0.54592 0.25240 0.49651 -0.37800
C 	C 	0.51106 0.26168 0.46038 0.28200
C 	C 	0.75091 0.45896 0.45645 0.27600
O 	O 	0.69301 0.42101 0.46787 -0.39000
O 	O 	0.53799 0.30915 0.43087 -0.39300
O 	O 	0.72055 0.32262 0.33870 -0.35300
C 	C 	0.75155 0.23880 0.43304 0.27900
O 	O 	0.63819 0.29403 0.58993 -0.37800
O 	O 	0.73772 0.31631 0.61556 -0.41900
H 	H 	0.60647 0.24422 0.40108 0.16400
H 	H 	0.76006 0.38532 0.53269 0.17400
C 	C 	0.67259 0.29905 0.74033 -0.04900
C 	C 	0.67781 0.30405 0.68993 -0.05000
C 	C 	0.66788 0.30957 0.19000 -0.04200
C 	C 	0.67510 0.31690 0.24280 -0.04200
C 	C 	0.85744 0.63952 0.49937 0.01000
C 	C 	0.73975 0.62134 0.37919 -0.03600
C 	C 	0.77064 0.60574 0.41859 0.00900
C 	C 	0.74701 0.54170 0.41713 -0.02000
C 	C 	0.77841 0.52643 0.45630 -0.06300
C 	C 	0.83371 0.57526 0.49712 -0.02200
H 	H 	0.69706 0.58392 0.34747 0.03600
H 	H 	0.70421 0.50371 0.38572 0.02900
C 	C 	0.82490 0.13025 0.40905 -0.00000
C 	C 	0.76146 0.09995 0.41845 0.00800
C 	C 	0.72523 0.03621 0.42698 -0.03800
C 	C 	0.75253 0.00342 0.42809 -0.05300
C 	C 	0.81633 0.03383 0.42037 0.03400
C 	C 	0.84505 0.00230 0.42455 -0.06400
C 	C 	0.83595 0.22881 0.40462 -0.02500
C 	C 	0.77386 0.19967 0.41710 -0.07000
C 	C 	0.73587 0.13447 0.42148 -0.02600
H 	H 	0.67622 0.01231 0.43375 0.03500
H 	H 	0.68730 0.11140 0.42941 0.03900
C 	C 	0.31792 0.25334 0.46474 -0.03700
C 	C 	0.25145 0.21815 0.46169 -0.05100
C 	C 	0.21293 0.15106 0.45484 0.03400
C 	C 	0.24153 0.11916 0.45126 -0.02300
C 	C 	0.30851 0.15463 0.45486 0.00000
C 	C 	0.34676 0.22192 0.46126 0.01100
C 	C 	0.33719 0.12275 0.45177 0.01000
C 	C 	0.29870 0.05569 0.44488 -0.03600
C 	C 	0.23211 0.02044 0.44083 -0.05300
C 	C 	0.20321 0.05183 0.44398 0.03600
C 	C 	0.10776 0.04829 0.44429 0.00700
C 	C 	0.14623 0.11556 0.45167 -0.06100
C 	C 	0.41328 0.25689 0.46376 -0.02200
C 	C 	0.44181 0.22514 0.46032 -0.06100
C 	C 	0.40387 0.15827 0.45502 -0.02400
H 	H 	0.34693 0.30504 0.46978 0.03800
H 	H 	0.22994 0.24312 0.46450 0.04200
H 	H 	0.32025 0.03076 0.44243 0.03600
H 	H 	0.12443 0.14021 0.45545 0.05200
H 	H 	0.44285 0.30864 0.46847 0.04400
H 	H 	0.42609 0.13395 0.45227 0.03700
C 	C 	0.82715 0.62955 0.93520 0.01100
C 	C 	0.75318 0.63207 0.99008 0.01300
C 	C 	0.79308 0.56371 0.93512 -0.02500
C 	C 	0.73928 0.53187 0.96254 -0.06100
C 	C 	0.71906 0.56617 0.98932 -0.02300
H 	H 	0.69222 0.64258 0.03863 0.03700
H 	H 	0.80893 0.53755 0.91458 0.04400
H 	H 	0.67713 0.54170 0.00983 0.04200
C 	C 	0.76594 0.06777 0.05383 -0.03500
C 	C 	0.79746 0.03914 0.05315 -0.05300
C 	C 	0.85659 0.06910 0.03417 0.03600
C 	C 	0.85365 0.15827 0.01854 0.00400
C 	C 	0.79327 0.12688 0.03578 0.00600
C 	C 	0.75995 0.15385 0.03282 -0.02100
C 	C 	0.78638 0.21173 0.01231 -0.07800
C 	C 	0.84840 0.24479 0.99868 -0.01900
H 	H 	0.71988 0.04353 0.06770 0.03800
H 	H 	0.01828 0.15093 0.97719 0.05600
H 	H 	0.71268 0.12874 0.04437 0.04600
C 	C 	0.32248 0.07802 0.05534 -0.03800
C 	C 	0.25972 0.05484 0.06067 -0.05000
C 	C 	0.22757 0.07369 0.02764 0.03200
C 	C 	0.25883 0.11633 0.98909 -0.02000
C 	C 	0.32195 0.13946 0.98351 -0.00100
C 	C 	0.35395 0.12040 0.01693 0.01100
C 	C 	0.35315 0.18188 0.94478 0.01200
C 	C 	0.32093 0.20066 0.91168 -0.03800
C 	C 	0.25820 0.17765 0.91718 -0.05000
C 	C 	0.22679 0.13542 0.95572 0.03300
C 	C 	0.16324 0.11085 0.96032 -0.06000
C 	C 	0.13138 0.06670 0.99726 0.00800
C 	C 	0.16410 0.04933 0.03176 -0.06100
C 	C 	0.41746 0.14497 0.01251 -0.02800
C 	C 	0.44960 0.18915 0.97552 -0.06000
C 	C 	0.41661 0.20602 0.94047 -0.02900
H 	H 	0.34665 0.06310 0.08123 0.03800
H 	H 	0.34450 0.23328 0.88181 0.03900
H 	H 	0.23402 0.19256 0.89129 0.04200
H 	H 	0.13782 0.12407 0.93363 0.05000
H 	H 	0.44252 0.13147 0.03928 0.05000
H 	H 	0.44082 0.23903 0.91101 0.04400
C 	C 	0.85228 0.09708 0.40978 -0.02500
C 	C 	0.86172 0.19438 0.40078 0.00800
H 	H 	0.01847 0.24349 0.96742 0.04700
H 	H 	0.23608 0.02207 0.09041 0.04200
H 	H 	0.13950 0.01560 0.06059 0.05100
H 	H 	0.85757 0.56318 0.52748 0.03400
H 	H 	0.86978 0.29041 0.98464 0.03600
H 	H 	0.86508 0.27880 0.40047 0.04400
H 	H 	0.00064 0.21474 0.38424 0.04700
C 	C 	0.88515 0.12918 0.01740 -0.03000
C 	C 	0.88166 0.21782 0.00079 -0.00200
C 	C 	0.82591 0.65481 0.45987 0.00100
C 	C 	0.88667 0.03897 0.03044 -0.06300
C 	C 	0.88119 0.66164 0.90831 -0.03700
C 	C 	0.80753 0.66394 0.96321 -0.00100
H 	H 	0.89644 0.63559 0.88639 0.03700
C 	C 	0.73411 0.66671 0.01809 -0.04000
H 	H 	0.99330 0.11954 0.39841 0.05100
C 	C 	0.94213 0.00283 0.42805 0.10400
C 	C 	0.97218 0.03253 0.99930 0.10600
C 	C 	0.92474 0.22403 0.39101 -0.03500
C 	C 	0.95169 0.19090 0.39120 -0.05900
C 	C 	0.91610 0.12778 0.40146 0.03600
C 	C 	0.90956 0.03357 0.41818 0.00800
C 	C 	0.94420 0.09571 0.40493 -0.06400
H 	H 	0.95324 0.27304 0.38403 0.03600
C 	C 	0.94165 0.24862 0.98338 -0.03000
C 	C 	0.97270 0.21953 0.98183 -0.06300
C 	C 	0.94437 0.15943 0.99802 0.04200
C 	C 	0.97372 0.12853 0.99369 -0.06900
C 	C 	0.94439 0.06771 0.00879 0.00700
H 	H 	0.96382 0.29467 0.97010 0.03100
N 	N 	0.02267 0.96727 0.98466 -0.13300
C 	C 	0.85013 0.71926 0.46126 -0.02300
C 	C 	0.81962 0.73468 0.42072 0.03400
C 	C 	0.76414 0.68540 0.38019 -0.05200
C 	C 	0.84631 0.79926 0.41987 -0.06200
H 	H 	0.74014 0.69666 0.34907 0.04100
H 	H 	0.82447 0.81133 0.38724 0.05000
H 	H 	0.72424 0.95462 0.43564 0.04100
H 	H 	0.81768 0.95417 0.43383 0.05300
H 	H 	0.20305 0.96869 0.43534 0.04300
H 	H 	0.10701 0.96480 0.43346 0.05500
C 	C 	0.84288 0.73045 0.96514 -0.02200
C 	C 	0.76943 0.73282 0.02030 -0.05300
C 	C 	0.82414 0.76511 0.99434 0.03500
H 	H 	0.75442 0.75894 0.04256 0.04100
H 	H 	0.84761 0.85865 0.02203 0.04800
H 	H 	0.77538 0.99319 0.06660 0.04200
C 	C 	0.86104 0.83174 0.99826 -0.05800
N 	N 	0.00377 0.95006 0.45213 -0.13400
H 	H 	0.86480 0.99284 0.04355 0.05100
C 	C 	0.89759 0.76244 0.93874 0.03400
C 	C 	0.90345 0.84830 0.45884 0.00700
H 	H 	0.97866 0.79008 0.57397 0.04100
H 	H 	0.93654 0.67749 0.57141 0.03600
H 	H 	0.97579 0.85361 0.92194 0.05100
C 	C 	0.95842 0.93468 0.98179 0.10700
N 	N 	0.93325 0.96738 0.98884 -0.13700
C 	C 	0.93935 0.91505 0.44951 0.10500
N 	N 	0.90837 0.94137 0.43735 -0.13700
C 	C 	0.93607 0.75267 0.54216 -0.05200
C 	C 	0.91221 0.68869 0.54063 -0.03700
C 	C 	0.90568 0.76835 0.50222 0.03400
C 	C 	0.93150 0.83260 0.50142 -0.06100
H 	H 	0.97489 0.87052 0.53227 0.05000
C 	C 	0.91610 0.72764 0.90996 -0.05100
C 	C 	0.91651 0.86400 0.97318 0.00600
C 	C 	0.93381 0.82897 0.94239 -0.06100
H 	H 	0.95791 0.75175 0.88931 0.04100
