data_crystal

_cell_length_a 19.14329
_cell_length_b 17.86901
_cell_length_c 48.21691
_cell_angle_alpha 89.62160
_cell_angle_beta  89.62495
_cell_angle_gamma 119.42428

_symmetry_space_group_name_	'P 1'
_symmetry_space_group_name_H-M	'P 1'

loop_
_symmetry_equiv_pos_as_xyz
  x,y,z

loop_
_atom_site_label
_atom_site_type_symbol
_atom_site_fract_x
_atom_site_fract_y
_atom_site_fract_z
_atom_site_charge
O 	O 	0.03371 0.88716 0.74434 -0.33800
O 	O 	0.03094 0.19646 0.70040 -0.34500
O 	O 	0.02756 0.92480 0.26075 -0.36600
O 	O 	0.04385 0.20895 0.23677 -0.34900
O 	O 	0.03927 0.89647 0.20486 -0.37600
H 	H 	0.02211 0.04968 0.24683 0.15300
S 	S 	0.00058 0.18483 0.12066 0.07200
S 	S 	0.04758 0.22002 0.30479 0.04200
H 	H 	0.02954 0.23936 0.36482 0.06000
C 	C 	0.01261 0.44917 0.45677 0.02400
C 	C 	0.03189 0.66914 0.46052 0.14200
C 	C 	0.02175 0.58705 0.97238 0.03500
O 	O 	0.06525 0.95219 0.68515 -0.35700
O 	O 	0.06574 0.19453 0.75621 -0.36100
O 	O 	0.06262 0.05863 0.72820 -0.69900
H 	H 	0.06273 0.05878 0.74859 0.16000
C 	C 	0.05397 0.15977 0.17125 0.34200
C 	C 	0.10205 0.21326 0.25270 0.28700
C 	C 	0.07616 0.93979 0.18229 0.31300
C 	C 	0.10593 0.97991 0.26202 0.27400
C 	C 	0.03887 0.17584 0.09062 -0.01600
C 	C 	0.03026 0.21030 0.06557 0.00100
C 	C 	0.06957 0.18478 0.14174 -0.08300
H 	H 	0.06693 0.32730 0.02300 0.05800
C 	C 	0.06349 0.68679 0.13943 0.00500
C 	C 	0.05362 0.81588 0.15226 0.03700
C 	C 	0.10823 0.24330 0.33171 0.00200
C 	C 	0.09050 0.25799 0.35863 -0.05000
H 	H 	0.09153 0.33592 0.40846 0.05800
C 	C 	0.04779 0.53994 0.45681 -0.02700
C 	C 	0.06085 0.40869 0.46190 0.09700
N 	N 	0.05856 0.74294 0.45950 -0.10800
C 	C 	0.03879 0.56067 0.99766 -0.04100
C 	C 	0.08408 0.66175 0.95782 0.09500
N 	N 	0.00787 0.43889 0.05899 -0.08000
O 	O 	0.01266 0.03990 0.22683 -0.69600
H 	H 	0.01712 0.89595 0.62558 0.08900
Ni	Ni	0.11952 0.99925 0.72274 1.11000
Ni	Ni	0.11460 0.18016 0.72126 1.12300
C 	C 	0.13647 0.59536 0.45462 0.29100
Ni	Ni	0.12112 0.09552 0.21419 1.12200
O 	O 	0.10465 0.02303 0.18072 -0.38300
O 	O 	0.11450 0.18170 0.18815 -0.37900
O 	O 	0.14840 0.02138 0.23941 -0.36400
O 	O 	0.15065 0.18475 0.24406 -0.37300
C 	C 	0.08989 0.23367 0.04499 0.00800
C 	C 	0.10930 0.17278 0.09639 0.02900
C 	C 	0.10613 0.29988 0.02520 -0.00500
C 	C 	0.11432 0.65103 0.13909 -0.02100
C 	C 	0.09754 0.77507 0.14388 -0.01400
S 	S 	0.10184 0.57340 0.11769 0.06200
C 	C 	0.10322 0.89948 0.16191 -0.08800
C 	C 	0.15475 0.30305 0.37672 0.02400
C 	C 	0.11729 0.25634 0.27948 -0.07100
C 	C 	0.14822 0.34338 0.40109 -0.01400
C 	C 	0.14798 0.98439 0.28786 -0.07200
N 	N 	0.09797 0.37497 0.46653 -0.09900
N 	N 	0.13372 0.72123 0.94620 -0.09600
C 	C 	0.12391 0.59189 0.00496 0.30500
O 	O 	0.18537 0.06006 0.75774 -0.35800
O 	O 	0.16077 0.17489 0.68388 -0.37200
O 	O 	0.18195 0.58658 0.47321 -0.35200
O 	O 	0.16855 0.65495 0.43509 -0.37200
O 	O 	0.16729 0.67038 0.01453 -0.37200
O 	O 	0.15877 0.55049 0.99480 -0.37700
C 	C 	0.12562 0.17585 0.12527 -0.01300
C 	C 	0.18019 0.82603 0.14725 0.01500
C 	C 	0.18719 0.28360 0.32155 0.01900
C 	C 	0.19245 0.29052 0.29226 -0.01600
S 	S 	0.24736 0.03927 0.29183 0.03600
C 	C 	0.11154 0.96340 0.31411 -0.01700
H 	H 	0.04731 0.92562 0.31743 0.05200
H 	H 	0.18700 0.20866 0.62869 0.05600
H 	H 	0.16215 0.07187 0.81691 0.05300
C 	C 	0.21073 0.14261 0.76230 0.28400
C 	C 	0.20312 0.13625 0.67964 0.30700
O 	O 	0.21394 0.19470 0.74186 -0.36600
O 	O 	0.21501 0.09429 0.69989 -0.36400
O 	O 	0.19084 0.52219 0.41454 -0.37900
O 	O 	0.19719 0.60711 0.06394 -0.38000
C 	C 	0.15581 0.22076 0.04954 0.01200
C 	C 	0.16833 0.19471 0.07573 -0.05500
C 	C 	0.18613 0.34359 0.01563 -0.06900
H 	H 	0.17697 0.17358 0.13359 0.04700
C 	C 	0.19761 0.70248 0.14329 0.02800
C 	C 	0.19774 0.59887 0.11326 -0.08000
S 	S 	0.19793 0.91825 0.16106 0.02500
C 	C 	0.22254 0.40883 0.41042 -0.05600
C 	C 	0.21588 0.16956 0.62822 -0.01400
H 	H 	0.02787 0.80179 0.58500 0.07700
C 	C 	0.23424 0.33668 0.36714 0.00400
C 	C 	0.23011 0.48456 0.42456 0.28500
Ni	Ni	0.24320 0.65010 0.40615 1.12200
C 	C 	0.22805 0.59225 0.08600 0.31300
C 	C 	0.22882 0.43746 0.01575 0.30700
O 	O 	0.24469 0.47540 0.03974 -0.37300
C 	C 	0.23015 0.79003 0.14931 -0.06300
C 	C 	0.24357 0.67079 0.12972 -0.02100
C 	C 	0.25139 0.33282 0.33909 -0.05100
H 	H 	0.24856 0.31621 0.28081 0.04900
C 	C 	0.16799 0.99160 0.33588 0.00600
C 	C 	0.24814 0.03697 0.32642 0.01300
C 	C 	0.23740 0.14369 0.60337 0.02100
C 	C 	0.23902 0.14255 0.65208 -0.07100
H 	H 	0.22349 0.23000 0.57513 0.05600
N 	N 	0.21709 0.90486 0.98379 -0.10300
C 	C 	0.24366 0.17813 0.78956 -0.06600
C 	C 	0.20728 0.13897 0.81483 -0.02100
H 	H 	0.19250 0.10072 0.87077 0.05700
O 	O 	0.26471 0.50519 0.44935 -0.34900
Ni	Ni	0.26530 0.70753 0.03845 1.12100
O 	O 	0.25965 0.48227 0.99267 -0.36100
S 	S 	0.23050 0.29229 0.02987 0.03700
H 	H 	0.22580 0.20024 0.08071 0.05300
C 	C 	0.30993 0.03746 0.34195 -0.06100
H 	H 	0.08800 0.91258 0.36891 0.05300
H 	H 	0.36839 0.05839 0.33263 0.05300
C 	C 	0.24623 0.18561 0.57786 -0.04700
C 	C 	0.23263 0.16727 0.86510 -0.04800
C 	C 	0.23845 0.19565 0.83756 0.02200
Ni	Ni	0.30339 0.62509 0.46780 1.11400
O 	O 	0.27726 0.77067 0.39311 -0.38200
Ni	Ni	0.27703 0.60430 0.98685 1.12300
O 	O 	0.29820 0.59620 0.08419 -0.36700
H 	H 	0.29382 0.83020 0.15283 0.04900
H 	H 	0.30800 0.70923 0.12724 0.04900
S 	S 	0.29251 0.41658 0.38783 0.03200
C 	C 	0.14970 0.95446 0.36249 -0.04100
N 	N 	0.25294 0.88090 0.47450 -0.10100
C 	C 	0.29363 0.17729 0.55720 0.00100
C 	C 	0.27517 0.09429 0.60791 0.00200
S 	S 	0.28232 0.08536 0.64211 0.03700
C 	C 	0.28594 0.22475 0.88448 -0.00100
O 	O 	0.30585 0.63724 0.37453 -0.37800
O 	O 	0.31509 0.64875 0.02251 -0.71900
H 	H 	0.31179 0.37118 0.33090 0.05000
C 	C 	0.21299 0.96476 0.37938 -0.01400
C 	C 	0.29190 0.00183 0.36886 0.04300
H 	H 	0.39584 0.98202 0.37415 0.04700
N 	N 	0.35496 0.42117 0.44934 -0.10000
C 	C 	0.28214 0.92192 0.97814 0.09800
C 	C 	0.29739 0.27931 0.82973 0.00100
S 	S 	0.31046 0.28093 0.79543 0.03500
O 	O 	0.33375 0.74131 0.48747 -0.35600
O 	O 	0.32638 0.67343 0.43173 -0.71100
H 	H 	0.34393 0.63545 0.42330 0.13900
Ni	Ni	0.34840 0.58909 0.04641 1.11600
O 	O 	0.29289 0.72108 0.97275 -0.35700
O 	O 	0.32692 0.80623 0.01215 -0.37300
C 	C 	0.33909 0.97172 0.38254 -0.02800
C 	C 	0.31779 0.90918 0.48252 0.09600
C 	C 	0.33017 0.09470 0.58855 -0.05100
S 	S 	0.34413 0.25300 0.53347 0.05500
N 	N 	0.34416 0.52014 0.92263 -0.11300
S 	S 	0.31401 0.19385 0.91286 0.05400
C 	C 	0.31266 0.83927 0.40882 0.30600
C 	C 	0.33703 0.79679 0.98536 0.27800
O 	O 	0.35501 0.76077 0.06732 -0.37300
S 	S 	0.20337 0.89477 0.40394 0.05700
C 	C 	0.29679 0.91014 0.40336 -0.06700
C 	C 	0.33883 0.13634 0.56288 0.02500
H 	H 	0.36740 0.69763 0.01707 0.16000
H 	H 	0.37009 0.07036 0.59417 0.05300
C 	C 	0.35765 0.33165 0.84818 -0.05100
C 	C 	0.35078 0.30412 0.87594 0.02700
H 	H 	0.06575 0.26715 0.80512 0.04000
C 	C 	0.38309 0.69169 0.37012 0.29000
C 	C 	0.36366 0.94328 0.97107 -0.00300
H 	H 	0.04749 0.31715 0.85427 0.07700
C 	C 	0.40380 0.81077 0.48317 0.30000
O 	O 	0.37467 0.85371 0.42430 -0.38000
C 	C 	0.39892 0.94448 0.49267 -0.00800
C 	C 	0.42128 0.47446 0.45043 0.08500
N 	N 	0.39193 0.15048 0.98231 -0.10400
C 	C 	0.40510 0.54117 0.93317 0.09400
C 	C 	0.01768 0.75381 0.60075 -0.10900
N 	N 	0.39877 0.13460 0.47421 -0.10000
C 	C 	0.41011 0.16896 0.54659 -0.02000
O 	O 	0.42163 0.64965 0.47223 -0.35600
O 	O 	0.40936 0.56519 0.01407 -0.36200
O 	O 	0.39166 0.63862 0.97718 -0.36900
C 	C 	0.42162 0.68140 0.34536 -0.06800
C 	C 	0.42239 0.23718 0.52883 -0.06500
C 	C 	0.38306 0.87703 0.96842 -0.05000
C 	C 	0.40586 0.27844 0.91622 -0.06900
H 	H 	0.41105 0.38851 0.84078 0.05600
C 	C 	0.42925 0.77285 0.06415 0.28600
C 	C 	0.42841 0.88902 0.49975 -0.05800
C 	C 	0.42132 0.09053 0.48352 0.09700
C 	C 	0.40643 0.09757 0.97552 0.09300
C 	C 	0.41779 0.33419 0.89381 -0.02100
Ni	Ni	0.42435 0.77705 0.42506 1.12200
O 	O 	0.42003 0.76582 0.38328 -0.38300
C 	C 	0.43230 0.60578 0.98959 0.29200
O 	O 	0.44182 0.70910 0.05643 -0.36300
H 	H 	0.44061 0.82567 0.11866 0.04300
C 	C 	0.42347 0.03022 0.96739 0.00600
O 	O 	0.45450 0.81022 0.46499 -0.37000
S 	S 	0.49162 0.65150 0.34762 0.02100
C 	C 	0.44887 0.03429 0.49484 0.01100
H 	H 	0.45785 0.15519 0.55154 0.04600
C 	C 	0.47065 0.65657 0.45154 0.28300
C 	C 	0.44268 0.73876 0.32280 -0.01600
C 	C 	0.48144 0.56734 0.94632 0.00600
C 	C 	0.47224 0.26791 0.92656 0.29900
O 	O 	0.48257 0.70810 0.42974 -0.36900
C 	C 	0.45783 0.89673 0.95653 -0.00200
H 	H 	0.47713 0.38283 0.88722 0.05400
C 	C 	0.00991 0.20955 0.81021 0.05200
H 	H 	0.41675 0.78016 0.31978 0.04700
C 	C 	0.50488 0.53819 0.45263 -0.00300
C 	C 	0.49527 0.84688 0.07746 -0.06900
O 	O 	0.48744 0.21200 0.91457 -0.37700
C 	C 	0.49523 0.85623 0.10632 -0.01800
C 	C 	0.47165 0.82826 0.94718 0.08500
C 	C 	0.49600 0.60033 0.97360 -0.05600
C 	C 	0.50293 0.31010 0.52488 0.29400
C 	C 	0.49733 0.92010 0.51626 -0.00500
O 	O 	0.50494 0.30134 0.95059 -0.36300
N 	N 	0.53905 0.36783 0.43553 -0.12000
C 	C 	0.50078 0.05102 0.95741 -0.04800
N 	N 	0.48353 0.77442 0.93935 -0.10300
C 	C 	0.51364 0.75284 0.30887 0.01700
C 	C 	0.52073 0.86052 0.52768 0.09600
C 	C 	0.52820 0.62558 0.45658 -0.05600
C 	C 	0.54840 0.43093 0.44539 0.08000
O 	O 	0.53719 0.36024 0.54605 -0.36700
O 	O 	0.53254 0.33517 0.49963 -0.36500
H 	H 	0.53509 0.85296 0.16122 0.04700
H 	H 	0.53867 0.86891 0.28614 0.04700
C 	C 	0.52581 0.06797 0.50746 -0.06200
C 	C 	0.51778 0.98359 0.95211 -0.01300
C 	C 	0.53982 0.55496 0.93250 -0.00000
C 	C 	0.54163 0.55385 0.90258 0.09100
N 	N 	0.54294 0.55400 0.87860 -0.11600
N 	N 	0.53938 0.81289 0.53677 -0.10600
C 	C 	0.56002 0.51001 0.45765 0.00700
C 	C 	0.01043 0.76944 0.62872 0.12400
C 	C 	0.54730 0.70514 0.32027 0.00300
C 	C 	0.54437 0.00922 0.52117 0.01200
C 	C 	0.56067 0.14225 0.94970 0.28300
C 	C 	0.56116 0.82667 0.29273 -0.05400
O 	O 	0.57408 0.21126 0.48783 -0.37400
C 	C 	0.57194 0.88717 0.11826 0.01700
C 	C 	0.57095 0.62487 0.98583 0.00200
O 	O 	0.58143 0.32576 0.86984 -0.38000
O 	O 	0.58317 0.20362 0.96876 -0.35700
C 	C 	0.58103 0.86673 0.14565 -0.05300
C 	C 	0.58767 0.16260 0.50494 0.29400
S 	S 	0.59034 0.88137 0.06767 0.04100
C 	C 	0.59242 0.67200 0.01160 0.08500
Ni	Ni	0.59960 0.24863 0.89824 1.11100
O 	O 	0.59875 0.15807 0.92551 -0.36900
C 	C 	0.60269 0.68012 0.46916 0.00200
C 	C 	0.59789 0.00339 0.94356 0.10400
C 	C 	0.60369 0.55832 0.94756 -0.06100
C 	C 	0.60835 0.03909 0.54124 0.09100
N 	N 	0.60957 0.70962 0.03217 -0.11100
S 	S 	0.61316 0.50191 0.82597 0.03600
Ni	Ni	0.61899 0.33171 0.96146 1.11900
C 	C 	0.62499 0.55768 0.47520 -0.06600
H 	H 	0.61343 0.12268 0.60236 0.05300
C 	C 	0.62907 0.77073 0.47243 0.09700
C 	C 	0.62498 0.60362 0.97274 0.00500
C 	C 	0.63136 0.49569 0.94171 0.29400
Ni	Ni	0.63671 0.34017 0.48706 1.12200
C 	C 	0.63328 0.90696 0.09845 -0.00200
C 	C 	0.62965 0.73359 0.31766 -0.05500
C 	C 	0.63372 0.42222 0.83074 -0.07700
C 	C 	0.64093 0.39536 0.85884 0.31100
O 	O 	0.64106 0.45433 0.96288 -0.37000
C 	C 	0.64031 0.28782 0.58759 0.30400
O 	O 	0.63629 0.24509 0.56511 -0.39100
C 	C 	0.64006 0.84675 0.28687 0.00200
C 	C 	0.64079 0.17248 0.61773 -0.02300
C 	C 	0.64659 0.85560 0.15158 -0.00000
C 	C 	0.64942 0.64505 0.47969 0.00700
N 	N 	0.65007 0.84304 0.47504 -0.10500
C 	C 	0.64666 0.25360 0.61469 -0.07400
C 	C 	0.00067 0.67108 0.59321 0.08600
O 	O 	0.65712 0.33351 0.92460 -0.71000
C 	C 	0.65695 0.51238 0.49216 0.30200
O 	O 	0.65584 0.36816 0.58582 -0.36400
H 	H 	0.99995 0.64752 0.13551 0.01500
C 	C 	0.99367 0.46301 0.03860 0.04700
C 	C 	0.99343 0.25543 0.85662 -0.07700
C 	C 	0.99856 0.83773 0.63766 -0.11600
H 	H 	0.77956 0.05313 0.85490 0.05300
S 	S 	0.87958 0.07417 0.80641 0.03000
H 	H 	0.98330 0.22705 0.06330 0.01900
C 	C 	0.77872 0.31654 0.89195 0.28300
C 	C 	0.79522 0.44352 0.96633 0.28200
Ni	Ni	0.73416 0.44562 0.91096 1.12300
O 	O 	0.70868 0.27759 0.87900 -0.36600
O 	O 	0.80611 0.39394 0.90304 -0.36100
O 	O 	0.78345 0.49084 0.94810 -0.37400
O 	O 	0.71217 0.43009 0.86980 -0.38100
O 	O 	0.73231 0.37237 0.97651 -0.36000
O 	O 	0.65865 0.49269 0.91665 -0.37900
H 	H 	0.69234 0.31136 0.93088 0.14600
C 	C 	0.82855 0.47103 0.56074 0.28900
C 	C 	0.80634 0.37563 0.48292 0.27700
Ni	Ni	0.66012 0.43291 0.54892 1.11500
Ni	Ni	0.72404 0.29634 0.53601 1.12000
O 	O 	0.78250 0.50582 0.55570 -0.36000
O 	O 	0.79706 0.38657 0.56378 -0.37800
O 	O 	0.81204 0.34283 0.50704 -0.37200
O 	O 	0.73627 0.34397 0.46993 -0.36100
O 	O 	0.66007 0.52082 0.51956 -0.35400
O 	O 	0.68432 0.46682 0.47961 -0.37800
O 	O 	0.66151 0.18943 0.51330 -0.37400
O 	O 	0.68282 0.36758 0.52303 -0.71000
H 	H 	0.73378 0.41678 0.51688 0.14100
C 	C 	0.98898 0.89665 0.68324 0.26900
C 	C 	0.96707 0.87498 0.75757 0.26300
C 	C 	0.97485 0.13739 0.68476 0.27300
C 	C 	0.99001 0.14094 0.76330 0.26600
Ni	Ni	0.95047 0.00029 0.72259 1.11500
O 	O 	0.95967 0.05765 0.68606 -0.39100
O 	O 	0.93707 0.89511 0.70157 -0.37800
O 	O 	0.93728 0.08947 0.74474 -0.38100
O 	O 	0.94388 0.93354 0.75721 -0.39100
C 	C 	0.86194 0.96170 0.26720 0.28400
C 	C 	0.84515 0.93126 0.19100 0.30600
Ni	Ni	0.94969 0.09284 0.22231 1.10400
Ni	Ni	0.96206 0.91803 0.22741 1.10500
O 	O 	0.90282 0.04529 0.26154 -0.38100
O 	O 	0.86691 0.90418 0.25102 -0.38100
O 	O 	0.98116 0.13089 0.18125 -0.40600
O 	O 	0.84527 0.98829 0.20809 -0.37800
O 	O 	0.90117 0.90903 0.19215 -0.39500
C 	C 	0.70158 0.90096 0.10510 -0.05100
C 	C 	0.70801 0.87605 0.13212 0.01700
S 	S 	0.68336 0.86067 0.18291 0.03100
C 	C 	0.77605 0.88369 0.17322 -0.07900
C 	C 	0.78129 0.89201 0.14422 -0.01800
H 	H 	0.74744 0.91380 0.08959 0.04900
H 	H 	0.83789 0.92181 0.13294 0.03900
H 	H 	0.98905 0.78188 0.15507 0.01000
C 	C 	0.67521 0.80379 0.29996 0.01800
S 	S 	0.71276 0.94135 0.27587 0.02100
C 	C 	0.79148 0.93037 0.28543 -0.07100
C 	C 	0.76019 0.85028 0.29919 -0.02100
H 	H 	0.65779 0.70521 0.33007 0.04800
H 	H 	0.79716 0.82385 0.30638 0.03800
N 	N 	0.65952 0.06253 0.55722 -0.11900
C 	C 	0.92865 0.39803 0.45764 -0.02400
C 	C 	0.88174 0.43284 0.46763 -0.05800
C 	C 	0.91739 0.52337 0.46993 0.01200
C 	C 	0.99840 0.57665 0.46179 -0.06400
C 	C 	0.87523 0.56119 0.48385 0.06900
C 	C 	0.89123 0.30777 0.45073 0.09200
N 	N 	0.86134 0.23570 0.44521 -0.11100
N 	N 	0.84333 0.59311 0.49516 -0.10100
C 	C 	0.72312 0.69898 0.49428 0.09600
N 	N 	0.78198 0.74206 0.50593 -0.10600
C 	C 	0.77945 0.12488 0.65755 0.00200
C 	C 	0.71452 0.10795 0.64057 -0.05500
C 	C 	0.68808 0.16852 0.63964 0.02200
C 	C 	0.72948 0.24608 0.65419 -0.00300
C 	C 	0.80136 0.26777 0.66787 -0.05200
C 	C 	0.82469 0.20486 0.67014 0.01600
S 	S 	0.83734 0.08049 0.65413 0.02700
C 	C 	0.91986 0.15735 0.66932 -0.07100
C 	C 	0.90334 0.22280 0.67718 -0.02200
S 	S 	0.70987 0.31715 0.63894 0.03300
H 	H 	0.68866 0.05234 0.62724 0.05500
H 	H 	0.84013 0.33273 0.67487 0.04500
H 	H 	0.94548 0.28000 0.68806 0.04300
C 	C 	0.98731 0.70374 0.64861 -0.06500
C 	C 	0.96284 0.61936 0.64085 -0.01300
C 	C 	0.96997 0.60318 0.61284 -0.04600
S 	S 	0.95084 0.72995 0.67588 0.02600
C 	C 	0.96491 0.82495 0.66440 -0.04400
S 	S 	0.96185 0.62898 0.56281 -0.00200
C 	C 	0.90741 0.52608 0.57253 -0.06900
C 	C 	0.91973 0.52182 0.60099 0.00000
H 	H 	0.93194 0.56683 0.65557 0.03500
H 	H 	0.88112 0.46578 0.61356 0.04200
C 	C 	0.94564 0.53923 0.96047 -0.03000
C 	C 	0.87983 0.47602 0.97655 -0.04900
C 	C 	0.89573 0.45390 0.00325 -0.00300
C 	C 	0.97592 0.49304 0.01301 -0.01500
C 	C 	0.83089 0.39221 0.02076 0.09500
C 	C 	0.93641 0.55363 0.93140 0.08700
N 	N 	0.93028 0.56653 0.90823 -0.12600
N 	N 	0.77928 0.34299 0.03484 -0.11000
N 	N 	0.66180 0.01915 0.93673 -0.11200
C 	C 	0.70245 0.62894 0.98485 0.09500
N 	N 	0.76432 0.64907 0.99450 -0.10700
C 	C 	0.90008 0.11449 0.83826 0.00800
C 	C 	0.84055 0.10516 0.85710 -0.05500
C 	C 	0.85796 0.17153 0.87584 0.02100
C 	C 	0.93531 0.24418 0.87638 0.00400
C 	C 	0.97463 0.19107 0.83702 -0.02000
C 	C 	0.96134 0.15040 0.79047 -0.10800
S 	S 	0.92561 0.32564 0.88829 0.02700
C 	C 	0.82690 0.27370 0.89387 -0.06900
C 	C 	0.79748 0.18814 0.88613 -0.01700
H 	H 	0.73411 0.14388 0.88339 0.05000
C 	C 	0.67219 0.55045 0.79879 0.00100
C 	C 	0.70873 0.63924 0.79400 -0.05300
C 	C 	0.78146 0.67929 0.77918 0.01900
C 	C 	0.81661 0.63147 0.76961 0.00100
C 	C 	0.78649 0.54576 0.77797 -0.05300
C 	C 	0.71260 0.50477 0.79239 0.01700
C 	C 	0.68986 0.43206 0.80998 -0.01500
S 	S 	0.91286 0.70002 0.76247 0.01800
C 	C 	0.91341 0.79128 0.77084 -0.06400
C 	C 	0.83545 0.76881 0.77982 -0.02500
H 	H 	0.68486 0.67690 0.80349 0.05100
H 	H 	0.82181 0.51402 0.77517 0.04800
H 	H 	0.72438 0.39890 0.81101 0.04800
H 	H 	0.81800 0.81539 0.78620 0.04600
