data_crystal

_cell_length_a 17.00636
_cell_length_b 16.66634
_cell_length_c 17.82688
_cell_angle_alpha 90.00000
_cell_angle_beta  90.00000
_cell_angle_gamma 120.51371

_symmetry_space_group_name_	'P 1'
_symmetry_space_group_name_H-M	'P 1'

loop_
_symmetry_equiv_pos_as_xyz
  x,y,z

loop_
_atom_site_label
_atom_site_type_symbol
_atom_site_fract_x
_atom_site_fract_y
_atom_site_fract_z
_atom_site_charge
C 	C 	0.12868 0.56317 0.29373 0.28000
C 	C 	0.43229 0.56380 0.46087 0.28700
C 	C 	0.13105 0.56417 0.46077 0.28700
C 	C 	0.43388 0.56291 0.29387 0.28000
C 	C 	0.43322 0.86760 0.46098 0.28700
C 	C 	0.43461 0.87006 0.29336 0.28000
Ni	Ni	0.26489 0.53023 0.37735 1.11200
Ni	Ni	0.46138 0.73163 0.37733 1.12000
Ni	Ni	0.26939 0.73205 0.37710 1.11900
O 	O 	0.17000 0.51417 0.29607 -0.35600
O 	O 	0.17594 0.65524 0.29681 -0.36100
O 	O 	0.47709 0.82169 0.45915 -0.36600
O 	O 	0.34288 0.51560 0.45985 -0.35600
O 	O 	0.47538 0.65509 0.45935 -0.36000
O 	O 	0.34440 0.82516 0.29659 -0.36500
O 	O 	0.17265 0.51612 0.45994 -0.35600
O 	O 	0.17871 0.65555 0.45900 -0.36000
O 	O 	0.47966 0.82475 0.29678 -0.36600
O 	O 	0.34377 0.51400 0.29613 -0.35600
O 	O 	0.47835 0.65491 0.29707 -0.36100
O 	O 	0.34362 0.82255 0.45876 -0.36500
O 	O 	0.33052 0.66192 0.36773 -0.70300
H 	H 	0.33054 0.66185 0.31226 0.14200
C 	C 	0.56694 0.43923 0.20614 0.28000
C 	C 	0.86976 0.43797 0.03922 0.28700
C 	C 	0.56852 0.43835 0.03915 0.28700
C 	C 	0.87215 0.43897 0.20626 0.28000
C 	C 	0.56759 0.13455 0.03902 0.28700
C 	C 	0.56622 0.13208 0.20663 0.28000
Ni	Ni	0.73592 0.47191 0.12265 1.11200
Ni	Ni	0.73142 0.27010 0.12289 1.11900
Ni	Ni	0.53944 0.27052 0.12268 1.12000
O 	O 	0.65705 0.48814 0.20388 -0.35600
O 	O 	0.52247 0.34723 0.20295 -0.36100
O 	O 	0.65719 0.17960 0.04123 -0.36500
O 	O 	0.82816 0.48603 0.04006 -0.35600
O 	O 	0.82210 0.34660 0.04098 -0.36000
O 	O 	0.52116 0.17739 0.20322 -0.36600
O 	O 	0.65793 0.48655 0.04016 -0.35600
O 	O 	0.52542 0.34706 0.04067 -0.36100
O 	O 	0.65643 0.17699 0.20340 -0.36500
O 	O 	0.83081 0.48797 0.20393 -0.35600
O 	O 	0.82489 0.34691 0.20317 -0.36100
O 	O 	0.52373 0.18046 0.04085 -0.36600
O 	O 	0.67029 0.34023 0.13228 -0.70300
H 	H 	0.67028 0.34030 0.18774 0.14200
C 	C 	0.96171 0.48235 0.51148 -0.02800
C 	C 	0.03909 0.51980 0.48851 -0.02800
C 	C 	0.96245 0.48267 0.23706 -0.02600
C 	C 	0.03837 0.51948 0.26293 -0.02600
C 	C 	0.48085 0.96227 0.26277 -0.02600
C 	C 	0.51997 0.03988 0.23722 -0.02600
C 	C 	0.48043 0.96152 0.48862 -0.02800
C 	C 	0.52039 0.04062 0.51138 -0.02800
C 	C 	0.52061 0.48253 0.51147 -0.02800
C 	C 	0.48020 0.51962 0.48854 -0.02800
C 	C 	0.52014 0.48282 0.23703 -0.02600
C 	C 	0.48068 0.51932 0.26299 -0.02600
C 	C 	0.12868 0.56317 0.79373 0.28000
C 	C 	0.43229 0.56380 0.96087 0.28700
C 	C 	0.13105 0.56417 0.96077 0.28700
C 	C 	0.43388 0.56291 0.79387 0.28000
C 	C 	0.43322 0.86760 0.96098 0.28700
C 	C 	0.43461 0.87006 0.79336 0.28000
Ni	Ni	0.26489 0.53023 0.87735 1.11200
Ni	Ni	0.46138 0.73163 0.87733 1.12000
Ni	Ni	0.26939 0.73205 0.87710 1.11900
O 	O 	0.17000 0.51417 0.79607 -0.35600
O 	O 	0.17594 0.65524 0.79681 -0.36100
O 	O 	0.47709 0.82169 0.95915 -0.36600
O 	O 	0.34288 0.51560 0.95985 -0.35600
O 	O 	0.47538 0.65509 0.95935 -0.36100
O 	O 	0.34440 0.82516 0.79659 -0.36500
O 	O 	0.17265 0.51612 0.95994 -0.35600
O 	O 	0.17871 0.65555 0.95900 -0.36000
O 	O 	0.47966 0.82475 0.79678 -0.36600
O 	O 	0.34377 0.51400 0.79613 -0.35600
O 	O 	0.47835 0.65491 0.79707 -0.36100
O 	O 	0.34362 0.82255 0.95876 -0.36500
O 	O 	0.33052 0.66192 0.86772 -0.70300
H 	H 	0.33054 0.66185 0.81226 0.14200
C 	C 	0.56694 0.43924 0.70614 0.28000
C 	C 	0.86976 0.43797 0.53922 0.28700
C 	C 	0.56852 0.43835 0.53915 0.28700
C 	C 	0.87215 0.43897 0.70626 0.28000
C 	C 	0.56759 0.13455 0.53902 0.28700
C 	C 	0.56622 0.13208 0.70663 0.28000
Ni	Ni	0.73592 0.47191 0.62265 1.11200
Ni	Ni	0.73142 0.27010 0.62289 1.11900
Ni	Ni	0.53944 0.27052 0.62268 1.12000
O 	O 	0.65705 0.48814 0.70388 -0.35600
O 	O 	0.52247 0.34723 0.70295 -0.36100
O 	O 	0.65719 0.17960 0.54123 -0.36500
O 	O 	0.82816 0.48603 0.54006 -0.35600
O 	O 	0.82210 0.34660 0.54098 -0.36000
O 	O 	0.52116 0.17739 0.70322 -0.36600
O 	O 	0.65793 0.48655 0.54016 -0.35600
O 	O 	0.52542 0.34706 0.54067 -0.36000
O 	O 	0.65643 0.17699 0.70340 -0.36500
O 	O 	0.83081 0.48797 0.70393 -0.35600
O 	O 	0.82489 0.34691 0.70317 -0.36100
O 	O 	0.52373 0.18046 0.54085 -0.36600
O 	O 	0.67030 0.34023 0.63228 -0.70300
H 	H 	0.67028 0.34030 0.68774 0.14200
C 	C 	0.96171 0.48235 0.01148 -0.02800
C 	C 	0.03909 0.51980 0.98851 -0.02800
C 	C 	0.96245 0.48267 0.73706 -0.02600
C 	C 	0.03837 0.51948 0.76293 -0.02600
C 	C 	0.48085 0.96227 0.76277 -0.02600
C 	C 	0.51997 0.03988 0.73723 -0.02600
C 	C 	0.48043 0.96152 0.98862 -0.02800
C 	C 	0.52039 0.04062 0.01138 -0.02800
C 	C 	0.52061 0.48253 0.01147 -0.02900
C 	C 	0.48020 0.51962 0.98854 -0.02900
C 	C 	0.52014 0.48282 0.73703 -0.02600
C 	C 	0.48068 0.51932 0.76299 -0.02600
