data_crystal

_cell_length_a 30.71250
_cell_length_b 31.21732
_cell_length_c 34.86260
_cell_angle_alpha 95.54416
_cell_angle_beta  95.54290
_cell_angle_gamma 125.54806

_symmetry_space_group_name_	'P 1'
_symmetry_space_group_name_H-M	'P 1'

loop_
_symmetry_equiv_pos_as_xyz
  x,y,z

loop_
_atom_site_label
_atom_site_type_symbol
_atom_site_fract_x
_atom_site_fract_y
_atom_site_fract_z
_atom_site_charge
C 	C 	0.97713 0.02779 0.99574 0.03600
C 	C 	0.94607 0.97255 0.99566 -0.07800
C 	C 	0.97043 0.94607 0.99395 0.03600
C 	C 	0.02606 0.97499 0.99274 -0.08000
C 	C 	0.05729 0.03018 0.99290 0.03400
C 	C 	0.03280 0.05658 0.99438 -0.08100
H 	H 	0.90299 0.95020 0.99654 0.05000
H 	H 	0.04495 0.95453 0.99144 0.05100
H 	H 	0.05683 0.09921 0.99423 0.05000
C 	C 	0.94141 0.99828 0.45108 0.03100
C 	C 	0.99748 0.02871 0.45082 -0.07300
C 	C 	0.02485 0.00528 0.45410 0.02700
C 	C 	0.99605 0.95127 0.45755 -0.07200
C 	C 	0.94008 0.92070 0.45801 0.03000
C 	C 	0.91271 0.94418 0.45460 -0.07600
H 	H 	0.01987 0.07066 0.44862 0.04800
H 	H 	0.01713 0.93304 0.45983 0.04800
H 	H 	0.86942 0.92059 0.45492 0.05000
Cu	Cu	0.65477 0.25886 0.99688 0.92700
Cu	Cu	0.69990 0.26903 0.91455 0.86600
Cu	Cu	0.67765 0.34365 0.94827 0.89500
Cu	Cu	0.65207 0.35523 0.02719 0.89300
C 	C 	0.67323 0.29691 0.07932 0.29700
O 	O 	0.57514 0.22522 0.99740 -0.36600
C 	C 	0.67022 0.31762 0.86329 0.29400
O 	O 	0.69608 0.34226 0.00206 -0.64000
O 	O 	0.64593 0.26591 0.94147 -0.64200
O 	O 	0.68946 0.22162 0.99196 -0.37700
O 	O 	0.75021 0.28148 0.95832 -0.44400
O 	O 	0.64540 0.31590 0.07080 -0.38500
O 	O 	0.71417 0.42026 0.95702 -0.38600
C 	C 	0.71330 0.44904 0.98696 0.29000
C 	C 	0.55201 0.24692 0.98417 0.28300
O 	O 	0.58245 0.29763 0.98107 -0.39600
O 	O 	0.68150 0.42646 0.01279 -0.39500
O 	O 	0.67496 0.26573 0.05207 -0.36500
C 	C 	0.73589 0.24444 0.97963 0.29200
O 	O 	0.66440 0.34386 0.89200 -0.38200
O 	O 	0.66760 0.27473 0.86755 -0.42100
H 	H 	0.73552 0.36653 0.01343 0.16200
H 	H 	0.60828 0.24196 0.92611 0.17400
Cu	Cu	0.72857 0.33713 0.44799 0.92700
Cu	Cu	0.72105 0.29553 0.53136 0.86600
Cu	Cu	0.63914 0.30785 0.49500 0.89500
Cu	Cu	0.62554 0.33087 0.41553 0.89300
C 	C 	0.69053 0.31648 0.36511 0.29700
O 	O 	0.75774 0.41432 0.44664 -0.36400
C 	C 	0.66797 0.32192 0.58111 0.29600
O 	O 	0.64314 0.29129 0.44168 -0.64200
O 	O 	0.71947 0.34507 0.50291 -0.64300
O 	O 	0.77017 0.30680 0.45449 -0.37500
O 	O 	0.71114 0.24611 0.48870 -0.44400
O 	O 	0.66743 0.34041 0.37263 -0.38600
O 	O 	0.56052 0.26640 0.48498 -0.38700
C 	C 	0.53012 0.26636 0.45537 0.29300
C 	C 	0.73218 0.43386 0.45869 0.28200
O 	O 	0.68063 0.40100 0.46134 -0.39500
O 	O 	0.55174 0.29725 0.42906 -0.39600
O 	O 	0.72368 0.31772 0.39309 -0.36500
C 	C 	0.74861 0.26135 0.46703 0.29000
O 	O 	0.63641 0.31952 0.55095 -0.38300
O 	O 	0.71301 0.32708 0.57728 -0.42300
H 	H 	0.62092 0.25251 0.43044 0.16100
H 	H 	0.74120 0.38228 0.51784 0.17400
C 	C 	0.65692 0.32683 0.62077 -0.11000
C 	C 	0.62100 0.28069 0.63628 0.12000
C 	C 	0.61994 0.28592 0.67656 -0.09600
C 	C 	0.65330 0.33642 0.70127 0.00000
C 	C 	0.68497 0.38297 0.68499 0.05700
C 	C 	0.68715 0.37765 0.64489 -0.02000
N 	N 	0.58807 0.23130 0.61284 -0.20400
H 	H 	0.59452 0.25042 0.68896 0.05400
C 	C 	0.66065 0.33935 0.74430 -0.00000
N 	N 	0.71331 0.43268 0.70766 -0.19200
H 	H 	0.71339 0.41308 0.63265 0.03800
C 	C 	0.70709 0.34639 0.76382 -0.09500
C 	C 	0.71272 0.34323 0.80364 0.11800
C 	C 	0.67001 0.33069 0.82384 -0.10900
C 	C 	0.62479 0.32630 0.80489 -0.02100
C 	C 	0.61996 0.33114 0.76531 0.05700
H 	H 	0.73877 0.35390 0.74784 0.05300
N 	N 	0.75942 0.35295 0.82242 -0.20200
H 	H 	0.59271 0.31794 0.82070 0.04300
N 	N 	0.57649 0.32815 0.74780 -0.19200
H 	H 	0.78994 0.36036 0.80695 0.07600
H 	H 	0.76684 0.35535 0.85269 0.06200
H 	H 	0.54595 0.32073 0.76324 0.08200
H 	H 	0.57331 0.33461 0.71916 0.08700
H 	H 	0.73803 0.46685 0.69572 0.08100
H 	H 	0.70964 0.43794 0.73690 0.08700
H 	H 	0.58622 0.22628 0.58253 0.07600
H 	H 	0.56275 0.19727 0.62475 0.07900
C 	C 	0.68930 0.29824 0.12098 -0.10700
C 	C 	0.71601 0.34607 0.14916 0.12100
C 	C 	0.71921 0.34364 0.18923 -0.09500
C 	C 	0.69960 0.29501 0.20158 0.00000
C 	C 	0.67867 0.24842 0.17349 0.05800
C 	C 	0.67275 0.25024 0.13336 -0.02200
N 	N 	0.73962 0.39440 0.13797 -0.20200
H 	H 	0.73689 0.37967 0.21087 0.05600
C 	C 	0.69676 0.29243 0.24357 0.00000
N 	N 	0.66443 0.20206 0.18484 -0.19200
H 	H 	0.65388 0.21389 0.11177 0.04900
C 	C 	0.64624 0.26904 0.25519 -0.09500
C 	C 	0.64287 0.27185 0.29510 0.12100
C 	C 	0.69132 0.30167 0.32381 -0.10700
C 	C 	0.74151 0.32227 0.31221 -0.02200
C 	C 	0.74455 0.31699 0.27228 0.05800
H 	H 	0.60946 0.24874 0.23309 0.05600
N 	N 	0.59313 0.24498 0.30566 -0.20200
H 	H 	0.77850 0.34372 0.33423 0.04900
N 	N 	0.79325 0.33535 0.26173 -0.19200
H 	H 	0.55765 0.22499 0.28434 0.08000
H 	H 	0.58907 0.24134 0.33479 0.07000
H 	H 	0.82865 0.35496 0.28308 0.08300
H 	H 	0.79617 0.32873 0.23247 0.08700
H 	H 	0.64740 0.16738 0.16392 0.08200
H 	H 	0.67183 0.20042 0.21433 0.08700
H 	H 	0.74339 0.39828 0.10883 0.07000
H 	H 	0.75713 0.42922 0.15885 0.08000
C 	C 	0.75944 0.49234 0.46502 -0.09100
C 	C 	0.80656 0.52606 0.44961 0.01500
C 	C 	0.82861 0.58020 0.45167 -0.07100
C 	C 	0.80395 0.60117 0.46918 0.04000
C 	C 	0.75827 0.56826 0.48590 -0.07200
C 	C 	0.73617 0.51412 0.48398 0.01300
C 	C 	0.82428 0.65589 0.46860 -0.02700
C 	C 	0.84165 0.70175 0.46794 -0.01500
C 	C 	0.86280 0.75656 0.46675 0.01900
C 	C 	0.84791 0.76944 0.43289 -0.04700
C 	C 	0.87155 0.82304 0.43059 -0.03300
C 	C 	0.91031 0.86408 0.46214 -0.00500
C 	C 	0.92389 0.85096 0.49648 -0.03400
C 	C 	0.90024 0.79737 0.49874 -0.04700
H 	H 	0.82525 0.51011 0.43511 0.03600
H 	H 	0.86425 0.60557 0.43897 0.04800
H 	H 	0.73933 0.58435 0.49985 0.04700
H 	H 	0.70048 0.48898 0.49667 0.03200
H 	H 	0.81883 0.73807 0.40809 0.04100
H 	H 	0.86084 0.83275 0.40395 0.03700
H 	H 	0.95360 0.88234 0.52106 0.03600
H 	H 	0.91175 0.78769 0.52508 0.04100
C 	C 	0.76771 0.22830 0.45806 -0.09800
C 	C 	0.73309 0.17280 0.45728 0.01600
C 	C 	0.75277 0.14229 0.45288 -0.07500
C 	C 	0.80708 0.16686 0.44915 0.04100
C 	C 	0.84122 0.22183 0.44848 -0.07400
C 	C 	0.82162 0.25248 0.45284 0.01700
C 	C 	0.82853 0.13625 0.44824 -0.02900
C 	C 	0.84610 0.11028 0.44751 -0.01500
C 	C 	0.86719 0.07935 0.44734 0.01900
C 	C 	0.88900 0.07381 0.41535 -0.04700
C 	C 	0.91188 0.04600 0.41607 -0.03400
C 	C 	0.91318 0.02365 0.44886 -0.00500
C 	C 	0.89030 0.02833 0.48051 -0.03400
C 	C 	0.86738 0.05608 0.47973 -0.04700
H 	H 	0.69118 0.15343 0.46061 0.02600
H 	H 	0.72602 0.09972 0.45310 0.04600
H 	H 	0.88322 0.24106 0.44541 0.04800
H 	H 	0.84879 0.29518 0.45332 0.03100
H 	H 	0.88881 0.09151 0.39015 0.04100
H 	H 	0.92921 0.04241 0.39141 0.03700
H 	H 	0.89124 0.01139 0.50601 0.03600
H 	H 	0.85044 0.06008 0.50452 0.04000
C 	C 	0.08395 0.03752 0.45449 -0.00400
C 	C 	0.10446 0.05839 0.42130 -0.03400
C 	C 	0.16029 0.08737 0.42124 -0.04600
C 	C 	0.19591 0.09566 0.45433 0.01900
C 	C 	0.17558 0.07529 0.48764 -0.04600
C 	C 	0.11978 0.04633 0.48775 -0.03400
C 	C 	0.25323 0.12460 0.45396 -0.01500
C 	C 	0.30122 0.14884 0.45361 -0.02800
C 	C 	0.35855 0.17777 0.45328 0.04200
C 	C 	0.38741 0.15988 0.46963 -0.07300
C 	C 	0.44331 0.18852 0.47004 0.01800
C 	C 	0.47082 0.23539 0.45407 -0.09100
C 	C 	0.44159 0.25295 0.43740 0.01800
C 	C 	0.38568 0.22421 0.43703 -0.07300
H 	H 	0.07711 0.05168 0.39546 0.03600
H 	H 	0.17577 0.10307 0.39540 0.04100
H 	H 	0.20292 0.08167 0.51336 0.04100
H 	H 	0.10435 0.03057 0.51357 0.03600
H 	H 	0.36660 0.12388 0.48214 0.04700
H 	H 	0.46516 0.17419 0.48265 0.02800
H 	H 	0.46225 0.28921 0.42523 0.03200
H 	H 	0.36358 0.23826 0.42434 0.04800
C 	C 	0.74279 0.50715 0.98847 -0.09300
C 	C 	0.79090 0.53605 0.97322 0.01800
C 	C 	0.81844 0.59097 0.97416 -0.07300
C 	C 	0.79820 0.61743 0.99034 0.03900
C 	C 	0.75041 0.58886 0.00576 -0.07100
C 	C 	0.72276 0.53393 0.00485 0.02000
C 	C 	0.82630 0.67382 0.99089 -0.02800
C 	C 	0.85008 0.72106 0.99123 -0.01500
C 	C 	0.87877 0.77745 0.99144 0.01700
C 	C 	0.88530 0.81146 0.02445 -0.04500
C 	C 	0.91457 0.86651 0.02508 -0.03000
C 	C 	0.93750 0.88781 0.99267 -0.00900
C 	C 	0.93032 0.85357 0.95945 -0.03200
C 	C 	0.90107 0.79857 0.95887 -0.04700
H 	H 	0.80710 0.51606 0.96084 0.02800
H 	H 	0.85548 0.61291 0.96228 0.04700
H 	H 	0.73454 0.60912 0.01828 0.04800
H 	H 	0.68548 0.51214 0.01644 0.03200
H 	H 	0.86808 0.79534 0.04971 0.04100
H 	H 	0.92000 0.89266 0.05087 0.03700
H 	H 	0.94768 0.86966 0.93423 0.03700
H 	H 	0.89606 0.77245 0.93322 0.04100
C 	C 	0.76932 0.22498 0.98645 -0.10300
C 	C 	0.75995 0.19235 0.01445 0.02200
C 	C 	0.78848 0.17031 0.01845 -0.07200
C 	C 	0.82671 0.18089 0.99471 0.03900
C 	C 	0.83758 0.21490 0.96781 -0.07500
C 	C 	0.80912 0.23692 0.96367 0.01600
C 	C 	0.85240 0.15438 0.99621 -0.02900
C 	C 	0.87435 0.13257 0.99702 -0.01600
C 	C 	0.90007 0.10605 0.99695 0.01700
C 	C 	0.88456 0.06597 0.96508 -0.04700
C 	C 	0.90992 0.04060 0.96460 -0.03300
C 	C 	0.95095 0.05511 0.99606 -0.00900
C 	C 	0.96650 0.09531 0.02796 -0.03100
C 	C 	0.94110 0.12071 0.02838 -0.04500
H 	H 	0.73018 0.18356 0.03276 0.03700
H 	H 	0.78017 0.14432 0.03953 0.04900
H 	H 	0.86730 0.22342 0.94949 0.04500
H 	H 	0.81712 0.26220 0.94210 0.01800
H 	H 	0.85296 0.05456 0.94063 0.04000
H 	H 	0.89779 0.00974 0.93979 0.03600
H 	H 	0.99801 0.10666 0.05243 0.03700
H 	H 	0.95333 0.15174 0.05309 0.04100
C 	C 	0.11552 0.06009 0.99104 -0.00900
C 	C 	0.13389 0.07928 0.95689 -0.03300
C 	C 	0.18811 0.10285 0.95362 -0.04700
C 	C 	0.22420 0.10737 0.98448 0.01700
C 	C 	0.20628 0.08955 0.01901 -0.04500
C 	C 	0.15211 0.06598 0.02230 -0.03100
C 	C 	0.27916 0.12884 0.98037 -0.01500
C 	C 	0.32538 0.14667 0.97762 -0.02900
C 	C 	0.38082 0.16789 0.97531 0.04100
C 	C 	0.40566 0.14788 0.99460 -0.07400
C 	C 	0.46107 0.17203 0.99592 0.01400
C 	C 	0.49216 0.21665 0.97804 -0.09200
C 	C 	0.46642 0.23493 0.95708 0.01400
C 	C 	0.41099 0.21073 0.95588 -0.07200
H 	H 	0.10589 0.07484 0.93260 0.03600
H 	H 	0.20180 0.11680 0.92691 0.04000
H 	H 	0.23408 0.09324 0.04306 0.04100
H 	H 	0.13831 0.05143 0.04882 0.03700
H 	H 	0.38239 0.11447 0.00942 0.05000
H 	H 	0.48012 0.15716 0.01196 0.03900
H 	H 	0.48954 0.26854 0.94242 0.03100
H 	H 	0.39185 0.22602 0.94055 0.04700
