data_crystal

_cell_length_a 16.51451
_cell_length_b 16.12334
_cell_length_c 34.51157
_cell_angle_alpha 91.00017
_cell_angle_beta  91.11565
_cell_angle_gamma 113.29005

_symmetry_space_group_name_	'P 1'
_symmetry_space_group_name_H-M	'P 1'

loop_
_symmetry_equiv_pos_as_xyz
  x,y,z

loop_
_atom_site_label
_atom_site_type_symbol
_atom_site_fract_x
_atom_site_fract_y
_atom_site_fract_z
_atom_site_charge
Ni	Ni	0.80295 0.38721 0.88804 1.09900
O 	O 	0.68088 0.29589 0.87049 -0.70500
Ni	Ni	0.60394 0.31711 0.90990 1.09600
O 	O 	0.86898 0.31766 0.86213 -0.38900
O 	O 	0.78287 0.19238 0.89358 -0.42500
O 	O 	0.81492 0.46128 0.83814 -0.37700
Ni	Ni	0.65800 0.16745 0.87082 1.06800
O 	O 	0.86735 0.59830 0.91040 -0.41000
O 	O 	0.59877 0.11389 0.92202 -0.39800
O 	O 	0.48852 0.20683 0.89834 -0.38700
O 	O 	0.72351 0.42096 0.92255 -0.69500
O 	O 	0.91828 0.48549 0.90735 -0.38600
O 	O 	0.53948 0.37031 0.94655 -0.37500
O 	O 	0.59778 0.50592 0.91679 -0.41900
Ni	Ni	0.73299 0.54374 0.91275 1.07000
H 	H 	0.66469 0.31162 0.84470 0.15600
H 	H 	0.74103 0.41778 0.94990 0.15300
C 	C 	0.60003 0.15918 0.95430 0.30700
O 	O 	0.72138 0.52793 0.85426 -0.41900
C 	C 	0.85213 0.23440 0.87258 0.27700
C 	C 	0.47271 0.15117 0.86771 0.30200
C 	C 	0.78859 0.52831 0.83462 0.29800
C 	C 	0.55455 0.45678 0.94561 0.28000
C 	C 	0.91552 0.55731 0.92517 0.29000
O 	O 	0.62954 0.24800 0.95485 -0.39700
O 	O 	0.53722 0.14373 0.84763 -0.42300
Ni	Ni	0.64179 0.22246 0.63539 1.10000
O 	O 	0.72063 0.35124 0.65310 -0.70100
Ni	Ni	0.69546 0.42546 0.61232 1.09600
O 	O 	0.71257 0.16362 0.66575 -0.38800
O 	O 	0.83532 0.25625 0.63628 -0.42200
O 	O 	0.56021 0.20481 0.68255 -0.37500
Ni	Ni	0.84776 0.38273 0.65622 1.06800
O 	O 	0.43934 0.14070 0.60920 -0.40800
O 	O 	0.90460 0.43896 0.60497 -0.40000
O 	O 	0.78965 0.55132 0.62696 -0.39500
O 	O 	0.60658 0.29738 0.59778 -0.69500
O 	O 	0.55603 0.09962 0.61530 -0.38300
O 	O 	0.63975 0.48132 0.57222 -0.38200
O 	O 	0.50474 0.41291 0.59903 -0.41700
Ni	Ni	0.48254 0.27741 0.60412 1.07200
H 	H 	0.70082 0.36546 0.67832 0.15500
H 	H 	0.61596 0.28093 0.57098 0.16000
C 	C 	0.86366 0.45145 0.57392 0.30300
O 	O 	0.49406 0.29690 0.66240 -0.42200
C 	C 	0.79597 0.18591 0.65772 0.27900
C 	C 	0.85686 0.56797 0.65189 0.30400
C 	C 	0.49468 0.23207 0.68442 0.29900
C 	C 	0.55456 0.46264 0.57194 0.28500
C 	C 	0.48508 0.09574 0.59596 0.29000
O 	O 	0.77699 0.41255 0.57027 -0.39400
O 	O 	0.85945 0.50558 0.67554 -0.42600
C 	C 	0.06702 0.99620 0.72425 -0.03800
H 	H 	0.07729 0.00980 0.69292 0.03500
C 	C 	0.04337 0.96228 0.79961 -0.04100
H 	H 	0.03442 0.94832 0.83096 0.03800
C 	C 	0.01267 0.04190 0.74479 -0.00700
C 	C 	0.01742 0.89591 0.73366 0.00000
C 	C 	0.15278 0.02616 0.74916 -0.00800
C 	C 	0.00087 0.02481 0.78347 -0.00300
C 	C 	0.00555 0.87790 0.77238 -0.00400
C 	C 	0.14031 0.00900 0.78782 -0.00600
Ni	Ni	0.27206 0.66264 0.41524 1.09500
O 	O 	0.36539 0.78538 0.43362 -0.69600
Ni	Ni	0.33555 0.86946 0.39906 1.10100
O 	O 	0.32112 0.59517 0.45273 -0.38300
O 	O 	0.45739 0.66222 0.42699 -0.41700
O 	O 	0.19193 0.67557 0.45789 -0.39700
Ni	Ni	0.48719 0.80013 0.42629 1.07100
O 	O 	0.11127 0.59621 0.34669 -0.41900
O 	O 	0.47088 0.78933 0.36766 -0.42200
O 	O 	0.42268 0.98635 0.42356 -0.37900
O 	O 	0.25449 0.74522 0.37656 -0.70300
O 	O 	0.17182 0.54388 0.39721 -0.39600
O 	O 	0.26998 0.93778 0.37154 -0.38200
O 	O 	0.14275 0.83952 0.39628 -0.42000
Ni	Ni	0.12739 0.71497 0.37294 1.07200
H 	H 	0.35689 0.79828 0.46104 0.15900
H 	H 	0.27568 0.73405 0.35115 0.15600
C 	C 	0.48031 0.86163 0.34865 0.30000
O 	O 	0.06638 0.64696 0.42122 -0.39300
C 	C 	0.40555 0.61034 0.45302 0.28500
C 	C 	0.49332 0.98440 0.44125 0.29100
C 	C 	0.10531 0.63980 0.45388 0.30700
C 	C 	0.18478 0.91205 0.37642 0.28600
C 	C 	0.12790 0.53117 0.36360 0.30200
O 	O 	0.42115 0.89680 0.35284 -0.37300
O 	O 	0.53576 0.93825 0.42562 -0.40400
Ni	Ni	0.36403 0.74389 0.10599 1.09700
O 	O 	0.23924 0.66165 0.08672 -0.69600
Ni	Ni	0.16557 0.69511 0.12469 1.10000
O 	O 	0.42086 0.69341 0.06453 -0.37600
O 	O 	0.34162 0.54928 0.08327 -0.41600
O 	O 	0.35749 0.83734 0.06760 -0.39800
Ni	Ni	0.21040 0.53198 0.08703 1.07200
O 	O 	0.44250 0.88943 0.17972 -0.42500
O 	O 	0.22093 0.52829 0.14562 -0.41900
O 	O 	0.04635 0.62020 0.09945 -0.38100
O 	O 	0.29000 0.76335 0.14733 -0.70400
O 	O 	0.48631 0.83436 0.12486 -0.38900
O 	O 	0.11043 0.76630 0.15705 -0.38300
O 	O 	0.21440 0.89821 0.13642 -0.42100
Ni	Ni	0.33157 0.89385 0.15636 1.07300
H 	H 	0.22778 0.67890 0.06044 0.15700
H 	H 	0.29858 0.73446 0.17126 0.15700
C 	C 	0.15624 0.52812 0.16696 0.29900
O 	O 	0.40094 0.96001 0.10932 -0.39800
C 	C 	0.39477 0.60562 0.05881 0.28100
C 	C 	0.03976 0.54979 0.07769 0.28600
C 	C 	0.39767 0.92495 0.07429 0.30800
C 	C 	0.14178 0.85489 0.15509 0.28700
C 	C 	0.50365 0.87676 0.15920 0.30400
O 	O 	0.13625 0.59977 0.16797 -0.37600
O 	O 	0.07725 0.49551 0.08934 -0.40800
C 	C 	0.92005 0.09869 0.22502 -0.03700
H 	H 	0.92107 0.10191 0.19294 0.03500
C 	C 	0.91902 0.09439 0.30224 -0.04100
H 	H 	0.92080 0.09587 0.33436 0.03700
C 	C 	0.96618 0.04113 0.24274 -0.01500
C 	C 	0.96566 0.19132 0.24575 -0.01100
C 	C 	0.82737 0.05922 0.24284 -0.00800
C 	C 	0.96586 0.03903 0.28270 -0.00900
C 	C 	0.96436 0.18859 0.28523 -0.00900
C 	C 	0.82653 0.05626 0.28271 -0.00700
C 	C 	0.14989 0.38834 0.19944 -0.01800
C 	C 	0.10830 0.44736 0.19112 -0.11200
C 	C 	0.01830 0.42148 0.20090 0.11200
C 	C 	0.97326 0.33809 0.21882 -0.10600
C 	C 	0.01369 0.27712 0.22457 0.01700
C 	C 	0.10254 0.30229 0.21424 0.02200
C 	C 	0.14568 0.23605 0.21646 -0.17300
H 	H 	0.21871 0.40776 0.19269 0.03800
H 	H 	0.90662 0.32086 0.22833 0.05000
C 	C 	0.96946 0.48111 0.19240 -0.21500
H 	H 	0.21760 0.26863 0.21147 0.05800
H 	H 	0.11540 0.18205 0.19392 0.06600
H 	H 	0.13761 0.20654 0.24553 0.06400
H 	H 	0.97041 0.49450 0.16095 0.09200
H 	H 	0.99966 0.54555 0.20947 0.08600
H 	H 	0.89915 0.44867 0.20037 0.06800
C 	C 	0.69927 0.91806 0.22395 -0.09200
C 	C 	0.74766 0.01049 0.21845 0.00500
C 	C 	0.71874 0.05612 0.19040 0.02100
C 	C 	0.64414 0.00741 0.16712 -0.01500
C 	C 	0.59406 0.91628 0.17391 -0.11200
C 	C 	0.62364 0.87025 0.20134 0.09900
C 	C 	0.57103 0.77164 0.20858 -0.20300
H 	H 	0.72037 0.88359 0.24617 0.05000
H 	H 	0.62099 0.04203 0.14568 0.03700
C 	C 	0.76297 0.15729 0.18714 -0.17100
H 	H 	0.61099 0.74151 0.22484 0.06500
H 	H 	0.54900 0.73302 0.18067 0.06600
H 	H 	0.51247 0.76419 0.22573 0.06700
H 	H 	0.82752 0.17602 0.17320 0.06300
H 	H 	0.77257 0.19037 0.21632 0.05900
H 	H 	0.72234 0.18410 0.16940 0.05900
C 	C 	0.10232 0.01596 0.22587 -0.10200
C 	C 	0.01257 0.99654 0.21823 0.02300
C 	C 	0.96685 0.93221 0.18832 0.00500
C 	C 	0.01182 0.89002 0.16691 0.00400
C 	C 	0.09936 0.90590 0.17622 -0.11900
C 	C 	0.14487 0.96835 0.20633 0.09500
C 	C 	0.23852 0.98414 0.21799 -0.18900
H 	H 	0.13827 0.06556 0.24815 0.05400
H 	H 	0.97748 0.84212 0.14364 0.03000
C 	C 	0.86920 0.90197 0.18126 -0.16700
H 	H 	0.25926 0.02325 0.24586 0.06000
H 	H 	0.28398 0.02262 0.19532 0.02800
H 	H 	0.24491 0.91876 0.22197 0.02300
H 	H 	0.85373 0.95695 0.16878 0.06600
H 	H 	0.83530 0.87903 0.20868 0.06200
H 	H 	0.84267 0.84355 0.16041 0.06000
C 	C 	0.64293 0.90209 0.34735 -0.01000
C 	C 	0.56976 0.91743 0.33330 -0.11200
C 	C 	0.58344 0.98594 0.30586 0.10400
C 	C 	0.67029 0.04016 0.29497 -0.09200
C 	C 	0.74167 0.01682 0.30517 0.00400
C 	C 	0.72737 0.94756 0.33250 0.02300
C 	C 	0.80094 0.92276 0.34723 -0.17600
H 	H 	0.63409 0.85314 0.36973 0.01200
H 	H 	0.68117 0.09630 0.27605 0.05000
C 	C 	0.50685 0.99971 0.28688 -0.19900
H 	H 	0.77514 0.85707 0.36203 0.05600
H 	H 	0.84359 0.97452 0.36857 0.06300
H 	H 	0.83909 0.91407 0.32301 0.06600
H 	H 	0.48052 0.03621 0.30730 0.08100
H 	H 	0.45398 0.93378 0.27783 0.07400
H 	H 	0.52723 0.04010 0.26035 0.06400
C 	C 	0.09652 0.30919 0.31549 -0.09500
C 	C 	0.00468 0.27030 0.31005 0.01600
C 	C 	0.95281 0.31424 0.32503 0.01900
C 	C 	0.99429 0.39887 0.34362 -0.01300
C 	C 	0.08641 0.43978 0.34718 -0.10800
C 	C 	0.13804 0.39419 0.33361 0.09900
C 	C 	0.23738 0.43671 0.33769 -0.20200
H 	H 	0.13594 0.27485 0.30426 0.04800
H 	H 	0.95502 0.43361 0.35496 0.03500
C 	C 	0.85348 0.27079 0.32157 -0.16900
H 	H 	0.26815 0.39514 0.32292 0.06400
H 	H 	0.25776 0.44378 0.36883 0.06900
H 	H 	0.26326 0.50432 0.32453 0.06100
H 	H 	0.83169 0.25289 0.29080 0.06100
H 	H 	0.82294 0.31668 0.33238 0.06000
H 	H 	0.82871 0.20880 0.33892 0.06600
C 	C 	0.06710 0.88484 0.32643 -0.01000
C 	C 	0.13335 0.94621 0.35084 -0.12500
C 	C 	0.14498 0.03763 0.35273 0.10300
C 	C 	0.08932 0.06605 0.33039 -0.10100
C 	C 	0.02250 0.00479 0.30605 0.00800
C 	C 	0.00975 0.91231 0.30489 0.02400
C 	C 	0.93677 0.84195 0.28075 -0.17700
H 	H 	0.05883 0.81467 0.32484 -0.01400
H 	H 	0.09754 0.13586 0.33220 0.05300
C 	C 	0.21604 0.10500 0.37869 -0.20800
H 	H 	0.90241 0.78176 0.29841 0.05300
H 	H 	0.96538 0.82060 0.25556 0.06400
H 	H 	0.88606 0.86525 0.27008 0.06200
H 	H 	0.28195 0.11253 0.36860 0.08200
H 	H 	0.20836 0.08188 0.40904 0.07400
H 	H 	0.21304 0.17265 0.37857 0.06700
C 	C 	0.47591 0.97799 0.54811 -0.03500
C 	C 	0.47180 0.06179 0.55566 -0.11300
C 	C 	0.48333 0.12217 0.52495 0.08500
C 	C 	0.51325 0.10414 0.48945 -0.03700
C 	C 	0.51350 0.01896 0.48133 -0.11000
C 	C 	0.50183 0.95819 0.51192 0.08600
N 	N 	0.51855 0.88266 0.50716 -0.20500
H 	H 	0.46719 0.93160 0.57159 0.04300
H 	H 	0.52402 0.15152 0.46622 0.04600
N 	N 	0.46038 0.19404 0.52853 -0.20900
H 	H 	0.49983 0.83305 0.52813 0.06700
H 	H 	0.55846 0.87713 0.48511 0.02100
H 	H 	0.41378 0.19434 0.54840 0.01700
H 	H 	0.48017 0.24478 0.50807 0.06600
C 	C 	0.99011 0.62990 0.50153 -0.04800
C 	C 	0.04927 0.59456 0.48711 -0.08800
C 	C 	0.04272 0.50856 0.49947 0.11100
C 	C 	0.97660 0.45971 0.52539 -0.04800
C 	C 	0.91770 0.49522 0.53995 -0.09000
C 	C 	0.92356 0.58068 0.52724 0.10500
N 	N 	0.86513 0.61548 0.53904 -0.20100
H 	H 	0.99374 0.69475 0.49167 0.04500
H 	H 	0.97293 0.39484 0.53524 0.04700
N 	N 	0.09969 0.47255 0.48692 -0.20100
H 	H 	0.87306 0.68072 0.53153 0.08500
H 	H 	0.80889 0.57669 0.55381 0.10500
H 	H 	0.15347 0.50926 0.47034 0.10700
H 	H 	0.09227 0.40780 0.49496 0.08800
C 	C 	0.44491 0.44338 0.51900 -0.04700
C 	C 	0.51535 0.50170 0.54252 -0.10000
C 	C 	0.54843 0.59604 0.53705 0.10700
C 	C 	0.51335 0.62954 0.50670 -0.04600
C 	C 	0.44309 0.57125 0.48309 -0.10300
C 	C 	0.40951 0.47695 0.48875 0.10800
N 	N 	0.34591 0.41817 0.46450 -0.20000
H 	H 	0.41933 0.37121 0.52348 0.02100
H 	H 	0.53924 0.70166 0.50211 0.01600
N 	N 	0.61125 0.65488 0.56159 -0.20000
H 	H 	0.31944 0.34901 0.46979 0.07800
H 	H 	0.32494 0.43965 0.43932 0.09100
H 	H 	0.63102 0.63351 0.58710 0.09200
H 	H 	0.63787 0.72403 0.55627 0.07800
C 	C 	0.86579 0.04112 0.72555 -0.09900
C 	C 	0.95793 0.08048 0.72270 0.00500
C 	C 	0.99689 0.15538 0.69888 0.01500
C 	C 	0.94281 0.18597 0.67654 -0.02300
C 	C 	0.85011 0.14404 0.67816 -0.11900
C 	C 	0.81160 0.06654 0.70095 0.09700
C 	C 	0.71442 0.00726 0.69765 -0.20500
H 	H 	0.83597 0.98590 0.74499 0.04700
H 	H 	0.97313 0.24369 0.65836 0.02600
C 	C 	0.09579 0.20402 0.69746 -0.16600
H 	H 	0.70053 0.93897 0.70893 0.06200
H 	H 	0.69107 0.99743 0.66685 0.08300
H 	H 	0.67648 0.03768 0.71484 0.07900
H 	H 	0.12299 0.16583 0.67839 0.06000
H 	H 	0.12645 0.21216 0.72690 0.05900
H 	H 	0.11484 0.27286 0.68590 0.05300
C 	C 	0.37112 0.08491 0.69750 -0.01700
C 	C 	0.41366 0.17803 0.70570 -0.11000
C 	C 	0.37242 0.22054 0.72996 0.09400
C 	C 	0.28645 0.17087 0.74279 -0.09100
C 	C 	0.24221 0.07852 0.73308 0.00600
C 	C 	0.28552 0.03502 0.71060 0.02500
C 	C 	0.24071 0.93606 0.70002 -0.17100
H 	H 	0.40339 0.05164 0.67973 0.04900
H 	H 	0.25451 0.20397 0.76079 0.04600
C 	C 	0.41903 0.31873 0.74198 -0.20000
H 	H 	0.28504 0.91111 0.68427 0.06100
H 	H 	0.18206 0.92407 0.68097 0.06700
H 	H 	0.22068 0.89657 0.72668 0.06000
H 	H 	0.41355 0.36172 0.71813 0.07200
H 	H 	0.48975 0.33538 0.74902 0.06800
H 	H 	0.38972 0.33501 0.76826 0.06200
C 	C 	0.03209 0.76161 0.70364 -0.07800
C 	C 	0.99195 0.82365 0.70325 -0.00600
C 	C 	0.92213 0.81086 0.67619 0.02800
C 	C 	0.88603 0.73026 0.65431 -0.01700
C 	C 	0.91699 0.66216 0.65994 -0.10800
C 	C 	0.99776 0.68305 0.68038 0.09000
C 	C 	0.04653 0.62151 0.67818 -0.19500
H 	H 	0.08742 0.77242 0.72324 0.04500
H 	H 	0.82869 0.71746 0.63553 0.04100
C 	C 	0.87943 0.87728 0.67356 -0.17600
H 	H 	0.11888 0.66136 0.68076 0.06300
H 	H 	0.03287 0.58364 0.64996 0.06900
H 	H 	0.02676 0.57323 0.70221 0.06100
H 	H 	0.92923 0.94535 0.66756 0.06700
H 	H 	0.84553 0.87682 0.70093 0.06300
H 	H 	0.82905 0.85916 0.64959 0.06000
C 	C 	0.03872 0.58400 0.97086 -0.02700
C 	C 	0.95386 0.58117 0.96446 -0.11700
C 	C 	0.89832 0.57055 0.99637 0.09000
C 	C 	0.92235 0.54621 0.03217 -0.04700
C 	C 	0.00487 0.54216 0.03781 -0.10000
C 	C 	0.06169 0.55637 0.00607 0.08000
N 	N 	0.13537 0.53842 0.00849 -0.20000
H 	H 	0.08250 0.59547 0.94666 0.04200
H 	H 	0.87956 0.53731 0.05659 0.04500
N 	N 	0.82393 0.58712 0.99324 -0.20600
H 	H 	0.18184 0.55914 0.98675 0.06800
H 	H 	0.14145 0.49395 0.02871 0.00600
H 	H 	0.81479 0.62525 0.97081 0.02600
H 	H 	0.77907 0.57058 0.01566 0.06800
C 	C 	0.48616 0.12191 0.00521 -0.04700
C 	C 	0.55733 0.10778 0.98909 -0.08900
C 	C 	0.57643 0.03385 0.00153 0.10200
C 	C 	0.52006 0.97181 0.02742 -0.04200
C 	C 	0.44772 0.98470 0.04287 -0.09100
C 	C 	0.43042 0.06055 0.03158 0.10500
N 	N 	0.35893 0.07323 0.04475 -0.20000
H 	H 	0.47116 0.17819 0.99574 0.05700
H 	H 	0.53474 0.91520 0.03669 0.05400
N 	N 	0.65009 0.02358 0.98972 -0.20000
H 	H 	0.34798 0.13054 0.03722 0.08500
H 	H 	0.31201 0.02510 0.06139 0.09100
H 	H 	0.69808 0.07348 0.97417 0.09000
H 	H 	0.66209 0.96712 0.99766 0.08400
C 	C 	0.46489 0.54341 0.96252 -0.04500
C 	C 	0.51621 0.49680 0.97486 -0.10200
C 	C 	0.53123 0.48998 0.01502 0.09700
C 	C 	0.48991 0.52519 0.04198 -0.04300
C 	C 	0.43805 0.57117 0.02964 -0.10000
C 	C 	0.42588 0.58117 0.98952 0.09800
N 	N 	0.37590 0.62559 0.97671 -0.20100
H 	H 	0.45443 0.54949 0.93176 0.04400
H 	H 	0.49977 0.51852 0.07275 0.04500
N 	N 	0.58724 0.45247 0.02788 -0.19900
H 	H 	0.36711 0.63215 0.94702 0.07800
H 	H 	0.34513 0.65381 0.99588 0.08000
H 	H 	0.62693 0.43518 0.00896 0.07800
H 	H 	0.59487 0.44440 0.05753 0.08000
C 	C 	0.86012 0.08680 0.85531 -0.02700
C 	C 	0.89869 0.18185 0.85451 -0.11500
C 	C 	0.97653 0.22440 0.83356 0.08800
C 	C 	0.00385 0.17237 0.80830 -0.08500
C 	C 	0.96597 0.07760 0.80913 -0.00400
C 	C 	0.89272 0.03433 0.83260 0.02100
C 	C 	0.84704 0.93272 0.83271 -0.17100
H 	H 	0.80284 0.05342 0.87268 0.02400
H 	H 	0.05705 0.20581 0.78890 0.04500
C 	C 	0.03307 0.32382 0.83907 -0.19600
H 	H 	0.78113 0.91068 0.84580 0.05100
H 	H 	0.88700 0.90421 0.84982 0.06000
H 	H 	0.83640 0.90417 0.80271 0.05900
H 	H 	0.03468 0.34587 0.86985 0.08100
H 	H 	0.00758 0.36357 0.82013 0.07900
H 	H 	0.10238 0.33882 0.83132 0.06100
C 	C 	0.27122 0.98592 0.81351 -0.08900
C 	C 	0.21486 0.03177 0.81617 0.00400
C 	C 	0.23763 0.10746 0.84175 0.02600
C 	C 	0.32139 0.14379 0.85947 -0.01600
C 	C 	0.38092 0.10285 0.85389 -0.10900
C 	C 	0.35256 0.01860 0.83371 0.09800
C 	C 	0.40786 0.96326 0.83352 -0.19900
H 	H 	0.25335 0.92685 0.79460 0.04600
H 	H 	0.34160 0.20633 0.87642 0.04000
C 	C 	0.17619 0.15415 0.84792 -0.17500
H 	H 	0.36613 0.89058 0.82780 0.06200
H 	H 	0.44199 0.96855 0.86209 0.07000
H 	H 	0.45713 0.98658 0.81043 0.06800
H 	H 	0.11087 0.10483 0.85650 0.06900
H 	H 	0.17147 0.18821 0.82097 0.06200
H 	H 	0.20053 0.20651 0.87156 0.06100
C 	C 	0.93619 0.65082 0.82273 -0.01500
C 	C 	0.84500 0.61192 0.81435 -0.11000
C 	C 	0.80753 0.65745 0.78967 0.09300
C 	C 	0.86031 0.74442 0.77678 -0.09000
C 	C 	0.95076 0.78529 0.78682 0.00200
C 	C 	0.98936 0.73684 0.80914 0.02200
C 	C 	0.08685 0.77602 0.81855 -0.16800
H 	H 	0.96568 0.61510 0.84067 0.04800
H 	H 	0.83093 0.78001 0.75874 0.04600
C 	C 	0.71162 0.61436 0.77709 -0.19900
H 	H 	0.10814 0.72600 0.83241 0.06100
H 	H 	0.10379 0.83491 0.83887 0.06600
H 	H 	0.12405 0.79699 0.79158 0.05900
H 	H 	0.67023 0.62244 0.80062 0.07000
H 	H 	0.69190 0.54139 0.77000 0.06900
H 	H 	0.69858 0.64611 0.75068 0.06300
