data_crystal

_cell_length_a 26.12907
_cell_length_b 26.25819
_cell_length_c 39.56973
_cell_angle_alpha 95.49896
_cell_angle_beta  95.49706
_cell_angle_gamma 125.72976

_symmetry_space_group_name_	'P 1'
_symmetry_space_group_name_H-M	'P 1'

loop_
_symmetry_equiv_pos_as_xyz
  x,y,z

loop_
_atom_site_label
_atom_site_type_symbol
_atom_site_fract_x
_atom_site_fract_y
_atom_site_fract_z
_atom_site_charge
C 	C 	0.96111 0.02353 0.99912 0.10000
N 	N 	0.02570 0.05838 0.00097 -0.12900
C 	C 	0.05513 0.02962 0.00328 0.11100
C 	C 	0.94659 0.00894 0.46120 0.10100
C 	C 	0.04353 0.02037 0.46709 0.11100
N 	N 	0.01120 0.04586 0.46321 -0.13300
Cu	Cu	0.63077 0.23132 0.99884 0.92700
Cu	Cu	0.66643 0.23346 0.92153 0.87100
Cu	Cu	0.66103 0.33510 0.95732 0.89600
Cu	Cu	0.63770 0.35050 0.02926 0.89500
C 	C 	0.66240 0.27702 0.07218 0.30500
O 	O 	0.53934 0.19499 0.00367 -0.35900
C 	C 	0.62733 0.29309 0.88099 0.28800
O 	O 	0.68343 0.33099 0.00398 -0.63900
O 	O 	0.61507 0.24062 0.95081 -0.64300
O 	O 	0.66746 0.18384 0.99045 -0.37700
O 	O 	0.73235 0.24918 0.95604 -0.43900
O 	O 	0.63315 0.30385 0.06729 -0.38600
O 	O 	0.71044 0.42721 0.96666 -0.38200
C 	C 	0.71081 0.46168 0.99348 0.28200
C 	C 	0.51340 0.22339 0.99487 0.27400
O 	O 	0.55041 0.28336 0.99141 -0.39200
O 	O 	0.67255 0.43499 0.01594 -0.38900
O 	O 	0.65966 0.23871 0.04665 -0.36300
C 	C 	0.71926 0.20857 0.97679 0.28400
O 	O 	0.65359 0.34045 0.90782 -0.38800
O 	O 	0.62055 0.23993 0.88382 -0.42100
H 	H 	0.73018 0.35740 0.01303 0.16400
H 	H 	0.56927 0.21574 0.93985 0.17200
Cu	Cu	0.74936 0.34862 0.45947 0.92700
Cu	Cu	0.74454 0.30920 0.53569 0.86800
Cu	Cu	0.64286 0.31434 0.49971 0.89700
Cu	Cu	0.62251 0.32831 0.42692 0.89400
C 	C 	0.70521 0.31572 0.38601 0.29000
O 	O 	0.77679 0.43754 0.45469 -0.36000
C 	C 	0.67561 0.33604 0.57572 0.30200
O 	O 	0.64855 0.28913 0.45382 -0.63900
O 	O 	0.73794 0.36190 0.50726 -0.64200
O 	O 	0.80139 0.31653 0.46840 -0.37500
O 	O 	0.73353 0.24761 0.50047 -0.44200
O 	O 	0.67471 0.34114 0.39058 -0.38600
O 	O 	0.55015 0.26210 0.49093 -0.38600
C 	C 	0.51301 0.26061 0.46506 0.29000
C 	C 	0.74258 0.45724 0.46319 0.27700
O 	O 	0.68211 0.41538 0.46534 -0.39700
O 	O 	0.53356 0.28097 0.43642 -0.39500
O 	O 	0.74527 0.32160 0.41188 -0.36400
C 	C 	0.77704 0.26403 0.48114 0.28300
O 	O 	0.63898 0.33212 0.54854 -0.38000
O 	O 	0.73161 0.34809 0.57379 -0.42200
H 	H 	0.62470 0.24251 0.44617 0.16500
H 	H 	0.76202 0.40705 0.51883 0.17300
C 	C 	0.61489 0.30379 0.84628 -0.09100
C 	C 	0.66073 0.36124 0.83610 0.01300
C 	C 	0.65596 0.36652 0.80130 -0.06700
C 	C 	0.60489 0.31465 0.77645 0.02500
C 	C 	0.55610 0.25932 0.78712 -0.06700
C 	C 	0.56133 0.25372 0.82185 0.01400
C 	C 	0.60726 0.31486 0.73929 0.00100
C 	C 	0.60786 0.26803 0.71938 -0.04100
C 	C 	0.61707 0.27179 0.68528 -0.03400
C 	C 	0.62619 0.32252 0.67080 -0.00900
C 	C 	0.62374 0.36837 0.69021 -0.03200
C 	C 	0.61406 0.36445 0.72434 -0.04100
C 	C 	0.64252 0.32965 0.63698 0.04400
C 	C 	0.65719 0.33370 0.60886 -0.11300
H 	H 	0.70195 0.40047 0.85478 0.03200
H 	H 	0.69365 0.40967 0.79343 0.04500
H 	H 	0.51568 0.21955 0.76828 0.04500
H 	H 	0.52494 0.20965 0.82955 0.02700
H 	H 	0.60307 0.22978 0.73067 0.03700
H 	H 	0.61880 0.23613 0.67039 0.03400
H 	H 	0.63054 0.40764 0.67913 0.03900
H 	H 	0.61318 0.40058 0.73937 0.03900
C 	C 	0.70723 0.29575 0.35039 -0.08600
C 	C 	0.65170 0.26343 0.32476 0.01400
C 	C 	0.65519 0.25317 0.29004 -0.06600
C 	C 	0.71426 0.27500 0.28057 0.02700
C 	C 	0.76914 0.30403 0.30633 -0.06600
C 	C 	0.76566 0.31431 0.34112 0.01700
C 	C 	0.71971 0.27368 0.24376 0.00200
C 	C 	0.68136 0.21555 0.22007 -0.04000
C 	C 	0.67661 0.21533 0.18454 -0.03200
C 	C 	0.71042 0.27314 0.17250 -0.00700
C 	C 	0.75219 0.33089 0.19610 -0.03300
C 	C 	0.75686 0.33121 0.23161 -0.04000
C 	C 	0.69547 0.27386 0.13665 0.04400
C 	C 	0.68127 0.27505 0.10699 -0.10500
H 	H 	0.60617 0.24798 0.33165 0.02200
H 	H 	0.61248 0.23048 0.27037 0.04600
H 	H 	0.81484 0.32046 0.29930 0.04600
H 	H 	0.80884 0.33898 0.36066 0.03800
H 	H 	0.65316 0.17081 0.22918 0.03900
H 	H 	0.64459 0.17043 0.16644 0.04000
H 	H 	0.77883 0.37575 0.18697 0.03700
H 	H 	0.78687 0.37634 0.24965 0.04000
C 	C 	0.85020 0.80635 0.45093 -0.03200
C 	C 	0.82046 0.74134 0.45031 -0.03400
C 	C 	0.85168 0.72142 0.47004 -0.00900
C 	C 	0.91532 0.76809 0.48828 0.02600
C 	C 	0.95091 0.74924 0.50369 -0.05000
C 	C 	0.92492 0.68474 0.50026 -0.03600
C 	C 	0.86131 0.63768 0.48345 0.00300
C 	C 	0.82281 0.65558 0.47005 0.01200
C 	C 	0.75627 0.60778 0.45863 -0.05600
C 	C 	0.73052 0.54337 0.45638 0.00500
C 	C 	0.76994 0.52548 0.46672 -0.07500
C 	C 	0.83508 0.57272 0.48075 -0.01500
H 	H 	0.77536 0.70704 0.43273 0.03700
H 	H 	0.99976 0.78483 0.51744 0.03900
H 	H 	0.95409 0.67129 0.51126 0.03500
H 	H 	0.72381 0.62006 0.45316 0.04300
H 	H 	0.67965 0.50726 0.44668 0.02900
H 	H 	0.86503 0.55901 0.49008 0.03600
C 	C 	0.79757 0.22280 0.47347 -0.08100
C 	C 	0.85302 0.24560 0.45947 0.00500
C 	C 	0.87504 0.20848 0.45466 -0.05800
C 	C 	0.84058 0.14662 0.46285 0.01300
C 	C 	0.78622 0.12492 0.47836 -0.00100
C 	C 	0.76377 0.16196 0.48234 -0.01800
C 	C 	0.75679 0.06804 0.49138 -0.03200
C 	C 	0.78232 0.03394 0.49058 -0.06200
C 	C 	0.83514 0.05369 0.47467 0.03200
C 	C 	0.86191 0.10772 0.45853 -0.01300
C 	C 	0.90750 0.12007 0.43768 -0.03300
C 	C 	0.93317 0.08599 0.43756 -0.03500
C 	C 	0.91215 0.03751 0.45706 -0.00100
C 	C 	0.86139 0.01977 0.47450 -0.06500
H 	H 	0.88049 0.29308 0.45338 0.03800
H 	H 	0.92077 0.22971 0.44665 0.04200
H 	H 	0.72103 0.14417 0.49332 0.03600
H 	H 	0.71527 0.05137 0.50332 0.03100
H 	H 	0.92115 0.15376 0.42046 0.03600
H 	H 	0.96957 0.09733 0.42225 0.04100
C 	C 	0.11378 0.06062 0.46926 -0.00500
C 	C 	0.14383 0.11317 0.45252 -0.03100
C 	C 	0.20989 0.14976 0.45336 -0.03500
C 	C 	0.24656 0.13210 0.46944 -0.00800
C 	C 	0.21721 0.08272 0.48893 0.02600
C 	C 	0.15089 0.04658 0.48820 -0.05200
C 	C 	0.25455 0.07079 0.50947 -0.04900
C 	C 	0.32053 0.10679 0.51060 -0.03600
C 	C 	0.34985 0.15282 0.48966 0.00400
C 	C 	0.31264 0.16418 0.46779 0.01200
C 	C 	0.34123 0.20379 0.44338 -0.05600
C 	C 	0.40667 0.23639 0.44329 0.00400
C 	C 	0.44423 0.22769 0.46621 -0.07400
C 	C 	0.41558 0.18575 0.48933 -0.01500
H 	H 	0.11605 0.12600 0.43896 0.04400
H 	H 	0.23242 0.19317 0.44297 0.03800
H 	H 	0.34873 0.09763 0.52717 0.03600
H 	H 	0.31271 0.20689 0.42324 0.04200
H 	H 	0.42789 0.26757 0.42483 0.03400
H 	H 	0.44395 0.17739 0.50639 0.04400
C 	C 	0.74688 0.53089 0.99532 -0.07600
C 	C 	0.78288 0.57268 0.02696 0.00600
C 	C 	0.81559 0.63841 0.02927 -0.05000
C 	C 	0.81439 0.66358 0.99944 0.00200
C 	C 	0.77357 0.62079 0.96822 0.00700
C 	C 	0.74190 0.55490 0.96604 -0.01500
C 	C 	0.76283 0.64401 0.94001 -0.03900
C 	C 	0.79192 0.70910 0.94250 -0.04600
C 	C 	0.83587 0.75266 0.97232 0.02000
C 	C 	0.85006 0.73048 0.00042 0.00100
C 	C 	0.90223 0.77541 0.02748 -0.03800
H 	H 	0.78474 0.55411 0.04998 0.02600
H 	H 	0.83851 0.66882 0.05451 0.04100
H 	H 	0.71181 0.52221 0.94191 0.04300
H 	H 	0.73066 0.61134 0.91630 0.03800
H 	H 	0.78161 0.72591 0.92075 0.04000
H 	H 	0.92011 0.76030 0.04683 0.03800
C 	C 	0.92930 0.05496 0.99837 -0.00800
C 	C 	0.88031 0.03687 0.01728 -0.03000
C 	C 	0.84732 0.06364 0.01526 -0.03200
C 	C 	0.86458 0.11119 0.99515 -0.01300
C 	C 	0.91181 0.12692 0.97464 0.02500
C 	C 	0.94521 0.10021 0.97722 -0.05400
C 	C 	0.92284 0.16652 0.95053 -0.05100
C 	C 	0.88618 0.18893 0.94571 -0.03700
C 	C 	0.84067 0.17560 0.96646 0.00100
C 	C 	0.83245 0.14006 0.99288 0.00900
C 	C 	0.79444 0.13640 0.01703 -0.05400
C 	C 	0.75811 0.15923 0.01188 0.01000
C 	C 	0.76114 0.18853 0.98351 -0.08500
C 	C 	0.80388 0.19827 0.96142 -0.01800
H 	H 	0.86682 0.00093 0.03310 0.04200
H 	H 	0.80624 0.04451 0.02773 0.03700
H 	H 	0.98184 0.11284 0.96182 0.04500
H 	H 	0.95861 0.17837 0.93466 0.03800
H 	H 	0.89376 0.21745 0.92603 0.03200
H 	H 	0.79523 0.11901 0.04060 0.04300
H 	H 	0.72832 0.15498 0.03032 0.04300
H 	H 	0.80816 0.22295 0.94018 0.02900
C 	C 	0.44406 0.19090 0.99356 -0.07700
C 	C 	0.40994 0.14114 0.01183 0.00500
C 	C 	0.34636 0.11520 0.01401 -0.04900
C 	C 	0.31649 0.14043 0.99894 0.00000
C 	C 	0.34858 0.18581 0.97750 0.00800
C 	C 	0.41265 0.21183 0.97555 -0.02100
C 	C 	0.31591 0.20358 0.95767 -0.04000
C 	C 	0.25162 0.17632 0.95866 -0.04600
C 	C 	0.22011 0.13391 0.98113 0.01900
C 	C 	0.25365 0.11870 0.00303 0.00200
C 	C 	0.22475 0.08484 0.02938 -0.03800
C 	C 	0.16059 0.05813 0.03026 -0.02900
C 	C 	0.12507 0.06697 0.00594 -0.00300
C 	C 	0.15550 0.10689 0.98225 -0.05400
H 	H 	0.43284 0.12277 0.02464 0.04100
H 	H 	0.32000 0.07396 0.02612 0.04200
H 	H 	0.43796 0.24816 0.96004 0.03900
H 	H 	0.33996 0.23760 0.94084 0.03700
H 	H 	0.22658 0.18906 0.94230 0.04000
H 	H 	0.25217 0.08114 0.04992 0.03900
H 	H 	0.12859 0.11551 0.96419 0.04800
N 	N 	0.01995 0.96615 0.00364 -0.13000
C 	C 	0.95548 0.93115 0.00131 0.11100
N 	N 	0.92605 0.95978 0.99898 -0.13600
N 	N 	0.91424 0.94620 0.46352 -0.13400
C 	C 	0.94660 0.92055 0.46752 0.10700
N 	N 	0.01107 0.95769 0.46901 -0.13000
C 	C 	0.91216 0.85253 0.47020 -0.00500
C 	C 	0.94399 0.83321 0.48938 -0.05300
H 	H 	0.82605 0.82060 0.43513 0.04400
H 	H 	0.99201 0.86882 0.50425 0.04700
H 	H 	0.76053 0.99164 0.50212 0.04700
H 	H 	0.84342 0.98079 0.48858 0.05500
H 	H 	0.12830 0.00796 0.50260 0.04800
H 	H 	0.23249 0.03396 0.52499 0.04000
C 	C 	0.93499 0.84075 0.02817 -0.03000
C 	C 	0.91781 0.86247 0.00153 -0.00300
C 	C 	0.86822 0.81848 0.97369 -0.05400
H 	H 	0.97485 0.87465 0.04911 0.04100
H 	H 	0.85655 0.83551 0.95251 0.04800
H 	H 	0.13825 0.03016 0.04983 0.04200
