data_crystal

_cell_length_a 18.54117
_cell_length_b 18.81717
_cell_length_c 31.81653
_cell_angle_alpha 95.41819
_cell_angle_beta  95.41810
_cell_angle_gamma 126.41603

_symmetry_space_group_name_	'P 1'
_symmetry_space_group_name_H-M	'P 1'

loop_
_symmetry_equiv_pos_as_xyz
  x,y,z

loop_
_atom_site_label
_atom_site_type_symbol
_atom_site_fract_x
_atom_site_fract_y
_atom_site_fract_z
_atom_site_charge
C 	C 	0.92207 0.01160 0.95651 0.09800
N 	N 	0.01254 0.06294 0.95552 -0.12900
C 	C 	0.05786 0.02713 0.95780 0.12000
N 	N 	0.01275 0.93963 0.96104 -0.12400
C 	C 	0.92206 0.88728 0.96140 0.10900
N 	N 	0.87657 0.92349 0.95981 -0.13200
C 	C 	0.93389 0.01595 0.49578 0.09600
N 	N 	0.02590 0.06045 0.50443 -0.13000
C 	C 	0.06056 0.01463 0.49664 0.11100
N 	N 	0.00298 0.92563 0.47929 -0.12500
C 	C 	0.91153 0.88020 0.47430 0.11100
N 	N 	0.87717 0.92589 0.48109 -0.13100
Cu	Cu	0.76704 0.35835 0.95447 0.92700
Cu	Cu	0.76230 0.27816 0.04234 0.86900
Cu	Cu	0.62757 0.30718 0.01339 0.89200
Cu	Cu	0.60137 0.36319 0.93133 0.89600
C 	C 	0.69724 0.34294 0.86626 0.30200
O 	O 	0.82528 0.49191 0.95832 -0.35800
C 	C 	0.68894 0.31931 0.10568 0.30200
O 	O 	0.62623 0.28837 0.95272 -0.63500
O 	O 	0.76070 0.36640 0.01661 -0.64300
O 	O 	0.82510 0.29571 0.95232 -0.36500
O 	O 	0.72857 0.19669 0.99149 -0.43700
O 	O 	0.66268 0.38282 0.88064 -0.38800
O 	O 	0.49686 0.24228 0.00588 -0.39200
C 	C 	0.44759 0.24721 0.97522 0.30400
C 	C 	0.78749 0.52691 0.97446 0.28800
O 	O 	0.70468 0.47337 0.98218 -0.39000
O 	O 	0.48565 0.31237 0.95284 -0.39400
O 	O 	0.74864 0.33269 0.89270 -0.36200
C 	C 	0.78762 0.21929 0.96613 0.30000
O 	O 	0.62671 0.30874 0.07586 -0.38400
O 	O 	0.76231 0.33093 0.09621 -0.42400
H 	H 	0.58474 0.22458 0.93804 0.16300
H 	H 	0.80081 0.42783 0.03419 0.17100
Cu	Cu	0.61791 0.21070 0.51397 0.92200
Cu	Cu	0.65358 0.16209 0.41822 0.87200
Cu	Cu	0.64111 0.32446 0.44639 0.91000
Cu	Cu	0.60128 0.36844 0.52924 0.89400
C 	C 	0.64883 0.30067 0.60065 0.28800
O 	O 	0.48271 0.14646 0.51742 -0.36000
C 	C 	0.64528 0.26955 0.36198 0.28800
O 	O 	0.67649 0.34418 0.50726 -0.64100
O 	O 	0.59110 0.19778 0.45017 -0.63100
O 	O 	0.70083 0.17418 0.52032 -0.36600
O 	O 	0.64574 0.08477 0.45410 -0.42600
O 	O 	0.60410 0.33055 0.58578 -0.38500
O 	O 	0.69862 0.44915 0.44481 -0.38600
C 	C 	0.69017 0.50051 0.47168 0.30100
C 	C 	0.43961 0.17720 0.50205 0.29100
O 	O 	0.48511 0.25074 0.48625 -0.39400
O 	O 	0.63082 0.46654 0.49770 -0.39800
O 	O 	0.65752 0.24717 0.57527 -0.36200
C 	C 	0.70083 0.11914 0.49146 0.29600
O 	O 	0.60848 0.29785 0.38458 -0.38400
O 	O 	0.69737 0.25227 0.38183 -0.42900
H 	H 	0.74269 0.39062 0.51830 0.16000
H 	H 	0.52481 0.15604 0.43839 0.16000
C 	C 	0.69717 0.32483 0.73738 0.01400
C 	C 	0.71441 0.39754 0.71938 -0.05700
C 	C 	0.70175 0.39081 0.67474 0.00900
C 	C 	0.69920 0.33317 0.82111 -0.09900
C 	C 	0.65801 0.23966 0.66584 0.01200
C 	C 	0.67038 0.24643 0.71055 -0.05800
C 	C 	0.69915 0.32808 0.78299 0.03500
C 	C 	0.67183 0.31123 0.64767 -0.08100
H 	H 	0.73548 0.45851 0.73993 0.04500
H 	H 	0.71375 0.44688 0.66119 0.02500
H 	H 	0.63484 0.17779 0.64539 0.03900
H 	H 	0.65695 0.18993 0.72420 0.04500
C 	C 	0.65260 0.29238 0.22938 0.01200
C 	C 	0.64472 0.34911 0.25699 -0.05900
C 	C 	0.64052 0.34070 0.30014 0.01400
C 	C 	0.67378 0.31270 0.14910 -0.10800
C 	C 	0.65092 0.21795 0.28800 0.00900
C 	C 	0.65484 0.22632 0.24491 -0.06000
C 	C 	0.66314 0.30457 0.18568 0.03500
C 	C 	0.64459 0.27559 0.31598 -0.09100
H 	H 	0.64311 0.40045 0.24524 0.04500
H 	H 	0.63611 0.38599 0.32137 0.03700
H 	H 	0.65320 0.16692 0.29965 0.01500
H 	H 	0.66077 0.18212 0.22373 0.04000
C 	C 	0.80275 0.72362 0.43453 -0.07900
C 	C 	0.85338 0.78341 0.47371 -0.02800
C 	C 	0.84812 0.75003 0.51226 0.07400
C 	C 	0.79527 0.65720 0.51052 -0.02900
C 	C 	0.74451 0.59715 0.47145 -0.11100
C 	C 	0.74576 0.63041 0.43313 0.12600
N 	N 	0.69015 0.57387 0.39551 -0.20300
H 	H 	0.80590 0.74967 0.40521 0.05400
H 	H 	0.79309 0.63141 0.53985 0.03100
N 	N 	0.89284 0.80669 0.55104 -0.19500
H 	H 	0.69513 0.59882 0.36706 0.08500
H 	H 	0.63818 0.50587 0.39445 0.10000
H 	H 	0.92922 0.87608 0.55391 0.08600
H 	H 	0.88994 0.78122 0.57916 0.07800
C 	C 	0.77134 0.05843 0.52907 -0.02500
C 	C 	0.77350 0.10824 0.49848 -0.10900
C 	C 	0.84348 0.14471 0.47375 0.10700
C 	C 	0.90248 0.12079 0.47622 -0.07700
C 	C 	0.89467 0.06391 0.50397 -0.02700
C 	C 	0.83285 0.03768 0.53274 0.06700
N 	N 	0.83228 0.99257 0.56383 -0.18700
H 	H 	0.72080 0.03441 0.54957 0.04100
H 	H 	0.95197 0.14351 0.45520 0.04800
N 	N 	0.85517 0.20341 0.44813 -0.20100
H 	H 	0.78417 0.97015 0.58389 0.08700
H 	H 	0.88187 0.98267 0.56950 0.09000
H 	H 	0.81911 0.22980 0.44899 0.03600
H 	H 	0.90423 0.22683 0.42856 0.07400
C 	C 	0.22265 0.15261 0.50759 -0.07700
C 	C 	0.16045 0.06061 0.50816 -0.02800
C 	C 	0.19444 0.01136 0.51587 0.07100
C 	C 	0.28533 0.04913 0.51273 -0.03000
C 	C 	0.34670 0.14022 0.51030 -0.10400
C 	C 	0.31655 0.19427 0.51295 0.11700
N 	N 	0.37714 0.28525 0.52430 -0.19500
H 	H 	0.19868 0.19259 0.50460 0.05900
H 	H 	0.30881 0.00843 0.51383 0.04600
N 	N 	0.14297 0.93197 0.52969 -0.18800
H 	H 	0.35509 0.32485 0.52226 0.08400
H 	H 	0.44387 0.31634 0.53990 0.05500
H 	H 	0.08559 0.91340 0.54256 0.09800
H 	H 	0.16539 0.89271 0.53192 0.09000
C 	C 	0.85508 0.76226 0.00187 -0.08500
C 	C 	0.87342 0.79097 0.96249 -0.02000
C 	C 	0.86406 0.73264 0.92714 0.07700
C 	C 	0.84230 0.64912 0.93261 -0.03500
C 	C 	0.82610 0.62116 0.97227 -0.09400
C 	C 	0.83336 0.67865 0.00743 0.10700
N 	N 	0.82300 0.65561 0.04689 -0.20100
H 	H 	0.86299 0.80728 0.02903 0.05400
H 	H 	0.83449 0.60427 0.90539 0.05100
N 	N 	0.87484 0.75604 0.88775 -0.19500
H 	H 	0.82559 0.69699 0.07232 0.08300
H 	H 	0.81593 0.59851 0.05318 0.08300
H 	H 	0.88395 0.81430 0.88184 0.08600
H 	H 	0.87100 0.71417 0.86211 0.08300
C 	C 	0.80128 0.11036 0.92466 -0.02500
C 	C 	0.82794 0.17139 0.96254 -0.10900
C 	C 	0.88084 0.17519 0.99910 0.11300
C 	C 	0.90184 0.11466 0.99774 -0.06600
C 	C 	0.87710 0.05496 0.95968 -0.02900
C 	C 	0.82553 0.05208 0.92279 0.06700
N 	N 	0.79878 0.99352 0.88565 -0.18900
H 	H 	0.75983 0.10667 0.89683 0.04000
H 	H 	0.94243 0.11773 0.02578 0.03900
N 	N 	0.91376 0.23839 0.03516 -0.20700
H 	H 	0.76226 0.99297 0.85834 0.08700
H 	H 	0.81240 0.94698 0.88371 0.09200
H 	H 	0.90811 0.29043 0.03563 0.03700
H 	H 	0.94947 0.23845 0.06264 0.07000
C 	C 	0.29342 0.11948 0.93663 -0.03900
C 	C 	0.34834 0.19047 0.97181 -0.08900
C 	C 	0.30756 0.20984 0.00168 0.09800
C 	C 	0.21218 0.15633 0.99604 -0.04500
C 	C 	0.15723 0.08512 0.96090 -0.04100
C 	C 	0.19807 0.06757 0.93033 0.08700
N 	N 	0.14641 0.00296 0.89436 -0.20700
H 	H 	0.32510 0.10592 0.91347 0.03400
H 	H 	0.18055 0.16973 0.01928 0.04300
N 	N 	0.35936 0.27988 0.03554 -0.19800
H 	H 	0.17709 0.98849 0.87275 0.09400
H 	H 	0.07609 0.96900 0.88658 0.10300
H 	H 	0.43048 0.32239 0.04024 0.09600
H 	H 	0.32840 0.29307 0.05753 0.08500
