data_crystal

_cell_length_a 20.21857
_cell_length_b 20.54694
_cell_length_c 28.58141
_cell_angle_alpha 95.48651
_cell_angle_beta  95.48624
_cell_angle_gamma 126.13372

_symmetry_space_group_name_	'P 1'
_symmetry_space_group_name_H-M	'P 1'

loop_
_symmetry_equiv_pos_as_xyz
  x,y,z

loop_
_atom_site_label
_atom_site_type_symbol
_atom_site_fract_x
_atom_site_fract_y
_atom_site_fract_z
_atom_site_charge
C 	C 	0.95394 0.03269 0.00039 0.10800
N 	N 	0.03619 0.07469 0.99799 -0.12600
C 	C 	0.06950 0.03356 0.99315 0.11900
N 	N 	0.02082 0.95128 0.99053 -0.11200
C 	C 	0.93914 0.90963 0.99282 0.12100
N 	N 	0.90562 0.95020 0.99781 -0.12500
C 	C 	0.91972 0.00060 0.44979 0.09800
N 	N 	0.87709 0.91917 0.45151 -0.12000
C 	C 	0.91924 0.88634 0.45508 0.11900
N 	N 	0.00281 0.93470 0.45733 -0.11200
C 	C 	0.04485 0.01533 0.45589 0.12100
N 	N 	0.00344 0.04822 0.45200 -0.12100
Cu	Cu	0.62576 0.22007 0.01048 0.92900
Cu	Cu	0.69637 0.22443 0.91135 0.87000
Cu	Cu	0.66702 0.34421 0.94510 0.89700
Cu	Cu	0.62271 0.36974 0.03839 0.90000
C 	C 	0.64655 0.28451 0.10916 0.30200
O 	O 	0.50278 0.16955 0.00810 -0.35000
C 	C 	0.65286 0.28973 0.84198 0.30100
O 	O 	0.69072 0.34700 0.01237 -0.63600
O 	O 	0.61502 0.22509 0.94148 -0.64100
O 	O 	0.68170 0.16570 0.01052 -0.36000
O 	O 	0.77343 0.25244 0.96694 -0.44100
O 	O 	0.60704 0.31398 0.09429 -0.37800
O 	O 	0.72499 0.46151 0.95265 -0.37900
C 	C 	0.72156 0.50716 0.98664 0.30800
C 	C 	0.47019 0.20323 0.98956 0.29800
O 	O 	0.51931 0.27825 0.98193 -0.39400
O 	O 	0.66825 0.47473 0.01597 -0.38300
O 	O 	0.65323 0.23662 0.07902 -0.35400
C 	C 	0.75256 0.19952 0.99531 0.29800
O 	O 	0.65692 0.34211 0.87526 -0.37300
O 	O 	0.64555 0.22478 0.85188 -0.41800
H 	H 	0.75062 0.38459 0.02731 0.16800
H 	H 	0.55759 0.18808 0.92249 0.17800
Cu	Cu	0.75005 0.34364 0.44461 0.92600
Cu	Cu	0.74959 0.27836 0.54510 0.87200
Cu	Cu	0.62324 0.30065 0.51011 0.89800
Cu	Cu	0.59511 0.34286 0.41628 0.89900
C 	C 	0.68297 0.32076 0.34573 0.30200
O 	O 	0.79954 0.46491 0.44621 -0.35300
C 	C 	0.68334 0.32171 0.61385 0.30200
O 	O 	0.62092 0.27825 0.44282 -0.63700
O 	O 	0.74500 0.35509 0.51359 -0.63900
O 	O 	0.80401 0.28647 0.44480 -0.36500
O 	O 	0.71776 0.19937 0.49048 -0.44100
O 	O 	0.65158 0.35839 0.36029 -0.37900
O 	O 	0.50353 0.24078 0.50230 -0.37700
C 	C 	0.45636 0.24189 0.46758 0.31300
C 	C 	0.76317 0.49574 0.46348 0.30100
O 	O 	0.68769 0.44623 0.47197 -0.39100
O 	O 	0.48869 0.29645 0.43943 -0.38800
O 	O 	0.73286 0.31590 0.37605 -0.35500
C 	C 	0.76922 0.21720 0.46087 0.30700
O 	O 	0.62430 0.30717 0.57995 -0.37500
O 	O 	0.75023 0.33103 0.60372 -0.41800
H 	H 	0.58380 0.21927 0.42795 0.16700
H 	H 	0.78124 0.41207 0.53196 0.17800
C 	C 	0.65378 0.30227 0.79336 -0.09500
C 	C 	0.65704 0.31049 0.75220 0.03500
C 	C 	0.66356 0.31738 0.70383 0.03600
C 	C 	0.67137 0.32079 0.66261 -0.09500
C 	C 	0.68161 0.30615 0.29534 -0.08600
C 	C 	0.67792 0.29703 0.25259 0.03900
C 	C 	0.67050 0.28969 0.20234 0.03900
C 	C 	0.66128 0.28601 0.15958 -0.08500
C 	C 	0.87656 0.80060 0.45679 -0.01700
C 	C 	0.84865 0.73029 0.45849 -0.00600
C 	C 	0.82070 0.64913 0.46055 0.05900
C 	C 	0.79663 0.57982 0.46212 -0.10200
C 	C 	0.87791 0.03832 0.44841 -0.01800
C 	C 	0.84968 0.07648 0.44827 -0.01600
C 	C 	0.82130 0.12547 0.44982 0.05700
C 	C 	0.79823 0.16811 0.45327 -0.11600
C 	C 	0.36851 0.19382 0.46642 -0.10400
C 	C 	0.29445 0.15386 0.46462 0.06300
C 	C 	0.20764 0.10692 0.46183 -0.00600
C 	C 	0.13332 0.06590 0.45914 -0.01700
C 	C 	0.76652 0.59290 0.98653 -0.10300
C 	C 	0.80411 0.66522 0.98725 0.06200
C 	C 	0.84886 0.75008 0.98882 -0.00700
C 	C 	0.88876 0.82286 0.99055 -0.01900
C 	C 	0.79802 0.16631 0.00101 -0.10900
C 	C 	0.83671 0.13872 0.00334 0.05600
C 	C 	0.88106 0.10527 0.00380 -0.01200
C 	C 	0.91647 0.07425 0.00280 -0.02100
C 	C 	0.38378 0.16686 0.98884 -0.10500
C 	C 	0.31212 0.13919 0.98918 0.05900
C 	C 	0.22844 0.10696 0.99032 -0.00700
C 	C 	0.15639 0.07648 0.99160 -0.01800
