data_crystal

_cell_length_a 18.48838
_cell_length_b 18.85164
_cell_length_c 26.46457
_cell_angle_alpha 95.42367
_cell_angle_beta  95.42387
_cell_angle_gamma 126.42327

_symmetry_space_group_name_	'P 1'
_symmetry_space_group_name_H-M	'P 1'

loop_
_symmetry_equiv_pos_as_xyz
  x,y,z

loop_
_atom_site_label
_atom_site_type_symbol
_atom_site_fract_x
_atom_site_fract_y
_atom_site_fract_z
_atom_site_charge
C 	C 	0.94785 0.03285 0.99140 0.11600
N 	N 	0.03817 0.08387 0.98829 -0.10900
C 	C 	0.08183 0.04589 0.98693 0.13700
N 	N 	0.03505 0.95729 0.98803 -0.10300
C 	C 	0.94523 0.90673 0.99109 0.14200
N 	N 	0.90185 0.94446 0.99285 -0.11700
C 	C 	0.90452 0.99154 0.45378 0.18400
N 	N 	0.85860 0.90251 0.45498 -0.12700
C 	C 	0.90471 0.86679 0.45607 0.15400
N 	N 	0.99584 0.91993 0.45618 -0.12400
C 	C 	0.04132 0.00833 0.45510 0.15900
N 	N 	0.99583 0.04411 0.45421 -0.14700
Cu	Cu	0.61708 0.20515 0.00973 0.93500
Cu	Cu	0.68898 0.21844 0.90019 0.88800
Cu	Cu	0.67195 0.35259 0.94798 0.90300
Cu	Cu	0.64358 0.38108 0.05466 0.90500
C 	C 	0.65013 0.26379 0.11927 0.30500
O 	O 	0.48866 0.16669 0.01180 -0.32700
C 	C 	0.64649 0.30547 0.83449 0.30100
O 	O 	0.70286 0.34561 0.01801 -0.63500
O 	O 	0.60490 0.22048 0.93743 -0.64000
O 	O 	0.66570 0.13565 0.00029 -0.33700
O 	O 	0.77146 0.23608 0.95715 -0.42200
O 	O 	0.61582 0.30641 0.10897 -0.36300
O 	O 	0.74584 0.48176 0.96049 -0.35700
C 	C 	0.74621 0.53310 0.99826 0.31100
C 	C 	0.46260 0.21401 0.99608 0.29400
O 	O 	0.52411 0.29873 0.99371 -0.37900
O 	O 	0.71757 0.50551 0.04134 -0.36900
O 	O 	0.64927 0.21130 0.08211 -0.33900
C 	C 	0.74402 0.17292 0.98448 0.30400
O 	O 	0.64989 0.35644 0.87420 -0.33900
O 	O 	0.63640 0.23131 0.83953 -0.39100
H 	H 	0.76920 0.37958 0.03121 0.17900
H 	H 	0.54165 0.18517 0.91761 0.20300
Cu	Cu	0.75411 0.33725 0.44475 0.93000
Cu	Cu	0.74741 0.27762 0.55780 0.89000
Cu	Cu	0.61392 0.30178 0.51182 0.90300
Cu	Cu	0.58189 0.32717 0.40461 0.90600
C 	C 	0.68368 0.29760 0.33574 0.30300
O 	O 	0.80505 0.46685 0.43955 -0.32900
C 	C 	0.67001 0.33148 0.62484 0.29800
O 	O 	0.61192 0.26426 0.44112 -0.63800
O 	O 	0.74706 0.35880 0.51817 -0.63600
O 	O 	0.81632 0.27917 0.45263 -0.34500
O 	O 	0.71857 0.18821 0.50258 -0.41000
O 	O 	0.64697 0.33828 0.34633 -0.35400
O 	O 	0.48282 0.23706 0.50309 -0.35100
C 	C 	0.42886 0.22657 0.46181 0.30900
C 	C 	0.76373 0.50086 0.45474 0.29400
O 	O 	0.67919 0.44725 0.46187 -0.37600
O 	O 	0.46164 0.27474 0.42535 -0.36800
O 	O 	0.73764 0.29738 0.37210 -0.33800
C 	C 	0.77865 0.20655 0.47322 0.30000
O 	O 	0.61836 0.33080 0.58623 -0.34300
O 	O 	0.74343 0.33823 0.61811 -0.39300
H 	H 	0.57197 0.19843 0.42891 0.17400
H 	H 	0.78739 0.42237 0.53602 0.18600
C 	C 	0.56696 0.25904 0.74327 -0.02800
C 	C 	0.64169 0.32515 0.78225 -0.07000
C 	C 	0.71824 0.40214 0.76894 0.12400
C 	C 	0.72325 0.40777 0.71682 -0.02800
C 	C 	0.65259 0.33703 0.67773 -0.07300
C 	C 	0.57210 0.26446 0.69116 0.12500
Br	Br	0.47150 0.16828 0.63899 -0.20300
H 	H 	0.50681 0.20081 0.75336 0.08300
H 	H 	0.78429 0.46501 0.70673 0.07700
Br	Br	0.81980 0.49705 0.82114 -0.20600
C 	C 	0.75068 0.31939 0.20495 -0.03400
C 	C 	0.66495 0.25497 0.17313 -0.07300
C 	C 	0.59006 0.19345 0.19531 0.13000
C 	C 	0.59934 0.20246 0.24913 -0.03500
C 	C 	0.68281 0.27263 0.28116 -0.07200
C 	C 	0.76003 0.32861 0.25883 0.13200
Br	Br	0.87740 0.42165 0.30110 -0.18200
H 	H 	0.80902 0.36571 0.18798 0.06700
H 	H 	0.54021 0.15794 0.26607 0.06400
Br	Br	0.47306 0.10020 0.15277 -0.18900
C 	C 	0.81322 0.70836 0.41095 -0.04900
C 	C 	0.85685 0.77082 0.45753 -0.00900
C 	C 	0.87236 0.74473 0.50312 0.07900
C 	C 	0.84656 0.65763 0.50124 -0.01100
C 	C 	0.80507 0.59599 0.45438 -0.07600
C 	C 	0.78816 0.62163 0.40904 0.11400
N 	N 	0.74593 0.55983 0.36084 -0.02800
H 	H 	0.80248 0.72837 0.37564 0.08700
H 	H 	0.85692 0.63736 0.53653 0.06200
N 	N 	0.91496 0.80682 0.55137 -0.01900
O 	O 	0.66672 0.53353 0.33705 -0.09400
O 	O 	0.79008 0.53595 0.33865 -0.06800
O 	O 	0.88254 0.84830 0.56740 -0.07900
O 	O 	0.98326 0.81844 0.58049 -0.08100
C 	C 	0.81193 0.11687 0.41889 -0.01600
C 	C 	0.81052 0.15072 0.46805 -0.07700
C 	C 	0.83198 0.12468 0.51194 0.10300
C 	C 	0.85356 0.06484 0.50606 -0.04100
C 	C 	0.85807 0.03347 0.45719 -0.03800
C 	C 	0.83600 0.05883 0.41329 0.08600
N 	N 	0.83776 0.02564 0.36290 -0.03000
H 	H 	0.79406 0.13526 0.38494 0.07300
H 	H 	0.87221 0.04701 0.54002 0.07500
N 	N 	0.83623 0.16221 0.56276 -0.02700
O 	O 	0.76191 0.97045 0.32946 -0.06000
O 	O 	0.91561 0.05643 0.34904 -0.07900
O 	O 	0.78816 0.10963 0.59377 -0.10600
O 	O 	0.89375 0.24847 0.57948 -0.13600
C 	C 	0.19958 0.13609 0.49785 -0.05100
C 	C 	0.14006 0.06559 0.45589 -0.00900
C 	C 	0.17559 0.04849 0.41571 0.06800
C 	C 	0.27034 0.10108 0.41840 -0.00700
C 	C 	0.32996 0.17118 0.46053 -0.08100
C 	C 	0.29433 0.18940 0.50026 0.12400
N 	N 	0.35402 0.26328 0.54244 -0.02200
H 	H 	0.17223 0.14967 0.52860 0.08600
H 	H 	0.29762 0.08785 0.38746 0.05900
N 	N 	0.11553 0.97870 0.37170 -0.01000
O 	O 	0.40649 0.34471 0.53369 -0.07600
O 	O 	0.34986 0.24996 0.58975 -0.06500
O 	O 	0.05553 0.98040 0.34309 -0.05300
O 	O 	0.12494 0.91683 0.35826 -0.06600
C 	C 	0.86825 0.69290 0.03696 -0.00300
C 	C 	0.79565 0.62848 0.99659 -0.08500
C 	C 	0.77253 0.65580 0.95421 0.12000
C 	C 	0.82268 0.74722 0.95257 -0.05100
C 	C 	0.89513 0.81150 0.99297 -0.01600
C 	C 	0.91780 0.78426 0.03550 0.08600
N 	N 	0.99027 0.84935 0.07763 -0.02600
H 	H 	0.88623 0.67197 0.06955 0.06800
H 	H 	0.80472 0.76833 0.92007 0.08200
N 	N 	0.69705 0.59096 0.91329 -0.02200
O 	O 	0.98507 0.90685 0.10484 -0.06300
O 	O 	0.05829 0.84706 0.09100 -0.05300
O 	O 	0.61534 0.53659 0.92336 -0.08300
O 	O 	0.70873 0.59107 0.86559 -0.06800
C 	C 	0.81209 0.02261 0.95629 -0.08300
C 	C 	0.89762 0.07093 0.98929 -0.00200
C 	C 	0.93020 0.15077 0.02294 0.06600
C 	C 	0.87809 0.18243 0.02211 0.00500
C 	C 	0.79259 0.13380 0.98917 -0.09800
C 	C 	0.75939 0.05335 0.95624 0.11900
N 	N 	0.67264 0.00329 0.92207 -0.03200
H 	H 	0.78652 0.96104 0.93044 0.09900
H 	H 	0.90395 0.24466 0.04732 0.06100
N 	N 	0.01448 0.19819 0.05915 -0.01100
O 	O 	0.66138 0.03628 0.88374 -0.13900
O 	O 	0.60763 0.92166 0.92652 -0.06300
O 	O 	0.08102 0.28083 0.05738 -0.06700
O 	O 	0.02178 0.16153 0.09657 -0.05600
C 	C 	0.20986 0.08170 0.94360 -0.05000
C 	C 	0.18022 0.10067 0.98616 -0.01300
C 	C 	0.24473 0.16159 0.03076 0.08800
C 	C 	0.33746 0.20028 0.03300 -0.00200
C 	C 	0.36628 0.17791 0.99138 -0.08100
C 	C 	0.30263 0.12044 0.94590 0.11500
N 	N 	0.33195 0.10148 0.90192 -0.02700
H 	H 	0.16051 0.03534 0.90907 0.08000
H 	H 	0.38668 0.24561 0.06780 0.06600
N 	N 	0.21583 0.18131 0.07470 -0.01800
O 	O 	0.29910 0.01924 0.88362 -0.08900
O 	O 	0.38550 0.16529 0.87765 -0.09800
O 	O 	0.16685 0.11932 0.10112 -0.05900
O 	O 	0.24596 0.26324 0.09122 -0.06500
