data_crystal

_cell_length_a 21.90847
_cell_length_b 21.73717
_cell_length_c 51.74491
_cell_angle_alpha 89.85208
_cell_angle_beta  89.85549
_cell_angle_gamma 119.79475

_symmetry_space_group_name_	'P 1'
_symmetry_space_group_name_H-M	'P 1'

loop_
_symmetry_equiv_pos_as_xyz
  x,y,z

loop_
_atom_site_label
_atom_site_type_symbol
_atom_site_fract_x
_atom_site_fract_y
_atom_site_fract_z
_atom_site_charge
C 	C 	0.66885 0.47430 0.93562 0.29700
C 	C 	0.57437 0.17098 0.92454 0.30800
C 	C 	0.74471 0.37684 0.96037 0.31000
C 	C 	0.49331 0.27525 0.89229 0.28300
C 	C 	0.76580 0.29480 0.88299 0.30500
C 	C 	0.70084 0.41179 0.85275 0.28300
Ni	Ni	0.59885 0.31558 0.93724 1.11200
Ni	Ni	0.62340 0.27064 0.88012 1.12000
Ni	Ni	0.74609 0.40930 0.90601 1.12200
O 	O 	0.60746 0.41460 0.93491 -0.37700
O 	O 	0.72916 0.47743 0.92861 -0.37700
O 	O 	0.70015 0.25000 0.88875 -0.39500
O 	O 	0.60007 0.22140 0.94192 -0.37700
O 	O 	0.55795 0.18351 0.90145 -0.38300
O 	O 	0.73240 0.45064 0.87341 -0.38100
O 	O 	0.67974 0.36272 0.96463 -0.37300
O 	O 	0.76292 0.36555 0.93759 -0.38400
O 	O 	0.68012 0.34281 0.85189 -0.38100
O 	O 	0.50279 0.26384 0.91696 -0.36700
O 	O 	0.53828 0.28124 0.87384 -0.38000
O 	O 	0.79002 0.36367 0.88437 -0.38200
O 	O 	0.64904 0.34091 0.90590 -0.71800
H 	H 	0.63084 0.36980 0.89798 0.15900
C 	C 	0.88561 0.50070 0.56425 0.28900
C 	C 	0.61104 0.25697 0.54027 0.31300
C 	C 	0.70120 0.48920 0.54147 0.30700
C 	C 	0.77695 0.27278 0.56939 0.27800
C 	C 	0.60190 0.38375 0.60580 0.29700
C 	C 	0.76129 0.39699 0.63775 0.29200
Ni	Ni	0.75258 0.38453 0.54101 1.11200
Ni	Ni	0.67144 0.30319 0.59350 1.12000
Ni	Ni	0.75386 0.47323 0.59241 1.12200
O 	O 	0.85913 0.45365 0.54541 -0.37400
O 	O 	0.84968 0.52976 0.57419 -0.36700
O 	O 	0.59856 0.33258 0.59137 -0.39300
O 	O 	0.64710 0.32253 0.53230 -0.38700
O 	O 	0.62628 0.23788 0.56241 -0.37800
O 	O 	0.79796 0.45085 0.62193 -0.39100
O 	O 	0.74468 0.47259 0.52997 -0.37000
O 	O 	0.70872 0.50630 0.56598 -0.38000
O 	O 	0.70079 0.34086 0.63045 -0.38000
O 	O 	0.76414 0.29449 0.54684 -0.36700
O 	O 	0.74360 0.27151 0.59111 -0.37700
O 	O 	0.66343 0.43675 0.61323 -0.38000
O 	O 	0.73836 0.38794 0.57643 -0.71700
H 	H 	0.78158 0.38972 0.58258 0.14700
C 	C 	0.93662 0.05369 0.68642 0.26200
C 	C 	0.94305 0.85651 0.76143 0.28400
C 	C 	0.94718 0.06994 0.76144 0.29600
C 	C 	0.94107 0.83195 0.70385 0.27100
C 	C 	0.14442 0.07619 0.76072 0.30600
C 	C 	0.15238 0.07515 0.68934 0.29000
Ni	Ni	0.90990 0.94393 0.72667 1.11300
Ni	Ni	0.06624 0.95205 0.72685 1.12500
Ni	Ni	0.05609 0.09450 0.72271 1.11700
O 	O 	0.89480 0.98657 0.69294 -0.35200
O 	O 	0.97717 0.10011 0.70401 -0.38300
O 	O 	0.12379 0.00887 0.75714 -0.39100
O 	O 	0.91909 0.90103 0.76105 -0.37800
O 	O 	0.00813 0.87680 0.75411 -0.36300
O 	O 	0.10446 0.09529 0.68983 -0.39500
O 	O 	0.89877 0.02164 0.74642 -0.37800
O 	O 	0.01405 0.09155 0.75778 -0.38600
O 	O 	0.14147 0.01434 0.70014 -0.38000
O 	O 	0.89452 0.85381 0.70644 -0.37000
O 	O 	0.00876 0.87782 0.70010 -0.36900
O 	O 	0.14443 0.11526 0.74139 -0.40100
O 	O 	0.00811 0.99359 0.72091 -0.69700
H 	H 	0.00566 0.98795 0.70197 0.15400
C 	C 	0.15856 0.71224 0.42970 0.28800
C 	C 	0.38810 0.65681 0.46584 0.31300
C 	C 	0.34178 0.83323 0.43692 0.31300
C 	C 	0.20818 0.53733 0.46958 0.29900
C 	C 	0.39815 0.70838 0.38481 0.30600
C 	C 	0.20280 0.56361 0.37845 0.28600
Ni	Ni	0.27050 0.69186 0.46068 1.11400
Ni	Ni	0.30265 0.59603 0.42097 1.12400
Ni	Ni	0.27212 0.71471 0.39850 1.12100
O 	O 	0.19609 0.72408 0.45139 -0.36400
O 	O 	0.17323 0.68879 0.40829 -0.38200
O 	O 	0.35947 0.63946 0.38847 -0.38400
O 	O 	0.34139 0.66602 0.47882 -0.37100
O 	O 	0.38954 0.66142 0.44081 -0.38600
O 	O 	0.23849 0.63283 0.37275 -0.37700
O 	O 	0.35331 0.79000 0.45086 -0.37600
O 	O 	0.30128 0.80973 0.41636 -0.37800
O 	O 	0.21927 0.53717 0.39869 -0.38300
O 	O 	0.19397 0.58949 0.46882 -0.38000
O 	O 	0.25473 0.53449 0.45352 -0.37300
O 	O 	0.37414 0.75083 0.39122 -0.38600
O 	O 	0.26544 0.65680 0.42722 -0.71600
H 	H 	0.21514 0.62121 0.42637 0.16600
C 	C 	0.45540 0.61294 0.06021 0.29200
C 	C 	0.27299 0.64701 0.13762 0.30400
C 	C 	0.27757 0.47713 0.08880 0.30600
C 	C 	0.45132 0.77850 0.11357 0.28300
C 	C 	0.18322 0.59466 0.06090 0.31500
C 	C 	0.35741 0.74181 0.03238 0.29200
Ni	Ni	0.37749 0.62008 0.10891 1.11300
Ni	Ni	0.30837 0.71064 0.08631 1.12000
Ni	Ni	0.31341 0.59338 0.05117 1.12100
O 	O 	0.43369 0.58871 0.08418 -0.36800
O 	O 	0.41367 0.61975 0.04321 -0.38000
O 	O 	0.22138 0.66396 0.06374 -0.38200
O 	O 	0.33272 0.64685 0.13971 -0.37100
O 	O 	0.24719 0.64581 0.11483 -0.38800
O 	O 	0.31790 0.67225 0.02815 -0.37800
O 	O 	0.28934 0.52022 0.10812 -0.37600
O 	O 	0.30459 0.50224 0.06591 -0.37700
O 	O 	0.36175 0.76953 0.05564 -0.38600
O 	O 	0.45989 0.72241 0.11192 -0.37500
O 	O 	0.38765 0.77283 0.11193 -0.37400
O 	O 	0.21316 0.55549 0.06165 -0.39400
O 	O 	0.35004 0.65359 0.08030 -0.71700
H 	H 	0.39599 0.68984 0.07339 0.16100
C 	C 	0.04062 0.13217 0.27736 0.29300
C 	C 	0.06640 0.89373 0.23075 0.30000
C 	C 	0.06945 0.08914 0.20786 0.30400
C 	C 	0.02911 0.92061 0.30057 0.28600
C 	C 	0.86659 0.90338 0.20789 0.30500
C 	C 	0.83099 0.91113 0.27563 0.28600
Ni	Ni	0.08504 0.02591 0.25699 1.10400
Ni	Ni	0.93605 0.87846 0.25325 1.11800
Ni	Ni	0.94182 0.02484 0.24046 1.10900
O 	O 	0.09162 0.12268 0.26737 -0.37400
O 	O 	0.97347 0.09076 0.27114 -0.39600
O 	O 	0.86286 0.85731 0.22538 -0.38400
O 	O 	0.10328 0.94293 0.24785 -0.36300
O 	O 	0.00136 0.87745 0.22563 -0.37600
O 	O 	0.84576 0.95861 0.25670 -0.37800
O 	O 	0.09832 0.05452 0.21816 -0.38200
O 	O 	0.02683 0.10223 0.22165 -0.38400
O 	O 	0.86677 0.87705 0.27893 -0.38900
O 	O 	0.07387 0.98800 0.29461 -0.36200
O 	O 	0.99731 0.87241 0.28207 -0.37900
O 	O 	0.91893 0.96836 0.20811 -0.39200
O 	O 	0.98618 0.97890 0.25602 -0.71100
H 	H 	0.97597 0.98409 0.27417 0.15900
C 	C 	0.24754 0.40152 0.09421 -0.07400
C 	C 	0.17500 0.35602 0.09183 0.00700
C 	C 	0.14264 0.29035 0.10444 -0.05100
C 	C 	0.18243 0.27188 0.12091 0.00500
C 	C 	0.25673 0.31245 0.11960 0.00900
C 	C 	0.28889 0.37748 0.10635 -0.01400
C 	C 	0.29778 0.28980 0.13281 -0.04200
C 	C 	0.26623 0.23175 0.14950 -0.03900
C 	C 	0.19360 0.19787 0.15431 0.00400
C 	C 	0.15043 0.21676 0.13973 0.00900
C 	C 	0.07855 0.18644 0.14652 -0.05800
C 	C 	0.05125 0.14043 0.16761 0.01800
C 	C 	0.09488 0.12489 0.18271 -0.07900
C 	C 	0.16489 0.15037 0.17516 -0.01200
H 	H 	0.14332 0.37256 0.08100 0.03600
H 	H 	0.08770 0.25384 0.10079 0.04200
H 	H 	0.34552 0.41166 0.10715 0.03800
H 	H 	0.35454 0.31851 0.13073 0.03700
H 	H 	0.29898 0.21588 0.15999 0.03600
H 	H 	0.04452 0.20151 0.13672 0.04400
H 	H 	0.99653 0.11928 0.17294 0.02200
H 	H 	0.19843 0.13745 0.18663 0.04000
C 	C 	0.50932 0.84209 0.12513 -0.06600
C 	C 	0.50819 0.85053 0.15196 0.00500
C 	C 	0.56911 0.87062 0.16642 -0.05100
C 	C 	0.63164 0.88384 0.15377 0.00600
C 	C 	0.63626 0.89387 0.12667 0.01300
C 	C 	0.57469 0.87384 0.11242 -0.01800
C 	C 	0.70109 0.91878 0.11407 -0.04000
C 	C 	0.76009 0.92909 0.12790 -0.03800
C 	C 	0.75405 0.91025 0.15416 0.00800
C 	C 	0.68890 0.88526 0.16720 0.00700
C 	C 	0.68057 0.85553 0.19217 -0.05300
C 	C 	0.73773 0.85704 0.20471 0.00800
C 	C 	0.80385 0.88763 0.19263 -0.07900
C 	C 	0.81163 0.91330 0.16723 -0.01500
H 	H 	0.45877 0.83374 0.16185 0.03500
H 	H 	0.56742 0.87600 0.18714 0.04300
H 	H 	0.57646 0.87366 0.09146 0.03900
H 	H 	0.70563 0.92923 0.09346 0.04200
H 	H 	0.80991 0.94872 0.11789 0.04100
H 	H 	0.62967 0.82879 0.20154 0.04400
H 	H 	0.73100 0.83614 0.22419 0.04000
H 	H 	0.86248 0.93581 0.15771 0.04400
C 	C 	0.09618 0.85201 0.21904 -0.06800
C 	C 	0.05445 0.79366 0.20322 0.00300
C 	C 	0.08161 0.75294 0.19278 -0.05000
C 	C 	0.15084 0.76859 0.19866 0.00500
C 	C 	0.19428 0.82999 0.21332 0.01000
C 	C 	0.16629 0.87025 0.22390 -0.01600
C 	C 	0.26602 0.85242 0.21629 -0.04000
C 	C 	0.29584 0.81680 0.20380 -0.03900
C 	C 	0.25372 0.75570 0.18936 0.00700
C 	C 	0.18004 0.72804 0.18836 0.00700
C 	C 	0.13781 0.66076 0.17717 -0.05300
C 	C 	0.16896 0.62941 0.16270 0.00800
C 	C 	0.24236 0.66308 0.16016 -0.07700
C 	C 	0.28453 0.72295 0.17519 -0.01500
H 	H 	0.00101 0.78021 0.19867 0.04200
H 	H 	0.04983 0.71193 0.17913 0.04400
H 	H 	0.19946 0.91642 0.23550 0.04800
H 	H 	0.29939 0.89924 0.22754 0.04200
H 	H 	0.35198 0.83700 0.20527 0.04000
H 	H 	0.08146 0.63194 0.18003 0.04400
H 	H 	0.13592 0.58059 0.15243 0.03900
H 	H 	0.34124 0.74671 0.17446 0.04400
C 	C 	0.46401 0.73707 0.36990 -0.07200
C 	C 	0.51878 0.80611 0.37460 0.00800
C 	C 	0.57913 0.83605 0.35914 -0.05200
C 	C 	0.58436 0.79804 0.33796 0.00700
C 	C 	0.53176 0.72613 0.33473 0.00900
C 	C 	0.47125 0.69665 0.35034 -0.01500
C 	C 	0.54100 0.68400 0.31643 -0.04000
C 	C 	0.60228 0.71198 0.30161 -0.04100
C 	C 	0.65348 0.78373 0.30370 0.00900
C 	C 	0.64300 0.82846 0.32080 0.00600
C 	C 	0.68953 0.90247 0.31946 -0.05000
C 	C 	0.75029 0.92966 0.30421 0.00300
C 	C 	0.76409 0.88403 0.28947 -0.06800
C 	C 	0.71469 0.81157 0.28858 -0.01600
H 	H 	0.51495 0.83643 0.39048 0.04400
H 	H 	0.62265 0.88705 0.36451 0.04500
H 	H 	0.42959 0.64261 0.34709 0.04600
H 	H 	0.50126 0.62881 0.31409 0.03900
H 	H 	0.60949 0.67795 0.28815 0.03800
H 	H 	0.67755 0.93920 0.32916 0.04500
H 	H 	0.78684 0.98622 0.30399 0.03700
H 	H 	0.72404 0.77694 0.27614 0.03900
C 	C 	0.15906 0.51351 0.35840 -0.06900
C 	C 	0.18665 0.51936 0.33345 0.00600
C 	C 	0.16101 0.45967 0.31763 -0.05400
C 	C 	0.10908 0.39293 0.32712 0.01200
C 	C 	0.07274 0.39032 0.35010 0.00100
C 	C 	0.09822 0.45077 0.36572 -0.01200
C 	C 	0.01346 0.32674 0.35774 -0.01800
C 	C 	0.99245 0.26487 0.34361 -0.06400
C 	C 	0.03291 0.26463 0.32257 0.02000
C 	C 	0.09299 0.32854 0.31453 -0.00000
C 	C 	0.13893 0.32534 0.29606 -0.05000
C 	C 	0.12216 0.26113 0.28432 0.00400
C 	C 	0.06045 0.19869 0.29117 -0.07100
C 	C 	0.01603 0.20053 0.31033 -0.01400
H 	H 	0.23085 0.56901 0.32694 0.04000
H 	H 	0.18078 0.46585 0.29807 0.04400
H 	H 	0.07421 0.44749 0.38442 0.04100
H 	H 	0.98387 0.32503 0.37482 0.02800
H 	H 	0.94625 0.21626 0.34973 0.04000
H 	H 	0.18915 0.37134 0.29163 0.04200
H 	H 	0.15728 0.26005 0.26978 0.04000
H 	H 	0.96916 0.15192 0.31607 0.03400
C 	C 	0.02773 0.89591 0.32739 -0.06000
C 	C 	0.97464 0.82845 0.33525 0.00000
C 	C 	0.97871 0.80071 0.35918 -0.06100
C 	C 	0.03830 0.83888 0.37506 0.02200
C 	C 	0.08619 0.91063 0.36875 -0.00300
C 	C 	0.08081 0.93864 0.34492 -0.01100
C 	C 	0.14099 0.95253 0.38570 -0.00600
C 	C 	0.15439 0.92195 0.40705 -0.05400
C 	C 	0.11503 0.84855 0.41120 0.02200
C 	C 	0.05418 0.80648 0.39611 -0.00500
C 	C 	0.01698 0.73220 0.40028 -0.03500
C 	C 	0.04571 0.70054 0.41589 -0.00100
C 	C 	0.11156 0.74187 0.42733 -0.06300
C 	C 	0.14098 0.81563 0.42777 -0.02200
H 	H 	0.93000 0.79740 0.32283 0.03600
H 	H 	0.93433 0.75142 0.36555 0.04400
H 	H 	0.11964 0.99247 0.33961 0.05100
H 	H 	0.17515 0.00850 0.38175 0.01700
H 	H 	0.19888 0.95466 0.41932 0.05100
H 	H 	0.96844 0.69816 0.39044 0.03500
H 	H 	0.02031 0.64323 0.41682 0.03800
H 	H 	0.18999 0.84761 0.43798 0.05000
C 	C 	0.54027 0.10569 0.49236 -0.07700
C 	C 	0.47606 0.10043 0.48563 0.01600
C 	C 	0.45693 0.14809 0.49634 -0.00800
C 	C 	0.50121 0.19875 0.51434 -0.00100
C 	C 	0.56426 0.20200 0.52187 -0.09600
C 	C 	0.58432 0.15581 0.51033 0.05600
C 	C 	0.42527 0.03823 0.47061 -0.00100
S 	S 	0.37858 0.14566 0.48702 -0.04500
H 	H 	0.48650 0.23543 0.52254 0.03900
S 	S 	0.66478 0.16065 0.51771 -0.04000
H 	H 	0.55512 0.06920 0.48407 0.05100
C 	C 	0.43790 0.03178 0.44428 -0.02500
C 	C 	0.40608 0.96466 0.43273 0.02200
C 	C 	0.36182 0.90399 0.44728 -0.10100
C 	C 	0.34302 0.91182 0.47275 0.06400
C 	C 	0.37419 0.97889 0.48405 -0.05400
S 	S 	0.49501 0.10702 0.42592 -0.04600
H 	H 	0.41850 0.95937 0.41285 0.03800
S 	S 	0.28182 0.83829 0.49098 -0.08300
H 	H 	0.36251 0.98417 0.50403 0.05800
H 	H 	0.71545 0.20631 0.50082 0.03600
H 	H 	0.56242 0.11929 0.42833 0.03200
H 	H 	0.21610 0.83018 0.48798 0.05000
H 	H 	0.39132 0.18750 0.46557 0.03600
C 	C 	0.04220 0.48829 0.57507 -0.06300
C 	C 	0.07779 0.52347 0.55249 0.01300
C 	C 	0.06510 0.57601 0.54191 -0.00600
C 	C 	0.00736 0.58147 0.55064 0.01500
C 	C 	0.96138 0.53314 0.56906 -0.09300
C 	C 	0.98523 0.49487 0.58389 0.04400
C 	C 	0.11361 0.49385 0.53686 0.01400
S 	S 	0.11789 0.63139 0.51665 -0.03100
H 	H 	0.99298 0.61632 0.54067 0.03700
S 	S 	0.94170 0.45184 0.61250 -0.05100
H 	H 	0.05598 0.45275 0.58481 0.04900
C 	C 	0.18739 0.52520 0.53725 -0.00400
C 	C 	0.22240 0.52035 0.51528 -0.00600
C 	C 	0.18421 0.49166 0.49248 -0.08800
C 	C 	0.11181 0.44377 0.49486 0.05700
C 	C 	0.07603 0.44599 0.51701 -0.06900
S 	S 	0.23621 0.57588 0.56381 -0.03800
H 	H 	0.27938 0.54974 0.51454 0.04700
S 	S 	0.06419 0.39093 0.46853 -0.04700
H 	H 	0.01903 0.41657 0.51759 0.05600
H 	H 	0.88568 0.38647 0.60714 0.03800
H 	H 	0.25099 0.64451 0.56053 0.03600
H 	H 	0.04450 0.42878 0.45278 0.04100
H 	H 	0.17470 0.68988 0.52682 0.03000
C 	C 	0.63699 0.59609 0.50515 -0.07200
C 	C 	0.56461 0.55634 0.51035 0.01200
C 	C 	0.53704 0.48978 0.52265 -0.00300
C 	C 	0.58200 0.46433 0.52991 -0.00300
C 	C 	0.65486 0.50564 0.52598 -0.08900
C 	C 	0.68222 0.57131 0.51298 0.05800
C 	C 	0.51702 0.58040 0.49986 0.01800
S 	S 	0.44677 0.43920 0.53008 -0.04000
H 	H 	0.56076 0.41409 0.54008 0.04100
S 	S 	0.77311 0.62382 0.50703 -0.03500
H 	H 	0.65814 0.64641 0.49506 0.05400
C 	C 	0.50471 0.62980 0.51320 -0.00900
C 	C 	0.46004 0.65223 0.50250 0.00200
C 	C 	0.42700 0.62534 0.47867 -0.10000
C 	C 	0.43679 0.57270 0.46612 0.07400
C 	C 	0.48303 0.55249 0.47645 -0.07800
S 	S 	0.54495 0.66401 0.54317 -0.03400
H 	H 	0.45229 0.69166 0.51245 0.04200
S 	S 	0.38874 0.52829 0.43837 -0.10500
H 	H 	0.49142 0.51346 0.46647 0.05800
H 	H 	0.80445 0.66715 0.52777 0.04300
H 	H 	0.60958 0.72262 0.53908 0.03800
H 	H 	0.33101 0.46561 0.44556 0.04700
H 	H 	0.43485 0.45743 0.55413 0.03800
C 	C 	0.92695 0.07956 0.66108 -0.04900
C 	C 	0.87436 0.03312 0.64409 -0.02800
C 	C 	0.86079 0.05878 0.62132 -0.03800
C 	C 	0.89695 0.13227 0.61597 -0.00300
C 	C 	0.95640 0.17704 0.63110 0.02000
C 	C 	0.97078 0.15059 0.65369 -0.03600
C 	C 	0.99947 0.24816 0.62395 -0.05100
C 	C 	0.97996 0.27720 0.60373 -0.04400
C 	C 	0.91516 0.23676 0.59134 0.01000
C 	C 	0.87375 0.16305 0.59670 0.00800
C 	C 	0.80638 0.12473 0.58532 -0.05200
C 	C 	0.77827 0.16042 0.57174 0.00400
C 	C 	0.81609 0.23435 0.56947 -0.06500
C 	C 	0.88719 0.27076 0.57630 -0.02300
H 	H 	0.84416 0.97696 0.64840 0.06200
H 	H 	0.82485 0.02108 0.60753 0.03500
H 	H 	0.01496 0.18555 0.66572 0.05000
H 	H 	0.04727 0.28164 0.63455 0.04600
H 	H 	0.01302 0.33273 0.59894 0.04400
H 	H 	0.77310 0.06864 0.58862 0.04100
H 	H 	0.72385 0.13141 0.56571 0.03700
H 	H 	0.91797 0.32742 0.57285 0.03500
C 	C 	0.21924 0.12071 0.67596 -0.07000
C 	C 	0.28276 0.14481 0.68919 0.00300
C 	C 	0.34560 0.19854 0.67864 -0.05100
C 	C 	0.34551 0.22969 0.65465 0.00500
C 	C 	0.28236 0.20035 0.64022 0.00900
C 	C 	0.21924 0.14767 0.65131 -0.01700
C 	C 	0.28348 0.22212 0.61457 -0.04100
C 	C 	0.34706 0.26991 0.60272 -0.04000
C 	C 	0.40978 0.30025 0.61686 0.00800
C 	C 	0.40828 0.28513 0.64353 0.00600
C 	C 	0.46943 0.32602 0.65827 -0.05400
C 	C 	0.53362 0.36918 0.64581 0.00500
C 	C 	0.53718 0.37183 0.61874 -0.07400
C 	C 	0.47457 0.34334 0.60452 -0.01400
H 	H 	0.28322 0.12313 0.70803 0.03800
H 	H 	0.39420 0.21354 0.68869 0.04300
H 	H 	0.17021 0.12771 0.64083 0.04300
H 	H 	0.23534 0.19988 0.60345 0.04000
H 	H 	0.34753 0.28322 0.58249 0.04000
H 	H 	0.46741 0.32554 0.67916 0.04200
H 	H 	0.58110 0.39687 0.65712 0.03600
H 	H 	0.47686 0.34972 0.58366 0.04100
C 	C 	0.91515 0.75478 0.70195 -0.06200
C 	C 	0.96039 0.72983 0.69424 -0.01200
C 	C 	0.93607 0.65702 0.69289 -0.04600
C 	C 	0.86555 0.60743 0.69941 0.00200
C 	C 	0.82030 0.63285 0.70764 0.01300
C 	C 	0.84567 0.70602 0.70926 -0.02200
C 	C 	0.74868 0.58499 0.71220 -0.04000
C 	C 	0.71937 0.51426 0.70477 -0.03900
C 	C 	0.76219 0.48977 0.69419 0.00900
C 	C 	0.83623 0.53356 0.69464 0.00700
C 	C 	0.87778 0.50347 0.68730 -0.05000
C 	C 	0.84715 0.44054 0.67306 0.00600
C 	C 	0.77668 0.41034 0.66541 -0.07000
C 	C 	0.73251 0.42602 0.68022 -0.01700
H 	H 	0.01431 0.76679 0.68886 0.04900
H 	H 	0.97141 0.63994 0.68558 0.04100
H 	H 	0.81106 0.72497 0.71601 0.04500
H 	H 	0.71468 0.60372 0.71977 0.04000
H 	H 	0.66294 0.47952 0.70606 0.03900
H 	H 	0.93261 0.52782 0.69259 0.04100
H 	H 	0.87991 0.42066 0.66531 0.03400
H 	H 	0.67612 0.39548 0.67753 0.04200
C 	C 	0.99503 0.55381 0.04989 -0.08000
C 	C 	0.97277 0.49963 0.03148 0.00600
C 	C 	0.01779 0.47368 0.02434 0.00700
C 	C 	0.08626 0.50588 0.03383 -0.00200
C 	C 	0.11006 0.56221 0.05142 -0.09300
C 	C 	0.06285 0.58411 0.06041 0.06600
C 	C 	0.90831 0.47910 0.01645 0.01800
S 	S 	0.98927 0.40155 0.00302 -0.04300
H 	H 	0.12145 0.48744 0.02730 0.04000
S 	S 	0.08595 0.64561 0.08575 -0.04400
H 	H 	0.95991 0.57293 0.05580 0.05200
C 	C 	0.84411 0.41883 0.02337 -0.00900
C 	C 	0.78963 0.38774 0.00524 0.00200
C 	C 	0.79942 0.41523 0.98004 -0.09900
C 	C 	0.86253 0.47836 0.97375 0.06900
C 	C 	0.91499 0.51101 0.99233 -0.07800
S 	S 	0.83227 0.38066 0.05431 -0.04500
H 	H 	0.74082 0.34052 0.01043 0.03700
S 	S 	0.87828 0.51591 0.94256 -0.08900
H 	H 	0.96382 0.55840 0.98725 0.05600
H 	H 	0.11641 0.71282 0.07566 0.04100
H 	H 	0.80712 0.41226 0.07076 0.03400
H 	H 	0.86520 0.57135 0.94242 0.04700
H 	H 	0.95687 0.33954 0.01689 0.03600
C 	C 	0.55485 0.01545 0.96385 -0.09500
C 	C 	0.48761 0.96243 0.95629 0.03000
C 	C 	0.45495 0.97463 0.93499 0.00800
C 	C 	0.48563 0.04209 0.92362 -0.02300
C 	C 	0.55014 0.09703 0.93271 -0.09100
C 	C 	0.58730 0.08172 0.95155 0.05900
C 	C 	0.44788 0.89914 0.97302 0.01100
S 	S 	0.37593 0.90584 0.92235 -0.03100
H 	H 	0.45812 0.05238 0.90833 0.04600
S 	S 	0.67559 0.14320 0.95878 -0.04100
H 	H 	0.58135 0.00554 0.97962 0.05000
C 	C 	0.46927 0.84799 0.97583 -0.00200
C 	C 	0.43700 0.79434 0.99453 -0.00700
C 	C 	0.38247 0.79026 0.01002 -0.08400
C 	C 	0.35705 0.83757 0.00556 0.05800
C 	C 	0.39096 0.89269 0.98764 -0.06800
S 	S 	0.53547 0.84997 0.95589 -0.03700
H 	H 	0.45550 0.75692 0.99746 0.03900
S 	S 	0.28149 0.82697 0.02171 -0.03500
H 	H 	0.37342 0.93101 0.98517 0.05700
H 	H 	0.67804 0.18553 0.97879 0.04500
H 	H 	0.59959 0.88989 0.96742 0.03700
H 	H 	0.30087 0.86456 0.04430 0.03900
H 	H 	0.39107 0.86964 0.90416 0.04000
C 	C 	0.60981 0.58974 0.96783 -0.07200
C 	C 	0.64674 0.60299 0.99115 0.01300
C 	C 	0.70436 0.59137 0.99269 -0.00500
C 	C 	0.71747 0.55674 0.97252 -0.00300
C 	C 	0.67304 0.53316 0.95092 -0.08900
C 	C 	0.62286 0.55502 0.94766 0.05700
C 	C 	0.61525 0.61307 0.01487 0.01400
S 	S 	0.75832 0.61712 0.02023 -0.03900
H 	H 	0.75849 0.54300 0.97460 0.04500
S 	S 	0.57561 0.53837 0.91862 -0.04400
H 	H 	0.56771 0.60203 0.96607 0.05400
C 	C 	0.61600 0.67725 0.01940 -0.00600
C 	C 	0.56916 0.67927 0.03736 -0.00400
C 	C 	0.52038 0.61728 0.05037 -0.08800
C 	C 	0.52579 0.55545 0.04810 0.05700
C 	C 	0.57378 0.55406 0.03060 -0.07200
S 	S 	0.67315 0.75444 0.00194 -0.03900
H 	H 	0.56692 0.72767 0.03974 0.03700
S 	S 	0.46904 0.47773 0.06543 -0.03600
H 	H 	0.57512 0.50532 0.02780 0.05400
H 	H 	0.61225 0.59363 0.90180 0.03700
H 	H 	0.64060 0.75728 0.97976 0.03600
H 	H 	0.49824 0.47850 0.08889 0.03600
H 	H 	0.81207 0.68537 0.01701 0.03700
C 	C 	0.92694 0.10513 0.78111 -0.07100
C 	C 	0.96596 0.17900 0.78373 -0.00100
C 	C 	0.94829 0.21302 0.80271 -0.05000
C 	C 	0.88904 0.17358 0.81873 0.00500
C 	C 	0.85414 0.09853 0.81772 0.00800
C 	C 	0.87173 0.06486 0.79833 -0.01500
C 	C 	0.80365 0.05811 0.83649 -0.04100
C 	C 	0.78613 0.09126 0.85581 -0.04100
C 	C 	0.81478 0.16510 0.85557 0.00800
C 	C 	0.86502 0.20694 0.83648 0.00600
C 	C 	0.88493 0.27939 0.83411 -0.05300
C 	C 	0.85726 0.30960 0.85092 0.00600
C 	C 	0.80776 0.26804 0.86983 -0.07500
C 	C 	0.78956 0.19679 0.87295 -0.01700
H 	H 	0.01075 0.21013 0.77122 0.03700
H 	H 	0.98301 0.26905 0.80573 0.04100
H 	H 	0.84370 0.00745 0.79704 0.03700
H 	H 	0.77843 0.00075 0.83630 0.03600
H 	H 	0.74770 0.05909 0.87038 0.03800
H 	H 	0.91727 0.31119 0.81819 0.04200
H 	H 	0.87099 0.36441 0.84808 0.04100
H 	H 	0.75201 0.16480 0.88782 0.04600
C 	C 	0.42402 0.26282 0.88412 -0.06700
C 	C 	0.36398 0.19774 0.88984 0.00400
C 	C 	0.30559 0.17105 0.87353 -0.05100
C 	C 	0.30855 0.20811 0.85066 0.00600
C 	C 	0.36289 0.27939 0.84802 0.01100
C 	C 	0.42033 0.30659 0.86496 -0.01700
C 	C 	0.36174 0.32084 0.82747 -0.04000
C 	C 	0.31136 0.29031 0.80811 -0.03900
C 	C 	0.26372 0.21712 0.80828 0.00800
C 	C 	0.26138 0.17503 0.82970 0.00700
C 	C 	0.21818 0.10057 0.82828 -0.05200
C 	C 	0.17815 0.06919 0.80626 0.00600
C 	C 	0.18170 0.11073 0.78489 -0.07200
C 	C 	0.22240 0.18486 0.78638 -0.01500
H 	H 	0.36429 0.16572 0.90586 0.03800
H 	H 	0.25846 0.12273 0.87897 0.04200
H 	H 	0.46508 0.35906 0.86166 0.04000
H 	H 	0.40124 0.37646 0.82607 0.04000
H 	H 	0.31201 0.32296 0.79212 0.03900
H 	H 	0.21820 0.06630 0.84340 0.04300
H 	H 	0.14571 0.01201 0.80557 0.04300
H 	H 	0.22456 0.21733 0.77006 0.04300
C 	C 	0.70695 0.44962 0.82860 -0.06700
C 	C 	0.67303 0.48966 0.82659 0.00400
C 	C 	0.70157 0.55029 0.81099 -0.05100
C 	C 	0.76646 0.57302 0.79828 0.00600
C 	C 	0.79203 0.52484 0.79622 0.01000
C 	C 	0.76168 0.46288 0.81138 -0.01600
C 	C 	0.85058 0.54161 0.78060 -0.04000
C 	C 	0.88857 0.60865 0.76937 -0.03900
C 	C 	0.87041 0.66091 0.77450 0.01000
C 	C 	0.80850 0.64354 0.78878 0.00500
C 	C 	0.79434 0.69839 0.79537 -0.05100
C 	C 	0.83843 0.76764 0.78665 0.00100
C 	C 	0.89887 0.78433 0.77212 -0.07200
C 	C 	0.91530 0.73105 0.76653 -0.01700
H 	H 	0.62724 0.47649 0.83843 0.03100
H 	H 	0.67276 0.57834 0.80862 0.04100
H 	H 	0.78531 0.42927 0.81181 0.04300
H 	H 	0.86798 0.50333 0.77775 0.04000
H 	H 	0.93425 0.62103 0.75757 0.04000
H 	H 	0.75150 0.68880 0.80818 0.04300
H 	H 	0.82619 0.80866 0.79168 0.03900
H 	H 	0.96256 0.74393 0.75563 0.04400
