data_crystal

_cell_length_a 18.48771
_cell_length_b 18.87642
_cell_length_c 34.28964
_cell_angle_alpha 95.43307
_cell_angle_beta  95.43335
_cell_angle_gamma 126.36279

_symmetry_space_group_name_	'P 1'
_symmetry_space_group_name_H-M	'P 1'

loop_
_symmetry_equiv_pos_as_xyz
  x,y,z

loop_
_atom_site_label
_atom_site_type_symbol
_atom_site_fract_x
_atom_site_fract_y
_atom_site_fract_z
_atom_site_charge
C 	C 	0.92611 0.00113 0.96709 0.05100
C 	C 	0.88257 0.90966 0.96781 -0.07400
C 	C 	0.93436 0.87709 0.96983 0.04900
C 	C 	0.02910 0.93633 0.97174 -0.07700
C 	C 	0.07191 0.02658 0.97023 0.05300
C 	C 	0.02075 0.05904 0.96838 -0.07300
H 	H 	0.80928 0.86429 0.96638 0.07000
H 	H 	0.06934 0.91182 0.97379 0.07300
H 	H 	0.05450 0.12933 0.96774 0.07200
C 	C 	0.94472 0.04674 0.49575 0.04400
C 	C 	0.03794 0.08874 0.49613 -0.06700
C 	C 	0.07078 0.03801 0.49549 0.04500
C 	C 	0.01018 0.94554 0.49428 -0.07100
C 	C 	0.91768 0.90406 0.49456 0.04300
C 	C 	0.88480 0.95433 0.49499 -0.07000
H 	H 	0.08462 0.16038 0.49718 0.06900
H 	H 	0.03517 0.90605 0.49353 0.07200
H 	H 	0.81276 0.92168 0.49469 0.07100
Cu	Cu	0.77415 0.34337 0.96165 0.93400
Cu	Cu	0.72303 0.24886 0.03989 0.88000
Cu	Cu	0.63316 0.32087 0.00813 0.90400
Cu	Cu	0.60936 0.34288 0.92322 0.92900
C 	C 	0.71881 0.31425 0.87716 0.31100
O 	O 	0.82906 0.47569 0.96211 -0.33500
C 	C 	0.65783 0.31904 0.09311 0.29500
O 	O 	0.63206 0.27785 0.95393 -0.62500
O 	O 	0.75741 0.35310 0.01714 -0.64400
O 	O 	0.83009 0.27994 0.96814 -0.34000
O 	O 	0.71148 0.17408 0.99477 -0.40200
O 	O 	0.68905 0.36162 0.88409 -0.32800
O 	O 	0.51491 0.29818 0.99889 -0.31000
C 	C 	0.45518 0.25611 0.96508 0.28400
C 	C 	0.78576 0.50945 0.97146 0.27300
O 	O 	0.69766 0.45571 0.97173 -0.37600
O 	O 	0.48126 0.27421 0.93061 -0.33100
O 	O 	0.76969 0.31254 0.90605 -0.33500
C 	C 	0.78249 0.20030 0.97811 0.28900
O 	O 	0.63903 0.35192 0.06489 -0.30600
O 	O 	0.71229 0.29609 0.08932 -0.38200
H 	H 	0.58978 0.21187 0.94547 0.20500
H 	H 	0.80381 0.41184 0.03487 0.19100
Cu	Cu	0.61691 0.21206 0.50419 0.93600
Cu	Cu	0.67762 0.23280 0.41731 0.89300
Cu	Cu	0.64803 0.35366 0.45743 0.90400
Cu	Cu	0.62703 0.37670 0.54151 0.92300
C 	C 	0.66446 0.27443 0.58861 0.30900
O 	O 	0.48723 0.16114 0.51055 -0.34100
C 	C 	0.59688 0.29528 0.36945 0.30600
O 	O 	0.69056 0.35173 0.51033 -0.63500
O 	O 	0.59241 0.22411 0.44907 -0.63900
O 	O 	0.67189 0.15037 0.49317 -0.34800
O 	O 	0.76861 0.25313 0.45793 -0.40800
O 	O 	0.61885 0.30730 0.58358 -0.32200
O 	O 	0.71171 0.48144 0.46700 -0.36300
C 	C 	0.71253 0.53019 0.49764 0.29900
C 	C 	0.45081 0.20047 0.49983 0.28900
O 	O 	0.50389 0.28532 0.49705 -0.38200
O 	O 	0.68148 0.49836 0.52993 -0.34700
O 	O 	0.66070 0.22213 0.55879 -0.33700
C 	C 	0.74841 0.19171 0.47934 0.29800
O 	O 	0.61833 0.35506 0.40099 -0.35600
O 	O 	0.61184 0.23536 0.37175 -0.32900
H 	H 	0.75788 0.39104 0.51892 0.21100
H 	H 	0.52766 0.18429 0.43526 0.21400
C 	C 	0.63874 0.22803 0.76633 0.03400
C 	C 	0.72213 0.26405 0.75368 0.09500
C 	C 	0.80295 0.30387 0.78230 -0.11100
C 	C 	0.80023 0.31719 0.82304 0.07800
C 	C 	0.71734 0.28497 0.83549 -0.00500
C 	C 	0.63479 0.23288 0.80709 -0.06800
C 	C 	0.72547 0.26896 0.71092 0.09600
C 	C 	0.89364 0.33920 0.76972 0.79000
H 	H 	0.86317 0.35589 0.84496 0.08600
C 	C 	0.54272 0.18616 0.81991 0.77400
H 	H 	0.57725 0.19820 0.74437 0.11600
C 	C 	0.68445 0.19068 0.68167 -0.11100
C 	C 	0.66757 0.19412 0.64129 0.07700
C 	C 	0.69787 0.27546 0.62964 -0.00300
C 	C 	0.75215 0.35581 0.65837 -0.06800
C 	C 	0.76005 0.35094 0.69898 0.03400
C 	C 	0.65131 0.10177 0.69335 0.79000
H 	H 	0.62750 0.13288 0.61910 0.08600
C 	C 	0.79827 0.44649 0.64619 0.77500
H 	H 	0.79098 0.41058 0.72142 0.11600
F 	F 	0.47361 0.11578 0.79024 -0.40500
F 	F 	0.52404 0.24643 0.82773 -0.45500
F 	F 	0.54243 0.15148 0.85375 -0.45400
F 	F 	0.93278 0.42338 0.76085 -0.41800
F 	F 	0.88192 0.28294 0.73665 -0.39500
F 	F 	0.95346 0.34563 0.80003 -0.41500
F 	F 	0.73667 0.46537 0.64092 -0.45000
F 	F 	0.83001 0.44754 0.61111 -0.45200
F 	F 	0.87247 0.51338 0.67524 -0.40500
F 	F 	0.64473 0.04496 0.66208 -0.41600
F 	F 	0.56592 0.06124 0.70324 -0.41700
F 	F 	0.71102 0.11359 0.72548 -0.39500
C 	C 	0.53148 0.30974 0.17666 0.03000
C 	C 	0.59275 0.32550 0.20992 0.09600
C 	C 	0.67565 0.34054 0.20476 -0.10900
C 	C 	0.69974 0.34950 0.16693 0.07600
C 	C 	0.63613 0.32759 0.13309 0.00200
C 	C 	0.54947 0.30486 0.13788 -0.07000
C 	C 	0.56570 0.31802 0.24950 0.08900
C 	C 	0.73527 0.34077 0.23869 0.78800
H 	H 	0.76675 0.36959 0.16339 0.09000
C 	C 	0.47682 0.27722 0.10219 0.77600
H 	H 	0.46837 0.29850 0.18101 0.11600
C 	C 	0.60445 0.39504 0.27893 -0.10400
C 	C 	0.60907 0.38722 0.31933 0.08400
C 	C 	0.56551 0.30232 0.32973 0.00600
C 	C 	0.50485 0.22495 0.29966 -0.06600
C 	C 	0.50957 0.23316 0.25955 0.04200
C 	C 	0.64148 0.48482 0.26742 0.79000
H 	H 	0.65048 0.44686 0.34241 0.08700
C 	C 	0.43749 0.13369 0.30991 0.77900
H 	H 	0.47348 0.17370 0.23646 0.10500
F 	F 	0.39279 0.24137 0.11297 -0.43600
F 	F 	0.46539 0.21260 0.07373 -0.46600
F 	F 	0.50246 0.35141 0.08586 -0.43500
F 	F 	0.68406 0.26213 0.25325 -0.43200
F 	F 	0.77086 0.41253 0.26921 -0.40700
F 	F 	0.80771 0.34716 0.22624 -0.42400
F 	F 	0.35908 0.08233 0.28074 -0.41700
F 	F 	0.41206 0.14124 0.34586 -0.44400
F 	F 	0.47657 0.09011 0.31224 -0.42000
F 	F 	0.65260 0.54417 0.29887 -0.42500
F 	F 	0.58130 0.47411 0.23585 -0.42400
F 	F 	0.72513 0.52152 0.25627 -0.39700
C 	C 	0.80670 0.74539 0.46022 -0.04400
C 	C 	0.85605 0.80841 0.49577 0.02400
C 	C 	0.85264 0.77972 0.53222 -0.04400
C 	C 	0.80317 0.68856 0.53301 0.02200
C 	C 	0.75677 0.62535 0.49726 -0.06300
C 	C 	0.75708 0.65412 0.46092 0.02300
H 	H 	0.80869 0.76726 0.43197 0.07700
H 	H 	0.89049 0.82825 0.55981 0.07200
H 	H 	0.80336 0.66730 0.56125 0.07500
H 	H 	0.72011 0.60591 0.43321 0.06800
C 	C 	0.85924 0.16945 0.45706 0.02400
C 	C 	0.80930 0.16625 0.48619 -0.07200
C 	C 	0.81406 0.13415 0.52088 0.02900
C 	C 	0.86394 0.10076 0.52532 -0.04500
C 	C 	0.90890 0.09859 0.49499 0.02600
C 	C 	0.90869 0.13559 0.46143 -0.04800
H 	H 	0.85683 0.19486 0.43032 0.04900
H 	H 	0.77774 0.13347 0.54404 0.07100
H 	H 	0.86485 0.07349 0.55162 0.07800
H 	H 	0.94352 0.13454 0.43795 0.06700
C 	C 	0.21740 0.07128 0.52702 -0.04500
C 	C 	0.16887 0.08162 0.49703 0.02500
C 	C 	0.21252 0.12835 0.46708 -0.04400
C 	C 	0.30406 0.16484 0.46726 0.02400
C 	C 	0.35238 0.15414 0.49718 -0.06800
C 	C 	0.30844 0.10666 0.52688 0.02300
H 	H 	0.18438 0.03556 0.55035 0.07000
H 	H 	0.17535 0.13573 0.44352 0.06900
H 	H 	0.33752 0.20160 0.44425 0.06200
H 	H 	0.34554 0.09922 0.55045 0.06300
C 	C 	0.87435 0.64702 0.94201 0.00800
C 	C 	0.83056 0.60574 0.97306 -0.04600
C 	C 	0.81633 0.65230 0.00189 -0.01200
C 	C 	0.84626 0.73943 0.99984 -0.01400
C 	C 	0.88988 0.78058 0.96871 0.01000
C 	C 	0.90292 0.73345 0.93959 -0.03600
H 	H 	0.88384 0.61118 0.91905 0.06400
H 	H 	0.78144 0.62071 0.02570 0.06400
H 	H 	0.83693 0.77539 0.02280 0.05400
H 	H 	0.93663 0.76448 0.91544 0.06600
C 	C 	0.83264 0.03804 0.99821 -0.01800
C 	C 	0.87375 0.03763 0.96592 0.01400
C 	C 	0.87921 0.08625 0.93615 -0.03600
C 	C 	0.84940 0.13926 0.94002 0.01800
C 	C 	0.81209 0.14279 0.97326 -0.05300
C 	C 	0.80177 0.09010 0.00183 -0.00900
H 	H 	0.82823 0.00119 0.02143 0.05200
H 	H 	0.91000 0.08584 0.91085 0.07400
H 	H 	0.85582 0.17783 0.91729 0.07400
H 	H 	0.77228 0.09149 0.02746 0.04300
C 	C 	0.29528 0.12488 0.93531 0.01500
C 	C 	0.35692 0.19886 0.96610 -0.04300
C 	C 	0.32436 0.21690 0.99801 0.03300
C 	C 	0.23125 0.16060 0.99940 -0.02000
C 	C 	0.16991 0.08632 0.96874 0.01700
C 	C 	0.20220 0.06898 0.93660 -0.03400
H 	H 	0.31964 0.11014 0.91061 0.07800
H 	H 	0.37090 0.27487 0.02148 0.10500
H 	H 	0.20678 0.17457 0.02428 0.07400
H 	H 	0.15512 0.01203 0.91268 0.07000
