data_crystal

_cell_length_a 26.19009
_cell_length_b 26.39242
_cell_length_c 35.62153
_cell_angle_alpha 95.52522
_cell_angle_beta  95.52675
_cell_angle_gamma 125.77610

_symmetry_space_group_name_	'P 1'
_symmetry_space_group_name_H-M	'P 1'

loop_
_symmetry_equiv_pos_as_xyz
  x,y,z

loop_
_atom_site_label
_atom_site_type_symbol
_atom_site_fract_x
_atom_site_fract_y
_atom_site_fract_z
_atom_site_charge
C 	C 	0.00146 0.03135 0.46959 -0.06900
C 	C 	0.99326 0.93466 0.46704 -0.07000
H 	H 	0.97385 0.09719 0.52630 0.04000
H 	H 	0.94533 0.84731 0.93531 0.04600
H 	H 	0.94025 0.15973 0.90975 0.03900
H 	H 	0.96808 0.09794 0.94022 0.04600
C 	C 	0.97439 0.03591 0.99427 0.02500
C 	C 	0.93516 0.96961 0.99101 -0.07200
C 	C 	0.96199 0.93665 0.98992 0.02400
C 	C 	0.02817 0.97010 0.99177 -0.07300
C 	C 	0.06778 0.03651 0.99536 0.02400
C 	C 	0.04074 0.06937 0.99652 -0.07100
H 	H 	0.88388 0.94373 0.98919 0.04900
H 	H 	0.04892 0.94460 0.99086 0.04800
H 	H 	0.07119 0.12071 0.99944 0.04800
C 	C 	0.93616 0.99727 0.47141 0.02000
C 	C 	0.03012 0.00025 0.46786 0.02200
C 	C 	0.92764 0.89990 0.46787 0.02200
C 	C 	0.89921 0.93136 0.47052 -0.06900
H 	H 	0.02999 0.08205 0.46982 0.04800
H 	H 	0.01549 0.91060 0.46554 0.04800
H 	H 	0.84872 0.90474 0.47178 0.04700
Cu	Cu	0.64499 0.24307 0.00175 0.92700
Cu	Cu	0.67515 0.24228 0.91480 0.86700
Cu	Cu	0.67168 0.34366 0.95451 0.89700
Cu	Cu	0.66368 0.36786 0.03637 0.89300
C 	C 	0.68184 0.28940 0.08340 0.33000
O 	O 	0.55722 0.21442 0.01075 -0.36300
C 	C 	0.63903 0.30392 0.86965 0.32400
O 	O 	0.70194 0.34220 0.00540 -0.64200
O 	O 	0.62517 0.24983 0.94837 -0.64100
O 	O 	0.67626 0.19117 0.99091 -0.37200
O 	O 	0.74028 0.25517 0.95219 -0.44100
O 	O 	0.65738 0.32077 0.07858 -0.39600
O 	O 	0.72254 0.43532 0.96259 -0.38700
C 	C 	0.72216 0.47210 0.99032 0.29100
C 	C 	0.53386 0.24497 0.00104 0.27500
O 	O 	0.57275 0.30429 0.99666 -0.39200
O 	O 	0.70569 0.45411 0.02329 -0.39700
O 	O 	0.67814 0.25184 0.05420 -0.37600
C 	C 	0.72607 0.21316 0.97416 0.28400
O 	O 	0.64999 0.34434 0.90008 -0.39300
O 	O 	0.63031 0.25014 0.87308 -0.43100
H 	H 	0.74908 0.36707 0.01272 0.16500
H 	H 	0.57905 0.22489 0.93703 0.17300
Cu	Cu	0.73353 0.33132 0.45504 0.92800
Cu	Cu	0.72713 0.28955 0.53903 0.86800
Cu	Cu	0.62408 0.28999 0.49814 0.89600
Cu	Cu	0.60727 0.31054 0.41818 0.89300
C 	C 	0.69389 0.30286 0.37285 0.32800
O 	O 	0.76097 0.41962 0.45039 -0.36300
C 	C 	0.65764 0.31622 0.58352 0.32600
O 	O 	0.63296 0.27042 0.44709 -0.64100
O 	O 	0.71945 0.34166 0.50784 -0.64300
O 	O 	0.78790 0.30247 0.46549 -0.37200
O 	O 	0.72022 0.23065 0.49977 -0.44000
O 	O 	0.65978 0.32438 0.37769 -0.39500
O 	O 	0.53176 0.23490 0.48585 -0.38700
C 	C 	0.49646 0.23941 0.45933 0.28700
C 	C 	0.72661 0.43895 0.45941 0.27800
O 	O 	0.66617 0.39704 0.46148 -0.39400
O 	O 	0.51808 0.26413 0.42873 -0.39400
O 	O 	0.73176 0.30689 0.40224 -0.37400
C 	C 	0.76503 0.25006 0.47909 0.28600
O 	O 	0.61496 0.29853 0.55229 -0.39800
O 	O 	0.71332 0.32737 0.58137 -0.43100
H 	H 	0.61040 0.22456 0.43716 0.16500
H 	H 	0.74125 0.38603 0.52111 0.17300
C 	C 	0.63142 0.29654 0.76252 0.00300
C 	C 	0.58974 0.25373 0.72864 -0.04200
C 	C 	0.60530 0.26874 0.69287 -0.04000
C 	C 	0.66278 0.32698 0.69062 0.00300
C 	C 	0.70340 0.37069 0.72447 -0.04100
C 	C 	0.68791 0.35561 0.76025 -0.04000
C 	C 	0.68490 0.33863 0.65358 0.00900
C 	C 	0.64225 0.32150 0.61950 -0.17400
C 	C 	0.62036 0.27552 0.79985 0.00800
C 	C 	0.63291 0.31713 0.83309 -0.17300
H 	H 	0.54631 0.20787 0.73004 0.03600
H 	H 	0.57407 0.23394 0.66703 0.03700
H 	H 	0.74806 0.41552 0.72311 0.03500
H 	H 	0.72121 0.38864 0.78616 0.03600
H 	H 	0.73509 0.36040 0.65303 0.03100
H 	H 	0.59488 0.30871 0.62097 0.08300
H 	H 	0.60260 0.22695 0.80126 0.03100
H 	H 	0.64170 0.36223 0.83058 0.08400
C 	C 	0.70144 0.30773 0.19094 0.00500
C 	C 	0.64600 0.25035 0.19619 -0.03900
C 	C 	0.63458 0.23993 0.23323 -0.04100
C 	C 	0.67888 0.28629 0.26532 0.00500
C 	C 	0.73620 0.34191 0.26011 -0.03800
C 	C 	0.74717 0.35276 0.22306 -0.04100
C 	C 	0.66061 0.28128 0.30343 0.01200
C 	C 	0.70165 0.28977 0.33576 -0.17000
C 	C 	0.70637 0.32523 0.15265 0.01300
C 	C 	0.69821 0.28428 0.12061 -0.17100
H 	H 	0.61014 0.21536 0.17159 0.04200
H 	H 	0.59019 0.19687 0.23694 0.03600
H 	H 	0.77063 0.37822 0.28469 0.04200
H 	H 	0.79006 0.39722 0.21933 0.03700
H 	H 	0.61505 0.27206 0.30630 0.02800
H 	H 	0.74093 0.28737 0.33197 0.08700
H 	H 	0.71427 0.36970 0.14931 0.02800
H 	H 	0.70273 0.24670 0.12476 0.08600
C 	C 	0.88868 0.83029 0.46502 0.01300
C 	C 	0.86325 0.80309 0.49657 -0.04900
C 	C 	0.83455 0.73864 0.49619 -0.02900
C 	C 	0.82917 0.69971 0.46346 -0.01500
C 	C 	0.85696 0.72810 0.43217 0.03200
C 	C 	0.88409 0.79240 0.43256 -0.06900
C 	C 	0.86090 0.69312 0.40192 -0.05300
C 	C 	0.83987 0.63119 0.40297 -0.03500
C 	C 	0.81035 0.60141 0.43292 0.00200
C 	C 	0.80114 0.63404 0.46225 0.01300
C 	C 	0.76182 0.59954 0.48830 -0.05800
C 	C 	0.73871 0.53637 0.48779 0.00200
C 	C 	0.75260 0.50602 0.46069 -0.07700
C 	C 	0.78792 0.53843 0.43313 -0.01600
H 	H 	0.86833 0.83259 0.52216 0.04000
H 	H 	0.82083 0.72070 0.52227 0.03400
H 	H 	0.90457 0.81382 0.40837 0.04600
H 	H 	0.88243 0.71480 0.37808 0.04000
H 	H 	0.84561 0.60585 0.38000 0.03600
H 	H 	0.74596 0.61983 0.50741 0.04100
H 	H 	0.70920 0.51073 0.50818 0.03000
H 	H 	0.79627 0.51401 0.41113 0.04400
C 	C 	0.90699 0.03107 0.47481 0.01400
C 	C 	0.93470 0.08424 0.50413 -0.04900
C 	C 	0.91229 0.12101 0.50497 -0.02800
C 	C 	0.86231 0.10571 0.47583 -0.01600
C 	C 	0.82969 0.04801 0.44891 0.03100
C 	C 	0.85354 0.01216 0.44774 -0.06700
C 	C 	0.77281 0.02600 0.42421 -0.05200
C 	C 	0.74772 0.06033 0.42624 -0.03400
C 	C 	0.78149 0.11948 0.45102 -0.00100
C 	C 	0.84121 0.14450 0.47428 0.01400
C 	C 	0.87973 0.20856 0.49357 -0.06000
C 	C 	0.85546 0.24369 0.49386 0.00500
C 	C 	0.79343 0.21625 0.47425 -0.08400
C 	C 	0.75698 0.15472 0.45219 -0.01000
H 	H 	0.93189 0.15926 0.52921 0.03200
H 	H 	0.83088 0.96997 0.42571 0.04500
H 	H 	0.74706 0.98137 0.40401 0.03800
H 	H 	0.70258 0.04149 0.40785 0.03500
H 	H 	0.92910 0.23214 0.50693 0.04100
H 	H 	0.88471 0.29214 0.50977 0.02000
H 	H 	0.70976 0.13439 0.43599 0.03300
C 	C 	0.09903 0.03651 0.46722 0.01300
C 	C 	0.14156 0.04767 0.49958 -0.04800
C 	C 	0.20688 0.08113 0.49904 -0.02900
C 	C 	0.23105 0.10621 0.46631 -0.01500
C 	C 	0.18720 0.09081 0.43273 0.03200
C 	C 	0.12172 0.05765 0.43377 -0.06900
C 	C 	0.20881 0.10644 0.39816 -0.05400
C 	C 	0.27315 0.13611 0.39634 -0.03500
C 	C 	0.31782 0.15446 0.42960 0.00100
C 	C 	0.29770 0.14296 0.46535 0.01300
C 	C 	0.34467 0.17105 0.49923 -0.05700
C 	C 	0.40920 0.20234 0.49707 0.00400
C 	C 	0.42842 0.20850 0.46134 -0.07500
C 	C 	0.38278 0.18565 0.42769 -0.01600
H 	H 	0.12376 0.02929 0.52500 0.04000
H 	H 	0.23749 0.08418 0.52318 0.03400
H 	H 	0.08826 0.04711 0.40837 0.04700
H 	H 	0.17533 0.09406 0.37231 0.04000
H 	H 	0.28852 0.14591 0.36907 0.03500
H 	H 	0.33214 0.17183 0.52721 0.04200
H 	H 	0.44451 0.22296 0.52334 0.03800
H 	H 	0.39767 0.19194 0.40008 0.03900
C 	C 	0.92111 0.86725 0.98812 0.01500
C 	C 	0.88814 0.84172 0.01793 -0.05100
C 	C 	0.85273 0.77657 0.01779 -0.03100
C 	C 	0.84802 0.73532 0.98688 -0.01300
C 	C 	0.88430 0.76183 0.95787 0.03200
C 	C 	0.91878 0.82723 0.95800 -0.06900
C 	C 	0.88840 0.72336 0.93023 -0.05400
C 	C 	0.85881 0.65950 0.93181 -0.03400
C 	C 	0.82103 0.63188 0.95949 0.00100
C 	C 	0.81188 0.66860 0.98566 0.01600
C 	C 	0.76521 0.63740 0.00872 -0.06100
C 	C 	0.73569 0.57331 0.00985 0.00200
C 	C 	0.75014 0.53860 0.98693 -0.07200
C 	C 	0.79140 0.56754 0.96093 -0.01500
H 	H 	0.89172 0.87279 0.04198 0.03900
H 	H 	0.83263 0.75934 0.04282 0.03400
H 	H 	0.91641 0.74352 0.90815 0.04000
H 	H 	0.86464 0.63119 0.91110 0.03500
H 	H 	0.74927 0.66137 0.02429 0.04100
H 	H 	0.70078 0.55037 0.02819 0.03200
H 	H 	0.80088 0.54031 0.94208 0.04300
C 	C 	0.76482 0.18925 0.97885 -0.07900
C 	C 	0.75800 0.15366 0.00737 0.00300
C 	C 	0.79355 0.12988 0.01125 -0.06100
C 	C 	0.83891 0.14375 0.98757 0.01600
C 	C 	0.84302 0.17661 0.95743 -0.00100
C 	C 	0.80727 0.20044 0.95389 -0.01800
C 	C 	0.88079 0.18315 0.93019 -0.03500
C 	C 	0.91312 0.15601 0.93184 -0.05500
C 	C 	0.91146 0.12510 0.96207 0.03200
C 	C 	0.87739 0.12193 0.99148 -0.01300
C 	C 	0.88465 0.09939 0.02452 -0.03100
C 	C 	0.91723 0.07230 0.02557 -0.05100
C 	C 	0.94565 0.07005 0.99471 0.01500
C 	C 	0.94429 0.09800 0.96352 -0.06900
H 	H 	0.72424 0.14333 0.02620 0.04100
H 	H 	0.78295 0.09804 0.03117 0.04300
H 	H 	0.81133 0.22631 0.93107 0.02900
H 	H 	0.88370 0.20790 0.90696 0.03100
H 	H 	0.86801 0.10531 0.05000 0.03500
H 	H 	0.92072 0.05333 0.05054 0.04000
C 	C 	0.13775 0.07155 0.99858 0.01700
C 	C 	0.17206 0.06360 0.02701 -0.05300
C 	C 	0.23681 0.09121 0.02799 -0.02600
C 	C 	0.26973 0.13104 0.00183 -0.01900
C 	C 	0.23443 0.13729 0.97230 0.03600
C 	C 	0.16901 0.10852 0.97134 -0.07100
C 	C 	0.26405 0.16980 0.94313 -0.05500
C 	C 	0.32780 0.19498 0.94237 -0.03500
C 	C 	0.36421 0.19111 0.97186 0.00300
C 	C 	0.33643 0.16188 0.00293 0.01200
C 	C 	0.37642 0.16639 0.03479 -0.05800
C 	C 	0.44004 0.19158 0.03339 0.00600
C 	C 	0.46619 0.21656 0.00150 -0.08000
C 	C 	0.42874 0.21755 0.97115 -0.01400
H 	H 	0.14782 0.03393 0.04762 0.04100
H 	H 	0.25970 0.07828 0.04754 0.03300
H 	H 	0.14198 0.11322 0.94872 0.04600
H 	H 	0.23711 0.17429 0.92037 0.04000
H 	H 	0.34920 0.21833 0.91895 0.03500
H 	H 	0.35994 0.15404 0.06142 0.04200
H 	H 	0.46980 0.19380 0.05782 0.03500
H 	H 	0.44976 0.23886 0.94706 0.03400
