data_crystal

_cell_length_a 26.01657
_cell_length_b 26.50662
_cell_length_c 34.77696
_cell_angle_alpha 95.49511
_cell_angle_beta  95.49245
_cell_angle_gamma 125.83727

_symmetry_space_group_name_	'P 1'
_symmetry_space_group_name_H-M	'P 1'

loop_
_symmetry_equiv_pos_as_xyz
  x,y,z

loop_
_atom_site_label
_atom_site_type_symbol
_atom_site_fract_x
_atom_site_fract_y
_atom_site_fract_z
_atom_site_charge
C 	C 	0.01294 0.06409 0.98868 0.11200
N 	N 	0.97856 0.00069 0.98754 -0.12900
C 	C 	0.00687 0.97140 0.98241 0.10600
N 	N 	0.06971 0.00577 0.97861 -0.13500
C 	C 	0.10423 0.06905 0.97963 0.12200
N 	N 	0.07578 0.09823 0.98464 -0.13800
C 	C 	0.88538 0.95897 0.45090 0.12200
N 	N 	0.94991 0.99286 0.45171 -0.13900
C 	C 	0.97913 0.96405 0.45315 0.12200
N 	N 	0.94349 0.90102 0.45336 -0.13800
C 	C 	0.87916 0.86698 0.45295 0.12200
N 	N 	0.85004 0.89601 0.45196 -0.13700
Cu	Cu	0.69034 0.28372 0.01120 0.93200
Cu	Cu	0.73023 0.27808 0.92537 0.88100
Cu	Cu	0.72872 0.38346 0.96004 0.90200
Cu	Cu	0.70856 0.40987 0.04156 0.90300
C 	C 	0.70230 0.32205 0.09334 0.33600
O 	O 	0.59910 0.25218 0.01405 -0.35600
C 	C 	0.69467 0.33490 0.87408 0.33800
O 	O 	0.74934 0.38248 0.01414 -0.63800
O 	O 	0.67807 0.28974 0.95540 -0.64200
O 	O 	0.72379 0.23288 0.00645 -0.35700
O 	O 	0.79287 0.29363 0.96741 -0.42700
O 	O 	0.71251 0.37658 0.09027 -0.36200
O 	O 	0.78325 0.47473 0.96784 -0.37100
C 	C 	0.78154 0.51233 0.99462 0.29200
C 	C 	0.57736 0.28390 0.00401 0.29600
O 	O 	0.61796 0.34310 0.00026 -0.38100
O 	O 	0.74403 0.49018 0.02113 -0.37900
O 	O 	0.71395 0.29310 0.06644 -0.34700
C 	C 	0.77613 0.25391 0.99178 0.29100
O 	O 	0.72151 0.38410 0.90310 -0.36800
O 	O 	0.68808 0.28300 0.87951 -0.39600
H 	H 	0.79606 0.40604 0.02441 0.17900
H 	H 	0.63261 0.26635 0.94202 0.18400
Cu	Cu	0.69421 0.30550 0.45517 0.93200
Cu	Cu	0.68854 0.25536 0.53817 0.88100
Cu	Cu	0.58559 0.26144 0.50140 0.90200
Cu	Cu	0.56968 0.29272 0.42296 0.90100
C 	C 	0.65603 0.29088 0.37192 0.33700
O 	O 	0.72612 0.39645 0.45556 -0.34500
C 	C 	0.62558 0.28537 0.58800 0.33800
O 	O 	0.59299 0.24727 0.44779 -0.64000
O 	O 	0.68151 0.31104 0.50999 -0.64000
O 	O 	0.74442 0.27068 0.46059 -0.35800
O 	O 	0.67570 0.19747 0.49482 -0.42600
O 	O 	0.62046 0.30989 0.37981 -0.36600
O 	O 	0.49235 0.20828 0.48986 -0.37000
C 	C 	0.45637 0.21081 0.46173 0.29400
C 	C 	0.69260 0.41601 0.46674 0.28700
O 	O 	0.63232 0.37418 0.46994 -0.38500
O 	O 	0.48173 0.24922 0.43626 -0.38300
O 	O 	0.69025 0.28637 0.40009 -0.34600
C 	C 	0.71894 0.21621 0.47220 0.29100
O 	O 	0.57847 0.26267 0.55749 -0.36600
O 	O 	0.67915 0.29223 0.58416 -0.39500
H 	H 	0.56877 0.20215 0.43538 0.18000
H 	H 	0.70465 0.35454 0.52517 0.18700
C 	C 	0.61422 0.29418 0.62782 -0.12100
C 	C 	0.58799 0.24372 0.64849 0.12500
C 	C 	0.59403 0.25579 0.68954 0.06400
C 	C 	0.62542 0.31825 0.70974 0.01800
C 	C 	0.64355 0.36703 0.68836 0.06700
C 	C 	0.63848 0.35508 0.64733 0.12600
C 	C 	0.64768 0.33389 0.75291 0.01700
C 	C 	0.60574 0.32664 0.77842 0.06700
C 	C 	0.62245 0.33000 0.81880 0.12600
C 	C 	0.68163 0.34199 0.83367 -0.12200
C 	C 	0.72610 0.35537 0.80883 0.12600
C 	C 	0.70887 0.35055 0.76838 0.06400
Br	Br	0.67796 0.45056 0.71557 -0.15900
Br	Br	0.54613 0.15859 0.62062 -0.20800
Br	Br	0.56374 0.31641 0.85359 -0.20700
Br	Br	0.76793 0.36422 0.73379 -0.16800
Br	Br	0.66660 0.42225 0.61795 -0.20200
Br	Br	0.56278 0.18764 0.71846 -0.16600
Br	Br	0.52498 0.31058 0.75777 -0.15800
Br	Br	0.81045 0.37983 0.83034 -0.21300
C 	C 	0.69326 0.30205 0.13175 -0.11600
C 	C 	0.63589 0.28186 0.14532 0.12300
C 	C 	0.63133 0.27377 0.18453 0.06600
C 	C 	0.68350 0.28421 0.20993 0.01700
C 	C 	0.73840 0.29848 0.19533 0.06600
C 	C 	0.74404 0.30893 0.15653 0.12700
C 	C 	0.68339 0.28676 0.25267 0.01700
C 	C 	0.71019 0.34502 0.27751 0.06400
C 	C 	0.70489 0.34677 0.31736 0.12700
C 	C 	0.67011 0.28997 0.33200 -0.11800
C 	C 	0.64616 0.23214 0.30775 0.12300
C 	C 	0.65358 0.23066 0.26817 0.06700
Br	Br	0.80645 0.30538 0.22896 -0.15600
Br	Br	0.56383 0.26590 0.11018 -0.20800
Br	Br	0.74678 0.42707 0.35229 -0.18700
Br	Br	0.62225 0.15192 0.23498 -0.15700
Br	Br	0.82286 0.33655 0.13825 -0.18100
Br	Br	0.55464 0.25077 0.20399 -0.16700
Br	Br	0.75240 0.42209 0.25651 -0.16500
Br	Br	0.60178 0.15489 0.32850 -0.20100
C 	C 	0.78479 0.71203 0.48860 -0.04300
C 	C 	0.78976 0.67362 0.46086 0.01300
C 	C 	0.81811 0.69717 0.42833 -0.04200
C 	C 	0.84397 0.75945 0.42454 -0.01500
C 	C 	0.84135 0.79869 0.45307 -0.01800
C 	C 	0.81028 0.77428 0.48462 -0.01600
C 	C 	0.76614 0.60908 0.46608 0.02900
H 	H 	0.82105 0.66755 0.40633 0.05500
H 	H 	0.86758 0.77776 0.39997 0.04800
H 	H 	0.80817 0.80424 0.50687 0.04500
H 	H 	0.76257 0.69418 0.51368 0.05100
C 	C 	0.80828 0.59219 0.46797 -0.05500
C 	C 	0.78486 0.52974 0.46963 0.02200
C 	C 	0.71900 0.48350 0.46948 -0.07400
C 	C 	0.67746 0.50122 0.46924 0.01700
C 	C 	0.70090 0.56356 0.46738 -0.05700
H 	H 	0.85898 0.62724 0.46760 0.05700
H 	H 	0.81777 0.51723 0.47047 0.05000
H 	H 	0.62666 0.46639 0.46940 0.04100
H 	H 	0.66802 0.57613 0.46606 0.05400
C 	C 	0.84470 0.06737 0.42249 -0.04200
C 	C 	0.80500 0.06106 0.44922 0.01100
C 	C 	0.78838 0.01791 0.47479 -0.03700
C 	C 	0.81251 0.98257 0.47426 -0.02100
C 	C 	0.85397 0.99051 0.44844 -0.02100
C 	C 	0.86926 0.03247 0.42221 -0.01100
C 	C 	0.78249 0.10106 0.45132 0.02900
H 	H 	0.75786 0.01271 0.49560 0.04700
H 	H 	0.80054 0.95050 0.49472 0.04600
H 	H 	0.90072 0.03853 0.40188 0.04700
H 	H 	0.85710 0.09982 0.40225 0.05300
C 	C 	0.82735 0.16744 0.45888 -0.05900
C 	C 	0.80632 0.20528 0.46358 0.01800
C 	C 	0.74035 0.17709 0.46121 -0.08200
C 	C 	0.69538 0.11077 0.45225 0.02200
C 	C 	0.71632 0.07297 0.44718 -0.05900
H 	H 	0.87855 0.18968 0.46207 0.05400
H 	H 	0.84149 0.25637 0.47053 0.04100
H 	H 	0.64426 0.08849 0.44986 0.04300
H 	H 	0.68121 0.02185 0.44068 0.05600
C 	C 	0.15054 0.01624 0.47472 -0.03300
C 	C 	0.18316 0.07041 0.45765 0.00700
C 	C 	0.14885 0.09009 0.43945 -0.03900
C 	C 	0.08235 0.05557 0.43804 -0.02000
C 	C 	0.04956 0.00121 0.45507 -0.01200
C 	C 	0.08419 0.98197 0.47360 -0.02900
C 	C 	0.25319 0.10633 0.45870 0.02900
H 	H 	0.17371 0.13205 0.42635 0.04700
H 	H 	0.05630 0.07075 0.42339 0.04600
H 	H 	0.05978 0.94061 0.48727 0.04800
H 	H 	0.17659 0.00059 0.48875 0.04900
C 	C 	0.29611 0.13206 0.49488 -0.05900
C 	C 	0.36238 0.16540 0.49588 0.01900
C 	C 	0.38638 0.17373 0.46070 -0.07900
C 	C 	0.34339 0.14792 0.42452 0.01700
C 	C 	0.27709 0.11422 0.42353 -0.06100
H 	H 	0.27814 0.12648 0.52219 0.05700
H 	H 	0.39510 0.18558 0.52399 0.05200
H 	H 	0.36130 0.15365 0.39718 0.03800
H 	H 	0.24428 0.09401 0.39545 0.05300
C 	C 	0.84426 0.65987 0.95222 -0.05800
C 	C 	0.87425 0.70657 0.98649 0.02600
C 	C 	0.87523 0.68944 0.02336 -0.05800
C 	C 	0.84578 0.62608 0.02597 0.02000
C 	C 	0.81561 0.57936 0.99172 -0.08100
C 	C 	0.81536 0.59660 0.95480 0.02000
C 	C 	0.90574 0.77353 0.98374 0.01000
H 	H 	0.89895 0.72525 0.04996 0.05300
H 	H 	0.84651 0.61332 0.05459 0.03700
H 	H 	0.79167 0.56083 0.92818 0.05200
H 	H 	0.84305 0.67259 0.92363 0.05800
C 	C 	0.95526 0.80381 0.96202 -0.04400
C 	C 	0.98687 0.86784 0.96062 -0.01100
C 	C 	0.96986 0.90259 0.98138 -0.01400
C 	C 	0.91937 0.87189 0.00250 -0.01700
C 	C 	0.88732 0.80760 0.00354 -0.04000
H 	H 	0.96976 0.77788 0.94659 0.05100
H 	H 	0.02494 0.89057 0.94364 0.04000
H 	H 	0.90577 0.89802 0.01873 0.04600
H 	H 	0.84866 0.78444 0.02006 0.04800
C 	C 	0.81497 0.13842 0.99947 -0.06400
C 	C 	0.88251 0.17863 0.00379 0.03200
C 	C 	0.91522 0.24433 0.00799 -0.06100
C 	C 	0.88051 0.26925 0.00571 0.02600
C 	C 	0.81284 0.22879 0.99975 -0.08800
C 	C 	0.78032 0.16346 0.99773 0.02100
C 	C 	0.91849 0.15164 0.00127 0.01400
H 	H 	0.96741 0.27591 0.01208 0.05700
H 	H 	0.90613 0.31987 0.00787 0.04100
H 	H 	0.72809 0.13180 0.99318 0.03800
H 	H 	0.78921 0.08764 0.99626 0.05400
C 	C 	0.91214 0.11060 0.02636 -0.04200
C 	C 	0.94342 0.08237 0.02245 -0.01400
C 	C 	0.98191 0.09552 0.99374 -0.01600
C 	C 	0.98934 0.13757 0.96922 -0.00900
C 	C 	0.95747 0.16520 0.97280 -0.04700
H 	H 	0.88267 0.10027 0.04867 0.05200
H 	H 	0.93783 0.05040 0.04177 0.04700
H 	H 	0.01869 0.14781 0.94684 0.04100
H 	H 	0.96228 0.19638 0.95306 0.04900
C 	C 	0.41718 0.25418 0.97227 -0.05700
C 	C 	0.37448 0.19612 0.98377 0.02800
C 	C 	0.39800 0.16562 0.00046 -0.05400
C 	C 	0.46394 0.19347 0.00626 0.02500
C 	C 	0.50713 0.25233 0.99550 -0.08100
C 	C 	0.48316 0.28212 0.97798 0.02000
C 	C 	0.30531 0.16773 0.97905 0.01100
H 	H 	0.36525 0.12070 0.00940 0.05900
H 	H 	0.48149 0.16979 0.01973 0.05600
H 	H 	0.51559 0.32705 0.96898 0.04700
H 	H 	0.39927 0.27777 0.95906 0.05700
C 	C 	0.28433 0.19593 0.00251 -0.03900
C 	C 	0.21835 0.16523 0.00128 -0.01400
C 	C 	0.17288 0.10603 0.97661 -0.02000
C 	C 	0.19399 0.07950 0.95169 -0.01500
C 	C 	0.25990 0.11018 0.95298 -0.04200
H 	H 	0.31915 0.24060 0.02256 0.05200
H 	H 	0.20271 0.18628 0.02059 0.04700
H 	H 	0.15933 0.03441 0.93199 0.04600
H 	H 	0.27574 0.08853 0.93437 0.05100
