data_crystal

_cell_length_a 20.11157
_cell_length_b 20.39051
_cell_length_c 48.83123
_cell_angle_alpha 89.98483
_cell_angle_beta  89.98513
_cell_angle_gamma 119.39647

_symmetry_space_group_name_	'P 1'
_symmetry_space_group_name_H-M	'P 1'

loop_
_symmetry_equiv_pos_as_xyz
  x,y,z

loop_
_atom_site_label
_atom_site_type_symbol
_atom_site_fract_x
_atom_site_fract_y
_atom_site_fract_z
_atom_site_charge
C 	C 	0.49868 0.17220 0.87864 0.29200
C 	C 	0.72017 0.49304 0.89020 0.30900
C 	C 	0.69883 0.27144 0.85697 0.30100
C 	C 	0.52009 0.38207 0.91964 0.34400
C 	C 	0.78783 0.35599 0.93863 0.37300
C 	C 	0.59454 0.24051 0.96933 0.34100
Ni	Ni	0.60156 0.33893 0.87578 1.11600
Ni	Ni	0.66321 0.38783 0.93754 1.12900
Ni	Ni	0.64617 0.23510 0.91334 1.12700
O 	O 	0.50151 0.23818 0.87689 -0.35900
O 	O 	0.55844 0.16507 0.88708 -0.36100
O 	O 	0.76732 0.40380 0.92969 -0.39000
O 	O 	0.70639 0.43620 0.87432 -0.37100
O 	O 	0.68953 0.48097 0.91467 -0.36500
O 	O 	0.58128 0.19779 0.94717 -0.37200
O 	O 	0.64311 0.28442 0.84985 -0.36800
O 	O 	0.72131 0.27981 0.88238 -0.37000
O 	O 	0.64375 0.31438 0.96895 -0.34300
O 	O 	0.54944 0.39590 0.89437 -0.36600
O 	O 	0.55970 0.37990 0.94109 -0.36100
O 	O 	0.73892 0.28313 0.93827 -0.35500
O 	O 	0.61798 0.31096 0.91067 -0.72000
H 	H 	0.56564 0.28233 0.91789 0.17700
C 	C 	0.69629 0.19581 0.62710 0.28300
C 	C 	0.73217 0.49857 0.62300 0.30900
C 	C 	0.56428 0.26655 0.65226 0.30400
C 	C 	0.85777 0.41928 0.59311 0.33500
C 	C 	0.54759 0.34774 0.57392 0.36700
C 	C 	0.65994 0.26241 0.54014 0.33400
Ni	Ni	0.72969 0.35500 0.63544 1.11500
Ni	Ni	0.71205 0.40478 0.57396 1.13000
Ni	Ni	0.59340 0.24064 0.59544 1.12400
O 	O 	0.74879 0.26469 0.63431 -0.37100
O 	O 	0.62483 0.17933 0.62086 -0.36700
O 	O 	0.61426 0.40576 0.57956 -0.37300
O 	O 	0.70033 0.43875 0.63855 -0.36700
O 	O 	0.76133 0.49604 0.59920 -0.35500
O 	O 	0.63376 0.21640 0.56161 -0.38000
O 	O 	0.63442 0.28538 0.65947 -0.36600
O 	O 	0.54772 0.27008 0.62663 -0.37200
O 	O 	0.67235 0.33311 0.54123 -0.33300
O 	O 	0.83741 0.42798 0.61826 -0.35000
O 	O 	0.81786 0.41778 0.57120 -0.35200
O 	O 	0.53990 0.28016 0.57086 -0.37300
O 	O 	0.69018 0.32703 0.59989 -0.71800
H 	H 	0.72209 0.30675 0.59262 0.15800
C 	C 	0.93253 0.84619 0.71937 0.27500
C 	C 	0.13981 0.06816 0.79682 0.30100
C 	C 	0.92611 0.85428 0.79910 0.30200
C 	C 	0.16111 0.08313 0.72518 0.28800
C 	C 	0.91027 0.06855 0.79009 0.30300
C 	C 	0.91142 0.04855 0.71501 0.28000
Ni	Ni	0.05279 0.94187 0.75975 1.11700
Ni	Ni	0.04097 0.09515 0.75670 1.12300
Ni	Ni	0.88849 0.93547 0.75714 1.12200
O 	O 	0.00671 0.87843 0.72466 -0.35800
O 	O 	0.88381 0.84313 0.73851 -0.36800
O 	O 	0.98330 0.08955 0.79087 -0.38800
O 	O 	0.08685 0.99773 0.79656 -0.37600
O 	O 	0.13376 0.11723 0.78077 -0.36700
O 	O 	0.87681 0.97568 0.72119 -0.37900
O 	O 	0.96993 0.84881 0.78044 -0.37300
O 	O 	0.89516 0.89721 0.79493 -0.37300
O 	O 	0.96166 0.10162 0.73195 -0.37700
O 	O 	0.15212 0.02481 0.74036 -0.37400
O 	O 	0.10941 0.10591 0.72460 -0.37900
O 	O 	0.86280 0.00995 0.77529 -0.38100
O 	O 	0.99626 0.99001 0.75171 -0.71800
H 	H 	0.99856 0.98937 0.73157 0.15700
C 	C 	0.23604 0.73964 0.39549 0.28900
C 	C 	0.42466 0.67503 0.47484 0.36700
C 	C 	0.43943 0.85809 0.41630 0.36900
C 	C 	0.22851 0.55746 0.45960 0.32400
C 	C 	0.50177 0.69990 0.38868 0.30800
C 	C 	0.29254 0.55317 0.36925 0.28100
Ni	Ni	0.32290 0.72209 0.44527 1.11900
Ni	Ni	0.36856 0.59947 0.42294 1.12900
Ni	Ni	0.36836 0.72022 0.38178 1.12300
O 	O 	0.26577 0.76334 0.42038 -0.35800
O 	O 	0.26230 0.70666 0.37855 -0.37800
O 	O 	0.45414 0.62955 0.39544 -0.36600
O 	O 	0.37248 0.69535 0.47792 -0.36500
O 	O 	0.44637 0.66913 0.45018 -0.35300
O 	O 	0.34058 0.62321 0.36073 -0.37600
O 	O 	0.42715 0.81705 0.43828 -0.36100
O 	O 	0.40040 0.82777 0.39380 -0.37700
O 	O 	0.29562 0.53090 0.39457 -0.36700
O 	O 	0.22660 0.62052 0.45417 -0.37000
O 	O 	0.28948 0.54977 0.45384 -0.33300
O 	O 	0.47812 0.74917 0.38651 -0.36800
O 	O 	0.33460 0.66950 0.41580 -0.71900
H 	H 	0.28090 0.63423 0.41125 0.16400
C 	C 	0.53075 0.73536 0.11609 0.29300
C 	C 	0.24808 0.66361 0.05192 0.37400
C 	C 	0.44083 0.85080 0.10160 0.36700
C 	C 	0.32646 0.54572 0.05848 0.34700
C 	C 	0.23347 0.70059 0.13983 0.30600
C 	C 	0.29961 0.55118 0.15281 0.28400
Ni	Ni	0.40707 0.71055 0.07211 1.12100
Ni	Ni	0.24890 0.59405 0.10277 1.12500
Ni	Ni	0.38641 0.71667 0.13791 1.12300
O 	O 	0.51517 0.75166 0.09113 -0.34900
O 	O 	0.47683 0.70016 0.13474 -0.37900
O 	O 	0.20754 0.62913 0.13389 -0.37600
O 	O 	0.31770 0.68248 0.04415 -0.33400
O 	O 	0.23449 0.66456 0.07792 -0.38400
O 	O 	0.32576 0.62200 0.16130 -0.37400
O 	O 	0.40307 0.80759 0.08102 -0.35400
O 	O 	0.45748 0.82246 0.12304 -0.37900
O 	O 	0.26308 0.52699 0.12918 -0.36700
O 	O 	0.39427 0.60629 0.06219 -0.34600
O 	O 	0.26234 0.53871 0.06961 -0.36900
O 	O 	0.30686 0.74838 0.13944 -0.37000
O 	O 	0.35495 0.66245 0.10446 -0.71800
H 	H 	0.37355 0.62634 0.10720 0.17100
C 	C 	0.07346 0.16504 0.22623 0.28600
C 	C 	0.87351 0.92961 0.30543 0.30500
C 	C 	0.07092 0.16300 0.29279 0.29900
C 	C 	0.84610 0.90898 0.22704 0.28600
C 	C 	0.09502 0.95137 0.29846 0.31400
C 	C 	0.07370 0.92867 0.21999 0.28900
Ni	Ni	0.93777 0.04785 0.26072 1.10600
Ni	Ni	0.96114 0.90123 0.26331 1.11600
Ni	Ni	0.10833 0.06270 0.25746 1.12000
O 	O 	0.00132 0.13876 0.23415 -0.36200
O 	O 	0.10407 0.12038 0.22438 -0.37600
O 	O 	0.05205 0.90140 0.28023 -0.39000
O 	O 	0.85744 0.96710 0.28708 -0.36600
O 	O 	0.92870 0.91397 0.30127 -0.38800
O 	O 	0.12513 0.98724 0.23474 -0.36800
O 	O 	0.00005 0.10822 0.29452 -0.37500
O 	O 	0.12261 0.15528 0.27864 -0.37600
O 	O 	0.00043 0.89008 0.22697 -0.37700
O 	O 	0.86732 0.98153 0.22900 -0.36100
O 	O 	0.85669 0.87355 0.24786 -0.38200
O 	O 	0.12192 0.02345 0.29369 -0.38400
O 	O 	0.00026 0.00483 0.25471 -0.70100
H 	H 	0.99607 0.00186 0.23458 0.14100
C 	C 	0.29141 0.49374 0.17271 -0.05900
C 	C 	0.32158 0.44643 0.16625 0.00800
C 	C 	0.28941 0.37404 0.17746 -0.04800
C 	C 	0.22655 0.34828 0.19516 0.01800
C 	C 	0.20141 0.39858 0.20392 0.01900
C 	C 	0.23563 0.47195 0.19320 -0.01700
C 	C 	0.13856 0.37310 0.22154 -0.05400
C 	C 	0.09762 0.29725 0.22889 0.00700
C 	C 	0.11951 0.24579 0.21902 -0.06400
C 	C 	0.18568 0.27201 0.20288 -0.01800
H 	H 	0.36599 0.46356 0.15091 0.05100
H 	H 	0.31084 0.33683 0.17124 0.05600
H 	H 	0.21347 0.50917 0.19867 0.04900
H 	H 	0.12004 0.41162 0.22897 0.05000
H 	H 	0.04884 0.27847 0.24237 0.04100
H 	H 	0.20383 0.23299 0.19565 0.05200
C 	C 	0.61063 0.77130 0.12534 -0.05800
C 	C 	0.65896 0.84848 0.12053 0.01300
C 	C 	0.72046 0.89067 0.13807 -0.04900
C 	C 	0.73427 0.85578 0.16044 0.02000
C 	C 	0.69138 0.77670 0.16327 0.02000
C 	C 	0.63139 0.73460 0.14506 -0.01500
C 	C 	0.70486 0.74152 0.18554 -0.05300
C 	C 	0.75641 0.78464 0.20594 0.00800
C 	C 	0.79582 0.86377 0.20426 -0.06300
C 	C 	0.78689 0.89907 0.18088 -0.01800
H 	H 	0.64548 0.87686 0.10456 0.05300
H 	H 	0.75473 0.95092 0.13506 0.06000
H 	H 	0.59611 0.67433 0.14798 0.05500
H 	H 	0.67345 0.68077 0.18758 0.05100
H 	H 	0.76444 0.75644 0.22337 0.04000
H 	H 	0.81914 0.95984 0.17893 0.05600
C 	C 	0.18156 0.72579 0.15091 -0.05200
C 	C 	0.12132 0.67876 0.16836 0.00600
C 	C 	0.08332 0.70818 0.18374 -0.04400
C 	C 	0.10615 0.78519 0.18217 0.01200
C 	C 	0.16398 0.83176 0.16358 0.03900
C 	C 	0.19958 0.80114 0.14740 -0.02400
C 	C 	0.18847 0.90917 0.16255 -0.05700
C 	C 	0.15807 0.94069 0.18068 0.02200
C 	C 	0.10175 0.89493 0.19957 -0.06400
C 	C 	0.07454 0.81687 0.19984 -0.00800
H 	H 	0.10622 0.62030 0.17096 0.05000
H 	H 	0.03817 0.67169 0.19764 0.05100
H 	H 	0.24397 0.83668 0.13312 0.10200
H 	H 	0.23249 0.94529 0.14822 0.08000
H 	H 	0.17869 0.00075 0.18015 0.04000
H 	H 	0.03110 0.78146 0.21450 0.04700
C 	C 	0.57946 0.72166 0.37936 -0.04700
C 	C 	0.59139 0.67524 0.36111 0.00600
C 	C 	0.65791 0.70501 0.34526 -0.04300
C 	C 	0.71222 0.78178 0.34718 0.01000
C 	C 	0.70317 0.82698 0.36713 0.04000
C 	C 	0.63824 0.79563 0.38391 -0.01800
C 	C 	0.75566 0.90433 0.36840 -0.05500
C 	C 	0.81341 0.93751 0.34878 0.02200
C 	C 	0.82064 0.89340 0.32825 -0.07400
C 	C 	0.77206 0.81513 0.32813 -0.00600
H 	H 	0.54712 0.61753 0.35790 0.05100
H 	H 	0.66514 0.66937 0.33047 0.04800
H 	H 	0.63039 0.83049 0.39890 0.09900
H 	H 	0.74974 0.93933 0.38383 0.08100
H 	H 	0.85144 0.99783 0.34913 0.04100
H 	H 	0.77817 0.78109 0.31231 0.03800
C 	C 	0.09497 0.23338 0.30828 -0.07100
C 	C 	0.05943 0.23232 0.33317 0.01300
C 	C 	0.08642 0.29785 0.34889 -0.05300
C 	C 	0.14938 0.36517 0.33992 0.02400
C 	C 	0.18313 0.36743 0.31432 0.01500
C 	C 	0.15573 0.30153 0.29860 -0.01600
C 	C 	0.24595 0.43482 0.30533 -0.05100
C 	C 	0.27862 0.49786 0.32250 0.00500
C 	C 	0.24836 0.49439 0.34875 -0.05700
C 	C 	0.18141 0.42914 0.35681 -0.01900
H 	H 	0.01220 0.18031 0.34073 0.04900
H 	H 	0.05948 0.29574 0.36834 0.06100
H 	H 	0.18271 0.30281 0.27922 0.04700
H 	H 	0.27113 0.43770 0.28542 0.04800
H 	H 	0.32956 0.54813 0.31588 0.04500
H 	H 	0.15665 0.42702 0.37676 0.05700
C 	C 	0.12150 0.92672 0.32253 -0.07200
C 	C 	0.18850 0.97745 0.33638 0.02300
C 	C 	0.21913 0.95152 0.35661 -0.05500
C 	C 	0.18381 0.87446 0.36287 0.02600
C 	C 	0.11430 0.82388 0.35004 0.01600
C 	C 	0.08250 0.85063 0.33046 -0.00800
C 	C 	0.08022 0.74651 0.35564 -0.04700
C 	C 	0.11780 0.71901 0.37215 0.00900
C 	C 	0.18856 0.76873 0.38386 -0.05800
C 	C 	0.21963 0.84665 0.38031 -0.01600
H 	H 	0.21821 0.03654 0.33091 0.04500
H 	H 	0.27184 0.99096 0.36666 0.06200
H 	H 	0.02918 0.81181 0.32056 0.04600
H 	H 	0.02631 0.70734 0.34623 0.05200
H 	H 	0.09326 0.65884 0.37504 0.04400
H 	H 	0.27426 0.88503 0.38952 0.05700
C 	C 	0.60584 0.04734 0.43004 -0.14400
C 	C 	0.56952 0.07899 0.44536 0.01700
C 	C 	0.48957 0.04594 0.44424 0.27700
C 	C 	0.44644 0.97722 0.43082 -0.04600
C 	C 	0.48251 0.94014 0.41909 -0.15500
C 	C 	0.56243 0.97771 0.41711 0.38400
C 	C 	0.61296 0.13733 0.46616 0.00700
F 	F 	0.45341 0.07691 0.45820 -0.42100
H 	H 	0.38468 0.94948 0.43175 0.08400
F 	F 	0.59807 0.94411 0.40455 -0.45000
H 	H 	0.66756 0.07392 0.42983 0.12700
C 	C 	0.64659 0.12048 0.48835 0.29200
C 	C 	0.66997 0.16672 0.51149 -0.05700
C 	C 	0.65800 0.22890 0.51309 -0.12700
C 	C 	0.63165 0.25004 0.48977 0.37200
C 	C 	0.61021 0.20479 0.46631 -0.12800
F 	F 	0.65142 0.05637 0.48832 -0.41900
H 	H 	0.69290 0.15145 0.52892 0.10100
F 	F 	0.62191 0.31135 0.49041 -0.42400
H 	H 	0.58668 0.21954 0.44893 0.12900
C 	C 	0.05462 0.49599 0.56847 -0.12700
C 	C 	0.04405 0.43394 0.55276 0.02100
C 	C 	0.98391 0.36221 0.55928 0.28700
C 	C 	0.92732 0.35506 0.57761 -0.05800
C 	C 	0.92988 0.41968 0.58879 -0.13700
C 	C 	0.99739 0.48891 0.58650 0.36100
C 	C 	0.08121 0.44709 0.52581 0.01300
F 	F 	0.97569 0.30077 0.54556 -0.42000
H 	H 	0.87690 0.30059 0.58039 0.08000
F 	F 	0.00314 0.55113 0.59883 -0.42900
H 	H 	0.10305 0.55113 0.56455 0.11800
C 	C 	0.05536 0.47378 0.50408 0.30200
C 	C 	0.09918 0.50098 0.48034 -0.06400
C 	C 	0.16958 0.50256 0.47828 -0.13200
C 	C 	0.18873 0.46437 0.49814 0.37100
C 	C 	0.14574 0.43870 0.52223 -0.13300
F 	F 	0.98995 0.47729 0.50664 -0.42500
H 	H 	0.08104 0.52563 0.46436 0.09900
F 	F 	0.24914 0.45305 0.49430 -0.41600
H 	H 	0.16361 0.41412 0.53831 0.14700
C 	C 	0.44780 0.45739 0.57159 -0.14400
C 	C 	0.43729 0.45679 0.54321 0.02400
C 	C 	0.43699 0.39905 0.52738 0.29200
C 	C 	0.46089 0.35143 0.53901 -0.05200
C 	C 	0.48536 0.36184 0.56634 -0.14700
C 	C 	0.47024 0.40874 0.58325 0.37200
C 	C 	0.44153 0.52331 0.52965 0.01500
F 	F 	0.42042 0.39372 0.50025 -0.40200
H 	H 	0.46859 0.31252 0.52606 0.11800
F 	F 	0.48730 0.41441 0.61035 -0.44900
H 	H 	0.44470 0.49948 0.58422 0.12800
C 	C 	0.38384 0.54212 0.53355 0.30500
C 	C 	0.38325 0.59906 0.51777 -0.04000
C 	C 	0.43955 0.63645 0.49763 -0.14400
C 	C 	0.50238 0.62412 0.49639 0.37500
C 	C 	0.50305 0.56743 0.51223 -0.13500
F 	F 	0.32621 0.50258 0.55149 -0.41900
H 	H 	0.33604 0.61016 0.51981 0.10000
F 	F 	0.56113 0.66484 0.47899 -0.42700
H 	H 	0.55012 0.55605 0.51032 0.12600
C 	C 	0.71235 0.13467 0.63390 -0.05900
C 	C 	0.66222 0.07613 0.65120 0.01100
C 	C 	0.69028 0.04093 0.66869 -0.05500
C 	C 	0.76883 0.06504 0.66929 0.01900
C 	C 	0.81764 0.11788 0.64977 0.02300
C 	C 	0.78769 0.14843 0.63092 -0.01400
C 	C 	0.89671 0.14504 0.65115 -0.05000
C 	C 	0.92747 0.12300 0.67263 0.00800
C 	C 	0.87935 0.07190 0.69241 -0.06100
C 	C 	0.79985 0.04136 0.69028 -0.01600
H 	H 	0.60316 0.06269 0.65292 0.04500
H 	H 	0.65183 0.99857 0.68298 0.05400
H 	H 	0.82544 0.19068 0.61641 0.05400
H 	H 	0.93461 0.18525 0.63616 0.06000
H 	H 	0.98867 0.14560 0.67387 0.04100
H 	H 	0.76261 0.00153 0.70553 0.04600
C 	C 	0.23415 0.12777 0.71037 -0.06600
C 	C 	0.24097 0.18015 0.69029 0.01100
C 	C 	0.31048 0.22396 0.67691 -0.05400
C 	C 	0.37393 0.21545 0.68317 0.02700
C 	C 	0.36792 0.16356 0.70348 0.01300
C 	C 	0.29808 0.11985 0.71698 -0.01800
C 	C 	0.43133 0.15454 0.70948 -0.05200
C 	C 	0.49848 0.19302 0.69411 0.00400
C 	C 	0.50317 0.24159 0.67290 -0.06200
C 	C 	0.44222 0.25566 0.66850 -0.02200
H 	H 	0.19231 0.18671 0.68492 0.04900
H 	H 	0.31460 0.26373 0.66135 0.06700
H 	H 	0.29351 0.07992 0.73255 0.04700
H 	H 	0.42784 0.11593 0.72540 0.04500
H 	H 	0.54536 0.18225 0.69784 0.04200
H 	H 	0.44656 0.29481 0.65261 0.08200
C 	C 	0.90267 0.79840 0.69469 -0.05700
C 	C 	0.95333 0.80058 0.67437 0.00000
C 	C 	0.92727 0.74751 0.65329 -0.04700
C 	C 	0.85027 0.69180 0.65221 0.02400
C 	C 	0.79788 0.69338 0.67114 0.01800
C 	C 	0.82421 0.74733 0.69212 -0.01800
C 	C 	0.72079 0.63776 0.66997 -0.04700
C 	C 	0.69743 0.57702 0.65203 0.01000
C 	C 	0.75079 0.57161 0.63500 -0.05700
C 	C 	0.82602 0.63146 0.63383 -0.01700
H 	H 	0.01336 0.84210 0.67532 0.05700
H 	H 	0.96751 0.74820 0.63837 0.06300
H 	H 	0.78428 0.74729 0.70706 0.05100
H 	H 	0.67963 0.63962 0.68382 0.05300
H 	H 	0.63866 0.53205 0.65242 0.06500
H 	H 	0.86695 0.62808 0.62026 0.07300
C 	C 	0.12145 0.58213 0.98973 -0.14600
C 	C 	0.06244 0.51485 0.00063 0.02700
C 	C 	0.06662 0.49554 0.02787 0.30000
C 	C 	0.12534 0.54580 0.04473 -0.04200
C 	C 	0.18386 0.61384 0.03412 -0.15700
C 	C 	0.18254 0.63121 0.00636 0.38700
C 	C 	0.99134 0.47073 0.98510 0.00900
F 	F 	0.01172 0.42912 0.03830 -0.39900
H 	H 	0.12597 0.53138 0.06604 0.06400
F 	F 	0.23898 0.69637 0.99573 -0.42000
H 	H 	0.11879 0.59736 0.96866 0.12600
C 	C 	0.92318 0.46593 0.99457 0.30700
C 	C 	0.85513 0.42199 0.98061 -0.04800
C 	C 	0.85464 0.38471 0.95645 -0.14300
C 	C 	0.92237 0.38821 0.94715 0.38100
C 	C 	0.99059 0.43090 0.96155 -0.15500
F 	F 	0.92337 0.50525 0.01704 -0.40700
H 	H 	0.80314 0.41996 0.98778 0.11200
F 	F 	0.92264 0.35265 0.92368 -0.44200
H 	H 	0.04280 0.43361 0.95430 0.14000
C 	C 	0.45795 0.03483 0.08336 -0.14500
C 	C 	0.52305 0.06327 0.06669 0.01900
C 	C 	0.57183 0.03241 0.06866 0.27900
C 	C 	0.55016 0.96757 0.08428 -0.04400
C 	C 	0.47920 0.93247 0.09756 -0.15400
C 	C 	0.43615 0.96964 0.09885 0.38700
C 	C 	0.53306 0.11560 0.04415 0.00900
F 	F 	0.63665 0.06107 0.05346 -0.41800
H 	H 	0.58462 0.94023 0.08363 0.08400
F 	F 	0.36966 0.93884 0.11304 -0.45200
H 	H 	0.42148 0.06007 0.08283 0.12600
C 	C 	0.48270 0.09049 0.02175 0.29400
C 	C 	0.50037 0.13409 0.99796 -0.05600
C 	C 	0.56893 0.20262 0.99615 -0.12900
C 	C 	0.61679 0.23004 0.01931 0.37300
C 	C 	0.59837 0.18682 0.04322 -0.13000
F 	F 	0.41877 0.02195 0.02248 -0.41300
H 	H 	0.46220 0.11317 0.98054 0.10600
F 	F 	0.68325 0.29632 0.01818 -0.42400
H 	H 	0.63692 0.20703 0.06055 0.13000
C 	C 	0.37730 0.43104 0.01185 -0.14400
C 	C 	0.33620 0.42850 0.98826 0.01000
C 	C 	0.28169 0.45240 0.98963 0.30700
C 	C 	0.27294 0.48420 0.01381 -0.05200
C 	C 	0.31944 0.49335 0.03658 -0.13600
C 	C 	0.36921 0.46359 0.03589 0.37400
C 	C 	0.35810 0.41063 0.96167 0.02300
F 	F 	0.24000 0.44825 0.96718 -0.40800
H 	H 	0.23356 0.50603 0.01425 0.10000
F 	F 	0.41250 0.46960 0.05808 -0.43700
H 	H 	0.41855 0.41144 0.01107 0.12000
C 	C 	0.40954 0.46948 0.94473 0.29300
C 	C 	0.45539 0.45692 0.92630 -0.05500
C 	C 	0.45063 0.38604 0.92513 -0.14400
C 	C 	0.38925 0.32465 0.93808 0.37100
C 	C 	0.34340 0.33708 0.95653 -0.15000
F 	F 	0.42113 0.54036 0.94832 -0.40800
H 	H 	0.50045 0.50413 0.91539 0.09300
F 	F 	0.38036 0.25450 0.93549 -0.44500
H 	H 	0.30142 0.29068 0.96866 0.12400
C 	C 	0.73251 0.24126 0.83702 -0.06400
C 	C 	0.68621 0.18772 0.81746 0.00600
C 	C 	0.71275 0.14483 0.80352 -0.05000
C 	C 	0.78544 0.15422 0.80935 0.01400
C 	C 	0.83324 0.21004 0.82818 0.02700
C 	C 	0.80744 0.25479 0.84125 -0.01900
C 	C 	0.90502 0.21843 0.83460 -0.05300
C 	C 	0.92904 0.17119 0.82271 0.01300
C 	C 	0.88221 0.11552 0.80383 -0.06900
C 	C 	0.81029 0.10741 0.79707 -0.01300
H 	H 	0.62845 0.17675 0.81395 0.04100
H 	H 	0.67582 0.10274 0.78888 0.04700
H 	H 	0.84400 0.29722 0.85591 0.07400
H 	H 	0.94199 0.26099 0.84911 0.07000
H 	H 	0.98427 0.17804 0.82820 0.05100
H 	H 	0.77401 0.06518 0.78232 0.05000
C 	C 	0.43510 0.10964 0.86439 -0.05600
C 	C 	0.36951 0.06200 0.87953 0.01300
C 	C 	0.29688 0.03864 0.86847 -0.04300
C 	C 	0.28995 0.06388 0.84238 0.01900
C 	C 	0.35576 0.10387 0.82602 0.02100
C 	C 	0.42715 0.11941 0.83635 -0.01800
C 	C 	0.35064 0.13521 0.80106 -0.05600
C 	C 	0.28128 0.12902 0.79280 0.01000
C 	C 	0.21495 0.08731 0.80846 -0.07100
C 	C 	0.21932 0.05412 0.83320 -0.01400
H 	H 	0.37467 0.05033 0.90084 0.05700
H 	H 	0.24667 0.00573 0.88093 0.06200
H 	H 	0.47799 0.15160 0.82404 0.04300
H 	H 	0.40094 0.16655 0.78846 0.04600
H 	H 	0.27870 0.15506 0.77380 0.04300
H 	H 	0.16823 0.02168 0.84533 0.05400
C 	C 	0.90330 0.80389 0.82292 -0.06500
C 	C 	0.95624 0.78652 0.83492 0.00700
C 	C 	0.93159 0.72512 0.85260 -0.04900
C 	C 	0.85372 0.68059 0.85851 0.02100
C 	C 	0.80108 0.70177 0.84835 0.02000
C 	C 	0.82639 0.76401 0.83081 -0.01300
C 	C 	0.72327 0.65768 0.85451 -0.05000
C 	C 	0.69737 0.59081 0.86923 0.01300
C 	C 	0.74893 0.56739 0.87788 -0.06800
C 	C 	0.82721 0.61320 0.87322 -0.01100
H 	H 	0.01616 0.81866 0.82956 0.04600
H 	H 	0.97272 0.71067 0.86090 0.05500
H 	H 	0.78565 0.77824 0.82193 0.04800
H 	H 	0.68256 0.67405 0.84727 0.05500
H 	H 	0.63687 0.55599 0.87323 0.04600
H 	H 	0.86699 0.59538 0.88031 0.05300
