data_crystal

_cell_length_a 20.70573
_cell_length_b 17.73855
_cell_length_c 49.08450
_cell_angle_alpha 90.75564
_cell_angle_beta  91.46783
_cell_angle_gamma 110.96350

_symmetry_space_group_name_	'P 1'
_symmetry_space_group_name_H-M	'P 1'

loop_
_symmetry_equiv_pos_as_xyz
  x,y,z

loop_
_atom_site_label
_atom_site_type_symbol
_atom_site_fract_x
_atom_site_fract_y
_atom_site_fract_z
_atom_site_charge
O 	O 	0.03414 0.87893 0.70797 -0.71600
Ni	Ni	0.07618 0.94939 0.67684 1.09600
O 	O 	0.11346 0.97877 0.75425 -0.37400
O 	O 	0.11427 0.12957 0.75487 -0.40800
O 	O 	0.08754 0.85981 0.65310 -0.38000
O 	O 	0.05539 0.03155 0.70187 -0.69600
O 	O 	0.13523 0.03304 0.65037 -0.36800
O 	O 	0.17646 0.15057 0.67568 -0.40400
Ni	Ni	0.13709 0.12293 0.71456 1.06600
H 	H 	0.06458 0.85166 0.71554 0.15300
H 	H 	0.01972 0.05168 0.69475 0.15200
O 	O 	0.18732 0.04531 0.72128 -0.43000
C 	C 	0.03329 0.79318 0.64790 0.28700
C 	C 	0.17403 0.99857 0.74255 0.27600
C 	C 	0.18686 0.09933 0.65812 0.28300
C 	C 	0.05093 0.11430 0.76349 0.28400
O 	O 	0.17212 0.68455 0.37097 -0.37400
O 	O 	0.23273 0.56797 0.37682 -0.39400
O 	O 	0.21546 0.57305 0.45753 -0.41900
O 	O 	0.15617 0.60521 0.42184 -0.37700
C 	C 	0.17882 0.75568 0.36157 0.29500
C 	C 	0.24203 0.50356 0.38607 0.30900
C 	C 	0.15754 0.55987 0.44293 0.29800
Ni	Ni	0.20821 0.67081 0.01608 1.09600
O 	O 	0.16818 0.46668 0.00935 -0.40400
O 	O 	0.10953 0.62641 0.99878 -0.38400
O 	O 	0.17194 0.72320 0.04687 -0.37300
C 	C 	0.14874 0.49818 0.03061 0.29700
C 	C 	0.08635 0.56512 0.98092 0.29800
C 	C 	0.20682 0.79746 0.05559 0.29400
O 	O 	0.18636 0.57105 0.03949 -0.39900
O 	O 	0.12857 0.55033 0.96365 -0.42400
O 	O 	0.09901 0.16324 0.24103 -0.41500
Ni	Ni	0.05530 0.16540 0.20236 1.06100
O 	O 	0.08056 0.06627 0.19328 -0.41300
C 	C 	0.05235 0.01865 0.17220 0.28200
C 	C 	0.06887 0.16703 0.26406 0.27800
O 	O 	0.03635 0.18075 0.16202 -0.41100
C 	C 	0.01826 0.33692 0.08773 0.00700
C 	C 	0.04198 0.42052 0.09277 -0.05600
C 	C 	0.08164 0.47359 0.07355 0.00800
C 	C 	0.06986 0.35978 0.04330 0.01000
C 	C 	0.02979 0.30704 0.06247 -0.05600
C 	C 	0.09871 0.44326 0.04923 -0.08200
H 	H 	0.03265 0.44428 0.11213 0.03900
H 	H 	0.10091 0.53795 0.07801 0.04000
H 	H 	0.08047 0.33530 0.02433 0.03400
C 	C 	0.14302 0.89258 0.12121 0.00600
C 	C 	0.07834 0.85160 0.13213 -0.05200
C 	C 	0.05135 0.89048 0.15122 0.00000
C 	C 	0.18375 0.82995 0.07872 -0.11500
C 	C 	0.15605 0.00928 0.15022 0.00700
C 	C 	0.18298 0.97035 0.13105 -0.05300
C 	C 	0.16532 0.85811 0.09821 0.03700
C 	C 	0.08880 0.97079 0.15942 -0.08100
H 	H 	0.04765 0.79094 0.12496 0.04200
H 	H 	0.18561 0.07110 0.15653 0.02900
H 	H 	0.23355 0.00197 0.12299 0.03700
C 	C 	0.18368 0.31912 0.33026 0.01000
C 	C 	0.20475 0.33696 0.30347 -0.05900
C 	C 	0.16837 0.28622 0.28187 0.00600
C 	C 	0.22563 0.43562 0.36773 -0.10800
C 	C 	0.09264 0.19636 0.31402 0.01100
C 	C 	0.12898 0.24744 0.33555 -0.05700
C 	C 	0.20823 0.38106 0.35113 0.03900
C 	C 	0.11078 0.21685 0.28697 -0.08500
H 	H 	0.18349 0.30233 0.26116 0.01800
H 	H 	0.11259 0.23308 0.35625 0.04600
C 	C 	0.00806 0.76804 0.32222 -0.00800
C 	C 	0.12021 0.76382 0.34776 -0.11100
C 	C 	0.06905 0.76624 0.33627 0.04300
H 	H 	0.01793 0.69750 0.28744 0.03200
C 	C 	0.07693 0.50588 0.48102 -0.04300
C 	C 	0.09053 0.50430 0.45319 -0.09200
C 	C 	0.03786 0.45420 0.43495 0.10500
N 	N 	0.05177 0.44177 0.40869 -0.19900
H 	H 	0.11762 0.54182 0.49522 0.04700
H 	H 	0.01197 0.40829 0.39503 0.08700
H 	H 	0.10237 0.46080 0.40204 0.10700
H 	H 	0.18212 0.08576 0.60274 0.04400
C 	C 	0.01110 0.53054 0.97454 -0.10600
N 	N 	0.00681 0.39314 0.97953 -0.20500
H 	H 	0.00317 0.64762 0.96968 0.04400
H 	H 	0.06043 0.41177 0.98101 0.08100
C 	C 	0.03554 0.13874 0.81207 0.01100
H 	H 	0.06107 0.09753 0.81805 0.03800
C 	C 	0.22426 0.96036 0.78464 0.01200
C 	C 	0.23261 0.98802 0.75778 -0.09100
H 	H 	0.17302 0.93175 0.79251 0.03800
O 	O 	0.64915 0.24560 0.87199 -0.70400
Ni	Ni	0.56857 0.25670 0.89067 1.10100
Ni	Ni	0.64192 0.13372 0.86968 1.06500
O 	O 	0.62076 0.11106 0.90981 -0.41400
O 	O 	0.49488 0.19021 0.86286 -0.38200
O 	O 	0.64838 0.31753 0.91740 -0.70300
O 	O 	0.49896 0.29997 0.90803 -0.37300
O 	O 	0.57605 0.42934 0.90664 -0.41800
H 	H 	0.64992 0.26569 0.85323 0.15100
H 	H 	0.64786 0.28493 0.93367 0.15700
C 	C 	0.55918 0.10247 0.91871 0.29700
C 	C 	0.50148 0.12850 0.84922 0.28400
C 	C 	0.51415 0.37800 0.91207 0.27900
O 	O 	0.53588 0.16233 0.91724 -0.37500
O 	O 	0.53817 0.08737 0.85976 -0.41700
Ni	Ni	0.62267 0.32202 0.51380 1.09800
O 	O 	0.58515 0.38806 0.48807 -0.37600
O 	O 	0.68856 0.49327 0.48949 -0.41300
O 	O 	0.56156 0.22096 0.49096 -0.36800
O 	O 	0.53065 0.17246 0.54527 -0.41500
O 	O 	0.67903 0.28079 0.53922 -0.69900
O 	O 	0.54088 0.30376 0.53863 -0.38000
Ni	Ni	0.62758 0.16650 0.54481 1.06500
H 	H 	0.68741 0.31106 0.55685 0.15200
O 	O 	0.61933 0.13939 0.50439 -0.41800
C 	C 	0.62299 0.46209 0.48163 0.27900
C 	C 	0.57099 0.15133 0.48946 0.30000
C 	C 	0.51739 0.23708 0.55281 0.29200
Ni	Ni	0.23994 0.66895 0.39913 1.09900
O 	O 	0.32094 0.72467 0.37468 -0.70500
Ni	Ni	0.40091 0.72010 0.39723 1.09800
O 	O 	0.23029 0.82112 0.37032 -0.41200
Ni	Ni	0.33502 0.83657 0.36730 1.06300
O 	O 	0.34887 0.87104 0.40751 -0.41700
O 	O 	0.47413 0.76594 0.36880 -0.37900
O 	O 	0.32145 0.67852 0.42388 -0.70200
O 	O 	0.46932 0.68620 0.42062 -0.37500
O 	O 	0.39023 0.55856 0.42388 -0.41800
Ni	Ni	0.30398 0.57320 0.44042 1.06700
H 	H 	0.31742 0.69451 0.35725 0.15300
H 	H 	0.32567 0.71951 0.43837 0.15300
C 	C 	0.40769 0.88213 0.42053 0.30000
O 	O 	0.24301 0.49117 0.41227 -0.40600
C 	C 	0.47431 0.82795 0.35402 0.28800
C 	C 	0.45273 0.61160 0.42886 0.28000
O 	O 	0.44030 0.83129 0.41718 -0.36900
O 	O 	0.44006 0.87463 0.36194 -0.41000
Ni	Ni	0.35741 0.66660 0.00735 1.09700
O 	O 	0.26347 0.64068 0.98750 -0.70100
O 	O 	0.39374 0.60206 0.98065 -0.37400
O 	O 	0.29672 0.48951 0.98352 -0.41600
O 	O 	0.40339 0.76239 0.98209 -0.37400
Ni	Ni	0.21459 0.52813 0.97552 1.06700
O 	O 	0.44979 0.82611 0.03932 -0.42200
O 	O 	0.30522 0.70733 0.03419 -0.69900
O 	O 	0.44790 0.69870 0.02956 -0.38400
O 	O 	0.25845 0.84474 0.04168 -0.41700
Ni	Ni	0.35074 0.82408 0.03939 1.06500
H 	H 	0.26797 0.67637 0.97176 0.15300
H 	H 	0.30459 0.68074 0.05184 0.15000
O 	O 	0.35289 0.84734 0.99907 -0.41700
C 	C 	0.35826 0.52650 0.97376 0.28200
C 	C 	0.39924 0.83461 0.98391 0.30100
C 	C 	0.46737 0.76374 0.04558 0.29200
C 	C 	0.62709 0.81059 0.10059 0.00900
C 	C 	0.52333 0.77642 0.06476 -0.11500
C 	C 	0.61425 0.80286 0.12848 -0.05900
C 	C 	0.57051 0.79042 0.08111 0.03600
H 	H 	0.56171 0.77664 0.13535 0.03700
C 	C 	0.62989 0.92009 0.30017 0.01400
C 	C 	0.61737 0.90678 0.27199 -0.06100
C 	C 	0.52834 0.85960 0.33473 -0.10000
C 	C 	0.57422 0.88700 0.31884 0.03000
H 	H 	0.56540 0.87422 0.26396 0.03800
H 	H 	0.24712 0.39229 0.29924 0.04000
C 	C 	0.50868 0.09670 0.44543 -0.04200
C 	C 	0.52218 0.08365 0.47276 -0.09000
C 	C 	0.49020 0.00551 0.48361 0.10600
C 	C 	0.45005 0.94133 0.46631 -0.03900
C 	C 	0.43926 0.95356 0.43872 -0.09200
C 	C 	0.46754 0.03250 0.42823 0.10700
N 	N 	0.45651 0.04697 0.40167 -0.19500
H 	H 	0.53168 0.15667 0.43729 0.04500
H 	H 	0.42766 0.88113 0.47435 0.03800
N 	N 	0.49665 0.99185 0.51058 -0.19400
H 	H 	0.47906 0.10499 0.39405 0.08100
H 	H 	0.42468 0.00168 0.38847 0.07300
H 	H 	0.51865 0.03891 0.52469 0.06400
H 	H 	0.47599 0.93329 0.51794 0.07700
C 	C 	0.49758 0.57048 0.47098 -0.04600
C 	C 	0.50469 0.58649 0.44312 -0.09700
C 	C 	0.55747 0.57121 0.42881 0.11000
C 	C 	0.59941 0.53560 0.44242 -0.04700
C 	C 	0.58893 0.51444 0.46980 -0.09400
C 	C 	0.53988 0.53552 0.48459 0.11000
N 	N 	0.53356 0.52297 0.51184 -0.19800
H 	H 	0.45822 0.58410 0.48202 0.02100
H 	H 	0.63831 0.52116 0.43134 0.02700
N 	N 	0.56721 0.58887 0.40198 -0.20000
H 	H 	0.49559 0.53617 0.52243 0.08100
H 	H 	0.56773 0.50287 0.52294 0.09100
H 	H 	0.53709 0.61541 0.39122 0.09600
H 	H 	0.60584 0.57650 0.39157 0.08200
C 	C 	0.35577 0.19072 0.60406 0.01100
C 	C 	0.28878 0.14809 0.59357 -0.05600
C 	C 	0.23363 0.11852 0.61115 0.01100
C 	C 	0.46132 0.22640 0.57092 -0.10500
C 	C 	0.31190 0.17572 0.64993 0.00500
C 	C 	0.36714 0.20503 0.63227 -0.05900
C 	C 	0.41362 0.21229 0.58613 0.03200
C 	C 	0.24500 0.13137 0.63949 -0.07900
H 	H 	0.27955 0.13659 0.57181 0.04900
H 	H 	0.32135 0.18635 0.67171 0.02200
H 	H 	0.41883 0.23751 0.64058 0.03800
C 	C 	0.40728 0.93409 0.94795 -0.04400
C 	C 	0.44122 0.89907 0.96596 -0.09700
C 	C 	0.51483 0.92749 0.96714 0.10800
C 	C 	0.55244 0.99243 0.95092 -0.04800
C 	C 	0.51831 0.02817 0.93315 -0.09500
C 	C 	0.44481 0.99577 0.93067 0.10700
N 	N 	0.41015 0.02127 0.91113 -0.20000
H 	H 	0.35117 0.91139 0.94667 0.04500
H 	H 	0.60850 0.01617 0.95261 0.04900
N 	N 	0.54975 0.89403 0.98403 -0.20300
H 	H 	0.35613 0.00158 0.91080 0.08800
H 	H 	0.43566 0.05525 0.89492 0.11100
H 	H 	0.52419 0.84455 0.99582 0.11300
H 	H 	0.60383 0.91685 0.98514 0.08800
C 	C 	0.44616 0.38139 0.95252 -0.05100
C 	C 	0.46506 0.40703 0.92602 -0.10100
C 	C 	0.44274 0.46637 0.91434 0.10600
C 	C 	0.40649 0.50343 0.93020 -0.04900
C 	C 	0.39091 0.48102 0.95723 -0.09900
C 	C 	0.41051 0.41892 0.96853 0.10700
N 	N 	0.39754 0.39702 0.99488 -0.19900
H 	H 	0.46247 0.33497 0.96126 0.04000
H 	H 	0.39054 0.55016 0.92149 0.03600
N 	N 	0.45472 0.48687 0.88783 -0.20000
H 	H 	0.41111 0.35009 0.00280 0.08000
H 	H 	0.37564 0.42731 0.00798 0.09400
H 	H 	0.47621 0.45568 0.87487 0.09200
H 	H 	0.44006 0.53264 0.87962 0.08100
C 	C 	0.34837 0.01801 0.79278 0.01600
C 	C 	0.35734 0.03532 0.76509 -0.06300
C 	C 	0.29964 0.01946 0.74752 0.01200
C 	C 	0.44960 0.08870 0.82876 -0.10600
C 	C 	0.28206 0.97596 0.80213 -0.06300
C 	C 	0.40434 0.05548 0.81210 0.03200
H 	H 	0.40873 0.06550 0.75753 0.04000
H 	H 	0.30710 0.03666 0.72640 0.02900
H 	H 	0.27495 0.95999 0.82338 0.04500
H 	H 	0.04085 0.49216 0.53161 0.08500
C 	C 	0.03520 0.74116 0.62565 -0.10500
C 	C 	0.02541 0.69424 0.60669 0.03900
C 	C 	0.03885 0.16503 0.78509 -0.08400
C 	C 	0.66919 0.83040 0.14760 0.00700
H 	H 	0.65891 0.82456 0.16916 0.02100
Ni	Ni	0.66272 0.42868 0.92876 1.06900
O 	O 	0.70803 0.33416 0.49132 -0.70000
H 	H 	0.69554 0.29461 0.47587 0.15300
C 	C 	0.67224 0.93385 0.25408 0.00600
H 	H 	0.66193 0.92174 0.23241 0.02800
Ni	Ni	0.01995 0.96069 0.73410 1.09400
H 	H 	0.01102 0.24252 0.05827 0.04600
C 	C 	0.69497 0.84516 0.09184 -0.05600
H 	H 	0.70509 0.85155 0.07027 0.04700
C 	C 	0.69709 0.96351 0.31029 -0.06000
H 	H 	0.01100 0.24293 0.75744 0.01200
H 	H 	0.04964 0.14179 0.31835 0.04100
O 	O 	0.72307 0.40705 0.86866 -0.40300
O 	O 	0.71565 0.13689 0.54593 -0.41600
H 	H 	0.70710 0.97490 0.33202 0.05000
H 	H 	0.01543 0.72545 0.55352 0.03900
Ni	Ni	0.72928 0.32233 0.89532 1.09900
H 	H 	0.72856 0.62429 0.79446 0.04100
C 	C 	0.00744 0.22050 0.77799 -0.00200
O 	O 	0.74845 0.16307 0.87708 -0.41400
O 	O 	0.72853 0.50178 0.90138 -0.40200
C 	C 	0.73298 0.48168 0.87586 0.32600
H 	H 	0.99684 0.09453 0.65048 0.02200
Ni	Ni	0.76007 0.44219 0.47779 1.06700
C 	C 	0.74040 0.97397 0.26426 -0.08700
C 	C 	0.73720 0.86608 0.13889 -0.08400
C 	C 	0.74990 0.87284 0.11089 0.01400
C 	C 	0.75206 0.99057 0.29247 0.01900
H 	H 	0.74661 0.98688 0.62476 0.03900
C 	C 	0.76259 0.54389 0.85666 -0.10700
Ni	Ni	0.76861 0.30358 0.51833 1.09700
O 	O 	0.74607 0.43242 0.95233 -0.41800
C 	C 	0.77266 0.18359 0.55860 0.29800
C 	C 	0.78357 0.65870 0.79641 -0.05800
H 	H 	0.78657 0.71437 0.75763 0.03200
C 	C 	0.79564 0.22521 0.86572 0.28700
C 	C 	0.78890 0.59399 0.83999 0.04200
O 	O 	0.79969 0.29951 0.87131 -0.37200
O 	O 	0.80405 0.40953 0.54035 -0.40200
O 	O 	0.79018 0.94974 0.22252 -0.43300
H 	H 	0.79619 0.90526 0.65285 0.03000
O 	O 	0.80979 0.25333 0.54842 -0.37500
C 	C 	0.79945 0.15262 0.58109 -0.11800
O 	O 	0.82558 0.50782 0.50893 -0.39500
C 	C 	0.79993 0.98879 0.24609 0.29400
H 	H 	0.80232 0.89883 0.10389 0.04500
H 	H 	0.80396 0.02190 0.30075 0.03800
C 	C 	0.80091 0.01119 0.63095 -0.05700
O 	O 	0.80875 0.40794 0.91699 -0.37800
C 	C 	0.79504 0.89218 0.15894 0.28800
C 	C 	0.81664 0.70922 0.77541 0.00500
C 	C 	0.80511 0.43311 0.94223 0.29500
O 	O 	0.79908 0.83878 0.17657 -0.40700
H 	H 	0.81969 0.58372 0.94919 0.09100
C 	C 	0.82159 0.65172 0.81963 0.01000
O 	O 	0.00268 0.04368 0.75847 -0.38900
C 	C 	0.81983 0.12349 0.59983 0.03900
C 	C 	0.84522 0.47749 0.53055 0.29600
O 	O 	0.83685 0.40757 0.46368 -0.41800
C 	C 	0.82894 0.96502 0.64687 0.01300
Ni	Ni	0.83283 0.86463 0.21700 1.06600
C 	C 	0.85063 0.21347 0.85106 -0.10600
O 	O 	0.84786 0.85772 0.25800 -0.41800
C 	C 	0.84398 0.08608 0.62146 0.00800
O 	O 	0.86089 0.33396 0.49817 -0.38200
O 	O 	0.86351 0.02961 0.25583 -0.37700
O 	O 	0.85137 0.95178 0.15243 -0.36900
C 	C 	0.88220 0.39147 0.47988 0.29000
N 	N 	0.87254 0.60427 0.95418 -0.19700
C 	C 	0.86965 0.46763 0.95870 -0.09000
H 	H 	0.89708 0.43912 0.57784 0.04000
C 	C 	0.88822 0.75318 0.77751 -0.08400
C 	C 	0.90387 0.53039 0.54799 -0.07700
H 	H 	0.87545 0.35105 0.96625 0.04000
C 	C 	0.01104 0.46114 0.49074 0.09800
O 	O 	0.89318 0.79742 0.73108 -0.41400
C 	C 	0.89275 0.69605 0.82193 -0.05500
C 	C 	0.89760 0.20791 0.83813 0.03600
H 	H 	0.89973 0.66658 0.95482 0.08700
C 	C 	0.90019 0.99350 0.65312 -0.09300
O 	O 	0.90547 0.88889 0.68303 -0.41400
C 	C 	0.90901 0.87113 0.26960 0.28600
H 	H 	0.90101 0.87471 0.32461 0.03800
C 	C 	0.92242 0.50158 0.57241 -0.00100
C 	C 	0.90520 0.55223 0.96056 0.10400
C 	C 	0.90332 0.41579 0.96716 -0.04600
Ni	Ni	0.91502 0.03307 0.18032 1.09600
C 	C 	0.91364 0.11774 0.62990 -0.05700
C 	C 	0.92344 0.80703 0.75549 0.27700
O 	O 	0.92070 0.94931 0.20823 -0.69400
C 	C 	0.91818 0.81343 0.28874 -0.08700
O 	O 	0.91862 0.12356 0.15442 -0.38000
H 	H 	0.93080 0.63209 0.52103 0.04200
H 	H 	0.92255 0.69044 0.83975 0.04800
C 	C 	0.92600 0.74654 0.80096 0.00700
C 	C 	0.92474 0.83391 0.31666 0.01400
H 	H 	0.92955 0.38065 0.42999 0.05000
H 	H 	0.93433 0.14214 0.21676 0.15700
C 	C 	0.93309 0.93842 0.66337 0.28900
C 	C 	0.94145 0.60998 0.54045 0.00200
H 	H 	0.93808 0.73739 0.25789 0.01000
Ni	Ni	0.94424 0.80229 0.69465 1.06300
H 	H 	0.95863 0.41315 0.52620 0.10500
C 	C 	0.94181 0.07157 0.64557 0.01000
H 	H 	0.93596 0.27714 0.78985 0.04000
C 	C 	0.94551 0.75669 0.27914 -0.00300
Ni	Ni	0.95528 0.02440 0.24116 1.09600
O 	O 	0.95675 0.94334 0.26953 -0.38400
C 	C 	0.95596 0.42002 0.47188 -0.08400
H 	H 	0.94693 0.17612 0.62294 0.04500
C 	C 	0.95309 0.20320 0.82183 0.00900
O 	O 	0.95949 0.10587 0.21206 -0.71400
H 	H 	0.95489 0.92433 0.20366 0.15100
C 	C 	0.97199 0.55425 0.59042 -0.04300
C 	C 	0.97062 0.41513 0.44429 -0.04000
C 	C 	0.96406 0.23893 0.79623 -0.05100
O 	O 	0.97116 0.78815 0.65567 -0.40100
H 	H 	0.98230 0.53272 0.61002 0.03700
C 	C 	0.97080 0.81248 0.33331 -0.04400
H 	H 	0.98538 0.13096 0.85038 0.04600
O 	O 	0.97589 0.87359 0.76196 -0.36900
O 	O 	0.00659 0.11527 0.26859 -0.37700
C 	C 	0.97799 0.18396 0.15131 0.29600
C 	C 	0.97554 0.58285 0.96870 -0.02400
H 	H 	0.98122 0.77974 0.80282 0.03700
C 	C 	0.97431 0.44587 0.97404 0.11600
C 	C 	0.98388 0.23710 0.12893 -0.10200
C 	C 	0.99067 0.66259 0.55864 -0.03300
C 	C 	0.99186 0.15675 0.83029 -0.05100
H 	H 	0.97833 0.33143 0.98090 0.08600
H 	H 	0.98120 0.83538 0.35416 0.04700
C 	C 	0.99145 0.73496 0.29577 -0.03800
H 	H 	0.99967 0.85987 0.15845 0.02700
O 	O 	0.99113 0.94015 0.65297 -0.36600
N 	N 	0.00183 0.45639 0.51806 -0.20400
O 	O 	0.99647 0.02175 0.15998 -0.36800
C 	C 	0.99631 0.28257 0.11008 0.04000
C 	C 	0.00246 0.63625 0.58447 -0.01100
