data_crystal

_cell_length_a 45.61173
_cell_length_b 45.92784
_cell_length_c 30.14194
_cell_angle_alpha 89.96419
_cell_angle_beta  89.95900
_cell_angle_gamma 89.85213

_symmetry_space_group_name_	'P 1'
_symmetry_space_group_name_H-M	'P 1'

loop_
_symmetry_equiv_pos_as_xyz
  x,y,z

loop_
_atom_site_label
_atom_site_type_symbol
_atom_site_fract_x
_atom_site_fract_y
_atom_site_fract_z
_atom_site_charge
C 	C 	0.51720 0.52535 0.93235 0.02100
C 	C 	0.52907 0.49666 0.93228 0.01900
C 	C 	0.48666 0.52949 0.93145 -0.05100
C 	C 	0.46780 0.50535 0.93222 0.02100
C 	C 	0.51020 0.47251 0.93197 -0.04900
C 	C 	0.47966 0.47665 0.93282 0.01900
H 	H 	0.51918 0.45071 0.92965 0.06200
H 	H 	0.47768 0.55127 0.92873 0.06300
C 	C 	0.46023 0.45273 0.93258 -0.01100
C 	C 	0.42976 0.45673 0.93573 0.01800
C 	C 	0.41481 0.43200 0.95285 -0.03900
C 	C 	0.43385 0.40929 0.96418 0.00200
S 	S 	0.46805 0.41956 0.95207 0.02900
H 	H 	0.39122 0.43050 0.95578 0.06800
C 	C 	0.43701 0.50888 0.93093 -0.01300
C 	C 	0.41812 0.48497 0.93495 0.02000
C 	C 	0.38974 0.49260 0.95076 -0.04500
C 	C 	0.38698 0.52234 0.96014 0.01100
S 	S 	0.41877 0.53843 0.94793 0.03200
H 	H 	0.37196 0.47726 0.95466 0.06900
C 	C 	0.56710 0.54533 0.93454 0.02000
C 	C 	0.53662 0.54926 0.93157 -0.01400
S 	S 	0.52879 0.58260 0.95033 0.03500
C 	C 	0.56303 0.59311 0.96165 0.01700
C 	C 	0.58208 0.57029 0.95074 -0.04800
C 	C 	0.55985 0.49313 0.93104 -0.01100
C 	C 	0.57876 0.51709 0.93446 0.01800
C 	C 	0.60710 0.50961 0.95057 -0.04800
C 	C 	0.60981 0.47998 0.96077 0.01800
S 	S 	0.57805 0.46376 0.94888 0.02600
H 	H 	0.62480 0.52504 0.95451 0.06600
H 	H 	0.60569 0.57186 0.95327 0.06300
C 	C 	0.40646 0.32117 0.98463 0.04100
C 	C 	0.39330 0.34387 0.00857 -0.01500
C 	C 	0.40220 0.37262 0.00173 -0.04700
C 	C 	0.42453 0.37889 0.97111 0.05300
C 	C 	0.43772 0.35611 0.94717 -0.02900
C 	C 	0.42889 0.32736 0.95424 0.00100
H 	H 	0.37625 0.33922 0.03258 0.07800
H 	H 	0.39198 0.38999 0.02053 0.06500
H 	H 	0.45464 0.36065 0.92294 0.06600
H 	H 	0.43949 0.30988 0.93614 0.08100
C 	C 	0.30398 0.56522 0.97234 0.02000
C 	C 	0.32781 0.57423 0.99826 0.02200
C 	C 	0.35506 0.56052 0.99373 -0.00800
C 	C 	0.35876 0.53796 0.96284 0.03100
C 	C 	0.33522 0.52993 0.93543 -0.02500
C 	C 	0.30798 0.54357 0.94012 0.00600
H 	H 	0.32505 0.59144 0.02250 0.06400
H 	H 	0.37313 0.56709 0.01473 0.05100
H 	H 	0.33800 0.51312 0.91056 0.06500
H 	H 	0.28986 0.53703 0.91918 0.07800
C 	C 	0.69239 0.43660 0.97573 0.06700
C 	C 	0.66802 0.42746 0.00041 -0.06400
C 	C 	0.64097 0.44143 0.99512 0.04100
C 	C 	0.63799 0.46436 0.96462 0.00700
C 	C 	0.66214 0.47261 0.93853 -0.00600
C 	C 	0.68920 0.45874 0.94404 -0.01800
H 	H 	0.67017 0.40990 0.02422 0.09100
H 	H 	0.62245 0.43472 0.01516 0.03700
H 	H 	0.65996 0.48969 0.91396 0.05700
H 	H 	0.70776 0.46540 0.92407 0.08200
C 	C 	0.58834 0.68159 0.98473 0.06100
C 	C 	0.60447 0.65873 0.00364 -0.05900
C 	C 	0.59623 0.62986 0.99600 0.04000
C 	C 	0.57223 0.62361 0.96844 0.01000
C 	C 	0.55689 0.64657 0.94800 -0.00600
C 	C 	0.56493 0.67541 0.95616 -0.01700
H 	H 	0.62297 0.66334 0.02500 0.09400
H 	H 	0.60825 0.61239 0.01196 0.03900
H 	H 	0.53888 0.64213 0.92566 0.05900
H 	H 	0.55280 0.69298 0.94063 0.08000
Zn	Zn	0.35829 0.14435 0.01763 1.22300
C 	C 	0.38897 0.19874 0.00885 0.31700
O 	O 	0.37037 0.14253 0.95512 -0.40500
O 	O 	0.41041 0.18353 0.99112 -0.38300
O 	O 	0.41311 0.11905 0.97030 -0.48300
C 	C 	0.39158 0.13859 0.09892 0.33200
O 	O 	0.36996 0.12806 0.07507 -0.45100
O 	O 	0.41277 0.15307 0.07961 -0.43500
C 	C 	0.39187 0.12541 0.94258 0.33300
O 	O 	0.33122 0.10113 0.00712 -0.29900
Zn	Zn	0.42388 0.14478 0.01891 1.18000
O 	O 	0.36713 0.18554 0.02896 -0.38000
C 	C 	0.30843 0.11807 0.00745 0.29600
O 	O 	0.31367 0.14543 0.01388 -0.31400
C 	C 	0.47723 0.00379 0.47713 0.01700
C 	C 	0.49781 0.98038 0.47706 0.01800
C 	C 	0.46736 0.01547 0.51758 -0.05100
C 	C 	0.47838 0.00466 0.55787 0.01800
C 	C 	0.50878 0.96953 0.51739 -0.05100
C 	C 	0.49978 0.98199 0.55772 0.01800
H 	H 	0.52352 0.95100 0.51749 0.05900
H 	H 	0.45136 0.03294 0.51768 0.05900
C 	C 	0.51015 0.97121 0.59875 -0.01300
C 	C 	0.50136 0.98370 0.63904 0.01500
C 	C 	0.52166 0.97913 0.67397 -0.05200
C 	C 	0.54665 0.96380 0.66053 0.01000
S 	S 	0.54275 0.95537 0.60693 0.01800
H 	H 	0.51853 0.98723 0.70738 0.05400
C 	C 	0.46994 0.01697 0.59891 -0.01300
C 	C 	0.48060 0.00599 0.63915 0.01400
C 	C 	0.46215 0.01217 0.67584 -0.05200
C 	C 	0.43671 0.02729 0.66391 0.01100
S 	S 	0.43797 0.03352 0.60926 0.01700
H 	H 	0.46691 0.00541 0.70951 0.05500
C 	C 	0.47806 0.00416 0.39571 0.01400
C 	C 	0.46659 0.01434 0.43606 -0.01200
S 	S 	0.45354 0.04790 0.42727 0.01600
C 	C 	0.46185 0.05050 0.37343 0.01100
C 	C 	0.47500 0.02438 0.36030 -0.05200
C 	C 	0.50626 0.96814 0.43598 -0.01300
C 	C 	0.49784 0.98084 0.39574 0.01400
C 	C 	0.51663 0.97353 0.35981 -0.05200
C 	C 	0.54006 0.95556 0.37238 0.01000
S 	S 	0.53674 0.94887 0.42667 0.01700
H 	H 	0.51220 0.97935 0.32565 0.05300
H 	H 	0.48121 0.01980 0.32634 0.05300
Zn	Zn	0.63810 0.85813 0.01615 1.22600
C 	C 	0.60721 0.80407 0.00617 0.31900
O 	O 	0.62564 0.86019 0.95384 -0.37400
O 	O 	0.58529 0.81934 0.99002 -0.39200
O 	O 	0.58320 0.88385 0.97032 -0.48300
C 	C 	0.60555 0.86382 0.09797 0.33000
O 	O 	0.62684 0.87458 0.07364 -0.45500
O 	O 	0.58435 0.84914 0.07913 -0.48500
C 	C 	0.60391 0.87718 0.94183 0.33100
O 	O 	0.66574 0.90093 0.00521 -0.29700
Zn	Zn	0.57251 0.85796 0.01888 1.17200
O 	O 	0.62860 0.81708 0.02754 -0.38400
C 	C 	0.68830 0.88368 0.00533 0.29100
O 	O 	0.68269 0.85640 0.01190 -0.29500
Zn	Zn	0.13944 0.64219 0.00407 1.22200
C 	C 	0.10841 0.69707 0.00558 0.31500
O 	O 	0.13042 0.62283 0.06095 -0.44800
O 	O 	0.08574 0.68290 0.98968 -0.37900
O 	O 	0.08846 0.64835 0.07304 -0.43400
C 	C 	0.10231 0.62707 0.93181 0.33300
O 	O 	0.12423 0.64375 0.94367 -0.41200
O 	O 	0.08288 0.61882 0.96130 -0.48600
C 	C 	0.11027 0.63267 0.08829 0.32900
O 	O 	0.16572 0.60033 0.98152 -0.28600
Zn	Zn	0.07414 0.64241 0.01327 1.17900
O 	O 	0.13141 0.68283 0.02059 -0.38000
C 	C 	0.18886 0.61615 0.98783 0.31000
O 	O 	0.18409 0.64226 0.00227 -0.32600
C 	C 	0.01198 0.50614 0.54624 0.01800
C 	C 	0.99002 0.48410 0.54622 0.01700
C 	C 	0.02232 0.51750 0.50586 -0.05100
C 	C 	0.01082 0.50736 0.46552 0.01800
C 	C 	0.97920 0.47333 0.50580 -0.05100
C 	C 	0.98909 0.48512 0.46548 0.01700
H 	H 	0.96380 0.45541 0.50571 0.05900
H 	H 	0.03899 0.53425 0.50584 0.05900
C 	C 	0.97904 0.47434 0.42428 -0.01200
C 	C 	0.98803 0.48678 0.38406 0.01500
C 	C 	0.96831 0.48161 0.34859 -0.05200
C 	C 	0.94359 0.46575 0.36153 0.01000
S 	S 	0.94693 0.45788 0.41553 0.01600
H 	H 	0.97171 0.48949 0.31512 0.05300
C 	C 	0.01907 0.51994 0.42460 -0.01300
C 	C 	0.00842 0.50934 0.38429 0.01400
C 	C 	0.02613 0.51692 0.34739 -0.05200
C 	C 	0.05100 0.53299 0.35924 0.01100
S 	S 	0.05016 0.53780 0.41427 0.01800
H 	H 	0.02090 0.51119 0.31347 0.05400
C 	C 	0.01061 0.50700 0.62754 0.01400
C 	C 	0.02319 0.51583 0.58739 -0.01300
S 	S 	0.03988 0.54763 0.59629 0.01700
C 	C 	0.03197 0.55113 0.65019 0.01000
C 	C 	0.01579 0.52668 0.66301 -0.05200
C 	C 	0.98003 0.47306 0.58735 -0.01300
C 	C 	0.98882 0.48563 0.62754 0.01400
C 	C 	0.96857 0.48116 0.66269 -0.05200
C 	C 	0.94371 0.46563 0.64959 0.00900
S 	S 	0.94756 0.45723 0.59596 0.01800
H 	H 	0.97257 0.48759 0.69668 0.05300
H 	H 	0.00976 0.52232 0.69711 0.05300
Zn	Zn	0.85693 0.35896 0.00476 1.22200
C 	C 	0.88843 0.30437 0.00317 0.31500
O 	O 	0.86685 0.37743 0.06190 -0.45100
O 	O 	0.91051 0.31900 0.98629 -0.37700
O 	O 	0.90948 0.35248 0.07079 -0.43200
C 	C 	0.89215 0.37594 0.93125 0.33300
O 	O 	0.87094 0.35853 0.94363 -0.41200
O 	O 	0.91243 0.38358 0.95973 -0.48500
C 	C 	0.88787 0.36769 0.08779 0.33100
O 	O 	0.83011 0.40107 0.98492 -0.28700
Zn	Zn	0.92235 0.35928 0.01044 1.17900
O 	O 	0.86553 0.31814 0.01948 -0.38000
C 	C 	0.80716 0.38505 0.99164 0.30800
O 	O 	0.81225 0.35871 0.00486 -0.32700
C 	C 	0.01812 0.97706 0.02566 0.01700
C 	C 	0.02881 0.00616 0.02539 0.01800
C 	C 	0.98776 0.97187 0.02603 -0.04900
C 	C 	0.96795 0.99534 0.02506 0.01800
C 	C 	0.00900 0.02964 0.02555 -0.04900
C 	C 	0.97864 0.02444 0.02487 0.01700
H 	H 	0.01710 0.05174 0.02777 0.06100
H 	H 	0.97964 0.94979 0.02862 0.06000
C 	C 	0.95823 0.04763 0.02593 -0.00800
C 	C 	0.92800 0.04262 0.02265 0.02100
C 	C 	0.91203 0.06711 0.00661 -0.07100
C 	C 	0.93009 0.09086 0.99645 0.04300
S 	S 	0.96464 0.08141 0.00806 -0.00200
H 	H 	0.88842 0.06764 0.00320 0.06700
C 	C 	0.93733 0.99076 0.02633 -0.00800
C 	C 	0.91749 0.01401 0.02294 0.02200
C 	C 	0.88927 0.00551 0.00777 -0.06900
C 	C 	0.88754 0.97572 0.99827 0.04200
S 	S 	0.92018 0.96068 0.00942 0.00100
H 	H 	0.87065 0.02011 0.00582 0.06900
C 	C 	0.06877 0.95885 0.02445 0.02100
C 	C 	0.03851 0.95388 0.02746 -0.00800
S 	S 	0.03221 0.91997 0.01013 -0.00200
C 	C 	0.06683 0.91046 0.99905 0.04300
C 	C 	0.08483 0.93427 0.00901 -0.07100
C 	C 	0.05943 0.01074 0.02699 -0.00800
C 	C 	0.07928 0.98746 0.02433 0.02100
C 	C 	0.10761 0.99584 0.00939 -0.06600
C 	C 	0.10942 0.02555 0.99934 0.03600
S 	S 	0.07672 0.04070 0.00974 0.00300
H 	H 	0.12624 0.98122 0.00802 0.06800
H 	H 	0.10845 0.93375 0.00570 0.06700
C 	C 	0.90321 0.18025 0.99625 0.08300
C 	C 	0.92563 0.17075 0.96782 -0.01900
C 	C 	0.93378 0.14140 0.96705 -0.01300
C 	C 	0.91992 0.12136 0.99523 0.03600
C 	C 	0.89743 0.13092 0.02369 -0.03000
C 	C 	0.88914 0.16023 0.02414 -0.03500
H 	H 	0.93697 0.18618 0.94676 0.09000
H 	H 	0.95113 0.13430 0.94497 0.06600
H 	H 	0.88691 0.11583 0.04624 0.06300
H 	H 	0.87212 0.16749 0.04668 0.08500
C 	C 	0.80465 0.93228 0.99978 0.08000
C 	C 	0.80981 0.95501 0.96972 -0.01600
C 	C 	0.83716 0.96863 0.96845 -0.01400
C 	C 	0.85967 0.95949 0.99701 0.03800
C 	C 	0.85482 0.93593 0.02590 -0.02800
C 	C 	0.82750 0.92218 0.02685 -0.03100
H 	H 	0.79242 0.96253 0.94805 0.08500
H 	H 	0.84074 0.98654 0.94570 0.06600
H 	H 	0.87189 0.92874 0.04835 0.06400
H 	H 	0.82386 0.90421 0.04947 0.08800
C 	C 	0.19238 0.06882 0.00110 0.00200
C 	C 	0.18738 0.04588 0.97142 0.03100
C 	C 	0.16000 0.03233 0.97003 -0.03700
C 	C 	0.13731 0.04174 0.99809 0.05500
C 	C 	0.14203 0.06550 0.02660 -0.05100
C 	C 	0.16937 0.07918 0.02767 0.01500
H 	H 	0.20489 0.03816 0.95013 0.07400
H 	H 	0.15653 0.01426 0.94757 0.07200
H 	H 	0.12482 0.07290 0.04867 0.07000
H 	H 	0.17290 0.09732 0.04997 0.07700
C 	C 	0.09398 0.82113 0.99941 0.08300
C 	C 	0.07116 0.83039 0.97157 -0.01900
C 	C 	0.06288 0.85970 0.97066 -0.01300
C 	C 	0.07698 0.87993 0.99818 0.03600
C 	C 	0.09981 0.87060 0.02614 -0.03100
C 	C 	0.10827 0.84133 0.02668 -0.03600
H 	H 	0.05964 0.81482 0.95104 0.09000
H 	H 	0.04527 0.86663 0.94894 0.06600
H 	H 	0.11051 0.88582 0.04821 0.06200
H 	H 	0.12560 0.83425 0.04878 0.08400
C 	C 	0.87621 0.25657 0.97027 0.08900
C 	C 	0.88957 0.27241 0.00440 -0.02200
C 	C 	0.90512 0.25767 0.03827 -0.07800
C 	C 	0.90919 0.22740 0.03504 0.02000
C 	C 	0.89660 0.21163 0.00015 0.03500
C 	C 	0.87872 0.22605 0.96859 -0.10400
C 	C 	0.86332 0.20914 0.93218 0.78400
H 	H 	0.86425 0.26814 0.94465 0.09000
H 	H 	0.92252 0.21603 0.05928 0.08300
C 	C 	0.91788 0.27427 0.07727 0.77500
F 	F 	0.84284 0.22619 0.91029 -0.41500
F 	F 	0.84876 0.18546 0.94996 -0.42500
F 	F 	0.88371 0.19947 0.90156 -0.43500
F 	F 	0.89629 0.29102 0.09707 -0.43600
F 	F 	0.94019 0.29220 0.06262 -0.46900
F 	F 	0.92920 0.25571 0.10920 -0.43600
C 	C 	0.90388 0.42171 0.75628 0.06200
N 	N 	0.92528 0.40837 0.73208 -0.09800
C 	C 	0.93658 0.42094 0.69491 0.03000
C 	C 	0.92635 0.44825 0.68085 -0.00400
C 	C 	0.90275 0.46107 0.70312 -0.01300
C 	C 	0.89128 0.44770 0.74082 -0.05100
H 	H 	0.95465 0.41052 0.67776 0.04800
H 	H 	0.89437 0.48208 0.69266 0.05000
H 	H 	0.87378 0.45818 0.75921 0.06300
C 	C 	0.89212 0.38859 0.88646 -0.10000
C 	C 	0.89802 0.41820 0.88052 0.05000
C 	C 	0.90049 0.42950 0.83783 -0.07600
C 	C 	0.89713 0.41102 0.80115 0.08000
N 	N 	0.89089 0.38230 0.80755 -0.10100
C 	C 	0.88793 0.37092 0.84908 0.09200
H 	H 	0.90113 0.43232 0.90891 0.04100
H 	H 	0.90599 0.45224 0.83324 0.06300
H 	H 	0.88329 0.34795 0.85303 0.06200
C 	C 	0.90271 0.41686 0.26006 0.06000
N 	N 	0.91747 0.40317 0.29345 -0.09500
C 	C 	0.92891 0.41826 0.32823 0.03100
C 	C 	0.92598 0.44864 0.33014 -0.00400
C 	C 	0.90968 0.46290 0.29739 -0.01300
C 	C 	0.89805 0.44706 0.26217 -0.05200
H 	H 	0.94153 0.40680 0.35318 0.04900
H 	H 	0.90722 0.48636 0.29810 0.04800
H 	H 	0.88694 0.45839 0.23548 0.05700
C 	C 	0.88911 0.37683 0.13485 -0.09500
C 	C 	0.86661 0.39380 0.15334 0.04500
C 	C 	0.87010 0.40568 0.19558 -0.07400
C 	C 	0.89630 0.40081 0.21886 0.07800
N 	N 	0.91698 0.38257 0.20169 -0.10600
C 	C 	0.91391 0.37048 0.16077 0.08100
H 	H 	0.84679 0.39832 0.13476 0.05600
H 	H 	0.85292 0.41913 0.20966 0.07100
H 	H 	0.93115 0.35660 0.14792 0.06400
C 	C 	0.12031 0.74482 0.97218 0.08900
C 	C 	0.10784 0.72902 0.00717 -0.02300
C 	C 	0.09345 0.74383 0.04213 -0.07900
C 	C 	0.08935 0.77410 0.03908 0.01900
C 	C 	0.10093 0.78981 0.00328 0.03500
C 	C 	0.11796 0.77535 0.97070 -0.10500
C 	C 	0.13255 0.79221 0.93342 0.78400
H 	H 	0.13142 0.73321 0.94572 0.08900
H 	H 	0.07672 0.78549 0.06414 0.08200
C 	C 	0.08192 0.72728 0.08210 0.77500
F 	F 	0.15286 0.77523 0.91103 -0.41500
F 	F 	0.14714 0.81617 0.95019 -0.42500
F 	F 	0.11155 0.80144 0.90348 -0.43600
F 	F 	0.10402 0.71028 0.10003 -0.44300
F 	F 	0.05895 0.70960 0.06929 -0.47000
F 	F 	0.07196 0.74590 0.11496 -0.44000
C 	C 	0.08892 0.59854 0.79964 0.08000
N 	N 	0.09446 0.62711 0.80847 -0.10200
C 	C 	0.10040 0.63642 0.85042 0.09100
C 	C 	0.10005 0.61667 0.88590 -0.10000
C 	C 	0.09508 0.58718 0.87735 0.05100
C 	C 	0.08961 0.57802 0.83412 -0.07500
H 	H 	0.10427 0.65934 0.85642 0.05900
H 	H 	0.09486 0.57151 0.90423 0.04200
H 	H 	0.08478 0.55533 0.82767 0.06400
C 	C 	0.05072 0.56706 0.68133 -0.00500
C 	C 	0.07696 0.55461 0.69626 -0.01300
C 	C 	0.09093 0.56617 0.73338 -0.05100
C 	C 	0.07836 0.59002 0.75545 0.06200
N 	N 	0.05401 0.60312 0.73840 -0.09800
C 	C 	0.04011 0.59224 0.70209 0.03000
H 	H 	0.08563 0.53519 0.68058 0.05000
H 	H 	0.11060 0.55588 0.74614 0.06400
H 	H 	0.02001 0.60234 0.69065 0.04800
C 	C 	0.09866 0.60036 0.21869 0.07500
N 	N 	0.11078 0.58324 0.18659 -0.10600
C 	C 	0.11658 0.59379 0.14529 0.07500
C 	C 	0.10982 0.62279 0.13474 -0.09600
C 	C 	0.09934 0.64123 0.16817 0.04400
C 	C 	0.09409 0.63012 0.21047 -0.06900
H 	H 	0.12514 0.57928 0.12010 0.04400
H 	H 	0.09456 0.66388 0.16111 0.09100
H 	H 	0.08569 0.64428 0.23626 0.07200
C 	C 	0.06485 0.55382 0.32886 -0.00500
C 	C 	0.04857 0.57691 0.31121 -0.01300
C 	C 	0.06015 0.59342 0.27665 -0.05300
C 	C 	0.08824 0.58688 0.26022 0.06100
N 	N 	0.10422 0.56505 0.27918 -0.09600
C 	C 	0.09327 0.54871 0.31306 0.03100
H 	H 	0.02653 0.58125 0.32298 0.04700
H 	H 	0.04684 0.61018 0.26130 0.05700
H 	H 	0.10624 0.53101 0.32652 0.05000
C 	C 	0.76755 0.89713 0.97273 0.03500
C 	C 	0.77522 0.91908 0.00283 0.03700
C 	C 	0.75448 0.92906 0.03437 -0.12100
C 	C 	0.72640 0.91648 0.03530 0.06700
C 	C 	0.71849 0.89502 0.00452 -0.01400
C 	C 	0.73899 0.88561 0.97219 -0.06000
C 	C 	0.73068 0.86305 0.93756 0.77400
H 	H 	0.78381 0.88940 0.94928 0.08900
H 	H 	0.71052 0.92342 0.05989 0.08300
C 	C 	0.76234 0.95286 0.06729 0.78500
F 	F 	0.75175 0.86077 0.90465 -0.42100
F 	F 	0.70448 0.87062 0.91742 -0.41600
F 	F 	0.72774 0.83614 0.95762 -0.39100
F 	F 	0.77152 0.97750 0.04490 -0.44500
F 	F 	0.78461 0.94326 0.09479 -0.44100
F 	F 	0.73867 0.96059 0.09360 -0.43400
C 	C 	0.58900 0.92171 0.76676 0.06400
N 	N 	0.56780 0.90763 0.74333 -0.09700
C 	C 	0.55570 0.91964 0.70628 0.03000
C 	C 	0.56488 0.94710 0.69155 -0.00400
C 	C 	0.58828 0.96072 0.71300 -0.01200
C 	C 	0.60057 0.94793 0.75060 -0.05100
H 	H 	0.53780 0.90862 0.68978 0.04800
H 	H 	0.59585 0.98187 0.70201 0.05100
H 	H 	0.61788 0.95902 0.76840 0.06500
C 	C 	0.60325 0.88969 0.89698 -0.08900
C 	C 	0.59591 0.91900 0.89089 0.04600
C 	C 	0.59262 0.93000 0.84814 -0.07300
C 	C 	0.59658 0.91151 0.81158 0.08000
N 	N 	0.60422 0.88312 0.81812 -0.09700
C 	C 	0.60801 0.87205 0.85969 0.08900
H 	H 	0.59231 0.93309 0.91921 0.04300
H 	H 	0.58604 0.95247 0.84342 0.06300
H 	H 	0.61374 0.84931 0.86376 0.09200
C 	C 	0.57824 0.90338 0.27197 0.05900
N 	N 	0.59464 0.92324 0.29454 -0.09600
C 	C 	0.58325 0.93884 0.32893 0.03000
C 	C 	0.55397 0.93502 0.34152 -0.00500
C 	C 	0.53716 0.91380 0.32021 -0.01400
C 	C 	0.54920 0.89801 0.28518 -0.05200
H 	H 	0.59663 0.95505 0.34528 0.05000
H 	H 	0.51446 0.91045 0.32948 0.04700
H 	H 	0.53563 0.88283 0.26701 0.05400
C 	C 	0.60314 0.87183 0.14513 -0.11200
C 	C 	0.59028 0.85263 0.17550 0.04700
C 	C 	0.58373 0.86219 0.21827 -0.07700
C 	C 	0.58952 0.89119 0.23003 0.07600
N 	N 	0.60382 0.90892 0.20097 -0.10800
C 	C 	0.61083 0.89987 0.15929 0.07900
H 	H 	0.58478 0.83062 0.16570 0.05100
H 	H 	0.57352 0.84746 0.24169 0.06900
H 	H 	0.62122 0.91492 0.13655 0.04400
C 	C 	0.22969 0.10359 0.97345 0.01800
C 	C 	0.22179 0.08206 0.00416 0.07500
C 	C 	0.24230 0.07252 0.03633 -0.13600
C 	C 	0.27030 0.08526 0.03744 0.07500
C 	C 	0.27840 0.10637 0.00618 -0.02200
C 	C 	0.25821 0.11519 0.97306 -0.05300
C 	C 	0.26683 0.13718 0.93771 0.77200
H 	H 	0.21363 0.11096 0.94943 0.09400
H 	H 	0.28597 0.07874 0.06259 0.07900
C 	C 	0.23425 0.04908 0.06980 0.79100
F 	F 	0.24614 0.13880 0.90421 -0.42400
F 	F 	0.29330 0.12941 0.91855 -0.42900
F 	F 	0.26941 0.16445 0.95672 -0.40800
F 	F 	0.22510 0.02423 0.04798 -0.44500
F 	F 	0.21189 0.05901 0.09688 -0.44200
F 	F 	0.25779 0.04155 0.09646 -0.43600
C 	C 	0.40000 0.07506 0.76971 0.06100
N 	N 	0.39202 0.04690 0.76242 -0.09500
C 	C 	0.40144 0.03200 0.72609 0.03100
C 	C 	0.42016 0.04534 0.69540 -0.00400
C 	C 	0.42705 0.07480 0.70070 -0.01200
C 	C 	0.41693 0.08978 0.73795 -0.05100
H 	H 	0.39569 0.00927 0.72232 0.05000
H 	H 	0.44163 0.08554 0.67753 0.04900
H 	H 	0.42372 0.11207 0.74351 0.05900
C 	C 	0.39156 0.11219 0.89812 -0.09800
C 	C 	0.38216 0.12821 0.86121 0.05700
C 	C 	0.38419 0.11600 0.81891 -0.07000
C 	C 	0.39559 0.08777 0.81400 0.08000
N 	N 	0.40352 0.07216 0.85052 -0.10900
C 	C 	0.40186 0.08369 0.89198 0.08400
H 	H 	0.37395 0.15022 0.86513 0.06800
H 	H 	0.37728 0.12843 0.79019 0.07700
H 	H 	0.40867 0.07073 0.92019 0.04100
C 	C 	0.40791 0.11213 0.23155 0.07600
N 	N 	0.41777 0.13829 0.21635 -0.10200
C 	C 	0.41109 0.14804 0.17491 0.08100
C 	C 	0.39411 0.13089 0.14629 -0.09600
C 	C 	0.38236 0.10474 0.16220 0.04000
C 	C 	0.38934 0.09524 0.20485 -0.07300
H 	H 	0.41975 0.16872 0.16372 0.08600
H 	H 	0.36908 0.09112 0.14091 0.05000
H 	H 	0.38170 0.07419 0.21614 0.06500
C 	C 	0.44701 0.07026 0.34229 -0.00500
C 	C 	0.41645 0.06988 0.33802 -0.01200
C 	C 	0.40319 0.08483 0.30304 -0.05200
C 	C 	0.42075 0.09969 0.27221 0.06100
N 	N 	0.45029 0.10109 0.27844 -0.09900
C 	C 	0.46362 0.08680 0.31247 0.02900
H 	H 	0.40314 0.05720 0.36065 0.05000
H 	H 	0.37959 0.08423 0.29921 0.06200
H 	H 	0.48727 0.08751 0.31549 0.04600
C 	C 	0.37636 0.24486 0.97094 0.10700
C 	C 	0.38974 0.23068 0.00679 -0.03700
C 	C 	0.40578 0.24690 0.03836 -0.06100
C 	C 	0.41062 0.27671 0.03083 -0.02400
C 	C 	0.39833 0.29067 0.99388 0.11000
C 	C 	0.37964 0.27506 0.96496 -0.14400
C 	C 	0.36434 0.29021 0.92660 0.79500
H 	H 	0.36398 0.23220 0.94713 0.08400
H 	H 	0.42451 0.28901 0.05310 0.09300
C 	C 	0.41867 0.23222 0.07909 0.76900
F 	F 	0.34282 0.27279 0.90817 -0.41800
F 	F 	0.38459 0.29681 0.89399 -0.44000
F 	F 	0.35106 0.31561 0.94101 -0.42900
F 	F 	0.44103 0.21361 0.06640 -0.47000
F 	F 	0.39721 0.21649 0.10089 -0.43800
F 	F 	0.42995 0.25229 0.10874 -0.43600
C 	C 	0.26757 0.60312 0.95207 0.00000
C 	C 	0.27491 0.57892 0.97818 0.10900
C 	C 	0.25414 0.56725 0.00823 -0.15100
C 	C 	0.22613 0.57999 0.01100 0.05600
C 	C 	0.21862 0.60389 0.98436 0.01300
C 	C 	0.23927 0.61532 0.95390 -0.06900
C 	C 	0.23134 0.64069 0.92378 0.77400
H 	H 	0.28387 0.61212 0.92983 0.09600
H 	H 	0.21002 0.57137 0.03391 0.08200
C 	C 	0.26180 0.54119 0.03714 0.79300
F 	F 	0.25257 0.64537 0.89171 -0.42400
F 	F 	0.22856 0.66577 0.94878 -0.40900
F 	F 	0.20515 0.63523 0.90221 -0.42900
F 	F 	0.28572 0.54768 0.06346 -0.44300
F 	F 	0.26846 0.51748 0.01069 -0.44700
F 	F 	0.23883 0.53346 0.06476 -0.43500
C 	C 	0.72872 0.39869 0.95517 0.00800
C 	C 	0.72118 0.42242 0.98211 0.09200
C 	C 	0.74157 0.43328 0.01337 -0.14500
C 	C 	0.76948 0.42034 0.01632 0.05200
C 	C 	0.77726 0.39704 0.98868 0.01500
C 	C 	0.75692 0.38627 0.95727 -0.07300
C 	C 	0.76512 0.36145 0.92628 0.77500
H 	H 	0.71269 0.39028 0.93202 0.09300
H 	H 	0.78535 0.42844 0.04001 0.07900
C 	C 	0.73364 0.45875 0.04329 0.79100
F 	F 	0.74400 0.35708 0.89401 -0.42500
F 	F 	0.76807 0.33600 0.95041 -0.41000
F 	F 	0.79131 0.36749 0.90500 -0.43100
F 	F 	0.70926 0.45187 0.06845 -0.44400
F 	F 	0.72757 0.48307 0.01781 -0.44900
F 	F 	0.75622 0.46568 0.07206 -0.43800
C 	C 	0.61502 0.72674 0.96490 -0.00800
C 	C 	0.59622 0.71212 0.99419 0.10500
C 	C 	0.58349 0.72724 0.03035 -0.16100
C 	C 	0.58855 0.75729 0.03482 0.08800
C 	C 	0.60616 0.77216 0.00426 -0.04300
C 	C 	0.62036 0.75673 0.96977 -0.04000
C 	C 	0.64013 0.77247 0.93711 0.76700
H 	H 	0.62479 0.71483 0.93760 0.09800
H 	H 	0.57811 0.76940 0.06134 0.06400
C 	C 	0.56389 0.71156 0.06337 0.79600
F 	F 	0.65373 0.75337 0.90809 -0.41700
F 	F 	0.66175 0.78739 0.95980 -0.40000
F 	F 	0.62373 0.79206 0.91255 -0.43000
F 	F 	0.57896 0.68855 0.08231 -0.44300
F 	F 	0.53928 0.70108 0.04196 -0.45000
F 	F 	0.55471 0.72979 0.09724 -0.44000
