data_crystal

_cell_length_a 39.95976
_cell_length_b 37.78520
_cell_length_c 30.60508
_cell_angle_alpha 89.94810
_cell_angle_beta  89.94289
_cell_angle_gamma 90.59694

_symmetry_space_group_name_	'P 1'
_symmetry_space_group_name_H-M	'P 1'

loop_
_symmetry_equiv_pos_as_xyz
  x,y,z

loop_
_atom_site_label
_atom_site_type_symbol
_atom_site_fract_x
_atom_site_fract_y
_atom_site_fract_z
_atom_site_charge
Zn	Zn	0.47714 0.49510 0.00232 1.22400
C 	C 	0.49631 0.56800 0.98793 0.33900
O 	O 	0.50536 0.48348 0.05247 -0.47600
O 	O 	0.47215 0.57449 0.01577 -0.45700
O 	O 	0.51761 0.53836 0.07694 -0.49100
C 	C 	0.41372 0.52123 0.02740 0.34100
O 	O 	0.43302 0.51495 0.99366 -0.44400
O 	O 	0.42681 0.52492 0.06653 -0.50500
C 	C 	0.52740 0.50651 0.06665 0.33800
O 	O 	0.44933 0.44061 0.01091 -0.32900
Zn	Zn	0.46991 0.54903 0.07523 1.17100
O 	O 	0.50375 0.53506 0.97810 -0.42900
C 	C 	0.46664 0.43003 0.97768 0.29800
O 	O 	0.48646 0.45371 0.96069 -0.38000
Zn	Zn	0.42325 0.08330 0.01272 1.22300
C 	C 	0.44734 0.07025 0.10089 0.35300
O 	O 	0.37442 0.07445 0.01157 -0.45400
O 	O 	0.43905 0.10257 0.11173 -0.45600
O 	O 	0.37059 0.07844 0.08535 -0.49500
C 	C 	0.43934 0.15606 0.02951 0.34500
O 	O 	0.45227 0.12495 0.02100 -0.45100
O 	O 	0.41067 0.15838 0.05012 -0.51400
C 	C 	0.35707 0.07022 0.04772 0.33300
O 	O 	0.42317 0.09816 0.93714 -0.31300
Zn	Zn	0.39433 0.12304 0.09087 1.17300
O 	O 	0.43521 0.05592 0.06511 -0.42900
C 	C 	0.43699 0.06745 0.93210 0.26400
O 	O 	0.44192 0.04978 0.96759 -0.37500
C 	C 	0.55134 0.96335 0.28005 0.13100
C 	C 	0.53011 0.98531 0.25599 -0.08700
H 	H 	0.51427 0.00401 0.27284 0.06100
C 	C 	0.52930 0.98305 0.21032 0.03000
C 	C 	0.54966 0.95865 0.18870 -0.06500
C 	C 	0.57106 0.93676 0.21263 0.02400
C 	C 	0.57190 0.93916 0.25835 -0.09000
H 	H 	0.58853 0.92244 0.27699 0.06600
N 	N 	0.55200 0.96567 0.32691 -0.18000
C 	C 	0.53229 0.94315 0.35120 0.19700
C 	C 	0.53152 0.94602 0.39707 -0.08000
C 	C 	0.55180 0.97154 0.41779 0.05800
C 	C 	0.57105 0.99509 0.39233 -0.07500
C 	C 	0.57136 0.99125 0.34656 0.19900
C 	C 	0.50966 0.92494 0.42213 0.00900
C 	C 	0.50870 0.92846 0.46748 -0.05700
C 	C 	0.53166 0.95109 0.48922 0.01400
C 	C 	0.55201 0.97425 0.46398 -0.02300
C 	C 	0.57137 0.00114 0.48441 0.01000
C 	C 	0.58836 0.02307 0.41262 0.00300
C 	C 	0.58730 0.02702 0.45791 -0.05500
C 	C 	0.53347 0.95238 0.53562 0.01600
C 	C 	0.55263 0.97940 0.55607 -0.02700
C 	C 	0.57294 0.00262 0.53085 0.01400
O 	O 	0.59031 0.01237 0.32247 -0.20800
O 	O 	0.51385 0.91884 0.33149 -0.20400
H 	H 	0.60161 0.04273 0.39326 0.04400
H 	H 	0.59728 0.05117 0.47178 0.04400
H 	H 	0.49242 0.90664 0.40647 0.04200
H 	H 	0.48888 0.91502 0.48509 0.04500
C 	C 	0.59556 0.02559 0.55271 -0.05900
C 	C 	0.59417 0.02941 0.59801 0.01100
C 	C 	0.57238 0.00817 0.62298 -0.08500
C 	C 	0.55266 0.98218 0.60225 0.06600
C 	C 	0.51792 0.92622 0.56204 -0.05800
C 	C 	0.51692 0.93001 0.60735 0.01100
C 	C 	0.53378 0.95829 0.62768 -0.08200
C 	C 	0.57112 0.01138 0.66880 0.19500
N 	N 	0.55177 0.98848 0.69306 -0.18100
C 	C 	0.53331 0.96216 0.67343 0.19900
C 	C 	0.55175 0.99133 0.73988 0.14900
C 	C 	0.57661 0.97452 0.76440 -0.10000
C 	C 	0.57602 0.97619 0.81016 0.04000
C 	C 	0.55051 0.99482 0.83131 -0.08300
C 	C 	0.52556 0.01157 0.80688 0.08800
C 	C 	0.52630 0.00996 0.76115 -0.11900
O 	O 	0.58858 0.03650 0.68847 -0.20100
O 	O 	0.51513 0.94032 0.69755 -0.20300
H 	H 	0.59615 0.96001 0.74786 0.07000
H 	H 	0.50692 0.02262 0.74215 0.07500
H 	H 	0.61544 0.03908 0.53528 0.04500
H 	H 	0.61108 0.04801 0.61374 0.04300
H 	H 	0.50816 0.90200 0.54806 0.04600
H 	H 	0.50396 0.91012 0.62669 0.04300
H 	H 	0.54970 0.99573 0.86672 0.06700
H 	H 	0.54921 0.95708 0.15332 0.05700
Zn	Zn	0.67473 0.87078 0.00382 1.22200
C 	C 	0.65488 0.86304 0.09430 0.35900
O 	O 	0.72322 0.88127 0.00355 -0.46000
O 	O 	0.66434 0.82986 0.09306 -0.45500
O 	O 	0.73206 0.85886 0.07156 -0.49100
C 	C 	0.65674 0.79733 0.99788 0.35200
O 	O 	0.64482 0.82948 0.00068 -0.45700
O 	O 	0.68739 0.79093 0.01049 -0.51600
C 	C 	0.74085 0.88021 0.03971 0.33700
O 	O 	0.67320 0.87223 0.92628 -0.32800
Zn	Zn	0.70723 0.81558 0.05993 1.17200
O 	O 	0.66472 0.88535 0.06388 -0.43300
C 	C 	0.65892 0.90267 0.93156 0.31500
O 	O 	0.65454 0.91232 0.97165 -0.37300
Zn	Zn	0.09121 0.62367 0.97988 1.22300
C 	C 	0.08317 0.60634 0.07153 0.30600
O 	O 	0.08010 0.67407 0.97135 -0.45300
O 	O 	0.11298 0.61954 0.07991 -0.44500
O 	O 	0.08566 0.68659 0.04349 -0.49500
C 	C 	0.16047 0.61163 0.99840 0.34900
O 	O 	0.13154 0.59589 0.99113 -0.44900
O 	O 	0.16166 0.64508 0.00948 -0.51900
C 	C 	0.07462 0.69511 0.00465 0.32600
O 	O 	0.10291 0.61808 0.90399 -0.31300
Zn	Zn	0.12923 0.66520 0.04917 1.17200
O 	O 	0.06765 0.61493 0.03531 -0.43500
C 	C 	0.07482 0.60051 0.90295 0.26300
O 	O 	0.05929 0.59750 0.93980 -0.37900
C 	C 	0.97454 0.51287 0.70317 0.14300
C 	C 	0.99786 0.53287 0.72718 -0.11000
H 	H 	0.01786 0.54693 0.71039 0.07600
C 	C 	0.99507 0.53498 0.77276 0.09100
C 	C 	0.96905 0.51685 0.79430 -0.09000
C 	C 	0.94561 0.49698 0.77037 0.03700
C 	C 	0.94848 0.49489 0.72479 -0.09900
H 	H 	0.93041 0.47959 0.70611 0.06800
N 	N 	0.97689 0.51140 0.65634 -0.18200
C 	C 	0.99658 0.48629 0.63711 0.19900
C 	C 	0.99787 0.48335 0.59125 -0.07900
C 	C 	0.97821 0.50582 0.56550 0.06100
C 	C 	0.95964 0.53264 0.58566 -0.08000
C 	C 	0.95910 0.53489 0.63157 0.19800
C 	C 	0.01935 0.45923 0.57095 0.00800
C 	C 	0.02034 0.45658 0.52550 -0.06000
C 	C 	0.99773 0.47588 0.49933 0.01700
C 	C 	0.97781 0.50207 0.51944 -0.02900
C 	C 	0.95862 0.52554 0.49376 0.01600
C 	C 	0.94288 0.55748 0.55979 0.01000
C 	C 	0.94348 0.55483 0.51434 -0.05800
C 	C 	0.99584 0.47088 0.45328 0.01700
C 	C 	0.97659 0.49434 0.42766 -0.02900
C 	C 	0.95646 0.52028 0.44784 0.01600
O 	O 	0.94116 0.55946 0.65087 -0.19900
O 	O 	0.01406 0.46456 0.66166 -0.20500
H 	H 	0.93021 0.57961 0.57473 0.04400
H 	H 	0.93369 0.57654 0.49545 0.04600
H 	H 	0.03622 0.44331 0.59024 0.04300
H 	H 	0.03991 0.44099 0.51096 0.04600
C 	C 	0.93345 0.53919 0.42186 -0.05800
C 	C 	0.93440 0.53665 0.37640 0.01000
C 	C 	0.95638 0.51312 0.35596 -0.08200
C 	C 	0.97638 0.49089 0.38157 0.06100
C 	C 	0.01145 0.44197 0.43243 -0.06000
C 	C 	0.01247 0.43982 0.38692 0.00800
C 	C 	0.99555 0.46466 0.36122 -0.07900
C 	C 	0.95798 0.51067 0.31012 0.19800
N 	N 	0.97857 0.48648 0.29068 -0.18200
C 	C 	0.99658 0.46304 0.31525 0.19900
C 	C 	0.98190 0.48633 0.24393 0.14500
C 	C 	0.95941 0.46654 0.21832 -0.09900
C 	C 	0.96061 0.46906 0.17264 0.03700
C 	C 	0.98479 0.49076 0.15263 -0.08600
C 	C 	0.00691 0.51101 0.17810 0.08800
C 	C 	0.00577 0.50838 0.22374 -0.11700
O 	O 	0.94002 0.53208 0.28573 -0.20500
O 	O 	0.01530 0.43924 0.29574 -0.20300
H 	H 	0.94034 0.45031 0.23398 0.07000
H 	H 	0.02245 0.52445 0.24359 0.07200
H 	H 	0.91368 0.55441 0.43657 0.04500
H 	H 	0.91722 0.55229 0.35722 0.04200
H 	H 	0.02126 0.42014 0.45107 0.04500
H 	H 	0.02554 0.41804 0.37180 0.04300
H 	H 	0.98532 0.49322 0.11732 0.06500
H 	H 	0.96703 0.51828 0.82960 0.06100
Zn	Zn	0.84224 0.40747 0.96670 1.22300
C 	C 	0.84722 0.42463 0.87529 0.35700
O 	O 	0.79642 0.41592 0.98761 -0.46300
O 	O 	0.83268 0.39454 0.86452 -0.44600
O 	O 	0.77358 0.41488 0.91970 -0.49300
C 	C 	0.85446 0.33718 0.93622 0.34800
O 	O 	0.86804 0.36845 0.94292 -0.44600
O 	O 	0.82216 0.33394 0.92947 -0.50800
C 	C 	0.77212 0.42425 0.96086 0.33600
O 	O 	0.85735 0.38644 0.03701 -0.32500
Zn	Zn	0.79601 0.37152 0.90296 1.17200
O 	O 	0.84291 0.43785 0.91457 -0.44500
C 	C 	0.87313 0.41651 0.04046 0.32100
O 	O 	0.87105 0.43741 0.00713 -0.39000
Zn	Zn	0.02023 0.04639 0.03335 1.22100
C 	C 	0.03744 0.97262 0.03063 0.33500
O 	O 	0.98467 0.04614 0.07777 -0.47200
O 	O 	0.05828 0.98058 0.06247 -0.45100
O 	O 	0.99834 0.99633 0.11443 -0.49100
C 	C 	0.08696 0.05597 0.06418 0.34900
O 	O 	0.06869 0.05035 0.02932 -0.45100
O 	O 	0.07373 0.05184 0.10307 -0.51300
C 	C 	0.97560 0.01665 0.09714 0.33900
O 	O 	0.01972 0.10856 0.03296 -0.32800
Zn	Zn	0.04490 0.01117 0.11536 1.16900
O 	O 	0.01678 0.99649 0.01517 -0.43100
C 	C 	0.00354 0.10563 0.99645 0.29500
O 	O 	0.99818 0.07347 0.98329 -0.37700
C 	C 	0.89753 0.20998 0.94644 -0.02800
H 	H 	0.87110 0.20247 0.93970 0.03800
C 	C 	0.91143 0.24803 0.94836 -0.00600
C 	C 	0.89132 0.27991 0.94286 0.05700
C 	C 	0.91700 0.20133 0.98878 -0.02600
H 	H 	0.90695 0.18607 0.01699 0.03800
C 	C 	0.93060 0.23978 0.99057 -0.02200
H 	H 	0.93142 0.25677 0.02014 0.04100
C 	C 	0.92822 0.19911 0.91862 -0.03000
H 	H 	0.92744 0.18205 0.88911 0.04000
C 	C 	0.94736 0.19096 0.96089 0.00100
C 	C 	0.96739 0.15960 0.97020 0.04300
C 	C 	0.96123 0.22901 0.96280 -0.02800
H 	H 	0.98765 0.23656 0.96958 0.04400
C 	C 	0.94177 0.23773 0.92040 -0.02600
H 	H 	0.95178 0.25306 0.89223 0.04200
C 	C 	0.98390 0.13446 0.98060 -0.08700
C 	C 	0.87461 0.30612 0.93943 -0.11300
C 	C 	0.91817 0.47824 0.79321 0.05600
C 	C 	0.89393 0.49745 0.81600 -0.09300
C 	C 	0.86991 0.47979 0.84137 0.06200
C 	C 	0.86985 0.44270 0.84418 -0.17200
C 	C 	0.89346 0.42330 0.81997 0.22300
C 	C 	0.91753 0.44115 0.79468 -0.14800
H 	H 	0.85171 0.49497 0.85950 0.02800
H 	H 	0.93627 0.42618 0.77722 0.08300
H 	H 	0.89412 0.52611 0.81476 0.05900
O 	O 	0.89449 0.38711 0.82331 -0.29200
H 	H 	0.88046 0.37813 0.79892 0.15000
C 	C 	0.93421 0.45253 0.14583 0.05400
C 	C 	0.90731 0.47297 0.13142 -0.09000
C 	C 	0.88614 0.46025 0.09861 0.05600
C 	C 	0.89145 0.42680 0.08018 -0.15600
C 	C 	0.91692 0.40514 0.09690 0.21800
C 	C 	0.93839 0.41821 0.12947 -0.14400
H 	H 	0.86628 0.47689 0.08644 0.02700
H 	H 	0.95907 0.40224 0.14064 0.08300
H 	H 	0.90379 0.49942 0.14417 0.05800
O 	O 	0.92242 0.37235 0.07926 -0.29200
H 	H 	0.90888 0.35571 0.09727 0.15600
C 	C 	0.06488 0.84697 0.02642 -0.03800
H 	H 	0.08181 0.85839 0.05160 0.03300
C 	C 	0.03984 0.86787 0.99867 0.00600
C 	C 	0.03673 0.90604 0.00542 0.04200
C 	C 	0.07626 0.82721 0.98494 -0.02500
H 	H 	0.10261 0.82171 0.97587 0.03200
C 	C 	0.05115 0.84859 0.95710 -0.03200
H 	H 	0.05668 0.86136 0.92518 0.04100
C 	C 	0.03762 0.81854 0.03481 -0.02800
H 	H 	0.03213 0.80592 0.06685 0.03200
C 	C 	0.04892 0.79912 0.99336 -0.00700
C 	C 	0.05588 0.76116 0.99374 0.04800
C 	C 	0.02380 0.81978 0.96545 -0.02300
H 	H 	0.00696 0.80813 0.94035 0.03800
C 	C 	0.01244 0.83985 0.00712 -0.03800
H 	H 	0.98613 0.84544 0.01629 0.03900
C 	C 	0.06350 0.73054 0.99722 -0.12300
C 	C 	0.03610 0.93694 0.01489 -0.11100
C 	C 	0.05907 0.58942 0.86190 -0.02600
C 	C 	0.07058 0.55927 0.84012 -0.02700
C 	C 	0.05061 0.54282 0.80839 -0.00700
C 	C 	0.01906 0.55651 0.79818 -0.07600
C 	C 	0.00880 0.58845 0.81735 0.16100
C 	C 	0.02888 0.60486 0.84900 -0.08200
H 	H 	0.05889 0.51845 0.79342 0.03900
H 	H 	0.02018 0.62859 0.86511 0.07100
H 	H 	0.09404 0.54737 0.84959 0.04700
O 	O 	0.97896 0.60337 0.80559 -0.28000
H 	H 	0.96221 0.59370 0.82649 0.14700
C 	C 	0.06554 0.58503 0.10463 -0.05000
C 	C 	0.03204 0.59227 0.11460 -0.01700
C 	C 	0.01350 0.56903 0.14078 -0.01600
C 	C 	0.02817 0.53817 0.15706 -0.07200
C 	C 	0.06232 0.53187 0.14932 0.15600
C 	C 	0.08093 0.55535 0.12311 -0.07700
H 	H 	0.98734 0.57431 0.14713 0.04000
H 	H 	0.10687 0.54970 0.11575 0.06700
H 	H 	0.02012 0.61545 0.10106 0.04500
O 	O 	0.07700 0.50185 0.16521 -0.28300
H 	H 	0.08601 0.50859 0.19426 0.14600
C 	C 	0.82912 0.97556 0.07939 -0.03000
H 	H 	0.80761 0.99184 0.08996 0.04300
C 	C 	0.82658 0.93881 0.05811 -0.00300
C 	C 	0.79550 0.91907 0.04978 0.05100
C 	C 	0.85558 0.98647 0.04462 -0.01900
H 	H 	0.85646 0.01210 0.02686 0.03500
C 	C 	0.85249 0.94939 0.02324 -0.03400
H 	H 	0.85023 0.94413 0.98767 0.04400
C 	C 	0.85729 0.96171 0.10951 -0.02500
H 	H 	0.85955 0.96694 0.14508 0.03700
C 	C 	0.88319 0.97231 0.07465 -0.01100
C 	C 	0.91534 0.98974 0.08368 0.06300
C 	C 	0.88058 0.93555 0.05338 -0.02500
H 	H 	0.90205 0.91921 0.04280 0.03700
C 	C 	0.85424 0.92471 0.08811 -0.03100
H 	H 	0.85345 0.89909 0.10590 0.03400
C 	C 	0.94249 0.00277 0.09043 -0.12900
C 	C 	0.77035 0.90181 0.04426 -0.11600
C 	C 	0.60147 0.95755 0.83614 0.05200
C 	C 	0.60295 0.92046 0.83524 -0.08700
C 	C 	0.62358 0.90250 0.86455 0.05200
C 	C 	0.64273 0.92147 0.89522 -0.15100
C 	C 	0.64300 0.95875 0.89407 0.21600
C 	C 	0.62228 0.97663 0.86473 -0.13700
H 	H 	0.62342 0.87383 0.86483 0.03100
H 	H 	0.62174 0.00530 0.86500 0.08000
H 	H 	0.58716 0.90552 0.81301 0.05800
O 	O 	0.66251 0.97771 0.92275 -0.28300
H 	H 	0.68419 0.98137 0.90751 0.15200
C 	C 	0.59401 0.91294 0.18948 0.06100
C 	C 	0.58121 0.88432 0.16530 -0.09600
C 	C 	0.60197 0.86590 0.13659 0.06200
C 	C 	0.63559 0.87614 0.13164 -0.17500
C 	C 	0.64905 0.90302 0.15838 0.22500
C 	C 	0.62822 0.92137 0.18713 -0.15000
H 	H 	0.59149 0.84498 0.11648 0.02100
H 	H 	0.63834 0.94318 0.20613 0.08500
H 	H 	0.55488 0.87736 0.16734 0.05800
O 	O 	0.68210 0.91274 0.15460 -0.29000
H 	H 	0.69412 0.89769 0.17587 0.14500
C 	C 	0.23291 0.02849 0.04293 -0.02800
H 	H 	0.24225 0.00131 0.03725 0.03500
C 	C 	0.25480 0.06196 0.04699 -0.00800
C 	C 	0.29141 0.06321 0.04521 0.04800
C 	C 	0.20897 0.04897 0.01236 -0.03000
H 	H 	0.19790 0.03865 0.98159 0.04200
C 	C 	0.23148 0.08248 0.01640 -0.03100
H 	H 	0.23968 0.09965 0.98886 0.04000
C 	C 	0.21246 0.04066 0.08314 -0.03000
H 	H 	0.20429 0.02349 0.11070 0.03000
C 	C 	0.18912 0.06116 0.05257 -0.00700
C 	C 	0.15259 0.06042 0.05636 0.05200
C 	C 	0.21103 0.09461 0.05664 -0.02900
H 	H 	0.20171 0.12180 0.06234 0.03500
C 	C 	0.23490 0.07413 0.08716 -0.03100
H 	H 	0.24591 0.08446 0.11797 0.02900
C 	C 	0.12259 0.05903 0.05987 -0.12600
C 	C 	0.32149 0.06552 0.04538 -0.13300
C 	C 	0.45297 0.05696 0.89094 -0.02700
C 	C 	0.44856 0.02225 0.87565 -0.02300
C 	C 	0.47075 0.00830 0.84502 -0.01300
C 	C 	0.49763 0.02890 0.82955 -0.07400
C 	C 	0.50016 0.06478 0.84155 0.16100
C 	C 	0.47777 0.07874 0.87218 -0.08300
H 	H 	0.46825 0.98083 0.83531 0.04400
H 	H 	0.48111 0.10573 0.88344 0.07400
H 	H 	0.42915 0.00539 0.88946 0.04700
O 	O 	0.52593 0.08545 0.82591 -0.28400
H 	H 	0.51720 0.09632 0.79876 0.14900
C 	C 	0.50699 0.00604 0.18501 0.04700
C 	C 	0.51556 0.04169 0.17812 -0.09000
C 	C 	0.49562 0.06288 0.15143 0.05500
C 	C 	0.46696 0.04855 0.13138 -0.16800
C 	C 	0.45763 0.01308 0.13979 0.20900
C 	C 	0.47787 0.99190 0.16613 -0.13500
H 	H 	0.50286 0.09018 0.14554 0.02500
H 	H 	0.47100 0.96444 0.17172 0.07800
H 	H 	0.53799 0.05280 0.19277 0.05800
O 	O 	0.42898 0.99900 0.12189 -0.27800
H 	H 	0.41107 0.00373 0.14352 0.14300
C 	C 	0.47883 0.27046 0.94403 -0.02600
H 	H 	0.48476 0.25557 0.91379 0.03900
C 	C 	0.46919 0.25386 0.98824 -0.00800
C 	C 	0.46300 0.21669 0.99967 0.06000
C 	C 	0.50303 0.29636 0.96826 -0.02900
H 	H 	0.52884 0.30343 0.95771 0.03800
C 	C 	0.49323 0.27897 0.01253 -0.03000
H 	H 	0.51097 0.27112 0.03861 0.03600
C 	C 	0.45001 0.29737 0.94942 -0.03200
H 	H 	0.43218 0.30523 0.92345 0.04000
C 	C 	0.47406 0.32247 0.97370 0.00400
C 	C 	0.47410 0.36114 0.96974 0.04100
C 	C 	0.46444 0.30561 0.01775 -0.03600
H 	H 	0.45840 0.32027 0.04815 0.04000
C 	C 	0.44040 0.28022 0.99357 -0.01900
H 	H 	0.41452 0.27344 0.00417 0.03200
C 	C 	0.47176 0.39290 0.97091 -0.09100
C 	C 	0.45420 0.18776 0.01204 -0.12500
C 	C 	0.28602 0.52057 0.99147 -0.02200
H 	H 	0.28874 0.49304 0.97943 0.03900
C 	C 	0.31436 0.54371 0.01040 -0.01200
C 	C 	0.34953 0.53406 0.01588 0.05200
C 	C 	0.27431 0.55261 0.96382 -0.02600
H 	H 	0.26673 0.55162 0.92895 0.04000
C 	C 	0.30322 0.57548 0.98284 -0.02300
H 	H 	0.32006 0.59319 0.96370 0.03700
C 	C 	0.26300 0.53236 0.02957 -0.03100
H 	H 	0.24611 0.51472 0.04873 0.03800
C 	C 	0.25192 0.56414 0.00197 -0.01100
C 	C 	0.21788 0.57792 0.99865 0.05700
C 	C 	0.28038 0.58715 0.02087 -0.03200
H 	H 	0.27783 0.61469 0.03296 0.03200
C 	C 	0.29192 0.55526 0.04848 -0.02800
H 	H 	0.29946 0.55633 0.08337 0.03200
C 	C 	0.19091 0.59188 0.99755 -0.12300
C 	C 	0.37874 0.52758 0.02096 -0.12000
C 	C 	0.65313 0.47100 0.06644 -0.03200
H 	H 	0.65208 0.46966 0.10266 0.03700
C 	C 	0.62453 0.48295 0.03654 -0.00100
C 	C 	0.59080 0.49302 0.05028 0.05100
C 	C 	0.67791 0.49410 0.03932 -0.02400
H 	H 	0.69784 0.51155 0.05291 0.03500
C 	C 	0.64869 0.50623 0.00967 -0.03700
H 	H 	0.64397 0.53388 0.99923 0.04100
C 	C 	0.65938 0.43933 0.03545 -0.02400
H 	H 	0.66402 0.41166 0.04587 0.03300
C 	C 	0.68358 0.46257 0.00858 -0.01600
C 	C 	0.71583 0.45010 0.99209 0.05600
C 	C 	0.65493 0.47452 0.97876 -0.01600
H 	H 	0.65591 0.47585 0.94253 0.03500
C 	C 	0.63033 0.45144 0.00581 -0.03800
H 	H 	0.61047 0.43393 0.99213 0.04300
C 	C 	0.74178 0.43881 0.97796 -0.12600
C 	C 	0.56224 0.49994 0.05925 -0.12200
C 	C 	0.55297 0.68387 0.00296 -0.03300
H 	H 	0.53244 0.68519 0.02737 0.03200
C 	C 	0.55901 0.65308 0.97118 -0.00400
C 	C 	0.53759 0.62134 0.97221 0.04900
C 	C 	0.55874 0.71038 0.96506 -0.02500
H 	H 	0.54335 0.73404 0.95827 0.03900
C 	C 	0.56445 0.67910 0.93315 -0.02800
H 	H 	0.55347 0.67643 0.90000 0.03900
C 	C 	0.59074 0.68470 0.01363 -0.03300
H 	H 	0.60164 0.68725 0.04685 0.03200
C 	C 	0.59630 0.71082 0.97573 -0.00500
C 	C 	0.61720 0.74266 0.98096 0.05300
C 	C 	0.60246 0.68011 0.94387 -0.02900
H 	H 	0.62306 0.67891 0.91956 0.03800
C 	C 	0.59656 0.65355 0.98186 -0.02700
H 	H 	0.61196 0.62989 0.98874 0.03600
C 	C 	0.63485 0.76816 0.98761 -0.12200
C 	C 	0.51918 0.59618 0.97709 -0.11700
