data_crystal

_cell_length_a 26.11426
_cell_length_b 26.45896
_cell_length_c 35.05280
_cell_angle_alpha 95.49069
_cell_angle_beta  95.48750
_cell_angle_gamma 125.83518

_symmetry_space_group_name_	'P 1'
_symmetry_space_group_name_H-M	'P 1'

loop_
_symmetry_equiv_pos_as_xyz
  x,y,z

loop_
_atom_site_label
_atom_site_type_symbol
_atom_site_fract_x
_atom_site_fract_y
_atom_site_fract_z
_atom_site_charge
C 	C 	0.96416 0.03964 0.00775 0.12500
N 	N 	0.92979 0.97675 0.00892 -0.13400
C 	C 	0.95695 0.94631 0.00457 0.12800
N 	N 	0.01901 0.97903 0.99989 -0.13100
C 	C 	0.05368 0.04182 0.99882 0.13000
N 	N 	0.02606 0.07205 0.00230 -0.12700
C 	C 	0.94510 0.99171 0.46644 0.12400
N 	N 	0.00849 0.02153 0.46568 -0.13000
C 	C 	0.03368 0.98895 0.46697 0.13200
N 	N 	0.99524 0.92642 0.46888 -0.13500
C 	C 	0.93134 0.89568 0.46758 0.12900
N 	N 	0.90617 0.92836 0.46660 -0.13400
Cu	Cu	0.63269 0.25093 0.99910 0.93000
Cu	Cu	0.69399 0.26202 0.92041 0.87900
Cu	Cu	0.66867 0.35239 0.94952 0.90000
Cu	Cu	0.62379 0.36257 0.02371 0.90200
C 	C 	0.64254 0.29439 0.07982 0.30900
O 	O 	0.53708 0.20801 0.99456 -0.35400
C 	C 	0.65567 0.31141 0.86503 0.30900
O 	O 	0.68026 0.34920 0.00385 -0.63700
O 	O 	0.62873 0.25984 0.94369 -0.63900
O 	O 	0.67684 0.20982 0.99880 -0.35800
O 	O 	0.75090 0.28127 0.96667 -0.42900
O 	O 	0.61102 0.31674 0.06812 -0.37500
O 	O 	0.71251 0.44318 0.95899 -0.37000
C 	C 	0.70442 0.47482 0.98619 0.29100
C 	C 	0.51018 0.23272 0.97948 0.28500
O 	O 	0.54648 0.29258 0.97600 -0.38000
O 	O 	0.65877 0.44548 0.00705 -0.37300
O 	O 	0.64961 0.25924 0.05473 -0.33900
C 	C 	0.73338 0.23828 0.98860 0.29700
O 	O 	0.67204 0.35751 0.89375 -0.37400
O 	O 	0.65594 0.26340 0.87175 -0.39300
H 	H 	0.72547 0.37810 0.01789 0.18000
H 	H 	0.58531 0.23219 0.92709 0.18900
Cu	Cu	0.73368 0.32261 0.44663 0.92800
Cu	Cu	0.77717 0.31464 0.53908 0.88700
Cu	Cu	0.63889 0.27540 0.50261 0.90800
Cu	Cu	0.60482 0.30978 0.42765 0.90700
C 	C 	0.68132 0.31190 0.36728 0.30600
O 	O 	0.76932 0.41425 0.44519 -0.34900
C 	C 	0.69042 0.30798 0.58622 0.31200
O 	O 	0.63537 0.26745 0.44783 -0.64200
O 	O 	0.73407 0.33588 0.50381 -0.63400
O 	O 	0.77395 0.27717 0.44317 -0.34900
O 	O 	0.83035 0.31635 0.50558 -0.40600
O 	O 	0.62863 0.30406 0.37547 -0.35700
O 	O 	0.54646 0.21884 0.49652 -0.36100
C 	C 	0.50901 0.22812 0.47535 0.28800
C 	C 	0.73727 0.43598 0.45488 0.28800
O 	O 	0.68195 0.39838 0.46565 -0.36700
O 	O 	0.53374 0.27801 0.45818 -0.37300
O 	O 	0.71461 0.30015 0.39078 -0.35300
C 	C 	0.80564 0.27421 0.47332 0.28400
O 	O 	0.64308 0.26535 0.55731 -0.37200
O 	O 	0.75070 0.33967 0.58176 -0.39600
H 	H 	0.61083 0.22272 0.43440 0.17100
H 	H 	0.74937 0.37962 0.51396 0.17600
C 	C 	0.59831 0.26802 0.75623 -0.07000
C 	C 	0.65060 0.32078 0.74453 0.02600
C 	C 	0.69803 0.37517 0.77270 0.06000
C 	C 	0.69562 0.37412 0.81242 -0.00300
C 	C 	0.64701 0.31880 0.82429 -0.08700
C 	C 	0.59612 0.26677 0.79596 0.12300
C 	C 	0.65910 0.31616 0.70354 0.02900
N 	N 	0.75018 0.43059 0.76120 -0.01700
H 	H 	0.73403 0.41485 0.83406 0.06400
N 	N 	0.54269 0.21225 0.80750 -0.02400
H 	H 	0.56044 0.22708 0.73450 0.08500
C 	C 	0.67872 0.27954 0.68931 0.05800
C 	C 	0.68713 0.27591 0.65056 0.00100
C 	C 	0.67692 0.30906 0.62589 -0.08900
C 	C 	0.65663 0.34518 0.63990 0.12300
C 	C 	0.64783 0.34855 0.67869 -0.06900
N 	N 	0.69080 0.24647 0.71431 -0.01600
H 	H 	0.70277 0.24815 0.63983 0.05500
N 	N 	0.64632 0.37962 0.61513 -0.02700
H 	H 	0.63240 0.37645 0.68949 0.08600
O 	O 	0.52265 0.15557 0.79187 -0.09000
O 	O 	0.51221 0.21914 0.83228 -0.09700
O 	O 	0.75810 0.48405 0.76902 -0.09100
O 	O 	0.79271 0.42890 0.74588 -0.08700
O 	O 	0.60325 0.34955 0.58319 -0.10000
O 	O 	0.67646 0.44036 0.62601 -0.08900
O 	O 	0.65905 0.18527 0.70496 -0.09400
O 	O 	0.73662 0.27801 0.74490 -0.09100
C 	C 	0.72518 0.32117 0.18253 -0.07000
C 	C 	0.67393 0.29849 0.20262 0.02800
C 	C 	0.61179 0.27134 0.18191 0.05900
C 	C 	0.60194 0.26898 0.14163 -0.00100
C 	C 	0.65347 0.29351 0.12166 -0.08400
C 	C 	0.71545 0.31934 0.14218 0.11900
C 	C 	0.68632 0.30790 0.24569 0.02500
N 	N 	0.55880 0.24733 0.20190 -0.01600
H 	H 	0.55409 0.24829 0.12586 0.06700
N 	N 	0.76906 0.34606 0.12251 -0.02200
H 	H 	0.77303 0.34224 0.19844 0.08400
C 	C 	0.69191 0.26626 0.26466 0.06200
C 	C 	0.69469 0.27060 0.30509 -0.00300
C 	C 	0.69186 0.31612 0.32675 -0.08100
C 	C 	0.69159 0.36097 0.30818 0.11900
C 	C 	0.68822 0.35624 0.26773 -0.06900
N 	N 	0.69360 0.21881 0.24289 -0.01700
H 	H 	0.69607 0.23668 0.31930 0.07000
N 	N 	0.69560 0.41185 0.33043 -0.02500
H 	H 	0.68615 0.38967 0.25335 0.08200
O 	O 	0.80705 0.32950 0.12682 -0.08900
O 	O 	0.78389 0.39181 0.10388 -0.11500
O 	O 	0.52477 0.26854 0.19909 -0.09200
O 	O 	0.54217 0.20162 0.22094 -0.08200
O 	O 	0.74407 0.45094 0.35882 -0.10200
O 	O 	0.65387 0.42233 0.32018 -0.09200
O 	O 	0.74284 0.21820 0.25112 -0.09000
O 	O 	0.64389 0.17338 0.21701 -0.08000
C 	C 	0.85261 0.61518 0.47169 -0.03700
C 	C 	0.81139 0.63041 0.45814 0.03000
C 	C 	0.74702 0.58170 0.44142 -0.05500
C 	C 	0.72298 0.51808 0.43877 0.03400
C 	C 	0.76338 0.50266 0.45399 -0.07200
C 	C 	0.82832 0.55146 0.46979 0.01700
C 	C 	0.83573 0.69739 0.46011 0.01400
C 	C 	0.84745 0.72322 0.42608 -0.04100
C 	C 	0.87343 0.78721 0.42761 0.00000
C 	C 	0.88905 0.82626 0.46366 -0.01600
C 	C 	0.87371 0.79955 0.49727 -0.01700
C 	C 	0.84671 0.73523 0.49564 -0.02300
C 	C 	0.88450 0.81271 0.39213 0.09400
C 	C 	0.83114 0.70859 0.53057 0.09400
C 	C 	0.91985 0.66462 0.48745 0.10000
C 	C 	0.65751 0.46897 0.41909 0.08200
N 	N 	0.89337 0.83320 0.36373 -0.10100
N 	N 	0.81866 0.68720 0.55855 -0.10200
N 	N 	0.60508 0.42966 0.40334 -0.11100
N 	N 	0.97371 0.70428 0.50008 -0.10700
H 	H 	0.85969 0.53989 0.48109 0.04500
H 	H 	0.71572 0.59341 0.43018 0.06300
H 	H 	0.83712 0.69366 0.39851 0.06000
H 	H 	0.88495 0.82936 0.52494 0.05300
C 	C 	0.84500 0.04736 0.43780 -0.02300
C 	C 	0.87527 0.10356 0.46572 0.01200
C 	C 	0.92602 0.12089 0.49510 -0.04300
C 	C 	0.94765 0.08346 0.49649 -0.00000
C 	C 	0.91899 0.02842 0.46772 -0.01500
C 	C 	0.86712 0.01023 0.43887 -0.01600
C 	C 	0.85324 0.14403 0.46507 0.02900
C 	C 	0.81386 0.13996 0.49103 -0.06000
C 	C 	0.79700 0.18146 0.49339 0.02800
C 	C 	0.81958 0.22762 0.46943 -0.08700
C 	C 	0.85729 0.23041 0.44256 0.02200
C 	C 	0.87461 0.18920 0.44045 -0.04100
C 	C 	0.75593 0.17594 0.52017 0.03500
C 	C 	0.91504 0.19413 0.41338 0.10100
C 	C 	0.79144 0.02764 0.40793 0.09500
C 	C 	0.99803 0.10087 0.52815 0.08200
N 	N 	0.72304 0.17154 0.54161 -0.13400
N 	N 	0.94743 0.19802 0.39170 -0.10500
N 	N 	0.03838 0.11482 0.55351 -0.10000
N 	N 	0.74853 0.01190 0.38401 -0.10300
H 	H 	0.84469 0.96774 0.41688 0.05500
H 	H 	0.94852 0.16349 0.51700 0.05500
H 	H 	0.79704 0.10495 0.50976 0.06000
H 	H 	0.87428 0.26554 0.42391 0.04900
C 	C 	0.33139 0.13972 0.43905 -0.03900
C 	C 	0.30596 0.11928 0.47282 0.02900
C 	C 	0.34701 0.13170 0.50711 -0.05600
C 	C 	0.41345 0.16670 0.50853 0.03000
C 	C 	0.43895 0.18703 0.47456 -0.07400
C 	C 	0.39729 0.17224 0.43990 0.01300
C 	C 	0.23633 0.08535 0.47259 0.01200
C 	C 	0.19236 0.02370 0.45079 -0.03700
C 	C 	0.12615 0.99277 0.44727 -0.00400
C 	C 	0.10331 0.02214 0.46797 -0.01100
C 	C 	0.14752 0.08348 0.49039 -0.01800
C 	C 	0.21369 0.11551 0.49233 -0.02100
C 	C 	0.08229 0.93263 0.42072 0.09700
C 	C 	0.25799 0.17970 0.51408 0.09500
C 	C 	0.29038 0.12902 0.40367 0.09800
C 	C 	0.45501 0.18396 0.54532 0.09500
N 	N 	0.04730 0.88447 0.39944 -0.10000
N 	N 	0.29351 0.23112 0.53149 -0.10200
N 	N 	0.48818 0.19771 0.57482 -0.09100
N 	N 	0.25751 0.12042 0.37536 -0.10400
H 	H 	0.41655 0.18747 0.41374 0.04000
H 	H 	0.32734 0.11562 0.53303 0.06200
H 	H 	0.20980 0.00071 0.43539 0.05700
H 	H 	0.13039 0.10629 0.50635 0.06000
C 	C 	0.84227 0.64929 0.00430 -0.03700
C 	C 	0.81002 0.67594 0.99551 0.02600
C 	C 	0.74305 0.63634 0.98337 -0.05800
C 	C 	0.70798 0.57046 0.97991 0.03100
C 	C 	0.74021 0.54380 0.98893 -0.08000
C 	C 	0.80725 0.58342 0.00084 0.01700
C 	C 	0.84629 0.74523 0.99779 0.00800
C 	C 	0.87089 0.77168 0.96532 -0.03900
C 	C 	0.90637 0.83723 0.96701 -0.00700
C 	C 	0.91765 0.87701 0.00166 -0.01100
C 	C 	0.89198 0.85040 0.03389 -0.02000
C 	C 	0.85653 0.78478 0.03218 -0.01800
C 	C 	0.92996 0.86320 0.93285 0.09000
C 	C 	0.83131 0.75841 0.06590 0.09300
C 	C 	0.91123 0.68929 0.01703 0.09900
C 	C 	0.63928 0.53049 0.96601 0.08400
N 	N 	0.94890 0.88403 0.90551 -0.10700
N 	N 	0.81108 0.73723 0.09290 -0.10400
N 	N 	0.58424 0.49847 0.95486 -0.10100
N 	N 	0.96648 0.72139 0.02723 -0.10500
H 	H 	0.83207 0.56295 0.00770 0.04000
H 	H 	0.71835 0.65686 0.97632 0.06000
H 	H 	0.86248 0.74113 0.93876 0.05600
H 	H 	0.90031 0.88089 0.06046 0.05500
C 	C 	0.83965 0.06719 0.98146 -0.02400
C 	C 	0.86793 0.12693 0.00490 0.01300
C 	C 	0.92710 0.15729 0.03014 -0.03800
C 	C 	0.95879 0.12911 0.03177 -0.00900
C 	C 	0.93159 0.07028 0.00725 -0.00900
C 	C 	0.87183 0.03957 0.98243 -0.02200
C 	C 	0.83700 0.15917 0.00209 0.03500
C 	C 	0.80249 0.15807 0.03069 -0.06200
C 	C 	0.77010 0.18545 0.02748 0.03900
C 	C 	0.77102 0.21316 0.99467 -0.09000
C 	C 	0.80736 0.21579 0.96673 0.01700
C 	C 	0.84072 0.18963 0.97050 -0.04700
C 	C 	0.73767 0.18629 0.05843 0.09500
C 	C 	0.87853 0.19399 0.94169 0.09600
C 	C 	0.77758 0.03395 0.95631 0.09200
C 	C 	0.01776 0.15976 0.05967 0.10100
N 	N 	0.71165 0.18678 0.08324 -0.08300
N 	N 	0.90881 0.19742 0.91863 -0.10900
N 	N 	0.06496 0.18459 0.08214 -0.09800
N 	N 	0.72787 0.00738 0.93616 -0.10700
H 	H 	0.85050 0.99420 0.96375 0.05400
H 	H 	0.94848 0.20292 0.04852 0.05600
H 	H 	0.80069 0.13568 0.05541 0.06400
H 	H 	0.80891 0.23743 0.94168 0.02700
C 	C 	0.33996 0.12526 0.99690 -0.04200
C 	C 	0.30990 0.14597 0.97473 0.02900
C 	C 	0.34320 0.18851 0.94991 -0.05700
C 	C 	0.40699 0.21263 0.94834 0.02700
C 	C 	0.43932 0.19710 0.97370 -0.07600
C 	C 	0.40451 0.15137 0.99665 0.00900
C 	C 	0.24449 0.12533 0.97868 0.00800
C 	C 	0.23533 0.14665 0.01377 -0.03500
C 	C 	0.17316 0.12080 0.02046 0.00200
C 	C 	0.11948 0.07566 0.99090 -0.01600
C 	C 	0.12886 0.05721 0.95493 -0.01700
C 	C 	0.19091 0.08113 0.94884 -0.02100
C 	C 	0.16483 0.13710 0.05869 0.09600
C 	C 	0.19900 0.05846 0.91244 0.09400
C 	C 	0.30488 0.07734 0.02010 0.10400
C 	C 	0.43775 0.25071 0.91947 0.08600
N 	N 	0.15841 0.15006 0.08944 -0.09600
N 	N 	0.20553 0.04032 0.88328 -0.10200
N 	N 	0.46235 0.28120 0.89633 -0.09600
N 	N 	0.27673 0.03897 0.03867 -0.10300
H 	H 	0.42820 0.13751 0.01525 0.05700
H 	H 	0.31939 0.20277 0.93179 0.06200
H 	H 	0.27657 0.18105 0.03661 0.05700
H 	H 	0.08760 0.02245 0.93219 0.05900
