data_crystal

_cell_length_a 20.82060
_cell_length_b 21.33943
_cell_length_c 39.87207
_cell_angle_alpha 60.44756
_cell_angle_beta  119.32383
_cell_angle_gamma 133.39766

_symmetry_space_group_name_	'P 1'
_symmetry_space_group_name_H-M	'P 1'

loop_
_symmetry_equiv_pos_as_xyz
  x,y,z

loop_
_atom_site_label
_atom_site_type_symbol
_atom_site_fract_x
_atom_site_fract_y
_atom_site_fract_z
_atom_site_charge
Co	Co	0.03272 0.09320 0.07645 1.16900
Co	Co	0.08235 0.86919 0.03973 1.16300
O 	O 	0.04712 0.07114 0.18529 -0.42900
C 	C 	0.03894 0.99663 0.20766 0.32200
O 	O 	0.03653 0.94984 0.19348 -0.40400
O 	O 	0.06937 0.76576 0.08997 -0.42000
O 	O 	0.04963 0.91462 0.06093 -0.76000
Co	Co	0.02532 0.02426 0.52711 1.16800
C 	C 	0.02512 0.99585 0.70386 0.32900
O 	O 	0.02858 0.93476 0.54955 -0.75800
H 	H 	0.02982 0.91293 0.76593 0.06900
C 	C 	0.02869 0.99197 0.30191 0.02200
C 	C 	0.05831 0.02409 0.26608 -0.05300
C 	C 	0.03767 0.96805 0.24973 -0.11400
H 	H 	0.00791 0.56014 0.16882 0.05900
H 	H 	0.02886 0.29591 0.02359 0.08000
C 	C 	0.04861 0.99349 0.96766 0.39600
O 	O 	0.03933 0.20136 0.11023 -0.43100
O 	O 	0.03486 0.02205 0.98461 -0.43100
C 	C 	0.06652 0.60785 0.18750 -0.19600
H 	H 	0.02841 0.39072 0.00539 0.06700
H 	H 	0.04387 0.33995 0.05782 0.08200
H 	H 	0.01075 0.89906 0.26586 0.06100
H 	H 	0.04805 0.64358 0.18959 0.06500
C 	C 	0.03653 0.20965 0.60160 0.28400
C 	C 	0.05310 0.02493 0.35923 -0.10900
O 	O 	0.02545 0.95315 0.68837 -0.40400
C 	C 	0.04539 0.97795 0.74747 -0.13100
H 	H 	0.08136 0.56984 0.21796 0.06300
H 	H 	0.02738 0.32441 0.52220 0.06200
H 	H 	0.06842 0.69034 0.57296 0.08800
O 	O 	0.02472 0.78685 0.55370 -0.43800
C 	C 	0.00759 0.32623 0.02800 -0.23300
O 	O 	0.05765 0.17635 0.59129 -0.40600
H 	H 	0.02936 0.06938 0.90512 0.09700
Co	Co	0.00147 0.84672 0.09969 1.17300
C 	C 	0.01974 0.00682 0.92417 -0.27500
H 	H 	0.07709 0.55749 0.63906 0.06400
C 	C 	0.06950 0.03666 0.76331 -0.01300
C 	C 	0.05409 0.00958 0.80236 -0.04400
Co	Co	0.08293 0.91921 0.52415 1.16800
C 	C 	0.01199 0.97589 0.86945 -0.04200
H 	H 	0.07713 0.57504 0.67881 0.05900
H 	H 	0.02080 0.70993 0.51970 0.07100
C 	C 	0.01523 0.65861 0.54825 -0.23000
H 	H 	0.02907 0.61865 0.54642 0.06800
O 	O 	0.01317 0.05879 0.68106 -0.43400
C 	C 	0.08547 0.04481 0.32922 -0.05200
Co	Co	0.08973 0.02298 0.04468 1.16900
Co	Co	0.00143 0.86664 0.59353 1.17200
O 	O 	0.00050 0.10695 0.52089 -0.49200
H 	H 	0.09433 0.71385 0.64624 0.03900
H 	H 	0.09563 0.10499 0.74602 0.03400
C 	C 	0.09547 0.05318 0.85987 -0.05100
C 	C 	0.12146 0.59209 0.66341 -0.17700
H 	H 	0.97503 0.04637 0.39480 0.05200
H 	H 	0.16308 0.56720 0.68556 0.06500
C 	C 	0.11612 0.06997 0.82649 -0.03400
O 	O 	0.96523 0.00736 0.46858 -0.39800
O 	O 	0.10234 0.96836 0.98787 -0.43200
O 	O 	0.10098 0.12967 0.03996 -0.48500
O 	O 	0.95572 0.16138 0.60735 -0.39300
H 	H 	0.14543 0.09907 0.87885 0.03400
C 	C 	0.95244 0.97904 0.41254 -0.09900
C 	C 	0.95848 0.95628 0.45512 0.33100
Co	Co	0.95545 0.06424 0.56804 1.17800
H 	H 	0.18008 0.13056 0.81912 0.03100
O 	O 	0.96729 0.89178 0.47956 -0.39100
C 	C 	0.96302 0.95214 0.36217 0.07900
O 	O 	0.12507 0.87790 0.62437 -0.38300
C 	C 	0.11155 0.78105 0.12517 0.29900
O 	O 	0.10499 0.82781 0.13454 -0.39700
C 	C 	0.17676 0.89072 0.60773 0.29000
O 	O 	0.19127 0.94682 0.57293 -0.38700
C 	C 	0.97044 0.93241 0.81185 0.01000
H 	H 	0.88607 0.85478 0.85277 0.03300
H 	H 	0.92041 0.88659 0.79284 0.03700
H 	H 	0.09868 0.06496 0.38068 0.04100
H 	H 	0.11164 0.25408 0.67025 0.03700
H 	H 	0.14407 0.33094 0.71002 0.05800
H 	H 	0.18161 0.30185 0.23066 0.05700
C 	C 	0.73097 0.28106 0.02027 0.11000
N 	N 	0.78031 0.36603 0.02270 -0.14100
C 	C 	0.74583 0.38741 0.03353 0.11700
N 	N 	0.66273 0.32495 0.04141 -0.14200
C 	C 	0.61312 0.24127 0.03860 0.11700
N 	N 	0.64757 0.21865 0.02873 -0.14600
C 	C 	0.66954 0.24470 0.53740 0.11400
N 	N 	0.58363 0.19970 0.54015 -0.14500
C 	C 	0.56568 0.23430 0.55256 0.11400
N 	N 	0.63407 0.31187 0.56334 -0.14400
C 	C 	0.71395 0.36433 0.55356 0.11600
N 	N 	0.73431 0.32907 0.54280 -0.14200
C 	C 	0.31327 0.66019 0.15977 0.11300
N 	N 	0.40574 0.70955 0.16841 -0.14200
C 	C 	0.44634 0.67803 0.17020 0.11700
N 	N 	0.39518 0.59495 0.16624 -0.14200
C 	C 	0.30349 0.54589 0.15651 0.11500
N 	N 	0.26166 0.57832 0.15304 -0.14200
C 	C 	0.28418 0.67720 0.63640 0.11100
N 	N 	0.37384 0.71346 0.64415 -0.14200
C 	C 	0.39808 0.67222 0.64063 0.11600
N 	N 	0.33318 0.59404 0.63010 -0.14100
C 	C 	0.24400 0.55591 0.62305 0.11500
N 	N 	0.21877 0.59806 0.62546 -0.14400
Co	Co	0.96014 0.92242 0.13712 1.19500
C 	C 	0.89313 0.72355 0.04429 0.29700
Co	Co	0.94796 0.07014 0.13485 1.17000
C 	C 	0.25746 0.04060 0.05653 0.27000
O 	O 	0.97697 0.02268 0.11288 -0.76500
O 	O 	0.95640 0.81870 0.14383 -0.45800
C 	C 	0.12271 0.23285 0.11529 0.31000
O 	O 	0.99453 0.96137 0.08110 -0.55300
C 	C 	0.79549 0.87660 0.14581 0.31100
O 	O 	0.13849 0.19002 0.10864 -0.40700
O 	O 	0.85387 0.94308 0.16255 -0.39500
O 	O 	0.82363 0.85430 0.13302 -0.38600
C 	C 	0.88502 0.12292 0.04810 0.30100
O 	O 	0.85591 0.06623 0.08080 -0.40800
O 	O 	0.94236 0.12962 0.03785 -0.37600
O 	O 	0.94435 0.78952 0.01885 -0.38300
O 	O 	0.89313 0.73856 0.07320 -0.37400
O 	O 	0.21737 0.95471 0.06482 -0.37600
O 	O 	0.22571 0.07017 0.06261 -0.40100
Co	Co	0.93501 0.90937 0.63587 1.18700
C 	C 	0.94244 0.73078 0.55918 0.33700
Co	Co	0.89332 0.02975 0.63928 1.16100
C 	C 	0.20104 0.11348 0.51393 0.31400
O 	O 	0.92565 0.99584 0.61134 -0.73100
O 	O 	0.95779 0.82534 0.64116 -0.45300
O 	O 	0.94926 0.94768 0.57471 -0.56200
C 	C 	0.77069 0.83302 0.65756 0.30800
O 	O 	0.82599 0.90041 0.67356 -0.39700
O 	O 	0.80269 0.81759 0.64319 -0.38900
C 	C 	0.78935 0.05306 0.55701 0.28700
O 	O 	0.77997 0.00018 0.59283 -0.41400
O 	O 	0.84149 0.06913 0.53932 -0.38400
O 	O 	0.91472 0.75154 0.57342 -0.38600
O 	O 	0.15053 0.05273 0.49442 -0.43500
O 	O 	0.16420 0.11180 0.53365 -0.41700
C 	C 	0.94992 0.91548 0.84532 -0.01100
C 	C 	0.99748 0.94864 0.90871 0.13000
H 	H 	0.97753 0.88223 0.92713 0.00800
C 	C 	0.90636 0.89887 0.33504 -0.06600
C 	C 	0.93863 0.91899 0.30490 -0.00700
C 	C 	0.93314 0.92160 0.39764 -0.02600
H 	H 	0.83734 0.84155 0.33742 0.04600
H 	H 	0.89290 0.87923 0.28333 0.04000
H 	H 	0.15451 0.10215 0.32687 0.03300
H 	H 	0.09440 0.09490 0.25178 0.04000
H 	H 	0.90057 0.85174 0.41347 0.04600
C 	C 	0.15490 0.45621 0.57878 -0.07100
C 	C 	0.17619 0.46540 0.61616 -0.03100
C 	C 	0.15775 0.39082 0.64906 0.04400
C 	C 	0.12506 0.31085 0.64477 -0.02900
C 	C 	0.10293 0.30115 0.60741 -0.09700
C 	C 	0.12024 0.37535 0.57430 0.08400
C 	C 	0.10176 0.36876 0.53418 -0.19800
H 	H 	0.17015 0.51357 0.55354 0.04500
C 	C 	0.17780 0.39772 0.68940 -0.17900
H 	H 	0.12916 0.43488 0.51259 0.06300
H 	H 	0.13461 0.34155 0.53676 0.07600
H 	H 	0.15235 0.43198 0.68688 0.06300
H 	H 	0.25238 0.43586 0.70238 0.06700
C 	C 	0.52053 0.73397 0.61312 -0.07500
C 	C 	0.49441 0.71497 0.64526 -0.02700
C 	C 	0.55608 0.72294 0.68288 0.04500
C 	C 	0.64436 0.75386 0.68727 -0.02100
C 	C 	0.67205 0.77691 0.65468 -0.10600
C 	C 	0.60822 0.76339 0.61761 0.09700
C 	C 	0.63235 0.77865 0.58297 -0.20500
H 	H 	0.47192 0.72473 0.58459 0.05000
H 	H 	0.69282 0.76308 0.71583 0.04300
C 	C 	0.52844 0.69913 0.71835 -0.18000
H 	H 	0.57493 0.76562 0.55615 0.06900
H 	H 	0.64924 0.73308 0.59067 0.08100
H 	H 	0.69122 0.84859 0.57507 0.08300
H 	H 	0.46611 0.62972 0.72270 0.06800
H 	H 	0.51501 0.74533 0.71372 0.07300
H 	H 	0.58252 0.70383 0.74607 0.06400
C 	C 	0.15856 0.74503 0.64132 -0.03000
C 	C 	0.21510 0.83819 0.62703 -0.09000
C 	C 	0.30013 0.87765 0.62225 0.07200
C 	C 	0.31863 0.82430 0.62342 -0.06600
C 	C 	0.25939 0.73086 0.63474 -0.02900
C 	C 	0.18172 0.69109 0.64664 0.04100
H 	H 	0.38003 0.85606 0.61574 0.05300
C 	C 	0.37025 0.97692 0.61423 -0.12800
H 	H 	0.36444 0.00646 0.62810 0.04500
H 	H 	0.36090 0.00629 0.58171 0.04700
H 	H 	0.44012 0.99416 0.62695 0.06300
C 	C 	0.25717 0.46969 0.10977 -0.07300
C 	C 	0.25122 0.46278 0.14526 -0.02800
C 	C 	0.22233 0.38128 0.17453 0.04100
C 	C 	0.19932 0.30851 0.16766 -0.02500
C 	C 	0.19683 0.31328 0.13064 -0.10800
C 	C 	0.23603 0.39719 0.10358 0.09000
C 	C 	0.25327 0.40954 0.06752 -0.20400
H 	H 	0.28403 0.53332 0.08807 0.04900
H 	H 	0.17458 0.24537 0.18970 0.03900
C 	C 	0.21919 0.37253 0.21370 -0.17800
H 	H 	0.31581 0.47699 0.06024 0.07000
H 	H 	0.19506 0.40194 0.04171 0.06500
H 	H 	0.26348 0.36044 0.07276 0.07900
H 	H 	0.18403 0.39959 0.20870 0.06400
H 	H 	0.28955 0.40981 0.23192 0.06600
C 	C 	0.68446 0.76086 0.18733 -0.01700
C 	C 	0.70145 0.81583 0.14969 -0.10600
C 	C 	0.63581 0.83009 0.11984 0.09600
C 	C 	0.55794 0.79487 0.12907 -0.07200
C 	C 	0.54056 0.73924 0.16654 -0.02700
C 	C 	0.60581 0.72454 0.19633 0.04600
C 	C 	0.59015 0.66734 0.23731 -0.18000
H 	H 	0.73502 0.75026 0.21032 0.04000
H 	H 	0.50772 0.80607 0.10616 0.04900
C 	C 	0.64992 0.88614 0.07858 -0.21100
H 	H 	0.65503 0.68081 0.25944 0.06400
H 	H 	0.54321 0.59600 0.23711 0.07000
H 	H 	0.56011 0.68117 0.24705 0.06900
H 	H 	0.69449 0.88612 0.07092 0.08900
H 	H 	0.68027 0.95534 0.07633 0.09100
H 	H 	0.58379 0.85976 0.05624 0.07300
C 	C 	0.19227 0.63913 0.17301 -0.06900
C 	C 	0.26888 0.69620 0.15725 -0.02900
C 	C 	0.30489 0.78806 0.14081 0.05000
C 	C 	0.26408 0.81980 0.14114 -0.03100
C 	C 	0.17908 0.76031 0.15030 -0.09700
C 	C 	0.14808 0.67086 0.17021 0.08400
H 	H 	0.16654 0.56989 0.18734 0.04700
H 	H 	0.29323 0.89003 0.12974 0.05500
C 	C 	0.38324 0.85186 0.12111 -0.18500
H 	H 	0.37496 0.82098 0.10226 0.07100
H 	H 	0.44847 0.87234 0.14399 0.07700
H 	H 	0.38680 0.91289 0.10134 0.07300
C 	C 	0.63316 0.10448 0.53848 -0.06500
C 	C 	0.69318 0.19793 0.53198 -0.03300
C 	C 	0.77577 0.24385 0.52226 0.05000
C 	C 	0.80380 0.19499 0.52704 -0.02800
C 	C 	0.74772 0.10151 0.53805 -0.09500
C 	C 	0.65848 0.05662 0.53993 0.05900
C 	C 	0.59184 0.95690 0.54638 -0.16700
H 	H 	0.56732 0.06835 0.54341 0.04300
H 	H 	0.87068 0.22993 0.52363 0.04600
C 	C 	0.83269 0.34331 0.50561 -0.18200
H 	H 	0.52078 0.93650 0.53280 0.06700
H 	H 	0.59918 0.92513 0.57870 0.08000
H 	H 	0.60339 0.93218 0.53251 0.07500
H 	H 	0.87739 0.37748 0.53012 0.07600
H 	H 	0.78882 0.36602 0.48426 0.07300
H 	H 	0.87692 0.36347 0.48912 0.06700
C 	C 	0.78941 0.59043 0.54526 -0.01600
C 	C 	0.88414 0.63943 0.55371 -0.11600
C 	C 	0.92179 0.60163 0.55507 0.12300
C 	C 	0.86601 0.51054 0.55710 -0.08400
C 	C 	0.77160 0.46160 0.54909 -0.02200
C 	C 	0.73293 0.50545 0.53887 0.04100
C 	C 	0.63328 0.46509 0.51900 -0.17700
H 	H 	0.75934 0.62047 0.54113 0.04300
H 	H 	0.89602 0.47897 0.56306 0.05700
H 	H 	0.62216 0.51779 0.50050 0.06300
H 	H 	0.59307 0.42141 0.54179 0.07100
H 	H 	0.60762 0.42657 0.49885 0.07100
C 	C 	0.42192 0.20568 0.50372 -0.07800
C 	C 	0.47178 0.20348 0.54334 -0.03000
C 	C 	0.43912 0.19076 0.57168 0.03700
C 	C 	0.35319 0.17201 0.56052 -0.01700
C 	C 	0.30055 0.16733 0.52148 -0.11800
C 	C 	0.33968 0.19381 0.49219 0.09100
C 	C 	0.29243 0.20621 0.44875 -0.19800
H 	H 	0.44959 0.22137 0.48142 0.04800
H 	H 	0.32519 0.15596 0.58275 0.03800
C 	C 	0.49617 0.19921 0.61343 -0.17700
H 	H 	0.34306 0.25899 0.43024 0.06300
H 	H 	0.25021 0.22690 0.44232 0.07100
H 	H 	0.24851 0.14306 0.43998 0.06700
H 	H 	0.54787 0.27064 0.61369 0.07000
H 	H 	0.53088 0.16740 0.62507 0.06300
H 	H 	0.45367 0.16613 0.63398 0.05800
C 	C 	0.86682 0.30384 0.02081 -0.08600
C 	C 	0.77171 0.25457 0.01226 -0.01900
C 	C 	0.71703 0.17495 0.00031 0.02900
C 	C 	0.75681 0.13530 0.00733 -0.01700
C 	C 	0.85111 0.17838 0.02225 -0.11300
C 	C 	0.90659 0.26809 0.02355 0.11900
H 	H 	0.91014 0.36900 0.02621 0.06200
H 	H 	0.71384 0.06896 0.00322 0.02700
C 	C 	0.61783 0.13313 0.97938 -0.16200
H 	H 	0.60480 0.18451 0.96100 0.06600
H 	H 	0.57554 0.08463 0.00150 0.05700
H 	H 	0.59648 0.09719 0.95904 0.05600
C 	C 	0.82381 0.49119 0.07334 -0.07000
C 	C 	0.79663 0.47831 0.03606 -0.02700
C 	C 	0.79236 0.54304 0.00142 0.04400
C 	C 	0.81172 0.61757 0.00454 -0.03000
C 	C 	0.84053 0.63139 0.04187 -0.09900
C 	C 	0.84014 0.56413 0.07645 0.09700
C 	C 	0.84985 0.56585 0.11608 -0.20200
H 	H 	0.82482 0.44028 0.09989 0.05000
H 	H 	0.80861 0.66730 0.97784 0.05000
C 	C 	0.76324 0.53095 0.96095 -0.17800
H 	H 	0.83838 0.50379 0.13910 0.07000
H 	H 	0.79877 0.57208 0.11350 0.08300
H 	H 	0.91922 0.62245 0.12647 0.08300
H 	H 	0.68985 0.47527 0.95467 0.07000
H 	H 	0.80363 0.51602 0.95976 0.07400
H 	H 	0.77389 0.59196 0.93717 0.06500
C 	C 	0.41726 0.09242 0.08517 -0.02700
C 	C 	0.35143 0.10132 0.05273 -0.09700
C 	C 	0.37085 0.15195 0.01491 0.07900
C 	C 	0.45322 0.18761 0.00971 -0.07500
C 	C 	0.51897 0.17877 0.04214 -0.03100
C 	C 	0.49963 0.12819 0.07990 0.04000
C 	C 	0.56807 0.11501 0.11491 -0.17900
H 	H 	0.40267 0.05436 0.11428 0.03400
H 	H 	0.46834 0.22658 0.98069 0.05000
C 	C 	0.30241 0.16446 0.97950 -0.19500
H 	H 	0.53667 0.06077 0.14014 0.05400
H 	H 	0.62468 0.17749 0.12497 0.06700
H 	H 	0.59583 0.09652 0.10653 0.06200
H 	H 	0.26146 0.16730 0.98821 0.07100
H 	H 	0.25664 0.10892 0.96501 0.07100
H 	H 	0.33721 0.22798 0.95744 0.06600
