data_crystal

_cell_length_a 14.39713
_cell_length_b 13.45069
_cell_length_c 37.82137
_cell_angle_alpha 89.77627
_cell_angle_beta  89.77990
_cell_angle_gamma 119.47832

_symmetry_space_group_name_	'P 1'
_symmetry_space_group_name_H-M	'P 1'

loop_
_symmetry_equiv_pos_as_xyz
  x,y,z

loop_
_atom_site_label
_atom_site_type_symbol
_atom_site_fract_x
_atom_site_fract_y
_atom_site_fract_z
_atom_site_charge
Ni	Ni	0.20153 0.98600 0.72899 1.10500
Ni	Ni	0.18215 0.21632 0.74210 1.12300
O 	O 	0.12624 0.05529 0.74839 -0.69500
H 	H 	0.14320 0.05385 0.77343 0.15700
C 	C 	0.09898 0.27143 0.19369 0.32000
C 	C 	0.10054 0.22662 0.30205 0.28900
C 	C 	0.01277 0.92246 0.18480 0.31600
C 	C 	0.99169 0.87274 0.27935 0.27100
O 	O 	0.02095 0.28499 0.20567 -0.36100
O 	O 	0.05964 0.27875 0.28271 -0.35700
C 	C 	0.05026 0.76183 0.17213 0.17400
H 	H 	0.10623 0.64213 0.16284 0.06300
C 	C 	0.00610 0.21379 0.35910 -0.05700
O 	O 	0.91724 0.21637 0.41253 -0.27900
C 	C 	0.95223 0.58625 0.47595 -0.13600
O 	O 	0.99167 0.87973 0.61914 -0.28600
C 	C 	0.01116 0.55985 0.02305 -0.08900
H 	H 	0.99391 0.62612 0.03171 0.07700
H 	H 	0.13255 0.38798 0.82530 0.07800
O 	O 	0.11091 0.48659 0.88244 -0.27400
H 	H 	0.07161 0.51881 0.86973 0.15700
O 	O 	0.10904 0.64463 0.79375 -0.28400
H 	H 	0.14026 0.68062 0.81674 0.15600
C 	C 	0.33715 0.16726 0.77870 0.29800
C 	C 	0.25748 0.16462 0.67503 0.32300
O 	O 	0.32107 0.06889 0.76589 -0.34700
O 	O 	0.32834 0.24071 0.75714 -0.35900
O 	O 	0.15126 0.22889 0.79264 -0.37600
O 	O 	0.29924 0.11876 0.69551 -0.36000
O 	O 	0.21272 0.22004 0.68913 -0.37300
C 	C 	0.13229 0.38635 0.43260 0.33200
C 	C 	0.15506 0.68646 0.37836 0.33600
C 	C 	0.05432 0.61214 0.48135 0.35500
Ni	Ni	0.29918 0.60220 0.40605 1.11500
Ni	Ni	0.22921 0.56212 0.48889 1.12300
Ni	Ni	0.25267 0.78266 0.44676 1.12100
O 	O 	0.07754 0.53065 0.48668 -0.36800
O 	O 	0.14647 0.47213 0.41337 -0.38200
O 	O 	0.17531 0.40605 0.46434 -0.36000
O 	O 	0.23761 0.67373 0.37057 -0.36400
O 	O 	0.13590 0.70102 0.41112 -0.39100
O 	O 	0.28645 0.70320 0.52138 -0.36800
O 	O 	0.13087 0.72010 0.48234 -0.39000
O 	O 	0.28602 0.66255 0.44875 -0.71400
C 	C 	0.22919 0.73544 0.10505 0.33600
C 	C 	0.21363 0.41314 0.06413 0.32600
C 	C 	0.10678 0.59159 0.00818 0.33100
Ni	Ni	0.37571 0.64685 0.08133 1.11400
Ni	Ni	0.30021 0.79015 0.03247 1.12400
Ni	Ni	0.29468 0.56304 0.00069 1.12000
O 	O 	0.17257 0.70030 0.00182 -0.38200
O 	O 	0.31166 0.72448 0.11433 -0.37800
O 	O 	0.19688 0.71729 0.07263 -0.38800
O 	O 	0.33336 0.68276 0.96157 -0.36000
O 	O 	0.22892 0.50308 0.08148 -0.38600
O 	O 	0.25555 0.42355 0.03241 -0.36300
O 	O 	0.13802 0.51647 0.00225 -0.37100
O 	O 	0.34843 0.68166 0.03589 -0.71100
Ni	Ni	0.09953 0.09568 0.23867 1.12600
O 	O 	0.06682 0.03275 0.18987 -0.38200
O 	O 	0.15729 0.25155 0.21609 -0.38100
O 	O 	0.07156 0.94298 0.25817 -0.38100
O 	O 	0.14551 0.17192 0.28669 -0.35500
C 	C 	0.16185 0.30407 0.08280 -0.10300
C 	C 	0.05819 0.26884 0.09445 -0.05200
C 	C 	0.03946 0.26796 0.13077 0.19400
C 	C 	0.11465 0.26836 0.15492 -0.10700
C 	C 	0.20469 0.26551 0.14142 -0.05200
C 	C 	0.22650 0.27971 0.10491 0.16500
H 	H 	0.00119 0.27057 0.07616 0.07200
H 	H 	0.25981 0.25769 0.15909 0.06500
O 	O 	0.32026 0.29031 0.09220 -0.28000
H 	H 	0.30232 0.21230 0.08475 0.15600
C 	C 	0.06084 0.86877 0.16281 -0.09500
C 	C 	0.12994 0.93215 0.13516 -0.08900
C 	C 	0.19154 0.89295 0.11792 0.19100
C 	C 	0.18623 0.78966 0.12866 -0.12100
C 	C 	0.11578 0.72495 0.15592 -0.05200
H 	H 	0.13551 0.01210 0.12679 0.08600
O 	O 	0.24914 0.94992 0.08839 -0.33100
C 	C 	0.09934 0.23286 0.34130 -0.09800
C 	C 	0.00719 0.22923 0.39581 0.18000
C 	C 	0.10512 0.28060 0.41367 -0.10800
C 	C 	0.18994 0.27257 0.39809 -0.06500
C 	C 	0.18989 0.25494 0.36141 0.16300
H 	H 	0.26214 0.29751 0.41299 0.07300
O 	O 	0.27904 0.26327 0.34533 -0.27200
H 	H 	0.32355 0.34508 0.33886 0.14600
C 	C 	0.00927 0.79359 0.30151 -0.05900
C 	C 	0.08537 0.76296 0.29069 -0.07900
C 	C 	0.12493 0.71417 0.31464 0.18600
C 	C 	0.09058 0.69844 0.35012 -0.12500
C 	C 	0.00306 0.71281 0.35942 -0.01500
C 	C 	0.96439 0.76325 0.33556 0.12400
H 	H 	0.11928 0.78409 0.26431 0.07000
O 	O 	0.20107 0.68767 0.30371 -0.28000
H 	H 	0.96983 0.69216 0.38593 0.05100
H 	H 	0.16075 0.60720 0.29577 0.15500
C 	C 	0.25156 0.14463 0.63629 -0.10500
C 	C 	0.25906 0.22936 0.61256 -0.05700
C 	C 	0.27684 0.22053 0.57636 0.16700
C 	C 	0.29342 0.13090 0.56508 -0.11000
C 	C 	0.24330 0.04285 0.62228 0.20700
H 	H 	0.25821 0.30458 0.62227 0.06800
O 	O 	0.29645 0.30868 0.55373 -0.27500
O 	O 	0.24526 0.96197 0.64396 -0.30200
H 	H 	0.22642 0.28762 0.54304 0.15600
C 	C 	0.32580 0.17468 0.81761 -0.11400
C 	C 	0.27719 0.07377 0.83817 -0.02100
C 	C 	0.30016 0.07805 0.87431 0.18700
C 	C 	0.37794 0.18149 0.88878 -0.09100
C 	C 	0.37525 0.28022 0.83520 0.18500
H 	H 	0.22782 0.99187 0.82580 0.04300
O 	O 	0.26306 0.97854 0.89331 -0.29000
O 	O 	0.39823 0.37914 0.81764 -0.28300
H 	H 	0.19633 0.96691 0.90476 0.15600
O 	O 	0.09340 0.92515 0.68843 -0.36200
O 	O 	0.11886 0.83394 0.75868 -0.36600
O 	O 	0.05136 0.22933 0.73001 -0.36700
O 	O 	0.36016 0.86362 0.48501 -0.36800
O 	O 	0.38544 0.85665 0.98827 -0.36900
C 	C 	0.24661 0.03157 0.58562 -0.02700
C 	C 	0.39709 0.28277 0.87151 -0.06200
H 	H 	0.47157 0.40922 0.80829 0.16500
H 	H 	0.24151 0.95422 0.57507 0.05400
H 	H 	0.32164 0.98374 0.64594 0.14500
H 	H 	0.44454 0.36426 0.88437 0.06900
O 	O 	0.96999 0.68907 0.19448 -0.29100
H 	H 	0.00260 0.70266 0.21820 0.16300
H 	H 	0.31618 0.01459 0.09734 0.18500
H 	H 	0.88243 0.13801 0.42260 0.16500
H 	H 	0.92307 0.87970 0.61675 0.14400
O 	O 	0.89254 0.85527 0.27549 -0.37000
O 	O 	0.92484 0.85845 0.20309 -0.37500
O 	O 	0.95264 0.27522 0.14239 -0.27900
H 	H 	0.97615 0.35804 0.14265 0.15500
H 	H 	0.93450 0.19210 0.34448 0.06500
O 	O 	0.88553 0.78626 0.34599 -0.26900
H 	H 	0.92330 0.86378 0.35640 0.13800
H 	H 	0.52085 0.78470 0.93419 0.07800
H 	H 	0.93386 0.65549 0.47553 0.07700
C 	C 	0.64889 0.50756 0.97079 0.31500
C 	C 	0.60881 0.04377 0.95771 0.39600
C 	C 	0.83675 0.41973 0.00029 0.33100
C 	C 	0.47044 0.18190 0.90483 0.29700
C 	C 	0.90679 0.32094 0.91843 0.31600
C 	C 	0.78094 0.41688 0.85227 0.32300
Ni	Ni	0.61048 0.26228 0.97347 1.11500
Ni	Ni	0.68582 0.20933 0.89942 1.12500
Ni	Ni	0.80509 0.46975 0.92784 1.12300
O 	O 	0.58181 0.39925 0.97932 -0.36100
O 	O 	0.70763 0.53469 0.94124 -0.36900
O 	O 	0.81324 0.23421 0.92646 -0.39700
O 	O 	0.63597 0.12389 0.98103 -0.38000
O 	O 	0.58978 0.06178 0.92557 -0.38500
O 	O 	0.77373 0.48093 0.87703 -0.38800
O 	O 	0.74012 0.33684 0.00876 -0.36600
O 	O 	0.84744 0.49934 0.97844 -0.39100
O 	O 	0.77504 0.31819 0.85999 -0.39400
O 	O 	0.47433 0.16768 0.94021 -0.33400
O 	O 	0.54601 0.18910 0.88271 -0.36200
O 	O 	0.92074 0.42673 0.91714 -0.37400
O 	O 	0.68542 0.32068 0.93109 -0.71400
H 	H 	0.63882 0.34455 0.91938 0.15800
C 	C 	0.83038 0.48245 0.59453 0.29900
C 	C 	0.39932 0.16267 0.55123 0.33000
C 	C 	0.67904 0.19348 0.61903 0.33300
C 	C 	0.56311 0.45902 0.51791 0.32400
C 	C 	0.59964 0.05301 0.51601 0.37000
C 	C 	0.81281 0.38168 0.48122 0.30800
Ni	Ni	0.59774 0.33455 0.58219 1.11500
Ni	Ni	0.57889 0.25467 0.49999 1.12300
Ni	Ni	0.76443 0.26480 0.54955 1.12900
O 	O 	0.74015 0.48221 0.58821 -0.38300
O 	O 	0.84480 0.39342 0.58658 -0.34500
O 	O 	0.53415 0.08820 0.50551 -0.36900
O 	O 	0.47105 0.17467 0.57410 -0.38300
O 	O 	0.42980 0.20909 0.51965 -0.35700
O 	O 	0.85579 0.36714 0.51026 -0.36200
O 	O 	0.64930 0.27021 0.62410 -0.37300
O 	O 	0.67315 0.15474 0.58739 -0.38500
O 	O 	0.71553 0.30121 0.47087 -0.36400
O 	O 	0.53266 0.41494 0.55050 -0.36300
O 	O 	0.59492 0.41056 0.49382 -0.38500
O 	O 	0.70339 0.12617 0.51740 -0.38100
O 	O 	0.66255 0.31311 0.54206 -0.71300
H 	H 	0.70993 0.39275 0.53464 0.16100
C 	C 	0.99704 0.84115 0.69275 0.31500
C 	C 	0.03424 0.80374 0.77957 0.32700
C 	C 	0.96707 0.15049 0.71335 0.31600
C 	C 	0.05715 0.16622 0.80799 0.31300
Ni	Ni	0.97620 0.97090 0.75409 1.10300
O 	O 	0.94411 0.04353 0.71344 -0.37400
O 	O 	0.93969 0.83643 0.72064 -0.38700
O 	O 	0.97389 0.08231 0.79092 -0.36900
O 	O 	0.00532 0.87850 0.78997 -0.39000
C 	C 	0.44503 0.85123 0.39731 0.31300
C 	C 	0.41731 0.54787 0.46455 0.32100
C 	C 	0.36796 0.80685 0.51254 0.30000
O 	O 	0.44090 0.75158 0.40092 -0.38400
O 	O 	0.36381 0.86741 0.40706 -0.37100
O 	O 	0.37033 0.51859 0.43292 -0.37700
O 	O 	0.36932 0.56480 0.49201 -0.38100
H 	H 	0.36148 0.70586 0.45557 0.16000
C 	C 	0.49480 0.57699 0.02682 0.31100
C 	C 	0.50345 0.90045 0.07889 0.31100
C 	C 	0.40510 0.79267 0.96624 0.31000
O 	O 	0.45156 0.56038 0.05920 -0.36300
O 	O 	0.44296 0.58203 0.99847 -0.36500
O 	O 	0.50935 0.80546 0.07875 -0.39100
O 	O 	0.41963 0.90590 0.06548 -0.36700
H 	H 	0.42196 0.72848 0.02708 0.15300
C 	C 	0.75423 0.00525 0.29070 0.34200
C 	C 	0.78451 0.05464 0.18838 0.33900
Ni	Ni	0.92994 0.19076 0.24834 1.11300
Ni	Ni	0.84937 0.91948 0.23435 1.11800
O 	O 	0.82728 0.11411 0.29007 -0.38800
O 	O 	0.73637 0.93871 0.26258 -0.38300
O 	O 	0.79507 0.11948 0.21589 -0.36500
O 	O 	0.81837 0.97994 0.18944 -0.39500
O 	O 	0.95869 0.06788 0.24745 -0.70800
H 	H 	0.95483 0.05322 0.27306 0.14500
C 	C 	0.58470 0.99652 0.09941 -0.14500
C 	C 	0.69130 0.02543 0.09378 -0.02200
C 	C 	0.75790 0.04381 0.12273 0.16500
C 	C 	0.72567 0.05793 0.15678 -0.08600
C 	C 	0.62801 0.05639 0.16074 -0.06700
C 	C 	0.55619 0.02294 0.13237 0.20200
H 	H 	0.71635 0.01299 0.06788 0.06200
O 	O 	0.85081 0.04033 0.11808 -0.25700
H 	H 	0.60349 0.07063 0.18648 0.07500
O 	O 	0.45611 0.00855 0.13766 -0.27900
H 	H 	0.41400 0.93155 0.14843 0.14600
H 	H 	0.83000 0.95825 0.11912 0.14000
C 	C 	0.52613 0.93206 0.37306 -0.10000
C 	C 	0.49711 0.93187 0.33766 -0.06200
C 	C 	0.56950 0.94855 0.31036 0.18000
C 	C 	0.67279 0.96910 0.31851 -0.11800
C 	C 	0.70513 0.98278 0.35390 -0.07300
C 	C 	0.63339 0.96885 0.38100 0.17500
H 	H 	0.41527 0.90721 0.33123 0.07800
O 	O 	0.53834 0.94195 0.27581 -0.29100
H 	H 	0.78599 0.00396 0.36042 0.07300
O 	O 	0.66630 0.98336 0.41554 -0.29000
H 	H 	0.65860 0.90896 0.42313 0.15100
H 	H 	0.55646 0.02088 0.26911 0.16800
C 	C 	0.56336 0.93997 0.52048 -0.14800
C 	C 	0.45267 0.85948 0.53427 -0.09300
H 	H 	0.62169 0.91118 0.52227 0.07900
H 	H 	0.44706 0.82197 0.56022 0.07200
C 	C 	0.87083 0.47401 0.46058 -0.09200
H 	H 	0.84136 0.47588 0.43433 0.07900
C 	C 	0.54107 0.53988 0.50735 -0.11000
C 	C 	0.50527 0.54036 0.47042 -0.11400
H 	H 	0.52678 0.58884 0.52733 0.08600
H 	H 	0.54352 0.52180 0.44857 0.08500
C 	C 	0.90446 0.18389 0.69092 -0.09400
C 	C 	0.92625 0.19732 0.65468 -0.05800
C 	C 	0.85112 0.19490 0.63104 0.19400
C 	C 	0.75508 0.18691 0.64384 -0.11400
C 	C 	0.73487 0.17761 0.68037 -0.04500
C 	C 	0.80958 0.17681 0.70394 0.17000
H 	H 	0.99900 0.20221 0.64457 0.07000
O 	O 	0.87212 0.20147 0.59543 -0.33400
H 	H 	0.66168 0.17139 0.69050 0.06500
O 	O 	0.78760 0.16396 0.73952 -0.28100
H 	H 	0.81798 0.24275 0.74875 0.15600
H 	H 	0.84620 0.12157 0.58788 0.15500
C 	C 	0.90661 0.57347 0.61748 -0.09200
C 	C 	0.94517 0.68657 0.60622 -0.06200
C 	C 	0.96465 0.77203 0.63079 0.17600
C 	C 	0.95637 0.74738 0.66726 -0.10800
C 	C 	0.93132 0.63777 0.67861 -0.05700
C 	C 	0.90650 0.55091 0.65392 0.16700
H 	H 	0.94845 0.70568 0.57821 0.06300
H 	H 	0.93085 0.61958 0.70657 0.06500
O 	O 	0.87640 0.44272 0.66558 -0.27700
H 	H 	0.80025 0.40985 0.67235 0.15400
C 	C 	0.92004 0.44089 0.02092 -0.12400
H 	H 	0.91420 0.37701 0.03981 0.08700
C 	C 	0.59181 0.94054 0.96759 -0.16900
C 	C 	0.50284 0.83591 0.95211 -0.09700
H 	H 	0.62357 0.93193 0.99274 0.08600
C 	C 	0.63748 0.58954 0.98714 -0.09500
C 	C 	0.58314 0.56820 0.02224 -0.11700
H 	H 	0.67592 0.67553 0.97616 0.07700
H 	H 	0.61774 0.54803 0.04475 0.08400
C 	C 	0.98401 0.29479 0.90074 -0.11800
C 	C 	0.96071 0.18000 0.89988 -0.04800
C 	C 	0.98302 0.13652 0.86943 0.14900
C 	C 	0.03770 0.21032 0.84112 -0.07800
C 	C 	0.08122 0.32898 0.84552 -0.06500
C 	C 	0.05692 0.37148 0.87583 0.18800
H 	H 	0.91512 0.12203 0.92118 0.07000
O 	O 	0.95361 0.02290 0.86779 -0.25300
H 	H 	0.87997 0.98444 0.85834 0.12300
C 	C 	0.82644 0.47132 0.81824 -0.10100
C 	C 	0.93233 0.50084 0.81068 -0.08200
C 	C 	0.00219 0.60914 0.79670 0.20100
C 	C 	0.96219 0.68204 0.78696 -0.13700
C 	C 	0.85144 0.63901 0.78644 -0.04300
C 	C 	0.78321 0.53213 0.80132 0.16600
H 	H 	0.96301 0.44588 0.81934 0.06400
H 	H 	0.81884 0.69078 0.77627 0.05200
O 	O 	0.67597 0.49431 0.80343 -0.28600
H 	H 	0.64539 0.44699 0.78205 0.14800
