data_crystal

_cell_length_a 18.90793
_cell_length_b 18.07933
_cell_length_c 37.46759
_cell_angle_alpha 90.76697
_cell_angle_beta  90.87717
_cell_angle_gamma 113.67629

_symmetry_space_group_name_	'P 1'
_symmetry_space_group_name_H-M	'P 1'

loop_
_symmetry_equiv_pos_as_xyz
  x,y,z

loop_
_atom_site_label
_atom_site_type_symbol
_atom_site_fract_x
_atom_site_fract_y
_atom_site_fract_z
_atom_site_charge
C 	C 	0.01724 0.96427 0.67931 -0.04600
H 	H 	0.01714 0.94213 0.65147 0.06600
C 	C 	0.01718 0.01687 0.74621 -0.03200
H 	H 	0.01691 0.03888 0.77404 0.05500
C 	C 	0.09202 0.03515 0.69164 0.01600
C 	C 	0.09222 0.06198 0.72607 -0.00900
Ni	Ni	0.31596 0.62355 0.43657 1.10200
O 	O 	0.20908 0.57991 0.46078 -0.32900
O 	O 	0.18655 0.47082 0.40870 -0.39800
O 	O 	0.28775 0.63546 0.38546 -0.69900
O 	O 	0.30924 0.50905 0.43000 -0.36000
O 	O 	0.24987 0.73948 0.33744 -0.37200
O 	O 	0.14451 0.61908 0.33747 -0.38200
Ni	Ni	0.18061 0.55720 0.37588 1.07300
O 	O 	0.14153 0.60771 0.41548 -0.36800
C 	C 	0.14691 0.58964 0.44892 0.30000
C 	C 	0.17598 0.69745 0.33164 0.30300
C 	C 	0.24963 0.45730 0.41200 0.30200
O 	O 	0.32693 0.69612 0.04431 -0.69400
Ni	Ni	0.22979 0.68857 0.06755 1.10600
Ni	Ni	0.31694 0.58561 0.03554 1.10400
O 	O 	0.23582 0.51543 0.07072 -0.33300
O 	O 	0.14880 0.59459 0.03811 -0.32300
O 	O 	0.14382 0.71305 0.09093 -0.34600
O 	O 	0.20463 0.84593 0.07625 -0.38200
H 	H 	0.33101 0.72380 0.02134 0.23700
C 	C 	0.22532 0.53914 0.10274 0.30700
C 	C 	0.16246 0.56368 0.00793 0.29800
C 	C 	0.14883 0.78792 0.09262 0.27300
O 	O 	0.22665 0.61175 0.10809 -0.38200
O 	O 	0.23250 0.57145 0.99921 -0.34100
C 	C 	0.12915 0.35172 0.17924 0.05200
C 	C 	0.10720 0.41723 0.17896 -0.05600
C 	C 	0.14087 0.48033 0.15506 0.03200
C 	C 	0.05200 0.22246 0.21772 0.00800
C 	C 	0.22026 0.41376 0.13230 0.03200
C 	C 	0.18664 0.35089 0.15624 -0.05300
C 	C 	0.08790 0.28202 0.20076 -0.01300
C 	C 	0.19660 0.47818 0.13108 -0.05800
H 	H 	0.12175 0.52933 0.15443 0.05600
H 	H 	0.26370 0.41162 0.11427 0.06000
H 	H 	0.20411 0.30067 0.15629 0.07000
C 	C 	0.06039 0.77373 0.14292 0.01800
C 	C 	0.06593 0.86530 0.09528 0.02300
C 	C 	0.02460 0.89855 0.11588 -0.05900
C 	C 	0.08761 0.80573 0.10950 -0.07400
H 	H 	0.07576 0.72696 0.15397 0.04200
H 	H 	0.08464 0.88882 0.06903 0.06200
C 	C 	0.20036 0.27764 0.33537 0.05800
C 	C 	0.24889 0.35648 0.32638 -0.06900
C 	C 	0.27893 0.41588 0.35322 0.01900
C 	C 	0.08745 0.18804 0.29149 0.01200
C 	C 	0.22332 0.31512 0.39807 0.04100
C 	C 	0.19442 0.25550 0.37126 -0.06300
C 	C 	0.14123 0.22894 0.31042 -0.02000
C 	C 	0.25871 0.39646 0.38882 -0.09700
H 	H 	0.25666 0.37352 0.29862 0.05800
H 	H 	0.30959 0.47839 0.34596 0.00900
H 	H 	0.21047 0.29903 0.42569 0.06000
H 	H 	0.15993 0.19368 0.37844 0.08200
C 	C 	0.05480 0.83086 0.28835 0.05400
C 	C 	0.12634 0.84043 0.27459 -0.06300
C 	C 	0.16408 0.79306 0.28707 0.02700
C 	C 	0.99434 0.93466 0.27095 0.01400
C 	C 	0.05627 0.72241 0.32534 0.03300
C 	C 	0.01887 0.77034 0.31303 -0.05000
C 	C 	0.02104 0.88670 0.27899 -0.01600
C 	C 	0.13024 0.73546 0.31332 -0.07400
H 	H 	0.15380 0.88619 0.25501 0.05600
H 	H 	0.22054 0.80271 0.27710 0.04200
H 	H 	0.02939 0.67783 0.34544 0.08300
H 	H 	0.96309 0.76200 0.32348 0.08300
C 	C 	0.05433 0.48033 0.48459 0.05700
C 	C 	0.07539 0.55673 0.46994 0.00700
H 	H 	0.09265 0.44940 0.48175 0.09500
F 	F 	0.03814 0.68176 0.42312 -0.43800
F 	F 	0.12484 0.72907 0.46877 -0.42300
F 	F 	0.03766 0.35323 0.52634 -0.43300
C 	C 	0.15767 0.07060 0.66844 0.00700
C 	C 	0.21296 0.10075 0.64954 -0.00800
H 	H 	0.09855 0.83170 0.68326 0.05900
C 	C 	0.08893 0.55629 0.95225 0.05400
C 	C 	0.09791 0.51929 0.98352 0.01200
C 	C 	0.04219 0.44237 0.99218 -0.08600
C 	C 	0.05652 0.39511 0.02257 0.78000
H 	H 	0.13406 0.61324 0.94481 0.09800
F 	F 	0.00373 0.31538 0.02147 -0.42400
F 	F 	0.05030 0.42967 0.05487 -0.43300
F 	F 	0.12961 0.39546 0.02031 -0.44300
F 	F 	0.29889 0.88767 0.96678 -0.43300
H 	H 	0.00419 0.18455 0.72905 0.05400
C 	C 	0.22550 0.21626 0.79152 -0.01700
C 	C 	0.16626 0.17967 0.76612 -0.03900
C 	C 	0.22387 0.08644 0.74940 -0.04100
C 	C 	0.28360 0.12390 0.77432 -0.02000
C 	C 	0.16391 0.11296 0.74572 0.02700
H 	H 	0.12017 0.20047 0.76358 0.05400
H 	H 	0.22198 0.03408 0.73434 0.05300
H 	H 	0.06542 0.83132 0.77507 0.06100
H 	H 	0.32440 0.62809 0.36865 0.16500
H 	H 	0.32829 0.10125 0.77780 0.04600
H 	H 	0.22501 0.26532 0.80831 0.06200
C 	C 	0.03957 0.78895 0.68683 -0.03400
C 	C 	0.00598 0.90127 0.70841 -0.00100
C 	C 	0.28299 0.18683 0.79633 -0.00400
H 	H 	0.05998 0.68814 0.66584 0.07000
H 	H 	0.23109 0.20883 0.59795 0.08100
O 	O 	0.31910 0.73805 0.43945 -0.69500
Ni	Ni	0.29550 0.75062 0.38765 1.11000
O 	O 	0.36911 0.63015 0.48519 -0.31000
O 	O 	0.30082 0.86485 0.39158 -0.32100
H 	H 	0.27938 0.74274 0.45512 0.23300
Ni	Ni	0.40839 0.76861 0.08046 1.11000
O 	O 	0.40790 0.60122 0.07017 -0.39400
O 	O 	0.31249 0.77568 0.09854 -0.70100
Ni	Ni	0.32024 0.88515 0.09221 1.07300
H 	H 	0.30686 0.76223 0.12416 0.15700
O 	O 	0.34545 0.88780 0.03972 -0.36200
F 	F 	0.20988 0.92989 0.43151 -0.41300
F 	F 	0.23269 0.01783 0.47737 -0.42400
F 	F 	0.36425 0.60251 0.56129 -0.42200
C 	C 	0.27951 0.13733 0.62719 0.05600
C 	C 	0.34377 0.11781 0.63153 -0.05900
C 	C 	0.28029 0.19301 0.60135 -0.05300
H 	H 	0.34382 0.07510 0.65154 0.06300
C 	C 	0.37025 0.89910 0.95347 0.77900
F 	F 	0.36775 0.90742 0.91684 -0.42900
F 	F 	0.38490 0.83130 0.95986 -0.41200
F 	F 	0.45323 0.71530 0.99292 -0.47000
C 	C 	0.33606 0.21404 0.82619 0.06400
H 	H 	0.06278 0.41842 0.19660 0.06400
C 	C 	0.00494 0.92781 0.74283 -0.00800
C 	C 	0.26383 0.97357 0.45751 0.77800
C 	C 	0.00793 0.82067 0.78393 -0.03100
F 	F 	0.27853 0.92064 0.47971 -0.44500
O 	O 	0.46540 0.26958 0.52829 -0.38400
O 	O 	0.44932 0.76257 0.49317 -0.32800
Ni	Ni	0.42210 0.82186 0.45120 1.09000
O 	O 	0.46913 0.77315 0.41403 -0.41900
C 	C 	0.46826 0.79244 0.38040 0.29300
C 	C 	0.43832 0.68603 0.49211 0.28100
C 	C 	0.35964 0.92000 0.40858 0.29600
O 	O 	0.40423 0.79231 0.36531 -0.36400
O 	O 	0.42136 0.90624 0.41603 -0.38800
O 	O 	0.49350 0.73097 0.06630 -0.29200
O 	O 	0.45291 0.86065 0.04409 -0.29700
O 	O 	0.43480 0.94341 0.10742 -0.38900
O 	O 	0.48100 0.84503 0.11719 -0.36400
C 	C 	0.47679 0.65358 0.06203 0.27700
C 	C 	0.41530 0.90084 0.02975 0.30900
C 	C 	0.47379 0.91172 0.12743 0.29700
C 	C 	0.36609 0.00296 0.41036 0.00700
C 	C 	0.33805 0.02875 0.44055 -0.10500
C 	C 	0.38588 0.10115 0.45786 0.05600
H 	H 	0.37108 0.11653 0.48398 0.07800
C 	C 	0.55402 0.65545 0.48659 0.04600
C 	C 	0.49737 0.66238 0.50839 0.00300
C 	C 	0.49461 0.64121 0.54473 -0.08900
C 	C 	0.43901 0.65568 0.56986 0.78000
H 	H 	0.55790 0.67525 0.45924 0.06400
C 	C 	0.40822 0.15315 0.60992 0.02800
C 	C 	0.34466 0.22858 0.57975 0.03400
C 	C 	0.40899 0.20857 0.58371 -0.07500
H 	H 	0.45697 0.13665 0.61331 0.04900
H 	H 	0.34446 0.27170 0.55999 0.05900
C 	C 	0.46435 0.04592 0.95270 0.05900
C 	C 	0.45694 0.97068 0.00699 0.01100
C 	C 	0.43217 0.97315 0.97136 -0.08400
H 	H 	0.44332 0.04957 0.92599 0.07600
C 	C 	0.55789 0.60096 0.97922 0.05500
C 	C 	0.52525 0.62640 0.03946 -0.00500
C 	C 	0.53763 0.64919 0.00320 -0.11400
C 	C 	0.52897 0.72428 0.98993 0.78900
H 	H 	0.56310 0.61467 0.95106 0.08200
F 	F 	0.54871 0.73842 0.95447 -0.42400
F 	F 	0.57697 0.79126 0.00972 -0.42000
C 	C 	0.38205 0.23101 0.85065 -0.10100
F 	F 	0.64412 0.53257 0.46540 -0.48100
O 	O 	0.46586 0.31174 0.89734 -0.35300
C 	C 	0.43920 0.24403 0.87811 0.30500
O 	O 	0.46680 0.18828 0.88320 -0.39300
O 	O 	0.53936 0.28452 0.46149 -0.33200
O 	O 	0.55646 0.44419 0.54254 -0.39100
Ni	Ni	0.54760 0.36243 0.50179 1.10000
C 	C 	0.47590 0.24384 0.55974 0.30600
C 	C 	0.51724 0.20647 0.46656 0.30000
C 	C 	0.52912 0.96180 0.15312 -0.07800
C 	C 	0.54745 0.88578 0.33374 0.02800
C 	C 	0.54288 0.83460 0.36238 -0.07700
H 	H 	0.49572 0.88949 0.32271 0.05300
C 	C 	0.42513 0.06047 0.39109 0.05400
C 	C 	0.45680 0.14970 0.44313 -0.00000
H 	H 	0.44104 0.04283 0.36571 0.08000
C 	C 	0.54104 0.60193 0.55696 0.04800
C 	C 	0.59088 0.58567 0.53378 0.00500
C 	C 	0.60262 0.61912 0.49929 -0.10700
C 	C 	0.66405 0.61247 0.47542 0.78300
F 	F 	0.45487 0.64448 0.60509 -0.43800
F 	F 	0.44467 0.73406 0.56705 -0.42900
F 	F 	0.67255 0.65704 0.44480 -0.44000
C 	C 	0.52423 0.11404 0.96805 0.01200
C 	C 	0.51770 0.03838 0.02219 0.05900
H 	H 	0.53681 0.03551 0.04934 0.09400
C 	C 	0.57092 0.53443 0.99114 0.00000
C 	C 	0.54396 0.56341 0.05177 0.05300
H 	H 	0.53526 0.54701 0.07958 0.08100
C 	C 	0.47260 0.13429 0.40767 -0.09500
C 	C 	0.01829 0.70740 0.67792 -0.01700
C 	C 	0.97141 0.41159 0.97324 0.05500
O 	O 	0.54932 0.41035 0.95884 -0.30100
O 	O 	0.54128 0.23800 0.56798 -0.38800
O 	O 	0.54217 0.17808 0.49452 -0.34600
C 	C 	0.58058 0.99357 0.17459 0.06200
H 	H 	0.53412 0.57828 0.58371 0.07900
C 	C 	0.55219 0.11021 0.00291 -0.08400
C 	C 	0.56871 0.51823 0.02805 -0.10300
H 	H 	0.01223 0.94790 0.10555 0.07300
H 	H 	0.93298 0.25895 0.75592 0.06000
C 	C 	0.01902 0.80704 0.16349 -0.06200
C 	C 	0.00418 0.87202 0.15064 0.05000
H 	H 	0.00269 0.78567 0.19027 0.06000
C 	C 	0.94444 0.15223 0.73618 -0.03900
C 	C 	0.98119 0.91977 0.17505 -0.01300
C 	C 	0.96549 0.95954 0.19705 0.00400
C 	C 	0.02461 0.59671 0.47245 -0.08700
C 	C 	0.04829 0.68259 0.45976 0.78300
Ni	Ni	0.73500 0.36622 0.88955 1.10600
O 	O 	0.62068 0.31968 0.87500 -0.70200
Ni	Ni	0.57497 0.34871 0.91802 1.10800
O 	O 	0.76189 0.32680 0.84220 -0.34200
O 	O 	0.67873 0.19738 0.85345 -0.38600
O 	O 	0.74149 0.47089 0.86600 -0.37700
Ni	Ni	0.57555 0.20295 0.86886 1.07300
O 	O 	0.83493 0.45061 0.96260 -0.35000
O 	O 	0.60344 0.18419 0.91970 -0.37600
O 	O 	0.68633 0.37800 0.93514 -0.69600
O 	O 	0.85031 0.42057 0.90361 -0.30900
O 	O 	0.65746 0.52241 0.94739 -0.38000
Ni	Ni	0.74733 0.48604 0.95448 1.10800
H 	H 	0.61070 0.34570 0.85354 0.16400
H 	H 	0.68895 0.33769 0.95212 0.22400
C 	C 	0.56046 0.18682 0.94627 0.30700
O 	O 	0.80657 0.55392 0.91282 -0.34000
C 	C 	0.72823 0.25012 0.83236 0.29000
C 	C 	0.78342 0.54342 0.87923 0.33100
C 	C 	0.59361 0.48706 0.96512 0.28700
C 	C 	0.87795 0.44211 0.93661 0.29300
O 	O 	0.53629 0.24575 0.94884 -0.30300
Ni	Ni	0.62484 0.24720 0.53175 1.10600
O 	O 	0.70051 0.31897 0.57021 -0.69900
Ni	Ni	0.70906 0.42855 0.55596 1.10600
O 	O 	0.63244 0.14502 0.55220 -0.34500
O 	O 	0.76332 0.20328 0.54677 -0.34600
Ni	Ni	0.80259 0.31808 0.57001 1.10700
O 	O 	0.81995 0.35842 0.51932 -0.33300
O 	O 	0.77253 0.48881 0.59887 -0.36400
O 	O 	0.64683 0.35841 0.51399 -0.69300
O 	O 	0.68413 0.52661 0.54406 -0.30100
H 	H 	0.67894 0.30695 0.59439 0.15900
H 	H 	0.67897 0.36817 0.49252 0.20900
C 	C 	0.84796 0.43565 0.51444 0.28900
C 	C 	0.70105 0.14378 0.55776 0.26800
C 	C 	0.83107 0.47383 0.61116 0.28700
C 	C 	0.61143 0.51707 0.54182 0.27700
O 	O 	0.80937 0.47761 0.52614 -0.31900
O 	O 	0.86132 0.43260 0.59152 -0.33900
C 	C 	0.95398 0.99491 0.68719 0.00900
C 	C 	0.95444 0.02233 0.72132 -0.00700
C 	C 	0.93602 0.08171 0.21880 -0.04300
H 	H 	0.92498 0.09148 0.19038 0.06400
C 	C 	0.96179 0.05755 0.28689 -0.03700
H 	H 	0.97280 0.04789 0.31534 0.06300
C 	C 	0.95036 0.00506 0.22563 0.01500
C 	C 	0.00634 0.14929 0.23651 0.00800
C 	C 	0.86984 0.07303 0.24406 -0.00200
C 	C 	0.96374 0.99294 0.26057 -0.00300
C 	C 	0.01958 0.13679 0.27143 0.00600
C 	C 	0.88245 0.05914 0.27913 0.00900
C 	C 	0.64497 0.01786 0.19911 0.01200
C 	C 	0.66250 0.95735 0.21489 -0.02700
C 	C 	0.73646 0.97492 0.22840 -0.04100
C 	C 	0.77289 0.11656 0.21573 -0.03200
C 	C 	0.69980 0.09798 0.20017 -0.01600
C 	C 	0.79158 0.05477 0.22953 0.03000
H 	H 	0.62047 0.89523 0.21404 0.05100
H 	H 	0.75122 0.92640 0.23785 0.05400
H 	H 	0.81550 0.17836 0.21619 0.06400
H 	H 	0.68706 0.14507 0.18767 0.07600
C 	C 	0.68706 0.93225 0.33426 0.05800
C 	C 	0.68294 0.87976 0.36213 -0.05700
C 	C 	0.61116 0.83105 0.37617 0.02500
C 	C 	0.81794 0.01710 0.30208 0.01900
C 	C 	0.61910 0.93436 0.31989 -0.06000
C 	C 	0.76007 0.97910 0.31817 -0.01600
H 	H 	0.73510 0.87650 0.37289 0.08200
H 	H 	0.60881 0.79136 0.39794 0.06400
H 	H 	0.62172 0.97363 0.29788 0.06800
C 	C 	0.54225 0.19337 0.38865 0.78100
F 	F 	0.54360 0.17000 0.35341 -0.44100
F 	F 	0.60937 0.19808 0.40571 -0.44100
F 	F 	0.54027 0.26901 0.38888 -0.42700
C 	C 	0.94990 0.55488 0.48591 0.05100
C 	C 	0.92838 0.47792 0.50074 0.01700
C 	C 	0.98406 0.44255 0.50217 -0.09500
H 	H 	0.90834 0.58220 0.48473 0.11200
C 	C 	0.96997 0.36476 0.52179 0.78500
F 	F 	0.00408 0.71896 0.47533 -0.40600
F 	F 	0.91838 0.29919 0.50237 -0.44600
F 	F 	0.94243 0.36721 0.55547 -0.51600
F 	F 	0.73454 0.64144 0.49353 -0.42000
C 	C 	0.78992 0.00766 0.61814 0.05600
C 	C 	0.79578 0.00665 0.58095 -0.04900
C 	C 	0.75469 0.03960 0.55967 0.03000
C 	C 	0.89743 0.99476 0.66065 0.00900
C 	C 	0.69468 0.06563 0.61223 0.01600
C 	C 	0.73552 0.03234 0.63352 -0.05900
C 	C 	0.84844 0.99830 0.64054 -0.01400
C 	C 	0.70925 0.07571 0.57562 -0.06700
H 	H 	0.83607 0.98562 0.56870 0.07900
H 	H 	0.76439 0.04453 0.53121 0.06800
H 	H 	0.65808 0.09118 0.62477 0.03500
H 	H 	0.72910 0.03140 0.66224 0.05800
C 	C 	0.94159 0.65228 0.68170 0.00700
C 	C 	0.88859 0.67785 0.69770 -0.02100
C 	C 	0.90839 0.75960 0.70456 -0.03600
C 	C 	0.87836 0.52814 0.63804 -0.07000
C 	C 	0.91153 0.58175 0.65915 0.06300
C 	C 	0.98404 0.81548 0.69925 0.02300
H 	H 	0.82942 0.63537 0.70118 0.05300
H 	H 	0.86484 0.77970 0.71373 0.05200
C 	C 	0.95795 0.45490 0.94509 0.01300
C 	C 	0.02022 0.52253 0.93183 -0.09100
H 	H 	0.92463 0.35730 0.98206 0.10000
C 	C 	0.01228 0.56136 0.89720 0.78000
F 	F 	0.96598 0.60321 0.90222 -0.44200
F 	F 	0.98021 0.50303 0.87061 -0.43200
F 	F 	0.08338 0.61498 0.88562 -0.42700
C 	C 	0.61838 0.18254 0.01956 0.77600
F 	F 	0.59750 0.24747 0.02202 -0.40200
F 	F 	0.68282 0.20308 0.99858 -0.43400
F 	F 	0.63810 0.16678 0.05349 -0.41900
C 	C 	0.58879 0.45033 0.04201 0.78600
F 	F 	0.65771 0.45487 0.02804 -0.46400
F 	F 	0.53057 0.37674 0.03235 -0.40900
F 	F 	0.59715 0.45432 0.07885 -0.42700
C 	C 	0.82703 0.15270 0.76085 -0.00000
C 	C 	0.78945 0.06949 0.75371 -0.02700
C 	C 	0.83027 0.02718 0.73932 -0.03800
C 	C 	0.76310 0.22029 0.80538 -0.08100
C 	C 	0.90380 0.19445 0.75084 -0.02400
C 	C 	0.79215 0.19124 0.78417 0.05600
C 	C 	0.90865 0.06807 0.73178 0.02200
H 	H 	0.72979 0.03696 0.76104 0.05300
H 	H 	0.80171 0.96238 0.73508 0.04800
C 	C 	0.89242 0.73717 0.81536 0.01400
C 	C 	0.96828 0.75386 0.80509 -0.01900
C 	C 	0.81836 0.60969 0.85532 -0.04800
C 	C 	0.89729 0.85648 0.78450 -0.03600
C 	C 	0.85773 0.78972 0.80569 -0.02500
C 	C 	0.85104 0.66724 0.83670 0.07300
C 	C 	0.97149 0.87052 0.77236 0.02200
H 	H 	0.99616 0.71451 0.81301 0.09100
H 	H 	0.86873 0.89472 0.77602 0.05000
H 	H 	0.79972 0.77824 0.81407 0.05900
