data_crystal

_cell_length_a 26.89185
_cell_length_b 29.09251
_cell_length_c 40.72239
_cell_angle_alpha 60.84928
_cell_angle_beta  118.85724
_cell_angle_gamma 133.27823

_symmetry_space_group_name_	'P 1'
_symmetry_space_group_name_H-M	'P 1'

loop_
_symmetry_equiv_pos_as_xyz
  x,y,z

loop_
_atom_site_label
_atom_site_type_symbol
_atom_site_fract_x
_atom_site_fract_y
_atom_site_fract_z
_atom_site_charge
Co	Co	0.05555 0.01410 0.06876 1.17000
Co	Co	0.99097 0.05470 0.09174 1.17600
C 	C 	0.20086 0.04454 0.09721 0.28500
Co	Co	0.08592 0.91671 0.07857 1.17700
O 	O 	0.04999 0.08612 0.05821 -0.43500
C 	C 	0.05341 0.13895 0.14353 0.35100
C 	C 	0.08172 0.84711 0.16149 0.36300
O 	O 	0.10776 0.98962 0.02779 -0.34600
O 	O 	0.00807 0.09396 0.16553 -0.40400
O 	O 	0.06759 0.12276 0.12546 -0.37100
O 	O 	0.07052 0.84173 0.12810 -0.39700
O 	O 	0.06066 0.87526 0.16343 -0.36500
O 	O 	0.03445 0.93852 0.08774 -0.73900
O 	O 	0.17877 0.98359 0.10846 -0.30900
O 	O 	0.16241 0.05956 0.09509 -0.38000
Co	Co	0.07204 0.01218 0.56866 1.16600
Co	Co	0.01603 0.06448 0.58971 1.18700
C 	C 	0.21137 0.04900 0.57565 0.29900
Co	Co	0.09703 0.90691 0.58431 1.17900
O 	O 	0.06320 0.08445 0.55312 -0.43300
C 	C 	0.08038 0.16438 0.63201 0.35500
C 	C 	0.12845 0.87134 0.66966 0.35300
O 	O 	0.03921 0.11824 0.65644 -0.37700
O 	O 	0.08721 0.15082 0.60813 -0.34800
O 	O 	0.15768 0.91216 0.63988 -0.35100
O 	O 	0.07679 0.86474 0.67294 -0.36000
O 	O 	0.06190 0.94169 0.59633 -0.73800
O 	O 	0.17484 0.99995 0.56076 -0.33800
O 	O 	0.18005 0.06685 0.57842 -0.35000
C 	C 	0.02677 0.99297 0.89442 0.03000
C 	C 	0.01086 0.98274 0.82408 0.08000
C 	C 	0.04948 0.96420 0.85862 -0.03300
C 	C 	0.05742 0.96930 0.89367 -0.00400
H 	H 	0.07326 0.94579 0.85842 0.08100
H 	H 	0.08732 0.95478 0.92019 0.06800
C 	C 	0.20046 0.45500 0.62942 -0.11600
C 	C 	0.17185 0.39185 0.65354 0.00900
C 	C 	0.15858 0.34119 0.64368 0.02000
H 	H 	0.20811 0.46566 0.60210 0.14500
C 	C 	0.10921 0.32015 0.60992 0.30000
C 	C 	0.09020 0.26638 0.60344 -0.05100
C 	C 	0.11882 0.23226 0.63112 -0.13600
C 	C 	0.17279 0.25692 0.66300 0.38200
C 	C 	0.19301 0.31156 0.66907 -0.13300
F 	F 	0.07704 0.34960 0.58447 -0.38800
H 	H 	0.04936 0.24831 0.57837 0.12500
F 	F 	0.20245 0.22547 0.68937 -0.42300
C 	C 	0.17774 0.68557 0.69246 0.32400
C 	C 	0.18381 0.74165 0.72628 0.02200
F 	F 	0.13899 0.70317 0.65987 -0.40700
H 	H 	0.18697 0.64674 0.66406 0.12300
C 	C 	0.11448 0.71740 0.72081 0.30700
C 	C 	0.09736 0.76057 0.70681 -0.04900
C 	C 	0.14932 0.82804 0.69800 -0.13600
C 	C 	0.22004 0.85171 0.70895 0.38500
C 	C 	0.23715 0.80855 0.72301 -0.14100
H 	H 	0.04282 0.74166 0.69956 0.10500
F 	F 	0.27157 0.91678 0.70322 -0.40500
H 	H 	0.29120 0.82750 0.72848 0.13900
C 	C 	0.09177 0.29975 0.11966 -0.13300
C 	C 	0.13279 0.31620 0.15543 0.02600
C 	C 	0.16046 0.28145 0.18407 0.28500
C 	C 	0.14106 0.22675 0.17838 -0.04500
C 	C 	0.09544 0.20732 0.14374 -0.14400
C 	C 	0.07520 0.24691 0.11343 0.37800
C 	C 	0.14526 0.36865 0.16319 0.00300
H 	H 	0.15825 0.19736 0.20171 0.09700
F 	F 	0.03519 0.23141 0.07881 -0.40800
H 	H 	0.07105 0.32673 0.09706 0.15600
H 	H 	0.10415 0.30765 0.21464 0.13000
C 	C 	0.07165 0.69936 0.22001 -0.14200
C 	C 	0.14090 0.72490 0.22420 0.02800
C 	C 	0.17481 0.83386 0.20819 -0.05300
C 	C 	0.10370 0.80915 0.19657 -0.13300
C 	C 	0.05335 0.74145 0.20702 0.37800
H 	H 	0.21477 0.88605 0.20221 0.13200
H 	H 	0.03109 0.64738 0.22384 0.13700
F 	F 	0.28932 0.18304 0.53692 -0.41800
H 	H 	0.24407 0.15736 0.04152 0.10000
H 	H 	0.13510 0.51342 0.19951 0.12300
H 	H 	0.17591 0.53236 0.70126 0.10400
C 	C 	0.16032 0.37829 0.68840 0.30700
C 	C 	0.22246 0.50519 0.64139 0.34400
F 	F 	0.12861 0.31656 0.71089 -0.41600
C 	C 	0.19786 0.70042 0.72680 0.00800
C 	C 	0.20042 0.65553 0.69113 -0.08900
F 	F 	0.06285 0.65241 0.72581 -0.39300
C 	C 	0.17455 0.43138 0.13831 0.31200
C 	C 	0.12934 0.35637 0.19606 -0.11000
F 	F 	0.19052 0.44441 0.10648 -0.40500
C 	C 	0.19342 0.79200 0.22124 0.30700
C 	C 	0.15542 0.68454 0.22366 0.00400
C 	C 	0.19568 0.66557 0.25660 0.32800
F 	F 	0.21576 0.67841 0.29049 -0.38900
H 	H 	0.10257 0.68401 0.16348 0.13400
C 	C 	0.28809 0.09079 0.58256 -0.12300
C 	C 	0.28392 0.14870 0.05820 -0.06100
C 	C 	0.27245 0.09659 0.09114 -0.12800
C 	C 	0.06111 0.00004 0.00208 0.29600
O 	O 	0.03211 0.01280 0.01189 -0.37000
O 	O 	0.97377 0.94329 0.20014 -0.36300
O 	O 	0.03524 0.98755 0.61841 -0.53600
O 	O 	0.02296 0.98658 0.51540 -0.32800
C 	C 	0.03509 0.99790 0.93086 0.15100
C 	C 	0.04471 0.00036 0.96250 -0.15900
C 	C 	0.00663 0.96693 0.32522 0.06700
C 	C 	0.01944 0.97157 0.39665 0.07400
C 	C 	0.02226 0.97069 0.43352 0.06400
C 	C 	0.99074 0.95819 0.28826 0.06300
C 	C 	0.19115 0.48174 0.14739 -0.09100
C 	C 	0.18283 0.47114 0.18251 -0.06900
C 	C 	0.14896 0.40757 0.20600 0.34300
F 	F 	0.13896 0.39609 0.23959 -0.41600
C 	C 	0.13393 0.66983 0.18899 -0.12100
C 	C 	0.00173 0.97722 0.78763 0.06200
C 	C 	0.03232 0.95565 0.50574 0.31400
C 	C 	0.03321 0.93371 0.39553 -0.02400
C 	C 	0.02678 0.93137 0.35994 -0.02300
C 	C 	0.02592 0.96670 0.46561 -0.03100
C 	C 	0.18403 0.42888 0.70080 -0.08900
C 	C 	0.21844 0.49303 0.67826 -0.07600
C 	C 	0.15564 0.63966 0.18660 0.34600
F 	F 	0.13778 0.62924 0.15226 -0.41200
C 	C 	0.19179 0.54454 0.20419 -0.08900
H 	H 	0.04778 0.90527 0.42215 0.07400
H 	H 	0.03590 0.90079 0.35943 0.07400
H 	H 	0.17928 0.41880 0.72890 0.11100
F 	F 	0.20450 0.29955 0.21776 -0.40800
O 	O 	0.03016 0.90402 0.53007 -0.34100
H 	H 	0.23322 0.32915 0.69441 0.13600
F 	F 	0.25228 0.56661 0.61838 -0.40800
C 	C 	0.32306 0.15448 0.55941 0.37400
C 	C 	0.23260 0.60307 0.21483 0.13800
C 	C 	0.22457 0.52751 0.19854 0.14000
C 	C 	0.27537 0.61710 0.72078 0.14200
C 	C 	0.23255 0.56211 0.70620 -0.11400
C 	C 	0.26279 0.54758 0.69620 0.14100
C 	C 	0.23799 0.68209 0.76027 -0.12100
C 	C 	0.24320 0.63977 0.72408 -0.06900
C 	C 	0.26027 0.65146 0.75903 0.34300
H 	H 	0.25336 0.69303 0.78693 0.13200
H 	H 	0.21606 0.53041 0.12871 0.11600
F 	F 	0.26142 0.81727 0.22732 -0.38300
C 	C 	0.21701 0.63493 0.25431 -0.08900
C 	C 	0.19871 0.62340 0.21904 -0.07000
H 	H 	0.24980 0.62221 0.27957 0.12200
C 	C 	0.32417 0.06244 0.60620 -0.06600
H 	H 	0.29795 0.01370 0.62464 0.10600
C 	C 	0.34418 0.18631 0.04489 0.29100
C 	C 	0.32546 0.08706 0.11300 0.36700
F 	F 	0.31769 0.04014 0.14660 -0.43300
O 	O 	0.01946 0.81038 0.60529 -0.39200
C 	C 	0.30576 0.64462 0.21901 -0.11400
C 	C 	0.29779 0.56772 0.20482 -0.10700
H 	H 	0.33699 0.69114 0.22535 0.10900
H 	H 	0.32300 0.55458 0.20041 0.10900
C 	C 	0.33573 0.58657 0.70195 -0.10600
C 	C 	0.34874 0.65579 0.72676 -0.08900
F 	F 	0.29969 0.63450 0.79147 -0.41700
C 	C 	0.39190 0.09456 0.60380 0.30000
C 	C 	0.39113 0.18690 0.55723 -0.13000
H 	H 	0.41674 0.23494 0.53804 0.13500
C 	C 	0.38485 0.12363 0.09928 -0.13700
C 	C 	0.39326 0.17183 0.06446 0.02100
F 	F 	0.35378 0.23540 0.01235 -0.40600
C 	C 	0.33812 0.62739 0.21335 0.14500
H 	H 	0.35879 0.57562 0.69366 0.10600
H 	H 	0.42335 0.11323 0.11512 0.13800
C 	C 	0.42442 0.15577 0.57803 0.01700
F 	F 	0.42429 0.06464 0.62481 -0.41000
C 	C 	0.37884 0.64144 0.71641 0.13800
H 	H 	0.38190 0.69863 0.73760 0.12900
F 	F 	0.42940 0.16503 0.50698 -0.41400
H 	H 	0.38473 0.17161 0.99538 0.12100
C 	C 	0.45436 0.68716 0.71665 -0.06900
F 	F 	0.44600 0.77654 0.67848 -0.40900
C 	C 	0.41189 0.67544 0.21034 -0.07400
H 	H 	0.39241 0.74005 0.15867 0.11900
C 	C 	0.49019 0.18477 0.57032 0.00700
C 	C 	0.49045 0.19040 0.53411 0.30900
C 	C 	0.45198 0.20526 0.04790 -0.00100
C 	C 	0.43836 0.20015 0.01144 -0.10700
C 	C 	0.42957 0.72848 0.17786 -0.08900
C 	C 	0.49376 0.66265 0.73256 -0.09000
C 	C 	0.48242 0.75128 0.69357 0.34900
H 	H 	0.47382 0.61413 0.75146 0.11200
C 	C 	0.46070 0.66110 0.23509 0.34500
F 	F 	0.44507 0.61100 0.26718 -0.41200
C 	C 	0.52161 0.24078 0.06894 0.31200
C 	C 	0.49400 0.23275 0.99541 0.33400
F 	F 	0.53560 0.24655 0.10406 -0.40900
F 	F 	0.48034 0.23005 0.95942 -0.41100
F 	F 	0.98486 0.71650 0.19896 -0.42200
Co	Co	0.01102 0.89098 0.62850 1.19200
O 	O 	0.98981 0.95331 0.70513 -0.33100
H 	H 	0.97876 0.03357 0.29977 0.06300
H 	H 	0.99048 0.03793 0.36247 0.07000
C 	C 	0.99460 0.00607 0.32641 -0.06800
C 	C 	0.00097 0.00836 0.36199 -0.06900
C 	C 	0.71335 0.32961 0.98426 0.13800
C 	C 	0.75629 0.39604 0.98330 -0.11200
C 	C 	0.73153 0.42084 0.98873 0.14000
C 	C 	0.66227 0.38050 0.99193 -0.11000
C 	C 	0.62218 0.31334 0.99714 0.13800
C 	C 	0.64660 0.28808 0.99190 -0.09500
H 	H 	0.80986 0.42730 0.98052 0.10300
H 	H 	0.64312 0.39996 0.99585 0.10400
H 	H 	0.61576 0.23598 0.99602 0.11600
C 	C 	0.77196 0.33592 0.51437 0.13700
C 	C 	0.80643 0.40153 0.51198 -0.09800
C 	C 	0.77901 0.41729 0.52358 0.13900
C 	C 	0.71845 0.36760 0.53804 -0.10500
C 	C 	0.68395 0.30264 0.54024 0.14000
C 	C 	0.71051 0.28673 0.52835 -0.10500
H 	H 	0.85378 0.43974 0.50115 0.11100
H 	H 	0.69747 0.37970 0.54710 0.10800
H 	H 	0.68373 0.23627 0.53014 0.10600
Co	Co	0.92213 0.92482 0.14505 1.19300
Co	Co	0.98222 0.88256 0.11924 1.19800
Co	Co	0.90462 0.02690 0.14236 1.14900
C 	C 	0.93837 0.80062 0.07047 0.35000
O 	O 	0.91142 0.09969 0.09230 -0.37500
O 	O 	0.93836 0.99879 0.12334 -0.72100
C 	C 	0.89356 0.09345 0.05774 0.36400
O 	O 	0.92398 0.85131 0.15333 -0.41500
C 	C 	0.78160 0.89484 0.13420 0.35200
O 	O 	0.96586 0.96085 0.09523 -0.54100
O 	O 	0.92149 0.07699 0.05026 -0.35700
O 	O 	0.80646 0.95645 0.11775 -0.35800
O 	O 	0.81410 0.87170 0.13886 -0.33200
C 	C 	0.94844 0.95210 0.21579 0.32200
O 	O 	0.89727 0.95833 0.19500 -0.37700
O 	O 	0.98622 0.85240 0.05063 -0.37100
O 	O 	0.91997 0.80548 0.09321 -0.32500
Co	Co	0.95424 0.94224 0.64904 1.20900
Co	Co	0.93434 0.04877 0.63702 1.15900
C 	C 	0.95371 0.78912 0.59458 0.35500
O 	O 	0.93881 0.11406 0.58359 -0.39700
O 	O 	0.97564 0.01784 0.62670 -0.78800
C 	C 	0.91538 0.09829 0.55149 0.35300
O 	O 	0.95318 0.86568 0.66049 -0.42500
C 	C 	0.81389 0.91432 0.62989 0.35000
O 	O 	0.93172 0.06630 0.54933 -0.38400
O 	O 	0.83389 0.97486 0.61592 -0.35300
O 	O 	0.84697 0.89766 0.62762 -0.35700
C 	C 	0.97118 0.97529 0.71564 0.33700
O 	O 	0.92438 0.98649 0.69176 -0.34700
O 	O 	0.93707 0.82037 0.59730 -0.36900
C 	C 	0.98825 0.01158 0.85988 -0.05000
C 	C 	0.98032 0.00649 0.82484 -0.07900
C 	C 	0.99064 0.97473 0.75568 -0.03300
H 	H 	0.96440 0.02991 0.86007 0.06200
H 	H 	0.95035 0.02094 0.79833 0.06700
C 	C 	0.97523 0.95432 0.25590 -0.05800
C 	C 	0.54539 0.78751 0.68344 -0.10900
C 	C 	0.57905 0.75906 0.69469 0.00400
C 	C 	0.55440 0.69727 0.72056 0.31100
C 	C 	0.63711 0.79224 0.67751 0.02700
F 	F 	0.58649 0.66907 0.73206 -0.40800
H 	H 	0.56593 0.83640 0.66502 0.14500
C 	C 	0.62857 0.81388 0.63708 0.29100
C 	C 	0.68574 0.85096 0.62117 -0.04000
C 	C 	0.75081 0.86412 0.64531 -0.14300
C 	C 	0.75744 0.83729 0.68535 0.37800
C 	C 	0.70161 0.80341 0.70148 -0.13500
F 	F 	0.56519 0.79963 0.61333 -0.39400
H 	H 	0.67988 0.87063 0.59016 0.11500
F 	F 	0.81890 0.84617 0.70878 -0.43800
H 	H 	0.70879 0.78669 0.73263 0.14600
C 	C 	0.52407 0.69623 0.22569 -0.12100
C 	C 	0.53943 0.74633 0.19181 0.00800
C 	C 	0.49293 0.76363 0.16851 0.32400
C 	C 	0.60427 0.78093 0.18078 0.02400
F 	F 	0.50814 0.81312 0.13612 -0.39100
H 	H 	0.56057 0.68370 0.24429 0.12900
C 	C 	0.66225 0.84266 0.18759 0.30500
C 	C 	0.72076 0.87879 0.17322 -0.04600
C 	C 	0.72220 0.85347 0.15209 -0.13700
C 	C 	0.66531 0.79052 0.14658 0.38600
C 	C 	0.60641 0.75441 0.16085 -0.13900
F 	F 	0.66108 0.86831 0.20732 -0.39300
H 	H 	0.76468 0.92705 0.17797 0.09200
F 	F 	0.66587 0.76538 0.12620 -0.40900
H 	H 	0.56179 0.70660 0.15560 0.13400
C 	C 	0.78273 0.26166 0.46571 -0.11200
C 	C 	0.83493 0.25353 0.49359 0.00300
C 	C 	0.87306 0.28113 0.52544 0.31200
C 	C 	0.85652 0.31346 0.53033 -0.08700
C 	C 	0.80125 0.31786 0.50381 -0.07100
C 	C 	0.76586 0.29363 0.47077 0.33900
C 	C 	0.84480 0.21055 0.49175 0.02100
F 	F 	0.92337 0.27333 0.55280 -0.39900
H 	H 	0.88411 0.33192 0.55588 0.12400
F 	F 	0.71293 0.29834 0.44455 -0.41900
H 	H 	0.75352 0.24121 0.44085 0.13300
C 	C 	0.79469 0.14260 0.50078 0.28900
C 	C 	0.81368 0.10157 0.51221 -0.05400
C 	C 	0.88352 0.12832 0.51663 -0.14100
C 	C 	0.92825 0.19487 0.49968 0.37700
C 	C 	0.90958 0.23622 0.48811 -0.13100
F 	F 	0.73010 0.11656 0.50216 -0.41500
H 	H 	0.77703 0.04966 0.52291 0.09000
F 	F 	0.99403 0.22097 0.50024 -0.42500
H 	H 	0.94752 0.28842 0.47934 0.14100
C 	C 	0.89088 0.56920 0.55629 -0.11200
C 	C 	0.84558 0.58806 0.53754 0.00400
C 	C 	0.78805 0.56027 0.50735 0.30800
C 	C 	0.77303 0.51062 0.49830 -0.09100
C 	C 	0.81269 0.48560 0.52072 -0.07300
C 	C 	0.87419 0.51776 0.54819 0.34700
C 	C 	0.85645 0.63424 0.55098 0.02500
F 	F 	0.74416 0.57837 0.48846 -0.40900
H 	H 	0.72643 0.48723 0.47636 0.11200
F 	F 	0.91463 0.49584 0.56923 -0.41200
H 	H 	0.93719 0.59229 0.57842 0.14300
C 	C 	0.86185 0.62204 0.59009 0.29400
C 	C 	0.88382 0.67049 0.60391 -0.04400
C 	C 	0.89984 0.73116 0.57879 -0.13700
C 	C 	0.88385 0.73925 0.53886 0.37600
C 	C 	0.86460 0.69198 0.52514 -0.13400
F 	F 	0.84856 0.56432 0.61498 -0.39500
H 	H 	0.89386 0.66281 0.63466 0.10900
F 	F 	0.89207 0.79501 0.51363 -0.42400
H 	H 	0.85845 0.70126 0.49471 0.14200
C 	C 	0.55311 0.20844 0.59872 -0.11600
C 	C 	0.55392 0.22394 0.52545 -0.09200
C 	C 	0.61748 0.25197 0.55287 -0.07500
C 	C 	0.61651 0.24141 0.59018 0.34100
H 	H 	0.55409 0.23118 0.49675 0.11600
F 	F 	0.67750 0.26631 0.61743 -0.41300
H 	H 	0.55311 0.20293 0.62703 0.13700
C 	C 	0.72988 0.23516 0.95600 -0.11300
C 	C 	0.78622 0.23591 0.98566 0.00100
C 	C 	0.82224 0.27215 0.01281 0.31400
C 	C 	0.80004 0.30484 0.01134 -0.09000
C 	C 	0.74184 0.30189 0.98268 -0.07600
C 	C 	0.70780 0.26815 0.95441 0.34400
C 	C 	0.80237 0.19297 0.99113 0.02000
F 	F 	0.87678 0.27320 0.04168 -0.41400
H 	H 	0.82661 0.33070 0.03325 0.10500
F 	F 	0.65254 0.26625 0.92594 -0.40800
H 	H 	0.70205 0.20760 0.93483 0.13200
C 	C 	0.76011 0.12629 0.00848 0.29600
C 	C 	0.78651 0.08975 0.02558 -0.05500
C 	C 	0.85536 0.11973 0.02576 -0.13600
C 	C 	0.89302 0.18347 0.00316 0.39700
C 	C 	0.86680 0.22023 0.98616 -0.13400
F 	F 	0.69622 0.09846 0.01195 -0.41200
H 	H 	0.75604 0.03985 0.04188 0.09200
F 	F 	0.95786 0.21179 0.00082 -0.39600
H 	H 	0.89876 0.27111 0.97159 0.14000
C 	C 	0.81060 0.58740 0.98972 -0.13000
C 	C 	0.83540 0.58240 0.02972 0.00700
C 	C 	0.83723 0.52901 0.05498 0.32600
C 	C 	0.81182 0.47995 0.04046 -0.09400
C 	C 	0.78126 0.48206 0.00089 -0.07300
C 	C 	0.78330 0.53726 0.97536 0.34200
C 	C 	0.85914 0.63291 0.04507 0.02300
F 	F 	0.86051 0.52317 0.09374 -0.39300
H 	H 	0.81053 0.43753 0.06035 0.10900
F 	F 	0.75496 0.54043 0.93693 -0.41200
H 	H 	0.81068 0.62924 0.96992 0.12400
C 	C 	0.92893 0.66996 0.06548 0.30400
C 	C 	0.95246 0.72052 0.07771 -0.05200
C 	C 	0.90747 0.73632 0.06845 -0.13200
C 	C 	0.83671 0.69724 0.04983 0.38500
C 	C 	0.81254 0.64545 0.03834 -0.14400
F 	F 	0.97480 0.65893 0.07189 -0.39200
H 	H 	0.00706 0.75017 0.09229 0.09200
F 	F 	0.79242 0.71157 0.04099 -0.41200
H 	H 	0.75820 0.61626 0.02325 0.13300
C 	C 	0.57699 0.27182 0.05337 -0.09600
C 	C 	0.56357 0.26969 0.01608 -0.07000
H 	H 	0.63062 0.29996 0.06958 0.10800
