data_crystal

_cell_length_a 19.86160
_cell_length_b 18.80433
_cell_length_c 46.65532
_cell_angle_alpha 90.32439
_cell_angle_beta  90.83677
_cell_angle_gamma 110.74552

_symmetry_space_group_name_	'P 1'
_symmetry_space_group_name_H-M	'P 1'

loop_
_symmetry_equiv_pos_as_xyz
  x,y,z

loop_
_atom_site_label
_atom_site_type_symbol
_atom_site_fract_x
_atom_site_fract_y
_atom_site_fract_z
_atom_site_charge
Ni	Ni	0.72937 0.37567 0.86887 1.09900
O 	O 	0.64322 0.30957 0.84427 -0.70100
Ni	Ni	0.56488 0.34379 0.85831 1.10100
O 	O 	0.79581 0.32669 0.85021 -0.37000
O 	O 	0.71861 0.20790 0.86118 -0.41700
O 	O 	0.74888 0.45010 0.83549 -0.39400
Ni	Ni	0.61406 0.20114 0.85136 1.06500
O 	O 	0.75370 0.50233 0.92284 -0.41700
O 	O 	0.60299 0.21358 0.89425 -0.41900
O 	O 	0.48746 0.28234 0.82977 -0.38200
O 	O 	0.64769 0.39777 0.88679 -0.69900
O 	O 	0.81476 0.44963 0.89219 -0.37700
O 	O 	0.50018 0.40348 0.87000 -0.36800
O 	O 	0.59441 0.51418 0.86931 -0.42400
Ni	Ni	0.67940 0.50748 0.89363 1.07400
H 	H 	0.65061 0.31977 0.82354 0.15500
H 	H 	0.63879 0.37294 0.90569 0.15300
C 	C 	0.54878 0.22893 0.90459 0.30700
O 	O 	0.75619 0.55259 0.86346 -0.40000
C 	C 	0.77443 0.25225 0.84704 0.29700
C 	C 	0.47754 0.20979 0.82516 0.29400
C 	C 	0.75635 0.52198 0.83814 0.31700
C 	C 	0.52926 0.47510 0.87787 0.30500
C 	C 	0.80796 0.47931 0.91738 0.30500
O 	O 	0.51530 0.26480 0.88911 -0.37200
O 	O 	0.50590 0.17312 0.84311 -0.41400
Ni	Ni	0.62027 0.42597 0.61921 1.09900
O 	O 	0.55399 0.36278 0.64974 -0.70500
Ni	Ni	0.59078 0.27646 0.65425 1.09800
O 	O 	0.55190 0.48111 0.60825 -0.38700
O 	O 	0.45808 0.37078 0.59947 -0.42000
O 	O 	0.66942 0.51395 0.64782 -0.37600
Ni	Ni	0.45110 0.32291 0.64020 1.06700
O 	O 	0.78767 0.49692 0.62057 -0.40900
O 	O 	0.43781 0.22024 0.62119 -0.40200
O 	O 	0.50998 0.20077 0.67820 -0.37900
O 	O 	0.66592 0.34916 0.62807 -0.70100
O 	O 	0.69274 0.48498 0.58993 -0.37900
O 	O 	0.65351 0.21070 0.66007 -0.37400
O 	O 	0.75096 0.31394 0.67376 -0.41600
Ni	Ni	0.75961 0.40261 0.64606 1.06600
H 	H 	0.56147 0.39150 0.66807 0.15500
H 	H 	0.67188 0.32368 0.61016 0.15300
C 	C 	0.48740 0.20872 0.60570 0.30500
O 	O 	0.71910 0.44968 0.67767 -0.42400
C 	C 	0.49131 0.44388 0.59476 0.29300
C 	C 	0.44589 0.20580 0.68297 0.31300
C 	C 	0.69777 0.50689 0.67285 0.31100
C 	C 	0.72330 0.24227 0.66543 0.29100
C 	C 	0.76150 0.49639 0.59423 0.29500
O 	O 	0.55017 0.21595 0.61721 -0.38700
O 	O 	0.43356 0.26959 0.67844 -0.42300
Ni	Ni	0.91084 0.90160 0.75509 1.10100
O 	O 	0.00814 0.97411 0.76958 -0.70100
Ni	Ni	0.02671 0.06221 0.74341 1.09200
O 	O 	0.91514 0.81794 0.78169 -0.38300
O 	O 	0.02424 0.82313 0.76429 -0.42200
O 	O 	0.86916 0.94494 0.78792 -0.38500
Ni	Ni	0.08817 0.93767 0.77197 1.07200
O 	O 	0.78753 0.90841 0.70448 -0.40500
O 	O 	0.12902 0.95203 0.73115 -0.38700
O 	O 	0.12405 0.13178 0.76033 -0.38900
O 	O 	0.93256 0.98493 0.72662 -0.68600
O 	O 	0.80924 0.83628 0.74116 -0.38100
O 	O 	0.01891 0.15077 0.71939 -0.39000
O 	O 	0.90542 0.12148 0.73549 -0.43300
Ni	Ni	0.84700 0.01239 0.72135 1.06500
H 	H 	0.00269 0.99250 0.78902 0.15600
H 	H 	0.94226 0.96456 0.70815 0.15600
C 	C 	0.13479 0.01144 0.71525 0.29300
O 	O 	0.79732 0.98618 0.75968 -0.39500
C 	C 	0.96487 0.78746 0.77869 0.29800
C 	C 	0.17355 0.10651 0.77124 0.30400
C 	C 	0.83359 0.99072 0.78364 0.33300
C 	C 	0.95820 0.16406 0.71969 0.31400
C 	C 	0.78441 0.84182 0.71506 0.30000
O 	O 	0.07864 0.03131 0.71085 -0.40100
O 	O 	0.15494 0.04229 0.78605 -0.42800
Ni	Ni	0.17885 0.76206 0.36464 1.09700
O 	O 	0.26789 0.81240 0.33992 -0.70000
Ni	Ni	0.34495 0.78926 0.36282 1.09600
O 	O 	0.11322 0.80679 0.34242 -0.36700
O 	O 	0.19388 0.92670 0.33767 -0.41400
O 	O 	0.13666 0.67132 0.33607 -0.37500
Ni	Ni	0.29738 0.92442 0.33986 1.06400
O 	O 	0.12147 0.60215 0.39594 -0.41700
O 	O 	0.29229 0.93252 0.38344 -0.41400
O 	O 	0.42919 0.84304 0.33687 -0.38500
O 	O 	0.25593 0.73854 0.38726 -0.70000
O 	O 	0.09603 0.71104 0.39151 -0.37700
O 	O 	0.41002 0.74869 0.38757 -0.36600
O 	O 	0.33158 0.62803 0.38253 -0.42000
Ni	Ni	0.22883 0.62743 0.38953 1.06500
H 	H 	0.26258 0.79067 0.32028 0.15300
H 	H 	0.26135 0.76105 0.40676 0.14900
C 	C 	0.33760 0.91624 0.40052 0.30500
O 	O 	0.21462 0.61080 0.34677 -0.42600
C 	C 	0.13830 0.86999 0.32776 0.29400
C 	C 	0.44070 0.91306 0.32853 0.29400
C 	C 	0.15602 0.61139 0.33406 0.32200
C 	C 	0.38711 0.67753 0.39559 0.30700
C 	C 	0.09476 0.65153 0.40652 0.29400
O 	O 	0.37950 0.88176 0.39043 -0.37000
O 	O 	0.40677 0.95360 0.34092 -0.40900
Ni	Ni	0.22136 0.68308 0.15793 1.09600
O 	O 	0.26809 0.76786 0.12981 -0.71100
Ni	Ni	0.34838 0.73760 0.11537 1.09900
O 	O 	0.14682 0.73066 0.16905 -0.37500
O 	O 	0.23528 0.84307 0.18133 -0.42100
O 	O 	0.15119 0.62338 0.12555 -0.37000
Ni	Ni	0.31105 0.86679 0.14890 1.06400
O 	O 	0.17451 0.51023 0.15127 -0.41700
O 	O 	0.37449 0.83209 0.17632 -0.42600
O 	O 	0.38276 0.82185 0.08614 -0.37700
O 	O 	0.30858 0.65750 0.14683 -0.69600
O 	O 	0.17694 0.59694 0.18587 -0.39300
O 	O 	0.41290 0.68758 0.09625 -0.36800
O 	O 	0.36368 0.56341 0.10849 -0.40700
Ni	Ni	0.27169 0.55238 0.13151 1.06500
H 	H 	0.23501 0.76993 0.11402 0.15500
H 	H 	0.34206 0.66314 0.16332 0.15400
C 	C 	0.43114 0.81824 0.16762 0.30800
O 	O 	0.22784 0.58766 0.09744 -0.43000
C 	C 	0.16655 0.80243 0.17706 0.29600
C 	C 	0.38754 0.89149 0.09308 0.30000
C 	C 	0.17192 0.60885 0.10004 0.29300
C 	C 	0.38846 0.61555 0.08886 0.30800
C 	C 	0.16464 0.52642 0.17800 0.30400
O 	O 	0.43561 0.79866 0.14083 -0.37400
O 	O 	0.39183 0.91298 0.12032 -0.41000
Ni	Ni	0.88604 0.02667 0.22940 1.09500
O 	O 	0.94956 0.10045 0.26041 -0.69200
Ni	Ni	0.87690 0.14475 0.27577 1.09600
O 	O 	0.96839 0.00544 0.20921 -0.36800
O 	O 	0.05834 0.11996 0.21416 -0.42100
O 	O 	0.87957 0.93340 0.25345 -0.37300
Ni	Ni	0.02856 0.18499 0.24402 1.05800
O 	O 	0.74055 0.89540 0.23766 -0.40300
O 	O 	0.95398 0.19477 0.21585 -0.43300
O 	O 	0.94399 0.22312 0.30361 -0.38200
O 	O 	0.81360 0.06289 0.24817 -0.70800
O 	O 	0.81462 0.95410 0.20108 -0.36700
O 	O 	0.78866 0.16330 0.29257 -0.37000
O 	O 	0.73869 0.03834 0.30373 -0.42200
Ni	Ni	0.74628 0.97509 0.26838 1.07300
H 	H 	0.96753 0.07516 0.27570 0.14400
H 	H 	0.78814 0.08340 0.23388 0.15500
C 	C 	0.92132 0.24147 0.22257 0.31200
O 	O 	0.82078 0.95019 0.29269 -0.40700
C 	C 	0.03661 0.04554 0.21441 0.29300
C 	C 	0.00575 0.27215 0.29516 0.29200
C 	C 	0.87169 0.93116 0.28126 0.31400
C 	C 	0.73293 0.10505 0.30081 0.30500
C 	C 	0.75011 0.91256 0.21022 0.30000
O 	O 	0.88321 0.22983 0.24623 -0.36800
O 	O 	0.02337 0.27465 0.26795 -0.42400
C 	C 	0.95087 0.31928 0.21116 -0.13600
C 	C 	0.02255 0.35238 0.20806 0.00600
C 	C 	0.05536 0.42760 0.19474 0.01000
C 	C 	0.12676 0.46461 0.19738 -0.14800
H 	H 	0.02294 0.44963 0.18090 0.03900
H 	H 	0.91519 0.35018 0.20627 0.07800
H 	H 	0.15841 0.44430 0.21223 0.05500
H 	H 	0.05774 0.32228 0.21481 0.00100
C 	C 	0.49248 0.83050 0.18771 -0.15000
C 	C 	0.55911 0.84132 0.17829 0.00300
C 	C 	0.62068 0.86006 0.19885 0.00700
C 	C 	0.68898 0.88325 0.18966 -0.15400
H 	H 	0.61030 0.85853 0.22171 0.01400
H 	H 	0.48387 0.83482 0.21052 0.06500
H 	H 	0.69957 0.88633 0.16683 0.08300
H 	H 	0.56852 0.83899 0.15545 0.04900
C 	C 	0.11106 0.83217 0.18684 -0.14800
C 	C 	0.12899 0.90412 0.19645 -0.00200
C 	C 	0.07279 0.93560 0.20384 0.02500
C 	C 	0.09117 0.01020 0.20969 -0.17300
H 	H 	0.01654 0.89846 0.20370 0.04200
H 	H 	0.05473 0.79558 0.18533 0.08000
H 	H 	0.14769 0.04646 0.21022 0.06000
H 	H 	0.18532 0.94084 0.19793 0.02700
C 	C 	0.66289 0.11256 0.30568 -0.16300
C 	C 	0.60367 0.06023 0.29404 0.01700
C 	C 	0.53822 0.02629 0.31118 -0.02800
C 	C 	0.50226 0.95065 0.30990 -0.12300
H 	H 	0.52265 0.06171 0.32628 0.04000
H 	H 	0.65803 0.14840 0.32329 0.08100
H 	H 	0.52104 0.91537 0.29591 0.05800
H 	H 	0.60896 0.03045 0.27460 -0.01300
C 	C 	0.11409 0.54655 0.31546 -0.15300
C 	C 	0.10638 0.47491 0.32274 0.01400
C 	C 	0.06567 0.40943 0.30395 0.00200
C 	C 	0.04402 0.33792 0.31398 -0.14300
H 	H 	0.05346 0.41952 0.28186 0.04300
H 	H 	0.08674 0.55688 0.29646 0.08100
H 	H 	0.05198 0.32816 0.33650 0.06400
H 	H 	0.13006 0.46459 0.34275 0.02100
C 	C 	0.09146 0.88649 0.30613 -0.13300
C 	C 	0.02049 0.86637 0.31021 -0.01900
C 	C 	0.97597 0.89365 0.29067 0.02800
C 	C 	0.91297 0.89678 0.29935 -0.15800
H 	H 	0.99648 0.91511 0.26971 0.03400
H 	H 	0.11617 0.92208 0.28810 0.05500
H 	H 	0.89398 0.87804 0.32073 0.08500
H 	H 	0.99617 0.83384 0.32899 0.06100
C 	C 	0.34168 0.05542 0.49659 -0.00700
H 	H 	0.28665 0.05249 0.49026 0.02300
C 	C 	0.38933 0.02274 0.47918 -0.05200
C 	C 	0.36916 0.98358 0.45135 0.07400
C 	C 	0.40753 0.12941 0.50172 -0.04500
H 	H 	0.40711 0.18814 0.50009 0.03700
C 	C 	0.45485 0.09615 0.48391 -0.00900
H 	H 	0.49301 0.12680 0.46712 0.03000
C 	C 	0.36176 0.02095 0.52409 -0.08000
H 	H 	0.32364 0.99035 0.54090 0.05900
C 	C 	0.42730 0.09435 0.52879 0.01700
C 	C 	0.44879 0.13475 0.55633 0.03100
C 	C 	0.47493 0.06167 0.51138 -0.06000
H 	H 	0.52997 0.06460 0.51769 0.04100
C 	C 	0.40910 0.98766 0.50624 0.02800
H 	H 	0.40954 0.92893 0.50786 0.02500
C 	C 	0.46652 0.16834 0.57890 -0.10300
C 	C 	0.35390 0.95230 0.42827 -0.11800
C 	C 	0.92524 0.50840 0.50975 -0.03300
H 	H 	0.91951 0.45022 0.51673 0.03200
C 	C 	0.89295 0.56145 0.52485 -0.00300
C 	C 	0.84841 0.54068 0.55040 0.04000
C 	C 	0.99733 0.57608 0.50714 -0.02200
H 	H 	0.05168 0.57390 0.51146 0.02200
C 	C 	0.96433 0.62883 0.52265 -0.03100
H 	H 	0.99071 0.66973 0.54022 0.03900
C 	C 	0.89924 0.52891 0.48054 -0.03000
H 	H 	0.87282 0.48797 0.46299 0.03900
C 	C 	0.97062 0.59626 0.47831 0.00500
C 	C 	0.01394 0.61543 0.45240 0.02800
C 	C 	0.93835 0.64935 0.49340 -0.02900
H 	H 	0.94409 0.70751 0.48641 0.04200
C 	C 	0.86628 0.58164 0.49601 -0.02700
H 	H 	0.81192 0.58381 0.49168 0.03900
C 	C 	0.05021 0.63150 0.43128 -0.11000
C 	C 	0.80993 0.52169 0.57083 -0.11300
C 	C 	0.37620 0.54463 0.48835 -0.03100
H 	H 	0.31875 0.52240 0.48136 0.02400
C 	C 	0.43779 0.60334 0.47217 -0.00900
C 	C 	0.42584 0.63518 0.44488 0.04300
C 	C 	0.40586 0.58861 0.51668 -0.03200
H 	H 	0.37299 0.60173 0.53354 0.03300
C 	C 	0.46727 0.64789 0.50008 -0.02700
H 	H 	0.48499 0.71060 0.50273 0.03800
C 	C 	0.42428 0.49627 0.49287 -0.03100
H 	H 	0.40651 0.43356 0.49017 0.03300
C 	C 	0.45376 0.54070 0.52079 -0.00200
C 	C 	0.46348 0.50520 0.54756 0.04200
C 	C 	0.51541 0.59940 0.50465 -0.02800
H 	H 	0.57285 0.62153 0.51167 0.04100
C 	C 	0.48567 0.55541 0.47630 -0.02700
H 	H 	0.51852 0.54222 0.45945 0.03700
C 	C 	0.47405 0.47642 0.56931 -0.10800
C 	C 	0.41128 0.65723 0.42229 -0.13100
C 	C 	0.94119 0.20790 0.69659 -0.17300
C 	C 	0.87995 0.17656 0.68121 0.01900
C 	C 	0.83887 0.22359 0.67110 -0.00600
C 	C 	0.76662 0.19337 0.66870 -0.14900
H 	H 	0.86661 0.28435 0.66832 0.02000
H 	H 	0.97123 0.26859 0.69547 0.07900
H 	H 	0.73922 0.13227 0.67047 0.06600
H 	H 	0.85384 0.11494 0.68071 -0.03200
C 	C 	0.19548 0.04032 0.69552 -0.14400
C 	C 	0.26384 0.06438 0.70540 0.00300
C 	C 	0.32206 0.11853 0.68843 0.01000
C 	C 	0.39092 0.14317 0.69774 -0.14600
H 	H 	0.30808 0.14167 0.66883 0.02700
H 	H 	0.18428 0.05433 0.67381 0.07300
H 	H 	0.40652 0.11726 0.71623 0.07200
H 	H 	0.27566 0.04959 0.72691 0.02500
C 	C 	0.71559 0.56930 0.69425 -0.15100
C 	C 	0.70939 0.63633 0.68787 0.00900
C 	C 	0.74221 0.70343 0.70689 0.00500
C 	C 	0.74187 0.77199 0.69908 -0.14400
H 	H 	0.77014 0.69767 0.72647 0.03700
H 	H 	0.73971 0.56259 0.71466 0.07400
H 	H 	0.71371 0.77726 0.67951 0.07700
H 	H 	0.68399 0.64294 0.66775 0.04500
C 	C 	0.03007 0.59508 0.98459 -0.03400
H 	H 	0.05600 0.63318 0.96671 0.03600
C 	C 	0.95673 0.52997 0.98286 0.00200
C 	C 	0.90805 0.50991 0.95788 0.04400
C 	C 	0.06161 0.54139 0.00049 -0.03400
H 	H 	0.11446 0.53599 0.99623 0.03600
C 	C 	0.98744 0.47603 0.99834 -0.02400
H 	H 	0.97837 0.41646 0.99176 0.03700
C 	C 	0.00868 0.62056 0.01367 -0.03400
H 	H 	0.01772 0.68010 0.02026 0.03500
C 	C 	0.03938 0.56660 0.02913 -0.00800
C 	C 	0.08521 0.58523 0.05495 0.04000
C 	C 	0.96604 0.50154 0.02736 -0.02400
H 	H 	0.94002 0.46340 0.04522 0.03900
C 	C 	0.93463 0.55521 0.01153 -0.02400
H 	H 	0.88180 0.56063 0.01584 0.03700
C 	C 	0.12387 0.59786 0.07590 -0.10800
C 	C 	0.86441 0.49473 0.93852 -0.10400
C 	C 	0.39054 0.07357 0.01025 -0.02900
H 	H 	0.33406 0.06491 0.01585 0.02800
C 	C 	0.44099 0.04225 0.02700 -0.01900
C 	C 	0.42184 0.99258 0.05188 0.06300
C 	C 	0.41509 0.04760 0.98194 -0.02700
H 	H 	0.37914 0.01845 0.96372 0.03100
C 	C 	0.46512 0.01570 0.99905 -0.04500
H 	H 	0.47009 0.95938 0.99539 0.05300
C 	C 	0.45290 0.15165 0.00843 -0.03100
H 	H 	0.44805 0.20807 0.01195 0.03300
C 	C 	0.47697 0.12471 0.98054 -0.00600
C 	C 	0.49923 0.16672 0.95396 0.04200
C 	C 	0.52724 0.09329 0.99736 -0.02600
H 	H 	0.58371 0.10173 0.99181 0.03400
C 	C 	0.50290 0.11936 0.02566 -0.02800
H 	H 	0.53886 0.14832 0.04391 0.03200
C 	C 	0.52028 0.19726 0.93155 -0.11200
C 	C 	0.40634 0.94812 0.07129 -0.11700
C 	C 	0.46599 0.62097 0.98499 -0.02900
H 	H 	0.47596 0.68264 0.98750 0.04000
C 	C 	0.43813 0.56104 0.00845 -0.00200
C 	C 	0.42091 0.57827 0.03756 0.04300
C 	C 	0.41228 0.56624 0.96326 -0.02700
H 	H 	0.37831 0.58254 0.94738 0.03600
C 	C 	0.38412 0.50660 0.98718 -0.03000
H 	H 	0.32663 0.47393 0.99150 0.03500
C 	C 	0.52344 0.58602 0.97738 -0.03000
H 	H 	0.58094 0.61869 0.97309 0.03000
C 	C 	0.46948 0.53160 0.95610 -0.01000
C 	C 	0.48835 0.51413 0.92728 0.04200
C 	C 	0.44161 0.47168 0.97957 -0.02900
H 	H 	0.43167 0.41001 0.97707 0.03500
C 	C 	0.49530 0.52639 0.00126 -0.03100
H 	H 	0.52930 0.51007 0.01713 0.03500
C 	C 	0.50579 0.49778 0.90422 -0.14400
C 	C 	0.40649 0.59405 0.06123 -0.10700
C 	C 	0.81841 0.03127 0.80821 -0.17400
C 	C 	0.82662 0.10499 0.80625 0.00800
C 	C 	0.80331 0.14349 0.82971 0.00000
C 	C 	0.81482 0.21827 0.82858 -0.15400
H 	H 	0.77229 0.10964 0.84708 0.03200
H 	H 	0.80183 0.00133 0.82823 0.07800
H 	H 	0.84998 0.25321 0.81245 0.07700
H 	H 	0.84743 0.13583 0.78674 0.03000
C 	C 	0.24713 0.16187 0.77564 -0.14700
C 	C 	0.30171 0.13818 0.78219 0.01000
C 	C 	0.36974 0.19116 0.79494 0.00500
C 	C 	0.41909 0.16412 0.80553 -0.14400
H 	H 	0.37673 0.25079 0.79787 0.04400
H 	H 	0.25600 0.22232 0.77529 0.07900
H 	H 	0.41219 0.10474 0.80193 0.06300
H 	H 	0.29362 0.07793 0.78064 0.02300
C 	C 	0.78241 0.57225 0.81365 -0.14600
C 	C 	0.85243 0.59760 0.80691 0.01500
C 	C 	0.88008 0.65911 0.78584 0.01000
C 	C 	0.94836 0.70820 0.78760 -0.14300
H 	H 	0.84168 0.67203 0.77184 0.03700
H 	H 	0.74540 0.59408 0.80257 0.07200
H 	H 	0.98898 0.69316 0.79932 0.07000
H 	H 	0.88984 0.57747 0.81864 0.04000
