data_crystal

_cell_length_a 22.16513
_cell_length_b 21.38331
_cell_length_c 50.49622
_cell_angle_alpha 89.89404
_cell_angle_beta  89.89627
_cell_angle_gamma 119.47285

_symmetry_space_group_name_	'P 1'
_symmetry_space_group_name_H-M	'P 1'

loop_
_symmetry_equiv_pos_as_xyz
  x,y,z

loop_
_atom_site_label
_atom_site_type_symbol
_atom_site_fract_x
_atom_site_fract_y
_atom_site_fract_z
_atom_site_charge
C 	C 	0.55682 0.22607 0.88297 0.38300
C 	C 	0.76790 0.51229 0.91368 0.41700
C 	C 	0.75338 0.31663 0.87625 0.41900
C 	C 	0.58665 0.44074 0.92388 0.30900
C 	C 	0.76595 0.34285 0.96658 0.31700
C 	C 	0.57216 0.24105 0.96675 0.29800
Ni	Ni	0.66174 0.38165 0.88733 1.13000
Ni	Ni	0.67396 0.39502 0.95143 1.12000
Ni	Ni	0.66796 0.25818 0.92352 1.13700
O 	O 	0.56971 0.29185 0.87672 -0.32100
O 	O 	0.60769 0.21366 0.89048 -0.31900
O 	O 	0.76430 0.39791 0.95634 -0.37800
O 	O 	0.75958 0.46188 0.89721 -0.34300
O 	O 	0.72870 0.49634 0.93510 -0.37100
O 	O 	0.58547 0.20847 0.94712 -0.36500
O 	O 	0.70878 0.33337 0.86582 -0.30900
O 	O 	0.75569 0.30999 0.90192 -0.35100
O 	O 	0.61933 0.30641 0.97517 -0.38200
O 	O 	0.61479 0.44265 0.90016 -0.31100
O 	O 	0.58801 0.40043 0.94337 -0.37800
O 	O 	0.72704 0.27829 0.95662 -0.35600
O 	O 	0.65109 0.33742 0.92064 -0.71500
H 	H 	0.60025 0.31205 0.92216 0.17100
C 	C 	0.67592 0.41359 0.52457 0.30400
C 	C 	0.77714 0.35539 0.62705 0.41400
C 	C 	0.83685 0.51824 0.56195 0.41800
C 	C 	0.60625 0.24577 0.59872 0.40700
C 	C 	0.89076 0.35711 0.56056 0.32300
C 	C 	0.72353 0.21885 0.52442 0.30000
Ni	Ni	0.70973 0.39622 0.58359 1.13100
Ni	Ni	0.74852 0.26953 0.57955 1.13200
Ni	Ni	0.78956 0.38148 0.53192 1.12500
O 	O 	0.68293 0.43640 0.54971 -0.31500
O 	O 	0.70320 0.37433 0.51598 -0.37500
O 	O 	0.84020 0.29084 0.56368 -0.38100
O 	O 	0.72760 0.37060 0.62204 -0.29500
O 	O 	0.80596 0.33953 0.60774 -0.38800
O 	O 	0.77118 0.28488 0.51653 -0.36500
O 	O 	0.81020 0.48008 0.58330 -0.35300
O 	O 	0.81968 0.48766 0.53848 -0.37200
O 	O 	0.70035 0.20417 0.54917 -0.36000
O 	O 	0.61443 0.30450 0.58667 -0.34900
O 	O 	0.65864 0.23186 0.60173 -0.32200
O 	O 	0.88145 0.40361 0.54676 -0.37600
O 	O 	0.73368 0.33952 0.56255 -0.72100
H 	H 	0.68893 0.30778 0.55401 0.17300
C 	C 	0.14316 0.02241 0.77758 0.40400
C 	C 	0.95562 0.88416 0.68840 0.39200
C 	C 	0.17026 0.04539 0.70553 0.42200
C 	C 	0.92234 0.84445 0.76623 0.40200
C 	C 	0.97454 0.09612 0.70570 0.38100
C 	C 	0.96811 0.09008 0.76677 0.37300
Ni	Ni	0.05300 0.92363 0.73461 1.13300
Ni	Ni	0.92478 0.95855 0.73225 1.13400
Ni	Ni	0.08377 0.08795 0.73752 1.13900
O 	O 	0.09642 0.95489 0.77193 -0.31500
O 	O 	0.15185 0.07805 0.76256 -0.31000
O 	O 	0.93883 0.02621 0.70237 -0.32500
O 	O 	0.01993 0.90578 0.69558 -0.31500
O 	O 	0.90914 0.87959 0.70587 -0.31500
O 	O 	0.03447 0.10655 0.76760 -0.29900
O 	O 	0.15336 0.99180 0.72188 -0.32500
O 	O 	0.13523 0.08025 0.70530 -0.31800
O 	O 	0.91807 0.02540 0.75918 -0.31000
O 	O 	0.96099 0.83677 0.74809 -0.32200
O 	O 	0.89178 0.88288 0.76125 -0.31500
O 	O 	0.04070 0.12726 0.71179 -0.30700
O 	O 	0.01927 0.98824 0.73991 -0.71900
H 	H 	0.01358 0.98505 0.75932 0.17800
C 	C 	0.39912 0.75452 0.38512 0.39600
C 	C 	0.20504 0.47294 0.42855 0.40300
C 	C 	0.20361 0.66102 0.38995 0.41500
C 	C 	0.40336 0.56740 0.42562 0.30500
C 	C 	0.22335 0.64856 0.47991 0.32400
C 	C 	0.41539 0.75103 0.47026 0.29600
Ni	Ni	0.29970 0.59938 0.39623 1.13000
Ni	Ni	0.31110 0.59578 0.46003 1.12400
Ni	Ni	0.30552 0.72785 0.43244 1.13000
O 	O 	0.38586 0.68780 0.38058 -0.33100
O 	O 	0.35218 0.76780 0.39641 -0.33000
O 	O 	0.22239 0.59239 0.46946 -0.37800
O 	O 	0.20692 0.51933 0.41126 -0.33800
O 	O 	0.25455 0.49287 0.44629 -0.35100
O 	O 	0.39568 0.78118 0.45165 -0.34400
O 	O 	0.24455 0.64253 0.37746 -0.30400
O 	O 	0.21082 0.67423 0.41545 -0.35100
O 	O 	0.37104 0.68759 0.48099 -0.38300
O 	O 	0.35408 0.54534 0.40716 -0.34500
O 	O 	0.39507 0.58892 0.44931 -0.37400
O 	O 	0.25821 0.71177 0.46833 -0.36200
O 	O 	0.32258 0.64902 0.42849 -0.71500
H 	H 	0.37350 0.67472 0.42720 0.16100
C 	C 	0.37346 0.62826 0.04472 0.29600
C 	C 	0.24738 0.67090 0.14390 0.41900
C 	C 	0.21955 0.50239 0.08481 0.41900
C 	C 	0.41028 0.80057 0.11215 0.40000
C 	C 	0.12110 0.62751 0.07434 0.32600
C 	C 	0.27824 0.77993 0.03744 0.29500
Ni	Ni	0.33050 0.64297 0.10269 1.13400
Ni	Ni	0.25803 0.74009 0.09370 1.13100
Ni	Ni	0.23938 0.62477 0.05026 1.12600
O 	O 	0.36901 0.60909 0.07034 -0.32500
O 	O 	0.33105 0.64847 0.03407 -0.37200
O 	O 	0.16172 0.69722 0.07771 -0.37400
O 	O 	0.30539 0.66936 0.13993 -0.29500
O 	O 	0.21146 0.67097 0.12368 -0.37700
O 	O 	0.23745 0.71000 0.03193 -0.36800
O 	O 	0.23964 0.54641 0.10478 -0.34200
O 	O 	0.23158 0.52784 0.06041 -0.36900
O 	O 	0.29536 0.80358 0.06203 -0.36600
O 	O 	0.41431 0.74496 0.10295 -0.34800
O 	O 	0.34931 0.79942 0.11488 -0.31100
O 	O 	0.14688 0.58666 0.06735 -0.37000
O 	O 	0.29196 0.68177 0.07925 -0.72200
H 	H 	0.33344 0.71841 0.06988 0.17500
C 	C 	0.83201 0.97549 0.28563 0.39600
C 	C 	0.05911 0.11615 0.20996 0.42300
C 	C 	0.83924 0.96963 0.21051 0.40000
C 	C 	0.05754 0.13608 0.28834 0.39700
C 	C 	0.00950 0.89181 0.22490 0.42200
C 	C 	0.98293 0.88510 0.28791 0.38900
Ni	Ni	0.94239 0.07612 0.24824 1.13500
Ni	Ni	0.05647 0.02278 0.25461 1.14500
Ni	Ni	0.89361 0.90614 0.24957 1.13900
O 	O 	0.88105 0.04322 0.28191 -0.30900
O 	O 	0.82062 0.92440 0.26793 -0.32000
O 	O 	0.04656 0.96183 0.22330 -0.34900
O 	O 	0.99348 0.09763 0.21222 -0.33200
O 	O 	0.09343 0.11072 0.23035 -0.32200
O 	O 	0.92069 0.87821 0.28376 -0.32100
O 	O 	0.84920 0.01803 0.22839 -0.30800
O 	O 	0.86699 0.92792 0.21344 -0.31300
O 	O 	0.04187 0.94374 0.28079 -0.29500
O 	O 	0.03058 0.15281 0.26802 -0.30300
O 	O 	0.08209 0.09129 0.28550 -0.30900
O 	O 	0.94248 0.86033 0.23005 -0.31700
O 	O 	0.96311 0.00267 0.25622 -0.72300
H 	H 	0.96007 0.00241 0.27569 0.17600
C 	C 	0.23068 0.34839 0.11424 0.22700
C 	C 	0.16057 0.30232 0.12008 0.00400
C 	C 	0.10995 0.31363 0.10767 0.22500
C 	C 	0.12993 0.37536 0.09221 0.31900
C 	C 	0.20030 0.42721 0.08995 -0.22400
C 	C 	0.25068 0.41220 0.10037 0.31200
C 	C 	0.14163 0.25295 0.14300 -0.00100
F 	F 	0.04166 0.26800 0.11232 -0.33400
F 	F 	0.31823 0.46404 0.10060 -0.40700
C 	C 	0.16164 0.28097 0.16866 0.23800
C 	C 	0.14057 0.23500 0.19059 0.32400
C 	C 	0.09768 0.16078 0.18718 -0.19800
C 	C 	0.08036 0.13240 0.16147 0.32100
C 	C 	0.10265 0.17832 0.13943 0.24000
F 	F 	0.19927 0.35307 0.17238 -0.32000
F 	F 	0.03962 0.06056 0.15793 -0.35600
F 	F 	0.15775 0.26304 0.21532 -0.33600
F 	F 	0.08502 0.15046 0.11470 -0.33400
F 	F 	0.27991 0.33566 0.12481 -0.33900
F 	F 	0.08071 0.38847 0.08187 -0.39800
C 	C 	0.68631 0.87366 0.16482 0.23900
C 	C 	0.67343 0.93010 0.15844 -0.00500
C 	C 	0.72306 0.00093 0.16468 0.24600
C 	C 	0.78199 0.01455 0.17920 0.32400
C 	C 	0.79025 0.95715 0.18863 -0.19000
C 	C 	0.74392 0.88690 0.18019 0.32100
C 	C 	0.60434 0.91378 0.14859 0.00100
F 	F 	0.71252 0.05623 0.15782 -0.32400
F 	F 	0.75237 0.83098 0.18809 -0.35100
C 	C 	0.54555 0.87360 0.16439 0.23700
C 	C 	0.47953 0.84215 0.15318 0.32800
C 	C 	0.47124 0.85499 0.12643 -0.18700
C 	C 	0.52964 0.90391 0.11178 0.30800
C 	C 	0.59619 0.93184 0.12259 0.23300
F 	F 	0.55276 0.85953 0.19007 -0.31600
F 	F 	0.52242 0.91829 0.08614 -0.39000
F 	F 	0.42519 0.79085 0.16705 -0.33000
F 	F 	0.65265 0.97281 0.10732 -0.34100
F 	F 	0.64078 0.80538 0.15741 -0.33400
F 	F 	0.82964 0.08338 0.18513 -0.35300
C 	C 	0.22274 0.78928 0.19016 0.23400
C 	C 	0.15615 0.74070 0.19950 0.00100
C 	C 	0.13168 0.66658 0.19725 0.24600
C 	C 	0.16977 0.64181 0.18270 0.32100
C 	C 	0.23152 0.69103 0.16982 -0.18700
C 	C 	0.26074 0.76453 0.17584 0.31900
C 	C 	0.11001 0.76789 0.20904 0.01000
F 	F 	0.06945 0.61872 0.20785 -0.30900
F 	F 	0.32164 0.81305 0.16477 -0.34800
C 	C 	0.05313 0.75801 0.19360 0.23100
C 	C 	0.01888 0.79686 0.19926 0.34200
C 	C 	0.04264 0.84758 0.21980 -0.19600
C 	C 	0.09844 0.85606 0.23557 0.32800
C 	C 	0.12991 0.81427 0.23088 0.24800
F 	F 	0.03323 0.71343 0.17238 -0.34000
F 	F 	0.12366 0.90636 0.25491 -0.37500
F 	F 	0.96473 0.78762 0.18401 -0.35600
F 	F 	0.18269 0.82198 0.24665 -0.29600
F 	F 	0.24830 0.86108 0.19302 -0.32800
F 	F 	0.14272 0.57026 0.17854 -0.34400
C 	C 	0.69138 0.88075 0.33654 0.23100
C 	C 	0.65754 0.92159 0.33540 0.00300
C 	C 	0.68590 0.98472 0.32023 0.23000
C 	C 	0.74523 0.00452 0.30494 0.33500
C 	C 	0.77682 0.96130 0.30483 -0.19600
C 	C 	0.75076 0.90048 0.32126 0.32200
C 	C 	0.58820 0.89319 0.34719 -0.00000
F 	F 	0.65407 0.02508 0.31937 -0.31700
F 	F 	0.78201 0.85954 0.32190 -0.35900
C 	C 	0.58091 0.90158 0.37435 0.22800
C 	C 	0.51610 0.86202 0.38655 0.30000
C 	C 	0.45879 0.81310 0.37168 -0.19800
C 	C 	0.46471 0.81106 0.34405 0.32600
C 	C 	0.52929 0.85079 0.33185 0.23600
F 	F 	0.63712 0.94557 0.38906 -0.37400
F 	F 	0.40860 0.76694 0.32929 -0.32700
F 	F 	0.50981 0.86813 0.41301 -0.42000
F 	F 	0.53547 0.84486 0.30534 -0.31700
F 	F 	0.66488 0.82024 0.35159 -0.35100
F 	F 	0.76972 0.06341 0.28907 -0.34900
C 	C 	0.06520 0.31901 0.39376 0.23000
C 	C 	0.10103 0.28183 0.38797 0.00300
C 	C 	0.15713 0.29262 0.40396 0.22100
C 	C 	0.18383 0.34838 0.42250 0.30600
C 	C 	0.15741 0.39606 0.42370 -0.21200
C 	C 	0.09296 0.37561 0.41189 0.31500
C 	C 	0.08925 0.24417 0.36246 -0.00500
F 	F 	0.18870 0.25270 0.40017 -0.34600
F 	F 	0.06165 0.41583 0.41561 -0.36100
C 	C 	0.11447 0.28400 0.33891 0.23600
C 	C 	0.10331 0.24877 0.31461 0.32300
C 	C 	0.06735 0.17345 0.31368 -0.19300
C 	C 	0.04209 0.13360 0.33722 0.31600
C 	C 	0.05292 0.16889 0.36152 0.24600
F 	F 	0.15035 0.35689 0.33967 -0.34100
F 	F 	0.00633 0.06070 0.33647 -0.34800
F 	F 	0.12879 0.28778 0.29205 -0.33200
F 	F 	0.02797 0.13000 0.38414 -0.32600
F 	F 	0.00721 0.30472 0.38003 -0.33000
F 	F 	0.23771 0.35862 0.43809 -0.39800
C 	C 	0.13980 0.74030 0.33744 0.23900
C 	C 	0.07434 0.72316 0.34748 0.00400
C 	C 	0.04948 0.68153 0.37062 0.24500
C 	C 	0.09083 0.65925 0.38411 0.31800
C 	C 	0.15736 0.67845 0.37453 -0.20000
C 	C 	0.18119 0.71823 0.35089 0.32300
C 	C 	0.03490 0.75435 0.33504 0.00200
F 	F 	0.98581 0.66383 0.38026 -0.34600
F 	F 	0.24576 0.73830 0.34161 -0.33300
C 	C 	0.00375 0.72955 0.31023 0.26100
C 	C 	0.98037 0.76916 0.29565 0.30800
C 	C 	0.98833 0.83391 0.30574 -0.18600
C 	C 	0.01386 0.85526 0.33149 0.33300
C 	C 	0.03706 0.81562 0.34610 0.23900
F 	F 	0.99956 0.66919 0.29968 -0.32600
F 	F 	0.01980 0.91670 0.34175 -0.33100
F 	F 	0.95369 0.74686 0.27108 -0.36500
F 	F 	0.06562 0.83917 0.37034 -0.33200
F 	F 	0.16433 0.78072 0.31512 -0.30600
F 	F 	0.06644 0.61932 0.40654 -0.36500
C 	C 	0.54040 0.90180 0.51120 -0.08400
C 	C 	0.59429 0.93347 0.49259 0.00300
C 	C 	0.59840 0.89128 0.47198 0.06700
C 	C 	0.54244 0.82202 0.46775 -0.00300
C 	C 	0.48215 0.79652 0.48318 -0.09400
C 	C 	0.48435 0.83281 0.50678 0.12200
C 	C 	0.63950 0.01237 0.49266 0.02000
C 	C 	0.65964 0.92167 0.45340 -0.20200
H 	H 	0.54263 0.79140 0.45068 0.06600
C 	C 	0.42478 0.80074 0.52612 -0.22100
H 	H 	0.53966 0.93282 0.52804 0.08300
C 	C 	0.61432 0.05778 0.48353 0.05500
C 	C 	0.64778 0.13009 0.49135 -0.00500
C 	C 	0.70743 0.15769 0.50704 -0.09000
C 	C 	0.73955 0.11565 0.51152 0.12800
C 	C 	0.70394 0.04233 0.50525 -0.08700
C 	C 	0.54896 0.02814 0.46732 -0.18900
H 	H 	0.62463 0.16328 0.48689 0.06200
C 	C 	0.80868 0.14712 0.52515 -0.22400
H 	H 	0.72483 0.00807 0.51123 0.08000
H 	H 	0.37872 0.80050 0.51739 0.10800
H 	H 	0.43791 0.83160 0.54491 0.11100
H 	H 	0.41187 0.74491 0.53108 0.10000
H 	H 	0.70835 0.94146 0.46485 0.10300
H 	H 	0.66148 0.96687 0.44190 0.13900
H 	H 	0.65672 0.88059 0.43923 0.12900
H 	H 	0.54483 0.07178 0.45698 0.10900
H 	H 	0.50311 0.99895 0.48043 0.10000
H 	H 	0.54856 0.99084 0.45196 0.12000
H 	H 	0.83508 0.11561 0.52072 0.10700
H 	H 	0.80134 0.14723 0.54690 0.10900
H 	H 	0.84303 0.20293 0.51815 0.10300
C 	C 	0.10111 0.58981 0.53646 -0.09300
C 	C 	0.13513 0.56379 0.55283 0.02800
C 	C 	0.20703 0.59168 0.54983 0.03900
C 	C 	0.24011 0.63181 0.52709 -0.00600
C 	C 	0.20184 0.64414 0.50768 -0.11300
C 	C 	0.13440 0.63042 0.51381 0.14400
C 	C 	0.09289 0.49518 0.56694 -0.00500
C 	C 	0.24678 0.57173 0.56901 -0.18800
H 	H 	0.29339 0.64623 0.52315 0.03900
C 	C 	0.09492 0.65105 0.49475 -0.24100
H 	H 	0.04661 0.57186 0.53970 0.10400
C 	C 	0.05161 0.49251 0.58860 0.10400
C 	C 	0.98417 0.43399 0.59087 -0.02000
C 	C 	0.95952 0.37982 0.57161 -0.10200
C 	C 	0.00834 0.37229 0.55604 0.14700
C 	C 	0.07532 0.43124 0.55338 -0.08200
C 	C 	0.07771 0.55341 0.60810 -0.22600
H 	H 	0.94836 0.43588 0.60503 0.10900
C 	C 	0.98653 0.30667 0.53926 -0.25200
H 	H 	0.11009 0.43060 0.53838 0.07300
H 	H 	0.12970 0.70455 0.48585 0.13100
H 	H 	0.05213 0.65429 0.50499 0.12500
H 	H 	0.07265 0.61041 0.47875 0.13500
H 	H 	0.24062 0.51860 0.56360 0.09300
H 	H 	0.22767 0.56918 0.58954 0.10000
H 	H 	0.30282 0.61228 0.56867 0.09300
H 	H 	0.04073 0.54118 0.62477 0.17000
H 	H 	0.08564 0.60322 0.59816 0.15500
H 	H 	0.12784 0.56307 0.61647 0.12300
H 	H 	0.96415 0.31259 0.52039 0.10400
H 	H 	0.94740 0.25797 0.54991 0.11400
H 	H 	0.03150 0.29898 0.53469 0.12200
C 	C 	0.49220 0.46173 0.43167 -0.09300
C 	C 	0.54768 0.51051 0.44731 0.01600
C 	C 	0.56853 0.58441 0.44599 0.04600
C 	C 	0.52652 0.60624 0.43261 -0.00000
C 	C 	0.46255 0.55475 0.42217 -0.09800
C 	C 	0.45090 0.48435 0.41814 0.14600
C 	C 	0.57896 0.48331 0.46691 0.01100
C 	C 	0.63191 0.63907 0.46058 -0.19000
H 	H 	0.53892 0.66200 0.43344 0.05600
C 	C 	0.39446 0.43334 0.39996 -0.24900
H 	H 	0.47940 0.40586 0.43099 0.08600
C 	C 	0.54819 0.45877 0.49210 0.05200
C 	C 	0.58067 0.43640 0.51078 -0.00600
C 	C 	0.64437 0.44040 0.50496 -0.07800
C 	C 	0.67678 0.46864 0.48015 0.13000
C 	C 	0.64194 0.48624 0.46093 -0.08600
C 	C 	0.48071 0.45604 0.49905 -0.19200
H 	H 	0.55616 0.41552 0.52981 0.07200
C 	C 	0.74895 0.48201 0.47425 -0.22800
H 	H 	0.66537 0.50527 0.44160 0.08300
H 	H 	0.40229 0.38767 0.39426 0.13600
H 	H 	0.39423 0.46148 0.38148 0.14100
H 	H 	0.34354 0.41163 0.40993 0.16200
H 	H 	0.67784 0.63464 0.45454 0.10500
H 	H 	0.62373 0.62994 0.48227 0.09800
H 	H 	0.64335 0.69481 0.45622 0.09800
H 	H 	0.46530 0.43905 0.51992 0.10300
H 	H 	0.43880 0.41710 0.48602 0.10200
H 	H 	0.48571 0.50999 0.49651 0.09000
H 	H 	0.74749 0.43050 0.46975 0.10600
H 	H 	0.78375 0.50859 0.49127 0.11800
H 	H 	0.77186 0.51817 0.45688 0.11600
C 	C 	0.86184 0.16320 0.67371 0.23600
C 	C 	0.87792 0.22410 0.68925 0.00100
C 	C 	0.92699 0.24350 0.70960 0.25100
C 	C 	0.96216 0.20495 0.71347 0.30500
C 	C 	0.94331 0.14167 0.69902 -0.18000
C 	C 	0.89321 0.12133 0.67894 0.31900
C 	C 	0.84788 0.27093 0.68264 0.00400
F 	F 	0.94098 0.30011 0.72553 -0.31000
F 	F 	0.87691 0.06276 0.66380 -0.35300
C 	C 	0.77560 0.24181 0.68093 0.24200
C 	C 	0.74819 0.27862 0.66678 0.32000
C 	C 	0.79311 0.34409 0.65424 -0.19300
C 	C 	0.86298 0.38032 0.66189 0.31700
C 	C 	0.89132 0.34255 0.67463 0.22800
F 	F 	0.73235 0.17585 0.69122 -0.30600
F 	F 	0.90553 0.44819 0.65308 -0.37600
F 	F 	0.67898 0.24629 0.66228 -0.33900
F 	F 	0.96116 0.37322 0.67706 -0.33800
F 	F 	0.81717 0.14569 0.65310 -0.34900
F 	F 	0.01392 0.22855 0.73157 -0.36300
C 	C 	0.42657 0.10930 0.62101 0.23700
C 	C 	0.41737 0.14553 0.64248 0.00500
C 	C 	0.47244 0.21151 0.65077 0.23800
C 	C 	0.53577 0.24189 0.63742 0.33200
C 	C 	0.54459 0.20694 0.61545 -0.19400
C 	C 	0.49009 0.14006 0.60749 0.31800
C 	C 	0.35131 0.11316 0.65717 0.00300
F 	F 	0.46418 0.24655 0.67165 -0.31900
F 	F 	0.49800 0.10597 0.58622 -0.38000
C 	C 	0.34701 0.08247 0.68212 0.24300
C 	C 	0.28874 0.06192 0.69808 0.32800
C 	C 	0.23309 0.07039 0.68899 -0.19100
C 	C 	0.23653 0.09914 0.66358 0.32300
C 	C 	0.29565 0.12084 0.64781 0.24000
F 	F 	0.40048 0.07457 0.69124 -0.31000
F 	F 	0.18233 0.10505 0.65402 -0.33800
F 	F 	0.28681 0.03476 0.72259 -0.33000
F 	F 	0.29942 0.15048 0.62364 -0.33400
F 	F 	0.37392 0.04472 0.61318 -0.33400
F 	F 	0.58808 0.30669 0.64524 -0.34500
C 	C 	0.95085 0.69313 0.59298 0.21100
C 	C 	0.90476 0.72044 0.59380 0.00600
C 	C 	0.84801 0.69262 0.57645 0.22600
C 	C 	0.83192 0.63132 0.56144 0.31300
C 	C 	0.87152 0.59675 0.56427 -0.22600
C 	C 	0.93458 0.63187 0.57797 0.32000
C 	C 	0.90850 0.76743 0.61594 -0.00500
F 	F 	0.80550 0.72150 0.57572 -0.34600
F 	F 	0.97587 0.60171 0.57931 -0.41900
C 	C 	0.96130 0.83947 0.61661 0.23400
C 	C 	0.97309 0.87987 0.63976 0.30500
C 	C 	0.93233 0.84838 0.66248 -0.18500
C 	C 	0.87614 0.77799 0.66109 0.31600
C 	C 	0.86435 0.73773 0.63793 0.23600
F 	F 	0.00291 0.86943 0.59520 -0.32300
F 	F 	0.83580 0.74689 0.68273 -0.34100
F 	F 	0.02588 0.94875 0.64048 -0.33600
F 	F 	0.81243 0.66842 0.63736 -0.33500
F 	F 	0.00810 0.72202 0.60854 -0.33500
F 	F 	0.77351 0.60093 0.54652 -0.39400
C 	C 	0.90328 0.40041 0.01817 -0.09000
C 	C 	0.87456 0.42545 0.03743 0.01300
C 	C 	0.80325 0.40327 0.03657 0.04000
C 	C 	0.76440 0.36564 0.01440 -0.01100
C 	C 	0.79612 0.35070 0.99311 -0.10900
C 	C 	0.86416 0.36246 0.99603 0.13400
C 	C 	0.92162 0.48519 0.05485 0.01000
C 	C 	0.77019 0.42645 0.05766 -0.18900
H 	H 	0.71133 0.35432 0.01259 0.03700
C 	C 	0.89748 0.34120 0.97445 -0.23400
H 	H 	0.95748 0.41499 0.01945 0.07800
C 	C 	0.94891 0.47204 0.07809 0.05600
C 	C 	0.00920 0.52831 0.08926 0.01400
C 	C 	0.04514 0.59456 0.07600 -0.09500
C 	C 	0.00951 0.61139 0.05663 0.13700
C 	C 	0.94816 0.55598 0.04582 -0.09900
C 	C 	0.91929 0.39706 0.08912 -0.20200
H 	H 	0.03373 0.51722 0.10580 0.09600
C 	C 	0.04117 0.68548 0.04491 -0.22800
H 	H 	0.92435 0.56686 0.02900 0.07100
H 	H 	0.94302 0.33821 0.98203 0.11400
H 	H 	0.91482 0.38133 0.95815 0.12300
H 	H 	0.86011 0.28743 0.96652 0.12600
H 	H 	0.78279 0.48278 0.05391 0.09000
H 	H 	0.78915 0.42273 0.07761 0.09800
H 	H 	0.71294 0.39167 0.05774 0.08900
H 	H 	0.93562 0.39798 0.10997 0.13800
H 	H 	0.93761 0.36627 0.07706 0.13500
H 	H 	0.86180 0.36893 0.08885 0.10800
H 	H 	0.00153 0.69434 0.03478 0.10500
H 	H 	0.08124 0.69211 0.03025 0.09800
H 	H 	0.06472 0.72657 0.06069 0.11300
C 	C 	0.29969 0.95078 0.01092 -0.08400
C 	C 	0.36390 0.97661 0.99838 0.00900
C 	C 	0.38721 0.92802 0.99135 0.05000
C 	C 	0.35152 0.85705 0.00098 -0.00800
C 	C 	0.29222 0.83411 0.01680 -0.09100
C 	C 	0.26230 0.87897 0.01923 0.12400
C 	C 	0.40938 0.05518 0.99506 0.01100
C 	C 	0.45244 0.95273 0.97527 -0.19100
H 	H 	0.37323 0.82184 0.99811 0.05400
C 	C 	0.19044 0.85023 0.03039 -0.22100
H 	H 	0.27991 0.98715 0.01502 0.07400
C 	C 	0.39703 0.09335 0.97489 0.05900
C 	C 	0.44626 0.16558 0.97018 -0.01900
C 	C 	0.51063 0.19654 0.98296 -0.09300
C 	C 	0.51750 0.16297 0.00595 0.12100
C 	C 	0.46701 0.09178 0.01167 -0.08600
C 	C 	0.33410 0.05638 0.95736 -0.20400
H 	H 	0.43856 0.19434 0.95404 0.08600
C 	C 	0.58144 0.20015 0.02286 -0.22100
H 	H 	0.47429 0.06372 0.02819 0.08400
H 	H 	0.17707 0.89350 0.03320 0.10500
H 	H 	0.18569 0.82451 0.04995 0.10100
H 	H 	0.15261 0.81067 0.01634 0.09900
H 	H 	0.49841 0.98213 0.98818 0.09700
H 	H 	0.45471 0.98858 0.95888 0.09700
H 	H 	0.45446 0.90644 0.96624 0.09700
H 	H 	0.33477 0.09248 0.94136 0.13100
H 	H 	0.28635 0.03912 0.96928 0.10800
H 	H 	0.33233 0.00874 0.94783 0.10900
H 	H 	0.57370 0.17293 0.04233 0.11000
H 	H 	0.59393 0.25635 0.02672 0.09900
H 	H 	0.62585 0.20021 0.01262 0.10500
C 	C 	0.45187 0.53615 0.00448 -0.09000
C 	C 	0.48062 0.58446 0.98335 0.00900
C 	C 	0.47999 0.65006 0.98377 0.04600
C 	C 	0.45255 0.66732 0.00591 -0.01100
C 	C 	0.42005 0.61729 0.02651 -0.08800
C 	C 	0.42031 0.55109 0.02580 0.12400
C 	C 	0.51548 0.56752 0.96175 0.01100
C 	C 	0.50569 0.70024 0.96027 -0.19200
H 	H 	0.45262 0.71807 0.00636 0.05900
C 	C 	0.38656 0.49584 0.04735 -0.23300
H 	H 	0.45354 0.48631 0.00419 0.07000
C 	C 	0.58550 0.58543 0.96435 0.04900
C 	C 	0.61147 0.54974 0.94885 0.00600
C 	C 	0.56871 0.49655 0.93076 -0.07000
C 	C 	0.50184 0.48606 0.92557 0.13100
C 	C 	0.47537 0.52134 0.94131 -0.08400
C 	C 	0.63011 0.63542 0.98595 -0.18900
H 	H 	0.66313 0.55858 0.95265 0.07500
C 	C 	0.45625 0.43235 0.90515 -0.23500
H 	H 	0.42211 0.50922 0.93883 0.07800
H 	H 	0.38876 0.44603 0.04312 0.11500
H 	H 	0.33105 0.48044 0.04916 0.13500
H 	H 	0.41413 0.51791 0.06629 0.15300
H 	H 	0.47604 0.67181 0.94233 0.10300
H 	H 	0.56152 0.71935 0.95679 0.10000
H 	H 	0.49921 0.74806 0.96330 0.09500
H 	H 	0.68589 0.65392 0.98239 0.10000
H 	H 	0.61504 0.60716 0.00533 0.08900
H 	H 	0.62422 0.68395 0.98687 0.09500
H 	H 	0.41276 0.44137 0.89940 0.12500
H 	H 	0.43449 0.37712 0.91329 0.13100
H 	H 	0.48654 0.43725 0.88696 0.13900
C 	C 	0.82650 0.20346 0.84901 0.23300
C 	C 	0.86413 0.24426 0.82702 0.00700
C 	C 	0.86540 0.30913 0.82112 0.24200
C 	C 	0.82894 0.33283 0.83711 0.33000
C 	C 	0.79102 0.29173 0.85908 -0.20400
C 	C 	0.78990 0.22683 0.86489 0.32500
C 	C 	0.89742 0.21589 0.80907 0.00500
F 	F 	0.90150 0.34881 0.79982 -0.30600
F 	F 	0.75182 0.18550 0.88558 -0.38600
C 	C 	0.86180 0.17694 0.78660 0.24900
C 	C 	0.88575 0.13730 0.77253 0.31800
C 	C 	0.94679 0.13745 0.78042 -0.16200
C 	C 	0.98450 0.17973 0.80218 0.31600
C 	C 	0.95983 0.21879 0.81639 0.24900
F 	F 	0.80200 0.17483 0.77914 -0.31300
F 	F 	0.04307 0.18029 0.81037 -0.33300
F 	F 	0.84885 0.09746 0.75149 -0.36600
F 	F 	0.99506 0.25713 0.83795 -0.33300
F 	F 	0.82413 0.14014 0.85460 -0.33100
F 	F 	0.83113 0.39603 0.83146 -0.34000
C 	C 	0.36491 0.12672 0.87326 0.21800
C 	C 	0.35945 0.08009 0.85273 0.00400
C 	C 	0.41535 0.06814 0.84760 0.23400
C 	C 	0.47950 0.11121 0.85975 0.32000
C 	C 	0.48747 0.16544 0.87740 -0.20500
C 	C 	0.42879 0.16947 0.88549 0.30100
C 	C 	0.30438 0.05959 0.83272 -0.00400
F 	F 	0.40930 0.01964 0.82900 -0.31700
F 	F 	0.43518 0.21960 0.90342 -0.41500
C 	C 	0.32044 0.09563 0.80828 0.24200
C 	C 	0.26795 0.08318 0.79034 0.32500
C 	C 	0.19830 0.03488 0.79670 -0.18000
C 	C 	0.18215 0.99764 0.82098 0.31300
C 	C 	0.23510 0.00992 0.83892 0.25200
F 	F 	0.38708 0.14443 0.80223 -0.32000
F 	F 	0.11522 0.95091 0.82744 -0.33900
F 	F 	0.28485 0.11799 0.76667 -0.33400
F 	F 	0.21904 0.97458 0.86248 -0.33500
F 	F 	0.31016 0.13592 0.87946 -0.34800
F 	F 	0.53507 0.10435 0.85265 -0.34400
C 	C 	0.80202 0.67752 0.87704 0.22400
C 	C 	0.86697 0.69633 0.86612 0.00400
C 	C 	0.90633 0.66766 0.87709 0.23400
C 	C 	0.87718 0.61382 0.89649 0.32000
C 	C 	0.80805 0.58734 0.90456 -0.22100
C 	C 	0.77257 0.62318 0.89614 0.31200
C 	C 	0.88796 0.73574 0.84071 0.00200
F 	F 	0.97090 0.68840 0.86768 -0.32600
F 	F 	0.70641 0.59957 0.90397 -0.40000
C 	C 	0.91121 0.80978 0.83994 0.24700
C 	C 	0.92222 0.84521 0.81558 0.32400
C 	C 	0.91019 0.80684 0.79179 -0.20000
C 	C 	0.88873 0.73317 0.79257 0.32600
C 	C 	0.87754 0.69775 0.81692 0.23700
F 	F 	0.92214 0.84712 0.86280 -0.32500
F 	F 	0.87696 0.69552 0.76973 -0.33700
F 	F 	0.94532 0.91697 0.81506 -0.36100
F 	F 	0.85452 0.62601 0.81745 -0.32300
F 	F 	0.76474 0.70732 0.86740 -0.33900
F 	F 	0.91361 0.58241 0.90550 -0.37200
