data_crystal

_cell_length_a 18.42410
_cell_length_b 18.83623
_cell_length_c 34.84952
_cell_angle_alpha 95.44115
_cell_angle_beta  95.44134
_cell_angle_gamma 126.41089

_symmetry_space_group_name_	'P 1'
_symmetry_space_group_name_H-M	'P 1'

loop_
_symmetry_equiv_pos_as_xyz
  x,y,z

loop_
_atom_site_label
_atom_site_type_symbol
_atom_site_fract_x
_atom_site_fract_y
_atom_site_fract_z
_atom_site_charge
C 	C 	0.86075 0.92804 0.96050 0.12500
N 	N 	0.95324 0.97347 0.96726 -0.14100
C 	C 	0.98929 0.92827 0.96615 0.13100
N 	N 	0.93310 0.83745 0.95847 -0.13800
C 	C 	0.84081 0.79111 0.95189 0.12700
N 	N 	0.80407 0.83623 0.95199 -0.13800
C 	C 	0.99286 0.09773 0.48818 0.12900
N 	N 	0.94311 0.00732 0.48464 -0.13500
C 	C 	0.98642 0.96955 0.48938 0.12500
N 	N 	0.07914 0.02142 0.49463 -0.13700
C 	C 	0.12910 0.11129 0.49658 0.12800
N 	N 	0.08615 0.15003 0.49432 -0.14100
Cu	Cu	0.70247 0.27251 0.95197 0.92900
Cu	Cu	0.73284 0.24596 0.04274 0.88500
Cu	Cu	0.56795 0.22923 0.00740 0.90300
Cu	Cu	0.51530 0.23943 0.92356 0.90200
C 	C 	0.63472 0.23887 0.86958 0.33400
O 	O 	0.74320 0.39700 0.94404 -0.34400
C 	C 	0.65034 0.29443 0.09266 0.33400
O 	O 	0.56150 0.19126 0.95315 -0.63600
O 	O 	0.70287 0.30225 0.00801 -0.64000
O 	O 	0.77284 0.22203 0.95721 -0.35400
O 	O 	0.70144 0.14782 0.00537 -0.42700
O 	O 	0.55944 0.23067 0.87402 -0.36300
O 	O 	0.43620 0.15114 0.00326 -0.36700
C 	C 	0.37753 0.13785 0.97320 0.30000
C 	C 	0.69610 0.42620 0.95308 0.28800
O 	O 	0.61363 0.37039 0.96053 -0.38200
O 	O 	0.40473 0.19223 0.94764 -0.38000
O 	O 	0.67891 0.22716 0.89721 -0.34700
C 	C 	0.75094 0.15976 0.97845 0.29300
O 	O 	0.57540 0.24874 0.06499 -0.36400
O 	O 	0.72851 0.31394 0.08529 -0.39300
H 	H 	0.52761 0.12564 0.94516 0.17600
H 	H 	0.73571 0.36702 0.01803 0.17800
Cu	Cu	0.66877 0.27428 0.51256 0.92900
Cu	Cu	0.70215 0.26648 0.42211 0.87900
Cu	Cu	0.69352 0.40814 0.46130 0.90100
Cu	Cu	0.71246 0.45931 0.54958 0.90800
C 	C 	0.71646 0.33903 0.59595 0.32500
O 	O 	0.54376 0.23011 0.52311 -0.36400
C 	C 	0.64409 0.34669 0.37568 0.32900
O 	O 	0.74998 0.41450 0.51232 -0.63500
O 	O 	0.63308 0.27733 0.45777 -0.63800
O 	O 	0.71470 0.20279 0.50205 -0.35500
O 	O 	0.79860 0.28855 0.45921 -0.42500
O 	O 	0.75133 0.42252 0.59354 -0.36000
O 	O 	0.76187 0.53674 0.46539 -0.36500
C 	C 	0.78729 0.59478 0.49776 0.29900
C 	C 	0.51478 0.27913 0.52227 0.30200
O 	O 	0.57073 0.36342 0.51861 -0.38000
O 	O 	0.74894 0.56808 0.52871 -0.38100
O 	O 	0.71328 0.28631 0.56688 -0.34300
C 	C 	0.78081 0.23049 0.48191 0.29900
O 	O 	0.64834 0.39775 0.40601 -0.35600
O 	O 	0.63415 0.27261 0.37945 -0.39400
H 	H 	0.81724 0.44735 0.51572 0.17200
H 	H 	0.56607 0.23906 0.44767 0.18400
C 	C 	0.65644 0.24000 0.82985 -0.11500
C 	C 	0.73591 0.31790 0.82171 0.12000
C 	C 	0.74686 0.32623 0.78258 0.06500
C 	C 	0.68002 0.25524 0.75166 0.01800
C 	C 	0.60589 0.17359 0.76010 0.06600
C 	C 	0.59406 0.16596 0.79922 0.12700
C 	C 	0.68341 0.26938 0.71049 0.01700
C 	C 	0.63862 0.30230 0.69400 0.06500
C 	C 	0.64921 0.32465 0.65650 0.11900
C 	C 	0.70394 0.31303 0.63502 -0.11600
C 	C 	0.75037 0.28166 0.65200 0.12800
C 	C 	0.73679 0.25631 0.68895 0.06600
Br	Br	0.51950 0.07338 0.71795 -0.15800
Br	Br	0.82998 0.41273 0.86408 -0.19900
Br	Br	0.59240 0.37565 0.63552 -0.23100
Br	Br	0.79205 0.20450 0.71038 -0.15400
Br	Br	0.49409 0.05366 0.81105 -0.18600
Br	Br	0.85141 0.43611 0.77114 -0.16000
Br	Br	0.56379 0.31816 0.72325 -0.17000
Br	Br	0.84134 0.28438 0.62741 -0.18500
C 	C 	0.63567 0.36485 0.33599 -0.11800
C 	C 	0.55090 0.30813 0.30972 0.12900
C 	C 	0.54814 0.30683 0.26913 0.06500
C 	C 	0.63034 0.36198 0.25499 0.01800
C 	C 	0.71301 0.42699 0.28168 0.06500
C 	C 	0.71538 0.42897 0.32227 0.12100
C 	C 	0.63220 0.34283 0.21294 0.01700
C 	C 	0.64378 0.27764 0.19981 0.06500
C 	C 	0.64675 0.25991 0.16012 0.12700
C 	C 	0.64227 0.31008 0.13377 -0.12100
C 	C 	0.63014 0.37493 0.14677 0.12700
C 	C 	0.62378 0.39040 0.18625 0.06700
Br	Br	0.82368 0.50961 0.26245 -0.15800
Br	Br	0.43924 0.23184 0.32944 -0.18800
Br	Br	0.65331 0.16439 0.14144 -0.22100
Br	Br	0.60347 0.47646 0.20385 -0.15300
Br	Br	0.82839 0.51680 0.35908 -0.21600
Br	Br	0.43292 0.22674 0.23274 -0.15600
Br	Br	0.65666 0.21342 0.23645 -0.16800
Br	Br	0.62437 0.44381 0.11074 -0.20700
C 	C 	0.95365 0.82185 0.46997 -0.06800
C 	C 	0.93377 0.87357 0.49123 -0.02900
C 	C 	0.86832 0.83423 0.51599 0.08800
C 	C 	0.81733 0.74195 0.51561 -0.02800
C 	C 	0.83990 0.69102 0.49575 -0.09500
C 	C 	0.91208 0.73278 0.47424 0.13000
N 	N 	0.94525 0.68990 0.45965 -0.19700
H 	H 	0.00536 0.85253 0.45173 0.06500
H 	H 	0.76251 0.71053 0.53230 0.06000
N 	N 	0.85778 0.88519 0.54170 -0.19400
H 	H 	0.99327 0.71847 0.44123 0.10800
H 	H 	0.93010 0.63229 0.46908 0.09900
H 	H 	0.90711 0.95480 0.54917 0.10100
H 	H 	0.80407 0.85460 0.55733 0.09900
C 	C 	0.89739 0.12911 0.45065 -0.06700
C 	C 	0.94548 0.13880 0.48685 -0.03100
C 	C 	0.93739 0.17663 0.52180 0.09400
C 	C 	0.88166 0.20464 0.51962 -0.02900
C 	C 	0.83254 0.19371 0.48344 -0.09500
C 	C 	0.83833 0.15312 0.44869 0.12000
N 	N 	0.78463 0.13356 0.41374 -0.19700
H 	H 	0.90244 0.09862 0.42405 0.06300
H 	H 	0.87725 0.23583 0.54614 0.07300
N 	N 	0.98217 0.18561 0.55745 -0.19500
H 	H 	0.79249 0.10757 0.38797 0.09700
H 	H 	0.73134 0.13907 0.41206 0.06000
H 	H 	0.02402 0.16543 0.56023 0.10100
H 	H 	0.97530 0.21318 0.58304 0.11100
C 	C 	0.27250 0.16549 0.54017 -0.07100
C 	C 	0.22986 0.16678 0.50497 -0.02900
C 	C 	0.28146 0.20527 0.47534 0.08900
C 	C 	0.37414 0.23983 0.48131 -0.02600
C 	C 	0.41547 0.23467 0.51578 -0.10100
C 	C 	0.36350 0.19517 0.54517 0.13400
N 	N 	0.39948 0.18345 0.57769 -0.20100
H 	H 	0.23267 0.13565 0.56274 0.06500
H 	H 	0.41420 0.27043 0.45889 0.05100
N 	N 	0.24239 0.20829 0.44099 -0.19500
H 	H 	0.36190 0.15798 0.60000 0.11200
H 	H 	0.46301 0.19567 0.58048 0.12100
H 	H 	0.17402 0.18416 0.43564 0.10500
H 	H 	0.28089 0.23578 0.41913 0.10500
C 	C 	0.75368 0.55391 0.91811 -0.03200
C 	C 	0.73371 0.52085 0.95310 -0.09200
C 	C 	0.73500 0.57314 0.98566 0.12400
C 	C 	0.75551 0.65688 0.98230 -0.06700
C 	C 	0.78199 0.69261 0.94831 -0.03200
C 	C 	0.77661 0.63879 0.91525 0.09400
N 	N 	0.79329 0.66827 0.88068 -0.19600
H 	H 	0.74856 0.51240 0.89260 0.06900
H 	H 	0.75896 0.69785 0.00756 0.05900
N 	N 	0.72060 0.54526 0.02066 -0.19900
H 	H 	0.79237 0.62981 0.85668 0.10900
H 	H 	0.80437 0.72819 0.87697 0.10400
H 	H 	0.71599 0.48904 0.02561 0.09900
H 	H 	0.71823 0.58247 0.04405 0.11000
C 	C 	0.86928 0.05911 0.94506 -0.06700
C 	C 	0.82308 0.97961 0.96050 -0.03000
C 	C 	0.74999 0.95771 0.98004 0.08100
C 	C 	0.72170 0.01269 0.98130 -0.02000
C 	C 	0.77498 0.09731 0.97015 -0.10000
C 	C 	0.85255 0.12225 0.95343 0.12800
N 	N 	0.91523 0.20800 0.94850 -0.19800
H 	H 	0.92480 0.07609 0.92985 0.06700
H 	H 	0.66169 0.99233 0.99372 0.05100
N 	N 	0.71043 0.88787 0.99957 -0.19200
H 	H 	0.96470 0.22274 0.93149 0.10400
H 	H 	0.92372 0.26179 0.96566 0.10500
H 	H 	0.74334 0.86052 0.00809 0.10000
H 	H 	0.65073 0.86677 0.01023 0.09600
C 	C 	0.12240 0.96356 0.93772 -0.07300
C 	C 	0.08872 0.97733 0.96971 -0.03500
C 	C 	0.15039 0.03690 0.00475 0.09400
C 	C 	0.24520 0.08659 0.00594 -0.02700
C 	C 	0.27889 0.07537 0.97332 -0.09600
C 	C 	0.21696 0.01051 0.93951 0.13000
N 	N 	0.24782 0.99192 0.90906 -0.20500
H 	H 	0.07474 0.91586 0.91134 0.06300
H 	H 	0.29291 0.13520 0.03211 0.06400
N 	N 	0.11918 0.04552 0.03741 -0.19500
H 	H 	0.20176 0.94625 0.88361 0.10100
H 	H 	0.31702 0.01959 0.91094 0.09100
H 	H 	0.04936 0.00438 0.03858 0.10300
H 	H 	0.16537 0.09180 0.06271 0.10400
