data_crystal

_cell_length_a 26.20200
_cell_length_b 26.35161
_cell_length_c 26.54328
_cell_angle_alpha 95.48227
_cell_angle_beta  95.48238
_cell_angle_gamma 125.84998

_symmetry_space_group_name_	'P 1'
_symmetry_space_group_name_H-M	'P 1'

loop_
_symmetry_equiv_pos_as_xyz
  x,y,z

loop_
_atom_site_label
_atom_site_type_symbol
_atom_site_fract_x
_atom_site_fract_y
_atom_site_fract_z
_atom_site_charge
C 	C 	0.97385 0.03474 0.98958 0.18700
N 	N 	0.93894 0.97074 0.98697 -0.13200
C 	C 	0.96659 0.94082 0.98036 0.19700
N 	N 	0.02941 0.97518 0.97656 -0.10700
C 	C 	0.06446 0.03911 0.97905 0.19500
N 	N 	0.03674 0.06898 0.98573 -0.09800
C 	C 	0.93634 0.00036 0.43993 0.18400
N 	N 	0.00020 0.03205 0.44116 -0.12200
C 	C 	0.02591 0.99989 0.43955 0.22700
N 	N 	0.98739 0.93565 0.43536 -0.12100
C 	C 	0.92365 0.90364 0.43438 0.20400
N 	N 	0.89798 0.93598 0.43673 -0.11400
Cu	Cu	0.64194 0.24378 0.00874 0.93700
Cu	Cu	0.69053 0.24516 0.89926 0.88700
Cu	Cu	0.68500 0.34838 0.94526 0.90200
Cu	Cu	0.65518 0.36779 0.04806 0.90900
C 	C 	0.66229 0.28825 0.11700 0.31000
O 	O 	0.55084 0.21427 0.00881 -0.30700
C 	C 	0.66265 0.30735 0.83185 0.31100
O 	O 	0.70073 0.34356 0.01606 -0.63800
O 	O 	0.63518 0.25378 0.93610 -0.63700
O 	O 	0.67491 0.19225 0.00254 -0.32100
O 	O 	0.74863 0.25736 0.95617 -0.42600
O 	O 	0.63772 0.31817 0.10482 -0.35300
O 	O 	0.73795 0.44040 0.95852 -0.37200
C 	C 	0.73298 0.47657 0.99259 0.34600
C 	C 	0.53056 0.24551 0.99048 0.32400
O 	O 	0.57245 0.30536 0.98661 -0.38500
O 	O 	0.70176 0.45497 0.03098 -0.34200
O 	O 	0.66265 0.24994 0.08138 -0.33700
C 	C 	0.72889 0.21490 0.98608 0.33800
O 	O 	0.68310 0.35364 0.87135 -0.36800
O 	O 	0.65319 0.25368 0.83849 -0.39700
H 	H 	0.74659 0.36794 0.03188 0.18700
H 	H 	0.59098 0.23029 0.91643 0.19900
Cu	Cu	0.73186 0.33706 0.44123 0.93300
Cu	Cu	0.73625 0.29778 0.55417 0.88300
Cu	Cu	0.63026 0.29967 0.50836 0.90400
Cu	Cu	0.60600 0.32292 0.40337 0.92000
C 	C 	0.68039 0.30804 0.33292 0.30600
O 	O 	0.76303 0.42763 0.43712 -0.34100
C 	C 	0.67625 0.32768 0.62176 0.30700
O 	O 	0.63186 0.27987 0.43727 -0.63700
O 	O 	0.72533 0.34951 0.51454 -0.63600
O 	O 	0.78181 0.30189 0.44803 -0.33000
O 	O 	0.71829 0.23534 0.49902 -0.42900
O 	O 	0.65072 0.33327 0.34407 -0.34500
O 	O 	0.53760 0.24614 0.49781 -0.36900
C 	C 	0.49959 0.24296 0.45906 0.34700
C 	C 	0.73109 0.44880 0.45203 0.33000
O 	O 	0.67295 0.40841 0.46058 -0.35100
O 	O 	0.52250 0.28319 0.42674 -0.33700
O 	O 	0.72170 0.31146 0.36857 -0.32300
C 	C 	0.75942 0.25054 0.46820 0.34100
O 	O 	0.62857 0.30679 0.58310 -0.36600
O 	O 	0.73069 0.33937 0.61361 -0.39100
H 	H 	0.60686 0.23375 0.42311 0.18800
H 	H 	0.74931 0.39442 0.53212 0.18900
C 	C 	0.65882 0.31938 0.77902 -0.09400
C 	C 	0.71105 0.37498 0.76624 -0.05300
C 	C 	0.71451 0.38067 0.71452 0.17800
C 	C 	0.66551 0.33038 0.67515 -0.09600
C 	C 	0.61016 0.27796 0.68813 -0.05300
C 	C 	0.60695 0.27194 0.73983 0.17700
H 	H 	0.75053 0.41242 0.79624 0.08000
O 	O 	0.76726 0.43400 0.70250 -0.26900
H 	H 	0.57120 0.24001 0.65807 0.08000
O 	O 	0.55298 0.21995 0.75198 -0.26100
H 	H 	0.55951 0.18638 0.74969 0.16600
H 	H 	0.75625 0.46400 0.70042 0.17100
C 	C 	0.67133 0.28287 0.17112 -0.08600
C 	C 	0.73038 0.32890 0.20388 -0.05000
C 	C 	0.73544 0.33355 0.25743 0.18600
C 	C 	0.68081 0.29242 0.27839 -0.07900
C 	C 	0.62320 0.24309 0.24543 -0.05100
C 	C 	0.61841 0.23794 0.19193 0.18500
H 	H 	0.77157 0.36310 0.18800 0.07800
O 	O 	0.79238 0.38154 0.28918 -0.25700
H 	H 	0.58119 0.21068 0.26131 0.08100
O 	O 	0.56068 0.19187 0.16017 -0.25700
H 	H 	0.56134 0.15477 0.15193 0.18100
H 	H 	0.81577 0.36311 0.29545 0.18700
C 	C 	0.82357 0.74525 0.47653 -0.12300
C 	C 	0.82908 0.70729 0.44008 0.01000
C 	C 	0.85892 0.73204 0.39837 0.32100
C 	C 	0.88583 0.79528 0.39458 -0.07700
C 	C 	0.88325 0.83437 0.43241 -0.07100
C 	C 	0.85054 0.80861 0.47277 0.35900
C 	C 	0.80381 0.64172 0.44567 0.02400
F 	F 	0.86291 0.69516 0.36208 -0.39800
H 	H 	0.91058 0.81459 0.36313 0.11800
F 	F 	0.84771 0.84581 0.50970 -0.40100
H 	H 	0.79971 0.72611 0.50841 0.13000
C 	C 	0.84569 0.62777 0.46374 0.30400
C 	C 	0.82184 0.56484 0.46626 -0.05100
C 	C 	0.75600 0.51542 0.45089 -0.13500
C 	C 	0.71412 0.52969 0.43313 0.37700
C 	C 	0.73804 0.59258 0.43083 -0.14200
F 	F 	0.90947 0.67514 0.47852 -0.39300
H 	H 	0.85450 0.55453 0.48018 0.10400
F 	F 	0.65060 0.48239 0.41646 -0.43600
H 	H 	0.70556 0.60299 0.41657 0.13200
C 	C 	0.83027 0.17262 0.41075 -0.13700
C 	C 	0.83327 0.14261 0.45069 0.02500
C 	C 	0.81253 0.14857 0.49618 0.28900
C 	C 	0.78966 0.18472 0.50198 -0.05200
C 	C 	0.78644 0.21482 0.46214 -0.14700
C 	C 	0.80671 0.20843 0.41628 0.37900
C 	C 	0.86078 0.10730 0.44593 0.00400
F 	F 	0.81463 0.11928 0.53488 -0.40700
H 	H 	0.77451 0.18946 0.53759 0.08100
F 	F 	0.80242 0.23568 0.37679 -0.42400
H 	H 	0.84627 0.16828 0.37551 0.13700
C 	C 	0.82656 0.04773 0.41292 0.31800
C 	C 	0.85075 0.01235 0.41154 -0.09700
C 	C 	0.90920 0.03613 0.44322 -0.06200
C 	C 	0.94313 0.09565 0.47645 0.35000
C 	C 	0.91926 0.13117 0.47735 -0.11300
F 	F 	0.76953 0.02378 0.38275 -0.40800
H 	H 	0.82438 0.96679 0.38554 0.13100
F 	F 	0.99855 0.11845 0.50867 -0.40400
H 	H 	0.94566 0.17684 0.50321 0.13200
C 	C 	0.32146 0.13079 0.40891 -0.13400
C 	C 	0.29770 0.13435 0.45321 0.02300
C 	C 	0.34034 0.17076 0.50018 0.29400
C 	C 	0.40632 0.20434 0.50246 -0.04700
C 	C 	0.43019 0.20236 0.45778 -0.13700
C 	C 	0.38744 0.16484 0.41107 0.37800
C 	C 	0.22827 0.10049 0.45022 0.01000
F 	F 	0.31790 0.17470 0.54328 -0.39900
H 	H 	0.43897 0.23335 0.53862 0.10700
F 	F 	0.40989 0.16149 0.36780 -0.43300
H 	H 	0.28876 0.10207 0.37271 0.13600
C 	C 	0.19602 0.11925 0.42163 0.31000
C 	C 	0.12998 0.08638 0.41824 -0.07200
C 	C 	0.09565 0.03478 0.44365 -0.08300
C 	C 	0.12825 0.01672 0.47296 0.35100
C 	C 	0.19414 0.04918 0.47581 -0.11500
F 	F 	0.22878 0.16947 0.39732 -0.40200
H 	H 	0.10540 0.10071 0.39557 0.11700
F 	F 	0.09636 0.96864 0.49951 -0.39000
H 	H 	0.21880 0.03464 0.49810 0.13500
C 	C 	0.90688 0.76928 0.94913 -0.11700
C 	C 	0.86185 0.74103 0.98141 0.00700
C 	C 	0.84961 0.77797 0.01196 0.31100
C 	C 	0.88334 0.84297 0.01113 -0.07600
C 	C 	0.92916 0.87160 0.97938 -0.07700
C 	C 	0.93998 0.83408 0.94766 0.35300
C 	C 	0.82878 0.67315 0.98416 0.02100
F 	F 	0.80517 0.75086 0.04256 -0.40300
H 	H 	0.87449 0.87127 0.03570 0.11700
F 	F 	0.98187 0.86016 0.91495 -0.41000
H 	H 	0.91635 0.74101 0.92526 0.13500
C 	C 	0.78705 0.62560 0.94071 0.29200
C 	C 	0.75648 0.56141 0.94340 -0.04900
C 	C 	0.76659 0.54417 0.98964 -0.14100
C 	C 	0.80837 0.59172 0.03307 0.38200
C 	C 	0.83956 0.65593 0.03020 -0.13200
F 	F 	0.77565 0.64159 0.89612 -0.40500
H 	H 	0.72423 0.52499 0.90976 0.10100
F 	F 	0.81963 0.57575 0.07773 -0.42500
H 	H 	0.87224 0.69237 0.06370 0.13900
C 	C 	0.91396 0.13213 0.96646 -0.12100
C 	C 	0.87671 0.11948 0.00476 0.01200
C 	C 	0.87402 0.08144 0.03961 0.30800
C 	C 	0.90705 0.05502 0.03530 -0.07500
C 	C 	0.94340 0.06674 0.99642 -0.07500
C 	C 	0.94734 0.10608 0.96235 0.35500
C 	C 	0.83836 0.14380 0.00675 0.02700
F 	F 	0.83909 0.06978 0.07739 -0.40500
H 	H 	0.90408 0.02509 0.06196 0.11300
F 	F 	0.98160 0.11716 0.92414 -0.40800
H 	H 	0.91607 0.16122 0.93929 0.13200
C 	C 	0.86884 0.20970 0.01746 0.28900
C 	C 	0.83258 0.23278 0.01319 -0.04700
C 	C 	0.76557 0.19028 0.99860 -0.14900
C 	C 	0.73486 0.12427 0.99049 0.37600
C 	C 	0.77119 0.10121 0.99438 -0.14100
F 	F 	0.93367 0.25135 0.03092 -0.40300
H 	H 	0.85664 0.28375 0.02012 0.09800
F 	F 	0.67011 0.08254 0.97627 -0.42600
H 	H 	0.74729 0.05028 0.98624 0.13800
C 	C 	0.24476 0.15244 0.01474 -0.11200
C 	C 	0.26236 0.13527 0.97166 0.00700
C 	C 	0.21475 0.08966 0.92948 0.31400
C 	C 	0.15006 0.05980 0.93131 -0.07600
C 	C 	0.13242 0.07581 0.97492 -0.06700
C 	C 	0.18007 0.12311 0.01628 0.35600
C 	C 	0.33035 0.16279 0.97191 0.02400
F 	F 	0.23118 0.07381 0.88703 -0.40000
H 	H 	0.11356 0.02359 0.89912 0.13300
F 	F 	0.16361 0.13881 0.05879 -0.40700
H 	H 	0.28116 0.18754 0.04746 0.13700
C 	C 	0.37583 0.22857 0.97469 0.29400
C 	C 	0.44085 0.25514 0.97916 -0.05600
C 	C 	0.46116 0.21621 0.98057 -0.13300
C 	C 	0.41503 0.14979 0.97520 0.37500
C 	C 	0.35013 0.12349 0.97150 -0.13300
F 	F 	0.35708 0.26685 0.97362 -0.40100
H 	H 	0.47553 0.30621 0.98259 0.10400
F 	F 	0.43291 0.11071 0.97334 -0.42000
H 	H 	0.31521 0.07257 0.96884 0.14000
