data_crystal

_cell_length_a 26.07701
_cell_length_b 26.47930
_cell_length_c 34.87290
_cell_angle_alpha 95.49213
_cell_angle_beta  95.48924
_cell_angle_gamma 125.83156

_symmetry_space_group_name_	'P 1'
_symmetry_space_group_name_H-M	'P 1'

loop_
_symmetry_equiv_pos_as_xyz
  x,y,z

loop_
_atom_site_label
_atom_site_type_symbol
_atom_site_fract_x
_atom_site_fract_y
_atom_site_fract_z
_atom_site_charge
C 	C 	0.94651 0.99899 0.99996 0.23000
N 	N 	0.91268 0.93497 0.99369 -0.08200
C 	C 	0.94395 0.90832 0.99259 0.16100
N 	N 	0.00902 0.94564 0.99684 -0.03500
C 	C 	0.04309 0.00969 0.00326 0.16600
N 	N 	0.01174 0.03640 0.00419 -0.08000
C 	C 	0.95455 0.02838 0.46109 0.11900
N 	N 	0.92173 0.96480 0.45877 -0.05400
C 	C 	0.95441 0.93959 0.46220 0.16300
N 	N 	0.01976 0.97818 0.46909 -0.02100
C 	C 	0.05249 0.04172 0.47206 0.17300
N 	N 	0.01985 0.06670 0.46782 -0.04500
Cu	Cu	0.63092 0.23164 0.00172 0.93800
Cu	Cu	0.64616 0.18516 0.91537 0.92900
Cu	Cu	0.64679 0.30918 0.93832 0.93000
Cu	Cu	0.62734 0.34955 0.01638 0.91400
C 	C 	0.64373 0.28784 0.07994 0.30000
O 	O 	0.53782 0.19006 0.00699 -0.31000
C 	C 	0.65106 0.26428 0.86301 0.29300
O 	O 	0.67439 0.32540 0.99380 -0.62900
O 	O 	0.60837 0.21939 0.94369 -0.61600
O 	O 	0.68409 0.19948 0.00667 -0.29200
O 	O 	0.63359 0.12878 0.94895 -0.34000
O 	O 	0.64239 0.33428 0.07013 -0.34400
O 	O 	0.69023 0.39733 0.93534 -0.30600
C 	C 	0.69027 0.43739 0.96092 0.29800
C 	C 	0.50684 0.21197 0.99382 0.29500
O 	O 	0.53808 0.26594 0.98138 -0.33000
O 	O 	0.64915 0.41717 0.98525 -0.30200
O 	O 	0.66139 0.26003 0.05708 -0.32700
C 	C 	0.67291 0.15114 0.98274 0.30600
O 	O 	0.62742 0.28934 0.88173 -0.32200
O 	O 	0.68429 0.24948 0.88311 -0.35300
H 	H 	0.72166 0.35589 0.00260 0.20700
H 	H 	0.56124 0.19187 0.93422 0.22200
Cu	Cu	0.74404 0.36121 0.44936 0.94100
Cu	Cu	0.77772 0.32878 0.53327 0.92400
Cu	Cu	0.65702 0.33580 0.50937 0.93200
Cu	Cu	0.62933 0.37222 0.43581 0.92200
C 	C 	0.68102 0.34431 0.37112 0.30500
O 	O 	0.78887 0.45547 0.45082 -0.30000
C 	C 	0.69226 0.31815 0.58299 0.29800
O 	O 	0.64709 0.31806 0.45351 -0.63000
O 	O 	0.74921 0.37299 0.50739 -0.61200
O 	O 	0.77568 0.30817 0.44141 -0.28300
O 	O 	0.83869 0.34555 0.50195 -0.34900
O 	O 	0.66145 0.37698 0.38564 -0.34200
O 	O 	0.56661 0.29418 0.50894 -0.30700
C 	C 	0.52906 0.29747 0.48282 0.30800
C 	C 	0.76726 0.48464 0.46736 0.30200
O 	O 	0.71103 0.45123 0.47802 -0.34200
O 	O 	0.55343 0.34239 0.46152 -0.31400
O 	O 	0.72208 0.33997 0.39309 -0.32300
C 	C 	0.81860 0.31124 0.46677 0.30000
O 	O 	0.67033 0.34563 0.56585 -0.33500
O 	O 	0.70751 0.28681 0.56163 -0.35500
H 	H 	0.61508 0.27263 0.44147 0.23800
H 	H 	0.77774 0.41833 0.51999 0.21200
C 	C 	0.65428 0.26756 0.82114 -0.08200
C 	C 	0.59987 0.24883 0.79352 0.15900
C 	C 	0.60690 0.25970 0.75508 -0.08200
C 	C 	0.66558 0.28359 0.74286 0.01300
C 	C 	0.71903 0.29900 0.76986 0.09200
C 	C 	0.71313 0.29195 0.80893 -0.01300
N 	N 	0.54046 0.21805 0.80317 -0.19900
H 	H 	0.56585 0.24715 0.73416 0.09800
C 	C 	0.67019 0.29142 0.70153 0.01300
N 	N 	0.77592 0.32022 0.75848 -0.19000
H 	H 	0.75468 0.30586 0.82995 0.09200
C 	C 	0.69862 0.35188 0.69243 -0.08400
C 	C 	0.70913 0.36231 0.65429 0.15500
C 	C 	0.68583 0.31007 0.62401 -0.08700
C 	C 	0.65572 0.24925 0.63296 -0.01200
C 	C 	0.64868 0.23952 0.67156 0.09000
H 	H 	0.71533 0.39152 0.71553 0.10000
N 	N 	0.74387 0.42265 0.64737 -0.20100
H 	H 	0.63786 0.20928 0.60981 0.09300
N 	N 	0.62180 0.18049 0.67964 -0.19000
H 	H 	0.75814 0.46043 0.66942 0.15100
H 	H 	0.76021 0.43318 0.62102 0.13700
H 	H 	0.60564 0.14245 0.65723 0.14100
H 	H 	0.61729 0.17178 0.70814 0.12500
H 	H 	0.81534 0.33234 0.77880 0.14100
H 	H 	0.78140 0.32388 0.72939 0.12500
H 	H 	0.53163 0.20092 0.82935 0.14200
H 	H 	0.50134 0.20740 0.78327 0.15300
C 	C 	0.64376 0.28030 0.12126 -0.08300
C 	C 	0.58985 0.26250 0.13853 0.15600
C 	C 	0.59580 0.26840 0.17944 -0.08300
C 	C 	0.65388 0.28968 0.20310 0.01400
C 	C 	0.70582 0.30168 0.18548 0.08900
C 	C 	0.70040 0.29738 0.14464 -0.01200
N 	N 	0.53215 0.23879 0.11600 -0.20100
H 	H 	0.55545 0.25736 0.19296 0.10200
C 	C 	0.66144 0.30425 0.24623 0.01300
N 	N 	0.76114 0.31816 0.20758 -0.19000
H 	H 	0.74111 0.30939 0.13121 0.08800
C 	C 	0.64091 0.25545 0.26766 -0.08400
C 	C 	0.64550 0.26709 0.30846 0.16200
C 	C 	0.67253 0.32921 0.32815 -0.08100
C 	C 	0.69298 0.37794 0.30665 -0.00900
C 	C 	0.68742 0.36609 0.26583 0.09400
H 	H 	0.62056 0.20806 0.25246 0.09600
N 	N 	0.62253 0.21826 0.32830 -0.19900
H 	H 	0.71378 0.42549 0.32181 0.08700
N 	N 	0.70709 0.41420 0.24571 -0.19000
H 	H 	0.60416 0.17296 0.31364 0.15700
H 	H 	0.62091 0.22417 0.35808 0.15600
H 	H 	0.72644 0.45971 0.26051 0.14800
H 	H 	0.70322 0.40708 0.21530 0.13000
H 	H 	0.79981 0.32846 0.19442 0.13900
H 	H 	0.76586 0.31958 0.23781 0.12800
H 	H 	0.52446 0.22769 0.08550 0.11900
H 	H 	0.49331 0.22840 0.12900 0.15200
C 	C 	0.90392 0.77339 0.43197 0.05200
C 	C 	0.86742 0.74309 0.46031 0.08900
C 	C 	0.85560 0.77645 0.48789 -0.07600
C 	C 	0.88318 0.84061 0.48730 0.06100
C 	C 	0.91918 0.87054 0.45868 0.07700
C 	C 	0.92613 0.83544 0.42917 -0.06600
C 	C 	0.84239 0.67649 0.46106 0.10300
C 	C 	0.81771 0.74538 0.51964 0.78700
H 	H 	0.87840 0.86799 0.50984 0.12900
C 	C 	0.95928 0.86455 0.39551 0.75200
H 	H 	0.91425 0.74812 0.41174 0.12600
C 	C 	0.78631 0.62536 0.43455 -0.10100
C 	C 	0.76496 0.56307 0.43580 0.08200
C 	C 	0.79651 0.55092 0.46400 0.00100
C 	C 	0.85288 0.60186 0.49016 -0.05200
C 	C 	0.87615 0.66447 0.48775 0.03400
C 	C 	0.75105 0.63714 0.40364 0.79000
H 	H 	0.72302 0.52358 0.41514 0.07700
C 	C 	0.88755 0.58943 0.52091 0.77600
H 	H 	0.92007 0.70410 0.50697 0.13400
F 	F 	0.94225 0.81802 0.36418 -0.36100
F 	F 	0.02531 0.90205 0.40794 -0.34100
F 	F 	0.94192 0.90108 0.38218 -0.35400
F 	F 	0.85440 0.73891 0.54712 -0.39000
F 	F 	0.76103 0.68622 0.50370 -0.37400
F 	F 	0.80163 0.78128 0.53863 -0.36800
F 	F 	0.90758 0.55671 0.50275 -0.41800
F 	F 	0.84633 0.55364 0.54531 -0.42600
F 	F 	0.94117 0.64515 0.54386 -0.38700
F 	F 	0.69190 0.58157 0.38572 -0.39100
F 	F 	0.78763 0.66251 0.37511 -0.39500
F 	F 	0.74002 0.67871 0.42033 -0.36800
C 	C 	0.80070 0.15749 0.44793 0.04100
C 	C 	0.86538 0.18079 0.45391 0.09000
C 	C 	0.91456 0.24692 0.45929 -0.08300
C 	C 	0.89764 0.28865 0.46148 0.07200
C 	C 	0.83313 0.26554 0.45883 0.00400
C 	C 	0.78385 0.19908 0.45227 -0.06700
C 	C 	0.88107 0.13534 0.45513 0.08900
C 	C 	0.98463 0.27283 0.46138 0.72300
H 	H 	0.93468 0.33938 0.46591 0.10400
C 	C 	0.71336 0.17225 0.44939 0.78300
H 	H 	0.76356 0.10667 0.44135 0.12700
C 	C 	0.88559 0.11421 0.49029 -0.08300
C 	C 	0.90517 0.07474 0.49083 0.05000
C 	C 	0.91974 0.05615 0.45714 0.07600
C 	C 	0.90908 0.07213 0.42118 -0.07800
C 	C 	0.89039 0.11229 0.42066 0.05000
C 	C 	0.86803 0.13231 0.52681 0.78500
H 	H 	0.91141 0.06021 0.51783 0.11800
C 	C 	0.92072 0.04899 0.38383 0.75900
H 	H 	0.88459 0.12706 0.39367 0.12800
F 	F 	0.70555 0.20176 0.48077 -0.46800
F 	F 	0.67495 0.10787 0.44980 -0.39000
F 	F 	0.69194 0.18128 0.41474 -0.42500
F 	F 	0.99222 0.25193 0.42601 -0.39400
F 	F 	0.00329 0.25239 0.49095 -0.32400
F 	F 	0.02538 0.33849 0.46893 -0.33200
F 	F 	0.89082 0.98452 0.37935 -0.33500
F 	F 	0.98615 0.08061 0.38570 -0.38700
F 	F 	0.89650 0.05950 0.35098 -0.37700
F 	F 	0.88006 0.11078 0.55861 -0.38900
F 	F 	0.80320 0.10593 0.51975 -0.40500
F 	F 	0.90353 0.19752 0.53689 -0.39400
C 	C 	0.22970 0.12773 0.51212 0.05800
C 	C 	0.25708 0.15696 0.48082 0.08800
C 	C 	0.21710 0.14917 0.44669 -0.06800
C 	C 	0.15006 0.11090 0.44451 0.05900
C 	C 	0.12292 0.08280 0.47615 0.08600
C 	C 	0.16312 0.09324 0.51097 -0.07600
C 	C 	0.32743 0.19288 0.48326 0.10100
C 	C 	0.24520 0.17758 0.41148 0.78600
H 	H 	0.11860 0.10192 0.41789 0.15800
C 	C 	0.13507 0.06582 0.54637 0.78600
H 	H 	0.26055 0.13213 0.53743 0.12700
C 	C 	0.37063 0.25698 0.50285 -0.09300
C 	C 	0.43688 0.28992 0.50312 0.08500
C 	C 	0.46009 0.26030 0.48392 0.01200
C 	C 	0.41714 0.19592 0.46518 -0.05600
C 	C 	0.35115 0.16238 0.46590 0.03700
C 	C 	0.34663 0.28925 0.52505 0.79000
H 	H 	0.47069 0.33881 0.51819 0.10900
C 	C 	0.44167 0.16326 0.44420 0.77700
H 	H 	0.31772 0.11272 0.45228 0.13400
F 	F 	0.18249 0.09294 0.57964 -0.37100
F 	F 	0.10463 0.00118 0.53912 -0.39400
F 	F 	0.09112 0.07701 0.55409 -0.37900
F 	F 	0.26476 0.14459 0.39312 -0.38400
F 	F 	0.29740 0.24073 0.42303 -0.36700
F 	F 	0.20041 0.17443 0.38450 -0.34900
F 	F 	0.39206 0.10138 0.42626 -0.38300
F 	F 	0.48369 0.16216 0.47084 -0.41800
F 	F 	0.47355 0.19583 0.41559 -0.42800
F 	F 	0.39484 0.35347 0.53797 -0.37200
F 	F 	0.32495 0.26208 0.55740 -0.38900
F 	F 	0.29682 0.28277 0.50122 -0.36000
C 	C 	0.84532 0.73774 0.00684 0.05100
C 	C 	0.83956 0.70658 0.97005 0.09100
C 	C 	0.86624 0.74157 0.94003 -0.07700
C 	C 	0.89948 0.80767 0.94802 0.05500
C 	C 	0.90730 0.83900 0.98528 0.07500
C 	C 	0.88073 0.80405 0.01526 -0.06800
C 	C 	0.80390 0.63690 0.96310 0.10400
C 	C 	0.85576 0.70823 0.89888 0.78500
H 	H 	0.91905 0.83502 0.92519 0.11600
C 	C 	0.88744 0.83697 0.05561 0.78500
H 	H 	0.82239 0.71002 0.02896 0.13000
C 	C 	0.83335 0.60923 0.97681 -0.10000
C 	C 	0.79527 0.54325 0.97480 0.07800
C 	C 	0.72964 0.50478 0.95810 0.00700
C 	C 	0.70159 0.53185 0.94135 -0.04900
C 	C 	0.73847 0.59813 0.94568 0.03400
C 	C 	0.90374 0.65018 0.99681 0.79100
H 	H 	0.81611 0.52183 0.98746 0.08900
C 	C 	0.63170 0.49057 0.92055 0.77800
H 	H 	0.71613 0.61989 0.93613 0.14000
F 	F 	0.95112 0.88764 0.07009 -0.34100
F 	F 	0.86711 0.79632 0.08221 -0.35900
F 	F 	0.85050 0.85872 0.05298 -0.35400
F 	F 	0.79198 0.67519 0.88110 -0.39000
F 	F 	0.87102 0.66636 0.90015 -0.37800
F 	F 	0.89376 0.75095 0.87590 -0.38000
F 	F 	0.59200 0.46944 0.94795 -0.38600
F 	F 	0.61801 0.43890 0.89524 -0.39700
F 	F 	0.61832 0.52380 0.89863 -0.36900
F 	F 	0.92637 0.61441 0.99981 -0.38900
F 	F 	0.91046 0.67872 0.03416 -0.39600
F 	F 	0.94176 0.69656 0.97582 -0.37600
C 	C 	0.81985 0.15235 0.99221 0.03300
C 	C 	0.79260 0.09001 0.99698 0.10800
C 	C 	0.72720 0.04939 0.00089 -0.13900
C 	C 	0.68922 0.07108 0.99703 0.09800
C 	C 	0.71552 0.13213 0.98966 -0.00300
C 	C 	0.78154 0.17335 0.98698 -0.05900
C 	C 	0.83308 0.06757 0.99734 0.09200
C 	C 	0.69872 0.98421 0.01078 0.82600
H 	H 	0.63898 0.04045 0.99956 0.09700
C 	C 	0.81159 0.24005 0.97937 0.78200
H 	H 	0.87077 0.18390 0.99145 0.12800
C 	C 	0.84173 0.04491 0.96186 -0.09500
C 	C 	0.88156 0.02530 0.96350 0.07400
C 	C 	0.91202 0.02737 0.99959 0.00900
C 	C 	0.90505 0.05185 0.03496 -0.04600
C 	C 	0.86614 0.07256 0.03337 0.03000
C 	C 	0.81166 0.04507 0.92232 0.78800
H 	H 	0.88860 0.00776 0.93667 0.09700
C 	C 	0.93980 0.05672 0.07428 0.71500
H 	H 	0.86113 0.09238 0.06013 0.12900
F 	F 	0.77502 0.23853 0.94717 -0.47700
F 	F 	0.87317 0.26857 0.97181 -0.39400
F 	F 	0.81529 0.27702 0.01192 -0.42400
F 	F 	0.72923 0.99078 0.04759 -0.37600
F 	F 	0.70677 0.94905 0.98352 -0.35600
F 	F 	0.63347 0.95056 0.01093 -0.36700
F 	F 	0.00561 0.09712 0.07596 -0.32600
F 	F 	0.92206 0.99749 0.07889 -0.30700
F 	F 	0.92538 0.08002 0.10534 -0.37000
F 	F 	0.81880 0.01372 0.89164 -0.39200
F 	F 	0.84108 0.10691 0.91726 -0.40600
F 	F 	0.74646 0.01518 0.92020 -0.39000
C 	C 	0.32470 0.09808 0.98063 0.03700
C 	C 	0.31256 0.13354 0.00532 0.09800
C 	C 	0.36465 0.19256 0.02861 -0.09900
C 	C 	0.42798 0.21596 0.02531 0.07500
C 	C 	0.44002 0.18204 0.99914 0.00300
C 	C 	0.38805 0.12246 0.97646 -0.05300
C 	C 	0.24486 0.10797 0.00674 0.08900
C 	C 	0.35303 0.22913 0.05832 0.78800
H 	H 	0.46830 0.26113 0.04283 0.07300
C 	C 	0.39988 0.08578 0.94711 0.77700
H 	H 	0.28443 0.05203 0.96405 0.13200
C 	C 	0.20786 0.11369 0.97739 -0.07700
C 	C 	0.14202 0.08316 0.97770 0.06100
C 	C 	0.11372 0.04989 0.00754 0.06900
C 	C 	0.15231 0.04967 0.03887 -0.06400
C 	C 	0.21655 0.07533 0.03679 0.05000
C 	C 	0.23686 0.14766 0.94399 0.78600
H 	H 	0.11203 0.08306 0.95387 0.12000
C 	C 	0.12453 0.01939 0.07356 0.75700
H 	H 	0.24472 0.06988 0.05857 0.12800
F 	F 	0.34290 0.03024 0.92667 -0.38600
F 	F 	0.43604 0.07004 0.96649 -0.41800
F 	F 	0.43266 0.12250 0.92019 -0.42900
F 	F 	0.33049 0.19668 0.08873 -0.39900
F 	F 	0.30830 0.23633 0.04092 -0.36400
F 	F 	0.40896 0.28911 0.07396 -0.39300
F 	F 	0.09145 0.95448 0.06365 -0.32100
F 	F 	0.08310 0.03234 0.08442 -0.33300
F 	F 	0.17282 0.04248 0.10576 -0.35600
F 	F 	0.19749 0.15892 0.92339 -0.36900
F 	F 	0.24493 0.11074 0.91831 -0.39200
F 	F 	0.29588 0.20564 0.95815 -0.36900
