data_crystal

_cell_length_a 18.61807
_cell_length_b 18.91383
_cell_length_c 35.11247
_cell_angle_alpha 95.42772
_cell_angle_beta  95.42847
_cell_angle_gamma 126.42281

_symmetry_space_group_name_	'P 1'
_symmetry_space_group_name_H-M	'P 1'

loop_
_symmetry_equiv_pos_as_xyz
  x,y,z

loop_
_atom_site_label
_atom_site_type_symbol
_atom_site_fract_x
_atom_site_fract_y
_atom_site_fract_z
_atom_site_charge
C 	C 	0.88545 0.96274 0.96443 0.02600
C 	C 	0.97776 0.01453 0.96224 -0.05400
C 	C 	0.02350 0.97687 0.96322 0.02000
C 	C 	0.97682 0.88668 0.96584 -0.05400
C 	C 	0.88383 0.83337 0.96687 0.02700
C 	C 	0.83798 0.87163 0.96661 -0.06400
H 	H 	0.01443 0.08472 0.96062 0.05000
H 	H 	0.01253 0.85765 0.96654 0.05100
H 	H 	0.76637 0.83108 0.96810 0.05500
C 	C 	0.97176 0.07563 0.49446 0.04400
C 	C 	0.91449 0.98210 0.48942 -0.08100
C 	C 	0.95063 0.93519 0.48600 0.04600
C 	C 	0.04355 0.98140 0.48664 -0.08500
C 	C 	0.10191 0.07490 0.49353 0.04200
C 	C 	0.06609 0.12243 0.49759 -0.08100
H 	H 	0.84213 0.94601 0.48840 0.05600
H 	H 	0.07113 0.94466 0.48367 0.05800
H 	H 	0.11098 0.19494 0.50278 0.05900
Cu	Cu	0.73901 0.31024 0.95882 0.93000
Cu	Cu	0.72378 0.24094 0.04195 0.87700
Cu	Cu	0.58481 0.25218 0.00319 0.89500
Cu	Cu	0.56743 0.29548 0.92487 0.89800
C 	C 	0.68902 0.29037 0.87614 0.29500
O 	O 	0.78629 0.43937 0.95841 -0.34700
C 	C 	0.63134 0.27778 0.08947 0.29200
O 	O 	0.59670 0.23058 0.95053 -0.63700
O 	O 	0.71951 0.32037 0.01292 -0.64400
O 	O 	0.80320 0.25499 0.96525 -0.35900
O 	O 	0.70114 0.15704 0.99942 -0.42400
O 	O 	0.64321 0.32133 0.88381 -0.37900
O 	O 	0.45439 0.17871 0.99040 -0.37700
C 	C 	0.40675 0.18833 0.96408 0.30100
C 	C 	0.74024 0.46803 0.96909 0.28400
O 	O 	0.65472 0.40993 0.97170 -0.38700
O 	O 	0.44155 0.23258 0.93562 -0.38700
O 	O 	0.73439 0.28197 0.90430 -0.35500
C 	C 	0.76411 0.17981 0.97867 0.29300
O 	O 	0.57067 0.25583 0.05848 -0.37800
O 	O 	0.70976 0.29484 0.08607 -0.40700
H 	H 	0.56129 0.16658 0.93854 0.17500
H 	H 	0.75299 0.38210 0.02767 0.17900
Cu	Cu	0.65142 0.25678 0.51394 0.92700
Cu	Cu	0.70138 0.24723 0.42753 0.87000
Cu	Cu	0.67771 0.38002 0.45705 0.89800
Cu	Cu	0.66298 0.42823 0.53938 0.90000
C 	C 	0.68410 0.32860 0.59563 0.29300
O 	O 	0.52126 0.20090 0.51976 -0.36400
C 	C 	0.63442 0.30753 0.37300 0.29000
O 	O 	0.72128 0.39327 0.51099 -0.63800
O 	O 	0.62150 0.25171 0.45752 -0.64000
O 	O 	0.71085 0.19682 0.51036 -0.36400
O 	O 	0.79631 0.28419 0.46914 -0.43400
O 	O 	0.69126 0.40036 0.58944 -0.37600
O 	O 	0.74221 0.50673 0.45901 -0.37600
C 	C 	0.74743 0.56041 0.48789 0.29800
C 	C 	0.48331 0.23940 0.51149 0.29200
O 	O 	0.53261 0.32017 0.50377 -0.38800
O 	O 	0.69211 0.52829 0.51296 -0.38800
O 	O 	0.69552 0.28323 0.56903 -0.35700
C 	C 	0.78194 0.23042 0.49344 0.29300
O 	O 	0.64051 0.36430 0.40073 -0.37200
O 	O 	0.63379 0.24040 0.38088 -0.40800
H 	H 	0.78834 0.43269 0.51870 0.17300
H 	H 	0.55619 0.21046 0.44542 0.18000
C 	C 	0.66524 0.20721 0.77008 -0.03800
C 	C 	0.71455 0.28906 0.75669 0.02100
C 	C 	0.76960 0.37046 0.78381 -0.03900
C 	C 	0.76885 0.37007 0.82388 0.02300
C 	C 	0.70978 0.28884 0.83664 -0.07400
C 	C 	0.66208 0.20710 0.81010 0.01800
C 	C 	0.70201 0.29008 0.71412 0.02100
C 	C 	0.82477 0.45457 0.77034 0.09800
C 	C 	0.60895 0.12323 0.82389 0.07600
C 	C 	0.62773 0.28519 0.69612 -0.03800
C 	C 	0.62277 0.29962 0.65759 0.01800
C 	C 	0.69044 0.31567 0.63646 -0.07300
C 	C 	0.76735 0.32590 0.65531 0.02300
C 	C 	0.76976 0.30664 0.69301 -0.03800
C 	C 	0.55737 0.26707 0.71758 0.09700
C 	C 	0.84869 0.36876 0.63849 0.08700
C 	C 	0.55285 0.30600 0.64104 0.07700
C 	C 	0.84276 0.30550 0.71040 0.09800
C 	C 	0.61651 0.12347 0.74261 0.09800
C 	C 	0.82898 0.45304 0.85202 0.08600
N 	N 	0.49747 0.31182 0.62802 -0.11500
N 	N 	0.50129 0.25260 0.73475 -0.11400
N 	N 	0.91383 0.40383 0.62519 -0.11100
N 	N 	0.90101 0.30457 0.72431 -0.11100
N 	N 	0.86875 0.52163 0.75955 -0.11100
N 	N 	0.87714 0.51925 0.87446 -0.10600
N 	N 	0.56659 0.05632 0.83493 -0.11200
N 	N 	0.57763 0.05667 0.72065 -0.11200
C 	C 	0.52152 0.24912 0.26748 -0.03900
C 	C 	0.59781 0.30626 0.25065 0.02100
C 	C 	0.68261 0.37358 0.27486 -0.03900
C 	C 	0.69302 0.37803 0.31551 0.01900
C 	C 	0.61908 0.31424 0.33187 -0.07800
C 	C 	0.53231 0.25255 0.30810 0.02300
C 	C 	0.59148 0.28898 0.20761 0.02200
C 	C 	0.75958 0.43659 0.25779 0.09700
C 	C 	0.45441 0.19278 0.32545 0.08100
C 	C 	0.58138 0.34010 0.18405 -0.03900
C 	C 	0.59010 0.33366 0.14460 0.02200
C 	C 	0.60737 0.27489 0.12862 -0.08100
C 	C 	0.60783 0.21715 0.15118 0.02200
C 	C 	0.60165 0.22537 0.19081 -0.04000
C 	C 	0.56324 0.40001 0.20058 0.09800
C 	C 	0.61374 0.14870 0.13346 0.06500
C 	C 	0.58276 0.38834 0.12071 0.08000
C 	C 	0.60755 0.16966 0.21456 0.09700
C 	C 	0.43256 0.18583 0.24289 0.09800
C 	C 	0.78019 0.44705 0.34046 0.07100
N 	N 	0.57678 0.43192 0.10164 -0.11400
N 	N 	0.54877 0.44781 0.21381 -0.11200
N 	N 	0.61848 0.09413 0.11930 -0.12300
N 	N 	0.61224 0.12527 0.23355 -0.11500
N 	N 	0.82092 0.48682 0.24411 -0.11200
N 	N 	0.84970 0.50211 0.36038 -0.11300
N 	N 	0.39228 0.14514 0.33933 -0.11200
N 	N 	0.36159 0.13533 0.22322 -0.11300
C 	C 	0.80096 0.65623 0.48714 -0.09000
C 	C 	0.78963 0.68434 0.45301 0.00100
C 	C 	0.83606 0.77544 0.45255 -0.00100
C 	C 	0.89369 0.83906 0.48665 0.00000
C 	C 	0.90424 0.81085 0.52080 -0.06600
C 	C 	0.85965 0.72015 0.52107 0.05600
S 	S 	0.82229 0.80908 0.40910 -0.02900
S 	S 	0.88163 0.68780 0.56340 -0.05900
H 	H 	0.82010 0.67183 0.58657 0.03900
H 	H 	0.75423 0.81778 0.40867 0.03600
H 	H 	0.74413 0.63528 0.42694 0.05000
H 	H 	0.94957 0.85998 0.54689 0.05500
C 	C 	0.93211 0.12395 0.49540 0.00100
C 	C 	0.90281 0.13553 0.52916 -0.06700
C 	C 	0.85436 0.17065 0.52929 0.05400
C 	C 	0.83376 0.19369 0.49490 -0.09500
C 	C 	0.86409 0.18261 0.46124 -0.00500
C 	C 	0.91304 0.14821 0.46136 -0.00300
S 	S 	0.82331 0.18801 0.57301 -0.01500
S 	S 	0.94764 0.13318 0.41829 -0.03400
H 	H 	0.88338 0.04750 0.39818 0.03700
H 	H 	0.90033 0.25662 0.59858 0.04800
H 	H 	0.91707 0.11641 0.55532 0.05400
H 	H 	0.84835 0.19955 0.43466 0.02100
C 	C 	0.38348 0.18771 0.50479 -0.09000
C 	C 	0.34023 0.19718 0.47285 -0.00400
C 	C 	0.24950 0.16441 0.46974 -0.00000
C 	C 	0.20102 0.12226 0.49905 -0.00000
C 	C 	0.24370 0.11149 0.53064 -0.06500
C 	C 	0.33325 0.14100 0.53296 0.05200
S 	S 	0.19686 0.17478 0.42857 -0.03200
S 	S 	0.37939 0.11453 0.56997 -0.02500
H 	H 	0.36217 0.03440 0.55676 0.04300
H 	H 	0.15422 0.09915 0.40063 0.04100
H 	H 	0.37778 0.23125 0.45063 0.04300
H 	H 	0.20566 0.07648 0.55258 0.05300
C 	C 	0.77691 0.56179 0.96893 -0.07700
C 	C 	0.77733 0.58936 0.93319 -0.00400
C 	C 	0.80611 0.67634 0.93207 -0.00300
C 	C 	0.83461 0.73683 0.96706 0.01500
C 	C 	0.83111 0.70821 0.00278 -0.07600
C 	C 	0.80261 0.62120 0.00389 0.04700
S 	S 	0.80684 0.70904 0.88671 -0.02500
S 	S 	0.80140 0.58824 0.04921 -0.05100
H 	H 	0.71740 0.54963 0.05862 0.04800
H 	H 	0.72619 0.69447 0.87459 0.03900
H 	H 	0.75416 0.54273 0.90620 0.04700
H 	H 	0.85356 0.75463 0.02976 0.05600
C 	C 	0.84145 0.00672 0.96783 0.01800
C 	C 	0.85071 0.04997 0.00469 -0.08100
C 	C 	0.83121 0.11101 0.00839 0.05600
C 	C 	0.79837 0.12679 0.97487 -0.08700
C 	C 	0.78711 0.08208 0.93798 0.00100
C 	C 	0.80832 0.02212 0.93430 -0.00500
S 	S 	0.85328 0.17110 0.05498 -0.10100
S 	S 	0.79354 0.96704 0.88762 -0.02600
H 	H 	0.87346 0.01567 0.87408 0.04200
H 	H 	0.94034 0.24899 0.06245 0.04000
H 	H 	0.87778 0.03964 0.03048 0.05700
H 	H 	0.76043 0.09271 0.91218 0.04800
C 	C 	0.12143 0.03294 0.96279 0.00700
C 	C 	0.18318 0.09353 0.99660 -0.06000
C 	C 	0.27663 0.14711 0.99700 0.06200
C 	C 	0.30896 0.13875 0.96341 -0.09000
C 	C 	0.24701 0.07954 0.92933 -0.00100
C 	C 	0.15352 0.02703 0.92878 -0.00300
S 	S 	0.35207 0.22715 0.03908 -0.04300
S 	S 	0.07731 0.95484 0.88531 -0.03300
H 	H 	0.05502 0.87149 0.88508 0.04100
H 	H 	0.37804 0.18995 0.06309 0.05400
H 	H 	0.15833 0.09921 0.02255 0.04600
H 	H 	0.27167 0.07350 0.90338 0.04100
