data_crystal

_cell_length_a 26.09651
_cell_length_b 26.34239
_cell_length_c 35.17996
_cell_angle_alpha 95.51638
_cell_angle_beta  95.51313
_cell_angle_gamma 125.85079

_symmetry_space_group_name_	'P 1'
_symmetry_space_group_name_H-M	'P 1'

loop_
_symmetry_equiv_pos_as_xyz
  x,y,z

loop_
_atom_site_label
_atom_site_type_symbol
_atom_site_fract_x
_atom_site_fract_y
_atom_site_fract_z
_atom_site_charge
C 	C 	0.97263 0.03475 0.98739 0.11800
N 	N 	0.03739 0.06638 0.99213 -0.13200
C 	C 	0.06199 0.03304 0.98912 0.12100
N 	N 	0.02188 0.96834 0.98236 -0.13200
C 	C 	0.95739 0.93690 0.97831 0.12100
N 	N 	0.93279 0.97010 0.98050 -0.13500
C 	C 	0.93817 0.99915 0.46622 0.12500
N 	N 	0.90432 0.93599 0.46740 -0.13900
C 	C 	0.93577 0.90978 0.47301 0.12000
N 	N 	0.00094 0.94687 0.47783 -0.13100
C 	C 	0.03471 0.00988 0.47673 0.12400
N 	N 	0.00334 0.03599 0.47094 -0.13700
Cu	Cu	0.65635 0.26416 0.00526 0.92100
Cu	Cu	0.66902 0.22480 0.91757 0.87400
Cu	Cu	0.65770 0.33981 0.94453 0.91100
Cu	Cu	0.64892 0.38008 0.02607 0.89200
C 	C 	0.67509 0.31866 0.08443 0.29100
O 	O 	0.56442 0.21763 0.01420 -0.36700
C 	C 	0.66135 0.30178 0.86831 0.29100
O 	O 	0.69347 0.35786 0.99848 -0.62700
O 	O 	0.62729 0.25133 0.94860 -0.63000
O 	O 	0.71374 0.23684 0.00522 -0.38000
O 	O 	0.66213 0.16628 0.94776 -0.42600
O 	O 	0.67511 0.36715 0.07741 -0.37900
O 	O 	0.69440 0.42721 0.94167 -0.36900
C 	C 	0.69820 0.46715 0.96948 0.29400
C 	C 	0.53144 0.23989 0.00683 0.28200
O 	O 	0.55822 0.29401 0.99456 -0.38200
O 	O 	0.66194 0.44635 0.99621 -0.38500
O 	O 	0.69155 0.29200 0.05970 -0.35900
C 	C 	0.70094 0.18744 0.98142 0.30800
O 	O 	0.63262 0.31886 0.88872 -0.37700
O 	O 	0.69945 0.29049 0.88611 -0.42500
H 	H 	0.74090 0.38974 0.00472 0.15600
H 	H 	0.57989 0.22063 0.94074 0.16100
Cu	Cu	0.73241 0.33448 0.44821 0.92900
Cu	Cu	0.73414 0.27883 0.52722 0.86800
Cu	Cu	0.63751 0.29818 0.50284 0.89700
Cu	Cu	0.60637 0.32395 0.42716 0.89600
C 	C 	0.67994 0.31896 0.36867 0.29300
O 	O 	0.76272 0.42594 0.45069 -0.35600
C 	C 	0.68220 0.31030 0.58551 0.28500
O 	O 	0.63295 0.27803 0.44802 -0.64000
O 	O 	0.73096 0.34123 0.50434 -0.64200
O 	O 	0.78183 0.29862 0.44696 -0.36700
O 	O 	0.71698 0.22346 0.48116 -0.43900
O 	O 	0.65131 0.34313 0.38182 -0.38300
O 	O 	0.54553 0.25027 0.49972 -0.38000
C 	C 	0.50629 0.25456 0.47601 0.29900
C 	C 	0.73344 0.44662 0.46748 0.28600
O 	O 	0.67449 0.40541 0.47310 -0.39700
O 	O 	0.52078 0.27585 0.44316 -0.38800
O 	O 	0.71813 0.31379 0.39266 -0.35600
C 	C 	0.75844 0.24361 0.45766 0.29600
O 	O 	0.64606 0.31537 0.55944 -0.37300
O 	O 	0.73179 0.31282 0.57710 -0.41600
H 	H 	0.60608 0.23187 0.43687 0.17100
H 	H 	0.75908 0.38487 0.52018 0.17700
C 	C 	0.72512 0.35286 0.69517 -0.04200
C 	C 	0.66421 0.31319 0.70548 0.01900
C 	C 	0.60871 0.27621 0.67636 -0.05800
C 	C 	0.61364 0.27606 0.63702 0.02200
C 	C 	0.67486 0.31447 0.62662 -0.08100
C 	C 	0.73006 0.35373 0.65593 0.00900
C 	C 	0.65845 0.30771 0.74664 0.02200
C 	C 	0.66522 0.35665 0.77188 -0.06100
C 	C 	0.66624 0.35554 0.81168 0.02900
C 	C 	0.65812 0.30353 0.82632 -0.08900
C 	C 	0.64955 0.25374 0.80076 0.01000
C 	C 	0.65006 0.25573 0.76116 -0.04400
C 	C 	0.67904 0.40948 0.83740 0.07800
C 	C 	0.64321 0.20486 0.73572 0.08400
C 	C 	0.78291 0.39173 0.72468 0.08600
C 	C 	0.55590 0.23451 0.60763 0.07000
N 	N 	0.68934 0.45284 0.85785 -0.10500
N 	N 	0.63773 0.16413 0.71531 -0.12200
N 	N 	0.50962 0.20122 0.58412 -0.11000
N 	N 	0.82918 0.42284 0.74835 -0.11800
H 	H 	0.77707 0.38413 0.64814 0.03800
H 	H 	0.56181 0.24612 0.68433 0.05200
H 	H 	0.67180 0.39669 0.76069 0.05400
H 	H 	0.64314 0.21369 0.81183 0.01700
C 	C 	0.70222 0.36374 0.26971 -0.04100
C 	C 	0.68340 0.30658 0.24669 0.02100
C 	C 	0.66648 0.25438 0.26416 -0.05800
C 	C 	0.66634 0.25813 0.30419 0.02300
C 	C 	0.68373 0.31490 0.32706 -0.07800
C 	C 	0.70243 0.36764 0.30967 0.01200
C 	C 	0.67866 0.30030 0.20397 0.02100
C 	C 	0.73421 0.32333 0.18821 -0.05800
C 	C 	0.73324 0.32755 0.14878 0.02700
C 	C 	0.67576 0.30767 0.12466 -0.07600
C 	C 	0.61942 0.28143 0.14000 0.00800
C 	C 	0.62055 0.27770 0.17948 -0.03900
C 	C 	0.79189 0.35435 0.13365 0.08000
C 	C 	0.56231 0.25214 0.19487 0.08800
C 	C 	0.72047 0.41832 0.25238 0.09000
C 	C 	0.64628 0.20295 0.32127 0.07200
N 	N 	0.83887 0.37581 0.12153 -0.11200
N 	N 	0.51568 0.23167 0.20724 -0.11800
N 	N 	0.63016 0.15869 0.33493 -0.11300
N 	N 	0.73506 0.46199 0.23846 -0.11700
H 	H 	0.71663 0.41161 0.32727 0.04300
H 	H 	0.65221 0.21047 0.24646 0.05300
H 	H 	0.77878 0.34021 0.20700 0.05400
H 	H 	0.57495 0.26501 0.12133 0.03700
C 	C 	0.86889 0.73728 0.44173 -0.05900
C 	C 	0.84219 0.71172 0.47387 0.00300
C 	C 	0.84270 0.75056 0.50467 0.00800
C 	C 	0.87109 0.81475 0.50335 -0.03500
C 	C 	0.89928 0.84070 0.47166 -0.02800
C 	C 	0.89707 0.80134 0.44036 0.02900
C 	C 	0.81276 0.64386 0.47463 0.01800
S 	S 	0.80790 0.71937 0.54489 -0.03900
H 	H 	0.87243 0.84483 0.52736 0.04700
S 	S 	0.92811 0.83137 0.39895 -0.03600
H 	H 	0.86751 0.70718 0.41772 0.05100
C 	C 	0.74819 0.59567 0.45671 -0.00800
C 	C 	0.72250 0.53152 0.45535 -0.00000
C 	C 	0.76054 0.51468 0.47180 -0.09200
C 	C 	0.82454 0.56301 0.49094 0.05900
C 	C 	0.85040 0.62724 0.49197 -0.07400
S 	S 	0.69918 0.61506 0.43568 -0.03800
H 	H 	0.67317 0.49459 0.44082 0.03100
S 	S 	0.87181 0.54398 0.51511 -0.05500
H 	H 	0.89983 0.66432 0.50624 0.05600
H 	H 	0.88147 0.82584 0.37321 0.03800
H 	H 	0.70664 0.62092 0.39795 0.03700
H 	H 	0.86134 0.53907 0.55245 0.03400
H 	H 	0.74380 0.69341 0.53702 0.03900
C 	C 	0.87650 0.08135 0.41903 -0.05900
C 	C 	0.85445 0.09648 0.44978 0.00300
C 	C 	0.85503 0.07476 0.48483 0.00700
C 	C 	0.87992 0.04041 0.48927 -0.03400
C 	C 	0.90441 0.02755 0.45910 -0.03300
C 	C 	0.90148 0.04707 0.42350 0.03100
C 	C 	0.83197 0.13614 0.44537 0.01700
S 	S 	0.82593 0.09139 0.52358 -0.04700
H 	H 	0.88175 0.02510 0.51657 0.04500
S 	S 	0.92816 0.02816 0.38423 -0.04600
H 	H 	0.87504 0.09704 0.39183 0.05200
C 	C 	0.87462 0.20297 0.45744 -0.00900
C 	C 	0.85069 0.23870 0.45831 -0.00500
C 	C 	0.78444 0.20831 0.44749 -0.09800
C 	C 	0.74263 0.14213 0.43245 0.05800
C 	C 	0.76659 0.10647 0.43156 -0.07500
S 	S 	0.95763 0.24209 0.47279 -0.03800
H 	H 	0.88320 0.28970 0.46924 0.03400
S 	S 	0.66041 0.10353 0.41438 -0.03600
H 	H 	0.73404 0.05532 0.42119 0.05500
H 	H 	0.87876 0.96922 0.36303 0.04100
H 	H 	0.96995 0.24312 0.51171 0.03200
H 	H 	0.62658 0.08217 0.44385 0.03600
H 	H 	0.87465 0.14932 0.54618 0.03200
C 	C 	0.34526 0.22046 0.48229 -0.07500
C 	C 	0.30839 0.15593 0.48528 0.01800
C 	C 	0.33796 0.12532 0.48831 -0.00700
C 	C 	0.40337 0.15880 0.48681 0.00300
C 	C 	0.43969 0.22263 0.48212 -0.08900
C 	C 	0.41078 0.25410 0.48100 0.05900
C 	C 	0.23830 0.11999 0.48332 0.00400
S 	S 	0.29350 0.04509 0.49381 -0.03200
H 	H 	0.42563 0.13471 0.48827 0.04200
S 	S 	0.45654 0.33602 0.47949 -0.05200
H 	H 	0.32280 0.24437 0.48076 0.05500
C 	C 	0.21279 0.11639 0.51735 0.00700
C 	C 	0.14607 0.08072 0.51483 -0.03300
C 	C 	0.10455 0.04857 0.47865 -0.02800
C 	C 	0.13009 0.05274 0.44459 0.03000
C 	C 	0.19676 0.08852 0.44709 -0.05800
S 	S 	0.26382 0.15596 0.56320 -0.03700
H 	H 	0.12643 0.07766 0.54104 0.04700
S 	S 	0.07910 0.01330 0.39870 -0.03400
H 	H 	0.21638 0.09150 0.42089 0.05200
H 	H 	0.48203 0.37057 0.51668 0.04000
H 	H 	0.28216 0.21703 0.57043 0.03800
H 	H 	0.06809 0.05276 0.38348 0.04100
H 	H 	0.29444 0.04245 0.53255 0.04000
C 	C 	0.84577 0.77188 0.00059 -0.06900
C 	C 	0.83823 0.73411 0.96649 0.01200
C 	C 	0.86751 0.76296 0.93555 0.00600
C 	C 	0.90579 0.82936 0.93955 -0.03400
C 	C 	0.91468 0.86726 0.97405 -0.02100
C 	C 	0.88417 0.83825 0.00466 0.02200
C 	C 	0.80310 0.66492 0.96454 0.01700
S 	S 	0.85737 0.71650 0.89197 -0.03400
H 	H 	0.92901 0.85163 0.91593 0.04700
S 	S 	0.89573 0.88461 0.04876 -0.04300
H 	H 	0.82313 0.74964 0.02436 0.05000
C 	C 	0.83562 0.64012 0.97746 -0.00700
C 	C 	0.80082 0.57503 0.97813 -0.00200
C 	C 	0.73378 0.53440 0.96626 -0.08900
C 	C 	0.70142 0.55880 0.95222 0.06300
C 	C 	0.73623 0.62396 0.95157 -0.07300
S 	S 	0.91975 0.69025 0.99328 -0.02800
H 	H 	0.82580 0.55610 0.98848 0.03200
S 	S 	0.61769 0.50816 0.93480 -0.03700
H 	H 	0.71129 0.64294 0.94127 0.05700
H 	H 	0.85116 0.89662 0.04599 0.03900
H 	H 	0.93404 0.71538 0.03205 0.03000
H 	H 	0.60554 0.48477 0.89592 0.04700
H 	H 	0.90362 0.70677 0.89532 0.04000
C 	C 	0.76023 0.08611 0.98293 -0.08300
C 	C 	0.82705 0.13338 0.99255 0.03200
C 	C 	0.85198 0.19806 0.00105 -0.03200
C 	C 	0.81014 0.21496 0.99861 0.02600
C 	C 	0.74329 0.16785 0.98779 -0.11100
C 	C 	0.71821 0.10290 0.98095 0.06500
C 	C 	0.87055 0.11465 0.99301 0.00700
S 	S 	0.93548 0.25829 0.01492 -0.03900
H 	H 	0.82970 0.26492 0.00425 0.02600
S 	S 	0.63458 0.04225 0.97170 -0.04400
H 	H 	0.74097 0.03624 0.97714 0.05600
C 	C 	0.88519 0.09579 0.02597 0.00200
C 	C 	0.92238 0.07350 0.02469 -0.04400
C 	C 	0.94546 0.07013 0.99086 -0.01900
C 	C 	0.93351 0.09201 0.95860 0.02800
C 	C 	0.89600 0.11396 0.95979 -0.05700
S 	S 	0.85661 0.09914 0.06878 -0.04100
H 	H 	0.93169 0.05686 0.04959 0.04600
S 	S 	0.96393 0.09071 0.91625 -0.04600
H 	H 	0.88574 0.12955 0.93466 0.04900
H 	H 	0.61170 0.02557 0.93241 0.03800
H 	H 	0.79664 0.04331 0.06661 0.03600
H 	H 	0.02381 0.14709 0.91934 0.04600
H 	H 	0.95308 0.26791 0.05440 0.03900
C 	C 	0.37772 0.20191 0.03368 -0.07600
C 	C 	0.33176 0.14464 0.00754 0.01300
C 	C 	0.35180 0.11476 0.98453 -0.00200
C 	C 	0.41763 0.14424 0.98641 0.00800
C 	C 	0.46363 0.20334 0.01102 -0.10300
C 	C 	0.44339 0.23101 0.03585 0.06000
C 	C 	0.26289 0.11738 0.00366 -0.00900
S 	S 	0.29504 0.04075 0.95323 -0.03800
H 	H 	0.43301 0.12236 0.96770 0.03400
S 	S 	0.49986 0.30169 0.07008 -0.06800
H 	H 	0.36231 0.22408 0.05211 0.05500
C 	C 	0.22586 0.07942 0.02966 0.01300
C 	C 	0.16093 0.05462 0.02569 -0.04800
C 	C 	0.13213 0.06664 0.99569 -0.01500
C 	C 	0.16942 0.10526 0.96992 0.02200
C 	C 	0.23462 0.13074 0.97424 -0.04400
S 	S 	0.25992 0.06158 0.06678 -0.04100
H 	H 	0.13238 0.02485 0.04549 0.05100
S 	S 	0.13461 0.11996 0.93126 -0.03400
H 	H 	0.26321 0.16031 0.95438 0.05000
H 	H 	0.51783 0.35326 0.05326 0.02700
H 	H 	0.28719 0.10862 0.09912 0.04000
H 	H 	0.10892 0.07193 0.89969 0.03900
H 	H 	0.27795 0.99266 0.97337 0.04400
