data_crystal

_cell_length_a 26.47496
_cell_length_b 26.19712
_cell_length_c 44.65336
_cell_angle_alpha 95.48903
_cell_angle_beta  95.48819
_cell_angle_gamma 125.83397

_symmetry_space_group_name_	'P 1'
_symmetry_space_group_name_H-M	'P 1'

loop_
_symmetry_equiv_pos_as_xyz
  x,y,z

loop_
_atom_site_label
_atom_site_type_symbol
_atom_site_fract_x
_atom_site_fract_y
_atom_site_fract_z
_atom_site_charge
C 	C 	0.96432 0.01241 0.99418 0.04700
C 	C 	0.05811 0.01621 0.99340 0.04700
C 	C 	0.03021 0.04792 0.99629 -0.09000
C 	C 	0.01448 0.07036 0.47511 -0.09200
H 	H 	0.03851 0.11996 0.47270 0.05100
C 	C 	0.86071 0.09997 0.46413 -0.07400
C 	C 	0.93989 0.10891 0.51412 -0.06200
C 	C 	0.92272 0.06729 0.48656 -0.03300
C 	C 	0.88165 0.06163 0.46158 0.05300
H 	H 	0.97111 0.11280 0.53329 0.04000
H 	H 	0.83009 0.09665 0.44485 0.04500
H 	H 	0.77717 0.11918 0.51141 0.04800
H 	H 	0.69744 0.12980 0.52107 0.06000
C 	C 	0.18697 0.11694 0.43266 0.04100
C 	C 	0.12406 0.08184 0.43728 -0.06100
C 	C 	0.11095 0.07950 0.46701 -0.03300
C 	C 	0.16124 0.11287 0.49256 0.05400
C 	C 	0.20025 0.11827 0.40053 -0.17900
H 	H 	0.29923 0.09913 0.44870 0.05000
H 	H 	0.11964 0.06085 0.52855 0.06500
H 	H 	0.22138 0.09270 0.39626 0.06200
H 	H 	0.23368 0.16857 0.39739 0.06200
H 	H 	0.38402 0.09559 0.43772 0.06200
C 	C 	0.88275 0.08071 0.02403 0.04200
C 	C 	0.91705 0.05544 0.02291 -0.06300
C 	C 	0.93422 0.04519 0.99548 -0.03200
C 	C 	0.91824 0.06176 0.96888 0.05100
C 	C 	0.86287 0.08938 0.05350 -0.18000
H 	H 	0.92929 0.04248 0.04324 0.04200
C 	C 	0.75882 0.07180 0.99104 -0.09700
C 	C 	0.64806 0.04022 0.97959 -0.19800
H 	H 	0.73837 0.02134 0.98863 0.04900
H 	H 	0.91651 0.00038 0.93225 0.06200
H 	H 	0.81056 0.05480 0.05096 0.06400
H 	H 	0.87738 0.13893 0.05931 0.06400
H 	H 	0.88511 0.08121 0.07298 0.06000
H 	H 	0.62757 0.04655 0.95866 0.05300
C 	C 	0.22881 0.08500 0.02191 0.04300
C 	C 	0.16467 0.05820 0.02124 -0.06300
C 	C 	0.12718 0.05298 0.99500 -0.03200
C 	C 	0.26771 0.08794 0.04994 -0.18100
H 	H 	0.14336 0.03973 0.04086 0.04200
C 	C 	0.29054 0.03064 0.96653 -0.16900
H 	H 	0.07291 0.02161 0.93260 0.06200
H 	H 	0.28976 0.06420 0.04348 0.06500
H 	H 	0.23824 0.06330 0.06713 0.06000
H 	H 	0.31178 0.00690 0.95859 0.05600
H 	H 	0.26139 0.02890 0.94629 0.06000
H 	H 	0.25940 0.00292 0.98260 0.06100
H 	H 	0.14245 0.08813 0.92204 0.05900
H 	H 	0.05942 0.09980 0.99965 0.05000
C 	C 	0.88014 0.14362 0.49125 -0.01300
C 	C 	0.91882 0.14715 0.51670 0.04100
C 	C 	0.80390 0.16490 0.50393 -0.09300
C 	C 	0.22403 0.14762 0.48794 -0.07400
C 	C 	0.23720 0.14964 0.45824 -0.01200
C 	C 	0.14804 0.11105 0.52473 -0.18600
C 	C 	0.32972 0.15089 0.45103 -0.09500
C 	C 	0.88406 0.08711 0.97002 -0.07300
C 	C 	0.86538 0.09572 0.99723 -0.01400
C 	C 	0.82492 0.11754 0.99700 0.00900
C 	C 	0.93682 0.05167 0.93921 -0.18300
C 	C 	0.71904 0.09062 0.98717 0.09400
H 	H 	0.91928 0.06541 0.92034 0.05800
H 	H 	0.62652 0.04384 0.99905 0.07700
C 	C 	0.21937 0.10585 0.97043 -0.07300
C 	C 	0.25618 0.10868 0.99621 -0.01400
C 	C 	0.15466 0.07703 0.96936 0.05200
C 	C 	0.11525 0.07209 0.94090 -0.18300
C 	C 	0.34065 0.09933 0.98225 0.01900
H 	H 	0.41834 0.09884 0.97177 0.03000
H 	H 	0.30550 0.13869 0.06089 0.06400
C 	C 	0.85943 0.18533 0.49283 0.00800
C 	C 	0.78275 0.20308 0.50546 0.08900
C 	C 	0.72282 0.18007 0.51754 -0.19300
H 	H 	0.68993 0.18184 0.50106 0.04600
H 	H 	0.73464 0.21082 0.53987 0.03100
C 	C 	0.30385 0.18446 0.45425 0.00900
C 	C 	0.42175 0.14675 0.44814 -0.20000
H 	H 	0.19251 0.13970 0.54217 0.06100
H 	H 	0.27262 0.26559 0.44132 0.06000
C 	C 	0.32352 0.13654 0.99613 0.01000
H 	H 	0.12140 0.13098 0.52833 0.06500
C 	C 	0.40501 0.12678 0.98296 -0.01300
H 	H 	0.09972 0.10267 0.94604 0.06100
H 	H 	0.89566 0.17969 0.55556 0.06200
H 	H 	0.94192 0.23349 0.44932 0.06200
C 	C 	0.39495 0.18387 0.45175 0.09500
H 	H 	0.44465 0.14903 0.47090 0.07100
H 	H 	0.45724 0.16682 0.43290 0.05700
H 	H 	0.87104 0.09925 0.94958 0.04200
H 	H 	0.98928 0.08137 0.94213 0.06000
H 	H 	0.24090 0.12496 0.95095 0.04400
C 	C 	0.93837 0.19217 0.54643 -0.17900
C 	C 	0.89454 0.24486 0.48303 0.02100
H 	H 	0.96885 0.18942 0.56407 0.05800
H 	H 	0.26284 0.17289 0.50747 0.04700
C 	C 	0.34305 0.25172 0.45663 0.02000
C 	C 	0.74613 0.15652 0.98994 -0.11700
C 	C 	0.85197 0.18339 0.00073 0.01700
C 	C 	0.95386 0.26717 0.47054 -0.16900
C 	C 	0.31580 0.28854 0.45918 -0.16900
H 	H 	0.94481 0.22565 0.02715 0.06000
O 	O 	0.65939 0.16131 0.99696 -0.38000
H 	H 	0.58195 0.19168 0.58691 0.02600
H 	H 	0.52601 0.15437 0.84576 0.02700
H 	H 	0.96551 0.24234 0.54263 0.06200
H 	H 	0.98853 0.26927 0.48774 0.06000
O 	O 	0.54191 0.18726 0.00766 -0.36700
H 	H 	0.56366 0.18328 0.63990 0.04500
H 	H 	0.50879 0.16032 0.79134 0.04500
C 	C 	0.81824 0.26300 0.49602 -0.11300
C 	C 	0.43501 0.25157 0.45698 -0.10900
C 	C 	0.45229 0.19017 0.99796 -0.11200
C 	C 	0.37068 0.20007 0.01082 -0.09700
H 	H 	0.30333 0.28970 0.48215 0.06200
C 	C 	0.70637 0.17766 0.98255 0.29600
C 	C 	0.81229 0.20236 0.99710 -0.01200
H 	H 	0.56366 0.19182 0.94920 0.17000
H 	H 	0.60285 0.26344 0.44921 0.15500
C 	C 	0.87352 0.28325 0.48468 -0.01200
H 	H 	0.15629 0.09477 0.38312 0.05900
Cu	Cu	0.65264 0.19637 0.93165 0.86800
C 	C 	0.58578 0.23021 0.60105 0.01600
C 	C 	0.40860 0.28488 0.45829 -0.01300
C 	C 	0.51945 0.21762 0.99835 0.29300
O 	O 	0.60612 0.19922 0.89730 -0.42300
C 	C 	0.57506 0.22526 0.63103 -0.07700
C 	C 	0.55221 0.20067 0.83889 0.01500
O 	O 	0.64227 0.26362 0.54742 -0.43500
C 	C 	0.54211 0.20404 0.80805 -0.07500
H 	H 	0.60417 0.25459 0.30137 0.04600
H 	H 	0.35720 0.22837 0.02142 0.05000
C 	C 	0.92301 0.23336 0.00730 -0.16800
C 	C 	0.43503 0.22653 0.01288 0.09800
Cu	Cu	0.62911 0.21511 0.00155 0.92700
O 	O 	0.60929 0.21525 0.95773 -0.64200
H 	H 	0.59960 0.27590 0.35568 0.01600
O 	O 	0.71896 0.21404 0.96193 -0.44600
C 	C 	0.64600 0.27555 0.31880 -0.07500
H 	H 	0.97706 0.31571 0.46490 0.05800
C 	C 	0.50438 0.28773 0.46364 0.29500
H 	H 	0.94273 0.23036 0.98691 0.05900
C 	C 	0.04452 0.04119 0.47126 0.04700
H 	H 	0.08522 0.05604 0.41776 0.04000
O 	O 	0.53046 0.28231 0.48866 -0.38200
C 	C 	0.64345 0.28776 0.34955 0.01600
O 	O 	0.66205 0.23107 0.04422 -0.36500
O 	O 	0.75954 0.29706 0.47293 -0.37600
C 	C 	0.79672 0.30365 0.49718 0.29800
C 	C 	0.70294 0.29256 0.31047 0.04400
C 	C 	0.71007 0.28550 0.25173 -0.00500
C 	C 	0.70758 0.28821 0.27859 -0.03400
H 	H 	0.66392 0.18043 0.14856 0.04800
C 	C 	0.62066 0.29364 0.55919 0.28900
O 	O 	0.63171 0.30889 0.45970 -0.64000
C 	C 	0.60257 0.28528 0.58958 -0.10200
C 	C 	0.71129 0.28331 0.22013 -0.00500
C 	C 	0.58097 0.27516 0.64979 0.04300
C 	C 	0.61516 0.25254 0.89219 0.28800
C 	C 	0.57776 0.27345 0.68172 -0.03600
C 	C 	0.68125 0.22441 0.14017 -0.07400
C 	C 	0.71078 0.28219 0.19305 -0.03400
H 	H 	0.64578 0.17717 0.09295 0.03600
H 	H 	0.83292 0.25284 0.99927 0.03100
C 	C 	0.57491 0.27109 0.70838 -0.00600
Cu	Cu	0.72535 0.31007 0.53653 0.87300
C 	C 	0.57347 0.26829 0.73971 -0.00600
C 	C 	0.57395 0.26598 0.76655 -0.03500
C 	C 	0.59747 0.25677 0.86058 -0.09400
C 	C 	0.67108 0.22261 0.10864 0.02000
C 	C 	0.69784 0.31690 0.37224 -0.09100
C 	C 	0.57669 0.26341 0.79868 0.04200
C 	C 	0.71077 0.28223 0.16081 0.04400
H 	H 	0.90017 0.32890 0.47713 0.03200
Cu	Cu	0.61994 0.32322 0.50041 0.90900
H 	H 	0.35016 0.33868 0.45600 0.05700
O 	O 	0.55784 0.27431 0.99137 -0.39800
O 	O 	0.53895 0.33377 0.44828 -0.39900
C 	C 	0.69019 0.27872 0.09759 -0.09000
H 	H 	0.43935 0.33681 0.46174 0.03700
C 	C 	0.75670 0.31928 0.33316 -0.07500
O 	O 	0.61008 0.32637 0.54270 -0.38400
C 	C 	0.66926 0.27521 0.06519 0.28900
O 	O 	0.80056 0.33229 0.52390 -0.42900
O 	O 	0.73091 0.33477 0.42668 -0.36300
H 	H 	0.93656 0.28259 0.01292 0.05500
C 	C 	0.95412 0.03615 0.48282 0.04600
C 	C 	0.69708 0.33739 0.40394 0.28700
C 	C 	0.75416 0.33126 0.36400 0.02000
C 	C 	0.48474 0.29318 0.03118 -0.20200
H 	H 	0.90357 0.03090 0.42157 0.06400
C 	C 	0.60582 0.33405 0.60803 0.01700
C 	C 	0.59517 0.32901 0.63806 -0.07700
H 	H 	0.52160 0.29442 0.04614 0.06000
Cu	Cu	0.72962 0.35174 0.46936 0.92300
H 	H 	0.80088 0.33244 0.32689 0.04700
O 	O 	0.64723 0.30480 0.91379 -0.39100
O 	O 	0.71163 0.35929 0.51114 -0.63100
C 	C 	0.61908 0.31972 0.82048 -0.07400
C 	C 	0.62940 0.31654 0.85132 0.01500
H 	H 	0.46374 0.30927 0.04630 0.06300
Cu	Cu	0.66013 0.30960 0.95851 0.89700
O 	O 	0.64449 0.30544 0.05892 -0.39000
Cu	Cu	0.62472 0.36531 0.43987 0.89200
O 	O 	0.68617 0.31379 0.00068 -0.64200
H 	H 	0.79649 0.35383 0.38130 0.03400
O 	O 	0.67587 0.37171 0.40854 -0.39200
H 	H 	0.50714 0.32753 0.01543 0.06500
C 	C 	0.73358 0.33894 0.14975 -0.07400
C 	C 	0.72335 0.33723 0.11826 0.01600
H 	H 	0.73259 0.33865 0.00749 0.16000
H 	H 	0.59959 0.36770 0.65242 0.04600
H 	H 	0.61855 0.37671 0.59947 0.02700
Cu	Cu	0.64789 0.34397 0.02191 0.89200
H 	H 	0.66393 0.36034 0.86775 0.03500
H 	H 	0.64568 0.36585 0.81341 0.04600
C 	C 	0.86151 0.01608 0.43196 -0.18400
H 	H 	0.75706 0.38395 0.16558 0.04600
H 	H 	0.73722 0.40443 0.52190 0.15600
H 	H 	0.73932 0.38102 0.10999 0.01800
H 	H 	0.82720 0.01525 0.41512 0.06000
O 	O 	0.71441 0.40170 0.96195 -0.38900
O 	O 	0.68346 0.42406 0.00496 -0.40200
H 	H 	0.63499 0.99104 0.97518 0.06000
C 	C 	0.92675 0.94539 0.99021 -0.09300
C 	C 	0.95476 0.91383 0.98783 0.04600
C 	C 	0.02034 0.94923 0.98935 -0.09200
H 	H 	0.87586 0.91791 0.98878 0.05100
H 	H 	0.04195 0.92472 0.98740 0.05100
C 	C 	0.92401 0.97265 0.48699 -0.09200
C 	C 	0.95277 0.94230 0.48166 0.04500
C 	C 	0.01296 0.97674 0.47366 -0.09200
H 	H 	0.87826 0.94686 0.49397 0.04900
H 	H 	0.03590 0.95392 0.47013 0.05100
C 	C 	0.71727 0.44281 0.98299 0.30000
O 	O 	0.77852 0.44801 0.47180 -0.36800
C 	C 	0.75240 0.47716 0.47742 0.28800
O 	O 	0.69136 0.44323 0.47764 -0.39800
C 	C 	0.86374 0.65069 0.46804 -0.09800
C 	C 	0.84681 0.67969 0.48859 0.00900
C 	C 	0.80352 0.64338 0.50748 0.01900
C 	C 	0.77753 0.57831 0.50536 -0.01600
C 	C 	0.79123 0.54805 0.48344 -0.11400
C 	C 	0.83512 0.58478 0.46464 0.09800
C 	C 	0.87144 0.74711 0.48862 -0.01400
C 	C 	0.78186 0.67267 0.52847 -0.16900
H 	H 	0.74428 0.55037 0.51987 0.03300
C 	C 	0.85031 0.55401 0.44040 -0.20600
H 	H 	0.89758 0.67908 0.45385 0.05000
C 	C 	0.92703 0.79805 0.50911 0.04200
C 	C 	0.95030 0.86153 0.50791 -0.06200
C 	C 	0.92107 0.87494 0.48537 -0.03200
C 	C 	0.86604 0.82383 0.46446 0.05200
C 	C 	0.84065 0.76030 0.46692 -0.07300
C 	C 	0.96346 0.78510 0.53113 -0.18000
H 	H 	0.99277 0.90077 0.52374 0.04000
C 	C 	0.83431 0.83658 0.43952 -0.18400
H 	H 	0.79778 0.72097 0.45135 0.04400
H 	H 	0.87642 0.53750 0.45140 0.08200
H 	H 	0.88057 0.58820 0.42588 0.06600
H 	H 	0.80604 0.51283 0.42500 0.08100
H 	H 	0.75506 0.68553 0.51467 0.06100
H 	H 	0.82323 0.71642 0.54409 0.05900
H 	H 	0.75046 0.63899 0.54287 0.05600
H 	H 	0.00485 0.82993 0.54621 0.05900
H 	H 	0.98125 0.76226 0.51813 0.06300
H 	H 	0.93248 0.75277 0.54602 0.06100
H 	H 	0.79890 0.79242 0.42223 0.06000
H 	H 	0.86981 0.87264 0.42726 0.06400
H 	H 	0.80934 0.85428 0.44963 0.06000
H 	H 	0.83829 0.96664 0.43634 0.06100
C 	C 	0.84903 0.61589 0.98139 -0.09600
C 	C 	0.81456 0.64060 0.97748 0.00900
C 	C 	0.74767 0.59913 0.97273 0.02000
C 	C 	0.71644 0.53403 0.97380 -0.01200
C 	C 	0.75104 0.50982 0.97913 -0.11100
C 	C 	0.81780 0.55075 0.98250 0.09500
C 	C 	0.84905 0.71057 0.98020 -0.01300
C 	C 	0.70966 0.62442 0.96727 -0.16900
H 	H 	0.66514 0.50224 0.97087 0.03400
C 	C 	0.85589 0.52553 0.98789 -0.20000
H 	H 	0.90034 0.64785 0.98449 0.04900
C 	C 	0.86886 0.75021 0.00910 0.04200
C 	C 	0.90217 0.81655 0.01111 -0.06300
C 	C 	0.91567 0.84359 0.98472 -0.03200
C 	C 	0.89460 0.80382 0.95574 0.05200
C 	C 	0.86211 0.73755 0.95376 -0.07400
C 	C 	0.85562 0.72210 0.03784 -0.17900
H 	H 	0.91843 0.84737 0.03328 0.04100
C 	C 	0.90784 0.83202 0.92703 -0.18400
H 	H 	0.84671 0.70684 0.93164 0.04400
H 	H 	0.84561 0.50280 0.00844 0.06000
H 	H 	0.90772 0.56439 0.99173 0.06200
H 	H 	0.84368 0.48963 0.96763 0.07100
H 	H 	0.72115 0.64833 0.94711 0.06100
H 	H 	0.72085 0.65943 0.98772 0.06000
H 	H 	0.65781 0.58541 0.96271 0.05700
H 	H 	0.87187 0.75910 0.05841 0.05900
H 	H 	0.88073 0.70035 0.04143 0.06300
H 	H 	0.80388 0.68476 0.03588 0.06200
H 	H 	0.95955 0.86160 0.92700 0.06200
H 	H 	0.89152 0.86249 0.92589 0.06200
H 	H 	0.88282 0.79413 0.90606 0.05900
