data_crystal

_cell_length_a 20.39228
_cell_length_b 21.62884
_cell_length_c 31.27156
_cell_angle_alpha 60.83153
_cell_angle_beta  118.85655
_cell_angle_gamma 133.24367

_symmetry_space_group_name_	'P 1'
_symmetry_space_group_name_H-M	'P 1'

loop_
_symmetry_equiv_pos_as_xyz
  x,y,z

loop_
_atom_site_label
_atom_site_type_symbol
_atom_site_fract_x
_atom_site_fract_y
_atom_site_fract_z
_atom_site_charge
O 	O 	0.02457 0.00465 0.98191 -0.38800
C 	C 	0.02330 0.98702 0.90857 -0.02500
Co	Co	0.01764 0.88126 0.62763 1.19100
O 	O 	0.03847 0.79071 0.58686 -0.38800
O 	O 	0.03671 0.90513 0.08221 -0.74000
Br	Br	0.02365 0.59502 0.25657 -0.18700
C 	C 	0.04937 0.98035 0.96386 0.33000
O 	O 	0.02571 0.99869 0.61544 -0.54900
O 	O 	0.04354 0.12975 0.53298 -0.44200
O 	O 	0.00078 0.89701 0.48770 -0.37500
Co	Co	0.00766 0.08030 0.09442 1.18500
O 	O 	0.02696 0.14414 0.69107 -0.39500
C 	C 	0.07167 0.03389 0.38567 -0.06800
Co	Co	0.07314 0.00982 0.05850 1.17100
Co	Co	0.07805 0.86093 0.06025 1.17400
O 	O 	0.08179 0.11466 0.05054 -0.44500
O 	O 	0.05955 0.75991 0.12415 -0.40100
Co	Co	0.05795 0.03874 0.54206 1.17300
O 	O 	0.06044 0.95071 0.57517 -0.73400
Br	Br	0.01497 0.31983 0.01903 -0.18600
C 	C 	0.08139 0.21454 0.14136 0.33000
O 	O 	0.09249 0.82323 0.17841 -0.36700
C 	C 	0.07686 0.21332 0.65845 0.30400
O 	O 	0.08836 0.20525 0.62289 -0.34900
C 	C 	0.07517 0.01776 0.83918 0.07300
C 	C 	0.09429 0.03307 0.88451 -0.07700
C 	C 	0.07502 0.02927 0.34317 0.07300
H 	H 	0.09124 0.21315 0.23105 0.06200
C 	C 	0.09967 0.77534 0.16849 0.32000
O 	O 	0.10466 0.95729 0.99370 -0.37000
O 	O 	0.10640 0.17769 0.13464 -0.37300
Co	Co	0.11159 0.92169 0.54887 1.18000
H 	H 	0.11234 0.72101 0.71569 0.08700
Br	Br	0.09941 0.36925 0.55652 -0.20900
Co	Co	0.99527 0.09603 0.59080 1.17900
O 	O 	0.99180 0.94447 0.74414 -0.36500
C 	C 	0.98350 0.95442 0.81741 -0.06200
O 	O 	0.99366 0.05830 0.22772 -0.41600
H 	H 	0.14813 0.51869 0.18679 0.08300
H 	H 	0.14645 0.55747 0.67501 0.08200
O 	O 	0.99394 0.18157 0.12934 -0.40100
C 	C 	0.98842 0.98795 0.25965 0.31300
O 	O 	0.21267 0.94634 0.09388 -0.35500
O 	O 	0.21265 0.05818 0.08652 -0.37900
C 	C 	0.19190 0.88996 0.65683 0.30900
O 	O 	0.21262 0.94784 0.61398 -0.36600
O 	O 	0.12809 0.86952 0.67329 -0.35400
C 	C 	0.95478 0.95558 0.76274 0.29800
O 	O 	0.18826 0.04887 0.50734 -0.42000
O 	O 	0.19854 0.12351 0.54521 -0.38200
H 	H 	0.16524 0.07852 0.90212 0.07900
C 	C 	0.15307 0.06893 0.81473 -0.20300
H 	H 	0.14111 0.10931 0.77683 0.08800
H 	H 	0.15748 0.02332 0.81116 0.08700
H 	H 	0.22094 0.11361 0.83722 0.09000
H 	H 	0.13531 0.07709 0.40869 0.07400
C 	C 	0.16643 0.08841 0.32929 -0.19700
H 	H 	0.17223 0.05293 0.31646 0.08000
H 	H 	0.22546 0.11172 0.36207 0.08400
H 	H 	0.17246 0.14622 0.29870 0.09300
C 	C 	0.16939 0.37483 0.72278 0.08700
C 	C 	0.15172 0.30606 0.71477 -0.02000
C 	C 	0.12735 0.30057 0.66566 -0.09000
H 	H 	0.15138 0.25370 0.74676 0.06500
Br	Br	0.19036 0.37333 0.78998 -0.18500
C 	C 	0.19128 0.68953 0.71396 0.09200
C 	C 	0.17119 0.74646 0.70463 -0.01200
C 	C 	0.22724 0.83593 0.68112 -0.08500
Br	Br	0.12856 0.57439 0.75719 -0.17200
C 	C 	0.14871 0.28860 0.16564 -0.09500
C 	C 	0.20370 0.37397 0.13740 0.14600
C 	C 	0.22870 0.44569 0.14699 -0.07500
H 	H 	0.27054 0.51111 0.12468 0.08200
Br	Br	0.25121 0.39452 0.08828 -0.18800
C 	C 	0.16487 0.75164 0.20239 -0.08600
C 	C 	0.12837 0.66350 0.22934 0.14200
C 	C 	0.16570 0.62376 0.23428 -0.06800
H 	H 	0.13645 0.55581 0.25459 0.09300
C 	C 	0.73804 0.27914 0.03876 0.07300
C 	C 	0.66015 0.21413 0.06001 -0.08100
C 	C 	0.62723 0.23787 0.07521 0.07700
C 	C 	0.68077 0.32347 0.07839 -0.08000
C 	C 	0.75911 0.38904 0.05856 0.06800
C 	C 	0.78672 0.36776 0.03719 -0.08300
H 	H 	0.62358 0.14562 0.06331 0.08100
H 	H 	0.65685 0.34064 0.09235 0.07900
H 	H 	0.84458 0.41933 0.01933 0.06800
C 	C 	0.71956 0.31764 0.50474 0.06700
C 	C 	0.62468 0.28173 0.49133 -0.07400
C 	C 	0.59654 0.32042 0.49717 0.06700
C 	C 	0.66200 0.40276 0.50712 -0.07000
C 	C 	0.75610 0.43947 0.52151 0.07100
C 	C 	0.78556 0.39566 0.52205 -0.06600
H 	H 	0.57271 0.22090 0.47957 0.06600
H 	H 	0.63930 0.43441 0.50880 0.07800
H 	H 	0.85791 0.42080 0.53650 0.07800
C 	C 	0.27873 0.62866 0.21737 0.06800
C 	C 	0.22170 0.54951 0.20259 -0.07400
C 	C 	0.26173 0.51184 0.20769 0.07100
C 	C 	0.35675 0.55309 0.22713 -0.07800
C 	C 	0.41389 0.63738 0.23328 0.07400
C 	C 	0.37500 0.66997 0.23488 -0.07300
H 	H 	0.38760 0.52525 0.23000 0.07900
H 	H 	0.42005 0.73104 0.24566 0.08700
C 	C 	0.28633 0.66300 0.70325 0.07100
C 	C 	0.21860 0.58194 0.68948 -0.07100
C 	C 	0.24599 0.53421 0.69334 0.06900
C 	C 	0.33971 0.57004 0.70691 -0.07700
C 	C 	0.40640 0.65514 0.71264 0.07600
C 	C 	0.38060 0.69709 0.71692 -0.07600
H 	H 	0.36068 0.53513 0.70739 0.07700
H 	H 	0.43383 0.76018 0.72615 0.08200
Co	Co	0.93429 0.91502 0.17376 1.19200
Co	Co	0.98650 0.83974 0.13175 1.18300
C 	C 	0.25177 0.03059 0.08355 0.26900
Co	Co	0.89899 0.05146 0.15952 1.16700
C 	C 	0.88355 0.71580 0.06318 0.30700
O 	O 	0.81354 0.04246 0.08851 -0.38100
O 	O 	0.94666 0.01030 0.13999 -0.77000
C 	C 	0.84932 0.10190 0.04920 0.29600
O 	O 	0.93879 0.81550 0.18666 -0.44400
C 	C 	0.75477 0.85654 0.17882 0.33200
O 	O 	0.97602 0.95160 0.10477 -0.56200
O 	O 	0.91600 0.11397 0.04054 -0.35300
O 	O 	0.80352 0.92649 0.19452 -0.39000
O 	O 	0.79271 0.84304 0.16308 -0.37100
O 	O 	0.99384 0.94107 0.24646 -0.36700
O 	O 	0.93793 0.78101 0.03170 -0.39200
O 	O 	0.88235 0.72956 0.10036 -0.36000
Co	Co	0.93648 0.92815 0.66953 1.19100
C 	C 	0.23604 0.11703 0.52451 0.33000
Co	Co	0.89118 0.04899 0.66624 1.16300
C 	C 	0.95087 0.74491 0.58497 0.30700
O 	O 	0.89190 0.14502 0.60239 -0.40300
O 	O 	0.94834 0.02373 0.64165 -0.77500
C 	C 	0.85827 0.13371 0.55740 0.32500
O 	O 	0.95437 0.83919 0.68017 -0.44900
C 	C 	0.74289 0.86908 0.65483 0.31300
C 	C 	0.99410 0.96093 0.45505 0.29800
O 	O 	0.87989 0.09919 0.54564 -0.37600
O 	O 	0.99140 0.00850 0.46963 -0.38700
O 	O 	0.76364 0.94851 0.63762 -0.34800
O 	O 	0.79202 0.85259 0.65139 -0.36900
O 	O 	0.88435 0.95821 0.73443 -0.39700
O 	O 	0.92189 0.77496 0.59482 -0.37600
C 	C 	0.91301 0.90773 0.84203 -0.03100
C 	C 	0.93137 0.92731 0.88536 0.07400
C 	C 	0.85206 0.88757 0.90496 -0.20900
H 	H 	0.84229 0.86002 0.82542 0.06400
H 	H 	0.78416 0.84227 0.88280 0.11100
H 	H 	0.85183 0.94030 0.90265 0.10700
H 	H 	0.85919 0.85026 0.94476 0.11200
C 	C 	0.90938 0.91548 0.32843 -0.03600
C 	C 	0.99285 0.97116 0.31331 -0.05900
C 	C 	0.98844 0.97823 0.40098 -0.04600
C 	C 	0.90617 0.91971 0.37124 0.08900
C 	C 	0.81518 0.85931 0.38577 -0.20600
H 	H 	0.84581 0.87144 0.30561 0.05800
H 	H 	0.75589 0.83692 0.35293 0.09900
H 	H 	0.80951 0.89334 0.39991 0.10100
H 	H 	0.80968 0.80107 0.41556 0.09900
C 	C 	0.15297 0.44208 0.63332 -0.07700
C 	C 	0.17835 0.44712 0.68266 -0.00600
C 	C 	0.12785 0.36960 0.62455 0.14000
H 	H 	0.15939 0.49741 0.60201 0.08200
C 	C 	0.49170 0.72325 0.64914 -0.07400
C 	C 	0.49396 0.70699 0.69898 -0.00900
C 	C 	0.57736 0.73082 0.73591 0.09000
C 	C 	0.65846 0.77525 0.72206 -0.01900
C 	C 	0.65699 0.79666 0.67156 -0.09200
C 	C 	0.57222 0.76529 0.63582 0.15300
Br	Br	0.56517 0.77760 0.56896 -0.17800
H 	H 	0.42671 0.70150 0.62101 0.08200
H 	H 	0.72340 0.79673 0.75011 0.06300
Br	Br	0.58209 0.70402 0.80515 -0.20100
C 	C 	0.31685 0.80976 0.67119 -0.07600
C 	C 	0.26176 0.72030 0.69459 -0.00500
C 	C 	0.30642 0.86793 0.67003 0.13600
Br	Br	0.40539 0.99047 0.65806 -0.17800
H 	H 	0.37154 0.83509 0.65634 0.07900
C 	C 	0.13185 0.27805 0.20826 -0.02200
C 	C 	0.20755 0.43443 0.18816 -0.00700
C 	C 	0.15918 0.34972 0.21894 0.08900
Br	Br	0.13090 0.33048 0.27648 -0.19600
C 	C 	0.65648 0.73594 0.23880 -0.01200
C 	C 	0.66284 0.78566 0.18898 -0.09900
C 	C 	0.58713 0.78699 0.15441 0.14500
C 	C 	0.50940 0.74502 0.17060 -0.07400
C 	C 	0.50454 0.69841 0.22092 -0.00500
C 	C 	0.57863 0.69382 0.25511 0.08600
Br	Br	0.57577 0.63252 0.32452 -0.21100
H 	H 	0.71488 0.73506 0.26574 0.06400
H 	H 	0.45084 0.74548 0.14354 0.09100
Br	Br	0.59028 0.84873 0.08505 -0.19700
C 	C 	0.24863 0.80208 0.18915 -0.02100
C 	C 	0.23903 0.67122 0.21193 -0.00400
C 	C 	0.27930 0.76130 0.18814 0.08900
Br	Br	0.36301 0.82586 0.14615 -0.21000
H 	H 	0.28151 0.87124 0.17182 0.07800
C 	C 	0.69406 0.17462 0.52689 -0.07700
C 	C 	0.74719 0.26613 0.50739 -0.00400
C 	C 	0.82102 0.30573 0.48736 0.08900
C 	C 	0.84881 0.25604 0.49447 -0.01200
C 	C 	0.80203 0.16671 0.51999 -0.08900
C 	C 	0.71654 0.12496 0.52841 0.13700
Br	Br	0.63300 0.00003 0.54601 -0.23100
H 	H 	0.63494 0.14175 0.54067 0.07600
H 	H 	0.90974 0.28811 0.48271 0.08100
Br	Br	0.87882 0.42364 0.44646 -0.19200
C 	C 	0.84153 0.51518 0.58977 -0.07500
C 	C 	0.82178 0.52143 0.53866 -0.00600
C 	C 	0.83708 0.59992 0.50301 0.08800
C 	C 	0.86528 0.66798 0.51795 -0.02300
C 	C 	0.88582 0.66229 0.56899 -0.09000
C 	C 	0.87241 0.58455 0.60490 0.14000
Br	Br	0.89628 0.57206 0.67492 -0.20800
H 	H 	0.82797 0.45453 0.61749 0.08700
H 	H 	0.87702 0.72784 0.49005 0.06200
Br	Br	0.81647 0.61406 0.43311 -0.20500
C 	C 	0.43534 0.27598 0.46402 -0.07800
C 	C 	0.50313 0.26786 0.50428 -0.01100
C 	C 	0.48772 0.22450 0.55330 0.09000
C 	C 	0.40257 0.18429 0.56089 -0.01600
C 	C 	0.33217 0.18645 0.52002 -0.10000
C 	C 	0.35112 0.23759 0.47202 0.14100
Br	Br	0.26509 0.26007 0.41796 -0.21300
H 	H 	0.44928 0.31458 0.42688 0.08200
H 	H 	0.38960 0.14783 0.59830 0.07300
Br	Br	0.58382 0.22277 0.61055 -0.21100
C 	C 	0.73295 0.13407 0.00148 -0.07300
C 	C 	0.82640 0.16566 0.02017 -0.06700
C 	C 	0.89246 0.25161 0.02653 0.12000
C 	C 	0.86477 0.29180 0.03119 -0.05800
C 	C 	0.76999 0.25346 0.02005 -0.04000
C 	C 	0.70558 0.18108 0.99813 0.13900
Br	Br	0.58519 0.15292 0.95834 -0.21200
H 	H 	0.68136 0.07179 0.99135 0.09900
H 	H 	0.91669 0.35213 0.04339 0.07100
C 	C 	0.87298 0.57894 0.10556 -0.02100
C 	C 	0.84033 0.62595 0.06402 -0.09100
C 	C 	0.78728 0.59768 0.01903 0.13200
C 	C 	0.77251 0.52696 0.01503 -0.09700
C 	C 	0.80600 0.48057 0.05645 -0.00700
C 	C 	0.85970 0.50933 0.10125 0.08900
Br	Br	0.91393 0.45282 0.15736 -0.21300
H 	H 	0.91235 0.59889 0.14065 0.08000
H 	H 	0.72895 0.50393 0.98087 0.09800
Br	Br	0.72812 0.65027 0.96408 -0.19500
C 	C 	0.46789 0.19607 0.03570 -0.06800
C 	C 	0.52965 0.17979 0.07687 -0.01400
C 	C 	0.50180 0.11986 0.12198 0.09400
C 	C 	0.41255 0.07646 0.12538 -0.02300
C 	C 	0.35029 0.09170 0.08385 -0.08100
C 	C 	0.37946 0.15407 0.03946 0.11900
Br	Br	0.30006 0.18396 0.98388 -0.20700
H 	H 	0.49010 0.24409 0.00135 0.07500
H 	H 	0.39089 0.02955 0.16000 0.06200
Br	Br	0.58465 0.09649 0.17923 -0.21900
