data_crystal

_cell_length_a 26.10947
_cell_length_b 26.32719
_cell_length_c 26.46918
_cell_angle_alpha 95.49917
_cell_angle_beta  95.49914
_cell_angle_gamma 125.78971

_symmetry_space_group_name_	'P 1'
_symmetry_space_group_name_H-M	'P 1'

loop_
_symmetry_equiv_pos_as_xyz
  x,y,z

loop_
_atom_site_label
_atom_site_type_symbol
_atom_site_fract_x
_atom_site_fract_y
_atom_site_fract_z
_atom_site_charge
C 	C 	0.95944 0.01690 0.98316 0.10600
N 	N 	0.02413 0.04918 0.98761 -0.13100
C 	C 	0.04930 0.01660 0.98126 0.11300
C 	C 	0.95352 0.02121 0.46183 0.10400
N 	N 	0.01617 0.05211 0.45761 -0.13300
C 	C 	0.04407 0.02203 0.46035 0.11600
C 	C 	0.92523 0.05618 0.46219 0.00200
C 	C 	0.83598 0.06044 0.43582 0.03100
C 	C 	0.86075 0.02539 0.43939 -0.05800
C 	C 	0.77023 0.02890 0.41736 -0.05200
C 	C 	0.74470 0.06300 0.41666 -0.03200
H 	H 	0.69339 0.03749 0.40425 0.04000
C 	C 	0.11309 0.05698 0.45908 -0.00500
C 	C 	0.15015 0.04429 0.48925 -0.02900
C 	C 	0.21560 0.07740 0.48857 -0.03300
H 	H 	0.24382 0.07052 0.51560 0.04100
C 	C 	0.93176 0.05187 0.99098 0.00100
C 	C 	0.95687 0.10857 0.97221 -0.03000
C 	C 	0.11932 0.05088 0.98758 0.00300
C 	C 	0.14859 0.02865 0.01533 -0.03900
H 	H 	0.23200 0.03204 0.03302 0.04000
H 	H 	0.32231 0.08638 0.48035 0.04600
C 	C 	0.21305 0.05476 0.01577 -0.03700
H 	H 	0.12859 0.00994 0.51451 0.04500
C 	C 	0.87725 0.02599 0.01391 -0.05700
C 	C 	0.14238 0.10440 0.42902 -0.05100
C 	C 	0.87317 0.11398 0.99945 0.01000
C 	C 	0.15536 0.10048 0.96075 -0.05200
H 	H 	0.11406 0.11518 0.40647 0.05200
C 	C 	0.84663 0.05545 0.01673 0.01700
C 	C 	0.25059 0.10618 0.99031 -0.00200
H 	H 	0.33353 0.10242 0.05902 0.04700
H 	H 	0.13219 0.11642 0.93808 0.05100
C 	C 	0.78794 0.02516 0.03403 -0.04500
C 	C 	0.75372 0.05055 0.03200 -0.04200
H 	H 	0.70714 0.02495 0.04340 0.04200
C 	C 	0.77940 0.10876 0.01571 0.01500
H 	H 	0.69491 0.10504 0.01919 0.04800
H 	H 	0.99776 0.12785 0.95305 0.04200
H 	H 	0.76755 0.98045 0.04732 0.04200
H 	H 	0.85762 0.98196 0.02827 0.05000
C 	C 	0.92742 0.13892 0.97550 -0.03900
H 	H 	0.94454 0.17916 0.95649 0.03900
H 	H 	0.12058 0.98925 0.03509 0.04800
C 	C 	0.24474 0.12235 0.45591 -0.00700
N 	N 	0.00978 0.95194 0.97022 -0.13100
C 	C 	0.94528 0.91956 0.96551 0.11100
N 	N 	0.92017 0.95211 0.97191 -0.13500
N 	N 	0.00902 0.96056 0.46679 -0.13100
C 	C 	0.94641 0.92915 0.47104 0.10800
N 	N 	0.91842 0.95942 0.46844 -0.13500
Cu	Cu	0.63810 0.23773 0.00654 0.92800
Cu	Cu	0.67253 0.21920 0.89313 0.87400
Cu	Cu	0.66672 0.32693 0.92941 0.90200
Cu	Cu	0.63681 0.35588 0.03076 0.89400
C 	C 	0.66438 0.29864 0.11184 0.30200
O 	O 	0.54501 0.19928 0.01020 -0.35500
C 	C 	0.63766 0.26881 0.81867 0.30000
O 	O 	0.68664 0.33461 0.00249 -0.64300
O 	O 	0.62199 0.23420 0.93123 -0.63700
O 	O 	0.67943 0.19340 0.00688 -0.36900
O 	O 	0.74021 0.24648 0.94833 -0.43700
O 	O 	0.63405 0.32224 0.09594 -0.37800
O 	O 	0.71321 0.41793 0.93373 -0.37000
C 	C 	0.70653 0.45482 0.96550 0.28700
C 	C 	0.51649 0.22232 0.98969 0.28200
O 	O 	0.55128 0.27862 0.97686 -0.38300
O 	O 	0.66584 0.43154 0.99791 -0.38700
O 	O 	0.66645 0.25824 0.07995 -0.34800
C 	C 	0.72959 0.21309 0.98496 0.28700
O 	O 	0.66443 0.32119 0.85378 -0.36600
O 	O 	0.62519 0.21639 0.83228 -0.41400
H 	H 	0.73316 0.36389 0.01747 0.16300
H 	H 	0.57599 0.20725 0.91474 0.17700
Cu	Cu	0.74791 0.35698 0.43886 0.92800
Cu	Cu	0.74344 0.29937 0.54386 0.88000
Cu	Cu	0.64221 0.31338 0.50319 0.89900
Cu	Cu	0.62496 0.34984 0.40280 0.89500
C 	C 	0.70065 0.33971 0.33134 0.30300
O 	O 	0.78165 0.44971 0.44358 -0.34700
C 	C 	0.67526 0.31317 0.61310 0.30200
O 	O 	0.64693 0.30078 0.43162 -0.63800
O 	O 	0.73749 0.35947 0.51196 -0.63700
O 	O 	0.79749 0.32101 0.44073 -0.36400
O 	O 	0.72924 0.24464 0.48356 -0.42900
O 	O 	0.67328 0.36668 0.34499 -0.37700
O 	O 	0.54937 0.26298 0.49040 -0.37600
C 	C 	0.51337 0.26520 0.45331 0.28800
C 	C 	0.75021 0.47018 0.46159 0.27900
O 	O 	0.69013 0.42906 0.46592 -0.39000
O 	O 	0.53892 0.30739 0.42256 -0.39200
O 	O 	0.74161 0.34051 0.36545 -0.34600
C 	C 	0.77280 0.26546 0.45434 0.28400
O 	O 	0.63776 0.31546 0.57752 -0.37000
O 	O 	0.73217 0.33015 0.60644 -0.40200
H 	H 	0.62113 0.25557 0.41420 0.16600
H 	H 	0.76275 0.40264 0.53357 0.17500
C 	C 	0.64565 0.23580 0.73022 -0.04200
C 	C 	0.63551 0.27305 0.76313 -0.08500
C 	C 	0.62876 0.31732 0.74340 0.12300
C 	C 	0.63984 0.32894 0.69349 -0.03300
C 	C 	0.65492 0.29494 0.66234 -0.09000
C 	C 	0.65449 0.24598 0.67998 0.12400
Br	Br	0.66434 0.19127 0.63551 -0.30000
H 	H 	0.64842 0.19993 0.74411 0.05800
H 	H 	0.63730 0.36477 0.67919 0.06700
Br	Br	0.59879 0.35783 0.78159 -0.23600
C 	C 	0.73493 0.36160 0.19696 -0.04100
C 	C 	0.68048 0.30393 0.16770 -0.08300
C 	C 	0.63723 0.25510 0.19293 0.12700
C 	C 	0.64698 0.26567 0.24696 -0.04200
C 	C 	0.69918 0.32480 0.27613 -0.08300
C 	C 	0.74442 0.37228 0.25100 0.12700
Br	Br	0.81775 0.45313 0.28976 -0.23200
H 	H 	0.76860 0.39910 0.17770 0.05300
H 	H 	0.61233 0.22884 0.26620 0.05300
Br	Br	0.56227 0.17522 0.15426 -0.24000
C 	C 	0.90989 0.86295 0.47967 -0.00400
C 	C 	0.93953 0.84611 0.51399 -0.03000
C 	C 	0.91309 0.78219 0.51384 -0.03300
C 	C 	0.85398 0.73325 0.48101 -0.00700
C 	C 	0.82353 0.75047 0.44680 0.02700
C 	C 	0.85083 0.81515 0.44745 -0.05200
C 	C 	0.76866 0.70326 0.40996 -0.04800
C 	C 	0.74545 0.63967 0.40474 -0.03300
C 	C 	0.77452 0.62141 0.43807 0.00600
C 	C 	0.82677 0.66739 0.47844 0.01400
C 	C 	0.84934 0.64619 0.51564 -0.05400
C 	C 	0.82618 0.58232 0.50873 0.00800
C 	C 	0.77752 0.53793 0.46681 -0.07000
C 	C 	0.75101 0.55724 0.43207 -0.01000
H 	H 	0.98539 0.88286 0.53885 0.04200
H 	H 	0.94114 0.77160 0.53661 0.03900
H 	H 	0.82822 0.82819 0.42052 0.04900
H 	H 	0.74514 0.71618 0.38395 0.04300
H 	H 	0.70438 0.60431 0.37472 0.03900
H 	H 	0.88153 0.67755 0.55128 0.04400
H 	H 	0.84448 0.56693 0.53715 0.02800
H 	H 	0.71176 0.52222 0.40060 0.03400
C 	C 	0.96406 0.12160 0.48331 -0.04400
C 	C 	0.94023 0.15693 0.47917 -0.02800
C 	C 	0.87713 0.12757 0.45255 -0.01200
C 	C 	0.78513 0.12968 0.43111 0.00400
C 	C 	0.85231 0.16282 0.44569 0.01400
C 	C 	0.89291 0.22995 0.45126 -0.05600
C 	C 	0.86668 0.26350 0.45083 0.00400
C 	C 	0.79989 0.23067 0.44318 -0.07700
C 	C 	0.75919 0.16377 0.43112 -0.01200
H 	H 	0.01287 0.14514 0.50341 0.05400
H 	H 	0.96990 0.20609 0.49890 0.03500
H 	H 	0.83009 0.97452 0.42424 0.05300
H 	H 	0.73841 0.97755 0.40495 0.04600
H 	H 	0.94428 0.25614 0.45418 0.04400
H 	H 	0.89845 0.31514 0.45789 0.03500
H 	H 	0.70747 0.13836 0.42288 0.04200
C 	C 	0.20831 0.13843 0.42845 0.02700
C 	C 	0.23858 0.18985 0.40237 -0.04800
C 	C 	0.30471 0.22623 0.40409 -0.03400
C 	C 	0.34108 0.20932 0.42902 0.00600
C 	C 	0.31067 0.15490 0.45254 0.01300
C 	C 	0.34598 0.13274 0.46972 -0.05300
C 	C 	0.41190 0.16881 0.46992 0.00700
C 	C 	0.44322 0.22602 0.45109 -0.07100
C 	C 	0.40740 0.24546 0.42967 -0.01500
H 	H 	0.21105 0.20278 0.38182 0.04400
H 	H 	0.32757 0.26710 0.38514 0.03900
H 	H 	0.43842 0.15151 0.48381 0.04000
H 	H 	0.43106 0.28869 0.41368 0.04500
C 	C 	0.90310 0.84925 0.95604 -0.00800
C 	C 	0.91934 0.81526 0.92639 -0.02800
C 	C 	0.88431 0.74936 0.92260 -0.03500
C 	C 	0.83389 0.71675 0.95034 -0.00400
C 	C 	0.81279 0.74984 0.97494 0.02100
C 	C 	0.84836 0.81611 0.97867 -0.04100
C 	C 	0.75626 0.71636 0.99520 -0.03900
C 	C 	0.72131 0.65071 0.99238 -0.03000
C 	C 	0.74449 0.61806 0.97239 0.00600
C 	C 	0.80241 0.65128 0.95285 0.01300
C 	C 	0.82986 0.61978 0.94030 -0.05200
C 	C 	0.79759 0.55541 0.94306 0.00700
C 	C 	0.73867 0.52183 0.95995 -0.06700
C 	C 	0.71198 0.55317 0.97411 -0.01300
H 	H 	0.95904 0.83993 0.90602 0.04400
H 	H 	0.89473 0.72384 0.89637 0.04000
H 	H 	0.83429 0.84196 0.00007 0.04200
H 	H 	0.73895 0.74117 0.01279 0.03600
H 	H 	0.67713 0.62550 0.00750 0.03400
H 	H 	0.87765 0.64553 0.93150 0.04400
H 	H 	0.81965 0.53224 0.93374 0.03900
H 	H 	0.66658 0.52743 0.98750 0.04700
C 	C 	0.84140 0.14318 0.00279 -0.00900
C 	C 	0.87042 0.20613 0.99481 -0.04100
C 	C 	0.83451 0.22978 0.99106 -0.00300
C 	C 	0.77026 0.19236 0.99755 -0.06800
C 	C 	0.74375 0.13305 0.01214 -0.02900
H 	H 	0.92107 0.23777 0.99366 0.04000
H 	H 	0.85672 0.27733 0.98304 0.03600
C 	C 	0.22022 0.12687 0.96055 0.02700
C 	C 	0.25384 0.17104 0.92876 -0.04600
C 	C 	0.31665 0.19390 0.92530 -0.03600
C 	C 	0.34855 0.17629 0.95608 0.00800
C 	C 	0.31691 0.13484 0.99092 0.01500
C 	C 	0.35302 0.12571 0.02709 -0.05500
C 	C 	0.41691 0.15153 0.02473 -0.00400
C 	C 	0.44711 0.18959 0.98822 -0.06300
C 	C 	0.41273 0.20174 0.95387 -0.02100
H 	H 	0.23062 0.18645 0.90550 0.04400
H 	H 	0.34107 0.22652 0.89928 0.04300
H 	H 	0.44385 0.14429 0.05299 0.05700
H 	H 	0.43634 0.23216 0.92624 0.04600
