data_crystal

_cell_length_a 26.13341
_cell_length_b 26.45094
_cell_length_c 35.06320
_cell_angle_alpha 95.53709
_cell_angle_beta  95.53577
_cell_angle_gamma 125.83758

_symmetry_space_group_name_	'P 1'
_symmetry_space_group_name_H-M	'P 1'

loop_
_symmetry_equiv_pos_as_xyz
  x,y,z

loop_
_atom_site_label
_atom_site_type_symbol
_atom_site_fract_x
_atom_site_fract_y
_atom_site_fract_z
_atom_site_charge
C 	C 	0.95933 0.02232 0.99239 0.13000
C 	C 	0.02636 0.05648 0.99720 -0.09100
C 	C 	0.05367 0.02389 0.99579 0.14400
C 	C 	0.01389 0.95737 0.98917 -0.10500
C 	C 	0.94709 0.92333 0.98438 0.13500
C 	C 	0.91988 0.95580 0.98598 -0.09600
H 	H 	0.05700 0.10795 0.00225 0.09800
H 	H 	0.03493 0.93217 0.98794 0.10000
H 	H 	0.86814 0.92941 0.98250 0.10600
C 	C 	0.94932 0.01396 0.46133 0.13300
C 	C 	0.91529 0.94956 0.46409 -0.08700
C 	C 	0.94851 0.92359 0.47101 0.13500
C 	C 	0.01562 0.96203 0.47507 -0.10800
C 	C 	0.04953 0.02608 0.47203 0.13800
C 	C 	0.01644 0.05203 0.46531 -0.10300
H 	H 	0.86337 0.91990 0.46086 0.11600
H 	H 	0.04129 0.94193 0.48008 0.09800
H 	H 	0.04283 0.10174 0.46320 0.09700
Cu	Cu	0.64448 0.25232 0.00316 0.92600
Cu	Cu	0.65600 0.21216 0.91515 0.88600
Cu	Cu	0.64467 0.32687 0.94187 0.91800
Cu	Cu	0.63691 0.36760 0.02378 0.89900
C 	C 	0.66396 0.30735 0.08260 0.29600
O 	O 	0.55282 0.20617 0.01250 -0.34300
C 	C 	0.64473 0.28572 0.86501 0.30000
O 	O 	0.68125 0.34547 0.99592 -0.62500
O 	O 	0.61469 0.23888 0.94634 -0.62700
O 	O 	0.70178 0.22502 0.00298 -0.37200
O 	O 	0.64963 0.15416 0.94551 -0.37700
O 	O 	0.66389 0.35552 0.07537 -0.37300
O 	O 	0.68078 0.41385 0.93871 -0.34300
C 	C 	0.68411 0.45364 0.96646 0.34100
C 	C 	0.51963 0.22796 0.00467 0.32700
O 	O 	0.54635 0.28180 0.99235 -0.37500
O 	O 	0.64847 0.43274 0.99355 -0.37400
O 	O 	0.68027 0.28065 0.05778 -0.35100
C 	C 	0.68859 0.17545 0.97925 0.34900
O 	O 	0.61825 0.30515 0.88586 -0.36200
O 	O 	0.68426 0.27621 0.88282 -0.41100
H 	H 	0.72861 0.37735 0.00198 0.17700
H 	H 	0.56735 0.20817 0.93863 0.19000
Cu	Cu	0.74888 0.35195 0.45069 0.93500
Cu	Cu	0.74455 0.29198 0.52884 0.87900
Cu	Cu	0.65177 0.31566 0.50388 0.90000
Cu	Cu	0.62471 0.34435 0.42825 0.90400
C 	C 	0.69734 0.33620 0.37065 0.29600
O 	O 	0.78141 0.44393 0.45415 -0.31800
C 	C 	0.69027 0.32167 0.58641 0.29100
O 	O 	0.64896 0.29678 0.44905 -0.64100
O 	O 	0.74504 0.35679 0.50675 -0.63700
O 	O 	0.79704 0.31494 0.44963 -0.32600
O 	O 	0.72903 0.23875 0.48209 -0.43400
O 	O 	0.67058 0.36253 0.38332 -0.37100
O 	O 	0.55989 0.26921 0.49974 -0.38900
C 	C 	0.52161 0.27374 0.47525 0.35000
C 	C 	0.75178 0.46482 0.47008 0.32900
O 	O 	0.69260 0.42392 0.47522 -0.38700
O 	O 	0.53863 0.29807 0.44345 -0.35500
O 	O 	0.73697 0.33326 0.39496 -0.34800
C 	C 	0.77239 0.25960 0.45984 0.33600
O 	O 	0.65893 0.33225 0.56048 -0.36800
O 	O 	0.73972 0.32321 0.57901 -0.40000
H 	H 	0.62163 0.25095 0.43740 0.17200
H 	H 	0.77342 0.39975 0.52329 0.20000
C 	C 	0.64286 0.25021 0.75720 -0.08600
C 	C 	0.64906 0.30193 0.74461 0.00500
C 	C 	0.64689 0.34463 0.77054 0.04100
C 	C 	0.64488 0.33846 0.80982 -0.01000
C 	C 	0.64153 0.28822 0.82293 -0.09800
C 	C 	0.63690 0.24175 0.79586 0.10400
C 	C 	0.65977 0.31197 0.70444 0.00700
C 	C 	0.64770 0.39727 0.75664 -0.18600
H 	H 	0.64692 0.37331 0.83030 0.06400
C 	C 	0.62630 0.18353 0.80794 -0.20600
H 	H 	0.64296 0.21665 0.73690 0.06300
C 	C 	0.72268 0.35038 0.69667 0.03700
C 	C 	0.73158 0.35581 0.65803 -0.01200
C 	C 	0.67871 0.32142 0.62691 -0.09800
C 	C 	0.61559 0.28288 0.63478 0.10900
C 	C 	0.60678 0.27966 0.67361 -0.08900
C 	C 	0.78042 0.38338 0.72928 -0.18300
H 	H 	0.77986 0.38569 0.65206 0.05700
C 	C 	0.55761 0.24463 0.60208 -0.21500
H 	H 	0.55859 0.25058 0.67982 0.06900
H 	H 	0.67242 0.19585 0.82338 0.07500
H 	H 	0.60770 0.14539 0.78219 0.08700
H 	H 	0.59031 0.16390 0.82729 0.06500
H 	H 	0.60926 0.37748 0.73057 0.08900
H 	H 	0.69499 0.43242 0.74895 0.08400
H 	H 	0.63923 0.42247 0.77939 0.09000
H 	H 	0.82620 0.41284 0.71850 0.08500
H 	H 	0.78068 0.34757 0.74322 0.08300
H 	H 	0.77903 0.41515 0.75154 0.08200
H 	H 	0.51301 0.21056 0.61286 0.09800
H 	H 	0.56360 0.21653 0.57983 0.08500
H 	H 	0.55090 0.27689 0.58825 0.11000
C 	C 	0.62124 0.28113 0.18245 -0.08700
C 	C 	0.67911 0.29850 0.20391 0.00700
C 	C 	0.72890 0.31029 0.18442 0.04200
C 	C 	0.72236 0.31062 0.14422 -0.01000
C 	C 	0.66612 0.29757 0.12323 -0.09400
C 	C 	0.61401 0.27976 0.14209 0.10900
C 	C 	0.68924 0.30989 0.24708 0.00700
C 	C 	0.78999 0.32524 0.20664 -0.18700
H 	H 	0.76181 0.32296 0.12952 0.06100
C 	C 	0.55121 0.26053 0.11949 -0.21600
H 	H 	0.58254 0.27060 0.19741 0.06600
C 	C 	0.71280 0.36980 0.26854 0.04000
C 	C 	0.71694 0.37804 0.30912 -0.00900
C 	C 	0.69783 0.32737 0.32855 -0.09500
C 	C 	0.67594 0.26788 0.30724 0.10900
C 	C 	0.67194 0.25968 0.26657 -0.08700
C 	C 	0.73146 0.42438 0.24812 -0.18400
H 	H 	0.73428 0.42378 0.32561 0.06000
C 	C 	0.65628 0.21302 0.32759 -0.21400
H 	H 	0.65445 0.21396 0.24997 0.06800
H 	H 	0.55727 0.30275 0.11083 0.08700
H 	H 	0.51266 0.23922 0.13706 0.09500
H 	H 	0.53505 0.22450 0.09298 0.09400
H 	H 	0.77850 0.28823 0.22416 0.09200
H 	H 	0.81741 0.37218 0.22642 0.08600
H 	H 	0.82118 0.32665 0.18669 0.09300
H 	H 	0.75292 0.46908 0.26922 0.08800
H 	H 	0.68831 0.41326 0.22906 0.08500
H 	H 	0.76756 0.43303 0.23009 0.08300
H 	H 	0.61905 0.20392 0.34476 0.08100
H 	H 	0.69876 0.22409 0.34742 0.10300
H 	H 	0.63586 0.16861 0.30647 0.09300
C 	C 	0.85181 0.74565 0.44073 -0.11600
C 	C 	0.85882 0.72831 0.47637 0.00400
C 	C 	0.89191 0.77477 0.51065 0.31100
C 	C 	0.91898 0.83826 0.50907 -0.09100
C 	C 	0.91315 0.85581 0.47329 -0.07300
C 	C 	0.87882 0.80911 0.43916 0.34100
C 	C 	0.83168 0.66152 0.47764 0.02100
F 	F 	0.89813 0.75844 0.54539 -0.41100
H 	H 	0.94546 0.87403 0.53552 0.11100
F 	F 	0.87324 0.82553 0.40434 -0.41800
H 	H 	0.82615 0.71003 0.41419 0.12600
C 	C 	0.76487 0.61521 0.47162 0.29200
C 	C 	0.73907 0.55137 0.47029 -0.05800
C 	C 	0.77976 0.53303 0.47499 -0.13700
C 	C 	0.84683 0.57981 0.48234 0.37200
C 	C 	0.87255 0.64371 0.48349 -0.13700
F 	F 	0.72491 0.63202 0.46659 -0.40700
H 	H 	0.68735 0.51597 0.46469 0.09900
F 	F 	0.88704 0.56350 0.48858 -0.42700
H 	H 	0.92422 0.67931 0.48852 0.13100
C 	C 	0.88425 0.21474 0.45094 -0.14200
C 	C 	0.84036 0.14822 0.44299 0.02300
C 	C 	0.77414 0.11902 0.43537 0.28800
C 	C 	0.75201 0.15600 0.43802 -0.05700
C 	C 	0.79581 0.22246 0.44851 -0.15000
C 	C 	0.86216 0.25183 0.45368 0.37100
C 	C 	0.86369 0.10945 0.44619 0.00200
F 	F 	0.73125 0.05473 0.42667 -0.41000
H 	H 	0.70076 0.13292 0.43332 0.09100
F 	F 	0.90522 0.31600 0.46361 -0.43000
H 	H 	0.93546 0.23762 0.45647 0.12900
C 	C 	0.89083 0.09976 0.41632 0.31500
C 	C 	0.91623 0.06603 0.42058 -0.09300
C 	C 	0.91498 0.04201 0.45478 -0.07100
C 	C 	0.88626 0.05029 0.48420 0.33700
C 	C 	0.86066 0.08379 0.47985 -0.11800
F 	F 	0.89333 0.12371 0.38343 -0.40900
H 	H 	0.93813 0.05972 0.39769 0.12000
F 	F 	0.88517 0.02778 0.51754 -0.42700
H 	H 	0.83959 0.09093 0.50297 0.11900
C 	C 	0.35762 0.23601 0.47235 -0.15000
C 	C 	0.32338 0.17593 0.48269 0.02300
C 	C 	0.35543 0.14993 0.49312 0.29500
C 	C 	0.42082 0.18305 0.49208 -0.05600
C 	C 	0.45458 0.24211 0.48024 -0.14700
C 	C 	0.42295 0.26908 0.47117 0.37700
C 	C 	0.25331 0.13867 0.48016 0.00200
F 	F 	0.32274 0.09176 0.50312 -0.40700
H 	H 	0.44477 0.16194 0.49934 0.09000
F 	F 	0.45551 0.32728 0.46120 -0.43100
H 	H 	0.33333 0.25664 0.46469 0.12600
C 	C 	0.22700 0.12760 0.51420 0.32000
C 	C 	0.16035 0.09099 0.51149 -0.09400
C 	C 	0.11966 0.06559 0.47483 -0.07900
C 	C 	0.14599 0.07720 0.44084 0.34200
C 	C 	0.21256 0.11357 0.44352 -0.12800
F 	F 	0.26601 0.15237 0.54982 -0.40800
H 	H 	0.14029 0.08230 0.53783 0.10900
F 	F 	0.10698 0.05272 0.40523 -0.42000
H 	H 	0.23254 0.12193 0.41715 0.12000
C 	C 	0.82738 0.74991 0.93802 -0.12300
C 	C 	0.82891 0.72093 0.96909 0.01100
C 	C 	0.86885 0.75846 0.00523 0.30800
C 	C 	0.90713 0.82458 0.01019 -0.10300
C 	C 	0.90581 0.85366 0.97912 -0.06700
C 	C 	0.86572 0.81611 0.94297 0.33900
C 	C 	0.78885 0.65137 0.96384 0.01800
F 	F 	0.87050 0.73074 0.03549 -0.41300
H 	H 	0.93789 0.85330 0.03817 0.11500
F 	F 	0.86449 0.84382 0.91261 -0.41900
H 	H 	0.79663 0.72113 0.91006 0.12300
C 	C 	0.72663 0.61752 0.97215 0.29900
C 	C 	0.69144 0.55235 0.97159 -0.05400
C 	C 	0.71820 0.52055 0.96277 -0.14000
C 	C 	0.77952 0.55411 0.95291 0.37200
C 	C 	0.81462 0.61928 0.95345 -0.14000
F 	F 	0.70102 0.64813 0.98176 -0.40500
H 	H 	0.64374 0.52674 0.97855 0.10600
F 	F 	0.80618 0.52413 0.94445 -0.44000
H 	H 	0.86259 0.64522 0.94689 0.12400
C 	C 	0.87803 0.09493 0.96046 -0.12400
C 	C 	0.85402 0.09879 0.99384 0.01000
C 	C 	0.87016 0.08340 0.02794 0.31500
C 	C 	0.90810 0.06206 0.02813 -0.10300
C 	C 	0.93006 0.05584 0.99428 -0.06400
C 	C 	0.91596 0.07358 0.96065 0.34000
C 	C 	0.81048 0.11714 0.99264 0.02800
F 	F 	0.84765 0.08750 0.06051 -0.40500
H 	H 	0.91869 0.04835 0.05417 0.11400
F 	F 	0.93701 0.06783 0.92775 -0.41800
H 	H 	0.86627 0.10734 0.93416 0.11900
C 	C 	0.83392 0.17920 0.00878 0.29100
C 	C 	0.79333 0.19741 0.00575 -0.06600
C 	C 	0.72893 0.15380 0.98640 -0.13900
C 	C 	0.70497 0.09096 0.97146 0.37400
C 	C 	0.74574 0.07289 0.97447 -0.14700
F 	F 	0.89639 0.22225 0.02664 -0.40700
H 	H 	0.81247 0.24596 0.01743 0.09900
F 	F 	0.64231 0.04745 0.95408 -0.42500
H 	H 	0.72716 0.02464 0.96242 0.12800
C 	C 	0.34054 0.10273 0.98991 -0.13200
C 	C 	0.32246 0.13634 0.01057 0.01300
C 	C 	0.36992 0.19715 0.03276 0.28900
C 	C 	0.43478 0.22541 0.03266 -0.05600
C 	C 	0.45289 0.19316 0.01052 -0.15700
C 	C 	0.40561 0.13098 0.98993 0.38300
C 	C 	0.25399 0.10936 0.00725 -0.00300
F 	F 	0.35303 0.22976 0.05327 -0.41500
H 	H 	0.47100 0.27328 0.04879 0.07400
F 	F 	0.42243 0.09920 0.96843 -0.43400
H 	H 	0.30414 0.05545 0.97305 0.12900
C 	C 	0.22054 0.10943 0.97343 0.31700
C 	C 	0.15575 0.08439 0.97053 -0.08100
C 	C 	0.12393 0.05908 0.00133 -0.09100
C 	C 	0.15788 0.06055 0.03556 0.34100
C 	C 	0.22264 0.08555 0.03845 -0.11900
F 	F 	0.25078 0.13353 0.94336 -0.41100
H 	H 	0.12983 0.08321 0.94398 0.11500
F 	F 	0.12768 0.03654 0.06566 -0.42700
H 	H 	0.24838 0.08608 0.06482 0.12300
