data_crystal

_cell_length_a 26.69732
_cell_length_b 26.83538
_cell_length_c 33.17757
_cell_angle_alpha 95.51560
_cell_angle_beta  95.51146
_cell_angle_gamma 125.69926

_symmetry_space_group_name_	'P 1'
_symmetry_space_group_name_H-M	'P 1'

loop_
_symmetry_equiv_pos_as_xyz
  x,y,z

loop_
_atom_site_label
_atom_site_type_symbol
_atom_site_fract_x
_atom_site_fract_y
_atom_site_fract_z
_atom_site_charge
C 	C 	0.05551 0.10227 0.99855 -0.09700
C 	C 	0.08219 0.07044 0.99440 0.05700
C 	C 	0.04608 0.00628 0.99510 -0.08800
H 	H 	0.08382 0.15205 0.99864 0.05400
H 	H 	0.06626 0.98135 0.99072 0.05100
C 	C 	0.96858 0.90178 0.43753 -0.09200
C 	C 	0.00340 0.96640 0.43840 0.05100
C 	C 	0.97244 0.99414 0.43539 -0.09700
H 	H 	0.99247 0.88028 0.44011 0.05300
H 	H 	0.99935 0.04413 0.43661 0.05400
C 	C 	0.10244 0.99241 0.42073 -0.05200
C 	C 	0.07273 0.00612 0.44477 -0.05300
H 	H 	0.17330 0.11623 0.41736 0.04100
H 	H 	0.07600 0.94862 0.39868 0.04000
H 	H 	0.09953 0.04975 0.46702 0.04300
C 	C 	0.19282 0.11613 0.01779 -0.04500
C 	C 	0.14747 0.10411 0.98796 -0.05900
H 	H 	0.18058 0.09706 0.04575 0.04000
H 	H 	0.15893 0.12166 0.95948 0.04400
C 	C 	0.99253 0.07002 0.00309 0.05900
C 	C 	0.98347 0.97412 0.00055 0.05000
C 	C 	0.95691 0.00615 0.00445 -0.09100
H 	H 	0.90838 0.98126 0.00817 0.04900
C 	C 	0.90694 0.95768 0.43093 0.06100
C 	C 	0.87210 0.89286 0.42898 -0.09800
C 	C 	0.90282 0.86500 0.43329 0.05900
H 	H 	0.82125 0.86421 0.42424 0.05300
Cu	Cu	0.67030 0.28827 0.01299 0.92800
Cu	Cu	0.69841 0.27213 0.91983 0.87100
Cu	Cu	0.69763 0.37904 0.95436 0.89800
Cu	Cu	0.67490 0.40717 0.03832 0.89200
C 	C 	0.70400 0.34716 0.09829 0.25300
O 	O 	0.58125 0.25335 0.01863 -0.36700
C 	C 	0.65887 0.32335 0.86553 0.25500
O 	O 	0.71953 0.38381 0.01198 -0.64200
O 	O 	0.65201 0.28746 0.95352 -0.64000
O 	O 	0.70723 0.24179 0.00900 -0.37900
O 	O 	0.76523 0.29458 0.96192 -0.44500
O 	O 	0.67424 0.37143 0.08862 -0.37700
O 	O 	0.74643 0.46872 0.95932 -0.38600
C 	C 	0.74931 0.50639 0.98974 0.30800
C 	C 	0.55353 0.27702 0.00403 0.29700
O 	O 	0.58725 0.33418 0.99656 -0.38700
O 	O 	0.70786 0.48442 0.01452 -0.40000
O 	O 	0.70063 0.30534 0.07115 -0.33900
C 	C 	0.75486 0.26032 0.99025 0.31200
O 	O 	0.69091 0.37477 0.89413 -0.38000
O 	O 	0.65128 0.27213 0.87273 -0.39800
H 	H 	0.76532 0.41078 0.02281 0.16200
H 	H 	0.60682 0.26255 0.94128 0.17300
Cu	Cu	0.70006 0.29118 0.44472 0.92800
Cu	Cu	0.71150 0.24987 0.53339 0.87100
Cu	Cu	0.60539 0.25455 0.50204 0.89800
Cu	Cu	0.57933 0.28661 0.41994 0.89400
C 	C 	0.66090 0.29155 0.36191 0.25700
O 	O 	0.73894 0.38227 0.44573 -0.37400
C 	C 	0.65789 0.28198 0.59064 0.25500
O 	O 	0.60334 0.24101 0.44395 -0.63800
O 	O 	0.69782 0.30095 0.50420 -0.64200
O 	O 	0.74447 0.25191 0.44375 -0.37900
O 	O 	0.68923 0.18795 0.48765 -0.44500
O 	O 	0.60736 0.28191 0.36670 -0.36700
O 	O 	0.51505 0.20520 0.49554 -0.38500
C 	C 	0.47918 0.20754 0.46671 0.30600
C 	C 	0.71176 0.40783 0.45701 0.30600
O 	O 	0.65343 0.37285 0.46273 -0.38900
O 	O 	0.50362 0.25408 0.44609 -0.39600
O 	O 	0.68611 0.27213 0.38592 -0.35500
C 	C 	0.72456 0.20168 0.45952 0.30900
O 	O 	0.60703 0.25259 0.56152 -0.38000
O 	O 	0.70980 0.29087 0.58301 -0.39900
H 	H 	0.57741 0.19626 0.43093 0.16400
H 	H 	0.72227 0.34487 0.51873 0.17300
C 	C 	0.60801 0.29333 0.75866 0.11500
C 	C 	0.58738 0.25121 0.72161 -0.09000
C 	C 	0.62653 0.27020 0.69236 0.00800
C 	C 	0.68136 0.32967 0.69779 0.11400
C 	C 	0.70091 0.37270 0.73409 -0.09000
C 	C 	0.66217 0.35372 0.76379 0.00800
O 	O 	0.59154 0.27314 0.79547 -0.19400
C 	C 	0.64131 0.32661 0.82312 0.04000
C 	C 	0.68328 0.37490 0.80455 -0.05800
O 	O 	0.70219 0.34780 0.66135 -0.19500
C 	C 	0.65291 0.29405 0.63352 0.04100
C 	C 	0.60796 0.24757 0.65178 -0.06300
H 	H 	0.54435 0.20416 0.71690 0.06200
H 	H 	0.74429 0.41950 0.73883 0.06200
H 	H 	0.73198 0.41136 0.81857 0.05100
H 	H 	0.56138 0.20768 0.63629 0.05300
C 	C 	0.73184 0.32521 0.19870 0.11200
C 	C 	0.71102 0.28237 0.22561 -0.08400
C 	C 	0.68857 0.29262 0.25954 0.00600
C 	C 	0.69001 0.34457 0.26815 0.12000
C 	C 	0.71272 0.38850 0.24221 -0.09200
C 	C 	0.73508 0.37849 0.20802 0.01200
O 	O 	0.72767 0.30762 0.15698 -0.18500
C 	C 	0.72699 0.35430 0.14211 0.04400
C 	C 	0.73204 0.39695 0.17232 -0.06500
O 	O 	0.68614 0.35830 0.30865 -0.19700
C 	C 	0.68377 0.31013 0.32369 0.04500
C 	C 	0.68710 0.27190 0.29488 -0.05500
H 	H 	0.70936 0.24105 0.21911 0.06500
H 	H 	0.71342 0.42928 0.24856 0.06300
H 	H 	0.71610 0.42523 0.16707 0.05000
H 	H 	0.67574 0.22663 0.29768 0.05500
C 	C 	0.84206 0.70434 0.45754 0.02500
C 	C 	0.86717 0.67145 0.45060 -0.04900
C 	C 	0.83009 0.60689 0.44898 -0.03400
C 	C 	0.76801 0.57489 0.45575 0.00300
C 	C 	0.74310 0.60802 0.46292 -0.03500
C 	C 	0.78000 0.67248 0.46395 -0.04900
C 	C 	0.72709 0.50597 0.45184 0.01100
C 	C 	0.74909 0.47625 0.46713 -0.14900
C 	C 	0.88131 0.77239 0.45887 -0.04300
C 	C 	0.86534 0.79665 0.43130 -0.06200
H 	H 	0.91502 0.69569 0.44561 0.04100
H 	H 	0.84920 0.58165 0.44171 0.04000
H 	H 	0.69511 0.58380 0.46760 0.03700
H 	H 	0.76039 0.69766 0.46972 0.04100
H 	H 	0.67845 0.47926 0.43615 0.02800
H 	H 	0.79717 0.50277 0.48374 0.07400
H 	H 	0.92437 0.80256 0.48174 0.04000
H 	H 	0.82186 0.76610 0.40877 0.04500
C 	C 	0.75372 0.07778 0.45561 -0.00400
C 	C 	0.81899 0.11009 0.45952 -0.03200
C 	C 	0.84444 0.07712 0.45640 -0.05300
C 	C 	0.80496 0.01150 0.44946 0.03200
C 	C 	0.73988 0.97929 0.44559 -0.06000
C 	C 	0.71437 0.01226 0.44859 -0.02700
C 	C 	0.83190 0.97657 0.45002 -0.04600
C 	C 	0.87505 0.98767 0.42709 -0.06400
C 	C 	0.72700 0.11215 0.46371 0.00900
C 	C 	0.74545 0.16313 0.44746 -0.15900
H 	H 	0.85012 0.16069 0.46634 0.03400
H 	H 	0.89493 0.10258 0.46064 0.04100
H 	H 	0.70911 0.92872 0.44075 0.04100
H 	H 	0.66409 0.98690 0.44612 0.03100
H 	H 	0.81594 0.94118 0.46915 0.03900
H 	H 	0.89060 0.02285 0.40781 0.04700
H 	H 	0.69127 0.09498 0.48278 0.02800
H 	H 	0.77785 0.17763 0.42607 0.08000
C 	C 	0.30219 0.11756 0.43036 0.00300
C 	C 	0.26596 0.13947 0.42478 -0.03500
C 	C 	0.20086 0.09885 0.42188 -0.05000
C 	C 	0.17136 0.03579 0.42439 0.02800
C 	C 	0.20733 0.01342 0.42865 -0.04800
C 	C 	0.27250 0.05411 0.43172 -0.03600
C 	C 	0.37093 0.16073 0.43296 0.00700
C 	C 	0.41050 0.16535 0.46404 -0.14800
H 	H 	0.28828 0.18802 0.42288 0.03700
H 	H 	0.18487 0.96461 0.42979 0.03700
H 	H 	0.29981 0.03627 0.43480 0.03700
H 	H 	0.38919 0.19084 0.41033 0.03200
H 	H 	0.39186 0.13627 0.48720 0.07800
C 	C 	0.92200 0.81232 0.02280 0.02500
C 	C 	0.94388 0.77638 0.01579 -0.05000
C 	C 	0.90461 0.71220 0.01565 -0.03600
C 	C 	0.84311 0.68347 0.02269 0.00300
C 	C 	0.82209 0.71985 0.03126 -0.03600
C 	C 	0.86127 0.78398 0.03126 -0.04900
C 	C 	0.80119 0.61564 0.02251 0.00400
C 	C 	0.79113 0.57425 0.99042 -0.14600
C 	C 	0.96351 0.87999 0.02246 -0.04500
C 	C 	0.94385 0.90593 0.99922 -0.05500
H 	H 	0.99108 0.79806 0.01008 0.04000
H 	H 	0.92201 0.68487 0.01026 0.03600
H 	H 	0.77522 0.69836 0.03758 0.03700
H 	H 	0.84456 0.81165 0.03795 0.04000
H 	H 	0.77607 0.59947 0.04781 0.03200
H 	H 	0.81519 0.59077 0.96472 0.07800
H 	H 	0.01098 0.90840 0.04040 0.03700
H 	H 	0.89642 0.87719 0.98117 0.04400
C 	C 	0.93685 0.17012 0.98444 0.02300
C 	C 	0.96978 0.23422 0.98454 -0.04600
C 	C 	0.93813 0.26124 0.98388 -0.03700
C 	C 	0.87319 0.22437 0.98297 0.00200
C 	C 	0.84009 0.16001 0.98260 -0.03600
C 	C 	0.87179 0.13308 0.98343 -0.04800
C 	C 	0.83922 0.25208 0.97769 0.00600
C 	C 	0.79369 0.23863 0.99902 -0.15500
C 	C 	0.96973 0.14115 0.98191 -0.03900
C 	C 	0.96395 0.10317 0.00773 -0.06500
H 	H 	0.01982 0.26301 0.98477 0.03700
H 	H 	0.96393 0.31070 0.98352 0.03700
H 	H 	0.78960 0.13056 0.98039 0.03600
H 	H 	0.84556 0.08318 0.98213 0.04100
H 	H 	0.85226 0.28444 0.95649 0.02800
H 	H 	0.78350 0.20944 0.02212 0.08000
H 	H 	0.99956 0.15165 0.95909 0.03900
H 	H 	0.93414 0.09292 0.03056 0.04600
C 	C 	0.38706 0.22372 0.00723 0.00200
C 	C 	0.35054 0.24308 0.99397 -0.03400
C 	C 	0.28697 0.20772 0.99677 -0.04600
C 	C 	0.25913 0.15219 0.01255 0.02200
C 	C 	0.29590 0.13341 0.02643 -0.04900
C 	C 	0.35956 0.16908 0.02404 -0.03500
C 	C 	0.45532 0.26389 0.00698 0.00500
C 	C 	0.48461 0.23901 0.99609 -0.14200
H 	H 	0.37158 0.28591 0.98193 0.03700
H 	H 	0.25979 0.22418 0.98751 0.04000
H 	H 	0.27528 0.09149 0.03951 0.04000
H 	H 	0.38777 0.15499 0.03608 0.04000
H 	H 	0.48199 0.31421 0.01643 0.03000
H 	H 	0.45773 0.18890 0.98549 0.07300
