data_crystal

_cell_length_a 18.47113
_cell_length_b 18.78667
_cell_length_c 17.81141
_cell_angle_alpha 95.42776
_cell_angle_beta  95.42917
_cell_angle_gamma 126.41616

_symmetry_space_group_name_	'P 1'
_symmetry_space_group_name_H-M	'P 1'

loop_
_symmetry_equiv_pos_as_xyz
  x,y,z

loop_
_atom_site_label
_atom_site_type_symbol
_atom_site_fract_x
_atom_site_fract_y
_atom_site_fract_z
_atom_site_charge
C 	C 	0.96546 0.04902 0.02957 0.15200
N 	N 	0.05644 0.09688 0.02805 -0.13800
C 	C 	0.09410 0.05331 0.01957 0.15100
N 	N 	0.04074 0.96251 0.01055 -0.14600
C 	C 	0.95010 0.91478 0.01075 0.13800
N 	N 	0.91246 0.95792 0.02077 -0.14700
C 	C 	0.90231 0.99075 0.39937 0.12100
N 	N 	0.85587 0.90102 0.40051 -0.12900
C 	C 	0.90319 0.86751 0.41443 0.14200
C 	C 	0.04197 0.01193 0.42545 0.14900
Cu	Cu	0.63967 0.23371 0.03120 0.92600
Cu	Cu	0.67053 0.17578 0.85664 0.88100
Cu	Cu	0.70099 0.36035 0.91546 0.90400
Cu	Cu	0.61819 0.38900 0.04601 0.89600
C 	C 	0.64841 0.31808 0.18046 0.19700
O 	O 	0.50222 0.16610 0.02354 -0.34900
C 	C 	0.67790 0.28695 0.75471 0.19400
O 	O 	0.70124 0.36785 0.02312 -0.64300
O 	O 	0.62729 0.22792 0.91748 -0.63200
O 	O 	0.72083 0.19642 0.04919 -0.36400
O 	O 	0.67314 0.11054 0.92983 -0.41800
O 	O 	0.60342 0.34389 0.14488 -0.35300
O 	O 	0.76552 0.48832 0.92248 -0.36200
C 	C 	0.74079 0.53108 0.96246 0.30200
C 	C 	0.46050 0.19565 0.99039 0.30200
O 	O 	0.50874 0.27116 0.96484 -0.38400
O 	O 	0.66105 0.48618 0.98493 -0.39200
O 	O 	0.66501 0.26642 0.14213 -0.31400
C 	C 	0.73176 0.15243 0.99510 0.31700
O 	O 	0.73082 0.35632 0.81198 -0.35000
O 	O 	0.63094 0.20431 0.76811 -0.38100
H 	H 	0.76340 0.41198 0.05466 0.16500
H 	H 	0.56308 0.19746 0.89271 0.17200
Cu	Cu	0.74310 0.33735 0.40689 0.92400
Cu	Cu	0.76411 0.26903 0.56767 0.87400
Cu	Cu	0.61163 0.28116 0.52170 0.90000
Cu	Cu	0.58326 0.35573 0.38729 0.90000
C 	C 	0.66241 0.33176 0.25726 0.19600
O 	O 	0.80794 0.47348 0.41702 -0.35500
C 	C 	0.68797 0.29932 0.68292 0.19600
O 	O 	0.60491 0.27419 0.41283 -0.63500
O 	O 	0.74562 0.34567 0.51973 -0.63600
O 	O 	0.79366 0.26691 0.39208 -0.35100
O 	O 	0.71793 0.18017 0.47894 -0.44100
O 	O 	0.63847 0.37775 0.29312 -0.35100
O 	O 	0.48090 0.21813 0.51337 -0.37600
C 	C 	0.43413 0.23395 0.46645 0.30500
C 	C 	0.77578 0.51199 0.45137 0.29800
O 	O 	0.69752 0.46115 0.47416 -0.37600
O 	O 	0.47612 0.30892 0.43859 -0.37700
O 	O 	0.71307 0.31349 0.29568 -0.31600
C 	C 	0.76486 0.19557 0.42380 0.30300
O 	O 	0.61380 0.26058 0.62936 -0.35200
O 	O 	0.76607 0.32616 0.66308 -0.38200
H 	H 	0.56014 0.21223 0.38278 0.16900
H 	H 	0.78439 0.40811 0.54924 0.17900
C 	C 	0.81091 0.60456 0.44269 -0.11500
C 	C 	0.83087 0.63149 0.37179 -0.04700
C 	C 	0.85219 0.71419 0.35948 0.13700
C 	C 	0.85508 0.77166 0.41864 -0.04100
C 	C 	0.83276 0.74375 0.48874 -0.08800
C 	C 	0.81174 0.66121 0.50128 0.17800
H 	H 	0.82816 0.58759 0.32558 0.06400
O 	O 	0.87428 0.74057 0.29070 -0.27100
H 	H 	0.83587 0.78796 0.53493 0.07000
O 	O 	0.79143 0.63580 0.57066 -0.28500
H 	H 	0.85095 0.65996 0.60294 0.14900
H 	H 	0.81549 0.71772 0.25790 0.14800
C 	C 	0.85277 0.03028 0.38841 -0.01400
C 	C 	0.89196 0.10773 0.35505 -0.09800
C 	C 	0.85972 0.15922 0.36084 0.18800
C 	C 	0.78643 0.13270 0.39937 -0.12500
C 	C 	0.74030 0.04935 0.42401 -0.03300
C 	C 	0.77442 0.99962 0.42069 0.11200
H 	H 	0.94986 0.13006 0.32712 0.08700
O 	O 	0.90238 0.23690 0.33149 -0.28200
H 	H 	0.68049 0.02521 0.44963 0.05600
O 	O 	0.73193 0.92214 0.45038 -0.27000
H 	H 	0.76153 0.94164 0.50533 0.14100
H 	H 	0.86977 0.21814 0.27755 0.16400
C 	C 	0.14211 0.07092 0.43706 -0.04100
C 	C 	0.18545 0.10695 0.37562 -0.08700
C 	C 	0.28060 0.15777 0.38422 0.18300
C 	C 	0.33357 0.17560 0.45577 -0.11400
C 	C 	0.29004 0.13964 0.51738 -0.04100
C 	C 	0.19455 0.08675 0.50802 0.14100
H 	H 	0.14511 0.09381 0.32056 0.07600
O 	O 	0.32187 0.19045 0.32279 -0.29700
H 	H 	0.33021 0.15349 0.57275 0.06700
O 	O 	0.15282 0.05328 0.56903 -0.27100
H 	H 	0.14064 0.99399 0.56633 0.14300
H 	H 	0.32362 0.14282 0.29614 0.14400
C 	C 	0.79687 0.62956 0.97456 -0.11100
C 	C 	0.80637 0.67719 0.04515 -0.04900
C 	C 	0.85308 0.77017 0.05615 0.13300
C 	C 	0.89254 0.81659 0.99693 -0.03200
C 	C 	0.88359 0.76935 0.92645 -0.09200
C 	C 	0.83495 0.67593 0.91469 0.18500
H 	H 	0.77727 0.64188 0.09152 0.04600
O 	O 	0.86402 0.81624 0.12610 -0.27100
H 	H 	0.91441 0.80518 0.88077 0.07000
O 	O 	0.82511 0.63027 0.84494 -0.27800
H 	H 	0.76805 0.61386 0.81385 0.15200
H 	H 	0.81027 0.81653 0.12264 0.14500
C 	C 	0.92198 0.09390 0.03064 -0.04400
C 	C 	0.92120 0.13461 0.96889 -0.08600
C 	C 	0.86133 0.15691 0.95845 0.18900
C 	C 	0.80329 0.14062 0.01125 -0.13700
C 	C 	0.81009 0.10751 0.07679 -0.03300
C 	C 	0.86845 0.08319 0.08623 0.13700
H 	H 	0.96348 0.14457 0.92665 0.07500
O 	O 	0.86051 0.19580 0.89724 -0.32200
H 	H 	0.76757 0.09728 0.11887 0.06100
O 	O 	0.87372 0.04971 0.15003 -0.26900
H 	H 	0.82427 0.98383 0.13633 0.14300
H 	H 	0.81644 0.14480 0.85426 0.12500
C 	C 	0.36562 0.15680 0.99776 -0.10700
C 	C 	0.30788 0.15332 0.93782 -0.05200
C 	C 	0.22106 0.12649 0.94693 0.15200
C 	C 	0.19133 0.10312 0.01649 -0.05300
C 	C 	0.24977 0.10878 0.07711 -0.08200
C 	C 	0.33673 0.13587 0.06829 0.17200
H 	H 	0.33040 0.17151 0.88407 0.06300
O 	O 	0.16502 0.12257 0.88755 -0.27800
H 	H 	0.22669 0.08969 0.13054 0.07100
O 	O 	0.39294 0.14102 0.12836 -0.28000
H 	H 	0.42616 0.20224 0.15948 0.14700
H 	H 	0.12965 0.06083 0.85683 0.15100
N 	N 	0.99535 0.04555 0.41136 -0.13200
N 	N 	0.99590 0.92319 0.42680 -0.14000
