data_crystal

_cell_length_a 19.62875
_cell_length_b 20.26310
_cell_length_c 49.42404
_cell_angle_alpha 60.63630
_cell_angle_beta  119.09342
_cell_angle_gamma 133.31156

_symmetry_space_group_name_	'P 1'
_symmetry_space_group_name_H-M	'P 1'

loop_
_symmetry_equiv_pos_as_xyz
  x,y,z

loop_
_atom_site_label
_atom_site_type_symbol
_atom_site_fract_x
_atom_site_fract_y
_atom_site_fract_z
_atom_site_charge
O 	O 	0.06458 0.00297 0.07816 -0.54900
Co	Co	0.03193 0.10881 0.05521 1.19300
Co	Co	0.12704 0.05300 0.03780 1.19800
O 	O 	0.09531 0.14369 0.02346 -0.40900
O 	O 	0.10657 0.80972 0.12086 -0.33500
Co	Co	0.01785 0.98677 0.52831 1.17800
Co	Co	0.01850 0.82163 0.53237 1.17300
O 	O 	0.04061 0.10558 0.52397 -0.39800
O 	O 	0.03452 0.78519 0.61012 -0.35700
C 	C 	0.05314 0.01054 0.25886 -0.01900
C 	C 	0.05278 0.01591 0.28610 -0.01900
C 	C 	0.00010 0.91087 0.73065 0.03600
F 	F 	0.05638 0.63493 0.11415 -0.36300
O 	O 	0.05170 0.15848 0.11658 -0.37200
O 	O 	0.07756 0.14483 0.62724 -0.37700
C 	C 	0.00309 0.89701 0.76300 0.01600
C 	C 	0.05342 0.61813 0.61859 0.27200
F 	F 	0.05747 0.50167 0.62000 -0.34200
C 	C 	0.10050 0.98045 0.98999 0.32800
O 	O 	0.05972 0.99702 0.99861 -0.37500
C 	C 	0.03085 0.93728 0.90448 0.00300
C 	C 	0.01863 0.91728 0.84920 0.01100
C 	C 	0.01294 0.90728 0.81999 0.00200
C 	C 	0.04821 0.95598 0.93303 0.08600
C 	C 	0.06626 0.96750 0.95830 -0.04100
F 	F 	0.06053 0.78834 0.99482 -0.40700
O 	O 	0.09061 0.79988 0.05511 -0.34100
C 	C 	0.05635 0.88384 0.90720 -0.00700
H 	H 	0.11349 0.97714 0.35753 0.07200
H 	H 	0.10570 0.98255 0.40479 0.07600
C 	C 	0.05038 0.87396 0.87975 -0.01800
C 	C 	0.05101 0.96714 0.35688 -0.04800
C 	C 	0.04671 0.97055 0.38371 -0.03700
Co	Co	0.04138 0.87313 0.08184 1.18600
H 	H 	0.08238 0.85119 0.93058 0.11500
H 	H 	0.07069 0.83285 0.88228 0.08500
C 	C 	0.09663 0.94221 0.81368 -0.01800
C 	C 	0.09169 0.93719 0.78528 -0.01900
C 	C 	0.12438 0.22427 0.10237 0.40200
O 	O 	0.12127 0.22390 0.07472 -0.33200
C 	C 	0.07682 0.76815 0.60262 0.39700
H 	H 	0.11046 0.06997 0.24656 0.08900
H 	H 	0.11041 0.07896 0.29468 0.07800
C 	C 	0.10109 0.57775 0.62956 0.27200
C 	C 	0.10099 0.70205 0.62573 -0.18700
O 	O 	0.11084 0.81972 0.57680 -0.35500
F 	F 	0.01050 0.36064 0.99001 -0.35800
O 	O 	0.12491 0.18494 0.58370 -0.34200
C 	C 	0.00247 0.77629 0.04050 0.35400
O 	O 	0.12831 0.95180 0.51267 -0.41500
F 	F 	0.12980 0.36219 0.55854 -0.37000
O 	O 	0.13334 0.96307 0.06391 -0.76100
Co	Co	0.99585 0.08228 0.55926 1.20600
F 	F 	0.14033 0.55291 0.12802 -0.33800
O 	O 	0.98280 0.87538 0.54636 -0.73200
C 	C 	0.14578 0.66655 0.13380 0.29100
C 	C 	0.98720 0.91989 0.70271 0.00600
O 	O 	0.97694 0.91598 0.65238 -0.33800
O 	O 	0.18150 0.98936 0.00786 -0.35700
F 	F 	0.96310 0.57851 0.59962 -0.33400
H 	H 	0.83382 0.92265 0.30845 0.08000
H 	H 	0.82565 0.92680 0.35596 0.08700
Co	Co	0.20973 0.93654 0.05730 1.18400
C 	C 	0.89339 0.93590 0.32935 -0.02500
C 	C 	0.88914 0.93915 0.35625 -0.01300
O 	O 	0.96315 0.97641 0.48038 -0.31100
C 	C 	0.97384 0.94857 0.32966 0.05200
C 	C 	0.97672 0.94120 0.30158 0.02500
C 	C 	0.97751 0.93055 0.24675 0.03200
C 	C 	0.96702 0.93314 0.21498 0.08100
C 	C 	0.90327 0.85463 0.26284 -0.01400
H 	H 	0.16572 0.97526 0.83032 0.07400
C 	C 	0.90288 0.85981 0.29012 -0.01700
C 	C 	0.95815 0.93518 0.18849 -0.03700
H 	H 	0.15722 0.96774 0.78013 0.08100
O 	O 	0.96710 0.91632 0.14578 -0.31800
C 	C 	0.94481 0.91347 0.47060 0.31700
C 	C 	0.73867 0.35448 0.97240 0.25600
N 	N 	0.80095 0.44133 0.97813 -0.09500
C 	C 	0.76571 0.48259 0.97658 0.26300
N 	N 	0.66925 0.43828 0.96799 -0.12100
C 	C 	0.60959 0.34563 0.96987 0.27200
N 	N 	0.64261 0.30632 0.96873 -0.10400
C 	C 	0.65882 0.29424 0.48111 0.27800
N 	N 	0.56110 0.23305 0.47583 -0.11100
C 	C 	0.50890 0.25987 0.47189 0.26700
N 	N 	0.55297 0.35122 0.46782 -0.12100
C 	C 	0.64953 0.40791 0.47804 0.27100
N 	N 	0.70308 0.38159 0.48275 -0.11700
C 	C 	0.33846 0.63326 0.16039 0.26600
N 	N 	0.42814 0.69968 0.15446 -0.10700
C 	C 	0.47407 0.67375 0.15284 0.26500
N 	N 	0.43226 0.58188 0.15895 -0.12100
C 	C 	0.33828 0.51796 0.15957 0.27000
N 	N 	0.29306 0.54241 0.16239 -0.11100
C 	C 	0.26074 0.60242 0.65098 0.25600
N 	N 	0.35683 0.67199 0.65512 -0.10200
C 	C 	0.41706 0.66318 0.65348 0.26700
N 	N 	0.38190 0.58337 0.64883 -0.12200
C 	C 	0.28625 0.51521 0.64324 0.26600
N 	N 	0.22494 0.52418 0.64438 -0.10400
C 	C 	0.33161 0.14098 0.04061 0.39800
O 	O 	0.87968 0.96680 0.13451 -0.37100
C 	C 	0.93885 0.94435 0.15494 0.33500
O 	O 	0.93461 0.81802 0.10051 -0.38300
C 	C 	0.74560 0.89356 0.07763 0.39600
C 	C 	0.18244 0.81985 0.12231 0.40200
O 	O 	0.24678 0.89596 0.10628 -0.34600
O 	O 	0.78003 0.98231 0.06819 -0.34000
O 	O 	0.78997 0.86713 0.07643 -0.33600
C 	C 	0.90605 0.16965 0.02480 0.41600
O 	O 	0.96740 0.80428 0.04626 -0.33100
O 	O 	0.32866 0.06866 0.06223 -0.32300
O 	O 	0.27167 0.15685 0.03633 -0.32600
C 	C 	0.82670 0.66136 0.54565 0.41500
C 	C 	0.18844 0.02356 0.52527 0.45100
O 	O 	0.90876 0.97163 0.65284 -0.35800
C 	C 	0.96054 0.93968 0.66811 0.32300
O 	O 	0.87164 0.78179 0.60938 -0.40100
C 	C 	0.13284 0.20756 0.60689 0.39700
C 	C 	0.73795 0.90136 0.60320 0.39300
O 	O 	0.78608 0.99292 0.59243 -0.32700
O 	O 	0.75890 0.85429 0.60097 -0.33700
C 	C 	0.90253 0.17155 0.54257 0.41500
O 	O 	0.91266 0.68675 0.55071 -0.35200
O 	O 	0.81428 0.70005 0.55620 -0.34100
O 	O 	0.15961 0.03692 0.54011 -0.36500
C 	C 	0.99140 0.96943 0.84646 -0.01300
C 	C 	0.99769 0.97951 0.87399 0.00100
H 	H 	0.96654 0.00306 0.82308 0.08900
H 	H 	0.97840 0.02142 0.87151 0.09300
H 	H 	0.85031 0.82801 0.75294 0.09300
H 	H 	0.85868 0.83549 0.80297 0.07600
C 	C 	0.28524 0.38324 0.65190 0.26100
C 	C 	0.24967 0.43733 0.63271 -0.13100
C 	C 	0.19965 0.43190 0.60083 0.26600
C 	C 	0.17915 0.36773 0.58924 0.28800
C 	C 	0.20249 0.30424 0.61003 -0.19200
C 	C 	0.26479 0.31966 0.64014 0.29700
F 	F 	0.29548 0.26448 0.65956 -0.35800
F 	F 	0.33958 0.39225 0.68205 -0.34800
F 	F 	0.17274 0.48997 0.58094 -0.34800
C 	C 	0.58944 0.73781 0.66436 0.26200
C 	C 	0.51283 0.74582 0.64851 -0.12700
C 	C 	0.52077 0.81852 0.62093 0.26600
C 	C 	0.59502 0.87023 0.60614 0.30500
C 	C 	0.66299 0.85111 0.61940 -0.20100
C 	C 	0.66291 0.78825 0.64943 0.29400
F 	F 	0.73257 0.77431 0.66370 -0.38500
F 	F 	0.58669 0.67326 0.69255 -0.35100
F 	F 	0.59781 0.93509 0.57803 -0.34400
F 	F 	0.45057 0.83178 0.60657 -0.33900
C 	C 	0.19509 0.61869 0.64915 -0.12000
C 	C 	0.23270 0.68989 0.66183 0.26700
C 	C 	0.18714 0.73325 0.64941 0.30400
F 	F 	0.23036 0.80977 0.65862 -0.35500
F 	F 	0.31607 0.72054 0.68481 -0.34500
C 	C 	0.19656 0.38673 0.09686 0.29600
C 	C 	0.19979 0.30928 0.11376 -0.19400
C 	C 	0.25185 0.30257 0.14577 0.29400
C 	C 	0.29178 0.36750 0.16156 0.26500
C 	C 	0.28108 0.44029 0.14534 -0.13500
C 	C 	0.23486 0.45061 0.11273 0.26800
F 	F 	0.22957 0.52438 0.09624 -0.33300
F 	F 	0.14872 0.39545 0.06565 -0.34400
F 	F 	0.34101 0.35983 0.19262 -0.35600
F 	F 	0.25785 0.22925 0.16214 -0.37100
C 	C 	0.53685 0.79478 0.10473 0.26600
C 	C 	0.55185 0.74162 0.13579 -0.13100
C 	C 	0.62672 0.73300 0.14637 0.26000
C 	C 	0.68173 0.77195 0.12562 0.29100
C 	C 	0.66846 0.82715 0.09491 -0.19700
C 	C 	0.59410 0.83639 0.08436 0.29700
F 	F 	0.57832 0.88714 0.05439 -0.33700
F 	F 	0.46327 0.80185 0.09365 -0.34700
F 	F 	0.75003 0.75835 0.13573 -0.38900
F 	F 	0.64289 0.68268 0.17639 -0.35900
C 	C 	0.28810 0.77484 0.16608 0.29900
C 	C 	0.19933 0.74798 0.14358 -0.19200
C 	C 	0.18887 0.62468 0.14089 0.26700
C 	C 	0.28456 0.66175 0.15912 -0.12600
C 	C 	0.33124 0.73269 0.17352 0.26400
F 	F 	0.42006 0.76361 0.19355 -0.35600
F 	F 	0.33720 0.84859 0.17798 -0.35600
C 	C 	0.75462 0.26022 0.47744 0.27000
C 	C 	0.71535 0.25684 0.49586 -0.12400
C 	C 	0.73129 0.21867 0.52887 0.28200
C 	C 	0.78731 0.18570 0.54367 0.31400
C 	C 	0.82977 0.19139 0.52565 -0.18600
C 	C 	0.81192 0.22763 0.49231 0.30800
F 	F 	0.85290 0.23477 0.47453 -0.34900
F 	F 	0.73895 0.29656 0.44535 -0.35100
F 	F 	0.80398 0.15193 0.57588 -0.36900
F 	F 	0.69495 0.21649 0.54691 -0.29400
C 	C 	0.68959 0.55230 0.47940 0.26400
C 	C 	0.68802 0.47197 0.49571 -0.13500
C 	C 	0.70173 0.44182 0.52911 0.26600
C 	C 	0.72686 0.49674 0.54610 0.31200
C 	C 	0.74487 0.58492 0.53012 -0.19600
C 	C 	0.71536 0.60726 0.49663 0.28900
F 	F 	0.72047 0.68689 0.48079 -0.37500
F 	F 	0.66693 0.57739 0.44696 -0.36000
F 	F 	0.74530 0.46959 0.57850 -0.32900
F 	F 	0.68926 0.35857 0.54499 -0.31700
C 	C 	0.35523 0.09051 0.53123 0.31100
C 	C 	0.27911 0.09908 0.51551 -0.21400
C 	C 	0.27740 0.15808 0.48469 0.30100
C 	C 	0.34646 0.20167 0.46876 0.25700
C 	C 	0.42147 0.19123 0.48414 -0.12800
C 	C 	0.42473 0.13440 0.51547 0.26600
F 	F 	0.49709 0.12406 0.53102 -0.31000
F 	F 	0.35789 0.03392 0.56111 -0.34000
F 	F 	0.34218 0.25639 0.43859 -0.35700
F 	F 	0.20397 0.16700 0.46921 -0.38100
C 	C 	0.71750 0.20811 0.98058 0.26500
C 	C 	0.77638 0.30656 0.97536 -0.11200
C 	C 	0.87367 0.35764 0.97578 0.26200
C 	C 	0.91457 0.31056 0.98668 0.32300
C 	C 	0.85910 0.21246 0.99743 -0.19200
C 	C 	0.75892 0.16181 0.99113 0.29900
F 	F 	0.62107 0.15684 0.97665 -0.33900
F 	F 	0.92912 0.45255 0.96636 -0.32700
C 	C 	0.84863 0.62515 0.02848 0.30000
C 	C 	0.93821 0.70575 0.02180 -0.16400
C 	C 	0.97225 0.71242 0.00053 0.30200
C 	C 	0.91636 0.63967 0.98578 0.26700
C 	C 	0.82724 0.55860 0.99279 -0.12100
C 	C 	0.79423 0.55144 0.01454 0.27000
F 	F 	0.71048 0.47180 0.02286 -0.34500
F 	F 	0.81650 0.61597 0.04987 -0.34700
F 	F 	0.94883 0.64818 0.96467 -0.35000
C 	C 	0.38249 0.23591 0.98913 0.29800
C 	C 	0.40707 0.20767 0.02269 -0.19100
C 	C 	0.49762 0.22413 0.03821 0.30600
C 	C 	0.55865 0.25946 0.02053 0.28000
C 	C 	0.53411 0.28688 0.98705 -0.12200
C 	C 	0.44651 0.27655 0.97140 0.26900
F 	F 	0.42341 0.30575 0.93909 -0.35700
F 	F 	0.29521 0.22050 0.97367 -0.37600
F 	F 	0.64465 0.27199 0.03599 -0.33800
F 	F 	0.52495 0.20253 0.07063 -0.33700
Co	Co	0.93592 0.92279 0.09767 1.19800
Co	Co	0.91223 0.07366 0.09332 1.19400
O 	O 	0.97113 0.03439 0.08368 -0.74200
O 	O 	0.93512 0.18336 0.05277 -0.35000
O 	O 	0.92084 0.11959 0.02169 -0.34400
Co	Co	0.93070 0.81021 0.57764 1.20200
Co	Co	0.89668 0.90078 0.60550 1.19600
Co	Co	0.93193 0.07547 0.61090 1.20200
O 	O 	0.94081 0.01482 0.58982 -0.74200
O 	O 	0.93107 0.93620 0.56057 -0.55900
O 	O 	0.92337 0.83114 0.48971 -0.33000
O 	O 	0.95362 0.18670 0.57097 -0.33400
O 	O 	0.90641 0.12655 0.53173 -0.32500
C 	C 	0.91908 0.85874 0.76998 0.00200
C 	C 	0.92394 0.86391 0.79825 0.00300
C 	C 	0.96528 0.95539 0.38369 0.05200
C 	C 	0.95468 0.94399 0.41327 0.07600
C 	C 	0.94974 0.93494 0.43862 -0.02600
H 	H 	0.84452 0.80107 0.30202 0.07900
H 	H 	0.84410 0.79278 0.25365 0.09300
F 	F 	0.70288 0.06684 0.99870 -0.34000
