data_crystal

_cell_length_a 19.97824
_cell_length_b 19.55321
_cell_length_c 9.54676
_cell_angle_alpha 90.00000
_cell_angle_beta  90.00000
_cell_angle_gamma 120.53001

_symmetry_space_group_name_	'P 1'
_symmetry_space_group_name_H-M	'P 1'

loop_
_symmetry_equiv_pos_as_xyz
  x,y,z

loop_
_atom_site_label
_atom_site_type_symbol
_atom_site_fract_x
_atom_site_fract_y
_atom_site_fract_z
_atom_site_charge
C 	C 	0.41599 0.57435 0.90263 0.29400
C 	C 	0.16093 0.57792 0.58899 0.29900
C 	C 	0.41738 0.57855 0.58913 0.29700
C 	C 	0.15843 0.57924 0.90257 0.29300
C 	C 	0.41739 0.83690 0.58969 0.29800
C 	C 	0.42092 0.83846 0.90442 0.29100
Ni	Ni	0.27393 0.54915 0.74590 1.11800
Ni	Ni	0.27894 0.72158 0.74661 1.12400
Ni	Ni	0.44158 0.72018 0.74730 1.12700
O 	O 	0.33923 0.53481 0.90021 -0.34600
O 	O 	0.45613 0.65286 0.89360 -0.33900
O 	O 	0.34118 0.79467 0.58948 -0.35100
O 	O 	0.19950 0.54021 0.58654 -0.33500
O 	O 	0.19884 0.65586 0.59769 -0.35800
O 	O 	0.45597 0.79655 0.90189 -0.34600
O 	O 	0.34130 0.53474 0.59621 -0.35200
O 	O 	0.45090 0.65620 0.58901 -0.33900
O 	O 	0.34421 0.80307 0.89363 -0.35900
O 	O 	0.19116 0.53505 0.89432 -0.33600
O 	O 	0.20087 0.65768 0.89899 -0.35500
O 	O 	0.45811 0.80122 0.59988 -0.35400
O 	O 	0.33025 0.66125 0.76503 -0.70500
H 	H 	0.33003 0.66097 0.86860 0.14700
C 	C 	0.84251 0.42231 0.09725 0.29300
C 	C 	0.58357 0.42300 0.41073 0.29700
C 	C 	0.84002 0.42363 0.41083 0.29800
C 	C 	0.58495 0.42719 0.09723 0.29300
C 	C 	0.58356 0.16465 0.41016 0.29800
C 	C 	0.58001 0.16309 0.09543 0.29100
Ni	Ni	0.72701 0.45240 0.25394 1.11800
Ni	Ni	0.55936 0.28137 0.25256 1.12700
Ni	Ni	0.72200 0.27997 0.25322 1.12400
O 	O 	0.80978 0.46650 0.10551 -0.33600
O 	O 	0.80007 0.34387 0.10083 -0.35500
O 	O 	0.54284 0.20032 0.39997 -0.35400
O 	O 	0.65965 0.46681 0.40364 -0.35200
O 	O 	0.55005 0.34535 0.41086 -0.33900
O 	O 	0.65672 0.19848 0.10621 -0.35900
O 	O 	0.80144 0.46134 0.41330 -0.33500
O 	O 	0.80211 0.34569 0.40213 -0.35800
O 	O 	0.54496 0.20500 0.09796 -0.34600
O 	O 	0.66171 0.46674 0.09964 -0.34600
O 	O 	0.54480 0.34869 0.10627 -0.33900
O 	O 	0.65977 0.20688 0.41036 -0.35100
O 	O 	0.67069 0.34030 0.23481 -0.70500
H 	H 	0.67091 0.34058 0.13124 0.14700
C 	C 	0.02311 0.55142 0.88364 -0.02600
C 	C 	0.07878 0.54262 0.95793 -0.05900
C 	C 	0.05632 0.49353 0.07772 0.11200
C 	C 	0.97783 0.45013 0.11618 -0.02600
C 	C 	0.92215 0.45892 0.04189 -0.05900
C 	C 	0.94461 0.50802 0.92210 0.11200
N 	N 	0.88751 0.51098 0.83560 -0.02000
H 	H 	0.04031 0.58968 0.79248 0.06800
H 	H 	0.96062 0.41187 0.20734 0.06800
N 	N 	0.11343 0.49057 0.16422 -0.02000
O 	O 	0.89722 0.57916 0.79639 -0.06800
O 	O 	0.82973 0.44573 0.78549 -0.06900
O 	O 	0.17121 0.55581 0.21433 -0.06900
O 	O 	0.10371 0.42239 0.20343 -0.06800
C 	C 	0.05235 0.57986 0.46324 -0.02300
C 	C 	0.07968 0.53669 0.53698 -0.06500
C 	C 	0.02726 0.45652 0.57181 0.09900
C 	C 	0.94860 0.42169 0.53659 -0.02300
C 	C 	0.92126 0.46486 0.46285 -0.06500
C 	C 	0.97369 0.54503 0.42801 0.09900
N 	N 	0.94735 0.59160 0.35763 -0.02500
H 	H 	0.09208 0.64112 0.43442 0.08700
H 	H 	0.90887 0.36043 0.56541 0.08700
N 	N 	0.05359 0.40995 0.64219 -0.02500
O 	O 	0.91624 0.62486 0.42957 -0.07300
O 	O 	0.96675 0.61203 0.22771 -0.08800
O 	O 	0.03419 0.38952 0.77211 -0.08800
O 	O 	0.08470 0.37669 0.57025 -0.07300
C 	C 	0.47685 0.05334 0.54535 -0.01700
C 	C 	0.54463 0.08206 0.46434 -0.06100
C 	C 	0.56960 0.02921 0.42283 0.10100
C 	C 	0.52409 0.94821 0.45448 -0.01700
C 	C 	0.45632 0.91949 0.53550 -0.06100
C 	C 	0.43135 0.97233 0.57701 0.10100
N 	N 	0.35776 0.94354 0.64397 -0.02500
H 	H 	0.45749 0.09341 0.57904 0.09200
H 	H 	0.54345 0.90814 0.42079 0.09200
N 	N 	0.64318 0.05800 0.35587 -0.02500
O 	O 	0.35501 0.96760 0.76963 -0.08500
O 	O 	0.29436 0.90664 0.57025 -0.07400
O 	O 	0.70658 0.09491 0.42960 -0.07400
O 	O 	0.64594 0.03395 0.23021 -0.08500
C 	C 	0.42437 0.94788 0.04376 -0.01900
C 	C 	0.46383 0.92013 0.96118 -0.05900
C 	C 	0.54157 0.97320 0.92144 0.10200
C 	C 	0.57657 0.05367 0.95610 -0.01900
C 	C 	0.53710 0.08141 0.03867 -0.05900
C 	C 	0.45937 0.02834 0.07842 0.10200
N 	N 	0.41418 0.05654 0.14642 -0.02500
H 	H 	0.36502 0.90749 0.07635 0.08900
H 	H 	0.63591 0.09406 0.92351 0.08900
N 	N 	0.58676 0.94501 0.85343 -0.02500
O 	O 	0.38701 0.09332 0.07357 -0.06500
O 	O 	0.38776 0.03202 0.27203 -0.08400
O 	O 	0.61317 0.96953 0.72782 -0.08400
O 	O 	0.61393 0.90822 0.92626 -0.06500
C 	C 	0.45110 0.47002 0.88373 -0.02600
C 	C 	0.45544 0.53386 0.95836 -0.05800
C 	C 	0.50335 0.56318 0.07806 0.11300
C 	C 	0.54984 0.53153 0.11614 -0.02600
C 	C 	0.54550 0.46768 0.04151 -0.05800
C 	C 	0.49759 0.43837 0.92181 0.11300
N 	N 	0.49871 0.37910 0.83517 -0.02000
H 	H 	0.41388 0.44698 0.79250 0.06900
H 	H 	0.58706 0.55457 0.20737 0.06900
N 	N 	0.50222 0.62245 0.16469 -0.02000
O 	O 	0.43376 0.31729 0.79582 -0.06500
O 	O 	0.56422 0.39044 0.78544 -0.06700
O 	O 	0.43671 0.61111 0.21442 -0.06700
O 	O 	0.56717 0.68426 0.20404 -0.06500
C 	C 	0.42257 0.46969 0.46237 -0.02300
C 	C 	0.46159 0.54158 0.53679 -0.06400
C 	C 	0.54059 0.57329 0.57242 0.10000
C 	C 	0.57838 0.53186 0.53750 -0.02300
C 	C 	0.53936 0.45997 0.46307 -0.06400
C 	C 	0.46036 0.42825 0.42745 0.10000
N 	N 	0.41796 0.35369 0.35670 -0.02600
H 	H 	0.36224 0.44516 0.43289 0.08900
H 	H 	0.63871 0.55639 0.56698 0.08900
N 	N 	0.58299 0.64785 0.64317 -0.02600
O 	O 	0.38850 0.28810 0.42829 -0.06900
O 	O 	0.39738 0.35171 0.22686 -0.08500
O 	O 	0.60356 0.64983 0.77301 -0.08500
O 	O 	0.61246 0.71345 0.57159 -0.06900
