data_crystal

_cell_length_a 27.71853
_cell_length_b 28.20162
_cell_length_c 34.86281
_cell_angle_alpha 95.53146
_cell_angle_beta  95.52720
_cell_angle_gamma 125.66363

_symmetry_space_group_name_	'P 1'
_symmetry_space_group_name_H-M	'P 1'

loop_
_symmetry_equiv_pos_as_xyz
  x,y,z

loop_
_atom_site_label
_atom_site_type_symbol
_atom_site_fract_x
_atom_site_fract_y
_atom_site_fract_z
_atom_site_charge
C 	C 	0.95814 0.01488 0.99508 0.04800
C 	C 	0.92371 0.95412 0.99637 -0.08900
C 	C 	0.94882 0.92341 0.99145 0.04900
C 	C 	0.00831 0.95337 0.98530 -0.08400
C 	C 	0.04286 0.01405 0.98403 0.04800
C 	C 	0.01782 0.04493 0.98893 -0.08500
H 	H 	0.87749 0.93080 0.00101 0.05800
H 	H 	0.02773 0.92952 0.98153 0.05600
H 	H 	0.04453 0.09195 0.98790 0.05500
C 	C 	0.95061 0.01318 0.45175 0.04600
C 	C 	0.91848 0.95323 0.45538 -0.08200
C 	C 	0.94893 0.92744 0.45930 0.04700
C 	C 	0.01114 0.96150 0.45959 -0.08100
C 	C 	0.04310 0.02117 0.45597 0.04800
C 	C 	0.01289 0.04700 0.45201 -0.08200
H 	H 	0.87030 0.92697 0.45524 0.05500
H 	H 	0.03466 0.94156 0.46264 0.05500
H 	H 	0.03777 0.09334 0.44931 0.05500
Cu	Cu	0.63052 0.23393 0.99869 0.92700
Cu	Cu	0.68844 0.24341 0.91947 0.87000
Cu	Cu	0.66954 0.33181 0.95072 0.89700
Cu	Cu	0.62641 0.34111 0.02464 0.89500
C 	C 	0.63858 0.27282 0.07986 0.28600
O 	O 	0.54111 0.19712 0.99354 -0.36300
C 	C 	0.65894 0.29653 0.86540 0.28700
O 	O 	0.67846 0.32661 0.00498 -0.63900
O 	O 	0.62889 0.24434 0.94337 -0.64100
O 	O 	0.66940 0.19270 0.99796 -0.37600
O 	O 	0.74084 0.25781 0.96559 -0.44500
O 	O 	0.61058 0.29553 0.06817 -0.38400
O 	O 	0.71339 0.41719 0.96164 -0.38400
C 	C 	0.70513 0.44717 0.98828 0.30700
C 	C 	0.51856 0.22262 0.97820 0.30200
O 	O 	0.55467 0.27869 0.97534 -0.39600
O 	O 	0.66271 0.42037 0.00961 -0.39300
O 	O 	0.64483 0.23967 0.05447 -0.35700
C 	C 	0.72238 0.21756 0.98776 0.31100
O 	O 	0.67455 0.33878 0.89516 -0.38600
O 	O 	0.65509 0.24896 0.87115 -0.42000
H 	H 	0.72074 0.35227 0.01956 0.16400
H 	H 	0.58825 0.22016 0.92646 0.17300
Cu	Cu	0.74796 0.35417 0.45203 0.92700
Cu	Cu	0.74502 0.30469 0.53384 0.87000
Cu	Cu	0.65114 0.31775 0.50222 0.89700
Cu	Cu	0.63536 0.35290 0.42623 0.89500
C 	C 	0.70388 0.33993 0.37050 0.28700
O 	O 	0.78292 0.44128 0.45429 -0.36100
C 	C 	0.69157 0.33423 0.58788 0.28700
O 	O 	0.65375 0.30527 0.44767 -0.64000
O 	O 	0.74034 0.35973 0.50787 -0.64100
O 	O 	0.79100 0.31686 0.45356 -0.37400
O 	O 	0.72803 0.24995 0.48903 -0.44400
O 	O 	0.67941 0.36633 0.38161 -0.38500
O 	O 	0.56396 0.27239 0.49304 -0.38400
C 	C 	0.53102 0.27608 0.46523 0.30900
C 	C 	0.75604 0.46310 0.46864 0.30100
O 	O 	0.69998 0.42694 0.47335 -0.39500
O 	O 	0.55587 0.31690 0.44307 -0.39500
O 	O 	0.73927 0.33615 0.39620 -0.35900
C 	C 	0.76696 0.26604 0.46548 0.30800
O 	O 	0.64740 0.31743 0.55855 -0.38500
O 	O 	0.74085 0.34027 0.58148 -0.42100
H 	H 	0.62815 0.26304 0.43442 0.16300
H 	H 	0.76466 0.40055 0.52351 0.17400
C 	C 	0.61546 0.30800 0.67597 -0.06200
C 	C 	0.66528 0.33561 0.70684 0.01800
C 	C 	0.72399 0.36853 0.69869 -0.06300
C 	C 	0.73271 0.37104 0.65990 0.01000
C 	C 	0.68275 0.34006 0.62878 -0.08700
C 	C 	0.62409 0.31011 0.63711 0.01000
C 	C 	0.65593 0.32525 0.74710 0.01800
H 	H 	0.76281 0.39042 0.72232 0.04300
H 	H 	0.77827 0.39565 0.65403 0.03100
H 	H 	0.58508 0.28662 0.61352 0.03900
H 	H 	0.56998 0.28329 0.68199 0.04500
C 	C 	0.68369 0.37352 0.77847 -0.06200
C 	C 	0.68228 0.36406 0.81713 0.01000
C 	C 	0.65291 0.30612 0.82478 -0.08700
C 	C 	0.62195 0.25766 0.79323 0.01000
C 	C 	0.62375 0.26720 0.75464 -0.06300
H 	H 	0.70789 0.41845 0.77294 0.04500
H 	H 	0.70582 0.40190 0.84108 0.03900
H 	H 	0.59782 0.21265 0.79861 0.03100
H 	H 	0.60182 0.22959 0.73064 0.04300
C 	C 	0.71769 0.29487 0.18142 -0.06100
C 	C 	0.67433 0.28548 0.20373 0.01900
C 	C 	0.61725 0.26638 0.18482 -0.06200
C 	C 	0.60464 0.25976 0.14409 0.01400
C 	C 	0.64899 0.27198 0.12188 -0.08200
C 	C 	0.70494 0.28784 0.14056 0.01000
C 	C 	0.69076 0.30227 0.24679 0.01900
H 	H 	0.58338 0.25865 0.20183 0.04600
H 	H 	0.56088 0.24640 0.12989 0.03700
H 	H 	0.73932 0.29692 0.12364 0.03100
H 	H 	0.76185 0.30944 0.19581 0.04700
C 	C 	0.68153 0.26031 0.26964 -0.06100
C 	C 	0.68864 0.27363 0.31045 0.01100
C 	C 	0.70441 0.32874 0.32852 -0.08300
C 	C 	0.71636 0.37162 0.30576 0.01400
C 	C 	0.70967 0.35846 0.26509 -0.06200
H 	H 	0.66710 0.21685 0.25571 0.04700
H 	H 	0.67976 0.24039 0.32780 0.03000
H 	H 	0.72962 0.41471 0.31950 0.03600
H 	H 	0.71727 0.39123 0.24765 0.04600
C 	C 	0.86624 0.75398 0.46888 0.02100
C 	C 	0.81905 0.70748 0.43948 -0.04800
C 	C 	0.79773 0.64887 0.44038 -0.02800
C 	C 	0.82359 0.63648 0.47064 -0.01100
C 	C 	0.87008 0.68284 0.50043 -0.02800
C 	C 	0.89139 0.74148 0.49954 -0.04800
C 	C 	0.89260 0.81477 0.46569 -0.01300
C 	C 	0.91673 0.86594 0.46281 -0.02800
C 	C 	0.80211 0.57611 0.47108 0.04600
C 	C 	0.78243 0.52494 0.47055 -0.11100
H 	H 	0.79956 0.71679 0.41560 0.04300
H 	H 	0.76152 0.61321 0.41737 0.03700
H 	H 	0.89005 0.67359 0.52404 0.03700
H 	H 	0.92809 0.77722 0.52228 0.04300
C 	C 	0.82622 0.16465 0.44566 -0.01300
C 	C 	0.88287 0.18826 0.43559 -0.02800
C 	C 	0.90539 0.15490 0.43456 -0.04800
C 	C 	0.87140 0.09781 0.44365 0.02100
C 	C 	0.81404 0.07356 0.45266 -0.04800
C 	C 	0.79148 0.10689 0.45364 -0.02800
C 	C 	0.80591 0.20126 0.45103 0.04700
C 	C 	0.78853 0.23138 0.45680 -0.12100
C 	C 	0.89706 0.06581 0.44609 -0.01400
C 	C 	0.92026 0.04066 0.44853 -0.02800
H 	H 	0.91002 0.23285 0.42941 0.03800
H 	H 	0.94974 0.17391 0.42750 0.04200
H 	H 	0.78745 0.02944 0.45964 0.04200
H 	H 	0.74764 0.08832 0.46146 0.03500
C 	C 	0.34939 0.18145 0.46116 -0.01100
C 	C 	0.31246 0.11919 0.45356 -0.02800
C 	C 	0.25018 0.08716 0.45208 -0.04700
C 	C 	0.22462 0.11727 0.45820 0.02100
C 	C 	0.26153 0.17953 0.46572 -0.04700
C 	C 	0.32382 0.21157 0.46719 -0.02700
C 	C 	0.41347 0.21443 0.46266 0.04700
C 	C 	0.46715 0.24233 0.46388 -0.10900
C 	C 	0.16068 0.08423 0.45727 -0.01300
C 	C 	0.10709 0.05593 0.45660 -0.02800
H 	H 	0.33194 0.09563 0.44883 0.03700
H 	H 	0.22188 0.03901 0.44629 0.04200
H 	H 	0.24206 0.20308 0.47050 0.04300
H 	H 	0.35214 0.25972 0.47304 0.03900
C 	C 	0.85187 0.74621 0.99342 0.01800
C 	C 	0.86965 0.72695 0.02356 -0.04500
C 	C 	0.83976 0.66619 0.02277 -0.02500
C 	C 	0.79204 0.62450 0.99182 -0.01400
C 	C 	0.77384 0.64374 0.96190 -0.02700
C 	C 	0.80372 0.70450 0.96269 -0.04700
C 	C 	0.88497 0.80866 0.99299 -0.01200
C 	C 	0.91353 0.86097 0.99242 -0.03000
C 	C 	0.76188 0.56201 0.99067 0.04700
C 	C 	0.73628 0.50961 0.98962 -0.11000
H 	H 	0.90694 0.75898 0.04736 0.04300
H 	H 	0.85394 0.65160 0.04606 0.03700
H 	H 	0.73684 0.61171 0.93795 0.03900
H 	H 	0.78984 0.71910 0.93925 0.04300
C 	C 	0.81779 0.15076 0.00528 -0.01300
C 	C 	0.78987 0.09361 0.01374 -0.02700
C 	C 	0.82041 0.06792 0.01394 -0.04800
C 	C 	0.87896 0.09924 0.00565 0.02200
C 	C 	0.90754 0.15705 0.99832 -0.05100
C 	C 	0.87702 0.18276 0.99815 -0.03000
C 	C 	0.78397 0.17445 0.00056 0.05300
C 	C 	0.75569 0.19413 0.99543 -0.12800
C 	C 	0.90817 0.07074 0.00238 -0.00800
C 	C 	0.93161 0.04591 0.99921 -0.03400
H 	H 	0.74410 0.06859 0.01927 0.03900
H 	H 	0.79809 0.02326 0.01973 0.04300
H 	H 	0.95285 0.18160 0.99199 0.04100
H 	H 	0.89889 0.22697 0.99158 0.03500
C 	C 	0.21680 0.09441 0.96868 0.02100
C 	C 	0.23415 0.05799 0.95780 -0.04700
C 	C 	0.29478 0.08328 0.95662 -0.02800
C 	C 	0.33826 0.14508 0.96627 -0.01100
C 	C 	0.32061 0.18159 0.97599 -0.02800
C 	C 	0.25999 0.15629 0.97722 -0.04800
C 	C 	0.15560 0.06802 0.97366 -0.01300
C 	C 	0.10429 0.04449 0.97825 -0.02900
C 	C 	0.40140 0.17081 0.96912 0.04700
C 	C 	0.45467 0.19354 0.97260 -0.11200
H 	H 	0.20095 0.01009 0.95109 0.04200
H 	H 	0.30807 0.05478 0.94905 0.03800
H 	H 	0.35399 0.22943 0.98344 0.03700
H 	H 	0.24689 0.18472 0.98559 0.04200
