data_crystal

_cell_length_a 18.71240
_cell_length_b 18.82149
_cell_length_c 40.12869
_cell_angle_alpha 95.41654
_cell_angle_beta  95.41678
_cell_angle_gamma 126.47987

_symmetry_space_group_name_	'P 1'
_symmetry_space_group_name_H-M	'P 1'

loop_
_symmetry_equiv_pos_as_xyz
  x,y,z

loop_
_atom_site_label
_atom_site_type_symbol
_atom_site_fract_x
_atom_site_fract_y
_atom_site_fract_z
_atom_site_charge
C 	C 	0.90184 0.00217 0.96509 0.11000
C 	C 	0.99542 0.05867 0.96592 -0.08100
C 	C 	0.04385 0.02385 0.96708 0.10100
C 	C 	0.99910 0.93240 0.96725 -0.06800
C 	C 	0.90555 0.87490 0.96607 0.10900
C 	C 	0.85660 0.90982 0.96515 -0.08500
H 	H 	0.03069 0.12991 0.96623 0.07800
H 	H 	0.03719 0.90597 0.96846 0.08500
H 	H 	0.78432 0.86582 0.96464 0.09200
C 	C 	0.95502 0.03557 0.50393 0.13000
C 	C 	0.89796 0.94254 0.50312 -0.10800
C 	C 	0.93294 0.89433 0.50217 0.13400
C 	C 	0.02496 0.93875 0.50216 -0.10500
C 	C 	0.08282 0.03173 0.50334 0.12700
C 	C 	0.04785 0.08041 0.50412 -0.10300
H 	H 	0.82628 0.90758 0.50270 0.09100
H 	H 	0.05154 0.90088 0.50109 0.09600
H 	H 	0.09226 0.15231 0.50469 0.09500
Cu	Cu	0.74819 0.34376 0.96368 0.93100
Cu	Cu	0.73824 0.27642 0.03674 0.87700
Cu	Cu	0.60627 0.30106 0.00714 0.90400
Cu	Cu	0.58341 0.34222 0.93857 0.90100
C 	C 	0.68819 0.32044 0.89186 0.28900
O 	O 	0.80342 0.47554 0.96274 -0.35300
C 	C 	0.66475 0.33148 0.08223 0.28900
O 	O 	0.60782 0.27241 0.96009 -0.63800
O 	O 	0.73840 0.35986 0.01210 -0.63900
O 	O 	0.80608 0.28213 0.96731 -0.33600
O 	O 	0.70743 0.18831 0.99916 -0.43500
O 	O 	0.64954 0.35826 0.90010 -0.37500
O 	O 	0.47657 0.23574 0.99958 -0.34900
C 	C 	0.42753 0.23740 0.97416 0.34100
C 	C 	0.76420 0.51057 0.97354 0.33200
O 	O 	0.68065 0.45718 0.97827 -0.36800
O 	O 	0.46491 0.29233 0.95238 -0.38100
O 	O 	0.73378 0.30986 0.91546 -0.33500
C 	C 	0.76592 0.20680 0.97931 0.33400
O 	O 	0.60292 0.31322 0.05645 -0.35200
O 	O 	0.73620 0.33676 0.07707 -0.40500
H 	H 	0.56760 0.20733 0.95017 0.17500
H 	H 	0.77740 0.42277 0.02472 0.19400
Cu	Cu	0.61936 0.19609 0.50648 0.93200
Cu	Cu	0.68475 0.20494 0.43298 0.87900
Cu	Cu	0.66034 0.33674 0.46294 0.90400
Cu	Cu	0.62007 0.35933 0.53197 0.90700
C 	C 	0.64995 0.26043 0.57831 0.30700
O 	O 	0.48731 0.14039 0.50801 -0.35400
C 	C 	0.62795 0.27757 0.38789 0.31100
O 	O 	0.69022 0.33567 0.50996 -0.63600
O 	O 	0.60184 0.20548 0.45809 -0.63800
O 	O 	0.67990 0.13760 0.50228 -0.33600
O 	O 	0.77402 0.23490 0.47018 -0.43300
O 	O 	0.60817 0.29538 0.57061 -0.36600
O 	O 	0.72506 0.46559 0.47048 -0.37400
C 	C 	0.72403 0.51392 0.49630 0.34300
C 	C 	0.45108 0.17840 0.49725 0.33400
O 	O 	0.50376 0.26165 0.49265 -0.36900
O 	O 	0.66769 0.47599 0.51765 -0.35400
O 	O 	0.65470 0.21034 0.55463 -0.32900
C 	C 	0.75531 0.17694 0.49014 0.33600
O 	O 	0.64820 0.33996 0.41362 -0.36400
O 	O 	0.62321 0.20684 0.39286 -0.40300
H 	H 	0.75579 0.37593 0.51970 0.18300
H 	H 	0.53833 0.16641 0.44571 0.19500
C 	C 	0.69813 0.30929 0.85608 -0.06700
C 	C 	0.70801 0.37044 0.83579 0.01800
C 	C 	0.71307 0.35785 0.80147 -0.05500
C 	C 	0.70854 0.28415 0.78700 0.03100
C 	C 	0.70048 0.22386 0.80737 -0.05200
C 	C 	0.69563 0.23656 0.84182 0.01800
C 	C 	0.70788 0.26808 0.75017 0.01000
C 	C 	0.62947 0.19323 0.72834 -0.03200
C 	C 	0.62279 0.18615 0.69298 -0.02400
C 	C 	0.69444 0.25373 0.67919 0.00700
C 	C 	0.77471 0.32590 0.70093 -0.02400
C 	C 	0.78153 0.33299 0.73630 -0.03200
C 	C 	0.68135 0.25480 0.64328 0.05900
C 	C 	0.66835 0.25684 0.61345 -0.07100
H 	H 	0.71158 0.42769 0.84659 0.05200
H 	H 	0.71916 0.40468 0.78597 0.06100
H 	H 	0.69716 0.16685 0.79645 0.06400
H 	H 	0.68830 0.18906 0.85722 0.06500
H 	H 	0.57233 0.14259 0.73875 0.05300
H 	H 	0.56063 0.12993 0.67635 0.05800
H 	H 	0.83058 0.37819 0.69048 0.05700
H 	H 	0.84271 0.39059 0.75291 0.05600
C 	C 	0.65171 0.34268 0.11762 -0.07000
C 	C 	0.56400 0.29784 0.12481 0.01500
C 	C 	0.55108 0.29718 0.15861 -0.05300
C 	C 	0.62562 0.34129 0.18554 0.02900
C 	C 	0.71345 0.39010 0.17841 -0.05700
C 	C 	0.72647 0.39112 0.14466 0.01700
C 	C 	0.61157 0.32995 0.22091 0.00900
C 	C 	0.65254 0.40560 0.24691 -0.03400
C 	C 	0.64864 0.39535 0.28095 -0.02600
C 	C 	0.60339 0.30947 0.28921 0.00100
C 	C 	0.55924 0.23364 0.26318 -0.02600
C 	C 	0.56334 0.24376 0.22916 -0.03500
C 	C 	0.60993 0.29973 0.32437 0.05600
C 	C 	0.61709 0.29031 0.35354 -0.09000
H 	H 	0.50566 0.26073 0.10427 0.06700
H 	H 	0.48304 0.26030 0.16384 0.06000
H 	H 	0.77151 0.42485 0.19899 0.05600
H 	H 	0.79460 0.42767 0.13956 0.04600
H 	H 	0.68923 0.47236 0.24082 0.05400
H 	H 	0.68278 0.45432 0.30092 0.05600
H 	H 	0.52406 0.16703 0.26935 0.05100
H 	H 	0.53156 0.18491 0.20935 0.04900
C 	C 	0.86799 0.76300 0.53090 -0.12400
C 	C 	0.87319 0.79690 0.50087 -0.06300
C 	C 	0.82812 0.73771 0.46935 0.30800
C 	C 	0.77944 0.64519 0.46787 -0.06900
C 	C 	0.77537 0.61120 0.49788 -0.13700
C 	C 	0.81938 0.67054 0.52948 0.35800
F 	F 	0.81708 0.63874 0.55867 -0.44400
H 	H 	0.90331 0.80856 0.55528 0.11300
H 	H 	0.74470 0.59990 0.44343 0.10100
F 	F 	0.83298 0.77010 0.44014 -0.42800
C 	C 	0.85734 0.14608 0.46902 -0.07100
C 	C 	0.81281 0.14761 0.49510 -0.14400
C 	C 	0.82340 0.12093 0.52559 0.36000
C 	C 	0.87484 0.08957 0.52928 -0.12600
C 	C 	0.91609 0.08453 0.50260 -0.06000
C 	C 	0.90858 0.11466 0.47273 0.30600
F 	F 	0.94758 0.10968 0.44665 -0.43000
H 	H 	0.85021 0.16694 0.44547 0.07800
H 	H 	0.88069 0.06690 0.55251 0.10700
F 	F 	0.78422 0.12560 0.55166 -0.43200
C 	C 	0.21486 0.10893 0.47399 -0.12500
C 	C 	0.17970 0.07717 0.50314 -0.05900
C 	C 	0.23327 0.07628 0.52987 0.30400
C 	C 	0.32022 0.10482 0.52707 -0.07100
C 	C 	0.35524 0.13612 0.49785 -0.14000
C 	C 	0.30228 0.13846 0.47135 0.35700
F 	F 	0.33535 0.16879 0.44295 -0.44200
H 	H 	0.17364 0.10870 0.45305 0.11700
H 	H 	0.36127 0.10479 0.54800 0.09800
F 	F 	0.20047 0.04661 0.55839 -0.43400
C 	C 	0.82988 0.74424 0.99590 -0.12900
C 	C 	0.85990 0.77847 0.96642 -0.05100
C 	C 	0.86058 0.72499 0.93968 0.30100
C 	C 	0.83395 0.63933 0.94285 -0.07000
C 	C 	0.80483 0.60544 0.97248 -0.14100
C 	C 	0.80228 0.65810 0.99893 0.35800
F 	F 	0.77370 0.62606 0.02766 -0.44200
H 	H 	0.83026 0.78532 0.01685 0.11400
H 	H 	0.83385 0.59842 0.92192 0.09500
F 	F 	0.88859 0.75680 0.91086 -0.42300
C 	C 	0.84914 0.08339 0.93974 -0.12900
C 	C 	0.85295 0.04145 0.96633 -0.05400
C 	C 	0.82390 0.05044 0.99635 0.30100
C 	C 	0.79501 0.10379 0.00032 -0.07200
C 	C 	0.79473 0.14890 0.97433 -0.14500
C 	C 	0.82025 0.13694 0.94369 0.36000
F 	F 	0.81672 0.17665 0.91770 -0.43700
H 	H 	0.87116 0.07665 0.91643 0.11300
H 	H 	0.77491 0.11186 0.02398 0.07500
F 	F 	0.82775 0.01095 0.02236 -0.43800
C 	C 	0.27070 0.14015 0.94075 -0.06900
C 	C 	0.32947 0.18493 0.97245 -0.14000
C 	C 	0.29405 0.18024 0.00225 0.36100
C 	C 	0.20059 0.12951 0.00029 -0.13400
C 	C 	0.14200 0.08340 0.96866 -0.05200
C 	C 	0.17731 0.08943 0.93885 0.30400
F 	F 	0.12095 0.04501 0.90812 -0.42300
H 	H 	0.29741 0.14369 0.91763 0.08900
H 	H 	0.17355 0.12519 0.02337 0.10600
F 	F 	0.35015 0.22585 0.03297 -0.43700
