data_crystal

_cell_length_a 26.12904
_cell_length_b 26.49224
_cell_length_c 26.60454
_cell_angle_alpha 95.48094
_cell_angle_beta  95.47969
_cell_angle_gamma 125.85697

_symmetry_space_group_name_	'P 1'
_symmetry_space_group_name_H-M	'P 1'

loop_
_symmetry_equiv_pos_as_xyz
  x,y,z

loop_
_atom_site_label
_atom_site_type_symbol
_atom_site_fract_x
_atom_site_fract_y
_atom_site_fract_z
_atom_site_charge
C 	C 	0.99783 0.06095 0.97167 -0.02600
C 	C 	0.95452 0.99464 0.96336 0.09100
C 	C 	0.97719 0.95807 0.96068 0.01900
C 	C 	0.04333 0.98790 0.96644 0.09900
C 	C 	0.08686 0.05416 0.97461 -0.01600
C 	C 	0.06416 0.09076 0.97838 0.05200
H 	H 	0.90338 0.97161 0.95985 0.11700
H 	H 	0.06101 0.95967 0.96554 0.11900
H 	H 	0.09785 0.14209 0.98660 0.11700
C 	C 	0.91404 0.97777 0.45426 0.30700
C 	C 	0.87698 0.91153 0.44896 -0.11600
C 	C 	0.90732 0.88231 0.45504 0.17400
C 	C 	0.97460 0.91917 0.46409 -0.13100
C 	C 	0.01152 0.98480 0.46640 0.32300
C 	C 	0.98131 0.01427 0.46281 -0.27300
H 	H 	0.82496 0.88298 0.44024 0.17500
H 	H 	0.99810 0.89656 0.46785 0.17300
H 	H 	0.00998 0.06527 0.46568 0.19500
Cu	Cu	0.68414 0.28967 0.02054 0.94600
Cu	Cu	0.68515 0.24049 0.90054 0.90800
Cu	Cu	0.71099 0.37389 0.94123 0.91900
Cu	Cu	0.68008 0.40789 0.04403 0.95100
C 	C 	0.69498 0.34262 0.12323 0.34500
O 	O 	0.59108 0.24390 0.02754 -0.28000
C 	C 	0.68115 0.31578 0.83203 0.33500
O 	O 	0.72625 0.38383 0.01406 -0.63200
O 	O 	0.66107 0.28150 0.94530 -0.63100
O 	O 	0.74207 0.26347 0.02303 -0.28600
O 	O 	0.68969 0.19269 0.94712 -0.33400
O 	O 	0.70214 0.39432 0.11321 -0.28400
O 	O 	0.75707 0.46376 0.94386 -0.29100
C 	C 	0.74637 0.49828 0.97359 0.29800
C 	C 	0.56052 0.26849 0.01826 0.29200
O 	O 	0.58934 0.32235 0.00173 -0.30300
O 	O 	0.69847 0.47138 0.99922 -0.30400
O 	O 	0.71232 0.31421 0.09352 -0.29300
C 	C 	0.73496 0.22003 0.98825 0.29500
O 	O 	0.71737 0.36724 0.86817 -0.31700
O 	O 	0.65192 0.25879 0.84331 -0.36900
H 	H 	0.77278 0.41285 0.02892 0.23100
H 	H 	0.61462 0.26075 0.93459 0.19100
Cu	Cu	0.70346 0.30783 0.42700 0.94300
Cu	Cu	0.73163 0.28353 0.54151 0.90900
Cu	Cu	0.61896 0.28243 0.50753 0.91400
Cu	Cu	0.57000 0.28665 0.40086 0.93800
C 	C 	0.64547 0.28717 0.32386 0.35000
O 	O 	0.73391 0.39588 0.41847 -0.28400
C 	C 	0.68105 0.31695 0.61678 0.33000
O 	O 	0.60625 0.25268 0.43576 -0.63400
O 	O 	0.71162 0.32947 0.50199 -0.62700
O 	O 	0.75491 0.27448 0.42629 -0.26800
O 	O 	0.70902 0.21737 0.48814 -0.38700
O 	O 	0.58898 0.27035 0.33267 -0.30300
O 	O 	0.52812 0.23014 0.50924 -0.30400
C 	C 	0.48403 0.22678 0.47713 0.29700
C 	C 	0.70143 0.41773 0.42883 0.29800
O 	O 	0.64625 0.38151 0.44374 -0.30000
O 	O 	0.49893 0.26014 0.43997 -0.28200
O 	O 	0.68045 0.27749 0.35452 -0.31200
C 	C 	0.74295 0.22964 0.45170 0.29800
O 	O 	0.63344 0.30578 0.58283 -0.29800
O 	O 	0.73353 0.32862 0.60281 -0.36500
H 	H 	0.58151 0.20608 0.42617 0.19800
H 	H 	0.73748 0.37541 0.51620 0.21300
C 	C 	0.73446 0.36903 0.70808 -0.07200
C 	C 	0.67836 0.32318 0.67194 -0.09600
C 	C 	0.62146 0.27908 0.68903 0.35900
C 	C 	0.62182 0.27867 0.74159 -0.07100
C 	C 	0.67884 0.32226 0.77757 -0.10500
C 	C 	0.73487 0.36860 0.76062 0.36100
F 	F 	0.79050 0.41118 0.79480 -0.38400
H 	H 	0.77830 0.40394 0.69539 0.14300
H 	H 	0.57814 0.24341 0.75428 0.13700
F 	F 	0.56666 0.23460 0.65463 -0.38700
C 	C 	0.72415 0.37453 0.21856 -0.05900
C 	C 	0.68471 0.32739 0.17469 -0.07200
C 	C 	0.63393 0.26615 0.18011 0.37700
C 	C 	0.62179 0.25271 0.22903 -0.05500
C 	C 	0.66075 0.30008 0.27283 -0.08500
C 	C 	0.71248 0.36086 0.26749 0.38300
F 	F 	0.75046 0.40707 0.30963 -0.37200
H 	H 	0.76368 0.42179 0.21474 0.16100
H 	H 	0.58182 0.20568 0.23288 0.14600
F 	F 	0.59530 0.22021 0.13793 -0.37300
C 	C 	0.81185 0.71466 0.48180 0.05400
C 	C 	0.81317 0.68244 0.43758 0.09000
C 	C 	0.83942 0.71454 0.39674 -0.07300
C 	C 	0.86548 0.77906 0.40198 0.05700
C 	C 	0.86898 0.81252 0.44796 0.05100
C 	C 	0.84193 0.78017 0.48849 -0.06800
C 	C 	0.78600 0.61467 0.43422 0.10500
C 	C 	0.83731 0.67962 0.34683 0.78500
H 	H 	0.88483 0.80406 0.37082 0.13700
C 	C 	0.84135 0.81431 0.53744 0.78400
H 	H 	0.78834 0.68864 0.51143 0.13700
C 	C 	0.82157 0.59644 0.45931 -0.09200
C 	C 	0.79235 0.53159 0.45776 0.08700
C 	C 	0.73040 0.48515 0.42914 0.02000
C 	C 	0.69676 0.50355 0.40119 -0.04500
C 	C 	0.72332 0.56818 0.40702 0.04000
C 	C 	0.88891 0.64582 0.49048 0.79000
H 	H 	0.81745 0.51703 0.47932 0.10400
C 	C 	0.63223 0.45466 0.36589 0.77600
H 	H 	0.69565 0.58261 0.38969 0.14200
F 	F 	0.82218 0.77725 0.57495 -0.34700
F 	F 	0.79887 0.82858 0.52665 -0.35600
F 	F 	0.90205 0.86968 0.55741 -0.35500
F 	F 	0.77460 0.63839 0.32030 -0.37800
F 	F 	0.86074 0.64567 0.35673 -0.36200
F 	F 	0.87420 0.72110 0.31553 -0.35400
F 	F 	0.58477 0.42496 0.39496 -0.39700
F 	F 	0.63381 0.40984 0.33636 -0.41700
F 	F 	0.61642 0.48259 0.33257 -0.36000
F 	F 	0.91950 0.61903 0.50326 -0.36900
F 	F 	0.88534 0.67353 0.53542 -0.38400
F 	F 	0.92630 0.69225 0.46279 -0.36400
C 	C 	0.85031 0.17903 0.43469 0.04400
C 	C 	0.80559 0.11305 0.42881 0.08400
C 	C 	0.73924 0.08504 0.42444 -0.07100
C 	C 	0.71960 0.12439 0.42892 0.06400
C 	C 	0.76469 0.19062 0.43780 0.01200
C 	C 	0.83084 0.21849 0.43998 -0.06200
C 	C 	0.82967 0.07477 0.43385 0.10200
C 	C 	0.68995 0.01391 0.42034 0.66600
H 	H 	0.66927 0.10364 0.42772 0.09600
C 	C 	0.88073 0.29006 0.44814 0.78100
H 	H 	0.90077 0.19963 0.43723 0.13800
C 	C 	0.84661 0.05452 0.39152 -0.10100
C 	C 	0.87262 0.02134 0.39895 0.09000
C 	C 	0.88244 0.00881 0.44755 -0.05000
C 	C 	0.86641 0.02990 0.48996 -0.04100
C 	C 	0.83962 0.06230 0.48243 0.02400
C 	C 	0.84238 0.07294 0.33971 0.79200
H 	H 	0.88698 0.00661 0.36723 0.10700
C 	C 	0.87912 0.01909 0.54335 0.72800
H 	H 	0.82735 0.07896 0.51454 0.12800
F 	F 	0.87102 0.31206 0.40588 -0.37500
F 	F 	0.94274 0.30772 0.45443 -0.37300
F 	F 	0.87603 0.31900 0.49171 -0.42500
F 	F 	0.69382 0.99805 0.46785 -0.33100
F 	F 	0.70070 0.98080 0.38504 -0.30400
F 	F 	0.62807 0.99477 0.40455 -0.31600
F 	F 	0.86066 0.04360 0.57954 -0.37000
F 	F 	0.94403 0.04810 0.55850 -0.39100
F 	F 	0.84504 0.95486 0.54293 -0.31000
F 	F 	0.84965 0.03933 0.30164 -0.37100
F 	F 	0.89046 0.13686 0.34312 -0.38300
F 	F 	0.78339 0.06073 0.32482 -0.37200
C 	C 	0.17916 0.06790 0.43616 0.02500
C 	C 	0.21608 0.08818 0.48561 0.10300
C 	C 	0.18615 0.07725 0.52917 -0.10000
C 	C 	0.11928 0.04539 0.52191 0.09500
C 	C 	0.08208 0.02265 0.47234 -0.05100
C 	C 	0.11205 0.03402 0.42887 -0.04000
C 	C 	0.28656 0.12294 0.49120 0.08400
C 	C 	0.22563 0.10262 0.58335 0.79100
H 	H 	0.09580 0.03777 0.55480 0.11800
C 	C 	0.07258 0.01023 0.37481 0.72900
H 	H 	0.20301 0.07827 0.40338 0.13400
C 	C 	0.31346 0.09041 0.48091 -0.06800
C 	C 	0.37896 0.12559 0.47773 0.06300
C 	C 	0.41820 0.19199 0.48742 0.02300
C 	C 	0.39278 0.22429 0.50336 -0.05300
C 	C 	0.32635 0.18941 0.50216 0.04700
C 	C 	0.27160 0.01841 0.46880 0.66600
H 	H 	0.39906 0.10134 0.46596 0.09500
C 	C 	0.43560 0.29598 0.51937 0.77900
H 	H 	0.30520 0.21389 0.50893 0.13900
F 	F 	0.02794 0.94497 0.36611 -0.34600
F 	F 	0.11060 0.02550 0.33772 -0.37100
F 	F 	0.04086 0.03721 0.36902 -0.40200
F 	F 	0.25956 0.16775 0.59445 -0.38100
F 	F 	0.26836 0.08778 0.58799 -0.37300
F 	F 	0.18696 0.07700 0.61957 -0.36200
F 	F 	0.44835 0.32335 0.47610 -0.37600
F 	F 	0.49293 0.31726 0.55001 -0.39100
F 	F 	0.40631 0.31579 0.54730 -0.36100
F 	F 	0.30847 0.99661 0.47307 -0.31300
F 	F 	0.23722 0.99697 0.41908 -0.32500
F 	F 	0.22918 0.99270 0.50240 -0.30400
C 	C 	0.87047 0.67492 0.98237 0.04200
C 	C 	0.83229 0.69100 0.95995 0.10300
C 	C 	0.76633 0.64303 0.93925 -0.09000
C 	C 	0.73967 0.57985 0.94300 0.08500
C 	C 	0.77712 0.56438 0.96801 0.02200
C 	C 	0.84306 0.61224 0.98833 -0.05900
C 	C 	0.86212 0.75848 0.95856 0.07600
C 	C 	0.72524 0.65851 0.91080 0.79000
H 	H 	0.68964 0.54238 0.92649 0.11200
C 	C 	0.88427 0.59642 0.01587 0.79300
H 	H 	0.92138 0.71178 0.99613 0.13600
C 	C 	0.87348 0.80061 0.00274 -0.05900
C 	C 	0.91014 0.86585 0.00214 0.04100
C 	C 	0.93226 0.88893 0.95765 0.09500
C 	C 	0.91554 0.84613 0.91209 -0.08800
C 	C 	0.88361 0.78160 0.91389 0.06300
C 	C 	0.85155 0.77709 0.05196 0.78200
H 	H 	0.92336 0.89915 0.03680 0.12600
C 	C 	0.93454 0.86941 0.86228 0.78800
H 	H 	0.87606 0.74926 0.88075 0.13600
F 	F 	0.94504 0.65046 0.03816 -0.36000
F 	F 	0.89089 0.55917 0.98118 -0.40100
F 	F 	0.85577 0.56387 0.05446 -0.40600
F 	F 	0.74475 0.67498 0.86477 -0.38000
F 	F 	0.73106 0.70832 0.93995 -0.36100
F 	F 	0.66078 0.60725 0.90017 -0.36800
F 	F 	0.89963 0.81993 0.82041 -0.34400
F 	F 	0.99914 0.89742 0.86424 -0.35600
F 	F 	0.92301 0.91311 0.85463 -0.33200
F 	F 	0.85399 0.82193 0.08569 -0.35500
F 	F 	0.89114 0.76441 0.07590 -0.37400
F 	F 	0.78882 0.72259 0.04157 -0.35800
C 	C 	0.80340 0.12866 0.00268 0.04100
C 	C 	0.86620 0.17273 0.99477 0.09700
C 	C 	0.88721 0.23416 0.98799 -0.09700
C 	C 	0.84343 0.24884 0.98679 0.07900
C 	C 	0.78055 0.20451 0.99421 -0.00600
C 	C 	0.76108 0.14492 0.00470 -0.04000
C 	C 	0.90775 0.15224 0.98967 0.07200
C 	C 	0.95423 0.28219 0.97759 0.78300
H 	H 	0.85762 0.29424 0.97859 0.08500
C 	C 	0.69447 0.09767 0.01598 0.78200
H 	H 	0.78741 0.08139 0.00662 0.13300
C 	C 	0.93978 0.14835 0.03354 -0.06300
C 	C 	0.97148 0.12057 0.02669 0.03000
C 	C 	0.97373 0.09915 0.97728 0.09700
C 	C 	0.94645 0.10806 0.93365 -0.09900
C 	C 	0.91134 0.13212 0.94032 0.06100
C 	C 	0.93534 0.16822 0.08751 0.78200
H 	H 	0.99229 0.11317 0.05977 0.11300
C 	C 	0.95104 0.08814 0.87983 0.78200
H 	H 	0.88561 0.13415 0.90708 0.12400
F 	F 	0.68052 0.12741 0.05167 -0.38100
F 	F 	0.68983 0.04897 0.03583 -0.36900
F 	F 	0.64937 0.07173 0.97111 -0.39800
F 	F 	0.95669 0.26556 0.92751 -0.39300
F 	F 	0.99993 0.28443 0.01073 -0.35700
F 	F 	0.97015 0.34260 0.98428 -0.37600
F 	F 	0.90948 0.02281 0.86585 -0.38200
F 	F 	0.01307 0.10864 0.87804 -0.34400
F 	F 	0.93499 0.11382 0.84423 -0.36300
F 	F 	0.98145 0.17505 0.12406 -0.36800
F 	F 	0.87535 0.12257 0.09752 -0.38300
F 	F 	0.94479 0.22571 0.09268 -0.36000
C 	C 	0.25849 0.13782 0.95340 0.06700
C 	C 	0.28763 0.13580 0.99945 0.06100
C 	C 	0.25107 0.10838 0.03803 -0.06000
C 	C 	0.18645 0.08569 0.03011 0.02800
C 	C 	0.15660 0.08503 0.98312 0.09800
C 	C 	0.19238 0.10971 0.94365 -0.09700
C 	C 	0.35753 0.16631 0.00815 0.12600
C 	C 	0.28156 0.10662 0.08882 0.77800
H 	H 	0.15879 0.06757 0.06028 0.11200
C 	C 	0.16103 0.10884 0.89210 0.79000
H 	H 	0.28756 0.16124 0.92512 0.12800
C 	C 	0.38213 0.13658 0.98425 -0.10800
C 	C 	0.44909 0.17061 0.98861 0.07800
C 	C 	0.49127 0.23136 0.01913 0.02400
C 	C 	0.46648 0.25788 0.04741 -0.05200
C 	C 	0.39990 0.22699 0.03865 0.03300
C 	C 	0.33743 0.07075 0.95099 0.79300
H 	H 	0.46848 0.15066 0.96711 0.10000
C 	C 	0.51072 0.31964 0.08603 0.77700
H 	H 	0.38076 0.24999 0.05574 0.14100
F 	F 	0.20091 0.12488 0.85637 -0.35600
F 	F 	0.14740 0.15196 0.89826 -0.36600
F 	F 	0.10472 0.04899 0.87242 -0.35700
F 	F 	0.31891 0.16635 0.11937 -0.38600
F 	F 	0.31957 0.08721 0.08085 -0.37000
F 	F 	0.23531 0.06475 0.11506 -0.37800
F 	F 	0.53869 0.37012 0.06042 -0.41700
F 	F 	0.55830 0.32070 0.11501 -0.42100
F 	F 	0.47725 0.32699 0.11964 -0.36400
F 	F 	0.36951 0.04473 0.94210 -0.38100
F 	F 	0.31304 0.07441 0.90417 -0.39300
F 	F 	0.28708 0.03019 0.97466 -0.37700
