data_crystal

_cell_length_a 26.02344
_cell_length_b 26.50057
_cell_length_c 45.19881
_cell_angle_alpha 95.48753
_cell_angle_beta  95.48623
_cell_angle_gamma 125.83069

_symmetry_space_group_name_	'P 1'
_symmetry_space_group_name_H-M	'P 1'

loop_
_symmetry_equiv_pos_as_xyz
  x,y,z

loop_
_atom_site_label
_atom_site_type_symbol
_atom_site_fract_x
_atom_site_fract_y
_atom_site_fract_z
_atom_site_charge
C 	C 	0.96800 0.03052 0.98998 0.11500
N 	N 	0.03026 0.06162 0.98628 -0.14200
C 	C 	0.05568 0.02947 0.98240 0.11500
N 	N 	0.99450 0.02938 0.47108 -0.14300
C 	C 	0.89680 0.11034 0.49170 -0.04700
C 	C 	0.84210 0.08746 0.46996 0.00700
C 	C 	0.81309 0.03026 0.44963 -0.04800
C 	C 	0.89600 0.02150 0.47153 -0.02500
C 	C 	0.92363 0.07760 0.49247 -0.02000
C 	C 	0.81540 0.12357 0.46855 0.02300
H 	H 	0.77055 0.01195 0.43289 0.04200
H 	H 	0.96653 0.09636 0.50905 0.03700
C 	C 	0.85370 0.18597 0.46336 -0.06600
H 	H 	0.90119 0.20623 0.45815 0.04600
C 	C 	0.20372 0.13949 0.49149 -0.04500
C 	C 	0.23045 0.11636 0.47438 0.00600
C 	C 	0.18985 0.05708 0.45504 -0.04500
C 	C 	0.12312 0.02067 0.45319 -0.02300
C 	C 	0.09628 0.04322 0.47067 -0.02100
C 	C 	0.13688 0.10310 0.48963 -0.02100
C 	C 	0.30091 0.15397 0.47681 0.02500
H 	H 	0.21007 0.03920 0.44150 0.04000
H 	H 	0.11681 0.12091 0.50333 0.03900
C 	C 	0.40014 0.16458 0.48866 0.01400
C 	C 	0.33377 0.13038 0.48771 -0.06600
H 	H 	0.42478 0.14540 0.49669 0.03100
H 	H 	0.30775 0.08532 0.49521 0.04600
C 	C 	0.84350 0.15090 0.00148 0.02500
C 	C 	0.77602 0.11055 0.99829 -0.06700
C 	C 	0.74118 0.13538 0.99702 0.01400
C 	C 	0.87972 0.12410 0.00014 0.00500
H 	H 	0.75046 0.05982 0.99600 0.04500
H 	H 	0.68900 0.10357 0.99373 0.03000
C 	C 	0.91802 0.13613 0.97803 -0.04600
C 	C 	0.94859 0.10713 0.97534 -0.02200
C 	C 	0.94055 0.06530 0.99449 -0.02100
C 	C 	0.90351 0.05442 0.01706 -0.02100
C 	C 	0.87353 0.08396 0.01998 -0.04500
H 	H 	0.97700 0.11579 0.95782 0.03900
H 	H 	0.84479 0.07499 0.03737 0.04100
C 	C 	0.20882 0.06178 0.96243 -0.04500
C 	C 	0.25552 0.12289 0.97935 0.00600
C 	C 	0.23622 0.15517 0.99545 -0.04500
C 	C 	0.17077 0.12560 0.99560 -0.02200
C 	C 	0.12404 0.06342 0.97960 -0.02000
C 	C 	0.14339 0.03223 0.96247 -0.02400
C 	C 	0.32457 0.15120 0.98195 0.02400
H 	H 	0.15664 0.15028 0.00891 0.04100
H 	H 	0.22331 0.03676 0.94971 0.04000
H 	H 	0.34516 0.22467 0.95696 0.04500
H 	H 	0.86270 0.27184 0.46285 0.03500
H 	H 	0.91886 0.15382 0.50784 0.03900
C 	C 	0.75358 0.09755 0.47475 -0.06700
C 	C 	0.83172 0.22310 0.46590 0.01300
H 	H 	0.23475 0.18527 0.50647 0.04100
C 	C 	0.77342 0.20070 0.99856 -0.09700
H 	H 	0.27202 0.20246 0.00853 0.04100
C 	C 	0.35050 0.12557 0.99778 -0.06500
C 	C 	0.36494 0.20494 0.96947 -0.06500
H 	H 	0.31958 0.08400 0.00746 0.04700
H 	H 	0.72342 0.04929 0.47856 0.04400
C 	C 	0.87596 0.21652 0.00439 -0.06800
C 	C 	0.43111 0.23373 0.97336 0.01000
H 	H 	0.92294 0.16684 0.96253 0.03800
H 	H 	0.46181 0.27538 0.96370 0.03200
C 	C 	0.33507 0.21247 0.46730 -0.06600
C 	C 	0.41661 0.15436 0.00178 0.01200
O 	O 	0.68148 0.20064 0.00260 -0.37300
O 	O 	0.71179 0.22621 0.49954 -0.44200
C 	C 	0.77115 0.19814 0.47367 -0.09400
C 	C 	0.45756 0.20925 0.99000 -0.08800
C 	C 	0.43431 0.22279 0.47876 -0.08800
C 	C 	0.73145 0.13453 0.47721 0.01100
O 	O 	0.55206 0.21473 0.00726 -0.36300
H 	H 	0.92810 0.24819 0.00735 0.04500
H 	H 	0.53982 0.26377 0.74846 0.04000
C 	C 	0.84106 0.24128 0.00280 0.01500
H 	H 	0.54422 0.25945 0.80291 0.03800
H 	H 	0.63875 0.18048 0.15120 0.04100
H 	H 	0.64350 0.17475 0.20553 0.04100
H 	H 	0.62701 0.24304 0.66108 0.03500
H 	H 	0.43612 0.13481 0.01465 0.03900
C 	C 	0.73638 0.22580 0.99316 0.29100
H 	H 	0.59028 0.22927 0.95210 0.17400
H 	H 	0.31006 0.23102 0.45886 0.04600
H 	H 	0.60435 0.23684 0.45572 0.16400
C 	C 	0.75161 0.23965 0.48070 0.28700
H 	H 	0.68405 0.11416 0.48255 0.02800
C 	C 	0.52817 0.24299 0.99659 0.28100
C 	C 	0.40146 0.24678 0.46828 0.01400
O 	O 	0.53958 0.25436 0.50034 -0.38200
C 	C 	0.66605 0.22380 0.16800 -0.03000
C 	C 	0.66860 0.22054 0.19876 -0.04300
H 	H 	0.61772 0.24708 0.71491 0.03900
Cu	Cu	0.64477 0.24845 0.00658 0.92800
O 	O 	0.65850 0.26293 0.90654 -0.42300
C 	C 	0.50405 0.25807 0.47901 0.29000
Cu	Cu	0.69691 0.25705 0.94296 0.86700
O 	O 	0.63495 0.25639 0.96383 -0.64300
H 	H 	0.59353 0.22000 0.24500 0.04100
H 	H 	0.58734 0.22519 0.29924 0.03700
C 	C 	0.58671 0.29650 0.79523 -0.03100
C 	C 	0.58426 0.29885 0.76439 -0.04400
O 	O 	0.66841 0.25624 0.04912 -0.36300
C 	C 	0.63723 0.24335 0.26179 -0.04300
C 	C 	0.63373 0.24638 0.29252 -0.03100
H 	H 	0.89762 0.02279 0.03220 0.03900
O 	O 	0.75539 0.26962 0.97657 -0.44200
C 	C 	0.02621 0.00315 0.46993 0.11800
O 	O 	0.63258 0.28261 0.46467 -0.64100
Cu	Cu	0.73282 0.28920 0.53245 0.87000
O 	O 	0.77731 0.29222 0.46987 -0.37300
C 	C 	0.69732 0.27264 0.25283 0.00900
C 	C 	0.69022 0.27874 0.31448 -0.00800
C 	C 	0.70172 0.27624 0.22069 0.00900
C 	C 	0.62931 0.28665 0.70430 -0.04400
C 	C 	0.63479 0.28445 0.67384 -0.03100
C 	C 	0.69667 0.28271 0.15899 -0.00800
C 	C 	0.68751 0.28917 0.34597 0.04500
C 	C 	0.68638 0.28570 0.12753 0.04500
H 	H 	0.42730 0.29201 0.46095 0.03300
C 	C 	0.67806 0.28874 0.10125 -0.10500
H 	H 	0.86653 0.29188 0.00443 0.02800
C 	C 	0.68535 0.29796 0.37234 -0.10400
C 	C 	0.66625 0.29263 0.07020 0.30700
O 	O 	0.53032 0.29818 0.46021 -0.39600
O 	O 	0.56723 0.30309 0.99455 -0.39700
Cu	Cu	0.63236 0.30161 0.50660 0.89700
O 	O 	0.72094 0.30814 0.42424 -0.36300
C 	C 	0.75356 0.30275 0.27484 -0.04300
C 	C 	0.74999 0.30581 0.30557 -0.03000
O 	O 	0.63049 0.30646 0.55037 -0.38700
C 	C 	0.68322 0.31054 0.40361 0.30600
C 	C 	0.66101 0.31292 0.90261 0.30400
H 	H 	0.10781 0.98474 0.94955 0.04100
C 	C 	0.83988 0.99732 0.45045 -0.01700
N 	N 	0.01852 0.96614 0.98204 -0.14000
C 	C 	0.95611 0.93478 0.98543 0.11700
N 	N 	0.93101 0.96714 0.98947 -0.14000
C 	C 	0.92964 0.99220 0.46978 0.12000
N 	N 	0.89634 0.92833 0.46724 -0.14100
C 	C 	0.92823 0.90204 0.46625 0.11700
N 	N 	0.99307 0.93967 0.46771 -0.14100
Cu	Cu	0.67656 0.34886 0.96869 0.89500
Cu	Cu	0.65120 0.36772 0.03004 0.89400
O 	O 	0.69895 0.34733 0.01017 -0.64100
O 	O 	0.63799 0.31927 0.06340 -0.38700
O 	O 	0.72318 0.43978 0.97500 -0.38700
C 	C 	0.71838 0.47469 0.99582 0.29400
O 	O 	0.69446 0.45418 0.02028 -0.39500
O 	O 	0.66151 0.34900 0.92519 -0.38400
H 	H 	0.74586 0.37419 0.01842 0.16500
Cu	Cu	0.73263 0.33287 0.46700 0.92700
Cu	Cu	0.61330 0.33161 0.44608 0.89400
O 	O 	0.77124 0.42497 0.46555 -0.36100
C 	C 	0.67833 0.32607 0.57286 0.30700
O 	O 	0.72716 0.34496 0.51015 -0.64100
O 	O 	0.65687 0.33901 0.41083 -0.38800
C 	C 	0.74404 0.45070 0.47540 0.28400
O 	O 	0.68492 0.41419 0.48030 -0.39300
O 	O 	0.73054 0.33191 0.56810 -0.42300
H 	H 	0.75400 0.38957 0.52091 0.17300
C 	C 	0.65164 0.33606 0.66008 -0.01000
C 	C 	0.64050 0.34051 0.72125 0.00900
C 	C 	0.65596 0.39166 0.70726 -0.04400
C 	C 	0.66155 0.38942 0.67674 -0.03100
C 	C 	0.63988 0.34470 0.75400 0.00800
C 	C 	0.64463 0.34008 0.81588 -0.01000
C 	C 	0.69917 0.38815 0.80578 -0.03200
C 	C 	0.69686 0.39047 0.77493 -0.04400
C 	C 	0.65010 0.33106 0.84663 0.04400
C 	C 	0.65463 0.32346 0.87236 -0.11100
C 	C 	0.66145 0.33510 0.62926 0.04500
C 	C 	0.66911 0.33208 0.60344 -0.11300
H 	H 	0.66444 0.43335 0.72010 0.04000
H 	H 	0.67441 0.42943 0.66621 0.03800
H 	H 	0.74403 0.42226 0.82164 0.03600
H 	H 	0.73999 0.42620 0.76717 0.03900
C 	C 	0.73219 0.33847 0.18088 -0.03100
C 	C 	0.73470 0.33530 0.21162 -0.04300
H 	H 	0.75616 0.38419 0.17407 0.03700
H 	H 	0.76046 0.37859 0.22836 0.04000
H 	H 	0.80011 0.32505 0.26816 0.04100
H 	H 	0.79383 0.33070 0.32243 0.04100
C 	C 	0.81404 0.73432 0.47938 -0.04500
C 	C 	0.83960 0.70563 0.46581 0.00600
C 	C 	0.89029 0.74014 0.45015 -0.04500
C 	C 	0.91624 0.80299 0.44866 -0.02100
C 	C 	0.89305 0.83285 0.46351 -0.02100
C 	C 	0.84087 0.79777 0.47836 -0.02200
C 	C 	0.81413 0.63980 0.46837 0.02400
H 	H 	0.91038 0.71859 0.43955 0.04100
H 	H 	0.95561 0.82906 0.43660 0.04000
H 	H 	0.82235 0.82005 0.48987 0.04000
H 	H 	0.77411 0.70780 0.49107 0.04000
C 	C 	0.81106 0.62230 0.49691 -0.06500
C 	C 	0.78963 0.56081 0.49932 0.01400
C 	C 	0.77247 0.51681 0.47334 -0.08900
C 	C 	0.77611 0.53440 0.44489 0.01300
C 	C 	0.79614 0.59533 0.44236 -0.06500
H 	H 	0.82557 0.65636 0.51718 0.04500
H 	H 	0.78629 0.54738 0.52135 0.02500
H 	H 	0.76189 0.50035 0.42465 0.03300
H 	H 	0.79770 0.60800 0.42020 0.04600
H 	H 	0.81821 0.95419 0.43412 0.03900
H 	H 	0.09225 0.97491 0.43818 0.04100
C 	C 	0.81122 0.65202 0.01763 -0.06600
C 	C 	0.80890 0.66872 0.98926 0.02500
C 	C 	0.77515 0.62132 0.96313 -0.06500
C 	C 	0.74505 0.55788 0.96531 0.01400
C 	C 	0.74807 0.54124 0.99365 -0.08800
C 	C 	0.78080 0.58859 0.01984 0.01400
C 	C 	0.84392 0.73600 0.98682 0.00600
H 	H 	0.77264 0.63369 0.94115 0.04600
H 	H 	0.71936 0.52170 0.94498 0.03600
H 	H 	0.78383 0.57642 0.04183 0.03000
H 	H 	0.83748 0.68831 0.03791 0.04600
C 	C 	0.82994 0.77365 0.00250 -0.04600
C 	C 	0.86592 0.83832 0.00175 -0.02100
C 	C 	0.91604 0.86592 0.98512 -0.02100
C 	C 	0.92883 0.82776 0.96881 -0.02100
C 	C 	0.89313 0.76323 0.96977 -0.04600
H 	H 	0.79172 0.75294 0.01556 0.04100
H 	H 	0.85557 0.86711 0.01451 0.04000
H 	H 	0.96660 0.84811 0.95549 0.03900
H 	H 	0.90429 0.73454 0.95759 0.04100
