data_crystal

_cell_length_a 27.41036
_cell_length_b 28.96808
_cell_length_c 30.55137
_cell_angle_alpha 60.97835
_cell_angle_beta  118.68701
_cell_angle_gamma 133.29011

_symmetry_space_group_name_	'P 1'
_symmetry_space_group_name_H-M	'P 1'

loop_
_symmetry_equiv_pos_as_xyz
  x,y,z

loop_
_atom_site_label
_atom_site_type_symbol
_atom_site_fract_x
_atom_site_fract_y
_atom_site_fract_z
_atom_site_charge
C 	C 	0.72679 0.27787 0.04752 0.05400
C 	C 	0.77858 0.34259 0.05276 -0.09200
C 	C 	0.77029 0.36804 0.07571 0.05500
C 	C 	0.71378 0.32666 0.09764 -0.09100
C 	C 	0.65729 0.26649 0.08512 0.05300
C 	C 	0.66421 0.24153 0.06049 -0.09300
H 	H 	0.82419 0.37313 0.03829 0.05900
H 	H 	0.70915 0.34552 0.11758 0.05600
H 	H 	0.62156 0.19417 0.05179 0.05800
C 	C 	0.77663 0.33318 0.57040 0.05400
C 	C 	0.72231 0.28611 0.59566 -0.09400
C 	C 	0.70166 0.30559 0.61346 0.05400
C 	C 	0.73570 0.37226 0.60622 -0.09300
C 	C 	0.79056 0.41950 0.58177 0.05400
C 	C 	0.81115 0.40007 0.56371 -0.09500
H 	H 	0.69585 0.23451 0.60105 0.05800
H 	H 	0.71873 0.38744 0.61887 0.05800
H 	H 	0.85339 0.43658 0.54448 0.05900
C 	C 	0.23612 0.61963 0.25873 0.05000
C 	C 	0.18933 0.55841 0.24688 -0.09500
C 	C 	0.21080 0.53917 0.22951 0.05000
C 	C 	0.27804 0.58182 0.22302 -0.09300
C 	C 	0.32726 0.63740 0.24275 0.05200
C 	C 	0.30595 0.65750 0.25928 -0.09300
H 	H 	0.13659 0.52665 0.25030 0.04800
H 	H 	0.29390 0.56790 0.20792 0.05700
H 	H 	0.34312 0.70249 0.27192 0.05400
C 	C 	0.28805 0.66240 0.76768 0.05000
C 	C 	0.24682 0.59508 0.77153 -0.09500
C 	C 	0.27504 0.56761 0.77394 0.05000
C 	C 	0.34503 0.60726 0.77481 -0.09100
C 	C 	0.38218 0.67531 0.76143 0.05200
C 	C 	0.35534 0.70290 0.76103 -0.09400
H 	H 	0.19267 0.56482 0.77085 0.05000
H 	H 	0.36690 0.58594 0.77689 0.05600
H 	H 	0.38484 0.75559 0.75257 0.05400
Co	Co	0.07949 0.97205 0.16672 1.17100
Co	Co	0.88057 0.94075 0.11491 1.18600
Co	Co	0.00568 0.00875 0.19116 1.17700
Co	Co	0.95477 0.90660 0.08901 1.19600
C 	C 	0.13075 0.88961 0.21752 0.31600
Co	Co	0.08005 0.90638 0.10431 1.16700
Co	Co	0.87502 0.00437 0.17343 1.17900
C 	C 	0.00124 0.94014 0.00086 0.24000
O 	O 	0.94625 0.10123 0.14304 -0.36200
O 	O 	0.92234 0.97825 0.16224 -0.76200
C 	C 	0.01263 0.12910 0.16240 0.26200
O 	O 	0.09406 0.01984 0.20805 -0.45700
O 	O 	0.86915 0.90130 0.06827 -0.45800
C 	C 	0.83422 0.02490 0.06066 0.33700
O 	O 	0.97121 0.93596 0.15431 -0.56700
C 	C 	0.96922 0.99226 0.27975 0.31700
C 	C 	0.18519 0.04660 0.10584 0.30300
C 	C 	0.93983 0.78301 0.10744 0.35100
O 	O 	0.04222 0.10694 0.16288 -0.39100
O 	O 	0.14784 0.00560 0.07679 -0.36300
O 	O 	0.15499 0.05177 0.12480 -0.39000
O 	O 	0.80917 0.99490 0.10118 -0.43700
O 	O 	0.87405 0.01544 0.05945 -0.39400
O 	O 	0.93738 0.01956 0.24651 -0.36700
O 	O 	0.99065 0.97409 0.26456 -0.35900
O 	O 	0.00523 0.80989 0.13173 -0.43000
O 	O 	0.90837 0.80849 0.09726 -0.38200
O 	O 	0.03305 0.92536 0.12473 -0.78700
C 	C 	0.76766 0.86340 0.17308 0.30400
O 	O 	0.81061 0.90523 0.20240 -0.38400
O 	O 	0.78763 0.86561 0.13947 -0.38100
O 	O 	0.14955 0.91403 0.17490 -0.41700
O 	O 	0.10866 0.91293 0.22542 -0.40400
O 	O 	0.01591 0.89814 0.03100 -0.39000
O 	O 	0.98698 0.96092 0.02022 -0.33700
Co	Co	0.11394 0.01647 0.66660 1.18900
Co	Co	0.91938 0.99098 0.61419 1.18300
Co	Co	0.03390 0.03413 0.70348 1.17500
Co	Co	0.00338 0.97599 0.57790 1.15900
C 	C 	0.13885 0.92009 0.69446 0.31600
Co	Co	0.14145 0.99876 0.58564 1.15700
Co	Co	0.90657 0.03458 0.68584 1.18200
C 	C 	0.04722 0.01597 0.48388 0.31900
O 	O 	0.99730 0.10339 0.72625 -0.34700
O 	O 	0.95982 0.02433 0.66402 -0.73800
C 	C 	0.05548 0.14694 0.71118 0.26800
O 	O 	0.11324 0.02983 0.72530 -0.45700
O 	O 	0.91056 0.95396 0.56665 -0.44900
C 	C 	0.88740 0.09077 0.57257 0.30700
O 	O 	0.02947 0.03016 0.62913 -0.58700
C 	C 	0.95611 0.96850 0.78499 0.30700
C 	C 	0.25246 0.10655 0.63806 0.30800
C 	C 	0.99820 0.86826 0.57892 0.35200
O 	O 	0.08435 0.12844 0.70559 -0.38700
O 	O 	0.22210 0.09336 0.59278 -0.37700
O 	O 	0.21769 0.09357 0.66592 -0.37900
O 	O 	0.91917 0.10484 0.61772 -0.39000
O 	O 	0.88427 0.04877 0.56238 -0.37100
O 	O 	0.89967 0.96202 0.75257 -0.37500
O 	O 	0.99587 0.97042 0.77011 -0.35000
O 	O 	0.06325 0.90310 0.57819 -0.43900
O 	O 	0.97960 0.88387 0.59952 -0.39500
O 	O 	0.08691 0.00908 0.60657 -0.75500
C 	C 	0.79552 0.90901 0.65339 0.31600
O 	O 	0.81161 0.96545 0.64838 -0.41400
O 	O 	0.83955 0.90671 0.64934 -0.40100
O 	O 	0.17879 0.96426 0.66173 -0.42400
O 	O 	0.10067 0.92829 0.70007 -0.42300
O 	O 	0.11070 0.03393 0.50769 -0.36700
O 	O 	0.01433 0.01864 0.50230 -0.37300
C 	C 	0.94229 0.96323 0.90703 0.08500
C 	C 	0.99683 0.96010 0.94450 -0.02700
C 	C 	0.04011 0.96378 0.92839 0.05800
C 	C 	0.01986 0.95514 0.87947 0.06500
C 	C 	0.97010 0.96516 0.84041 -0.06700
C 	C 	0.93585 0.97529 0.85450 0.09100
Br	Br	0.89063 0.01618 0.80381 -0.21600
Br	Br	0.87311 0.94625 0.92661 -0.21700
Br	Br	0.05000 0.91677 0.87109 -0.23300
Br	Br	0.12905 0.98484 0.97155 -0.24800
C 	C 	0.94286 0.94866 0.36496 0.08700
C 	C 	0.99177 0.99320 0.33443 -0.08000
C 	C 	0.05620 0.04803 0.35143 0.07000
C 	C 	0.06957 0.06103 0.39634 0.11200
C 	C 	0.02289 0.01424 0.42885 -0.13200
C 	C 	0.95770 0.95989 0.41149 0.11600
Br	Br	0.88807 0.90178 0.45043 -0.22700
Br	Br	0.85598 0.87172 0.34338 -0.22300
Br	Br	0.14689 0.14620 0.40962 -0.21000
Br	Br	0.12647 0.10523 0.31331 -0.22400
C 	C 	0.09653 0.21469 0.71362 -0.09900
C 	C 	0.07323 0.25371 0.67897 0.11400
C 	C 	0.09565 0.30634 0.69251 -0.09700
C 	C 	0.15144 0.32888 0.73446 0.00300
C 	C 	0.18183 0.29499 0.76532 0.06000
C 	C 	0.15171 0.23625 0.75602 -0.02400
N 	N 	0.03414 0.24411 0.63117 -0.20500
H 	H 	0.07343 0.33305 0.66806 0.04900
C 	C 	0.17971 0.38983 0.74374 -0.01300
N 	N 	0.24017 0.31899 0.80303 -0.19200
H 	H 	0.17094 0.20716 0.78198 0.05000
C 	C 	0.17532 0.38719 0.78899 -0.08200
C 	C 	0.20239 0.44446 0.79888 0.08400
C 	C 	0.22939 0.50416 0.76099 -0.03800
C 	C 	0.22491 0.50447 0.71318 -0.06800
C 	C 	0.20644 0.44967 0.70597 0.07200
H 	H 	0.15271 0.34089 0.81718 0.05200
N 	N 	0.20244 0.44178 0.84459 -0.19800
H 	H 	0.24306 0.54970 0.68346 0.04500
N 	N 	0.21759 0.45559 0.66407 -0.19600
H 	H 	0.18341 0.39765 0.87265 0.07900
H 	H 	0.22042 0.48306 0.85251 0.08200
H 	H 	0.23410 0.49904 0.63517 0.07700
H 	H 	0.21431 0.41898 0.66128 0.08500
H 	H 	0.26040 0.29224 0.82685 0.08500
H 	H 	0.26779 0.36551 0.80754 0.08700
H 	H 	0.03052 0.21603 0.61616 0.08700
H 	H 	0.01363 0.27052 0.60657 0.07300
C 	C 	0.43846 0.71545 0.73543 -0.03700
C 	C 	0.42440 0.70681 0.68790 0.08600
C 	C 	0.47783 0.72637 0.67233 -0.08100
C 	C 	0.54629 0.76226 0.69973 -0.01400
C 	C 	0.56140 0.78031 0.74276 0.07800
C 	C 	0.50697 0.75361 0.76184 -0.06800
N 	N 	0.35984 0.68037 0.65698 -0.19800
H 	H 	0.46628 0.71503 0.63808 0.04900
C 	C 	0.60173 0.78339 0.68134 0.00600
N 	N 	0.62739 0.82406 0.76496 -0.19600
H 	H 	0.51799 0.76237 0.79728 0.04900
C 	C 	0.61054 0.82380 0.63176 -0.10100
C 	C 	0.67024 0.85527 0.61728 0.13200
C 	C 	0.72417 0.85097 0.65440 -0.11600
C 	C 	0.71045 0.80219 0.70044 -0.02000
C 	C 	0.64834 0.76680 0.71371 0.06000
H 	H 	0.57235 0.83281 0.60523 0.05400
N 	N 	0.67740 0.89256 0.56861 -0.20400
H 	H 	0.75009 0.79547 0.72769 0.05000
N 	N 	0.63423 0.71801 0.75746 -0.19100
H 	H 	0.63889 0.89838 0.54186 0.08100
H 	H 	0.72035 0.91431 0.55656 0.09300
H 	H 	0.67021 0.70801 0.78226 0.08800
H 	H 	0.58635 0.68781 0.76608 0.08800
H 	H 	0.63817 0.83425 0.79825 0.09300
H 	H 	0.66795 0.85120 0.74781 0.09700
H 	H 	0.32108 0.67255 0.66460 0.08300
H 	H 	0.34882 0.67063 0.62335 0.07700
C 	C 	0.14201 0.86447 0.72789 -0.12200
C 	C 	0.20403 0.87575 0.76374 0.13000
C 	C 	0.22037 0.83348 0.77664 -0.10300
C 	C 	0.17423 0.77893 0.75579 0.00700
C 	C 	0.10702 0.76124 0.72781 0.05000
C 	C 	0.09158 0.80463 0.71384 -0.01900
N 	N 	0.24854 0.92780 0.78491 -0.20600
H 	H 	0.27032 0.84482 0.80082 0.05400
C 	C 	0.19988 0.74651 0.75753 -0.01600
N 	N 	0.05814 0.70402 0.71297 -0.19100
H 	H 	0.04229 0.79415 0.68871 0.03300
C 	C 	0.20996 0.70467 0.80382 -0.08200
C 	C 	0.24074 0.67833 0.80854 0.08300
C 	C 	0.25836 0.69147 0.76512 -0.03800
C 	C 	0.24662 0.73196 0.71847 -0.07000
C 	C 	0.21927 0.76108 0.71452 0.07300
H 	H 	0.19579 0.69422 0.83680 0.04700
N 	N 	0.25478 0.64201 0.85502 -0.19800
H 	H 	0.25992 0.74173 0.68527 0.04300
N 	N 	0.21282 0.80363 0.66972 -0.19600
H 	H 	0.23976 0.63103 0.88639 0.07800
H 	H 	0.28265 0.62622 0.86104 0.08400
H 	H 	0.22592 0.81287 0.63796 0.07700
H 	H 	0.19647 0.82913 0.66618 0.08600
H 	H 	0.00942 0.69243 0.69077 0.06900
H 	H 	0.06731 0.66971 0.72467 0.07600
H 	H 	0.23539 0.95735 0.77843 0.08800
H 	H 	0.29584 0.93779 0.80962 0.07800
C 	C 	0.05456 0.18879 0.17985 -0.09500
C 	C 	0.09447 0.25168 0.14865 0.12200
C 	C 	0.11753 0.30703 0.15904 -0.09700
C 	C 	0.09983 0.30032 0.19900 0.00200
C 	C 	0.06017 0.23746 0.23013 0.06600
C 	C 	0.04162 0.18310 0.22206 -0.03000
N 	N 	0.11061 0.25936 0.10876 -0.20500
H 	H 	0.14875 0.35535 0.13565 0.05400
C 	C 	0.12490 0.35966 0.20890 -0.01500
N 	N 	0.03847 0.22877 0.26706 -0.19200
H 	H 	0.01237 0.13539 0.24656 0.05200
C 	C 	0.09651 0.39399 0.17375 -0.08100
C 	C 	0.11835 0.44983 0.18234 0.08100
C 	C 	0.16850 0.47071 0.22743 -0.03700
C 	C 	0.19121 0.43224 0.26490 -0.06900
C 	C 	0.17388 0.37983 0.25454 0.07800
H 	H 	0.05771 0.37751 0.13945 0.04400
N 	N 	0.09123 0.48317 0.14720 -0.19800
H 	H 	0.22845 0.44752 0.29998 0.04700
N 	N 	0.20570 0.35032 0.28775 -0.19500
H 	H 	0.05523 0.46821 0.11350 0.07300
H 	H 	0.10422 0.52312 0.15352 0.07800
H 	H 	0.23975 0.36389 0.32228 0.09100
H 	H 	0.19936 0.31576 0.27877 0.10300
H 	H 	0.01251 0.18267 0.29173 0.09100
H 	H 	0.04429 0.26669 0.27023 0.08700
H 	H 	0.09630 0.21966 0.10103 0.09300
H 	H 	0.13877 0.30584 0.08528 0.07900
C 	C 	0.69944 0.80702 0.18430 -0.10700
C 	C 	0.63920 0.79991 0.14769 0.12300
C 	C 	0.58173 0.76965 0.16475 -0.09800
C 	C 	0.58495 0.74959 0.21755 0.00300
C 	C 	0.64296 0.75139 0.25380 0.06500
C 	C 	0.69665 0.77457 0.23609 -0.02000
N 	N 	0.63672 0.82325 0.09641 -0.20500
H 	H 	0.53557 0.76441 0.13691 0.05600
C 	C 	0.52671 0.72565 0.23416 -0.01000
N 	N 	0.64943 0.73501 0.30527 -0.19200
H 	H 	0.74109 0.77595 0.26371 0.06100
C 	C 	0.48780 0.66046 0.26157 -0.08200
C 	C 	0.42844 0.63482 0.27305 0.08800
C 	C 	0.40134 0.67119 0.24949 -0.03800
C 	C 	0.44181 0.73737 0.22444 -0.06600
C 	C 	0.50611 0.76583 0.21887 0.07400
H 	H 	0.50439 0.63004 0.27469 0.05400
N 	N 	0.39775 0.57563 0.30676 -0.19800
H 	H 	0.42266 0.76633 0.20822 0.04500
N 	N 	0.54798 0.83144 0.19946 -0.19500
H 	H 	0.41578 0.54743 0.32193 0.08400
H 	H 	0.35830 0.55882 0.32034 0.08600
H 	H 	0.53113 0.86023 0.18611 0.07900
H 	H 	0.59872 0.85489 0.19995 0.08700
H 	H 	0.69056 0.73311 0.33161 0.10100
H 	H 	0.61650 0.72799 0.31958 0.09300
H 	H 	0.67645 0.84169 0.08230 0.10000
H 	H 	0.59330 0.82077 0.06983 0.08300
C 	C 	0.21104 0.64715 0.26530 -0.03900
C 	C 	0.19458 0.68892 0.22310 0.08300
C 	C 	0.18014 0.72150 0.23168 -0.08000
C 	C 	0.18057 0.71230 0.28131 -0.01400
C 	C 	0.19324 0.66776 0.32313 0.07000
C 	C 	0.20893 0.63593 0.31471 -0.06800
N 	N 	0.19265 0.69801 0.17435 -0.19900
H 	H 	0.16904 0.75465 0.19960 0.04900
C 	C 	0.16911 0.75098 0.28870 0.00500
N 	N 	0.19128 0.65597 0.37133 -0.19600
H 	H 	0.22074 0.60330 0.34684 0.04400
C 	C 	0.10135 0.72920 0.27813 -0.10600
C 	C 	0.08763 0.77396 0.26389 0.12800
C 	C 	0.14244 0.84130 0.25876 -0.12300
C 	C 	0.21033 0.86038 0.27944 -0.01700
C 	C 	0.22430 0.81567 0.29413 0.05300
H 	H 	0.05903 0.67849 0.27722 0.04700
N 	N 	0.02170 0.75254 0.25297 -0.22500
H 	H 	0.25259 0.91145 0.27903 0.03500
N 	N 	0.29057 0.83560 0.31167 -0.19100
H 	H 	0.98101 0.70302 0.25487 0.11500
H 	H 	0.01062 0.78454 0.24421 0.08700
H 	H 	0.33128 0.88411 0.31379 0.07800
H 	H 	0.30215 0.80270 0.32489 0.08400
H 	H 	0.20151 0.62362 0.40206 0.07600
H 	H 	0.17906 0.67822 0.37873 0.08100
H 	H 	0.20041 0.67263 0.16622 0.08400
H 	H 	0.18183 0.72997 0.14362 0.07900
C 	C 	0.79890 0.31185 0.55290 -0.03600
C 	C 	0.77398 0.30651 0.50159 0.08800
C 	C 	0.78510 0.27415 0.48891 -0.08000
C 	C 	0.81847 0.24533 0.52681 -0.01200
C 	C 	0.84624 0.25343 0.57755 0.08100
C 	C 	0.83729 0.28782 0.58969 -0.06600
N 	N 	0.73870 0.33145 0.46459 -0.19800
H 	H 	0.76550 0.26932 0.44984 0.05200
C 	C 	0.82233 0.20506 0.51357 0.00600
N 	N 	0.88038 0.22741 0.61493 -0.19600
H 	H 	0.85728 0.29297 0.62870 0.05200
C 	C 	0.88350 0.23286 0.50328 -0.09900
C 	C 	0.90078 0.19276 0.51203 0.13400
C 	C 	0.85679 0.12475 0.53223 -0.11000
C 	C 	0.78928 0.09674 0.53014 -0.02400
C 	C 	0.77187 0.13647 0.52202 0.06000
H 	H 	0.92022 0.28562 0.49300 0.06200
N 	N 	0.96142 0.21997 0.50418 -0.20500
H 	H 	0.75317 0.04397 0.54138 0.04800
N 	N 	0.70802 0.10853 0.52447 -0.19200
H 	H 	0.99552 0.27065 0.49155 0.09500
H 	H 	0.97423 0.19072 0.50934 0.10200
H 	H 	0.67191 0.05769 0.53267 0.08700
H 	H 	0.69298 0.13699 0.51677 0.08900
H 	H 	0.90180 0.23481 0.65191 0.09500
H 	H 	0.88549 0.19913 0.60804 0.09800
H 	H 	0.73038 0.35658 0.47244 0.08800
H 	H 	0.71966 0.32641 0.42705 0.08400
C 	C 	0.82382 0.48944 0.57300 -0.03700
C 	C 	0.88116 0.52477 0.60998 0.09100
C 	C 	0.90026 0.58461 0.60821 -0.07900
C 	C 	0.86278 0.60936 0.57059 -0.01200
C 	C 	0.80659 0.57489 0.53277 0.07700
C 	C 	0.78914 0.51630 0.53347 -0.06500
N 	N 	0.91783 0.50144 0.64732 -0.19800
H 	H 	0.94453 0.61207 0.63617 0.05900
C 	C 	0.88734 0.67471 0.56800 0.01100
N 	N 	0.76809 0.59674 0.49667 -0.19600
H 	H 	0.74540 0.48923 0.50509 0.04800
C 	C 	0.92389 0.72849 0.53085 -0.09800
C 	C 	0.95425 0.79204 0.53024 0.14600
C 	C 	0.95038 0.80232 0.56916 -0.11000
C 	C 	0.90973 0.74797 0.60428 -0.01300
C 	C 	0.87772 0.68406 0.60388 0.05800
H 	H 	0.92940 0.72091 0.50250 0.06600
N 	N 	0.98718 0.84293 0.49235 -0.17900
H 	H 	0.90544 0.75538 0.63346 0.05200
N 	N 	0.83815 0.63218 0.63797 -0.19100
H 	H 	0.99050 0.83486 0.46435 0.10300
H 	H 	0.00798 0.89051 0.48929 0.07000
H 	H 	0.83299 0.63959 0.66531 0.08800
H 	H 	0.81070 0.58415 0.63683 0.08800
H 	H 	0.72782 0.57187 0.46814 0.08600
H 	H 	0.77626 0.63728 0.49741 0.09400
H 	H 	0.90683 0.45857 0.64844 0.09100
H 	H 	0.95907 0.52706 0.67520 0.09100
C 	C 	0.64027 0.25653 0.63555 -0.03600
C 	C 	0.64365 0.25595 0.68350 0.08800
C 	C 	0.58311 0.22804 0.69487 -0.08100
C 	C 	0.51913 0.19638 0.66091 -0.01300
C 	C 	0.51500 0.18765 0.61720 0.07900
C 	C 	0.57585 0.21890 0.60438 -0.06600
N 	N 	0.70474 0.28220 0.71848 -0.19800
H 	H 	0.58591 0.23207 0.72961 0.05100
C 	C 	0.45878 0.18108 0.66718 0.00600
N 	N 	0.45295 0.15032 0.58706 -0.19500
H 	H 	0.57309 0.21680 0.56871 0.04900
C 	C 	0.43917 0.22323 0.63593 -0.10000
C 	C 	0.37339 0.20261 0.63050 0.13500
C 	C 	0.32698 0.13893 0.65686 -0.11400
C 	C 	0.35031 0.10087 0.69375 -0.02400
C 	C 	0.41571 0.12094 0.69877 0.05900
H 	H 	0.47377 0.27075 0.61371 0.05900
N 	N 	0.35486 0.24377 0.59973 -0.20300
H 	H 	0.31556 0.05327 0.71572 0.05000
N 	N 	0.43584 0.08148 0.73263 -0.19200
H 	H 	0.38855 0.29004 0.57892 0.08900
H 	H 	0.30790 0.23111 0.59762 0.10000
H 	H 	0.40280 0.03629 0.75471 0.08800
H 	H 	0.48471 0.09563 0.73808 0.08900
H 	H 	0.45034 0.14608 0.55380 0.08800
H 	H 	0.40690 0.12339 0.59725 0.09200
H 	H 	0.74942 0.29833 0.71274 0.08900
H 	H 	0.70741 0.28406 0.75294 0.08400
C 	C 	0.74068 0.24589 0.03372 -0.03400
C 	C 	0.74646 0.26350 0.98340 0.08600
C 	C 	0.76430 0.23488 0.97312 -0.08200
C 	C 	0.77365 0.18730 0.01153 -0.00800
C 	C 	0.76679 0.16901 0.06162 0.07900
C 	C 	0.75041 0.19859 0.07210 -0.06600
N 	N 	0.73360 0.30658 0.94469 -0.19800
H 	H 	0.76942 0.24864 0.93483 0.05200
C 	C 	0.79024 0.15646 0.99905 0.00300
N 	N 	0.77625 0.12349 0.09987 -0.19500
H 	H 	0.74588 0.18518 0.11054 0.05000
C 	C 	0.85939 0.18170 0.00996 -0.09800
C 	C 	0.87636 0.14117 0.01914 0.14000
C 	C 	0.82341 0.07415 0.02001 -0.12000
C 	C 	0.75522 0.05408 0.99727 -0.01600
C 	C 	0.73787 0.09461 0.98733 0.05900
H 	H 	0.89990 0.23112 0.01499 0.06400
N 	N 	0.94326 0.16619 0.02857 -0.20300
H 	H 	0.71469 0.00419 0.99331 0.04500
N 	N 	0.67097 0.07298 0.96870 -0.19100
H 	H 	0.95662 0.13809 0.03225 0.11200
H 	H 	0.98244 0.21513 0.03000 0.10100
H 	H 	0.63217 0.02619 0.96205 0.08600
H 	H 	0.65719 0.10315 0.95911 0.08800
H 	H 	0.77082 0.11026 0.13659 0.08600
H 	H 	0.78935 0.10098 0.09384 0.09000
H 	H 	0.71572 0.32528 0.95010 0.08700
H 	H 	0.73956 0.32042 0.90803 0.08400
C 	C 	0.80819 0.43932 0.06484 -0.03700
C 	C 	0.86950 0.47530 0.09959 0.09100
C 	C 	0.88808 0.53277 0.10255 -0.07800
C 	C 	0.84460 0.55275 0.07300 -0.01200
C 	C 	0.78610 0.51925 0.03545 0.07600
C 	C 	0.77228 0.46626 0.02898 -0.06400
N 	N 	0.91030 0.45477 0.13029 -0.19800
H 	H 	0.93486 0.56043 0.12935 0.06000
C 	C 	0.86154 0.60946 0.08097 0.01200
N 	N 	0.74098 0.53508 0.00779 -0.19400
H 	H 	0.72720 0.44019 0.00057 0.04800
C 	C 	0.87873 0.66643 0.04099 -0.10200
C 	C 	0.89157 0.71947 0.04644 0.14300
C 	C 	0.89958 0.72034 0.09534 -0.12500
C 	C 	0.88222 0.66353 0.13542 -0.00600
C 	C 	0.86001 0.60689 0.12792 0.05400
H 	H 	0.87824 0.66798 0.00459 0.06800
N 	N 	0.89349 0.76811 0.00440 -0.20300
H 	H 	0.88648 0.66351 0.17260 0.04000
N 	N 	0.83651 0.55033 0.16541 -0.19000
H 	H 	0.89325 0.77019 0.96918 0.10600
H 	H 	0.88911 0.80070 0.00529 0.11400
H 	H 	0.83850 0.54972 0.20071 0.08500
H 	H 	0.81306 0.50598 0.15911 0.08800
H 	H 	0.69980 0.51199 0.97863 0.08100
H 	H 	0.74370 0.56733 0.01682 0.08900
H 	H 	0.89938 0.41409 0.12700 0.09200
H 	H 	0.95474 0.48068 0.15682 0.09300
C 	C 	0.58834 0.23715 0.08850 -0.03600
C 	C 	0.54750 0.17231 0.11721 0.08900
C 	C 	0.48239 0.14704 0.11875 -0.07900
C 	C 	0.46067 0.18729 0.09678 -0.01100
C 	C 	0.50454 0.25379 0.07245 0.07500
C 	C 	0.56529 0.27655 0.06523 -0.06700
N 	N 	0.57119 0.13503 0.14469 -0.19800
H 	H 	0.44934 0.09640 0.13830 0.05600
C 	C 	0.39120 0.15876 0.09850 0.00500
N 	N 	0.48906 0.29604 0.05654 -0.19500
H 	H 	0.59648 0.32623 0.04334 0.04700
C 	C 	0.37729 0.13619 0.14627 -0.09600
C 	C 	0.31086 0.10486 0.14973 0.12600
C 	C 	0.25829 0.09877 0.10415 -0.10400
C 	C 	0.27510 0.12926 0.05624 -0.01900
C 	C 	0.33906 0.15426 0.05293 0.06600
H 	H 	0.41776 0.14128 0.18102 0.05800
N 	N 	0.29761 0.07940 0.19683 -0.20200
H 	H 	0.23548 0.12663 0.02130 0.06100
N 	N 	0.34900 0.17117 0.00635 -0.19000
H 	H 	0.33610 0.08202 0.23026 0.09000
H 	H 	0.24974 0.05803 0.20086 0.09400
H 	H 	0.31128 0.17030 0.97278 0.09400
H 	H 	0.39228 0.18195 0.00313 0.09400
H 	H 	0.52020 0.34434 0.03655 0.08300
H 	H 	0.44813 0.28244 0.06594 0.08900
H 	H 	0.62215 0.15467 0.14962 0.08800
H 	H 	0.53943 0.08639 0.16383 0.08700
