data_crystal

_cell_length_a 26.29859
_cell_length_b 26.38975
_cell_length_c 26.53719
_cell_angle_alpha 95.45889
_cell_angle_beta  95.45781
_cell_angle_gamma 125.74037

_symmetry_space_group_name_	'P 1'
_symmetry_space_group_name_H-M	'P 1'

loop_
_symmetry_equiv_pos_as_xyz
  x,y,z

loop_
_atom_site_label
_atom_site_type_symbol
_atom_site_fract_x
_atom_site_fract_y
_atom_site_fract_z
_atom_site_charge
C 	C 	0.96467 0.03348 0.98967 0.03200
C 	C 	0.99803 0.03211 0.43292 -0.05500
C 	C 	0.02975 0.00411 0.43548 0.01300
C 	C 	0.90114 0.02750 0.43658 0.01900
C 	C 	0.88164 0.03684 0.48160 -0.07100
H 	H 	0.83484 0.05478 0.56030 0.04000
C 	C 	0.12499 0.07022 0.39529 -0.05000
C 	C 	0.78399 0.03074 0.91752 -0.05000
H 	H 	0.70069 0.02596 0.89465 0.03200
H 	H 	0.88689 0.01804 0.51472 0.04800
C 	C 	0.06161 0.04112 0.99105 0.02800
C 	C 	0.89269 0.05006 0.39322 -0.05100
C 	C 	0.85591 0.07080 0.48417 0.03400
C 	C 	0.83286 0.07647 0.52820 -0.05600
H 	H 	0.90549 0.04086 0.35768 0.04200
C 	C 	0.09919 0.04299 0.43752 0.01600
C 	C 	0.87793 0.03811 0.95018 -0.06400
C 	C 	0.74621 0.05156 0.92066 -0.03600
H 	H 	0.15020 0.06401 0.06855 0.04600
H 	H 	0.09425 0.06486 0.36169 0.04000
C 	C 	0.03059 0.06998 0.99017 -0.07600
H 	H 	0.02422 0.08195 0.43038 0.04300
C 	C 	0.93152 0.06333 0.98848 0.01300
C 	C 	0.84198 0.06159 0.95191 0.02900
C 	C 	0.13098 0.07922 0.99296 0.01400
H 	H 	0.25030 0.08556 0.10625 0.03900
C 	C 	0.86704 0.08391 0.39526 -0.02700
C 	C 	0.13952 0.05282 0.48191 -0.07100
H 	H 	0.11960 0.03364 0.51526 0.04600
C 	C 	0.17029 0.08374 0.03540 -0.07200
C 	C 	0.85207 0.09819 0.44182 -0.01700
C 	C 	0.20543 0.08775 0.48350 0.03300
H 	H 	0.22667 0.08458 0.56335 0.04000
C 	C 	0.80586 0.10874 0.53077 -0.03400
H 	H 	0.85618 0.09597 0.36007 0.03400
H 	H 	0.78693 0.11124 0.56469 0.03000
H 	H 	0.12558 0.09815 0.91608 0.04000
C 	C 	0.24602 0.10125 0.52921 -0.05400
C 	C 	0.15631 0.10338 0.94964 -0.04800
C 	C 	0.19056 0.10507 0.39640 -0.02800
H 	H 	0.68526 0.10332 0.93070 0.02100
C 	C 	0.27065 0.10633 0.07356 -0.05400
C 	C 	0.23107 0.11077 0.43926 -0.01600
C 	C 	0.76784 0.10643 0.95569 -0.00100
C 	C 	0.23424 0.10992 0.03394 0.02900
C 	C 	0.94993 0.11312 0.02812 -0.05000
C 	C 	0.86285 0.11468 0.98994 -0.01200
H 	H 	0.05754 0.12045 0.98996 0.04900
H 	H 	0.35888 0.12173 0.10058 0.03500
C 	C 	0.33235 0.12697 0.07039 -0.03500
H 	H 	0.86310 0.99885 0.92000 0.04300
H 	H 	0.20966 0.12993 0.36517 0.03400
C 	C 	0.93010 0.96817 0.99001 -0.07600
C 	C 	0.96089 0.93925 0.98999 0.02800
C 	C 	0.02653 0.97570 0.99060 -0.07700
H 	H 	0.87936 0.93994 0.99024 0.05000
H 	H 	0.05029 0.95319 0.99060 0.05000
C 	C 	0.93306 0.99648 0.43563 0.01200
C 	C 	0.99606 0.93992 0.43942 -0.06200
C 	C 	0.93131 0.90417 0.44288 0.01800
C 	C 	0.89975 0.93251 0.44081 -0.06500
H 	H 	0.02049 0.91811 0.44068 0.04400
H 	H 	0.84986 0.90527 0.44398 0.04600
Cu	Cu	0.63677 0.24560 0.00425 0.92600
Cu	Cu	0.67620 0.23945 0.89145 0.86900
Cu	Cu	0.67296 0.34488 0.93593 0.89700
Cu	Cu	0.64701 0.36869 0.03991 0.89300
C 	C 	0.66629 0.29878 0.11195 0.28000
O 	O 	0.54610 0.21307 0.00825 -0.36600
C 	C 	0.64651 0.29863 0.82289 0.28100
O 	O 	0.69202 0.34438 0.00726 -0.64200
O 	O 	0.62419 0.25080 0.93061 -0.64000
O 	O 	0.67132 0.19570 0.99826 -0.37100
O 	O 	0.73867 0.25672 0.94669 -0.44100
O 	O 	0.63909 0.32639 0.10029 -0.38500
O 	O 	0.72531 0.43654 0.94598 -0.38400
C 	C 	0.72544 0.47391 0.98296 0.28900
C 	C 	0.52248 0.24193 0.99143 0.28100
O 	O 	0.56104 0.30019 0.98331 -0.39000
O 	O 	0.68469 0.45061 0.01497 -0.39700
O 	O 	0.66254 0.25688 0.07707 -0.36000
C 	C 	0.72294 0.21717 0.97876 0.28700
O 	O 	0.66749 0.34622 0.86121 -0.38400
O 	O 	0.63476 0.24470 0.83150 -0.42100
H 	H 	0.73812 0.37001 0.02190 0.16200
H 	H 	0.57923 0.22656 0.91298 0.17300
Cu	Cu	0.73111 0.33346 0.43622 0.92700
Cu	Cu	0.72785 0.28657 0.54698 0.87000
Cu	Cu	0.62594 0.29357 0.49937 0.89700
Cu	Cu	0.61096 0.32783 0.39736 0.89300
C 	C 	0.68859 0.31692 0.32770 0.28200
O 	O 	0.76665 0.42579 0.43658 -0.36100
C 	C 	0.66555 0.31476 0.61289 0.28200
O 	O 	0.63145 0.27940 0.42857 -0.64000
O 	O 	0.72069 0.34146 0.50895 -0.64000
O 	O 	0.77820 0.29529 0.44189 -0.37100
O 	O 	0.71157 0.22693 0.49024 -0.44200
O 	O 	0.65950 0.34235 0.34008 -0.38500
O 	O 	0.53390 0.24251 0.48505 -0.38300
C 	C 	0.49933 0.24617 0.44809 0.28600
C 	C 	0.73652 0.44852 0.45239 0.27900
O 	O 	0.67707 0.40929 0.45798 -0.39200
O 	O 	0.52596 0.28863 0.41782 -0.39400
O 	O 	0.72418 0.31282 0.36330 -0.36000
C 	C 	0.75468 0.24336 0.46133 0.28400
O 	O 	0.61910 0.29306 0.57313 -0.38500
O 	O 	0.72003 0.32584 0.60656 -0.42100
H 	H 	0.60566 0.23407 0.41193 0.16400
H 	H 	0.74459 0.38556 0.52813 0.17200
C 	C 	0.59447 0.25926 0.73023 -0.01300
C 	C 	0.64358 0.30881 0.76939 -0.07100
C 	C 	0.69451 0.36478 0.75629 -0.01500
C 	C 	0.69932 0.36875 0.70456 -0.01200
C 	C 	0.65275 0.31719 0.66551 -0.07100
C 	C 	0.59881 0.26365 0.67848 -0.01500
H 	H 	0.55426 0.21634 0.73987 0.03400
H 	H 	0.73230 0.40370 0.78616 0.03700
H 	H 	0.74065 0.41075 0.69496 0.03400
H 	H 	0.56216 0.22384 0.64861 0.03500
C 	C 	0.72766 0.36088 0.19942 -0.01300
C 	C 	0.68493 0.30159 0.16671 -0.06500
C 	C 	0.65213 0.24624 0.18796 -0.00800
C 	C 	0.65766 0.25076 0.24149 -0.01500
C 	C 	0.69622 0.31057 0.27396 -0.06300
C 	C 	0.73341 0.36533 0.25283 -0.00900
H 	H 	0.75387 0.40382 0.18342 0.02600
H 	H 	0.61936 0.20012 0.16306 0.04200
H 	H 	0.62917 0.20813 0.25749 0.03100
H 	H 	0.76395 0.41169 0.27767 0.04000
C 	C 	0.89722 0.83749 0.45004 0.01500
C 	C 	0.92178 0.82274 0.49061 -0.04900
C 	C 	0.89456 0.75947 0.49398 -0.02800
C 	C 	0.84301 0.70976 0.45579 -0.01600
C 	C 	0.81374 0.72470 0.41854 0.03300
C 	C 	0.84215 0.78845 0.41488 -0.07000
C 	C 	0.75592 0.67594 0.38604 -0.05500
C 	C 	0.72713 0.61262 0.38986 -0.03300
C 	C 	0.75785 0.59659 0.42365 -0.00100
C 	C 	0.81774 0.64499 0.45519 0.01500
C 	C 	0.85275 0.62758 0.48214 -0.05900
C 	C 	0.82586 0.56346 0.48154 0.00700
C 	C 	0.76450 0.51590 0.45351 -0.07800
C 	C 	0.73067 0.53250 0.42451 -0.01100
H 	H 	0.96223 0.86047 0.51955 0.04000
H 	H 	0.91182 0.74957 0.52744 0.03400
H 	H 	0.82192 0.79986 0.38446 0.04600
H 	H 	0.73258 0.68717 0.35829 0.04000
H 	H 	0.68164 0.57570 0.36528 0.03400
H 	H 	0.90177 0.66295 0.50110 0.04200
H 	H 	0.85309 0.55079 0.50252 0.02700
H 	H 	0.68410 0.49547 0.40131 0.02700
C 	C 	0.80469 0.13917 0.49063 -0.00300
C 	C 	0.83033 0.13663 0.44665 0.01500
C 	C 	0.83683 0.17518 0.41038 -0.06000
C 	C 	0.81189 0.20962 0.41502 0.00800
C 	C 	0.78249 0.20834 0.45678 -0.08600
C 	C 	0.77982 0.17378 0.49482 -0.01500
H 	H 	0.86374 0.18135 0.38020 0.04400
H 	H 	0.81598 0.23774 0.38628 0.04000
H 	H 	0.75936 0.17471 0.52821 0.02000
C 	C 	0.42977 0.20828 0.44525 -0.07500
C 	C 	0.38925 0.18822 0.39771 0.00400
C 	C 	0.32348 0.15408 0.39488 -0.05800
C 	C 	0.29735 0.14182 0.44024 0.01400
C 	C 	0.33780 0.15771 0.48758 0.00200
C 	C 	0.40384 0.19212 0.49000 -0.01500
C 	C 	0.31174 0.13754 0.53165 -0.03400
H 	H 	0.40861 0.19788 0.36264 0.02700
H 	H 	0.29317 0.13458 0.35729 0.04100
H 	H 	0.43497 0.20641 0.52666 0.04600
H 	H 	0.34243 0.14887 0.56775 0.03600
C 	C 	0.92426 0.87055 0.98878 0.01400
C 	C 	0.88651 0.82772 0.94261 -0.04800
C 	C 	0.85351 0.76248 0.94069 -0.02900
C 	C 	0.85987 0.73931 0.98492 -0.01300
C 	C 	0.89367 0.78245 0.03249 0.02900
C 	C 	0.92713 0.84795 0.03380 -0.07100
C 	C 	0.89194 0.75956 0.07834 -0.05400
C 	C 	0.85642 0.69439 0.07762 -0.03500
C 	C 	0.82546 0.65114 0.03071 -0.00200
C 	C 	0.83007 0.67354 0.98367 0.01700
C 	C 	0.80791 0.63034 0.93691 -0.05800
C 	C 	0.77436 0.56537 0.93684 0.00600
C 	C 	0.76450 0.54268 0.98331 -0.07300
C 	C 	0.79123 0.58571 0.03021 -0.01800
H 	H 	0.88224 0.84500 0.90820 0.04000
H 	H 	0.82081 0.73039 0.90568 0.03500
H 	H 	0.95483 0.88127 0.06984 0.04600
H 	H 	0.91698 0.79232 0.11488 0.04000
H 	H 	0.85399 0.67754 0.11364 0.03400
H 	H 	0.81898 0.64684 0.90097 0.04200
H 	H 	0.75590 0.53263 0.90052 0.03900
H 	H 	0.78591 0.56834 0.06623 0.03200
C 	C 	0.91549 0.13810 0.02947 -0.03200
C 	C 	0.82794 0.14040 0.98901 0.01700
C 	C 	0.85341 0.20097 0.01760 -0.06300
C 	C 	0.81748 0.22436 0.01616 0.00700
C 	C 	0.75659 0.18880 0.98549 -0.08200
C 	C 	0.73161 0.12972 0.95572 -0.01500
H 	H 	0.98969 0.13104 0.05900 0.04000
H 	H 	0.92748 0.17246 0.06287 0.03500
H 	H 	0.76731 0.98942 0.88901 0.03600
H 	H 	0.90218 0.23184 0.03811 0.04200
H 	H 	0.83796 0.27124 0.03763 0.02700
C 	C 	0.22031 0.13081 0.94805 -0.02900
C 	C 	0.26080 0.13651 0.99095 -0.01200
C 	C 	0.36050 0.15565 0.02933 -0.00100
C 	C 	0.32625 0.16399 0.99069 0.01500
C 	C 	0.35907 0.20215 0.95462 -0.05800
C 	C 	0.42223 0.22539 0.95378 0.00200
C 	C 	0.45450 0.21322 0.98992 -0.07400
C 	C 	0.42356 0.17844 0.02764 -0.02000
H 	H 	0.23659 0.14326 0.91225 0.03400
H 	H 	0.33759 0.21719 0.92936 0.04200
H 	H 	0.44656 0.25416 0.92566 0.03100
H 	H 	0.44934 0.17119 0.05687 0.04400
