data_crystal

_cell_length_a 44.90583
_cell_length_b 42.90658
_cell_length_c 23.04853
_cell_angle_alpha 89.96773
_cell_angle_beta  89.94840
_cell_angle_gamma 89.99988

_symmetry_space_group_name_	'P 1'
_symmetry_space_group_name_H-M	'P 1'

loop_
_symmetry_equiv_pos_as_xyz
  x,y,z

loop_
_atom_site_label
_atom_site_type_symbol
_atom_site_fract_x
_atom_site_fract_y
_atom_site_fract_z
_atom_site_charge
C 	C 	0.54878 0.45972 0.04317 0.09900
N 	N 	0.51997 0.45927 0.02710 -0.17600
C 	C 	0.50980 0.43039 0.03879 0.10100
C 	C 	0.48090 0.41844 0.01694 -0.08200
C 	C 	0.45747 0.44065 0.99941 0.10000
C 	C 	0.47344 0.38510 0.02274 0.04200
C 	C 	0.48056 0.36422 0.97809 -0.05700
C 	C 	0.47140 0.33312 0.98159 -0.01600
C 	C 	0.45502 0.32274 0.02979 -0.01100
C 	C 	0.45780 0.37457 0.07161 -0.05800
N 	N 	0.45271 0.46776 0.02731 -0.13200
C 	C 	0.43478 0.43422 0.96068 -0.06700
C 	C 	0.42684 0.47873 0.00599 0.08100
C 	C 	0.41590 0.51062 0.01767 -0.07200
C 	C 	0.38379 0.51758 0.01212 0.03400
C 	C 	0.33253 0.50658 0.03847 -0.03600
C 	C 	0.37396 0.54008 0.97233 -0.04900
C 	C 	0.34349 0.54573 0.96545 -0.02800
C 	C 	0.32264 0.52873 0.99800 0.00500
N 	N 	0.46569 0.53583 0.02626 -0.17500
C 	C 	0.47602 0.56306 0.04709 0.09900
C 	C 	0.45347 0.57928 0.07508 -0.06200
C 	C 	0.42826 0.56089 0.07117 -0.06300
C 	C 	0.50463 0.57694 0.02802 -0.07400
C 	C 	0.50834 0.61113 0.02638 0.03900
C 	C 	0.53233 0.65782 0.06278 -0.02100
C 	C 	0.51947 0.67533 0.01788 -0.01100
C 	C 	0.50046 0.66067 0.97792 -0.02100
C 	C 	0.49485 0.62868 0.98231 -0.05400
N 	N 	0.53452 0.52853 0.04115 -0.12700
C 	C 	0.57048 0.53702 0.97443 -0.05500
C 	C 	0.55899 0.51670 0.01527 0.08200
C 	C 	0.56977 0.48453 0.02481 -0.07400
C 	C 	0.60210 0.47838 0.02311 0.03800
C 	C 	0.62021 0.48818 0.06908 -0.05600
C 	C 	0.65114 0.48550 0.06498 -0.02600
C 	C 	0.66423 0.47329 0.01451 -0.00800
C 	C 	0.64602 0.46228 0.96949 -0.01800
C 	C 	0.61503 0.46485 0.97378 -0.05500
C 	C 	0.55722 0.43091 0.06499 -0.06200
C 	C 	0.53223 0.41213 0.06222 -0.06400
C 	C 	0.44875 0.34349 0.07531 -0.02500
C 	C 	0.41530 0.45894 0.96439 -0.05300
C 	C 	0.43666 0.53447 0.04083 0.09900
C 	C 	0.55224 0.56280 0.97522 -0.05500
C 	C 	0.53064 0.55675 0.01648 0.08200
C 	C 	0.52680 0.62586 0.06698 -0.05800
H 	H 	0.51081 0.47409 0.99586 0.10000
H 	H 	0.47523 0.52374 0.99155 0.09800
H 	H 	0.66497 0.49342 0.10054 0.03800
H 	H 	0.65587 0.45258 0.93056 0.04300
H 	H 	0.61034 0.49842 0.10752 0.04900
H 	H 	0.60113 0.45710 0.93820 0.04600
H 	H 	0.47652 0.31728 0.94639 0.04300
H 	H 	0.45237 0.39058 0.10639 0.05000
H 	H 	0.43669 0.33557 0.11329 0.03800
H 	H 	0.49270 0.37222 0.94027 0.04700
H 	H 	0.33609 0.56299 0.93432 0.04500
H 	H 	0.38991 0.55298 0.94644 0.04500
C 	C 	0.36297 0.50103 0.04547 -0.05200
H 	H 	0.31663 0.49369 0.06449 0.04000
H 	H 	0.54690 0.66891 0.09402 0.04300
H 	H 	0.53719 0.61246 0.10129 0.04900
H 	H 	0.48058 0.61743 0.95076 0.04600
H 	H 	0.49062 0.67389 0.94276 0.03800
H 	H 	0.57986 0.42232 0.06676 0.05000
H 	H 	0.53273 0.38691 0.06145 0.05000
H 	H 	0.42945 0.41147 0.94329 0.05100
H 	H 	0.39271 0.45923 0.94806 0.04800
H 	H 	0.45328 0.60419 0.08258 0.04900
H 	H 	0.40567 0.56937 0.07560 0.05000
H 	H 	0.58481 0.53046 0.93867 0.04800
H 	H 	0.55017 0.57949 0.94022 0.04900
H 	H 	0.37038 0.48377 0.07660 0.04600
Zn	Zn	0.39405 0.09068 0.02550 1.22000
C 	C 	0.33790 0.05924 0.01039 0.30200
O 	O 	0.41164 0.07367 0.09713 -0.46700
O 	O 	0.35269 0.03726 0.98292 -0.43300
O 	O 	0.38642 0.02779 0.09298 -0.50100
C 	C 	0.41027 0.06192 0.91843 0.32900
O 	O 	0.39375 0.08370 0.94188 -0.45100
O 	O 	0.41904 0.03819 0.94984 -0.51400
C 	C 	0.40174 0.04832 0.12263 0.31800
O 	O 	0.43765 0.12049 0.01041 -0.33400
Zn	Zn	0.39379 0.02163 0.01106 1.16700
O 	O 	0.35224 0.08052 0.04047 -0.43500
C 	C 	0.42148 0.14392 0.02706 0.26700
O 	O 	0.39414 0.13744 0.04024 -0.37000
C 	C 	0.51972 0.99925 0.57280 0.01000
C 	C 	0.49531 0.02029 0.57032 0.00900
C 	C 	0.52271 0.97586 0.53055 -0.05500
C 	C 	0.50166 0.97321 0.48577 0.00900
C 	C 	0.47406 0.01745 0.52585 -0.05500
C 	C 	0.47702 0.99398 0.48366 0.00900
H 	H 	0.45540 0.03342 0.52405 0.05000
H 	H 	0.54136 0.95988 0.53239 0.05000
C 	C 	0.45553 0.99004 0.43961 -0.01400
C 	C 	0.45925 0.96794 0.39541 0.00600
C 	C 	0.44219 0.97480 0.34490 -0.05600
C 	C 	0.42577 0.00243 0.34956 -0.00300
S 	S 	0.43329 0.01806 0.41418 -0.01200
H 	H 	0.44417 0.96214 0.30454 0.03800
C 	C 	0.50446 0.95002 0.44259 -0.01300
C 	C 	0.48433 0.94832 0.39597 0.00500
C 	C 	0.49707 0.93492 0.34506 -0.05300
C 	C 	0.52713 0.92709 0.35148 -0.00200
S 	S 	0.53705 0.93619 0.41904 -0.01100
H 	H 	0.48613 0.93471 0.30330 0.04000
C 	C 	0.53784 0.02553 0.66057 0.00600
C 	C 	0.54107 0.00280 0.61717 -0.01400
S 	S 	0.56128 0.97372 0.64490 -0.01100
C 	C 	0.56804 0.98925 0.70984 -0.00200
C 	C 	0.55370 0.01811 0.71227 -0.05400
C 	C 	0.49314 0.04409 0.61247 -0.01300
C 	C 	0.51344 0.04602 0.65868 0.00600
C 	C 	0.50137 0.06108 0.70859 -0.05400
C 	C 	0.47170 0.07032 0.70176 -0.00300
S 	S 	0.46112 0.05951 0.63533 -0.01100
H 	H 	0.51208 0.06087 0.75054 0.03800
H 	H 	0.55279 0.03191 0.75144 0.04000
Zn	Zn	0.60721 0.89863 0.02848 1.21900
C 	C 	0.66043 0.93685 0.03031 0.30700
O 	O 	0.58489 0.90625 0.10086 -0.47100
O 	O 	0.64446 0.96105 0.01450 -0.44500
O 	O 	0.60911 0.95112 0.12130 -0.49200
C 	C 	0.59217 0.93910 0.93420 0.33000
O 	O 	0.60815 0.91484 0.94947 -0.45500
O 	O 	0.58041 0.95722 0.97394 -0.51200
C 	C 	0.59379 0.92693 0.13896 0.31900
O 	O 	0.56878 0.86459 0.99762 -0.30600
Zn	Zn	0.60192 0.96787 0.04445 1.17000
O 	O 	0.64737 0.91205 0.05232 -0.44100
C 	C 	0.58785 0.84262 0.00860 0.26200
O 	O 	0.61341 0.85178 0.02799 -0.38800
Zn	Zn	0.10095 0.59851 0.97457 1.22200
C 	C 	0.05830 0.64822 0.95642 0.30700
O 	O 	0.08960 0.57932 0.04914 -0.46800
O 	O 	0.04076 0.62721 0.93278 -0.45300
O 	O 	0.04167 0.59628 0.04774 -0.50700
C 	C 	0.07503 0.57139 0.87362 0.33100
O 	O 	0.09288 0.59343 0.89203 -0.45300
O 	O 	0.05569 0.55874 0.90910 -0.51500
C 	C 	0.06528 0.58753 0.07680 0.32400
O 	O 	0.13868 0.56052 0.96309 -0.31200
Zn	Zn	0.03585 0.58338 0.96824 1.17000
O 	O 	0.08228 0.63954 0.98493 -0.42700
C 	C 	0.15686 0.58303 0.97572 0.26800
O 	O 	0.14458 0.60976 0.98610 -0.37900
C 	C 	0.02149 0.49625 0.52358 0.00900
C 	C 	0.99522 0.47783 0.52491 0.00900
C 	C 	0.02524 0.51886 0.47997 -0.05600
C 	C 	0.00270 0.52390 0.43877 0.00800
C 	C 	0.97320 0.48206 0.48229 -0.05600
C 	C 	0.97659 0.50523 0.43970 0.00900
H 	H 	0.95334 0.46773 0.48282 0.04900
H 	H 	0.04536 0.53278 0.47869 0.04900
C 	C 	0.95390 0.51116 0.39886 -0.01400
C 	C 	0.95717 0.53408 0.35583 0.00500
C 	C 	0.93919 0.52837 0.30598 -0.05500
C 	C 	0.92263 0.50080 0.30964 -0.00400
S 	S 	0.93074 0.48414 0.37303 -0.01100
H 	H 	0.94109 0.54140 0.26600 0.03800
C 	C 	0.00499 0.54808 0.39747 -0.01400
C 	C 	0.98286 0.55284 0.35531 0.00500
C 	C 	0.99369 0.56853 0.30500 -0.05400
C 	C 	0.02425 0.57471 0.30712 -0.00300
S 	S 	0.03705 0.56126 0.37021 -0.01300
H 	H 	0.98086 0.57145 0.26572 0.03900
C 	C 	0.03827 0.47156 0.61397 0.00600
C 	C 	0.04321 0.49188 0.56712 -0.01400
S 	S 	0.06604 0.51983 0.59039 -0.01100
C 	C 	0.07158 0.50719 0.65789 -0.00300
C 	C 	0.05466 0.48000 0.66461 -0.05500
C 	C 	0.99150 0.45581 0.56984 -0.01300
C 	C 	0.01230 0.45318 0.61518 0.00500
C 	C 	0.99965 0.44079 0.66717 -0.05400
C 	C 	0.96900 0.43536 0.66306 -0.00200
S 	S 	0.95847 0.44495 0.59617 -0.01300
H 	H 	0.01128 0.43990 0.70816 0.04200
H 	H 	0.05106 0.46952 0.70668 0.04100
Zn	Zn	0.89062 0.41210 0.98754 1.22100
C 	C 	0.83561 0.44688 0.97978 0.30800
O 	O 	0.91406 0.42144 0.91755 -0.47500
O 	O 	0.85011 0.47145 0.99876 -0.43800
O 	O 	0.88926 0.46571 0.89478 -0.49500
C 	C 	0.90240 0.45200 0.08360 0.33000
O 	O 	0.88656 0.42810 0.06621 -0.45800
O 	O 	0.91360 0.47154 0.04559 -0.52200
C 	C 	0.90506 0.44157 0.87856 0.32200
O 	O 	0.93087 0.38192 0.02239 -0.33300
Zn	Zn	0.89304 0.48131 0.97343 1.16900
O 	O 	0.85031 0.42255 0.95998 -0.43700
C 	C 	0.91436 0.35813 0.00922 0.26200
O 	O 	0.88862 0.36470 0.98715 -0.37200
C 	C 	0.98669 0.93792 0.01160 0.09100
N 	N 	0.97497 0.96526 0.99429 -0.16600
C 	C 	0.94641 0.96531 0.01219 0.09100
C 	C 	0.92421 0.98855 0.99210 -0.07100
C 	C 	0.93436 0.01963 0.97282 0.08800
C 	C 	0.89202 0.98229 0.99806 0.05200
C 	C 	0.87809 0.96050 0.96178 -0.06500
C 	C 	0.84723 0.95636 0.96443 -0.01400
C 	C 	0.83010 0.97424 0.00294 -0.01300
C 	C 	0.87499 0.99946 0.03781 -0.06700
N 	N 	0.95773 0.03443 0.99691 -0.12800
C 	C 	0.91881 0.03907 0.93575 -0.06100
C 	C 	0.95707 0.06349 0.97483 0.09100
C 	C 	0.98160 0.08609 0.98246 -0.07800
C 	C 	0.97492 0.11975 0.98154 0.05100
C 	C 	0.95562 0.16578 0.02973 -0.02600
C 	C 	0.97779 0.13671 0.92984 -0.06100
C 	C 	0.96914 0.16801 0.92781 -0.02600
C 	C 	0.95765 0.18255 0.97760 -0.00100
N 	N 	0.02233 0.04664 0.98426 -0.17400
C 	C 	0.05172 0.04708 0.99574 0.10600
C 	C 	0.06013 0.07592 0.01738 -0.06800
C 	C 	0.03450 0.09378 0.01941 -0.06800
C 	C 	0.07264 0.02309 0.97367 -0.07900
C 	C 	0.10490 0.02943 0.97198 0.05300
C 	C 	0.15345 0.02648 0.01756 -0.02600
C 	C 	0.16680 0.03751 0.96646 -0.00100
C 	C 	0.14897 0.04510 0.91847 -0.02500
C 	C 	0.11809 0.04108 0.92128 -0.06100
N 	N 	0.04138 0.97671 0.99545 -0.12800
C 	C 	0.05946 0.94313 0.92888 -0.06000
C 	C 	0.03989 0.94737 0.97463 0.08800
C 	C 	0.01535 0.92570 0.98902 -0.07100
C 	C 	0.02107 0.89184 0.98834 0.04900
C 	C 	0.03327 0.87725 0.03726 -0.06300
C 	C 	0.04048 0.84559 0.03554 -0.03000
C 	C 	0.03608 0.82838 0.98440 -0.00200
C 	C 	0.02316 0.84288 0.93591 -0.02200
C 	C 	0.01562 0.87448 0.93797 -0.06100
C 	C 	0.96551 0.92025 0.04057 -0.06200
C 	C 	0.93970 0.93785 0.04105 -0.06100
C 	C 	0.84415 0.99547 0.04023 -0.02200
C 	C 	0.93363 0.06716 0.93659 -0.06300
C 	C 	0.01177 0.07497 0.99882 0.10600
C 	C 	0.07390 0.97117 0.92158 -0.06200
C 	C 	0.06197 0.99112 0.96241 0.09000
C 	C 	0.12263 0.02234 0.02020 -0.06400
H 	H 	0.98303 0.97841 0.95947 0.09400
H 	H 	0.01242 0.03193 0.95375 0.09500
H 	H 	0.04962 0.83448 0.07380 0.03700
H 	H 	0.01946 0.82981 0.89636 0.04300
H 	H 	0.03730 0.89049 0.07649 0.04800
H 	H 	0.00607 0.88561 0.90009 0.04600
H 	H 	0.83657 0.93980 0.93568 0.04100
H 	H 	0.88561 0.01624 0.06616 0.05000
H 	H 	0.83113 0.00912 0.07059 0.03700
H 	H 	0.89111 0.94713 0.93099 0.04800
H 	H 	0.97112 0.18086 0.88752 0.03800
H 	H 	0.98621 0.12551 0.89104 0.04700
C 	C 	0.96408 0.13445 0.03160 -0.06500
H 	H 	0.94690 0.17684 0.06843 0.04400
H 	H 	0.16702 0.02065 0.05488 0.04300
H 	H 	0.11255 0.01332 0.05950 0.05100
H 	H 	0.10449 0.04664 0.88388 0.04600
H 	H 	0.15902 0.05400 0.87906 0.03800
H 	H 	0.96621 0.89518 0.04566 0.04800
H 	H 	0.91754 0.92846 0.04701 0.04800
H 	H 	0.89607 0.03570 0.92153 0.04900
H 	H 	0.92488 0.08915 0.92112 0.04900
H 	H 	0.08248 0.08534 0.01586 0.05100
H 	H 	0.03416 0.11901 0.01982 0.05100
H 	H 	0.05737 0.92542 0.89572 0.04700
H 	H 	0.08574 0.97826 0.88284 0.04700
H 	H 	0.96186 0.12148 0.07171 0.04900
C 	C 	0.94827 0.26647 0.01112 0.08700
C 	C 	0.92487 0.27469 0.97371 0.09100
N 	N 	0.91407 0.30425 0.97417 -0.09300
C 	C 	0.92598 0.32614 0.01007 -0.02700
C 	C 	0.94951 0.31792 0.04723 0.03700
N 	N 	0.96012 0.28821 0.04714 -0.11500
N 	N 	0.95879 0.23679 0.01126 -0.11900
N 	N 	0.91316 0.25302 0.93741 -0.10800
H 	H 	0.95913 0.33498 0.07629 0.03400
C 	C 	0.94706 0.21500 0.97491 0.05100
C 	C 	0.92381 0.22334 0.93718 -0.00100
H 	H 	0.91402 0.20618 0.90854 0.03800
C 	C 	0.94894 0.43827 0.71347 0.01800
C 	C 	0.94485 0.46718 0.74234 -0.01500
C 	C 	0.92945 0.46785 0.79530 0.00200
C 	C 	0.91760 0.44049 0.81934 -0.11600
C 	C 	0.91935 0.41218 0.78783 0.07200
C 	C 	0.93549 0.41131 0.73562 -0.08400
H 	H 	0.92706 0.48975 0.81830 0.01300
H 	H 	0.93785 0.38943 0.71250 0.05200
C 	C 	0.95478 0.49781 0.71552 -0.04900
C 	C 	0.90358 0.38292 0.80837 -0.07600
C 	C 	0.92956 0.51273 0.68092 -0.14500
H 	H 	0.97455 0.49532 0.68723 0.04100
H 	H 	0.96162 0.51422 0.75039 0.02700
H 	H 	0.92184 0.49686 0.64601 0.06200
H 	H 	0.93758 0.53468 0.66072 0.05300
H 	H 	0.91051 0.51830 0.70989 0.05500
C 	C 	0.92529 0.36019 0.83695 -0.13900
H 	H 	0.89311 0.37114 0.77058 0.04600
H 	H 	0.88509 0.38824 0.83881 0.05300
H 	H 	0.94193 0.35185 0.80482 0.06000
H 	H 	0.91285 0.33974 0.85384 0.07000
H 	H 	0.93716 0.37138 0.87364 0.07600
C 	C 	0.91544 0.48239 0.25765 0.01600
C 	C 	0.88680 0.48385 0.23246 -0.01000
C 	C 	0.88239 0.47191 0.17642 -0.00000
C 	C 	0.90599 0.45822 0.14585 -0.11300
C 	C 	0.93387 0.45410 0.17328 0.06600
C 	C 	0.93831 0.46622 0.22914 -0.08400
H 	H 	0.86085 0.47445 0.15567 0.03400
H 	H 	0.95992 0.46396 0.24973 0.05000
C 	C 	0.86110 0.49932 0.26377 -0.05200
C 	C 	0.95830 0.43499 0.14517 -0.07700
C 	C 	0.85882 0.53376 0.24772 -0.14300
H 	H 	0.86341 0.49694 0.31156 0.04200
H 	H 	0.83987 0.48757 0.25203 0.04000
H 	H 	0.87937 0.54639 0.26046 0.05600
H 	H 	0.83964 0.54438 0.27083 0.05400
H 	H 	0.85529 0.53646 0.20028 0.05300
C 	C 	0.95411 0.40038 0.15813 -0.13700
H 	H 	0.98044 0.44240 0.16179 0.03800
H 	H 	0.95899 0.43862 0.09750 0.04600
H 	H 	0.95544 0.39609 0.20560 0.05900
H 	H 	0.97193 0.38678 0.13634 0.06000
H 	H 	0.93219 0.39218 0.14189 0.07200
C 	C 	0.03397 0.74324 0.95600 0.09300
C 	C 	0.06187 0.73374 0.97705 0.08400
N 	N 	0.06946 0.70313 0.97576 -0.09000
C 	C 	0.05035 0.68149 0.95388 -0.04000
C 	C 	0.02260 0.69113 0.93186 0.04000
N 	N 	0.01497 0.72181 0.93355 -0.11800
N 	N 	0.02607 0.77377 0.95870 -0.11900
N 	N 	0.08100 0.75519 0.99902 -0.10300
H 	H 	0.00709 0.67432 0.91422 0.02500
C 	C 	0.04505 0.79530 0.98148 0.05400
C 	C 	0.07325 0.78580 0.00131 -0.01100
H 	H 	0.08893 0.80271 0.01810 0.03900
C 	C 	0.07679 0.56057 0.81328 -0.10700
C 	C 	0.05258 0.56490 0.77491 0.06000
C 	C 	0.05228 0.54899 0.72178 -0.07900
C 	C 	0.07574 0.52901 0.70650 0.01500
C 	C 	0.10129 0.52732 0.74211 -0.00700
C 	C 	0.10147 0.54296 0.79563 0.00100
H 	H 	0.03320 0.55120 0.69323 0.04800
H 	H 	0.12039 0.54044 0.82448 0.04100
C 	C 	0.02768 0.58756 0.78894 -0.06500
C 	C 	0.12814 0.50823 0.72438 -0.05100
C 	C 	0.03738 0.62115 0.77794 -0.14400
H 	H 	0.02026 0.58504 0.83464 0.01500
H 	H 	0.00777 0.58258 0.76180 0.03100
H 	H 	0.05654 0.62743 0.80604 0.07400
H 	H 	0.01865 0.63717 0.78797 0.05600
H 	H 	0.04378 0.62430 0.73173 0.06100
C 	C 	0.12687 0.47554 0.75038 -0.14500
H 	H 	0.14882 0.51991 0.73956 0.04200
H 	H 	0.13000 0.50658 0.67639 0.04200
H 	H 	0.12619 0.47676 0.79852 0.06200
H 	H 	0.14702 0.46229 0.73727 0.05900
H 	H 	0.10693 0.46283 0.73462 0.06000
C 	C 	0.06310 0.58312 0.13975 -0.11500
C 	C 	0.06295 0.60898 0.17764 0.07200
C 	C 	0.05248 0.60524 0.23464 -0.08500
C 	C 	0.04269 0.57607 0.25428 0.01700
C 	C 	0.04638 0.54948 0.21835 -0.01400
C 	C 	0.05668 0.55337 0.16132 0.00100
H 	H 	0.05064 0.62538 0.26284 0.05100
H 	H 	0.05847 0.53332 0.13289 0.02100
C 	C 	0.07355 0.64075 0.15763 -0.08000
C 	C 	0.04103 0.51674 0.24102 -0.04900
C 	C 	0.04756 0.66117 0.13812 -0.13300
H 	H 	0.08994 0.63867 0.12168 0.05500
H 	H 	0.08533 0.65266 0.19378 0.04600
H 	H 	0.03567 0.65038 0.10105 0.06700
H 	H 	0.05612 0.68425 0.12403 0.06200
H 	H 	0.03165 0.66476 0.17445 0.05400
C 	C 	0.06945 0.50316 0.26701 -0.14600
H 	H 	0.03360 0.50139 0.20497 0.03100
H 	H 	0.02297 0.51580 0.27375 0.04100
H 	H 	0.08707 0.50139 0.23329 0.06100
H 	H 	0.06485 0.47946 0.28420 0.05700
H 	H 	0.07764 0.51797 0.30311 0.06300
C 	C 	0.73644 0.96765 0.00609 0.07900
C 	C 	0.75415 0.94162 0.01935 0.09300
N 	N 	0.78429 0.94403 0.01729 -0.11700
C 	C 	0.79746 0.97156 0.00285 0.04400
C 	C 	0.77969 0.99746 0.98900 0.00400
N 	N 	0.74953 0.99498 0.99092 -0.10700
N 	N 	0.70636 0.96549 0.00956 -0.09600
N 	N 	0.74103 0.91441 0.03522 -0.11600
H 	H 	0.78986 0.01942 0.97695 0.03700
C 	C 	0.69309 0.93836 0.02605 -0.04000
C 	C 	0.71085 0.91221 0.03880 0.04200
H 	H 	0.70073 0.89034 0.05146 0.03800
C 	C 	0.58672 0.94572 0.87242 -0.11300
C 	C 	0.61025 0.95464 0.83491 0.06800
C 	C 	0.60357 0.96632 0.77953 -0.08400
C 	C 	0.57400 0.97032 0.76191 0.01600
C 	C 	0.55053 0.95918 0.79766 -0.01000
C 	C 	0.55725 0.94690 0.85258 0.00400
H 	H 	0.62149 0.97364 0.75102 0.05100
H 	H 	0.53936 0.93907 0.88066 0.03200
C 	C 	0.64258 0.95151 0.85290 -0.08000
C 	C 	0.51828 0.95984 0.77792 -0.05300
C 	C 	0.65486 0.91948 0.83690 -0.13300
H 	H 	0.64558 0.95567 0.89997 0.05900
H 	H 	0.65625 0.96958 0.83077 0.04500
H 	H 	0.64170 0.90071 0.85796 0.07400
H 	H 	0.67832 0.91761 0.85169 0.06100
H 	H 	0.65425 0.91617 0.78911 0.05800
C 	C 	0.50057 0.98528 0.80897 -0.14100
H 	H 	0.50783 0.93694 0.78769 0.03900
H 	H 	0.51606 0.96305 0.73042 0.04400
H 	H 	0.49903 0.98017 0.85613 0.05200
H 	H 	0.47765 0.98628 0.79099 0.05300
H 	H 	0.51114 0.00840 0.80299 0.05700
C 	C 	0.58060 0.92722 0.19774 -0.11600
C 	C 	0.57771 0.89960 0.23113 0.07500
C 	C 	0.56092 0.90032 0.28268 -0.08500
C 	C 	0.54829 0.92822 0.30251 0.01800
C 	C 	0.55441 0.95647 0.27276 -0.01200
C 	C 	0.56993 0.95549 0.22003 0.00100
H 	H 	0.55757 0.87906 0.30729 0.05200
H 	H 	0.57346 0.97690 0.19594 0.01300
C 	C 	0.59459 0.87013 0.21546 -0.08400
C 	C 	0.54568 0.98797 0.29738 -0.05300
C 	C 	0.62782 0.87350 0.22805 -0.13300
H 	H 	0.59124 0.86374 0.16937 0.06100
H 	H 	0.58602 0.85002 0.24093 0.04700
H 	H 	0.63785 0.89199 0.20056 0.06500
H 	H 	0.63929 0.85116 0.21843 0.05800
H 	H 	0.63141 0.87931 0.27450 0.05800
C 	C 	0.51952 0.00218 0.26449 -0.14000
H 	H 	0.56501 0.00405 0.29369 0.03600
H 	H 	0.54016 0.98711 0.34414 0.04400
H 	H 	0.52496 0.00488 0.21774 0.04300
H 	H 	0.51468 0.02560 0.28257 0.05000
H 	H 	0.49934 0.98747 0.26894 0.05500
C 	C 	0.26053 0.04299 0.96353 0.09000
C 	C 	0.24399 0.05958 0.00504 0.08800
N 	N 	0.21380 0.05818 0.00433 -0.11900
C 	C 	0.19937 0.04101 0.96342 0.05200
C 	C 	0.21593 0.02480 0.92137 -0.00100
N 	N 	0.24620 0.02609 0.92233 -0.10900
N 	N 	0.29075 0.04337 0.96570 -0.09300
N 	N 	0.25830 0.07624 0.04657 -0.11400
H 	H 	0.20480 0.01074 0.88900 0.03800
C 	C 	0.30519 0.05992 0.00752 -0.03900
C 	C 	0.28855 0.07683 0.04859 0.04300
H 	H 	0.29961 0.08994 0.08241 0.04200
C 	C 	0.42151 0.06576 0.85875 -0.10700
C 	C 	0.41931 0.04133 0.81768 0.06300
C 	C 	0.43467 0.04385 0.76481 -0.08100
C 	C 	0.45090 0.07085 0.75132 0.01500
C 	C 	0.44996 0.09667 0.78938 -0.00800
C 	C 	0.43574 0.09366 0.84335 0.00100
H 	H 	0.43452 0.02447 0.73464 0.04900
H 	H 	0.43626 0.11289 0.87386 0.04300
C 	C 	0.39865 0.01384 0.82739 -0.07100
C 	C 	0.46379 0.12764 0.77289 -0.05200
C 	C 	0.36617 0.02315 0.81841 -0.14400
H 	H 	0.40150 0.00379 0.87134 0.02400
H 	H 	0.40403 0.99467 0.79666 0.03600
H 	H 	0.35935 0.04110 0.85049 0.07100
H 	H 	0.35167 0.00241 0.82417 0.05500
H 	H 	0.36287 0.03245 0.77387 0.06200
C 	C 	0.49398 0.13215 0.80211 -0.14400
H 	H 	0.44873 0.14686 0.78662 0.04300
H 	H 	0.46639 0.12998 0.72515 0.04200
H 	H 	0.49159 0.13148 0.85008 0.06100
H 	H 	0.50329 0.15517 0.78962 0.05800
H 	H 	0.50984 0.11379 0.78829 0.05800
C 	C 	0.40718 0.04307 0.18511 -0.10900
C 	C 	0.43621 0.04520 0.20919 0.05800
C 	C 	0.44093 0.03556 0.26667 -0.08100
C 	C 	0.41806 0.02136 0.29843 0.01400
C 	C 	0.38877 0.02138 0.27626 -0.00900
C 	C 	0.38356 0.03241 0.21983 -0.00000
H 	H 	0.46290 0.03752 0.28562 0.04700
H 	H 	0.36122 0.03154 0.20205 0.03900
C 	C 	0.46242 0.05742 0.17442 -0.06800
C 	C 	0.36309 0.00838 0.31133 -0.05200
C 	C 	0.46587 0.09258 0.18203 -0.13800
H 	H 	0.46061 0.05147 0.12773 0.03400
H 	H 	0.48328 0.04602 0.18935 0.02900
H 	H 	0.44526 0.10501 0.16895 0.07500
H 	H 	0.48455 0.10104 0.15463 0.05500
H 	H 	0.47089 0.09819 0.22805 0.05700
C 	C 	0.35834 0.97385 0.29843 -0.14300
H 	H 	0.34230 0.02127 0.30078 0.03900
H 	H 	0.36688 0.01163 0.35858 0.04200
H 	H 	0.35333 0.97037 0.25168 0.05600
H 	H 	0.33924 0.96504 0.32431 0.05500
H 	H 	0.37843 0.96014 0.31012 0.05800
C 	C 	0.45352 0.23636 0.02363 0.09200
C 	C 	0.42341 0.23010 0.03542 0.08700
N 	N 	0.41360 0.20018 0.03666 -0.09200
C 	C 	0.43266 0.17613 0.02633 -0.02300
C 	C 	0.46282 0.18245 0.01455 0.03500
N 	N 	0.47262 0.21245 0.01347 -0.11600
N 	N 	0.46330 0.26630 0.02219 -0.11800
N 	N 	0.40424 0.25401 0.04503 -0.10600
H 	H 	0.47833 0.16364 0.00636 0.03500
C 	C 	0.44415 0.29033 0.03219 0.04900
C 	C 	0.41397 0.28401 0.04348 -0.00100
H 	H 	0.39835 0.30286 0.05044 0.03900
C 	C 	0.24954 0.56872 0.99053 0.09400
C 	C 	0.23039 0.54387 0.97712 0.08800
N 	N 	0.20066 0.54902 0.97218 -0.09300
C 	C 	0.18920 0.57808 0.98022 -0.01900
C 	C 	0.20844 0.60298 0.99330 0.03800
N 	N 	0.23822 0.59777 0.99821 -0.11200
N 	N 	0.27920 0.56346 0.99652 -0.11500
N 	N 	0.24167 0.51477 0.96982 -0.10600
H 	H 	0.19978 0.62627 0.99964 0.04600
C 	C 	0.29052 0.53423 0.98991 0.04700
C 	C 	0.27136 0.50946 0.97585 0.00100
H 	H 	0.28008 0.48616 0.96975 0.03900
C 	C 	0.74167 0.44648 0.98816 0.09300
C 	C 	0.75784 0.47407 0.99714 0.08900
N 	N 	0.78799 0.47371 0.99337 -0.09500
C 	C 	0.80281 0.44687 0.98076 -0.03500
C 	C 	0.78657 0.41930 0.97112 0.04400
N 	N 	0.75631 0.41968 0.97510 -0.11400
N 	N 	0.71152 0.44667 0.99352 -0.11300
N 	N 	0.74327 0.50085 0.01039 -0.11300
H 	H 	0.79792 0.39768 0.96131 0.04200
C 	C 	0.69689 0.47344 0.00769 0.04400
C 	C 	0.71312 0.50113 0.01562 -0.00100
H 	H 	0.70177 0.52271 0.02580 0.03600
C 	C 	0.54260 0.77042 0.00393 0.08500
C 	C 	0.56471 0.74736 0.00788 0.09300
N 	N 	0.55680 0.71689 0.01114 -0.11700
C 	C 	0.52758 0.70840 0.01061 0.04900
C 	C 	0.50547 0.73148 0.00623 -0.00200
N 	N 	0.51344 0.76204 0.00293 -0.10800
N 	N 	0.55050 0.80099 0.00296 -0.09500
N 	N 	0.59383 0.75572 0.01008 -0.11500
H 	H 	0.48213 0.72516 0.00652 0.03700
C 	C 	0.57970 0.80946 0.00612 -0.02100
C 	C 	0.60179 0.78628 0.00923 0.03600
H 	H 	0.62512 0.79256 0.01120 0.04100
