data_crystal

_cell_length_a 30.48846
_cell_length_b 27.04028
_cell_length_c 29.80921
_cell_angle_alpha 103.68273
_cell_angle_beta  115.78426
_cell_angle_gamma 112.21317

_symmetry_space_group_name_	'P 1'
_symmetry_space_group_name_H-M	'P 1'

loop_
_symmetry_equiv_pos_as_xyz
  x,y,z

loop_
_atom_site_label
_atom_site_type_symbol
_atom_site_fract_x
_atom_site_fract_y
_atom_site_fract_z
_atom_site_charge
C 	C 	0.63633 0.30532 0.90230 0.02300
C 	C 	0.63170 0.25043 0.87916 -0.02200
C 	C 	0.66588 0.24768 0.85994 0.02300
C 	C 	0.70047 0.29883 0.85872 -0.02300
C 	C 	0.70592 0.35421 0.88242 0.02100
C 	C 	0.67151 0.35640 0.90152 -0.02300
C 	C 	0.61853 0.30807 0.93915 -0.05700
S 	S 	0.60846 0.20814 0.90614 -0.01200
C 	C 	0.68402 0.20633 0.85928 -0.06000
S 	S 	0.75302 0.29286 0.85912 -0.01100
C 	C 	0.75573 0.41236 0.90600 -0.05700
S 	S 	0.70416 0.42880 0.94786 -0.00600
C 	C 	0.60144 0.25583 0.94574 -0.00300
H 	H 	0.61590 0.34532 0.95817 0.04800
C 	C 	0.73260 0.22545 0.85748 -0.00100
H 	H 	0.66729 0.16861 0.86700 0.04600
C 	C 	0.76103 0.45939 0.94470 -0.00400
H 	H 	0.78581 0.41995 0.89433 0.04600
C 	C 	0.85742 0.64369 0.98086 0.00500
C 	C 	0.81494 0.59697 0.92437 -0.03400
C 	C 	0.78238 0.53695 0.91252 -0.04900
C 	C 	0.79217 0.52307 0.95707 0.03000
C 	C 	0.83348 0.56998 0.01357 -0.06400
C 	C 	0.86617 0.63012 0.02545 -0.05000
H 	H 	0.80777 0.60709 0.88968 0.03600
H 	H 	0.74997 0.50114 0.86873 0.04100
H 	H 	0.84102 0.55971 0.04821 0.03600
H 	H 	0.89855 0.66602 0.06920 0.03000
C 	C 	0.47546 0.20382 0.98291 0.00500
C 	C 	0.53001 0.25916 0.02184 -0.04700
C 	C 	0.57212 0.27485 0.01084 -0.06300
C 	C 	0.55995 0.23552 0.96068 0.03000
C 	C 	0.50619 0.17897 0.92293 -0.04800
C 	C 	0.46440 0.16309 0.93426 -0.03400
H 	H 	0.53905 0.29087 0.05961 0.03600
H 	H 	0.61362 0.31829 0.04054 0.03700
H 	H 	0.49588 0.14826 0.88385 0.04100
H 	H 	0.42260 0.12001 0.90421 0.03500
C 	C 	0.85852 0.17964 0.92223 -0.00300
C 	C 	0.83385 0.18971 0.95081 -0.03500
C 	C 	0.79178 0.20344 0.92915 -0.04400
C 	C 	0.77366 0.20668 0.87841 0.01200
C 	C 	0.79779 0.19580 0.84948 -0.04500
C 	C 	0.84001 0.18229 0.87126 -0.03700
H 	H 	0.84772 0.18753 0.99009 0.03800
H 	H 	0.77418 0.21275 0.95238 0.04100
H 	H 	0.78427 0.19846 0.81044 0.03800
H 	H 	0.85892 0.17471 0.84897 0.03300
C 	C 	0.44290 0.19296 0.26135 0.01800
C 	C 	0.44968 0.14360 0.25434 -0.02500
C 	C 	0.50441 0.15334 0.27211 0.02100
C 	C 	0.55073 0.21136 0.29176 -0.02300
C 	C 	0.54242 0.25885 0.29166 0.02100
C 	C 	0.48839 0.24963 0.27696 -0.02300
C 	C 	0.39743 0.18444 0.26776 -0.06500
S 	S 	0.40139 0.09232 0.25796 -0.01700
C 	C 	0.51272 0.10629 0.25394 -0.06100
S 	S 	0.59881 0.20344 0.28401 -0.01500
C 	C 	0.58895 0.32109 0.32618 -0.06000
S 	S 	0.49944 0.31734 0.30817 -0.02200
C 	C 	0.36846 0.12799 0.26477 -0.00400
H 	H 	0.39098 0.22042 0.28107 0.03800
C 	C 	0.56460 0.12782 0.25762 0.00000
H 	H 	0.48277 0.05913 0.23968 0.04500
C 	C 	0.57150 0.35991 0.33985 0.00200
H 	H 	0.63376 0.33684 0.34212 0.04500
C 	C 	0.67630 0.54491 0.38225 -0.00500
C 	C 	0.69794 0.52309 0.41922 -0.03600
C 	C 	0.66236 0.46363 0.40702 -0.04500
C 	C 	0.60489 0.42538 0.35768 0.01100
C 	C 	0.58233 0.44828 0.32222 -0.04400
C 	C 	0.61783 0.50787 0.33460 -0.03600
H 	H 	0.74289 0.55141 0.45626 0.03400
H 	H 	0.68009 0.44655 0.43488 0.03700
H 	H 	0.53817 0.41924 0.28387 0.03900
H 	H 	0.60051 0.52455 0.30613 0.03600
C 	C 	0.27319 0.09052 0.33684 -0.00600
C 	C 	0.33429 0.12987 0.37242 -0.03700
C 	C 	0.36547 0.14266 0.34892 -0.04400
C 	C 	0.33587 0.11600 0.28972 0.00700
C 	C 	0.27502 0.07645 0.25420 -0.04200
C 	C 	0.24382 0.06365 0.27760 -0.03900
H 	H 	0.35757 0.15027 0.41817 0.03500
H 	H 	0.41257 0.17297 0.37666 0.04000
H 	H 	0.25190 0.05544 0.20844 0.03000
H 	H 	0.19686 0.03265 0.24976 0.04700
C 	C 	0.67271 0.05775 0.29251 -0.00100
C 	C 	0.63150 0.04137 0.30483 -0.03900
C 	C 	0.59328 0.06087 0.29028 -0.04300
C 	C 	0.59571 0.09651 0.26277 0.01000
C 	C 	0.63385 0.10860 0.24652 -0.04500
C 	C 	0.67251 0.08977 0.26176 -0.04000
H 	H 	0.63084 0.01590 0.32791 0.03400
H 	H 	0.56374 0.05057 0.30264 0.03700
H 	H 	0.63500 0.13453 0.22390 0.03600
H 	H 	0.70341 0.10152 0.25104 0.03400
C 	C 	0.59457 0.84413 0.10507 0.01900
C 	C 	0.59757 0.89818 0.12751 -0.02400
C 	C 	0.56540 0.90019 0.14942 0.02100
C 	C 	0.52733 0.84651 0.14527 -0.02400
C 	C 	0.51787 0.79074 0.11533 0.02100
C 	C 	0.55167 0.78980 0.09537 -0.02200
C 	C 	0.64575 0.85398 0.10948 -0.06100
S 	S 	0.66317 0.95628 0.15347 -0.00800
C 	C 	0.55060 0.94404 0.15526 -0.05500
S 	S 	0.47651 0.85387 0.14735 -0.01000
C 	C 	0.49271 0.73854 0.12080 -0.06200
S 	S 	0.55162 0.72661 0.08682 -0.02600
C 	C 	0.68915 0.91596 0.13652 -0.00800
H 	H 	0.65007 0.81762 0.09192 0.03900
C 	C 	0.50121 0.92451 0.15597 0.00100
H 	H 	0.57032 0.98420 0.15166 0.05000
C 	C 	0.50824 0.69784 0.10644 0.00200
H 	H 	0.46449 0.73084 0.13476 0.04700
C 	C 	0.39339 0.51130 0.05235 0.01100
C 	C 	0.37537 0.53744 0.01852 -0.06700
C 	C 	0.41394 0.59768 0.03467 -0.03200
C 	C 	0.47080 0.63216 0.08477 0.00400
C 	C 	0.48969 0.60506 0.11701 -0.03900
C 	C 	0.45113 0.54484 0.10090 -0.04500
H 	H 	0.33099 0.51180 0.98082 0.05800
H 	H 	0.39914 0.61815 0.00925 0.03500
H 	H 	0.53361 0.63124 0.15554 0.03500
H 	H 	0.46558 0.52482 0.12700 0.03800
C 	C 	0.81442 0.97163 0.09876 -0.02400
C 	C 	0.81553 0.93929 0.12932 -0.02900
C 	C 	0.77590 0.92303 0.14339 -0.05300
C 	C 	0.73454 0.93860 0.12668 0.01600
C 	C 	0.73416 0.97196 0.09697 -0.05600
C 	C 	0.77408 0.98858 0.08329 -0.00700
H 	H 	0.84610 0.92548 0.14092 0.03500
H 	H 	0.77661 0.89736 0.16635 0.01800
H 	H 	0.70198 0.98356 0.08310 0.04500
H 	H 	0.77294 0.01360 0.05972 0.01400
C 	C 	0.38116 0.97969 0.10214 -0.02000
C 	C 	0.42183 0.99403 0.08915 -0.00400
C 	C 	0.46247 0.97801 0.10808 -0.05400
C 	C 	0.46347 0.94846 0.14126 0.02200
C 	C 	0.42463 0.93723 0.15670 -0.04900
C 	C 	0.38327 0.95214 0.13670 -0.02400
H 	H 	0.42059 0.01560 0.06265 0.01800
H 	H 	0.49141 0.98646 0.09504 0.04500
H 	H 	0.42593 0.91612 0.18355 0.04400
H 	H 	0.35256 0.94182 0.14766 0.03800
C 	C 	0.36913 0.70530 0.43485 0.02300
C 	C 	0.38415 0.75846 0.47641 -0.02400
C 	C 	0.35331 0.75464 0.50059 0.02400
C 	C 	0.30447 0.69773 0.47966 -0.02400
C 	C 	0.28395 0.64624 0.43229 0.02400
C 	C 	0.31722 0.65000 0.41072 -0.02200
C 	C 	0.41645 0.71043 0.43335 -0.05900
S 	S 	0.45513 0.80932 0.51134 -0.00700
C 	C 	0.35246 0.80463 0.52800 -0.05900
S 	S 	0.26170 0.71038 0.49389 -0.00600
C 	C 	0.24665 0.58600 0.41905 -0.05900
S 	S 	0.30309 0.58068 0.37968 -0.01200
C 	C 	0.46866 0.76717 0.47492 -0.00000
H 	H 	0.41244 0.67494 0.40263 0.04600
C 	C 	0.30286 0.78646 0.52820 0.00000
H 	H 	0.38106 0.85071 0.53819 0.04800
C 	C 	0.25178 0.54335 0.38806 0.00000
H 	H 	0.22452 0.57569 0.43904 0.04800
C 	C 	0.18878 0.37177 0.38477 -0.00500
C 	C 	0.22947 0.42573 0.43702 -0.03500
C 	C 	0.25352 0.48194 0.43847 -0.04500
C 	C 	0.23650 0.48472 0.38763 0.01300
C 	C 	0.19913 0.43066 0.33574 -0.04500
C 	C 	0.17537 0.37431 0.33428 -0.03700
H 	H 	0.24065 0.42424 0.47629 0.03700
H 	H 	0.28358 0.52345 0.47891 0.04100
H 	H 	0.18651 0.43237 0.29636 0.03900
H 	H 	0.14499 0.33279 0.29383 0.03300
C 	C 	0.61274 0.83733 0.46324 -0.00400
C 	C 	0.58729 0.77890 0.45790 -0.03500
C 	C 	0.54111 0.75669 0.46288 -0.04400
C 	C 	0.51924 0.79224 0.47239 0.01300
C 	C 	0.54472 0.85078 0.47773 -0.04300
C 	C 	0.59151 0.87332 0.47356 -0.03500
H 	H 	0.60311 0.75058 0.44957 0.03600
H 	H 	0.52214 0.71170 0.45911 0.03900
H 	H 	0.52781 0.87843 0.48418 0.04300
H 	H 	0.61102 0.91860 0.47802 0.03900
C 	C 	0.20137 0.86321 0.50349 -0.00400
C 	C 	0.23322 0.86973 0.48029 -0.03300
C 	C 	0.27051 0.84914 0.49203 -0.04300
C 	C 	0.27656 0.82227 0.52751 0.01400
C 	C 	0.24821 0.82029 0.55423 -0.04200
C 	C 	0.21054 0.84046 0.54208 -0.03400
H 	H 	0.22671 0.88776 0.45080 0.04100
H 	H 	0.29193 0.85077 0.47092 0.04200
H 	H 	0.25295 0.80014 0.58204 0.04300
H 	H 	0.18660 0.83597 0.56071 0.03900
Zn	Zn	0.24357 0.19421 0.06587 1.18300
Zn	Zn	0.14281 0.14441 0.94691 1.19600
O 	O 	0.12339 0.04094 0.84806 -0.47900
O 	O 	0.10452 0.11556 0.86207 -0.43500
O 	O 	0.15647 0.98345 0.94148 -0.48000
C 	C 	0.29199 0.16194 0.01148 0.30100
O 	O 	0.09231 0.06143 0.93018 -0.87800
C 	C 	0.24380 0.27682 0.01706 0.30300
O 	O 	0.30515 0.19152 0.06190 -0.46400
O 	O 	0.23752 0.13003 0.96683 -0.37700
O 	O 	0.16503 0.15668 0.02617 -0.78800
O 	O 	0.19593 0.06098 0.02653 -0.48900
O 	O 	0.19999 0.22874 0.96636 -0.43600
O 	O 	0.26168 0.27207 0.06387 -0.46400
Zn	Zn	0.99161 0.96172 0.95488 1.17500
Zn	Zn	0.09766 0.99849 0.06244 1.19500
Zn	Zn	0.11646 0.07321 0.00501 1.20900
C 	C 	0.99188 0.87458 0.00097 0.28200
C 	C 	0.96630 0.00848 0.02726 0.27100
O 	O 	0.03955 0.09190 0.98674 -0.44600
Zn	Zn	0.10395 0.11327 0.10426 1.20000
O 	O 	0.04898 0.91146 0.03945 -0.44000
O 	O 	0.96426 0.88312 0.95811 -0.45100
O 	O 	0.94472 0.98280 0.97313 -0.44600
O 	O 	0.01858 0.02230 0.06432 -0.47300
C 	C 	0.11968 0.05834 0.17525 0.32500
O 	O 	0.06742 0.98937 0.98278 -0.77000
C 	C 	0.03687 0.13148 0.01948 0.31000
O 	O 	0.12780 0.02239 0.14578 -0.44700
O 	O 	0.13125 0.11049 0.17553 -0.47300
O 	O 	0.06671 0.15104 0.07441 -0.49200
O 	O 	0.13987 0.08352 0.07959 -0.89100
Zn	Zn	0.11529 0.01423 0.90175 1.18200
C 	C 	0.10085 0.07033 0.82825 0.30700
C 	C 	0.19515 0.01563 0.99685 0.34000
H 	H 	0.18250 0.10564 0.10815 0.16000
H 	H 	0.05024 0.04462 0.90408 0.15200
Zn	Zn	0.06895 0.08485 0.45270 1.18300
Zn	Zn	0.96610 0.02544 0.33291 1.18400
O 	O 	0.96502 0.91585 0.25157 -0.46100
O 	O 	0.94486 0.98940 0.25342 -0.44300
O 	O 	0.97475 0.86141 0.34582 -0.51600
C 	C 	0.12017 0.04382 0.40644 0.29800
O 	O 	0.91851 0.94414 0.32105 -0.87000
C 	C 	0.06406 0.15577 0.39115 0.31500
O 	O 	0.13258 0.08153 0.45355 -0.46800
O 	O 	0.06556 0.00095 0.36476 -0.37300
O 	O 	0.98960 0.04537 0.41340 -0.79900
O 	O 	0.02062 0.95021 0.42467 -0.44900
O 	O 	0.01189 0.10935 0.34576 -0.45500
O 	O 	0.08581 0.15775 0.44113 -0.46200
Zn	Zn	0.81934 0.85869 0.35569 1.17700
Zn	Zn	0.92156 0.90276 0.46496 1.18600
Zn	Zn	0.94171 0.96402 0.39764 1.21800
C 	C 	0.81801 0.77500 0.40494 0.32000
C 	C 	0.79202 0.90612 0.42672 0.32400
O 	O 	0.86302 0.98144 0.37153 -0.45900
Zn	Zn	0.92732 0.01348 0.49345 1.19200
O 	O 	0.87098 0.81934 0.45094 -0.45600
O 	O 	0.79206 0.78125 0.35992 -0.46800
O 	O 	0.77335 0.88173 0.37337 -0.48000
O 	O 	0.84586 0.92603 0.46685 -0.48500
C 	C 	0.97673 0.99105 0.58845 0.32700
O 	O 	0.89380 0.88336 0.38283 -0.80000
C 	C 	0.85696 0.02061 0.40027 0.30500
O 	O 	0.96128 0.93829 0.55167 -0.44000
O 	O 	0.96544 0.02859 0.57201 -0.49100
O 	O 	0.88585 0.04427 0.45567 -0.49800
O 	O 	0.96479 0.98271 0.47344 -0.89400
Zn	Zn	0.94031 0.89138 0.29874 1.18500
C 	C 	0.96787 0.96105 0.24066 0.27400
C 	C 	0.01602 0.89940 0.40010 0.34300
H 	H 	0.00733 0.00545 0.50278 0.16800
H 	H 	0.87626 0.92615 0.29431 0.14400
C 	C 	0.06978 0.05126 0.76724 -0.09700
C 	C 	0.10007 0.07237 0.74405 0.04600
C 	C 	0.06899 0.05027 0.68502 -0.02600
C 	C 	0.00828 0.00893 0.64927 -0.08800
C 	C 	0.97798 0.98829 0.67260 0.04200
C 	C 	0.00915 0.00985 0.73150 -0.02200
H 	H 	0.09207 0.06593 0.66696 0.02400
H 	H 	0.98605 0.99443 0.74961 0.01100
C 	C 	0.16556 0.11769 0.78153 -0.07100
C 	C 	0.91211 0.94621 0.63578 -0.08400
C 	C 	0.19758 0.08521 0.78673 -0.13600
H 	H 	0.18116 0.14872 0.82457 0.05100
H 	H 	0.17753 0.14735 0.76315 0.03700
H 	H 	0.18857 0.05709 0.80718 0.06600
H 	H 	0.24529 0.11947 0.81324 0.05000
H 	H 	0.18390 0.05552 0.74413 0.05000
C 	C 	0.88383 0.98257 0.63147 -0.08600
H 	H 	0.89855 0.91755 0.65433 0.03500
H 	H 	0.89506 0.91403 0.59254 0.05300
H 	H 	0.90158 0.01612 0.67448 0.02700
H 	H 	0.83610 0.95118 0.60849 0.04300
H 	H 	0.89162 0.00694 0.60785 0.03800
C 	C 	0.08377 0.03309 0.19490 -0.13800
C 	C 	0.09393 0.06990 0.24552 0.07900
C 	C 	0.05452 0.04570 0.25879 -0.07400
C 	C 	0.00497 0.98606 0.22238 -0.00500
C 	C 	0.99409 0.94977 0.17133 -0.02500
C 	C 	0.03462 0.97294 0.15910 0.05000
H 	H 	0.06296 0.07327 0.29811 0.04500
H 	H 	0.02622 0.94497 0.11998 0.03300
C 	C 	0.14566 0.13537 0.28532 -0.08100
C 	C 	0.93866 0.88697 0.12847 -0.04000
C 	C 	0.12803 0.17956 0.27460 -0.12900
H 	H 	0.18252 0.14368 0.28218 0.05400
H 	H 	0.16265 0.14559 0.32995 0.04500
H 	H 	0.10846 0.17007 0.22988 0.05600
H 	H 	0.16705 0.22696 0.30280 0.05100
H 	H 	0.09566 0.17568 0.28379 0.06100
C 	C 	0.94987 0.83720 0.13255 -0.14900
H 	H 	0.92179 0.88104 0.08488 0.03300
H 	H 	0.90339 0.88085 0.13370 0.03200
H 	H 	0.98152 0.83946 0.12265 0.05900
H 	H 	0.90839 0.79182 0.10150 0.04800
H 	H 	0.96731 0.84213 0.17581 0.05700
C 	C 	0.15618 0.24019 0.41617 0.01800
C 	C 	0.09549 0.20944 0.38740 -0.10200
C 	C 	0.06515 0.23015 0.35510 0.02100
C 	C 	0.09546 0.28215 0.35286 -0.07200
C 	C 	0.15633 0.31367 0.38263 0.02800
C 	C 	0.18646 0.29201 0.41371 -0.07300
H 	H 	0.17984 0.22385 0.44032 0.02300
H 	H 	0.01827 0.20661 0.33255 0.03200
H 	H 	0.07183 0.29870 0.32899 0.04800
H 	H 	0.23334 0.31561 0.43629 0.04300
C 	C 	0.75448 0.87727 0.48193 0.02100
C 	C 	0.74911 0.89458 0.43992 -0.10300
C 	C 	0.70023 0.89617 0.40761 0.02300
C 	C 	0.65630 0.87889 0.41612 -0.07000
C 	C 	0.66119 0.86043 0.45741 0.03000
C 	C 	0.71109 0.86098 0.49106 -0.07200
H 	H 	0.79134 0.87454 0.50624 0.02800
H 	H 	0.69577 0.90974 0.37526 0.03200
H 	H 	0.61794 0.87857 0.38985 0.04800
H 	H 	0.71558 0.84742 0.52343 0.04300
C 	C 	0.09569 0.82247 0.44243 -0.07400
C 	C 	0.15350 0.87278 0.48189 0.03300
C 	C 	0.16566 0.93193 0.49718 -0.07400
C 	C 	0.12046 0.94074 0.47207 0.02700
C 	C 	0.06276 0.89034 0.43084 -0.11800
C 	C 	0.05051 0.83119 0.41691 0.02800
H 	H 	0.08598 0.77662 0.43050 0.04900
H 	H 	0.21021 0.97099 0.52768 0.05100
H 	H 	0.13048 0.98664 0.48358 0.02500
H 	H 	0.00611 0.79199 0.38581 0.02800
C 	C 	0.33421 0.44687 0.07687 -0.06500
C 	C 	0.35065 0.45121 0.04004 0.00500
C 	C 	0.32742 0.39811 0.99243 -0.05000
C 	C 	0.28984 0.34090 0.98307 0.03300
C 	C 	0.27534 0.33650 0.02134 -0.11200
C 	C 	0.29675 0.38984 0.06758 0.01800
H 	H 	0.35125 0.48770 0.11324 0.04400
H 	H 	0.33954 0.40108 0.96351 0.04500
H 	H 	0.27378 0.30008 0.94734 0.03100
H 	H 	0.28532 0.38704 0.09700 0.02500
C 	C 	0.82954 0.95633 0.02214 -0.10500
C 	C 	0.85316 0.98467 0.08014 0.06600
C 	C 	0.91373 0.02449 0.12031 -0.10500
C 	C 	0.95048 0.03506 0.10268 0.03000
C 	C 	0.92708 0.00467 0.04475 -0.11900
C 	C 	0.86625 0.96630 0.00447 0.03000
H 	H 	0.78277 0.92568 0.99082 0.06700
H 	H 	0.93234 0.04685 0.16518 0.05300
H 	H 	0.99719 0.06591 0.13416 0.01300
H 	H 	0.84739 0.94290 0.95965 0.03900
C 	C 	0.29844 0.05579 0.07209 0.04300
C 	C 	0.24249 0.00623 0.02483 -0.15300
C 	C 	0.23227 0.94788 0.00372 0.03300
C 	C 	0.27754 0.93925 0.02931 -0.08700
C 	C 	0.33352 0.98893 0.07584 0.06400
C 	C 	0.34392 0.04726 0.09692 -0.10700
H 	H 	0.30690 0.10098 0.08911 0.01300
H 	H 	0.18925 0.90920 0.96770 0.03700
H 	H 	0.26922 0.89403 0.01280 0.04800
H 	H 	0.38723 0.08597 0.13228 0.05600
C 	C 	0.77688 0.09814 0.36329 -0.07200
C 	C 	0.72043 0.04831 0.31786 0.01300
C 	C 	0.70951 0.98960 0.29777 -0.05700
C 	C 	0.75484 0.98086 0.32280 0.03900
C 	C 	0.81099 0.03054 0.36942 -0.12800
C 	C 	0.82186 0.08924 0.38920 0.02300
H 	H 	0.78564 0.14362 0.37911 0.04400
H 	H 	0.66592 0.95077 0.26324 0.04900
H 	H 	0.74596 0.93535 0.30700 0.01300
H 	H 	0.86505 0.12790 0.42497 0.01900
C 	C 	0.72572 0.60596 0.34863 -0.07300
C 	C 	0.71608 0.60400 0.39029 0.02900
C 	C 	0.74413 0.65840 0.43926 -0.07200
C 	C 	0.78005 0.71443 0.44555 0.02100
C 	C 	0.78791 0.71638 0.40282 -0.10200
C 	C 	0.76128 0.66185 0.35478 0.02100
H 	H 	0.70509 0.56417 0.31116 0.04400
H 	H 	0.73723 0.65735 0.47183 0.04300
H 	H 	0.80008 0.75630 0.48263 0.02600
H 	H 	0.76736 0.66286 0.32172 0.01900
C 	C 	0.19662 0.01795 0.34146 -0.08300
C 	C 	0.23974 0.07812 0.36143 0.03100
C 	C 	0.24799 0.12655 0.40191 -0.07200
C 	C 	0.21142 0.11507 0.41980 0.01300
C 	C 	0.16573 0.05514 0.39679 -0.09300
C 	C 	0.15959 0.00656 0.35875 0.00400
H 	H 	0.19078 0.98009 0.31136 0.06300
H 	H 	0.28097 0.17318 0.41759 0.04200
H 	H 	0.21676 0.15299 0.44928 0.02700
H 	H 	0.12516 0.96003 0.34144 0.04800
C 	C 	0.95775 0.21199 0.99966 -0.06100
C 	C 	0.90477 0.16786 0.94642 0.02600
C 	C 	0.89595 0.11249 0.91639 -0.07600
C 	C 	0.93956 0.10108 0.93963 0.02300
C 	C 	0.99235 0.14491 0.99328 -0.11800
C 	C 	0.00130 0.20055 0.02303 0.02700
H 	H 	0.96513 0.25510 0.02292 0.02700
H 	H 	0.85510 0.07810 0.87531 0.04000
H 	H 	0.93185 0.05775 0.91641 0.00500
H 	H 	0.04197 0.23488 0.06426 0.02600
C 	C 	0.86803 0.73809 0.97664 -0.08000
C 	C 	0.89379 0.70636 0.99306 0.04400
C 	C 	0.95320 0.73233 0.01635 -0.08800
C 	C 	0.98591 0.78828 0.02066 -0.00200
C 	C 	0.95936 0.81859 0.00158 -0.11000
C 	C 	0.90066 0.79397 0.98094 0.03600
H 	H 	0.82243 0.71883 0.95948 0.04800
H 	H 	0.97352 0.70827 0.02944 0.04100
H 	H 	0.03132 0.80707 0.03722 0.04700
H 	H 	0.88018 0.81787 0.96773 0.02600
C 	C 	0.43385 0.18785 0.03819 -0.09800
C 	C 	0.42797 0.19146 0.98986 0.05300
C 	C 	0.37707 0.18449 0.94849 -0.08400
C 	C 	0.33255 0.17424 0.95539 0.04500
C 	C 	0.33851 0.17115 0.00388 -0.12200
C 	C 	0.38931 0.17786 0.04525 0.03400
H 	H 	0.47286 0.19284 0.07022 0.05000
H 	H 	0.37232 0.18769 0.91128 0.04800
H 	H 	0.29385 0.16986 0.92352 0.02400
H 	H 	0.39421 0.17511 0.08266 0.02500
