data_crystal

_cell_length_a 25.03094
_cell_length_b 21.84793
_cell_length_c 35.97735
_cell_angle_alpha 104.03052
_cell_angle_beta  115.94200
_cell_angle_gamma 111.52306

_symmetry_space_group_name_	'P 1'
_symmetry_space_group_name_H-M	'P 1'

loop_
_symmetry_equiv_pos_as_xyz
  x,y,z

loop_
_atom_site_label
_atom_site_type_symbol
_atom_site_fract_x
_atom_site_fract_y
_atom_site_fract_z
_atom_site_charge
O 	O 	0.02563 0.97841 0.31829 -0.47400
H 	H 	0.14683 0.98370 0.38699 0.07700
O 	O 	0.95988 0.98114 0.37173 -0.89100
O 	O 	0.09311 0.99132 0.45375 -0.46500
H 	H 	0.76921 0.98436 0.48055 0.01200
C 	C 	0.01899 0.99186 0.58522 0.29700
C 	C 	0.03270 0.99425 0.62990 -0.04000
N 	N 	0.64112 0.98758 0.38119 -0.21200
Zn	Zn	0.98904 0.99442 0.43401 1.20400
O 	O 	0.93452 0.04534 0.93139 -0.46700
C 	C 	0.04106 0.03602 0.81412 0.30400
O 	O 	0.88497 0.00007 0.41413 -0.45800
O 	O 	0.01787 0.00883 0.49601 -0.88000
H 	H 	0.09541 0.04273 0.03020 0.16000
C 	C 	0.04208 0.04128 0.77439 -0.03600
O 	O 	0.04432 0.01843 0.00587 -0.88500
H 	H 	0.80945 0.02806 0.01018 0.04200
C 	C 	0.04256 0.05002 0.69958 0.09800
N 	N 	0.03887 0.05116 0.66102 -0.09100
C 	C 	0.75332 0.01073 0.40022 -0.02600
H 	H 	0.60465 0.00346 0.37430 0.09500
Zn	Zn	0.96464 0.03231 0.51268 1.19800
N 	N 	0.04537 0.10518 0.72923 -0.11700
Zn	Zn	0.00137 0.05743 0.02587 1.20700
C 	C 	0.04530 0.10216 0.76653 0.04000
O 	O 	0.01015 0.04342 0.57575 -0.44500
H 	H 	0.06952 0.04239 0.52056 0.15500
H 	H 	0.04786 0.14676 0.78993 0.03500
O 	O 	0.03773 0.05787 0.08599 -0.44600
N 	N 	0.00981 0.97055 0.23438 -0.10000
C 	C 	0.00516 0.02175 0.26104 -0.03900
C 	C 	0.01935 0.03762 0.19180 0.09900
N 	N 	0.02581 0.04411 0.15722 -0.09100
C 	C 	0.87746 0.04635 0.43958 0.31200
C 	C 	0.00178 0.01574 0.29989 0.32400
C 	C 	0.70738 0.03558 0.39500 0.08200
C 	C 	0.82000 0.08645 0.91237 0.15300
H 	H 	0.72648 0.08730 0.89647 0.06500
H 	H 	0.20792 0.96886 0.37940 0.08600
O 	O 	0.03168 0.08169 0.83831 -0.44300
C 	C 	0.93407 0.09567 0.96001 0.34700
O 	O 	0.91010 0.06934 0.48490 -0.49200
C 	C 	0.82253 0.06073 0.41615 -0.08800
N 	N 	0.01467 0.08872 0.21824 -0.11500
O 	O 	0.17875 0.07148 0.91949 -0.35900
C 	C 	0.00752 0.08199 0.25265 0.04700
Zn	Zn	0.06352 0.10726 0.90564 1.19700
C 	C 	0.24042 0.09927 0.95840 0.29700
O 	O 	0.08757 0.11227 0.96854 -0.77900
O 	O 	0.96334 0.11128 0.00418 -0.50600
Zn	Zn	0.01243 0.08639 0.38629 1.20200
O 	O 	0.98041 0.05242 0.31832 -0.46000
O 	O 	0.03753 0.09851 0.45107 -0.77300
H 	H 	0.30790 0.10699 0.49965 0.05100
H 	H 	0.40663 0.09509 0.51897 0.08500
C 	C 	0.89484 0.12973 0.94167 -0.16500
C 	C 	0.78350 0.12090 0.91565 -0.13000
C 	C 	0.35413 0.10885 0.98409 -0.00300
H 	H 	0.34575 0.07737 0.00224 0.03500
H 	H 	0.00493 0.12385 0.27389 0.03900
O 	O 	0.05329 0.98796 0.82648 -0.46700
H 	H 	0.45743 0.12930 0.00930 0.03700
C 	C 	0.78578 0.23178 0.95703 -0.02400
H 	H 	0.46851 0.13847 0.91022 0.04000
C 	C 	0.69926 0.14777 0.41915 0.01400
H 	H 	0.41754 0.15030 0.39588 0.03900
H 	H 	0.72910 0.13565 0.48181 0.04000
Zn	Zn	0.18102 0.14546 0.00061 1.18200
O 	O 	0.24924 0.12388 0.99897 -0.45700
Zn	Zn	0.13335 0.15509 0.48983 1.18500
C 	C 	0.21477 0.14393 0.45750 0.29100
O 	O 	0.21685 0.16155 0.49586 -0.46000
O 	O 	0.15579 0.11676 0.41673 -0.34400
C 	C 	0.84208 0.13156 0.41934 -0.00300
C 	C 	0.79644 0.15641 0.41346 -0.04300
C 	C 	0.73159 0.11119 0.40542 -0.03000
H 	H 	0.89478 0.16958 0.43006 0.01400
C 	C 	0.27995 0.16442 0.46088 -0.06100
C 	C 	0.38345 0.15661 0.48503 0.07800
C 	C 	0.32277 0.14024 0.48385 -0.04700
N 	N 	0.42139 0.12775 0.50416 -0.19600
C 	C 	0.82086 0.19845 0.94468 0.06300
C 	C 	0.93053 0.20827 0.96485 0.05100
C 	C 	0.30251 0.12133 0.95761 -0.06500
C 	C 	0.41739 0.13834 0.98813 -0.03400
H 	H 	0.66293 0.16913 0.36006 0.03500
H 	H 	0.46445 0.13546 0.50330 0.08700
H 	H 	0.73364 0.23388 0.89154 0.03000
H 	H 	0.82880 0.23553 0.02492 0.03200
C 	C 	0.51122 0.19095 0.94246 -0.03500
H 	H 	0.58219 0.20976 0.92229 0.04800
C 	C 	0.89375 0.24250 0.96670 -0.09800
C 	C 	0.74275 0.24777 0.92565 -0.01600
C 	C 	0.70724 0.16062 0.46193 -0.03300
C 	C 	0.67034 0.17975 0.39351 -0.03500
C 	C 	0.43023 0.18177 0.96640 -0.03100
C 	C 	0.31330 0.16132 0.93377 -0.04500
H 	H 	0.52745 0.19719 0.40088 0.04600
N 	N 	0.04037 0.98668 0.74495 -0.10000
N 	N 	0.02002 0.92538 0.17285 -0.11600
C 	C 	0.29844 0.20662 0.43995 -0.00800
H 	H 	0.26551 0.22552 0.42220 0.04000
C 	C 	0.46749 0.19447 0.42920 -0.03400
O 	O 	0.99660 0.00268 0.88523 -0.86900
C 	C 	0.01647 0.97713 0.19983 0.07900
H 	H 	0.02766 0.88915 0.11624 0.03800
N 	N 	0.18138 0.96526 0.39533 -0.20800
C 	C 	0.35988 0.22562 0.44242 -0.03700
H 	H 	0.98770 0.24241 0.98544 0.00600
C 	C 	0.73803 0.52688 0.97056 -0.02300
C 	C 	0.78934 0.53465 0.01243 -0.02000
C 	C 	0.77471 0.47519 0.02245 -0.08000
C 	C 	0.70927 0.40689 0.99049 0.08500
C 	C 	0.65689 0.39971 0.94912 -0.07800
C 	C 	0.67126 0.45963 0.93937 -0.01700
N 	N 	0.69859 0.34359 0.99895 -0.14500
C 	C 	0.50067 0.21993 0.97607 0.01800
C 	C 	0.57592 0.23124 0.94948 -0.06900
C 	C 	0.63140 0.30029 0.99097 0.07800
C 	C 	0.62113 0.32777 0.02506 -0.07000
C 	C 	0.55605 0.28794 0.01762 -0.03800
C 	C 	0.79621 0.24859 0.00073 -0.01800
C 	C 	0.76548 0.28320 0.01359 -0.07900
C 	C 	0.72427 0.30158 0.98304 0.08600
C 	C 	0.71193 0.28242 0.93844 -0.07800
H 	H 	0.84115 0.58624 0.03667 0.02900
H 	H 	0.81512 0.48120 0.05438 0.04700
H 	H 	0.60608 0.34724 0.92400 0.04800
H 	H 	0.63103 0.45333 0.90720 0.02900
H 	H 	0.66352 0.38058 0.05711 0.04500
H 	H 	0.54821 0.31054 0.04376 0.03600
H 	H 	0.77485 0.29729 0.04776 0.05000
H 	H 	0.67809 0.29358 0.91366 0.04800
C 	C 	0.74692 0.49605 0.46501 -0.02800
C 	C 	0.78977 0.48883 0.50267 -0.01600
C 	C 	0.76041 0.42689 0.50835 -0.07700
C 	C 	0.68816 0.37114 0.47627 0.08200
C 	C 	0.64471 0.37948 0.43923 -0.07800
C 	C 	0.67409 0.44169 0.43371 -0.01600
N 	N 	0.66066 0.30378 0.47985 -0.14400
C 	C 	0.46940 0.22575 0.46903 0.01300
C 	C 	0.52988 0.22081 0.43212 -0.06800
C 	C 	0.59507 0.27849 0.47525 0.07500
C 	C 	0.59659 0.30998 0.51485 -0.06700
C 	C 	0.53406 0.28394 0.51177 -0.03500
C 	C 	0.69117 0.20930 0.48056 -0.06600
C 	C 	0.66711 0.24568 0.45674 0.07500
C 	C 	0.65382 0.22814 0.41197 -0.06800
H 	H 	0.84605 0.53057 0.52705 0.02900
H 	H 	0.79411 0.42098 0.53697 0.04800
H 	H 	0.58886 0.33685 0.41404 0.04800
H 	H 	0.64047 0.44718 0.40478 0.02900
H 	H 	0.64645 0.35440 0.54811 0.04500
H 	H 	0.53577 0.30905 0.54252 0.03600
H 	H 	0.70016 0.22127 0.51452 0.04800
H 	H 	0.63144 0.25232 0.39179 0.04600
C 	C 	0.35451 0.55877 0.99659 -0.02100
C 	C 	0.36815 0.61756 0.03337 -0.02200
C 	C 	0.40657 0.69179 0.04348 -0.07300
C 	C 	0.42867 0.70824 0.01552 0.07400
C 	C 	0.41302 0.64911 0.97759 -0.07200
C 	C 	0.37790 0.57518 0.96907 -0.01900
N 	N 	0.46215 0.78487 0.02393 -0.14100
C 	C 	0.62068 0.85296 0.99931 0.01700
C 	C 	0.55162 0.82940 0.96433 -0.03800
C 	C 	0.49910 0.80664 0.97200 -0.06300
C 	C 	0.51549 0.80785 0.01509 0.06700
C 	C 	0.58478 0.83208 0.05009 -0.06500
C 	C 	0.63717 0.85464 0.04229 -0.04200
C 	C 	0.31825 0.85560 0.98570 0.01700
C 	C 	0.38787 0.90518 0.02636 -0.04100
C 	C 	0.43583 0.88258 0.03779 -0.06500
C 	C 	0.41495 0.81071 0.00839 0.06900
C 	C 	0.34630 0.76286 0.96598 -0.06200
C 	C 	0.29811 0.78505 0.95503 -0.03600
H 	H 	0.34897 0.60574 0.05416 0.03000
H 	H 	0.41729 0.73662 0.07221 0.04600
H 	H 	0.42767 0.66015 0.95467 0.04700
H 	H 	0.36889 0.53076 0.94110 0.03100
H 	H 	0.53840 0.82754 0.93093 0.03700
H 	H 	0.44561 0.78652 0.94418 0.04500
H 	H 	0.59787 0.83325 0.08330 0.04200
H 	H 	0.69038 0.87262 0.06943 0.03400
H 	H 	0.40426 0.96044 0.04966 0.03300
H 	H 	0.48873 0.92011 0.07014 0.04300
H 	H 	0.33024 0.70850 0.94183 0.04700
H 	H 	0.24494 0.74722 0.92292 0.04000
C 	C 	0.30375 0.54028 0.47106 0.01300
C 	C 	0.33531 0.59842 0.51549 -0.03400
C 	C 	0.37723 0.67317 0.52763 -0.06700
C 	C 	0.38767 0.69074 0.49543 0.07500
C 	C 	0.35640 0.63231 0.45090 -0.06800
C 	C 	0.31445 0.55744 0.43880 -0.03500
N 	N 	0.42800 0.76863 0.50786 -0.14400
C 	C 	0.58973 0.82912 0.48581 -0.02800
C 	C 	0.52409 0.81527 0.45235 -0.01600
C 	C 	0.47035 0.79479 0.45905 -0.07800
C 	C 	0.48213 0.78849 0.49964 0.08000
C 	C 	0.54801 0.80292 0.53310 -0.07600
C 	C 	0.60152 0.82310 0.52626 -0.01700
C 	C 	0.30584 0.86669 0.48213 -0.02800
C 	C 	0.37173 0.90365 0.52548 -0.01700
C 	C 	0.41281 0.87238 0.53305 -0.07600
C 	C 	0.38831 0.80379 0.49751 0.08100
C 	C 	0.32299 0.76784 0.45354 -0.07700
C 	C 	0.28207 0.79917 0.44601 -0.01400
H 	H 	0.32737 0.58564 0.54062 0.03700
H 	H 	0.40101 0.71770 0.56190 0.04600
H 	H 	0.36371 0.64488 0.42556 0.04600
H 	H 	0.29035 0.51287 0.40443 0.03800
H 	H 	0.51424 0.81897 0.42075 0.02900
H 	H 	0.41951 0.78252 0.43239 0.04700
H 	H 	0.55762 0.79836 0.56442 0.04500
H 	H 	0.65191 0.83329 0.55216 0.02800
H 	H 	0.39084 0.95621 0.55340 0.02600
H 	H 	0.46304 0.90055 0.56692 0.04600
H 	H 	0.30410 0.71606 0.42524 0.04900
H 	H 	0.23152 0.77061 0.41225 0.03300
O 	O 	0.05227 0.88702 0.88557 -0.49500
C 	C 	0.19780 0.25896 0.96616 0.33500
O 	O 	0.10867 0.97935 0.95982 -0.46300
O 	O 	0.13037 0.21541 0.92961 -0.45600
O 	O 	0.22252 0.24411 0.00129 -0.46900
Zn	Zn	0.86367 0.87917 0.90224 1.17300
Zn	Zn	0.98819 0.91504 0.98977 1.18100
Zn	Zn	0.02060 0.00967 0.94561 1.22300
C 	C 	0.85613 0.77082 0.93973 0.33800
C 	C 	0.83148 0.93523 0.96258 0.30800
O 	O 	0.92562 0.80882 0.96848 -0.47400
O 	O 	0.82401 0.78150 0.90387 -0.47100
O 	O 	0.81149 0.91259 0.91891 -0.48200
O 	O 	0.89417 0.95178 0.99506 -0.48400
C 	C 	0.02923 0.99709 0.08982 0.29700
O 	O 	0.95405 0.90671 0.92409 -0.80700
O 	O 	0.02125 0.94107 0.05853 -0.42700
Zn	Zn	0.01822 0.93979 0.85794 1.18700
C 	C 	0.10269 0.92274 0.93085 0.31300
H 	H 	0.94678 0.98667 0.86376 0.12800
O 	O 	0.04137 0.89015 0.38445 -0.49800
C 	C 	0.13123 0.25065 0.44448 0.30900
O 	O 	0.07208 0.19420 0.40342 -0.43700
O 	O 	0.14962 0.24779 0.48409 -0.45800
Zn	Zn	0.84765 0.84343 0.39600 1.17200
Zn	Zn	0.98037 0.90707 0.48588 1.18000
C 	C 	0.87249 0.74657 0.43927 0.33800
C 	C 	0.80378 0.88856 0.45180 0.33300
O 	O 	0.93972 0.80106 0.47061 -0.47600
O 	O 	0.82996 0.75016 0.40286 -0.47500
O 	O 	0.78252 0.85682 0.40788 -0.48700
O 	O 	0.86974 0.91651 0.48613 -0.48500
O 	O 	0.94041 0.89047 0.41815 -0.80500
O 	O 	0.01664 0.93901 0.55572 -0.42600
Zn	Zn	0.99337 0.92778 0.34982 1.17300
C 	C 	0.09366 0.93624 0.42909 0.33500
H 	H 	0.90809 0.95626 0.34954 0.14400
C 	C 	0.04040 0.98981 0.70774 0.07800
C 	C 	0.03199 0.93467 0.63867 0.04000
N 	N 	0.03587 0.93373 0.67743 -0.11600
H 	H 	0.02665 0.88860 0.61427 0.03900
C 	C 	0.02884 0.99212 0.12978 -0.04000
C 	C 	0.02589 0.93145 0.13785 0.04000
C 	C 	0.17472 0.32058 0.44669 -0.06600
C 	C 	0.14354 0.35463 0.42461 -0.00300
C 	C 	0.18586 0.42474 0.43073 -0.03900
C 	C 	0.25981 0.46122 0.45857 -0.02800
C 	C 	0.29123 0.42456 0.47821 0.07600
C 	C 	0.24831 0.35501 0.47280 -0.04600
H 	H 	0.16129 0.45190 0.41508 0.04100
H 	H 	0.27223 0.32768 0.48887 0.04400
H 	H 	0.08669 0.32806 0.40402 0.03700
N 	N 	0.36211 0.45532 0.50177 -0.19600
H 	H 	0.39476 0.50448 0.50387 0.08400
H 	H 	0.38499 0.42866 0.51700 0.08000
C 	C 	0.64414 0.84395 0.47675 0.06000
C 	C 	0.68468 0.91462 0.48255 -0.09600
C 	C 	0.73787 0.92930 0.47553 0.04200
C 	C 	0.75043 0.87314 0.46190 -0.15300
C 	C 	0.71013 0.80182 0.45663 0.15200
C 	C 	0.65685 0.78783 0.46375 -0.13100
H 	H 	0.62575 0.73340 0.45962 0.06100
H 	H 	0.67532 0.95837 0.49283 0.04800
N 	N 	0.72306 0.74728 0.44561 -0.21000
H 	H 	0.76426 0.75695 0.44230 0.09300
H 	H 	0.69262 0.69470 0.44131 0.08500
C 	C 	0.26115 0.89799 0.47454 0.06100
C 	C 	0.22911 0.89775 0.49822 -0.10000
C 	C 	0.17809 0.91614 0.48567 0.05000
C 	C 	0.15810 0.93428 0.44903 -0.16300
C 	C 	0.19462 0.94067 0.42770 0.15000
C 	C 	0.24574 0.92201 0.44060 -0.13300
H 	H 	0.15145 0.91247 0.50279 0.00100
H 	H 	0.27249 0.92479 0.42355 0.06100
H 	H 	0.24164 0.88035 0.52504 0.05200
C 	C 	0.31752 0.48038 0.98792 0.06200
C 	C 	0.33592 0.46554 0.02600 -0.09700
C 	C 	0.29775 0.39323 0.01858 0.04300
C 	C 	0.24293 0.33331 0.97262 -0.14500
C 	C 	0.23007 0.34636 0.93366 0.15100
C 	C 	0.26382 0.42064 0.94173 -0.12800
H 	H 	0.31027 0.38403 0.04878 0.02100
H 	H 	0.24997 0.43144 0.91204 0.06200
H 	H 	0.37910 0.51048 0.06162 0.04800
N 	N 	0.19023 0.28832 0.88928 -0.20600
H 	H 	0.17846 0.23443 0.88353 0.09300
H 	H 	0.17661 0.29816 0.86042 0.08700
C 	C 	0.77671 0.91400 0.97098 -0.06900
C 	C 	0.77310 0.96928 0.99716 -0.02000
C 	C 	0.72226 0.94892 0.00642 -0.04100
C 	C 	0.67516 0.87305 0.99017 -0.02900
C 	C 	0.67973 0.81695 0.96454 0.07700
C 	C 	0.72974 0.83808 0.95437 -0.04600
H 	H 	0.71936 0.99215 0.02622 0.03300
H 	H 	0.73304 0.79547 0.93434 0.04600
N 	N 	0.63732 0.74328 0.95037 -0.19600
H 	H 	0.60112 0.72583 0.95858 0.08500
H 	H 	0.64126 0.70249 0.93154 0.08300
C 	C 	0.16076 0.91023 0.94741 -0.08400
C 	C 	0.19474 0.91304 0.92500 0.00100
C 	C 	0.24769 0.89777 0.93891 -0.04300
C 	C 	0.26646 0.87784 0.97475 -0.02800
C 	C 	0.23294 0.87585 0.99810 0.07300
C 	C 	0.18102 0.89352 0.98462 -0.03800
H 	H 	0.27350 0.90019 0.92124 0.03900
H 	H 	0.15500 0.89199 0.00214 0.02500
H 	H 	0.18006 0.92714 0.89670 0.03000
N 	N 	0.24920 0.85571 0.03258 -0.19700
H 	H 	0.28538 0.83941 0.04220 0.08400
H 	H 	0.22468 0.85519 0.04981 0.07700
H 	H 	0.81434 0.21355 0.41973 0.03600
H 	H 	0.73670 0.95414 0.39476 0.03000
H 	H 	0.62479 0.93290 0.37585 0.08000
C 	C 	0.77866 0.55971 0.45784 0.06100
C 	C 	0.81497 0.63343 0.49324 -0.09700
C 	C 	0.84765 0.69388 0.48750 0.04700
C 	C 	0.84385 0.68160 0.44605 -0.15600
C 	C 	0.80864 0.60717 0.41050 0.15000
C 	C 	0.77526 0.54666 0.41648 -0.13200
H 	H 	0.87454 0.75062 0.51487 0.01700
H 	H 	0.74826 0.48953 0.38951 0.06000
H 	H 	0.81770 0.64388 0.52524 0.05000
N 	N 	0.80888 0.59353 0.37163 -0.20900
H 	H 	0.83925 0.63693 0.36846 0.08100
H 	H 	0.78074 0.53848 0.34489 0.07700
C 	C 	0.40303 0.20147 0.46505 -0.03000
H 	H 	0.37437 0.25969 0.42695 0.03900
H 	H 	0.92256 0.30287 0.98787 0.05000
N 	N 	0.78329 0.01281 0.88064 -0.18600
H 	H 	0.80819 0.98941 0.87157 0.05400
H 	H 	0.72831 0.97978 0.86189 0.06700
C 	C 	0.75575 0.58791 0.95850 0.05900
C 	C 	0.75166 0.57457 0.91692 -0.09700
C 	C 	0.78024 0.63450 0.90945 0.05100
C 	C 	0.81444 0.70849 0.94385 -0.15500
C 	C 	0.81459 0.72198 0.98452 0.15000
C 	C 	0.78419 0.66113 0.99108 -0.12600
H 	H 	0.77902 0.62366 0.87797 0.01400
H 	H 	0.78508 0.67107 0.02244 0.05600
H 	H 	0.72911 0.51805 0.89132 0.05000
N 	N 	0.84418 0.79290 0.01741 -0.21100
H 	H 	0.86560 0.83918 0.01307 0.08800
H 	H 	0.84498 0.80227 0.04760 0.08400
C 	C 	0.37727 0.19276 0.93841 0.07900
H 	H 	0.27316 0.17088 0.91328 0.04800
N 	N 	0.38809 0.23468 0.91694 -0.19600
H 	H 	0.43557 0.26033 0.92044 0.08700
H 	H 	0.34864 0.24245 0.89650 0.08400
