data_crystal

_cell_length_a 20.05223
_cell_length_b 21.35733
_cell_length_c 31.13539
_cell_angle_alpha 60.80457
_cell_angle_beta  118.89917
_cell_angle_gamma 133.27079

_symmetry_space_group_name_	'P 1'
_symmetry_space_group_name_H-M	'P 1'

loop_
_symmetry_equiv_pos_as_xyz
  x,y,z

loop_
_atom_site_label
_atom_site_type_symbol
_atom_site_fract_x
_atom_site_fract_y
_atom_site_fract_z
_atom_site_charge
Co	Co	0.00538 0.09146 0.59496 1.17100
O 	O 	0.00296 0.00089 0.47344 -0.38700
O 	O 	0.03891 0.01779 0.98229 -0.36300
C 	C 	0.03873 0.00098 0.90862 -0.26500
Co	Co	0.05116 0.11339 0.09876 1.17200
O 	O 	0.07319 0.93349 0.08405 -0.73900
O 	O 	0.00877 0.90013 0.57816 -0.73800
O 	O 	0.05291 0.99503 0.12430 -0.54500
C 	C 	0.07373 0.00470 0.96276 0.35400
Br	Br	0.01544 0.58873 0.23933 -0.19500
Br	Br	0.00130 0.38588 0.49981 -0.20400
C 	C 	0.00189 0.96422 0.81965 -0.13700
C 	C 	0.08508 0.04385 0.83329 0.19700
C 	C 	0.10282 0.06248 0.87698 0.29900
Co	Co	0.10224 0.03682 0.05677 1.16500
Co	Co	0.11237 0.88997 0.05890 1.17100
O 	O 	0.08200 0.16494 0.19720 -0.37100
O 	O 	0.08875 0.78324 0.12131 -0.40800
O 	O 	0.09618 0.82554 0.17899 -0.36000
Co	Co	0.04340 0.00595 0.55060 1.16600
Co	Co	0.05126 0.85476 0.55684 1.17900
O 	O 	0.05973 0.11627 0.54272 -0.44200
O 	O 	0.06553 0.14963 0.69993 -0.37200
O 	O 	0.05546 0.80738 0.67993 -0.35500
C 	C 	0.04941 0.02868 0.33529 0.20800
C 	C 	0.04460 0.02613 0.38014 0.21700
H 	H 	0.04632 0.55228 0.67476 0.07800
O 	O 	0.11120 0.14322 0.04797 -0.45100
C 	C 	0.11705 0.78960 0.16746 0.32200
C 	C 	0.06385 0.64972 0.69240 0.11600
Br	Br	0.00911 0.36558 0.95708 -0.17500
O 	O 	0.13632 0.98881 0.99218 -0.33400
C 	C 	0.12107 0.21103 0.66835 0.30800
C 	C 	0.10433 0.80017 0.66722 0.30200
O 	O 	0.12416 0.18892 0.63607 -0.35400
F 	F 	0.11247 0.09779 0.40024 -0.38200
F 	F 	0.11783 0.10496 0.31113 -0.39900
C 	C 	0.09633 0.61321 0.68710 -0.05200
C 	C 	0.13666 0.66957 0.22420 0.14000
C 	C 	0.14487 0.23168 0.16992 0.30200
C 	C 	0.12766 0.73587 0.70000 -0.07000
F 	F 	0.14798 0.10450 0.80364 -0.39000
H 	H 	0.14970 0.56581 0.24408 0.09300
O 	O 	0.15404 0.22021 0.13471 -0.34600
O 	O 	0.13964 0.85489 0.62733 -0.36500
O 	O 	0.15702 0.98318 0.52983 -0.31500
Co	Co	0.00542 0.86134 0.12688 1.18300
O 	O 	0.18394 0.05400 0.57736 -0.38500
C 	C 	0.18193 0.44009 0.61531 -0.05600
C 	C 	0.17281 0.30547 0.66639 -0.07300
C 	C 	0.17679 0.36827 0.61967 0.13600
C 	C 	0.17768 0.76107 0.20497 -0.08100
F 	F 	0.18369 0.13964 0.88916 -0.39700
C 	C 	0.18260 0.63647 0.23019 -0.05700
H 	H 	0.18427 0.48765 0.57908 0.09800
O 	O 	0.99266 0.94669 0.74318 -0.33400
C 	C 	0.96495 0.96562 0.25973 0.38500
C 	C 	0.96333 0.96166 0.76512 0.40100
F 	F 	0.86163 0.82219 0.84185 -0.36700
Br	Br	0.93701 0.57732 0.69718 -0.16400
O 	O 	0.24666 0.97792 0.09394 -0.32800
O 	O 	0.24571 0.09831 0.07090 -0.36300
O 	O 	0.95742 0.85975 0.48957 -0.36600
Br	Br	0.19285 0.36688 0.56420 -0.17500
C 	C 	0.22507 0.45980 0.15043 -0.05600
C 	C 	0.20532 0.32035 0.17935 -0.07200
C 	C 	0.20613 0.39151 0.13974 0.13100
Br	Br	0.19150 0.40183 0.07163 -0.19300
H 	H 	0.22724 0.51500 0.11976 0.08200
C 	C 	0.27189 0.81892 0.20247 -0.02000
H 	H 	0.30613 0.88970 0.19102 0.09800
C 	C 	0.75351 0.32436 0.00451 0.13700
N 	N 	0.80631 0.40481 0.01466 -0.12200
C 	C 	0.76181 0.43061 0.01704 0.15800
N 	N 	0.66742 0.37516 0.01152 -0.13400
C 	C 	0.61637 0.29489 0.00345 0.15300
N 	N 	0.65827 0.27330 0.99546 -0.09900
C 	C 	0.70045 0.26481 0.54871 0.14700
N 	N 	0.63062 0.19454 0.57377 -0.12700
C 	C 	0.58642 0.20706 0.58753 0.15600
N 	N 	0.61206 0.28955 0.57623 -0.12700
C 	C 	0.68777 0.36110 0.55652 0.15500
N 	N 	0.73279 0.34915 0.54251 -0.12100
C 	C 	0.31468 0.65819 0.21975 0.14900
N 	N 	0.26130 0.57647 0.21130 -0.12800
C 	C 	0.30465 0.54752 0.21141 0.15400
N 	N 	0.39899 0.60141 0.21714 -0.12500
C 	C 	0.45059 0.68444 0.22156 0.16100
N 	N 	0.40976 0.70936 0.22761 -0.11600
C 	C 	0.22998 0.64138 0.67390 0.15100
N 	N 	0.19033 0.55751 0.67422 -0.12400
C 	C 	0.22826 0.54602 0.65435 0.15100
N 	N 	0.30360 0.61760 0.63412 -0.12700
C 	C 	0.34608 0.69968 0.63652 0.16200
N 	N 	0.30628 0.71190 0.65385 -0.12000
Co	Co	0.94890 0.93634 0.16685 1.20300
C 	C 	0.28535 0.06366 0.07605 0.25100
Co	Co	0.94267 0.08908 0.16231 1.17500
C 	C 	0.91214 0.74598 0.05499 0.30400
O 	O 	0.97183 0.19580 0.09939 -0.38400
O 	O 	0.98989 0.04394 0.14439 -0.76300
C 	C 	0.94029 0.18474 0.05418 0.33200
O 	O 	0.93553 0.82837 0.17351 -0.41800
C 	C 	0.77058 0.91922 0.13782 0.36600
O 	O 	0.94951 0.13538 0.04678 -0.37000
O 	O 	0.80802 0.00435 0.12505 -0.41700
O 	O 	0.80928 0.89163 0.13385 -0.37700
O 	O 	0.90971 0.98984 0.22805 -0.36800
O 	O 	0.98876 0.93671 0.24386 -0.33000
O 	O 	0.97235 0.81021 0.02612 -0.33600
O 	O 	0.89857 0.76328 0.08496 -0.34300
Co	Co	0.91588 0.92173 0.67007 1.20400
Co	Co	0.95708 0.83648 0.62810 1.19500
C 	C 	0.21605 0.03480 0.56082 0.26800
Co	Co	0.92275 0.07613 0.67105 1.16700
C 	C 	0.86412 0.69486 0.57817 0.32200
O 	O 	0.94607 0.18310 0.60890 -0.39100
O 	O 	0.94608 0.02472 0.64151 -0.78100
C 	C 	0.90672 0.17340 0.56278 0.32200
O 	O 	0.90112 0.81174 0.67934 -0.42100
C 	C 	0.73641 0.90781 0.64664 0.30900
O 	O 	0.95197 0.95423 0.59951 -0.53300
C 	C 	0.97761 0.93648 0.45803 0.43000
O 	O 	0.91632 0.13177 0.54804 -0.35800
O 	O 	0.78341 0.99459 0.63766 -0.35000
O 	O 	0.77905 0.86788 0.66757 -0.34200
O 	O 	0.90095 0.97814 0.73784 -0.35700
O 	O 	0.95021 0.72408 0.58520 -0.37700
O 	O 	0.84808 0.72965 0.59446 -0.34400
C 	C 	0.95583 0.92157 0.89492 0.35600
C 	C 	0.93973 0.90162 0.85231 0.25900
F 	F 	0.89184 0.86214 0.92375 -0.37600
C 	C 	0.91314 0.87543 0.34102 0.26800
C 	C 	0.98265 0.95345 0.31491 -0.11500
C 	C 	0.97096 0.94931 0.40434 -0.12500
C 	C 	0.90374 0.87483 0.38326 0.27000
F 	F 	0.83031 0.80054 0.40465 -0.37900
F 	F 	0.85201 0.80051 0.32436 -0.38300
C 	C 	0.19426 0.45639 0.65827 -0.02000
C 	C 	0.20177 0.39922 0.70605 0.10400
C 	C 	0.19210 0.32517 0.70988 -0.02600
H 	H 	0.19470 0.28011 0.74662 0.11400
Br	Br	0.22974 0.42283 0.76704 -0.15800
C 	C 	0.51080 0.77271 0.68432 -0.05000
C 	C 	0.44632 0.76535 0.63730 -0.01200
C 	C 	0.47766 0.80552 0.59298 0.10900
C 	C 	0.57246 0.84961 0.59639 -0.01400
C 	C 	0.63583 0.85275 0.64385 -0.07500
C 	C 	0.60465 0.81487 0.68792 0.13700
Br	Br	0.68892 0.81984 0.75358 -0.11400
H 	H 	0.48660 0.74088 0.71856 0.10300
H 	H 	0.59695 0.88193 0.56220 0.08000
Br	Br	0.39231 0.80197 0.52764 -0.14900
C 	C 	0.22320 0.76964 0.71991 -0.01500
C 	C 	0.19356 0.65685 0.69705 -0.01300
C 	C 	0.25603 0.72899 0.71980 0.10900
Br	Br	0.38454 0.77017 0.75264 -0.15700
H 	H 	0.27312 0.83175 0.73103 0.08900
C 	C 	0.25017 0.46169 0.20067 -0.02100
C 	C 	0.25327 0.39255 0.24022 0.11000
C 	C 	0.23494 0.32481 0.22956 -0.02300
H 	H 	0.23732 0.27191 0.26049 0.11400
Br	Br	0.28505 0.39094 0.30947 -0.14100
C 	C 	0.53065 0.80098 0.15250 -0.05700
C 	C 	0.53663 0.75241 0.20311 -0.00900
C 	C 	0.61772 0.75458 0.23109 0.10500
C 	C 	0.69208 0.80542 0.20837 -0.00400
C 	C 	0.68623 0.85454 0.15788 -0.10400
C 	C 	0.60367 0.84966 0.12940 0.15900
Br	Br	0.58403 0.89846 0.05759 -0.16100
H 	H 	0.46613 0.79555 0.13005 0.09500
H 	H 	0.75483 0.80754 0.23007 0.09300
Br	Br	0.62701 0.68709 0.30008 -0.09700
C 	C 	0.26933 0.69441 0.21665 -0.01300
C 	C 	0.31365 0.78734 0.20185 0.10500
Br	Br	0.41744 0.87096 0.16954 -0.16100
C 	C 	0.83670 0.31531 0.52449 -0.06600
C 	C 	0.74364 0.24922 0.53025 -0.00800
C 	C 	0.69637 0.16459 0.52408 0.09700
C 	C 	0.74859 0.14127 0.52588 -0.01800
C 	C 	0.84589 0.20376 0.52948 -0.09000
C 	C 	0.88516 0.29340 0.52050 0.15900
H 	H 	0.87166 0.38309 0.52347 0.09800
H 	H 	0.71450 0.07334 0.52761 0.06000
Br	Br	0.56149 0.08678 0.50460 -0.20100
C 	C 	0.71857 0.45517 0.59835 -0.05600
C 	C 	0.72814 0.44990 0.55842 -0.01300
C 	C 	0.75828 0.52467 0.51713 0.10800
C 	C 	0.78796 0.60512 0.51921 -0.01800
C 	C 	0.78691 0.61148 0.56184 -0.07300
C 	C 	0.73978 0.53315 0.59749 0.14900
Br	Br	0.70382 0.53125 0.64536 -0.15600
H 	H 	0.69182 0.39766 0.62938 0.10300
H 	H 	0.81908 0.66435 0.48966 0.10800
Br	Br	0.75697 0.51867 0.45714 -0.14000
C 	C 	0.37433 0.10734 0.61958 -0.02600
C 	C 	0.30916 0.05052 0.58680 -0.07300
C 	C 	0.33847 0.01713 0.57504 0.10600
C 	C 	0.43455 0.05916 0.58417 -0.05000
C 	C 	0.50040 0.13106 0.60633 -0.02200
C 	C 	0.46955 0.14346 0.63178 0.10600
Br	Br	0.55646 0.20926 0.68270 -0.18900
H 	H 	0.35178 0.12524 0.63439 0.07800
H 	H 	0.45768 0.03887 0.57166 0.08900
Br	Br	0.25120 0.90801 0.55412 -0.18900
C 	C 	0.87542 0.33732 0.98915 -0.04100
C 	C 	0.79850 0.28583 0.01049 -0.02700
C 	C 	0.75529 0.19337 0.03063 0.10400
C 	C 	0.78657 0.15501 0.02670 -0.02400
C 	C 	0.87508 0.20842 0.01711 -0.10300
C 	C 	0.91286 0.29832 0.99180 0.17300
H 	H 	0.90505 0.40657 0.96997 0.09800
H 	H 	0.75136 0.08427 0.04082 0.08200
Br	Br	0.66832 0.12180 0.07277 -0.21100
C 	C 	0.77897 0.56943 0.99092 0.00900
C 	C 	0.81363 0.51865 0.02481 -0.05200
C 	C 	0.87095 0.53660 0.07277 0.12100
C 	C 	0.89207 0.60380 0.08601 -0.04100
C 	C 	0.85711 0.65422 0.05181 -0.05400
C 	C 	0.79407 0.63118 0.00589 0.09800
Br	Br	0.72223 0.67829 0.96508 -0.07400
H 	H 	0.73200 0.55433 0.95468 0.09100
H 	H 	0.93884 0.61909 0.12212 0.09300
Br	Br	0.91984 0.46937 0.12112 -0.18000
C 	C 	0.36555 0.16210 0.00578 -0.09600
C 	C 	0.37007 0.12118 0.05758 -0.05300
C 	C 	0.45404 0.13192 0.09048 0.12200
C 	C 	0.53213 0.18218 0.07120 -0.03700
C 	C 	0.52829 0.22460 0.01956 -0.05400
C 	C 	0.44411 0.21326 0.98662 0.16800
Br	Br	0.43605 0.26894 0.91558 -0.13300
H 	H 	0.30106 0.15452 0.98047 0.13100
H 	H 	0.59808 0.19355 0.09692 0.09200
Br	Br	0.46690 0.08761 0.16239 -0.20700
