data_crystal

_cell_length_a 30.72151
_cell_length_b 30.97004
_cell_length_c 34.65107
_cell_angle_alpha 95.52982
_cell_angle_beta  95.52911
_cell_angle_gamma 125.55165

_symmetry_space_group_name_	'P 1'
_symmetry_space_group_name_H-M	'P 1'

loop_
_symmetry_equiv_pos_as_xyz
  x,y,z

loop_
_atom_site_label
_atom_site_type_symbol
_atom_site_fract_x
_atom_site_fract_y
_atom_site_fract_z
_atom_site_charge
N 	N 	0.00375 0.02583 0.45125 -0.13800
N 	N 	0.01515 0.97459 0.98655 -0.13400
N 	N 	0.02447 0.05597 0.99633 -0.13700
C 	C 	0.03085 0.00404 0.45762 0.11700
C 	C 	0.04679 0.02922 0.99074 0.11700
N 	N 	0.00324 0.95214 0.46304 -0.13600
C 	C 	0.97066 0.02801 0.99808 0.11500
N 	N 	0.93925 0.97329 0.99389 -0.13800
C 	C 	0.96150 0.94666 0.98801 0.12800
C 	C 	0.94921 0.99593 0.45048 0.11900
N 	N 	0.92175 0.94395 0.45607 -0.14000
C 	C 	0.94885 0.92211 0.46226 0.12700
Cu	Cu	0.64317 0.25835 0.00118 0.92600
Cu	Cu	0.68811 0.25097 0.91999 0.87200
Cu	Cu	0.67556 0.33788 0.94431 0.89800
Cu	Cu	0.63825 0.35702 0.01665 0.89300
C 	C 	0.65625 0.30791 0.08009 0.28400
O 	O 	0.56258 0.22439 0.99710 -0.36000
C 	C 	0.66030 0.29264 0.86064 0.28600
O 	O 	0.68492 0.34130 0.00012 -0.64200
O 	O 	0.63825 0.25889 0.94375 -0.63800
O 	O 	0.67871 0.22127 0.00548 -0.37700
O 	O 	0.73853 0.27104 0.96652 -0.44400
O 	O 	0.62904 0.32537 0.06539 -0.38200
O 	O 	0.71480 0.41531 0.94932 -0.38100
C 	C 	0.70520 0.44487 0.97172 0.29000
C 	C 	0.54043 0.24431 0.97881 0.30300
O 	O 	0.57162 0.29296 0.97095 -0.39300
O 	O 	0.66677 0.42319 0.99335 -0.39400
O 	O 	0.65884 0.27248 0.05793 -0.35700
C 	C 	0.72420 0.23936 0.99257 0.31800
O 	O 	0.68024 0.33602 0.88775 -0.38600
O 	O 	0.65477 0.24970 0.87006 -0.41600
H 	H 	0.72325 0.36629 0.01421 0.16300
H 	H 	0.60077 0.23573 0.92805 0.17300
Cu	Cu	0.73016 0.33399 0.44621 0.92800
Cu	Cu	0.72995 0.28493 0.52650 0.87200
Cu	Cu	0.64387 0.29759 0.49813 0.89700
Cu	Cu	0.63068 0.33751 0.42556 0.89400
C 	C 	0.69156 0.33002 0.36592 0.28600
O 	O 	0.76360 0.41401 0.45215 -0.36200
C 	C 	0.68286 0.31018 0.58285 0.28600
O 	O 	0.64571 0.29101 0.44288 -0.64000
O 	O 	0.72423 0.33566 0.50269 -0.64000
O 	O 	0.76835 0.29927 0.44384 -0.37200
O 	O 	0.71356 0.23731 0.47962 -0.44300
O 	O 	0.66976 0.35312 0.38003 -0.38400
O 	O 	0.56544 0.25752 0.48951 -0.38200
C 	C 	0.53651 0.26468 0.46384 0.30700
C 	C 	0.74114 0.43437 0.46920 0.28100
O 	O 	0.69057 0.40183 0.47416 -0.39200
O 	O 	0.55978 0.30457 0.44390 -0.39500
O 	O 	0.72104 0.32139 0.38967 -0.35700
C 	C 	0.74848 0.25320 0.45572 0.30900
O 	O 	0.64088 0.29067 0.55411 -0.38500
O 	O 	0.72697 0.31549 0.57579 -0.41600
H 	H 	0.62189 0.25344 0.42785 0.16500
H 	H 	0.74626 0.37222 0.51933 0.17200
C 	C 	0.64794 0.26412 0.74749 -0.00100
C 	C 	0.62707 0.24551 0.70690 -0.05700
C 	C 	0.65942 0.27818 0.68135 0.01400
C 	C 	0.70903 0.32873 0.69645 0.00000
C 	C 	0.72476 0.35103 0.73680 -0.05700
C 	C 	0.69421 0.31711 0.76245 0.01400
S 	S 	0.61220 0.24130 0.78309 0.01400
C 	C 	0.65408 0.29620 0.81881 -0.07300
C 	C 	0.69798 0.33522 0.80259 -0.02400
S 	S 	0.72822 0.36335 0.66009 0.01200
C 	C 	0.67611 0.31580 0.62388 -0.07300
C 	C 	0.64089 0.27060 0.64052 -0.02300
H 	H 	0.58684 0.20818 0.69576 0.04400
H 	H 	0.75817 0.39323 0.74763 0.04400
H 	H 	0.73264 0.37381 0.81961 0.04100
H 	H 	0.60520 0.23275 0.62342 0.04000
C 	C 	0.65463 0.28356 0.25215 -0.00100
C 	C 	0.65028 0.26060 0.21373 -0.05400
C 	C 	0.65071 0.28751 0.18318 0.01500
C 	C 	0.65923 0.33733 0.19178 0.00400
C 	C 	0.67260 0.36414 0.23064 -0.05800
C 	C 	0.66835 0.33569 0.26088 0.01600
S 	S 	0.67143 0.26929 0.29362 0.01400
C 	C 	0.69490 0.32712 0.32390 -0.06800
C 	C 	0.69051 0.36005 0.30116 -0.02300
S 	S 	0.67659 0.36689 0.15293 0.00700
C 	C 	0.67183 0.31769 0.12319 -0.07100
C 	C 	0.65706 0.27592 0.14436 -0.01900
H 	H 	0.64852 0.22455 0.20805 0.04600
H 	H 	0.68762 0.40602 0.23716 0.04500
H 	H 	0.70164 0.39947 0.31340 0.04400
H 	H 	0.64919 0.23806 0.13184 0.04800
C 	C 	0.76939 0.49352 0.47697 -0.08800
C 	C 	0.74857 0.51576 0.49915 0.01000
C 	C 	0.77043 0.57037 0.50184 -0.06600
C 	C 	0.81365 0.60342 0.48278 0.02600
C 	C 	0.83620 0.58198 0.46220 -0.06600
C 	C 	0.81428 0.52735 0.45933 0.01200
C 	C 	0.83393 0.65989 0.48301 -0.00200
C 	C 	0.88715 0.70251 0.50214 -0.03500
C 	C 	0.90778 0.75586 0.49985 -0.04200
C 	C 	0.87539 0.76696 0.47837 0.01400
C 	C 	0.82175 0.72456 0.46008 -0.04200
C 	C 	0.80101 0.67116 0.46244 -0.03500
C 	C 	0.89872 0.82135 0.47270 0.00300
C 	C 	0.92026 0.86719 0.46790 -0.04000
H 	H 	0.71476 0.49056 0.51363 0.03300
H 	H 	0.75328 0.58679 0.51826 0.04600
H 	H 	0.86987 0.60735 0.44764 0.04700
H 	H 	0.83115 0.51107 0.44239 0.03900
H 	H 	0.91276 0.69424 0.51826 0.03800
H 	H 	0.94929 0.78845 0.51409 0.04200
H 	H 	0.79648 0.73281 0.44340 0.04300
H 	H 	0.75985 0.63850 0.44758 0.03900
C 	C 	0.92039 0.02048 0.44479 -0.02300
C 	C 	0.93460 0.05644 0.41840 -0.02000
C 	C 	0.91157 0.08420 0.41602 -0.04800
C 	C 	0.87420 0.07635 0.44002 0.01200
C 	C 	0.85848 0.03900 0.46536 -0.04700
C 	C 	0.88137 0.01108 0.46769 -0.02400
C 	C 	0.85443 0.10985 0.44062 0.00800
C 	C 	0.87111 0.14890 0.47415 -0.04400
C 	C 	0.85182 0.18015 0.47508 -0.03100
C 	C 	0.81568 0.17260 0.44255 -0.01200
C 	C 	0.79955 0.13416 0.40877 -0.03000
C 	C 	0.81899 0.10294 0.40775 -0.04400
C 	C 	0.79223 0.20155 0.44510 0.04700
C 	C 	0.77244 0.22547 0.44890 -0.12200
H 	H 	0.96410 0.06350 0.40018 0.03800
H 	H 	0.92375 0.11276 0.39624 0.04200
H 	H 	0.82940 0.03245 0.48384 0.04100
H 	H 	0.87005 0.98349 0.48817 0.04400
H 	H 	0.89881 0.15483 0.49952 0.04000
H 	H 	0.86437 0.20969 0.50132 0.03300
H 	H 	0.77148 0.12795 0.38354 0.03900
H 	H 	0.80605 0.07304 0.38167 0.04100
C 	C 	0.09021 0.03676 0.45922 -0.02100
C 	C 	0.11441 0.07375 0.43376 -0.01900
C 	C 	0.17035 0.10299 0.43418 -0.04800
C 	C 	0.20255 0.09557 0.46007 0.01300
C 	C 	0.17856 0.05928 0.48592 -0.04800
C 	C 	0.12270 0.03003 0.48552 -0.01900
C 	C 	0.26125 0.12528 0.45982 0.00800
C 	C 	0.28249 0.09704 0.44936 -0.04300
C 	C 	0.33836 0.12509 0.45012 -0.03100
C 	C 	0.37330 0.18150 0.46129 -0.00800
C 	C 	0.35214 0.20981 0.47152 -0.03000
C 	C 	0.29628 0.18181 0.47079 -0.04300
C 	C 	0.43086 0.21036 0.46223 0.04600
C 	C 	0.47908 0.23488 0.46300 -0.10700
H 	H 	0.08980 0.07914 0.41319 0.04100
H 	H 	0.18854 0.13092 0.41409 0.04300
H 	H 	0.20322 0.05370 0.50628 0.04300
H 	H 	0.10469 0.00220 0.50570 0.04100
H 	H 	0.25573 0.05341 0.44071 0.04100
H 	H 	0.35444 0.10297 0.44208 0.03800
H 	H 	0.37895 0.25345 0.48013 0.04000
H 	H 	0.28028 0.20394 0.47904 0.04100
C 	C 	0.73263 0.50191 0.96842 -0.08700
C 	C 	0.70440 0.52475 0.97047 0.01600
C 	C 	0.73139 0.57978 0.97043 -0.06600
C 	C 	0.78687 0.61256 0.96838 0.02700
C 	C 	0.81478 0.58954 0.96514 -0.06600
C 	C 	0.78774 0.53438 0.96508 0.01500
C 	C 	0.81619 0.67130 0.97135 0.00100
C 	C 	0.83890 0.69598 0.93963 -0.03500
C 	C 	0.86646 0.75169 0.94249 -0.04200
C 	C 	0.87142 0.78297 0.97704 0.01700
C 	C 	0.84854 0.75835 0.00866 -0.04600
C 	C 	0.82102 0.70270 0.00586 -0.03800
C 	C 	0.90209 0.84064 0.98073 0.00300
C 	C 	0.92862 0.88902 0.98401 -0.03900
H 	H 	0.66161 0.49993 0.97234 0.03400
H 	H 	0.70937 0.59710 0.97245 0.04700
H 	H 	0.85764 0.61457 0.96347 0.04600
H 	H 	0.80995 0.51724 0.96346 0.03000
H 	H 	0.83513 0.67203 0.91281 0.03900
H 	H 	0.88422 0.77053 0.91798 0.04300
H 	H 	0.85244 0.78235 0.03552 0.04200
H 	H 	0.80372 0.68400 0.03053 0.03800
C 	C 	0.94634 0.05686 0.00455 -0.02700
C 	C 	0.96041 0.09994 0.98522 -0.01700
C 	C 	0.93431 0.12459 0.98909 -0.04500
C 	C 	0.89411 0.10659 0.01247 0.00700
C 	C 	0.88128 0.06469 0.03278 -0.04700
C 	C 	0.90718 0.03988 0.02879 -0.02000
C 	C 	0.86331 0.12948 0.01388 0.01300
C 	C 	0.80677 0.09615 0.00005 -0.05700
C 	C 	0.77801 0.11828 0.99920 -0.01800
C 	C 	0.80551 0.17385 0.01209 -0.02200
C 	C 	0.86175 0.20703 0.02681 -0.02600
C 	C 	0.89058 0.18492 0.02778 -0.04900
C 	C 	0.77692 0.19741 0.00689 0.05200
C 	C 	0.75284 0.21675 0.00119 -0.13100
H 	H 	0.99049 0.11337 0.96640 0.03800
H 	H 	0.94443 0.15684 0.97323 0.04100
H 	H 	0.85073 0.05088 0.05122 0.04100
H 	H 	0.89658 0.00726 0.04435 0.03900
H 	H 	0.78534 0.05333 0.98922 0.04600
H 	H 	0.73457 0.09241 0.98769 0.03400
H 	H 	0.88330 0.25005 0.03679 0.03600
H 	H 	0.93413 0.21092 0.03881 0.04100
C 	C 	0.10533 0.05924 0.99005 -0.01700
C 	C 	0.13023 0.09994 0.96746 -0.01900
C 	C 	0.18435 0.12426 0.96347 -0.04900
C 	C 	0.21398 0.10820 0.98219 0.01700
C 	C 	0.18960 0.06876 0.00576 -0.05200
C 	C 	0.13556 0.04437 0.00966 -0.02200
C 	C 	0.27042 0.13238 0.97699 0.00600
C 	C 	0.28396 0.09958 0.96004 -0.04200
C 	C 	0.33824 0.12163 0.95819 -0.03000
C 	C 	0.37923 0.17658 0.97311 -0.01000
C 	C 	0.36561 0.20969 0.98906 -0.02700
C 	C 	0.31139 0.18767 0.99101 -0.03900
C 	C 	0.43553 0.19862 0.97390 0.04700
C 	C 	0.48315 0.21846 0.97554 -0.11100
H 	H 	0.10728 0.11167 0.95213 0.04000
H 	H 	0.20295 0.15491 0.94537 0.04300
H 	H 	0.21243 0.05674 0.02084 0.04300
H 	H 	0.11698 0.01351 0.02759 0.04100
H 	H 	0.25255 0.05690 0.94888 0.04200
H 	H 	0.34846 0.09585 0.94570 0.03900
H 	H 	0.39713 0.25226 0.00056 0.03500
H 	H 	0.30138 0.21331 0.00417 0.03800
