data_crystal

_cell_length_a 19.84296
_cell_length_b 21.57107
_cell_length_c 44.33083
_cell_angle_alpha 60.63692
_cell_angle_beta  119.09728
_cell_angle_gamma 133.29750

_symmetry_space_group_name_	'P 1'
_symmetry_space_group_name_H-M	'P 1'

loop_
_symmetry_equiv_pos_as_xyz
  x,y,z

loop_
_atom_site_label
_atom_site_type_symbol
_atom_site_fract_x
_atom_site_fract_y
_atom_site_fract_z
_atom_site_charge
C 	C 	0.29142 0.62775 0.15998 0.11400
N 	N 	0.23815 0.54828 0.15262 -0.14000
C 	C 	0.28344 0.51793 0.15516 0.11600
C 	C 	0.23367 0.63360 0.61402 0.11400
C 	C 	0.17779 0.50597 0.60317 0.11800
N 	N 	0.15939 0.55251 0.60680 -0.14000
Co	Co	0.04568 0.11124 0.06632 1.18600
Co	Co	0.12179 0.04848 0.04243 1.17400
Co	Co	0.12873 0.90364 0.04005 1.17600
C 	C 	0.30210 0.06438 0.06435 0.27600
O 	O 	0.00712 0.06537 0.15864 -0.39100
O 	O 	0.13303 0.15283 0.03901 -0.47600
C 	C 	0.11826 0.23418 0.10510 0.30500
C 	C 	0.12140 0.79438 0.11455 0.30500
O 	O 	0.09665 0.79204 0.08178 -0.40300
O 	O 	0.10716 0.83703 0.12177 -0.39100
O 	O 	0.02998 0.20722 0.09361 -0.41100
O 	O 	0.14295 0.19684 0.10012 -0.40000
O 	O 	0.07805 0.94123 0.05509 -0.74600
O 	O 	0.26264 0.98084 0.06988 -0.37900
O 	O 	0.26103 0.08866 0.06792 -0.40500
Co	Co	0.00898 0.00254 0.52806 1.18000
Co	Co	0.07589 0.90637 0.52370 1.17600
C 	C 	0.19162 0.09883 0.51366 0.32000
C 	C 	0.04738 0.16662 0.61759 0.29300
C 	C 	0.17663 0.87946 0.59782 0.29500
O 	O 	0.01939 0.93410 0.67607 -0.35800
O 	O 	0.19076 0.93595 0.56679 -0.39200
O 	O 	0.12591 0.86767 0.61407 -0.37700
O 	O 	0.01161 0.10109 0.64469 -0.39900
O 	O 	0.05750 0.15471 0.59351 -0.38500
O 	O 	0.01624 0.91643 0.54773 -0.73300
O 	O 	0.14379 0.03854 0.49684 -0.42300
O 	O 	0.15275 0.08977 0.53372 -0.41800
C 	C 	0.17407 0.11919 0.92003 0.02200
C 	C 	0.17251 0.11245 0.88967 -0.06900
C 	C 	0.09309 0.99914 0.78855 0.04200
C 	C 	0.07404 0.93387 0.82061 -0.05700
C 	C 	0.07519 0.94786 0.84876 0.00100
C 	C 	0.06912 0.97700 0.75676 0.01900
C 	C 	0.03853 0.95665 0.72930 -0.06100
H 	H 	0.23839 0.17219 0.93247 0.02200
H 	H 	0.23516 0.16104 0.87886 0.04200
H 	H 	0.05509 0.87111 0.82336 0.05000
H 	H 	0.05951 0.89652 0.87317 0.03500
C 	C 	0.06952 0.01562 0.23899 0.00500
C 	C 	0.05855 0.01253 0.26886 -0.06400
H 	H 	0.13883 0.06366 0.23280 0.03100
H 	H 	0.12022 0.05586 0.28603 0.04200
H 	H 	0.01178 0.10260 0.34134 0.05100
H 	H 	0.02787 0.09898 0.29031 0.04900
C 	C 	0.09312 0.35063 0.63554 -0.06800
C 	C 	0.10468 0.41229 0.60257 -0.02700
C 	C 	0.08237 0.38696 0.57309 0.05000
C 	C 	0.06518 0.30742 0.57845 -0.02200
C 	C 	0.07083 0.25300 0.61289 -0.09500
C 	C 	0.08754 0.27657 0.64202 0.08700
C 	C 	0.10641 0.22775 0.68010 -0.19500
H 	H 	0.10454 0.36757 0.65775 0.04800
H 	H 	0.04946 0.28910 0.55583 0.04400
C 	C 	0.09121 0.45036 0.53690 -0.18300
H 	H 	0.14486 0.26872 0.69888 0.06400
H 	H 	0.15216 0.21066 0.68399 0.08000
H 	H 	0.03798 0.16731 0.68736 0.06800
H 	H 	0.06724 0.48888 0.53215 0.07100
C 	C 	0.28416 0.78570 0.60025 -0.07300
C 	C 	0.21721 0.69451 0.61179 -0.02400
C 	C 	0.14460 0.66484 0.62507 0.04900
C 	C 	0.13515 0.72651 0.62298 -0.01800
C 	C 	0.20171 0.81753 0.61064 -0.10200
C 	C 	0.28171 0.84652 0.60276 0.09100
C 	C 	0.36372 0.94269 0.59583 -0.20200
H 	H 	0.34074 0.80973 0.59041 0.05200
H 	H 	0.07471 0.70336 0.63002 0.04500
C 	C 	0.07807 0.56900 0.64167 -0.18300
H 	H 	0.37298 0.97650 0.61145 0.08200
H 	H 	0.35091 0.97465 0.56701 0.08100
H 	H 	0.11912 0.54222 0.66215 0.07200
H 	H 	0.02835 0.53172 0.62081 0.08100
C 	C 	0.25906 0.45867 0.11228 -0.07200
C 	C 	0.23196 0.44233 0.14091 -0.02700
C 	C 	0.18444 0.35573 0.16232 0.04400
C 	C 	0.16519 0.28778 0.15479 -0.02700
C 	C 	0.18682 0.30374 0.12472 -0.10500
C 	C 	0.24471 0.39146 0.10641 0.09000
C 	C 	0.29036 0.41392 0.08026 -0.20400
H 	H 	0.29912 0.52551 0.09658 0.05200
H 	H 	0.12610 0.22108 0.17061 0.04300
C 	C 	0.15650 0.33578 0.19378 -0.18000
H 	H 	0.24333 0.41394 0.05312 0.06800
H 	H 	0.30470 0.36597 0.08783 0.08000
H 	H 	0.11685 0.36284 0.18548 0.06600
H 	H 	0.22135 0.36566 0.21494 0.06600
H 	H 	0.10976 0.26387 0.20514 0.06200
C 	C 	0.10634 0.65473 0.14815 -0.02000
C 	C 	0.16301 0.74652 0.14290 -0.10400
C 	C 	0.26281 0.79237 0.15353 0.09600
C 	C 	0.30349 0.75228 0.15976 -0.07600
C 	C 	0.24581 0.66352 0.15899 -0.02300
C 	C 	0.14734 0.61209 0.15730 0.04400
C 	C 	0.08734 0.51310 0.16759 -0.17900
H 	H 	0.02986 0.61713 0.14336 0.03900
H 	H 	0.38018 0.79108 0.16460 0.05600
C 	C 	0.32697 0.88675 0.15488 -0.21200
H 	H 	0.02270 0.48460 0.17453 0.06300
H 	H 	0.12787 0.48940 0.19146 0.06900
H 	H 	0.06400 0.48839 0.14504 0.07100
H 	H 	0.28968 0.90431 0.15779 0.08800
H 	H 	0.35319 0.92964 0.13017 0.08700
H 	H 	0.38922 0.89891 0.17802 0.07300
C 	C 	0.35409 0.15873 0.55093 -0.01600
C 	C 	0.29388 0.16254 0.51706 -0.11900
C 	C 	0.33098 0.21223 0.48652 0.09800
C 	C 	0.26997 0.22510 0.45003 -0.20400
H 	H 	0.32600 0.12312 0.57440 0.04000
H 	H 	0.31467 0.28535 0.43144 0.06900
H 	H 	0.22142 0.23265 0.45129 0.07700
H 	H 	0.22708 0.16768 0.43914 0.07800
C 	C 	0.05004 0.35089 0.02158 -0.18600
H 	H 	0.08052 0.41327 0.00084 0.07000
H 	H 	0.06887 0.31238 0.02221 0.08000
H 	H 	0.08360 0.36718 0.04762 0.07800
C 	C 	0.39676 0.16735 0.01944 -0.03400
C 	C 	0.39466 0.13093 0.05546 -0.10100
H 	H 	0.33308 0.15865 0.99928 0.04500
H 	H 	0.41527 0.08889 0.12616 0.07100
H 	H 	0.53786 0.18137 0.13140 0.06500
N 	N 	0.37950 0.56737 0.16415 -0.14300
N 	N 	0.38772 0.68009 0.16463 -0.14200
N 	N 	0.32435 0.66497 0.61844 -0.14200
N 	N 	0.26790 0.54179 0.60517 -0.14300
H 	H 	0.16669 0.49624 0.53517 0.07000
H 	H 	0.04699 0.41494 0.51553 0.06700
H 	H 	0.39190 0.76137 0.54906 0.06700
H 	H 	0.35969 0.48002 0.07981 0.07100
C 	C 	0.11449 0.03699 0.97515 0.30900
O 	O 	0.16825 0.01012 0.99660 -0.42400
O 	O 	0.08675 0.05885 0.98782 -0.38900
C 	C 	0.09647 0.05327 0.93625 -0.11800
C 	C 	0.09226 0.04069 0.87458 0.00800
C 	C 	0.09488 0.02723 0.84513 -0.03000
C 	C 	0.34087 0.62015 0.61309 0.12000
H 	H 	0.34301 0.66104 0.54115 0.06900
O 	O 	0.01714 0.77545 0.54983 -0.38900
O 	O 	0.00190 0.94791 0.16700 -0.35900
H 	H 	0.40555 0.21818 0.95318 0.06200
H 	H 	0.43155 0.95104 0.60389 0.07000
C 	C 	0.42405 0.24614 0.49001 -0.07600
C 	C 	0.47924 0.14748 0.08193 0.08600
C 	C 	0.48376 0.12166 0.12091 -0.19700
C 	C 	0.43081 0.65164 0.16445 0.11900
C 	C 	0.40982 0.72405 0.54780 -0.18100
C 	C 	0.47960 0.21260 0.00922 0.04800
H 	H 	0.45209 0.28154 0.46654 0.05000
H 	H 	0.50556 0.07671 0.13593 0.05800
H 	H 	0.44685 0.76327 0.52589 0.06300
C 	C 	0.48140 0.23489 0.52371 -0.02800
C 	C 	0.44709 0.19239 0.55453 0.03900
C 	C 	0.47922 0.24798 0.97018 -0.18000
C 	C 	0.43720 0.65766 0.61452 -0.02800
C 	C 	0.47091 0.70625 0.58319 0.04600
H 	H 	0.46289 0.77958 0.10446 0.05300
H 	H 	0.46750 0.13673 0.61196 0.05600
H 	H 	0.51461 0.23266 0.96458 0.06600
H 	H 	0.46362 0.59442 0.67017 0.05000
H 	H 	0.54939 0.57682 0.20651 0.07000
C 	C 	0.56273 0.19443 0.07167 -0.07100
C 	C 	0.56372 0.22815 0.03555 -0.03400
H 	H 	0.51749 0.32032 0.96260 0.06900
C 	C 	0.49245 0.63711 0.64667 -0.07200
C 	C 	0.52075 0.77265 0.11865 -0.07300
C 	C 	0.51989 0.71554 0.15269 -0.02700
C 	C 	0.50911 0.18224 0.59119 -0.17600
H 	H 	0.51885 0.85868 0.05045 0.07100
H 	H 	0.57389 0.65261 0.22389 0.06700
H 	H 	0.54197 0.15517 0.59225 0.06000
C 	C 	0.56395 0.74176 0.58546 -0.02300
C 	C 	0.59373 0.70453 0.17061 0.04400
C 	C 	0.59692 0.64632 0.20779 -0.18000
H 	H 	0.52792 0.94885 0.53774 0.06600
H 	H 	0.56594 0.24707 0.59779 0.06600
H 	H 	0.60218 0.16091 0.97627 0.06500
C 	C 	0.57910 0.27391 0.52673 0.11900
C 	C 	0.58547 0.67299 0.64874 0.09700
H 	H 	0.62840 0.20885 0.09183 0.04300
H 	H 	0.59279 0.78440 0.56196 0.03500
H 	H 	0.60035 0.59216 0.70225 0.06700
C 	C 	0.59268 0.81690 0.10197 0.09600
C 	C 	0.59232 0.87819 0.06543 -0.20600
H 	H 	0.58107 0.09126 0.53853 0.04300
H 	H 	0.03522 0.55896 0.65506 0.06800
N 	N 	0.59812 0.23673 0.51764 -0.14500
Co	Co	0.00993 0.86723 0.08480 1.19100
C 	C 	0.11713 0.09367 0.81347 -0.02000
C 	C 	0.11630 0.07969 0.78540 -0.07800
H 	H 	0.63388 0.18360 0.93839 0.05900
C 	C 	0.62474 0.73442 0.61878 -0.10500
H 	H 	0.62074 0.87679 0.04967 0.08100
C 	C 	0.60341 0.97199 0.54790 -0.18000
H 	H 	0.13290 0.15533 0.81024 0.03200
H 	H 	0.13013 0.13032 0.76073 0.04200
H 	H 	0.61986 0.95145 0.57746 0.07500
H 	H 	0.65040 0.26862 0.94546 0.06500
C 	C 	0.65512 0.29522 0.02592 0.11800
N 	N 	0.65085 0.34488 0.54030 -0.14300
C 	C 	0.64534 0.65243 0.68375 -0.20300
H 	H 	0.63705 0.94626 0.06794 0.07900
H 	H 	0.61124 0.93970 0.53777 0.07600
C 	C 	0.65422 0.21168 0.95924 -0.17700
O 	O 	0.00607 0.98263 0.06842 -0.56200
C 	C 	0.01285 0.98653 0.91905 0.05500
C 	C 	0.64581 0.12249 0.53191 -0.06800
C 	C 	0.66429 0.74739 0.15346 -0.01800
C 	C 	0.66853 0.80888 0.12058 -0.11100
H 	H 	0.67041 0.66485 0.22177 0.06200
C 	C 	0.01096 0.97970 0.88860 -0.03000
C 	C 	0.66954 0.07059 0.53573 0.07000
H 	H 	0.68611 0.64072 0.67944 0.08300
C 	C 	0.68951 0.26834 0.52357 0.11400
N 	N 	0.69164 0.27418 0.01661 -0.14600
O 	O 	0.99106 0.08643 0.52641 -0.48600
C 	C 	0.99391 0.98972 0.17818 0.26800
C 	C 	0.99115 0.03819 0.30952 -0.07200
C 	C 	0.99009 0.96199 0.21563 -0.07400
C 	C 	0.98102 0.04018 0.33831 -0.06900
C 	C 	0.96783 0.95584 0.27579 0.01700
Co	Co	0.95343 0.04449 0.57148 1.17400
O 	O 	0.94935 0.98993 0.47447 -0.37400
Co	Co	0.99393 0.85049 0.58843 1.17200
C 	C 	0.98308 0.92987 0.69600 0.26200
O 	O 	0.95347 0.87692 0.48448 -0.41300
O 	O 	0.89896 0.91337 0.68305 -0.40000
C 	C 	0.77399 0.33792 0.00544 0.11000
N 	N 	0.70115 0.37940 0.02481 -0.14300
C 	C 	0.78558 0.44308 0.01556 0.11600
N 	N 	0.82260 0.42292 0.00560 -0.14300
N 	N 	0.76234 0.34140 0.53669 -0.14400
C 	C 	0.74229 0.38016 0.54462 0.11600
Co	Co	0.94774 0.93508 0.11418 1.17900
C 	C 	0.92372 0.76331 0.03091 0.29400
Co	Co	0.92252 0.07665 0.10829 1.15900
O 	O 	0.97072 0.03612 0.09361 -0.77900
O 	O 	0.94364 0.83245 0.11972 -0.47900
C 	C 	0.76224 0.88285 0.11316 0.31500
O 	O 	0.81121 0.94983 0.12624 -0.40900
O 	O 	0.80265 0.87290 0.10112 -0.39600
C 	C 	0.89635 0.15071 0.03077 0.29400
O 	O 	0.84844 0.08790 0.05569 -0.40100
O 	O 	0.96119 0.15472 0.02626 -0.39300
O 	O 	0.98945 0.83289 0.01303 -0.40600
O 	O 	0.90992 0.76880 0.05611 -0.38500
Co	Co	0.92757 0.88887 0.62943 1.18000
C 	C 	0.93173 0.71890 0.55587 0.28300
Co	Co	0.87317 0.99299 0.63550 1.17300
O 	O 	0.91699 0.97221 0.60891 -0.76300
O 	O 	0.95280 0.80827 0.63281 -0.47900
O 	O 	0.93783 0.92764 0.57348 -0.58600
C 	C 	0.72389 0.81079 0.62405 0.29800
C 	C 	0.94275 0.93928 0.46244 0.30400
O 	O 	0.73978 0.88309 0.62203 -0.38900
O 	O 	0.79246 0.79913 0.63970 -0.38900
C 	C 	0.81136 0.07210 0.55824 0.30700
O 	O 	0.84453 0.07751 0.59130 -0.41900
O 	O 	0.83145 0.04078 0.54721 -0.40600
O 	O 	0.90469 0.73591 0.57135 -0.39000
H 	H 	0.94739 0.92545 0.87668 0.02500
H 	H 	0.95160 0.93626 0.93068 0.01000
C 	C 	0.88946 0.89793 0.25382 -0.05900
C 	C 	0.90079 0.90047 0.22417 0.00100
C 	C 	0.95460 0.95796 0.30581 0.02100
C 	C 	0.90573 0.87977 0.33076 -0.04400
C 	C 	0.89471 0.88181 0.35921 -0.04000
C 	C 	0.93303 0.96199 0.36336 0.01600
C 	C 	0.93361 0.96422 0.39594 0.03000
C 	C 	0.93575 0.95850 0.42509 -0.10200
H 	H 	0.81915 0.85314 0.25888 0.04200
H 	H 	0.83871 0.85897 0.20643 0.03000
H 	H 	0.87763 0.81754 0.32852 0.03700
H 	H 	0.85857 0.82111 0.37858 0.03700
H 	H 	0.69560 0.70809 0.69654 0.08200
H 	H 	0.72157 0.73967 0.16734 0.03400
C 	C 	0.81431 0.20178 0.51633 -0.02300
C 	C 	0.76046 0.11155 0.53277 -0.10500
C 	C 	0.70798 0.21469 0.52147 -0.03000
C 	C 	0.78708 0.25363 0.50974 0.04400
C 	C 	0.84133 0.34890 0.48993 -0.17900
H 	H 	0.88119 0.23278 0.51145 0.03000
H 	H 	0.88240 0.36242 0.47454 0.05600
H 	H 	0.89158 0.39099 0.50906 0.06500
H 	H 	0.79155 0.36682 0.47066 0.06600
C 	C 	0.83891 0.53955 0.52112 -0.07000
C 	C 	0.81618 0.46834 0.55100 -0.03000
C 	C 	0.83405 0.48087 0.58328 0.04100
C 	C 	0.86253 0.56075 0.58380 -0.02500
C 	C 	0.87600 0.62909 0.55275 -0.09700
C 	C 	0.86030 0.61672 0.52079 0.08600
C 	C 	0.86536 0.68528 0.48618 -0.19900
H 	H 	0.82797 0.53082 0.49663 0.04600
H 	H 	0.87735 0.57069 0.60865 0.03500
C 	C 	0.81617 0.40701 0.61657 -0.17800
H 	H 	0.94093 0.74055 0.48524 0.06200
H 	H 	0.82810 0.70986 0.48350 0.08300
H 	H 	0.83002 0.65778 0.46290 0.06700
H 	H 	0.83775 0.36929 0.61834 0.06100
H 	H 	0.73933 0.36228 0.61625 0.06400
H 	H 	0.85769 0.43247 0.64083 0.05400
C 	C 	0.91145 0.34878 0.00942 -0.07500
C 	C 	0.81419 0.31278 0.99640 -0.02500
C 	C 	0.75306 0.23945 0.98167 0.04200
C 	C 	0.78400 0.18998 0.98918 -0.02200
C 	C 	0.87783 0.21812 0.00795 -0.10400
C 	C 	0.94451 0.30415 0.01336 0.07600
H 	H 	0.96103 0.40964 0.01769 0.04800
H 	H 	0.73360 0.12720 0.98234 0.03500
C 	C 	0.88706 0.61464 0.05700 -0.02300
C 	C 	0.87649 0.67629 0.02688 -0.10600
C 	C 	0.84340 0.66355 0.99259 0.09200
C 	C 	0.82910 0.59372 0.98904 -0.07200
C 	C 	0.83900 0.53180 0.01917 -0.03100
C 	C 	0.87170 0.54431 0.05340 0.04400
C 	C 	0.88408 0.47925 0.08628 -0.17800
H 	H 	0.91168 0.62368 0.08331 0.04000
H 	H 	0.80335 0.58396 0.96276 0.04700
C 	C 	0.82528 0.72517 0.95958 -0.19900
H 	H 	0.92621 0.50613 0.11010 0.05500
H 	H 	0.92208 0.46301 0.08296 0.06300
H 	H 	0.81335 0.41824 0.09121 0.06700
H 	H 	0.89128 0.77968 0.94967 0.07300
H 	H 	0.80215 0.75249 0.96501 0.07800
H 	H 	0.76782 0.69023 0.93824 0.06600
