data_crystal

_cell_length_a 30.28364
_cell_length_b 27.83732
_cell_length_c 39.97595
_cell_angle_alpha 103.73376
_cell_angle_beta  115.81268
_cell_angle_gamma 112.16070

_symmetry_space_group_name_	'P 1'
_symmetry_space_group_name_H-M	'P 1'

loop_
_symmetry_equiv_pos_as_xyz
  x,y,z

loop_
_atom_site_label
_atom_site_type_symbol
_atom_site_fract_x
_atom_site_fract_y
_atom_site_fract_z
_atom_site_charge
C 	C 	0.59752 0.29767 0.90657 0.02300
C 	C 	0.60122 0.25011 0.88929 -0.02100
C 	C 	0.65585 0.25651 0.90662 0.02100
C 	C 	0.70719 0.31225 0.93878 -0.02200
C 	C 	0.70417 0.36118 0.95345 0.02100
C 	C 	0.64916 0.35235 0.93991 -0.02300
C 	C 	0.54272 0.27929 0.90015 -0.06000
S 	S 	0.53877 0.18766 0.86886 -0.01400
C 	C 	0.66595 0.21874 0.88450 -0.06000
S 	S 	0.76258 0.31466 0.93834 -0.01700
C 	C 	0.74887 0.42084 0.97049 -0.06000
S 	S 	0.65638 0.41709 0.94824 -0.01400
C 	C 	0.50412 0.21763 0.87855 0.00100
H 	H 	0.53572 0.30895 0.91704 0.04600
C 	C 	0.72507 0.24587 0.89896 0.00100
H 	H 	0.63104 0.17550 0.85706 0.04400
C 	C 	0.72841 0.45841 0.97047 -0.00000
H 	H 	0.79149 0.43420 0.97695 0.04400
C 	C 	0.81571 0.62389 0.97421 0.01500
C 	C 	0.84779 0.60926 0.00276 -0.04500
C 	C 	0.81907 0.55583 0.00203 -0.04200
C 	C 	0.75806 0.51597 0.97220 0.01000
C 	C 	0.72593 0.53102 0.94384 -0.04100
C 	C 	0.75458 0.58504 0.94527 -0.03900
H 	H 	0.89502 0.63913 0.02532 0.03600
H 	H 	0.84425 0.54530 0.02454 0.03400
H 	H 	0.67901 0.50066 0.92026 0.04000
H 	H 	0.72939 0.59632 0.92341 0.04000
C 	C 	0.37770 0.14742 0.90403 0.01200
C 	C 	0.37512 0.18199 0.88371 -0.04400
C 	C 	0.41444 0.20212 0.87324 -0.04100
C 	C 	0.45674 0.18791 0.88302 0.00900
C 	C 	0.45733 0.15079 0.90149 -0.04000
C 	C 	0.41731 0.12991 0.91133 -0.04500
H 	H 	0.34353 0.19435 0.87694 0.03900
H 	H 	0.41317 0.23021 0.85863 0.03800
H 	H 	0.48987 0.13965 0.90948 0.03900
H 	H 	0.41832 0.10169 0.92584 0.03700
C 	C 	0.81678 0.15953 0.90527 0.01400
C 	C 	0.75759 0.12663 0.89007 -0.04300
C 	C 	0.72606 0.15346 0.88551 -0.04000
C 	C 	0.75311 0.21324 0.89508 0.00900
C 	C 	0.81026 0.24390 0.90576 -0.04200
C 	C 	0.84241 0.21773 0.91188 -0.04000
H 	H 	0.73713 0.08135 0.88428 0.03700
H 	H 	0.68176 0.12857 0.87654 0.03700
H 	H 	0.83092 0.28916 0.91154 0.03600
H 	H 	0.88818 0.24380 0.92406 0.03500
C 	C 	0.55610 0.28826 0.40800 0.02200
C 	C 	0.56737 0.24455 0.39687 -0.02300
C 	C 	0.62515 0.25874 0.41697 0.02100
C 	C 	0.67205 0.31812 0.44580 -0.02300
C 	C 	0.66126 0.36264 0.45494 0.02100
C 	C 	0.60339 0.34675 0.43841 -0.02300
C 	C 	0.50011 0.26491 0.40029 -0.06000
S 	S 	0.51019 0.17986 0.38029 -0.01300
C 	C 	0.64101 0.22390 0.39891 -0.06000
S 	S 	0.73021 0.32681 0.44684 -0.01800
C 	C 	0.70044 0.42298 0.46889 -0.06100
S 	S 	0.60127 0.40594 0.43964 -0.01300
C 	C 	0.46826 0.20337 0.38378 0.00100
H 	H 	0.48818 0.29244 0.41338 0.04700
C 	C 	0.69937 0.25671 0.41247 0.00100
H 	H 	0.61065 0.17725 0.37592 0.04600
C 	C 	0.67273 0.45379 0.46316 -0.00000
H 	H 	0.74456 0.44107 0.47728 0.04500
C 	C 	0.74569 0.60890 0.45239 0.01500
C 	C 	0.69401 0.55642 0.41656 -0.04300
C 	C 	0.66914 0.50596 0.42014 -0.04000
C 	C 	0.69573 0.50780 0.45970 0.01000
C 	C 	0.74681 0.56066 0.49563 -0.04200
C 	C 	0.77166 0.61106 0.49201 -0.04100
H 	H 	0.67375 0.55447 0.38585 0.03700
H 	H 	0.63013 0.46515 0.39206 0.03900
H 	H 	0.76770 0.56242 0.52625 0.03600
H 	H 	0.81163 0.65148 0.51982 0.03900
C 	C 	0.34555 0.13300 0.41206 0.01700
C 	C 	0.32850 0.14121 0.37628 -0.04000
C 	C 	0.36779 0.16139 0.36578 -0.03900
C 	C 	0.42428 0.17322 0.39084 0.01000
C 	C 	0.44056 0.16285 0.42575 -0.04000
C 	C 	0.40121 0.14264 0.43623 -0.04300
H 	H 	0.28547 0.13368 0.35741 0.04500
H 	H 	0.35497 0.16951 0.33891 0.04100
H 	H 	0.48435 0.17254 0.44562 0.03900
H 	H 	0.41465 0.13637 0.46392 0.03700
C 	C 	0.79113 0.17243 0.40978 0.01400
C 	C 	0.74126 0.15700 0.37195 -0.04000
C 	C 	0.71223 0.18572 0.37274 -0.04200
C 	C 	0.73282 0.22998 0.41139 0.00900
C 	C 	0.78365 0.24633 0.44910 -0.04100
C 	C 	0.81281 0.21789 0.44820 -0.04400
H 	H 	0.72423 0.12186 0.34214 0.03700
H 	H 	0.67326 0.17297 0.34343 0.03700
H 	H 	0.79959 0.27975 0.47923 0.03700
H 	H 	0.85112 0.22976 0.47758 0.03500
C 	C 	0.51328 0.77248 0.03517 0.02300
C 	C 	0.51142 0.82297 0.04815 -0.02200
C 	C 	0.48011 0.82563 0.06535 0.02200
C 	C 	0.44629 0.77517 0.06608 -0.02300
C 	C 	0.44343 0.72273 0.04937 0.02200
C 	C 	0.48089 0.72326 0.03742 -0.02400
C 	C 	0.56376 0.78482 0.03590 -0.06000
S 	S 	0.57230 0.88118 0.06172 -0.01100
C 	C 	0.46018 0.86444 0.06590 -0.05900
S 	S 	0.39240 0.77852 0.06578 -0.01000
C 	C 	0.39479 0.66500 0.03161 -0.05900
S 	S 	0.45264 0.65345 0.00477 -0.01200
C 	C 	0.60186 0.84512 0.05084 0.00100
H 	H 	0.57319 0.75173 0.02780 0.04500
C 	C 	0.41114 0.84405 0.06713 0.00100
H 	H 	0.47437 0.89982 0.05846 0.04800
C 	C 	0.39365 0.62096 0.00492 -0.00100
H 	H 	0.36249 0.65580 0.03842 0.04700
C 	C 	0.29806 0.44174 0.97817 0.01600
C 	C 	0.26831 0.46524 0.95769 -0.03900
C 	C 	0.29977 0.52341 0.96571 -0.04100
C 	C 	0.36125 0.55827 0.99385 0.01300
C 	C 	0.39112 0.53417 0.01343 -0.04200
C 	C 	0.35960 0.47610 0.00562 -0.04100
H 	H 	0.22080 0.43892 0.93634 0.04100
H 	H 	0.27633 0.54166 0.95052 0.04100
H 	H 	0.43855 0.56086 0.03552 0.03800
H 	H 	0.38289 0.45827 0.02159 0.03800
C 	C 	0.74133 0.91234 0.03591 0.01200
C 	C 	0.73161 0.86834 0.04819 -0.04400
C 	C 	0.68726 0.84769 0.05421 -0.04100
C 	C 	0.65095 0.86959 0.04678 0.00900
C 	C 	0.66116 0.91412 0.03485 -0.03900
C 	C 	0.70623 0.93544 0.02958 -0.04300
H 	H 	0.75777 0.84942 0.05236 0.03600
H 	H 	0.68082 0.81431 0.06428 0.03500
H 	H 	0.63338 0.93121 0.02861 0.04100
H 	H 	0.71288 0.96882 0.01949 0.04000
C 	C 	0.29064 0.89795 0.02515 0.01600
C 	C 	0.34941 0.93958 0.05995 -0.03900
C 	C 	0.38868 0.92189 0.07364 -0.04000
C 	C 	0.36948 0.86244 0.05260 0.01000
C 	C 	0.31059 0.82084 0.01773 -0.03800
C 	C 	0.27136 0.83851 0.00424 -0.04400
H 	H 	0.36476 0.98566 0.07610 0.04200
H 	H 	0.43398 0.95434 0.10054 0.04000
H 	H 	0.29538 0.77505 0.00067 0.04100
H 	H 	0.22612 0.80615 0.97718 0.04200
C 	C 	0.45459 0.74857 0.51207 0.02400
C 	C 	0.45265 0.79927 0.52336 -0.02300
C 	C 	0.42600 0.80615 0.54377 0.02300
C 	C 	0.39548 0.75885 0.54858 -0.02300
C 	C 	0.39195 0.70560 0.53324 0.02300
C 	C 	0.42572 0.70262 0.51834 -0.02400
C 	C 	0.50229 0.75839 0.50960 -0.06000
S 	S 	0.50990 0.85474 0.53108 -0.00900
C 	C 	0.40646 0.84522 0.54424 -0.05900
S 	S 	0.34427 0.76480 0.55124 -0.00600
C 	C 	0.34465 0.64918 0.51918 -0.06000
S 	S 	0.39564 0.63147 0.48748 -0.00900
C 	C 	0.53804 0.81710 0.52004 0.00100
H 	H 	0.51306 0.72569 0.50422 0.04500
C 	C 	0.36085 0.82807 0.54933 0.00100
H 	H 	0.41834 0.87841 0.53455 0.04800
C 	C 	0.34063 0.60264 0.49218 0.00200
H 	H 	0.31480 0.64266 0.52822 0.04800
C 	C 	0.24944 0.42413 0.46788 0.01600
C 	C 	0.28650 0.47098 0.50947 -0.04100
C 	C 	0.31669 0.52934 0.51755 -0.04000
C 	C 	0.30999 0.54126 0.48403 0.01100
C 	C 	0.27366 0.49430 0.44253 -0.03900
C 	C 	0.24317 0.43594 0.43444 -0.03900
H 	H 	0.29161 0.46215 0.53546 0.03900
H 	H 	0.34530 0.56523 0.54980 0.03900
H 	H 	0.26839 0.50306 0.41649 0.04200
H 	H 	0.21431 0.39999 0.40219 0.04200
C 	C 	0.66815 0.87796 0.49579 0.01500
C 	C 	0.62134 0.81837 0.47154 -0.04300
C 	C 	0.57846 0.79855 0.47897 -0.04000
C 	C 	0.58256 0.83802 0.51134 0.01000
C 	C 	0.62959 0.89767 0.53565 -0.04000
C 	C 	0.67186 0.91762 0.52764 -0.03800
H 	H 	0.61821 0.78743 0.44691 0.03600
H 	H 	0.54189 0.75271 0.45933 0.03800
H 	H 	0.63367 0.92849 0.56095 0.04100
H 	H 	0.70774 0.96379 0.54639 0.04200
C 	C 	0.23397 0.87387 0.50743 0.01500
C 	C 	0.25152 0.85780 0.48183 -0.04000
C 	C 	0.29338 0.84335 0.49559 -0.04000
C 	C 	0.31821 0.84515 0.53521 0.01200
C 	C 	0.30053 0.86115 0.56075 -0.03900
C 	C 	0.25864 0.87559 0.54695 -0.03800
H 	H 	0.23262 0.85638 0.45125 0.04100
H 	H 	0.30593 0.83006 0.47526 0.04100
H 	H 	0.31921 0.86237 0.59126 0.04200
H 	H 	0.24526 0.88795 0.56688 0.04300
Zn	Zn	0.17681 0.12834 0.99622 1.17800
Zn	Zn	0.07162 0.08703 0.91656 1.19200
O 	O 	0.05288 0.98101 0.84509 -0.45400
O 	O 	0.03514 0.05483 0.85335 -0.41800
O 	O 	0.07673 0.92403 0.91408 -0.50000
C 	C 	0.21314 0.09689 0.94486 0.29200
O 	O 	0.02228 0.00798 0.90696 -0.87400
C 	C 	0.17493 0.21251 0.96263 0.33500
O 	O 	0.22566 0.10986 0.98296 -0.46800
O 	O 	0.16762 0.09472 0.91678 -0.34800
O 	O 	0.10109 0.10260 0.97721 -0.77600
O 	O 	0.12637 0.00499 0.97768 -0.49300
O 	O 	0.12132 0.16962 0.92858 -0.43800
O 	O 	0.20271 0.20529 0.99519 -0.46400
Zn	Zn	0.92708 0.92115 0.93467 1.17000
Zn	Zn	0.03591 0.95920 0.01255 1.19700
Zn	Zn	0.05048 0.02367 0.96425 1.21500
C 	C 	0.93280 0.84088 0.97324 0.32700
C 	C 	0.90316 0.96811 0.98948 0.33200
O 	O 	0.97546 0.04600 0.95114 -0.47600
Zn	Zn	0.04186 0.06937 0.03959 1.20400
O 	O 	0.99055 0.87627 0.99848 -0.48200
O 	O 	0.90084 0.84867 0.94242 -0.47200
O 	O 	0.88456 0.94823 0.94972 -0.47400
O 	O 	0.95714 0.98548 0.01847 -0.48400
C 	C 	0.07283 0.03128 0.10198 0.27900
O 	O 	0.00110 0.94450 0.95140 -0.77700
C 	C 	0.97321 0.08497 0.97556 0.29600
O 	O 	0.06745 0.98651 0.07574 -0.40400
O 	O 	0.07838 0.07715 0.09601 -0.44800
O 	O 	0.00464 0.10559 0.01668 -0.45700
O 	O 	0.07709 0.03895 0.02129 -0.89200
Zn	Zn	0.04008 0.95709 0.88457 1.18500
C 	C 	0.04033 0.01614 0.83165 0.28200
C 	C 	0.12028 0.95727 0.95451 0.33900
H 	H 	0.12021 0.06078 0.04193 0.16500
H 	H 	0.97990 0.99232 0.88885 0.13300
Zn	Zn	0.12522 0.11431 0.48623 1.18400
Zn	Zn	0.02596 0.06414 0.39599 1.20400
O 	O 	0.01320 0.95817 0.32911 -0.45900
O 	O 	0.99618 0.03237 0.33408 -0.47700
O 	O 	0.02210 0.89824 0.39573 -0.48200
C 	C 	0.17609 0.07720 0.44987 0.31100
O 	O 	0.97165 0.98529 0.38399 -0.88500
C 	C 	0.12640 0.19229 0.44773 0.33100
O 	O 	0.18787 0.10896 0.48626 -0.46900
O 	O 	0.12140 0.04272 0.41625 -0.37700
O 	O 	0.04616 0.07934 0.45496 -0.76800
O 	O 	0.06997 0.98089 0.45760 -0.45300
O 	O 	0.08647 0.14392 0.41034 -0.44100
O 	O 	0.14647 0.18949 0.48333 -0.46200
Zn	Zn	0.86806 0.89776 0.40648 1.17700
Zn	Zn	0.97265 0.93497 0.48677 1.18200
Zn	Zn	0.99430 0.00010 0.44034 1.20400
C 	C 	0.86711 0.81459 0.44237 0.33300
C 	C 	0.84101 0.94276 0.45970 0.32800
O 	O 	0.91931 0.02273 0.42401 -0.47400
Zn	Zn	0.97955 0.04445 0.51244 1.18800
O 	O 	0.92394 0.85222 0.47240 -0.46900
O 	O 	0.83865 0.82303 0.41072 -0.47000
O 	O 	0.82337 0.92247 0.42013 -0.47500
O 	O 	0.89453 0.95959 0.48910 -0.48500
C 	C 	0.01409 0.00974 0.57743 0.27700
O 	O 	0.94288 0.92087 0.42615 -0.80600
C 	C 	0.91822 0.06384 0.44753 0.32900
O 	O 	0.00513 0.96304 0.55007 -0.39300
O 	O 	0.01367 0.05278 0.56920 -0.44000
O 	O 	0.94266 0.08009 0.48789 -0.50500
O 	O 	0.01661 0.01460 0.49636 -0.87800
Zn	Zn	0.99067 0.93302 0.36466 1.17400
C 	C 	0.00575 0.99534 0.31575 0.33200
C 	C 	0.06212 0.93053 0.43686 0.33000
H 	H 	0.05935 0.03591 0.51823 0.15900
H 	H 	0.92990 0.97086 0.36423 0.15400
C 	C 	0.03575 0.01663 0.72600 0.08800
N 	N 	0.03881 0.97456 0.73659 -0.07000
N 	N 	0.03967 0.97411 0.77012 -0.05800
C 	C 	0.03713 0.01547 0.79385 0.02900
N 	N 	0.03408 0.05755 0.78328 -0.05800
N 	N 	0.03340 0.05813 0.74982 -0.07400
C 	C 	0.02520 0.01407 0.61794 0.02900
N 	N 	0.03136 0.06010 0.64520 -0.06200
N 	N 	0.03561 0.06134 0.68003 -0.07500
C 	C 	0.03381 0.01657 0.68862 0.08700
N 	N 	0.02852 0.97094 0.66169 -0.06700
N 	N 	0.02406 0.96960 0.62675 -0.05300
C 	C 	0.04967 0.01756 0.19524 0.08600
N 	N 	0.06041 0.06655 0.19055 -0.07500
N 	N 	0.07101 0.07236 0.16225 -0.06200
C 	C 	0.07132 0.02942 0.13785 0.02700
N 	N 	0.06164 0.98088 0.14307 -0.05400
N 	N 	0.05120 0.97514 0.17149 -0.06700
C 	C 	0.01294 0.99859 0.28220 0.03300
N 	N 	0.02172 0.95995 0.26251 -0.06300
N 	N 	0.03271 0.96553 0.23431 -0.06900
C 	C 	0.03568 0.01020 0.22527 0.08600
N 	N 	0.02634 0.04851 0.24466 -0.07400
N 	N 	0.01512 0.04278 0.27273 -0.06100
C 	C 	0.21563 0.36289 0.45924 0.00400
C 	C 	0.23731 0.32645 0.45671 0.03600
C 	C 	0.20678 0.26981 0.45177 -0.01000
C 	C 	0.15509 0.24956 0.44951 -0.11000
C 	C 	0.13307 0.28571 0.45157 0.10500
C 	C 	0.16308 0.34198 0.45582 -0.09000
H 	H 	0.22384 0.24203 0.45038 0.03400
H 	H 	0.14624 0.36994 0.45753 0.05500
N 	N 	0.29171 0.34806 0.46083 -0.13500
N 	N 	0.08057 0.26553 0.45003 -0.14500
C 	C 	0.28088 0.32149 0.41958 -0.09300
H 	H 	0.32335 0.34079 0.42346 0.04900
H 	H 	0.25267 0.33114 0.39696 0.05500
H 	H 	0.25975 0.27280 0.40631 0.05000
C 	C 	0.09512 0.29223 0.49259 -0.09100
H 	H 	0.12239 0.28000 0.51336 0.05000
H 	H 	0.05404 0.27538 0.49065 0.05500
H 	H 	0.11877 0.34124 0.50690 0.04700
H 	H 	0.31869 0.33930 0.48216 0.07200
H 	H 	0.05321 0.27538 0.43013 0.08500
C 	C 	0.79692 0.92973 0.46942 -0.11400
C 	C 	0.73851 0.91092 0.43891 0.10300
C 	C 	0.69771 0.89698 0.44884 -0.09300
C 	C 	0.71336 0.89869 0.48782 0.00100
C 	C 	0.77125 0.91737 0.51824 0.03700
C 	C 	0.81295 0.93392 0.50926 -0.01900
H 	H 	0.65328 0.88337 0.42567 0.05200
H 	H 	0.85747 0.94847 0.53303 0.04500
N 	N 	0.72046 0.90565 0.39773 -0.13900
N 	N 	0.78741 0.91836 0.55812 -0.13600
C 	C 	0.68547 0.84348 0.36559 -0.08700
H 	H 	0.70991 0.82202 0.37458 0.04700
H 	H 	0.67618 0.84104 0.33492 0.03800
H 	H 	0.64293 0.81887 0.36112 0.04100
C 	C 	0.78618 0.86492 0.55694 -0.09100
H 	H 	0.74150 0.82480 0.53138 0.04900
H 	H 	0.79734 0.86599 0.58760 0.04800
H 	H 	0.81874 0.86228 0.55193 0.04700
H 	H 	0.69636 0.92486 0.38963 0.07300
H 	H 	0.82906 0.95616 0.58296 0.07800
C 	C 	0.10481 0.91573 0.45838 -0.13100
C 	C 	0.08738 0.85620 0.44591 0.10900
C 	C 	0.12993 0.84308 0.46347 -0.09600
C 	C 	0.18950 0.88863 0.49268 0.00600
C 	C 	0.20663 0.94803 0.50664 0.02900
C 	C 	0.16401 0.96132 0.49016 0.00000
H 	H 	0.11662 0.79741 0.45406 0.05600
H 	H 	0.17747 0.00715 0.50076 0.01800
N 	N 	0.02607 0.80930 0.41715 -0.14800
N 	N 	0.26764 0.99495 0.53755 -0.12200
C 	C 	0.01141 0.77412 0.37590 -0.04400
H 	H 	0.02613 0.80296 0.36298 0.04500
H 	H 	0.96305 0.74284 0.35323 0.00700
H 	H 	0.03176 0.74803 0.37841 0.03900
C 	C 	0.29261 0.02106 0.51741 -0.11700
H 	H 	0.28465 0.98635 0.49078 0.06500
H 	H 	0.34079 0.05258 0.54110 0.05000
H 	H 	0.27375 0.04574 0.50565 0.05300
H 	H 	0.01509 0.78223 0.43015 0.08100
H 	H 	0.27267 0.02745 0.56112 0.06300
C 	C 	0.26465 0.38274 0.97322 0.00500
C 	C 	0.24864 0.37688 0.00092 0.03200
C 	C 	0.21841 0.32070 0.99674 -0.01000
C 	C 	0.20365 0.27039 0.96495 -0.11200
C 	C 	0.21978 0.27622 0.93727 0.10900
C 	C 	0.24968 0.33243 0.94127 -0.09300
H 	H 	0.20673 0.31635 0.01843 0.03100
H 	H 	0.26207 0.33695 0.91997 0.05400
N 	N 	0.26439 0.42847 0.03401 -0.13500
N 	N 	0.20707 0.22510 0.90576 -0.13700
C 	C 	0.21370 0.43293 0.02258 -0.09300
H 	H 	0.19526 0.43397 0.99207 0.05400
H 	H 	0.22783 0.47472 0.04751 0.04900
H 	H 	0.17911 0.39527 0.02008 0.04700
C 	C 	0.25922 0.22260 0.91997 -0.08900
H 	H 	0.29444 0.26090 0.92343 0.04300
H 	H 	0.24748 0.18132 0.89613 0.06200
H 	H 	0.27590 0.22203 0.95066 0.05700
H 	H 	0.28145 0.42732 0.06269 0.07200
H 	H 	0.19151 0.22561 0.87687 0.08700
C 	C 	0.86021 0.95589 0.00013 -0.12200
C 	C 	0.80130 0.90674 0.97069 0.10600
C 	C 	0.76270 0.89469 0.98261 -0.09100
C 	C 	0.78276 0.92838 0.02415 -0.00300
C 	C 	0.84190 0.97697 0.05391 0.03800
C 	C 	0.87970 0.99088 0.04140 0.00000
H 	H 	0.71719 0.85808 0.95963 0.05200
H 	H 	0.92485 0.02833 0.06424 0.02700
N 	N 	0.78074 0.86882 0.92868 -0.14300
N 	N 	0.86440 0.01221 0.09713 -0.14700
C 	C 	0.77021 0.81081 0.92340 -0.09400
H 	H 	0.80892 0.81549 0.94943 0.05600
H 	H 	0.76226 0.78589 0.89304 0.04200
H 	H 	0.73098 0.78483 0.92245 0.04300
C 	C 	0.88961 0.98915 0.12414 -0.07000
H 	H 	0.85578 0.94351 0.11374 0.04400
H 	H 	0.90777 0.01795 0.15733 0.04100
H 	H 	0.92614 0.98939 0.12371 0.05300
H 	H 	0.74244 0.86402 0.90598 0.07400
H 	H 	0.83302 0.01647 0.09974 0.07300
C 	C 	0.25005 0.91709 0.00876 0.00300
C 	C 	0.22723 0.93226 0.03054 0.03200
C 	C 	0.18562 0.94654 0.01291 -0.01100
C 	C 	0.16547 0.94411 0.97322 -0.12600
C 	C 	0.18866 0.92916 0.95160 0.10900
C 	C 	0.23167 0.91694 0.96995 -0.09200
H 	H 	0.16807 0.95817 0.02971 0.01600
H 	H 	0.24996 0.90620 0.95353 0.05400
N 	N 	0.24588 0.93240 0.07042 -0.13500
N 	N 	0.16912 0.92735 0.91119 -0.14900
C 	C 	0.20275 0.87755 0.06436 -0.09300
H 	H 	0.16007 0.87356 0.05215 0.04800
H 	H 	0.21921 0.87774 0.09525 0.05200
H 	H 	0.19617 0.83852 0.04206 0.05400
C 	C 	0.13068 0.86612 0.87688 -0.09100
H 	H 	0.15583 0.84517 0.87837 0.04500
H 	H 	0.11117 0.86568 0.84595 0.04200
H 	H 	0.09409 0.83967 0.87838 0.05400
H 	H 	0.25251 0.96906 0.09184 0.07300
H 	H 	0.20530 0.95094 0.91106 0.07600
C 	C 	0.81733 0.13734 0.40991 -0.00100
C 	C 	0.79305 0.08406 0.41102 0.03500
C 	C 	0.82420 0.05672 0.41924 -0.01500
C 	C 	0.87962 0.08269 0.42702 -0.12400
C 	C 	0.90120 0.13287 0.42167 0.09800
C 	C 	0.87019 0.16031 0.41369 -0.09000
H 	H 	0.80669 0.01710 0.42186 0.03900
H 	H 	0.88803 0.20038 0.41153 0.05000
N 	N 	0.73685 0.05819 0.40428 -0.13600
N 	N 	0.95456 0.15633 0.42426 -0.15100
C 	C 	0.74349 0.06704 0.44418 -0.09100
H 	H 	0.76147 0.04254 0.45728 0.04400
H 	H 	0.69983 0.05010 0.43830 0.04400
H 	H 	0.77264 0.11491 0.46781 0.05000
C 	C 	0.94360 0.12284 0.38418 -0.08800
H 	H 	0.92893 0.07636 0.37711 0.00400
H 	H 	0.98474 0.14369 0.38641 0.01500
H 	H 	0.90999 0.12340 0.35774 0.04300
H 	H 	0.70992 0.01309 0.38223 0.06800
H 	H 	0.98773 0.15796 0.44958 0.05700
C 	C 	0.83505 0.76115 0.44355 -0.11900
C 	C 	0.83871 0.71181 0.43021 0.10600
C 	C 	0.80822 0.66182 0.43244 -0.09000
C 	C 	0.77456 0.66054 0.44803 0.00100
C 	C 	0.77062 0.70943 0.46107 0.03500
C 	C 	0.80117 0.75968 0.45894 -0.01200
H 	H 	0.81135 0.62416 0.42253 0.05400
H 	H 	0.79906 0.79784 0.46974 0.03400
N 	N 	0.87409 0.71232 0.41501 -0.15100
N 	N 	0.73731 0.70877 0.47810 -0.13600
C 	C 	0.84174 0.69470 0.36982 -0.08600
H 	H 	0.80087 0.64981 0.35113 0.04200
H 	H 	0.86938 0.69316 0.35885 0.03300
H 	H 	0.83065 0.72690 0.36377 0.03700
C 	C 	0.68293 0.70244 0.44813 -0.09100
H 	H 	0.69244 0.74189 0.44329 0.04400
H 	H 	0.65661 0.69829 0.46104 0.04500
H 	H 	0.65632 0.66182 0.41722 0.04900
H 	H 	0.91419 0.75310 0.43276 0.07600
H 	H 	0.76262 0.74729 0.50703 0.07200
C 	C 	0.22394 0.09088 0.44469 -0.11100
C 	C 	0.22629 0.04533 0.42197 0.09100
C 	C 	0.26861 0.06013 0.41361 -0.08500
C 	C 	0.30697 0.11910 0.42612 -0.00100
C 	C 	0.30615 0.16444 0.44996 0.03700
C 	C 	0.26519 0.15016 0.45965 -0.01600
H 	H 	0.27041 0.02541 0.39618 0.05300
H 	H 	0.26410 0.18518 0.47748 0.03700
N 	N 	0.18671 0.98404 0.40796 -0.14100
N 	N 	0.34583 0.22512 0.46309 -0.13600
C 	C 	0.13846 0.95301 0.36290 -0.09500
H 	H 	0.11880 0.97873 0.35492 0.07600
H 	H 	0.10370 0.90943 0.35469 0.04900
H 	H 	0.15466 0.94502 0.34337 0.06000
C 	C 	0.39529 0.25595 0.50772 -0.09100
H 	H 	0.38005 0.25830 0.52849 0.04300
H 	H 	0.42643 0.30178 0.51648 0.04500
H 	H 	0.41916 0.23335 0.51316 0.04900
H 	H 	0.17096 0.97862 0.42629 0.08500
H 	H 	0.32379 0.24680 0.45803 0.07200
C 	C 	0.85416 0.13695 0.92129 0.00200
C 	C 	0.88279 0.12684 0.90323 0.03000
C 	C 	0.92014 0.10780 0.92038 -0.01900
C 	C 	0.93028 0.10041 0.95600 -0.11700
C 	C 	0.89962 0.10820 0.97289 0.10300
C 	C 	0.86193 0.12657 0.95546 -0.09400
H 	H 	0.94163 0.09933 0.90619 0.01300
H 	H 	0.83852 0.13267 0.96853 0.05100
N 	N 	0.87082 0.13221 0.86575 -0.13700
N 	N 	0.90360 0.09333 0.00578 -0.14500
C 	C 	0.92304 0.18060 0.87412 -0.08800
H 	H 	0.94401 0.22201 0.90285 0.04100
H 	H 	0.90993 0.18926 0.84676 0.04100
H 	H 	0.95546 0.16862 0.87817 0.03200
C 	C 	0.93675 0.14652 0.04623 -0.08800
H 	H 	0.94383 0.13391 0.07157 0.04100
H 	H 	0.91217 0.16811 0.04489 0.04000
H 	H 	0.98049 0.17850 0.05475 0.04500
H 	H 	0.85511 0.09224 0.84139 0.06700
H 	H 	0.86152 0.06476 0.99709 0.07600
C 	C 	0.84628 0.67951 0.97416 0.00200
C 	C 	0.84513 0.67824 0.93835 0.03100
C 	C 	0.87343 0.73150 0.93847 -0.01200
C 	C 	0.90436 0.78595 0.97444 -0.12100
C 	C 	0.90667 0.78716 0.01086 0.10300
C 	C 	0.87716 0.73390 0.01019 -0.09100
H 	H 	0.87198 0.73041 0.91070 0.02600
H 	H 	0.87830 0.73486 0.03783 0.05500
N 	N 	0.81575 0.62252 0.90200 -0.13600
N 	N 	0.93922 0.84213 0.04889 -0.14800
C 	C 	0.85779 0.60779 0.90321 -0.08900
H 	H 	0.89033 0.64109 0.90145 0.03700
H 	H 	0.83386 0.56381 0.87566 0.04100
H 	H 	0.88094 0.60525 0.93260 0.04700
C 	C 	0.90518 0.86869 0.04622 -0.09100
H 	H 	0.89731 0.88218 0.02134 0.05200
H 	H 	0.93007 0.90869 0.07702 0.05600
H 	H 	0.86251 0.83720 0.03937 0.04900
H 	H 	0.79311 0.62363 0.87388 0.06800
H 	H 	0.98034 0.87191 0.05681 0.09100
C 	C 	0.33722 0.12771 0.91615 -0.00600
C 	C 	0.35669 0.15506 0.95881 0.03700
C 	C 	0.31616 0.13824 0.96867 -0.01800
C 	C 	0.25611 0.09698 0.93645 -0.10600
C 	C 	0.23760 0.06443 0.89460 0.09400
C 	C 	0.27793 0.08322 0.88441 -0.08400
H 	H 	0.33088 0.16136 0.00106 0.04200
H 	H 	0.26313 0.06429 0.85172 0.05400
N 	N 	0.41683 0.20280 0.99204 -0.13900
N 	N 	0.17631 0.01756 0.86155 -0.14300
C 	C 	0.42633 0.25988 0.99553 -0.08800
H 	H 	0.41887 0.26178 0.96624 0.04600
H 	H 	0.47233 0.29576 0.02252 0.04300
H 	H 	0.39676 0.26802 0.00178 0.04400
C 	C 	0.16786 0.96810 0.83040 -0.08300
H 	H 	0.17293 0.97957 0.80699 0.06100
H 	H 	0.12233 0.92899 0.81228 0.05300
H 	H 	0.19886 0.95549 0.84605 0.04500
H 	H 	0.44673 0.19609 0.98874 0.07600
H 	H 	0.15607 0.99964 0.87494 0.08800
