data_crystal

_cell_length_a 20.00368
_cell_length_b 18.46306
_cell_length_c 45.75468
_cell_angle_alpha 89.88822
_cell_angle_beta  89.89154
_cell_angle_gamma 119.45891

_symmetry_space_group_name_	'P 1'
_symmetry_space_group_name_H-M	'P 1'

loop_
_symmetry_equiv_pos_as_xyz
  x,y,z

loop_
_atom_site_label
_atom_site_type_symbol
_atom_site_fract_x
_atom_site_fract_y
_atom_site_fract_z
_atom_site_charge
C 	C 	0.57333 0.24796 0.86556 0.28000
C 	C 	0.75705 0.57311 0.91765 0.30500
C 	C 	0.78543 0.39412 0.85852 0.30400
C 	C 	0.55378 0.43586 0.92955 0.28800
C 	C 	0.81504 0.39635 0.95374 0.31000
C 	C 	0.60558 0.22617 0.96033 0.28500
Ni	Ni	0.66155 0.42804 0.88116 1.11300
Ni	Ni	0.67918 0.41309 0.95093 1.12000
Ni	Ni	0.70378 0.29246 0.90831 1.12000
O 	O 	0.57267 0.31941 0.86489 -0.36900
O 	O 	0.63770 0.24519 0.87116 -0.37300
O 	O 	0.79035 0.44921 0.95046 -0.39400
O 	O 	0.75995 0.53056 0.89552 -0.37600
O 	O 	0.71203 0.53418 0.94004 -0.38000
O 	O 	0.62007 0.20890 0.93371 -0.38900
O 	O 	0.72890 0.40700 0.85062 -0.36600
O 	O 	0.79312 0.38119 0.88594 -0.38900
O 	O 	0.64668 0.30216 0.97191 -0.38100
O 	O 	0.58887 0.46387 0.90362 -0.36500
O 	O 	0.57093 0.39047 0.94701 -0.38900
O 	O 	0.77691 0.32095 0.94263 -0.38100
O 	O 	0.66160 0.36407 0.91331 -0.71200
H 	H 	0.60676 0.32242 0.91476 0.16400
C 	C 	0.79300 0.46207 0.52303 0.28200
C 	C 	0.62050 0.12722 0.57178 0.30400
C 	C 	0.58488 0.30611 0.51473 0.30400
C 	C 	0.82051 0.27045 0.58528 0.28800
C 	C 	0.54807 0.29285 0.61057 0.30700
C 	C 	0.75398 0.46771 0.61943 0.28400
Ni	Ni	0.71324 0.27992 0.53738 1.11300
Ni	Ni	0.68844 0.28295 0.60728 1.12000
Ni	Ni	0.66049 0.40449 0.56619 1.12000
O 	O 	0.80013 0.39427 0.52338 -0.37000
O 	O 	0.72645 0.45895 0.52948 -0.37600
O 	O 	0.57573 0.24223 0.60733 -0.39200
O 	O 	0.61733 0.17064 0.54982 -0.37700
O 	O 	0.66166 0.16514 0.59494 -0.37900
O 	O 	0.74100 0.48716 0.59284 -0.38700
O 	O 	0.64565 0.30064 0.50719 -0.36900
O 	O 	0.57396 0.31781 0.54205 -0.38600
O 	O 	0.71565 0.38982 0.62981 -0.38000
O 	O 	0.78792 0.24633 0.55891 -0.37000
O 	O 	0.79856 0.30913 0.60416 -0.38600
O 	O 	0.58547 0.36940 0.60018 -0.38300
O 	O 	0.70659 0.33642 0.57039 -0.71600
H 	H 	0.76071 0.37965 0.57264 0.16300
C 	C 	0.95222 0.87124 0.71931 0.28200
C 	C 	0.17693 0.09818 0.80378 0.30500
C 	C 	0.94174 0.90190 0.80378 0.30000
C 	C 	0.20019 0.10170 0.72378 0.28300
C 	C 	0.97673 0.15195 0.78959 0.29700
C 	C 	0.99504 0.13186 0.70882 0.27700
Ni	Ni	0.07569 0.96547 0.76348 1.10900
Ni	Ni	0.10353 0.15332 0.75790 1.12100
Ni	Ni	0.93264 0.99982 0.75388 1.11800
O 	O 	0.02481 0.89642 0.72620 -0.37400
O 	O 	0.90717 0.88646 0.73675 -0.37300
O 	O 	0.04573 0.16059 0.79262 -0.38600
O 	O 	0.11545 0.02534 0.80287 -0.38500
O 	O 	0.18673 0.15641 0.78482 -0.37600
O 	O 	0.94257 0.05286 0.71430 -0.38100
O 	O 	0.97808 0.87868 0.78546 -0.37600
O 	O 	0.91902 0.95463 0.79547 -0.37700
O 	O 	0.04024 0.18112 0.72997 -0.37900
O 	O 	0.18324 0.04187 0.74366 -0.37400
O 	O 	0.16943 0.15129 0.72472 -0.38100
O 	O 	0.92779 0.09830 0.77068 -0.38100
O 	O 	0.04002 0.03735 0.75208 -0.71500
H 	H 	0.04589 0.03473 0.73079 0.15500
C 	C 	0.48526 0.79409 0.39406 0.28800
C 	C 	0.20312 0.47318 0.40334 0.30600
C 	C 	0.28770 0.73394 0.37067 0.30500
C 	C 	0.39249 0.52834 0.43566 0.28200
C 	C 	0.19153 0.66582 0.45842 0.30500
C 	C 	0.38838 0.73399 0.48946 0.28500
Ni	Ni	0.34969 0.62237 0.39008 1.11200
Ni	Ni	0.27927 0.57816 0.45578 1.12100
Ni	Ni	0.34483 0.76214 0.43088 1.12100
O 	O 	0.46375 0.71401 0.39162 -0.37800
O 	O 	0.43632 0.81981 0.40246 -0.37800
O 	O 	0.18873 0.59593 0.45069 -0.38500
O 	O 	0.23297 0.54252 0.38855 -0.38200
O 	O 	0.22337 0.47343 0.43068 -0.37400
O 	O 	0.41146 0.78323 0.46602 -0.38300
O 	O 	0.33414 0.70537 0.36368 -0.37400
O 	O 	0.26916 0.73601 0.39798 -0.38500
O 	O 	0.32330 0.66079 0.48962 -0.37900
O 	O 	0.36900 0.52941 0.40846 -0.37100
O 	O 	0.36287 0.54685 0.45868 -0.37600
O 	O 	0.25741 0.73568 0.45884 -0.38500
O 	O 	0.34243 0.65856 0.42744 -0.71800
H 	H 	0.39360 0.67375 0.43515 0.16200
C 	C 	0.40475 0.58927 0.05713 0.28800
C 	C 	0.21319 0.62146 0.15150 0.30400
C 	C 	0.20690 0.45060 0.08198 0.30700
C 	C 	0.42089 0.76897 0.13419 0.28100
C 	C 	0.14168 0.63457 0.06279 0.31000
C 	C 	0.34553 0.80035 0.04482 0.28500
Ni	Ni	0.32369 0.59212 0.11554 1.11300
Ni	Ni	0.27394 0.73166 0.10158 1.12000
Ni	Ni	0.27138 0.61285 0.05090 1.12000
O 	O 	0.38107 0.55723 0.08401 -0.36600
O 	O 	0.37795 0.63311 0.04375 -0.38800
O 	O 	0.18613 0.70876 0.07393 -0.37800
O 	O 	0.27372 0.61136 0.15314 -0.36600
O 	O 	0.19448 0.63970 0.12647 -0.38600
O 	O 	0.29589 0.72601 0.03369 -0.38100
O 	O 	0.21838 0.49079 0.10646 -0.37700
O 	O 	0.24174 0.49092 0.05799 -0.38200
O 	O 	0.34477 0.81707 0.07300 -0.38600
O 	O 	0.42096 0.69890 0.12794 -0.37200
O 	O 	0.35587 0.77331 0.13433 -0.37300
O 	O 	0.16453 0.57981 0.06246 -0.39400
O 	O 	0.31050 0.65989 0.08805 -0.71300
H 	H 	0.36408 0.70093 0.08324 0.16600
C 	C 	0.82290 0.92127 0.28630 0.28500
C 	C 	0.04211 0.11624 0.19322 0.30100
C 	C 	0.81518 0.90556 0.20287 0.30100
C 	C 	0.05978 0.13616 0.27918 0.28400
C 	C 	0.01541 0.84742 0.21126 0.29400
C 	C 	0.04434 0.87966 0.27707 0.27900
Ni	Ni	0.92385 0.04489 0.23996 1.10800
Ni	Ni	0.07114 0.01603 0.23704 1.11700
Ni	Ni	0.90001 0.85730 0.24662 1.12000
O 	O 	0.82492 0.96920 0.26433 -0.37800
O 	O 	0.84421 0.86435 0.28252 -0.37500
O 	O 	0.07311 0.92384 0.21387 -0.38000
O 	O 	0.01139 0.13583 0.21491 -0.37600
O 	O 	0.06747 0.06356 0.19725 -0.37500
O 	O 	0.96827 0.83396 0.27373 -0.38000
O 	O 	0.87407 0.98069 0.20213 -0.38300
O 	O 	0.81045 0.85084 0.22262 -0.37200
O 	O 	0.08116 0.96179 0.27363 -0.38900
O 	O 	0.98635 0.11405 0.27555 -0.37700
O 	O 	0.09990 0.12624 0.25773 -0.37500
O 	O 	0.94419 0.83301 0.21119 -0.39100
O 	O 	0.96562 0.97476 0.24688 -0.70900
H 	H 	0.97062 0.97970 0.26830 0.14900
C 	C 	0.16941 0.35976 0.08326 -0.07700
C 	C 	0.21589 0.32281 0.08618 0.00600
C 	C 	0.19427 0.25583 0.10545 -0.05800
C 	C 	0.12541 0.22493 0.12133 0.01600
C 	C 	0.07262 0.25215 0.11412 0.01300
C 	C 	0.09365 0.31665 0.09368 -0.01300
C 	C 	0.00424 0.22251 0.13014 -0.04800
C 	C 	0.99249 0.17424 0.15517 0.00200
C 	C 	0.04842 0.15401 0.16418 -0.06700
C 	C 	0.11257 0.17496 0.14624 -0.01800
H 	H 	0.27286 0.35254 0.07659 0.03500
H 	H 	0.23363 0.23257 0.10967 0.04400
H 	H 	0.05561 0.34183 0.08966 0.04400
H 	H 	0.96213 0.24067 0.12417 0.04200
H 	H 	0.94096 0.15476 0.16811 0.03300
H 	H 	0.15478 0.15733 0.15268 0.04500
C 	C 	0.48931 0.83359 0.14885 -0.06600
C 	C 	0.48704 0.84219 0.17927 0.00600
C 	C 	0.55217 0.86209 0.19615 -0.05600
C 	C 	0.61997 0.87410 0.18261 0.01400
C 	C 	0.62508 0.87656 0.15179 0.01700
C 	C 	0.56060 0.86097 0.13510 -0.02000
C 	C 	0.69233 0.88756 0.13811 -0.05700
C 	C 	0.75307 0.89327 0.15487 0.00900
C 	C 	0.74743 0.88822 0.18544 -0.07400
C 	C 	0.68124 0.87979 0.19933 -0.01900
H 	H 	0.43295 0.82477 0.19008 0.03600
H 	H 	0.54842 0.86330 0.21977 0.04400
H 	H 	0.56321 0.85865 0.11145 0.04000
H 	H 	0.69711 0.89031 0.11449 0.04600
H 	H 	0.80493 0.90236 0.14408 0.03700
H 	H 	0.67785 0.87848 0.22302 0.04500
C 	C 	0.03211 0.77884 0.20596 -0.07500
C 	C 	0.97967 0.70708 0.19086 0.00500
C 	C 	0.99958 0.64678 0.18316 -0.05800
C 	C 	0.07269 0.65848 0.18998 0.01400
C 	C 	0.12336 0.72732 0.20706 0.01300
C 	C 	0.10232 0.78653 0.21537 -0.01800
C 	C 	0.19733 0.74024 0.21305 -0.05700
C 	C 	0.22464 0.69334 0.19841 0.00600
C 	C 	0.17781 0.63298 0.17801 -0.07700
C 	C 	0.09917 0.60825 0.17712 -0.01700
H 	H 	0.92456 0.69924 0.18421 0.03800
H 	H 	0.95963 0.59317 0.17059 0.04400
H 	H 	0.14183 0.84032 0.22799 0.04300
H 	H 	0.23556 0.79050 0.22726 0.04500
H 	H 	0.28447 0.71012 0.20054 0.03900
H 	H 	0.06158 0.55777 0.16280 0.04500
C 	C 	0.78062 0.91770 0.31325 -0.06800
C 	C 	0.79255 0.88353 0.33887 0.00500
C 	C 	0.74270 0.86419 0.36265 -0.05600
C 	C 	0.68058 0.87921 0.36114 0.01400
C 	C 	0.67286 0.92123 0.33663 0.01500
C 	C 	0.72331 0.94079 0.31279 -0.02000
C 	C 	0.61122 0.93719 0.33535 -0.05700
C 	C 	0.55330 0.90367 0.35655 0.00700
C 	C 	0.55644 0.85373 0.37913 -0.06900
C 	C 	0.62272 0.84674 0.38254 -0.01900
H 	H 	0.83884 0.86910 0.33995 0.04100
H 	H 	0.75066 0.83452 0.38177 0.04400
H 	H 	0.71517 0.96937 0.29339 0.04500
H 	H 	0.60600 0.97175 0.31716 0.04400
H 	H 	0.50312 0.91110 0.35413 0.03900
H 	H 	0.62624 0.81031 0.40051 0.04000
C 	C 	0.10136 0.19137 0.30391 -0.06700
C 	C 	0.18117 0.24470 0.30229 0.00500
C 	C 	0.21852 0.30599 0.32344 -0.05500
C 	C 	0.17653 0.31510 0.34634 0.01300
C 	C 	0.09720 0.25848 0.34915 0.01500
C 	C 	0.06023 0.19581 0.32820 -0.01700
C 	C 	0.05520 0.26806 0.37202 -0.05400
C 	C 	0.09080 0.33629 0.39083 0.01000
C 	C 	0.16859 0.39487 0.38707 -0.07700
C 	C 	0.21197 0.38250 0.36554 -0.01300
H 	H 	0.21396 0.24061 0.28414 0.03900
H 	H 	0.27974 0.34810 0.32146 0.04300
H 	H 	0.99917 0.15266 0.33017 0.04300
H 	H 	0.99454 0.22426 0.37467 0.04200
H 	H 	0.05732 0.34507 0.40768 0.03400
H 	H 	0.27248 0.42732 0.36298 0.03000
C 	C 	0.08575 0.83962 0.29012 -0.06700
C 	C 	0.05200 0.75240 0.29015 0.00500
C 	C 	0.08890 0.71382 0.30364 -0.05500
C 	C 	0.16014 0.76184 0.31720 0.01300
C 	C 	0.19651 0.84960 0.31579 0.01600
C 	C 	0.15926 0.88813 0.30217 -0.02300
C 	C 	0.26824 0.89759 0.32908 -0.05900
C 	C 	0.30108 0.85895 0.34531 0.00900
C 	C 	0.26281 0.77211 0.34827 -0.07600
C 	C 	0.19386 0.72347 0.33333 -0.01400
H 	H 	0.99700 0.71438 0.27975 0.03700
H 	H 	0.06141 0.64651 0.30394 0.04600
H 	H 	0.18657 0.95545 0.30161 0.04700
H 	H 	0.29742 0.96488 0.32766 0.04400
H 	H 	0.35479 0.89671 0.35661 0.03000
H 	H 	0.16468 0.65625 0.33549 0.04200
C 	C 	0.59777 0.03986 0.56673 -0.07500
C 	C 	0.64551 0.02099 0.54965 0.00700
C 	C 	0.61617 0.94341 0.53635 -0.05900
C 	C 	0.53785 0.88549 0.53876 0.01700
C 	C 	0.49111 0.90108 0.55809 0.01400
C 	C 	0.52207 0.97789 0.57258 -0.01700
C 	C 	0.41219 0.84419 0.55974 -0.05600
C 	C 	0.37846 0.77962 0.53942 0.00600
C 	C 	0.42361 0.77141 0.51753 -0.06600
C 	C 	0.50377 0.81853 0.51928 -0.02000
H 	H 	0.70330 0.06908 0.54441 0.02900
H 	H 	0.65292 0.93123 0.52214 0.04400
H 	H 	0.48545 0.99222 0.58607 0.04100
H 	H 	0.37615 0.85349 0.57527 0.04400
H 	H 	0.31657 0.74097 0.53903 0.03800
H 	H 	0.53886 0.80942 0.50318 0.04100
C 	C 	0.12516 0.66220 0.47346 -0.07400
C 	C 	0.12925 0.67881 0.50351 0.00900
C 	C 	0.06251 0.65830 0.51939 -0.05700
C 	C 	0.99112 0.62096 0.50530 0.01700
C 	C 	0.98788 0.61240 0.47454 0.01300
C 	C 	0.05517 0.63293 0.45873 -0.01300
C 	C 	0.91642 0.57599 0.46050 -0.05500
C 	C 	0.84881 0.53784 0.47705 0.00700
C 	C 	0.85243 0.53486 0.50763 -0.06600
C 	C 	0.92282 0.58383 0.52167 -0.02100
H 	H 	0.18358 0.70341 0.51485 0.03600
H 	H 	0.06593 0.66756 0.54284 0.04500
H 	H 	0.05248 0.62206 0.43535 0.04400
H 	H 	0.91317 0.57237 0.43686 0.04500
H 	H 	0.79413 0.50306 0.46605 0.03500
H 	H 	0.92520 0.58452 0.54536 0.03900
C 	C 	0.53943 0.31886 0.49222 -0.07700
C 	C 	0.45915 0.26988 0.49278 0.00900
C 	C 	0.41352 0.29663 0.47841 -0.05800
C 	C 	0.44780 0.37338 0.46371 0.01600
C 	C 	0.52863 0.41973 0.46111 0.01300
C 	C 	0.57409 0.39113 0.47489 -0.01900
C 	C 	0.56295 0.49706 0.44672 -0.05500
C 	C 	0.51775 0.53067 0.43684 0.00100
C 	C 	0.43798 0.48703 0.44103 -0.06500
C 	C 	0.40280 0.40706 0.45339 -0.01800
H 	H 	0.43203 0.21337 0.50574 0.03700
H 	H 	0.35155 0.25961 0.47993 0.04600
H 	H 	0.63621 0.42848 0.47415 0.04600
H 	H 	0.62478 0.53255 0.44416 0.04300
H 	H 	0.54505 0.59198 0.42694 0.03100
H 	H 	0.34091 0.37292 0.45619 0.04500
C 	C 	0.98947 0.17137 0.68137 -0.06700
C 	C 	0.02888 0.25869 0.67871 0.00600
C 	C 	0.01283 0.29716 0.65560 -0.05300
C 	C 	0.95764 0.24900 0.63475 0.01000
C 	C 	0.92387 0.16141 0.63552 0.01600
C 	C 	0.94046 0.12286 0.65875 -0.02200
C 	C 	0.86963 0.11350 0.61430 -0.05800
C 	C 	0.84260 0.15134 0.59471 0.00700
C 	C 	0.86921 0.23724 0.59627 -0.07000
C 	C 	0.93104 0.28662 0.61469 -0.01800
H 	H 	0.06981 0.29700 0.69516 0.03900
H 	H 	0.04111 0.36447 0.65460 0.04300
H 	H 	0.91282 0.05554 0.65985 0.04600
H 	H 	0.84530 0.04651 0.61397 0.04400
H 	H 	0.79660 0.11294 0.57999 0.03800
H 	H 	0.95363 0.35342 0.61519 0.04100
C 	C 	0.48004 0.26691 0.62934 -0.07500
C 	C 	0.42699 0.29386 0.62331 0.01200
C 	C 	0.35993 0.26448 0.64006 -0.05900
C 	C 	0.34547 0.20805 0.66307 0.01800
C 	C 	0.39913 0.18152 0.66936 0.01200
C 	C 	0.46623 0.21132 0.65257 -0.01300
C 	C 	0.38509 0.12558 0.69242 -0.05500
C 	C 	0.31898 0.09732 0.70953 0.00300
C 	C 	0.26582 0.12448 0.70377 -0.06500
C 	C 	0.27854 0.17859 0.68007 -0.02200
H 	H 	0.43697 0.33636 0.60535 0.03600
H 	H 	0.31922 0.28543 0.63508 0.04600
H 	H 	0.50768 0.19130 0.65751 0.03800
H 	H 	0.42583 0.10461 0.69733 0.04200
H 	H 	0.31003 0.05569 0.72767 0.03700
H 	H 	0.23704 0.19856 0.67515 0.04800
C 	C 	0.91552 0.80619 0.69702 -0.06600
C 	C 	0.86820 0.81278 0.67585 0.00300
C 	C 	0.82803 0.74806 0.65609 -0.05500
C 	C 	0.83404 0.67550 0.65754 0.01500
C 	C 	0.88186 0.66859 0.67874 0.01400
C 	C 	0.92299 0.73441 0.69826 -0.01700
C 	C 	0.88686 0.59540 0.68046 -0.05500
C 	C 	0.84460 0.52951 0.66128 0.00300
C 	C 	0.79736 0.53631 0.64007 -0.06500
C 	C 	0.79216 0.60943 0.63828 -0.01800
H 	H 	0.86216 0.86794 0.67482 0.03100
H 	H 	0.79161 0.75403 0.63986 0.04300
H 	H 	0.95898 0.72897 0.71484 0.04400
H 	H 	0.92329 0.58938 0.69667 0.04400
H 	H 	0.84923 0.47356 0.66271 0.03500
H 	H 	0.75492 0.61443 0.62216 0.04500
C 	C 	0.88132 0.41994 0.97255 -0.07700
C 	C 	0.95348 0.44838 0.95950 0.01000
C 	C 	0.01974 0.50838 0.97348 -0.05500
C 	C 	0.01435 0.53894 0.00094 0.01600
C 	C 	0.94271 0.50469 0.01530 0.01400
C 	C 	0.87695 0.44289 0.00146 -0.01500
C 	C 	0.93779 0.53388 0.04311 -0.05900
C 	C 	0.00465 0.59105 0.05758 0.01300
C 	C 	0.07658 0.61907 0.04437 -0.07800
C 	C 	0.08008 0.60044 0.01485 -0.01500
H 	H 	0.95753 0.42978 0.93741 0.03300
H 	H 	0.07487 0.53251 0.96263 0.04200
H 	H 	0.82124 0.41892 0.01190 0.03500
H 	H 	0.88274 0.50980 0.05402 0.04400
H 	H 	0.00108 0.60714 0.08007 0.03300
H 	H 	0.13559 0.62531 0.00417 0.03200
C 	C 	0.55520 0.15546 0.97950 -0.06500
C 	C 	0.52046 0.16774 0.00427 0.00300
C 	C 	0.47051 0.09993 0.02164 -0.05500
C 	C 	0.45455 0.01906 0.01435 0.01300
C 	C 	0.48906 0.00634 0.98942 0.01600
C 	C 	0.53957 0.07450 0.97226 -0.02000
C 	C 	0.47287 0.92552 0.98200 -0.05600
C 	C 	0.42397 0.85791 0.99958 0.00400
C 	C 	0.39079 0.87029 0.02475 -0.06700
C 	C 	0.40518 0.95089 0.03183 -0.01700
H 	H 	0.53139 0.22958 0.00990 0.03600
H 	H 	0.44415 0.11033 0.04071 0.04400
H 	H 	0.56687 0.06463 0.95335 0.04800
H 	H 	0.49876 0.91511 0.96279 0.04400
H 	H 	0.41338 0.79615 0.99400 0.03600
H 	H 	0.37853 0.96048 0.05101 0.04700
C 	C 	0.51236 0.47433 0.94281 -0.06800
C 	C 	0.43233 0.42644 0.94569 0.00500
C 	C 	0.39548 0.43526 0.97037 -0.05600
C 	C 	0.43858 0.49251 0.99223 0.01400
C 	C 	0.51777 0.54661 0.98786 0.01600
C 	C 	0.55310 0.54067 0.96217 -0.02500
C 	C 	0.56121 0.60308 0.00986 -0.05800
C 	C 	0.52536 0.60869 0.03537 0.00500
C 	C 	0.44577 0.55869 0.03899 -0.06800
C 	C 	0.40349 0.49696 0.01823 -0.02100
H 	H 	0.39977 0.37683 0.93033 0.03200
H 	H 	0.33413 0.39514 0.97304 0.04400
H 	H 	0.61432 0.58085 0.95912 0.04700
H 	H 	0.62241 0.64377 0.00699 0.04500
H 	H 	0.55853 0.65618 0.05133 0.03200
H 	H 	0.34209 0.45736 0.02122 0.04400
C 	C 	0.82725 0.37294 0.83655 -0.07800
C 	C 	0.79098 0.33364 0.81039 0.00800
C 	C 	0.81772 0.28836 0.79442 -0.05800
C 	C 	0.88010 0.28071 0.80474 0.01400
C 	C 	0.92025 0.32523 0.82977 0.01300
C 	C 	0.89556 0.37411 0.84479 -0.02000
C 	C 	0.98121 0.31580 0.84062 -0.05800
C 	C 	0.99991 0.25962 0.82750 0.00100
C 	C 	0.95883 0.21339 0.80305 -0.07000
C 	C 	0.90030 0.22598 0.79122 -0.01900
H 	H 	0.73931 0.33370 0.80339 0.04100
H 	H 	0.78759 0.25597 0.77482 0.04400
H 	H 	0.92559 0.40728 0.86434 0.04500
H 	H 	0.01272 0.35016 0.85972 0.04500
H 	H 	0.04554 0.25120 0.83665 0.04300
H 	H 	0.86973 0.19224 0.77186 0.05000
C 	C 	0.50639 0.17509 0.85358 -0.06600
C 	C 	0.50517 0.15991 0.82349 0.00700
C 	C 	0.43739 0.13380 0.80762 -0.05500
C 	C 	0.37046 0.12146 0.82198 0.01300
C 	C 	0.36884 0.12319 0.85283 0.01900
C 	C 	0.43640 0.14552 0.86856 -0.02100
C 	C 	0.30218 0.11131 0.86730 -0.05800
C 	C 	0.23953 0.10337 0.85122 0.00900
C 	C 	0.24300 0.10736 0.82061 -0.07800
C 	C 	0.30750 0.11379 0.80598 -0.01800
H 	H 	0.55843 0.17817 0.81189 0.03600
H 	H 	0.43838 0.12879 0.78404 0.04300
H 	H 	0.43669 0.15224 0.89213 0.04000
H 	H 	0.29976 0.11089 0.89097 0.04600
H 	H 	0.18874 0.09540 0.86257 0.03500
H 	H 	0.30919 0.11442 0.78228 0.04600
C 	C 	0.78694 0.66254 0.91342 -0.07600
C 	C 	0.73588 0.68964 0.90423 0.00300
C 	C 	0.75963 0.75395 0.88363 -0.05600
C 	C 	0.83486 0.79204 0.87254 0.01300
C 	C 	0.88930 0.77439 0.88560 0.01600
C 	C 	0.86540 0.71224 0.90716 -0.01500
C 	C 	0.96426 0.81135 0.87442 -0.05700
C 	C 	0.98262 0.85748 0.84853 0.00800
C 	C 	0.92665 0.86850 0.83384 -0.07100
C 	C 	0.85418 0.84013 0.84680 -0.01600
H 	H 	0.67573 0.65439 0.91018 0.03700
H 	H 	0.71813 0.76965 0.87479 0.04400
H 	H 	0.90581 0.69442 0.91573 0.04300
H 	H 	0.00716 0.80045 0.88482 0.04600
H 	H 	0.03961 0.88201 0.83927 0.03500
H 	H 	0.81145 0.85035 0.83586 0.04300
