data_crystal

_cell_length_a 18.09925
_cell_length_b 15.96336
_cell_length_c 43.04600
_cell_angle_alpha 90.49699
_cell_angle_beta  91.08274
_cell_angle_gamma 111.02503

_symmetry_space_group_name_	'P 1'
_symmetry_space_group_name_H-M	'P 1'

loop_
_symmetry_equiv_pos_as_xyz
  x,y,z

loop_
_atom_site_label
_atom_site_type_symbol
_atom_site_fract_x
_atom_site_fract_y
_atom_site_fract_z
_atom_site_charge
Ni	Ni	0.73836 0.36066 0.88699 1.10500
O 	O 	0.64228 0.30913 0.85760 -0.70400
Ni	Ni	0.55715 0.32940 0.88289 1.10000
O 	O 	0.81156 0.32381 0.85878 -0.30900
O 	O 	0.72851 0.17814 0.85412 -0.36700
O 	O 	0.78246 0.47937 0.86295 -0.35600
Ni	Ni	0.61346 0.17835 0.85407 1.06600
O 	O 	0.80772 0.54323 0.92192 -0.39100
O 	O 	0.61653 0.16471 0.90124 -0.40300
O 	O 	0.46548 0.27037 0.85216 -0.37000
O 	O 	0.65379 0.38093 0.91249 -0.70100
O 	O 	0.82835 0.41020 0.91863 -0.34500
O 	O 	0.48384 0.36961 0.91060 -0.35100
O 	O 	0.57252 0.51075 0.91879 -0.39600
Ni	Ni	0.68713 0.51107 0.91923 1.06700
H 	H 	0.64879 0.33848 0.83714 0.16300
H 	H 	0.64758 0.34940 0.93252 0.15400
C 	C 	0.55914 0.16965 0.91846 0.24700
O 	O 	0.68630 0.53550 0.87308 -0.41400
C 	C 	0.79046 0.24518 0.84484 0.27200
C 	C 	0.45375 0.18922 0.84092 0.29400
C 	C 	0.74211 0.53038 0.85518 0.29900
C 	C 	0.51232 0.44203 0.92829 0.25000
C 	C 	0.84295 0.48864 0.93229 0.25200
O 	O 	0.51606 0.21534 0.90873 -0.36600
O 	O 	0.49300 0.14129 0.85296 -0.41000
Ni	Ni	0.50979 0.38960 0.55066 1.10400
O 	O 	0.60762 0.41022 0.52440 -0.69700
Ni	Ni	0.68178 0.38343 0.55455 1.10200
O 	O 	0.46356 0.46610 0.52423 -0.36000
O 	O 	0.58305 0.57910 0.52508 -0.39900
O 	O 	0.44698 0.27869 0.52294 -0.36300
Ni	Ni	0.66226 0.52728 0.50664 1.07600
O 	O 	0.40814 0.21195 0.58034 -0.40500
O 	O 	0.75162 0.59332 0.53843 -0.39200
O 	O 	0.78755 0.43044 0.53048 -0.35500
O 	O 	0.57749 0.34622 0.57853 -0.69600
O 	O 	0.41491 0.35836 0.57857 -0.37000
O 	O 	0.73216 0.32896 0.58846 -0.35400
O 	O 	0.62933 0.19549 0.58298 -0.39500
Ni	Ni	0.52327 0.21732 0.58217 1.07300
H 	H 	0.59490 0.36510 0.50731 0.16200
H 	H 	0.58436 0.37619 0.59918 0.16600
C 	C 	0.74961 0.58031 0.56861 0.31800
O 	O 	0.52345 0.19728 0.53582 -0.41100
C 	C 	0.50914 0.54604 0.51506 0.25900
C 	C 	0.79308 0.46243 0.50172 0.26700
C 	C 	0.47152 0.21171 0.51720 0.26800
C 	C 	0.69108 0.24851 0.59897 0.29400
C 	C 	0.38322 0.27662 0.58971 0.29100
O 	O 	0.71311 0.50035 0.58002 -0.38800
O 	O 	0.73074 0.46776 0.48692 -0.40900
Ni	Ni	0.96014 0.04058 0.68540 1.08900
O 	O 	0.05833 0.03998 0.70960 -0.72500
Ni	Ni	0.00836 0.97423 0.74737 1.12500
O 	O 	0.02825 0.10810 0.64967 -0.31100
O 	O 	0.10324 0.21829 0.68340 -0.34600
O 	O 	0.95020 0.91868 0.66611 -0.31200
Ni	Ni	0.12734 0.15929 0.72345 1.07300
O 	O 	0.76850 0.98921 0.70248 -0.26200
O 	O 	0.04004 0.19005 0.74498 -0.38900
O 	O 	0.10948 0.96919 0.76741 -0.24400
O 	O 	0.91404 0.99341 0.72608 -0.63700
O 	O 	0.85799 0.03408 0.66300 -0.31600
O 	O 	0.93902 0.88017 0.77725 -0.29200
O 	O 	0.85631 0.80263 0.73728 -0.34900
Ni	Ni	0.81293 0.89650 0.71874 1.09000
H 	H 	0.08778 0.00790 0.69838 0.16200
H 	H 	0.90133 0.04157 0.73657 0.11100
C 	C 	0.00917 0.15098 0.77084 0.29600
O 	O 	0.81697 0.85437 0.67391 -0.32400
C 	C 	0.09307 0.17777 0.65600 0.27000
C 	C 	0.17163 0.04494 0.77072 0.20300
C 	C 	0.88112 0.85518 0.65993 0.29000
C 	C 	0.88084 0.80820 0.76658 0.26400
C 	C 	0.79844 0.04162 0.67850 0.21200
O 	O 	0.01565 0.07468 0.77887 -0.34800
O 	O 	0.16487 0.12346 0.76479 -0.35400
Ni	Ni	0.16131 0.73418 0.38256 1.10100
O 	O 	0.25223 0.81404 0.35624 -0.70500
Ni	Ni	0.34530 0.80368 0.37886 1.10800
O 	O 	0.07970 0.75844 0.35417 -0.35700
O 	O 	0.14304 0.91067 0.35898 -0.36200
O 	O 	0.16035 0.63296 0.35257 -0.38400
Ni	Ni	0.26515 0.94008 0.35614 1.08500
O 	O 	0.14875 0.62356 0.44851 -0.40100
O 	O 	0.27507 0.95502 0.40352 -0.38400
O 	O 	0.42812 0.87389 0.34827 -0.32700
O 	O 	0.25550 0.74066 0.40863 -0.69800
O 	O 	0.07169 0.64544 0.40793 -0.36600
O 	O 	0.42580 0.75769 0.40033 -0.32600
O 	O 	0.33315 0.61928 0.39618 -0.40100
Ni	Ni	0.23797 0.61836 0.42192 1.08100
H 	H 	0.24934 0.79076 0.33468 0.17600
H 	H 	0.25810 0.77868 0.42719 0.16000
C 	C 	0.34016 0.95872 0.41848 0.29600
O 	O 	0.15656 0.53518 0.39121 -0.39200
C 	C 	0.08925 0.84016 0.34511 0.28900
C 	C 	0.43287 0.95499 0.33948 0.31300
C 	C 	0.15164 0.55175 0.36165 0.31700
C 	C 	0.40317 0.67174 0.40649 0.25800
C 	C 	0.07929 0.61907 0.43674 0.26500
O 	O 	0.38435 0.91569 0.40746 -0.32900
O 	O 	0.38658 0.99486 0.35174 -0.33900
Ni	Ni	0.31295 0.80206 0.05605 1.10100
O 	O 	0.23507 0.69617 0.07962 -0.69200
Ni	Ni	0.24049 0.59040 0.05519 1.10600
O 	O 	0.29063 0.89521 0.08424 -0.33600
O 	O 	0.15764 0.82906 0.07468 -0.37900
O 	O 	0.39763 0.79716 0.08802 -0.37000
Ni	Ni	0.12606 0.69081 0.07765 1.09500
O 	O 	0.41414 0.81058 0.99232 -0.40500
O 	O 	0.12549 0.68912 0.03049 -0.41000
O 	O 	0.16941 0.49258 0.08259 -0.35300
O 	O 	0.30605 0.69662 0.02904 -0.69600
O 	O 	0.39633 0.90245 0.03149 -0.34800
O 	O 	0.28100 0.49888 0.03358 -0.35800
O 	O 	0.40139 0.59773 0.04551 -0.41500
Ni	Ni	0.41389 0.70853 0.01916 1.08200
H 	H 	0.25250 0.69420 0.10145 0.20100
H 	H 	0.27680 0.69871 0.00959 0.16600
C 	C 	0.11039 0.61374 0.01513 0.26400
O 	O 	0.48499 0.79712 0.05092 -0.39600
C 	C 	0.21714 0.88536 0.09096 0.27000
C 	C 	0.10416 0.50033 0.09333 0.28200
C 	C 	0.46746 0.79725 0.08013 0.31400
C 	C 	0.35831 0.52123 0.03240 0.26100
C 	C 	0.42006 0.89066 0.00308 0.26700
O 	O 	0.14748 0.55898 0.02289 -0.36400
O 	O 	0.07255 0.55385 0.07951 -0.36700
Ni	Ni	0.89357 0.01512 0.18926 1.08500
O 	O 	0.80978 0.03852 0.21529 -0.72500
Ni	Ni	0.87350 0.10176 0.25242 1.09500
O 	O 	0.81004 0.95162 0.15508 -0.29200
O 	O 	0.73021 0.85537 0.18957 -0.35500
O 	O 	0.91429 0.13291 0.16493 -0.35500
Ni	Ni	0.73127 0.92638 0.23018 1.11900
O 	O 	0.06645 0.12995 0.17404 -0.38200
O 	O 	0.81371 0.88023 0.24946 -0.36100
O 	O 	0.78236 0.12552 0.27364 -0.33600
O 	O 	0.95676 0.06543 0.22911 -0.69000
O 	O 	0.97878 0.98821 0.16522 -0.27500
O 	O 	0.94880 0.18933 0.28448 -0.30500
O 	O 	0.06997 0.21908 0.26331 -0.33000
Ni	Ni	0.05180 0.16634 0.21839 1.08900
H 	H 	0.78542 0.07762 0.20496 0.23100
H 	H 	0.97215 0.01915 0.23959 0.17300
C 	C 	0.85571 0.91952 0.27424 0.28200
O 	O 	0.97954 0.23075 0.20429 -0.42500
C 	C 	0.73976 0.89501 0.16261 0.28800
C 	C 	0.71391 0.05806 0.27587 0.24300
C 	C 	0.94885 0.21613 0.17598 0.30500
C 	C 	0.02030 0.24626 0.27862 0.26500
C 	C 	0.05182 0.04604 0.16561 0.24400
O 	O 	0.85928 0.99970 0.28304 -0.27000
O 	O 	0.71050 0.97481 0.27165 -0.29400
C 	C 	0.97251 0.29119 0.15389 -0.08700
C 	C 	0.97677 0.27374 0.12207 0.03800
C 	C 	0.01781 0.34293 0.10233 -0.05000
C 	C 	0.05458 0.43069 0.11396 0.03600
C 	C 	0.04515 0.45066 0.14544 -0.13200
C 	C 	0.00318 0.38026 0.16515 0.08000
H 	H 	0.02294 0.32786 0.07805 0.06000
H 	H 	0.99697 0.39402 0.18945 0.07300
H 	H 	0.95172 0.20576 0.11286 0.05100
C 	C 	0.08161 0.54614 0.15813 0.78600
F 	F 	0.05063 0.60113 0.14207 -0.48300
F 	F 	0.06660 0.55172 0.18936 -0.44000
F 	F 	0.16280 0.57718 0.15470 -0.47100
C 	C 	0.53184 0.81699 0.10363 -0.08800
C 	C 	0.58432 0.77036 0.10250 0.02800
C 	C 	0.65349 0.79830 0.12095 -0.03600
C 	C 	0.67176 0.87384 0.14058 0.02400
C 	C 	0.61920 0.92192 0.14173 -0.07700
C 	C 	0.54856 0.89149 0.12361 0.08100
H 	H 	0.69277 0.76067 0.12014 0.06400
H 	H 	0.50805 0.92757 0.12414 0.09100
H 	H 	0.57200 0.71297 0.08694 0.03400
C 	C 	0.63866 0.00570 0.16192 0.70500
F 	F 	0.71213 0.06658 0.15437 -0.47700
F 	F 	0.58385 0.04706 0.15779 -0.45800
F 	F 	0.63915 0.98330 0.19285 -0.49200
C 	C 	0.20117 0.94682 0.11314 -0.00500
C 	C 	0.18064 0.01792 0.10193 -0.05900
C 	C 	0.13679 0.05523 0.12017 -0.00300
C 	C 	0.11341 0.02214 0.14989 -0.03700
C 	C 	0.14291 0.95876 0.16291 -0.05100
C 	C 	0.18554 0.92026 0.14405 0.04600
H 	H 	0.11679 0.10603 0.11044 0.04700
H 	H 	0.20159 0.86531 0.15264 0.08600
H 	H 	0.19339 0.03964 0.07820 0.04900
C 	C 	0.12377 0.92685 0.19592 0.77000
F 	F 	0.04675 0.86650 0.19671 -0.45200
F 	F 	0.17399 0.88499 0.20680 -0.43300
F 	F 	0.13204 0.99866 0.21569 -0.46900
C 	C 	0.64743 0.07158 0.29124 -0.06600
C 	C 	0.57456 0.04707 0.27506 0.03200
C 	C 	0.50370 0.01576 0.29115 -0.09800
C 	C 	0.50506 0.01116 0.32362 0.00600
C 	C 	0.57818 0.05014 0.34022 -0.10600
C 	C 	0.64922 0.07909 0.32370 0.08300
H 	H 	0.44791 0.98955 0.27826 0.11200
H 	H 	0.70574 0.10006 0.33612 0.09500
H 	H 	0.57272 0.04351 0.24989 0.05300
C 	C 	0.58052 0.05980 0.37528 0.74700
F 	F 	0.55814 0.97607 0.38858 -0.40300
F 	F 	0.65547 0.11101 0.38657 -0.44300
F 	F 	0.52937 0.10188 0.38403 -0.47400
C 	C 	0.12259 0.47536 0.33929 -0.10000
C 	C 	0.07907 0.48042 0.31249 0.04400
C 	C 	0.04577 0.40524 0.29294 -0.05200
C 	C 	0.05458 0.32369 0.30006 0.05100
C 	C 	0.09760 0.31749 0.32735 -0.12400
C 	C 	0.13362 0.39474 0.34609 0.09600
H 	H 	0.01278 0.41032 0.27222 0.07100
H 	H 	0.16964 0.39209 0.36618 0.06300
H 	H 	0.06994 0.54215 0.30701 0.05800
C 	C 	0.10729 0.22976 0.33605 0.78800
F 	F 	0.13881 0.23395 0.36583 -0.45500
F 	F 	0.03480 0.15993 0.33499 -0.43400
F 	F 	0.15769 0.21132 0.31561 -0.45400
C 	C 	0.02524 0.85297 0.32685 -0.08600
C 	C 	0.02499 0.84769 0.29438 0.04000
C 	C 	0.96339 0.85865 0.27690 -0.03100
C 	C 	0.90175 0.87563 0.29177 0.05100
C 	C 	0.89680 0.86969 0.32456 -0.11300
C 	C 	0.96080 0.86261 0.34193 0.12000
H 	H 	0.96615 0.85964 0.25179 0.10000
H 	H 	0.96033 0.86411 0.36711 0.07900
H 	H 	0.07342 0.83706 0.28264 0.06900
C 	C 	0.82545 0.87503 0.34121 0.79200
F 	F 	0.75689 0.83536 0.32346 -0.43300
F 	F 	0.81578 0.83080 0.36922 -0.43200
F 	F 	0.83594 0.96394 0.34702 -0.39000
C 	C 	0.38783 0.12380 0.43385 -0.07400
C 	C 	0.37328 0.02662 0.44484 -0.02100
C 	C 	0.48915 0.09169 0.48346 -0.02900
C 	C 	0.43489 0.14570 0.49071 -0.04300
C 	C 	0.42476 0.19349 0.46053 -0.04500
H 	H 	0.42772 0.14005 0.41372 0.09500
H 	H 	0.33095 0.12928 0.42581 0.06000
H 	H 	0.49713 0.05504 0.50440 0.04400
H 	H 	0.54895 0.13828 0.47694 0.05900
H 	H 	0.48322 0.24176 0.45339 0.04900
H 	H 	0.38598 0.23282 0.46474 0.05500
C 	C 	0.35228 0.07761 0.49942 -0.03700
H 	H 	0.31141 0.11390 0.50432 0.05500
H 	H 	0.35758 0.04209 0.52101 0.03400
C 	C 	0.31643 0.00756 0.47266 -0.13000
H 	H 	0.30532 0.93879 0.48141 0.08900
H 	H 	0.25820 0.01007 0.46498 0.05800
C 	C 	0.45358 0.02298 0.45697 -0.13900
H 	H 	0.44508 0.95443 0.46541 0.11100
H 	H 	0.49674 0.03720 0.43793 0.12700
C 	C 	0.88850 0.60285 0.47971 -0.06500
C 	C 	0.87228 0.50202 0.48624 -0.02200
C 	C 	0.94605 0.49566 0.43672 -0.05600
C 	C 	0.00540 0.57615 0.45539 -0.03200
C 	C 	0.96560 0.64569 0.46159 -0.05000
H 	H 	0.83855 0.61027 0.46595 0.05200
H 	H 	0.89305 0.64034 0.50203 0.06400
H 	H 	0.97319 0.44437 0.43215 0.06600
H 	H 	0.93164 0.51806 0.41371 0.07100
H 	H 	0.95166 0.67201 0.43923 0.06600
H 	H 	0.00692 0.70397 0.47514 0.05200
C 	C 	0.02191 0.54040 0.48749 -0.06000
H 	H 	0.06382 0.59642 0.50176 0.06300
H 	H 	0.05040 0.48987 0.48396 0.06000
C 	C 	0.94377 0.49672 0.50553 -0.05900
H 	H 	0.93487 0.42544 0.51040 0.07100
H 	H 	0.94857 0.53202 0.52831 0.07200
C 	C 	0.86863 0.45254 0.45466 -0.06300
H 	H 	0.85851 0.38050 0.45868 0.06600
H 	H 	0.81804 0.45478 0.44000 0.06700
C 	C 	0.37667 0.63106 0.46218 -0.04700
C 	C 	0.43579 0.64259 0.43530 -0.03900
C 	C 	0.54676 0.67523 0.47640 -0.05300
C 	C 	0.48460 0.58362 0.48626 -0.04100
C 	C 	0.40557 0.59767 0.49192 -0.06300
H 	H 	0.36901 0.69596 0.46723 0.01600
H 	H 	0.31744 0.58153 0.45533 -0.03600
H 	H 	0.60436 0.66763 0.47180 0.03400
H 	H 	0.55730 0.72567 0.49558 0.06900
H 	H 	0.41349 0.64741 0.51117 0.06300
H 	H 	0.35938 0.53371 0.49912 0.06600
C 	C 	0.47221 0.51593 0.45871 -0.05600
H 	H 	0.42727 0.44959 0.46453 0.05200
H 	H 	0.52844 0.50489 0.45421 0.01600
C 	C 	0.44444 0.55069 0.42895 -0.06200
H 	H 	0.48777 0.55738 0.41025 0.06200
H 	H 	0.38691 0.50019 0.42067 0.05700
C 	C 	0.51783 0.71013 0.44662 -0.06200
H 	H 	0.56185 0.71988 0.42800 0.08600
H 	H 	0.51378 0.77675 0.45181 0.08200
C 	C 	0.71593 0.21444 0.62747 -0.10700
C 	C 	0.79579 0.24277 0.63659 0.05500
C 	C 	0.82096 0.19279 0.65798 -0.04900
C 	C 	0.76714 0.11156 0.66915 0.06100
C 	C 	0.68483 0.09139 0.66414 -0.13100
C 	C 	0.66007 0.14367 0.64317 0.09800
H 	H 	0.88363 0.21231 0.66349 0.08000
H 	H 	0.59764 0.12651 0.63771 0.02900
H 	H 	0.83907 0.29999 0.62575 0.06900
C 	C 	0.62369 0.01425 0.68054 0.75400
F 	F 	0.54760 0.01281 0.67506 -0.46400
F 	F 	0.62680 0.93342 0.67009 -0.39400
F 	F 	0.63818 0.02299 0.71230 -0.47000
C 	C 	0.30576 0.25111 0.60499 -0.09700
C 	C 	0.26352 0.16090 0.61187 0.02700
C 	C 	0.19083 0.13659 0.62639 -0.05600
C 	C 	0.15911 0.20181 0.63441 0.03500
C 	C 	0.19779 0.29181 0.62525 -0.12800
C 	C 	0.27287 0.31647 0.61190 0.08900
H 	H 	0.16071 0.06727 0.63276 0.05400
H 	H 	0.30553 0.38628 0.60690 0.07500
H 	H 	0.28758 0.10954 0.60645 0.03500
C 	C 	0.16072 0.36215 0.63046 0.79000
F 	F 	0.19154 0.43345 0.61059 -0.43900
F 	F 	0.07970 0.32609 0.62499 -0.43600
F 	F 	0.17585 0.39432 0.66073 -0.43700
C 	C 	0.79709 0.65449 0.58975 -0.10100
C 	C 	0.82975 0.63624 0.61757 0.04800
C 	C 	0.86705 0.70531 0.63911 -0.05100
C 	C 	0.87204 0.79345 0.63323 0.05600
C 	C 	0.84790 0.81403 0.60357 -0.12400
C 	C 	0.80816 0.74355 0.58245 0.10000
H 	H 	0.88718 0.68920 0.66136 0.10000
H 	H 	0.78350 0.75769 0.56086 0.06900
H 	H 	0.82420 0.56811 0.62296 0.05700
C 	C 	0.85783 0.90955 0.59536 0.79100
F 	F 	0.85443 0.91919 0.56348 -0.42400
F 	F 	0.79789 0.93151 0.60845 -0.41000
F 	F 	0.93035 0.96879 0.60613 -0.41900
C 	C 	0.00175 0.65475 0.98841 -0.07000
C 	C 	0.03967 0.58176 0.99276 -0.02700
C 	C 	0.90219 0.46294 0.98285 -0.06300
C 	C 	0.91444 0.52442 0.95414 -0.01900
C 	C 	0.92876 0.62126 0.96598 -0.05500
H 	H 	0.98301 0.67271 0.01123 0.05500
H 	H 	0.04615 0.71699 0.97911 0.06500
H 	H 	0.89223 0.39277 0.97529 0.06500
H 	H 	0.84844 0.46142 0.99535 0.03600
H 	H 	0.87564 0.62301 0.97819 0.04000
H 	H 	0.93862 0.66758 0.94602 0.07000
C 	C 	0.99073 0.52556 0.93770 -0.05800
H 	H 	0.00174 0.57005 0.91720 0.07400
H 	H 	0.98308 0.45709 0.92893 0.10200
C 	C 	0.06376 0.55874 0.96030 -0.06200
H 	H 	0.09011 0.50577 0.96234 0.06500
H 	H 	0.10977 0.61900 0.95059 0.05500
C 	C 	0.97507 0.49641 0.00538 -0.06000
H 	H 	0.99938 0.44202 0.00851 0.06500
H 	H 	0.95614 0.51118 0.02860 0.05400
C 	C 	0.49020 0.13486 0.97024 -0.07200
C 	C 	0.52419 0.09849 0.94227 0.01100
C 	C 	0.54659 0.98457 0.97877 0.05900
C 	C 	0.45736 0.96944 0.98226 -0.02400
C 	C 	0.45112 0.05904 0.99380 -0.08400
H 	H 	0.53841 0.19073 0.98220 0.03900
H 	H 	0.44523 0.16259 0.96187 0.05600
H 	H 	0.55375 0.92162 0.97058 0.03500
H 	H 	0.57790 0.00263 0.00175 -0.00500
H 	H 	0.48107 0.07838 0.01697 0.05200
H 	H 	0.38787 0.05079 0.99652 0.04400
C 	C 	0.41599 0.94638 0.94961 0.01100
H 	H 	0.35214 0.93668 0.95137 0.05500
H 	H 	0.41895 0.88245 0.94025 0.04600
C 	C 	0.45524 0.02109 0.92635 -0.18000
H 	H 	0.47757 0.99273 0.90644 0.11500
H 	H 	0.40984 0.04658 0.91676 0.08500
C 	C 	0.58572 0.05993 0.95539 -0.13900
H 	H 	0.61087 0.03209 0.93622 0.06600
H 	H 	0.63574 0.11433 0.96710 0.06600
C 	C 	0.52481 0.48947 0.98372 -0.06400
C 	C 	0.46625 0.45565 0.95566 -0.02400
C 	C 	0.35457 0.39139 0.99474 -0.04500
C 	C 	0.39406 0.49196 0.00452 -0.06100
C 	C 	0.48311 0.51004 0.01204 -0.05300
H 	H 	0.55060 0.43797 0.98997 0.02500
H 	H 	0.57504 0.55140 0.97764 0.02400
H 	H 	0.29090 0.37561 0.98872 0.06000
H 	H 	0.35746 0.34805 0.01448 0.04500
H 	H 	0.48852 0.46828 0.03192 0.04600
H 	H 	0.51492 0.58146 0.01909 0.02900
C 	C 	0.38894 0.54932 0.97608 -0.03000
H 	H 	0.41754 0.62191 0.98177 -0.05800
H 	H 	0.32587 0.53690 0.96986 0.03300
C 	C 	0.43048 0.52793 0.94771 -0.07200
H 	H 	0.38715 0.50402 0.92794 0.06400
H 	H 	0.47766 0.59076 0.94023 0.05500
C 	C 	0.39729 0.36982 0.96607 -0.06500
H 	H 	0.35361 0.34314 0.94657 0.06900
H 	H 	0.42081 0.31641 0.97222 0.04800
C 	C 	0.96098 0.18789 0.78962 -0.08500
C 	C 	0.89927 0.20842 0.77558 0.03100
C 	C 	0.84381 0.22676 0.79383 -0.04500
C 	C 	0.84950 0.22512 0.82633 0.03700
C 	C 	0.91323 0.20718 0.84080 -0.11600
C 	C 	0.96916 0.18979 0.82209 0.09000
H 	H 	0.79573 0.24142 0.78268 0.05500
H 	H 	0.01817 0.17582 0.83267 0.10900
H 	H 	0.89248 0.20677 0.75049 0.03900
C 	C 	0.92241 0.20811 0.87600 0.78600
F 	F 	0.85341 0.15114 0.88886 -0.45500
F 	F 	0.98332 0.18014 0.88539 -0.43100
F 	F 	0.93895 0.29424 0.88749 -0.44600
C 	C 	0.38004 0.14120 0.82353 -0.10400
C 	C 	0.38269 0.11361 0.79275 0.03300
C 	C 	0.31257 0.06607 0.77631 -0.06500
C 	C 	0.23915 0.04645 0.79044 0.06100
C 	C 	0.23747 0.06077 0.82292 -0.13300
C 	C 	0.30790 0.11249 0.83890 0.10000
H 	H 	0.31487 0.05182 0.75176 0.05300
H 	H 	0.30671 0.13011 0.86321 0.06500
H 	H 	0.43887 0.13135 0.78125 0.02500
C 	C 	0.16012 0.02727 0.84002 0.76000
F 	F 	0.17323 0.02416 0.87171 -0.44900
F 	F 	0.11901 0.08409 0.83476 -0.43600
F 	F 	0.11442 0.94150 0.82986 -0.38800
C 	C 	0.77214 0.59745 0.83052 -0.09600
C 	C 	0.75727 0.67789 0.83153 0.04000
C 	C 	0.79224 0.74539 0.81032 -0.04800
C 	C 	0.84249 0.73386 0.78769 0.05000
C 	C 	0.85705 0.65235 0.78598 -0.12200
C 	C 	0.82037 0.58395 0.80727 0.09400
H 	H 	0.78088 0.80751 0.81170 0.06600
H 	H 	0.82987 0.52078 0.80600 0.07100
H 	H 	0.72006 0.68919 0.84927 0.04500
C 	C 	0.91092 0.63808 0.76150 0.78900
F 	F 	0.92398 0.55857 0.76570 -0.43500
F 	F 	0.87670 0.63522 0.73232 -0.44800
F 	F 	0.98359 0.70764 0.76293 -0.42600
