data_crystal

_cell_length_a 27.25735
_cell_length_b 28.87684
_cell_length_c 47.21008
_cell_angle_alpha 60.69769
_cell_angle_beta  119.02777
_cell_angle_gamma 133.30138

_symmetry_space_group_name_	'P 1'
_symmetry_space_group_name_H-M	'P 1'

loop_
_symmetry_equiv_pos_as_xyz
  x,y,z

loop_
_atom_site_label
_atom_site_type_symbol
_atom_site_fract_x
_atom_site_fract_y
_atom_site_fract_z
_atom_site_charge
C 	C 	0.34204 0.66255 0.18375 0.07600
C 	C 	0.41158 0.68606 0.19237 -0.09600
C 	C 	0.42822 0.65333 0.18846 0.07800
C 	C 	0.37518 0.59669 0.17639 -0.09300
C 	C 	0.30592 0.57288 0.16794 0.08000
C 	C 	0.28910 0.60514 0.17204 -0.09900
H 	H 	0.45267 0.73105 0.20074 0.07300
H 	H 	0.38799 0.57251 0.17233 0.07500
H 	H 	0.23540 0.58704 0.16509 0.06100
C 	C 	0.21081 0.59314 0.68138 0.07600
C 	C 	0.28140 0.64090 0.68092 -0.09100
C 	C 	0.31699 0.62584 0.67738 0.07600
C 	C 	0.28343 0.56181 0.67701 -0.09500
C 	C 	0.21151 0.51664 0.67327 0.07600
C 	C 	0.17531 0.53143 0.67658 -0.09800
H 	H 	0.30745 0.69030 0.68167 0.07400
H 	H 	0.31167 0.54979 0.67524 0.06700
H 	H 	0.11971 0.49635 0.67418 0.06100
Co	Co	0.08454 0.03593 0.05484 1.18600
C 	C 	0.22583 0.09993 0.04498 0.31700
Co	Co	0.12615 0.95532 0.05383 1.17100
O 	O 	0.05684 0.09155 0.04718 -0.46300
C 	C 	0.06527 0.16533 0.11132 0.32400
C 	C 	0.18372 0.91554 0.12764 0.33400
O 	O 	0.09673 0.00306 0.00637 -0.41000
O 	O 	0.08651 0.14935 0.09998 -0.38900
O 	O 	0.15565 0.90225 0.09843 -0.39900
O 	O 	0.16056 0.93243 0.13702 -0.38600
O 	O 	0.09531 0.97603 0.07639 -0.76200
O 	O 	0.21929 0.04414 0.06128 -0.39600
O 	O 	0.18167 0.10832 0.04297 -0.37200
Co	Co	0.02258 0.99134 0.56115 1.18600
Co	Co	0.97589 0.04208 0.58518 1.18100
C 	C 	0.16069 0.02512 0.57587 0.31800
Co	Co	0.04466 0.88863 0.56904 1.16300
O 	O 	0.02665 0.06879 0.55385 -0.46200
C 	C 	0.05405 0.12218 0.63532 0.32400
C 	C 	0.06123 0.84023 0.64213 0.32200
O 	O 	0.00935 0.07861 0.65433 -0.39600
O 	O 	0.05989 0.10408 0.61681 -0.39400
O 	O 	0.09607 0.88123 0.61868 -0.39900
O 	O 	0.02136 0.84746 0.64542 -0.39200
O 	O 	0.99754 0.91382 0.57754 -0.75200
O 	O 	0.12840 0.98528 0.55728 -0.40600
O 	O 	0.12524 0.02901 0.58498 -0.39900
C 	C 	0.00285 0.01996 0.90473 -0.07900
C 	C 	0.01718 0.97681 0.77359 -0.06700
C 	C 	0.01143 0.97535 0.74282 0.00900
H 	H 	0.02503 0.06116 0.88421 0.05100
H 	H 	0.05957 0.02093 0.78261 0.04800
H 	H 	0.04867 0.01893 0.72808 0.04300
C 	C 	0.06529 0.03217 0.45557 0.00800
C 	C 	0.07654 0.03977 0.42707 -0.06600
C 	C 	0.04399 0.04024 0.35116 -0.04600
C 	C 	0.05559 0.04157 0.32482 -0.04000
C 	C 	0.12843 0.05542 0.28403 -0.07700
C 	C 	0.13105 0.05827 0.25425 0.02200
H 	H 	0.10553 0.06848 0.47018 0.03400
H 	H 	0.12478 0.08246 0.41962 0.05000
H 	H 	0.03518 0.07433 0.34749 0.04400
H 	H 	0.05534 0.07653 0.30101 0.04100
H 	H 	0.16508 0.09912 0.29339 0.05200
H 	H 	0.16869 0.10454 0.24055 0.03400
C 	C 	0.16761 0.41744 0.62436 -0.09400
C 	C 	0.13793 0.35467 0.64609 -0.01000
C 	C 	0.12051 0.34317 0.67368 0.13100
C 	C 	0.14001 0.39579 0.68134 -0.07700
C 	C 	0.17390 0.45932 0.66076 -0.05200
C 	C 	0.18284 0.46892 0.63086 0.15300
C 	C 	0.12800 0.30190 0.64078 0.00900
O 	O 	0.08695 0.28112 0.69386 -0.28100
H 	H 	0.13126 0.38761 0.70395 0.06200
O 	O 	0.21133 0.52994 0.60922 -0.28700
H 	H 	0.18042 0.42673 0.60285 0.08000
C 	C 	0.08844 0.28328 0.61023 0.11400
C 	C 	0.07596 0.23060 0.60646 -0.03200
C 	C 	0.09589 0.19182 0.63397 -0.13200
C 	C 	0.14049 0.21372 0.66343 0.19900
C 	C 	0.15732 0.26926 0.66655 -0.11300
O 	O 	0.06029 0.31516 0.58444 -0.28100
H 	H 	0.04481 0.21598 0.58310 0.05300
O 	O 	0.16329 0.17804 0.69008 -0.29000
H 	H 	0.19067 0.28521 0.68955 0.08200
H 	H 	0.17139 0.53128 0.59347 0.15000
H 	H 	0.01376 0.29060 0.58771 0.14700
H 	H 	0.20785 0.19658 0.68706 0.15300
H 	H 	0.03681 0.26132 0.68391 0.14400
C 	C 	0.44509 0.72800 0.62538 0.14100
C 	C 	0.38289 0.69205 0.63386 -0.07600
C 	C 	0.38270 0.67873 0.66667 -0.04500
O 	O 	0.44385 0.73549 0.59406 -0.27900
H 	H 	0.33424 0.67067 0.61552 0.07700
H 	H 	0.44020 0.69753 0.59590 0.15100
H 	H 	0.44579 0.65632 0.73507 0.14700
C 	C 	0.11267 0.66119 0.65585 -0.09600
C 	C 	0.12111 0.66421 0.68683 -0.01400
C 	C 	0.15191 0.63656 0.71638 0.14400
C 	C 	0.17758 0.60964 0.71460 -0.07800
C 	C 	0.17283 0.61032 0.68346 -0.04900
C 	C 	0.13815 0.63419 0.65409 0.15300
C 	C 	0.10503 0.70303 0.68772 0.01600
O 	O 	0.15639 0.63524 0.74696 -0.27800
H 	H 	0.20312 0.59017 0.73736 0.06600
O 	O 	0.13282 0.63479 0.62350 -0.28400
H 	H 	0.08865 0.68208 0.63301 0.06900
C 	C 	0.15865 0.76795 0.69103 0.11400
C 	C 	0.14281 0.81134 0.68153 -0.02800
C 	C 	0.07404 0.79123 0.66722 -0.12700
C 	C 	0.02011 0.72411 0.66871 0.18600
C 	C 	0.03575 0.68029 0.67866 -0.12400
O 	O 	0.22666 0.79004 0.70178 -0.27300
H 	H 	0.18459 0.86240 0.68198 0.06200
O 	O 	0.95227 0.70269 0.65684 -0.27400
H 	H 	0.99408 0.62982 0.67701 0.09200
H 	H 	0.08843 0.59233 0.61898 0.14600
H 	H 	0.24164 0.80745 0.68126 0.14900
H 	H 	0.20256 0.67562 0.75277 0.16200
C 	C 	0.18258 0.39840 0.16195 -0.09400
C 	C 	0.18557 0.40729 0.13068 -0.01100
C 	C 	0.21633 0.47048 0.10922 0.13900
C 	C 	0.24826 0.52470 0.12010 -0.07700
C 	C 	0.25187 0.51646 0.15277 -0.05100
C 	C 	0.21564 0.45278 0.17305 0.15400
C 	C 	0.16058 0.35108 0.12147 0.01200
O 	O 	0.21644 0.47946 0.07789 -0.28000
H 	H 	0.27474 0.57364 0.10407 0.06400
O 	O 	0.21726 0.44393 0.20472 -0.28100
H 	H 	0.15723 0.34955 0.17822 0.06700
C 	C 	0.19724 0.32329 0.13778 0.11200
C 	C 	0.16889 0.26525 0.13179 -0.02900
C 	C 	0.10381 0.23442 0.10990 -0.12600
C 	C 	0.07037 0.26555 0.09133 0.19900
C 	C 	0.09834 0.32320 0.09751 -0.11500
O 	O 	0.26074 0.35287 0.15947 -0.27000
H 	H 	0.19568 0.24233 0.14558 0.05700
O 	O 	0.00838 0.23767 0.06850 -0.28900
H 	H 	0.07072 0.34526 0.08431 0.08100
H 	H 	0.17641 0.44014 0.20223 0.14500
H 	H 	0.25079 0.33229 0.18184 0.14700
H 	H 	0.25959 0.48661 0.08075 0.15400
C 	C 	0.54190 0.74495 0.17305 -0.07600
C 	C 	0.50122 0.68253 0.19285 -0.05000
C 	C 	0.52630 0.64394 0.21240 0.15400
H 	H 	0.52378 0.77560 0.15845 0.06400
O 	O 	0.48931 0.58461 0.23356 -0.28200
H 	H 	0.50708 0.59462 0.25525 0.15400
C 	C 	0.33089 0.75885 0.21055 -0.09200
C 	C 	0.29944 0.78384 0.17997 -0.00800
C 	C 	0.27951 0.76679 0.15099 0.13800
C 	C 	0.29349 0.72717 0.15245 -0.07800
C 	C 	0.32540 0.70244 0.18293 -0.05000
C 	C 	0.34312 0.71754 0.21221 0.15300
C 	C 	0.28594 0.82688 0.17820 0.01100
O 	O 	0.24764 0.79003 0.12104 -0.28000
H 	H 	0.27982 0.71589 0.12981 0.06300
O 	O 	0.37339 0.69294 0.24229 -0.28300
H 	H 	0.34558 0.77118 0.23302 0.07100
C 	C 	0.22795 0.79938 0.18809 0.11500
C 	C 	0.20044 0.83442 0.17573 -0.02200
C 	C 	0.22918 0.89566 0.15268 -0.12200
C 	C 	0.29321 0.92699 0.14713 0.19800
C 	C 	0.32192 0.89278 0.16030 -0.10900
O 	O 	0.19412 0.73605 0.20704 -0.27400
H 	H 	0.15278 0.81116 0.18138 0.05700
O 	O 	0.32595 0.98980 0.12747 -0.28400
H 	H 	0.36874 0.91547 0.15404 0.08200
H 	H 	0.33425 0.65051 0.25208 0.15100
H 	H 	0.21586 0.73967 0.23054 0.14600
H 	H 	0.30885 0.98493 0.10447 0.15500
H 	H 	0.19727 0.75681 0.12015 0.15200
C 	C 	0.33606 0.16935 0.56060 -0.11400
C 	C 	0.36878 0.13826 0.57548 0.00800
C 	C 	0.33930 0.07617 0.59792 0.12400
C 	C 	0.27385 0.04266 0.60234 -0.04600
C 	C 	0.23652 0.06970 0.58342 -0.11900
C 	C 	0.26965 0.13497 0.56422 0.19400
C 	C 	0.42708 0.16589 0.56353 -0.01000
O 	O 	0.37317 0.04718 0.61459 -0.27400
H 	H 	0.24949 0.99313 0.61811 0.06700
O 	O 	0.23570 0.16390 0.54748 -0.28600
H 	H 	0.35985 0.21831 0.54427 0.07300
C 	C 	0.41496 0.16137 0.53210 0.13400
C 	C 	0.47094 0.19325 0.51939 -0.07600
C 	C 	0.53909 0.23037 0.53767 -0.04700
C 	C 	0.55102 0.23091 0.57012 0.15300
C 	C 	0.49499 0.19865 0.58293 -0.09100
O 	O 	0.34840 0.12555 0.51389 -0.28100
H 	H 	0.46142 0.19180 0.49463 0.06700
H 	H 	0.50445 0.20061 0.60756 0.07600
H 	H 	0.21136 0.15411 0.52518 0.14800
H 	H 	0.33659 0.15719 0.49943 0.14500
H 	H 	0.35701 0.02157 0.59985 0.15000
C 	C 	0.34367 0.20588 0.98704 -0.11700
C 	C 	0.40835 0.23181 0.00981 0.01100
C 	C 	0.41273 0.22570 0.04229 0.12400
C 	C 	0.35208 0.18781 0.05280 -0.02800
C 	C 	0.28702 0.15581 0.03110 -0.12000
C 	C 	0.28297 0.16773 0.99760 0.19000
C 	C 	0.46940 0.25635 0.00141 -0.01000
O 	O 	0.47620 0.25583 0.06392 -0.26800
H 	H 	0.35559 0.18013 0.07841 0.06200
O 	O 	0.21967 0.14058 0.97542 -0.28900
H 	H 	0.34012 0.21212 0.96169 0.07100
C 	C 	0.49350 0.21770 0.01529 0.13400
C 	C 	0.55778 0.24508 0.01215 -0.07500
C 	C 	0.59767 0.31060 0.99447 -0.05000
C 	C 	0.56936 0.34643 0.97709 0.15300
C 	C 	0.50596 0.31965 0.98115 -0.09200
O 	O 	0.45623 0.15441 0.03369 -0.28200
O 	O 	0.60541 0.40887 0.95770 -0.28200
H 	H 	0.48630 0.34878 0.96936 0.07400
H 	H 	0.20678 0.09866 0.97598 0.14600
H 	H 	0.42498 0.12691 0.01737 0.14300
H 	H 	0.58986 0.40337 0.93504 0.14800
H 	H 	0.48610 0.22268 0.07666 0.16000
H 	H 	0.02084 0.25649 0.04698 0.14800
C 	C 	0.44599 0.70699 0.69027 0.15200
O 	O 	0.44667 0.69613 0.72215 -0.28100
Co	Co	0.06897 0.92442 0.11211 1.18600
O 	O 	0.07324 0.00993 0.10595 -0.58600
C 	C 	0.03568 0.99110 0.99582 0.29400
C 	C 	0.06835 0.01199 0.20489 0.28300
O 	O 	0.05473 0.05484 0.18336 -0.39000
O 	O 	0.06696 0.97498 0.19483 -0.36700
O 	O 	0.00762 0.99676 0.51154 -0.36900
C 	C 	0.01715 0.03160 0.93430 -0.00400
H 	H 	0.05138 0.08169 0.93646 0.04400
C 	C 	0.02706 0.99071 0.40930 0.01900
C 	C 	0.04256 0.99426 0.38191 0.01200
C 	C 	0.06638 0.99716 0.32905 0.00300
C 	C 	0.07644 0.99726 0.30072 0.04300
C 	C 	0.08188 0.00297 0.24087 -0.09000
H 	H 	0.98557 0.24409 0.52734 0.15700
C 	C 	0.00225 0.95741 0.50129 0.28000
H 	H 	0.57835 0.21656 0.02505 0.06300
C 	C 	0.00461 0.97535 0.46657 -0.08400
C 	C 	0.67245 0.34446 0.99945 0.07800
H 	H 	0.65655 0.27779 0.98192 0.06000
C 	C 	0.59644 0.27783 0.52070 0.07600
H 	H 	0.60161 0.20520 0.52240 0.07300
C 	C 	0.50842 0.75524 0.64912 -0.00900
C 	C 	0.50869 0.74601 0.68128 -0.09200
H 	H 	0.53582 0.86841 0.58161 0.16400
C 	C 	0.62580 0.72520 0.18761 -0.01100
C 	C 	0.60414 0.76651 0.17051 0.13400
C 	C 	0.58739 0.66455 0.20903 -0.09100
O 	O 	0.64452 0.82848 0.15189 -0.27800
H 	H 	0.60471 0.63324 0.22293 0.08000
H 	H 	0.62664 0.82391 0.12876 0.14700
O 	O 	0.61743 0.26327 0.58921 -0.28000
H 	H 	0.63200 0.30806 0.58469 0.14800
H 	H 	0.55738 0.76748 0.69957 0.07100
C 	C 	0.69404 0.31672 0.99493 -0.10200
H 	H 	0.70525 0.41912 0.01791 0.08300
C 	C 	0.62375 0.25696 0.51494 -0.09100
H 	H 	0.60490 0.36061 0.51648 0.06700
H 	H 	0.64852 0.74347 0.13185 0.07500
H 	H 	0.64179 0.48542 0.43198 0.15100
C 	C 	0.72148 0.39686 0.01479 -0.08900
C 	C 	0.62559 0.34463 0.51151 -0.09400
C 	C 	0.61055 0.76320 0.65621 -0.11700
C 	C 	0.57410 0.79078 0.64082 0.00900
C 	C 	0.59941 0.85132 0.61691 0.12500
O 	O 	0.56660 0.88077 0.60317 -0.26800
H 	H 	0.59091 0.71626 0.67445 0.07400
C 	C 	0.69459 0.75903 0.15211 -0.11400
C 	C 	0.68971 0.74637 0.18373 0.01200
O 	O 	0.62129 0.23257 0.45357 -0.28200
H 	H 	0.63501 0.26893 0.43330 0.14900
O 	O 	0.62745 0.46408 0.45322 -0.28500
H 	H 	0.68477 0.20116 0.02931 0.06200
H 	H 	0.66999 0.10111 0.01580 0.14900
C 	C 	0.06587 0.95175 0.36000 -0.03400
C 	C 	0.05385 0.95021 0.38627 -0.04000
O 	O 	0.70019 0.11538 0.03694 -0.28100
C 	C 	0.76193 0.33406 0.01027 0.07500
C 	C 	0.79043 0.41784 0.02820 0.07800
C 	C 	0.68158 0.30327 0.50081 0.07800
C 	C 	0.68416 0.39125 0.49812 0.07900
C 	C 	0.71159 0.37048 0.49228 -0.10200
C 	C 	0.66040 0.88352 0.60838 -0.03600
C 	C 	0.67317 0.79668 0.64870 0.19200
H 	H 	0.67923 0.93004 0.58984 0.06700
C 	C 	0.74893 0.76278 0.21038 0.11800
C 	C 	0.75971 0.79739 0.14577 0.20000
O 	O 	0.74431 0.74664 0.24200 -0.27400
O 	O 	0.76460 0.81452 0.11405 -0.28400
H 	H 	0.75211 0.78449 0.24344 0.15100
O 	O 	0.69343 0.08737 0.52968 -0.27300
C 	C 	0.71553 0.28193 0.49872 -0.05100
C 	C 	0.68245 0.24440 0.47613 0.15300
C 	C 	0.71032 0.21642 0.47771 -0.09000
H 	H 	0.68324 0.18543 0.46116 0.07600
H 	H 	0.70311 0.09407 0.55102 0.15000
C 	C 	0.71223 0.54601 0.48462 -0.09300
C 	C 	0.68804 0.49141 0.47686 0.15200
H 	H 	0.68273 0.56610 0.47205 0.07700
C 	C 	0.74659 0.18223 0.02734 0.13600
C 	C 	0.73196 0.22299 0.02374 -0.07800
C 	C 	0.77831 0.29160 0.01352 -0.04900
O 	O 	0.79153 0.40226 0.09309 -0.28000
H 	H 	0.93747 0.68975 0.67653 0.15800
Co	Co	0.02374 0.06135 0.08734 1.18400
O 	O 	0.95020 0.92144 0.67673 -0.38600
O 	O 	0.00401 0.12291 0.11829 -0.38500
C 	C 	0.93681 0.96193 0.81425 -0.03200
H 	H 	0.91485 0.99425 0.83632 0.04800
H 	H 	0.91732 0.98186 0.78890 0.04800
C 	C 	0.93534 0.96890 0.84115 -0.03100
C 	C 	0.95352 0.92069 0.72941 -0.07100
C 	C 	0.96579 0.92306 0.79152 0.04200
C 	C 	0.96360 0.92956 0.82007 -0.00100
C 	C 	0.98818 0.90353 0.85302 -0.02300
C 	C 	0.98705 0.91074 0.87995 -0.02100
H 	H 	0.00876 0.87831 0.85778 0.03300
H 	H 	0.00749 0.89161 0.90527 0.03100
O 	O 	0.01387 0.99311 0.01451 -0.38900
C 	C 	0.99432 0.97911 0.96228 -0.05000
O 	O 	0.98857 0.89964 0.52040 -0.38100
C 	C 	0.96439 0.95554 0.90266 0.05000
C 	C 	0.96094 0.94379 0.87417 -0.00300
C 	C 	0.91228 0.86565 0.77998 -0.06500
H 	H 	0.87308 0.82335 0.79395 0.05200
H 	H 	0.82370 0.39030 0.10955 0.14900
C 	C 	0.81047 0.38542 0.02674 -0.09400
H 	H 	0.86250 0.39847 0.03929 0.07400
H 	H 	0.75760 0.40647 0.48240 0.06200
Co	Co	0.01802 0.95490 0.14710 1.18800
Co	Co	0.96437 0.02619 0.14641 1.17100
C 	C 	0.00040 0.82486 0.07468 0.29600
O 	O 	0.87946 0.99467 0.10707 -0.36500
O 	O 	0.00988 0.01658 0.12641 -0.76600
C 	C 	0.88669 0.03268 0.07696 0.29600
O 	O 	0.03799 0.89469 0.15283 -0.46500
C 	C 	0.88627 0.88129 0.16340 0.32600
O 	O 	0.92450 0.04044 0.06279 -0.38500
O 	O 	0.91936 0.93066 0.17567 -0.40100
O 	O 	0.91334 0.88565 0.14476 -0.38700
O 	O 	0.02780 0.86857 0.04870 -0.39200
O 	O 	0.99227 0.84070 0.09343 -0.37400
Co	Co	0.89673 0.91022 0.62797 1.18900
Co	Co	0.94789 0.86086 0.60588 1.18900
Co	Co	0.90442 0.02290 0.63303 1.16100
C 	C 	0.90008 0.76817 0.57132 0.33300
O 	O 	0.91968 0.10204 0.59192 -0.41300
O 	O 	0.92365 0.98828 0.61232 -0.75100
C 	C 	0.89643 0.09661 0.56123 0.32400
O 	O 	0.88805 0.83127 0.63320 -0.45500
C 	C 	0.76887 0.89783 0.61980 0.31200
O 	O 	0.93759 0.94385 0.58471 -0.57200
O 	O 	0.91604 0.07624 0.55192 -0.38200
O 	O 	0.80275 0.96218 0.61010 -0.39000
O 	O 	0.79305 0.86889 0.62142 -0.36500
C 	C 	0.93017 0.93055 0.69284 0.30300
O 	O 	0.88789 0.94766 0.67642 -0.40000
O 	O 	0.96506 0.78950 0.58095 -0.39200
O 	O 	0.87937 0.78627 0.58153 -0.38000
C 	C 	0.93458 0.90274 0.92922 -0.06200
C 	C 	0.94911 0.91453 0.95881 0.00900
C 	C 	0.90642 0.86434 0.74914 0.01800
H 	H 	0.90300 0.85270 0.92758 0.05300
H 	H 	0.93023 0.87347 0.98002 0.04300
H 	H 	0.86188 0.82153 0.73930 0.03200
C 	C 	0.96436 0.93624 0.41893 -0.04800
C 	C 	0.95305 0.92876 0.44730 0.02600
C 	C 	0.03406 0.94322 0.25922 0.01500
C 	C 	0.03091 0.94048 0.28885 -0.08100
H 	H 	0.92528 0.89867 0.40506 0.05300
H 	H 	0.90559 0.88512 0.45523 0.03900
H 	H 	0.07455 0.91755 0.36370 0.04200
H 	H 	0.05308 0.91465 0.40994 0.04200
H 	H 	0.99598 0.90011 0.24928 0.04600
H 	H 	0.99108 0.89503 0.30168 0.06400
C 	C 	0.69844 0.85724 0.62456 -0.11700
O 	O 	0.70995 0.77057 0.66529 -0.28300
H 	H 	0.74114 0.78826 0.68545 0.14800
C 	C 	0.81345 0.79815 0.20436 -0.02700
C 	C 	0.81994 0.82092 0.17157 -0.12600
H 	H 	0.85944 0.81351 0.22468 0.05700
H 	H 	0.76696 0.85520 0.10257 0.16000
C 	C 	0.85603 0.21758 0.50118 -0.11500
C 	C 	0.79306 0.18642 0.50764 0.01200
C 	C 	0.75724 0.11989 0.52504 0.11800
C 	C 	0.78793 0.08736 0.53883 -0.03300
C 	C 	0.85518 0.12135 0.53635 -0.12500
C 	C 	0.88759 0.18548 0.51580 0.19900
C 	C 	0.77125 0.22587 0.50166 -0.01300
H 	H 	0.76159 0.03715 0.55362 0.05300
O 	O 	0.95071 0.21737 0.51063 -0.28600
H 	H 	0.88277 0.26813 0.48677 0.07500
C 	C 	0.80655 0.26680 0.52281 0.13400
C 	C 	0.77857 0.29454 0.52129 -0.07700
O 	O 	0.86578 0.27593 0.54657 -0.28300
H 	H 	0.80454 0.32383 0.53856 0.06400
H 	H 	0.90448 0.31586 0.53569 0.14700
C 	C 	0.77227 0.57226 0.50986 -0.01000
C 	C 	0.81215 0.54811 0.52482 0.13300
C 	C 	0.78705 0.49255 0.51768 -0.07600
C 	C 	0.72255 0.46128 0.49543 -0.05300
C 	C 	0.79013 0.62078 0.52267 0.01100
O 	O 	0.87327 0.57602 0.54811 -0.27600
H 	H 	0.81511 0.47089 0.53135 0.06300
C 	C 	0.82022 0.68656 0.50431 0.11600
C 	C 	0.84846 0.73434 0.51919 -0.03400
C 	C 	0.84912 0.71721 0.55272 -0.12500
C 	C 	0.81322 0.65068 0.56997 0.20000
C 	C 	0.78369 0.60264 0.55488 -0.11100
O 	O 	0.82353 0.70448 0.47214 -0.27500
H 	H 	0.87394 0.78530 0.50538 0.05800
O 	O 	0.81185 0.63305 0.60248 -0.27800
H 	H 	0.75894 0.55169 0.56883 0.08100
H 	H 	0.86836 0.71559 0.47416 0.14400
H 	H 	0.76936 0.62537 0.60110 0.15500
H 	H 	0.90959 0.61065 0.53518 0.14600
C 	C 	0.85614 0.27811 0.01208 -0.09100
C 	C 	0.81052 0.20970 0.02328 -0.01000
C 	C 	0.83935 0.31897 0.00627 0.15100
C 	C 	0.83459 0.16814 0.03672 0.01700
O 	O 	0.88320 0.38543 0.99417 -0.28600
H 	H 	0.90532 0.29976 0.00869 0.07200
C 	C 	0.84412 0.15492 0.01543 0.11600
C 	C 	0.86062 0.11038 0.02850 -0.02800
C 	C 	0.86677 0.07819 0.06270 -0.12100
C 	C 	0.85625 0.09142 0.08375 0.20700
C 	C 	0.84292 0.13774 0.07087 -0.10700
O 	O 	0.83496 0.18349 0.98179 -0.27300
H 	H 	0.86789 0.10053 0.01197 0.06100
O 	O 	0.86126 0.06076 0.11718 -0.32600
H 	H 	0.83674 0.14852 0.08745 0.08300
H 	H 	0.86660 0.39309 0.96950 0.15000
H 	H 	0.88158 0.22442 0.97869 0.14600
H 	H 	0.81321 0.02171 0.11909 0.15500
C 	C 	0.97209 0.66544 0.09686 -0.11700
C 	C 	0.91731 0.63894 0.07003 0.01200
C 	C 	0.88214 0.66803 0.04832 0.12300
C 	C 	0.90517 0.72590 0.05214 -0.03100
C 	C 	0.96333 0.75521 0.07746 -0.10900
C 	C 	0.99473 0.72305 0.10082 0.19800
C 	C 	0.89852 0.58232 0.06384 -0.00800
O 	O 	0.82517 0.63987 0.02347 -0.26800
H 	H 	0.88000 0.74980 0.03435 0.06200
O 	O 	0.05074 0.75037 0.12611 -0.30000
H 	H 	0.99850 0.64256 0.11406 0.07700
C 	C 	0.91427 0.59093 0.03654 0.13500
C 	C 	0.88491 0.53602 0.02699 -0.07400
C 	C 	0.84056 0.47248 0.04480 -0.04800
C 	C 	0.83217 0.46414 0.07454 0.15300
C 	C 	0.86034 0.51899 0.08370 -0.09200
O 	O 	0.95478 0.65282 0.01796 -0.27300
H 	H 	0.89292 0.54293 0.00449 0.06800
H 	H 	0.84999 0.51209 0.10542 0.07400
H 	H 	0.03093 0.73143 0.14515 0.15000
H 	H 	0.00296 0.66599 0.02862 0.13800
H 	H 	0.84344 0.66125 0.00348 0.15700
