data_crystal

_cell_length_a 18.36702
_cell_length_b 18.68676
_cell_length_c 21.48571
_cell_angle_alpha 95.45991
_cell_angle_beta  95.46236
_cell_angle_gamma 126.34493

_symmetry_space_group_name_	'P 1'
_symmetry_space_group_name_H-M	'P 1'

loop_
_symmetry_equiv_pos_as_xyz
  x,y,z

loop_
_atom_site_label
_atom_site_type_symbol
_atom_site_fract_x
_atom_site_fract_y
_atom_site_fract_z
_atom_site_charge
C 	C 	0.07261 0.04968 0.98729 0.17000
N 	N 	0.03565 0.09452 0.98433 -0.11700
N 	N 	0.01320 0.03115 0.47267 -0.09800
Cu	Cu	0.61455 0.21975 0.99628 0.92300
Cu	Cu	0.71001 0.27497 0.87098 0.87000
Cu	Cu	0.63428 0.36060 0.92934 0.89200
Cu	Cu	0.65675 0.39930 0.07650 0.91400
C 	C 	0.64145 0.25550 0.13437 0.32700
O 	O 	0.48396 0.17264 0.99812 -0.37500
C 	C 	0.64370 0.35436 0.79653 0.31200
O 	O 	0.69314 0.36234 0.01063 -0.62200
O 	O 	0.60398 0.23980 0.90890 -0.64800
O 	O 	0.66931 0.15673 0.97969 -0.35600
O 	O 	0.78269 0.27454 0.93986 -0.43500
O 	O 	0.68553 0.34293 0.13790 -0.37200
O 	O 	0.65179 0.47385 0.95045 -0.37000
C 	C 	0.71120 0.53899 0.99901 0.28500
C 	C 	0.45924 0.22467 0.01256 0.31700
O 	O 	0.51799 0.31329 0.01884 -0.36600
O 	O 	0.71992 0.52162 0.05607 -0.33900
O 	O 	0.63250 0.20512 0.08250 -0.32900
C 	C 	0.75055 0.20095 0.96341 0.31700
O 	O 	0.60104 0.36022 0.84061 -0.37300
O 	O 	0.66663 0.29920 0.79618 -0.40700
H 	H 	0.76054 0.39636 0.01472 0.17200
H 	H 	0.54317 0.19461 0.88087 0.18600
Cu	Cu	0.75835 0.32442 0.43733 0.92900
Cu	Cu	0.80343 0.31616 0.58658 0.88000
Cu	Cu	0.63111 0.29044 0.53177 0.90700
Cu	Cu	0.56235 0.27491 0.39043 0.90900
C 	C 	0.67928 0.27045 0.30447 0.32000
O 	O 	0.79272 0.44457 0.41712 -0.35800
C 	C 	0.73152 0.38396 0.66410 0.32800
O 	O 	0.61836 0.24082 0.44509 -0.63200
O 	O 	0.76432 0.36302 0.52686 -0.64300
O 	O 	0.77001 0.21002 0.53256 -0.40600
O 	O 	0.59643 0.24462 0.31136 -0.35900
O 	O 	0.49981 0.21260 0.53104 -0.36000
C 	C 	0.43647 0.19040 0.48194 0.31100
C 	C 	0.74245 0.47183 0.42771 0.29800
O 	O 	0.65941 0.41504 0.43917 -0.36300
O 	O 	0.45804 0.23648 0.43519 -0.36000
O 	O 	0.73353 0.27198 0.35035 -0.36000
C 	C 	0.80785 0.21404 0.48273 0.30100
O 	O 	0.65050 0.32431 0.62564 -0.36700
O 	O 	0.80628 0.39490 0.65189 -0.41300
H 	H 	0.58797 0.17503 0.43745 0.18800
H 	H 	0.79689 0.42895 0.53904 0.19100
C 	C 	0.65667 0.39858 0.74831 -0.10800
C 	C 	0.73767 0.43013 0.71849 -0.11500
H 	H 	0.62363 0.43080 0.74233 0.09700
H 	H 	0.80540 0.48354 0.74677 0.07700
C 	C 	0.70097 0.27683 0.24654 -0.10300
C 	C 	0.62926 0.22285 0.18829 -0.09700
H 	H 	0.77223 0.30898 0.24233 0.09900
H 	H 	0.57972 0.15031 0.18559 0.10700
C 	C 	0.78255 0.56861 0.43363 -0.09100
C 	C 	0.78145 0.61559 0.48865 0.14000
Br	Br	0.74823 0.56311 0.56345 -0.24700
C 	C 	0.80174 0.00599 0.47515 -0.05900
C 	C 	0.77199 0.06001 0.48011 0.13800
Br	Br	0.02071 0.14821 0.37706 -0.16200
C 	C 	0.18136 0.00884 0.43504 -0.04800
C 	C 	0.14941 0.03490 0.48221 -0.00900
C 	C 	0.21283 0.10575 0.53380 0.10200
C 	C 	0.30740 0.15283 0.53574 -0.01400
C 	C 	0.33916 0.12941 0.48678 -0.08500
C 	C 	0.27561 0.05518 0.43739 0.13700
Br	Br	0.31655 0.01589 0.37279 -0.21500
H 	H 	0.35617 0.20939 0.57426 0.07600
Br	Br	0.17190 0.13753 0.60278 -0.18000
C 	C 	0.76008 0.63323 0.99112 -0.11200
C 	C 	0.75629 0.69439 0.03168 0.16200
Br	Br	0.67361 0.65395 0.09100 -0.19400
C 	C 	0.80342 0.16561 0.96801 -0.12900
C 	C 	0.22072 0.10002 0.04993 -0.01500
C 	C 	0.17244 0.09927 0.99492 -0.05700
C 	C 	0.21913 0.14101 0.94599 0.12100
C 	C 	0.31340 0.18313 0.95265 -0.05700
C 	C 	0.36124 0.18265 0.00726 -0.05200
C 	C 	0.31476 0.14137 0.05625 0.12300
Br	Br	0.37885 0.14159 0.13240 -0.21400
H 	H 	0.18492 0.06782 0.08761 0.08300
H 	H 	0.34918 0.21483 0.91482 0.07100
Br	Br	0.15453 0.13691 0.86831 -0.16800
Br	Br	0.81864 0.20178 0.10523 -0.20200
C 	C 	0.81011 0.78558 0.02679 -0.03600
H 	H 	0.80875 0.83291 0.05902 0.08300
H 	H 	0.79857 0.14572 0.86664 0.04200
C 	C 	0.82653 0.14779 0.46530 -0.08900
O 	O 	0.83329 0.27937 0.45030 -0.36200
C 	C 	0.81130 0.61101 0.38112 -0.02100
H 	H 	0.80987 0.57461 0.33803 0.06500
C 	C 	0.82287 0.13973 0.91240 -0.01400
C 	C 	0.83676 0.15956 0.02751 0.16700
C 	C 	0.80985 0.70404 0.49068 -0.06400
C 	C 	0.84067 0.69992 0.38360 0.09900
C 	C 	0.81288 0.66306 0.94329 -0.02100
H 	H 	0.81385 0.61563 0.91084 0.05000
H 	H 	0.81217 0.74080 0.53397 0.08200
C 	C 	0.84252 0.74787 0.43930 -0.01900
H 	H 	0.76266 0.94132 0.49036 0.08000
C 	C 	0.87218 0.10474 0.91547 0.09900
N 	N 	0.86431 0.89233 0.44486 -0.12600
C 	C 	0.86585 0.81610 0.98065 -0.04500
C 	C 	0.86511 0.75393 0.93750 0.10100
C 	C 	0.88152 0.03518 0.45078 -0.00200
Br	Br	0.87988 0.75571 0.31083 -0.20400
H 	H 	0.13275 0.95303 0.39601 0.08800
N 	N 	0.01735 0.95912 0.98545 -0.12400
C 	C 	0.88599 0.12441 0.03051 -0.03900
Br	Br	0.65205 0.00803 0.49977 -0.21500
N 	N 	0.88801 0.95750 0.97494 -0.13600
C 	C 	0.90258 0.17412 0.43682 -0.01600
H 	H 	0.91003 0.11802 0.07619 0.08100
C 	C 	0.90285 0.09591 0.97467 -0.04300
C 	C 	0.90137 0.84748 0.45074 0.14800
C 	C 	0.04982 0.98618 0.47747 0.15600
Br	Br	0.89549 0.06766 0.83821 -0.19500
C 	C 	0.92492 0.91279 0.97842 0.14100
C 	C 	0.92066 0.98476 0.45551 0.12300
C 	C 	0.92813 0.11703 0.42735 0.08400
Br	Br	0.93107 0.79078 0.86843 -0.21100
H 	H 	0.94212 0.23903 0.42197 0.07100
N 	N 	0.99368 0.89466 0.46725 -0.14100
C 	C 	0.94323 0.04821 0.97786 0.14400
