data_crystal

_cell_length_a 20.34701
_cell_length_b 17.61297
_cell_length_c 39.60326
_cell_angle_alpha 90.78863
_cell_angle_beta  91.39326
_cell_angle_gamma 110.96211

_symmetry_space_group_name_	'P 1'
_symmetry_space_group_name_H-M	'P 1'

loop_
_symmetry_equiv_pos_as_xyz
  x,y,z

loop_
_atom_site_label
_atom_site_type_symbol
_atom_site_fract_x
_atom_site_fract_y
_atom_site_fract_z
_atom_site_charge
Ni	Ni	0.03059 0.95567 0.75073 1.09700
O 	O 	0.01961 0.87077 0.71374 -0.71500
Ni	Ni	0.05851 0.94036 0.67460 1.09900
O 	O 	0.13189 0.96219 0.76305 -0.36100
O 	O 	0.11134 0.15375 0.76669 -0.39200
O 	O 	0.05352 0.84584 0.64260 -0.34800
O 	O 	0.05219 0.02697 0.70936 -0.68700
O 	O 	0.03784 0.03675 0.78839 -0.36500
O 	O 	0.12471 0.01830 0.64111 -0.34300
O 	O 	0.15928 0.14158 0.66787 -0.38100
Ni	Ni	0.13117 0.12980 0.71801 1.07700
H 	H 	0.04624 0.83480 0.71891 0.16900
H 	H 	0.01075 0.04226 0.70470 0.14800
O 	O 	0.19448 0.06660 0.72935 -0.41000
C 	C 	0.99336 0.78243 0.64134 0.29000
C 	C 	0.18915 0.02604 0.75732 0.30900
C 	C 	0.17526 0.08615 0.65122 0.30200
C 	C 	0.05210 0.11274 0.78134 0.29800
Ni	Ni	0.22205 0.66999 0.38576 1.10600
O 	O 	0.15905 0.67890 0.34624 -0.34300
O 	O 	0.20975 0.55598 0.36821 -0.38100
O 	O 	0.18695 0.59274 0.46205 -0.35800
O 	O 	0.13441 0.62363 0.41474 -0.34100
O 	O 	0.21864 0.48661 0.41519 -0.36700
C 	C 	0.16838 0.74892 0.33216 0.28700
C 	C 	0.18659 0.49089 0.38650 0.33000
C 	C 	0.13104 0.57904 0.44176 0.37200
Ni	Ni	0.23158 0.69562 0.04746 1.10400
Ni	Ni	0.24116 0.56274 0.99205 1.09900
O 	O 	0.18496 0.49265 0.03027 -0.33000
O 	O 	0.13082 0.64991 0.02642 -0.34600
O 	O 	0.19561 0.74340 0.08761 -0.34500
O 	O 	0.27904 0.86840 0.07966 -0.37600
C 	C 	0.17287 0.51769 0.06014 0.31300
C 	C 	0.11137 0.59678 0.00071 0.39700
C 	C 	0.22828 0.81966 0.09764 0.28600
O 	O 	0.21248 0.58939 0.07278 -0.38400
O 	O 	0.15711 0.59219 0.97847 -0.38100
O 	O 	0.96456 0.09448 0.29938 -0.34800
O 	O 	0.07394 0.14018 0.27740 -0.40500
Ni	Ni	0.06177 0.16269 0.22667 1.07000
O 	O 	0.08895 0.06411 0.21461 -0.40300
C 	C 	0.07329 0.02816 0.18470 0.30400
C 	C 	0.02963 0.14693 0.29981 0.30200
O 	O 	0.06637 0.19730 0.17735 -0.39000
C 	C 	0.03362 0.27652 0.13742 -0.06600
C 	C 	0.05874 0.33481 0.11983 0.05500
C 	C 	0.09529 0.40218 0.09984 0.05800
C 	C 	0.12992 0.45709 0.08241 -0.05500
C 	C 	0.19542 0.85576 0.12134 -0.07000
C 	C 	0.16941 0.89150 0.13969 0.04400
C 	C 	0.13889 0.93775 0.15873 0.05100
C 	C 	0.11083 0.97910 0.17233 -0.08500
C 	C 	0.14329 0.41619 0.37024 -0.05200
C 	C 	0.10977 0.35259 0.35625 0.06200
C 	C 	0.07528 0.27841 0.33872 0.06200
C 	C 	0.05102 0.21658 0.32206 -0.08700
C 	C 	0.10785 0.76065 0.31744 -0.06300
C 	C 	0.05632 0.77228 0.30694 0.03800
C 	C 	0.99687 0.79035 0.29670 0.06500
C 	C 	0.04594 0.50610 0.48607 0.27400
C 	C 	0.06124 0.52144 0.45178 -0.18800
C 	C 	0.00968 0.48082 0.42678 0.27100
F 	F 	0.02442 0.49139 0.39354 -0.39200
F 	F 	0.09463 0.54449 0.51067 -0.38100
C 	C 	0.03653 0.54760 0.99481 -0.20600
C 	C 	0.01648 0.46463 0.98606 0.27600
F 	F 	0.00372 0.66367 0.00461 -0.37300
F 	F 	0.06494 0.42803 0.98627 -0.39800
C 	C 	0.25270 0.03792 0.77655 -0.07700
Ni	Ni	0.74913 0.32500 0.89307 1.10600
O 	O 	0.66522 0.26525 0.86141 -0.70700
Ni	Ni	0.58744 0.28054 0.88652 1.10800
O 	O 	0.81568 0.30000 0.86057 -0.34500
O 	O 	0.75170 0.16314 0.86127 -0.37600
O 	O 	0.75553 0.42490 0.86556 -0.38600
Ni	Ni	0.64504 0.14971 0.85588 1.07800
O 	O 	0.77091 0.41456 0.96840 -0.36000
O 	O 	0.63375 0.12758 0.90639 -0.38500
O 	O 	0.51159 0.23056 0.85034 -0.35300
O 	O 	0.66878 0.32342 0.92136 -0.69900
O 	O 	0.83380 0.39362 0.92335 -0.35100
O 	O 	0.52277 0.32794 0.91124 -0.33300
O 	O 	0.61125 0.45150 0.91429 -0.38200
Ni	Ni	0.69216 0.43230 0.94132 1.11200
H 	H 	0.66913 0.29081 0.83907 0.16400
H 	H 	0.66379 0.28421 0.93965 0.19300
C 	C 	0.57650 0.12556 0.92161 0.39500
O 	O 	0.76662 0.50915 0.91136 -0.34800
C 	C 	0.80462 0.22529 0.84979 0.28600
C 	C 	0.50044 0.15717 0.83744 0.28800
C 	C 	0.77104 0.49803 0.87883 0.32000
C 	C 	0.54562 0.40568 0.91963 0.38300
C 	C 	0.83087 0.41813 0.95496 0.39400
O 	O 	0.54410 0.17540 0.91309 -0.34700
O 	O 	0.53712 0.11263 0.84855 -0.36500
Ni	Ni	0.59915 0.30452 0.53280 1.10600
O 	O 	0.68228 0.31856 0.50213 -0.69900
Ni	Ni	0.74853 0.28930 0.53312 1.10600
O 	O 	0.55850 0.37473 0.50447 -0.34300
O 	O 	0.66509 0.47839 0.50432 -0.37900
O 	O 	0.53604 0.20603 0.50380 -0.34500
Ni	Ni	0.73067 0.42483 0.48298 1.09600
O 	O 	0.50747 0.14531 0.56631 -0.36900
O 	O 	0.80898 0.49058 0.51701 -0.36500
O 	O 	0.83991 0.32347 0.50592 -0.33600
O 	O 	0.65964 0.26168 0.56123 -0.70100
O 	O 	0.51773 0.27980 0.56506 -0.33900
O 	O 	0.79378 0.23725 0.56847 -0.34000
O 	O 	0.69968 0.11804 0.56366 -0.38600
Ni	Ni	0.60839 0.14523 0.56473 1.07300
H 	H 	0.66786 0.27802 0.48327 0.18800
H 	H 	0.66935 0.28892 0.58381 0.16300
C 	C 	0.82647 0.46651 0.54605 0.33500
O 	O 	0.59928 0.12457 0.51392 -0.39600
C 	C 	0.59687 0.45021 0.49771 0.38000
C 	C 	0.85285 0.37304 0.47993 0.38000
C 	C 	0.55266 0.14276 0.49568 0.39600
C 	C 	0.75887 0.16355 0.57914 0.28700
C 	C 	0.48872 0.20595 0.57727 0.29100
O 	O 	0.78642 0.39816 0.55943 -0.38100
O 	O 	0.80087 0.38241 0.46187 -0.36300
O 	O 	0.98918 0.86442 0.78445 -0.34700
O 	O 	0.88847 0.81420 0.75162 -0.40300
Ni	Ni	0.92076 0.80924 0.70242 1.07000
O 	O 	0.89402 0.90812 0.69120 -0.40500
C 	C 	0.91639 0.94984 0.66386 0.30300
C 	C 	0.92674 0.80835 0.77802 0.29300
O 	O 	0.97217 0.94714 0.64879 -0.35400
O 	O 	0.93552 0.78999 0.65283 -0.39400
O 	O 	0.30715 0.70912 0.35562 -0.70500
Ni	Ni	0.38440 0.70803 0.38723 1.10700
O 	O 	0.22391 0.81403 0.34069 -0.38600
Ni	Ni	0.32879 0.82015 0.34106 1.07100
O 	O 	0.33880 0.86795 0.38909 -0.39100
O 	O 	0.46216 0.74008 0.35293 -0.33800
O 	O 	0.30121 0.68166 0.41905 -0.69800
O 	O 	0.44981 0.68024 0.42125 -0.33300
O 	O 	0.36488 0.55786 0.43108 -0.38100
Ni	Ni	0.27743 0.58270 0.44572 1.09600
H 	H 	0.30266 0.67202 0.33598 0.16600
H 	H 	0.30693 0.72844 0.43446 0.18200
C 	C 	0.39499 0.87762 0.40809 0.39500
C 	C 	0.47201 0.80376 0.33358 0.29200
C 	C 	0.42887 0.61047 0.43668 0.37900
O 	O 	0.42730 0.82520 0.40632 -0.34700
O 	O 	0.43646 0.85315 0.33846 -0.36700
Ni	Ni	0.38408 0.69871 0.03429 1.10800
O 	O 	0.28828 0.67296 0.01041 -0.69400
O 	O 	0.42054 0.63631 0.99997 -0.33500
O 	O 	0.32280 0.52213 0.00402 -0.36700
O 	O 	0.42892 0.79839 0.00451 -0.33600
O 	O 	0.47736 0.86293 0.06807 -0.37100
O 	O 	0.33109 0.73450 0.06905 -0.70200
O 	O 	0.47723 0.73309 0.06066 -0.33900
Ni	Ni	0.37450 0.85249 0.07358 1.08200
H 	H 	0.29175 0.71185 0.99214 0.17800
H 	H 	0.33284 0.70842 0.09087 0.16400
O 	O 	0.36428 0.87120 0.02358 -0.38100
C 	C 	0.38651 0.55885 0.99301 0.37600
C 	C 	0.40927 0.86166 0.00242 0.39200
C 	C 	0.50400 0.80623 0.07507 0.28800
Ni	Ni	0.93248 0.01136 0.25999 1.09700
O 	O 	0.96018 0.10490 0.22713 -0.71400
Ni	Ni	0.93341 0.04587 0.18309 1.09800
O 	O 	0.82979 0.00743 0.26153 -0.36300
O 	O 	0.84322 0.81100 0.26156 -0.39700
O 	O 	0.95299 0.14791 0.15493 -0.35100
O 	O 	0.92384 0.94992 0.21529 -0.68200
O 	O 	0.90784 0.92079 0.29369 -0.36200
O 	O 	0.87774 0.97887 0.14194 -0.34100
O 	O 	0.83420 0.85048 0.16107 -0.38200
Ni	Ni	0.84192 0.84743 0.21302 1.07800
H 	H 	0.93438 0.14240 0.23063 0.17000
H 	H 	0.96540 0.93363 0.21435 0.14800
O 	O 	0.77492 0.90744 0.22171 -0.40300
C 	C 	0.01444 0.20865 0.15974 0.29000
C 	C 	0.77509 0.94297 0.25117 0.31100
C 	C 	0.82436 0.91106 0.14602 0.31000
C 	C 	0.89611 0.84683 0.28285 0.31600
O 	O 	0.02468 0.03873 0.16515 -0.35700
C 	C 	0.57421 0.83204 0.08890 -0.05500
C 	C 	0.63341 0.85427 0.10040 0.05200
C 	C 	0.70204 0.87876 0.11453 0.06600
C 	C 	0.75931 0.89633 0.12791 -0.08100
C 	C 	0.71077 0.91908 0.26949 -0.07300
C 	C 	0.65601 0.89436 0.28421 0.06400
C 	C 	0.59153 0.86244 0.30112 0.05400
C 	C 	0.53671 0.83486 0.31565 -0.04500
C 	C 	0.94852 0.81187 0.28956 -0.11500
C 	C 	0.39779 0.97987 0.45265 0.27900
C 	C 	0.43086 0.95542 0.42617 -0.20400
C 	C 	0.50217 0.99948 0.42023 0.28300
C 	C 	0.54147 0.06293 0.44229 0.27200
C 	C 	0.50955 0.08396 0.47004 -0.20000
C 	C 	0.43699 0.04413 0.47451 0.27400
F 	F 	0.40533 0.06501 0.50102 -0.38100
F 	F 	0.32870 0.93859 0.45832 -0.39100
F 	F 	0.61097 0.10299 0.43709 -0.39200
F 	F 	0.53387 0.97881 0.39369 -0.37900
C 	C 	0.94284 0.42887 0.43593 0.27600
C 	C 	0.92659 0.41632 0.47018 -0.19000
C 	C 	0.97941 0.45283 0.49515 0.27300
F 	F 	0.89390 0.39036 0.41144 -0.37800
F 	F 	0.96581 0.43836 0.52830 -0.39300
C 	C 	0.54270 0.58788 0.44083 0.28100
C 	C 	0.48000 0.58536 0.45572 -0.19800
C 	C 	0.46194 0.54858 0.48707 0.27300
C 	C 	0.50286 0.50855 0.50198 0.28100
C 	C 	0.56228 0.50521 0.48569 -0.20000
C 	C 	0.58382 0.54802 0.45584 0.27500
F 	F 	0.64220 0.54674 0.44032 -0.40800
F 	F 	0.56139 0.62454 0.41079 -0.37900
F 	F 	0.48379 0.47107 0.53183 -0.38500
F 	F 	0.40324 0.54930 0.50247 -0.41200
C 	C 	0.87977 0.99845 0.64987 -0.08000
C 	C 	0.85205 0.04000 0.63599 0.04100
C 	C 	0.82119 0.08727 0.61769 0.04600
C 	C 	0.79409 0.12464 0.60065 -0.07600
C 	C 	0.42186 0.18500 0.59332 -0.04600
C 	C 	0.36495 0.16313 0.60620 0.05300
C 	C 	0.29805 0.13509 0.62116 0.06100
C 	C 	0.24146 0.11149 0.63436 -0.07100
C 	C 	0.98400 0.71402 0.61930 -0.07100
C 	C 	0.96043 0.65277 0.60211 0.05800
C 	C 	0.91992 0.58236 0.58319 0.06600
C 	C 	0.87885 0.52630 0.56694 -0.04800
C 	C 	0.98531 0.58386 0.99571 0.27900
C 	C 	0.94699 0.41989 0.97600 0.27800
C 	C 	0.89706 0.45776 0.97421 -0.19400
C 	C 	0.91571 0.53901 0.98546 0.27700
F 	F 	0.86752 0.57601 0.98425 -0.38400
F 	F 	0.92875 0.34045 0.96649 -0.38400
C 	C 	0.51597 0.97744 0.93046 0.28600
C 	C 	0.54048 0.05752 0.94361 -0.20200
C 	C 	0.51989 0.07342 0.97573 0.28200
C 	C 	0.47495 0.01002 0.99447 0.27100
C 	C 	0.44954 0.92990 0.98113 -0.19200
C 	C 	0.47041 0.91406 0.94901 0.27700
F 	F 	0.44596 0.83725 0.93563 -0.38400
F 	F 	0.53406 0.96153 0.89909 -0.39900
F 	F 	0.45769 0.02613 0.02598 -0.40000
F 	F 	0.54314 0.15061 0.98868 -0.39300
C 	C 	0.53028 0.48215 0.97016 0.28100
C 	C 	0.50210 0.43809 0.94008 -0.20400
C 	C 	0.43299 0.42710 0.92931 0.28700
C 	C 	0.39368 0.46352 0.94757 0.27500
C 	C 	0.42337 0.51116 0.97665 -0.19100
C 	C 	0.49110 0.51855 0.98834 0.27700
F 	F 	0.51906 0.56151 0.01726 -0.37600
F 	F 	0.59567 0.48945 0.98178 -0.43000
F 	F 	0.32794 0.45544 0.93623 -0.40000
F 	F 	0.40491 0.38367 0.90051 -0.38000
C 	C 	0.86149 0.20969 0.83392 -0.06600
C 	C 	0.90975 0.19646 0.82118 0.04600
C 	C 	0.96484 0.17701 0.80678 0.05200
C 	C 	0.00824 0.15326 0.79487 -0.08700
C 	C 	0.30908 0.05618 0.79108 0.06000
C 	C 	0.37652 0.08558 0.80694 0.05000
C 	C 	0.43389 0.11605 0.82044 -0.05600
C 	C 	0.89643 0.74567 0.80183 -0.08000
C 	C 	0.86873 0.69076 0.82055 0.05300
C 	C 	0.83475 0.62460 0.84135 0.05500
C 	C 	0.80540 0.56711 0.85857 -0.06600
