data_crystal

_cell_length_a 18.41390
_cell_length_b 18.86074
_cell_length_c 36.18510
_cell_angle_alpha 95.42921
_cell_angle_beta  95.42926
_cell_angle_gamma 126.41385

_symmetry_space_group_name_	'P 1'
_symmetry_space_group_name_H-M	'P 1'

loop_
_symmetry_equiv_pos_as_xyz
  x,y,z

loop_
_atom_site_label
_atom_site_type_symbol
_atom_site_fract_x
_atom_site_fract_y
_atom_site_fract_z
_atom_site_charge
C 	C 	0.91293 0.99898 0.96551 0.31100
N 	N 	0.00276 0.05093 0.96241 -0.12000
C 	C 	0.04954 0.01633 0.96237 0.24300
N 	N 	0.00647 0.92931 0.96511 -0.08200
C 	C 	0.91683 0.87657 0.96837 0.25300
N 	N 	0.86963 0.91143 0.96875 -0.10700
C 	C 	0.93101 0.02061 0.49725 0.23000
N 	N 	0.88164 0.93339 0.50091 -0.09100
C 	C 	0.92165 0.89201 0.50152 0.26000
N 	N 	0.01127 0.93794 0.49871 -0.07700
C 	C 	0.06087 0.02501 0.49480 0.23800
N 	N 	0.02059 0.06638 0.49390 -0.09000
Cu	Cu	0.77237 0.35093 0.96392 0.93400
Cu	Cu	0.75472 0.28793 0.04595 0.90100
Cu	Cu	0.62220 0.30899 0.00809 0.91400
Cu	Cu	0.59816 0.33429 0.92897 0.92600
C 	C 	0.71068 0.31067 0.88358 0.30700
O 	O 	0.82057 0.48014 0.96045 -0.32100
C 	C 	0.67227 0.34290 0.09167 0.30900
O 	O 	0.62813 0.27365 0.95747 -0.63800
O 	O 	0.75666 0.36891 0.01627 -0.63300
O 	O 	0.83500 0.29373 0.97241 -0.32100
O 	O 	0.73073 0.19931 0.00634 -0.38200
O 	O 	0.67200 0.35022 0.88924 -0.33000
O 	O 	0.49003 0.24173 0.99857 -0.35000
C 	C 	0.43786 0.23090 0.96749 0.40400
C 	C 	0.77383 0.51011 0.96913 0.38500
O 	O 	0.68761 0.45315 0.97216 -0.36400
O 	O 	0.47273 0.27547 0.94000 -0.33700
O 	O 	0.76523 0.31460 0.91147 -0.31000
C 	C 	0.79314 0.21864 0.98584 0.37200
O 	O 	0.61808 0.33388 0.06177 -0.32800
O 	O 	0.74591 0.34800 0.08868 -0.37300
H 	H 	0.59039 0.20802 0.94850 0.19600
H 	H 	0.79470 0.43209 0.02966 0.21500
Cu	Cu	0.60006 0.18841 0.50507 0.93900
Cu	Cu	0.66154 0.20504 0.42259 0.90100
Cu	Cu	0.65062 0.34043 0.46332 0.91000
Cu	Cu	0.62636 0.36106 0.54292 0.92400
C 	C 	0.64129 0.24256 0.58564 0.30800
O 	O 	0.47186 0.14767 0.50964 -0.32500
C 	C 	0.61733 0.29738 0.37951 0.30900
O 	O 	0.68491 0.32933 0.51316 -0.63500
O 	O 	0.58287 0.20797 0.45336 -0.63600
O 	O 	0.64741 0.11891 0.49410 -0.32600
O 	O 	0.74863 0.22013 0.46131 -0.39300
O 	O 	0.60381 0.28337 0.58081 -0.33600
O 	O 	0.72447 0.46965 0.47500 -0.34700
C 	C 	0.72435 0.51790 0.50392 0.40700
C 	C 	0.44376 0.19485 0.50042 0.38800
O 	O 	0.50401 0.28034 0.49953 -0.35800
O 	O 	0.69635 0.48677 0.53499 -0.33300
O 	O 	0.63694 0.19078 0.55695 -0.30700
C 	C 	0.72374 0.15629 0.48067 0.38900
O 	O 	0.62960 0.35057 0.41009 -0.32900
O 	O 	0.60402 0.22120 0.38128 -0.37500
H 	H 	0.75184 0.36337 0.52199 0.19900
H 	H 	0.51832 0.17386 0.44020 0.21500
C 	C 	0.69855 0.22670 0.69487 0.02300
C 	C 	0.62755 0.15986 0.71099 -0.01400
C 	C 	0.63627 0.16921 0.75031 -0.01400
C 	C 	0.71605 0.24538 0.77364 0.02300
C 	C 	0.79049 0.30755 0.75753 -0.01300
C 	C 	0.78177 0.29819 0.71820 -0.01400
C 	C 	0.71518 0.26765 0.81271 0.07600
C 	C 	0.71423 0.28609 0.84540 -0.04400
C 	C 	0.67970 0.23135 0.65599 0.07500
C 	C 	0.66349 0.23485 0.62342 -0.04500
H 	H 	0.56344 0.10366 0.69315 0.07900
H 	H 	0.57888 0.12008 0.76254 0.07700
H 	H 	0.85301 0.36594 0.77538 0.08000
H 	H 	0.83756 0.34951 0.70598 0.07800
C 	C 	0.60826 0.35473 0.27405 0.01900
C 	C 	0.68699 0.42982 0.26475 -0.01600
C 	C 	0.69438 0.43527 0.22682 -0.01600
C 	C 	0.62302 0.36568 0.19809 0.02000
C 	C 	0.54091 0.29499 0.20739 -0.01600
C 	C 	0.53353 0.28955 0.24531 -0.01600
C 	C 	0.63985 0.35880 0.16032 0.07200
C 	C 	0.65376 0.35289 0.12868 -0.05700
C 	C 	0.61101 0.33619 0.31166 0.07200
C 	C 	0.61282 0.32022 0.34308 -0.05800
H 	H 	0.74463 0.48118 0.28680 0.07800
H 	H 	0.75761 0.49087 0.21987 0.07600
H 	H 	0.48489 0.24154 0.18535 0.07800
H 	H 	0.47190 0.23186 0.25226 0.07500
C 	C 	0.79215 0.73273 0.47461 0.26600
C 	C 	0.86725 0.79677 0.50353 -0.12600
C 	C 	0.89340 0.76900 0.53320 0.26500
C 	C 	0.84581 0.67774 0.53364 0.30000
C 	C 	0.77181 0.61359 0.50432 -0.19900
C 	C 	0.74479 0.64140 0.47493 0.29900
F 	F 	0.67268 0.57981 0.44669 -0.36800
F 	F 	0.76677 0.75911 0.44567 -0.34700
F 	F 	0.87312 0.65146 0.56198 -0.37000
F 	F 	0.96540 0.83061 0.56148 -0.34800
C 	C 	0.81977 0.11710 0.45566 0.29300
C 	C 	0.77881 0.12358 0.48542 -0.20400
C 	C 	0.79287 0.10098 0.51989 0.29700
C 	C 	0.84578 0.07054 0.52426 0.25800
C 	C 	0.88569 0.06321 0.49437 -0.12200
C 	C 	0.87347 0.08770 0.46027 0.25800
F 	F 	0.91071 0.07957 0.43103 -0.36000
F 	F 	0.80518 0.13675 0.42189 -0.39700
F 	F 	0.85807 0.04780 0.55751 -0.35800
F 	F 	0.75635 0.10971 0.54928 -0.37200
C 	C 	0.22503 0.15713 0.51683 0.25800
C 	C 	0.15854 0.07461 0.49245 -0.11000
C 	C 	0.18651 0.03486 0.46882 0.22900
C 	C 	0.27987 0.07480 0.47104 0.30600
C 	C 	0.34605 0.15546 0.49644 -0.20600
C 	C 	0.31839 0.19746 0.51876 0.30200
F 	F 	0.38196 0.27552 0.54347 -0.37900
F 	F 	0.19908 0.19604 0.53997 -0.34600
F 	F 	0.30608 0.03519 0.44849 -0.39000
F 	F 	0.12300 0.95695 0.44401 -0.31800
C 	C 	0.88513 0.67365 0.99688 0.28900
C 	C 	0.81197 0.60441 0.96856 -0.19500
C 	C 	0.76761 0.62400 0.94233 0.29600
C 	C 	0.79742 0.71230 0.94397 0.26300
C 	C 	0.87195 0.78202 0.97180 -0.11800
C 	C 	0.91462 0.76188 0.99867 0.25400
F 	F 	0.98580 0.82827 0.02615 -0.34400
F 	F 	0.92676 0.65533 0.02306 -0.37300
F 	F 	0.75624 0.73055 0.91753 -0.34600
F 	F 	0.69617 0.55748 0.91497 -0.38400
C 	C 	0.83647 0.13971 0.94440 0.28800
C 	C 	0.81916 0.15800 0.97970 -0.20000
C 	C 	0.82194 0.11442 0.00877 0.29200
C 	C 	0.84421 0.05538 0.00290 0.28200
C 	C 	0.86538 0.04012 0.96818 -0.17300
C 	C 	0.85951 0.08116 0.93869 0.27300
F 	F 	0.87874 0.06622 0.90481 -0.36300
F 	F 	0.83038 0.17803 0.91552 -0.37200
F 	F 	0.85034 0.01697 0.03173 -0.36400
F 	F 	0.80621 0.13167 0.04319 -0.39400
C 	C 	0.20882 0.14627 0.99273 0.25200
C 	C 	0.14832 0.07459 0.96244 -0.11500
C 	C 	0.18315 0.05534 0.93354 0.23100
C 	C 	0.27794 0.10683 0.93510 0.30500
C 	C 	0.33850 0.17738 0.96576 -0.20400
C 	C 	0.30361 0.19735 0.99443 0.29700
F 	F 	0.36164 0.26675 0.02378 -0.35800
F 	F 	0.17568 0.16494 0.02095 -0.34200
F 	F 	0.31113 0.08723 0.90719 -0.38400
F 	F 	0.12502 0.98652 0.90401 -0.31500
