data_crystal

_cell_length_a 32.37335
_cell_length_b 28.88904
_cell_length_c 19.65567
_cell_angle_alpha 92.66543
_cell_angle_beta  85.32739
_cell_angle_gamma 124.34157

_symmetry_space_group_name_	'P 1'
_symmetry_space_group_name_H-M	'P 1'

loop_
_symmetry_equiv_pos_as_xyz
  x,y,z

loop_
_atom_site_label
_atom_site_type_symbol
_atom_site_fract_x
_atom_site_fract_y
_atom_site_fract_z
_atom_site_charge
C 	C 	0.92537 0.81319 0.97867 0.00300
C 	C 	0.96219 0.83679 0.92437 -0.02500
C 	C 	0.99241 0.89488 0.91514 -0.06900
C 	C 	0.98615 0.92996 0.95991 0.08300
C 	C 	0.94956 0.90629 0.01491 -0.07200
C 	C 	0.91940 0.84820 0.02416 -0.02600
N 	N 	0.01609 0.98960 0.94734 -0.14400
C 	C 	0.93106 0.05986 0.94162 0.00300
C 	C 	0.95233 0.06219 0.00222 -0.02500
C 	C 	0.98084 0.03980 0.00437 -0.07100
C 	C 	0.98802 0.01442 0.94587 0.08300
C 	C 	0.96697 0.01249 0.88538 -0.06400
C 	C 	0.93878 0.03522 0.88313 -0.02500
C 	C 	0.15671 0.08214 0.03669 -0.00700
C 	C 	0.15236 0.09487 0.97079 -0.01700
C 	C 	0.10576 0.06522 0.94257 -0.07000
C 	C 	0.06301 0.02256 0.97980 0.08600
C 	C 	0.06706 0.01139 0.04716 -0.07300
C 	C 	0.11381 0.04086 0.07515 -0.02000
C 	C 	0.84147 0.12576 0.93618 0.04500
C 	C 	0.82101 0.06927 0.92024 -0.03400
C 	C 	0.85017 0.04769 0.92231 -0.02900
C 	C 	0.90022 0.08263 0.93961 0.01200
C 	C 	0.92083 0.13934 0.95471 -0.02900
C 	C 	0.89153 0.16078 0.95308 -0.03900
C 	C 	0.83029 0.63475 0.00090 0.04300
C 	C 	0.80966 0.66490 0.98854 -0.03400
C 	C 	0.84065 0.72321 0.98174 -0.02800
C 	C 	0.89253 0.75178 0.98722 0.00900
C 	C 	0.91311 0.72157 0.99981 -0.02100
C 	C 	0.88210 0.66324 0.00649 -0.04100
C 	C 	0.30663 0.16403 0.09659 0.04400
C 	C 	0.27852 0.10649 0.08148 -0.03400
C 	C 	0.22866 0.07911 0.06525 -0.03200
C 	C 	0.20664 0.10913 0.06325 0.01300
C 	C 	0.23411 0.16618 0.08074 -0.03200
C 	C 	0.28391 0.19352 0.09750 -0.04100
H 	H 	0.96701 0.81007 0.88892 0.04100
H 	H 	0.02040 0.91272 0.87270 0.05500
H 	H 	0.94463 0.93279 0.05046 0.05100
H 	H 	0.89135 0.83039 0.06658 0.04500
H 	H 	0.94632 0.08081 0.04777 0.04200
H 	H 	0.99634 0.04106 0.05168 0.05100
H 	H 	0.97245 0.99319 0.84014 0.05000
H 	H 	0.92285 0.03360 0.83598 0.04100
H 	H 	0.18531 0.12680 0.94082 0.04100
H 	H 	0.10294 0.07450 0.89106 0.05500
H 	H 	0.03428 0.98029 0.07780 0.05000
H 	H 	0.11678 0.03121 0.12640 0.04100
H 	H 	0.78241 0.04201 0.90695 0.06200
H 	H 	0.83386 0.00382 0.91080 0.04800
H 	H 	0.95952 0.16675 0.96758 0.04500
H 	H 	0.90762 0.20450 0.96526 0.05700
H 	H 	0.76967 0.64314 0.98406 0.06100
H 	H 	0.82445 0.74614 0.97173 0.04800
H 	H 	0.95309 0.74326 0.00435 0.04100
H 	H 	0.89829 0.64020 0.01599 0.05700
H 	H 	0.29580 0.08344 0.08022 0.06200
H 	H 	0.20770 0.03504 0.05185 0.04700
H 	H 	0.21732 0.18963 0.07958 0.04500
H 	H 	0.30530 0.23792 0.10914 0.05500
C 	C 	0.91247 0.84913 0.46554 -0.00000
C 	C 	0.94605 0.86744 0.40747 -0.02200
C 	C 	0.97876 0.92465 0.39327 -0.06700
C 	C 	0.97814 0.96416 0.43660 0.07900
C 	C 	0.94363 0.94576 0.49405 -0.06900
C 	C 	0.91122 0.88852 0.50858 -0.02400
N 	N 	0.01324 0.02307 0.42181 -0.14100
C 	C 	0.94916 0.11702 0.41707 -0.00000
C 	C 	0.96931 0.11574 0.47693 -0.02200
C 	C 	0.99046 0.08502 0.47903 -0.07000
C 	C 	0.99157 0.05510 0.42101 0.08100
C 	C 	0.97157 0.05668 0.36124 -0.06600
C 	C 	0.95054 0.08753 0.35916 -0.02300
C 	C 	0.15446 0.09944 0.50696 0.00100
C 	C 	0.15172 0.10749 0.43801 -0.02100
C 	C 	0.10516 0.08323 0.41093 -0.06500
C 	C 	0.06083 0.05018 0.45206 0.08100
C 	C 	0.06356 0.04258 0.52150 -0.06900
C 	C 	0.11017 0.06738 0.54873 -0.02300
C 	C 	0.87729 0.20409 0.42160 0.04300
C 	C 	0.84988 0.14631 0.40849 -0.03500
C 	C 	0.87355 0.11806 0.40576 -0.02900
C 	C 	0.92489 0.14745 0.41589 0.01300
C 	C 	0.95259 0.20556 0.42726 -0.03000
C 	C 	0.92884 0.23378 0.43008 -0.03600
C 	C 	0.81531 0.67242 0.50193 0.04200
C 	C 	0.79502 0.70399 0.49678 -0.03200
C 	C 	0.82673 0.76189 0.48614 -0.02900
C 	C 	0.87897 0.78872 0.48147 0.01300
C 	C 	0.89918 0.75736 0.48939 -0.03100
C 	C 	0.86747 0.69944 0.49936 -0.03800
C 	C 	0.30080 0.16440 0.57096 0.04200
C 	C 	0.26232 0.10763 0.58133 -0.03300
C 	C 	0.21400 0.08672 0.56269 -0.02900
C 	C 	0.20364 0.12263 0.53451 0.01400
C 	C 	0.24144 0.18011 0.52831 -0.03000
C 	C 	0.28989 0.20086 0.54623 -0.03700
H 	H 	0.94688 0.83732 0.37347 0.04600
H 	H 	0.00488 0.93844 0.34871 0.05500
H 	H 	0.94245 0.97567 0.52783 0.04900
H 	H 	0.88545 0.87482 0.55355 0.03900
H 	H 	0.96794 0.13793 0.52211 0.04400
H 	H 	0.00492 0.08357 0.52595 0.05200
H 	H 	0.97239 0.03392 0.31637 0.05300
H 	H 	0.93515 0.08837 0.31267 0.04200
H 	H 	0.18568 0.13182 0.40518 0.05000
H 	H 	0.10341 0.08926 0.35754 0.05600
H 	H 	0.02985 0.01834 0.55449 0.05000
H 	H 	0.11188 0.06145 0.60220 0.03800
H 	H 	0.81004 0.12314 0.40184 0.06100
H 	H 	0.85186 0.07321 0.39703 0.04900
H 	H 	0.99232 0.22866 0.43465 0.04600
H 	H 	0.95026 0.27845 0.44009 0.05600
H 	H 	0.75475 0.68347 0.49927 0.06200
H 	H 	0.81074 0.78570 0.48022 0.04800
H 	H 	0.93945 0.77778 0.48681 0.04500
H 	H 	0.88341 0.67538 0.50378 0.05300
H 	H 	0.27038 0.07932 0.60102 0.05800
H 	H 	0.18506 0.04233 0.56800 0.04700
H 	H 	0.23362 0.20837 0.50778 0.04600
H 	H 	0.31932 0.24486 0.53868 0.05600
Co	Co	0.70064 0.28545 0.99915 1.18600
O 	O 	0.75259 0.27777 0.93824 -0.35900
Co	Co	0.60708 0.29998 0.04920 1.18900
O 	O 	0.63767 0.27033 0.95809 -0.45600
O 	O 	0.67213 0.36904 0.06940 -0.42200
O 	O 	0.68689 0.20440 0.97909 -0.34300
C 	C 	0.71076 0.39413 0.02393 0.35600
O 	O 	0.61118 0.32254 0.94545 -0.33400
C 	C 	0.51542 0.25326 0.09683 0.30900
C 	C 	0.66463 0.27154 0.12991 0.32000
O 	O 	0.55305 0.30244 0.11253 -0.35600
O 	O 	0.52958 0.23025 0.05168 -0.33700
O 	O 	0.70807 0.28303 0.10639 -0.35500
O 	O 	0.63486 0.25766 0.08158 -0.46300
O 	O 	0.73250 0.36863 0.99821 -0.51700
C 	C 	0.72818 0.22393 0.94193 0.32000
C 	C 	0.63471 0.30165 0.91646 0.31000
H 	H 	0.76729 0.39195 0.97446 0.18900
Co	Co	0.71039 0.33749 0.49600 1.18500
O 	O 	0.76922 0.34197 0.43651 -0.37100
Co	Co	0.60174 0.32121 0.54004 1.18500
O 	O 	0.64187 0.29671 0.45699 -0.45700
O 	O 	0.65586 0.40206 0.55209 -0.39800
O 	O 	0.71724 0.26788 0.49270 -0.35100
C 	C 	0.69890 0.43175 0.51455 0.36500
O 	O 	0.59721 0.32644 0.43275 -0.36300
C 	C 	0.51007 0.25718 0.58967 0.31000
C 	C 	0.67809 0.33147 0.62789 0.31800
O 	O 	0.53977 0.31073 0.59794 -0.34600
O 	O 	0.53299 0.23930 0.55231 -0.35000
O 	O 	0.72382 0.35554 0.60192 -0.35700
O 	O 	0.64610 0.30261 0.58237 -0.46000
O 	O 	0.71679 0.40800 0.47385 -0.53400
C 	C 	0.75621 0.29206 0.45038 0.32600
C 	C 	0.62880 0.31455 0.40955 0.30700
H 	H 	0.74166 0.43040 0.43430 0.17300
C 	C 	0.63911 0.29590 0.84173 -0.08700
C 	C 	0.60552 0.29525 0.79924 0.08500
C 	C 	0.62128 0.31185 0.73090 -0.02400
C 	C 	0.66453 0.31701 0.70112 -0.08200
C 	C 	0.69224 0.30516 0.74100 0.07300
C 	C 	0.68109 0.29840 0.81183 -0.01900
H 	H 	0.59815 0.31730 0.69983 0.04800
H 	H 	0.70535 0.29548 0.84363 0.04000
C 	C 	0.55068 0.26855 0.82244 -0.12900
C 	C 	0.73198 0.29709 0.70906 -0.11600
C 	C 	0.51562 0.21375 0.78399 -0.00300
H 	H 	0.52073 0.22134 0.72809 0.04700
H 	H 	0.47619 0.19841 0.80020 0.05500
C 	C 	0.78469 0.35115 0.71344 -0.00400
H 	H 	0.79576 0.35723 0.76690 0.05700
H 	H 	0.78508 0.38820 0.69922 0.06400
H 	H 	0.54262 0.25885 0.87771 0.09900
H 	H 	0.72437 0.28161 0.65574 0.07700
C 	C 	0.52366 0.16797 0.79876 -0.16800
C 	C 	0.82341 0.34878 0.66645 -0.16900
H 	H 	0.51980 0.16063 0.85460 0.08100
H 	H 	0.49511 0.12830 0.77390 0.07600
H 	H 	0.56139 0.17986 0.77811 0.07800
H 	H 	0.54074 0.29867 0.81311 0.10500
H 	H 	0.82268 0.31091 0.67722 0.10200
H 	H 	0.86145 0.38653 0.67467 0.08100
H 	H 	0.81568 0.34804 0.61224 0.07700
H 	H 	0.73020 0.26327 0.73679 0.08400
C 	C 	0.65554 0.28894 0.19846 -0.10600
C 	C 	0.69535 0.33132 0.23683 0.07900
C 	C 	0.68592 0.33485 0.30729 -0.02600
C 	C 	0.63675 0.30593 0.33660 -0.09600
C 	C 	0.59622 0.26871 0.29616 0.07000
C 	C 	0.60619 0.26012 0.22763 -0.03000
H 	H 	0.71659 0.36155 0.33914 0.03000
H 	H 	0.57542 0.22997 0.19728 0.04300
C 	C 	0.74759 0.37232 0.20296 -0.12500
C 	C 	0.54215 0.23897 0.32448 -0.11700
C 	C 	0.77709 0.43190 0.23440 -0.00600
H 	H 	0.75168 0.44144 0.26308 0.04100
H 	H 	0.79666 0.46323 0.19248 0.04300
C 	C 	0.52073 0.27308 0.31022 -0.01000
H 	H 	0.51956 0.27553 0.25424 0.04300
H 	H 	0.54513 0.31657 0.32976 0.05400
H 	H 	0.76945 0.35337 0.20243 0.09300
H 	H 	0.53833 0.23034 0.37992 0.07600
C 	C 	0.81728 0.44138 0.28010 -0.17500
C 	C 	0.46787 0.24661 0.34356 -0.17200
H 	H 	0.84656 0.43941 0.24923 0.08600
H 	H 	0.83527 0.48349 0.30408 0.07700
H 	H 	0.80103 0.40950 0.32109 0.09100
H 	H 	0.74402 0.37839 0.14898 0.07400
H 	H 	0.44302 0.20197 0.32819 0.09700
H 	H 	0.45198 0.26949 0.32736 0.08800
H 	H 	0.46899 0.24932 0.39996 0.08500
H 	H 	0.51926 0.19714 0.29978 0.06400
C 	C 	0.72525 0.49319 0.51330 -0.13400
C 	C 	0.74694 0.52551 0.57188 0.20500
C 	C 	0.77502 0.58409 0.56827 -0.10000
C 	C 	0.78208 0.61078 0.50639 -0.00600
C 	C 	0.75974 0.57836 0.44809 0.13300
C 	C 	0.73095 0.51988 0.45205 -0.02200
H 	H 	0.79222 0.60890 0.61321 0.08500
H 	H 	0.71396 0.49510 0.40699 0.06300
Cl	Cl	0.74106 0.49324 0.64933 -0.31400
Cl	Cl	0.76929 0.61052 0.36902 -0.30300
C 	C 	0.85130 0.23269 0.43050 -0.00800
C 	C 	0.82996 0.23451 0.49501 0.13600
C 	C 	0.80015 0.25555 0.50137 -0.02600
C 	C 	0.79179 0.27553 0.44388 -0.11400
C 	C 	0.81482 0.27581 0.37976 0.20200
C 	C 	0.84445 0.25441 0.37338 -0.09800
H 	H 	0.78270 0.25542 0.55088 0.06800
H 	H 	0.86103 0.25327 0.32369 0.08600
Cl	Cl	0.83947 0.20944 0.56812 -0.31600
Cl	Cl	0.80456 0.29983 0.30635 -0.33500
C 	C 	0.45530 0.22884 0.58944 -0.10800
C 	C 	0.42875 0.23964 0.64086 0.19600
C 	C 	0.37793 0.21739 0.63520 -0.09700
C 	C 	0.35327 0.18431 0.57874 -0.01000
C 	C 	0.37939 0.17213 0.52851 0.13500
C 	C 	0.42977 0.19337 0.53480 -0.03300
H 	H 	0.35772 0.22621 0.67441 0.08400
H 	H 	0.44958 0.18389 0.49572 0.07200
Cl	Cl	0.45817 0.27959 0.71346 -0.32200
Cl	Cl	0.35004 0.13244 0.45567 -0.31300
C 	C 	0.79772 0.57320 0.00700 -0.01000
C 	C 	0.78056 0.54740 0.07157 0.13200
C 	C 	0.75087 0.48892 0.07646 -0.01700
C 	C 	0.73866 0.45569 0.01737 -0.13700
C 	C 	0.75433 0.48155 0.95266 0.20200
C 	C 	0.78400 0.54009 0.94784 -0.09500
H 	H 	0.73767 0.46930 0.12629 0.06700
H 	H 	0.79642 0.55987 0.89804 0.08900
Cl	Cl	0.79598 0.58790 0.14678 -0.30600
Cl	Cl	0.73556 0.44131 0.87729 -0.33000
C 	C 	0.81029 0.14814 0.93602 -0.00900
C 	C 	0.77518 0.13728 0.99084 0.14200
C 	C 	0.74716 0.16048 0.99111 -0.02300
C 	C 	0.75430 0.19528 0.93741 -0.10800
C 	C 	0.78884 0.20526 0.88196 0.20200
C 	C 	0.81657 0.18167 0.88154 -0.09600
H 	H 	0.72088 0.15275 0.03412 0.08000
H 	H 	0.84328 0.18970 0.83897 0.08800
Cl	Cl	0.76713 0.09622 0.06068 -0.31600
Cl	Cl	0.79718 0.24641 0.81214 -0.33600
C 	C 	0.36117 0.19451 0.10312 -0.00900
C 	C 	0.37993 0.18370 0.15809 0.13600
C 	C 	0.43100 0.20502 0.15700 -0.03000
C 	C 	0.46385 0.23853 0.10252 -0.10700
C 	C 	0.44567 0.25254 0.04999 0.19800
C 	C 	0.39450 0.23038 0.05040 -0.09600
H 	H 	0.44481 0.19401 0.19739 0.05900
H 	H 	0.38037 0.23950 0.00848 0.08500
Cl	Cl	0.33990 0.14367 0.22859 -0.31300
Cl	Cl	0.48640 0.29649 0.98227 -0.31800
