data_crystal

_cell_length_a 18.27464
_cell_length_b 18.89814
_cell_length_c 39.54239
_cell_angle_alpha 95.41852
_cell_angle_beta  95.41827
_cell_angle_gamma 126.41982

_symmetry_space_group_name_	'P 1'
_symmetry_space_group_name_H-M	'P 1'

loop_
_symmetry_equiv_pos_as_xyz
  x,y,z

loop_
_atom_site_label
_atom_site_type_symbol
_atom_site_fract_x
_atom_site_fract_y
_atom_site_fract_z
_atom_site_charge
C 	C 	0.89042 0.98480 0.96541 0.17500
N 	N 	0.84498 0.89551 0.96501 -0.12900
C 	C 	0.89157 0.86007 0.96248 0.15100
N 	N 	0.98286 0.91395 0.96101 -0.12800
C 	C 	0.02807 0.00263 0.96196 0.15400
N 	N 	0.98178 0.03785 0.96389 -0.14200
C 	C 	0.94087 0.02357 0.50327 0.12100
N 	N 	0.03102 0.07503 0.49959 -0.10900
C 	C 	0.07894 0.04106 0.50102 0.13800
N 	N 	0.03600 0.95514 0.50505 -0.11400
C 	C 	0.94578 0.90333 0.50803 0.14100
N 	N 	0.89874 0.93797 0.50771 -0.11500
Cu	Cu	0.75456 0.34047 0.96533 0.93000
Cu	Cu	0.74815 0.28512 0.04195 0.87700
Cu	Cu	0.60661 0.29821 0.00773 0.90300
Cu	Cu	0.58137 0.32940 0.93612 0.90500
C 	C 	0.69403 0.30845 0.89192 0.29400
O 	O 	0.80548 0.46988 0.96208 -0.34800
C 	C 	0.67068 0.34613 0.08401 0.29400
O 	O 	0.61033 0.26600 0.96066 -0.63600
O 	O 	0.74253 0.36021 0.01372 -0.64100
O 	O 	0.81563 0.28105 0.97191 -0.34900
O 	O 	0.71775 0.19243 0.00630 -0.42700
O 	O 	0.65312 0.34565 0.89852 -0.37300
O 	O 	0.47346 0.23034 0.99948 -0.37000
C 	C 	0.42167 0.22199 0.97138 0.31300
C 	C 	0.76170 0.50225 0.97163 0.29600
O 	O 	0.67570 0.44711 0.97565 -0.37700
O 	O 	0.45780 0.27486 0.94859 -0.36800
O 	O 	0.74240 0.30285 0.91705 -0.34200
C 	C 	0.77542 0.20795 0.98544 0.30400
O 	O 	0.60188 0.31204 0.05747 -0.37300
O 	O 	0.74426 0.35036 0.08065 -0.40700
H 	H 	0.57146 0.20075 0.95168 0.18600
H 	H 	0.78029 0.42379 0.02524 0.19000
Cu	Cu	0.60897 0.19296 0.50255 0.93200
Cu	Cu	0.67341 0.20900 0.42731 0.88400
Cu	Cu	0.67984 0.35340 0.46736 0.90100
Cu	Cu	0.64722 0.36975 0.53982 0.90200
C 	C 	0.65130 0.24254 0.57639 0.29100
O 	O 	0.48222 0.15963 0.50582 -0.34400
C 	C 	0.63727 0.31098 0.39047 0.29200
O 	O 	0.70285 0.33366 0.51263 -0.63700
O 	O 	0.60013 0.22026 0.45614 -0.64100
O 	O 	0.64809 0.11680 0.49129 -0.35400
O 	O 	0.75664 0.21513 0.46218 -0.42600
O 	O 	0.61867 0.28830 0.57335 -0.37300
O 	O 	0.76296 0.48193 0.48085 -0.37200
C 	C 	0.75864 0.52912 0.50629 0.31100
C 	C 	0.46010 0.21203 0.49837 0.29900
O 	O 	0.52538 0.29749 0.49932 -0.38600
O 	O 	0.72567 0.49691 0.53402 -0.36800
O 	O 	0.63877 0.18692 0.54956 -0.35000
C 	C 	0.72615 0.15104 0.48015 0.30800
O 	O 	0.67550 0.37246 0.41910 -0.37600
O 	O 	0.62058 0.23283 0.39049 -0.40200
H 	H 	0.76872 0.36226 0.52178 0.17800
H 	H 	0.53663 0.19270 0.44400 0.19600
C 	C 	0.70665 0.29577 0.85630 -0.07200
C 	C 	0.67898 0.21216 0.83988 0.02300
C 	C 	0.68358 0.19835 0.80495 -0.05700
C 	C 	0.71623 0.26822 0.78642 0.04500
C 	C 	0.74689 0.35253 0.80316 -0.06000
C 	C 	0.74201 0.36627 0.83794 0.02400
C 	C 	0.71216 0.25221 0.74970 -0.00900
C 	C 	0.71032 0.24287 0.71897 -0.01000
C 	C 	0.70760 0.23597 0.68222 0.04700
C 	C 	0.77042 0.31230 0.66898 -0.06100
C 	C 	0.75584 0.31224 0.63363 0.02000
C 	C 	0.67871 0.23558 0.61126 -0.07800
C 	C 	0.61987 0.15700 0.62412 0.02700
C 	C 	0.63409 0.15732 0.65958 -0.06200
H 	H 	0.65133 0.15726 0.85380 0.05700
H 	H 	0.65988 0.13298 0.79218 0.06300
H 	H 	0.77264 0.40694 0.78903 0.06200
H 	H 	0.76456 0.43137 0.85051 0.04700
H 	H 	0.82785 0.37315 0.68628 0.06100
H 	H 	0.80203 0.37304 0.62390 0.03300
H 	H 	0.56028 0.09730 0.60702 0.04800
H 	H 	0.58553 0.09780 0.66958 0.06200
C 	C 	0.62392 0.33421 0.35708 -0.08100
C 	C 	0.69159 0.41911 0.35004 0.02000
C 	C 	0.68935 0.43487 0.31622 -0.06300
C 	C 	0.61921 0.36616 0.28934 0.04500
C 	C 	0.54765 0.28382 0.29681 -0.06400
C 	C 	0.54991 0.26784 0.33055 0.02200
C 	C 	0.62736 0.37563 0.25389 -0.01200
C 	C 	0.63286 0.38211 0.22403 -0.01200
C 	C 	0.64036 0.38660 0.18825 0.04500
C 	C 	0.72790 0.44023 0.17926 -0.06400
C 	C 	0.73732 0.43122 0.14475 0.02200
C 	C 	0.65914 0.36804 0.11899 -0.08000
C 	C 	0.57080 0.31901 0.12778 0.02100
C 	C 	0.56159 0.32814 0.16231 -0.06300
H 	H 	0.74855 0.47126 0.37034 0.04500
H 	H 	0.74441 0.49908 0.31069 0.06000
H 	H 	0.49248 0.23077 0.27622 0.05800
H 	H 	0.49614 0.20272 0.33581 0.04500
H 	H 	0.78906 0.48628 0.19914 0.05800
H 	H 	0.80565 0.47112 0.13823 0.04300
H 	H 	0.50972 0.27073 0.10816 0.04700
H 	H 	0.49358 0.28691 0.16905 0.06000
C 	C 	0.92655 0.78039 0.53399 -0.05500
C 	C 	0.89675 0.80766 0.50780 -0.01100
C 	C 	0.82240 0.74317 0.48076 0.07500
C 	C 	0.77786 0.65214 0.48053 -0.01100
C 	C 	0.80737 0.62484 0.50679 -0.08400
C 	C 	0.88278 0.68936 0.53351 0.11600
N 	N 	0.91656 0.66270 0.55965 -0.02200
H 	H 	0.98461 0.83000 0.55451 0.08100
H 	H 	0.72050 0.60257 0.45978 0.06300
N 	N 	0.79329 0.77002 0.45313 -0.01900
O 	O 	0.94741 0.61803 0.55110 -0.10000
O 	O 	0.92336 0.68926 0.59214 -0.09300
O 	O 	0.85004 0.81704 0.43302 -0.09300
O 	O 	0.70806 0.74198 0.44653 -0.09000
C 	C 	0.86594 0.17238 0.50902 -0.00300
C 	C 	0.77883 0.11684 0.48724 -0.09400
C 	C 	0.74456 0.03041 0.47109 0.11000
C 	C 	0.79806 0.00066 0.47664 -0.08000
C 	C 	0.88563 0.05631 0.49826 0.00300
C 	C 	0.91896 0.14213 0.51508 0.05800
N 	N 	0.00488 0.19739 0.53922 -0.01000
H 	H 	0.89194 0.23865 0.52171 0.05600
H 	H 	0.77221 0.93475 0.46356 0.10500
N 	N 	0.65618 0.97329 0.44844 -0.01600
O 	O 	0.06914 0.27823 0.53512 -0.07600
O 	O 	0.01528 0.17021 0.56703 -0.07200
O 	O 	0.64185 0.99699 0.42022 -0.11300
O 	O 	0.59289 0.89433 0.45448 -0.07800
C 	C 	0.20078 0.06219 0.47038 -0.05600
C 	C 	0.17577 0.09524 0.49646 -0.01000
C 	C 	0.24511 0.17378 0.52054 0.07500
C 	C 	0.33852 0.21566 0.51927 -0.00900
C 	C 	0.36332 0.17844 0.49483 -0.08500
C 	C 	0.29413 0.10341 0.46946 0.11200
N 	N 	0.31847 0.06932 0.44255 -0.03300
H 	H 	0.14760 0.00302 0.45131 0.07700
H 	H 	0.39177 0.27415 0.53859 0.05700
N 	N 	0.22121 0.20817 0.54754 -0.01700
O 	O 	0.29367 0.98842 0.43978 -0.07700
O 	O 	0.35794 0.11607 0.41903 -0.11500
O 	O 	0.18294 0.16207 0.57138 -0.07900
O 	O 	0.24742 0.28960 0.55055 -0.07500
C 	C 	0.82884 0.62959 0.94020 -0.01500
C 	C 	0.80102 0.59647 0.97052 -0.08200
C 	C 	0.79455 0.64740 0.99692 0.11000
C 	C 	0.81549 0.73021 0.99257 -0.05100
C 	C 	0.84484 0.76397 0.96249 -0.01200
C 	C 	0.84926 0.71209 0.93580 0.07400
N 	N 	0.87466 0.74320 0.90413 -0.01900
H 	H 	0.83088 0.58954 0.91935 0.06600
H 	H 	0.81365 0.77038 0.01344 0.08500
N 	N 	0.76863 0.61611 0.02851 -0.02200
O 	O 	0.93759 0.74257 0.89157 -0.09300
O 	O 	0.83210 0.76856 0.88709 -0.08900
O 	O 	0.81441 0.59553 0.04667 -0.11100
O 	O 	0.70316 0.61370 0.04022 -0.09300
C 	C 	0.83060 0.12597 0.00858 -0.01600
C 	C 	0.80091 0.14711 0.97985 -0.08500
C 	C 	0.78874 0.10451 0.94628 0.11100
C 	C 	0.81087 0.04491 0.94182 -0.04800
C 	C 	0.84364 0.02619 0.97056 -0.03100
C 	C 	0.85155 0.06561 0.00414 0.07800
N 	N 	0.88421 0.04706 0.03384 -0.02600
H 	H 	0.83774 0.15668 0.03449 0.04400
H 	H 	0.80474 0.01495 0.91592 0.07200
N 	N 	0.75190 0.11978 0.91674 -0.02100
O 	O 	0.95323 0.11258 0.05729 -0.09100
O 	O 	0.84168 0.96493 0.03840 -0.07600
O 	O 	0.79884 0.15014 0.89211 -0.09500
O 	O 	0.66850 0.09673 0.91319 -0.10600
C 	C 	0.16565 0.04937 0.93655 -0.07200
C 	C 	0.12845 0.06134 0.96395 -0.00800
C 	C 	0.18782 0.12562 0.99402 0.07500
C 	C 	0.28375 0.17753 0.99628 -0.00600
C 	C 	0.32103 0.16522 0.96895 -0.08600
C 	C 	0.26163 0.10066 0.93893 0.11800
N 	N 	0.29858 0.08568 0.91115 -0.02500
H 	H 	0.11997 0.99907 0.91360 0.10300
H 	H 	0.32934 0.22733 0.01935 0.06800
N 	N 	0.15086 0.13700 0.02259 -0.01800
O 	O 	0.35154 0.06161 0.91666 -0.11100
O 	O 	0.27359 0.08943 0.87987 -0.09500
O 	O 	0.10323 0.07178 0.03916 -0.08100
O 	O 	0.17031 0.21449 0.03354 -0.08300
