data_crystal

_cell_length_a 18.56236
_cell_length_b 18.99801
_cell_length_c 26.55725
_cell_angle_alpha 95.39101
_cell_angle_beta  95.39156
_cell_angle_gamma 126.35886

_symmetry_space_group_name_	'P 1'
_symmetry_space_group_name_H-M	'P 1'

loop_
_symmetry_equiv_pos_as_xyz
  x,y,z

loop_
_atom_site_label
_atom_site_type_symbol
_atom_site_fract_x
_atom_site_fract_y
_atom_site_fract_z
_atom_site_charge
C 	C 	0.96081 0.06785 0.99765 0.03100
C 	C 	0.92104 0.97901 0.00124 -0.04300
C 	C 	0.97059 0.94578 0.99681 0.04000
C 	C 	0.06201 0.00238 0.99248 -0.05600
C 	C 	0.10455 0.09254 0.99240 0.05600
C 	C 	0.05339 0.12519 0.99337 -0.04500
H 	H 	0.85014 0.93470 0.00497 0.07000
H 	H 	0.10058 0.97656 0.98990 0.07400
H 	H 	0.08498 0.19397 0.99058 0.07500
C 	C 	0.88036 0.95375 0.44566 0.09300
C 	C 	0.82906 0.86086 0.44304 -0.08700
C 	C 	0.87408 0.82183 0.44808 0.09000
C 	C 	0.96925 0.87583 0.45651 -0.12600
C 	C 	0.01964 0.96703 0.45706 0.12400
C 	C 	0.97535 0.00575 0.45094 -0.13000
H 	H 	0.75546 0.81983 0.43782 0.08600
H 	H 	0.00411 0.84630 0.46125 0.09200
H 	H 	0.01493 0.07680 0.45186 0.09900
Cu	Cu	0.64462 0.25723 0.01852 0.92700
Cu	Cu	0.68222 0.21500 0.90303 0.87900
Cu	Cu	0.70188 0.39115 0.94612 0.90900
Cu	Cu	0.65738 0.43039 0.04492 0.90400
C 	C 	0.67651 0.33830 0.12510 0.29400
O 	O 	0.51215 0.20849 0.01746 -0.32900
C 	C 	0.69150 0.33588 0.84184 0.29400
O 	O 	0.72329 0.39469 0.01841 -0.64000
O 	O 	0.63030 0.26012 0.94322 -0.63500
O 	O 	0.70842 0.20009 0.02324 -0.35200
O 	O 	0.65281 0.12544 0.94040 -0.40000
O 	O 	0.64422 0.38000 0.10869 -0.36500
O 	O 	0.77750 0.51831 0.95198 -0.36400
C 	C 	0.77423 0.57121 0.98596 0.30500
C 	C 	0.48072 0.24995 0.99995 0.29300
O 	O 	0.53696 0.32886 0.98867 -0.38000
O 	O 	0.71009 0.53926 0.01416 -0.37200
O 	O 	0.67306 0.27809 0.09290 -0.34600
C 	C 	0.70293 0.14603 0.98528 0.29500
O 	O 	0.67163 0.37792 0.87248 -0.35900
O 	O 	0.73516 0.30704 0.86146 -0.42000
H 	H 	0.78852 0.43202 0.03461 0.16500
H 	H 	0.56604 0.22903 0.92688 0.16700
Cu	Cu	0.72405 0.29658 0.43747 0.92600
Cu	Cu	0.73801 0.24229 0.55012 0.89000
Cu	Cu	0.59179 0.25296 0.51289 0.89900
Cu	Cu	0.53826 0.27166 0.40392 0.90700
C 	C 	0.65078 0.27687 0.33237 0.29100
O 	O 	0.77614 0.42575 0.43538 -0.34100
C 	C 	0.67416 0.30134 0.62398 0.29100
O 	O 	0.58317 0.22099 0.44058 -0.63100
O 	O 	0.72454 0.31714 0.51247 -0.63500
O 	O 	0.78486 0.23657 0.43785 -0.35100
O 	O 	0.70020 0.15166 0.49380 -0.41700
O 	O 	0.56724 0.24128 0.33946 -0.36300
O 	O 	0.46107 0.18163 0.50867 -0.37000
C 	C 	0.40598 0.17678 0.47090 0.31300
C 	C 	0.72740 0.45478 0.44000 0.29400
O 	O 	0.64531 0.40206 0.45013 -0.38100
O 	O 	0.43762 0.23706 0.44137 -0.37200
O 	O 	0.70460 0.26827 0.36302 -0.34500
C 	C 	0.75422 0.16767 0.46087 0.30700
O 	O 	0.60118 0.26845 0.58857 -0.37600
O 	O 	0.74427 0.30608 0.61241 -0.39900
H 	H 	0.54779 0.15601 0.42882 0.18000
H 	H 	0.76223 0.38041 0.52953 0.17900
C 	C 	0.75035 0.40345 0.76588 -0.03500
C 	C 	0.67910 0.33438 0.78606 -0.08700
C 	C 	0.59995 0.26054 0.75230 0.10700
C 	C 	0.59691 0.25372 0.69887 -0.03900
C 	C 	0.67104 0.31974 0.67876 -0.08700
C 	C 	0.74613 0.39781 0.71238 0.11600
N 	N 	0.81303 0.46810 0.69359 -0.19700
H 	H 	0.80963 0.46139 0.79185 0.06000
H 	H 	0.53812 0.19514 0.67303 0.05800
N 	N 	0.52714 0.19570 0.77085 -0.20000
H 	H 	0.87005 0.52404 0.71861 0.10000
H 	H 	0.80696 0.46978 0.65431 0.09900
H 	H 	0.52571 0.20052 0.81018 0.07900
H 	H 	0.46983 0.14032 0.74568 0.09600
C 	C 	0.71737 0.28242 0.25378 -0.03500
C 	C 	0.67607 0.30923 0.28362 -0.07400
C 	C 	0.65051 0.35988 0.26415 0.12200
C 	C 	0.65551 0.37252 0.21314 -0.03400
C 	C 	0.68981 0.33941 0.18163 -0.07700
C 	C 	0.72935 0.30185 0.20391 0.12000
N 	N 	0.78409 0.29071 0.17959 -0.19500
H 	H 	0.74119 0.24745 0.26945 0.06900
H 	H 	0.63146 0.40748 0.19783 0.07000
N 	N 	0.62216 0.39752 0.29446 -0.19300
H 	H 	0.80703 0.25671 0.19426 0.10600
H 	H 	0.81155 0.32311 0.14917 0.10700
H 	H 	0.62873 0.39959 0.33411 0.08200
H 	H 	0.59860 0.43050 0.27896 0.10200
C 	C 	0.83384 0.67959 0.40185 -0.07400
C 	C 	0.82280 0.72401 0.44219 -0.01800
C 	C 	0.78314 0.68025 0.48277 0.09100
C 	C 	0.75590 0.59380 0.48280 -0.02100
C 	C 	0.77002 0.55071 0.44339 -0.09300
C 	C 	0.81178 0.59542 0.40347 0.13200
Br	Br	0.84620 0.54666 0.35310 -0.23400
H 	H 	0.86600 0.71343 0.37103 0.07600
H 	H 	0.72394 0.56015 0.51371 0.06400
Br	Br	0.76928 0.73874 0.53975 -0.21600
C 	C 	0.85280 0.04895 0.49720 -0.08100
C 	C 	0.83712 0.99889 0.44954 -0.00400
C 	C 	0.79716 0.00728 0.40488 0.08100
C 	C 	0.77355 0.06539 0.40842 -0.01100
C 	C 	0.79093 0.11659 0.45610 -0.10100
C 	C 	0.83264 0.10936 0.50047 0.14700
Br	Br	0.86940 0.18642 0.56525 -0.30100
H 	H 	0.88556 0.04457 0.53147 0.08900
H 	H 	0.74080 0.06983 0.37419 0.06700
Br	Br	0.77560 0.94111 0.33874 -0.21100
C 	C 	0.15463 0.01342 0.41870 -0.07000
C 	C 	0.11883 0.02104 0.46122 -0.02700
C 	C 	0.17761 0.07493 0.50833 0.09500
C 	C 	0.27169 0.12263 0.51200 -0.01500
C 	C 	0.30755 0.11662 0.46903 -0.09500
C 	C 	0.24841 0.06013 0.42253 0.13900
Br	Br	0.29448 0.04369 0.36434 -0.24300
H 	H 	0.10928 0.97024 0.38277 0.08300
H 	H 	0.31701 0.16595 0.54790 0.07100
Br	Br	0.13056 0.08356 0.56807 -0.20500
C 	C 	0.86980 0.79196 0.94675 -0.08300
C 	C 	0.92498 0.85027 0.99328 -0.00500
C 	C 	0.93597 0.81697 0.03606 0.08200
C 	C 	0.89011 0.72557 0.03227 -0.00600
C 	C 	0.83256 0.66685 0.98625 -0.10700
C 	C 	0.82314 0.70044 0.94307 0.14800
Br	Br	0.74311 0.62230 0.87963 -0.21200
H 	H 	0.86195 0.81775 0.91366 0.08100
H 	H 	0.89719 0.69983 0.06559 0.05200
Br	Br	0.01073 0.89504 0.10047 -0.19100
C 	C 	0.82447 0.04761 0.95265 -0.09000
C 	C 	0.90179 0.09641 0.99204 -0.00200
C 	C 	0.91172 0.15926 0.03077 0.07800
C 	C 	0.84579 0.17390 0.02890 -0.01000
C 	C 	0.76668 0.12255 0.99038 -0.11200
C 	C 	0.75412 0.05513 0.95395 0.13600
Br	Br	0.63725 0.96316 0.91164 -0.22200
H 	H 	0.81531 0.99772 0.92344 0.08100
H 	H 	0.85600 0.22488 0.05766 0.06100
Br	Br	0.01199 0.22255 0.08795 -0.20000
C 	C 	0.32960 0.19318 0.95122 -0.01600
C 	C 	0.38457 0.21283 0.99837 -0.10100
C 	C 	0.35045 0.20732 0.04427 0.14700
C 	C 	0.26119 0.17903 0.04231 -0.06900
C 	C 	0.20391 0.15271 0.99486 -0.00900
C 	C 	0.23956 0.16293 0.94926 0.08600
Br	Br	0.16505 0.13266 0.88382 -0.21200
H 	H 	0.35651 0.20056 0.91597 0.06100
H 	H 	0.23430 0.17172 0.07756 0.08900
Br	Br	0.42388 0.23690 0.11005 -0.21900
