data_crystal

_cell_length_a 16.13378
_cell_length_b 15.87909
_cell_length_c 38.21438
_cell_angle_alpha 89.87782
_cell_angle_beta  89.88024
_cell_angle_gamma 119.40798

_symmetry_space_group_name_	'P 1'
_symmetry_space_group_name_H-M	'P 1'

loop_
_symmetry_equiv_pos_as_xyz
  x,y,z

loop_
_atom_site_label
_atom_site_type_symbol
_atom_site_fract_x
_atom_site_fract_y
_atom_site_fract_z
_atom_site_charge
Ni	Ni	0.05517 0.94528 0.76590 1.09700
Ni	Ni	0.03845 0.14143 0.75642 1.12400
O 	O 	0.07164 0.20092 0.27104 -0.34700
C 	C 	0.05526 0.62649 0.52774 0.05600
F 	F 	0.02236 0.63867 0.41384 -0.42900
F 	F 	0.09249 0.78867 0.43710 -0.41500
F 	F 	0.02591 0.60671 0.60035 -0.42800
C 	C 	0.09659 0.46630 0.93182 0.06500
H 	H 	0.11249 0.47236 0.90406 0.09500
Br	Br	0.04784 0.34819 0.76767 -0.20600
Br	Br	0.11854 0.90816 0.86849 -0.14300
C 	C 	0.18664 0.12536 0.80014 0.34500
C 	C 	0.16901 0.11166 0.71085 0.33200
O 	O 	0.12169 0.03737 0.80663 -0.33100
O 	O 	0.16527 0.18315 0.78201 -0.33300
O 	O 	0.16271 0.03673 0.72941 -0.30000
O 	O 	0.10361 0.13816 0.71240 -0.35400
C 	C 	0.15423 0.66295 0.47453 0.33100
O 	O 	0.15428 0.58375 0.46449 -0.34600
C 	C 	0.20497 0.58801 0.01590 0.32200
O 	O 	0.24106 0.53924 0.02975 -0.35100
C 	C 	0.10968 0.16820 0.19185 0.34200
C 	C 	0.10513 0.17114 0.29693 0.31100
C 	C 	0.03416 0.86633 0.19906 0.29600
C 	C 	0.01205 0.86169 0.29345 0.26700
Ni	Ni	0.10374 0.03098 0.24560 1.13900
O 	O 	0.08472 0.96101 0.20057 -0.37500
O 	O 	0.15447 0.15678 0.21859 -0.34000
O 	O 	0.08226 0.91098 0.27116 -0.38100
O 	O 	0.13599 0.10900 0.29071 -0.32600
C 	C 	0.19070 0.25042 0.09817 0.10700
C 	C 	0.16584 0.22507 0.16137 -0.09100
C 	C 	0.13667 0.19208 0.12674 0.11600
Br	Br	0.15569 0.20793 0.05090 0.03600
C 	C 	0.10749 0.67214 0.18218 0.12000
C 	C 	0.06037 0.72008 0.19645 0.07900
C 	C 	0.07673 0.80989 0.18220 -0.07000
C 	C 	0.13717 0.84715 0.15257 0.10900
Br	Br	0.18808 0.97962 0.13750 -0.13000
Br	Br	0.09668 0.55875 0.20509 -0.13400
C 	C 	0.08226 0.28500 0.38007 0.10200
C 	C 	0.15810 0.37885 0.37453 -0.10300
C 	C 	0.13416 0.22867 0.32937 -0.07200
C 	C 	0.06673 0.21130 0.35616 0.08600
C 	C 	0.18235 0.87109 0.35638 0.13500
C 	C 	0.10971 0.88983 0.34604 0.07600
C 	C 	0.03541 0.82359 0.32491 -0.05200
C 	C 	0.01671 0.72763 0.32485 0.08800
C 	C 	0.06921 0.65391 0.49251 -0.03100
H 	H 	0.11407 0.63058 0.54277 0.08800
Br	Br	0.00287 0.12522 0.64230 -0.14100
C 	C 	0.12815 0.53727 0.99047 -0.00200
C 	C 	0.15091 0.54549 0.95415 -0.08400
C 	C 	0.23847 0.63320 0.93979 0.78000
F 	F 	0.22792 0.64570 0.90453 -0.41200
O 	O 	0.19658 0.63948 0.10006 -0.35400
C 	C 	0.15911 0.70505 0.15057 -0.09500
Br	Br	0.13113 0.98368 0.64253 -0.11100
C 	C 	0.25429 0.30865 0.16653 0.11600
Br	Br	0.28798 0.37368 0.21087 -0.12900
C 	C 	0.16505 0.78853 0.13422 0.11500
C 	C 	0.01146 0.69884 0.43723 0.71700
Br	Br	0.10704 0.00086 0.36350 -0.03000
C 	C 	0.04913 0.45159 0.00257 0.08000
C 	C 	0.08927 0.70697 0.33448 0.14000
Br	Br	0.07134 0.74274 0.93154 -0.08300
C 	C 	0.17415 0.45685 0.39923 0.34500
Br	Br	0.29114 0.96891 0.38120 -0.09500
O 	O 	0.22855 0.67546 0.02764 -0.29800
C 	C 	0.23194 0.75125 0.37153 0.35600
Ni	Ni	0.27388 0.57367 0.46254 1.13100
O 	O 	0.19299 0.53947 0.38650 -0.33900
O 	O 	0.20248 0.45367 0.43121 -0.34500
O 	O 	0.22499 0.75191 0.40542 -0.31500
O 	O 	0.23432 0.74573 0.47574 -0.34000
C 	C 	0.20253 0.64992 0.13363 0.33600
C 	C 	0.28254 0.42633 0.08701 0.33200
O 	O 	0.26985 0.64035 0.14981 -0.32100
O 	O 	0.25928 0.48076 0.10505 -0.35700
O 	O 	0.34068 0.46421 0.05989 -0.31500
C 	C 	0.27314 0.33897 0.10460 -0.07800
C 	C 	0.31397 0.35144 0.13795 0.08100
Br	Br	0.19679 0.81715 0.08529 -0.20200
C 	C 	0.22173 0.39603 0.34622 0.11300
C 	C 	0.21833 0.31724 0.32885 0.11000
C 	C 	0.17315 0.77932 0.35046 -0.08600
Br	Br	0.07334 0.58056 0.32591 -0.11200
F 	F 	0.22368 0.87304 0.58242 -0.40400
C 	C 	0.22017 0.11885 0.64922 0.15300
C 	C 	0.24210 0.15712 0.68328 -0.08600
Br	Br	0.21630 0.13804 0.57375 0.01500
F 	F 	0.31677 0.62062 0.94399 -0.42500
F 	F 	0.25419 0.71637 0.95691 -0.42500
C 	C 	0.28657 0.15737 0.81063 -0.09600
Br	Br	0.26008 0.97031 0.78717 -0.22800
H 	H 	0.28123 0.78669 0.54522 0.09300
H 	H 	0.03458 0.44141 0.03045 0.07900
F 	F 	0.34936 0.34545 0.00703 -0.41200
Ni	Ni	0.33524 0.78869 0.43801 1.13600
O 	O 	0.29304 0.73010 0.35687 -0.32900
O 	O 	0.33480 0.66325 0.50476 -0.32900
Ni	Ni	0.30843 0.73496 0.07194 1.14000
Ni	Ni	0.37812 0.59797 0.03792 1.14200
Br	Br	0.32707 0.33187 0.30313 -0.09100
Br	Br	0.28793 0.52030 0.32340 -0.22000
C 	C 	0.31306 0.95250 0.57753 0.70900
F 	F 	0.30851 0.00862 0.55072 -0.35700
H 	H 	0.31656 0.32938 0.42753 0.09000
F 	F 	0.28906 0.16026 0.43102 -0.40000
C 	C 	0.31461 0.25412 0.68769 0.10800
C 	C 	0.26425 0.17938 0.62018 0.11200
Br	Br	0.35199 0.30676 0.73373 -0.13300
C 	C 	0.32094 0.09026 0.81262 0.16000
Br	Br	0.30068 0.34217 0.82893 -0.08400
F 	F 	0.32077 0.18649 0.48854 -0.39300
Ni	Ni	0.36766 0.60946 0.12261 1.12400
C 	C 	0.40771 0.52359 0.42695 0.30000
C 	C 	0.40141 0.75702 0.50482 0.31300
Ni	Ni	0.33391 0.63845 0.38163 1.13700
O 	O 	0.42884 0.80934 0.47573 -0.33400
O 	O 	0.37567 0.53533 0.39602 -0.30600
O 	O 	0.38461 0.54888 0.45707 -0.32000
O 	O 	0.33879 0.67359 0.42852 -0.72400
H 	H 	0.40581 0.69413 0.43384 0.19800
O 	O 	0.47432 0.57183 0.10775 -0.30600
O 	O 	0.41899 0.71786 0.00629 -0.27200
O 	O 	0.41386 0.83188 0.04284 -0.33400
O 	O 	0.37830 0.81526 0.11642 -0.32600
O 	O 	0.37370 0.66462 0.07826 -0.72200
H 	H 	0.43907 0.71916 0.07783 0.19200
Br	Br	0.44593 0.39038 0.14296 -0.11600
Br	Br	0.41011 0.84754 0.21446 -0.14000
C 	C 	0.35568 0.83253 0.55152 0.05000
C 	C 	0.42315 0.80970 0.53809 0.01500
C 	C 	0.38542 0.92178 0.56809 -0.06100
F 	F 	0.33859 0.00533 0.60822 -0.38500
C 	C 	0.39184 0.36135 0.43324 0.05800
C 	C 	0.36100 0.19851 0.45565 0.78300
F 	F 	0.41030 0.14775 0.45392 -0.39900
C 	C 	0.36122 0.31211 0.65831 0.10300
C 	C 	0.34492 0.27039 0.62498 -0.08500
H 	H 	0.40201 0.89955 0.97064 0.14000
F 	F 	0.38015 0.04486 0.97957 -0.36500
H 	H 	0.44617 0.39515 0.06828 0.10200
C 	C 	0.43000 0.33799 0.00103 0.78700
F 	F 	0.41685 0.25281 0.01585 -0.36600
F 	F 	0.43979 0.33423 0.96519 -0.39600
C 	C 	0.40764 0.11680 0.82981 0.11200
C 	C 	0.34827 0.25416 0.81966 0.12600
Br	Br	0.43400 0.01819 0.84670 -0.01300
C 	C 	0.45455 0.80944 0.01731 0.29200
C 	C 	0.42773 0.29465 0.60256 0.34600
O 	O 	0.43729 0.86363 0.40008 -0.32800
C 	C 	0.45711 0.82209 0.13132 0.31700
O 	O 	0.46718 0.74544 0.13677 -0.33600
C 	C 	0.42715 0.30497 0.44881 -0.08000
F 	F 	0.46686 0.09670 0.93008 -0.41200
C 	C 	0.50747 0.44455 0.05315 0.05000
C 	C 	0.44400 0.28391 0.82605 0.11400
C 	C 	0.47168 0.09266 0.96609 0.77300
O 	O 	0.45919 0.23375 0.60175 -0.34000
C 	C 	0.52539 0.59489 0.07784 0.30900
O 	O 	0.51108 0.64337 0.05326 -0.30700
C 	C 	0.48389 0.98653 0.57155 -0.03500
C 	C 	0.45135 0.46113 0.42862 0.01900
Br	Br	0.44639 0.44867 0.66361 -0.11600
C 	C 	0.47675 0.93905 0.97753 -0.01000
C 	C 	0.51484 0.42271 0.01805 -0.07500
C 	C 	0.47097 0.21509 0.83646 -0.06800
O 	O 	0.47942 0.38220 0.58924 -0.33100
O 	O 	0.47132 0.74871 0.37694 -0.31600
O 	O 	0.51091 0.32661 0.52288 -0.32900
C 	C 	0.49837 0.83857 0.38620 0.32500
C 	C 	0.52152 0.90783 0.15124 -0.08200
C 	C 	0.52424 0.89238 0.18711 0.10900
Br	Br	0.49587 0.99798 0.33365 -0.13100
C 	C 	0.51826 0.86326 0.54947 -0.07900
C 	C 	0.52531 0.04029 0.97604 -0.01900
C 	C 	0.51775 0.89010 0.99431 0.06700
F 	F 	0.51650 0.18554 0.97925 -0.40200
C 	C 	0.56917 0.53705 0.06615 0.02800
C 	C 	0.52012 0.09110 0.57446 0.36500
F 	F 	0.54492 0.72977 0.54076 -0.41100
C 	C 	0.52182 0.35096 0.46108 0.00800
Br	Br	0.53724 0.41806 0.82016 -0.14700
O 	O 	0.02135 0.14991 0.19544 -0.34500
Br	Br	0.02807 0.06696 0.11847 -0.05000
C 	C 	0.54694 0.24446 0.86307 0.34200
O 	O 	0.55374 0.31012 0.88523 -0.31200
C 	C 	0.54527 0.31623 0.49331 0.32400
O 	O 	0.53867 0.14202 0.54570 -0.31600
C 	C 	0.54881 0.95346 0.56535 0.01800
C 	C 	0.55054 0.50142 0.43345 -0.08500
O 	O 	0.55640 0.13394 0.60437 -0.32800
C 	C 	0.01144 0.38807 0.94392 0.00100
C 	C 	0.58925 0.82971 0.54155 0.77900
C 	C 	0.59088 0.91334 0.37272 -0.08400
C 	C 	0.58514 0.44508 0.44957 0.06000
F 	F 	0.01068 0.25058 0.01260 -0.41500
Ni	Ni	0.59068 0.27311 0.61658 1.13800
Br	Br	0.58758 0.80543 0.23945 -0.13800
C 	C 	0.59340 0.96430 0.34211 0.11600
F 	F 	0.59097 0.63693 0.39625 -0.42100
C 	C 	0.60091 0.48080 0.99966 0.00800
Ni	Ni	0.59746 0.42099 0.55894 1.13400
C 	C 	0.60369 0.88887 0.20051 0.09900
Br	Br	0.60842 0.03290 0.09199 -0.02300
C 	C 	0.60831 0.97090 0.13520 0.09000
C 	C 	0.00239 0.37221 0.98015 -0.14600
F 	F 	0.61556 0.66087 0.45440 -0.40300
O 	O 	0.61702 0.29898 0.49341 -0.31400
C 	C 	0.61763 0.60743 0.42624 0.77800
Br	Br	0.61619 0.15220 0.67843 -0.14700
C 	C 	0.61681 0.94069 0.00100 -0.14500
Br	Br	0.61695 0.23502 0.77166 -0.10500
O 	O 	0.61912 0.22462 0.85870 -0.31800
O 	O 	0.61868 0.40039 0.64051 -0.33600
H 	H 	0.62389 0.00092 0.57031 0.12500
C 	C 	0.62493 0.09146 0.98096 0.00500
C 	C 	0.62813 0.43907 0.97038 0.32000
F 	F 	0.63141 0.86615 0.50947 -0.40800
F 	F 	0.62991 0.79810 0.00077 -0.40700
Br	Br	0.99532 0.25918 0.41862 -0.05400
Br	Br	0.88742 0.62517 0.32112 -0.02000
C 	C 	0.99444 0.65510 0.47355 0.00300
Br	Br	0.95422 0.08886 0.36041 -0.07500
C 	C 	0.96386 0.58369 0.54260 -0.06500
C 	C 	0.95010 0.54471 0.57964 0.80600
O 	O 	0.98113 0.00449 0.75787 -0.64100
H 	H 	0.97371 0.99152 0.73258 0.12600
F 	F 	0.94514 0.45535 0.57931 -0.42600
O 	O 	0.92124 0.82734 0.28413 -0.30600
O 	O 	0.97560 0.00471 0.24968 -0.68400
H 	H 	0.97241 0.00097 0.27539 0.16600
Br	Br	0.97238 0.66046 0.23444 -0.08400
O 	O 	0.94316 0.82158 0.20879 -0.29600
C 	C 	0.84415 0.59217 0.92352 0.34100
C 	C 	0.78998 0.39630 0.83388 0.34000
C 	C 	0.92580 0.37271 0.92573 0.33300
C 	C 	0.68147 0.17671 0.95857 0.31300
Ni	Ni	0.68085 0.43319 0.89086 1.12800
Ni	Ni	0.78188 0.39938 0.95760 1.13300
Ni	Ni	0.74058 0.26709 0.89036 1.13100
O 	O 	0.89975 0.43632 0.93100 -0.36200
O 	O 	0.81768 0.54372 0.89472 -0.35600
O 	O 	0.82211 0.54518 0.95373 -0.33800
O 	O 	0.67061 0.16241 0.92447 -0.31800
O 	O 	0.71694 0.41066 0.83903 -0.31800
O 	O 	0.82673 0.38027 0.86097 -0.37300
O 	O 	0.75063 0.26029 0.97219 -0.29100
O 	O 	0.63662 0.47495 0.93769 -0.29800
O 	O 	0.66148 0.38115 0.97872 -0.31400
O 	O 	0.86319 0.28729 0.91357 -0.30900
O 	O 	0.70806 0.34883 0.91671 -0.72300
H 	H 	0.64637 0.30128 0.92684 0.22400
C 	C 	0.79229 0.47865 0.52746 0.28500
C 	C 	0.74974 0.23938 0.60976 0.34400
C 	C 	0.68063 0.48892 0.62870 0.33500
Ni	Ni	0.66831 0.26605 0.53894 1.12900
O 	O 	0.79058 0.39427 0.52824 -0.30200
O 	O 	0.71183 0.48359 0.52456 -0.32900
O 	O 	0.67364 0.51484 0.59636 -0.32100
O 	O 	0.73495 0.21799 0.57564 -0.31900
O 	O 	0.72295 0.29660 0.62464 -0.32700
O 	O 	0.64138 0.33488 0.57327 -0.72100
H 	H 	0.70585 0.38261 0.58070 0.20100
C 	C 	0.87993 0.79564 0.72988 0.32200
C 	C 	0.92590 0.86648 0.82875 0.33500
C 	C 	0.88635 0.13494 0.79691 0.32600
C 	C 	0.86599 0.05628 0.70937 0.38000
Ni	Ni	0.85067 0.93937 0.77232 1.11700
O 	O 	0.97420 0.84082 0.72905 -0.31400
O 	O 	0.83397 0.80820 0.75650 -0.33900
O 	O 	0.97665 0.15961 0.79892 -0.32100
O 	O 	0.82031 0.96893 0.72427 -0.37900
O 	O 	0.96931 0.84492 0.80395 -0.31900
O 	O 	0.88805 0.92177 0.82167 -0.34800
O 	O 	0.93013 0.13359 0.72676 -0.34200
O 	O 	0.82328 0.04391 0.79063 -0.30800
C 	C 	0.80072 0.96764 0.29395 0.27100
C 	C 	0.78053 0.96184 0.20087 0.28500
Ni	Ni	0.94998 0.10738 0.24315 1.13700
Ni	Ni	0.87932 0.87552 0.24166 1.12100
O 	O 	0.86666 0.05885 0.28779 -0.29600
O 	O 	0.78469 0.89512 0.27222 -0.33000
O 	O 	0.82006 0.04387 0.21782 -0.29200
O 	O 	0.82179 0.90731 0.19904 -0.32000
C 	C 	0.69088 0.93521 0.18187 -0.06200
C 	C 	0.69399 0.98334 0.15005 0.08500
Br	Br	0.81374 0.07122 0.12867 -0.00700
C 	C 	0.66968 0.90166 0.38012 0.10900
C 	C 	0.72906 0.90487 0.35275 0.10300
C 	C 	0.72905 0.95015 0.32109 -0.06400
C 	C 	0.66467 0.98564 0.31673 0.07400
Br	Br	0.67183 0.06031 0.27580 -0.07200
Br	Br	0.79879 0.83558 0.35691 -0.05100
Br	Br	0.69180 0.87556 0.42714 -0.00600
F 	F 	0.65918 0.86193 0.56696 -0.42000
C 	C 	0.90216 0.61003 0.48812 0.03900
C 	C 	0.88509 0.56549 0.52109 0.03500
H 	H 	0.84236 0.60062 0.47242 0.12400
F 	F 	0.93626 0.71105 0.42627 -0.36700
F 	F 	0.86813 0.53531 0.59460 -0.45300
H 	H 	0.65953 0.47790 0.45669 0.09100
F 	F 	0.70993 0.62513 0.42149 -0.39500
C 	C 	0.85776 0.17513 0.62597 0.11000
C 	C 	0.77452 0.18034 0.63254 -0.08000
C 	C 	0.71422 0.12698 0.66086 0.10500
C 	C 	0.73410 0.06401 0.67988 0.15500
C 	C 	0.82495 0.07343 0.67776 -0.10000
C 	C 	0.88464 0.12434 0.64930 0.15000
Br	Br	0.93880 0.24353 0.58671 -0.03700
Br	Br	0.63770 0.96765 0.70987 -0.16100
C 	C 	0.75413 0.54492 0.68911 0.11300
C 	C 	0.74290 0.56733 0.65410 -0.05400
C 	C 	0.78790 0.66637 0.64389 0.11800
C 	C 	0.82045 0.73867 0.66954 0.11700
C 	C 	0.82630 0.71623 0.70466 -0.08200
C 	C 	0.79141 0.61891 0.71461 0.11800
Br	Br	0.79463 0.58662 0.76309 -0.11600
Br	Br	0.74269 0.42133 0.70033 -0.10800
Br	Br	0.85674 0.86894 0.65624 -0.12000
Br	Br	0.82591 0.70615 0.59588 -0.02600
C 	C 	0.94814 0.27148 0.99517 0.83100
F 	F 	0.90394 0.20300 0.96930 -0.41200
F 	F 	0.88048 0.26600 0.01873 -0.42900
C 	C 	0.66926 0.04179 0.99508 0.12900
C 	C 	0.66557 0.88811 0.01606 0.80200
H 	H 	0.74508 0.08065 0.99981 0.14200
F 	F 	0.76271 0.93880 0.01000 -0.38700
F 	F 	0.64962 0.87646 0.05175 -0.41900
C 	C 	0.67415 0.56176 0.01681 0.07300
C 	C 	0.66022 0.58716 0.05080 -0.08100
C 	C 	0.73956 0.67404 0.06864 0.78400
H 	H 	0.74342 0.60189 0.00450 0.10000
F 	F 	0.82534 0.67594 0.06332 -0.40300
F 	F 	0.72345 0.67115 0.10435 -0.40700
F 	F 	0.74563 0.75749 0.05494 -0.36500
C 	C 	0.92428 0.31110 0.78738 0.13000
C 	C 	0.85644 0.21196 0.79414 -0.08900
C 	C 	0.75842 0.18690 0.79591 0.09100
C 	C 	0.73395 0.26044 0.79309 0.10000
C 	C 	0.80224 0.35543 0.80072 -0.09100
C 	C 	0.89630 0.38274 0.79102 0.10800
Br	Br	0.98909 0.51776 0.78869 -0.07100
Br	Br	0.65897 0.05822 0.80722 -0.09200
C 	C 	0.97083 0.75683 0.91043 0.12900
C 	C 	0.87679 0.69656 0.92146 -0.08400
C 	C 	0.80919 0.72364 0.91170 0.09600
C 	C 	0.82195 0.77556 0.88043 0.11500
C 	C 	0.91258 0.82156 0.86421 -0.08800
C 	C 	0.98937 0.81977 0.88160 0.13500
Br	Br	0.71310 0.77220 0.85826 -0.13400
Br	Br	0.70402 0.69589 0.94190 -0.07000
