data_crystal

_cell_length_a 17.54457
_cell_length_b 15.46063
_cell_length_c 25.13987
_cell_angle_alpha 90.00000
_cell_angle_beta  90.00000
_cell_angle_gamma 90.05365

_symmetry_space_group_name_	'P 1'
_symmetry_space_group_name_H-M	'P 1'

loop_
_symmetry_equiv_pos_as_xyz
  x,y,z

loop_
_atom_site_label
_atom_site_type_symbol
_atom_site_fract_x
_atom_site_fract_y
_atom_site_fract_z
_atom_site_charge
Co	Co	0.92847 0.87299 0.00391 1.13300
Co	Co	0.11446 0.05467 0.00379 1.14700
Co	Co	0.11410 0.87258 0.00363 1.14500
Co	Co	0.92908 0.05489 0.00371 1.13100
C 	C 	0.80846 0.82271 0.08340 0.32000
Co	Co	0.76284 0.96406 0.00734 1.12500
Co	Co	0.28015 0.96375 0.00703 1.12500
O 	O 	0.16046 0.96396 0.01743 -0.81100
O 	O 	0.02168 0.96365 0.03273 -0.58500
C 	C 	0.23391 0.82236 0.08340 0.32100
C 	C 	0.80908 0.10518 0.08358 0.31900
O 	O 	0.29104 0.87011 0.06604 -0.40000
O 	O 	0.18155 0.79344 0.05022 -0.41700
O 	O 	0.75190 0.05747 0.06623 -0.40200
O 	O 	0.86142 0.13409 0.05036 -0.43000
O 	O 	0.88256 0.96377 0.01744 -0.82200
C 	C 	0.23462 0.10493 0.08372 0.32100
O 	O 	0.29146 0.05675 0.06644 -0.39900
O 	O 	0.18241 0.13394 0.05050 -0.41600
O 	O 	0.75149 0.87063 0.06610 -0.40400
O 	O 	0.86071 0.79382 0.05018 -0.43200
Co	Co	0.61495 0.55474 0.50391 1.18800
Co	Co	0.42896 0.37306 0.50379 1.18800
Co	Co	0.42932 0.55515 0.50363 1.18600
Co	Co	0.61434 0.37284 0.50371 1.18700
C 	C 	0.73496 0.60502 0.58340 0.31500
Co	Co	0.78058 0.46367 0.50734 1.16600
Co	Co	0.26327 0.46398 0.50703 1.17000
C 	C 	0.72386 0.35737 0.41401 0.32500
O 	O 	0.26518 0.56160 0.44944 -0.39000
O 	O 	0.38296 0.46377 0.51743 -0.78100
C 	C 	0.31966 0.56998 0.41369 0.32400
O 	O 	0.52249 0.63080 0.49566 -0.46300
O 	O 	0.52138 0.29680 0.49607 -0.46200
C 	C 	0.31958 0.35769 0.41400 0.32500
O 	O 	0.52173 0.46408 0.53273 -0.57300
C 	C 	0.30951 0.60537 0.58340 0.31400
C 	C 	0.72441 0.56958 0.41369 0.32400
C 	C 	0.73434 0.32255 0.58358 0.31400
O 	O 	0.39150 0.55637 0.42614 -0.40300
O 	O 	0.77907 0.56101 0.44928 -0.39900
O 	O 	0.65265 0.55568 0.42624 -0.40300
O 	O 	0.26501 0.36624 0.44964 -0.39100
O 	O 	0.39136 0.37167 0.42647 -0.40500
O 	O 	0.25238 0.55762 0.56603 -0.36800
O 	O 	0.36187 0.63429 0.55022 -0.38100
O 	O 	0.79152 0.37026 0.56623 -0.38000
O 	O 	0.68200 0.29364 0.55036 -0.38300
O 	O 	0.66086 0.46396 0.51744 -0.78200
C 	C 	0.30880 0.32280 0.58371 0.31400
O 	O 	0.25196 0.37098 0.56644 -0.36800
O 	O 	0.36101 0.29379 0.55050 -0.38000
O 	O 	0.79193 0.55710 0.56610 -0.38100
O 	O 	0.68271 0.63391 0.55018 -0.38500
O 	O 	0.77841 0.36579 0.44969 -0.39900
O 	O 	0.65205 0.37118 0.42647 -0.40500
C 	C 	0.24324 0.14749 0.13406 -0.11300
C 	C 	0.25166 0.18221 0.17658 0.06600
C 	C 	0.26295 0.22170 0.22658 -0.01500
C 	C 	0.27386 0.25441 0.26943 -0.01100
C 	C 	0.28817 0.29152 0.31974 0.07000
C 	C 	0.30174 0.32223 0.36277 -0.10200
C 	C 	0.29176 0.24552 0.67658 0.07300
C 	C 	0.30018 0.28024 0.63406 -0.09500
C 	C 	0.24244 0.77977 0.13375 -0.11300
C 	C 	0.25091 0.74504 0.17627 0.06600
C 	C 	0.26236 0.70557 0.22627 -0.01500
C 	C 	0.27344 0.67291 0.26910 -0.01100
C 	C 	0.28797 0.63588 0.31940 0.06900
C 	C 	0.30171 0.60528 0.36244 -0.10100
C 	C 	0.80065 0.14774 0.13395 -0.12200
C 	C 	0.79224 0.18243 0.17649 0.06000
C 	C 	0.78086 0.22184 0.22651 -0.02300
C 	C 	0.76983 0.25446 0.26936 -0.01800
C 	C 	0.75538 0.29146 0.31969 0.06300
C 	C 	0.74171 0.32205 0.36274 -0.10800
C 	C 	0.75179 0.68241 0.67626 0.06700
C 	C 	0.74348 0.64763 0.63374 -0.10300
C 	C 	0.74277 0.27999 0.63395 -0.10200
C 	C 	0.75118 0.24530 0.67649 0.06700
C 	C 	0.30099 0.64796 0.63375 -0.09500
C 	C 	0.29251 0.68269 0.67627 0.07300
C 	C 	0.79994 0.78010 0.13374 -0.12400
C 	C 	0.79164 0.74532 0.17626 0.06000
C 	C 	0.78051 0.70575 0.22625 -0.02400
C 	C 	0.76974 0.67298 0.26909 -0.01800
C 	C 	0.75560 0.63579 0.31941 0.06300
C 	C 	0.74214 0.60505 0.36245 -0.10800
C 	C 	0.76291 0.72198 0.72625 -0.01100
C 	C 	0.28106 0.72215 0.72627 -0.00400
C 	C 	0.28047 0.20603 0.72658 -0.00400
C 	C 	0.76256 0.20589 0.72651 -0.01100
C 	C 	0.81956 0.07035 0.91401 0.31900
O 	O 	0.27824 0.86613 0.94944 -0.33300
C 	C 	0.22376 0.85775 0.91369 0.31700
O 	O 	0.02093 0.79693 0.99566 -0.34700
O 	O 	0.02204 0.13092 0.99606 -0.34800
C 	C 	0.22384 0.07003 0.91400 0.31800
C 	C 	0.81901 0.85814 0.91369 0.31900
O 	O 	0.15192 0.87136 0.92614 -0.35300
O 	O 	0.76435 0.86672 0.94928 -0.33500
O 	O 	0.89077 0.87205 0.92624 -0.37000
O 	O 	0.27841 0.06149 0.94964 -0.33400
O 	O 	0.15206 0.05606 0.92647 -0.35400
O 	O 	0.76501 0.06194 0.94969 -0.33400
O 	O 	0.89137 0.05655 0.92647 -0.37100
C 	C 	0.24168 0.10550 0.86277 -0.08200
C 	C 	0.25525 0.13621 0.81974 0.07600
C 	C 	0.26956 0.17332 0.76942 0.00100
C 	C 	0.80128 0.82268 0.86245 -0.09200
C 	C 	0.78782 0.79194 0.81941 0.07000
C 	C 	0.77368 0.75475 0.76909 -0.00700
C 	C 	0.77359 0.17326 0.76936 -0.00700
C 	C 	0.78804 0.13627 0.81969 0.07000
C 	C 	0.80171 0.10568 0.86274 -0.09100
C 	C 	0.26998 0.75482 0.76910 0.00100
C 	C 	0.25545 0.79185 0.81940 0.07600
C 	C 	0.24171 0.82245 0.86244 -0.08200
