data_crystal

_cell_length_a 24.88090
_cell_length_b 21.85606
_cell_length_c 31.89987
_cell_angle_alpha 104.03378
_cell_angle_beta  115.92828
_cell_angle_gamma 111.52188

_symmetry_space_group_name_	'P 1'
_symmetry_space_group_name_H-M	'P 1'

loop_
_symmetry_equiv_pos_as_xyz
  x,y,z

loop_
_atom_site_label
_atom_site_type_symbol
_atom_site_fract_x
_atom_site_fract_y
_atom_site_fract_z
_atom_site_charge
C 	C 	0.76079 0.51351 0.97062 0.03700
C 	C 	0.80851 0.51107 0.01384 -0.02600
C 	C 	0.78474 0.44998 0.02245 -0.06100
C 	C 	0.71327 0.39048 0.98775 0.08700
C 	C 	0.66480 0.39431 0.94545 -0.06000
C 	C 	0.68859 0.45578 0.93714 -0.01700
N 	N 	0.69175 0.32412 0.99378 -0.13900
C 	C 	0.49980 0.23509 0.98246 0.03900
C 	C 	0.49913 0.20264 0.93842 -0.02200
C 	C 	0.56170 0.23201 0.94150 -0.05800
C 	C 	0.62603 0.29379 0.98918 0.08800
C 	C 	0.62650 0.32564 0.03321 -0.05900
C 	C 	0.56368 0.29674 0.02984 -0.01900
C 	C 	0.73590 0.17430 0.92486 0.03600
C 	C 	0.74839 0.18955 0.97468 -0.01800
C 	C 	0.73147 0.23684 0.99621 -0.04800
C 	C 	0.70231 0.26974 0.96842 0.08300
C 	C 	0.68648 0.25142 0.91717 -0.05800
C 	C 	0.70366 0.20423 0.89575 -0.02200
H 	H 	0.86424 0.55590 0.04018 0.05300
H 	H 	0.82223 0.44766 0.05521 0.06000
H 	H 	0.60947 0.34877 0.91816 0.05600
H 	H 	0.65130 0.45774 0.90400 0.06000
H 	H 	0.44978 0.15564 0.90147 0.05700
H 	H 	0.55986 0.20787 0.90667 0.05900
H 	H 	0.67568 0.37311 0.06998 0.06300
H 	H 	0.56440 0.32279 0.06379 0.06300
H 	H 	0.77332 0.16658 0.99742 0.07100
H 	H 	0.74291 0.24980 0.03525 0.06400
H 	H 	0.66089 0.27340 0.89401 0.06100
H 	H 	0.69328 0.19217 0.85705 0.05800
C 	C 	0.76552 0.50477 0.47385 0.03600
C 	C 	0.80685 0.49056 0.51211 -0.01500
C 	C 	0.77467 0.42529 0.51452 -0.05400
C 	C 	0.70115 0.37308 0.47822 0.08600
C 	C 	0.65947 0.38858 0.44076 -0.05900
C 	C 	0.69167 0.45417 0.43875 -0.02100
N 	N 	0.67056 0.30191 0.47719 -0.14100
C 	C 	0.48086 0.22823 0.46860 0.03500
C 	C 	0.47699 0.21014 0.42163 -0.02300
C 	C 	0.53899 0.23260 0.42405 -0.06000
C 	C 	0.60578 0.27636 0.47368 0.08500
C 	C 	0.60938 0.29293 0.52042 -0.05500
C 	C 	0.54718 0.26763 0.51791 -0.01300
C 	C 	0.70684 0.15394 0.39772 0.03000
C 	C 	0.71243 0.15796 0.44412 -0.02000
C 	C 	0.69577 0.20304 0.46821 -0.05400
C 	C 	0.67336 0.24445 0.44621 0.08400
C 	C 	0.66072 0.23425 0.39665 -0.05800
C 	C 	0.67780 0.18935 0.37270 -0.01500
H 	H 	0.86398 0.52952 0.53941 0.06200
H 	H 	0.80710 0.41392 0.54347 0.06600
H 	H 	0.60284 0.34896 0.41216 0.05700
H 	H 	0.65943 0.46494 0.40916 0.05900
H 	H 	0.42595 0.17879 0.38332 0.05400
H 	H 	0.53528 0.21749 0.38755 0.05400
H 	H 	0.66050 0.32490 0.55869 0.06500
H 	H 	0.55053 0.27962 0.55428 0.06700
H 	H 	0.73348 0.12942 0.46308 0.06400
H 	H 	0.70390 0.20905 0.50558 0.06700
H 	H 	0.63931 0.26218 0.37740 0.05600
H 	H 	0.67156 0.18488 0.33607 0.05900
C 	C 	0.34176 0.56136 0.99207 0.03700
C 	C 	0.35111 0.57664 0.95468 -0.02400
C 	C 	0.39303 0.65081 0.96710 -0.05700
C 	C 	0.42578 0.71054 0.01718 0.08000
C 	C 	0.41753 0.69473 0.05478 -0.05400
C 	C 	0.37542 0.62063 0.04224 -0.02000
N 	N 	0.46357 0.78788 0.02917 -0.13900
C 	C 	0.61360 0.84751 0.99177 0.04100
C 	C 	0.63242 0.84591 0.03966 -0.02400
C 	C 	0.58266 0.82574 0.05146 -0.05400
C 	C 	0.51360 0.80692 0.01555 0.08000
C 	C 	0.49476 0.80867 0.96745 -0.05500
C 	C 	0.54464 0.82888 0.95573 -0.02300
C 	C 	0.33810 0.88309 0.00207 0.03300
C 	C 	0.40851 0.92482 0.04743 -0.01300
C 	C 	0.44993 0.89369 0.05553 -0.05300
C 	C 	0.42161 0.82099 0.01813 0.08200
C 	C 	0.35169 0.78038 0.97160 -0.05800
C 	C 	0.31016 0.81115 0.96397 -0.02100
H 	H 	0.32541 0.53116 0.91588 0.05500
H 	H 	0.39829 0.66188 0.93740 0.05400
H 	H 	0.44248 0.74019 0.09335 0.06500
H 	H 	0.36856 0.60928 0.07137 0.06100
H 	H 	0.68540 0.85957 0.06749 0.05700
H 	H 	0.59769 0.82473 0.08856 0.06100
H 	H 	0.44140 0.79307 0.93882 0.05600
H 	H 	0.52944 0.82913 0.91837 0.06300
H 	H 	0.43089 0.98098 0.07659 0.07000
H 	H 	0.50379 0.92561 0.09118 0.06700
H 	H 	0.32982 0.72561 0.94120 0.05400
H 	H 	0.25622 0.77916 0.92833 0.05400
C 	C 	0.30140 0.53784 0.46391 0.03200
C 	C 	0.34658 0.59173 0.51792 -0.01500
C 	C 	0.39134 0.66690 0.53395 -0.05600
C 	C 	0.39262 0.68883 0.49645 0.08300
C 	C 	0.35096 0.63399 0.44277 -0.06000
C 	C 	0.30488 0.55896 0.42653 -0.02300
N 	N 	0.43370 0.76764 0.51312 -0.14100
C 	C 	0.58910 0.83031 0.48105 0.03400
C 	C 	0.52149 0.81462 0.44478 -0.01800
C 	C 	0.47021 0.79478 0.45519 -0.05900
C 	C 	0.48608 0.78985 0.50195 0.08300
C 	C 	0.55401 0.80650 0.53833 -0.05700
C 	C 	0.60529 0.82672 0.52803 -0.02300
C 	C 	0.31297 0.86637 0.50355 0.03700
C 	C 	0.37628 0.89373 0.55218 -0.01600
C 	C 	0.41803 0.86402 0.55436 -0.05400
C 	C 	0.39595 0.80530 0.50834 0.08500
C 	C 	0.33279 0.77858 0.45947 -0.05600
C 	C 	0.29220 0.80971 0.45709 -0.02200
H 	H 	0.34571 0.57562 0.54729 0.06100
H 	H 	0.42410 0.70854 0.57545 0.06100
H 	H 	0.35332 0.64954 0.41364 0.05300
H 	H 	0.27134 0.51750 0.38490 0.05200
H 	H 	0.50832 0.81661 0.40817 0.06000
H 	H 	0.41811 0.78175 0.42646 0.05600
H 	H 	0.56681 0.80317 0.57447 0.05800
H 	H 	0.65726 0.83840 0.55613 0.05200
H 	H 	0.39248 0.93700 0.58837 0.06300
H 	H 	0.46618 0.88452 0.59221 0.06300
H 	H 	0.31461 0.73326 0.42356 0.05500
H 	H 	0.24349 0.78840 0.41931 0.05900
Zn	Zn	0.16291 0.17053 0.00465 1.19000
Zn	Zn	0.04932 0.10104 0.88648 1.20600
O 	O 	0.05942 0.98901 0.81054 -0.43600
O 	O 	0.01899 0.06766 0.81016 -0.41500
O 	O 	0.07037 0.90221 0.88588 -0.47500
C 	C 	0.24353 0.15072 0.96962 0.34100
O 	O 	0.99140 0.99593 0.86844 -0.86600
C 	C 	0.16392 0.26788 0.95550 0.35800
O 	O 	0.24880 0.18093 0.01321 -0.45800
O 	O 	0.18075 0.10809 0.92372 -0.33000
O 	O 	0.06718 0.11249 0.95783 -0.76000
O 	O 	0.12137 0.00406 0.96321 -0.45100
O 	O 	0.11561 0.20810 0.90761 -0.40100
O 	O 	0.17720 0.26304 0.99890 -0.44000
Zn	Zn	0.87095 0.85912 0.88858 1.18300
Zn	Zn	0.99995 0.91983 0.99469 1.19400
Zn	Zn	0.01672 0.00840 0.93783 1.21700
C 	C 	0.88241 0.76338 0.94023 0.35400
C 	C 	0.82242 0.90398 0.94717 0.34400
O 	O 	0.91212 0.01571 0.91191 -0.45700
Zn	Zn	0.98623 0.04624 0.02251 1.20000
O 	O 	0.95098 0.81351 0.97658 -0.44000
O 	O 	0.84709 0.76534 0.89596 -0.43000
O 	O 	0.80451 0.87519 0.89848 -0.44900
O 	O 	0.88729 0.92996 0.98738 -0.45000
C 	C 	0.03385 0.00401 0.10457 0.31400
O 	O 	0.96570 0.90431 0.91902 -0.78600
C 	C 	0.90413 0.06279 0.93951 0.35700
O 	O 	0.03414 0.95209 0.07296 -0.41100
O 	O 	0.02514 0.05504 0.09291 -0.45700
O 	O 	0.93527 0.08593 0.99046 -0.48200
O 	O 	0.04183 0.02205 0.00698 -0.89500
Zn	Zn	0.02424 0.93993 0.84544 1.19300
C 	C 	0.03541 0.02509 0.78823 0.30300
C 	C 	0.12238 0.94873 0.93626 0.34500
H 	H 	0.09342 0.05476 0.03585 0.16200
H 	H 	0.93985 0.97293 0.84244 0.16100
Zn	Zn	0.13835 0.15751 0.48642 1.18800
Zn	Zn	0.02364 0.07544 0.36860 1.19900
O 	O 	0.04626 0.96121 0.30422 -0.44400
O 	O 	0.99784 0.03232 0.29379 -0.43900
O 	O 	0.05769 0.88851 0.38921 -0.46200
C 	C 	0.22327 0.13703 0.45553 0.33700
O 	O 	0.97163 0.97356 0.35748 -0.87200
C 	C 	0.13183 0.24347 0.42805 0.34900
O 	O 	0.22534 0.16711 0.49761 -0.45500
O 	O 	0.16247 0.09727 0.40828 -0.32800
O 	O 	0.04233 0.09705 0.44137 -0.77600
O 	O 	0.10211 0.99536 0.46052 -0.45800
O 	O 	0.08311 0.17998 0.38243 -0.42600
O 	O 	0.15022 0.24527 0.47405 -0.45100
Zn	Zn	0.85402 0.84040 0.38481 1.18700
Zn	Zn	0.98562 0.91936 0.49245 1.19500
Zn	Zn	0.99469 0.99549 0.42766 1.21800
C 	C 	0.88441 0.75758 0.44532 0.35900
C 	C 	0.80006 0.88379 0.43885 0.34800
O 	O 	0.88677 0.99834 0.39483 -0.43500
Zn	Zn	0.95646 0.03518 0.50843 1.20100
O 	O 	0.94970 0.81654 0.48205 -0.42900
O 	O 	0.84257 0.75369 0.39991 -0.41100
O 	O 	0.78188 0.84744 0.39089 -0.42700
O 	O 	0.86630 0.91694 0.47986 -0.47100
C 	C 	0.01364 0.00928 0.59835 0.31300
O 	O 	0.94857 0.89407 0.41503 -0.77800
C 	C 	0.87251 0.04157 0.41899 0.33900
O 	O 	0.02030 0.95985 0.57093 -0.42000
O 	O 	0.99779 0.05381 0.58156 -0.46100
O 	O 	0.89662 0.06219 0.46893 -0.48700
O 	O 	0.01817 0.01770 0.49758 -0.89200
Zn	Zn	0.01188 0.92080 0.34294 1.19300
C 	C 	0.02438 0.99637 0.27945 0.32400
C 	C 	0.10296 0.93572 0.44035 0.34900
H 	H 	0.06911 0.05494 0.52689 0.16400
H 	H 	0.91983 0.94613 0.32990 0.16500
C 	C 	0.01401 0.95574 0.70237 -0.00200
C 	C 	0.03209 0.02207 0.74050 -0.06100
C 	C 	0.04817 0.08559 0.73327 -0.00000
C 	C 	0.04486 0.08235 0.68783 0.00100
C 	C 	0.02506 0.01538 0.64900 -0.07100
C 	C 	0.01040 0.95236 0.65685 0.00500
H 	H 	0.00152 0.90636 0.70755 0.04400
H 	H 	0.06362 0.13756 0.76295 0.06600
H 	H 	0.05721 0.13173 0.68266 0.04900
H 	H 	0.99435 0.90012 0.62703 0.05300
C 	C 	0.06317 0.07043 0.19437 -0.00100
C 	C 	0.04376 0.00536 0.15402 -0.06300
C 	C 	0.02502 0.93928 0.15821 0.00400
C 	C 	0.02050 0.93685 0.20004 0.00900
C 	C 	0.03491 0.00049 0.23808 -0.07100
C 	C 	0.05828 0.06782 0.23593 0.00600
H 	H 	0.08010 0.12254 0.19272 0.05200
H 	H 	0.01142 0.88908 0.12811 0.06900
H 	H 	0.00364 0.88490 0.20190 0.04300
H 	H 	0.07191 0.11797 0.26615 0.06500
C 	C 	0.25010 0.45939 0.44660 -0.00100
C 	C 	0.19523 0.44230 0.45364 0.13400
C 	C 	0.15431 0.37027 0.44502 -0.02000
C 	C 	0.16585 0.31412 0.42756 -0.11700
C 	C 	0.21634 0.32937 0.41597 0.20300
C 	C 	0.25887 0.40206 0.42620 -0.09900
H 	H 	0.11429 0.35830 0.45273 0.07100
H 	H 	0.29980 0.41435 0.41945 0.08900
Cl	Cl	0.17655 0.51030 0.47250 -0.30500
Cl	Cl	0.22780 0.25833 0.38955 -0.32500
C 	C 	0.64073 0.84361 0.46764 -0.00300
C 	C 	0.68285 0.91461 0.47471 0.13800
C 	C 	0.73447 0.92710 0.46476 -0.02100
C 	C 	0.74423 0.86919 0.44757 -0.11000
C 	C 	0.70127 0.79790 0.43970 0.20700
C 	C 	0.64987 0.78551 0.44971 -0.09900
H 	H 	0.76696 0.98184 0.47042 0.06800
H 	H 	0.61749 0.73080 0.44413 0.08800
Cl	Cl	0.67207 0.98852 0.49655 -0.31900
Cl	Cl	0.71223 0.72395 0.41840 -0.32200
C 	C 	0.26535 0.89257 0.50160 -0.00100
C 	C 	0.28301 0.96470 0.50751 0.14100
C 	C 	0.23139 0.98273 0.49483 -0.01100
C 	C 	0.16121 0.92788 0.47302 -0.13000
C 	C 	0.14588 0.85906 0.47280 0.20400
C 	C 	0.19803 0.84185 0.48737 -0.09900
H 	H 	0.24453 0.03745 0.49806 0.07000
H 	H 	0.18509 0.78749 0.48497 0.09400
Cl	Cl	0.36761 0.03087 0.52678 -0.31200
Cl	Cl	0.06083 0.79308 0.45293 -0.32200
C 	C 	0.29597 0.48327 0.97857 -0.00400
C 	C 	0.32618 0.44571 1.00000 0.14200
C 	C 	0.28242 0.37498 0.99162 -0.01300
C 	C 	0.20830 0.34024 0.96090 -0.10500
C 	C 	0.17782 0.37657 0.93781 0.20500
C 	C 	0.22175 0.44787 0.94678 -0.09500
H 	H 	0.30609 0.34693 0.00905 0.07600
H 	H 	0.19825 0.47646 0.93002 0.08800
Cl	Cl	0.41880 0.48641 0.03708 -0.31400
Cl	Cl	0.08507 0.33516 0.89974 -0.29600
C 	C 	0.66434 0.86270 0.97748 -0.00000
C 	C 	0.71848 0.93678 0.99775 0.14600
C 	C 	0.76956 0.94975 0.98721 -0.01200
C 	C 	0.76634 0.88934 0.95572 -0.11300
C 	C 	0.71069 0.81523 0.93402 0.21600
C 	C 	0.66031 0.80241 0.94516 -0.09600
H 	H 	0.81157 0.00683 0.00333 0.05700
H 	H 	0.61849 0.74535 0.92928 0.08800
Cl	Cl	0.72234 0.01377 0.03576 -0.31400
Cl	Cl	0.70440 0.73767 0.89410 -0.31600
C 	C 	0.29391 0.91529 0.99335 0.00500
C 	C 	0.26047 0.91551 0.01938 0.13000
C 	C 	0.20776 0.93204 0.00296 -0.01800
C 	C 	0.18690 0.94651 0.95989 -0.13200
C 	C 	0.22355 0.95086 0.93612 0.20500
C 	C 	0.27751 0.93647 0.95356 -0.10000
H 	H 	0.18060 0.92989 0.02197 0.04900
H 	H 	0.30439 0.93818 0.93436 0.09500
Cl	Cl	0.28140 0.89132 0.07065 -0.31600
Cl	Cl	0.20095 0.97187 0.88327 -0.33700
C 	C 	0.74064 0.12191 0.38020 -0.00000
C 	C 	0.81177 0.16879 0.39907 0.13300
C 	C 	0.85363 0.13883 0.40311 -0.02200
C 	C 	0.82510 0.06281 0.38918 -0.13100
C 	C 	0.75103 0.01418 0.36042 0.20200
C 	C 	0.70904 0.04398 0.35660 -0.10200
H 	H 	0.91004 0.17605 0.42233 0.05400
H 	H 	0.65314 0.00706 0.33902 0.08900
Cl	Cl	0.85111 0.26625 0.42332 -0.31300
Cl	Cl	0.71070 0.91640 0.33067 -0.33700
C 	C 	0.85875 0.69368 0.45443 -0.10200
C 	C 	0.83694 0.62209 0.41969 0.21300
C 	C 	0.80753 0.56087 0.42687 -0.09500
C 	C 	0.79987 0.57051 0.46859 0.00000
C 	C 	0.82335 0.64245 0.50411 0.14200
C 	C 	0.85331 0.70374 0.49720 -0.01300
H 	H 	0.79034 0.50567 0.39989 0.09200
H 	H 	0.87046 0.75894 0.52420 0.07300
Cl	Cl	0.84840 0.60878 0.36819 -0.30000
Cl	Cl	0.81346 0.65615 0.55640 -0.32000
C 	C 	0.41532 0.20502 0.46604 0.00200
C 	C 	0.40550 0.25883 0.49058 0.14100
C 	C 	0.34411 0.23554 0.48914 -0.01100
C 	C 	0.28986 0.15927 0.46026 -0.10300
C 	C 	0.29817 0.10567 0.43354 0.21200
C 	C 	0.36158 0.12859 0.43790 -0.09000
H 	H 	0.33706 0.27716 0.50839 0.08000
H 	H 	0.36865 0.08701 0.41864 0.09300
Cl	Cl	0.46701 0.35562 0.51982 -0.30900
Cl	Cl	0.22932 0.00987 0.39363 -0.32600
C 	C 	0.84962 0.07757 0.91190 -0.13200
C 	C 	0.87026 0.14824 0.91454 0.20600
C 	C 	0.82760 0.17675 0.91183 -0.10000
C 	C 	0.76457 0.13487 0.90659 -0.00100
C 	C 	0.73850 0.05949 0.89486 0.13500
C 	C 	0.78079 0.03078 0.89677 -0.02500
H 	H 	0.84629 0.23369 0.91827 0.09300
H 	H 	0.76263 0.97432 0.89110 0.07100
Cl	Cl	0.95239 0.20408 0.92594 -0.33900
Cl	Cl	0.65546 0.00243 0.88179 -0.30700
C 	C 	0.78689 0.57590 0.95992 -0.00300
C 	C 	0.79759 0.56628 0.91953 0.13800
C 	C 	0.82724 0.62756 0.91243 -0.01500
C 	C 	0.84732 0.69868 0.94586 -0.10800
C 	C 	0.83535 0.70797 0.98555 0.21200
C 	C 	0.80508 0.64661 0.99231 -0.09400
H 	H 	0.83608 0.62019 0.88167 0.07300
H 	H 	0.79648 0.65407 0.02319 0.08000
Cl	Cl	0.77631 0.47835 0.87876 -0.30900
Cl	Cl	0.85696 0.79597 0.02653 -0.33700
C 	C 	0.30776 0.17012 0.97143 -0.10200
C 	C 	0.32161 0.20443 0.94213 0.20700
C 	C 	0.38418 0.22476 0.94568 -0.09500
C 	C 	0.43251 0.20959 0.97720 0.00200
C 	C 	0.41715 0.17222 0.00457 0.13600
C 	C 	0.35552 0.15385 0.00231 -0.01900
H 	H 	0.39557 0.25290 0.92419 0.08800
H 	H 	0.34409 0.12569 0.02379 0.07100
Cl	Cl	0.26152 0.22321 0.90128 -0.31700
Cl	Cl	0.47327 0.14567 0.04018 -0.31700
