data_crystal

_cell_length_a 18.04853
_cell_length_b 15.50446
_cell_length_c 43.61746
_cell_angle_alpha 90.87177
_cell_angle_beta  91.27400
_cell_angle_gamma 111.07624

_symmetry_space_group_name_	'P 1'
_symmetry_space_group_name_H-M	'P 1'

loop_
_symmetry_equiv_pos_as_xyz
  x,y,z

loop_
_atom_site_label
_atom_site_type_symbol
_atom_site_fract_x
_atom_site_fract_y
_atom_site_fract_z
_atom_site_charge
Ni	Ni	0.71190 0.34308 0.88637 1.10600
O 	O 	0.62549 0.25857 0.85716 -0.70700
Ni	Ni	0.52879 0.25786 0.87812 1.10700
O 	O 	0.79809 0.33128 0.85880 -0.34600
O 	O 	0.74579 0.17268 0.86028 -0.37800
O 	O 	0.70294 0.44583 0.85949 -0.39500
Ni	Ni	0.62186 0.13265 0.85377 1.08200
O 	O 	0.71644 0.44951 0.95382 -0.33600
O 	O 	0.60963 0.10972 0.89984 -0.36000
O 	O 	0.45103 0.18644 0.84461 -0.36200
O 	O 	0.61516 0.32462 0.91054 -0.70000
O 	O 	0.79667 0.43760 0.91441 -0.35400
O 	O 	0.44128 0.29246 0.89838 -0.33400
O 	O 	0.52459 0.44167 0.90071 -0.35800
Ni	Ni	0.62394 0.44702 0.92630 1.09100
H 	H 	0.62737 0.28477 0.83650 0.16500
H 	H 	0.61474 0.28429 0.92795 0.19000
C 	C 	0.54232 0.09785 0.91324 0.30400
O 	O 	0.70091 0.54318 0.89891 -0.36700
C 	C 	0.79860 0.24996 0.84986 0.28700
C 	C 	0.44975 0.10529 0.83432 0.29400
C 	C 	0.71343 0.52885 0.87008 0.33300
C 	C 	0.45608 0.37856 0.90719 0.30000
C 	C 	0.78663 0.45573 0.94354 0.30200
O 	O 	0.49415 0.13818 0.90294 -0.33300
O 	O 	0.50073 0.06783 0.84533 -0.32900
Ni	Ni	0.60385 0.33400 0.56373 1.10900
O 	O 	0.69689 0.34875 0.53521 -0.69900
Ni	Ni	0.76660 0.30315 0.56149 1.10800
O 	O 	0.56500 0.42654 0.54147 -0.30300
O 	O 	0.69085 0.52984 0.54296 -0.37700
O 	O 	0.52903 0.22993 0.53523 -0.31400
Ni	Ni	0.76029 0.47017 0.52033 1.09600
O 	O 	0.49194 0.15111 0.59021 -0.39300
O 	O 	0.85276 0.52613 0.55150 -0.35400
O 	O 	0.87045 0.34068 0.53689 -0.30000
O 	O 	0.66634 0.27235 0.58703 -0.69900
O 	O 	0.51272 0.30645 0.59341 -0.34200
O 	O 	0.81190 0.23263 0.59148 -0.32900
O 	O 	0.70110 0.10218 0.58500 -0.38100
Ni	Ni	0.60213 0.14097 0.58692 1.07100
H 	H 	0.67918 0.30633 0.51725 0.22500
H 	H 	0.67821 0.29795 0.60827 0.15900
C 	C 	0.85751 0.50091 0.57990 0.34600
O 	O 	0.59331 0.12838 0.54032 -0.38200
C 	C 	0.61650 0.50703 0.53383 0.31300
C 	C 	0.88608 0.39337 0.51229 0.29200
C 	C 	0.54712 0.16067 0.52429 0.29000
C 	C 	0.76858 0.14839 0.59984 0.28000
C 	C 	0.47742 0.22130 0.60322 0.28900
O 	O 	0.81170 0.41930 0.58929 -0.37900
O 	O 	0.82964 0.41417 0.49793 -0.35000
Ni	Ni	0.98935 0.97183 0.75766 1.09700
O 	O 	0.00721 0.87263 0.73147 -0.70400
Ni	Ni	0.06062 0.94616 0.69579 1.10700
O 	O 	0.93471 0.87771 0.79025 -0.35200
O 	O 	0.84213 0.78898 0.75520 -0.40500
O 	O 	0.09530 0.99819 0.78212 -0.32600
Ni	Ni	0.90467 0.78526 0.71592 1.06500
O 	O 	0.09140 0.17256 0.77737 -0.38900
O 	O 	0.86583 0.88431 0.69829 -0.39700
O 	O 	0.07578 0.83803 0.67309 -0.35600
O 	O 	0.03376 0.04573 0.72011 -0.68300
O 	O 	0.96524 0.06947 0.78195 -0.40500
O 	O 	0.13599 0.03480 0.66581 -0.35600
O 	O 	0.17591 0.17577 0.69050 -0.36700
Ni	Ni	0.12487 0.15482 0.73359 1.07800
H 	H 	0.04001 0.84179 0.74179 0.17100
H 	H 	0.99320 0.06578 0.71012 0.13900
C 	C 	0.89960 0.93260 0.67456 0.30600
O 	O 	0.18484 0.07195 0.74588 -0.41300
C 	C 	0.87430 0.80158 0.78306 0.29800
C 	C 	0.01323 0.76138 0.66770 0.30900
C 	C 	0.16573 0.01827 0.76971 0.26300
C 	C 	0.19309 0.11298 0.67436 0.29600
C 	C 	0.01666 0.15377 0.78494 0.34700
O 	O 	0.96822 0.93227 0.66557 -0.36100
O 	O 	0.94118 0.75913 0.67410 -0.41200
Ni	Ni	0.25419 0.66265 0.39109 1.11100
O 	O 	0.34640 0.74382 0.36557 -0.69600
Ni	Ni	0.44004 0.74805 0.39152 1.10900
O 	O 	0.17318 0.67261 0.35889 -0.34200
O 	O 	0.22763 0.83088 0.36048 -0.37500
O 	O 	0.26697 0.55736 0.36604 -0.39800
Ni	Ni	0.35118 0.86983 0.36044 1.07700
O 	O 	0.23984 0.55634 0.45672 -0.35200
O 	O 	0.35222 0.89717 0.40653 -0.35600
O 	O 	0.52499 0.81792 0.36201 -0.35500
O 	O 	0.34763 0.68205 0.41932 -0.70400
O 	O 	0.16253 0.57108 0.41542 -0.30800
O 	O 	0.52383 0.71922 0.41769 -0.32500
O 	O 	0.44482 0.56825 0.41605 -0.36000
Ni	Ni	0.33933 0.56176 0.43525 1.09700
H 	H 	0.34797 0.71506 0.34529 0.16600
H 	H 	0.34528 0.72267 0.43658 0.23100
C 	C 	0.41374 0.90615 0.42460 0.29700
O 	O 	0.27286 0.46108 0.40443 -0.33700
C 	C 	0.17795 0.75304 0.34777 0.29500
C 	C 	0.52127 0.89106 0.34791 0.30100
C 	C 	0.25125 0.47436 0.37647 0.34300
C 	C 	0.51070 0.63384 0.42561 0.30300
C 	C 	0.16976 0.53645 0.44262 0.30400
O 	O 	0.46631 0.86981 0.41662 -0.33900
O 	O 	0.47275 0.93267 0.35750 -0.37900
Ni	Ni	0.38048 0.68521 0.04995 1.10700
O 	O 	0.27500 0.65857 0.02611 -0.69800
Ni	Ni	0.21163 0.69385 0.05761 1.10800
O 	O 	0.41723 0.59829 0.02347 -0.33200
O 	O 	0.29789 0.48424 0.02903 -0.36000
O 	O 	0.43853 0.79177 0.02105 -0.32800
Ni	Ni	0.21222 0.53223 0.01234 1.08900
O 	O 	0.48785 0.87281 0.07879 -0.31500
O 	O 	0.13378 0.47159 0.04644 -0.36200
O 	O 	0.09864 0.63875 0.03814 -0.34000
O 	O 	0.32224 0.73932 0.07822 -0.69900
O 	O 	0.48275 0.72285 0.07560 -0.34600
O 	O 	0.17060 0.75547 0.09168 -0.35200
O 	O 	0.26799 0.89517 0.08359 -0.34500
Ni	Ni	0.37462 0.87291 0.07959 1.09900
H 	H 	0.28219 0.70029 0.00857 0.18900
H 	H 	0.32166 0.71446 0.09903 0.16400
C 	C 	0.14247 0.49751 0.07558 0.32500
O 	O 	0.36876 0.88433 0.03329 -0.33800
C 	C 	0.36800 0.51397 0.01672 0.30400
C 	C 	0.08135 0.60419 0.00976 0.32500
C 	C 	0.41842 0.86404 0.01563 0.29300
C 	C 	0.20985 0.84207 0.10033 0.29000
C 	C 	0.50885 0.80510 0.08942 0.28900
O 	O 	0.19082 0.58043 0.08414 -0.39400
O 	O 	0.13258 0.58127 0.99344 -0.35300
Ni	Ni	0.96165 0.01969 0.26383 1.09100
O 	O 	0.98070 0.12685 0.23449 -0.71800
Ni	Ni	0.92568 0.05838 0.19660 1.09400
O 	O 	0.02243 0.10803 0.29866 -0.34000
O 	O 	0.13039 0.16824 0.26854 -0.40500
O 	O 	0.85783 0.03761 0.27508 -0.38900
Ni	Ni	0.09164 0.18926 0.22482 1.07500
O 	O 	0.88916 0.78569 0.25655 -0.38900
O 	O 	0.10997 0.07254 0.21013 -0.40400
O 	O 	0.93921 0.17177 0.17098 -0.38200
O 	O 	0.92416 0.95162 0.22397 -0.69300
O 	O 	0.93552 0.90789 0.29147 -0.35100
O 	O 	0.84361 0.97375 0.16554 -0.35700
O 	O 	0.76090 0.90464 0.20414 -0.41100
Ni	Ni	0.82677 0.84656 0.23071 1.08000
H 	H 	0.95633 0.17145 0.24139 0.17000
H 	H 	0.96438 0.92573 0.21781 0.16200
C 	C 	0.07705 0.02891 0.18444 0.28900
O 	O 	0.78545 0.88356 0.27008 -0.37700
C 	C 	0.09146 0.17268 0.29338 0.30000
C 	C 	0.01088 0.23682 0.16906 0.32200
C 	C 	0.78963 0.96807 0.27649 0.32900
C 	C 	0.77377 0.91856 0.17469 0.29700
C 	C 	0.93491 0.82764 0.28066 0.30900
O 	O 	0.01524 0.04177 0.17187 -0.35600
O 	O 	0.07478 0.22341 0.18052 -0.39600
C 	C 	0.09558 0.43323 0.09919 -0.08400
C 	C 	0.10305 0.46303 0.13014 -0.05400
C 	C 	0.06806 0.40049 0.15315 0.17600
C 	C 	0.02389 0.30739 0.14546 -0.09900
C 	C 	0.00960 0.27955 0.11445 -0.01000
C 	C 	0.04485 0.34173 0.09130 0.17300
H 	H 	0.13802 0.53412 0.13655 0.07500
O 	O 	0.07794 0.43034 0.18327 -0.28400
H 	H 	0.97486 0.20815 0.10830 0.07100
O 	O 	0.03194 0.31174 0.06123 -0.23200
H 	H 	0.98387 0.32368 0.05431 0.17900
H 	H 	0.12818 0.42407 0.19055 0.13700
C 	C 	0.70606 0.88819 0.15286 -0.10200
C 	C 	0.63585 0.90197 0.16020 -0.04500
C 	C 	0.57022 0.87182 0.13993 0.17100
C 	C 	0.57458 0.82791 0.11197 -0.07700
C 	C 	0.64420 0.81239 0.10483 -0.04400
C 	C 	0.71019 0.84309 0.12507 0.18400
H 	H 	0.63238 0.93671 0.18158 0.07200
O 	O 	0.50237 0.88741 0.14710 -0.29200
H 	H 	0.64774 0.77837 0.08331 0.10300
O 	O 	0.77748 0.82584 0.11821 -0.28100
H 	H 	0.81009 0.87960 0.10632 0.18100
H 	H 	0.46962 0.83190 0.15819 0.13700
C 	C 	0.17816 0.88420 0.12491 -0.09100
C 	C 	0.09751 0.84514 0.13191 -0.05300
C 	C 	0.06527 0.88860 0.15330 0.18900
C 	C 	0.11365 0.97210 0.16789 -0.06700
C 	C 	0.19544 0.00733 0.16275 -0.08900
C 	C 	0.22803 0.96319 0.14159 0.19500
H 	H 	0.05914 0.78233 0.12017 0.09400
O 	O 	0.98657 0.84876 0.16024 -0.31700
H 	H 	0.23332 0.07077 0.17430 0.07900
O 	O 	0.30819 0.99835 0.13683 -0.26800
H 	H 	0.33167 0.96659 0.15159 0.14300
H 	H 	0.95728 0.87050 0.14449 0.17300
C 	C 	0.58722 0.94129 0.32810 -0.10300
C 	C 	0.66315 0.98744 0.34138 0.01000
C 	C 	0.73093 0.00741 0.32361 0.13500
C 	C 	0.72279 0.98081 0.29233 -0.06800
C 	C 	0.64662 0.94579 0.27837 -0.06400
C 	C 	0.57892 0.92520 0.29618 0.18000
H 	H 	0.66999 0.00186 0.36589 0.07600
O 	O 	0.80492 0.04472 0.33748 -0.24400
H 	H 	0.63981 0.92806 0.25406 0.06600
O 	O 	0.50482 0.88601 0.28250 -0.29500
H 	H 	0.49289 0.81835 0.28252 0.14600
H 	H 	0.82015 0.11258 0.33573 0.17300
C 	C 	0.20905 0.39457 0.35638 -0.07200
C 	C 	0.13761 0.38897 0.34167 -0.03600
C 	C 	0.09657 0.31351 0.32236 0.18900
C 	C 	0.12876 0.24498 0.31660 -0.10300
C 	C 	0.20002 0.25010 0.33138 -0.03800
C 	C 	0.24020 0.32458 0.35132 0.17600
H 	H 	0.11386 0.44325 0.34526 0.11300
O 	O 	0.02704 0.30919 0.30785 -0.28100
H 	H 	0.22477 0.19704 0.32708 0.07100
O 	O 	0.30992 0.32909 0.36572 -0.24400
H 	H 	0.35241 0.36332 0.35166 0.16700
H 	H 	0.98442 0.27516 0.32189 0.17500
C 	C 	0.99202 0.78969 0.29362 -0.11700
C 	C 	0.06988 0.82145 0.28310 -0.03500
C 	C 	0.13063 0.80642 0.30011 0.16600
C 	C 	0.11321 0.75708 0.32744 -0.08900
C 	C 	0.03421 0.71910 0.33670 -0.02800
C 	C 	0.97366 0.73552 0.31992 0.16800
H 	H 	0.08411 0.86215 0.26258 0.05200
O 	O 	0.20691 0.83961 0.28990 -0.29600
H 	H 	0.02023 0.68032 0.35761 0.10300
O 	O 	0.89758 0.70344 0.33031 -0.24600
H 	H 	0.87175 0.64161 0.32029 0.17200
H 	H 	0.23084 0.90338 0.29866 0.14300
C 	C 	0.44248 0.01849 0.50376 0.02900
C 	C 	0.50040 0.10491 0.49806 0.01800
C 	C 	0.51912 0.13159 0.46741 -0.09300
C 	C 	0.48832 0.06556 0.44351 0.04700
C 	C 	0.43495 0.97669 0.44950 0.01800
C 	C 	0.40735 0.95482 0.47959 -0.07300
C 	C 	0.34637 0.86095 0.48665 0.77400
H 	H 	0.42727 0.99944 0.52725 0.09600
H 	H 	0.50791 0.08217 0.42029 0.08300
C 	C 	0.57668 0.22725 0.46012 0.77800
F 	F 	0.31149 0.86344 0.51445 -0.42200
F 	F 	0.38337 0.79698 0.48827 -0.45400
F 	F 	0.28633 0.83303 0.46432 -0.45900
F 	F 	0.65355 0.23143 0.46579 -0.46100
F 	F 	0.56217 0.29415 0.47767 -0.45900
F 	F 	0.56925 0.24719 0.42962 -0.41200
C 	C 	0.96277 0.38255 0.46669 0.03900
C 	C 	0.96334 0.41406 0.49712 0.00500
C 	C 	0.03527 0.47796 0.51036 -0.07700
C 	C 	0.09906 0.52103 0.49132 0.05900
C 	C 	0.09779 0.49219 0.46071 0.01500
C 	C 	0.03085 0.41772 0.44875 -0.07100
C 	C 	0.03110 0.37608 0.41707 0.79000
H 	H 	0.90847 0.33252 0.45675 0.10400
H 	H 	0.15021 0.57803 0.50039 0.11200
C 	C 	0.04230 0.51073 0.54352 0.79500
F 	F 	0.96805 0.29314 0.41255 -0.44600
F 	F 	0.10031 0.35858 0.41347 -0.44600
F 	F 	0.02517 0.43652 0.39502 -0.44100
F 	F 	0.99988 0.44152 0.56272 -0.45000
F 	F 	0.01605 0.58369 0.54528 -0.44700
F 	F 	0.12077 0.54153 0.55392 -0.41800
C 	C 	0.53662 0.64743 0.48158 0.03600
C 	C 	0.55266 0.61765 0.45278 -0.00300
C 	C 	0.59880 0.56113 0.45080 -0.08500
C 	C 	0.62015 0.52663 0.47781 0.06400
C 	C 	0.59901 0.55094 0.50651 -0.01500
C 	C 	0.56029 0.61526 0.50867 -0.07600
C 	C 	0.54116 0.64629 0.53970 0.77300
H 	H 	0.50211 0.69189 0.48276 0.08700
H 	H 	0.65171 0.47901 0.47656 0.05500
C 	C 	0.62099 0.53287 0.41989 0.78200
F 	F 	0.51143 0.71677 0.53714 -0.41700
F 	F 	0.60919 0.67845 0.55826 -0.43500
F 	F 	0.48507 0.57243 0.55350 -0.42100
F 	F 	0.64687 0.60832 0.40105 -0.43000
F 	F 	0.55539 0.46539 0.40619 -0.41200
F 	F 	0.68148 0.49814 0.42288 -0.41700
C 	C 	0.86421 0.99330 0.65925 -0.10100
C 	C 	0.91440 0.07803 0.64798 -0.06400
C 	C 	0.88385 0.13092 0.62948 0.16300
C 	C 	0.80174 0.09913 0.62200 -0.07900
C 	C 	0.75090 0.01720 0.63497 -0.09600
C 	C 	0.78190 0.96366 0.65309 0.20100
H 	H 	0.97780 0.10200 0.65297 0.06100
O 	O 	0.93492 0.21124 0.61764 -0.24000
H 	H 	0.68738 0.99375 0.63039 0.08300
O 	O 	0.73167 0.88205 0.66446 -0.27900
H 	H 	0.72772 0.83434 0.64845 0.17600
H 	H 	0.93928 0.26013 0.63326 0.16600
C 	C 	0.40429 0.20034 0.62094 -0.08500
C 	C 	0.40949 0.22140 0.65251 -0.05600
C 	C 	0.34084 0.19294 0.67012 0.16700
C 	C 	0.26594 0.14469 0.65597 -0.08500
C 	C 	0.26074 0.12580 0.62420 -0.04900
C 	C 	0.32944 0.15269 0.60678 0.18100
H 	H 	0.46690 0.25782 0.66360 0.05700
O 	O 	0.34718 0.21236 0.70107 -0.28000
H 	H 	0.20340 0.09021 0.61296 0.09600
O 	O 	0.32300 0.13454 0.57574 -0.24600
H 	H 	0.32599 0.07219 0.57322 0.17600
H 	H 	0.35528 0.15870 0.71067 0.14300
C 	C 	0.91719 0.56648 0.60130 -0.06500
C 	C 	0.95349 0.65950 0.59315 -0.04400
C 	C 	0.00847 0.72285 0.61315 0.21300
C 	C 	0.01699 0.69774 0.64337 -0.06900
C 	C 	0.99189 0.60335 0.64992 -0.09300
C 	C 	0.94102 0.53736 0.62914 0.19300
H 	H 	0.93851 0.68299 0.57142 0.11300
O 	O 	0.04246 0.81344 0.60498 -0.25600
H 	H 	0.00396 0.58219 0.67248 0.08000
O 	O 	0.91617 0.44531 0.63586 -0.25600
H 	H 	0.86833 0.43344 0.64832 0.13900
H 	H 	0.09419 0.81875 0.59630 0.19500
C 	C 	0.94211 0.49752 0.00729 0.06000
C 	C 	1.00000 0.57925 0.99755 -0.01400
C 	C 	0.98300 0.62704 0.97268 -0.10300
C 	C 	0.91247 0.58513 0.95525 0.06000
C 	C 	0.85722 0.49944 0.96344 0.00500
C 	C 	0.87104 0.45560 0.99005 -0.09700
C 	C 	0.81066 0.36412 0.99992 0.78300
H 	H 	0.95470 0.46399 0.02731 0.06900
H 	H 	0.90086 0.61835 0.93496 0.07700
C 	C 	0.04202 0.72003 0.96358 0.79300
F 	F 	0.83955 0.32734 0.02410 -0.43300
F 	F 	0.79144 0.30028 0.97577 -0.44600
F 	F 	0.74267 0.37735 0.00919 -0.41200
F 	F 	0.10277 0.70694 0.94771 -0.42200
F 	F 	0.07362 0.77523 0.98938 -0.43000
F 	F 	0.00620 0.76645 0.94506 -0.42100
C 	C 	0.54214 0.06832 0.96888 0.06900
C 	C 	0.51777 0.03409 0.93900 -0.01100
C 	C 	0.46452 0.94178 0.93420 -0.06100
C 	C 	0.43042 0.88881 0.95967 0.04900
C 	C 	0.45347 0.92360 0.98960 0.03700
C 	C 	0.51244 0.01299 0.99438 -0.10000
C 	C 	0.54793 0.04664 0.02619 0.77500
H 	H 	0.58400 0.13848 0.97221 0.09400
H 	H 	0.38597 0.82013 0.95626 0.09300
C 	C 	0.44193 0.90067 0.90203 0.77900
F 	F 	0.60449 0.13512 0.02590 -0.39500
F 	F 	0.58431 0.98831 0.03731 -0.41600
F 	F 	0.48923 0.04805 0.04580 -0.45000
F 	F 	0.50921 0.91822 0.88493 -0.43800
F 	F 	0.39218 0.93923 0.88805 -0.42800
F 	F 	0.40298 0.80574 0.90236 -0.39900
C 	C 	0.37079 0.50860 0.96016 0.04700
C 	C 	0.37879 0.46916 0.98817 -0.02000
C 	C 	0.39723 0.38796 0.98857 -0.08400
C 	C 	0.41405 0.35235 0.96082 0.03700
C 	C 	0.41286 0.39687 0.93312 -0.01100
C 	C 	0.38465 0.47082 0.93241 -0.09100
C 	C 	0.37400 0.51333 0.90231 0.77900
H 	H 	0.35493 0.56976 0.96010 0.06000
H 	H 	0.43332 0.29373 0.96093 0.07800
C 	C 	0.40225 0.34179 0.01860 0.77500
F 	F 	0.32143 0.55947 0.90510 -0.41300
F 	F 	0.34400 0.44554 0.87958 -0.42900
F 	F 	0.44646 0.57557 0.89360 -0.41300
F 	F 	0.32997 0.31597 0.03279 -0.42300
F 	F 	0.46031 0.40283 0.03772 -0.42400
F 	F 	0.42089 0.26340 0.01418 -0.41400
C 	C 	0.99530 0.21779 0.80481 -0.12300
C 	C 	0.95497 0.27042 0.79122 -0.04700
C 	C 	0.89122 0.28281 0.80609 0.16100
C 	C 	0.87048 0.24636 0.83535 -0.08600
C 	C 	0.91985 0.20841 0.85096 -0.05000
C 	C 	0.98390 0.19696 0.83608 0.17500
H 	H 	0.96649 0.29180 0.76771 0.04200
O 	O 	0.84812 0.32821 0.79165 -0.27900
H 	H 	0.90735 0.18544 0.87427 0.08800
O 	O 	0.02828 0.15365 0.85077 -0.24100
H 	H 	0.07420 0.20428 0.86033 0.18600
H 	H 	0.80539 0.27962 0.77975 0.13300
C 	C 	0.37572 0.04430 0.81907 -0.05900
C 	C 	0.30472 0.02093 0.83504 -0.04900
C 	C 	0.23193 0.99852 0.81900 0.19100
C 	C 	0.23024 0.99970 0.78667 -0.06400
C 	C 	0.29919 0.00516 0.77109 -0.08300
C 	C 	0.37227 0.02987 0.78714 0.17400
H 	H 	0.30667 0.02847 0.85982 0.12700
O 	O 	0.16388 0.98296 0.83496 -0.24200
H 	H 	0.29748 0.99896 0.74627 0.07900
O 	O 	0.44051 0.04414 0.77142 -0.28300
H 	H 	0.45903 0.10985 0.76545 0.13900
H 	H 	0.14172 0.91522 0.83791 0.18700
C 	C 	0.75218 0.60816 0.85076 -0.09200
C 	C 	0.83438 0.65563 0.85402 -0.04600
C 	C 	0.87449 0.72136 0.83261 0.17900
C 	C 	0.83197 0.74030 0.80771 -0.09800
C 	C 	0.74897 0.69606 0.80546 -0.05100
C 	C 	0.70928 0.62940 0.82663 0.17500
H 	H 	0.86773 0.63907 0.87253 0.08900
O 	O 	0.95567 0.76236 0.83496 -0.27600
H 	H 	0.71532 0.71202 0.78695 0.08000
O 	O 	0.62840 0.58571 0.82387 -0.24700
H 	H 	0.61993 0.53060 0.81043 0.15200
H 	H 	0.96603 0.81810 0.84830 0.18800
