data_crystal

_cell_length_a 18.67899
_cell_length_b 18.84544
_cell_length_c 35.16037
_cell_angle_alpha 95.41524
_cell_angle_beta  95.41576
_cell_angle_gamma 126.39592

_symmetry_space_group_name_	'P 1'
_symmetry_space_group_name_H-M	'P 1'

loop_
_symmetry_equiv_pos_as_xyz
  x,y,z

loop_
_atom_site_label
_atom_site_type_symbol
_atom_site_fract_x
_atom_site_fract_y
_atom_site_fract_z
_atom_site_charge
C 	C 	0.89401 0.98886 0.95812 0.01400
C 	C 	0.98807 0.04643 0.96020 -0.05700
C 	C 	0.03792 0.01314 0.96277 0.00700
C 	C 	0.99421 0.92211 0.96312 -0.05900
C 	C 	0.90025 0.86341 0.96068 0.01600
C 	C 	0.84980 0.89686 0.95843 -0.06500
H 	H 	0.02265 0.11740 0.96053 0.04400
H 	H 	0.03339 0.89687 0.96533 0.04400
H 	H 	0.77716 0.85193 0.95690 0.04700
C 	C 	0.96534 0.04872 0.50475 0.02400
C 	C 	0.05764 0.09126 0.50414 -0.07300
C 	C 	0.08984 0.04012 0.50102 0.02300
C 	C 	0.02970 0.94698 0.49831 -0.07400
C 	C 	0.93823 0.90478 0.49913 0.02500
C 	C 	0.90606 0.95542 0.50239 -0.07200
H 	H 	0.10385 0.16334 0.50600 0.04700
H 	H 	0.05413 0.90728 0.49553 0.04800
H 	H 	0.83473 0.92212 0.50236 0.04800
Cu	Cu	0.74025 0.33068 0.95638 0.92700
Cu	Cu	0.72756 0.26028 0.03921 0.86200
Cu	Cu	0.60187 0.29404 0.00695 0.89100
Cu	Cu	0.57735 0.33372 0.92898 0.89400
C 	C 	0.67937 0.30993 0.87502 0.30000
O 	O 	0.79687 0.46304 0.95560 -0.36100
C 	C 	0.65453 0.31566 0.09160 0.29500
O 	O 	0.60034 0.26239 0.95315 -0.63700
O 	O 	0.73272 0.34737 0.01188 -0.64700
O 	O 	0.79653 0.26712 0.95963 -0.37000
O 	O 	0.69709 0.17355 0.99580 -0.43700
O 	O 	0.64453 0.35107 0.88533 -0.39000
O 	O 	0.47284 0.23301 0.99994 -0.38000
C 	C 	0.42239 0.23111 0.97022 0.28900
C 	C 	0.75907 0.49921 0.96870 0.28300
O 	O 	0.67575 0.44683 0.97455 -0.39500
O 	O 	0.45868 0.28409 0.94460 -0.39500
O 	O 	0.72280 0.29556 0.90124 -0.37000
C 	C 	0.75629 0.19209 0.97347 0.28800
O 	O 	0.60525 0.31852 0.06304 -0.38500
O 	O 	0.72476 0.31818 0.08605 -0.42500
H 	H 	0.55844 0.19728 0.94222 0.16400
H 	H 	0.77396 0.40986 0.02656 0.17200
Cu	Cu	0.63173 0.21314 0.50751 0.92600
Cu	Cu	0.70731 0.22730 0.42583 0.86600
Cu	Cu	0.66642 0.34858 0.45626 0.89600
Cu	Cu	0.62162 0.37043 0.53331 0.89400
C 	C 	0.64860 0.27313 0.58843 0.30000
O 	O 	0.49756 0.15320 0.50711 -0.36500
C 	C 	0.65483 0.30021 0.37247 0.29300
O 	O 	0.69732 0.35123 0.51035 -0.64000
O 	O 	0.61650 0.21987 0.45178 -0.64000
O 	O 	0.69637 0.15827 0.50554 -0.37300
O 	O 	0.79265 0.25746 0.47016 -0.44300
O 	O 	0.60490 0.30499 0.57731 -0.39000
O 	O 	0.72427 0.47573 0.46293 -0.38700
C 	C 	0.72269 0.52435 0.49203 0.29200
C 	C 	0.45900 0.18800 0.49320 0.28200
O 	O 	0.51000 0.27063 0.48726 -0.39900
O 	O 	0.66852 0.48701 0.51727 -0.39700
O 	O 	0.66549 0.23124 0.56284 -0.36900
C 	C 	0.77267 0.19820 0.49231 0.28900
O 	O 	0.64459 0.34487 0.39997 -0.38200
O 	O 	0.65139 0.23027 0.37827 -0.42100
H 	H 	0.76269 0.39432 0.52175 0.16300
H 	H 	0.55398 0.17748 0.43664 0.17300
C 	C 	0.66676 0.27330 0.63030 -0.11200
C 	C 	0.63523 0.19318 0.64448 0.12900
C 	C 	0.65076 0.19691 0.68479 -0.10000
C 	C 	0.68536 0.27575 0.71107 0.00100
C 	C 	0.71655 0.35567 0.69696 0.05700
C 	C 	0.70969 0.35404 0.65675 -0.02400
N 	N 	0.58544 0.11216 0.62002 -0.20300
H 	H 	0.62814 0.13619 0.69574 0.05600
C 	C 	0.68045 0.27178 0.75280 0.00100
N 	N 	0.75138 0.43358 0.72169 -0.19200
H 	H 	0.73452 0.41539 0.64592 0.03100
C 	C 	0.75987 0.30810 0.77962 -0.10000
C 	C 	0.76241 0.32427 0.81976 0.12900
C 	C 	0.68066 0.29174 0.83336 -0.11200
C 	C 	0.59951 0.24731 0.80645 -0.02400
C 	C 	0.59893 0.23969 0.76631 0.05700
H 	H 	0.82185 0.33146 0.76914 0.05600
N 	N 	0.84374 0.37562 0.84458 -0.20300
H 	H 	0.53694 0.22174 0.81683 0.03100
N 	N 	0.52043 0.20323 0.74106 -0.19200
H 	H 	0.90234 0.39319 0.83468 0.08400
H 	H 	0.85115 0.40497 0.87278 0.09900
H 	H 	0.46064 0.17930 0.75140 0.07900
H 	H 	0.51784 0.19913 0.71111 0.08700
H 	H 	0.77468 0.49219 0.71091 0.07900
H 	H 	0.75478 0.43685 0.75165 0.08700
H 	H 	0.55652 0.10360 0.59150 0.09900
H 	H 	0.56864 0.05487 0.63045 0.08400
C 	C 	0.63886 0.32299 0.13153 -0.11100
C 	C 	0.57445 0.24555 0.14591 0.11800
C 	C 	0.57337 0.25198 0.18594 -0.09700
C 	C 	0.63382 0.33460 0.21153 -0.00000
C 	C 	0.69222 0.41337 0.19657 0.05500
C 	C 	0.69527 0.40653 0.15671 -0.02100
N 	N 	0.51435 0.16483 0.12160 -0.20400
H 	H 	0.52708 0.19207 0.19737 0.05300
C 	C 	0.64352 0.33589 0.25400 -0.00100
N 	N 	0.74520 0.49545 0.22026 -0.19200
H 	H 	0.74286 0.46616 0.14541 0.03700
C 	C 	0.71661 0.34169 0.27313 -0.09600
C 	C 	0.72461 0.33617 0.31263 0.11700
C 	C 	0.65547 0.31976 0.33279 -0.11000
C 	C 	0.58387 0.31696 0.31405 -0.02200
C 	C 	0.57786 0.32617 0.27489 0.05600
H 	H 	0.76769 0.35086 0.25723 0.05300
N 	N 	0.79961 0.34861 0.33119 -0.20200
H 	H 	0.53197 0.30630 0.32976 0.04200
N 	N 	0.50956 0.32630 0.25771 -0.19200
H 	H 	0.84856 0.35721 0.31573 0.07600
H 	H 	0.81214 0.35393 0.36129 0.06100
H 	H 	0.46019 0.31696 0.27308 0.07900
H 	H 	0.50606 0.33803 0.22941 0.08500
H 	H 	0.79026 0.55302 0.20924 0.07900
H 	H 	0.73999 0.50329 0.24942 0.08500
H 	H 	0.51085 0.15844 0.09154 0.07300
H 	H 	0.46857 0.10757 0.13263 0.07700
C 	C 	0.85029 0.77168 0.53033 -0.06300
C 	C 	0.87616 0.80726 0.49661 0.01600
C 	C 	0.84856 0.74974 0.46105 -0.06300
C 	C 	0.79716 0.65721 0.45935 0.01200
C 	C 	0.77322 0.62148 0.49332 -0.08900
C 	C 	0.79918 0.67921 0.52874 0.01100
H 	H 	0.87164 0.81588 0.55792 0.04300
H 	H 	0.86817 0.77690 0.43486 0.04400
H 	H 	0.77633 0.61345 0.43169 0.03700
H 	H 	0.78140 0.65265 0.55518 0.02700
C 	C 	0.88464 0.17824 0.47090 0.01000
C 	C 	0.83008 0.16859 0.49806 -0.09600
C 	C 	0.82898 0.12865 0.52999 0.01400
C 	C 	0.87863 0.09518 0.53373 -0.06400
C 	C 	0.92911 0.10047 0.50537 0.01700
C 	C 	0.93368 0.14425 0.47453 -0.06500
H 	H 	0.88678 0.20945 0.44626 0.01300
H 	H 	0.78894 0.12253 0.55164 0.03700
H 	H 	0.87543 0.06241 0.55793 0.04400
H 	H 	0.97220 0.14863 0.45245 0.04100
C 	C 	0.22412 0.12381 0.46889 -0.06300
C 	C 	0.18637 0.08338 0.50033 0.01500
C 	C 	0.23717 0.07364 0.52842 -0.06200
C 	C 	0.32443 0.10319 0.52491 0.01000
C 	C 	0.36242 0.14397 0.49354 -0.08900
C 	C 	0.31175 0.15409 0.46554 0.00900
H 	H 	0.18506 0.13040 0.44672 0.04100
H 	H 	0.20850 0.04208 0.55271 0.04300
H 	H 	0.36337 0.09659 0.54714 0.03500
H 	H 	0.34054 0.18604 0.44135 0.02800
C 	C 	0.83776 0.63143 0.93576 0.01000
C 	C 	0.80078 0.59446 0.96796 -0.09000
C 	C 	0.79079 0.64410 0.99643 0.01900
C 	C 	0.81825 0.73002 0.99290 -0.05300
C 	C 	0.85564 0.76712 0.96080 0.01600
C 	C 	0.86436 0.71692 0.93204 -0.06200
H 	H 	0.84387 0.59315 0.91311 0.03400
H 	H 	0.76129 0.61592 0.02119 0.01900
H 	H 	0.81243 0.76849 0.01557 0.03200
H 	H 	0.89361 0.74501 0.90723 0.04400
C 	C 	0.84970 0.07752 0.92980 -0.06400
C 	C 	0.84339 0.02670 0.95800 0.01800
C 	C 	0.80253 0.02550 0.98966 -0.05500
C 	C 	0.77277 0.07814 0.99425 0.02000
C 	C 	0.78360 0.13287 0.96721 -0.09600
C 	C 	0.82049 0.13076 0.93450 0.01500
H 	H 	0.88043 0.07844 0.90503 0.04500
H 	H 	0.79750 0.98696 0.01166 0.03000
H 	H 	0.74378 0.07837 0.01949 0.00400
H 	H 	0.82739 0.17084 0.91293 0.03800
C 	C 	0.19439 0.10148 0.00078 -0.07600
C 	C 	0.13632 0.07372 0.96518 0.03200
C 	C 	0.17219 0.09947 0.93148 -0.06700
C 	C 	0.26559 0.15133 0.93316 0.01000
C 	C 	0.32400 0.17825 0.96869 -0.07800
C 	C 	0.28786 0.15366 0.00259 0.00100
H 	H 	0.16698 0.08184 0.02695 0.04300
H 	H 	0.12755 0.07790 0.90385 0.04400
H 	H 	0.29240 0.16934 0.90676 0.02700
H 	H 	0.33204 0.17487 0.03030 0.03700
