data_crystal

_cell_length_a 19.91830
_cell_length_b 21.30961
_cell_length_c 35.50930
_cell_angle_alpha 60.80386
_cell_angle_beta  118.93238
_cell_angle_gamma 133.30622

_symmetry_space_group_name_	'P 1'
_symmetry_space_group_name_H-M	'P 1'

loop_
_symmetry_equiv_pos_as_xyz
  x,y,z

loop_
_atom_site_label
_atom_site_type_symbol
_atom_site_fract_x
_atom_site_fract_y
_atom_site_fract_z
_atom_site_charge
N 	N 	0.64446 0.28884 0.98057 -0.12000
C 	C 	0.59725 0.30783 0.98578 0.15100
N 	N 	0.64164 0.39124 0.98705 -0.13100
N 	N 	0.66707 0.36443 0.52430 -0.12800
C 	C 	0.60892 0.28250 0.51767 0.15500
N 	N 	0.64308 0.25252 0.51073 -0.13200
C 	C 	0.28138 0.64071 0.19424 0.14700
N 	N 	0.36900 0.70368 0.18550 -0.12300
C 	C 	0.41185 0.68060 0.18010 0.15600
N 	N 	0.36551 0.59553 0.18091 -0.12700
C 	C 	0.27630 0.53278 0.18700 0.15400
N 	N 	0.23351 0.55482 0.19387 -0.12800
C 	C 	0.28461 0.63272 0.67910 0.15100
N 	N 	0.37296 0.65175 0.69556 -0.12300
C 	C 	0.38645 0.59571 0.69724 0.15400
N 	N 	0.31072 0.51963 0.68398 -0.13300
C 	C 	0.22596 0.50653 0.66212 0.15200
N 	N 	0.21204 0.56252 0.66002 -0.11900
Co	Co	0.09164 0.04673 0.04686 1.17800
Co	Co	0.03397 0.11018 0.08941 1.18400
C 	C 	0.28041 0.08376 0.06203 0.27900
Co	Co	0.11387 0.90901 0.04656 1.17500
O 	O 	0.09085 0.14633 0.04127 -0.44400
C 	C 	0.14074 0.21598 0.16072 0.30200
C 	C 	0.10704 0.79534 0.14054 0.32000
O 	O 	0.13667 0.01159 0.98975 -0.40200
O 	O 	0.08020 0.14582 0.18572 -0.38400
O 	O 	0.14477 0.20909 0.12618 -0.34200
O 	O 	0.09098 0.79856 0.09945 -0.39700
O 	O 	0.07784 0.82496 0.15001 -0.36600
O 	O 	0.06653 0.94425 0.06932 -0.74100
O 	O 	0.24559 0.99869 0.07867 -0.36100
O 	O 	0.23847 0.11431 0.06012 -0.35000
Co	Co	0.05271 0.00969 0.54401 1.17500
C 	C 	0.22917 0.08804 0.52354 0.32900
Co	Co	0.10715 0.89087 0.54933 1.17900
O 	O 	0.03414 0.09991 0.53498 -0.44800
C 	C 	0.02177 0.18135 0.62743 0.29600
C 	C 	0.20466 0.87119 0.64303 0.31100
O 	O 	0.97726 0.11651 0.65923 -0.38100
O 	O 	0.05599 0.17098 0.60819 -0.38300
O 	O 	0.21971 0.92410 0.60352 -0.36800
O 	O 	0.14814 0.85865 0.65992 -0.36000
O 	O 	0.05952 0.92273 0.57411 -0.73600
O 	O 	0.17694 0.01722 0.50915 -0.40800
O 	O 	0.19490 0.09709 0.54291 -0.38500
C 	C 	0.00396 0.01467 0.83045 0.01300
C 	C 	0.99301 0.01871 0.78692 -0.04700
C 	C 	0.99403 0.06726 0.83771 -0.04800
C 	C 	0.00745 0.06450 0.88123 0.02400
H 	H 	0.97420 0.06095 0.75861 0.05900
H 	H 	0.97808 0.11178 0.80983 0.06500
H 	H 	0.00470 0.10886 0.88624 0.05600
C 	C 	0.06793 0.36524 0.64970 -0.05800
C 	C 	0.15386 0.43745 0.63710 -0.00900
C 	C 	0.18068 0.43079 0.60975 0.10400
C 	C 	0.13518 0.34736 0.60467 -0.01800
C 	C 	0.05628 0.27202 0.62273 -0.09200
C 	C 	0.01592 0.28404 0.64010 0.14600
H 	H 	0.04365 0.37082 0.66865 0.10200
H 	H 	0.16158 0.34132 0.58706 0.07500
Br	Br	0.27753 0.53520 0.57850 -0.18400
C 	C 	0.49392 0.60186 0.67622 -0.06000
C 	C 	0.48276 0.62759 0.70139 -0.01600
C 	C 	0.56434 0.69274 0.72473 0.10200
C 	C 	0.65226 0.74293 0.71558 -0.02400
C 	C 	0.65898 0.72892 0.68309 -0.08800
C 	C 	0.58120 0.65338 0.66625 0.14500
Br	Br	0.59047 0.62371 0.62670 -0.18100
H 	H 	0.43356 0.54523 0.66208 0.09400
Br	Br	0.55876 0.70939 0.77138 -0.18600
C 	C 	0.33910 0.78642 0.66616 -0.05900
C 	C 	0.27035 0.69412 0.67753 -0.01300
C 	C 	0.18899 0.66157 0.68738 0.10000
C 	C 	0.17161 0.72091 0.68003 -0.01700
C 	C 	0.23658 0.81300 0.66464 -0.08600
C 	C 	0.32378 0.84559 0.66101 0.13600
Br	Br	0.42416 0.97052 0.65064 -0.17200
H 	H 	0.40427 0.81244 0.66088 0.09000
H 	H 	0.10602 0.69503 0.68480 0.07000
Br	Br	0.10561 0.53820 0.71456 -0.18500
C 	C 	0.19309 0.43600 0.13791 -0.06000
C 	C 	0.22403 0.44425 0.18119 -0.01900
C 	C 	0.23579 0.38076 0.21722 0.10200
C 	C 	0.22101 0.31282 0.20979 -0.02300
C 	C 	0.19061 0.30469 0.16644 -0.08300
C 	C 	0.18178 0.37026 0.13024 0.14000
Br	Br	0.16540 0.37839 0.07046 -0.20900
H 	H 	0.18686 0.48627 0.10990 0.08100
H 	H 	0.22852 0.26340 0.23794 0.07200
Br	Br	0.27506 0.38754 0.27706 -0.18300
C 	C 	0.65877 0.79073 0.17864 -0.01400
C 	C 	0.66653 0.85288 0.13754 -0.09500
C 	C 	0.59302 0.86348 0.11227 0.15000
C 	C 	0.51264 0.81163 0.12832 -0.05900
C 	C 	0.50439 0.74849 0.16914 -0.01400
C 	C 	0.57919 0.74001 0.19494 0.10300
Br	Br	0.57512 0.66155 0.25328 -0.18500
H 	H 	0.45473 0.81769 0.10816 0.08500
Br	Br	0.59908 0.94532 0.05485 -0.17100
C 	C 	0.13563 0.61609 0.19071 -0.06300
C 	C 	0.23508 0.66798 0.19963 -0.01200
C 	C 	0.28888 0.75297 0.20668 0.10000
C 	C 	0.24451 0.79330 0.19279 -0.01800
C 	C 	0.14598 0.74614 0.17634 -0.08800
C 	C 	0.09170 0.65394 0.18195 0.14500
H 	H 	0.09257 0.54726 0.19017 0.09200
H 	H 	0.28710 0.86241 0.19276 0.07400
Br	Br	0.41843 0.80925 0.24027 -0.17100
Br	Br	0.63513 0.02992 0.47536 -0.19800
H 	H 	0.63263 0.17119 0.47065 0.08300
C 	C 	0.44044 0.21753 0.48045 -0.06500
C 	C 	0.51029 0.22566 0.52005 -0.01900
C 	C 	0.48982 0.20015 0.56011 0.10300
C 	C 	0.39926 0.16423 0.56033 -0.01300
C 	C 	0.32852 0.15346 0.52088 -0.09800
C 	C 	0.35110 0.18466 0.48049 0.14400
Br	Br	0.26105 0.18458 0.42494 -0.21700
H 	H 	0.45724 0.24130 0.44924 0.08200
H 	H 	0.38253 0.14046 0.59156 0.07400
Br	Br	0.58594 0.21650 0.61469 -0.17000
C 	C 	0.43424 0.24777 0.97865 -0.05000
C 	C 	0.50639 0.23594 0.99920 -0.01300
C 	C 	0.50168 0.17175 0.03989 0.09400
C 	C 	0.43199 0.12819 0.06157 -0.02800
C 	C 	0.36293 0.14379 0.04229 -0.08000
C 	C 	0.36459 0.20470 0.00032 0.12000
Br	Br	0.27669 0.23475 0.97253 -0.20600
H 	H 	0.43666 0.29616 0.94715 0.08100
H 	H 	0.43004 0.08006 0.09313 0.07100
Br	Br	0.58740 0.13992 0.06614 -0.19500
O 	O 	0.03606 0.99429 0.10601 -0.55500
C 	C 	0.06875 0.02078 0.96395 0.30900
Co	Co	0.02672 0.85815 0.62332 1.18900
O 	O 	0.02217 0.97138 0.60879 -0.56500
C 	C 	0.99512 0.97651 0.33891 0.01500
C 	C 	0.00741 0.99545 0.29762 0.04200
C 	C 	0.70549 0.19321 0.48602 -0.06200
O 	O 	0.00436 0.94060 0.71930 -0.35700
O 	O 	0.03888 0.76075 0.58649 -0.39800
H 	H 	0.03408 0.06169 0.27582 0.02300
H 	H 	0.04506 0.10933 0.33065 0.06700
O 	O 	0.03055 0.03078 0.98091 -0.36600
C 	C 	0.00196 0.96489 0.77983 -0.01600
C 	C 	0.02606 0.91035 0.81682 0.00200
C 	C 	0.03664 0.90598 0.86003 -0.03800
C 	C 	0.02420 0.95686 0.86701 0.03700
C 	C 	0.02883 0.00777 0.91798 -0.08200
C 	C 	0.03355 0.95154 0.91037 0.02600
H 	H 	0.04900 0.90675 0.93841 0.04400
C 	C 	0.01697 0.04265 0.35195 -0.04300
H 	H 	0.02426 0.07607 0.40286 0.06500
H 	H 	0.03207 0.86794 0.81213 0.05700
H 	H 	0.05326 0.86199 0.88802 0.05900
C 	C 	0.00391 0.02344 0.39288 -0.01000
H 	H 	0.75942 0.55831 0.48141 0.08100
H 	H 	0.74832 0.60124 0.93340 0.07900
C 	C 	0.73982 0.34853 0.98400 0.16400
C 	C 	0.73542 0.45295 0.98853 0.16200
C 	C 	0.73670 0.30486 0.51094 0.14900
C 	C 	0.76059 0.41545 0.52696 0.15400
H 	H 	0.71399 0.79674 0.73148 0.06900
H 	H 	0.71655 0.78442 0.19878 0.06200
C 	C 	0.77239 0.27055 0.50224 -0.01000
C 	C 	0.73057 0.14026 0.49276 0.14500
H 	H 	0.80144 0.29249 0.06919 0.10100
Br	Br	0.78756 0.76224 0.93433 -0.19300
N 	N 	0.78508 0.43157 0.98736 -0.12700
N 	N 	0.79612 0.38653 0.51980 -0.11300
C 	C 	0.75780 0.91665 0.12557 0.33500
C 	C 	0.73350 0.80439 0.65869 0.31100
O 	O 	0.73293 0.87439 0.63506 -0.36300
Br	Br	0.77348 0.68619 0.50215 -0.19900
C 	C 	0.79507 0.31279 0.00252 -0.02600
C 	C 	0.81164 0.29523 0.97541 0.11000
Br	Br	0.78781 0.34104 0.91230 -0.19200
C 	C 	0.77774 0.60357 0.96795 -0.04900
C 	C 	0.78520 0.53524 0.00055 -0.04200
C 	C 	0.80421 0.67298 0.97984 0.14200
C 	C 	0.80221 0.56130 0.51511 -0.06300
C 	C 	0.81352 0.27897 0.04819 -0.05900
O 	O 	0.80212 0.00194 0.11966 -0.37200
O 	O 	0.79247 0.88811 0.11912 -0.38300
O 	O 	0.79351 0.79787 0.65684 -0.36200
C 	C 	0.82284 0.16420 0.51579 -0.08700
C 	C 	0.82259 0.49862 0.54077 -0.01500
C 	C 	0.82576 0.61992 0.53430 0.13600
C 	C 	0.83410 0.21801 0.06652 0.15700
C 	C 	0.81698 0.53576 0.04561 0.10900
C 	C 	0.86954 0.30427 0.51584 0.10500
C 	C 	0.84944 0.24608 0.99510 -0.00100
C 	C 	0.86219 0.20762 0.04115 -0.09600
Br	Br	0.82058 0.14849 0.12624 -0.25900
H 	H 	0.87047 0.23980 0.97485 0.07700
C 	C 	0.83422 0.09422 0.55013 0.31200
C 	C 	0.84319 0.60520 0.05738 -0.02900
C 	C 	0.84217 0.67665 0.02472 -0.08900
Br	Br	0.82394 0.44145 0.09166 -0.19800
C 	C 	0.89382 0.25166 0.52086 -0.02200
C 	C 	0.87343 0.50018 0.58535 0.10600
O 	O 	0.88891 0.77890 0.06034 -0.36900
O 	O 	0.80372 0.05838 0.58567 -0.37100
O 	O 	0.85921 0.05882 0.54237 -0.38000
C 	C 	0.88327 0.62653 0.57747 -0.08600
H 	H 	0.86982 0.60628 0.09185 0.08300
C 	C 	0.90804 0.76365 0.03560 0.31000
O 	O 	0.89822 0.96712 0.20860 -0.38800
Co	Co	0.84964 0.99610 0.64767 1.18300
O 	O 	0.87900 0.93124 0.71303 -0.39200
C 	C 	0.90297 0.56346 0.60345 -0.01700
Br	Br	0.89770 0.41265 0.62291 -0.17000
Br	Br	0.96125 0.57852 0.18330 -0.20900
O 	O 	0.97350 0.91545 0.21522 -0.36400
Co	Co	0.97674 0.06003 0.58394 1.17500
C 	C 	0.94275 0.84174 0.31120 0.02500
C 	C 	0.93402 0.82342 0.35313 -0.05400
C 	C 	0.95769 0.88996 0.36667 0.03700
H 	H 	0.90606 0.75675 0.37441 0.06400
O 	O 	0.97712 0.97287 0.48177 -0.34400
C 	C 	0.97646 0.92700 0.28242 -0.07900
C 	C 	0.94413 0.87066 0.40771 -0.02500
H 	H 	0.91788 0.78820 0.30017 0.04900
H 	H 	0.91628 0.80413 0.42923 0.06600
O 	O 	0.98685 0.85952 0.49890 -0.37200
Br	Br	0.88660 0.19567 0.64557 -0.23200
Co	Co	0.93181 0.92766 0.14556 1.19000
Co	Co	0.99082 0.86521 0.10332 1.18400
Co	Co	0.93853 0.07641 0.15545 1.18000
O 	O 	0.97366 0.19013 0.10523 -0.38800
O 	O 	0.97720 0.03582 0.13123 -0.76700
C 	C 	0.92916 0.18240 0.06494 0.32800
O 	O 	0.91244 0.82239 0.14305 -0.44600
O 	O 	0.93304 0.13885 0.05014 -0.37500
C 	C 	0.95021 0.93834 0.23344 0.30100
O 	O 	0.97588 0.82884 0.01415 -0.38500
Co	Co	0.93813 0.89997 0.65973 1.18300
C 	C 	0.95094 0.71367 0.58797 0.31200
O 	O 	0.92441 0.98315 0.62793 -0.73300
O 	O 	0.97730 0.82251 0.67417 -0.44600
C 	C 	0.97783 0.92284 0.46934 0.28600
C 	C 	0.96330 0.95022 0.73445 0.27600
O 	O 	0.92513 0.74353 0.59971 -0.37100
C 	C 	0.96951 0.93807 0.42163 -0.02300
H 	H 	0.96748 0.27621 0.53220 0.06200
Br	Br	0.97057 0.42410 0.52211 -0.18700
H 	H 	0.94610 0.56689 0.63705 0.07600
