data_crystal

_cell_length_a 24.64513
_cell_length_b 25.04865
_cell_length_c 22.05134
_cell_angle_alpha 95.47811
_cell_angle_beta  95.47729
_cell_angle_gamma 125.82278

_symmetry_space_group_name_	'P 1'
_symmetry_space_group_name_H-M	'P 1'

loop_
_symmetry_equiv_pos_as_xyz
  x,y,z

loop_
_atom_site_label
_atom_site_type_symbol
_atom_site_fract_x
_atom_site_fract_y
_atom_site_fract_z
_atom_site_charge
C 	C 	0.07573 0.02200 0.98737 -0.00500
C 	C 	0.05229 0.06110 0.99659 -0.04300
H 	H 	0.08795 0.11534 0.00474 0.05300
C 	C 	0.03417 0.02805 0.45846 -0.01900
C 	C 	0.00131 0.05834 0.45385 -0.03100
H 	H 	0.03125 0.11220 0.45712 0.05400
Cu	Cu	0.65863 0.24432 0.01624 0.92900
Cu	Cu	0.69451 0.22961 0.87983 0.87100
Cu	Cu	0.68155 0.33590 0.92213 0.89500
Cu	Cu	0.66694 0.37408 0.05388 0.89700
C 	C 	0.67969 0.29891 0.14459 0.31900
O 	O 	0.56128 0.20355 0.02444 -0.36200
C 	C 	0.64156 0.26912 0.78935 0.32000
O 	O 	0.71051 0.34613 0.00963 -0.63200
O 	O 	0.63744 0.23955 0.92608 -0.64300
O 	O 	0.70450 0.19976 0.01429 -0.34200
O 	O 	0.76708 0.26044 0.94551 -0.43400
O 	O 	0.69155 0.35582 0.13448 -0.38500
O 	O 	0.73069 0.43162 0.92497 -0.35200
C 	C 	0.73545 0.47182 0.97204 0.24800
C 	C 	0.53130 0.23058 0.00764 0.26700
O 	O 	0.56762 0.29242 0.99813 -0.37200
O 	O 	0.69034 0.44799 0.00885 -0.37400
O 	O 	0.68828 0.26330 0.10399 -0.36600
C 	C 	0.75732 0.22300 0.98698 0.25300
O 	O 	0.66488 0.32423 0.82981 -0.37800
O 	O 	0.64009 0.21947 0.80657 -0.43100
H 	H 	0.76062 0.37473 0.02315 0.16900
H 	H 	0.58836 0.20954 0.90726 0.17700
Cu	Cu	0.73460 0.35475 0.44399 0.92600
Cu	Cu	0.72384 0.30402 0.57631 0.86700
Cu	Cu	0.62556 0.32578 0.51984 0.89700
Cu	Cu	0.59791 0.32993 0.38180 0.89700
C 	C 	0.69598 0.33295 0.31091 0.31700
O 	O 	0.77092 0.44985 0.43726 -0.35900
C 	C 	0.65540 0.33545 0.65276 0.31200
O 	O 	0.62715 0.29486 0.43683 -0.63600
O 	O 	0.72486 0.36792 0.53091 -0.64000
O 	O 	0.78648 0.31743 0.45631 -0.36200
O 	O 	0.71129 0.24166 0.50958 -0.41800
O 	O 	0.63220 0.30967 0.31144 -0.38500
O 	O 	0.52750 0.27665 0.50783 -0.37000
C 	C 	0.48804 0.26052 0.45407 0.25600
C 	C 	0.73273 0.47057 0.43713 0.25100
O 	O 	0.66814 0.42906 0.44025 -0.36700
O 	O 	0.51152 0.29762 0.41117 -0.36300
O 	O 	0.73243 0.33177 0.35794 -0.36800
C 	C 	0.75761 0.25988 0.47500 0.25600
O 	O 	0.62875 0.34976 0.60820 -0.37900
O 	O 	0.71123 0.34025 0.64943 -0.41600
H 	H 	0.60252 0.24575 0.42621 0.16600
H 	H 	0.75416 0.41495 0.55346 0.17800
C 	C 	0.62102 0.26374 0.72921 -0.12700
C 	C 	0.62764 0.31918 0.70339 -0.11500
H 	H 	0.60298 0.21840 0.69711 0.06000
H 	H 	0.59411 0.33211 0.71418 0.08500
C 	C 	0.67487 0.28546 0.20189 -0.11100
C 	C 	0.71725 0.33988 0.25675 -0.11200
H 	H 	0.65285 0.23442 0.20805 0.08400
H 	H 	0.77156 0.37469 0.25722 0.07900
C 	C 	0.81392 0.63521 0.40669 0.00800
C 	C 	0.76834 0.62930 0.44244 0.11800
O 	O 	0.73348 0.57009 0.46555 -0.19000
C 	C 	0.76410 0.54214 0.44159 0.04000
C 	C 	0.81318 0.58146 0.40794 -0.05900
H 	H 	0.83603 0.56593 0.37831 0.05400
C 	C 	0.88758 0.13143 0.43825 0.11400
C 	C 	0.88496 0.18044 0.41554 -0.08700
C 	C 	0.82620 0.17698 0.41758 0.00900
C 	C 	0.77389 0.12923 0.44411 0.11800
C 	C 	0.77664 0.08009 0.46653 -0.09400
C 	C 	0.83561 0.08407 0.46484 0.02200
C 	C 	0.89585 0.05169 0.43741 0.11900
C 	C 	0.83905 0.03250 0.46260 -0.09800
O 	O 	0.73516 0.14798 0.46578 -0.19500
C 	C 	0.77011 0.21195 0.45087 0.03800
C 	C 	0.82442 0.22978 0.42222 -0.05400
H 	H 	0.73562 0.04199 0.48687 0.06600
H 	H 	0.86768 0.28089 0.42252 0.05800
C 	C 	0.30881 0.14551 0.40916 0.11900
C 	C 	0.24560 0.12955 0.38357 -0.09400
C 	C 	0.19089 0.09117 0.41377 0.02800
C 	C 	0.19998 0.07731 0.47108 0.11300
C 	C 	0.26462 0.09875 0.49959 -0.08500
C 	C 	0.31709 0.12809 0.46512 0.00800
O 	O 	0.36930 0.19754 0.39434 -0.19100
C 	C 	0.41415 0.21059 0.44729 0.04400
C 	C 	0.38384 0.16952 0.48951 -0.06000
O 	O 	0.14874 0.06173 0.50402 -0.21400
C 	C 	0.10794 0.06761 0.46067 0.12500
C 	C 	0.13472 0.08833 0.40813 -0.10500
H 	H 	0.24044 0.14983 0.34403 0.07200
H 	H 	0.27435 0.09555 0.54757 0.06700
H 	H 	0.40571 0.18086 0.53817 0.05800
H 	H 	0.10645 0.08371 0.36467 0.06600
C 	C 	0.83072 0.64977 0.00930 0.01300
C 	C 	0.84585 0.64027 0.95244 0.11200
O 	O 	0.81749 0.57376 0.92880 -0.18500
C 	C 	0.78332 0.54471 0.97672 0.03600
C 	C 	0.79115 0.58948 0.02481 -0.05500
H 	H 	0.75648 0.57673 0.05699 0.05400
C 	C 	0.90445 0.10548 0.96115 0.10200
C 	C 	0.89297 0.14814 0.93606 -0.07900
C 	C 	0.84259 0.15179 0.95593 -0.01000
C 	C 	0.81276 0.12333 0.00478 0.12800
C 	C 	0.83041 0.08706 0.03466 -0.10000
C 	C 	0.87265 0.07484 0.00822 0.03800
C 	C 	0.90779 0.05584 0.03594 -0.10900
O 	O 	0.78257 0.14985 0.03169 -0.18200
C 	C 	0.79757 0.19721 0.99403 0.02600
C 	C 	0.83613 0.20058 0.95077 -0.05300
H 	H 	0.81367 0.07089 0.07738 0.07400
H 	H 	0.84405 0.22508 0.91112 0.03800
C 	C 	0.23387 0.05433 0.97941 0.10700
C 	C 	0.29118 0.05617 0.99726 -0.08700
C 	C 	0.35094 0.10243 0.97594 -0.00400
C 	C 	0.35730 0.15225 0.94769 0.12100
C 	C 	0.30144 0.15391 0.93488 -0.09700
C 	C 	0.23873 0.10078 0.94693 0.02800
O 	O 	0.17763 0.02238 0.00810 -0.20600
C 	C 	0.14891 0.05405 0.98943 0.11400
C 	C 	0.18674 0.10282 0.95515 -0.10400
O 	O 	0.42416 0.20888 0.95360 -0.19000
C 	C 	0.45690 0.18821 0.98842 0.02100
C 	C 	0.41396 0.12518 0.00210 -0.03800
H 	H 	0.29009 0.02495 0.02865 0.07000
H 	H 	0.30759 0.19665 0.91950 0.06900
H 	H 	0.16872 0.12467 0.92720 0.06200
H 	H 	0.42616 0.10720 0.04002 0.05300
H 	H 	0.88927 0.02001 0.06681 0.06800
O 	O 	0.92878 0.11445 0.41975 -0.21400
H 	H 	0.92636 0.21882 0.39574 0.06800
C 	C 	0.98277 0.02998 0.99580 -0.00900
C 	C 	0.92989 0.01915 0.44425 -0.00600
O 	O 	0.95986 0.10551 0.95405 -0.21600
C 	C 	0.95728 0.07052 0.00104 0.13200
H 	H 	0.92327 0.17857 0.90408 0.06200
C 	C 	0.86929 0.69775 0.39766 -0.08600
H 	H 	0.90542 0.70194 0.37030 0.06700
C 	C 	0.77497 0.68656 0.46904 -0.09400
C 	C 	0.83106 0.74913 0.46068 0.02500
H 	H 	0.73932 0.68262 0.49692 0.06900
C 	C 	0.82884 0.70358 0.02831 -0.07600
C 	C 	0.86624 0.68842 0.91458 -0.09400
C 	C 	0.86518 0.74280 0.93401 0.03000
H 	H 	0.81524 0.70961 0.07239 0.06500
H 	H 	0.87989 0.68240 0.87054 0.06900
C 	C 	0.84826 0.75123 0.99022 0.10000
C 	C 	0.87575 0.75471 0.42431 0.11400
C 	C 	0.83489 0.80496 0.46306 -0.10500
C 	C 	0.90590 0.80386 0.91979 -0.10400
O 	O 	0.91240 0.81475 0.40308 -0.21500
H 	H 	0.81654 0.82208 0.49685 0.06100
O 	O 	0.87499 0.81711 0.01387 -0.20400
H 	H 	0.94227 0.81769 0.88922 0.06200
C 	C 	0.88549 0.84510 0.43067 0.12300
C 	C 	0.91141 0.84749 0.96764 0.11600
H 	H 	0.81268 0.99197 0.48802 0.05500
C 	C 	0.02924 0.95183 0.97688 -0.03900
H 	H 	0.88270 0.93541 0.98267 0.04700
H 	H 	0.04715 0.92151 0.97032 0.05200
C 	C 	0.89143 0.94895 0.43808 -0.03700
H 	H 	0.83626 0.91801 0.42757 0.04100
H 	H 	0.02166 0.93549 0.45829 0.05400
C 	C 	0.92462 0.91871 0.44305 -0.01700
C 	C 	0.99592 0.95869 0.45471 -0.01500
C 	C 	0.93667 0.95974 0.98481 -0.03300
C 	C 	0.95973 0.92073 0.97516 -0.00700
