data_crystal

_cell_length_a 16.86976
_cell_length_b 17.98890
_cell_length_c 38.32417
_cell_angle_alpha 60.67515
_cell_angle_beta  119.09245
_cell_angle_gamma 133.37710

_symmetry_space_group_name_	'P 1'
_symmetry_space_group_name_H-M	'P 1'

loop_
_symmetry_equiv_pos_as_xyz
  x,y,z

loop_
_atom_site_label
_atom_site_type_symbol
_atom_site_fract_x
_atom_site_fract_y
_atom_site_fract_z
_atom_site_charge
C 	C 	0.70269 0.32579 0.00088 -0.07500
C 	C 	0.66262 0.37740 0.99720 0.04200
C 	C 	0.73388 0.48639 0.99166 -0.07500
H 	H 	0.64581 0.24173 0.00299 0.05700
H 	H 	0.70096 0.52729 0.98574 0.06100
C 	C 	0.60623 0.18800 0.51510 0.02000
C 	C 	0.49141 0.14234 0.50171 -0.06100
C 	C 	0.45136 0.19199 0.49936 0.02400
C 	C 	0.52742 0.29430 0.50553 -0.06500
C 	C 	0.64372 0.34358 0.51672 0.02900
C 	C 	0.68258 0.29007 0.52132 -0.06500
H 	H 	0.43237 0.06297 0.49732 0.06100
H 	H 	0.49634 0.33496 0.50158 0.05300
C 	C 	0.39965 0.73791 0.15763 0.03300
C 	C 	0.51448 0.78352 0.17364 -0.07300
C 	C 	0.55928 0.73886 0.17522 0.03700
C 	C 	0.48716 0.63804 0.16814 -0.07300
C 	C 	0.37080 0.58754 0.15472 0.03500
C 	C 	0.32712 0.63699 0.15024 -0.07300
H 	H 	0.57083 0.86178 0.17883 0.05200
H 	H 	0.52198 0.60124 0.17155 0.05700
H 	H 	0.23793 0.60090 0.13790 0.05500
C 	C 	0.14249 0.53955 0.64703 0.03200
C 	C 	0.25934 0.59369 0.65839 -0.07100
C 	C 	0.30634 0.54990 0.66092 0.03600
C 	C 	0.23640 0.44724 0.65598 -0.07000
C 	C 	0.11930 0.39111 0.64586 0.03000
C 	C 	0.07285 0.43655 0.64242 -0.06000
H 	H 	0.31361 0.67408 0.66112 0.05700
H 	H 	0.27299 0.41214 0.65932 0.05700
Co	Co	0.09666 0.92292 0.08746 1.17900
Co	Co	0.11974 0.20653 0.06329 1.18700
Co	Co	0.03353 0.00209 0.12536 1.19600
Co	Co	0.20304 0.13391 0.03027 1.18500
Co	Co	0.21637 0.96126 0.02960 1.15700
C 	C 	0.42183 0.16801 0.04526 0.35100
O 	O 	0.11647 0.16041 0.17848 -0.38500
O 	O 	0.05129 0.11895 0.10158 -0.74700
C 	C 	0.10833 0.07293 0.20035 0.28300
O 	O 	0.02973 0.88108 0.13129 -0.47500
O 	O 	0.20445 0.25436 0.02417 -0.45900
C 	C 	0.22229 0.35976 0.10909 0.32000
O 	O 	0.08451 0.05595 0.06836 -0.57500
C 	C 	0.23965 0.85144 0.11791 0.32500
C 	C 	0.16305 0.09649 0.95348 0.29400
O 	O 	0.11541 0.02546 0.18522 -0.37300
O 	O 	0.19725 0.83774 0.08091 -0.41900
O 	O 	0.22214 0.90047 0.12700 -0.40400
O 	O 	0.11756 0.32073 0.10273 -0.40800
O 	O 	0.24571 0.31892 0.09785 -0.39600
O 	O 	0.23986 0.07984 0.97582 -0.39200
O 	O 	0.13096 0.11974 0.96964 -0.37100
O 	O 	0.16473 0.00838 0.04960 -0.74200
O 	O 	0.04941 0.85833 0.00554 -0.40400
O 	O 	0.37575 0.06639 0.05888 -0.39700
O 	O 	0.37528 0.20738 0.04350 -0.39700
Co	Co	0.01140 0.78731 0.53353 1.17800
C 	C 	0.18420 0.02321 0.52685 0.39500
C 	C 	0.58523 0.72563 0.63310 0.32500
C 	C 	0.09355 0.73836 0.62310 0.31600
O 	O 	0.12797 0.79928 0.58894 -0.39700
O 	O 	0.03921 0.74844 0.63445 -0.39000
O 	O 	0.63971 0.80743 0.64707 -0.40100
O 	O 	0.63782 0.71299 0.62237 -0.39300
C 	C 	0.68143 0.02297 0.52961 0.38700
O 	O 	0.64183 0.94897 0.56199 -0.42900
O 	O 	0.12870 0.94754 0.50880 -0.42700
O 	O 	0.13472 0.01822 0.54664 -0.41000
C 	C 	0.01996 0.97405 0.85204 -0.01300
C 	C 	0.11372 0.07987 0.85051 -0.00900
C 	C 	0.15442 0.12695 0.88128 0.00200
C 	C 	0.09920 0.06904 0.91336 -0.03300
C 	C 	0.03416 0.91865 0.80704 -0.03300
C 	C 	0.72156 0.86064 0.72848 0.06000
C 	C 	0.13761 0.93330 0.83479 0.08200
C 	C 	0.25441 0.23407 0.88026 0.08600
N 	N 	0.63668 0.84702 0.70808 -0.12100
N 	N 	0.22054 0.94508 0.85706 -0.12000
N 	N 	0.33459 0.31988 0.87950 -0.11000
H 	H 	0.15525 0.12535 0.82549 0.05200
H 	H 	0.04698 0.89432 0.76056 0.04700
C 	C 	0.03201 0.98861 0.30957 -0.03200
C 	C 	0.13829 0.07856 0.30248 -0.00500
C 	C 	0.17172 0.09959 0.26974 -0.00100
C 	C 	0.09722 0.03145 0.24299 -0.02900
C 	C 	0.00322 0.96266 0.34686 0.05200
C 	C 	0.03342 0.90411 0.38371 -0.08000
C 	C 	0.00636 0.87610 0.41939 0.04500
C 	C 	0.04000 0.81521 0.45656 0.03900
C 	C 	0.28192 0.19251 0.26320 0.09100
N 	N 	0.06720 0.76628 0.48609 -0.15500
N 	N 	0.37015 0.26700 0.25793 -0.11000
H 	H 	0.19526 0.13186 0.32262 0.04700
H 	H 	0.07777 0.87939 0.38453 0.05700
C 	C 	0.05926 0.26366 0.61406 -0.13400
C 	C 	0.04380 0.28442 0.63871 0.01500
H 	H 	0.13568 0.32095 0.60306 0.08000
C 	C 	0.46699 0.63963 0.63485 -0.14100
C 	C 	0.42805 0.61588 0.66488 0.00000
H 	H 	0.41024 0.59740 0.61065 0.07900
H 	H 	0.48549 0.65539 0.68985 0.05100
C 	C 	0.09599 0.60039 0.62712 0.00500
C 	C 	0.10984 0.65407 0.64714 -0.14700
H 	H 	0.06059 0.61081 0.59414 0.03700
H 	H 	0.13887 0.63993 0.68046 0.08300
C 	C 	0.29279 0.48144 0.14625 0.00300
C 	C 	0.31308 0.45650 0.12480 -0.13800
H 	H 	0.21236 0.42609 0.15442 0.03900
H 	H 	0.39358 0.50981 0.11697 0.07800
C 	C 	0.67890 0.80657 0.17568 -0.00300
C 	C 	0.70877 0.83235 0.14258 -0.14300
H 	H 	0.74095 0.84944 0.19959 0.04000
H 	H 	0.64732 0.78824 0.11900 0.07800
C 	C 	0.30863 0.81311 0.14827 -0.14900
C 	C 	0.36496 0.80905 0.13434 0.00400
H 	H 	0.30270 0.77710 0.18018 0.08100
H 	H 	0.37750 0.85284 0.10323 0.02800
C 	C 	0.64141 0.11841 0.53449 0.04300
C 	C 	0.66621 0.09902 0.51265 -0.21500
H 	H 	0.64028 0.07740 0.56676 0.01500
H 	H 	0.68302 0.15070 0.48253 0.10400
C 	C 	0.71207 0.48352 0.54537 -0.16400
C 	C 	0.72613 0.45195 0.52295 0.00800
H 	H 	0.63260 0.43360 0.55353 0.08800
C 	C 	0.32972 0.13246 0.49329 0.03600
C 	C 	0.28866 0.10886 0.52273 -0.20600
H 	H 	0.27359 0.09158 0.46862 0.04600
H 	H 	0.34102 0.15976 0.54368 0.10100
H 	H 	0.00182 0.70664 0.99136 0.04700
C 	C 	0.55400 0.31624 0.00675 0.01300
C 	C 	0.52513 0.23275 0.03948 -0.18900
H 	H 	0.49979 0.34203 0.98788 0.04500
H 	H 	0.57849 0.20599 0.05681 0.09300
O 	O 	0.00564 0.24612 0.02343 -0.37300
Co	Co	0.99997 0.16166 0.12439 1.16400
C 	C 	0.81833 0.37840 0.00829 0.03100
C 	C 	0.84964 0.54079 0.99887 0.04900
C 	C 	0.89182 0.48725 0.00629 -0.08000
H 	H 	0.98170 0.52783 0.01381 0.05100
H 	H 	0.77174 0.32542 0.53195 0.05200
H 	H 	0.98246 0.39479 0.63320 0.04600
C 	C 	0.98040 0.78094 0.03032 0.32200
C 	C 	0.82213 0.92323 0.13634 0.30000
O 	O 	0.87752 0.00600 0.14998 -0.38700
O 	O 	0.86444 0.92177 0.11583 -0.41100
C 	C 	0.93533 0.23630 0.03507 0.33500
O 	O 	0.89323 0.16096 0.06703 -0.39600
O 	O 	0.97079 0.79977 0.05730 -0.39300
Co	Co	0.89699 0.74601 0.59575 1.18500
Co	Co	0.87325 0.00545 0.55946 1.19500
Co	Co	0.80863 0.81353 0.62754 1.18400
Co	Co	0.96436 0.93975 0.52854 1.17600
C 	C 	0.79859 0.57910 0.55714 0.34100
Co	Co	0.75192 0.96377 0.61869 1.16400
O 	O 	0.87312 0.97905 0.67247 -0.40300
O 	O 	0.80920 0.92115 0.59892 -0.76800
C 	C 	0.87810 0.89963 0.69743 0.29400
O 	O 	0.83371 0.70664 0.64025 -0.46500
O 	O 	0.95501 0.05471 0.51938 -0.45900
C 	C 	0.97010 0.16505 0.60009 0.31600
O 	O 	0.84879 0.85715 0.56900 -0.58900
C 	C 	0.90882 0.87038 0.45538 0.29900
O 	O 	0.89389 0.85449 0.68468 -0.38900
O 	O 	0.86432 0.12306 0.59427 -0.40100
O 	O 	0.99600 0.12356 0.59069 -0.39900
O 	O 	0.88904 0.78096 0.48104 -0.39100
O 	O 	0.91934 0.93670 0.46668 -0.38200
O 	O 	0.94469 0.82217 0.55237 -0.76300
O 	O 	0.75144 0.03296 0.51808 -0.38900
O 	O 	0.90238 0.62627 0.55735 -0.41000
O 	O 	0.77819 0.60950 0.57507 -0.39600
C 	C 	0.96231 0.91771 0.88329 -0.02100
C 	C 	0.99785 0.96811 0.91184 -0.04500
C 	C 	0.97201 0.92865 0.81710 0.01900
C 	C 	0.86706 0.90416 0.79164 -0.05900
C 	C 	0.82755 0.87897 0.75471 0.02200
C 	C 	0.89529 0.88103 0.74195 -0.07800
C 	C 	0.99555 0.89501 0.76947 -0.00200
C 	C 	0.87053 0.80679 0.88763 0.08000
N 	N 	0.79711 0.71793 0.89117 -0.11300
H 	H 	0.95159 0.92533 0.93510 0.05400
H 	H 	0.81808 0.90977 0.79964 0.05200
C 	C 	0.96115 0.91598 0.28493 -0.01500
C 	C 	0.99511 0.93678 0.25236 -0.04900
C 	C 	0.94754 0.90768 0.41858 -0.10200
C 	C 	0.92008 0.96932 0.38170 0.02900
C 	C 	0.94723 0.99659 0.34581 -0.08600
C 	C 	0.91624 0.05813 0.30804 0.12500
C 	C 	0.85239 0.82129 0.29224 0.07500
N 	N 	0.89142 0.10744 0.27773 -0.12300
N 	N 	0.76520 0.74547 0.29808 -0.11300
H 	H 	0.93848 0.88291 0.23246 0.04200
H 	H 	0.87546 0.99401 0.38062 0.03200
H 	H 	0.96778 0.22539 0.65011 0.03300
H 	H 	0.80384 0.50420 0.51318 0.04000
C 	C 	0.90819 0.30509 0.01445 -0.18900
C 	C 	0.86209 0.31428 0.03154 0.02000
H 	H 	0.92957 0.35771 0.98497 0.09800
H 	H 	0.84952 0.26849 0.06258 0.02500
C 	C 	0.90901 0.67826 0.02588 -0.15500
C 	C 	0.92734 0.64995 0.00356 -0.01400
H 	H 	0.84269 0.61753 0.04247 0.08400
