data_crystal

_cell_length_a 20.82574
_cell_length_b 20.82331
_cell_length_c 46.13182
_cell_angle_alpha 89.97375
_cell_angle_beta  90.02603
_cell_angle_gamma 120.01597

_symmetry_space_group_name_	'P 1'
_symmetry_space_group_name_H-M	'P 1'

loop_
_symmetry_equiv_pos_as_xyz
  x,y,z

loop_
_atom_site_label
_atom_site_type_symbol
_atom_site_fract_x
_atom_site_fract_y
_atom_site_fract_z
_atom_site_charge
Cu	Cu	0.68383 0.42046 0.56982 0.92800
Cu	Cu	0.76780 0.41850 0.62954 0.87100
Cu	Cu	0.84557 0.45791 0.57095 0.89700
Cu	Cu	0.78726 0.48271 0.51491 0.89400
C 	C 	0.65698 0.50113 0.52574 0.30200
O 	O 	0.64440 0.33502 0.54146 -0.36200
C 	C 	0.89264 0.40265 0.62046 0.29700
O 	O 	0.79013 0.50068 0.55518 -0.63900
O 	O 	0.74745 0.38808 0.58911 -0.63900
O 	O 	0.63216 0.42711 0.60488 -0.37300
O 	O 	0.73861 0.49142 0.63057 -0.43700
O 	O 	0.69255 0.48217 0.50707 -0.38000
O 	O 	0.93859 0.53149 0.55395 -0.38100
C 	C 	0.95032 0.54715 0.52605 0.31000
C 	C 	0.68857 0.31738 0.52765 0.29600
O 	O 	0.75800 0.36790 0.52269 -0.38900
O 	O 	0.89699 0.54005 0.50842 -0.38800
O 	O 	0.63806 0.46970 0.55149 -0.35800
C 	C 	0.66932 0.47249 0.62606 0.30900
O 	O 	0.90384 0.42361 0.59301 -0.37300
O 	O 	0.82615 0.37189 0.63198 -0.41500
H 	H 	0.80904 0.55310 0.56067 0.16700
H 	H 	0.73212 0.33525 0.58611 0.17300
Cu	Cu	0.40126 0.70295 0.43365 0.92900
Cu	Cu	0.39928 0.78694 0.37394 0.87200
Cu	Cu	0.43871 0.86472 0.43252 0.89800
Cu	Cu	0.46350 0.80639 0.48856 0.89500
C 	C 	0.48192 0.67610 0.47772 0.30300
O 	O 	0.31582 0.66352 0.46201 -0.36100
C 	C 	0.38345 0.91179 0.38302 0.29600
O 	O 	0.48147 0.80926 0.44829 -0.63900
O 	O 	0.36888 0.76659 0.41436 -0.63900
O 	O 	0.40791 0.65128 0.39858 -0.37300
O 	O 	0.47221 0.75776 0.37290 -0.43700
O 	O 	0.46296 0.71167 0.49639 -0.38000
O 	O 	0.51229 0.95774 0.44952 -0.38100
C 	C 	0.52797 0.96948 0.47741 0.31100
C 	C 	0.29818 0.70769 0.47582 0.29600
O 	O 	0.34870 0.77713 0.48078 -0.38900
O 	O 	0.52084 0.91613 0.49505 -0.38800
O 	O 	0.45048 0.65717 0.45198 -0.35700
C 	C 	0.45328 0.68846 0.37741 0.30900
O 	O 	0.40442 0.92300 0.41046 -0.37200
O 	O 	0.35267 0.84529 0.37150 -0.41500
H 	H 	0.53388 0.82817 0.44280 0.16700
H 	H 	0.31605 0.75126 0.41736 0.17300
Cu	Cu	0.50883 0.25697 0.23652 0.92900
Cu	Cu	0.51084 0.34283 0.29624 0.87200
Cu	Cu	0.47143 0.38129 0.23765 0.89800
Cu	Cu	0.44664 0.29829 0.18161 0.89500
C 	C 	0.42816 0.14951 0.19245 0.30100
O 	O 	0.59428 0.30304 0.20817 -0.36000
C 	C 	0.52669 0.48354 0.28716 0.29900
O 	O 	0.42865 0.28309 0.22188 -0.63900
O 	O 	0.54124 0.35297 0.25582 -0.63900
O 	O 	0.50216 0.19856 0.27159 -0.37300
O 	O 	0.43789 0.24068 0.29728 -0.43800
O 	O 	0.44715 0.20411 0.17378 -0.38100
O 	O 	0.39786 0.40074 0.22066 -0.38100
C 	C 	0.38217 0.39685 0.19276 0.30600
C 	C 	0.61194 0.36489 0.19435 0.29600
O 	O 	0.56146 0.38384 0.18940 -0.38900
O 	O 	0.38936 0.35072 0.17512 -0.38900
O 	O 	0.45957 0.16197 0.21819 -0.35800
C 	C 	0.45680 0.19032 0.29277 0.31000
O 	O 	0.50573 0.47384 0.25972 -0.37400
O 	O 	0.55746 0.44781 0.29868 -0.41500
H 	H 	0.37624 0.24956 0.22737 0.16600
H 	H 	0.59407 0.39050 0.25281 0.17400
Cu	Cu	0.22631 0.69201 0.10035 0.92900
Cu	Cu	0.14241 0.60604 0.04064 0.87200
Cu	Cu	0.06456 0.56763 0.09921 0.89700
Cu	Cu	0.12285 0.65070 0.15524 0.89500
C 	C 	0.25315 0.79949 0.14441 0.30400
O 	O 	0.26573 0.64600 0.12874 -0.36000
C 	C 	0.01756 0.46530 0.04973 0.29500
O 	O 	0.12001 0.66586 0.11497 -0.64000
O 	O 	0.16270 0.59598 0.08108 -0.63900
O 	O 	0.27802 0.75039 0.06528 -0.37200
O 	O 	0.17159 0.70817 0.03957 -0.43800
O 	O 	0.21757 0.74491 0.16308 -0.38100
O 	O 	0.97154 0.54816 0.11620 -0.38000
C 	C 	0.95978 0.55209 0.14408 0.31000
C 	C 	0.22155 0.58414 0.14254 0.29600
O 	O 	0.15212 0.56518 0.14749 -0.39000
O 	O 	0.01313 0.59825 0.16173 -0.39200
O 	O 	0.27207 0.78703 0.11867 -0.35700
C 	C 	0.24087 0.75856 0.04408 0.31000
O 	O 	0.00628 0.47507 0.07715 -0.37500
O 	O 	0.08408 0.50105 0.03823 -0.41600
H 	H 	0.10111 0.69937 0.10947 0.16600
H 	H 	0.17802 0.55847 0.08410 0.17300
Cu	Cu	0.23778 0.52793 0.76694 0.92900
Cu	Cu	0.32362 0.52994 0.70722 0.87200
Cu	Cu	0.36209 0.49052 0.76580 0.89800
Cu	Cu	0.27908 0.46570 0.82184 0.89500
C 	C 	0.13033 0.44724 0.81101 0.30500
O 	O 	0.28386 0.61337 0.79530 -0.36000
C 	C 	0.46433 0.54580 0.71629 0.29900
O 	O 	0.26388 0.44773 0.78157 -0.63900
O 	O 	0.33377 0.56034 0.74764 -0.63900
O 	O 	0.17938 0.52128 0.73187 -0.37300
O 	O 	0.22148 0.45700 0.70618 -0.43800
O 	O 	0.18492 0.46622 0.82968 -0.38200
O 	O 	0.38153 0.41694 0.78279 -0.38100
C 	C 	0.37765 0.40126 0.81069 0.30600
C 	C 	0.34570 0.63102 0.80911 0.29600
O 	O 	0.36463 0.58052 0.81406 -0.38900
O 	O 	0.33149 0.40838 0.82833 -0.38900
O 	O 	0.14279 0.47867 0.78527 -0.35800
C 	C 	0.17113 0.47592 0.71069 0.31000
O 	O 	0.45462 0.52484 0.74374 -0.37400
O 	O 	0.42859 0.57657 0.70478 -0.41500
H 	H 	0.23036 0.39531 0.77608 0.16600
H 	H 	0.37129 0.61318 0.75065 0.17400
Cu	Cu	0.67287 0.24548 0.90309 0.92900
Cu	Cu	0.58689 0.16158 0.96281 0.87200
Cu	Cu	0.54849 0.08371 0.90424 0.89700
Cu	Cu	0.63157 0.14199 0.84821 0.89500
C 	C 	0.78035 0.27229 0.85905 0.30200
O 	O 	0.62687 0.28489 0.87471 -0.36000
C 	C 	0.44616 0.03673 0.95372 0.29300
O 	O 	0.64672 0.13916 0.88848 -0.64000
O 	O 	0.57684 0.18187 0.92237 -0.63900
O 	O 	0.73124 0.29719 0.93817 -0.37200
O 	O 	0.68901 0.19075 0.96388 -0.43800
O 	O 	0.72577 0.23671 0.84037 -0.38100
O 	O 	0.52901 0.99067 0.88726 -0.37900
C 	C 	0.53295 0.97891 0.85937 0.31100
C 	C 	0.56502 0.24071 0.86090 0.29600
O 	O 	0.54605 0.17127 0.85596 -0.39000
O 	O 	0.57913 0.03225 0.84173 -0.39300
O 	O 	0.76788 0.29123 0.88479 -0.35700
C 	C 	0.73940 0.26004 0.95937 0.31000
O 	O 	0.45593 0.02544 0.92630 -0.37500
O 	O 	0.48192 0.10325 0.96521 -0.41600
H 	H 	0.68021 0.12025 0.89399 0.16600
H 	H 	0.53935 0.19719 0.91934 0.17300
C 	C 	0.39014 0.70482 0.82034 -0.09500
C 	C 	0.42512 0.76729 0.82955 0.03500
C 	C 	0.46396 0.84083 0.84012 0.03700
C 	C 	0.49587 0.90379 0.84898 -0.09200
C 	C 	0.85520 0.30832 0.84855 -0.08900
C 	C 	0.91833 0.33930 0.83999 0.03400
C 	C 	0.99236 0.37630 0.83008 0.04300
C 	C 	0.05549 0.40844 0.82152 -0.09800
C 	C 	0.41475 0.36324 0.82109 -0.09200
C 	C 	0.44668 0.33222 0.82994 0.03500
C 	C 	0.48555 0.29754 0.84049 0.03500
C 	C 	0.52056 0.27006 0.84969 -0.09600
C 	C 	0.79832 0.29801 0.97986 -0.10700
C 	C 	0.84779 0.33187 0.99691 0.03800
C 	C 	0.90607 0.37446 0.01636 0.03100
C 	C 	0.95652 0.41398 0.03220 -0.09700
C 	C 	0.39483 0.97569 0.97125 -0.09500
C 	C 	0.35530 0.92523 0.98709 0.03100
C 	C 	0.31271 0.86696 0.00654 0.03900
C 	C 	0.27885 0.81749 0.02359 -0.10700
C 	C 	0.68573 0.40932 0.18312 -0.09600
C 	C 	0.74820 0.44429 0.17391 0.03500
C 	C 	0.82173 0.48313 0.16334 0.03600
C 	C 	0.88467 0.51503 0.15448 -0.09200
C 	C 	0.25091 0.53969 0.15375 -0.09600
C 	C 	0.27840 0.50469 0.16295 0.03500
C 	C 	0.31309 0.46584 0.17351 0.03500
C 	C 	0.34413 0.43392 0.18236 -0.09200
C 	C 	0.28919 0.87435 0.15491 -0.09400
C 	C 	0.32018 0.93749 0.16346 0.04400
C 	C 	0.35719 0.01153 0.17338 0.02800
C 	C 	0.38935 0.07466 0.18194 -0.08800
C 	C 	0.39325 0.97289 0.36550 -0.09300
C 	C 	0.40427 0.02340 0.34968 0.02300
C 	C 	0.42006 0.08176 0.33025 0.04000
C 	C 	0.43575 0.13130 0.31323 -0.10900
C 	C 	0.47434 0.65055 0.35695 -0.10600
C 	C 	0.49004 0.61674 0.33993 0.03700
C 	C 	0.50585 0.57423 0.32051 0.03300
C 	C 	0.51687 0.53478 0.30468 -0.10200
C 	C 	0.65920 0.24357 0.51644 -0.09600
C 	C 	0.63171 0.18109 0.50724 0.03300
C 	C 	0.59702 0.10754 0.49668 0.03700
C 	C 	0.56599 0.04459 0.48782 -0.09800
C 	C 	0.02542 0.58516 0.51565 -0.09600
C 	C 	0.08837 0.61617 0.50679 0.03700
C 	C 	0.16191 0.65084 0.49623 0.03400
C 	C 	0.22438 0.67832 0.48703 -0.09600
C 	C 	0.62094 0.53994 0.51524 -0.09100
C 	C 	0.58995 0.57209 0.50668 0.03600
C 	C 	0.55292 0.60910 0.49678 0.03600
C 	C 	0.52075 0.64008 0.48822 -0.09100
C 	C 	0.95372 0.41244 0.63797 -0.09500
C 	C 	0.00423 0.42343 0.65379 0.02600
C 	C 	0.06258 0.43921 0.67321 0.03900
C 	C 	0.11212 0.45489 0.69023 -0.10800
C 	C 	0.51558 0.53600 0.69878 -0.10100
C 	C 	0.55505 0.52500 0.68295 0.03300
C 	C 	0.59758 0.50922 0.66353 0.03700
C 	C 	0.63140 0.49353 0.64651 -0.10600
