data_crystal

_cell_length_a 35.14894
_cell_length_b 35.76123
_cell_length_c 40.14274
_cell_angle_alpha 95.53833
_cell_angle_beta  95.54257
_cell_angle_gamma 125.37815

_symmetry_space_group_name_	'P 1'
_symmetry_space_group_name_H-M	'P 1'

loop_
_symmetry_equiv_pos_as_xyz
  x,y,z

loop_
_atom_site_label
_atom_site_type_symbol
_atom_site_fract_x
_atom_site_fract_y
_atom_site_fract_z
_atom_site_charge
C 	C 	0.98004 0.02451 0.99360 0.12100
C 	C 	0.04557 0.02616 0.98261 0.12100
N 	N 	0.02471 0.04810 0.98673 -0.14000
C 	C 	0.94909 0.99959 0.45921 0.12000
C 	C 	0.01837 0.00311 0.46175 0.12000
N 	N 	0.99606 0.02366 0.45800 -0.14000
Cu	Cu	0.65496 0.26762 0.99459 0.92800
Cu	Cu	0.69547 0.26923 0.92393 0.87000
Cu	Cu	0.68525 0.34289 0.95120 0.89700
Cu	Cu	0.65396 0.35386 0.01624 0.89300
C 	C 	0.66725 0.30314 0.06512 0.28700
O 	O 	0.58528 0.23979 0.99180 -0.36400
C 	C 	0.67150 0.31089 0.87726 0.28900
O 	O 	0.69325 0.34036 0.99854 -0.64000
O 	O 	0.65163 0.27388 0.94616 -0.64100
O 	O 	0.68403 0.23360 0.99376 -0.37500
O 	O 	0.73850 0.28124 0.96312 -0.44100
O 	O 	0.64503 0.32122 0.05563 -0.38500
O 	O 	0.72110 0.41021 0.95955 -0.38300
C 	C 	0.71613 0.43498 0.98296 0.29100
C 	C 	0.56691 0.25945 0.97845 0.28300
O 	O 	0.59498 0.30332 0.97520 -0.39200
O 	O 	0.68178 0.41476 0.00083 -0.39600
O 	O 	0.66806 0.27375 0.04308 -0.36200
C 	C 	0.72476 0.25114 0.98372 0.29000
O 	O 	0.68861 0.34628 0.90267 -0.39000
O 	O 	0.66768 0.27305 0.88234 -0.42000
H 	H 	0.72673 0.36019 0.01066 0.16100
H 	H 	0.61914 0.25537 0.93237 0.17100
Cu	Cu	0.72039 0.33664 0.45084 0.92800
Cu	Cu	0.71936 0.29588 0.52093 0.87000
Cu	Cu	0.64474 0.30654 0.49491 0.89700
Cu	Cu	0.63249 0.33751 0.43063 0.89300
C 	C 	0.68735 0.33055 0.38061 0.28900
O 	O 	0.74850 0.40535 0.45437 -0.36400
C 	C 	0.67841 0.31989 0.56863 0.28900
O 	O 	0.64660 0.29877 0.44741 -0.64200
O 	O 	0.71482 0.33952 0.49942 -0.64200
O 	O 	0.75419 0.30704 0.45050 -0.37300
O 	O 	0.70564 0.25365 0.48122 -0.44100
O 	O 	0.66660 0.34950 0.39136 -0.38700
O 	O 	0.57631 0.27109 0.48722 -0.38400
C 	C 	0.55039 0.27592 0.46443 0.29000
C 	C 	0.72821 0.42294 0.46803 0.28200
O 	O 	0.68393 0.39485 0.47195 -0.39300
O 	O 	0.57013 0.30893 0.44582 -0.39400
O 	O 	0.71313 0.32423 0.40226 -0.36300
C 	C 	0.73587 0.26678 0.46035 0.28900
O 	O 	0.64214 0.30348 0.54355 -0.39000
O 	O 	0.71648 0.32313 0.56301 -0.42000
H 	H 	0.62631 0.26592 0.43517 0.16400
H 	H 	0.73384 0.37134 0.51340 0.17200
C 	C 	0.66364 0.31676 0.84197 -0.09200
C 	C 	0.69276 0.36077 0.83288 0.01600
C 	C 	0.68990 0.36503 0.79862 -0.07100
C 	C 	0.65782 0.32547 0.77326 0.03900
C 	C 	0.62690 0.28200 0.78239 -0.07200
C 	C 	0.62975 0.27762 0.81662 0.01600
C 	C 	0.66000 0.32859 0.73792 -0.02300
C 	C 	0.66186 0.33124 0.70833 -0.02300
C 	C 	0.66500 0.33365 0.67301 0.03900
C 	C 	0.62428 0.30371 0.64768 -0.07100
C 	C 	0.62829 0.30084 0.61335 0.01600
C 	C 	0.67319 0.32780 0.60415 -0.09200
C 	C 	0.71361 0.35958 0.62951 0.01600
C 	C 	0.70949 0.36241 0.66380 -0.07200
H 	H 	0.71888 0.39133 0.85216 0.03400
H 	H 	0.71373 0.39881 0.79175 0.04800
H 	H 	0.60167 0.25133 0.76293 0.04700
H 	H 	0.60644 0.24364 0.82334 0.02800
H 	H 	0.58973 0.28154 0.65462 0.04800
H 	H 	0.59674 0.27638 0.59409 0.03500
H 	H 	0.74833 0.38127 0.62273 0.02900
H 	H 	0.74109 0.38593 0.68325 0.04700
C 	C 	0.68028 0.30644 0.10181 -0.08700
C 	C 	0.66696 0.26631 0.11498 0.02000
C 	C 	0.67344 0.26848 0.15027 -0.07000
C 	C 	0.69347 0.31077 0.17250 0.04000
C 	C 	0.70898 0.35128 0.15937 -0.07000
C 	C 	0.70237 0.34914 0.12418 0.01600
C 	C 	0.69395 0.31188 0.20849 -0.02100
C 	C 	0.69507 0.31459 0.23878 -0.02100
C 	C 	0.69580 0.31967 0.27490 0.03900
C 	C 	0.69867 0.35750 0.29197 -0.07000
C 	C 	0.69649 0.36133 0.32655 0.01700
C 	C 	0.69144 0.32728 0.34444 -0.08600
C 	C 	0.68962 0.28987 0.32748 0.01600
C 	C 	0.69162 0.28600 0.29274 -0.06900
H 	H 	0.64997 0.23314 0.09798 0.03800
H 	H 	0.66156 0.23705 0.16025 0.05000
H 	H 	0.72483 0.38417 0.17644 0.04700
H 	H 	0.71334 0.38044 0.11430 0.01900
H 	H 	0.70209 0.38374 0.27835 0.04800
H 	H 	0.69877 0.39079 0.33946 0.03500
H 	H 	0.68584 0.26344 0.34102 0.03300
H 	H 	0.68941 0.25665 0.27968 0.04900
C 	C 	0.91984 0.82739 0.50069 -0.05500
C 	C 	0.87641 0.79204 0.47946 0.03200
C 	C 	0.85393 0.80369 0.45643 -0.05500
C 	C 	0.87578 0.85044 0.45371 -0.01500
C 	C 	0.85674 0.74379 0.47964 -0.02500
C 	C 	0.84085 0.70362 0.48016 -0.00400
C 	C 	0.82316 0.65675 0.48051 0.00000
C 	C 	0.80852 0.61679 0.48045 -0.03200
C 	C 	0.79125 0.56900 0.47981 0.04500
C 	C 	0.75561 0.54109 0.49793 -0.07300
C 	C 	0.73646 0.49380 0.49534 0.01500
C 	C 	0.75266 0.47399 0.47438 -0.09200
C 	C 	0.78970 0.50259 0.45729 0.01700
C 	C 	0.80881 0.54985 0.45998 -0.07200
H 	H 	0.93722 0.81867 0.51875 0.04600
H 	H 	0.82020 0.77653 0.44005 0.04600
H 	H 	0.85887 0.85900 0.43510 0.03900
H 	H 	0.74219 0.55579 0.51359 0.04900
H 	H 	0.70851 0.47245 0.50914 0.03100
H 	H 	0.80272 0.48798 0.44111 0.03700
H 	H 	0.83662 0.57134 0.44610 0.05000
C 	C 	0.92566 0.02295 0.45670 -0.02400
C 	C 	0.87826 0.99805 0.43979 -0.01500
C 	C 	0.85681 0.02082 0.43653 -0.05500
C 	C 	0.88253 0.06853 0.45015 0.03100
C 	C 	0.92963 0.09332 0.46723 -0.05500
C 	C 	0.95113 0.07069 0.47053 -0.01500
C 	C 	0.86056 0.09210 0.44697 -0.02500
C 	C 	0.84310 0.11273 0.44470 -0.00500
C 	C 	0.82334 0.13759 0.44278 -0.00000
C 	C 	0.80683 0.15919 0.44187 -0.03300
C 	C 	0.78729 0.18521 0.44174 0.04500
C 	C 	0.73968 0.16332 0.44452 -0.07500
C 	C 	0.72217 0.18965 0.44882 0.01700
C 	C 	0.75225 0.23820 0.45050 -0.09800
C 	C 	0.79934 0.25969 0.44597 0.01800
C 	C 	0.81680 0.23326 0.44171 -0.07500
H 	H 	0.82031 0.00140 0.42335 0.04600
H 	H 	0.94963 0.13015 0.47798 0.04600
H 	H 	0.98751 0.09023 0.48396 0.04000
H 	H 	0.71654 0.12612 0.44427 0.04900
H 	H 	0.68554 0.17247 0.45165 0.02800
H 	H 	0.82292 0.29705 0.44708 0.03200
H 	H 	0.85360 0.25039 0.43938 0.05000
C 	C 	0.49865 0.24848 0.46325 -0.09000
C 	C 	0.46807 0.23872 0.43309 0.01800
C 	C 	0.41918 0.21362 0.43218 -0.07300
C 	C 	0.40048 0.19807 0.46133 0.04600
C 	C 	0.43077 0.20741 0.49137 -0.07300
C 	C 	0.47967 0.23250 0.49237 0.01900
C 	C 	0.35023 0.17280 0.46054 -0.03200
C 	C 	0.30822 0.15162 0.46017 0.00000
C 	C 	0.25910 0.12677 0.46003 -0.00500
C 	C 	0.21719 0.10546 0.46014 -0.02500
C 	C 	0.16718 0.07981 0.46053 0.03200
C 	C 	0.13912 0.08791 0.43988 -0.05500
C 	C 	0.09054 0.06299 0.44030 -0.01500
C 	C 	0.06969 0.02974 0.46143 -0.02400
C 	C 	0.09803 0.02184 0.48216 -0.01500
C 	C 	0.14656 0.04678 0.48167 -0.05500
H 	H 	0.48213 0.25040 0.41035 0.02600
H 	H 	0.39590 0.20637 0.40882 0.04900
H 	H 	0.41651 0.19547 0.51401 0.05000
H 	H 	0.50279 0.24003 0.51589 0.03700
H 	H 	0.15487 0.11340 0.42346 0.04600
H 	H 	0.06908 0.06919 0.42399 0.04000
H 	H 	0.08257 0.99667 0.49883 0.03900
H 	H 	0.16811 0.04046 0.49777 0.04600
C 	C 	0.74417 0.48598 0.98522 -0.09000
C 	C 	0.75913 0.50579 0.95626 0.01900
C 	C 	0.78337 0.55387 0.95811 -0.07300
C 	C 	0.79290 0.58249 0.98887 0.04700
C 	C 	0.77881 0.56300 0.01793 -0.07500
C 	C 	0.75457 0.51494 0.01616 0.01700
C 	C 	0.81636 0.63171 0.99042 -0.03200
C 	C 	0.83602 0.67291 0.99164 0.00100
C 	C 	0.85904 0.72113 0.99298 -0.00400
C 	C 	0.87889 0.76234 0.99409 -0.02500
C 	C 	0.90299 0.81160 0.99533 0.03300
C 	C 	0.87816 0.82813 0.98204 -0.05500
C 	C 	0.95164 0.84295 0.00895 -0.05600
H 	H 	0.75119 0.48389 0.93219 0.03600
H 	H 	0.79429 0.56878 0.93556 0.05000
H 	H 	0.78632 0.58499 0.04184 0.04900
H 	H 	0.74374 0.50022 0.03878 0.02500
H 	H 	0.84049 0.80404 0.97153 0.04600
H 	H 	0.97097 0.83041 0.01945 0.04600
C 	C 	0.95683 0.04796 0.99707 -0.02300
C 	C 	0.98386 0.09578 0.01118 -0.01600
C 	C 	0.96192 0.11812 0.01372 -0.05400
C 	C 	0.91288 0.09288 0.00224 0.03000
C 	C 	0.88574 0.04511 0.98852 -0.05300
C 	C 	0.90757 0.02269 0.98592 -0.01600
C 	C 	0.89057 0.11623 0.00351 -0.02500
C 	C 	0.87133 0.13523 0.00439 -0.00500
C 	C 	0.84830 0.15699 0.00473 -0.00000
C 	C 	0.82823 0.17518 0.00436 -0.03300
C 	C 	0.80380 0.19643 0.00307 0.04400
C 	C 	0.75623 0.17097 0.00690 -0.07400
C 	C 	0.73083 0.18954 0.00191 0.01600
C 	C 	0.75287 0.23375 0.99289 -0.09700
C 	C 	0.80117 0.25997 0.99049 0.01600
C 	C 	0.82645 0.24128 0.99548 -0.07300
H 	H 	0.02178 0.11560 0.02026 0.03900
H 	H 	0.98309 0.15507 0.02443 0.04600
H 	H 	0.84781 0.02541 0.97954 0.04500
H 	H 	0.88631 0.98589 0.97477 0.03900
H 	H 	0.73856 0.13634 0.01292 0.04900
H 	H 	0.69370 0.16896 0.00403 0.03400
H 	H 	0.81892 0.29446 0.98421 0.02800
H 	H 	0.86335 0.26130 0.99273 0.04800
C 	C 	0.09409 0.05168 0.97535 -0.02500
C 	C 	0.10618 0.02888 0.95314 -0.01500
C 	C 	0.15322 0.05142 0.94885 -0.05500
C 	C 	0.18851 0.09687 0.96663 0.03200
C 	C 	0.17631 0.12040 0.98781 -0.05400
C 	C 	0.12923 0.09793 0.99213 -0.01400
C 	C 	0.23758 0.11795 0.96509 -0.02500
C 	C 	0.27853 0.13522 0.96359 -0.00400
C 	C 	0.32649 0.15478 0.96244 0.00000
C 	C 	0.36755 0.17119 0.96212 -0.03200
C 	C 	0.41674 0.19065 0.96264 0.04500
C 	C 	0.43598 0.16958 0.97709 -0.07300
C 	C 	0.48472 0.19095 0.98093 0.01700
C 	C 	0.51473 0.23384 0.97045 -0.09200
C 	C 	0.49487 0.25372 0.95448 0.01500
C 	C 	0.44609 0.23226 0.95075 -0.07300
H 	H 	0.16238 0.03316 0.93226 0.04600
H 	H 	0.20343 0.15564 0.00155 0.04500
H 	H 	0.12038 0.11593 0.00930 0.03800
H 	H 	0.41337 0.13717 0.98608 0.05000
H 	H 	0.49924 0.17478 0.99288 0.03700
H 	H 	0.51726 0.28622 0.94559 0.03200
H 	H 	0.43133 0.24850 0.93925 0.04900
N 	N 	0.95635 0.97891 0.99645 -0.14100
C 	C 	0.97712 0.95689 0.99233 0.12000
N 	N 	0.02170 0.98059 0.98542 -0.14200
N 	N 	0.92431 0.95463 0.46401 -0.14100
C 	C 	0.94661 0.93402 0.46783 0.11900
N 	N 	0.99356 0.95832 0.46665 -0.14100
C 	C 	0.92037 0.88573 0.47390 -0.02400
C 	C 	0.94175 0.87405 0.49795 -0.01400
H 	H 	0.97583 0.90103 0.51403 0.03800
H 	H 	0.85828 0.96131 0.42881 0.03900
C 	C 	0.90210 0.87576 0.98176 -0.01500
C 	C 	0.95112 0.90718 0.99473 -0.02400
C 	C 	0.97564 0.89057 0.00870 -0.01500
H 	H 	0.88277 0.88806 0.97079 0.03900
H 	H 	0.01332 0.91449 0.01920 0.03900
H 	H 	0.07927 0.99349 0.93960 0.04000
