data_crystal

_cell_length_a 30.24560
_cell_length_b 30.11027
_cell_length_c 34.66605
_cell_angle_alpha 95.51248
_cell_angle_beta  95.51347
_cell_angle_gamma 125.55140

_symmetry_space_group_name_	'P 1'
_symmetry_space_group_name_H-M	'P 1'

loop_
_symmetry_equiv_pos_as_xyz
  x,y,z

loop_
_atom_site_label
_atom_site_type_symbol
_atom_site_fract_x
_atom_site_fract_y
_atom_site_fract_z
_atom_site_charge
C 	C 	0.97435 0.03144 0.00135 0.11200
N 	N 	0.02772 0.06042 0.99607 -0.13800
C 	C 	0.05007 0.03337 0.98710 0.11600
N 	N 	0.01892 0.97726 0.98356 -0.13800
C 	C 	0.96567 0.94818 0.98881 0.11900
N 	N 	0.94346 0.97529 0.99769 -0.13800
C 	C 	0.95072 0.00521 0.44136 0.11400
N 	N 	0.00386 0.03112 0.43630 -0.14100
C 	C 	0.02746 0.00422 0.43733 0.11900
N 	N 	0.99751 0.95085 0.44287 -0.14200
C 	C 	0.94437 0.92454 0.44804 0.11900
N 	N 	0.92099 0.95186 0.44738 -0.14000
Cu	Cu	0.64097 0.24972 0.00093 0.92600
Cu	Cu	0.67534 0.24961 0.91391 0.87000
Cu	Cu	0.67171 0.34008 0.95215 0.89800
Cu	Cu	0.64611 0.35466 0.03218 0.89300
C 	C 	0.66614 0.29254 0.08409 0.28200
O 	O 	0.56131 0.21819 0.00361 -0.36600
C 	C 	0.64699 0.30316 0.86521 0.28300
O 	O 	0.68685 0.33645 0.00615 -0.64100
O 	O 	0.63033 0.25758 0.94542 -0.64000
O 	O 	0.67422 0.20905 0.99449 -0.37500
O 	O 	0.73091 0.26511 0.95524 -0.44300
O 	O 	0.64091 0.31572 0.07691 -0.38400
O 	O 	0.71602 0.42032 0.96257 -0.38300
C 	C 	0.71456 0.45054 0.99201 0.29100
C 	C 	0.53977 0.24325 0.99217 0.28600
O 	O 	0.57225 0.29532 0.98805 -0.39000
O 	O 	0.67700 0.42717 0.01469 -0.39800
O 	O 	0.66252 0.25661 0.05633 -0.36100
C 	C 	0.71929 0.23028 0.97939 0.29000
O 	O 	0.66943 0.34471 0.89556 -0.38700
O 	O 	0.63812 0.25577 0.86959 -0.42000
H 	H 	0.72673 0.35909 0.01782 0.16100
H 	H 	0.59129 0.23666 0.93202 0.17200
Cu	Cu	0.73079 0.33951 0.45516 0.92700
Cu	Cu	0.72253 0.29474 0.53881 0.87000
Cu	Cu	0.63382 0.29864 0.49833 0.89700
Cu	Cu	0.62639 0.33233 0.42041 0.89300
C 	C 	0.69857 0.32495 0.37149 0.28200
O 	O 	0.75993 0.42001 0.45665 -0.36300
C 	C 	0.66319 0.31744 0.58532 0.28300
O 	O 	0.64390 0.29015 0.44512 -0.64000
O 	O 	0.71631 0.34268 0.50938 -0.64200
O 	O 	0.77259 0.30747 0.46185 -0.37500
O 	O 	0.71235 0.24369 0.49583 -0.44300
O 	O 	0.67248 0.34701 0.37897 -0.38500
O 	O 	0.55402 0.25222 0.48388 -0.38200
C 	C 	0.52589 0.25364 0.45297 0.28900
C 	C 	0.73174 0.43808 0.46781 0.28300
O 	O 	0.67903 0.40229 0.46881 -0.39300
O 	O 	0.55043 0.29430 0.43268 -0.39600
O 	O 	0.73055 0.32461 0.40008 -0.35900
C 	C 	0.74979 0.25954 0.47349 0.28900
O 	O 	0.62360 0.29427 0.55367 -0.38700
O 	O 	0.71106 0.32654 0.58341 -0.41900
H 	H 	0.62346 0.25106 0.43152 0.16200
H 	H 	0.73502 0.38061 0.52468 0.17100
C 	C 	0.65010 0.32331 0.62435 -0.07600
C 	C 	0.68617 0.37319 0.65157 0.00400
C 	C 	0.67990 0.37585 0.69095 -0.05400
C 	C 	0.63978 0.32718 0.70418 0.00500
C 	C 	0.59932 0.27889 0.67572 0.00700
C 	C 	0.60487 0.27722 0.63594 -0.01800
C 	C 	0.55471 0.23238 0.68740 -0.04200
C 	C 	0.55177 0.23174 0.72723 -0.04200
C 	C 	0.59472 0.27650 0.75624 0.00600
C 	C 	0.63937 0.32491 0.74509 0.00400
C 	C 	0.68464 0.36719 0.77476 -0.05400
C 	C 	0.68469 0.36174 0.81431 0.00200
C 	C 	0.64113 0.31339 0.82502 -0.07600
C 	C 	0.59545 0.27170 0.79617 -0.01800
H 	H 	0.71927 0.40994 0.64223 0.02800
H 	H 	0.70471 0.41593 0.71036 0.04000
H 	H 	0.57568 0.23925 0.61445 0.03800
H 	H 	0.52251 0.19619 0.66555 0.03600
H 	H 	0.51713 0.19516 0.73566 0.03600
H 	H 	0.72143 0.40248 0.76741 0.03900
H 	H 	0.72045 0.39383 0.83643 0.03300
H 	H 	0.56166 0.23435 0.80458 0.03700
C 	C 	0.68508 0.29512 0.12544 -0.07100
C 	C 	0.66314 0.24615 0.14055 0.00700
C 	C 	0.67271 0.24857 0.18124 -0.05300
C 	C 	0.70250 0.30022 0.20743 0.00600
C 	C 	0.73083 0.34960 0.19170 0.00800
C 	C 	0.72095 0.34677 0.15083 -0.02000
C 	C 	0.76805 0.40119 0.21695 -0.04200
C 	C 	0.77508 0.40459 0.25772 -0.04100
C 	C 	0.74237 0.35696 0.27402 0.00800
C 	C 	0.70494 0.30414 0.24899 0.00500
C 	C 	0.66720 0.25804 0.26570 -0.05200
C 	C 	0.66796 0.26434 0.30629 0.00000
C 	C 	0.70524 0.31645 0.33075 -0.06900
C 	C 	0.74349 0.36223 0.31483 -0.01400
H 	H 	0.63765 0.20611 0.12085 0.04000
H 	H 	0.65871 0.21068 0.19192 0.04200
H 	H 	0.73994 0.38466 0.13888 0.02700
H 	H 	0.79148 0.43889 0.20497 0.03600
H 	H 	0.80415 0.44489 0.27676 0.03800
H 	H 	0.63475 0.21836 0.24733 0.04000
H 	H 	0.63763 0.22907 0.31845 0.02300
H 	H 	0.77187 0.40268 0.33391 0.04300
C 	C 	0.91245 0.86654 0.45462 -0.02600
C 	C 	0.94028 0.84610 0.47074 -0.01500
C 	C 	0.91111 0.78992 0.47308 -0.05800
C 	C 	0.85340 0.75365 0.46047 0.03300
C 	C 	0.82535 0.77431 0.44541 -0.05900
C 	C 	0.85465 0.83046 0.44254 -0.01500
C 	C 	0.82289 0.69304 0.45889 -0.04700
C 	C 	0.83399 0.67288 0.48833 -0.05600
C 	C 	0.80742 0.61272 0.48455 0.04700
C 	C 	0.74962 0.57399 0.47480 -0.07700
C 	C 	0.72491 0.51710 0.47012 0.01800
C 	C 	0.75772 0.49829 0.47540 -0.09300
C 	C 	0.81544 0.53719 0.48646 0.01900
C 	C 	0.84010 0.59414 0.49123 -0.07700
H 	H 	0.98473 0.87351 0.48072 0.03800
H 	H 	0.93362 0.77435 0.48362 0.04300
H 	H 	0.78094 0.74664 0.43523 0.04200
H 	H 	0.83257 0.84544 0.42991 0.03800
H 	H 	0.79076 0.66454 0.43337 0.04100
H 	H 	0.86541 0.70113 0.51421 0.04200
H 	H 	0.72388 0.58794 0.47065 0.04700
H 	H 	0.68033 0.48767 0.46173 0.02600
H 	H 	0.84122 0.52338 0.49125 0.02900
H 	H 	0.88469 0.62378 0.49947 0.04600
C 	C 	0.92598 0.03558 0.44107 -0.02300
C 	C 	0.96024 0.09394 0.45107 -0.01900
C 	C 	0.93773 0.12318 0.44802 -0.05800
C 	C 	0.88068 0.09456 0.43578 0.03200
C 	C 	0.84610 0.03622 0.42636 -0.05700
C 	C 	0.86864 0.00683 0.42899 -0.02000
C 	C 	0.85772 0.12611 0.43155 -0.04800
C 	C 	0.81945 0.11903 0.45227 -0.05600
C 	C 	0.80117 0.15519 0.45213 0.04700
C 	C 	0.74497 0.13172 0.45010 -0.08000
C 	C 	0.72786 0.16584 0.45503 0.02000
C 	C 	0.76688 0.22391 0.46231 -0.09900
C 	C 	0.82293 0.24748 0.46289 0.01900
C 	C 	0.84012 0.21334 0.45822 -0.07800
H 	H 	0.00439 0.11673 0.46101 0.04100
H 	H 	0.96467 0.16817 0.45534 0.04200
H 	H 	0.80198 0.01375 0.41645 0.04200
H 	H 	0.84169 0.96192 0.42086 0.04100
H 	H 	0.87565 0.15862 0.41403 0.04100
H 	H 	0.80093 0.08583 0.46921 0.04200
H 	H 	0.71462 0.08701 0.44551 0.04500
H 	H 	0.68439 0.14715 0.45408 0.02500
H 	H 	0.85348 0.29222 0.46869 0.02800
H 	H 	0.88382 0.23213 0.46077 0.04700
C 	C 	0.08630 0.03386 0.43451 -0.02500
C 	C 	0.11036 0.07525 0.41140 -0.01500
C 	C 	0.16691 0.10585 0.41078 -0.05900
C 	C 	0.19984 0.09498 0.43283 0.03300
C 	C 	0.17576 0.05322 0.45564 -0.05700
C 	C 	0.11923 0.02262 0.45631 -0.01800
C 	C 	0.26026 0.13070 0.43464 -0.04700
C 	C 	0.28767 0.10860 0.42967 -0.05600
C 	C 	0.34855 0.14455 0.43413 0.04700
C 	C 	0.37975 0.13321 0.45787 -0.07700
C 	C 	0.43750 0.16830 0.46362 0.01800
C 	C 	0.46469 0.21511 0.44551 -0.09100
C 	C 	0.43317 0.22510 0.42043 0.01700
C 	C 	0.37545 0.18980 0.41459 -0.07700
H 	H 	0.08535 0.08398 0.39414 0.03900
H 	H 	0.18521 0.13826 0.39334 0.04300
H 	H 	0.20105 0.04542 0.47360 0.04300
H 	H 	0.10138 0.99126 0.47461 0.04000
H 	H 	0.28238 0.17552 0.43928 0.04200
H 	H 	0.26549 0.06377 0.42496 0.04200
H 	H 	0.35928 0.09769 0.47240 0.04600
H 	H 	0.46103 0.15915 0.48225 0.03200
H 	H 	0.45328 0.26040 0.40570 0.03100
H 	H 	0.35166 0.19776 0.39501 0.04700
C 	C 	0.74914 0.51165 0.99542 -0.08800
C 	C 	0.75537 0.54540 0.02962 0.01300
C 	C 	0.78645 0.60296 0.03236 -0.07500
C 	C 	0.81152 0.62744 0.00099 0.04300
C 	C 	0.80707 0.59407 0.96737 -0.07200
C 	C 	0.77570 0.53647 0.96444 0.01600
C 	C 	0.84423 0.68836 0.00428 -0.05800
C 	C 	0.83812 0.71085 0.97445 -0.04600
C 	C 	0.87047 0.77166 0.97815 0.03600
C 	C 	0.90335 0.79791 0.95028 -0.05900
C 	C 	0.93438 0.85556 0.95371 -0.01400
C 	C 	0.93206 0.88736 0.98472 -0.02300
C 	C 	0.89809 0.86089 0.01208 -0.01700
C 	C 	0.86741 0.80328 0.00881 -0.06100
H 	H 	0.73621 0.52712 0.05411 0.02700
H 	H 	0.79065 0.62849 0.05876 0.04500
H 	H 	0.82805 0.61275 0.94358 0.04700
H 	H 	0.77186 0.51123 0.93803 0.03700
H 	H 	0.87135 0.71503 0.03214 0.04300
H 	H 	0.81080 0.68442 0.94662 0.04100
H 	H 	0.90532 0.77370 0.92622 0.04300
H 	H 	0.95997 0.87548 0.93216 0.03700
H 	H 	0.89595 0.88500 0.03611 0.03700
H 	H 	0.84125 0.78321 0.03003 0.04400
C 	C 	0.94936 0.06058 0.00978 -0.02700
C 	C 	0.90366 0.03669 0.02890 -0.01800
C 	C 	0.87705 0.06177 0.03386 -0.06000
C 	C 	0.89568 0.11082 0.01973 0.03500
C 	C 	0.94324 0.13646 0.00265 -0.06600
C 	C 	0.96961 0.11122 0.99735 -0.01100
C 	C 	0.86510 0.13508 0.02287 -0.05200
C 	C 	0.85231 0.15168 0.99184 -0.05400
C 	C 	0.82108 0.17508 0.99457 0.05200
C 	C 	0.84254 0.22695 0.98427 -0.08200
C 	C 	0.81031 0.24628 0.98141 0.02000
C 	C 	0.75574 0.21336 0.98809 -0.10300
C 	C 	0.73499 0.16230 0.99997 0.02700
C 	C 	0.76751 0.14320 0.00311 -0.08700
H 	H 	0.88843 0.99848 0.03963 0.04000
H 	H 	0.84124 0.04241 0.04796 0.04200
H 	H 	0.95941 0.17561 0.99311 0.04600
H 	H 	0.00510 0.13052 0.98293 0.03900
H 	H 	0.85006 0.13626 0.04993 0.04200
H 	H 	0.86668 0.14987 0.96457 0.04200
H 	H 	0.88388 0.25187 0.97773 0.04600
H 	H 	0.82735 0.28628 0.97308 0.02600
H 	H 	0.69310 0.13652 0.00540 0.02800
H 	H 	0.75038 0.10284 0.01082 0.04900
C 	C 	0.47970 0.21471 0.98754 -0.09000
C 	C 	0.44257 0.15794 0.97093 0.01900
C 	C 	0.38560 0.13045 0.96809 -0.07500
C 	C 	0.36523 0.15943 0.98183 0.04500
C 	C 	0.40253 0.21619 0.99881 -0.06800
C 	C 	0.45937 0.24379 0.00116 0.01200
C 	C 	0.30523 0.12890 0.98152 -0.05500
C 	C 	0.27866 0.15099 0.97203 -0.04700
C 	C 	0.21967 0.12161 0.97438 0.02900
C 	C 	0.20304 0.14828 0.99752 -0.04900
C 	C 	0.14757 0.11991 0.00122 -0.02500
C 	C 	0.10806 0.06475 0.98130 -0.01900
C 	C 	0.12453 0.03892 0.95683 -0.02100
C 	C 	0.18003 0.06721 0.95341 -0.05500
H 	H 	0.45780 0.13510 0.96027 0.02600
H 	H 	0.35729 0.08653 0.95544 0.04600
H 	H 	0.38763 0.23860 0.01103 0.04300
H 	H 	0.48769 0.28742 0.01459 0.02400
H 	H 	0.28225 0.08730 0.98830 0.04400
H 	H 	0.30117 0.19221 0.96466 0.04100
H 	H 	0.23328 0.19057 0.01335 0.03900
H 	H 	0.13558 0.14046 0.02015 0.04000
H 	H 	0.09439 0.99690 0.94054 0.04200
H 	H 	0.19226 0.04681 0.93457 0.04200
