data_crystal

_cell_length_a 26.24671
_cell_length_b 26.37045
_cell_length_c 26.56861
_cell_angle_alpha 95.47863
_cell_angle_beta  95.47840
_cell_angle_gamma 125.73219

_symmetry_space_group_name_	'P 1'
_symmetry_space_group_name_H-M	'P 1'

loop_
_symmetry_equiv_pos_as_xyz
  x,y,z

loop_
_atom_site_label
_atom_site_type_symbol
_atom_site_fract_x
_atom_site_fract_y
_atom_site_fract_z
_atom_site_charge
H 	H 	0.13591 0.03624 0.91682 0.03900
C 	C 	0.85000 0.00386 0.48134 -0.04800
C 	C 	0.98255 0.01531 0.44303 -0.05200
C 	C 	0.88296 0.00774 0.44161 0.01700
H 	H 	0.80295 0.03693 0.51793 0.03200
C 	C 	0.08396 0.02677 0.44524 0.01900
H 	H 	0.10780 0.07143 0.52478 0.04100
C 	C 	0.82307 0.03649 0.48441 -0.02900
C 	C 	0.99343 0.06007 0.99593 0.03300
C 	C 	0.08783 0.06400 0.99149 0.03000
C 	C 	0.88900 0.04477 0.40473 -0.07100
H 	H 	0.73027 0.04979 0.49565 0.04100
C 	C 	0.12614 0.06667 0.49121 -0.05100
C 	C 	0.10791 0.02311 0.40124 -0.06900
H 	H 	0.91540 0.04859 0.37446 0.04800
H 	H 	0.93685 0.07527 0.06972 0.04700
C 	C 	0.17255 0.07625 0.94660 -0.04600
H 	H 	0.00920 0.06608 0.44423 0.04200
C 	C 	0.82707 0.07233 0.44655 -0.01500
H 	H 	0.24867 0.08835 0.91256 0.03500
C 	C 	0.86340 0.07895 0.40809 0.03300
C 	C 	0.17406 0.05762 0.40351 0.03300
C 	C 	0.19207 0.10089 0.49406 -0.02700
C 	C 	0.05825 0.09436 0.99225 -0.07900
C 	C 	0.75283 0.09159 0.47821 -0.05800
H 	H 	0.16569 0.03118 0.32194 0.04100
C 	C 	0.96161 0.09124 0.99475 0.00600
C 	C 	0.93292 0.09369 0.03591 -0.06300
H 	H 	0.33486 0.09806 0.94248 0.04300
C 	C 	0.19805 0.05788 0.35852 -0.05400
C 	C 	0.15545 0.09926 0.98628 0.00700
C 	C 	0.21665 0.09362 0.45110 -0.01600
C 	C 	0.23679 0.10437 0.94532 -0.02900
C 	C 	0.26375 0.09387 0.36009 -0.03400
H 	H 	0.28138 0.09496 0.32463 0.03500
C 	C 	0.79974 0.10578 0.44832 0.01300
H 	H 	0.07509 0.99366 0.36529 0.04500
C 	C 	0.01451 0.98743 0.44348 0.00400
C 	C 	0.91627 0.97779 0.44136 0.01100
C 	C 	0.05270 0.99958 0.99512 -0.08100
C 	C 	0.98794 0.96512 0.99818 0.03200
C 	C 	0.95831 0.99531 0.99868 -0.08200
H 	H 	0.08531 0.14422 0.98949 0.04900
H 	H 	0.07556 0.97611 0.99498 0.05000
H 	H 	0.90796 0.96837 0.00054 0.05400
C 	C 	0.88227 0.91221 0.44105 -0.06200
C 	C 	0.91448 0.88439 0.44217 0.01500
C 	C 	0.98042 0.92207 0.44268 -0.05600
H 	H 	0.83124 0.88317 0.44040 0.04500
H 	H 	0.00528 0.90062 0.44294 0.04400
Cu	Cu	0.66450 0.27054 0.00809 0.92900
Cu	Cu	0.70361 0.26781 0.89456 0.87200
Cu	Cu	0.69886 0.37129 0.94171 0.89600
Cu	Cu	0.67211 0.39113 0.04630 0.89500
C 	C 	0.68655 0.31596 0.11690 0.30300
O 	O 	0.57293 0.23602 0.01174 -0.35800
C 	C 	0.66912 0.32563 0.82841 0.30500
O 	O 	0.71848 0.36941 0.01270 -0.63900
O 	O 	0.65140 0.27714 0.93493 -0.64100
O 	O 	0.70111 0.22232 0.00115 -0.36300
O 	O 	0.76627 0.28514 0.94926 -0.44000
O 	O 	0.66241 0.34658 0.10557 -0.38900
O 	O 	0.74947 0.46314 0.95330 -0.38100
C 	C 	0.74899 0.49889 0.99144 0.28300
C 	C 	0.54897 0.26482 0.99544 0.27800
O 	O 	0.58730 0.32367 0.98866 -0.39300
O 	O 	0.70827 0.47371 0.02327 -0.39100
O 	O 	0.69038 0.28087 0.08062 -0.35300
C 	C 	0.75119 0.24356 0.97929 0.28400
O 	O 	0.69348 0.37388 0.86708 -0.38800
O 	O 	0.66023 0.27251 0.83575 -0.41100
H 	H 	0.76470 0.39553 0.02739 0.16600
H 	H 	0.60625 0.25253 0.91746 0.17500
Cu	Cu	0.71058 0.30946 0.43243 0.92700
Cu	Cu	0.72205 0.28381 0.54977 0.87100
Cu	Cu	0.61488 0.28429 0.50280 0.89700
Cu	Cu	0.58349 0.29394 0.39161 0.89400
C 	C 	0.66624 0.28926 0.32470 0.30600
O 	O 	0.74700 0.39927 0.42263 -0.35900
C 	C 	0.66802 0.32401 0.61547 0.30200
O 	O 	0.61168 0.25710 0.43223 -0.63700
O 	O 	0.70882 0.33053 0.50550 -0.64100
O 	O 	0.75711 0.27104 0.44095 -0.36900
O 	O 	0.69942 0.21461 0.49925 -0.44000
O 	O 	0.60976 0.27572 0.32834 -0.39000
O 	O 	0.52278 0.23349 0.49551 -0.38000
C 	C 	0.48472 0.22980 0.45660 0.28400
C 	C 	0.71552 0.42336 0.42810 0.28000
O 	O 	0.65711 0.38804 0.43702 -0.38700
O 	O 	0.50802 0.26901 0.42367 -0.39200
O 	O 	0.69677 0.27951 0.36029 -0.36000
C 	C 	0.73598 0.22326 0.46554 0.28200
O 	O 	0.61798 0.29853 0.57800 -0.38700
O 	O 	0.72095 0.33286 0.60650 -0.40900
H 	H 	0.58654 0.21037 0.42188 0.16500
H 	H 	0.73389 0.37661 0.51948 0.17500
C 	C 	0.66108 0.33479 0.77517 -0.11000
C 	C 	0.71273 0.38646 0.75834 -0.06300
C 	C 	0.71290 0.38625 0.70558 0.16500
C 	C 	0.66119 0.33386 0.66932 -0.10900
C 	C 	0.60649 0.28601 0.68622 -0.06400
C 	C 	0.60624 0.28639 0.73896 0.16600
H 	H 	0.75443 0.42492 0.78602 0.05900
O 	O 	0.76504 0.43557 0.68961 -0.28800
H 	H 	0.56561 0.24646 0.65858 0.06100
O 	O 	0.55389 0.23735 0.75494 -0.29000
H 	H 	0.52657 0.25139 0.75944 0.14300
H 	H 	0.75568 0.46650 0.68547 0.14300
C 	C 	0.69491 0.30899 0.17085 -0.10200
C 	C 	0.72834 0.36317 0.20998 -0.05900
C 	C 	0.72291 0.35698 0.26135 0.16200
C 	C 	0.68497 0.29623 0.27404 -0.10100
C 	C 	0.65629 0.24210 0.23563 -0.05600
C 	C 	0.66056 0.24816 0.18407 0.16900
H 	H 	0.75589 0.41016 0.20027 0.05100
O 	O 	0.75376 0.41040 0.29899 -0.28400
H 	H 	0.62770 0.19515 0.24533 0.06200
O 	O 	0.62942 0.19459 0.14658 -0.27800
H 	H 	0.58592 0.18276 0.13622 0.15000
H 	H 	0.72331 0.42097 0.30094 0.14000
C 	C 	0.87969 0.81603 0.44398 0.01600
C 	C 	0.89940 0.79715 0.48442 -0.04900
C 	C 	0.87259 0.73298 0.48311 -0.02700
C 	C 	0.82657 0.68665 0.44029 -0.01600
C 	C 	0.80175 0.70507 0.40242 0.03300
C 	C 	0.82970 0.76984 0.40371 -0.07000
C 	C 	0.74856 0.65862 0.36441 -0.05400
C 	C 	0.71962 0.59420 0.36370 -0.03400
C 	C 	0.74593 0.57519 0.39879 0.00100
C 	C 	0.80187 0.62151 0.43562 0.01600
C 	C 	0.83365 0.60201 0.46445 -0.05800
C 	C 	0.80596 0.53732 0.46115 0.00900
C 	C 	0.74735 0.49136 0.42828 -0.07500
C 	C 	0.71796 0.51033 0.39653 -0.01300
H 	H 	0.93585 0.83238 0.51690 0.04100
H 	H 	0.88567 0.71953 0.51636 0.03400
H 	H 	0.81312 0.78429 0.37320 0.04700
H 	H 	0.72870 0.67239 0.33591 0.04000
H 	H 	0.67741 0.55897 0.33494 0.03400
H 	H 	0.88083 0.63644 0.48748 0.04300
H 	H 	0.83003 0.52296 0.48442 0.03000
H 	H 	0.67376 0.47467 0.36972 0.02700
C 	C 	0.75492 0.18041 0.45677 -0.07900
C 	C 	0.73170 0.12936 0.48309 0.00100
C 	C 	0.81786 0.15266 0.41746 0.00300
C 	C 	0.79666 0.19078 0.42279 -0.01600
C 	C 	0.85580 0.16007 0.38090 -0.03400
C 	C 	0.87654 0.12207 0.37511 -0.05300
H 	H 	0.69669 0.11844 0.50712 0.02900
H 	H 	0.81257 0.22823 0.40054 0.04900
H 	H 	0.86856 0.19480 0.35633 0.03900
H 	H 	0.90472 0.12766 0.34591 0.04200
H 	H 	0.84726 0.97737 0.51106 0.03800
C 	C 	0.30658 0.12698 0.40715 0.00100
C 	C 	0.28323 0.12431 0.45352 0.01500
C 	C 	0.32630 0.14915 0.50091 -0.05700
C 	C 	0.39189 0.18292 0.50184 0.00700
C 	C 	0.41537 0.19046 0.45574 -0.07500
C 	C 	0.37256 0.16142 0.40852 -0.01600
H 	H 	0.22350 0.13500 0.52871 0.03400
H 	H 	0.30931 0.14002 0.53684 0.04300
H 	H 	0.42445 0.20332 0.53853 0.04000
H 	H 	0.39058 0.16512 0.37291 0.03100
C 	C 	0.78676 0.56790 0.99327 -0.07800
C 	C 	0.81188 0.60932 0.04087 0.00800
C 	C 	0.84325 0.67439 0.04315 -0.05500
C 	C 	0.85264 0.69965 0.99749 0.01100
C 	C 	0.82384 0.65722 0.94940 0.00200
C 	C 	0.79286 0.59191 0.94759 -0.01400
C 	C 	0.82371 0.68003 0.90386 -0.03400
C 	C 	0.85112 0.74422 0.90552 -0.05300
C 	C 	0.88290 0.78753 0.95234 0.03100
C 	C 	0.88682 0.76608 0.99849 -0.01600
C 	C 	0.92761 0.81157 0.04354 -0.02700
C 	C 	0.95804 0.87617 0.04378 -0.04300
C 	C 	0.95070 0.89676 0.99887 0.00600
C 	C 	0.91330 0.85256 0.95322 -0.06600
H 	H 	0.80561 0.59081 0.07629 0.02700
H 	H 	0.85650 0.70396 0.08015 0.04200
H 	H 	0.77139 0.55956 0.91075 0.04500
H 	H 	0.80090 0.64760 0.86709 0.03700
H 	H 	0.84891 0.76059 0.87003 0.04000
H 	H 	0.93914 0.79783 0.07732 0.03500
H 	H 	0.98920 0.91055 0.07856 0.04000
H 	H 	0.90964 0.86902 0.91809 0.04600
C 	C 	0.78344 0.21301 0.98102 -0.08800
C 	C 	0.80032 0.19877 0.93620 0.00800
C 	C 	0.83375 0.17275 0.93768 -0.06100
C 	C 	0.85374 0.16341 0.98488 0.01300
C 	C 	0.83171 0.17242 0.02915 0.00400
C 	C 	0.79771 0.19836 0.02718 -0.00700
C 	C 	0.84245 0.15396 0.07437 -0.03300
C 	C 	0.87433 0.12627 0.07602 -0.05200
C 	C 	0.89944 0.12009 0.03352 0.03400
C 	C 	0.89235 0.14186 0.98851 -0.01700
C 	C 	0.92645 0.14443 0.94953 -0.02900
C 	C 	0.95929 0.11778 0.95216 -0.04600
H 	H 	0.78634 0.20672 0.89981 0.00700
H 	H 	0.84096 0.15707 0.90177 0.04000
H 	H 	0.78279 0.20747 0.06148 0.04800
H 	H 	0.82489 0.15987 0.10808 0.04100
H 	H 	0.88053 0.11064 0.11084 0.04200
H 	H 	0.93024 0.16945 0.91849 0.03400
H 	H 	0.98336 0.11811 0.92112 0.04000
C 	C 	0.28498 0.15516 0.98477 -0.01700
C 	C 	0.26777 0.18310 0.02097 0.03400
C 	C 	0.20307 0.15383 0.02250 -0.06400
C 	C 	0.31529 0.24038 0.05461 -0.05400
C 	C 	0.37962 0.26988 0.05296 -0.03300
C 	C 	0.39770 0.24033 0.02027 0.00200
C 	C 	0.35046 0.18093 0.98770 0.01300
C 	C 	0.36959 0.14685 0.96202 -0.05800
C 	C 	0.43444 0.17444 0.96458 0.00800
C 	C 	0.48095 0.23550 0.99337 -0.08100
C 	C 	0.46259 0.26820 0.02142 -0.00800
H 	H 	0.18979 0.17290 0.05218 0.04600
H 	H 	0.30235 0.26273 0.08155 0.04100
H 	H 	0.41563 0.31498 0.07836 0.03500
H 	H 	0.44851 0.14810 0.94435 0.02800
H 	H 	0.49883 0.31454 0.04522 0.02900
