data_crystal

_cell_length_a 27.51871
_cell_length_b 28.98189
_cell_length_c 30.75848
_cell_angle_alpha 61.19814
_cell_angle_beta  118.48386
_cell_angle_gamma 133.19160

_symmetry_space_group_name_	'P 1'
_symmetry_space_group_name_H-M	'P 1'

loop_
_symmetry_equiv_pos_as_xyz
  x,y,z

loop_
_atom_site_label
_atom_site_type_symbol
_atom_site_fract_x
_atom_site_fract_y
_atom_site_fract_z
_atom_site_charge
C 	C 	0.71605 0.30171 0.00014 0.03000
C 	C 	0.76307 0.36837 0.00124 -0.07300
C 	C 	0.74181 0.39856 0.00512 0.03100
C 	C 	0.67569 0.36150 0.01120 -0.07400
C 	C 	0.63038 0.29502 0.01297 0.03300
C 	C 	0.64830 0.26665 0.00295 -0.07300
H 	H 	0.81582 0.39591 0.00046 0.04900
H 	H 	0.66078 0.38377 0.01742 0.05300
H 	H 	0.61078 0.21628 0.00033 0.05200
C 	C 	0.73946 0.32915 0.53785 0.03200
C 	C 	0.78353 0.38876 0.55171 -0.07600
C 	C 	0.75697 0.40825 0.56307 0.03200
C 	C 	0.68664 0.36926 0.55929 -0.07600
C 	C 	0.64287 0.30961 0.54646 0.03200
C 	C 	0.66909 0.28941 0.53574 -0.07600
H 	H 	0.83797 0.41925 0.55413 0.04900
H 	H 	0.66615 0.38462 0.56773 0.05200
H 	H 	0.63521 0.24252 0.52668 0.05200
C 	C 	0.26960 0.61076 0.26945 0.03100
C 	C 	0.34029 0.65825 0.27220 -0.07600
C 	C 	0.37717 0.64645 0.26492 0.03200
C 	C 	0.34387 0.58685 0.25593 -0.07600
C 	C 	0.27303 0.54033 0.25094 0.03200
C 	C 	0.23577 0.55184 0.25832 -0.07600
H 	H 	0.36604 0.70477 0.27869 0.04900
H 	H 	0.37271 0.57779 0.25057 0.05200
H 	H 	0.18091 0.51583 0.25468 0.05100
C 	C 	0.26819 0.66038 0.76939 0.03000
C 	C 	0.33760 0.69224 0.77367 -0.07600
C 	C 	0.35678 0.66326 0.76565 0.03100
C 	C 	0.30671 0.60224 0.75406 -0.07600
C 	C 	0.23757 0.57053 0.74908 0.03200
C 	C 	0.21808 0.59924 0.75713 -0.07600
H 	H 	0.37624 0.73973 0.78235 0.04900
H 	H 	0.32134 0.58036 0.74698 0.05200
H 	H 	0.16439 0.57510 0.75268 0.05100
Co	Co	0.09407 0.95313 0.18098 1.18300
Co	Co	0.92794 0.97078 0.13083 1.17900
Co	Co	0.04559 0.99916 0.22082 1.18200
Co	Co	0.97277 0.91521 0.09529 1.18000
C 	C 	0.12822 0.86115 0.21427 0.30800
Co	Co	0.08450 0.90160 0.10195 1.16500
Co	Co	0.95951 0.04581 0.20431 1.17500
C 	C 	0.02024 0.95724 0.00453 0.29800
O 	O 	0.05994 0.10113 0.24383 -0.40200
O 	O 	0.97548 0.99749 0.18546 -0.76700
C 	C 	0.11066 0.13140 0.22397 0.30700
O 	O 	0.11599 0.98540 0.23774 -0.47600
O 	O 	0.90005 0.92644 0.07966 -0.46900
C 	C 	0.94338 0.09852 0.09478 0.30000
O 	O 	0.99552 0.93692 0.16735 -0.58800
C 	C 	0.98733 0.96772 0.30526 0.28500
C 	C 	0.20298 0.03339 0.12089 0.29500
C 	C 	0.93895 0.78840 0.09573 0.28400
O 	O 	0.11005 0.10016 0.20359 -0.39200
O 	O 	0.16133 0.00020 0.08547 -0.37300
O 	O 	0.17902 0.03411 0.14908 -0.38100
O 	O 	0.98681 0.11358 0.13770 -0.40300
O 	O 	0.93010 0.05370 0.08021 -0.37500
O 	O 	0.93857 0.97312 0.27027 -0.39800
O 	O 	0.02710 0.96580 0.29358 -0.37300
O 	O 	0.00190 0.80687 0.12110 -0.38700
O 	O 	0.91470 0.81843 0.09078 -0.37500
O 	O 	0.04622 0.92243 0.12933 -0.76600
C 	C 	0.82093 0.92995 0.17116 0.30500
O 	O 	0.85685 0.99259 0.16671 -0.41400
O 	O 	0.83787 0.90869 0.15514 -0.38600
O 	O 	0.14889 0.89301 0.17185 -0.42000
O 	O 	0.10116 0.87612 0.22611 -0.39200
O 	O 	0.02547 0.90885 0.02846 -0.40700
O 	O 	0.00772 0.97530 0.02801 -0.39600
Co	Co	0.08449 0.99607 0.66891 1.17500
Co	Co	0.89410 0.97456 0.62266 1.17600
Co	Co	0.02307 0.04276 0.69650 1.19000
Co	Co	0.96034 0.94127 0.58739 1.18000
C 	C 	0.09674 0.88298 0.71778 0.29500
Co	Co	0.07173 0.92225 0.60551 1.16800
Co	Co	0.89653 0.03450 0.69032 1.17500
C 	C 	0.01869 0.97752 0.50128 0.29200
O 	O 	0.96217 0.13043 0.65607 -0.39900
O 	O 	0.94198 0.01794 0.66665 -0.76000
C 	C 	0.02936 0.16393 0.67375 0.29800
O 	O 	0.10583 0.04546 0.71270 -0.45600
O 	O 	0.87623 0.93476 0.57308 -0.47600
C 	C 	0.83267 0.04561 0.57994 0.30700
O 	O 	0.00045 0.00989 0.63128 -0.56700
C 	C 	0.98574 0.01195 0.78864 0.33700
C 	C 	0.19823 0.05063 0.62740 0.32900
C 	C 	0.92410 0.81465 0.59809 0.30800
O 	O 	0.06373 0.14013 0.68633 -0.37600
O 	O 	0.17299 0.98957 0.63665 -0.42900
O 	O 	0.17276 0.06604 0.64081 -0.38200
O 	O 	0.81890 0.01831 0.62474 -0.40500
O 	O 	0.86651 0.03630 0.57002 -0.38300
O 	O 	0.96837 0.05162 0.75902 -0.40600
O 	O 	0.00164 0.99297 0.76900 -0.41400
O 	O 	0.97337 0.85064 0.57474 -0.41300
O 	O 	0.91574 0.84222 0.61502 -0.40400
O 	O 	0.03921 0.96047 0.61949 -0.76200
C 	C 	0.79706 0.89249 0.69455 0.29200
O 	O 	0.83879 0.93572 0.72220 -0.39400
O 	O 	0.81905 0.89217 0.66434 -0.39300
O 	O 	0.06075 0.86054 0.67666 -0.39800
O 	O 	0.09082 0.92039 0.72532 -0.39400
O 	O 	0.07540 0.98636 0.53487 -0.39900
O 	O 	0.97145 0.96856 0.51342 -0.38300
C 	C 	0.01623 0.98270 0.94866 -0.07900
C 	C 	0.95336 0.96849 0.91498 -0.02300
C 	C 	0.94113 0.97341 0.86350 0.01700
C 	C 	0.99282 0.99363 0.84469 -0.12000
C 	C 	0.05624 0.00917 0.87817 0.02700
C 	C 	0.06866 0.00505 0.92952 0.01100
H 	H 	0.91257 0.95056 0.92932 0.04000
H 	H 	0.09700 0.02698 0.86387 0.03700
C 	C 	0.13601 0.02541 0.96194 0.07500
C 	C 	0.87499 0.95691 0.83051 0.05800
N 	N 	0.19022 0.04197 0.98754 -0.11300
N 	N 	0.82183 0.94373 0.80448 -0.12400
C 	C 	0.99870 0.96530 0.35856 -0.09300
C 	C 	0.05700 0.02002 0.37828 0.01200
C 	C 	0.06106 0.02753 0.42211 0.01500
C 	C 	0.00795 0.97800 0.44871 -0.07800
C 	C 	0.94989 0.92290 0.42933 -0.02200
C 	C 	0.94479 0.91650 0.38443 0.00700
H 	H 	0.09760 0.05872 0.35781 0.04200
H 	H 	0.90936 0.88414 0.44984 0.04400
C 	C 	0.88405 0.85958 0.36523 0.07400
C 	C 	0.11784 0.08800 0.43761 0.08100
N 	N 	0.83535 0.81402 0.34980 -0.11600
N 	N 	0.16328 0.13656 0.44988 -0.11500
C 	C 	0.13664 0.39424 0.75588 -0.03900
C 	C 	0.13333 0.39877 0.70705 0.00100
C 	C 	0.15080 0.45742 0.66953 -0.03900
C 	C 	0.17565 0.51202 0.68166 -0.03600
C 	C 	0.18601 0.50945 0.73189 -0.00300
C 	C 	0.16312 0.44946 0.76827 -0.03600
C 	C 	0.11262 0.34253 0.69538 0.02600
H 	H 	0.14771 0.46151 0.63152 0.03900
H 	H 	0.19242 0.55790 0.65310 0.03900
H 	H 	0.17009 0.44663 0.80702 0.03900
H 	H 	0.12082 0.34862 0.78467 0.04100
C 	C 	0.14302 0.30972 0.72819 -0.06400
C 	C 	0.12011 0.25408 0.71875 0.01500
C 	C 	0.06732 0.23132 0.67608 -0.08400
C 	C 	0.04117 0.26744 0.64117 0.01500
C 	C 	0.06256 0.32177 0.65128 -0.06500
H 	H 	0.18325 0.32642 0.76153 0.04700
H 	H 	0.14104 0.22700 0.74591 0.03700
H 	H 	0.00151 0.25130 0.60752 0.03500
H 	H 	0.03896 0.34673 0.62544 0.04600
C 	C 	0.51797 0.68947 0.78273 -0.03900
C 	C 	0.54684 0.74646 0.74437 0.00100
C 	C 	0.51886 0.78165 0.71903 -0.03900
C 	C 	0.45960 0.75740 0.72920 -0.03700
C 	C 	0.42848 0.69840 0.76547 -0.00300
C 	C 	0.46009 0.66647 0.79401 -0.03700
C 	C 	0.60713 0.76997 0.73138 0.02600
H 	H 	0.54214 0.82700 0.69070 0.03700
H 	H 	0.43608 0.78281 0.70718 0.03600
H 	H 	0.43720 0.62147 0.82273 0.03900
H 	H 	0.53934 0.66216 0.80295 0.03900
C 	C 	0.66462 0.77627 0.77004 -0.06400
C 	C 	0.72513 0.80769 0.75749 0.02000
C 	C 	0.72985 0.83598 0.70631 -0.08500
C 	C 	0.67037 0.82318 0.66768 0.01200
C 	C 	0.60905 0.79004 0.68015 -0.06500
H 	H 	0.66361 0.75992 0.80975 0.04800
H 	H 	0.77026 0.81539 0.78768 0.03800
H 	H 	0.67291 0.84341 0.62800 0.02800
H 	H 	0.56407 0.78277 0.64997 0.04400
C 	C 	0.23432 0.77992 0.74055 -0.03900
C 	C 	0.21283 0.75879 0.78397 -0.00000
C 	C 	0.20906 0.70471 0.82252 -0.03900
C 	C 	0.22630 0.67204 0.81752 -0.03800
C 	C 	0.24774 0.69332 0.77408 -0.00200
C 	C 	0.25189 0.74753 0.73576 -0.03800
C 	C 	0.18977 0.79065 0.78712 0.02500
H 	H 	0.19252 0.68783 0.85615 0.03800
H 	H 	0.22331 0.63048 0.84748 0.03800
H 	H 	0.26846 0.76439 0.70214 0.03700
H 	H 	0.23646 0.82088 0.71017 0.03600
C 	C 	0.23162 0.85885 0.77890 -0.06600
C 	C 	0.20301 0.89072 0.76575 0.00900
C 	C 	0.13228 0.85470 0.75956 -0.08900
C 	C 	0.09394 0.78644 0.77745 0.01700
C 	C 	0.12207 0.75439 0.79004 -0.06600
H 	H 	0.28490 0.88740 0.77890 0.04300
H 	H 	0.23410 0.94353 0.75430 0.02700
H 	H 	0.03992 0.75795 0.77526 0.03200
H 	H 	0.08971 0.70163 0.79813 0.04600
C 	C 	0.23472 0.43452 0.18566 -0.03900
C 	C 	0.21053 0.37499 0.22253 0.00200
C 	C 	0.19504 0.36713 0.26415 -0.03800
C 	C 	0.20947 0.42002 0.27116 -0.03600
C 	C 	0.23831 0.48083 0.23617 -0.00300
C 	C 	0.24713 0.48670 0.19192 -0.03700
C 	C 	0.20221 0.32112 0.21803 0.02700
H 	H 	0.17372 0.32062 0.29183 0.04200
H 	H 	0.20159 0.41462 0.30511 0.04000
H 	H 	0.26815 0.53315 0.16414 0.03800
H 	H 	0.24603 0.44107 0.15303 0.03900
C 	C 	0.16488 0.30029 0.17253 -0.06400
C 	C 	0.14584 0.24196 0.17153 0.01500
C 	C 	0.16030 0.20226 0.21663 -0.09000
C 	C 	0.20590 0.22769 0.25979 0.01900
C 	C 	0.22695 0.28705 0.26050 -0.06500
H 	H 	0.14728 0.32714 0.13888 0.04700
H 	H 	0.11373 0.22442 0.13708 0.04200
H 	H 	0.21955 0.19853 0.29438 0.03100
H 	H 	0.25904 0.30450 0.29500 0.04800
C 	C 	0.70189 0.85636 0.24973 -0.06600
C 	C 	0.63953 0.80962 0.22405 0.02900
C 	C 	0.63793 0.79822 0.18371 -0.06700
C 	C 	0.69804 0.83525 0.16793 0.02000
C 	C 	0.75991 0.88414 0.19217 -0.09200
C 	C 	0.76175 0.89359 0.23379 0.02100
C 	C 	0.57563 0.77441 0.23810 -0.00000
H 	H 	0.58998 0.76158 0.16406 0.04700
H 	H 	0.69600 0.82750 0.13580 0.03400
H 	H 	0.80929 0.93097 0.25297 0.02900
H 	H 	0.70366 0.86499 0.28121 0.04700
C 	C 	0.56350 0.72896 0.28520 -0.03900
C 	C 	0.50032 0.69137 0.29656 -0.03700
C 	C 	0.44873 0.69873 0.26074 -0.00300
C 	C 	0.46296 0.74782 0.21541 -0.03700
C 	C 	0.52609 0.78535 0.20402 -0.04000
H 	H 	0.60208 0.72118 0.31219 0.04200
H 	H 	0.48997 0.65390 0.33184 0.03900
H 	H 	0.42360 0.75413 0.18765 0.03700
H 	H 	0.53576 0.82154 0.16809 0.03700
C 	C 	0.21729 0.78208 0.28630 -0.06800
C 	C 	0.16336 0.71919 0.27809 0.02700
C 	C 	0.09568 0.69950 0.26123 -0.06600
C 	C 	0.08287 0.74468 0.24698 0.01600
C 	C 	0.13763 0.80985 0.24905 -0.09400
C 	C 	0.20439 0.82712 0.27203 0.01900
C 	C 	0.17860 0.67853 0.27912 -0.00000
H 	H 	0.05341 0.65052 0.25610 0.04700
H 	H 	0.03092 0.73044 0.23011 0.03500
H 	H 	0.24698 0.87703 0.27467 0.02400
H 	H 	0.26967 0.79752 0.30029 0.04400
C 	C 	0.15974 0.66320 0.23411 -0.03800
C 	C 	0.18559 0.63645 0.23201 -0.03800
C 	C 	0.23063 0.62492 0.27482 -0.00200
C 	C 	0.24567 0.63598 0.32082 -0.03800
C 	C 	0.21969 0.66259 0.32299 -0.03900
H 	H 	0.12789 0.67505 0.20003 0.03900
H 	H 	0.17338 0.62781 0.19640 0.03800
H 	H 	0.27980 0.62656 0.35427 0.03900
H 	H 	0.23379 0.67332 0.35812 0.03800
C 	C 	0.83094 0.26186 0.56185 -0.03900
C 	C 	0.79959 0.23960 0.51764 -0.00000
C 	C 	0.75579 0.25505 0.47730 -0.03900
C 	C 	0.73984 0.28853 0.48250 -0.03700
C 	C 	0.76713 0.30639 0.52827 -0.00200
C 	C 	0.81461 0.29490 0.56721 -0.03800
C 	C 	0.80461 0.19235 0.51692 0.02700
H 	H 	0.73196 0.23882 0.44277 0.04000
H 	H 	0.70406 0.29816 0.45183 0.03900
H 	H 	0.83636 0.30880 0.60256 0.03800
H 	H 	0.86522 0.25061 0.59310 0.03800
C 	C 	0.86870 0.20958 0.52276 -0.06700
C 	C 	0.87635 0.16101 0.53601 0.01700
C 	C 	0.82031 0.09498 0.54461 -0.09200
C 	C 	0.75481 0.07871 0.53214 0.01900
C 	C 	0.74699 0.12718 0.51849 -0.06600
H 	H 	0.91326 0.26001 0.52017 0.04400
H 	H 	0.92694 0.17436 0.54415 0.03500
H 	H 	0.71082 0.02798 0.53736 0.03300
H 	H 	0.69693 0.11346 0.51282 0.04900
C 	C 	0.89576 0.65560 0.64843 -0.06600
C 	C 	0.84803 0.62837 0.60632 0.02700
C 	C 	0.81179 0.65426 0.56921 -0.06600
C 	C 	0.82961 0.71177 0.57074 0.01900
C 	C 	0.88357 0.74361 0.60936 -0.09300
C 	C 	0.91233 0.71228 0.65043 0.01400
C 	C 	0.83936 0.57590 0.59921 0.00000
H 	H 	0.77245 0.63184 0.53776 0.04800
H 	H 	0.80572 0.73460 0.53947 0.02800
H 	H 	0.95219 0.73509 0.68155 0.03500
H 	H 	0.92264 0.63499 0.67818 0.04400
C 	C 	0.84412 0.58215 0.55290 -0.03900
C 	C 	0.82535 0.52878 0.54312 -0.03700
C 	C 	0.80212 0.46899 0.57964 -0.00300
C 	C 	0.80583 0.46546 0.62822 -0.03700
C 	C 	0.82317 0.51828 0.63769 -0.03900
H 	H 	0.85944 0.62740 0.52368 0.04000
H 	H 	0.82403 0.53251 0.50584 0.03900
H 	H 	0.78941 0.41986 0.65711 0.03800
H 	H 	0.82086 0.51331 0.67402 0.03800
C 	C 	0.48727 0.18594 0.60083 -0.03800
C 	C 	0.44554 0.20652 0.56617 0.00100
C 	C 	0.46465 0.25449 0.52116 -0.03800
C 	C 	0.52691 0.28426 0.51223 -0.03600
C 	C 	0.57059 0.26641 0.54837 -0.00300
C 	C 	0.54947 0.21565 0.59187 -0.03600
C 	C 	0.38081 0.17619 0.57629 0.03000
H 	H 	0.43203 0.26972 0.49369 0.04100
H 	H 	0.54278 0.32337 0.47849 0.04000
H 	H 	0.58283 0.20154 0.61997 0.04000
H 	H 	0.47202 0.14773 0.63508 0.04200
C 	C 	0.31838 0.13464 0.54678 -0.06500
C 	C 	0.25750 0.09734 0.56130 0.02500
C 	C 	0.25834 0.10179 0.60516 -0.09600
C 	C 	0.32018 0.14710 0.63247 0.02400
C 	C 	0.38138 0.18405 0.61821 -0.06800
H 	H 	0.31740 0.12884 0.51404 0.05200
H 	H 	0.21015 0.06220 0.54016 0.03900
H 	H 	0.32143 0.15096 0.66637 0.03300
H 	H 	0.42940 0.21686 0.64079 0.04900
C 	C 	0.73345 0.16818 0.03391 -0.03700
C 	C 	0.78760 0.20082 0.01223 0.00100
C 	C 	0.81331 0.26470 0.98158 -0.04000
C 	C 	0.78809 0.29680 0.97565 -0.04000
C 	C 	0.73920 0.26632 0.00228 0.00200
C 	C 	0.71215 0.20155 0.03142 -0.03700
C 	C 	0.82701 0.17420 0.03188 0.03500
H 	H 	0.85455 0.29039 0.96405 0.03700
H 	H 	0.80754 0.34556 0.95126 0.03700
H 	H 	0.67615 0.17757 0.05353 0.04000
H 	H 	0.71210 0.11845 0.05673 0.04300
C 	C 	0.85038 0.15683 0.08458 -0.07400
C 	C 	0.88303 0.12742 0.10448 0.03400
C 	C 	0.89627 0.11736 0.07210 -0.09800
C 	C 	0.87343 0.13500 0.01901 0.02800
C 	C 	0.83827 0.16294 0.99889 -0.07500
H 	H 	0.84292 0.16598 0.11037 0.04900
H 	H 	0.90055 0.11459 0.14545 -0.00100
H 	H 	0.88394 0.12847 0.99345 0.03100
H 	H 	0.82017 0.17586 0.95802 0.04900
C 	C 	0.79536 0.56515 0.98007 -0.04100
C 	C 	0.83756 0.57906 0.02786 0.00300
C 	C 	0.86164 0.54115 0.06268 -0.04000
C 	C 	0.83748 0.48568 0.05213 -0.03800
C 	C 	0.78947 0.46793 0.00658 -0.00100
C 	C 	0.77281 0.51075 0.96910 -0.03900
C 	C 	0.85366 0.63108 0.04241 0.02300
H 	H 	0.89672 0.55300 0.09877 0.03700
H 	H 	0.85191 0.45384 0.08101 0.03800
H 	H 	0.73695 0.49835 0.93332 0.03900
H 	H 	0.77731 0.59452 0.95239 0.03900
C 	C 	0.87728 0.69336 0.00920 -0.06100
C 	C 	0.89646 0.74333 0.02431 0.00800
C 	C 	0.89466 0.73238 0.07341 -0.08300
C 	C 	0.86688 0.66917 0.10530 0.01400
C 	C 	0.84583 0.61859 0.08972 -0.06400
H 	H 	0.88301 0.70370 0.97242 0.04300
H 	H 	0.91731 0.79180 0.99916 0.03300
H 	H 	0.86505 0.65999 0.14325 0.03000
H 	H 	0.82531 0.57023 0.11500 0.04500
C 	C 	0.52256 0.21496 0.10346 -0.03900
C 	C 	0.45695 0.18968 0.07109 0.00200
C 	C 	0.44774 0.19495 0.02026 -0.03600
C 	C 	0.50410 0.22708 0.00164 -0.03400
C 	C 	0.56985 0.25365 0.03378 -0.00300
C 	C 	0.57864 0.24637 0.08499 -0.03600
C 	C 	0.39772 0.15662 0.09062 0.02900
H 	H 	0.39706 0.17455 0.99519 0.04300
H 	H 	0.49685 0.23246 0.96206 0.03800
H 	H 	0.62930 0.26662 0.11010 0.03900
H 	H 	0.53020 0.21091 0.14276 0.04000
C 	C 	0.38128 0.10206 0.13230 -0.06200
C 	C 	0.32044 0.06574 0.14666 0.01300
C 	C 	0.27513 0.08309 0.11902 -0.08100
C 	C 	0.29437 0.14078 0.08023 0.02300
C 	C 	0.35550 0.17748 0.06608 -0.06300
H 	H 	0.41405 0.08610 0.15206 0.04900
H 	H 	0.30616 0.02144 0.17687 0.03500
H 	H 	0.25985 0.15477 0.05883 0.03700
H 	H 	0.36870 0.22061 0.03478 0.04900
