data_crystal

_cell_length_a 26.83584
_cell_length_b 24.96046
_cell_length_c 31.70852
_cell_angle_alpha 104.10688
_cell_angle_beta  115.95139
_cell_angle_gamma 111.20817

_symmetry_space_group_name_	'P 1'
_symmetry_space_group_name_H-M	'P 1'

loop_
_symmetry_equiv_pos_as_xyz
  x,y,z

loop_
_atom_site_label
_atom_site_type_symbol
_atom_site_fract_x
_atom_site_fract_y
_atom_site_fract_z
_atom_site_charge
N 	N 	0.64290 0.25167 0.91399 -0.13200
C 	C 	0.61297 0.28131 0.92444 0.14700
N 	N 	0.62812 0.34009 0.92559 -0.13300
C 	C 	0.67249 0.36869 0.91575 0.14800
N 	N 	0.70211 0.33880 0.90519 -0.13300
C 	C 	0.68824 0.28084 0.90519 0.14700
C 	C 	0.47097 0.19261 0.95606 0.02100
C 	C 	0.46071 0.22328 0.92400 -0.03500
C 	C 	0.50680 0.25161 0.91342 -0.00300
C 	C 	0.56431 0.24993 0.93471 -0.03500
C 	C 	0.57415 0.21823 0.96571 0.07000
C 	C 	0.52682 0.18899 0.97615 0.05300
H 	H 	0.41741 0.22611 0.90781 0.06200
H 	H 	0.49768 0.27500 0.88871 0.05000
N 	N 	0.63105 0.21978 0.99278 -0.09800
N 	N 	0.54426 0.16603 0.01167 -0.10000
C 	C 	0.80259 0.19535 0.90772 0.02100
C 	C 	0.83393 0.26331 0.93577 0.04400
C 	C 	0.79590 0.29260 0.93281 0.07300
C 	C 	0.72719 0.25322 0.90143 -0.03600
C 	C 	0.69616 0.18532 0.87014 -0.00100
C 	C 	0.73348 0.15675 0.87306 -0.03200
N 	N 	0.90003 0.30382 0.97431 -0.09700
N 	N 	0.83062 0.35730 0.96902 -0.10100
C 	C 	0.75147 0.56261 0.93273 0.02500
C 	C 	0.71245 0.50699 0.88226 -0.04000
C 	C 	0.68340 0.44344 0.87621 -0.00200
C 	C 	0.69219 0.43411 0.92040 -0.04000
C 	C 	0.72744 0.48900 0.97002 0.07500
C 	C 	0.75765 0.55391 0.97630 0.05100
H 	H 	0.70674 0.51284 0.84799 0.06200
H 	H 	0.65585 0.40147 0.83739 0.04800
N 	N 	0.74471 0.48537 0.01616 -0.10900
N 	N 	0.79986 0.60403 0.02759 -0.10100
S 	S 	0.61689 0.18409 0.02670 0.13300
S 	S 	0.90517 0.37223 0.00086 0.12200
S 	S 	0.79538 0.56309 0.06033 0.13200
H 	H 	0.64303 0.15418 0.84482 0.05000
H 	H 	0.70845 0.10407 0.85056 0.06500
N 	N 	0.57584 0.23374 0.37494 -0.13400
C 	C 	0.54220 0.26126 0.38049 0.14600
N 	N 	0.55903 0.32079 0.38296 -0.13200
C 	C 	0.60916 0.35262 0.37965 0.14800
N 	N 	0.64179 0.32439 0.37310 -0.13400
C 	C 	0.62599 0.26548 0.37159 0.14700
C 	C 	0.39610 0.17833 0.40920 0.02400
C 	C 	0.38178 0.19445 0.36749 -0.03300
C 	C 	0.42910 0.22014 0.35744 -0.00100
C 	C 	0.49136 0.22930 0.38833 -0.03700
C 	C 	0.50499 0.21092 0.42842 0.07100
C 	C 	0.45693 0.18528 0.43895 0.04100
H 	H 	0.33454 0.18858 0.34359 0.06300
H 	H 	0.41743 0.23359 0.32594 0.05000
N 	N 	0.56585 0.22429 0.46414 -0.10400
N 	N 	0.47780 0.17722 0.48332 -0.10200
C 	C 	0.74759 0.18636 0.38273 0.02300
C 	C 	0.77647 0.25409 0.40890 0.04400
C 	C 	0.73616 0.28096 0.40394 0.07200
C 	C 	0.66755 0.23947 0.37210 -0.03500
C 	C 	0.63898 0.17163 0.34295 0.00100
C 	C 	0.67860 0.14540 0.34818 -0.03200
N 	N 	0.84233 0.29687 0.44739 -0.09800
N 	N 	0.76876 0.34596 0.43851 -0.10800
C 	C 	0.68673 0.55082 0.40496 0.02500
C 	C 	0.72715 0.53354 0.43694 -0.03500
C 	C 	0.70111 0.46932 0.42976 -0.00100
C 	C 	0.63397 0.42089 0.39044 -0.03700
C 	C 	0.59278 0.43838 0.36027 0.07200
C 	C 	0.61948 0.50398 0.36752 0.04400
H 	H 	0.77931 0.56936 0.46636 0.06500
H 	H 	0.73359 0.45696 0.45417 0.05500
N 	N 	0.52872 0.39392 0.31790 -0.10800
N 	N 	0.57755 0.51404 0.33127 -0.10000
S 	S 	0.55400 0.20243 0.50518 0.13100
S 	S 	0.84445 0.36408 0.47148 0.13300
S 	S 	0.51111 0.44048 0.29373 0.12600
H 	H 	0.58602 0.13882 0.31723 0.05300
H 	H 	0.65547 0.09281 0.32729 0.06600
N 	N 	0.49291 0.81817 0.03819 -0.13600
C 	C 	0.52104 0.78303 0.03554 0.14500
N 	N 	0.49310 0.72216 0.03039 -0.13700
C 	C 	0.43725 0.69655 0.02802 0.14500
N 	N 	0.40972 0.73211 0.03123 -0.13600
C 	C 	0.43756 0.79298 0.03648 0.14700
C 	C 	0.68409 0.86054 0.02385 0.02300
C 	C 	0.63174 0.79460 0.98952 -0.03200
C 	C 	0.57957 0.76888 0.99452 0.00700
C 	C 	0.57854 0.80870 0.03385 -0.04700
C 	C 	0.63106 0.87393 0.06867 0.07000
C 	C 	0.68407 0.90001 0.06350 0.04100
H 	H 	0.63097 0.76328 0.95851 0.07200
H 	H 	0.53928 0.71831 0.96695 0.05500
N 	N 	0.63707 0.91544 0.11022 -0.10800
N 	N 	0.73423 0.96334 0.10056 -0.09800
C 	C 	0.32298 0.88092 0.01996 0.02500
C 	C 	0.33998 0.86101 0.05890 0.04000
C 	C 	0.38087 0.83468 0.06645 0.07200
C 	C 	0.40416 0.82870 0.03489 -0.04600
C 	C 	0.38953 0.85206 0.99760 0.00700
C 	C 	0.34910 0.87760 0.99005 -0.03000
N 	N 	0.31550 0.86019 0.08864 -0.10100
N 	N 	0.39069 0.81207 0.10263 -0.10900
C 	C 	0.33592 0.49947 0.00211 0.00600
C 	C 	0.34799 0.55238 0.04230 -0.03000
C 	C 	0.38217 0.61678 0.05129 -0.00300
C 	C 	0.40553 0.62975 0.02057 -0.04400
C 	C 	0.39485 0.57753 0.98128 0.07500
C 	C 	0.35983 0.51189 0.97207 0.05200
H 	H 	0.33061 0.54370 0.06648 0.06000
H 	H 	0.39026 0.65655 0.08213 0.05300
N 	N 	0.40951 0.58374 0.94590 -0.10700
N 	N 	0.34558 0.46350 0.92921 -0.10100
S 	S 	0.70782 0.98093 0.13645 0.13000
S 	S 	0.34749 0.82706 0.12186 0.12500
S 	S 	0.37805 0.50698 0.90680 0.12600
H 	H 	0.40733 0.84819 0.97292 0.05300
H 	H 	0.33667 0.89313 0.95984 0.07200
N 	N 	0.41530 0.78630 0.49787 -0.13600
C 	C 	0.44694 0.75520 0.49457 0.14500
N 	N 	0.42078 0.69231 0.48553 -0.13300
C 	C 	0.36299 0.66042 0.47937 0.14500
N 	N 	0.33094 0.69122 0.48160 -0.13300
C 	C 	0.35737 0.75450 0.49167 0.14500
C 	C 	0.61768 0.84987 0.49448 0.02600
C 	C 	0.56865 0.78312 0.45853 -0.03500
C 	C 	0.51362 0.75221 0.45926 -0.00100
C 	C 	0.50626 0.78748 0.49591 -0.03700
C 	C 	0.55507 0.85379 0.53194 0.07000
C 	C 	0.61105 0.88518 0.53106 0.04300
H 	H 	0.57279 0.75507 0.42965 0.06600
H 	H 	0.47625 0.70100 0.43068 0.05400
N 	N 	0.55551 0.89114 0.57167 -0.10700
N 	N 	0.65796 0.94870 0.56988 -0.09700
C 	C 	0.23735 0.83715 0.47658 0.02500
C 	C 	0.23214 0.79147 0.49514 0.04000
C 	C 	0.27449 0.76678 0.50340 0.07000
C 	C 	0.32063 0.78695 0.49162 -0.03700
C 	C 	0.32776 0.83574 0.47556 -0.00000
C 	C 	0.28705 0.86096 0.46868 -0.03200
N 	N 	0.18653 0.76624 0.50496 -0.10200
N 	N 	0.26451 0.72140 0.52064 -0.10600
C 	C 	0.27345 0.46246 0.45461 0.02500
C 	C 	0.23699 0.48123 0.42085 -0.03900
C 	C 	0.26692 0.54525 0.42793 -0.00200
C 	C 	0.33409 0.59195 0.46889 -0.03800
C 	C 	0.37130 0.57292 0.50124 0.07000
C 	C 	0.34062 0.50763 0.49410 0.04800
H 	H 	0.18496 0.44673 0.38986 0.06100
H 	H 	0.23743 0.55875 0.40202 0.05200
N 	N 	0.43462 0.61596 0.54534 -0.10500
N 	N 	0.37849 0.49644 0.53216 -0.09500
S 	S 	0.62534 0.95989 0.60174 0.12900
S 	S 	0.20363 0.71596 0.52358 0.12500
S 	S 	0.44670 0.56867 0.57101 0.13600
H 	H 	0.36346 0.85290 0.46679 0.05500
H 	H 	0.29263 0.89729 0.45519 0.07800
Zn	Zn	0.19837 0.15254 0.02372 1.18800
Zn	Zn	0.08661 0.10188 0.90941 1.20600
O 	O 	0.07584 0.99309 0.82313 -0.44300
O 	O 	0.05120 0.07214 0.83110 -0.41300
O 	O 	0.08264 0.91400 0.89769 -0.45700
C 	C 	0.26519 0.12257 0.98260 0.33700
O 	O 	0.02607 0.01283 0.89126 -0.87800
C 	C 	0.20260 0.24257 0.97780 0.35700
O 	O 	0.27159 0.14820 0.02746 -0.44800
O 	O 	0.20934 0.09823 0.93693 -0.32300
O 	O 	0.10975 0.11316 0.98293 -0.76500
O 	O 	0.13663 0.00179 0.97836 -0.46200
O 	O 	0.15365 0.19161 0.92985 -0.43100
O 	O 	0.22173 0.23692 0.02165 -0.43800
Zn	Zn	0.91071 0.91235 0.91694 1.18400
Zn	Zn	0.02574 0.94421 0.01482 1.19200
Zn	Zn	0.05198 0.02400 0.96137 1.21800
C 	C 	0.90457 0.81199 0.95396 0.34900
C 	C 	0.88297 0.96067 0.98748 0.34800
O 	O 	0.96893 0.05152 0.94630 -0.44400
Zn	Zn	0.04061 0.07068 0.05550 1.20300
O 	O 	0.96816 0.85133 0.99252 -0.42100
O 	O 	0.87435 0.82613 0.91681 -0.44300
O 	O 	0.86296 0.94135 0.93761 -0.44400
O 	O 	0.94312 0.97813 0.02352 -0.48000
C 	C 	0.06556 0.01875 0.12818 0.30200
O 	O 	0.99370 0.93489 0.93999 -0.77100
C 	C 	0.97028 0.09763 0.97879 0.36400
O 	O 	0.05858 0.96932 0.09347 -0.41400
O 	O 	0.07674 0.07268 0.12440 -0.45600
O 	O 	0.00353 0.11645 0.03005 -0.49400
O 	O 	0.07792 0.03417 0.03114 -0.89700
Zn	Zn	0.04748 0.95636 0.86291 1.19300
C 	C 	0.05802 0.02934 0.80422 0.29900
C 	C 	0.12809 0.94717 0.94940 0.35400
H 	H 	0.12568 0.05510 0.05763 0.16800
H 	H 	0.97928 0.99784 0.86725 0.18300
Zn	Zn	0.13963 0.12976 0.49450 1.19200
Zn	Zn	0.02830 0.07554 0.37843 1.20500
O 	O 	0.00846 0.95287 0.29468 -0.45700
O 	O 	0.99741 0.04069 0.30112 -0.43100
O 	O 	0.99224 0.87562 0.36607 -0.47200
C 	C 	0.20192 0.09255 0.45173 0.33100
O 	O 	0.96026 0.99109 0.36110 -0.85700
C 	C 	0.14310 0.21429 0.44469 0.34900
O 	O 	0.21220 0.12577 0.49689 -0.44500
O 	O 	0.14139 0.04951 0.40925 -0.32300
O 	O 	0.05097 0.09105 0.45263 -0.76100
O 	O 	0.06399 0.97035 0.44450 -0.41700
O 	O 	0.10308 0.15964 0.39852 -0.44400
O 	O 	0.16238 0.21274 0.49015 -0.42900
Zn	Zn	0.84558 0.90680 0.39354 1.18300
Zn	Zn	0.95656 0.93002 0.48759 1.19600
Zn	Zn	0.98804 0.00466 0.43228 1.21600
C 	C 	0.82888 0.80259 0.42601 0.35200
C 	C 	0.82508 0.95977 0.46861 0.34100
O 	O 	0.91312 0.04297 0.42100 -0.44700
Zn	Zn	0.98399 0.05970 0.52978 1.20100
O 	O 	0.89159 0.84045 0.46693 -0.43800
O 	O 	0.80202 0.82015 0.39045 -0.43700
O 	O 	0.80586 0.94401 0.41922 -0.44800
O 	O 	0.88469 0.97533 0.50426 -0.46700
C 	C 	0.01817 0.01348 0.60683 0.30300
O 	O 	0.92426 0.91888 0.41222 -0.77800
C 	C 	0.91774 0.09098 0.45475 0.35800
O 	O 	0.99751 0.95794 0.56789 -0.40100
O 	O 	0.02447 0.06491 0.59984 -0.45400
O 	O 	0.95233 0.10968 0.50598 -0.48400
O 	O 	0.01513 0.01668 0.50254 -0.89800
Zn	Zn	0.96797 0.92219 0.33029 1.19300
C 	C 	0.00730 0.99719 0.27934 0.32700
C 	C 	0.04595 0.91062 0.41496 0.33700
H 	H 	0.06224 0.03373 0.52792 0.19000
H 	H 	0.91535 0.98209 0.33925 0.17500
C 	C 	0.07520 0.08283 0.75081 0.00200
C 	C 	0.05076 0.02556 0.75467 -0.06800
C 	C 	0.01952 0.96455 0.71105 0.00700
C 	C 	0.01083 0.96063 0.66334 -0.00400
C 	C 	0.03386 0.01785 0.65893 -0.06300
C 	C 	0.06725 0.07910 0.70339 -0.00400
H 	H 	0.10054 0.13028 0.78461 0.05700
H 	H 	0.00070 0.92002 0.71371 0.04000
H 	H 	0.98483 0.91303 0.62951 0.06300
H 	H 	0.08633 0.12380 0.70103 0.05200
C 	C 	0.01417 0.95076 0.16043 -0.01100
C 	C 	0.05781 0.01233 0.17028 -0.06400
C 	C 	0.08662 0.06862 0.21723 -0.00800
C 	C 	0.06973 0.06371 0.25264 0.00800
C 	C 	0.02440 0.00243 0.24176 -0.08500
C 	C 	0.99764 0.94587 0.19605 0.02700
H 	H 	0.99109 0.90697 0.12418 0.06100
H 	H 	0.12110 0.11633 0.22577 0.05300
H 	H 	0.09207 0.10750 0.28861 0.05100
H 	H 	0.96301 0.89825 0.18754 0.05100
C 	C 	0.23975 0.39843 0.45145 0.01200
C 	C 	0.24308 0.34604 0.42659 0.13800
C 	C 	0.21070 0.28571 0.42399 -0.01600
C 	C 	0.17486 0.27716 0.44602 -0.11700
C 	C 	0.17078 0.32930 0.47016 0.20700
C 	C 	0.20341 0.38964 0.47297 -0.10100
H 	H 	0.21386 0.24566 0.40527 0.07300
H 	H 	0.20029 0.42972 0.49171 0.09200
Cl	Cl	0.28718 0.35517 0.39817 -0.29100
Cl	Cl	0.12287 0.31893 0.49523 -0.31800
C 	C 	0.67312 0.88241 0.49134 0.01200
C 	C 	0.72981 0.88059 0.51826 0.13400
C 	C 	0.78027 0.90835 0.51232 -0.02200
C 	C 	0.77446 0.93742 0.47898 -0.11700
C 	C 	0.71790 0.94022 0.45280 0.20700
C 	C 	0.66792 0.91302 0.45937 -0.09900
H 	H 	0.82313 0.90546 0.53237 0.07100
H 	H 	0.62442 0.91482 0.43888 0.09400
Cl	Cl	0.73775 0.84261 0.55886 -0.29500
Cl	Cl	0.70852 0.97736 0.41160 -0.30600
C 	C 	0.18812 0.85573 0.46081 0.01700
C 	C 	0.14159 0.83354 0.40653 0.14200
C 	C 	0.09536 0.85144 0.39213 -0.00700
C 	C 	0.09335 0.88975 0.43127 -0.11600
C 	C 	0.13798 0.90930 0.48552 0.21200
C 	C 	0.18604 0.89358 0.50004 -0.09700
H 	H 	0.06124 0.83590 0.35036 0.07500
H 	H 	0.22083 0.90950 0.54177 0.09300
Cl	Cl	0.13951 0.78180 0.35591 -0.29400
Cl	Cl	0.13122 0.94880 0.53518 -0.37100
C 	C 	0.30124 0.43256 0.99380 0.03000
C 	C 	0.23219 0.39461 0.96328 0.13000
C 	C 	0.20029 0.33215 0.95761 -0.01700
C 	C 	0.23681 0.30716 0.98223 -0.11200
C 	C 	0.30589 0.34455 0.01145 0.20500
C 	C 	0.33765 0.40706 0.01734 -0.11300
H 	H 	0.14714 0.30338 0.93463 0.07800
H 	H 	0.39079 0.43587 0.04022 0.09600
Cl	Cl	0.18512 0.42464 0.93175 -0.29500
Cl	Cl	0.35316 0.31283 0.03906 -0.32400
C 	C 	0.83320 0.93867 0.99865 -0.11100
C 	C 	0.77504 0.93849 0.97128 0.20300
C 	C 	0.72704 0.91341 0.98026 -0.08800
C 	C 	0.73598 0.88803 0.01596 0.00200
C 	C 	0.79391 0.88845 0.04350 0.14300
C 	C 	0.84221 0.91385 0.03498 -0.03400
H 	H 	0.68247 0.91334 0.95920 0.09400
H 	H 	0.88607 0.91268 0.05559 0.07000
Cl	Cl	0.76131 0.96953 0.92578 -0.30400
Cl	Cl	0.80619 0.85637 0.08830 -0.31900
C 	C 	0.27349 0.89878 0.00645 0.00300
C 	C 	0.29240 0.96466 0.02331 0.14400
C 	C 	0.24448 0.98030 0.00725 -0.01700
C 	C 	0.17751 0.93054 0.97294 -0.11700
C 	C 	0.15872 0.86481 0.95829 0.20400
C 	C 	0.20672 0.84927 0.97485 -0.08700
H 	H 	0.25934 0.03105 0.02036 0.06200
H 	H 	0.19210 0.79857 0.96276 0.09500
Cl	Cl	0.37597 0.02805 0.06392 -0.31300
Cl	Cl	0.07549 0.80174 0.92111 -0.29800
C 	C 	0.78770 0.15784 0.39857 0.01600
C 	C 	0.79905 0.14395 0.44110 0.14100
C 	C 	0.84107 0.12168 0.45866 -0.00300
C 	C 	0.87227 0.11290 0.43418 -0.12400
C 	C 	0.86136 0.12730 0.39175 0.21600
C 	C 	0.81863 0.14910 0.37385 -0.10200
H 	H 	0.84922 0.11078 0.49130 0.08000
H 	H 	0.81080 0.16083 0.34166 0.09300
Cl	Cl	0.76161 0.15536 0.47344 -0.28900
Cl	Cl	0.90419 0.12284 0.36320 -0.37100
C 	C 	0.71651 0.61470 0.40693 0.01300
C 	C 	0.73474 0.67171 0.44771 0.13400
C 	C 	0.77107 0.73304 0.45342 -0.01600
C 	C 	0.78890 0.73789 0.41839 -0.11800
C 	C 	0.76882 0.68074 0.37656 0.21000
C 	C 	0.73269 0.61951 0.37097 -0.10100
H 	H 	0.78565 0.77693 0.48519 0.07500
H 	H 	0.71868 0.57568 0.33952 0.09600
Cl	Cl	0.71234 0.66688 0.49186 -0.28700
Cl	Cl	0.79096 0.68536 0.33221 -0.32600
C 	C 	0.34849 0.15698 0.42245 0.01000
C 	C 	0.33954 0.20247 0.44944 0.13300
C 	C 	0.29328 0.18126 0.46071 -0.02300
C 	C 	0.25573 0.11487 0.44540 -0.11100
C 	C 	0.26615 0.06969 0.41990 0.19800
C 	C 	0.31217 0.09087 0.40832 -0.09900
H 	H 	0.28538 0.21622 0.48025 0.07100
H 	H 	0.31975 0.05592 0.38834 0.08900
Cl	Cl	0.38621 0.28627 0.46962 -0.28800
Cl	Cl	0.22353 0.98694 0.40391 -0.31000
C 	C 	0.84013 0.16393 0.92161 0.01700
C 	C 	0.84629 0.14404 0.96056 0.13500
C 	C 	0.88768 0.12103 0.97787 0.00800
C 	C 	0.92314 0.11719 0.95656 -0.13200
C 	C 	0.91642 0.13634 0.91700 0.21800
C 	C 	0.87459 0.15918 0.89949 -0.10500
H 	H 	0.89264 0.10644 0.00831 0.07000
H 	H 	0.87042 0.17508 0.86985 0.09400
Cl	Cl	0.80390 0.14969 0.98932 -0.28900
Cl	Cl	0.96334 0.13640 0.89176 -0.38800
C 	C 	0.79196 0.62778 0.94049 0.01200
C 	C 	0.77414 0.67430 0.94593 0.13900
C 	C 	0.81176 0.73471 0.95094 -0.01900
C 	C 	0.86713 0.74918 0.95054 -0.11300
C 	C 	0.88528 0.70284 0.94564 0.20600
C 	C 	0.84786 0.64265 0.94090 -0.09900
H 	H 	0.79785 0.77040 0.95504 0.07300
H 	H 	0.86172 0.60695 0.93679 0.09400
Cl	Cl	0.70441 0.65725 0.94587 -0.29800
Cl	Cl	0.95299 0.71824 0.94296 -0.28700
C 	C 	0.42468 0.16753 0.96991 0.02100
C 	C 	0.43514 0.20783 0.01649 0.13800
C 	C 	0.38491 0.18877 0.02373 -0.01800
C 	C 	0.32323 0.13108 0.98367 -0.09400
C 	C 	0.31597 0.08686 0.94074 0.20800
C 	C 	0.36634 0.10573 0.93359 -0.09800
H 	H 	0.39275 0.22058 0.05913 0.09900
H 	H 	0.35943 0.07310 0.89907 0.09100
Cl	Cl	0.50974 0.28379 0.06477 -0.28500
Cl	Cl	0.24567 0.00682 0.89733 -0.32500
