data_crystal

_cell_length_a 26.12925
_cell_length_b 26.43708
_cell_length_c 35.03752
_cell_angle_alpha 95.48519
_cell_angle_beta  95.48206
_cell_angle_gamma 125.83811

_symmetry_space_group_name_	'P 1'
_symmetry_space_group_name_H-M	'P 1'

loop_
_symmetry_equiv_pos_as_xyz
  x,y,z

loop_
_atom_site_label
_atom_site_type_symbol
_atom_site_fract_x
_atom_site_fract_y
_atom_site_fract_z
_atom_site_charge
C 	C 	0.99941 0.05983 0.00682 0.12500
N 	N 	0.96193 0.99543 0.00154 -0.13200
C 	C 	0.98882 0.96461 0.99793 0.12700
N 	N 	0.05303 0.99807 0.99947 -0.13400
C 	C 	0.09055 0.06236 0.00461 0.12700
N 	N 	0.06375 0.09328 0.00837 -0.13100
C 	C 	0.90941 0.97193 0.44726 0.13200
N 	N 	0.87504 0.91031 0.45188 -0.13400
C 	C 	0.90531 0.88324 0.45832 0.12800
N 	N 	0.96983 0.91799 0.46067 -0.14000
C 	C 	0.00431 0.97944 0.45611 0.13800
N 	N 	0.97389 0.00612 0.44892 -0.13700
Cu	Cu	0.67393 0.27731 0.00934 0.93000
Cu	Cu	0.70428 0.25895 0.92251 0.87900
Cu	Cu	0.70210 0.36694 0.95191 0.89900
Cu	Cu	0.68615 0.40296 0.03270 0.89900
C 	C 	0.68919 0.32588 0.08902 0.31500
O 	O 	0.58298 0.24228 0.01468 -0.36000
C 	C 	0.66260 0.30697 0.86808 0.31000
O 	O 	0.72702 0.37451 0.00652 -0.63800
O 	O 	0.65515 0.27431 0.95281 -0.63900
O 	O 	0.71044 0.22914 0.00767 -0.36000
O 	O 	0.77134 0.28149 0.96331 -0.43000
O 	O 	0.69903 0.37961 0.08354 -0.37200
O 	O 	0.75297 0.45788 0.95482 -0.37100
C 	C 	0.75183 0.49683 0.98065 0.29300
C 	C 	0.55778 0.27101 0.00499 0.29200
O 	O 	0.59380 0.32770 0.99635 -0.38500
O 	O 	0.71191 0.47536 0.00553 -0.38600
O 	O 	0.70288 0.29624 0.06441 -0.36300
C 	C 	0.75901 0.24640 0.99009 0.29400
O 	O 	0.69124 0.35951 0.89460 -0.38500
O 	O 	0.65669 0.25650 0.87664 -0.39700
H 	H 	0.77410 0.40059 0.01566 0.17300
H 	H 	0.60888 0.24868 0.94118 0.18400
Cu	Cu	0.71174 0.31638 0.44950 0.93000
Cu	Cu	0.71259 0.25567 0.52691 0.87700
Cu	Cu	0.60848 0.26611 0.50026 0.89900
Cu	Cu	0.59005 0.31330 0.42944 0.89800
C 	C 	0.66392 0.30987 0.37016 0.31000
O 	O 	0.74777 0.40970 0.45632 -0.34800
C 	C 	0.65430 0.27847 0.58383 0.31000
O 	O 	0.61152 0.26112 0.44573 -0.63900
O 	O 	0.70388 0.31523 0.50514 -0.63800
O 	O 	0.75979 0.27913 0.44618 -0.35300
O 	O 	0.69562 0.20246 0.47981 -0.43200
O 	O 	0.63512 0.33355 0.38389 -0.38200
O 	O 	0.51550 0.21453 0.49120 -0.37200
C 	C 	0.48041 0.22202 0.46604 0.29100
C 	C 	0.71790 0.43015 0.47223 0.28600
O 	O 	0.65932 0.38876 0.47781 -0.38700
O 	O 	0.50730 0.27194 0.44881 -0.38100
O 	O 	0.70200 0.30386 0.39375 -0.34700
C 	C 	0.73723 0.22404 0.45636 0.29200
O 	O 	0.60508 0.25716 0.55554 -0.37300
O 	O 	0.70726 0.28751 0.57626 -0.41300
H 	H 	0.58515 0.21734 0.43036 0.17000
H 	H 	0.72838 0.35756 0.52223 0.18100
C 	C 	0.61372 0.31723 0.67801 -0.11100
C 	C 	0.63556 0.29340 0.70376 0.00800
C 	C 	0.66211 0.26349 0.68987 0.12200
C 	C 	0.66682 0.25767 0.65053 -0.03100
C 	C 	0.64609 0.28243 0.62479 -0.12100
C 	C 	0.61928 0.31224 0.63864 0.19400
C 	C 	0.63368 0.30243 0.74565 0.00400
O 	O 	0.68274 0.23918 0.71469 -0.27100
H 	H 	0.68684 0.23403 0.64003 0.05500
O 	O 	0.59851 0.33645 0.61384 -0.28500
H 	H 	0.59339 0.34047 0.68862 0.07600
C 	C 	0.68423 0.35914 0.77086 0.11800
C 	C 	0.69094 0.36205 0.81129 -0.03400
C 	C 	0.64724 0.30859 0.82680 -0.12000
C 	C 	0.59306 0.25411 0.80169 0.19300
C 	C 	0.58673 0.25107 0.76123 -0.10700
O 	O 	0.72979 0.41014 0.75595 -0.27400
H 	H 	0.73209 0.40470 0.83042 0.06500
O 	O 	0.54781 0.20279 0.81651 -0.28200
H 	H 	0.54688 0.20774 0.74192 0.08200
H 	H 	0.63629 0.38109 0.61533 0.14900
H 	H 	0.71367 0.43576 0.75327 0.14900
H 	H 	0.51560 0.21008 0.82126 0.15100
H 	H 	0.72859 0.27437 0.72542 0.15200
C 	C 	0.62057 0.28766 0.18082 -0.11200
C 	C 	0.67116 0.29621 0.20602 0.00800
C 	C 	0.72480 0.30789 0.19146 0.12300
C 	C 	0.72873 0.31365 0.15233 -0.02700
C 	C 	0.68000 0.30918 0.12783 -0.11800
C 	C 	0.62490 0.29429 0.14186 0.19500
C 	C 	0.67116 0.30025 0.24831 0.00500
O 	O 	0.77367 0.31434 0.21553 -0.26700
H 	H 	0.77090 0.32425 0.14151 0.06500
O 	O 	0.57658 0.28908 0.11803 -0.29600
H 	H 	0.57894 0.27822 0.19183 0.07600
C 	C 	0.68462 0.35506 0.27084 0.11900
C 	C 	0.68300 0.35817 0.31073 -0.03000
C 	C 	0.66760 0.30667 0.32844 -0.11500
C 	C 	0.65475 0.25202 0.30600 0.19100
C 	C 	0.65678 0.24908 0.26606 -0.10600
O 	O 	0.70124 0.40637 0.25412 -0.26800
H 	H 	0.69393 0.40078 0.32795 0.06700
O 	O 	0.64070 0.20173 0.32307 -0.28100
H 	H 	0.64667 0.20687 0.24884 0.08300
H 	H 	0.54663 0.24369 0.10522 0.15700
H 	H 	0.66025 0.40000 0.24550 0.15000
H 	H 	0.59327 0.17382 0.32055 0.14600
H 	H 	0.80429 0.36031 0.22693 0.15700
C 	C 	0.84168 0.71200 0.43388 -0.02400
C 	C 	0.81578 0.68917 0.46715 0.01200
C 	C 	0.81417 0.72878 0.49586 -0.04200
C 	C 	0.83994 0.79150 0.49220 -0.00200
C 	C 	0.86796 0.81500 0.45958 -0.01700
C 	C 	0.86755 0.77463 0.43028 -0.01800
C 	C 	0.78922 0.62332 0.47175 0.02700
C 	C 	0.83037 0.61042 0.48867 -0.05900
C 	C 	0.80741 0.54765 0.48996 0.02900
C 	C 	0.74258 0.49710 0.47398 -0.08200
C 	C 	0.70107 0.51041 0.45823 0.01500
C 	C 	0.72400 0.57306 0.45708 -0.04200
C 	C 	0.85026 0.53575 0.50849 0.07600
C 	C 	0.68054 0.58533 0.44013 0.09400
C 	C 	0.84230 0.67152 0.40346 0.09100
C 	C 	0.83866 0.83176 0.52238 0.08800
N 	N 	0.88458 0.52621 0.52334 -0.10800
N 	N 	0.64578 0.59523 0.42655 -0.11000
N 	N 	0.83764 0.86406 0.54654 -0.10700
N 	N 	0.84276 0.63905 0.37911 -0.10700
H 	H 	0.88885 0.79256 0.40510 0.05100
H 	H 	0.79325 0.71090 0.52114 0.05300
H 	H 	0.88044 0.64920 0.50035 0.05800
H 	H 	0.65115 0.47175 0.44603 0.02900
C 	C 	0.82104 0.04080 0.46970 -0.02300
C 	C 	0.82878 0.07347 0.43860 0.01200
C 	C 	0.85905 0.06893 0.40892 -0.04200
C 	C 	0.88315 0.03356 0.41053 -0.00200
C 	C 	0.87745 0.00271 0.44238 -0.01600
C 	C 	0.84512 0.00543 0.47133 -0.02000
C 	C 	0.80704 0.11420 0.43757 0.02700
C 	C 	0.85043 0.17913 0.45378 -0.06000
C 	C 	0.82909 0.21690 0.45766 0.02600
C 	C 	0.76352 0.18950 0.44505 -0.08400
C 	C 	0.72102 0.12542 0.42664 0.01600
C 	C 	0.74244 0.08773 0.42276 -0.04100
C 	C 	0.87421 0.28298 0.47613 0.06800
C 	C 	0.69756 0.02163 0.40434 0.09400
C 	C 	0.78924 0.04409 0.50032 0.08900
C 	C 	0.91261 0.02824 0.37906 0.08900
N 	N 	0.91038 0.33591 0.49093 -0.10900
N 	N 	0.66164 0.96865 0.38960 -0.10700
N 	N 	0.93623 0.02398 0.35387 -0.10600
N 	N 	0.76374 0.04677 0.52483 -0.11300
H 	H 	0.84031 0.98147 0.49571 0.05700
H 	H 	0.86416 0.09325 0.38470 0.05500
H 	H 	0.90040 0.19978 0.46455 0.05800
H 	H 	0.67079 0.10440 0.41646 0.04200
C 	C 	0.16253 0.01635 0.43889 -0.03000
C 	C 	0.20672 0.07979 0.45881 0.01500
C 	C 	0.18427 0.11091 0.47710 -0.04300
C 	C 	0.11843 0.07884 0.47665 0.00100
C 	C 	0.07399 0.01549 0.45621 -0.02200
C 	C 	0.09658 0.98499 0.43716 -0.01100
C 	C 	0.27676 0.11413 0.46061 0.02500
C 	C 	0.30241 0.13213 0.42679 -0.05700
C 	C 	0.36830 0.16416 0.42770 0.02600
C 	C 	0.40987 0.18150 0.46336 -0.07700
C 	C 	0.38396 0.16256 0.49707 0.01300
C 	C 	0.31769 0.12841 0.49576 -0.04000
C 	C 	0.39239 0.17666 0.39166 0.07000
C 	C 	0.29198 0.10772 0.53052 0.09500
C 	C 	0.18457 0.98268 0.42081 0.09300
C 	C 	0.09732 0.11036 0.49863 0.09000
N 	N 	0.41164 0.18663 0.36278 -0.11700
N 	N 	0.27133 0.09113 0.55835 -0.11000
N 	N 	0.08045 0.13562 0.51624 -0.10500
N 	N 	0.20227 0.95575 0.40634 -0.10900
H 	H 	0.06272 0.93646 0.42133 0.05100
H 	H 	0.21829 0.15975 0.49240 0.05500
H 	H 	0.27079 0.12025 0.39960 0.05900
H 	H 	0.41549 0.17519 0.52447 0.05300
C 	C 	0.89880 0.79363 0.94949 -0.02400
C 	C 	0.88195 0.76286 0.98178 0.01200
C 	C 	0.89756 0.79825 0.01905 -0.04200
C 	C 	0.93084 0.86414 0.02451 -0.00200
C 	C 	0.94858 0.89506 0.99233 -0.01600
C 	C 	0.93199 0.85954 0.95494 -0.01900
C 	C 	0.84802 0.69352 0.97693 0.02700
C 	C 	0.88374 0.66976 0.98126 -0.05900
C 	C 	0.85267 0.60492 0.98088 0.02600
C 	C 	0.78509 0.56336 0.97613 -0.08000
C 	C 	0.74930 0.58679 0.97002 0.01500
C 	C 	0.78038 0.65155 0.97041 -0.04100
C 	C 	0.89054 0.58183 0.98671 0.07100
C 	C 	0.74263 0.67478 0.96457 0.09600
C 	C 	0.88242 0.75791 0.91078 0.09000
C 	C 	0.94798 0.89990 0.06334 0.08900
N 	N 	0.92088 0.56332 0.99139 -0.11200
N 	N 	0.71244 0.69344 0.95990 -0.11000
N 	N 	0.96177 0.92852 0.09445 -0.10200
N 	N 	0.86926 0.72924 0.87977 -0.10900
H 	H 	0.94576 0.88340 0.93019 0.05000
H 	H 	0.88422 0.77444 0.04384 0.05400
H 	H 	0.93580 0.70205 0.98582 0.05700
H 	H 	0.69725 0.55466 0.96568 0.04300
C 	C 	0.93866 0.15172 0.97701 -0.02300
C 	C 	0.90630 0.14960 0.00753 0.01100
C 	C 	0.90719 0.12046 0.03872 -0.04200
C 	C 	0.93873 0.09215 0.03928 -0.00200
C 	C 	0.96980 0.09299 0.00830 -0.01500
C 	C 	0.97061 0.12385 0.97772 -0.01900
C 	C 	0.86821 0.17450 0.00591 0.02700
C 	C 	0.80162 0.13229 0.99244 -0.06000
C 	C 	0.76512 0.15509 0.98810 0.02800
C 	C 	0.79549 0.22096 0.99742 -0.08800
C 	C 	0.86189 0.26304 0.01177 0.01600
C 	C 	0.89830 0.24013 0.01636 -0.04000
C 	C 	0.69692 0.11080 0.97281 0.06600
C 	C 	0.96651 0.28421 0.03158 0.09300
C 	C 	0.93836 0.18147 0.94458 0.09000
C 	C 	0.93973 0.06314 0.07197 0.09000
N 	N 	0.64230 0.07533 0.96055 -0.10900
N 	N 	0.02116 0.31948 0.04375 -0.10600
N 	N 	0.94053 0.03994 0.09818 -0.10200
N 	N 	0.93810 0.20533 0.91861 -0.11100
H 	H 	0.99494 0.12493 0.95404 0.05400
H 	H 	0.88271 0.11926 0.06234 0.05500
H 	H 	0.77845 0.08176 0.98463 0.05800
H 	H 	0.88522 0.31366 0.01915 0.04000
C 	C 	0.26090 0.11909 0.03544 -0.02400
C 	C 	0.29144 0.15693 0.00764 0.01100
C 	C 	0.25661 0.16631 0.98008 -0.04200
C 	C 	0.19124 0.13720 0.97949 -0.00200
C 	C 	0.16035 0.09834 0.00688 -0.01700
C 	C 	0.19564 0.09009 0.03493 -0.01800
C 	C 	0.35987 0.18649 0.00696 0.02700
C 	C 	0.37625 0.15377 0.98361 -0.06100
C 	C 	0.44082 0.18072 0.98277 0.03000
C 	C 	0.48961 0.24104 0.00565 -0.08600
C 	C 	0.47312 0.27371 0.02895 0.01600
C 	C 	0.40861 0.24681 0.02972 -0.04200
C 	C 	0.45648 0.14705 0.95753 0.07100
C 	C 	0.39274 0.28124 0.05402 0.09600
C 	C 	0.29620 0.10958 0.06442 0.09100
C 	C 	0.15584 0.14587 0.94999 0.08800
N 	N 	0.46903 0.12008 0.93731 -0.11100
N 	N 	0.37996 0.30877 0.07348 -0.10900
N 	N 	0.12745 0.15281 0.92638 -0.10800
N 	N 	0.32454 0.10201 0.08763 -0.11000
H 	H 	0.17200 0.06045 0.05610 0.05300
H 	H 	0.28030 0.19578 0.95885 0.05300
H 	H 	0.33865 0.10738 0.96605 0.05800
H 	H 	0.51064 0.32003 0.04665 0.03700
