data_crystal

_cell_length_a 18.46066
_cell_length_b 18.85168
_cell_length_c 34.70292
_cell_angle_alpha 95.43565
_cell_angle_beta  95.43596
_cell_angle_gamma 126.41654

_symmetry_space_group_name_	'P 1'
_symmetry_space_group_name_H-M	'P 1'

loop_
_symmetry_equiv_pos_as_xyz
  x,y,z

loop_
_atom_site_label
_atom_site_type_symbol
_atom_site_fract_x
_atom_site_fract_y
_atom_site_fract_z
_atom_site_charge
C 	C 	0.89874 0.00658 0.96220 0.13100
N 	N 	0.85269 0.91667 0.96103 -0.13200
C 	C 	0.89875 0.88088 0.95929 0.14100
N 	N 	0.98993 0.93493 0.95923 -0.13100
C 	C 	0.03583 0.02426 0.96095 0.14000
N 	N 	0.99022 0.05995 0.96255 -0.13900
C 	C 	0.95250 0.02344 0.50412 0.12500
N 	N 	0.04156 0.06616 0.50069 -0.13000
C 	C 	0.07738 0.02066 0.50021 0.12700
N 	N 	0.02461 0.93323 0.50365 -0.12300
C 	C 	0.93576 0.89040 0.50665 0.13900
N 	N 	0.89958 0.93537 0.50688 -0.12800
Cu	Cu	0.75511 0.35586 0.95897 0.92600
Cu	Cu	0.73997 0.29568 0.04502 0.86800
Cu	Cu	0.61162 0.32453 0.00666 0.90000
Cu	Cu	0.58098 0.33912 0.92277 0.89700
C 	C 	0.68991 0.31070 0.87537 0.29900
O 	O 	0.80216 0.48405 0.95367 -0.35900
C 	C 	0.66179 0.35506 0.09333 0.29300
O 	O 	0.61181 0.28103 0.95397 -0.63700
O 	O 	0.74396 0.37765 0.01389 -0.64200
O 	O 	0.81799 0.29936 0.96813 -0.36700
O 	O 	0.71518 0.20564 0.00405 -0.43900
O 	O 	0.65356 0.35255 0.88112 -0.38500
O 	O 	0.48100 0.26552 0.99884 -0.37700
C 	C 	0.42502 0.24242 0.96537 0.31600
C 	C 	0.75745 0.51579 0.96356 0.29600
O 	O 	0.67123 0.46006 0.96680 -0.38900
O 	O 	0.45560 0.27762 0.93403 -0.39300
O 	O 	0.74443 0.31488 0.90450 -0.35800
C 	C 	0.77613 0.22412 0.98200 0.30600
O 	O 	0.61383 0.35598 0.06275 -0.37400
O 	O 	0.73370 0.35736 0.09002 -0.42000
H 	H 	0.57288 0.21485 0.94623 0.16800
H 	H 	0.78497 0.44129 0.02742 0.17400
Cu	Cu	0.62041 0.19138 0.50561 0.92800
Cu	Cu	0.68266 0.19735 0.41990 0.87200
Cu	Cu	0.66906 0.33665 0.45706 0.89900
Cu	Cu	0.62607 0.35651 0.53725 0.90200
C 	C 	0.65750 0.25660 0.58876 0.29500
O 	O 	0.48771 0.13817 0.50746 -0.36200
C 	C 	0.63300 0.27841 0.37005 0.29700
O 	O 	0.69547 0.33151 0.51119 -0.63700
O 	O 	0.60412 0.20429 0.45022 -0.64000
O 	O 	0.67693 0.12910 0.49919 -0.36400
O 	O 	0.77355 0.22475 0.46206 -0.44100
O 	O 	0.61387 0.29079 0.58104 -0.38000
O 	O 	0.73751 0.46562 0.46761 -0.38000
C 	C 	0.73497 0.51241 0.49761 0.31600
C 	C 	0.45347 0.17884 0.49604 0.30700
O 	O 	0.50858 0.26215 0.49140 -0.38700
O 	O 	0.67542 0.47324 0.52117 -0.38900
O 	O 	0.65558 0.20212 0.56099 -0.35600
C 	C 	0.75352 0.16732 0.48550 0.30700
O 	O 	0.66563 0.34450 0.40032 -0.38400
O 	O 	0.62047 0.20369 0.37503 -0.42100
H 	H 	0.76158 0.36959 0.52292 0.16700
H 	H 	0.53966 0.16813 0.43627 0.17300
C 	C 	0.69002 0.28079 0.83444 -0.10300
C 	C 	0.60877 0.23093 0.80548 0.12400
C 	C 	0.61445 0.22208 0.76547 -0.09400
C 	C 	0.69886 0.25678 0.75411 0.00200
C 	C 	0.77833 0.29711 0.78329 0.06100
C 	C 	0.77350 0.31028 0.82323 -0.01900
N 	N 	0.52523 0.18988 0.81592 -0.20200
H 	H 	0.55307 0.18850 0.74309 0.05900
C 	C 	0.70465 0.25844 0.71180 0.00100
N 	N 	0.85904 0.32289 0.77320 -0.19200
H 	H 	0.83533 0.34567 0.84550 0.05300
C 	C 	0.74318 0.33968 0.69852 -0.09400
C 	C 	0.73730 0.34157 0.65806 0.12300
C 	C 	0.68687 0.25995 0.63043 -0.10400
C 	C 	0.65434 0.17960 0.64369 -0.02200
C 	C 	0.66428 0.17836 0.68424 0.06200
H 	H 	0.77703 0.40150 0.71974 0.06000
N 	N 	0.78126 0.42177 0.64592 -0.20200
H 	H 	0.61862 0.11743 0.62252 0.05600
N 	N 	0.63528 0.10048 0.69646 -0.19200
H 	H 	0.81505 0.48151 0.66640 0.08700
H 	H 	0.78622 0.42597 0.61637 0.07700
H 	H 	0.60289 0.04104 0.67595 0.08800
H 	H 	0.64747 0.09879 0.72624 0.09000
H 	H 	0.91809 0.35520 0.79483 0.08800
H 	H 	0.86327 0.30832 0.74409 0.09000
H 	H 	0.51786 0.18645 0.84530 0.07500
H 	H 	0.46593 0.15660 0.79436 0.08600
C 	C 	0.62717 0.29498 0.32945 -0.11300
C 	C 	0.58334 0.33248 0.31702 0.12900
C 	C 	0.58581 0.35309 0.27902 -0.09900
C 	C 	0.62513 0.33086 0.25242 0.00200
C 	C 	0.66652 0.29098 0.26449 0.05700
C 	C 	0.66798 0.27445 0.30300 -0.02200
N 	N 	0.53566 0.34522 0.34058 -0.20300
H 	H 	0.55375 0.38318 0.26958 0.05800
C 	C 	0.62117 0.34796 0.21173 0.00100
N 	N 	0.70506 0.26850 0.23931 -0.19200
H 	H 	0.70164 0.24592 0.31252 0.03200
C 	C 	0.69694 0.42699 0.20280 -0.09800
C 	C 	0.70711 0.43484 0.16347 0.13000
C 	C 	0.64077 0.36176 0.13282 -0.11100
C 	C 	0.55969 0.28778 0.14154 -0.02600
C 	C 	0.54910 0.28008 0.18083 0.05900
H 	H 	0.75019 0.48067 0.22653 0.05900
N 	N 	0.78011 0.51254 0.15531 -0.20300
H 	H 	0.50695 0.23362 0.11782 0.03600
N 	N 	0.47086 0.20660 0.18870 -0.19200
H 	H 	0.83062 0.56508 0.17813 0.08600
H 	H 	0.78540 0.52287 0.12634 0.09400
H 	H 	0.41920 0.15549 0.16574 0.08200
H 	H 	0.45950 0.20050 0.21751 0.08700
H 	H 	0.73555 0.23924 0.24858 0.07900
H 	H 	0.70503 0.27936 0.21038 0.08500
H 	H 	0.52176 0.31959 0.36652 0.09200
H 	H 	0.50732 0.37679 0.33189 0.08800
C 	C 	0.78607 0.60918 0.50004 -0.11700
C 	C 	0.77564 0.64239 0.46720 -0.03900
C 	C 	0.82111 0.73446 0.46979 0.14200
C 	C 	0.87708 0.79383 0.50547 -0.03800
C 	C 	0.88669 0.76058 0.53841 -0.09000
C 	C 	0.84087 0.66848 0.53592 0.18600
H 	H 	0.73194 0.59675 0.43972 0.06300
O 	O 	0.81071 0.76643 0.43746 -0.27600
H 	H 	0.93115 0.80638 0.56575 0.07100
O 	O 	0.85309 0.63689 0.56802 -0.29900
H 	H 	0.80528 0.62567 0.58309 0.14900
H 	H 	0.86009 0.77873 0.42324 0.15200
C 	C 	0.91116 0.06995 0.50146 -0.03800
C 	C 	0.86659 0.07309 0.53139 -0.09300
C 	C 	0.81746 0.10759 0.52706 0.18400
C 	C 	0.81079 0.13726 0.49204 -0.12400
C 	C 	0.85822 0.13696 0.46274 -0.04500
C 	C 	0.90776 0.10306 0.46724 0.13600
H 	H 	0.86930 0.04795 0.55790 0.06900
O 	O 	0.77490 0.11088 0.55677 -0.27900
H 	H 	0.85452 0.16060 0.43588 0.04200
O 	O 	0.95194 0.10135 0.43792 -0.27800
H 	H 	0.90642 0.04256 0.42005 0.14400
H 	H 	0.82070 0.17068 0.57386 0.14900
C 	C 	0.17322 0.06571 0.49624 -0.03200
C 	C 	0.24304 0.14596 0.52205 -0.09600
C 	C 	0.33480 0.18212 0.52268 0.19100
C 	C 	0.35731 0.13877 0.49678 -0.12500
C 	C 	0.28774 0.05963 0.47038 -0.03600
C 	C 	0.19592 0.02362 0.46962 0.12300
H 	H 	0.22610 0.17868 0.54260 0.07400
O 	O 	0.40254 0.26002 0.54855 -0.30600
H 	H 	0.30485 0.02665 0.45008 0.04800
O 	O 	0.12830 0.94634 0.44340 -0.26300
H 	H 	0.11802 0.96655 0.41952 0.14900
H 	H 	0.41267 0.24068 0.57278 0.15000
C 	C 	0.85090 0.78376 0.95770 -0.04300
C 	C 	0.81326 0.74509 0.98996 -0.08700
C 	C 	0.78729 0.65943 0.99315 0.17800
C 	C 	0.79773 0.61103 0.96358 -0.11300
C 	C 	0.83406 0.64920 0.93104 -0.04700
C 	C 	0.85937 0.73446 0.92774 0.14000
H 	H 	0.80732 0.78273 0.01336 0.07100
O 	O 	0.75084 0.62277 0.02496 -0.28800
H 	H 	0.84043 0.61181 0.90771 0.06400
O 	O 	0.89518 0.77080 0.89577 -0.27200
H 	H 	0.84178 0.75209 0.87591 0.14800
H 	H 	0.80398 0.64166 0.04506 0.14200
C 	C 	0.80152 0.16293 0.97523 -0.11900
C 	C 	0.79588 0.11293 0.00406 -0.05000
C 	C 	0.81966 0.05496 0.99837 0.13900
C 	C 	0.85069 0.04727 0.96388 -0.04300
C 	C 	0.85249 0.09404 0.93429 -0.09100
C 	C 	0.82816 0.15169 0.93978 0.18100
H 	H 	0.77474 0.12025 0.03130 0.04300
O 	O 	0.81817 0.01045 0.02772 -0.29400
H 	H 	0.87563 0.08795 0.90747 0.07100
O 	O 	0.82736 0.19418 0.90994 -0.28200
H 	H 	0.89062 0.25080 0.91388 0.15500
H 	H 	0.75596 0.95209 0.02185 0.15900
C 	C 	0.13579 0.08277 0.96319 -0.04000
C 	C 	0.18976 0.06667 0.98605 -0.09100
C 	C 	0.28414 0.11856 0.98701 0.18500
C 	C 	0.32572 0.18789 0.96506 -0.11700
C 	C 	0.27182 0.20455 0.94247 -0.04300
C 	C 	0.17732 0.15237 0.94141 0.13900
H 	H 	0.15834 0.01334 0.00296 0.06900
O 	O 	0.33479 0.09843 0.00779 -0.29800
H 	H 	0.30316 0.25801 0.92564 0.06200
O 	O 	0.12508 0.16637 0.91744 -0.27600
H 	H 	0.12598 0.21320 0.93369 0.14900
H 	H 	0.35303 0.13229 0.03503 0.15100
