data_crystal

_cell_length_a 18.54784
_cell_length_b 18.80283
_cell_length_c 26.35058
_cell_angle_alpha 95.41154
_cell_angle_beta  95.41195
_cell_angle_gamma 126.42118

_symmetry_space_group_name_	'P 1'
_symmetry_space_group_name_H-M	'P 1'

loop_
_symmetry_equiv_pos_as_xyz
  x,y,z

loop_
_atom_site_label
_atom_site_type_symbol
_atom_site_fract_x
_atom_site_fract_y
_atom_site_fract_z
_atom_site_charge
C 	C 	0.95218 0.03449 0.98773 0.05800
N 	N 	0.04246 0.08224 0.98608 -0.02700
C 	C 	0.08303 0.04136 0.98798 0.12500
N 	N 	0.03317 0.95289 0.99076 0.00500
C 	C 	0.94306 0.90514 0.99211 0.14500
N 	N 	0.90217 0.94545 0.98921 -0.01900
C 	C 	0.91182 0.00068 0.46311 0.05900
N 	N 	0.00389 0.05243 0.46851 -0.02600
C 	C 	0.04754 0.01526 0.47380 0.17800
N 	N 	0.99929 0.92609 0.47387 -0.08100
C 	C 	0.90743 0.87382 0.46935 0.18700
N 	N 	0.86308 0.91085 0.46351 -0.03600
Cu	Cu	0.62447 0.21066 0.00411 0.94000
Cu	Cu	0.73546 0.26741 0.90876 0.92300
Cu	Cu	0.65822 0.35139 0.94174 0.92000
Cu	Cu	0.62254 0.37249 0.04890 0.92100
C 	C 	0.63494 0.25808 0.11267 0.29200
O 	O 	0.49040 0.15766 0.99795 -0.31100
C 	C 	0.65756 0.31189 0.83043 0.28900
O 	O 	0.69332 0.35041 0.01379 -0.63200
O 	O 	0.62338 0.22839 0.93193 -0.62800
O 	O 	0.68109 0.14822 0.99910 -0.29100
O 	O 	0.79827 0.26323 0.96798 -0.36400
O 	O 	0.59111 0.29033 0.09915 -0.34600
O 	O 	0.68261 0.46845 0.95262 -0.28600
C 	C 	0.72297 0.52614 0.99698 0.30500
C 	C 	0.45780 0.20022 0.98296 0.29900
O 	O 	0.51391 0.28686 0.98260 -0.33500
O 	O 	0.69800 0.49931 0.04079 -0.33200
O 	O 	0.64773 0.21422 0.07729 -0.33000
C 	C 	0.76115 0.18801 0.98554 0.30600
O 	O 	0.64174 0.35190 0.86696 -0.28800
O 	O 	0.68561 0.26388 0.84108 -0.33700
H 	H 	0.75988 0.39134 0.02733 0.20500
H 	H 	0.56602 0.18336 0.90672 0.24300
Cu	Cu	0.74767 0.33684 0.43881 0.93400
Cu	Cu	0.77456 0.29574 0.55892 0.93200
Cu	Cu	0.61504 0.30402 0.51024 0.92400
Cu	Cu	0.57382 0.32980 0.40467 0.94000
C 	C 	0.66600 0.29607 0.33068 0.29200
O 	O 	0.80084 0.46833 0.43653 -0.29500
C 	C 	0.65965 0.31320 0.61616 0.28100
O 	O 	0.60675 0.26633 0.43829 -0.63200
O 	O 	0.74647 0.35755 0.51425 -0.61600
O 	O 	0.80099 0.26906 0.43611 -0.31200
O 	O 	0.85683 0.29706 0.52210 -0.33400
O 	O 	0.62984 0.33670 0.34280 -0.28200
O 	O 	0.48651 0.24306 0.50710 -0.33400
C 	C 	0.42924 0.22936 0.46670 0.31000
C 	C 	0.75958 0.50251 0.45168 0.29000
O 	O 	0.67666 0.44963 0.46099 -0.34200
O 	O 	0.45798 0.27931 0.43056 -0.28900
O 	O 	0.72722 0.30239 0.36486 -0.31700
C 	C 	0.82610 0.24638 0.47606 0.29600
O 	O 	0.63365 0.34526 0.58328 -0.33500
O 	O 	0.67855 0.25924 0.59869 -0.34400
H 	H 	0.56572 0.20027 0.42622 0.22500
H 	H 	0.78532 0.42249 0.52949 0.17900
C 	C 	0.63978 0.31745 0.77596 -0.01300
C 	C 	0.70000 0.39858 0.75917 0.00100
C 	C 	0.70291 0.39930 0.70623 0.02700
C 	C 	0.64487 0.31807 0.66983 -0.03900
C 	C 	0.57814 0.23896 0.68617 0.01900
C 	C 	0.57479 0.23847 0.73899 0.02100
H 	H 	0.74840 0.46001 0.78749 0.11500
H 	H 	0.53083 0.17716 0.65792 0.08700
C 	C 	0.50556 0.15632 0.75513 0.15200
C 	C 	0.76819 0.48281 0.68985 0.12200
N 	N 	0.45012 0.09055 0.76809 -0.04100
N 	N 	0.82046 0.54969 0.67669 -0.05400
C 	C 	0.65998 0.26865 0.27529 -0.02500
C 	C 	0.73908 0.31477 0.25362 0.01700
C 	C 	0.73237 0.30482 0.19961 0.02100
C 	C 	0.64582 0.24877 0.16702 -0.03800
C 	C 	0.56771 0.19553 0.18866 0.01500
C 	C 	0.57440 0.20497 0.24259 0.02300
H 	H 	0.80539 0.36183 0.27873 0.09600
H 	H 	0.50125 0.14994 0.16350 0.09000
C 	C 	0.49320 0.14936 0.26409 0.13200
C 	C 	0.81427 0.35505 0.17796 0.12300
N 	N 	0.42811 0.10466 0.28128 -0.03000
N 	N 	0.87985 0.39523 0.16058 -0.06700
C 	C 	0.81600 0.71962 0.41775 0.03600
C 	C 	0.85614 0.77601 0.46665 0.07600
C 	C 	0.86474 0.74203 0.51067 -0.10100
C 	C 	0.84175 0.65519 0.50397 0.07200
C 	C 	0.80343 0.59930 0.45489 0.00600
C 	C 	0.79084 0.63186 0.41111 -0.06700
C 	C 	0.74710 0.57194 0.35775 0.77800
H 	H 	0.80798 0.74569 0.38448 0.13100
H 	H 	0.85102 0.62981 0.53727 0.08200
C 	C 	0.90231 0.79960 0.56459 0.78800
F 	F 	0.75375 0.61970 0.31921 -0.39100
F 	F 	0.65574 0.50475 0.35674 -0.43600
F 	F 	0.78970 0.53356 0.34652 -0.42400
F 	F 	0.86857 0.84806 0.57063 -0.37600
F 	F 	0.99643 0.85865 0.57200 -0.38000
F 	F 	0.87793 0.74716 0.60252 -0.39700
C 	C 	0.82104 0.04580 0.49651 0.03000
C 	C 	0.86560 0.04276 0.45721 0.08200
C 	C 	0.88167 0.09539 0.41845 -0.10100
C 	C 	0.87020 0.16299 0.42579 0.07000
C 	C 	0.83203 0.17088 0.46744 0.00300
C 	C 	0.79904 0.10591 0.50015 -0.07600
C 	C 	0.74226 0.10118 0.53949 0.77100
H 	H 	0.80683 0.00402 0.52550 0.11300
H 	H 	0.89204 0.21014 0.39942 0.09800
C 	C 	0.91551 0.08324 0.37063 0.68300
F 	F 	0.69338 0.01798 0.55424 -0.41100
F 	F 	0.68015 0.11384 0.51868 -0.48900
F 	F 	0.79887 0.16654 0.58318 -0.46100
F 	F 	0.88021 0.99415 0.35544 -0.32700
F 	F 	0.00970 0.13612 0.38115 -0.33900
F 	F 	0.88880 0.10844 0.32954 -0.39800
C 	C 	0.30319 0.19020 0.51233 0.08000
C 	C 	0.33158 0.17276 0.46849 0.00600
C 	C 	0.26657 0.10068 0.42729 -0.05200
C 	C 	0.17353 0.05183 0.42929 0.03300
C 	C 	0.14529 0.06902 0.47318 0.08300
C 	C 	0.21056 0.13667 0.51598 -0.09700
C 	C 	0.18146 0.15383 0.56480 0.78700
H 	H 	0.35358 0.24589 0.54347 0.10400
H 	H 	0.12260 0.00024 0.39663 0.11900
C 	C 	0.29574 0.07789 0.38034 0.71900
F 	F 	0.25527 0.21033 0.60512 -0.39000
F 	F 	0.12107 0.07375 0.58106 -0.37300
F 	F 	0.13972 0.19352 0.55471 -0.38000
F 	F 	0.36759 0.07551 0.39577 -0.44200
F 	F 	0.32233 0.14206 0.34954 -0.40000
F 	F 	0.22525 0.99452 0.35077 -0.30200
C 	C 	0.89661 0.75251 0.96142 0.03500
C 	C 	0.88964 0.80921 0.99553 0.08900
C 	C 	0.83342 0.77387 0.03314 -0.09700
C 	C 	0.77467 0.68035 0.03015 0.07400
C 	C 	0.78240 0.62357 0.99654 0.01600
C 	C 	0.84904 0.66122 0.96444 -0.06700
C 	C 	0.86910 0.60493 0.93287 0.77700
H 	H 	0.94018 0.77996 0.93292 0.11100
H 	H 	0.72378 0.65166 0.05466 0.11100
C 	C 	0.83591 0.83489 0.07660 0.78900
F 	F 	0.95343 0.65896 0.91855 -0.41100
F 	F 	0.80328 0.55540 0.88831 -0.43900
F 	F 	0.87049 0.54742 0.96135 -0.46800
F 	F 	0.78482 0.86158 0.05809 -0.36700
F 	F 	0.92470 0.90999 0.09633 -0.33600
F 	F 	0.80022 0.79083 0.11719 -0.37100
C 	C 	0.84418 0.05464 0.94282 0.00800
C 	C 	0.90776 0.07829 0.98696 0.09700
C 	C 	0.92089 0.13578 0.03167 -0.11000
C 	C 	0.87080 0.16986 0.03062 0.07200
C 	C 	0.80662 0.14539 0.98664 -0.00200
C 	C 	0.79196 0.08627 0.94244 -0.06000
C 	C 	0.72267 0.05911 0.89435 0.71600
H 	H 	0.83483 0.01056 0.90895 0.09200
H 	H 	0.88233 0.21642 0.06380 0.09200
C 	C 	0.99043 0.16339 0.07972 0.74400
F 	F 	0.71150 0.99392 0.85766 -0.31900
F 	F 	0.75145 0.13346 0.87208 -0.47100
F 	F 	0.63869 0.02461 0.90756 -0.42700
F 	F 	0.07722 0.21637 0.06853 -0.32700
F 	F 	0.97449 0.08800 0.09569 -0.37300
F 	F 	0.98645 0.21212 0.12065 -0.39800
C 	C 	0.21308 0.11286 0.94182 0.02500
C 	C 	0.18136 0.09308 0.98859 0.09600
C 	C 	0.24153 0.11133 0.03383 -0.11100
C 	C 	0.33000 0.14089 0.03010 0.07100
C 	C 	0.36132 0.15891 0.98316 0.00500
C 	C 	0.30245 0.14419 0.93830 -0.06200
C 	C 	0.33481 0.16206 0.88689 0.77500
H 	H 	0.16691 0.10069 0.90778 0.12000
H 	H 	0.37553 0.15159 0.06404 0.08600
C 	C 	0.21040 0.09538 0.08565 0.78900
F 	F 	0.26335 0.12859 0.84619 -0.39300
F 	F 	0.37533 0.12131 0.87616 -0.43200
F 	F 	0.39753 0.25374 0.88945 -0.41100
F 	F 	0.15745 0.00435 0.08662 -0.39400
F 	F 	0.15993 0.12626 0.09332 -0.34400
F 	F 	0.28396 0.14013 0.12651 -0.39600
