data_crystal

_cell_length_a 18.34053
_cell_length_b 18.81319
_cell_length_c 17.75759
_cell_angle_alpha 95.44404
_cell_angle_beta  95.44652
_cell_angle_gamma 126.42309

_symmetry_space_group_name_	'P 1'
_symmetry_space_group_name_H-M	'P 1'

loop_
_symmetry_equiv_pos_as_xyz
  x,y,z

loop_
_atom_site_label
_atom_site_type_symbol
_atom_site_fract_x
_atom_site_fract_y
_atom_site_fract_z
_atom_site_charge
C 	C 	0.94940 0.03800 0.98416 0.03000
C 	C 	0.04147 0.08420 0.97430 -0.06700
C 	C 	0.07527 0.03596 0.95499 0.03200
C 	C 	0.01592 0.94197 0.94168 -0.06300
C 	C 	0.92605 0.89619 0.95571 0.02700
C 	C 	0.89240 0.94402 0.97604 -0.07300
H 	H 	0.08682 0.15704 0.98296 0.05100
H 	H 	0.04201 0.90478 0.92648 0.05400
H 	H 	0.82242 0.90838 0.98637 0.05400
C 	C 	0.90040 0.98646 0.41570 0.03300
C 	C 	0.85777 0.89492 0.41769 -0.06300
C 	C 	0.91235 0.86561 0.43028 0.02600
C 	C 	0.00848 0.92763 0.44133 -0.05900
C 	C 	0.05062 0.01828 0.43996 0.03700
C 	C 	0.99678 0.04744 0.42619 -0.07600
H 	H 	0.78340 0.84762 0.41111 0.05500
H 	H 	0.05061 0.90538 0.45159 0.05700
H 	H 	0.02994 0.11800 0.42568 0.06300
Cu	Cu	0.63903 0.23114 0.03736 0.93400
Cu	Cu	0.77286 0.28557 0.91240 0.85900
Cu	Cu	0.66549 0.34456 0.91618 0.88400
Cu	Cu	0.60761 0.38029 0.05836 0.90400
C 	C 	0.63579 0.30385 0.18580 0.20000
O 	O 	0.49888 0.16149 0.01407 -0.32700
C 	C 	0.69790 0.29633 0.76741 0.19200
O 	O 	0.69445 0.36535 0.02854 -0.62700
O 	O 	0.64713 0.23151 0.92741 -0.65000
O 	O 	0.70735 0.18069 0.05743 -0.33500
O 	O 	0.82626 0.29410 0.01231 -0.42100
O 	O 	0.58352 0.32130 0.14968 -0.34700
O 	O 	0.68974 0.45879 0.90726 -0.37400
C 	C 	0.70752 0.51937 0.96535 0.27000
C 	C 	0.45869 0.19132 0.97752 0.26300
O 	O 	0.50898 0.27325 0.96344 -0.40500
O 	O 	0.66396 0.49594 0.02379 -0.36300
O 	O 	0.65441 0.25418 0.14810 -0.31200
C 	C 	0.78996 0.22082 0.04089 0.29300
O 	O 	0.65576 0.32326 0.80344 -0.33300
O 	O 	0.73665 0.26505 0.80356 -0.38100
H 	H 	0.75992 0.41438 0.05165 0.16000
H 	H 	0.59615 0.17810 0.88911 0.19000
Cu	Cu	0.74090 0.32887 0.41097 0.92500
Cu	Cu	0.72774 0.23028 0.55637 0.87000
Cu	Cu	0.62399 0.29718 0.53614 0.89400
Cu	Cu	0.58990 0.36089 0.39752 0.89800
C 	C 	0.65512 0.32258 0.26288 0.19900
O 	O 	0.81380 0.46615 0.42214 -0.35400
C 	C 	0.69642 0.29433 0.69174 0.19700
O 	O 	0.60484 0.27506 0.42484 -0.63400
O 	O 	0.74979 0.33637 0.52462 -0.63600
O 	O 	0.78315 0.25183 0.39116 -0.35500
O 	O 	0.68105 0.15543 0.45915 -0.43800
O 	O 	0.63702 0.37369 0.29901 -0.35300
O 	O 	0.49728 0.24941 0.53958 -0.37200
C 	C 	0.44693 0.25811 0.48871 0.29300
C 	C 	0.78756 0.50884 0.45993 0.28400
O 	O 	0.70905 0.46179 0.48360 -0.38800
O 	O 	0.48573 0.32487 0.45058 -0.38600
O 	O 	0.70629 0.30408 0.30025 -0.31600
C 	C 	0.73990 0.17385 0.41392 0.29500
O 	O 	0.64499 0.31015 0.65025 -0.33100
O 	O 	0.75140 0.28185 0.66085 -0.38700
H 	H 	0.55444 0.21201 0.39962 0.17000
H 	H 	0.80106 0.39468 0.55772 0.18100
C 	C 	0.82904 0.60346 0.45414 -0.08300
C 	C 	0.83642 0.62778 0.38125 0.00400
C 	C 	0.85620 0.71050 0.37159 -0.04100
C 	C 	0.87002 0.77063 0.43552 0.01500
C 	C 	0.86267 0.74637 0.50830 -0.06000
C 	C 	0.84337 0.66395 0.51812 0.02200
H 	H 	0.82350 0.58095 0.33151 0.04100
H 	H 	0.87542 0.79325 0.55793 0.05500
C 	C 	0.84005 0.64263 0.59437 0.07100
C 	C 	0.86201 0.73314 0.29579 0.08600
N 	N 	0.83734 0.62554 0.65545 -0.11200
N 	N 	0.86665 0.75131 0.23508 -0.11400
C 	C 	0.84588 0.02133 0.41239 0.01700
C 	C 	0.82801 0.04444 0.34364 -0.06100
C 	C 	0.79414 0.09485 0.34317 0.03200
C 	C 	0.77938 0.12388 0.41239 -0.09800
C 	C 	0.79576 0.09918 0.48065 0.01400
C 	C 	0.82772 0.04754 0.48078 -0.04500
H 	H 	0.84245 0.02499 0.29095 0.05800
H 	H 	0.78392 0.12060 0.53399 -0.00500
C 	C 	0.84423 0.02377 0.55203 0.08300
C 	C 	0.77269 0.11436 0.27129 0.07700
N 	N 	0.85751 0.00469 0.60905 -0.11900
N 	N 	0.75525 0.12992 0.21373 -0.09500
C 	C 	0.34559 0.19654 0.47786 -0.08500
C 	C 	0.29403 0.16159 0.40257 0.00900
C 	C 	0.19772 0.10563 0.38968 -0.03900
C 	C 	0.15185 0.08285 0.45259 0.01500
C 	C 	0.20300 0.11804 0.52801 -0.05900
C 	C 	0.29962 0.17537 0.54111 0.02800
H 	H 	0.32920 0.17821 0.35390 0.03100
H 	H 	0.16746 0.10072 0.57642 0.05800
C 	C 	0.35065 0.21418 0.61935 0.08300
C 	C 	0.14630 0.07210 0.31166 0.09300
N 	N 	0.39141 0.24519 0.68204 -0.10200
N 	N 	0.10505 0.04534 0.24920 -0.10400
C 	C 	0.87086 0.79941 0.95739 -0.00800
C 	C 	0.79400 0.73756 0.89888 -0.05500
C 	C 	0.74117 0.64527 0.89940 0.02800
C 	C 	0.76551 0.61460 0.95923 -0.10200
C 	C 	0.84269 0.67648 0.01727 0.02900
C 	C 	0.89557 0.76846 0.01665 -0.01500
H 	H 	0.77534 0.76137 0.85309 0.05200
H 	H 	0.86118 0.65281 0.06334 0.03100
C 	C 	0.97542 0.83073 0.07684 0.08800
C 	C 	0.66107 0.58283 0.83946 0.08100
N 	N 	0.59694 0.53283 0.79142 -0.10200
C 	C 	0.91068 0.08709 0.99915 -0.01900
C 	C 	0.83909 0.06949 0.94414 -0.04100
C 	C 	0.79585 0.10908 0.95908 -0.01600
C 	C 	0.82604 0.16932 0.02903 -0.05700
C 	C 	0.89785 0.18739 0.08407 -0.00200
C 	C 	0.93937 0.14556 0.07008 -0.01000
H 	H 	0.81621 0.02384 0.88997 0.04700
H 	H 	0.92163 0.23418 0.13766 0.04600
C 	C 	0.72032 0.08733 0.90227 0.03800
N 	N 	0.65978 0.06964 0.85666 -0.12900
C 	C 	0.17523 0.08285 0.96146 -0.00900
C 	C 	0.22595 0.09293 0.03121 -0.03300
C 	C 	0.31644 0.12148 0.03586 0.03800
C 	C 	0.35831 0.14288 0.97024 -0.09800
C 	C 	0.30746 0.13301 0.90043 0.00700
C 	C 	0.21629 0.10302 0.89569 -0.03500
H 	H 	0.19372 0.07578 0.08148 0.06100
H 	H 	0.33960 0.15047 0.85016 0.04200
C 	C 	0.16544 0.09344 0.82322 0.08700
C 	C 	0.36564 0.12877 0.10831 0.08000
N 	N 	0.12472 0.08575 0.76515 -0.11500
N 	N 	0.40456 0.13424 0.16648 -0.10800
N 	N 	0.03953 0.88049 0.12492 -0.10200
N 	N 	0.06687 0.17509 0.17649 -0.10900
C 	C 	0.01014 0.16191 0.12915 0.09200
