data_crystal

_cell_length_a 12.45703
_cell_length_b 13.71255
_cell_length_c 54.39570
_cell_angle_alpha 90.21267
_cell_angle_beta  90.21672
_cell_angle_gamma 119.35396

_symmetry_space_group_name_	'P 1'
_symmetry_space_group_name_H-M	'P 1'

loop_
_symmetry_equiv_pos_as_xyz
  x,y,z

loop_
_atom_site_label
_atom_site_type_symbol
_atom_site_fract_x
_atom_site_fract_y
_atom_site_fract_z
_atom_site_charge
C 	C 	0.31009 0.79728 0.10014 0.30900
C 	C 	0.34703 0.79247 0.17015 0.41700
Ni	Ni	0.23729 0.60759 0.13239 1.12800
O 	O 	0.26014 0.68846 0.10099 -0.40500
O 	O 	0.25676 0.73806 0.15386 -0.35300
O 	O 	0.40688 0.86275 0.11403 -0.34400
C 	C 	0.24077 0.92172 0.26151 0.40100
C 	C 	0.06881 0.19515 0.31679 0.36200
C 	C 	0.24256 0.96616 0.33015 0.40900
C 	C 	0.11008 0.16977 0.24982 0.38700
Ni	Ni	0.21827 0.10249 0.29129 1.12900
O 	O 	0.29883 0.01053 0.27644 -0.31100
O 	O 	0.17294 0.22119 0.30538 -0.29500
O 	O 	0.22683 0.05227 0.32652 -0.35200
O 	O 	0.17952 0.87331 0.31711 -0.30800
O 	O 	0.20559 0.15972 0.25707 -0.31100
O 	O 	0.01506 0.14494 0.26478 -0.33800
O 	O 	0.06178 0.97998 0.28533 -0.73000
C 	C 	0.07247 0.19734 0.20607 0.25300
C 	C 	0.13020 0.24323 0.22873 -0.15700
C 	C 	0.23123 0.35212 0.22947 0.29400
C 	C 	0.28005 0.41081 0.20776 0.30800
F 	F 	0.28800 0.39769 0.25121 -0.31600
C 	C 	0.30239 0.76206 0.21456 0.31400
C 	C 	0.31932 0.82724 0.19368 -0.18100
C 	C 	0.33420 0.93521 0.19634 0.30600
C 	C 	0.32610 0.97506 0.21964 0.28800
C 	C 	0.30514 0.90789 0.24045 -0.16100
C 	C 	0.30453 0.80553 0.23790 0.30100
F 	F 	0.29203 0.74260 0.25803 -0.30200
F 	F 	0.28138 0.65557 0.21219 -0.32800
F 	F 	0.33010 0.07546 0.22176 -0.37500
F 	F 	0.35479 0.00075 0.17631 -0.37500
C 	C 	0.09833 0.47932 0.32950 0.30700
C 	C 	0.04713 0.28419 0.32720 -0.20300
C 	C 	0.10403 0.39223 0.31702 0.29200
F 	F 	0.16622 0.41324 0.29552 -0.31900
F 	F 	0.16186 0.58532 0.32081 -0.32700
C 	C 	0.43438 0.95319 0.33733 0.29400
F 	F 	0.43756 0.93009 0.31314 -0.33100
C 	C 	0.23565 0.88168 0.04175 -0.07800
C 	C 	0.30636 0.90019 0.06320 0.02900
C 	C 	0.24914 0.84401 0.08486 -0.07900
C 	C 	0.12044 0.79284 0.08621 0.04800
H 	H 	0.28017 0.92347 0.02494 0.06000
H 	H 	0.40575 0.94806 0.06231 0.04200
H 	H 	0.07484 0.75744 0.10345 0.04800
O 	O 	0.21462 0.51008 0.16181 -0.33300
H 	H 	0.21073 0.77138 0.99924 0.03700
C 	C 	0.11768 0.25917 0.18436 0.30100
F 	F 	0.38465 0.51091 0.20865 -0.33700
C 	C 	0.64000 0.70472 0.15961 0.39600
C 	C 	0.22521 0.45699 0.09198 0.30900
C 	C 	0.57828 0.73174 0.08612 0.29600
C 	C 	0.25807 0.43899 0.16353 0.39800
Ni	Ni	0.45502 0.54719 0.12265 1.12000
Ni	Ni	0.51682 0.81097 0.13105 1.13300
O 	O 	0.59248 0.60423 0.14935 -0.33400
O 	O 	0.65626 0.79345 0.14681 -0.32500
O 	O 	0.34039 0.48071 0.09250 -0.37200
O 	O 	0.17104 0.46431 0.11200 -0.35700
O 	O 	0.46387 0.83680 0.16387 -0.33000
O 	O 	0.58618 0.64990 0.09707 -0.34600
O 	O 	0.59672 0.82020 0.09852 -0.35400
O 	O 	0.31862 0.42237 0.14513 -0.33300
O 	O 	0.40771 0.65178 0.13302 -0.72000
H 	H 	0.41615 0.64569 0.15086 0.17100
C 	C 	0.22278 0.36589 0.18515 -0.18600
F 	F 	0.05941 0.21556 0.16264 -0.38400
F 	F 	0.52016 0.72815 0.20086 -0.35300
F 	F 	0.59781 0.91428 0.34582 -0.34000
C 	C 	0.64467 0.85529 0.02453 -0.05100
C 	C 	0.52683 0.83840 0.01869 0.01700
C 	C 	0.42481 0.75604 0.03112 -0.05300
C 	C 	0.44122 0.70162 0.05121 0.00700
C 	C 	0.55978 0.73094 0.05951 -0.07800
C 	C 	0.51277 0.92062 0.00354 0.04400
H 	H 	0.33348 0.74039 0.02648 0.04500
H 	H 	0.36282 0.64829 0.06228 0.04100
C 	C 	0.53473 0.02233 0.01402 -0.08300
H 	H 	0.56856 0.04333 0.03274 0.06000
H 	H 	0.53383 0.17694 0.00858 0.03700
C 	C 	0.14949 0.50360 0.03081 -0.06200
C 	C 	0.20452 0.44873 0.01878 0.02200
C 	C 	0.20192 0.35597 0.03020 -0.05900
C 	C 	0.17384 0.33728 0.05521 0.01800
C 	C 	0.15597 0.41534 0.06883 -0.07700
C 	C 	0.12317 0.48550 0.05596 0.00900
H 	H 	0.23513 0.30679 0.02055 0.05300
H 	H 	0.18686 0.27439 0.06466 0.04700
H 	H 	0.09681 0.53894 0.06593 0.03800
H 	H 	0.14012 0.56837 0.02157 0.04700
C 	C 	0.69294 0.72069 0.18437 -0.18800
C 	C 	0.62445 0.72248 0.20447 0.31100
F 	F 	0.38182 0.58261 0.34132 -0.34400
C 	C 	0.66086 0.80023 0.04471 0.01900
H 	H 	0.75321 0.82149 0.05046 0.05000
H 	H 	0.72437 0.91678 0.01463 0.06500
C 	C 	0.41870 0.54473 0.00229 -0.05100
H 	H 	0.45348 0.54284 0.02045 0.05400
C 	C 	0.49926 0.60418 0.34461 0.29400
C 	C 	0.80482 0.72137 0.18835 0.30500
C 	C 	0.66573 0.72300 0.22834 0.29600
F 	F 	0.87017 0.71564 0.16902 -0.36300
F 	F 	0.59710 0.72322 0.24766 -0.31100
C 	C 	0.59225 0.68231 0.32945 0.29900
C 	C 	0.78529 0.74070 0.23233 -0.16300
C 	C 	0.85183 0.73291 0.21232 0.28600
H 	H 	0.75428 0.56541 0.99749 0.04300
F 	F 	0.56191 0.73011 0.31083 -0.29900
C 	C 	0.71609 0.71167 0.33391 -0.16100
H 	H 	0.06772 0.97244 0.26747 0.16500
C 	C 	0.85272 0.80827 0.25366 0.39200
C 	C 	0.85394 0.60900 0.99809 -0.02900
H 	H 	0.86258 0.70620 0.02975 0.03800
O 	O 	0.87597 0.75957 0.27267 -0.31300
C 	C 	0.81891 0.81058 0.32160 0.38900
O 	O 	0.79451 0.87016 0.30570 -0.27900
O 	O 	0.85878 0.90709 0.25588 -0.31600
C 	C 	0.04503 0.74200 0.01844 -0.05300
Ni	Ni	0.02877 0.83508 0.29508 1.12900
O 	O 	0.13395 0.83457 0.26747 -0.32300
C 	C 	0.05041 0.76504 0.06461 -0.12000
C 	C 	0.11135 0.72691 0.99919 -0.00900
C 	C 	0.10932 0.80157 0.04174 0.06100
C 	C 	0.51374 0.09761 0.00037 0.02300
C 	C 	0.34522 0.97930 0.34613 -0.17500
C 	C 	0.51757 0.94712 0.35394 0.29600
C 	C 	0.04779 0.46039 0.35318 -0.21800
C 	C 	0.74091 0.64624 0.35060 0.27700
C 	C 	0.12903 0.53084 0.37290 0.42800
O 	O 	0.10003 0.59231 0.38688 -0.32800
C 	C 	0.43784 0.00885 0.38675 0.25900
C 	C 	0.35512 0.01752 0.37050 0.26800
F 	F 	0.27974 0.05572 0.37879 -0.38200
C 	C 	0.46319 0.84514 0.39236 0.39400
C 	C 	0.47869 0.56736 0.38893 0.40700
O 	O 	0.53917 0.66029 0.40141 -0.36800
O 	O 	0.35646 0.76151 0.38698 -0.36000
O 	O 	0.22063 0.51659 0.37908 -0.36500
C 	C 	0.49763 0.94943 0.37928 -0.16200
C 	C 	0.53033 0.56103 0.36515 -0.18600
C 	C 	0.64645 0.56786 0.36547 0.29300
F 	F 	0.85630 0.66056 0.35298 -0.35900
O 	O 	0.39105 0.47664 0.39952 -0.35000
F 	F 	0.67347 0.51301 0.38304 -0.36800
O 	O 	0.51693 0.84421 0.41330 -0.34000
F 	F 	0.43990 0.03690 0.41071 -0.40100
Ni	Ni	0.22466 0.70020 0.41360 1.12400
Ni	Ni	0.23657 0.47105 0.41320 1.12800
O 	O 	0.06153 0.43877 0.42370 -0.32600
H 	H 	0.78792 0.41181 0.43566 0.09900
Ni	Ni	0.47329 0.69603 0.43112 1.12900
O 	O 	0.29979 0.61812 0.42517 -0.71500
O 	O 	0.47069 0.56582 0.45037 -0.35400
O 	O 	0.32891 0.83337 0.43895 -0.31600
H 	H 	0.56554 0.04281 0.44645 0.10500
C 	C 	0.03729 0.49998 0.43986 0.25300
O 	O 	0.08440 0.60937 0.43745 -0.35200
O 	O 	0.26596 0.42298 0.44591 -0.37700
H 	H 	0.27048 0.60226 0.44225 0.15900
H 	H 	0.41662 0.29907 0.45255 0.06700
C 	C 	0.82529 0.43028 0.45417 0.01100
C 	C 	0.37202 0.47171 0.45810 0.28800
C 	C 	0.39388 0.83150 0.45854 0.27900
O 	O 	0.43040 0.75660 0.46064 -0.37800
C 	C 	0.76344 0.45583 0.47244 -0.04400
C 	C 	0.65148 0.09654 0.48185 -0.02600
C 	C 	0.45363 0.92920 0.47489 -0.02300
C 	C 	0.55497 0.02709 0.46598 -0.02700
H 	H 	0.73084 0.16994 0.47464 0.05900
C 	C 	0.36967 0.22665 0.48859 -0.05500
C 	C 	0.38727 0.40605 0.47771 -0.06800
C 	C 	0.39555 0.31059 0.47129 0.01300
H 	H 	0.37584 0.15330 0.48330 0.06000
H 	H 	0.67563 0.45047 0.46824 0.06600
C 	C 	0.81846 0.49367 0.49564 0.02400
H 	H 	0.07372 0.46697 0.48749 0.00700
C 	C 	0.44295 0.91031 0.50032 -0.01100
C 	C 	0.35756 0.41861 0.50191 0.01000
C 	C 	0.64776 0.06842 0.50671 -0.01700
C 	C 	0.33913 0.23881 0.51282 0.01900
H 	H 	0.34880 0.49085 0.50701 0.03500
H 	H 	0.59093 0.36246 0.51450 0.04700
H 	H 	0.36373 0.83695 0.50758 0.04400
H 	H 	0.72793 0.28656 0.51607 0.04800
C 	C 	0.75543 0.52263 0.51506 0.02300
C 	C 	0.81933 0.62477 0.52778 -0.05200
C 	C 	0.54167 0.97630 0.51599 -0.01500
C 	C 	0.74773 0.14278 0.52370 0.03400
C 	C 	0.33276 0.33533 0.51932 -0.05800
C 	C 	0.33573 0.16163 0.53230 0.01600
C 	C 	0.76829 0.25113 0.52815 -0.06300
H 	H 	0.50379 0.16550 0.52124 0.04400
C 	C 	0.64430 0.43895 0.52471 -0.05600
C 	C 	0.43774 0.14562 0.53579 -0.05800
H 	H 	0.53541 0.95625 0.53536 0.05300
H 	H 	0.79465 0.01746 0.53514 0.05500
H 	H 	0.31228 0.34744 0.53805 0.05300
H 	H 	0.16182 0.12963 0.54778 0.04600
C 	C 	0.80457 0.09906 0.53900 -0.06000
C 	C 	0.24568 0.12566 0.55070 -0.05500
C 	C 	0.46341 0.11939 0.55916 -0.00300
C 	C 	0.82591 0.30698 0.54995 0.00600
H 	H 	0.82843 0.38501 0.55450 0.03800
H 	H 	0.53500 0.37605 0.55733 0.04000
C 	C 	0.61213 0.44736 0.54897 0.00200
C 	C 	0.78546 0.63372 0.55187 0.01700
H 	H 	0.55059 0.12207 0.56247 0.03700
C 	C 	0.86270 0.15540 0.56076 0.02000
C 	C 	0.69269 0.53864 0.56361 -0.06400
H 	H 	0.84324 0.70851 0.56252 0.05900
C 	C 	0.27122 0.09807 0.57396 0.01000
C 	C 	0.85858 0.25233 0.56772 -0.06800
C 	C 	0.38897 0.11259 0.57904 -0.06500
H 	H 	0.89513 0.11564 0.57372 0.05800
H 	H 	0.20772 0.08322 0.58888 0.05900
C 	C 	0.71676 0.51584 0.58876 0.27900
C 	C 	0.83283 0.26405 0.59346 0.28500
O 	O 	0.82222 0.51736 0.59300 -0.35700
C 	C 	0.45072 0.17265 0.60164 0.28500
O 	O 	0.45868 0.27140 0.60551 -0.36700
O 	O 	0.73300 0.18094 0.60337 -0.36200
H 	H 	0.67962 0.32919 0.60700 0.14300
O 	O 	0.64160 0.50765 0.60712 -0.34100
O 	O 	0.48582 0.12367 0.61870 -0.34700
O 	O 	0.69257 0.34231 0.62484 -0.71500
Ni	Ni	0.56502 0.37658 0.63169 1.13100
Ni	Ni	0.85708 0.45900 0.62514 1.12600
Ni	Ni	0.65767 0.19687 0.63467 1.12900
O 	O 	0.45973 0.25576 0.65614 -0.33500
F 	F 	0.24974 0.05487 0.67308 -0.36900
O 	O 	0.82453 0.23860 0.65007 -0.33200
O 	O 	0.65334 0.47464 0.66087 -0.35000
F 	F 	0.04236 0.23080 0.66342 -0.37300
F 	F 	0.63065 0.68905 0.67014 -0.37400
C 	C 	0.75650 0.56927 0.65925 0.42000
O 	O 	0.83512 0.58637 0.64148 -0.33100
C 	C 	0.88334 0.32403 0.66522 0.39600
C 	C 	0.50377 0.21481 0.67287 0.41500
O 	O 	0.60128 0.20502 0.66852 -0.35800
C 	C 	0.79265 0.64873 0.67976 -0.18700
C 	C 	0.01948 0.26235 0.68560 0.23400
C 	C 	0.71966 0.69741 0.68588 0.29900
C 	C 	0.31049 0.08671 0.69495 0.30900
C 	C 	0.43562 0.16768 0.69578 -0.19100
F 	F 	0.13485 0.18871 0.70539 -0.37200
F 	F 	0.12518 0.96486 0.71570 -0.34800
F 	F 	0.67227 0.80681 0.71336 -0.35100
C 	C 	0.73829 0.75459 0.70828 0.29700
C 	C 	0.06865 0.24282 0.70696 0.30900
C 	C 	0.24739 0.03867 0.71673 0.27000
C 	C 	0.49919 0.19359 0.71834 0.29700
F 	F 	0.86703 0.40956 0.71162 -0.30800
C 	C 	0.82656 0.75917 0.72514 -0.15800
F 	F 	0.62126 0.26869 0.71932 -0.33300
C 	C 	0.03907 0.26866 0.73010 -0.22800
C 	C 	0.30844 0.07272 0.73957 -0.15800
C 	C 	0.43626 0.14496 0.74006 0.28700
C 	C 	0.02772 0.19673 0.75085 0.38300
C 	C 	0.23715 0.06449 0.76169 0.38000
C 	C 	0.29221 0.50504 0.99852 0.01700
O 	O 	0.24153 0.15631 0.76980 -0.32800
O 	O 	0.78631 0.85745 0.75807 -0.29800
Ni	Ni	0.02476 0.89600 0.78936 1.12400
O 	O 	0.19826 0.97672 0.77609 -0.30500
F 	F 	0.49765 0.17527 0.76189 -0.31000
Ni	Ni	0.84758 0.00207 0.77987 1.12700
O 	O 	0.08237 0.24118 0.77198 -0.33500
Ni	Ni	0.13518 0.16009 0.79671 1.13500
F 	F 	0.43700 0.05180 0.81321 -0.33100
F 	F 	0.63924 0.57501 0.79335 -0.33800
O 	O 	0.84724 0.78102 0.79987 -0.29900
O 	O 	0.22155 0.11598 0.82317 -0.31100
F 	F 	0.73530 0.24148 0.80967 -0.30100
O 	O 	0.86536 0.14676 0.79797 -0.28000
C 	C 	0.20057 0.01289 0.82881 0.37100
O 	O 	0.09507 0.92226 0.82337 -0.33800
C 	C 	0.40736 0.03161 0.83735 0.29100
O 	O 	0.03959 0.19404 0.82180 -0.35900
F 	F 	0.48759 0.39969 0.82302 -0.33700
C 	C 	0.61062 0.59579 0.81613 0.28800
O 	O 	0.75546 0.89127 0.80793 -0.29000
C 	C 	0.76425 0.79967 0.81168 0.37500
C 	C 	0.28782 0.00137 0.84531 -0.19400
C 	C 	0.49788 0.04640 0.85473 0.30400
F 	F 	0.61487 0.08103 0.84734 -0.35000
C 	C 	0.53024 0.50643 0.83098 0.30400
F 	F 	0.69367 0.36911 0.84291 -0.34300
C 	C 	0.82557 0.30712 0.82584 0.30400
C 	C 	0.80582 0.37575 0.84223 0.28700
C 	C 	0.66338 0.70616 0.82516 -0.16400
C 	C 	0.25606 0.96842 0.86981 0.29700
C 	C 	0.47293 0.04824 0.87981 -0.20400
C 	C 	0.51112 0.52694 0.85545 -0.18000
C 	C 	0.61891 0.72632 0.84726 0.27900
C 	C 	0.03535 0.38635 0.84087 0.25300
F 	F 	0.65959 0.83267 0.85530 -0.35100
F 	F 	0.13813 0.92771 0.87742 -0.38400
C 	C 	0.54783 0.15497 0.89260 0.40500
O 	O 	0.52227 0.23390 0.88796 -0.35800
C 	C 	0.34871 0.98671 0.88691 0.29400
C 	C 	0.52917 0.46092 0.87445 0.42300
O 	O 	0.64023 0.48044 0.87860 -0.35800
C 	C 	0.53812 0.63601 0.86185 0.28600
C 	C 	0.01472 0.45481 0.85716 0.25400
F 	F 	0.15004 0.39864 0.83909 -0.36500
O 	O 	0.44149 0.39897 0.88987 -0.32900
O 	O 	0.82907 0.35091 0.89892 -0.36000
C 	C 	0.85244 0.43732 0.88536 0.39700
O 	O 	0.61352 0.16222 0.91239 -0.35200
F 	F 	0.31963 0.96738 0.91101 -0.40100
O 	O 	0.86317 0.52923 0.89555 -0.32900
F 	F 	0.50280 0.65592 0.88402 -0.37100
F 	F 	0.10676 0.52576 0.87242 -0.36700
Ni	Ni	0.46570 0.29777 0.91591 1.12200
Ni	Ni	0.71847 0.53188 0.91176 1.13200
C 	C 	0.51610 0.17325 0.95911 0.29600
O 	O 	0.43975 0.16837 0.94104 -0.32900
C 	C 	0.45445 0.97274 0.96518 0.03700
H 	H 	0.43362 0.95649 0.94583 0.10000
O 	O 	0.63175 0.25313 0.96004 -0.38500
O 	O 	0.43215 0.39117 0.94107 -0.35900
C 	C 	0.33022 0.54006 0.95488 0.01100
H 	H 	0.29387 0.53253 0.93642 0.08300
Ni	Ni	0.72979 0.31376 0.92940 1.12800
O 	O 	0.63327 0.38592 0.92475 -0.71400
H 	H 	0.62672 0.40421 0.94201 0.15600
C 	C 	0.49428 0.50210 0.94141 0.28000
O 	O 	0.57928 0.56148 0.92434 -0.31700
O 	O 	0.86568 0.44974 0.94773 -0.34300
O 	O 	0.81634 0.59196 0.94272 -0.34800
C 	C 	0.48067 0.07662 0.97540 -0.08500
H 	H 	0.44882 0.81498 0.97122 0.07000
H 	H 	0.15340 0.48400 0.97184 0.05300
C 	C 	0.45070 0.55814 0.95837 -0.04600
C 	C 	0.85593 0.53642 0.95656 0.26500
C 	C 	0.46855 0.89439 0.97933 -0.06200
C 	C 	0.24981 0.51045 0.97493 -0.04900
H 	H 	0.10135 0.64245 0.96514 0.06700
C 	C 	0.49877 0.57831 0.98229 0.00200
C 	C 	0.04913 0.65121 0.98004 -0.05700
H 	H 	0.59458 0.60264 0.98528 0.03800
C 	C 	0.86411 0.83486 0.74664 0.41500
C 	C 	0.89511 0.43824 0.86021 -0.14300
C 	C 	0.88390 0.65770 0.69611 0.31500
O 	O 	0.90163 0.42333 0.65933 -0.30600
O 	O 	0.91032 0.35419 0.60652 -0.33000
C 	C 	0.89537 0.70589 0.71922 0.31100
F 	F 	0.90054 0.15586 0.35606 -0.35900
F 	F 	0.89373 0.32915 0.37997 -0.36800
H 	H 	0.90170 0.69308 0.52000 0.06500
C 	C 	0.91563 0.68758 0.01673 0.02200
C 	C 	0.92011 0.59114 0.97949 0.00300
O 	O 	0.93189 0.82990 0.32445 -0.31600
Ni	Ni	0.92257 0.00215 0.28586 1.14500
C 	C 	0.93188 0.35413 0.71000 0.28000
C 	C 	0.92832 0.49299 0.50119 -0.06200
C 	C 	0.93656 0.30362 0.82694 -0.12800
C 	C 	0.94497 0.31247 0.68723 -0.12900
C 	C 	0.94389 0.44595 0.45885 -0.03100
C 	C 	0.94659 0.20965 0.81537 0.41700
O 	O 	0.94242 0.09181 0.74950 -0.31700
H 	H 	0.95248 0.70797 0.06562 0.09800
F 	F 	0.95659 0.36432 0.75356 -0.33300
F 	F 	0.96623 0.74625 0.21588 -0.35800
F 	F 	0.95936 0.61645 0.68986 -0.33800
H 	H 	0.96886 0.51648 0.51940 0.06200
C 	C 	0.96265 0.34990 0.35939 0.31100
C 	C 	0.96727 0.26152 0.34732 0.30100
H 	H 	0.96974 0.00448 0.81176 0.18300
O 	O 	0.97988 0.09156 0.31714 -0.30400
F 	F 	0.97575 0.09160 0.20497 -0.34300
C 	C 	0.97974 0.33302 0.73137 0.34700
F 	F 	0.97539 0.70285 0.73583 -0.33200
O 	O 	0.97805 0.88241 0.75380 -0.29800
C 	C 	0.98601 0.46188 0.48325 0.04300
O 	O 	0.99271 0.01571 0.79424 -0.71400
