data_crystal

_cell_length_a 20.13305
_cell_length_b 20.51620
_cell_length_c 22.07233
_cell_angle_alpha 95.48758
_cell_angle_beta  95.48785
_cell_angle_gamma 126.13246

_symmetry_space_group_name_	'P 1'
_symmetry_space_group_name_H-M	'P 1'

loop_
_symmetry_equiv_pos_as_xyz
  x,y,z

loop_
_atom_site_label
_atom_site_type_symbol
_atom_site_fract_x
_atom_site_fract_y
_atom_site_fract_z
_atom_site_charge
C 	C 	0.94347 0.04365 0.99346 0.09700
N 	N 	0.02731 0.08830 0.99489 -0.12100
C 	C 	0.06425 0.05023 0.99490 0.10300
C 	C 	0.05230 0.00006 0.46445 0.12500
N 	N 	0.01296 0.03523 0.45878 -0.13100
Cu	Cu	0.61372 0.22616 0.99886 0.90500
Cu	Cu	0.68144 0.24554 0.86823 0.86500
Cu	Cu	0.64542 0.35598 0.92402 0.88500
Cu	Cu	0.64728 0.39088 0.06309 0.90300
C 	C 	0.64311 0.27238 0.13258 0.31400
O 	O 	0.49494 0.18217 0.00453 -0.35000
C 	C 	0.63756 0.32462 0.79155 0.31200
O 	O 	0.68869 0.35608 0.00607 -0.61500
O 	O 	0.59765 0.23778 0.91205 -0.64900
O 	O 	0.65946 0.16360 0.98589 -0.38400
O 	O 	0.75620 0.25752 0.93550 -0.45100
O 	O 	0.67497 0.34978 0.13187 -0.38100
O 	O 	0.70161 0.47314 0.93552 -0.38200
C 	C 	0.72191 0.52283 0.98801 0.26300
C 	C 	0.47073 0.22923 0.00795 0.32200
O 	O 	0.52301 0.30728 0.00579 -0.37900
O 	O 	0.68559 0.49522 0.03573 -0.34300
O 	O 	0.64044 0.22632 0.08489 -0.34500
C 	C 	0.73087 0.19827 0.96681 0.31300
O 	O 	0.61444 0.35111 0.83571 -0.38300
O 	O 	0.63769 0.26074 0.79435 -0.41900
H 	H 	0.75017 0.38624 0.01500 0.17600
H 	H 	0.53930 0.20058 0.88864 0.17200
Cu	Cu	0.75367 0.32719 0.42878 0.92500
Cu	Cu	0.77798 0.29208 0.56710 0.87100
Cu	Cu	0.63783 0.29589 0.52217 0.89700
Cu	Cu	0.58058 0.29705 0.38703 0.89900
C 	C 	0.68200 0.29204 0.29974 0.31700
O 	O 	0.79587 0.44294 0.41782 -0.36300
C 	C 	0.72255 0.35086 0.65538 0.31800
O 	O 	0.62545 0.25656 0.43577 -0.63300
O 	O 	0.75882 0.35445 0.51815 -0.64200
O 	O 	0.81368 0.27596 0.43366 -0.36500
O 	O 	0.74128 0.20175 0.50444 -0.44000
O 	O 	0.60697 0.26746 0.30851 -0.38100
O 	O 	0.51807 0.23126 0.52025 -0.37500
C 	C 	0.46359 0.22089 0.47436 0.31000
C 	C 	0.75080 0.46941 0.42488 0.30200
O 	O 	0.67631 0.42099 0.43831 -0.38500
O 	O 	0.48809 0.26747 0.43195 -0.38500
O 	O 	0.73153 0.28921 0.34139 -0.36500
C 	C 	0.78525 0.21241 0.46125 0.30500
O 	O 	0.65330 0.32030 0.61449 -0.37800
O 	O 	0.78728 0.35829 0.63834 -0.43200
H 	H 	0.59420 0.19623 0.42514 0.16700
H 	H 	0.79365 0.41406 0.53541 0.17600
C 	C 	0.65578 0.35929 0.74131 -0.11600
C 	C 	0.72772 0.37396 0.71556 -0.12600
H 	H 	0.63488 0.39582 0.73072 0.08500
H 	H 	0.78526 0.39886 0.74778 0.05800
C 	C 	0.70010 0.30124 0.24294 -0.11100
C 	C 	0.63466 0.24720 0.18696 -0.10700
H 	H 	0.76525 0.33501 0.23798 0.08600
H 	H 	0.59283 0.18162 0.18685 0.08600
C 	C 	0.78737 0.55508 0.42727 -0.10500
C 	C 	0.81413 0.62605 0.43004 0.05800
C 	C 	0.84533 0.70936 0.43430 -0.00700
C 	C 	0.88768 0.02736 0.44425 -0.04100
C 	C 	0.86050 0.06664 0.44376 -0.00100
C 	C 	0.83337 0.11694 0.44595 0.05100
C 	C 	0.81174 0.16095 0.45082 -0.10900
C 	C 	0.37699 0.17313 0.47891 -0.10200
C 	C 	0.30327 0.13412 0.47940 0.06200
C 	C 	0.21632 0.08880 0.47664 -0.00400
C 	C 	0.14159 0.04925 0.47202 -0.01800
C 	C 	0.76678 0.60844 0.98749 -0.10000
C 	C 	0.80379 0.68055 0.98774 0.04700
C 	C 	0.90285 0.08212 0.99070 -0.02400
C 	C 	0.86535 0.11098 0.98740 -0.02400
C 	C 	0.81894 0.14207 0.98211 0.05600
C 	C 	0.77852 0.16764 0.97608 -0.12900
C 	C 	0.38377 0.19291 0.00407 -0.12800
C 	C 	0.31110 0.16389 0.00141 0.13900
C 	C 	0.22591 0.12904 0.99885 -0.08300
C 	C 	0.15247 0.09595 0.99696 0.00700
C 	C 	0.87609 0.78157 0.43902 -0.01700
C 	C 	0.84730 0.76504 0.98870 -0.01000
C 	C 	0.88585 0.83752 0.98993 -0.02700
C 	C 	0.92803 0.98794 0.44729 0.14200
N 	N 	0.01763 0.96826 0.99325 -0.11400
C 	C 	0.93428 0.92394 0.99168 0.11500
N 	N 	0.89708 0.96149 0.99183 -0.12500
N 	N 	0.88210 0.90451 0.44097 -0.13200
C 	C 	0.92223 0.86947 0.44622 0.11800
N 	N 	0.00698 0.91751 0.45805 -0.11500
