data_crystal

_cell_length_a 26.24136
_cell_length_b 26.52855
_cell_length_c 45.12482
_cell_angle_alpha 95.49705
_cell_angle_beta  95.49651
_cell_angle_gamma 125.83630

_symmetry_space_group_name_	'P 1'
_symmetry_space_group_name_H-M	'P 1'

loop_
_symmetry_equiv_pos_as_xyz
  x,y,z

loop_
_atom_site_label
_atom_site_type_symbol
_atom_site_fract_x
_atom_site_fract_y
_atom_site_fract_z
_atom_site_charge
C 	C 	0.95523 0.02581 0.99428 0.23700
C 	C 	0.04552 0.02673 0.98508 0.23300
C 	C 	0.01748 0.05809 0.98827 -0.12800
C 	C 	0.01189 0.04121 0.47281 -0.13100
H 	H 	0.03799 0.09067 0.47099 0.15300
C 	C 	0.87188 0.08494 0.49763 0.24800
C 	C 	0.87534 0.08403 0.44399 0.25100
C 	C 	0.90112 0.05046 0.44482 0.29500
C 	C 	0.91319 0.03476 0.47217 -0.15700
C 	C 	0.89772 0.05144 0.49848 0.29300
F 	F 	0.90928 0.03659 0.52503 -0.35000
F 	F 	0.72921 0.04682 0.46067 -0.32800
F 	F 	0.91527 0.03394 0.41919 -0.34000
C 	C 	0.22209 0.10745 0.50122 0.24900
C 	C 	0.15665 0.07352 0.50149 0.29500
C 	C 	0.11294 0.05181 0.47433 -0.16000
C 	C 	0.13515 0.06475 0.44693 0.29500
F 	F 	0.26405 0.12826 0.52758 -0.33100
F 	F 	0.30526 0.06048 0.47442 -0.32900
C 	C 	0.88310 0.10189 0.02695 0.25100
C 	C 	0.90416 0.07079 0.97057 0.29500
C 	C 	0.92505 0.05815 0.99670 -0.15800
C 	C 	0.91490 0.07430 0.02496 0.29500
F 	F 	0.93555 0.06286 0.05040 -0.34600
F 	F 	0.65858 0.08369 0.98847 -0.36400
F 	F 	0.72655 0.03554 0.99316 -0.32900
F 	F 	0.91353 0.05512 0.94315 -0.34900
C 	C 	0.11277 0.06182 0.98116 -0.15400
C 	C 	0.12795 0.04304 0.95533 0.28700
F 	F 	0.30055 0.08050 0.01587 -0.32800
F 	F 	0.14819 0.12935 0.02948 -0.34700
F 	F 	0.09317 0.04379 0.42056 -0.34200
H 	H 	0.04411 0.10749 0.98627 0.15700
C 	C 	0.86136 0.10204 0.47047 -0.00600
F 	F 	0.86468 0.09978 0.41756 -0.32700
C 	C 	0.77153 0.11095 0.46604 0.23400
F 	F 	0.68520 0.11848 0.46438 -0.36600
F 	F 	0.85809 0.10182 0.52329 -0.33500
C 	C 	0.34142 0.12345 0.47406 0.23400
C 	C 	0.24424 0.11980 0.47378 -0.00600
F 	F 	0.43373 0.12592 0.47441 -0.36700
C 	C 	0.20060 0.09860 0.44666 0.25000
C 	C 	0.86138 0.11360 0.00074 -0.00600
C 	C 	0.87252 0.09849 0.97259 0.24800
C 	C 	0.82530 0.13992 0.00252 0.00600
F 	F 	0.85190 0.10996 0.94715 -0.33600
C 	C 	0.72352 0.12383 0.99511 0.31500
C 	C 	0.75817 0.09918 0.99725 0.23200
F 	F 	0.87281 0.11670 0.05428 -0.32800
C 	C 	0.19186 0.07022 0.95362 0.25100
C 	C 	0.24107 0.11716 0.97748 -0.00800
C 	C 	0.22607 0.13868 0.00242 0.25100
C 	C 	0.16220 0.11072 0.00441 0.29400
C 	C 	0.33576 0.12205 0.99795 0.23300
F 	F 	0.20591 0.04962 0.92924 -0.32800
C 	C 	0.83749 0.14042 0.47002 0.00600
C 	C 	0.74913 0.14755 0.46814 0.31700
C 	C 	0.31312 0.15485 0.47347 0.00600
C 	C 	0.40699 0.15691 0.47421 0.31700
F 	F 	0.27346 0.18529 0.02521 -0.33000
F 	F 	0.42779 0.13334 0.02148 -0.36000
F 	F 	0.22167 0.11042 0.42003 -0.32700
C 	C 	0.30760 0.13985 0.97767 0.00400
C 	C 	0.40054 0.14823 0.00041 0.31500
C 	C 	0.75586 0.18958 0.99829 -0.21300
C 	C 	0.85767 0.20566 0.00720 0.23200
C 	C 	0.88086 0.20672 0.47498 0.23300
C 	C 	0.79262 0.21403 0.47434 -0.21000
C 	C 	0.35073 0.21987 0.47294 0.23500
O 	O 	0.66527 0.19125 0.00065 -0.32000
C 	C 	0.43767 0.19167 0.98207 -0.20300
C 	C 	0.44473 0.22202 0.47369 -0.20400
C 	C 	0.34381 0.18140 0.95860 0.23600
F 	F 	0.13559 0.06148 0.52810 -0.34300
O 	O 	0.53205 0.19764 0.99802 -0.30900
O 	O 	0.72840 0.23633 0.49884 -0.38700
F 	F 	0.94473 0.23558 0.47854 -0.32900
H 	H 	0.57061 0.21118 0.84849 0.06900
C 	C 	0.71988 0.21502 0.99152 0.39400
H 	H 	0.56621 0.22601 0.79542 0.08500
C 	C 	0.85857 0.24343 0.47713 0.31600
H 	H 	0.57976 0.22273 0.94591 0.20400
H 	H 	0.61918 0.24202 0.45241 0.20300
C 	C 	0.82312 0.23045 0.00517 0.31600
C 	C 	0.40840 0.20671 0.96055 0.31300
F 	F 	0.32378 0.25065 0.47260 -0.32400
C 	C 	0.76961 0.25236 0.48067 0.39400
C 	C 	0.50762 0.22485 0.98704 0.37900
O 	O 	0.54889 0.25349 0.49538 -0.33500
F 	F 	0.31667 0.19811 0.93858 -0.32600
C 	C 	0.41628 0.25338 0.47307 0.32000
H 	H 	0.58740 0.22240 0.30299 0.08800
C 	C 	0.51379 0.25730 0.47400 0.40200
Cu	Cu	0.62613 0.23679 0.00129 0.94000
Cu	Cu	0.68221 0.24113 0.93865 0.90000
H 	H 	0.57224 0.27083 0.59059 0.07700
F 	F 	0.92264 0.24542 0.01291 -0.32900
H 	H 	0.59098 0.24136 0.35800 0.05800
O 	O 	0.62322 0.24696 0.95839 -0.63200
O 	O 	0.64204 0.24389 0.04438 -0.32100
O 	O 	0.64651 0.24847 0.90190 -0.37500
C 	C 	0.63289 0.24835 0.31851 -0.04700
C 	C 	0.04382 0.01357 0.47446 0.24000
C 	C 	0.60100 0.25840 0.84351 0.03300
C 	C 	0.63493 0.25918 0.34966 0.03400
H 	H 	0.55907 0.27887 0.64380 0.09000
O 	O 	0.73908 0.25668 0.97367 -0.39000
C 	C 	0.59824 0.26681 0.81344 -0.04800
F 	F 	0.44261 0.24604 0.94163 -0.37000
C 	C 	0.68837 0.27151 0.27527 0.01000
C 	C 	0.68965 0.27344 0.30735 0.06700
C 	C 	0.68564 0.27077 0.24840 0.04200
H 	H 	0.73996 0.26587 0.14928 0.09200
C 	C 	0.68049 0.27079 0.21699 0.04100
C 	C 	0.67434 0.27147 0.19024 0.01000
C 	C 	0.70297 0.26960 0.13987 -0.04500
O 	O 	0.64526 0.28753 0.46163 -0.63800
C 	C 	0.66455 0.27253 0.15843 0.06600
H 	H 	0.72415 0.27009 0.09494 0.07400
C 	C 	0.69390 0.27187 0.10907 0.03400
C 	C 	0.61692 0.27744 0.14611 -0.04500
H 	H 	0.58696 0.27956 0.16033 0.09100
C 	C 	0.64636 0.27718 0.09670 -0.05200
C 	C 	0.60777 0.27973 0.11541 0.03700
Cu	Cu	0.74399 0.29737 0.53141 0.90000
C 	C 	0.63686 0.27998 0.06429 0.29700
O 	O 	0.53975 0.29730 0.45512 -0.33200
C 	C 	0.69379 0.29501 0.36992 -0.05500
H 	H 	0.57035 0.28296 0.10614 0.08100
O 	O 	0.54581 0.28426 0.98411 -0.34500
C 	C 	0.94639 0.00521 0.47376 0.23700
F 	F 	0.85495 0.29414 0.00947 -0.36800
C 	C 	0.65342 0.30070 0.89810 0.29600
Cu	Cu	0.64129 0.30398 0.50320 0.91400
F 	F 	0.08065 0.99735 0.93224 -0.34400
O 	O 	0.79333 0.30461 0.46980 -0.32000
C 	C 	0.92096 0.96207 0.99709 -0.12400
C 	C 	0.94814 0.93004 0.99309 0.23900
C 	C 	0.01043 0.96250 0.98709 -0.12400
H 	H 	0.87301 0.93728 0.00197 0.16000
H 	H 	0.03175 0.93798 0.98422 0.16100
C 	C 	0.01016 0.94971 0.47680 -0.12500
C 	C 	0.94483 0.91360 0.47812 0.24000
C 	C 	0.91293 0.94145 0.47661 -0.12100
H 	H 	0.03480 0.92821 0.47773 0.15500
H 	H 	0.86244 0.91371 0.47765 0.15900
Cu	Cu	0.67019 0.34077 0.96398 0.91300
Cu	Cu	0.62470 0.35273 0.02088 0.91800
O 	O 	0.67823 0.33532 0.00578 -0.64000
O 	O 	0.61007 0.30707 0.05562 -0.33900
O 	O 	0.72001 0.43181 0.97267 -0.32900
C 	C 	0.70905 0.46413 0.99165 0.38900
O 	O 	0.66189 0.43536 0.00702 -0.32500
O 	O 	0.67733 0.34789 0.92121 -0.33800
H 	H 	0.72289 0.36195 0.01712 0.19900
Cu	Cu	0.74532 0.34119 0.46567 0.93900
Cu	Cu	0.62414 0.33451 0.44239 0.91600
C 	C 	0.69670 0.31524 0.40193 0.29500
O 	O 	0.78090 0.43258 0.46478 -0.31000
C 	C 	0.68444 0.33121 0.56983 0.29900
O 	O 	0.73612 0.35098 0.50840 -0.63200
O 	O 	0.66994 0.34349 0.40812 -0.33900
C 	C 	0.75159 0.45614 0.47409 0.38000
O 	O 	0.69161 0.41785 0.47709 -0.34300
O 	O 	0.73775 0.31848 0.42296 -0.32000
O 	O 	0.63642 0.30611 0.54666 -0.34400
O 	O 	0.73742 0.33806 0.56645 -0.37600
H 	H 	0.76054 0.39528 0.51929 0.20600
C 	C 	0.64415 0.31059 0.86698 -0.05600
C 	C 	0.63837 0.32738 0.80659 0.06400
C 	C 	0.67906 0.37995 0.83005 -0.04400
C 	C 	0.68191 0.37169 0.86016 0.03200
C 	C 	0.64215 0.33474 0.77549 0.00700
C 	C 	0.64489 0.34028 0.74938 0.03800
C 	C 	0.64912 0.34567 0.71875 0.03900
C 	C 	0.65353 0.34922 0.69257 0.00600
C 	C 	0.65966 0.35204 0.66129 0.06500
C 	C 	0.60616 0.30980 0.63825 -0.04800
C 	C 	0.61366 0.30533 0.60806 0.03500
C 	C 	0.67494 0.34294 0.60074 -0.06000
C 	C 	0.72793 0.38779 0.62372 0.03500
C 	C 	0.72027 0.39217 0.65388 -0.04900
H 	H 	0.70993 0.42699 0.82492 0.09300
H 	H 	0.71511 0.41249 0.87800 0.09300
H 	H 	0.77526 0.41806 0.61833 0.06900
H 	H 	0.76179 0.42535 0.67156 0.08700
C 	C 	0.74821 0.30648 0.32760 -0.04500
C 	C 	0.75030 0.31705 0.35883 0.04100
H 	H 	0.79230 0.32582 0.31914 0.09400
H 	H 	0.79604 0.34469 0.37424 0.08400
C 	C 	0.79267 0.61742 0.50120 0.23700
C 	C 	0.83340 0.65291 0.48163 0.00400
C 	C 	0.85110 0.62499 0.46115 0.23500
C 	C 	0.82610 0.56129 0.45931 0.31600
C 	C 	0.78389 0.52509 0.47836 -0.20200
C 	C 	0.76859 0.55404 0.49983 0.31400
C 	C 	0.85688 0.71910 0.48223 -0.00600
F 	F 	0.89181 0.65943 0.44269 -0.32700
F 	F 	0.73024 0.52067 0.51930 -0.37000
C 	C 	0.90272 0.76682 0.50680 0.25000
C 	C 	0.92868 0.83014 0.50626 0.29300
C 	C 	0.90995 0.84641 0.48085 -0.15500
C 	C 	0.86237 0.79843 0.45677 0.29400
C 	C 	0.83559 0.73500 0.45757 0.25100
F 	F 	0.92329 0.75195 0.53085 -0.32500
F 	F 	0.84378 0.81349 0.43213 -0.34600
F 	F 	0.97327 0.87595 0.53006 -0.34100
F 	F 	0.78997 0.68902 0.43408 -0.32600
F 	F 	0.77576 0.64416 0.52128 -0.32300
F 	F 	0.84105 0.53420 0.43826 -0.36000
F 	F 	0.90121 0.30755 0.48322 -0.36400
F 	F 	0.45245 0.31658 0.47328 -0.35400
C 	C 	0.78460 0.63721 0.01965 0.23800
C 	C 	0.81017 0.66377 0.99458 0.00400
C 	C 	0.80345 0.62498 0.96871 0.23500
C 	C 	0.76994 0.55988 0.96754 0.31700
C 	C 	0.74475 0.53311 0.99278 -0.19600
C 	C 	0.75311 0.57249 0.01900 0.31600
C 	C 	0.84383 0.73222 0.99534 -0.00700
F 	F 	0.82917 0.65044 0.94459 -0.32800
F 	F 	0.73146 0.54820 0.04400 -0.36600
C 	C 	0.90206 0.77667 0.01554 0.25100
C 	C 	0.93491 0.84136 0.01557 0.29300
C 	C 	0.91096 0.86208 0.99467 -0.15500
C 	C 	0.85254 0.81758 0.97456 0.29400
C 	C 	0.81862 0.75306 0.97526 0.25100
F 	F 	0.92717 0.75704 0.03486 -0.32300
F 	F 	0.82936 0.83682 0.95392 -0.34700
F 	F 	0.99022 0.88397 0.03578 -0.34700
F 	F 	0.76155 0.71063 0.95619 -0.32300
F 	F 	0.79023 0.67419 0.04465 -0.32000
F 	F 	0.76075 0.52270 0.94163 -0.36800
