data_crystal

_cell_length_a 16.30230
_cell_length_b 14.01880
_cell_length_c 35.85804
_cell_angle_alpha 90.97292
_cell_angle_beta  91.27539
_cell_angle_gamma 111.24394

_symmetry_space_group_name_	'P 1'
_symmetry_space_group_name_H-M	'P 1'

loop_
_symmetry_equiv_pos_as_xyz
  x,y,z

loop_
_atom_site_label
_atom_site_type_symbol
_atom_site_fract_x
_atom_site_fract_y
_atom_site_fract_z
_atom_site_charge
Ni	Ni	0.75033 0.33773 0.89209 1.09900
O 	O 	0.64558 0.25803 0.85762 -0.70800
Ni	Ni	0.54732 0.27427 0.88545 1.10300
O 	O 	0.83518 0.30781 0.85640 -0.35900
O 	O 	0.75754 0.13398 0.85603 -0.39400
O 	O 	0.75434 0.45790 0.85969 -0.39500
Ni	Ni	0.62255 0.11301 0.85140 1.06300
O 	O 	0.77425 0.45887 0.97335 -0.40800
O 	O 	0.61231 0.08418 0.90735 -0.40100
O 	O 	0.45401 0.20964 0.84572 -0.38300
O 	O 	0.64928 0.33398 0.92342 -0.70300
O 	O 	0.85539 0.42961 0.92517 -0.36700
O 	O 	0.46208 0.32597 0.91319 -0.36500
O 	O 	0.56684 0.48373 0.91416 -0.41700
Ni	Ni	0.67383 0.47292 0.94316 1.07600
H 	H 	0.64904 0.28917 0.83285 0.15500
H 	H 	0.64468 0.28747 0.94437 0.16300
C 	C 	0.54559 0.08831 0.92631 0.28000
O 	O 	0.76225 0.56910 0.90808 -0.38700
C 	C 	0.82390 0.21443 0.84424 0.26200
C 	C 	0.43852 0.11669 0.83223 0.27600
C 	C 	0.76719 0.55038 0.87242 0.30100
C 	C 	0.48826 0.42279 0.92324 0.27700
C 	C 	0.85018 0.46972 0.95850 0.30200
O 	O 	0.49818 0.14031 0.91414 -0.36400
O 	O 	0.48633 0.06168 0.84333 -0.39600
Ni	Ni	0.56865 0.29857 0.55805 1.10000
O 	O 	0.67155 0.31546 0.52335 -0.69600
Ni	Ni	0.75301 0.27327 0.55608 1.10000
O 	O 	0.52218 0.39534 0.52993 -0.37200
O 	O 	0.66005 0.51517 0.52970 -0.40900
O 	O 	0.48870 0.17826 0.52420 -0.36300
Ni	Ni	0.73666 0.44808 0.50249 1.07600
O 	O 	0.44752 0.09691 0.59246 -0.40200
O 	O 	0.84300 0.51663 0.53857 -0.38300
O 	O 	0.86787 0.31951 0.52542 -0.35300
O 	O 	0.64160 0.23796 0.58754 -0.69800
O 	O 	0.46729 0.26790 0.59402 -0.37600
O 	O 	0.80637 0.20103 0.59385 -0.35500
O 	O 	0.68385 0.05548 0.58913 -0.40100
Ni	Ni	0.57196 0.09233 0.59052 1.06500
H 	H 	0.65187 0.26556 0.50218 0.15900
H 	H 	0.65491 0.27040 0.61280 0.15000
C 	C 	0.84891 0.49604 0.57392 0.30200
O 	O 	0.56228 0.06959 0.53438 -0.40700
C 	C 	0.57622 0.48578 0.52030 0.27300
C 	C 	0.87707 0.36886 0.49340 0.27500
C 	C 	0.51030 0.10036 0.51352 0.28200
C 	C 	0.75725 0.11134 0.60691 0.26300
C 	C 	0.42764 0.17405 0.60611 0.27000
O 	O 	0.80154 0.40673 0.58735 -0.39300
O 	O 	0.80881 0.37900 0.47617 -0.40300
Ni	Ni	0.00930 0.95593 0.76780 1.08200
O 	O 	0.98715 0.84532 0.72763 -0.68200
Ni	Ni	0.03951 0.92902 0.68426 1.08700
O 	O 	0.95538 0.84469 0.80569 -0.34600
O 	O 	0.82658 0.78873 0.77084 -0.41300
O 	O 	0.13489 0.95778 0.77774 -0.38900
Ni	Ni	0.86230 0.77656 0.71581 1.06400
O 	O 	0.09427 0.21335 0.78146 -0.40500
O 	O 	0.83702 0.90525 0.70143 -0.41400
O 	O 	0.02655 0.80685 0.64950 -0.38800
O 	O 	0.03695 0.04203 0.72174 -0.70600
O 	O 	0.03070 0.06138 0.80925 -0.37800
O 	O 	0.12622 0.02448 0.64794 -0.35500
O 	O 	0.18043 0.18074 0.67727 -0.39100
Ni	Ni	0.13357 0.17307 0.73113 1.06900
H 	H 	0.01643 0.79633 0.73340 0.13400
H 	H 	0.98526 0.06123 0.71698 0.15500
C 	C 	0.86880 0.95425 0.67083 0.28100
O 	O 	0.21908 0.10663 0.74953 -0.40800
C 	C 	0.87444 0.77920 0.79975 0.26600
C 	C 	0.94800 0.73118 0.64780 0.29100
C 	C 	0.20682 0.04153 0.77686 0.29500
C 	C 	0.19419 0.10512 0.65972 0.27400
C 	C 	0.03006 0.15075 0.80097 0.25600
O 	O 	0.93587 0.94258 0.65489 -0.35100
O 	O 	0.87822 0.74581 0.66119 -0.40200
Ni	Ni	0.21871 0.67209 0.38917 1.09900
O 	O 	0.32343 0.73301 0.35529 -0.70500
Ni	Ni	0.42216 0.72790 0.38752 1.10200
O 	O 	0.13674 0.68683 0.34755 -0.36800
O 	O 	0.21543 0.85943 0.34331 -0.39700
O 	O 	0.21274 0.53699 0.36513 -0.40500
Ni	Ni	0.34874 0.87396 0.34178 1.06300
O 	O 	0.18877 0.57688 0.47336 -0.41300
O 	O 	0.36248 0.93088 0.39561 -0.40100
O 	O 	0.51665 0.77436 0.34872 -0.37300
O 	O 	0.32017 0.68703 0.42407 -0.69800
O 	O 	0.11092 0.59832 0.42156 -0.37500
O 	O 	0.50482 0.68554 0.42176 -0.36600
O 	O 	0.39623 0.53080 0.42481 -0.41300
Ni	Ni	0.29375 0.55768 0.45008 1.07300
H 	H 	0.31793 0.69030 0.33242 0.15400
H 	H 	0.32646 0.74237 0.44266 0.15600
C 	C 	0.42559 0.92847 0.41850 0.28200
O 	O 	0.20588 0.44336 0.41736 -0.39000
C 	C 	0.14609 0.77638 0.33362 0.25000
C 	C 	0.52983 0.85798 0.32945 0.26900
C 	C 	0.18654 0.44965 0.38201 0.30800
C 	C 	0.47687 0.59142 0.43338 0.27200
C 	C 	0.11391 0.55612 0.45429 0.30200
O 	O 	0.47330 0.87362 0.41028 -0.36700
O 	O 	0.48427 0.91872 0.33610 -0.39400
Ni	Ni	0.41324 0.71312 0.05780 1.10100
O 	O 	0.29858 0.68798 0.02828 -0.70200
Ni	Ni	0.22696 0.72658 0.06630 1.09900
O 	O 	0.45560 0.62088 0.02471 -0.37100
O 	O 	0.32226 0.49203 0.02657 -0.41100
O 	O 	0.47889 0.83279 0.02369 -0.36200
Ni	Ni	0.23090 0.55225 0.00765 1.07200
O 	O 	0.53752 0.91980 0.09115 -0.40300
O 	O 	0.14003 0.48226 0.04744 -0.39100
O 	O 	0.10331 0.67184 0.04025 -0.36200
O 	O 	0.34877 0.77144 0.09250 -0.70300
O 	O 	0.52529 0.75125 0.08925 -0.37800
O 	O 	0.18317 0.79734 0.10801 -0.36400
O 	O 	0.29677 0.94839 0.09977 -0.40400
Ni	Ni	0.41197 0.91904 0.09458 1.06500
H 	H 	0.30897 0.73672 0.00773 0.16000
H 	H 	0.34660 0.74218 0.11757 0.15200
C 	C 	0.14900 0.50335 0.08356 0.29800
O 	O 	0.40288 0.93579 0.03859 -0.40800
C 	C 	0.40255 0.52879 0.01414 0.26400
C 	C 	0.08759 0.62967 0.00613 0.24900
C 	C 	0.45220 0.90825 0.01563 0.27700
C 	C 	0.23120 0.89137 0.11974 0.26000
C 	C 	0.56350 0.84566 0.10259 0.27500
O 	O 	0.19534 0.59596 0.09684 -0.39300
O 	O 	0.15074 0.61908 0.98640 -0.40200
Ni	Ni	0.95517 0.03257 0.27187 1.09900
O 	O 	0.98794 0.15019 0.23558 -0.70900
Ni	Ni	0.94740 0.07515 0.18758 1.09900
O 	O 	0.00190 0.13672 0.31489 -0.36900
O 	O 	0.13572 0.19005 0.28755 -0.41700
O 	O 	0.82645 0.02503 0.27607 -0.37200
Ni	Ni	0.11487 0.21871 0.23194 1.05900
O 	O 	0.86703 0.77340 0.27433 -0.40900
O 	O 	0.14464 0.09323 0.21592 -0.41700
O 	O 	0.97026 0.20273 0.15622 -0.34500
O 	O 	0.93885 0.95519 0.22265 -0.68600
O 	O 	0.92769 0.91963 0.30898 -0.37500
O 	O 	0.87076 0.98643 0.14484 -0.35100
O 	O 	0.81195 0.82663 0.16719 -0.38800
Ni	Ni	0.84113 0.82216 0.22337 1.07300
H 	H 	0.95793 0.19898 0.24051 0.16300
H 	H 	0.99156 0.93684 0.22060 0.14700
C 	C 	0.11868 0.04829 0.18300 0.28900
O 	O 	0.74950 0.88155 0.23996 -0.40200
C 	C 	0.08421 0.19984 0.31399 0.27200
C 	C 	0.04983 0.27679 0.15863 0.24300
C 	C 	0.75721 0.93866 0.27049 0.28300
C 	C 	0.80158 0.90611 0.15238 0.27800
C 	C 	0.92866 0.83149 0.29785 0.31700
O 	O 	0.05620 0.06413 0.16386 -0.37500
O 	O 	0.11564 0.26302 0.17758 -0.39600
C 	C 	0.07429 0.35567 0.13113 -0.02900
C 	C 	0.10551 0.42321 0.10916 -0.05500
C 	C 	0.71966 0.89165 0.13415 -0.04600
C 	C 	0.64854 0.87308 0.11968 -0.04200
C 	C 	0.16375 0.98984 0.16556 -0.06600
C 	C 	0.19541 0.94208 0.14620 -0.04500
C 	C 	0.61047 0.89722 0.30877 -0.03700
C 	C 	0.67847 0.92144 0.29175 -0.03800
C 	C 	0.14743 0.35799 0.36013 -0.05000
C 	C 	0.11680 0.28371 0.34001 -0.05000
C 	C 	0.06825 0.78987 0.31889 -0.02200
C 	C 	0.00287 0.80433 0.30839 -0.11200
C 	C 	0.44949 0.99447 0.45103 -0.04900
C 	C 	0.47478 0.04571 0.47922 -0.03900
C 	C 	0.03316 0.48767 0.46965 -0.07900
C 	C 	0.96381 0.43089 0.48139 0.00800
C 	C 	0.54980 0.53392 0.49013 -0.06800
C 	C 	0.52100 0.56536 0.46399 -0.06200
C 	C 	0.79510 0.06157 0.63282 -0.04500
C 	C 	0.82606 0.01349 0.65229 -0.05300
C 	C 	0.34562 0.15035 0.62513 -0.04300
C 	C 	0.27634 0.12887 0.64080 -0.04100
C 	C 	0.93005 0.64915 0.62093 -0.03700
C 	C 	0.89804 0.57808 0.59924 -0.04200
C 	C 	0.92948 0.52945 0.97820 -0.05200
C 	C 	0.99947 0.57834 0.99269 0.01000
C 	C 	0.48713 0.96990 0.98395 -0.03700
C 	C 	0.51549 0.02323 0.95760 -0.03800
C 	C 	0.44953 0.45162 0.95473 -0.07100
C 	C 	0.42435 0.48238 0.98201 -0.05600
C 	C 	0.96055 0.18148 0.81513 -0.03900
C 	C 	0.89839 0.19787 0.82789 -0.04200
C 	C 	0.28430 0.04529 0.79752 -0.04300
C 	C 	0.35484 0.06717 0.81346 -0.03900
C 	C 	0.83557 0.70186 0.82643 -0.04000
C 	C 	0.80371 0.63433 0.84802 -0.04500
