data_crystal

_cell_length_a 25.50724
_cell_length_b 22.05022
_cell_length_c 49.65545
_cell_angle_alpha 90.57444
_cell_angle_beta  91.23898
_cell_angle_gamma 110.78408

_symmetry_space_group_name_	'P 1'
_symmetry_space_group_name_H-M	'P 1'

loop_
_symmetry_equiv_pos_as_xyz
  x,y,z

loop_
_atom_site_label
_atom_site_type_symbol
_atom_site_fract_x
_atom_site_fract_y
_atom_site_fract_z
_atom_site_charge
Ni	Ni	0.70237 0.29898 0.88538 1.09900
O 	O 	0.63990 0.23842 0.86084 -0.70700
Ni	Ni	0.57257 0.24643 0.87774 1.10200
O 	O 	0.76189 0.27960 0.86341 -0.37400
O 	O 	0.71882 0.17030 0.86945 -0.40700
O 	O 	0.70246 0.37000 0.85904 -0.39900
Ni	Ni	0.63284 0.14811 0.86218 1.06300
O 	O 	0.70738 0.38316 0.94175 -0.41200
O 	O 	0.62409 0.14329 0.90296 -0.41800
O 	O 	0.51585 0.19219 0.84968 -0.38100
O 	O 	0.63426 0.29519 0.90532 -0.70000
O 	O 	0.76394 0.36589 0.90876 -0.38000
O 	O 	0.51378 0.28004 0.89333 -0.36600
O 	O 	0.57647 0.38337 0.89240 -0.42000
Ni	Ni	0.64383 0.38354 0.91657 1.07700
H 	H 	0.64260 0.25321 0.84198 0.15500
H 	H 	0.63219 0.26917 0.92164 0.16600
C 	C 	0.57674 0.13930 0.91394 0.31500
O 	O 	0.70169 0.44372 0.89159 -0.39800
C 	C 	0.75864 0.21939 0.85858 0.27300
C 	C 	0.51415 0.13316 0.84305 0.27700
C 	C 	0.71019 0.42986 0.86664 0.30600
C 	C 	0.52593 0.34263 0.89741 0.30400
C 	C 	0.75709 0.38550 0.93337 0.31700
O 	O 	0.54475 0.16850 0.90308 -0.36200
O 	O 	0.54720 0.10684 0.85579 -0.40900
Ni	Ni	0.64013 0.34666 0.57398 1.10000
O 	O 	0.70032 0.35492 0.54617 -0.70200
Ni	Ni	0.75906 0.33624 0.56848 1.10000
O 	O 	0.59935 0.39533 0.55170 -0.37700
O 	O 	0.68155 0.47921 0.54615 -0.40600
O 	O 	0.58786 0.26221 0.55532 -0.37600
Ni	Ni	0.73373 0.43768 0.52823 1.07200
O 	O 	0.57748 0.22491 0.60670 -0.40600
O 	O 	0.79941 0.49571 0.55233 -0.39300
O 	O 	0.82512 0.35923 0.54245 -0.37600
O 	O 	0.69498 0.31865 0.59496 -0.70300
O 	O 	0.58235 0.33088 0.60320 -0.38200
O 	O 	0.80359 0.30164 0.59526 -0.37200
O 	O 	0.73071 0.20493 0.59822 -0.40900
Ni	Ni	0.65796 0.22664 0.60196 1.06400
H 	H 	0.68619 0.32067 0.53204 0.16100
H 	H 	0.70675 0.34415 0.61197 0.15600
C 	C 	0.82111 0.47848 0.57395 0.30800
O 	O 	0.64251 0.20118 0.56231 -0.41700
C 	C 	0.62693 0.45333 0.54247 0.29700
C 	C 	0.83065 0.39639 0.52105 0.31500
C 	C 	0.60330 0.21345 0.54840 0.31600
C 	C 	0.78124 0.24402 0.60603 0.27600
C 	C 	0.56259 0.27390 0.61497 0.27800
O 	O 	0.79297 0.42565 0.58684 -0.39600
O 	O 	0.78645 0.40293 0.50885 -0.42000
Ni	Ni	0.02206 0.94384 0.75037 1.09500
O 	O 	0.04022 0.88825 0.72184 -0.71200
Ni	Ni	0.08435 0.95556 0.69629 1.09800
O 	O 	0.97838 0.86259 0.77163 -0.36700
O 	O 	0.92028 0.81959 0.73524 -0.41400
O 	O 	0.09426 0.95211 0.77253 -0.37100
Ni	Ni	0.97218 0.83313 0.70230 1.06500
O 	O 	0.09062 0.07339 0.77902 -0.41200
O 	O 	0.94575 0.90727 0.69154 -0.41300
O 	O 	0.10304 0.89210 0.67137 -0.37300
O 	O 	0.05768 0.01178 0.72248 -0.69400
O 	O 	0.00142 0.00011 0.77770 -0.38700
O 	O 	0.14382 0.02976 0.67667 -0.36400
O 	O 	0.15604 0.11667 0.70442 -0.40800
Ni	Ni	0.11840 0.08247 0.74052 1.06800
H 	H 	0.06231 0.86285 0.72909 0.15400
H 	H 	0.02973 0.02862 0.71464 0.15300
C 	C 	0.97363 0.95232 0.67482 0.29200
O 	O 	0.16055 0.02067 0.74536 -0.42900
C 	C 	0.93709 0.81428 0.76007 0.27300
C 	C 	0.06182 0.83770 0.66436 0.27700
C 	C 	0.14560 0.97361 0.76289 0.27500
C 	C 	0.17737 0.08307 0.68898 0.28800
C 	C 	0.03719 0.05775 0.78443 0.28800
O 	O 	0.02484 0.95852 0.66828 -0.37100
O 	O 	0.00911 0.83361 0.66628 -0.40600
Ni	Ni	0.26180 0.70978 0.38835 1.10000
O 	O 	0.32746 0.75329 0.36394 -0.70700
Ni	Ni	0.39116 0.74625 0.38584 1.10300
O 	O 	0.20820 0.72467 0.36021 -0.37600
O 	O 	0.25686 0.83452 0.36101 -0.40800
O 	O 	0.25717 0.62661 0.36823 -0.40100
Ni	Ni	0.34152 0.84441 0.35822 1.06300
O 	O 	0.24662 0.64635 0.44842 -0.40900
O 	O 	0.34976 0.86816 0.39839 -0.41800
O 	O 	0.45064 0.78256 0.35789 -0.37700
O 	O 	0.32710 0.71525 0.41247 -0.70000
O 	O 	0.19456 0.65921 0.41153 -0.38200
O 	O 	0.44474 0.71412 0.40812 -0.35900
O 	O 	0.37589 0.61510 0.41042 -0.41900
Ni	Ni	0.31048 0.63123 0.42944 1.07700
H 	H 	0.32384 0.72994 0.34647 0.15600
H 	H 	0.33108 0.74836 0.42672 0.16000
C 	C 	0.39406 0.87005 0.41279 0.31200
O 	O 	0.25208 0.56369 0.40516 -0.39700
C 	C 	0.21353 0.78348 0.35238 0.27200
C 	C 	0.45625 0.83801 0.34599 0.27400
C 	C 	0.24250 0.56953 0.37938 0.30800
C 	C 	0.42768 0.65357 0.41595 0.30200
C 	C 	0.19785 0.63756 0.43615 0.31700
O 	O 	0.42365 0.83446 0.40587 -0.36100
O 	O 	0.42735 0.87431 0.35434 -0.40400
Ni	Ni	0.33385 0.65628 0.06053 1.10100
O 	O 	0.26816 0.65629 0.03609 -0.70200
Ni	Ni	0.21689 0.67263 0.06298 1.10000
O 	O 	0.36695 0.61053 0.03298 -0.36100
O 	O 	0.28172 0.53111 0.02547 -0.41700
O 	O 	0.38445 0.74306 0.04482 -0.37200
Ni	Ni	0.22748 0.57844 0.01458 1.07000
O 	O 	0.40708 0.76918 0.09741 -0.40700
O 	O 	0.16688 0.51683 0.03835 -0.39700
O 	O 	0.14513 0.65804 0.03993 -0.38300
O 	O 	0.28633 0.68217 0.08641 -0.70500
O 	O 	0.39771 0.66376 0.08705 -0.38000
O 	O 	0.18150 0.70319 0.09456 -0.37400
O 	O 	0.25655 0.79834 0.09894 -0.41000
Ni	Ni	0.32742 0.77206 0.09719 1.06400
H 	H 	0.28018 0.69337 0.02375 0.16200
H 	H 	0.27777 0.65351 0.10219 0.15600
C 	C 	0.15098 0.53098 0.06192 0.30000
O 	O 	0.33475 0.80487 0.05881 -0.41800
C 	C 	0.33545 0.55661 0.02048 0.29100
C 	C 	0.13314 0.62598 0.01655 0.31700
C 	C 	0.37032 0.79462 0.04237 0.31600
C 	C 	0.20672 0.75999 0.10661 0.27600
C 	C 	0.42115 0.71748 0.10171 0.27800
O 	O 	0.18417 0.57982 0.07670 -0.39700
O 	O 	0.17302 0.62024 0.00133 -0.41700
Ni	Ni	0.94446 0.05384 0.24792 1.09600
O 	O 	0.93448 0.10948 0.21729 -0.71100
Ni	Ni	0.89978 0.04264 0.18850 1.09800
O 	O 	0.98043 0.13493 0.27199 -0.36700
O 	O 	0.04875 0.17806 0.24144 -0.41600
O 	O 	0.86681 0.04354 0.26355 -0.37100
Ni	Ni	0.00720 0.16540 0.20407 1.06100
O 	O 	0.87368 0.91964 0.27044 -0.41500
O 	O 	0.03759 0.09240 0.19674 -0.41300
O 	O 	0.88822 0.10594 0.16120 -0.37100
O 	O 	0.91941 0.98661 0.21764 -0.69200
O 	O 	0.95893 0.99893 0.27768 -0.38400
O 	O 	0.84678 0.96841 0.16434 -0.36100
O 	O 	0.83208 0.88084 0.19089 -0.41000
Ni	Ni	0.85660 0.91260 0.23002 1.06900
H 	H 	0.91008 0.13420 0.22186 0.15500
H 	H 	0.95056 0.97200 0.21306 0.15300
C 	C 	0.01541 0.04782 0.17794 0.28600
O 	O 	0.81176 0.97214 0.23129 -0.43200
C 	C 	0.02509 0.18283 0.26429 0.27200
C 	C 	0.93088 0.16021 0.15682 0.27400
C 	C 	0.81697 0.01193 0.25190 0.28000
C 	C 	0.81263 0.91358 0.17402 0.29000
C 	C 	0.92533 0.93882 0.28037 0.29100
O 	O 	0.96671 0.04118 0.16664 -0.36700
O 	O 	0.98230 0.16584 0.16473 -0.40400
C 	C 	0.96801 0.25903 0.09614 -0.06100
C 	C 	0.97295 0.31954 0.10744 0.02300
C 	C 	0.94567 0.32161 0.13152 -0.06200
C 	C 	0.92142 0.26488 0.14612 0.00300
C 	C 	0.92493 0.20611 0.13688 -0.08100
C 	C 	0.94320 0.20236 0.11067 0.01800
C 	C 	0.01383 0.37985 0.09659 0.01900
H 	H 	0.94688 0.36767 0.13988 0.04400
H 	H 	0.90545 0.26800 0.16593 0.01500
H 	H 	0.94424 0.15675 0.10286 0.04100
H 	H 	0.98724 0.25636 0.07715 0.05000
C 	C 	0.05827 0.42000 0.11316 -0.06200
C 	C 	0.10187 0.47118 0.10211 0.01500
C 	C 	0.10191 0.48227 0.07430 -0.08600
C 	C 	0.05635 0.44371 0.05794 0.01800
C 	C 	0.01228 0.39330 0.06908 -0.06200
H 	H 	0.06012 0.41004 0.13441 0.04000
H 	H 	0.13659 0.50049 0.11501 0.03300
H 	H 	0.05559 0.45200 0.03649 0.03500
H 	H 	0.97786 0.36338 0.05616 0.05600
C 	C 	0.54491 0.79004 0.14891 -0.06200
C 	C 	0.58757 0.78069 0.13396 0.02000
C 	C 	0.57355 0.74103 0.11068 -0.06000
C 	C 	0.51773 0.71463 0.10143 0.01600
C 	C 	0.47558 0.72823 0.11526 -0.08200
C 	C 	0.48917 0.76396 0.13959 0.00900
C 	C 	0.64693 0.81501 0.14192 0.02000
H 	H 	0.60611 0.73277 0.09920 0.05000
H 	H 	0.50780 0.68700 0.08265 0.04700
H 	H 	0.45690 0.77414 0.15058 0.01300
H 	H 	0.55518 0.81925 0.16729 0.04100
C 	C 	0.66882 0.88310 0.14340 -0.06100
C 	C 	0.72408 0.91557 0.15256 0.01300
C 	C 	0.75793 0.88024 0.16030 -0.08600
C 	C 	0.73674 0.81220 0.15761 0.01300
C 	C 	0.68145 0.77979 0.14856 -0.06400
H 	H 	0.64273 0.91077 0.13789 0.04800
H 	H 	0.73989 0.96800 0.15452 0.03200
H 	H 	0.76272 0.78434 0.16303 0.03300
H 	H 	0.66512 0.72727 0.14721 0.04500
C 	C 	0.16739 0.86270 0.15750 -0.06400
C 	C 	0.11865 0.86672 0.14522 0.02000
C 	C 	0.09554 0.82918 0.12196 -0.06200
C 	C 	0.12215 0.79012 0.11048 0.01600
C 	C 	0.17269 0.78916 0.12183 -0.08400
C 	C 	0.19456 0.82450 0.14570 0.01000
C 	C 	0.09321 0.91237 0.15592 0.01800
H 	H 	0.05796 0.83187 0.11229 0.04900
H 	H 	0.10501 0.76320 0.09199 0.04000
H 	H 	0.23342 0.82379 0.15470 0.01200
H 	H 	0.18494 0.89037 0.17577 0.04100
C 	C 	0.03547 0.89082 0.16057 -0.06200
C 	C 	0.01018 0.93513 0.16773 0.00500
C 	C 	0.04262 0.00123 0.17114 -0.09100
C 	C 	0.10070 0.02255 0.16752 0.01300
C 	C 	0.12585 0.97842 0.15968 -0.06100
H 	H 	0.01001 0.83989 0.15812 0.04300
H 	H 	0.96531 0.91808 0.17059 0.02800
H 	H 	0.12610 0.07347 0.17009 0.03100
H 	H 	0.17040 0.99573 0.15596 0.04500
C 	C 	0.56640 0.96192 0.30507 -0.05900
C 	C 	0.60812 0.93431 0.30403 0.01700
C 	C 	0.59829 0.87302 0.31501 -0.05900
C 	C 	0.54793 0.84042 0.32772 0.01000
C 	C 	0.50680 0.86902 0.32978 -0.07800
C 	C 	0.51590 0.92940 0.31780 0.00600
C 	C 	0.66203 0.96908 0.29123 0.01900
H 	H 	0.62986 0.85079 0.31384 0.04700
H 	H 	0.54143 0.79351 0.33637 0.04500
H 	H 	0.48427 0.95158 0.31864 0.02500
H 	H 	0.57331 0.00882 0.29629 0.04100
C 	C 	0.66390 0.97666 0.26321 -0.06300
C 	C 	0.71549 0.99745 0.25043 0.01100
C 	C 	0.76563 0.01030 0.26555 -0.08700
C 	C 	0.76390 0.00863 0.29381 0.01000
C 	C 	0.71229 0.98790 0.30658 -0.05900
H 	H 	0.62536 0.96335 0.25122 0.04200
H 	H 	0.71627 1.00000 0.22865 0.02800
H 	H 	0.80221 0.01923 0.30580 0.04400
H 	H 	0.71129 0.98350 0.32829 0.05000
C 	C 	0.18154 0.39474 0.35544 -0.06300
C 	C 	0.14657 0.39879 0.33389 0.02100
C 	C 	0.14365 0.45910 0.32706 -0.06400
C 	C 	0.17558 0.51502 0.34165 0.01600
C 	C 	0.21072 0.51109 0.36322 -0.09000
C 	C 	0.21347 0.45060 0.37005 0.01500
C 	C 	0.11529 0.34052 0.31758 0.01700
H 	H 	0.11697 0.46268 0.31034 0.04400
H 	H 	0.17247 0.56121 0.33638 0.03700
H 	H 	0.24049 0.44689 0.38660 0.03400
H 	H 	0.18415 0.34835 0.36077 0.04800
C 	C 	0.14434 0.31061 0.30174 -0.06300
C 	C 	0.11484 0.25784 0.28494 0.00900
C 	C 	0.05592 0.23447 0.28381 -0.08400
C 	C 	0.02682 0.26314 0.30030 0.00400
C 	C 	0.05642 0.31613 0.31708 -0.06000
H 	H 	0.18979 0.32898 0.30211 0.04400
H 	H 	0.13778 0.23548 0.27263 0.03400
H 	H 	0.98138 0.24546 0.29963 0.03600
H 	H 	0.03368 0.33872 0.32940 0.04600
C 	C 	0.06243 0.76282 0.33635 -0.06100
C 	C 	0.06894 0.82127 0.32358 0.01800
C 	C 	0.12291 0.86495 0.31837 -0.06300
C 	C 	0.17014 0.85141 0.32680 0.00900
C 	C 	0.16385 0.79412 0.34063 -0.08300
C 	C 	0.10962 0.74917 0.34484 0.01100
C 	C 	0.01960 0.83836 0.31668 0.01900
H 	H 	0.12821 0.90987 0.30817 0.04400
H 	H 	0.21159 0.88592 0.32296 0.02000
H 	H 	0.10396 0.70461 0.35539 0.04300
H 	H 	0.02087 0.72864 0.34025 0.04700
C 	C 	0.98728 0.81211 0.29332 -0.06300
C 	C 	0.94956 0.83980 0.28311 0.01200
C 	C 	0.94475 0.89445 0.29600 -0.10000
C 	C 	0.97198 0.91536 0.32108 0.02800
C 	C 	0.00945 0.88754 0.33134 -0.06900
H 	H 	0.99391 0.77304 0.28219 0.04300
H 	H 	0.92788 0.82243 0.26398 -0.00000
H 	H 	0.96744 0.95647 0.33157 0.03700
H 	H 	0.03315 0.90690 0.34981 0.05100
C 	C 	0.56403 0.09385 0.48978 -0.11800
C 	C 	0.50536 0.07008 0.49093 0.00400
C 	C 	0.47883 0.09540 0.51024 0.12100
C 	C 	0.51110 0.14316 0.52868 -0.03300
C 	C 	0.56989 0.16603 0.52794 -0.12800
C 	C 	0.59638 0.14142 0.50828 0.19300
C 	C 	0.47191 0.01798 0.47212 0.00600
O 	O 	0.42147 0.07181 0.51177 -0.27500
H 	H 	0.49042 0.16150 0.54390 0.06500
O 	O 	0.65370 0.16550 0.50650 -0.30400
H 	H 	0.58457 0.07510 0.47464 0.07400
C 	C 	0.44802 0.03288 0.44848 0.11500
C 	C 	0.41957 0.98356 0.42982 -0.02900
C 	C 	0.41582 0.91943 0.43435 -0.12600
C 	C 	0.43778 0.90421 0.45855 0.19400
C 	C 	0.46598 0.95353 0.47725 -0.11100
O 	O 	0.45237 0.09560 0.44360 -0.27800
H 	H 	0.40238 0.99560 0.41135 0.05000
O 	O 	0.43313 0.84146 0.46359 -0.29000
H 	H 	0.48392 0.94180 0.49557 0.07500
H 	H 	0.66711 0.13635 0.51750 0.15400
H 	H 	0.48749 0.11466 0.43355 0.14400
H 	H 	0.39729 0.82226 0.47306 0.13600
H 	H 	0.40845 0.10001 0.50000 0.15500
C 	C 	0.98682 0.48032 0.51261 -0.11500
C 	C 	0.98914 0.49166 0.48488 0.00600
C 	C 	0.94011 0.46639 0.46863 0.12200
C 	C 	0.88879 0.43234 0.48036 -0.03600
C 	C 	0.88592 0.42328 0.50835 -0.12400
C 	C 	0.93575 0.44543 0.52433 0.19300
C 	C 	0.04308 0.52982 0.47291 0.00400
O 	O 	0.94251 0.47348 0.44121 -0.27500
H 	H 	0.85113 0.41364 0.46772 0.05800
O 	O 	0.93435 0.43524 0.55153 -0.29400
H 	H 	0.02466 0.49891 0.52514 0.07000
C 	C 	0.05331 0.59372 0.46454 0.11700
C 	C 	0.10421 0.62899 0.45271 -0.03100
C 	C 	0.14577 0.60160 0.44989 -0.12500
C 	C 	0.13592 0.53813 0.45876 0.19700
C 	C 	0.08482 0.50269 0.47035 -0.11500
O 	O 	0.01320 0.62127 0.46744 -0.28100
H 	H 	0.11144 0.67772 0.44582 0.05400
O 	O 	0.17610 0.51062 0.45606 -0.30500
H 	H 	0.07740 0.45378 0.47706 0.07400
H 	H 	0.94125 0.39403 0.55379 0.15500
H 	H 	0.02093 0.64279 0.48548 0.14400
H 	H 	0.16739 0.48706 0.43845 0.15600
H 	H 	0.93458 0.51364 0.43773 0.15500
C 	C 	0.54440 0.61015 0.44862 -0.11800
C 	C 	0.51948 0.58305 0.47269 0.00700
C 	C 	0.46612 0.58349 0.47888 0.11800
C 	C 	0.43729 0.60902 0.46066 -0.02800
C 	C 	0.46110 0.63363 0.43605 -0.13400
C 	C 	0.51527 0.63517 0.43022 0.19900
C 	C 	0.54737 0.55001 0.49043 0.00200
O 	O 	0.44233 0.55945 0.50286 -0.27600
H 	H 	0.39595 0.60876 0.46546 0.01100
O 	O 	0.53967 0.66080 0.40655 -0.28600
H 	H 	0.58572 0.61029 0.44387 0.07100
C 	C 	0.53317 0.48240 0.48829 0.11500
C 	C 	0.55782 0.45079 0.50602 -0.03900
C 	C 	0.59752 0.48639 0.52564 -0.13200
C 	C 	0.61127 0.55407 0.52795 0.19000
C 	C 	0.58646 0.58562 0.51022 -0.11300
O 	O 	0.49424 0.44701 0.46927 -0.27800
H 	H 	0.54701 0.39873 0.50410 0.05500
O 	O 	0.64927 0.58946 0.54733 -0.29000
H 	H 	0.59719 0.63768 0.51203 0.07600
H 	H 	0.52878 0.62379 0.39350 0.14500
H 	H 	0.51605 0.44590 0.45309 0.14000
H 	H 	0.62670 0.58999 0.56329 0.15000
H 	H 	0.42023 0.51298 0.49910 0.15200
C 	C 	0.86710 0.02401 0.65089 -0.06500
C 	C 	0.90073 0.08970 0.64860 0.02000
C 	C 	0.95864 0.10967 0.65410 -0.06500
C 	C 	0.98265 0.06445 0.66195 0.01100
C 	C 	0.94885 0.99897 0.66477 -0.09200
C 	C 	0.89099 0.97894 0.65912 0.01700
C 	C 	0.87535 0.13728 0.64003 0.01900
H 	H 	0.98494 0.16025 0.65247 0.04400
H 	H 	0.02734 0.08056 0.66640 0.02700
H 	H 	0.86458 0.92848 0.66100 0.03200
H 	H 	0.82249 0.00790 0.64628 0.04600
C 	C 	0.89467 0.17473 0.61714 -0.06300
C 	C 	0.86644 0.21411 0.60719 0.01600
C 	C 	0.81823 0.21564 0.61984 -0.08600
C 	C 	0.80082 0.18106 0.64356 0.01000
C 	C 	0.82951 0.14243 0.65374 -0.06400
H 	H 	0.93024 0.17148 0.60649 0.04800
H 	H 	0.88027 0.24071 0.58887 0.03700
H 	H 	0.76391 0.18238 0.65359 0.00900
H 	H 	0.81506 0.11491 0.67179 0.04100
C 	C 	0.44647 0.18709 0.66176 -0.06300
C 	C 	0.40315 0.20700 0.65206 0.02000
C 	C 	0.41458 0.25515 0.63248 -0.06000
C 	C 	0.46809 0.28077 0.62171 0.01500
C 	C 	0.51062 0.25813 0.63030 -0.08100
C 	C 	0.49992 0.21248 0.65091 0.00900
C 	C 	0.34530 0.17534 0.66150 0.01900
H 	H 	0.38157 0.27120 0.62498 0.04900
H 	H 	0.47565 0.31586 0.60580 0.04400
H 	H 	0.53249 0.19511 0.65791 0.01500
H 	H 	0.43839 0.15087 0.67724 0.04200
C 	C 	0.31767 0.10817 0.65781 -0.06000
C 	C 	0.26277 0.07824 0.66650 0.01100
C 	C 	0.23469 0.11524 0.67881 -0.08400
C 	C 	0.26243 0.18263 0.68237 0.01100
C 	C 	0.31740 0.21239 0.67379 -0.06300
H 	H 	0.33871 0.07918 0.64818 0.04800
H 	H 	0.24232 0.02623 0.66390 0.03700
H 	H 	0.24149 0.21201 0.69176 0.03100
H 	H 	0.33836 0.26424 0.67676 0.04400
C 	C 	0.92997 0.63969 0.59501 -0.06300
C 	C 	0.97102 0.62046 0.60785 0.02400
C 	C 	0.96136 0.55399 0.61063 -0.06100
C 	C 	0.91109 0.50747 0.60077 0.02000
C 	C 	0.87094 0.52697 0.58724 -0.08200
C 	C 	0.88054 0.59336 0.58465 0.01600
C 	C 	0.02077 0.67009 0.62102 0.01500
H 	H 	0.99245 0.53841 0.62063 0.04700
H 	H 	0.90395 0.45638 0.60313 0.04500
H 	H 	0.84947 0.60914 0.57474 0.04000
H 	H 	0.93591 0.69068 0.59351 0.04900
C 	C 	0.04947 0.72780 0.60755 -0.06100
C 	C 	0.07557 0.78541 0.62242 0.01700
C 	C 	0.07322 0.78487 0.65061 -0.08800
C 	C 	0.05804 0.72500 0.66354 0.00200
C 	C 	0.03035 0.66761 0.64887 -0.06200
H 	H 	0.04600 0.72949 0.58581 0.04700
H 	H 	0.09071 0.83114 0.61205 0.03800
H 	H 	0.05978 0.72371 0.68534 0.00600
H 	H 	0.01130 0.62276 0.65950 0.03800
C 	C 	0.00656 0.56750 0.96918 -0.12600
C 	C 	0.96475 0.53373 0.98697 0.00600
C 	C 	0.97695 0.53680 0.01478 0.12400
C 	C 	0.03154 0.57076 0.02447 -0.04000
C 	C 	0.07449 0.60051 0.00650 -0.12600
C 	C 	0.06140 0.60061 0.97877 0.19300
C 	C 	0.90912 0.49268 0.97625 0.00500
O 	O 	0.93627 0.50393 0.03236 -0.27600
H 	H 	0.04097 0.57159 0.04589 0.05900
O 	O 	0.10156 0.63495 0.96123 -0.28700
H 	H 	0.99678 0.56688 0.94780 0.07300
C 	C 	0.86529 0.51718 0.97447 0.11700
C 	C 	0.81426 0.48011 0.96182 -0.03000
C 	C 	0.80713 0.41919 0.95032 -0.12300
C 	C 	0.85039 0.39379 0.95295 0.19500
C 	C 	0.90097 0.43037 0.96611 -0.11400
O 	O 	0.87227 0.57729 0.98512 -0.27600
H 	H 	0.78104 0.49985 0.96000 0.05200
O 	O 	0.84278 0.33266 0.94326 -0.29600
H 	H 	0.93440 0.41094 0.96785 0.07300
H 	H 	0.11642 0.60294 0.95339 0.14400
H 	H 	0.88715 0.60799 0.97030 0.14600
H 	H 	0.85814 0.33898 0.92489 0.15400
H 	H 	0.91854 0.53532 0.03792 0.15500
C 	C 	0.40590 0.92255 0.98885 -0.11700
C 	C 	0.46471 0.94625 0.99064 0.00300
C 	C 	0.49239 0.92037 0.00958 0.12300
C 	C 	0.46123 0.87073 0.02641 -0.03200
C 	C 	0.40242 0.84671 0.02453 -0.12700
C 	C 	0.37468 0.87326 0.00586 0.19200
C 	C 	0.49718 0.99676 0.97207 0.00800
O 	O 	0.54980 0.94491 0.01224 -0.27400
H 	H 	0.48280 0.85122 0.04108 0.06500
O 	O 	0.31724 0.84918 0.00338 -0.30300
H 	H 	0.38441 0.94205 0.97414 0.07300
C 	C 	0.52272 0.98017 0.94975 0.11600
C 	C 	0.55169 0.02795 0.93167 -0.02900
C 	C 	0.55406 0.09207 0.93526 -0.12600
C 	C 	0.52960 0.10895 0.95793 0.19500
C 	C 	0.50114 0.06126 0.97619 -0.11400
O 	O 	0.51941 0.91729 0.94561 -0.27900
H 	H 	0.57041 0.01459 0.91426 0.04700
O 	O 	0.53213 0.17161 0.96185 -0.29200
H 	H 	0.48166 0.07428 0.99341 0.07500
H 	H 	0.30442 0.87655 0.01566 0.15400
H 	H 	0.48491 0.89669 0.93434 0.14300
H 	H 	0.56705 0.19316 0.97272 0.14500
H 	H 	0.56304 0.91750 0.00019 0.15800
C 	C 	0.43309 0.52385 0.97049 -0.11200
C 	C 	0.40655 0.45701 0.96569 0.00100
C 	C 	0.35698 0.42278 0.97904 0.11900
C 	C 	0.33487 0.45523 0.99742 -0.04200
C 	C 	0.36101 0.52239 0.00207 -0.12500
C 	C 	0.41000 0.55689 0.98811 0.18400
C 	C 	0.43208 0.42255 0.94751 0.00700
O 	O 	0.33074 0.35731 0.97459 -0.27600
H 	H 	0.29729 0.42811 0.00801 0.05800
O 	O 	0.43543 0.62275 0.99169 -0.27800
H 	H 	0.47155 0.55033 0.96040 0.06800
C 	C 	0.43547 0.43546 0.91975 0.11000
C 	C 	0.46416 0.40679 0.90312 -0.02900
C 	C 	0.48916 0.36489 0.91398 -0.13800
C 	C 	0.48362 0.34976 0.94148 0.19000
C 	C 	0.45566 0.37909 0.95817 -0.11500
O 	O 	0.40983 0.47500 0.90879 -0.27800
H 	H 	0.46781 0.41804 0.88189 0.05000
O 	O 	0.50831 0.30922 0.95236 -0.32200
H 	H 	0.45321 0.36899 0.97952 0.08000
H 	H 	0.41795 0.64206 0.97779 0.14200
H 	H 	0.43907 0.51901 0.90904 0.14000
H 	H 	0.47908 0.26525 0.95105 0.17400
H 	H 	0.30387 0.35323 0.95933 0.14600
C 	C 	0.90842 0.23550 0.84550 -0.06300
C 	C 	0.90017 0.17763 0.83114 0.01900
C 	C 	0.84555 0.13610 0.82412 -0.06400
C 	C 	0.79942 0.15108 0.83224 0.01000
C 	C 	0.80741 0.20781 0.84742 -0.08500
C 	C 	0.86221 0.25062 0.85362 0.01500
C 	C 	0.94832 0.15903 0.82418 0.02000
H 	H 	0.83888 0.09169 0.81273 0.04500
H 	H 	0.75742 0.11808 0.82707 0.01200
H 	H 	0.86901 0.29448 0.86541 0.03700
H 	H 	0.95048 0.26802 0.85085 0.04600
C 	C 	0.98127 0.18754 0.80224 -0.06300
C 	C 	0.01668 0.15853 0.79103 0.00800
C 	C 	0.01870 0.10053 0.80152 -0.09700
C 	C 	0.99070 0.07648 0.82532 0.02500
C 	C 	0.95563 0.10566 0.83663 -0.06500
H 	H 	0.97675 0.22958 0.79281 0.04200
H 	H 	0.03891 0.17816 0.77291 0.00300
H 	H 	0.99296 0.03250 0.83395 0.03800
H 	H 	0.93135 0.08426 0.85400 0.05000
C 	C 	0.38838 0.07493 0.79559 -0.06200
C 	C 	0.35717 0.01526 0.80692 0.02000
C 	C 	0.38049 0.99132 0.82828 -0.06300
C 	C 	0.43353 0.02813 0.83907 0.01300
C 	C 	0.46347 0.08952 0.82869 -0.08200
C 	C 	0.44123 0.11194 0.80646 0.01000
C 	C 	0.29821 0.98162 0.79820 0.01800
H 	H 	0.35683 0.94518 0.83707 0.04600
H 	H 	0.45017 0.01025 0.85625 0.03800
H 	H 	0.46412 0.15890 0.79814 0.02600
H 	H 	0.37076 0.09372 0.77902 0.04500
C 	C 	0.25494 0.98287 0.81494 -0.06100
C 	C 	0.20093 0.97007 0.80408 0.01300
C 	C 	0.19021 0.95679 0.77639 -0.08600
C 	C 	0.23132 0.94598 0.76070 0.01000
C 	C 	0.28531 0.95882 0.77152 -0.06200
H 	H 	0.26413 0.99869 0.83580 0.05000
H 	H 	0.16908 0.97680 0.81661 0.04100
H 	H 	0.22296 0.93361 0.73947 0.02000
H 	H 	0.31804 0.95566 0.75865 0.04300
C 	C 	0.75877 0.59574 0.83579 -0.06300
C 	C 	0.80233 0.59293 0.81964 0.02000
C 	C 	0.81272 0.53473 0.81734 -0.06400
C 	C 	0.78077 0.48027 0.83166 0.01500
C 	C 	0.73825 0.48365 0.84849 -0.08800
C 	C 	0.72685 0.54139 0.85011 0.01500
C 	C 	0.83671 0.65082 0.80495 0.01700
H 	H 	0.84584 0.53186 0.80466 0.04400
H 	H 	0.79026 0.43619 0.83032 0.03700
H 	H 	0.69390 0.54449 0.86285 0.03100
H 	H 	0.75013 0.64030 0.83752 0.04700
C 	C 	0.81178 0.67695 0.78496 -0.06300
C 	C 	0.84423 0.73143 0.77088 0.00800
C 	C 	0.90211 0.76035 0.77660 -0.08400
C 	C 	0.92688 0.73490 0.79698 0.00800
C 	C 	0.89431 0.68029 0.81106 -0.06100
H 	H 	0.76732 0.65475 0.78019 0.04300
H 	H 	0.82440 0.75096 0.75544 0.03400
H 	H 	0.97146 0.75655 0.80153 0.03500
H 	H 	0.91385 0.66078 0.82664 0.04700
