data_crystal

_cell_length_a 17.23953
_cell_length_b 17.85302
_cell_length_c 56.57769
_cell_angle_alpha 89.57272
_cell_angle_beta  89.57422
_cell_angle_gamma 119.44029

_symmetry_space_group_name_	'P 1'
_symmetry_space_group_name_H-M	'P 1'

loop_
_symmetry_equiv_pos_as_xyz
  x,y,z

loop_
_atom_site_label
_atom_site_type_symbol
_atom_site_fract_x
_atom_site_fract_y
_atom_site_fract_z
_atom_site_charge
C 	C 	0.15202 0.65089 0.07563 0.32600
C 	C 	0.16861 0.48364 0.02594 0.32400
C 	C 	0.38779 0.83724 0.06152 0.32100
Ni	Ni	0.29957 0.64477 0.04904 1.12100
Ni	Ni	0.21844 0.76953 0.03476 1.12900
O 	O 	0.41048 0.67629 0.02760 -0.32700
O 	O 	0.08830 0.68775 0.02897 -0.36300
O 	O 	0.18315 0.59990 0.06929 -0.36000
O 	O 	0.19359 0.73211 0.06914 -0.37000
O 	O 	0.24922 0.52428 0.03426 -0.35400
O 	O 	0.14102 0.52209 0.01100 -0.32900
O 	O 	0.36030 0.75718 0.06902 -0.35300
O 	O 	0.34319 0.85557 0.04548 -0.34400
O 	O 	0.26439 0.69656 0.02575 -0.72400
H 	H 	0.32392 0.74173 0.02054 0.16900
C 	C 	0.98208 0.10384 0.17217 0.32100
C 	C 	0.75802 0.01167 0.21290 0.30500
C 	C 	0.86644 0.84086 0.19560 0.32900
O 	O 	0.92085 0.91802 0.18735 -0.38700
O 	O 	0.93231 0.12127 0.18617 -0.37500
O 	O 	0.04555 0.09161 0.18087 -0.37100
O 	O 	0.81065 0.07928 0.22519 -0.36700
O 	O 	0.75834 0.93887 0.21619 -0.35400
O 	O 	0.83371 0.82991 0.21727 -0.37400
C 	C 	0.97774 0.15949 0.10239 -0.00800
C 	C 	0.03951 0.15980 0.08612 -0.01500
C 	C 	0.05867 0.20815 0.06517 -0.03100
C 	C 	0.01720 0.25746 0.06068 0.02400
C 	C 	0.94694 0.24757 0.07540 -0.03200
C 	C 	0.92728 0.19869 0.09626 -0.02000
C 	C 	0.97896 0.13504 0.12663 0.05600
C 	C 	0.98098 0.11896 0.14728 -0.09900
C 	C 	0.06277 0.33346 0.04603 0.07100
C 	C 	0.10749 0.40068 0.03567 -0.05000
H 	H 	0.07726 0.12783 0.09043 0.05300
H 	H 	0.11158 0.21362 0.05358 0.06500
H 	H 	0.91293 0.28375 0.07180 0.07500
H 	H 	0.87760 0.19684 0.10847 0.04800
C 	C 	0.65075 0.03829 0.15156 0.00300
C 	C 	0.56646 0.03179 0.15089 -0.03300
C 	C 	0.52137 0.01607 0.12947 -0.02200
C 	C 	0.55985 0.00540 0.10873 -0.01300
C 	C 	0.64832 0.02223 0.10899 -0.02100
C 	C 	0.69361 0.03837 0.13040 -0.03200
C 	C 	0.68680 0.03116 0.17381 0.05200
C 	C 	0.71782 0.02270 0.19201 -0.09500
C 	C 	0.50257 0.95498 0.08994 0.08800
C 	C 	0.45162 0.90527 0.07582 -0.07300
H 	H 	0.53361 0.03360 0.16711 0.04800
H 	H 	0.45363 0.00489 0.12937 0.04600
H 	H 	0.67944 0.01595 0.09298 0.05700
H 	H 	0.75971 0.04536 0.13070 0.05100
C 	C 	0.96007 0.59737 0.12544 0.00300
C 	C 	0.88835 0.60867 0.11867 -0.02600
C 	C 	0.84722 0.63622 0.13519 -0.02400
C 	C 	0.87744 0.65202 0.15852 -0.00200
C 	C 	0.93938 0.62771 0.16599 -0.02700
C 	C 	0.98081 0.60056 0.14944 -0.03400
C 	C 	0.02537 0.60690 0.10789 0.06400
C 	C 	0.08247 0.62276 0.09317 -0.08400
C 	C 	0.86460 0.71258 0.17234 0.05900
C 	C 	0.86121 0.76861 0.18328 -0.10000
H 	H 	0.87002 0.60396 0.10024 0.06700
H 	H 	0.79755 0.65253 0.12936 0.05900
H 	H 	0.96142 0.63735 0.18415 0.04600
H 	H 	0.03449 0.58959 0.15499 0.05200
F 	F 	0.51013 0.59629 0.02916 -0.38300
C 	C 	0.89730 0.07012 0.27260 0.30100
C 	C 	0.14039 0.17386 0.22743 0.30700
C 	C 	0.99155 0.89432 0.25121 0.29600
Ni	Ni	0.94729 0.13036 0.22255 1.11400
Ni	Ni	0.02261 0.00249 0.20661 1.11800
Ni	Ni	0.84438 0.92644 0.23819 1.12800
O 	O 	0.94774 0.13869 0.25921 -0.36600
O 	O 	0.82961 0.00032 0.26348 -0.37100
O 	O 	0.92277 0.90163 0.25914 -0.37300
O 	O 	0.01791 0.90849 0.22853 -0.36600
O 	O 	0.08595 0.19886 0.21838 -0.36300
O 	O 	0.13074 0.09667 0.22306 -0.37400
O 	O 	0.94879 0.02610 0.22647 -0.72100
H 	H 	0.98553 0.04033 0.24072 0.14600
C 	C 	0.91650 0.07661 0.31896 0.04400
C 	C 	0.90848 0.07540 0.29778 -0.08900
C 	C 	0.35145 0.35757 0.26311 0.00100
C 	C 	0.38636 0.33577 0.28259 -0.02800
C 	C 	0.43251 0.39693 0.29988 -0.02800
C 	C 	0.44336 0.47987 0.29778 0.00200
C 	C 	0.41735 0.50419 0.27701 -0.02900
C 	C 	0.37158 0.44314 0.25967 -0.02900
C 	C 	0.28100 0.29071 0.24981 0.05200
C 	C 	0.21838 0.23612 0.23933 -0.09300
H 	H 	0.37250 0.27010 0.28519 0.05200
H 	H 	0.42684 0.56861 0.27504 0.04900
H 	H 	0.34623 0.46094 0.24442 0.04900
C 	C 	0.07383 0.76518 0.29502 0.00600
C 	C 	0.12878 0.73306 0.28701 -0.02700
C 	C 	0.15992 0.69389 0.30296 -0.02900
C 	C 	0.04742 0.81164 0.27906 0.05100
C 	C 	0.02367 0.85023 0.26609 -0.07700
H 	H 	0.14925 0.74038 0.26859 0.04900
H 	H 	0.20540 0.67247 0.29682 0.05100
H 	H 	0.45386 0.37798 0.31570 0.06000
C 	C 	0.04650 0.75409 0.31879 -0.02200
C 	C 	0.92195 0.07256 0.34431 0.02100
H 	H 	0.99251 0.00061 0.34376 0.05800
C 	C 	0.95389 0.02109 0.35437 -0.06500
H 	H 	0.85475 0.14525 0.35140 0.06100
C 	C 	0.88022 0.25025 0.52264 0.31700
C 	C 	0.69517 0.38328 0.45939 0.41600
C 	C 	0.96169 0.45954 0.49660 0.38900
C 	C 	0.61335 0.15823 0.47967 0.38700
C 	C 	0.73617 0.47991 0.53267 0.33500
C 	C 	0.63763 0.25235 0.55497 0.31100
Ni	Ni	0.80125 0.30521 0.48048 1.12100
Ni	Ni	0.63813 0.31539 0.50688 1.13300
Ni	Ni	0.81927 0.37403 0.53413 1.12600
O 	O 	0.88473 0.27004 0.49955 -0.33400
O 	O 	0.83730 0.27181 0.53826 -0.36900
O 	O 	0.65795 0.41198 0.52896 -0.36000
O 	O 	0.73111 0.33445 0.45500 -0.32700
O 	O 	0.68970 0.40495 0.48101 -0.37100
O 	O 	0.71468 0.32482 0.55757 -0.37500
O 	O 	0.89730 0.43344 0.48133 -0.34200
O 	O 	0.94374 0.43369 0.51881 -0.34700
O 	O 	0.59278 0.23511 0.53492 -0.35300
O 	O 	0.69863 0.17986 0.47795 -0.35500
O 	O 	0.58790 0.21704 0.48283 -0.31500
O 	O 	0.80915 0.47855 0.52707 -0.37000
O 	O 	0.74601 0.31111 0.50856 -0.71700
H 	H 	0.72176 0.25157 0.51441 0.17200
C 	C 	0.11840 0.04200 0.77020 0.28800
C 	C 	0.91303 0.89237 0.68376 0.32800
C 	C 	0.19342 0.02856 0.70427 0.30500
C 	C 	0.83783 0.89724 0.74667 0.30900
C 	C 	0.07377 0.15832 0.67909 0.32700
C 	C 	0.99580 0.18186 0.74428 0.29500
Ni	Ni	0.01706 0.92900 0.72900 1.12000
Ni	Ni	0.92709 0.04101 0.70997 1.11300
Ni	Ni	0.13218 0.13953 0.72621 1.12200
O 	O 	0.10896 0.97761 0.75664 -0.34100
O 	O 	0.14207 0.11919 0.76109 -0.36800
O 	O 	0.00091 0.14651 0.68993 -0.37900
O 	O 	0.92193 0.85877 0.70362 -0.36900
O 	O 	0.93385 0.97339 0.68228 -0.37900
O 	O 	0.07444 0.21256 0.73344 -0.36600
O 	O 	0.11717 0.95657 0.70416 -0.35300
O 	O 	0.21052 0.08569 0.72076 -0.37500
O 	O 	0.92242 0.11763 0.73528 -0.38100
O 	O 	0.90933 0.89091 0.75181 -0.36900
O 	O 	0.83055 0.93027 0.72613 -0.36500
O 	O 	0.14152 0.16516 0.69125 -0.38300
O 	O 	0.02013 0.03532 0.72614 -0.71800
H 	H 	0.00013 0.03818 0.74226 0.14500
C 	C 	0.29435 0.65448 0.37426 0.31900
C 	C 	0.64768 0.79436 0.41504 0.35000
C 	C 	0.47458 0.61091 0.35863 0.33600
C 	C 	0.47137 0.83631 0.43657 0.38700
C 	C 	0.49901 0.52818 0.42743 0.39700
C 	C 	0.28796 0.55259 0.44787 0.38700
Ni	Ni	0.48453 0.75193 0.38968 1.12100
Ni	Ni	0.48273 0.67747 0.44232 1.13400
Ni	Ni	0.36375 0.54932 0.40139 1.12800
O 	O 	0.35786 0.72938 0.38205 -0.33900
O 	O 	0.29984 0.58226 0.37594 -0.35600
O 	O 	0.54027 0.60494 0.43684 -0.34900
O 	O 	0.60270 0.75416 0.39654 -0.36300
O 	O 	0.60592 0.78210 0.43548 -0.34300
O 	O 	0.26863 0.52339 0.42594 -0.35000
O 	O 	0.47287 0.68353 0.35883 -0.36400
O 	O 	0.46067 0.56631 0.37811 -0.36800
O 	O 	0.36873 0.57925 0.45673 -0.33200
O 	O 	0.50947 0.84711 0.41518 -0.33800
O 	O 	0.44151 0.76333 0.44875 -0.33000
O 	O 	0.41355 0.49198 0.42254 -0.34200
O 	O 	0.42788 0.66398 0.41222 -0.72200
H 	H 	0.37756 0.67253 0.41675 0.18200
C 	C 	0.86554 0.00303 0.38968 -0.04800
C 	C 	0.84979 0.06878 0.38157 -0.00300
C 	C 	0.87649 0.10238 0.35866 -0.04400
C 	C 	0.92677 0.98741 0.37726 0.03500
C 	C 	0.79621 0.93335 0.40316 0.10700
C 	C 	0.73117 0.87082 0.41090 -0.09300
H 	H 	0.80664 0.08521 0.39164 0.05500
H 	H 	0.94371 0.94028 0.38394 0.05700
C 	C 	0.46126 0.53149 0.31855 0.06100
C 	C 	0.47036 0.57044 0.33655 -0.09300
C 	C 	0.13641 0.68686 0.32699 0.01200
C 	C 	0.07770 0.71501 0.33474 -0.02400
C 	C 	0.18545 0.66699 0.34406 0.06200
C 	C 	0.23179 0.65686 0.35813 -0.06300
H 	H 	0.05930 0.71003 0.35327 0.07800
H 	H 	0.00307 0.77778 0.32505 0.06100
C 	C 	0.52356 0.06440 0.44710 0.25900
C 	C 	0.54815 0.07345 0.47096 -0.17200
C 	C 	0.52843 0.00020 0.48455 0.25100
C 	C 	0.49548 0.92028 0.47376 0.30200
C 	C 	0.48155 0.91310 0.44913 -0.19200
C 	C 	0.48966 0.98433 0.43625 0.30200
F 	F 	0.46840 0.97686 0.41301 -0.38000
F 	F 	0.53970 0.13459 0.43393 -0.35400
F 	F 	0.48268 0.85124 0.48697 -0.38100
F 	F 	0.54799 0.00772 0.50792 -0.39200
C 	C 	0.11179 0.46919 0.49597 0.27400
C 	C 	0.05475 0.49915 0.48773 -0.18500
C 	C 	0.08250 0.55756 0.46858 0.27800
C 	C 	0.16211 0.57950 0.45648 0.28000
C 	C 	0.21509 0.54374 0.46348 -0.18900
C 	C 	0.19148 0.49130 0.48383 0.28200
F 	F 	0.24307 0.45773 0.49107 -0.37400
F 	F 	0.08777 0.41488 0.51491 -0.38900
F 	F 	0.18648 0.63346 0.43744 -0.38600
F 	F 	0.03083 0.59090 0.46123 -0.35900
C 	C 	0.55272 0.35250 0.44103 0.27600
C 	C 	0.64637 0.40089 0.44094 -0.18800
C 	C 	0.68830 0.48115 0.42935 0.27900
C 	C 	0.63799 0.51916 0.42202 0.27800
C 	C 	0.54553 0.47723 0.42649 -0.19100
C 	C 	0.50237 0.39105 0.43426 0.27900
F 	F 	0.41243 0.34685 0.43703 -0.37100
F 	F 	0.51066 0.27134 0.45006 -0.36300
F 	F 	0.67978 0.59924 0.41215 -0.38200
F 	F 	0.77850 0.52621 0.42747 -0.36900
C 	C 	0.02888 0.17609 0.56040 0.05800
C 	C 	0.10522 0.24333 0.57053 -0.04700
C 	C 	0.12724 0.23579 0.59386 -0.00500
C 	C 	0.07433 0.16013 0.60688 -0.02200
C 	C 	0.00675 0.08849 0.59551 0.01800
C 	C 	0.98455 0.09628 0.57221 -0.07700
C 	C 	0.98065 0.19721 0.54338 0.04400
C 	C 	0.93632 0.21903 0.53191 -0.04100
C 	C 	0.07839 0.16094 0.63235 0.06700
C 	C 	0.07810 0.16092 0.65369 -0.10200
H 	H 	0.14181 0.30454 0.56128 0.09000
H 	H 	0.18137 0.29076 0.60229 0.05100
H 	H 	0.96718 0.02875 0.60522 0.02700
H 	H 	0.92713 0.04290 0.56429 0.06500
C 	C 	0.49754 0.12973 0.61459 0.00000
C 	C 	0.41283 0.05726 0.61277 -0.01800
C 	C 	0.35471 0.02916 0.63228 -0.05300
C 	C 	0.38112 0.07344 0.65366 0.01000
C 	C 	0.46791 0.14232 0.65591 -0.03500
C 	C 	0.52604 0.17038 0.63641 -0.02700
C 	C 	0.54897 0.17007 0.59353 0.05700
C 	C 	0.59034 0.20631 0.57588 -0.07600
C 	C 	0.31608 0.05581 0.67204 0.04600
C 	C 	0.26060 0.04269 0.68700 -0.09200
H 	H 	0.39048 0.02517 0.59599 0.05800
H 	H 	0.28791 0.97541 0.63046 0.07300
H 	H 	0.48903 0.17647 0.67244 0.04800
H 	H 	0.59165 0.22617 0.63799 0.04700
C 	C 	0.81530 0.74895 0.62461 -0.00100
C 	C 	0.85679 0.78469 0.60283 -0.02400
C 	C 	0.83034 0.73462 0.58249 -0.02700
C 	C 	0.76221 0.64871 0.58387 0.00600
C 	C 	0.71725 0.61468 0.60540 -0.02800
C 	C 	0.74387 0.66466 0.62575 -0.02600
C 	C 	0.84873 0.79742 0.64588 0.05800
C 	C 	0.87777 0.83940 0.66344 -0.09900
C 	C 	0.74967 0.59187 0.56465 0.06400
C 	C 	0.74194 0.54203 0.54942 -0.08600
H 	H 	0.91124 0.85034 0.60178 0.05100
H 	H 	0.86533 0.76146 0.56591 0.06200
H 	H 	0.66440 0.54833 0.60660 0.05200
H 	H 	0.71070 0.63704 0.64248 0.04900
C 	C 	0.96587 0.29664 0.80299 -0.00100
C 	C 	0.95470 0.25553 0.82496 -0.02700
C 	C 	0.95182 0.36733 0.80103 -0.02800
C 	C 	0.97951 0.25912 0.78204 0.04900
C 	C 	0.98805 0.22520 0.76463 -0.09400
H 	H 	0.96650 0.20147 0.82670 0.04400
H 	H 	0.96131 0.40010 0.78417 0.04800
C 	C 	0.10662 0.02674 0.81674 0.06100
C 	C 	0.11168 0.03105 0.79544 -0.09800
C 	C 	0.62650 0.75941 0.81208 -0.02400
C 	C 	0.63077 0.73515 0.78881 0.00200
C 	C 	0.59062 0.64749 0.78339 -0.02800
C 	C 	0.55977 0.58573 0.80158 -0.03000
C 	C 	0.69730 0.79682 0.77289 0.05400
C 	C 	0.75883 0.84519 0.76039 -0.08800
H 	H 	0.65510 0.82684 0.81639 0.05700
H 	H 	0.59123 0.62781 0.76535 0.04800
H 	H 	0.53619 0.51886 0.79742 0.04900
C 	C 	0.92008 0.39254 0.82050 -0.03100
H 	H 	0.90481 0.44431 0.81850 0.05200
C 	C 	0.72907 0.36347 0.88814 0.31100
C 	C 	0.37205 0.26106 0.92303 0.33400
C 	C 	0.57920 0.46141 0.87809 0.33000
Ni	Ni	0.53470 0.29019 0.89910 1.11700
Ni	Ni	0.68044 0.47070 0.92061 1.13100
O 	O 	0.65224 0.29109 0.89077 -0.35700
O 	O 	0.73633 0.43994 0.89266 -0.35800
O 	O 	0.42922 0.30938 0.90699 -0.37400
O 	O 	0.40084 0.25359 0.94389 -0.34300
O 	O 	0.57466 0.38750 0.87359 -0.36900
O 	O 	0.60255 0.49562 0.89899 -0.35100
O 	O 	0.47798 0.17203 0.91811 -0.34100
O 	O 	0.59396 0.35335 0.92570 -0.72100
H 	H 	0.63230 0.32816 0.92925 0.18100
F 	F 	0.31512 0.03586 0.92790 -0.40200
F 	F 	0.53484 0.63284 0.93207 -0.38200
C 	C 	0.92275 0.28060 0.84442 -0.03100
C 	C 	0.90189 0.34687 0.84197 0.00700
C 	C 	0.84648 0.35635 0.85949 0.05500
C 	C 	0.79539 0.36124 0.87320 -0.07600
H 	H 	0.90956 0.24538 0.86100 0.05700
C 	C 	0.15842 0.08213 0.88841 0.04600
C 	C 	0.17027 0.01631 0.87866 -0.08700
C 	C 	0.14425 0.99024 0.85542 0.04100
C 	C 	0.10377 0.02799 0.84221 -0.03900
C 	C 	0.07778 0.08204 0.85345 -0.00300
C 	C 	0.10449 0.10854 0.87662 -0.04900
C 	C 	0.22449 0.14084 0.90442 0.07100
C 	C 	0.28793 0.19431 0.91492 -0.06400
H 	H 	0.20871 0.99264 0.88800 0.12400
H 	H 	0.16195 0.94606 0.84714 0.04700
H 	H 	0.04363 0.10930 0.84363 0.04100
H 	H 	0.09180 0.15693 0.88434 0.06400
C 	C 	0.56774 0.61151 0.82517 0.00700
C 	C 	0.59530 0.69766 0.83027 -0.02700
C 	C 	0.56658 0.55516 0.84366 0.06300
C 	C 	0.57043 0.51077 0.85925 -0.08200
H 	H 	0.59930 0.71785 0.84845 0.07100
C 	C 	0.49231 0.15693 0.94046 0.37900
F 	F 	0.48195 0.93451 0.99337 -0.38100
F 	F 	0.95530 0.71535 0.99582 -0.37000
C 	C 	0.91720 0.62829 0.99646 0.28900
F 	F 	0.79087 0.61671 0.97647 -0.36800
C 	C 	0.57106 0.50997 0.95370 0.42100
C 	C 	0.72805 0.43999 0.96764 0.40100
Ni	Ni	0.52977 0.33037 0.95486 1.13200
O 	O 	0.50691 0.42988 0.95261 -0.37500
O 	O 	0.75190 0.45101 0.94499 -0.36800
O 	O 	0.64256 0.39567 0.97488 -0.32300
O 	O 	0.53562 0.22004 0.95571 -0.33800
O 	O 	0.65174 0.53286 0.94592 -0.33400
C 	C 	0.40341 0.65359 0.00500 0.38600
C 	C 	0.05989 0.64100 0.00982 0.41400
C 	C 	0.29759 0.82613 0.98613 0.39300
Ni	Ni	0.22356 0.64035 0.99640 1.13200
O 	O 	0.32434 0.61135 0.99467 -0.34800
O 	O 	0.29601 0.75415 0.97928 -0.33000
O 	O 	0.23912 0.82448 0.00197 -0.34300
O 	O 	0.11519 0.65334 0.99224 -0.36100
C 	C 	0.92167 0.49900 0.00748 0.27800
C 	C 	0.96372 0.58919 0.00583 -0.20300
C 	C 	0.83372 0.57794 0.98634 0.28000
C 	C 	0.79718 0.48822 0.98507 -0.18100
C 	C 	0.83908 0.44861 0.99682 0.27700
F 	F 	0.80231 0.36169 0.99675 -0.37400
F 	F 	0.96184 0.46029 0.01880 -0.39700
C 	C 	0.48897 0.03979 0.96587 0.25300
C 	C 	0.44662 0.06709 0.94951 -0.17600
C 	C 	0.35710 0.01108 0.94373 0.25000
C 	C 	0.30940 0.93088 0.95508 0.30500
C 	C 	0.35063 0.90547 0.97218 -0.19600
C 	C 	0.44110 0.95924 0.97713 0.30500
F 	F 	0.57611 0.09168 0.97105 -0.36700
F 	F 	0.22232 0.87867 0.94989 -0.37400
C 	C 	0.49203 0.66501 0.96915 0.27700
C 	C 	0.47816 0.64955 0.99363 -0.17700
C 	C 	0.51736 0.60686 0.00530 0.27700
C 	C 	0.55587 0.56730 0.99215 0.29000
C 	C 	0.55623 0.57110 0.96738 -0.19300
C 	C 	0.52974 0.62467 0.95599 0.28800
F 	F 	0.46095 0.71217 0.95786 -0.37300
F 	F 	0.58709 0.52017 0.00339 -0.37700
