data_crystal

_cell_length_a 25.92733
_cell_length_b 26.53655
_cell_length_c 40.17304
_cell_angle_alpha 95.49372
_cell_angle_beta  95.48858
_cell_angle_gamma 125.83647

_symmetry_space_group_name_	'P 1'
_symmetry_space_group_name_H-M	'P 1'

loop_
_symmetry_equiv_pos_as_xyz
  x,y,z

loop_
_atom_site_label
_atom_site_type_symbol
_atom_site_fract_x
_atom_site_fract_y
_atom_site_fract_z
_atom_site_charge
C 	C 	0.96977 0.03435 0.99389 0.15700
C 	C 	0.06121 0.03872 0.98664 0.15900
N 	N 	0.03379 0.06858 0.99252 -0.12600
N 	N 	0.99351 0.02379 0.46584 -0.13600
Cu	Cu	0.64470 0.25376 0.00678 0.93300
Cu	Cu	0.69465 0.24816 0.93551 0.88000
Cu	Cu	0.69139 0.35398 0.96235 0.90100
Cu	Cu	0.66062 0.37936 0.02902 0.91000
C 	C 	0.66067 0.30015 0.07751 0.29300
O 	O 	0.55308 0.22633 0.00537 -0.34700
C 	C 	0.66670 0.30673 0.88827 0.29200
O 	O 	0.70576 0.35224 0.00981 -0.63800
O 	O 	0.63932 0.26027 0.95823 -0.64000
O 	O 	0.67604 0.20087 0.00527 -0.35800
O 	O 	0.75208 0.26156 0.97430 -0.41300
O 	O 	0.63961 0.33227 0.06765 -0.35900
O 	O 	0.74562 0.44524 0.96941 -0.36400
C 	C 	0.73742 0.48180 0.98917 0.31300
C 	C 	0.53417 0.25805 0.99253 0.30200
O 	O 	0.57743 0.31622 0.98844 -0.37600
O 	O 	0.71014 0.46473 0.01622 -0.36000
O 	O 	0.66461 0.26317 0.05513 -0.34700
C 	C 	0.73084 0.22137 0.99524 0.30900
O 	O 	0.69115 0.35548 0.91332 -0.37600
O 	O 	0.65821 0.25439 0.89392 -0.40400
H 	H 	0.75186 0.37605 0.02064 0.19000
H 	H 	0.59490 0.23715 0.94494 0.17900
Cu	Cu	0.73607 0.33411 0.46120 0.93300
Cu	Cu	0.74293 0.29250 0.53500 0.88400
Cu	Cu	0.63301 0.29206 0.50552 0.90200
Cu	Cu	0.60865 0.32055 0.43783 0.90100
C 	C 	0.68305 0.30726 0.39006 0.29100
O 	O 	0.76696 0.42416 0.46005 -0.33700
C 	C 	0.68107 0.32065 0.57999 0.29100
O 	O 	0.63500 0.27640 0.45836 -0.64000
O 	O 	0.72926 0.34331 0.50972 -0.63700
O 	O 	0.78836 0.30123 0.46428 -0.34300
O 	O 	0.72750 0.23238 0.49803 -0.42500
O 	O 	0.65306 0.33206 0.39813 -0.37100
O 	O 	0.53942 0.23791 0.49816 -0.36400
C 	C 	0.50125 0.23997 0.47499 0.31700
C 	C 	0.73550 0.44491 0.47155 0.30600
O 	O 	0.67635 0.40429 0.47652 -0.38300
O 	O 	0.52460 0.28067 0.45400 -0.37600
O 	O 	0.72608 0.31137 0.41304 -0.34800
C 	C 	0.76778 0.24976 0.47672 0.31000
O 	O 	0.63100 0.29384 0.55463 -0.37500
O 	O 	0.73597 0.33142 0.57498 -0.40000
H 	H 	0.61001 0.23105 0.44799 0.18000
H 	H 	0.75255 0.38743 0.52188 0.19200
C 	C 	0.67232 0.33014 0.61523 -0.08000
C 	C 	0.72590 0.37687 0.64057 0.02200
C 	C 	0.71970 0.37975 0.67477 -0.06200
C 	C 	0.65997 0.33612 0.68388 0.04600
C 	C 	0.60563 0.29174 0.65853 -0.06200
C 	C 	0.61166 0.28879 0.62431 0.02100
C 	C 	0.65591 0.33281 0.71919 -0.00900
C 	C 	0.65245 0.32999 0.74875 -0.00900
C 	C 	0.64932 0.32553 0.78404 0.04600
C 	C 	0.60835 0.26624 0.79310 -0.06300
C 	C 	0.61184 0.26046 0.82733 0.02200
C 	C 	0.65661 0.31402 0.85277 -0.08100
C 	C 	0.69530 0.37387 0.84369 0.02200
C 	C 	0.69171 0.37949 0.80943 -0.06200
H 	H 	0.77266 0.40990 0.63387 0.04700
H 	H 	0.76180 0.41464 0.69423 0.06200
H 	H 	0.55919 0.25812 0.66540 0.06200
H 	H 	0.56979 0.25273 0.60506 0.04900
H 	H 	0.57508 0.22436 0.77360 0.06100
H 	H 	0.58077 0.21420 0.83399 0.04300
H 	H 	0.72982 0.41567 0.86300 0.05000
H 	H 	0.72332 0.42553 0.80260 0.06300
C 	C 	0.66439 0.29345 0.11350 -0.07000
C 	C 	0.62314 0.29583 0.13277 0.02300
C 	C 	0.62707 0.29041 0.16698 -0.05800
C 	C 	0.67211 0.28254 0.18230 0.04700
C 	C 	0.71298 0.27949 0.16316 -0.05800
C 	C 	0.70909 0.28482 0.12881 0.02100
C 	C 	0.67710 0.27917 0.21790 -0.00600
C 	C 	0.67896 0.27669 0.24775 -0.00700
C 	C 	0.67910 0.27493 0.28346 0.04800
C 	C 	0.73784 0.30650 0.30647 -0.06000
C 	C 	0.73891 0.31399 0.34155 0.02700
C 	C 	0.68116 0.29030 0.35377 -0.07500
C 	C 	0.62209 0.25584 0.33066 0.02300
C 	C 	0.62109 0.24812 0.29565 -0.06000
H 	H 	0.58775 0.30149 0.12119 0.05800
H 	H 	0.59520 0.29261 0.18162 0.06500
H 	H 	0.74797 0.27343 0.17488 0.06500
H 	H 	0.74124 0.28299 0.11425 0.05300
H 	H 	0.78289 0.32718 0.29723 0.06600
H 	H 	0.78482 0.34054 0.35912 0.05500
H 	H 	0.57717 0.23666 0.33981 0.03700
H 	H 	0.57545 0.22332 0.27800 0.06400
C 	C 	0.76047 0.51112 0.47170 -0.09700
C 	C 	0.82325 0.56181 0.48912 0.15100
C 	C 	0.72100 0.52372 0.45400 -0.00600
H 	H 	0.67259 0.48495 0.44066 0.05700
Br	Br	0.87681 0.54709 0.51614 -0.21900
C 	C 	0.79044 0.21183 0.46725 -0.10000
C 	C 	0.85584 0.23653 0.47744 0.14600
C 	C 	0.87457 0.19677 0.47307 -0.08300
C 	C 	0.82860 0.13239 0.45875 0.02900
C 	C 	0.76377 0.10825 0.44735 0.08300
C 	C 	0.74501 0.14799 0.45164 -0.00700
H 	H 	0.92461 0.21558 0.48164 0.09100
C 	C 	0.84795 0.08990 0.45786 0.01600
H 	H 	0.69473 0.12886 0.44358 0.06500
C 	C 	0.84311 0.05963 0.48544 -0.06600
C 	C 	0.86669 0.02385 0.48658 0.12300
C 	C 	0.89519 0.01790 0.45978 -0.03500
C 	C 	0.89807 0.04649 0.43168 -0.03600
C 	C 	0.87464 0.08240 0.43061 0.09900
H 	H 	0.82233 0.06510 0.50639 0.08400
H 	H 	0.91976 0.04187 0.41096 0.08000
Br	Br	0.70003 0.02095 0.42638 -0.18700
Br	Br	0.91958 0.32338 0.49930 -0.22200
Br	Br	0.88024 0.12153 0.39197 -0.18500
C 	C 	0.09483 0.03513 0.47147 -0.03600
C 	C 	0.13469 0.04297 0.50100 0.12600
C 	C 	0.20135 0.07641 0.50225 -0.06700
C 	C 	0.22880 0.10271 0.47441 0.01600
C 	C 	0.18908 0.09564 0.44508 0.10000
C 	C 	0.12242 0.06213 0.44380 -0.03400
H 	H 	0.23193 0.08230 0.52496 0.08500
C 	C 	0.29912 0.13769 0.47617 0.02900
H 	H 	0.09188 0.05625 0.42107 0.08100
C 	C 	0.32369 0.10510 0.46540 -0.08300
C 	C 	0.38997 0.13800 0.46546 0.14900
C 	C 	0.43220 0.20410 0.47649 -0.09600
C 	C 	0.40778 0.23648 0.48788 -0.00500
C 	C 	0.34158 0.20359 0.48792 0.08400
H 	H 	0.29110 0.05432 0.45650 0.09000
H 	H 	0.44026 0.28733 0.49656 0.06900
Br	Br	0.22507 0.13119 0.40652 -0.18600
Br	Br	0.42159 0.09223 0.44928 -0.22600
Br	Br	0.30987 0.24946 0.50377 -0.18500
C 	C 	0.76956 0.54736 0.98464 -0.09300
C 	C 	0.73308 0.56419 0.96815 -0.00800
H 	H 	0.68215 0.52826 0.95752 0.06500
Br	Br	0.88717 0.57273 0.02110 -0.20800
C 	C 	0.76381 0.19300 0.00355 -0.09900
C 	C 	0.82926 0.23134 0.01989 0.15100
C 	C 	0.86366 0.20591 0.02168 -0.08300
C 	C 	0.83325 0.14243 0.00725 0.03000
C 	C 	0.76668 0.10305 0.99302 0.08200
C 	C 	0.73224 0.12843 0.99136 -0.01200
H 	H 	0.91450 0.23593 0.03343 0.09000
C 	C 	0.87222 0.11874 0.00498 0.01600
H 	H 	0.68160 0.09853 0.97922 0.06100
C 	C 	0.87738 0.08860 0.03050 -0.06600
C 	C 	0.91082 0.06238 0.02762 0.12600
C 	C 	0.93949 0.06636 0.99894 -0.03300
C 	C 	0.93639 0.09861 0.97408 -0.03700
C 	C 	0.90280 0.12461 0.97691 0.09900
H 	H 	0.85473 0.08487 0.05238 0.08700
H 	H 	0.95887 0.10223 0.95214 0.08800
Br	Br	0.72271 0.01516 0.97447 -0.19100
Br	Br	0.87212 0.31824 0.04025 -0.21600
Br	Br	0.89786 0.16673 0.94181 -0.19800
C 	C 	0.46531 0.23173 0.98750 -0.09900
C 	C 	0.44429 0.26172 0.00662 0.15500
C 	C 	0.37805 0.23272 0.00398 -0.08200
C 	C 	0.33234 0.17315 0.98325 0.02800
C 	C 	0.35324 0.14391 0.96349 0.08400
C 	C 	0.41953 0.17333 0.96567 -0.00700
H 	H 	0.36202 0.25532 0.01916 0.09100
C 	C 	0.26306 0.13956 0.98451 0.01400
H 	H 	0.43544 0.15014 0.95090 0.05900
C 	C 	0.22383 0.14441 0.96057 -0.06600
C 	C 	0.15784 0.11223 0.96123 0.12500
C 	C 	0.13094 0.07564 0.98646 -0.03300
C 	C 	0.17045 0.07148 0.01063 -0.03500
C 	C 	0.23619 0.10312 0.00974 0.10100
H 	H 	0.24443 0.17245 0.94113 0.08700
H 	H 	0.14988 0.04320 0.02999 0.08000
Br	Br	0.29192 0.06288 0.93427 -0.19100
Br	Br	0.50480 0.33960 0.03861 -0.24100
Br	Br	0.10474 0.11626 0.92649 -0.18800
Br	Br	0.28841 0.09526 0.04289 -0.19000
C 	C 	0.84641 0.62422 0.48786 -0.08300
C 	C 	0.80712 0.63660 0.46979 0.03000
C 	C 	0.74396 0.58604 0.45302 0.08200
H 	H 	0.89490 0.66312 0.50102 0.09200
C 	C 	0.83333 0.70248 0.46742 0.01500
C 	C 	0.86152 0.72729 0.43945 -0.06500
C 	C 	0.88782 0.78998 0.43707 0.12400
C 	C 	0.85677 0.80337 0.49054 -0.03500
C 	C 	0.83006 0.74048 0.49281 0.10100
H 	H 	0.86295 0.69778 0.41953 0.08700
Br	Br	0.68831 0.60123 0.42867 -0.18600
Br	Br	0.78981 0.70741 0.53086 -0.18300
C 	C 	0.88633 0.76824 0.95255 -0.06500
C 	C 	0.85767 0.74164 0.98007 0.01400
C 	C 	0.85969 0.77983 0.00780 0.10200
H 	H 	0.88396 0.73870 0.93095 0.08600
C 	C 	0.82760 0.67432 0.98022 0.03000
C 	C 	0.86450 0.65722 0.99590 -0.08500
C 	C 	0.83575 0.59407 0.99829 0.15200
C 	C 	0.76180 0.62738 0.96581 0.08500
H 	H 	0.91527 0.69324 0.00681 0.09200
Br	Br	0.81919 0.74455 0.04543 -0.17900
Br	Br	0.71023 0.64893 0.94344 -0.18500
C 	C 	0.88697 0.82881 0.46315 -0.02900
H 	H 	0.85571 0.83299 0.51058 0.09000
Br	Br	0.92335 0.82134 0.39761 -0.19200
C 	C 	0.91799 0.83279 0.95281 0.12300
C 	C 	0.89184 0.84446 0.00822 -0.03600
C 	C 	0.92216 0.87151 0.98116 -0.03200
H 	H 	0.89439 0.87395 0.02993 0.08900
Br	Br	0.95264 0.86655 0.91359 -0.18200
Br	Br	0.91830 0.02291 0.06352 -0.19500
C 	C 	0.92407 0.89725 0.46402 0.16100
N 	N 	0.89325 0.92452 0.46153 -0.12400
N 	N 	0.98954 0.93343 0.46776 -0.12400
C 	C 	0.96062 0.94041 0.98354 0.15900
Br	Br	0.09930 0.01025 0.54025 -0.19100
C 	C 	0.02429 0.99665 0.46876 0.16700
C 	C 	0.92808 0.98795 0.46257 0.16300
N 	N 	0.93316 0.97025 0.98915 -0.12400
N 	N 	0.02481 0.97477 0.98273 -0.12500
Br	Br	0.86271 0.98638 0.52577 -0.18700
