data_crystal

_cell_length_a 30.12092
_cell_length_b 30.31889
_cell_length_c 30.85288
_cell_angle_alpha 95.53674
_cell_angle_beta  95.51134
_cell_angle_gamma 125.60142

_symmetry_space_group_name_	'P 1'
_symmetry_space_group_name_H-M	'P 1'

loop_
_symmetry_equiv_pos_as_xyz
  x,y,z

loop_
_atom_site_label
_atom_site_type_symbol
_atom_site_fract_x
_atom_site_fract_y
_atom_site_fract_z
_atom_site_charge
C 	C 	0.97251 0.03599 0.99497 0.10800
N 	N 	0.02737 0.06125 0.99446 -0.13800
C 	C 	0.04648 0.03055 0.98793 0.11600
N 	N 	0.01068 0.97467 0.98186 -0.13700
C 	C 	0.95584 0.94920 0.98197 0.11400
N 	N 	0.93682 0.97996 0.98845 -0.14000
C 	C 	0.95273 0.99496 0.45587 0.12100
N 	N 	0.92526 0.94033 0.45681 -0.14200
C 	C 	0.95366 0.91839 0.46081 0.11500
N 	N 	0.00963 0.95117 0.46322 -0.13700
C 	C 	0.03726 0.00571 0.46195 0.11700
N 	N 	0.00875 0.02755 0.45861 -0.14000
Cu	Cu	0.64459 0.26487 0.00460 0.92700
Cu	Cu	0.67998 0.25105 0.90964 0.87000
Cu	Cu	0.67363 0.34350 0.93920 0.89600
Cu	Cu	0.65072 0.37218 0.02608 0.89400
C 	C 	0.66870 0.31888 0.09430 0.28300
O 	O 	0.56487 0.23710 0.00534 -0.36300
C 	C 	0.64986 0.29373 0.84425 0.28300
O 	O 	0.69108 0.34960 0.00191 -0.63800
O 	O 	0.63383 0.26303 0.94004 -0.64200
O 	O 	0.67628 0.22248 0.00568 -0.37400
O 	O 	0.73434 0.27033 0.95913 -0.44300
O 	O 	0.64243 0.33913 0.08028 -0.38400
O 	O 	0.71521 0.42243 0.94279 -0.38600
C 	C 	0.70642 0.45456 0.96635 0.29200
C 	C 	0.54373 0.25982 0.98641 0.28200
O 	O 	0.57708 0.30947 0.97738 -0.39600
O 	O 	0.68579 0.44262 0.00311 -0.39500
O 	O 	0.66674 0.28056 0.06789 -0.36100
C 	C 	0.72090 0.23862 0.98891 0.28900
O 	O 	0.66968 0.33827 0.87436 -0.38700
O 	O 	0.64261 0.24937 0.85536 -0.42100
H 	H 	0.73138 0.37329 0.01449 0.16400
H 	H 	0.59456 0.24005 0.92456 0.17100
Cu	Cu	0.73369 0.32885 0.44176 0.92800
Cu	Cu	0.73786 0.28600 0.53497 0.87000
Cu	Cu	0.64868 0.29677 0.50209 0.89700
Cu	Cu	0.63139 0.33084 0.41752 0.89300
C 	C 	0.69019 0.31681 0.35075 0.28300
O 	O 	0.76708 0.40974 0.44422 -0.36500
C 	C 	0.69223 0.31632 0.59754 0.28300
O 	O 	0.64799 0.28544 0.43983 -0.64100
O 	O 	0.73034 0.33532 0.50558 -0.64200
O 	O 	0.77281 0.29384 0.44116 -0.37600
O 	O 	0.71930 0.23350 0.48434 -0.44300
O 	O 	0.66850 0.34166 0.36498 -0.38400
O 	O 	0.56878 0.25557 0.49423 -0.38200
C 	C 	0.53761 0.25891 0.46350 0.28900
C 	C 	0.74567 0.43217 0.46333 0.28200
O 	O 	0.69408 0.40041 0.46945 -0.39200
O 	O 	0.55999 0.29834 0.43960 -0.39600
O 	O 	0.72211 0.31116 0.37848 -0.36000
C 	C 	0.75245 0.24726 0.45545 0.28900
O 	O 	0.64834 0.29452 0.56580 -0.38800
O 	O 	0.73675 0.32086 0.58938 -0.41900
H 	H 	0.62345 0.24625 0.42468 0.16200
H 	H 	0.75330 0.37357 0.52268 0.17100
C 	C 	0.68759 0.32640 0.64393 -0.07600
C 	C 	0.73285 0.37321 0.67366 0.00400
C 	C 	0.73176 0.37918 0.71896 -0.05900
C 	C 	0.68578 0.33785 0.73512 0.01200
C 	C 	0.63924 0.29161 0.70513 0.01200
C 	C 	0.64001 0.28661 0.65953 -0.02100
C 	C 	0.59389 0.24955 0.72137 -0.06000
C 	C 	0.59612 0.25172 0.76705 0.00500
C 	C 	0.64318 0.29645 0.79697 -0.07700
C 	C 	0.68700 0.34053 0.78095 -0.02100
H 	H 	0.76937 0.40446 0.66175 0.02900
H 	H 	0.76740 0.41513 0.74160 0.04000
H 	H 	0.60493 0.25051 0.63655 0.04100
H 	H 	0.55768 0.21426 0.69867 0.04100
H 	H 	0.56184 0.21790 0.77922 0.02900
H 	H 	0.72329 0.37522 0.80408 0.03800
C 	C 	0.68783 0.32882 0.14232 -0.07200
C 	C 	0.71710 0.38241 0.16725 0.00400
C 	C 	0.72726 0.39132 0.21350 -0.05800
C 	C 	0.70799 0.34663 0.23541 0.01400
C 	C 	0.68112 0.29292 0.21058 0.01300
C 	C 	0.67152 0.28431 0.16401 -0.01700
C 	C 	0.66204 0.24828 0.23265 -0.05600
C 	C 	0.66722 0.25653 0.27883 0.00200
C 	C 	0.69134 0.30934 0.30326 -0.06900
C 	C 	0.71312 0.35456 0.28167 -0.01800
H 	H 	0.73059 0.41704 0.15070 0.02200
H 	H 	0.74879 0.43279 0.23226 0.04200
H 	H 	0.64917 0.24289 0.14479 0.04700
H 	H 	0.64209 0.20704 0.21404 0.04300
H 	H 	0.65096 0.22159 0.29545 0.02900
H 	H 	0.73265 0.39553 0.30076 0.04400
C 	C 	0.92391 0.85922 0.46294 -0.02500
C 	C 	0.87435 0.83099 0.47977 -0.01500
C 	C 	0.84661 0.77519 0.48215 -0.05900
C 	C 	0.86847 0.74724 0.46841 0.03300
C 	C 	0.91764 0.77517 0.45117 -0.05900
C 	C 	0.94527 0.83086 0.44852 -0.01600
C 	C 	0.83774 0.68776 0.46939 -0.04800
C 	C 	0.86341 0.66808 0.48820 -0.05600
C 	C 	0.83440 0.60800 0.48494 0.04600
C 	C 	0.86041 0.58427 0.47151 -0.07700
C 	C 	0.83227 0.52714 0.46595 0.01700
C 	C 	0.77774 0.49306 0.47399 -0.09300
C 	C 	0.75291 0.51730 0.48983 0.01500
C 	C 	0.78121 0.57449 0.49546 -0.07600
H 	H 	0.85751 0.85231 0.49130 0.03800
H 	H 	0.80830 0.75376 0.49496 0.04300
H 	H 	0.93404 0.75355 0.43927 0.04300
H 	H 	0.98291 0.85173 0.43481 0.03800
H 	H 	0.79368 0.65995 0.45496 0.04100
H 	H 	0.90744 0.69613 0.50277 0.04200
H 	H 	0.90199 0.60998 0.46438 0.04600
H 	H 	0.85257 0.50938 0.45467 0.03400
H 	H 	0.71144 0.49189 0.49718 0.03000
H 	H 	0.76163 0.59265 0.50765 0.04700
C 	C 	0.76996 0.21236 0.44166 -0.10000
C 	C 	0.81982 0.23509 0.42566 0.01900
C 	C 	0.83942 0.20369 0.41740 -0.07900
C 	C 	0.80974 0.14958 0.42544 0.04700
C 	C 	0.75841 0.12580 0.43902 -0.07900
C 	C 	0.73865 0.15703 0.44715 0.01700
C 	C 	0.83314 0.11842 0.42045 -0.05700
C 	C 	0.83977 0.09646 0.45410 -0.04900
C 	C 	0.86634 0.06812 0.45074 0.03500
C 	C 	0.84433 0.01941 0.46762 -0.06600
C 	C 	0.87187 0.99495 0.46856 -0.00600
C 	C 	0.92200 0.01914 0.45276 -0.03400
C 	C 	0.94364 0.06758 0.43529 -0.01200
C 	C 	0.91632 0.09225 0.43474 -0.06100
H 	H 	0.84418 0.27748 0.42081 0.03300
H 	H 	0.87855 0.22200 0.40607 0.04700
H 	H 	0.73423 0.08338 0.44386 0.04600
H 	H 	0.69940 0.13842 0.45829 0.02600
H 	H 	0.84820 0.11642 0.39023 0.04300
H 	H 	0.82422 0.09823 0.48411 0.03900
H 	H 	0.80620 0.00087 0.48055 0.04200
H 	H 	0.85482 0.95789 0.48245 0.03600
H 	H 	0.98194 0.08648 0.42258 0.03600
H 	H 	0.93467 0.13074 0.42283 0.04300
C 	C 	0.09804 0.04107 0.46388 -0.02400
C 	C 	0.12322 0.08783 0.44380 -0.01500
C 	C 	0.18065 0.12108 0.44545 -0.05800
C 	C 	0.21340 0.10756 0.46656 0.03300
C 	C 	0.18849 0.06130 0.48714 -0.05700
C 	C 	0.13111 0.02815 0.48573 -0.02000
C 	C 	0.27412 0.14340 0.46864 -0.04700
C 	C 	0.30034 0.12211 0.45558 -0.05600
C 	C 	0.36120 0.15776 0.45790 0.04700
C 	C 	0.39288 0.14126 0.47549 -0.07700
C 	C 	0.45033 0.17415 0.47723 0.01800
C 	C 	0.47672 0.22388 0.46114 -0.09100
C 	C 	0.44471 0.23982 0.44269 0.01800
C 	C 	0.38723 0.20674 0.44078 -0.07600
H 	H 	0.09830 0.09819 0.42660 0.03900
H 	H 	0.19963 0.15706 0.42991 0.04300
H 	H 	0.21365 0.05135 0.50457 0.04300
H 	H 	0.11251 0.99282 0.50203 0.04300
H 	H 	0.29717 0.18776 0.47917 0.04100
H 	H 	0.27718 0.07770 0.44521 0.04300
H 	H 	0.37303 0.10304 0.48802 0.04600
H 	H 	0.47422 0.16077 0.49083 0.03000
H 	H 	0.46427 0.27787 0.42995 0.03200
H 	H 	0.36292 0.21897 0.42573 0.04700
C 	C 	0.72812 0.50930 0.95555 -0.09100
C 	C 	0.77470 0.53681 0.93502 0.02000
C 	C 	0.79788 0.59059 0.92829 -0.07800
C 	C 	0.77511 0.61749 0.94238 0.04800
C 	C 	0.72696 0.58909 0.96090 -0.07700
C 	C 	0.70370 0.53534 0.96758 0.01900
C 	C 	0.80243 0.67575 0.93838 -0.05600
C 	C 	0.81685 0.71394 0.97391 -0.04800
C 	C 	0.84910 0.77327 0.97158 0.03300
C 	C 	0.83605 0.80589 0.99358 -0.05900
C 	C 	0.86990 0.86309 0.99592 -0.01600
C 	C 	0.91741 0.88836 0.97641 -0.02500
C 	C 	0.92971 0.85548 0.95348 -0.01600
C 	C 	0.89618 0.79840 0.95154 -0.05800
H 	H 	0.79380 0.51717 0.92529 0.03200
H 	H 	0.83447 0.61188 0.91327 0.04600
H 	H 	0.70795 0.60886 0.97054 0.04700
H 	H 	0.66695 0.51410 0.98242 0.02800
H 	H 	0.81435 0.68810 0.90708 0.04300
H 	H 	0.80426 0.70128 0.00500 0.04200
H 	H 	0.80018 0.78700 0.00954 0.04300
H 	H 	0.85996 0.88783 0.01392 0.03900
H 	H 	0.96579 0.87421 0.93778 0.03800
H 	H 	0.90768 0.77398 0.93552 0.04200
C 	C 	0.75239 0.21634 0.99968 -0.10100
C 	C 	0.72939 0.16998 0.02017 0.01900
C 	C 	0.75604 0.14485 0.02515 -0.07900
C 	C 	0.80612 0.16597 0.01010 0.04700
C 	C 	0.83002 0.21333 0.99087 -0.08000
C 	C 	0.80370 0.23875 0.98624 0.01600
C 	C 	0.82965 0.13455 0.00980 -0.05700
C 	C 	0.88476 0.16031 0.02086 -0.04700
C 	C 	0.90833 0.12923 0.01565 0.03100
C 	C 	0.95295 0.14834 0.99326 -0.05600
C 	C 	0.97444 0.11837 0.98697 -0.02500
C 	C 	0.95182 0.06921 0.00344 -0.02000
C 	C 	0.90836 0.05112 0.02717 -0.01800
C 	C 	0.88693 0.08111 0.03344 -0.05700
H 	H 	0.69010 0.15236 0.03103 0.03400
H 	H 	0.73710 0.10822 0.03985 0.04700
H 	H 	0.86797 0.22939 0.97815 0.04500
H 	H 	0.82250 0.27498 0.97104 0.02500
H 	H 	0.80149 0.08978 0.00046 0.04200
H 	H 	0.91295 0.20501 0.03076 0.04000
H 	H 	0.97029 0.18588 0.98000 0.04000
H 	H 	0.00797 0.13285 0.96865 0.04300
H 	H 	0.89131 0.01393 0.04089 0.03700
H 	H 	0.85375 0.06698 0.05210 0.04300
C 	C 	0.10599 0.05759 0.98822 -0.02600
C 	C 	0.13273 0.03814 0.00994 -0.01400
C 	C 	0.18727 0.05919 0.00613 -0.05800
C 	C 	0.21591 0.10024 0.98091 0.03300
C 	C 	0.18961 0.12056 0.95981 -0.05800
C 	C 	0.13500 0.09960 0.96375 -0.01500
C 	C 	0.27180 0.11857 0.97411 -0.04800
C 	C 	0.31424 0.17250 0.97987 -0.05600
C 	C 	0.37137 0.19067 0.97814 0.04600
C 	C 	0.40363 0.23090 0.95327 -0.07700
C 	C 	0.45917 0.25163 0.95431 0.01500
C 	C 	0.48335 0.23298 0.98091 -0.09400
C 	C 	0.45056 0.19169 0.00501 0.01800
C 	C 	0.39502 0.17094 0.00386 -0.07500
H 	H 	0.11092 0.00606 0.02921 0.03800
H 	H 	0.20712 0.04317 0.02243 0.04300
H 	H 	0.21085 0.15144 0.93946 0.04300
H 	H 	0.11467 0.11464 0.94656 0.03700
H 	H 	0.27935 0.08777 0.96784 0.04000
H 	H 	0.30686 0.20347 0.98568 0.04300
H 	H 	0.38580 0.24646 0.93341 0.04600
H 	H 	0.48362 0.28285 0.93503 0.02900
H 	H 	0.46849 0.17692 0.02577 0.03600
H 	H 	0.37082 0.14061 0.02387 0.04800
