data_crystal

_cell_length_a 26.32768
_cell_length_b 26.37282
_cell_length_c 35.02224
_cell_angle_alpha 95.51502
_cell_angle_beta  95.51228
_cell_angle_gamma 125.86309

_symmetry_space_group_name_	'P 1'
_symmetry_space_group_name_H-M	'P 1'

loop_
_symmetry_equiv_pos_as_xyz
  x,y,z

loop_
_atom_site_label
_atom_site_type_symbol
_atom_site_fract_x
_atom_site_fract_y
_atom_site_fract_z
_atom_site_charge
C 	C 	0.98360 0.04529 0.98601 0.03500
C 	C 	0.94674 0.97883 0.98239 -0.08000
C 	C 	0.97606 0.94838 0.98162 0.03400
C 	C 	0.04236 0.98454 0.98443 -0.08200
C 	C 	0.07927 0.05078 0.98758 0.03200
C 	C 	0.04997 0.08124 0.98858 -0.08200
H 	H 	0.89545 0.95095 0.98027 0.04800
H 	H 	0.06526 0.96121 0.98434 0.04900
H 	H 	0.07854 0.13253 0.99100 0.05000
C 	C 	0.93180 0.99606 0.47039 0.02400
C 	C 	0.99789 0.03385 0.47156 -0.06400
C 	C 	0.03060 0.00689 0.47403 0.01900
C 	C 	0.99705 0.94204 0.47569 -0.06500
C 	C 	0.93120 0.90428 0.47521 0.02500
C 	C 	0.89845 0.93120 0.47223 -0.07200
H 	H 	0.02375 0.08404 0.47044 0.04400
H 	H 	0.02205 0.92088 0.47711 0.04400
H 	H 	0.84747 0.90200 0.47166 0.04700
Cu	Cu	0.65728 0.25751 0.00351 0.92600
Cu	Cu	0.69223 0.25226 0.91712 0.86400
Cu	Cu	0.68086 0.34967 0.94895 0.89500
Cu	Cu	0.67676 0.38615 0.03264 0.89200
C 	C 	0.67727 0.30277 0.08474 0.29700
O 	O 	0.56810 0.22512 0.01055 -0.37600
C 	C 	0.64167 0.29640 0.86405 0.29400
O 	O 	0.71237 0.35591 0.00233 -0.64000
O 	O 	0.63724 0.25716 0.94771 -0.64400
O 	O 	0.69244 0.20846 0.99812 -0.37400
O 	O 	0.75662 0.26999 0.95789 -0.44400
O 	O 	0.68984 0.35847 0.08149 -0.39200
O 	O 	0.73033 0.44075 0.95161 -0.38800
C 	C 	0.73978 0.48199 0.98133 0.29500
C 	C 	0.54556 0.25724 0.00378 0.28200
O 	O 	0.58323 0.31501 0.99663 -0.39300
O 	O 	0.70634 0.46317 0.00952 -0.39800
O 	O 	0.68773 0.27266 0.05812 -0.36900
C 	C 	0.74269 0.23007 0.98184 0.28900
O 	O 	0.65300 0.34016 0.89294 -0.38700
O 	O 	0.64658 0.25074 0.87053 -0.42800
H 	H 	0.75936 0.38081 0.00921 0.16200
H 	H 	0.59143 0.22993 0.93546 0.17300
Cu	Cu	0.71999 0.32309 0.44910 0.92800
Cu	Cu	0.69968 0.25641 0.52558 0.86200
Cu	Cu	0.62742 0.30247 0.50193 0.89300
Cu	Cu	0.60411 0.32681 0.42374 0.89400
C 	C 	0.67437 0.31028 0.36831 0.29700
O 	O 	0.75896 0.41705 0.45201 -0.36300
C 	C 	0.65884 0.30323 0.58429 0.28800
O 	O 	0.62155 0.27600 0.44721 -0.64100
O 	O 	0.71587 0.32951 0.50497 -0.64500
O 	O 	0.76289 0.28103 0.44953 -0.37100
O 	O 	0.68807 0.20463 0.47904 -0.44400
O 	O 	0.65190 0.34127 0.38011 -0.39100
O 	O 	0.53916 0.27086 0.49924 -0.39300
C 	C 	0.49840 0.25757 0.46777 0.29200
C 	C 	0.73306 0.44262 0.46731 0.28000
O 	O 	0.67281 0.40590 0.47082 -0.40200
O 	O 	0.51768 0.28347 0.43673 -0.39600
O 	O 	0.70871 0.30244 0.39349 -0.36800
C 	C 	0.73501 0.22512 0.45979 0.28900
O 	O 	0.63835 0.32385 0.55847 -0.38600
O 	O 	0.69773 0.28893 0.57656 -0.42400
H 	H 	0.59119 0.22949 0.43723 0.15700
H 	H 	0.74868 0.37148 0.52199 0.17400
C 	C 	0.58381 0.29669 0.67326 -0.09400
C 	C 	0.63222 0.31168 0.70338 0.00200
C 	C 	0.68977 0.32540 0.69445 0.02200
C 	C 	0.69936 0.32744 0.65577 -0.01800
C 	C 	0.64999 0.30963 0.62523 -0.10800
C 	C 	0.59110 0.29307 0.63406 0.09300
C 	C 	0.62028 0.30768 0.74385 0.00200
C 	C 	0.74026 0.33589 0.72583 -0.17000
H 	H 	0.74470 0.34087 0.64924 0.03700
C 	C 	0.53565 0.27060 0.60211 -0.20100
H 	H 	0.53953 0.28570 0.68025 0.04900
C 	C 	0.64971 0.36333 0.77244 0.02400
C 	C 	0.65385 0.35911 0.81214 -0.02000
C 	C 	0.62415 0.29943 0.82329 -0.10900
C 	C 	0.58373 0.24339 0.79432 0.09600
C 	C 	0.58462 0.24793 0.75478 -0.09500
C 	C 	0.67865 0.42726 0.76087 -0.17300
H 	H 	0.68199 0.40227 0.83424 0.04100
C 	C 	0.53992 0.17896 0.80517 -0.19800
H 	H 	0.55879 0.20498 0.73258 0.04900
H 	H 	0.54541 0.31134 0.58883 0.08400
H 	H 	0.49074 0.24994 0.61358 0.06500
H 	H 	0.52728 0.23286 0.57931 0.07000
H 	H 	0.71891 0.29581 0.74199 0.06000
H 	H 	0.76227 0.38111 0.74659 0.05900
H 	H 	0.77882 0.33863 0.71330 0.05500
H 	H 	0.68449 0.46200 0.78492 0.06000
H 	H 	0.64733 0.42290 0.73510 0.06400
H 	H 	0.72619 0.44638 0.75365 0.06000
H 	H 	0.49734 0.14623 0.78159 0.06200
H 	H 	0.52236 0.18277 0.83211 0.07000
H 	H 	0.56552 0.15772 0.80967 0.06800
C 	C 	0.65075 0.23348 0.26446 -0.09200
C 	C 	0.67618 0.28601 0.24578 0.00300
C 	C 	0.70390 0.34706 0.26778 0.02400
C 	C 	0.70431 0.35433 0.30802 -0.01400
C 	C 	0.67741 0.30161 0.32660 -0.10700
C 	C 	0.65104 0.24074 0.30480 0.09400
C 	C 	0.67038 0.27629 0.20279 0.00300
C 	C 	0.73124 0.40416 0.24822 -0.17200
H 	H 	0.72501 0.40105 0.32492 0.04100
C 	C 	0.62275 0.18351 0.32426 -0.20200
H 	H 	0.62998 0.18682 0.24748 0.05000
C 	C 	0.72031 0.28415 0.18550 0.02400
C 	C 	0.72035 0.28917 0.14593 -0.01300
C 	C 	0.67029 0.28453 0.12338 -0.10600
C 	C 	0.61695 0.26936 0.13963 0.09400
C 	C 	0.61772 0.26598 0.17941 -0.09200
C 	C 	0.77519 0.29074 0.20959 -0.17200
H 	H 	0.76053 0.29925 0.13311 0.04100
C 	C 	0.56000 0.25842 0.11493 -0.20400
H 	H 	0.57852 0.25795 0.19256 0.05000
H 	H 	0.66080 0.18922 0.34538 0.08000
H 	H 	0.59994 0.13877 0.30270 0.06500
H 	H 	0.58565 0.17831 0.33992 0.06100
H 	H 	0.69260 0.39816 0.22752 0.06400
H 	H 	0.76789 0.40952 0.23205 0.06300
H 	H 	0.75437 0.44897 0.26977 0.06000
H 	H 	0.80566 0.28807 0.19091 0.06100
H 	H 	0.75694 0.25172 0.22650 0.06500
H 	H 	0.80523 0.33729 0.23010 0.06300
H 	H 	0.54375 0.22345 0.08771 0.07700
H 	H 	0.57289 0.30400 0.10731 0.06600
H 	H 	0.51921 0.23907 0.13050 0.06700
C 	C 	0.88468 0.75531 0.51203 -0.03900
C 	C 	0.84423 0.70832 0.47872 -0.00100
C 	C 	0.82838 0.72532 0.44530 -0.03900
C 	C 	0.85450 0.78911 0.44476 -0.03900
C 	C 	0.89671 0.83639 0.47761 -0.00100
C 	C 	0.91083 0.81910 0.51148 -0.03900
C 	C 	0.82010 0.64168 0.47836 0.02500
H 	H 	0.79665 0.68926 0.41957 0.03700
H 	H 	0.84335 0.80200 0.41848 0.03700
H 	H 	0.94326 0.85527 0.53702 0.03700
H 	H 	0.89692 0.74260 0.53803 0.03700
C 	C 	0.83857 0.61323 0.45303 -0.06700
C 	C 	0.81268 0.54894 0.45086 0.01100
C 	C 	0.76783 0.51240 0.47393 -0.08800
C 	C 	0.75147 0.54171 0.50047 0.01000
C 	C 	0.77743 0.60603 0.50262 -0.06700
H 	H 	0.87216 0.64065 0.43456 0.04400
H 	H 	0.82583 0.52709 0.43028 0.03600
H 	H 	0.71765 0.51436 0.51884 0.03000
H 	H 	0.76341 0.62778 0.52256 0.04400
C 	C 	0.85215 0.18704 0.45383 -0.07000
C 	C 	0.81310 0.12142 0.45404 0.02500
C 	C 	0.74732 0.08899 0.45216 -0.07100
C 	C 	0.72123 0.12237 0.45193 0.01200
C 	C 	0.76076 0.18863 0.45375 -0.10000
C 	C 	0.82611 0.22050 0.45362 0.01300
C 	C 	0.84168 0.08758 0.45872 -0.00200
H 	H 	0.71669 0.03824 0.45196 0.04200
H 	H 	0.67054 0.09696 0.45128 0.02500
H 	H 	0.85717 0.27150 0.45481 0.03100
H 	H 	0.90290 0.21235 0.45478 0.04400
C 	C 	0.82566 0.03805 0.42909 -0.03900
C 	C 	0.85360 0.00675 0.43339 -0.03900
C 	C 	0.89774 0.02475 0.46736 -0.00000
C 	C 	0.91272 0.07337 0.49731 -0.04000
C 	C 	0.88483 0.10465 0.49301 -0.03900
H 	H 	0.79221 0.02436 0.40258 0.03700
H 	H 	0.84191 0.96942 0.41005 0.03600
H 	H 	0.94656 0.08743 0.52369 0.03700
H 	H 	0.89691 0.14229 0.51624 0.03500
C 	C 	0.20644 0.08379 0.50380 -0.03900
C 	C 	0.23118 0.11741 0.47352 -0.00200
C 	C 	0.19013 0.11612 0.44403 -0.03900
C 	C 	0.12479 0.08039 0.44431 -0.04100
C 	C 	0.09998 0.04643 0.47444 0.00100
C 	C 	0.14126 0.04890 0.50443 -0.04100
C 	C 	0.29983 0.15294 0.47228 0.02600
H 	H 	0.20881 0.14243 0.42075 0.03600
H 	H 	0.09337 0.07860 0.42093 0.03700
H 	H 	0.12273 0.02337 0.52803 0.03600
H 	H 	0.23762 0.08424 0.52663 0.03500
C 	C 	0.34602 0.19901 0.50453 -0.07000
C 	C 	0.41093 0.23259 0.50330 0.01500
C 	C 	0.43021 0.22103 0.46960 -0.09300
C 	C 	0.38407 0.17503 0.43737 0.01300
C 	C 	0.31921 0.14081 0.43880 -0.06900
H 	H 	0.33163 0.20908 0.53042 0.04300
H 	H 	0.44614 0.26829 0.52827 0.02900
H 	H 	0.39848 0.16544 0.41133 0.02200
H 	H 	0.28401 0.10481 0.41393 0.04300
C 	C 	0.90931 0.77649 0.94814 -0.04000
C 	C 	0.87254 0.74758 0.97649 0.00100
C 	C 	0.86697 0.78416 0.00521 -0.04200
C 	C 	0.89969 0.84947 0.00641 -0.04000
C 	C 	0.93755 0.87864 0.97856 -0.00200
C 	C 	0.94128 0.84163 0.94899 -0.03800
C 	C 	0.84137 0.67948 0.97682 0.02900
H 	H 	0.83798 0.76212 0.02690 0.03700
H 	H 	0.89655 0.87759 0.02938 0.03600
H 	H 	0.96980 0.86357 0.92709 0.03600
H 	H 	0.91387 0.74869 0.92583 0.03600
C 	C 	0.79866 0.63316 0.94367 -0.06900
C 	C 	0.76730 0.56854 0.94459 0.01700
C 	C 	0.77781 0.54973 0.97880 -0.08900
C 	C 	0.82142 0.59604 0.01164 0.01100
C 	C 	0.85344 0.66064 0.01057 -0.07100
H 	H 	0.78897 0.64717 0.91748 0.04400
H 	H 	0.73348 0.53309 0.91912 0.03300
H 	H 	0.83009 0.58195 0.03810 0.02000
H 	H 	0.88711 0.69605 0.03609 0.04400
C 	C 	0.88155 0.22176 0.98831 -0.06900
C 	C 	0.85199 0.15842 0.99256 0.02500
C 	C 	0.78771 0.12015 0.99634 -0.06900
C 	C 	0.75259 0.14437 0.99451 0.01300
C 	C 	0.78142 0.20699 0.98861 -0.09700
C 	C 	0.84645 0.24597 0.98632 0.01300
C 	C 	0.88709 0.13098 0.99052 0.00200
H 	H 	0.76464 0.07126 0.99988 0.04500
H 	H 	0.70252 0.11381 0.99639 0.03000
H 	H 	0.86953 0.29467 0.98238 0.02700
H 	H 	0.93130 0.25175 0.98563 0.04400
C 	C 	0.87263 0.08754 0.95718 -0.04100
C 	C 	0.90528 0.06080 0.95532 -0.03700
C 	C 	0.95245 0.07703 0.98689 -0.00300
C 	C 	0.96757 0.12122 0.02003 -0.03600
C 	C 	0.93507 0.14820 0.02179 -0.04400
H 	H 	0.83600 0.07441 0.93278 0.03500
H 	H 	0.89355 0.02705 0.92952 0.03600
H 	H 	0.00375 0.13390 0.04459 0.03300
H 	H 	0.94668 0.18192 0.04758 0.03800
C 	C 	0.36686 0.13432 0.99148 -0.07200
C 	C 	0.34760 0.17332 0.99919 0.03000
C 	C 	0.39355 0.23956 0.00951 -0.07400
C 	C 	0.45816 0.26676 0.01156 0.01500
C 	C 	0.47750 0.22796 0.00309 -0.10000
C 	C 	0.43154 0.16151 0.99344 0.01800
C 	C 	0.27925 0.14489 0.99574 0.00000
H 	H 	0.37914 0.27001 0.01561 0.04400
H 	H 	0.49319 0.31801 0.01970 0.02200
H 	H 	0.44574 0.13100 0.98689 0.02800
H 	H 	0.33169 0.08304 0.98377 0.04400
C 	C 	0.23756 0.11053 0.95968 -0.04000
C 	C 	0.17250 0.08212 0.95663 -0.03900
C 	C 	0.14863 0.08794 0.98958 -0.00200
C 	C 	0.19055 0.12382 0.02537 -0.04100
C 	C 	0.25563 0.15213 0.02846 -0.04200
H 	H 	0.25549 0.10540 0.93415 0.03600
H 	H 	0.14042 0.05447 0.92889 0.03600
H 	H 	0.17244 0.12832 0.05098 0.03600
H 	H 	0.28751 0.17882 0.05638 0.03600
