data_crystal

_cell_length_a 26.49647
_cell_length_b 26.16914
_cell_length_c 25.74768
_cell_angle_alpha 95.49167
_cell_angle_beta  95.49142
_cell_angle_gamma 125.83582

_symmetry_space_group_name_	'P 1'
_symmetry_space_group_name_H-M	'P 1'

loop_
_symmetry_equiv_pos_as_xyz
  x,y,z

loop_
_atom_site_label
_atom_site_type_symbol
_atom_site_fract_x
_atom_site_fract_y
_atom_site_fract_z
_atom_site_charge
C 	C 	0.94207 0.00423 0.96644 0.05600
C 	C 	0.00617 0.03704 0.96294 -0.08900
C 	C 	0.03399 0.00497 0.96412 0.04700
C 	C 	0.99659 0.93929 0.96589 -0.07800
C 	C 	0.93192 0.90593 0.96690 0.04800
C 	C 	0.90468 0.93835 0.96707 -0.08900
H 	H 	0.03474 0.08770 0.96113 0.06000
H 	H 	0.01788 0.91435 0.96691 0.05300
H 	H 	0.85491 0.91279 0.96916 0.05800
C 	C 	0.97269 0.03961 0.46731 0.06000
C 	C 	0.94273 0.97539 0.47247 -0.09200
C 	C 	0.97286 0.94642 0.46337 0.05900
C 	C 	0.03376 0.98261 0.45108 -0.10100
C 	C 	0.06492 0.04756 0.44876 0.05800
C 	C 	0.03388 0.07562 0.45573 -0.09500
H 	H 	0.89611 0.94800 0.48292 0.06200
H 	H 	0.05768 0.96080 0.44507 0.06000
H 	H 	0.05775 0.12573 0.45321 0.06000
Cu	Cu	0.60963 0.20725 0.00134 0.93400
Cu	Cu	0.65329 0.21100 0.88619 0.88100
Cu	Cu	0.63927 0.30813 0.93462 0.90800
Cu	Cu	0.62281 0.33247 0.04456 0.91000
C 	C 	0.64282 0.25904 0.11259 0.30700
O 	O 	0.51976 0.17506 0.00578 -0.35500
C 	C 	0.62209 0.27360 0.81961 0.29500
O 	O 	0.66485 0.30765 0.00664 -0.63400
O 	O 	0.59651 0.21417 0.92648 -0.63700
O 	O 	0.64404 0.15758 0.99206 -0.35600
O 	O 	0.71360 0.22463 0.94297 -0.41900
O 	O 	0.61385 0.28534 0.10336 -0.36000
O 	O 	0.68758 0.40019 0.94400 -0.32600
C 	C 	0.68713 0.43798 0.98149 0.29900
C 	C 	0.49752 0.20663 0.99220 0.28600
O 	O 	0.53664 0.26649 0.98621 -0.39200
O 	O 	0.66523 0.41910 0.02537 -0.36500
O 	O 	0.63588 0.21570 0.07567 -0.32400
C 	C 	0.69705 0.18250 0.97408 0.30100
O 	O 	0.61673 0.30518 0.85919 -0.32200
O 	O 	0.61564 0.22036 0.82414 -0.39400
H 	H 	0.71128 0.33370 0.01896 0.21700
H 	H 	0.55185 0.18758 0.90769 0.18000
Cu	Cu	0.74821 0.35457 0.44601 0.93000
Cu	Cu	0.74953 0.32056 0.56494 0.88500
Cu	Cu	0.64540 0.33640 0.50460 0.92000
Cu	Cu	0.64321 0.36911 0.39615 0.91000
C 	C 	0.70584 0.32945 0.33335 0.30500
O 	O 	0.79825 0.45024 0.44525 -0.35200
C 	C 	0.65100 0.31360 0.60829 0.29700
O 	O 	0.65089 0.31468 0.43335 -0.63300
O 	O 	0.73616 0.36898 0.51952 -0.62600
O 	O 	0.77576 0.29806 0.45353 -0.34500
O 	O 	0.82204 0.33771 0.54082 -0.41000
O 	O 	0.68892 0.36767 0.33989 -0.35800
O 	O 	0.55629 0.29833 0.48843 -0.32800
C 	C 	0.52765 0.29907 0.44397 0.29400
C 	C 	0.77440 0.48163 0.45548 0.28400
O 	O 	0.71411 0.44996 0.45809 -0.38900
O 	O 	0.55991 0.34157 0.41388 -0.37100
O 	O 	0.74384 0.33114 0.37174 -0.32400
C 	C 	0.81528 0.30661 0.49458 0.29400
O 	O 	0.64150 0.34640 0.57890 -0.34200
O 	O 	0.66909 0.27994 0.58826 -0.37500
H 	H 	0.62013 0.26836 0.41792 0.21900
H 	H 	0.76409 0.41498 0.53630 0.16300
C 	C 	0.67918 0.35885 0.70407 0.04600
C 	C 	0.63517 0.30901 0.66160 -0.00900
C 	C 	0.57999 0.25245 0.67131 -0.09400
C 	C 	0.57491 0.24286 0.72391 0.04900
C 	C 	0.62212 0.29029 0.76655 -0.00100
C 	C 	0.67326 0.35029 0.75686 -0.10500
C 	C 	0.72131 0.40505 0.80254 0.77900
H 	H 	0.71956 0.40323 0.69585 0.06000
H 	H 	0.53534 0.19759 0.73173 0.07600
C 	C 	0.52822 0.20079 0.62571 0.77800
F 	F 	0.76926 0.45803 0.78474 -0.45800
F 	F 	0.74894 0.38573 0.83564 -0.47700
F 	F 	0.69134 0.42372 0.83122 -0.44800
F 	F 	0.54764 0.16689 0.60213 -0.44800
F 	F 	0.51527 0.22807 0.58821 -0.44500
F 	F 	0.47252 0.15825 0.64314 -0.44900
C 	C 	0.62380 0.22405 0.19889 0.05700
C 	C 	0.66687 0.26399 0.16800 0.00000
C 	C 	0.72922 0.31647 0.19281 -0.10400
C 	C 	0.74349 0.33506 0.24840 0.05700
C 	C 	0.69764 0.29944 0.27901 0.00000
C 	C 	0.63947 0.24038 0.25463 -0.10400
C 	C 	0.59191 0.19769 0.28769 0.77700
H 	H 	0.57662 0.18275 0.17948 0.07400
H 	H 	0.78875 0.37937 0.26759 0.07500
C 	C 	0.77863 0.35618 0.15995 0.77900
F 	F 	0.54646 0.13637 0.25876 -0.45000
F 	F 	0.56199 0.22357 0.30451 -0.48700
F 	F 	0.62229 0.19280 0.33158 -0.46300
F 	F 	0.76743 0.39645 0.13971 -0.47500
F 	F 	0.77598 0.31656 0.11836 -0.46100
F 	F 	0.83920 0.39307 0.19021 -0.44700
C 	C 	0.88237 0.65285 0.43395 -0.07000
C 	C 	0.87117 0.68413 0.47329 0.01700
C 	C 	0.83380 0.64995 0.51015 -0.00500
C 	C 	0.80763 0.58501 0.50693 -0.00300
C 	C 	0.81529 0.55251 0.46549 -0.08800
C 	C 	0.85387 0.58715 0.42919 0.05100
C 	C 	0.89518 0.75141 0.47320 0.00300
S 	S 	0.81680 0.68702 0.55885 -0.02500
H 	H 	0.77856 0.55885 0.53518 0.04300
S 	S 	0.86356 0.54834 0.37562 -0.00700
H 	H 	0.91142 0.67920 0.40576 0.05800
C 	C 	0.94940 0.80256 0.50968 0.00700
C 	C 	0.97156 0.86577 0.50837 -0.03600
C 	C 	0.94223 0.87899 0.46919 -0.02200
C 	C 	0.88834 0.82776 0.43228 0.02200
C 	C 	0.86456 0.76438 0.43512 -0.05500
S 	S 	0.99155 0.78831 0.55555 -0.02700
H 	H 	0.01320 0.90498 0.53657 0.04200
S 	S 	0.85223 0.84232 0.38073 -0.03900
H 	H 	0.82304 0.72510 0.40687 0.05300
H 	H 	0.81487 0.52400 0.33363 0.04900
H 	H 	0.03538 0.78705 0.53244 0.04000
H 	H 	0.88218 0.85106 0.33830 0.04000
H 	H 	0.86163 0.71274 0.60423 0.04200
C 	C 	0.87895 0.10300 0.43555 -0.05400
C 	C 	0.89685 0.14511 0.48327 0.00200
C 	C 	0.93447 0.14744 0.52740 0.01100
C 	C 	0.95598 0.10975 0.52266 -0.04300
C 	C 	0.94033 0.06966 0.47425 -0.01900
C 	C 	0.90048 0.06533 0.43081 0.02100
C 	C 	0.87659 0.18717 0.48643 0.02200
S 	S 	0.95632 0.19856 0.58827 -0.02800
H 	H 	0.98652 0.11306 0.55615 0.05000
S 	S 	0.87850 0.01408 0.36997 -0.03200
H 	H 	0.84921 0.10044 0.40183 0.05800
C 	C 	0.91430 0.24878 0.47342 -0.00600
C 	C 	0.89401 0.28766 0.47647 0.00600
C 	C 	0.83648 0.26572 0.49247 -0.09000
C 	C 	0.79881 0.20410 0.50547 0.06400
C 	C 	0.81900 0.16522 0.50228 -0.07100
S 	S 	0.98683 0.27762 0.45327 -0.02400
H 	H 	0.92293 0.33492 0.46631 0.04600
S 	S 	0.72605 0.17494 0.52538 -0.06500
H 	H 	0.78993 0.11784 0.51221 0.06200
H 	H 	0.92384 0.04581 0.33966 0.04000
H 	H 	0.97600 0.25848 0.39943 0.04400
H 	H 	0.67872 0.14504 0.48140 0.06700
H 	H 	0.01089 0.25789 0.58796 0.03800
C 	C 	0.24375 0.15271 0.48424 -0.05300
C 	C 	0.25991 0.15869 0.43377 0.00600
C 	C 	0.21189 0.12950 0.38814 0.00800
C 	C 	0.14827 0.09422 0.39350 -0.04200
C 	C 	0.13213 0.08757 0.44398 -0.02100
C 	C 	0.18024 0.11741 0.48960 0.02300
C 	C 	0.32718 0.19403 0.42922 0.02100
S 	S 	0.23085 0.13681 0.32427 -0.03000
H 	H 	0.11128 0.07144 0.35840 0.04600
S 	S 	0.16142 0.11025 0.55356 -0.03200
H 	H 	0.28071 0.17524 0.51934 0.06700
C 	C 	0.36578 0.26104 0.43226 -0.00200
C 	C 	0.43108 0.29474 0.43468 0.00200
C 	C 	0.45835 0.26221 0.43450 -0.06800
C 	C 	0.41927 0.19481 0.42877 0.06200
C 	C 	0.35399 0.16115 0.42626 -0.05900
S 	S 	0.33298 0.30326 0.43372 -0.02400
H 	H 	0.46094 0.34649 0.43832 0.04900
S 	S 	0.45137 0.15202 0.42374 0.03100
H 	H 	0.32413 0.10945 0.42304 0.06600
H 	H 	0.15041 0.05530 0.56627 0.04300
H 	H 	0.31419 0.30470 0.38276 0.03700
H 	H 	0.45354 0.13836 0.37163 0.07300
H 	H 	0.24027 0.19089 0.31102 0.03700
C 	C 	0.72300 0.60023 0.97782 -0.06700
C 	C 	0.78718 0.63688 0.97387 0.02100
C 	C 	0.81813 0.60781 0.97169 0.00400
C 	C 	0.78467 0.54256 0.97350 0.01500
C 	C 	0.72063 0.50598 0.97802 -0.06400
C 	C 	0.68946 0.53492 0.97963 0.06200
C 	C 	0.82157 0.70561 0.97181 0.00400
S 	S 	0.89870 0.65261 0.96658 -0.00500
H 	H 	0.80863 0.52034 0.97199 0.07000
S 	S 	0.60802 0.48942 0.98162 -0.03400
H 	H 	0.69904 0.62248 0.97899 0.05600
C 	C 	0.82615 0.72621 0.92271 0.00500
C 	C 	0.86190 0.79181 0.92161 -0.04300
C 	C 	0.89295 0.83713 0.96906 -0.01700
C 	C 	0.88718 0.81649 0.01819 0.02000
C 	C 	0.85147 0.75089 0.01930 -0.05500
S 	S 	0.78758 0.67032 0.86248 -0.00400
H 	H 	0.86591 0.80768 0.88382 0.04800
S 	S 	0.92450 0.87236 0.07845 -0.03800
H 	H 	0.84756 0.73502 0.05708 0.05500
H 	H 	0.57379 0.46408 0.93080 0.05200
H 	H 	0.72701 0.65189 0.84996 0.04400
H 	H 	0.88549 0.88719 0.09308 0.03900
H 	H 	0.90356 0.65192 0.91406 0.05600
C 	C 	0.87215 0.08118 0.02753 -0.05400
C 	C 	0.84849 0.09197 0.98223 0.00400
C 	C 	0.86110 0.07966 0.93241 0.01000
C 	C 	0.89380 0.05306 0.92796 -0.04400
C 	C 	0.91489 0.03950 0.97289 -0.01800
C 	C 	0.90552 0.05533 0.02318 0.02100
C 	C 	0.80902 0.11437 0.98701 0.01800
S 	S 	0.83593 0.09706 0.87544 -0.03500
H 	H 	0.90180 0.04179 0.88939 0.04800
S 	S 	0.93560 0.04321 0.08088 -0.03800
H 	H 	0.86371 0.09200 0.06604 0.05800
C 	C 	0.74233 0.07050 0.97586 -0.00100
C 	C 	0.70586 0.09320 0.97464 -0.00400
C 	C 	0.73529 0.15936 0.98501 -0.08100
C 	C 	0.80186 0.20291 0.00061 0.05100
C 	C 	0.83832 0.18022 0.00090 -0.06500
S 	S 	0.70410 0.98719 0.96277 -0.03100
H 	H 	0.65466 0.05947 0.96383 0.04500
S 	S 	0.83980 0.28546 0.02188 0.04700
H 	H 	0.88956 0.21384 0.01126 0.06000
H 	H 	0.99681 0.09602 0.10017 0.04200
H 	H 	0.69562 0.96688 0.90948 0.03500
H 	H 	0.85601 0.31575 0.97923 0.04500
H 	H 	0.77597 0.04495 0.85160 0.03700
C 	C 	0.32591 0.10645 0.01017 -0.07100
C 	C 	0.29920 0.12261 0.97156 0.01800
C 	C 	0.33765 0.16616 0.93974 -0.00400
C 	C 	0.40144 0.19054 0.94512 -0.00400
C 	C 	0.42865 0.17533 0.98439 -0.08700
C 	C 	0.39065 0.13419 0.01815 0.05200
C 	C 	0.23164 0.09618 0.96686 0.00300
S 	S 	0.30732 0.19279 0.89479 -0.02400
H 	H 	0.43037 0.22269 0.91957 0.04700
S 	S 	0.42411 0.12172 0.07349 -0.00500
H 	H 	0.29663 0.07399 0.03540 0.05800
C 	C 	0.18553 0.04649 0.92444 0.00800
C 	C 	0.12159 0.02027 0.92224 -0.04000
C 	C 	0.10244 0.03999 0.96374 -0.01700
C 	C 	0.14852 0.08861 0.00691 0.02100
C 	C 	0.21280 0.11757 0.00739 -0.05600
S 	S 	0.20679 0.01420 0.87560 -0.02800
H 	H 	0.08633 0.98255 0.88926 0.04300
S 	S 	0.12626 0.11045 0.06226 -0.04400
H 	H 	0.24813 0.15519 0.04038 0.05200
H 	H 	0.44555 0.16965 0.11599 0.05100
H 	H 	0.20713 0.96631 0.89250 0.03900
H 	H 	0.11377 0.06974 0.09712 0.04000
H 	H 	0.28521 0.15435 0.84571 0.04400
