data_crystal

_cell_length_a 18.36868
_cell_length_b 16.05040
_cell_length_c 41.89206
_cell_angle_alpha 90.86090
_cell_angle_beta  91.25878
_cell_angle_gamma 111.17784

_symmetry_space_group_name_	'P 1'
_symmetry_space_group_name_H-M	'P 1'

loop_
_symmetry_equiv_pos_as_xyz
  x,y,z

loop_
_atom_site_label
_atom_site_type_symbol
_atom_site_fract_x
_atom_site_fract_y
_atom_site_fract_z
_atom_site_charge
Ni	Ni	0.71628 0.32629 0.88589 1.10100
O 	O 	0.62745 0.24249 0.85743 -0.70800
Ni	Ni	0.53538 0.25201 0.87891 1.10800
O 	O 	0.79678 0.30248 0.85786 -0.34200
O 	O 	0.73907 0.15067 0.86384 -0.39700
O 	O 	0.71170 0.42218 0.85521 -0.35700
Ni	Ni	0.61773 0.11836 0.85753 1.07400
O 	O 	0.72857 0.44153 0.95349 -0.41100
O 	O 	0.60836 0.10739 0.90608 -0.40600
O 	O 	0.45495 0.17908 0.84583 -0.35700
O 	O 	0.62348 0.31890 0.91109 -0.70200
O 	O 	0.80424 0.41960 0.91288 -0.37200
O 	O 	0.45384 0.29489 0.89919 -0.34800
O 	O 	0.54031 0.43733 0.89860 -0.40900
Ni	Ni	0.63729 0.44024 0.92529 1.07600
H 	H 	0.62932 0.26338 0.83524 0.19000
H 	H 	0.62373 0.28296 0.92997 0.15400
C 	C 	0.54480 0.10488 0.92047 0.29300
O 	O 	0.71357 0.52319 0.89440 -0.39900
C 	C 	0.79359 0.22061 0.85132 0.32200
C 	C 	0.44958 0.09728 0.83740 0.32700
C 	C 	0.71966 0.50361 0.86427 0.34800
C 	C 	0.47150 0.38023 0.90601 0.28300
C 	C 	0.79705 0.44722 0.94230 0.30000
O 	O 	0.49859 0.14234 0.90767 -0.34900
O 	O 	0.49755 0.06014 0.85028 -0.38800
Ni	Ni	0.60333 0.33063 0.56478 1.10200
O 	O 	0.69495 0.34456 0.53559 -0.69900
Ni	Ni	0.76687 0.30802 0.56399 1.10300
O 	O 	0.55775 0.40655 0.53745 -0.36100
O 	O 	0.67718 0.51687 0.53668 -0.40200
O 	O 	0.53446 0.21956 0.53811 -0.36400
Ni	Ni	0.75164 0.46030 0.51734 1.07900
O 	O 	0.50156 0.15863 0.59724 -0.37300
O 	O 	0.84071 0.53041 0.54919 -0.39300
O 	O 	0.86598 0.34119 0.53701 -0.35400
O 	O 	0.67031 0.28267 0.59147 -0.69900
O 	O 	0.51404 0.30595 0.59563 -0.37400
O 	O 	0.81693 0.24981 0.59696 -0.32200
O 	O 	0.71031 0.12019 0.59461 -0.39200
Ni	Ni	0.61188 0.15502 0.59593 1.08200
H 	H 	0.67731 0.30155 0.51744 0.15600
H 	H 	0.68304 0.31383 0.61258 0.17700
C 	C 	0.86221 0.50009 0.57544 0.33200
O 	O 	0.60166 0.12735 0.54822 -0.40200
C 	C 	0.60315 0.48537 0.52780 0.29000
C 	C 	0.87798 0.38992 0.51095 0.29800
C 	C 	0.55755 0.15427 0.52916 0.29200
C 	C 	0.77860 0.16912 0.60753 0.32500
C 	C 	0.48439 0.22656 0.60864 0.32600
O 	O 	0.81458 0.42744 0.58853 -0.35700
O 	O 	0.82034 0.40429 0.49561 -0.41500
Ni	Ni	0.99122 0.94627 0.75557 1.10000
O 	O 	0.00883 0.85840 0.72436 -0.70500
Ni	Ni	0.06523 0.93967 0.69015 1.10700
O 	O 	0.93505 0.84412 0.78520 -0.32400
O 	O 	0.84374 0.77545 0.74610 -0.39400
O 	O 	0.09422 0.96509 0.78141 -0.34700
Ni	Ni	0.90824 0.78077 0.70530 1.06900
O 	O 	0.08664 0.13770 0.78209 -0.39300
O 	O 	0.87366 0.88223 0.69002 -0.37000
O 	O 	0.08167 0.84168 0.66266 -0.33200
O 	O 	0.03638 0.02845 0.71905 -0.67500
O 	O 	0.96544 0.03095 0.78532 -0.37000
O 	O 	0.14450 0.03376 0.66285 -0.33000
O 	O 	0.17203 0.16340 0.69179 -0.36000
Ni	Ni	0.12271 0.13243 0.73629 1.07900
H 	H 	0.03941 0.82447 0.73362 0.17600
H 	H 	0.99624 0.04909 0.70965 0.15800
C 	C 	0.91037 0.93583 0.66738 0.32000
O 	O 	0.18274 0.05138 0.74609 -0.39900
C 	C 	0.87243 0.77696 0.77529 0.31500
C 	C 	0.02026 0.76757 0.65653 0.32300
C 	C 	0.16577 0.99620 0.77002 0.31900
C 	C 	0.19584 0.10879 0.67492 0.33200
C 	C 	0.01229 0.11394 0.78933 0.37000
O 	O 	0.97827 0.93661 0.65824 -0.36100
O 	O 	0.94906 0.76644 0.66151 -0.40200
Ni	Ni	0.24447 0.69146 0.39278 1.10400
O 	O 	0.33388 0.75563 0.36345 -0.70600
Ni	Ni	0.42469 0.74724 0.38799 1.10500
O 	O 	0.16628 0.71050 0.36096 -0.35400
O 	O 	0.23277 0.86226 0.36164 -0.37800
O 	O 	0.23876 0.58098 0.36655 -0.39400
Ni	Ni	0.35143 0.88073 0.35737 1.07200
O 	O 	0.22941 0.60169 0.46347 -0.40800
O 	O 	0.36569 0.91442 0.40503 -0.39500
O 	O 	0.50520 0.80057 0.35438 -0.35700
O 	O 	0.33753 0.70060 0.42024 -0.70000
O 	O 	0.15358 0.61670 0.42060 -0.35900
O 	O 	0.50268 0.70600 0.41305 -0.35000
O 	O 	0.40920 0.56812 0.41605 -0.40900
Ni	Ni	0.31676 0.58400 0.43920 1.07800
H 	H 	0.32832 0.72449 0.34244 0.16600
H 	H 	0.34325 0.74506 0.43762 0.15600
C 	C 	0.42659 0.91421 0.42202 0.28700
O 	O 	0.23570 0.49336 0.40933 -0.36700
C 	C 	0.17338 0.79061 0.35124 0.32000
C 	C 	0.51182 0.87713 0.34105 0.32100
C 	C 	0.22891 0.50281 0.37847 0.34700
C 	C 	0.48011 0.62372 0.42322 0.28600
C 	C 	0.16053 0.58979 0.44999 0.30500
O 	O 	0.46880 0.86835 0.41217 -0.35400
O 	O 	0.47081 0.92542 0.35138 -0.38700
Ni	Ni	0.37707 0.68284 0.05259 1.10300
O 	O 	0.27595 0.66708 0.02732 -0.70000
Ni	Ni	0.21158 0.69302 0.06125 1.10200
O 	O 	0.41322 0.60663 0.02146 -0.36900
O 	O 	0.29373 0.49601 0.02277 -0.39700
O 	O 	0.43675 0.79425 0.02668 -0.36500
Ni	Ni	0.21513 0.55276 0.00680 1.07900
O 	O 	0.48460 0.85626 0.08595 -0.37200
O 	O 	0.13248 0.48607 0.03914 -0.36100
O 	O 	0.10249 0.65036 0.03878 -0.34900
O 	O 	0.31864 0.72725 0.08404 -0.70100
O 	O 	0.47618 0.71044 0.07994 -0.37300
O 	O 	0.17097 0.74556 0.09891 -0.32300
O 	O 	0.27019 0.88011 0.09404 -0.39700
Ni	Ni	0.37312 0.85574 0.08892 1.08200
H 	H 	0.28520 0.71333 0.01101 0.15800
H 	H 	0.31596 0.69744 0.10474 0.17400
C 	C 	0.14045 0.49597 0.07037 0.34300
O 	O 	0.36557 0.87800 0.04151 -0.40700
C 	C 	0.36535 0.52636 0.01238 0.28000
C 	C 	0.08791 0.62334 0.00838 0.28400
C 	C 	0.41076 0.85919 0.02106 0.29200
C 	C 	0.21102 0.82712 0.11006 0.31300
C 	C 	0.50646 0.78948 0.09473 0.32300
O 	O 	0.18340 0.57331 0.08384 -0.38700
O 	O 	0.14201 0.61201 0.99043 -0.40200
Ni	Ni	0.96289 0.05061 0.26289 1.09400
O 	O 	0.97491 0.13571 0.22631 -0.71900
Ni	Ni	0.92872 0.05085 0.18993 1.09700
O 	O 	0.01438 0.15738 0.29365 -0.35300
O 	O 	0.12379 0.20027 0.26394 -0.35800
O 	O 	0.85357 0.05216 0.27322 -0.37500
Ni	Ni	0.08469 0.19856 0.21679 1.09300
O 	O 	0.86318 0.84186 0.28097 -0.38800
O 	O 	0.11221 0.08677 0.20921 -0.36800
O 	O 	0.93589 0.14728 0.15751 -0.37000
O 	O 	0.93331 0.96270 0.22505 -0.68500
O 	O 	0.95664 0.96959 0.29993 -0.38100
O 	O 	0.85572 0.95784 0.15814 -0.34400
O 	O 	0.80505 0.83113 0.18618 -0.36300
Ni	Ni	0.84091 0.85656 0.23379 1.08700
H 	H 	0.94678 0.17728 0.22958 0.18300
H 	H 	0.97685 0.94129 0.22209 0.16500
C 	C 	0.08308 0.03272 0.18451 0.33100
O 	O 	0.77617 0.93367 0.24167 -0.38800
C 	C 	0.08520 0.21405 0.28834 0.31700
C 	C 	0.00304 0.21586 0.15567 0.34400
C 	C 	0.78666 0.98460 0.26753 0.33600
C 	C 	0.79476 0.89118 0.16762 0.33200
C 	C 	0.93192 0.88338 0.29501 0.33300
O 	O 	0.02252 0.03627 0.16839 -0.35700
O 	O 	0.06782 0.21179 0.16898 -0.37800
C 	C 	0.02887 0.26347 0.09994 -0.08100
C 	C 	0.01188 0.28265 0.13106 -0.11900
C 	C 	0.02776 0.37195 0.14056 0.33800
C 	C 	0.06793 0.44150 0.12043 -0.08400
C 	C 	0.09222 0.42243 0.09053 -0.12200
C 	C 	0.06985 0.33274 0.07988 0.34000
F 	F 	0.09168 0.31246 0.05092 -0.43600
H 	H 	0.01627 0.19477 0.09226 0.11100
H 	H 	0.08169 0.51014 0.12843 0.11700
F 	F 	0.00952 0.39153 0.17027 -0.44200
C 	C 	0.66473 0.90011 0.15705 -0.09500
C 	C 	0.72190 0.86587 0.14858 -0.11700
C 	C 	0.70694 0.80296 0.12329 0.34600
C 	C 	0.63541 0.77552 0.10632 -0.08300
C 	C 	0.57831 0.81059 0.11458 -0.12600
C 	C 	0.59301 0.87223 0.14033 0.34700
F 	F 	0.53760 0.90482 0.14921 -0.45500
H 	H 	0.67567 0.94786 0.17679 0.12100
H 	H 	0.62507 0.72855 0.08636 0.10500
F 	F 	0.76185 0.76890 0.11507 -0.42300
C 	C 	0.23033 0.94386 0.15257 -0.09100
C 	C 	0.18041 0.86609 0.13637 -0.11900
C 	C 	0.10023 0.83358 0.14275 0.34900
C 	C 	0.06965 0.88415 0.16194 -0.08000
C 	C 	0.11828 0.96814 0.17433 -0.12300
C 	C 	0.19937 0.99528 0.17120 0.34900
F 	F 	0.24766 0.07451 0.18419 -0.43600
H 	H 	0.29279 0.96716 0.14922 0.08800
H 	H 	0.00724 0.86082 0.16546 0.10600
F 	F 	0.05129 0.75577 0.12903 -0.41400
C 	C 	0.57689 0.93109 0.28986 -0.09200
C 	C 	0.58255 0.92227 0.32296 -0.12000
C 	C 	0.65660 0.94791 0.33820 0.34500
C 	C 	0.72411 0.97561 0.32013 -0.08900
C 	C 	0.71823 0.97750 0.28672 -0.12200
C 	C 	0.64439 0.95887 0.27176 0.34200
F 	F 	0.63792 0.96564 0.23965 -0.43600
H 	H 	0.52011 0.91330 0.27800 0.08600
H 	H 	0.78065 0.99096 0.33197 0.10400
F 	F 	0.66295 0.94270 0.37040 -0.43200
C 	C 	0.22595 0.42894 0.32587 -0.08200
C 	C 	0.19950 0.42335 0.35718 -0.13100
C 	C 	0.13831 0.34610 0.36646 0.34700
C 	C 	0.10204 0.27698 0.34414 -0.09000
C 	C 	0.12616 0.28463 0.31235 -0.11600
C 	C 	0.18903 0.36080 0.30345 0.33500
F 	F 	0.21239 0.37047 0.27276 -0.45200
H 	H 	0.27354 0.48786 0.31858 0.09100
H 	H 	0.05464 0.21802 0.35148 0.11300
F 	F 	0.11199 0.33940 0.39669 -0.43800
C 	C 	0.99273 0.84923 0.34382 -0.09100
C 	C 	0.97378 0.83271 0.31110 -0.14600
C 	C 	0.01466 0.79127 0.29263 0.35700
C 	C 	0.07950 0.77649 0.30591 -0.09400
C 	C 	0.10348 0.80255 0.33768 -0.12100
C 	C 	0.05792 0.83539 0.35699 0.35400
F 	F 	0.07784 0.85581 0.38832 -0.43300
H 	H 	0.96047 0.87928 0.35849 0.10700
H 	H 	0.11251 0.74754 0.29120 0.09400
F 	F 	0.99582 0.77260 0.26114 -0.47800
C 	C 	0.53774 0.03223 0.44946 -0.04700
C 	C 	0.45781 0.98012 0.44848 -0.07800
C 	C 	0.40977 0.99003 0.47318 0.11400
C 	C 	0.44275 0.05399 0.49778 -0.04000
C 	C 	0.52361 0.10142 0.49987 -0.08800
C 	C 	0.57179 0.09012 0.47548 0.11500
N 	N 	0.65059 0.13404 0.47691 -0.19900
H 	H 	0.57421 0.02570 0.43028 0.08200
H 	H 	0.40608 0.06244 0.51656 0.06800
N 	N 	0.33332 0.93583 0.47432 -0.19700
H 	H 	0.68490 0.12794 0.45808 0.10300
H 	H 	0.67908 0.17168 0.49699 0.08000
H 	H 	0.30963 0.87961 0.45928 0.09100
H 	H 	0.29767 0.94666 0.49177 0.10900
C 	C 	0.01488 0.49398 0.51487 -0.02100
C 	C 	0.95647 0.42537 0.49783 -0.09800
C 	C 	0.96831 0.40636 0.46574 0.11600
C 	C 	0.03412 0.46289 0.45022 -0.02100
C 	C 	0.08941 0.53636 0.46653 -0.08100
C 	C 	0.07923 0.55287 0.49915 0.11700
N 	N 	0.12809 0.62758 0.51490 -0.19700
H 	H 	0.00693 0.50632 0.53980 0.06500
H 	H 	0.04303 0.44874 0.42552 0.09200
N 	N 	0.91747 0.33306 0.44995 -0.19700
H 	H 	0.12214 0.63709 0.53931 0.11100
H 	H 	0.16901 0.67932 0.50281 0.10800
H 	H 	0.87181 0.28582 0.46172 0.10900
H 	H 	0.92513 0.32079 0.42591 0.11200
C 	C 	0.54166 0.58803 0.50685 -0.03300
C 	C 	0.57705 0.52571 0.50077 -0.09500
C 	C 	0.58860 0.50380 0.46885 0.09700
C 	C 	0.56274 0.54360 0.44362 -0.03300
C 	C 	0.52362 0.60232 0.44965 -0.09400
C 	C 	0.51461 0.62667 0.48160 0.09600
N 	N 	0.47926 0.68606 0.48819 -0.20500
H 	H 	0.53436 0.60589 0.53133 0.05500
H 	H 	0.56975 0.52538 0.41915 0.05500
N 	N 	0.62285 0.44337 0.46225 -0.19700
H 	H 	0.47129 0.70186 0.51183 0.09100
H 	H 	0.46065 0.71833 0.47010 0.06800
H 	H 	0.63945 0.40926 0.48030 0.02800
H 	H 	0.63203 0.42870 0.43862 0.08700
C 	C 	0.90271 0.03271 0.62259 -0.10000
C 	C 	0.87704 0.99757 0.65260 -0.11100
C 	C 	0.82530 0.02791 0.66928 0.32200
C 	C 	0.79741 0.08972 0.65538 -0.08400
C 	C 	0.82185 0.12291 0.62509 -0.12200
C 	C 	0.87604 0.09573 0.60911 0.35400
F 	F 	0.89966 0.12686 0.57968 -0.42700
H 	H 	0.94300 0.01057 0.60955 0.12100
H 	H 	0.75524 0.11016 0.66780 0.08700
F 	F 	0.80271 0.99847 0.69899 -0.43900
C 	C 	0.35857 0.24396 0.62211 -0.08100
C 	C 	0.41546 0.20659 0.62883 -0.12400
C 	C 	0.40169 0.14154 0.65239 0.34700
C 	C 	0.33020 0.11068 0.66767 -0.09700
C 	C 	0.27240 0.14553 0.66009 -0.11000
C 	C 	0.28731 0.21361 0.63768 0.34400
F 	F 	0.23184 0.24816 0.63023 -0.42000
H 	H 	0.36830 0.29403 0.60400 0.10700
H 	H 	0.31944 0.05894 0.68518 0.12500
F 	F 	0.45714 0.10713 0.66007 -0.45500
C 	C 	0.97771 0.64344 0.58165 -0.10600
C 	C 	0.93167 0.56053 0.59409 -0.12500
C 	C 	0.94792 0.54106 0.62553 0.34800
C 	C 	0.99742 0.60952 0.64570 -0.13300
C 	C 	0.02679 0.69781 0.63509 -0.09800
C 	C 	0.02638 0.71157 0.60211 0.35300
F 	F 	0.06295 0.79454 0.59066 -0.42300
H 	H 	0.97219 0.65698 0.55664 0.09700
H 	H 	0.00356 0.59639 0.67072 0.10300
F 	F 	0.91367 0.45761 0.63696 -0.43600
C 	C 	0.95143 0.51823 0.00899 -0.07200
C 	C 	0.00731 0.59304 0.99560 -0.03500
C 	C 	0.99001 0.62535 0.96631 0.08000
C 	C 	0.92101 0.57625 0.94916 -0.02200
C 	C 	0.86810 0.49710 0.96127 -0.09900
C 	C 	0.88265 0.46835 0.99176 0.13300
N 	N 	0.83279 0.39127 0.00400 -0.20300
H 	H 	0.96428 0.49466 0.03180 0.07600
H 	H 	0.90822 0.59997 0.92637 0.05900
N 	N 	0.03898 0.70390 0.95479 -0.18600
H 	H 	0.84342 0.37173 0.02679 0.10400
H 	H 	0.78449 0.34871 0.99080 0.09700
H 	H 	0.08736 0.74532 0.96828 0.10900
H 	H 	0.02726 0.72599 0.93260 0.11500
C 	C 	0.50246 0.95297 0.94262 -0.03000
C 	C 	0.51652 0.04430 0.94737 -0.08400
C 	C 	0.49398 0.07436 0.97621 0.11400
C 	C 	0.45905 0.01256 0.99976 -0.03800
C 	C 	0.44305 0.92095 0.99467 -0.08100
C 	C 	0.46172 0.89039 0.96513 0.11300
N 	N 	0.43647 0.80165 0.95740 -0.19300
H 	H 	0.51805 0.92977 0.92026 0.05300
H 	H 	0.44486 0.03618 0.02232 0.05400
N 	N 	0.50633 0.16230 0.98163 -0.19500
H 	H 	0.45540 0.77950 0.93670 0.09100
H 	H 	0.39302 0.75479 0.97023 0.08200
H 	H 	0.53393 0.21068 0.96518 0.07500
H 	H 	0.48836 0.18331 0.00279 0.08700
C 	C 	0.39392 0.52607 0.95504 -0.04900
C 	C 	0.38408 0.48276 0.98433 -0.10300
C 	C 	0.39074 0.39782 0.98622 0.11800
C 	C 	0.41149 0.36027 0.95903 -0.05300
C 	C 	0.42717 0.40693 0.93037 -0.09900
C 	C 	0.41369 0.48790 0.92783 0.11000
N 	N 	0.41847 0.52843 0.89927 -0.19900
H 	H 	0.38554 0.58940 0.95337 0.03300
H 	H 	0.42022 0.29714 0.96077 0.05600
N 	N 	0.37979 0.35334 0.01417 -0.20100
H 	H 	0.41153 0.59011 0.89778 0.09200
H 	H 	0.42568 0.49735 0.87812 0.10900
H 	H 	0.36683 0.38054 0.03511 0.11200
H 	H 	0.38487 0.29063 0.01525 0.09800
C 	C 	0.90348 0.16418 0.85487 -0.08600
C 	C 	0.86304 0.20927 0.83781 -0.12000
C 	C 	0.89075 0.24594 0.80823 0.33600
C 	C 	0.95249 0.22832 0.79425 -0.08400
C 	C 	0.98568 0.17250 0.80939 -0.14600
C 	C 	0.96585 0.14775 0.84102 0.34200
F 	F 	0.00097 0.09867 0.85689 -0.40200
H 	H 	0.88545 0.13995 0.87851 0.10000
H 	H 	0.96897 0.25035 0.77025 0.07700
F 	F 	0.85504 0.29416 0.79220 -0.43500
C 	C 	0.23383 0.99580 0.82211 -0.09100
C 	C 	0.23128 0.98624 0.78870 -0.11600
C 	C 	0.29919 0.98887 0.77307 0.33700
C 	C 	0.37107 0.01620 0.78990 -0.09000
C 	C 	0.37507 0.03838 0.82253 -0.12000
C 	C 	0.30548 0.02152 0.83901 0.34800
F 	F 	0.30810 0.03760 0.87100 -0.42600
H 	H 	0.18153 0.99061 0.83470 0.12500
H 	H 	0.42408 0.02585 0.77715 0.09100
F 	F 	0.29643 0.97115 0.74120 -0.44700
C 	C 	0.80014 0.66194 0.85291 -0.08400
C 	C 	0.75120 0.57676 0.84166 -0.12800
C 	C 	0.73713 0.56028 0.80861 0.34700
C 	C 	0.77565 0.62633 0.78710 -0.09400
C 	C 	0.82741 0.71022 0.79829 -0.11700
C 	C 	0.83751 0.72860 0.83143 0.33800
F 	F 	0.88308 0.81102 0.84285 -0.41800
H 	H 	0.81067 0.67599 0.87832 0.09900
H 	H 	0.76625 0.61169 0.76168 0.09000
F 	F 	0.68637 0.48013 0.79732 -0.43800
