data_crystal

_cell_length_a 25.64670
_cell_length_b 22.36832
_cell_length_c 32.06790
_cell_angle_alpha 103.95770
_cell_angle_beta  115.90408
_cell_angle_gamma 111.66595

_symmetry_space_group_name_	'P 1'
_symmetry_space_group_name_H-M	'P 1'

loop_
_symmetry_equiv_pos_as_xyz
  x,y,z

loop_
_atom_site_label
_atom_site_type_symbol
_atom_site_fract_x
_atom_site_fract_y
_atom_site_fract_z
_atom_site_charge
C 	C 	0.53446 0.22184 0.87569 0.05700
C 	C 	0.56402 0.18101 0.87177 -0.09700
C 	C 	0.61931 0.20719 0.86756 0.05600
C 	C 	0.64448 0.27377 0.86666 -0.09600
C 	C 	0.61510 0.31473 0.87074 0.05900
C 	C 	0.55986 0.28859 0.87499 -0.09500
H 	H 	0.54508 0.12991 0.87314 0.05200
H 	H 	0.68799 0.29460 0.86425 0.05500
H 	H 	0.53755 0.32066 0.87868 0.05600
C 	C 	0.53724 0.22173 0.37655 0.05700
C 	C 	0.56281 0.28839 0.37576 -0.09600
C 	C 	0.61857 0.31464 0.37211 0.05800
C 	C 	0.64828 0.27388 0.36871 -0.09500
C 	C 	0.62296 0.20741 0.36971 0.05600
C 	C 	0.56715 0.18111 0.37332 -0.09600
H 	H 	0.54025 0.32033 0.37896 0.05500
H 	H 	0.69220 0.29481 0.36677 0.05500
H 	H 	0.54810 0.13010 0.37480 0.05000
C 	C 	0.50355 0.79824 0.00753 0.05900
C 	C 	0.47040 0.83626 0.00632 -0.08900
C 	C 	0.40958 0.80599 0.00351 0.05200
C 	C 	0.38219 0.73799 0.00220 -0.09700
C 	C 	0.41509 0.69985 0.00322 0.04700
C 	C 	0.47591 0.73009 0.00608 -0.09000
H 	H 	0.49124 0.88854 0.00677 0.06000
H 	H 	0.33477 0.71426 0.99951 0.06500
H 	H 	0.50117 0.70035 0.00654 0.05300
C 	C 	0.50818 0.79919 0.50983 0.06200
C 	C 	0.47516 0.83742 0.50808 -0.09200
C 	C 	0.41427 0.80774 0.50522 0.06300
C 	C 	0.38670 0.74013 0.50440 -0.09300
C 	C 	0.41946 0.70177 0.50593 0.06100
C 	C 	0.48034 0.73142 0.50887 -0.09400
H 	H 	0.49614 0.88939 0.50814 0.06400
H 	H 	0.33921 0.71683 0.50164 0.05900
H 	H 	0.50548 0.70148 0.50970 0.05600
Zn	Zn	0.17075 0.15480 0.00059 1.17800
Zn	Zn	0.05555 0.09085 0.88656 1.18900
O 	O 	0.04785 0.96538 0.80555 -0.42300
O 	O 	0.02251 0.05391 0.80977 -0.44200
O 	O 	0.05389 0.88521 0.88460 -0.49200
C 	C 	0.23723 0.11330 0.95987 0.34200
O 	O 	0.99245 0.99171 0.86999 -0.85800
C 	C 	0.16975 0.25128 0.95248 0.34200
O 	O 	0.24855 0.15398 0.00372 -0.48400
O 	O 	0.17370 0.06745 0.91723 -0.38500
O 	O 	0.07701 0.10716 0.95932 -0.78300
O 	O 	0.10790 0.98567 0.96256 -0.43400
O 	O 	0.12573 0.19122 0.90588 -0.46000
O 	O 	0.19207 0.24790 0.99691 -0.45900
Zn	Zn	0.86652 0.87688 0.89213 1.17900
Zn	Zn	0.98605 0.92232 0.99380 1.19500
Zn	Zn	0.01649 0.00751 0.93938 1.20700
C 	C 	0.86558 0.76863 0.93263 0.34600
C 	C 	0.82969 0.93726 0.95341 0.34700
O 	O 	0.92620 0.03397 0.91696 -0.48900
Zn	Zn	0.99400 0.05996 0.02662 1.18800
O 	O 	0.93046 0.81794 0.97352 -0.45800
O 	O 	0.83120 0.78277 0.89589 -0.46500
O 	O 	0.80953 0.90587 0.90444 -0.46700
O 	O 	0.89028 0.95498 0.99194 -0.45900
C 	C 	0.02303 0.00895 0.10364 0.25400
O 	O 	0.95601 0.90795 0.91954 -0.78600
C 	C 	0.92274 0.08389 0.94547 0.34400
O 	O 	0.01824 0.95399 0.07141 -0.39100
O 	O 	0.02735 0.06515 0.09562 -0.46100
O 	O 	0.95403 0.10714 0.99631 -0.50200
O 	O 	0.03897 0.02245 0.00821 -0.91200
Zn	Zn	0.01684 0.92854 0.84602 1.19000
C 	C 	0.03323 0.00737 0.78641 0.25200
C 	C 	0.10196 0.92589 0.93561 0.34200
H 	H 	0.08891 0.04839 0.03637 0.15300
H 	H 	0.94329 0.97337 0.84466 0.15700
Zn	Zn	0.17380 0.15588 0.50219 1.18200
Zn	Zn	0.05756 0.09363 0.38884 1.18900
O 	O 	0.04969 0.97158 0.30598 -0.43800
O 	O 	0.02230 0.05842 0.31166 -0.43200
O 	O 	0.05971 0.88926 0.38424 -0.49300
C 	C 	0.23934 0.11540 0.46000 0.33100
O 	O 	0.99547 0.99378 0.37180 -0.86000
C 	C 	0.17206 0.25410 0.45550 0.34100
O 	O 	0.25111 0.15512 0.50435 -0.47200
O 	O 	0.17575 0.07108 0.41724 -0.38800
O 	O 	0.08011 0.10835 0.46160 -0.78600
O 	O 	0.11215 0.98736 0.46309 -0.43600
O 	O 	0.12681 0.19470 0.40851 -0.45500
O 	O 	0.19507 0.24963 0.49953 -0.46300
Zn	Zn	0.87082 0.87628 0.39351 1.17900
Zn	Zn	0.99097 0.92134 0.49478 1.19400
Zn	Zn	0.02027 0.00819 0.44107 1.20700
C 	C 	0.87055 0.76770 0.43358 0.34500
C 	C 	0.83428 0.93534 0.45552 0.34900
O 	O 	0.92975 0.03395 0.42011 -0.49000
Zn	Zn	0.99843 0.05818 0.52927 1.19200
O 	O 	0.93570 0.81673 0.47407 -0.45500
O 	O 	0.83612 0.78174 0.39679 -0.46600
O 	O 	0.81375 0.90432 0.40642 -0.46800
O 	O 	0.89480 0.95244 0.49372 -0.46600
C 	C 	0.02979 0.00563 0.60559 0.30100
O 	O 	0.96039 0.90811 0.42067 -0.78700
C 	C 	0.92684 0.08372 0.44930 0.34500
O 	O 	0.02571 0.95211 0.57268 -0.38300
O 	O 	0.03206 0.06161 0.59789 -0.47200
O 	O 	0.95817 0.10593 0.50004 -0.50700
O 	O 	0.04342 0.02184 0.50980 -0.90600
Zn	Zn	0.02107 0.93279 0.34686 1.19100
C 	C 	0.03154 0.01177 0.28656 0.29600
C 	C 	0.10700 0.92866 0.43544 0.34400
H 	H 	0.09343 0.04775 0.53775 0.15600
H 	H 	0.94613 0.97496 0.34666 0.15900
C 	C 	0.03457 0.00650 0.74093 -0.06100
C 	C 	0.07231 0.07248 0.74295 -0.04100
C 	C 	0.07350 0.07175 0.69968 0.03300
C 	C 	0.03588 0.00502 0.65346 -0.17800
C 	C 	0.99841 0.93854 0.65164 0.22200
C 	C 	0.99889 0.93955 0.69566 -0.06800
H 	H 	0.10293 0.12319 0.70183 0.02400
H 	H 	0.97003 0.88833 0.69405 0.05200
H 	H 	0.10104 0.12437 0.77815 0.04900
O 	O 	0.96073 0.87272 0.60679 -0.29000
H 	H 	0.91415 0.86401 0.58528 0.15000
C 	C 	0.02428 0.00794 0.14969 -0.05800
C 	C 	0.06932 0.99415 0.18416 -0.00600
C 	C 	0.07165 0.99548 0.22879 0.07000
C 	C 	0.02816 0.00961 0.23897 -0.18500
C 	C 	0.98138 0.02124 0.20334 0.19300
C 	C 	0.98046 0.02153 0.15944 -0.11300
H 	H 	0.10783 0.98640 0.25578 0.03500
H 	H 	0.94486 0.03124 0.13248 0.05900
H 	H 	0.10338 0.98366 0.17692 0.04600
O 	O 	0.93665 0.03240 0.21135 -0.33400
H 	H 	0.89443 0.98282 0.19229 0.17400
C 	C 	0.20315 0.32459 0.45858 -0.13100
C 	C 	0.22980 0.38397 0.46150 0.07600
C 	C 	0.26188 0.45509 0.46518 -0.07300
C 	C 	0.33076 0.49950 0.49506 -0.02800
C 	C 	0.36276 0.57093 0.49919 0.00700
C 	C 	0.38904 0.63063 0.50246 -0.04200
H 	H 	0.36318 0.48226 0.51663 0.03900
H 	H 	0.22948 0.47235 0.44361 0.05100
C 	C 	0.56907 0.82787 0.51044 -0.04000
C 	C 	0.61971 0.85027 0.51048 0.00900
C 	C 	0.67984 0.87492 0.50997 -0.02500
C 	C 	0.68675 0.90812 0.48145 -0.07100
C 	C 	0.74002 0.92050 0.47325 0.08400
C 	C 	0.78363 0.92863 0.46560 -0.12700
H 	H 	0.64949 0.92136 0.46125 0.05800
H 	H 	0.71727 0.86188 0.53024 0.04000
C 	C 	0.37754 0.84418 0.49975 -0.03800
C 	C 	0.34485 0.87256 0.49409 0.01400
C 	C 	0.30368 0.90408 0.48579 -0.02500
C 	C 	0.25757 0.88648 0.49722 -0.07200
C 	C 	0.20532 0.90317 0.47754 0.08300
C 	C 	0.16072 0.91552 0.45934 -0.13800
H 	H 	0.25526 0.85377 0.51728 0.05400
H 	H 	0.30618 0.93706 0.46591 0.04900
C 	C 	0.38504 0.62850 0.99951 -0.02400
C 	C 	0.35908 0.56867 0.99612 -0.00300
C 	C 	0.32751 0.49712 0.99194 -0.00800
C 	C 	0.25873 0.45120 0.96045 -0.08200
C 	C 	0.22699 0.38040 0.95730 0.08000
C 	C 	0.20059 0.32132 0.95488 -0.13400
H 	H 	0.22611 0.46714 0.93736 0.05300
H 	H 	0.36015 0.48120 0.01503 0.02600
C 	C 	0.77859 0.92988 0.96308 -0.12000
C 	C 	0.73470 0.92117 0.97048 0.08100
C 	C 	0.68112 0.90807 0.97841 -0.05200
C 	C 	0.67544 0.87639 0.00800 -0.04200
C 	C 	0.61518 0.85081 0.00836 0.01200
C 	C 	0.56448 0.82769 0.00823 -0.04300
H 	H 	0.71406 0.86531 0.02933 0.04300
H 	H 	0.64268 0.91940 0.95717 0.05700
C 	C 	0.37274 0.84229 0.99862 -0.02500
C 	C 	0.34006 0.87064 0.99342 0.01300
C 	C 	0.29895 0.90223 0.98560 -0.02700
C 	C 	0.25311 0.88447 0.99729 -0.05800
C 	C 	0.20066 0.90094 0.97780 0.07900
C 	C 	0.15589 0.91307 0.95964 -0.13500
H 	H 	0.25105 0.85166 0.01730 0.04300
H 	H 	0.30119 0.93532 0.96580 0.05200
C 	C 	0.87740 0.10143 0.42396 -0.16000
C 	C 	0.83570 0.11697 0.40449 0.07300
C 	C 	0.78618 0.13671 0.38353 -0.08300
C 	C 	0.72903 0.10670 0.38186 -0.02900
C 	C 	0.68969 0.14017 0.37561 -0.00200
C 	C 	0.65839 0.16991 0.37211 -0.04600
H 	H 	0.71588 0.06158 0.39067 0.02900
H 	H 	0.79919 0.18159 0.37446 0.04700
C 	C 	0.83711 0.69614 0.42829 -0.13200
C 	C 	0.80909 0.63601 0.42389 0.07700
C 	C 	0.77591 0.56420 0.41880 -0.07500
C 	C 	0.70746 0.51744 0.38417 -0.02900
C 	C 	0.67468 0.44557 0.37908 0.00400
C 	C 	0.64840 0.38571 0.37549 -0.04500
H 	H 	0.67609 0.53317 0.35957 0.03700
H 	H 	0.80719 0.54836 0.44336 0.05100
C 	C 	0.48234 0.19668 0.38306 -0.04700
C 	C 	0.43656 0.17634 0.38876 0.00000
C 	C 	0.38178 0.15282 0.39553 -0.03100
C 	C 	0.39529 0.16004 0.44239 -0.07700
C 	C 	0.34161 0.14372 0.45035 0.06900
C 	C 	0.29562 0.13056 0.45568 -0.13600
H 	H 	0.44728 0.18107 0.47532 0.04600
H 	H 	0.32972 0.13173 0.36266 0.03300
C 	C 	0.65439 0.16939 0.86918 -0.04500
C 	C 	0.68537 0.13935 0.87207 -0.00000
C 	C 	0.72429 0.10543 0.87767 -0.02900
C 	C 	0.78069 0.13467 0.87831 -0.08300
C 	C 	0.83068 0.11555 0.89951 0.07300
C 	C 	0.87278 0.10064 0.91937 -0.15800
H 	H 	0.79303 0.17889 0.86853 0.04700
H 	H 	0.71178 0.06091 0.88714 0.03100
C 	C 	0.64469 0.38580 0.87408 -0.04400
C 	C 	0.67072 0.44567 0.87762 0.00500
C 	C 	0.70316 0.51757 0.88264 -0.02800
C 	C 	0.77149 0.56484 0.91760 -0.07400
C 	C 	0.80434 0.63673 0.92270 0.07700
C 	C 	0.83219 0.69695 0.92717 -0.13300
H 	H 	0.80294 0.54941 0.94246 0.05100
H 	H 	0.67162 0.53288 0.85775 0.03800
C 	C 	0.47988 0.19674 0.88255 -0.04500
C 	C 	0.43431 0.17632 0.88848 0.00300
C 	C 	0.37966 0.15263 0.89539 -0.03000
C 	C 	0.39333 0.15966 0.94226 -0.07600
C 	C 	0.33965 0.14278 0.95026 0.07400
C 	C 	0.29362 0.12912 0.95560 -0.13700
H 	H 	0.44540 0.18080 0.97513 0.04900
H 	H 	0.32752 0.13144 0.86259 0.03700
