data_crystal

_cell_length_a 18.33981
_cell_length_b 18.83308
_cell_length_c 34.87002
_cell_angle_alpha 95.45361
_cell_angle_beta  95.45390
_cell_angle_gamma 126.38813

_symmetry_space_group_name_	'P 1'
_symmetry_space_group_name_H-M	'P 1'

loop_
_symmetry_equiv_pos_as_xyz
  x,y,z

loop_
_atom_site_label
_atom_site_type_symbol
_atom_site_fract_x
_atom_site_fract_y
_atom_site_fract_z
_atom_site_charge
C 	C 	0.89566 0.98401 0.96226 0.12700
N 	N 	0.85437 0.89649 0.96484 -0.13600
C 	C 	0.90446 0.86460 0.96495 0.12100
N 	N 	0.99507 0.92021 0.96292 -0.13400
C 	C 	0.03587 0.00706 0.96032 0.11600
N 	N 	0.98630 0.03890 0.96009 -0.14000
C 	C 	0.94388 0.03276 0.48215 0.11700
N 	N 	0.03758 0.08618 0.48867 -0.13700
C 	C 	0.08192 0.04856 0.48992 0.11700
N 	N 	0.03264 0.95807 0.48546 -0.13400
C 	C 	0.93906 0.90446 0.47730 0.12200
N 	N 	0.89496 0.94211 0.47535 -0.13600
Cu	Cu	0.75642 0.33731 0.96370 0.92700
Cu	Cu	0.73548 0.26519 0.04683 0.87500
Cu	Cu	0.60864 0.29758 0.01124 0.89800
Cu	Cu	0.58807 0.33418 0.93115 0.89800
C 	C 	0.69344 0.30537 0.88059 0.31600
O 	O 	0.81338 0.46909 0.96259 -0.35400
C 	C 	0.65243 0.31404 0.09666 0.30800
O 	O 	0.61244 0.26597 0.95779 -0.63800
O 	O 	0.74265 0.35277 0.01885 -0.63900
O 	O 	0.81533 0.27586 0.96946 -0.36500
O 	O 	0.70875 0.17997 0.00344 -0.43200
O 	O 	0.65741 0.34720 0.88834 -0.39000
O 	O 	0.47690 0.23425 0.00181 -0.38300
C 	C 	0.42740 0.23141 0.97075 0.29900
C 	C 	0.77075 0.50322 0.97230 0.28400
O 	O 	0.68490 0.44972 0.97677 -0.39500
O 	O 	0.46580 0.28414 0.94508 -0.39100
O 	O 	0.74630 0.30397 0.90855 -0.36300
C 	C 	0.77252 0.20021 0.98284 0.29300
O 	O 	0.60627 0.32020 0.06731 -0.38000
O 	O 	0.72687 0.32060 0.09293 -0.40800
H 	H 	0.57168 0.20066 0.94703 0.16900
H 	H 	0.78310 0.41518 0.03386 0.17700
Cu	Cu	0.62549 0.21505 0.51356 0.92700
Cu	Cu	0.63029 0.16968 0.41641 0.87900
Cu	Cu	0.68663 0.35429 0.46108 0.89800
Cu	Cu	0.66079 0.39880 0.54285 0.89900
C 	C 	0.67492 0.29097 0.59619 0.31500
O 	O 	0.49974 0.18090 0.51989 -0.35700
C 	C 	0.62435 0.29043 0.37542 0.31100
O 	O 	0.71292 0.35364 0.51547 -0.64100
O 	O 	0.60110 0.22050 0.45740 -0.63900
O 	O 	0.67491 0.14487 0.50969 -0.35400
O 	O 	0.64283 0.09513 0.44409 -0.41000
O 	O 	0.64275 0.33579 0.58805 -0.38200
O 	O 	0.76671 0.48329 0.46877 -0.38000
C 	C 	0.75643 0.53566 0.49161 0.28900
C 	C 	0.47092 0.22596 0.50754 0.28100
O 	O 	0.53072 0.30839 0.50182 -0.38700
O 	O 	0.73249 0.51819 0.52617 -0.38000
O 	O 	0.66745 0.23255 0.56864 -0.36200
C 	C 	0.69906 0.12723 0.47795 0.27900
O 	O 	0.68631 0.35640 0.40472 -0.38700
O 	O 	0.58118 0.20609 0.37895 -0.41500
H 	H 	0.77921 0.38490 0.52572 0.16700
H 	H 	0.53681 0.19812 0.44881 0.16800
C 	C 	0.75219 0.36205 0.70636 -0.11300
C 	C 	0.71317 0.27883 0.71774 0.00400
C 	C 	0.67139 0.20115 0.68896 0.11900
C 	C 	0.66272 0.20603 0.64913 -0.03200
C 	C 	0.69655 0.28848 0.63772 -0.12000
C 	C 	0.74421 0.36720 0.66656 0.19100
C 	C 	0.70658 0.27185 0.75932 0.00700
O 	O 	0.63501 0.11969 0.69971 -0.27400
H 	H 	0.62678 0.14516 0.62720 0.06500
O 	O 	0.78450 0.44936 0.65590 -0.29900
H 	H 	0.78588 0.42240 0.72840 0.06900
C 	C 	0.78661 0.31289 0.78803 0.11500
C 	C 	0.78106 0.31788 0.82789 -0.03000
C 	C 	0.69612 0.28316 0.83934 -0.12300
C 	C 	0.61539 0.23722 0.81053 0.19200
C 	C 	0.62085 0.23146 0.77073 -0.11100
O 	O 	0.87003 0.34743 0.77719 -0.27100
H 	H 	0.84342 0.35230 0.84987 0.06300
O 	O 	0.53097 0.19717 0.82124 -0.30000
H 	H 	0.55874 0.19831 0.74873 0.07900
H 	H 	0.73840 0.46096 0.65642 0.14800
H 	H 	0.89890 0.41162 0.77705 0.14500
H 	H 	0.51936 0.24239 0.82171 0.14400
H 	H 	0.68595 0.11453 0.70214 0.15100
C 	C 	0.68758 0.38379 0.28262 -0.11600
C 	C 	0.60334 0.32353 0.25640 0.00400
C 	C 	0.52327 0.26221 0.27076 0.11800
C 	C 	0.52948 0.25587 0.31047 -0.03600
C 	C 	0.61530 0.31089 0.33614 -0.12700
C 	C 	0.69395 0.37806 0.32238 0.19100
C 	C 	0.60236 0.31475 0.21380 0.00800
O 	O 	0.43989 0.20465 0.24557 -0.27600
H 	H 	0.46812 0.20584 0.32099 0.05600
O 	O 	0.77833 0.43352 0.34700 -0.29200
H 	H 	0.74928 0.43200 0.27179 0.07100
C 	C 	0.61391 0.38117 0.19367 0.11400
C 	C 	0.62514 0.37808 0.15445 -0.02900
C 	C 	0.62672 0.30997 0.13550 -0.12700
C 	C 	0.61068 0.24133 0.15509 0.19200
C 	C 	0.59889 0.24410 0.19408 -0.11200
O 	O 	0.61347 0.44854 0.21213 -0.27400
H 	H 	0.63586 0.43031 0.13930 0.05600
O 	O 	0.60999 0.17324 0.13658 -0.30700
H 	H 	0.58968 0.19261 0.20939 0.07700
H 	H 	0.78392 0.48769 0.35754 0.15600
H 	H 	0.67896 0.49824 0.22371 0.14400
H 	H 	0.54478 0.12536 0.12386 0.14300
H 	H 	0.41229 0.23671 0.24526 0.14900
C 	C 	0.79556 0.62630 0.48341 -0.08200
C 	C 	0.87155 0.66924 0.46441 -0.01000
C 	C 	0.91441 0.75776 0.45928 0.01100
C 	C 	0.88539 0.80654 0.47582 -0.01400
C 	C 	0.80602 0.76185 0.49264 -0.05300
C 	C 	0.75926 0.67146 0.49526 0.05000
S 	S 	0.99823 0.80344 0.42927 -0.03000
S 	S 	0.65197 0.61417 0.51047 -0.05000
H 	H 	0.58292 0.57691 0.47835 0.03700
H 	H 	0.08379 0.84558 0.45179 0.04300
H 	H 	0.89731 0.63375 0.45350 0.05000
H 	H 	0.78054 0.79743 0.50373 0.05400
C 	C 	0.77185 0.11515 0.48222 -0.09000
C 	C 	0.77950 0.07532 0.51284 -0.00500
C 	C 	0.84178 0.05518 0.51502 0.00900
C 	C 	0.89527 0.07246 0.48570 -0.01300
C 	C 	0.89263 0.11812 0.45679 -0.05600
C 	C 	0.83226 0.14076 0.45521 0.05300
S 	S 	0.85364 0.01010 0.55505 -0.03300
S 	S 	0.83568 0.20411 0.42039 -0.10700
H 	H 	0.77465 0.14719 0.38657 0.02500
H 	H 	0.78939 0.91853 0.54681 0.04100
H 	H 	0.73574 0.05836 0.53452 0.05100
H 	H 	0.93584 0.13404 0.43493 0.05300
C 	C 	0.18317 0.10536 0.49630 -0.01400
C 	C 	0.22766 0.13809 0.46466 -0.05500
C 	C 	0.32180 0.17807 0.46792 0.05000
C 	C 	0.37255 0.18681 0.50352 -0.08700
C 	C 	0.32864 0.15711 0.53559 -0.01000
C 	C 	0.23450 0.11671 0.53219 0.00900
S 	S 	0.37374 0.21210 0.42662 -0.06300
S 	S 	0.18172 0.08106 0.57315 -0.03000
H 	H 	0.18511 0.14892 0.59379 0.03900
H 	H 	0.41118 0.30052 0.42732 0.04000
H 	H 	0.18819 0.12916 0.43698 0.05200
H 	H 	0.36777 0.16519 0.56320 0.04500
C 	C 	0.81259 0.59826 0.97122 -0.08500
C 	C 	0.81510 0.65107 0.00339 -0.01100
C 	C 	0.83896 0.73613 0.00087 0.01000
C 	C 	0.86066 0.76928 0.96579 -0.01400
C 	C 	0.85762 0.71636 0.93358 -0.05200
C 	C 	0.83424 0.63158 0.93607 0.04500
S 	S 	0.84296 0.80097 0.04207 -0.03000
S 	S 	0.83097 0.56761 0.89470 -0.03000
H 	H 	0.74619 0.51995 0.87072 0.03900
H 	H 	0.93056 0.85518 0.06391 0.03900
H 	H 	0.79702 0.62530 0.03023 0.03900
H 	H 	0.87573 0.74223 0.90675 0.05300
C 	C 	0.84581 0.02244 0.96610 -0.01700
C 	C 	0.84208 0.05189 0.00378 -0.05400
C 	C 	0.82204 0.11275 0.00981 0.05700
C 	C 	0.80068 0.14139 0.97744 -0.09200
C 	C 	0.80016 0.10859 0.93950 -0.00500
C 	C 	0.82243 0.04930 0.93368 0.01100
S 	S 	0.83173 0.15827 0.05824 -0.09700
S 	S 	0.82154 0.00960 0.88572 -0.03100
H 	H 	0.90796 0.06533 0.87718 0.04100
H 	H 	0.91996 0.23498 0.07158 0.03500
H 	H 	0.86103 0.03223 0.02881 0.05300
H 	H 	0.78208 0.12888 0.91447 0.04800
C 	C 	0.13526 0.06832 0.96132 -0.01100
C 	C 	0.19243 0.13827 0.99371 -0.05600
C 	C 	0.28816 0.19312 0.99690 0.05400
C 	C 	0.32728 0.17729 0.96752 -0.09000
C 	C 	0.26994 0.10944 0.93446 -0.00700
C 	C 	0.17419 0.05502 0.93115 0.00400
S 	S 	0.35795 0.28299 0.03710 -0.03500
S 	S 	0.10374 0.97228 0.88863 -0.02100
H 	H 	0.08140 0.00787 0.86162 0.03400
H 	H 	0.38322 0.25484 0.06687 0.04900
H 	H 	0.16234 0.14925 0.01667 0.05300
H 	H 	0.29998 0.09862 0.91143 0.03400
