data_crystal

_cell_length_a 26.27572
_cell_length_b 26.47924
_cell_length_c 26.53668
_cell_angle_alpha 95.49488
_cell_angle_beta  95.49557
_cell_angle_gamma 125.83016

_symmetry_space_group_name_	'P 1'
_symmetry_space_group_name_H-M	'P 1'

loop_
_symmetry_equiv_pos_as_xyz
  x,y,z

loop_
_atom_site_label
_atom_site_type_symbol
_atom_site_fract_x
_atom_site_fract_y
_atom_site_fract_z
_atom_site_charge
C 	C 	0.96385 0.02613 0.98228 0.02600
C 	C 	0.92867 0.96123 0.98369 -0.07300
C 	C 	0.95749 0.93052 0.97975 0.02700
C 	C 	0.02171 0.96489 0.97461 -0.07100
C 	C 	0.05729 0.02989 0.97375 0.02700
C 	C 	0.02834 0.06053 0.97760 -0.07100
H 	H 	0.87907 0.93476 0.98796 0.05000
H 	H 	0.04407 0.94119 0.97158 0.05100
H 	H 	0.05569 0.11073 0.97659 0.05000
C 	C 	0.94179 0.00756 0.45746 0.02700
C 	C 	0.90592 0.94244 0.45860 -0.07300
C 	C 	0.93617 0.91291 0.46097 0.02800
C 	C 	0.00190 0.94829 0.46110 -0.07200
C 	C 	0.03799 0.01341 0.46058 0.02900
C 	C 	0.00784 0.04296 0.45884 -0.07200
H 	H 	0.85502 0.91513 0.45826 0.05000
H 	H 	0.02494 0.92514 0.46171 0.05100
H 	H 	0.03568 0.09338 0.45863 0.05000
Cu	Cu	0.63803 0.23966 0.00304 0.92700
Cu	Cu	0.68954 0.24648 0.89442 0.86800
Cu	Cu	0.66992 0.33911 0.93700 0.89800
Cu	Cu	0.64133 0.35792 0.03980 0.89400
C 	C 	0.65938 0.28684 0.11089 0.28800
O 	O 	0.54550 0.20368 0.00360 -0.36200
C 	C 	0.65595 0.30339 0.82514 0.28300
O 	O 	0.69046 0.33844 0.00807 -0.64300
O 	O 	0.62824 0.24645 0.92972 -0.64000
O 	O 	0.67593 0.19307 0.99801 -0.36700
O 	O 	0.74782 0.26085 0.95223 -0.43900
O 	O 	0.63036 0.31231 0.09834 -0.38000
O 	O 	0.71693 0.43012 0.94689 -0.38000
C 	C 	0.71559 0.46609 0.98408 0.29600
C 	C 	0.52088 0.23091 0.98508 0.28700
O 	O 	0.55880 0.29033 0.97972 -0.39200
O 	O 	0.67928 0.44195 0.01914 -0.39600
O 	O 	0.66111 0.24913 0.07592 -0.35500
C 	C 	0.72981 0.21777 0.98118 0.29000
O 	O 	0.65313 0.33763 0.86294 -0.37100
O 	O 	0.65241 0.25278 0.83193 -0.41300
H 	H 	0.73672 0.36597 0.02299 0.16900
H 	H 	0.58401 0.21931 0.90967 0.17900
Cu	Cu	0.73783 0.34150 0.43698 0.92800
Cu	Cu	0.73560 0.29444 0.54692 0.86800
Cu	Cu	0.63812 0.30847 0.50391 0.89800
Cu	Cu	0.61268 0.32801 0.39894 0.89600
C 	C 	0.68791 0.31525 0.32899 0.28900
O 	O 	0.76786 0.43163 0.43450 -0.35600
C 	C 	0.67698 0.32619 0.61587 0.28200
O 	O 	0.63805 0.28491 0.43307 -0.64000
O 	O 	0.73185 0.35246 0.51028 -0.64100
O 	O 	0.78791 0.30701 0.44310 -0.36800
O 	O 	0.72144 0.23591 0.48996 -0.44000
O 	O 	0.65974 0.34155 0.34092 -0.38000
O 	O 	0.54614 0.25934 0.49589 -0.37900
C 	C 	0.50655 0.25363 0.45703 0.29500
C 	C 	0.73673 0.45262 0.45173 0.28200
O 	O 	0.67755 0.41195 0.45787 -0.39700
O 	O 	0.52677 0.28386 0.41816 -0.39200
O 	O 	0.72808 0.31688 0.36428 -0.35400
C 	C 	0.76412 0.25386 0.46031 0.28900
O 	O 	0.64136 0.32758 0.57805 -0.37000
O 	O 	0.72890 0.33158 0.60898 -0.41300
H 	H 	0.61226 0.23868 0.42002 0.17000
H 	H 	0.75830 0.39673 0.52946 0.17800
C 	C 	0.65365 0.31661 0.77237 -0.06700
C 	C 	0.70616 0.37301 0.76059 -0.00400
C 	C 	0.71108 0.37896 0.70869 0.00200
C 	C 	0.66387 0.32821 0.66875 -0.06700
C 	C 	0.60733 0.27581 0.68062 -0.00400
C 	C 	0.60215 0.27010 0.73253 0.00100
C 	C 	0.75582 0.42412 0.80177 0.07600
C 	C 	0.55522 0.22718 0.63950 0.07500
C 	C 	0.54391 0.21673 0.74500 0.08300
C 	C 	0.76428 0.43725 0.69633 0.08300
N 	N 	0.49744 0.17416 0.75497 -0.11800
N 	N 	0.80674 0.48376 0.68645 -0.11800
N 	N 	0.51365 0.18842 0.60667 -0.11600
N 	N 	0.79539 0.46489 0.83465 -0.11800
C 	C 	0.67352 0.28604 0.16588 -0.06300
C 	C 	0.62592 0.23740 0.18852 0.00400
C 	C 	0.63335 0.24428 0.24265 -0.00200
C 	C 	0.68803 0.29997 0.27402 -0.06300
C 	C 	0.73864 0.34521 0.25133 0.00400
C 	C 	0.73142 0.33805 0.19717 -0.00300
C 	C 	0.56849 0.18133 0.15613 0.08900
C 	C 	0.79708 0.40014 0.28366 0.09000
C 	C 	0.78292 0.38481 0.17362 0.07200
C 	C 	0.58420 0.19477 0.26614 0.07100
N 	N 	0.82398 0.42210 0.15479 -0.12200
N 	N 	0.54501 0.15530 0.28493 -0.12300
N 	N 	0.84369 0.44397 0.30949 -0.11100
N 	N 	0.52267 0.13664 0.13025 -0.11300
C 	C 	0.75140 0.60437 0.46141 -0.06500
C 	C 	0.81695 0.64947 0.46298 0.02700
C 	C 	0.85675 0.63034 0.46285 -0.06400
C 	C 	0.83095 0.56634 0.46025 0.01500
C 	C 	0.76501 0.52086 0.45774 -0.08500
C 	C 	0.72553 0.54047 0.45890 0.01200
C 	C 	0.84379 0.71660 0.46400 0.00100
H 	H 	0.90753 0.66494 0.46422 0.04800
H 	H 	0.86216 0.55220 0.45994 0.03800
H 	H 	0.67461 0.50612 0.45697 0.03200
H 	H 	0.72040 0.61879 0.46183 0.04600
C 	C 	0.82672 0.73465 0.42128 -0.03800
C 	C 	0.85448 0.79867 0.42129 -0.03700
C 	C 	0.89947 0.84509 0.46401 -0.00200
C 	C 	0.91473 0.82674 0.50745 -0.03700
C 	C 	0.88712 0.76280 0.50739 -0.03900
H 	H 	0.79298 0.69924 0.38772 0.04000
H 	H 	0.84251 0.81234 0.38753 0.03900
H 	H 	0.94924 0.86223 0.54070 0.03900
H 	H 	0.89997 0.74923 0.54078 0.04000
C 	C 	0.87588 0.21013 0.44494 -0.06700
C 	C 	0.83485 0.14444 0.44344 0.02700
C 	C 	0.76940 0.11411 0.44181 -0.06700
C 	C 	0.74567 0.14954 0.44431 0.01500
C 	C 	0.78720 0.21573 0.44858 -0.09300
C 	C 	0.85213 0.24563 0.44737 0.01400
C 	C 	0.86106 0.10826 0.44737 -0.00100
H 	H 	0.73726 0.06337 0.44022 0.04600
H 	H 	0.69527 0.12575 0.44434 0.03100
H 	H 	0.88465 0.29659 0.45042 0.03300
H 	H 	0.92639 0.23388 0.44558 0.04600
C 	C 	0.84271 0.05914 0.40700 -0.03800
C 	C 	0.86739 0.02472 0.41099 -0.03900
C 	C 	0.91055 0.03913 0.45538 -0.00100
C 	C 	0.92788 0.08742 0.49612 -0.03900
C 	C 	0.90329 0.12184 0.49212 -0.03900
H 	H 	0.80986 0.04806 0.37242 0.04000
H 	H 	0.85396 0.98774 0.37924 0.03900
H 	H 	0.96105 0.09879 0.53059 0.03800
H 	H 	0.91706 0.15908 0.52376 0.03700
C 	C 	0.21175 0.08153 0.50048 -0.03800
C 	C 	0.23887 0.11729 0.46218 0.00100
C 	C 	0.20014 0.12031 0.42419 -0.03800
C 	C 	0.13470 0.08670 0.42380 -0.03700
C 	C 	0.10753 0.05068 0.46195 -0.00100
C 	C 	0.14654 0.04891 0.50067 -0.03700
C 	C 	0.30760 0.15087 0.46141 0.02800
H 	H 	0.22070 0.14838 0.39480 0.03900
H 	H 	0.10502 0.08818 0.39361 0.03900
H 	H 	0.12620 0.02181 0.53062 0.03900
H 	H 	0.24111 0.07864 0.52986 0.04100
C 	C 	0.35359 0.19310 0.50543 -0.06400
C 	C 	0.41861 0.22544 0.50443 0.01900
C 	C 	0.43824 0.21670 0.45915 -0.08600
C 	C 	0.39234 0.17421 0.41528 0.01600
C 	C 	0.32731 0.14102 0.41652 -0.06500
H 	H 	0.33896 0.20131 0.54020 0.04900
H 	H 	0.45372 0.25828 0.53848 0.04100
H 	H 	0.40706 0.16678 0.38027 0.03000
H 	H 	0.29225 0.10782 0.38259 0.04700
C 	C 	0.84199 0.63221 0.96520 -0.05900
C 	C 	0.81719 0.66410 0.98204 0.02100
C 	C 	0.75894 0.63097 0.99938 -0.05000
C 	C 	0.72576 0.56635 0.00013 0.00100
C 	C 	0.75054 0.53426 0.98336 -0.07700
C 	C 	0.80876 0.56751 0.96574 0.01300
C 	C 	0.85245 0.73227 0.98191 0.00800
H 	H 	0.73948 0.65534 0.01238 0.04000
H 	H 	0.68058 0.54115 0.01330 0.03600
H 	H 	0.82854 0.54341 0.95292 0.03900
H 	H 	0.88699 0.65756 0.95174 0.04900
C 	C 	0.90668 0.77664 0.01992 -0.04400
C 	C 	0.94047 0.84142 0.01963 -0.04100
C 	C 	0.92048 0.86229 0.98113 0.00200
C 	C 	0.86597 0.81784 0.94327 -0.03700
C 	C 	0.83200 0.75306 0.94374 -0.04000
H 	H 	0.92257 0.76090 0.04964 0.04000
H 	H 	0.98227 0.87540 0.04919 0.03900
H 	H 	0.85032 0.83348 0.91328 0.03900
H 	H 	0.79011 0.71902 0.91429 0.04200
C 	C 	0.92092 0.13325 0.03044 -0.04300
C 	C 	0.86871 0.11286 0.99207 0.00500
C 	C 	0.84911 0.06533 0.94978 -0.04000
C 	C 	0.88095 0.03788 0.94614 -0.03800
C 	C 	0.93266 0.05767 0.98479 0.00300
C 	C 	0.95276 0.10572 0.02683 -0.04200
C 	C 	0.83510 0.14185 0.99566 0.02300
H 	H 	0.80926 0.04975 0.91972 0.03700
H 	H 	0.86528 0.00103 0.91344 0.03800
H 	H 	0.99250 0.12114 0.05694 0.03800
H 	H 	0.93648 0.17004 0.06316 0.04000
C 	C 	0.77039 0.10468 0.99978 -0.06000
C 	C 	0.73657 0.13026 0.99743 0.01200
C 	C 	0.76718 0.19328 0.99077 -0.09200
C 	C 	0.83274 0.23126 0.98913 0.01300
C 	C 	0.86648 0.20561 0.99149 -0.06500
H 	H 	0.74595 0.05555 0.00357 0.04200
H 	H 	0.68613 0.10047 0.99903 0.03700
H 	H 	0.85727 0.28028 0.98499 0.03200
H 	H 	0.91657 0.23480 0.98868 0.04600
C 	C 	0.23679 0.13714 0.01253 -0.04200
C 	C 	0.25447 0.12121 0.96896 0.00400
C 	C 	0.20767 0.07959 0.92526 -0.03800
C 	C 	0.14334 0.05206 0.92589 -0.03800
C 	C 	0.12538 0.06600 0.97023 0.00300
C 	C 	0.17247 0.10966 0.01314 -0.04200
C 	C 	0.32146 0.14565 0.97010 0.02900
H 	H 	0.22096 0.06735 0.89134 0.04100
H 	H 	0.10729 0.01860 0.89249 0.04000
H 	H 	0.15905 0.12075 0.04752 0.03900
H 	H 	0.27273 0.16977 0.04625 0.04000
C 	C 	0.35778 0.18890 0.93882 -0.06400
C 	C 	0.42238 0.21485 0.94215 0.01200
C 	C 	0.45121 0.19776 0.97687 -0.08300
C 	C 	0.41410 0.15265 0.00679 0.00900
C 	C 	0.34957 0.12682 0.00345 -0.06700
H 	H 	0.33627 0.20325 0.91261 0.04800
H 	H 	0.45022 0.24891 0.91831 0.03500
H 	H 	0.43565 0.13903 0.03376 0.04500
H 	H 	0.32162 0.09288 0.02733 0.04900
