data_crystal

_cell_length_a 16.92282
_cell_length_b 17.16050
_cell_length_c 24.77911
_cell_angle_alpha 89.99537
_cell_angle_beta  90.00599
_cell_angle_gamma 100.70647

_symmetry_space_group_name_	'P 1'
_symmetry_space_group_name_H-M	'P 1'

loop_
_symmetry_equiv_pos_as_xyz
  x,y,z

loop_
_atom_site_label
_atom_site_type_symbol
_atom_site_fract_x
_atom_site_fract_y
_atom_site_fract_z
_atom_site_charge
Ni	Ni	0.39532 0.64337 0.80433 1.10100
O 	O 	0.34674 0.73302 0.77088 -0.69900
Ni	Ni	0.30034 0.68131 0.70196 1.09800
O 	O 	0.46297 0.71380 0.86098 -0.37800
O 	O 	0.51699 0.80437 0.79764 -0.42100
O 	O 	0.30674 0.62283 0.86244 -0.37900
Ni	Ni	0.42091 0.83274 0.75450 1.06600
O 	O 	0.30875 0.47185 0.83082 -0.41200
O 	O 	0.47804 0.81380 0.68339 -0.40400
O 	O 	0.26893 0.77578 0.66134 -0.39100
O 	O 	0.33890 0.58946 0.73974 -0.70300
O 	O 	0.43596 0.54737 0.83302 -0.38500
O 	O 	0.24826 0.60727 0.64160 -0.37700
O 	O 	0.17382 0.52204 0.70134 -0.41800
Ni	Ni	0.25096 0.50738 0.76484 1.06400
H 	H 	0.30237 0.74529 0.79341 0.14900
H 	H 	0.37674 0.56585 0.71729 0.15600
C 	C 	0.44832 0.76178 0.64628 0.31900
O 	O 	0.19734 0.58360 0.80854 -0.42200
C 	C 	0.50886 0.78184 0.84830 0.29300
C 	C 	0.30729 0.84976 0.66708 0.31200
C 	C 	0.22946 0.61686 0.85304 0.30700
C 	C 	0.19849 0.54010 0.65162 0.29400
C 	C 	0.38789 0.47743 0.83464 0.29600
O 	O 	0.40565 0.69326 0.66030 -0.40300
O 	O 	0.33451 0.87717 0.71465 -0.43000
Ni	Ni	0.65232 0.34865 0.31487 1.10000
O 	O 	0.69232 0.25853 0.27564 -0.70100
Ni	Ni	0.72402 0.30932 0.20382 1.09800
O 	O 	0.59392 0.27752 0.37477 -0.38000
O 	O 	0.52508 0.19291 0.31295 -0.42100
O 	O 	0.75163 0.36736 0.36496 -0.37800
Ni	Ni	0.61430 0.15941 0.26526 1.06600
O 	O 	0.74481 0.52006 0.33494 -0.41500
O 	O 	0.54543 0.17489 0.19898 -0.40400
O 	O 	0.74715 0.21406 0.16003 -0.39200
O 	O 	0.69391 0.40179 0.24598 -0.70400
O 	O 	0.61916 0.44518 0.34898 -0.38300
O 	O 	0.76283 0.38252 0.14006 -0.38000
O 	O 	0.85059 0.46737 0.19296 -0.41800
Ni	Ni	0.78671 0.48362 0.26307 1.06300
H 	H 	0.74083 0.24615 0.29349 0.15100
H 	H 	0.65166 0.42512 0.22780 0.15700
C 	C 	0.56699 0.22730 0.16067 0.32200
O 	O 	0.84652 0.40621 0.30018 -0.42600
C 	C 	0.53864 0.21528 0.36330 0.29300
C 	C 	0.71054 0.13991 0.16818 0.31100
C 	C 	0.82702 0.37948 0.34888 0.31000
C 	C 	0.81685 0.44792 0.14553 0.29600
C 	C 	0.66772 0.51499 0.34733 0.29700
O 	O 	0.61115 0.29625 0.17208 -0.40300
O 	O 	0.69150 0.11320 0.21748 -0.42700
C 	C 	0.96677 0.57040 0.04950 0.00000
C 	C 	0.04986 0.57223 0.05077 -0.03600
C 	C 	0.09486 0.58377 0.00320 -0.04100
C 	C 	0.05737 0.59558 0.95396 0.00800
C 	C 	0.97497 0.59800 0.95326 -0.04800
C 	C 	0.92996 0.58626 0.00089 -0.03500
C 	C 	0.10151 0.59493 0.90243 0.00600
C 	C 	0.17728 0.63506 0.89711 -0.15000
C 	C 	0.91800 0.54631 0.09829 0.00600
C 	C 	0.85477 0.48595 0.09615 -0.15000
H 	H 	0.07896 0.56102 0.08818 0.03700
H 	H 	0.15810 0.58029 0.00426 0.04300
H 	H 	0.94546 0.60720 0.91561 0.03800
H 	H 	0.86617 0.58733 0.99976 0.03400
H 	H 	0.07293 0.55843 0.86944 0.03400
H 	H 	0.20402 0.67470 0.92910 0.07300
H 	H 	0.93974 0.57136 0.13700 0.02700
H 	H 	0.83404 0.46057 0.05730 0.07800
C 	C 	0.13187 0.47435 0.50905 0.00700
C 	C 	0.13172 0.52377 0.46400 -0.04000
C 	C 	0.08006 0.49962 0.42067 -0.04000
C 	C 	0.02815 0.42573 0.42192 0.00700
C 	C 	0.03208 0.37393 0.46541 -0.03700
C 	C 	0.08368 0.39820 0.50885 -0.04100
C 	C 	0.96865 0.40412 0.37806 0.00300
C 	C 	0.89058 0.37706 0.38940 -0.15000
C 	C 	0.18320 0.50287 0.55602 0.00400
C 	C 	0.15312 0.49719 0.60643 -0.14800
H 	H 	0.17028 0.58173 0.46312 0.03800
H 	H 	0.07885 0.53925 0.38676 0.03500
H 	H 	0.99492 0.31528 0.46571 0.03500
H 	H 	0.08603 0.35802 0.54228 0.03600
H 	H 	0.98684 0.42067 0.33693 0.03400
H 	H 	0.87254 0.36101 0.43063 0.07800
H 	H 	0.24331 0.53652 0.54874 0.03600
H 	H 	0.09334 0.46309 0.61402 0.07300
C 	C 	0.37210 0.03385 0.58091 0.00300
C 	C 	0.35105 0.01696 0.52667 -0.03900
C 	C 	0.39533 0.06004 0.48528 -0.04200
C 	C 	0.45775 0.12395 0.49768 0.00600
C 	C 	0.47484 0.14406 0.55186 -0.04200
C 	C 	0.43222 0.09935 0.59321 -0.04000
C 	C 	0.51138 0.16457 0.45486 0.00300
C 	C 	0.48336 0.17846 0.40571 -0.15000
C 	C 	0.33415 0.98173 0.62516 0.00900
C 	C 	0.31838 0.90233 0.61962 -0.15400
H 	H 	0.30153 0.96965 0.51650 0.03800
H 	H 	0.38257 0.04219 0.44381 0.03500
H 	H 	0.52263 0.19319 0.56196 0.03800
H 	H 	0.44775 0.11410 0.63487 0.03100
H 	H 	0.57468 0.18501 0.46416 0.03300
H 	H 	0.42005 0.15994 0.39611 0.07300
H 	H 	0.32906 0.00782 0.66471 0.02900
H 	H 	0.32104 0.87564 0.58011 0.07500
C 	C 	0.58147 0.86761 0.98615 0.00400
C 	C 	0.58122 0.94945 0.98375 -0.04200
C 	C 	0.60762 0.99806 0.02795 -0.03900
C 	C 	0.63415 0.96533 0.07509 0.00400
C 	C 	0.63526 0.88392 0.07723 -0.04100
C 	C 	0.60929 0.83536 0.03294 -0.04000
C 	C 	0.65215 0.01429 0.12421 0.00800
C 	C 	0.70431 0.08360 0.12277 -0.15200
C 	C 	0.54224 0.81384 0.94328 0.00400
C 	C 	0.55533 0.83099 0.89063 -0.15200
H 	H 	0.55762 0.97485 0.94859 0.03300
H 	H 	0.60462 0.06055 0.02631 0.03800
H 	H 	0.65484 0.85799 0.11358 0.03400
H 	H 	0.60889 0.77225 0.03549 0.03700
H 	H 	0.62148 0.99393 0.16157 0.02500
H 	H 	0.73658 0.10235 0.08565 0.07800
H 	H 	0.50269 0.75914 0.95512 0.04200
H 	H 	0.59795 0.88369 0.87880 0.06800
C 	C 	0.51831 0.25957 0.01569 0.00900
C 	C 	0.55671 0.32765 0.98843 -0.04200
C 	C 	0.51556 0.36249 0.94912 -0.03900
C 	C 	0.43598 0.32823 0.93549 0.00500
C 	C 	0.39910 0.25750 0.96063 -0.04300
C 	C 	0.44038 0.22276 0.00019 -0.04000
C 	C 	0.38792 0.37165 0.90058 0.00800
C 	C 	0.42036 0.41030 0.85642 -0.15000
C 	C 	0.55814 0.23103 0.06283 0.00700
C 	C 	0.52030 0.21986 0.11055 -0.14900
H 	H 	0.61717 0.35587 0.99964 0.04100
H 	H 	0.54431 0.41796 0.93095 0.04300
H 	H 	0.33791 0.23044 0.95039 0.03500
H 	H 	0.41114 0.16851 0.01969 0.03700
H 	H 	0.32792 0.37747 0.91357 0.03700
H 	H 	0.47860 0.40117 0.84198 0.06700
H 	H 	0.62283 0.23360 0.06121 0.03300
H 	H 	0.45540 0.21450 0.11282 0.07700
C 	C 	0.46951 0.71486 0.50025 0.00800
C 	C 	0.42503 0.64520 0.47798 -0.04000
C 	C 	0.45643 0.60737 0.43536 -0.04000
C 	C 	0.53262 0.63880 0.41441 0.00700
C 	C 	0.57490 0.71164 0.43408 -0.04100
C 	C 	0.54347 0.74951 0.47693 -0.04100
C 	C 	0.56751 0.59424 0.37228 0.00400
C 	C 	0.64325 0.58145 0.37631 -0.14800
C 	C 	0.43844 0.74962 0.54866 0.00700
C 	C 	0.48497 0.76835 0.59240 -0.14900
H 	H 	0.36701 0.61910 0.49477 0.04000
H 	H 	0.42243 0.55234 0.41955 0.04000
H 	H 	0.63196 0.73866 0.41639 0.03400
H 	H 	0.57661 0.80534 0.49207 0.03600
H 	H 	0.52723 0.56117 0.34260 0.02700
H 	H 	0.68515 0.61578 0.40443 0.07600
H 	H 	0.37365 0.74472 0.55258 0.03300
H 	H 	0.55004 0.77743 0.58902 0.07700
