data_crystal

_cell_length_a 37.76643
_cell_length_b 37.64587
_cell_length_c 21.04893
_cell_angle_alpha 91.64845
_cell_angle_beta  91.03768
_cell_angle_gamma 90.06742

_symmetry_space_group_name_	'P 1'
_symmetry_space_group_name_H-M	'P 1'

loop_
_symmetry_equiv_pos_as_xyz
  x,y,z

loop_
_atom_site_label
_atom_site_type_symbol
_atom_site_fract_x
_atom_site_fract_y
_atom_site_fract_z
_atom_site_charge
Cd	Cd	0.97693 0.87356 0.25419 1.23500
Cd	Cd	0.97311 0.92355 0.40031 1.16600
O 	O 	0.00629 0.81639 0.26542 -0.32200
O 	O 	0.97868 0.82931 0.17645 -0.36100
C 	C 	0.99670 0.80604 0.20855 0.27400
O 	O 	0.94309 0.92198 0.23090 -0.40700
O 	O 	0.96817 0.95576 0.31223 -0.43700
C 	C 	0.94402 0.95157 0.26693 0.24700
C 	C 	0.92472 0.85645 0.34448 0.29900
O 	O 	0.01946 0.89923 0.34312 -0.45100
O 	O 	0.91803 0.84083 0.28944 -0.32000
O 	O 	0.95481 0.87283 0.34897 -0.55400
C 	C 	0.03679 0.91549 0.29974 0.29400
O 	O 	0.02768 0.90701 0.24111 -0.35700
Cd	Cd	0.02608 0.88637 0.98791 1.23700
Cd	Cd	0.01476 0.92309 0.83499 1.16800
O 	O 	0.06682 0.83582 0.98892 -0.32900
O 	O 	0.03940 0.85324 0.07468 -0.35400
C 	C 	0.05751 0.82818 0.04586 0.28100
O 	O 	0.99725 0.93870 0.00802 -0.38300
O 	O 	0.97468 0.94011 0.90673 -0.45300
C 	C 	0.98269 0.95656 0.96088 0.23200
C 	C 	0.07988 0.92942 0.93883 0.29700
O 	O 	0.00288 0.86732 0.87284 -0.45400
O 	O 	0.08532 0.92564 0.99985 -0.30800
O 	O 	0.05487 0.91032 0.91309 -0.55000
C 	C 	0.97384 0.85680 0.89892 0.29400
O 	O 	0.97410 0.85756 0.96079 -0.38300
C 	C 	0.02962 0.69086 0.96723 0.10200
N 	N 	0.01232 0.66146 0.98656 -0.14200
C 	C 	0.00348 0.63507 0.94367 0.12900
N 	N 	0.01177 0.63823 0.88159 -0.14300
C 	C 	0.02865 0.66766 0.86199 0.12600
N 	N 	0.03754 0.69399 0.90484 -0.14000
C 	C 	0.99595 0.67065 0.28480 0.10900
N 	N 	0.99210 0.63626 0.26488 -0.14100
C 	C 	0.99508 0.60986 0.30727 0.12400
N 	N 	0.00099 0.61799 0.36986 -0.14100
C 	C 	0.00404 0.65243 0.39012 0.12700
N 	N 	0.00192 0.67874 0.34745 -0.13700
Cd	Cd	0.83881 0.93264 0.76419 1.23700
Cd	Cd	0.88350 0.94655 0.91337 1.16600
O 	O 	0.78036 0.90530 0.77182 -0.32600
O 	O 	0.79783 0.92766 0.68287 -0.35500
C 	C 	0.77196 0.91383 0.71433 0.27500
O 	O 	0.88835 0.96410 0.74057 -0.40300
O 	O 	0.91891 0.94521 0.82841 -0.43600
C 	C 	0.91655 0.96583 0.77921 0.24600
C 	C 	0.81984 0.99170 0.84413 0.30100
O 	O 	0.86050 0.89640 0.86102 -0.45600
O 	O 	0.80633 0.99441 0.78705 -0.32100
O 	O 	0.83513 0.96170 0.85498 -0.55400
C 	C 	0.87815 0.87596 0.82217 0.29300
O 	O 	0.87152 0.88058 0.76184 -0.36200
Cd	Cd	0.79634 0.94978 0.47458 1.23800
Cd	Cd	0.83806 0.94675 0.32456 1.16600
O 	O 	0.74440 0.91099 0.48219 -0.32000
O 	O 	0.76215 0.94501 0.56239 -0.35200
C 	C 	0.73732 0.92438 0.53797 0.27200
O 	O 	0.84814 0.97969 0.49357 -0.39600
O 	O 	0.85446 0.99257 0.38901 -0.45600
C 	C 	0.86832 0.98941 0.44623 0.24300
C 	C 	0.83991 0.89137 0.44065 0.29500
O 	O 	0.78140 0.96264 0.35445 -0.45700
O 	O 	0.83412 0.89168 0.50179 -0.30400
O 	O 	0.82186 0.91385 0.40836 -0.54900
C 	C 	0.77052 0.99392 0.37335 0.30000
O 	O 	0.76941 0.99932 0.43468 -0.38200
C 	C 	0.63877 0.95698 0.78228 0.11100
N 	N 	0.63902 0.95013 0.84543 -0.14100
C 	C 	0.61373 0.96442 0.88351 0.12400
N 	N 	0.58744 0.98424 0.85789 -0.14400
C 	C 	0.58692 0.99081 0.79477 0.12900
N 	N 	0.61275 0.97737 0.75710 -0.14200
C 	C 	0.60286 0.95243 0.46301 0.11200
N 	N 	0.57023 0.96268 0.48250 -0.14200
C 	C 	0.54476 0.97091 0.43888 0.12500
N 	N 	0.55197 0.96877 0.37584 -0.14200
C 	C 	0.58481 0.95932 0.35634 0.12700
N 	N 	0.61012 0.95084 0.39997 -0.13900
Cd	Cd	0.85219 0.11753 0.22595 1.23800
Cd	Cd	0.85810 0.08377 0.38218 1.16600
O 	O 	0.82542 0.17651 0.22076 -0.32300
O 	O 	0.85294 0.15297 0.13954 -0.35100
C 	C 	0.83909 0.18148 0.16573 0.27200
O 	O 	0.88424 0.06649 0.21434 -0.40100
O 	O 	0.86067 0.04229 0.30295 -0.43500
C 	C 	0.88369 0.04112 0.25686 0.25100
C 	C 	0.90691 0.14257 0.31090 0.30200
O 	O 	0.81113 0.10317 0.31981 -0.45400
O 	O 	0.91282 0.15147 0.25271 -0.32200
O 	O 	0.87652 0.12779 0.31951 -0.55300
C 	C 	0.79248 0.08264 0.28146 0.29100
O 	O 	0.80003 0.08471 0.22129 -0.35900
Cd	Cd	0.90954 0.13214 0.95375 1.23700
Cd	Cd	0.91264 0.07614 0.81483 1.16700
O 	O 	0.86919 0.18283 0.94441 -0.32900
O 	O 	0.89984 0.17441 0.03193 -0.35600
C 	C 	0.87868 0.19516 0.00026 0.28200
O 	O 	0.93969 0.08331 0.98682 -0.39900
O 	O 	0.95651 0.06808 0.88601 -0.45500
C 	C 	0.95156 0.05934 0.94511 0.24500
C 	C 	0.85358 0.08384 0.92550 0.29500
O 	O 	0.92614 0.13560 0.83292 -0.45800
O 	O 	0.85155 0.09559 0.98443 -0.30800
O 	O 	0.87679 0.09912 0.89137 -0.55000
C 	C 	0.95653 0.14891 0.85153 0.30000
O 	O 	0.95977 0.15638 0.91219 -0.38300
C 	C 	0.88876 0.33453 0.93287 0.11600
N 	N 	0.90311 0.36560 0.95555 -0.14300
C 	C 	0.91127 0.39162 0.91476 0.12500
N 	N 	0.90587 0.38618 0.85119 -0.14400
C 	C 	0.89100 0.35535 0.82847 0.12500
N 	N 	0.88236 0.32967 0.86950 -0.14200
C 	C 	0.89495 0.30892 0.24889 0.11200
N 	N 	0.89068 0.30561 0.31251 -0.14000
C 	C 	0.90456 0.33043 0.35402 0.12700
N 	N 	0.92214 0.35880 0.33173 -0.14300
C 	C 	0.92707 0.36176 0.26838 0.12700
N 	N 	0.91335 0.33688 0.22691 -0.14100
Cd	Cd	0.08324 0.05378 0.72847 1.23800
Cd	Cd	0.04803 0.06136 0.88389 1.16500
O 	O 	0.14147 0.08101 0.71728 -0.32300
O 	O 	0.11872 0.04620 0.64217 -0.35600
C 	C 	0.14625 0.06410 0.66367 0.27700
O 	O 	0.03300 0.02012 0.72293 -0.40700
O 	O 	0.00748 0.05106 0.80555 -0.43700
C 	C 	0.00706 0.02420 0.76425 0.25200
C 	C 	0.10812 0.00752 0.82423 0.29700
O 	O 	0.06726 0.10286 0.81289 -0.45400
O 	O 	0.11800 0.99667 0.76793 -0.31800
O 	O 	0.09304 0.03834 0.82622 -0.55300
C 	C 	0.04707 0.11762 0.77060 0.28900
O 	O 	0.04975 0.10454 0.71269 -0.35500
Cd	Cd	0.04219 0.06697 0.45529 1.23800
Cd	Cd	0.99439 0.05216 0.30952 1.16600
O 	O 	0.09227 0.10795 0.44668 -0.32100
O 	O 	0.08081 0.08281 0.53621 -0.35900
C 	C 	0.10350 0.10058 0.50330 0.27200
O 	O 	0.99217 0.03795 0.48470 -0.39500
O 	O 	0.98306 0.01339 0.38521 -0.45600
C 	C 	0.97089 0.02245 0.44137 0.24200
C 	C 	0.99479 0.11920 0.41117 0.28900
O 	O 	0.05254 0.04127 0.33920 -0.45600
O 	O 	0.00325 0.12599 0.47085 -0.30200
O 	O 	0.01238 0.09409 0.38339 -0.54500
C 	C 	0.06495 0.01271 0.36490 0.29600
O 	O 	0.06936 0.01457 0.42639 -0.37700
C 	C 	0.27625 0.03891 0.75165 0.11100
N 	N 	0.26638 0.04182 0.81339 -0.13900
C 	C 	0.29134 0.04403 0.86057 0.12400
N 	N 	0.32617 0.04376 0.84589 -0.14400
C 	C 	0.33609 0.04081 0.78428 0.12600
N 	N 	0.31110 0.03822 0.73717 -0.14200
C 	C 	0.24251 0.07534 0.43196 0.11100
N 	N 	0.27163 0.05967 0.45773 -0.14100
C 	C 	0.29919 0.05024 0.42016 0.12600
N 	N 	0.29750 0.05636 0.35690 -0.14300
C 	C 	0.26833 0.07162 0.33091 0.12600
N 	N 	0.24085 0.08109 0.36850 -0.14000
C 	C 	0.28073 0.04744 0.92761 -0.04200
C 	C 	0.29107 0.02180 0.97224 0.08500
C 	C 	0.28559 0.02868 0.03726 -0.07000
C 	C 	0.26869 0.05992 0.05817 -0.01300
C 	C 	0.25633 0.08452 0.01319 0.08100
C 	C 	0.26268 0.07808 0.94826 -0.06700
N 	N 	0.30556 0.99031 0.95293 -0.19600
H 	H 	0.29437 0.00956 0.07173 0.05300
C 	C 	0.26528 0.06711 0.12749 -0.00300
N 	N 	0.23838 0.11422 0.03190 -0.19200
H 	H 	0.25424 0.09739 0.91387 0.05100
C 	C 	0.29129 0.08764 0.15972 -0.08700
C 	C 	0.29094 0.09206 0.22622 0.10100
C 	C 	0.26498 0.07423 0.26117 -0.05000
C 	C 	0.23787 0.05530 0.22869 -0.05300
C 	C 	0.23758 0.05178 0.16201 0.06800
H 	H 	0.31193 0.10014 0.13299 0.05600
N 	N 	0.31509 0.11392 0.25602 -0.19900
H 	H 	0.21753 0.04231 0.25544 0.04900
N 	N 	0.21075 0.03366 0.13159 -0.19400
H 	H 	0.33501 0.12589 0.23020 0.08500
H 	H 	0.31338 0.12051 0.30440 0.09200
H 	H 	0.19083 0.02179 0.15754 0.08300
H 	H 	0.20892 0.03185 0.08206 0.08700
H 	H 	0.22984 0.13249 0.99846 0.07500
H 	H 	0.23216 0.11920 0.07945 0.08600
H 	H 	0.30693 0.98294 0.90484 0.09100
H 	H 	0.31432 0.97211 0.98632 0.08200
C 	C 	0.18898 0.05317 0.48489 -0.03900
C 	C 	0.21101 0.08171 0.47068 -0.00300
C 	C 	0.19964 0.11658 0.48376 -0.04200
C 	C 	0.16523 0.12288 0.50517 0.00100
C 	C 	0.14168 0.09441 0.51210 -0.06700
C 	C 	0.15442 0.05946 0.50511 0.00400
H 	H 	0.19775 0.02611 0.47608 0.04600
H 	H 	0.21670 0.13885 0.47396 0.04300
H 	H 	0.15592 0.14998 0.51087 0.03500
H 	H 	0.13666 0.03715 0.51039 0.04400
C 	C 	0.22544 0.01186 0.69166 -0.04100
C 	C 	0.24929 0.04018 0.70081 -0.00200
C 	C 	0.24219 0.07251 0.67178 -0.04000
C 	C 	0.20865 0.07859 0.64508 0.00600
C 	C 	0.18220 0.05252 0.64849 -0.06900
C 	C 	0.19220 0.01782 0.66359 0.00200
H 	H 	0.23136 0.98618 0.71123 0.04600
H 	H 	0.26119 0.09408 0.67580 0.04300
H 	H 	0.20185 0.10503 0.63003 0.03600
H 	H 	0.17264 0.99673 0.66236 0.04200
C 	C 	0.90118 0.32636 0.42333 -0.05000
C 	C 	0.93125 0.32890 0.46443 0.10000
C 	C 	0.92661 0.33285 0.53028 -0.08600
C 	C 	0.89273 0.33100 0.55622 -0.00500
C 	C 	0.86286 0.32515 0.51547 0.06800
C 	C 	0.86734 0.32361 0.44923 -0.05300
N 	N 	0.96455 0.32634 0.44116 -0.19800
H 	H 	0.94952 0.33641 0.56162 0.05500
C 	C 	0.88894 0.33555 0.62615 -0.00600
N 	N 	0.82999 0.32073 0.53948 -0.19400
H 	H 	0.84436 0.32087 0.41782 0.04900
C 	C 	0.87601 0.36783 0.65131 -0.08600
C 	C 	0.87373 0.37369 0.71739 0.09900
C 	C 	0.88784 0.34810 0.75898 -0.04900
C 	C 	0.90031 0.31562 0.73374 -0.05400
C 	C 	0.90003 0.30867 0.66779 0.06900
H 	H 	0.86686 0.38810 0.61935 0.05400
N 	N 	0.85667 0.40302 0.74036 -0.19900
H 	H 	0.91043 0.29568 0.76549 0.05100
N 	N 	0.91007 0.27612 0.64488 -0.19400
H 	H 	0.84816 0.42270 0.70960 0.08300
H 	H 	0.84952 0.40541 0.78796 0.09200
H 	H 	0.91926 0.25682 0.67584 0.08200
H 	H 	0.90771 0.26920 0.59661 0.08500
H 	H 	0.80801 0.31731 0.50902 0.08200
H 	H 	0.82601 0.31963 0.58833 0.08600
H 	H 	0.96886 0.31828 0.39406 0.09000
H 	H 	0.98661 0.33024 0.47125 0.08400
C 	C 	0.01437 0.13229 0.79106 -0.06900
C 	C 	0.98738 0.14138 0.81577 -0.09700
C 	C 	0.84807 0.25321 0.99783 -0.01100
C 	C 	0.87880 0.23387 0.01218 -0.05500
C 	C 	0.91129 0.25196 0.01860 -0.00900
C 	C 	0.91389 0.28731 0.00019 -0.01400
C 	C 	0.88404 0.30462 0.97534 -0.02100
C 	C 	0.85071 0.28840 0.97885 -0.03200
H 	H 	0.82258 0.23996 0.99537 0.03800
H 	H 	0.93508 0.23775 0.03195 0.04000
H 	H 	0.93962 0.30003 0.99976 0.03300
H 	H 	0.82725 0.30201 0.96198 0.04000
C 	C 	0.96214 0.13050 0.38386 -0.10600
C 	C 	0.93589 0.13705 0.35361 -0.13100
C 	C 	0.83278 0.24658 0.16101 0.00300
C 	C 	0.85456 0.21650 0.15489 -0.06300
C 	C 	0.89138 0.22070 0.16300 0.00500
C 	C 	0.90528 0.25260 0.18828 -0.03700
C 	C 	0.88254 0.28059 0.20467 -0.00200
C 	C 	0.84663 0.27841 0.18699 -0.03800
H 	H 	0.80449 0.24416 0.15245 0.03600
H 	H 	0.90883 0.19821 0.15581 0.05200
H 	H 	0.93334 0.25457 0.19949 0.04500
H 	H 	0.82903 0.30045 0.19734 0.04400
C 	C 	0.50979 0.98352 0.45981 -0.04700
C 	C 	0.49763 0.01787 0.44488 0.09800
C 	C 	0.46173 0.02632 0.45238 -0.08400
C 	C 	0.43838 0.00193 0.47855 -0.00700
C 	C 	0.45155 0.96916 0.50032 0.06900
C 	C 	0.48699 0.95986 0.48919 -0.05500
N 	N 	0.52036 0.04297 0.42442 -0.19800
H 	H 	0.45186 0.05184 0.43732 0.05400
C 	C 	0.39976 0.00930 0.47597 -0.00800
N 	N 	0.43052 0.94685 0.53264 -0.19500
H 	H 	0.49668 0.93399 0.50270 0.04600
C 	C 	0.37829 0.98977 0.43251 -0.08100
C 	C 	0.34335 0.00040 0.41963 0.09800
C 	C 	0.33058 0.03248 0.44738 -0.04900
C 	C 	0.35085 0.05022 0.49498 -0.05300
C 	C 	0.38516 0.03842 0.51055 0.07000
H 	H 	0.38901 0.96662 0.40782 0.05500
N 	N 	0.32206 0.97956 0.38135 -0.19700
H 	H 	0.34045 0.07394 0.51836 0.04900
N 	N 	0.40391 0.05511 0.55844 -0.19400
H 	H 	0.33210 0.95673 0.35874 0.08500
H 	H 	0.29502 0.98480 0.37634 0.09300
H 	H 	0.39373 0.07770 0.58155 0.08300
H 	H 	0.42812 0.04511 0.57461 0.08600
H 	H 	0.44011 0.92225 0.54695 0.08100
H 	H 	0.40511 0.95435 0.54637 0.08700
H 	H 	0.54770 0.03891 0.42549 0.08800
H 	H 	0.51091 0.06768 0.41044 0.08300
C 	C 	0.55655 0.00957 0.76652 -0.05700
C 	C 	0.54258 0.04024 0.79716 0.10200
C 	C 	0.50697 0.04915 0.78659 -0.08800
C 	C 	0.48591 0.02876 0.74386 -0.00500
C 	C 	0.50199 0.00280 0.70403 0.06600
C 	C 	0.53725 0.99300 0.71634 -0.04900
N 	N 	0.56322 0.06107 0.83655 -0.19900
H 	H 	0.49515 0.07072 0.81408 0.05300
C 	C 	0.44699 0.03011 0.74984 -0.00600
N 	N 	0.48330 0.98625 0.65598 -0.19300
H 	H 	0.54878 0.97092 0.68980 0.05100
C 	C 	0.42836 0.05878 0.72455 -0.08800
C 	C 	0.39199 0.06298 0.73530 0.09900
C 	C 	0.37375 0.03688 0.76930 -0.04900
C 	C 	0.39214 0.00751 0.79233 -0.05500
C 	C 	0.42877 0.00432 0.78463 0.07000
H 	H 	0.44243 0.07850 0.69813 0.05000
N 	N 	0.37514 0.09258 0.71477 -0.20000
H 	H 	0.37803 0.98759 0.81826 0.04800
N 	N 	0.44635 0.97696 0.81198 -0.19300
H 	H 	0.38891 0.11163 0.68978 0.08000
H 	H 	0.34857 0.09747 0.72455 0.09100
H 	H 	0.43245 0.95763 0.83607 0.08200
H 	H 	0.47390 0.97508 0.81140 0.09000
H 	H 	0.49470 0.96562 0.62914 0.08600
H 	H 	0.45770 0.99438 0.64377 0.08900
H 	H 	0.59048 0.05681 0.84067 0.09000
H 	H 	0.55239 0.08285 0.86118 0.08300
C 	C 	0.61417 0.95784 0.95242 -0.04300
C 	C 	0.64077 0.97271 0.99360 0.08600
C 	C 	0.63788 0.96928 0.05966 -0.07200
C 	C 	0.60827 0.95283 0.08541 -0.01300
C 	C 	0.58198 0.93750 0.04426 0.08300
C 	C 	0.58553 0.93971 0.97813 -0.06800
N 	N 	0.66848 0.99118 0.97041 -0.20100
H 	H 	0.65809 0.98074 0.09129 0.05100
C 	C 	0.60372 0.95445 0.15544 -0.00300
N 	N 	0.55313 0.92102 0.06778 -0.19600
H 	H 	0.56530 0.92822 0.94657 0.04900
C 	C 	0.59118 0.98596 0.18416 -0.08500
C 	C 	0.58719 0.98888 0.25033 0.10200
C 	C 	0.59318 0.95874 0.28786 -0.04900
C 	C 	0.60624 0.92736 0.25932 -0.05300
C 	C 	0.61224 0.92511 0.19355 0.06800
H 	H 	0.58545 0.00864 0.15507 0.05400
N 	N 	0.57912 0.02097 0.27766 -0.19900
H 	H 	0.61150 0.90451 0.28824 0.04900
N 	N 	0.62591 0.89475 0.16741 -0.19400
H 	H 	0.57269 0.04252 0.24945 0.08400
H 	H 	0.58145 0.02549 0.32670 0.09000
H 	H 	0.63162 0.87307 0.19576 0.08300
H 	H 	0.63145 0.89246 0.11906 0.08800
H 	H 	0.53386 0.90986 0.03700 0.08600
H 	H 	0.54947 0.91907 0.11658 0.09000
H 	H 	0.67044 0.99620 0.92213 0.09300
H 	H 	0.68820 0.00150 0.00119 0.08800
C 	C 	0.77401 0.02350 0.33336 -0.09300
C 	C 	0.78018 0.05001 0.30539 -0.07500
C 	C 	0.90444 0.00173 0.45773 -0.12200
C 	C 	0.93507 0.01174 0.45640 -0.12000
C 	C 	0.68733 0.96594 0.55450 0.00100
C 	C 	0.69995 0.93081 0.55327 -0.06700
C 	C 	0.67557 0.90293 0.54324 0.00400
C 	C 	0.64136 0.91012 0.52030 -0.04000
C 	C 	0.63110 0.94528 0.50982 -0.00300
C 	C 	0.65303 0.97318 0.53219 -0.03800
H 	H 	0.70530 0.98781 0.56542 0.03600
H 	H 	0.68438 0.87562 0.54561 0.03600
H 	H 	0.62406 0.88831 0.50557 0.04300
H 	H 	0.64479 0.00050 0.52675 0.04200
C 	C 	0.97510 0.00276 0.75855 -0.13300
C 	C 	0.94774 0.98599 0.76285 -0.12000
C 	C 	0.82939 0.02294 0.88025 -0.13200
C 	C 	0.83914 0.05043 0.90492 -0.10900
C 	C 	0.72601 0.95962 0.70078 0.00700
C 	C 	0.73509 0.92344 0.70056 -0.06200
C 	C 	0.70855 0.89821 0.71092 0.00200
C 	C 	0.67556 0.90919 0.73333 -0.03900
C 	C 	0.66856 0.94548 0.74292 -0.00200
C 	C 	0.69285 0.97062 0.72222 -0.04100
H 	H 	0.74581 0.97940 0.69053 0.04500
H 	H 	0.71476 0.87012 0.70843 0.03500
H 	H 	0.65635 0.88952 0.74686 0.04400
H 	H 	0.68710 0.99874 0.72714 0.04400
C 	C 	0.94641 0.39253 0.24490 -0.05100
C 	C 	0.97924 0.40281 0.27305 0.10000
C 	C 	0.99027 0.43828 0.27022 -0.09000
C 	C 	0.96972 0.46290 0.23725 -0.00500
C 	C 	0.94083 0.45081 0.19876 0.07000
C 	C 	0.92898 0.41565 0.20372 -0.05300
N 	N 	0.00009 0.37876 0.30278 -0.19500
H 	H 	0.01383 0.44712 0.29635 0.05700
C 	C 	0.97470 0.50119 0.25235 -0.00900
N 	N 	0.92367 0.47311 0.15902 -0.19400
H 	H 	0.90495 0.40704 0.17880 0.05100
C 	C 	0.00316 0.51909 0.22580 -0.08300
C 	C 	0.01057 0.55463 0.24332 0.10200
C 	C 	0.98820 0.57281 0.28670 -0.05200
C 	C 	0.95932 0.55510 0.31217 -0.05300
C 	C 	0.95276 0.51923 0.29665 0.07200
H 	H 	0.02032 0.50494 0.19301 0.05100
N 	N 	0.03971 0.57068 0.21996 -0.19900
H 	H 	0.94228 0.56913 0.34536 0.04700
N 	N 	0.92588 0.50211 0.32538 -0.19400
H 	H 	0.05559 0.55723 0.18702 0.08200
H 	H 	0.04757 0.59609 0.23554 0.09400
H 	H 	0.90939 0.51594 0.35682 0.08300
H 	H 	0.92158 0.47490 0.31834 0.09100
H 	H 	0.90110 0.46456 0.13351 0.08600
H 	H 	0.93326 0.49867 0.15159 0.08800
H 	H 	0.99411 0.35166 0.30016 0.08600
H 	H 	0.02351 0.38682 0.32620 0.08400
C 	C 	0.98364 0.60363 0.96361 -0.06000
C 	C 	0.95169 0.59345 0.93192 0.10200
C 	C 	0.93927 0.55849 0.93639 -0.08500
C 	C 	0.95684 0.53436 0.97545 -0.01500
C 	C 	0.98592 0.54611 0.01399 0.07500
C 	C 	0.99950 0.58055 0.00681 -0.04700
N 	N 	0.93277 0.61720 0.89766 -0.19900
H 	H 	0.91618 0.54987 0.90867 0.05300
C 	C 	0.94723 0.49611 0.96985 -0.00200
N 	N 	0.00091 0.52453 0.05760 -0.19200
H 	H 	0.02318 0.58887 0.03314 0.05100
C 	C 	0.97015 0.47258 0.93809 -0.08800
C 	C 	0.95984 0.43736 0.92371 0.10100
C 	C 	0.92545 0.42593 0.93941 -0.05200
C 	C 	0.90326 0.44883 0.97413 -0.05100
C 	C 	0.91392 0.48381 0.98997 0.05900
H 	H 	0.99591 0.48186 0.92371 0.05300
N 	N 	0.98316 0.41461 0.89558 -0.20100
H 	H 	0.87727 0.43969 0.98757 0.04300
N 	N 	0.89209 0.50539 0.02427 -0.19000
H 	H 	0.00807 0.42359 0.88220 0.08600
H 	H 	0.97739 0.38762 0.88898 0.09100
H 	H 	0.86688 0.49666 0.03641 0.08200
H 	H 	0.90045 0.53033 0.04160 0.08800
H 	H 	0.02359 0.53262 0.08327 0.08200
H 	H 	0.98950 0.50014 0.06803 0.08700
H 	H 	0.93947 0.64414 0.89860 0.09100
H 	H 	0.91002 0.60915 0.87212 0.08300
C 	C 	0.03376 0.67262 0.79338 -0.04900
C 	C 	0.05117 0.64649 0.75569 0.10000
C 	C 	0.04787 0.64716 0.68914 -0.08500
C 	C 	0.02895 0.67438 0.65970 -0.00700
C 	C 	0.01459 0.70247 0.69726 0.07200
C 	C 	0.01689 0.70114 0.76389 -0.05400
N 	N 	0.07150 0.62112 0.78303 -0.19900
H 	H 	0.05982 0.62628 0.66019 0.05400
C 	C 	0.02182 0.67157 0.59014 -0.00200
N 	N 	0.99854 0.73063 0.66976 -0.19600
H 	H 	0.00436 0.72168 0.79280 0.05000
C 	C 	0.98958 0.65692 0.56806 -0.08900
C 	C 	0.98240 0.65235 0.50262 0.09800
C 	C 	0.00869 0.66123 0.45857 -0.04600
C 	C 	0.04057 0.67677 0.48054 -0.05300
C 	C 	0.04733 0.68231 0.54601 0.06800
H 	H 	0.96987 0.64927 0.60196 0.05500
N 	N 	0.95005 0.64017 0.48245 -0.19900
H 	H 	0.06041 0.68410 0.44668 0.04900
N 	N 	0.07817 0.69804 0.56603 -0.19400
H 	H 	0.93130 0.63246 0.51529 0.08400
H 	H 	0.94264 0.63959 0.43441 0.09100
H 	H 	0.09706 0.70538 0.53315 0.08200
H 	H 	0.08347 0.70373 0.61409 0.08600
H 	H 	0.98722 0.75081 0.69783 0.08000
H 	H 	0.99795 0.73330 0.62052 0.08400
H 	H 	0.07726 0.62198 0.83176 0.09100
H 	H 	0.08313 0.60108 0.75509 0.08400
C 	C 	0.97230 0.99356 0.96919 -0.11300
C 	C 	0.96283 0.02428 0.96442 -0.12500
C 	C 	0.91233 0.86456 0.84221 -0.07800
C 	C 	0.94095 0.85918 0.86539 -0.09000
C 	C 	0.10123 0.98228 0.87153 -0.12600
C 	C 	0.09314 0.95903 0.90618 -0.11000
C 	C 	0.01458 0.77886 0.04873 0.00800
C 	C 	0.04970 0.79072 0.05758 -0.07300
C 	C 	0.07729 0.76584 0.05286 0.00600
C 	C 	0.07037 0.73133 0.02899 -0.04400
C 	C 	0.03568 0.72121 0.01170 0.00800
C 	C 	0.00762 0.74419 0.02614 -0.03800
H 	H 	0.99287 0.79750 0.05318 0.04400
H 	H 	0.10446 0.77429 0.06103 0.03500
H 	H 	0.09222 0.71342 0.01970 0.04700
H 	H 	0.98060 0.73628 0.01474 0.04700
C 	C 	0.92216 0.98199 0.25170 -0.12000
C 	C 	0.90481 0.00913 0.24876 -0.12200
C 	C 	0.89641 0.86628 0.38518 -0.12800
C 	C 	0.87119 0.87638 0.41440 -0.10900
C 	C 	0.05054 0.94990 0.31501 -0.07400
C 	C 	0.05872 0.97897 0.33471 -0.08600
C 	C 	0.96293 0.75003 0.19986 0.00400
C 	C 	0.99516 0.76796 0.19282 -0.07300
C 	C 	0.02684 0.74855 0.19612 0.00900
C 	C 	0.02678 0.71421 0.21947 -0.03700
C 	C 	0.99500 0.69904 0.23868 -0.00400
C 	C 	0.96284 0.71578 0.22408 -0.04000
H 	H 	0.93813 0.76419 0.19466 0.03800
H 	H 	0.05190 0.76167 0.18861 0.03700
H 	H 	0.05170 0.70080 0.22811 0.04400
H 	H 	0.93798 0.70361 0.23647 0.04500
