data_crystal

_cell_length_a 36.86769
_cell_length_b 30.60166
_cell_length_c 17.20162
_cell_angle_alpha 89.27543
_cell_angle_beta  89.99972
_cell_angle_gamma 130.26757

_symmetry_space_group_name_	'P 1'
_symmetry_space_group_name_H-M	'P 1'

loop_
_symmetry_equiv_pos_as_xyz
  x,y,z

loop_
_atom_site_label
_atom_site_type_symbol
_atom_site_fract_x
_atom_site_fract_y
_atom_site_fract_z
_atom_site_charge
Zn	Zn	0.21796 0.36182 0.75064 1.22400
Zn	Zn	0.13367 0.29277 0.62137 1.19700
C 	C 	0.10133 0.33620 0.93731 0.35700
Zn	Zn	0.12176 0.33854 0.76722 1.22000
Zn	Zn	0.20009 0.37915 0.91223 1.18900
H 	H 	0.12632 0.25876 0.76258 0.17900
C 	C 	0.16118 0.41263 0.62698 0.35500
O 	O 	0.26768 0.41288 0.91726 -0.47200
O 	O 	0.28784 0.43138 0.78751 -0.40000
O 	O 	0.14311 0.29614 0.73548 -0.78800
O 	O 	0.18799 0.30091 0.57993 -0.47500
O 	O 	0.22421 0.30860 0.80015 -0.44700
O 	O 	0.24458 0.38292 0.64500 -0.44400
O 	O 	0.18084 0.29462 0.90599 -0.41700
O 	O 	0.07726 0.28444 0.59994 -0.47500
H 	H 	0.21113 0.43417 0.79041 0.17000
O 	O 	0.05121 0.27493 0.72406 -0.40800
O 	O 	0.19256 0.39306 0.80334 -0.80200
O 	O 	0.13409 0.33262 0.95578 -0.47800
O 	O 	0.13366 0.39569 0.68908 -0.44900
O 	O 	0.08957 0.33437 0.86392 -0.44600
O 	O 	0.17581 0.38493 0.60599 -0.42600
C 	C 	0.29946 0.44430 0.86109 0.32100
C 	C 	0.23286 0.34324 0.59598 0.34500
C 	C 	0.20562 0.28447 0.86818 0.32900
C 	C 	0.04235 0.26301 0.64988 0.32400
Zn	Zn	0.37373 0.17622 0.22434 1.22500
Zn	Zn	0.37441 0.24502 0.36903 1.19500
C 	C 	0.24805 0.17317 0.11512 0.36400
Zn	Zn	0.28833 0.17053 0.26247 1.22100
Zn	Zn	0.30733 0.13669 0.08905 1.18900
H 	H 	0.37014 0.26320 0.22514 0.17900
C 	C 	0.28822 0.11363 0.40066 0.36200
O 	O 	0.34717 0.11746 0.05309 -0.47200
O 	O 	0.37637 0.11632 0.17107 -0.40300
O 	O 	0.35828 0.22946 0.25808 -0.79300
O 	O 	0.43220 0.25247 0.37144 -0.47500
O 	O 	0.42340 0.23442 0.15161 -0.44800
O 	O 	0.40020 0.16680 0.31628 -0.43700
O 	O 	0.37038 0.22737 0.07313 -0.42400
O 	O 	0.32534 0.24107 0.42477 -0.47300
H 	H 	0.28886 0.08772 0.22096 0.17100
O 	O 	0.28054 0.22510 0.31957 -0.42000
O 	O 	0.30608 0.12778 0.20351 -0.80300
O 	O 	0.27162 0.16555 0.06694 -0.46500
O 	O 	0.26117 0.11677 0.35493 -0.44600
O 	O 	0.24051 0.15588 0.18853 -0.46100
O 	O 	0.33452 0.15520 0.40033 -0.43600
C 	C 	0.36642 0.10157 0.09756 0.32300
C 	C 	0.42963 0.20771 0.36549 0.34800
C 	C 	0.41396 0.24813 0.08701 0.33100
C 	C 	0.29402 0.24244 0.39118 0.33300
C 	C 	0.07463 0.33220 0.99474 -0.19900
H 	H 	0.08434 0.33276 0.05467 0.08200
C 	C 	0.99457 0.23436 0.62022 -0.15600
H 	H 	0.97332 0.18551 0.40269 0.07700
C 	C 	0.27032 0.56450 0.43772 -0.19800
C 	C 	0.22386 0.52928 0.47930 0.01400
C 	C 	0.20967 0.48269 0.52039 0.00500
C 	C 	0.17429 0.45840 0.58506 -0.18700
H 	H 	0.22795 0.46603 0.51132 0.04500
H 	H 	0.29455 0.55675 0.45175 0.09200
H 	H 	0.16045 0.47949 0.60095 0.08500
H 	H 	0.20460 0.54493 0.48457 0.03500
C 	C 	0.37374 0.56337 0.06627 -0.15600
C 	C 	0.37993 0.56235 0.98986 0.00300
C 	C 	0.36167 0.50818 0.95374 0.00800
C 	C 	0.34656 0.49817 0.88034 -0.16100
H 	H 	0.34999 0.47220 0.99133 0.03300
H 	H 	0.36814 0.53092 0.10460 0.07200
H 	H 	0.36385 0.53376 0.83896 0.07400
H 	H 	0.39021 0.59796 0.95284 0.03500
C 	C 	0.20857 0.24127 0.89767 -0.14600
C 	C 	0.21270 0.23506 0.97735 -0.00800
C 	C 	0.22655 0.20397 0.00301 0.02300
C 	C 	0.22656 0.19265 0.08732 -0.20000
H 	H 	0.23607 0.18668 0.96069 0.02800
H 	H 	0.21372 0.21929 0.85589 0.07100
H 	H 	0.20775 0.19919 0.12753 0.09100
H 	H 	0.20629 0.25562 0.01952 0.03900
C 	C 	0.26791 0.25379 0.43796 -0.16100
C 	C 	0.28876 0.29057 0.49672 0.01200
C 	C 	0.25963 0.29359 0.55042 0.01400
C 	C 	0.26958 0.34338 0.56309 -0.16700
H 	H 	0.22613 0.25373 0.57138 0.02900
H 	H 	0.23066 0.23090 0.42539 0.07900
H 	H 	0.30377 0.38368 0.54561 0.08100
H 	H 	0.32685 0.31747 0.50566 0.02500
Zn	Zn	0.21796 0.86182 0.75064 1.22300
Zn	Zn	0.13367 0.79277 0.62137 1.19600
C 	C 	0.10132 0.83620 0.93731 0.35600
Zn	Zn	0.12176 0.83854 0.76722 1.22000
Zn	Zn	0.20009 0.87915 0.91223 1.18900
H 	H 	0.12632 0.75876 0.76258 0.17900
C 	C 	0.16117 0.91263 0.62698 0.35600
O 	O 	0.26768 0.91288 0.91726 -0.47100
O 	O 	0.28784 0.93138 0.78751 -0.39900
O 	O 	0.14311 0.79614 0.73548 -0.78800
O 	O 	0.18799 0.80091 0.57993 -0.47400
O 	O 	0.22421 0.80860 0.80015 -0.44700
O 	O 	0.24458 0.88292 0.64500 -0.44400
O 	O 	0.18084 0.79462 0.90599 -0.41700
O 	O 	0.07726 0.78444 0.59994 -0.47500
H 	H 	0.21112 0.93417 0.79041 0.17000
O 	O 	0.05121 0.77493 0.72406 -0.40800
O 	O 	0.19256 0.89306 0.80334 -0.80200
O 	O 	0.13409 0.83262 0.95578 -0.47800
O 	O 	0.13366 0.89569 0.68908 -0.44900
O 	O 	0.08957 0.83437 0.86392 -0.44600
O 	O 	0.17581 0.88493 0.60599 -0.42600
C 	C 	0.29946 0.94430 0.86109 0.31800
C 	C 	0.23286 0.84324 0.59598 0.34500
C 	C 	0.20562 0.78447 0.86818 0.32900
C 	C 	0.04235 0.76301 0.64988 0.32400
Zn	Zn	0.37373 0.67622 0.22434 1.22500
Zn	Zn	0.37441 0.74502 0.36903 1.19600
C 	C 	0.24805 0.67317 0.11512 0.36400
Zn	Zn	0.28833 0.67053 0.26247 1.22100
Zn	Zn	0.30733 0.63669 0.08905 1.18900
H 	H 	0.37014 0.76320 0.22514 0.18000
C 	C 	0.28822 0.61363 0.40066 0.36300
O 	O 	0.34717 0.61746 0.05309 -0.47100
O 	O 	0.37637 0.61632 0.17107 -0.40200
O 	O 	0.35828 0.72946 0.25808 -0.79300
O 	O 	0.43220 0.75247 0.37144 -0.47500
O 	O 	0.42340 0.73442 0.15161 -0.44800
O 	O 	0.40020 0.66680 0.31628 -0.43700
O 	O 	0.37038 0.72737 0.07313 -0.42300
O 	O 	0.32534 0.74107 0.42477 -0.47300
H 	H 	0.28886 0.58772 0.22096 0.17200
O 	O 	0.28054 0.72510 0.31957 -0.42000
O 	O 	0.30608 0.62778 0.20351 -0.80300
O 	O 	0.27162 0.66555 0.06694 -0.46500
O 	O 	0.26117 0.61677 0.35493 -0.44600
O 	O 	0.24051 0.65588 0.18853 -0.46100
O 	O 	0.33452 0.65520 0.40033 -0.43600
C 	C 	0.36642 0.60157 0.09756 0.32300
C 	C 	0.42962 0.70771 0.36549 0.34800
C 	C 	0.41396 0.74813 0.08701 0.33100
C 	C 	0.29402 0.74244 0.39118 0.33300
C 	C 	0.07463 0.83220 0.99474 -0.19900
H 	H 	0.08434 0.83276 0.05467 0.08200
C 	C 	0.99457 0.73435 0.62022 -0.15500
H 	H 	0.97332 0.68551 0.40269 0.07700
C 	C 	0.27032 0.06450 0.43772 -0.19700
C 	C 	0.22387 0.02928 0.47930 0.00900
C 	C 	0.20967 0.98269 0.52039 0.00900
C 	C 	0.17429 0.95840 0.58506 -0.18800
H 	H 	0.22795 0.96603 0.51132 0.04400
H 	H 	0.29455 0.05675 0.45175 0.09100
H 	H 	0.16045 0.97949 0.60095 0.08600
H 	H 	0.20460 0.04493 0.48457 0.03500
C 	C 	0.37374 0.06337 0.06627 -0.15800
C 	C 	0.37993 0.06235 0.98986 0.00700
C 	C 	0.36167 0.00818 0.95374 -0.00300
C 	C 	0.34656 0.99818 0.88034 -0.15100
H 	H 	0.34999 0.97220 0.99133 0.03800
H 	H 	0.36814 0.03092 0.10460 0.07200
H 	H 	0.36385 0.03376 0.83896 0.07000
H 	H 	0.39021 0.09796 0.95284 0.03400
C 	C 	0.20857 0.74126 0.89767 -0.14600
C 	C 	0.21270 0.73506 0.97735 -0.00800
C 	C 	0.22655 0.70397 0.00301 0.02300
C 	C 	0.22656 0.69265 0.08732 -0.20000
H 	H 	0.23607 0.68668 0.96069 0.02900
H 	H 	0.21372 0.71929 0.85589 0.07100
H 	H 	0.20775 0.69919 0.12753 0.09100
H 	H 	0.20629 0.75562 0.01952 0.03900
C 	C 	0.26791 0.75379 0.43796 -0.16100
C 	C 	0.28876 0.79057 0.49672 0.01200
C 	C 	0.25963 0.79359 0.55042 0.01400
C 	C 	0.26958 0.84338 0.56309 -0.16700
H 	H 	0.22613 0.75373 0.57138 0.02900
H 	H 	0.23066 0.73090 0.42539 0.08000
H 	H 	0.30377 0.88368 0.54561 0.08100
H 	H 	0.32685 0.81747 0.50566 0.02500
Zn	Zn	0.71796 0.36182 0.75064 1.22300
Zn	Zn	0.63367 0.29277 0.62137 1.19600
C 	C 	0.60132 0.33620 0.93731 0.35700
Zn	Zn	0.62176 0.33854 0.76722 1.22000
Zn	Zn	0.70009 0.37915 0.91223 1.18900
H 	H 	0.62632 0.25876 0.76258 0.17900
C 	C 	0.66117 0.41263 0.62698 0.35600
O 	O 	0.76768 0.41288 0.91726 -0.47200
O 	O 	0.78784 0.43138 0.78751 -0.40000
O 	O 	0.64311 0.29614 0.73548 -0.78800
O 	O 	0.68799 0.30091 0.57993 -0.47400
O 	O 	0.72421 0.30860 0.80015 -0.44700
O 	O 	0.74458 0.38292 0.64500 -0.44400
O 	O 	0.68084 0.29462 0.90599 -0.41600
O 	O 	0.57727 0.28444 0.59994 -0.47500
H 	H 	0.71113 0.43417 0.79041 0.17000
O 	O 	0.55121 0.27493 0.72406 -0.40800
O 	O 	0.69256 0.39306 0.80334 -0.80200
O 	O 	0.63409 0.33262 0.95578 -0.47800
O 	O 	0.63366 0.39569 0.68908 -0.44900
O 	O 	0.58957 0.33437 0.86392 -0.44600
O 	O 	0.67581 0.38493 0.60599 -0.42600
C 	C 	0.79946 0.44430 0.86109 0.32200
C 	C 	0.73286 0.34324 0.59598 0.34500
C 	C 	0.70562 0.28447 0.86818 0.32900
C 	C 	0.54235 0.26301 0.64988 0.32700
Zn	Zn	0.87373 0.17622 0.22434 1.22500
Zn	Zn	0.87441 0.24502 0.36903 1.19600
C 	C 	0.74805 0.17317 0.11512 0.36400
Zn	Zn	0.78833 0.17053 0.26247 1.22100
Zn	Zn	0.80733 0.13669 0.08905 1.18900
H 	H 	0.87014 0.26320 0.22514 0.18000
C 	C 	0.78822 0.11363 0.40066 0.36200
O 	O 	0.84717 0.11746 0.05309 -0.47200
O 	O 	0.87637 0.11632 0.17107 -0.40200
O 	O 	0.85828 0.22946 0.25808 -0.79300
O 	O 	0.93220 0.25247 0.37144 -0.47400
O 	O 	0.92340 0.23442 0.15161 -0.44800
O 	O 	0.90020 0.16680 0.31628 -0.43700
O 	O 	0.87038 0.22737 0.07313 -0.42400
O 	O 	0.82534 0.24107 0.42477 -0.47300
H 	H 	0.78886 0.08772 0.22096 0.17100
O 	O 	0.78054 0.22510 0.31957 -0.42000
O 	O 	0.80608 0.12778 0.20351 -0.80300
O 	O 	0.77162 0.16555 0.06694 -0.46500
O 	O 	0.76117 0.11677 0.35493 -0.44600
O 	O 	0.74051 0.15588 0.18853 -0.46100
O 	O 	0.83452 0.15520 0.40033 -0.43600
C 	C 	0.86642 0.10157 0.09756 0.32300
C 	C 	0.92963 0.20771 0.36549 0.34900
C 	C 	0.91396 0.24813 0.08701 0.33200
C 	C 	0.79403 0.24244 0.39118 0.33300
C 	C 	0.45186 0.28419 0.02785 -0.14800
C 	C 	0.49768 0.30341 0.04099 0.00400
C 	C 	0.52988 0.32167 0.97970 0.01200
C 	C 	0.57463 0.33220 0.99474 -0.20100
H 	H 	0.52093 0.32501 0.92092 0.04000
H 	H 	0.44284 0.29084 0.97130 0.07200
H 	H 	0.58434 0.33276 0.05467 0.08300
H 	H 	0.50726 0.30012 0.09924 0.04200
C 	C 	0.49457 0.23436 0.62022 -0.15900
C 	C 	0.48097 0.20485 0.55425 0.01100
C 	C 	0.45085 0.20531 0.49865 0.01800
C 	C 	0.45372 0.19868 0.42259 -0.16100
H 	H 	0.42936 0.21589 0.51862 0.02300
H 	H 	0.47393 0.24498 0.64440 0.07800
H 	H 	0.47332 0.18551 0.40269 0.07700
H 	H 	0.49913 0.18956 0.53502 0.02000
C 	C 	0.77032 0.56450 0.43772 -0.19800
C 	C 	0.72386 0.52928 0.47930 0.01400
C 	C 	0.70967 0.48269 0.52039 0.00500
C 	C 	0.67429 0.45840 0.58506 -0.18700
H 	H 	0.72795 0.46603 0.51132 0.04500
H 	H 	0.79455 0.55675 0.45175 0.09200
H 	H 	0.66045 0.47949 0.60095 0.08500
H 	H 	0.70460 0.54493 0.48457 0.03500
C 	C 	0.87374 0.56337 0.06627 -0.15500
C 	C 	0.87993 0.56235 0.98986 0.00300
C 	C 	0.86167 0.50818 0.95374 0.00800
C 	C 	0.84656 0.49817 0.88034 -0.16100
H 	H 	0.84999 0.47220 0.99133 0.03300
H 	H 	0.86814 0.53092 0.10460 0.07300
H 	H 	0.86385 0.53376 0.83896 0.07500
H 	H 	0.89021 0.59796 0.95284 0.03600
C 	C 	0.70857 0.24127 0.89767 -0.14600
C 	C 	0.71270 0.23506 0.97735 -0.00900
C 	C 	0.72655 0.20397 0.00301 0.02400
C 	C 	0.72656 0.19265 0.08732 -0.20000
H 	H 	0.73607 0.18668 0.96069 0.02800
H 	H 	0.71372 0.21929 0.85589 0.07100
H 	H 	0.70775 0.19919 0.12753 0.09100
H 	H 	0.70629 0.25562 0.01952 0.03900
C 	C 	0.76790 0.25379 0.43796 -0.16100
C 	C 	0.78876 0.29057 0.49672 0.01200
C 	C 	0.75963 0.29359 0.55042 0.01400
C 	C 	0.76958 0.34338 0.56309 -0.16700
H 	H 	0.72613 0.25373 0.57138 0.02900
H 	H 	0.73066 0.23090 0.42539 0.07900
H 	H 	0.80377 0.38368 0.54561 0.08100
H 	H 	0.82685 0.31747 0.50566 0.02500
Zn	Zn	0.71796 0.86182 0.75064 1.22300
Zn	Zn	0.63367 0.79277 0.62137 1.19600
C 	C 	0.60132 0.83620 0.93731 0.35700
Zn	Zn	0.62176 0.83854 0.76722 1.22000
Zn	Zn	0.70009 0.87915 0.91223 1.18900
H 	H 	0.62632 0.75876 0.76258 0.17900
C 	C 	0.66117 0.91263 0.62698 0.35600
O 	O 	0.76768 0.91288 0.91726 -0.47100
O 	O 	0.78784 0.93138 0.78751 -0.39800
O 	O 	0.64311 0.79614 0.73548 -0.78800
O 	O 	0.68799 0.80091 0.57993 -0.47400
O 	O 	0.72421 0.80860 0.80015 -0.44700
O 	O 	0.74458 0.88292 0.64500 -0.44300
O 	O 	0.68084 0.79462 0.90599 -0.41600
O 	O 	0.57727 0.78444 0.59994 -0.47500
H 	H 	0.71113 0.93417 0.79041 0.17000
O 	O 	0.55121 0.77493 0.72406 -0.40800
O 	O 	0.69256 0.89306 0.80334 -0.80200
O 	O 	0.63409 0.83262 0.95578 -0.47800
O 	O 	0.63366 0.89569 0.68908 -0.44900
O 	O 	0.58957 0.83437 0.86392 -0.44600
O 	O 	0.67581 0.88493 0.60599 -0.42600
C 	C 	0.79946 0.94430 0.86109 0.31800
C 	C 	0.73286 0.84324 0.59598 0.34500
C 	C 	0.70562 0.78447 0.86818 0.32900
C 	C 	0.54235 0.76301 0.64988 0.32700
Zn	Zn	0.87373 0.67622 0.22434 1.22500
Zn	Zn	0.87441 0.74502 0.36903 1.19600
C 	C 	0.74805 0.67317 0.11512 0.36400
Zn	Zn	0.78833 0.67053 0.26247 1.22100
Zn	Zn	0.80733 0.63669 0.08905 1.18900
H 	H 	0.87014 0.76320 0.22514 0.18000
C 	C 	0.78822 0.61363 0.40066 0.36300
O 	O 	0.84717 0.61746 0.05309 -0.47100
O 	O 	0.87637 0.61632 0.17107 -0.40200
O 	O 	0.85828 0.72946 0.25808 -0.79300
O 	O 	0.93220 0.75247 0.37144 -0.47400
O 	O 	0.92340 0.73442 0.15161 -0.44800
O 	O 	0.90020 0.66680 0.31628 -0.43700
O 	O 	0.87038 0.72737 0.07313 -0.42300
O 	O 	0.82534 0.74107 0.42477 -0.47300
H 	H 	0.78886 0.58772 0.22096 0.17200
O 	O 	0.78054 0.72510 0.31957 -0.42000
O 	O 	0.80608 0.62778 0.20351 -0.80300
O 	O 	0.77162 0.66555 0.06694 -0.46500
O 	O 	0.76117 0.61677 0.35493 -0.44600
O 	O 	0.74051 0.65588 0.18853 -0.46000
O 	O 	0.83452 0.65520 0.40033 -0.43600
C 	C 	0.86642 0.60157 0.09756 0.32300
C 	C 	0.92963 0.70771 0.36549 0.34900
C 	C 	0.91396 0.74813 0.08701 0.33200
C 	C 	0.79403 0.74244 0.39118 0.33300
C 	C 	0.45186 0.78419 0.02785 -0.14800
C 	C 	0.49768 0.80341 0.04099 0.00400
C 	C 	0.52988 0.82167 0.97970 0.01200
C 	C 	0.57463 0.83220 0.99474 -0.20100
H 	H 	0.52093 0.82502 0.92092 0.04000
H 	H 	0.44283 0.79084 0.97130 0.07200
H 	H 	0.58434 0.83276 0.05467 0.08300
H 	H 	0.50726 0.80012 0.09924 0.04200
C 	C 	0.49457 0.73435 0.62022 -0.15900
C 	C 	0.48097 0.70485 0.55425 0.01100
C 	C 	0.45085 0.70531 0.49865 0.01800
C 	C 	0.45372 0.69868 0.42259 -0.16100
H 	H 	0.42936 0.71589 0.51862 0.02300
H 	H 	0.47393 0.74498 0.64440 0.07800
H 	H 	0.47332 0.68551 0.40269 0.07700
H 	H 	0.49913 0.68956 0.53502 0.02100
C 	C 	0.77032 0.06450 0.43772 -0.19700
C 	C 	0.72386 0.02928 0.47930 0.00900
C 	C 	0.70967 0.98269 0.52039 0.01000
C 	C 	0.67429 0.95840 0.58506 -0.18800
H 	H 	0.72795 0.96603 0.51132 0.04500
H 	H 	0.79455 0.05675 0.45175 0.09100
H 	H 	0.66045 0.97949 0.60095 0.08600
H 	H 	0.70460 0.04493 0.48457 0.03500
C 	C 	0.87373 0.06337 0.06627 -0.15700
C 	C 	0.87993 0.06235 0.98986 0.00700
C 	C 	0.86167 0.00818 0.95374 -0.00300
C 	C 	0.84656 0.99818 0.88034 -0.15000
H 	H 	0.84999 0.97220 0.99133 0.03800
H 	H 	0.86814 0.03092 0.10460 0.07200
H 	H 	0.86385 0.03376 0.83896 0.07000
H 	H 	0.89021 0.09796 0.95284 0.03400
C 	C 	0.70857 0.74126 0.89767 -0.14600
C 	C 	0.71270 0.73506 0.97735 -0.00800
C 	C 	0.72655 0.70397 0.00301 0.02400
C 	C 	0.72656 0.69265 0.08732 -0.20000
H 	H 	0.73607 0.68668 0.96069 0.02900
H 	H 	0.71372 0.71929 0.85589 0.07100
H 	H 	0.70775 0.69919 0.12753 0.09100
H 	H 	0.70629 0.75562 0.01952 0.03900
C 	C 	0.76791 0.75379 0.43796 -0.16100
C 	C 	0.78876 0.79057 0.49672 0.01200
C 	C 	0.75963 0.79359 0.55042 0.01400
C 	C 	0.76958 0.84338 0.56309 -0.16700
H 	H 	0.72613 0.75373 0.57138 0.02900
H 	H 	0.73066 0.73090 0.42539 0.08000
H 	H 	0.80377 0.88368 0.54561 0.08100
H 	H 	0.82685 0.81747 0.50566 0.02500
C 	C 	0.02988 0.32167 0.97970 0.00600
H 	H 	0.99913 0.18956 0.53502 0.02100
C 	C 	0.02988 0.82167 0.97970 0.00600
H 	H 	0.99913 0.68956 0.53502 0.02200
C 	C 	0.98097 0.20485 0.55425 0.01000
C 	C 	0.98097 0.70485 0.55425 0.01000
H 	H 	0.02093 0.32501 0.92092 0.04000
H 	H 	0.02093 0.82502 0.92092 0.04100
C 	C 	0.95372 0.19868 0.42259 -0.16100
C 	C 	0.95372 0.69868 0.42259 -0.16100
C 	C 	0.95186 0.28419 0.02785 -0.15100
H 	H 	0.92936 0.21589 0.51862 0.02300
C 	C 	0.95186 0.78419 0.02785 -0.15100
H 	H 	0.92936 0.71589 0.51862 0.02300
C 	C 	0.95085 0.20531 0.49865 0.01900
C 	C 	0.95085 0.70531 0.49865 0.01900
H 	H 	0.94284 0.29084 0.97130 0.07300
H 	H 	0.97393 0.24498 0.64440 0.07700
H 	H 	0.94284 0.79084 0.97130 0.07300
H 	H 	0.97393 0.74498 0.64440 0.07800
H 	H 	0.00727 0.30012 0.09924 0.03800
H 	H 	0.00727 0.80012 0.09924 0.03800
C 	C 	0.99768 0.30341 0.04099 0.01200
C 	C 	0.99768 0.80341 0.04099 0.01200
