data_crystal

_cell_length_a 30.13170
_cell_length_b 30.30779
_cell_length_c 33.27090
_cell_angle_alpha 95.52497
_cell_angle_beta  95.52514
_cell_angle_gamma 125.60110

_symmetry_space_group_name_	'P 1'
_symmetry_space_group_name_H-M	'P 1'

loop_
_symmetry_equiv_pos_as_xyz
  x,y,z

loop_
_atom_site_label
_atom_site_type_symbol
_atom_site_fract_x
_atom_site_fract_y
_atom_site_fract_z
_atom_site_charge
C 	C 	0.99441 0.03958 0.00263 0.12100
N 	N 	0.04862 0.06605 0.99924 -0.14200
C 	C 	0.06762 0.03650 0.98766 0.11800
N 	N 	0.03221 0.98042 0.97963 -0.14200
C 	C 	0.97836 0.95385 0.98362 0.12100
N 	N 	0.95948 0.98345 0.99499 -0.14200
C 	C 	0.93036 0.99598 0.45381 0.11900
N 	N 	0.90351 0.94044 0.44932 -0.14100
C 	C 	0.93316 0.91979 0.45284 0.11900
N 	N 	0.98952 0.95464 0.46091 -0.14100
C 	C 	0.01647 0.01005 0.46579 0.11800
N 	N 	0.98683 0.03063 0.46229 -0.14200
Cu	Cu	0.66968 0.26654 0.00342 0.92700
Cu	Cu	0.70976 0.26522 0.91534 0.87100
Cu	Cu	0.69956 0.35307 0.94951 0.89700
Cu	Cu	0.66895 0.36899 0.03190 0.89500
C 	C 	0.66658 0.29471 0.08649 0.25800
O 	O 	0.58771 0.22946 0.00250 -0.36700
C 	C 	0.67967 0.31298 0.85999 0.25500
O 	O 	0.71209 0.35210 0.00690 -0.63600
O 	O 	0.66118 0.27170 0.94476 -0.64200
O 	O 	0.70807 0.23058 0.00249 -0.37300
O 	O 	0.76483 0.28501 0.96093 -0.44100
O 	O 	0.67244 0.34107 0.08358 -0.36500
O 	O 	0.74064 0.43252 0.95860 -0.37900
C 	C 	0.73452 0.46130 0.98695 0.28800
C 	C 	0.56434 0.25343 0.99275 0.28600
O 	O 	0.59516 0.30466 0.98711 -0.39000
O 	O 	0.69399 0.43643 0.00809 -0.39200
O 	O 	0.68640 0.27622 0.06176 -0.35600
C 	C 	0.75367 0.25179 0.98718 0.28800
O 	O 	0.70118 0.35555 0.89032 -0.36900
O 	O 	0.67267 0.26736 0.86672 -0.40900
H 	H 	0.75189 0.37576 0.02002 0.16600
H 	H 	0.62219 0.24929 0.92989 0.17200
Cu	Cu	0.70637 0.32567 0.43454 0.92700
Cu	Cu	0.72300 0.29633 0.52469 0.87100
Cu	Cu	0.62609 0.29603 0.49462 0.89700
Cu	Cu	0.59704 0.31671 0.41275 0.89400
C 	C 	0.64969 0.29440 0.35093 0.25200
O 	O 	0.73396 0.40420 0.43129 -0.36200
C 	C 	0.67618 0.32341 0.58322 0.25500
O 	O 	0.62100 0.27855 0.43678 -0.64000
O 	O 	0.70760 0.33847 0.49425 -0.64000
O 	O 	0.74974 0.29500 0.43568 -0.37300
O 	O 	0.70339 0.23972 0.48073 -0.44100
O 	O 	0.62752 0.31969 0.36153 -0.37700
O 	O 	0.54626 0.25108 0.49058 -0.38000
C 	C 	0.51145 0.25212 0.46396 0.29000
C 	C 	0.71009 0.42516 0.44694 0.28400
O 	O 	0.66052 0.39222 0.45581 -0.39200
O 	O 	0.52927 0.28651 0.43767 -0.39600
O 	O 	0.69093 0.30151 0.37613 -0.33800
C 	C 	0.73326 0.25108 0.45185 0.28900
O 	O 	0.63088 0.30020 0.55487 -0.36600
O 	O 	0.72256 0.33444 0.57344 -0.41100
H 	H 	0.59805 0.23845 0.42543 0.16300
H 	H 	0.72921 0.37779 0.50760 0.17200
C 	C 	0.70688 0.33848 0.76235 0.11400
C 	C 	0.73292 0.36756 0.73150 -0.09000
C 	C 	0.70723 0.34049 0.69055 0.00500
C 	C 	0.65444 0.29195 0.68061 0.11400
C 	C 	0.62610 0.26556 0.71165 -0.09000
C 	C 	0.65585 0.28785 0.75225 0.00600
O 	O 	0.72174 0.36286 0.80355 -0.19500
C 	C 	0.67491 0.32093 0.81741 0.03900
C 	C 	0.63415 0.27753 0.78638 -0.05900
O 	O 	0.62829 0.28065 0.64035 -0.19400
C 	C 	0.67151 0.32675 0.62676 0.03800
C 	C 	0.71754 0.36411 0.65735 -0.05900
H 	H 	0.77047 0.40962 0.73905 0.06200
H 	H 	0.58270 0.23030 0.70459 0.06300
H 	H 	0.60010 0.23714 0.79080 0.04900
H 	H 	0.75846 0.39662 0.65242 0.04900
C 	C 	0.64478 0.23945 0.25019 0.11200
C 	C 	0.67196 0.24112 0.21773 -0.08500
C 	C 	0.64805 0.23765 0.17806 0.00600
C 	C 	0.60487 0.24203 0.17189 0.11800
C 	C 	0.58046 0.24469 0.20492 -0.09100
C 	C 	0.59839 0.23873 0.24317 0.01100
O 	O 	0.67161 0.25783 0.29113 -0.18600
C 	C 	0.63731 0.26878 0.30764 0.04400
C 	C 	0.59378 0.25761 0.27947 -0.06600
O 	O 	0.60228 0.26254 0.13684 -0.19600
C 	C 	0.64796 0.26997 0.12274 0.04500
C 	C 	0.67563 0.25554 0.14696 -0.05400
H 	H 	0.71179 0.24812 0.22358 0.06500
H 	H 	0.55110 0.25444 0.20155 0.06400
H 	H 	0.57181 0.27559 0.28338 0.05100
H 	H 	0.71855 0.27118 0.14779 0.05600
C 	C 	0.90457 0.85984 0.44801 -0.02600
C 	C 	0.92222 0.83467 0.42342 -0.01400
C 	C 	0.90144 0.77976 0.42363 -0.05900
C 	C 	0.86256 0.74929 0.44821 0.03400
C 	C 	0.84364 0.77397 0.47198 -0.05800
C 	C 	0.86421 0.82888 0.47155 -0.01500
C 	C 	0.84595 0.69349 0.45178 -0.04700
C 	C 	0.79241 0.65100 0.44948 -0.05500
C 	C 	0.77593 0.59494 0.45158 0.04700
C 	C 	0.74016 0.56460 0.47800 -0.07700
C 	C 	0.72087 0.51001 0.47795 0.01700
C 	C 	0.73646 0.48486 0.45094 -0.09300
C 	C 	0.77338 0.51572 0.42517 0.01800
C 	C 	0.79275 0.57037 0.42531 -0.07500
H 	H 	0.95310 0.85811 0.40492 0.03800
H 	H 	0.91635 0.76118 0.40525 0.04300
H 	H 	0.81449 0.75129 0.49178 0.04400
H 	H 	0.85057 0.84800 0.49086 0.03700
H 	H 	0.87754 0.68646 0.45406 0.04100
H 	H 	0.76069 0.65784 0.44727 0.04300
H 	H 	0.72692 0.58317 0.49834 0.04700
H 	H 	0.69300 0.48698 0.49838 0.03000
H 	H 	0.78556 0.49686 0.40401 0.03800
H 	H 	0.81961 0.59309 0.40424 0.04900
C 	C 	0.75026 0.21577 0.43902 -0.09700
C 	C 	0.80064 0.23838 0.42509 0.02000
C 	C 	0.81971 0.20644 0.41753 -0.07700
C 	C 	0.78887 0.15186 0.42412 0.04800
C 	C 	0.73705 0.12829 0.43583 -0.07800
C 	C 	0.71796 0.16014 0.44340 0.01900
C 	C 	0.81125 0.11972 0.41892 -0.05600
C 	C 	0.81412 0.09399 0.44876 -0.04700
C 	C 	0.84139 0.06627 0.44577 0.03300
C 	C 	0.81769 0.01555 0.45876 -0.06000
C 	C 	0.84594 0.99179 0.46037 -0.01400
C 	C 	0.89845 0.01874 0.44921 -0.02600
C 	C 	0.92165 0.06901 0.43543 -0.01400
C 	C 	0.89360 0.09293 0.43415 -0.05800
H 	H 	0.82582 0.28107 0.42128 0.03400
H 	H 	0.85921 0.22462 0.40767 0.04800
H 	H 	0.71187 0.08552 0.43948 0.04700
H 	H 	0.67836 0.14174 0.45311 0.02800
H 	H 	0.82904 0.12037 0.39188 0.04400
H 	H 	0.79577 0.09293 0.47557 0.04000
H 	H 	0.77775 0.99495 0.46824 0.04300
H 	H 	0.82763 0.95319 0.47127 0.03800
H 	H 	0.96180 0.09001 0.42627 0.03800
H 	H 	0.91315 0.13284 0.42518 0.04300
C 	C 	0.07776 0.04760 0.47390 -0.02600
C 	C 	0.10587 0.09606 0.45736 -0.01400
C 	C 	0.16382 0.12943 0.46251 -0.05900
C 	C 	0.19413 0.11441 0.48380 0.03400
C 	C 	0.16631 0.06728 0.50183 -0.05800
C 	C 	0.10840 0.03393 0.49679 -0.01500
C 	C 	0.25501 0.14820 0.48700 -0.04800
C 	C 	0.27969 0.12488 0.47573 -0.05500
C 	C 	0.33963 0.15908 0.47431 0.04800
C 	C 	0.37231 0.14320 0.48973 -0.07600
C 	C 	0.42841 0.17364 0.48658 0.02000
C 	C 	0.45230 0.22015 0.46770 -0.09000
C 	C 	0.41932 0.23572 0.45197 0.01800
C 	C 	0.36325 0.20509 0.45493 -0.07600
H 	H 	0.08281 0.10720 0.43973 0.03800
H 	H 	0.18506 0.16625 0.44907 0.04300
H 	H 	0.18951 0.05632 0.51952 0.04400
H 	H 	0.08736 0.99739 0.51054 0.03900
H 	H 	0.27922 0.19287 0.49548 0.04200
H 	H 	0.25560 0.08017 0.46775 0.04300
H 	H 	0.35421 0.10720 0.50408 0.04800
H 	H 	0.45304 0.16067 0.49840 0.03400
H 	H 	0.43703 0.27147 0.43738 0.03200
H 	H 	0.33800 0.21668 0.44165 0.04800
C 	C 	0.76639 0.52166 0.98959 -0.09000
C 	C 	0.77174 0.55490 0.02501 0.01900
C 	C 	0.80031 0.61174 0.02712 -0.07600
C 	C 	0.82364 0.63600 0.99386 0.04700
C 	C 	0.81979 0.60316 0.95889 -0.07500
C 	C 	0.79097 0.54624 0.95663 0.01900
C 	C 	0.85465 0.69634 0.99686 -0.05600
C 	C 	0.84636 0.71756 0.96586 -0.04800
C 	C 	0.87766 0.77785 0.96921 0.03400
C 	C 	0.91036 0.80407 0.94006 -0.05900
C 	C 	0.94237 0.86152 0.94424 -0.01400
C 	C 	0.94121 0.89313 0.97729 -0.02700
C 	C 	0.90664 0.86662 0.00551 -0.01300
C 	C 	0.87500 0.80921 0.00149 -0.05800
H 	H 	0.75393 0.53675 0.05096 0.02600
H 	H 	0.80406 0.63692 0.05456 0.04700
H 	H 	0.83938 0.62174 0.93360 0.04900
H 	H 	0.78750 0.52130 0.92917 0.04100
H 	H 	0.88246 0.72357 0.02554 0.04400
H 	H 	0.81838 0.69057 0.93720 0.04200
H 	H 	0.91192 0.78006 0.91468 0.04400
H 	H 	0.96834 0.88149 0.92197 0.03800
H 	H 	0.90530 0.89056 0.03108 0.03700
H 	H 	0.84887 0.78915 0.02365 0.04400
C 	C 	0.79046 0.23540 0.99710 -0.10000
C 	C 	0.84559 0.26848 0.99083 0.01800
C 	C 	0.87792 0.24924 0.99385 -0.08000
C 	C 	0.85597 0.19726 0.00390 0.04800
C 	C 	0.80189 0.16532 0.01231 -0.07800
C 	C 	0.76932 0.18437 0.00904 0.01900
C 	C 	0.88699 0.17368 0.00040 -0.05600
C 	C 	0.89750 0.15414 0.03166 -0.04800
C 	C 	0.92524 0.12710 0.02696 0.03400
C 	C 	0.90328 0.07664 0.03986 -0.05900
C 	C 	0.92695 0.04894 0.03315 -0.01300
C 	C 	0.97305 0.07157 0.01353 -0.02700
C 	C 	0.99678 0.12353 0.00252 -0.01300
C 	C 	0.97330 0.15138 0.00955 -0.05900
H 	H 	0.86292 0.30846 0.98252 0.02800
H 	H 	0.91964 0.27424 0.98744 0.04700
H 	H 	0.78435 0.12487 0.01979 0.04800
H 	H 	0.72701 0.15847 0.01417 0.03300
H 	H 	0.90225 0.17323 0.97216 0.04200
H 	H 	0.88182 0.15431 0.05974 0.04200
H 	H 	0.86708 0.05824 0.05426 0.04300
H 	H 	0.90907 0.00962 0.04282 0.03800
H 	H 	0.03264 0.14184 0.98776 0.03700
H 	H 	0.99206 0.19147 0.00104 0.04400
C 	C 	0.12681 0.06507 0.98443 -0.02500
C 	C 	0.15962 0.12059 0.97965 -0.01500
C 	C 	0.21520 0.14699 0.97592 -0.05900
C 	C 	0.23865 0.11838 0.97706 0.03300
C 	C 	0.20563 0.06263 0.98100 -0.05800
C 	C 	0.15036 0.03638 0.98523 -0.01600
C 	C 	0.29708 0.14631 0.97203 -0.04700
C 	C 	0.33157 0.14081 0.99598 -0.05600
C 	C 	0.38997 0.16877 0.99107 0.04800
C 	C 	0.41260 0.13937 0.99043 -0.07700
C 	C 	0.46905 0.16648 0.98949 0.02000
C 	C 	0.50366 0.22357 0.98971 -0.09300
C 	C 	0.48064 0.25277 0.98962 0.01800
C 	C 	0.42424 0.22560 0.99057 -0.07600
H 	H 	0.14203 0.14314 0.97837 0.03800
H 	H 	0.24005 0.18974 0.97219 0.04300
H 	H 	0.22261 0.03944 0.98041 0.04300
H 	H 	0.12584 0.99367 0.98899 0.04000
H 	H 	0.31259 0.17332 0.94964 0.04100
H 	H 	0.31622 0.11409 0.01856 0.04500
H 	H 	0.38655 0.09557 0.99104 0.04800
H 	H 	0.48592 0.14321 0.98916 0.03400
H 	H 	0.50668 0.29680 0.98997 0.02900
H 	H 	0.40755 0.24903 0.99202 0.04800
