data_crystal

_cell_length_a 49.01769
_cell_length_b 49.13387
_cell_length_c 32.33727
_cell_angle_alpha 90.00256
_cell_angle_beta  89.99936
_cell_angle_gamma 119.99977

_symmetry_space_group_name_	'P 1'
_symmetry_space_group_name_H-M	'P 1'

loop_
_symmetry_equiv_pos_as_xyz
  x,y,z

loop_
_atom_site_label
_atom_site_type_symbol
_atom_site_fract_x
_atom_site_fract_y
_atom_site_fract_z
_atom_site_charge
C 	C 	0.36547 0.49171 0.21163 0.28700
C 	C 	0.24962 0.37273 0.17837 0.30800
C 	C 	0.33629 0.41547 0.26308 0.31000
C 	C 	0.28040 0.44759 0.11964 0.28800
C 	C 	0.33345 0.36664 0.14732 0.31000
C 	C 	0.37147 0.44532 0.09100 0.28900
Ni	Ni	0.30063 0.43492 0.20514 1.11300
Ni	Ni	0.30399 0.40244 0.11959 1.12100
Ni	Ni	0.36287 0.43166 0.18027 1.12100
O 	O 	0.33512 0.48198 0.20569 -0.37500
O 	O 	0.37607 0.47146 0.21503 -0.37900
O 	O 	0.30649 0.36594 0.14279 -0.39000
O 	O 	0.26963 0.38710 0.20837 -0.38000
O 	O 	0.25838 0.38088 0.13974 -0.37800
O 	O 	0.38278 0.45617 0.12856 -0.38700
O 	O 	0.32193 0.43191 0.25969 -0.37300
O 	O 	0.34225 0.40407 0.22996 -0.38900
O 	O 	0.34433 0.41839 0.08556 -0.38200
O 	O 	0.27293 0.44024 0.15944 -0.37200
O 	O 	0.29550 0.43612 0.09793 -0.38000
O 	O 	0.35984 0.39363 0.15169 -0.38800
O 	O 	0.32503 0.43025 0.16424 -0.71900
H 	H 	0.33375 0.45062 0.14993 0.16100
C 	C 	0.50066 0.10473 0.03987 0.28900
C 	C 	0.38185 0.10279 0.00816 0.30600
C 	C 	0.42572 0.06177 0.09486 0.31000
C 	C 	0.45516 0.14308 0.94467 0.28800
C 	C 	0.37263 0.01112 0.98331 0.31000
C 	C 	0.44977 0.04767 0.92315 0.28900
Ni	Ni	0.44472 0.11419 0.03270 1.11100
Ni	Ni	0.40891 0.07482 0.95059 1.12100
Ni	Ni	0.43881 0.04691 0.01280 1.11900
O 	O 	0.49150 0.12544 0.03147 -0.37800
O 	O 	0.47993 0.07415 0.04503 -0.38000
O 	O 	0.37256 0.03749 0.97725 -0.39000
O 	O 	0.39713 0.09855 0.03825 -0.38100
O 	O 	0.38897 0.10064 0.96950 -0.37600
O 	O 	0.46152 0.04841 0.96049 -0.38400
O 	O 	0.44282 0.09227 0.08897 -0.37300
O 	O 	0.41290 0.04303 0.06325 -0.39100
O 	O 	0.42293 0.04819 0.91816 -0.38200
O 	O 	0.44943 0.14532 0.98461 -0.36900
O 	O 	0.44269 0.11546 0.92538 -0.38100
O 	O 	0.39942 0.01121 0.98743 -0.38600
O 	O 	0.43800 0.08301 0.99413 -0.71700
H 	H 	0.45799 0.09354 0.97866 0.16300
C 	C 	0.45641 0.83887 0.54015 0.28900
C 	C 	0.53138 0.88190 0.59488 0.31000
C 	C 	0.50177 0.80062 0.44465 0.28800
C 	C 	0.50710 0.89596 0.42325 0.29000
Ni	Ni	0.51238 0.82949 0.53269 1.11300
Ni	Ni	0.51818 0.89673 0.51288 1.12100
O 	O 	0.46560 0.81820 0.53157 -0.37600
O 	O 	0.47711 0.86947 0.54520 -0.37900
O 	O 	0.49539 0.89521 0.46064 -0.38600
O 	O 	0.51434 0.85139 0.58900 -0.37300
O 	O 	0.53395 0.89548 0.41819 -0.38200
O 	O 	0.50764 0.79839 0.48454 -0.37100
O 	O 	0.51428 0.82823 0.42533 -0.38100
O 	O 	0.51902 0.86066 0.49415 -0.71900
H 	H 	0.49901 0.85012 0.47873 0.16200
C 	C 	0.11154 0.58370 0.87719 0.28900
C 	C 	0.10869 0.69986 0.84580 0.30800
C 	C 	0.06496 0.61298 0.92949 0.31100
C 	C 	0.15261 0.66914 0.78574 0.28800
C 	C 	0.01868 0.61700 0.81480 0.31000
C 	C 	0.05881 0.57886 0.75689 0.28900
Ni	Ni	0.11996 0.64863 0.87138 1.11300
Ni	Ni	0.08386 0.64607 0.78633 1.12100
Ni	Ni	0.05415 0.58699 0.84637 1.12100
O 	O 	0.13225 0.61393 0.87105 -0.37500
O 	O 	0.08065 0.57325 0.88052 -0.37900
O 	O 	0.04498 0.64381 0.80996 -0.39000
O 	O 	0.10334 0.67979 0.87557 -0.38000
O 	O 	0.10821 0.69140 0.80705 -0.37800
O 	O 	0.05843 0.56732 0.79424 -0.38600
O 	O 	0.09578 0.62714 0.92592 -0.37300
O 	O 	0.04750 0.60742 0.89653 -0.39000
O 	O 	0.05916 0.60608 0.75192 -0.38200
O 	O 	0.15291 0.67639 0.82566 -0.37100
O 	O 	0.12593 0.65438 0.76416 -0.38000
O 	O 	0.01918 0.59054 0.81836 -0.38800
O 	O 	0.09065 0.62468 0.83049 -0.71900
H 	H 	0.10219 0.61594 0.81584 0.16100
C 	C 	0.05043 0.55745 0.72110 -0.08300
C 	C 	0.05730 0.53289 0.72169 0.01700
C 	C 	0.04412 0.50899 0.69202 -0.07000
C 	C 	0.02424 0.50963 0.66138 0.04500
C 	C 	0.03212 0.55902 0.68871 0.01800
H 	H 	0.07197 0.53174 0.74590 0.03600
H 	H 	0.04860 0.48954 0.69364 0.05100
H 	H 	0.02679 0.57790 0.68755 0.03800
C 	C 	0.04989 0.59686 0.96844 -0.09900
C 	C 	0.01916 0.59022 0.97776 0.02800
C 	C 	0.01564 0.55448 0.03195 0.05100
C 	C 	0.04701 0.56270 0.02464 -0.08200
C 	C 	0.06413 0.58387 0.99309 0.03000
H 	H 	0.08784 0.58880 0.98639 0.03600
C 	C 	0.42401 0.82659 0.55557 -0.08300
C 	C 	0.41843 0.84074 0.58985 0.01800
C 	C 	0.38930 0.82552 0.61001 -0.07100
C 	C 	0.36552 0.79617 0.59603 0.04500
C 	C 	0.37028 0.78298 0.56027 -0.07100
C 	C 	0.39939 0.79817 0.54001 0.01700
C 	C 	0.33745 0.77841 0.62040 -0.03000
C 	C 	0.31407 0.76379 0.64108 -0.00000
C 	C 	0.28706 0.74674 0.66597 -0.00000
C 	C 	0.26421 0.73235 0.68763 -0.02900
C 	C 	0.23704 0.71549 0.71385 0.04500
C 	C 	0.23414 0.72961 0.74994 -0.07100
C 	C 	0.20708 0.71398 0.77436 0.01800
C 	C 	0.18265 0.68404 0.76281 -0.08300
C 	C 	0.18604 0.66958 0.72722 0.01700
C 	C 	0.21313 0.68529 0.70282 -0.07000
H 	H 	0.43711 0.86271 0.60217 0.03600
H 	H 	0.38566 0.83602 0.63741 0.05000
H 	H 	0.35183 0.76047 0.54895 0.05100
H 	H 	0.40318 0.78727 0.51317 0.03400
H 	H 	0.25260 0.75291 0.75873 0.05100
H 	H 	0.20471 0.72555 0.80152 0.03700
H 	H 	0.16752 0.64639 0.71816 0.03500
H 	H 	0.21534 0.67414 0.67510 0.05100
C 	C 	0.49470 0.90563 0.38804 -0.08300
C 	C 	0.51518 0.92509 0.35689 0.01800
C 	C 	0.50471 0.93878 0.32767 -0.07100
C 	C 	0.47374 0.93310 0.32922 0.04500
C 	C 	0.45274 0.91231 0.35874 -0.07000
C 	C 	0.46312 0.89852 0.38796 0.01700
C 	C 	0.46420 0.95021 0.30235 -0.02900
C 	C 	0.45674 0.96481 0.27955 -0.00100
C 	C 	0.44878 0.98240 0.25269 -0.00000
C 	C 	0.44262 0.99769 0.22933 -0.03100
C 	C 	0.43603 0.01607 0.20060 0.04600
C 	C 	0.45953 0.04677 0.19095 -0.07400
C 	C 	0.45518 0.06288 0.15832 0.02200
C 	C 	0.42729 0.04825 0.13489 -0.09500
C 	C 	0.40293 0.01831 0.14653 0.02000
C 	C 	0.40735 0.00225 0.17920 -0.07300
H 	H 	0.52097 0.95457 0.30462 0.05000
H 	H 	0.42862 0.90748 0.35976 0.05100
H 	H 	0.44689 0.88305 0.41126 0.03600
H 	H 	0.48168 0.05771 0.20762 0.05100
H 	H 	0.47416 0.08598 0.14983 0.03700
H 	H 	0.38109 0.00697 0.12920 0.03500
H 	H 	0.38891 0.97865 0.18684 0.05100
C 	C 	0.46211 0.03799 0.88788 -0.08200
C 	C 	0.44154 0.01837 0.85690 0.01800
C 	C 	0.45198 0.00466 0.82766 -0.07100
C 	C 	0.48301 0.01047 0.82904 0.04500
C 	C 	0.50407 0.03140 0.85839 -0.07000
C 	C 	0.49372 0.04522 0.88763 0.01800
C 	C 	0.49254 0.99335 0.80217 -0.02900
C 	C 	0.50001 0.97876 0.77938 -0.00000
C 	C 	0.50801 0.96118 0.75255 0.00000
C 	C 	0.51422 0.94591 0.72921 -0.03000
C 	C 	0.52088 0.92756 0.70052 0.04600
C 	C 	0.54957 0.94143 0.67914 -0.07300
C 	C 	0.55406 0.92538 0.64652 0.02000
C 	C 	0.52976 0.89541 0.63489 -0.09500
C 	C 	0.50187 0.88073 0.65831 0.02200
C 	C 	0.49744 0.89682 0.69090 -0.07400
H 	H 	0.41715 0.01266 0.85649 0.03800
H 	H 	0.43567 0.98876 0.80474 0.05100
H 	H 	0.52823 0.03633 0.85927 0.05100
H 	H 	0.51001 0.06079 0.91081 0.03600
H 	H 	0.56796 0.96506 0.68676 0.05200
H 	H 	0.57591 0.93676 0.62919 0.03600
H 	H 	0.48294 0.85759 0.64984 0.03700
H 	H 	0.47529 0.88585 0.70756 0.05100
C 	C 	0.53313 0.11696 0.05500 -0.08400
C 	C 	0.55772 0.14533 0.03928 0.01700
H 	H 	0.52018 0.08088 0.10162 0.03600
H 	H 	0.55381 0.15625 0.01255 0.03300
C 	C 	0.34303 0.98095 0.97786 -0.09100
C 	C 	0.34387 0.95407 0.96487 0.02100
C 	C 	0.31598 0.92667 0.95451 -0.07200
C 	C 	0.28705 0.92583 0.95709 0.04700
C 	C 	0.28593 0.95207 0.97178 -0.07200
C 	C 	0.31379 0.97951 0.98228 0.02100
C 	C 	0.25886 0.89870 0.94231 -0.03000
C 	C 	0.23578 0.87559 0.92966 0.00000
C 	C 	0.20954 0.84818 0.91406 0.00000
C 	C 	0.18789 0.82437 0.90026 -0.03000
C 	C 	0.16309 0.79537 0.88343 0.04600
C 	C 	0.13925 0.77360 0.90935 -0.07200
C 	C 	0.11934 0.74285 0.89565 0.01900
C 	C 	0.12347 0.73359 0.85609 -0.09200
C 	C 	0.14555 0.75628 0.82896 0.02100
C 	C 	0.16532 0.78702 0.84268 -0.07300
H 	H 	0.36615 0.95468 0.96146 0.03800
H 	H 	0.31697 0.90635 0.94349 0.05100
H 	H 	0.26358 0.95146 0.97426 0.05200
H 	H 	0.31268 0.99982 0.99305 0.03900
H 	H 	0.13705 0.78004 0.94071 0.05200
H 	H 	0.10177 0.72586 0.91650 0.03700
H 	H 	0.14872 0.74971 0.79812 0.03800
H 	H 	0.18343 0.80388 0.82227 0.05100
C 	C 	0.02321 0.32734 0.28731 0.04600
C 	C 	0.02168 0.35487 0.28247 -0.07300
C 	C 	0.05043 0.32626 0.27282 -0.03000
C 	C 	0.07357 0.32619 0.26036 -0.00000
C 	C 	0.10099 0.32716 0.24505 -0.00000
C 	C 	0.12480 0.32908 0.23152 -0.03000
C 	C 	0.15381 0.33294 0.21503 0.04600
C 	C 	0.16256 0.34358 0.17437 -0.07300
C 	C 	0.19335 0.35409 0.16096 0.02100
C 	C 	0.21571 0.35418 0.18831 -0.09200
C 	C 	0.20600 0.34075 0.22777 0.01900
C 	C 	0.17520 0.33036 0.24116 -0.07200
H 	H 	0.04148 0.37578 0.26956 0.05100
H 	H 	0.14598 0.34522 0.15380 0.05100
H 	H 	0.20025 0.36389 0.13019 0.03800
H 	H 	0.22271 0.33977 0.24878 0.03700
H 	H 	0.16844 0.32166 0.27244 0.05100
C 	C 	0.12364 0.56337 0.89205 -0.08400
C 	C 	0.10907 0.54303 0.92566 0.01900
C 	C 	0.12409 0.52881 0.94547 -0.07200
C 	C 	0.15368 0.53471 0.93180 0.04700
C 	C 	0.16731 0.55332 0.89666 -0.07100
C 	C 	0.15232 0.56755 0.87677 0.01800
C 	C 	0.17124 0.52409 0.95597 -0.03200
C 	C 	0.18575 0.51508 0.97643 0.00700
C 	C 	0.20270 0.50487 0.00104 -0.00800
C 	C 	0.21703 0.49621 0.02246 -0.02700
C 	C 	0.23385 0.48569 0.04838 0.04300
C 	C 	0.21949 0.46809 0.08400 -0.07100
C 	C 	0.23515 0.45660 0.10820 0.01700
C 	C 	0.26537 0.46264 0.09690 -0.08300
C 	C 	0.28003 0.48101 0.06175 0.01600
C 	C 	0.26429 0.49246 0.03758 -0.07000
H 	H 	0.08692 0.53950 0.93777 0.03600
H 	H 	0.11327 0.51418 0.97239 0.05100
H 	H 	0.19001 0.55765 0.88559 0.05100
H 	H 	0.16356 0.58276 0.85046 0.03400
H 	H 	0.19599 0.46288 0.09261 0.05000
H 	H 	0.22340 0.44223 0.13499 0.03600
H 	H 	0.30343 0.48606 0.05288 0.03400
H 	H 	0.27563 0.50626 0.01022 0.05000
C 	C 	0.48690 0.77166 0.41936 -0.08300
C 	C 	0.49397 0.77296 0.37698 0.01800
C 	C 	0.48231 0.74530 0.35393 -0.07100
C 	C 	0.46348 0.71612 0.37287 0.04500
C 	C 	0.45558 0.71470 0.41477 -0.07100
C 	C 	0.46717 0.74236 0.43795 0.01700
C 	C 	0.45308 0.68761 0.34958 -0.03000
C 	C 	0.44448 0.66387 0.32985 -0.00100
C 	C 	0.43444 0.63607 0.30676 -0.00100
C 	C 	0.42565 0.61220 0.28724 -0.03000
C 	C 	0.41459 0.58341 0.26437 0.04500
C 	C 	0.41968 0.55966 0.27976 -0.07100
C 	C 	0.40540 0.53016 0.26069 0.01800
C 	C 	0.38578 0.52419 0.22615 -0.08400
C 	C 	0.38225 0.54863 0.20941 0.01800
C 	C 	0.39657 0.57811 0.22852 -0.07100
H 	H 	0.50914 0.79530 0.36212 0.03600
H 	H 	0.48836 0.74655 0.32148 0.05100
H 	H 	0.44079 0.69220 0.42953 0.05000
H 	H 	0.46109 0.74097 0.47039 0.03300
H 	H 	0.43380 0.56367 0.30729 0.05000
H 	H 	0.40832 0.51154 0.27401 0.03600
H 	H 	0.36751 0.54445 0.18247 0.03300
H 	H 	0.39282 0.59649 0.21619 0.05100
C 	C 	0.36321 0.11810 0.01747 -0.10100
C 	C 	0.36390 0.14075 0.99024 0.03600
C 	C 	0.35372 0.16126 0.00360 -0.08800
C 	C 	0.34268 0.15921 0.04408 0.05200
C 	C 	0.33909 0.13473 0.06988 -0.07700
C 	C 	0.34917 0.11412 0.05656 0.02400
C 	C 	0.33948 0.18462 0.06087 -0.03300
C 	C 	0.33693 0.20609 0.07440 0.00100
C 	C 	0.33530 0.23205 0.09001 -0.00100
C 	C 	0.33485 0.25484 0.10291 -0.03000
C 	C 	0.33522 0.28268 0.11759 0.04600
C 	C 	0.36261 0.31201 0.11354 -0.07300
C 	C 	0.36245 0.33939 0.12478 0.02100
C 	C 	0.33478 0.33764 0.14015 -0.09100
C 	C 	0.30769 0.30806 0.14565 0.02100
C 	C 	0.30791 0.28070 0.13426 -0.07200
H 	H 	0.37414 0.14379 0.95972 0.03600
H 	H 	0.35604 0.17981 0.98321 0.05800
H 	H 	0.32997 0.13262 0.10096 0.05200
H 	H 	0.34760 0.09614 0.07743 0.03500
H 	H 	0.38387 0.31367 0.10089 0.05100
H 	H 	0.38354 0.36198 0.12037 0.03700
H 	H 	0.28634 0.30628 0.15811 0.03800
H 	H 	0.28673 0.25805 0.13782 0.05100
H 	H 	0.00631 0.66475 0.82526 0.03900
C 	C 	0.39311 0.45884 0.05545 -0.08200
C 	C 	0.39153 0.43948 0.02242 0.01300
C 	C 	0.41549 0.45070 0.99278 -0.06700
C 	C 	0.44113 0.48131 0.99578 0.04900
C 	C 	0.44182 0.50133 0.02712 -0.07500
C 	C 	0.41783 0.49020 0.05677 0.01700
C 	C 	0.46783 0.49124 0.96877 -0.02900
C 	C 	0.48985 0.49895 0.94577 0.00100
C 	C 	0.51541 0.50704 0.91875 0.00000
C 	C 	0.53687 0.51316 0.89535 -0.03000
C 	C 	0.56189 0.51950 0.86673 0.04700
C 	C 	0.57521 0.54690 0.84273 -0.07300
H 	H 	0.37253 0.41533 0.02068 0.03800
H 	H 	0.41463 0.43522 0.96831 0.05100
H 	H 	0.46137 0.52519 0.02928 0.05100
H 	H 	0.41900 0.50564 0.08148 0.03500
H 	H 	0.56870 0.56470 0.84804 0.05200
C 	C 	0.51392 0.44204 0.52673 -0.07000
C 	C 	0.51448 0.46209 0.49553 0.04500
C 	C 	0.48774 0.45214 0.46860 -0.02900
C 	C 	0.46567 0.44440 0.44568 -0.00100
C 	C 	0.44005 0.43627 0.41877 -0.00000
C 	C 	0.41854 0.43013 0.39545 -0.03000
C 	C 	0.39347 0.42376 0.36692 0.04600
C 	C 	0.38457 0.44642 0.36024 -0.07400
C 	C 	0.36387 0.44261 0.32810 0.02200
C 	C 	0.35203 0.41610 0.30223 -0.09500
C 	C 	0.35937 0.39244 0.31080 0.02000
C 	C 	0.38012 0.39634 0.34295 -0.07300
H 	H 	0.53683 0.43772 0.58098 0.03500
H 	H 	0.49444 0.41813 0.52880 0.05100
H 	H 	0.39462 0.46757 0.37888 0.05100
H 	H 	0.35841 0.46104 0.32198 0.03700
H 	H 	0.34998 0.37162 0.29157 0.03600
H 	H 	0.38661 0.37854 0.34827 0.05100
C 	C 	0.46983 0.17202 0.91933 -0.08200
C 	C 	0.46263 0.17063 0.87699 0.01800
C 	C 	0.47405 0.19826 0.85391 -0.07100
C 	C 	0.49278 0.22748 0.87279 0.04500
C 	C 	0.50082 0.22899 0.91465 -0.07100
C 	C 	0.48946 0.20137 0.93785 0.01800
C 	C 	0.50294 0.25594 0.84948 -0.02900
C 	C 	0.51135 0.27964 0.82973 -0.00000
C 	C 	0.52117 0.30739 0.80660 -0.00000
C 	C 	0.52981 0.33120 0.78704 -0.02900
C 	C 	0.54069 0.35994 0.76411 0.04500
C 	C 	0.53574 0.38374 0.77965 -0.07100
C 	C 	0.54997 0.41323 0.76055 0.01800
H 	H 	0.44753 0.14825 0.86217 0.03600
H 	H 	0.46790 0.19693 0.82149 0.05100
H 	H 	0.51554 0.25153 0.92936 0.05100
H 	H 	0.49564 0.20283 0.97026 0.03300
H 	H 	0.52179 0.37978 0.80734 0.05100
H 	H 	0.54718 0.43189 0.77400 0.03600
O 	O 	0.54416 0.90064 0.56326 -0.38900
C 	C 	0.53792 0.45318 0.55635 0.01700
C 	C 	0.53885 0.10279 0.08915 0.01800
H 	H 	0.05775 0.55176 0.04229 0.05200
Ni	Ni	0.54805 0.86888 0.45053 1.12100
C 	C 	0.54004 0.49276 0.49262 -0.07100
H 	H 	0.54081 0.50828 0.46825 0.05100
H 	H 	0.53955 0.93071 0.35634 0.03700
H 	H 	0.60532 0.57161 0.79133 0.03600
O 	O 	0.55999 0.84515 0.53813 -0.38000
O 	O 	0.55751 0.93246 0.48744 -0.38800
C 	C 	0.01906 0.53515 0.65905 -0.07100
C 	C 	0.59594 0.55080 0.81056 0.02000
C 	C 	0.58696 0.16044 0.05921 -0.07100
O 	O 	0.56804 0.84309 0.46934 -0.37900
C 	C 	0.56252 0.48460 0.55515 -0.08300
H 	H 	0.58398 0.80089 0.45895 0.03900
C 	C 	0.56401 0.50400 0.52224 0.01800
C 	C 	0.57528 0.84099 0.50796 0.30800
H 	H 	0.60539 0.18291 0.04778 0.05000
C 	C 	0.56940 0.41913 0.72583 -0.08300
O 	O 	0.57928 0.47192 0.71475 -0.37900
C 	C 	0.55849 0.36517 0.72805 -0.07100
C 	C 	0.57079 0.49685 0.86003 -0.07400
O 	O 	0.57270 0.48731 0.62829 -0.38600
C 	C 	0.56811 0.11792 0.10898 -0.07200
C 	C 	0.58432 0.93259 0.48324 0.31000
O 	O 	0.58442 0.90624 0.47711 -0.39100
H 	H 	0.56077 0.47570 0.87870 0.05100
C 	C 	0.59408 0.80378 0.48954 0.02100
C 	C 	0.59190 0.14719 0.09479 0.04500
C 	C 	0.59417 0.82593 0.51716 -0.09200
C 	C 	0.58980 0.45161 0.71135 0.28800
H 	H 	0.56213 0.34675 0.71559 0.05100
H 	H 	0.60291 0.76539 0.48180 0.05200
C 	C 	0.58410 0.49812 0.59076 0.28900
C 	C 	0.60331 0.52715 0.80201 -0.09500
H 	H 	0.58292 0.52819 0.52061 0.03800
C 	C 	0.57276 0.39464 0.70891 0.01800
H 	H 	0.59068 0.98916 0.46243 0.03800
Ni	Ni	0.59264 0.51177 0.68002 1.12100
H 	H 	0.57186 0.10741 0.13627 0.05000
C 	C 	0.60473 0.78356 0.50253 -0.07200
H 	H 	0.57335 0.63028 0.59720 0.05100
H 	H 	0.57304 0.58174 0.61727 0.03700
C 	C 	0.59148 0.50066 0.82788 0.02200
O 	O 	0.59582 0.54989 0.65146 -0.38700
C 	C 	0.60799 0.82970 0.55637 0.02000
H 	H 	0.60908 0.84729 0.57756 0.03700
C 	C 	0.59418 0.63179 0.61112 -0.07300
C 	C 	0.59396 0.60428 0.62272 0.02100
C 	C 	0.61569 0.78543 0.54302 0.04600
O 	O 	0.61324 0.53929 0.72977 -0.38900
C 	C 	0.61853 0.80937 0.56932 -0.07200
C 	C 	0.61912 0.52782 0.76289 0.31000
C 	C 	0.61390 0.96280 0.47780 -0.09100
C 	C 	0.61298 0.98976 0.46540 0.02100
C 	C 	0.61948 0.76025 0.55931 -0.03000
C 	C 	0.62014 0.16488 0.11887 -0.03000
H 	H 	0.58735 0.39876 0.68183 0.03300
C 	C 	0.62138 0.73842 0.57289 -0.00000
O 	O 	0.62014 0.46125 0.70548 -0.37500
H 	H 	0.59696 0.48223 0.82178 0.03700
C 	C 	0.62234 0.71210 0.58851 0.00000
H 	H 	0.62750 0.81131 0.60046 0.05200
O 	O 	0.61127 0.52502 0.58536 -0.38200
C 	C 	0.62233 0.68908 0.60140 -0.03000
C 	C 	0.62144 0.66106 0.61643 0.04600
C 	C 	0.62112 0.60586 0.63971 -0.09100
C 	C 	0.62229 0.57680 0.64707 0.31000
H 	H 	0.62167 0.49268 0.64973 0.16100
O 	O 	0.63343 0.51133 0.75951 -0.37300
O 	O 	0.63043 0.51305 0.66405 -0.71900
C 	C 	0.00715 0.48299 0.63449 -0.02900
H 	H 	0.00807 0.60050 0.95948 0.03500
C 	C 	0.00208 0.56903 0.00935 -0.08100
H 	H 	0.00402 0.53597 0.63511 0.05100
H 	H 	0.63975 0.03762 0.44452 0.05100
C 	C 	0.64080 0.01724 0.45509 -0.07300
C 	C 	0.64317 0.96422 0.48168 0.02000
C 	C 	0.64337 0.17972 0.13975 -0.00100
H 	H 	0.64434 0.94386 0.49201 0.03800
C 	C 	0.64817 0.66285 0.63478 -0.07200
C 	C 	0.64802 0.63537 0.64650 0.02100
O 	O 	0.64919 0.57738 0.64270 -0.39000
Ni	Ni	0.65157 0.54084 0.61943 1.12100
H 	H 	0.65247 0.45724 0.55267 0.03500
Ni	Ni	0.65473 0.50827 0.70499 1.11300
O 	O 	0.65995 0.50706 0.59785 -0.38000
H 	H 	0.66895 0.63699 0.66019 0.03900
H 	H 	0.66923 0.68545 0.63935 0.05200
C 	C 	0.66975 0.01807 0.45712 0.04600
C 	C 	0.67097 0.99175 0.47122 -0.07200
C 	C 	0.67020 0.19700 0.16487 -0.00100
C 	C 	0.67516 0.49570 0.61950 0.28800
C 	C 	0.67597 0.46259 0.56149 0.01700
H 	H 	0.68075 0.43768 0.50982 0.05100
H 	H 	0.99879 0.27921 0.30856 0.05200
O 	O 	0.68244 0.50285 0.65938 -0.37200
C 	C 	0.99764 0.30049 0.30435 -0.07200
O 	O 	0.68581 0.55607 0.70821 -0.38000
C 	C 	0.69049 0.48098 0.59667 -0.08300
H 	H 	0.69333 0.99236 0.47329 0.05200
C 	C 	0.69198 0.45150 0.53720 -0.07000
C 	C 	0.69291 0.21157 0.18672 -0.03000
O 	O 	0.69717 0.56229 0.63963 -0.37800
C 	C 	0.69786 0.04531 0.44239 -0.03000
H 	H 	0.70421 0.19142 0.25837 0.05000
C 	C 	0.70591 0.57035 0.67828 0.30800
C 	C 	0.72086 0.06852 0.42978 -0.00000
C 	C 	0.72265 0.21472 0.24954 -0.07100
C 	C 	0.71988 0.22865 0.21318 0.04500
C 	C 	0.72085 0.48741 0.60789 0.01800
C 	C 	0.72257 0.45867 0.54791 0.04500
H 	H 	0.73307 0.60418 0.74802 0.03700
H 	H 	0.73249 0.50182 0.63470 0.03600
C 	C 	0.73679 0.47629 0.58358 -0.07100
C 	C 	0.73981 0.58850 0.68830 -0.09200
C 	C 	0.73965 0.44854 0.52187 -0.03000
C 	C 	0.74700 0.09605 0.41424 -0.00000
H 	H 	0.75186 0.21910 0.30153 0.03600
C 	C 	0.74957 0.23054 0.27418 0.01800
C 	C 	0.74960 0.60244 0.72749 0.01900
C 	C 	0.74374 0.25886 0.20213 -0.07100
H 	H 	0.74162 0.26988 0.17422 0.05000
H 	H 	0.75498 0.57739 0.63097 0.03800
C 	C 	0.75420 0.44020 0.50033 -0.00000
C 	C 	0.76195 0.58759 0.66153 0.02100
H 	H 	0.76039 0.48180 0.59213 0.05000
H 	H 	0.76738 0.38804 0.38457 0.05100
C 	C 	0.99425 0.35526 0.29313 0.02100
C 	C 	0.76856 0.11995 0.40049 -0.03000
C 	C 	0.77140 0.43037 0.47553 -0.00000
H 	H 	0.77288 0.14052 0.32258 0.05100
C 	C 	0.77399 0.26047 0.26258 -0.08300
C 	C 	0.77070 0.27476 0.22674 0.01700
C 	C 	0.78020 0.61229 0.74128 -0.07200
H 	H 	0.99306 0.37643 0.28803 0.03700
H 	H 	0.78699 0.62138 0.77241 0.05200
C 	C 	0.78611 0.42171 0.45488 -0.03000
C 	C 	0.79253 0.59754 0.67536 -0.07300
C 	C 	0.78996 0.39217 0.39586 -0.07100
C 	C 	0.79096 0.15741 0.34300 -0.07300
C 	C 	0.79324 0.14905 0.38372 0.04600
H 	H 	0.79360 0.36253 0.34988 0.03400
C 	C 	0.80126 0.60859 0.71587 0.04600
H 	H 	0.78920 0.29795 0.21765 0.03500
C 	C 	0.99658 0.52905 0.05974 -0.03300
H 	H 	0.97796 0.56310 0.01522 0.05200
C 	C 	0.98827 0.61594 0.80890 -0.09100
C 	C 	0.84530 0.36116 0.37705 0.28800
C 	C 	0.84750 0.24461 0.34612 0.30800
C 	C 	0.89146 0.33151 0.42968 0.31000
C 	C 	0.80396 0.27550 0.28569 0.28800
C 	C 	0.93778 0.32716 0.31504 0.31000
C 	C 	0.89799 0.36554 0.25699 0.28900
Ni	Ni	0.83651 0.29608 0.37141 1.11300
Ni	Ni	0.87266 0.29835 0.28656 1.12100
Ni	Ni	0.90256 0.35749 0.34652 1.12100
O 	O 	0.82448 0.33096 0.37090 -0.37500
O 	O 	0.87616 0.37145 0.38049 -0.37900
O 	O 	0.91138 0.30043 0.31045 -0.39000
O 	O 	0.85284 0.26470 0.37586 -0.38000
O 	O 	0.84807 0.25305 0.30735 -0.37900
O 	O 	0.89853 0.37723 0.29430 -0.38600
O 	O 	0.86066 0.31754 0.42597 -0.37300
O 	O 	0.90899 0.33702 0.39679 -0.39000
O 	O 	0.89758 0.33829 0.25215 -0.38200
O 	O 	0.80354 0.26837 0.32568 -0.37200
O 	O 	0.83070 0.29026 0.26424 -0.38000
O 	O 	0.93749 0.35372 0.31871 -0.38800
O 	O 	0.86595 0.31989 0.33059 -0.71900
H 	H 	0.85454 0.32872 0.31585 0.16100
C 	C 	0.99257 0.46099 0.61164 -0.00100
C 	C 	0.97483 0.43544 0.58482 -0.00000
C 	C 	0.95929 0.41397 0.56160 -0.03000
C 	C 	0.94042 0.38894 0.53320 0.04600
C 	C 	0.90906 0.38075 0.52586 -0.07400
C 	C 	0.89210 0.35998 0.49386 0.02200
C 	C 	0.90649 0.34737 0.46879 -0.09500
C 	C 	0.93725 0.35405 0.47801 0.02000
C 	C 	0.95417 0.37485 0.51002 -0.07300
H 	H 	0.89819 0.39137 0.54389 0.05100
H 	H 	0.86839 0.35505 0.48721 0.03700
H 	H 	0.94846 0.34408 0.45938 0.03600
H 	H 	0.97831 0.38080 0.51585 0.05100
C 	C 	0.98102 0.50770 0.08312 0.00100
C 	C 	0.96321 0.48226 0.11006 -0.00200
C 	C 	0.94852 0.46032 0.13297 -0.02900
C 	C 	0.93179 0.43404 0.16050 0.04400
C 	C 	0.93678 0.40839 0.15824 -0.07100
C 	C 	0.92402 0.38481 0.18831 0.01800
C 	C 	0.90622 0.38680 0.22106 -0.08300
C 	C 	0.89961 0.41155 0.22170 0.01700
C 	C 	0.91251 0.43516 0.19163 -0.07000
H 	H 	0.95141 0.40722 0.13397 0.05000
H 	H 	0.92917 0.36580 0.18713 0.03700
H 	H 	0.88534 0.41303 0.24621 0.03500
H 	H 	0.90821 0.45473 0.19325 0.05100
C 	C 	0.81704 0.17086 0.40966 -0.07200
C 	C 	0.83687 0.20163 0.39600 0.01900
C 	C 	0.83271 0.21088 0.35645 -0.09200
C 	C 	0.81065 0.18818 0.32931 0.02100
H 	H 	0.81927 0.16441 0.44100 0.05100
H 	H 	0.85441 0.21864 0.41685 0.03700
H 	H 	0.80744 0.19475 0.29849 0.03800
C 	C 	0.96805 0.32802 0.30871 -0.09100
C 	C 	0.97017 0.30082 0.31514 0.02100
H 	H 	0.95037 0.27981 0.32782 0.03800
C 	C 	0.80357 0.41079 0.43100 0.04500
C 	C 	0.83297 0.41636 0.44502 -0.07100
C 	C 	0.84786 0.40191 0.42546 0.01800
C 	C 	0.83333 0.38164 0.39177 -0.08300
C 	C 	0.80482 0.37771 0.37622 0.01700
H 	H 	0.84375 0.43095 0.47199 0.05000
H 	H 	0.86985 0.40521 0.43783 0.03600
C 	C 	0.82985 0.61183 0.73300 -0.03000
C 	C 	0.85390 0.61437 0.74659 -0.00000
C 	C 	0.88158 0.61595 0.76199 -0.00000
C 	C 	0.90491 0.61631 0.77454 -0.03000
C 	C 	0.93250 0.61578 0.78861 0.04600
C 	C 	0.95848 0.64322 0.80373 -0.07200
C 	C 	0.98624 0.64330 0.81401 0.02100
C 	C 	0.96170 0.58816 0.79522 0.02100
C 	C 	0.93398 0.58814 0.78511 -0.07300
H 	H 	0.80889 0.59509 0.65530 0.05100
H 	H 	0.95738 0.66461 0.80687 0.05200
H 	H 	0.96279 0.56684 0.79121 0.03800
H 	H 	0.91388 0.56679 0.77366 0.05100
