data_crystal

_cell_length_a 24.23349
_cell_length_b 24.84944
_cell_length_c 36.64488
_cell_angle_alpha 95.49018
_cell_angle_beta  95.48858
_cell_angle_gamma 125.79902

_symmetry_space_group_name_	'P 1'
_symmetry_space_group_name_H-M	'P 1'

loop_
_symmetry_equiv_pos_as_xyz
  x,y,z

loop_
_atom_site_label
_atom_site_type_symbol
_atom_site_fract_x
_atom_site_fract_y
_atom_site_fract_z
_atom_site_charge
C 	C 	0.04345 0.01978 0.97072 0.09100
N 	N 	0.02528 0.05781 0.98632 -0.11800
C 	C 	0.03132 0.99595 0.44347 0.11100
C 	C 	0.10098 0.02863 0.43492 0.08600
H 	H 	0.00750 0.15794 0.98913 0.06500
H 	H 	0.12860 0.12783 0.42839 0.06200
O 	O 	0.13535 0.99919 0.43785 -0.19000
C 	C 	0.13783 0.09020 0.42371 -0.08300
O 	O 	0.15906 0.12285 0.96518 -0.20300
C 	C 	0.11228 0.05261 0.96076 0.10300
C 	C 	0.19704 0.04950 0.42802 0.10600
C 	C 	0.14139 0.01917 0.95545 -0.09800
H 	H 	0.12029 0.96953 0.96175 0.07000
C 	C 	0.19846 0.10304 0.41908 0.02300
C 	C 	0.21909 0.12856 0.96264 0.11200
N 	N 	0.00799 0.03282 0.45205 -0.13400
C 	C 	0.20887 0.06736 0.95658 0.02600
H 	H 	0.25919 0.01988 0.45107 0.06600
C 	C 	0.25925 0.05837 0.43942 -0.08200
C 	C 	0.26105 0.16788 0.42328 -0.09300
H 	H 	0.26171 0.21171 0.42242 0.07000
H 	H 	0.29402 0.23645 0.98256 0.06700
C 	C 	0.28507 0.18800 0.97826 -0.08500
C 	C 	0.26198 0.06191 0.96849 -0.09500
C 	C 	0.32150 0.12068 0.43829 0.00500
H 	H 	0.25308 0.01348 0.96440 0.06800
C 	C 	0.32294 0.17497 0.43132 0.11900
C 	C 	0.32743 0.12117 0.98494 0.11900
C 	C 	0.33776 0.18229 0.99047 0.01000
C 	C 	0.38330 0.14591 0.45874 -0.05800
O 	O 	0.38632 0.23722 0.44511 -0.18800
O 	O 	0.38796 0.12668 0.98502 -0.19000
H 	H 	0.00090 0.14068 0.45772 0.06200
N 	N 	0.99843 0.95137 0.96511 -0.12500
H 	H 	0.94832 0.82231 0.94235 0.06500
C 	C 	0.96258 0.02745 0.99676 0.09100
N 	N 	0.91846 0.95904 0.99190 -0.10400
C 	C 	0.93609 0.92091 0.97584 0.10000
C 	C 	0.94348 0.00232 0.46004 0.09400
N 	N 	0.98990 0.92844 0.44254 -0.12000
C 	C 	0.92503 0.89741 0.44995 0.10000
N 	N 	0.90205 0.93451 0.45912 -0.10600
Cu	Cu	0.63620 0.23989 0.01020 0.92900
Cu	Cu	0.68899 0.24181 0.93086 0.87400
Cu	Cu	0.67802 0.34861 0.96295 0.89800
Cu	Cu	0.64132 0.36714 0.03693 0.89600
C 	C 	0.65880 0.29008 0.08842 0.30600
O 	O 	0.53564 0.20171 0.00953 -0.33600
C 	C 	0.65248 0.30208 0.88126 0.30700
O 	O 	0.69419 0.34517 0.01462 -0.63900
O 	O 	0.62757 0.24878 0.95727 -0.64200
O 	O 	0.67809 0.19079 0.00702 -0.35900
O 	O 	0.75458 0.26054 0.97237 -0.41400
O 	O 	0.62883 0.31871 0.07948 -0.38200
O 	O 	0.73259 0.44605 0.97196 -0.35500
C 	C 	0.73128 0.48331 0.99959 0.25300
C 	C 	0.51007 0.23213 0.99689 0.24800
O 	O 	0.55186 0.29557 0.99338 -0.38200
O 	O 	0.68364 0.45598 0.02077 -0.38100
O 	O 	0.65896 0.24862 0.06308 -0.35700
C 	C 	0.73671 0.21740 0.99497 0.25100
O 	O 	0.67695 0.35275 0.90926 -0.38100
O 	O 	0.64574 0.24697 0.88648 -0.41600
H 	H 	0.74373 0.37299 0.02654 0.16900
H 	H 	0.57954 0.22231 0.94311 0.17700
Cu	Cu	0.74757 0.34473 0.46546 0.92800
Cu	Cu	0.73439 0.28415 0.54259 0.87300
Cu	Cu	0.63037 0.30100 0.50928 0.89700
Cu	Cu	0.62317 0.34887 0.43771 0.89600
C 	C 	0.70298 0.33096 0.38719 0.30300
O 	O 	0.79244 0.44493 0.46851 -0.33400
C 	C 	0.66937 0.31708 0.59099 0.30700
O 	O 	0.63936 0.29150 0.45812 -0.63900
O 	O 	0.73299 0.34858 0.51773 -0.63900
O 	O 	0.79463 0.30018 0.46831 -0.34500
O 	O 	0.71714 0.22349 0.49986 -0.43100
O 	O 	0.67559 0.36214 0.39633 -0.37800
O 	O 	0.53055 0.25025 0.49705 -0.36600
C 	C 	0.49817 0.25813 0.46941 0.25400
C 	C 	0.76144 0.47114 0.47943 0.25100
O 	O 	0.69685 0.43080 0.48355 -0.38000
O 	O 	0.53201 0.31087 0.45296 -0.36900
O 	O 	0.74269 0.32728 0.41261 -0.35300
C 	C 	0.76516 0.24216 0.47964 0.25600
O 	O 	0.61983 0.29552 0.56199 -0.38500
O 	O 	0.72610 0.32320 0.58704 -0.41700
H 	H 	0.61010 0.24422 0.44437 0.16400
H 	H 	0.75998 0.39453 0.53306 0.17700
C 	C 	0.63229 0.32640 0.77345 -0.00300
C 	C 	0.68524 0.38525 0.76242 -0.03300
C 	C 	0.68714 0.38707 0.72450 -0.03200
C 	C 	0.63611 0.33005 0.69747 -0.00400
C 	C 	0.58021 0.27322 0.70843 -0.03300
C 	C 	0.57832 0.27139 0.74635 -0.03300
C 	C 	0.64690 0.32586 0.65964 0.04700
C 	C 	0.65610 0.32254 0.62799 -0.10600
C 	C 	0.63895 0.31861 0.81171 0.04700
C 	C 	0.64427 0.31181 0.84370 -0.10500
H 	H 	0.72678 0.42830 0.78319 0.04500
H 	H 	0.73017 0.43148 0.71625 0.04300
H 	H 	0.54014 0.22917 0.68770 0.04300
H 	H 	0.53679 0.22596 0.75464 0.04200
C 	C 	0.70838 0.29905 0.27671 -0.00000
C 	C 	0.65394 0.23869 0.25291 -0.03300
C 	C 	0.64842 0.23376 0.21418 -0.03100
C 	C 	0.69730 0.28918 0.19913 -0.00100
C 	C 	0.75419 0.34791 0.22295 -0.03200
C 	C 	0.75972 0.35283 0.26166 -0.03100
C 	C 	0.68434 0.28908 0.15993 0.04800
C 	C 	0.67355 0.28906 0.12711 -0.09700
C 	C 	0.70646 0.30909 0.31581 0.04700
C 	C 	0.70544 0.31813 0.34858 -0.09500
H 	H 	0.61432 0.19669 0.26433 0.04300
H 	H 	0.60458 0.18796 0.19595 0.04600
H 	H 	0.79249 0.39079 0.21153 0.04400
H 	H 	0.80226 0.39949 0.27988 0.04800
C 	C 	0.80839 0.72503 0.45649 0.11300
C 	C 	0.77760 0.67492 0.47847 -0.08200
C 	C 	0.77542 0.61756 0.46882 0.00700
C 	C 	0.81169 0.61473 0.44313 0.11900
C 	C 	0.84808 0.66763 0.42362 -0.09200
C 	C 	0.84030 0.71948 0.42859 0.02500
O 	O 	0.83000 0.79053 0.46852 -0.19600
C 	C 	0.87827 0.82340 0.44541 0.10500
C 	C 	0.88503 0.78170 0.42179 -0.08700
O 	O 	0.82478 0.56777 0.44631 -0.18500
C 	C 	0.79099 0.54123 0.47600 0.04100
C 	C 	0.76485 0.57357 0.49085 -0.05900
H 	H 	0.75926 0.68193 0.50301 0.07000
H 	H 	0.88289 0.66958 0.40637 0.07200
H 	H 	0.92995 0.79809 0.40926 0.07000
H 	H 	0.72718 0.55444 0.50906 0.05600
C 	C 	0.87248 0.19068 0.48598 0.11600
C 	C 	0.92780 0.18886 0.48021 -0.09200
C 	C 	0.92294 0.13141 0.48649 0.02100
C 	C 	0.86165 0.07385 0.49161 0.11200
C 	C 	0.80391 0.07359 0.49351 -0.08400
C 	C 	0.81310 0.13489 0.49364 0.00300
O 	O 	0.86440 0.23750 0.47392 -0.18800
C 	C 	0.79416 0.20431 0.47542 0.03500
C 	C 	0.76270 0.14162 0.48541 -0.05800
O 	O 	0.85583 0.01490 0.48217 -0.19900
C 	C 	0.91920 0.04285 0.47051 0.10100
C 	C 	0.95932 0.11201 0.47288 -0.08500
H 	H 	0.97156 0.22932 0.47006 0.07000
H 	H 	0.75341 0.02708 0.49317 0.06600
H 	H 	0.71268 0.11218 0.49373 0.04900
C 	C 	0.42232 0.21501 0.46159 0.04500
H 	H 	0.40323 0.11753 0.46395 0.05000
C 	C 	0.84211 0.65216 0.98718 0.11700
C 	C 	0.87088 0.69670 0.96221 -0.09100
C 	C 	0.85783 0.74466 0.96136 0.02300
C 	C 	0.82135 0.75116 0.98586 0.11300
C 	C 	0.79234 0.70638 0.01074 -0.08200
C 	C 	0.80582 0.65873 0.01175 0.01200
O 	O 	0.82662 0.58833 0.98048 -0.18800
C 	C 	0.77657 0.55700 0.00279 0.04700
C 	C 	0.76387 0.59847 0.02157 -0.06000
O 	O 	0.83750 0.81528 0.99286 -0.19600
C 	C 	0.88851 0.84694 0.97110 0.10100
C 	C 	0.90065 0.80519 0.95207 -0.08700
H 	H 	0.90038 0.69262 0.94320 0.07000
H 	H 	0.76287 0.71047 0.02977 0.07000
H 	H 	0.71617 0.58096 0.03136 0.05800
C 	C 	0.85579 0.17984 0.99868 0.11200
C 	C 	0.92067 0.19263 0.00185 -0.08600
C 	C 	0.92894 0.14765 0.01736 0.02000
C 	C 	0.87415 0.09067 0.02775 0.11500
C 	C 	0.80978 0.07924 0.02545 -0.08400
C 	C 	0.80171 0.12372 0.00940 0.01000
O 	O 	0.84638 0.22924 0.99526 -0.19400
C 	C 	0.78121 0.19716 0.00539 0.04200
C 	C 	0.75547 0.13524 0.01518 -0.05800
O 	O 	0.87995 0.03816 0.02641 -0.19900
C 	C 	0.94228 0.06827 0.01334 0.10400
C 	C 	0.97202 0.13356 0.00810 -0.08200
H 	H 	0.96324 0.23614 0.99278 0.06600
H 	H 	0.76665 0.03523 0.03388 0.06900
H 	H 	0.70235 0.09726 0.01767 0.05800
C 	C 	0.43496 0.19697 0.98975 0.04200
C 	C 	0.40567 0.23047 0.99327 -0.06100
H 	H 	0.42928 0.28186 0.98938 0.05300
