data_crystal

_cell_length_a 30.15204
_cell_length_b 30.71405
_cell_length_c 39.52690
_cell_angle_alpha 60.99231
_cell_angle_beta  118.71229
_cell_angle_gamma 133.32453

_symmetry_space_group_name_	'P 1'
_symmetry_space_group_name_H-M	'P 1'

loop_
_symmetry_equiv_pos_as_xyz
  x,y,z

loop_
_atom_site_label
_atom_site_type_symbol
_atom_site_fract_x
_atom_site_fract_y
_atom_site_fract_z
_atom_site_charge
C 	C 	0.70720 0.29072 0.04444 0.13500
N 	N 	0.64563 0.25285 0.04526 -0.13600
C 	C 	0.62257 0.27267 0.05209 0.13900
N 	N 	0.66077 0.32956 0.05836 -0.13800
C 	C 	0.72197 0.36714 0.05797 0.13800
N 	N 	0.74552 0.34798 0.05094 -0.13700
C 	C 	0.71117 0.28468 0.54636 0.13400
N 	N 	0.65052 0.24495 0.54952 -0.13800
C 	C 	0.62607 0.26477 0.55489 0.13700
N 	N 	0.66202 0.32356 0.55728 -0.13800
C 	C 	0.72241 0.36291 0.55473 0.13700
N 	N 	0.74731 0.34366 0.54928 -0.13800
C 	C 	0.29220 0.66934 0.21422 0.13600
N 	N 	0.25257 0.61073 0.20930 -0.13300
C 	C 	0.27480 0.58888 0.20356 0.13900
N 	N 	0.33558 0.62523 0.20263 -0.13800
C 	C 	0.37473 0.68339 0.20693 0.14000
N 	N 	0.35328 0.70575 0.21276 -0.13400
C 	C 	0.29433 0.65584 0.72273 0.13600
N 	N 	0.25757 0.59622 0.72043 -0.13400
C 	C 	0.28207 0.57604 0.71536 0.13900
N 	N 	0.34219 0.61505 0.71241 -0.13800
C 	C 	0.37842 0.67422 0.71400 0.14100
N 	N 	0.35476 0.69493 0.71924 -0.13400
Co	Co	0.04401 0.01103 0.08388 1.17700
Co	Co	0.95729 0.94822 0.17804 1.19100
Co	Co	0.99781 0.05990 0.11055 1.17600
Co	Co	0.99639 0.89644 0.14769 1.17900
C 	C 	0.16560 0.03309 0.09460 0.28100
Co	Co	0.05042 0.90698 0.08806 1.18000
Co	Co	0.93263 0.04378 0.16540 1.17400
C 	C 	0.92271 0.80070 0.09944 0.31400
O 	O 	0.86758 0.02841 0.11234 -0.39500
O 	O 	0.96299 0.01385 0.14964 -0.77100
C 	C 	0.88560 0.06626 0.07893 0.31200
O 	O 	0.04421 0.08277 0.07388 -0.44700
O 	O 	0.96605 0.88111 0.19134 -0.45400
C 	C 	0.83673 0.90763 0.18147 0.32500
O 	O 	0.98326 0.97129 0.12353 -0.57600
C 	C 	0.04993 0.16127 0.14157 0.34300
C 	C 	0.01483 0.97896 0.01064 0.35800
C 	C 	0.08045 0.86091 0.17493 0.32000
O 	O 	0.92973 0.07602 0.06994 -0.37600
O 	O 	0.05602 0.96708 0.03204 -0.38700
O 	O 	0.00022 0.99660 0.02599 -0.34600
O 	O 	0.87275 0.95544 0.19609 -0.36900
O 	O 	0.86122 0.89421 0.17138 -0.37600
O 	O 	0.99080 0.13487 0.13661 -0.41500
O 	O 	0.06621 0.13434 0.13691 -0.38600
O 	O 	0.04892 0.84371 0.14170 -0.39700
O 	O 	0.07287 0.89250 0.18272 -0.37100
O 	O 	0.02519 0.93943 0.10628 -0.73700
C 	C 	0.00099 0.00870 0.24316 0.31300
O 	O 	0.00411 0.05677 0.21580 -0.36000
O 	O 	0.99866 0.96982 0.23444 -0.35200
O 	O 	0.14274 0.97421 0.10788 -0.36200
O 	O 	0.14031 0.05372 0.09701 -0.38200
O 	O 	0.95505 0.84429 0.07201 -0.37800
O 	O 	0.92623 0.81353 0.12893 -0.37300
Co	Co	0.05565 0.00622 0.59311 1.18100
Co	Co	0.95701 0.93382 0.68266 1.19000
Co	Co	0.01064 0.05319 0.62258 1.19200
Co	Co	0.99466 0.88478 0.64911 1.17900
C 	C 	0.17456 0.02130 0.60790 0.28400
Co	Co	0.05656 0.90133 0.59191 1.17900
Co	Co	0.94201 0.03265 0.67761 1.16100
C 	C 	0.92413 0.79909 0.59398 0.31500
O 	O 	0.88315 0.02865 0.62192 -0.40100
O 	O 	0.96973 0.00312 0.65874 -0.77700
C 	C 	0.90569 0.06995 0.59034 0.31300
O 	O 	0.06070 0.07911 0.58723 -0.44800
O 	O 	0.95852 0.86383 0.69146 -0.45600
C 	C 	0.83748 0.89958 0.68404 0.33200
O 	O 	0.98742 0.96294 0.62840 -0.57500
C 	C 	0.06657 0.14710 0.66231 0.32400
C 	C 	0.03580 0.98670 0.51712 0.36300
C 	C 	0.07311 0.84252 0.67762 0.32100
O 	O 	0.95058 0.07976 0.58225 -0.37900
O 	O 	0.07235 0.96908 0.53911 -0.38500
O 	O 	0.02077 0.00330 0.53300 -0.38100
O 	O 	0.87439 0.94397 0.70207 -0.38500
O 	O 	0.86103 0.88514 0.67387 -0.37300
O 	O 	0.00813 0.12474 0.65534 -0.39400
O 	O 	0.08020 0.11991 0.65530 -0.38300
O 	O 	0.04557 0.83092 0.64267 -0.39800
O 	O 	0.06619 0.87388 0.68619 -0.37300
O 	O 	0.03023 0.93226 0.61071 -0.73600
C 	C 	0.99961 0.98079 0.75397 0.28500
O 	O 	0.00499 0.03220 0.73150 -0.36900
O 	O 	0.00206 0.95022 0.74045 -0.32400
O 	O 	0.14811 0.96178 0.61797 -0.36200
O 	O 	0.15079 0.04241 0.61148 -0.38000
O 	O 	0.96161 0.84491 0.56956 -0.37900
O 	O 	0.92417 0.80795 0.62401 -0.37100
C 	C 	0.98977 0.97783 0.96793 -0.12500
C 	C 	0.01922 0.03272 0.93891 0.12400
C 	C 	0.01683 0.02991 0.90320 0.05800
C 	C 	0.99250 0.97319 0.89905 0.03200
C 	C 	0.96241 0.91877 0.92804 0.06100
C 	C 	0.95346 0.92116 0.95870 0.12100
C 	C 	0.99576 0.97020 0.86348 -0.01900
C 	C 	0.94022 0.93673 0.83635 0.08500
C 	C 	0.94304 0.92589 0.80695 0.08200
C 	C 	0.00023 0.96274 0.79653 -0.05600
C 	C 	0.05631 0.99677 0.82321 0.12100
C 	C 	0.05391 0.99681 0.85818 0.11600
Br	Br	0.93900 0.84241 0.92827 -0.17000
Br	Br	0.06432 0.11122 0.94857 -0.18700
Br	Br	0.87243 0.85353 0.78714 -0.18900
Br	Br	0.12912 0.03019 0.89923 -0.19000
Br	Br	0.88598 0.84893 0.98407 -0.18700
Br	Br	0.04421 0.10246 0.85989 -0.16800
Br	Br	0.86126 0.90995 0.83720 -0.16600
Br	Br	0.13580 0.04338 0.81175 -0.20000
C 	C 	0.02140 0.99830 0.47332 -0.07000
C 	C 	0.96692 0.95013 0.45476 0.09900
C 	C 	0.96511 0.94696 0.41957 0.05200
C 	C 	0.01552 0.99523 0.40061 0.05300
C 	C 	0.06726 0.04682 0.41695 0.04700
C 	C 	0.07012 0.04829 0.45320 0.10100
C 	C 	0.01004 0.99577 0.36063 0.06200
C 	C 	0.03795 0.97603 0.35701 0.06000
C 	C 	0.03565 0.98024 0.31888 0.14500
C 	C 	0.99999 0.99856 0.28428 -0.10800
C 	C 	0.96907 0.01496 0.28870 0.11400
C 	C 	0.97708 0.01655 0.32635 0.02200
Br	Br	0.13413 0.11535 0.38973 -0.17000
Br	Br	0.89476 0.88873 0.47754 -0.18200
Br	Br	0.08622 0.96675 0.31445 -0.16200
Br	Br	0.94356 0.04861 0.33092 -0.17600
Br	Br	0.14184 0.11774 0.47622 -0.19400
Br	Br	0.89424 0.87606 0.39775 -0.16600
Br	Br	0.07956 0.94355 0.40423 -0.14900
Br	Br	0.91475 0.03476 0.24370 -0.26400
C 	C 	0.17365 0.31241 0.68666 -0.00100
C 	C 	0.17684 0.36180 0.65461 -0.02400
C 	C 	0.18934 0.41084 0.66084 -0.03800
C 	C 	0.19905 0.41112 0.69920 0.02100
C 	C 	0.19742 0.36254 0.73143 -0.03600
C 	C 	0.18458 0.31328 0.72517 -0.02300
C 	C 	0.14512 0.25554 0.67885 0.05900
C 	C 	0.11423 0.20643 0.67157 -0.09200
C 	C 	0.22082 0.46588 0.70614 0.01300
C 	C 	0.24446 0.51454 0.71098 -0.02900
H 	H 	0.16758 0.36127 0.62467 0.04900
H 	H 	0.19200 0.44886 0.63585 0.05200
H 	H 	0.20638 0.36300 0.76134 0.05800
H 	H 	0.18130 0.27497 0.75009 0.05800
C 	C 	0.65827 0.80345 0.68818 0.00000
C 	C 	0.64507 0.77167 0.72596 -0.02100
C 	C 	0.59220 0.75428 0.73196 -0.03500
C 	C 	0.55196 0.76836 0.70021 0.02200
C 	C 	0.56474 0.79961 0.66231 -0.03700
C 	C 	0.61787 0.81730 0.65634 -0.02400
C 	C 	0.71879 0.83195 0.68408 0.06400
C 	C 	0.77185 0.85988 0.68268 -0.08700
C 	C 	0.49265 0.74174 0.70514 0.01400
C 	C 	0.44138 0.71445 0.70937 -0.03000
H 	H 	0.67659 0.76172 0.75091 0.06200
H 	H 	0.58206 0.72910 0.76119 0.05700
H 	H 	0.53324 0.80963 0.63740 0.05300
H 	H 	0.62823 0.84280 0.62717 0.05000
C 	C 	0.17789 0.77779 0.73476 -0.00000
C 	C 	0.23797 0.81573 0.72809 -0.02400
C 	C 	0.26269 0.78965 0.72885 -0.03800
C 	C 	0.22763 0.72539 0.73641 0.02200
C 	C 	0.16941 0.68728 0.74568 -0.03800
C 	C 	0.14474 0.71336 0.74500 -0.02400
C 	C 	0.14444 0.80384 0.72102 0.05600
C 	C 	0.11356 0.82361 0.70469 -0.09100
C 	C 	0.24976 0.69892 0.73219 0.01100
C 	C 	0.26914 0.67820 0.72807 -0.02600
H 	H 	0.26405 0.86547 0.72005 0.05200
H 	H 	0.30809 0.81955 0.72216 0.05400
H 	H 	0.14224 0.63757 0.75207 0.05400
H 	H 	0.09827 0.68347 0.75013 0.05100
C 	C 	0.18337 0.42462 0.18218 0.02200
C 	C 	0.18528 0.37695 0.21352 -0.03600
C 	C 	0.17024 0.32784 0.20550 -0.02100
C 	C 	0.15349 0.32616 0.16609 -0.00300
C 	C 	0.15228 0.37422 0.13480 -0.02300
C 	C 	0.16716 0.42321 0.14281 -0.03800
C 	C 	0.20824 0.47976 0.19049 0.01300
C 	C 	0.23440 0.52823 0.19688 -0.02800
C 	C 	0.12537 0.26988 0.15761 0.06300
C 	C 	0.09557 0.22104 0.15027 -0.09900
H 	H 	0.19902 0.37819 0.24408 0.05800
H 	H 	0.17027 0.29048 0.22990 0.05700
H 	H 	0.13836 0.37293 0.10423 0.04900
H 	H 	0.16681 0.46041 0.11839 0.05300
C 	C 	0.54922 0.77261 0.19678 0.02200
C 	C 	0.56385 0.80569 0.15939 -0.03700
C 	C 	0.61757 0.82367 0.15406 -0.02300
C 	C 	0.65688 0.80848 0.18605 -0.00100
C 	C 	0.64170 0.77462 0.22328 -0.02100
C 	C 	0.58808 0.75675 0.22862 -0.03600
C 	C 	0.48980 0.74697 0.20096 0.01400
C 	C 	0.43830 0.72117 0.20410 -0.02900
C 	C 	0.71812 0.83757 0.18278 0.06200
C 	C 	0.77138 0.86639 0.18129 -0.08900
H 	H 	0.53343 0.81708 0.13439 0.05400
H 	H 	0.62937 0.85062 0.12532 0.05100
H 	H 	0.67223 0.76343 0.24833 0.05500
H 	H 	0.57647 0.73011 0.25743 0.05600
C 	C 	0.18799 0.79979 0.23046 -0.00000
C 	C 	0.15570 0.73537 0.24313 -0.02400
C 	C 	0.17801 0.70781 0.24271 -0.03800
C 	C 	0.23307 0.74446 0.22993 0.02200
C 	C 	0.26769 0.80897 0.21995 -0.03800
C 	C 	0.24532 0.83651 0.22030 -0.02400
C 	C 	0.15476 0.82578 0.21759 0.05600
C 	C 	0.12313 0.84469 0.20176 -0.09000
C 	C 	0.25235 0.71596 0.22491 0.01200
C 	C 	0.26945 0.69358 0.22018 -0.02500
H 	H 	0.11135 0.70637 0.25099 0.05100
H 	H 	0.15131 0.65798 0.25103 0.05400
H 	H 	0.31077 0.83781 0.21058 0.05500
H 	H 	0.27072 0.88621 0.21037 0.05100
C 	C 	0.78859 0.22519 0.53413 0.01900
C 	C 	0.75032 0.16995 0.52276 -0.04200
C 	C 	0.77690 0.14485 0.52487 -0.02700
C 	C 	0.84190 0.17469 0.53853 -0.00700
C 	C 	0.88045 0.23203 0.54733 -0.02700
C 	C 	0.85388 0.25715 0.54519 -0.04200
C 	C 	0.76074 0.24632 0.53769 0.00700
C 	C 	0.73783 0.26373 0.54140 -0.03200
C 	C 	0.86674 0.14054 0.55214 0.04900
C 	C 	0.88591 0.10968 0.56712 -0.10500
H 	H 	0.69986 0.14524 0.51374 0.04800
H 	H 	0.74663 0.10056 0.51798 0.04300
H 	H 	0.93069 0.25551 0.55792 0.04200
H 	H 	0.88391 0.30023 0.55360 0.04700
C 	C 	0.84283 0.63176 0.58263 -0.00200
C 	C 	0.85552 0.59093 0.61440 -0.02700
C 	C 	0.83965 0.54036 0.60787 -0.04000
C 	C 	0.81131 0.53054 0.56949 0.01900
C 	C 	0.79904 0.57163 0.53770 -0.03700
C 	C 	0.81474 0.62207 0.54425 -0.02500
C 	C 	0.86671 0.68814 0.58824 0.05500
C 	C 	0.89024 0.73749 0.59171 -0.09400
C 	C 	0.78575 0.47348 0.56388 0.01000
C 	C 	0.75993 0.42399 0.55939 -0.03400
H 	H 	0.87821 0.59867 0.64405 0.04400
H 	H 	0.84846 0.50832 0.63272 0.04700
H 	H 	0.77631 0.56390 0.50805 0.05400
H 	H 	0.80575 0.65400 0.51940 0.05600
C 	C 	0.34622 0.12256 0.58808 0.00200
C 	C 	0.35300 0.14740 0.54890 -0.02700
C 	C 	0.40641 0.16816 0.54131 -0.03600
C 	C 	0.45324 0.16397 0.57284 0.01800
C 	C 	0.44640 0.13906 0.61200 -0.03900
C 	C 	0.39306 0.11840 0.61959 -0.02900
C 	C 	0.28727 0.09251 0.59538 0.05000
C 	C 	0.23654 0.06307 0.60135 -0.08400
C 	C 	0.51230 0.19407 0.56565 0.01100
C 	C 	0.56339 0.22335 0.56027 -0.03400
H 	H 	0.31655 0.14984 0.52429 0.06100
H 	H 	0.41176 0.18828 0.51099 0.05500
H 	H 	0.48281 0.13656 0.63661 0.04700
H 	H 	0.38775 0.09831 0.64992 0.04400
C 	C 	0.77797 0.22806 0.02815 0.01900
C 	C 	0.73718 0.17250 0.01662 -0.04200
C 	C 	0.76098 0.14558 0.01744 -0.02700
C 	C 	0.82571 0.17392 0.02993 -0.00600
C 	C 	0.86670 0.23155 0.03888 -0.02600
C 	C 	0.84290 0.25847 0.03806 -0.04100
C 	C 	0.75310 0.25096 0.03316 0.00700
C 	C 	0.73223 0.26939 0.03806 -0.03200
C 	C 	0.84828 0.13815 0.04227 0.05000
C 	C 	0.86620 0.10635 0.05637 -0.10300
H 	H 	0.68696 0.14896 0.00849 0.04800
H 	H 	0.72884 0.10108 0.01046 0.04200
H 	H 	0.91677 0.25388 0.04859 0.04300
H 	H 	0.87486 0.30175 0.04661 0.04800
C 	C 	0.84255 0.63202 0.09129 -0.00100
C 	C 	0.85383 0.59015 0.12296 -0.02700
C 	C 	0.83864 0.54025 0.11593 -0.04000
C 	C 	0.81265 0.53237 0.07714 0.01900
C 	C 	0.80192 0.57458 0.04550 -0.03600
C 	C 	0.81668 0.62411 0.05256 -0.02500
C 	C 	0.86629 0.68809 0.09732 0.05600
C 	C 	0.88947 0.73788 0.09991 -0.09100
C 	C 	0.78726 0.47593 0.07066 0.01100
C 	C 	0.76096 0.42717 0.06483 -0.03300
H 	H 	0.87489 0.59652 0.15291 0.04400
H 	H 	0.84618 0.50731 0.14067 0.04800
H 	H 	0.78099 0.56835 0.01553 0.05500
H 	H 	0.80890 0.65690 0.02780 0.06100
C 	C 	0.33812 0.13623 0.07556 0.00000
C 	C 	0.34558 0.15775 0.03691 -0.02700
C 	C 	0.40004 0.17788 0.03112 -0.03700
C 	C 	0.44709 0.17615 0.06395 0.01800
C 	C 	0.43961 0.15473 0.10254 -0.03900
C 	C 	0.38538 0.13492 0.10833 -0.02900
C 	C 	0.27824 0.10596 0.08159 0.04700
C 	C 	0.22720 0.07596 0.08730 -0.08600
C 	C 	0.50674 0.20504 0.05828 0.01100
C 	C 	0.55862 0.23306 0.05472 -0.03400
H 	H 	0.30886 0.15799 0.01139 0.05600
H 	H 	0.40588 0.19538 0.00118 0.05400
H 	H 	0.47620 0.15423 0.12809 0.04700
H 	H 	0.37960 0.11746 0.13829 0.04400
