data_crystal

_cell_length_a 19.88326
_cell_length_b 20.88932
_cell_length_c 49.42345
_cell_angle_alpha 60.69546
_cell_angle_beta  119.03336
_cell_angle_gamma 133.36324

_symmetry_space_group_name_	'P 1'
_symmetry_space_group_name_H-M	'P 1'

loop_
_symmetry_equiv_pos_as_xyz
  x,y,z

loop_
_atom_site_label
_atom_site_type_symbol
_atom_site_fract_x
_atom_site_fract_y
_atom_site_fract_z
_atom_site_charge
O 	O 	0.00492 0.08886 0.51902 -0.42800
O 	O 	0.00437 0.52419 0.62014 -0.05400
C 	C 	0.01956 0.99284 0.94270 0.01600
H 	H 	0.01336 0.88364 0.82381 0.06500
C 	C 	0.01674 0.96432 0.97555 0.33900
Co	Co	0.00575 0.85337 0.07952 1.20600
O 	O 	0.01478 0.89180 0.99375 -0.36800
O 	O 	0.00526 0.83920 0.62634 -0.40900
O 	O 	0.00754 0.00510 0.98620 -0.41300
O 	O 	0.00652 0.11179 0.12283 -0.36800
C 	C 	0.00304 0.00939 0.27862 -0.05200
C 	C 	0.00319 0.00384 0.25151 -0.04400
H 	H 	0.01918 0.06089 0.23074 0.06300
H 	H 	0.01989 0.07096 0.27859 0.05700
C 	C 	0.02584 0.00783 0.91672 -0.03200
C 	C 	0.97793 0.92341 0.25057 0.03000
O 	O 	0.02516 0.76038 0.05420 -0.36600
C 	C 	0.97778 0.93452 0.30519 0.03300
Co	Co	0.99862 0.08044 0.05978 1.16500
H 	H 	0.02605 0.87830 0.77766 0.06100
C 	C 	0.95822 0.91173 0.22029 0.06000
C 	C 	0.03303 0.02553 0.88558 0.01900
C 	C 	0.70954 0.31377 0.98598 0.14100
N 	N 	0.77434 0.39557 0.99379 -0.12200
C 	C 	0.74378 0.44071 0.99107 0.15300
N 	N 	0.65007 0.40424 0.98053 -0.12800
C 	C 	0.58583 0.31620 0.97961 0.15100
N 	N 	0.61492 0.27258 0.98021 -0.13400
C 	C 	0.69424 0.27422 0.51203 0.14800
N 	N 	0.60282 0.24700 0.50123 -0.12400
C 	C 	0.58270 0.30119 0.49777 0.15500
N 	N 	0.65440 0.38581 0.50212 -0.12600
C 	C 	0.74544 0.41305 0.51387 0.14800
N 	N 	0.76586 0.35689 0.51913 -0.13600
C 	C 	0.30245 0.62850 0.15016 0.15000
N 	N 	0.23733 0.54108 0.14729 -0.11500
C 	C 	0.26497 0.49996 0.14508 0.14900
N 	N 	0.35641 0.54627 0.14524 -0.13300
C 	C 	0.41857 0.63541 0.14457 0.14900
N 	N 	0.39334 0.67512 0.14892 -0.12900
C 	C 	0.31405 0.66562 0.62560 0.15100
N 	N 	0.40326 0.68660 0.63890 -0.11600
C 	C 	0.42146 0.63260 0.64059 0.15300
N 	N 	0.34984 0.55651 0.62980 -0.13500
C 	C 	0.26241 0.53762 0.61487 0.14900
N 	N 	0.24347 0.59156 0.61295 -0.12100
Co	Co	0.07566 0.02930 0.03224 1.16900
C 	C 	0.93473 0.72236 0.04780 0.28000
Co	Co	0.11672 0.89747 0.03548 1.18800
C 	C 	0.25747 0.10283 0.02280 0.32800
O 	O 	0.84769 0.91899 0.14165 -0.38100
C 	C 	0.91468 0.90832 0.16091 0.33100
O 	O 	0.92587 0.80129 0.10855 -0.45000
O 	O 	0.06686 0.12649 0.02733 -0.44200
C 	C 	0.07044 0.18610 0.10645 0.31200
C 	C 	0.71654 0.84628 0.08495 0.30600
C 	C 	0.17639 0.84428 0.10572 0.30900
O 	O 	0.95405 0.89651 0.15026 -0.35600
O 	O 	0.20948 0.90484 0.07993 -0.34100
O 	O 	0.10728 0.82814 0.11209 -0.34400
O 	O 	0.08527 0.18570 0.08276 -0.35000
O 	O 	0.74268 0.92971 0.07647 -0.34200
O 	O 	0.76762 0.82984 0.08312 -0.35800
O 	O 	0.06804 0.93236 0.05154 -0.72900
C 	C 	0.86060 0.12422 0.03250 0.31700
O 	O 	0.90755 0.75820 0.05229 -0.38000
O 	O 	0.21080 0.03042 0.01326 -0.42700
O 	O 	0.22016 0.10842 0.03680 -0.38300
Co	Co	0.96605 0.05605 0.55752 1.15500
Co	Co	0.03589 0.00539 0.52712 1.17100
C 	C 	0.97161 0.71490 0.56590 0.28000
Co	Co	0.10658 0.89962 0.53032 1.19000
C 	C 	0.21231 0.10046 0.51002 0.32100
O 	O 	0.03499 0.08302 0.64386 -0.37600
C 	C 	0.05796 0.02789 0.66526 0.25600
C 	C 	0.03805 0.21143 0.57715 0.37100
C 	C 	0.80321 0.83235 0.64122 0.31500
C 	C 	0.22411 0.90398 0.59537 0.30900
O 	O 	0.06483 0.98175 0.65653 -0.30500
O 	O 	0.22859 0.94947 0.56563 -0.35600
O 	O 	0.17443 0.89658 0.60887 -0.33800
O 	O 	0.95182 0.15820 0.58085 -0.44800
O 	O 	0.06640 0.17982 0.57060 -0.37000
O 	O 	0.85188 0.91043 0.64729 -0.38600
O 	O 	0.83759 0.82027 0.62844 -0.36300
O 	O 	0.05089 0.92156 0.54905 -0.71700
C 	C 	0.78296 0.02837 0.54822 0.22100
O 	O 	0.77885 0.98217 0.57818 -0.30800
O 	O 	0.05641 0.77031 0.56034 -0.36000
O 	O 	0.94690 0.73874 0.57795 -0.36700
O 	O 	0.16405 0.02872 0.49980 -0.42300
O 	O 	0.17729 0.10149 0.52644 -0.38900
C 	C 	0.08664 0.02024 0.75421 -0.05200
C 	C 	0.06993 0.02596 0.80640 -0.03000
C 	C 	0.10890 0.10485 0.78207 -0.03000
C 	C 	0.11732 0.10199 0.75618 -0.01500
C 	C 	0.05657 0.02804 0.83308 0.00000
C 	C 	0.96597 0.96872 0.83934 -0.01100
C 	C 	0.95435 0.96746 0.86547 -0.01500
C 	C 	0.12268 0.08803 0.87839 -0.03700
C 	C 	0.13449 0.08915 0.85233 -0.02900
C 	C 	0.07786 0.01408 0.72448 0.05500
C 	C 	0.07255 0.01667 0.69849 -0.09100
H 	H 	0.13063 0.16791 0.78282 0.05800
H 	H 	0.14467 0.16272 0.73709 0.05900
H 	H 	0.90487 0.92251 0.82433 0.05500
H 	H 	0.88488 0.91865 0.87083 0.06300
H 	H 	0.18410 0.13290 0.89381 0.06400
H 	H 	0.20461 0.13583 0.84765 0.05600
C 	C 	0.04227 0.00995 0.37551 -0.04700
C 	C 	0.04888 0.00714 0.34914 -0.05100
C 	C 	0.97056 0.93814 0.33299 0.03300
C 	C 	0.94277 0.90809 0.19396 -0.07200
H 	H 	0.10408 0.06188 0.38832 0.05800
H 	H 	0.11530 0.05762 0.34164 0.05600
H 	H 	0.82345 0.82071 0.33052 0.05700
H 	H 	0.81302 0.82414 0.37757 0.06500
H 	H 	0.93852 0.79755 0.32532 0.05500
C 	C 	0.09995 0.29340 0.61574 0.00100
C 	C 	0.10650 0.29647 0.58795 -0.09700
C 	C 	0.15553 0.38156 0.56685 0.12800
C 	C 	0.19530 0.46131 0.57354 -0.05600
C 	C 	0.18891 0.45746 0.60152 -0.00700
C 	C 	0.13712 0.37241 0.62183 0.07300
N 	N 	0.12580 0.36629 0.64971 -0.01800
H 	H 	0.05936 0.22852 0.63151 0.05700
H 	H 	0.23691 0.52679 0.55809 0.08500
N 	N 	0.16693 0.38784 0.53899 -0.02400
O 	O 	0.09127 0.40442 0.64719 -0.07500
O 	O 	0.14562 0.31886 0.67736 -0.09600
O 	O 	0.14621 0.43473 0.51136 -0.06300
O 	O 	0.20985 0.35738 0.54188 -0.07000
C 	C 	0.54300 0.64635 0.63092 -0.05300
C 	C 	0.52036 0.66529 0.64774 -0.01100
C 	C 	0.59349 0.71948 0.66970 0.07900
C 	C 	0.68851 0.76437 0.67105 -0.01200
C 	C 	0.71098 0.75703 0.65019 -0.08400
C 	C 	0.63788 0.69029 0.63268 0.11700
N 	N 	0.65957 0.66602 0.61706 -0.02100
H 	H 	0.48696 0.59949 0.61571 0.08300
H 	H 	0.74489 0.80910 0.68698 0.07000
N 	N 	0.57169 0.72881 0.69067 -0.01800
O 	O 	0.70249 0.62688 0.63389 -0.08100
O 	O 	0.62826 0.67486 0.58635 -0.08300
O 	O 	0.51700 0.65712 0.70977 -0.08100
O 	O 	0.61040 0.80920 0.69184 -0.07700
C 	C 	0.23347 0.70315 0.63562 -0.04500
C 	C 	0.29781 0.73033 0.62101 -0.00900
C 	C 	0.35449 0.82219 0.60499 0.08700
C 	C 	0.34042 0.88355 0.60127 -0.01400
C 	C 	0.26762 0.85385 0.61231 -0.06800
C 	C 	0.22117 0.76573 0.63249 0.11700
N 	N 	0.17120 0.74322 0.65255 -0.02500
H 	H 	0.19653 0.63505 0.65062 0.09400
H 	H 	0.38157 0.95303 0.58767 0.09900
N 	N 	0.42572 0.85325 0.59207 -0.01600
O 	O 	0.08874 0.66550 0.65538 -0.05900
O 	O 	0.21343 0.79515 0.67105 -0.06200
O 	O 	0.40100 0.82679 0.56778 -0.07400
O 	O 	0.51536 0.90568 0.60525 -0.06100
C 	C 	0.20089 0.34039 0.15872 -0.05300
C 	C 	0.19479 0.41212 0.13698 -0.01100
C 	C 	0.14854 0.40930 0.10467 0.08300
C 	C 	0.11755 0.33981 0.09406 -0.01300
C 	C 	0.12854 0.27084 0.11558 -0.07900
C 	C 	0.17228 0.27233 0.14804 0.11200
N 	N 	0.18849 0.20493 0.17018 -0.02100
H 	H 	0.23672 0.34241 0.18355 0.07700
H 	H 	0.08046 0.33700 0.06934 0.07800
N 	N 	0.13608 0.47889 0.08231 -0.01900
O 	O 	0.22977 0.18765 0.16357 -0.09100
O 	O 	0.16609 0.16395 0.19758 -0.10500
O 	O 	0.16011 0.51885 0.05526 -0.06100
O 	O 	0.09139 0.49523 0.08746 -0.06200
C 	C 	0.55061 0.77446 0.08044 -0.01200
C 	C 	0.62912 0.77138 0.09629 -0.07700
C 	C 	0.63351 0.71639 0.12762 0.10900
C 	C 	0.56906 0.67894 0.14438 -0.04900
C 	C 	0.49725 0.69168 0.12957 -0.01900
C 	C 	0.48773 0.73923 0.09727 0.08500
N 	N 	0.41337 0.75096 0.08140 -0.02000
H 	H 	0.54311 0.81121 0.05563 0.09100
H 	H 	0.57235 0.63673 0.16848 0.07700
N 	N 	0.70173 0.69675 0.14217 -0.02700
O 	O 	0.42191 0.81267 0.08600 -0.07600
O 	O 	0.34235 0.70700 0.05983 -0.06400
O 	O 	0.74903 0.70067 0.17163 -0.09700
O 	O 	0.70553 0.66147 0.12782 -0.08400
C 	C 	0.33878 0.77222 0.14729 -0.05000
C 	C 	0.27187 0.67849 0.14882 -0.00800
C 	C 	0.17494 0.63753 0.14442 0.08600
C 	C 	0.14469 0.69252 0.13238 -0.01200
C 	C 	0.21066 0.78742 0.12636 -0.07400
C 	C 	0.30859 0.82676 0.13598 0.12100
N 	N 	0.37761 0.92208 0.13434 -0.02200
H 	H 	0.41427 0.80343 0.15387 0.08800
H 	H 	0.06951 0.66146 0.12689 0.08600
N 	N 	0.10873 0.54105 0.15414 -0.01700
O 	O 	0.37319 0.95945 0.14755 -0.05000
O 	O 	0.44876 0.97008 0.12171 -0.05600
O 	O 	0.12362 0.49824 0.18377 -0.07700
O 	O 	0.02930 0.49737 0.13415 -0.06000
C 	C 	0.67337 0.05658 0.54281 -0.11700
C 	C 	0.74572 0.08375 0.53231 -0.03400
C 	C 	0.79537 0.17216 0.51247 0.09000
C 	C 	0.78110 0.23506 0.50718 -0.04000
C 	C 	0.71368 0.20939 0.51976 -0.03100
C 	C 	0.65841 0.11900 0.53721 0.10400
N 	N 	0.58860 0.09092 0.55004 -0.02400
H 	H 	0.63221 0.98807 0.55699 0.14300
H 	H 	0.82039 0.30301 0.49239 0.07400
O 	O 	0.49852 0.03712 0.53764 -0.10700
O 	O 	0.61502 0.12163 0.57339 -0.10700
O 	O 	0.94586 0.26535 0.50145 -0.10200
C 	C 	0.85180 0.63534 0.52289 -0.02500
C 	C 	0.90114 0.63056 0.55498 -0.07100
C 	C 	0.90444 0.55520 0.57306 0.10500
C 	C 	0.86397 0.48910 0.55830 -0.05400
C 	C 	0.81747 0.49593 0.52580 -0.01800
C 	C 	0.81662 0.57273 0.50770 0.08000
N 	N 	0.77720 0.58568 0.47389 -0.01800
H 	H 	0.84508 0.69065 0.50920 0.07500
H 	H 	0.86260 0.42914 0.57268 0.07400
O 	O 	0.71911 0.60816 0.46064 -0.08400
O 	O 	0.80187 0.57796 0.45621 -0.09100
C 	C 	0.32342 0.20368 0.47491 -0.00700
C 	C 	0.30816 0.17620 0.50484 -0.09100
C 	C 	0.38645 0.20178 0.53126 0.11500
C 	C 	0.47590 0.24228 0.52860 -0.05200
C 	C 	0.48869 0.26048 0.49951 -0.01200
C 	C 	0.41319 0.24471 0.47219 0.07500
N 	N 	0.42671 0.26809 0.44187 -0.01800
H 	H 	0.26392 0.18725 0.45420 0.06500
H 	H 	0.53546 0.25874 0.54929 0.08100
N 	N 	0.37446 0.18291 0.56122 -0.02300
O 	O 	0.37118 0.20712 0.42566 -0.09800
O 	O 	0.48988 0.35173 0.42944 -0.07900
O 	O 	0.39727 0.13267 0.58657 -0.10600
O 	O 	0.35155 0.22447 0.56388 -0.08500
C 	C 	0.86748 0.25958 0.99395 -0.00900
C 	C 	0.81194 0.16494 0.00632 -0.09800
C 	C 	0.71494 0.11867 0.00362 0.10400
C 	C 	0.68056 0.16796 0.99528 -0.06100
C 	C 	0.74117 0.26344 0.98822 -0.01000
C 	C 	0.83262 0.30924 0.98481 0.07000
N 	N 	0.88903 0.40516 0.97130 -0.01700
H 	H 	0.94051 0.29548 0.99397 0.05500
H 	H 	0.60769 0.13163 0.99553 0.07300
N 	N 	0.65341 0.02132 0.01246 -0.08000
O 	O 	0.97634 0.45702 0.98632 -0.08700
O 	O 	0.85532 0.43978 0.94303 -0.08000
O 	O 	0.65558 0.97470 0.00300 -0.03500
C 	C 	0.86887 0.66911 0.00013 -0.02900
C 	C 	0.86680 0.64825 0.03152 -0.06900
C 	C 	0.82767 0.55802 0.04996 0.10600
C 	C 	0.79974 0.49225 0.03799 -0.04600
C 	C 	0.80547 0.51436 0.00701 -0.02000
C 	C 	0.84260 0.60399 0.98842 0.08700
N 	N 	0.85370 0.62928 0.95747 -0.02000
H 	H 	0.89591 0.73739 0.98532 0.06900
H 	H 	0.76731 0.42238 0.05196 0.07300
N 	N 	0.81596 0.53283 0.08087 -0.02500
O 	O 	0.93814 0.67828 0.95306 -0.08800
O 	O 	0.77624 0.55692 0.08464 -0.07900
O 	O 	0.83959 0.48114 0.10479 -0.09100
C 	C 	0.50868 0.24122 0.02314 -0.05700
C 	C 	0.49998 0.26318 0.99039 -0.01500
C 	C 	0.41653 0.25344 0.96839 0.07200
C 	C 	0.34052 0.21588 0.97957 -0.00400
C 	C 	0.34521 0.18321 0.01249 -0.09400
C 	C 	0.43275 0.20410 0.03414 0.11500
N 	N 	0.44477 0.18751 0.06736 -0.02500
H 	H 	0.57551 0.25514 0.04002 0.07100
H 	H 	0.27402 0.20291 0.96268 0.05800
N 	N 	0.40770 0.27936 0.93476 -0.01900
O 	O 	0.39599 0.10491 0.08421 -0.09300
O 	O 	0.51044 0.25420 0.08134 -0.08200
O 	O 	0.42138 0.24616 0.92307 -0.09600
O 	O 	0.37838 0.33014 0.91558 -0.08900
Co	Co	0.91352 0.89628 0.10244 1.20100
Co	Co	0.87041 0.02336 0.10068 1.14500
O 	O 	0.93684 0.00016 0.08789 -0.81000
O 	O 	0.02765 0.97800 0.07634 -0.52000
O 	O 	0.88475 0.13058 0.06124 -0.42000
O 	O 	0.88632 0.08837 0.02713 -0.40400
Co	Co	0.03680 0.86628 0.58688 1.20100
Co	Co	0.96974 0.91979 0.61777 1.17800
Co	Co	0.90298 0.03268 0.61292 1.13300
O 	O 	0.94397 0.99626 0.59407 -0.72200
O 	O 	0.97147 0.94046 0.56859 -0.56800
C 	C 	0.96207 0.91434 0.47516 0.31500
O 	O 	0.97915 0.85536 0.49714 -0.39800
O 	O 	0.96350 0.96818 0.48301 -0.34700
O 	O 	0.83482 0.03904 0.53457 -0.35100
C 	C 	0.05054 0.94194 0.77899 0.03500
C 	C 	0.04234 0.94476 0.80501 0.01700
C 	C 	0.95752 0.94368 0.38608 0.03100
C 	C 	0.88486 0.87347 0.34301 -0.03200
C 	C 	0.87851 0.87616 0.36947 -0.02600
C 	C 	0.95662 0.84982 0.27759 -0.02800
C 	C 	0.95663 0.85533 0.30481 -0.03500
C 	C 	0.95686 0.93580 0.41683 0.05700
C 	C 	0.95622 0.92916 0.44251 -0.07700
H 	H 	0.93677 0.78729 0.27715 0.05700
N 	N 	0.85658 0.19699 0.49645 -0.02000
O 	O 	0.82057 0.15924 0.47385 -0.09500
N 	N 	0.94245 0.54205 0.60681 -0.04100
O 	O 	0.90539 0.53518 0.62456 -0.08200
O 	O 	0.59263 0.97931 0.02894 -0.04500
O 	O 	0.78014 0.60774 0.93336 -0.08000
