data_crystal

_cell_length_a 26.81836
_cell_length_b 28.83524
_cell_length_c 30.50777
_cell_angle_alpha 61.20614
_cell_angle_beta  118.48140
_cell_angle_gamma 133.24253

_symmetry_space_group_name_	'P 1'
_symmetry_space_group_name_H-M	'P 1'

loop_
_symmetry_equiv_pos_as_xyz
  x,y,z

loop_
_atom_site_label
_atom_site_type_symbol
_atom_site_fract_x
_atom_site_fract_y
_atom_site_fract_z
_atom_site_charge
C 	C 	0.75135 0.32371 0.04665 0.12100
N 	N 	0.68083 0.29363 0.02927 -0.14300
C 	C 	0.65113 0.31366 0.03472 0.12400
N 	N 	0.69201 0.36361 0.05746 -0.14500
C 	C 	0.76221 0.39376 0.07488 0.12400
N 	N 	0.79199 0.37338 0.07001 -0.14500
C 	C 	0.77998 0.34314 0.54064 0.12000
N 	N 	0.72597 0.30244 0.56427 -0.14500
C 	C 	0.70627 0.32756 0.57523 0.12300
N 	N 	0.74148 0.39330 0.56362 -0.14500
C 	C 	0.79616 0.43430 0.54092 0.12300
N 	N 	0.81593 0.40940 0.52956 -0.14400
C 	C 	0.24023 0.62604 0.25383 0.11800
N 	N 	0.29905 0.65783 0.23857 -0.14400
C 	C 	0.31057 0.62317 0.23122 0.12100
N 	N 	0.26433 0.55698 0.24046 -0.14600
C 	C 	0.20378 0.52549 0.25265 0.12000
N 	N 	0.19161 0.55992 0.25959 -0.14600
C 	C 	0.27810 0.64391 0.76823 0.11900
N 	N 	0.23078 0.58996 0.74870 -0.14600
C 	C 	0.25367 0.56525 0.74083 0.12100
N 	N 	0.32336 0.59401 0.75283 -0.14700
C 	C 	0.37078 0.64782 0.77211 0.12000
N 	N 	0.34814 0.67290 0.77978 -0.14600
Co	Co	0.08225 0.98324 0.16157 1.18200
Co	Co	0.88091 0.94452 0.13092 1.18700
Co	Co	0.01366 0.00650 0.20687 1.17100
C 	C 	0.11109 0.88170 0.20761 0.30400
Co	Co	0.06610 0.91146 0.09372 1.16100
Co	Co	0.87490 0.97389 0.21727 1.16900
O 	O 	0.96877 0.04909 0.25121 -0.39500
C 	C 	0.01694 0.10180 0.22549 0.29200
O 	O 	0.10466 0.02746 0.21032 -0.47900
O 	O 	0.86203 0.91295 0.07474 -0.47700
C 	C 	0.85949 0.04645 0.10565 0.29700
C 	C 	0.19209 0.04815 0.10656 0.30100
C 	C 	0.91955 0.79486 0.10291 0.31200
O 	O 	0.04505 0.09685 0.20365 -0.40300
O 	O 	0.17098 0.98869 0.11389 -0.40900
O 	O 	0.16697 0.05805 0.12681 -0.39800
O 	O 	0.86300 0.04038 0.15269 -0.39400
O 	O 	0.83836 0.99684 0.09218 -0.39400
O 	O 	0.00187 0.94702 0.28173 -0.40400
O 	O 	0.90869 0.82265 0.11783 -0.40600
O 	O 	0.03197 0.94542 0.11284 -0.77200
C 	C 	0.76453 0.84716 0.18412 0.31400
O 	O 	0.77617 0.89792 0.18713 -0.40700
O 	O 	0.81166 0.85483 0.17273 -0.40500
O 	O 	0.07363 0.85612 0.16770 -0.41300
O 	O 	0.09640 0.91147 0.21656 -0.40300
O 	O 	0.05373 0.96732 0.02069 -0.40800
Co	Co	0.11575 0.00260 0.67424 1.18000
Co	Co	0.91850 0.98094 0.61598 1.18900
Co	Co	0.03723 0.03269 0.70221 1.17300
C 	C 	0.14127 0.90313 0.71242 0.31300
Co	Co	0.14165 0.97061 0.60159 1.16600
Co	Co	0.90703 0.03568 0.67993 1.16800
O 	O 	0.00008 0.11089 0.71395 -0.42500
C 	C 	0.05747 0.15177 0.69668 0.30500
O 	O 	0.11808 0.02705 0.72752 -0.48300
O 	O 	0.90866 0.94008 0.57094 -0.46900
C 	C 	0.88447 0.08146 0.56576 0.30400
C 	C 	0.25593 0.08815 0.64417 0.30400
C 	C 	0.99367 0.84742 0.58840 0.32100
O 	O 	0.08826 0.13034 0.69703 -0.40300
O 	O 	0.22319 0.06787 0.60181 -0.39700
O 	O 	0.22130 0.07883 0.67070 -0.38800
O 	O 	0.91761 0.10005 0.60895 -0.40100
O 	O 	0.87833 0.03435 0.56043 -0.38600
O 	O 	0.99761 0.97234 0.76869 -0.38100
O 	O 	0.96880 0.86217 0.60424 -0.41000
O 	O 	0.08636 0.98686 0.61704 -0.76000
C 	C 	0.79784 0.90169 0.66119 0.30900
O 	O 	0.81023 0.95866 0.64901 -0.41000
O 	O 	0.84144 0.89868 0.65585 -0.40600
O 	O 	0.18150 0.94407 0.67931 -0.41600
O 	O 	0.10395 0.91513 0.71576 -0.41600
O 	O 	0.10924 0.99756 0.52200 -0.39300
C 	C 	0.02348 0.02467 0.85969 0.04600
C 	C 	0.02062 0.01983 0.90668 -0.06200
C 	C 	0.88193 0.83594 0.94843 -0.19300
H 	H 	0.89255 0.86504 0.85286 0.04100
H 	H 	0.05540 0.06339 0.92100 0.03900
C 	C 	0.07857 0.08951 0.83234 -0.18600
H 	H 	0.83870 0.80000 0.92436 0.05900
H 	H 	0.85744 0.83892 0.96690 0.06900
H 	H 	0.05941 0.12036 0.80885 0.07000
H 	H 	0.09233 0.08304 0.80768 0.06100
H 	H 	0.12779 0.11591 0.86060 0.05800
C 	C 	0.04461 0.00138 0.36533 -0.07300
C 	C 	0.06222 0.02037 0.40827 0.08600
C 	C 	0.12712 0.08795 0.41538 -0.19600
H 	H 	0.07826 0.03531 0.33826 0.04600
H 	H 	0.91984 0.88426 0.45910 0.03300
C 	C 	0.87229 0.82961 0.38372 -0.18600
H 	H 	0.14031 0.12279 0.37787 0.06300
H 	H 	0.17234 0.08583 0.44055 0.07500
H 	H 	0.11885 0.10777 0.43275 0.07600
H 	H 	0.82816 0.83245 0.35613 0.07000
H 	H 	0.85647 0.79591 0.42074 0.06400
C 	C 	0.17847 0.32312 0.71416 -0.09300
C 	C 	0.13467 0.34341 0.68293 -0.00100
C 	C 	0.07431 0.30776 0.64707 0.03600
C 	C 	0.05300 0.24712 0.64848 -0.03000
C 	C 	0.09248 0.22288 0.68400 -0.11200
C 	C 	0.15863 0.26368 0.71406 0.09700
C 	C 	0.15005 0.39948 0.69051 -0.00600
C 	C 	0.02999 0.33190 0.60964 -0.23200
H 	H 	0.00378 0.21722 0.62379 0.03200
C 	C 	0.20799 0.24432 0.74593 -0.20300
H 	H 	0.22689 0.35260 0.73968 0.04900
C 	C 	0.13172 0.39128 0.73144 0.03300
C 	C 	0.15986 0.44690 0.74459 -0.04800
C 	C 	0.20391 0.50998 0.71632 -0.04900
C 	C 	0.21237 0.51735 0.67054 0.06700
C 	C 	0.18806 0.46222 0.65922 -0.08200
C 	C 	0.08620 0.32376 0.76318 -0.17400
H 	H 	0.15133 0.44114 0.77877 0.03900
C 	C 	0.25203 0.58433 0.63583 -0.19000
H 	H 	0.20010 0.46829 0.62676 0.04500
H 	H 	0.18535 0.20049 0.77748 0.07000
H 	H 	0.25983 0.28428 0.76340 0.06400
H 	H 	0.21750 0.23354 0.72146 0.08000
H 	H 	0.06361 0.38462 0.59066 0.07100
H 	H 	0.99980 0.32500 0.63021 0.08900
H 	H 	0.06708 0.32502 0.78759 0.05400
H 	H 	0.11685 0.30347 0.78853 0.06000
H 	H 	0.03932 0.29052 0.73782 0.05700
H 	H 	0.23450 0.58090 0.59568 0.06000
H 	H 	0.30921 0.60697 0.64945 0.07000
H 	H 	0.24267 0.61667 0.63529 0.06700
C 	C 	0.61352 0.77772 0.67798 -0.09600
C 	C 	0.62666 0.76998 0.73053 0.00700
C 	C 	0.69507 0.79204 0.76165 0.02300
C 	C 	0.75023 0.82613 0.73878 -0.01500
C 	C 	0.73875 0.84263 0.68520 -0.11500
C 	C 	0.66926 0.81402 0.65501 0.10000
C 	C 	0.56974 0.74336 0.75170 -0.00800
C 	C 	0.71002 0.78207 0.81858 -0.17100
H 	H 	0.80311 0.84434 0.76228 0.04400
C 	C 	0.65499 0.82679 0.59773 -0.20600
H 	H 	0.56043 0.75857 0.65449 0.05000
C 	C 	0.54762 0.78137 0.74026 0.03700
C 	C 	0.48492 0.75101 0.75187 -0.04900
C 	C 	0.44629 0.68424 0.77690 -0.04800
C 	C 	0.47560 0.64997 0.79629 0.06700
C 	C 	0.53496 0.67857 0.78112 -0.08000
C 	C 	0.58822 0.85306 0.71301 -0.17800
H 	H 	0.46409 0.77830 0.73867 0.04100
C 	C 	0.44193 0.58183 0.83096 -0.18900
H 	H 	0.55350 0.65014 0.79163 0.04500
H 	H 	0.66537 0.87574 0.57873 0.07400
H 	H 	0.59950 0.78901 0.58192 0.06500
H 	H 	0.68920 0.82541 0.58840 0.07400
H 	H 	0.68147 0.72889 0.83756 0.05900
H 	H 	0.69323 0.80348 0.82567 0.06300
H 	H 	0.76688 0.80613 0.83666 0.05900
H 	H 	0.57340 0.87851 0.71679 0.05900
H 	H 	0.57715 0.85819 0.67154 0.06300
H 	H 	0.64559 0.87799 0.72978 0.06400
H 	H 	0.40250 0.54499 0.80746 0.07000
H 	H 	0.41587 0.57521 0.85502 0.06800
H 	H 	0.48214 0.57280 0.85745 0.06000
C 	C 	0.11498 0.74492 0.75719 -0.10300
C 	C 	0.18509 0.76723 0.78056 0.01000
C 	C 	0.23298 0.82574 0.79737 0.01700
C 	C 	0.21305 0.86633 0.78256 -0.01000
C 	C 	0.14676 0.84954 0.75052 -0.12100
C 	C 	0.09492 0.78501 0.74344 0.10900
C 	C 	0.21042 0.73591 0.77881 -0.00900
C 	C 	0.30708 0.84808 0.82671 -0.16800
H 	H 	0.25135 0.91373 0.79179 0.03100
C 	C 	0.01922 0.75955 0.71877 -0.23700
H 	H 	0.07691 0.69803 0.74705 0.04800
C 	C 	0.20107 0.67803 0.81554 0.03500
C 	C 	0.22271 0.64795 0.81121 -0.04900
C 	C 	0.25416 0.67536 0.77116 -0.04700
C 	C 	0.26305 0.73299 0.73428 0.06500
C 	C 	0.24161 0.76307 0.73868 -0.07800
C 	C 	0.16727 0.64780 0.85879 -0.17500
H 	H 	0.21545 0.60340 0.83919 0.03900
C 	C 	0.29598 0.76291 0.69052 -0.18800
H 	H 	0.24865 0.80749 0.71058 0.04600
H 	H 	0.33905 0.87057 0.79969 0.06100
H 	H 	0.30742 0.80600 0.85597 0.05900
H 	H 	0.33194 0.88490 0.84721 0.05600
H 	H 	0.16972 0.60635 0.88688 0.05400
H 	H 	0.11114 0.62894 0.84307 0.05700
H 	H 	0.19473 0.68496 0.87984 0.05800
H 	H 	0.26937 0.72515 0.67038 0.06700
H 	H 	0.35266 0.78366 0.70557 0.06800
H 	H 	0.29142 0.80297 0.66172 0.06000
C 	C 	0.08329 0.38168 0.19714 -0.07500
C 	C 	0.09291 0.33640 0.23968 -0.02100
C 	C 	0.12246 0.34748 0.28935 0.04000
C 	C 	0.15138 0.40812 0.29459 -0.05200
C 	C 	0.14823 0.45617 0.25118 -0.04700
C 	C 	0.10717 0.43979 0.20321 0.06100
C 	C 	0.07342 0.27833 0.23176 0.03000
C 	C 	0.12689 0.29662 0.33640 -0.17900
H 	H 	0.18063 0.41962 0.33189 0.04000
C 	C 	0.09392 0.48665 0.15744 -0.18700
H 	H 	0.05817 0.37216 0.15923 0.03800
C 	C 	0.00222 0.22569 0.21912 -0.04300
C 	C 	0.98529 0.17185 0.21119 0.05200
C 	C 	0.03809 0.16651 0.22074 -0.15300
C 	C 	0.10957 0.21905 0.23391 0.11500
C 	C 	0.12654 0.27560 0.23739 -0.11500
C 	C 	0.94416 0.22585 0.21537 -0.13000
C 	C 	0.16772 0.21463 0.24553 -0.21000
H 	H 	0.18120 0.31663 0.24629 0.05400
H 	H 	0.08725 0.51265 0.16932 0.06600
H 	H 	0.04508 0.45999 0.12909 0.05700
H 	H 	0.13875 0.52312 0.13852 0.06300
H 	H 	0.17039 0.29725 0.33972 0.06200
H 	H 	0.07667 0.24696 0.33404 0.06100
H 	H 	0.13685 0.30629 0.37190 0.05700
H 	H 	0.94091 0.26344 0.18094 0.05700
H 	H 	0.95431 0.23676 0.25024 0.06000
H 	H 	0.22009 0.25758 0.25912 0.06500
H 	H 	0.16867 0.21311 0.21027 0.07900
H 	H 	0.15964 0.16993 0.27624 0.07200
C 	C 	0.42531 0.65315 0.16886 -0.07900
C 	C 	0.49229 0.69879 0.19376 -0.00900
C 	C 	0.49909 0.72957 0.22306 0.03900
C 	C 	0.43886 0.70584 0.23411 -0.05000
C 	C 	0.37184 0.65713 0.21162 -0.04700
C 	C 	0.36513 0.63551 0.17483 0.06800
C 	C 	0.55503 0.71728 0.18617 0.00900
C 	C 	0.56988 0.78748 0.24238 -0.17900
H 	H 	0.44427 0.72464 0.26070 0.04300
C 	C 	0.29447 0.59468 0.14139 -0.18900
H 	H 	0.42007 0.63248 0.14388 0.04600
C 	C 	0.60071 0.70253 0.22750 0.02000
C 	C 	0.67039 0.73967 0.22454 -0.01300
C 	C 	0.69229 0.78732 0.17949 -0.11800
C 	C 	0.64109 0.78844 0.13449 0.10600
C 	C 	0.57334 0.75589 0.13858 -0.09800
C 	C 	0.57657 0.64963 0.27519 -0.17000
H 	H 	0.70863 0.73530 0.25840 0.03300
C 	C 	0.66096 0.83098 0.08348 -0.21100
H 	H 	0.53640 0.76345 0.10558 0.05200
H 	H 	0.26772 0.54195 0.16170 0.07100
H 	H 	0.30038 0.60120 0.10477 0.06100
H 	H 	0.26106 0.60988 0.13123 0.06600
H 	H 	0.60112 0.82161 0.21254 0.06800
H 	H 	0.59932 0.77043 0.27743 0.06100
H 	H 	0.56396 0.81582 0.25205 0.06100
H 	H 	0.60721 0.62923 0.29464 0.05800
H 	H 	0.52027 0.60844 0.26544 0.06300
H 	H 	0.58380 0.66993 0.30241 0.05900
H 	H 	0.70004 0.83063 0.07993 0.07500
H 	H 	0.68390 0.88205 0.08006 0.07700
H 	H 	0.61423 0.81286 0.05121 0.06900
C 	C 	0.24437 0.85225 0.26125 -0.09700
C 	C 	0.20072 0.78404 0.27990 0.00800
C 	C 	0.14057 0.75572 0.29439 0.01600
C 	C 	0.11610 0.79302 0.27847 -0.01100
C 	C 	0.15250 0.85823 0.24962 -0.11400
C 	C 	0.22155 0.89006 0.24777 0.09500
C 	C 	0.20942 0.74218 0.27346 -0.01000
C 	C 	0.10298 0.68644 0.32672 -0.16800
H 	H 	0.06549 0.76955 0.28389 0.03100
C 	C 	0.26831 0.96304 0.22664 -0.20800
H 	H 	0.29347 0.87517 0.25365 0.05100
C 	C 	0.18069 0.72637 0.22579 0.03600
C 	C 	0.19026 0.68736 0.22034 -0.04900
C 	C 	0.22765 0.66371 0.26167 -0.04600
C 	C 	0.25550 0.67866 0.30950 0.06400
C 	C 	0.24639 0.71810 0.31495 -0.07800
C 	C 	0.14396 0.75451 0.17974 -0.17700
H 	H 	0.16949 0.67623 0.18359 0.03800
C 	C 	0.29579 0.65357 0.35445 -0.18900
H 	H 	0.26817 0.73015 0.35144 0.04400
H 	H 	0.26866 0.97344 0.18668 0.07700
H 	H 	0.32296 0.98384 0.25037 0.06800
H 	H 	0.25056 0.98809 0.22705 0.07500
H 	H 	0.13901 0.68309 0.36457 0.05800
H 	H 	0.08592 0.65181 0.30751 0.05500
H 	H 	0.05565 0.67084 0.33350 0.05200
H 	H 	0.11478 0.72931 0.14835 0.05300
H 	H 	0.18338 0.80746 0.16491 0.06000
H 	H 	0.10528 0.74877 0.19012 0.06100
H 	H 	0.34459 0.67526 0.34551 0.06900
H 	H 	0.26297 0.59927 0.36256 0.06800
H 	H 	0.31085 0.66650 0.38986 0.06100
C 	C 	0.79961 0.28265 0.46761 -0.07800
C 	C 	0.81730 0.24138 0.50816 -0.00900
C 	C 	0.82984 0.23906 0.55957 0.03800
C 	C 	0.82161 0.27605 0.56939 -0.04900
C 	C 	0.80080 0.31506 0.52890 -0.04500
C 	C 	0.79040 0.31902 0.47751 0.06400
C 	C 	0.82343 0.20107 0.49674 0.00600
C 	C 	0.84633 0.19325 0.60403 -0.18100
H 	H 	0.82904 0.27271 0.60874 0.04400
C 	C 	0.76806 0.36065 0.43324 -0.18800
H 	H 	0.79142 0.28530 0.42830 0.04600
C 	C 	0.76957 0.13313 0.50121 0.02200
C 	C 	0.78699 0.09116 0.51402 -0.01900
C 	C 	0.85706 0.11705 0.52178 -0.11000
C 	C 	0.90495 0.18517 0.50317 0.09500
C 	C 	0.88868 0.22724 0.49239 -0.09400
C 	C 	0.69562 0.10470 0.49756 -0.17000
H 	H 	0.74820 0.03844 0.52424 0.03300
H 	H 	0.92872 0.27988 0.48510 0.05200
H 	H 	0.71822 0.34516 0.43557 0.06500
H 	H 	0.75910 0.35612 0.39555 0.06100
H 	H 	0.80962 0.41305 0.43437 0.07100
H 	H 	0.88427 0.19361 0.59804 0.06800
H 	H 	0.79720 0.14255 0.60836 0.05900
H 	H 	0.87029 0.20793 0.64058 0.06000
H 	H 	0.65734 0.05619 0.48803 0.05600
H 	H 	0.68097 0.13755 0.46681 0.06100
H 	H 	0.69141 0.09845 0.53478 0.05800
C 	C 	0.81998 0.59300 0.49262 -0.08000
C 	C 	0.87453 0.62370 0.53240 -0.00400
C 	C 	0.91333 0.59839 0.56835 0.02800
C 	C 	0.89273 0.53940 0.56653 -0.04000
C 	C 	0.83403 0.50555 0.52953 -0.04900
C 	C 	0.80096 0.53516 0.48999 0.06900
C 	C 	0.89126 0.68274 0.53606 0.01400
C 	C 	0.97424 0.63220 0.61021 -0.12400
H 	H 	0.91917 0.51738 0.59618 0.04500
C 	C 	0.74151 0.50239 0.44731 -0.19000
H 	H 	0.79179 0.61370 0.46406 0.04500
C 	C 	0.94073 0.74587 0.51078 0.00600
C 	C 	0.96871 0.80080 0.52459 0.01700
C 	C 	0.94568 0.79393 0.56158 -0.13300
C 	C 	0.88773 0.73158 0.58041 0.10800
C 	C 	0.86234 0.67602 0.56866 -0.10300
C 	C 	0.96746 0.75469 0.47168 -0.14100
H 	H 	0.01234 0.84859 0.50940 0.01200
C 	C 	0.85194 0.72398 0.61179 -0.20900
H 	H 	0.82155 0.62749 0.58598 0.05200
H 	H 	0.73449 0.53832 0.41317 0.06200
H 	H 	0.69186 0.46343 0.46083 0.06800
H 	H 	0.75247 0.48016 0.43497 0.06700
H 	H 	0.95482 0.62951 0.63697 0.05800
H 	H 	0.00228 0.60910 0.63275 0.03800
H 	H 	0.99934 0.80702 0.45103 0.06300
H 	H 	0.92263 0.72669 0.44247 0.05800
H 	H 	0.00072 0.73706 0.49110 0.04300
H 	H 	0.80302 0.67347 0.61839 0.06600
H 	H 	0.83703 0.75821 0.59118 0.07900
H 	H 	0.88730 0.73410 0.64982 0.07900
C 	C 	0.52066 0.21152 0.59229 -0.07800
C 	C 	0.53152 0.22618 0.63504 -0.00900
C 	C 	0.60053 0.26587 0.66280 0.03700
C 	C 	0.65781 0.29380 0.64527 -0.04800
C 	C 	0.64695 0.28397 0.59979 -0.04700
C 	C 	0.57782 0.24089 0.57387 0.06500
C 	C 	0.47013 0.20202 0.64887 0.00800
C 	C 	0.61326 0.28045 0.70989 -0.17700
H 	H 	0.71100 0.32593 0.66559 0.04300
C 	C 	0.56462 0.22782 0.52574 -0.18800
H 	H 	0.46742 0.17928 0.57210 0.04500
C 	C 	0.43424 0.23114 0.61905 0.02000
C 	C 	0.36514 0.19614 0.62193 -0.01000
C 	C 	0.33302 0.13393 0.65553 -0.11300
C 	C 	0.37385 0.11090 0.69184 0.09600
C 	C 	0.44147 0.14410 0.68709 -0.09700
C 	C 	0.46707 0.29676 0.58118 -0.17000
H 	H 	0.33478 0.21524 0.59558 0.03600
C 	C 	0.34357 0.04792 0.73251 -0.20800
H 	H 	0.47033 0.12314 0.71145 0.04800
H 	H 	0.50750 0.19511 0.50906 0.06000
H 	H 	0.58842 0.20354 0.53474 0.07000
H 	H 	0.58773 0.27457 0.49613 0.06600
H 	H 	0.58913 0.23408 0.73954 0.06200
H 	H 	0.58985 0.30555 0.69964 0.06300
H 	H 	0.67030 0.31276 0.72699 0.06000
H 	H 	0.44061 0.31934 0.57013 0.05800
H 	H 	0.46259 0.29048 0.54602 0.06200
H 	H 	0.52344 0.33125 0.59825 0.06200
H 	H 	0.31910 0.00642 0.71765 0.07400
H 	H 	0.30389 0.03907 0.74432 0.07700
H 	H 	0.38558 0.04986 0.76745 0.06400
C 	C 	0.81812 0.22587 0.08487 -0.08000
C 	C 	0.82659 0.23775 0.03776 0.00100
C 	C 	0.81509 0.28177 0.99418 0.02900
C 	C 	0.79225 0.31109 0.99800 -0.05600
C 	C 	0.78226 0.29796 0.04491 -0.03800
C 	C 	0.79645 0.25593 0.08892 0.06600
C 	C 	0.84204 0.19962 0.03388 0.00800
C 	C 	0.82422 0.29544 0.94322 -0.17500
H 	H 	0.78115 0.34330 0.96428 0.04000
C 	C 	0.78738 0.24214 0.13999 -0.19000
H 	H 	0.82653 0.19165 0.11807 0.04700
C 	C 	0.90999 0.21458 0.05534 0.02100
C 	C 	0.91794 0.16524 0.07050 -0.01200
C 	C 	0.85874 0.10140 0.06538 -0.11000
C 	C 	0.79396 0.09103 0.03417 0.10100
C 	C 	0.78582 0.14019 0.01924 -0.09400
C 	C 	0.97262 0.28038 0.06732 -0.14500
C 	C 	0.73140 0.02546 0.02183 -0.19900
H 	H 	0.73435 0.13013 0.00009 0.05200
H 	H 	0.82486 0.28816 0.15314 0.07200
H 	H 	0.79749 0.20591 0.17004 0.06100
H 	H 	0.73276 0.22189 0.13632 0.07000
H 	H 	0.78138 0.25142 0.92723 0.06000
H 	H 	0.87575 0.30799 0.94810 0.06100
H 	H 	0.82272 0.33733 0.91499 0.05900
H 	H 	0.97296 0.28180 0.10317 0.06400
H 	H 	0.97060 0.32033 0.03539 0.06100
H 	H 	0.70872 0.98990 0.05607 0.07700
H 	H 	0.74708 0.00691 0.01000 0.07900
H 	H 	0.68996 0.02920 0.98954 0.05600
C 	C 	0.87484 0.56241 0.09354 -0.07900
C 	C 	0.84299 0.54932 0.12744 -0.00700
C 	C 	0.79805 0.48405 0.15344 0.03700
C 	C 	0.78049 0.43257 0.14132 -0.04600
C 	C 	0.80445 0.44540 0.10198 -0.04900
C 	C 	0.85607 0.51079 0.08066 0.06900
C 	C 	0.85217 0.60377 0.13181 0.00600
C 	C 	0.76338 0.46875 0.19023 -0.17700
H 	H 	0.74296 0.38219 0.15915 0.04200
C 	C 	0.88812 0.52587 0.04207 -0.19200
H 	H 	0.91171 0.61283 0.07533 0.04900
C 	C 	0.91116 0.64336 0.16590 0.02700
C 	C 	0.92697 0.70281 0.16134 -0.01800
C 	C 	0.88626 0.72404 0.12197 -0.11100
C 	C 	0.82177 0.67998 0.09321 0.10000
C 	C 	0.80577 0.62047 0.09764 -0.09500
C 	C 	0.77241 0.69802 0.05510 -0.20700
H 	H 	0.75888 0.58859 0.07288 0.05100
H 	H 	0.93097 0.57900 0.03178 0.06700
H 	H 	0.84731 0.51146 0.00636 0.07200
H 	H 	0.91111 0.49875 0.05837 0.07500
H 	H 	0.72148 0.47623 0.16832 0.06300
H 	H 	0.80241 0.50100 0.21745 0.06300
H 	H 	0.73931 0.41719 0.21340 0.05900
H 	H 	0.78648 0.72442 0.01729 0.07000
H 	H 	0.77476 0.72947 0.06823 0.07700
H 	H 	0.71720 0.65334 0.05038 0.06700
C 	C 	0.31617 0.16172 0.01902 -0.09100
C 	C 	0.38020 0.17990 0.05513 0.00800
C 	C 	0.38415 0.16778 0.10704 0.01900
C 	C 	0.32182 0.12789 0.12334 -0.01100
C 	C 	0.25671 0.10428 0.08777 -0.11600
C 	C 	0.25477 0.12627 0.03475 0.10500
C 	C 	0.44239 0.21027 0.03848 -0.01000
C 	C 	0.45409 0.19556 0.14525 -0.17000
H 	H 	0.32374 0.11319 0.16388 0.03100
C 	C 	0.18730 0.10968 0.99484 -0.22700
H 	H 	0.31385 0.17412 0.97873 0.04300
C 	C 	0.46700 0.17419 0.05045 0.03900
C 	C 	0.53404 0.20766 0.04423 -0.04900
C 	C 	0.57406 0.27563 0.02305 -0.04800
C 	C 	0.54245 0.30828 0.00135 0.07300
C 	C 	0.47821 0.27616 0.01138 -0.07100
C 	C 	0.42330 0.10078 0.07136 -0.17800
H 	H 	0.55658 0.18158 0.05857 0.04300
C 	C 	0.57869 0.37830 0.97004 -0.19700
H 	H 	0.45690 0.30278 0.99909 0.03800
H 	H 	0.16383 0.06583 0.98370 0.07700
H 	H 	0.19765 0.15102 0.96002 0.06600
H 	H 	0.14938 0.10058 0.00899 0.08400
H 	H 	0.49342 0.24747 0.12818 0.06400
H 	H 	0.47339 0.16640 0.15714 0.05900
H 	H 	0.44967 0.19463 0.18012 0.05700
H 	H 	0.44182 0.07872 0.06728 0.06000
H 	H 	0.36742 0.07795 0.05002 0.06400
H 	H 	0.42668 0.08866 0.11269 0.06000
H 	H 	0.53943 0.38747 0.94070 0.06100
H 	H 	0.61153 0.38916 0.94934 0.06800
H 	H 	0.61240 0.41220 0.99561 0.06800
C 	C 	0.99134 0.95245 0.99217 0.28800
O 	O 	0.99075 0.98829 0.13257 -0.57400
O 	O 	0.89203 0.90833 0.27836 -0.39800
O 	O 	0.03052 0.01804 0.63223 -0.59700
O 	O 	0.90473 0.97215 0.75200 -0.39000
C 	C 	0.92876 0.90812 0.86806 -0.04000
C 	C 	0.92924 0.90249 0.91688 0.06600
H 	H 	0.91294 0.81729 0.97836 0.07200
C 	C 	0.95458 0.91702 0.43291 -0.01600
H 	H 	0.88166 0.80779 0.36944 0.07300
C 	C 	0.04659 0.98471 0.49702 0.28800
C 	C 	0.93751 0.89722 0.39065 0.06000
H 	H 	0.99866 0.65693 0.23179 0.06800
O 	O 	0.06082 0.87213 0.60355 -0.42000
H 	H 	0.93012 0.57355 0.22711 0.06500
H 	H 	0.00779 0.79127 0.71623 0.08100
H 	H 	0.93056 0.13206 0.20049 0.02200
H 	H 	0.98475 0.70995 0.74180 0.08400
H 	H 	0.00586 0.75550 0.67975 0.07900
H 	H 	0.01286 0.68446 0.59325 0.04100
H 	H 	0.96876 0.17439 0.09181 0.04000
H 	H 	0.02265 0.28988 0.07259 0.04100
H 	H 	0.99249 0.30506 0.57871 0.08700
H 	H 	0.89225 0.17747 0.21224 0.04900
C 	C 	0.97709 0.21370 0.50239 -0.17800
H 	H 	0.98937 0.63006 0.18424 0.06900
H 	H 	0.97543 0.17893 0.49432 0.07100
H 	H 	0.99762 0.25994 0.47189 0.06600
C 	C 	0.96011 0.62493 0.20445 -0.17700
Co	Co	0.94796 0.92049 0.08634 1.18700
O 	O 	0.92813 0.97767 0.18116 -0.75900
C 	C 	0.95677 0.92873 0.30409 0.30500
O 	O 	0.96416 0.83079 0.07376 -0.40700
O 	O 	0.94862 0.94576 0.00912 -0.37300
Co	Co	0.00189 0.95749 0.58547 1.17300
O 	O 	0.96097 0.02049 0.66223 -0.75400
C 	C 	0.96192 0.97677 0.78336 0.28800
O 	O 	0.01844 0.99701 0.51205 -0.39800
C 	C 	0.97458 0.96908 0.83876 -0.06200
C 	C 	0.97646 0.95883 0.93672 -0.06500
C 	C 	0.98184 0.94071 0.35546 -0.06500
C 	C 	0.01886 0.97608 0.44406 -0.11100
H 	H 	0.01364 0.22432 0.54013 0.05400
H 	H 	0.97356 0.73447 0.18622 0.05100
