data_crystal

_cell_length_a 28.39898
_cell_length_b 28.46329
_cell_length_c 25.08348
_cell_angle_alpha 89.93061
_cell_angle_beta  89.92426
_cell_angle_gamma 90.92023

_symmetry_space_group_name_	'P 1'
_symmetry_space_group_name_H-M	'P 1'

loop_
_symmetry_equiv_pos_as_xyz
  x,y,z

loop_
_atom_site_label
_atom_site_type_symbol
_atom_site_fract_x
_atom_site_fract_y
_atom_site_fract_z
_atom_site_charge
Zn	Zn	0.49728 0.48184 0.01222 1.22100
C 	C 	0.55415 0.55610 0.97209 0.29200
O 	O 	0.54468 0.44967 0.05576 -0.46400
O 	O 	0.53603 0.57897 0.01265 -0.43100
O 	O 	0.58714 0.51350 0.08151 -0.49600
C 	C 	0.43610 0.55257 0.05111 0.32100
O 	O 	0.45193 0.53179 0.00841 -0.44600
O 	O 	0.46187 0.55326 0.09447 -0.50100
C 	C 	0.58571 0.46979 0.06493 0.31200
O 	O 	0.43719 0.43810 0.05354 -0.33900
Zn	Zn	0.53041 0.55068 0.08822 1.16600
O 	O 	0.54195 0.51198 0.96305 -0.44000
C 	C 	0.43600 0.41380 0.00997 0.29400
O 	O 	0.46647 0.42638 0.97381 -0.40500
Zn	Zn	0.33338 0.13970 0.03349 1.22800
C 	C 	0.35341 0.13086 0.14422 0.29200
O 	O 	0.28532 0.09369 0.05739 -0.44900
O 	O 	0.31129 0.14304 0.15982 -0.44200
O 	O 	0.23370 0.15086 0.08011 -0.50700
C 	C 	0.34018 0.23937 0.04511 0.32300
O 	O 	0.33343 0.20502 0.01100 -0.46100
O 	O 	0.32916 0.23365 0.09563 -0.48800
C 	C 	0.24281 0.10640 0.07160 0.32700
O 	O 	0.32249 0.11974 0.94179 -0.32700
Zn	Zn	0.27628 0.19357 0.11689 1.17300
O 	O 	0.36972 0.14736 0.09906 -0.44200
C 	C 	0.36281 0.09918 0.94717 0.25700
O 	O 	0.38098 0.10175 0.99425 -0.41200
C 	C 	0.48222 0.93704 0.31588 0.13100
C 	C 	0.44909 0.96742 0.29454 -0.10000
H 	H 	0.42770 0.98728 0.32173 0.06200
C 	C 	0.44593 0.97406 0.23907 0.03200
C 	C 	0.47134 0.94397 0.20522 -0.07500
C 	C 	0.50374 0.91150 0.22642 0.02600
C 	C 	0.50888 0.90868 0.28226 -0.09500
H 	H 	0.53477 0.88578 0.29962 0.06100
N 	N 	0.49337 0.94010 0.37160 -0.17800
C 	C 	0.46775 0.91385 0.40760 0.18700
C 	C 	0.46881 0.92543 0.46219 -0.05800
C 	C 	0.49715 0.96343 0.47924 0.02200
C 	C 	0.52570 0.98776 0.44231 -0.05000
C 	C 	0.52450 0.97432 0.38841 0.18500
C 	C 	0.44087 0.90067 0.49956 -0.01700
C 	C 	0.44084 0.91414 0.55322 -0.01100
C 	C 	0.46870 0.95262 0.57033 -0.06800
C 	C 	0.49661 0.97742 0.53316 0.04400
C 	C 	0.52397 0.01623 0.54983 -0.07600
C 	C 	0.55362 0.02616 0.45940 -0.02900
C 	C 	0.55248 0.04051 0.51264 -0.00700
C 	C 	0.46998 0.96615 0.62433 0.19600
N 	N 	0.49851 0.00287 0.64030 -0.18100
C 	C 	0.52328 0.02941 0.60382 0.19200
C 	C 	0.50740 0.00992 0.69608 0.11500
C 	C 	0.47638 0.03640 0.72728 -0.08800
C 	C 	0.48905 0.04853 0.77988 0.01800
C 	C 	0.53504 0.03842 0.79668 -0.06300
C 	C 	0.55947 0.00155 0.77245 0.00500
C 	C 	0.54789 0.99100 0.71922 -0.07400
O 	O 	0.55175 0.99624 0.35343 -0.20400
O 	O 	0.44069 0.87887 0.39076 -0.20800
O 	O 	0.44485 0.94256 0.65990 -0.20800
O 	O 	0.54771 0.06658 0.61977 -0.20800
H 	H 	0.56906 0.96726 0.69616 0.05600
H 	H 	0.44371 0.04813 0.71011 0.06000
H 	H 	0.57584 0.04531 0.43145 0.04700
H 	H 	0.57404 0.07032 0.52489 0.04300
H 	H 	0.41897 0.87114 0.48720 0.04700
H 	H 	0.41911 0.89460 0.58131 0.04600
H 	H 	0.54917 0.05523 0.83181 0.03600
H 	H 	0.46691 0.94726 0.16279 0.04100
Zn	Zn	0.65478 0.80596 0.98754 1.21700
C 	C 	0.62522 0.80007 0.09586 0.28700
O 	O 	0.69901 0.84823 0.02472 -0.44800
O 	O 	0.66633 0.78715 0.11396 -0.44200
O 	O 	0.75330 0.79262 0.04498 -0.49400
C 	C 	0.65622 0.70609 0.97959 0.28100
O 	O 	0.65896 0.74538 0.95235 -0.45900
O 	O 	0.65943 0.70696 0.03187 -0.46800
C 	C 	0.74285 0.83627 0.03329 0.31600
O 	O 	0.67573 0.84178 0.90479 -0.32700
Zn	Zn	0.70779 0.74483 0.06703 1.17600
O 	O 	0.61314 0.78884 0.04705 -0.43700
C 	C 	0.63367 0.85896 0.90736 0.25900
O 	O 	0.60985 0.84789 0.94952 -0.40600
Zn	Zn	0.19374 0.70844 0.98914 1.21600
C 	C 	0.16867 0.71583 0.09888 0.29000
O 	O 	0.19836 0.77032 0.95533 -0.46600
O 	O 	0.20990 0.73143 0.11506 -0.44100
O 	O 	0.20045 0.81065 0.03348 -0.46300
C 	C 	0.28038 0.67836 0.03532 0.31900
O 	O 	0.23657 0.66601 0.02505 -0.45100
O 	O 	0.29274 0.72300 0.03847 -0.50100
C 	C 	0.18797 0.80788 0.98302 0.28800
O 	O 	0.21260 0.67013 0.90781 -0.32400
Zn	Zn	0.25060 0.77185 0.06310 1.17100
O 	O 	0.15504 0.72552 0.05029 -0.44300
C 	C 	0.16820 0.65821 0.90725 0.25600
O 	O 	0.14406 0.67270 0.94757 -0.40100
C 	C 	0.06503 0.48491 0.68610 0.13300
C 	C 	0.09522 0.51267 0.71752 -0.09700
H 	H 	0.12165 0.53421 0.69786 0.06200
C 	C 	0.08973 0.51384 0.77338 0.02900
C 	C 	0.05665 0.48278 0.79719 -0.07600
C 	C 	0.02432 0.45667 0.76589 0.04300
C 	C 	0.03047 0.45629 0.71012 -0.09900
H 	H 	0.00777 0.43522 0.68488 0.06800
N 	N 	0.06492 0.49110 0.62921 -0.17900
C 	C 	0.09358 0.46419 0.59793 0.18900
C 	C 	0.09367 0.46989 0.54209 -0.06100
C 	C 	0.06406 0.50329 0.51894 0.03100
C 	C 	0.03506 0.53065 0.55154 -0.06600
C 	C 	0.03606 0.52407 0.60710 0.19200
C 	C 	0.12278 0.44269 0.50919 -0.01400
C 	C 	0.12211 0.44868 0.45378 -0.01400
C 	C 	0.09228 0.48193 0.43037 -0.06200
C 	C 	0.06331 0.50927 0.46307 0.03200
C 	C 	0.03343 0.54244 0.43998 -0.06700
C 	C 	0.00544 0.56407 0.52819 0.00300
C 	C 	0.00462 0.56991 0.47288 0.00300
C 	C 	0.09066 0.48814 0.37463 0.18900
N 	N 	0.06073 0.52021 0.35266 -0.17900
C 	C 	0.03255 0.54740 0.38421 0.19300
C 	C 	0.05767 0.52472 0.29568 0.13300
C 	C 	0.07921 0.56347 0.27010 -0.09700
C 	C 	0.06441 0.57701 0.21884 0.03100
C 	C 	0.02723 0.55126 0.19507 -0.08100
C 	C 	0.01349 0.50691 0.21498 0.05200
C 	C 	0.02745 0.49458 0.26686 -0.10400
O 	O 	0.00914 0.54968 0.63813 -0.20200
O 	O 	0.12104 0.43286 0.62022 -0.20500
O 	O 	0.11785 0.46298 0.34347 -0.20900
O 	O 	0.00410 0.57794 0.36206 -0.20200
H 	H 	0.01317 0.46349 0.28612 0.06800
H 	H 	0.10616 0.58352 0.29083 0.06100
H 	H 	0.98293 0.58554 0.55273 0.02900
H 	H 	0.98149 0.59577 0.45576 0.02800
H 	H 	0.14592 0.41685 0.52633 0.04700
H 	H 	0.14473 0.42734 0.42924 0.04600
H 	H 	0.00981 0.56459 0.16029 0.04700
H 	H 	0.05276 0.48271 0.83997 0.04300
Zn	Zn	0.85791 0.36827 0.98688 1.21600
C 	C 	0.86088 0.38445 0.87476 0.29600
O 	O 	0.79578 0.38300 0.01701 -0.42800
O 	O 	0.83938 0.34493 0.86223 -0.44400
O 	O 	0.76079 0.38058 0.93516 -0.47900
C 	C 	0.86676 0.27199 0.95156 0.31800
O 	O 	0.88970 0.31190 0.95999 -0.45700
O 	O 	0.82058 0.27152 0.94901 -0.51800
C 	C 	0.75988 0.39252 0.98585 0.26800
O 	O 	0.88896 0.35384 0.07419 -0.31600
Zn	Zn	0.78625 0.32036 0.91278 1.16900
O 	O 	0.85173 0.40364 0.92074 -0.45200
C 	C 	0.91250 0.39272 0.06533 0.25000
O 	O 	0.90424 0.41265 0.02016 -0.38900
Zn	Zn	0.98417 0.00986 0.98927 1.21200
C 	C 	0.03090 0.92459 0.96372 0.30800
O 	O 	0.92872 0.96878 0.98492 -0.46300
O 	O 	0.00150 0.90686 0.99917 -0.44800
O 	O 	0.93195 0.95106 0.07305 -0.50800
C 	C 	0.06600 0.00945 0.05503 0.31500
O 	O 	0.02928 0.03386 0.04107 -0.45600
O 	O 	0.06042 0.96596 0.07148 -0.48000
C 	C 	0.90855 0.95203 0.02801 0.34200
O 	O 	0.93607 0.07209 0.01604 -0.31200
Zn	Zn	0.99869 0.93566 0.07437 1.16700
O 	O 	0.02810 0.96929 0.95057 -0.42200
C 	C 	0.94219 0.08789 0.96804 0.25300
O 	O 	0.96851 0.06266 0.93739 -0.39000
C 	C 	0.92810 0.13559 0.95328 -0.06200
C 	C 	0.88553 0.14300 0.92604 0.00700
C 	C 	0.86831 0.18870 0.92104 -0.01300
H 	H 	0.83508 0.19409 0.90086 0.02500
C 	C 	0.89230 0.22707 0.94454 -0.09400
C 	C 	0.93742 0.21993 0.96695 0.02800
C 	C 	0.95415 0.17410 0.97265 -0.03400
H 	H 	0.98743 0.16840 0.99263 0.03200
C 	C 	0.96923 0.25972 0.97985 0.00400
C 	C 	0.99537 0.28186 0.93920 -0.05900
C 	C 	0.02841 0.31703 0.95176 -0.02400
C 	C 	0.03631 0.32939 0.00493 -0.02300
C 	C 	0.01083 0.30692 0.04562 -0.00600
C 	C 	0.97704 0.27242 0.03317 -0.04200
C 	C 	0.85702 0.10280 0.90608 0.01600
C 	C 	0.81414 0.09072 0.93086 -0.05700
C 	C 	0.78851 0.05111 0.91394 -0.02000
C 	C 	0.80543 0.02357 0.87220 -0.05100
C 	C 	0.84778 0.03587 0.84689 -0.01600
C 	C 	0.87345 0.07555 0.86352 -0.05000
H 	H 	0.75578 0.04148 0.93357 0.02300
H 	H 	0.78573 0.99272 0.85945 0.04200
H 	H 	0.86077 0.01458 0.81449 0.02800
H 	H 	0.90633 0.08476 0.84389 0.04700
H 	H 	0.80123 0.11141 0.96385 0.03500
H 	H 	0.99038 0.27147 0.89803 0.03900
H 	H 	0.04828 0.33432 0.92032 0.02900
H 	H 	0.95751 0.25506 0.06488 0.04600
H 	H 	0.01761 0.31591 0.08682 0.03000
H 	H 	0.06239 0.35616 0.01464 0.03200
C 	C 	0.90100 0.38905 0.78335 -0.04200
C 	C 	0.90314 0.40216 0.84328 -0.05500
C 	C 	0.99292 0.40022 0.83729 -0.12700
C 	C 	0.97951 0.43555 0.79241 0.02500
C 	C 	0.94531 0.40864 0.75362 -0.08700
H 	H 	0.89907 0.35019 0.77863 0.03900
H 	H 	0.86864 0.40355 0.76506 0.03400
H 	H 	0.01659 0.41691 0.86720 0.06000
H 	H 	0.01246 0.37038 0.81973 0.06500
H 	H 	0.96393 0.37893 0.73452 0.03900
H 	H 	0.93340 0.43262 0.72144 0.04200
C 	C 	0.95076 0.47591 0.81785 -0.08600
H 	H 	0.93976 0.50099 0.78631 0.04400
H 	H 	0.97254 0.49630 0.84675 0.03500
C 	C 	0.90675 0.45662 0.84734 -0.04400
H 	H 	0.90877 0.46772 0.88985 0.04400
H 	H 	0.87462 0.47264 0.83019 0.03800
C 	C 	0.94862 0.38115 0.86683 -0.03600
H 	H 	0.95142 0.38973 0.91004 0.02800
H 	H 	0.94707 0.34220 0.86347 0.03800
C 	C 	0.97616 0.42232 0.20115 -0.09600
C 	C 	0.98578 0.47288 0.17843 -0.00500
C 	C 	0.98720 0.43561 0.08545 -0.09900
C 	C 	0.93892 0.41929 0.10835 -0.02000
C 	C 	0.94829 0.39115 0.16025 -0.05400
H 	H 	0.01005 0.40524 0.21092 0.05800
H 	H 	0.95523 0.42435 0.23857 0.04100
H 	H 	0.98241 0.45567 0.04774 0.05300
H 	H 	0.00883 0.40466 0.07559 0.05900
H 	H 	0.96867 0.35913 0.15103 0.03500
H 	H 	0.91429 0.37929 0.17825 0.04500
C 	C 	0.91054 0.46337 0.12339 -0.06200
H 	H 	0.87533 0.45273 0.13931 0.04400
H 	H 	0.90478 0.48494 0.08708 0.05000
C 	C 	0.93689 0.49379 0.16500 -0.07200
H 	H 	0.94022 0.53006 0.14896 0.03300
H 	H 	0.91532 0.49605 0.20196 0.03900
C 	C 	0.01412 0.46678 0.12562 -0.03800
H 	H 	0.02154 0.50116 0.10606 0.03700
H 	H 	0.04885 0.45095 0.13449 0.03600
C 	C 	0.07399 0.89859 0.95129 -0.09000
C 	C 	0.07095 0.85110 0.93542 0.03000
C 	C 	0.11013 0.82213 0.94146 -0.02400
H 	H 	0.10687 0.78492 0.93264 0.04100
C 	C 	0.15252 0.84043 0.96218 -0.07900
C 	C 	0.15742 0.88929 0.97035 0.02200
C 	C 	0.11772 0.91774 0.96662 -0.02100
H 	H 	0.12022 0.95401 0.97899 0.04200
C 	C 	0.20435 0.91140 0.97909 -0.00800
C 	C 	0.23892 0.90920 0.93910 -0.05200
C 	C 	0.28161 0.93385 0.94498 -0.02300
C 	C 	0.28999 0.96079 0.99064 -0.06300
C 	C 	0.25591 0.96279 0.03077 -0.00600
C 	C 	0.21313 0.93818 0.02516 -0.03500
C 	C 	0.02634 0.83119 0.91424 -0.00500
C 	C 	0.00133 0.79663 0.94315 -0.01000
C 	C 	0.95797 0.77961 0.92434 -0.06000
C 	C 	0.93943 0.79700 0.87676 -0.01600
C 	C 	0.96424 0.83133 0.84781 -0.05700
C 	C 	0.00768 0.84834 0.86633 -0.00600
H 	H 	0.93871 0.75302 0.94670 0.03100
H 	H 	0.90591 0.78380 0.86222 0.03200
H 	H 	0.94979 0.84480 0.81104 0.03900
H 	H 	0.02662 0.87510 0.84380 0.04100
H 	H 	0.01521 0.78343 0.98039 0.02800
H 	H 	0.23235 0.88914 0.90311 0.04400
H 	H 	0.30802 0.93242 0.91390 0.02800
H 	H 	0.18667 0.94037 0.05615 0.04300
H 	H 	0.26254 0.98370 0.06601 0.03700
H 	H 	0.32286 0.98020 0.99489 0.03800
C 	C 	0.14089 0.53197 0.85510 -0.08600
C 	C 	0.11283 0.55317 0.80753 0.03200
C 	C 	0.09442 0.62383 0.86679 -0.05000
C 	C 	0.14889 0.62044 0.87048 -0.03600
C 	C 	0.16124 0.57106 0.89194 -0.05000
H 	H 	0.11827 0.50828 0.87969 0.04000
H 	H 	0.17015 0.51035 0.83948 0.04400
H 	H 	0.08458 0.65886 0.85086 0.04300
H 	H 	0.07835 0.62045 0.90716 0.04600
H 	H 	0.14686 0.56639 0.93296 0.03500
H 	H 	0.20016 0.56755 0.89471 0.04000
C 	C 	0.16917 0.62504 0.81329 -0.05000
H 	H 	0.20817 0.62188 0.81409 0.04500
H 	H 	0.16130 0.66036 0.79672 0.04200
C 	C 	0.14786 0.58632 0.77646 -0.08600
H 	H 	0.12934 0.60386 0.74301 0.04800
H 	H 	0.17699 0.56548 0.75923 0.04500
C 	C 	0.07357 0.58488 0.83059 -0.08600
H 	H 	0.05362 0.60120 0.79739 0.05200
H 	H 	0.04775 0.56378 0.85432 0.04400
C 	C 	0.06828 0.62667 0.13240 -0.08600
C 	C 	0.09199 0.61521 0.18701 0.03200
C 	C 	0.17102 0.63548 0.14193 -0.04900
C 	C 	0.14113 0.67982 0.13156 -0.05000
C 	C 	0.09617 0.66419 0.10093 -0.04600
H 	H 	0.06602 0.59450 0.10724 0.04400
H 	H 	0.03193 0.63957 0.13903 0.04400
H 	H 	0.20372 0.64531 0.16393 0.04300
H 	H 	0.18207 0.61981 0.10335 0.04300
H 	H 	0.10577 0.64955 0.06127 0.04500
H 	H 	0.07331 0.69497 0.09357 0.04600
C 	C 	0.12545 0.69987 0.18617 -0.04400
H 	H 	0.10380 0.73166 0.17999 0.03300
H 	H 	0.15691 0.71096 0.20970 0.03800
C 	C 	0.09639 0.66248 0.21826 -0.08800
H 	H 	0.11388 0.65715 0.25733 0.04600
H 	H 	0.06066 0.67615 0.22672 0.04800
C 	C 	0.14268 0.59822 0.17463 -0.08600
H 	H 	0.16183 0.59098 0.21235 0.04600
H 	H 	0.14089 0.56465 0.15194 0.04600
C 	C 	0.78114 0.87075 0.02489 -0.06700
C 	C 	0.81763 0.86137 0.98836 0.00600
C 	C 	0.85860 0.88925 0.98851 -0.03500
H 	H 	0.88743 0.88085 0.96191 0.04600
C 	C 	0.86306 0.92716 0.02378 -0.07400
C 	C 	0.82466 0.93956 0.05637 0.02200
C 	C 	0.78401 0.91086 0.05717 -0.02000
H 	H 	0.75510 0.91920 0.08365 0.04100
C 	C 	0.82599 0.98349 0.08780 0.02000
C 	C 	0.82411 0.98179 0.14369 -0.04200
C 	C 	0.82612 0.02342 0.17325 -0.03100
C 	C 	0.83004 0.06678 0.14719 -0.03800
C 	C 	0.83186 0.06862 0.09152 -0.01500
C 	C 	0.82969 0.02712 0.06183 -0.05100
C 	C 	0.81245 0.82337 0.94868 0.01200
C 	C 	0.78714 0.83107 0.90157 -0.05200
C 	C 	0.78023 0.79442 0.86521 -0.01800
C 	C 	0.79903 0.75021 0.87542 -0.04300
C 	C 	0.82510 0.74268 0.92180 -0.03100
C 	C 	0.83189 0.77917 0.95843 -0.05300
H 	H 	0.76023 0.80026 0.82917 0.03600
H 	H 	0.79366 0.72188 0.84722 0.03500
H 	H 	0.84045 0.70874 0.92907 0.02200
H 	H 	0.85186 0.77304 0.99447 0.03000
H 	H 	0.77254 0.86527 0.89342 0.05000
H 	H 	0.82142 0.94831 0.16414 0.03500
H 	H 	0.82477 0.02206 0.21635 0.02800
H 	H 	0.83163 0.02874 0.01879 0.05800
H 	H 	0.83516 0.10218 0.07139 0.04100
H 	H 	0.83175 0.09893 0.17014 0.03500
C 	C 	0.62035 0.94490 0.89826 -0.05200
C 	C 	0.61686 0.89668 0.87011 -0.03800
C 	C 	0.54476 0.92465 0.81889 -0.08900
C 	C 	0.58225 0.96377 0.80777 0.04100
C 	C 	0.59903 0.98359 0.86292 -0.07900
H 	H 	0.60140 0.94354 0.93717 0.04000
H 	H 	0.65784 0.95391 0.90709 0.03900
H 	H 	0.53302 0.90823 0.78080 0.05100
H 	H 	0.51306 0.94001 0.83778 0.04600
H 	H 	0.56896 0.99815 0.88556 0.03900
H 	H 	0.62541 0.01243 0.85678 0.03400
C 	C 	0.62578 0.94002 0.78136 -0.08900
H 	H 	0.65377 0.96695 0.77350 0.04700
H 	H 	0.61631 0.92382 0.74255 0.04600
C 	C 	0.64556 0.90043 0.81754 -0.04800
H 	H 	0.64396 0.86627 0.79601 0.04100
H 	H 	0.68330 0.90814 0.82640 0.04400
C 	C 	0.56450 0.88628 0.85573 -0.04900
H 	H 	0.56125 0.85150 0.83567 0.03900
H 	H 	0.54258 0.88439 0.89255 0.04400
C 	C 	0.52961 0.82844 0.20240 -0.08700
C 	C 	0.53578 0.88192 0.18981 0.03200
C 	C 	0.62153 0.86565 0.16391 -0.04600
C 	C 	0.59288 0.82966 0.12991 -0.04700
C 	C 	0.56316 0.79824 0.16806 -0.04500
H 	H 	0.53687 0.82116 0.24511 0.04400
H 	H 	0.49248 0.81725 0.19486 0.04200
H 	H 	0.64289 0.88907 0.13738 0.04200
H 	H 	0.64658 0.84697 0.19029 0.04200
H 	H 	0.58682 0.77803 0.19463 0.03200
H 	H 	0.54207 0.77218 0.14472 0.03400
C 	C 	0.55839 0.85770 0.09449 -0.04900
H 	H 	0.53633 0.83319 0.07014 0.04900
H 	H 	0.57855 0.88052 0.06616 0.04300
C 	C 	0.52577 0.88832 0.12899 -0.08500
H 	H 	0.53156 0.92569 0.11724 0.04400
H 	H 	0.48850 0.87855 0.12006 0.04000
C 	C 	0.58848 0.89580 0.19878 -0.08700
H 	H 	0.59417 0.93364 0.18911 0.04900
H 	H 	0.59843 0.89114 0.24128 0.04700
C 	C 	0.20321 0.07347 0.06485 -0.09100
C 	C 	0.18375 0.04930 0.10909 0.01700
C 	C 	0.13902 0.02819 0.10496 -0.01500
H 	H 	0.12411 0.00954 0.13891 0.03200
C 	C 	0.11281 0.03223 0.05793 -0.08800
C 	C 	0.13296 0.05548 0.01322 0.03800
C 	C 	0.17879 0.07396 0.01653 0.00600
H 	H 	0.19401 0.09224 0.98248 0.02300
C 	C 	0.10561 0.06403 0.96416 -0.01300
C 	C 	0.11578 0.03879 0.91755 -0.03700
C 	C 	0.09482 0.05108 0.86922 -0.02200
C 	C 	0.06584 0.09021 0.86647 -0.02900
C 	C 	0.05759 0.11696 0.91209 -0.01800
C 	C 	0.07666 0.10349 0.96107 -0.04100
C 	C 	0.20961 0.04598 0.16002 0.01600
C 	C 	0.22640 0.00238 0.17728 -0.07400
C 	C 	0.24708 0.99822 0.22758 -0.00100
C 	C 	0.25031 0.03723 0.26121 -0.05600
C 	C 	0.23310 0.08057 0.24451 -0.01700
C 	C 	0.21263 0.08499 0.19412 -0.05300
H 	H 	0.26048 0.96471 0.24055 0.02200
H 	H 	0.26647 0.03398 0.30007 0.03600
H 	H 	0.23567 0.11076 0.27059 0.02200
H 	H 	0.19852 0.11845 0.18191 0.02400
H 	H 	0.22281 0.97167 0.15209 0.04300
H 	H 	0.14149 0.01114 0.91825 0.03900
H 	H 	0.10216 0.03110 0.83357 0.03700
H 	H 	0.07020 0.12449 0.99624 0.04300
H 	H 	0.03636 0.14809 0.90950 0.04200
H 	H 	0.05033 0.10021 0.82881 0.04100
C 	C 	0.36611 0.08082 0.84667 -0.04900
C 	C 	0.39321 0.08626 0.90009 -0.03800
C 	C 	0.45097 0.02526 0.86704 -0.09400
C 	C 	0.45225 0.06295 0.82183 0.03600
C 	C 	0.40059 0.06730 0.80083 -0.08800
H 	H 	0.33803 0.05330 0.85071 0.04100
H 	H 	0.34852 0.11429 0.83641 0.04700
H 	H 	0.48643 0.02074 0.88478 0.03900
H 	H 	0.43994 0.99060 0.85030 0.05100
H 	H 	0.38853 0.03338 0.78307 0.04700
H 	H 	0.39914 0.09456 0.76908 0.04600
C 	C 	0.46618 0.11128 0.84670 -0.08700
H 	H 	0.46586 0.13896 0.81533 0.04500
H 	H 	0.50244 0.11087 0.86319 0.03900
C 	C 	0.43210 0.12461 0.89220 -0.04900
H 	H 	0.45257 0.12938 0.92962 0.03700
H 	H 	0.41575 0.15896 0.88298 0.03900
C 	C 	0.41701 0.03883 0.91224 -0.04700
H 	H 	0.43706 0.04103 0.95032 0.03900
H 	H 	0.38974 0.01062 0.91735 0.03100
C 	C 	0.38103 0.00034 0.17556 -0.09800
C 	C 	0.42010 0.01669 0.21530 0.02900
C 	C 	0.43136 0.09114 0.15870 -0.04700
C 	C 	0.37767 0.09000 0.17056 -0.04800
C 	C 	0.35686 0.04296 0.14920 -0.04800
H 	H 	0.39584 0.97805 0.14354 0.04700
H 	H 	0.35419 0.97849 0.19695 0.04900
H 	H 	0.44733 0.12427 0.17438 0.04200
H 	H 	0.43772 0.09043 0.11490 0.04900
H 	H 	0.36152 0.04114 0.10517 0.03900
H 	H 	0.31840 0.04109 0.15710 0.04700
C 	C 	0.37143 0.09102 0.23184 -0.04600
H 	H 	0.33349 0.09043 0.24247 0.04500
H 	H 	0.38674 0.12423 0.24823 0.03500
C 	C 	0.39571 0.04840 0.25786 -0.08600
H 	H 	0.42218 0.06187 0.28700 0.04500
H 	H 	0.36867 0.02753 0.28020 0.04100
C 	C 	0.45595 0.04871 0.18456 -0.08600
H 	H 	0.48383 0.06159 0.21234 0.04700
H 	H 	0.47394 0.02869 0.15264 0.04200
C 	C 	0.41352 0.36731 0.00940 -0.03500
C 	C 	0.36566 0.36190 0.99534 -0.03300
C 	C 	0.34240 0.31880 0.00471 0.04500
H 	H 	0.30525 0.31487 0.99541 -0.00100
C 	C 	0.36641 0.28152 0.02839 -0.11200
C 	C 	0.41465 0.28651 0.04029 0.05100
C 	C 	0.43721 0.32999 0.03292 -0.04000
H 	H 	0.47251 0.33561 0.04810 0.05300
C 	C 	0.44194 0.24633 0.06014 -0.00200
C 	C 	0.46062 0.24717 0.11192 -0.03400
C 	C 	0.49026 0.21137 0.12885 -0.02900
C 	C 	0.50116 0.17456 0.09434 -0.03000
C 	C 	0.48172 0.17298 0.04321 -0.03200
C 	C 	0.45227 0.20882 0.02597 -0.01500
C 	C 	0.33871 0.40241 0.97556 -0.01200
C 	C 	0.34841 0.42150 0.92501 -0.03300
C 	C 	0.32537 0.46194 0.90807 -0.03900
C 	C 	0.29241 0.48325 0.94128 -0.00900
C 	C 	0.28238 0.46415 0.99147 -0.09000
C 	C 	0.30534 0.42374 0.00861 0.01300
H 	H 	0.33319 0.47687 0.86928 0.03700
H 	H 	0.27460 0.51452 0.92810 0.02500
H 	H 	0.25711 0.48088 0.01728 0.06000
H 	H 	0.29799 0.40961 0.04793 0.02600
H 	H 	0.37423 0.40542 0.89928 0.04300
H 	H 	0.45277 0.27588 0.13864 0.03900
H 	H 	0.50488 0.21222 0.16866 0.03100
H 	H 	0.43815 0.20792 0.98587 0.02100
H 	H 	0.48979 0.14416 0.01684 0.04000
H 	H 	0.52415 0.14691 0.10751 0.03100
C 	C 	0.31692 0.64243 0.03694 -0.06800
C 	C 	0.34873 0.63763 0.99418 0.00900
C 	C 	0.38803 0.60905 0.99997 -0.03900
H 	H 	0.41334 0.60676 0.96769 0.05100
C 	C 	0.39444 0.58274 0.04671 -0.06400
C 	C 	0.36001 0.58396 0.08740 0.01800
C 	C 	0.32208 0.61481 0.08283 -0.02100
H 	H 	0.29646 0.61704 0.11481 0.03400
C 	C 	0.36145 0.55083 0.13274 0.01800
C 	C 	0.35415 0.50252 0.12418 -0.04600
C 	C 	0.35599 0.47113 0.16698 -0.01800
C 	C 	0.36474 0.48782 0.21849 -0.04100
C 	C 	0.37170 0.53595 0.22726 -0.02400
C 	C 	0.37004 0.56747 0.18451 -0.05000
C 	C 	0.33892 0.65895 0.94170 0.01300
C 	C 	0.34831 0.70690 0.93283 -0.05400
C 	C 	0.33878 0.72686 0.88310 -0.02400
C 	C 	0.32105 0.69885 0.84174 -0.03600
C 	C 	0.31269 0.65086 0.85008 -0.01600
C 	C 	0.32137 0.63092 0.89999 -0.04500
H 	H 	0.34564 0.76392 0.87644 0.02700
H 	H 	0.31401 0.71429 0.80318 0.03800
H 	H 	0.29937 0.62915 0.81790 0.03100
H 	H 	0.31457 0.59377 0.90626 0.04200
H 	H 	0.36331 0.72851 0.96421 0.03500
H 	H 	0.34762 0.48937 0.08436 0.05400
H 	H 	0.35071 0.43386 0.16022 0.03400
H 	H 	0.37567 0.60469 0.19153 0.03600
H 	H 	0.37845 0.54880 0.26716 0.02800
H 	H 	0.36614 0.46346 0.25160 0.03400
C 	C 	0.63067 0.44626 0.04972 -0.07400
C 	C 	0.63152 0.40249 0.02217 0.00300
C 	C 	0.67437 0.38529 0.00313 0.00800
H 	H 	0.67490 0.35170 0.98271 -0.00500
C 	C 	0.71619 0.41117 0.00890 -0.06900
C 	C 	0.71573 0.45477 0.03542 0.02000
C 	C 	0.67363 0.47073 0.05802 -0.02000
H 	H 	0.67400 0.50358 0.07979 0.04300
C 	C 	0.75809 0.48568 0.03621 0.03700
C 	C 	0.77672 0.50376 0.98834 -0.06200
C 	C 	0.81700 0.53261 0.98916 -0.03600
C 	C 	0.83788 0.54480 0.03772 -0.01400
C 	C 	0.81831 0.52845 0.08558 -0.02500
C 	C 	0.77895 0.49836 0.08490 -0.04800
C 	C 	0.58870 0.37401 0.01181 0.06200
C 	C 	0.56464 0.38033 0.96350 -0.09400
C 	C 	0.53684 0.34388 0.94239 0.01000
C 	C 	0.53324 0.30086 0.96907 -0.08400
C 	C 	0.55528 0.29509 0.01836 0.01600
C 	C 	0.58174 0.33203 0.04050 -0.07400
H 	H 	0.51895 0.34865 0.90474 0.02900
H 	H 	0.51256 0.27234 0.95210 0.04200
H 	H 	0.55210 0.26194 0.03929 0.02600
H 	H 	0.60007 0.32664 0.07781 0.04800
H 	H 	0.56973 0.41246 0.94085 0.05300
H 	H 	0.76011 0.49528 0.95063 0.05000
H 	H 	0.83168 0.54598 0.95220 0.03200
H 	H 	0.76448 0.48519 0.12211 0.04000
H 	H 	0.83383 0.53891 0.12321 0.02700
H 	H 	0.86876 0.56758 0.03834 0.02900
C 	C 	0.64379 0.66174 0.95237 -0.06700
C 	C 	0.66264 0.61882 0.97018 -0.01800
C 	C 	0.63715 0.57695 0.96107 -0.01100
H 	H 	0.64920 0.54441 0.97847 0.03200
C 	C 	0.59126 0.57921 0.94085 -0.08500
C 	C 	0.57910 0.61899 0.91072 0.02600
C 	C 	0.60574 0.66064 0.91676 -0.02500
H 	H 	0.59395 0.69291 0.89845 0.04400
C 	C 	0.53428 0.61937 0.88061 0.01200
C 	C 	0.49943 0.65208 0.89322 -0.04400
C 	C 	0.45648 0.65113 0.86608 -0.02400
C 	C 	0.44758 0.61698 0.82726 -0.03500
C 	C 	0.48195 0.58409 0.81488 -0.02200
C 	C 	0.52529 0.58529 0.84131 -0.04300
C 	C 	0.70462 0.61857 0.00511 0.07000
C 	C 	0.69967 0.60610 0.05906 -0.08200
C 	C 	0.73614 0.61572 0.09498 -0.02100
C 	C 	0.77769 0.63763 0.07730 -0.09000
C 	C 	0.78354 0.64845 0.02332 0.00300
C 	C 	0.74734 0.63854 0.98710 -0.13100
H 	H 	0.73198 0.60665 0.13665 0.01400
H 	H 	0.80576 0.64532 0.10525 0.03000
H 	H 	0.81615 0.66447 0.00959 0.01800
H 	H 	0.75166 0.64820 0.94557 0.05400
H 	H 	0.66671 0.59128 0.07358 0.04200
H 	H 	0.50546 0.67785 0.92432 0.04000
H 	H 	0.43009 0.67683 0.87521 0.03500
H 	H 	0.55170 0.55963 0.83157 0.04500
H 	H 	0.47500 0.55764 0.78481 0.03200
H 	H 	0.41409 0.61603 0.80671 0.03600
