data_crystal

_cell_length_a 26.91924
_cell_length_b 28.01212
_cell_length_c 48.84033
_cell_angle_alpha 60.75116
_cell_angle_beta  118.96140
_cell_angle_gamma 133.29090

_symmetry_space_group_name_	'P 1'
_symmetry_space_group_name_H-M	'P 1'

loop_
_symmetry_equiv_pos_as_xyz
  x,y,z

loop_
_atom_site_label
_atom_site_type_symbol
_atom_site_fract_x
_atom_site_fract_y
_atom_site_fract_z
_atom_site_charge
C 	C 	0.73612 0.33080 0.98578 0.10800
N 	N 	0.78095 0.39521 0.98939 -0.13700
C 	C 	0.75630 0.42219 0.99151 0.11100
N 	N 	0.68729 0.38480 0.99011 -0.13600
C 	C 	0.64352 0.31933 0.98891 0.11000
N 	N 	0.66767 0.29261 0.98626 -0.13900
C 	C 	0.68316 0.32454 0.48753 0.10700
N 	N 	0.73111 0.39193 0.48632 -0.13900
C 	C 	0.71362 0.42576 0.48797 0.11000
N 	N 	0.64778 0.39249 0.49000 -0.13600
C 	C 	0.60102 0.32494 0.49291 0.11000
N 	N 	0.61861 0.29095 0.49159 -0.13900
C 	C 	0.34008 0.62111 0.21856 0.11000
N 	N 	0.40616 0.66261 0.21419 -0.13700
C 	C 	0.43217 0.63727 0.21187 0.11100
N 	N 	0.39251 0.57013 0.21461 -0.13600
C 	C 	0.32528 0.52902 0.21712 0.11100
N 	N 	0.29940 0.55432 0.21962 -0.13800
C 	C 	0.25223 0.61193 0.69034 0.10900
N 	N 	0.31898 0.64514 0.68920 -0.13700
C 	C 	0.33680 0.61342 0.68600 0.11200
N 	N 	0.28811 0.54810 0.68431 -0.13600
C 	C 	0.22061 0.51537 0.68372 0.11000
N 	N 	0.20231 0.54727 0.68665 -0.13700
Co	Co	0.02582 0.88466 0.11377 1.19300
Co	Co	0.02775 0.06135 0.08627 1.18800
Co	Co	0.95507 0.92576 0.12895 1.19100
Co	Co	0.08789 0.01519 0.06676 1.16800
C 	C 	0.97044 0.78355 0.08335 0.28400
Co	Co	0.11081 0.90880 0.07390 1.17600
Co	Co	0.92759 0.03030 0.11983 1.15400
C 	C 	0.22496 0.05814 0.06631 0.29800
O 	O 	0.90445 0.95478 0.16213 -0.40000
O 	O 	0.97763 0.00541 0.11294 -0.79300
C 	C 	0.94941 0.94159 0.18379 0.32400
O 	O 	0.96210 0.85091 0.13927 -0.47200
O 	O 	0.08421 0.09166 0.05778 -0.47500
C 	C 	0.07850 0.14834 0.12838 0.28600
O 	O 	0.04645 0.98140 0.10833 -0.55800
C 	C 	0.81172 0.89684 0.10500 0.28700
C 	C 	0.14619 0.86815 0.14547 0.28400
C 	C 	0.04292 0.96240 0.01105 0.32400
O 	O 	0.97709 0.92675 0.17588 -0.38500
O 	O 	0.17383 0.91208 0.12014 -0.37800
O 	O 	0.09285 0.85714 0.14923 -0.36800
O 	O 	0.02709 0.09649 0.14339 -0.39200
O 	O 	0.09017 0.14349 0.10644 -0.37800
O 	O 	0.83421 0.96044 0.09477 -0.37300
O 	O 	0.84866 0.87992 0.10649 -0.38700
O 	O 	0.04164 0.90828 0.02949 -0.38700
O 	O 	0.03503 0.99200 0.02165 -0.37500
O 	O 	0.07709 0.94093 0.08756 -0.75100
C 	C 	0.92905 0.09843 0.05043 0.29400
O 	O 	0.94351 0.10749 0.07793 -0.41400
O 	O 	0.94817 0.06706 0.04934 -0.40700
O 	O 	0.03643 0.80757 0.09114 -0.39700
O 	O 	0.95338 0.81544 0.08565 -0.40000
O 	O 	0.18687 0.00690 0.05383 -0.42600
O 	O 	0.19530 0.07072 0.07433 -0.39800
Co	Co	0.99518 0.88765 0.61234 1.18100
Co	Co	0.95824 0.04285 0.57124 1.17100
Co	Co	0.91977 0.92489 0.62675 1.18600
Co	Co	0.03611 0.00750 0.55750 1.17000
C 	C 	0.96931 0.78591 0.59205 0.28000
Co	Co	0.09580 0.92467 0.57527 1.17500
Co	Co	0.87743 0.02124 0.61281 1.15500
C 	C 	0.18480 0.07425 0.56428 0.29900
O 	O 	0.95525 0.03909 0.65484 -0.43200
O 	O 	0.91618 0.99080 0.60119 -0.74000
C 	C 	0.96543 0.99277 0.67604 0.34200
O 	O 	0.93947 0.85699 0.64126 -0.46700
O 	O 	0.01332 0.07342 0.54202 -0.47300
C 	C 	0.00774 0.15186 0.59442 0.31000
O 	O 	0.95316 0.95046 0.58415 -0.57400
C 	C 	0.77897 0.87026 0.62908 0.29800
C 	C 	0.13366 0.90469 0.64552 0.28800
C 	C 	0.01810 0.95426 0.50816 0.30300
O 	O 	0.97806 0.96426 0.66748 -0.39600
O 	O 	0.16031 0.94395 0.61996 -0.38000
O 	O 	0.08588 0.90280 0.64842 -0.37600
O 	O 	0.94056 0.12125 0.58921 -0.42200
O 	O 	0.02931 0.12318 0.59277 -0.40300
O 	O 	0.81286 0.92416 0.63859 -0.39400
O 	O 	0.81313 0.85746 0.62470 -0.38300
O 	O 	0.02431 0.90690 0.53165 -0.38400
O 	O 	0.01235 0.99297 0.51312 -0.35600
O 	O 	0.03434 0.93833 0.58117 -0.74400
C 	C 	0.82790 0.04299 0.54214 0.28700
O 	O 	0.80639 0.00222 0.56911 -0.40700
O 	O 	0.87824 0.05287 0.53633 -0.38600
O 	O 	0.03783 0.82283 0.59777 -0.39500
O 	O 	0.93922 0.79995 0.59881 -0.38700
O 	O 	0.15929 0.02595 0.55270 -0.42600
O 	O 	0.14351 0.07237 0.57250 -0.41100
C 	C 	0.02913 0.00062 0.91651 -0.07200
C 	C 	0.09163 0.03770 0.90762 -0.02300
C 	C 	0.08942 0.03843 0.87820 -0.02700
C 	C 	0.02460 0.00221 0.85737 -0.06700
C 	C 	0.96208 0.96776 0.86560 -0.00700
C 	C 	0.96438 0.96695 0.89508 -0.00200
C 	C 	0.02217 0.99912 0.82731 0.10800
C 	C 	0.05298 0.05867 0.80341 -0.09500
C 	C 	0.04767 0.05541 0.77433 -0.06000
C 	C 	0.01141 0.99265 0.76886 0.05100
C 	C 	0.98284 0.93333 0.79316 -0.04100
C 	C 	0.98824 0.93651 0.82231 -0.07500
C 	C 	0.99506 0.98865 0.73688 0.03000
C 	C 	0.98295 0.98860 0.70963 -0.09600
C 	C 	0.03145 0.98791 0.94938 0.10700
C 	C 	0.03549 0.97837 0.97709 -0.11700
H 	H 	0.14191 0.06378 0.92405 0.03100
H 	H 	0.13799 0.06563 0.87200 0.03100
H 	H 	0.91177 0.94058 0.84945 0.03500
H 	H 	0.91581 0.93812 0.90174 0.03500
H 	H 	0.07964 0.10727 0.80706 0.05100
H 	H 	0.06976 0.10151 0.75564 0.04100
H 	H 	0.95463 0.88461 0.78913 0.04400
H 	H 	0.96520 0.89032 0.84079 0.05200
C 	C 	0.97245 0.92680 0.27601 -0.00700
C 	C 	0.91077 0.88728 0.28613 -0.03800
C 	C 	0.91375 0.89060 0.31461 -0.02600
C 	C 	0.97856 0.93334 0.33329 -0.02800
C 	C 	0.04058 0.97113 0.32372 0.02900
C 	C 	0.03748 0.96791 0.29514 -0.03900
C 	C 	0.98138 0.93872 0.36277 0.04500
C 	C 	0.95493 0.88096 0.38808 -0.04900
C 	C 	0.95817 0.88607 0.41607 -0.03600
C 	C 	0.98810 0.94895 0.41910 0.02700
C 	C 	0.01339 0.00655 0.39364 -0.05600
C 	C 	0.00996 0.00148 0.36552 -0.06900
C 	C 	0.99909 0.95512 0.44956 0.01900
C 	C 	0.00681 0.95670 0.47568 -0.06500
C 	C 	0.96783 0.93228 0.24401 0.05000
C 	C 	0.96126 0.93525 0.21706 -0.10600
H 	H 	0.86026 0.85557 0.27143 0.04300
H 	H 	0.86560 0.86100 0.32181 0.03900
H 	H 	0.09099 0.00355 0.33819 0.00100
H 	H 	0.08540 0.99878 0.28746 0.05600
H 	H 	0.93267 0.83229 0.38621 0.04400
H 	H 	0.93874 0.84135 0.43569 0.04300
H 	H 	0.03682 0.05538 0.39581 0.04100
H 	H 	0.02978 0.04626 0.34600 0.04200
C 	C 	0.06330 0.36641 0.58013 -0.03400
C 	C 	0.08030 0.41060 0.59418 -0.05000
C 	C 	0.10837 0.40479 0.62759 0.03500
C 	C 	0.11808 0.35329 0.64708 -0.02200
C 	C 	0.10134 0.30904 0.63291 0.00100
C 	C 	0.07389 0.31566 0.59933 0.01000
C 	C 	0.11114 0.25758 0.65239 0.01000
C 	C 	0.13794 0.25096 0.68588 -0.03600
C 	C 	0.15544 0.29550 0.69990 -0.05100
C 	C 	0.14631 0.34721 0.68060 0.03500
C 	C 	0.16909 0.39542 0.69407 -0.06000
C 	C 	0.16671 0.45109 0.67408 0.00600
C 	C 	0.13098 0.45240 0.64143 -0.05900
C 	C 	0.05398 0.26931 0.58561 -0.01600
C 	C 	0.05773 0.21439 0.60535 -0.07000
C 	C 	0.09065 0.21130 0.63834 -0.01800
H 	H 	0.04155 0.37147 0.55434 0.04000
H 	H 	0.07237 0.44982 0.57900 0.04400
H 	H 	0.14499 0.21118 0.70113 0.03800
H 	H 	0.17672 0.29014 0.72572 0.04100
H 	H 	0.19498 0.39345 0.71948 0.04800
H 	H 	0.12752 0.49446 0.62617 0.05100
H 	H 	0.02962 0.27225 0.56003 0.03900
H 	H 	0.09451 0.16946 0.65351 0.04600
C 	C 	0.55145 0.82102 0.60117 -0.03600
C 	C 	0.49343 0.79035 0.61180 -0.04800
C 	C 	0.47806 0.73740 0.63988 0.03500
C 	C 	0.52037 0.71403 0.65697 -0.02100
C 	C 	0.57895 0.74511 0.64635 0.00000
C 	C 	0.59515 0.79951 0.61865 0.01600
C 	C 	0.62318 0.72387 0.66426 0.01300
C 	C 	0.60650 0.66946 0.69176 -0.03600
C 	C 	0.54754 0.63775 0.70201 -0.04900
C 	C 	0.50474 0.66030 0.68497 0.03500
C 	C 	0.44635 0.62963 0.69545 -0.05900
C 	C 	0.40398 0.65263 0.67831 0.00700
C 	C 	0.42058 0.70714 0.65089 -0.05900
C 	C 	0.65728 0.83458 0.61006 -0.02400
C 	C 	0.70488 0.81802 0.62982 -0.06000
C 	C 	0.68578 0.76010 0.65563 -0.01900
H 	H 	0.56322 0.86248 0.57971 0.04500
H 	H 	0.46075 0.80813 0.59830 0.04600
H 	H 	0.63977 0.65234 0.70552 0.04000
H 	H 	0.53563 0.59615 0.72340 0.04300
H 	H 	0.43303 0.58720 0.71652 0.05000
H 	H 	0.38717 0.72416 0.63750 0.05300
H 	H 	0.67163 0.87848 0.58966 0.04900
H 	H 	0.72219 0.74672 0.67051 0.04300
C 	C 	0.05977 0.67434 0.67807 -0.03600
C 	C 	0.07615 0.63364 0.68127 -0.05000
C 	C 	0.14646 0.65946 0.68752 0.03400
C 	C 	0.20067 0.72558 0.69209 -0.02100
C 	C 	0.18406 0.76717 0.68790 -0.00100
C 	C 	0.11330 0.74205 0.67998 0.01500
C 	C 	0.23810 0.83522 0.68957 0.01400
C 	C 	0.30851 0.85946 0.69824 -0.03500
C 	C 	0.32506 0.81763 0.70330 -0.04900
C 	C 	0.27138 0.75135 0.69928 0.03500
C 	C 	0.28766 0.71183 0.70096 -0.06000
C 	C 	0.23382 0.64793 0.69379 0.00800
C 	C 	0.16314 0.62098 0.68809 -0.06100
C 	C 	0.09693 0.78639 0.67153 -0.02100
C 	C 	0.15045 0.85618 0.66857 -0.06200
C 	C 	0.22097 0.87937 0.68010 -0.02000
H 	H 	0.00527 0.65392 0.67289 0.04300
H 	H 	0.03407 0.58247 0.67835 0.04400
H 	H 	0.35049 0.91124 0.70027 0.04400
H 	H 	0.37966 0.83752 0.70936 0.04600
H 	H 	0.34220 0.73172 0.70678 0.05500
H 	H 	0.12137 0.57122 0.68332 0.05300
H 	H 	0.04248 0.76790 0.66414 0.04500
H 	H 	0.26233 0.93282 0.67902 0.04900
C 	C 	0.25693 0.27559 0.21097 -0.03700
C 	C 	0.28509 0.32400 0.22583 -0.05100
C 	C 	0.26439 0.36716 0.21101 0.03400
C 	C 	0.21459 0.36122 0.18115 -0.02200
C 	C 	0.18720 0.31333 0.16593 -0.00100
C 	C 	0.20795 0.26993 0.18104 0.01100
C 	C 	0.13831 0.30819 0.13581 0.01300
C 	C 	0.11719 0.35097 0.12111 -0.03700
C 	C 	0.14423 0.39840 0.13628 -0.05000
C 	C 	0.19318 0.40404 0.16622 0.03400
C 	C 	0.22347 0.45407 0.18065 -0.05900
C 	C 	0.27712 0.46355 0.20904 0.00600
C 	C 	0.29508 0.41808 0.22495 -0.06000
C 	C 	0.17742 0.21974 0.16663 -0.02100
C 	C 	0.12607 0.21239 0.13748 -0.06000
C 	C 	0.10900 0.25849 0.12143 -0.02600
H 	H 	0.27316 0.24244 0.22279 0.03600
H 	H 	0.32325 0.32811 0.24879 0.04100
H 	H 	0.07950 0.34726 0.09800 0.04000
H 	H 	0.12753 0.43114 0.12460 0.04300
H 	H 	0.20929 0.48894 0.16855 0.05100
H 	H 	0.33592 0.42502 0.24710 0.04900
H 	H 	0.19052 0.18403 0.17891 0.03800
H 	H 	0.06940 0.25266 0.09884 0.04300
C 	C 	0.54227 0.80272 0.12054 -0.04900
C 	C 	0.58995 0.83191 0.10333 -0.03500
C 	C 	0.64069 0.81947 0.11716 0.01300
C 	C 	0.64272 0.77640 0.14830 0.00000
C 	C 	0.59452 0.74677 0.16557 -0.02100
C 	C 	0.54430 0.76021 0.15168 0.03500
C 	C 	0.59628 0.70342 0.19665 0.03500
C 	C 	0.64688 0.69079 0.21043 -0.05000
C 	C 	0.69559 0.72119 0.19348 -0.03600
C 	C 	0.69404 0.76429 0.16247 0.01300
C 	C 	0.74521 0.79801 0.14612 -0.02000
C 	C 	0.74632 0.84484 0.11617 -0.06300
C 	C 	0.69158 0.85223 0.10093 -0.02100
C 	C 	0.49536 0.72931 0.16866 -0.05900
C 	C 	0.49454 0.68321 0.19883 0.00700
C 	C 	0.54624 0.67185 0.21318 -0.05900
H 	H 	0.50363 0.81305 0.10960 0.04600
H 	H 	0.58795 0.86489 0.07940 0.04300
H 	H 	0.64864 0.65752 0.23429 0.04200
H 	H 	0.73481 0.71155 0.20459 0.04000
H 	H 	0.78708 0.79177 0.15771 0.04000
H 	H 	0.69153 0.88709 0.07740 0.04900
H 	H 	0.45527 0.73786 0.15761 0.05300
H 	H 	0.54561 0.63641 0.23655 0.05000
C 	C 	0.10684 0.65063 0.18257 -0.03600
C 	C 	0.13464 0.61576 0.19188 -0.04900
C 	C 	0.20757 0.64841 0.20250 0.03400
C 	C 	0.25259 0.71556 0.20529 -0.02100
C 	C 	0.22466 0.75086 0.19566 -0.00100
C 	C 	0.15164 0.71867 0.18365 0.01400
C 	C 	0.27014 0.81962 0.19613 0.01500
C 	C 	0.34273 0.85120 0.20832 -0.03500
C 	C 	0.37037 0.81582 0.21837 -0.04800
C 	C 	0.32582 0.74862 0.21607 0.03500
C 	C 	0.35386 0.71535 0.22284 -0.06000
C 	C 	0.30951 0.65031 0.21767 0.00700
C 	C 	0.23616 0.61595 0.20879 -0.06000
C 	C 	0.12493 0.75617 0.17082 -0.02500
C 	C 	0.17088 0.82605 0.16847 -0.05600
C 	C 	0.24294 0.85695 0.18251 -0.02200
H 	H 	0.05060 0.62526 0.17365 0.04000
H 	H 	0.09951 0.56384 0.19011 0.04300
H 	H 	0.37799 0.90365 0.20933 0.04500
H 	H 	0.42664 0.84133 0.22710 0.04600
H 	H 	0.41021 0.74092 0.23096 0.05400
H 	H 	0.20160 0.56527 0.20544 0.05300
H 	H 	0.06914 0.73231 0.16030 0.04800
H 	H 	0.27814 0.91076 0.18110 0.04900
C 	C 	0.64017 0.07093 0.49597 -0.03900
C 	C 	0.62000 0.11093 0.48924 -0.05400
C 	C 	0.67084 0.17988 0.48911 0.03300
C 	C 	0.74215 0.20954 0.49425 -0.02500
C 	C 	0.76232 0.16951 0.50044 -0.00100
C 	C 	0.71137 0.09953 0.50233 0.00600
C 	C 	0.83386 0.19870 0.50651 0.00800
C 	C 	0.88447 0.26812 0.50534 -0.03700
C 	C 	0.86454 0.30769 0.49960 -0.05300
C 	C 	0.79362 0.27848 0.49461 0.03300
C 	C 	0.77395 0.31675 0.49117 -0.06200
C 	C 	0.70307 0.28657 0.48737 0.00600
C 	C 	0.65147 0.21876 0.48513 -0.06300
C 	C 	0.73268 0.05840 0.51257 -0.02400
C 	C 	0.80437 0.08671 0.52099 -0.07000
C 	C 	0.85428 0.15731 0.51578 -0.02100
H 	H 	0.60050 0.01742 0.49689 0.03000
H 	H 	0.56495 0.08785 0.48490 0.03700
H 	H 	0.93951 0.29118 0.50968 0.03300
H 	H 	0.90445 0.36079 0.49958 0.03900
H 	H 	0.81387 0.36924 0.49234 0.05100
H 	H 	0.59656 0.19583 0.48110 0.05000
H 	H 	0.69408 0.00400 0.51597 0.03300
H 	H 	0.90951 0.17924 0.52161 0.04200
C 	C 	0.76757 0.63263 0.48472 -0.05000
C 	C 	0.79614 0.67691 0.50230 -0.03600
C 	C 	0.84562 0.67932 0.53187 0.01300
C 	C 	0.86770 0.63798 0.54347 -0.00100
C 	C 	0.83907 0.59356 0.52575 -0.02200
C 	C 	0.78787 0.58997 0.49658 0.03400
C 	C 	0.85951 0.55070 0.53785 0.03300
C 	C 	0.91071 0.55471 0.56688 -0.05100
C 	C 	0.93981 0.59946 0.58430 -0.03800
C 	C 	0.91805 0.64075 0.57289 0.01100
C 	C 	0.94711 0.68573 0.59020 -0.02500
C 	C 	0.92644 0.72806 0.57836 -0.06300
C 	C 	0.87442 0.72354 0.54965 -0.02100
C 	C 	0.75421 0.54065 0.48084 -0.05900
C 	C 	0.76860 0.49274 0.49498 0.00500
C 	C 	0.82508 0.50131 0.52196 -0.06000
H 	H 	0.72868 0.63065 0.46219 0.04300
H 	H 	0.77949 0.70907 0.49297 0.04100
H 	H 	0.92717 0.52238 0.57627 0.03900
H 	H 	0.97892 0.60165 0.60677 0.03500
H 	H 	0.98810 0.69018 0.61205 0.03900
H 	H 	0.85923 0.75692 0.54034 0.04500
H 	H 	0.71225 0.53542 0.45929 0.05000
H 	H 	0.83760 0.46552 0.53232 0.04900
C 	C 	0.41988 0.14686 0.59190 -0.03900
C 	C 	0.47339 0.17394 0.57903 -0.05300
C 	C 	0.47914 0.21726 0.54792 0.03300
C 	C 	0.43244 0.23558 0.53014 -0.02300
C 	C 	0.37852 0.20821 0.54307 0.00100
C 	C 	0.37110 0.16228 0.57370 0.00900
C 	C 	0.32909 0.22311 0.52449 0.01000
C 	C 	0.33688 0.26903 0.49403 -0.03600
C 	C 	0.39126 0.29722 0.48140 -0.05100
C 	C 	0.43837 0.27968 0.49904 0.03400
C 	C 	0.49129 0.30566 0.48601 -0.06000
C 	C 	0.53797 0.28762 0.50374 0.00500
C 	C 	0.53114 0.24270 0.53444 -0.06100
C 	C 	0.31139 0.12753 0.58429 -0.02300
C 	C 	0.25693 0.13431 0.56344 -0.06900
C 	C 	0.26916 0.18715 0.53529 -0.01800
H 	H 	0.41512 0.11226 0.61563 0.03200
H 	H 	0.50976 0.16048 0.59310 0.03800
H 	H 	0.29977 0.28157 0.47975 0.03900
H 	H 	0.39598 0.33180 0.45767 0.04200
H 	H 	0.49724 0.34095 0.46244 0.04900
H 	H 	0.56802 0.22977 0.54827 0.04800
H 	H 	0.30309 0.08882 0.60684 0.03400
H 	H 	0.22821 0.19442 0.51991 0.03900
C 	C 	0.72578 0.09735 0.99282 -0.04200
C 	C 	0.69826 0.13079 0.98635 -0.05200
C 	C 	0.74311 0.20005 0.98538 0.03000
C 	C 	0.81548 0.23688 0.98873 -0.02000
C 	C 	0.84306 0.20336 0.99481 -0.00700
C 	C 	0.79844 0.13280 0.99826 0.01200
C 	C 	0.91603 0.23923 0.00023 0.02100
C 	C 	0.96035 0.30931 0.99726 -0.05700
C 	C 	0.93301 0.34259 0.99128 -0.04400
C 	C 	0.86095 0.30628 0.98802 0.02800
C 	C 	0.83443 0.33776 0.98559 -0.06000
C 	C 	0.76279 0.30012 0.98417 0.00500
C 	C 	0.71691 0.23194 0.98269 -0.06100
C 	C 	0.82779 0.09780 0.01038 -0.02900
C 	C 	0.90099 0.13236 0.02080 -0.06200
C 	C 	0.94433 0.20350 0.01187 -0.03900
H 	H 	0.69082 0.04341 0.99473 0.03200
H 	H 	0.64231 0.10231 0.98312 0.03700
H 	H 	0.01638 0.33759 0.00082 0.05100
H 	H 	0.96823 0.39624 0.99010 0.03800
H 	H 	0.86976 0.39077 0.98568 0.05200
H 	H 	0.66131 0.20315 0.98047 0.05000
H 	H 	0.79410 0.04296 0.01573 0.03500
H 	H 	0.00085 0.23039 0.01831 0.05100
C 	C 	0.88642 0.52095 0.08299 -0.05100
C 	C 	0.90342 0.56480 0.09725 -0.03700
C 	C 	0.89472 0.61679 0.07813 0.01000
C 	C 	0.86811 0.62433 0.04448 -0.00100
C 	C 	0.85062 0.57995 0.03014 -0.02200
C 	C 	0.85978 0.52806 0.04947 0.03300
C 	C 	0.82301 0.58681 0.99655 0.03400
C 	C 	0.81475 0.63910 0.97742 -0.05000
C 	C 	0.83369 0.68422 0.99158 -0.03600
C 	C 	0.86070 0.67735 0.02508 0.01200
C 	C 	0.88428 0.72509 0.03918 -0.02300
C 	C 	0.91681 0.72105 0.07224 -0.06300
C 	C 	0.91644 0.66384 0.09197 -0.02200
C 	C 	0.83881 0.48183 0.03529 -0.05900
C 	C 	0.80510 0.48468 0.00239 0.00400
C 	C 	0.80092 0.53940 0.98276 -0.05900
H 	H 	0.89349 0.48115 0.09807 0.03900
H 	H 	0.92423 0.55884 0.12312 0.03400
H 	H 	0.79353 0.64481 0.95158 0.04300
H 	H 	0.82776 0.72474 0.97643 0.04100
H 	H 	0.88335 0.76862 0.02404 0.04700
H 	H 	0.94001 0.65997 0.11765 0.03600
H 	H 	0.84276 0.44001 0.05032 0.04800
H 	H 	0.77568 0.54202 0.95727 0.04800
C 	C 	0.44344 0.10346 0.08027 -0.03900
C 	C 	0.49621 0.13372 0.06594 -0.05400
C 	C 	0.50794 0.18735 0.03812 0.03300
C 	C 	0.46683 0.21126 0.02485 -0.02500
C 	C 	0.41390 0.18095 0.03934 0.00100
C 	C 	0.40148 0.12620 0.06686 0.00800
C 	C 	0.37160 0.20371 0.02561 0.00800
C 	C 	0.38419 0.25819 0.99815 -0.03500
C 	C 	0.43732 0.28880 0.98394 -0.05200
C 	C 	0.47855 0.26534 0.99704 0.03500
C 	C 	0.53256 0.29647 0.98320 -0.06100
C 	C 	0.57573 0.27484 0.99730 0.00500
C 	C 	0.56157 0.21866 0.02398 -0.06200
C 	C 	0.34442 0.09210 0.07930 -0.02200
C 	C 	0.29791 0.11016 0.06353 -0.06900
C 	C 	0.31446 0.16887 0.03824 -0.01800
H 	H 	0.43450 0.06160 0.10151 0.03100
H 	H 	0.52786 0.11532 0.07647 0.03700
H 	H 	0.35223 0.27627 0.98751 0.03900
H 	H 	0.44622 0.33062 0.96269 0.04300
H 	H 	0.54326 0.33953 0.96244 0.05000
H 	H 	0.59497 0.20204 0.03485 0.04800
H 	H 	0.33234 0.04763 0.09937 0.03000
H 	H 	0.27917 0.18354 0.02652 0.04000
