data_crystal

_cell_length_a 24.43981
_cell_length_b 26.83610
_cell_length_c 41.75693
_cell_angle_alpha 60.77436
_cell_angle_beta  118.93250
_cell_angle_gamma 133.32700

_symmetry_space_group_name_	'P 1'
_symmetry_space_group_name_H-M	'P 1'

loop_
_symmetry_equiv_pos_as_xyz
  x,y,z

loop_
_atom_site_label
_atom_site_type_symbol
_atom_site_fract_x
_atom_site_fract_y
_atom_site_fract_z
_atom_site_charge
C 	C 	0.70031 0.33595 0.95716 -0.00700
C 	C 	0.62111 0.30170 0.95147 -0.04300
C 	C 	0.59771 0.32604 0.96171 -0.00800
C 	C 	0.65034 0.39478 0.96666 -0.04000
C 	C 	0.72906 0.43266 0.96942 -0.00900
C 	C 	0.75422 0.40313 0.96483 -0.04100
H 	H 	0.57881 0.25088 0.94452 0.03700
H 	H 	0.63212 0.41512 0.97335 0.04300
H 	H 	0.81564 0.42994 0.96993 0.04400
C 	C 	0.70225 0.34606 0.46925 -0.00800
C 	C 	0.62371 0.29171 0.46949 -0.04200
C 	C 	0.57814 0.30429 0.47096 -0.00900
C 	C 	0.60913 0.37341 0.46809 -0.04100
C 	C 	0.68761 0.42819 0.46814 -0.00800
C 	C 	0.73412 0.41433 0.46855 -0.04100
H 	H 	0.59968 0.23829 0.47170 0.03900
H 	H 	0.57371 0.38378 0.46839 0.04100
H 	H 	0.79529 0.45535 0.46991 0.04000
C 	C 	0.23844 0.58486 0.22274 -0.00800
C 	C 	0.31107 0.63733 0.21346 -0.04100
C 	C 	0.33885 0.62172 0.19972 -0.00900
C 	C 	0.29148 0.55568 0.19205 -0.04200
C 	C 	0.21782 0.50413 0.19964 -0.00900
C 	C 	0.19223 0.51794 0.21595 -0.04300
H 	H 	0.34603 0.69001 0.21687 0.04200
H 	H 	0.31186 0.54437 0.18022 0.04300
H 	H 	0.13657 0.47678 0.22329 0.04000
C 	C 	0.23730 0.59880 0.71797 -0.00900
C 	C 	0.20677 0.53662 0.71100 -0.04300
C 	C 	0.24945 0.53590 0.69796 -0.00900
C 	C 	0.32388 0.59641 0.69335 -0.04300
C 	C 	0.35500 0.65808 0.70078 -0.00900
C 	C 	0.31063 0.66016 0.71157 -0.04000
H 	H 	0.15032 0.48901 0.71585 0.03900
H 	H 	0.35789 0.59522 0.68444 0.04300
H 	H 	0.33350 0.70922 0.71523 0.04300
Co	Co	0.10467 0.02291 0.07834 1.16600
Co	Co	0.92508 0.91333 0.13468 1.18900
Co	Co	0.01439 0.05838 0.09119 1.16300
Co	Co	0.01315 0.87724 0.12054 1.18400
C 	C 	0.26106 0.05322 0.11632 0.22100
Co	Co	0.14680 0.91793 0.09502 1.16900
Co	Co	0.89680 0.01785 0.13094 1.14300
C 	C 	0.97876 0.80024 0.07028 0.27700
O 	O 	0.91146 0.10106 0.08339 -0.40200
O 	O 	0.94253 0.99287 0.11408 -0.73100
C 	C 	0.90629 0.10138 0.05044 0.26900
O 	O 	0.09545 0.09967 0.06633 -0.48200
O 	O 	0.93225 0.83575 0.14549 -0.46400
C 	C 	0.76372 0.87648 0.11502 0.26700
O 	O 	0.99005 0.95983 0.09193 -0.55500
C 	C 	0.06657 0.13545 0.14493 0.27000
C 	C 	0.13256 0.01361 0.01941 0.26800
C 	C 	0.11840 0.83748 0.17275 0.27700
O 	O 	0.95209 0.09539 0.04674 -0.38700
O 	O 	0.18084 0.99988 0.04711 -0.35400
O 	O 	0.10235 0.03390 0.02504 -0.40200
O 	O 	0.79254 0.94414 0.10264 -0.36700
O 	O 	0.80501 0.85444 0.12323 -0.37100
O 	O 	0.00535 0.08910 0.15933 -0.40700
O 	O 	0.08677 0.11463 0.13239 -0.40500
O 	O 	0.11979 0.83419 0.14280 -0.39400
O 	O 	0.09429 0.87197 0.16864 -0.38900
O 	O 	0.07860 0.93988 0.09455 -0.75300
C 	C 	0.94027 0.93355 0.20277 0.32900
O 	O 	0.88334 0.93952 0.18122 -0.39700
O 	O 	0.97448 0.93022 0.18815 -0.39400
O 	O 	0.23914 0.98792 0.12836 -0.33900
O 	O 	0.21514 0.06619 0.11300 -0.39300
O 	O 	0.04696 0.85063 0.06148 -0.38500
O 	O 	0.96388 0.79543 0.09887 -0.37500
Co	Co	0.10186 0.03595 0.57551 1.16700
Co	Co	0.91538 0.92311 0.62793 1.19900
Co	Co	0.02070 0.07304 0.59366 1.17400
Co	Co	0.99615 0.88580 0.60882 1.19100
C 	C 	0.25353 0.05759 0.61734 0.22300
Co	Co	0.13914 0.92965 0.58839 1.17500
Co	Co	0.90993 0.03350 0.63682 1.15100
C 	C 	0.97672 0.81164 0.56292 0.27600
O 	O 	0.94147 0.12989 0.59674 -0.40100
O 	O 	0.94793 0.00748 0.61569 -0.79200
C 	C 	0.94480 0.14524 0.56223 0.27400
O 	O 	0.09804 0.11466 0.56630 -0.48000
O 	O 	0.90929 0.84252 0.63021 -0.46400
C 	C 	0.76709 0.90736 0.60984 0.26600
O 	O 	0.98583 0.97538 0.58661 -0.55000
C 	C 	0.08004 0.13726 0.65616 0.27000
C 	C 	0.13713 0.03604 0.51573 0.30400
C 	C 	0.08976 0.83195 0.66182 0.27800
O 	O 	0.96172 0.11613 0.55407 -0.38700
O 	O 	0.18119 0.01735 0.54361 -0.42600
O 	O 	0.10668 0.05529 0.52203 -0.40200
O 	O 	0.80600 0.97643 0.60142 -0.36100
O 	O 	0.79725 0.87809 0.61309 -0.36200
O 	O 	0.01913 0.08687 0.67074 -0.40900
O 	O 	0.09823 0.12404 0.63749 -0.39700
O 	O 	0.10395 0.83919 0.63265 -0.39800
O 	O 	0.06637 0.86642 0.65859 -0.39600
O 	O 	0.07061 0.95171 0.58800 -0.74500
C 	C 	0.92835 0.92546 0.70132 0.29800
O 	O 	0.87985 0.94245 0.68087 -0.38900
O 	O 	0.95859 0.92112 0.68475 -0.38500
O 	O 	0.23031 0.99261 0.62548 -0.33700
O 	O 	0.20675 0.06895 0.61465 -0.39400
O 	O 	0.04130 0.86824 0.55185 -0.38000
O 	O 	0.94198 0.81537 0.57745 -0.37400
C 	C 	0.11455 0.00905 0.98138 -0.16200
C 	C 	0.17061 0.02527 0.96906 0.05900
C 	C 	0.15056 0.01232 0.93499 -0.16300
C 	C 	0.07449 0.98316 0.91304 0.13500
C 	C 	0.01903 0.96871 0.92477 -0.13200
C 	C 	0.03896 0.98172 0.95876 0.09700
C 	C 	0.05286 0.96714 0.87870 -0.05500
C 	C 	0.03307 0.95318 0.84984 0.02400
C 	C 	0.00742 0.93659 0.81498 -0.01400
C 	C 	0.92812 0.89173 0.79975 -0.02900
C 	C 	0.90227 0.88357 0.76344 -0.00400
C 	C 	0.95561 0.92014 0.74210 -0.05500
C 	C 	0.03523 0.96148 0.75834 -0.02500
C 	C 	0.06103 0.96994 0.79463 0.02100
H 	H 	0.22936 0.04707 0.98606 0.01400
H 	H 	0.19393 0.02422 0.92592 0.05800
H 	H 	0.96018 0.94642 0.90786 0.07600
H 	H 	0.99504 0.96840 0.96808 0.03200
H 	H 	0.88636 0.86522 0.81547 0.04300
H 	H 	0.84069 0.85118 0.75128 0.03700
H 	H 	0.07696 0.99021 0.74210 0.06200
H 	H 	0.12249 0.00435 0.80632 -0.00800
C 	C 	0.12560 0.03959 0.47677 -0.10800
C 	C 	0.05512 0.02397 0.45057 0.03200
C 	C 	0.03846 0.01498 0.41591 -0.10800
C 	C 	0.09212 0.02177 0.40708 0.07500
C 	C 	0.16424 0.04124 0.43223 -0.09500
C 	C 	0.18108 0.05030 0.46693 0.02600
C 	C 	0.07093 0.00397 0.37348 -0.10900
C 	C 	0.05152 0.98871 0.34515 0.05200
C 	C 	0.02571 0.96922 0.31129 0.09300
C 	C 	0.07714 0.00663 0.28873 -0.21300
C 	C 	0.05020 0.99166 0.25418 0.16500
C 	C 	0.97149 0.93956 0.24189 -0.13300
C 	C 	0.92081 0.90044 0.26521 0.05500
C 	C 	0.94789 0.91512 0.29982 -0.08600
H 	H 	0.01190 0.01576 0.45770 0.01900
H 	H 	0.98286 0.00060 0.39642 0.05700
H 	H 	0.20645 0.04754 0.42536 0.04800
H 	H 	0.23634 0.06379 0.48653 0.02700
H 	H 	0.13746 0.04844 0.29746 0.07200
H 	H 	0.08970 0.02271 0.23623 -0.03000
H 	H 	0.86000 0.86008 0.25603 0.02700
H 	H 	0.90792 0.88565 0.31724 0.06200
C 	C 	0.21783 0.38260 0.70350 0.06700
C 	C 	0.18750 0.31065 0.71793 -0.07900
C 	C 	0.15245 0.27180 0.69213 0.00200
C 	C 	0.15116 0.30321 0.65426 0.07900
C 	C 	0.18334 0.37539 0.63972 -0.09200
C 	C 	0.21681 0.41450 0.66521 0.02700
N 	N 	0.21745 0.41683 0.71844 -0.16900
C 	C 	0.21736 0.47104 0.69037 0.07500
C 	C 	0.21494 0.47000 0.65669 -0.09200
N 	N 	0.14198 0.26448 0.63808 -0.15200
C 	C 	0.13373 0.20601 0.66532 -0.00700
C 	C 	0.14427 0.21111 0.69992 -0.04100
H 	H 	0.18799 0.28547 0.74763 0.04800
H 	H 	0.18114 0.39977 0.60985 0.05500
H 	H 	0.22687 0.51275 0.63138 0.05400
H 	H 	0.12599 0.16730 0.72440 0.04000
H 	H 	0.23187 0.41209 0.74729 0.08200
H 	H 	0.12219 0.26806 0.60908 0.08000
C 	C 	0.52760 0.81030 0.67051 0.07300
C 	C 	0.55763 0.85229 0.63810 -0.07900
C 	C 	0.62406 0.86370 0.63982 0.01100
C 	C 	0.65109 0.82572 0.66930 0.08000
C 	C 	0.61473 0.77628 0.69936 -0.09000
C 	C 	0.55695 0.77404 0.70100 0.02700
N 	N 	0.45365 0.77681 0.66954 -0.16900
C 	C 	0.43547 0.71952 0.69911 0.07700
C 	C 	0.49790 0.71569 0.71914 -0.08900
N 	N 	0.69235 0.82295 0.65846 -0.15200
C 	C 	0.69574 0.86269 0.62243 0.00300
C 	C 	0.64948 0.88514 0.60931 -0.04500
H 	H 	0.52830 0.87200 0.61223 0.05800
H 	H 	0.62803 0.73901 0.71949 0.05600
H 	H 	0.49275 0.66710 0.73590 0.05400
H 	H 	0.65305 0.92810 0.58496 0.05700
H 	H 	0.41308 0.78070 0.64512 0.08700
H 	H 	0.73178 0.81097 0.67711 0.09100
C 	C 	0.17260 0.64503 0.75250 0.06800
C 	C 	0.18972 0.70496 0.75505 -0.07700
C 	C 	0.13087 0.71427 0.73872 0.00700
C 	C 	0.06070 0.67031 0.71669 0.08500
C 	C 	0.04717 0.61520 0.71060 -0.10600
C 	C 	0.10219 0.60079 0.73066 0.03100
N 	N 	0.22737 0.64286 0.75418 -0.16900
C 	C 	0.19317 0.59877 0.73297 0.07700
C 	C 	0.11533 0.57164 0.71784 -0.09400
N 	N 	0.03053 0.70572 0.69046 -0.15800
C 	C 	0.08143 0.77260 0.69461 -0.00100
C 	C 	0.14436 0.77967 0.72457 -0.03900
H 	H 	0.24831 0.74574 0.76648 0.05500
H 	H 	0.99890 0.58858 0.68872 0.06600
H 	H 	0.08150 0.55343 0.69213 0.05200
H 	H 	0.20161 0.82919 0.72670 0.05100
H 	H 	0.28690 0.68076 0.76200 0.08500
H 	H 	0.99121 0.69206 0.66502 0.09400
C 	C 	0.15621 0.30612 0.14779 0.08000
C 	C 	0.13700 0.35318 0.13329 -0.09300
C 	C 	0.12813 0.36631 0.15850 0.02500
C 	C 	0.14187 0.33669 0.19702 0.06600
C 	C 	0.16234 0.29058 0.21166 -0.08100
C 	C 	0.16964 0.27617 0.18638 0.00600
N 	N 	0.12972 0.26282 0.12830 -0.15400
C 	C 	0.12455 0.20463 0.15396 -0.00200
C 	C 	0.14935 0.21132 0.19041 -0.04100
N 	N 	0.16557 0.37880 0.21646 -0.16900
C 	C 	0.16739 0.43545 0.19059 0.07400
C 	C 	0.14462 0.42957 0.15421 -0.09100
H 	H 	0.12694 0.37695 0.10329 0.05400
H 	H 	0.17237 0.26687 0.24167 0.04900
H 	H 	0.13016 0.16691 0.21458 0.04400
H 	H 	0.16272 0.47422 0.13002 0.05400
H 	H 	0.09598 0.26298 0.10060 0.08000
H 	H 	0.19930 0.37952 0.24414 0.08300
C 	C 	0.57538 0.78913 0.12101 0.08200
C 	C 	0.53539 0.79986 0.12935 -0.09100
C 	C 	0.51015 0.75847 0.16302 0.02900
C 	C 	0.52136 0.70624 0.18678 0.07100
C 	C 	0.55926 0.69406 0.17791 -0.08000
C 	C 	0.58529 0.73588 0.14442 0.01000
N 	N 	0.63344 0.84210 0.10313 -0.15200
C 	C 	0.68096 0.82359 0.11512 0.00700
C 	C 	0.65250 0.75766 0.14059 -0.04300
N 	N 	0.46609 0.65493 0.20640 -0.16800
C 	C 	0.41899 0.67355 0.19504 0.07700
C 	C 	0.44435 0.73758 0.16797 -0.08900
H 	H 	0.52654 0.84053 0.11090 0.06000
H 	H 	0.56800 0.65333 0.19640 0.05400
H 	H 	0.68837 0.74062 0.16226 0.05200
H 	H 	0.40703 0.75321 0.14668 0.05700
H 	H 	0.65088 0.89422 0.09258 0.09500
H 	H 	0.44978 0.60316 0.21847 0.08400
C 	C 	0.10301 0.68486 0.23568 0.07900
C 	C 	0.08017 0.62297 0.23220 -0.08900
C 	C 	0.13535 0.60964 0.24714 0.02500
C 	C 	0.21267 0.65980 0.26123 0.07200
C 	C 	0.23701 0.72513 0.26074 -0.08000
C 	C 	0.18029 0.73499 0.24988 0.01200
N 	N 	0.06773 0.71646 0.21125 -0.15100
C 	C 	0.12187 0.78668 0.20855 0.00200
C 	C 	0.19243 0.79999 0.23250 -0.04100
N 	N 	0.25834 0.65239 0.25749 -0.16900
C 	C 	0.21107 0.59888 0.24038 0.07700
C 	C 	0.13410 0.57103 0.23344 -0.09000
H 	H 	0.02351 0.58974 0.21558 0.05200
H 	H 	0.29795 0.76862 0.26550 0.05700
H 	H 	0.24801 0.84944 0.22775 0.05200
H 	H 	0.08818 0.54409 0.21128 0.05100
H 	H 	0.01822 0.69505 0.18983 0.08500
H 	H 	0.31772 0.69053 0.25936 0.08500
C 	C 	0.86895 0.23975 0.49270 0.07900
C 	C 	0.79612 0.22731 0.47540 -0.09200
C 	C 	0.77899 0.25708 0.48561 0.02400
C 	C 	0.83357 0.30170 0.50972 0.06900
C 	C 	0.90800 0.31815 0.52511 -0.07900
C 	C 	0.92460 0.28582 0.51650 0.00600
N 	N 	0.87867 0.18978 0.50298 -0.15100
C 	C 	0.93898 0.20249 0.53345 -0.00600
C 	C 	0.96941 0.26218 0.54234 -0.02900
N 	N 	0.81735 0.34488 0.50362 -0.16900
C 	C 	0.75327 0.32923 0.47505 0.07500
C 	C 	0.72748 0.27423 0.46335 -0.09200
H 	H 	0.75297 0.19234 0.45654 0.05100
H 	H 	0.95071 0.35303 0.54404 0.05300
H 	H 	0.00071 0.27165 0.57035 0.03500
H 	H 	0.68745 0.26011 0.43693 0.05100
H 	H 	0.83424 0.13986 0.49732 0.08000
H 	H 	0.85538 0.39075 0.51325 0.08300
C 	C 	0.75306 0.56934 0.49773 0.07200
C 	C 	0.76875 0.58626 0.52949 -0.08000
C 	C 	0.84515 0.63895 0.54360 0.01000
C 	C 	0.90338 0.67601 0.52568 0.08200
C 	C 	0.88752 0.66012 0.49346 -0.09000
C 	C 	0.81115 0.60656 0.47962 0.02900
N 	N 	0.69868 0.50345 0.49263 -0.16900
C 	C 	0.72163 0.49768 0.47167 0.07600
C 	C 	0.79121 0.56091 0.46286 -0.08900
N 	N 	0.95932 0.74096 0.53211 -0.15200
C 	C 	0.93659 0.74564 0.55369 0.00400
C 	C 	0.86613 0.68343 0.56156 -0.04500
H 	H 	0.72347 0.55784 0.54338 0.05400
H 	H 	0.93286 0.68860 0.47960 0.06000
H 	H 	0.83157 0.56636 0.45499 0.05400
H 	H 	0.82604 0.67961 0.56869 0.05400
H 	H 	0.66232 0.46066 0.51095 0.08400
H 	H 	0.99789 0.78428 0.51487 0.09900
C 	C 	0.37927 0.18772 0.55638 0.08100
C 	C 	0.37443 0.21020 0.51748 -0.09000
C 	C 	0.40829 0.19969 0.50443 0.02500
C 	C 	0.44660 0.16862 0.52941 0.06400
C 	C 	0.44953 0.14449 0.56812 -0.08300
C 	C 	0.41709 0.15629 0.58121 0.00700
N 	N 	0.32389 0.16441 0.57034 -0.15200
C 	C 	0.32444 0.11676 0.60354 0.00100
C 	C 	0.38239 0.11108 0.61136 -0.05100
N 	N 	0.50447 0.19460 0.51632 -0.16900
C 	C 	0.50528 0.24354 0.48362 0.07300
C 	C 	0.44495 0.24684 0.47493 -0.09100
H 	H 	0.34478 0.23453 0.49802 0.05700
H 	H 	0.47851 0.11952 0.58757 0.04400
H 	H 	0.38120 0.06456 0.62903 0.03600
H 	H 	0.44337 0.29169 0.45651 0.05300
H 	H 	0.27528 0.16433 0.55362 0.08200
H 	H 	0.55318 0.19512 0.53364 0.08000
C 	C 	0.77760 0.14651 0.99136 0.07500
C 	C 	0.72361 0.14570 0.99580 -0.09200
C 	C 	0.74265 0.21025 0.99240 0.02300
C 	C 	0.80957 0.27385 0.98173 0.07100
C 	C 	0.86234 0.27533 0.97564 -0.08100
C 	C 	0.84560 0.21039 0.98111 0.00900
N 	N 	0.78911 0.09601 0.01229 -0.15300
C 	C 	0.86412 0.12685 0.01649 -0.00400
C 	C 	0.90090 0.19784 0.99720 -0.04000
N 	N 	0.80021 0.32589 0.96437 -0.16900
C 	C 	0.72669 0.29534 0.96318 0.07400
C 	C 	0.68982 0.22360 0.98097 -0.09000
H 	H 	0.67062 0.09626 0.00367 0.04500
H 	H 	0.91523 0.32497 0.96779 0.05400
H 	H 	0.96245 0.23810 0.00495 0.04800
H 	H 	0.62797 0.18408 0.97801 0.04700
H 	H 	0.75601 0.05090 0.03141 0.07200
H 	H 	0.83383 0.37390 0.94652 0.08400
C 	C 	0.81174 0.54587 0.02293 0.07100
C 	C 	0.85035 0.56984 0.05578 -0.07800
C 	C 	0.89557 0.64265 0.05156 0.00900
C 	C 	0.90113 0.68943 0.01621 0.08400
C 	C 	0.86202 0.66527 0.98330 -0.08900
C 	C 	0.81593 0.59222 0.98752 0.02600
N 	N 	0.79515 0.48757 0.02175 -0.16800
C 	C 	0.78561 0.49466 0.98537 0.07600
C 	C 	0.80127 0.56069 0.96358 -0.08800
N 	N 	0.91777 0.74782 0.01740 -0.15200
C 	C 	0.92473 0.73965 0.05356 0.00300
C 	C 	0.90815 0.67337 0.07520 -0.04100
H 	H 	0.84615 0.53346 0.08343 0.05300
H 	H 	0.86611 0.70160 0.95563 0.05800
H 	H 	0.78301 0.57476 0.93311 0.05500
H 	H 	0.92430 0.65834 0.10574 0.05000
H 	H 	0.77336 0.43959 0.04212 0.08500
H 	H 	0.93995 0.79601 0.99719 0.09300
C 	C 	0.46679 0.25236 0.01179 0.06900
C 	C 	0.40084 0.23312 0.01658 -0.08100
C 	C 	0.36335 0.17056 0.04359 0.01100
C 	C 	0.39165 0.13050 0.06550 0.07200
C 	C 	0.45694 0.14938 0.06054 -0.09200
C 	C 	0.49418 0.21148 0.03354 0.02500
N 	N 	0.48885 0.28936 0.97894 -0.16900
C 	C 	0.53190 0.27367 0.97984 0.07300
C 	C 	0.53312 0.22280 0.01282 -0.09200
N 	N 	0.37041 0.09391 0.09841 -0.15400
C 	C 	0.32555 0.10758 0.09743 -0.00400
C 	C 	0.32288 0.15784 0.06421 -0.04600
H 	H 	0.37911 0.26477 0.99967 0.05300
H 	H 	0.47849 0.11756 0.07737 0.04600
H 	H 	0.57444 0.21088 0.02451 0.05100
H 	H 	0.27975 0.16767 0.05225 0.04300
H 	H 	0.48812 0.33293 0.96077 0.08200
H 	H 	0.37273 0.05122 0.11678 0.06900
