data_crystal

_cell_length_a 26.03668
_cell_length_b 26.56593
_cell_length_c 26.64553
_cell_angle_alpha 95.46299
_cell_angle_beta  95.46320
_cell_angle_gamma 125.86015

_symmetry_space_group_name_	'P 1'
_symmetry_space_group_name_H-M	'P 1'

loop_
_symmetry_equiv_pos_as_xyz
  x,y,z

loop_
_atom_site_label
_atom_site_type_symbol
_atom_site_fract_x
_atom_site_fract_y
_atom_site_fract_z
_atom_site_charge
C 	C 	0.98660 0.04865 0.99770 0.10500
C 	C 	0.94516 0.98242 0.98722 -0.11800
C 	C 	0.97044 0.94831 0.98351 0.06900
C 	C 	0.03715 0.98037 0.98872 -0.12200
C 	C 	0.07895 0.04662 0.99966 0.10200
C 	C 	0.05365 0.08082 0.00510 -0.16100
H 	H 	0.89341 0.95751 0.98240 0.06000
H 	H 	0.05658 0.95383 0.98517 0.05900
H 	H 	0.08582 0.13204 0.01426 0.06000
C 	C 	0.91898 0.98209 0.44317 0.04100
C 	C 	0.98530 0.01938 0.44261 -0.08100
C 	C 	0.01898 0.99348 0.44733 0.03300
C 	C 	0.98617 0.92993 0.45167 -0.07600
C 	C 	0.92066 0.89335 0.45517 0.03900
C 	C 	0.88689 0.91937 0.45043 -0.08700
H 	H 	0.01061 0.06844 0.43869 0.04400
H 	H 	0.01199 0.90949 0.45380 0.04400
H 	H 	0.83599 0.89101 0.45228 0.04900
Cu	Cu	0.67581 0.28415 0.00818 0.91600
Cu	Cu	0.68745 0.24337 0.89292 0.87100
Cu	Cu	0.67090 0.35456 0.92623 0.90900
Cu	Cu	0.66237 0.39522 0.03375 0.88400
C 	C 	0.69440 0.33921 0.11228 0.29200
O 	O 	0.58391 0.23540 0.02091 -0.38100
C 	C 	0.67125 0.31285 0.82548 0.29300
O 	O 	0.70864 0.37536 0.99731 -0.61900
O 	O 	0.64448 0.26845 0.93351 -0.63100
O 	O 	0.73584 0.26012 0.00796 -0.39500
O 	O 	0.68386 0.18730 0.93375 -0.43400
O 	O 	0.69089 0.38509 0.10210 -0.39300
O 	O 	0.70368 0.43996 0.92066 -0.38300
C 	C 	0.70649 0.47943 0.95684 0.29600
C 	C 	0.54836 0.25473 0.01098 0.28000
O 	O 	0.57242 0.30756 0.99384 -0.38200
O 	O 	0.67170 0.45886 0.99321 -0.39500
O 	O 	0.71267 0.31446 0.07983 -0.37000
C 	C 	0.72256 0.20979 0.97844 0.30900
O 	O 	0.64379 0.33126 0.85267 -0.38500
O 	O 	0.71251 0.30529 0.84881 -0.43500
H 	H 	0.75595 0.40841 0.00481 0.14200
H 	H 	0.59708 0.23657 0.92390 0.15800
Cu	Cu	0.72154 0.32249 0.42794 0.92600
Cu	Cu	0.72260 0.26971 0.53379 0.86400
Cu	Cu	0.62617 0.29032 0.49998 0.89400
Cu	Cu	0.60076 0.32053 0.39847 0.89300
C 	C 	0.68059 0.31988 0.32300 0.29800
O 	O 	0.76117 0.41518 0.43044 -0.37800
C 	C 	0.67171 0.30263 0.60977 0.28700
O 	O 	0.62216 0.27180 0.42762 -0.64100
O 	O 	0.71972 0.33087 0.50209 -0.64300
O 	O 	0.76601 0.28180 0.42617 -0.37700
O 	O 	0.70111 0.21125 0.47408 -0.45000
O 	O 	0.63271 0.32180 0.33272 -0.39100
O 	O 	0.53386 0.24480 0.49405 -0.38900
C 	C 	0.49653 0.24579 0.45759 0.29700
C 	C 	0.73467 0.44035 0.44964 0.29200
O 	O 	0.67438 0.40379 0.45541 -0.39900
O 	O 	0.52116 0.28819 0.42751 -0.40000
O 	O 	0.70692 0.30234 0.35481 -0.37100
C 	C 	0.74085 0.22773 0.44168 0.29700
O 	O 	0.63197 0.30285 0.57495 -0.38400
O 	O 	0.72231 0.30721 0.59839 -0.42500
H 	H 	0.59382 0.22618 0.41229 0.15900
H 	H 	0.74843 0.37451 0.52223 0.17000
C 	C 	0.61603 0.25996 0.73558 -0.04500
C 	C 	0.66692 0.31418 0.77027 -0.10400
C 	C 	0.71551 0.36746 0.75169 0.10900
C 	C 	0.71459 0.36368 0.69866 -0.04600
C 	C 	0.66563 0.30813 0.66403 -0.09300
C 	C 	0.61483 0.25623 0.68249 0.09600
N 	N 	0.56564 0.20235 0.64971 -0.20000
H 	H 	0.57816 0.21975 0.74999 0.02800
H 	H 	0.75274 0.40378 0.68434 0.04300
N 	N 	0.76292 0.42227 0.78443 -0.20000
H 	H 	0.52877 0.16417 0.66383 0.07400
H 	H 	0.56316 0.19776 0.61006 0.07800
H 	H 	0.76321 0.42773 0.82381 0.09300
H 	H 	0.79942 0.46087 0.77043 0.07900
C 	C 	0.74289 0.38431 0.20463 -0.04300
C 	C 	0.69869 0.33094 0.16619 -0.09100
C 	C 	0.65486 0.27163 0.18023 0.10000
C 	C 	0.65238 0.26828 0.23231 -0.04100
C 	C 	0.69361 0.32251 0.27044 -0.09400
C 	C 	0.74116 0.38053 0.25673 0.10300
N 	N 	0.78499 0.43271 0.29328 -0.20200
H 	H 	0.77793 0.42924 0.19394 0.04400
H 	H 	0.61699 0.22355 0.24310 0.04100
N 	N 	0.61466 0.21805 0.14412 -0.20100
H 	H 	0.81850 0.47600 0.28284 0.07900
H 	H 	0.78762 0.43040 0.33222 0.09200
H 	H 	0.61942 0.21736 0.10576 0.09400
H 	H 	0.57993 0.17534 0.15474 0.07900
C 	C 	0.78068 0.60182 0.50213 -0.09800
C 	C 	0.82031 0.63749 0.46842 0.00900
C 	C 	0.84165 0.61150 0.43517 0.01900
C 	C 	0.81487 0.54713 0.43044 -0.01600
C 	C 	0.77136 0.50997 0.46162 -0.11500
C 	C 	0.75892 0.53923 0.50091 0.09700
C 	C 	0.83949 0.70213 0.46837 -0.01400
C 	C 	0.89220 0.65184 0.40435 -0.16900
H 	H 	0.82693 0.52575 0.40182 0.03700
C 	C 	0.72322 0.50458 0.54175 -0.20000
H 	H 	0.76707 0.62290 0.52953 0.05000
C 	C 	0.81045 0.71457 0.42884 0.04300
C 	C 	0.83661 0.77746 0.42537 -0.06400
C 	C 	0.88739 0.82745 0.46340 -0.02900
C 	C 	0.90946 0.81393 0.50704 0.05000
C 	C 	0.88743 0.75163 0.50798 -0.07300
C 	C 	0.75222 0.66124 0.39017 -0.18000
H 	H 	0.81807 0.78756 0.39277 0.04000
C 	C 	0.95772 0.86566 0.55192 -0.17800
H 	H 	0.90775 0.74166 0.53948 0.04400
H 	H 	0.67043 0.47657 0.52783 0.07400
H 	H 	0.73658 0.53834 0.57735 0.06400
H 	H 	0.73543 0.47279 0.55219 0.06700
H 	H 	0.93266 0.69767 0.42886 0.06200
H 	H 	0.87075 0.66089 0.37173 0.05800
H 	H 	0.91274 0.62831 0.38872 0.05700
H 	H 	0.72774 0.67793 0.36890 0.05700
H 	H 	0.71653 0.62376 0.40973 0.06300
H 	H 	0.76691 0.64064 0.36203 0.06000
H 	H 	0.95240 0.84652 0.58793 0.05900
H 	H 	0.95054 0.90294 0.55787 0.06300
H 	H 	0.00738 0.88698 0.54513 0.05600
C 	C 	0.74235 0.08664 0.41176 -0.09900
C 	C 	0.80863 0.11574 0.42380 0.00900
C 	C 	0.85305 0.18239 0.43363 0.01800
C 	C 	0.83013 0.21887 0.43655 -0.01600
C 	C 	0.76363 0.18961 0.42827 -0.11900
C 	C 	0.71949 0.12317 0.41259 0.09800
C 	C 	0.83107 0.07610 0.42819 -0.01400
C 	C 	0.92470 0.21465 0.44288 -0.16900
H 	H 	0.86404 0.26993 0.44721 0.03100
C 	C 	0.64805 0.09084 0.39814 -0.20100
H 	H 	0.70846 0.03548 0.40268 0.04900
C 	C 	0.84165 0.06173 0.47606 0.04100
C 	C 	0.86867 0.02915 0.48009 -0.06300
C 	C 	0.88337 0.00922 0.43676 -0.03200
C 	C 	0.86814 0.01936 0.38819 0.05000
C 	C 	0.84307 0.05372 0.38446 -0.07300
C 	C 	0.82545 0.08215 0.52299 -0.17800
H 	H 	0.87944 0.02035 0.51714 0.03900
C 	C 	0.88071 0.99571 0.34065 -0.18100
H 	H 	0.83378 0.06388 0.34763 0.04300
H 	H 	0.62694 0.08472 0.43336 0.06600
H 	H 	0.62312 0.04349 0.37368 0.06100
H 	H 	0.63876 0.11894 0.37595 0.06900
H 	H 	0.93717 0.19575 0.41119 0.06200
H 	H 	0.93976 0.20649 0.47974 0.05700
H 	H 	0.95267 0.26648 0.44470 0.05600
H 	H 	0.83213 0.06329 0.55647 0.05500
H 	H 	0.77429 0.06444 0.51529 0.05900
H 	H 	0.85712 0.13453 0.53346 0.05700
H 	H 	0.85561 0.99697 0.30520 0.05900
H 	H 	0.86288 0.94596 0.33948 0.06300
H 	H 	0.93328 0.02577 0.34047 0.06100
C 	C 	0.32154 0.10908 0.45287 -0.09500
C 	C 	0.29340 0.14068 0.45522 0.00800
C 	C 	0.33228 0.20705 0.45988 0.01900
C 	C 	0.39889 0.24084 0.46171 -0.01300
C 	C 	0.42697 0.20918 0.45825 -0.10900
C 	C 	0.38796 0.14266 0.45343 0.09200
C 	C 	0.22295 0.10379 0.45275 -0.01400
C 	C 	0.30299 0.24198 0.46322 -0.16900
H 	H 	0.42899 0.29188 0.46570 0.03700
C 	C 	0.41676 0.10734 0.44899 -0.19700
H 	H 	0.29147 0.05815 0.44980 0.04800
C 	C 	0.18000 0.07581 0.40501 0.04100
C 	C 	0.11335 0.04056 0.40386 -0.06400
C 	C 	0.08932 0.03356 0.44960 -0.03000
C 	C 	0.13237 0.06286 0.49729 0.05000
C 	C 	0.19890 0.09697 0.49847 -0.07300
C 	C 	0.20500 0.08264 0.35540 -0.17900
H 	H 	0.08005 0.01809 0.36736 0.03900
C 	C 	0.10749 0.05689 0.54692 -0.18300
H 	H 	0.23213 0.11863 0.53499 0.04400
H 	H 	0.44671 0.12167 0.41873 0.05600
H 	H 	0.37880 0.05542 0.43849 0.05800
H 	H 	0.44706 0.11751 0.48628 0.06700
H 	H 	0.28237 0.23626 0.49868 0.06000
H 	H 	0.26425 0.22310 0.42931 0.05900
H 	H 	0.33935 0.29336 0.46424 0.05600
H 	H 	0.16559 0.06104 0.32147 0.05600
H 	H 	0.22858 0.05893 0.35249 0.06000
H 	H 	0.24053 0.13345 0.35393 0.06100
H 	H 	0.08034 0.00716 0.55254 0.06000
H 	H 	0.07521 0.07140 0.54608 0.06200
H 	H 	0.14741 0.08738 0.58047 0.05800
C 	C 	0.74490 0.63952 0.94982 -0.09600
C 	C 	0.81205 0.67675 0.95397 0.00500
C 	C 	0.84369 0.64808 0.95451 0.02300
C 	C 	0.80795 0.58291 0.95381 -0.01600
C 	C 	0.74118 0.54611 0.95196 -0.11200
C 	C 	0.70886 0.57400 0.94746 0.10200
C 	C 	0.84939 0.74620 0.96109 0.00400
C 	C 	0.91583 0.68722 0.95817 -0.17100
H 	H 	0.83235 0.56106 0.95613 0.02800
C 	C 	0.63641 0.53461 0.94119 -0.20400
H 	H 	0.72076 0.66170 0.94881 0.05100
C 	C 	0.86051 0.77668 0.91843 0.03800
C 	C 	0.89962 0.84296 0.92641 -0.06000
C 	C 	0.92715 0.87882 0.97627 -0.02600
C 	C 	0.91429 0.84826 0.01894 0.04200
C 	C 	0.87548 0.78205 0.01096 -0.09100
C 	C 	0.83127 0.73875 0.86454 -0.17800
H 	H 	0.90915 0.86674 0.89383 0.04000
C 	C 	0.94285 0.88610 0.07291 -0.18200
H 	H 	0.86631 0.75830 0.04354 0.04300
H 	H 	0.61801 0.56000 0.92633 0.06500
H 	H 	0.62194 0.52369 0.97884 0.07700
H 	H 	0.61313 0.48983 0.91336 0.07700
H 	H 	0.94043 0.71799 0.99667 0.06400
H 	H 	0.93086 0.71714 0.92832 0.06100
H 	H 	0.93212 0.65703 0.95232 0.05800
H 	H 	0.84444 0.76965 0.83544 0.05800
H 	H 	0.77785 0.70709 0.85969 0.06300
H 	H 	0.84861 0.70978 0.85683 0.06200
H 	H 	0.92546 0.85515 0.10201 0.05700
H 	H 	0.92909 0.91835 0.07909 0.06000
H 	H 	0.99625 0.91442 0.07933 0.06000
C 	C 	0.77778 0.10654 0.99019 -0.10500
C 	C 	0.84499 0.15211 0.99988 0.04400
C 	C 	0.87192 0.21693 0.00627 0.00100
C 	C 	0.83107 0.23505 0.00053 -0.02800
C 	C 	0.76379 0.18942 0.98931 -0.10500
C 	C 	0.73685 0.12475 0.98600 0.09700
C 	C 	0.88685 0.13137 0.00118 -0.04800
C 	C 	0.94409 0.26672 0.01726 -0.18100
H 	H 	0.85169 0.28469 0.00347 0.03000
C 	C 	0.66477 0.07495 0.97706 -0.18200
H 	H 	0.75734 0.05683 0.98574 0.05400
C 	C 	0.90385 0.11656 0.04641 0.04400
C 	C 	0.93976 0.09270 0.04545 -0.05200
C 	C 	0.95929 0.08408 0.00018 -0.07600
C 	C 	0.94517 0.10204 0.95574 0.07100
C 	C 	0.90851 0.12505 0.95649 -0.05600
C 	C 	0.88173 0.12380 0.09507 -0.18200
H 	H 	0.95083 0.07896 0.07950 0.03500
C 	C 	0.96721 0.09469 0.90705 -0.18600
H 	H 	0.89607 0.13733 0.92208 0.03900
H 	H 	0.64247 0.09030 0.00171 0.05400
H 	H 	0.65226 0.02961 0.98654 0.06100
H 	H 	0.64377 0.06624 0.93612 0.06700
H 	H 	0.96432 0.26415 0.98309 0.07100
H 	H 	0.96653 0.25934 0.05050 0.06100
H 	H 	0.95739 0.31508 0.02673 0.05600
H 	H 	0.90428 0.11631 0.12819 0.05800
H 	H 	0.82856 0.08867 0.08999 0.06000
H 	H 	0.89513 0.17216 0.10464 0.06300
H 	H 	0.94289 0.04381 0.89211 0.06400
H 	H 	0.02025 0.12005 0.91474 0.06100
H 	H 	0.95581 0.11448 0.87675 0.05900
C 	C 	0.24990 0.13825 0.97405 -0.06700
C 	C 	0.28049 0.13020 0.01532 -0.02100
C 	C 	0.24562 0.09747 0.05286 0.03300
C 	C 	0.18073 0.07389 0.04877 -0.04700
C 	C 	0.14942 0.07988 0.00651 -0.08000
C 	C 	0.18413 0.11187 0.96854 0.07800
C 	C 	0.34951 0.15709 0.01925 -0.00600
C 	C 	0.27736 0.08769 0.09729 -0.17500
H 	H 	0.15393 0.04921 0.07776 0.03200
C 	C 	0.15151 0.11840 0.92240 -0.19400
H 	H 	0.27712 0.16412 0.94569 0.04500
C 	C 	0.36886 0.12749 0.98766 0.03200
C 	C 	0.43479 0.15856 0.98709 0.00000
C 	C 	0.48129 0.21730 0.01907 -0.12600
C 	C 	0.46209 0.24329 0.05465 0.09400
C 	C 	0.39623 0.21415 0.05316 -0.09400
C 	C 	0.31947 0.06430 0.95301 -0.17300
H 	H 	0.44974 0.13801 0.96059 0.02700
C 	C 	0.51161 0.30295 0.09325 -0.20100
H 	H 	0.38127 0.23609 0.07815 0.04700
H 	H 	0.18274 0.13691 0.89317 0.06100
H 	H 	0.14035 0.15165 0.93441 0.06500
H 	H 	0.10618 0.07173 0.90375 0.06500
H 	H 	0.31398 0.13365 0.12341 0.06000
H 	H 	0.30108 0.06693 0.08305 0.05800
H 	H 	0.24177 0.05495 0.11976 0.05400
H 	H 	0.34209 0.04278 0.93776 0.05600
H 	H 	0.29520 0.07029 0.92011 0.06100
H 	H 	0.28284 0.03086 0.97447 0.06400
H 	H 	0.48981 0.30940 0.12479 0.06200
H 	H 	0.53268 0.34451 0.07407 0.04900
H 	H 	0.55064 0.30094 0.11091 0.06600
