data_crystal

_cell_length_a 30.75703
_cell_length_b 31.18804
_cell_length_c 34.67728
_cell_angle_alpha 95.55865
_cell_angle_beta  95.55822
_cell_angle_gamma 125.57574

_symmetry_space_group_name_	'P 1'
_symmetry_space_group_name_H-M	'P 1'

loop_
_symmetry_equiv_pos_as_xyz
  x,y,z

loop_
_atom_site_label
_atom_site_type_symbol
_atom_site_fract_x
_atom_site_fract_y
_atom_site_fract_z
_atom_site_charge
C 	C 	0.97062 0.02326 0.99590 0.03800
C 	C 	0.02587 0.05358 0.99311 -0.08300
C 	C 	0.05218 0.02903 0.99122 0.03700
C 	C 	0.02316 0.97411 0.99191 -0.08400
C 	C 	0.96801 0.94371 0.99468 0.03800
C 	C 	0.94179 0.96832 0.99672 -0.08200
H 	H 	0.04823 0.09603 0.99240 0.05100
H 	H 	0.04339 0.95503 0.99008 0.05100
H 	H 	0.89918 0.94488 0.99910 0.05100
C 	C 	0.93967 0.99757 0.44402 0.02800
C 	C 	0.90942 0.94265 0.44550 -0.07500
C 	C 	0.93501 0.91725 0.44621 0.03000
C 	C 	0.99080 0.94685 0.44548 -0.07200
C 	C 	0.02109 0.00166 0.44406 0.02800
C 	C 	0.99539 0.02685 0.44306 -0.07000
H 	H 	0.86641 0.91997 0.44645 0.05000
H 	H 	0.01074 0.92744 0.44661 0.04800
H 	H 	0.01877 0.06924 0.44185 0.04800
Cu	Cu	0.64393 0.25252 0.99967 0.92700
Cu	Cu	0.68764 0.25193 0.91690 0.87000
Cu	Cu	0.68271 0.34050 0.95039 0.89700
Cu	Cu	0.64839 0.35459 0.02592 0.89400
C 	C 	0.65976 0.29343 0.08164 0.28500
O 	O 	0.56490 0.22341 0.99689 -0.36400
C 	C 	0.66620 0.30477 0.86445 0.28700
O 	O 	0.69103 0.33648 0.00496 -0.63900
O 	O 	0.64042 0.26062 0.94377 -0.64100
O 	O 	0.67470 0.21120 0.99783 -0.37600
O 	O 	0.73696 0.26462 0.96171 -0.44200
O 	O 	0.63636 0.31618 0.07109 -0.38300
O 	O 	0.72700 0.41805 0.96094 -0.38300
C 	C 	0.72163 0.44740 0.98739 0.28700
C 	C 	0.54592 0.24804 0.98218 0.28300
O 	O 	0.57997 0.29820 0.97837 -0.39400
O 	O 	0.68277 0.42516 0.00856 -0.39300
O 	O 	0.65872 0.25866 0.05577 -0.35500
C 	C 	0.72077 0.23012 0.98561 0.29000
O 	O 	0.68776 0.34526 0.89440 -0.38600
O 	O 	0.65677 0.25897 0.86970 -0.41900
H 	H 	0.72932 0.35795 0.01900 0.16300
H 	H 	0.60319 0.24098 0.92811 0.17200
Cu	Cu	0.72444 0.33578 0.44941 0.92700
Cu	Cu	0.72086 0.29239 0.53256 0.87100
Cu	Cu	0.63569 0.30282 0.49842 0.89700
Cu	Cu	0.62525 0.33762 0.42252 0.89400
C 	C 	0.68992 0.32810 0.36712 0.28700
O 	O 	0.75814 0.41487 0.45190 -0.36300
C 	C 	0.67004 0.31747 0.58467 0.28600
O 	O 	0.63983 0.29317 0.44386 -0.64100
O 	O 	0.71627 0.34101 0.50533 -0.64000
O 	O 	0.76212 0.30073 0.45133 -0.37200
O 	O 	0.70502 0.24248 0.48782 -0.44200
O 	O 	0.66552 0.34974 0.37793 -0.38300
O 	O 	0.55728 0.26224 0.48759 -0.38100
C 	C 	0.52912 0.26786 0.45996 0.28900
C 	C 	0.73486 0.43606 0.46569 0.28200
O 	O 	0.68394 0.40444 0.46997 -0.39200
O 	O 	0.55349 0.30640 0.43912 -0.39500
O 	O 	0.71751 0.32014 0.39336 -0.36100
C 	C 	0.74109 0.25602 0.46512 0.28900
O 	O 	0.62993 0.29917 0.55457 -0.38400
O 	O 	0.71576 0.32525 0.57932 -0.42000
H 	H 	0.61656 0.25528 0.42992 0.16400
H 	H 	0.73766 0.37799 0.52082 0.17300
C 	C 	0.64460 0.27946 0.68654 -0.00100
C 	C 	0.62043 0.25679 0.71826 -0.05700
C 	C 	0.65072 0.28460 0.75639 0.01300
C 	C 	0.70117 0.33504 0.76195 -0.00200
C 	C 	0.72096 0.36118 0.73036 -0.05700
C 	C 	0.69288 0.33155 0.69217 0.01300
S 	S 	0.61278 0.26278 0.64023 0.01000
C 	C 	0.65950 0.31905 0.62490 -0.07400
C 	C 	0.70170 0.35383 0.65754 -0.02200
S 	S 	0.71707 0.36465 0.80870 0.01200
C 	C 	0.66272 0.31454 0.82414 -0.07600
C 	C 	0.62925 0.27260 0.79139 -0.02200
H 	H 	0.57942 0.22002 0.71353 0.04300
H 	H 	0.75569 0.40305 0.73528 0.04300
H 	H 	0.73861 0.39225 0.65575 0.03800
H 	H 	0.59214 0.23432 0.79311 0.03800
C 	C 	0.68624 0.34555 0.25887 -0.00100
C 	C 	0.69993 0.36569 0.22417 -0.05600
C 	C 	0.67618 0.32846 0.18863 0.01700
C 	C 	0.64318 0.27327 0.18863 -0.00200
C 	C 	0.63705 0.25347 0.22386 -0.05500
C 	C 	0.65741 0.29059 0.25926 0.01600
S 	S 	0.72022 0.37907 0.30412 0.02200
C 	C 	0.69840 0.32628 0.32638 -0.06800
C 	C 	0.66362 0.27954 0.29730 -0.02700
S 	S 	0.63675 0.24144 0.14477 0.02900
C 	C 	0.67326 0.29545 0.12378 -0.07300
C 	C 	0.69283 0.34109 0.15220 -0.02300
H 	H 	0.72909 0.40831 0.22491 0.04400
H 	H 	0.61877 0.21149 0.22380 0.04500
H 	H 	0.64156 0.23935 0.30367 0.03600
H 	H 	0.71572 0.38146 0.14616 0.03100
C 	C 	0.90383 0.85987 0.44853 -0.00500
C 	C 	0.89583 0.82286 0.41687 -0.03300
C 	C 	0.87334 0.77000 0.42101 -0.04600
C 	C 	0.85869 0.75377 0.45680 0.01900
C 	C 	0.86478 0.79011 0.48798 -0.04600
C 	C 	0.88725 0.84303 0.48386 -0.03300
C 	C 	0.83979 0.70060 0.46203 -0.01500
C 	C 	0.82405 0.65589 0.46572 -0.02700
C 	C 	0.80551 0.60230 0.46928 0.04000
C 	C 	0.76401 0.57232 0.49036 -0.07100
C 	C 	0.74276 0.51873 0.49092 0.01300
C 	C 	0.76265 0.49459 0.47008 -0.09100
C 	C 	0.80594 0.52560 0.45042 0.01500
C 	C 	0.82714 0.57917 0.44999 -0.07100
H 	H 	0.90839 0.83545 0.38946 0.03700
H 	H 	0.86839 0.74202 0.39668 0.04100
H 	H 	0.85322 0.77775 0.51566 0.04100
H 	H 	0.89331 0.87132 0.50848 0.03700
H 	H 	0.74748 0.59015 0.50570 0.04700
H 	H 	0.71013 0.49573 0.50684 0.03100
H 	H 	0.82199 0.50780 0.43439 0.03800
H 	H 	0.85956 0.60228 0.43390 0.04800
C 	C 	0.76303 0.22486 0.45967 -0.10000
C 	C 	0.78841 0.22720 0.42749 0.02000
C 	C 	0.80942 0.19779 0.42290 -0.07300
C 	C 	0.80518 0.16596 0.45038 0.04200
C 	C 	0.77964 0.16336 0.48227 -0.07500
C 	C 	0.75870 0.19261 0.48695 0.01600
C 	C 	0.82848 0.13720 0.44678 -0.02800
C 	C 	0.84732 0.11241 0.44510 -0.01500
C 	C 	0.87014 0.08306 0.44475 0.01900
C 	C 	0.90850 0.09431 0.47717 -0.04600
C 	C 	0.93016 0.06544 0.47734 -0.03400
C 	C 	0.91364 0.02508 0.44503 -0.00400
C 	C 	0.87473 0.01339 0.41276 -0.03300
C 	C 	0.85304 0.04233 0.41263 -0.04600
H 	H 	0.79167 0.25149 0.40603 0.03800
H 	H 	0.82915 0.19999 0.39813 0.05000
H 	H 	0.77641 0.13899 0.50369 0.04600
H 	H 	0.73969 0.19068 0.51209 0.01300
H 	H 	0.92159 0.12547 0.50222 0.04000
H 	H 	0.96011 0.07470 0.50240 0.03700
H 	H 	0.86190 0.98246 0.38761 0.03700
H 	H 	0.82312 0.03317 0.38758 0.04200
C 	C 	0.46951 0.23607 0.45671 -0.08900
C 	C 	0.44003 0.18441 0.46591 0.01700
C 	C 	0.38370 0.15465 0.46349 -0.07200
C 	C 	0.35643 0.17621 0.45185 0.04200
C 	C 	0.38557 0.22750 0.44237 -0.07200
C 	C 	0.44188 0.25737 0.44476 0.01700
C 	C 	0.29864 0.14608 0.45022 -0.02700
C 	C 	0.25026 0.12105 0.44880 -0.01500
C 	C 	0.19256 0.09144 0.44731 0.01900
C 	C 	0.17303 0.10409 0.47795 -0.04600
C 	C 	0.11701 0.07501 0.47677 -0.03300
C 	C 	0.08015 0.03309 0.44487 -0.00400
C 	C 	0.09979 0.02064 0.41411 -0.03300
C 	C 	0.15584 0.04975 0.41535 -0.04700
H 	H 	0.46067 0.16725 0.47477 0.03000
H 	H 	0.36135 0.11493 0.47078 0.04800
H 	H 	0.36470 0.24441 0.43338 0.04800
H 	H 	0.46405 0.29726 0.43783 0.03300
H 	H 	0.20122 0.13628 0.50275 0.04200
H 	H 	0.10225 0.08475 0.50073 0.03700
H 	H 	0.07164 0.98845 0.38932 0.03600
H 	H 	0.17068 0.03982 0.39153 0.04100
C 	C 	0.75409 0.50584 0.98906 -0.09200
C 	C 	0.76635 0.54021 0.02434 0.01900
C 	C 	0.79390 0.59519 0.02533 -0.06900
C 	C 	0.80948 0.61628 0.99116 0.03800
C 	C 	0.79837 0.58237 0.95612 -0.07100
C 	C 	0.77082 0.52733 0.95503 0.01800
C 	C 	0.83584 0.67254 0.99190 -0.02700
C 	C 	0.85791 0.71970 0.99276 -0.01500
C 	C 	0.88430 0.77604 0.99392 0.01700
C 	C 	0.86862 0.79315 0.96318 -0.04700
C 	C 	0.89522 0.84796 0.96381 -0.03200
C 	C 	0.93770 0.88596 0.99520 -0.01100
C 	C 	0.95277 0.86870 0.02625 -0.02900
C 	C 	0.92614 0.81389 0.02558 -0.04400
H 	H 	0.75430 0.52428 0.05091 0.02500
H 	H 	0.80270 0.62130 0.05259 0.04700
H 	H 	0.81048 0.59850 0.92961 0.04800
H 	H 	0.76145 0.50132 0.92756 0.03800
H 	H 	0.83618 0.76405 0.93867 0.04100
H 	H 	0.88341 0.86092 0.93966 0.03600
H 	H 	0.98540 0.89776 0.05067 0.03700
H 	H 	0.93830 0.80090 0.04952 0.04100
C 	C 	0.75200 0.20932 0.99589 -0.10100
C 	C 	0.72498 0.15594 0.00118 0.02100
C 	C 	0.75360 0.13404 0.00535 -0.07400
C 	C 	0.80936 0.16534 0.00446 0.04100
C 	C 	0.83695 0.21933 0.00121 -0.07000
C 	C 	0.80844 0.24131 0.99698 0.01400
C 	C 	0.83727 0.14101 0.00375 -0.02600
C 	C 	0.86061 0.12059 0.00317 -0.01700
C 	C 	0.88811 0.09588 0.00158 0.02600
C 	C 	0.93171 0.11282 0.03166 -0.05000
C 	C 	0.95897 0.08938 0.02971 -0.02600
C 	C 	0.94274 0.04887 0.99760 -0.01300
C 	C 	0.89914 0.03208 0.96747 -0.02900
C 	C 	0.87191 0.05550 0.96949 -0.05300
H 	H 	0.68153 0.13085 0.00058 0.03200
H 	H 	0.73210 0.09233 0.00813 0.04900
H 	H 	0.88019 0.24392 0.00090 0.04700
H 	H 	0.82998 0.28283 0.99369 0.02700
H 	H 	0.94451 0.14410 0.05652 0.04300
H 	H 	0.99243 0.10244 0.05319 0.03700
H 	H 	0.88641 0.00094 0.94253 0.03500
H 	H 	0.83833 0.04235 0.94607 0.04100
C 	C 	0.11025 0.06072 0.98870 -0.01100
C 	C 	0.12702 0.07883 0.95374 -0.03200
C 	C 	0.18117 0.10363 0.94979 -0.04700
C 	C 	0.21877 0.11048 0.98077 0.01600
C 	C 	0.20242 0.09384 0.01610 -0.04400
C 	C 	0.14834 0.06904 0.02008 -0.02900
C 	C 	0.27369 0.13306 0.97598 -0.01500
C 	C 	0.31992 0.15184 0.97274 -0.02800
C 	C 	0.37542 0.17426 0.96990 0.04100
C 	C 	0.39437 0.14309 0.97285 -0.07200
C 	C 	0.44971 0.16651 0.97494 0.01700
C 	C 	0.48664 0.22153 0.97440 -0.09200
C 	C 	0.46693 0.25197 0.96940 0.01400
C 	C 	0.41157 0.22839 0.96729 -0.07200
H 	H 	0.09787 0.07253 0.92935 0.03600
H 	H 	0.19363 0.11668 0.92246 0.04100
H 	H 	0.23138 0.09933 0.04026 0.04200
H 	H 	0.13576 0.05531 0.04721 0.03700
H 	H 	0.36648 0.10103 0.97450 0.04800
H 	H 	0.46396 0.14215 0.97787 0.03300
H 	H 	0.49463 0.29424 0.96839 0.03000
H 	H 	0.39707 0.25260 0.96467 0.04700
