data_crystal

_cell_length_a 20.55446
_cell_length_b 20.23732
_cell_length_c 46.60236
_cell_angle_alpha 89.83234
_cell_angle_beta  89.83191
_cell_angle_gamma 119.46442

_symmetry_space_group_name_	'P 1'
_symmetry_space_group_name_H-M	'P 1'

loop_
_symmetry_equiv_pos_as_xyz
  x,y,z

loop_
_atom_site_label
_atom_site_type_symbol
_atom_site_fract_x
_atom_site_fract_y
_atom_site_fract_z
_atom_site_charge
C 	C 	0.57367 0.22221 0.86743 0.25500
C 	C 	0.70881 0.51880 0.92308 0.28100
C 	C 	0.76499 0.38258 0.86127 0.28100
C 	C 	0.52063 0.37401 0.93443 0.31600
C 	C 	0.79907 0.38512 0.95670 0.33000
C 	C 	0.60509 0.20463 0.95982 0.29200
Ni	Ni	0.62851 0.38339 0.88551 1.11300
Ni	Ni	0.65173 0.37069 0.95398 1.12000
Ni	Ni	0.70212 0.28363 0.91038 1.11900
O 	O 	0.55579 0.27675 0.86974 -0.36200
O 	O 	0.64230 0.23449 0.87355 -0.36800
O 	O 	0.76265 0.42238 0.95482 -0.39800
O 	O 	0.71208 0.48831 0.89878 -0.36700
O 	O 	0.66677 0.47629 0.94442 -0.37200
O 	O 	0.62999 0.19584 0.93459 -0.38700
O 	O 	0.70319 0.38337 0.85473 -0.35900
O 	O 	0.77820 0.37411 0.88800 -0.38100
O 	O 	0.63564 0.27214 0.97273 -0.38400
O 	O 	0.54409 0.39524 0.90747 -0.36700
O 	O 	0.54197 0.33252 0.94907 -0.39300
O 	O 	0.77437 0.31890 0.94403 -0.38400
O 	O 	0.64421 0.33221 0.91640 -0.71200
H 	H 	0.59454 0.28669 0.91757 0.16000
C 	C 	0.81646 0.44047 0.53620 0.28800
C 	C 	0.53412 0.16392 0.54590 0.31000
C 	C 	0.62084 0.41247 0.52331 0.32600
C 	C 	0.72293 0.20082 0.56526 0.25500
C 	C 	0.55436 0.33508 0.61141 0.28100
C 	C 	0.74468 0.38279 0.63079 0.26700
Ni	Ni	0.67195 0.29656 0.52992 1.11300
Ni	Ni	0.62640 0.24736 0.59674 1.12000
Ni	Ni	0.69473 0.42099 0.57792 1.12000
O 	O 	0.78420 0.37149 0.52522 -0.37600
O 	O 	0.77604 0.47028 0.54664 -0.37600
O 	O 	0.54440 0.27302 0.59888 -0.37900
O 	O 	0.55868 0.23143 0.53538 -0.38400
O 	O 	0.55793 0.15696 0.57130 -0.37300
O 	O 	0.76706 0.42576 0.60742 -0.38500
O 	O 	0.65586 0.38105 0.51053 -0.37200
O 	O 	0.61280 0.40906 0.55114 -0.38700
O 	O 	0.68318 0.31423 0.63116 -0.37400
O 	O 	0.69041 0.20564 0.54113 -0.36300
O 	O 	0.70160 0.21180 0.59097 -0.36900
O 	O 	0.61967 0.39766 0.61012 -0.37800
O 	O 	0.68212 0.32410 0.56873 -0.71200
H 	H 	0.73284 0.33280 0.57252 0.16000
C 	C 	0.15088 0.06642 0.78103 0.25400
C 	C 	0.91358 0.82658 0.71291 0.28100
C 	C 	0.14155 0.02930 0.70530 0.26800
C 	C 	0.90455 0.87001 0.79295 0.26000
C 	C 	0.94116 0.04478 0.68938 0.26600
C 	C 	0.93837 0.10362 0.76584 0.25800
Ni	Ni	0.03761 0.92685 0.75152 1.11400
Ni	Ni	0.89292 0.94759 0.74062 1.12200
Ni	Ni	0.05656 0.09057 0.73475 1.11900
O 	O 	0.09782 0.99539 0.78522 -0.36100
O 	O 	0.14693 0.10977 0.76000 -0.36700
O 	O 	0.90570 0.97415 0.69861 -0.36700
O 	O 	0.98619 0.86869 0.71455 -0.37300
O 	O 	0.86973 0.84067 0.72935 -0.36900
O 	O 	0.01109 0.12627 0.76490 -0.37100
O 	O 	0.13622 0.98754 0.72777 -0.35600
O 	O 	0.09402 0.05396 0.70166 -0.38300
O 	O 	0.88786 0.04289 0.75141 -0.37800
O 	O 	0.94717 0.85112 0.77725 -0.36200
O 	O 	0.87184 0.90648 0.78140 -0.36400
O 	O 	0.98725 0.09991 0.70634 -0.38000
O 	O 	0.99628 0.99102 0.74915 -0.70600
H 	H 	0.99512 0.00302 0.76955 0.14700
C 	C 	0.29025 0.83600 0.41475 0.25600
C 	C 	0.41876 0.63815 0.44614 0.30900
C 	C 	0.48299 0.87658 0.41280 0.33500
C 	C 	0.22160 0.61326 0.45483 0.30400
C 	C 	0.41555 0.67591 0.35411 0.28000
C 	C 	0.22186 0.62436 0.35493 0.26800
Ni	Ni	0.36633 0.75392 0.44371 1.11400
Ni	Ni	0.30582 0.60881 0.40198 1.11900
Ni	Ni	0.35799 0.77313 0.37446 1.12100
O 	O 	0.33960 0.84024 0.43431 -0.35700
O 	O 	0.29113 0.81385 0.38796 -0.36600
O 	O 	0.35427 0.61570 0.36327 -0.37900
O 	O 	0.39589 0.67729 0.46149 -0.37100
O 	O 	0.40391 0.62756 0.41876 -0.38700
O 	O 	0.27676 0.69425 0.34827 -0.37100
O 	O 	0.46945 0.81353 0.42484 -0.38800
O 	O 	0.44425 0.87295 0.38995 -0.37000
O 	O 	0.21555 0.59453 0.38078 -0.38700
O 	O 	0.26348 0.68518 0.46191 -0.37500
O 	O 	0.24999 0.57568 0.44079 -0.37700
O 	O 	0.43429 0.74388 0.36351 -0.37800
O 	O 	0.32614 0.70984 0.40812 -0.71100
H 	H 	0.27483 0.70120 0.41016 0.16000
C 	C 	0.45316 0.62625 0.05720 0.29600
C 	C 	0.23884 0.60741 0.14883 0.27900
C 	C 	0.26752 0.47834 0.07618 0.28000
C 	C 	0.42638 0.76764 0.13720 0.25900
C 	C 	0.16757 0.61174 0.05989 0.31300
C 	C 	0.35950 0.79519 0.04833 0.30000
Ni	Ni	0.36434 0.60989 0.11381 1.11300
Ni	Ni	0.28437 0.71188 0.10103 1.12000
Ni	Ni	0.31487 0.62902 0.04936 1.12100
O 	O 	0.43977 0.60248 0.08455 -0.36600
O 	O 	0.42506 0.66682 0.04616 -0.38800
O 	O 	0.20059 0.67915 0.07202 -0.38300
O 	O 	0.30235 0.60665 0.15030 -0.36000
O 	O 	0.21651 0.61877 0.12409 -0.38500
O 	O 	0.32383 0.72871 0.03480 -0.38000
O 	O 	0.27796 0.50379 0.10255 -0.36800
O 	O 	0.30413 0.52389 0.05467 -0.37600
O 	O 	0.34710 0.80172 0.07586 -0.38200
O 	O 	0.44308 0.71517 0.12873 -0.36400
O 	O 	0.35708 0.75754 0.13511 -0.36800
O 	O 	0.20444 0.57591 0.05463 -0.39500
O 	O 	0.33785 0.66387 0.08760 -0.71600
H 	H 	0.38692 0.70939 0.08464 0.16200
C 	C 	0.85847 0.94508 0.27925 0.26700
C 	C 	0.08470 0.11624 0.18925 0.27800
C 	C 	0.87152 0.91475 0.20769 0.28000
C 	C 	0.08915 0.18598 0.26803 0.26000
C 	C 	0.09417 0.91955 0.22046 0.28000
C 	C 	0.09345 0.98498 0.29845 0.27100
Ni	Ni	0.96480 0.06362 0.23397 1.10100
Ni	Ni	0.12412 0.06853 0.24382 1.11700
Ni	Ni	0.97153 0.91296 0.25458 1.11600
O 	O 	0.86919 0.99872 0.25995 -0.36100
O 	O 	0.91129 0.92803 0.28546 -0.38400
O 	O 	0.14078 0.97987 0.23521 -0.37000
O 	O 	0.04565 0.13748 0.20525 -0.36800
O 	O 	0.11828 0.08156 0.20074 -0.37300
O 	O 	0.05063 0.92260 0.28332 -0.37200
O 	O 	0.92516 0.98318 0.20205 -0.37800
O 	O 	0.87787 0.87652 0.22947 -0.37200
O 	O 	0.13651 0.05137 0.28556 -0.38400
O 	O 	0.01598 0.15061 0.26356 -0.36200
O 	O 	0.13455 0.17316 0.25139 -0.36800
O 	O 	0.02199 0.89505 0.22102 -0.37500
O 	O 	0.01854 0.02014 0.24983 -0.71400
H 	H 	0.01818 0.03510 0.26988 0.15400
C 	C 	0.13592 0.28508 0.08364 0.08000
C 	C 	0.07616 0.23824 0.10188 -0.08200
C 	C 	0.08078 0.18102 0.11726 0.01300
C 	C 	0.14683 0.17767 0.11777 0.07700
C 	C 	0.20950 0.23011 0.10198 -0.08100
C 	C 	0.20095 0.27985 0.08328 0.01100
N 	N 	0.15140 0.35577 0.07633 -0.15100
C 	C 	0.22584 0.39626 0.07148 0.00400
C 	C 	0.25843 0.35086 0.07557 -0.04200
N 	N 	0.15231 0.14682 0.14269 -0.15000
C 	C 	0.09048 0.13082 0.15813 0.00400
C 	C 	0.04484 0.15147 0.14313 -0.04300
H 	H 	0.03061 0.24972 0.10561 0.05500
H 	H 	0.26401 0.23573 0.10570 0.05300
H 	H 	0.31610 0.37252 0.08185 0.04300
H 	H 	0.00539 0.16541 0.15305 0.04800
H 	H 	0.11876 0.37994 0.08250 0.09100
H 	H 	0.20275 0.15630 0.15166 0.08800
C 	C 	0.68600 0.87305 0.20266 0.07700
C 	C 	0.60854 0.83134 0.20691 -0.08500
C 	C 	0.56389 0.85263 0.19084 0.01300
C 	C 	0.59402 0.90270 0.16773 0.07800
C 	C 	0.67088 0.93708 0.16137 -0.08100
C 	C 	0.71645 0.92617 0.18091 0.00800
N 	N 	0.73389 0.84911 0.21056 -0.15100
C 	C 	0.79726 0.88982 0.19501 -0.00200
C 	C 	0.78616 0.93505 0.17502 -0.04500
N 	N 	0.54177 0.88570 0.14740 -0.15300
C 	C 	0.47831 0.82499 0.15710 0.01000
C 	C 	0.49000 0.80375 0.18422 -0.04700
H 	H 	0.58371 0.78097 0.22032 0.05500
H 	H 	0.69320 0.96710 0.14131 0.05600
H 	H 	0.82996 0.98275 0.16343 0.04900
H 	H 	0.45832 0.74659 0.19278 0.04800
H 	H 	0.72881 0.81719 0.22892 0.09300
H 	H 	0.55422 0.89872 0.12563 0.08800
C 	C 	0.11829 0.77492 0.18724 0.07900
C 	C 	0.08766 0.69614 0.18498 -0.08500
C 	C 	0.13343 0.66458 0.19148 0.01400
C 	C 	0.20640 0.71009 0.20111 0.07600
C 	C 	0.23448 0.78824 0.20562 -0.08100
C 	C 	0.19041 0.82000 0.19710 0.01100
N 	N 	0.07702 0.80885 0.19188 -0.15100
C 	C 	0.12261 0.87565 0.20483 0.00600
C 	C 	0.19362 0.88440 0.20870 -0.04200
N 	N 	0.25024 0.68241 0.19166 -0.15100
C 	C 	0.20738 0.62170 0.17499 -0.00200
C 	C 	0.13383 0.60750 0.17539 -0.04600
H 	H 	0.03123 0.66094 0.17725 0.05700
H 	H 	0.29078 0.82381 0.21340 0.05600
H 	H 	0.23218 0.91864 0.22531 0.05500
H 	H 	0.09406 0.57779 0.15845 0.05200
H 	H 	0.01873 0.78003 0.19354 0.09500
H 	H 	0.30824 0.71536 0.18947 0.09600
C 	C 	0.56521 0.69106 0.31370 0.07700
C 	C 	0.64224 0.71950 0.31762 -0.08100
C 	C 	0.69149 0.78013 0.30017 0.00900
C 	C 	0.66642 0.81862 0.28299 0.07600
C 	C 	0.59030 0.79588 0.28145 -0.08400
C 	C 	0.53972 0.72748 0.29510 0.01200
N 	N 	0.51476 0.65519 0.33472 -0.15000
C 	C 	0.45757 0.66889 0.33010 0.00000
C 	C 	0.47079 0.71257 0.30541 -0.04400
N 	N 	0.72138 0.89021 0.27833 -0.15200
C 	C 	0.78315 0.89705 0.29142 0.00500
C 	C 	0.76499 0.83047 0.30656 -0.04400
H 	H 	0.66273 0.69888 0.33491 0.05400
H 	H 	0.57151 0.83225 0.27175 0.05500
H 	H 	0.44709 0.74927 0.30164 0.04300
H 	H 	0.80461 0.81444 0.31470 0.04700
H 	H 	0.52846 0.64320 0.35496 0.08800
H 	H 	0.72093 0.92628 0.26233 0.09200
C 	C 	0.17554 0.49122 0.30042 0.07800
C 	C 	0.20935 0.45149 0.28870 -0.08100
C 	C 	0.18057 0.37517 0.29646 0.01200
C 	C 	0.11667 0.33773 0.31321 0.07900
C 	C 	0.08012 0.37589 0.32357 -0.08400
C 	C 	0.11109 0.45350 0.31719 0.01400
N 	N 	0.21573 0.56404 0.30874 -0.15100
C 	C 	0.17951 0.57303 0.33140 0.00600
C 	C 	0.11316 0.50588 0.33666 -0.04700
N 	N 	0.08098 0.26299 0.30749 -0.15300
C 	C 	0.12167 0.25236 0.28700 0.00800
C 	C 	0.18404 0.32100 0.27950 -0.04500
H 	H 	0.25903 0.48032 0.27543 0.05600
H 	H 	0.03033 0.34669 0.33676 0.05600
H 	H 	0.08534 0.49052 0.35737 0.05400
H 	H 	0.21165 0.33274 0.25878 0.05400
H 	H 	0.27338 0.59711 0.30538 0.09400
H 	H 	0.02397 0.22661 0.31113 0.09400
C 	C 	0.15125 0.88617 0.40776 0.07000
C 	C 	0.09106 0.86752 0.38912 -0.07100
C 	C 	0.09259 0.92534 0.37199 0.00200
C 	C 	0.15611 0.99668 0.37058 0.11000
C 	C 	0.21935 0.01286 0.38702 -0.12000
C 	C 	0.21382 0.95829 0.40707 0.03900
N 	N 	0.17070 0.83476 0.41639 -0.15100
C 	C 	0.24539 0.87256 0.42068 0.01500
C 	C 	0.27383 0.94968 0.41544 -0.05200
N 	N 	0.16057 0.02894 0.34478 -0.16600
C 	C 	0.10071 0.97849 0.32966 0.01500
C 	C 	0.05721 0.91335 0.34573 -0.04100
H 	H 	0.04790 0.80900 0.38634 0.05400
H 	H 	0.27248 0.06326 0.38275 0.06000
H 	H 	0.33104 0.98771 0.40885 0.05700
H 	H 	0.02043 0.85799 0.33673 0.05100
H 	H 	0.14044 0.77708 0.41128 0.08800
H 	H 	0.21018 0.07123 0.33556 0.09200
C 	C 	0.51448 0.02631 0.47547 -0.00400
C 	C 	0.54637 0.01875 0.50092 -0.07100
C 	C 	0.54261 0.05472 0.52591 0.02000
C 	C 	0.50336 0.93901 0.43181 -0.12600
C 	C 	0.47092 0.10202 0.50058 0.00900
C 	C 	0.47418 0.06547 0.47566 -0.05300
C 	C 	0.51159 0.98255 0.45080 0.06400
C 	C 	0.50943 0.10109 0.52533 -0.09600
H 	H 	0.57422 0.98511 0.50135 0.05900
H 	H 	0.57022 0.05097 0.54511 0.03900
H 	H 	0.44287 0.13544 0.50008 0.03700
H 	H 	0.44568 0.06794 0.45649 0.04400
C 	C 	0.02512 0.52844 0.49750 0.02200
C 	C 	0.01204 0.48919 0.52353 -0.04800
C 	C 	0.94758 0.47093 0.53944 0.00500
C 	C 	0.15014 0.57269 0.46846 -0.09500
C 	C 	0.91274 0.53714 0.50473 0.01600
C 	C 	0.97719 0.55542 0.48880 -0.06300
C 	C 	0.09209 0.54882 0.48138 0.04000
C 	C 	0.89499 0.49016 0.52900 -0.07900
H 	H 	0.05079 0.47134 0.53113 0.04800
H 	H 	0.93520 0.43593 0.55852 0.02900
H 	H 	0.87331 0.55365 0.49675 0.03700
H 	H 	0.98894 0.58911 0.46939 0.04800
C 	C 	0.52977 0.52681 0.48319 0.01400
C 	C 	0.54606 0.55411 0.45496 -0.05600
C 	C 	0.51223 0.59340 0.44325 0.01400
C 	C 	0.59070 0.45125 0.50689 -0.10300
C 	C 	0.44696 0.57986 0.48827 0.01400
C 	C 	0.48091 0.54061 0.49993 -0.05500
C 	C 	0.56365 0.48536 0.49527 0.04300
C 	C 	0.46153 0.60549 0.45971 -0.08500
H 	H 	0.58445 0.54447 0.44200 0.04700
H 	H 	0.52471 0.61363 0.42128 0.03900
H 	H 	0.40782 0.58842 0.50118 0.04100
H 	H 	0.46860 0.52024 0.52189 0.05000
C 	C 	0.86236 0.16151 0.58613 0.07400
C 	C 	0.91366 0.18609 0.60894 -0.08100
C 	C 	0.89736 0.13770 0.63263 0.01100
C 	C 	0.83733 0.06479 0.63252 0.08400
C 	C 	0.78929 0.03749 0.60891 -0.10300
C 	C 	0.80177 0.08777 0.58593 0.01900
N 	N 	0.84431 0.20888 0.57241 -0.15200
C 	C 	0.77210 0.16746 0.56426 0.00900
C 	C 	0.74469 0.09156 0.57167 -0.04900
N 	N 	0.84929 0.02022 0.65078 -0.16100
C 	C 	0.91773 0.06426 0.66225 0.00600
C 	C 	0.94894 0.13812 0.65167 -0.04800
H 	H 	0.96116 0.24299 0.60915 0.05200
H 	H 	0.74194 0.98049 0.60894 0.06900
H 	H 	0.68596 0.05206 0.57546 0.04700
H 	H 	0.00761 0.18041 0.65249 0.05400
H 	H 	0.87056 0.26727 0.57629 0.08300
H 	H 	0.82043 0.96089 0.65082 0.10100
C 	C 	0.38056 0.26306 0.64350 0.07900
C 	C 	0.30911 0.20304 0.63712 -0.08400
C 	C 	0.28197 0.13569 0.65300 0.01400
C 	C 	0.32216 0.12970 0.67575 0.07500
C 	C 	0.39203 0.19088 0.68309 -0.08400
C 	C 	0.42063 0.25765 0.66656 0.01100
N 	N 	0.42776 0.30784 0.62289 -0.15100
C 	C 	0.49782 0.32932 0.63191 0.00100
C 	C 	0.49536 0.30096 0.65938 -0.04500
N 	N 	0.27538 0.07941 0.69523 -0.15200
C 	C 	0.20524 0.05458 0.68550 0.00200
C 	C 	0.20735 0.08789 0.65907 -0.04600
H 	H 	0.27726 0.20745 0.61946 0.05600
H 	H 	0.42343 0.18647 0.70091 0.05100
H 	H 	0.53847 0.29036 0.66786 0.04400
H 	H 	0.16246 0.09587 0.65078 0.05400
H 	H 	0.41312 0.30404 0.60123 0.09300
H 	H 	0.28879 0.07858 0.71678 0.08700
C 	C 	0.81081 0.63890 0.68615 0.07800
C 	C 	0.76182 0.56336 0.69400 -0.08300
C 	C 	0.78329 0.50865 0.68799 0.01400
C 	C 	0.85360 0.52987 0.67639 0.07700
C 	C 	0.90445 0.60669 0.67074 -0.08200
C 	C 	0.87968 0.65948 0.67393 0.01200
N 	N 	0.81196 0.69894 0.69906 -0.15100
C 	C 	0.88165 0.75816 0.69492 0.00300
C 	C 	0.92539 0.73559 0.67946 -0.04200
N 	N 	0.84944 0.47451 0.65929 -0.15200
C 	C 	0.77681 0.41997 0.65817 0.00600
C 	C 	0.73475 0.43806 0.67676 -0.04500
H 	H 	0.70744 0.54703 0.70314 0.05600
H 	H 	0.95921 0.62365 0.66183 0.05500
H 	H 	0.98579 0.76312 0.68053 0.05400
H 	H 	0.67546 0.41744 0.67405 0.05300
H 	H 	0.77661 0.69480 0.71598 0.09400
H 	H 	0.88797 0.48403 0.64287 0.09000
C 	C 	0.97520 0.49300 0.01035 0.00700
C 	C 	0.98045 0.46226 0.03661 -0.06500
C 	C 	0.03848 0.50618 0.05549 0.02600
C 	C 	0.86341 0.41527 0.97483 -0.10800
C 	C 	0.08255 0.61355 0.02301 0.01400
C 	C 	0.02447 0.56963 0.00412 -0.04700
C 	C 	0.91528 0.44824 0.99091 0.04500
C 	C 	0.09246 0.58065 0.04796 -0.08800
H 	H 	0.94072 0.40395 0.04212 0.04700
H 	H 	0.04497 0.48043 0.07491 0.03200
H 	H 	0.12329 0.67120 0.01709 0.03900
H 	H 	0.01886 0.59472 0.98436 0.05000
C 	C 	0.47242 0.99578 0.00464 0.06300
C 	C 	0.52789 0.05862 0.01931 -0.08800
C 	C 	0.56875 0.12846 0.00518 0.02800
C 	C 	0.39874 0.86367 0.03169 -0.08200
C 	C 	0.49691 0.07342 0.96195 0.03300
C 	C 	0.45618 0.00369 0.97610 -0.10400
C 	C 	0.43212 0.92328 0.01896 0.02500
C 	C 	0.55444 0.13578 0.97623 -0.09300
H 	H 	0.54018 0.05310 0.04150 0.05200
H 	H 	0.61312 0.17594 0.01643 0.03300
H 	H 	0.48492 0.07853 0.93968 0.02600
H 	H 	0.41272 0.95567 0.96474 0.06900
C 	C 	0.48055 0.50100 0.99064 0.01300
C 	C 	0.45437 0.46703 0.01755 -0.05600
C 	C 	0.45485 0.51060 0.04079 0.01700
C 	C 	0.49876 0.41931 0.95090 -0.10500
C 	C 	0.51060 0.62311 0.01062 0.01100
C 	C 	0.51087 0.57952 0.98745 -0.05400
C 	C 	0.48784 0.45735 0.96792 0.04400
C 	C 	0.47911 0.58818 0.03707 -0.08300
H 	H 	0.43375 0.40679 0.02049 0.04800
H 	H 	0.43202 0.48307 0.06120 0.03600
H 	H 	0.53129 0.68332 0.00762 0.03800
H 	H 	0.53447 0.60679 0.96705 0.04900
C 	C 	0.80554 0.27587 0.81355 0.07800
C 	C 	0.79691 0.23233 0.78913 -0.08300
C 	C 	0.85815 0.22435 0.78043 0.01300
C 	C 	0.92546 0.25913 0.79556 0.07600
C 	C 	0.93397 0.30460 0.81956 -0.08200
C 	C 	0.87166 0.30988 0.82854 0.00800
N 	N 	0.76526 0.31027 0.81903 -0.15000
C 	C 	0.80411 0.36479 0.83873 -0.00300
C 	C 	0.87286 0.36855 0.84391 -0.04500
N 	N 	0.96049 0.21798 0.79310 -0.15500
C 	C 	0.91507 0.15617 0.77752 0.00700
C 	C 	0.85201 0.15891 0.76869 -0.04400
H 	H 	0.74440 0.20456 0.77769 0.05500
H 	H 	0.98574 0.33157 0.83148 0.05300
H 	H 	0.90821 0.39525 0.86228 0.05100
H 	H 	0.80037 0.11043 0.76174 0.05100
H 	H 	0.70783 0.28573 0.81545 0.09500
H 	H 	0.00195 0.22140 0.80695 0.09500
C 	C 	0.29405 0.05542 0.81668 0.07600
C 	C 	0.33135 0.04714 0.84036 -0.08300
C 	C 	0.40853 0.07411 0.83768 0.01400
C 	C 	0.44829 0.11688 0.81386 0.07500
C 	C 	0.41140 0.13287 0.79177 -0.08100
C 	C 	0.33328 0.09692 0.79288 0.00900
N 	N 	0.22799 0.05377 0.81862 -0.15300
C 	C 	0.22293 0.09171 0.79546 0.00800
C 	C 	0.28970 0.12295 0.77994 -0.04500
N 	N 	0.51921 0.16579 0.82127 -0.15100
C 	C 	0.52514 0.15682 0.84976 0.00900
C 	C 	0.45753 0.09947 0.86054 -0.04900
H 	H 	0.30273 0.02578 0.86068 0.05400
H 	H 	0.44261 0.17568 0.77564 0.05200
H 	H 	0.29857 0.14733 0.75863 0.04900
H 	H 	0.43996 0.09639 0.88270 0.04500
H 	H 	0.18290 0.01513 0.83115 0.08800
H 	H 	0.55329 0.21626 0.81012 0.08600
C 	C 	0.82722 0.70537 0.90403 0.07900
C 	C 	0.88522 0.73816 0.88356 -0.08100
C 	C 	0.86858 0.75680 0.85670 0.01500
C 	C 	0.80089 0.75324 0.85148 0.07900
C 	C 	0.74539 0.72836 0.87272 -0.08300
C 	C 	0.75854 0.70172 0.89882 0.01400
N 	N 	0.81682 0.64573 0.92021 -0.15100
C 	C 	0.74238 0.60151 0.92433 0.00400
C 	C 	0.70493 0.63635 0.91231 -0.04400
N 	N 	0.80757 0.80045 0.82986 -0.15200
C 	C 	0.88009 0.83530 0.82149 0.00900
C 	C 	0.91956 0.80877 0.83756 -0.04500
H 	H 	0.93883 0.74192 0.88751 0.05500
H 	H 	0.69211 0.72515 0.86851 0.05500
H 	H 	0.64722 0.60533 0.90538 0.04800
H 	H 	0.97980 0.83652 0.83945 0.04700
H 	H 	0.85420 0.62464 0.92044 0.09300
H 	H 	0.76957 0.81911 0.82509 0.09300
