data_crystal

_cell_length_a 18.68029
_cell_length_b 18.87841
_cell_length_c 34.99522
_cell_angle_alpha 95.43270
_cell_angle_beta  95.43289
_cell_angle_gamma 126.38421

_symmetry_space_group_name_	'P 1'
_symmetry_space_group_name_H-M	'P 1'

loop_
_symmetry_equiv_pos_as_xyz
  x,y,z

loop_
_atom_site_label
_atom_site_type_symbol
_atom_site_fract_x
_atom_site_fract_y
_atom_site_fract_z
_atom_site_charge
C 	C 	0.92383 0.01759 0.96582 0.09000
C 	C 	0.01785 0.07402 0.96823 -0.08400
C 	C 	0.06652 0.03963 0.97062 0.09200
C 	C 	0.02203 0.94900 0.97190 -0.08900
C 	C 	0.92804 0.89143 0.96922 0.08600
C 	C 	0.87847 0.92573 0.96644 -0.08700
H 	H 	0.05316 0.14486 0.96822 0.08600
H 	H 	0.06037 0.92294 0.97440 0.08800
H 	H 	0.80577 0.88164 0.96473 0.08600
C 	C 	0.92761 0.01522 0.49487 0.09500
C 	C 	0.02029 0.06651 0.49326 -0.08400
C 	C 	0.06301 0.02544 0.49186 0.09200
C 	C 	0.01306 0.93358 0.49169 -0.09200
C 	C 	0.92098 0.88259 0.49320 0.09000
C 	C 	0.87855 0.92353 0.49540 -0.09000
H 	H 	0.05859 0.13750 0.49288 0.08900
H 	H 	0.04598 0.90182 0.49045 0.08900
H 	H 	0.80701 0.88375 0.49655 0.08900
Cu	Cu	0.75874 0.35399 0.95776 0.93000
Cu	Cu	0.78168 0.30276 0.04529 0.91300
Cu	Cu	0.62772 0.32311 0.01185 0.92100
Cu	Cu	0.60100 0.36994 0.93562 0.91000
C 	C 	0.69045 0.33850 0.87691 0.39200
O 	O 	0.82306 0.48857 0.95932 -0.33100
C 	C 	0.66630 0.31359 0.09006 0.39300
O 	O 	0.62085 0.29387 0.95690 -0.63700
O 	O 	0.75658 0.37005 0.01475 -0.62400
O 	O 	0.79686 0.27323 0.95291 -0.32200
O 	O 	0.86442 0.30890 0.01657 -0.37100
O 	O 	0.65887 0.38173 0.88908 -0.34400
O 	O 	0.50095 0.26870 0.00811 -0.33000
C 	C 	0.45068 0.26849 0.97887 0.30800
C 	C 	0.78947 0.52810 0.97377 0.30100
O 	O 	0.70713 0.47912 0.98097 -0.37000
O 	O 	0.48701 0.32581 0.95491 -0.35900
O 	O 	0.73761 0.32529 0.90171 -0.32500
C 	C 	0.83361 0.25814 0.98194 0.29700
O 	O 	0.64305 0.35168 0.06790 -0.33000
O 	O 	0.68349 0.26062 0.07394 -0.37200
H 	H 	0.57578 0.22937 0.94539 0.18700
H 	H 	0.79780 0.43398 0.02750 0.18800
Cu	Cu	0.59828 0.18640 0.50620 0.93600
Cu	Cu	0.65717 0.18506 0.42095 0.90000
Cu	Cu	0.64319 0.32387 0.45417 0.90600
Cu	Cu	0.61505 0.35917 0.53440 0.91600
C 	C 	0.63973 0.25856 0.58853 0.41000
O 	O 	0.46947 0.14028 0.50995 -0.31800
C 	C 	0.60983 0.26349 0.36860 0.38800
O 	O 	0.67676 0.32550 0.50806 -0.63700
O 	O 	0.57818 0.19231 0.45028 -0.63300
O 	O 	0.64976 0.11920 0.50122 -0.33200
O 	O 	0.74479 0.21048 0.46320 -0.40300
O 	O 	0.60448 0.29990 0.58012 -0.34400
O 	O 	0.71507 0.45268 0.46066 -0.34500
C 	C 	0.72172 0.50583 0.49054 0.31300
C 	C 	0.43722 0.18175 0.49767 0.30200
O 	O 	0.49268 0.26371 0.49168 -0.37200
O 	O 	0.66653 0.47373 0.51578 -0.35200
O 	O 	0.63710 0.20313 0.56129 -0.33300
C 	C 	0.72258 0.15172 0.48585 0.31300
O 	O 	0.61965 0.32088 0.39758 -0.34000
O 	O 	0.59890 0.19013 0.37477 -0.36200
H 	H 	0.74279 0.36256 0.51798 0.19800
H 	H 	0.51425 0.15543 0.43668 0.19900
C 	C 	0.75454 0.32826 0.69373 0.23400
C 	C 	0.68030 0.27157 0.71138 -0.00000
C 	C 	0.59624 0.20193 0.68783 0.23000
C 	C 	0.58515 0.19267 0.64712 0.32100
C 	C 	0.65738 0.25407 0.62967 -0.20900
C 	C 	0.74286 0.32005 0.65301 0.31300
C 	C 	0.68796 0.29101 0.75416 -0.00300
F 	F 	0.52426 0.14593 0.70448 -0.33700
F 	F 	0.81363 0.37855 0.63634 -0.38100
C 	C 	0.69935 0.36811 0.77148 0.23000
C 	C 	0.70198 0.38459 0.81158 0.31200
C 	C 	0.69072 0.32272 0.83471 -0.20500
C 	C 	0.68012 0.24588 0.81739 0.31100
C 	C 	0.67951 0.23054 0.77736 0.23400
F 	F 	0.70696 0.42670 0.74928 -0.34000
F 	F 	0.66871 0.18525 0.83919 -0.37500
F 	F 	0.71698 0.46142 0.82807 -0.37600
F 	F 	0.66977 0.15645 0.76102 -0.33500
F 	F 	0.83702 0.39358 0.71614 -0.33600
F 	F 	0.50303 0.12657 0.62466 -0.36600
C 	C 	0.70888 0.32036 0.19861 0.23100
C 	C 	0.63391 0.31122 0.20974 -0.00100
C 	C 	0.57140 0.30652 0.18181 0.23300
C 	C 	0.58244 0.30856 0.14281 0.31700
C 	C 	0.65688 0.31648 0.13151 -0.20700
C 	C 	0.72055 0.32339 0.15973 0.31200
C 	C 	0.61852 0.30188 0.25022 -0.00200
F 	F 	0.49908 0.29837 0.19235 -0.33700
F 	F 	0.79377 0.33300 0.14946 -0.39300
C 	C 	0.67483 0.37582 0.28097 0.23300
C 	C 	0.66836 0.36441 0.31978 0.30900
C 	C 	0.60515 0.27888 0.32813 -0.20500
C 	C 	0.54462 0.20619 0.29719 0.31300
C 	C 	0.55181 0.21754 0.25844 0.23100
F 	F 	0.73779 0.45817 0.27326 -0.33900
F 	F 	0.47981 0.12423 0.30470 -0.36800
F 	F 	0.72653 0.43558 0.34927 -0.37900
F 	F 	0.49583 0.14596 0.22888 -0.33900
F 	F 	0.76961 0.32479 0.22539 -0.34300
F 	F 	0.51912 0.29955 0.11579 -0.36600
C 	C 	0.87978 0.75590 0.52596 -0.06400
C 	C 	0.86903 0.78602 0.49237 -0.01000
C 	C 	0.81362 0.72411 0.45753 0.09800
C 	C 	0.76756 0.63261 0.45689 -0.00900
C 	C 	0.77706 0.60227 0.49069 -0.07800
C 	C 	0.83502 0.66456 0.52517 0.14100
Br	Br	0.85796 0.62661 0.57075 -0.16800
H 	H 	0.92421 0.80374 0.55254 0.09300
H 	H 	0.72334 0.58493 0.43025 0.10000
Br	Br	0.80150 0.76348 0.41036 -0.15100
C 	C 	0.82504 0.03699 0.45707 -0.05700
C 	C 	0.87971 0.05517 0.49253 -0.01000
C 	C 	0.87939 0.10177 0.52636 0.09600
C 	C 	0.82513 0.13033 0.52428 -0.00700
C 	C 	0.77075 0.11237 0.48872 -0.08700
C 	C 	0.76990 0.06428 0.45510 0.14400
Br	Br	0.69048 0.03129 0.40667 -0.22800
H 	H 	0.82357 0.99941 0.43119 0.09100
H 	H 	0.82623 0.16755 0.55019 0.08900
Br	Br	0.95169 0.12602 0.57564 -0.15900
C 	C 	0.28327 0.10875 0.45998 -0.01300
C 	C 	0.34136 0.14207 0.49628 -0.08000
C 	C 	0.30989 0.14691 0.53075 0.13900
C 	C 	0.22027 0.11575 0.52867 -0.06400
C 	C 	0.16099 0.07865 0.49254 -0.00900
C 	C 	0.19335 0.07700 0.45796 0.09500
Br	Br	0.11518 0.03046 0.40781 -0.15300
H 	H 	0.30797 0.10755 0.43330 0.07700
H 	H 	0.19559 0.11699 0.55535 0.09500
Br	Br	0.38805 0.19577 0.58096 -0.13600
C 	C 	0.84193 0.65256 0.93748 -0.01700
C 	C 	0.83449 0.62383 0.97344 -0.08200
C 	C 	0.85192 0.68173 0.00760 0.14200
C 	C 	0.87521 0.76664 0.00546 -0.06500
C 	C 	0.88255 0.79534 0.96952 -0.01100
C 	C 	0.86502 0.73742 0.93533 0.09700
Br	Br	0.87188 0.77303 0.88540 -0.13100
H 	H 	0.82646 0.60766 0.91092 0.10100
H 	H 	0.89079 0.81161 0.03201 0.08900
Br	Br	0.84682 0.64690 0.05767 -0.17900
C 	C 	0.84447 0.06801 0.99835 -0.07000
C 	C 	0.87468 0.05681 0.96475 -0.00400
C 	C 	0.87745 0.10174 0.93426 0.09400
C 	C 	0.86280 0.16644 0.93987 -0.00600
C 	C 	0.84113 0.18402 0.97512 -0.08500
C 	C 	0.82587 0.12984 0.00337 0.14600
Br	Br	0.77310 0.13353 0.04731 -0.23500
H 	H 	0.83870 0.03115 0.02131 0.09300
H 	H 	0.86991 0.20407 0.91707 0.09800
Br	Br	0.90299 0.07668 0.88506 -0.13600
C 	C 	0.29560 0.14945 0.94251 -0.01400
C 	C 	0.35260 0.21294 0.97651 -0.08200
C 	C 	0.31515 0.22210 0.00795 0.14700
C 	C 	0.22163 0.16403 0.00599 -0.06300
C 	C 	0.16476 0.09916 0.97230 -0.01000
C 	C 	0.20189 0.09328 0.94007 0.09500
Br	Br	0.12555 0.01144 0.89200 -0.14600
H 	H 	0.32423 0.14370 0.91794 0.07200
H 	H 	0.19291 0.17023 0.03042 0.09200
Br	Br	0.38952 0.31792 0.05228 -0.10800
