data_crystal

_cell_length_a 25.62325
_cell_length_b 27.52774
_cell_length_c 29.61113
_cell_angle_alpha 61.12929
_cell_angle_beta  118.57828
_cell_angle_gamma 133.21100

_symmetry_space_group_name_	'P 1'
_symmetry_space_group_name_H-M	'P 1'

loop_
_symmetry_equiv_pos_as_xyz
  x,y,z

loop_
_atom_site_label
_atom_site_type_symbol
_atom_site_fract_x
_atom_site_fract_y
_atom_site_fract_z
_atom_site_charge
Co	Co	0.09766 0.98548 0.16972 1.17600
Co	Co	0.04073 0.04473 0.19236 1.19900
Co	Co	0.07831 0.89385 0.11708 1.17300
O 	O 	0.01370 0.12963 0.21296 -0.37100
C 	C 	0.07328 0.17152 0.19470 0.30000
O 	O 	0.12574 0.04081 0.21383 -0.44800
O 	O 	0.09828 0.14739 0.18763 -0.37800
O 	O 	0.00162 0.98061 0.26094 -0.39300
O 	O 	0.04833 0.94604 0.12088 -0.77200
O 	O 	0.07856 0.89719 0.22715 -0.40200
Co	Co	0.08336 0.96045 0.67310 1.17300
Co	Co	0.05054 0.04028 0.69735 1.20000
C 	C 	0.05341 0.82030 0.72564 0.29600
Co	Co	0.04186 0.86481 0.60905 1.17200
C 	C 	0.11061 0.18738 0.68733 0.29500
O 	O 	0.11984 0.01568 0.72121 -0.44600
O 	O 	0.12455 0.14187 0.70449 -0.37000
O 	O 	0.00322 0.97966 0.76149 -0.42300
O 	O 	0.03167 0.92781 0.61984 -0.77000
O 	O 	0.01973 0.79880 0.68202 -0.38400
O 	O 	0.05292 0.86679 0.72806 -0.39500
O 	O 	0.06041 0.93539 0.53663 -0.39500
C 	C 	0.05570 0.97930 0.88027 -0.01000
C 	C 	0.05896 0.96362 0.93375 0.14500
H 	H 	0.10167 0.99639 0.86928 0.04200
O 	O 	0.12055 0.97066 0.97157 -0.29300
H 	H 	0.11078 0.92527 0.98288 0.14500
C 	C 	0.03440 0.70776 0.78063 0.01100
H 	H 	0.98319 0.67828 0.75390 0.02400
S 	S 	0.05569 0.73725 0.27867 0.03500
H 	H 	0.05655 0.62178 0.30057 0.05100
O 	O 	0.02007 0.01601 0.12264 -0.55000
C 	C 	0.00910 0.94289 0.49948 0.34000
O 	O 	0.02106 0.00769 0.62682 -0.54500
C 	C 	0.00538 0.95783 0.44349 -0.12800
H 	H 	0.06573 0.88769 0.47302 0.14500
H 	H 	0.01619 0.59312 0.78943 0.05100
H 	H 	0.03567 0.26099 0.15842 0.04500
C 	C 	0.17192 0.25772 0.69347 -0.07100
C 	C 	0.16869 0.31383 0.66171 -0.02000
H 	H 	0.12776 0.31175 0.62494 0.04700
C 	C 	0.09225 0.28010 0.17951 -0.01900
H 	H 	0.06345 0.35788 0.18465 0.05200
O 	O 	0.01529 0.88584 0.03978 -0.39700
H 	H 	0.16690 0.42409 0.63407 0.04900
C 	C 	0.12090 0.24434 0.19400 -0.07200
C 	C 	0.99412 0.92789 0.37265 -0.07900
C 	C 	0.00547 0.91784 0.42677 0.19300
O 	O 	0.01232 0.86632 0.46288 -0.29200
C 	C 	0.11237 0.36115 0.21157 -0.05400
C 	C 	0.11165 0.87275 0.23313 0.30500
C 	C 	0.06984 0.77725 0.77536 -0.07600
C 	C 	0.11295 0.81981 0.28041 -0.07700
C 	C 	0.20229 0.41720 0.67197 -0.05500
C 	C 	0.21327 0.36728 0.68765 0.01700
C 	C 	0.13826 0.33380 0.20550 0.02100
C 	C 	0.10965 0.71318 0.32307 0.00100
C 	C 	0.10553 0.66008 0.32239 -0.05800
C 	C 	0.00620 0.93322 0.00353 0.33300
C 	C 	0.00123 0.94509 0.94802 -0.07800
H 	H 	0.99244 0.89582 0.35997 0.06300
O 	O 	0.13975 0.89277 0.19502 -0.40200
O 	O 	0.16704 0.99126 0.09005 -0.40600
O 	O 	0.15372 0.91841 0.64546 -0.39400
C 	C 	0.06769 0.62894 0.81212 -0.04800
C 	C 	0.07963 0.68523 0.81534 0.00600
C 	C 	0.14905 0.38922 0.25517 0.00700
S 	S 	0.14883 0.44771 0.25827 -0.00200
H 	H 	0.13610 0.58663 0.31188 0.04900
S 	S 	0.22714 0.27476 0.75260 0.03200
O 	O 	0.18197 0.01222 0.65555 -0.34100
C 	C 	0.25155 0.35301 0.73955 0.00000
C 	C 	0.23511 0.45503 0.70814 0.00300
S 	S 	0.21192 0.50004 0.70519 -0.00400
O 	O 	0.04433 0.17279 0.66176 -0.38100
H 	H 	0.18342 0.51795 0.80937 0.05700
C 	C 	0.20847 0.04364 0.11164 0.32700
O 	O 	0.19868 0.03644 0.15528 -0.36900
C 	C 	0.19756 0.98475 0.64220 0.23700
C 	C 	0.12628 0.62390 0.83456 0.00200
S 	S 	0.13379 0.58139 0.81563 -0.00400
C 	C 	0.20314 0.34041 0.23972 -0.00100
S 	S 	0.20050 0.27888 0.23886 0.04000
C 	C 	0.17757 0.77165 0.33991 0.01500
C 	C 	0.16865 0.66137 0.34667 0.02800
C 	C 	0.17893 0.62378 0.33586 -0.06000
C 	C 	0.17936 0.83149 0.31599 -0.01800
H 	H 	0.19220 0.52551 0.34117 0.05600
S 	S 	0.15535 0.80827 0.81314 0.00900
C 	C 	0.21382 0.39589 0.28936 0.02800
C 	C 	0.27378 0.38354 0.77790 -0.05800
C 	C 	0.26715 0.43664 0.76098 0.02700
C 	C 	0.14997 0.73668 0.83828 0.00800
C 	C 	0.24035 0.36937 0.28299 -0.05500
C 	C 	0.24405 0.50108 0.76941 -0.00500
C 	C 	0.22708 0.48047 0.30459 -0.00500
H 	H 	0.23020 0.88265 0.31739 0.03600
H 	H 	0.24943 0.99082 0.57181 0.00900
H 	H 	0.24282 0.10351 0.01243 0.06400
C 	C 	0.24352 0.56605 0.32841 -0.07500
C 	C 	0.23802 0.56347 0.80383 -0.07500
C 	C 	0.27278 0.46276 0.79552 -0.05900
H 	H 	0.29190 0.36438 0.81955 0.05000
C 	C 	0.19769 0.67760 0.85408 0.02800
C 	C 	0.22555 0.62528 0.83422 -0.00500
C 	C 	0.25796 0.44726 0.31735 -0.05700
C 	C 	0.23472 0.71630 0.36901 0.00400
C 	C 	0.24142 0.77419 0.36227 -0.05600
C 	C 	0.21049 0.73569 0.85472 -0.06300
C 	C 	0.25307 0.64939 0.35023 -0.00200
C 	C 	0.27220 0.02485 0.63658 -0.04500
C 	C 	0.27783 0.10447 0.09574 -0.07700
C 	C 	0.27080 0.55054 0.31000 0.03900
C 	C 	0.27801 0.56186 0.78545 0.03900
H 	H 	0.28908 0.37239 0.31010 0.05000
C 	C 	0.28846 0.01267 0.60583 0.01800
C 	C 	0.28812 0.12356 0.04566 -0.01500
C 	C 	0.28251 0.63366 0.33065 0.03700
C 	C 	0.26855 0.62392 0.81494 0.03800
H 	H 	0.30089 0.45780 0.83702 0.04800
C 	C 	0.25366 0.67813 0.85435 -0.06000
H 	H 	0.29506 0.82122 0.37067 0.04400
H 	H 	0.31407 0.46595 0.33959 0.04700
H 	H 	0.26608 0.78063 0.86389 0.04500
S 	S 	0.30349 0.71851 0.37341 -0.01500
C 	C 	0.33801 0.60253 0.29460 -0.07700
H 	H 	0.31172 0.71804 0.86538 0.04400
S 	S 	0.34681 0.05754 0.68516 0.03200
S 	S 	0.35938 0.12946 0.13897 0.04200
C 	C 	0.34970 0.68562 0.31482 -0.07500
C 	C 	0.34945 0.61965 0.77984 -0.07700
C 	C 	0.36141 0.03251 0.62352 0.00900
C 	C 	0.36225 0.15841 0.04647 0.02100
H 	H 	0.34819 0.16056 0.96740 0.05400
C 	C 	0.99645 0.00910 0.40591 -0.04100
H 	H 	0.99778 0.04099 0.41853 0.06400
H 	H 	0.35853 0.59099 0.27934 0.05400
H 	H 	0.36923 0.03454 0.55286 0.05400
C 	C 	0.33997 0.68238 0.80787 -0.07600
C 	C 	0.37794 0.66982 0.29767 0.03800
H 	H 	0.37978 0.73818 0.31548 0.05300
H 	H 	0.38018 0.61835 0.76546 0.05500
C 	C 	0.38304 0.16436 0.00703 -0.05300
C 	C 	0.38098 0.67946 0.79187 0.03800
C 	C 	0.40099 0.05773 0.66924 0.00800
C 	C 	0.39857 0.04756 0.59092 -0.04600
C 	C 	0.40954 0.16670 0.09688 -0.00300
H 	H 	0.36347 0.73011 0.81419 0.05000
C 	C 	0.44897 0.17301 0.02077 0.00800
C 	C 	0.44849 0.72427 0.28168 -0.00500
C 	C 	0.45686 0.73926 0.78726 -0.00600
S 	S 	0.45545 0.77833 0.22150 -0.01500
C 	C 	0.47470 0.17402 0.11094 -0.05500
C 	C 	0.47784 0.10341 0.68073 -0.05900
C 	C 	0.47542 0.08570 0.60646 0.00400
O 	O 	0.98651 0.80150 0.14377 -0.40400
C 	C 	0.98457 0.01879 0.35191 0.19700
C 	C 	0.98269 0.97767 0.33498 -0.13500
O 	O 	0.97691 0.06984 0.31579 -0.29500
C 	C 	0.99892 0.00654 0.78502 0.36300
O 	O 	0.00546 0.06436 0.76031 -0.38500
C 	C 	0.75801 0.36124 0.97552 0.03800
C 	C 	0.78765 0.42195 0.98556 -0.07900
C 	C 	0.74920 0.42226 0.00668 0.04100
C 	C 	0.68018 0.36259 0.01629 -0.07900
C 	C 	0.65123 0.30150 0.00789 0.04200
C 	C 	0.68999 0.30068 0.98760 -0.07900
H 	H 	0.84077 0.46842 0.97761 0.05200
H 	H 	0.65025 0.36307 0.03223 0.05600
H 	H 	0.66833 0.25273 0.98278 0.05500
C 	C 	0.75208 0.33761 0.52196 0.03800
C 	C 	0.70055 0.27109 0.54747 -0.07600
C 	C 	0.66063 0.26134 0.57457 0.04000
C 	C 	0.67249 0.31840 0.57631 -0.07700
C 	C 	0.72576 0.38505 0.55255 0.03800
C 	C 	0.76498 0.39454 0.52494 -0.07600
H 	H 	0.69204 0.22710 0.54665 0.05600
H 	H 	0.63979 0.31100 0.59547 0.05400
H 	H 	0.80565 0.44602 0.50608 0.05300
Co	Co	0.91021 0.99276 0.10643 1.16900
Co	Co	0.96690 0.93216 0.08506 1.17500
Co	Co	0.91207 0.05557 0.17552 1.17600
O 	O 	0.96137 0.03518 0.15364 -0.76400
O 	O 	0.88673 0.94439 0.05840 -0.48200
C 	C 	0.90856 0.11817 0.05820 0.28400
C 	C 	0.96654 0.98559 0.27792 0.29600
C 	C 	0.91989 0.78614 0.12043 0.29500
O 	O 	0.92144 0.12722 0.10350 -0.38900
O 	O 	0.87832 0.05722 0.05371 -0.36500
O 	O 	0.90747 0.98316 0.24675 -0.40400
O 	O 	0.90477 0.82614 0.11535 -0.39800
C 	C 	0.78543 0.91870 0.15094 0.30600
O 	O 	0.80563 0.98054 0.14223 -0.41500
O 	O 	0.82902 0.91130 0.14783 -0.40700
O 	O 	0.98846 0.96112 0.01413 -0.42000
Co	Co	0.91949 0.99855 0.61158 1.16800
Co	Co	0.95590 0.92457 0.58457 1.17700
Co	Co	0.94850 0.07958 0.68207 1.16600
O 	O 	0.97923 0.04382 0.65746 -0.76800
O 	O 	0.88327 0.94403 0.56326 -0.48300
C 	C 	0.90445 0.11397 0.56391 0.30000
C 	C 	0.87989 0.77942 0.59498 0.30500
O 	O 	0.88636 0.09523 0.60711 -0.39700
O 	O 	0.90781 0.07437 0.55417 -0.37600
O 	O 	0.93061 0.80293 0.57401 -0.40800
O 	O 	0.88789 0.81988 0.61294 -0.40700
C 	C 	0.81106 0.93574 0.67269 0.29600
O 	O 	0.85394 0.98194 0.70065 -0.39800
O 	O 	0.83966 0.92396 0.65544 -0.40600
O 	O 	0.96505 0.94379 0.51053 -0.41200
C 	C 	0.99513 0.97655 0.84090 -0.17900
C 	C 	0.93900 0.93888 0.90887 -0.09600
C 	C 	0.93591 0.95480 0.85547 0.19100
H 	H 	0.89333 0.92251 0.91976 0.06600
O 	O 	0.87449 0.94813 0.81761 -0.29100
H 	H 	0.88346 0.99290 0.80758 0.13500
H 	H 	0.92364 0.04847 0.30681 0.15000
C 	C 	0.55523 0.82635 0.73496 0.00300
C 	C 	0.58366 0.85832 0.69045 -0.05800
C 	C 	0.62959 0.84643 0.69176 0.01800
C 	C 	0.64194 0.79988 0.73495 -0.00200
C 	C 	0.61568 0.76969 0.78012 -0.05600
C 	C 	0.56925 0.78100 0.77888 0.02500
S 	S 	0.47502 0.80350 0.73250 -0.01600
C 	C 	0.51463 0.73284 0.80875 -0.06000
S 	S 	0.71784 0.81706 0.73495 0.04200
C 	C 	0.73590 0.88057 0.67970 -0.07400
C 	C 	0.68255 0.89214 0.66064 -0.02400
H 	H 	0.57134 0.89207 0.65632 0.04300
H 	H 	0.62787 0.73574 0.81407 0.04800
H 	H 	0.51056 0.68792 0.83847 0.04700
H 	H 	0.68863 0.93804 0.63137 0.03200
C 	C 	0.53211 0.79864 0.21934 0.00100
C 	C 	0.55347 0.82364 0.17290 -0.05700
C 	C 	0.60272 0.81497 0.17519 0.01400
C 	C 	0.62394 0.77647 0.22164 0.00100
C 	C 	0.60136 0.75041 0.26786 -0.06100
C 	C 	0.55312 0.76017 0.26569 0.02600
C 	C 	0.50602 0.71804 0.30094 -0.06100
S 	S 	0.70390 0.80161 0.22102 0.02700
C 	C 	0.71302 0.85832 0.16204 -0.08000
C 	C 	0.65247 0.86058 0.14151 -0.01900
H 	H 	0.53536 0.85183 0.13695 0.04300
H 	H 	0.61978 0.72261 0.30398 0.04800
H 	H 	0.50727 0.67775 0.33456 0.04700
H 	H 	0.65093 0.90127 0.10863 0.03900
C 	C 	0.88710 0.34307 0.48984 0.00200
C 	C 	0.93657 0.32647 0.51156 -0.05800
C 	C 	0.91684 0.27270 0.49790 0.01500
C 	C 	0.84793 0.23541 0.46450 -0.00100
C 	C 	0.79504 0.24639 0.44848 -0.05900
C 	C 	0.81563 0.30163 0.46064 0.02600
S 	S 	0.88354 0.37938 0.51870 -0.01700
C 	C 	0.79467 0.34799 0.49394 -0.00400
C 	C 	0.76376 0.30474 0.46270 -0.06000
S 	S 	0.82744 0.15911 0.47654 0.03500
C 	C 	0.90444 0.17088 0.52129 -0.07600
C 	C 	0.94867 0.23653 0.52958 -0.02300
H 	H 	0.98601 0.35074 0.54148 0.04100
H 	H 	0.73824 0.20989 0.43101 0.05000
H 	H 	0.70487 0.26888 0.44928 0.04900
H 	H 	0.99496 0.25246 0.56331 0.03400
C 	C 	0.70700 0.52038 0.54007 0.00300
C 	C 	0.71657 0.58271 0.52231 -0.05500
C 	C 	0.73771 0.61318 0.56033 0.01500
C 	C 	0.75138 0.58257 0.61472 0.00200
C 	C 	0.75181 0.52561 0.63213 -0.06100
C 	C 	0.72822 0.49396 0.59414 0.02600
S 	S 	0.71255 0.49166 0.50550 -0.00900
C 	C 	0.74040 0.44490 0.55648 -0.00600
C 	C 	0.74582 0.45057 0.60339 -0.06100
S 	S 	0.80658 0.64380 0.64705 0.01900
C 	C 	0.81279 0.70932 0.59546 -0.07700
C 	C 	0.77184 0.68422 0.54962 -0.01700
H 	H 	0.71298 0.60911 0.48068 0.04800
H 	H 	0.77511 0.50987 0.67321 0.04600
H 	H 	0.76216 0.42475 0.64258 0.04500
H 	H 	0.77739 0.71787 0.51021 0.04300
C 	C 	0.51516 0.11595 0.64959 0.03000
S 	S 	0.52942 0.13380 0.56450 -0.00000
C 	C 	0.60484 0.19117 0.59960 -0.00600
C 	C 	0.58816 0.17493 0.64593 -0.05800
H 	H 	0.50725 0.13186 0.71037 0.05000
H 	H 	0.62304 0.20956 0.67172 0.04600
C 	C 	0.85151 0.23381 0.94421 -0.00500
C 	C 	0.79853 0.24587 0.92450 -0.05600
C 	C 	0.81954 0.30510 0.93058 0.02300
C 	C 	0.89130 0.34932 0.95778 0.00600
C 	C 	0.94127 0.33283 0.98281 -0.06600
C 	C 	0.92136 0.27514 0.97494 0.02400
S 	S 	0.83114 0.15586 0.96421 0.03300
C 	C 	0.90890 0.17106 0.00978 -0.06400
C 	C 	0.95399 0.24025 0.01098 -0.05000
S 	S 	0.88875 0.39243 0.98027 -0.02000
C 	C 	0.79979 0.36089 0.95434 -0.00400
C 	C 	0.76811 0.31201 0.92819 -0.05900
H 	H 	0.74148 0.20760 0.90895 0.04900
H 	H 	0.99136 0.36051 0.01099 0.04400
H 	H 	0.00170 0.26067 0.04304 0.06500
H 	H 	0.70939 0.27759 0.91329 0.04700
C 	C 	0.79726 0.52454 0.09065 0.00300
C 	C 	0.83175 0.56082 0.12842 -0.05700
C 	C 	0.81906 0.60838 0.11646 0.01300
C 	C 	0.77732 0.62207 0.06638 0.00300
C 	C 	0.75289 0.59329 0.02599 -0.05900
C 	C 	0.76124 0.54226 0.03943 0.02500
S 	S 	0.82117 0.48301 0.08862 -0.01500
C 	C 	0.78417 0.48232 0.02420 -0.00700
C 	C 	0.75331 0.51830 0.00199 -0.05900
S 	S 	0.79998 0.69881 0.05619 0.01500
C 	C 	0.85874 0.71569 0.11461 -0.07300
C 	C 	0.86453 0.66079 0.14365 -0.02000
H 	H 	0.86960 0.55465 0.16463 0.04300
H 	H 	0.73171 0.61229 0.98532 0.04700
H 	H 	0.72205 0.52284 0.96140 0.04600
H 	H 	0.90773 0.66349 0.17882 0.04100
C 	C 	0.49555 0.17978 0.07163 0.02700
S 	S 	0.50059 0.21374 0.97871 -0.00500
C 	C 	0.58168 0.23782 0.02237 -0.00500
C 	C 	0.56993 0.21530 0.07268 -0.05700
H 	H 	0.50953 0.17791 0.15058 0.05000
H 	H 	0.61464 0.23453 0.10639 0.04800
