data_crystal

_cell_length_a 35.22736
_cell_length_b 35.84460
_cell_length_c 34.94171
_cell_angle_alpha 95.54310
_cell_angle_beta  95.55172
_cell_angle_gamma 125.37490

_symmetry_space_group_name_	'P 1'
_symmetry_space_group_name_H-M	'P 1'

loop_
_symmetry_equiv_pos_as_xyz
  x,y,z

loop_
_atom_site_label
_atom_site_type_symbol
_atom_site_fract_x
_atom_site_fract_y
_atom_site_fract_z
_atom_site_charge
C 	C 	0.97552 0.02584 0.99493 0.03800
C 	C 	0.02304 0.05043 0.99053 -0.08000
C 	C 	0.04327 0.02679 0.98435 0.03700
C 	C 	0.01610 0.97859 0.98305 -0.08000
C 	C 	0.96865 0.95389 0.98744 0.03600
C 	C 	0.94841 0.97756 0.99348 -0.08000
H 	H 	0.04403 0.08772 0.99151 0.05100
H 	H 	0.03185 0.96035 0.97861 0.05200
H 	H 	0.91153 0.95838 0.99640 0.05100
C 	C 	0.95057 0.99557 0.44499 0.03100
C 	C 	0.99956 0.02232 0.44567 -0.07300
C 	C 	0.02336 0.00177 0.44825 0.03000
C 	C 	0.99806 0.95434 0.45002 -0.07500
C 	C 	0.94907 0.92739 0.44918 0.03200
C 	C 	0.92534 0.94805 0.44672 -0.07600
H 	H 	0.01904 0.05895 0.44405 0.04900
H 	H 	0.01650 0.93850 0.45232 0.05000
H 	H 	0.88749 0.92731 0.44624 0.05000
Cu	Cu	0.65031 0.26752 0.99664 0.92700
Cu	Cu	0.69531 0.26841 0.91826 0.87000
Cu	Cu	0.68391 0.34237 0.94600 0.89700
Cu	Cu	0.64688 0.35277 0.01713 0.89400
C 	C 	0.65796 0.30380 0.07614 0.27700
O 	O 	0.58023 0.23881 0.99006 -0.36400
C 	C 	0.67651 0.31087 0.86225 0.27900
O 	O 	0.68814 0.34004 0.00051 -0.64000
O 	O 	0.65027 0.27349 0.94089 -0.64100
O 	O 	0.67990 0.23416 0.99920 -0.37600
O 	O 	0.73616 0.28125 0.96516 -0.44200
O 	O 	0.63554 0.32079 0.06296 -0.38100
O 	O 	0.71892 0.40944 0.95532 -0.38300
C 	C 	0.70948 0.43350 0.97831 0.29100
C 	C 	0.56243 0.25800 0.97297 0.28400
O 	O 	0.59083 0.30147 0.96865 -0.39300
O 	O 	0.67480 0.41304 0.99846 -0.39700
O 	O 	0.66011 0.27416 0.05256 -0.35800
C 	C 	0.72123 0.25147 0.98907 0.29000
O 	O 	0.69222 0.34612 0.89105 -0.38600
O 	O 	0.67017 0.27233 0.86920 -0.41700
H 	H 	0.72086 0.36022 0.01589 0.16300
H 	H 	0.61849 0.25493 0.92395 0.17100
Cu	Cu	0.72273 0.33227 0.44356 0.92800
Cu	Cu	0.72317 0.28985 0.52282 0.87000
Cu	Cu	0.65019 0.30430 0.49701 0.89700
Cu	Cu	0.63799 0.33875 0.42528 0.89300
C 	C 	0.68785 0.32908 0.36435 0.27900
O 	O 	0.75404 0.40159 0.44892 -0.36400
C 	C 	0.68580 0.31448 0.58056 0.27900
O 	O 	0.64983 0.29751 0.44196 -0.64200
O 	O 	0.71954 0.33486 0.49992 -0.64100
O 	O 	0.75397 0.30036 0.44004 -0.37300
O 	O 	0.70657 0.24772 0.47618 -0.44200
O 	O 	0.66949 0.34962 0.37868 -0.38400
O 	O 	0.58225 0.27153 0.49002 -0.38300
C 	C 	0.55713 0.27867 0.46536 0.28900
C 	C 	0.73624 0.42100 0.46603 0.28300
O 	O 	0.69264 0.39454 0.47224 -0.39200
O 	O 	0.57771 0.31299 0.44544 -0.39600
O 	O 	0.71290 0.32053 0.38751 -0.35900
C 	C 	0.73567 0.26018 0.45133 0.28900
O 	O 	0.64911 0.29952 0.55278 -0.38700
O 	O 	0.72303 0.31731 0.57232 -0.41700
H 	H 	0.62804 0.26501 0.42736 0.16300
H 	H 	0.73989 0.36651 0.51623 0.17200
C 	C 	0.75936 0.38934 0.75835 -0.04300
C 	C 	0.76086 0.38958 0.71848 -0.04400
C 	C 	0.72013 0.35661 0.69010 0.01500
C 	C 	0.67721 0.32402 0.70193 -0.00900
C 	C 	0.67581 0.32348 0.74205 -0.00800
C 	C 	0.71718 0.35596 0.77034 0.01400
C 	C 	0.63351 0.28936 0.75383 0.01400
C 	C 	0.59238 0.25739 0.72550 -0.04300
C 	C 	0.59363 0.25826 0.68565 -0.04400
C 	C 	0.63611 0.29091 0.67362 0.01600
C 	C 	0.63843 0.28970 0.63369 -0.02800
C 	C 	0.68174 0.32064 0.62191 -0.06200
C 	C 	0.72218 0.35480 0.65011 -0.02800
C 	C 	0.71630 0.35351 0.81012 -0.02600
C 	C 	0.67487 0.31809 0.82166 -0.06200
C 	C 	0.63331 0.28666 0.79364 -0.02600
H 	H 	0.79124 0.41463 0.77987 0.03700
H 	H 	0.79389 0.41503 0.70970 0.03700
H 	H 	0.55955 0.23144 0.73426 0.03800
H 	H 	0.56174 0.23298 0.66414 0.03900
H 	H 	0.60717 0.26350 0.61189 0.04500
H 	H 	0.75537 0.37917 0.64092 0.03900
H 	H 	0.74829 0.37777 0.83191 0.03900
H 	H 	0.60130 0.25957 0.80275 0.03700
C 	C 	0.65626 0.23929 0.23429 -0.04300
C 	C 	0.65213 0.23572 0.19359 -0.04200
C 	C 	0.66529 0.27455 0.17651 0.01600
C 	C 	0.68385 0.31758 0.20061 -0.00800
C 	C 	0.68793 0.32115 0.24154 -0.00900
C 	C 	0.67357 0.28172 0.25842 0.01700
C 	C 	0.70513 0.36384 0.26549 0.01600
C 	C 	0.71945 0.40296 0.24851 -0.04300
C 	C 	0.71545 0.39943 0.20790 -0.04300
C 	C 	0.69706 0.35672 0.18373 0.01600
C 	C 	0.69043 0.35236 0.14290 -0.02800
C 	C 	0.67030 0.30916 0.11877 -0.05700
C 	C 	0.65880 0.27056 0.13561 -0.02400
C 	C 	0.67546 0.28494 0.29906 -0.02900
C 	C 	0.69085 0.32699 0.32264 -0.05600
C 	C 	0.70663 0.36657 0.30594 -0.02600
H 	H 	0.64545 0.20888 0.24697 0.03900
H 	H 	0.63815 0.20259 0.17536 0.04000
H 	H 	0.73312 0.43601 0.26672 0.03900
H 	H 	0.72609 0.42979 0.19521 0.03700
H 	H 	0.69993 0.38224 0.12981 0.03100
H 	H 	0.64338 0.23724 0.11694 0.05000
H 	H 	0.66367 0.25455 0.31215 0.04000
H 	H 	0.71931 0.39921 0.32440 0.04500
C 	C 	0.76189 0.47211 0.47189 -0.09200
C 	C 	0.79819 0.49869 0.45102 0.01600
C 	C 	0.81772 0.54571 0.45211 -0.07300
C 	C 	0.80137 0.56664 0.47413 0.04400
C 	C 	0.76685 0.54093 0.49648 -0.07300
C 	C 	0.74727 0.49388 0.49550 0.01400
C 	C 	0.81800 0.61362 0.47190 -0.03300
C 	C 	0.83232 0.65297 0.46967 -0.00000
C 	C 	0.84917 0.69888 0.46625 -0.00700
C 	C 	0.86383 0.73801 0.46280 -0.02400
C 	C 	0.88188 0.78476 0.45814 0.02500
C 	C 	0.89886 0.80033 0.42409 -0.04900
C 	C 	0.91924 0.84654 0.42054 -0.03200
C 	C 	0.92280 0.87752 0.45106 -0.00600
C 	C 	0.90456 0.86154 0.48468 -0.03200
C 	C 	0.88419 0.81528 0.48821 -0.04900
H 	H 	0.81016 0.48262 0.43289 0.03700
H 	H 	0.84472 0.56552 0.43504 0.04900
H 	H 	0.75443 0.55706 0.51394 0.04900
H 	H 	0.72004 0.47417 0.51240 0.03100
H 	H 	0.89698 0.77686 0.40065 0.04300
H 	H 	0.93309 0.85852 0.39443 0.03700
H 	H 	0.90720 0.88520 0.50841 0.03700
H 	H 	0.87097 0.80343 0.51456 0.04300
C 	C 	0.92585 0.01756 0.44284 -0.00500
C 	C 	0.93776 0.05325 0.47323 -0.03200
C 	C 	0.91630 0.07592 0.47027 -0.04900
C 	C 	0.88278 0.06308 0.43693 0.02500
C 	C 	0.87034 0.02703 0.40675 -0.04900
C 	C 	0.89180 0.00431 0.40968 -0.03100
C 	C 	0.86150 0.08722 0.43363 -0.02400
C 	C 	0.84413 0.10788 0.43144 -0.00700
C 	C 	0.82413 0.13245 0.42968 -0.00000
C 	C 	0.80727 0.15366 0.42895 -0.03400
C 	C 	0.78726 0.17916 0.42918 0.04500
C 	C 	0.81575 0.22668 0.42746 -0.07500
C 	C 	0.79812 0.25282 0.43263 0.01700
C 	C 	0.75187 0.23157 0.43978 -0.09900
C 	C 	0.72267 0.18344 0.43953 0.01700
C 	C 	0.74037 0.15740 0.43433 -0.07600
H 	H 	0.96389 0.06363 0.49899 0.03700
H 	H 	0.92596 0.10364 0.49377 0.04200
H 	H 	0.84436 0.01683 0.38093 0.04300
H 	H 	0.88247 0.97690 0.38601 0.03700
H 	H 	0.85197 0.24368 0.42325 0.04900
H 	H 	0.82100 0.28984 0.43256 0.03200
H 	H 	0.68665 0.16641 0.44427 0.02700
H 	H 	0.71800 0.12058 0.43534 0.04800
C 	C 	0.07492 0.02999 0.44929 -0.00600
C 	C 	0.09284 0.01922 0.41940 -0.03100
C 	C 	0.14179 0.04490 0.42112 -0.04900
C 	C 	0.17309 0.08151 0.45268 0.02500
C 	C 	0.15526 0.09262 0.48236 -0.04900
C 	C 	0.10633 0.06695 0.48069 -0.03200
C 	C 	0.22351 0.10739 0.45484 -0.02400
C 	C 	0.26573 0.12911 0.45673 -0.00700
C 	C 	0.31516 0.15455 0.45891 0.00000
C 	C 	0.35735 0.17628 0.46062 -0.03300
C 	C 	0.40773 0.20229 0.46243 0.04600
C 	C 	0.43083 0.18207 0.47136 -0.07400
C 	C 	0.47963 0.20704 0.47248 0.01800
C 	C 	0.50569 0.25250 0.46464 -0.09000
C 	C 	0.48237 0.27270 0.45587 0.01800
C 	C 	0.43359 0.24764 0.45476 -0.07400
H 	H 	0.06887 0.99086 0.39497 0.03600
H 	H 	0.15533 0.03621 0.39802 0.04300
H 	H 	0.17928 0.12093 0.50682 0.04300
H 	H 	0.09284 0.07544 0.50396 0.03700
H 	H 	0.41100 0.14696 0.47727 0.04900
H 	H 	0.49704 0.19088 0.47902 0.02900
H 	H 	0.50201 0.30788 0.45016 0.03300
H 	H 	0.41593 0.26350 0.44791 0.04900
C 	C 	0.73407 0.48350 0.97762 -0.09000
C 	C 	0.71097 0.50434 0.98397 0.01900
C 	C 	0.73448 0.55183 0.98402 -0.07400
C 	C 	0.78117 0.57891 0.97771 0.04600
C 	C 	0.80428 0.55827 0.97107 -0.07400
C 	C 	0.78083 0.51071 0.97101 0.01900
C 	C 	0.80546 0.62798 0.97844 -0.03300
C 	C 	0.82528 0.66900 0.97914 0.00000
C 	C 	0.84815 0.71700 0.98013 -0.00700
C 	C 	0.86762 0.75801 0.98103 -0.02400
C 	C 	0.89102 0.80701 0.98211 0.02500
C 	C 	0.89898 0.83590 0.01665 -0.04800
C 	C 	0.92339 0.88381 0.01815 -0.03000
C 	C 	0.93999 0.90306 0.98510 -0.00900
C 	C 	0.93117 0.87391 0.95032 -0.03100
C 	C 	0.90680 0.82604 0.94887 -0.04900
H 	H 	0.67473 0.48372 0.98863 0.03200
H 	H 	0.71638 0.56758 0.98903 0.04900
H 	H 	0.84042 0.57906 0.96616 0.04900
H 	H 	0.79918 0.49519 0.96629 0.03000
H 	H 	0.88674 0.82136 0.04242 0.04300
H 	H 	0.93008 0.90604 0.04513 0.03700
H 	H 	0.94367 0.88845 0.92461 0.03700
H 	H 	0.90058 0.80385 0.92203 0.04300
C 	C 	0.74834 0.23356 0.00084 -0.09900
C 	C 	0.72475 0.18798 0.00821 0.01800
C 	C 	0.74946 0.16880 0.01391 -0.07500
C 	C 	0.79785 0.19502 0.01246 0.04600
C 	C 	0.82198 0.24127 0.00722 -0.07600
C 	C 	0.79739 0.26054 0.00150 0.01800
C 	C 	0.82171 0.17329 0.01275 -0.03400
C 	C 	0.84205 0.15545 0.01295 0.00000
C 	C 	0.86578 0.13452 0.01199 -0.00700
C 	C 	0.88593 0.11655 0.01021 -0.02400
C 	C 	0.90981 0.09499 0.00705 0.02700
C 	C 	0.91353 0.07338 0.03705 -0.05000
C 	C 	0.93540 0.05114 0.03330 -0.02900
C 	C 	0.95360 0.05035 0.99946 -0.00900
C 	C 	0.95012 0.07232 0.96959 -0.03000
C 	C 	0.92833 0.09458 0.97341 -0.05100
H 	H 	0.68701 0.16683 0.00806 0.03200
H 	H 	0.73065 0.13309 0.01824 0.04900
H 	H 	0.85952 0.26189 0.00646 0.04800
H 	H 	0.81624 0.29605 0.99669 0.02600
H 	H 	0.89930 0.07359 0.06315 0.04300
H 	H 	0.93809 0.03444 0.05658 0.03700
H 	H 	0.96389 0.07174 0.94330 0.03700
H 	H 	0.92552 0.11119 0.95009 0.04300
C 	C 	0.09279 0.05233 0.97879 -0.00900
C 	C 	0.12999 0.08516 0.00979 -0.03000
C 	C 	0.17703 0.10673 0.00543 -0.04800
C 	C 	0.18711 0.09561 0.97007 0.02500
C 	C 	0.15004 0.06368 0.93879 -0.04900
C 	C 	0.10301 0.04211 0.94310 -0.03100
C 	C 	0.23536 0.11555 0.96639 -0.02400
C 	C 	0.27575 0.13223 0.96327 -0.00700
C 	C 	0.32311 0.15163 0.96005 0.00000
C 	C 	0.36377 0.16839 0.95794 -0.03300
C 	C 	0.41267 0.18890 0.95640 0.04500
C 	C 	0.44271 0.23512 0.95131 -0.07300
C 	C 	0.49137 0.25706 0.95470 0.01500
C 	C 	0.51046 0.23293 0.96353 -0.09200
C 	C 	0.47977 0.18573 0.96647 0.01800
C 	C 	0.43111 0.16393 0.96308 -0.07300
H 	H 	0.12243 0.09325 0.03744 0.03700
H 	H 	0.20556 0.13151 0.02971 0.04300
H 	H 	0.15761 0.05509 0.91132 0.04300
H 	H 	0.07451 0.01701 0.91893 0.03600
H 	H 	0.42858 0.25449 0.94577 0.04900
H 	H 	0.51432 0.29320 0.95171 0.03000
H 	H 	0.49367 0.16626 0.97233 0.03400
H 	H 	0.40795 0.12798 0.96663 0.04900
