data_crystal

_cell_length_a 23.28989
_cell_length_b 23.48347
_cell_length_c 34.96364
_cell_angle_alpha 95.48681
_cell_angle_beta  95.48591
_cell_angle_gamma 125.94133

_symmetry_space_group_name_	'P 1'
_symmetry_space_group_name_H-M	'P 1'

loop_
_symmetry_equiv_pos_as_xyz
  x,y,z

loop_
_atom_site_label
_atom_site_type_symbol
_atom_site_fract_x
_atom_site_fract_y
_atom_site_fract_z
_atom_site_charge
H 	H 	0.03439 0.92049 0.46229 0.05300
C 	C 	0.02462 0.96415 0.98863 -0.06800
C 	C 	0.03940 0.01431 0.45831 0.03100
H 	H 	0.02801 0.09856 0.45493 0.05100
C 	C 	0.03214 0.07224 0.99336 -0.07300
H 	H 	0.05018 0.93780 0.98612 0.05100
C 	C 	0.00049 0.04247 0.45641 -0.07500
C 	C 	0.00411 0.94213 0.46065 -0.07400
C 	C 	0.06500 0.03800 0.98946 0.02800
H 	H 	0.06325 0.12939 0.99397 0.05100
H 	H 	0.85929 0.01033 0.51294 0.03700
C 	C 	0.95898 0.03241 0.99625 0.03500
C 	C 	0.95160 0.92438 0.99150 0.02700
C 	C 	0.91884 0.95859 0.99535 -0.07400
H 	H 	0.86217 0.92773 0.99738 0.05100
C 	C 	0.92613 0.99842 0.45670 0.03200
C 	C 	0.93009 0.89789 0.46105 0.03900
C 	C 	0.89086 0.92587 0.45908 -0.07800
H 	H 	0.83346 0.89163 0.45936 0.05100
Cu	Cu	0.62908 0.22952 0.00434 0.92700
Cu	Cu	0.68022 0.23022 0.92021 0.86900
Cu	Cu	0.67014 0.34335 0.95426 0.89700
Cu	Cu	0.63938 0.36643 0.03315 0.89400
C 	C 	0.65768 0.28420 0.08661 0.28800
O 	O 	0.52558 0.19193 0.00588 -0.36600
C 	C 	0.64214 0.29419 0.86817 0.28600
O 	O 	0.69160 0.34123 0.00821 -0.64100
O 	O 	0.61722 0.23764 0.94881 -0.64100
O 	O 	0.67019 0.17548 0.99965 -0.37400
O 	O 	0.74921 0.24888 0.96293 -0.44300
O 	O 	0.62759 0.31580 0.07792 -0.38500
O 	O 	0.72761 0.44666 0.96285 -0.38600
C 	C 	0.72681 0.48751 0.99116 0.31300
C 	C 	0.49995 0.22502 0.99281 0.30400
O 	O 	0.54439 0.29155 0.98838 -0.39500
O 	O 	0.68299 0.46047 0.01646 -0.39800
O 	O 	0.65604 0.23967 0.05953 -0.36200
C 	C 	0.73059 0.20277 0.98640 0.28900
O 	O 	0.66242 0.34596 0.89771 -0.38400
O 	O 	0.63422 0.23550 0.87407 -0.42200
H 	H 	0.74375 0.37040 0.01953 0.16300
H 	H 	0.56675 0.20935 0.93451 0.17400
Cu	Cu	0.74069 0.33709 0.45451 0.92700
Cu	Cu	0.73611 0.28450 0.53849 0.87000
Cu	Cu	0.62608 0.30034 0.50431 0.89700
Cu	Cu	0.60732 0.33503 0.42581 0.89400
C 	C 	0.68695 0.31170 0.37226 0.28700
O 	O 	0.78400 0.44155 0.45367 -0.36300
C 	C 	0.67451 0.32618 0.59037 0.28600
O 	O 	0.62829 0.27964 0.45026 -0.64000
O 	O 	0.73219 0.34903 0.51000 -0.64100
O 	O 	0.79047 0.29109 0.45878 -0.37500
O 	O 	0.71447 0.21483 0.49566 -0.44400
O 	O 	0.65797 0.34446 0.38114 -0.38500
O 	O 	0.52214 0.24713 0.49527 -0.38400
C 	C 	0.48320 0.24955 0.46635 0.30900
C 	C 	0.75261 0.46975 0.46612 0.28300
O 	O 	0.68544 0.42764 0.47091 -0.39400
O 	O 	0.51330 0.29581 0.44270 -0.39700
O 	O 	0.73026 0.31090 0.39921 -0.36200
C 	C 	0.76073 0.23125 0.47234 0.30800
O 	O 	0.62249 0.30630 0.56079 -0.38500
O 	O 	0.73266 0.33186 0.58457 -0.42200
H 	H 	0.59709 0.22800 0.43850 0.16300
H 	H 	0.76212 0.39913 0.52440 0.17300
C 	C 	0.59454 0.25497 0.75782 -0.06400
C 	C 	0.63381 0.32439 0.74950 0.01800
C 	C 	0.66872 0.38357 0.78028 -0.06300
C 	C 	0.66832 0.37365 0.81912 0.00900
C 	C 	0.63269 0.30431 0.82752 -0.08700
C 	C 	0.59360 0.24495 0.79658 0.01000
C 	C 	0.64452 0.33516 0.70905 0.01800
H 	H 	0.69817 0.43735 0.77417 0.04400
H 	H 	0.69798 0.41999 0.84259 0.03800
H 	H 	0.56423 0.19108 0.80254 0.03000
H 	H 	0.56694 0.20886 0.73429 0.04200
C 	C 	0.71446 0.37414 0.70065 -0.06400
C 	C 	0.72442 0.37501 0.66186 0.01000
C 	C 	0.66447 0.33614 0.63098 -0.08800
C 	C 	0.59463 0.30092 0.63946 0.00900
C 	C 	0.58476 0.30058 0.67832 -0.06300
H 	H 	0.76103 0.40153 0.72413 0.04200
H 	H 	0.77869 0.40407 0.65583 0.03000
H 	H 	0.54784 0.27146 0.61603 0.03800
H 	H 	0.53058 0.27139 0.68449 0.04400
C 	C 	0.65617 0.21777 0.18086 -0.06300
C 	C 	0.69063 0.28126 0.20844 0.01900
C 	C 	0.72087 0.34654 0.19570 -0.06200
C 	C 	0.71331 0.34789 0.15572 0.01100
C 	C 	0.67576 0.28400 0.12811 -0.08400
C 	C 	0.64900 0.21915 0.14083 0.01600
C 	C 	0.68822 0.27859 0.25027 0.01900
H 	H 	0.74783 0.39587 0.21679 0.04500
H 	H 	0.73484 0.39833 0.14623 0.02200
H 	H 	0.62001 0.16946 0.11980 0.03900
H 	H 	0.63301 0.16716 0.19044 0.04600
C 	C 	0.62273 0.24942 0.26327 -0.06200
C 	C 	0.62184 0.25686 0.30330 0.01100
C 	C 	0.68639 0.29319 0.33072 -0.08400
C 	C 	0.75137 0.31880 0.31774 0.01500
C 	C 	0.75230 0.31176 0.27764 -0.06300
H 	H 	0.57294 0.22344 0.24235 0.04500
H 	H 	0.57130 0.23630 0.31301 0.02100
H 	H 	0.80156 0.34688 0.33861 0.03800
H 	H 	0.80308 0.33407 0.26787 0.04600
C 	C 	0.84196 0.68932 0.46637 0.03800
C 	C 	0.79345 0.65172 0.49104 -0.07000
C 	C 	0.76690 0.58100 0.49241 0.01400
C 	C 	0.89493 0.82364 0.46320 -0.02400
C 	C 	0.83893 0.58595 0.44516 0.01500
C 	C 	0.86540 0.65664 0.44386 -0.07000
C 	C 	0.86937 0.76215 0.46482 -0.02200
C 	C 	0.78853 0.54723 0.46894 -0.09100
H 	H 	0.77592 0.67700 0.50896 0.04700
H 	H 	0.72874 0.55214 0.51126 0.03000
H 	H 	0.85600 0.56071 0.42681 0.03700
H 	H 	0.90361 0.68575 0.42507 0.04800
C 	C 	0.82941 0.10680 0.45890 -0.01000
C 	C 	0.85540 0.09952 0.42567 -0.03300
C 	C 	0.88346 0.06068 0.42401 -0.04000
C 	C 	0.78550 0.18828 0.46590 -0.12000
C 	C 	0.85747 0.03428 0.48831 -0.04000
C 	C 	0.82928 0.07299 0.48989 -0.03400
C 	C 	0.80557 0.15128 0.46203 0.04500
C 	C 	0.88602 0.02914 0.45570 -0.00200
H 	H 	0.85517 0.12501 0.40147 0.04000
H 	H 	0.90503 0.05674 0.39860 0.03900
H 	H 	0.80881 0.07797 0.51557 0.03300
C 	C 	0.26659 0.13907 0.46138 -0.00800
C 	C 	0.24019 0.15369 0.49224 -0.03300
C 	C 	0.16576 0.11451 0.49067 -0.04000
C 	C 	0.40710 0.21032 0.46499 -0.11000
C 	C 	0.14398 0.04704 0.42697 -0.04000
C 	C 	0.21837 0.08623 0.42858 -0.03300
C 	C 	0.34308 0.17782 0.46349 0.04500
C 	C 	0.11740 0.06046 0.45822 -0.00000
H 	H 	0.27724 0.19479 0.51759 0.03900
H 	H 	0.14570 0.12509 0.51497 0.03900
H 	H 	0.10700 0.00551 0.40177 0.03900
H 	H 	0.23848 0.07502 0.40451 0.03700
C 	C 	0.83595 0.70040 0.99055 -0.00700
C 	C 	0.84649 0.74600 0.02388 -0.03400
C 	C 	0.88324 0.81907 0.02398 -0.04200
C 	C 	0.76607 0.56236 0.99069 -0.11000
C 	C 	0.89837 0.80100 0.95723 -0.04100
C 	C 	0.86164 0.72794 0.95718 -0.03300
C 	C 	0.79821 0.62529 0.99052 0.04600
C 	C 	0.90962 0.84690 0.99071 0.00200
H 	H 	0.82650 0.72492 0.04974 0.03800
H 	H 	0.89196 0.85418 0.05001 0.03900
H 	H 	0.91843 0.82204 0.93139 0.03800
H 	H 	0.85334 0.69285 0.93125 0.03900
C 	C 	0.85481 0.12392 0.00201 0.03700
C 	C 	0.78217 0.08137 0.00589 -0.07200
C 	C 	0.74222 0.10820 0.00265 0.01300
C 	C 	0.92423 0.06662 0.99894 -0.02000
C 	C 	0.84847 0.22140 0.99332 0.01400
C 	C 	0.88824 0.19442 0.99653 -0.07100
C 	C 	0.89331 0.09346 0.00071 -0.02700
C 	C 	0.77471 0.17780 0.99533 -0.09500
H 	H 	0.75610 0.02689 0.01036 0.04700
H 	H 	0.68553 0.07403 0.00446 0.03200
H 	H 	0.87462 0.27566 0.98845 0.02800
H 	H 	0.94457 0.22782 0.99386 0.04600
C 	C 	0.28786 0.14039 0.98741 -0.00700
C 	C 	0.23576 0.09458 0.95383 -0.03300
C 	C 	0.16309 0.06425 0.95369 -0.04100
C 	C 	0.42471 0.19316 0.98996 -0.11200
C 	C 	0.19478 0.12749 0.02025 -0.04200
C 	C 	0.26743 0.15785 0.02035 -0.03400
C 	C 	0.36210 0.16850 0.98841 0.04500
C 	C 	0.14212 0.07940 0.98721 0.00200
H 	H 	0.25130 0.08147 0.92812 0.03700
H 	H 	0.12282 0.02735 0.92798 0.03900
H 	H 	0.17913 0.13941 0.04628 0.04000
H 	H 	0.30761 0.19382 0.04628 0.03900
