data_crystal

_cell_length_a 27.56276
_cell_length_b 28.95918
_cell_length_c 30.84800
_cell_angle_alpha 61.12394
_cell_angle_beta  118.57819
_cell_angle_gamma 133.19887

_symmetry_space_group_name_	'P 1'
_symmetry_space_group_name_H-M	'P 1'

loop_
_symmetry_equiv_pos_as_xyz
  x,y,z

loop_
_atom_site_label
_atom_site_type_symbol
_atom_site_fract_x
_atom_site_fract_y
_atom_site_fract_z
_atom_site_charge
C 	C 	0.75250 0.33703 0.04349 0.15000
N 	N 	0.78705 0.39274 0.05725 -0.13800
C 	C 	0.75225 0.40394 0.06597 0.15300
N 	N 	0.68359 0.36011 0.06034 -0.12900
C 	C 	0.64989 0.30294 0.04999 0.15500
N 	N 	0.68415 0.29171 0.04087 -0.14100
C 	C 	0.73149 0.29975 0.53476 0.14800
N 	N 	0.66619 0.26087 0.54001 -0.13100
C 	C 	0.64427 0.28530 0.54853 0.14800
N 	N 	0.68743 0.34800 0.55179 -0.14600
C 	C 	0.75061 0.38804 0.54325 0.14800
N 	N 	0.77308 0.36400 0.53494 -0.13300
C 	C 	0.27983 0.65641 0.26998 0.15000
N 	N 	0.24140 0.59756 0.25956 -0.13700
C 	C 	0.27217 0.57983 0.25359 0.15100
N 	N 	0.34076 0.62029 0.25882 -0.14100
C 	C 	0.37807 0.68082 0.26477 0.15700
N 	N 	0.34777 0.69883 0.27079 -0.14000
C 	C 	0.26099 0.62094 0.76486 0.15200
N 	N 	0.31713 0.66439 0.74499 -0.13700
C 	C 	0.33990 0.64260 0.73425 0.15400
N 	N 	0.30757 0.57767 0.74446 -0.13300
C 	C 	0.25120 0.53415 0.76364 0.15500
N 	N 	0.22733 0.55567 0.77349 -0.13900
Co	Co	0.08908 0.98277 0.16712 1.18900
Co	Co	0.91820 0.98928 0.12638 1.18800
Co	Co	0.05141 0.04629 0.20005 1.19400
Co	Co	0.96210 0.93860 0.08614 1.19300
C 	C 	0.08125 0.85851 0.21468 0.32200
Co	Co	0.05266 0.89566 0.10258 1.17400
Co	Co	0.94269 0.05714 0.20077 1.17400
C 	C 	0.00756 0.95951 0.99887 0.29100
O 	O 	0.97379 0.03089 0.17209 -0.76200
C 	C 	0.07979 0.17816 0.18230 0.31700
O 	O 	0.12477 0.03797 0.21226 -0.42000
O 	O 	0.88880 0.94684 0.07365 -0.43100
C 	C 	0.87586 0.07537 0.09076 0.33200
C 	C 	0.19327 0.01685 0.12701 0.32700
C 	C 	0.90369 0.80298 0.09592 0.35100
O 	O 	0.10530 0.14647 0.19326 -0.34700
O 	O 	0.15699 0.95366 0.13329 -0.39400
O 	O 	0.17447 0.04087 0.13786 -0.36500
O 	O 	0.86527 0.04997 0.13637 -0.41300
O 	O 	0.90081 0.05941 0.07765 -0.37600
O 	O 	0.03158 0.99710 0.27295 -0.33500
O 	O 	0.95003 0.83157 0.07225 -0.37100
O 	O 	0.90467 0.83771 0.11268 -0.38200
O 	O 	0.03615 0.94668 0.11780 -0.75700
C 	C 	0.82740 0.92000 0.19896 0.32300
O 	O 	0.87640 0.95880 0.23009 -0.38200
O 	O 	0.84165 0.91279 0.16792 -0.37600
O 	O 	0.04009 0.83518 0.17404 -0.37700
O 	O 	0.08420 0.90155 0.22279 -0.37100
O 	O 	0.06096 0.96045 0.03202 -0.37600
O 	O 	0.97058 0.96366 0.01171 -0.30600
Co	Co	0.08934 0.96881 0.67374 1.19100
Co	Co	0.90568 0.96330 0.61631 1.19100
Co	Co	0.02062 0.00501 0.70434 1.19400
Co	Co	0.97557 0.93040 0.58391 1.19700
C 	C 	0.10694 0.85892 0.71401 0.32100
Co	Co	0.09446 0.91857 0.60298 1.17500
Co	Co	0.89952 0.01390 0.68558 1.17300
O 	O 	0.94238 0.98643 0.67059 -0.76200
C 	C 	0.04399 0.12927 0.69127 0.32000
O 	O 	0.10311 0.00660 0.72293 -0.41900
O 	O 	0.89610 0.93402 0.56301 -0.41600
C 	C 	0.87560 0.05833 0.57355 0.32800
C 	C 	0.21062 0.04247 0.63566 0.32600
C 	C 	0.94457 0.81506 0.57030 0.34100
O 	O 	0.06839 0.10503 0.68743 -0.35800
O 	O 	0.19035 0.98376 0.64219 -0.39100
O 	O 	0.17174 0.04982 0.64096 -0.38400
O 	O 	0.84435 0.02226 0.61084 -0.39900
O 	O 	0.91485 0.04887 0.57166 -0.38100
O 	O 	0.99508 0.95957 0.77492 -0.32500
O 	O 	0.00436 0.85621 0.55896 -0.37600
O 	O 	0.92271 0.83402 0.58382 -0.35300
O 	O 	0.04726 0.93669 0.62328 -0.76100
C 	C 	0.78359 0.88242 0.66486 0.31900
O 	O 	0.82496 0.91447 0.70109 -0.38100
O 	O 	0.80594 0.89300 0.62867 -0.36300
O 	O 	0.07447 0.84589 0.66891 -0.38900
O 	O 	0.11503 0.90373 0.72461 -0.36200
O 	O 	0.10626 0.99204 0.53739 -0.37800
O 	O 	0.01512 0.99227 0.51809 -0.30900
C 	C 	0.05513 0.00108 0.92587 0.04000
C 	C 	0.93098 0.92759 0.91365 -0.10200
C 	C 	0.92529 0.92621 0.86601 0.04900
C 	C 	0.04912 0.99650 0.87965 -0.09700
C 	C 	0.11274 0.02709 0.86504 0.77600
H 	H 	0.10539 0.03073 0.94865 0.07900
H 	H 	0.87523 0.90011 0.84148 0.07400
C 	C 	0.86646 0.89153 0.92989 0.78200
F 	F 	0.17131 0.05413 0.90259 -0.44900
F 	F 	0.12062 0.07587 0.82073 -0.46600
F 	F 	0.10675 0.97986 0.85750 -0.44300
F 	F 	0.86289 0.93597 0.93159 -0.44200
F 	F 	0.86658 0.84924 0.97721 -0.46300
F 	F 	0.80797 0.85492 0.89635 -0.45000
C 	C 	0.10192 0.02964 0.43299 0.04600
C 	C 	0.97834 0.96980 0.41519 -0.09900
C 	C 	0.97280 0.96870 0.36745 0.04500
C 	C 	0.09553 0.02629 0.38612 -0.09600
C 	C 	0.15820 0.05332 0.37248 0.77800
H 	H 	0.15219 0.05434 0.45775 0.08000
H 	H 	0.92344 0.94782 0.34091 0.07700
C 	C 	0.91532 0.94503 0.42703 0.78100
F 	F 	0.21278 0.06451 0.41442 -0.44200
F 	F 	0.17747 0.11157 0.33591 -0.44500
F 	F 	0.14372 0.00936 0.35366 -0.44300
F 	F 	0.92426 0.99645 0.43043 -0.44300
F 	F 	0.90417 0.89775 0.47229 -0.47300
F 	F 	0.85696 0.91748 0.38950 -0.45200
C 	C 	0.15642 0.30287 0.69941 -0.10800
C 	C 	0.14540 0.29333 0.74391 0.01000
C 	C 	0.11119 0.23016 0.77521 0.13600
C 	C 	0.08383 0.17661 0.76002 -0.02300
C 	C 	0.09038 0.18549 0.71368 -0.09800
C 	C 	0.12866 0.24914 0.68405 0.19900
C 	C 	0.16618 0.34899 0.75601 0.00100
O 	O 	0.10050 0.22020 0.81899 -0.26500
H 	H 	0.05407 0.12783 0.78292 0.09200
O 	O 	0.13795 0.25887 0.63968 -0.27400
H 	H 	0.18438 0.35172 0.67581 0.08200
C 	C 	0.22603 0.37903 0.79302 0.13700
C 	C 	0.24891 0.43573 0.80057 -0.05900
C 	C 	0.21383 0.46419 0.77001 -0.05800
C 	C 	0.15089 0.43103 0.73606 0.17000
C 	C 	0.12746 0.37377 0.72898 -0.09500
O 	O 	0.26280 0.35366 0.82129 -0.26700
H 	H 	0.29672 0.46029 0.82757 0.07300
O 	O 	0.11526 0.45750 0.70659 -0.27500
H 	H 	0.08043 0.34991 0.70121 0.08200
H 	H 	0.09988 0.26007 0.61258 0.15600
H 	H 	0.29605 0.37520 0.80155 0.16000
H 	H 	0.08352 0.43890 0.72653 0.15800
H 	H 	0.13966 0.22140 0.84634 0.17500
C 	C 	0.60246 0.82359 0.62956 -0.11600
C 	C 	0.58189 0.77727 0.67460 0.01200
C 	C 	0.62280 0.75633 0.71170 0.13000
C 	C 	0.68669 0.78619 0.70565 -0.02700
C 	C 	0.71005 0.83688 0.66274 -0.11900
C 	C 	0.66598 0.85280 0.62324 0.19800
C 	C 	0.51862 0.75216 0.68350 -0.00200
O 	O 	0.60020 0.70646 0.75366 -0.26500
H 	H 	0.71963 0.77239 0.73560 0.06900
O 	O 	0.68728 0.90080 0.58031 -0.29200
H 	H 	0.57021 0.83850 0.60018 0.07700
C 	C 	0.52174 0.76898 0.72111 0.13400
C 	C 	0.46185 0.73672 0.73503 -0.05900
C 	C 	0.39868 0.68881 0.71075 -0.05700
C 	C 	0.39494 0.67792 0.66904 0.16800
C 	C 	0.45493 0.70880 0.65611 -0.09700
O 	O 	0.58359 0.81444 0.74605 -0.26400
H 	H 	0.46500 0.74654 0.76637 0.07800
O 	O 	0.33292 0.63428 0.64276 -0.27400
H 	H 	0.45207 0.69749 0.62585 0.07800
H 	H 	0.67221 0.87783 0.55598 0.16400
H 	H 	0.59081 0.85688 0.72571 0.15600
H 	H 	0.31656 0.66043 0.61489 0.15500
H 	H 	0.61895 0.72800 0.78038 0.17600
C 	C 	0.24399 0.69896 0.82072 -0.09900
C 	C 	0.19300 0.70544 0.78223 -0.00200
C 	C 	0.16083 0.67943 0.73988 0.14000
C 	C 	0.18116 0.64902 0.73568 -0.06300
C 	C 	0.23379 0.64469 0.77321 -0.05700
C 	C 	0.26439 0.66863 0.81636 0.16700
C 	C 	0.17820 0.74516 0.78355 0.01100
O 	O 	0.11276 0.68755 0.70099 -0.27200
H 	H 	0.15755 0.63078 0.70232 0.07300
O 	O 	0.31621 0.66496 0.85322 -0.27600
H 	H 	0.26899 0.71886 0.85337 0.07600
C 	C 	0.11271 0.71638 0.78635 0.12100
C 	C 	0.09172 0.75566 0.77071 -0.02800
C 	C 	0.13618 0.82356 0.75295 -0.11700
C 	C 	0.20524 0.85261 0.75922 0.19500
C 	C 	0.22583 0.81335 0.77371 -0.11200
O 	O 	0.06734 0.64975 0.80018 -0.27500
H 	H 	0.03908 0.73291 0.76801 0.06200
O 	O 	0.25065 0.91923 0.74534 -0.28800
H 	H 	0.27741 0.83599 0.77372 0.08200
H 	H 	0.29325 0.62271 0.87809 0.15600
H 	H 	0.07485 0.63874 0.83760 0.15300
H 	H 	0.27142 0.93401 0.77674 0.16000
H 	H 	0.06802 0.64736 0.70891 0.15800
C 	C 	0.19708 0.32443 0.23521 -0.10100
C 	C 	0.17102 0.36028 0.19895 0.00700
C 	C 	0.12805 0.34341 0.15212 0.12400
C 	C 	0.10894 0.28938 0.14311 -0.03300
C 	C 	0.12642 0.24782 0.18229 -0.10900
C 	C 	0.17446 0.26796 0.22721 0.18700
C 	C 	0.18916 0.41572 0.20986 -0.00000
O 	O 	0.10334 0.37869 0.11562 -0.26700
H 	H 	0.07476 0.27607 0.10733 0.06600
O 	O 	0.19509 0.22992 0.26499 -0.23800
H 	H 	0.23303 0.33902 0.27030 0.08000
C 	C 	0.17259 0.40603 0.25170 0.13100
C 	C 	0.19391 0.45970 0.26325 -0.05900
C 	C 	0.23122 0.52291 0.23311 -0.05800
C 	C 	0.24198 0.53150 0.18869 0.17000
C 	C 	0.22241 0.47839 0.17790 -0.09600
O 	O 	0.13433 0.34422 0.28052 -0.26600
H 	H 	0.18419 0.45243 0.29695 0.07200
O 	O 	0.27212 0.59209 0.15593 -0.27800
H 	H 	0.23400 0.48613 0.14499 0.08500
H 	H 	0.23663 0.24628 0.25779 0.17700
H 	H 	0.16801 0.33762 0.30960 0.15600
H 	H 	0.32144 0.61110 0.16596 0.15700
H 	H 	0.05971 0.35734 0.12287 0.16000
C 	C 	0.56385 0.76911 0.27816 -0.09400
C 	C 	0.56599 0.79243 0.22684 0.00100
C 	C 	0.50886 0.78763 0.18853 0.13300
C 	C 	0.44911 0.75703 0.20166 -0.06100
C 	C 	0.44549 0.73015 0.25286 -0.06200
C 	C 	0.50386 0.73819 0.29125 0.17100
C 	C 	0.62947 0.82536 0.21344 0.01700
O 	O 	0.51008 0.80956 0.13821 -0.27200
H 	H 	0.40412 0.75062 0.17188 0.07000
O 	O 	0.50106 0.71228 0.34148 -0.27400
H 	H 	0.60838 0.77418 0.30785 0.09300
C 	C 	0.67608 0.89364 0.20342 0.12000
C 	C 	0.73898 0.92443 0.19532 -0.02400
C 	C 	0.75605 0.88767 0.19685 -0.12100
C 	C 	0.70791 0.81947 0.20421 0.20400
C 	C 	0.64486 0.78847 0.21275 -0.10900
O 	O 	0.66200 0.93008 0.20473 -0.26100
H 	H 	0.77591 0.97685 0.19024 0.05200
O 	O 	0.72399 0.78271 0.20641 -0.27900
H 	H 	0.60867 0.73575 0.22001 0.08500
H 	H 	0.51482 0.74745 0.35262 0.16100
H 	H 	0.64087 0.94326 0.16901 0.14300
H 	H 	0.70785 0.77893 0.17106 0.16400
H 	H 	0.52472 0.85493 0.12787 0.14900
C 	C 	0.24672 0.72551 0.32168 -0.09900
C 	C 	0.19572 0.73032 0.28148 -0.00300
C 	C 	0.16882 0.70623 0.23915 0.14000
C 	C 	0.19436 0.67934 0.23669 -0.06300
C 	C 	0.24708 0.67663 0.27605 -0.05500
C 	C 	0.27276 0.69919 0.31900 0.16600
C 	C 	0.17310 0.76386 0.28229 0.01000
O 	O 	0.12023 0.71219 0.19892 -0.27300
H 	H 	0.17471 0.66261 0.20336 0.07300
O 	O 	0.32214 0.69418 0.35886 -0.27600
H 	H 	0.26705 0.74319 0.35463 0.07500
C 	C 	0.10639 0.72840 0.28687 0.12200
C 	C 	0.07878 0.76140 0.27309 -0.02700
C 	C 	0.11724 0.82955 0.25420 -0.11400
C 	C 	0.18761 0.86514 0.25907 0.19300
C 	C 	0.21503 0.83228 0.27183 -0.11100
O 	O 	0.06636 0.66146 0.30087 -0.27300
H 	H 	0.02557 0.73360 0.27259 0.07400
O 	O 	0.22791 0.93208 0.24601 -0.29000
H 	H 	0.26760 0.86006 0.27064 0.08000
H 	H 	0.36631 0.73650 0.35186 0.15600
H 	H 	0.07493 0.64995 0.33845 0.15300
H 	H 	0.24682 0.94495 0.27802 0.16700
H 	H 	0.07564 0.67072 0.20606 0.16200
C 	C 	0.79276 0.14196 0.49373 -0.11500
C 	C 	0.83712 0.19486 0.51608 0.01100
C 	C 	0.90411 0.21376 0.54247 0.12300
C 	C 	0.92248 0.17407 0.55268 -0.03300
C 	C 	0.87332 0.11416 0.53885 -0.11500
C 	C 	0.81088 0.10176 0.50482 0.20100
C 	C 	0.80961 0.22183 0.52013 -0.00300
O 	O 	0.94961 0.26756 0.56219 -0.26900
H 	H 	0.97259 0.18654 0.57591 0.06600
O 	O 	0.76594 0.04834 0.48469 -0.27800
H 	H 	0.74235 0.12915 0.47089 0.07900
C 	C 	0.81854 0.28023 0.48641 0.13600
C 	C 	0.79292 0.30550 0.49131 -0.06100
C 	C 	0.75734 0.27220 0.52929 -0.05300
C 	C 	0.74799 0.21339 0.56274 0.16800
C 	C 	0.77433 0.18871 0.55814 -0.09500
O 	O 	0.85370 0.31355 0.44949 -0.27200
H 	H 	0.80041 0.35075 0.46542 0.07200
O 	O 	0.71624 0.18174 0.60154 -0.27500
H 	H 	0.76766 0.14389 0.58441 0.07600
H 	H 	0.73453 0.01313 0.50793 0.16800
H 	H 	0.81855 0.29596 0.41932 0.15300
H 	H 	0.66749 0.14890 0.58783 0.16400
H 	H 	0.97463 0.30431 0.53537 0.16000
C 	C 	0.86788 0.54914 0.57570 -0.09300
C 	C 	0.83094 0.57529 0.54183 -0.00400
C 	C 	0.77654 0.54561 0.50218 0.13600
C 	C 	0.75790 0.48906 0.49796 -0.06200
C 	C 	0.78933 0.45855 0.53537 -0.05600
C 	C 	0.84642 0.49024 0.57318 0.16600
C 	C 	0.85070 0.63498 0.54674 0.01500
O 	O 	0.74088 0.57128 0.46796 -0.27100
H 	H 	0.71467 0.46553 0.46814 0.06900
O 	O 	0.88031 0.46304 0.60834 -0.27500
H 	H 	0.91193 0.57343 0.60485 0.07300
C 	C 	0.84781 0.63565 0.59085 0.11700
C 	C 	0.87094 0.69390 0.59611 -0.03000
C 	C 	0.89697 0.75143 0.55763 -0.10900
C 	C 	0.89253 0.74858 0.51140 0.20900
C 	C 	0.87181 0.69129 0.50684 -0.11100
O 	O 	0.82163 0.57945 0.62840 -0.26700
H 	H 	0.87259 0.69516 0.63136 0.06300
O 	O 	0.91371 0.80340 0.47207 -0.26300
H 	H 	0.87300 0.69090 0.47240 0.09400
H 	H 	0.85767 0.43528 0.63725 0.15500
H 	H 	0.86172 0.58007 0.65320 0.14800
H 	H 	0.87157 0.80032 0.44975 0.19700
H 	H 	0.70318 0.54992 0.48305 0.15800
C 	C 	0.39574 0.15393 0.63659 -0.11600
C 	C 	0.39082 0.16419 0.58572 0.01500
C 	C 	0.32814 0.14716 0.54992 0.12400
C 	C 	0.27061 0.11736 0.56575 -0.02900
C 	C 	0.27342 0.09916 0.61762 -0.11800
C 	C 	0.33709 0.12064 0.65276 0.20200
C 	C 	0.45081 0.19099 0.57047 -0.00100
O 	O 	0.32157 0.15444 0.50044 -0.23200
H 	H 	0.22246 0.10375 0.53809 0.07200
O 	O 	0.34170 0.10732 0.70317 -0.28000
H 	H 	0.44442 0.16921 0.66402 0.08000
C 	C 	0.48185 0.25240 0.53628 0.14100
C 	C 	0.54009 0.27845 0.52370 -0.05900
C 	C 	0.57203 0.24691 0.54874 -0.05500
C 	C 	0.54009 0.18462 0.58197 0.16800
C 	C 	0.47894 0.15636 0.59195 -0.09300
O 	O 	0.45636 0.28779 0.51610 -0.27100
H 	H 	0.56352 0.32582 0.49722 0.07100
O 	O 	0.56895 0.15178 0.60532 -0.27500
H 	H 	0.45468 0.10854 0.61772 0.07900
H 	H 	0.33581 0.06516 0.71913 0.16300
H 	H 	0.48015 0.31439 0.54045 0.15300
H 	H 	0.59937 0.16513 0.63782 0.15700
H 	H 	0.32600 0.19578 0.48121 0.17300
C 	C 	0.78380 0.15100 0.02927 -0.11400
C 	C 	0.83978 0.21670 0.02794 0.01100
C 	C 	0.90514 0.23653 0.03374 0.11800
C 	C 	0.91519 0.18960 0.04658 -0.02900
C 	C 	0.86075 0.12289 0.05502 -0.12200
C 	C 	0.79409 0.10414 0.04281 0.19900
C 	C 	0.83122 0.26208 0.02777 -0.00400
O 	O 	0.95997 0.30101 0.03032 -0.27300
H 	H 	0.96634 0.20469 0.05415 0.06100
O 	O 	0.73928 0.03955 0.04644 -0.28200
H 	H 	0.73288 0.13560 0.02313 0.07500
C 	C 	0.79049 0.27988 0.98513 0.13300
C 	C 	0.77002 0.31039 0.98910 -0.06000
C 	C 	0.78949 0.32288 0.03555 -0.06000
C 	C 	0.83509 0.31029 0.07682 0.16600
C 	C 	0.85559 0.27980 0.07286 -0.09400
O 	O 	0.77047 0.26732 0.93965 -0.27000
H 	H 	0.73626 0.32143 0.95674 0.06800
O 	O 	0.85529 0.32292 0.12230 -0.27600
H 	H 	0.88765 0.26697 0.10569 0.07800
H 	H 	0.73291 0.02242 0.08139 0.15500
H 	H 	0.72518 0.22418 0.93984 0.15200
H 	H 	0.89828 0.36791 0.12047 0.15800
H 	H 	0.96214 0.31965 0.99405 0.15900
C 	C 	0.86255 0.63970 0.15206 -0.11000
C 	C 	0.82304 0.61614 0.10791 0.01200
C 	C 	0.78985 0.64375 0.06728 0.12800
C 	C 	0.80628 0.70142 0.06746 -0.02300
C 	C 	0.85585 0.73152 0.10784 -0.11500
C 	C 	0.87607 0.69562 0.15282 0.19500
C 	C 	0.81741 0.56360 0.10400 0.00000
O 	O 	0.74029 0.61363 0.02830 -0.26100
H 	H 	0.78548 0.72586 0.03417 0.10300
O 	O 	0.91410 0.71822 0.19611 -0.28300
H 	H 	0.88427 0.61591 0.18511 0.08100
C 	C 	0.84534 0.57578 0.06834 0.13400
C 	C 	0.83019 0.52349 0.05939 -0.06200
C 	C 	0.78880 0.45947 0.08678 -0.05600
C 	C 	0.77010 0.44909 0.12766 0.16800
C 	C 	0.78270 0.50072 0.13516 -0.09600
O 	O 	0.88924 0.63863 0.04371 -0.26900
H 	H 	0.84764 0.53244 0.02946 0.06900
O 	O 	0.73516 0.38752 0.15800 -0.26500
H 	H 	0.76391 0.49151 0.16435 0.07900
H 	H 	0.88028 0.69786 0.21482 0.15800
H 	H 	0.86085 0.64654 0.01002 0.15400
H 	H 	0.77097 0.38354 0.18629 0.15800
H 	H 	0.76358 0.63647 0.00050 0.15900
C 	C 	0.51125 0.18418 0.12103 -0.09300
C 	C 	0.45313 0.17052 0.08088 -0.00000
C 	C 	0.45904 0.19326 0.03048 0.13100
C 	C 	0.52359 0.23301 0.02047 -0.06000
C 	C 	0.58198 0.24885 0.06061 -0.05900
C 	C 	0.57517 0.22190 0.11113 0.17200
C 	C 	0.38609 0.13124 0.09202 0.01200
O 	O 	0.40225 0.17859 0.99094 -0.25900
H 	H 	0.52850 0.25342 0.98147 0.07300
O 	O 	0.63184 0.23601 0.15075 -0.26800
H 	H 	0.50692 0.16607 0.15997 0.08600
C 	C 	0.35777 0.06676 0.12178 0.12100
C 	C 	0.29731 0.03154 0.13592 -0.02700
C 	C 	0.26225 0.05874 0.11830 -0.11300
C 	C 	0.28992 0.12299 0.08766 0.20100
C 	C 	0.35236 0.15940 0.07548 -0.10300
O 	O 	0.38987 0.03843 0.13782 -0.27100
H 	H 	0.27669 0.98225 0.15964 0.07600
O 	O 	0.25613 0.15021 0.06951 -0.27700
H 	H 	0.37431 0.20935 0.05293 0.09300
H 	H 	0.63667 0.20120 0.16008 0.15700
H 	H 	0.37069 0.01732 0.11065 0.15400
H 	H 	0.22600 0.13926 0.03619 0.16400
H 	H 	0.38462 0.13725 0.98659 0.16700
O 	O 	0.01663 0.01073 0.13222 -0.57600
C 	C 	0.02661 0.02218 0.29569 0.30600
C 	C 	0.05268 0.99037 0.50421 0.28600
C 	C 	0.04400 0.99992 0.44896 0.01200
C 	C 	0.03104 0.99962 0.35153 0.00800
C 	C 	0.99702 0.96570 0.94413 0.01100
O 	O 	0.95246 0.01273 0.76169 -0.38000
O 	O 	0.98492 0.94338 0.65554 -0.57500
O 	O 	0.98069 0.11041 0.66836 -0.39100
C 	C 	0.97471 0.97667 0.79228 0.30100
O 	O 	0.01344 0.15075 0.16730 -0.39000
O 	O 	0.01639 0.06725 0.26869 -0.37200
C 	C 	0.98348 0.96152 0.84812 0.00200
