data_crystal

_cell_length_a 22.52454
_cell_length_b 22.67751
_cell_length_c 26.35452
_cell_angle_alpha 95.40843
_cell_angle_beta  95.40780
_cell_angle_gamma 125.95099

_symmetry_space_group_name_	'P 1'
_symmetry_space_group_name_H-M	'P 1'

loop_
_symmetry_equiv_pos_as_xyz
  x,y,z

loop_
_atom_site_label
_atom_site_type_symbol
_atom_site_fract_x
_atom_site_fract_y
_atom_site_fract_z
_atom_site_charge
C 	C 	0.96134 0.02971 0.95756 0.10800
N 	N 	0.03635 0.07257 0.95991 -0.12900
C 	C 	0.07322 0.04212 0.96256 0.11800
N 	N 	0.00752 0.04130 0.48490 -0.12900
O 	O 	0.53258 0.19506 0.00463 -0.32100
O 	O 	0.68135 0.17851 0.99801 -0.33800
C 	C 	0.74290 0.20477 0.97953 0.28500
H 	H 	0.58039 0.21892 0.91198 0.20700
O 	O 	0.71215 0.20454 0.49357 -0.42700
C 	C 	0.76538 0.22756 0.46637 0.28600
H 	H 	0.58775 0.21554 0.41625 0.17600
C 	C 	0.80076 0.18963 0.46192 -0.07100
C 	C 	0.84825 0.20492 0.42600 0.01500
C 	C 	0.88470 0.17195 0.42366 -0.05700
C 	C 	0.87385 0.12302 0.45701 0.03700
C 	C 	0.82538 0.10663 0.49270 0.00200
C 	C 	0.78909 0.13994 0.49497 -0.01200
C 	C 	0.81393 0.05723 0.52576 -0.03000
C 	C 	0.89803 0.03983 0.48787 0.00400
C 	C 	0.91044 0.08984 0.45501 -0.05300
H 	H 	0.75267 0.12799 0.52285 0.03700
H 	H 	0.94733 0.10184 0.42746 0.05500
C 	C 	0.38781 0.20982 0.45743 -0.06400
C 	C 	0.34947 0.23102 0.42879 0.01400
C 	C 	0.27407 0.19727 0.42976 -0.05700
C 	C 	0.23603 0.14205 0.45950 0.03800
C 	C 	0.27462 0.12166 0.48930 0.00900
C 	C 	0.35026 0.15565 0.48819 -0.00700
C 	C 	0.23673 0.06662 0.51916 -0.02800
C 	C 	0.16069 0.03062 0.51840 -0.02900
C 	C 	0.12149 0.04922 0.48785 0.00300
C 	C 	0.15956 0.10591 0.45911 -0.04900
H 	H 	0.37802 0.27364 0.40569 0.04600
C 	C 	0.92169 0.06281 0.95295 -0.00100
C 	C 	0.93275 0.10544 0.91457 -0.02500
C 	C 	0.89968 0.14160 0.91212 -0.03500
C 	C 	0.85560 0.13606 0.94834 0.00500
C 	C 	0.84378 0.09279 0.98689 0.03900
C 	C 	0.87647 0.05577 0.98875 -0.04500
C 	C 	0.80019 0.08786 0.02338 -0.06000
C 	C 	0.77942 0.16799 0.98300 -0.06500
C 	C 	0.82337 0.17338 0.94657 -0.01400
H 	H 	0.86822 0.02308 0.01856 0.05000
H 	H 	0.83170 0.20576 0.91654 0.03500
C 	C 	0.42374 0.18627 0.97118 -0.05500
C 	C 	0.37962 0.11228 0.94517 0.03100
C 	C 	0.30184 0.07027 0.93588 -0.05000
C 	C 	0.26729 0.10157 0.95309 0.04500
C 	C 	0.31149 0.17655 0.97826 0.00700
C 	C 	0.38961 0.21882 0.98665 0.00900
C 	C 	0.27699 0.20758 0.99609 -0.02300
C 	C 	0.19930 0.16404 0.99027 -0.01800
C 	C 	0.15504 0.08906 0.96611 0.00200
C 	C 	0.18925 0.05839 0.94665 -0.04700
H 	H 	0.40565 0.08709 0.93260 0.05700
H 	H 	0.26849 0.01301 0.91613 0.06700
H 	H 	0.17361 0.18829 0.00546 0.04900
H 	H 	0.15528 0.00096 0.92706 0.06200
C 	C 	0.50501 0.22769 0.98573 0.29200
C 	C 	0.46692 0.24368 0.45477 0.29200
F 	F 	0.51748 0.15038 0.76377 -0.45400
F 	F 	0.57489 0.12080 0.12245 -0.43800
F 	F 	0.50948 0.09775 0.18628 -0.44500
O 	O 	0.50529 0.23282 0.48863 -0.37100
C 	C 	0.55288 0.15072 0.15729 0.77900
H 	H 	0.26597 0.05109 0.54257 0.05900
H 	H 	0.90888 0.17442 0.88229 0.04500
H 	H 	0.53758 0.22024 0.65786 0.07300
C 	C 	0.51085 0.20597 0.75637 0.78100
F 	F 	0.44808 0.17653 0.71908 -0.44500
H 	H 	0.58508 0.18776 0.26329 0.06700
C 	C 	0.76832 0.12534 0.02151 0.01000
H 	H 	0.79101 0.05512 0.05325 0.05900
H 	H 	0.96737 0.11083 0.88673 0.05000
H 	H 	0.92137 0.18457 0.39591 0.05900
O 	O 	0.76673 0.25797 0.95258 -0.42500
Cu	Cu	0.64032 0.23583 0.00505 0.93400
Cu	Cu	0.70096 0.24665 0.89543 0.88100
O 	O 	0.63184 0.24873 0.93224 -0.63800
O 	O 	0.66489 0.24243 0.07794 -0.30900
O 	O 	0.65601 0.25470 0.83402 -0.36300
Cu	Cu	0.72459 0.27046 0.55076 0.88100
O 	O 	0.61887 0.26872 0.43232 -0.64000
O 	O 	0.79263 0.28905 0.44821 -0.34200
O 	O 	0.49450 0.27709 0.41531 -0.37800
C 	C 	0.58032 0.26822 0.73941 -0.09800
C 	C 	0.58275 0.26782 0.68629 0.05300
F 	F 	0.50062 0.23151 0.80207 -0.45500
C 	C 	0.62110 0.22134 0.19122 -0.09300
C 	C 	0.62900 0.23006 0.24557 0.04500
F 	F 	0.50938 0.16627 0.13026 -0.44300
H 	H 	0.37943 0.13914 0.51054 0.06000
H 	H 	0.73505 0.12125 0.05004 0.06700
H 	H 	0.31035 0.26510 0.01526 0.04600
Cu	Cu	0.61254 0.28797 0.50321 0.90300
H 	H 	0.85708 0.24245 0.39992 0.06700
C 	C 	0.66013 0.28321 0.11407 0.29100
C 	C 	0.65726 0.31268 0.82887 0.30200
O 	O 	0.54959 0.29869 0.98394 -0.37300
Cu	Cu	0.73555 0.33051 0.44112 0.93600
Cu	Cu	0.59725 0.32614 0.39969 0.90100
C 	C 	0.68790 0.31075 0.33205 0.29100
C 	C 	0.65804 0.31377 0.61724 0.30200
O 	O 	0.65705 0.34368 0.34383 -0.34200
O 	O 	0.72894 0.30608 0.36823 -0.30800
O 	O 	0.60440 0.29004 0.57716 -0.36100
O 	O 	0.71657 0.31530 0.61208 -0.36300
C 	C 	0.64474 0.32467 0.77615 -0.00100
C 	C 	0.64587 0.32602 0.66996 -0.00100
C 	C 	0.67586 0.28024 0.16883 0.00300
C 	C 	0.69112 0.29531 0.27732 0.00300
H 	H 	0.42370 0.27600 0.00681 0.04200
C 	C 	0.04002 0.00631 0.48374 0.12000
O 	O 	0.62682 0.31367 0.10222 -0.34300
O 	O 	0.72248 0.33905 0.51389 -0.64000
Cu	Cu	0.68311 0.35790 0.94287 0.90400
O 	O 	0.70246 0.35170 0.01379 -0.64200
C 	C 	0.74123 0.34232 0.20058 0.04500
C 	C 	0.75009 0.35011 0.25493 -0.09300
H 	H 	0.77698 0.04440 0.55333 0.04300
H 	H 	0.24522 0.21381 0.40711 0.05600
O 	O 	0.68113 0.36597 0.86893 -0.36100
C 	C 	0.84986 0.02390 0.52323 -0.03800
Cu	Cu	0.64455 0.37313 0.04639 0.90000
H 	H 	0.12940 0.12038 0.43549 0.05800
H 	H 	0.75600 0.38265 0.02988 0.17500
H 	H 	0.75243 0.39018 0.53409 0.20700
C 	C 	0.70309 0.38756 0.75982 0.05300
C 	C 	0.70256 0.39008 0.70671 -0.09800
H 	H 	0.78349 0.38625 0.18287 0.06700
F 	F 	0.85131 0.39707 0.32400 -0.43800
C 	C 	0.93289 0.00178 0.48394 0.10600
C 	C 	0.82083 0.41829 0.28886 0.77900
O 	O 	0.67228 0.42046 0.46206 -0.37400
H 	H 	0.13198 0.98772 0.54130 0.06500
H 	H 	0.84033 0.98565 0.54887 0.06000
N 	N 	0.03461 0.96834 0.96221 -0.12500
C 	C 	0.95946 0.92499 0.95919 0.11800
N 	N 	0.92287 0.95586 0.95732 -0.12700
N 	N 	0.99756 0.93172 0.48081 -0.13400
C 	C 	0.92303 0.89206 0.47982 0.12200
N 	N 	0.89088 0.92730 0.48164 -0.13000
O 	O 	0.73830 0.46441 0.95741 -0.37100
C 	C 	0.72663 0.50220 0.99093 0.29600
O 	O 	0.69427 0.47531 0.03094 -0.38200
O 	O 	0.77680 0.43764 0.44150 -0.31500
C 	C 	0.74363 0.46496 0.45996 0.28500
C 	C 	0.76496 0.45926 0.68976 0.78100
H 	H 	0.75092 0.43253 0.78825 0.07300
F 	F 	0.79433 0.52150 0.72709 -0.44500
F 	F 	0.73899 0.46928 0.64410 -0.45500
F 	F 	0.82119 0.45311 0.68229 -0.45300
F 	F 	0.87414 0.46153 0.25990 -0.44500
F 	F 	0.80447 0.46111 0.31555 -0.44300
C 	C 	0.78460 0.54573 0.47328 -0.05000
C 	C 	0.85955 0.59085 0.49844 0.02700
C 	C 	0.90070 0.66800 0.50706 -0.04800
C 	C 	0.86755 0.70089 0.49001 0.04200
C 	C 	0.79170 0.65570 0.46553 0.01200
C 	C 	0.75033 0.57824 0.45779 -0.00200
C 	C 	0.75884 0.68855 0.44781 -0.03100
C 	C 	0.80136 0.76559 0.45314 -0.02200
C 	C 	0.87716 0.81086 0.47672 0.00000
C 	C 	0.90970 0.77828 0.49600 -0.04500
H 	H 	0.88611 0.56610 0.51098 0.05800
H 	H 	0.95868 0.70213 0.52623 0.06500
H 	H 	0.69244 0.54339 0.43822 0.04800
H 	H 	0.70064 0.65440 0.42914 0.05100
H 	H 	0.77565 0.78998 0.43806 0.05400
H 	H 	0.96777 0.81301 0.51515 0.06100
C 	C 	0.91768 0.84429 0.95577 -0.00100
C 	C 	0.93780 0.80608 0.92596 -0.01900
C 	C 	0.90281 0.73087 0.92578 -0.03200
C 	C 	0.84728 0.69284 0.95549 0.01200
C 	C 	0.82539 0.73042 0.98457 0.04000
C 	C 	0.86052 0.80605 0.98438 -0.04100
C 	C 	0.76968 0.69223 0.01415 -0.06100
C 	C 	0.73688 0.61769 0.01567 0.00900
C 	C 	0.75956 0.58038 0.98774 -0.05800
C 	C 	0.81424 0.61806 0.95715 -0.00900
H 	H 	0.98106 0.83491 0.90316 0.05500
H 	H 	0.91950 0.70241 0.90294 0.06100
H 	H 	0.84489 0.83545 0.00743 0.05300
H 	H 	0.75199 0.72030 0.03625 0.05600
H 	H 	0.69383 0.58901 0.03861 0.04600
H 	H 	0.83190 0.58968 0.93535 0.06100
