data_crystal

_cell_length_a 22.90636
_cell_length_b 22.51617
_cell_length_c 26.19646
_cell_angle_alpha 90.00153
_cell_angle_beta  90.00662
_cell_angle_gamma 92.71728

_symmetry_space_group_name_	'P 1'
_symmetry_space_group_name_H-M	'P 1'

loop_
_symmetry_equiv_pos_as_xyz
  x,y,z

loop_
_atom_site_label
_atom_site_type_symbol
_atom_site_fract_x
_atom_site_fract_y
_atom_site_fract_z
_atom_site_charge
C 	C 	0.06306 0.01802 0.04983 -0.04100
C 	C 	0.06058 0.95612 0.04698 -0.04000
C 	C 	0.01270 0.04978 0.04052 0.00800
C 	C 	0.95844 0.01830 0.03368 -0.00800
C 	C 	0.95663 0.95588 0.02786 -0.00600
C 	C 	0.00885 0.92513 0.03095 0.00600
C 	C 	0.90634 0.04931 0.03150 0.00700
C 	C 	0.85263 0.01722 0.02395 -0.04300
C 	C 	0.90285 0.92442 0.01851 0.00600
C 	C 	0.00829 0.86411 0.01765 -0.01000
C 	C 	0.95492 0.83335 0.00748 -0.04600
C 	C 	0.90227 0.86237 0.00948 -0.01000
C 	C 	0.01540 0.11248 0.03850 -0.01000
C 	C 	0.96363 0.14308 0.03843 -0.04700
C 	C 	0.90919 0.11209 0.03600 -0.01000
C 	C 	0.06331 0.83285 0.01118 0.01300
C 	C 	0.10747 0.85622 0.97871 -0.04600
C 	C 	0.16187 0.83094 0.97770 -0.04300
C 	C 	0.17082 0.77872 0.00530 0.00500
C 	C 	0.12420 0.75127 0.03263 -0.04100
C 	C 	0.07154 0.77952 0.03737 -0.04600
C 	C 	0.84696 0.82691 0.00302 0.01300
C 	C 	0.82237 0.79551 0.04458 -0.04600
C 	C 	0.77073 0.76080 0.03833 -0.04000
C 	C 	0.81975 0.82322 0.95509 -0.04800
C 	C 	0.76770 0.78903 0.94898 -0.04100
C 	C 	0.74350 0.75704 0.99041 0.00300
C 	C 	0.07127 0.14580 0.02868 0.01200
C 	C 	0.10043 0.17653 0.06838 -0.04700
C 	C 	0.15257 0.20927 0.05863 -0.04200
C 	C 	0.17621 0.21103 0.00918 0.00600
C 	C 	0.14656 0.18090 0.96934 -0.04300
C 	C 	0.09460 0.14789 0.97916 -0.04500
C 	C 	0.85575 0.14599 0.03658 0.01200
C 	C 	0.83721 0.17378 0.99194 -0.04600
C 	C 	0.78520 0.20364 0.99183 -0.04200
C 	C 	0.75101 0.20517 0.03618 0.00600
C 	C 	0.77034 0.17875 0.08120 -0.04200
C 	C 	0.82257 0.14920 0.08139 -0.04500
C 	C 	0.85089 0.95560 0.01775 -0.04100
H 	H 	0.10044 0.89554 0.95610 0.03900
H 	H 	0.19702 0.85178 0.95540 0.03300
H 	H 	0.12965 0.70929 0.05187 0.03600
H 	H 	0.03724 0.76013 0.06147 0.03700
H 	H 	0.16372 0.18324 0.93082 0.03600
H 	H 	0.07208 0.12450 0.94824 0.03900
H 	H 	0.17423 0.23393 0.08930 0.03500
H 	H 	0.08248 0.17536 0.10665 0.03700
H 	H 	0.86285 0.17174 0.95728 0.03800
H 	H 	0.77103 0.22496 0.95720 0.03700
H 	H 	0.83689 0.12812 0.11609 0.03900
H 	H 	0.74472 0.18083 0.11585 0.03500
H 	H 	0.84329 0.79805 0.08166 0.03900
H 	H 	0.75185 0.73677 0.07064 0.03600
H 	H 	0.83860 0.84730 0.92281 0.03800
H 	H 	0.74618 0.78743 0.91216 0.03400
H 	H 	0.10387 0.04104 0.06041 0.03800
H 	H 	0.09884 0.93247 0.05751 0.03800
H 	H 	0.95433 0.78647 0.99779 0.03900
H 	H 	0.80894 0.93245 0.01191 0.03900
H 	H 	0.81203 0.03983 0.02208 0.03900
H 	H 	0.96574 0.19132 0.03865 0.04200
C 	C 	0.93402 0.97824 0.50139 -0.04100
C 	C 	0.93837 0.03827 0.48807 -0.04200
C 	C 	0.98452 0.94537 0.50631 0.00600
C 	C 	0.04009 0.97384 0.49735 -0.00700
C 	C 	0.04456 0.03515 0.48484 -0.00800
C 	C 	0.99351 0.06797 0.48169 0.00700
C 	C 	0.09114 0.94096 0.50020 0.00600
C 	C 	0.14522 0.96833 0.48553 -0.04100
C 	C 	0.10008 0.06337 0.47521 0.00600
C 	C 	0.99862 0.12996 0.47185 -0.01000
C 	C 	0.05386 0.15784 0.46388 -0.04700
C 	C 	0.10456 0.12549 0.46588 -0.01000
C 	C 	0.98068 0.88438 0.52009 -0.01000
C 	C 	0.03176 0.85373 0.52716 -0.04700
C 	C 	0.08676 0.88087 0.51677 -0.01000
C 	C 	0.94673 0.16674 0.47175 0.01200
C 	C 	0.92761 0.19189 0.42605 -0.04500
C 	C 	0.87812 0.22591 0.42582 -0.04200
C 	C 	0.84623 0.23328 0.47094 0.00500
C 	C 	0.86643 0.20973 0.51692 -0.04200
C 	C 	0.91688 0.17720 0.51742 -0.04500
C 	C 	0.16217 0.15811 0.46154 0.01100
C 	C 	0.19550 0.17073 0.50549 -0.04500
C 	C 	0.24681 0.20682 0.50233 -0.04200
C 	C 	0.18096 0.18134 0.41426 -0.04600
C 	C 	0.23222 0.21762 0.41113 -0.04200
C 	C 	0.26563 0.23015 0.45510 0.00500
C 	C 	0.92364 0.85089 0.52436 0.01100
C 	C 	0.90259 0.83239 0.57241 -0.04600
C 	C 	0.85259 0.79439 0.57608 -0.04100
C 	C 	0.82351 0.77441 0.53173 0.00400
C 	C 	0.84363 0.79418 0.48378 -0.04200
C 	C 	0.89378 0.83183 0.48008 -0.04600
C 	C 	0.13905 0.84506 0.52209 0.01200
C 	C 	0.14433 0.79387 0.49222 -0.04600
C 	C 	0.19286 0.75921 0.49782 -0.04200
C 	C 	0.23741 0.77630 0.53228 0.00400
C 	C 	0.23231 0.82761 0.56203 -0.04200
C 	C 	0.18226 0.86055 0.55839 -0.04600
C 	C 	0.14977 0.02887 0.47393 -0.04200
H 	H 	0.95102 0.18495 0.39078 0.03800
H 	H 	0.86384 0.24551 0.39046 0.03700
H 	H 	0.84286 0.21642 0.55214 0.03500
H 	H 	0.93210 0.15904 0.55306 0.03900
H 	H 	0.82095 0.77956 0.44939 0.03600
H 	H 	0.90995 0.84550 0.44283 0.03900
H 	H 	0.83687 0.77999 0.61328 0.03500
H 	H 	0.92556 0.84656 0.60678 0.03800
H 	H 	0.11088 0.78110 0.46455 0.03700
H 	H 	0.19672 0.71997 0.47434 0.03500
H 	H 	0.17804 0.89932 0.58237 0.03800
H 	H 	0.26760 0.84268 0.58701 0.03400
H 	H 	0.18098 0.15363 0.54224 0.03900
H 	H 	0.27136 0.21757 0.53672 0.03600
H 	H 	0.15522 0.17234 0.38020 0.03800
H 	H 	0.24569 0.23641 0.37468 0.03500
H 	H 	0.89105 0.95756 0.50791 0.03900
H 	H 	0.89850 0.06137 0.48253 0.03900
H 	H 	0.05753 0.20542 0.45717 0.04200
H 	H 	0.19200 0.04847 0.46301 0.03800
H 	H 	0.18384 0.94277 0.48215 0.03900
H 	H 	0.02857 0.80759 0.53927 0.04000
Ni	Ni	0.44029 0.53668 0.03823 1.09900
O 	O 	0.49130 0.46431 0.04116 -0.70000
Ni	Ni	0.48818 0.43680 0.96846 1.10000
O 	O 	0.45242 0.55243 0.11488 -0.37200
O 	O 	0.42236 0.45703 0.13479 -0.40900
O 	O 	0.51732 0.58346 0.02406 -0.39700
Ni	Ni	0.46136 0.39962 0.08435 1.06600
O 	O 	0.36148 0.59483 0.95000 -0.42500
O 	O 	0.38350 0.39215 0.04654 -0.41900
O 	O 	0.54661 0.37246 0.97510 -0.38100
O 	O 	0.42774 0.50056 0.96880 -0.70100
O 	O 	0.39446 0.61323 0.03205 -0.38100
O 	O 	0.49263 0.43100 0.89024 -0.37800
O 	O 	0.50868 0.53125 0.88562 -0.41900
Ni	Ni	0.43424 0.56387 0.91812 1.07400
H 	H 	0.53203 0.47589 0.05079 0.15400
H 	H 	0.38772 0.48225 0.96723 0.15600
C 	C 	0.37843 0.36807 0.00116 0.29500
O 	O 	0.48297 0.62989 0.95365 -0.41000
C 	C 	0.44770 0.50842 0.14804 0.28200
C 	C 	0.54646 0.34045 0.01718 0.28500
C 	C 	0.52548 0.61999 0.98550 0.30800
C 	C 	0.50584 0.47903 0.86333 0.28200
C 	C 	0.36291 0.62774 0.99169 0.29700
O 	O 	0.42267 0.37041 0.96895 -0.37400
O 	O 	0.49795 0.33250 0.04442 -0.41200
Ni	Ni	0.51447 0.53804 0.54313 1.09600
O 	O 	0.57798 0.48017 0.52719 -0.70500
Ni	Ni	0.56973 0.47178 0.45054 1.09600
O 	O 	0.52504 0.53183 0.62078 -0.37300
O 	O 	0.51571 0.43065 0.62147 -0.41300
O 	O 	0.57589 0.60863 0.54909 -0.37300
Ni	Ni	0.55887 0.40147 0.55700 1.06300
O 	O 	0.49164 0.65826 0.49561 -0.41300
O 	O 	0.47694 0.39456 0.52617 -0.41600
O 	O 	0.63455 0.41410 0.44041 -0.38000
O 	O 	0.50550 0.52946 0.46656 -0.70100
O 	O 	0.44924 0.59521 0.55347 -0.38800
O 	O 	0.55994 0.47829 0.37264 -0.36600
O 	O 	0.55872 0.57911 0.37008 -0.40600
Ni	Ni	0.52335 0.60893 0.43750 1.07100
H 	H 	0.61757 0.49559 0.53707 0.15200
H 	H 	0.46588 0.51401 0.45697 0.15400
C 	C 	0.46749 0.38822 0.47721 0.29100
O 	O 	0.60567 0.61230 0.46606 -0.42400
C 	C 	0.52801 0.48103 0.64515 0.28600
C 	C 	0.64050 0.37120 0.47378 0.28600
C 	C 	0.61557 0.62344 0.51431 0.29300
C 	C 	0.54341 0.52717 0.35063 0.28900
C 	C 	0.44554 0.64071 0.52237 0.29000
O 	O 	0.50959 0.40063 0.44426 -0.37300
O 	O 	0.59523 0.35174 0.50122 -0.41300
C 	C 	0.50956 0.47555 0.80752 -0.09100
C 	C 	0.46435 0.49660 0.77647 0.07100
C 	C 	0.47210 0.50004 0.72363 -0.02800
C 	C 	0.52359 0.48158 0.70101 -0.08700
C 	C 	0.56850 0.45977 0.73187 0.07400
C 	C 	0.56095 0.45667 0.78490 -0.03100
H 	H 	0.43731 0.51598 0.69994 0.04800
H 	H 	0.59578 0.44090 0.80862 0.04400
N 	N 	0.40986 0.51383 0.79814 -0.13500
N 	N 	0.62244 0.44156 0.70985 -0.14300
C 	C 	0.37060 0.46204 0.80824 -0.10500
H 	H 	0.36357 0.43510 0.77301 0.05400
H 	H 	0.32756 0.47737 0.82078 0.03700
H 	H 	0.38825 0.43396 0.83894 0.04800
C 	C 	0.66219 0.49288 0.69925 -0.09500
H 	H 	0.64371 0.52212 0.66978 0.04500
H 	H 	0.70428 0.47707 0.68477 0.03700
H 	H 	0.67131 0.51880 0.73473 0.04900
H 	H 	0.41585 0.54023 0.83068 0.00200
H 	H 	0.61526 0.41558 0.67714 0.05000
C 	C 	0.51859 0.52407 0.29900 -0.09400
C 	C 	0.54870 0.55073 0.25743 0.08300
C 	C 	0.52432 0.54659 0.20830 -0.04800
C 	C 	0.46970 0.51713 0.20054 -0.09400
C 	C 	0.43856 0.49252 0.24260 0.07800
C 	C 	0.46325 0.49636 0.29164 -0.04500
H 	H 	0.54855 0.56519 0.17605 0.04300
H 	H 	0.43898 0.47830 0.32409 0.03400
N 	N 	0.60508 0.58043 0.26497 -0.13600
N 	N 	0.38045 0.46646 0.23581 -0.13700
C 	C 	0.60090 0.64503 0.26230 -0.08700
H 	H 	0.58900 0.65911 0.22311 0.04200
H 	H 	0.64391 0.66676 0.27225 0.04500
H 	H 	0.56809 0.66039 0.29001 0.05000
C 	C 	0.37939 0.40191 0.24295 -0.08300
H 	H 	0.41237 0.38148 0.21817 0.03600
H 	H 	0.33561 0.38265 0.23218 0.04300
H 	H 	0.38768 0.39050 0.28353 0.04200
H 	H 	0.63485 0.56614 0.23780 0.07300
H 	H 	0.35155 0.48561 0.26126 0.07200
C 	C 	0.29238 0.74463 0.53232 0.00400
C 	C 	0.30533 0.70374 0.57131 0.00500
C 	C 	0.35623 0.67163 0.56756 -0.01200
C 	C 	0.39397 0.67857 0.52535 -0.10300
C 	C 	0.37970 0.71869 0.48547 0.07000
C 	C 	0.32999 0.75231 0.49052 -0.08400
H 	H 	0.36555 0.63970 0.59705 0.04400
H 	H 	0.31922 0.78332 0.46065 0.04700
C 	C 	0.26305 0.68991 0.61506 -0.09500
C 	C 	0.41517 0.72509 0.43645 -0.12900
C 	C 	0.28961 0.70470 0.66780 -0.02400
H 	H 	0.33087 0.68154 0.67348 0.02900
H 	H 	0.25850 0.68796 0.69763 0.02400
C 	C 	0.40630 0.67060 0.40142 -0.01700
H 	H 	0.35958 0.66562 0.39000 0.02400
H 	H 	0.41779 0.62937 0.42141 -0.03100
H 	H 	0.22118 0.71233 0.61131 0.04900
H 	H 	0.46188 0.73574 0.44469 0.05100
C 	C 	0.30122 0.77135 0.67593 -0.15500
C 	C 	0.44385 0.67688 0.35339 -0.17400
H 	H 	0.25991 0.79495 0.67257 0.05600
H 	H 	0.31928 0.77928 0.71480 0.05200
H 	H 	0.33351 0.78956 0.64771 0.06000
H 	H 	0.25109 0.64149 0.61406 0.04300
H 	H 	0.43132 0.71597 0.33072 0.05800
H 	H 	0.43735 0.63636 0.32949 0.05100
H 	H 	0.49084 0.68224 0.36372 0.01700
H 	H 	0.40145 0.76453 0.41468 0.05000
C 	C 	0.66768 0.66095 0.52851 -0.10400
C 	C 	0.66443 0.72323 0.53582 0.08100
C 	C 	0.71622 0.75867 0.54107 -0.08700
C 	C 	0.77081 0.73410 0.53539 0.00600
C 	C 	0.77418 0.67193 0.52899 0.00200
C 	C 	0.72245 0.63580 0.52732 -0.01000
H 	H 	0.71389 0.80618 0.54700 0.04900
H 	H 	0.72489 0.58811 0.52327 0.02100
C 	C 	0.60650 0.75328 0.53569 -0.13000
C 	C 	0.83255 0.64314 0.52591 -0.09500
C 	C 	0.59814 0.79144 0.48771 -0.01300
H 	H 	0.63197 0.82848 0.48657 0.02400
H 	H 	0.55488 0.81163 0.49021 0.02500
C 	C 	0.85250 0.62386 0.57901 -0.02500
H 	H 	0.81901 0.59243 0.59605 0.02600
H 	H 	0.85780 0.66334 0.60437 0.03000
H 	H 	0.56859 0.72160 0.54052 0.08200
H 	H 	0.86660 0.67332 0.50830 0.04900
C 	C 	0.60053 0.75619 0.43792 -0.14500
C 	C 	0.91052 0.59334 0.57639 -0.15700
H 	H 	0.56745 0.71868 0.43801 0.02500
H 	H 	0.59104 0.78575 0.40534 0.04700
H 	H 	0.64463 0.73886 0.43211 0.06100
H 	H 	0.60538 0.78301 0.56953 0.05400
H 	H 	0.90613 0.55289 0.55213 0.05300
H 	H 	0.92369 0.57996 0.61536 0.05200
H 	H 	0.94521 0.62416 0.56048 0.05500
H 	H 	0.82845 0.60369 0.50043 0.04300
C 	C 	0.69343 0.33671 0.47266 -0.10300
C 	C 	0.74609 0.35880 0.49562 0.05900
C 	C 	0.79584 0.32482 0.49336 -0.07900
C 	C 	0.79331 0.26842 0.47066 0.00300
C 	C 	0.73996 0.24522 0.44966 0.00300
C 	C 	0.69069 0.28007 0.45034 -0.00800
H 	H 	0.83634 0.34172 0.51062 0.04600
H 	H 	0.64974 0.26254 0.43432 0.03800
C 	C 	0.74920 0.41669 0.52555 -0.11000
C 	C 	0.73362 0.18175 0.43034 -0.09400
C 	C 	0.78633 0.46582 0.49852 -0.02100
H 	H 	0.83008 0.44981 0.48865 0.02600
H 	H 	0.79334 0.50355 0.52546 0.02000
C 	C 	0.72062 0.13827 0.47446 -0.02500
H 	H 	0.67818 0.14823 0.49238 0.02800
H 	H 	0.75527 0.14319 0.50404 0.03100
H 	H 	0.70551 0.43314 0.53467 0.01900
H 	H 	0.77340 0.16929 0.40952 0.04800
C 	C 	0.75716 0.48848 0.45032 -0.15500
C 	C 	0.71753 0.07391 0.45593 -0.15600
H 	H 	0.71356 0.50526 0.45946 0.04800
H 	H 	0.78464 0.52558 0.43377 0.05500
H 	H 	0.75234 0.45254 0.42139 0.07100
H 	H 	0.76966 0.40816 0.56318 0.03800
H 	H 	0.68264 0.06719 0.42675 0.05300
H 	H 	0.70742 0.04375 0.48861 0.05300
H 	H 	0.76011 0.06225 0.43929 0.05600
H 	H 	0.69735 0.17762 0.40211 0.04400
C 	C 	0.31663 0.27315 0.45283 0.00300
C 	C 	0.37227 0.25600 0.43613 0.00500
C 	C 	0.42049 0.29696 0.43937 -0.01100
C 	C 	0.41449 0.35361 0.46050 -0.09900
C 	C 	0.35817 0.37206 0.47354 0.06900
C 	C 	0.30981 0.33156 0.46951 -0.08100
H 	H 	0.46339 0.28351 0.42789 0.04200
H 	H 	0.26669 0.34546 0.47989 0.04800
C 	C 	0.38146 0.19410 0.41544 -0.09600
C 	C 	0.34807 0.43613 0.48734 -0.11800
C 	C 	0.41540 0.15591 0.45276 -0.02300
H 	H 	0.45753 0.17913 0.46348 0.02800
H 	H 	0.42591 0.11396 0.43316 0.02400
C 	C 	0.33625 0.47256 0.43926 -0.02100
H 	H 	0.29883 0.45154 0.41777 0.02800
H 	H 	0.37533 0.47371 0.41404 0.01700
H 	H 	0.34006 0.16989 0.40451 0.04800
H 	H 	0.38566 0.45691 0.50859 0.04200
C 	C 	0.38071 0.14007 0.50106 -0.15700
C 	C 	0.32178 0.53616 0.45274 -0.16200
H 	H 	0.33790 0.11779 0.49114 0.05900
H 	H 	0.40561 0.10917 0.52476 0.05300
H 	H 	0.37368 0.18062 0.52392 0.06100
H 	H 	0.40716 0.19867 0.37953 0.04300
H 	H 	0.28114 0.53633 0.47586 0.05700
H 	H 	0.31504 0.56174 0.41717 0.05200
H 	H 	0.35813 0.55819 0.47468 0.04800
H 	H 	0.30989 0.43763 0.51350 0.05000
C 	C 	0.22779 0.75060 0.00264 0.00400
C 	C 	0.25820 0.73494 0.04742 0.00500
C 	C 	0.30378 0.69568 0.04350 -0.01400
C 	C 	0.32369 0.67792 0.99540 -0.10400
C 	C 	0.30169 0.70507 0.95097 0.07100
C 	C 	0.25110 0.73731 0.95474 -0.08500
H 	H 	0.32417 0.67969 0.07789 0.04100
H 	H 	0.23064 0.75323 0.92035 0.04700
C 	C 	0.24746 0.76498 0.09828 -0.09600
C 	C 	0.33520 0.70616 0.90097 -0.11400
C 	C 	0.29029 0.81849 0.10742 -0.02200
H 	H 	0.33601 0.80488 0.10336 0.02600
H 	H 	0.28483 0.83410 0.14731 0.02400
C 	C 	0.30434 0.66645 0.86048 -0.02500
H 	H 	0.26096 0.68386 0.85131 0.02700
H 	H 	0.29704 0.62041 0.87505 0.02800
H 	H 	0.20218 0.77943 0.10251 0.04900
H 	H 	0.38102 0.69330 0.90649 0.04400
C 	C 	0.28001 0.87035 0.07135 -0.15600
C 	C 	0.34012 0.66457 0.81136 -0.15500
H 	H 	0.23368 0.88279 0.07300 0.05800
H 	H 	0.30828 0.90947 0.08290 0.05100
H 	H 	0.29136 0.85856 0.03153 0.05900
H 	H 	0.25325 0.73228 0.12948 0.04300
H 	H 	0.34584 0.70979 0.79461 0.05300
H 	H 	0.31704 0.63500 0.78320 0.05200
H 	H 	0.38374 0.64699 0.81911 0.03900
H 	H 	0.33839 0.75269 0.88657 0.04600
C 	C 	0.68786 0.72219 0.98444 0.00600
C 	C 	0.68661 0.65989 0.97661 0.00300
C 	C 	0.63268 0.62772 0.97587 -0.00600
C 	C 	0.58031 0.65642 0.98255 -0.10900
C 	C 	0.58151 0.71885 0.98983 0.07700
C 	C 	0.63545 0.75108 0.99032 -0.08700
H 	H 	0.63153 0.57991 0.97062 0.02500
H 	H 	0.63679 0.79867 0.99700 0.04700
C 	C 	0.74228 0.62678 0.96914 -0.09500
C 	C 	0.52629 0.75108 0.00122 -0.12000
C 	C 	0.74882 0.60448 0.91407 -0.02300
H 	H 	0.70940 0.57707 0.90246 0.02800
H 	H 	0.78664 0.57538 0.91251 0.02400
C 	C 	0.50886 0.74433 0.05757 -0.01500
H 	H 	0.54531 0.76167 0.08227 0.02800
H 	H 	0.49977 0.69669 0.06700 0.04700
H 	H 	0.78234 0.65331 0.98018 0.04900
H 	H 	0.48982 0.73514 0.97615 0.06600
C 	C 	0.75935 0.65520 0.87595 -0.15600
C 	C 	0.45441 0.77826 0.06954 -0.16000
H 	H 	0.79869 0.68307 0.88688 0.05800
H 	H 	0.76659 0.63649 0.83738 0.05400
H 	H 	0.72080 0.68323 0.87413 0.06100
H 	H 	0.74064 0.58756 0.99499 0.04100
H 	H 	0.46314 0.82669 0.06346 0.05300
H 	H 	0.44176 0.77075 0.11002 0.05700
H 	H 	0.41751 0.76251 0.04477 0.06500
H 	H 	0.53344 0.79922 0.99234 0.04700
C 	C 	0.59640 0.30407 0.02792 -0.10300
C 	C 	0.64771 0.32928 0.05101 0.06000
C 	C 	0.69712 0.29518 0.05514 -0.07900
C 	C 	0.69639 0.23708 0.03606 0.00300
C 	C 	0.64436 0.21101 0.01501 0.00400
C 	C 	0.59455 0.24475 0.01165 -0.00600
H 	H 	0.73661 0.31424 0.07268 0.04700
H 	H 	0.55459 0.22515 0.99536 0.03700
C 	C 	0.64998 0.39179 0.07307 -0.10900
C 	C 	0.64055 0.14644 0.99834 -0.09500
C 	C 	0.68989 0.43545 0.04228 -0.02300
H 	H 	0.73435 0.41817 0.03870 0.02800
H 	H 	0.69433 0.47817 0.06353 0.02300
C 	C 	0.62581 0.10532 0.04370 -0.02500
H 	H 	0.58202 0.11511 0.05901 0.02800
H 	H 	0.65845 0.11295 0.07466 0.03100
H 	H 	0.60606 0.40991 0.07722 0.01700
H 	H 	0.68195 0.13383 0.98012 0.04900
C 	C 	0.66606 0.44810 0.98913 -0.15200
C 	C 	0.62545 0.03998 0.02805 -0.15600
H 	H 	0.62216 0.46675 0.99190 0.03800
H 	H 	0.69581 0.48114 0.96957 0.05100
H 	H 	0.66350 0.40692 0.96577 0.06800
H 	H 	0.66759 0.38973 0.11256 0.04100
H 	H 	0.59259 0.03060 0.99755 0.05300
H 	H 	0.61400 0.01152 0.06154 0.05200
H 	H 	0.66933 0.02857 0.01409 0.05500
H 	H 	0.60613 0.13980 0.96863 0.04500
C 	C 	0.22801 0.25036 0.99806 0.00400
C 	C 	0.28435 0.22770 0.99249 0.00600
C 	C 	0.33306 0.26759 0.98746 -0.01000
C 	C 	0.32665 0.32913 0.99009 -0.10300
C 	C 	0.27000 0.35151 0.99161 0.07200
C 	C 	0.22119 0.31173 0.99513 -0.08300
H 	H 	0.37646 0.25059 0.98457 0.04000
H 	H 	0.17767 0.32867 0.99660 0.04800
C 	C 	0.29365 0.16132 0.99253 -0.09600
C 	C 	0.26061 0.41730 0.98545 -0.12200
C 	C 	0.32282 0.14060 0.04185 -0.02200
H 	H 	0.36437 0.16692 0.04875 0.02700
H 	H 	0.33397 0.09342 0.03701 0.02300
C 	C 	0.26177 0.43494 0.92886 -0.01500
H 	H 	0.23315 0.40342 0.90634 0.02800
H 	H 	0.30708 0.43300 0.91400 0.01700
H 	H 	0.25279 0.13404 0.98583 0.04800
H 	H 	0.29392 0.44470 0.00683 0.04800
C 	C 	0.28330 0.14488 0.08852 -0.15600
C 	C 	0.24060 0.49761 0.92113 -0.16900
H 	H 	0.24097 0.11991 0.08198 0.05800
H 	H 	0.30491 0.12535 0.12210 0.05100
H 	H 	0.27540 0.19208 0.09722 0.05900
H 	H 	0.32270 0.15127 0.95996 0.04400
H 	H 	0.19342 0.49882 0.93064 0.05800
H 	H 	0.24673 0.51108 0.88065 0.05200
H 	H 	0.26548 0.52986 0.94578 0.06400
H 	H 	0.21772 0.42784 0.00231 0.05100
