data_crystal

_cell_length_a 19.81871
_cell_length_b 21.38544
_cell_length_c 31.35758
_cell_angle_alpha 60.76856
_cell_angle_beta  118.94419
_cell_angle_gamma 133.25501

_symmetry_space_group_name_	'P 1'
_symmetry_space_group_name_H-M	'P 1'

loop_
_symmetry_equiv_pos_as_xyz
  x,y,z

loop_
_atom_site_label
_atom_site_type_symbol
_atom_site_fract_x
_atom_site_fract_y
_atom_site_fract_z
_atom_site_charge
Co	Co	0.01429 0.86753 0.13811 1.19200
O 	O 	0.00117 0.94410 0.25369 -0.33300
O 	O 	0.02089 0.76302 0.09889 -0.39100
O 	O 	0.01405 0.99999 0.48690 -0.33800
O 	O 	0.00446 0.93806 0.75787 -0.32900
C 	C 	0.01787 0.99075 0.41195 0.00400
Co	Co	0.00342 0.08350 0.59716 1.17800
O 	O 	0.02743 0.13982 0.19506 -0.36900
O 	O 	0.03226 0.99172 0.12578 -0.54200
Co	Co	0.03503 0.87198 0.63848 1.18900
C 	C 	0.03734 0.28749 0.17975 0.11600
O 	O 	0.04978 0.99404 0.62797 -0.54000
Co	Co	0.06317 0.02756 0.05276 1.16200
O 	O 	0.04940 0.12134 0.04246 -0.43900
O 	O 	0.05678 0.93364 0.08543 -0.73800
O 	O 	0.06541 0.12390 0.54372 -0.43800
C 	C 	0.06012 0.21683 0.64002 0.32800
Br	Br	0.06360 0.65296 0.75200 -0.13500
C 	C 	0.05415 0.99522 0.46565 0.28300
Br	Br	0.05192 0.36707 0.23911 -0.12000
C 	C 	0.99822 0.98542 0.77073 0.32100
O 	O 	0.99628 0.05267 0.73772 -0.39300
C 	C 	0.99412 0.95808 0.32549 0.00600
Co	Co	0.99418 0.08639 0.09802 1.18600
Co	Co	0.09938 0.89415 0.05968 1.18700
C 	C 	0.06771 0.20899 0.15891 0.32000
C 	C 	0.18782 0.86832 0.16818 0.32500
O 	O 	0.98654 0.87535 0.99812 -0.33600
O 	O 	0.08292 0.20094 0.12507 -0.34200
O 	O 	0.20697 0.92001 0.12386 -0.34400
O 	O 	0.12723 0.85623 0.18383 -0.34000
C 	C 	0.96041 0.95235 0.27218 0.29500
Co	Co	0.08922 0.03658 0.55653 1.16600
Co	Co	0.13674 0.91509 0.56177 1.20100
C 	C 	0.17790 0.83593 0.67271 0.34300
O 	O 	0.13115 0.99913 0.49137 -0.34700
O 	O 	0.96882 0.16817 0.63727 -0.38400
O 	O 	0.09259 0.19649 0.62401 -0.35100
O 	O 	0.14482 0.82416 0.62793 -0.36900
O 	O 	0.15073 0.86610 0.68456 -0.34600
O 	O 	0.08625 0.94494 0.58872 -0.73900
C 	C 	0.07730 0.00645 0.90315 -0.06100
C 	C 	0.07863 0.00157 0.86023 -0.01300
H 	H 	0.14383 0.04013 0.92939 0.08100
C 	C 	0.16740 0.03468 0.85499 0.11400
N 	N 	0.23850 0.06102 0.85081 -0.07800
C 	C 	0.08178 0.05684 0.38006 -0.04000
C 	C 	0.07207 0.04008 0.33826 -0.02800
H 	H 	0.14342 0.11943 0.38992 0.07000
C 	C 	0.14369 0.10724 0.30928 0.11100
C 	C 	0.18074 0.35211 0.72857 0.08200
C 	C 	0.16332 0.29503 0.70834 0.10900
C 	C 	0.12424 0.29927 0.65672 -0.10300
Br	Br	0.20909 0.22322 0.74915 -0.17000
Br	Br	0.21171 0.33247 0.80032 -0.14200
C 	C 	0.17808 0.70759 0.73536 0.11700
C 	C 	0.07510 0.28920 0.14998 -0.10400
Br	Br	0.92382 0.18052 0.20306 -0.23200
C 	C 	0.17995 0.73225 0.22523 0.11400
Br	Br	0.10599 0.69409 0.26699 -0.11600
Br	Br	0.12959 0.55416 0.26611 -0.10700
C 	C 	0.72557 0.32362 0.00440 0.16800
N 	N 	0.63317 0.29392 0.98166 -0.10900
C 	C 	0.59499 0.32322 0.98662 0.20500
N 	N 	0.65249 0.39004 0.00930 -0.13700
C 	C 	0.74679 0.42714 0.02760 0.17700
N 	N 	0.78377 0.39228 0.02677 -0.11600
C 	C 	0.73756 0.30645 0.51944 0.18200
N 	N 	0.64818 0.28503 0.49512 -0.11800
C 	C 	0.62210 0.33070 0.49371 0.18200
N 	N 	0.68933 0.40466 0.51111 -0.12100
C 	C 	0.77732 0.42511 0.53726 0.18200
N 	N 	0.80181 0.37525 0.54217 -0.11600
C 	C 	0.27178 0.64723 0.19994 0.18100
N 	N 	0.36031 0.66895 0.21249 -0.11900
C 	C 	0.37413 0.62639 0.20030 0.18900
N 	N 	0.29828 0.55227 0.18388 -0.12800
C 	C 	0.20890 0.52678 0.17326 0.18100
N 	N 	0.19523 0.57599 0.17963 -0.11600
C 	C 	0.30256 0.63741 0.72562 0.18300
N 	N 	0.39511 0.66965 0.73609 -0.11800
C 	C 	0.41658 0.62469 0.73229 0.19000
N 	N 	0.34666 0.54214 0.72542 -0.12500
C 	C 	0.25431 0.50949 0.71377 0.18600
N 	N 	0.23146 0.55778 0.71284 -0.11400
Co	Co	0.94254 0.92245 0.18049 1.20100
C 	C 	0.23735 0.08988 0.03390 0.33700
Co	Co	0.88697 0.03797 0.17443 1.17400
C 	C 	0.93240 0.72084 0.09829 0.33600
O 	O 	0.87986 0.12901 0.10850 -0.38400
O 	O 	0.94886 0.01548 0.15010 -0.77600
C 	C 	0.84647 0.11669 0.06395 0.33400
O 	O 	0.95974 0.83134 0.19321 -0.42400
C 	C 	0.73893 0.85240 0.16542 0.33100
C 	C 	0.98760 0.94458 0.96569 0.27400
O 	O 	0.87227 0.08408 0.05282 -0.37100
O 	O 	0.99049 0.99639 0.98038 -0.30700
O 	O 	0.75545 0.93072 0.15011 -0.33900
O 	O 	0.79463 0.84314 0.16080 -0.36200
O 	O 	0.88570 0.95128 0.24426 -0.36300
O 	O 	0.17817 0.01955 0.01678 -0.42600
O 	O 	0.20760 0.10554 0.05483 -0.37000
O 	O 	0.90873 0.75712 0.10762 -0.36400
Co	Co	0.96142 0.92462 0.68345 1.20100
C 	C 	0.28843 0.10146 0.56080 0.32400
Co	Co	0.89205 0.03365 0.67217 1.16700
C 	C 	0.95224 0.74686 0.57573 0.32000
O 	O 	0.79394 0.00857 0.60550 -0.38600
O 	O 	0.96280 0.01576 0.65114 -0.76200
C 	C 	0.81898 0.06732 0.56375 0.32100
O 	O 	0.97862 0.83387 0.69394 -0.41600
C 	C 	0.76878 0.83746 0.68905 0.35300
O 	O 	0.88168 0.08142 0.54865 -0.35100
O 	O 	0.80912 0.90163 0.70813 -0.38300
O 	O 	0.81505 0.84279 0.66696 -0.37000
O 	O 	0.26799 0.02189 0.58576 -0.37100
O 	O 	0.23411 0.12290 0.55475 -0.35700
O 	O 	0.99653 0.81436 0.54050 -0.36100
O 	O 	0.93895 0.75871 0.60870 -0.34000
C 	C 	0.99397 0.96361 0.82326 -0.00400
C 	C 	0.90774 0.92688 0.83154 0.00200
C 	C 	0.90570 0.92784 0.87577 0.00700
C 	C 	0.99078 0.96673 0.91258 0.01900
H 	H 	0.84247 0.90032 0.80274 0.06900
C 	C 	0.81646 0.89237 0.88175 0.13000
N 	N 	0.74483 0.86410 0.88637 -0.06900
C 	C 	0.92952 0.89241 0.35701 -0.00400
C 	C 	0.93971 0.90890 0.39907 0.00900
H 	H 	0.86837 0.82970 0.34744 0.08300
C 	C 	0.86930 0.84097 0.42877 0.12000
N 	N 	0.20132 0.16111 0.28618 -0.08800
N 	N 	0.81270 0.78644 0.45249 -0.07900
C 	C 	0.14449 0.43289 0.64445 0.08300
C 	C 	0.18138 0.42692 0.69655 -0.04100
C 	C 	0.12088 0.37186 0.62442 0.11300
Br	Br	0.09770 0.39440 0.55329 -0.12400
Br	Br	0.12828 0.52554 0.60055 -0.11400
C 	C 	0.51111 0.70173 0.67038 0.08400
C 	C 	0.50712 0.67269 0.72093 -0.04200
C 	C 	0.58438 0.67565 0.76001 0.08200
C 	C 	0.66752 0.71341 0.74836 0.11800
C 	C 	0.67653 0.75572 0.69836 -0.11400
C 	C 	0.59509 0.74009 0.65942 0.12100
Br	Br	0.60039 0.77449 0.59114 -0.12100
Br	Br	0.40258 0.69089 0.61636 -0.10700
Br	Br	0.77155 0.71195 0.80063 -0.14900
Br	Br	0.57754 0.63142 0.82910 -0.11500
C 	C 	0.33722 0.78655 0.70361 0.08700
C 	C 	0.28011 0.69339 0.72334 -0.03500
C 	C 	0.20516 0.65547 0.74333 0.08600
C 	C 	0.23069 0.79860 0.71135 -0.09600
C 	C 	0.31942 0.83856 0.70535 0.11400
Br	Br	0.40844 0.96556 0.69028 -0.10100
Br	Br	0.42507 0.84096 0.66512 -0.10400
Br	Br	0.14514 0.53595 0.78463 -0.12000
C 	C 	0.12226 0.36936 0.11402 0.11400
C 	C 	0.13398 0.44368 0.11159 0.08400
C 	C 	0.12855 0.44781 0.15307 -0.04000
C 	C 	0.07324 0.36763 0.18531 0.08400
Br	Br	0.14979 0.53577 0.05089 -0.11800
Br	Br	0.18160 0.38368 0.07300 -0.13600
C 	C 	0.54138 0.67418 0.23112 0.08600
C 	C 	0.46595 0.67312 0.19097 -0.04400
C 	C 	0.47786 0.71484 0.14121 0.08700
C 	C 	0.56543 0.75872 0.13236 0.12600
C 	C 	0.64429 0.77352 0.17284 -0.10600
C 	C 	0.63077 0.72374 0.22177 0.11600
Br	Br	0.73174 0.71759 0.27435 -0.17300
Br	Br	0.52272 0.60988 0.29853 -0.13400
Br	Br	0.57628 0.79212 0.06557 -0.12700
Br	Br	0.37950 0.72227 0.08624 -0.10900
C 	C 	0.19350 0.67438 0.22647 0.08400
C 	C 	0.26114 0.70781 0.20250 -0.04000
C 	C 	0.32585 0.80104 0.18592 0.08200
C 	C 	0.31771 0.85700 0.19108 0.11900
C 	C 	0.23382 0.82214 0.20013 -0.09800
Br	Br	0.42266 0.97957 0.18916 -0.08900
Br	Br	0.41673 0.85248 0.15044 -0.10300
C 	C 	0.69925 0.15499 0.55113 0.08800
C 	C 	0.75843 0.24547 0.52805 -0.04300
C 	C 	0.82383 0.27296 0.50481 0.08700
C 	C 	0.83665 0.21168 0.50966 0.11200
C 	C 	0.78180 0.12254 0.53663 -0.09500
C 	C 	0.70342 0.09334 0.54936 0.07600
Br	Br	0.59735 0.96990 0.55933 -0.06700
Br	Br	0.61548 0.11562 0.58729 -0.15600
Br	Br	0.91107 0.24461 0.47000 -0.12700
Br	Br	0.88823 0.39105 0.46254 -0.10100
C 	C 	0.92289 0.57752 0.54467 0.08600
C 	C 	0.84285 0.49793 0.56283 -0.04000
C 	C 	0.81063 0.49678 0.59493 0.08800
C 	C 	0.84508 0.57714 0.60016 0.11700
C 	C 	0.92396 0.65830 0.58022 -0.09500
C 	C 	0.96910 0.65497 0.55785 0.11800
Br	Br	0.09655 0.75274 0.54818 -0.18900
Br	Br	0.96288 0.58369 0.49673 -0.10300
Br	Br	0.77980 0.57419 0.63171 -0.12200
Br	Br	0.71612 0.38483 0.62985 -0.12800
C 	C 	0.38056 0.13798 0.50793 0.11700
C 	C 	0.36802 0.16567 0.53507 -0.10400
C 	C 	0.42699 0.25676 0.53331 0.11700
C 	C 	0.49632 0.31795 0.50501 0.08600
C 	C 	0.51996 0.28729 0.48736 -0.04000
C 	C 	0.45132 0.20119 0.48044 0.08700
Br	Br	0.44750 0.17326 0.42914 -0.14000
Br	Br	0.31046 0.01440 0.51238 -0.22000
Br	Br	0.54742 0.44136 0.48392 -0.12300
Br	Br	0.42372 0.29655 0.57534 -0.13300
C 	C 	0.69888 0.17681 0.03680 0.09400
C 	C 	0.75483 0.26824 0.01418 -0.05600
C 	C 	0.82648 0.30165 0.99333 0.10200
C 	C 	0.84650 0.24479 0.99948 0.12800
C 	C 	0.79359 0.15463 0.02531 -0.11300
C 	C 	0.70937 0.11987 0.03442 0.08200
Br	Br	0.61687 0.99397 0.05220 -0.08200
Br	Br	0.62076 0.13229 0.07830 -0.14600
Br	Br	0.94831 0.29057 0.97481 -0.11900
Br	Br	0.89593 0.42348 0.95636 -0.10200
C 	C 	0.80403 0.57964 0.01381 0.07100
C 	C 	0.80780 0.50714 0.04640 -0.03800
C 	C 	0.83924 0.49947 0.09869 0.08200
C 	C 	0.86339 0.56221 0.11768 0.11400
C 	C 	0.86022 0.63481 0.08448 -0.10300
C 	C 	0.81816 0.63557 0.03340 0.10000
Br	Br	0.76994 0.70526 0.99188 -0.12400
Br	Br	0.77814 0.60129 0.94230 -0.10100
Br	Br	0.89457 0.54597 0.18884 -0.12500
Br	Br	0.84817 0.40285 0.14421 -0.12200
C 	C 	0.45019 0.30307 0.97998 0.11400
C 	C 	0.49050 0.26858 0.97983 -0.05700
C 	C 	0.43823 0.17690 0.99006 0.11500
C 	C 	0.37266 0.12279 0.01949 0.09100
C 	C 	0.33327 0.15536 0.02312 -0.09800
C 	C 	0.37111 0.24646 0.00156 0.07600
Br	Br	0.31399 0.29360 0.99940 -0.11500
Br	Br	0.49632 0.42463 0.94575 -0.10600
Br	Br	0.33628 0.00391 0.05376 -0.21200
Br	Br	0.44043 0.12559 0.95497 -0.13000
