data_crystal

_cell_length_a 19.34499
_cell_length_b 20.21762
_cell_length_c 29.93537
_cell_angle_alpha 90.00000
_cell_angle_beta  90.00000
_cell_angle_gamma 90.06428

_symmetry_space_group_name_	'P 1'
_symmetry_space_group_name_H-M	'P 1'

loop_
_symmetry_equiv_pos_as_xyz
  x,y,z

loop_
_atom_site_label
_atom_site_type_symbol
_atom_site_fract_x
_atom_site_fract_y
_atom_site_fract_z
_atom_site_charge
Co	Co	0.93036 0.03512 0.99708 1.14900
O 	O 	0.14087 0.96779 0.01075 -0.74300
O 	O 	0.88856 0.96523 0.00839 -0.74200
Co	Co	0.09859 0.03655 0.99874 1.16100
O 	O 	0.01429 0.09399 0.99121 -0.48000
Co	Co	0.24933 0.96847 0.00152 1.18600
O 	O 	0.01456 0.96656 0.02274 -0.52500
O 	O 	0.76896 0.89359 0.04783 -0.36000
O 	O 	0.26036 0.89767 0.05144 -0.36700
O 	O 	0.16102 0.83814 0.03967 -0.35800
O 	O 	0.86962 0.83599 0.03726 -0.36800
C 	C 	0.82057 0.85831 0.06397 0.28700
C 	C 	0.20942 0.86071 0.06680 0.30600
O 	O 	0.86748 0.09538 0.03550 -0.36500
O 	O 	0.15918 0.09822 0.03808 -0.35600
O 	O 	0.76780 0.03635 0.04688 -0.35800
O 	O 	0.25936 0.04057 0.05072 -0.36400
C 	C 	0.81859 0.07329 0.06240 0.30500
C 	C 	0.20793 0.07730 0.06552 0.30700
H 	H 	0.85568 0.73327 0.08908 0.04400
Co	Co	0.60298 0.53486 0.50075 1.18600
Co	Co	0.43247 0.39783 0.50089 1.18600
Co	Co	0.43444 0.53716 0.50190 1.18500
Co	Co	0.60100 0.39597 0.49939 1.18500
C 	C 	0.70560 0.54702 0.57408 0.30300
Co	Co	0.75222 0.46415 0.49505 1.16600
Co	Co	0.28304 0.46914 0.50033 1.16800
C 	C 	0.70697 0.35762 0.43067 0.29300
O 	O 	0.27280 0.54071 0.45099 -0.37900
O 	O 	0.39136 0.46781 0.49046 -0.78300
C 	C 	0.32446 0.57705 0.43577 0.29200
O 	O 	0.51989 0.59378 0.50889 -0.47200
O 	O 	0.51601 0.33898 0.50723 -0.47300
C 	C 	0.32096 0.36151 0.43485 0.29100
O 	O 	0.51706 0.46697 0.47667 -0.57800
C 	C 	0.33665 0.55252 0.57752 0.32300
C 	C 	0.71038 0.57448 0.43261 0.31100
C 	C 	0.70350 0.37926 0.57267 0.30300
O 	O 	0.37323 0.59853 0.46311 -0.38900
O 	O 	0.76149 0.53604 0.44572 -0.38700
O 	O 	0.66399 0.59600 0.46144 -0.39000
O 	O 	0.27019 0.39768 0.45132 -0.38000
O 	O 	0.37025 0.33879 0.46132 -0.38900
O 	O 	0.28591 0.54407 0.54869 -0.39600
O 	O 	0.40074 0.53770 0.56697 -0.40900
O 	O 	0.75229 0.38829 0.54246 -0.40200
O 	O 	0.63851 0.39358 0.56376 -0.40700
O 	O 	0.64347 0.46547 0.48793 -0.78400
C 	C 	0.33443 0.38296 0.57696 0.32200
O 	O 	0.28333 0.39425 0.54883 -0.39500
O 	O 	0.39884 0.39644 0.56623 -0.40800
O 	O 	0.75412 0.53818 0.54367 -0.40300
O 	O 	0.64031 0.53417 0.56499 -0.40900
O 	O 	0.75956 0.39356 0.44482 -0.38400
O 	O 	0.66010 0.33553 0.45910 -0.39200
C 	C 	0.31057 0.33012 0.39065 -0.08400
C 	C 	0.26493 0.35876 0.35964 0.01400
C 	C 	0.25253 0.32805 0.31861 -0.06400
C 	C 	0.28556 0.26840 0.30801 0.02800
C 	C 	0.33211 0.24022 0.33849 -0.06400
C 	C 	0.34472 0.27092 0.37958 0.01400
C 	C 	0.27079 0.23515 0.26519 0.00400
C 	C 	0.32335 0.22726 0.23333 -0.03700
C 	C 	0.30905 0.19658 0.19249 -0.03000
C 	C 	0.24216 0.17364 0.18322 -0.00100
C 	C 	0.18957 0.18152 0.21496 -0.03000
C 	C 	0.20380 0.21217 0.25583 -0.03600
C 	C 	0.22812 0.14038 0.14165 0.05000
C 	C 	0.21783 0.11198 0.10685 -0.09000
H 	H 	0.23862 0.40457 0.36745 0.03600
H 	H 	0.21704 0.35051 0.29509 0.05100
H 	H 	0.35795 0.19418 0.33054 0.04900
H 	H 	0.38016 0.24814 0.40297 0.03900
H 	H 	0.37512 0.24511 0.24014 0.04200
H 	H 	0.35000 0.19051 0.16813 0.04800
H 	H 	0.13780 0.16369 0.20808 0.04600
H 	H 	0.16291 0.21793 0.28025 0.04600
C 	C 	0.27788 0.16686 0.72326 -0.03800
C 	C 	0.29346 0.20529 0.68574 -0.03000
C 	C 	0.29478 0.27445 0.68901 -0.00600
C 	C 	0.28099 0.30505 0.73005 -0.03100
C 	C 	0.30905 0.31394 0.65003 0.05200
C 	C 	0.32075 0.34612 0.61697 -0.10600
H 	H 	0.27636 0.11346 0.72035 0.04400
H 	H 	0.30408 0.18132 0.65410 0.04400
H 	H 	0.28201 0.35849 0.73283 0.04000
C 	C 	0.31601 0.60946 0.39195 -0.08600
C 	C 	0.28674 0.57419 0.35624 0.01500
C 	C 	0.27400 0.60568 0.31551 -0.06400
C 	C 	0.29042 0.67278 0.31004 0.02800
C 	C 	0.32100 0.70784 0.34539 -0.06500
C 	C 	0.33383 0.67633 0.38617 0.01700
C 	C 	0.27491 0.70645 0.26746 0.00300
C 	C 	0.32878 0.73194 0.24118 -0.03800
C 	C 	0.31414 0.76269 0.20043 -0.03100
C 	C 	0.24561 0.76814 0.18566 -0.00100
C 	C 	0.19170 0.74290 0.21190 -0.03000
C 	C 	0.20626 0.71216 0.25269 -0.03700
C 	C 	0.23077 0.80011 0.14373 0.04900
C 	C 	0.21991 0.82738 0.10859 -0.09200
H 	H 	0.27354 0.52245 0.36012 0.03100
H 	H 	0.25112 0.57801 0.28825 0.05100
H 	H 	0.33392 0.75967 0.34146 0.04900
H 	H 	0.35613 0.70427 0.41349 0.04000
H 	H 	0.38193 0.72755 0.25220 0.04200
H 	H 	0.35607 0.78218 0.18032 0.04600
H 	H 	0.13859 0.74709 0.20075 0.04700
H 	H 	0.16430 0.69282 0.27281 0.04600
C 	C 	0.71273 0.32598 0.38653 -0.08900
C 	C 	0.69603 0.25883 0.38098 0.01600
C 	C 	0.70769 0.22772 0.33995 -0.06600
C 	C 	0.73597 0.26349 0.30416 0.02600
C 	C 	0.75079 0.33096 0.30931 -0.06600
C 	C 	0.73922 0.36207 0.35029 0.01300
C 	C 	0.75159 0.22998 0.26164 0.00200
C 	C 	0.82019 0.22522 0.24667 -0.04000
C 	C 	0.83495 0.19403 0.20610 -0.03300
C 	C 	0.78128 0.16741 0.18031 -0.00400
C 	C 	0.71278 0.17201 0.19524 -0.03100
C 	C 	0.69795 0.20321 0.23577 -0.03800
C 	C 	0.79636 0.13486 0.13872 0.04600
C 	C 	0.80755 0.10712 0.10385 -0.09800
H 	H 	0.67580 0.23033 0.40870 0.03800
H 	H 	0.69595 0.17560 0.33621 0.04700
H 	H 	0.77185 0.35913 0.28168 0.04700
H 	H 	0.75150 0.41409 0.35403 0.03200
H 	H 	0.86197 0.24555 0.26650 0.03800
H 	H 	0.88804 0.19050 0.19479 0.03700
H 	H 	0.67105 0.15145 0.17545 0.04600
H 	H 	0.64483 0.20685 0.24699 0.04200
C 	C 	0.72327 0.58110 0.61614 -0.09100
C 	C 	0.68409 0.56992 0.65492 0.01600
C 	C 	0.69867 0.60510 0.69407 -0.06600
C 	C 	0.75261 0.65160 0.69478 0.02500
C 	C 	0.79256 0.66185 0.65631 -0.06700
C 	C 	0.77807 0.62677 0.61722 0.01500
C 	C 	0.76633 0.69072 0.73542 0.00200
C 	C 	0.83036 0.68560 0.75720 -0.04300
C 	C 	0.71663 0.73547 0.75129 -0.04200
H 	H 	0.64236 0.53414 0.65475 0.03500
H 	H 	0.66793 0.59644 0.72376 0.04600
H 	H 	0.83420 0.69773 0.65653 0.04400
H 	H 	0.80853 0.63615 0.58751 0.03400
H 	H 	0.86903 0.65116 0.74523 0.03500
H 	H 	0.66722 0.74009 0.73454 0.04000
C 	C 	0.72037 0.34372 0.61428 -0.09100
C 	C 	0.77326 0.29613 0.61458 0.01600
C 	C 	0.78719 0.26009 0.65335 -0.06700
C 	C 	0.74850 0.27120 0.69223 0.02600
C 	C 	0.69647 0.31956 0.69228 -0.06600
C 	C 	0.68247 0.35571 0.65347 0.01700
C 	C 	0.76197 0.23159 0.73267 0.00200
C 	C 	0.75171 0.16283 0.73203 -0.04100
H 	H 	0.80275 0.28619 0.58456 0.03500
H 	H 	0.82779 0.22322 0.65311 0.04500
H 	H 	0.66653 0.32868 0.72224 0.04600
H 	H 	0.64219 0.39290 0.65386 0.03500
H 	H 	0.73212 0.13883 0.70224 0.04100
C 	C 	0.26736 0.73648 0.76571 0.00200
C 	C 	0.28090 0.76730 0.72463 -0.03900
C 	C 	0.29642 0.72916 0.68698 -0.03100
C 	C 	0.29851 0.66002 0.69017 -0.00700
C 	C 	0.28570 0.62915 0.73125 -0.03100
C 	C 	0.27023 0.66724 0.76894 -0.04000
C 	C 	0.31233 0.62080 0.65102 0.05100
C 	C 	0.32358 0.58892 0.61777 -0.10700
H 	H 	0.27866 0.82068 0.72177 0.04200
H 	H 	0.30630 0.75333 0.65530 0.04200
H 	H 	0.28734 0.57573 0.73396 0.04000
C 	C 	0.81174 0.82757 0.10822 -0.08200
C 	C 	0.83163 0.76162 0.11554 0.01400
C 	C 	0.81879 0.73155 0.15677 -0.06400
C 	C 	0.78605 0.76710 0.19100 0.02500
C 	C 	0.76748 0.83332 0.18403 -0.06300
C 	C 	0.78036 0.86345 0.14287 0.01100
C 	C 	0.77014 0.73468 0.23387 0.00300
C 	C 	0.80050 0.75770 0.27352 -0.04200
C 	C 	0.78536 0.72694 0.31416 -0.03200
C 	C 	0.73982 0.67302 0.31543 -0.00800
C 	C 	0.70902 0.65028 0.27594 -0.03200
C 	C 	0.72405 0.68105 0.23527 -0.04000
C 	C 	0.72761 0.63891 0.35684 0.04600
C 	C 	0.71878 0.60983 0.39149 -0.10900
H 	H 	0.83375 0.68051 0.16200 0.04800
H 	H 	0.74237 0.86118 0.21033 0.04600
H 	H 	0.76550 0.91457 0.13779 0.03400
H 	H 	0.83614 0.79907 0.27276 0.03600
H 	H 	0.80955 0.74459 0.34457 0.03800
H 	H 	0.67391 0.60849 0.27669 0.03900
H 	H 	0.69997 0.66326 0.20487 0.04400
C 	C 	0.26351 0.19741 0.76431 0.00300
C 	C 	0.26545 0.26668 0.76761 -0.03900
C 	C 	0.84470 0.72519 0.79437 -0.03300
C 	C 	0.76690 0.12492 0.76984 -0.03200
H 	H 	0.75883 0.07188 0.76906 0.04000
H 	H 	0.34664 0.82803 0.80782 0.04500
C 	C 	0.78715 0.26214 0.77150 -0.04300
C 	C 	0.73102 0.77500 0.78849 -0.03200
H 	H 	0.79553 0.31512 0.77225 0.03600
H 	H 	0.89424 0.72087 0.81101 0.03200
C 	C 	0.24873 0.77653 0.80511 0.02800
C 	C 	0.79515 0.77009 0.81001 -0.01200
H 	H 	0.69236 0.80941 0.80053 0.03600
C 	C 	0.29636 0.82160 0.82316 -0.06900
H 	H 	0.26022 0.64301 0.80058 0.03900
C 	C 	0.24532 0.15701 0.80366 0.02900
H 	H 	0.14213 0.19696 0.80945 0.05200
H 	H 	0.25478 0.29070 0.79922 0.04000
C 	C 	0.80230 0.22416 0.80929 -0.03300
C 	C 	0.79239 0.15548 0.80849 -0.01100
H 	H 	0.14622 0.73483 0.81106 0.05100
C 	C 	0.18001 0.16349 0.82353 -0.06500
C 	C 	0.29365 0.11285 0.82186 -0.06800
H 	H 	0.34406 0.10720 0.80656 0.04700
C 	C 	0.18357 0.76903 0.82504 -0.06600
C 	C 	0.27954 0.85776 0.86148 0.01900
C 	C 	0.80933 0.80966 0.84895 0.04600
H 	H 	0.31679 0.89226 0.87522 0.02400
C 	C 	0.80721 0.11661 0.84764 0.04800
H 	H 	0.82179 0.24813 0.83913 0.03300
C 	C 	0.16374 0.12744 0.86196 0.02000
C 	C 	0.16673 0.80507 0.86335 0.02000
C 	C 	0.82087 0.84196 0.88197 -0.12000
C 	C 	0.21498 0.84898 0.88215 -0.09300
C 	C 	0.27741 0.07670 0.86030 0.02000
H 	H 	0.11367 0.13403 0.87754 0.03800
C 	C 	0.21274 0.08458 0.88096 -0.09100
C 	C 	0.81924 0.08493 0.88085 -0.11700
H 	H 	0.31524 0.04299 0.87418 0.02700
H 	H 	0.11677 0.79775 0.87895 0.03700
C 	C 	0.19927 0.88306 0.92450 0.30500
C 	C 	0.83393 0.87896 0.92198 0.32400
O 	O 	0.13451 0.89610 0.93470 -0.41600
O 	O 	0.89810 0.89350 0.93273 -0.42700
O 	O 	0.78279 0.88873 0.95031 -0.41900
O 	O 	0.24928 0.89295 0.95375 -0.42700
C 	C 	0.83281 0.04874 0.92112 0.32500
C 	C 	0.19778 0.05093 0.92360 0.30600
O 	O 	0.13332 0.03670 0.93396 -0.41300
O 	O 	0.89719 0.03543 0.93199 -0.42500
Co	Co	0.78027 0.96428 0.99822 1.13500
Co	Co	0.93125 0.89607 0.99819 1.14600
Co	Co	0.09966 0.89737 0.99962 1.15600
O 	O 	0.01588 0.83857 0.99269 -0.48300
O 	O 	0.24803 0.04259 0.95287 -0.42300
O 	O 	0.78178 0.03869 0.94951 -0.41400
