data_crystal

_cell_length_a 20.51914
_cell_length_b 21.74556
_cell_length_c 39.11503
_cell_angle_alpha 61.01591
_cell_angle_beta  118.72828
_cell_angle_gamma 133.18611

_symmetry_space_group_name_	'P 1'
_symmetry_space_group_name_H-M	'P 1'

loop_
_symmetry_equiv_pos_as_xyz
  x,y,z

loop_
_atom_site_label
_atom_site_type_symbol
_atom_site_fract_x
_atom_site_fract_y
_atom_site_fract_z
_atom_site_charge
Co	Co	0.00559 0.07573 0.08327 1.18600
Co	Co	0.07022 0.01650 0.04703 1.17100
Co	Co	0.07155 0.87169 0.04102 1.18000
C 	C 	0.24514 0.03852 0.05987 0.24200
O 	O 	0.07630 0.11658 0.04484 -0.44300
C 	C 	0.09006 0.18873 0.13832 0.30200
C 	C 	0.09008 0.77616 0.12672 0.30100
O 	O 	0.00918 0.93340 0.19843 -0.33000
O 	O 	0.05445 0.76690 0.09009 -0.39200
O 	O 	0.08269 0.82133 0.13636 -0.36500
O 	O 	0.04196 0.12330 0.16493 -0.34800
O 	O 	0.10643 0.17472 0.11457 -0.36500
O 	O 	0.03291 0.91143 0.06272 -0.73000
O 	O 	0.20553 0.95458 0.06885 -0.33400
O 	O 	0.20987 0.06754 0.06414 -0.36900
Co	Co	0.02783 0.10317 0.57939 1.18500
Co	Co	0.07779 0.03041 0.54385 1.16900
Co	Co	0.07101 0.87859 0.54003 1.18100
C 	C 	0.24722 0.04160 0.56074 0.24400
O 	O 	0.09348 0.13639 0.54092 -0.44800
C 	C 	0.12793 0.21625 0.63786 0.29500
C 	C 	0.08146 0.78147 0.62542 0.30000
O 	O 	0.00958 0.95055 0.69390 -0.33200
O 	O 	0.04573 0.77206 0.58888 -0.39300
O 	O 	0.07631 0.82916 0.63453 -0.36200
O 	O 	0.07341 0.15350 0.66260 -0.39200
O 	O 	0.13739 0.19787 0.61315 -0.36900
O 	O 	0.03459 0.92363 0.55973 -0.72500
O 	O 	0.20478 0.95712 0.56952 -0.33600
O 	O 	0.21442 0.07318 0.56462 -0.38200
C 	C 	0.10756 0.07146 0.87591 -0.11400
C 	C 	0.10626 0.08140 0.90842 0.38600
C 	C 	0.02954 0.99459 0.82146 0.13900
F 	F 	0.18533 0.14324 0.92797 -0.43800
H 	H 	0.17209 0.11185 0.86767 0.13300
C 	C 	0.07728 0.06665 0.79186 0.23000
C 	C 	0.07848 0.05425 0.76019 -0.11700
C 	C 	0.02255 0.97066 0.75426 -0.04700
F 	F 	0.11752 0.14836 0.79219 -0.41600
H 	H 	0.11410 0.11023 0.73755 0.10500
C 	C 	0.12332 0.07299 0.37722 0.31600
C 	C 	0.12386 0.08680 0.40894 -0.07400
C 	C 	0.03929 0.99167 0.32368 0.14900
F 	F 	0.20445 0.11389 0.36964 -0.43300
H 	H 	0.18917 0.13076 0.42639 0.09600
C 	C 	0.02359 0.95385 0.25904 -0.05200
C 	C 	0.08640 0.03951 0.26366 0.32500
C 	C 	0.08969 0.05894 0.29415 -0.20500
F 	F 	0.14254 0.10432 0.23804 -0.43000
H 	H 	0.13066 0.12623 0.29449 0.15500
C 	C 	0.20452 0.33024 0.67213 0.02000
C 	C 	0.17367 0.30811 0.63620 -0.07000
C 	C 	0.16282 0.36446 0.59923 0.01800
C 	C 	0.16680 0.43298 0.59840 -0.02000
C 	C 	0.15932 0.35886 0.56294 0.09400
C 	C 	0.14729 0.48579 0.56028 0.10800
N 	N 	0.13179 0.52806 0.52984 -0.09000
N 	N 	0.15752 0.35427 0.53420 -0.09400
C 	C 	0.14327 0.75424 0.65250 -0.06000
C 	C 	0.23169 0.80926 0.64639 0.01200
C 	C 	0.14097 0.63026 0.66542 -0.01600
C 	C 	0.10377 0.66446 0.66749 0.01100
C 	C 	0.03045 0.60901 0.68784 0.11700
C 	C 	0.09943 0.37119 0.13920 -0.02900
C 	C 	0.06977 0.28749 0.14343 0.03400
C 	C 	0.12035 0.27798 0.13318 -0.06300
C 	C 	0.03868 0.38124 0.14124 0.12800
C 	C 	0.10850 0.65723 0.17154 0.01200
C 	C 	0.14981 0.74696 0.15440 -0.06200
C 	C 	0.03145 0.60555 0.18899 0.11300
N 	N 	0.23520 0.96965 0.48968 -0.05100
N 	N 	0.23528 0.00134 0.97524 -0.11300
N 	N 	0.20398 0.57053 0.63855 -0.12600
C 	C 	0.19291 0.45210 0.63463 0.00000
C 	C 	0.10554 0.53968 0.68419 0.11500
N 	N 	0.07717 0.46731 0.69925 -0.08900
C 	C 	0.04156 0.99596 0.96850 0.46300
O 	O 	0.09612 0.97221 0.99016 -0.38600
C 	C 	0.05333 0.00857 0.46655 0.30100
O 	O 	0.10344 0.98008 0.48959 -0.34500
C 	C 	0.02690 0.00728 0.85533 -0.08200
C 	C 	0.03996 0.01231 0.35556 -0.10200
C 	C 	0.04339 0.03348 0.42260 -0.14600
N 	N 	0.20465 0.55779 0.14421 -0.12600
C 	C 	0.18346 0.44499 0.12880 0.00700
C 	C 	0.19837 0.35397 0.11757 0.02300
C 	C 	0.14689 0.61949 0.17431 -0.01600
C 	C 	0.20451 0.39582 0.67144 -0.02000
C 	C 	0.22409 0.43669 0.11210 -0.02000
C 	C 	0.21627 0.68659 0.64702 0.00100
C 	C 	0.22332 0.67129 0.15756 0.00100
C 	C 	0.24624 0.29290 0.70888 0.10600
C 	C 	0.25556 0.34802 0.10944 0.10900
C 	C 	0.11454 0.53139 0.19794 0.11500
C 	C 	0.22202 0.40883 0.70879 0.11900
N 	N 	0.08900 0.46121 0.21708 -0.09200
N 	N 	0.08189 0.36604 0.02668 -0.10100
C 	C 	0.24118 0.52265 0.14512 0.13200
C 	C 	0.02759 0.02035 0.92425 -0.22900
O 	O 	0.01930 0.01768 0.98546 -0.41600
C 	C 	0.23890 0.79952 0.14928 0.01300
C 	C 	0.24349 0.54382 0.63438 0.13200
C 	C 	0.25695 0.65292 0.64332 0.13200
O 	O 	0.03159 0.03306 0.48223 -0.36000
C 	C 	0.26126 0.63176 0.15752 0.13100
N 	N 	0.23603 0.41928 0.73860 -0.08200
C 	C 	0.26036 0.77790 0.63653 -0.01700
N 	N 	0.02046 0.38404 0.46882 -0.07600
C 	C 	0.27017 0.76292 0.14528 -0.01800
N 	N 	0.28042 0.26383 0.73824 -0.08700
C 	C 	0.00565 0.32509 0.02688 0.10500
C 	C 	0.98916 0.90475 0.32303 0.25100
C 	C 	0.98901 0.21209 0.15933 0.06800
C 	C 	0.29025 0.51292 0.08825 0.11300
N 	N 	0.97034 0.56399 0.20335 -0.10200
N 	N 	0.98938 0.38881 0.14253 -0.10900
N 	N 	0.30141 0.34352 0.10293 -0.09100
N 	N 	0.97232 0.56441 0.70449 -0.09900
N 	N 	0.34302 0.57348 0.06912 -0.09800
C 	C 	0.98052 0.89855 0.78526 0.35300
C 	C 	0.98556 0.91056 0.81905 -0.16800
C 	C 	0.32576 0.83809 0.61137 0.11100
C 	C 	0.29419 0.89632 0.65194 0.11300
N 	N 	0.37794 0.88641 0.59123 -0.08800
N 	N 	0.34457 0.96589 0.65667 -0.08100
Co	Co	0.97987 0.84093 0.10068 1.18400
C 	C 	0.34651 0.81904 0.12656 0.11100
N 	N 	0.40759 0.86433 0.11162 -0.09400
C 	C 	0.98110 0.88620 0.29076 -0.07300
C 	C 	0.30076 0.88876 0.15183 0.10900
N 	N 	0.35087 0.95999 0.15435 -0.08200
C 	C 	0.97638 0.93979 0.21771 0.30300
C 	C 	0.97906 0.96148 0.71220 0.30800
N 	N 	0.92460 0.15230 0.17211 -0.13600
O 	O 	0.90470 0.94126 0.19880 -0.37600
O 	O 	0.91679 0.97603 0.69138 -0.36800
N 	N 	0.82962 0.58956 0.63884 -0.09400
C 	C 	0.35944 0.09680 0.52567 0.03100
C 	C 	0.34186 0.10050 0.55524 -0.06800
C 	C 	0.28981 0.02607 0.50566 0.02500
C 	C 	0.34108 0.09936 0.05539 -0.04800
C 	C 	0.36078 0.10540 0.02333 0.00600
C 	C 	0.29010 0.04743 0.99670 0.10600
C 	C 	0.73894 0.29213 0.02943 0.12700
N 	N 	0.78543 0.37724 0.02795 -0.12800
C 	C 	0.75084 0.40002 0.03824 0.13200
N 	N 	0.66830 0.33938 0.04773 -0.13100
C 	C 	0.62042 0.25562 0.04827 0.13100
N 	N 	0.65639 0.23130 0.04001 -0.13300
C 	C 	0.74170 0.30259 0.53058 0.12800
N 	N 	0.65129 0.24938 0.53076 -0.13000
C 	C 	0.61466 0.27672 0.53597 0.13300
N 	N 	0.66596 0.36002 0.53728 -0.13100
C 	C 	0.75586 0.41450 0.53686 0.13200
N 	N 	0.79499 0.38565 0.53434 -0.12900
N 	N 	0.33296 0.56239 0.15857 -0.13000
C 	C 	0.38959 0.64123 0.16634 0.13500
N 	N 	0.35375 0.67299 0.16851 -0.12800
N 	N 	0.33340 0.59944 0.63387 -0.13100
C 	C 	0.38489 0.68122 0.63732 0.13600
N 	N 	0.34762 0.70671 0.64345 -0.12800
Co	Co	0.93223 0.90470 0.14182 1.19400
C 	C 	0.87860 0.72746 0.04184 0.29100
Co	Co	0.90533 0.03189 0.14494 1.16000
O 	O 	0.94553 0.00052 0.11930 -0.78500
O 	O 	0.93204 0.80736 0.14628 -0.44800
O 	O 	0.97190 0.95113 0.08460 -0.55600
C 	C 	0.74439 0.85347 0.13626 0.29600
O 	O 	0.77436 0.93557 0.12195 -0.35600
O 	O 	0.79314 0.82803 0.14187 -0.35800
C 	C 	0.88297 0.13064 0.05690 0.29700
O 	O 	0.90504 0.12941 0.09464 -0.39800
O 	O 	0.90881 0.10262 0.04569 -0.37900
O 	O 	0.93342 0.79391 0.01739 -0.38700
O 	O 	0.87375 0.73930 0.07094 -0.36200
Co	Co	0.97844 0.85557 0.59680 1.18300
Co	Co	0.93766 0.93038 0.63554 1.19500
C 	C 	0.87688 0.74048 0.53835 0.29000
Co	Co	0.93531 0.07460 0.63934 1.15700
O 	O 	0.96548 0.03230 0.61459 -0.78800
O 	O 	0.92601 0.82593 0.63981 -0.44100
O 	O 	0.97962 0.97238 0.57977 -0.55300
C 	C 	0.76038 0.90466 0.62515 0.29800
O 	O 	0.80134 0.98935 0.61286 -0.35500
O 	O 	0.79977 0.86921 0.63130 -0.35200
C 	C 	0.92038 0.17360 0.55301 0.30300
O 	O 	0.95265 0.17959 0.59018 -0.40500
O 	O 	0.93926 0.14054 0.54112 -0.37500
O 	O 	0.93346 0.80625 0.51457 -0.36400
O 	O 	0.87148 0.75341 0.56693 -0.35300
C 	C 	0.94418 0.95538 0.86717 0.32600
C 	C 	0.94501 0.96116 0.90180 -0.01000
F 	F 	0.86349 0.89856 0.84570 -0.41800
H 	H 	0.88283 0.91537 0.91270 0.09200
F 	F 	0.92891 0.81675 0.78126 -0.42500
H 	H 	0.95280 0.85439 0.84259 0.14900
C 	C 	0.95729 0.96965 0.36500 -0.06400
C 	C 	0.95907 0.97942 0.39862 0.37600
F 	F 	0.87961 0.93079 0.40972 -0.41900
H 	H 	0.89196 0.92633 0.34735 0.12100
F 	F 	0.94748 0.83831 0.35327 -0.41000
H 	H 	0.93756 0.81926 0.28934 0.10600
C 	C 	0.48058 0.74346 0.63272 0.00100
C 	C 	0.55277 0.79161 0.66175 -0.01500
C 	C 	0.64420 0.84696 0.65835 0.02300
C 	C 	0.66461 0.84715 0.62853 -0.06000
C 	C 	0.59271 0.79660 0.60044 0.02300
C 	C 	0.50083 0.75014 0.60073 -0.01600
C 	C 	0.53345 0.78223 0.69580 0.11900
C 	C 	0.61323 0.79254 0.57119 0.10600
C 	C 	0.42739 0.71242 0.56731 0.11400
C 	C 	0.71690 0.90419 0.68531 0.10100
N 	N 	0.36885 0.68237 0.54065 -0.09100
N 	N 	0.77415 0.94969 0.70693 -0.08300
N 	N 	0.62960 0.78931 0.54787 -0.09100
N 	N 	0.51806 0.77477 0.72296 -0.08500
C 	C 	0.48271 0.70107 0.15964 -0.00100
C 	C 	0.49415 0.74295 0.11984 -0.01700
C 	C 	0.57589 0.78026 0.11170 0.02200
C 	C 	0.65123 0.78747 0.14356 -0.06500
C 	C 	0.63956 0.74378 0.18329 0.01600
C 	C 	0.55570 0.70179 0.19141 -0.01700
C 	C 	0.42101 0.74636 0.08723 0.11600
C 	C 	0.71187 0.73830 0.21536 0.10100
C 	C 	0.54445 0.65941 0.23237 0.11100
C 	C 	0.57986 0.80387 0.07084 0.10500
N 	N 	0.53543 0.62558 0.26505 -0.08900
N 	N 	0.58274 0.82196 0.03825 -0.08300
N 	N 	0.76924 0.73333 0.24100 -0.09500
N 	N 	0.36259 0.74894 0.06122 -0.09300
C 	C 	0.78209 0.26776 0.52792 0.00300
C 	C 	0.85696 0.32298 0.50937 -0.02600
C 	C 	0.89519 0.28827 0.50881 0.02500
C 	C 	0.85753 0.19922 0.52572 -0.08100
C 	C 	0.76953 0.14401 0.53229 0.03100
C 	C 	0.73933 0.17657 0.54017 -0.03100
C 	C 	0.89095 0.41286 0.48902 0.11200
C 	C 	0.70955 0.05475 0.52996 0.03900
C 	C 	0.67349 0.11804 0.56504 0.10000
C 	C 	0.96516 0.34133 0.48684 0.08100
N 	N 	0.62097 0.07106 0.58494 -0.11300
N 	N 	0.66113 0.98343 0.52776 -0.05300
N 	N 	0.91823 0.48466 0.47272 -0.09300
C 	C 	0.83256 0.65060 0.53775 -0.06400
C 	C 	0.83675 0.58968 0.57410 0.01400
C 	C 	0.83377 0.52267 0.57423 -0.02100
C 	C 	0.80877 0.50560 0.53771 -0.00300
C 	C 	0.80265 0.56520 0.50131 -0.02000
C 	C 	0.80902 0.63435 0.50111 0.01600
C 	C 	0.83323 0.58965 0.61019 0.09600
C 	C 	0.78589 0.55314 0.46382 0.11500
C 	C 	0.78738 0.68640 0.46324 0.11400
C 	C 	0.85355 0.46933 0.61197 0.10300
N 	N 	0.77006 0.72785 0.43299 -0.06300
N 	N 	0.86935 0.42668 0.64209 -0.09900
N 	N 	0.77247 0.54344 0.43391 -0.08600
C 	C 	0.52135 0.21423 0.54332 -0.00100
C 	C 	0.44708 0.15876 0.51745 -0.02600
C 	C 	0.41575 0.15779 0.58050 0.01700
C 	C 	0.50602 0.21032 0.57617 -0.02200
C 	C 	0.46009 0.16694 0.48174 0.11400
C 	C 	0.39959 0.16064 0.61181 0.09800
C 	C 	0.58314 0.25676 0.60657 0.10600
N 	N 	0.64444 0.29364 0.63089 -0.09900
N 	N 	0.38681 0.16298 0.63680 -0.10300
N 	N 	0.47043 0.17343 0.45327 -0.09100
C 	C 	0.85164 0.18569 0.02668 -0.06500
C 	C 	0.75700 0.14641 0.01161 0.00600
C 	C 	0.71988 0.18615 0.00772 -0.02800
C 	C 	0.77855 0.26473 0.02011 0.00100
C 	C 	0.87528 0.31198 0.02679 -0.01900
C 	C 	0.91006 0.27398 0.02670 0.00500
C 	C 	0.69852 0.06706 0.99886 0.09600
C 	C 	0.93881 0.39824 0.03378 0.10300
C 	C 	0.62358 0.14921 0.98878 0.11400
N 	N 	0.54646 0.11865 0.97360 -0.10200
N 	N 	0.98998 0.46719 0.03936 -0.10400
N 	N 	0.65173 0.00396 0.98835 -0.10300
C 	C 	0.80191 0.49044 0.03932 -0.00000
C 	C 	0.82557 0.50632 0.07598 -0.02100
C 	C 	0.83051 0.57423 0.07595 0.01500
C 	C 	0.83185 0.63792 0.04007 -0.06700
C 	C 	0.80914 0.62287 0.00320 0.01100
C 	C 	0.79823 0.55138 0.00305 -0.02700
C 	C 	0.84021 0.44987 0.11376 0.10600
C 	C 	0.79161 0.67781 0.96547 0.11000
C 	C 	0.78039 0.53905 0.96542 0.11900
C 	C 	0.82229 0.57205 0.11135 0.09600
N 	N 	0.76614 0.52914 0.93541 -0.09000
N 	N 	0.81490 0.57013 0.13944 -0.09400
N 	N 	0.77758 0.72158 0.93534 -0.08200
N 	N 	0.85179 0.40489 0.14400 -0.09500
C 	C 	0.45170 0.16284 0.01937 -0.02200
C 	C 	0.52462 0.19424 0.05251 -0.00500
C 	C 	0.50548 0.18201 0.08643 -0.01800
C 	C 	0.41468 0.14207 0.08598 0.01100
C 	C 	0.57890 0.21038 0.12162 0.10200
C 	C 	0.39746 0.14569 0.11660 0.10100
C 	C 	0.46926 0.19897 0.97992 0.12500
N 	N 	0.38377 0.14863 0.14105 -0.10000
N 	N 	0.48304 0.22837 0.94832 -0.09000
N 	N 	0.63744 0.23296 0.14973 -0.09700
