data_crystal

_cell_length_a 26.37690
_cell_length_b 26.29367
_cell_length_c 34.74193
_cell_angle_alpha 95.50837
_cell_angle_beta  95.50492
_cell_angle_gamma 125.84054

_symmetry_space_group_name_	'P 1'
_symmetry_space_group_name_H-M	'P 1'

loop_
_symmetry_equiv_pos_as_xyz
  x,y,z

loop_
_atom_site_label
_atom_site_type_symbol
_atom_site_fract_x
_atom_site_fract_y
_atom_site_fract_z
_atom_site_charge
C 	C 	0.93881 0.99429 0.98667 0.03300
C 	C 	0.00204 0.02593 0.98136 -0.07400
C 	C 	0.02858 0.99275 0.97877 0.02700
C 	C 	0.99261 0.92870 0.98324 -0.07700
C 	C 	0.92906 0.89665 0.98755 0.04100
C 	C 	0.90238 0.92959 0.98964 -0.08400
H 	H 	0.03015 0.07585 0.97879 0.04600
H 	H 	0.01349 0.90339 0.98229 0.04600
H 	H 	0.85319 0.90476 0.99306 0.04900
C 	C 	0.97111 0.03938 0.47071 0.05900
C 	C 	0.03757 0.08184 0.47584 -0.10100
C 	C 	0.07372 0.05874 0.47696 0.05800
C 	C 	0.04374 0.99334 0.47464 -0.10500
C 	C 	0.97715 0.95034 0.46848 0.05500
C 	C 	0.94073 0.97343 0.46654 -0.10300
H 	H 	0.06097 0.13265 0.47812 0.05500
H 	H 	0.07201 0.97571 0.47635 0.05300
H 	H 	0.88921 0.94038 0.46187 0.05200
Cu	Cu	0.60552 0.20199 0.99994 0.92800
Cu	Cu	0.66867 0.22013 0.92062 0.86600
Cu	Cu	0.63258 0.30061 0.94941 0.89400
Cu	Cu	0.59642 0.31425 0.02622 0.89700
C 	C 	0.61858 0.24744 0.08118 0.29100
O 	O 	0.51115 0.16019 0.99628 -0.36200
C 	C 	0.62874 0.27102 0.86537 0.28600
O 	O 	0.65138 0.30078 0.00425 -0.63800
O 	O 	0.59979 0.20957 0.94389 -0.64300
O 	O 	0.64769 0.15913 0.99901 -0.37000
O 	O 	0.72151 0.23070 0.96639 -0.44400
O 	O 	0.58384 0.26616 0.06974 -0.37800
O 	O 	0.67094 0.39093 0.95617 -0.38100
C 	C 	0.67340 0.42590 0.98732 0.29600
C 	C 	0.48446 0.18428 0.97980 0.28800
O 	O 	0.51953 0.24523 0.97780 -0.39900
O 	O 	0.63380 0.39967 0.01207 -0.38800
O 	O 	0.62464 0.21127 0.05598 -0.35300
C 	C 	0.70107 0.18377 0.98580 0.29800
O 	O 	0.61393 0.29601 0.89288 -0.37600
O 	O 	0.63546 0.22611 0.87098 -0.41300
H 	H 	0.69702 0.33111 0.01662 0.16400
H 	H 	0.55719 0.17935 0.92686 0.17500
Cu	Cu	0.74859 0.35952 0.45691 0.92400
Cu	Cu	0.76806 0.33115 0.54454 0.87800
Cu	Cu	0.66573 0.35722 0.51286 0.91100
Cu	Cu	0.64514 0.38185 0.43282 0.89600
C 	C 	0.69453 0.33740 0.37541 0.29300
O 	O 	0.79990 0.45364 0.45235 -0.35900
C 	C 	0.68616 0.33877 0.58914 0.29300
O 	O 	0.65451 0.32689 0.45803 -0.63900
O 	O 	0.75336 0.38163 0.51402 -0.63200
O 	O 	0.77135 0.29882 0.45763 -0.37400
O 	O 	0.83217 0.33996 0.51912 -0.42500
O 	O 	0.68104 0.37733 0.38560 -0.37800
O 	O 	0.57892 0.32702 0.51080 -0.37400
C 	C 	0.54303 0.32457 0.48040 0.29800
C 	C 	0.78256 0.48909 0.46539 0.29000
O 	O 	0.72614 0.46154 0.47473 -0.40200
O 	O 	0.56813 0.36040 0.45362 -0.39500
O 	O 	0.72704 0.32803 0.40128 -0.35600
C 	C 	0.81647 0.30708 0.48362 0.29600
O 	O 	0.67754 0.37402 0.56946 -0.37700
O 	O 	0.69586 0.29990 0.57074 -0.42200
H 	H 	0.61984 0.28074 0.44887 0.16300
H 	H 	0.78628 0.42767 0.52481 0.15900
C 	C 	0.67162 0.36092 0.78053 -0.04000
C 	C 	0.64016 0.30966 0.74817 0.01900
C 	C 	0.59746 0.24645 0.75409 -0.04100
C 	C 	0.58854 0.23449 0.79246 0.02000
C 	C 	0.62631 0.28504 0.82520 -0.07900
C 	C 	0.66608 0.34865 0.81913 0.01600
C 	C 	0.65421 0.32200 0.70804 0.02100
C 	C 	0.56372 0.19373 0.72077 0.09300
C 	C 	0.70272 0.40124 0.85254 0.07300
C 	C 	0.70993 0.33311 0.69778 -0.04200
C 	C 	0.72207 0.34243 0.65947 0.02000
C 	C 	0.67632 0.33600 0.63045 -0.08600
C 	C 	0.62029 0.32455 0.64077 0.02400
C 	C 	0.61081 0.32044 0.67995 -0.04200
C 	C 	0.75438 0.33425 0.72657 0.09200
C 	C 	0.57103 0.31393 0.61089 0.08100
C 	C 	0.78219 0.35991 0.65011 0.05200
C 	C 	0.55618 0.31414 0.69135 0.09500
C 	C 	0.71029 0.42617 0.77407 0.09300
C 	C 	0.53930 0.17069 0.79822 0.07800
N 	N 	0.83014 0.37386 0.64265 -0.13800
N 	N 	0.78980 0.33516 0.74958 -0.12100
N 	N 	0.53146 0.30533 0.58723 -0.10700
N 	N 	0.51260 0.30910 0.70049 -0.11800
N 	N 	0.53682 0.15171 0.69415 -0.11800
N 	N 	0.49999 0.11979 0.80282 -0.11800
N 	N 	0.73198 0.44326 0.87916 -0.11300
N 	N 	0.74115 0.47822 0.76886 -0.11800
C 	C 	0.61732 0.26810 0.26757 -0.04000
C 	C 	0.66956 0.28199 0.25053 0.02100
C 	C 	0.72832 0.30769 0.27490 -0.04000
C 	C 	0.73701 0.32620 0.31585 0.02200
C 	C 	0.68505 0.31375 0.33292 -0.07700
C 	C 	0.62454 0.28191 0.30880 0.01800
C 	C 	0.66390 0.27383 0.20681 0.02100
C 	C 	0.78005 0.31587 0.25768 0.09500
C 	C 	0.56961 0.26273 0.32648 0.06500
C 	C 	0.68731 0.32712 0.18838 -0.04000
C 	C 	0.67736 0.31872 0.14700 0.01800
C 	C 	0.64009 0.25664 0.12391 -0.07900
C 	C 	0.61873 0.20347 0.14234 0.02200
C 	C 	0.63262 0.21250 0.18374 -0.04000
C 	C 	0.72048 0.39040 0.21204 0.09400
C 	C 	0.58045 0.13943 0.11896 0.08800
C 	C 	0.70567 0.37394 0.12806 0.06000
C 	C 	0.61410 0.15871 0.20267 0.09600
C 	C 	0.55651 0.24068 0.24260 0.09400
C 	C 	0.79990 0.36061 0.34003 0.08900
N 	N 	0.72822 0.41792 0.11291 -0.12700
N 	N 	0.74693 0.44085 0.23096 -0.11700
N 	N 	0.54990 0.08832 0.10031 -0.10900
N 	N 	0.59934 0.11582 0.21782 -0.11600
N 	N 	0.82129 0.32239 0.24390 -0.11700
N 	N 	0.85008 0.38807 0.35929 -0.11100
N 	N 	0.52583 0.24745 0.34061 -0.12500
N 	N 	0.50803 0.21879 0.22263 -0.11700
C 	C 	0.90641 0.66835 0.48085 -0.09500
C 	C 	0.87273 0.68486 0.45839 0.01000
C 	C 	0.81277 0.63641 0.43465 0.02100
C 	C 	0.78635 0.57218 0.43494 -0.01000
C 	C 	0.81782 0.55566 0.45957 -0.11000
C 	C 	0.87910 0.60392 0.48194 0.09900
C 	C 	0.89921 0.75299 0.46120 -0.01200
C 	C 	0.77624 0.65302 0.40967 -0.17000
H 	H 	0.73992 0.53485 0.41712 0.02500
C 	C 	0.91443 0.58719 0.50795 -0.20400
H 	H 	0.95297 0.70574 0.49847 0.05200
C 	C 	0.89184 0.78500 0.49268 0.04200
C 	C 	0.91614 0.84918 0.49414 -0.06000
C 	C 	0.94570 0.88101 0.46399 -0.03500
C 	C 	0.94950 0.84768 0.43130 0.05500
C 	C 	0.92862 0.78477 0.43102 -0.07300
C 	C 	0.85892 0.75121 0.52496 -0.18100
H 	H 	0.91285 0.87470 0.51902 0.04100
C 	C 	0.97716 0.87934 0.39716 -0.18300
H 	H 	0.93374 0.75989 0.40677 0.04800
H 	H 	0.96223 0.63035 0.52298 0.06700
H 	H 	0.92118 0.55501 0.49001 0.07800
H 	H 	0.88704 0.56295 0.53091 0.06400
H 	H 	0.80307 0.67844 0.38684 0.06500
H 	H 	0.76880 0.68400 0.42836 0.06200
H 	H 	0.72867 0.60971 0.39447 0.06000
H 	H 	0.85273 0.78122 0.54573 0.06100
H 	H 	0.88753 0.73953 0.54194 0.06600
H 	H 	0.81089 0.70645 0.51213 0.06500
H 	H 	0.02994 0.90990 0.40466 0.06000
H 	H 	0.96158 0.90899 0.38988 0.06400
H 	H 	0.96117 0.84327 0.37029 0.06200
C 	C 	0.89457 0.11661 0.50292 -0.07400
C 	C 	0.88752 0.13752 0.46857 -0.01300
C 	C 	0.90028 0.11890 0.43350 0.04400
C 	C 	0.92323 0.08239 0.43394 -0.06000
C 	C 	0.93357 0.06440 0.46884 -0.03600
C 	C 	0.91705 0.07967 0.50327 0.05700
C 	C 	0.86880 0.18077 0.46996 0.01000
C 	C 	0.89249 0.14048 0.39614 -0.18300
H 	H 	0.93570 0.07028 0.40752 0.04200
C 	C 	0.92612 0.05924 0.54084 -0.18800
H 	H 	0.88368 0.13017 0.52960 0.04600
C 	C 	0.80402 0.15606 0.46462 0.02100
C 	C 	0.78774 0.19819 0.46811 -0.01300
C 	C 	0.83518 0.26452 0.47677 -0.11500
C 	C 	0.89992 0.28927 0.48067 0.10400
C 	C 	0.91625 0.24707 0.47778 -0.09700
C 	C 	0.75231 0.08492 0.45653 -0.17100
H 	H 	0.73807 0.17936 0.46504 0.03100
C 	C 	0.95167 0.36036 0.48858 -0.20700
H 	H 	0.96594 0.26577 0.48173 0.05300
H 	H 	0.90615 0.07033 0.56414 0.06400
H 	H 	0.97769 0.08443 0.55196 0.06800
H 	H 	0.90154 0.00687 0.53538 0.06700
H 	H 	0.92879 0.19292 0.39960 0.06900
H 	H 	0.84425 0.12850 0.38944 0.06900
H 	H 	0.89831 0.11684 0.37051 0.06400
H 	H 	0.70415 0.07327 0.45004 0.06100
H 	H 	0.75494 0.06470 0.48262 0.06300
H 	H 	0.75794 0.06158 0.43066 0.06400
H 	H 	0.95704 0.38105 0.51941 0.07800
H 	H 	0.93979 0.38344 0.46813 0.07800
H 	H 	0.99821 0.37165 0.48425 0.06900
C 	C 	0.23237 0.15575 0.44402 -0.07400
C 	C 	0.27460 0.18159 0.48018 -0.01300
C 	C 	0.25086 0.16981 0.51558 0.04500
C 	C 	0.18485 0.13012 0.51408 -0.06000
C 	C 	0.14265 0.10254 0.47782 -0.03600
C 	C 	0.16642 0.11588 0.44250 0.05600
C 	C 	0.34355 0.21816 0.48054 0.01100
C 	C 	0.29571 0.19865 0.55483 -0.18400
H 	H 	0.16624 0.12011 0.54110 0.04300
C 	C 	0.12162 0.08689 0.40320 -0.18700
H 	H 	0.25098 0.16550 0.41699 0.04700
C 	C 	0.37174 0.18652 0.47587 0.02400
C 	C 	0.43705 0.22222 0.47542 -0.01000
C 	C 	0.47449 0.28886 0.47987 -0.10800
C 	C 	0.44659 0.32070 0.48547 0.10700
C 	C 	0.38091 0.28482 0.48495 -0.09700
C 	C 	0.33218 0.11474 0.47084 -0.17100
H 	H 	0.45889 0.19813 0.47157 0.03100
C 	C 	0.48641 0.39260 0.49187 -0.20600
H 	H 	0.35889 0.30877 0.48840 0.05300
H 	H 	0.09210 0.03397 0.39869 0.06500
H 	H 	0.14776 0.10221 0.37842 0.06300
H 	H 	0.09001 0.10186 0.40213 0.06600
H 	H 	0.32732 0.25155 0.55859 0.07100
H 	H 	0.32525 0.18127 0.55649 0.07200
H 	H 	0.26961 0.18574 0.57973 0.06600
H 	H 	0.36196 0.09769 0.46973 0.06300
H 	H 	0.29664 0.09227 0.44298 0.06500
H 	H 	0.30702 0.09857 0.49594 0.06500
H 	H 	0.50184 0.40896 0.46409 0.07800
H 	H 	0.52895 0.41438 0.51533 0.08100
H 	H 	0.45929 0.41020 0.50121 0.06900
C 	C 	0.82085 0.71684 0.95433 -0.07200
C 	C 	0.81794 0.69667 0.99049 -0.01500
C 	C 	0.85081 0.74226 0.02588 0.04600
C 	C 	0.88663 0.80759 0.02445 -0.06000
C 	C 	0.88960 0.82773 0.98827 -0.03200
C 	C 	0.85606 0.78211 0.95293 0.05400
C 	C 	0.78080 0.62753 0.99098 0.01100
C 	C 	0.84861 0.72148 0.06506 -0.18300
H 	H 	0.91252 0.84286 0.05147 0.04300
C 	C 	0.85832 0.80290 0.91374 -0.18500
H 	H 	0.79553 0.68159 0.92727 0.04900
C 	C 	0.71461 0.59028 0.99038 0.02300
C 	C 	0.68020 0.52438 0.98948 -0.01000
C 	C 	0.71111 0.49548 0.98962 -0.10500
C 	C 	0.77767 0.53315 0.99144 0.10300
C 	C 	0.81178 0.59875 0.99133 -0.09400
C 	C 	0.68039 0.62035 0.98980 -0.17400
H 	H 	0.62914 0.49536 0.98817 0.03900
C 	C 	0.81241 0.50363 0.99318 -0.21000
H 	H 	0.86261 0.62761 0.99176 0.05300
H 	H 	0.84168 0.83313 0.91362 0.06400
H 	H 	0.82741 0.76142 0.88907 0.06400
H 	H 	0.90783 0.83062 0.90828 0.06400
H 	H 	0.87176 0.69734 0.06664 0.06800
H 	H 	0.79844 0.68796 0.06876 0.06700
H 	H 	0.87372 0.76269 0.09003 0.06300
H 	H 	0.62966 0.58572 0.99215 0.06100
H 	H 	0.68195 0.63800 0.96184 0.06500
H 	H 	0.70331 0.66092 0.01499 0.06500
H 	H 	0.80110 0.47420 0.96407 0.07700
H 	H 	0.79824 0.47315 0.01592 0.06800
H 	H 	0.86484 0.54068 0.00096 0.07100
C 	C 	0.74357 0.06841 0.98657 -0.09600
C 	C 	0.81018 0.11106 0.99533 0.00800
C 	C 	0.84085 0.17751 0.00311 0.02100
C 	C 	0.80416 0.20028 0.00186 -0.01000
C 	C 	0.73744 0.15774 0.99173 -0.11900
C 	C 	0.70682 0.09102 0.98368 0.09600
C 	C 	0.84747 0.08558 0.99406 -0.01700
C 	C 	0.91255 0.22424 0.01110 -0.16800
H 	H 	0.82762 0.25131 0.00786 0.03700
C 	C 	0.63540 0.04378 0.97128 -0.19600
H 	H 	0.72036 0.01741 0.98088 0.05200
C 	C 	0.86542 0.07008 0.02803 0.04900
C 	C 	0.89758 0.04257 0.02539 -0.06300
C 	C 	0.91042 0.02880 0.98916 -0.02400
C 	C 	0.89187 0.04376 0.95510 0.04900
C 	C 	0.86172 0.07331 0.95804 -0.07000
C 	C 	0.84798 0.08021 0.06665 -0.18500
H 	H 	0.91131 0.03041 0.05137 0.04600
C 	C 	0.90371 0.02798 0.91560 -0.17700
H 	H 	0.84793 0.08547 0.93209 0.04400
H 	H 	0.62030 0.99472 0.96085 0.06100
H 	H 	0.61812 0.05710 0.94664 0.06000
H 	H 	0.61231 0.04241 0.99665 0.08500
H 	H 	0.93095 0.21976 0.98454 0.06100
H 	H 	0.93317 0.21457 0.03616 0.06300
H 	H 	0.92919 0.27438 0.01871 0.06000
H 	H 	0.86853 0.06903 0.09086 0.06500
H 	H 	0.79539 0.04872 0.06387 0.07100
H 	H 	0.86624 0.13074 0.07507 0.06900
H 	H 	0.87961 0.03561 0.89133 0.06100
H 	H 	0.88512 0.97708 0.90936 0.06000
H 	H 	0.95557 0.05895 0.91545 0.06400
C 	C 	0.32038 0.13395 0.93825 -0.09700
C 	C 	0.28466 0.09305 0.96344 0.01000
C 	C 	0.31160 0.07197 0.98833 0.02100
C 	C 	0.37686 0.10028 0.99234 -0.01900
C 	C 	0.41418 0.14557 0.96951 -0.10900
C 	C 	0.38421 0.15786 0.93971 0.09900
C 	C 	0.21982 0.07406 0.96451 -0.01300
C 	C 	0.27151 0.02075 0.01138 -0.16100
H 	H 	0.39888 0.08842 0.01402 0.05100
C 	C 	0.41961 0.19614 0.90951 -0.20300
H 	H 	0.29861 0.14744 0.91765 0.05300
C 	C 	0.20843 0.10275 0.99561 0.04500
C 	C 	0.14551 0.07628 0.99968 -0.06800
C 	C 	0.09423 0.02507 0.97137 -0.02200
C 	C 	0.10623 0.00263 0.93731 0.05500
C 	C 	0.16887 0.02556 0.93496 -0.07200
C 	C 	0.26300 0.16061 0.02482 -0.18100
H 	H 	0.13642 0.09495 0.02514 0.04700
C 	C 	0.05255 0.95303 0.90404 -0.18800
H 	H 	0.17793 0.00523 0.91033 0.04800
H 	H 	0.44575 0.24786 0.92123 0.07900
H 	H 	0.38610 0.18300 0.88194 0.07200
H 	H 	0.45364 0.18677 0.90162 0.07500
H 	H 	0.22553 0.98072 0.99235 0.05800
H 	H 	0.26201 0.04085 0.03680 0.06300
H 	H 	0.29583 0.00064 0.02270 0.06400
H 	H 	0.24670 0.18450 0.04212 0.06300
H 	H 	0.29951 0.19613 0.00930 0.06800
H 	H 	0.28513 0.14632 0.04559 0.06700
H 	H 	0.07007 0.95578 0.87591 0.06100
H 	H 	0.01522 0.96047 0.89954 0.06300
H 	H 	0.03124 0.90461 0.91061 0.06200
