data_crystal

_cell_length_a 19.37292
_cell_length_b 19.80913
_cell_length_c 52.78872
_cell_angle_alpha 90.57323
_cell_angle_beta  90.96576
_cell_angle_gamma 110.40123

_symmetry_space_group_name_	'P 1'
_symmetry_space_group_name_H-M	'P 1'

loop_
_symmetry_equiv_pos_as_xyz
  x,y,z

loop_
_atom_site_label
_atom_site_type_symbol
_atom_site_fract_x
_atom_site_fract_y
_atom_site_fract_z
_atom_site_charge
Ni	Ni	0.64191 0.29385 0.89909 1.09900
O 	O 	0.66082 0.35332 0.86693 -0.70100
Ni	Ni	0.76498 0.36011 0.85933 1.10000
O 	O 	0.55383 0.32169 0.90944 -0.37900
O 	O 	0.61951 0.44170 0.90696 -0.41800
O 	O 	0.56685 0.20643 0.88045 -0.37200
Ni	Ni	0.65290 0.44901 0.86941 1.06800
O 	O 	0.64724 0.13995 0.90617 -0.40500
O 	O 	0.75654 0.50975 0.88204 -0.39800
O 	O 	0.79292 0.43796 0.83175 -0.36800
O 	O 	0.73867 0.28908 0.88858 -0.70500
O 	O 	0.63008 0.23081 0.92989 -0.38300
O 	O 	0.85991 0.33867 0.85262 -0.36100
O 	O 	0.79537 0.21779 0.84896 -0.40900
Ni	Ni	0.72234 0.18949 0.87889 1.06500
H 	H 	0.62797 0.32654 0.85287 0.15400
H 	H 	0.77493 0.30452 0.90283 0.15300
C 	C 	0.79657 0.48275 0.89597 0.30200
O 	O 	0.64225 0.18085 0.85223 -0.41000
C 	C 	0.56172 0.38877 0.91491 0.27500
C 	C 	0.75856 0.48460 0.82819 0.31200
C 	C 	0.57747 0.18235 0.85816 0.30300
C 	C 	0.85869 0.27199 0.84967 0.27900
C 	C 	0.64078 0.16863 0.92851 0.29400
O 	O 	0.82188 0.43503 0.88626 -0.38200
O 	O 	0.68835 0.46808 0.83347 -0.41800
Ni	Ni	0.82749 0.35154 0.66636 1.10100
O 	O 	0.74454 0.28545 0.64333 -0.70200
Ni	Ni	0.68905 0.35080 0.63454 1.10000
O 	O 	0.86918 0.27049 0.67238 -0.36300
O 	O 	0.75730 0.19463 0.68534 -0.40800
O 	O 	0.88621 0.37708 0.63372 -0.38500
Ni	Ni	0.67703 0.20214 0.65988 1.06500
O 	O 	0.86309 0.51198 0.68879 -0.42100
O 	O 	0.65167 0.26402 0.68673 -0.41700
O 	O 	0.61785 0.28383 0.60912 -0.38000
O 	O 	0.76148 0.40995 0.66146 -0.70200
O 	O 	0.91485 0.42341 0.68698 -0.36700
O 	O 	0.65839 0.43472 0.62272 -0.38000
O 	O 	0.77741 0.50672 0.61692 -0.42200
Ni	Ni	0.82017 0.50903 0.65352 1.07100
H 	H 	0.76356 0.27039 0.62778 0.15300
H 	H 	0.73572 0.41013 0.67747 0.16200
C 	C 	0.60393 0.29542 0.68187 0.30800
O 	O 	0.91218 0.49759 0.63865 -0.39900
C 	C 	0.82587 0.20575 0.67906 0.28400
C 	C 	0.58684 0.21485 0.61409 0.29400
C 	C 	0.90921 0.44212 0.62435 0.29100
C 	C 	0.70657 0.49103 0.61232 0.29300
C 	C 	0.91855 0.48965 0.69334 0.32000
O 	O 	0.60373 0.32582 0.65986 -0.36800
O 	O 	0.58521 0.19169 0.63770 -0.40800
Ni	Ni	0.15120 0.05643 0.76187 1.10200
O 	O 	0.06857 0.97054 0.77676 -0.69200
Ni	Ni	0.05224 0.89724 0.74896 1.10400
O 	O 	0.12870 0.13167 0.78457 -0.36700
O 	O 	0.00776 0.08076 0.77269 -0.41100
O 	O 	0.22103 0.04222 0.78909 -0.38400
Ni	Ni	0.97314 0.97584 0.78552 1.06700
O 	O 	0.28246 0.05981 0.72189 -0.41300
O 	O 	0.91280 0.94026 0.75282 -0.39800
O 	O 	0.95657 0.82071 0.76056 -0.37900
O 	O 	0.14195 0.97749 0.73692 -0.70500
O 	O 	0.23987 0.13471 0.74643 -0.37000
O 	O 	0.06672 0.82892 0.72228 -0.37800
O 	O 	0.18232 0.84453 0.73771 -0.40600
Ni	Ni	0.23163 0.95635 0.73323 1.07100
H 	H 	0.08818 0.95258 0.79167 0.15400
H 	H 	0.13053 0.99375 0.72021 0.16300
C 	C 	0.94211 0.95848 0.73072 0.31900
O 	O 	0.27414 0.97080 0.76942 -0.40300
C 	C 	0.06053 0.13157 0.78493 0.29200
C 	C 	0.93482 0.81511 0.78430 0.29800
C 	C 	0.27995 0.02728 0.78365 0.30600
C 	C 	0.12184 0.80536 0.72501 0.28200
C 	C 	0.29464 0.12014 0.73533 0.29300
O 	O 	0.99498 0.93642 0.72343 -0.39100
O 	O 	0.93859 0.87258 0.79830 -0.41200
Ni	Ni	0.32730 0.74034 0.39858 1.09800
O 	O 	0.30432 0.66321 0.37066 -0.70300
Ni	Ni	0.19984 0.65302 0.36065 1.09900
O 	O 	0.41439 0.71717 0.41386 -0.38000
O 	O 	0.34455 0.59875 0.41761 -0.41800
O 	O 	0.40291 0.81579 0.37675 -0.37100
Ni	Ni	0.30899 0.56971 0.38034 1.06800
O 	O 	0.31982 0.89486 0.39571 -0.40600
O 	O 	0.20579 0.51875 0.39395 -0.39700
O 	O 	0.16820 0.56050 0.33833 -0.36700
O 	O 	0.23000 0.73998 0.38506 -0.70300
O 	O 	0.34249 0.81949 0.42488 -0.37900
O 	O 	0.10482 0.67037 0.34977 -0.35600
O 	O 	0.17008 0.78676 0.33981 -0.40700
Ni	Ni	0.24578 0.83226 0.36911 1.06600
H 	H 	0.33639 0.68112 0.35599 0.15600
H 	H 	0.19506 0.73323 0.39910 0.15300
C 	C 	0.16794 0.55438 0.40443 0.30400
O 	O 	0.32481 0.82550 0.34531 -0.41200
C 	C 	0.40477 0.65356 0.42330 0.27600
C 	C 	0.20176 0.51244 0.33847 0.31200
C 	C 	0.39107 0.83181 0.35336 0.30400
C 	C 	0.10653 0.73494 0.34324 0.27600
C 	C 	0.32340 0.87555 0.41957 0.27900
O 	O 	0.14372 0.59646 0.39071 -0.38100
O 	O 	0.27178 0.53052 0.34527 -0.41900
Ni	Ni	0.12345 0.64971 0.16091 1.09800
O 	O 	0.20734 0.71537 0.13992 -0.70500
Ni	Ni	0.26140 0.64866 0.13110 1.09900
O 	O 	0.08374 0.73139 0.16859 -0.36200
O 	O 	0.19545 0.80362 0.18434 -0.41000
O 	O 	0.05820 0.62681 0.12832 -0.36300
Ni	Ni	0.27468 0.79634 0.15951 1.06500
O 	O 	0.01556 0.50012 0.14763 -0.41000
O 	O 	0.29538 0.72937 0.18515 -0.42100
O 	O 	0.33722 0.71906 0.10892 -0.37800
O 	O 	0.18156 0.58374 0.15423 -0.69300
O 	O 	0.04007 0.57901 0.18093 -0.37900
O 	O 	0.29585 0.56928 0.11726 -0.36900
O 	O 	0.19616 0.46705 0.11968 -0.40200
Ni	Ni	0.11414 0.49823 0.13559 1.06900
H 	H 	0.18972 0.73276 0.12445 0.15200
H 	H 	0.20161 0.57085 0.17010 0.16300
C 	C 	0.34462 0.70009 0.18060 0.31400
O 	O 	0.11198 0.56026 0.10541 -0.42200
C 	C 	0.12765 0.79468 0.17712 0.28900
C 	C 	0.36755 0.78760 0.11552 0.28000
C 	C 	0.07972 0.60874 0.10643 0.26800
C 	C 	0.24971 0.51088 0.10652 0.30800
C 	C 	0.00506 0.51458 0.17123 0.32300
O 	O 	0.34242 0.66588 0.15898 -0.36600
O 	O 	0.36792 0.80827 0.13950 -0.40800
Ni	Ni	0.80944 0.95134 0.25975 1.10300
O 	O 	0.89465 0.03374 0.27672 -0.69900
Ni	Ni	0.91407 0.10873 0.25020 1.09800
O 	O 	0.82894 0.87230 0.28088 -0.37000
O 	O 	0.94903 0.92004 0.26995 -0.42200
O 	O 	0.74224 0.96616 0.28708 -0.38400
Ni	Ni	0.98827 0.02282 0.28586 1.06500
O 	O 	0.67471 0.95543 0.22042 -0.41200
O 	O 	0.04945 0.05977 0.25445 -0.39400
O 	O 	0.01195 0.18050 0.26396 -0.36800
O 	O 	0.82132 0.03236 0.23619 -0.70700
O 	O 	0.71886 0.87694 0.24239 -0.37300
O 	O 	0.90524 0.18044 0.22426 -0.38300
O 	O 	0.79014 0.16957 0.23782 -0.40900
Ni	Ni	0.73386 0.05798 0.23281 1.06900
H 	H 	0.87657 0.05207 0.29179 0.15100
H 	H 	0.83100 0.01637 0.21921 0.15900
C 	C 	0.02016 0.04390 0.23177 0.33500
O 	O 	0.69556 0.04524 0.26904 -0.40700
C 	C 	0.89583 0.86921 0.28090 0.29300
C 	C 	0.03237 0.18369 0.28808 0.29900
C 	C 	0.68608 0.98657 0.28206 0.30700
C 	C 	0.85061 0.20499 0.22531 0.28100
C 	C 	0.66333 0.89370 0.23240 0.29400
O 	O 	0.96764 0.06707 0.22455 -0.39900
O 	O 	0.02726 0.12479 0.30092 -0.40400
C 	C 	0.95851 0.45797 0.18656 -0.12900
C 	C 	0.92251 0.40481 0.19770 0.04400
C 	C 	0.88665 0.33749 0.20892 0.02200
C 	C 	0.86423 0.27729 0.21714 -0.09200
C 	C 	0.41234 0.72504 0.19509 -0.09900
C 	C 	0.47017 0.75309 0.20632 0.04100
C 	C 	0.53835 0.79415 0.21786 0.03100
C 	C 	0.59623 0.83611 0.22581 -0.08500
C 	C 	0.09648 0.84659 0.18557 -0.09100
C 	C 	0.07474 0.89214 0.19395 0.03000
C 	C 	0.05337 0.94627 0.20535 0.04700
C 	C 	0.03748 0.99187 0.21656 -0.10800
C 	C 	0.62109 0.95748 0.29695 -0.09500
C 	C 	0.56739 0.93015 0.30960 0.03600
C 	C 	0.50535 0.89614 0.32462 0.03500
C 	C 	0.45299 0.86658 0.33762 -0.09500
C 	C 	0.16472 0.44232 0.32748 -0.09200
C 	C 	0.13440 0.38262 0.31874 0.03900
C 	C 	0.09930 0.31252 0.30862 0.03600
C 	C 	0.06911 0.25311 0.29963 -0.09200
C 	C 	0.91552 0.82055 0.29697 -0.11800
C 	C 	0.94535 0.78773 0.30950 0.04100
C 	C 	0.99277 0.75939 0.32273 -0.00300
C 	C 	0.04138 0.74373 0.33276 -0.06700
C 	C 	0.32565 0.92637 0.44017 -0.09400
C 	C 	0.38375 0.99276 0.44192 0.02300
C 	C 	0.39955 0.03127 0.46492 -0.07000
C 	C 	0.35712 0.00365 0.48623 0.02700
C 	C 	0.29478 0.94094 0.48375 -0.06600
C 	C 	0.27912 0.90243 0.46079 0.01200
C 	C 	0.38370 0.03439 0.51158 -0.00100
C 	C 	0.38883 0.10501 0.51772 -0.03900
C 	C 	0.42234 0.13702 0.54061 -0.03300
C 	C 	0.45110 0.09868 0.55742 -0.00500
C 	C 	0.44305 0.02706 0.55182 -0.03800
C 	C 	0.40936 0.99491 0.52899 -0.03500
C 	C 	0.49683 0.13573 0.57857 0.04300
C 	C 	0.53706 0.16978 0.59540 -0.10700
H 	H 	0.41963 0.01204 0.42602 0.03300
H 	H 	0.44724 0.08028 0.46656 0.04800
H 	H 	0.26081 0.92000 0.49997 0.04600
H 	H 	0.23346 0.85169 0.45949 0.01700
H 	H 	0.36868 0.13569 0.50450 0.03900
H 	H 	0.42827 0.19243 0.54485 0.04300
H 	H 	0.46511 0.99709 0.56473 0.03700
H 	H 	0.40547 0.94024 0.52442 0.04000
C 	C 	0.94405 0.45417 0.59930 -0.08500
C 	C 	0.97176 0.40347 0.58882 -0.00100
C 	C 	0.00030 0.41270 0.56442 -0.05000
C 	C 	0.00145 0.47261 0.55026 0.02700
C 	C 	0.97496 0.52389 0.56084 -0.07300
C 	C 	0.94641 0.51476 0.58523 0.01300
C 	C 	0.02946 0.48120 0.52422 0.02800
C 	C 	0.98229 0.48062 0.50367 -0.08300
C 	C 	0.00942 0.49121 0.47908 0.01100
C 	C 	0.08378 0.50232 0.47487 -0.02600
C 	C 	0.13070 0.50172 0.49531 -0.01900
C 	C 	0.10365 0.49115 0.51991 -0.05300
C 	C 	0.11292 0.51869 0.44984 0.05500
C 	C 	0.13770 0.53394 0.42900 -0.11200
H 	H 	0.97100 0.35682 0.59950 0.04000
H 	H 	0.02081 0.37293 0.55643 0.04600
H 	H 	0.97607 0.57057 0.55010 0.04500
H 	H 	0.92496 0.55410 0.59299 0.03100
H 	H 	0.92482 0.47246 0.50677 0.04700
H 	H 	0.97284 0.49168 0.46338 0.02200
H 	H 	0.18831 0.51044 0.49220 0.03700
H 	H 	0.14050 0.49167 0.53564 0.04500
C 	C 	0.45434 0.64659 0.44378 -0.08700
C 	C 	0.49006 0.70523 0.46017 0.01400
C 	C 	0.53180 0.69657 0.48092 -0.06500
C 	C 	0.53838 0.62940 0.48542 0.02600
C 	C 	0.50477 0.57150 0.46860 -0.06600
C 	C 	0.46299 0.58004 0.44787 0.01300
C 	C 	0.57645 0.61833 0.50853 0.00200
C 	C 	0.63897 0.59841 0.50668 -0.04100
C 	C 	0.66963 0.57919 0.52838 -0.03300
C 	C 	0.63804 0.57985 0.55202 -0.00800
C 	C 	0.57753 0.60265 0.55405 -0.03200
C 	C 	0.54682 0.62191 0.53238 -0.04000
C 	C 	0.66317 0.55067 0.57366 0.04500
C 	C 	0.68333 0.52438 0.59150 -0.10800
H 	H 	0.48387 0.75689 0.45726 0.04100
H 	H 	0.55790 0.74167 0.49376 0.04600
H 	H 	0.50970 0.51946 0.47191 0.04600
H 	H 	0.43657 0.53469 0.43518 0.02000
H 	H 	0.66257 0.59606 0.48838 0.03900
H 	H 	0.71663 0.56186 0.52670 0.03700
H 	H 	0.55296 0.60346 0.57229 0.04000
H 	H 	0.49862 0.63736 0.53399 0.04000
C 	C 	0.92279 0.01025 0.71613 -0.11400
C 	C 	0.90505 0.05548 0.70550 0.04100
C 	C 	0.88159 0.10908 0.69478 0.02500
C 	C 	0.85835 0.15418 0.68694 -0.09200
C 	C 	0.53966 0.27780 0.69714 -0.09800
C 	C 	0.48399 0.25531 0.70908 0.03900
C 	C 	0.41736 0.21896 0.72130 0.03100
C 	C 	0.36029 0.17868 0.72941 -0.08600
C 	C 	0.10666 0.73008 0.72059 -0.08600
C 	C 	0.08052 0.66649 0.71599 0.02600
C 	C 	0.03534 0.59563 0.70939 0.06300
C 	C 	0.98616 0.54173 0.70263 -0.11600
C 	C 	0.05484 0.63183 0.08259 -0.06600
C 	C 	0.98833 0.64536 0.08146 -0.01200
C 	C 	0.95623 0.65052 0.05798 -0.05100
C 	C 	0.99007 0.64157 0.03550 -0.00100
C 	C 	0.06016 0.63567 0.03672 -0.04000
C 	C 	0.09259 0.63127 0.06016 -0.00400
C 	C 	0.94748 0.62593 0.01137 0.01600
C 	C 	0.88132 0.56675 0.00953 -0.04800
C 	C 	0.84813 0.54276 0.98587 -0.02800
C 	C 	0.88085 0.57745 0.96387 -0.01400
C 	C 	0.94452 0.63903 0.96571 -0.02300
C 	C 	0.97758 0.66351 0.98942 -0.06300
C 	C 	0.85243 0.54629 0.93949 0.04700
C 	C 	0.82766 0.51808 0.91942 -0.11300
H 	H 	0.95947 0.64784 0.09864 0.04600
H 	H 	0.90306 0.65719 0.05724 0.04200
H 	H 	0.08746 0.63005 0.01950 0.04200
H 	H 	0.14533 0.62365 0.06084 0.03000
H 	H 	0.85754 0.53730 0.02631 0.04200
H 	H 	0.79844 0.49555 0.98457 0.03500
H 	H 	0.96962 0.66662 0.94877 0.03600
H 	H 	0.02806 0.70983 0.99065 0.05200
C 	C 	0.41620 0.83768 0.09748 -0.08700
C 	C 	0.45703 0.81280 0.08033 0.01700
C 	C 	0.49346 0.85640 0.06052 -0.06600
C 	C 	0.48947 0.92526 0.05766 0.02600
C 	C 	0.45214 0.95172 0.07561 -0.06500
C 	C 	0.41585 0.90816 0.09550 0.00900
C 	C 	0.51830 0.96674 0.03468 0.00000
C 	C 	0.46948 0.97884 0.01687 -0.03600
C 	C 	0.49628 0.01628 0.99473 -0.03600
C 	C 	0.57206 0.04196 0.99022 -0.00400
C 	C 	0.62100 0.02966 0.00791 -0.03800
C 	C 	0.59419 0.99198 0.03007 -0.03700
C 	C 	0.59960 0.08485 0.96821 0.04100
C 	C 	0.62001 0.12209 0.94991 -0.10300
H 	H 	0.45896 0.75900 0.08194 0.04200
H 	H 	0.52263 0.83572 0.04689 0.04700
H 	H 	0.44942 0.00515 0.07372 0.04200
H 	H 	0.38496 0.92814 0.10870 0.01100
H 	H 	0.41077 0.95897 0.02013 0.03900
H 	H 	0.45815 0.02585 0.98120 0.04300
H 	H 	0.67970 0.04969 0.00463 0.03500
H 	H 	0.63230 0.98264 0.04366 0.03800
C 	C 	0.51340 0.40354 0.93385 -0.08600
C 	C 	0.44250 0.35316 0.93748 0.01300
C 	C 	0.39998 0.36244 0.95742 -0.06400
C 	C 	0.42758 0.42241 0.97377 0.02500
C 	C 	0.49700 0.47438 0.96955 -0.06400
C 	C 	0.53978 0.46505 0.94968 0.01000
C 	C 	0.38542 0.42919 0.99599 0.00300
C 	C 	0.35539 0.48407 0.99722 -0.04000
C 	C 	0.32093 0.49442 0.01922 -0.03100
C 	C 	0.31648 0.45009 0.04011 -0.00700
C 	C 	0.34425 0.39370 0.03860 -0.03100
C 	C 	0.37852 0.38314 0.01657 -0.04000
C 	C 	0.29055 0.46737 0.06382 0.04800
C 	C 	0.27077 0.48513 0.08351 -0.10700
H 	H 	0.42088 0.30617 0.92513 0.03900
H 	H 	0.34604 0.32251 0.96039 0.04800
H 	H 	0.51853 0.52106 0.98205 0.04700
H 	H 	0.59423 0.50446 0.94711 0.03500
H 	H 	0.36004 0.51954 0.98135 0.04100
H 	H 	0.29951 0.53811 0.02026 0.03900
H 	H 	0.34104 0.35925 0.05469 0.04100
H 	H 	0.40137 0.34046 0.01573 0.04200
C 	C 	0.92097 0.26009 0.83864 -0.08500
C 	C 	0.96693 0.24228 0.82812 0.00800
C 	C 	0.01176 0.21246 0.81436 0.05100
C 	C 	0.04044 0.17946 0.80145 -0.11200
C 	C 	0.34480 0.05822 0.79937 -0.09500
C 	C 	0.39903 0.08565 0.81256 0.03500
C 	C 	0.46204 0.11889 0.82814 0.03500
C 	C 	0.51519 0.14778 0.84166 -0.09800
C 	C 	0.79790 0.55411 0.81798 -0.09400
C 	C 	0.82983 0.61378 0.81021 0.03700
C 	C 	0.86641 0.68434 0.80154 0.03300
C 	C 	0.89748 0.74444 0.79399 -0.09400
