data_crystal

_cell_length_a 25.62307
_cell_length_b 25.91666
_cell_length_c 26.51770
_cell_angle_alpha 95.50882
_cell_angle_beta  95.50881
_cell_angle_gamma 125.81630

_symmetry_space_group_name_	'P 1'
_symmetry_space_group_name_H-M	'P 1'

loop_
_symmetry_equiv_pos_as_xyz
  x,y,z

loop_
_atom_site_label
_atom_site_type_symbol
_atom_site_fract_x
_atom_site_fract_y
_atom_site_fract_z
_atom_site_charge
C 	C 	0.02877 0.00801 0.42518 0.12100
C 	C 	0.06242 0.03514 0.00126 0.13100
C 	C 	0.10042 0.05088 0.43129 -0.01800
C 	C 	0.14199 0.04523 0.46451 -0.04600
H 	H 	0.25472 0.06302 0.50826 0.05000
N 	N 	0.03635 0.06664 0.01343 -0.13800
C 	C 	0.26113 0.10453 0.49543 -0.05600
C 	C 	0.20695 0.10298 0.47732 0.02600
S 	S 	0.17217 0.04126 0.03034 0.03800
C 	C 	0.13363 0.07106 0.00723 -0.00600
H 	H 	0.29947 0.06017 0.03817 0.04300
C 	C 	0.23388 0.07678 0.99882 -0.04500
S 	S 	0.14372 0.12645 0.41967 0.01000
C 	C 	0.29461 0.08922 0.01418 -0.00200
C 	C 	0.22720 0.11541 0.96932 0.04700
C 	C 	0.17005 0.11134 0.97323 -0.07200
H 	H 	0.71068 0.11605 0.46831 0.04000
H 	H 	0.71454 0.11427 0.02271 0.05500
H 	H 	0.74868 0.03911 0.47507 0.04600
O 	O 	0.53219 0.15370 0.72644 -0.11400
C 	C 	0.32334 0.15886 0.49209 0.00200
C 	C 	0.21536 0.15398 0.45510 0.00200
S 	S 	0.38808 0.15885 0.49098 0.03600
C 	C 	0.34823 0.13870 0.99571 -0.01000
C 	C 	0.40581 0.14357 0.99283 -0.03200
H 	H 	0.15534 0.13556 0.95151 0.05100
H 	H 	0.42010 0.11911 0.01470 0.06500
H 	H 	0.75970 0.04385 0.03749 0.05100
C 	C 	0.75520 0.14528 0.45310 -0.02500
C 	C 	0.76348 0.14927 0.01582 -0.03200
H 	H 	0.01276 0.16023 0.00998 0.05200
C 	C 	0.28107 0.16513 0.95091 -0.07200
O 	O 	0.53589 0.18827 0.29100 -0.12500
C 	C 	0.34190 0.17769 0.96660 0.01200
C 	C 	0.44389 0.18575 0.96048 -0.07000
H 	H 	0.12644 0.00107 0.47818 0.05000
C 	C 	0.79338 0.07724 0.46386 -0.05200
H 	H 	0.27640 0.19453 0.92723 0.05200
C 	C 	0.80558 0.08517 0.03033 -0.05100
C 	C 	0.80390 0.13510 0.45562 0.01300
O 	O 	0.54248 0.19653 0.98927 -0.36500
C 	C 	0.77177 0.19867 0.43038 -0.07800
C 	C 	0.80957 0.13607 0.01189 0.01600
O 	O 	0.68712 0.20163 0.00280 -0.33900
C 	C 	0.97124 0.03233 0.01457 0.12300
N 	N 	0.99421 0.03208 0.41892 -0.14000
C 	C 	0.89200 0.02090 0.41386 -0.02900
S 	S 	0.86688 0.02858 0.04151 0.01300
C 	C 	0.94392 0.06620 0.03165 -0.01800
C 	C 	0.84155 0.06946 0.45483 -0.00600
C 	C 	0.92119 0.08507 0.40734 -0.04300
C 	C 	0.86343 0.09063 0.04107 0.00100
C 	C 	0.89235 0.11195 0.43004 0.02600
H 	H 	0.96254 0.11173 0.38813 0.05100
C 	C 	0.96842 0.12923 0.02495 -0.04400
C 	C 	0.92282 0.14288 0.03025 0.03000
C 	C 	0.90034 0.16763 0.41858 -0.05600
C 	C 	0.85864 0.18086 0.43576 -0.00200
C 	C 	0.86860 0.18781 0.00066 0.02200
C 	C 	0.92656 0.19361 0.01159 -0.06300
H 	H 	0.93585 0.19801 0.39574 0.05100
N 	N 	0.02321 0.96951 0.98939 -0.14200
Cu	Cu	0.64067 0.24223 0.99935 0.92100
Cu	Cu	0.62743 0.35431 0.02792 0.90100
C 	C 	0.64315 0.28480 0.10446 0.30000
C 	C 	0.67525 0.30731 0.82410 0.30400
O 	O 	0.64143 0.25264 0.92644 -0.64300
O 	O 	0.61152 0.30737 0.08690 -0.37500
C 	C 	0.51539 0.22154 0.96840 0.28300
O 	O 	0.55246 0.28226 0.96300 -0.38900
O 	O 	0.66312 0.43858 0.00500 -0.36900
O 	O 	0.65263 0.24954 0.07284 -0.33900
O 	O 	0.67278 0.25676 0.83279 -0.40300
H 	H 	0.59789 0.22495 0.90343 0.18400
Cu	Cu	0.62829 0.29649 0.49977 0.90000
Cu	Cu	0.60757 0.33731 0.40189 0.90100
C 	C 	0.67183 0.31549 0.32366 0.30200
C 	C 	0.67798 0.31475 0.61078 0.30300
O 	O 	0.62694 0.28381 0.42731 -0.63900
O 	O 	0.64859 0.34689 0.33972 -0.36800
O 	O 	0.53436 0.24837 0.49074 -0.37400
C 	C 	0.49822 0.25538 0.45734 0.29400
O 	O 	0.68306 0.41905 0.46155 -0.38400
O 	O 	0.52495 0.30146 0.42947 -0.38300
O 	O 	0.62747 0.29338 0.57388 -0.38000
H 	H 	0.59761 0.23787 0.40958 0.17800
C 	C 	0.61542 0.26863 0.68052 -0.02900
C 	C 	0.67076 0.32043 0.66508 -0.07800
C 	C 	0.66871 0.31623 0.77047 -0.07900
C 	C 	0.61406 0.26630 0.73301 0.09300
N 	N 	0.55746 0.21275 0.74816 -0.02000
H 	H 	0.57450 0.22883 0.65174 0.06400
O 	O 	0.52921 0.22308 0.78173 -0.11300
C 	C 	0.66401 0.29690 0.26770 -0.07200
C 	C 	0.60112 0.25834 0.23628 0.09000
C 	C 	0.59473 0.25193 0.18255 -0.02200
C 	C 	0.65048 0.28287 0.15978 -0.07300
H 	H 	0.54634 0.22378 0.15852 0.06600
N 	N 	0.54362 0.22615 0.25890 -0.02300
O 	O 	0.49738 0.23192 0.24526 -0.11500
C 	C 	0.27636 0.20317 0.44480 -0.05300
C 	C 	0.33089 0.20590 0.46449 0.01800
C 	C 	0.42762 0.21761 0.45693 -0.07300
C 	C 	0.39025 0.23979 0.44543 -0.01700
H 	H 	0.28050 0.23536 0.41952 0.05000
H 	H 	0.40435 0.27759 0.42325 0.04700
S 	S 	0.40546 0.21564 0.93691 0.02200
Cu	Cu	0.70829 0.25317 0.89782 0.87200
Cu	Cu	0.68244 0.34735 0.93447 0.89600
O 	O 	0.68808 0.34247 0.00613 -0.62900
C 	C 	0.71296 0.47047 0.98077 0.27600
O 	O 	0.69385 0.35491 0.86226 -0.38200
O 	O 	0.72434 0.34104 0.50352 -0.64000
O 	O 	0.70827 0.22063 0.47640 -0.43500
O 	O 	0.71436 0.31452 0.35523 -0.35300
C 	C 	0.72252 0.37340 0.70267 0.09300
C 	C 	0.72128 0.37091 0.75517 -0.02800
C 	C 	0.71315 0.31725 0.19093 0.09300
H 	H 	0.70072 0.53547 0.46984 0.04400
C 	C 	0.71965 0.32428 0.24476 -0.02300
O 	O 	0.72620 0.43989 0.94775 -0.37600
C 	C 	0.74548 0.23031 0.99074 0.24800
H 	H 	0.73302 0.37213 0.02687 0.17800
Cu	Cu	0.72801 0.33411 0.42905 0.93000
Cu	Cu	0.73096 0.28113 0.53624 0.87400
C 	C 	0.74348 0.45589 0.45369 0.28500
C 	C 	0.74834 0.23727 0.44365 0.29000
O 	O 	0.73039 0.32090 0.60028 -0.40200
H 	H 	0.75193 0.38571 0.52387 0.18400
C 	C 	0.74983 0.55748 0.46258 -0.02100
H 	H 	0.73187 0.65415 0.46388 0.04900
S 	S 	0.74052 0.58635 0.02781 0.04000
C 	C 	0.74723 0.54043 0.98402 -0.08400
O 	O 	0.76472 0.27268 0.96015 -0.42500
O 	O 	0.76892 0.42934 0.43268 -0.35600
H 	H 	0.76241 0.41044 0.78398 0.06200
O 	O 	0.76609 0.45901 0.65574 -0.11000
O 	O 	0.77283 0.29199 0.42718 -0.36400
N 	N 	0.77660 0.42953 0.68763 -0.02000
N 	N 	0.77048 0.34761 0.16822 -0.02500
H 	H 	0.76810 0.35317 0.26872 0.07000
C 	C 	0.77886 0.66681 0.45751 -0.05300
C 	C 	0.78036 0.52668 0.46360 -0.07300
O 	O 	0.78123 0.31237 0.13948 -0.09700
C 	C 	0.78781 0.21230 0.00902 -0.02900
C 	C 	0.78934 0.61950 0.44924 0.01800
H 	H 	0.78915 0.72234 0.05872 0.05500
C 	C 	0.80547 0.58096 0.96582 -0.01100
C 	C 	0.80954 0.65759 0.02530 0.02400
S 	S 	0.83170 0.99968 0.44697 0.02300
C 	C 	0.92834 0.99327 0.41669 0.13400
C 	C 	0.95843 0.93502 0.99085 0.11500
N 	N 	0.93254 0.96644 0.00386 -0.12600
N 	N 	0.89684 0.92974 0.41970 -0.13700
C 	C 	0.93132 0.90530 0.42502 0.12600
N 	N 	0.99721 0.94463 0.42788 -0.13700
O 	O 	0.83640 0.45320 0.70796 -0.11300
O 	O 	0.81444 0.41017 0.17960 -0.11100
C 	C 	0.84937 0.63612 0.43879 0.00100
C 	C 	0.90252 0.70039 0.44047 -0.05500
C 	C 	0.89211 0.74775 0.44814 0.02600
C 	C 	0.83186 0.73135 0.45868 0.00100
S 	S 	0.85413 0.57642 0.44772 0.03700
S 	S 	0.82529 0.78900 0.44511 0.01300
C 	C 	0.89753 0.83620 0.42646 -0.01900
C 	C 	0.92962 0.80735 0.43092 -0.04500
H 	H 	0.94915 0.71269 0.43336 0.05200
H 	H 	0.97687 0.82722 0.42033 0.05300
S 	S 	0.84531 0.23098 0.41411 0.03300
C 	C 	0.90514 0.76026 0.98502 -0.02300
C 	C 	0.88702 0.69845 0.96657 -0.03800
C 	C 	0.83994 0.64712 0.98842 -0.01000
C 	C 	0.82039 0.71738 0.03729 -0.06700
C 	C 	0.87040 0.76950 0.01785 0.04800
S 	S 	0.94180 0.82212 0.95436 0.01800
C 	C 	0.91780 0.86397 0.98231 -0.03300
C 	C 	0.87798 0.82815 0.01684 -0.03400
H 	H 	0.90639 0.69008 0.93481 0.04600
H 	H 	0.85746 0.84483 0.04163 0.05200
H 	H 	0.82158 0.56381 0.93673 0.04700
S 	S 	0.86419 0.24890 0.99757 -0.02100
H 	H 	0.97226 0.23476 0.00402 0.05600
