data_crystal

_cell_length_a 26.25563
_cell_length_b 26.35020
_cell_length_c 26.60863
_cell_angle_alpha 95.49874
_cell_angle_beta  95.49772
_cell_angle_gamma 125.82527

_symmetry_space_group_name_	'P 1'
_symmetry_space_group_name_H-M	'P 1'

loop_
_symmetry_equiv_pos_as_xyz
  x,y,z

loop_
_atom_site_label
_atom_site_type_symbol
_atom_site_fract_x
_atom_site_fract_y
_atom_site_fract_z
_atom_site_charge
C 	C 	0.96419 0.02656 0.00372 0.02000
C 	C 	0.05355 0.02241 0.99706 0.01500
C 	C 	0.94776 0.01584 0.43591 0.01700
C 	C 	0.04801 0.02861 0.44565 0.01900
C 	C 	0.01482 0.05514 0.44252 -0.06500
C 	C 	0.87111 0.03250 0.46761 -0.04900
C 	C 	0.91300 0.04430 0.43367 0.01400
H 	H 	0.81361 0.05632 0.49766 0.03400
H 	H 	0.89513 0.02558 0.07386 0.04100
H 	H 	0.13514 0.05121 0.52518 0.04100
H 	H 	0.14103 0.03044 0.06614 0.04700
C 	C 	0.84154 0.06260 0.46829 -0.02800
C 	C 	0.11811 0.06952 0.45041 0.01500
C 	C 	0.90090 0.05508 0.04593 -0.04900
H 	H 	0.74200 0.06824 0.46707 0.04200
C 	C 	0.15666 0.07535 0.49416 -0.04900
H 	H 	0.23939 0.04395 0.09645 0.04200
C 	C 	0.16046 0.05243 0.03365 -0.06500
C 	C 	0.02970 0.05782 0.00384 -0.06100
C 	C 	0.93832 0.06344 0.00872 0.01800
C 	C 	0.12172 0.05469 0.99535 0.01100
C 	C 	0.25933 0.06759 0.06479 -0.05200
H 	H 	0.34703 0.07969 0.08666 0.04200
H 	H 	0.84636 0.08127 0.07871 0.03500
C 	C 	0.22320 0.07597 0.02907 0.03500
H 	H 	0.76785 0.08258 0.04808 0.04400
C 	C 	0.32051 0.08798 0.05927 -0.03500
C 	C 	0.87098 0.08484 0.04741 -0.02800
H 	H 	0.86309 0.00156 0.49481 0.03900
C 	C 	0.92560 0.08705 0.40040 -0.06900
C 	C 	0.14579 0.08095 0.95244 -0.04800
H 	H 	0.11509 0.08031 0.92169 0.04000
H 	H 	0.11557 0.09236 0.37504 0.04700
C 	C 	0.14583 0.09857 0.40949 -0.06900
C 	C 	0.01216 0.95589 0.99104 -0.06400
C 	C 	0.94696 0.92454 0.99134 0.02000
C 	C 	0.92291 0.95981 0.99727 -0.07000
H 	H 	0.06188 0.10937 0.00908 0.04800
H 	H 	0.03071 0.92857 0.98620 0.04800
H 	H 	0.87221 0.93539 0.99652 0.04700
C 	C 	0.91413 0.94975 0.43311 -0.06500
C 	C 	0.94750 0.92336 0.43722 0.01900
C 	C 	0.01432 0.96285 0.44318 -0.06300
H 	H 	0.86237 0.91910 0.42784 0.04700
H 	H 	0.04006 0.94240 0.44588 0.04900
H 	H 	0.04112 0.10624 0.44557 0.04800
Cu	Cu	0.63403 0.23562 0.00386 0.92800
Cu	Cu	0.67657 0.22713 0.89301 0.87100
Cu	Cu	0.66586 0.33039 0.93135 0.89700
Cu	Cu	0.62897 0.35100 0.03139 0.89500
C 	C 	0.65401 0.29007 0.10961 0.28300
O 	O 	0.54015 0.19431 0.00409 -0.35500
C 	C 	0.64586 0.28038 0.82021 0.28100
O 	O 	0.68149 0.33329 0.00391 -0.63700
O 	O 	0.62216 0.23704 0.92937 -0.64100
O 	O 	0.67759 0.19373 0.00401 -0.36700
O 	O 	0.74105 0.25332 0.94987 -0.44200
O 	O 	0.62315 0.31305 0.09415 -0.38100
O 	O 	0.71142 0.42170 0.93942 -0.37700
C 	C 	0.70582 0.45616 0.97474 0.28100
C 	C 	0.51209 0.21790 0.98434 0.27400
O 	O 	0.54711 0.27559 0.97418 -0.38900
O 	O 	0.65992 0.42908 0.00200 -0.38800
O 	O 	0.65774 0.25146 0.07726 -0.35500
C 	C 	0.72919 0.21667 0.98387 0.28100
O 	O 	0.66748 0.33003 0.85672 -0.37800
O 	O 	0.63251 0.22700 0.83208 -0.41800
H 	H 	0.72720 0.36255 0.02054 0.16300
H 	H 	0.57705 0.21000 0.91122 0.17400
Cu	Cu	0.74145 0.34757 0.43462 0.92700
Cu	Cu	0.74377 0.30106 0.54416 0.87400
Cu	Cu	0.64695 0.32210 0.50623 0.89700
Cu	Cu	0.62717 0.35448 0.40467 0.89400
C 	C 	0.68843 0.32729 0.32833 0.28400
O 	O 	0.78410 0.44137 0.43388 -0.35800
C 	C 	0.68805 0.32924 0.61586 0.28100
O 	O 	0.64332 0.30183 0.43407 -0.63900
O 	O 	0.73967 0.35997 0.50901 -0.63700
O 	O 	0.78260 0.30322 0.43530 -0.37000
O 	O 	0.71867 0.23817 0.48655 -0.43600
O 	O 	0.66651 0.35939 0.34288 -0.38200
O 	O 	0.55578 0.27952 0.49873 -0.38100
C 	C 	0.52078 0.28338 0.46237 0.28500
C 	C 	0.76084 0.47022 0.45280 0.27800
O 	O 	0.70248 0.43612 0.46212 -0.39100
O 	O 	0.54736 0.32483 0.43139 -0.39300
O 	O 	0.72620 0.32312 0.36136 -0.35600
C 	C 	0.75708 0.25054 0.45392 0.28300
O 	O 	0.64919 0.33061 0.58142 -0.37400
O 	O 	0.74207 0.34187 0.60601 -0.41200
H 	H 	0.61295 0.25587 0.41879 0.16400
H 	H 	0.76907 0.40470 0.52763 0.17300
C 	C 	0.67042 0.31249 0.66598 -0.07300
C 	C 	0.65552 0.34643 0.69712 -0.00900
C 	C 	0.64391 0.33431 0.74666 0.00100
C 	C 	0.64889 0.28869 0.76578 -0.06900
C 	C 	0.66031 0.25250 0.73322 -0.01700
C 	C 	0.67027 0.26359 0.68354 0.00200
H 	H 	0.65356 0.38267 0.68304 0.04300
H 	H 	0.66267 0.21634 0.74694 0.03300
C 	C 	0.67915 0.22363 0.65036 0.04600
C 	C 	0.62454 0.36695 0.77648 0.08100
N 	N 	0.68624 0.19164 0.62381 -0.14100
N 	N 	0.60905 0.39315 0.80035 -0.11600
C 	C 	0.68578 0.31216 0.27303 -0.06300
C 	C 	0.63070 0.25574 0.24337 -0.01600
C 	C 	0.62168 0.24591 0.18957 0.00500
C 	C 	0.66824 0.29306 0.16511 -0.06200
C 	C 	0.72517 0.34755 0.19482 -0.01600
C 	C 	0.73422 0.35735 0.24862 0.00500
H 	H 	0.59381 0.22055 0.26214 0.03200
H 	H 	0.76139 0.38345 0.17604 0.03200
C 	C 	0.79239 0.41486 0.27847 0.08100
C 	C 	0.56362 0.18829 0.15973 0.08100
N 	N 	0.83897 0.46091 0.30241 -0.11600
N 	N 	0.51711 0.14213 0.13582 -0.11700
C 	C 	0.79562 0.53947 0.45524 -0.07400
C 	C 	0.83773 0.57031 0.42146 0.00300
C 	C 	0.86330 0.63339 0.41822 -0.05500
C 	C 	0.84513 0.66598 0.44755 0.01200
C 	C 	0.80843 0.63722 0.48560 0.00300
C 	C 	0.78282 0.57373 0.48851 -0.01900
C 	C 	0.79855 0.67244 0.52081 -0.03500
C 	C 	0.82479 0.73586 0.51874 -0.05300
C 	C 	0.85800 0.76400 0.47949 0.03200
C 	C 	0.86546 0.72811 0.44182 -0.01400
C 	C 	0.88974 0.75381 0.39824 -0.02800
C 	C 	0.91427 0.81685 0.39599 -0.04800
C 	C 	0.91280 0.85441 0.43597 0.01400
C 	C 	0.88302 0.82743 0.47692 -0.06900
H 	H 	0.85008 0.54517 0.39712 0.04700
H 	H 	0.89894 0.65720 0.39453 0.04400
H 	H 	0.75266 0.55091 0.51633 0.04000
H 	H 	0.77139 0.65098 0.55052 0.03700
H 	H 	0.81815 0.76280 0.54719 0.04100
H 	H 	0.88733 0.72470 0.36521 0.03600
H 	H 	0.93484 0.83672 0.36319 0.04100
H 	H 	0.88028 0.85606 0.50709 0.04600
C 	C 	0.77596 0.20817 0.44220 -0.08000
C 	C 	0.74591 0.15058 0.46049 0.00100
C 	C 	0.76870 0.11430 0.45580 -0.05800
C 	C 	0.82343 0.13609 0.43400 0.01300
C 	C 	0.84832 0.18940 0.40952 0.00200
C 	C 	0.82563 0.22619 0.41491 -0.01600
C 	C 	0.89486 0.20480 0.37946 -0.03400
C 	C 	0.91770 0.16858 0.37429 -0.05300
C 	C 	0.89789 0.11929 0.40206 0.03200
C 	C 	0.85255 0.10444 0.43406 -0.01500
H 	H 	0.70473 0.13380 0.47848 0.03400
H 	H 	0.84693 0.26883 0.39834 0.04800
H 	H 	0.91285 0.24446 0.35947 0.03900
H 	H 	0.95272 0.18044 0.35004 0.04100
H 	H 	0.95855 0.09676 0.37452 0.04600
C 	C 	0.22272 0.11020 0.49737 -0.02800
C 	C 	0.25173 0.14228 0.45739 -0.01500
C 	C 	0.21209 0.13333 0.41204 0.03300
C 	C 	0.23861 0.15660 0.36892 -0.05300
C 	C 	0.30365 0.18737 0.36981 -0.03400
C 	C 	0.34418 0.19911 0.41488 0.00200
C 	C 	0.31916 0.17978 0.45999 0.01400
C 	C 	0.36220 0.20093 0.50679 -0.05700
C 	C 	0.42758 0.23359 0.50727 0.00600
C 	C 	0.45162 0.24833 0.46172 -0.07400
C 	C 	0.40990 0.23165 0.41573 -0.01600
H 	H 	0.25015 0.10874 0.52937 0.03500
H 	H 	0.20837 0.14928 0.33402 0.04100
H 	H 	0.32282 0.20317 0.33551 0.03600
H 	H 	0.34610 0.19561 0.54312 0.04400
H 	H 	0.45982 0.24913 0.54345 0.04200
H 	H 	0.42860 0.24429 0.38068 0.03500
C 	C 	0.74369 0.52549 0.97744 -0.07700
C 	C 	0.76289 0.56575 0.02480 0.00800
C 	C 	0.79546 0.63117 0.02758 -0.05400
C 	C 	0.80701 0.65715 0.98234 0.01100
C 	C 	0.79256 0.61727 0.93522 0.00300
C 	C 	0.75962 0.55144 0.93282 -0.01400
C 	C 	0.81275 0.64380 0.89144 -0.03400
C 	C 	0.84799 0.70948 0.89412 -0.05300
C 	C 	0.86017 0.74934 0.93974 0.03200
C 	C 	0.83636 0.72293 0.98336 -0.01700
C 	C 	0.84004 0.76224 0.02583 -0.02500
C 	C 	0.87502 0.82784 0.02780 -0.04400
C 	C 	0.90422 0.85477 0.98668 0.01000
C 	C 	0.89513 0.81533 0.94207 -0.06800
H 	H 	0.75342 0.54639 0.05976 0.02600
H 	H 	0.81426 0.66147 0.06506 0.04200
H 	H 	0.74612 0.52051 0.89632 0.05000
H 	H 	0.80246 0.61360 0.85547 0.03900
H 	H 	0.86502 0.72932 0.86033 0.04100
H 	H 	0.81388 0.74219 0.05622 0.03500
H 	H 	0.87966 0.85786 0.06148 0.04100
H 	H 	0.91568 0.83608 0.90948 0.04700
C 	C 	0.87661 0.12205 0.01040 -0.01300
C 	C 	0.92043 0.13635 0.97699 0.03000
C 	C 	0.94935 0.10538 0.97518 -0.07400
C 	C 	0.93552 0.18199 0.94631 -0.05500
C 	C 	0.90647 0.21242 0.94746 -0.03400
C 	C 	0.85838 0.19445 0.97641 -0.00600
C 	C 	0.84134 0.14740 0.00691 0.01900
C 	C 	0.78644 0.12313 0.02934 -0.06100
C 	C 	0.75182 0.14786 0.02389 0.01200
C 	C 	0.77004 0.19583 0.99491 -0.08800
C 	C 	0.82455 0.22028 0.97261 -0.01600
H 	H 	0.97979 0.11333 0.94738 0.04600
H 	H 	0.97045 0.19450 0.92184 0.03900
H 	H 	0.91960 0.24837 0.92407 0.03200
H 	H 	0.70941 0.12794 0.04074 0.04100
H 	H 	0.83908 0.25755 0.95036 0.03400
C 	C 	0.20828 0.10488 0.94752 -0.02800
C 	C 	0.24894 0.10567 0.98706 -0.01700
C 	C 	0.34841 0.12079 0.01982 0.00800
C 	C 	0.31389 0.13238 0.98454 0.00900
C 	C 	0.34623 0.17344 0.95003 -0.05600
C 	C 	0.40947 0.19773 0.94787 0.00100
C 	C 	0.44278 0.18436 0.98161 -0.07700
C 	C 	0.41179 0.14507 0.01697 -0.01500
H 	H 	0.22302 0.11862 0.91163 0.03500
H 	H 	0.32444 0.19009 0.92723 0.04200
H 	H 	0.43339 0.22905 0.92111 0.03500
H 	H 	0.43792 0.13592 0.04395 0.05300
