data_crystal

_cell_length_a 19.53004
_cell_length_b 18.21281
_cell_length_c 26.38787
_cell_angle_alpha 95.43042
_cell_angle_beta  95.42955
_cell_angle_gamma 126.41603

_symmetry_space_group_name_	'P 1'
_symmetry_space_group_name_H-M	'P 1'

loop_
_symmetry_equiv_pos_as_xyz
  x,y,z

loop_
_atom_site_label
_atom_site_type_symbol
_atom_site_fract_x
_atom_site_fract_y
_atom_site_fract_z
_atom_site_charge
C 	C 	0.95217 0.05773 0.96008 0.27400
C 	C 	0.04252 0.11335 0.96482 -0.16900
C 	C 	0.08556 0.07373 0.96918 0.27400
H 	H 	0.07933 0.18752 0.96608 0.14500
C 	C 	0.99935 0.03494 0.46895 -0.01900
H 	H 	0.03437 0.10798 0.46727 0.10400
Cu	Cu	0.73809 0.35371 0.95281 0.93200
Cu	Cu	0.77218 0.30254 0.06418 0.91200
Cu	Cu	0.61655 0.32124 0.02830 0.92200
C 	C 	0.66363 0.33670 0.84811 0.29300
C 	C 	0.65020 0.28184 0.12423 0.29000
O 	O 	0.60855 0.29884 0.95481 -0.63700
O 	O 	0.77398 0.27022 0.94567 -0.34100
O 	O 	0.85808 0.32966 0.02588 -0.37400
O 	O 	0.49558 0.26719 0.02355 -0.34300
C 	C 	0.45336 0.28134 0.98874 0.38900
O 	O 	0.49509 0.35058 0.96346 -0.34500
O 	O 	0.71286 0.32432 0.87827 -0.32400
C 	C 	0.83381 0.27960 0.97966 0.39300
O 	O 	0.62679 0.32750 0.10254 -0.34200
O 	O 	0.67123 0.23722 0.09604 -0.38300
H 	H 	0.56302 0.23342 0.93752 0.18200
Cu	Cu	0.70174 0.27631 0.44556 0.93500
Cu	Cu	0.69418 0.18950 0.55085 0.91200
Cu	Cu	0.57359 0.23186 0.51824 0.90500
Cu	Cu	0.55564 0.29959 0.42241 0.91500
C 	C 	0.64038 0.27304 0.34082 0.30000
C 	C 	0.63914 0.25219 0.62866 0.29100
O 	O 	0.57004 0.21368 0.44500 -0.63800
O 	O 	0.69808 0.28451 0.52080 -0.63300
O 	O 	0.75495 0.21010 0.44036 -0.33300
O 	O 	0.66584 0.10887 0.48882 -0.39600
O 	O 	0.45082 0.17395 0.51042 -0.34100
C 	C 	0.40816 0.19067 0.47762 0.39300
O 	O 	0.44861 0.25697 0.45019 -0.34500
O 	O 	0.68078 0.25071 0.37121 -0.33600
C 	C 	0.72490 0.13496 0.46011 0.39700
O 	O 	0.57336 0.22770 0.59283 -0.34600
O 	O 	0.70007 0.24636 0.61712 -0.36800
H 	H 	0.52668 0.14865 0.42644 0.19200
C 	C 	0.65261 0.31311 0.79144 -0.05800
C 	C 	0.61283 0.22101 0.76648 0.10300
C 	C 	0.60664 0.20165 0.71274 -0.02000
C 	C 	0.63722 0.27223 0.68354 -0.06900
H 	H 	0.57905 0.13177 0.69368 0.07100
C 	C 	0.57855 0.14367 0.79697 -0.21200
H 	H 	0.53830 0.14565 0.82329 0.09800
H 	H 	0.63346 0.15098 0.82015 0.12100
H 	H 	0.53721 0.07436 0.77106 0.11000
C 	C 	0.56551 0.22212 0.24919 -0.03300
C 	C 	0.64290 0.26559 0.28495 -0.06400
C 	C 	0.72270 0.31192 0.26736 0.12100
C 	C 	0.72340 0.31448 0.21437 -0.02800
C 	C 	0.64639 0.27428 0.17910 -0.07700
C 	C 	0.56650 0.22566 0.19631 0.11800
C 	C 	0.48249 0.17948 0.15877 -0.22900
H 	H 	0.50450 0.18710 0.26277 0.07200
H 	H 	0.47835 0.13539 0.12467 0.11800
C 	C 	0.79589 0.07571 0.41620 0.30600
C 	C 	0.77254 0.09528 0.46146 -0.21800
C 	C 	0.79575 0.07778 0.50844 0.29800
C 	C 	0.84036 0.03977 0.50990 0.24000
C 	C 	0.86292 0.01943 0.46465 -0.10300
C 	C 	0.84088 0.03784 0.41780 0.24000
F 	F 	0.77388 0.09204 0.37058 -0.37400
F 	F 	0.86241 0.02336 0.55547 -0.34700
F 	F 	0.77681 0.09967 0.55296 -0.42500
C 	C 	0.16958 0.06595 0.42882 0.23900
C 	C 	0.13820 0.05518 0.47538 -0.09800
C 	C 	0.19589 0.09075 0.52285 0.23700
C 	C 	0.28413 0.13506 0.52375 0.30200
C 	C 	0.31528 0.14381 0.47705 -0.20500
C 	C 	0.25767 0.10991 0.42961 0.29900
F 	F 	0.28677 0.11750 0.38421 -0.38500
F 	F 	0.11415 0.03130 0.38273 -0.34800
F 	F 	0.33946 0.17049 0.56994 -0.37300
C 	C 	0.87369 0.10590 0.00409 0.26400
C 	C 	0.90840 0.10161 0.96069 -0.16000
C 	C 	0.91123 0.14952 0.92114 0.25700
C 	C 	0.88442 0.20569 0.92652 0.29700
C 	C 	0.85435 0.21402 0.97135 -0.21700
C 	C 	0.84626 0.16127 0.00924 0.29500
F 	F 	0.81237 0.16431 0.05131 -0.41700
F 	F 	0.89044 0.25439 0.88902 -0.37200
F 	F 	0.94243 0.14381 0.87830 -0.35500
C 	C 	0.30643 0.19324 0.93476 0.28800
C 	C 	0.35941 0.22933 0.98410 -0.20900
C 	C 	0.32233 0.21752 0.02862 0.29700
C 	C 	0.23285 0.16874 0.02371 0.26300
C 	C 	0.18001 0.13184 0.97436 -0.16800
C 	C 	0.21711 0.14482 0.92995 0.26400
F 	F 	0.34152 0.20361 0.89148 -0.39000
F 	F 	0.19722 0.15656 0.06685 -0.36300
F 	F 	0.37315 0.25469 0.07652 -0.38300
H 	H 	0.42548 0.13406 0.17689 0.12500
H 	H 	0.47861 0.23323 0.14561 0.15100
F 	F 	0.86991 0.05936 0.04233 -0.35100
F 	F 	0.16621 0.10889 0.88211 -0.35400
O 	O 	0.61083 0.31686 0.35999 -0.33600
F 	F 	0.16610 0.08101 0.56809 -0.35300
H 	H 	0.80982 0.30634 0.32038 0.13600
H 	H 	0.78431 0.34962 0.20069 0.05400
Cu	Cu	0.59601 0.38521 0.93094 0.91700
O 	O 	0.73987 0.37041 0.02898 -0.62100
O 	O 	0.64271 0.38969 0.86635 -0.33700
C 	C 	0.68132 0.38325 0.76195 -0.03000
C 	C 	0.67318 0.36328 0.70804 0.11300
C 	C 	0.80714 0.35924 0.30473 -0.22900
H 	H 	0.73916 0.34759 0.54224 0.19600
F 	F 	0.86247 0.01838 0.37380 -0.34600
H 	H 	0.77993 0.43661 0.04601 0.18900
H 	H 	0.86380 0.40038 0.28557 0.11900
H 	H 	0.81360 0.40781 0.33711 0.14500
O 	O 	0.65943 0.40887 0.48370 -0.36800
O 	O 	0.76620 0.41545 0.45161 -0.33600
H 	H 	0.65367 0.41921 0.64450 0.12200
C 	C 	0.70564 0.43988 0.67714 -0.22100
H 	H 	0.71122 0.45374 0.78111 0.10000
H 	H 	0.76232 0.45387 0.66146 0.12000
C 	C 	0.73797 0.45809 0.47368 0.38900
C 	C 	0.04416 0.99713 0.47413 0.12500
C 	C 	0.90930 0.97845 0.46645 0.15000
C 	C 	0.03864 0.97855 0.96871 -0.18800
C 	C 	0.94854 0.92251 0.96403 0.26700
C 	C 	0.90500 0.96187 0.95937 -0.16900
H 	H 	0.07231 0.94820 0.97245 0.13600
H 	H 	0.83523 0.91865 0.95618 0.14500
C 	C 	0.86421 0.88388 0.46866 -0.08500
C 	C 	0.90910 0.84613 0.47367 0.18800
C 	C 	0.99900 0.90300 0.47674 -0.05900
H 	H 	0.79463 0.83998 0.46651 0.12100
H 	H 	0.03363 0.87372 0.48039 0.10200
O 	O 	0.80806 0.49309 0.95549 -0.32100
C 	C 	0.78275 0.54010 0.97593 0.38500
O 	O 	0.70612 0.49535 0.98861 -0.36300
H 	H 	0.72580 0.50540 0.70124 0.13200
C 	C 	0.81041 0.59398 0.42925 0.29300
C 	C 	0.78434 0.55803 0.47445 -0.21300
C 	C 	0.79638 0.61641 0.51886 0.29500
C 	C 	0.83513 0.71016 0.51825 0.24600
C 	C 	0.86169 0.74601 0.47316 -0.13000
C 	C 	0.84891 0.68748 0.42866 0.24400
F 	F 	0.87392 0.72146 0.38481 -0.36200
F 	F 	0.79603 0.53755 0.38541 -0.39400
F 	F 	0.84796 0.76649 0.56162 -0.35700
F 	F 	0.77124 0.58245 0.56270 -0.39200
C 	C 	0.84305 0.70088 0.01668 0.29400
C 	C 	0.83089 0.63931 0.97404 -0.20900
C 	C 	0.85387 0.67026 0.92730 0.28700
C 	C 	0.88851 0.76178 0.92330 0.25700
C 	C 	0.90065 0.82322 0.96594 -0.16500
C 	C 	0.87770 0.79240 0.01262 0.26500
F 	F 	0.89072 0.85182 0.05436 -0.35200
F 	F 	0.82119 0.67186 0.06206 -0.37400
F 	F 	0.91097 0.79117 0.87808 -0.36500
F 	F 	0.83986 0.61074 0.88524 -0.38300
