data_crystal

_cell_length_a 26.03681
_cell_length_b 26.34309
_cell_length_c 30.90473
_cell_angle_alpha 95.49815
_cell_angle_beta  95.49122
_cell_angle_gamma 125.78352

_symmetry_space_group_name_	'P 1'
_symmetry_space_group_name_H-M	'P 1'

loop_
_symmetry_equiv_pos_as_xyz
  x,y,z

loop_
_atom_site_label
_atom_site_type_symbol
_atom_site_fract_x
_atom_site_fract_y
_atom_site_fract_z
_atom_site_charge
C 	C 	0.00005 0.05883 0.99697 0.10500
N 	N 	0.96406 0.99471 0.99453 -0.13500
C 	C 	0.99119 0.96401 0.98963 0.11800
N 	N 	0.05442 0.99747 0.98690 -0.14200
C 	C 	0.09057 0.06133 0.98852 0.10900
N 	N 	0.06343 0.09213 0.99384 -0.13800
C 	C 	0.90419 0.96736 0.44936 0.10800
N 	N 	0.96917 0.00353 0.45220 -0.13200
C 	C 	0.00070 0.97716 0.45689 0.09800
N 	N 	0.96721 0.91451 0.45899 -0.13300
C 	C 	0.90247 0.87809 0.45672 0.10900
N 	N 	0.87075 0.90442 0.45166 -0.13700
Cu	Cu	0.67001 0.26931 0.00742 0.92600
Cu	Cu	0.70939 0.26833 0.90985 0.87000
Cu	Cu	0.70830 0.37326 0.95325 0.89700
Cu	Cu	0.68615 0.39390 0.04466 0.89300
C 	C 	0.69378 0.31148 0.10154 0.28600
O 	O 	0.57914 0.23997 0.01106 -0.36300
C 	C 	0.67971 0.33197 0.85524 0.28200
O 	O 	0.72866 0.36878 0.01349 -0.64100
O 	O 	0.65812 0.27874 0.94538 -0.64200
O 	O 	0.70445 0.21900 0.99915 -0.37100
O 	O 	0.77258 0.28317 0.95599 -0.44000
O 	O 	0.67148 0.34427 0.09320 -0.38400
O 	O 	0.76139 0.46512 0.96472 -0.38400
C 	C 	0.75666 0.50109 0.99444 0.28600
C 	C 	0.55816 0.27213 0.99818 0.27600
O 	O 	0.59949 0.33195 0.99462 -0.39200
O 	O 	0.73188 0.48106 0.03010 -0.39500
O 	O 	0.69539 0.27596 0.06924 -0.36400
C 	C 	0.75704 0.24216 0.98246 0.27700
O 	O 	0.70212 0.37834 0.88959 -0.38400
O 	O 	0.66756 0.27704 0.86029 -0.42000
H 	H 	0.77531 0.39280 0.02526 0.16600
H 	H 	0.61274 0.25558 0.93041 0.17200
Cu	Cu	0.70526 0.30609 0.44355 0.92500
Cu	Cu	0.70895 0.27057 0.54197 0.86900
Cu	Cu	0.60200 0.27154 0.49970 0.89700
Cu	Cu	0.57722 0.28961 0.40577 0.89400
C 	C 	0.66853 0.29590 0.35144 0.28300
O 	O 	0.74145 0.39745 0.43945 -0.36700
C 	C 	0.64721 0.30224 0.59742 0.28200
O 	O 	0.60431 0.25054 0.43921 -0.63700
O 	O 	0.69761 0.32031 0.50588 -0.64200
O 	O 	0.75267 0.26805 0.45021 -0.37100
O 	O 	0.69007 0.20533 0.49636 -0.44000
O 	O 	0.60985 0.27903 0.35229 -0.38400
O 	O 	0.50888 0.21878 0.48960 -0.38100
C 	C 	0.47226 0.22037 0.45790 0.28100
C 	C 	0.70738 0.41905 0.44375 0.27600
O 	O 	0.64766 0.38093 0.44935 -0.38800
O 	O 	0.49772 0.26041 0.43019 -0.39300
O 	O 	0.69696 0.28284 0.38126 -0.36100
C 	C 	0.72964 0.21764 0.46880 0.27700
O 	O 	0.59908 0.27871 0.56370 -0.38400
O 	O 	0.70247 0.31421 0.59143 -0.42000
H 	H 	0.58011 0.20422 0.42835 0.16500
H 	H 	0.72143 0.36564 0.51985 0.17200
C 	C 	0.63588 0.30702 0.64295 -0.07500
C 	C 	0.57907 0.25644 0.65436 0.00200
C 	C 	0.57342 0.25426 0.69880 -0.05900
C 	C 	0.62440 0.30287 0.73230 0.01200
C 	C 	0.67959 0.35631 0.72087 0.01200
C 	C 	0.68507 0.35813 0.67615 -0.02000
C 	C 	0.72996 0.40559 0.75439 -0.05900
C 	C 	0.72764 0.39975 0.79880 0.00300
C 	C 	0.67520 0.34444 0.81012 -0.07600
C 	C 	0.62247 0.29721 0.77696 -0.02000
H 	H 	0.54052 0.21722 0.62892 0.03300
H 	H 	0.53025 0.21374 0.70716 0.04100
H 	H 	0.72840 0.39791 0.66730 0.03800
H 	H 	0.77186 0.44748 0.74606 0.04100
H 	H 	0.76814 0.43681 0.82425 0.03200
H 	H 	0.58132 0.25507 0.78577 0.03800
C 	C 	0.70151 0.30213 0.14740 -0.07000
C 	C 	0.67836 0.24135 0.15583 0.00700
C 	C 	0.67366 0.22939 0.19896 -0.05600
C 	C 	0.69180 0.27801 0.23410 0.01400
C 	C 	0.71902 0.34022 0.22620 0.01400
C 	C 	0.72449 0.35212 0.18292 -0.02000
C 	C 	0.73692 0.38880 0.26126 -0.05600
C 	C 	0.72396 0.37486 0.30313 0.00100
C 	C 	0.69379 0.31250 0.31055 -0.06800
C 	C 	0.67977 0.26456 0.27647 -0.01600
H 	H 	0.66127 0.20261 0.12875 0.04100
H 	H 	0.65384 0.18179 0.20476 0.04400
H 	H 	0.74383 0.39945 0.17660 0.03400
H 	H 	0.75878 0.43690 0.25575 0.04200
H 	H 	0.73525 0.41211 0.32946 0.03000
H 	H 	0.65673 0.21640 0.28235 0.04300
C 	C 	0.69889 0.58720 0.39544 -0.03700
C 	C 	0.72438 0.65155 0.39882 -0.05200
C 	C 	0.78161 0.69863 0.42886 0.03400
C 	C 	0.81301 0.68072 0.45607 -0.02300
C 	C 	0.78772 0.61601 0.45231 0.00000
C 	C 	0.73044 0.56911 0.42192 0.00900
C 	C 	0.81994 0.59826 0.47882 0.00900
C 	C 	0.87664 0.64523 0.50931 -0.03700
C 	C 	0.90152 0.70944 0.51321 -0.05100
C 	C 	0.87025 0.72757 0.48648 0.03400
C 	C 	0.89658 0.79208 0.48889 -0.06000
C 	C 	0.86731 0.81036 0.46021 0.00600
C 	C 	0.80887 0.76350 0.43112 -0.06100
C 	C 	0.70526 0.50472 0.41853 -0.02300
C 	C 	0.73712 0.48695 0.44501 -0.06600
C 	C 	0.79475 0.53374 0.47474 -0.02100
H 	H 	0.65474 0.55148 0.37206 0.03500
H 	H 	0.69975 0.66473 0.37788 0.04100
H 	H 	0.90158 0.63211 0.52998 0.03600
H 	H 	0.94549 0.74513 0.53676 0.04100
H 	H 	0.94100 0.82826 0.51197 0.05000
H 	H 	0.78617 0.77756 0.40911 0.05100
H 	H 	0.66083 0.46839 0.39551 0.02900
H 	H 	0.81897 0.51979 0.49534 0.03600
C 	C 	0.87346 0.17486 0.40943 -0.03700
C 	C 	0.89723 0.13902 0.40618 -0.05100
C 	C 	0.86998 0.08418 0.42511 0.03400
C 	C 	0.81736 0.06432 0.44646 -0.02400
C 	C 	0.79316 0.10021 0.44951 -0.00100
C 	C 	0.82193 0.15619 0.43148 0.01000
C 	C 	0.74118 0.08086 0.47143 0.00800
C 	C 	0.71295 0.02520 0.48946 -0.03600
C 	C 	0.73726 0.98983 0.48673 -0.05600
C 	C 	0.78992 0.00947 0.46575 0.03700
C 	C 	0.81662 0.97601 0.46491 -0.06400
C 	C 	0.87058 0.99706 0.44502 0.00600
C 	C 	0.89584 0.05003 0.42400 -0.06000
C 	C 	0.79979 0.19357 0.43658 -0.02500
C 	C 	0.74912 0.17538 0.45962 -0.06700
C 	C 	0.71894 0.11809 0.47598 -0.02800
H 	H 	0.89559 0.21748 0.39514 0.03900
H 	H 	0.93742 0.15444 0.38943 0.04200
H 	H 	0.67266 0.00969 0.50612 0.03400
H 	H 	0.71547 0.94750 0.50134 0.04100
H 	H 	0.79687 0.93507 0.48098 0.05200
H 	H 	0.93645 0.06539 0.40767 0.05100
H 	H 	0.82275 0.23723 0.42347 0.04900
H 	H 	0.67898 0.10312 0.49292 0.03800
C 	C 	0.27601 0.05396 0.50845 -0.03900
C 	C 	0.21024 0.02091 0.50912 -0.04900
C 	C 	0.17389 0.03600 0.48495 0.03200
C 	C 	0.20402 0.08506 0.46022 -0.02200
C 	C 	0.27029 0.11848 0.45966 -0.00200
C 	C 	0.30634 0.10268 0.48372 0.01100
C 	C 	0.30038 0.16744 0.43486 0.01100
C 	C 	0.26409 0.18276 0.41087 -0.03800
C 	C 	0.19821 0.14939 0.41127 -0.05100
C 	C 	0.16779 0.10036 0.43573 0.03300
C 	C 	0.10147 0.06589 0.43553 -0.06200
C 	C 	0.07114 0.01628 0.45960 0.00800
C 	C 	0.10770 0.00214 0.48479 -0.06000
C 	C 	0.37220 0.13568 0.48273 -0.02500
C 	C 	0.40252 0.18486 0.45824 -0.06100
C 	C 	0.36631 0.20048 0.43430 -0.02600
H 	H 	0.30332 0.04156 0.52714 0.03600
H 	H 	0.18752 0.98334 0.52828 0.03800
H 	H 	0.28683 0.22040 0.39177 0.03600
H 	H 	0.17084 0.16159 0.39243 0.04000
H 	H 	0.07327 0.07667 0.41597 0.04900
H 	H 	0.08450 0.96459 0.50397 0.04800
H 	H 	0.39974 0.12304 0.50082 0.04400
H 	H 	0.38947 0.23849 0.41551 0.04400
C 	C 	0.82000 0.76867 0.03695 -0.05000
C 	C 	0.78724 0.70374 0.03769 -0.03800
C 	C 	0.80270 0.66819 0.01323 0.00900
C 	C 	0.85080 0.69795 0.98731 0.00000
C 	C 	0.88359 0.76324 0.98642 -0.01800
C 	C 	0.86851 0.79885 0.01164 0.02900
C 	C 	0.93210 0.79311 0.96082 0.02900
C 	C 	0.94692 0.75738 0.93586 -0.04800
C 	C 	0.91450 0.69258 0.93685 -0.03800
C 	C 	0.86671 0.66265 0.96271 0.01200
C 	C 	0.83528 0.59811 0.96472 -0.02500
C 	C 	0.78796 0.56848 0.99108 -0.05800
C 	C 	0.77119 0.60348 0.01477 -0.02800
C 	C 	0.90285 0.86435 0.01182 -0.06000
C 	C 	0.95213 0.89445 0.98702 0.00400
C 	C 	0.96584 0.85847 0.96099 -0.05000
H 	H 	0.80784 0.79553 0.05628 0.04000
H 	H 	0.75016 0.68123 0.05756 0.03600
H 	H 	0.98394 0.77986 0.91593 0.04100
H 	H 	0.92683 0.66578 0.91766 0.03700
H 	H 	0.84831 0.57129 0.94637 0.04700
H 	H 	0.73386 0.58044 0.03445 0.04200
H 	H 	0.89231 0.89211 0.03194 0.04900
H 	H 	0.00304 0.88149 0.94121 0.04200
C 	C 	0.98881 0.23503 0.97225 -0.03900
C 	C 	0.95489 0.26106 0.97078 -0.04400
C 	C 	0.89509 0.22997 0.98445 0.01700
C 	C 	0.87007 0.17324 0.00089 -0.00900
C 	C 	0.90452 0.14731 0.00275 -0.02000
C 	C 	0.96359 0.17778 0.98768 0.02800
C 	C 	0.87914 0.09016 0.01867 0.03100
C 	C 	0.82009 0.05991 0.03338 -0.04900
C 	C 	0.78560 0.08535 0.03117 -0.04000
C 	C 	0.80988 0.14156 0.01446 0.01400
C 	C 	0.77396 0.16556 0.01007 -0.03200
C 	C 	0.79782 0.22094 0.99217 -0.06200
C 	C 	0.85932 0.25403 0.98075 -0.03100
C 	C 	0.99587 0.14983 0.98716 -0.04800
C 	C 	0.96967 0.09174 0.00176 0.00300
C 	C 	0.91223 0.06309 0.01870 -0.05900
H 	H 	0.03442 0.25914 0.96097 0.03300
H 	H 	0.97474 0.30496 0.95839 0.03700
H 	H 	0.80040 0.01618 0.04597 0.04000
H 	H 	0.73970 0.06092 0.04205 0.03800
H 	H 	0.72696 0.14033 0.01943 0.04700
H 	H 	0.87864 0.29769 0.96807 0.04000
H 	H 	0.04027 0.17231 0.97434 0.04500
H 	H 	0.89282 0.01926 0.03116 0.05000
C 	C 	0.31704 0.25331 0.02973 -0.05200
C 	C 	0.38282 0.28262 0.03134 -0.03700
C 	C 	0.40317 0.24951 0.00996 0.00700
C 	C 	0.35701 0.18690 0.98609 0.00200
C 	C 	0.29078 0.15765 0.98404 -0.02100
C 	C 	0.27075 0.19063 0.00651 0.03100
C 	C 	0.24468 0.09496 0.96034 0.03300
C 	C 	0.26499 0.06219 0.93841 -0.05100
C 	C 	0.33076 0.09095 0.94085 -0.03700
C 	C 	0.37706 0.15304 0.96495 0.01000
C 	C 	0.44310 0.18139 0.96866 -0.02300
C 	C 	0.48909 0.24352 0.99275 -0.06100
C 	C 	0.46907 0.27780 0.01282 -0.02500
C 	C 	0.20482 0.15994 0.00644 -0.06400
C 	C 	0.15891 0.09665 0.98398 0.00800
C 	C 	0.17896 0.06514 0.95981 -0.06100
H 	H 	0.30219 0.27923 0.04685 0.04000
H 	H 	0.41793 0.33087 0.04960 0.03500
H 	H 	0.22988 0.01408 0.91992 0.04000
H 	H 	0.34563 0.06472 0.92420 0.03500
H 	H 	0.45875 0.15528 0.95291 0.03500
H 	H 	0.50476 0.32576 0.03149 0.03400
H 	H 	0.18948 0.18446 0.02490 0.05000
H 	H 	0.14347 0.01695 0.94146 0.05000
