data_crystal

_cell_length_a 18.86358
_cell_length_b 17.10907
_cell_length_c 29.06091
_cell_angle_alpha 90.00691
_cell_angle_beta  90.00899
_cell_angle_gamma 100.82524

_symmetry_space_group_name_	'P 1'
_symmetry_space_group_name_H-M	'P 1'

loop_
_symmetry_equiv_pos_as_xyz
  x,y,z

loop_
_atom_site_label
_atom_site_type_symbol
_atom_site_fract_x
_atom_site_fract_y
_atom_site_fract_z
_atom_site_charge
Ni	Ni	0.35016 0.63450 0.80845 1.09900
O 	O 	0.32107 0.72550 0.77166 -0.70000
Ni	Ni	0.28861 0.67058 0.71186 1.09800
O 	O 	0.40475 0.70690 0.85842 -0.37500
O 	O 	0.47200 0.78465 0.80471 -0.41600
O 	O 	0.26052 0.62643 0.85025 -0.37200
Ni	Ni	0.39680 0.81951 0.76068 1.06600
O 	O 	0.25612 0.47074 0.83156 -0.41000
O 	O 	0.45771 0.78946 0.70719 -0.40200
O 	O 	0.27373 0.76592 0.67218 -0.38600
O 	O 	0.30992 0.57822 0.75103 -0.70300
O 	O 	0.37281 0.53710 0.84112 -0.38000
O 	O 	0.24724 0.59474 0.65958 -0.37200
O 	O 	0.16766 0.51710 0.70755 -0.41400
Ni	Ni	0.22263 0.50331 0.76832 1.06300
H 	H 	0.27935 0.74323 0.78617 0.14900
H 	H 	0.34561 0.55025 0.73654 0.15500
C 	C 	0.43242 0.74031 0.67388 0.30000
O 	O 	0.17428 0.58945 0.79552 -0.42100
C 	C 	0.45686 0.76658 0.84797 0.27600
C 	C 	0.31440 0.83767 0.67588 0.29100
C 	C 	0.19390 0.62188 0.83549 0.29000
C 	C 	0.19939 0.52927 0.66710 0.27700
C 	C 	0.32420 0.47069 0.84305 0.28000
O 	O 	0.38793 0.67379 0.68311 -0.39500
O 	O 	0.33390 0.86871 0.71665 -0.42300
O 	O 	0.62999 0.26715 0.35168 -0.37600
O 	O 	0.57151 0.18996 0.29414 -0.41300
Ni	Ni	0.65305 0.17287 0.24907 1.06600
O 	O 	0.59095 0.19740 0.19422 -0.39800
C 	C 	0.60509 0.26103 0.16786 0.30300
C 	C 	0.58397 0.20376 0.33823 0.27500
C 	C 	0.00720 0.62584 0.01917 -0.05500
C 	C 	0.98692 0.64494 0.97689 -0.05300
C 	C 	0.03731 0.64944 0.93757 0.04500
C 	C 	0.01587 0.60538 0.89763 -0.07800
C 	C 	0.06601 0.59993 0.86292 0.01800
C 	C 	0.13816 0.63904 0.86775 -0.09300
C 	C 	0.15806 0.68848 0.90606 0.01800
C 	C 	0.10779 0.69389 0.94073 -0.07600
H 	H 	0.01674 0.67352 0.10803 0.04400
H 	H 	0.06364 0.62493 0.02621 0.04300
H 	H 	0.96111 0.57251 0.89436 0.04500
H 	H 	0.04939 0.56269 0.83324 0.02700
H 	H 	0.21286 0.72112 0.90954 0.02900
H 	H 	0.12408 0.73098 0.97053 0.04600
C 	C 	0.16797 0.48090 0.62730 -0.09200
C 	C 	0.09926 0.43214 0.63065 0.01400
C 	C 	0.06708 0.39187 0.59193 -0.07700
C 	C 	0.10279 0.40025 0.54944 0.04500
C 	C 	0.17326 0.44474 0.54665 -0.07600
C 	C 	0.20561 0.48510 0.58535 0.01600
C 	C 	0.06437 0.36596 0.50767 -0.05400
C 	C 	0.05933 0.41186 0.47073 -0.05300
H 	H 	0.06995 0.42698 0.66288 0.02700
H 	H 	0.20243 0.44916 0.51435 0.04700
H 	H 	0.25953 0.52030 0.58256 0.03400
H 	H 	0.09328 0.47054 0.46823 0.04200
H 	H 	0.07745 0.42501 0.37857 0.04500
C 	C 	0.54086 0.15266 0.37290 -0.09100
C 	C 	0.52802 0.06955 0.36802 0.01300
C 	C 	0.49559 0.02072 0.40378 -0.07000
C 	C 	0.47447 0.05453 0.44434 0.04200
C 	C 	0.48498 0.13772 0.44852 -0.07400
C 	C 	0.51789 0.18649 0.41297 0.02000
C 	C 	0.44918 0.00300 0.48421 -0.04700
C 	C 	0.39022 0.01209 0.50805 -0.05300
C 	C 	0.37056 0.96765 0.55121 0.04500
C 	C 	0.41982 0.97438 0.58787 -0.08300
C 	C 	0.40021 0.93463 0.62928 0.02100
C 	C 	0.33143 0.88704 0.63432 -0.09800
C 	C 	0.28183 0.88116 0.59784 0.02200
C 	C 	0.30112 0.92200 0.55663 -0.07900
H 	H 	0.54557 0.04275 0.33731 0.00900
H 	H 	0.48815 0.95664 0.40031 0.03900
H 	H 	0.46986 0.16460 0.47990 0.04800
H 	H 	0.52689 0.25055 0.41697 0.03600
H 	H 	0.47918 0.95730 0.49426 0.03800
H 	H 	0.35617 0.05228 0.49560 0.04300
H 	H 	0.47319 0.01058 0.58431 0.05200
H 	H 	0.43921 0.93899 0.65697 0.01800
H 	H 	0.22851 0.84480 0.60131 0.03300
H 	H 	0.26240 0.91740 0.52877 0.04600
C 	C 	0.50395 0.80682 0.88461 -0.09500
C 	C 	0.57848 0.83045 0.87709 0.01600
C 	C 	0.62268 0.87069 0.91155 -0.07900
C 	C 	0.59262 0.88882 0.95340 0.04600
C 	C 	0.51838 0.86387 0.96128 -0.07800
C 	C 	0.47428 0.82298 0.92706 0.01600
C 	C 	0.63901 0.93339 0.98913 -0.06000
C 	C 	0.62495 0.00227 0.00547 -0.04800
C 	C 	0.66742 0.04448 0.04368 0.04100
C 	C 	0.69161 0.12692 0.04092 -0.07500
H 	H 	0.60217 0.81738 0.84470 0.03000
H 	H 	0.68008 0.88882 0.90544 0.04600
H 	H 	0.49490 0.87642 0.99385 0.04600
H 	H 	0.41690 0.80492 0.93328 0.02800
H 	H 	0.68578 0.91082 0.00137 0.04100
H 	H 	0.58214 0.02827 0.99015 0.04000
H 	H 	0.68519 0.15832 0.00927 0.04600
C 	C 	0.34027 0.40514 0.87156 -0.09100
C 	C 	0.29604 0.37756 0.90926 0.02000
C 	C 	0.31849 0.32659 0.94148 -0.07700
C 	C 	0.38539 0.30305 0.93637 0.04500
C 	C 	0.42608 0.32419 0.89621 -0.07600
C 	C 	0.40416 0.37610 0.86433 0.01500
C 	C 	0.41565 0.26396 0.97530 -0.05300
C 	C 	0.48337 0.29112 0.98991 -0.05400
C 	C 	0.50382 0.27896 0.03790 0.04700
C 	C 	0.51870 0.20539 0.05227 -0.07700
C 	C 	0.54730 0.19776 0.09620 0.02000
C 	C 	0.56245 0.26411 0.12555 -0.09400
C 	C 	0.54358 0.33627 0.11189 0.02400
C 	C 	0.51490 0.34369 0.06823 -0.07900
H 	H 	0.24612 0.39879 0.91488 0.03500
H 	H 	0.28574 0.30895 0.97170 0.04700
H 	H 	0.47600 0.30297 0.89062 0.04500
H 	H 	0.43780 0.39549 0.83473 0.02000
H 	H 	0.37904 0.22255 0.99672 0.04200
H 	H 	0.51944 0.33460 0.96942 0.04300
H 	H 	0.51027 0.15499 0.02902 0.04600
H 	H 	0.56044 0.14136 0.10660 0.03100
H 	H 	0.55297 0.38733 0.13465 0.03000
H 	H 	0.50283 0.40043 0.05751 0.04900
C 	C 	0.59141 0.58730 0.36147 0.01600
C 	C 	0.55734 0.63000 0.39277 -0.07800
C 	C 	0.59154 0.65699 0.43418 0.04500
C 	C 	0.54812 0.68104 0.47208 -0.05400
C 	C 	0.57406 0.74335 0.49932 -0.05400
C 	C 	0.53831 0.75442 0.54348 0.04500
C 	C 	0.57919 0.76498 0.58408 -0.07800
C 	C 	0.54473 0.76219 0.62679 0.02200
C 	C 	0.46911 0.74873 0.62914 -0.09400
C 	C 	0.42843 0.74297 0.58848 0.01900
C 	C 	0.46295 0.74755 0.54579 -0.07500
H 	H 	0.56298 0.56323 0.33069 0.01800
H 	H 	0.50279 0.63840 0.38599 0.04400
H 	H 	0.49538 0.64490 0.47904 0.04300
H 	H 	0.62632 0.78018 0.49189 0.03900
H 	H 	0.63744 0.77208 0.58263 0.04500
H 	H 	0.57666 0.76804 0.65802 0.03100
H 	H 	0.37010 0.73458 0.58997 0.03400
H 	H 	0.43107 0.74341 0.51458 0.04700
Ni	Ni	0.67996 0.35124 0.30588 1.10000
O 	O 	0.71952 0.27198 0.26510 -0.70100
Ni	Ni	0.74566 0.33773 0.20810 1.09800
O 	O 	0.76873 0.36442 0.34871 -0.37300
O 	O 	0.75707 0.52079 0.33479 -0.41000
O 	O 	0.76858 0.25397 0.16229 -0.38600
O 	O 	0.71620 0.41924 0.25170 -0.70400
O 	O 	0.64667 0.43820 0.34272 -0.37900
O 	O 	0.77807 0.42495 0.16012 -0.37700
O 	O 	0.85703 0.49841 0.21055 -0.41300
Ni	Ni	0.79760 0.49983 0.27124 1.06300
H 	H 	0.76397 0.25860 0.27851 0.15200
H 	H 	0.67746 0.44460 0.23887 0.15600
O 	O 	0.85331 0.41807 0.29595 -0.42200
C 	C 	0.73978 0.17732 0.16470 0.29300
C 	C 	0.83649 0.38169 0.33519 0.29100
C 	C 	0.82870 0.48751 0.16890 0.27500
C 	C 	0.68721 0.50997 0.34483 0.27800
O 	O 	0.64311 0.32742 0.18368 -0.40400
O 	O 	0.72602 0.14174 0.20491 -0.42400
C 	C 	0.86708 0.53251 0.12976 -0.09000
C 	C 	0.92623 0.59450 0.13780 0.01400
C 	C 	0.96951 0.62824 0.10117 -0.07700
C 	C 	0.95355 0.60159 0.05606 0.04500
C 	C 	0.89188 0.54318 0.04764 -0.07500
C 	C 	0.84854 0.50940 0.08420 0.01600
H 	H 	0.94009 0.61489 0.17251 0.02300
H 	H 	0.87930 0.52140 0.01303 0.04700
H 	H 	0.80216 0.46317 0.07714 0.03800
H 	H 	0.93067 0.64738 0.97019 0.04000
C 	C 	0.00426 0.38686 0.43478 0.04500
C 	C 	0.02184 0.40354 0.38851 -0.07700
C 	C 	0.96746 0.39616 0.35522 0.01500
C 	C 	0.89462 0.37327 0.36806 -0.09300
C 	C 	0.87760 0.35078 0.41387 0.01700
C 	C 	0.93199 0.35828 0.44710 -0.07500
H 	H 	0.01325 0.35640 0.59459 0.04500
H 	H 	0.03185 0.30641 0.50947 0.04000
H 	H 	0.98185 0.41122 0.31981 0.03100
H 	H 	0.82198 0.33099 0.42424 0.03900
H 	H 	0.91749 0.34576 0.48277 0.04700
C 	C 	0.67586 0.00448 0.08494 -0.07000
C 	C 	0.70486 0.04721 0.12372 0.01400
C 	C 	0.72490 0.13054 0.12181 -0.09400
C 	C 	0.72089 0.16971 0.07961 0.01700
H 	H 	0.65713 0.94078 0.08753 0.04000
H 	H 	0.70910 0.01578 0.15565 0.02600
H 	H 	0.73644 0.23384 0.07739 0.03700
C 	C 	0.66003 0.57122 0.37129 -0.09500
C 	C 	0.66264 0.64637 0.44228 -0.07700
C 	C 	0.69687 0.60405 0.41078 0.02000
H 	H 	0.68959 0.66640 0.47425 0.04700
H 	H 	0.75008 0.59238 0.41858 0.03300
