data_crystal

_cell_length_a 16.86309
_cell_length_b 17.72595
_cell_length_c 39.96729
_cell_angle_alpha 60.62908
_cell_angle_beta  119.12304
_cell_angle_gamma 133.35123

_symmetry_space_group_name_	'P 1'
_symmetry_space_group_name_H-M	'P 1'

loop_
_symmetry_equiv_pos_as_xyz
  x,y,z

loop_
_atom_site_label
_atom_site_type_symbol
_atom_site_fract_x
_atom_site_fract_y
_atom_site_fract_z
_atom_site_charge
C 	C 	0.66584 0.23655 0.01762 0.00000
C 	C 	0.74631 0.32560 0.03396 -0.05200
C 	C 	0.71706 0.38592 0.03141 0.00900
C 	C 	0.60881 0.35854 0.01217 -0.05600
C 	C 	0.52816 0.26868 0.99671 0.01200
C 	C 	0.55780 0.21022 0.99799 -0.04100
H 	H 	0.83002 0.34584 0.04957 0.04700
H 	H 	0.58566 0.40384 0.01109 0.05400
H 	H 	0.49411 0.13873 0.98682 0.05000
C 	C 	0.66157 0.23817 0.51585 0.00800
C 	C 	0.55355 0.21192 0.49622 -0.04800
C 	C 	0.52385 0.27019 0.49506 0.00700
C 	C 	0.60448 0.35993 0.51058 -0.04800
C 	C 	0.71275 0.38733 0.52980 0.00900
C 	C 	0.74202 0.32711 0.53227 -0.05200
H 	H 	0.48989 0.14054 0.48497 0.05000
H 	H 	0.58129 0.40509 0.50959 0.05400
H 	H 	0.82571 0.34730 0.54789 0.04700
C 	C 	0.30962 0.67848 0.12523 0.01000
C 	C 	0.41864 0.70761 0.14527 -0.04700
C 	C 	0.45392 0.65458 0.14604 0.00700
C 	C 	0.37806 0.56699 0.12938 -0.04700
C 	C 	0.26807 0.53498 0.11015 0.00900
C 	C 	0.23331 0.59096 0.10784 -0.04900
H 	H 	0.47876 0.77713 0.15750 0.05000
H 	H 	0.40571 0.52574 0.13031 0.05400
H 	H 	0.14873 0.56800 0.09209 0.05600
C 	C 	0.30472 0.67926 0.62387 0.01000
C 	C 	0.41368 0.70825 0.64394 -0.04700
C 	C 	0.44896 0.65532 0.64464 0.00700
C 	C 	0.37308 0.56780 0.62794 -0.04700
C 	C 	0.26310 0.53586 0.60870 0.00900
C 	C 	0.22840 0.59185 0.60642 -0.04900
H 	H 	0.47380 0.77767 0.65623 0.05100
H 	H 	0.40072 0.52660 0.62881 0.05400
H 	H 	0.14387 0.56899 0.59065 0.05700
Co	Co	0.03639 0.84796 0.08989 1.19100
Co	Co	0.94140 0.05927 0.05631 1.17700
Co	Co	0.97262 0.91423 0.13237 1.17900
Co	Co	0.00411 0.99296 0.01393 1.19300
C 	C 	0.95056 0.66112 0.06721 0.30600
Co	Co	0.08543 0.87068 0.01419 1.17000
Co	Co	0.89981 0.04884 0.13004 1.15700
C 	C 	0.19866 0.10476 0.98457 0.34000
O 	O 	0.06337 0.11650 0.16234 -0.38400
O 	O 	0.93392 0.99877 0.10381 -0.75100
C 	C 	0.09263 0.05295 0.18825 0.31500
O 	O 	0.01913 0.82469 0.14157 -0.45000
O 	O 	0.96488 0.08771 0.00518 -0.48200
C 	C 	0.04036 0.25282 0.07749 0.35300
O 	O 	0.95058 0.92520 0.06996 -0.58800
C 	C 	0.78823 0.81573 0.16622 0.33000
C 	C 	0.24759 0.89592 0.09003 0.31500
C 	C 	0.89970 0.87141 0.95268 0.31600
O 	O 	0.09880 0.99985 0.17608 -0.37800
O 	O 	0.24125 0.94104 0.05219 -0.39300
O 	O 	0.20344 0.89888 0.10883 -0.38200
O 	O 	0.94653 0.19256 0.08790 -0.43700
O 	O 	0.06441 0.21095 0.06732 -0.39000
O 	O 	0.85066 0.90782 0.17442 -0.41100
O 	O 	0.82759 0.79549 0.15266 -0.39000
O 	O 	0.92405 0.80543 0.98037 -0.39900
O 	O 	0.90102 0.93441 0.96234 -0.37100
O 	O 	0.03226 0.90107 0.04105 -0.74700
C 	C 	0.73496 0.02506 0.05444 0.30400
O 	O 	0.74306 0.97926 0.09246 -0.38000
O 	O 	0.78320 0.02985 0.03463 -0.38000
O 	O 	0.04236 0.72555 0.05488 -0.39200
O 	O 	0.93195 0.69217 0.08497 -0.39100
O 	O 	0.13603 0.01744 0.97296 -0.40300
O 	O 	0.16410 0.11091 0.00573 -0.40400
Co	Co	0.03188 0.84911 0.58846 1.19200
Co	Co	0.93676 0.06052 0.55463 1.18000
Co	Co	0.96781 0.91553 0.63077 1.18100
Co	Co	0.99984 0.99412 0.51245 1.18200
C 	C 	0.94628 0.66223 0.56586 0.30500
Co	Co	0.08130 0.87181 0.51288 1.17300
Co	Co	0.89464 0.05004 0.62821 1.16000
C 	C 	0.19433 0.10581 0.48310 0.33300
O 	O 	0.05818 0.11794 0.66046 -0.38200
O 	O 	0.92915 0.00008 0.60212 -0.76700
C 	C 	0.08759 0.05465 0.68657 0.31300
O 	O 	0.01440 0.82593 0.64009 -0.44800
O 	O 	0.96052 0.08891 0.50357 -0.47800
C 	C 	0.03539 0.25406 0.57573 0.35500
O 	O 	0.94612 0.92647 0.56842 -0.58600
C 	C 	0.78326 0.81696 0.66452 0.33000
C 	C 	0.24325 0.89709 0.58873 0.31400
C 	C 	0.89494 0.87166 0.45136 0.31700
O 	O 	0.09329 0.00056 0.67473 -0.37400
O 	O 	0.23704 0.94229 0.55090 -0.39100
O 	O 	0.19894 0.89998 0.60749 -0.38200
O 	O 	0.94141 0.19376 0.58605 -0.43700
O 	O 	0.05961 0.21224 0.56562 -0.38800
O 	O 	0.84568 0.90914 0.67266 -0.41100
O 	O 	0.82249 0.79679 0.65088 -0.38900
O 	O 	0.91990 0.80620 0.47914 -0.40400
O 	O 	0.89727 0.93577 0.46079 -0.37300
O 	O 	0.02795 0.90223 0.53964 -0.74200
C 	C 	0.73006 0.02623 0.55259 0.30600
O 	O 	0.73799 0.98036 0.59060 -0.38000
O 	O 	0.77848 0.03105 0.53284 -0.37800
O 	O 	0.03819 0.72669 0.55360 -0.38900
O 	O 	0.92746 0.69330 0.58353 -0.39100
O 	O 	0.13168 0.01840 0.47154 -0.40200
O 	O 	0.15987 0.11199 0.50429 -0.39500
C 	C 	0.03350 0.97205 0.79197 0.02500
C 	C 	0.92747 0.88193 0.79946 -0.06200
C 	C 	0.89320 0.86839 0.82883 -0.01600
C 	C 	0.96448 0.94497 0.85088 -0.03300
C 	C 	0.07106 0.03444 0.84374 -0.00000
C 	C 	0.10557 0.04770 0.81451 -0.04700
C 	C 	0.93727 0.92163 0.88546 0.05700
C 	C 	0.91443 0.90204 0.91437 -0.11700
C 	C 	0.05760 0.99856 0.75609 0.04300
C 	C 	0.07690 0.01995 0.72601 -0.09700
H 	H 	0.87027 0.82392 0.78178 0.05200
H 	H 	0.81175 0.79772 0.83472 0.04000
H 	H 	0.12791 0.09288 0.86122 0.04300
H 	H 	0.18698 0.11844 0.80859 0.05000
C 	C 	0.02081 0.96350 0.29028 0.02700
C 	C 	0.09206 0.96925 0.32820 -0.05000
C 	C 	0.06164 0.95657 0.35853 0.00000
C 	C 	0.95981 0.93824 0.35110 -0.03400
C 	C 	0.88800 0.93131 0.31331 -0.01400
C 	C 	0.91835 0.94386 0.28300 -0.06200
C 	C 	0.92542 0.91687 0.38336 0.05800
C 	C 	0.90588 0.89940 0.41271 -0.11800
C 	C 	0.05838 0.99204 0.25754 0.04500
C 	C 	0.07973 0.01591 0.22754 -0.10000
H 	H 	0.17180 0.98550 0.33405 0.05100
H 	H 	0.11709 0.96076 0.38782 0.03600
H 	H 	0.80858 0.91574 0.30741 0.04000
H 	H 	0.86312 0.94017 0.25367 0.04800
C 	C 	0.11966 0.35827 0.58376 -0.10700
C 	C 	0.18469 0.44129 0.59371 0.05500
C 	C 	0.66549 0.75194 0.66042 -0.11500
C 	C 	0.56641 0.70453 0.65458 0.05600
C 	C 	0.27936 0.75141 0.61494 0.05200
C 	C 	0.26314 0.81691 0.60532 -0.10800
C 	C 	0.18966 0.44029 0.09525 0.05500
C 	C 	0.12463 0.35715 0.08539 -0.10800
C 	C 	0.57135 0.70364 0.15606 0.05600
C 	C 	0.67043 0.75088 0.16200 -0.11500
C 	C 	0.28411 0.75051 0.11628 0.05100
C 	C 	0.26769 0.81589 0.10664 -0.10800
C 	C 	0.68301 0.16313 0.52566 0.04600
C 	C 	0.70185 0.09941 0.53626 -0.10900
C 	C 	0.79432 0.47950 0.54569 0.04400
C 	C 	0.86220 0.56057 0.55667 -0.10700
C 	C 	0.40821 0.22245 0.48780 0.05700
C 	C 	0.31047 0.17434 0.48447 -0.11200
C 	C 	0.68739 0.16156 0.02747 0.04700
C 	C 	0.70644 0.09799 0.03810 -0.11100
C 	C 	0.86652 0.55936 0.05813 -0.10800
C 	C 	0.79864 0.47819 0.04722 0.04400
C 	C 	0.41255 0.22112 0.98940 0.05800
C 	C 	0.31482 0.17317 0.98601 -0.11300
