data_crystal

_cell_length_a 15.47181
_cell_length_b 15.93345
_cell_length_c 34.98815
_cell_angle_alpha 95.41403
_cell_angle_beta  95.41545
_cell_angle_gamma 126.69812

_symmetry_space_group_name_	'P 1'
_symmetry_space_group_name_H-M	'P 1'

loop_
_symmetry_equiv_pos_as_xyz
  x,y,z

loop_
_atom_site_label
_atom_site_type_symbol
_atom_site_fract_x
_atom_site_fract_y
_atom_site_fract_z
_atom_site_charge
N 	N 	0.05217 0.11664 0.49845 -0.12800
N 	N 	0.03343 0.95860 0.49694 -0.12600
C 	C 	0.03885 0.99045 0.95555 0.12400
C 	C 	0.09700 0.06453 0.49719 0.10900
C 	C 	0.15414 0.05899 0.95789 0.02300
N 	N 	0.98385 0.03166 0.95608 -0.13600
N 	N 	0.98807 0.88796 0.95886 -0.13400
C 	C 	0.87821 0.97171 0.96093 0.11600
C 	C 	0.88261 0.82579 0.96362 0.11300
N 	N 	0.82635 0.86756 0.96519 -0.13000
C 	C 	0.94339 0.06128 0.49977 0.10300
C 	C 	0.92577 0.90421 0.49824 0.11100
N 	N 	0.88084 0.95536 0.49980 -0.12900
Cu	Cu	0.75998 0.32601 0.96019 0.92400
Cu	Cu	0.73408 0.23099 0.04140 0.86700
Cu	Cu	0.58303 0.27126 0.00793 0.89300
Cu	Cu	0.55787 0.32061 0.92811 0.90200
C 	C 	0.68865 0.29814 0.87786 0.29300
O 	O 	0.82078 0.48522 0.96203 -0.34400
C 	C 	0.64746 0.29718 0.09400 0.29100
O 	O 	0.58855 0.23983 0.95379 -0.63000
O 	O 	0.74173 0.33602 0.01501 -0.64900
O 	O 	0.82236 0.24347 0.96356 -0.35600
O 	O 	0.69526 0.12794 0.99738 -0.42800
O 	O 	0.64873 0.34908 0.88723 -0.37900
O 	O 	0.42711 0.20135 0.99821 -0.37000
C 	C 	0.36747 0.18552 0.96483 0.30400
C 	C 	0.76492 0.51960 0.97286 0.28400
O 	O 	0.66319 0.45023 0.97646 -0.39100
O 	O 	0.40982 0.24982 0.93967 -0.38700
O 	O 	0.75070 0.29346 0.90480 -0.36000
C 	C 	0.76656 0.14991 0.97490 0.28800
O 	O 	0.57471 0.27919 0.06435 -0.37800
O 	O 	0.73240 0.30068 0.08824 -0.42000
H 	H 	0.54153 0.16286 0.94229 0.16500
H 	H 	0.78965 0.40929 0.03065 0.17200
Cu	Cu	0.61438 0.20789 0.51033 0.92700
Cu	Cu	0.69069 0.21860 0.42545 0.87200
Cu	Cu	0.67224 0.37917 0.46266 0.89900
Cu	Cu	0.63560 0.41092 0.54379 0.90000
C 	C 	0.65867 0.28152 0.59318 0.29300
O 	O 	0.45797 0.15493 0.51287 -0.35500
C 	C 	0.62575 0.31109 0.37605 0.29200
O 	O 	0.71013 0.37405 0.51594 -0.63700
O 	O 	0.59443 0.22286 0.45549 -0.64200
O 	O 	0.68216 0.13445 0.50313 -0.37000
O 	O 	0.79939 0.25102 0.46725 -0.43800
O 	O 	0.61067 0.32563 0.58554 -0.37700
O 	O 	0.75686 0.53173 0.47251 -0.38300
C 	C 	0.75088 0.58989 0.49995 0.30900
C 	C 	0.42179 0.20723 0.50137 0.29100
O 	O 	0.49165 0.30738 0.49843 -0.39500
O 	O 	0.71440 0.55658 0.53217 -0.38900
O 	O 	0.65740 0.21899 0.56513 -0.35900
C 	C 	0.77520 0.18246 0.49023 0.30100
O 	O 	0.65761 0.38641 0.40632 -0.38000
O 	O 	0.61651 0.22505 0.38055 -0.41500
H 	H 	0.78996 0.41712 0.52607 0.17000
H 	H 	0.51734 0.17988 0.44155 0.17600
C 	C 	0.75094 0.36509 0.70299 -0.07200
C 	C 	0.70379 0.26615 0.71420 0.01400
C 	C 	0.65478 0.17424 0.68533 -0.00500
C 	C 	0.64573 0.18083 0.64565 -0.00000
C 	C 	0.68687 0.27888 0.63443 -0.08700
C 	C 	0.74484 0.37226 0.66338 0.05700
C 	C 	0.69743 0.25838 0.75592 0.01500
S 	S 	0.60536 0.05091 0.69847 -0.03300
H 	H 	0.60361 0.10913 0.62357 0.04900
S 	S 	0.81345 0.49881 0.65045 -0.06600
H 	H 	0.79129 0.43639 0.72513 0.05500
C 	C 	0.79251 0.30201 0.78403 -0.00600
C 	C 	0.78791 0.30970 0.82395 0.00100
C 	C 	0.68862 0.27228 0.83612 -0.08900
C 	C 	0.59172 0.21995 0.80782 0.05800
C 	C 	0.59703 0.21518 0.76803 -0.07100
S 	S 	0.91738 0.34685 0.76964 -0.03200
H 	H 	0.86224 0.34773 0.84549 0.04900
S 	S 	0.46293 0.15706 0.82177 -0.07000
H 	H 	0.52321 0.17907 0.74645 0.05700
H 	H 	0.91790 0.53697 0.64678 0.03800
H 	H 	0.97418 0.45163 0.76625 0.03700
H 	H 	0.41990 0.05419 0.82454 0.03800
H 	H 	0.68879 0.04268 0.70321 0.04000
C 	C 	0.60134 0.38270 0.19019 -0.07300
C 	C 	0.60674 0.31803 0.21331 0.01300
C 	C 	0.61917 0.24274 0.19647 -0.00600
C 	C 	0.62826 0.23434 0.15714 -0.00400
C 	C 	0.62678 0.30138 0.13426 -0.09300
C 	C 	0.61261 0.37576 0.15091 0.05700
C 	C 	0.60593 0.33369 0.25569 0.01200
S 	S 	0.62712 0.16089 0.22470 -0.04500
H 	H 	0.63844 0.17667 0.14443 0.02700
S 	S 	0.61498 0.46446 0.12374 -0.04500
H 	H 	0.59187 0.44072 0.20309 0.05200
C 	C 	0.70427 0.41066 0.28265 -0.00600
C 	C 	0.70725 0.40892 0.32270 -0.00500
C 	C 	0.61359 0.32972 0.33611 -0.09200
C 	C 	0.51311 0.25867 0.30952 0.05700
C 	C 	0.50959 0.26166 0.26952 -0.07300
S 	S 	0.82530 0.50620 0.26648 -0.04400
H 	H 	0.78411 0.46533 0.34318 0.03600
S 	S 	0.39153 0.16553 0.32593 -0.05300
H 	H 	0.43312 0.20434 0.24896 0.05300
H 	H 	0.72108 0.55443 0.12759 0.03500
H 	H 	0.82951 0.59364 0.26344 0.03600
H 	H 	0.34188 0.21068 0.33526 0.03800
H 	H 	0.73378 0.21383 0.24291 0.03400
C 	C 	0.86026 0.79317 0.49853 0.02800
C 	C 	0.80838 0.69993 0.49900 -0.08300
C 	C 	0.89156 0.11166 0.49782 0.02500
C 	C 	0.84013 0.14594 0.49515 -0.09400
C 	C 	0.30803 0.16126 0.49908 -0.08300
C 	C 	0.21231 0.12106 0.49793 0.02300
C 	C 	0.83331 0.71643 0.96773 0.02000
C 	C 	0.80354 0.62736 0.97038 -0.07600
C 	C 	0.82662 0.02362 0.96500 0.01600
C 	C 	0.79722 0.07956 0.96870 -0.08100
C 	C 	0.25169 0.11652 0.96087 -0.08000
