data_crystal

_cell_length_a 22.57292
_cell_length_b 22.94631
_cell_length_c 26.91351
_cell_angle_alpha 90.00147
_cell_angle_beta  90.00652
_cell_angle_gamma 92.71740

_symmetry_space_group_name_	'P 1'
_symmetry_space_group_name_H-M	'P 1'

loop_
_symmetry_equiv_pos_as_xyz
  x,y,z

loop_
_atom_site_label
_atom_site_type_symbol
_atom_site_fract_x
_atom_site_fract_y
_atom_site_fract_z
_atom_site_charge
C 	C 	0.88085 0.97270 0.04267 -0.04100
C 	C 	0.88710 0.03276 0.03473 -0.04100
C 	C 	0.92959 0.93730 0.03664 0.00600
C 	C 	0.98627 0.96388 0.02634 -0.00800
C 	C 	0.99235 0.02473 0.01755 -0.00700
C 	C 	0.94178 0.05869 0.01883 0.00600
C 	C 	0.03675 0.92978 0.02487 0.00700
C 	C 	0.09321 0.95741 0.01711 -0.04200
C 	C 	0.04901 0.05153 0.00767 0.00700
C 	C 	0.94708 0.11823 0.00476 -0.00800
C 	C 	0.00308 0.14425 0.99437 -0.04800
C 	C 	0.05414 0.11218 0.99726 -0.01000
C 	C 	0.92323 0.87582 0.04192 -0.00900
C 	C 	0.97343 0.84238 0.03983 -0.04700
C 	C 	0.02981 0.86857 0.03144 -0.01000
C 	C 	0.89428 0.15341 0.99908 0.01000
C 	C 	0.85014 0.13715 0.96432 -0.04500
C 	C 	0.79878 0.16849 0.96114 -0.04100
C 	C 	0.79257 0.21805 0.99084 0.00100
C 	C 	0.83902 0.23726 0.02229 -0.03900
C 	C 	0.88892 0.20415 0.02750 -0.04500
C 	C 	0.11260 0.14344 0.99086 0.01100
C 	C 	0.14364 0.16513 0.03263 -0.04500
C 	C 	0.19334 0.20330 0.02672 -0.04000
C 	C 	0.13279 0.15886 0.94307 -0.04600
C 	C 	0.18257 0.19702 0.93717 -0.04000
C 	C 	0.21210 0.22051 0.97899 0.00200
C 	C 	0.86406 0.84520 0.04623 0.01100
C 	C 	0.84798 0.81592 0.09039 -0.04600
C 	C 	0.79706 0.77867 0.09194 -0.04100
C 	C 	0.76130 0.77106 0.04956 0.00400
C 	C 	0.77647 0.80156 0.00583 -0.04000
C 	C 	0.82759 0.83850 0.00417 -0.04500
C 	C 	0.08092 0.83104 0.02831 0.01300
C 	C 	0.10531 0.81799 0.98192 -0.04700
C 	C 	0.15480 0.78387 0.97913 -0.04200
C 	C 	0.17967 0.76204 0.02267 0.00300
C 	C 	0.15361 0.77286 0.06882 -0.04000
C 	C 	0.10475 0.80778 0.07170 -0.04600
C 	C 	0.09914 0.01730 0.00806 -0.04100
H 	H 	0.85492 0.09926 0.94090 0.03900
H 	H 	0.76371 0.15420 0.93581 0.03500
H 	H 	0.83623 0.27755 0.04289 0.03400
H 	H 	0.92353 0.21798 0.05341 0.03700
H 	H 	0.74938 0.79562 0.97282 0.03500
H 	H 	0.83983 0.86049 0.96980 0.03800
H 	H 	0.78596 0.75497 0.12575 0.03500
H 	H 	0.87601 0.82052 0.12297 0.03800
H 	H 	0.08652 0.83511 0.94819 0.03900
H 	H 	0.17421 0.77491 0.94329 0.03500
H 	H 	0.08552 0.81695 0.10757 0.03800
H 	H 	0.17162 0.75472 0.10245 0.03600
H 	H 	0.12826 0.15369 0.06966 0.03900
H 	H 	0.21654 0.22043 0.05921 0.03600
H 	H 	0.10900 0.14252 0.91060 0.03800
H 	H 	0.19752 0.20909 0.90017 0.03400
H 	H 	0.83817 0.95409 0.05446 0.03900
H 	H 	0.84945 0.05906 0.04175 0.03900
H 	H 	0.00704 0.19008 0.98435 0.04100
H 	H 	0.14298 0.03678 0.00115 0.03900
H 	H 	0.13287 0.93274 0.01813 0.03900
H 	H 	0.96844 0.79534 0.04378 0.04200
C 	C 	0.90329 0.98254 0.47490 -0.04200
C 	C 	0.90983 0.04264 0.46763 -0.04100
C 	C 	0.95338 0.94892 0.48094 0.00600
C 	C 	0.01081 0.97637 0.47730 -0.00800
C 	C 	0.01740 0.03750 0.47031 -0.00700
C 	C 	0.96661 0.07106 0.46740 0.00600
C 	C 	0.06159 0.94282 0.48090 0.00700
C 	C 	0.11842 0.97072 0.47657 -0.04200
C 	C 	0.07479 0.06499 0.46643 0.00600
C 	C 	0.97351 0.13256 0.46404 -0.01000
C 	C 	0.03023 0.15942 0.45973 -0.04700
C 	C 	0.08086 0.12649 0.46085 -0.01000
C 	C 	0.94728 0.88810 0.48999 -0.01000
C 	C 	0.99776 0.85534 0.49354 -0.04700
C 	C 	0.05455 0.88185 0.48881 -0.01000
C 	C 	0.92210 0.16959 0.46862 0.01200
C 	C 	0.90216 0.20015 0.42722 -0.04600
C 	C 	0.85288 0.23440 0.43141 -0.04000
C 	C 	0.82337 0.23838 0.47705 0.00200
C 	C 	0.84286 0.20720 0.51827 -0.04100
C 	C 	0.89277 0.17386 0.51434 -0.04600
C 	C 	0.13988 0.15756 0.45853 0.01200
C 	C 	0.17438 0.16441 0.50171 -0.04600
C 	C 	0.22662 0.19967 0.50105 -0.04100
C 	C 	0.15835 0.18599 0.41460 -0.04600
C 	C 	0.20989 0.22235 0.41428 -0.04000
C 	C 	0.24412 0.22946 0.45755 0.00300
C 	C 	0.88840 0.85801 0.49646 0.01200
C 	C 	0.86168 0.85544 0.54353 -0.04600
C 	C 	0.80911 0.82176 0.55084 -0.04100
C 	C 	0.78277 0.79069 0.51106 0.00300
C 	C 	0.80924 0.79370 0.46390 -0.04100
C 	C 	0.86173 0.82741 0.45659 -0.04600
C 	C 	0.10623 0.84524 0.49282 0.01200
C 	C 	0.13685 0.82934 0.44994 -0.04600
C 	C 	0.18695 0.79627 0.45394 -0.04100
C 	C 	0.20609 0.77808 0.50076 0.00200
C 	C 	0.17403 0.79191 0.54342 -0.04000
C 	C 	0.12463 0.82598 0.53952 -0.04600
C 	C 	0.12482 0.03065 0.46825 -0.04100
H 	H 	0.92463 0.19708 0.39182 0.03800
H 	H 	0.83768 0.25793 0.39930 0.03500
H 	H 	0.81982 0.20956 0.55348 0.03400
H 	H 	0.90811 0.15056 0.54653 0.03900
H 	H 	0.78936 0.76955 0.43306 0.03700
H 	H 	0.88228 0.82888 0.42021 0.03900
H 	H 	0.78922 0.81929 0.58746 0.03500
H 	H 	0.88224 0.87864 0.57459 0.03800
H 	H 	0.12236 0.84347 0.41369 0.03900
H 	H 	0.21101 0.78489 0.42077 0.03500
H 	H 	0.10064 0.83743 0.57271 0.03800
H 	H 	0.18748 0.77637 0.57951 0.03500
H 	H 	0.16013 0.14324 0.53595 0.03900
H 	H 	0.25255 0.20529 0.53474 0.03600
H 	H 	0.13170 0.18146 0.38123 0.03800
H 	H 	0.22226 0.24625 0.38087 0.03400
H 	H 	0.85900 0.96228 0.47530 0.03900
H 	H 	0.87045 0.06686 0.46170 0.04000
H 	H 	0.03511 0.20658 0.45692 0.04100
H 	H 	0.16903 0.05011 0.46334 0.03900
H 	H 	0.15803 0.94620 0.47959 0.03900
H 	H 	0.99280 0.80870 0.50014 0.04200
Ni	Ni	0.45843 0.52849 0.04658 1.09700
O 	O 	0.52557 0.47289 0.03580 -0.70500
Ni	Ni	0.52001 0.46005 0.96162 1.09500
O 	O 	0.46443 0.52741 0.12275 -0.36900
O 	O 	0.46816 0.42896 0.13037 -0.41300
O 	O 	0.51763 0.59983 0.05120 -0.37700
Ni	Ni	0.50767 0.39664 0.06704 1.06200
O 	O 	0.43277 0.64286 0.99185 -0.41400
O 	O 	0.42501 0.39039 0.03661 -0.42300
O 	O 	0.58737 0.40447 0.95676 -0.39700
O 	O 	0.45361 0.51614 0.97217 -0.70400
O 	O 	0.39122 0.58388 0.05174 -0.38200
O 	O 	0.51396 0.46166 0.88525 -0.37400
O 	O 	0.51817 0.56092 0.87994 -0.41500
Ni	Ni	0.47265 0.59215 0.94066 1.06400
H 	H 	0.56501 0.48953 0.04577 0.15100
H 	H 	0.41412 0.49976 0.96193 0.15300
C 	C 	0.41711 0.37681 0.98980 0.29200
O 	O 	0.55418 0.60252 0.97242 -0.41900
C 	C 	0.48002 0.48155 0.14791 0.27900
C 	C 	0.58809 0.35907 0.98642 0.28900
C 	C 	0.56177 0.61065 0.02016 0.29000
C 	C 	0.50706 0.50965 0.85956 0.27800
C 	C 	0.38596 0.62440 0.01777 0.28800
O 	O 	0.45862 0.39005 0.95664 -0.37700
O 	O 	0.54105 0.34442 0.01347 -0.42000
Ni	Ni	0.48345 0.54395 0.54300 1.09600
O 	O 	0.55051 0.48828 0.53378 -0.70700
Ni	Ni	0.54521 0.47198 0.46018 1.09700
O 	O 	0.49206 0.54667 0.61898 -0.37300
O 	O 	0.48740 0.44771 0.62752 -0.41800
O 	O 	0.54259 0.61582 0.54398 -0.37000
Ni	Ni	0.53343 0.41380 0.56810 1.06200
O 	O 	0.45669 0.65489 0.48469 -0.41500
O 	O 	0.45139 0.40080 0.53717 -0.42000
O 	O 	0.61374 0.41796 0.45684 -0.38500
O 	O 	0.47700 0.52676 0.46919 -0.70300
O 	O 	0.41589 0.59916 0.54702 -0.38700
O 	O 	0.53829 0.46832 0.38412 -0.37100
O 	O 	0.53405 0.56611 0.37260 -0.41200
Ni	Ni	0.49362 0.60108 0.43426 1.06500
H 	H 	0.58988 0.50551 0.54313 0.15200
H 	H 	0.43786 0.50892 0.45980 0.15200
C 	C 	0.44373 0.38955 0.48996 0.29200
O 	O 	0.57593 0.61076 0.46433 -0.42500
C 	C 	0.49806 0.49990 0.64634 0.27900
C 	C 	0.61859 0.37708 0.49058 0.28700
C 	C 	0.58399 0.62718 0.51045 0.29300
C 	C 	0.52269 0.51262 0.35703 0.28000
C 	C 	0.41048 0.63850 0.51208 0.29100
O 	O 	0.48741 0.39950 0.45838 -0.38000
O 	O 	0.57251 0.36053 0.51824 -0.41800
C 	C 	0.50543 0.50596 0.80504 -0.08300
C 	C 	0.55791 0.51385 0.77643 0.04400
C 	C 	0.55403 0.51458 0.72442 -0.03400
C 	C 	0.49922 0.50616 0.70061 -0.08300
C 	C 	0.44666 0.49886 0.72911 0.04300
C 	C 	0.45037 0.49919 0.78120 -0.03400
H 	H 	0.59420 0.51948 0.70238 0.02500
H 	H 	0.41017 0.49486 0.80324 0.02500
C 	C 	0.61868 0.51521 0.80044 -0.07200
C 	C 	0.38610 0.49431 0.70459 -0.06900
C 	C 	0.64319 0.45441 0.80054 -0.13500
H 	H 	0.61815 0.53225 0.83900 0.05200
H 	H 	0.64963 0.54520 0.77941 0.03800
H 	H 	0.61065 0.42257 0.81754 0.06100
H 	H 	0.68505 0.45487 0.82222 0.04700
H 	H 	0.65261 0.44034 0.76196 0.04500
C 	C 	0.36336 0.55464 0.69392 -0.14000
H 	H 	0.35375 0.47040 0.72925 0.03500
H 	H 	0.38688 0.46880 0.66959 0.04900
H 	H 	0.35938 0.57964 0.72902 0.05100
H 	H 	0.31893 0.54995 0.67625 0.05100
H 	H 	0.39374 0.57934 0.66824 0.07300
C 	C 	0.49194 0.48823 0.20133 -0.08100
C 	C 	0.54702 0.51233 0.21851 0.02700
C 	C 	0.55613 0.52001 0.26968 -0.02200
C 	C 	0.51171 0.50309 0.30384 -0.08100
C 	C 	0.45684 0.47838 0.28675 0.02800
C 	C 	0.44775 0.47057 0.23553 -0.02300
H 	H 	0.59805 0.53915 0.28298 0.04100
H 	H 	0.40588 0.45136 0.22222 0.04100
C 	C 	0.59629 0.53073 0.18273 -0.05500
C 	C 	0.40773 0.45964 0.32267 -0.05700
C 	C 	0.59476 0.59554 0.17023 -0.15100
H 	H 	0.59379 0.50469 0.14797 0.01500
H 	H 	0.64001 0.52236 0.19966 0.03100
H 	H 	0.55217 0.60531 0.15214 0.07900
H 	H 	0.63160 0.60783 0.14441 0.05800
H 	H 	0.60027 0.62230 0.20446 0.05800
C 	C 	0.41113 0.39543 0.33675 -0.14900
H 	H 	0.36383 0.46611 0.30529 0.03200
H 	H 	0.40901 0.48676 0.35689 0.01800
H 	H 	0.40631 0.36741 0.30319 0.05600
H 	H 	0.37466 0.38306 0.36294 0.05700
H 	H 	0.45404 0.38742 0.35507 0.07600
C 	C 	0.25860 0.74280 0.50487 0.00900
C 	C 	0.31526 0.76893 0.51541 -0.01100
C 	C 	0.36408 0.73365 0.51942 -0.00200
C 	C 	0.35762 0.67337 0.51122 -0.10600
C 	C 	0.30119 0.64751 0.49940 0.06100
C 	C 	0.25211 0.68257 0.49673 -0.08200
H 	H 	0.40742 0.75331 0.52837 0.03700
H 	H 	0.20880 0.66306 0.48749 0.04700
C 	C 	0.32438 0.83423 0.52294 -0.05200
C 	C 	0.29339 0.58335 0.48639 -0.09200
C 	C 	0.32358 0.84995 0.57803 -0.14300
H 	H 	0.29059 0.85894 0.50299 0.03800
H 	H 	0.36794 0.84937 0.50709 0.03300
H 	H 	0.28036 0.83625 0.59502 0.05600
H 	H 	0.33045 0.89791 0.58236 0.05000
H 	H 	0.35968 0.82848 0.59803 0.05500
C 	C 	0.31096 0.57214 0.43253 -0.11600
H 	H 	0.24640 0.56776 0.49163 0.04100
H 	H 	0.31966 0.55664 0.51172 0.04200
H 	H 	0.28348 0.59746 0.40684 0.04300
H 	H 	0.30371 0.52504 0.42386 0.03600
H 	H 	0.35851 0.58455 0.42629 0.00600
C 	C 	0.63141 0.67162 0.52125 -0.09600
C 	C 	0.68678 0.65580 0.54025 0.06000
C 	C 	0.73551 0.69615 0.53831 -0.07900
C 	C 	0.72919 0.75239 0.51924 0.00900
C 	C 	0.67250 0.76987 0.50457 -0.00800
C 	C 	0.62402 0.72923 0.50598 -0.00400
H 	H 	0.77876 0.68326 0.55054 0.04700
H 	H 	0.58078 0.74195 0.49355 0.03200
C 	C 	0.69488 0.59575 0.56165 -0.08300
C 	C 	0.66251 0.83235 0.48971 -0.05200
C 	C 	0.71388 0.55334 0.52164 -0.13200
H 	H 	0.65354 0.57859 0.57990 0.03400
H 	H 	0.72936 0.59824 0.59120 0.03800
H 	H 	0.67979 0.54856 0.49199 0.04300
H 	H 	0.71966 0.50991 0.53860 0.03600
H 	H 	0.75674 0.56891 0.50487 0.05200
C 	C 	0.65121 0.86981 0.53527 -0.14300
H 	H 	0.62358 0.83386 0.46449 0.03200
H 	H 	0.70073 0.85181 0.46855 0.03800
H 	H 	0.61143 0.85232 0.55568 0.05600
H 	H 	0.64336 0.91513 0.52337 0.05000
H 	H 	0.69010 0.87088 0.56057 0.05600
C 	C 	0.77098 0.27393 0.48130 0.01000
C 	C 	0.77489 0.32958 0.50409 -0.01100
C 	C 	0.72392 0.36186 0.50779 -0.00900
C 	C 	0.66973 0.34018 0.48839 -0.10800
C 	C 	0.66608 0.28521 0.46444 0.07000
C 	C 	0.71662 0.25201 0.46217 -0.08500
H 	H 	0.72671 0.40458 0.52504 0.01500
H 	H 	0.71381 0.20927 0.44488 0.04700
C 	C 	0.83386 0.35702 0.52114 -0.05100
C 	C 	0.60869 0.26125 0.44127 -0.08200
C 	C 	0.86513 0.39032 0.47882 -0.14300
H 	H 	0.86345 0.32403 0.53614 0.03700
H 	H 	0.82669 0.38792 0.55216 0.02900
H 	H 	0.87464 0.36044 0.44769 0.05700
H 	H 	0.90777 0.41050 0.49243 0.05000
H 	H 	0.83717 0.42548 0.46502 0.05500
C 	C 	0.57385 0.22146 0.47741 -0.12800
H 	H 	0.61871 0.23570 0.40743 0.04100
H 	H 	0.58032 0.29660 0.42861 0.06200
H 	H 	0.59992 0.18324 0.48727 0.04800
H 	H 	0.53170 0.20544 0.45973 0.04700
H 	H 	0.56308 0.24536 0.51185 0.05900
C 	C 	0.29456 0.27292 0.45902 0.00700
C 	C 	0.35239 0.25812 0.44491 -0.00900
C 	C 	0.40019 0.29871 0.45217 -0.00800
C 	C 	0.39148 0.35283 0.47459 -0.10000
C 	C 	0.33322 0.36855 0.48656 0.05300
C 	C 	0.28535 0.32844 0.47835 -0.07800
H 	H 	0.44462 0.28725 0.44187 0.03700
H 	H 	0.24084 0.33999 0.48829 0.04600
C 	C 	0.36371 0.20014 0.42061 -0.05300
C 	C 	0.32121 0.42774 0.50826 -0.06700
C 	C 	0.36412 0.20578 0.36410 -0.14200
H 	H 	0.33047 0.16542 0.43182 0.03800
H 	H 	0.40745 0.18500 0.43286 0.03200
H 	H 	0.32076 0.22015 0.35049 0.05400
H 	H 	0.37251 0.16283 0.34717 0.04900
H 	H 	0.39973 0.23779 0.35203 0.05200
C 	C 	0.31147 0.42429 0.56437 -0.14100
H 	H 	0.28076 0.44446 0.49073 0.03300
H 	H 	0.35761 0.46039 0.50010 0.02100
H 	H 	0.27122 0.39639 0.57297 0.05300
H 	H 	0.30521 0.46871 0.57929 0.04800
H 	H 	0.35021 0.40611 0.58324 0.06500
C 	C 	0.23296 0.72765 0.01988 0.00900
C 	C 	0.29028 0.75427 0.02632 -0.01000
C 	C 	0.33970 0.71953 0.02617 -0.00300
C 	C 	0.33302 0.65925 0.01800 -0.10400
C 	C 	0.27588 0.63301 0.00932 0.06300
C 	C 	0.22632 0.66762 0.01065 -0.08200
H 	H 	0.38357 0.73953 0.03251 0.03700
H 	H 	0.18240 0.64784 0.00419 0.04700
C 	C 	0.29949 0.81954 0.03404 -0.05200
C 	C 	0.26747 0.56905 0.99534 -0.09300
C 	C 	0.30488 0.83452 0.08916 -0.14300
H 	H 	0.26325 0.84407 0.01730 0.03800
H 	H 	0.34086 0.83540 0.01493 0.03200
H 	H 	0.26396 0.82012 0.10941 0.05700
H 	H 	0.31171 0.88248 0.09359 0.05000
H 	H 	0.34337 0.81324 0.10582 0.05500
C 	C 	0.28109 0.55936 0.94048 -0.11800
H 	H 	0.22095 0.55317 0.00257 0.04300
H 	H 	0.29547 0.54138 0.01851 0.04500
H 	H 	0.25157 0.58505 0.91682 0.04300
H 	H 	0.27354 0.51239 0.93131 0.03600
H 	H 	0.32804 0.57236 0.93207 0.01200
C 	C 	0.71119 0.72696 0.04945 0.00700
C 	C 	0.65411 0.74079 0.06624 -0.00800
C 	C 	0.60616 0.70013 0.05973 -0.00800
C 	C 	0.61436 0.64602 0.03703 -0.09900
C 	C 	0.67239 0.63036 0.02421 0.05800
C 	C 	0.72019 0.67123 0.03037 -0.07900
H 	H 	0.56187 0.71178 0.07025 0.04000
H 	H 	0.76453 0.65974 0.01985 0.04700
C 	C 	0.64290 0.79982 0.08865 -0.05300
C 	C 	0.68484 0.56879 0.00809 -0.07700
C 	C 	0.62517 0.84298 0.04878 -0.14300
H 	H 	0.68232 0.81797 0.10907 0.03700
H 	H 	0.60659 0.79525 0.11650 0.03400
H 	H 	0.66124 0.85000 0.02110 0.05600
H 	H 	0.61652 0.88552 0.06635 0.05000
H 	H 	0.58416 0.82658 0.02950 0.05400
C 	C 	0.69849 0.53094 0.05286 -0.13500
H 	H 	0.72357 0.56974 0.98252 0.03900
H 	H 	0.64745 0.54777 0.98698 0.03200
H 	H 	0.73884 0.54864 0.07234 0.05000
H 	H 	0.70630 0.48584 0.04030 0.04100
H 	H 	0.66065 0.52929 0.07917 0.03800
C 	C 	0.73757 0.25013 0.98862 0.00900
C 	C 	0.69864 0.25154 0.02973 -0.01000
C 	C 	0.65080 0.28820 0.02823 -0.00700
C 	C 	0.63797 0.31938 0.98495 -0.11000
C 	C 	0.67237 0.31121 0.94138 0.06600
C 	C 	0.72374 0.27926 0.94472 -0.08400
H 	H 	0.62284 0.29176 0.06075 0.01100
H 	H 	0.75236 0.27581 0.91259 0.04600
C 	C 	0.70529 0.21179 0.07427 -0.05400
C 	C 	0.65263 0.33136 0.89054 -0.07800
C 	C 	0.72823 0.24568 0.11976 -0.14100
H 	H 	0.73486 0.17557 0.06655 0.03900
H 	H 	0.66127 0.19073 0.08345 0.03200
H 	H 	0.77177 0.26821 0.11195 0.05200
H 	H 	0.73374 0.21502 0.15116 0.04900
H 	H 	0.69626 0.27849 0.13117 0.04500
C 	C 	0.59586 0.29846 0.87319 -0.13100
H 	H 	0.68747 0.32382 0.86234 0.03600
H 	H 	0.64761 0.37901 0.88999 0.05600
H 	H 	0.60133 0.25062 0.87463 0.05100
H 	H 	0.58616 0.31079 0.83424 0.05000
H 	H 	0.55742 0.30940 0.89647 0.06900
C 	C 	0.36553 0.33827 0.97592 -0.10200
C 	C 	0.37134 0.27755 0.96868 0.06700
C 	C 	0.32025 0.24015 0.96717 -0.08300
C 	C 	0.26381 0.26206 0.97296 0.01000
C 	C 	0.25777 0.32305 0.97696 -0.00900
C 	C 	0.30883 0.36061 0.97780 -0.00500
H 	H 	0.32467 0.19348 0.96348 0.04700
H 	H 	0.30440 0.40725 0.98176 0.02000
C 	C 	0.43160 0.25132 0.96604 -0.08800
C 	C 	0.19726 0.34892 0.97817 -0.05300
C 	C 	0.45166 0.23168 0.01731 -0.11800
H 	H 	0.46553 0.28209 0.94972 0.06600
H 	H 	0.42938 0.21282 0.94090 0.04200
H 	H 	0.45205 0.26844 0.04414 0.04200
H 	H 	0.49718 0.21556 0.01475 0.05000
H 	H 	0.42144 0.19576 0.03134 0.04600
C 	C 	0.17544 0.36112 0.92571 -0.14200
H 	H 	0.19959 0.39057 0.99937 0.03300
H 	H 	0.16408 0.31994 0.99769 0.03900
H 	H 	0.20666 0.39259 0.90658 0.05100
H 	H 	0.13123 0.38026 0.92760 0.04900
H 	H 	0.17127 0.32014 0.90378 0.05500
