data_crystal

_cell_length_a 45.42516
_cell_length_b 37.98595
_cell_length_c 26.93788
_cell_angle_alpha 89.95314
_cell_angle_beta  89.93410
_cell_angle_gamma 90.50464

_symmetry_space_group_name_	'P 1'
_symmetry_space_group_name_H-M	'P 1'

loop_
_symmetry_equiv_pos_as_xyz
  x,y,z

loop_
_atom_site_label
_atom_site_type_symbol
_atom_site_fract_x
_atom_site_fract_y
_atom_site_fract_z
_atom_site_charge
Zn	Zn	0.49230 0.48853 0.02362 1.22000
C 	C 	0.50958 0.56177 0.01869 0.31000
O 	O 	0.51776 0.46996 0.07600 -0.47600
O 	O 	0.48971 0.56642 0.05361 -0.45000
O 	O 	0.52779 0.52123 0.11532 -0.49300
C 	C 	0.43629 0.51239 0.05542 0.32300
O 	O 	0.45409 0.51040 0.01721 -0.45500
O 	O 	0.44709 0.51349 0.10063 -0.50200
C 	C 	0.53652 0.49067 0.09873 0.34100
O 	O 	0.46662 0.43452 0.02156 -0.33300
Zn	Zn	0.48620 0.53329 0.11408 1.17000
O 	O 	0.51623 0.52975 0.00379 -0.43400
C 	C 	0.48091 0.42869 0.98072 0.28700
O 	O 	0.49895 0.45352 0.96704 -0.37800
Zn	Zn	0.41254 0.05454 0.00201 1.22000
C 	C 	0.35279 0.02704 0.00601 0.31500
O 	O 	0.43268 0.03830 0.06247 -0.47100
O 	O 	0.36270 0.99839 0.98470 -0.43500
O 	O 	0.40067 0.99286 0.07493 -0.46300
C 	C 	0.42173 0.01061 0.91774 0.29700
O 	O 	0.40774 0.03851 0.93372 -0.44300
O 	O 	0.42512 0.98337 0.94714 -0.48200
C 	C 	0.42162 0.01370 0.09151 0.38000
O 	O 	0.45684 0.08213 0.97511 -0.32500
Zn	Zn	0.40170 0.97616 0.00683 1.17800
O 	O 	0.37139 0.05036 0.02429 -0.43500
C 	C 	0.44366 0.11116 0.98664 0.30700
O 	O 	0.41719 0.10773 0.00361 -0.39200
C 	C 	0.53355 0.99758 0.68829 0.14800
C 	C 	0.56009 0.99321 0.71413 -0.09400
H 	H 	0.58017 0.98780 0.69386 0.07300
C 	C 	0.56053 0.99541 0.76608 0.03300
C 	C 	0.53442 0.00209 0.79208 -0.09100
C 	C 	0.50782 0.00599 0.76645 0.13200
C 	C 	0.50742 0.00394 0.71451 -0.11300
H 	H 	0.48687 0.00670 0.69455 0.09100
N 	N 	0.53299 0.99456 0.63511 -0.17800
C 	C 	0.52689 0.96250 0.61382 0.19100
C 	C 	0.52593 0.95908 0.56179 -0.05500
C 	C 	0.53140 0.98880 0.53198 0.03100
C 	C 	0.53774 0.02141 0.55429 -0.05600
C 	C 	0.53843 0.02380 0.60645 0.19200
C 	C 	0.51956 0.92647 0.53924 -0.01100
C 	C 	0.51864 0.92361 0.48750 -0.01000
C 	C 	0.52410 0.95330 0.45744 -0.05800
C 	C 	0.53051 0.98590 0.47975 0.03100
C 	C 	0.53602 0.01560 0.44993 -0.05700
C 	C 	0.54325 0.05109 0.52423 -0.01100
C 	C 	0.54240 0.04821 0.47248 -0.01100
C 	C 	0.52325 0.95095 0.40529 0.19100
N 	N 	0.52871 0.98018 0.37662 -0.17600
C 	C 	0.53504 0.01219 0.39790 0.19200
C 	C 	0.52783 0.97722 0.32344 0.12700
C 	C 	0.55327 0.96786 0.29711 -0.08000
C 	C 	0.55244 0.96515 0.24522 0.00800
C 	C 	0.52618 0.97169 0.21983 -0.05000
C 	C 	0.50089 0.98159 0.24586 0.00900
C 	C 	0.50166 0.98424 0.29774 -0.08100
O 	O 	0.54425 0.05427 0.62787 -0.19700
O 	O 	0.52189 0.93479 0.64223 -0.17900
O 	O 	0.51716 0.92055 0.38388 -0.19600
O 	O 	0.54027 0.03983 0.36949 -0.19600
H 	H 	0.48214 0.99195 0.31805 0.06700
H 	H 	0.57361 0.96313 0.31692 0.06800
H 	H 	0.54819 0.07644 0.54078 0.05300
H 	H 	0.54671 0.07139 0.45008 0.05300
H 	H 	0.51528 0.90328 0.56164 0.05700
H 	H 	0.51368 0.89826 0.47095 0.05400
H 	H 	0.52566 0.97013 0.17962 0.05200
H 	H 	0.53464 0.00317 0.83232 0.06700
Zn	Zn	0.65298 0.91958 0.00128 1.22100
C 	C 	0.70695 0.95799 0.01861 0.31100
O 	O 	0.64967 0.93133 0.07224 -0.45800
O 	O 	0.69135 0.98391 0.03687 -0.43300
O 	O 	0.62649 0.98333 0.05813 -0.49400
C 	C 	0.64422 0.96341 0.91433 0.38800
O 	O 	0.63580 0.93494 0.93833 -0.43600
O 	O 	0.66086 0.98682 0.93676 -0.49700
C 	C 	0.63305 0.95717 0.08792 0.40400
O 	O 	0.61105 0.88263 0.00921 -0.31700
Zn	Zn	0.65240 0.99915 0.00501 1.17700
O 	O 	0.69429 0.93392 0.99052 -0.42000
C 	C 	0.62961 0.85700 0.00612 0.30500
O 	O 	0.65692 0.86613 0.00069 -0.37400
Zn	Zn	0.11136 0.57561 0.97740 1.22400
C 	C 	0.07304 0.63451 0.95678 0.31900
O 	O 	0.10249 0.55882 0.04553 -0.44500
O 	O 	0.05241 0.61171 0.94425 -0.44500
O 	O 	0.05823 0.58577 0.04728 -0.48900
C 	C 	0.07710 0.54259 0.90142 0.29900
O 	O 	0.09841 0.56541 0.90955 -0.43500
O 	O 	0.06025 0.53235 0.93827 -0.49800
C 	C 	0.07956 0.56988 0.07070 0.28600
O 	O 	0.14560 0.52938 0.96840 -0.31400
Zn	Zn	0.04499 0.56651 0.98489 1.17600
O 	O 	0.09630 0.62398 0.98170 -0.43100
C 	C 	0.16537 0.55403 0.97266 0.29600
O 	O 	0.15541 0.58547 0.97902 -0.37900
C 	C 	0.97714 0.50475 0.66478 0.15100
C 	C 	0.00314 0.51167 0.69124 -0.11700
H 	H 	0.02370 0.51553 0.67144 0.09300
C 	C 	0.00251 0.51342 0.74316 0.13200
C 	C 	0.97584 0.50858 0.76855 -0.09400
C 	C 	0.94982 0.50167 0.74227 0.03300
C 	C 	0.95050 0.49962 0.69033 -0.09500
H 	H 	0.93047 0.49413 0.66981 0.07400
N 	N 	0.97782 0.50299 0.61153 -0.17800
C 	C 	0.98503 0.47191 0.58879 0.19200
C 	C 	0.98707 0.47008 0.53671 -0.05700
C 	C 	0.98133 0.50029 0.50833 0.03200
C 	C 	0.97351 0.53177 0.53211 -0.05700
C 	C 	0.97184 0.53261 0.58427 0.19300
C 	C 	0.99493 0.43861 0.51270 -0.01100
C 	C 	0.99714 0.43741 0.46095 -0.00900
C 	C 	0.99148 0.46764 0.43234 -0.05800
C 	C 	0.98349 0.49905 0.45610 0.03300
C 	C 	0.97770 0.52925 0.42773 -0.05800
C 	C 	0.96766 0.56193 0.50348 -0.01000
C 	C 	0.96973 0.56068 0.45172 -0.01000
C 	C 	0.99370 0.46698 0.38021 0.19300
N 	N 	0.98793 0.49668 0.35299 -0.17900
C 	C 	0.98000 0.52752 0.37568 0.19200
C 	C 	0.99001 0.49542 0.29981 0.15100
C 	C 	0.01584 0.50694 0.27597 -0.12400
C 	C 	0.01729 0.50757 0.22401 0.13300
C 	C 	0.99309 0.49599 0.19601 -0.08800
C 	C 	0.96706 0.48521 0.21965 0.03100
C 	C 	0.96560 0.48466 0.27160 -0.09600
O 	O 	0.96473 0.56204 0.60707 -0.18500
O 	O 	0.99019 0.44370 0.61587 -0.19500
O 	O 	0.00137 0.43775 0.35745 -0.18900
O 	O 	0.97444 0.55561 0.34859 -0.19800
H 	H 	0.94537 0.47682 0.29008 0.07400
H 	H 	0.03434 0.51629 0.29781 0.08800
H 	H 	0.96154 0.58640 0.52118 0.05600
H 	H 	0.96516 0.58421 0.43043 0.05400
H 	H 	0.99940 0.41505 0.53399 0.05500
H 	H 	0.00327 0.41294 0.44325 0.05500
H 	H 	0.99397 0.49721 0.15579 0.06300
H 	H 	0.97538 0.50991 0.80877 0.06000
Zn	Zn	0.86075 0.43400 0.98492 1.22400
C 	C 	0.80640 0.47155 0.00068 0.31000
O 	O 	0.87649 0.44717 0.91925 -0.43900
O 	O 	0.82221 0.49873 0.01544 -0.43400
O 	O 	0.85095 0.49805 0.91523 -0.49900
C 	C 	0.88285 0.47509 0.06586 0.40600
O 	O 	0.86505 0.44910 0.05374 -0.46700
O 	O 	0.88846 0.50047 0.03404 -0.50400
C 	C 	0.86715 0.47420 0.89350 0.38700
O 	O 	0.90345 0.40015 0.99794 -0.31700
Zn	Zn	0.86113 0.51325 0.98172 1.17900
O 	O 	0.81886 0.44560 0.97630 -0.41800
C 	C 	0.88626 0.37321 0.99080 0.29900
O 	O 	0.85904 0.38038 0.98142 -0.36700
Zn	Zn	0.02163 0.02052 0.03977 1.22100
C 	C 	0.03369 0.94679 0.02382 0.32900
O 	O 	0.98897 0.02006 0.08750 -0.47200
O 	O 	0.05021 0.94874 0.06378 -0.45000
O 	O 	0.99592 0.96555 0.11901 -0.49100
C 	C 	0.07942 0.02232 0.08085 0.34900
O 	O 	0.06433 0.02103 0.03948 -0.45300
O 	O 	0.06683 0.01375 0.12307 -0.50500
C 	C 	0.97813 0.99031 0.10422 0.33900
O 	O 	0.02458 0.08222 0.04709 -0.32000
Zn	Zn	0.03773 0.97564 0.12661 1.17100
O 	O 	0.01648 0.97306 0.01124 -0.43500
C 	C 	0.01159 0.08295 0.00424 0.26300
O 	O 	0.00575 0.05240 0.98501 -0.36800
C 	C 	0.99791 0.11541 0.98570 -0.06400
C 	C 	0.01140 0.14811 0.99511 0.02000
C 	C 	0.99615 0.17927 0.98631 -0.06200
C 	C 	0.96727 0.17806 0.96796 0.03300
C 	C 	0.95440 0.14549 0.95572 -0.06100
C 	C 	0.96969 0.11426 0.96440 0.01200
C 	C 	0.94972 0.21053 0.96587 -0.00600
C 	C 	0.92538 0.21453 0.99748 -0.00900
C 	C 	0.91102 0.24689 0.00031 -0.05800
C 	C 	0.92088 0.27540 0.97156 0.02000
C 	C 	0.94449 0.27110 0.93864 -0.03800
C 	C 	0.95887 0.23875 0.93576 -0.02700
C 	C 	0.90805 0.30963 0.97817 0.04500
C 	C 	0.89781 0.33852 0.98396 -0.07600
H 	H 	0.03332 0.14934 0.01086 0.03500
H 	H 	0.00636 0.20431 0.99552 0.05400
H 	H 	0.93224 0.14431 0.94096 0.05200
H 	H 	0.95908 0.08921 0.95670 0.04500
H 	H 	0.91818 0.19293 0.02094 0.03300
H 	H 	0.89272 0.24999 0.02571 0.05100
H 	H 	0.95214 0.29300 0.91611 0.05300
H 	H 	0.97753 0.23588 0.91106 0.04400
C 	C 	0.92213 0.49574 0.76961 0.09000
C 	C 	0.90919 0.52370 0.79539 -0.12200
C 	C 	0.88856 0.51691 0.83280 0.09000
C 	C 	0.88085 0.48203 0.84493 -0.23600
C 	C 	0.89110 0.45442 0.81488 0.41800
C 	C 	0.91181 0.46130 0.77753 -0.21300
H 	H 	0.88024 0.53859 0.85466 -0.00400
H 	H 	0.92112 0.43963 0.75682 0.12100
H 	H 	0.91656 0.55049 0.78870 0.06800
F 	F 	0.88216 0.42078 0.82355 -0.45000
C 	C 	0.94044 0.47879 0.18984 0.09100
C 	C 	0.93766 0.44763 0.16226 -0.11900
C 	C 	0.91684 0.44520 0.12418 0.09800
C 	C 	0.89894 0.47407 0.11308 -0.23800
C 	C 	0.90001 0.50407 0.14349 0.41600
C 	C 	0.92061 0.50631 0.18189 -0.21600
H 	H 	0.91590 0.42173 0.10138 0.02100
H 	H 	0.92235 0.53027 0.20353 0.11800
H 	H 	0.95270 0.42609 0.16850 0.07300
F 	F 	0.88200 0.53165 0.13438 -0.47200
C 	C 	0.06883 0.67241 0.94681 -0.09100
C 	C 	0.08517 0.69776 0.97328 0.02100
C 	C 	0.07932 0.73354 0.96718 -0.06500
C 	C 	0.05715 0.74444 0.93453 0.02900
C 	C 	0.04158 0.71931 0.90662 -0.06500
C 	C 	0.04745 0.68346 0.91257 0.01900
C 	C 	0.04864 0.78181 0.93291 0.00400
C 	C 	0.06944 0.80766 0.91947 -0.03800
C 	C 	0.06375 0.84319 0.92859 -0.03000
C 	C 	0.03724 0.85307 0.95110 -0.00500
C 	C 	0.01543 0.82758 0.96039 -0.03100
C 	C 	0.02110 0.79204 0.95134 -0.03700
C 	C 	0.03491 0.88733 0.97348 0.05100
C 	C 	0.03383 0.91510 0.99497 -0.10000
H 	H 	0.10183 0.68975 0.99960 0.04400
H 	H 	0.09143 0.75276 0.98895 0.05100
H 	H 	0.02459 0.72751 0.88101 0.05300
H 	H 	0.03510 0.66431 0.89108 0.04100
H 	H 	0.09057 0.80008 0.90437 0.04500
H 	H 	0.08063 0.86278 0.92082 0.04400
H 	H 	0.99476 0.83503 0.97737 0.04400
H 	H 	0.00474 0.77232 0.96130 0.04200
C 	C 	0.06792 0.53452 0.85049 -0.01800
C 	C 	0.06147 0.49954 0.83756 -0.04400
C 	C 	0.04246 0.49227 0.79807 0.02200
C 	C 	0.02972 0.51995 0.77141 -0.13500
C 	C 	0.03925 0.55467 0.78014 0.34800
C 	C 	0.05848 0.56189 0.81947 -0.14500
H 	H 	0.03580 0.46531 0.79075 0.03300
H 	H 	0.06387 0.58898 0.82850 0.10600
H 	H 	0.06927 0.47814 0.86052 0.05300
F 	F 	0.02791 0.58162 0.75336 -0.45000
C 	C 	0.07396 0.55622 0.12094 -0.02200
C 	C 	0.05878 0.57714 0.15523 -0.04600
C 	C 	0.04307 0.56133 0.19406 0.01900
C 	C 	0.04238 0.52454 0.19862 -0.13500
C 	C 	0.06120 0.50422 0.16907 0.34700
C 	C 	0.07709 0.52009 0.13043 -0.15000
H 	H 	0.02931 0.57737 0.21771 0.03200
H 	H 	0.08961 0.50381 0.10520 0.10200
H 	H 	0.05711 0.60527 0.14937 0.05000
F 	F 	0.06194 0.46873 0.17482 -0.45100
C 	C 	0.73852 0.95559 0.03066 -0.10100
C 	C 	0.74919 0.96963 0.07547 0.02600
C 	C 	0.77934 0.96978 0.08549 -0.07000
C 	C 	0.79917 0.95580 0.05094 0.03700
C 	C 	0.78849 0.94071 0.00686 -0.09000
C 	C 	0.75828 0.94057 0.99676 0.04500
C 	C 	0.83114 0.95918 0.05940 0.00400
C 	C 	0.84845 0.97990 0.02735 -0.04900
C 	C 	0.87830 0.98541 0.03742 -0.02700
C 	C 	0.89107 0.97029 0.07960 -0.01100
C 	C 	0.87398 0.94912 0.11127 -0.02800
C 	C 	0.84408 0.94355 0.10121 -0.04000
C 	C 	0.92169 0.97672 0.09030 0.05700
C 	C 	0.94741 0.98267 0.09773 -0.12000
H 	H 	0.73414 0.98074 0.10233 0.04500
H 	H 	0.78737 0.98144 0.11963 0.05300
H 	H 	0.80363 0.92966 0.98008 0.06300
H 	H 	0.75035 0.92957 0.96212 0.04100
H 	H 	0.83864 0.99225 0.99517 0.05200
H 	H 	0.89143 0.00169 0.01269 0.04200
H 	H 	0.88375 0.93720 0.14381 0.04000
H 	H 	0.83092 0.92745 0.12612 0.04400
C 	C 	0.58787 0.98872 0.79379 0.09000
C 	C 	0.60083 0.01581 0.82180 -0.12000
C 	C 	0.62157 0.00792 0.85834 0.09300
C 	C 	0.62941 0.97277 0.86740 -0.23600
C 	C 	0.61882 0.94617 0.83558 0.41900
C 	C 	0.59802 0.95416 0.79907 -0.21000
H 	H 	0.63005 0.02885 0.88173 -0.00300
H 	H 	0.58861 0.93318 0.77675 0.12700
H 	H 	0.59354 0.04271 0.81728 0.06400
F 	F 	0.62773 0.91240 0.84142 -0.44800
C 	C 	0.57952 0.95866 0.21674 0.09900
C 	C 	0.58222 0.92735 0.18954 -0.12300
C 	C 	0.60203 0.92558 0.14986 0.10000
C 	C 	0.61916 0.95514 0.13711 -0.23600
C 	C 	0.61888 0.98496 0.16792 0.41700
C 	C 	0.59918 0.98661 0.20775 -0.21900
H 	H 	0.60251 0.90216 0.12694 0.02000
H 	H 	0.59769 0.01061 0.22929 0.12200
H 	H 	0.56748 0.90536 0.19681 0.06900
F 	F 	0.63650 0.01307 0.15755 -0.47000
C 	C 	0.32080 0.03130 0.01399 -0.09700
C 	C 	0.30055 0.01009 0.98796 0.02700
C 	C 	0.27049 0.01194 0.99867 -0.05600
C 	C 	0.26034 0.03512 0.03525 0.02100
C 	C 	0.28034 0.05719 0.06008 -0.06300
C 	C 	0.31043 0.05532 0.04955 0.02100
C 	C 	0.22895 0.03520 0.04896 0.00600
C 	C 	0.21131 0.06412 0.03693 -0.04100
C 	C 	0.18114 0.06323 0.04740 -0.02700
C 	C 	0.16850 0.03351 0.07012 -0.01200
C 	C 	0.18627 0.00506 0.08345 -0.02600
C 	C 	0.21639 0.00589 0.07291 -0.04100
C 	C 	0.13704 0.03074 0.07546 0.05900
C 	C 	0.11070 0.02746 0.07872 -0.12200
H 	H 	0.30809 0.99190 0.95983 0.03600
H 	H 	0.25511 0.99508 0.97894 0.05000
H 	H 	0.27265 0.07527 0.08824 0.05100
H 	H 	0.32569 0.07196 0.06985 0.04400
H 	H 	0.22085 0.08692 0.01862 0.04400
H 	H 	0.16753 0.08530 0.03690 0.04300
H 	H 	0.17664 0.98199 0.10098 0.03600
H 	H 	0.22991 0.98357 0.08271 0.04100
C 	C 	0.43749 0.01175 0.86988 -0.01100
C 	C 	0.45204 0.04275 0.85480 -0.04500
C 	C 	0.47345 0.04153 0.81749 0.02400
C 	C 	0.48017 0.00944 0.79456 -0.13200
C 	C 	0.46338 0.97928 0.80587 0.35000
C 	C 	0.44211 0.98045 0.84339 -0.14100
H 	H 	0.48598 0.06508 0.80842 0.03100
H 	H 	0.43032 0.95661 0.85363 0.10200
H 	H 	0.44813 0.06731 0.87401 0.06000
F 	F 	0.46909 0.94828 0.78290 -0.44500
C 	C 	0.47413 0.99068 0.21814 0.09500
C 	C 	0.46930 0.02578 0.20452 -0.12000
C 	C 	0.45013 0.03362 0.16555 0.09700
C 	C 	0.43567 0.00636 0.13983 -0.23000
C 	C 	0.43816 0.97149 0.15711 0.40600
C 	C 	0.45728 0.96381 0.19622 -0.21500
H 	H 	0.44768 0.06071 0.15373 0.02200
H 	H 	0.46053 0.93667 0.20716 0.11600
H 	H 	0.48188 0.04678 0.22185 0.07000
F 	F 	0.42373 0.94476 0.13388 -0.48200
C 	C 	0.48136 0.39343 0.95833 -0.07700
C 	C 	0.50829 0.37679 0.94904 0.01700
C 	C 	0.50895 0.34056 0.93963 -0.06200
C 	C 	0.48266 0.32083 0.93911 0.03000
C 	C 	0.45564 0.33806 0.94441 -0.06200
C 	C 	0.45500 0.37417 0.95400 0.01700
C 	C 	0.48349 0.28198 0.93953 0.00200
C 	C 	0.46808 0.26266 0.90337 -0.03700
C 	C 	0.46349 0.22645 0.90955 -0.02900
C 	C 	0.47439 0.20934 0.95174 -0.00500
C 	C 	0.49153 0.22813 0.98606 -0.02300
C 	C 	0.49610 0.26432 0.97998 -0.03000
C 	C 	0.46470 0.17403 0.96319 0.05100
C 	C 	0.45563 0.14502 0.97359 -0.09500
H 	H 	0.52879 0.39145 0.95193 0.04100
H 	H 	0.52992 0.32760 0.93487 0.05100
H 	H 	0.43520 0.32315 0.94363 0.05200
H 	H 	0.43407 0.38687 0.96043 0.03800
H 	H 	0.45855 0.27594 0.87170 0.04400
H 	H 	0.45042 0.21204 0.88262 0.04400
H 	H 	0.50020 0.21503 0.01859 0.03700
H 	H 	0.50814 0.27894 0.00801 0.03700
C 	C 	0.40418 0.51328 0.04750 -0.09000
C 	C 	0.38599 0.53161 0.08062 0.01600
C 	C 	0.35580 0.53426 0.07131 -0.06300
C 	C 	0.34352 0.51852 0.02890 0.01800
C 	C 	0.36155 0.49949 0.99645 -0.04200
C 	C 	0.39172 0.49687 0.00568 -0.00000
C 	C 	0.31200 0.52302 0.01756 -0.00700
C 	C 	0.29044 0.50975 0.05011 -0.03100
C 	C 	0.26059 0.51481 0.03989 -0.04500
C 	C 	0.25212 0.53310 0.99708 0.01400
C 	C 	0.27361 0.54603 0.96428 -0.03800
C 	C 	0.30345 0.54102 0.97446 -0.02400
C 	C 	0.22146 0.53992 0.98792 0.04400
C 	C 	0.19583 0.54609 0.98064 -0.08200
H 	H 	0.39530 0.54446 0.11294 0.02500
H 	H 	0.34205 0.54904 0.09656 0.04700
H 	H 	0.35221 0.48695 0.96389 0.04700
H 	H 	0.40542 0.48216 0.98025 0.04900
H 	H 	0.29682 0.49567 0.08334 0.04100
H 	H 	0.24409 0.50477 0.06544 0.04800
H 	H 	0.26721 0.56027 0.93117 0.04800
H 	H 	0.31993 0.55144 0.94917 0.04200
C 	C 	0.77467 0.47008 0.01218 -0.08600
C 	C 	0.75861 0.50138 0.01631 0.02200
C 	C 	0.72905 0.50033 0.03057 -0.06400
C 	C 	0.71520 0.46800 0.04097 0.02700
C 	C 	0.73103 0.43662 0.03603 -0.06300
C 	C 	0.76064 0.43764 0.02162 0.02100
C 	C 	0.68404 0.46709 0.05657 0.00900
C 	C 	0.66280 0.45073 0.02642 -0.05200
C 	C 	0.63293 0.45311 0.03845 -0.02300
C 	C 	0.62411 0.47185 0.08066 -0.01400
C 	C 	0.64534 0.48714 0.11178 -0.02600
C 	C 	0.67523 0.48470 0.09987 -0.04300
C 	C 	0.59330 0.47806 0.08938 0.05800
C 	C 	0.56741 0.48365 0.09488 -0.12300
H 	H 	0.76906 0.52654 0.00855 0.03100
H 	H 	0.71689 0.52465 0.03359 0.04900
H 	H 	0.72050 0.41152 0.04384 0.05100
H 	H 	0.77280 0.41331 0.01882 0.04000
H 	H 	0.66936 0.43706 0.99296 0.05400
H 	H 	0.61662 0.44120 0.01424 0.04000
H 	H 	0.63869 0.50160 0.14452 0.04000
H 	H 	0.69149 0.49714 0.12364 0.04500
C 	C 	0.52590 0.59241 0.99912 -0.08800
C 	C 	0.51122 0.62434 0.99159 0.02000
C 	C 	0.52727 0.65541 0.98377 -0.06500
C 	C 	0.55815 0.65485 0.98335 0.02900
C 	C 	0.57279 0.62259 0.98753 -0.06700
C 	C 	0.55671 0.59145 0.99526 0.02900
C 	C 	0.57500 0.68827 0.98363 0.01100
C 	C 	0.57213 0.71226 0.94429 -0.03700
C 	C 	0.58494 0.74581 0.94761 -0.02800
C 	C 	0.60075 0.75555 0.99018 0.00400
C 	C 	0.60456 0.73120 0.02868 -0.03700
C 	C 	0.59175 0.69767 0.02545 -0.04500
C 	C 	0.61143 0.79117 0.99569 0.06400
C 	C 	0.61995 0.82114 0.00050 -0.09600
H 	H 	0.48743 0.62532 0.99377 0.03800
H 	H 	0.51575 0.68013 0.98015 0.05200
H 	H 	0.59662 0.62181 0.98659 0.05300
H 	H 	0.56829 0.56695 0.00085 0.03100
H 	H 	0.55939 0.70522 0.91175 0.04700
H 	H 	0.58202 0.76445 0.91758 0.05300
H 	H 	0.61684 0.73850 0.06162 0.04400
H 	H 	0.59404 0.67939 0.05608 0.04100
