data_crystal

_cell_length_a 20.45959
_cell_length_b 21.58606
_cell_length_c 31.50656
_cell_angle_alpha 60.84037
_cell_angle_beta  118.86708
_cell_angle_gamma 133.23915

_symmetry_space_group_name_	'P 1'
_symmetry_space_group_name_H-M	'P 1'

loop_
_symmetry_equiv_pos_as_xyz
  x,y,z

loop_
_atom_site_label
_atom_site_type_symbol
_atom_site_fract_x
_atom_site_fract_y
_atom_site_fract_z
_atom_site_charge
C 	C 	0.00330 0.98811 0.76819 0.42900
Co	Co	0.01351 0.87294 0.13431 1.18100
Co	Co	0.00978 0.85305 0.63496 1.18000
O 	O 	0.00056 0.93427 0.75584 -0.35700
C 	C 	0.00419 0.96782 0.91276 -0.19000
Co	Co	0.00080 0.07515 0.59524 1.16800
O 	O 	0.03715 0.11946 0.03577 -0.48300
O 	O 	0.03210 0.14778 0.19094 -0.36800
O 	O 	0.02249 0.99221 0.11980 -0.55100
O 	O 	0.03639 0.77892 0.09816 -0.40500
O 	O 	0.00502 0.05590 0.73456 -0.43800
H 	H 	0.03166 0.29887 0.05539 0.07400
H 	H 	0.01647 0.32902 0.55206 0.08000
O 	O 	0.00027 0.98630 0.48394 -0.35200
C 	C 	0.03470 0.97675 0.46263 0.38000
C 	C 	0.04582 0.04905 0.37318 0.20400
C 	C 	0.04450 0.04355 0.32978 0.20400
O 	O 	0.03596 0.97933 0.62567 -0.54900
O 	O 	0.00041 0.88307 0.99833 -0.37100
Co	Co	0.05394 0.02839 0.04754 1.15000
O 	O 	0.05699 0.94064 0.08244 -0.73600
O 	O 	0.98136 0.16781 0.63537 -0.39700
Co	Co	0.99250 0.09061 0.09330 1.17600
Co	Co	0.10976 0.90947 0.05944 1.18900
C 	C 	0.07787 0.21526 0.15659 0.28900
C 	C 	0.18898 0.88265 0.16667 0.29900
O 	O 	0.08691 0.20418 0.12165 -0.38100
O 	O 	0.20948 0.93886 0.12388 -0.38500
O 	O 	0.12321 0.86130 0.18149 -0.37200
C 	C 	0.95794 0.95795 0.26597 0.38700
Co	Co	0.07308 0.01747 0.55499 1.15400
Co	Co	0.09742 0.88237 0.55757 1.17600
O 	O 	0.05913 0.11037 0.54258 -0.48000
C 	C 	0.06860 0.21164 0.63839 0.30600
C 	C 	0.13292 0.80001 0.66624 0.30900
O 	O 	0.10322 0.97106 0.48897 -0.39200
O 	O 	0.09548 0.18710 0.62256 -0.39100
O 	O 	0.09454 0.78612 0.62179 -0.41400
O 	O 	0.11393 0.83448 0.67976 -0.38100
O 	O 	0.06032 0.92205 0.58572 -0.74300
C 	C 	0.06631 0.96271 0.90848 0.26400
C 	C 	0.06203 0.96305 0.86224 0.27000
F 	F 	0.12417 0.96059 0.85921 -0.39700
F 	F 	0.12960 0.95516 0.94947 -0.41500
F 	F 	0.09399 0.11832 0.29718 -0.42600
F 	F 	0.09722 0.12904 0.38147 -0.42900
C 	C 	0.13260 0.29645 0.65118 -0.10700
C 	C 	0.13137 0.36847 0.61554 0.10000
C 	C 	0.09299 0.37044 0.56063 -0.20700
H 	H 	0.16141 0.49217 0.60421 0.05000
H 	H 	0.11825 0.43830 0.53725 0.07100
H 	H 	0.11467 0.34560 0.55015 0.07900
C 	C 	0.19202 0.77011 0.70171 -0.10900
C 	C 	0.28050 0.81869 0.69460 0.10700
C 	C 	0.34066 0.91725 0.68089 -0.22100
H 	H 	0.41081 0.94223 0.70591 0.09100
H 	H 	0.31319 0.94370 0.68484 0.10100
H 	H 	0.34654 0.94176 0.64182 0.09500
C 	C 	0.14003 0.31558 0.20429 -0.03900
C 	C 	0.11896 0.30401 0.15796 -0.08600
C 	C 	0.14829 0.38370 0.20678 0.05200
C 	C 	0.16108 0.38865 0.25659 -0.19100
H 	H 	0.14530 0.26862 0.23844 0.09400
H 	H 	0.12803 0.32224 0.28220 0.09300
H 	H 	0.12874 0.41770 0.25181 0.06900
H 	H 	0.23584 0.42958 0.27410 0.07800
C 	C 	0.16867 0.73956 0.21253 -0.01300
C 	C 	0.22657 0.83050 0.19267 -0.10800
H 	H 	0.10848 0.71205 0.22291 0.04100
C 	C 	0.13335 0.58910 0.24635 -0.17500
H 	H 	0.17625 0.56431 0.26689 0.06600
H 	H 	0.07170 0.54809 0.22020 0.05900
H 	H 	0.10945 0.58185 0.27459 0.06300
H 	H 	0.87723 0.20020 0.46160 0.08100
C 	C 	0.71521 0.30466 0.01467 0.03600
C 	C 	0.78240 0.38264 0.03210 -0.08600
C 	C 	0.75460 0.42654 0.03317 0.03600
C 	C 	0.66115 0.39023 0.01999 -0.08900
C 	C 	0.59462 0.30832 0.00929 0.04500
C 	C 	0.62096 0.26861 0.00292 -0.10400
H 	H 	0.85441 0.40766 0.04544 0.04800
H 	H 	0.63987 0.42262 0.02224 0.05300
H 	H 	0.56825 0.20773 0.99116 0.06300
C 	C 	0.74829 0.30643 0.51967 0.03500
C 	C 	0.65324 0.24873 0.51780 -0.08100
C 	C 	0.61237 0.27256 0.52605 0.03800
C 	C 	0.66369 0.35603 0.53200 -0.08200
C 	C 	0.75723 0.41556 0.53231 0.03700
C 	C 	0.80005 0.39167 0.52534 -0.07800
H 	H 	0.61343 0.18255 0.51479 0.04600
H 	H 	0.63131 0.37366 0.53852 0.05400
H 	H 	0.87342 0.43670 0.52709 0.05300
C 	C 	0.27642 0.66196 0.19713 0.03600
C 	C 	0.20501 0.58658 0.17758 -0.08300
C 	C 	0.22730 0.54303 0.17113 0.04200
C 	C 	0.31930 0.58022 0.17811 -0.08400
C 	C 	0.38931 0.65770 0.19355 0.04000
C 	C 	0.36850 0.69263 0.20851 -0.08200
H 	H 	0.13384 0.56299 0.16689 0.04900
H 	H 	0.33636 0.54974 0.17013 0.05600
H 	H 	0.42424 0.74906 0.22442 0.05500
C 	C 	0.29268 0.63689 0.71569 0.03500
C 	C 	0.38779 0.67712 0.72578 -0.08000
C 	C 	0.41663 0.64234 0.71677 0.04100
C 	C 	0.35271 0.56059 0.70615 -0.08400
C 	C 	0.25863 0.51869 0.69677 0.03700
C 	C 	0.22781 0.55863 0.69900 -0.08100
H 	H 	0.43890 0.73758 0.73794 0.06100
H 	H 	0.37604 0.53216 0.70160 0.05400
H 	H 	0.15494 0.53037 0.68693 0.04700
Co	Co	0.93553 0.92568 0.17379 1.19700
C 	C 	0.23340 0.10506 0.03370 0.30900
Co	Co	0.89540 0.05140 0.16911 1.15500
C 	C 	0.94864 0.73358 0.09512 0.30700
O 	O 	0.89384 0.14422 0.10407 -0.42400
O 	O 	0.94926 0.02211 0.14524 -0.78600
C 	C 	0.85613 0.12798 0.06043 0.31400
O 	O 	0.95002 0.83367 0.18535 -0.45800
C 	C 	0.74342 0.86965 0.15878 0.30100
C 	C 	0.99719 0.94797 0.96412 0.38000
O 	O 	0.87594 0.09126 0.04937 -0.41100
O 	O 	0.99357 0.99801 0.97585 -0.32000
O 	O 	0.76630 0.95003 0.14275 -0.37800
O 	O 	0.79187 0.85256 0.15533 -0.38800
O 	O 	0.88936 0.96314 0.23804 -0.39600
O 	O 	0.99259 0.94436 0.24749 -0.35200
O 	O 	0.18632 0.03595 0.01760 -0.41100
O 	O 	0.19429 0.11384 0.05153 -0.41000
O 	O 	0.91894 0.76487 0.10311 -0.39300
Co	Co	0.95441 0.91752 0.68173 1.19800
C 	C 	0.25937 0.06359 0.56335 0.23600
Co	Co	0.90147 0.03618 0.67070 1.17000
C 	C 	0.90864 0.72962 0.56788 0.29600
O 	O 	0.80469 0.01003 0.60463 -0.41600
O 	O 	0.96169 0.01059 0.64931 -0.77800
C 	C 	0.82988 0.07106 0.56407 0.29700
O 	O 	0.96156 0.82160 0.69141 -0.45500
C 	C 	0.77298 0.84278 0.68919 0.31000
O 	O 	0.88917 0.08478 0.54779 -0.39100
O 	O 	0.81916 0.90802 0.70849 -0.35100
O 	O 	0.81220 0.84165 0.66678 -0.39200
O 	O 	0.22956 0.98070 0.58331 -0.35000
O 	O 	0.21399 0.09174 0.55846 -0.38300
O 	O 	0.95876 0.79207 0.53470 -0.35400
O 	O 	0.90188 0.74798 0.60000 -0.38400
C 	C 	0.93757 0.97260 0.86985 0.27000
C 	C 	0.93329 0.97285 0.82357 0.26900
C 	C 	0.99570 0.96810 0.81934 -0.20200
F 	F 	0.86919 0.97908 0.78262 -0.41600
F 	F 	0.87518 0.97468 0.87291 -0.39400
C 	C 	0.94467 0.89075 0.39861 0.25100
C 	C 	0.99838 0.97269 0.40900 -0.13500
C 	C 	0.99084 0.96171 0.31943 -0.13900
C 	C 	0.94265 0.88533 0.35495 0.25600
F 	F 	0.89236 0.80536 0.34698 -0.42000
F 	F 	0.89809 0.81579 0.43211 -0.41900
C 	C 	0.16015 0.43595 0.63160 -0.08700
C 	C 	0.19361 0.43445 0.68257 -0.01300
C 	C 	0.19071 0.36053 0.71809 0.03600
C 	C 	0.16672 0.29563 0.70202 -0.02100
H 	H 	0.16703 0.24019 0.72950 0.04600
C 	C 	0.21941 0.35363 0.77330 -0.17900
H 	H 	0.19823 0.38178 0.78126 0.06800
H 	H 	0.29549 0.38943 0.78635 0.06600
H 	H 	0.18634 0.28400 0.79493 0.06900
C 	C 	0.57571 0.68442 0.74891 -0.08100
C 	C 	0.51017 0.69680 0.70983 -0.00700
C 	C 	0.52663 0.74408 0.66127 0.04200
C 	C 	0.60850 0.77830 0.65281 -0.01400
C 	C 	0.67712 0.77212 0.69271 -0.10300
C 	C 	0.65788 0.71951 0.74036 0.11000
C 	C 	0.72846 0.70725 0.78328 -0.21200
H 	H 	0.56162 0.64544 0.78573 0.05600
H 	H 	0.62246 0.81684 0.61593 0.05300
C 	C 	0.45628 0.75679 0.61827 -0.18000
H 	H 	0.69514 0.64632 0.81238 0.07400
H 	H 	0.77913 0.76405 0.80044 0.10300
H 	H 	0.76550 0.70175 0.77013 0.08200
H 	H 	0.43578 0.78300 0.62850 0.07500
H 	H 	0.39430 0.69318 0.60871 0.07000
H 	H 	0.48411 0.80405 0.58439 0.07500
C 	C 	0.31072 0.77469 0.69722 -0.08800
C 	C 	0.26234 0.68320 0.71646 -0.00500
C 	C 	0.18630 0.63767 0.73629 0.03100
C 	C 	0.14884 0.68057 0.72634 -0.01200
H 	H 	0.37124 0.81180 0.68370 0.05600
H 	H 	0.08334 0.64301 0.73498 0.03600
C 	C 	0.14588 0.54526 0.76858 -0.17500
H 	H 	0.19837 0.53168 0.78921 0.06900
H 	H 	0.08717 0.49782 0.74516 0.06000
H 	H 	0.11987 0.53485 0.79699 0.06600
C 	C 	0.11449 0.36760 0.11372 0.08700
C 	C 	0.13269 0.44111 0.11735 -0.07900
C 	C 	0.15738 0.45303 0.16425 -0.02300
H 	H 	0.13682 0.49328 0.08417 0.04600
C 	C 	0.09790 0.36173 0.06330 -0.19800
H 	H 	0.15519 0.36699 0.06245 0.07800
H 	H 	0.09400 0.41518 0.03272 0.06300
C 	C 	0.57628 0.79313 0.12619 -0.01300
C 	C 	0.64998 0.79733 0.16607 -0.10800
C 	C 	0.63530 0.74845 0.21485 0.10400
C 	C 	0.55070 0.70614 0.22375 -0.08700
C 	C 	0.48044 0.71030 0.18448 -0.00900
C 	C 	0.49347 0.75477 0.13523 0.03200
C 	C 	0.41910 0.76102 0.09227 -0.17700
H 	H 	0.58624 0.82639 0.08841 0.04000
H 	H 	0.53949 0.66988 0.26127 0.05700
C 	C 	0.71159 0.74712 0.25820 -0.21800
H 	H 	0.44644 0.81166 0.05867 0.06600
H 	H 	0.39066 0.77961 0.10255 0.07100
H 	H 	0.36273 0.69695 0.08220 0.06800
H 	H 	0.75115 0.80223 0.27496 0.11800
H 	H 	0.75869 0.75248 0.24639 0.09900
H 	H 	0.68283 0.68469 0.28734 0.09700
C 	C 	0.31814 0.81003 0.18016 -0.08900
C 	C 	0.25819 0.71843 0.19731 -0.00600
C 	C 	0.18745 0.68367 0.21795 0.03100
C 	C 	0.30917 0.86550 0.18416 0.10600
C 	C 	0.38581 0.96240 0.17657 -0.21200
H 	H 	0.37340 0.83841 0.16486 0.05400
H 	H 	0.45400 0.97372 0.19251 0.08200
H 	H 	0.38432 0.99294 0.19575 0.09300
H 	H 	0.37932 0.99500 0.13602 0.09500
C 	C 	0.82132 0.15870 0.58890 -0.00400
C 	C 	0.82213 0.14320 0.55060 -0.11700
C 	C 	0.80835 0.19135 0.50076 0.09500
C 	C 	0.79268 0.25247 0.49069 -0.08800
C 	C 	0.79569 0.26899 0.53002 -0.01000
C 	C 	0.82025 0.22821 0.57957 0.02800
C 	C 	0.84094 0.25575 0.62279 -0.17300
H 	H 	0.82410 0.11784 0.62660 0.00000
H 	H 	0.77472 0.28436 0.45237 0.05100
C 	C 	0.80708 0.17633 0.45835 -0.20300
H 	H 	0.86622 0.22215 0.65905 0.06600
H 	H 	0.77800 0.23997 0.62466 0.06100
H 	H 	0.89581 0.32733 0.61809 0.06400
H 	H 	0.75767 0.10540 0.45915 0.06900
H 	H 	0.78554 0.21191 0.42146 0.06500
C 	C 	0.88265 0.58658 0.60025 -0.01700
C 	C 	0.85198 0.63871 0.56496 -0.10500
C 	C 	0.79260 0.61732 0.51872 0.12900
C 	C 	0.77854 0.55551 0.50502 -0.08400
C 	C 	0.80855 0.50273 0.54008 -0.00400
C 	C 	0.86180 0.51898 0.58818 0.03300
C 	C 	0.89713 0.46512 0.62653 -0.17400
H 	H 	0.92797 0.60240 0.63599 0.04200
H 	H 	0.73497 0.54138 0.46875 0.06600
C 	C 	0.73667 0.65337 0.48606 -0.21300
H 	H 	0.93778 0.48614 0.66214 0.06200
H 	H 	0.94282 0.47284 0.61209 0.06400
H 	H 	0.83846 0.39484 0.63497 0.06200
H 	H 	0.72527 0.66165 0.44597 0.11200
H 	H 	0.77089 0.71813 0.49088 0.11400
H 	H 	0.66854 0.60676 0.49555 0.07800
C 	C 	0.44573 0.20490 0.49497 -0.08700
C 	C 	0.51896 0.20747 0.53472 -0.01400
C 	C 	0.50738 0.16712 0.58415 0.02700
C 	C 	0.42597 0.13219 0.59333 -0.02800
C 	C 	0.35185 0.12777 0.55362 -0.09500
C 	C 	0.36308 0.16762 0.50400 0.09000
C 	C 	0.28612 0.16693 0.46026 -0.21100
H 	H 	0.45488 0.23615 0.45702 0.05400
H 	H 	0.41835 0.10414 0.63143 0.02600
C 	C 	0.58305 0.16384 0.62731 -0.17300
H 	H 	0.31428 0.22442 0.42863 0.09500
H 	H 	0.24378 0.17069 0.47003 0.10500
H 	H 	0.24197 0.10653 0.44735 0.09600
H 	H 	0.64131 0.23030 0.63402 0.06200
H 	H 	0.60805 0.13973 0.61888 0.05700
H 	H 	0.55825 0.11859 0.66222 0.05100
C 	C 	0.84102 0.24670 0.99757 0.01200
C 	C 	0.79702 0.15765 0.02362 -0.15900
C 	C 	0.71186 0.11383 0.03308 0.15800
C 	C 	0.68972 0.16256 0.03341 -0.12100
C 	C 	0.74150 0.25432 0.01424 -0.01300
C 	C 	0.81250 0.29521 0.99164 0.03500
C 	C 	0.85798 0.38910 0.96139 -0.17700
H 	H 	0.90139 0.27991 0.98512 0.03100
H 	H 	0.63223 0.12882 0.04864 0.04600
C 	C 	0.64875 0.01535 0.04794 -0.44400
H 	H 	0.88413 0.39990 0.93290 0.06600
H 	H 	0.91733 0.43366 0.98631 0.07000
H 	H 	0.80845 0.40634 0.94097 0.07000
H 	H 	0.65046 0.99282 0.08828 0.16000
H 	H 	0.66874 0.98566 0.04043 0.16700
H 	H 	0.57690 0.99190 0.02614 0.15300
C 	C 	0.86497 0.65619 0.02885 -0.01800
C 	C 	0.88410 0.65055 0.07932 -0.10300
C 	C 	0.86865 0.57189 0.11526 0.09600
C 	C 	0.84037 0.50298 0.10061 -0.08400
C 	C 	0.82169 0.50905 0.05008 -0.01100
C 	C 	0.83943 0.58853 0.01447 0.02600
C 	C 	0.82458 0.59910 0.96029 -0.16500
H 	H 	0.87543 0.71570 0.00096 0.05200
H 	H 	0.82697 0.44225 0.12817 0.04800
C 	C 	0.88590 0.56232 0.16959 -0.20500
H 	H 	0.86495 0.66951 0.94049 0.07900
H 	H 	0.75027 0.56834 0.94159 0.06900
H 	H 	0.84731 0.56768 0.95699 0.07100
H 	H 	0.86393 0.59374 0.17358 0.07900
H 	H 	0.96043 0.59346 0.18726 0.07500
H 	H 	0.84652 0.49212 0.18987 0.06700
C 	C 	0.48790 0.23023 0.06220 -0.08400
C 	C 	0.50062 0.25783 0.01452 -0.03100
C 	C 	0.42787 0.25046 0.97205 0.04900
C 	C 	0.34147 0.20942 0.97837 0.00300
C 	C 	0.32740 0.17680 0.02641 -0.12400
C 	C 	0.40314 0.19401 0.06804 0.09200
C 	C 	0.39364 0.17328 0.11873 -0.20400
H 	H 	0.54517 0.23965 0.09458 0.04400
H 	H 	0.28359 0.19814 0.94617 0.04500
C 	C 	0.44146 0.28458 0.92019 -0.18000
H 	H 	0.46130 0.19855 0.14630 0.06000
H 	H 	0.34711 0.10138 0.13311 0.06300
H 	H 	0.36477 0.20417 0.11594 0.07700
H 	H 	0.45622 0.24749 0.91576 0.07200
H 	H 	0.49996 0.35531 0.91381 0.06900
H 	H 	0.37916 0.27756 0.89092 0.06800
