data_crystal

_cell_length_a 21.03968
_cell_length_b 19.76759
_cell_length_c 40.40157
_cell_angle_alpha 95.49304
_cell_angle_beta  95.49355
_cell_angle_gamma 126.14450

_symmetry_space_group_name_	'P 1'
_symmetry_space_group_name_H-M	'P 1'

loop_
_symmetry_equiv_pos_as_xyz
  x,y,z

loop_
_atom_site_label
_atom_site_type_symbol
_atom_site_fract_x
_atom_site_fract_y
_atom_site_fract_z
_atom_site_charge
C 	C 	0.94513 0.02340 0.97774 0.10400
C 	C 	0.06480 0.03728 0.98577 0.12000
N 	N 	0.02600 0.07206 0.98030 -0.12600
C 	C 	0.93302 0.01374 0.47612 0.10400
N 	N 	0.01375 0.06212 0.47818 -0.12600
C 	C 	0.05268 0.02750 0.48376 0.12100
Cu	Cu	0.72912 0.32703 0.96255 0.92800
Cu	Cu	0.72753 0.24727 0.03048 0.87200
Cu	Cu	0.60988 0.28009 0.01035 0.89600
Cu	Cu	0.58819 0.34092 0.94805 0.89700
C 	C 	0.66372 0.31508 0.89446 0.28800
O 	O 	0.78350 0.45413 0.96712 -0.36000
C 	C 	0.67111 0.29504 0.08225 0.29000
O 	O 	0.60615 0.26467 0.96243 -0.63800
O 	O 	0.72592 0.33250 0.01159 -0.64000
O 	O 	0.78174 0.26962 0.95879 -0.36800
O 	O 	0.70050 0.17329 0.98963 -0.44200
O 	O 	0.63856 0.35764 0.90718 -0.38100
O 	O 	0.49568 0.22388 0.00557 -0.38300
C 	C 	0.45418 0.23857 0.98494 0.31400
C 	C 	0.75510 0.48970 0.98263 0.30500
O 	O 	0.68209 0.44172 0.98854 -0.39200
O 	O 	0.48857 0.29781 0.96620 -0.39200
O 	O 	0.71052 0.30478 0.91397 -0.35900
C 	C 	0.75312 0.19818 0.96983 0.31300
O 	O 	0.61045 0.27435 0.05903 -0.38400
O 	O 	0.73146 0.29779 0.07385 -0.42000
H 	H 	0.56762 0.20483 0.95022 0.16500
H 	H 	0.76274 0.39032 0.02578 0.17400
Cu	Cu	0.71839 0.31926 0.46244 0.92800
Cu	Cu	0.71319 0.23314 0.52893 0.87300
Cu	Cu	0.59738 0.26885 0.50954 0.89700
Cu	Cu	0.57963 0.33646 0.44899 0.89700
C 	C 	0.66113 0.32098 0.39503 0.28900
O 	O 	0.77440 0.44704 0.46897 -0.36000
C 	C 	0.65707 0.28054 0.58107 0.29000
O 	O 	0.59549 0.25754 0.46171 -0.64000
O 	O 	0.71342 0.32065 0.51127 -0.63900
O 	O 	0.76972 0.26053 0.45749 -0.36700
O 	O 	0.68703 0.16204 0.48732 -0.44300
O 	O 	0.63327 0.35968 0.40887 -0.38300
O 	O 	0.48323 0.21333 0.50429 -0.38000
C 	C 	0.44291 0.23007 0.48405 0.31100
C 	C 	0.74593 0.48210 0.48484 0.30500
O 	O 	0.67276 0.43355 0.49055 -0.39300
O 	O 	0.47873 0.29153 0.46637 -0.39200
O 	O 	0.70110 0.30146 0.41388 -0.35900
C 	C 	0.74063 0.18828 0.46795 0.31200
O 	O 	0.59621 0.25911 0.55780 -0.38400
O 	O 	0.71642 0.28108 0.57279 -0.41900
H 	H 	0.55671 0.19854 0.44869 0.16500
H 	H 	0.75017 0.37762 0.52611 0.17400
C 	C 	0.65336 0.29265 0.61719 -0.08900
C 	C 	0.58035 0.24016 0.62822 0.01800
C 	C 	0.57910 0.24245 0.66286 -0.06900
C 	C 	0.65063 0.29742 0.68665 0.04100
C 	C 	0.72295 0.35269 0.67577 -0.07000
C 	C 	0.72437 0.35041 0.64118 0.01800
C 	C 	0.65041 0.29438 0.72211 -0.02000
C 	C 	0.65016 0.29178 0.75179 -0.01900
C 	C 	0.65048 0.28937 0.78730 0.04100
C 	C 	0.71799 0.30829 0.80839 -0.06800
C 	C 	0.72106 0.31285 0.84333 0.02000
C 	C 	0.65656 0.29875 0.85741 -0.08400
C 	C 	0.58773 0.27648 0.83601 0.01700
C 	C 	0.58481 0.27194 0.80110 -0.06800
H 	H 	0.52511 0.19535 0.61001 0.03700
H 	H 	0.52284 0.20006 0.67114 0.05100
H 	H 	0.77835 0.39610 0.69405 0.05000
H 	H 	0.78090 0.39208 0.63300 0.03100
H 	H 	0.76879 0.32130 0.79783 0.05100
H 	H 	0.77457 0.33015 0.85950 0.04200
H 	H 	0.53718 0.26438 0.84651 0.02500
H 	H 	0.53211 0.25647 0.78489 0.05000
C 	C 	0.66699 0.30573 0.11839 -0.09000
C 	C 	0.73776 0.36289 0.14256 0.01800
C 	C 	0.73576 0.36462 0.17709 -0.07000
C 	C 	0.66312 0.30942 0.18775 0.04100
C 	C 	0.59191 0.25444 0.16377 -0.07000
C 	C 	0.59373 0.25269 0.12918 0.01700
C 	C 	0.66193 0.30893 0.22330 -0.02000
C 	C 	0.66224 0.30952 0.25318 -0.01900
C 	C 	0.66367 0.31274 0.28901 0.04000
C 	C 	0.65092 0.24528 0.30378 -0.06800
C 	C 	0.65175 0.24857 0.33862 0.01600
C 	C 	0.66498 0.31922 0.35878 -0.08300
C 	C 	0.67904 0.38722 0.34391 0.01900
C 	C 	0.67830 0.38386 0.30920 -0.06800
H 	H 	0.79450 0.40485 0.13458 0.03100
H 	H 	0.79089 0.40807 0.19552 0.05000
H 	H 	0.53538 0.21216 0.17187 0.05100
H 	H 	0.53871 0.20817 0.11082 0.03600
H 	H 	0.63996 0.19022 0.28831 0.05000
H 	H 	0.64079 0.19572 0.34978 0.03400
H 	H 	0.69055 0.44270 0.35927 0.03900
H 	H 	0.68890 0.43653 0.29798 0.05200
C 	C 	0.85365 0.73339 0.48765 -0.00900
C 	C 	0.81671 0.64639 0.48794 0.05900
C 	C 	0.78521 0.57173 0.48722 -0.11000
C 	C 	0.78244 0.15136 0.46629 -0.12700
C 	C 	0.81727 0.11997 0.46675 0.05800
C 	C 	0.85778 0.08296 0.46897 -0.02000
C 	C 	0.89216 0.05134 0.47186 -0.02200
C 	C 	0.13723 0.07660 0.48447 -0.02100
C 	C 	0.20787 0.11406 0.48496 -0.00800
C 	C 	0.29006 0.15500 0.48522 0.05900
C 	C 	0.35995 0.18904 0.48501 -0.10600
C 	C 	0.86481 0.74173 0.98691 -0.00800
C 	C 	0.82737 0.65441 0.98649 0.06000
C 	C 	0.79528 0.57952 0.98530 -0.10900
C 	C 	0.79459 0.16094 0.96819 -0.12700
C 	C 	0.82935 0.12950 0.96863 0.05900
C 	C 	0.86990 0.09258 0.97077 -0.01900
C 	C 	0.90432 0.06103 0.97358 -0.02100
C 	C 	0.37158 0.19793 0.98647 -0.10700
C 	C 	0.30191 0.16423 0.98702 0.06000
C 	C 	0.21990 0.12365 0.98699 -0.00800
C 	C 	0.14933 0.08636 0.98657 -0.02100
N 	N 	0.90323 0.93995 0.98046 -0.12500
C 	C 	0.94236 0.90553 0.98595 0.12300
N 	N 	0.02293 0.95426 0.98861 -0.11900
N 	N 	0.01107 0.94493 0.48726 -0.11900
C 	C 	0.93065 0.89648 0.48515 0.12200
N 	N 	0.89139 0.93072 0.47952 -0.12600
C 	C 	0.88700 0.80773 0.48673 -0.02100
C 	C 	0.89847 0.81639 0.98668 -0.02000
