data_crystal

_cell_length_a 29.06809
_cell_length_b 27.32409
_cell_length_c 30.56503
_cell_angle_alpha 89.92678
_cell_angle_beta  89.92171
_cell_angle_gamma 90.87641

_symmetry_space_group_name_	'P 1'
_symmetry_space_group_name_H-M	'P 1'

loop_
_symmetry_equiv_pos_as_xyz
  x,y,z

loop_
_atom_site_label
_atom_site_type_symbol
_atom_site_fract_x
_atom_site_fract_y
_atom_site_fract_z
_atom_site_charge
Zn	Zn	0.49700 0.50187 0.00281 1.21700
C 	C 	0.53537 0.59901 0.01208 0.26900
O 	O 	0.53621 0.46200 0.03998 -0.48900
O 	O 	0.50875 0.60135 0.04690 -0.44500
O 	O 	0.56392 0.52093 0.08498 -0.49800
C 	C 	0.41696 0.53914 0.04296 0.30300
O 	O 	0.44175 0.53998 0.00713 -0.45300
O 	O 	0.43643 0.52906 0.08066 -0.49800
C 	C 	0.57053 0.48158 0.06159 0.33800
O 	O 	0.44718 0.43442 0.99592 -0.32800
Zn	Zn	0.50143 0.54525 0.09160 1.16800
O 	O 	0.53938 0.55737 0.99062 -0.41400
C 	C 	0.46592 0.42785 0.95795 0.29300
O 	O 	0.49671 0.46047 0.94683 -0.37900
Zn	Zn	0.36513 0.14908 0.97495 1.22400
C 	C 	0.39615 0.15639 0.06460 0.30900
O 	O 	0.29752 0.14078 0.97622 -0.44200
O 	O 	0.38777 0.20348 0.06314 -0.44600
O 	O 	0.29104 0.17133 0.04515 -0.48700
C 	C 	0.39532 0.24806 0.96580 0.30900
O 	O 	0.40971 0.20313 0.97076 -0.44500
O 	O 	0.35542 0.26070 0.98192 -0.49600
C 	C 	0.27429 0.14499 0.01293 0.28600
O 	O 	0.36552 0.14889 0.89744 -0.31600
Zn	Zn	0.32898 0.22861 0.03308 1.17000
O 	O 	0.37912 0.12702 0.03453 -0.43900
C 	C 	0.38322 0.10572 0.90132 0.26800
O 	O 	0.38803 0.09047 0.94109 -0.37600
C 	C 	0.53728 0.02839 0.25849 0.15000
C 	C 	0.50881 0.05972 0.23469 -0.10500
H 	H 	0.48620 0.08439 0.25183 0.08000
C 	C 	0.50855 0.05793 0.18881 0.08000
C 	C 	0.53714 0.02516 0.16685 -0.07600
C 	C 	0.56544 0.99371 0.19060 0.03700
C 	C 	0.56585 0.99574 0.23638 -0.10400
H 	H 	0.58749 0.97126 0.25486 0.07100
N 	N 	0.53544 0.02777 0.30548 -0.17900
C 	C 	0.50930 0.99258 0.32627 0.19500
C 	C 	0.51165 0.98721 0.37203 -0.08500
C 	C 	0.53877 0.02018 0.39649 0.06700
C 	C 	0.56508 0.05629 0.37470 -0.08000
C 	C 	0.56238 0.06004 0.32879 0.20000
C 	C 	0.48952 0.94776 0.39315 0.01200
C 	C 	0.49357 0.94169 0.43828 -0.05700
C 	C 	0.51618 0.97768 0.46406 0.01300
C 	C 	0.54085 0.01595 0.44268 -0.02300
C 	C 	0.56935 0.04852 0.46688 0.01700
C 	C 	0.59555 0.08621 0.39864 0.01200
C 	C 	0.59910 0.08101 0.44391 -0.05600
C 	C 	0.51659 0.97488 0.51059 0.01300
C 	C 	0.54493 0.00765 0.53477 -0.02300
C 	C 	0.56925 0.04613 0.51339 0.01800
O 	O 	0.58643 0.09420 0.30807 -0.20000
O 	O 	0.48230 0.96323 0.30322 -0.19500
H 	H 	0.61794 0.11234 0.38208 0.04600
H 	H 	0.62672 0.10031 0.46042 0.04900
H 	H 	0.47080 0.92035 0.37443 0.04400
H 	H 	0.48136 0.90768 0.45243 0.04700
C 	C 	0.59097 0.08275 0.53912 -0.05600
C 	C 	0.59452 0.07722 0.58436 0.01400
C 	C 	0.57319 0.03728 0.60550 -0.08000
C 	C 	0.54720 0.00336 0.58095 0.06900
C 	C 	0.48762 0.94164 0.53364 -0.05600
C 	C 	0.49207 0.93581 0.57876 0.01300
C 	C 	0.52218 0.96619 0.60263 -0.08500
C 	C 	0.57533 0.03215 0.65131 0.20600
N 	N 	0.55118 0.99524 0.67189 -0.18400
C 	C 	0.52569 0.96182 0.64841 0.20000
C 	C 	0.54973 0.99378 0.71888 0.15100
C 	C 	0.58519 0.97155 0.74241 -0.10900
C 	C 	0.58383 0.97060 0.78829 0.09500
C 	C 	0.54742 0.99278 0.81053 -0.10800
C 	C 	0.51218 0.01539 0.78706 0.10200
C 	C 	0.51304 0.01518 0.74123 -0.10600
O 	O 	0.60008 0.06342 0.67461 -0.19000
O 	O 	0.50397 0.92576 0.66887 -0.19100
H 	H 	0.61351 0.95497 0.72507 0.08500
H 	H 	0.48565 0.03224 0.72295 0.08600
H 	H 	0.60290 0.11678 0.52475 0.04900
H 	H 	0.61245 0.10521 0.60308 0.04900
H 	H 	0.45990 0.92224 0.51740 0.04700
H 	H 	0.47041 0.90900 0.59535 0.04700
H 	H 	0.54660 0.99256 0.84601 0.07200
H 	H 	0.53659 0.02339 0.13140 0.06300
Zn	Zn	0.70672 0.85309 0.99663 1.22500
C 	C 	0.67140 0.86413 0.08504 0.35000
O 	O 	0.77433 0.85589 0.00262 -0.45900
O 	O 	0.67607 0.81680 0.09090 -0.45400
O 	O 	0.77547 0.83347 0.07442 -0.47600
C 	C 	0.66223 0.75851 0.00371 0.31500
O 	O 	0.65607 0.80514 0.99549 -0.43900
O 	O 	0.70145 0.74387 0.01979 -0.51100
C 	C 	0.79415 0.85690 0.04128 0.30400
O 	O 	0.71222 0.84095 0.92001 -0.31100
Zn	Zn	0.73191 0.78014 0.06616 1.17300
O 	O 	0.69081 0.88625 0.05141 -0.43700
C 	C 	0.69892 0.88603 0.91706 0.26900
O 	O 	0.69277 0.90792 0.95405 -0.37400
Zn	Zn	0.14933 0.65015 0.00158 1.21800
C 	C 	0.13576 0.64752 0.09494 0.31100
O 	O 	0.14055 0.71745 0.98066 -0.44100
O 	O 	0.17756 0.66495 0.10133 -0.44500
O 	O 	0.15025 0.75188 0.04773 -0.48400
C 	C 	0.24170 0.62713 0.02572 0.34500
O 	O 	0.19979 0.60916 0.02141 -0.46100
O 	O 	0.24859 0.67458 0.02827 -0.51600
C 	C 	0.13327 0.75340 0.00804 0.26800
O 	O 	0.16618 0.62527 0.92900 -0.31800
Zn	Zn	0.20629 0.71641 0.05952 1.17000
O 	O 	0.11543 0.65367 0.05705 -0.44200
C 	C 	0.12549 0.60507 0.93026 0.27000
O 	O 	0.10310 0.61055 0.96642 -0.37700
C 	C 	0.00227 0.47744 0.26954 0.11700
C 	C 	0.97611 0.44509 0.24367 -0.08100
H 	H 	0.95295 0.41882 0.25912 0.07200
C 	C 	0.97930 0.44733 0.19793 0.06200
C 	C 	0.00901 0.48173 0.17816 -0.10500
C 	C 	0.03483 0.51441 0.20393 0.08500
C 	C 	0.03151 0.51217 0.24963 -0.10100
H 	H 	0.05109 0.53768 0.26967 0.07700
N 	N 	0.99789 0.47616 0.31636 -0.16500
C 	C 	0.02413 0.44443 0.34012 0.18900
C 	C 	0.02140 0.44387 0.38613 -0.09300
C 	C 	0.99257 0.47706 0.40746 0.07700
C 	C 	0.96418 0.50750 0.38255 -0.08100
C 	C 	0.96757 0.50677 0.33660 0.20200
C 	C 	0.04567 0.40951 0.41083 0.01300
C 	C 	0.04268 0.40942 0.45640 -0.05700
C 	C 	0.01853 0.44656 0.47855 0.00500
C 	C 	0.99123 0.47892 0.45377 -0.01600
C 	C 	0.96115 0.51165 0.47487 0.01700
C 	C 	0.93179 0.53683 0.40370 0.01300
C 	C 	0.92899 0.53741 0.44926 -0.05600
C 	C 	0.01933 0.45062 0.52499 0.00500
C 	C 	0.98955 0.48375 0.54606 -0.01500
C 	C 	0.96234 0.51613 0.52121 0.01700
O 	O 	0.94176 0.53591 0.31291 -0.19800
O 	O 	0.05239 0.41474 0.31982 -0.19400
H 	H 	0.90763 0.55811 0.38491 0.04500
H 	H 	0.90035 0.55579 0.46421 0.04800
H 	H 	0.06565 0.38159 0.39477 0.04400
H 	H 	0.05707 0.37894 0.47392 0.04700
C 	C 	0.93889 0.55391 0.54314 -0.05500
C 	C 	0.93662 0.55471 0.58873 0.01400
C 	C 	0.96070 0.52033 0.61359 -0.08100
C 	C 	0.98851 0.48606 0.59237 0.07600
C 	C 	0.05090 0.42419 0.55074 -0.05600
C 	C 	0.04795 0.42482 0.59630 0.01300
C 	C 	0.01628 0.45509 0.61737 -0.09200
C 	C 	0.95889 0.52090 0.65963 0.20200
N 	N 	0.98454 0.48876 0.68353 -0.17600
C 	C 	0.01324 0.45639 0.66334 0.18900
C 	C 	0.98174 0.48944 0.73047 0.16200
C 	C 	0.01510 0.51498 0.75489 -0.12000
C 	C 	0.01233 0.51572 0.80066 0.07200
C 	C 	0.97576 0.49157 0.82194 -0.06700
C 	C 	0.94211 0.46645 0.79763 0.04300
C 	C 	0.94533 0.46505 0.75188 -0.10000
O 	O 	0.93236 0.55240 0.67987 -0.19600
O 	O 	0.03782 0.42613 0.68709 -0.19200
H 	H 	0.04303 0.53409 0.73828 0.08300
H 	H 	0.91951 0.44544 0.73294 0.07500
H 	H 	0.92446 0.58418 0.52533 0.04900
H 	H 	0.91728 0.58324 0.60463 0.04800
H 	H 	0.07930 0.40527 0.53595 0.04800
H 	H 	0.07164 0.40302 0.61516 0.04700
H 	H 	0.97349 0.49238 0.85736 0.06800
H 	H 	0.01106 0.48396 0.14278 0.06400
Zn	Zn	0.81676 0.34405 0.99940 1.22500
C 	C 	0.81002 0.37066 0.90833 0.34900
O 	O 	0.75768 0.35563 0.02844 -0.44700
O 	O 	0.78888 0.32900 0.89960 -0.44400
O 	O 	0.71663 0.35581 0.96527 -0.46500
C 	C 	0.82907 0.24744 0.96565 0.34200
O 	O 	0.84805 0.29103 0.97005 -0.45800
O 	O 	0.78416 0.24250 0.96215 -0.50200
C 	C 	0.72172 0.36950 0.00612 0.28300
O 	O 	0.84650 0.31334 0.06607 -0.32100
Zn	Zn	0.74482 0.29604 0.94383 1.17300
O 	O 	0.81073 0.38757 0.94856 -0.42400
C 	C 	0.86933 0.35450 0.06738 0.30900
O 	O 	0.86227 0.38414 0.03518 -0.37700
Zn	Zn	0.00625 0.02702 0.00959 1.21500
C 	C 	0.05146 0.93427 0.00866 0.30800
O 	O 	0.95875 0.01584 0.05425 -0.46900
O 	O 	0.07679 0.95307 0.04033 -0.45700
O 	O 	0.99201 0.95563 0.09323 -0.49000
C 	C 	0.09207 0.06583 0.03861 0.34400
O 	O 	0.06985 0.04886 0.00445 -0.46100
O 	O 	0.07663 0.05601 0.07809 -0.51200
C 	C 	0.95521 0.97436 0.07560 0.32700
O 	O 	0.98726 0.11008 0.00854 -0.32800
Zn	Zn	0.04989 0.99185 0.09198 1.16600
O 	O 	0.01679 0.95887 0.99232 -0.43200
C 	C 	0.96398 0.09993 0.97348 0.27200
O 	O 	0.96699 0.05497 0.96025 -0.36400
C 	C 	0.92380 0.12919 0.96253 -0.02500
C 	C 	0.92847 0.16843 0.93336 -0.03600
C 	C 	0.89577 0.20538 0.93281 0.03200
C 	C 	0.85863 0.20422 0.96230 -0.13200
C 	C 	0.85265 0.16329 0.99056 0.14200
C 	C 	0.88438 0.12507 0.98882 -0.06200
H 	H 	0.90034 0.23610 0.91068 0.03600
H 	H 	0.88064 0.09425 0.01098 0.05300
H 	H 	0.95864 0.17162 0.91264 0.05100
N 	N 	0.81846 0.16173 0.02104 -0.20800
H 	H 	0.79858 0.19222 0.02791 0.09200
H 	H 	0.81320 0.13039 0.04015 0.08800
C 	C 	0.90373 0.44139 0.82029 0.04500
C 	C 	0.90349 0.39035 0.82465 -0.07800
C 	C 	0.87105 0.36707 0.85161 0.04800
C 	C 	0.83856 0.39464 0.87453 -0.13600
C 	C 	0.83689 0.44567 0.86792 0.16600
C 	C 	0.86968 0.46884 0.84107 -0.11000
H 	H 	0.87243 0.32778 0.85619 0.03200
H 	H 	0.86921 0.50823 0.83699 0.08300
H 	H 	0.92951 0.36890 0.80846 0.06300
Br	Br	0.78930 0.48400 0.89400 -0.23500
C 	C 	0.94919 0.41625 0.17051 0.02800
C 	C 	0.96842 0.38144 0.14250 -0.04600
C 	C 	0.94124 0.35848 0.11066 0.02900
C 	C 	0.89469 0.37028 0.10645 -0.11300
C 	C 	0.87461 0.40272 0.13646 0.15500
C 	C 	0.90192 0.42552 0.16840 -0.09900
H 	H 	0.95686 0.33323 0.08795 0.03500
H 	H 	0.88679 0.45191 0.19037 0.07900
H 	H 	0.00481 0.37368 0.14425 0.03900
Br	Br	0.81030 0.41742 0.13338 -0.23700
C 	C 	0.10792 0.79642 0.99380 -0.01300
C 	C 	0.13187 0.83729 0.97736 -0.04500
C 	C 	0.11017 0.88244 0.97466 0.02800
C 	C 	0.06472 0.88724 0.98944 -0.12200
C 	C 	0.03839 0.84444 0.99861 0.14100
C 	C 	0.06066 0.79931 0.00212 -0.10300
H 	H 	0.13012 0.91468 0.96548 0.03500
H 	H 	0.04156 0.76697 0.01264 0.05600
H 	H 	0.16811 0.83485 0.96945 0.03700
N 	N 	0.99213 0.84657 0.00442 -0.21100
H 	H 	0.97425 0.87851 0.99765 0.11600
H 	H 	0.97323 0.81531 0.01349 0.08900
C 	C 	0.10237 0.58736 0.89062 -0.04200
C 	C 	0.06291 0.61090 0.87561 -0.01000
C 	C 	0.03537 0.58904 0.84353 -0.02500
C 	C 	0.04674 0.54316 0.82651 -0.04000
C 	C 	0.08808 0.52101 0.83938 0.10500
C 	C 	0.11588 0.54339 0.87124 -0.04800
H 	H 	0.00391 0.60659 0.83346 0.04200
H 	H 	0.14673 0.52543 0.88237 0.06700
H 	H 	0.05260 0.64525 0.89004 0.04500
Br	Br	0.10578 0.45913 0.81551 -0.23400
C 	C 	0.11234 0.61902 0.12938 -0.06500
C 	C 	0.06551 0.62631 0.13773 -0.00600
C 	C 	0.04096 0.59368 0.16446 -0.02900
C 	C 	0.06285 0.55312 0.18277 -0.04300
C 	C 	0.11048 0.54724 0.17646 0.10200
C 	C 	0.13510 0.58042 0.15004 -0.04200
H 	H 	0.00444 0.59877 0.16953 0.03900
H 	H 	0.17137 0.57481 0.14392 0.06500
H 	H 	0.04779 0.65640 0.12237 0.03700
Br	Br	0.14190 0.49281 0.20178 -0.24500
C 	C 	0.83547 0.88718 0.04849 -0.04300
C 	C 	0.87634 0.86505 0.06153 -0.03000
C 	C 	0.91426 0.89368 0.07398 0.01900
C 	C 	0.91194 0.94501 0.07340 -0.13100
C 	C 	0.86917 0.96731 0.06444 0.13100
C 	C 	0.83206 0.93826 0.04953 -0.06000
H 	H 	0.94598 0.87589 0.08279 0.03500
H 	H 	0.79960 0.95518 0.04161 0.06400
H 	H 	0.87872 0.82552 0.06209 0.03100
N 	N 	0.86253 0.01541 0.07338 -0.19800
H 	H 	0.88583 0.03530 0.09261 0.10200
H 	H 	0.83195 0.03225 0.06425 0.09200
C 	C 	0.67809 0.90510 0.87671 -0.03900
C 	C 	0.68166 0.95523 0.86713 -0.01000
C 	C 	0.65324 0.97592 0.83548 -0.02700
C 	C 	0.62064 0.94680 0.81337 -0.04300
C 	C 	0.61942 0.89582 0.82053 0.10700
C 	C 	0.64842 0.87513 0.85189 -0.04800
H 	H 	0.65485 0.01506 0.82979 0.05200
H 	H 	0.64585 0.83627 0.85873 0.07700
H 	H 	0.70496 0.97857 0.88564 0.04700
Br	Br	0.57634 0.85440 0.78994 -0.22700
C 	C 	0.59352 0.95757 0.16749 0.04400
C 	C 	0.57236 0.91705 0.14735 -0.08300
C 	C 	0.59847 0.88479 0.12247 0.04700
C 	C 	0.64589 0.89306 0.11714 -0.14300
C 	C 	0.66757 0.93239 0.13921 0.16500
C 	C 	0.64126 0.96453 0.16419 -0.11400
H 	H 	0.58157 0.85436 0.10611 0.01900
H 	H 	0.65781 0.99529 0.18045 0.07900
H 	H 	0.53554 0.91111 0.15027 0.05900
Br	Br	0.73310 0.94214 0.13640 -0.25300
C 	C 	0.22839 0.12256 0.01724 -0.05400
C 	C 	0.21917 0.09013 0.05173 -0.03500
C 	C 	0.17440 0.07302 0.05930 0.02800
C 	C 	0.13796 0.08884 0.03297 -0.14900
C 	C 	0.14685 0.12324 0.99904 0.14800
C 	C 	0.19245 0.13828 0.99042 -0.06400
H 	H 	0.16810 0.04675 0.08530 0.01200
H 	H 	0.19955 0.16436 0.96440 0.05000
H 	H 	0.24679 0.07821 0.07280 0.04600
N 	N 	0.11183 0.14383 0.97639 -0.20500
H 	H 	0.07770 0.13964 0.98652 0.10600
H 	H 	0.11879 0.16707 0.94993 0.09100
C 	C 	0.40959 0.08368 0.86552 -0.03700
C 	C 	0.40969 0.03266 0.86070 -0.01500
C 	C 	0.44176 0.01066 0.83322 -0.01000
C 	C 	0.47443 0.03940 0.81067 -0.04900
C 	C 	0.47301 0.09084 0.81382 0.11000
C 	C 	0.44023 0.11274 0.84079 -0.05000
H 	H 	0.44231 0.97112 0.83067 0.04200
H 	H 	0.44035 0.15220 0.84438 0.07500
H 	H 	0.38597 0.00994 0.87944 0.05000
Br	Br	0.51743 0.13161 0.78401 -0.23400
C 	C 	0.42119 0.13564 0.10189 -0.06400
C 	C 	0.46288 0.15693 0.11572 -0.00700
C 	C 	0.49017 0.13287 0.14642 -0.03000
C 	C 	0.47584 0.08750 0.16368 -0.04000
C 	C 	0.43256 0.06774 0.15197 0.10200
C 	C 	0.40549 0.09181 0.12113 -0.04100
H 	H 	0.52329 0.14849 0.15546 0.04200
H 	H 	0.37274 0.07582 0.11135 0.06700
H 	H 	0.47511 0.19098 0.10133 0.03700
Br	Br	0.41071 0.00699 0.17656 -0.24200
C 	C 	0.42509 0.28554 0.94534 -0.04800
C 	C 	0.40564 0.31997 0.91705 -0.02200
C 	C 	0.42572 0.36655 0.91288 0.01500
C 	C 	0.46445 0.37911 0.93794 -0.10900
C 	C 	0.48979 0.34113 0.95757 0.12700
C 	C 	0.46934 0.29440 0.96199 -0.06400
H 	H 	0.40763 0.39465 0.89508 0.03500
H 	H 	0.48607 0.26661 0.98138 0.05900
H 	H 	0.37268 0.31234 0.90179 0.04700
N 	N 	0.53211 0.35030 0.97480 -0.20300
H 	H 	0.54841 0.38432 0.97060 0.10500
H 	H 	0.54977 0.32284 0.99131 0.08700
C 	C 	0.36797 0.55240 0.04105 -0.03300
C 	C 	0.34678 0.57428 0.07714 -0.04400
C 	C 	0.30334 0.59488 0.07281 0.03400
C 	C 	0.28063 0.59417 0.03232 -0.15600
C 	C 	0.29996 0.56821 0.99683 0.16900
C 	C 	0.34361 0.54743 0.00160 -0.10400
H 	H 	0.28833 0.61376 0.10040 0.01400
H 	H 	0.35906 0.52851 0.97423 0.07900
H 	H 	0.36481 0.57745 0.10802 0.03700
N 	N 	0.27729 0.56375 0.95810 -0.21100
H 	H 	0.24415 0.57707 0.95401 0.11000
H 	H 	0.29243 0.54565 0.93177 0.09600
C 	C 	0.68775 0.40142 0.02649 -0.02800
C 	C 	0.65719 0.38260 0.05792 -0.03900
C 	C 	0.62160 0.41146 0.07383 0.03100
C 	C 	0.61632 0.45956 0.05861 -0.14100
C 	C 	0.65039 0.48038 0.03073 0.14200
C 	C 	0.68515 0.45056 0.01383 -0.08500
H 	H 	0.59626 0.39538 0.09579 0.02300
H 	H 	0.71006 0.46561 0.99082 0.08400
H 	H 	0.65977 0.34493 0.06863 0.03900
N 	N 	0.64983 0.52866 0.02006 -0.21300
H 	H 	0.62748 0.55264 0.03553 0.09700
H 	H 	0.67367 0.54321 0.99776 0.10200
C 	C 	0.56163 0.64316 0.99831 -0.01600
C 	C 	0.60357 0.63888 0.97609 -0.04000
C 	C 	0.63470 0.67841 0.97481 0.02200
C 	C 	0.62463 0.72243 0.99637 -0.10900
C 	C 	0.58047 0.72817 0.01562 0.11900
C 	C 	0.54860 0.68910 0.01416 -0.08600
H 	H 	0.66778 0.67396 0.95904 0.03900
H 	H 	0.51490 0.69334 0.02881 0.06000
H 	H 	0.61313 0.60430 0.96169 0.05700
N 	N 	0.56924 0.76974 0.03742 -0.20300
H 	H 	0.59382 0.79620 0.04567 0.10000
H 	H 	0.53575 0.77445 0.04902 0.08400
