data_crystal

_cell_length_a 19.93890
_cell_length_b 21.53655
_cell_length_c 32.95226
_cell_angle_alpha 60.82294
_cell_angle_beta  118.90165
_cell_angle_gamma 133.20296

_symmetry_space_group_name_	'P 1'
_symmetry_space_group_name_H-M	'P 1'

loop_
_symmetry_equiv_pos_as_xyz
  x,y,z

loop_
_atom_site_label
_atom_site_type_symbol
_atom_site_fract_x
_atom_site_fract_y
_atom_site_fract_z
_atom_site_charge
C 	C 	0.73519 0.33011 0.99192 0.03500
C 	C 	0.64005 0.29870 0.96938 -0.06100
C 	C 	0.60164 0.32859 0.97483 0.02300
C 	C 	0.66292 0.41106 0.98405 -0.05000
C 	C 	0.75674 0.44220 0.00918 0.01900
C 	C 	0.79358 0.40132 0.01318 -0.07400
H 	H 	0.59351 0.24331 0.95368 0.05800
H 	H 	0.63400 0.44263 0.97965 0.05900
H 	H 	0.86543 0.42322 0.03317 0.06200
C 	C 	0.74513 0.29761 0.52490 0.03300
C 	C 	0.66399 0.22292 0.54242 -0.06900
C 	C 	0.61460 0.23202 0.55550 0.03400
C 	C 	0.65025 0.31460 0.55553 -0.07000
C 	C 	0.73300 0.38954 0.54034 0.03400
C 	C 	0.77932 0.38190 0.52325 -0.06300
H 	H 	0.63722 0.15795 0.54409 0.05300
H 	H 	0.61173 0.32090 0.56613 0.05800
H 	H 	0.84076 0.44035 0.50901 0.06500
C 	C 	0.26578 0.64219 0.19675 0.03600
C 	C 	0.34743 0.70917 0.17814 -0.06500
C 	C 	0.38634 0.68751 0.16596 0.03500
C 	C 	0.33925 0.60087 0.16714 -0.06800
C 	C 	0.25553 0.53431 0.18261 0.03400
C 	C 	0.22042 0.55381 0.19948 -0.06900
H 	H 	0.38041 0.77766 0.17307 0.06500
H 	H 	0.36825 0.58498 0.15612 0.06000
H 	H 	0.15813 0.50109 0.21396 0.05000
C 	C 	0.26600 0.61987 0.70317 0.03100
C 	C 	0.36407 0.66231 0.72262 -0.06400
C 	C 	0.40986 0.63693 0.71982 0.03200
C 	C 	0.35715 0.55459 0.71250 -0.06700
C 	C 	0.25997 0.50998 0.69302 0.03100
C 	C 	0.21322 0.54287 0.68767 -0.06400
H 	H 	0.40569 0.71927 0.73613 0.06200
H 	H 	0.39363 0.53190 0.71456 0.05900
H 	H 	0.13814 0.51010 0.67139 0.05400
Co	Co	0.09055 0.04819 0.04434 1.16600
Co	Co	0.92988 0.93108 0.14951 1.19800
Co	Co	0.02510 0.10850 0.08564 1.16700
Co	Co	0.00477 0.87310 0.11128 1.17400
C 	C 	0.28793 0.10012 0.06082 0.30500
Co	Co	0.13047 0.92204 0.04919 1.18500
Co	Co	0.91324 0.07257 0.14858 1.16500
C 	C 	0.93617 0.76447 0.04713 0.29600
O 	O 	0.93856 0.17962 0.09059 -0.40200
O 	O 	0.96487 0.03556 0.12903 -0.76500
C 	C 	0.90789 0.17115 0.04737 0.30700
O 	O 	0.08489 0.14490 0.03537 -0.47800
O 	O 	0.92602 0.83043 0.15411 -0.44000
C 	C 	0.74373 0.90634 0.12244 0.29600
O 	O 	0.03718 0.99849 0.10848 -0.56600
C 	C 	0.11531 0.21810 0.15628 0.29400
C 	C 	0.06974 0.01852 0.95742 0.33900
C 	C 	0.13177 0.81598 0.15333 0.30200
O 	O 	0.91945 0.12583 0.03862 -0.38600
O 	O 	0.14214 0.01625 0.98494 -0.42300
O 	O 	0.02770 0.02489 0.97516 -0.40600
O 	O 	0.78127 0.99038 0.11125 -0.36700
O 	O 	0.78599 0.87916 0.12137 -0.37800
O 	O 	0.05281 0.14919 0.18204 -0.41200
O 	O 	0.12410 0.21200 0.12063 -0.37900
O 	O 	0.12156 0.82089 0.10959 -0.39300
O 	O 	0.10335 0.84834 0.16146 -0.38200
O 	O 	0.07513 0.95121 0.07187 -0.74100
C 	C 	0.94062 0.95117 0.23843 0.32200
O 	O 	0.88057 0.96974 0.20899 -0.39200
O 	O 	0.97263 0.93131 0.22260 -0.35300
O 	O 	0.25952 0.01794 0.08026 -0.40800
O 	O 	0.23744 0.12500 0.05457 -0.38500
O 	O 	0.99292 0.83317 0.01902 -0.35800
O 	O 	0.91084 0.77421 0.07341 -0.36600
Co	Co	0.07017 0.00342 0.55133 1.15800
Co	Co	0.93280 0.92663 0.65673 1.19400
Co	Co	0.01677 0.09023 0.58209 1.16200
Co	Co	0.96672 0.83377 0.61829 1.19800
C 	C 	0.24012 0.00367 0.57885 0.25000
Co	Co	0.05626 0.84034 0.55522 1.16700
Co	Co	0.90656 0.07280 0.63972 1.16900
C 	C 	0.85355 0.70979 0.55156 0.29100
O 	O 	0.82612 0.06995 0.57062 -0.39000
O 	O 	0.95161 0.02428 0.62403 -0.75900
C 	C 	0.86831 0.12997 0.53515 0.29300
O 	O 	0.09117 0.11573 0.54309 -0.48000
O 	O 	0.92174 0.81750 0.66920 -0.44500
C 	C 	0.75984 0.87511 0.66687 0.31000
O 	O 	0.97140 0.95535 0.59201 -0.54100
C 	C 	0.10095 0.22555 0.62840 0.30400
C 	C 	0.04332 0.96732 0.46349 0.30200
C 	C 	0.06613 0.75139 0.65754 0.30400
O 	O 	0.93484 0.13665 0.52909 -0.35600
O 	O 	0.09382 0.93804 0.49345 -0.39600
O 	O 	0.02324 0.99905 0.47864 -0.35700
O 	O 	0.79657 0.95255 0.66918 -0.37600
O 	O 	0.79157 0.86662 0.64447 -0.38400
O 	O 	0.01368 0.19966 0.61421 -0.43500
O 	O 	0.12238 0.18590 0.62131 -0.39700
O 	O 	0.02557 0.73621 0.61530 -0.41600
O 	O 	0.06613 0.80635 0.66510 -0.38700
O 	O 	0.02256 0.89554 0.57334 -0.75800
C 	C 	0.98801 0.00172 0.73703 0.19300
O 	O 	0.99635 0.07358 0.70661 -0.36100
O 	O 	0.99378 0.95382 0.72540 -0.31500
O 	O 	0.19437 0.91789 0.58971 -0.35500
O 	O 	0.20801 0.03886 0.58146 -0.39500
O 	O 	0.91423 0.77220 0.52407 -0.36900
O 	O 	0.85394 0.72596 0.58643 -0.35500
C 	C 	0.03426 0.00769 0.90895 -0.19100
C 	C 	0.01679 0.99837 0.87035 0.15800
C 	C 	0.00442 0.99026 0.82578 -0.06200
C 	C 	0.99680 0.98947 0.78678 0.06100
C 	C 	0.97048 0.95328 0.28834 -0.08100
C 	C 	0.98726 0.95939 0.32776 0.08900
C 	C 	0.00312 0.96745 0.37317 0.00600
C 	C 	0.01816 0.97129 0.41290 -0.06300
C 	C 	0.21088 0.43336 0.67491 0.01500
C 	C 	0.20604 0.35851 0.70847 -0.06000
C 	C 	0.19470 0.29912 0.69448 0.02100
C 	C 	0.17412 0.30650 0.64570 -0.08700
C 	C 	0.18712 0.38466 0.61277 0.01200
C 	C 	0.20169 0.44618 0.62660 -0.04000
H 	H 	0.21905 0.35051 0.74612 0.05300
H 	H 	0.17549 0.39307 0.57525 0.03400
C 	C 	0.20384 0.52059 0.59055 0.09200
C 	C 	0.20633 0.23180 0.73049 0.07300
N 	N 	0.20446 0.57950 0.56122 -0.10900
N 	N 	0.21615 0.17811 0.75945 -0.11300
C 	C 	0.66924 0.80148 0.67951 -0.08400
C 	C 	0.58771 0.79115 0.64506 0.02000
C 	C 	0.50550 0.74588 0.65872 -0.03700
C 	C 	0.50197 0.70429 0.70732 0.02100
C 	C 	0.58235 0.71094 0.74168 -0.05600
C 	C 	0.66590 0.75915 0.72799 0.03000
H 	H 	0.59054 0.82417 0.60777 0.05100
H 	H 	0.57897 0.67655 0.77880 0.05900
C 	C 	0.74803 0.76492 0.76382 0.07300
C 	C 	0.42505 0.74304 0.62264 0.10300
N 	N 	0.81377 0.76944 0.79254 -0.09900
N 	N 	0.36109 0.74155 0.59358 -0.10500
C 	C 	0.21952 0.65728 0.69831 0.01700
C 	C 	0.13687 0.60202 0.71491 -0.06100
C 	C 	0.09384 0.63638 0.71159 0.03500
C 	C 	0.13174 0.72623 0.69026 -0.08000
C 	C 	0.22296 0.78278 0.68292 0.00800
C 	C 	0.26269 0.74935 0.68196 -0.03500
H 	H 	0.10674 0.53277 0.73097 0.05100
H 	H 	0.25807 0.85301 0.67206 0.06300
C 	C 	0.34338 0.80960 0.66110 0.09600
C 	C 	0.01482 0.58040 0.73296 0.03900
N 	N 	0.40832 0.85907 0.64449 -0.10400
N 	N 	0.95199 0.53522 0.75062 -0.07200
C 	C 	0.16311 0.30504 0.16160 -0.08400
C 	C 	0.13650 0.35922 0.12454 0.00600
C 	C 	0.15240 0.42609 0.13347 -0.04100
C 	C 	0.20358 0.44505 0.17880 0.01100
C 	C 	0.23028 0.39098 0.21590 -0.06000
C 	C 	0.21171 0.32219 0.20740 0.02400
H 	H 	0.09840 0.34601 0.08936 0.04000
H 	H 	0.27078 0.40594 0.25067 0.05500
C 	C 	0.24350 0.26980 0.24579 0.07400
C 	C 	0.11735 0.47627 0.09565 0.08100
N 	N 	0.26890 0.22779 0.27654 -0.11000
N 	N 	0.08921 0.51640 0.06537 -0.12600
C 	C 	0.48054 0.75388 0.15571 0.01800
C 	C 	0.48739 0.79487 0.10794 -0.05500
C 	C 	0.57109 0.83837 0.09588 0.03100
C 	C 	0.64947 0.84221 0.13204 -0.08000
C 	C 	0.64235 0.80093 0.17972 0.01000
C 	C 	0.55956 0.75922 0.19186 -0.03500
H 	H 	0.42608 0.78941 0.07997 0.06000
H 	H 	0.70301 0.80484 0.20766 0.04500
C 	C 	0.55548 0.72084 0.24156 0.09700
C 	C 	0.57539 0.87719 0.04623 0.08600
N 	N 	0.55209 0.69006 0.28134 -0.10700
N 	N 	0.57878 0.90821 0.00645 -0.09800
C 	C 	0.22346 0.66568 0.20911 0.00900
C 	C 	0.12518 0.62432 0.19418 -0.04000
C 	C 	0.08944 0.66578 0.18967 -0.01300
C 	C 	0.15217 0.75394 0.19226 -0.06700
C 	C 	0.24666 0.78664 0.21687 0.00600
C 	C 	0.28165 0.74047 0.22729 -0.03100
H 	H 	0.07737 0.56295 0.18379 0.04100
H 	H 	0.29448 0.85091 0.22407 0.05400
C 	C 	0.37510 0.76811 0.25754 0.09500
C 	C 	0.98870 0.61985 0.17954 0.11800
N 	N 	0.45001 0.79023 0.28178 -0.10200
N 	N 	0.90790 0.58278 0.17182 -0.11300
C 	C 	0.79314 0.28603 0.50840 0.01500
C 	C 	0.73740 0.22790 0.47882 -0.05400
C 	C 	0.76709 0.18292 0.48081 0.02200
C 	C 	0.85651 0.20199 0.50919 -0.07400
C 	C 	0.92103 0.27791 0.52648 0.00400
C 	C 	0.88784 0.31417 0.53079 -0.03500
H 	H 	0.66700 0.21066 0.45849 0.05800
H 	H 	0.99489 0.30319 0.54087 0.06000
C 	C 	0.94667 0.37039 0.56314 0.09300
C 	C 	0.70375 0.11441 0.45576 0.07700
N 	N 	0.99286 0.41497 0.58924 -0.10800
N 	N 	0.65295 0.05945 0.43567 -0.11100
C 	C 	0.76963 0.47563 0.54253 0.01500
C 	C 	0.79339 0.48710 0.58730 -0.05300
C 	C 	0.80037 0.55421 0.59029 0.02600
C 	C 	0.79703 0.61838 0.54874 -0.07400
C 	C 	0.76769 0.60409 0.50392 0.00800
C 	C 	0.75524 0.53406 0.50060 -0.03600
H 	H 	0.79900 0.43946 0.61967 0.05700
H 	H 	0.76076 0.65106 0.47154 0.05100
C 	C 	0.72650 0.52203 0.45401 0.09400
C 	C 	0.80146 0.55177 0.63512 0.08900
N 	N 	0.70345 0.51234 0.41669 -0.10800
N 	N 	0.80141 0.54978 0.67083 -0.09900
C 	C 	0.51911 0.15736 0.56293 0.01100
C 	C 	0.50386 0.12415 0.60862 -0.05700
C 	C 	0.41311 0.07629 0.61419 0.02100
C 	C 	0.33656 0.05958 0.57376 -0.07500
C 	C 	0.35069 0.08684 0.52870 -0.00200
C 	C 	0.44128 0.13482 0.52313 -0.03500
H 	H 	0.56366 0.14055 0.63937 0.05100
H 	H 	0.29095 0.07076 0.49792 0.03400
C 	C 	0.45462 0.16402 0.47608 0.08500
C 	C 	0.39957 0.04682 0.66120 0.06800
N 	N 	0.46541 0.18746 0.43842 -0.11300
N 	N 	0.38873 0.02324 0.69887 -0.11800
C 	C 	0.77159 0.28472 0.99611 0.02700
C 	C 	0.85616 0.33416 0.98266 -0.05300
C 	C 	0.89547 0.29342 0.99036 0.02900
C 	C 	0.84980 0.20246 0.01145 -0.09000
C 	C 	0.75702 0.15168 0.01539 0.01100
C 	C 	0.72139 0.19196 0.01253 -0.05100
H 	H 	0.89293 0.40454 0.96775 0.06400
H 	H 	0.71897 0.08097 0.02867 0.03800
C 	C 	0.63955 0.13856 0.03143 0.07900
C 	C 	0.98635 0.34638 0.98015 0.11500
N 	N 	0.57392 0.09512 0.04664 -0.12600
N 	N 	0.05927 0.38884 0.97202 -0.13000
C 	C 	0.90060 0.67581 0.04878 -0.08500
C 	C 	0.81445 0.60060 0.06123 0.02100
C 	C 	0.77459 0.51945 0.05596 -0.04300
C 	C 	0.81466 0.51561 0.03221 0.02700
C 	C 	0.90443 0.58855 0.02374 -0.06900
C 	C 	0.94968 0.66690 0.03416 0.06800
H 	H 	0.77879 0.60480 0.07529 0.05000
H 	H 	0.93834 0.58517 0.00796 0.06900
C 	C 	0.04724 0.73637 0.03119 0.02600
C 	C 	0.69559 0.44024 0.07677 0.09300
N 	N 	0.12536 0.79175 0.02872 -0.12100
N 	N 	0.63233 0.37687 0.09350 -0.11300
C 	C 	0.51677 0.26308 0.99421 0.03700
C 	C 	0.52605 0.21718 0.04245 -0.07200
C 	C 	0.45413 0.16811 0.06548 0.03900
C 	C 	0.37051 0.16291 0.03992 -0.10300
C 	C 	0.36123 0.20925 0.99173 0.03400
C 	C 	0.43373 0.25888 0.96872 -0.05000
H 	H 	0.59195 0.22398 0.06274 0.06300
H 	H 	0.29648 0.20468 0.97182 0.04100
C 	C 	0.42216 0.30474 0.91895 0.09500
C 	C 	0.46839 0.12633 0.11593 0.07700
N 	N 	0.41288 0.34148 0.87906 -0.11600
N 	N 	0.47982 0.09287 0.15632 -0.11000
