data_crystal

_cell_length_a 23.06744
_cell_length_b 23.39642
_cell_length_c 34.98087
_cell_angle_alpha 95.48066
_cell_angle_beta  95.47984
_cell_angle_gamma 125.96236

_symmetry_space_group_name_	'P 1'
_symmetry_space_group_name_H-M	'P 1'

loop_
_symmetry_equiv_pos_as_xyz
  x,y,z

loop_
_atom_site_label
_atom_site_type_symbol
_atom_site_fract_x
_atom_site_fract_y
_atom_site_fract_z
_atom_site_charge
N 	N 	0.02931 0.97226 0.46469 -0.12600
N 	N 	0.01013 0.03406 0.99254 -0.13000
N 	N 	0.01964 0.06550 0.45885 -0.12700
C 	C 	0.06080 0.04184 0.46235 0.14900
C 	C 	0.03487 0.99430 0.98598 0.13800
C 	C 	0.11320 0.02972 0.98724 -0.01100
H 	H 	0.11491 0.95476 0.01820 0.06600
H 	H 	0.12977 0.11239 0.95615 0.05900
N 	N 	0.98746 0.92148 0.97951 -0.13400
C 	C 	0.93810 0.00072 0.99294 0.12700
C 	C 	0.91581 0.88828 0.97981 0.14700
N 	N 	0.89113 0.92776 0.98664 -0.13000
C 	C 	0.94681 0.01985 0.45805 0.12700
C 	C 	0.95657 0.92608 0.46371 0.14400
N 	N 	0.91502 0.94986 0.46072 -0.12600
Cu	Cu	0.61494 0.20727 0.00413 0.93800
Cu	Cu	0.68128 0.21618 0.92439 0.88600
Cu	Cu	0.63609 0.30633 0.94775 0.90800
Cu	Cu	0.60497 0.33458 0.02441 0.90700
C 	C 	0.63188 0.26588 0.08380 0.29800
O 	O 	0.50710 0.16039 0.00287 -0.30800
C 	C 	0.63173 0.26382 0.86560 0.29900
O 	O 	0.66585 0.31675 0.00280 -0.63800
O 	O 	0.60280 0.20608 0.94736 -0.63600
O 	O 	0.66582 0.16183 0.00536 -0.32000
O 	O 	0.74682 0.23959 0.97064 -0.41300
O 	O 	0.59332 0.28721 0.07064 -0.33700
O 	O 	0.67648 0.40622 0.94898 -0.32000
C 	C 	0.67578 0.44930 0.97600 0.29400
C 	C 	0.47506 0.18553 0.98592 0.29800
O 	O 	0.51469 0.25124 0.97910 -0.38100
O 	O 	0.64523 0.42744 0.00689 -0.36500
O 	O 	0.64277 0.22718 0.05997 -0.29300
C 	C 	0.72814 0.19228 0.99333 0.30900
O 	O 	0.61192 0.29215 0.89082 -0.30700
O 	O 	0.63916 0.21427 0.87379 -0.38000
H 	H 	0.71882 0.35268 0.01303 0.18500
H 	H 	0.55331 0.16888 0.93181 0.19300
Cu	Cu	0.75252 0.35664 0.45662 0.93300
Cu	Cu	0.76553 0.30925 0.54051 0.92100
Cu	Cu	0.65104 0.34187 0.51135 0.91600
Cu	Cu	0.63421 0.38261 0.43541 0.90500
C 	C 	0.69963 0.34802 0.37641 0.29800
O 	O 	0.81075 0.46527 0.45812 -0.30700
C 	C 	0.67718 0.32177 0.58730 0.30700
O 	O 	0.64336 0.31649 0.45631 -0.63900
O 	O 	0.75232 0.37126 0.51351 -0.62400
O 	O 	0.77890 0.28788 0.45267 -0.32600
O 	O 	0.83973 0.32174 0.51541 -0.36800
O 	O 	0.68129 0.38923 0.38927 -0.34400
O 	O 	0.55071 0.30603 0.50814 -0.36000
C 	C 	0.51168 0.30727 0.47849 0.29300
C 	C 	0.78881 0.50165 0.47373 0.27900
O 	O 	0.72251 0.46679 0.48102 -0.38100
O 	O 	0.54307 0.35258 0.45434 -0.36900
O 	O 	0.73280 0.33132 0.40060 -0.29400
C 	C 	0.82276 0.28756 0.47956 0.31000
O 	O 	0.66234 0.35803 0.56761 -0.34900
O 	O 	0.68579 0.27658 0.56851 -0.35000
H 	H 	0.60431 0.26525 0.44484 0.17700
H 	H 	0.78918 0.42194 0.52677 0.19300
C 	C 	0.66951 0.35344 0.77655 0.03100
C 	C 	0.63551 0.29359 0.74631 0.09700
C 	C 	0.59654 0.22352 0.75507 -0.10700
C 	C 	0.59240 0.21515 0.79424 0.07500
C 	C 	0.62922 0.27519 0.82474 0.00000
C 	C 	0.66900 0.34542 0.81590 -0.06900
C 	C 	0.64801 0.30559 0.70608 0.09200
C 	C 	0.56537 0.15830 0.72330 0.78900
H 	H 	0.56250 0.16181 0.80128 0.08900
C 	C 	0.70991 0.41182 0.84812 0.77600
H 	H 	0.69846 0.40661 0.76933 0.11900
C 	C 	0.60153 0.31131 0.67996 -0.10400
C 	C 	0.61223 0.31698 0.64113 0.07900
C 	C 	0.67113 0.32196 0.62902 -0.00200
C 	C 	0.72294 0.32589 0.65676 -0.06900
C 	C 	0.70852 0.31366 0.69444 0.03700
C 	C 	0.54333 0.31525 0.69394 0.78900
H 	H 	0.57445 0.31688 0.62014 0.08700
C 	C 	0.79297 0.34194 0.64636 0.77300
H 	H 	0.74462 0.31071 0.71494 0.11200
F 	F 	0.66049 0.41689 0.86447 -0.42800
F 	F 	0.75556 0.47413 0.83389 -0.42900
F 	F 	0.75270 0.40814 0.87679 -0.46700
F 	F 	0.62181 0.16026 0.71130 -0.42700
F 	F 	0.52433 0.15767 0.69153 -0.40100
F 	F 	0.52062 0.09463 0.73656 -0.41900
F 	F 	0.84498 0.36676 0.67965 -0.42000
F 	F 	0.82228 0.39445 0.62358 -0.47500
F 	F 	0.77876 0.27994 0.62621 -0.45100
F 	F 	0.50149 0.31703 0.66365 -0.42400
F 	F 	0.57623 0.37696 0.72177 -0.42400
F 	F 	0.49705 0.25608 0.71023 -0.39800
C 	C 	0.64196 0.22756 0.18656 0.03100
C 	C 	0.67500 0.29594 0.20885 0.09300
C 	C 	0.70141 0.35564 0.19002 -0.10600
C 	C 	0.69174 0.34466 0.14897 0.07500
C 	C 	0.65198 0.27520 0.12653 0.00000
C 	C 	0.62571 0.21546 0.14547 -0.05700
C 	C 	0.67929 0.30400 0.25186 0.09300
C 	C 	0.74170 0.43123 0.21356 0.78800
H 	H 	0.71327 0.39002 0.13421 0.07200
C 	C 	0.58096 0.13915 0.12223 0.77700
H 	H 	0.62605 0.18321 0.20142 0.11500
C 	C 	0.61839 0.28653 0.26857 -0.10700
C 	C 	0.62571 0.29753 0.30951 0.07500
C 	C 	0.69349 0.33042 0.33381 -0.00200
C 	C 	0.75499 0.35006 0.31694 -0.05800
C 	C 	0.74542 0.33125 0.27620 0.03200
C 	C 	0.54494 0.25365 0.24293 0.78800
H 	H 	0.57885 0.28158 0.32269 0.07100
C 	C 	0.83057 0.39069 0.34195 0.77800
H 	H 	0.79038 0.34065 0.26314 0.11500
F 	F 	0.55005 0.08878 0.14622 -0.40800
F 	F 	0.62533 0.12962 0.10316 -0.42500
F 	F 	0.52473 0.12589 0.09511 -0.41800
F 	F 	0.80835 0.45350 0.23362 -0.42000
F 	F 	0.70143 0.43267 0.23998 -0.40500
F 	F 	0.75421 0.47998 0.18977 -0.42300
F 	F 	0.83498 0.34436 0.36152 -0.42700
F 	F 	0.84509 0.44705 0.36876 -0.42700
F 	F 	0.88416 0.41954 0.31934 -0.40700
F 	F 	0.49620 0.25055 0.26452 -0.42400
F 	F 	0.51536 0.18446 0.22484 -0.42000
F 	F 	0.55280 0.29415 0.21474 -0.40500
C 	C 	0.87880 0.71989 0.47073 0.04200
C 	C 	0.85569 0.69223 0.50452 -0.04800
C 	C 	0.83248 0.62262 0.50700 0.01900
C 	C 	0.92429 0.85226 0.46597 -0.01200
C 	C 	0.85886 0.60925 0.44266 0.01900
C 	C 	0.88209 0.67896 0.44021 -0.04200
C 	C 	0.90208 0.79150 0.46804 0.02100
C 	C 	0.83183 0.57990 0.47560 -0.05900
H 	H 	0.85458 0.72411 0.52861 0.07100
H 	H 	0.81217 0.60079 0.53268 0.05500
H 	H 	0.85842 0.57689 0.41815 0.09200
H 	H 	0.90137 0.70057 0.41431 0.08100
C 	C 	0.86000 0.13715 0.46145 0.01800
C 	C 	0.85251 0.09759 0.49081 -0.02800
C 	C 	0.87397 0.05262 0.48783 -0.01000
C 	C 	0.83669 0.23543 0.47219 -0.06700
C 	C 	0.90592 0.08299 0.42494 -0.01000
C 	C 	0.88443 0.12786 0.42793 -0.02700
C 	C 	0.84723 0.19065 0.46694 0.06600
C 	C 	0.90356 0.04739 0.45560 -0.00500
H 	H 	0.83262 0.10364 0.51659 0.06800
H 	H 	0.87174 0.02537 0.51164 0.06200
H 	H 	0.92816 0.07897 0.39977 0.06200
H 	H 	0.88930 0.15732 0.40482 0.07400
C 	C 	0.28075 0.17995 0.47073 0.04600
C 	C 	0.31079 0.19973 0.43712 -0.05200
C 	C 	0.38634 0.24274 0.43979 0.02400
C 	C 	0.13802 0.09095 0.46507 -0.01300
C 	C 	0.40207 0.24762 0.50997 0.02900
C 	C 	0.32648 0.20458 0.50719 -0.04900
C 	C 	0.20306 0.13185 0.46758 0.02100
C 	C 	0.43241 0.26621 0.47618 -0.07100
H 	H 	0.27561 0.18087 0.40884 0.07400
H 	H 	0.40898 0.25644 0.41349 0.05200
H 	H 	0.43693 0.26616 0.53831 0.07200
H 	H 	0.30348 0.18969 0.53332 0.08300
C 	C 	0.78377 0.67051 0.96880 0.04500
C 	C 	0.80281 0.63097 0.94856 -0.03900
C 	C 	0.76603 0.55810 0.94984 0.03100
C 	C 	0.86717 0.81163 0.97530 -0.01700
C 	C 	0.68873 0.56337 0.99025 0.02100
C 	C 	0.72579 0.63629 0.98900 -0.04800
C 	C 	0.82818 0.74722 0.97200 0.02200
C 	C 	0.70983 0.52424 0.97146 -0.05000
H 	H 	0.84749 0.65714 0.93277 0.08300
H 	H 	0.78271 0.52864 0.93503 0.09900
H 	H 	0.64441 0.53763 0.00628 0.06100
H 	H 	0.71051 0.66653 0.00450 0.07300
C 	C 	0.84441 0.11250 0.00449 0.01600
C 	C 	0.82164 0.05473 0.02369 -0.02800
C 	C 	0.85468 0.02032 0.02149 -0.00900
C 	C 	0.76925 0.16472 0.99894 -0.08400
C 	C 	0.93570 0.10340 0.98220 -0.01100
C 	C 	0.90255 0.13777 0.98446 -0.03300
C 	C 	0.80381 0.14132 0.00215 0.06800
C 	C 	0.91063 0.04330 0.99986 -0.01000
H 	H 	0.77707 0.03522 0.03945 0.07300
H 	H 	0.83574 0.97486 0.03587 0.06400
H 	H 	0.97890 0.12183 0.96553 0.05600
H 	H 	0.92064 0.18263 0.96966 0.06100
C 	C 	0.25906 0.08901 0.98401 0.01700
C 	C 	0.21842 0.02999 0.00231 -0.02400
C 	C 	0.14586 0.00049 0.00399 -0.00500
C 	C 	0.39837 0.14899 0.98412 -0.06600
C 	C 	0.15439 0.08960 0.96939 -0.00800
C 	C 	0.22712 0.11911 0.96778 -0.02900
C 	C 	0.33461 0.12091 0.98362 0.06500
H 	H 	0.24305 0.00704 0.01534 0.07700
H 	H 	0.25851 0.16523 0.95389 0.06500
