data_crystal

_cell_length_a 26.60602
_cell_length_b 26.78340
_cell_length_c 26.58032
_cell_angle_alpha 95.46850
_cell_angle_beta  95.47168
_cell_angle_gamma 125.70951

_symmetry_space_group_name_	'P 1'
_symmetry_space_group_name_H-M	'P 1'

loop_
_symmetry_equiv_pos_as_xyz
  x,y,z

loop_
_atom_site_label
_atom_site_type_symbol
_atom_site_fract_x
_atom_site_fract_y
_atom_site_fract_z
_atom_site_charge
N 	N 	0.04450 0.07896 0.98933 -0.14100
C 	C 	0.06685 0.04473 0.98388 0.13700
N 	N 	0.97927 0.02456 0.42827 -0.14700
C 	C 	0.19053 0.07807 0.45026 0.02000
C 	C 	0.23508 0.10336 0.49586 -0.04700
C 	C 	0.31985 0.15919 0.44804 0.00300
C 	C 	0.27523 0.13393 0.40244 -0.03700
C 	C 	0.21088 0.09319 0.40345 -0.04700
C 	C 	0.12264 0.03454 0.45159 -0.02800
C 	C 	0.08201 0.04480 0.43095 -0.07800
H 	H 	0.21983 0.09191 0.53214 0.04100
H 	H 	0.29043 0.14542 0.36616 0.03500
H 	H 	0.17690 0.07315 0.36787 0.04100
H 	H 	0.09929 0.08590 0.41360 0.05400
C 	C 	0.22460 0.07817 0.96639 0.01600
C 	C 	0.24126 0.04605 0.93605 -0.04400
C 	C 	0.30442 0.07463 0.93269 -0.03600
C 	C 	0.15848 0.04550 0.97346 -0.02300
C 	C 	0.13067 0.07433 0.97213 -0.07800
H 	H 	0.31685 0.04891 0.90995 0.03700
H 	H 	0.15625 0.12146 0.96391 0.05700
C 	C 	0.98676 0.05315 0.00154 0.12600
C 	C 	0.86300 0.08902 0.40910 0.02100
C 	C 	0.79718 0.05137 0.39352 -0.04800
C 	C 	0.76468 0.07728 0.39896 -0.03600
C 	C 	0.89758 0.06155 0.40635 -0.03000
C 	C 	0.87872 0.00999 0.42599 -0.07500
H 	H 	0.71378 0.04756 0.38815 0.03600
C 	C 	0.88522 0.10751 0.02752 0.01800
C 	C 	0.82048 0.07569 0.01028 -0.05800
C 	C 	0.79535 0.10905 0.00692 -0.05500
C 	C 	0.91200 0.07224 0.02750 -0.02600
C 	C 	0.96227 0.09039 0.00550 -0.09500
H 	H 	0.78995 0.02530 0.99793 0.05300
H 	H 	0.74580 0.08420 0.99119 0.04900
H 	H 	0.98569 0.13337 0.99010 0.06800
C 	C 	0.79772 0.14123 0.41883 0.00000
H 	H 	0.88771 0.02883 0.04224 0.04100
C 	C 	0.01449 0.00321 0.43373 0.13400
H 	H 	0.94143 0.08647 0.39182 0.04300
H 	H 	0.73003 0.15655 0.04478 0.07300
C 	C 	0.29940 0.14443 0.49494 -0.03600
H 	H 	0.72225 0.14026 0.44880 0.02900
H 	H 	0.77121 0.00204 0.37768 0.04100
C 	C 	0.89620 0.15330 0.42743 -0.04900
C 	C 	0.92412 0.17272 0.04430 -0.04600
H 	H 	0.94702 0.18286 0.43890 0.04000
O 	O 	0.54925 0.22561 0.99806 -0.36200
O 	O 	0.53714 0.23660 0.50147 -0.38800
C 	C 	0.49793 0.24096 0.47134 0.30700
H 	H 	0.59566 0.23862 0.41445 0.16200
H 	H 	0.58672 0.21622 0.74946 0.03400
H 	H 	0.58762 0.21864 0.65703 0.03900
C 	C 	0.38783 0.20311 0.44663 0.00700
C 	C 	0.43003 0.19788 0.47261 -0.14900
H 	H 	0.33325 0.16516 0.53066 0.03900
H 	H 	0.40283 0.23775 0.42202 0.03300
H 	H 	0.41419 0.16085 0.49484 0.07600
C 	C 	0.35155 0.13564 0.95959 0.00000
C 	C 	0.33485 0.16799 0.98974 -0.02200
C 	C 	0.27180 0.13935 0.99328 -0.03200
C 	C 	0.41861 0.16190 0.96181 0.01200
C 	C 	0.46148 0.22172 0.95740 -0.15000
H 	H 	0.25990 0.16396 0.01820 0.02700
H 	H 	0.44618 0.24953 0.94624 0.07500
O 	O 	0.67229 0.20674 0.01802 -0.38000
C 	C 	0.72602 0.22377 0.00540 0.28900
O 	O 	0.71648 0.23107 0.47129 -0.44700
C 	C 	0.86375 0.17925 0.43276 -0.03600
C 	C 	0.76259 0.16667 0.43010 0.00700
C 	C 	0.77979 0.22138 0.41754 -0.16100
C 	C 	0.83467 0.17460 0.02185 0.01300
C 	C 	0.89903 0.20612 0.04097 -0.04400
C 	C 	0.81049 0.21097 0.01154 -0.02200
C 	C 	0.75521 0.19422 0.02343 -0.14700
H 	H 	0.97387 0.19758 0.05925 0.03800
H 	H 	0.60042 0.23580 0.91188 0.17000
H 	H 	0.88975 0.22847 0.44904 0.03400
H 	H 	0.83830 0.25189 0.99402 0.04600
C 	C 	0.52957 0.25203 0.97153 0.30200
Cu	Cu	0.69804 0.24357 0.90855 0.87100
O 	O 	0.66866 0.24722 0.84161 -0.41800
H 	H 	0.81672 0.24503 0.39505 0.07900
H 	H 	0.92977 0.25662 0.05254 0.03500
Cu	Cu	0.64027 0.25717 0.00875 0.92200
O 	O 	0.64220 0.25922 0.93461 -0.63600
C 	C 	0.62685 0.25594 0.73757 -0.01300
C 	C 	0.62727 0.25745 0.68516 -0.01300
H 	H 	0.37093 0.21436 0.01199 0.02400
O 	O 	0.74948 0.26106 0.97199 -0.43100
C 	C 	0.75180 0.25197 0.43611 0.31100
O 	O 	0.65230 0.27174 0.08235 -0.36300
O 	O 	0.62215 0.28221 0.43382 -0.64200
O 	O 	0.51874 0.28838 0.44666 -0.39900
O 	O 	0.63231 0.28067 0.57965 -0.38700
H 	H 	0.43321 0.13228 0.96823 0.03700
Cu	Cu	0.62753 0.28915 0.50667 0.89700
Cu	Cu	0.73690 0.28552 0.53353 0.87000
H 	H 	0.56006 0.29943 0.16536 0.03800
H 	H 	0.56482 0.30376 0.25870 0.03200
C 	C 	0.68163 0.29950 0.82909 0.28100
C 	C 	0.60200 0.30742 0.24169 -0.01500
C 	C 	0.59930 0.30499 0.18869 -0.01100
O 	O 	0.76834 0.30443 0.42187 -0.38200
C 	C 	0.64566 0.31040 0.11043 0.28100
O 	O 	0.57037 0.30919 0.96391 -0.39000
C 	C 	0.68391 0.30503 0.61416 0.28100
C 	C 	0.67872 0.30483 0.77445 -0.07000
C 	C 	0.67996 0.30750 0.66914 -0.07000
C 	C 	0.64704 0.30977 0.16588 -0.06600
C 	C 	0.65290 0.31540 0.27268 -0.06400
C 	C 	0.69654 0.31504 0.19634 -0.01300
O 	O 	0.70033 0.32105 0.35729 -0.36100
O 	O 	0.73600 0.31806 0.60026 -0.41900
C 	C 	0.69963 0.31803 0.24953 -0.01200
H 	H 	0.73337 0.31825 0.17905 0.03700
C 	C 	0.65876 0.32439 0.32934 0.28000
H 	H 	0.73903 0.32378 0.27274 0.04700
Cu	Cu	0.59645 0.33123 0.41531 0.89200
Cu	Cu	0.71843 0.33714 0.43100 0.92800
O 	O 	0.62471 0.33917 0.08892 -0.38800
O 	O 	0.72001 0.33955 0.50594 -0.64100
H 	H 	0.20537 0.99862 0.91564 0.03900
H 	H 	0.13221 0.99721 0.97886 0.04300
H 	H 	0.10662 0.99642 0.47259 0.04200
H 	H 	0.83501 0.98536 0.44074 0.05300
C 	C 	0.91644 0.98593 0.42836 0.13300
N 	N 	0.03064 0.98393 0.98976 -0.14000
N 	N 	0.98662 0.94278 0.43893 -0.14700
Cu	Cu	0.64720 0.37871 0.02646 0.88600
O 	O 	0.70616 0.34993 0.86461 -0.38700
O 	O 	0.63242 0.34829 0.35080 -0.38400
O 	O 	0.66942 0.41042 0.47480 -0.39400
C 	C 	0.97235 0.95759 0.00126 0.12500
N 	N 	0.95076 0.99242 0.00750 -0.14800
C 	C 	0.92380 0.90405 0.43911 0.13400
N 	N 	0.88884 0.92569 0.43366 -0.14800
Cu	Cu	0.69406 0.35171 0.93677 0.90000
O 	O 	0.69721 0.35360 0.00915 -0.65000
O 	O 	0.74777 0.44186 0.94472 -0.38300
C 	C 	0.74209 0.47989 0.97474 0.29900
O 	O 	0.69334 0.45820 0.99833 -0.38800
H 	H 	0.74035 0.37904 0.02990 0.16000
O 	O 	0.75087 0.42753 0.43841 -0.37000
C 	C 	0.72607 0.44934 0.46480 0.30200
H 	H 	0.74448 0.38198 0.52729 0.17100
C 	C 	0.73009 0.35636 0.75851 -0.01300
C 	C 	0.73088 0.35749 0.70607 -0.01300
H 	H 	0.77036 0.39444 0.78665 0.03900
H 	H 	0.77151 0.39666 0.69416 0.03500
C 	C 	0.89069 0.75106 0.46624 0.02000
C 	C 	0.88241 0.72703 0.51188 -0.04700
C 	C 	0.85492 0.66347 0.51017 -0.03700
C 	C 	0.83624 0.62375 0.46281 0.00400
C 	C 	0.84537 0.64804 0.41733 -0.03700
C 	C 	0.87223 0.71131 0.41897 -0.04600
C 	C 	0.81182 0.55786 0.46078 0.00600
C 	C 	0.75824 0.51750 0.47746 -0.15000
C 	C 	0.92104 0.81839 0.46818 -0.02900
C 	C 	0.89238 0.83727 0.44021 -0.07800
H 	H 	0.89717 0.75751 0.54860 0.04000
H 	H 	0.84913 0.64538 0.54562 0.03700
H 	H 	0.83191 0.61790 0.38070 0.03800
H 	H 	0.87948 0.72964 0.38360 0.04100
H 	H 	0.83391 0.54080 0.44018 0.03900
H 	H 	0.73563 0.53455 0.49723 0.07300
H 	H 	0.96631 0.85263 0.49346 0.04100
H 	H 	0.84464 0.80306 0.41873 0.05400
C 	C 	0.82085 0.65590 0.99760 0.04700
C 	C 	0.79495 0.68688 0.98430 -0.05100
C 	C 	0.83433 0.75032 0.98130 -0.03800
C 	C 	0.90016 0.78384 0.99295 0.02600
C 	C 	0.92604 0.75290 0.00654 -0.05300
C 	C 	0.88662 0.68935 0.00931 -0.06400
C 	C 	0.94228 0.85046 0.98812 -0.01100
C 	C 	0.93273 0.89175 0.00810 -0.09600
C 	C 	0.77877 0.58866 0.00026 -0.04200
C 	C 	0.78563 0.54770 0.97483 -0.11400
H 	H 	0.74429 0.66153 0.97541 0.04500
H 	H 	0.81371 0.77318 0.96930 0.04200
H 	H 	0.97670 0.77815 0.01521 0.03600
H 	H 	0.90716 0.66619 0.02062 0.03900
H 	H 	0.98241 0.86604 0.96943 0.04200
H 	H 	0.89357 0.87618 0.02807 0.05400
H 	H 	0.73949 0.57217 0.02025 0.04000
H 	H 	0.82346 0.56437 0.95308 0.07100
