data_crystal

_cell_length_a 22.62055
_cell_length_b 21.48836
_cell_length_c 27.04499
_cell_angle_alpha 90.00000
_cell_angle_beta  90.00000
_cell_angle_gamma 90.06230

_symmetry_space_group_name_	'P 1'
_symmetry_space_group_name_H-M	'P 1'

loop_
_symmetry_equiv_pos_as_xyz
  x,y,z

loop_
_atom_site_label
_atom_site_type_symbol
_atom_site_fract_x
_atom_site_fract_y
_atom_site_fract_z
_atom_site_charge
Co	Co	0.08625 0.03279 0.00707 1.19300
C 	C 	0.84917 0.85220 0.06079 0.29500
Co	Co	0.21467 0.97042 0.01824 1.16900
O 	O 	0.12173 0.96769 0.02031 -0.77700
O 	O 	0.01354 0.96395 0.02584 -0.55900
C 	C 	0.17517 0.86025 0.08057 0.29700
C 	C 	0.84487 0.06277 0.06898 0.29400
O 	O 	0.21838 0.89988 0.07081 -0.37800
O 	O 	0.13788 0.84259 0.04555 -0.38600
O 	O 	0.80347 0.02466 0.05239 -0.37800
O 	O 	0.88640 0.08416 0.03909 -0.38600
O 	O 	0.90745 0.96230 0.00694 -0.77800
C 	C 	0.18255 0.08688 0.07532 0.29700
O 	O 	0.21142 0.03350 0.07636 -0.38400
O 	O 	0.12744 0.09025 0.05868 -0.38300
O 	O 	0.80655 0.89082 0.04767 -0.38000
O 	O 	0.89132 0.83662 0.02928 -0.39000
Co	Co	0.59127 0.52798 0.50167 1.18800
Co	Co	0.44374 0.40002 0.50818 1.18900
Co	Co	0.44771 0.53431 0.50585 1.18500
Co	Co	0.58677 0.39419 0.50233 1.18400
C 	C 	0.68059 0.55688 0.57625 0.30600
Co	Co	0.71769 0.45981 0.50335 1.16500
Co	Co	0.31748 0.46835 0.51796 1.16600
C 	C 	0.68634 0.35387 0.43558 0.30000
O 	O 	0.30727 0.55554 0.48575 -0.40600
O 	O 	0.40918 0.46776 0.50340 -0.77500
C 	C 	0.33960 0.57588 0.44860 0.30100
O 	O 	0.52191 0.58676 0.50424 -0.47300
O 	O 	0.51311 0.34141 0.50752 -0.47500
C 	C 	0.34557 0.38026 0.43387 0.29100
O 	O 	0.51598 0.46390 0.48069 -0.58500
C 	C 	0.36667 0.56004 0.59148 0.29800
C 	C 	0.68661 0.55331 0.42335 0.29400
C 	C 	0.67597 0.37062 0.58243 0.29800
O 	O 	0.39783 0.57895 0.45232 -0.39300
O 	O 	0.71901 0.50416 0.43513 -0.39200
O 	O 	0.64725 0.57720 0.45448 -0.38600
O 	O 	0.30885 0.42388 0.45003 -0.38700
O 	O 	0.38357 0.35294 0.46420 -0.38500
O 	O 	0.32905 0.51375 0.58527 -0.38900
O 	O 	0.42233 0.55397 0.57758 -0.40300
O 	O 	0.71527 0.41365 0.57081 -0.39500
O 	O 	0.61943 0.37959 0.57272 -0.40400
O 	O 	0.62505 0.46017 0.49451 -0.77700
C 	C 	0.36150 0.37181 0.58872 0.30600
O 	O 	0.32056 0.38311 0.55522 -0.39600
O 	O 	0.41663 0.38779 0.58008 -0.40500
O 	O 	0.71860 0.54476 0.54060 -0.40200
O 	O 	0.62490 0.54053 0.57124 -0.40900
O 	O 	0.72489 0.37375 0.46848 -0.40300
O 	O 	0.63052 0.34503 0.44807 -0.39400
C 	C 	0.33431 0.35135 0.38520 -0.08900
C 	C 	0.38004 0.32010 0.36037 0.02000
C 	C 	0.36849 0.28829 0.31630 -0.07500
C 	C 	0.31135 0.28800 0.29624 0.04800
C 	C 	0.26582 0.32040 0.32044 -0.07500
C 	C 	0.27732 0.35223 0.36450 0.02200
C 	C 	0.29810 0.24796 0.25315 -0.05200
C 	C 	0.26573 0.26911 0.21500 -0.05200
C 	C 	0.24550 0.22634 0.17566 0.04800
C 	C 	0.18536 0.22374 0.16339 -0.07400
C 	C 	0.16493 0.17977 0.12933 0.02200
C 	C 	0.20469 0.13819 0.10681 -0.08600
C 	C 	0.26545 0.14347 0.11689 0.02100
C 	C 	0.28577 0.18739 0.15109 -0.07400
H 	H 	0.42438 0.31976 0.37552 0.02600
H 	H 	0.40383 0.26316 0.29809 0.04800
H 	H 	0.22117 0.31930 0.30597 0.05000
H 	H 	0.24150 0.37587 0.38327 0.03500
H 	H 	0.31496 0.20060 0.25270 0.04500
H 	H 	0.24941 0.31668 0.21523 0.04400
H 	H 	0.15415 0.25451 0.18141 0.05100
H 	H 	0.11803 0.17692 0.12161 0.04000
H 	H 	0.29684 0.11300 0.09878 0.02900
H 	H 	0.33264 0.19062 0.15894 0.04900
C 	C 	0.34653 0.33524 0.63321 -0.09300
C 	C 	0.39025 0.30050 0.65774 0.02400
C 	C 	0.37535 0.26390 0.69866 -0.07600
C 	C 	0.31666 0.26115 0.71512 0.04900
C 	C 	0.27327 0.29725 0.69156 -0.07600
C 	C 	0.28808 0.33391 0.65073 0.02500
C 	C 	0.30126 0.22230 0.75831 -0.05200
C 	C 	0.25552 0.18240 0.75647 -0.05300
H 	H 	0.43554 0.30111 0.64475 0.03400
H 	H 	0.40930 0.23703 0.71714 0.04900
H 	H 	0.22816 0.29712 0.70503 0.05100
H 	H 	0.25416 0.36144 0.63285 0.03000
H 	H 	0.22902 0.17891 0.72304 0.04600
C 	C 	0.18097 0.82123 0.12529 -0.08700
C 	C 	0.20748 0.84600 0.16793 0.01900
C 	C 	0.22185 0.80725 0.20761 -0.07300
C 	C 	0.20840 0.74339 0.20571 0.04700
C 	C 	0.17957 0.71912 0.16402 -0.07300
C 	C 	0.16570 0.75781 0.12405 0.02100
C 	C 	0.23016 0.70062 0.24462 -0.05100
C 	C 	0.22821 0.71649 0.29270 -0.05300
C 	C 	0.25528 0.67656 0.33110 0.04900
C 	C 	0.22587 0.66746 0.37614 -0.07700
C 	C 	0.25297 0.63406 0.41426 0.02200
C 	C 	0.31018 0.60977 0.40787 -0.09200
C 	C 	0.33948 0.61854 0.36260 0.02200
C 	C 	0.31242 0.65220 0.32458 -0.07600
H 	H 	0.21879 0.89497 0.16965 0.03500
H 	H 	0.24527 0.82648 0.23903 0.04900
H 	H 	0.16915 0.66995 0.16207 0.05100
H 	H 	0.14511 0.73795 0.09151 0.04100
H 	H 	0.24732 0.65536 0.23384 0.04400
H 	H 	0.20508 0.75847 0.30404 0.04400
H 	H 	0.18214 0.68672 0.38178 0.05000
H 	H 	0.22984 0.62805 0.44900 0.03300
H 	H 	0.38335 0.59967 0.35694 0.03100
H 	H 	0.33631 0.66032 0.29047 0.05000
C 	C 	0.70795 0.32676 0.38864 -0.09300
C 	C 	0.66887 0.31882 0.34875 0.02100
C 	C 	0.68869 0.29261 0.30447 -0.07700
C 	C 	0.74770 0.27379 0.29951 0.04700
C 	C 	0.78735 0.28319 0.33883 -0.07700
C 	C 	0.76751 0.30921 0.38328 0.02000
C 	C 	0.76800 0.24686 0.25209 -0.05400
C 	C 	0.80029 0.19437 0.25088 -0.05300
C 	C 	0.81181 0.16211 0.20357 0.04600
C 	C 	0.86973 0.14551 0.19063 -0.07700
C 	C 	0.88061 0.11347 0.14648 0.01800
C 	C 	0.83348 0.09681 0.11537 -0.08900
C 	C 	0.77543 0.11285 0.12868 0.02300
C 	C 	0.76465 0.14515 0.17260 -0.07600
H 	H 	0.62316 0.33328 0.35192 0.02900
H 	H 	0.65803 0.28661 0.27406 0.04700
H 	H 	0.83351 0.27080 0.33487 0.04500
H 	H 	0.79839 0.31542 0.41349 0.03000
H 	H 	0.75146 0.26663 0.21776 0.04300
H 	H 	0.81760 0.17457 0.28490 0.04100
H 	H 	0.90633 0.15767 0.21462 0.04400
H 	H 	0.92554 0.10106 0.13674 0.01900
H 	H 	0.73867 0.10065 0.10489 0.03600
H 	H 	0.71961 0.15657 0.18275 0.04900
C 	C 	0.69878 0.59638 0.61822 -0.09500
C 	C 	0.65752 0.63521 0.64176 0.02300
C 	C 	0.67558 0.67506 0.67974 -0.07700
C 	C 	0.73503 0.67691 0.69431 0.04700
C 	C 	0.77602 0.63685 0.67178 -0.07800
C 	C 	0.75803 0.59702 0.63377 0.02300
C 	C 	0.75323 0.71811 0.73534 -0.05400
C 	C 	0.80124 0.75479 0.73152 -0.05400
C 	C 	0.81920 0.79542 0.77294 0.04700
H 	H 	0.61167 0.63526 0.63017 0.03300
H 	H 	0.64343 0.70497 0.69752 0.04700
H 	H 	0.82163 0.63617 0.68399 0.04500
H 	H 	0.79009 0.56647 0.61658 0.02500
H 	H 	0.72554 0.72061 0.76815 0.04300
H 	H 	0.82906 0.75245 0.69880 0.04000
H 	H 	0.90908 0.76160 0.77449 0.04300
H 	H 	0.73443 0.84128 0.77918 0.04700
C 	C 	0.69228 0.32343 0.61987 -0.09100
C 	C 	0.65488 0.27242 0.62908 0.01900
C 	C 	0.67064 0.22762 0.66422 -0.07600
C 	C 	0.72433 0.23270 0.68980 0.04700
C 	C 	0.76165 0.28367 0.68078 -0.07700
C 	C 	0.74589 0.32861 0.64593 0.02000
C 	C 	0.73920 0.18726 0.72881 -0.05300
C 	C 	0.79270 0.16007 0.73018 -0.05400
C 	C 	0.81215 0.12483 0.77420 0.04800
H 	H 	0.61373 0.26735 0.60898 0.03100
H 	H 	0.64122 0.18884 0.67141 0.04800
H 	H 	0.80247 0.28896 0.70132 0.04600
H 	H 	0.77513 0.36776 0.63963 0.03200
H 	H 	0.70672 0.17731 0.75736 0.04300
H 	H 	0.82466 0.16968 0.70112 0.04100
H 	H 	0.89705 0.17077 0.77799 0.04400
H 	H 	0.73333 0.06793 0.77895 0.04800
C 	C 	0.35121 0.60949 0.62703 -0.09100
C 	C 	0.39250 0.62983 0.66234 0.02300
C 	C 	0.37683 0.67545 0.69686 -0.07600
C 	C 	0.31972 0.70088 0.69663 0.04700
C 	C 	0.27905 0.68195 0.66032 -0.07500
C 	C 	0.29457 0.63609 0.62602 0.02000
C 	C 	0.30351 0.74872 0.73366 -0.05200
C 	C 	0.25211 0.74531 0.75860 -0.05200
H 	H 	0.43638 0.60974 0.66355 0.03500
H 	H 	0.40883 0.69042 0.72420 0.04700
H 	H 	0.23558 0.70293 0.65850 0.04900
H 	H 	0.26271 0.62156 0.59840 0.02800
H 	H 	0.33553 0.78465 0.74289 0.04200
H 	H 	0.21995 0.70955 0.74929 0.04500
H 	H 	0.14904 0.80665 0.77207 0.05100
C 	C 	0.83849 0.81185 0.10383 -0.09200
C 	C 	0.84981 0.74765 0.10105 0.02000
C 	C 	0.83134 0.70817 0.13912 -0.07700
C 	C 	0.80202 0.73249 0.18048 0.04600
C 	C 	0.79219 0.79690 0.18388 -0.07600
C 	C 	0.81088 0.83637 0.14599 0.01800
C 	C 	0.77719 0.68987 0.21793 -0.05300
C 	C 	0.78364 0.70150 0.26642 -0.05400
C 	C 	0.75363 0.66272 0.30382 0.04600
C 	C 	0.72307 0.69138 0.34269 -0.07600
C 	C 	0.69835 0.65548 0.38046 0.01900
C 	C 	0.70455 0.59040 0.37999 -0.09100
C 	C 	0.73350 0.56159 0.34015 0.01800
C 	C 	0.75849 0.59758 0.30254 -0.07600
H 	H 	0.87088 0.72803 0.06864 0.03600
H 	H 	0.83887 0.65853 0.13606 0.04700
H 	H 	0.76851 0.81613 0.21516 0.04700
H 	H 	0.80227 0.88586 0.14869 0.02900
H 	H 	0.75359 0.64853 0.20571 0.04300
H 	H 	0.80783 0.74252 0.27853 0.04000
H 	H 	0.71918 0.74161 0.34400 0.04700
H 	H 	0.67622 0.67845 0.41091 0.03700
H 	H 	0.73797 0.51140 0.33898 0.03200
H 	H 	0.78282 0.57496 0.27310 0.04700
Co	Co	0.08939 0.90233 0.00130 1.18900
H 	H 	0.32817 0.22554 0.79152 0.04300
C 	C 	0.87689 0.79201 0.79167 -0.08000
H 	H 	0.14502 0.17506 0.79361 0.05200
C 	C 	0.77843 0.83645 0.79454 -0.07900
C 	C 	0.86768 0.13720 0.79508 -0.07900
C 	C 	0.77519 0.07993 0.79593 -0.07800
C 	C 	0.23779 0.79013 0.79841 0.04800
C 	C 	0.23650 0.14790 0.80095 0.05000
C 	C 	0.18090 0.81576 0.80110 -0.07500
C 	C 	0.17691 0.14889 0.81506 -0.07600
H 	H 	0.32302 0.11005 0.81695 0.04900
C 	C 	0.27722 0.11279 0.82846 -0.07700
C 	C 	0.89239 0.82562 0.83405 0.02200
C 	C 	0.79381 0.86997 0.83689 0.02300
C 	C 	0.27862 0.80221 0.83636 -0.07600
H 	H 	0.32235 0.78176 0.83521 0.04700
C 	C 	0.79177 0.05127 0.84018 0.02400
C 	C 	0.16449 0.85223 0.84171 0.02100
C 	C 	0.88450 0.10819 0.83914 0.02300
H 	H 	0.12020 0.87122 0.84335 0.03900
H 	H 	0.93633 0.82047 0.84943 0.02600
H 	H 	0.76132 0.89987 0.85420 0.02300
C 	C 	0.85027 0.86323 0.85781 -0.09700
C 	C 	0.15845 0.11721 0.85746 0.02500
H 	H 	0.92663 0.11981 0.85581 0.02700
H 	H 	0.76216 0.01807 0.85739 0.02500
C 	C 	0.84593 0.06630 0.86260 -0.09600
C 	C 	0.25880 0.08090 0.87083 0.02400
H 	H 	0.11249 0.11964 0.86854 0.03700
C 	C 	0.26235 0.83868 0.87694 0.02000
C 	C 	0.20463 0.86264 0.88057 -0.09200
C 	C 	0.19942 0.08360 0.88595 -0.09500
H 	H 	0.29062 0.05400 0.89176 0.02800
H 	H 	0.29414 0.84672 0.90619 0.03200
C 	C 	0.86287 0.89003 0.90689 0.30400
C 	C 	0.86033 0.04137 0.91188 0.30600
O 	O 	0.91794 0.90222 0.91962 -0.41700
C 	C 	0.18523 0.89474 0.92635 0.30200
O 	O 	0.91610 0.03323 0.92449 -0.41500
O 	O 	0.12873 0.90738 0.93276 -0.41100
C 	C 	0.18044 0.05253 0.93198 0.30800
O 	O 	0.81978 0.89356 0.93967 -0.40700
O 	O 	0.12423 0.03885 0.93831 -0.41200
O 	O 	0.81762 0.03390 0.94454 -0.40500
O 	O 	0.22355 0.90345 0.96257 -0.40700
O 	O 	0.21896 0.04397 0.96791 -0.41500
O 	O 	0.01924 0.84767 0.98463 -0.46800
Co	Co	0.94511 0.89903 0.99240 1.16900
O 	O 	0.01400 0.08521 0.99403 -0.46600
Co	Co	0.94241 0.02917 0.99709 1.17100
Co	Co	0.81536 0.96084 0.99556 1.15700
