data_crystal

_cell_length_a 32.37013
_cell_length_b 44.07541
_cell_length_c 32.24758
_cell_angle_alpha 89.99998
_cell_angle_beta  91.81606
_cell_angle_gamma 90.00001

_symmetry_space_group_name_	'P 1'
_symmetry_space_group_name_H-M	'P 1'

loop_
_symmetry_equiv_pos_as_xyz
  x,y,z

loop_
_atom_site_label
_atom_site_type_symbol
_atom_site_fract_x
_atom_site_fract_y
_atom_site_fract_z
_atom_site_charge
C 	C 	0.80847 0.23496 0.97704 0.03100
C 	C 	0.80346 0.21938 0.01464 -0.02600
C 	C 	0.83753 0.20623 0.03567 0.03000
C 	C 	0.87618 0.20634 0.01696 -0.02500
C 	C 	0.88062 0.21933 0.97755 0.03100
C 	C 	0.84746 0.23570 0.95931 -0.02600
C 	C 	0.77785 0.25746 0.96929 -0.05500
S 	S 	0.76310 0.23441 0.03780 0.00300
C 	C 	0.83368 0.18280 0.06551 -0.05900
S 	S 	0.90370 0.17738 0.03626 -0.00000
C 	C 	0.90996 0.20955 0.94852 -0.05800
S 	S 	0.85433 0.23659 0.90845 0.00400
C 	C 	0.74914 0.25928 0.00086 -0.00200
H 	H 	0.78048 0.27467 0.94551 0.05200
C 	C 	0.86886 0.16423 0.06896 0.00100
H 	H 	0.80551 0.17837 0.08171 0.05000
C 	C 	0.89945 0.21824 0.90770 0.00100
H 	H 	0.93445 0.19354 0.95604 0.05200
C 	C 	0.93502 0.16963 0.79971 0.00400
C 	C 	0.92366 0.15375 0.83527 -0.02700
C 	C 	0.91237 0.16956 0.87072 -0.04200
C 	C 	0.91281 0.20143 0.87105 0.01700
C 	C 	0.92444 0.21730 0.83560 -0.04000
C 	C 	0.93567 0.20149 0.80011 -0.03100
H 	H 	0.92299 0.12917 0.83523 0.04900
H 	H 	0.90271 0.15706 0.89767 0.04600
H 	H 	0.92477 0.24188 0.83554 0.04700
H 	H 	0.94490 0.21396 0.77297 0.04500
C 	C 	0.67854 0.33929 0.02358 0.00300
C 	C 	0.72151 0.34127 0.01963 -0.02600
C 	C 	0.74472 0.31511 0.01266 -0.04200
C 	C 	0.72510 0.28676 0.00936 0.01800
C 	C 	0.68230 0.28469 0.01394 -0.04100
C 	C 	0.65904 0.31084 0.02073 -0.03100
H 	H 	0.73690 0.36307 0.02187 0.05000
H 	H 	0.77789 0.31687 0.00978 0.04600
H 	H 	0.66695 0.26289 0.01158 0.04600
H 	H 	0.62582 0.30907 0.02307 0.04400
C 	C 	0.90715 0.11288 0.17630 0.00300
C 	C 	0.87952 0.13719 0.18013 -0.02700
C 	C 	0.86616 0.15354 0.14510 -0.04100
C 	C 	0.87988 0.14549 0.10567 0.01700
C 	C 	0.90623 0.12042 0.10165 -0.04000
C 	C 	0.92009 0.10436 0.13680 -0.03200
H 	H 	0.86917 0.14388 0.21042 0.05000
H 	H 	0.84615 0.17296 0.14884 0.04600
H 	H 	0.91664 0.11375 0.07138 0.04500
H 	H 	0.94178 0.08588 0.13344 0.04300
C 	C 	0.31809 0.90380 0.04920 0.02900
C 	C 	0.31005 0.93012 0.02559 -0.02800
C 	C 	0.32813 0.93380 0.98690 0.03100
C 	C 	0.35175 0.90998 0.97070 -0.02500
C 	C 	0.35499 0.88212 0.99152 0.03000
C 	C 	0.33822 0.87921 0.03095 -0.02700
C 	C 	0.31575 0.90845 0.09261 -0.05900
S 	S 	0.30159 0.95841 0.05857 0.00100
C 	C 	0.31246 0.95403 0.95594 -0.05900
S 	S 	0.35145 0.91380 0.91943 0.00300
C 	C 	0.38681 0.86080 0.98436 -0.05600
S 	S 	0.36378 0.85181 0.05634 0.00300
C 	C 	0.30705 0.93860 0.10274 0.00100
H 	H 	0.31977 0.89060 0.11546 0.05200
C 	C 	0.32413 0.94594 0.91591 0.00200
H 	H 	0.28843 0.97049 0.96162 0.05300
C 	C 	0.39567 0.84215 0.01875 -0.00200
H 	H 	0.40335 0.85955 0.95574 0.05200
C 	C 	0.44305 0.75179 0.01298 0.00000
C 	C 	0.41216 0.76135 0.98441 -0.02400
C 	C 	0.39742 0.79112 0.98553 -0.03900
C 	C 	0.41335 0.81156 0.01536 0.01500
C 	C 	0.44458 0.80212 0.04359 -0.04000
C 	C 	0.45948 0.77236 0.04235 -0.03000
H 	H 	0.39923 0.74560 0.96170 0.04900
H 	H 	0.37298 0.79809 0.96385 0.04700
H 	H 	0.45694 0.81771 0.06681 0.04600
H 	H 	0.48308 0.76511 0.06477 0.04400
C 	C 	0.25797 0.96313 0.21995 0.00300
C 	C 	0.29638 0.94844 0.21820 -0.03200
C 	C 	0.31271 0.94108 0.17986 -0.04100
C 	C 	0.29073 0.94812 0.14290 0.01700
C 	C 	0.25238 0.96292 0.14464 -0.04100
C 	C 	0.23611 0.97039 0.18299 -0.02700
H 	H 	0.31326 0.94232 0.24651 0.04400
H 	H 	0.34229 0.92964 0.17889 0.04500
H 	H 	0.23476 0.96806 0.11640 0.04700
H 	H 	0.20642 0.98166 0.18397 0.05000
C 	C 	0.25723 0.97294 0.80541 0.00200
C 	C 	0.28313 0.99367 0.82674 -0.02900
C 	C 	0.30460 0.98487 0.86306 -0.03900
C 	C 	0.30084 0.95519 0.87809 0.01600
C 	C 	0.27501 0.93443 0.85678 -0.04100
C 	C 	0.25343 0.94325 0.82051 -0.02700
H 	H 	0.28673 0.01655 0.81509 0.04200
H 	H 	0.32446 0.00103 0.87932 0.04400
H 	H 	0.27143 0.91157 0.86846 0.04700
H 	H 	0.23341 0.92711 0.80441 0.04900
Zn	Zn	0.45324 0.50615 0.01442 1.20400
Zn	Zn	0.50608 0.54025 0.94890 1.22000
Zn	Zn	0.52347 0.52596 0.07833 1.22000
P 	P 	0.47798 0.56936 0.02526 0.30100
P 	P 	0.54068 0.49218 0.00191 0.30400
C 	C 	0.59435 0.52943 0.13224 0.27100
C 	C 	0.44966 0.49089 0.09968 0.29100
C 	C 	0.42795 0.50763 0.92944 0.29100
O 	O 	0.44048 0.54920 0.00857 -0.43700
O 	O 	0.49961 0.47793 0.01907 -0.42800
O 	O 	0.51745 0.56501 0.99741 -0.42300
O 	O 	0.55582 0.52043 0.02945 -0.41900
O 	O 	0.48807 0.56132 0.07289 -0.40800
O 	O 	0.53344 0.50128 0.95416 -0.40600
O 	O 	0.55405 0.53298 0.12993 -0.39500
O 	O 	0.59027 0.55864 0.92690 -0.22500
O 	O 	0.61336 0.51686 0.10121 -0.23600
O 	O 	0.49027 0.49004 0.09687 -0.42600
O 	O 	0.44628 0.53443 0.93082 -0.41800
O 	O 	0.42629 0.49839 0.06712 -0.41600
O 	O 	0.42756 0.49052 0.96291 -0.42700
C 	C 	0.56474 0.56436 0.89540 0.27000
O 	O 	0.52557 0.55692 0.89768 -0.40500
C 	C 	0.26530 0.40300 0.46963 0.02700
C 	C 	0.27192 0.42989 0.49239 -0.02400
C 	C 	0.25413 0.43351 0.53121 0.02700
C 	C 	0.23241 0.40913 0.54848 -0.02400
C 	C 	0.23068 0.38087 0.52851 0.02700
C 	C 	0.24704 0.37800 0.48884 -0.02300
C 	C 	0.26686 0.40711 0.42605 -0.05800
S 	S 	0.27820 0.45794 0.45853 0.00100
C 	C 	0.26874 0.45482 0.56129 -0.05800
S 	S 	0.23310 0.41379 0.59964 0.00200
C 	C 	0.20022 0.35868 0.53665 -0.05800
S 	S 	0.22264 0.34957 0.46442 0.00300
C 	C 	0.27352 0.43737 0.41496 0.00100
H 	H 	0.26389 0.38880 0.40376 0.05200
C 	C 	0.25818 0.44698 0.60174 0.00100
H 	H 	0.29149 0.47205 0.55473 0.05100
C 	C 	0.19184 0.33951 0.50271 0.00100
H 	H 	0.18380 0.35750 0.56535 0.05100
C 	C 	0.14416 0.24923 0.50987 0.00300
C 	C 	0.17423 0.25924 0.53902 -0.02700
C 	C 	0.18916 0.28896 0.53736 -0.04100
C 	C 	0.17426 0.30888 0.50636 0.01700
C 	C 	0.14399 0.29894 0.47740 -0.04000
C 	C 	0.12892 0.26926 0.47919 -0.03100
H 	H 	0.18627 0.24391 0.56274 0.04900
H 	H 	0.21289 0.29630 0.55960 0.04700
H 	H 	0.13244 0.31412 0.45328 0.04600
H 	H 	0.10601 0.26166 0.45627 0.04500
C 	C 	0.32135 0.46170 0.29716 0.00300
C 	C 	0.28338 0.44646 0.29931 -0.03200
C 	C 	0.26747 0.43909 0.33783 -0.04100
C 	C 	0.28942 0.44674 0.37458 0.01700
C 	C 	0.32735 0.46206 0.37244 -0.04100
C 	C 	0.34319 0.46952 0.33391 -0.02700
H 	H 	0.26652 0.43992 0.27115 0.04300
H 	H 	0.23825 0.42719 0.33913 0.04500
H 	H 	0.34496 0.46766 0.40052 0.04700
H 	H 	0.37256 0.48122 0.33262 0.05000
C 	C 	0.32362 0.47817 0.71101 0.00300
C 	C 	0.29747 0.49794 0.68829 -0.03100
C 	C 	0.27658 0.48780 0.65228 -0.04100
C 	C 	0.28126 0.45776 0.63894 0.01700
C 	C 	0.30775 0.43808 0.66138 -0.04100
C 	C 	0.32870 0.44821 0.69734 -0.02700
H 	H 	0.29295 0.52102 0.69880 0.04400
H 	H 	0.25633 0.50318 0.63507 0.04600
H 	H 	0.31222 0.41499 0.65091 0.04700
H 	H 	0.34898 0.43282 0.71448 0.05000
C 	C 	0.73825 0.74401 0.51797 0.02700
C 	C 	0.75101 0.73590 0.47815 -0.02500
C 	C 	0.75861 0.70535 0.46857 0.02700
C 	C 	0.75052 0.68278 0.49818 -0.02400
C 	C 	0.73217 0.69047 0.53553 0.02700
C 	C 	0.72627 0.72110 0.54533 -0.02300
C 	C 	0.75066 0.77370 0.53023 -0.05800
S 	S 	0.77794 0.76483 0.45983 0.00500
C 	C 	0.75819 0.69412 0.42727 -0.05700
S 	S 	0.74177 0.65048 0.47289 0.00200
C 	C 	0.73231 0.67124 0.57073 -0.05800
S 	S 	0.72268 0.72411 0.59659 0.00100
C 	C 	0.77252 0.78875 0.49951 0.00000
H 	H 	0.74851 0.78220 0.56159 0.05100
C 	C 	0.74967 0.66290 0.42485 0.00100
H 	H 	0.75746 0.70883 0.40034 0.05100
C 	C 	0.72728 0.68712 0.60798 0.00100
H 	H 	0.73702 0.64694 0.56924 0.05100
C 	C 	0.67945 0.64621 0.71709 0.00400
C 	C 	0.66613 0.63608 0.67765 -0.02700
C 	C 	0.68126 0.64964 0.64204 -0.04100
C 	C 	0.71022 0.67336 0.64549 0.01700
C 	C 	0.72290 0.68391 0.68492 -0.04000
C 	C 	0.70745 0.67051 0.72057 -0.03200
H 	H 	0.64430 0.61752 0.67458 0.05000
H 	H 	0.67035 0.64179 0.61182 0.04600
H 	H 	0.74494 0.70234 0.68796 0.04600
H 	H 	0.71722 0.67902 0.75083 0.04400
C 	C 	0.85798 0.86152 0.52118 0.00400
C 	C 	0.86088 0.83502 0.54535 -0.03100
C 	C 	0.83246 0.81146 0.53890 -0.04100
C 	C 	0.80110 0.81409 0.50804 0.01700
C 	C 	0.79824 0.84048 0.48388 -0.04100
C 	C 	0.82646 0.86413 0.49047 -0.02600
H 	H 	0.88555 0.83246 0.56858 0.04400
H 	H 	0.83529 0.79096 0.55731 0.04600
H 	H 	0.77424 0.84262 0.45986 0.04800
H 	H 	0.82393 0.88444 0.47163 0.05100
C 	C 	0.68767 0.61742 0.32359 0.00400
C 	C 	0.67729 0.64751 0.33309 -0.03200
C 	C 	0.69828 0.66276 0.36538 -0.04000
C 	C 	0.73039 0.64825 0.38801 0.01700
C 	C 	0.74163 0.61853 0.37762 -0.04100
C 	C 	0.72042 0.60320 0.34550 -0.02700
H 	H 	0.65264 0.65895 0.31579 0.04400
H 	H 	0.68890 0.68554 0.37344 0.04500
H 	H 	0.76632 0.60712 0.39491 0.04700
H 	H 	0.72888 0.58006 0.33825 0.05000
Zn	Zn	0.12466 0.00321 0.50360 1.20300
Zn	Zn	0.07221 0.03670 0.56997 1.22000
Zn	Zn	0.05677 0.02741 0.44004 1.22000
P 	P 	0.10368 0.06749 0.49637 0.30500
P 	P 	0.03617 0.99138 0.51373 0.30400
C 	C 	0.00395 0.06338 0.39093 0.26400
C 	C 	0.12849 0.99058 0.41715 0.29200
C 	C 	0.14838 0.00181 0.58893 0.28600
O 	O 	0.13975 0.04573 0.51234 -0.43500
O 	O 	0.07681 0.97650 0.49652 -0.43500
O 	O 	0.06326 0.06324 0.52287 -0.41800
O 	O 	0.02329 0.02097 0.48781 -0.42600
O 	O 	0.09444 0.06120 0.44819 -0.40500
O 	O 	0.04279 0.99869 0.56212 -0.39800
O 	O 	0.02661 0.03871 0.38978 -0.39800
O 	O 	0.99646 0.07103 0.58816 -0.21700
O 	O 	0.99922 0.07729 0.42650 -0.22900
O 	O 	0.08775 0.99123 0.41893 -0.43200
O 	O 	0.13137 0.02903 0.58818 -0.41900
O 	O 	0.15165 0.99639 0.45056 -0.41700
O 	O 	0.14879 0.98540 0.55478 -0.42400
C 	C 	0.01899 0.06799 0.62250 0.26800
O 	O 	0.05355 0.05241 0.62201 -0.40400
C 	C 	0.94707 0.93105 0.53669 0.09400
C 	C 	0.93625 0.91991 0.49700 0.09600
N 	N 	0.90753 0.89758 0.49268 -0.11300
C 	C 	0.88904 0.88588 0.52651 0.05000
C 	C 	0.89943 0.89741 0.56616 0.00400
N 	N 	0.92837 0.91968 0.57044 -0.10100
N 	N 	0.97651 0.95288 0.54109 -0.09200
N 	N 	0.95491 0.93130 0.46324 -0.10600
H 	H 	0.88441 0.88883 0.59329 0.04300
C 	C 	0.99546 0.96413 0.50728 0.01900
C 	C 	0.98428 0.95324 0.46761 0.03000
H 	H 	0.99917 0.96197 0.44048 0.03600
C 	C 	0.10464 0.15798 0.50825 0.09400
C 	C 	0.14674 0.16525 0.50558 0.09500
N 	N 	0.15887 0.19472 0.50663 -0.11300
C 	C 	0.13055 0.21736 0.50997 0.04900
C 	C 	0.08848 0.21006 0.51294 0.00400
N 	N 	0.07637 0.18050 0.51201 -0.10100
N 	N 	0.09242 0.12853 0.50622 -0.09400
N 	N 	0.17492 0.14278 0.50106 -0.10700
H 	H 	0.06563 0.22780 0.51597 0.04300
C 	C 	0.12065 0.10600 0.50159 0.01600
C 	C 	0.16269 0.11328 0.49889 0.03000
H 	H 	0.18542 0.09564 0.49467 0.05300
C 	C 	0.37273 0.48165 0.18148 0.09000
C 	C 	0.39603 0.46642 0.21251 0.09700
N 	N 	0.37886 0.46005 0.24938 -0.11300
C 	C 	0.33917 0.46826 0.25659 0.04900
C 	C 	0.31590 0.48355 0.22551 0.00300
N 	N 	0.33314 0.48989 0.18856 -0.10300
N 	N 	0.39025 0.48868 0.14498 -0.08800
N 	N 	0.43581 0.45863 0.20573 -0.11000
H 	H 	0.28450 0.49063 0.23094 0.04200
C 	C 	0.43034 0.48125 0.13827 -0.02400
C 	C 	0.45347 0.46572 0.16927 0.04400
H 	H 	0.48528 0.45943 0.16444 0.05000
C 	C 	0.36190 0.48048 0.82062 0.09700
C 	C 	0.38584 0.50706 0.82117 0.09000
N 	N 	0.40639 0.51558 0.85665 -0.09000
C 	C 	0.40409 0.49856 0.89177 -0.02400
C 	C 	0.37992 0.47201 0.89117 0.04400
N 	N 	0.35932 0.46354 0.85560 -0.11100
N 	N 	0.34189 0.47169 0.78498 -0.11400
N 	N 	0.38882 0.52381 0.78606 -0.10300
H 	H 	0.37763 0.45816 0.91872 0.04800
C 	C 	0.34473 0.48848 0.74971 0.04900
C 	C 	0.36880 0.51504 0.75031 0.00300
H 	H 	0.37192 0.52839 0.72239 0.04200
C 	C 	0.61951 0.57018 0.23026 0.09100
C 	C 	0.66291 0.57031 0.23072 0.09600
N 	N 	0.68431 0.58553 0.26107 -0.11300
C 	C 	0.66402 0.60069 0.29110 0.04900
C 	C 	0.62058 0.59994 0.29108 0.00300
N 	N 	0.59922 0.58482 0.26055 -0.10300
N 	N 	0.59809 0.55609 0.19894 -0.08900
N 	N 	0.68317 0.55578 0.20029 -0.10900
H 	H 	0.60400 0.61124 0.31529 0.04200
C 	C 	0.61825 0.54202 0.16788 -0.01400
C 	C 	0.66176 0.54155 0.16894 0.04000
H 	H 	0.67841 0.53038 0.14469 0.05000
C 	C 	0.60811 0.61047 0.79054 0.09600
C 	C 	0.63558 0.60113 0.82261 0.09200
N 	N 	0.62100 0.58611 0.85586 -0.08900
C 	C 	0.57994 0.57989 0.85840 -0.01300
C 	C 	0.55249 0.58912 0.82610 0.04000
N 	N 	0.56717 0.60424 0.79286 -0.11000
N 	N 	0.62272 0.62542 0.75723 -0.11400
N 	N 	0.67659 0.60703 0.82007 -0.10200
H 	H 	0.51973 0.58448 0.82755 0.05100
C 	C 	0.66385 0.63143 0.75459 0.04900
C 	C 	0.69132 0.62188 0.78665 0.00400
H 	H 	0.72421 0.62580 0.78461 0.04300
C 	C 	0.18275 0.96720 0.30423 0.09700
C 	C 	0.20573 0.98249 0.33544 0.09000
N 	N 	0.18802 0.98916 0.37197 -0.08800
C 	C 	0.14803 0.98135 0.37852 -0.02500
C 	C 	0.12522 0.96579 0.34732 0.04400
N 	N 	0.14307 0.95902 0.31085 -0.11000
N 	N 	0.20015 0.96110 0.26738 -0.11400
N 	N 	0.24518 0.99114 0.32852 -0.10300
H 	H 	0.09351 0.95917 0.35205 0.04700
C 	C 	0.23975 0.96967 0.26037 0.04900
C 	C 	0.26264 0.98511 0.29159 0.00300
H 	H 	0.29394 0.99249 0.28630 0.04200
C 	C 	0.19047 0.00012 0.69705 0.08800
C 	C 	0.21473 0.97372 0.69714 0.09900
N 	N 	0.23598 0.96530 0.73229 -0.11400
C 	C 	0.23400 0.98233 0.76745 0.05200
C 	C 	0.20928 0.00856 0.76738 0.00000
N 	N 	0.18813 0.01696 0.73214 -0.10300
N 	N 	0.16949 0.00867 0.66189 -0.09100
N 	N 	0.21684 0.95681 0.66204 -0.11100
H 	H 	0.20675 0.02203 0.79526 0.04200
C 	C 	0.17158 0.99187 0.62657 -0.02000
C 	C 	0.19570 0.96530 0.62675 0.04300
H 	H 	0.19774 0.95158 0.59905 0.04700
C 	C 	0.47994 0.65999 0.01542 0.09200
C 	C 	0.43843 0.66803 0.02062 0.09500
N 	N 	0.42720 0.69769 0.01966 -0.11300
C 	C 	0.45588 0.71977 0.01403 0.05000
C 	C 	0.49741 0.71172 0.00886 0.00300
N 	N 	0.50861 0.68196 0.00963 -0.10200
N 	N 	0.49118 0.63030 0.01654 -0.09700
N 	N 	0.40986 0.64611 0.02695 -0.10700
H 	H 	0.52051 0.72902 0.00404 0.04300
C 	C 	0.46252 0.60831 0.02276 0.01400
C 	C 	0.42112 0.61641 0.02828 0.03100
H 	H 	0.39809 0.59918 0.03379 0.05300
C 	C 	0.95900 0.07195 0.28444 0.09100
C 	C 	0.95596 0.10366 0.28107 0.09700
N 	N 	0.93949 0.11628 0.24594 -0.11400
C 	C 	0.92556 0.09855 0.21391 0.04900
C 	C 	0.92821 0.06678 0.21745 0.00300
N 	N 	0.94506 0.05414 0.25259 -0.10300
N 	N 	0.97509 0.05932 0.31986 -0.09100
N 	N 	0.96893 0.12149 0.31320 -0.10900
H 	H 	0.91655 0.05230 0.19261 0.04100
C 	C 	0.98772 0.07720 0.35231 -0.00900
C 	C 	0.98465 0.10891 0.34878 0.04000
H 	H 	0.99500 0.12346 0.37410 0.05100
C 	C 	0.98644 0.11514 0.73059 0.09800
C 	C 	0.96610 0.12106 0.69232 0.09200
N 	N 	0.97669 0.10534 0.65807 -0.08700
C 	C 	0.00705 0.08396 0.66036 -0.01300
C 	C 	0.02721 0.07793 0.69878 0.04000
N 	N 	0.01646 0.09365 0.73311 -0.11100
N 	N 	0.97611 0.13107 0.76477 -0.11300
N 	N 	0.93622 0.14265 0.68974 -0.10100
H 	H 	0.05121 0.06086 0.70132 0.05000
C 	C 	0.94634 0.15289 0.76221 0.04900
C 	C 	0.92588 0.15867 0.72393 0.00300
H 	H 	0.90170 0.17561 0.72153 0.04300
C 	C 	0.60343 0.41706 0.03373 0.09500
C 	C 	0.63418 0.41572 0.00401 0.09500
N 	N 	0.65871 0.39081 0.00188 -0.11300
C 	C 	0.65379 0.36710 0.02837 0.04900
C 	C 	0.62399 0.36898 0.05906 0.00400
N 	N 	0.59924 0.39384 0.06095 -0.10200
N 	N 	0.57683 0.44086 0.03377 -0.09700
N 	N 	0.63794 0.43874 0.97639 -0.10400
H 	H 	0.62031 0.35063 0.08096 0.04200
C 	C 	0.57977 0.46349 0.00531 0.01800
C 	C 	0.61145 0.46271 0.97661 0.03600
H 	H 	0.61445 0.48072 0.95408 0.05700
