data_crystal

_cell_length_a 16.37107
_cell_length_b 16.93957
_cell_length_c 46.97129
_cell_angle_alpha 90.20594
_cell_angle_beta  90.21922
_cell_angle_gamma 119.35887

_symmetry_space_group_name_	'P 1'
_symmetry_space_group_name_H-M	'P 1'

loop_
_symmetry_equiv_pos_as_xyz
  x,y,z

loop_
_atom_site_label
_atom_site_type_symbol
_atom_site_fract_x
_atom_site_fract_y
_atom_site_fract_z
_atom_site_charge
C 	C 	0.18115 0.11157 0.72261 0.31500
C 	C 	0.24256 0.09330 0.79630 0.29500
Ni	Ni	0.10115 0.14670 0.77169 1.12100
Ni	Ni	0.08650 0.95431 0.76281 1.10000
O 	O 	0.11833 0.13253 0.73054 -0.39100
O 	O 	0.18527 0.00529 0.79276 -0.36500
O 	O 	0.22763 0.15680 0.78389 -0.37800
O 	O 	0.18446 0.04290 0.73480 -0.35900
C 	C 	0.18242 0.49373 0.45655 0.33100
C 	C 	0.27346 0.82256 0.39462 0.31800
C 	C 	0.16287 0.53029 0.37955 0.30900
C 	C 	0.32871 0.79779 0.47323 0.32600
Ni	Ni	0.19726 0.65753 0.42871 1.12100
Ni	Ni	0.42177 0.78964 0.42082 1.12300
Ni	Ni	0.33277 0.57789 0.41000 1.12600
O 	O 	0.17021 0.56457 0.46001 -0.35200
O 	O 	0.21894 0.48062 0.43264 -0.35600
O 	O 	0.22058 0.73553 0.39329 -0.37800
O 	O 	0.35197 0.85866 0.40964 -0.36300
O 	O 	0.41966 0.59677 0.44201 -0.36300
O 	O 	0.12272 0.54438 0.40176 -0.34500
O 	O 	0.25325 0.57672 0.37733 -0.38500
O 	O 	0.24882 0.76728 0.45824 -0.34300
O 	O 	0.41028 0.82508 0.46063 -0.35800
O 	O 	0.44664 0.64443 0.38405 -0.36200
O 	O 	0.31853 0.67199 0.42743 -0.71800
H 	H 	0.32841 0.66398 0.44759 0.18300
C 	C 	0.30967 0.49975 0.10593 0.35400
C 	C 	0.35614 0.53128 0.18186 0.29300
C 	C 	0.14777 0.63397 0.10926 0.34900
C 	C 	0.20657 0.71106 0.18425 0.29600
Ni	Ni	0.44542 0.67005 0.13140 1.12100
Ni	Ni	0.22842 0.56798 0.14992 1.12700
Ni	Ni	0.32732 0.77761 0.13461 1.12400
O 	O 	0.46710 0.86440 0.14528 -0.36000
O 	O 	0.18280 0.58075 0.11232 -0.37700
O 	O 	0.36414 0.58384 0.09999 -0.36600
O 	O 	0.26038 0.47820 0.12955 -0.36400
O 	O 	0.28525 0.77814 0.17424 -0.38900
O 	O 	0.35500 0.76995 0.09338 -0.36500
O 	O 	0.16542 0.62809 0.17243 -0.35600
O 	O 	0.41960 0.56323 0.16070 -0.33700
O 	O 	0.29212 0.55595 0.18444 -0.38800
O 	O 	0.18955 0.71548 0.12129 -0.35800
O 	O 	0.34301 0.67814 0.14554 -0.71400
H 	H 	0.36289 0.69543 0.16545 0.16600
C 	C 	0.07997 0.91709 0.24649 0.30200
C 	C 	0.09332 0.21349 0.32004 0.31600
C 	C 	0.07649 0.94505 0.32418 0.26100
C 	C 	0.12904 0.22117 0.24280 0.29500
Ni	Ni	0.13363 0.09057 0.28345 1.12000
O 	O 	0.14165 0.98097 0.26418 -0.39000
O 	O 	0.15746 0.21058 0.30401 -0.36800
O 	O 	0.10108 0.03003 0.32255 -0.33800
O 	O 	0.01646 0.88721 0.30536 -0.35600
O 	O 	0.15761 0.16141 0.24637 -0.36800
O 	O 	0.06005 0.22034 0.25862 -0.36600
O 	O 	0.00692 0.03877 0.27310 -0.70100
H 	H 	0.00977 0.03752 0.25214 0.18000
C 	C 	0.27723 0.36587 0.18256 -0.04600
C 	C 	0.33639 0.44768 0.19668 -0.07200
C 	C 	0.33526 0.44883 0.22669 0.11000
C 	C 	0.26046 0.37813 0.24132 -0.03900
C 	C 	0.19120 0.30260 0.22646 -0.08700
C 	C 	0.20089 0.29570 0.19677 0.12400
N 	N 	0.13607 0.22296 0.18169 -0.20000
H 	H 	0.28130 0.36199 0.15969 0.08700
H 	H 	0.25854 0.38008 0.26436 0.05400
N 	N 	0.40287 0.52033 0.24143 -0.19900
H 	H 	0.14504 0.21699 0.15992 0.11700
H 	H 	0.07481 0.17332 0.19118 0.10800
H 	H 	0.45991 0.57239 0.23092 0.09900
H 	H 	0.40016 0.52331 0.26361 0.08900
C 	C 	0.09197 0.76352 0.18982 -0.04200
C 	C 	0.15123 0.73631 0.20286 -0.07600
C 	C 	0.18052 0.76266 0.23129 0.10700
C 	C 	0.16007 0.82498 0.24486 -0.03700
C 	C 	0.10945 0.86008 0.23056 -0.09200
C 	C 	0.07578 0.82961 0.20259 0.12100
N 	N 	0.03286 0.86719 0.18732 -0.19800
H 	H 	0.06821 0.74195 0.16814 0.07700
H 	H 	0.18224 0.84493 0.26674 0.05500
N 	N 	0.22879 0.72876 0.24558 -0.20000
H 	H 	0.00407 0.84123 0.16727 0.10600
H 	H 	0.03271 0.92566 0.19434 0.09700
H 	H 	0.24009 0.67853 0.23651 0.09600
C 	C 	0.12970 0.37306 0.32034 -0.04100
C 	C 	0.11390 0.29625 0.33582 -0.10100
C 	C 	0.09281 0.29155 0.36517 0.12800
C 	C 	0.08936 0.36424 0.37843 -0.05000
C 	C 	0.11469 0.44454 0.36360 -0.08700
C 	C 	0.12698 0.44584 0.33382 0.11300
N 	N 	0.13812 0.51784 0.31821 -0.19900
H 	H 	0.13950 0.37436 0.29751 0.05300
H 	H 	0.07755 0.36208 0.40109 0.08700
N 	N 	0.07814 0.21843 0.38088 -0.20200
H 	H 	0.15100 0.52053 0.29635 0.09300
H 	H 	0.13113 0.57031 0.32752 0.10500
H 	H 	0.08810 0.16687 0.37227 0.12100
H 	H 	0.05957 0.21405 0.40232 0.12100
C 	C 	0.27895 0.92559 0.35693 -0.02200
C 	C 	0.23786 0.87916 0.38200 -0.10100
C 	C 	0.14677 0.86235 0.38917 0.12700
C 	C 	0.09237 0.87687 0.36888 -0.05400
C 	C 	0.13139 0.91850 0.34298 -0.06500
C 	C 	0.22802 0.94883 0.33782 0.06400
N 	N 	0.27249 0.00098 0.31495 -0.16600
H 	H 	0.34975 0.94104 0.35174 0.04200
H 	H 	0.02081 0.85940 0.37384 0.06300
N 	N 	0.11128 0.83169 0.41545 -0.20500
H 	H 	0.33880 0.01184 0.30918 0.10500
H 	H 	0.24761 0.03974 0.30494 0.07400
H 	H 	0.15338 0.82886 0.43169 0.11500
H 	H 	0.04240 0.81499 0.42028 0.11000
C 	C 	0.33005 0.80881 0.50438 -0.11200
C 	C 	0.33090 0.88628 0.51572 0.13400
C 	C 	0.42597 0.80982 0.54437 0.06200
C 	C 	0.36871 0.76536 0.52073 0.12900
Br	Br	0.48924 0.75623 0.56455 -0.11500
Br	Br	0.26044 0.93500 0.49715 -0.17700
Br	Br	0.40831 0.86552 0.61831 -0.16700
Br	Br	0.36334 0.65679 0.50647 -0.17200
C 	C 	0.07330 0.44345 0.52986 0.02400
C 	C 	0.16307 0.45059 0.52789 0.06900
C 	C 	0.18966 0.42860 0.50177 0.13000
C 	C 	0.13722 0.42082 0.47743 -0.11200
C 	C 	0.04033 0.38502 0.48129 0.13300
Br	Br	0.29379 0.40736 0.49890 -0.13700
Br	Br	0.25000 0.49564 0.55930 -0.10300
Br	Br	0.95657 0.33665 0.44933 -0.17300
C 	C 	0.47122 0.37763 0.55367 0.12900
C 	C 	0.57369 0.51434 0.46487 0.06800
C 	C 	0.58040 0.57883 0.44492 0.12300
Br	Br	0.36161 0.34063 0.57662 -0.13900
Br	Br	0.57363 0.55370 0.40482 -0.19300
Br	Br	0.51287 0.38810 0.45417 -0.13500
H 	H 	0.02831 0.21865 0.70702 0.11400
C 	C 	0.34037 0.24972 0.66188 -0.04700
C 	C 	0.41671 0.31799 0.67707 -0.08200
C 	C 	0.40654 0.32702 0.70649 0.11500
C 	C 	0.33166 0.25665 0.72119 -0.04300
C 	C 	0.26305 0.18008 0.70654 -0.09500
C 	C 	0.26481 0.17874 0.67639 0.12700
N 	N 	0.19583 0.10917 0.66128 -0.20200
H 	H 	0.34517 0.24550 0.63896 0.07700
H 	H 	0.32644 0.26216 0.74399 0.04800
H 	H 	0.19737 0.10911 0.63903 0.12200
H 	H 	0.14064 0.05422 0.67138 0.12000
C 	C 	0.05523 0.59571 0.09562 -0.11100
C 	C 	0.05371 0.59770 0.06590 0.13000
C 	C 	0.00433 0.51600 0.05036 0.07300
Br	Br	0.03022 0.51398 0.01047 -0.12500
Br	Br	0.12648 0.71109 0.04681 -0.13800
C 	C 	0.38941 0.75854 0.03305 0.13500
C 	C 	0.37545 0.79941 0.00890 0.06900
Br	Br	0.31084 0.63083 0.03906 -0.12500
Br	Br	0.47899 0.94918 0.89088 -0.23100
Br	Br	0.27335 0.72879 0.98291 -0.12200
Br	Br	0.31668 0.11313 0.95869 -0.13600
C 	C 	0.32123 0.43280 0.08928 -0.12200
C 	C 	0.27754 0.41054 0.06238 0.13400
C 	C 	0.33160 0.42066 0.03785 0.07200
Br	Br	0.15183 0.38964 0.05872 -0.13200
Br	Br	0.27390 0.39456 0.00065 -0.12300
C 	C 	0.41502 0.15733 0.79497 -0.04000
C 	C 	0.33225 0.12036 0.81099 -0.08900
C 	C 	0.33182 0.08611 0.83845 0.12400
C 	C 	0.41282 0.08730 0.84887 -0.04900
C 	C 	0.49864 0.13636 0.83485 -0.08200
C 	C 	0.49752 0.16298 0.80640 0.11100
H 	H 	0.41442 0.17839 0.77322 0.05500
H 	H 	0.41105 0.05986 0.86961 0.09200
N 	N 	0.25437 0.05377 0.85514 -0.19900
H 	H 	0.19629 0.06002 0.84917 0.11000
H 	H 	0.25335 0.02571 0.87501 0.12100
O 	O 	0.07030 0.16597 0.81162 -0.38000
O 	O 	0.03396 0.02153 0.77964 -0.69700
H 	H 	0.05224 0.02306 0.79974 0.17500
C 	C 	0.43661 0.78655 0.08389 0.34500
H 	H 	0.25296 0.75042 0.26632 0.08800
C 	C 	0.05749 0.47818 0.58134 0.07500
C 	C 	0.05248 0.49459 0.55213 0.01300
Br	Br	0.07689 0.53684 0.63989 -0.20600
Br	Br	0.04556 0.36440 0.59352 -0.14100
Br	Br	0.47406 0.54661 0.54586 -0.10200
C 	C 	0.44823 0.97320 0.92817 0.07600
C 	C 	0.42968 0.04533 0.93269 -0.08000
C 	C 	0.37793 0.04124 0.95696 0.16200
C 	C 	0.40848 0.43656 0.09180 0.12000
C 	C 	0.50454 0.45446 0.53620 0.06900
C 	C 	0.45767 0.81174 0.05360 -0.11200
C 	C 	0.45314 0.92446 0.95160 0.07000
C 	C 	0.44304 0.89677 0.55195 0.03100
C 	C 	0.43535 0.89215 0.00389 0.02600
C 	C 	0.42096 0.93528 0.97828 0.01600
C 	C 	0.37610 0.98824 0.98040 0.03000
Br	Br	0.31561 0.99011 0.01526 -0.14800
C 	C 	0.38888 0.93142 0.53939 0.03000
Br	Br	0.45042 0.41606 0.12773 -0.18000
Br	Br	0.51165 0.84994 0.94780 -0.15100
H 	H 	0.57608 0.21755 0.76944 0.09400
C 	C 	0.50191 0.13563 0.92321 0.32900
C 	C 	0.58326 0.19119 0.85248 0.30500
Ni	Ni	0.57088 0.31934 0.88963 1.11500
O 	O 	0.48067 0.18499 0.90525 -0.34900
O 	O 	0.58793 0.16316 0.93205 -0.35400
O 	O 	0.61066 0.27651 0.85426 -0.38100
O 	O 	0.60533 0.15314 0.87350 -0.33900
O 	O 	0.54691 0.38139 0.92354 -0.35100
C 	C 	0.51117 0.34522 0.66634 0.31000
C 	C 	0.56440 0.34537 0.58702 0.32100
Ni	Ni	0.57527 0.23781 0.63749 1.12700
O 	O 	0.62196 0.18584 0.60777 -0.36700
O 	O 	0.55388 0.41297 0.64823 -0.35400
O 	O 	0.51603 0.28097 0.60646 -0.34800
O 	O 	0.54306 0.28979 0.67047 -0.38700
C 	C 	0.46994 0.72291 0.37203 0.31400
C 	C 	0.50223 0.67057 0.44438 0.33200
O 	O 	0.42678 0.76632 0.37968 -0.39600
O 	O 	0.51935 0.75065 0.43319 -0.35300
C 	C 	0.51986 0.84480 0.16283 0.28900
O 	O 	0.52844 0.77190 0.15906 -0.36400
O 	O 	0.49372 0.77122 0.09997 -0.34100
C 	C 	0.56947 0.89761 0.21163 -0.04100
C 	C 	0.58731 0.91366 0.18247 -0.08500
H 	H 	0.49756 0.86390 0.21899 0.04600
C 	C 	0.62655 0.85996 0.37206 -0.02200
C 	C 	0.56374 0.77641 0.35930 -0.09900
H 	H 	0.61067 0.87699 0.39282 0.03200
C 	C 	0.52647 0.95604 0.56961 -0.02200
C 	C 	0.60394 0.00390 0.61562 0.19600
C 	C 	0.52338 0.94744 0.59953 0.02400
Br	Br	0.39705 0.04157 0.55390 -0.09500
Br	Br	0.61411 0.97894 0.65483 -0.24200
C 	C 	0.52745 0.33802 0.55810 -0.09900
C 	C 	0.57669 0.47260 0.51641 0.02100
C 	C 	0.61915 0.41718 0.51657 0.07400
C 	C 	0.58724 0.34419 0.53588 0.12200
C 	C 	0.59936 0.54178 0.49347 0.02000
C 	C 	0.58005 0.65722 0.45465 -0.10800
C 	C 	0.61954 0.69077 0.48167 0.12600
C 	C 	0.63643 0.63473 0.50033 0.07100
Br	Br	0.72794 0.44876 0.49358 -0.11800
Br	Br	0.63468 0.26082 0.53471 -0.12700
H 	H 	0.55799 0.08131 0.71888 0.11700
N 	N 	0.47152 0.40091 0.72101 -0.20000
H 	H 	0.52613 0.45493 0.71034 0.10500
H 	H 	0.46651 0.40601 0.74305 0.09100
C 	C 	0.51345 0.94184 0.02195 0.03600
C 	C 	0.52525 0.90097 0.04662 0.13200
C 	C 	0.42867 0.45161 0.04075 0.02100
C 	C 	0.46743 0.46175 0.06815 0.06600
C 	C 	0.48428 0.45311 0.01576 0.02000
C 	C 	0.49096 0.37576 0.00925 0.06900
C 	C 	0.53625 0.53322 0.99998 0.07100
Br	Br	0.53327 0.64186 0.01049 -0.13100
Br	Br	0.42058 0.26626 0.03106 -0.10400
N 	N 	0.57592 0.19549 0.79021 -0.19900
H 	H 	0.63629 0.19615 0.79785 0.10100
O 	O 	0.00226 0.84130 0.78752 -0.37700
H 	H 	0.55439 0.86955 0.26625 0.08700
C 	C 	0.54784 0.37728 0.98688 0.12800
Br	Br	0.60106 0.52182 0.07338 -0.13700
H 	H 	0.64818 0.99766 0.13385 0.10900
C 	C 	0.61631 0.44085 0.93957 0.31400
Ni	Ni	0.69707 0.22623 0.90641 1.12900
O 	O 	0.62779 0.44842 0.87090 -0.36500
O 	O 	0.67526 0.32621 0.90940 -0.71800
H 	H 	0.65448 0.31918 0.92919 0.17700
C 	C 	0.69022 0.16814 0.61305 0.34400
C 	C 	0.67592 0.21241 0.68699 0.31000
Ni	Ni	0.68684 0.45490 0.63336 1.12600
O 	O 	0.61118 0.16887 0.66725 -0.34100
O 	O 	0.63256 0.42655 0.59456 -0.36500
O 	O 	0.69216 0.34514 0.63260 -0.71700
H 	H 	0.70192 0.34048 0.61216 0.18400
C 	C 	0.64255 0.91478 0.23089 0.09800
C 	C 	0.68114 0.96529 0.17362 0.10800
N 	N 	0.70106 0.00040 0.14701 -0.15900
N 	N 	0.62360 0.90126 0.25910 -0.20000
H 	H 	0.67696 0.92845 0.27420 0.10100
C 	C 	0.58481 0.75415 0.33228 0.12300
C 	C 	0.70640 0.92408 0.35758 0.07700
N 	N 	0.76305 0.00609 0.36992 -0.17600
N 	N 	0.52649 0.67343 0.31950 -0.20200
H 	H 	0.74852 0.02077 0.39030 0.12000
H 	H 	0.46595 0.62463 0.32948 0.10600
C 	C 	0.61276 0.01554 0.55650 0.11100
C 	C 	0.68986 0.07446 0.57366 0.12700
C 	C 	0.67637 0.08077 0.60278 -0.12000
Br	Br	0.62375 0.01893 0.51565 -0.09600
Br	Br	0.71373 0.68537 0.53364 -0.12800
Br	Br	0.64356 0.80874 0.49370 -0.15500
N 	N 	0.60805 0.07438 0.73080 -0.20000
H 	H 	0.58607 0.03461 0.74912 0.10600
Br	Br	0.60340 0.06561 0.01299 -0.08000
Br	Br	0.63343 0.96663 0.07069 -0.19000
C 	C 	0.59293 0.45408 0.96905 -0.10000
C 	C 	0.59021 0.53355 0.97649 0.12900
Br	Br	0.56545 0.27449 0.98135 -0.17500
N 	N 	0.71590 0.66060 0.88105 -0.20200
H 	H 	0.65521 0.60190 0.88698 0.12700
H 	H 	0.54189 0.65838 0.29929 0.09100
Br	Br	0.65988 0.64229 0.95469 -0.16800
H 	H 	0.73198 0.72122 0.89145 0.11600
C 	C 	0.71619 0.49540 0.86336 0.31700
C 	C 	0.69903 0.11370 0.72246 0.13000
O 	O 	0.70341 0.49160 0.92892 -0.34100
O 	O 	0.75785 0.21613 0.63215 -0.33800
C 	C 	0.66722 0.81672 0.31840 -0.05500
O 	O 	0.72108 0.29905 0.68556 -0.38000
C 	C 	0.73032 0.17091 0.69851 -0.08900
H 	H 	0.82090 0.05658 0.35929 0.11700
O 	O 	0.72953 0.48034 0.67400 -0.38500
C 	C 	0.73529 0.94872 0.22056 -0.05700
C 	C 	0.72664 0.90254 0.33039 -0.07900
H 	H 	0.73946 0.05395 0.75642 0.05200
H 	H 	0.72296 0.59984 0.76538 0.09000
H 	H 	0.72685 0.70234 0.75423 0.10600
C 	C 	0.75084 0.57779 0.84593 -0.10000
O 	O 	0.77515 0.46935 0.87110 -0.38700
O 	O 	0.79294 0.28344 0.87663 -0.39000
C 	C 	0.75417 0.97750 0.19215 -0.09600
C 	C 	0.76333 0.09792 0.73802 -0.03900
C 	C 	0.76940 0.65999 0.85910 0.11700
O 	O 	0.78698 0.27092 0.94124 -0.34500
H 	H 	0.77022 0.03480 0.13983 0.12800
H 	H 	0.68539 0.79842 0.29819 0.04800
N 	N 	0.75596 0.65967 0.75365 -0.19800
H 	H 	0.78330 0.51792 0.81033 0.05100
Ni	Ni	0.78651 0.44097 0.91176 1.12600
Ni	Ni	0.79720 0.34762 0.64925 1.12000
Br	Br	0.81064 0.15114 0.55750 -0.11800
Br	Br	0.71863 0.39315 0.06606 -0.11300
C 	C 	0.79817 0.58095 0.82070 -0.04000
C 	C 	0.03809 0.52908 0.60092 0.12100
O 	O 	0.82412 0.52667 0.61743 -0.34700
H 	H 	0.78857 0.53193 0.73520 0.05100
C 	C 	0.79888 0.33751 0.95943 0.32100
C 	C 	0.81746 0.51262 0.68033 0.31300
Br	Br	0.89926 0.63505 0.55408 -0.14800
C 	C 	0.78092 0.37732 0.01020 0.12600
C 	C 	0.82535 0.20998 0.69049 -0.01700
O 	O 	0.85818 0.40909 0.61212 -0.35700
C 	C 	0.81772 0.96089 0.31681 0.26200
C 	C 	0.80831 0.32900 0.99086 -0.08800
C 	C 	0.79039 0.36795 0.03910 0.06800
C 	C 	0.81567 0.97172 0.24010 0.23900
H 	H 	0.82589 0.01129 0.18464 0.09800
C 	C 	0.82167 0.67156 0.73401 0.11600
C 	C 	0.82727 0.59591 0.72419 -0.04400
O 	O 	0.82015 0.41839 0.95006 -0.35500
O 	O 	0.82776 0.02667 0.29962 -0.34300
O 	O 	0.81824 0.90626 0.25587 -0.36900
Br	Br	0.78271 0.48790 0.99952 -0.15500
H 	H 	0.00971 0.70692 0.79482 0.10300
C 	C 	0.87615 0.49190 0.60646 0.32200
C 	C 	0.85799 0.13748 0.72980 -0.09100
H 	H 	0.85253 0.26113 0.67413 0.00500
Br	Br	0.85418 0.32809 0.11495 -0.14100
C 	C 	0.84412 0.74212 0.84948 -0.04800
C 	C 	0.87732 0.34680 0.88270 0.31700
O 	O 	0.86477 0.47653 0.66878 -0.35900
C 	C 	0.85845 0.28686 0.00222 0.12900
H 	H 	0.03267 0.25675 0.91956 0.12700
O 	O 	0.86089 0.84683 0.75850 -0.37800
H 	H 	0.85956 0.80466 0.86028 0.06100
H 	H 	0.87819 0.19488 0.78791 0.10900
C 	C 	0.87643 0.66218 0.81198 0.11000
C 	C 	0.86451 0.59684 0.69725 -0.09500
C 	C 	0.86573 0.35848 0.04796 0.02400
O 	O 	0.89147 0.41806 0.89796 -0.36100
C 	C 	0.88856 0.19255 0.70548 0.11900
O 	O 	0.87975 0.93419 0.31702 -0.39200
Br	Br	0.89571 0.21719 0.97848 -0.14400
O 	O 	0.89027 0.02248 0.74556 -0.35400
O 	O 	0.88020 0.05812 0.24240 -0.35400
C 	C 	0.87551 0.75623 0.72047 -0.09800
C 	C 	0.88680 0.30172 0.03130 0.07500
H 	H 	0.91016 0.31179 0.78528 0.09400
O 	O 	0.90854 0.07132 0.80862 -0.35100
H 	H 	0.02008 0.17997 0.87505 0.06700
C 	C 	0.89489 0.74507 0.82498 -0.08500
Ni	Ni	0.90293 0.96553 0.78254 1.09300
N 	N 	0.91450 0.26031 0.79620 -0.19900
Br	Br	0.87657 0.35083 0.51409 -0.10600
C 	C 	0.96964 0.57704 0.56499 0.11900
O 	O 	0.92175 0.89518 0.81508 -0.39100
H 	H 	0.91968 0.60018 0.78162 0.09000
C 	C 	0.91907 0.10860 0.74403 0.31100
C 	C 	0.90680 0.84315 0.73606 0.31700
H 	H 	0.94042 0.39585 0.82886 0.05500
C 	C 	0.91614 0.68071 0.68317 0.11500
Br	Br	0.92119 0.22204 0.05012 -0.10400
C 	C 	0.96812 0.55042 0.59338 -0.11200
C 	C 	0.91872 0.75879 0.69444 -0.04400
C 	C 	0.95053 0.27488 0.82296 0.11100
C 	C 	0.93147 0.43797 0.09437 0.07200
N 	N 	0.93878 0.65849 0.79380 -0.19600
Ni	Ni	0.92781 0.91385 0.28061 1.11000
C 	C 	0.95653 0.34764 0.83901 -0.03400
C 	C 	0.95500 0.34264 0.86872 -0.09300
C 	C 	0.94093 0.43496 0.06460 0.01200
C 	C 	0.94686 0.83337 0.80973 0.29400
Ni	Ni	0.94880 0.11076 0.27869 1.11900
C 	C 	0.97138 0.21162 0.83619 -0.08000
Br	Br	0.95370 0.53143 0.14819 -0.19500
N 	N 	0.01023 0.29818 0.90977 -0.20100
N 	N 	0.96319 0.68669 0.65881 -0.20200
H 	H 	0.95820 0.82278 0.68349 0.05700
N 	N 	0.97887 0.22989 0.69644 -0.20000
C 	C 	0.98416 0.14512 0.81893 0.29700
C 	C 	0.98132 0.52110 0.10912 0.11300
H 	H 	0.00641 0.34791 0.92201 0.13200
O 	O 	0.00649 0.15066 0.31746 -0.38200
Br	Br	0.04362 0.60933 0.50740 -0.15900
H 	H 	0.97180 0.63295 0.65177 0.13200
C 	C 	0.01790 0.55407 0.54439 0.07400
C 	C 	0.00786 0.39718 0.50783 0.06900
H 	H 	0.00055 0.27065 0.67833 0.11300
C 	C 	0.98938 0.28944 0.88155 0.12100
O 	O 	0.98917 0.89068 0.24712 -0.39300
H 	H 	0.99630 0.74740 0.64751 0.10800
O 	O 	0.99082 0.91003 0.73127 -0.40400
O 	O 	0.99251 0.16722 0.75907 -0.38100
C 	C 	0.99655 0.22315 0.86517 -0.04400
