data_crystal

_cell_length_a 22.32083
_cell_length_b 21.68804
_cell_length_c 49.94827
_cell_angle_alpha 89.88889
_cell_angle_beta  89.89092
_cell_angle_gamma 119.77918

_symmetry_space_group_name_	'P 1'
_symmetry_space_group_name_H-M	'P 1'

loop_
_symmetry_equiv_pos_as_xyz
  x,y,z

loop_
_atom_site_label
_atom_site_type_symbol
_atom_site_fract_x
_atom_site_fract_y
_atom_site_fract_z
_atom_site_charge
C 	C 	0.65537 0.43788 0.95454 0.29600
C 	C 	0.56709 0.14750 0.92064 0.32000
C 	C 	0.70275 0.30649 0.98174 0.31700
C 	C 	0.51518 0.26816 0.88941 0.40200
C 	C 	0.78341 0.28995 0.90165 0.41100
C 	C 	0.74867 0.43395 0.87648 0.40200
Ni	Ni	0.58550 0.28087 0.94483 1.12000
Ni	Ni	0.65154 0.27712 0.88746 1.13800
Ni	Ni	0.74811 0.38590 0.93171 1.13000
O 	O 	0.59463 0.37964 0.95092 -0.34800
O 	O 	0.71289 0.43427 0.95767 -0.36400
O 	O 	0.71721 0.24527 0.89951 -0.36800
O 	O 	0.58536 0.18563 0.94249 -0.36900
O 	O 	0.57345 0.17780 0.89717 -0.32400
O 	O 	0.76064 0.45341 0.90200 -0.35500
O 	O 	0.64192 0.30209 0.98038 -0.35600
O 	O 	0.73823 0.31462 0.95986 -0.37300
O 	O 	0.72634 0.36690 0.86887 -0.32000
O 	O 	0.50799 0.24882 0.91522 -0.34800
O 	O 	0.57567 0.29718 0.87688 -0.32900
O 	O 	0.80564 0.35539 0.90995 -0.33400
O 	O 	0.65655 0.32601 0.91942 -0.72200
H 	H 	0.64583 0.36186 0.91236 0.16900
C 	C 	0.86402 0.51873 0.55250 0.31000
C 	C 	0.62241 0.26232 0.51629 0.32200
C 	C 	0.71280 0.50029 0.51314 0.31800
C 	C 	0.77798 0.28552 0.55736 0.39600
C 	C 	0.57077 0.36315 0.58137 0.42800
C 	C 	0.72661 0.40706 0.62028 0.39500
Ni	Ni	0.75798 0.39213 0.52301 1.12100
Ni	Ni	0.66013 0.30397 0.57344 1.13800
Ni	Ni	0.71808 0.47051 0.56953 1.13000
O 	O 	0.85504 0.46654 0.53628 -0.34100
O 	O 	0.81577 0.53736 0.55521 -0.36200
O 	O 	0.58027 0.31897 0.56668 -0.38000
O 	O 	0.65837 0.32916 0.50942 -0.36400
O 	O 	0.63229 0.24158 0.53990 -0.34300
O 	O 	0.75732 0.46312 0.60433 -0.37200
O 	O 	0.75731 0.48026 0.50613 -0.34600
O 	O 	0.67474 0.47341 0.53454 -0.36400
O 	O 	0.67593 0.34398 0.61175 -0.29600
O 	O 	0.77024 0.30401 0.53262 -0.34100
O 	O 	0.73576 0.27960 0.57719 -0.33700
O 	O 	0.62321 0.42634 0.58723 -0.34100
O 	O 	0.72654 0.39165 0.55810 -0.71800
H 	H 	0.76704 0.39906 0.56846 0.17200
C 	C 	0.91410 0.06296 0.69021 0.42100
C 	C 	0.95291 0.87251 0.76219 0.42400
C 	C 	0.94994 0.08075 0.76707 0.45000
C 	C 	0.92451 0.84129 0.70181 0.38200
C 	C 	0.14477 0.09109 0.75252 0.41100
C 	C 	0.12524 0.08855 0.67961 0.40200
Ni	Ni	0.90334 0.95460 0.72998 1.12900
Ni	Ni	0.05568 0.96512 0.71938 1.12200
Ni	Ni	0.04296 0.10706 0.72096 1.13100
O 	O 	0.87622 0.99558 0.69739 -0.32800
O 	O 	0.95879 0.11025 0.70707 -0.32100
O 	O 	0.12671 0.02498 0.74689 -0.32600
O 	O 	0.92634 0.91463 0.76367 -0.31400
O 	O 	0.01248 0.89324 0.74994 -0.34200
O 	O 	0.07937 0.10925 0.68410 -0.33400
O 	O 	0.89872 0.03289 0.75264 -0.30800
O 	O 	0.01431 0.10552 0.75957 -0.36100
O 	O 	0.11503 0.02509 0.68776 -0.30900
O 	O 	0.88049 0.86312 0.70826 -0.31300
O 	O 	0.98883 0.88724 0.69456 -0.30000
O 	O 	0.13614 0.13061 0.73484 -0.32700
O 	O 	0.99674 0.00575 0.71908 -0.68000
H 	H 	0.98758 0.99985 0.69968 0.15700
C 	C 	0.24095 0.74685 0.43886 0.37600
C 	C 	0.47393 0.72077 0.48621 0.32300
C 	C 	0.42514 0.83245 0.42219 0.33100
C 	C 	0.28632 0.63165 0.50945 0.29500
C 	C 	0.41980 0.63620 0.40821 0.41400
C 	C 	0.22894 0.52257 0.42701 0.40100
Ni	Ni	0.36324 0.75596 0.47251 1.11900
Ni	Ni	0.35127 0.60347 0.46092 1.13400
Ni	Ni	0.31652 0.68126 0.41438 1.13900
O 	O 	0.29523 0.78564 0.45474 -0.33400
O 	O 	0.23477 0.69152 0.42512 -0.32700
O 	O 	0.38210 0.58489 0.42523 -0.33500
O 	O 	0.43667 0.74735 0.49561 -0.36700
O 	O 	0.45166 0.67589 0.46633 -0.34500
O 	O 	0.25832 0.57402 0.40856 -0.32200
O 	O 	0.43986 0.81306 0.44483 -0.37400
O 	O 	0.36726 0.78933 0.40988 -0.35000
O 	O 	0.25439 0.52957 0.45157 -0.35300
O 	O 	0.29464 0.69427 0.50208 -0.35700
O 	O 	0.32782 0.60822 0.50049 -0.35200
O 	O 	0.40392 0.68532 0.40227 -0.35500
O 	O 	0.32756 0.67334 0.45175 -0.72400
H 	H 	0.27893 0.64885 0.45760 0.17200
C 	C 	0.27900 0.74907 0.10860 0.39300
C 	C 	0.24747 0.46999 0.08714 0.40300
C 	C 	0.40915 0.68478 0.11941 0.41800
C 	C 	0.12649 0.53750 0.07253 0.30000
C 	C 	0.40704 0.63449 0.03759 0.32600
C 	C 	0.29793 0.71594 0.01813 0.30200
Ni	Ni	0.25602 0.60035 0.10829 1.12800
Ni	Ni	0.25715 0.57200 0.04429 1.12900
Ni	Ni	0.36654 0.72235 0.06897 1.12800
O 	O 	0.23542 0.68207 0.11524 -0.33400
O 	O 	0.34262 0.76915 0.09981 -0.33300
O 	O 	0.34781 0.57481 0.03955 -0.37200
O 	O 	0.28583 0.52549 0.10186 -0.35000
O 	O 	0.22248 0.47781 0.06433 -0.33900
O 	O 	0.31868 0.74948 0.04139 -0.37300
O 	O 	0.34731 0.66253 0.12956 -0.31300
O 	O 	0.41928 0.69210 0.09351 -0.36600
O 	O 	0.27928 0.64728 0.01528 -0.36300
O 	O 	0.15532 0.52978 0.09476 -0.32700
O 	O 	0.15966 0.55393 0.04910 -0.35400
O 	O 	0.40908 0.69607 0.03867 -0.38000
O 	O 	0.28227 0.63657 0.07355 -0.72200
H 	H 	0.24989 0.65427 0.07041 0.16400
C 	C 	0.01652 0.10977 0.30740 0.37200
C 	C 	0.05518 0.93239 0.22779 0.41000
C 	C 	0.02416 0.11298 0.23008 0.38400
C 	C 	0.03697 0.90994 0.30484 0.35900
C 	C 	0.84431 0.90225 0.22505 0.42600
C 	C 	0.83205 0.89029 0.30121 0.39000
Ni	Ni	0.06518 0.03649 0.26921 1.13000
Ni	Ni	0.93083 0.87959 0.26314 1.14800
Ni	Ni	0.91059 0.01517 0.26621 1.14500
O 	O 	0.05905 0.08392 0.30446 -0.32100
O 	O 	0.97335 0.10440 0.28797 -0.29200
O 	O 	0.89410 0.88672 0.22726 -0.32900
O 	O 	0.07218 0.99883 0.23186 -0.33400
O 	O 	0.01347 0.88225 0.24451 -0.32800
O 	O 	0.85541 0.95980 0.29850 -0.31400
O 	O 	0.06593 0.12189 0.25000 -0.31100
O 	O 	0.95823 0.06493 0.23153 -0.29300
O 	O 	0.83999 0.85300 0.28175 -0.31200
O 	O 	0.08208 0.96040 0.28853 -0.31100
O 	O 	0.97202 0.86661 0.29741 -0.27200
O 	O 	0.83490 0.93973 0.24359 -0.34000
O 	O 	0.96980 0.97694 0.27206 -0.72000
H 	H 	0.96613 0.97261 0.29169 0.17600
C 	C 	0.12487 0.27455 0.18640 0.24200
C 	C 	0.11606 0.24343 0.16102 -0.00600
C 	C 	0.07326 0.16970 0.15817 0.25500
C 	C 	0.04021 0.12739 0.18059 0.30300
C 	C 	0.05132 0.15825 0.20613 -0.18000
C 	C 	0.09310 0.23212 0.20887 0.31500
C 	C 	0.14994 0.28865 0.13737 0.00500
F 	F 	0.06419 0.13908 0.13373 -0.32000
F 	F 	0.10252 0.26281 0.23332 -0.32500
C 	C 	0.22230 0.32625 0.13539 0.23500
C 	C 	0.25495 0.38155 0.11676 0.31800
C 	C 	0.21542 0.39918 0.09985 -0.21200
C 	C 	0.14313 0.35536 0.09956 0.31000
C 	C 	0.11051 0.30117 0.11856 0.22400
F 	F 	0.26092 0.31167 0.15247 -0.32100
F 	F 	0.10422 0.36821 0.08201 -0.39400
F 	F 	0.32495 0.42037 0.11607 -0.36500
F 	F 	0.04050 0.26365 0.11973 -0.35000
F 	F 	0.16407 0.34606 0.18924 -0.32900
F 	F 	0.99861 0.05624 0.17761 -0.30300
C 	C 	0.68135 0.75612 0.19516 0.24100
C 	C 	0.66270 0.79509 0.17798 0.00300
C 	C 	0.70908 0.86755 0.17348 0.23700
C 	C 	0.77176 0.90171 0.18731 0.32700
C 	C 	0.78883 0.86359 0.20558 -0.19600
C 	C 	0.74437 0.79015 0.20878 0.32400
C 	C 	0.59427 0.76031 0.16495 0.00400
F 	F 	0.69265 0.90514 0.15615 -0.33200
F 	F 	0.76034 0.75267 0.22634 -0.35700
C 	C 	0.54326 0.77631 0.17316 0.24100
C 	C 	0.48065 0.74815 0.15929 0.32400
C 	C 	0.46845 0.70341 0.13719 -0.20300
C 	C 	0.51806 0.68432 0.13001 0.32100
C 	C 	0.58081 0.71304 0.14370 0.23300
F 	F 	0.55508 0.82048 0.19418 -0.31600
F 	F 	0.50602 0.63913 0.10935 -0.38400
F 	F 	0.43331 0.76703 0.16653 -0.33000
F 	F 	0.62932 0.69639 0.13587 -0.33700
F 	F 	0.63739 0.68581 0.19933 -0.31600
F 	F 	0.81484 0.97246 0.18372 -0.34400
C 	C 	0.15069 0.93941 0.16404 0.24400
C 	C 	0.17003 0.88813 0.16939 -0.00200
C 	C 	0.15130 0.85113 0.19385 0.23800
C 	C 	0.11387 0.86545 0.21288 0.31900
C 	C 	0.09344 0.91604 0.20743 -0.19200
C 	C 	0.11224 0.95306 0.18289 0.30900
C 	C 	0.20658 0.87011 0.14888 0.00200
F 	F 	0.16907 0.80084 0.19908 -0.32400
F 	F 	0.09271 0.00174 0.17721 -0.33100
C 	C 	0.27429 0.88425 0.15357 0.23800
C 	C 	0.30220 0.85078 0.13811 0.32100
C 	C 	0.26263 0.80338 0.11776 -0.20400
C 	C 	0.19870 0.79679 0.11091 0.30900
C 	C 	0.17043 0.82945 0.12657 0.22800
F 	F 	0.31119 0.92666 0.17423 -0.31900
F 	F 	0.16164 0.75421 0.09031 -0.40600
F 	F 	0.36523 0.85979 0.14435 -0.33600
F 	F 	0.10593 0.81755 0.12120 -0.34400
F 	F 	0.16881 0.97568 0.14050 -0.32900
F 	F 	0.09890 0.83136 0.23688 -0.33700
C 	C 	0.67728 0.82242 0.34687 0.23600
C 	C 	0.66990 0.75673 0.35467 -0.00600
C 	C 	0.72209 0.74089 0.34854 0.24700
C 	C 	0.77890 0.78821 0.33309 0.32200
C 	C 	0.78289 0.85081 0.32298 -0.17700
C 	C 	0.73313 0.86903 0.33088 0.31900
C 	C 	0.60520 0.70287 0.36745 0.00400
F 	F 	0.71655 0.67854 0.35675 -0.32100
F 	F 	0.73677 0.92993 0.32191 -0.35200
C 	C 	0.54348 0.67205 0.35280 0.23500
C 	C 	0.48007 0.63911 0.36623 0.32500
C 	C 	0.47822 0.63707 0.39433 -0.20300
C 	C 	0.53937 0.65651 0.40849 0.30700
C 	C 	0.60297 0.69039 0.39511 0.22100
F 	F 	0.54511 0.67895 0.32575 -0.31800
F 	F 	0.53760 0.64735 0.43539 -0.40900
F 	F 	0.42071 0.61518 0.35213 -0.34600
F 	F 	0.66237 0.71463 0.40919 -0.36400
F 	F 	0.62865 0.83970 0.35388 -0.34800
F 	F 	0.82888 0.77207 0.32709 -0.33900
C 	C 	0.15823 0.33463 0.40371 0.23300
C 	C 	0.10242 0.32585 0.38800 0.00300
C 	C 	0.08102 0.37678 0.38926 0.23700
C 	C 	0.11950 0.43937 0.40387 0.31700
C 	C 	0.17878 0.45078 0.41775 -0.20000
C 	C 	0.19597 0.39662 0.41867 0.31800
C 	C 	0.07404 0.27006 0.36723 -0.00500
F 	F 	0.02519 0.36732 0.37512 -0.33000
F 	F 	0.25251 0.40643 0.43238 -0.36900
C 	C 	0.03718 0.19787 0.37453 0.24800
C 	C 	0.01747 0.14518 0.35492 0.28900
C 	C 	0.03346 0.16437 0.32790 -0.17900
C 	C 	0.06835 0.23640 0.32055 0.31300
C 	C 	0.08894 0.28898 0.34011 0.24200
F 	F 	0.02153 0.17892 0.40062 -0.33600
F 	F 	0.08423 0.25543 0.29447 -0.32900
F 	F 	0.98324 0.07560 0.36218 -0.32600
F 	F 	0.12543 0.35847 0.33284 -0.31700
F 	F 	0.17872 0.28526 0.40305 -0.32700
F 	F 	0.10093 0.49025 0.40362 -0.35200
C 	C 	0.04882 0.86119 0.37653 0.25400
C 	C 	0.10802 0.85423 0.37546 -0.00800
C 	C 	0.14505 0.86774 0.35136 0.24000
C 	C 	0.12237 0.88675 0.32836 0.31300
C 	C 	0.06252 0.89273 0.32928 -0.17200
C 	C 	0.02614 0.88042 0.35353 0.29100
C 	C 	0.12908 0.82846 0.39900 0.00200
F 	F 	0.20213 0.86068 0.35011 -0.34700
F 	F 	0.96905 0.88748 0.35480 -0.32500
C 	C 	0.09695 0.75532 0.40431 0.23000
C 	C 	0.12904 0.72861 0.42100 0.30800
C 	C 	0.19449 0.77480 0.43181 -0.19900
C 	C 	0.22059 0.84866 0.43003 0.30100
C 	C 	0.18840 0.87534 0.41335 0.22300
F 	F 	0.03712 0.70977 0.39182 -0.33000
F 	F 	0.27899 0.89455 0.44325 -0.39900
F 	F 	0.09879 0.65748 0.42523 -0.35900
F 	F 	0.21719 0.94657 0.40981 -0.35400
F 	F 	0.01301 0.84874 0.39980 -0.33900
F 	F 	0.15721 0.89701 0.30496 -0.33600
C 	C 	0.58476 0.20903 0.49513 -0.09400
C 	C 	0.53189 0.13931 0.50148 0.16200
C 	C 	0.51065 0.08587 0.48201 -0.08500
C 	C 	0.53623 0.10250 0.45573 0.01700
C 	C 	0.58107 0.17405 0.44843 0.08200
C 	C 	0.60614 0.22650 0.46830 -0.01100
N 	N 	0.49874 0.12436 0.52549 -0.20000
H 	H 	0.47349 0.03139 0.48723 0.08700
C 	C 	0.51879 0.04411 0.43657 0.00400
N 	N 	0.60136 0.19247 0.42255 -0.19100
H 	H 	0.64393 0.28064 0.46297 0.06600
C 	C 	0.45491 0.01309 0.42344 -0.07100
C 	C 	0.42932 0.94673 0.41102 0.16300
C 	C 	0.46444 0.90828 0.41469 -0.09200
C 	C 	0.53432 0.94610 0.42188 -0.02200
C 	C 	0.56142 0.01318 0.43386 0.09900
H 	H 	0.42473 0.03977 0.42335 0.10800
N 	N 	0.37331 0.92177 0.39483 -0.19900
H 	H 	0.56453 0.91943 0.42169 0.08000
N 	N 	0.62703 0.04621 0.44348 -0.19200
H 	H 	0.34606 0.94922 0.39299 0.17000
H 	H 	0.36010 0.87859 0.38222 0.16200
H 	H 	0.65732 0.02196 0.44201 0.13400
H 	H 	0.64907 0.09666 0.45202 0.12600
H 	H 	0.63611 0.24524 0.41746 0.13100
H 	H 	0.58168 0.15510 0.40717 0.13000
H 	H 	0.50382 0.16487 0.53819 0.13700
H 	H 	0.46295 0.07197 0.53068 0.13400
C 	C 	0.93194 0.56201 0.56464 -0.10600
C 	C 	0.98520 0.61622 0.54931 0.19800
C 	C 	0.05215 0.62622 0.55102 -0.12400
C 	C 	0.06573 0.58342 0.56820 0.02800
C 	C 	0.01642 0.54200 0.58788 0.07400
C 	C 	0.94955 0.53254 0.58618 0.03900
N 	N 	0.97146 0.65573 0.53189 -0.19200
H 	H 	0.09196 0.66265 0.53739 0.09100
C 	C 	0.12359 0.57128 0.56160 0.00700
N 	N 	0.03196 0.50885 0.60753 -0.19600
H 	H 	0.90941 0.49539 0.59955 0.09800
C 	C 	0.18967 0.61981 0.57086 -0.08500
C 	C 	0.24812 0.63132 0.55626 0.15200
C 	C 	0.23943 0.59488 0.53188 -0.08700
C 	C 	0.17519 0.53579 0.52620 -0.01800
C 	C 	0.11653 0.52387 0.54077 0.09400
H 	H 	0.19539 0.65276 0.58805 0.08800
N 	N 	0.31211 0.67976 0.56491 -0.20100
H 	H 	0.16942 0.50411 0.50860 0.07500
N 	N 	0.05344 0.46945 0.53384 -0.19300
H 	H 	0.31833 0.70864 0.58242 0.12500
H 	H 	0.35620 0.68742 0.55473 0.11800
H 	H 	0.04839 0.43606 0.51790 0.12800
H 	H 	0.00914 0.45882 0.54455 0.13700
H 	H 	0.99436 0.47590 0.62136 0.20200
H 	H 	0.08196 0.51712 0.60968 0.14100
H 	H 	0.92245 0.65065 0.53102 0.13100
H 	H 	0.01045 0.69372 0.51967 0.11300
C 	C 	0.54346 0.74460 0.49661 -0.09600
C 	C 	0.55134 0.71208 0.51980 0.15400
C 	C 	0.60605 0.69777 0.52114 -0.08200
C 	C 	0.65306 0.71708 0.49984 0.00900
C 	C 	0.65408 0.76403 0.48001 0.10600
C 	C 	0.59919 0.77819 0.47871 0.00100
N 	N 	0.50474 0.69141 0.54013 -0.20300
H 	H 	0.60854 0.66636 0.53757 0.08600
C 	C 	0.68745 0.67479 0.49511 0.02600
N 	N 	0.70651 0.79416 0.46193 -0.18400
H 	H 	0.59596 0.80842 0.46200 0.07300
C 	C 	0.65418 0.61411 0.47896 -0.08700
C 	C 	0.66881 0.55854 0.48186 0.17000
C 	C 	0.71747 0.56438 0.50114 -0.10100
C 	C 	0.75890 0.62988 0.51374 -0.00900
C 	C 	0.74413 0.68538 0.51091 0.07900
H 	H 	0.61330 0.60784 0.46562 0.12500
N 	N 	0.63493 0.49920 0.46661 -0.20200
H 	H 	0.79924 0.63586 0.52731 0.06000
N 	N 	0.78353 0.74797 0.52376 -0.19000
H 	H 	0.59723 0.49411 0.45300 0.14300
H 	H 	0.64740 0.45876 0.46749 0.13100
H 	H 	0.82400 0.75470 0.53616 0.13000
H 	H 	0.77579 0.79121 0.52082 0.12600
H 	H 	0.70610 0.82741 0.44685 0.15200
H 	H 	0.74911 0.78657 0.46325 0.14600
H 	H 	0.46595 0.70495 0.54015 0.12100
H 	H 	0.50876 0.66414 0.55668 0.13000
C 	C 	0.90768 0.26021 0.59347 0.23300
C 	C 	0.87131 0.18574 0.59523 0.00600
C 	C 	0.81828 0.14657 0.57689 0.23100
C 	C 	0.79497 0.18158 0.55987 0.31800
C 	C 	0.82323 0.25551 0.56178 -0.20500
C 	C 	0.88371 0.29504 0.57671 0.31500
C 	C 	0.87896 0.15040 0.61924 0.00100
F 	F 	0.78532 0.07448 0.57725 -0.33900
F 	F 	0.91365 0.36683 0.57772 -0.40700
C 	C 	0.85075 0.15524 0.64380 0.23600
C 	C 	0.86016 0.12443 0.66687 0.32900
C 	C 	0.89717 0.08785 0.66554 -0.20000
C 	C 	0.92355 0.08103 0.64084 0.31800
C 	C 	0.91464 0.11239 0.61777 0.24100
F 	F 	0.81479 0.19051 0.64531 -0.32400
F 	F 	0.95940 0.04566 0.63938 -0.35900
F 	F 	0.83409 0.13089 0.69062 -0.32900
F 	F 	0.94156 0.10685 0.59409 -0.32400
F 	F 	0.96213 0.29876 0.60986 -0.33800
F 	F 	0.73926 0.14300 0.54405 -0.37700
C 	C 	0.38624 0.30766 0.59887 0.23400
C 	C 	0.37454 0.26131 0.62046 0.00500
C 	C 	0.42919 0.25413 0.63066 0.23600
C 	C 	0.49431 0.29037 0.61871 0.33000
C 	C 	0.50596 0.33537 0.59664 -0.20900
C 	C 	0.45189 0.34469 0.58700 0.32200
C 	C 	0.30510 0.21972 0.63241 0.00300
F 	F 	0.41865 0.21053 0.65185 -0.32100
F 	F 	0.46232 0.38768 0.56562 -0.37700
C 	C 	0.26435 0.14707 0.62652 0.23800
C 	C 	0.20483 0.10420 0.64158 0.32400
C 	C 	0.18555 0.13377 0.66262 -0.18800
C 	C 	0.22470 0.20712 0.66766 0.32300
C 	C 	0.28412 0.24982 0.65260 0.24400
F 	F 	0.28369 0.11768 0.60673 -0.33900
F 	F 	0.20653 0.23652 0.68783 -0.35400
F 	F 	0.16592 0.03409 0.63570 -0.34600
F 	F 	0.32303 0.31999 0.65839 -0.31800
F 	F 	0.33382 0.31571 0.58909 -0.33500
F 	F 	0.54537 0.27941 0.62788 -0.35900
C 	C 	0.88855 0.66613 0.67117 0.23500
C 	C 	0.83866 0.61695 0.68905 0.00100
C 	C 	0.82020 0.64194 0.71173 0.25000
C 	C 	0.84586 0.71476 0.71512 0.31700
C 	C 	0.89691 0.76416 0.69767 -0.17900
C 	C 	0.91865 0.73931 0.67580 0.31900
C 	C 	0.79922 0.54038 0.68202 0.00300
F 	F 	0.77505 0.59540 0.72994 -0.30300
F 	F 	0.96585 0.78585 0.65814 -0.34800
C 	C 	0.83417 0.50322 0.67585 0.24400
C 	C 	0.80228 0.44282 0.65953 0.31500
C 	C 	0.73644 0.42116 0.64902 -0.17700
C 	C 	0.69595 0.44589 0.66142 0.31900
C 	C 	0.72800 0.50794 0.67676 0.23400
F 	F 	0.90076 0.52924 0.68349 -0.31700
F 	F 	0.62889 0.41869 0.65426 -0.33800
F 	F 	0.83939 0.41306 0.65038 -0.35500
F 	F 	0.69178 0.54039 0.68395 -0.31900
F 	F 	0.90553 0.64308 0.64868 -0.35000
F 	F 	0.81977 0.73726 0.73496 -0.37500
C 	C 	0.73798 0.31931 0.00778 -0.10800
C 	C 	0.78278 0.29214 0.01290 0.15800
C 	C 	0.83654 0.32672 0.03141 -0.09700
C 	C 	0.84339 0.38517 0.04596 0.02400
C 	C 	0.79098 0.40367 0.04429 0.07000
C 	C 	0.73917 0.37128 0.02484 -0.01000
N 	N 	0.77458 0.23330 0.00001 -0.20200
H 	H 	0.87468 0.31000 0.03368 0.09500
C 	C 	0.91044 0.43333 0.05895 -0.01900
N 	N 	0.79061 0.45276 0.06107 -0.19000
H 	H 	0.70248 0.38968 0.02191 0.06200
C 	C 	0.95293 0.50090 0.04782 -0.03600
C 	C 	0.02261 0.54088 0.05516 0.10800
C 	C 	0.05123 0.51042 0.07235 -0.05300
C 	C 	0.00705 0.44687 0.08589 -0.05500
C 	C 	0.93640 0.40861 0.07967 0.14000
H 	H 	0.93222 0.52153 0.03288 0.07000
N 	N 	0.06150 0.60856 0.04596 -0.19300
H 	H 	0.02798 0.42565 0.10049 0.11500
N 	N 	0.89391 0.34842 0.09355 -0.19800
H 	H 	0.04093 0.62972 0.03236 0.11500
H 	H 	0.11113 0.64188 0.05330 0.13500
H 	H 	0.91383 0.32888 0.10810 0.16000
H 	H 	0.84051 0.32211 0.09077 0.13000
H 	H 	0.75354 0.46850 0.05898 0.11500
H 	H 	0.82538 0.47361 0.07695 0.12400
H 	H 	0.73169 0.20329 0.98788 0.12700
H 	H 	0.80956 0.21515 0.00300 0.13400
C 	C 	0.52541 0.06968 0.92311 -0.09600
C 	C 	0.54764 0.03205 0.93970 0.17200
C 	C 	0.49936 0.96410 0.94902 -0.11000
C 	C 	0.43003 0.93222 0.94117 0.01700
C 	C 	0.40988 0.96605 0.92181 0.06700
C 	C 	0.45775 0.03499 0.91314 0.00800
N 	N 	0.61512 0.06096 0.94673 -0.20600
H 	H 	0.51535 0.93677 0.96301 0.07700
C 	C 	0.37821 0.86758 0.95548 0.00300
N 	N 	0.34492 0.93281 0.91158 -0.18900
H 	H 	0.44126 0.06302 0.89972 0.09800
C 	C 	0.33688 0.87400 0.97524 -0.08900
C 	C 	0.30099 0.81916 0.99391 0.14500
C 	C 	0.31027 0.75923 0.99371 -0.09700
C 	C 	0.34421 0.74898 0.97191 -0.01800
C 	C 	0.37751 0.80242 0.95252 0.07800
H 	H 	0.33444 0.92260 0.97662 0.07600
N 	N 	0.25725 0.82381 0.01169 -0.20100
H 	H 	0.34829 0.70126 0.97087 0.06600
N 	N 	0.40931 0.79128 0.93135 -0.19200
H 	H 	0.25284 0.86955 0.01253 0.12400
H 	H 	0.22468 0.78071 0.02384 0.12800
H 	H 	0.41095 0.74408 0.92983 0.11700
H 	H 	0.43037 0.82814 0.91574 0.12100
H 	H 	0.32977 0.95901 0.89792 0.13500
H 	H 	0.30970 0.87999 0.91634 0.12100
H 	H 	0.65291 0.10901 0.93849 0.15300
H 	H 	0.63082 0.03405 0.95981 0.13000
C 	C 	0.46928 0.63203 0.02917 -0.09900
C 	C 	0.48224 0.57824 0.03874 0.17100
C 	C 	0.53187 0.56708 0.02584 -0.09000
C 	C 	0.57240 0.61212 0.00502 0.01400
C 	C 	0.56614 0.67195 0.99813 0.07600
C 	C 	0.51327 0.68028 0.00973 -0.00800
N 	N 	0.44845 0.53839 0.06058 -0.19800
H 	H 	0.53833 0.52259 0.03176 0.08500
C 	C 	0.61341 0.59025 0.98824 0.00900
N 	N 	0.61079 0.72150 0.98054 -0.19000
H 	H 	0.50538 0.72339 0.00314 0.06000
C 	C 	0.59122 0.56655 0.96209 -0.08700
C 	C 	0.61367 0.52481 0.94877 0.15600
C 	C 	0.65554 0.50325 0.96248 -0.09400
C 	C 	0.68557 0.53539 0.98693 -0.01300
C 	C 	0.66584 0.58018 0.99970 0.07900
H 	H 	0.55388 0.57766 0.95264 0.08400
N 	N 	0.59446 0.50496 0.92298 -0.19900
H 	H 	0.72101 0.52221 0.99681 0.06000
N 	N 	0.69645 0.61247 0.02305 -0.19100
H 	H 	0.56101 0.51840 0.91331 0.14800
H 	H 	0.61499 0.47883 0.91197 0.13600
H 	H 	0.73311 0.60253 0.03201 0.11800
H 	H 	0.68610 0.64978 0.03192 0.12600
H 	H 	0.60429 0.76416 0.97476 0.11400
H 	H 	0.65384 0.71975 0.97331 0.12000
H 	H 	0.41848 0.55155 0.07278 0.17000
H 	H 	0.45556 0.49626 0.06657 0.15400
C 	C 	0.86901 0.16540 0.80881 0.23700
C 	C 	0.90838 0.18214 0.83231 0.00600
C 	C 	0.96092 0.16472 0.83454 0.23800
C 	C 	0.97403 0.13080 0.81336 0.35200
C 	C 	0.93479 0.11432 0.78975 -0.20600
C 	C 	0.88238 0.13210 0.78757 0.33100
C 	C 	0.89317 0.21641 0.85475 0.00500
F 	F 	0.99913 0.18058 0.85722 -0.31300
F 	F 	0.84552 0.11867 0.76460 -0.33200
C 	C 	0.85275 0.17515 0.87635 0.23100
C 	C 	0.82283 0.20248 0.89388 0.31800
C 	C 	0.83231 0.27087 0.88967 -0.20900
C 	C 	0.87908 0.31483 0.86989 0.32100
C 	C 	0.90953 0.28766 0.85254 0.23900
F 	F 	0.83887 0.10706 0.87932 -0.33100
F 	F 	0.89065 0.38189 0.86609 -0.33800
F 	F 	0.78131 0.16106 0.91401 -0.38900
F 	F 	0.95124 0.32903 0.83243 -0.31600
F 	F 	0.81772 0.18154 0.80659 -0.32500
F 	F 	0.02427 0.11322 0.81588 -0.35800
C 	C 	0.22123 0.12203 0.82181 0.24300
C 	C 	0.28712 0.18070 0.81735 0.00500
C 	C 	0.30361 0.21427 0.79220 0.24200
C 	C 	0.25612 0.18676 0.77119 0.32600
C 	C 	0.19154 0.12556 0.77525 -0.19100
C 	C 	0.17365 0.09448 0.80083 0.32900
C 	C 	0.34188 0.19985 0.83745 0.00500
F 	F 	0.36699 0.27148 0.78778 -0.31400
F 	F 	0.11066 0.03662 0.80520 -0.34300
C 	C 	0.37941 0.16373 0.83789 0.23200
C 	C 	0.43474 0.18487 0.85546 0.31700
C 	C 	0.45282 0.24205 0.87295 -0.20500
C 	C 	0.41410 0.27699 0.87312 0.32200
C 	C 	0.35879 0.25603 0.85535 0.23700
F 	F 	0.36313 0.10909 0.82078 -0.33300
F 	F 	0.43118 0.33232 0.88996 -0.37700
F 	F 	0.47195 0.15086 0.85509 -0.38000
F 	F 	0.32243 0.29095 0.85520 -0.32700
F 	F 	0.20438 0.08998 0.84619 -0.33000
F 	F 	0.27419 0.21742 0.74659 -0.33000
C 	C 	0.84784 0.73273 0.81468 0.24300
C 	C 	0.86011 0.67754 0.80727 0.01000
C 	C 	0.90385 0.68697 0.78560 0.24900
C 	C 	0.93618 0.75140 0.77168 0.32600
C 	C 	0.92300 0.80661 0.77861 -0.17700
C 	C 	0.87903 0.79699 0.80047 0.33000
C 	C 	0.83189 0.61213 0.82359 0.00500
F 	F 	0.91538 0.63357 0.77813 -0.31100
F 	F 	0.86803 0.85038 0.80843 -0.34400
C 	C 	0.76143 0.56102 0.82227 0.24300
C 	C 	0.73453 0.50034 0.83857 0.31700
C 	C 	0.77802 0.49036 0.85614 -0.19400
C 	C 	0.84896 0.53997 0.85654 0.32700
C 	C 	0.87565 0.60081 0.84051 0.23700
F 	F 	0.71900 0.57065 0.80547 -0.30700
F 	F 	0.89173 0.52992 0.87301 -0.34500
F 	F 	0.66593 0.45257 0.83796 -0.35900
F 	F 	0.94393 0.64956 0.84175 -0.32400
F 	F 	0.80675 0.72457 0.83603 -0.33300
F 	F 	0.97866 0.75936 0.75085 -0.35900
