data_crystal

_cell_length_a 18.54630
_cell_length_b 18.88135
_cell_length_c 34.41189
_cell_angle_alpha 95.43565
_cell_angle_beta  95.43596
_cell_angle_gamma 126.41654

_symmetry_space_group_name_	'P 1'
_symmetry_space_group_name_H-M	'P 1'

loop_
_symmetry_equiv_pos_as_xyz
  x,y,z

loop_
_atom_site_label
_atom_site_type_symbol
_atom_site_fract_x
_atom_site_fract_y
_atom_site_fract_z
_atom_site_charge
C 	C 	0.91116 0.02429 0.96867 0.06600
C 	C 	0.86438 0.93145 0.96665 -0.09100
C 	C 	0.91260 0.89536 0.96554 0.06200
C 	C 	0.00689 0.95221 0.96647 -0.08400
C 	C 	0.05311 0.04422 0.96815 0.06900
C 	C 	0.00553 0.08026 0.96991 -0.08300
H 	H 	0.79144 0.88786 0.96585 0.05800
H 	H 	0.04414 0.92466 0.96554 0.06800
H 	H 	0.04189 0.15187 0.97215 0.05800
C 	C 	0.94738 0.01498 0.50238 0.06600
C 	C 	0.04082 0.05921 0.50312 -0.08400
C 	C 	0.07573 0.01057 0.50280 0.06900
C 	C 	0.01771 0.91849 0.50245 -0.09200
C 	C 	0.92487 0.87454 0.50208 0.06400
C 	C 	0.88961 0.92265 0.50215 -0.08800
H 	H 	0.08566 0.13059 0.50321 0.05500
H 	H 	0.04459 0.88076 0.50187 0.06100
H 	H 	0.81724 0.88813 0.50121 0.06600
Cu	Cu	0.76207 0.36700 0.96033 0.92700
Cu	Cu	0.73818 0.30284 0.04636 0.86800
Cu	Cu	0.62073 0.34415 0.00671 0.89900
Cu	Cu	0.58833 0.34802 0.91979 0.89900
C 	C 	0.70079 0.32007 0.87579 0.30200
O 	O 	0.80763 0.49415 0.95432 -0.36000
C 	C 	0.66102 0.36587 0.09357 0.29100
O 	O 	0.61968 0.29456 0.95419 -0.63300
O 	O 	0.74970 0.38859 0.01543 -0.64400
O 	O 	0.82472 0.31143 0.97099 -0.36900
O 	O 	0.71827 0.21533 0.00519 -0.44000
O 	O 	0.66589 0.36326 0.88027 -0.38700
O 	O 	0.49780 0.31027 0.99685 -0.37200
C 	C 	0.43706 0.26308 0.96365 0.31200
C 	C 	0.76222 0.52569 0.96303 0.29500
O 	O 	0.67466 0.47014 0.96393 -0.38800
O 	O 	0.46138 0.27581 0.92866 -0.39400
O 	O 	0.75417 0.32524 0.90588 -0.35900
C 	C 	0.78202 0.23580 0.98453 0.31200
O 	O 	0.62342 0.37798 0.06287 -0.37200
O 	O 	0.73018 0.36335 0.09165 -0.42000
H 	H 	0.58092 0.22828 0.94808 0.16500
H 	H 	0.79303 0.45181 0.02941 0.17200
Cu	Cu	0.61714 0.18054 0.50381 0.92900
Cu	Cu	0.67190 0.18198 0.41580 0.87300
Cu	Cu	0.65792 0.32123 0.45343 0.89800
Cu	Cu	0.61712 0.34234 0.53469 0.89800
C 	C 	0.65833 0.24984 0.58738 0.29500
O 	O 	0.48531 0.12385 0.50751 -0.36000
C 	C 	0.61514 0.25831 0.36604 0.29700
O 	O 	0.68734 0.31946 0.50811 -0.63800
O 	O 	0.59593 0.18966 0.44773 -0.64000
O 	O 	0.67546 0.12067 0.49704 -0.36500
O 	O 	0.76641 0.21281 0.45718 -0.44300
O 	O 	0.61205 0.28125 0.57984 -0.37500
O 	O 	0.72351 0.44959 0.46302 -0.38400
C 	C 	0.71977 0.49585 0.49302 0.31600
C 	C 	0.44706 0.16050 0.49574 0.30900
O 	O 	0.49819 0.24314 0.49001 -0.39700
O 	O 	0.66002 0.45592 0.51651 -0.39400
O 	O 	0.65653 0.19528 0.55951 -0.35500
C 	C 	0.75005 0.15842 0.48199 0.31000
O 	O 	0.65201 0.32633 0.39607 -0.38800
O 	O 	0.60550 0.18501 0.37111 -0.41900
H 	H 	0.75345 0.35934 0.51948 0.16500
H 	H 	0.53101 0.15222 0.43455 0.17300
C 	C 	0.70081 0.28733 0.83509 -0.10500
C 	C 	0.61958 0.23489 0.80609 0.12400
C 	C 	0.62474 0.22346 0.76582 -0.09400
C 	C 	0.70887 0.25879 0.75433 0.00200
C 	C 	0.78852 0.30168 0.78375 0.06000
C 	C 	0.78403 0.31694 0.82390 -0.01800
N 	N 	0.53660 0.19420 0.81677 -0.20200
H 	H 	0.56326 0.18784 0.74330 0.06000
C 	C 	0.71401 0.25892 0.71161 0.00000
N 	N 	0.86910 0.32801 0.77366 -0.19200
H 	H 	0.84587 0.35424 0.84630 0.05100
C 	C 	0.74988 0.33881 0.69742 -0.09300
C 	C 	0.74112 0.33850 0.65643 0.12200
C 	C 	0.69088 0.25600 0.62930 -0.10200
C 	C 	0.66166 0.17725 0.64342 -0.02100
C 	C 	0.67428 0.17827 0.68444 0.06200
H 	H 	0.78340 0.40117 0.71833 0.05800
N 	N 	0.78201 0.41744 0.64332 -0.20200
H 	H 	0.62625 0.11448 0.62257 0.05600
N 	N 	0.64831 0.10197 0.69751 -0.19200
H 	H 	0.81570 0.47777 0.66349 0.08500
H 	H 	0.78461 0.42014 0.61327 0.07600
H 	H 	0.61627 0.04198 0.67731 0.08800
H 	H 	0.66258 0.10214 0.72762 0.09100
H 	H 	0.92825 0.36218 0.79541 0.08500
H 	H 	0.87319 0.31208 0.74446 0.08800
H 	H 	0.52987 0.19346 0.84654 0.07400
H 	H 	0.47719 0.15879 0.79509 0.08600
C 	C 	0.60237 0.27177 0.32503 -0.11300
C 	C 	0.56439 0.31589 0.31519 0.12900
C 	C 	0.56756 0.34047 0.27771 -0.09900
C 	C 	0.60139 0.31566 0.24901 0.00200
C 	C 	0.63382 0.26638 0.25798 0.05700
C 	C 	0.63462 0.24563 0.29599 -0.02300
N 	N 	0.52151 0.33132 0.34076 -0.20200
H 	H 	0.54126 0.37677 0.27048 0.05800
C 	C 	0.60439 0.34303 0.20989 0.00000
N 	N 	0.66501 0.23951 0.23039 -0.19200
H 	H 	0.66263 0.21085 0.30331 0.03400
C 	C 	0.68541 0.42163 0.20406 -0.09800
C 	C 	0.70122 0.43616 0.16548 0.12900
C 	C 	0.63541 0.36997 0.13245 -0.11000
C 	C 	0.54962 0.29800 0.13831 -0.02900
C 	C 	0.53323 0.28398 0.17690 0.06000
H 	H 	0.73812 0.46921 0.22952 0.05700
N 	N 	0.77926 0.51350 0.16028 -0.20300
H 	H 	0.49752 0.24959 0.11285 0.03800
N 	N 	0.45026 0.21261 0.18202 -0.19200
H 	H 	0.82920 0.56069 0.18478 0.08400
H 	H 	0.78929 0.52912 0.13201 0.09400
H 	H 	0.39904 0.16760 0.15746 0.08400
H 	H 	0.43493 0.20256 0.21034 0.08800
H 	H 	0.68946 0.20380 0.23747 0.07900
H 	H 	0.66479 0.25295 0.20168 0.08500
H 	H 	0.50606 0.30246 0.36607 0.09000
H 	H 	0.49796 0.36800 0.33415 0.08700
C 	C 	0.77014 0.59262 0.49554 -0.12400
C 	C 	0.76894 0.62671 0.46120 -0.03700
C 	C 	0.81622 0.71887 0.46346 0.12600
C 	C 	0.86438 0.77745 0.50031 -0.03000
C 	C 	0.86401 0.74328 0.53474 -0.10700
C 	C 	0.81697 0.65120 0.53253 0.18700
H 	H 	0.73134 0.58174 0.43277 0.06100
O 	O 	0.81504 0.75167 0.42968 -0.27700
H 	H 	0.90220 0.78845 0.56309 0.06600
O 	O 	0.82084 0.61900 0.56616 -0.30400
H 	H 	0.76959 0.60809 0.57842 0.14700
H 	H 	0.86803 0.76376 0.41861 0.14800
C 	C 	0.90864 0.06372 0.49902 -0.03000
C 	C 	0.87415 0.07817 0.53085 -0.10600
C 	C 	0.82523 0.11248 0.52603 0.18700
C 	C 	0.80925 0.13116 0.48886 -0.12900
C 	C 	0.84759 0.12062 0.45764 -0.04000
C 	C 	0.89733 0.08733 0.46264 0.12400
H 	H 	0.88355 0.06092 0.55907 0.06800
O 	O 	0.79123 0.12559 0.55734 -0.28100
H 	H 	0.83634 0.13552 0.42903 0.04000
O 	O 	0.93003 0.07270 0.43118 -0.27500
H 	H 	0.99225 0.12925 0.43325 0.14000
H 	H 	0.83963 0.18817 0.57129 0.14600
C 	C 	0.17259 0.05510 0.50183 -0.03100
C 	C 	0.22898 0.06198 0.53454 -0.10500
C 	C 	0.31738 0.09181 0.53200 0.18600
C 	C 	0.35056 0.11650 0.49669 -0.12800
C 	C 	0.29447 0.11045 0.46411 -0.03900
C 	C 	0.20577 0.07997 0.46657 0.12500
H 	H 	0.20360 0.04272 0.56174 0.06800
O 	O 	0.37290 0.10127 0.56471 -0.28900
H 	H 	0.31997 0.13014 0.43697 0.04900
O 	O 	0.15028 0.07088 0.43396 -0.27600
H 	H 	0.16080 0.12925 0.43634 0.14200
H 	H 	0.36166 0.04260 0.56275 0.15600
C 	C 	0.86505 0.79792 0.96321 -0.03300
C 	C 	0.83263 0.75889 0.99638 -0.10000
C 	C 	0.80266 0.67117 0.99723 0.18100
C 	C 	0.80487 0.62163 0.96469 -0.11700
C 	C 	0.83643 0.66034 0.93140 -0.04400
C 	C 	0.86497 0.74740 0.93026 0.12700
H 	H 	0.83288 0.79732 0.02194 0.06400
O 	O 	0.77001 0.63355 0.02964 -0.29300
H 	H 	0.83657 0.62206 0.90589 0.05900
O 	O 	0.89539 0.78408 0.89740 -0.27900
H 	H 	0.84061 0.76881 0.87982 0.14500
H 	H 	0.82388 0.64844 0.04784 0.13900
C 	C 	0.80985 0.17684 0.97924 -0.12500
C 	C 	0.81332 0.13571 0.01060 -0.04200
C 	C 	0.83910 0.07943 0.00619 0.12100
C 	C 	0.86240 0.06415 0.97028 -0.02800
C 	C 	0.85491 0.10190 0.93828 -0.10600
C 	C 	0.82931 0.15845 0.94268 0.18700
H 	H 	0.79766 0.14869 0.03874 0.03800
O 	O 	0.84681 0.04383 0.03784 -0.27900
H 	H 	0.87211 0.08995 0.91041 0.06900
O 	O 	0.82023 0.19286 0.91081 -0.28600
H 	H 	0.88165 0.24975 0.91193 0.15400
H 	H 	0.78617 0.98510 0.03522 0.13700
C 	C 	0.15163 0.10287 0.96765 -0.02900
C 	C 	0.21325 0.11293 0.99883 -0.10300
C 	C 	0.30656 0.16543 0.99791 0.18900
C 	C 	0.33904 0.20897 0.96555 -0.12100
C 	C 	0.27710 0.19922 0.93448 -0.03900
C 	C 	0.18385 0.14630 0.93538 0.12700
H 	H 	0.18863 0.07914 0.02363 0.06500
O 	O 	0.36509 0.17029 0.02758 -0.30600
H 	H 	0.30117 0.23256 0.90953 0.05900
O 	O 	0.12381 0.13369 0.90383 -0.27500
H 	H 	0.12033 0.18393 0.90975 0.14100
H 	H 	0.38314 0.22044 0.04870 0.15500
