data_crystal

_cell_length_a 25.77740
_cell_length_b 27.11046
_cell_length_c 30.09464
_cell_angle_alpha 61.13102
_cell_angle_beta  118.51939
_cell_angle_gamma 133.18321

_symmetry_space_group_name_	'P 1'
_symmetry_space_group_name_H-M	'P 1'

loop_
_symmetry_equiv_pos_as_xyz
  x,y,z

loop_
_atom_site_label
_atom_site_type_symbol
_atom_site_fract_x
_atom_site_fract_y
_atom_site_fract_z
_atom_site_charge
Co	Co	0.05655 0.04237 0.20395 1.20000
O 	O 	0.01880 0.15620 0.16796 -0.36400
O 	O 	0.02966 0.98697 0.27583 -0.45100
O 	O 	0.04628 0.93300 0.12798 -0.76400
Co	Co	0.04365 0.03566 0.70246 1.19800
O 	O 	0.00876 0.97537 0.77143 -0.38800
O 	O 	0.05992 0.94413 0.62831 -0.76900
C 	C 	0.07030 0.01707 0.93039 0.01000
C 	C 	0.07471 0.02084 0.43658 -0.01000
C 	C 	0.01755 0.94480 0.00826 0.32900
O 	O 	0.02184 0.00268 0.13667 -0.54200
C 	C 	0.02452 0.01366 0.29902 0.40900
O 	O 	0.01571 0.06339 0.27179 -0.41300
O 	O 	0.05925 0.81841 0.19020 -0.36900
O 	O 	0.02080 0.00244 0.63536 -0.54200
C 	C 	0.00761 0.97785 0.85039 -0.07500
C 	C 	0.01058 0.95737 0.95276 -0.12600
C 	C 	0.03036 0.98957 0.35575 -0.17800
C 	C 	0.08354 0.03802 0.38734 0.16600
C 	C 	0.07002 0.02713 0.87992 0.13000
C 	C 	0.06861 0.17174 0.68695 0.27900
Co	Co	0.06919 0.88022 0.11570 1.17200
O 	O 	0.07515 0.94712 0.04241 -0.40300
Co	Co	0.09837 0.90295 0.61873 1.16100
C 	C 	0.08918 0.18350 0.18616 0.26200
Co	Co	0.10867 0.98493 0.67629 1.16900
O 	O 	0.09826 0.14005 0.69916 -0.36800
O 	O 	0.09228 0.28594 0.66463 -0.18300
H 	H 	0.07501 0.65067 0.75768 0.07100
O 	O 	0.01549 0.80358 0.64865 -0.35700
H 	H 	0.08452 0.38179 0.66472 0.07600
Co	Co	0.10196 0.97540 0.17597 1.16800
C 	C 	0.09989 0.84568 0.23082 0.26200
O 	O 	0.11548 0.14863 0.19848 -0.36200
O 	O 	0.09759 0.89053 0.23532 -0.38400
O 	O 	0.10523 0.89986 0.73251 -0.39200
H 	H 	0.11792 0.05527 0.95277 0.05200
H 	H 	0.11529 0.05813 0.46064 0.05500
C 	C 	0.11644 0.24363 0.69188 0.04200
O 	O 	0.09690 0.75902 0.76838 -0.18500
H 	H 	0.11878 0.41149 0.11940 0.07400
O 	O 	0.09065 0.73911 0.29200 -0.18200
H 	H 	0.07968 0.62473 0.30946 0.07600
O 	O 	0.03062 0.89074 0.54469 -0.40600
C 	C 	0.12262 0.37200 0.69690 -0.09000
O 	O 	0.13029 0.30605 0.14912 -0.18500
O 	O 	0.13696 0.03491 0.21991 -0.44100
O 	O 	0.12976 0.03425 0.72249 -0.44400
C 	C 	0.13962 0.33368 0.69521 0.12200
C 	C 	0.99611 0.99729 0.79329 0.21800
N 	N 	0.14368 0.10066 0.37088 -0.20700
C 	C 	0.14011 0.25618 0.18948 0.04800
N 	N 	0.12992 0.08406 0.86009 -0.19800
C 	C 	0.12972 0.68934 0.77552 -0.09100
C 	C 	0.14234 0.88247 0.73304 0.27400
H 	H 	0.13338 0.09051 0.82424 0.10300
H 	H 	0.15510 0.11233 0.33672 0.10200
H 	H 	0.15444 0.48489 0.71041 0.06700
H 	H 	0.14406 0.59767 0.77018 0.06800
C 	C 	0.13962 0.39527 0.16045 -0.09100
C 	C 	0.13169 0.81191 0.27682 0.04500
O 	O 	0.99894 0.14433 0.66388 -0.38700
O 	O 	0.98435 0.04511 0.76551 -0.35900
C 	C 	0.70224 0.30703 0.02086 0.10200
N 	N 	0.74756 0.37073 0.03121 -0.11200
C 	C 	0.71905 0.40083 0.02697 0.10200
N 	N 	0.64553 0.36671 0.01344 -0.11700
C 	C 	0.60025 0.30284 0.00397 0.10600
N 	N 	0.62864 0.27333 0.00721 -0.12900
C 	C 	0.72710 0.32859 0.50267 0.10100
N 	N 	0.65475 0.29338 0.49762 -0.11800
C 	C 	0.63043 0.32333 0.49968 0.10200
N 	N 	0.67842 0.38963 0.50529 -0.12800
C 	C 	0.75086 0.42521 0.51048 0.10000
N 	N 	0.77545 0.39426 0.51004 -0.11200
C 	C 	0.27376 0.64921 0.27169 0.10000
N 	N 	0.22405 0.58367 0.26385 -0.12300
C 	C 	0.23941 0.56201 0.24240 0.10100
N 	N 	0.30453 0.60543 0.22934 -0.12400
C 	C 	0.35496 0.67009 0.23827 0.09900
N 	N 	0.33973 0.69181 0.25977 -0.11100
C 	C 	0.29112 0.64160 0.79284 0.09900
N 	N 	0.36234 0.68206 0.79151 -0.11900
C 	C 	0.38938 0.65467 0.78923 0.09900
N 	N 	0.34556 0.58637 0.78939 -0.11100
C 	C 	0.27395 0.54611 0.78938 0.10000
N 	N 	0.24652 0.57377 0.79088 -0.12600
Co	Co	0.91536 0.97892 0.12906 1.16200
Co	Co	0.96531 0.92028 0.09561 1.17500
Co	Co	0.94001 0.05623 0.20070 1.17400
O 	O 	0.97455 0.02751 0.17303 -0.75200
O 	O 	0.88469 0.92750 0.08001 -0.47400
C 	C 	0.87119 0.07375 0.08714 0.27100
C 	C 	0.21196 0.01585 0.13158 0.32300
C 	C 	0.90906 0.77631 0.10880 0.27300
O 	O 	0.18033 0.94880 0.14436 -0.42500
O 	O 	0.19320 0.04018 0.14541 -0.36800
O 	O 	0.85935 0.04989 0.13337 -0.37300
O 	O 	0.89252 0.04997 0.07530 -0.34900
O 	O 	0.96052 0.80708 0.08621 -0.40400
O 	O 	0.90756 0.81303 0.12443 -0.38900
C 	C 	0.81716 0.90650 0.20212 0.26200
O 	O 	0.86710 0.95174 0.23139 -0.41100
O 	O 	0.83592 0.89826 0.17330 -0.37900
O 	O 	0.97457 0.94533 0.02071 -0.40500
Co	Co	0.90904 0.97130 0.62328 1.16100
Co	Co	0.97439 0.92075 0.59736 1.17300
Co	Co	0.91671 0.04235 0.69093 1.17700
C 	C 	0.01548 0.93521 0.51093 0.32800
O 	O 	0.96159 0.01943 0.66728 -0.74800
O 	O 	0.88706 0.91984 0.57844 -0.47600
C 	C 	0.86297 0.06592 0.57565 0.26900
C 	C 	0.22620 0.04969 0.62202 0.26400
C 	C 	0.94659 0.78076 0.62880 0.24100
O 	O 	0.17657 0.00669 0.59088 -0.35700
O 	O 	0.20812 0.05566 0.65304 -0.33800
O 	O 	0.84398 0.04037 0.61929 -0.36500
O 	O 	0.88291 0.03887 0.56618 -0.34900
O 	O 	0.92424 0.81361 0.62715 -0.37500
C 	C 	0.79846 0.89419 0.68566 0.26200
O 	O 	0.83905 0.93681 0.71628 -0.39600
O 	O 	0.82899 0.88753 0.66588 -0.39100
O 	O 	0.16731 0.90827 0.69234 -0.41000
O 	O 	0.99034 0.95461 0.52380 -0.41800
C 	C 	0.94894 0.91693 0.87329 -0.07600
C 	C 	0.94967 0.90601 0.92427 0.10500
N 	N 	0.89199 0.84626 0.94546 -0.20300
H 	H 	0.90115 0.87917 0.85062 0.05600
H 	H 	0.84778 0.80848 0.92431 0.09200
H 	H 	0.89015 0.83663 0.98286 0.10300
H 	H 	0.17495 0.12150 0.88137 0.09300
C 	C 	0.01590 0.95492 0.45598 -0.11500
C 	C 	0.96458 0.90503 0.42548 0.09100
C 	C 	0.97292 0.92271 0.37584 -0.03500
H 	H 	0.93209 0.88563 0.35161 0.04400
N 	N 	0.90631 0.84091 0.44297 -0.19800
H 	H 	0.18134 0.13739 0.39338 0.09600
H 	H 	0.89555 0.82783 0.47788 0.10100
H 	H 	0.86980 0.80381 0.42086 0.08900
C 	C 	0.15339 0.39420 0.74240 0.02700
C 	C 	0.20325 0.38351 0.78304 0.11500
C 	C 	0.21983 0.34472 0.78155 -0.08100
C 	C 	0.18888 0.32231 0.73611 0.01000
C 	C 	0.17414 0.26502 0.73449 -0.05100
O 	O 	0.25116 0.43205 0.81302 -0.19500
C 	C 	0.22603 0.47357 0.78601 0.10300
C 	C 	0.16761 0.45121 0.74399 -0.08500
H 	H 	0.25785 0.33485 0.81376 0.07000
H 	H 	0.18637 0.23074 0.76813 0.05600
C 	C 	0.62084 0.81086 0.68866 0.12300
C 	C 	0.57889 0.82012 0.69667 -0.09500
C 	C 	0.55152 0.77917 0.74187 0.02100
C 	C 	0.55887 0.72637 0.77513 0.11300
C 	C 	0.60065 0.71683 0.76724 -0.08300
C 	C 	0.63000 0.75919 0.72277 0.00700
O 	O 	0.67543 0.86504 0.66131 -0.19900
C 	C 	0.72006 0.84285 0.68374 0.04100
C 	C 	0.69306 0.77949 0.72011 -0.05000
O 	O 	0.50495 0.67331 0.80331 -0.19700
C 	C 	0.46462 0.69963 0.78360 0.10200
C 	C 	0.49185 0.76255 0.74689 -0.08700
H 	H 	0.57127 0.86044 0.67007 0.06500
H 	H 	0.60845 0.67667 0.79403 0.06900
H 	H 	0.72675 0.76347 0.75170 0.05400
H 	H 	0.45942 0.78093 0.71701 0.06200
C 	C 	0.14252 0.73817 0.79195 0.11900
C 	C 	0.19055 0.69761 0.77724 0.02100
C 	C 	0.26017 0.74640 0.79926 0.11200
C 	C 	0.27314 0.79247 0.81869 -0.08600
C 	C 	0.21284 0.78719 0.81474 0.00800
C 	C 	0.14718 0.82701 0.77516 0.03700
C 	C 	0.21532 0.84267 0.80488 -0.05600
O 	O 	0.31043 0.73382 0.81254 -0.20200
C 	C 	0.26305 0.67138 0.79698 0.10000
C 	C 	0.19129 0.64936 0.77591 -0.08700
H 	H 	0.32830 0.83223 0.83508 0.06400
H 	H 	0.26521 0.89543 0.80306 0.04600
C 	C 	0.16011 0.35143 0.17749 0.12200
C 	C 	0.14301 0.41439 0.19809 0.02600
C 	C 	0.17021 0.39480 0.25034 0.11700
C 	C 	0.19108 0.35122 0.26737 -0.08300
C 	C 	0.18782 0.33216 0.22971 0.01100
C 	C 	0.17544 0.27203 0.23749 -0.05700
O 	O 	0.19919 0.43970 0.27887 -0.19700
C 	C 	0.18952 0.48966 0.23847 0.10200
C 	C 	0.15524 0.47440 0.19032 -0.08400
H 	H 	0.21167 0.33481 0.30844 0.07100
H 	H 	0.16962 0.23338 0.27444 0.05500
H 	H 	0.16137 0.51326 0.15347 0.06500
C 	C 	0.63058 0.80982 0.19155 0.11900
C 	C 	0.55473 0.76506 0.17333 -0.09300
C 	C 	0.51001 0.73303 0.20660 0.02500
C 	C 	0.53879 0.74714 0.25458 0.11400
C 	C 	0.61464 0.79070 0.27300 -0.08400
C 	C 	0.65888 0.82269 0.23964 0.00400
O 	O 	0.68144 0.82820 0.17091 -0.18900
C 	C 	0.74321 0.85343 0.21185 0.04100
C 	C 	0.72870 0.84672 0.25400 -0.05600
O 	O 	0.48978 0.73485 0.27304 -0.19800
C 	C 	0.42891 0.71241 0.23136 0.10200
C 	C 	0.44138 0.71328 0.19105 -0.08900
H 	H 	0.53156 0.75537 0.13506 0.07200
H 	H 	0.63800 0.80144 0.31090 0.06600
H 	H 	0.76904 0.87206 0.28577 0.05200
H 	H 	0.40013 0.68932 0.15877 0.06500
C 	C 	0.14667 0.73152 0.31391 0.12000
C 	C 	0.13472 0.67162 0.31594 -0.09000
C 	C 	0.19512 0.67619 0.32163 0.02500
C 	C 	0.26266 0.73957 0.31774 0.11300
C 	C 	0.27338 0.80040 0.31192 -0.08500
C 	C 	0.21555 0.79402 0.31396 0.01000
C 	C 	0.20620 0.84490 0.29062 -0.06100
O 	O 	0.30611 0.74134 0.30125 -0.20000
C 	C 	0.25768 0.67333 0.29495 0.10300
C 	C 	0.19144 0.63419 0.30679 -0.08500
H 	H 	0.32302 0.85123 0.30241 0.06600
H 	H 	0.24470 0.89703 0.27051 0.04900
H 	H 	0.14121 0.58921 0.29199 0.07000
C 	C 	0.81886 0.26156 0.52463 0.11400
C 	C 	0.87660 0.26454 0.52703 -0.08500
C 	C 	0.85927 0.21132 0.51294 0.01600
C 	C 	0.78748 0.15686 0.49799 0.12100
C 	C 	0.73016 0.15610 0.49350 -0.08700
C 	C 	0.74785 0.20725 0.51001 0.02700
O 	O 	0.82692 0.31920 0.52200 -0.19800
C 	C 	0.75317 0.29380 0.50337 0.10300
C 	C 	0.70593 0.22722 0.49605 -0.08400
O 	O 	0.77805 0.09555 0.50870 -0.17400
C 	C 	0.84977 0.11665 0.53402 0.05200
C 	C 	0.89869 0.18608 0.53544 -0.06300
H 	H 	0.93287 0.30616 0.53994 0.07000
H 	H 	0.67372 0.11392 0.48164 0.08100
H 	H 	0.65026 0.20341 0.47283 0.07300
H 	H 	0.94990 0.20719 0.56431 0.06500
C 	C 	0.83022 0.64134 0.57087 0.12100
C 	C 	0.80833 0.62480 0.52455 -0.09400
C 	C 	0.82759 0.58693 0.52513 0.02200
C 	C 	0.86280 0.56231 0.57044 0.11200
C 	C 	0.88429 0.57846 0.61682 -0.08600
C 	C 	0.86515 0.61642 0.61630 0.00900
O 	O 	0.84339 0.70047 0.57069 -0.19900
C 	C 	0.89210 0.71058 0.61933 0.05100
C 	C 	0.90431 0.65994 0.64704 -0.05900
O 	O 	0.85076 0.50392 0.57034 -0.20000
C 	C 	0.80283 0.49435 0.52139 0.10200
C 	C 	0.78926 0.54400 0.49407 -0.08800
H 	H 	0.78010 0.64342 0.48878 0.06700
H 	H 	0.91292 0.56018 0.65251 0.06500
H 	H 	0.95264 0.66733 0.67744 0.05900
H 	H 	0.74058 0.53589 0.46385 0.06400
C 	C 	0.39725 0.18472 0.59048 0.12000
C 	C 	0.43727 0.24834 0.55619 -0.08900
C 	C 	0.46562 0.25034 0.52495 0.02200
C 	C 	0.45756 0.19254 0.52913 0.11800
C 	C 	0.41835 0.12933 0.56389 -0.08400
C 	C 	0.39144 0.12771 0.59589 0.01600
O 	O 	0.34252 0.16774 0.60569 -0.18300
C 	C 	0.30286 0.09510 0.61981 0.05100
C 	C 	0.33194 0.07103 0.61443 -0.05500
O 	O 	0.51097 0.20837 0.51335 -0.19600
C 	C 	0.55393 0.28108 0.50177 0.10000
C 	C 	0.52692 0.30665 0.50806 -0.08400
H 	H 	0.44390 0.29400 0.55265 0.07300
H 	H 	0.41168 0.08365 0.56744 0.07600
H 	H 	0.30085 0.01949 0.60930 0.05900
H 	H 	0.55968 0.35748 0.51509 0.06700
C 	C 	0.78075 0.15089 0.01541 0.12200
C 	C 	0.72089 0.14360 0.01463 -0.08600
C 	C 	0.73515 0.19232 0.03186 0.02300
C 	C 	0.80472 0.25008 0.04390 0.11500
C 	C 	0.86468 0.25922 0.04283 -0.08500
C 	C 	0.85104 0.20878 0.02775 0.01400
O 	O 	0.77715 0.09324 0.02481 -0.17400
C 	C 	0.85100 0.12016 0.04671 0.05100
C 	C 	0.89546 0.18952 0.04733 -0.06100
O 	O 	0.80763 0.30448 0.04165 -0.19700
C 	C 	0.73243 0.27329 0.02624 0.09900
C 	C 	0.68894 0.20654 0.02026 -0.07600
H 	H 	0.66556 0.09867 0.00479 0.08000
H 	H 	0.91995 0.30366 0.05360 0.06800
H 	H 	0.94801 0.21385 0.07442 0.06100
H 	H 	0.63290 0.17989 0.99790 0.06200
C 	C 	0.78351 0.62438 0.06831 0.12000
C 	C 	0.76482 0.60274 0.02569 -0.08200
C 	C 	0.78691 0.56378 0.03300 0.01700
C 	C 	0.81897 0.54043 0.08153 0.11600
C 	C 	0.83627 0.56051 0.12455 -0.08600
C 	C 	0.81712 0.60224 0.11697 0.01300
O 	O 	0.79752 0.68670 0.06147 -0.18900
C 	C 	0.84749 0.70330 0.10865 0.04300
C 	C 	0.85711 0.65175 0.14266 -0.05600
O 	O 	0.80946 0.48097 0.08670 -0.19800
C 	C 	0.76728 0.47028 0.03666 0.10100
C 	C 	0.75393 0.51968 0.00444 -0.07800
H 	H 	0.73834 0.61970 0.98738 0.06400
H 	H 	0.86322 0.54382 0.16271 0.06900
H 	H 	0.90572 0.66137 0.17355 0.05600
H 	H 	0.70786 0.51110 0.97125 0.06200
C 	C 	0.42049 0.23081 0.99684 0.10900
C 	C 	0.37660 0.22066 0.01979 -0.07500
C 	C 	0.31817 0.15216 0.03671 0.00500
C 	C 	0.30985 0.09560 0.03785 0.12300
C 	C 	0.35654 0.10574 0.01791 -0.08500
C 	C 	0.40844 0.17399 0.99429 0.02200
O 	O 	0.49100 0.29130 0.99458 -0.19800
C 	C 	0.52068 0.26507 0.99199 0.09700
C 	C 	0.47190 0.19549 0.99147 -0.08900
O 	O 	0.27375 0.03595 0.07518 -0.17300
C 	C 	0.26266 0.06247 0.09708 0.03100
C 	C 	0.28824 0.13128 0.07416 -0.04200
H 	H 	0.39095 0.26412 0.02776 0.07200
H 	H 	0.35620 0.06266 0.02421 0.07900
H 	H 	0.48729 0.16144 0.00391 0.07300
H 	H 	0.29920 0.16533 0.09156 0.06100
