data_crystal

_cell_length_a 18.46456
_cell_length_b 18.85258
_cell_length_c 26.39797
_cell_angle_alpha 95.41034
_cell_angle_beta  95.41112
_cell_angle_gamma 126.40551

_symmetry_space_group_name_	'P 1'
_symmetry_space_group_name_H-M	'P 1'

loop_
_symmetry_equiv_pos_as_xyz
  x,y,z

loop_
_atom_site_label
_atom_site_type_symbol
_atom_site_fract_x
_atom_site_fract_y
_atom_site_fract_z
_atom_site_charge
C 	C 	0.94849 0.03586 0.98972 0.19200
N 	N 	0.03828 0.08574 0.98519 -0.07000
C 	C 	0.08278 0.04847 0.98657 0.22700
N 	N 	0.03734 0.96175 0.99217 -0.05200
C 	C 	0.94792 0.91210 0.99627 0.25900
N 	N 	0.90386 0.94932 0.99550 -0.06800
C 	C 	0.89810 0.98605 0.45316 0.36700
N 	N 	0.98979 0.04001 0.45451 -0.15800
C 	C 	0.03672 0.00560 0.45542 0.27600
N 	N 	0.99172 0.91677 0.45480 -0.10300
C 	C 	0.90060 0.86251 0.45493 0.28300
N 	N 	0.85323 0.89704 0.45409 -0.10900
Cu	Cu	0.61793 0.20800 0.00914 0.94200
Cu	Cu	0.68330 0.21813 0.89728 0.91000
Cu	Cu	0.67844 0.35975 0.94953 0.91700
Cu	Cu	0.64748 0.38438 0.05709 0.93200
C 	C 	0.65412 0.26457 0.11945 0.40100
O 	O 	0.49002 0.17040 0.01232 -0.31200
C 	C 	0.64435 0.31012 0.83441 0.39100
O 	O 	0.70562 0.34866 0.01925 -0.63700
O 	O 	0.60578 0.22669 0.93739 -0.62900
O 	O 	0.66463 0.13694 0.99749 -0.31100
O 	O 	0.76855 0.23507 0.95240 -0.39100
O 	O 	0.62050 0.30838 0.11073 -0.32400
O 	O 	0.75614 0.48903 0.96506 -0.31700
C 	C 	0.75339 0.53887 0.00230 0.40300
C 	C 	0.46473 0.21915 0.99816 0.39700
O 	O 	0.52687 0.30413 0.99656 -0.34400
O 	O 	0.72103 0.50949 0.04446 -0.31500
O 	O 	0.64991 0.21101 0.08124 -0.30800
C 	C 	0.74217 0.17322 0.98072 0.40900
O 	O 	0.66815 0.37070 0.87562 -0.30800
O 	O 	0.62818 0.23312 0.83889 -0.35500
H 	H 	0.77158 0.38085 0.03296 0.22400
H 	H 	0.54224 0.19466 0.91857 0.23000
Cu	Cu	0.75301 0.33473 0.44477 0.94100
Cu	Cu	0.74414 0.27634 0.55826 0.91200
Cu	Cu	0.61310 0.30353 0.51097 0.91600
Cu	Cu	0.57815 0.31935 0.40165 0.93500
C 	C 	0.68428 0.29290 0.33531 0.39600
O 	O 	0.80036 0.46333 0.43884 -0.30100
C 	C 	0.67118 0.33689 0.62490 0.39200
O 	O 	0.61041 0.26062 0.44079 -0.63200
O 	O 	0.74543 0.35731 0.51784 -0.63400
O 	O 	0.81434 0.27594 0.45429 -0.30100
O 	O 	0.71392 0.18548 0.50351 -0.37400
O 	O 	0.64765 0.33380 0.34517 -0.31900
O 	O 	0.48241 0.24342 0.50267 -0.31100
C 	C 	0.42539 0.22542 0.46041 0.39300
C 	C 	0.75642 0.49528 0.45304 0.39000
O 	O 	0.67117 0.44001 0.45906 -0.35700
O 	O 	0.45426 0.25823 0.41835 -0.31200
O 	O 	0.73866 0.29428 0.37228 -0.29500
C 	C 	0.77374 0.20222 0.47409 0.37900
O 	O 	0.61750 0.33273 0.58571 -0.31000
O 	O 	0.74294 0.34039 0.61808 -0.35100
H 	H 	0.57102 0.19448 0.43035 0.21100
H 	H 	0.78679 0.42105 0.53537 0.22900
C 	C 	0.71988 0.40638 0.76956 0.28900
C 	C 	0.64106 0.33111 0.78226 -0.17600
C 	C 	0.56532 0.26786 0.74278 0.29300
C 	C 	0.57194 0.27477 0.69079 0.28600
C 	C 	0.65461 0.34448 0.67794 -0.17600
C 	C 	0.72678 0.41285 0.71757 0.29300
F 	F 	0.80530 0.48326 0.70564 -0.34100
F 	F 	0.79239 0.46982 0.80743 -0.34800
F 	F 	0.50035 0.21009 0.65285 -0.34500
F 	F 	0.48696 0.19721 0.75469 -0.34400
C 	C 	0.59753 0.18927 0.19427 0.29700
C 	C 	0.67095 0.25520 0.17303 -0.17500
C 	C 	0.75495 0.32283 0.20577 0.29100
C 	C 	0.76260 0.32975 0.25962 0.30000
C 	C 	0.68602 0.26939 0.28098 -0.16900
C 	C 	0.60494 0.19654 0.24809 0.28800
F 	F 	0.53138 0.13607 0.26833 -0.36200
F 	F 	0.51679 0.12191 0.16286 -0.34600
F 	F 	0.84225 0.39910 0.29105 -0.33800
F 	F 	0.82731 0.38539 0.18556 -0.35000
C 	C 	0.75826 0.61132 0.41369 0.30400
C 	C 	0.79592 0.58988 0.45262 -0.18500
C 	C 	0.86169 0.65703 0.49468 0.30400
C 	C 	0.89065 0.74515 0.49749 0.27600
C 	C 	0.85476 0.76723 0.45788 -0.11900
C 	C 	0.78754 0.69955 0.41632 0.27400
F 	F 	0.75303 0.71984 0.37749 -0.32800
F 	F 	0.69339 0.54656 0.37321 -0.36200
F 	F 	0.95486 0.80961 0.53827 -0.31600
F 	F 	0.89655 0.63669 0.53330 -0.35600
C 	C 	0.80069 0.09782 0.50739 0.28300
C 	C 	0.80053 0.14202 0.46717 -0.18000
C 	C 	0.82199 0.12527 0.41995 0.29100
C 	C 	0.84669 0.06789 0.41378 0.29200
C 	C 	0.84950 0.02606 0.45456 -0.18900
C 	C 	0.82401 0.03952 0.50081 0.28600
F 	F 	0.82709 0.00019 0.54063 -0.36100
F 	F 	0.78159 0.11396 0.55361 -0.38200
F 	F 	0.87053 0.05492 0.36867 -0.34300
F 	F 	0.81854 0.16412 0.37995 -0.34500
C 	C 	0.27208 0.18960 0.43279 0.30700
C 	C 	0.32672 0.17263 0.46158 -0.18600
C 	C 	0.28608 0.10319 0.49023 0.31500
C 	C 	0.19198 0.05074 0.48959 0.22700
C 	C 	0.13679 0.06497 0.45884 -0.11300
C 	C 	0.17750 0.13504 0.43067 0.26900
F 	F 	0.12513 0.14912 0.40036 -0.32000
F 	F 	0.31075 0.25942 0.40715 -0.33900
F 	F 	0.15442 0.98633 0.51912 -0.26600
F 	F 	0.33748 0.08523 0.51785 -0.35300
C 	C 	0.82411 0.75195 0.95817 0.27100
C 	C 	0.89747 0.81687 0.99825 -0.10500
C 	C 	0.92314 0.79026 0.03980 0.26100
C 	C 	0.87557 0.69924 0.04135 0.31300
C 	C 	0.80234 0.63427 0.00117 -0.19700
C 	C 	0.77699 0.66092 0.95951 0.32100
F 	F 	0.70621 0.59846 0.92053 -0.34300
F 	F 	0.79955 0.77724 0.91755 -0.31200
F 	F 	0.90160 0.67398 0.08137 -0.34600
F 	F 	0.99388 0.85274 0.07878 -0.32900
C 	C 	0.80978 0.02239 0.95499 0.20600
C 	C 	0.89790 0.07354 0.98583 -0.07800
C 	C 	0.93296 0.15619 0.01670 0.21900
C 	C 	0.88029 0.18717 0.01673 0.31400
C 	C 	0.79188 0.13531 0.98641 -0.20600
C 	C 	0.75675 0.05270 0.95578 0.31700
F 	F 	0.67222 0.00316 0.92539 -0.37700
F 	F 	0.77601 0.94365 0.92378 -0.28000
F 	F 	0.91519 0.26771 0.04609 -0.35800
F 	F 	0.01711 0.20549 0.04748 -0.29300
C 	C 	0.24555 0.18256 0.01722 0.25500
C 	C 	0.18016 0.10153 0.98239 -0.08600
C 	C 	0.20945 0.06416 0.94923 0.21800
C 	C 	0.30267 0.10358 0.95369 0.32100
C 	C 	0.36755 0.18169 0.99052 -0.19100
C 	C 	0.33892 0.22259 0.02119 0.30800
F 	F 	0.40133 0.29888 0.05654 -0.36000
F 	F 	0.21842 0.21979 0.04926 -0.31600
F 	F 	0.32992 0.06544 0.92249 -0.36800
F 	F 	0.14716 0.98812 0.91368 -0.27700
