data_crystal

_cell_length_a 32.39616
_cell_length_b 28.32193
_cell_length_c 31.67860
_cell_angle_alpha 103.62705
_cell_angle_beta  115.74620
_cell_angle_gamma 112.42327

_symmetry_space_group_name_	'P 1'
_symmetry_space_group_name_H-M	'P 1'

loop_
_symmetry_equiv_pos_as_xyz
  x,y,z

loop_
_atom_site_label
_atom_site_type_symbol
_atom_site_fract_x
_atom_site_fract_y
_atom_site_fract_z
_atom_site_charge
C 	C 	0.75306 0.25148 0.94388 0.00300
C 	C 	0.76591 0.26293 0.99508 -0.02400
C 	C 	0.74691 0.29134 0.01607 -0.06100
C 	C 	0.71435 0.30795 0.98600 0.07900
C 	C 	0.69908 0.29376 0.93351 -0.06700
C 	C 	0.71885 0.26620 0.91286 -0.02400
N 	N 	0.70000 0.34257 0.01057 -0.14200
C 	C 	0.74069 0.49005 0.98643 -0.00300
C 	C 	0.68613 0.44149 0.95278 -0.02100
C 	C 	0.67142 0.39411 0.96246 -0.07100
C 	C 	0.71158 0.39454 0.00539 0.08500
C 	C 	0.76508 0.44467 0.04087 -0.06800
C 	C 	0.77956 0.49230 0.03162 -0.01900
C 	C 	0.55312 0.24836 0.99802 -0.00300
C 	C 	0.60001 0.29899 0.04564 -0.01800
C 	C 	0.64778 0.33004 0.04909 -0.06700
C 	C 	0.64927 0.31108 0.00504 0.08400
C 	C 	0.60187 0.26073 0.95689 -0.07100
C 	C 	0.55422 0.22941 0.95363 -0.02000
C 	C 	0.79548 0.62652 0.94864 0.04300
C 	C 	0.81883 0.59366 0.95312 -0.04000
C 	C 	0.80017 0.54842 0.96441 -0.03100
C 	C 	0.75830 0.53598 0.97185 0.01300
C 	C 	0.73401 0.56798 0.96613 -0.03100
C 	C 	0.75229 0.61285 0.95418 -0.03300
C 	C 	0.81929 0.16470 0.89480 0.04000
C 	C 	0.85467 0.22011 0.93992 -0.03800
C 	C 	0.83335 0.25035 0.95398 -0.03000
C 	C 	0.77639 0.22511 0.92337 0.01300
C 	C 	0.74154 0.17211 0.87555 -0.02900
C 	C 	0.76310 0.14242 0.86089 -0.03100
C 	C 	0.40858 0.16752 0.99356 0.04400
C 	C 	0.45590 0.17150 0.03002 -0.03600
C 	C 	0.50250 0.19579 0.03011 -0.03000
C 	C 	0.50218 0.21672 0.99400 0.01200
C 	C 	0.45411 0.21075 0.95630 -0.03000
C 	C 	0.40748 0.18614 0.95602 -0.03600
H 	H 	0.79129 0.25054 0.01889 0.04900
H 	H 	0.75833 0.30149 0.05619 0.05600
H 	H 	0.67243 0.30446 0.90901 0.05000
H 	H 	0.70818 0.25698 0.87308 0.03900
H 	H 	0.65568 0.43952 0.91804 0.04100
H 	H 	0.62975 0.35597 0.93501 0.05300
H 	H 	0.79596 0.44573 0.07450 0.05700
H 	H 	0.82150 0.53017 0.05853 0.04400
H 	H 	0.59932 0.31446 0.07989 0.04500
H 	H 	0.68393 0.36879 0.08617 0.06000
H 	H 	0.60163 0.24628 0.92198 0.05300
H 	H 	0.51807 0.19061 0.91654 0.04300
H 	H 	0.85191 0.60369 0.94851 0.05500
H 	H 	0.81855 0.52334 0.96787 0.04400
H 	H 	0.70154 0.55857 0.97158 0.04800
H 	H 	0.73371 0.63772 0.95028 0.06200
H 	H 	0.89829 0.23824 0.96572 0.05600
H 	H 	0.86081 0.29217 0.99001 0.04600
H 	H 	0.69759 0.15271 0.85107 0.04500
H 	H 	0.73567 0.10029 0.82522 0.05800
H 	H 	0.45697 0.15703 0.05903 0.05300
H 	H 	0.53921 0.19956 0.05896 0.04500
H 	H 	0.45341 0.22674 0.92827 0.04800
H 	H 	0.37102 0.18313 0.92771 0.06100
C 	C 	0.72271 0.22854 0.42287 0.00000
C 	C 	0.75671 0.26709 0.47800 -0.02200
C 	C 	0.74086 0.29908 0.50021 -0.06600
C 	C 	0.69100 0.29298 0.46765 0.07900
C 	C 	0.65722 0.25496 0.41212 -0.06800
C 	C 	0.67312 0.22292 0.38993 -0.02400
N 	N 	0.67532 0.32639 0.49150 -0.14000
C 	C 	0.71487 0.46913 0.46014 -0.00000
C 	C 	0.66383 0.41600 0.42178 -0.02200
C 	C 	0.64913 0.36967 0.43282 -0.06800
C 	C 	0.68579 0.37596 0.48224 0.08000
C 	C 	0.73552 0.42994 0.52132 -0.06600
C 	C 	0.74998 0.47636 0.51045 -0.02300
C 	C 	0.52735 0.23195 0.47860 0.00000
C 	C 	0.54923 0.28999 0.48912 -0.02300
C 	C 	0.59697 0.32059 0.49233 -0.06500
C 	C 	0.62266 0.29284 0.48314 0.07700
C 	C 	0.60167 0.23518 0.47520 -0.06600
C 	C 	0.55371 0.20472 0.47163 -0.02300
C 	C 	0.77024 0.60774 0.42473 0.04400
C 	C 	0.80003 0.58211 0.43851 -0.03500
C 	C 	0.78135 0.53615 0.44903 -0.03100
C 	C 	0.73309 0.51594 0.44663 0.01200
C 	C 	0.70302 0.54127 0.43243 -0.03100
C 	C 	0.72153 0.58701 0.42149 -0.04000
C 	C 	0.78627 0.13867 0.37299 0.04000
C 	C 	0.77894 0.17690 0.35401 -0.03200
C 	C 	0.75527 0.20409 0.36786 -0.03000
C 	C 	0.73826 0.19260 0.40021 0.01300
C 	C 	0.74149 0.15075 0.41538 -0.03100
C 	C 	0.76542 0.12391 0.40185 -0.03900
C 	C 	0.38368 0.14404 0.47430 0.04600
C 	C 	0.43242 0.15043 0.51104 -0.04100
C 	C 	0.47917 0.17843 0.51201 -0.03100
C 	C 	0.47742 0.20010 0.47609 0.01200
C 	C 	0.42829 0.19257 0.43862 -0.02900
C 	C 	0.38174 0.16498 0.43795 -0.03300
H 	H 	0.79526 0.27192 0.50365 0.04900
H 	H 	0.76722 0.32856 0.54283 0.05600
H 	H 	0.61805 0.24888 0.38664 0.05200
H 	H 	0.64652 0.19303 0.34736 0.03900
H 	H 	0.63616 0.41020 0.38303 0.04500
H 	H 	0.60972 0.32888 0.40295 0.05200
H 	H 	0.76371 0.43527 0.55958 0.05600
H 	H 	0.78907 0.51753 0.54065 0.04200
H 	H 	0.52990 0.31186 0.49597 0.04300
H 	H 	0.61470 0.36625 0.50335 0.05500
H 	H 	0.62312 0.21434 0.47309 0.05400
H 	H 	0.53758 0.16017 0.46437 0.04200
H 	H 	0.83786 0.59811 0.44143 0.06000
H 	H 	0.80459 0.51654 0.45949 0.04700
H 	H 	0.66578 0.52605 0.43055 0.04600
H 	H 	0.69840 0.60674 0.41107 0.05700
H 	H 	0.79420 0.18786 0.33101 0.05900
H 	H 	0.75230 0.23584 0.35541 0.04800
H 	H 	0.72756 0.14088 0.43956 0.04700
H 	H 	0.77026 0.09382 0.41604 0.05700
H 	H 	0.43433 0.13461 0.53940 0.05100
H 	H 	0.51694 0.18414 0.54117 0.04300
H 	H 	0.42641 0.20872 0.41048 0.04900
H 	H 	0.34439 0.16068 0.40975 0.06700
C 	C 	0.37092 0.85215 0.02428 0.00500
C 	C 	0.42108 0.87997 0.07424 -0.02300
C 	C 	0.45434 0.85808 0.08206 -0.06600
C 	C 	0.43777 0.80820 0.04016 0.08400
C 	C 	0.38819 0.78140 0.98956 -0.07000
C 	C 	0.35511 0.80341 0.98174 -0.02400
N 	N 	0.46997 0.78302 0.05059 -0.14300
C 	C 	0.37294 0.60376 0.00394 0.00600
C 	C 	0.38251 0.61951 0.96871 -0.02500
C 	C 	0.41604 0.67823 0.98440 -0.07000
C 	C 	0.43953 0.72196 0.03529 0.08500
C 	C 	0.43095 0.70597 0.07079 -0.06500
C 	C 	0.39814 0.64725 0.05540 -0.02100
C 	C 	0.59356 0.83964 0.02322 0.00200
C 	C 	0.60580 0.83877 0.07121 -0.02100
C 	C 	0.56477 0.81953 0.07955 -0.06600
C 	C 	0.51129 0.80169 0.04046 0.08500
C 	C 	0.49917 0.80331 0.99258 -0.07100
C 	C 	0.54002 0.82175 0.98393 -0.02200
C 	C 	0.26977 0.42609 0.96141 0.04400
C 	C 	0.25891 0.46733 0.97868 -0.03800
C 	C 	0.29151 0.52488 0.99098 -0.03100
C 	C 	0.33571 0.54187 0.98670 0.01100
C 	C 	0.34534 0.50007 0.96761 -0.02700
C 	C 	0.31212 0.44228 0.95448 -0.03200
C 	C 	0.25850 0.90538 0.99349 0.04400
C 	C 	0.24408 0.85148 0.99237 -0.04100
C 	C 	0.28150 0.83494 0.00416 -0.02300
C 	C 	0.33364 0.87214 0.01707 0.01200
C 	C 	0.34893 0.92714 0.02042 -0.02400
C 	C 	0.31152 0.94380 0.00886 -0.02900
C 	C 	0.71548 0.89053 0.99198 0.04200
C 	C 	0.68755 0.91860 0.98868 -0.03800
C 	C 	0.64840 0.90268 0.99969 -0.03100
C 	C 	0.63653 0.85816 0.01367 0.01600
C 	C 	0.66515 0.83073 0.01773 -0.03000
C 	C 	0.70482 0.84726 0.00745 -0.03100
H 	H 	0.43371 0.91775 0.10727 0.04300
H 	H 	0.49243 0.87904 0.12106 0.05600
H 	H 	0.37496 0.74324 0.95659 0.05300
H 	H 	0.31674 0.78206 0.94285 0.04900
H 	H 	0.36326 0.58635 0.92889 0.04300
H 	H 	0.42214 0.68967 0.95642 0.05300
H 	H 	0.44919 0.73926 0.11013 0.05800
H 	H 	0.39184 0.63555 0.08328 0.04800
H 	H 	0.64708 0.85297 0.10202 0.04600
H 	H 	0.57455 0.81879 0.11661 0.06100
H 	H 	0.45809 0.78916 0.96168 0.05300
H 	H 	0.52995 0.82163 0.94650 0.04500
H 	H 	0.22597 0.45507 0.98367 0.05700
H 	H 	0.28301 0.55648 0.00466 0.05000
H 	H 	0.37920 0.51259 0.96398 0.04900
H 	H 	0.32037 0.41052 0.94056 0.06300
H 	H 	0.20332 0.82173 0.98084 0.05900
H 	H 	0.26960 0.79272 0.00216 0.04800
H 	H 	0.38920 0.95629 0.03064 0.05200
H 	H 	0.32309 0.98570 0.01020 0.07300
H 	H 	0.69582 0.95234 0.97712 0.06400
H 	H 	0.62709 0.92466 0.99710 0.04800
H 	H 	0.65623 0.79622 0.02830 0.04800
H 	H 	0.72658 0.82573 0.01055 0.06100
C 	C 	0.35503 0.84631 0.52385 0.00200
C 	C 	0.40565 0.87350 0.57318 -0.02200
C 	C 	0.43838 0.85108 0.57955 -0.06500
C 	C 	0.42086 0.80130 0.53680 0.08200
C 	C 	0.37066 0.77494 0.48691 -0.06700
C 	C 	0.33808 0.79748 0.48056 -0.02000
N 	N 	0.45317 0.77621 0.54554 -0.14300
C 	C 	0.36139 0.59741 0.50297 0.00100
C 	C 	0.36474 0.61261 0.46490 -0.02100
C 	C 	0.39663 0.67114 0.47912 -0.06800
C 	C 	0.42396 0.71535 0.53118 0.08300
C 	C 	0.42147 0.70004 0.56936 -0.06500
C 	C 	0.39093 0.64145 0.55559 -0.02100
C 	C 	0.57286 0.83239 0.51320 -0.00100
C 	C 	0.58749 0.83479 0.56275 -0.02100
C 	C 	0.54776 0.81573 0.57275 -0.06700
C 	C 	0.49322 0.79510 0.53389 0.08300
C 	C 	0.47876 0.79409 0.48467 -0.06900
C 	C 	0.51826 0.81198 0.47423 -0.02100
C 	C 	0.25883 0.41829 0.45837 0.04500
C 	C 	0.25600 0.46134 0.48739 -0.03200
C 	C 	0.28856 0.51944 0.50094 -0.02900
C 	C 	0.32592 0.53553 0.48744 0.01300
C 	C 	0.32941 0.49253 0.45920 -0.03000
C 	C 	0.29560 0.43414 0.44425 -0.04000
C 	C 	0.24443 0.90188 0.49484 0.04300
C 	C 	0.22967 0.84807 0.49401 -0.03600
C 	C 	0.26665 0.83092 0.50556 -0.02800
C 	C 	0.31869 0.86741 0.51795 0.01500
C 	C 	0.33450 0.92252 0.52140 -0.02700
C 	C 	0.29755 0.93981 0.51010 -0.02900
C 	C 	0.69204 0.88098 0.47815 0.04600
C 	C 	0.66025 0.90490 0.47004 -0.03400
C 	C 	0.62209 0.88991 0.48235 -0.03000
C 	C 	0.61437 0.84968 0.50161 0.01300
C 	C 	0.64600 0.82551 0.50936 -0.03000
C 	C 	0.68492 0.84146 0.49811 -0.04100
H 	H 	0.41914 0.91132 0.60680 0.04300
H 	H 	0.47695 0.87168 0.61802 0.05700
H 	H 	0.35661 0.73686 0.45332 0.05300
H 	H 	0.29932 0.77657 0.44214 0.05000
H 	H 	0.34202 0.57916 0.42412 0.04400
H 	H 	0.39865 0.68204 0.44930 0.05200
H 	H 	0.44297 0.73373 0.60968 0.05800
H 	H 	0.38978 0.63031 0.58569 0.04400
H 	H 	0.62961 0.85121 0.59343 0.04300
H 	H 	0.55935 0.81724 0.61090 0.05800
H 	H 	0.43697 0.77844 0.45421 0.05300
H 	H 	0.50632 0.80942 0.43566 0.04100
H 	H 	0.22850 0.44974 0.49935 0.06500
H 	H 	0.28491 0.55198 0.52210 0.04900
H 	H 	0.35851 0.50438 0.44914 0.04600
H 	H 	0.29842 0.40132 0.42223 0.05600
H 	H 	0.18888 0.81871 0.48261 0.05900
H 	H 	0.25437 0.78865 0.50354 0.04900
H 	H 	0.37471 0.95116 0.53126 0.05000
H 	H 	0.30937 0.98160 0.51111 0.06500
H 	H 	0.66502 0.93494 0.45407 0.06200
H 	H 	0.59835 0.90929 0.47668 0.04700
H 	H 	0.64005 0.79399 0.52364 0.04400
H 	H 	0.70903 0.82249 0.50418 0.05700
Zn	Zn	0.13738 0.12719 0.99191 1.19300
Zn	Zn	0.05344 0.07394 0.86989 1.20500
O 	O 	0.03592 0.97168 0.78002 -0.44100
O 	O 	0.02635 0.04900 0.79248 -0.39400
O 	O 	0.04254 0.90947 0.86089 -0.48200
C 	C 	0.21132 0.11057 0.97586 0.32300
O 	O 	0.99700 0.99588 0.84935 -0.88300
C 	C 	0.14711 0.20077 0.93988 0.34700
O 	O 	0.20532 0.13036 0.01323 -0.42100
O 	O 	0.16944 0.08247 0.92533 -0.32200
O 	O 	0.06409 0.08571 0.94077 -0.76300
O 	O 	0.08991 0.99139 0.93928 -0.42800
O 	O 	0.11621 0.15218 0.89389 -0.41300
O 	O 	0.15748 0.19926 0.98452 -0.43300
Zn	Zn	0.89914 0.90160 0.87504 1.18000
Zn	Zn	0.99766 0.93753 0.97534 1.19400
Zn	Zn	0.01686 0.00617 0.91937 1.22000
C 	C 	0.89939 0.81985 0.92035 0.34700
C 	C 	0.87385 0.94498 0.94268 0.34600
O 	O 	0.94480 0.02541 0.89967 -0.45000
Zn	Zn	0.00348 0.04534 0.01039 1.21300
O 	O 	0.95333 0.85498 0.95493 -0.44400
O 	O 	0.87184 0.82769 0.88049 -0.43400
O 	O 	0.85730 0.92525 0.89272 -0.47200
O 	O 	0.92352 0.96079 0.97988 -0.45900
C 	C 	0.03190 0.00743 0.08894 0.28500
O 	O 	0.96968 0.92630 0.89931 -0.78800
C 	C 	0.94254 0.06360 0.93027 0.35300
O 	O 	0.02342 0.96169 0.05412 -0.36900
O 	O 	0.03611 0.05210 0.08095 -0.42000
O 	O 	0.96932 0.08142 0.98171 -0.47200
O 	O 	0.03790 0.01700 0.98929 -0.89600
Zn	Zn	0.01227 0.94325 0.82213 1.19000
C 	C 	0.02832 0.00860 0.76427 0.27600
C 	C 	0.08391 0.94355 0.91157 0.34300
H 	H 	0.07802 0.03838 0.01665 0.18000
H 	H 	0.95890 0.98467 0.82476 0.17600
Zn	Zn	0.11833 0.11058 0.47554 1.19200
Zn	Zn	0.03291 0.06339 0.35784 1.19800
O 	O 	0.02819 0.96493 0.27730 -0.43400
O 	O 	0.01009 0.03601 0.28158 -0.41300
O 	O 	0.02720 0.90044 0.35557 -0.48000
C 	C 	0.18723 0.08676 0.45559 0.32800
O 	O 	0.97994 0.98424 0.33848 -0.88500
C 	C 	0.13174 0.18785 0.42529 0.34700
O 	O 	0.18019 0.10221 0.49309 -0.41300
O 	O 	0.14903 0.06990 0.40613 -0.32200
O 	O 	0.04469 0.07541 0.42910 -0.77300
O 	O 	0.07064 0.98168 0.43300 -0.43400
O 	O 	0.08463 0.14550 0.37875 -0.43800
O 	O 	0.14731 0.18346 0.46951 -0.42500
Zn	Zn	0.87722 0.88889 0.35986 1.18600
Zn	Zn	0.97435 0.92806 0.46365 1.19400
Zn	Zn	0.99657 0.99585 0.40781 1.21400
C 	C 	0.87594 0.80887 0.40627 0.35000
C 	C 	0.84673 0.92714 0.42434 0.34500
O 	O 	0.92435 0.01547 0.38321 -0.44200
Zn	Zn	0.97498 0.03159 0.49378 1.19700
O 	O 	0.92915 0.84571 0.44440 -0.43000
O 	O 	0.85176 0.81380 0.36317 -0.42900
O 	O 	0.83148 0.90756 0.37483 -0.42400
O 	O 	0.89670 0.94512 0.46284 -0.46000
C 	C 	0.00853 0.99944 0.57662 0.32200
O 	O 	0.94890 0.91621 0.38779 -0.78600
C 	C 	0.91927 0.05195 0.41208 0.34200
O 	O 	0.00143 0.95411 0.54278 -0.37100
O 	O 	0.00636 0.04067 0.56531 -0.44100
O 	O 	0.93856 0.06439 0.46188 -0.48900
O 	O 	0.01404 0.00736 0.47698 -0.88700
Zn	Zn	0.99889 0.93380 0.31500 1.18000
C 	C 	0.02003 0.00030 0.25933 0.27700
C 	C 	0.06692 0.93489 0.40670 0.34400
H 	H 	0.05381 0.02984 0.50608 0.18000
H 	H 	0.94133 0.97048 0.31217 0.17100
C 	C 	0.02612 0.00749 0.71682 0.04500
N 	N 	0.02075 0.96206 0.68314 -0.04700
N 	N 	0.01684 0.96022 0.63902 -0.03500
C 	C 	0.01874 0.00405 0.62771 0.03700
N 	N 	0.02496 0.04984 0.66187 -0.04800
N 	N 	0.02855 0.05151 0.70575 -0.04600
C 	C 	0.03546 0.00821 0.13686 0.05000
N 	N 	0.02709 0.96113 0.14453 -0.04200
N 	N 	0.02317 0.95900 0.18434 -0.04500
C 	C 	0.02659 0.00345 0.21695 0.04300
N 	N 	0.03562 0.05073 0.20966 -0.04900
N 	N 	0.04014 0.05315 0.17030 -0.04700
C 	C 	0.22568 0.35710 0.44560 -0.00700
C 	C 	0.16773 0.32498 0.41273 0.13800
C 	C 	0.13727 0.26925 0.40547 -0.02100
C 	C 	0.16404 0.24430 0.42931 -0.11000
C 	C 	0.22176 0.27459 0.45854 0.20200
C 	C 	0.25229 0.33118 0.46757 -0.09600
H 	H 	0.09281 0.24561 0.38172 0.07800
H 	H 	0.29678 0.35501 0.49161 0.08500
Cl	Cl	0.13272 0.35314 0.37897 -0.30600
Cl	Cl	0.25611 0.24088 0.48107 -0.30900
C 	C 	0.80501 0.91601 0.43519 -0.10800
C 	C 	0.75637 0.85998 0.40657 0.21100
C 	C 	0.71895 0.84981 0.41973 -0.09600
C 	C 	0.73023 0.89421 0.46246 -0.00700
C 	C 	0.77905 0.94994 0.49149 0.14200
C 	C 	0.81583 0.96069 0.47739 -0.01300
H 	H 	0.68165 0.80676 0.39758 0.08500
H 	H 	0.85341 0.00358 0.49996 0.06100
Cl	Cl	0.74338 0.80097 0.35674 -0.31800
Cl	Cl	0.79587 0.00594 0.54707 -0.32300
C 	C 	0.20244 0.91553 0.47417 -0.00300
C 	C 	0.17661 0.90777 0.42183 0.13400
C 	C 	0.13293 0.91489 0.40059 -0.01900
C 	C 	0.11399 0.92906 0.43078 -0.12800
C 	C 	0.14014 0.93738 0.48343 0.21200
C 	C 	0.18448 0.93103 0.50497 -0.10000
H 	H 	0.11359 0.90929 0.36039 0.06700
H 	H 	0.20396 0.93653 0.54512 0.09100
Cl	Cl	0.19721 0.88687 0.38160 -0.28900
Cl	Cl	0.11576 0.95204 0.52165 -0.36200
C 	C 	0.23922 0.36710 0.95411 -0.01000
C 	C 	0.26466 0.35119 0.99169 0.14200
C 	C 	0.23447 0.29636 0.98586 -0.03100
C 	C 	0.17856 0.25716 0.94332 -0.10200
C 	C 	0.15293 0.27317 0.90581 0.19900
C 	C 	0.18351 0.32775 0.91110 -0.09200
H 	H 	0.25434 0.28455 0.01500 0.09900
H 	H 	0.16363 0.34008 0.88242 0.08700
Cl	Cl	0.33381 0.40048 0.04757 -0.30200
Cl	Cl	0.08195 0.22709 0.85402 -0.29700
C 	C 	0.75500 0.90549 0.97804 -0.00500
C 	C 	0.74207 0.86625 0.93055 0.13800
C 	C 	0.78091 0.87982 0.91914 -0.01800
C 	C 	0.83256 0.93286 0.95428 -0.12300
C 	C 	0.84479 0.97305 0.00092 0.21400
C 	C 	0.80615 0.95900 0.01270 -0.09400
H 	H 	0.77114 0.84872 0.88318 0.07200
H 	H 	0.81592 0.98970 0.04888 0.09000
Cl	Cl	0.67693 0.80029 0.88453 -0.31700
Cl	Cl	0.90738 0.04198 0.04390 -0.34800
C 	C 	0.21649 0.91910 0.97387 -0.00900
C 	C 	0.18884 0.91018 0.92121 0.13800
C 	C 	0.14593 0.91866 0.90150 -0.02200
C 	C 	0.12957 0.93529 0.93361 -0.12400
C 	C 	0.15718 0.94410 0.98637 0.20200
C 	C 	0.20080 0.93653 0.00635 -0.09100
H 	H 	0.12537 0.91250 0.86114 0.06900
H 	H 	0.22157 0.94270 0.04670 0.08800
Cl	Cl	0.20648 0.88663 0.87887 -0.29000
Cl	Cl	0.13537 0.96079 0.02668 -0.36600
C 	C 	0.82213 0.12049 0.36942 -0.00800
C 	C 	0.87966 0.15863 0.40629 0.13500
C 	C 	0.91263 0.13642 0.41483 -0.02200
C 	C 	0.88864 0.07626 0.38769 -0.13000
C 	C 	0.83217 0.03955 0.34533 0.20100
C 	C 	0.79907 0.06176 0.33665 -0.10200
H 	H 	0.95652 0.16537 0.44575 0.05900
H 	H 	0.75503 0.03267 0.30656 0.08000
Cl	Cl	0.91053 0.23353 0.44559 -0.32200
Cl	Cl	0.80212 0.96570 0.30360 -0.35700
C 	C 	0.79181 0.65846 0.41671 -0.00700
C 	C 	0.79261 0.65200 0.37164 0.13900
C 	C 	0.81924 0.70137 0.36794 -0.01800
C 	C 	0.84478 0.75725 0.40869 -0.10500
C 	C 	0.84109 0.76348 0.45214 0.20600
C 	C 	0.81503 0.71419 0.45615 -0.09500
H 	H 	0.82083 0.69631 0.33378 0.07200
H 	H 	0.81353 0.71926 0.49036 0.08100
Cl	Cl	0.75998 0.58230 0.31938 -0.31700
Cl	Cl	0.86751 0.83268 0.50097 -0.32000
C 	C 	0.23906 0.09182 0.46891 -0.10000
C 	C 	0.29055 0.13983 0.51584 0.20800
C 	C 	0.33862 0.15403 0.51919 -0.09300
C 	C 	0.33616 0.12024 0.47689 -0.00900
C 	C 	0.28611 0.06798 0.43382 0.14100
C 	C 	0.23782 0.05408 0.42988 -0.02600
H 	H 	0.37760 0.19299 0.55361 0.08600
H 	H 	0.19888 0.01568 0.39487 0.07700
Cl	Cl	0.29597 0.18335 0.57043 -0.30300
Cl	Cl	0.28312 0.02054 0.38366 -0.29700
C 	C 	0.83948 0.12672 0.88850 -0.00800
C 	C 	0.82718 0.08243 0.90291 0.13800
C 	C 	0.85740 0.05708 0.91059 -0.01800
C 	C 	0.90095 0.07643 0.90558 -0.12600
C 	C 	0.90991 0.11660 0.88633 0.20300
C 	C 	0.87894 0.14139 0.87759 -0.10000
H 	H 	0.84958 0.02530 0.92428 0.07700
H 	H 	0.88780 0.17456 0.86541 0.08600
Cl	Cl	0.77770 0.06223 0.91663 -0.32000
Cl	Cl	0.96213 0.13903 0.87636 -0.35500
C 	C 	0.81761 0.67642 0.93990 -0.00800
C 	C 	0.85198 0.73389 0.98237 0.14000
C 	C 	0.87749 0.78042 0.97506 -0.02500
C 	C 	0.86968 0.77025 0.92586 -0.11500
C 	C 	0.83472 0.71282 0.88309 0.20600
C 	C 	0.80851 0.66632 0.89020 -0.09800
H 	H 	0.90402 0.82458 0.00793 0.07500
H 	H 	0.78233 0.62211 0.85752 0.08400
Cl	Cl	0.86517 0.74806 0.04563 -0.32600
Cl	Cl	0.82602 0.69803 0.82154 -0.33600
C 	C 	0.36229 0.14958 0.99807 -0.01200
C 	C 	0.31579 0.09199 0.96498 0.13600
C 	C 	0.26759 0.07856 0.96111 -0.02700
C 	C 	0.26532 0.12230 0.99003 -0.10900
C 	C 	0.31358 0.17892 0.02676 0.20200
C 	C 	0.36171 0.19206 0.03063 -0.09500
H 	H 	0.23118 0.03469 0.93384 0.07300
H 	H 	0.39798 0.23617 0.05712 0.08800
Cl	Cl	0.31685 0.03673 0.92676 -0.30700
Cl	Cl	0.31391 0.23484 0.06604 -0.32000
