data_crystal

_cell_length_a 16.46778
_cell_length_b 16.86506
_cell_length_c 58.54018
_cell_angle_alpha 90.03235
_cell_angle_beta  90.02250
_cell_angle_gamma 119.85155

_symmetry_space_group_name_	'P 1'
_symmetry_space_group_name_H-M	'P 1'

loop_
_symmetry_equiv_pos_as_xyz
  x,y,z

loop_
_atom_site_label
_atom_site_type_symbol
_atom_site_fract_x
_atom_site_fract_y
_atom_site_fract_z
_atom_site_charge
O 	O 	0.04776 0.18649 0.76242 -0.32300
O 	O 	0.04933 0.84699 0.78633 -0.35700
O 	O 	0.05747 0.14955 0.80962 -0.35100
O 	O 	0.00932 0.01055 0.22790 -0.68800
H 	H 	0.01422 0.99720 0.24410 0.15700
Br	Br	0.02829 0.20657 0.70659 -0.09400
C 	C 	0.00525 0.46366 0.39244 0.14800
C 	C 	0.07997 0.48453 0.50326 0.16600
C 	C 	0.16330 0.59554 0.47176 0.31300
C 	C 	0.11923 0.55421 0.66734 0.34200
O 	O 	0.12555 0.59799 0.68666 -0.32800
C 	C 	0.12522 0.19967 0.75217 0.32900
C 	C 	0.14814 0.19818 0.80549 0.30800
C 	C 	0.05928 0.92783 0.73525 0.35400
C 	C 	0.12043 0.89810 0.80029 0.30600
Ni	Ni	0.14783 0.05541 0.77325 1.13700
O 	O 	0.13159 0.96367 0.74918 -0.37100
O 	O 	0.13695 0.13027 0.74818 -0.35200
O 	O 	0.17715 0.98559 0.79606 -0.36000
H 	H 	0.03419 0.00253 0.79928 0.16500
Ni	Ni	0.05205 0.93601 0.21514 1.12100
Ni	Ni	0.08770 0.13995 0.22937 1.13100
O 	O 	0.16024 0.98400 0.23899 -0.34600
O 	O 	0.04018 0.14018 0.26076 -0.32400
O 	O 	0.14244 0.15150 0.19778 -0.35600
C 	C 	0.10226 0.96148 0.96128 0.30200
C 	C 	0.12265 0.98162 0.04043 0.28700
Ni	Ni	0.07338 0.05859 0.00171 1.13500
O 	O 	0.12441 0.04200 0.97086 -0.32300
O 	O 	0.14746 0.01551 0.01964 -0.33300
O 	O 	0.00204 0.11282 0.98674 -0.32400
O 	O 	0.03852 0.90966 0.04473 -0.32200
O 	O 	0.03825 0.09871 0.03075 -0.32400
Br	Br	0.03045 0.33860 0.33570 -0.10900
Br	Br	0.12313 0.12193 0.08106 -0.13500
Br	Br	0.09882 0.28391 0.04105 -0.09000
C 	C 	0.03451 0.19305 0.92820 0.12700
C 	C 	0.00763 0.18743 0.95123 -0.06900
C 	C 	0.02468 0.26827 0.96248 0.12100
C 	C 	0.09153 0.35390 0.95364 0.10100
C 	C 	0.13245 0.35896 0.93212 -0.09000
Br	Br	0.13140 0.46285 0.97171 -0.10300
Br	Br	0.12766 0.99615 0.90617 -0.16200
Br	Br	0.08308 0.78178 0.89318 -0.17700
C 	C 	0.15148 0.85403 0.81735 -0.08600
C 	C 	0.15595 0.77540 0.81161 -0.04900
H 	H 	0.12564 0.73989 0.79573 0.08500
O 	O 	0.20946 0.66940 0.81958 -0.26800
C 	C 	0.20135 0.28795 0.81642 -0.07700
C 	C 	0.21186 0.43056 0.82830 -0.04100
C 	C 	0.17065 0.35203 0.81470 0.18000
H 	H 	0.18506 0.47764 0.82772 0.08600
O 	O 	0.10103 0.33836 0.79962 -0.26600
C 	C 	0.15053 0.29635 0.71754 0.11100
C 	C 	0.15036 0.84544 0.68027 -0.09200
C 	C 	0.05293 0.79879 0.68411 0.11900
C 	C 	0.01449 0.83681 0.69902 0.12400
C 	C 	0.07507 0.91836 0.71064 -0.09800
C 	C 	0.16394 0.97585 0.70099 0.10500
C 	C 	0.03848 0.54661 0.34914 0.13400
C 	C 	0.11172 0.57563 0.36517 0.11300
C 	C 	0.09339 0.53715 0.38723 -0.10300
Br	Br	0.06192 0.60410 0.31952 -0.10900
C 	C 	0.03610 0.52371 0.65247 -0.07300
C 	C 	0.04224 0.57090 0.63180 0.13800
Br	Br	0.15925 0.64312 0.61605 -0.24700
C 	C 	0.09064 0.55746 0.48951 -0.08000
C 	C 	0.02770 0.59040 0.49179 -0.02800
O 	O 	0.14340 0.45440 0.50198 -0.26000
H 	H 	0.03460 0.64568 0.48102 0.08400
H 	H 	0.11653 0.40335 0.49081 0.16900
Br	Br	0.07200 0.31423 0.27978 -0.13000
H 	H 	0.12764 0.95132 0.85289 0.17900
O 	O 	0.02115 0.00345 0.78287 -0.69600
O 	O 	0.15681 0.02457 0.19295 -0.34300
C 	C 	0.10123 0.27815 0.91906 0.10400
C 	C 	0.16000 0.92690 0.92650 0.10500
O 	O 	0.19520 0.16089 0.79624 -0.34300
C 	C 	0.20389 0.74499 0.82580 0.17900
C 	C 	0.16299 0.57846 0.40549 0.35200
O 	O 	0.20310 0.68419 0.46741 -0.35500
O 	O 	0.16766 0.53799 0.45684 -0.34800
O 	O 	0.15120 0.62699 0.42131 -0.35000
O 	O 	0.22364 0.55060 0.40855 -0.34700
C 	C 	0.19960 0.79327 0.67928 0.32600
Ni	Ni	0.25049 0.67348 0.70443 1.12900
O 	O 	0.19337 0.74604 0.66042 -0.32200
O 	O 	0.23454 0.78216 0.69862 -0.36200
O 	O 	0.19548 0.56835 0.65767 -0.34600
O 	O 	0.24191 0.55407 0.71091 -0.36200
C 	C 	0.20266 0.44894 0.92263 0.32800
C 	C 	0.29062 0.75776 0.86257 0.32600
C 	C 	0.24270 0.75882 0.92155 0.32600
Ni	Ni	0.22404 0.59926 0.89234 1.12900
O 	O 	0.26213 0.67013 0.86314 -0.37400
O 	O 	0.22675 0.49606 0.87515 -0.36300
O 	O 	0.18938 0.68716 0.90802 -0.34600
O 	O 	0.17752 0.51159 0.91906 -0.34700
C 	C 	0.22263 0.07249 0.24083 0.32100
C 	C 	0.19239 0.11366 0.19196 0.31800
O 	O 	0.19462 0.13223 0.24506 -0.33600
C 	C 	0.26074 0.98793 0.05981 0.06700
C 	C 	0.19465 0.01769 0.05841 -0.04500
C 	C 	0.21791 0.10211 0.06785 0.08500
Br	Br	0.22725 0.86679 0.04967 -0.10600
O 	O 	0.23819 0.27157 0.16418 -0.24700
H 	H 	0.24862 0.31731 0.17616 0.17500
Br	Br	0.14809 0.28316 0.88867 -0.17100
C 	C 	0.22808 0.84080 0.95508 0.11300
C 	C 	0.20163 0.80924 0.93247 -0.09100
C 	C 	0.16022 0.84827 0.91880 0.10200
C 	C 	0.17416 0.94959 0.94975 -0.08800
C 	C 	0.22261 0.91689 0.96277 0.10000
Br	Br	0.26082 0.77327 0.97612 -0.10700
C 	C 	0.24699 0.79296 0.84614 -0.09300
C 	C 	0.24329 0.87220 0.85157 -0.04300
C 	C 	0.19285 0.90045 0.83785 0.18100
H 	H 	0.27649 0.91018 0.86699 0.08700
O 	O 	0.18676 0.97575 0.84410 -0.26800
H 	H 	0.26719 0.69318 0.81025 0.17200
C 	C 	0.27988 0.30803 0.82980 -0.04200
C 	C 	0.28214 0.44449 0.84397 -0.08800
C 	C 	0.18306 0.28477 0.73885 -0.08600
C 	C 	0.27841 0.34463 0.74474 0.10400
C 	C 	0.20926 0.37227 0.70388 0.11200
Br	Br	0.17977 0.37628 0.67231 -0.12000
C 	C 	0.20232 0.93842 0.68594 0.09800
Br	Br	0.22731 0.10533 0.70621 -0.12700
Br	Br	0.23738 0.66344 0.35646 -0.11800
H 	H 	0.04207 0.30703 0.80853 0.16900
Br	Br	0.32985 0.00963 0.67584 -0.11900
C 	C 	0.29924 0.50504 0.86357 0.32700
Br	Br	0.27346 0.92197 0.26110 -0.13300
Ni	Ni	0.26511 0.73829 0.43630 1.12500
Ni	Ni	0.28403 0.55724 0.43923 1.12900
O 	O 	0.28659 0.46170 0.91647 -0.33900
Br	Br	0.28561 0.97939 0.99020 -0.14200
C 	C 	0.29215 0.44428 0.71313 -0.09200
Br	Br	0.26096 0.46895 0.60220 -0.12500
C 	C 	0.31203 0.53883 0.70889 0.33800
Ni	Ni	0.28692 0.70114 0.64953 1.13700
H 	H 	0.32490 0.64641 0.92148 0.17200
C 	C 	0.32575 0.10409 0.24287 -0.09100
C 	C 	0.30523 0.24741 0.16799 0.18200
C 	C 	0.28436 0.16904 0.18096 -0.08300
C 	C 	0.32048 0.38607 0.84357 0.19000
H 	H 	0.30644 0.26078 0.83045 0.09600
C 	C 	0.33220 0.42564 0.73205 0.11400
Br	Br	0.33972 0.30989 0.76725 -0.17500
Br	Br	0.29713 0.46636 0.36615 -0.11900
Br	Br	0.28980 0.94571 0.41564 -0.20800
O 	O 	0.31701 0.90153 0.49238 -0.26800
H 	H 	0.29374 0.93070 0.48148 0.16800
O 	O 	0.33262 0.78839 0.92526 -0.36100
C 	C 	0.31174 0.16855 0.06987 0.11400
O 	O 	0.31331 0.77441 0.40359 -0.35500
O 	O 	0.34030 0.68623 0.44146 -0.72200
O 	O 	0.33527 0.71545 0.67918 -0.72200
O 	O 	0.35006 0.81371 0.87803 -0.37500
O 	O 	0.34434 0.65162 0.90539 -0.72200
H 	H 	0.33856 0.08497 0.19423 0.07900
O 	O 	0.35630 0.56483 0.46741 -0.36700
H 	H 	0.34791 0.69440 0.45814 0.16900
C 	C 	0.35067 0.04665 0.06923 0.14300
Br	Br	0.34673 0.29300 0.06264 -0.14100
C 	C 	0.35808 0.04347 0.24997 0.10800
Br	Br	0.36083 0.28752 0.22920 -0.18000
C 	C 	0.35337 0.14441 0.18410 -0.05200
H 	H 	0.36757 0.36959 0.87164 0.17200
O 	O 	0.35408 0.74216 0.72885 -0.34000
O 	O 	0.37070 0.86386 0.44949 -0.34500
O 	O 	0.36813 0.65924 0.63082 -0.32400
H 	H 	0.36268 0.78174 0.68155 0.17600
C 	C 	0.37971 0.14106 0.07270 -0.09500
Br	Br	0.32213 0.11277 0.37977 -0.11700
Br	Br	0.35066 0.35105 0.57736 -0.17400
H 	H 	0.39684 0.42696 0.47061 0.08000
O 	O 	0.00187 0.18302 0.21651 -0.33900
O 	O 	0.38044 0.54021 0.42215 -0.37100
H 	H 	0.39649 0.31100 0.50734 0.17200
O 	O 	0.38358 0.54941 0.87234 -0.35500
C 	C 	0.39454 0.19643 0.23721 0.09300
C 	C 	0.39285 0.29704 0.15742 -0.04000
Br	Br	0.37102 0.32906 0.34559 -0.15500
C 	C 	0.36437 0.96749 0.38854 0.10200
C 	C 	0.38586 0.49496 0.60980 0.11000
C 	C 	0.39581 0.60522 0.63968 0.35100
O 	O 	0.39918 0.60802 0.70753 -0.34800
O 	O 	0.39492 0.59562 0.66164 -0.36500
O 	O 	0.39234 0.83121 0.64383 -0.34800
O 	O 	0.39524 0.40328 0.85724 -0.26700
C 	C 	0.37415 0.03546 0.37299 0.11800
Br	Br	0.01389 0.36975 0.08027 -0.11800
C 	C 	0.00631 0.44463 0.51895 0.00800
H 	H 	0.40606 0.35310 0.14612 0.08100
H 	H 	0.39607 0.03773 0.52137 0.08800
C 	C 	0.39656 0.84213 0.39983 0.35000
Ni	Ni	0.40746 0.58433 0.90659 1.12100
Br	Br	0.41146 0.57691 0.98851 -0.11100
Ni	Ni	0.41699 0.78055 0.90215 1.12700
Br	Br	0.42270 0.99320 0.08052 -0.16400
C 	C 	0.41152 0.96082 0.49412 0.17200
C 	C 	0.40702 0.91410 0.38372 -0.10100
C 	C 	0.43092 0.59191 0.40513 0.35100
Br	Br	0.42820 0.66532 0.77054 -0.16200
C 	C 	0.41922 0.48602 0.37439 0.10900
C 	C 	0.42205 0.44232 0.60010 0.11200
O 	O 	0.45057 0.33506 0.49673 -0.26900
C 	C 	0.45438 0.46944 0.48195 -0.04700
H 	H 	0.01137 0.90625 0.99818 0.18900
O 	O 	0.01401 0.89649 0.95816 -0.33300
C 	C 	0.44932 0.60589 0.46754 0.30900
Ni	Ni	0.44273 0.70437 0.68246 1.13100
C 	C 	0.44191 0.19661 0.17446 0.18700
C 	C 	0.42877 0.05190 0.35332 -0.07100
C 	C 	0.44016 0.56509 0.62549 -0.09600
C 	C 	0.44037 0.87556 0.46323 0.31300
O 	O 	0.44713 0.63502 0.93964 -0.33100
C 	C 	0.44772 0.79169 0.72585 0.32400
Br	Br	0.46401 0.50200 0.73807 -0.12400
C 	C 	0.44279 0.91776 0.36169 0.11700
C 	C 	0.44519 0.03029 0.51052 -0.03100
O 	O 	0.45415 0.67846 0.40406 -0.35300
C 	C 	0.45531 0.07722 0.25203 0.11900
C 	C 	0.45198 0.43049 0.36503 0.11100
C 	C 	0.44780 0.98337 0.34598 0.09100
C 	C 	0.45973 0.26897 0.15965 -0.09000
Ni	Ni	0.46784 0.75095 0.43244 1.12900
C 	C 	0.47325 0.20821 0.08266 0.32500
O 	O 	0.46833 0.85202 0.41222 -0.34600
C 	C 	0.47542 0.55625 0.38973 -0.09900
C 	C 	0.47939 0.72296 0.94415 0.31300
O 	O 	0.47711 0.20569 0.33939 -0.32500
C 	C 	0.47482 0.94910 0.48037 -0.10200
C 	C 	0.48090 0.85694 0.64766 0.32100
O 	O 	0.48064 0.28256 0.09256 -0.34200
Br	Br	0.48226 0.83191 0.35291 -0.11100
H 	H 	0.99904 0.38906 0.52966 0.06000
Br	Br	0.59661 0.04680 0.67750 -0.11100
Br	Br	0.98713 0.39592 0.42039 -0.18600
Br	Br	0.96468 0.09092 0.90800 -0.19400
C 	C 	0.98353 0.10410 0.96497 0.28600
O 	O 	0.99548 0.17170 0.15275 -0.26400
H 	H 	0.95104 0.10810 0.14791 0.16900
O 	O 	0.95507 0.02477 0.95503 -0.33100
Br	Br	0.88083 0.78618 0.70064 -0.14700
O 	O 	0.97365 0.88306 0.74362 -0.37600
Br	Br	0.99706 0.63156 0.99401 -0.14800
C 	C 	0.96087 0.54629 0.61945 0.10000
H 	H 	0.91679 0.63044 0.52031 0.16300
C 	C 	0.57592 0.16013 0.53094 0.30900
C 	C 	0.82040 0.41731 0.60224 0.34700
C 	C 	0.57049 0.15757 0.59445 0.34100
C 	C 	0.86370 0.43216 0.53693 0.31800
C 	C 	0.56073 0.42372 0.59246 0.34800
C 	C 	0.59296 0.43964 0.52953 0.30500
Ni	Ni	0.73237 0.27494 0.56595 1.12200
Ni	Ni	0.72937 0.46473 0.56542 1.13000
Ni	Ni	0.53684 0.27712 0.56188 1.12900
O 	O 	0.63553 0.16160 0.54666 -0.33800
O 	O 	0.53057 0.20635 0.53352 -0.36300
O 	O 	0.62623 0.48177 0.57866 -0.36700
O 	O 	0.83758 0.37105 0.58681 -0.35100
O 	O 	0.76095 0.44571 0.59779 -0.34500
O 	O 	0.52686 0.37416 0.54273 -0.34900
O 	O 	0.65674 0.22316 0.59534 -0.35800
O 	O 	0.51153 0.16115 0.57973 -0.33900
O 	O 	0.68366 0.48048 0.53487 -0.36500
O 	O 	0.82056 0.34200 0.53886 -0.36300
O 	O 	0.85404 0.48351 0.55279 -0.35400
O 	O 	0.53182 0.33571 0.59135 -0.35300
O 	O 	0.66908 0.33787 0.55880 -0.72100
H 	H 	0.67482 0.33943 0.54203 0.16500
O 	O 	0.50266 0.67100 0.45229 -0.34500
O 	O 	0.49190 0.83677 0.45888 -0.36300
O 	O 	0.48723 0.80358 0.70561 -0.36500
O 	O 	0.50721 0.79873 0.65607 -0.32700
C 	C 	0.86428 0.91296 0.81890 0.30200
C 	C 	0.79757 0.92247 0.76250 0.31800
Ni	Ni	0.96323 0.07496 0.78423 1.10700
Ni	Ni	0.94560 0.87476 0.77735 1.11500
O 	O 	0.86404 0.98213 0.80768 -0.35300
O 	O 	0.90303 0.86629 0.81022 -0.37700
O 	O 	0.86631 0.00570 0.75870 -0.33700
O 	O 	0.81676 0.85868 0.76899 -0.33800
C 	C 	0.55852 0.74639 0.88131 0.32400
O 	O 	0.50566 0.78295 0.92709 -0.35200
O 	O 	0.54249 0.68564 0.89732 -0.34500
O 	O 	0.49730 0.77270 0.87715 -0.37400
C 	C 	0.72808 0.47938 0.05865 0.30500
C 	C 	0.53077 0.29371 0.14185 0.33200
C 	C 	0.76670 0.55842 0.12332 0.31900
C 	C 	0.80674 0.31681 0.13825 0.31900
C 	C 	0.79189 0.26373 0.07806 0.33100
Ni	Ni	0.60258 0.40626 0.09970 1.12300
Ni	Ni	0.63597 0.23627 0.11091 1.12900
Ni	Ni	0.81088 0.43119 0.09850 1.12900
O 	O 	0.64005 0.44465 0.06574 -0.32600
O 	O 	0.79779 0.51100 0.07384 -0.34500
O 	O 	0.71560 0.28236 0.13903 -0.36900
O 	O 	0.57610 0.37826 0.13430 -0.36100
O 	O 	0.52835 0.22694 0.12974 -0.37000
O 	O 	0.81797 0.35056 0.07463 -0.35500
O 	O 	0.70289 0.53975 0.10764 -0.34900
O 	O 	0.81093 0.51164 0.12433 -0.37200
O 	O 	0.73149 0.21323 0.09441 -0.36100
O 	O 	0.54053 0.18658 0.08490 -0.33500
O 	O 	0.85668 0.37117 0.12133 -0.36500
O 	O 	0.67893 0.35312 0.09825 -0.72300
H 	H 	0.66961 0.33399 0.08213 0.16700
C 	C 	0.87798 0.84986 0.18800 0.33300
C 	C 	0.87567 0.81019 0.24570 0.32200
C 	C 	0.94228 0.14211 0.19964 0.29700
C 	C 	0.95030 0.10259 0.26570 0.30300
Ni	Ni	0.87860 0.97247 0.22561 1.11700
O 	O 	0.89144 0.05245 0.19885 -0.36600
O 	O 	0.96784 0.90296 0.18673 -0.38400
O 	O 	0.82878 0.86389 0.20345 -0.35900
O 	O 	0.88531 0.06442 0.24948 -0.35000
O 	O 	0.95178 0.82136 0.23433 -0.34300
O 	O 	0.85971 0.87880 0.24944 -0.34900
C 	C 	0.50041 0.14651 0.34849 0.31200
C 	C 	0.86988 0.44896 0.33844 0.34700
C 	C 	0.58239 0.40020 0.35715 0.35200
C 	C 	0.79288 0.21287 0.32625 0.32300
C 	C 	0.69279 0.46893 0.28985 0.33600
C 	C 	0.56984 0.21251 0.27308 0.33200
Ni	Ni	0.69342 0.30312 0.35249 1.13700
Ni	Ni	0.75361 0.33562 0.29891 1.12800
Ni	Ni	0.55257 0.30154 0.31428 1.13200
O 	O 	0.58334 0.17471 0.35777 -0.34000
O 	O 	0.76460 0.45673 0.29298 -0.36300
O 	O 	0.79070 0.43602 0.34591 -0.34500
O 	O 	0.87039 0.40608 0.31957 -0.34300
O 	O 	0.51986 0.20212 0.29160 -0.36400
O 	O 	0.60673 0.34643 0.36760 -0.32900
O 	O 	0.58928 0.40906 0.33509 -0.36200
O 	O 	0.66208 0.27285 0.27204 -0.34500
O 	O 	0.78804 0.25462 0.34526 -0.32300
O 	O 	0.76149 0.22357 0.30633 -0.36300
O 	O 	0.60642 0.39802 0.28918 -0.34600
O 	O 	0.65815 0.29136 0.32171 -0.72200
H 	H 	0.63184 0.22520 0.31954 0.17800
C 	C 	0.74944 0.86737 0.00383 0.33400
C 	C 	0.85953 0.72126 0.99740 0.32900
C 	C 	0.95145 0.06142 0.03830 0.31600
Ni	Ni	0.90302 0.90089 0.97284 1.11400
Ni	Ni	0.91644 0.87832 0.02818 1.12400
O 	O 	0.90928 0.97659 0.04515 -0.36900
O 	O 	0.80694 0.92504 0.98882 -0.37000
O 	O 	0.77882 0.82670 0.01834 -0.34100
O 	O 	0.83093 0.76136 0.98231 -0.34900
O 	O 	0.91061 0.76552 0.01535 -0.37100
O 	O 	0.97412 0.93682 0.00003 -0.75300
C 	C 	0.51694 0.17150 0.25197 -0.09800
C 	C 	0.49032 0.22452 0.23931 0.11000
Br	Br	0.58501 0.33688 0.22603 -0.15200
Br	Br	0.50462 0.99573 0.25423 -0.15400
C 	C 	0.79173 0.63732 0.29386 0.10900
C 	C 	0.71273 0.56267 0.28392 -0.09200
C 	C 	0.67453 0.57804 0.26407 0.10900
C 	C 	0.72845 0.65846 0.25117 0.09900
C 	C 	0.81900 0.72465 0.25880 -0.09100
C 	C 	0.84852 0.71562 0.28074 0.11000
Br	Br	0.96637 0.81010 0.29278 -0.14300
Br	Br	0.81925 0.63296 0.32561 -0.12900
Br	Br	0.67607 0.67926 0.22397 -0.17100
Br	Br	0.54345 0.50123 0.25763 -0.12100
C 	C 	0.84927 0.05674 0.30101 0.11200
C 	C 	0.92434 0.12490 0.28806 -0.08400
C 	C 	0.97588 0.21464 0.29720 0.09200
C 	C 	0.94700 0.23408 0.31793 0.09400
C 	C 	0.85620 0.17556 0.32563 -0.09100
C 	C 	0.81710 0.08287 0.32035 0.11700
Br	Br	0.71929 0.99400 0.33923 -0.13900
Br	Br	0.79426 0.92958 0.29322 -0.15200
C 	C 	0.87302 0.58678 0.00597 0.11200
C 	C 	0.81776 0.62149 0.99738 -0.10300
C 	C 	0.72077 0.56788 0.00025 0.11400
C 	C 	0.68573 0.50643 0.01882 0.10300
C 	C 	0.75029 0.50013 0.03375 -0.08400
C 	C 	0.84201 0.53021 0.02537 0.10200
Br	Br	0.92041 0.48773 0.03840 -0.15000
Br	Br	0.55398 0.41871 0.02046 -0.12000
Br	Br	0.63868 0.57048 0.97733 -0.15000
C 	C 	0.97085 0.21400 0.05151 0.09200
C 	C 	0.91186 0.12019 0.04568 -0.08100
C 	C 	0.81304 0.08135 0.04853 0.11400
C 	C 	0.77716 0.13867 0.05352 0.11100
C 	C 	0.83452 0.22237 0.06408 -0.09600
C 	C 	0.93249 0.26015 0.06339 0.10000
Br	Br	0.64755 0.09946 0.04749 -0.11800
Br	Br	0.73000 0.95221 0.05319 -0.16400
C 	C 	0.91760 0.19673 0.18444 -0.08600
C 	C 	0.86417 0.23419 0.19288 -0.05200
C 	C 	0.83107 0.27720 0.17804 0.17500
C 	C 	0.85161 0.28317 0.15452 -0.09400
C 	C 	0.90857 0.24922 0.14628 -0.05000
C 	C 	0.94065 0.20524 0.16109 0.17300
H 	H 	0.84620 0.22792 0.21086 0.08200
O 	O 	0.77628 0.31070 0.18645 -0.25500
H 	H 	0.92501 0.25369 0.12824 0.08600
H 	H 	0.82059 0.37514 0.19064 0.16200
O 	O 	0.51066 0.17540 0.17906 -0.25900
H 	H 	0.50010 0.12614 0.16815 0.16700
C 	C 	0.78596 0.62928 0.14077 -0.09000
C 	C 	0.82310 0.62479 0.16199 -0.05300
C 	C 	0.84782 0.69406 0.17817 0.18400
C 	C 	0.83336 0.76797 0.17350 -0.10000
C 	C 	0.79157 0.77031 0.15285 -0.04200
C 	C 	0.76944 0.70242 0.13629 0.17100
H 	H 	0.83460 0.56827 0.16584 0.08200
O 	O 	0.89212 0.69264 0.19787 -0.29000
H 	H 	0.78080 0.82735 0.14911 0.07400
O 	O 	0.73332 0.70861 0.11567 -0.25600
H 	H 	0.78847 0.74496 0.10576 0.16200
H 	H 	0.84124 0.65377 0.20863 0.17800
C 	C 	0.58338 0.74018 0.00189 0.11200
C 	C 	0.64824 0.83449 0.00087 -0.09000
C 	C 	0.62180 0.89092 0.98903 0.10000
C 	C 	0.55092 0.85213 0.97245 0.11000
C 	C 	0.50819 0.75757 0.96794 -0.08800
C 	C 	0.51243 0.70082 0.98511 0.11000
Br	Br	0.58240 0.67004 0.02793 -0.12700
Br	Br	0.50705 0.92605 0.95776 -0.16300
Br	Br	0.69102 0.02153 0.99321 -0.11100
Br	Br	0.94745 0.26175 0.98794 -0.15600
C 	C 	0.80221 0.87457 0.83910 -0.07900
C 	C 	0.76095 0.78072 0.84409 -0.05100
C 	C 	0.68332 0.73860 0.85868 0.18700
C 	C 	0.64900 0.79108 0.86921 -0.09700
C 	C 	0.69689 0.88628 0.86629 -0.04000
C 	C 	0.77371 0.92826 0.85151 0.16500
H 	H 	0.78470 0.73910 0.83547 0.08600
O 	O 	0.63958 0.64587 0.86208 -0.26900
H 	H 	0.67294 0.92758 0.87502 0.07100
O 	O 	0.81829 0.02123 0.84852 -0.25900
H 	H 	0.87055 0.04655 0.85967 0.17400
H 	H 	0.59158 0.61886 0.84986 0.17900
C 	C 	0.57595 0.92866 0.74462 0.10100
C 	C 	0.51093 0.83480 0.74561 -0.09500
C 	C 	0.52997 0.78022 0.76015 0.10300
C 	C 	0.62221 0.81259 0.76824 0.10700
C 	C 	0.69594 0.89957 0.76088 -0.08900
C 	C 	0.67023 0.96142 0.75114 0.09700
Br	Br	0.75748 0.09114 0.74960 -0.14500
Br	Br	0.53264 0.01175 0.73653 -0.11700
Br	Br	0.64197 0.74628 0.79238 -0.17600
Br	Br	0.97386 0.68230 0.67008 -0.16300
C 	C 	0.56832 0.57702 0.39388 0.11200
C 	C 	0.54338 0.44831 0.37002 -0.09900
C 	C 	0.60203 0.52259 0.38418 0.11000
Br	Br	0.72923 0.55115 0.38984 -0.13500
Br	Br	0.64925 0.67992 0.41288 -0.18000
C 	C 	0.93031 0.43947 0.37750 0.10000
C 	C 	0.94728 0.47835 0.35514 -0.11300
Br	Br	0.80548 0.36306 0.38930 -0.25500
Br	Br	0.49644 0.99016 0.31582 -0.14100
C 	C 	0.51099 0.45728 0.60683 -0.09800
C 	C 	0.56178 0.52294 0.62363 0.10800
C 	C 	0.53023 0.58143 0.63151 0.11200
Br	Br	0.61181 0.68576 0.65002 -0.17300
Br	Br	0.67483 0.53211 0.63596 -0.12600
C 	C 	0.88503 0.45768 0.62159 -0.09400
C 	C 	0.88183 0.40359 0.64039 0.11600
C 	C 	0.95338 0.44098 0.65704 0.09300
Br	Br	0.95776 0.63075 0.59778 -0.17500
Br	Br	0.94006 0.37691 0.68526 -0.13300
Br	Br	0.78827 0.27659 0.64182 -0.13600
C 	C 	0.55378 0.93666 0.61228 0.11200
C 	C 	0.54894 0.94103 0.63612 -0.10000
C 	C 	0.56456 0.02349 0.64580 0.11900
C 	C 	0.55199 0.08616 0.63247 0.10900
C 	C 	0.54321 0.07554 0.60856 -0.08200
C 	C 	0.54011 0.99777 0.59857 0.08900
Br	Br	0.50224 0.96691 0.56727 -0.16800
Br	Br	0.56323 0.83775 0.59863 -0.14300
Br	Br	0.54130 0.18342 0.64687 -0.10600
C 	C 	0.56294 0.48258 0.51188 -0.08100
C 	C 	0.60458 0.57840 0.51093 -0.04700
C 	C 	0.57023 0.61958 0.49585 0.17800
C 	C 	0.49319 0.56487 0.48171 -0.08100
C 	C 	0.48841 0.42823 0.49703 0.17800
H 	H 	0.66180 0.62091 0.52234 0.08200
O 	O 	0.60873 0.71281 0.49592 -0.26600
H 	H 	0.65994 0.73569 0.48450 0.17000
C 	C 	0.54187 0.08865 0.51334 -0.07900
C 	C 	0.57163 0.00776 0.48315 -0.01400
C 	C 	0.60519 0.07751 0.49950 0.17000
H 	H 	0.62088 0.99980 0.47248 0.06900
O 	O 	0.69987 0.13402 0.50210 -0.26500
H 	H 	0.71651 0.18606 0.49161 0.16300
C 	C 	0.94231 0.47639 0.52087 -0.11600
C 	C 	0.95403 0.55045 0.50746 0.16600
O 	O 	0.89074 0.58073 0.50878 -0.27200
