data_crystal

_cell_length_a 19.39721
_cell_length_b 16.67383
_cell_length_c 34.68755
_cell_angle_alpha 88.27211
_cell_angle_beta  88.43012
_cell_angle_gamma 107.43231

_symmetry_space_group_name_	'P 1'
_symmetry_space_group_name_H-M	'P 1'

loop_
_symmetry_equiv_pos_as_xyz
  x,y,z

loop_
_atom_site_label
_atom_site_type_symbol
_atom_site_fract_x
_atom_site_fract_y
_atom_site_fract_z
_atom_site_charge
Zn	Zn	0.57124 0.33937 0.89275 1.22000
Zn	Zn	0.70708 0.50422 0.91941 1.19300
C 	C 	0.75897 0.21428 0.84181 0.28700
Zn	Zn	0.73827 0.36269 0.87702 1.21700
Zn	Zn	0.60127 0.19991 0.84605 1.19000
H 	H 	0.67786 0.34927 0.94413 0.16900
C 	C 	0.74709 0.51693 0.83485 0.29400
O 	O 	0.49423 0.16765 0.84772 -0.46900
O 	O 	0.47986 0.29661 0.85805 -0.40200
O 	O 	0.67270 0.37814 0.91951 -0.78100
O 	O 	0.62099 0.54021 0.92598 -0.46200
O 	O 	0.52955 0.24497 0.93049 -0.44100
O 	O 	0.53246 0.43418 0.90173 -0.42600
O 	O 	0.59737 0.16403 0.90792 -0.41100
O 	O 	0.81187 0.54137 0.90958 -0.47100
H 	H 	0.63233 0.35460 0.82705 0.17100
O 	O 	0.83327 0.41472 0.90954 -0.39600
O 	O 	0.63687 0.32368 0.85119 -0.79100
O 	O 	0.69203 0.16622 0.83759 -0.45100
O 	O 	0.77537 0.45455 0.83693 -0.43800
O 	O 	0.77396 0.26429 0.87110 -0.43600
O 	O 	0.69246 0.51495 0.85820 -0.42800
C 	C 	0.45755 0.22191 0.84341 0.29400
C 	C 	0.55568 0.48759 0.92908 0.27500
C 	C 	0.54867 0.17568 0.93284 0.27700
C 	C 	0.85193 0.49393 0.91927 0.27200
Zn	Zn	0.65619 0.40195 0.55842 1.21900
Zn	Zn	0.53640 0.27426 0.50681 1.19900
C 	C 	0.69690 0.14530 0.61758 0.29200
Zn	Zn	0.58520 0.20678 0.58086 1.22100
Zn	Zn	0.74605 0.33218 0.60782 1.18900
H 	H 	0.65635 0.25737 0.51921 0.17800
C 	C 	0.45156 0.25234 0.58618 0.29000
O 	O 	0.80187 0.45335 0.60674 -0.47000
O 	O 	0.71262 0.51170 0.58967 -0.39100
O 	O 	0.62180 0.27749 0.53477 -0.79200
O 	O 	0.57938 0.38997 0.48687 -0.48400
O 	O 	0.73944 0.43413 0.52233 -0.43700
O 	O 	0.58455 0.46049 0.54132 -0.41900
O 	O 	0.78108 0.33152 0.54718 -0.41300
O 	O 	0.46238 0.16793 0.51544 -0.47700
H 	H 	0.62127 0.34384 0.62618 0.16900
O 	O 	0.52894 0.09771 0.54772 -0.39200
O 	O 	0.64301 0.32460 0.60345 -0.79200
O 	O 	0.74502 0.21420 0.60370 -0.47200
O 	O 	0.49215 0.21184 0.60298 -0.44100
O 	O 	0.62786 0.12946 0.61005 -0.43500
O 	O 	0.47882 0.30782 0.55720 -0.40700
C 	C 	0.77732 0.51898 0.60359 0.28800
C 	C 	0.56380 0.44873 0.50552 0.29200
C 	C 	0.78585 0.39173 0.52106 0.28600
C 	C 	0.47646 0.09792 0.52408 0.28100
Zn	Zn	0.95879 0.91691 0.70994 1.22500
Zn	Zn	0.06340 0.96972 0.78352 1.19100
C 	C 	0.15602 0.11998 0.63461 0.27900
Zn	Zn	0.08075 0.08657 0.71113 1.22000
Zn	Zn	0.00296 0.00189 0.62827 1.19000
H 	H 	0.10477 0.94499 0.71499 0.17400
C 	C 	0.97966 0.10384 0.77306 0.29300
O 	O 	0.90285 0.93085 0.61986 -0.45400
O 	O 	0.85743 0.88592 0.68126 -0.38400
O 	O 	0.06768 0.96781 0.72654 -0.79600
O 	O 	0.98906 0.85991 0.79716 -0.46500
O 	O 	0.98066 0.82072 0.68943 -0.45200
O 	O 	0.90303 0.88410 0.75859 -0.44300
O 	O 	0.02037 0.87698 0.63001 -0.40800
O 	O 	0.13007 0.07719 0.79921 -0.46500
H 	H 	0.94991 0.05435 0.68666 0.17100
O 	O 	0.17970 0.13220 0.74026 -0.40500
O 	O 	0.98761 0.02588 0.68331 -0.79300
O 	O 	0.11362 0.05014 0.62006 -0.44500
O 	O 	0.02827 0.14491 0.74615 -0.43700
O 	O 	0.13454 0.15287 0.66517 -0.44400
C 	C 	0.85105 0.91930 0.64688 0.28300
C 	C 	0.92284 0.83711 0.78452 0.31100
C 	C 	0.98108 0.81353 0.65231 0.30700
C 	C 	0.18602 0.12011 0.77742 0.29600
Zn	Zn	0.31879 0.67971 0.38981 1.22300
Zn	Zn	0.18609 0.52863 0.43327 1.19600
C 	C 	0.13370 0.80071 0.33650 0.29200
Zn	Zn	0.15429 0.64799 0.37456 1.22100
Zn	Zn	0.29115 0.82032 0.34378 1.18900
H 	H 	0.20686 0.68643 0.43959 0.17700
C 	C 	0.16716 0.48873 0.34775 0.28800
O 	O 	0.39882 0.85609 0.34401 -0.47000
O 	O 	0.41595 0.72679 0.35412 -0.39700
O 	O 	0.21523 0.65053 0.41885 -0.79000
O 	O 	0.27593 0.51736 0.45379 -0.47300
O 	O 	0.36040 0.76735 0.42553 -0.44700
O 	O 	0.34811 0.58013 0.40171 -0.44100
O 	O 	0.28776 0.84359 0.40570 -0.41800
O 	O 	0.08489 0.47454 0.42240 -0.47300
H 	H 	0.26752 0.66933 0.32419 0.16900
O 	O 	0.05527 0.59333 0.40854 -0.39900
O 	O 	0.25810 0.69621 0.34802 -0.79800
O 	O 	0.19933 0.85171 0.34124 -0.45900
O 	O 	0.13386 0.54663 0.34354 -0.44100
O 	O 	0.10744 0.73255 0.35894 -0.43900
O 	O 	0.21239 0.49304 0.37593 -0.41500
C 	C 	0.43969 0.80582 0.34094 0.28900
C 	C 	0.34058 0.54844 0.43735 0.29100
C 	C 	0.33515 0.83092 0.42986 0.28100
C 	C 	0.03758 0.51606 0.42346 0.27700
Zn	Zn	0.20050 0.73116 0.06211 1.22100
Zn	Zn	0.32002 0.85249 0.12043 1.19400
C 	C 	0.37082 0.57594 0.03749 0.27800
Zn	Zn	0.36451 0.73541 0.06880 1.22100
Zn	Zn	0.24788 0.61286 0.00672 1.19900
H 	H 	0.27310 0.69266 0.12367 0.17200
C 	C 	0.39861 0.90921 0.04018 0.27500
O 	O 	0.17635 0.63324 0.97337 -0.47100
O 	O 	0.12374 0.70386 0.01566 -0.39100
O 	O 	0.28337 0.73691 0.10279 -0.78900
O 	O 	0.22713 0.87490 0.12574 -0.48900
O 	O 	0.13882 0.62939 0.09038 -0.44400
O 	O 	0.17380 0.83904 0.06808 -0.42800
O 	O 	0.15587 0.54024 0.04446 -0.40600
O 	O 	0.42500 0.88878 0.12692 -0.47900
H 	H 	0.29237 0.76719 0.00913 0.16500
O 	O 	0.44033 0.76234 0.11348 -0.41300
O 	O 	0.28099 0.72224 0.02972 -0.80000
O 	O 	0.30029 0.54809 0.03599 -0.46400
O 	O 	0.42046 0.84162 0.04187 -0.44600
O 	O 	0.40128 0.63891 0.05945 -0.43500
O 	O 	0.34228 0.91264 0.06192 -0.42100
C 	C 	0.11891 0.65093 0.98715 0.29100
C 	C 	0.19057 0.89088 0.09698 0.31300
C 	C 	0.12773 0.55302 0.07786 0.30300
C 	C 	0.46568 0.83878 0.12593 0.30300
Zn	Zn	0.97922 0.14412 0.20805 1.22500
Zn	Zn	0.86811 0.08476 0.29156 1.19600
C 	C 	0.76121 0.97486 0.14937 0.27700
Zn	Zn	0.84732 0.98513 0.21642 1.22200
Zn	Zn	0.91292 0.08467 0.12930 1.19600
H 	H 	0.83943 0.12987 0.22490 0.16600
C 	C 	0.92353 0.93048 0.27469 0.28900
O 	O 	0.01206 0.15245 0.11298 -0.45300
O 	O 	0.07320 0.17008 0.16912 -0.38000
O 	O 	0.87358 0.10086 0.23460 -0.78800
O 	O 	0.97034 0.13203 0.30773 -0.44500
O 	O 	0.04134 0.15194 0.25231 -0.44000
O 	O 	0.89745 0.20638 0.14286 -0.40700
O 	O 	0.76411 0.02633 0.30179 -0.45400
H 	H 	0.96851 0.00967 0.17818 0.17900
O 	O 	0.75432 0.92784 0.25528 -0.39000
O 	O 	0.93515 0.04419 0.18048 -0.79600
O 	O 	0.80315 0.04191 0.12967 -0.44200
O 	O 	0.90170 0.91644 0.23950 -0.44600
O 	O 	0.78776 0.93275 0.17447 -0.45400
O 	O 	0.88754 0.96299 0.29910 -0.40500
C 	C 	0.06648 0.14457 0.13308 0.27600
C 	C 	0.02371 0.17956 0.28523 0.27700
C 	C 	0.94620 0.26676 0.15945 0.30200
C 	C 	0.72597 0.95926 0.28413 0.28700
C 	C 	0.99840 0.35607 0.09238 -0.00700
C 	C 	0.08132 0.38964 0.09622 -0.01100
H 	H 	0.12204 0.37138 0.07825 0.03800
C 	C 	0.99343 0.44692 0.09543 -0.01100
C 	C 	0.07591 0.47946 0.09959 -0.07300
C 	C 	0.98915 0.34425 0.13656 -0.06900
C 	C 	0.98354 0.43392 0.14003 -0.01000
H 	H 	0.94272 0.45159 0.15815 0.02800
C 	C 	0.06670 0.46758 0.14372 -0.01300
H 	H 	0.09519 0.51368 0.16481 0.02700
C 	C 	0.07177 0.37726 0.14051 -0.01400
H 	H 	0.10440 0.34847 0.15911 0.04100
C 	C 	0.58917 0.83655 0.15823 -0.00800
H 	H 	0.56820 0.77743 0.17615 0.03000
C 	C 	0.62469 0.92487 0.17373 -0.01700
H 	H 	0.63442 0.93942 0.20450 0.02700
C 	C 	0.64880 0.85374 0.12580 -0.01100
H 	H 	0.67855 0.80943 0.11694 0.02900
C 	C 	0.68338 0.94172 0.14121 -0.06900
C 	C 	0.54425 0.87466 0.13169 -0.07300
C 	C 	0.60275 0.89152 0.09912 -0.01000
H 	H 	0.59265 0.87695 0.06838 0.02800
C 	C 	0.63851 0.98002 0.11467 -0.02400
H 	H 	0.65938 0.03922 0.09679 0.03800
C 	C 	0.57882 0.96271 0.14711 -0.02100
H 	H 	0.54930 0.00720 0.15605 0.03700
C 	C 	0.14548 0.04096 0.14781 -0.00900
H 	H 	0.15978 0.05915 0.17777 0.03100
C 	C 	0.20013 0.04668 0.11380 -0.00700
H 	H 	0.25993 0.06907 0.11546 0.02200
C 	C 	0.10109 0.95246 0.13588 -0.02000
H 	H 	0.07843 0.89685 0.15585 0.02400
C 	C 	0.15544 0.95839 0.10195 -0.07900
C 	C 	0.10105 0.07972 0.12120 -0.08200
C 	C 	0.05621 0.99158 0.10922 -0.03000
H 	H 	0.99643 0.96916 0.10754 -0.01700
C 	C 	0.11104 0.99686 0.07511 -0.01500
H 	H 	0.09688 0.97803 0.04522 0.02700
C 	C 	0.15517 0.08617 0.08714 -0.00700
H 	H 	0.17759 0.14213 0.06735 0.02800
C 	C 	0.58871 0.95530 0.29734 -0.03100
H 	H 	0.59356 0.01902 0.28495 0.03200
C 	C 	0.56694 0.92507 0.33977 -0.00700
H 	H 	0.55343 0.96388 0.36252 0.02400
C 	C 	0.53740 0.87189 0.28340 -0.01400
H 	H 	0.49929 0.86634 0.25962 0.01400
C 	C 	0.51635 0.84200 0.32573 -0.07100
C 	C 	0.65016 0.91478 0.29876 -0.06200
C 	C 	0.59979 0.83165 0.28459 -0.01500
H 	H 	0.61369 0.79355 0.26162 0.03700
C 	C 	0.57770 0.80117 0.32715 -0.00900
H 	H 	0.57276 0.73744 0.33957 0.03500
C 	C 	0.62915 0.88482 0.34105 -0.01600
H 	H 	0.66740 0.89052 0.36477 0.03000
C 	C 	0.06807 0.34178 0.34733 -0.01500
H 	H 	0.03914 0.34791 0.37460 0.03500
C 	C 	0.10240 0.27114 0.33945 -0.00900
H 	H 	0.10196 0.21868 0.36005 0.03000
C 	C 	0.03439 0.33142 0.30734 -0.02100
H 	H 	0.97777 0.32877 0.30146 0.01600
C 	C 	0.06888 0.26133 0.29956 -0.07600
C 	C 	0.13607 0.40670 0.32919 -0.06400
C 	C 	0.10265 0.39694 0.28922 -0.01200
H 	H 	0.10288 0.44930 0.26862 0.02900
C 	C 	0.13689 0.32581 0.28113 -0.01300
H 	H 	0.16473 0.31839 0.25368 0.03400
C 	C 	0.17108 0.33697 0.32143 -0.01400
H 	H 	0.22772 0.34004 0.32743 0.03300
C 	C 	0.09548 0.90987 0.28816 -0.01000
H 	H 	0.14952 0.94586 0.27554 0.01900
C 	C 	0.04444 0.94715 0.31191 -0.03100
H 	H 	0.05561 0.01444 0.31861 0.05100
C 	C 	0.03046 0.85857 0.26520 -0.02200
H 	H 	0.03000 0.85278 0.23339 0.02800
C 	C 	0.98021 0.89525 0.28927 -0.06000
C 	C 	0.08030 0.83642 0.31819 -0.07400
H 	H 	0.00513 0.71723 0.28885 0.02800
C 	C 	0.96527 0.82186 0.31924 -0.00500
H 	H 	0.91122 0.78590 0.33187 0.03700
C 	C 	0.44919 0.93803 0.51649 -0.06100
C 	C 	0.43987 0.02235 0.50122 -0.04300
C 	C 	0.43173 0.96737 0.43300 -0.06800
C 	C 	0.37228 0.89909 0.45653 -0.03500
C 	C 	0.40920 0.86545 0.49034 -0.05700
H 	H 	0.50760 0.94261 0.51674 0.04200
H 	H 	0.42703 0.92393 0.54670 0.04000
H 	H 	0.40760 0.99352 0.40872 0.03500
H 	H 	0.47172 0.93900 0.42012 0.04400
H 	H 	0.44891 0.83523 0.47866 0.04600
H 	H 	0.36784 0.81645 0.50806 0.03300
C 	C 	0.31793 0.94033 0.47456 -0.07100
H 	H 	0.27465 0.89224 0.49163 0.03500
H 	H 	0.29122 0.96672 0.45150 0.04400
C 	C 	0.35712 0.01161 0.50091 -0.03400
H 	H 	0.34725 0.07088 0.49050 0.04100
H 	H 	0.33304 0.99743 0.53076 0.02700
C 	C 	0.47100 0.03921 0.45896 -0.04500
H 	H 	0.46521 0.09944 0.44693 0.01600
H 	H 	0.52987 0.04574 0.45822 0.02400
C 	C 	0.95843 0.38815 0.46182 -0.04700
C 	C 	0.96939 0.48160 0.44852 -0.04600
C 	C 	0.83209 0.44882 0.45346 -0.05800
C 	C 	0.85179 0.42227 0.49418 -0.03700
C 	C 	0.89043 0.35403 0.48888 -0.06000
H 	H 	0.95303 0.34829 0.43623 0.03700
H 	H 	0.00635 0.38273 0.47741 0.02300
H 	H 	0.80362 0.49743 0.45589 0.04900
H 	H 	0.79446 0.39369 0.43998 0.03200
H 	H 	0.85288 0.29714 0.47660 0.03500
H 	H 	0.90683 0.33441 0.51729 0.04100
C 	C 	0.90563 0.50026 0.51127 -0.06100
H 	H 	0.92046 0.48404 0.54065 0.03900
H 	H 	0.87921 0.55065 0.51405 0.04700
C 	C 	0.97480 0.53397 0.48512 -0.04900
H 	H 	0.02262 0.53139 0.50158 0.01100
C 	C 	0.90116 0.48477 0.42694 -0.05500
H 	H 	0.90607 0.55077 0.41761 0.04800
H 	H 	0.89614 0.44775 0.40043 0.03600
C 	C 	0.47525 0.56495 0.43306 -0.05700
C 	C 	0.40200 0.52675 0.45573 -0.04200
C 	C 	0.44291 0.40309 0.47747 -0.06000
C 	C 	0.50526 0.48086 0.48967 -0.04600
C 	C 	0.53569 0.53791 0.45298 -0.05500
H 	H 	0.47119 0.54351 0.40289 0.05000
H 	H 	0.48954 0.63484 0.43155 0.04200
H 	H 	0.41848 0.36212 0.50320 0.02700
H 	H 	0.46330 0.36394 0.45729 0.00700
H 	H 	0.56022 0.50392 0.43208 0.04200
H 	H 	0.57932 0.59483 0.46089 0.03900
C 	C 	0.47249 0.53117 0.51783 -0.05300
H 	H 	0.51518 0.58797 0.52666 0.04400
H 	H 	0.45005 0.49195 0.54442 0.04800
C 	C 	0.41137 0.55791 0.49788 -0.05800
H 	H 	0.35995 0.53154 0.51523 0.03800
H 	H 	0.42441 0.62766 0.49751 0.03300
C 	C 	0.38373 0.42993 0.45731 -0.05200
H 	H 	0.33119 0.40021 0.47328 0.04000
H 	H 	0.37810 0.40599 0.42755 0.03900
C 	C 	0.77380 0.04927 0.59894 -0.00500
H 	H 	0.78356 0.07263 0.56834 0.03100
C 	C 	0.74084 0.95628 0.61252 -0.01300
H 	H 	0.72393 0.90214 0.59341 0.03000
C 	C 	0.83224 0.06141 0.62910 -0.00900
H 	H 	0.89065 0.09467 0.62347 -0.01800
C 	C 	0.79936 0.96875 0.64264 -0.08800
C 	C 	0.72493 0.07465 0.62883 -0.06600
C 	C 	0.78331 0.08647 0.65906 -0.01900
H 	H 	0.80082 0.14048 0.67823 0.01200
C 	C 	0.75051 0.99321 0.67288 -0.01900
H 	H 	0.74161 0.96956 0.70344 0.02900
C 	C 	0.69095 0.98211 0.64247 -0.01700
H 	H 	0.63228 0.95030 0.64789 0.03100
C 	C 	0.33009 0.12878 0.59961 -0.01100
H 	H 	0.35345 0.07728 0.59311 0.03700
C 	C 	0.26531 0.14527 0.57926 -0.01500
H 	H 	0.23518 0.10729 0.55592 0.02900
C 	C 	0.29724 0.14106 0.63928 -0.01200
H 	H 	0.29324 0.09970 0.66547 0.02800
C 	C 	0.23307 0.15774 0.61892 -0.06500
C 	C 	0.37125 0.22385 0.59630 -0.06200
C 	C 	0.33874 0.23610 0.63590 -0.01100
H 	H 	0.36890 0.27376 0.65931 0.02900
C 	C 	0.27387 0.25283 0.61559 -0.01500
H 	H 	0.25037 0.30411 0.62228 0.03000
C 	C 	0.30731 0.24076 0.57571 -0.01600
H 	H 	0.31151 0.28227 0.54957 0.02700
C 	C 	0.89026 0.73210 0.59653 -0.00700
H 	H 	0.90203 0.78181 0.57315 0.03300
C 	C 	0.81506 0.68989 0.61702 -0.00900
H 	H 	0.76438 0.70495 0.61079 0.03800
C 	C 	0.90159 0.64430 0.59305 -0.01400
H 	H 	0.92426 0.62342 0.56700 0.02800
C 	C 	0.82716 0.60328 0.61364 -0.06600
C 	C 	0.92618 0.73995 0.63580 -0.07200
C 	C 	0.93774 0.65333 0.63251 -0.01000
H 	H 	0.98833 0.63812 0.63881 0.02700
C 	C 	0.86325 0.61202 0.65297 -0.01600
H 	H 	0.85189 0.56277 0.67655 0.02200
C 	C 	0.85170 0.69909 0.65649 -0.01100
H 	H 	0.83096 0.72048 0.68320 0.04000
C 	C 	0.91149 0.58942 0.97117 -0.06000
C 	C 	0.92299 0.53377 0.93772 -0.04100
C 	C 	0.05007 0.63553 0.92620 -0.05900
C 	C 	0.04697 0.60986 0.96978 -0.04300
H 	H 	0.88736 0.63805 0.96021 0.03100
H 	H 	0.87287 0.54992 0.99355 0.02100
H 	H 	0.09459 0.61858 0.91085 0.03900
H 	H 	0.06181 0.70494 0.92250 0.03300
H 	H 	0.99418 0.70337 0.98737 0.04400
C 	C 	0.02921 0.51233 0.97368 -0.05800
H 	H 	0.02555 0.49178 0.00470 0.03900
H 	H 	0.07326 0.49199 0.95976 0.03700
C 	C 	0.95695 0.46784 0.95476 -0.05300
H 	H 	0.96708 0.42750 0.93160 0.04800
H 	H 	0.91893 0.42586 0.97667 0.03700
H 	H 	0.95504 0.63945 0.89498 0.04300
C 	C 	0.45960 0.13562 0.99090 -0.04900
C 	C 	0.50888 0.10547 0.96194 -0.03600
C 	C 	0.52118 0.00176 0.01510 -0.04100
C 	C 	0.43766 0.98170 0.01212 -0.05400
C 	C 	0.41825 0.06365 0.02008 -0.05300
H 	H 	0.49295 0.18954 0.00697 0.03300
H 	H 	0.41960 0.15832 0.97491 0.04600
H 	H 	0.53782 0.94478 0.00931 0.03500
H 	H 	0.53716 0.02001 0.04493 0.03900
H 	H 	0.43217 0.08305 0.05001 0.03800
H 	H 	0.35902 0.05252 0.01774 0.04500
C 	C 	0.41818 0.95784 0.96998 -0.05900
H 	H 	0.35893 0.94447 0.96665 0.02800
H 	H 	0.43171 0.89934 0.96319 0.03100
C 	C 	0.45969 0.02978 0.94078 -0.05200
H 	H 	0.49291 0.00536 0.92022 0.03900
H 	H 	0.42020 0.05064 0.92348 0.04200
C 	C 	0.56253 0.07370 0.98589 -0.05400
H 	H 	0.59822 0.05039 0.96639 0.04600
H 	H 	0.59807 0.12648 0.00175 0.03000
C 	C 	0.42893 0.43689 0.96153 -0.06500
C 	C 	0.50291 0.50684 0.95720 -0.04100
C 	C 	0.43902 0.61485 0.97447 -0.04700
C 	C 	0.41730 0.54841 0.00846 -0.06900
C 	C 	0.37850 0.46141 0.99163 -0.03700
H 	H 	0.40249 0.42751 0.93325 0.04800
H 	H 	0.43719 0.37606 0.97085 0.03800
H 	H 	0.46749 0.67789 0.98538 0.02500
H 	H 	0.38976 0.62031 0.96025 -0.01100
H 	H 	0.32825 0.46361 0.97748 0.01800
H 	H 	0.36232 0.41216 0.01531 0.03400
C 	C 	0.48701 0.54189 0.02744 -0.05200
H 	H 	0.47278 0.49406 0.05178 0.03800
H 	H 	0.51703 0.60300 0.03963 0.04500
C 	C 	0.53685 0.51758 0.99759 -0.05200
H 	H 	0.59018 0.56728 0.99605 0.02700
H 	H 	0.54674 0.45801 0.00756 0.01400
C 	C 	0.48886 0.59046 0.94446 -0.05700
H 	H 	0.54079 0.64221 0.94108 0.04500
H 	H 	0.46344 0.58385 0.91587 0.04100
C 	C 	0.82225 0.16795 0.77950 -0.01900
H 	H 	0.78101 0.16942 0.75813 0.01500
C 	C 	0.84348 0.08895 0.79200 -0.01500
H 	H 	0.82031 0.02530 0.78060 0.04000
C 	C 	0.90344 0.22012 0.77610 -0.01700
H 	H 	0.92974 0.26468 0.75184 0.02700
C 	C 	0.92391 0.14134 0.78889 -0.06400
C 	C 	0.81952 0.19008 0.82222 -0.07000
C 	C 	0.89979 0.24292 0.81909 -0.01300
H 	H 	0.92266 0.30655 0.83052 0.03400
C 	C 	0.92098 0.16367 0.83155 -0.01000
H 	H 	0.96211 0.16202 0.85295 0.03400
C 	C 	0.84024 0.11146 0.83477 -0.00300
H 	H 	0.81405 0.06661 0.85896 0.03600
C 	C 	0.27624 0.20342 0.82993 -0.00800
H 	H 	0.23785 0.22906 0.84606 0.03200
C 	C 	0.34755 0.25639 0.80891 -0.01300
H 	H 	0.36917 0.32609 0.80813 0.03500
C 	C 	0.31543 0.14270 0.84689 -0.01000
H 	H 	0.31080 0.11865 0.87735 0.02900
C 	C 	0.38572 0.19519 0.82566 -0.07200
C 	C 	0.25842 0.14900 0.79445 -0.07700
C 	C 	0.29663 0.08787 0.81118 -0.01600
H 	H 	0.27491 0.01817 0.81192 0.01100
C 	C 	0.36791 0.14078 0.79017 -0.01700
H 	H 	0.40626 0.11512 0.77402 0.01900
C 	C 	0.32875 0.20151 0.77319 -0.01200
H 	H 	0.33362 0.22554 0.74271 0.03300
C 	C 	0.87547 0.62934 0.81742 -0.00800
H 	H 	0.91010 0.58988 0.82578 0.03500
C 	C 	0.87428 0.71184 0.83617 -0.00900
H 	H 	0.90830 0.74230 0.86002 0.02900
C 	C 	0.87544 0.67054 0.77681 -0.01500
H 	H 	0.91076 0.66680 0.75161 0.03100
C 	C 	0.87374 0.75212 0.79584 -0.07800
C 	C 	0.79236 0.60042 0.81857 -0.07000
C 	C 	0.79150 0.64042 0.77815 -0.01300
H 	H 	0.75728 0.61015 0.75433 0.02500
C 	C 	0.79071 0.72359 0.79687 -0.00700
H 	H 	0.75638 0.76335 0.78840 0.03500
C 	C 	0.79086 0.68244 0.83743 -0.01300
H 	H 	0.75590 0.68716 0.86262 0.02300
O 	O 	0.97729 0.02788 0.78575 -0.40700
O 	O 	0.96710 0.25295 0.19377 -0.44700
H 	H 	0.97011 0.30988 0.07129 0.02800
H 	H 	0.96161 0.47651 0.07666 0.02600
C 	C 	0.01616 0.78455 0.29547 -0.01500
C 	C 	0.03001 0.87329 0.34208 -0.00200
H 	H 	0.03041 0.87929 0.37388 0.03200
H 	H 	0.98263 0.60125 0.47688 0.03800
C 	C 	0.98392 0.63401 0.98983 -0.04600
H 	H 	0.97995 0.61573 0.02114 0.03900
C 	C 	0.97768 0.59103 0.90750 -0.05300
H 	H 	0.98765 0.55299 0.88333 0.04000
