data_crystal

_cell_length_a 11.09206
_cell_length_b 17.50183
_cell_length_c 51.74996
_cell_angle_alpha 90.43712
_cell_angle_beta  90.43733
_cell_angle_gamma 119.24327

_symmetry_space_group_name_	'P 1'
_symmetry_space_group_name_H-M	'P 1'

loop_
_symmetry_equiv_pos_as_xyz
  x,y,z

loop_
_atom_site_label
_atom_site_type_symbol
_atom_site_fract_x
_atom_site_fract_y
_atom_site_fract_z
_atom_site_charge
C 	C 	0.76948 0.19866 0.93473 0.30600
C 	C 	0.22985 0.13712 0.93720 0.29600
C 	C 	0.29070 0.00489 0.89057 0.31200
Ni	Ni	0.35800 0.18795 0.88628 1.13000
Ni	Ni	0.47188 0.11709 0.93347 1.12100
O 	O 	0.65797 0.13011 0.92574 -0.37700
O 	O 	0.20411 0.13845 0.91233 -0.36200
O 	O 	0.36944 0.30212 0.89645 -0.37900
O 	O 	0.38008 0.01240 0.90895 -0.35400
O 	O 	0.56346 0.20423 0.96340 -0.38400
O 	O 	0.32021 0.06922 0.87439 -0.36400
O 	O 	0.49592 0.24638 0.85689 -0.33100
O 	O 	0.28596 0.09112 0.94536 -0.39200
O 	O 	0.50849 0.20414 0.90800 -0.70400
H 	H 	0.54603 0.17649 0.89645 0.14300
C 	C 	0.73507 0.20629 0.64796 0.30600
C 	C 	0.20979 0.15614 0.62858 0.29600
C 	C 	0.22086 0.99116 0.67251 0.28300
Ni	Ni	0.43977 0.12605 0.63923 1.12100
Ni	Ni	0.28305 0.17394 0.68395 1.12400
O 	O 	0.38042 0.20867 0.71964 -0.34000
O 	O 	0.27196 0.11316 0.62088 -0.38300
O 	O 	0.55619 0.23056 0.61694 -0.38800
O 	O 	0.22723 0.04813 0.69017 -0.35200
O 	O 	0.30398 0.29421 0.67873 -0.38500
O 	O 	0.32679 0.00965 0.65705 -0.35600
O 	O 	0.61854 0.13248 0.65069 -0.37600
O 	O 	0.16000 0.14466 0.65213 -0.35800
O 	O 	0.45263 0.19595 0.66877 -0.71000
H 	H 	0.47456 0.15964 0.68019 0.14700
C 	C 	0.89218 0.81436 0.74314 0.32700
C 	C 	0.90683 0.80865 0.81967 0.29900
Ni	Ni	0.81529 0.90405 0.78291 1.12800
Ni	Ni	0.69680 0.69775 0.78092 1.12400
O 	O 	0.87128 0.88053 0.74812 -0.35900
O 	O 	0.81306 0.72669 0.81343 -0.36200
O 	O 	0.94624 0.87364 0.80276 -0.34800
O 	O 	0.87307 0.75736 0.76102 -0.36800
C 	C 	0.57807 0.96685 0.45269 0.28100
C 	C 	0.56206 0.67034 0.39468 0.32100
C 	C 	0.40775 0.71655 0.46707 0.30700
C 	C 	0.74767 0.92172 0.38186 0.29800
C 	C 	0.75641 0.71219 0.46567 0.30200
C 	C 	0.98461 0.96624 0.45151 0.28600
Ni	Ni	0.51549 0.81166 0.41785 1.11600
Ni	Ni	0.81139 0.81395 0.41806 1.12200
Ni	Ni	0.70330 0.85728 0.47095 1.12100
O 	O 	0.53980 0.93366 0.42891 -0.35000
O 	O 	0.58979 0.92020 0.47170 -0.37200
O 	O 	0.75725 0.70683 0.44019 -0.37900
O 	O 	0.47305 0.68457 0.40771 -0.36200
O 	O 	0.68492 0.73490 0.38981 -0.36500
O 	O 	0.88834 0.96775 0.46643 -0.36700
O 	O 	0.39157 0.76549 0.44991 -0.37300
O 	O 	0.52835 0.74328 0.47862 -0.38100
O 	O 	0.96871 0.89139 0.44216 -0.37900
O 	O 	0.61761 0.85823 0.38306 -0.34200
O 	O 	0.84995 0.91329 0.39290 -0.35700
O 	O 	0.80221 0.78900 0.47690 -0.38400
O 	O 	0.68485 0.84342 0.43435 -0.71100
H 	H 	0.73117 0.90638 0.43070 0.14600
C 	C 	0.40868 0.58306 0.20317 0.30600
C 	C 	0.75362 0.90136 0.14050 0.31500
C 	C 	0.65526 0.82558 0.22007 0.32100
C 	C 	0.50800 0.67220 0.11700 0.28200
C 	C 	0.41292 0.91112 0.18262 0.33100
C 	C 	0.16522 0.68209 0.15360 0.28600
Ni	Ni	0.62949 0.73293 0.17000 1.12200
Ni	Ni	0.45233 0.81002 0.14056 1.12000
Ni	Ni	0.37276 0.73956 0.19775 1.12500
O 	O 	0.54232 0.63335 0.19776 -0.33400
O 	O 	0.31796 0.61144 0.20040 -0.37300
O 	O 	0.38003 0.88212 0.15867 -0.37700
O 	O 	0.75644 0.82791 0.14387 -0.35900
O 	O 	0.64627 0.90763 0.14801 -0.38900
O 	O 	0.19543 0.71268 0.17791 -0.35500
O 	O 	0.71794 0.82859 0.19848 -0.35100
O 	O 	0.52705 0.76368 0.22365 -0.36000
O 	O 	0.25522 0.71785 0.13462 -0.38000
O 	O 	0.55686 0.65102 0.13770 -0.35800
O 	O 	0.52318 0.75223 0.11466 -0.37700
O 	O 	0.44381 0.86859 0.19970 -0.39100
O 	O 	0.46636 0.74083 0.16729 -0.71800
H 	H 	0.40179 0.68161 0.16068 0.15900
C 	C 	0.40418 0.09585 0.26348 0.28900
C 	C 	0.49567 0.36374 0.34244 0.32700
C 	C 	0.58345 0.12441 0.33036 0.32200
C 	C 	0.36322 0.32636 0.27511 0.29400
Ni	Ni	0.53022 0.25239 0.30074 1.12100
O 	O 	0.52101 0.15696 0.27457 -0.33000
O 	O 	0.29916 0.03957 0.27779 -0.36600
O 	O 	0.57225 0.36396 0.32303 -0.34200
O 	O 	0.38615 0.29181 0.34904 -0.37400
O 	O 	0.61392 0.20718 0.32927 -0.33500
O 	O 	0.47363 0.06369 0.31812 -0.36500
O 	O 	0.46466 0.30725 0.27218 -0.35200
O 	O 	0.31142 0.32478 0.29837 -0.35400
O 	O 	0.34377 0.17727 0.30849 -0.71200
H 	H 	0.30452 0.16982 0.29098 0.14800
C 	C 	0.40192 0.38064 0.22976 -0.03600
C 	C 	0.33775 0.37361 0.25370 -0.06300
C 	C 	0.26779 0.42210 0.25774 0.12700
C 	C 	0.28776 0.48863 0.24057 -0.02600
C 	C 	0.36763 0.50309 0.21835 -0.07300
C 	C 	0.41712 0.44499 0.21215 0.13300
Br	Br	0.50106 0.45016 0.17938 -0.22700
H 	H 	0.44424 0.33801 0.22519 0.08500
H 	H 	0.24156 0.52947 0.24462 0.07800
Br	Br	0.12806 0.39038 0.28357 -0.19400
C 	C 	0.74284 0.95993 0.24714 -0.03500
C 	C 	0.73850 0.87979 0.24195 -0.07600
C 	C 	0.83579 0.86153 0.25369 0.13800
C 	C 	0.93875 0.92377 0.26978 -0.04100
H 	H 	0.67076 0.97543 0.23738 0.07300
H 	H 	0.01459 0.90907 0.27826 0.07200
Br	Br	0.82971 0.75111 0.24790 -0.19500
C 	C 	0.27220 0.01728 0.22378 -0.03100
C 	C 	0.39793 0.07982 0.23516 -0.07200
C 	C 	0.51920 0.11141 0.22040 0.12400
C 	C 	0.52007 0.06273 0.19887 -0.02100
C 	C 	0.39944 0.98603 0.19148 -0.09700
C 	C 	0.27275 0.97086 0.20172 0.12500
Br	Br	0.10118 0.87975 0.18778 -0.22100
H 	H 	0.17532 0.00011 0.23312 0.07500
H 	H 	0.61637 0.08067 0.18916 0.06700
Br	Br	0.67231 0.22697 0.22596 -0.19900
C 	C 	0.22079 0.04168 0.43505 -0.03700
C 	C 	0.10528 0.04772 0.44311 -0.07200
C 	C 	0.08343 0.11230 0.43178 0.12200
C 	C 	0.13221 0.14016 0.40679 -0.03300
H 	H 	0.25347 0.00211 0.44585 0.07100
H 	H 	0.10576 0.18432 0.39684 0.07400
Br	Br	0.02530 0.17838 0.45250 -0.24100
C 	C 	0.47612 0.49859 0.34340 -0.03400
C 	C 	0.52366 0.44611 0.35516 -0.08000
C 	C 	0.56818 0.46215 0.38113 0.12700
C 	C 	0.56821 0.53135 0.39483 -0.03600
C 	C 	0.52098 0.58408 0.38312 -0.08200
C 	C 	0.47218 0.56619 0.35737 0.13300
Br	Br	0.40248 0.63474 0.34081 -0.18700
H 	H 	0.43818 0.48519 0.32361 0.08400
H 	H 	0.61259 0.54722 0.41411 0.06700
Br	Br	0.63131 0.39081 0.39815 -0.19500
C 	C 	0.79684 0.07464 0.37676 -0.02700
C 	C 	0.77841 0.99660 0.36521 -0.07800
C 	C 	0.73969 0.98036 0.33896 0.12300
C 	C 	0.69768 0.03338 0.32598 -0.02300
C 	C 	0.68910 0.10101 0.33923 -0.06600
C 	C 	0.75274 0.12725 0.36383 0.12600
Br	Br	0.78161 0.23399 0.37998 -0.17900
H 	H 	0.83206 0.08973 0.39667 0.06600
H 	H 	0.65516 0.01498 0.30658 0.08600
Br	Br	0.71297 0.87449 0.32237 -0.18700
C 	C 	0.57012 0.04535 0.46002 -0.05800
C 	C 	0.48013 0.03824 0.47992 0.03000
C 	C 	0.52625 0.10234 0.49942 -0.06200
C 	C 	0.66195 0.17212 0.49887 0.04000
C 	C 	0.73328 0.19098 0.47548 -0.05000
C 	C 	0.68470 0.12762 0.45560 0.02500
C 	C 	0.73869 0.19970 0.52284 -0.01100
C 	C 	0.79116 0.21620 0.54408 -0.01600
C 	C 	0.84049 0.22514 0.57032 0.04300
C 	C 	0.87750 0.30247 0.58426 -0.06400
C 	C 	0.86821 0.30029 0.61122 0.02600
C 	C 	0.81474 0.21964 0.62403 -0.08300
C 	C 	0.80414 0.14683 0.61050 0.01900
C 	C 	0.81710 0.14966 0.58362 -0.06400
H 	H 	0.38449 0.97753 0.48241 0.03400
H 	H 	0.46477 0.09095 0.51660 0.05400
H 	H 	0.83272 0.24955 0.47376 0.07100
H 	H 	0.74471 0.13844 0.43829 0.06500
H 	H 	0.90181 0.36229 0.57420 0.05400
H 	H 	0.77286 0.08575 0.62038 0.05100
H 	H 	0.79579 0.09070 0.57300 0.05700
C 	C 	0.28444 0.64025 0.47715 -0.08800
C 	C 	0.28667 0.60971 0.50205 0.02400
C 	C 	0.16343 0.55024 0.51362 -0.06900
C 	C 	0.03728 0.52291 0.50069 0.04700
C 	C 	0.03586 0.54573 0.47490 -0.06600
C 	C 	0.15941 0.60355 0.46302 0.02800
C 	C 	0.91323 0.48780 0.51535 -0.01700
C 	C 	0.81521 0.45922 0.52928 -0.01600
H 	H 	0.38261 0.63543 0.51297 0.04000
H 	H 	0.16520 0.53046 0.53336 0.05400
H 	H 	0.93865 0.52301 0.46458 0.06600
H 	H 	0.15706 0.62334 0.44332 0.04300
H 	H 	0.80665 0.54962 0.57043 0.05400
C 	C 	0.67723 0.63259 0.48131 -0.08600
C 	C 	0.55095 0.56348 0.47195 0.02600
C 	C 	0.45994 0.49884 0.48883 -0.06600
C 	C 	0.49128 0.50521 0.51535 0.04400
C 	C 	0.61595 0.57445 0.52468 -0.06800
C 	C 	0.71105 0.63521 0.50765 0.02100
C 	C 	0.39728 0.44006 0.53310 -0.01500
C 	C 	0.32362 0.38788 0.54895 -0.01300
C 	C 	0.24418 0.32565 0.56870 0.04000
C 	C 	0.25314 0.35442 0.59438 -0.06000
C 	C 	0.21852 0.29488 0.61467 0.01200
C 	C 	0.17871 0.20675 0.60939 -0.07700
C 	C 	0.14929 0.17625 0.58364 0.01800
C 	C 	0.18285 0.23565 0.56336 -0.06600
H 	H 	0.51873 0.56315 0.45216 0.04200
H 	H 	0.36282 0.44621 0.48145 0.06500
H 	H 	0.63796 0.58257 0.54523 0.05500
H 	H 	0.80741 0.68804 0.51525 0.03800
H 	H 	0.29646 0.42361 0.59875 0.06300
H 	H 	0.23446 0.31888 0.63438 0.05600
H 	H 	0.11209 0.10767 0.57923 0.04600
H 	H 	0.17112 0.21225 0.54356 0.05900
Br	Br	0.21015 0.03904 0.74908 -0.19500
C 	C 	0.16352 0.85617 0.69569 -0.03800
C 	C 	0.12318 0.89919 0.67764 -0.06400
C 	C 	0.98159 0.87171 0.67508 0.11900
C 	C 	0.89354 0.82814 0.69558 -0.02300
C 	C 	0.94659 0.80849 0.71772 -0.08100
C 	C 	0.07485 0.81056 0.71598 0.13500
Br	Br	0.12777 0.74972 0.74028 -0.21900
H 	H 	0.26901 0.86808 0.69604 0.07400
H 	H 	0.78917 0.81830 0.69549 0.07300
Br	Br	0.91407 0.90928 0.64642 -0.23000
C 	C 	0.94187 0.65158 0.13386 0.01900
C 	C 	0.02150 0.62012 0.14636 -0.06500
C 	C 	0.98022 0.53065 0.14454 0.01600
H 	H 	0.53682 0.19575 0.01178 0.03800
H 	H 	0.97019 0.72007 0.13569 0.04800
H 	H 	0.03861 0.50501 0.15460 0.04300
C 	C 	0.83840 0.18801 0.95769 -0.08800
C 	C 	0.84052 0.10922 0.96119 0.02100
C 	C 	0.86877 0.08777 0.98558 -0.06500
C 	C 	0.89832 0.14578 0.00648 0.04100
C 	C 	0.90374 0.22649 0.00277 -0.06800
C 	C 	0.91799 0.12097 0.03185 -0.01700
C 	C 	0.93407 0.09873 0.05294 -0.02300
C 	C 	0.94347 0.06764 0.07803 0.05400
C 	C 	0.95202 0.99066 0.07999 -0.08200
C 	C 	0.90657 0.94042 0.10229 0.03100
C 	C 	0.85137 0.96695 0.12260 -0.09800
C 	C 	0.86515 0.05109 0.12221 0.03500
C 	C 	0.91033 0.10111 0.09986 -0.07400
H 	H 	0.81468 0.06307 0.94527 0.05400
H 	H 	0.86650 0.02574 0.98828 0.05700
H 	H 	0.98235 0.96588 0.06345 0.05300
H 	H 	0.90277 0.87741 0.10278 0.04200
H 	H 	0.82992 0.07451 0.13835 0.04300
H 	H 	0.90835 0.16231 0.09880 0.05600
C 	C 	0.46055 0.61226 0.09433 -0.07800
C 	C 	0.45484 0.53034 0.09560 0.01300
C 	C 	0.40776 0.47323 0.07435 -0.06400
C 	C 	0.36656 0.49730 0.05160 0.03900
C 	C 	0.37187 0.57867 0.05016 -0.06700
C 	C 	0.41820 0.63595 0.07145 0.01600
C 	C 	0.31989 0.43822 0.02980 -0.01800
C 	C 	0.28247 0.38473 0.01256 -0.01800
C 	C 	0.24172 0.31595 0.99361 0.04100
C 	C 	0.22272 0.32993 0.96761 -0.06200
C 	C 	0.19881 0.26536 0.94897 0.01900
C 	C 	0.19919 0.18823 0.95624 -0.08500
C 	C 	0.20396 0.17146 0.98264 0.01900
C 	C 	0.22873 0.23584 0.00110 -0.06600
H 	H 	0.48649 0.51072 0.11304 0.05400
H 	H 	0.40309 0.41004 0.07558 0.05500
H 	H 	0.33997 0.59757 0.03260 0.05300
H 	H 	0.42083 0.69847 0.07015 0.03700
H 	H 	0.22851 0.39095 0.96179 0.05800
H 	H 	0.18362 0.27632 0.92897 0.05800
H 	H 	0.19682 0.11032 0.98874 0.03900
H 	H 	0.24076 0.22405 0.02125 0.05300
Br	Br	0.38926 0.13433 0.81143 -0.17600
C 	C 	0.10969 0.82469 0.84498 -0.02800
C 	C 	0.98401 0.82579 0.84421 -0.07100
C 	C 	0.94595 0.85843 0.86573 0.12300
C 	C 	0.04295 0.90378 0.88535 -0.03000
C 	C 	0.17815 0.91817 0.88321 -0.08400
C 	C 	0.20413 0.86759 0.86528 0.12800
Br	Br	0.36747 0.85750 0.86843 -0.18100
H 	H 	0.13626 0.79402 0.82943 0.07300
H 	H 	0.01823 0.93685 0.90049 0.07100
Br	Br	0.76572 0.84628 0.86793 -0.18900
Br	Br	0.44502 0.67232 0.88066 -0.17700
Br	Br	0.25764 0.28239 0.84000 -0.21300
H 	H 	0.34547 0.92955 0.75301 0.09100
C 	C 	0.56960 0.28142 0.96624 0.29200
C 	C 	0.49966 0.21017 0.72508 0.29100
C 	C 	0.55695 0.30601 0.61808 0.29300
O 	O 	0.76039 0.27547 0.66226 -0.36000
C 	C 	0.94191 0.00329 0.27583 -0.06300
C 	C 	0.84517 0.02260 0.26361 0.12600
H 	H 	0.88619 0.35885 0.62167 0.04100
H 	H 	0.46185 0.23351 0.57036 0.03700
C 	C 	0.39797 0.06333 0.74652 0.14600
C 	C 	0.87587 0.24818 0.97839 0.02400
C 	C 	0.52788 0.11457 0.82759 0.12300
H 	H 	0.44458 0.98646 0.81027 0.06400
C 	C 	0.42863 0.99628 0.75215 -0.07400
O 	O 	0.80095 0.27875 0.92755 -0.36700
C 	C 	0.61909 0.25075 0.85625 0.29000
Ni	Ni	0.66750 0.31866 0.91061 1.11300
O 	O 	0.60199 0.33628 0.94669 -0.37000
Ni	Ni	0.61154 0.30712 0.67576 1.11600
O 	O 	0.61484 0.26408 0.71284 -0.35000
O 	O 	0.58998 0.35248 0.63987 -0.36300
C 	C 	0.27463 0.07094 0.41048 0.12900
C 	C 	0.50633 0.15011 0.74444 -0.07300
Br	Br	0.18197 0.46705 0.76419 -0.19500
C 	C 	0.56428 0.26382 0.01438 0.01400
H 	H 	0.92783 0.27198 0.01883 0.05200
C 	C 	0.52914 0.03679 0.82156 -0.02000
C 	C 	0.36298 0.40448 0.84885 0.13600
H 	H 	0.32023 0.44469 0.81237 0.09600
H 	H 	0.23141 0.35297 0.72797 0.07500
H 	H 	0.58997 0.26103 0.05555 0.05200
C 	C 	0.46804 0.37587 0.88823 0.32800
O 	O 	0.71714 0.30324 0.87285 -0.34900
C 	C 	0.40235 0.36585 0.68917 0.33300
Br	Br	0.85725 0.13570 0.26660 -0.18800
C 	C 	0.21578 0.11055 0.39483 -0.07000
C 	C 	0.57255 0.35166 0.59360 -0.08000
C 	C 	0.53479 0.30304 0.57032 0.02000
C 	C 	0.57620 0.31577 0.99287 -0.08200
C 	C 	0.59334 0.30064 0.03929 -0.06900
H 	H 	0.87574 0.30955 0.97595 0.03900
C 	C 	0.63416 0.17919 0.84333 -0.07300
C 	C 	0.36172 0.46544 0.83173 -0.03700
C 	C 	0.29124 0.41883 0.72067 -0.02800
O 	O 	0.52327 0.37352 0.69448 -0.36100
C 	C 	0.29628 0.48955 0.73449 0.12300
C 	C 	0.43392 0.43346 0.87276 -0.09100
O 	O 	0.59754 0.39860 0.89324 -0.36100
O 	O 	0.49687 0.86172 0.76160 -0.35500
O 	O 	0.38817 0.66722 0.76245 -0.33100
O 	O 	0.52907 0.87071 0.81743 -0.33600
C 	C 	0.03575 0.05823 0.29716 0.29600
C 	C 	0.56499 0.01612 0.75829 -0.04300
C 	C 	0.37121 0.43383 0.69847 -0.08900
Ni	Ni	0.47759 0.77164 0.78942 1.11800
C 	C 	0.63605 0.17134 0.75494 -0.02200
C 	C 	0.64172 0.02532 0.82875 -0.05100
O 	O 	0.42521 0.67967 0.81879 -0.33000
H 	H 	0.58349 0.30220 0.53024 0.05600
C 	C 	0.60592 0.40290 0.99696 0.01600
C 	C 	0.22398 0.11009 0.36615 0.31800
C 	C 	0.60386 0.34179 0.54762 -0.06600
C 	C 	0.38633 0.57582 0.72660 -0.07500
O 	O 	0.08363 0.02152 0.31353 -0.36500
C 	C 	0.63373 0.38934 0.04300 0.04000
C 	C 	0.59727 0.94346 0.76264 0.27800
C 	C 	0.65789 0.44275 0.59273 0.01800
C 	C 	0.43858 0.51819 0.68794 0.13000
H 	H 	0.60982 0.44300 0.98081 0.04300
C 	C 	0.41886 0.55368 0.83917 -0.06100
O 	O 	0.07510 0.14281 0.29944 -0.34900
Br	Br	0.43442 0.06363 0.40016 -0.19900
H 	H 	0.68122 0.48238 0.61015 0.05600
C 	C 	0.66730 0.10557 0.76152 0.11200
H 	H 	0.71633 0.23929 0.75624 0.08400
C 	C 	0.45859 0.64564 0.74618 0.31300
C 	C 	0.64667 0.94669 0.81889 0.28900
C 	C 	0.63521 0.43951 0.02191 -0.06700
C 	C 	0.74820 0.16845 0.85006 -0.03300
C 	C 	0.44350 0.58869 0.70181 -0.03600
Br	Br	0.89852 0.07644 0.85782 -0.17200
C 	C 	0.46792 0.62112 0.81891 0.30500
C 	C 	0.69229 0.43157 0.06753 -0.01900
O 	O 	0.14985 0.13529 0.35223 -0.37000
O 	O 	0.28984 0.07384 0.35474 -0.35600
C 	C 	0.47622 0.51926 0.88130 -0.02200
C 	C 	0.75102 0.09158 0.84360 0.13700
Br	Br	0.52886 0.53872 0.65522 -0.24100
C 	C 	0.74137 0.46717 0.08802 -0.01400
C 	C 	0.45780 0.57709 0.86522 0.11600
H 	H 	0.50478 0.65461 0.69463 0.07400
H 	H 	0.66338 0.50768 0.02470 0.05300
H 	H 	0.83252 0.21829 0.86151 0.08300
O 	O 	0.52073 0.60683 0.79788 -0.37300
H 	H 	0.85169 0.40927 0.12427 0.05700
H 	H 	0.51680 0.53960 0.90076 0.06500
O 	O 	0.72602 0.96021 0.76116 -0.34000
C 	C 	0.70865 0.42921 0.54811 0.04100
C 	C 	0.72848 0.48106 0.57017 -0.06800
C 	C 	0.80947 0.51145 0.11179 0.04300
O 	O 	0.59377 0.68402 0.74747 -0.38100
O 	O 	0.66101 0.79165 0.78921 -0.71100
H 	H 	0.66957 0.79183 0.80817 0.15700
O 	O 	0.76823 0.95093 0.81510 -0.33600
C 	C 	0.87468 0.47645 0.12721 -0.05500
H 	H 	0.78375 0.62444 0.10521 0.05700
Ni	Ni	0.28661 0.05801 0.31621 1.12600
Br	Br	0.84766 0.14143 0.77611 -0.19800
Ni	Ni	0.23405 0.22138 0.32336 1.12600
C 	C 	0.83653 0.59744 0.11647 -0.05900
