data_crystal

_cell_length_a 37.76409
_cell_length_b 36.53481
_cell_length_c 34.97474
_cell_angle_alpha 89.94351
_cell_angle_beta  89.94172
_cell_angle_gamma 90.67379

_symmetry_space_group_name_	'P 1'
_symmetry_space_group_name_H-M	'P 1'

loop_
_symmetry_equiv_pos_as_xyz
  x,y,z

loop_
_atom_site_label
_atom_site_type_symbol
_atom_site_fract_x
_atom_site_fract_y
_atom_site_fract_z
_atom_site_charge
Zn	Zn	0.49651 0.50444 0.01498 1.22200
C 	C 	0.53896 0.57052 0.01246 0.34900
O 	O 	0.52404 0.47164 0.04764 -0.47200
O 	O 	0.52219 0.57960 0.04394 -0.45100
O 	O 	0.55585 0.51494 0.07914 -0.49300
C 	C 	0.44467 0.54715 0.05263 0.35200
O 	O 	0.46006 0.54112 0.01972 -0.45300
O 	O 	0.46135 0.54015 0.08467 -0.50500
C 	C 	0.55376 0.48257 0.06329 0.34500
O 	O 	0.44997 0.46127 0.01539 -0.32400
Zn	Zn	0.51305 0.54302 0.08786 1.17100
O 	O 	0.53479 0.53764 0.99760 -0.43700
C 	C 	0.46010 0.45317 0.98106 0.29900
O 	O 	0.48695 0.47197 0.96831 -0.37800
Zn	Zn	0.34325 0.16815 0.98764 1.22200
C 	C 	0.36453 0.16714 0.06692 0.34500
O 	O 	0.29127 0.16325 0.98596 -0.46400
O 	O 	0.35747 0.20216 0.06956 -0.44400
O 	O 	0.28323 0.18224 0.04726 -0.49300
C 	C 	0.37003 0.24158 0.98846 0.34900
O 	O 	0.37907 0.20705 0.98893 -0.45300
O 	O 	0.33893 0.25139 0.00125 -0.50600
C 	C 	0.27214 0.16392 0.01731 0.34400
O 	O 	0.34578 0.17277 0.92003 -0.31900
Zn	Zn	0.31456 0.22434 0.04157 1.17300
O 	O 	0.35164 0.14757 0.03864 -0.43600
C 	C 	0.35783 0.13967 0.92148 0.30300
O 	O 	0.36068 0.12596 0.95538 -0.38100
C 	C 	0.52389 0.00268 0.28890 0.14900
C 	C 	0.50242 0.02702 0.26858 -0.11300
H 	H 	0.48562 0.04585 0.28397 0.07700
C 	C 	0.50276 0.02698 0.22852 0.07700
C 	C 	0.52431 0.00240 0.20878 -0.09800
C 	C 	0.54563 0.97796 0.22899 0.07600
C 	C 	0.54557 0.97822 0.26903 -0.11400
H 	H 	0.56218 0.95948 0.28477 0.07600
N 	N 	0.52365 0.00275 0.33001 -0.18200
C 	C 	0.50494 0.97610 0.34928 0.19700
C 	C 	0.50544 0.97492 0.38952 -0.08100
C 	C 	0.52469 0.00172 0.40974 0.06300
C 	C 	0.54321 0.02920 0.38961 -0.08000
C 	C 	0.54254 0.02915 0.34936 0.19800
C 	C 	0.48752 0.94699 0.40967 0.01100
C 	C 	0.48773 0.94652 0.44961 -0.05700
C 	C 	0.50475 0.97487 0.47028 0.01500
C 	C 	0.52548 0.00101 0.45014 -0.02700
C 	C 	0.54702 0.02642 0.47021 0.01600
C 	C 	0.56181 0.05649 0.40991 0.01100
C 	C 	0.56317 0.05554 0.44981 -0.05700
C 	C 	0.50283 0.97684 0.51079 0.01700
C 	C 	0.52714 0.99953 0.53073 -0.03000
C 	C 	0.55062 0.02295 0.51046 0.01800
O 	O 	0.56048 0.05432 0.33015 -0.20000
O 	O 	0.48631 0.95158 0.33002 -0.20100
H 	H 	0.57484 0.07884 0.39489 0.04500
H 	H 	0.57536 0.07836 0.46466 0.04700
H 	H 	0.47389 0.92519 0.39448 0.04400
H 	H 	0.47611 0.92318 0.46416 0.04700
C 	C 	0.57803 0.04107 0.53067 -0.05700
C 	C 	0.57908 0.03979 0.57057 0.01100
C 	C 	0.55363 0.01933 0.59106 -0.07900
C 	C 	0.52793 0.99884 0.57113 0.06100
C 	C 	0.47628 0.95795 0.53165 -0.05700
C 	C 	0.47681 0.95784 0.57159 0.01100
C 	C 	0.50297 0.97772 0.59155 -0.08000
C 	C 	0.55368 0.01873 0.63132 0.19900
N 	N 	0.52909 0.99801 0.65086 -0.18200
C 	C 	0.50421 0.97736 0.63178 0.19800
C 	C 	0.52907 0.99835 0.69197 0.14700
C 	C 	0.55369 0.97743 0.71230 -0.11300
C 	C 	0.55365 0.97786 0.75236 0.07800
C 	C 	0.52884 0.99892 0.77207 -0.10100
C 	C 	0.50415 0.01967 0.75187 0.08000
C 	C 	0.50435 0.01956 0.71183 -0.11200
O 	O 	0.57718 0.03850 0.65034 -0.19900
O 	O 	0.48143 0.95699 0.65123 -0.19900
H 	H 	0.57275 0.96104 0.69693 0.07700
H 	H 	0.48535 0.03569 0.69609 0.07700
H 	H 	0.59948 0.05471 0.51567 0.04800
H 	H 	0.60008 0.05435 0.58544 0.04500
H 	H 	0.45425 0.94480 0.51724 0.04700
H 	H 	0.45641 0.94275 0.58693 0.04500
H 	H 	0.52873 0.99911 0.80310 0.06600
H 	H 	0.52446 0.00227 0.17775 0.06600
Zn	Zn	0.70829 0.83141 0.99396 1.22200
C 	C 	0.68575 0.83413 0.07281 0.34500
O 	O 	0.76034 0.83523 0.99347 -0.46500
O 	O 	0.69204 0.79899 0.07620 -0.44500
O 	O 	0.76702 0.81647 0.05505 -0.49200
C 	C 	0.67894 0.75884 0.99617 0.34900
O 	O 	0.67129 0.79374 0.99544 -0.45400
O 	O 	0.70968 0.74817 0.00913 -0.50600
C 	C 	0.77855 0.83508 0.02542 0.34400
O 	O 	0.70702 0.82560 0.92643 -0.31900
Zn	Zn	0.73463 0.77523 0.04900 1.17200
O 	O 	0.69938 0.85301 0.04434 -0.43600
C 	C 	0.69571 0.85901 0.92687 0.30300
O 	O 	0.69254 0.87344 0.96039 -0.38000
Zn	Zn	0.16945 0.67643 0.99436 1.22100
C 	C 	0.15987 0.67192 0.07612 0.34500
O 	O 	0.16167 0.72729 0.97779 -0.46300
O 	O 	0.19186 0.68518 0.08190 -0.44700
O 	O 	0.17007 0.75122 0.03712 -0.49300
C 	C 	0.24110 0.65893 0.01386 0.35100
O 	O 	0.20886 0.64563 0.01006 -0.45000
O 	O 	0.24638 0.69423 0.01796 -0.50900
C 	C 	0.15685 0.75368 0.00260 0.34600
O 	O 	0.18210 0.65941 0.93023 -0.31800
Zn	Zn	0.21344 0.72455 0.04615 1.17300
O 	O 	0.14389 0.67716 0.04331 -0.43700
C 	C 	0.15099 0.64398 0.93144 0.30300
O 	O 	0.13404 0.64688 0.96334 -0.38200
C 	C 	0.00105 0.48663 0.69400 0.14300
C 	C 	0.02532 0.50745 0.71550 -0.11000
H 	H 	0.04521 0.52405 0.70105 0.07600
C 	C 	0.02354 0.50706 0.75551 0.07300
C 	C 	0.99759 0.48581 0.77401 -0.09300
C 	C 	0.97326 0.46511 0.75263 0.07500
C 	C 	0.97504 0.46542 0.71262 -0.10700
H 	H 	0.95618 0.44954 0.69595 0.07600
N 	N 	0.00234 0.48767 0.65293 -0.18300
C 	C 	0.02382 0.46388 0.63373 0.19700
C 	C 	0.02512 0.46425 0.59348 -0.07900
C 	C 	0.00350 0.48851 0.57318 0.05900
C 	C 	0.98288 0.51380 0.59333 -0.07600
C 	C 	0.98233 0.51270 0.63357 0.20000
C 	C 	0.04869 0.44183 0.57348 0.01100
C 	C 	0.04987 0.44263 0.53361 -0.05700
C 	C 	0.02527 0.46357 0.51264 0.01600
C 	C 	0.00328 0.48820 0.53266 -0.03000
C 	C 	0.98226 0.51362 0.51251 0.01900
C 	C 	0.96428 0.54066 0.57317 0.01100
C 	C 	0.96515 0.54153 0.53330 -0.05700
C 	C 	0.02344 0.46181 0.47202 0.01700
C 	C 	0.00236 0.48720 0.45190 -0.03100
C 	C 	0.98029 0.51172 0.47193 0.01900
O 	O 	0.96239 0.53571 0.65275 -0.19800
O 	O 	0.04315 0.44041 0.65304 -0.19900
H 	H 	0.95006 0.56176 0.58833 0.04600
H 	H 	0.95414 0.56500 0.51899 0.04800
H 	H 	0.06712 0.42467 0.58876 0.04500
H 	H 	0.07115 0.42851 0.51947 0.04700
C 	C 	0.95549 0.53244 0.45103 -0.05700
C 	C 	0.95656 0.53323 0.41116 0.01100
C 	C 	0.98033 0.51106 0.39112 -0.07700
C 	C 	0.00218 0.48698 0.41137 0.05900
C 	C 	0.04078 0.43410 0.45114 -0.05700
C 	C 	0.04182 0.43519 0.41128 0.01100
C 	C 	0.02308 0.46199 0.39118 -0.08000
C 	C 	0.98164 0.51154 0.35088 0.20000
N 	N 	0.00353 0.48817 0.33163 -0.18300
C 	C 	0.02378 0.46332 0.35093 0.19700
C 	C 	0.00504 0.48958 0.29059 0.14500
C 	C 	0.98240 0.46721 0.26873 -0.11000
C 	C 	0.98327 0.46928 0.22874 0.08100
C 	C 	0.00684 0.49357 0.21062 -0.10300
C 	C 	0.02936 0.51604 0.23235 0.07800
C 	C 	0.02857 0.51398 0.27234 -0.11300
O 	O 	0.96191 0.53467 0.33161 -0.20000
O 	O 	0.04418 0.44077 0.33172 -0.20100
H 	H 	0.96402 0.44862 0.28288 0.07700
H 	H 	0.04584 0.53144 0.28928 0.07500
H 	H 	0.93415 0.54642 0.46524 0.04700
H 	H 	0.93797 0.55023 0.39591 0.04500
H 	H 	0.05185 0.41061 0.46535 0.04700
H 	H 	0.05624 0.41427 0.39606 0.04400
H 	H 	0.00733 0.49534 0.17964 0.06600
H 	H 	0.99609 0.48568 0.80500 0.06600
Zn	Zn	0.80644 0.33401 0.98956 1.22100
C 	C 	0.81104 0.34338 0.90791 0.34500
O 	O 	0.75718 0.34131 0.00581 -0.46000
O 	O 	0.79881 0.30999 0.90262 -0.44400
O 	O 	0.73377 0.33118 0.94685 -0.48800
C 	C 	0.82490 0.26001 0.97266 0.35200
O 	O 	0.83680 0.29384 0.97423 -0.45500
O 	O 	0.79117 0.25324 0.96667 -0.50600
C 	C 	0.73173 0.34600 0.98090 0.33600
O 	O 	0.82255 0.32075 0.05365 -0.31800
Zn	Zn	0.76120 0.28706 0.93858 1.17200
O 	O 	0.80571 0.36020 0.94051 -0.43800
C 	C 	0.83692 0.35318 0.05301 0.30200
O 	O 	0.83437 0.37083 0.02114 -0.37900
Zn	Zn	0.00468 0.01955 0.03410 1.22100
C 	C 	0.04273 0.95212 0.02553 0.34000
O 	O 	0.96706 0.00613 0.07049 -0.46700
O 	O 	0.06121 0.96342 0.05519 -0.45100
O 	O 	0.99414 0.95800 0.09839 -0.49200
C 	C 	0.06879 0.04827 0.06543 0.35400
O 	O 	0.05313 0.03786 0.03382 -0.45300
O 	O 	0.05788 0.03545 0.09849 -0.50700
C 	C 	0.96537 0.97335 0.08556 0.34400
O 	O 	0.98772 0.08110 0.03879 -0.32400
Zn	Zn	0.03797 0.98606 0.10285 1.17000
O 	O 	0.01495 0.97048 0.01381 -0.43200
C 	C 	0.97363 0.07637 0.00538 0.30800
O 	O 	0.97675 0.04387 0.99102 -0.37900
C 	C 	0.84848 0.23034 0.98010 -0.12800
C 	C 	0.86836 0.20564 0.98706 0.08200
C 	C 	0.89223 0.17655 0.99665 -0.06300
C 	C 	0.90351 0.15322 0.96989 -0.04600
C 	C 	0.92819 0.12501 0.98001 0.06700
C 	C 	0.94893 0.10222 0.99040 -0.10200
H 	H 	0.89456 0.15561 0.94048 0.05000
H 	H 	0.90130 0.17398 0.02601 0.06000
C 	C 	0.83339 0.36023 0.87957 -0.11700
C 	C 	0.85307 0.37489 0.85695 0.07900
C 	C 	0.87703 0.39266 0.83187 -0.03200
C 	C 	0.89819 0.40837 0.81169 0.01200
C 	C 	0.92370 0.42742 0.78955 0.00900
C 	C 	0.94602 0.44426 0.77198 -0.03100
C 	C 	0.95914 0.44756 0.20607 -0.03400
C 	C 	0.93934 0.43035 0.18569 0.01200
C 	C 	0.91665 0.41139 0.16029 0.00800
C 	C 	0.89770 0.39626 0.13738 -0.02500
C 	C 	0.87600 0.37985 0.10920 0.06800
C 	C 	0.85791 0.36700 0.08409 -0.09400
C 	C 	0.05177 0.91816 0.00773 -0.11700
C 	C 	0.06090 0.88896 0.99538 0.06700
C 	C 	0.07344 0.85361 0.98361 -0.05200
C 	C 	0.10786 0.84922 0.97599 -0.06000
C 	C 	0.12442 0.81458 0.98339 0.07600
C 	C 	0.13892 0.78637 0.99137 -0.13500
H 	H 	0.12468 0.87303 0.97064 0.05000
H 	H 	0.05635 0.82980 0.98783 0.05100
C 	C 	0.13631 0.62423 0.89964 -0.09500
C 	C 	0.12234 0.60720 0.87417 0.06800
C 	C 	0.10427 0.58679 0.84586 -0.02600
C 	C 	0.08752 0.56901 0.82302 0.00900
C 	C 	0.06649 0.54781 0.79788 0.01000
C 	C 	0.04745 0.52940 0.77779 -0.03200
C 	C 	0.05240 0.54198 0.21338 -0.03400
C 	C 	0.07092 0.56331 0.19595 0.00700
C 	C 	0.09168 0.58774 0.17382 0.00900
C 	C 	0.10861 0.60808 0.15349 -0.03400
C 	C 	0.12747 0.63117 0.12808 0.07700
C 	C 	0.14274 0.65021 0.10505 -0.12000
C 	C 	0.80976 0.85755 0.02899 -0.12600
C 	C 	0.83588 0.87644 0.03292 0.07800
C 	C 	0.86705 0.89898 0.03825 -0.05600
C 	C 	0.87504 0.91228 0.07288 -0.05500
C 	C 	0.90668 0.93407 0.07835 0.07700
C 	C 	0.93334 0.95213 0.08225 -0.12700
H 	H 	0.85794 0.90648 0.09722 0.05100
H 	H 	0.88416 0.90478 0.01393 0.05600
C 	C 	0.67784 0.87442 0.89455 -0.09500
C 	C 	0.66150 0.88825 0.86882 0.06800
C 	C 	0.64098 0.90543 0.84043 -0.02500
C 	C 	0.62237 0.92090 0.81772 0.00800
C 	C 	0.59945 0.93989 0.79300 0.01100
C 	C 	0.57900 0.95682 0.77355 -0.03400
C 	C 	0.66434 0.85235 0.10065 -0.11800
C 	C 	0.64636 0.86909 0.12294 0.07700
C 	C 	0.62529 0.89012 0.14778 -0.03400
C 	C 	0.60725 0.90909 0.16794 0.01000
C 	C 	0.58602 0.93231 0.19033 0.00700
C 	C 	0.56773 0.95282 0.20846 -0.03400
C 	C 	0.23926 0.14400 0.01916 -0.12900
C 	C 	0.21160 0.12737 0.02148 0.07700
C 	C 	0.17857 0.10750 0.02481 -0.05700
C 	C 	0.15936 0.10958 0.05690 -0.05700
C 	C 	0.12711 0.08847 0.06078 0.07700
C 	C 	0.10032 0.07039 0.06340 -0.12900
H 	H 	0.16820 0.12672 0.08050 0.04900
H 	H 	0.16972 0.09035 0.00122 0.05500
C 	C 	0.47848 0.04079 0.77251 -0.03400
C 	C 	0.45764 0.05783 0.79137 0.01100
C 	C 	0.43413 0.07698 0.81528 0.00800
C 	C 	0.41494 0.09262 0.83727 -0.02500
C 	C 	0.39363 0.11002 0.86483 0.06800
C 	C 	0.37658 0.12405 0.88988 -0.09500
C 	C 	0.38555 0.14970 0.09566 -0.11800
C 	C 	0.40320 0.13358 0.11875 0.07700
C 	C 	0.42391 0.11322 0.14455 -0.03400
C 	C 	0.44168 0.09475 0.16549 0.01000
C 	C 	0.46266 0.07203 0.18873 0.00800
C 	C 	0.48078 0.05185 0.20748 -0.03300
C 	C 	0.39522 0.26917 0.97709 -0.12800
C 	C 	0.41559 0.29358 0.96885 0.07900
C 	C 	0.43898 0.32414 0.96111 -0.05900
C 	C 	0.42680 0.35354 0.94270 -0.04800
C 	C 	0.43992 0.38941 0.95287 0.06400
C 	C 	0.44974 0.41897 0.96415 -0.09900
H 	H 	0.40259 0.35141 0.92602 0.05100
H 	H 	0.46391 0.32592 0.97655 0.05400
C 	C 	0.27063 0.63467 0.01589 -0.12800
C 	C 	0.29612 0.61522 0.01815 0.07700
C 	C 	0.32726 0.59296 0.02117 -0.05300
C 	C 	0.34726 0.59435 0.05273 -0.05800
C 	C 	0.38137 0.57705 0.05345 0.07700
C 	C 	0.41017 0.56315 0.05353 -0.12800
H 	H 	0.33897 0.61040 0.07723 0.04700
H 	H 	0.33551 0.57687 0.99667 0.05200
C 	C 	0.58514 0.46140 0.05793 -0.12900
C 	C 	0.61110 0.44339 0.05187 0.07900
C 	C 	0.64173 0.42169 0.04318 -0.06000
C 	C 	0.64528 0.40668 0.00849 -0.04700
C 	C 	0.67596 0.38528 0.99924 0.06900
C 	C 	0.70145 0.36734 0.99098 -0.12400
H 	H 	0.62505 0.41062 0.98683 0.05000
H 	H 	0.66189 0.41782 0.06492 0.05300
C 	C 	0.65194 0.73206 0.98791 -0.12800
C 	C 	0.62919 0.70928 0.98235 0.07600
C 	C 	0.60177 0.68188 0.97767 -0.05700
C 	C 	0.61019 0.64657 0.97393 -0.05700
C 	C 	0.58491 0.61853 0.98469 0.07500
C 	C 	0.56386 0.59596 0.99602 -0.12700
H 	H 	0.63743 0.63891 0.96838 0.05100
H 	H 	0.57441 0.68952 0.98261 0.05200
