data_crystal

_cell_length_a 42.69195
_cell_length_b 40.97582
_cell_length_c 28.09017
_cell_angle_alpha 89.84578
_cell_angle_beta  90.00000
_cell_angle_gamma 90.00008

_symmetry_space_group_name_	'P 1'
_symmetry_space_group_name_H-M	'P 1'

loop_
_symmetry_equiv_pos_as_xyz
  x,y,z

loop_
_atom_site_label
_atom_site_type_symbol
_atom_site_fract_x
_atom_site_fract_y
_atom_site_fract_z
_atom_site_charge
C 	C 	0.55504 0.54391 0.13818 0.10100
N 	N 	0.54657 0.51501 0.11943 -0.17100
C 	C 	0.56936 0.49362 0.13073 0.10100
C 	C 	0.57391 0.46263 0.10455 -0.07400
C 	C 	0.54663 0.44197 0.09271 0.08800
C 	C 	0.60571 0.45159 0.09130 0.04100
C 	C 	0.62442 0.47081 0.06121 -0.05400
C 	C 	0.65260 0.45842 0.04345 -0.03500
C 	C 	0.66188 0.42651 0.05490 0.01800
C 	C 	0.61608 0.42049 0.10517 -0.05200
N 	N 	0.51912 0.44372 0.11605 -0.12800
C 	C 	0.54381 0.42419 0.05118 -0.06100
C 	C 	0.49883 0.42622 0.08963 0.08800
C 	C 	0.46456 0.42810 0.09607 -0.07500
C 	C 	0.44477 0.40019 0.08175 0.04000
C 	C 	0.43050 0.34312 0.08966 -0.03800
C 	C 	0.42188 0.40412 0.04637 -0.05500
C 	C 	0.40330 0.37762 0.03271 -0.03200
C 	C 	0.40739 0.34707 0.05459 0.01800
N 	N 	0.45959 0.48741 0.11193 -0.17300
C 	C 	0.43670 0.50685 0.12868 0.10000
C 	C 	0.41286 0.48826 0.14845 -0.06300
C 	C 	0.42176 0.45603 0.14341 -0.06300
C 	C 	0.43258 0.54088 0.11207 -0.07500
C 	C 	0.40150 0.55237 0.09611 0.03900
C 	C 	0.35834 0.59048 0.10338 -0.03300
C 	C 	0.34546 0.57863 0.06087 0.02100
C 	C 	0.36023 0.55295 0.03674 -0.03900
C 	C 	0.38813 0.53978 0.05440 -0.05300
N 	N 	0.48689 0.55670 0.13382 -0.12800
C 	C 	0.49303 0.60005 0.08521 -0.06100
C 	C 	0.50732 0.57914 0.11730 0.08800
C 	C 	0.54165 0.57524 0.12158 -0.07600
C 	C 	0.56246 0.60292 0.10992 0.04000
C 	C 	0.56642 0.62842 0.14255 -0.05300
C 	C 	0.58404 0.65590 0.13005 -0.03900
C 	C 	0.59752 0.65823 0.08458 0.01900
C 	C 	0.59379 0.63251 0.05213 -0.03200
C 	C 	0.57658 0.60482 0.06496 -0.05500
C 	C 	0.58343 0.54109 0.16171 -0.06300
C 	C 	0.59257 0.50890 0.15703 -0.06300
C 	C 	0.64398 0.40795 0.08685 -0.03100
C 	C 	0.51309 0.41409 0.04917 -0.06100
C 	C 	0.45058 0.45649 0.12076 0.10000
C 	C 	0.46227 0.59024 0.08234 -0.06200
C 	C 	0.45932 0.56386 0.11285 0.08800
C 	C 	0.38624 0.57738 0.12095 -0.05300
H 	H 	0.53164 0.51250 0.09017 0.09200
H 	H 	0.47512 0.49413 0.08485 0.09200
H 	H 	0.58700 0.67548 0.15549 0.03900
H 	H 	0.60394 0.63414 0.01685 0.04600
H 	H 	0.55559 0.62708 0.17738 0.04500
H 	H 	0.57356 0.58522 0.03955 0.04400
H 	H 	0.66663 0.47313 0.01948 0.03800
H 	H 	0.60200 0.40565 0.12892 0.04800
H 	H 	0.65120 0.38342 0.09628 0.04500
H 	H 	0.61669 0.49492 0.05049 0.04400
H 	H 	0.38561 0.38087 0.00546 0.04600
H 	H 	0.41849 0.42767 0.02950 0.04400
C 	C 	0.44912 0.36956 0.10315 -0.05200
H 	H 	0.43371 0.31968 0.10690 0.04200
H 	H 	0.34704 0.61028 0.12225 0.04300
H 	H 	0.39633 0.58707 0.15336 0.04600
H 	H 	0.39973 0.52036 0.03513 0.04300
H 	H 	0.35033 0.54356 0.00401 0.04000
H 	H 	0.59932 0.56111 0.16860 0.04800
H 	H 	0.61652 0.50048 0.16006 0.04900
H 	H 	0.55909 0.42658 0.02059 0.05000
H 	H 	0.50093 0.40766 0.01670 0.04700
H 	H 	0.38887 0.49632 0.15266 0.04900
H 	H 	0.40565 0.43563 0.14342 0.04900
H 	H 	0.50513 0.61353 0.05757 0.04800
H 	H 	0.44713 0.59505 0.05220 0.04700
H 	H 	0.46675 0.36633 0.13049 0.04700
Co	Co	0.32456 0.16749 0.99835 1.18000
Co	Co	0.27519 0.20028 0.06419 1.09800
O 	O 	0.35542 0.14255 0.95712 -0.37600
O 	O 	0.31989 0.16519 0.91528 -0.32200
O 	O 	0.34007 0.16240 0.06413 -0.41300
O 	O 	0.31482 0.22585 0.06561 -0.46100
C 	C 	0.32163 0.15266 0.09890 0.31600
C 	C 	0.34495 0.14762 0.91481 0.30100
O 	O 	0.29153 0.15942 0.09797 -0.43000
O 	O 	0.33180 0.21381 0.99065 -0.43900
C 	C 	0.33023 0.23399 0.02684 0.32900
O 	O 	0.28988 0.13767 0.00123 -0.42900
O 	O 	0.25675 0.18051 0.00631 -0.47500
C 	C 	0.26160 0.14958 0.99706 0.33100
C 	C 	0.43576 0.95834 0.54636 0.01100
C 	C 	0.46162 0.93639 0.54715 0.01100
C 	C 	0.42857 0.97560 0.50447 -0.05400
C 	C 	0.44722 0.97173 0.46367 0.01100
C 	C 	0.48072 0.93305 0.50664 -0.05400
C 	C 	0.47368 0.95056 0.46489 0.01100
H 	H 	0.50068 0.91675 0.50745 0.05100
H 	H 	0.40781 0.99078 0.50302 0.05100
C 	C 	0.49282 0.94840 0.42387 -0.01300
C 	C 	0.48455 0.96387 0.38115 0.00900
C 	C 	0.49932 0.95022 0.34060 -0.05700
C 	C 	0.51850 0.92354 0.35177 0.00800
S 	S 	0.51738 0.91795 0.41078 -0.00900
H 	H 	0.49575 0.95901 0.30462 0.04700
C 	C 	0.43896 0.98644 0.41990 -0.01300
C 	C 	0.45750 0.98293 0.37919 0.00900
C 	C 	0.45172 0.00710 0.34402 -0.05600
C 	C 	0.42916 0.02996 0.35821 0.00900
S 	S 	0.41667 0.01957 0.41279 -0.01000
H 	H 	0.46367 0.00805 0.31006 0.04600
C 	C 	0.42372 0.94385 0.62935 0.00800
C 	C 	0.41656 0.96075 0.58722 -0.01300
S 	S 	0.39534 0.99339 0.60196 -0.00800
C 	C 	0.39270 0.98625 0.66039 0.00800
C 	C 	0.41041 0.95834 0.67073 -0.05700
C 	C 	0.46655 0.91719 0.58833 -0.01300
C 	C 	0.44875 0.92171 0.62972 0.00900
C 	C 	0.46338 0.90905 0.67137 -0.05700
C 	C 	0.49244 0.89459 0.66173 0.00800
S 	S 	0.50012 0.89913 0.60376 -0.00900
H 	H 	0.45412 0.91185 0.70697 0.04500
H 	H 	0.41656 0.95135 0.70669 0.04500
Co	Co	0.67352 0.83898 0.00344 1.18100
Co	Co	0.70209 0.78765 0.93500 1.09600
O 	O 	0.65090 0.87050 0.04720 -0.37800
O 	O 	0.68001 0.83783 0.08633 -0.32200
O 	O 	0.66051 0.85170 0.93864 -0.42100
O 	O 	0.72233 0.83078 0.92426 -0.45200
C 	C 	0.64921 0.83028 0.90836 0.31900
C 	C 	0.66088 0.86215 0.08868 0.30200
O 	O 	0.65860 0.79970 0.90990 -0.43500
O 	O 	0.71723 0.85123 0.99937 -0.44100
C 	C 	0.73286 0.84902 0.95919 0.31900
O 	O 	0.64836 0.80033 0.01016 -0.42300
O 	O 	0.69127 0.76927 0.99826 -0.48600
C 	C 	0.66262 0.77223 0.01465 0.32900
Co	Co	0.18235 0.67997 0.97918 1.18100
Co	Co	0.22868 0.72029 0.04283 1.09800
O 	O 	0.14892 0.65674 0.94081 -0.38000
O 	O 	0.19169 0.66078 0.90179 -0.31800
O 	O 	0.16241 0.68882 0.04103 -0.42200
O 	O 	0.24938 0.68873 0.99931 -0.47400
C 	C 	0.17656 0.68130 0.08113 0.31600
C 	C 	0.16331 0.64997 0.90192 0.30400
O 	O 	0.20656 0.68761 0.08650 -0.43600
O 	O 	0.21291 0.64869 0.00040 -0.43600
C 	C 	0.24231 0.65759 0.00169 0.33500
O 	O 	0.18133 0.72356 0.95313 -0.42700
O 	O 	0.19213 0.74757 0.02453 -0.45900
C 	C 	0.18175 0.74948 0.98054 0.32100
C 	C 	0.01401 0.51526 0.51740 0.01100
C 	C 	0.98609 0.49629 0.51528 0.01100
C 	C 	0.02839 0.52590 0.47515 -0.05400
C 	C 	0.01465 0.51892 0.43092 0.01100
C 	C 	0.97295 0.48832 0.47091 -0.05400
C 	C 	0.98694 0.49964 0.42873 0.01100
H 	H 	0.95185 0.47369 0.46924 0.05100
H 	H 	0.05054 0.53876 0.47662 0.05000
C 	C 	0.97302 0.49402 0.38386 -0.01200
C 	C 	0.98700 0.50509 0.34162 0.00900
C 	C 	0.97716 0.48762 0.30071 -0.05700
C 	C 	0.95628 0.46234 0.31166 0.00900
S 	S 	0.94975 0.46259 0.37030 -0.00900
H 	H 	0.98640 0.49186 0.26533 0.04700
C 	C 	0.02870 0.52925 0.38794 -0.01300
C 	C 	0.01466 0.52315 0.34372 0.00900
C 	C 	0.02445 0.54505 0.30744 -0.05700
C 	C 	0.04532 0.56875 0.32404 0.00900
S 	S 	0.05197 0.56174 0.38180 -0.01000
H 	H 	0.01585 0.54432 0.27119 0.04700
C 	C 	0.01119 0.51453 0.60466 0.00900
C 	C 	0.02699 0.52256 0.56242 -0.01300
S 	S 	0.05025 0.55436 0.57397 -0.00900
C 	C 	0.04133 0.55881 0.63147 0.00900
C 	C 	0.01965 0.53466 0.64378 -0.05600
C 	C 	0.97245 0.48540 0.55830 -0.01300
C 	C 	0.98382 0.49577 0.60255 0.00900
C 	C 	0.96123 0.49372 0.63961 -0.05600
C 	C 	0.93207 0.48249 0.62379 0.00800
S 	S 	0.93496 0.47489 0.56548 -0.00900
H 	H 	0.96639 0.49847 0.67668 0.04600
H 	H 	0.01112 0.53110 0.67970 0.04600
Co	Co	0.82401 0.33245 0.96344 1.18000
Co	Co	0.77123 0.30494 0.89853 1.09900
O 	O 	0.85770 0.35433 0.00305 -0.38000
O 	O 	0.82304 0.33188 0.04692 -0.31000
O 	O 	0.83692 0.33940 0.89688 -0.42200
O 	O 	0.80972 0.27787 0.89224 -0.45300
C 	C 	0.81799 0.35301 0.86570 0.31900
C 	C 	0.84892 0.34811 0.04589 0.30200
O 	O 	0.78788 0.34618 0.86606 -0.43600
O 	O 	0.82923 0.28566 0.96686 -0.44100
C 	C 	0.82556 0.26712 0.92920 0.32700
O 	O 	0.79093 0.36406 0.96570 -0.43600
O 	O 	0.75534 0.32344 0.95909 -0.47800
C 	C 	0.76222 0.35359 0.97082 0.33600
C 	C 	0.05552 0.96082 0.83854 0.10000
N 	N 	0.04670 0.99070 0.85313 -0.17300
C 	C 	0.06795 0.01189 0.83578 0.10100
C 	C 	0.07257 0.04464 0.85663 -0.07500
C 	C 	0.04521 0.06613 0.86435 0.08800
C 	C 	0.10414 0.05538 0.87178 0.03900
C 	C 	0.12102 0.03709 0.90543 -0.05400
C 	C 	0.14919 0.04910 0.92378 -0.03900
C 	C 	0.16064 0.07953 0.90871 0.01800
C 	C 	0.11631 0.08512 0.85521 -0.05300
N 	N 	0.01713 0.06044 0.84401 -0.12800
C 	C 	0.04228 0.08694 0.90283 -0.06200
C 	C 	0.99643 0.07837 0.86895 0.08800
C 	C 	0.96222 0.07346 0.86574 -0.07500
C 	C 	0.94093 0.10074 0.87724 0.04000
C 	C 	0.92353 0.15630 0.86345 -0.03200
C 	C 	0.91887 0.09749 0.91397 -0.05400
C 	C 	0.89928 0.12364 0.92553 -0.03900
C 	C 	0.90170 0.15320 0.90049 0.01900
N 	N 	0.95950 0.01304 0.86323 -0.17300
C 	C 	0.93704 0.99131 0.85193 0.10000
C 	C 	0.91253 0.00666 0.82856 -0.06300
C 	C 	0.92051 0.03928 0.82563 -0.06300
C 	C 	0.93479 0.95878 0.87478 -0.07500
C 	C 	0.90393 0.94517 0.88819 0.04000
C 	C 	0.86420 0.90326 0.87967 -0.03900
C 	C 	0.84614 0.91823 0.91516 0.01800
C 	C 	0.85697 0.94689 0.93690 -0.03200
C 	C 	0.88579 0.96032 0.92346 -0.05400
N 	N 	0.98880 0.94267 0.85248 -0.12800
C 	C 	0.00099 0.91162 0.91612 -0.06200
C 	C 	0.01177 0.92587 0.87453 0.08800
C 	C 	0.04531 0.93076 0.86343 -0.07400
C 	C 	0.06854 0.90592 0.87825 0.03900
C 	C 	0.06392 0.87300 0.86649 -0.05200
C 	C 	0.08462 0.84922 0.88327 -0.03300
C 	C 	0.11028 0.85819 0.91148 0.02000
C 	C 	0.11561 0.89119 0.92177 -0.03700
C 	C 	0.09458 0.91494 0.90577 -0.05400
C 	C 	0.08250 0.96290 0.81122 -0.06200
C 	C 	0.09048 0.99557 0.80956 -0.06300
C 	C 	0.14438 0.09720 0.87372 -0.03200
C 	C 	0.01098 0.09482 0.90571 -0.06100
C 	C 	0.94951 0.04229 0.84739 0.10000
C 	C 	0.96973 0.91961 0.91934 -0.06200
C 	C 	0.96309 0.93833 0.87961 0.08800
C 	C 	0.89299 0.91663 0.86632 -0.05300
H 	H 	0.03312 0.99499 0.88345 0.09200
H 	H 	0.97556 0.00987 0.89095 0.09100
H 	H 	0.08052 0.82379 0.87487 0.04700
H 	H 	0.13569 0.89834 0.94288 0.03600
H 	H 	0.04408 0.86583 0.84489 0.04800
H 	H 	0.09832 0.94028 0.91516 0.04200
H 	H 	0.16169 0.03520 0.95058 0.03900
H 	H 	0.10360 0.09925 0.82890 0.04800
H 	H 	0.15304 0.12071 0.86186 0.04700
H 	H 	0.11187 0.01403 0.91833 0.04200
H 	H 	0.88244 0.12105 0.95415 0.04000
H 	H 	0.91707 0.07481 0.93370 0.04300
C 	C 	0.94311 0.13020 0.85195 -0.05300
H 	H 	0.92537 0.17897 0.84371 0.04700
H 	H 	0.85601 0.88113 0.86272 0.03900
H 	H 	0.90681 0.90483 0.83897 0.04600
H 	H 	0.89409 0.98235 0.94057 0.04400
H 	H 	0.84310 0.95869 0.96418 0.04600
H 	H 	0.09889 0.94310 0.80575 0.04900
H 	H 	0.11391 0.00457 0.80284 0.05000
H 	H 	0.05840 0.08790 0.93254 0.04600
H 	H 	0.99939 0.10290 0.93787 0.04700
H 	H 	0.88881 0.99744 0.82659 0.04800
H 	H 	0.90379 0.05891 0.82112 0.04800
H 	H 	0.01559 0.90525 0.94626 0.04900
H 	H 	0.95659 0.92027 0.95229 0.04800
H 	H 	0.95997 0.13285 0.82337 0.04800
C 	C 	0.88143 0.18100 0.91300 -0.00800
C 	C 	0.89438 0.20925 0.93355 0.09400
C 	C 	0.87593 0.23729 0.93866 -0.02200
C 	C 	0.84437 0.23712 0.92464 -0.12300
C 	C 	0.83117 0.20848 0.90539 0.16700
C 	C 	0.84954 0.18022 0.90131 -0.10500
H 	H 	0.88634 0.25934 0.95286 0.05300
H 	H 	0.83925 0.15805 0.88731 0.06400
O 	O 	0.92586 0.21038 0.94488 -0.19000
O 	O 	0.79961 0.20727 0.89448 -0.22100
C 	C 	0.92940 0.20115 0.99298 -0.03300
H 	H 	0.91732 0.21856 0.01721 0.04400
H 	H 	0.95470 0.20173 0.00194 0.04700
H 	H 	0.92102 0.17578 0.99940 0.04000
C 	C 	0.79605 0.20959 0.84462 -0.01700
H 	H 	0.80864 0.23097 0.82922 0.03600
H 	H 	0.77081 0.21280 0.83649 0.02200
H 	H 	0.80387 0.18674 0.82694 0.03400
C 	C 	0.87295 0.43381 0.72241 0.05100
N 	N 	0.88470 0.41762 0.68407 -0.10800
C 	C 	0.90263 0.43308 0.65087 0.02200
C 	C 	0.90925 0.46648 0.65546 -0.01100
C 	C 	0.89619 0.48380 0.69343 -0.02000
C 	C 	0.87786 0.46750 0.72695 -0.05800
H 	H 	0.91261 0.41916 0.62190 0.03500
H 	H 	0.90083 0.50964 0.69755 0.03500
H 	H 	0.86815 0.48075 0.75683 0.04400
C 	C 	0.83073 0.37566 0.82993 -0.11700
C 	C 	0.85467 0.39737 0.84222 0.04100
C 	C 	0.86791 0.41732 0.80744 -0.08400
C 	C 	0.85709 0.41541 0.76038 0.06700
N 	N 	0.83358 0.39430 0.74911 -0.12000
C 	C 	0.82007 0.37484 0.78272 0.07300
H 	H 	0.86318 0.39858 0.87852 0.02700
H 	H 	0.88698 0.43356 0.81667 0.05300
H 	H 	0.80163 0.35813 0.77246 0.01800
C 	C 	0.90189 0.41432 0.20616 0.05100
N 	N 	0.90768 0.44695 0.20303 -0.10800
C 	C 	0.92407 0.46299 0.23731 0.02200
C 	C 	0.93597 0.44589 0.27671 -0.01200
C 	C 	0.92960 0.41253 0.28119 -0.01900
C 	C 	0.91260 0.39661 0.24578 -0.05700
H 	H 	0.92810 0.48896 0.23370 0.03300
H 	H 	0.93859 0.39879 0.31123 0.03700
H 	H 	0.90869 0.37054 0.24829 0.04500
C 	C 	0.86161 0.36548 0.08761 -0.10600
C 	C 	0.84993 0.35921 0.13335 0.03500
C 	C 	0.86283 0.37527 0.17245 -0.08100
C 	C 	0.88752 0.39737 0.16552 0.06600
N 	N 	0.89814 0.40362 0.12069 -0.11700
C 	C 	0.88595 0.38821 0.08207 0.06700
H 	H 	0.83106 0.34192 0.13864 0.03800
H 	H 	0.85369 0.37065 0.20781 0.05200
H 	H 	0.89523 0.39361 0.04706 0.03400
C 	C 	0.16547 0.77918 0.96482 -0.12300
C 	C 	0.17366 0.79442 0.92158 0.16500
C 	C 	0.15587 0.82080 0.90477 -0.10300
C 	C 	0.13081 0.83287 0.93172 -0.00900
C 	C 	0.12381 0.81886 0.97630 0.09300
C 	C 	0.14080 0.79168 0.99220 -0.02900
H 	H 	0.16125 0.83151 0.87041 0.06600
H 	H 	0.13429 0.77987 0.02533 0.05800
O 	O 	0.19743 0.78185 0.89374 -0.20200
O 	O 	0.09805 0.82938 0.00181 -0.18700
C 	C 	0.22549 0.79819 0.90528 -0.01700
H 	H 	0.22397 0.82472 0.89686 0.03200
H 	H 	0.24464 0.78787 0.88328 0.03900
H 	H 	0.23203 0.79440 0.94328 0.01800
C 	C 	0.10831 0.85125 0.03722 -0.02500
H 	H 	0.12321 0.83866 0.06412 0.03700
H 	H 	0.08747 0.86089 0.05611 0.04300
H 	H 	0.12097 0.87253 0.02177 0.03600
C 	C 	0.09802 0.60216 0.73816 0.05100
N 	N 	0.06720 0.61023 0.73362 -0.10700
C 	C 	0.04903 0.59733 0.69861 0.02200
C 	C 	0.06175 0.57505 0.66624 -0.01200
C 	C 	0.09346 0.56669 0.66985 -0.01900
C 	C 	0.11169 0.58020 0.70599 -0.05700
H 	H 	0.02452 0.60398 0.69643 0.03300
H 	H 	0.10368 0.54907 0.64574 0.03700
H 	H 	0.13592 0.57285 0.70994 0.04400
C 	C 	0.14721 0.63751 0.85919 -0.10600
C 	C 	0.16200 0.63794 0.81466 0.03500
C 	C 	0.14615 0.62627 0.77473 -0.08100
C 	C 	0.11567 0.61385 0.77980 0.06700
N 	N 	0.10169 0.61375 0.82337 -0.11700
C 	C 	0.11669 0.62504 0.86273 0.07000
H 	H 	0.18552 0.64753 0.81087 0.03500
H 	H 	0.15727 0.62724 0.74010 0.05100
H 	H 	0.10486 0.62430 0.89681 0.03500
C 	C 	0.12397 0.63573 0.19152 0.06800
N 	N 	0.11449 0.63399 0.14531 -0.11700
C 	C 	0.13118 0.64819 0.10962 0.07300
C 	C 	0.15874 0.66549 0.11982 -0.11500
C 	C 	0.16884 0.66767 0.16717 0.03900
C 	C 	0.15135 0.65288 0.20320 -0.08500
H 	H 	0.12308 0.64591 0.07325 0.03100
H 	H 	0.18985 0.68114 0.17612 0.02200
H 	H 	0.15876 0.65510 0.23994 0.05000
C 	C 	0.06627 0.58769 0.29288 -0.01200
C 	C 	0.09880 0.58376 0.29549 -0.01900
C 	C 	0.11804 0.60028 0.26336 -0.05700
C 	C 	0.10453 0.62074 0.22888 0.05100
N 	N 	0.07283 0.62441 0.22721 -0.10700
C 	C 	0.05366 0.60858 0.25830 0.02200
H 	H 	0.10909 0.56728 0.32134 0.03700
H 	H 	0.14314 0.59645 0.26430 0.04500
H 	H 	0.02855 0.61192 0.25576 0.03400
C 	C 	0.76005 0.87043 0.95081 -0.12500
C 	C 	0.76265 0.88830 0.90800 0.16500
C 	C 	0.79069 0.90443 0.89710 -0.10600
C 	C 	0.81581 0.90387 0.92922 -0.00800
C 	C 	0.81266 0.88738 0.97308 0.09200
C 	C 	0.78444 0.87151 0.98420 -0.03300
H 	H 	0.79304 0.91702 0.86330 0.06500
H 	H 	0.78210 0.85885 0.01794 0.05300
O 	O 	0.73867 0.88782 0.87494 -0.20000
O 	O 	0.83648 0.88848 0.00638 -0.19000
C 	C 	0.71864 0.91447 0.88390 -0.02000
H 	H 	0.70745 0.91248 0.91961 0.04400
H 	H 	0.69959 0.91425 0.85705 0.04400
H 	H 	0.73118 0.93817 0.88018 0.03600
C 	C 	0.85516 0.86031 0.00128 -0.02100
H 	H 	0.84161 0.83775 0.00942 0.03400
H 	H 	0.87468 0.86165 0.02724 0.04300
H 	H 	0.86579 0.85876 0.96516 0.03500
C 	C 	0.56092 0.87049 0.76612 0.05100
N 	N 	0.55643 0.85118 0.72731 -0.10800
C 	C 	0.53490 0.85884 0.69331 0.02200
C 	C 	0.51639 0.88692 0.69789 -0.01200
C 	C 	0.52066 0.90711 0.73752 -0.01900
C 	C 	0.54281 0.89880 0.77194 -0.05700
H 	H 	0.53185 0.84284 0.66305 0.03400
H 	H 	0.50694 0.92917 0.74163 0.03500
H 	H 	0.54564 0.91400 0.80313 0.04500
C 	C 	0.62696 0.84096 0.87123 -0.11500
C 	C 	0.62652 0.87353 0.85592 0.03900
C 	C 	0.60505 0.88339 0.82139 -0.08400
C 	C 	0.58381 0.86065 0.80271 0.06700
N 	N 	0.58491 0.82895 0.81746 -0.11900
C 	C 	0.60576 0.81877 0.85106 0.07000
H 	H 	0.64289 0.89108 0.87042 0.03100
H 	H 	0.60508 0.90844 0.80893 0.05100
H 	H 	0.60561 0.79350 0.86242 0.02900
C 	C 	0.58892 0.89453 0.25404 0.05100
N 	N 	0.58625 0.92631 0.26766 -0.10700
C 	C 	0.56498 0.93579 0.30095 0.02200
C 	C 	0.54473 0.91282 0.32161 -0.01100
C 	C 	0.54794 0.87990 0.30964 -0.01900
C 	C 	0.57000 0.87065 0.27558 -0.05700
H 	H 	0.56326 0.96132 0.31045 0.03500
H 	H 	0.53258 0.86173 0.32521 0.03600
H 	H 	0.57148 0.84538 0.26457 0.04300
C 	C 	0.64406 0.87101 0.13272 -0.10800
C 	C 	0.64675 0.85182 0.17391 0.03200
C 	C 	0.62895 0.85945 0.21404 -0.08300
C 	C 	0.60858 0.88632 0.21268 0.06600
N 	N 	0.60711 0.90531 0.17286 -0.11700
C 	C 	0.62417 0.89825 0.13329 0.06900
H 	H 	0.66216 0.83082 0.17464 0.03200
H 	H 	0.63094 0.84463 0.24589 0.05000
H 	H 	0.62213 0.91375 0.10217 0.03400
C 	C 	0.18792 0.09431 0.93272 -0.00400
C 	C 	0.21580 0.10047 0.90739 0.09200
C 	C 	0.23986 0.11855 0.92877 -0.01900
C 	C 	0.23660 0.12986 0.97559 -0.13100
C 	C 	0.20909 0.12291 0.00136 0.17700
C 	C 	0.18532 0.10426 0.98027 -0.11500
H 	H 	0.26089 0.12408 0.90872 0.05500
H 	H 	0.16436 0.09854 0.00041 0.06800
O 	O 	0.21853 0.09113 0.86034 -0.19000
O 	O 	0.20664 0.13182 0.04866 -0.21900
C 	C 	0.23305 0.06024 0.85889 -0.02600
H 	H 	0.25730 0.06121 0.87346 0.04300
H 	H 	0.23485 0.05253 0.82116 0.04700
H 	H 	0.21893 0.04142 0.87790 0.04000
C 	C 	0.18794 0.16012 0.05176 -0.01800
H 	H 	0.19687 0.18031 0.02888 0.02300
H 	H 	0.18845 0.16891 0.08907 0.02100
H 	H 	0.16310 0.15463 0.04278 0.03400
C 	C 	0.36780 0.08355 0.80105 0.06600
N 	N 	0.33832 0.09596 0.80537 -0.11700
C 	C 	0.33077 0.11722 0.84076 0.06900
C 	C 	0.35338 0.12644 0.87444 -0.10700
C 	C 	0.38379 0.11401 0.87051 0.03500
C 	C 	0.39108 0.09248 0.83379 -0.08200
H 	H 	0.30703 0.12634 0.84331 0.03300
H 	H 	0.40165 0.12076 0.89605 0.03200
H 	H 	0.41444 0.08230 0.83132 0.05100
C 	C 	0.38641 0.01197 0.69547 -0.01200
C 	C 	0.40664 0.03865 0.69994 -0.01900
C 	C 	0.40061 0.06240 0.73423 -0.05800
C 	C 	0.37440 0.05909 0.76405 0.05100
N 	N 	0.35477 0.03314 0.75863 -0.10800
C 	C 	0.36031 0.00966 0.72548 0.02100
H 	H 	0.42703 0.04087 0.67718 0.03800
H 	H 	0.41610 0.08320 0.73759 0.04500
H 	H 	0.34441 0.98918 0.72244 0.03300
C 	C 	0.37914 0.08579 0.25516 0.05200
N 	N 	0.41103 0.08461 0.25479 -0.10600
C 	C 	0.42734 0.06771 0.28839 0.02200
C 	C 	0.41147 0.05071 0.32447 -0.01200
C 	C 	0.37869 0.05252 0.32642 -0.01900
C 	C 	0.36248 0.07045 0.29208 -0.05800
H 	H 	0.45268 0.06730 0.28686 0.03400
H 	H 	0.36575 0.03969 0.35382 0.03700
H 	H 	0.33722 0.07238 0.29414 0.04400
C 	C 	0.33514 0.13595 0.14046 -0.11400
C 	C 	0.32100 0.10787 0.15896 0.03700
C 	C 	0.33492 0.09147 0.19705 -0.08300
C 	C 	0.36261 0.10387 0.21720 0.06700
N 	N 	0.37582 0.13144 0.19882 -0.11700
C 	C 	0.36281 0.14753 0.16127 0.07200
H 	H 	0.29978 0.09829 0.14311 0.03100
H 	H 	0.32478 0.06889 0.20991 0.05100
H 	H 	0.37399 0.16935 0.14759 0.03200
C 	C 	0.38670 0.31947 0.04222 -0.00700
C 	C 	0.35472 0.32017 0.05453 0.09300
C 	C 	0.33578 0.29296 0.04536 -0.02400
C 	C 	0.34879 0.26436 0.02640 -0.12800
C 	C 	0.38051 0.26411 0.01226 0.17300
C 	C 	0.39942 0.29144 0.02115 -0.10600
H 	H 	0.31116 0.29368 0.05475 0.03400
H 	H 	0.42411 0.29065 0.01223 0.06700
O 	O 	0.34151 0.34819 0.07308 -0.19500
O 	O 	0.39392 0.23590 0.99468 -0.20400
C 	C 	0.34176 0.34586 0.12319 -0.02300
H 	H 	0.32687 0.32529 0.13589 0.03300
H 	H 	0.33177 0.36867 0.13798 0.04000
H 	H 	0.36600 0.34348 0.13742 0.03900
C 	C 	0.39499 0.23813 0.94457 -0.02200
H 	H 	0.37141 0.24257 0.92883 0.04900
H 	H 	0.40353 0.21452 0.93033 0.04700
H 	H 	0.41172 0.25737 0.93284 0.03600
C 	C 	0.31753 0.59440 0.04037 -0.01300
C 	C 	0.28813 0.59088 0.06251 0.09500
C 	C 	0.26311 0.61082 0.04841 -0.02900
C 	C 	0.26694 0.63337 0.01120 -0.12800
C 	C 	0.29541 0.63440 0.98587 0.15700
C 	C 	0.32079 0.61543 0.00124 -0.09700
H 	H 	0.24112 0.60960 0.06763 0.05600
H 	H 	0.34326 0.61780 0.98359 0.06000
O 	O 	0.28469 0.57032 0.10123 -0.19300
O 	O 	0.29931 0.65605 0.94854 -0.20300
C 	C 	0.27449 0.53966 0.08465 -0.02400
H 	H 	0.25113 0.54141 0.06717 0.04000
H 	H 	0.27197 0.52304 0.11566 0.04300
H 	H 	0.29191 0.52843 0.06013 0.03900
C 	C 	0.29119 0.64003 0.90592 -0.02200
H 	H 	0.30683 0.61881 0.89901 0.03600
H 	H 	0.29422 0.65742 0.87594 0.04500
H 	H 	0.26618 0.63226 0.90602 0.04700
C 	C 	0.73773 0.37533 0.98961 -0.13400
C 	C 	0.74317 0.39439 0.03057 0.17400
C 	C 	0.71827 0.41163 0.05132 -0.10800
C 	C 	0.68856 0.41141 0.03013 -0.00200
C 	C 	0.68369 0.39412 0.98754 0.08700
C 	C 	0.70807 0.37554 0.96817 -0.02000
H 	H 	0.72194 0.42458 0.08444 0.06700
H 	H 	0.70378 0.36099 0.93667 0.03200
O 	O 	0.77173 0.39292 0.05367 -0.19500
O 	O 	0.65406 0.39231 0.96788 -0.19400
C 	C 	0.78920 0.42099 0.04168 -0.02400
H 	H 	0.79215 0.42378 0.00247 0.05100
H 	H 	0.81295 0.41857 0.05731 0.05200
H 	H 	0.77840 0.44334 0.05700 0.03800
C 	C 	0.65192 0.41543 0.93075 -0.02300
H 	H 	0.65663 0.44067 0.94344 0.03400
H 	H 	0.62766 0.41509 0.91661 0.03900
H 	H 	0.66791 0.40914 0.90083 0.03300
C 	C 	0.64669 0.74387 0.03736 -0.12500
C 	C 	0.61577 0.74641 0.05526 0.16500
C 	C 	0.59973 0.71820 0.06970 -0.10400
C 	C 	0.61499 0.68791 0.07059 -0.01000
C 	C 	0.64680 0.68595 0.05766 0.09300
C 	C 	0.66216 0.71358 0.03967 -0.03100
H 	H 	0.57540 0.71995 0.08046 0.06500
H 	H 	0.68610 0.71132 0.02734 0.04700
O 	O 	0.60049 0.77614 0.05608 -0.19000
O 	O 	0.66227 0.65633 0.05897 -0.19700
C 	C 	0.60451 0.79004 0.10158 -0.02500
H 	H 	0.59219 0.77549 0.12938 0.03700
H 	H 	0.59400 0.81480 0.10137 0.05200
H 	H 	0.62973 0.79288 0.11087 0.04800
C 	C 	0.67719 0.65325 0.10355 -0.02300
H 	H 	0.69524 0.67255 0.10868 0.03600
H 	H 	0.68938 0.62936 0.10476 0.04100
H 	H 	0.65998 0.65350 0.13335 0.03800
