data_crystal

_cell_length_a 18.70386
_cell_length_b 18.87417
_cell_length_c 35.01109
_cell_angle_alpha 95.43448
_cell_angle_beta  95.43446
_cell_angle_gamma 126.43755

_symmetry_space_group_name_	'P 1'
_symmetry_space_group_name_H-M	'P 1'

loop_
_symmetry_equiv_pos_as_xyz
  x,y,z

loop_
_atom_site_label
_atom_site_type_symbol
_atom_site_fract_x
_atom_site_fract_y
_atom_site_fract_z
_atom_site_charge
C 	C 	0.87601 0.96320 0.95880 0.00800
C 	C 	0.96808 0.01326 0.95686 -0.04800
C 	C 	0.01101 0.97274 0.95743 0.00900
C 	C 	0.96105 0.88102 0.95758 -0.06900
C 	C 	0.86889 0.82993 0.95908 0.02700
C 	C 	0.82612 0.87115 0.96001 -0.06900
H 	H 	0.00705 0.08444 0.95660 0.04200
H 	H 	0.99443 0.84971 0.95748 0.04700
H 	H 	0.75533 0.83247 0.96227 0.04400
C 	C 	0.97925 0.07383 0.50284 0.04900
C 	C 	0.92676 0.98233 0.50442 -0.09800
C 	C 	0.96578 0.93798 0.50377 0.04600
C 	C 	0.05797 0.98563 0.50303 -0.10000
C 	C 	0.11161 0.07769 0.50295 0.04900
C 	C 	0.07220 0.12197 0.50257 -0.09400
H 	H 	0.85511 0.94515 0.50478 0.05100
H 	H 	0.08806 0.95111 0.50257 0.05100
H 	H 	0.11316 0.19288 0.50158 0.05000
Cu	Cu	0.72032 0.30443 0.95486 0.92600
Cu	Cu	0.72445 0.25053 0.04074 0.86500
Cu	Cu	0.57695 0.25376 0.00537 0.89100
Cu	Cu	0.54202 0.28043 0.92295 0.89300
C 	C 	0.66726 0.28648 0.87278 0.29700
O 	O 	0.76867 0.43283 0.95133 -0.37200
C 	C 	0.64255 0.29577 0.09146 0.29400
O 	O 	0.57907 0.22455 0.95159 -0.63400
O 	O 	0.71084 0.32305 0.01018 -0.64800
O 	O 	0.78583 0.25065 0.96023 -0.37600
O 	O 	0.69502 0.15965 0.99955 -0.43800
O 	O 	0.58904 0.27130 0.87507 -0.39300
O 	O 	0.44628 0.17913 0.99702 -0.38000
C 	C 	0.39494 0.17562 0.96711 0.29700
C 	C 	0.72167 0.46208 0.95853 0.29200
O 	O 	0.63823 0.40619 0.96337 -0.39400
O 	O 	0.43010 0.23531 0.94415 -0.39800
O 	O 	0.70696 0.27006 0.89993 -0.37500
C 	C 	0.75083 0.17787 0.97543 0.29200
O 	O 	0.57468 0.26445 0.06216 -0.39300
O 	O 	0.71871 0.31142 0.08532 -0.42800
H 	H 	0.54470 0.15951 0.94166 0.16200
H 	H 	0.74517 0.38650 0.02311 0.16700
Cu	Cu	0.64594 0.23780 0.50883 0.92600
Cu	Cu	0.70240 0.24001 0.42255 0.86800
Cu	Cu	0.69345 0.38134 0.46023 0.89600
Cu	Cu	0.65514 0.40487 0.53974 0.89200
C 	C 	0.67756 0.29898 0.59163 0.29500
O 	O 	0.51585 0.18714 0.51179 -0.36600
C 	C 	0.64780 0.31914 0.37424 0.29400
O 	O 	0.72155 0.37735 0.51374 -0.64000
O 	O 	0.62754 0.24901 0.45378 -0.64200
O 	O 	0.70113 0.17456 0.50225 -0.37900
O 	O 	0.79344 0.26687 0.46355 -0.44500
O 	O 	0.64088 0.33925 0.58362 -0.39200
O 	O 	0.76438 0.51035 0.46992 -0.38800
C 	C 	0.76406 0.55921 0.49944 0.29700
C 	C 	0.48192 0.22721 0.49972 0.28900
O 	O 	0.53643 0.31054 0.49510 -0.40000
O 	O 	0.70625 0.52214 0.52341 -0.40100
O 	O 	0.68227 0.25033 0.56370 -0.37100
C 	C 	0.77457 0.21019 0.48705 0.29500
O 	O 	0.68542 0.38692 0.40397 -0.39200
O 	O 	0.63969 0.24609 0.37830 -0.42600
H 	H 	0.78703 0.41499 0.52492 0.15900
H 	H 	0.56361 0.21360 0.44045 0.16800
C 	C 	0.71418 0.36187 0.77605 -0.09400
C 	C 	0.71354 0.29393 0.75562 0.00400
C 	C 	0.71407 0.23286 0.77584 0.02200
C 	C 	0.70273 0.23322 0.81498 -0.01400
C 	C 	0.69603 0.29698 0.83454 -0.10700
C 	C 	0.70814 0.36544 0.81572 0.09500
C 	C 	0.70515 0.28328 0.71258 0.00100
C 	C 	0.72345 0.16548 0.75549 -0.17100
H 	H 	0.69629 0.18227 0.82976 0.03700
C 	C 	0.71221 0.44093 0.83745 -0.20400
H 	H 	0.71710 0.41068 0.76079 0.04900
C 	C 	0.61897 0.22810 0.68797 0.02400
C 	C 	0.61181 0.22986 0.64785 -0.01400
C 	C 	0.68900 0.28723 0.63217 -0.10600
C 	C 	0.77545 0.33980 0.65644 0.08900
C 	C 	0.78282 0.33705 0.69652 -0.09100
C 	C 	0.53422 0.17225 0.70474 -0.17100
H 	H 	0.54562 0.18932 0.62904 0.03800
C 	C 	0.85907 0.40433 0.64050 -0.20000
H 	H 	0.84878 0.37954 0.71552 0.04800
H 	H 	0.74214 0.49844 0.82193 0.06400
H 	H 	0.75521 0.46594 0.86692 0.07300
H 	H 	0.64291 0.41697 0.84032 0.06500
H 	H 	0.78054 0.19907 0.73947 0.06200
H 	H 	0.66008 0.11257 0.73452 0.06000
H 	H 	0.73745 0.13299 0.77667 0.05700
H 	H 	0.47287 0.12842 0.68143 0.05800
H 	H 	0.52606 0.21681 0.72361 0.06200
H 	H 	0.53800 0.12829 0.72233 0.06100
H 	H 	0.92172 0.43011 0.66131 0.06100
H 	H 	0.86062 0.46209 0.63484 0.05700
H 	H 	0.85935 0.37059 0.61288 0.06500
C 	C 	0.53992 0.26953 0.26896 -0.09400
C 	C 	0.61591 0.33249 0.25384 0.00200
C 	C 	0.69689 0.40258 0.27968 0.02100
C 	C 	0.70420 0.40160 0.31988 -0.01800
C 	C 	0.63134 0.33248 0.33448 -0.11200
C 	C 	0.54674 0.26965 0.30928 0.09400
C 	C 	0.61462 0.31668 0.21140 0.00400
C 	C 	0.77764 0.47448 0.26424 -0.17000
H 	H 	0.76824 0.45169 0.33949 0.03300
C 	C 	0.46491 0.20002 0.32489 -0.20000
H 	H 	0.47689 0.21753 0.24915 0.04800
C 	C 	0.63699 0.26175 0.19593 0.01900
C 	C 	0.64312 0.25380 0.15636 -0.01500
C 	C 	0.62800 0.30033 0.13205 -0.11400
C 	C 	0.60367 0.35386 0.14728 0.09700
C 	C 	0.59567 0.36031 0.18681 -0.09500
C 	C 	0.65580 0.21270 0.22168 -0.16800
H 	H 	0.66078 0.21204 0.14449 0.02100
C 	C 	0.58697 0.40458 0.12179 -0.20200
H 	H 	0.57733 0.40142 0.19871 0.04800
H 	H 	0.46773 0.14416 0.32923 0.06700
H 	H 	0.40132 0.17233 0.30432 0.06100
H 	H 	0.46227 0.22985 0.35313 0.06300
H 	H 	0.75737 0.50368 0.24376 0.06000
H 	H 	0.80634 0.44541 0.24872 0.05800
H 	H 	0.83145 0.53002 0.28817 0.05500
H 	H 	0.67188 0.17220 0.20509 0.05200
H 	H 	0.59552 0.16644 0.23443 0.05900
H 	H 	0.71445 0.26148 0.24560 0.05800
H 	H 	0.52408 0.35665 0.09967 0.07500
H 	H 	0.64484 0.44523 0.10678 0.06500
H 	H 	0.57906 0.45117 0.13914 0.06100
C 	C 	0.80724 0.68716 0.46719 -0.01800
C 	C 	0.81610 0.65619 0.50085 -0.10600
C 	C 	0.87313 0.71808 0.53575 0.08800
C 	C 	0.91782 0.80987 0.53670 -0.08300
C 	C 	0.90978 0.84082 0.50294 -0.01700
C 	C 	0.85467 0.77919 0.46779 0.03100
C 	C 	0.84503 0.81113 0.43110 -0.17400
H 	H 	0.76298 0.63942 0.44054 0.04100
H 	H 	0.96073 0.85763 0.56353 0.04500
C 	C 	0.88638 0.68676 0.57200 -0.19500
H 	H 	0.80743 0.75563 0.40527 0.05700
H 	H 	0.91270 0.86353 0.42487 0.06000
H 	H 	0.80750 0.83911 0.43471 0.05800
H 	H 	0.89926 0.63715 0.56473 0.05600
H 	H 	0.82514 0.65573 0.58540 0.06300
H 	H 	0.94530 0.74336 0.59402 0.05900
C 	C 	0.84106 0.14162 0.45813 -0.01600
C 	C 	0.82867 0.17715 0.49165 -0.11800
C 	C 	0.87231 0.18559 0.52892 0.09900
C 	C 	0.92424 0.15432 0.53208 -0.08700
C 	C 	0.93506 0.11721 0.49856 -0.01400
C 	C 	0.89479 0.11255 0.46125 0.02700
C 	C 	0.90654 0.07392 0.42479 -0.17200
H 	H 	0.80847 0.13631 0.42954 0.01200
H 	H 	0.95527 0.15775 0.56067 0.04800
C 	C 	0.86432 0.22828 0.56524 -0.20600
H 	H 	0.87858 0.08322 0.39795 0.05300
H 	H 	0.87096 0.00098 0.42328 0.06000
H 	H 	0.97951 0.10768 0.42497 0.06100
H 	H 	0.79404 0.18435 0.57061 0.08700
H 	H 	0.88216 0.29453 0.56169 0.06900
H 	H 	0.91076 0.23939 0.59141 0.06500
C 	C 	0.35628 0.17537 0.53560 -0.02200
C 	C 	0.38633 0.18666 0.49991 -0.10700
C 	C 	0.32778 0.16897 0.46556 0.08900
C 	C 	0.23975 0.13998 0.46755 -0.08200
C 	C 	0.20921 0.12712 0.50315 -0.01800
C 	C 	0.26887 0.14779 0.53767 0.03300
C 	C 	0.23843 0.13720 0.57650 -0.17600
H 	H 	0.40181 0.19011 0.56198 0.03800
H 	H 	0.19384 0.12430 0.44113 0.04500
C 	C 	0.35867 0.18038 0.42681 -0.19700
H 	H 	0.29688 0.17251 0.60123 0.05800
H 	H 	0.19313 0.06499 0.57822 0.06300
H 	H 	0.20164 0.16604 0.58009 0.06300
H 	H 	0.38793 0.14434 0.42157 0.05900
H 	H 	0.41060 0.25269 0.42672 0.06700
H 	H 	0.30172 0.15300 0.40215 0.06000
C 	C 	0.73196 0.57888 0.92673 -0.01800
C 	C 	0.76032 0.55672 0.95893 -0.11200
C 	C 	0.81426 0.62222 0.99317 0.09900
C 	C 	0.84166 0.70983 0.99408 -0.07600
C 	C 	0.81867 0.73363 0.96083 -0.01100
C 	C 	0.76245 0.66725 0.92700 0.02800
C 	C 	0.73567 0.69046 0.89101 -0.17300
H 	H 	0.68514 0.52698 0.90160 0.02200
H 	H 	0.88434 0.76069 0.02012 0.03600
C 	C 	0.84119 0.59866 0.02897 -0.20800
H 	H 	0.69348 0.63150 0.86672 0.05500
H 	H 	0.79698 0.74354 0.88064 0.06100
H 	H 	0.69587 0.71456 0.89779 0.06000
H 	H 	0.87655 0.56987 0.02152 0.06300
H 	H 	0.77997 0.54887 0.04039 0.06000
H 	H 	0.88761 0.65845 0.05258 0.06000
C 	C 	0.81439 0.10626 0.00378 -0.02300
C 	C 	0.78414 0.12400 0.97041 -0.10700
C 	C 	0.77737 0.08278 0.93292 0.09700
C 	C 	0.80348 0.02648 0.92956 -0.08700
C 	C 	0.83447 0.00955 0.96302 0.01500
C 	C 	0.83855 0.04860 0.00041 0.00800
C 	C 	0.87125 0.03114 0.03679 -0.15500
H 	H 	0.81877 0.13722 0.03251 0.01100
H 	H 	0.80140 0.99724 0.90089 0.04200
C 	C 	0.74368 0.09935 0.89651 -0.20400
H 	H 	0.86364 0.06065 0.06364 0.04900
H 	H 	0.94389 0.06102 0.03894 0.05400
H 	H 	0.83147 0.95785 0.03590 0.04900
H 	H 	0.79376 0.16997 0.89328 0.08500
H 	H 	0.67776 0.08598 0.89815 0.07500
H 	H 	0.73336 0.05499 0.86987 0.06600
C 	C 	0.26242 0.12471 0.99823 -0.00400
C 	C 	0.29659 0.11902 0.96508 -0.10800
C 	C 	0.23652 0.06444 0.92942 0.08800
C 	C 	0.14363 0.02090 0.92694 -0.07900
C 	C 	0.10956 0.02711 0.95999 -0.00100
C 	C 	0.16911 0.07813 0.99612 0.03300
C 	C 	0.13370 0.08488 0.03219 -0.18100
H 	H 	0.30871 0.16677 0.02553 0.03100
H 	H 	0.09743 0.98052 0.89943 0.04000
C 	C 	0.27111 0.05334 0.89385 -0.18600
H 	H 	0.18751 0.11901 0.05880 0.05800
H 	H 	0.07863 0.01699 0.03686 0.06100
H 	H 	0.10742 0.12388 0.02886 0.05800
H 	H 	0.32287 0.04313 0.90190 0.05600
H 	H 	0.30124 0.11385 0.88038 0.06100
H 	H 	0.21572 0.99407 0.87165 0.05400
