data_crystal

_cell_length_a 13.61830
_cell_length_b 14.36255
_cell_length_c 35.03976
_cell_angle_alpha 89.76104
_cell_angle_beta  89.76499
_cell_angle_gamma 119.41733

_symmetry_space_group_name_	'P 1'
_symmetry_space_group_name_H-M	'P 1'

loop_
_symmetry_equiv_pos_as_xyz
  x,y,z

loop_
_atom_site_label
_atom_site_type_symbol
_atom_site_fract_x
_atom_site_fract_y
_atom_site_fract_z
_atom_site_charge
Ni	Ni	0.02142 0.88324 0.75138 1.12000
Ni	Ni	0.14274 0.13075 0.72484 1.12500
O 	O 	0.00953 0.00361 0.73985 -0.69900
H 	H 	0.00457 0.02555 0.76595 0.15500
C 	C 	0.18490 0.29839 0.21778 0.29500
C 	C 	0.07827 0.19832 0.32945 0.27600
C 	C 	0.11060 0.98029 0.19505 0.28600
C 	C 	0.97151 0.87515 0.28315 0.26500
O 	O 	0.09216 0.30408 0.22059 -0.35200
O 	O 	0.88497 0.86615 0.26240 -0.37500
O 	O 	0.06453 0.26205 0.30523 -0.35600
O 	O 	0.00003 0.93439 0.19143 -0.36100
C 	C 	0.26377 0.35697 0.18628 -0.05600
C 	C 	0.23961 0.31787 0.14852 0.01000
C 	C 	0.15784 0.20864 0.14100 0.09700
N 	N 	0.09179 0.12177 0.13378 -0.09100
C 	C 	0.25255 0.91786 0.19484 -0.01500
H 	H 	0.26413 0.93376 0.22521 0.04300
C 	C 	0.38961 0.85306 0.19719 0.08200
N 	N 	0.44899 0.83321 0.21463 -0.10300
C 	C 	0.95034 0.21710 0.42446 -0.00800
C 	C 	0.96235 0.20884 0.38500 -0.01400
C 	C 	0.05849 0.20438 0.37122 -0.05000
H 	H 	0.87723 0.22050 0.43503 0.04600
C 	C 	0.92643 0.87205 0.36459 0.07000
N 	N 	0.91120 0.93717 0.37821 -0.11900
C 	C 	0.04344 0.67599 0.52360 -0.10300
H 	H 	0.03287 0.74583 0.52034 0.08300
C 	C 	0.18444 0.26657 0.60617 0.08800
N 	N 	0.27479 0.32220 0.61710 -0.11000
C 	C 	0.03303 0.56434 0.01616 -0.09100
H 	H 	0.99264 0.60979 0.00704 0.06400
H 	H 	0.02819 0.16354 0.83213 0.04800
C 	C 	0.02669 0.25495 0.89838 0.09200
N 	N 	0.03789 0.22836 0.92852 -0.09900
C 	C 	0.63416 0.44611 0.99640 0.33400
C 	C 	0.62842 0.05781 0.93967 0.37400
C 	C 	0.87209 0.38832 0.00161 0.33200
C 	C 	0.42098 0.15360 0.92336 0.29100
C 	C 	0.88875 0.35806 0.88165 0.30900
C 	C 	0.66556 0.44794 0.86776 0.28400
Ni	Ni	0.62310 0.23438 0.98123 1.11500
Ni	Ni	0.64661 0.23578 0.88968 1.12600
Ni	Ni	0.79494 0.45287 0.93486 1.12300
O 	O 	0.57451 0.34103 0.00138 -0.38300
O 	O 	0.74053 0.49335 0.98374 -0.38000
O 	O 	0.80458 0.26305 0.88984 -0.38400
O 	O 	0.68032 0.12979 0.96591 -0.38200
O 	O 	0.58948 0.08210 0.90919 -0.37200
O 	O 	0.70826 0.49772 0.90039 -0.37600
O 	O 	0.77004 0.32046 0.01520 -0.36500
O 	O 	0.88768 0.40590 0.96508 -0.38100
O 	O 	0.68025 0.36634 0.85696 -0.37300
O 	O 	0.46029 0.13482 0.95626 -0.34300
O 	O 	0.48598 0.19758 0.89307 -0.37700
O 	O 	0.88130 0.44432 0.88907 -0.37600
O 	O 	0.66725 0.31295 0.93577 -0.71600
H 	H 	0.60766 0.33267 0.93388 0.15900
C 	C 	0.86655 0.22643 0.54111 0.29100
C 	C 	0.58455 0.40895 0.48543 0.32900
C 	C 	0.90248 0.50391 0.55080 0.34700
C 	C 	0.54016 0.11472 0.48445 0.30300
C 	C 	0.60599 0.39212 0.61019 0.30200
C 	C 	0.53902 0.09665 0.60345 0.28100
Ni	Ni	0.75030 0.32713 0.49731 1.11300
Ni	Ni	0.51609 0.24270 0.54626 1.12300
Ni	Ni	0.74365 0.30187 0.59049 1.12800
O 	O 	0.82630 0.23161 0.50702 -0.36100
O 	O 	0.87562 0.29272 0.56842 -0.37600
O 	O 	0.55388 0.37729 0.57713 -0.36600
O 	O 	0.69223 0.43706 0.48857 -0.37100
O 	O 	0.50637 0.31401 0.49700 -0.36900
O 	O 	0.65127 0.14529 0.60333 -0.36700
O 	O 	0.89826 0.45257 0.51917 -0.35800
O 	O 	0.82379 0.45962 0.57719 -0.39100
O 	O 	0.48447 0.14889 0.59336 -0.35800
O 	O 	0.61302 0.20659 0.46776 -0.36700
O 	O 	0.47390 0.11285 0.51284 -0.35800
O 	O 	0.63120 0.32052 0.62120 -0.38000
O 	O 	0.66884 0.27133 0.54284 -0.71100
H 	H 	0.65703 0.19849 0.54062 0.15100
C 	C 	0.18627 0.06641 0.80120 0.28400
C 	C 	0.84500 0.79240 0.68828 0.30900
C 	C 	0.21612 0.97705 0.69811 0.27700
C 	C 	0.80801 0.82125 0.78856 0.28900
C 	C 	0.00825 0.10111 0.65594 0.31400
C 	C 	0.98942 0.19826 0.75994 0.27100
Ni	Ni	0.86862 0.98805 0.72337 1.11300
O 	O 	0.16512 0.97501 0.78470 -0.37200
O 	O 	0.19473 0.14758 0.78017 -0.36400
O 	O 	0.92997 0.09518 0.67986 -0.36100
O 	O 	0.87803 0.77424 0.72130 -0.37400
O 	O 	0.84144 0.88038 0.68221 -0.38800
O 	O 	0.06951 0.22242 0.73389 -0.35800
O 	O 	0.11609 0.89517 0.70380 -0.36900
O 	O 	0.24702 0.06827 0.71560 -0.35000
O 	O 	0.89094 0.10820 0.75813 -0.35800
O 	O 	0.91522 0.86480 0.79598 -0.38700
O 	O 	0.77077 0.86606 0.76267 -0.36000
O 	O 	0.10508 0.11414 0.66886 -0.36900
C 	C 	0.35258 0.71906 0.35821 0.28900
C 	C 	0.08986 0.37176 0.45902 0.30200
C 	C 	0.04697 0.60276 0.38089 0.31200
C 	C 	0.38639 0.48271 0.44256 0.31400
C 	C 	0.12147 0.66894 0.50243 0.34100
C 	C 	0.42292 0.82932 0.48062 0.33400
Ni	Ni	0.20325 0.51327 0.39668 1.11600
Ni	Ni	0.27464 0.58313 0.48556 1.12100
Ni	Ni	0.23746 0.73699 0.42796 1.12300
O 	O 	0.32580 0.61720 0.35925 -0.35900
O 	O 	0.28275 0.75061 0.37180 -0.37800
O 	O 	0.13817 0.58640 0.50648 -0.36900
O 	O 	0.07529 0.43224 0.43506 -0.38100
O 	O 	0.17547 0.41805 0.48268 -0.36100
O 	O 	0.39586 0.82716 0.44443 -0.39700
O 	O 	0.09628 0.55249 0.36576 -0.35200
O 	O 	0.07418 0.63952 0.41544 -0.38600
O 	O 	0.38411 0.73922 0.50179 -0.37100
O 	O 	0.30090 0.44467 0.41745 -0.36600
O 	O 	0.40169 0.55767 0.46786 -0.36800
O 	O 	0.18869 0.75079 0.48084 -0.40000
O 	O 	0.26644 0.62124 0.43360 -0.71200
H 	H 	0.34689 0.65417 0.42667 0.16800
C 	C 	0.60765 0.68086 0.01597 0.31300
C 	C 	0.35098 0.80372 0.11475 0.29600
C 	C 	0.40977 0.57031 0.08990 0.29400
C 	C 	0.57176 0.01068 0.06134 0.33000
C 	C 	0.14703 0.61629 0.01879 0.33300
C 	C 	0.41881 0.81632 0.95715 0.29900
Ni	Ni	0.54835 0.80058 0.07337 1.11600
Ni	Ni	0.34501 0.82912 0.03410 1.11900
Ni	Ni	0.36851 0.62779 0.00969 1.11700
O 	O 	0.64975 0.77016 0.03608 -0.36300
O 	O 	0.52277 0.65538 0.99237 -0.37100
O 	O 	0.20241 0.71746 0.00904 -0.38700
O 	O 	0.45997 0.83293 0.11715 -0.35700
O 	O 	0.29568 0.75327 0.08451 -0.38700
O 	O 	0.36038 0.70881 0.96147 -0.35400
O 	O 	0.50869 0.65343 0.09394 -0.37700
O 	O 	0.37123 0.53539 0.05491 -0.36200
O 	O 	0.40356 0.87960 0.98124 -0.36600
O 	O 	0.61585 0.95219 0.05140 -0.40400
O 	O 	0.46086 0.97096 0.05967 -0.40100
O 	O 	0.20219 0.56367 0.02354 -0.37000
O 	O 	0.43525 0.76002 0.03614 -0.70100
H 	H 	0.49255 0.80140 0.01685 0.14300
C 	C 	0.74970 0.00627 0.27672 0.32800
C 	C 	0.85171 0.12904 0.17999 0.29600
Ni	Ni	0.96238 0.20465 0.25688 1.11600
Ni	Ni	0.13539 0.10601 0.26224 1.12500
Ni	Ni	0.89491 0.97040 0.22122 1.11300
O 	O 	0.81885 0.10500 0.28767 -0.36500
O 	O 	0.75645 0.97281 0.24221 -0.39000
O 	O 	0.16776 0.07590 0.20968 -0.37000
O 	O 	0.21853 0.26327 0.24704 -0.36700
O 	O 	0.84942 0.17270 0.21258 -0.35600
O 	O 	0.89773 0.06664 0.17744 -0.35700
O 	O 	0.07796 0.94991 0.27611 -0.37700
O 	O 	0.12798 0.14348 0.31799 -0.36200
O 	O 	0.98975 0.08751 0.25286 -0.71200
H 	H 	0.95796 0.05362 0.27769 0.14200
C 	C 	0.34713 0.46253 0.19231 -0.00400
C 	C 	0.39774 0.53239 0.16142 0.00500
C 	C 	0.36414 0.49578 0.12331 -0.05400
C 	C 	0.29036 0.38709 0.11744 -0.00300
H 	H 	0.36870 0.49209 0.22125 0.05500
H 	H 	0.26988 0.35631 0.08864 0.06100
C 	C 	0.48724 0.63938 0.16927 0.09300
N 	N 	0.55970 0.72462 0.17562 -0.11500
C 	C 	0.63950 0.10070 0.08691 -0.08800
C 	C 	0.75684 0.15529 0.08110 -0.00100
C 	C 	0.82911 0.17413 0.11205 0.00700
C 	C 	0.78218 0.13300 0.14832 -0.05700
C 	C 	0.66821 0.10217 0.15494 -0.01300
C 	C 	0.60005 0.09713 0.12423 0.02000
H 	H 	0.79084 0.17163 0.05230 0.05500
H 	H 	0.63422 0.08610 0.18374 0.06700
C 	C 	0.50477 0.11285 0.13075 0.09100
C 	C 	0.94603 0.25340 0.10802 0.07700
N 	N 	0.42917 0.12700 0.13598 -0.10200
N 	N 	0.03913 0.31892 0.10429 -0.09800
C 	C 	0.30443 0.86295 0.13584 -0.07400
C 	C 	0.23076 0.88834 0.11604 0.00800
C 	C 	0.15731 0.91256 0.13570 -0.00400
C 	C 	0.17246 0.93434 0.17500 -0.05000
C 	C 	0.31531 0.87796 0.17571 0.01200
H 	H 	0.22456 0.88101 0.08521 0.01200
C 	C 	0.06083 0.90499 0.11589 0.11100
N 	N 	0.98338 0.89813 0.09988 -0.12100
C 	C 	0.45637 0.79652 0.33911 -0.06500
C 	C 	0.45597 0.87673 0.31628 -0.00400
C 	C 	0.55399 0.95032 0.29732 -0.00000
C 	C 	0.65157 0.94049 0.29991 -0.08200
C 	C 	0.65297 0.86264 0.32339 -0.00300
C 	C 	0.55733 0.79294 0.34407 0.00700
H 	H 	0.37915 0.88119 0.31309 0.04800
H 	H 	0.72891 0.85632 0.32546 0.04400
C 	C 	0.56544 0.72234 0.37176 0.08500
C 	C 	0.55386 0.03541 0.27519 0.11100
N 	N 	0.57329 0.66640 0.39387 -0.11100
N 	N 	0.55361 0.10352 0.25751 -0.11200
C 	C 	0.04751 0.25968 0.44683 -0.06500
C 	C 	0.13520 0.20401 0.39829 -0.01300
C 	C 	0.12673 0.22818 0.43681 0.00900
H 	H 	0.20216 0.18856 0.38939 0.05700
C 	C 	0.19400 0.21531 0.46574 0.09600
C 	C 	0.89266 0.23090 0.35982 0.08100
N 	N 	0.24752 0.20462 0.48910 -0.11000
N 	N 	0.83667 0.25081 0.34047 -0.10700
C 	C 	0.95339 0.78446 0.30782 -0.05300
C 	C 	0.96520 0.70067 0.29214 -0.01400
C 	C 	0.98157 0.63044 0.31590 0.01000
C 	C 	0.98994 0.64651 0.35591 -0.07800
C 	C 	0.96093 0.72017 0.37148 -0.01000
C 	C 	0.94545 0.79063 0.34771 -0.00400
H 	H 	0.96617 0.69273 0.26138 0.04800
H 	H 	0.95738 0.72728 0.40220 0.04400
C 	C 	0.98380 0.53982 0.29911 0.09200
N 	N 	0.98556 0.46729 0.28556 -0.11900
C 	C 	0.53780 0.02423 0.47361 -0.08800
C 	C 	0.48203 0.92477 0.49730 -0.13200
H 	H 	0.58524 0.02539 0.44840 0.08800
H 	H 	0.49153 0.92975 0.52813 0.08500
C 	C 	0.98640 0.60339 0.55616 -0.12500
H 	H 	0.99477 0.63914 0.58404 0.08600
C 	C 	0.44797 0.43221 0.44540 -0.09700
C 	C 	0.55450 0.47550 0.46801 -0.11100
H 	H 	0.42330 0.36066 0.42862 0.08600
H 	H 	0.61690 0.55940 0.46456 0.09200
C 	C 	0.92402 0.16354 0.54696 -0.06800
C 	C 	0.03788 0.22105 0.55760 0.00100
C 	C 	0.07180 0.19720 0.59245 0.01800
C 	C 	0.99312 0.10854 0.61434 -0.07300
C 	C 	0.89105 0.03495 0.59732 0.01800
C 	C 	0.85993 0.06015 0.56226 0.01800
H 	H 	0.09391 0.29476 0.54277 0.05800
H 	H 	0.83517 0.96026 0.61168 0.03900
C 	C 	0.76444 0.97979 0.54197 0.06000
N 	N 	0.68846 0.91425 0.52565 -0.10600
C 	C 	0.47652 0.00204 0.62766 -0.03800
C 	C 	0.36622 0.93078 0.61622 -0.03000
C 	C 	0.27654 0.91833 0.63947 0.00700
C 	C 	0.29989 0.96175 0.67664 -0.04600
C 	C 	0.40840 0.99960 0.69157 -0.05800
C 	C 	0.49664 0.01469 0.66712 0.03700
H 	H 	0.35052 0.90562 0.58667 0.04900
H 	H 	0.42495 0.02258 0.72130 0.07800
C 	C 	0.60934 0.05715 0.68176 0.08800
C 	C 	0.16541 0.87630 0.62330 0.08700
N 	N 	0.69974 0.09129 0.69353 -0.11200
N 	N 	0.07648 0.84341 0.61038 -0.11100
C 	C 	0.67102 0.50090 0.62724 -0.06200
C 	C 	0.63308 0.57547 0.62362 -0.00600
C 	C 	0.69196 0.67572 0.64161 0.00700
C 	C 	0.79538 0.70477 0.66038 -0.06500
C 	C 	0.83983 0.63603 0.65883 -0.00600
C 	C 	0.77258 0.53083 0.64785 0.01300
H 	H 	0.55567 0.55410 0.60845 0.05400
H 	H 	0.92148 0.66011 0.67148 0.05200
C 	C 	0.80416 0.45334 0.66074 0.06700
C 	C 	0.64471 0.74640 0.64114 0.08600
N 	N 	0.82944 0.39141 0.67106 -0.11800
N 	N 	0.60664 0.80288 0.64073 -0.11400
C 	C 	0.95789 0.44833 0.02541 -0.12400
H 	H 	0.95347 0.42241 0.05480 0.09000
C 	C 	0.61233 0.95828 0.94485 -0.15400
C 	C 	0.50664 0.86123 0.93271 -0.09200
H 	H 	0.66385 0.94652 0.96584 0.09400
H 	H 	0.51341 0.81206 0.91053 0.07900
C 	C 	0.59006 0.50513 0.00936 -0.12400
C 	C 	0.65856 0.62152 0.01621 -0.10500
H 	H 	0.50144 0.46493 0.01756 0.08700
H 	H 	0.74154 0.65297 0.02885 0.08600
C 	C 	0.97761 0.36470 0.85630 -0.07400
C 	C 	0.99098 0.41329 0.82039 -0.01200
C 	C 	0.00853 0.36592 0.78810 0.01100
C 	C 	0.01155 0.26971 0.79225 -0.05100
C 	C 	0.02052 0.23480 0.82874 -0.01100
C 	C 	0.01271 0.28812 0.86079 0.02100
H 	H 	0.97505 0.47983 0.81705 0.05500
C 	C 	0.02297 0.41583 0.75114 0.09700
N 	N 	0.03529 0.45627 0.72155 -0.09900
C 	C 	0.29982 0.11223 0.91721 -0.07500
C 	C 	0.27347 0.18706 0.90143 0.00700
C 	C 	0.24659 0.17956 0.86236 -0.01000
C 	C 	0.21086 0.08040 0.84332 -0.02100
C 	C 	0.19748 0.99229 0.86538 -0.06800
C 	C 	0.23819 0.00794 0.90304 0.06300
H 	H 	0.30209 0.26267 0.91587 0.04500
H 	H 	0.15685 0.91269 0.85335 0.06500
C 	C 	0.21378 0.91745 0.92692 0.05800
C 	C 	0.27410 0.27656 0.84162 0.09700
N 	N 	0.19247 0.84392 0.94596 -0.09500
N 	N 	0.29681 0.35473 0.82517 -0.10800
C 	C 	0.64506 0.50874 0.83765 -0.05400
C 	C 	0.70385 0.52568 0.80347 -0.01100
C 	C 	0.77039 0.63021 0.79084 0.01500
C 	C 	0.73633 0.70718 0.79987 -0.06300
C 	C 	0.64935 0.67891 0.82696 -0.00600
C 	C 	0.60714 0.58144 0.84732 0.00500
H 	H 	0.72218 0.46465 0.79315 0.05700
H 	H 	0.62233 0.73597 0.83463 0.04500
C 	C 	0.52874 0.55830 0.87850 0.09100
C 	C 	0.88618 0.66235 0.78124 0.06100
N 	N 	0.46591 0.53968 0.90351 -0.11100
N 	N 	0.97874 0.68679 0.77388 -0.14900
