data_crystal

_cell_length_a 16.48378
_cell_length_b 15.64627
_cell_length_c 38.44419
_cell_angle_alpha 89.88031
_cell_angle_beta  89.88275
_cell_angle_gamma 119.37261

_symmetry_space_group_name_	'P 1'
_symmetry_space_group_name_H-M	'P 1'

loop_
_symmetry_equiv_pos_as_xyz
  x,y,z

loop_
_atom_site_label
_atom_site_type_symbol
_atom_site_fract_x
_atom_site_fract_y
_atom_site_fract_z
_atom_site_charge
Ni	Ni	0.11122 0.96911 0.73308 1.10000
Ni	Ni	0.10196 0.17682 0.73469 1.12600
O 	O 	0.04499 0.03787 0.74136 -0.68700
H 	H 	0.05568 0.04119 0.76663 0.13600
O 	O 	0.00072 0.16971 0.21969 -0.36400
O 	O 	0.04513 0.87596 0.28768 -0.34800
O 	O 	0.00805 0.87569 0.21240 -0.36600
C 	C 	0.08632 0.45031 0.49949 -0.05500
C 	C 	0.10677 0.50858 0.52956 -0.03200
C 	C 	0.09897 0.67647 0.01402 -0.07300
C 	C 	0.08639 0.68023 0.97811 -0.00400
H 	H 	0.14593 0.70790 0.96075 0.05000
C 	C 	0.23878 0.14839 0.77665 0.30100
C 	C 	0.21695 0.14783 0.68467 0.30600
O 	O 	0.21267 0.05514 0.76982 -0.33600
O 	O 	0.22675 0.20341 0.75356 -0.35800
O 	O 	0.06376 0.19696 0.78232 -0.36700
O 	O 	0.20358 0.05948 0.69327 -0.32200
O 	O 	0.14795 0.16651 0.68734 -0.37100
O 	O 	0.03909 0.86407 0.77232 -0.36000
C 	C 	0.19889 0.80246 0.41223 0.30900
C 	C 	0.13651 0.50199 0.46801 0.29100
C 	C 	0.22175 0.57480 0.34624 0.30000
Ni	Ni	0.27638 0.70585 0.46386 1.11300
Ni	Ni	0.29207 0.55129 0.41345 1.12500
Ni	Ni	0.34509 0.76584 0.38486 1.12700
O 	O 	0.23371 0.80505 0.44401 -0.36200
O 	O 	0.23225 0.78177 0.38413 -0.37100
O 	O 	0.31573 0.61980 0.49419 -0.37400
O 	O 	0.29547 0.66575 0.34490 -0.34600
O 	O 	0.20477 0.51654 0.37364 -0.37200
O 	O 	0.14570 0.58892 0.46307 -0.37200
O 	O 	0.18711 0.47120 0.44982 -0.35700
O 	O 	0.27938 0.66490 0.41863 -0.71500
H 	H 	0.21488 0.63986 0.41072 0.18100
C 	C 	0.25671 0.71787 0.13240 0.32600
C 	C 	0.13857 0.40971 0.08452 0.32900
C 	C 	0.17708 0.66396 0.02602 0.30900
Ni	Ni	0.31170 0.56591 0.11270 1.11600
Ni	Ni	0.35294 0.75370 0.06561 1.12600
Ni	Ni	0.26799 0.54330 0.02964 1.12600
O 	O 	0.26137 0.74036 0.02806 -0.38100
O 	O 	0.29258 0.66452 0.14402 -0.35900
O 	O 	0.24924 0.72767 0.09909 -0.38000
O 	O 	0.34502 0.64706 0.99263 -0.36400
O 	O 	0.17070 0.48792 0.10376 -0.37200
O 	O 	0.17790 0.41464 0.05422 -0.36200
O 	O 	0.16380 0.57444 0.02923 -0.37100
O 	O 	0.33207 0.62395 0.06856 -0.71800
C 	C 	0.04752 0.15381 0.19535 0.30900
C 	C 	0.07147 0.23238 0.28476 0.31500
C 	C 	0.09839 0.91089 0.21193 0.32500
C 	C 	0.09168 0.94748 0.31062 0.26600
Ni	Ni	0.12211 0.08399 0.25309 1.13000
O 	O 	0.15308 0.98453 0.23216 -0.37500
O 	O 	0.10839 0.12553 0.20394 -0.34600
O 	O 	0.14331 0.03967 0.29985 -0.32200
O 	O 	0.13679 0.21170 0.27396 -0.35700
C 	C 	0.04622 0.18904 0.15943 -0.06000
C 	C 	0.10612 0.18964 0.13292 0.12000
C 	C 	0.12684 0.25339 0.10450 -0.02600
C 	C 	0.08635 0.31398 0.10193 -0.09400
C 	C 	0.01170 0.29616 0.12400 0.14600
H 	H 	0.17802 0.25954 0.08548 0.07500
Br	Br	0.14763 0.09449 0.13172 -0.19800
C 	C 	0.14798 0.71287 0.17824 -0.02800
C 	C 	0.22524 0.76823 0.15674 -0.08400
C 	C 	0.26188 0.87056 0.15430 0.13200
C 	C 	0.21852 0.91556 0.17181 -0.03100
C 	C 	0.13881 0.85993 0.19210 -0.07500
C 	C 	0.10516 0.75815 0.19624 0.12900
H 	H 	0.11980 0.63425 0.18041 0.07700
H 	H 	0.24763 0.99433 0.16996 0.08100
C 	C 	0.18499 0.41019 0.27611 -0.03100
C 	C 	0.09616 0.33749 0.28733 -0.07500
C 	C 	0.03790 0.36794 0.30406 0.13500
C 	C 	0.07711 0.46452 0.31627 -0.03300
C 	C 	0.17370 0.52705 0.31402 -0.06700
C 	C 	0.22301 0.50581 0.28885 0.12500
Br	Br	0.34574 0.60292 0.27459 -0.19800
H 	H 	0.22624 0.39142 0.25905 0.07700
H 	H 	0.03509 0.48605 0.33174 0.08300
C 	C 	0.18501 0.94850 0.40073 -0.02600
C 	C 	0.13993 0.84686 0.40626 -0.08400
C 	C 	0.05450 0.78926 0.38947 0.13300
C 	C 	0.03340 0.82529 0.35942 -0.03400
C 	C 	0.09423 0.92144 0.34790 -0.05800
C 	C 	0.16355 0.98670 0.37125 0.10400
Br	Br	0.21983 0.12670 0.36671 -0.19100
H 	H 	0.24392 0.99633 0.41675 0.05700
H 	H 	0.30311 0.14628 0.49504 0.05100
C 	C 	0.04061 0.53366 0.54168 0.06800
S 	S 	0.07869 0.64403 0.56469 -0.01600
H 	H 	0.17840 0.55148 0.53787 0.05400
S 	S 	0.27186 0.39385 0.52483 -0.01300
H 	H 	0.24524 0.40964 0.55688 0.05900
C 	C 	0.31646 0.30679 0.65286 -0.03800
C 	C 	0.31120 0.22899 0.67332 -0.06800
H 	H 	0.25324 0.30436 0.64370 0.07600
H 	H 	0.04188 0.58861 0.09605 0.07000
S 	S 	0.37838 0.97732 0.91909 -0.03000
H 	H 	0.35332 0.01527 0.94648 0.07700
H 	H 	0.32947 0.79737 0.95431 0.05700
H 	H 	0.30736 0.26737 0.04444 0.06000
Br	Br	0.05609 0.41352 0.89243 -0.20400
H 	H 	0.07746 0.30830 0.83185 0.08300
C 	C 	0.27838 0.15347 0.83936 -0.03800
C 	C 	0.30241 0.19693 0.80623 -0.06600
C 	C 	0.38735 0.28618 0.80197 0.12900
C 	C 	0.34040 0.19415 0.86720 0.13500
Br	Br	0.29644 0.15308 0.91369 -0.21700
H 	H 	0.21059 0.08985 0.84371 0.07800
Br	Br	0.00506 0.68065 0.22784 -0.21900
C 	C 	0.02206 0.64935 0.03630 0.05100
S 	S 	0.03755 0.66623 0.08150 0.00400
O 	O 	0.01489 0.86412 0.69892 -0.35200
H 	H 	0.08413 0.62947 0.59955 0.06900
O 	O 	0.33056 0.45234 0.09166 -0.35900
S 	S 	0.39673 0.18167 0.49063 -0.01000
Br	Br	0.37242 0.95075 0.12766 -0.24500
H 	H 	0.37334 0.08763 0.03374 0.05500
C 	C 	0.39519 0.23896 0.68717 0.13100
C 	C 	0.40339 0.38778 0.64398 0.13400
Br	Br	0.40799 0.49150 0.61605 -0.22000
Br	Br	0.39776 0.13876 0.71537 -0.20500
C 	C 	0.37210 0.58920 0.48248 0.31300
O 	O 	0.39924 0.60021 0.37880 -0.36700
O 	O 	0.39134 0.59480 0.44953 -0.38100
O 	O 	0.41462 0.80021 0.45833 -0.38600
O 	O 	0.40436 0.88993 0.41603 -0.36400
C 	C 	0.37505 0.45726 0.06204 0.28400
C 	C 	0.41979 0.73568 0.99720 0.28800
O 	O 	0.35924 0.49245 0.03278 -0.36500
H 	H 	0.39559 0.63625 0.06365 0.16600
C 	C 	0.42423 0.03067 0.46894 0.02600
C 	C 	0.42260 0.08659 0.49740 0.01500
H 	H 	0.40470 0.04285 0.44329 0.05700
C 	C 	0.39252 0.47034 0.51928 0.04500
H 	H 	0.42617 0.36110 0.53793 0.06000
C 	C 	0.40451 0.83701 0.95121 -0.02500
C 	C 	0.38273 0.30917 0.04525 -0.01300
S 	S 	0.37904 0.15564 0.00992 0.01500
C 	C 	0.43043 0.27273 0.86121 -0.08600
Br	Br	0.41474 0.36704 0.76122 -0.20000
C 	C 	0.44752 0.92979 0.93546 0.04900
C 	C 	0.43558 0.88545 0.44708 0.32600
O 	O 	0.46390 0.76391 0.38985 -0.36700
O 	O 	0.44607 0.77537 0.02839 -0.37600
O 	O 	0.44995 0.79903 0.10522 -0.34900
C 	C 	0.44854 0.07051 0.53076 -0.03500
C 	C 	0.45172 0.95940 0.47412 -0.11800
C 	C 	0.45324 0.43357 0.52661 -0.01500
C 	C 	0.42831 0.56676 0.50635 -0.07400
C 	C 	0.45856 0.80110 0.96689 -0.06000
C 	C 	0.42696 0.40368 0.05949 -0.06000
C 	C 	0.43547 0.27296 0.02881 0.04400
C 	C 	0.45194 0.32083 0.82904 -0.02900
O 	O 	0.45233 0.65610 0.12043 -0.36600
C 	C 	0.44706 0.98214 0.53636 -0.05800
H 	H 	0.01078 0.70366 0.79953 0.08300
C 	C 	0.48051 0.32359 0.67959 -0.03700
C 	C 	0.47284 0.68876 0.38056 0.32800
C 	C 	0.47001 0.94108 0.50865 0.04900
H 	H 	0.45501 0.96226 0.56268 0.05900
C 	C 	0.48619 0.38854 0.65313 -0.08200
C 	C 	0.50600 0.29473 0.88590 0.32800
C 	C 	0.49384 0.75281 0.11789 0.30500
H 	H 	0.48031 0.78959 0.52738 0.04700
H 	H 	0.51969 0.38473 0.82486 0.07600
O 	O 	0.53449 0.23050 0.88970 -0.37700
C 	C 	0.52389 0.15398 0.54829 0.31000
O 	O 	0.51446 0.17070 0.58096 -0.35200
H 	H 	0.49676 0.81057 0.18373 0.08400
H 	H 	0.50645 0.60472 0.32420 0.08900
C 	C 	0.52485 0.62736 0.50433 -0.01000
O 	O 	0.53903 0.33032 0.60710 -0.39300
H 	H 	0.54399 0.32973 0.69010 0.07000
C 	C 	0.54534 0.98583 0.93456 -0.09800
C 	C 	0.53285 0.33195 0.02662 -0.06800
C 	C 	0.52452 0.45424 0.06275 0.03300
O 	O 	0.55873 0.38602 0.89618 -0.37400
C 	C 	0.55359 0.40550 0.62500 0.31500
S 	S 	0.53775 0.88432 0.51687 -0.00400
C 	C 	0.54885 0.49070 0.51952 -0.06300
C 	C 	0.55504 0.84924 0.96042 0.03700
C 	C 	0.01394 0.25557 0.84479 -0.01300
O 	O 	0.56276 0.33512 0.96570 -0.37200
H 	H 	0.55282 0.70196 0.49499 0.06700
C 	C 	0.56308 0.70827 0.36637 -0.08200
C 	C 	0.56312 0.81995 0.17483 -0.03000
C 	C 	0.56624 0.67066 0.33366 -0.02600
C 	C 	0.58357 0.32077 0.99722 0.30300
C 	C 	0.59169 0.09294 0.92973 0.33300
C 	C 	0.57628 0.80815 0.13959 -0.07000
C 	C 	0.58369 0.58722 0.50677 0.04200
C 	C 	0.57713 0.41750 0.04660 -0.01300
C 	C 	0.59840 0.94223 0.94472 -0.00700
S 	S 	0.58177 0.56893 0.08330 -0.00300
O 	O 	0.60369 0.14827 0.95688 -0.37000
C 	C 	0.61398 0.45815 0.53191 0.29700
O 	O 	0.60587 0.18317 0.53609 -0.38100
O 	O 	0.60255 0.37119 0.52245 -0.35500
H 	H 	0.59015 0.63746 0.05927 0.05300
Ni	Ni	0.61889 0.27019 0.61239 1.12200
Br	Br	0.61656 0.87026 0.24573 -0.20800
S 	S 	0.62161 0.79350 0.97161 -0.01900
O 	O 	0.63639 0.13194 0.90050 -0.36800
O 	O 	0.63221 0.48975 0.62062 -0.35900
C 	C 	0.63365 0.84025 0.19892 0.13000
C 	C 	0.64415 0.72198 0.31213 0.13100
C 	C 	0.64483 0.78824 0.37954 0.13200
H 	H 	0.65272 0.51033 0.69133 0.07900
Br	Br	0.65151 0.66226 0.26961 -0.19300
Br	Br	0.65346 0.82513 0.42755 -0.22300
H 	H 	0.65250 0.46069 0.04653 0.05800
Ni	Ni	0.66109 0.42845 0.93210 1.12200
O 	O 	0.65957 0.31575 0.00291 -0.35500
H 	H 	0.66252 0.82787 0.00318 0.06300
C 	C 	0.66349 0.82375 0.12818 0.12400
Ni	Ni	0.66868 0.26884 0.88321 1.12600
H 	H 	0.67359 0.98285 0.94235 0.04300
C 	C 	0.99186 0.23400 0.15270 -0.05400
C 	C 	0.99399 0.37874 0.49510 0.02700
O 	O 	0.99010 0.00742 0.26132 -0.70900
H 	H 	0.95977 0.30862 0.43338 0.05400
H 	H 	0.96465 0.54449 0.90698 0.06500
O 	O 	0.98602 0.16217 0.29163 -0.35100
Br	Br	0.97654 0.65499 0.40286 -0.22500
C 	C 	0.99620 0.63562 0.96432 0.02700
S 	S 	0.98086 0.63362 0.91907 -0.00900
H 	H 	0.98988 0.01244 0.28684 0.16100
Br	Br	0.93951 0.36028 0.11631 -0.22100
H 	H 	0.93751 0.22486 0.17071 0.08500
H 	H 	0.97304 0.77705 0.34410 0.07600
S 	S 	0.96500 0.28021 0.46667 0.00200
C 	C 	0.83658 0.25710 0.90258 0.30800
C 	C 	0.83669 0.49713 0.97461 0.28200
C 	C 	0.75373 0.48387 0.86342 0.30400
Ni	Ni	0.72605 0.27924 0.96420 1.11800
O 	O 	0.80206 0.22904 0.93463 -0.35700
O 	O 	0.80086 0.29421 0.88015 -0.35800
O 	O 	0.69837 0.39063 0.85410 -0.36300
O 	O 	0.75035 0.51536 0.89524 -0.37600
O 	O 	0.84041 0.41422 0.97529 -0.35400
O 	O 	0.75584 0.49657 0.97140 -0.36800
O 	O 	0.70766 0.34025 0.92525 -0.71900
H 	H 	0.77267 0.38765 0.91929 0.16500
C 	C 	0.87535 0.50699 0.53695 0.30700
C 	C 	0.76967 0.22633 0.58697 0.28800
C 	C 	0.75834 0.44027 0.65949 0.31200
Ni	Ni	0.70099 0.32705 0.53410 1.11500
Ni	Ni	0.74258 0.50185 0.59082 1.12400
O 	O 	0.80102 0.46403 0.51841 -0.37500
O 	O 	0.86973 0.54371 0.56723 -0.34600
O 	O 	0.80573 0.48905 0.63239 -0.37300
O 	O 	0.69259 0.52424 0.54600 -0.36500
O 	O 	0.69023 0.34621 0.65708 -0.36100
O 	O 	0.78409 0.27045 0.55551 -0.34100
O 	O 	0.69027 0.19507 0.60498 -0.35000
O 	O 	0.70192 0.36671 0.58042 -0.70900
H 	H 	0.76090 0.37428 0.58879 0.16400
C 	C 	0.92513 0.81165 0.70685 0.29100
C 	C 	0.95142 0.83324 0.78219 0.28300
C 	C 	0.93873 0.11957 0.69094 0.31500
C 	C 	0.98131 0.13716 0.79632 0.29800
Ni	Ni	0.91201 0.97367 0.74458 1.11800
O 	O 	0.88359 0.03002 0.70221 -0.32900
O 	O 	0.87642 0.85573 0.71341 -0.33400
O 	O 	0.91054 0.07666 0.77642 -0.33900
O 	O 	0.92005 0.89598 0.78536 -0.35100
O 	O 	0.99639 0.18608 0.71270 -0.37800
C 	C 	0.79632 0.87350 0.29978 0.31200
C 	C 	0.79864 0.88546 0.21117 0.32600
Ni	Ni	0.91250 0.06054 0.25363 1.12600
Ni	Ni	0.94163 0.86962 0.25675 1.12300
O 	O 	0.80644 0.95808 0.28701 -0.34900
O 	O 	0.86469 0.85276 0.29925 -0.37900
O 	O 	0.85460 0.97924 0.20985 -0.38900
O 	O 	0.82153 0.82713 0.22838 -0.34700
C 	C 	0.73151 0.83588 0.15247 -0.02900
C 	C 	0.71734 0.84405 0.18805 -0.07600
H 	H 	0.79827 0.84672 0.14344 0.07500
Br	Br	0.69573 0.84465 0.07989 -0.24400
C 	C 	0.71933 0.84396 0.35719 -0.03300
C 	C 	0.71701 0.81424 0.32277 -0.06900
H 	H 	0.77933 0.90973 0.36669 0.07200
Br	Br	0.90509 0.28580 0.30667 -0.21000
C 	C 	0.94744 0.47752 0.53036 -0.08600
C 	C 	0.92437 0.39606 0.50826 0.00600
H 	H 	0.85366 0.35099 0.49924 0.02200
S 	S 	0.69719 0.65357 0.48942 0.01800
H 	H 	0.69533 0.63252 0.45475 0.05700
C 	C 	0.94389 0.25099 0.65249 -0.03000
C 	C 	0.91742 0.15186 0.65741 -0.07500
C 	C 	0.86642 0.08419 0.63090 0.14600
C 	C 	0.82657 0.11236 0.60408 -0.03600
C 	C 	0.84214 0.20887 0.60229 -0.06900
C 	C 	0.90862 0.27977 0.62457 0.12300
Br	Br	0.94961 0.41566 0.61824 -0.22800
H 	H 	0.98975 0.30561 0.67090 0.08600
H 	H 	0.78022 0.05818 0.58564 0.08300
Br	Br	0.86063 0.95883 0.62811 -0.21800
C 	C 	0.72699 0.54822 0.69564 -0.03800
C 	C 	0.77596 0.49697 0.69194 -0.07600
C 	C 	0.86773 0.54330 0.70488 0.13200
C 	C 	0.91739 0.64639 0.70864 -0.03900
C 	C 	0.87342 0.70233 0.70155 -0.06700
C 	C 	0.77577 0.65119 0.69489 0.12700
Br	Br	0.71141 0.71649 0.67706 -0.16900
H 	H 	0.98924 0.68223 0.71710 0.06700
Br	Br	0.92874 0.46833 0.71372 -0.19300
C 	C 	0.91893 0.58674 0.98664 -0.05900
C 	C 	0.93190 0.60355 0.02251 -0.02200
H 	H 	0.87222 0.57249 0.03985 0.05900
C 	C 	0.96153 0.15968 0.83174 -0.08100
C 	C 	0.88522 0.08962 0.85152 0.14700
C 	C 	0.85284 0.12030 0.87978 -0.03800
C 	C 	0.89511 0.21970 0.88833 -0.07000
C 	C 	0.98154 0.28496 0.87348 0.12000
H 	H 	0.78972 0.06807 0.89309 0.08200
Br	Br	0.82742 0.95210 0.84216 -0.23300
C 	C 	0.75136 0.60752 0.82375 -0.02800
C 	C 	0.79733 0.55823 0.83581 -0.07400
C 	C 	0.88875 0.58880 0.82452 0.12400
C 	C 	0.93872 0.67788 0.80648 -0.04400
C 	C 	0.89524 0.73273 0.79713 -0.06900
C 	C 	0.79816 0.69134 0.80291 0.12700
Br	Br	0.72528 0.73799 0.77884 -0.20800
H 	H 	0.67875 0.58016 0.83032 0.07500
Br	Br	0.94212 0.50497 0.82981 -0.20600
