data_crystal

_cell_length_a 20.58295
_cell_length_b 20.97521
_cell_length_c 38.69168
_cell_angle_alpha 60.53289
_cell_angle_beta  119.20317
_cell_angle_gamma 133.31352

_symmetry_space_group_name_	'P 1'
_symmetry_space_group_name_H-M	'P 1'

loop_
_symmetry_equiv_pos_as_xyz
  x,y,z

loop_
_atom_site_label
_atom_site_type_symbol
_atom_site_fract_x
_atom_site_fract_y
_atom_site_fract_z
_atom_site_charge
C 	C 	0.32407 0.66248 0.18051 0.11900
C 	C 	0.41949 0.70536 0.19048 -0.10200
C 	C 	0.39086 0.58151 0.18112 -0.09300
C 	C 	0.29647 0.53919 0.16969 0.12200
C 	C 	0.26240 0.58005 0.16869 -0.09100
H 	H 	0.41700 0.55160 0.18039 0.10100
H 	H 	0.18936 0.54947 0.15783 0.10600
C 	C 	0.28117 0.66415 0.64524 0.11500
C 	C 	0.36891 0.71500 0.63859 -0.10800
C 	C 	0.33189 0.58312 0.63265 -0.09500
C 	C 	0.24387 0.53221 0.63750 0.12100
C 	C 	0.22044 0.57027 0.64692 -0.09400
H 	H 	0.15804 0.52655 0.65710 0.11600
Co	Co	0.08787 0.04148 0.04206 1.17000
Co	Co	0.12548 0.91271 0.04317 1.18800
C 	C 	0.27813 0.09280 0.05890 0.33800
O 	O 	0.05030 0.07750 0.18841 -0.38000
C 	C 	0.05340 0.00801 0.21254 0.17100
O 	O 	0.06917 0.13331 0.03195 -0.44300
C 	C 	0.09124 0.23368 0.10989 0.36900
C 	C 	0.14889 0.81968 0.13088 0.35700
O 	O 	0.04754 0.95800 0.19773 -0.33000
O 	O 	0.11726 0.80859 0.09434 -0.40700
O 	O 	0.12939 0.85858 0.13887 -0.37500
O 	O 	0.00715 0.19104 0.11059 -0.40800
O 	O 	0.11175 0.19497 0.10246 -0.38900
O 	O 	0.06832 0.93914 0.06190 -0.74600
O 	O 	0.25105 0.00856 0.07171 -0.38500
O 	O 	0.23104 0.11448 0.05937 -0.36900
Co	Co	0.02070 0.00242 0.53157 1.15100
Co	Co	0.08885 0.89824 0.53423 1.17800
C 	C 	0.19993 0.09749 0.51828 0.35900
O 	O 	0.00531 0.05643 0.68275 -0.43900
C 	C 	0.02437 0.99794 0.70822 0.32800
C 	C 	0.01928 0.19474 0.59881 0.33400
C 	C 	0.18352 0.88039 0.62158 0.35600
O 	O 	0.02724 0.95261 0.69460 -0.37800
O 	O 	0.19880 0.92981 0.58487 -0.33700
O 	O 	0.13514 0.87908 0.63557 -0.35700
O 	O 	0.04385 0.16091 0.59039 -0.39900
O 	O 	0.02819 0.91418 0.55728 -0.74600
O 	O 	0.15461 0.03229 0.50124 -0.44500
O 	O 	0.16050 0.09426 0.53808 -0.39400
C 	C 	0.05363 0.99205 0.75222 -0.02200
C 	C 	0.05400 0.00487 0.82165 -0.08300
C 	C 	0.12325 0.07947 0.79981 0.06000
C 	C 	0.12295 0.07232 0.76543 -0.08400
C 	C 	0.19084 0.16098 0.81193 -0.05500
C 	C 	0.19046 0.16951 0.84537 -0.02100
C 	C 	0.12006 0.09817 0.86622 0.01000
C 	C 	0.12126 0.10692 0.90036 0.00600
H 	H 	0.17180 0.13142 0.74695 0.07100
H 	H 	0.24451 0.21785 0.79558 0.07300
H 	H 	0.24472 0.23234 0.85485 0.05700
H 	H 	0.17924 0.16686 0.91184 0.07700
C 	C 	0.06125 0.98525 0.25643 0.04300
C 	C 	0.02337 0.96637 0.32324 -0.05300
C 	C 	0.10265 0.04744 0.30897 0.03500
C 	C 	0.12166 0.05586 0.27603 -0.10200
C 	C 	0.16085 0.12010 0.32697 -0.06200
C 	C 	0.14073 0.11389 0.35856 0.00300
C 	C 	0.06012 0.03630 0.37175 -0.07000
C 	C 	0.04068 0.03082 0.40373 -0.08500
H 	H 	0.17899 0.11997 0.26342 0.08200
H 	H 	0.22228 0.18171 0.31652 0.08500
H 	H 	0.18766 0.17023 0.37255 0.05800
H 	H 	0.08978 0.08523 0.41912 0.06000
C 	C 	0.11312 0.42765 0.59268 -0.12400
C 	C 	0.17585 0.44033 0.63077 -0.05400
C 	C 	0.19089 0.37351 0.65704 0.30000
C 	C 	0.14724 0.29749 0.64442 -0.07200
C 	C 	0.08545 0.28546 0.60610 -0.13800
C 	C 	0.06870 0.35113 0.58026 0.35800
F 	F 	0.00711 0.33932 0.54356 -0.43200
H 	H 	0.10179 0.47912 0.57193 0.12200
H 	H 	0.15856 0.24601 0.66517 0.09000
F 	F 	0.25082 0.38424 0.69415 -0.43800
C 	C 	0.13980 0.72475 0.64266 -0.07300
C 	C 	0.20796 0.81560 0.64410 -0.13300
C 	C 	0.30028 0.84768 0.65655 0.36700
C 	C 	0.32269 0.79219 0.66281 -0.12400
C 	C 	0.25416 0.70983 0.65056 -0.05200
C 	C 	0.16107 0.67639 0.64035 0.31000
F 	F 	0.09236 0.60346 0.62424 -0.44300
H 	H 	0.06918 0.69428 0.63955 0.10600
H 	H 	0.39333 0.81458 0.67595 0.11100
F 	F 	0.36825 0.93294 0.66174 -0.40600
C 	C 	0.20301 0.46521 0.11225 -0.12700
C 	C 	0.23545 0.45736 0.15454 -0.05400
C 	C 	0.23238 0.37989 0.18096 0.30400
C 	C 	0.19942 0.31257 0.16518 -0.07200
C 	C 	0.16265 0.31815 0.12312 -0.14200
C 	C 	0.16752 0.39644 0.09659 0.36400
F 	F 	0.13262 0.40335 0.05576 -0.42400
H 	H 	0.20780 0.52586 0.09142 0.10700
H 	H 	0.19651 0.25284 0.18600 0.09100
F 	F 	0.26459 0.37151 0.22193 -0.42600
C 	C 	0.33561 0.80294 0.16181 -0.12600
C 	C 	0.28967 0.70888 0.17825 -0.04900
C 	C 	0.21017 0.65959 0.19157 0.30500
C 	C 	0.17030 0.70140 0.18278 -0.06300
C 	C 	0.21025 0.79282 0.16135 -0.13600
C 	C 	0.29865 0.84512 0.15577 0.36500
F 	F 	0.34332 0.93555 0.13925 -0.41700
H 	H 	0.39778 0.84294 0.15202 0.11800
H 	H 	0.10414 0.66075 0.18926 0.09200
F 	F 	0.17063 0.57128 0.21223 -0.42400
C 	C 	0.41169 0.23592 0.48529 0.30500
C 	C 	0.32721 0.20889 0.48418 -0.06400
C 	C 	0.29793 0.16497 0.52043 -0.15500
C 	C 	0.35984 0.16145 0.55812 0.36500
F 	F 	0.33461 0.12412 0.59355 -0.43600
H 	H 	0.28078 0.21435 0.45491 0.08800
F 	F 	0.43756 0.27431 0.44993 -0.42200
C 	C 	0.43954 0.16126 0.06804 -0.07800
C 	C 	0.36298 0.16314 0.04476 -0.12300
C 	C 	0.35906 0.21196 0.00363 0.32600
C 	C 	0.42534 0.24882 0.98483 -0.09500
H 	H 	0.44456 0.12600 0.10011 0.12600
H 	H 	0.42125 0.28532 0.95293 0.09200
F 	F 	0.28838 0.21948 0.98137 -0.43900
C 	C 	0.39609 0.67219 0.63588 0.13100
H 	H 	0.41632 0.78712 0.63590 0.09800
C 	C 	0.07660 0.02447 0.96632 0.32800
O 	O 	0.14181 0.01373 0.98972 -0.40500
O 	O 	0.03820 0.03232 0.98174 -0.37800
H 	H 	0.35166 0.55204 0.62792 0.10600
C 	C 	0.04859 0.01660 0.85337 -0.03500
Co	Co	0.00426 0.85079 0.60365 1.17900
O 	O 	0.02844 0.76469 0.56551 -0.42700
C 	C 	0.05264 0.03492 0.92215 -0.14100
Co	Co	0.01652 0.86244 0.10042 1.17900
Co	Co	0.00689 0.08838 0.07441 1.17600
C 	C 	0.44407 0.18792 0.55930 -0.13000
C 	C 	0.99872 0.96290 0.35323 0.14600
C 	C 	0.45207 0.66756 0.18778 0.12900
O 	O 	0.98954 0.08417 0.52160 -0.44500
C 	C 	0.99408 0.91454 0.77741 0.00600
C 	C 	0.99467 0.92032 0.81220 0.06800
O 	O 	0.93664 0.14490 0.60383 -0.37900
Co	Co	0.94410 0.04382 0.56954 1.17600
H 	H 	0.46813 0.76961 0.19855 0.09900
C 	C 	0.50570 0.19795 0.04943 0.32800
O 	O 	0.96335 0.98108 0.47241 -0.31100
C 	C 	0.69519 0.28579 0.99684 0.16000
C 	C 	0.60138 0.24736 0.98798 -0.10200
C 	C 	0.57585 0.29225 0.99006 0.14600
C 	C 	0.64019 0.38371 0.98932 -0.12900
C 	C 	0.73361 0.42357 0.99818 0.16200
C 	C 	0.76171 0.37461 0.00225 -0.13100
H 	H 	0.54922 0.17908 0.98396 0.10900
H 	H 	0.61911 0.42001 0.98833 0.09700
H 	H 	0.83428 0.40383 0.01114 0.11000
C 	C 	0.66232 0.23374 0.52551 0.12600
C 	C 	0.73851 0.31307 0.53931 -0.08700
C 	C 	0.72470 0.36462 0.54433 0.12300
C 	C 	0.63594 0.33603 0.53703 -0.10800
C 	C 	0.56038 0.25667 0.52455 0.13000
C 	C 	0.57301 0.20703 0.51723 -0.10400
H 	H 	0.80766 0.33368 0.54667 0.12200
H 	H 	0.62564 0.37561 0.54143 0.09200
H 	H 	0.51371 0.14630 0.50655 0.08700
Co	Co	0.96208 0.92229 0.14131 1.20700
C 	C 	0.93395 0.74931 0.04134 0.34200
Co	Co	0.93513 0.05772 0.14256 1.17500
O 	O 	0.96613 0.01745 0.11641 -0.77300
O 	O 	0.96314 0.82192 0.14570 -0.42500
O 	O 	0.98838 0.96396 0.08082 -0.52100
C 	C 	0.80182 0.85756 0.16325 0.36000
O 	O 	0.86044 0.92846 0.17811 -0.37400
O 	O 	0.82647 0.84319 0.14363 -0.35100
C 	C 	0.83986 0.08599 0.05550 0.33300
O 	O 	0.82604 0.03307 0.09230 -0.37200
O 	O 	0.89866 0.10343 0.04055 -0.31900
O 	O 	0.99178 0.82154 0.01819 -0.34400
O 	O 	0.92698 0.75331 0.07296 -0.35100
Co	Co	0.93455 0.89737 0.64321 1.19800
C 	C 	0.94465 0.71053 0.57018 0.38600
Co	Co	0.88121 0.01519 0.64098 1.15200
O 	O 	0.91808 0.97971 0.61506 -0.71500
O 	O 	0.96268 0.81354 0.65243 -0.41400
O 	O 	0.94366 0.92705 0.58036 -0.53700
C 	C 	0.77046 0.81613 0.66789 0.35800
C 	C 	0.96213 0.92988 0.46079 0.27800
O 	O 	0.82466 0.88867 0.68114 -0.36600
O 	O 	0.80259 0.80162 0.65237 -0.37200
O 	O 	0.97252 0.86616 0.48757 -0.35800
C 	C 	0.76823 0.01955 0.55682 0.27200
O 	O 	0.76380 0.97137 0.59483 -0.30200
O 	O 	0.82329 0.03817 0.53922 -0.36200
O 	O 	0.92042 0.72901 0.58819 -0.35300
C 	C 	0.97234 0.95105 0.87137 0.02300
C 	C 	0.97516 0.96006 0.90578 0.09500
H 	H 	0.94294 0.85101 0.76854 0.07300
H 	H 	0.95044 0.85897 0.83183 0.05100
H 	H 	0.91036 0.89445 0.85853 0.06800
H 	H 	0.91938 0.90618 0.92112 0.08200
C 	C 	0.99079 0.90086 0.27433 -0.00800
C 	C 	0.97265 0.89074 0.30794 0.03100
C 	C 	0.91326 0.89028 0.36393 -0.06500
C 	C 	0.89635 0.88418 0.39679 0.01400
C 	C 	0.96201 0.95213 0.41818 0.02400
H 	H 	0.94625 0.84447 0.26066 0.06500
H 	H 	0.92083 0.82410 0.32223 0.05300
H 	H 	0.85903 0.83974 0.34657 0.08100
H 	H 	0.83360 0.82463 0.40670 0.06400
C 	C 	0.61420 0.75519 0.62224 -0.05400
C 	C 	0.67115 0.76427 0.66164 -0.14200
C 	C 	0.63730 0.74440 0.69215 0.36700
C 	C 	0.54974 0.72111 0.68273 -0.12200
C 	C 	0.49392 0.71489 0.64305 -0.05000
C 	C 	0.52632 0.73147 0.61285 0.32700
F 	F 	0.47239 0.72422 0.57446 -0.40500
H 	H 	0.63988 0.77126 0.59833 0.10800
H 	H 	0.52412 0.70539 0.70657 0.11300
F 	F 	0.69075 0.75068 0.73068 -0.43200
C 	C 	0.69397 0.75124 0.20807 -0.06200
C 	C 	0.70810 0.79539 0.16834 -0.14100
C 	C 	0.63914 0.80122 0.13562 0.36600
C 	C 	0.55920 0.76770 0.14283 -0.12400
C 	C 	0.54532 0.72421 0.18257 -0.05700
C 	C 	0.61306 0.71595 0.21519 0.31000
F 	F 	0.59961 0.67211 0.25365 -0.41700
H 	H 	0.74750 0.74771 0.23366 0.09400
H 	H 	0.50612 0.77217 0.11730 0.11300
F 	F 	0.65158 0.84328 0.09700 -0.42200
C 	C 	0.76819 0.15514 0.51342 -0.08000
C 	C 	0.72211 0.06461 0.53607 -0.10000
C 	C 	0.64414 0.02589 0.54744 0.29200
C 	C 	0.62281 0.08053 0.54281 -0.10600
C 	C 	0.67531 0.17347 0.52421 -0.06900
C 	C 	0.74415 0.20916 0.50703 0.32700
F 	F 	0.78932 0.29655 0.48519 -0.39800
H 	H 	0.82637 0.18526 0.50309 0.13000
H 	H 	0.56801 0.05130 0.55529 0.08500
F 	F 	0.59323 0.93643 0.56587 -0.38300
C 	C 	0.82150 0.46083 0.59252 -0.12000
C 	C 	0.80204 0.45216 0.55424 -0.04800
C 	C 	0.83312 0.52969 0.52204 0.31700
C 	C 	0.87274 0.61278 0.52652 -0.05400
C 	C 	0.88589 0.62031 0.56383 -0.14400
C 	C 	0.86206 0.54429 0.59719 0.38100
F 	F 	0.87924 0.55149 0.63419 -0.42600
H 	H 	0.79883 0.40144 0.61778 0.11300
H 	H 	0.89459 0.67195 0.50109 0.09800
F 	F 	0.81733 0.52281 0.48521 -0.40400
C 	C 	0.46867 0.22197 0.52283 -0.06400
H 	H 	0.49011 0.18147 0.58853 0.11200
C 	C 	0.71034 0.08853 0.04152 -0.08800
C 	C 	0.78937 0.12733 0.03108 -0.10900
C 	C 	0.83003 0.21449 0.00462 0.33300
C 	C 	0.79580 0.26405 0.99157 -0.08400
C 	C 	0.72359 0.22882 0.00624 -0.08700
C 	C 	0.68116 0.14034 0.03146 0.32200
F 	F 	0.61613 0.10679 0.04862 -0.42300
H 	H 	0.67637 0.02041 0.06073 0.11300
H 	H 	0.82756 0.33100 0.97124 0.10700
F 	F 	0.90512 0.25298 0.99316 -0.39500
C 	C 	0.80422 0.58647 0.97873 -0.11300
C 	C 	0.80043 0.51119 0.00872 -0.08400
C 	C 	0.83775 0.51346 0.05008 0.31900
C 	C 	0.87481 0.58881 0.06121 -0.06900
C 	C 	0.87504 0.66250 0.03118 -0.13800
C 	C 	0.83781 0.65997 0.98989 0.36700
F 	F 	0.83513 0.72954 0.96049 -0.43500
H 	H 	0.77462 0.58497 0.94681 0.10500
H 	H 	0.90554 0.59091 0.09305 0.10700
F 	F 	0.83392 0.44080 0.07958 -0.41200
C 	C 	0.49768 0.23991 0.00742 -0.09200
F 	F 	0.57919 0.19503 0.07239 -0.40000
