data_crystal

_cell_length_a 25.38870
_cell_length_b 25.61567
_cell_length_c 34.80263
_cell_angle_alpha 95.50452
_cell_angle_beta  95.50742
_cell_angle_gamma 125.70208

_symmetry_space_group_name_	'P 1'
_symmetry_space_group_name_H-M	'P 1'

loop_
_symmetry_equiv_pos_as_xyz
  x,y,z

loop_
_atom_site_label
_atom_site_type_symbol
_atom_site_fract_x
_atom_site_fract_y
_atom_site_fract_z
_atom_site_charge
N 	N 	0.02297 0.03433 0.99319 -0.13000
C 	C 	0.04517 0.99751 0.98775 0.13100
N 	N 	0.00217 0.93137 0.98221 -0.13100
N 	N 	0.02819 0.07435 0.47491 -0.13300
C 	C 	0.05254 0.03945 0.47114 0.13200
N 	N 	0.01082 0.97308 0.46434 -0.13300
H 	H 	0.01511 0.16850 0.51658 0.06200
C 	C 	0.33234 0.20094 0.43936 0.00300
C 	C 	0.26977 0.18683 0.43190 -0.05100
C 	C 	0.21726 0.13014 0.44254 0.03000
C 	C 	0.22813 0.08986 0.46109 0.00400
C 	C 	0.29227 0.10967 0.47390 -0.04800
C 	C 	0.34455 0.16537 0.46221 0.02500
S 	S 	0.40267 0.27533 0.44412 0.04900
C 	C 	0.41134 0.20143 0.48136 -0.01800
S 	S 	0.16505 0.04430 0.48358 0.03000
C 	C 	0.12295 0.07339 0.47086 -0.01900
C 	C 	0.15753 0.12013 0.44761 -0.04200
H 	H 	0.26308 0.22109 0.42081 0.05700
H 	H 	0.30158 0.08539 0.49436 0.06100
H 	H 	0.14108 0.14681 0.43550 0.05600
C 	C 	0.30483 0.09791 0.93568 0.00300
C 	C 	0.25124 0.10093 0.93398 -0.05200
C 	C 	0.19952 0.05807 0.95260 0.03000
C 	C 	0.20417 0.01726 0.97434 0.00600
C 	C 	0.26182 0.02150 0.98096 -0.04600
C 	C 	0.31155 0.06056 0.96006 0.02300
S 	S 	0.37994 0.15861 0.93012 0.04800
C 	C 	0.37777 0.08295 0.97111 -0.01600
S 	S 	0.14980 0.99245 0.00386 0.02400
C 	C 	0.11569 0.02873 0.98920 -0.01400
C 	C 	0.14925 0.06407 0.96052 -0.04400
H 	H 	0.25143 0.13742 0.92048 0.05700
H 	H 	0.26902 0.99778 0.00284 0.05600
H 	H 	0.13571 0.09010 0.94457 0.05700
H 	H 	0.39310 0.06645 0.99422 0.06200
H 	H 	0.43002 0.18175 0.49981 0.06400
C 	C 	0.42257 0.13798 0.95557 -0.06900
H 	H 	0.01199 0.27188 0.51930 0.06200
C 	C 	0.45046 0.26548 0.47422 -0.06100
C 	C 	0.95793 0.00468 0.99404 0.12300
C 	C 	0.93742 0.90172 0.98289 0.12600
N 	N 	0.91542 0.93835 0.98929 -0.13500
C 	C 	0.96225 0.04327 0.47180 0.12400
C 	C 	0.94473 0.94159 0.46118 0.12500
N 	N 	0.92042 0.97677 0.46481 -0.13300
Cu	Cu	0.62244 0.21706 0.00451 0.93100
Cu	Cu	0.70832 0.25275 0.93440 0.87200
Cu	Cu	0.64208 0.30989 0.94995 0.89800
Cu	Cu	0.59404 0.32079 0.02271 0.90600
C 	C 	0.61921 0.25999 0.08256 0.33300
O 	O 	0.52255 0.16626 0.99478 -0.34400
C 	C 	0.65303 0.27999 0.86903 0.33000
O 	O 	0.65989 0.31563 0.00596 -0.64000
O 	O 	0.62412 0.22319 0.94866 -0.64300
O 	O 	0.67283 0.18016 0.00959 -0.34700
O 	O 	0.75528 0.26056 0.98321 -0.42200
O 	O 	0.57897 0.27204 0.06677 -0.36200
O 	O 	0.66579 0.39731 0.95202 -0.36300
C 	C 	0.66820 0.43395 0.98262 0.29400
C 	C 	0.49261 0.18530 0.97386 0.28300
O 	O 	0.52388 0.24744 0.97184 -0.38400
O 	O 	0.63006 0.40772 0.00879 -0.37000
O 	O 	0.63554 0.22844 0.06071 -0.34100
C 	C 	0.73180 0.20990 0.00060 0.29200
O 	O 	0.62753 0.29942 0.89282 -0.35800
O 	O 	0.67885 0.25050 0.88074 -0.39300
H 	H 	0.70596 0.35089 0.01923 0.17500
H 	H 	0.58455 0.18726 0.92934 0.19200
Cu	Cu	0.74759 0.36573 0.45773 0.92700
Cu	Cu	0.76296 0.32110 0.53975 0.89100
Cu	Cu	0.65015 0.34075 0.51137 0.91400
Cu	Cu	0.63437 0.38152 0.43608 0.90400
C 	C 	0.69529 0.35214 0.37720 0.33200
O 	O 	0.79621 0.46386 0.45986 -0.34200
C 	C 	0.67148 0.31387 0.58517 0.33600
O 	O 	0.64695 0.32312 0.45621 -0.63900
O 	O 	0.74492 0.37570 0.51461 -0.63000
O 	O 	0.78132 0.31172 0.45537 -0.36500
O 	O 	0.83818 0.34547 0.51819 -0.39900
O 	O 	0.67716 0.38882 0.38957 -0.36200
O 	O 	0.55693 0.30042 0.50626 -0.35400
C 	C 	0.52228 0.30440 0.47746 0.29000
C 	C 	0.77315 0.49434 0.47482 0.28400
O 	O 	0.71291 0.46001 0.48199 -0.38700
O 	O 	0.55143 0.35055 0.45614 -0.37300
O 	O 	0.73209 0.34385 0.40151 -0.34100
C 	C 	0.83165 0.32551 0.48071 0.28900
O 	O 	0.65649 0.34776 0.56753 -0.35900
O 	O 	0.68633 0.27960 0.56488 -0.40400
H 	H 	0.61414 0.27655 0.44351 0.17700
H 	H 	0.77544 0.42173 0.52863 0.17500
C 	C 	0.64474 0.28352 0.82702 -0.11700
C 	C 	0.61167 0.22614 0.79816 0.12600
C 	C 	0.61446 0.23069 0.75836 0.06500
C 	C 	0.64464 0.29200 0.74694 0.01700
C 	C 	0.67127 0.34847 0.77538 0.06600
C 	C 	0.67372 0.34473 0.81552 0.12400
C 	C 	0.65136 0.29763 0.70539 0.01800
C 	C 	0.71107 0.31753 0.69357 0.06500
C 	C 	0.71849 0.32556 0.65457 0.12600
C 	C 	0.66433 0.30810 0.62645 -0.12500
C 	C 	0.60348 0.28503 0.63791 0.12900
C 	C 	0.59812 0.28297 0.67770 0.06500
Br	Br	0.70479 0.43091 0.75923 -0.15700
Br	Br	0.55939 0.14136 0.81292 -0.19100
Br	Br	0.80378 0.36385 0.64019 -0.25000
Br	Br	0.51835 0.26108 0.69446 -0.15300
Br	Br	0.72018 0.42377 0.85469 -0.20100
Br	Br	0.57922 0.15345 0.71965 -0.15700
Br	Br	0.78226 0.33281 0.73076 -0.16300
Br	Br	0.52634 0.25170 0.59888 -0.18100
C 	C 	0.68590 0.33175 0.33446 -0.11700
C 	C 	0.74085 0.35319 0.31617 0.12700
C 	C 	0.73114 0.33473 0.27526 0.06600
C 	C 	0.66787 0.30193 0.25205 0.01800
C 	C 	0.61320 0.28162 0.27020 0.06600
C 	C 	0.62183 0.29361 0.31143 0.12300
C 	C 	0.65943 0.29199 0.20857 0.01800
C 	C 	0.67530 0.34390 0.18917 0.06600
C 	C 	0.66690 0.33435 0.14795 0.12300
C 	C 	0.63601 0.27123 0.12581 -0.11800
C 	C 	0.61841 0.21876 0.14525 0.12800
C 	C 	0.63376 0.23021 0.18654 0.06600
Br	Br	0.52700 0.23962 0.23855 -0.15700
Br	Br	0.82951 0.41284 0.34631 -0.17300
Br	Br	0.70026 0.40819 0.12186 -0.22900
Br	Br	0.62008 0.16156 0.21300 -0.15500
Br	Br	0.54581 0.25589 0.33646 -0.22400
Br	Br	0.80433 0.35432 0.25089 -0.15600
Br	Br	0.70649 0.42742 0.21904 -0.15900
Br	Br	0.56820 0.13050 0.11585 -0.17000
C 	C 	0.82263 0.75223 0.45743 0.00300
C 	C 	0.79104 0.69783 0.47589 -0.05100
C 	C 	0.80073 0.64998 0.46610 0.02200
C 	C 	0.84365 0.65884 0.44075 -0.00000
C 	C 	0.88393 0.71821 0.42795 -0.05000
C 	C 	0.87099 0.76424 0.43532 0.02900
S 	S 	0.83587 0.82310 0.47316 0.02400
C 	C 	0.89932 0.86984 0.45078 -0.01700
C 	C 	0.91472 0.83075 0.43181 -0.04300
S 	S 	0.85810 0.60381 0.44393 0.05900
C 	C 	0.80893 0.56510 0.47609 -0.07300
C 	C 	0.78101 0.59746 0.48605 -0.02200
H 	H 	0.76193 0.69392 0.49779 0.05500
H 	H 	0.92442 0.72879 0.41373 0.05800
H 	H 	0.95937 0.85041 0.41992 0.05700
H 	H 	0.74500 0.58132 0.50509 0.05100
C 	C 	0.90796 0.14845 0.44066 0.00100
C 	C 	0.86984 0.16846 0.42708 -0.04900
C 	C 	0.89126 0.23172 0.44321 0.02100
C 	C 	0.94628 0.27085 0.47406 0.00500
C 	C 	0.97722 0.24605 0.49169 -0.06200
C 	C 	0.95868 0.18486 0.47369 0.03400
S 	S 	0.88292 0.07156 0.43519 0.02400
C 	C 	0.93614 0.08154 0.47305 -0.01500
C 	C 	0.97497 0.14762 0.49183 -0.05200
S 	S 	0.94178 0.32760 0.49718 0.04400
C 	C 	0.87405 0.30824 0.46805 -0.06800
C 	C 	0.85052 0.25277 0.43977 -0.01500
H 	H 	0.82408 0.13537 0.40601 0.05700
H 	H 	0.80160 0.22335 0.42165 0.05700
C 	C 	0.78003 0.62417 0.01360 -0.00400
C 	C 	0.79796 0.68743 0.02433 -0.04800
C 	C 	0.84552 0.73651 0.00615 0.02500
C 	C 	0.87098 0.72119 0.97672 0.00800
C 	C 	0.84506 0.65638 0.96173 -0.05300
C 	C 	0.80041 0.60785 0.98134 0.03100
S 	S 	0.71042 0.55618 0.01997 0.05000
C 	C 	0.70430 0.50438 0.98331 -0.06100
C 	C 	0.75834 0.54031 0.96464 -0.02300
S 	S 	0.90524 0.78169 0.95173 0.02700
C 	C 	0.89178 0.83027 0.97752 -0.01500
C 	C 	0.85779 0.79820 0.00695 -0.04500
H 	H 	0.77350 0.69731 0.04447 0.05600
H 	H 	0.85656 0.64382 0.93475 0.06300
H 	H 	0.76716 0.51873 0.94016 0.06700
H 	H 	0.84486 0.81957 0.02899 0.05400
C 	C 	0.88806 0.10237 0.97518 -0.00100
C 	C 	0.88348 0.15379 0.97196 -0.04700
C 	C 	0.82720 0.14634 0.98148 0.01500
C 	C 	0.78028 0.09136 0.99623 0.00800
C 	C 	0.79091 0.04591 0.00561 -0.06300
C 	C 	0.84456 0.05084 0.99353 0.04000
S 	S 	0.95659 0.10734 0.97706 0.02200
C 	C 	0.93336 0.04405 0.99976 -0.01100
C 	C 	0.86956 0.01756 0.00706 -0.05400
S 	S 	0.73373 0.10745 0.01680 0.05200
C 	C 	0.76879 0.18270 0.00670 -0.07800
C 	C 	0.82049 0.19763 0.98691 -0.01900
H 	H 	0.92287 0.19841 0.96370 0.05300
H 	H 	0.76018 0.00968 0.02270 0.05900
H 	H 	0.84189 0.97531 0.02087 0.05800
H 	H 	0.85064 0.24264 0.97590 0.04300
