data_crystal

_cell_length_a 30.76639
_cell_length_b 31.14288
_cell_length_c 35.02554
_cell_angle_alpha 95.51641
_cell_angle_beta  95.51494
_cell_angle_gamma 125.54956

_symmetry_space_group_name_	'P 1'
_symmetry_space_group_name_H-M	'P 1'

loop_
_symmetry_equiv_pos_as_xyz
  x,y,z

loop_
_atom_site_label
_atom_site_type_symbol
_atom_site_fract_x
_atom_site_fract_y
_atom_site_fract_z
_atom_site_charge
C 	C 	0.97206 0.02403 0.98806 0.03400
C 	C 	0.02621 0.05180 0.98269 -0.08100
C 	C 	0.04941 0.02443 0.97810 0.04700
C 	C 	0.01866 0.96944 0.97893 -0.08300
C 	C 	0.96476 0.94167 0.98435 0.04700
C 	C 	0.94139 0.96885 0.98886 -0.08100
H 	H 	0.05012 0.09447 0.98224 0.05200
H 	H 	0.03673 0.94834 0.97548 0.05400
H 	H 	0.89950 0.94721 0.99282 0.05200
C 	C 	0.94692 0.00114 0.45341 0.03100
C 	C 	0.91832 0.94701 0.45717 -0.07900
C 	C 	0.94561 0.92350 0.46040 0.04300
C 	C 	0.00140 0.95402 0.45998 -0.07800
C 	C 	0.03011 0.00804 0.45622 0.03200
C 	C 	0.00283 0.03156 0.45294 -0.07500
H 	H 	0.87509 0.92337 0.45747 0.05200
H 	H 	0.02250 0.93583 0.46264 0.05200
H 	H 	0.02503 0.07340 0.45015 0.05000
Cu	Cu	0.64606 0.25310 0.99896 0.92600
Cu	Cu	0.69143 0.25575 0.91752 0.86900
Cu	Cu	0.67882 0.33905 0.94893 0.89500
Cu	Cu	0.64630 0.35268 0.02459 0.89400
C 	C 	0.66088 0.29337 0.08024 0.28600
O 	O 	0.56648 0.22145 0.99677 -0.36600
C 	C 	0.66328 0.30281 0.86372 0.28700
O 	O 	0.69029 0.33679 0.00318 -0.63900
O 	O 	0.64090 0.25984 0.94337 -0.64200
O 	O 	0.67929 0.21401 0.99726 -0.37700
O 	O 	0.74102 0.26952 0.96205 -0.44500
O 	O 	0.63639 0.31509 0.06973 -0.38400
O 	O 	0.71983 0.41647 0.95810 -0.38500
C 	C 	0.71454 0.44549 0.98470 0.28700
C 	C 	0.54558 0.24433 0.98192 0.28200
O 	O 	0.57786 0.29475 0.97807 -0.39400
O 	O 	0.67786 0.42297 0.00735 -0.39300
O 	O 	0.66233 0.26045 0.05448 -0.36000
C 	C 	0.72555 0.23447 0.98522 0.30900
O 	O 	0.67941 0.34240 0.89288 -0.38900
O 	O 	0.65891 0.25947 0.87001 -0.42200
H 	H 	0.72893 0.35971 0.01636 0.16300
H 	H 	0.60354 0.23811 0.92781 0.17200
Cu	Cu	0.72967 0.33758 0.44860 0.92700
Cu	Cu	0.73009 0.29651 0.53136 0.87000
Cu	Cu	0.64390 0.30625 0.49971 0.89600
Cu	Cu	0.62730 0.33479 0.42284 0.89400
C 	C 	0.68699 0.31971 0.36715 0.28700
O 	O 	0.76048 0.41565 0.44909 -0.36400
C 	C 	0.68259 0.32451 0.58504 0.28600
O 	O 	0.64507 0.29313 0.44535 -0.64100
O 	O 	0.72414 0.34465 0.50439 -0.64100
O 	O 	0.77011 0.30563 0.45091 -0.37600
O 	O 	0.71551 0.24618 0.48759 -0.44400
O 	O 	0.66428 0.34333 0.37723 -0.38500
O 	O 	0.56541 0.26482 0.49142 -0.38400
C 	C 	0.53510 0.26721 0.46362 0.30800
C 	C 	0.73688 0.43621 0.46326 0.28200
O 	O 	0.68631 0.40414 0.46807 -0.39200
O 	O 	0.55676 0.30351 0.44101 -0.39600
O 	O 	0.72100 0.31946 0.39312 -0.36100
C 	C 	0.75028 0.26069 0.46393 0.31000
O 	O 	0.64201 0.30791 0.55610 -0.38600
O 	O 	0.72686 0.32990 0.57843 -0.42200
H 	H 	0.62221 0.25467 0.43290 0.16300
H 	H 	0.74593 0.38195 0.51923 0.17200
C 	C 	0.68187 0.36856 0.77529 -0.06300
C 	C 	0.65561 0.32383 0.74484 0.01800
C 	C 	0.62684 0.27197 0.75357 -0.06400
C 	C 	0.62674 0.26500 0.79239 0.01000
C 	C 	0.65600 0.30987 0.82299 -0.08800
C 	C 	0.68217 0.36167 0.81419 0.01000
C 	C 	0.66264 0.33135 0.70425 0.01800
H 	H 	0.60611 0.23712 0.73030 0.04200
H 	H 	0.60515 0.22475 0.79866 0.03000
H 	H 	0.70436 0.39669 0.83739 0.03600
H 	H 	0.70347 0.40874 0.76886 0.04400
C 	C 	0.61703 0.30511 0.67405 -0.06300
C 	C 	0.62355 0.30516 0.63506 0.00900
C 	C 	0.67584 0.33166 0.62591 -0.08800
C 	C 	0.72155 0.36098 0.65628 0.00900
C 	C 	0.71496 0.36054 0.69520 -0.06400
H 	H 	0.57649 0.28322 0.68074 0.04400
H 	H 	0.58787 0.28293 0.61204 0.03800
H 	H 	0.76218 0.38284 0.64975 0.03000
H 	H 	0.75049 0.38129 0.71828 0.04200
C 	C 	0.66116 0.24734 0.17605 -0.06200
C 	C 	0.68533 0.29537 0.20274 0.01900
C 	C 	0.70575 0.34341 0.18903 -0.06200
C 	C 	0.69983 0.34308 0.14891 0.01100
C 	C 	0.67372 0.29473 0.12213 -0.08300
C 	C 	0.65556 0.24703 0.13587 0.01500
C 	C 	0.68476 0.29466 0.24471 0.01900
H 	H 	0.72463 0.38071 0.20945 0.04500
H 	H 	0.71442 0.38018 0.13864 0.02100
H 	H 	0.63531 0.20944 0.11550 0.03900
H 	H 	0.64544 0.21008 0.18639 0.04600
C 	C 	0.63603 0.27372 0.25846 -0.06200
C 	C 	0.63645 0.27973 0.29859 0.01100
C 	C 	0.68557 0.30645 0.32533 -0.08300
C 	C 	0.73396 0.32503 0.31156 0.01500
C 	C 	0.73356 0.31934 0.27138 -0.06300
H 	H 	0.59812 0.25443 0.23806 0.04500
H 	H 	0.59881 0.26480 0.30889 0.02200
H 	H 	0.77215 0.34573 0.33190 0.03900
H 	H 	0.77135 0.33542 0.26100 0.04600
C 	C 	0.76461 0.49478 0.46905 -0.09000
C 	C 	0.74759 0.51861 0.49354 0.01100
C 	C 	0.76894 0.57266 0.49518 -0.06700
C 	C 	0.80759 0.60340 0.47249 0.02700
C 	C 	0.82635 0.58033 0.44932 -0.06700
C 	C 	0.80505 0.52632 0.44763 0.01300
C 	C 	0.82674 0.65903 0.47166 -0.00300
C 	C 	0.81475 0.67234 0.43700 -0.03400
C 	C 	0.83524 0.72557 0.43559 -0.04600
C 	C 	0.86775 0.76580 0.46881 0.01800
C 	C 	0.87865 0.75239 0.50374 -0.04600
C 	C 	0.85816 0.69913 0.50519 -0.03400
C 	C 	0.89357 0.82128 0.46617 -0.01400
C 	C 	0.91645 0.86782 0.46365 -0.02900
H 	H 	0.71714 0.49506 0.51075 0.03100
H 	H 	0.75459 0.59029 0.51343 0.04500
H 	H 	0.85669 0.60399 0.43206 0.04600
H 	H 	0.81875 0.50863 0.42872 0.03700
H 	H 	0.79012 0.64155 0.41106 0.03800
H 	H 	0.82667 0.73564 0.40849 0.04100
H 	H 	0.90385 0.78332 0.52952 0.04100
H 	H 	0.86750 0.68922 0.53211 0.03700
C 	C 	0.91866 0.02637 0.45067 -0.00400
C 	C 	0.91436 0.04512 0.41665 -0.03600
C 	C 	0.89199 0.07337 0.41531 -0.04200
C 	C 	0.87383 0.08316 0.44799 0.00600
C 	C 	0.87678 0.06314 0.48161 -0.04200
C 	C 	0.89908 0.03484 0.48294 -0.03600
C 	C 	0.85399 0.11634 0.44766 0.00900
C 	C 	0.88358 0.16677 0.47238 -0.04600
C 	C 	0.86379 0.19739 0.47324 -0.03100
C 	C 	0.81433 0.17785 0.44942 -0.01300
C 	C 	0.78522 0.12796 0.42412 -0.03000
C 	C 	0.80504 0.09730 0.42319 -0.04500
C 	C 	0.79165 0.20722 0.45305 0.04700
C 	C 	0.77277 0.23176 0.45728 -0.12300
H 	H 	0.92917 0.03857 0.39154 0.03800
H 	H 	0.88975 0.08855 0.38920 0.03900
H 	H 	0.86251 0.07020 0.50689 0.03800
H 	H 	0.90223 0.02052 0.50931 0.03700
H 	H 	0.92162 0.18198 0.49115 0.03900
H 	H 	0.88647 0.23590 0.49289 0.03300
H 	H 	0.74689 0.11254 0.40567 0.03700
H 	H 	0.78200 0.05848 0.40393 0.04000
C 	C 	0.08888 0.04002 0.45594 -0.00400
C 	C 	0.12615 0.08346 0.48644 -0.03600
C 	C 	0.18201 0.11213 0.48715 -0.04200
C 	C 	0.20101 0.09755 0.45739 0.00600
C 	C 	0.16371 0.05451 0.42665 -0.04200
C 	C 	0.10787 0.02589 0.42591 -0.03700
C 	C 	0.25992 0.12700 0.45858 0.00900
C 	C 	0.28377 0.15564 0.42901 -0.04400
C 	C 	0.33957 0.18328 0.43003 -0.03100
C 	C 	0.37187 0.18247 0.46059 -0.01000
C 	C 	0.34816 0.15386 0.49013 -0.03100
C 	C 	0.29234 0.12616 0.48914 -0.04400
C 	C 	0.42948 0.21175 0.46194 0.04500
C 	C 	0.47772 0.23675 0.46285 -0.11000
H 	H 	0.11185 0.09458 0.50978 0.03800
H 	H 	0.21051 0.14551 0.51088 0.03900
H 	H 	0.17802 0.04297 0.40355 0.03900
H 	H 	0.07937 0.99251 0.40219 0.03900
H 	H 	0.25911 0.15663 0.40536 0.04000
H 	H 	0.35769 0.20543 0.40714 0.03700
H 	H 	0.37292 0.15311 0.51386 0.03800
H 	H 	0.27424 0.10394 0.51200 0.04000
C 	C 	0.74492 0.50374 0.98552 -0.09100
C 	C 	0.76028 0.52465 0.95140 0.01500
C 	C 	0.78708 0.57955 0.95194 -0.06700
C 	C 	0.79879 0.61404 0.98655 0.02500
C 	C 	0.78397 0.59333 0.02071 -0.06500
C 	C 	0.75724 0.53848 0.02023 0.01600
C 	C 	0.82667 0.67186 0.98704 -0.00600
C 	C 	0.87821 0.70979 0.01048 -0.03200
C 	C 	0.90484 0.76458 0.01070 -0.04300
C 	C 	0.88016 0.78180 0.98750 0.01500
C 	C 	0.82853 0.74405 0.96427 -0.04500
C 	C 	0.80181 0.68921 0.96405 -0.03400
C 	C 	0.90876 0.83805 0.98644 -0.01300
C 	C 	0.93367 0.88524 0.98552 -0.03100
H 	H 	0.75076 0.49833 0.92435 0.03600
H 	H 	0.79867 0.59527 0.92548 0.04500
H 	H 	0.79292 0.61969 0.04757 0.04500
H 	H 	0.74612 0.52300 0.04684 0.02600
H 	H 	0.89776 0.69678 0.02827 0.03700
H 	H 	0.94483 0.79358 0.02865 0.04100
H 	H 	0.80925 0.75710 0.94623 0.04000
H 	H 	0.76189 0.66025 0.94603 0.03700
C 	C 	0.94725 0.05254 0.99242 -0.00700
C 	C 	0.94133 0.07580 0.96185 -0.03700
C 	C 	0.91585 0.10092 0.96533 -0.04100
C 	C 	0.89603 0.10296 0.99940 -0.00100
C 	C 	0.90249 0.08025 0.03016 -0.03800
C 	C 	0.92805 0.05519 0.02670 -0.03400
C 	C 	0.86730 0.12766 0.00240 0.01400
C 	C 	0.81179 0.09590 0.00438 -0.04700
C 	C 	0.78356 0.11845 0.00419 -0.03000
C 	C 	0.81064 0.17285 0.00209 -0.01100
C 	C 	0.86640 0.20497 0.00125 -0.02700
C 	C 	0.89467 0.18248 0.00143 -0.04800
C 	C 	0.78040 0.19461 0.99750 0.04300
C 	C 	0.75522 0.21280 0.99256 -0.12200
H 	H 	0.95582 0.07379 0.93522 0.03700
H 	H 	0.91087 0.11818 0.94138 0.03700
H 	H 	0.88755 0.08185 0.05664 0.03900
H 	H 	0.93270 0.03761 0.05055 0.03800
H 	H 	0.79031 0.05355 0.00517 0.04100
H 	H 	0.74044 0.09337 0.00482 0.03800
H 	H 	0.88760 0.24707 0.99965 0.03300
H 	H 	0.93760 0.20741 0.00019 0.04100
C 	C 	0.48595 0.21526 0.97333 -0.08900
C 	C 	0.45199 0.17006 0.98996 0.00800
C 	C 	0.39638 0.14629 0.98549 -0.06500
C 	C 	0.37409 0.16732 0.96431 0.02600
C 	C 	0.40746 0.21112 0.94644 -0.06700
C 	C 	0.46308 0.23489 0.95079 0.01000
C 	C 	0.31639 0.14503 0.96245 -0.00300
C 	C 	0.30230 0.17608 0.98113 -0.03500
C 	C 	0.24777 0.15346 0.98226 -0.04600
C 	C 	0.20705 0.09977 0.96466 0.01800
C 	C 	0.22092 0.06919 0.94502 -0.04600
C 	C 	0.27541 0.09173 0.94390 -0.03500
C 	C 	0.15159 0.07485 0.96910 -0.01400
C 	C 	0.10508 0.05272 0.97310 -0.03000
H 	H 	0.46885 0.15425 0.00728 0.04100
H 	H 	0.37083 0.11232 0.99927 0.04500
H 	H 	0.39043 0.22720 0.92963 0.04500
H 	H 	0.48848 0.26904 0.93714 0.03100
H 	H 	0.33366 0.21727 0.99554 0.03700
H 	H 	0.23734 0.17734 0.99748 0.04000
H 	H 	0.18961 0.02766 0.93129 0.04000
H 	H 	0.28587 0.06756 0.92922 0.03700
