data_crystal

_cell_length_a 18.24409
_cell_length_b 17.17988
_cell_length_c 46.77530
_cell_angle_alpha 90.72649
_cell_angle_beta  91.03268
_cell_angle_gamma 110.74788

_symmetry_space_group_name_	'P 1'
_symmetry_space_group_name_H-M	'P 1'

loop_
_symmetry_equiv_pos_as_xyz
  x,y,z

loop_
_atom_site_label
_atom_site_type_symbol
_atom_site_fract_x
_atom_site_fract_y
_atom_site_fract_z
_atom_site_charge
O 	O 	0.09621 0.85228 0.74556 -0.69100
Ni	Ni	0.11179 0.95771 0.76910 1.09600
O 	O 	0.16342 0.78287 0.69737 -0.39300
Ni	Ni	0.19790 0.84102 0.73720 1.06800
O 	O 	0.24410 0.95613 0.71943 -0.40000
O 	O 	0.19496 0.95637 0.79857 -0.38200
O 	O 	0.03236 0.96393 0.73885 -0.70900
O 	O 	0.09809 0.05563 0.79158 -0.36100
H 	H 	0.06564 0.80390 0.75690 0.14500
H 	H 	0.04973 0.01796 0.72903 0.15800
C 	C 	0.25671 0.02637 0.73374 0.27500
C 	C 	0.08933 0.74700 0.68989 0.28000
C 	C 	0.25840 0.94271 0.79104 0.28900
C 	C 	0.02740 0.05279 0.79835 0.26700
O 	O 	0.19821 0.04191 0.74577 -0.38100
O 	O 	0.25218 0.87473 0.77633 -0.42100
Ni	Ni	0.35207 0.77564 0.40550 1.10200
O 	O 	0.34048 0.70997 0.36746 -0.69600
Ni	Ni	0.23433 0.70992 0.35377 1.09600
O 	O 	0.44113 0.74387 0.42239 -0.36100
O 	O 	0.42331 0.61760 0.40229 -0.39300
O 	O 	0.43581 0.87968 0.38921 -0.36400
Ni	Ni	0.32802 0.59260 0.37383 1.06900
O 	O 	0.34307 0.95056 0.41709 -0.39900
O 	O 	0.25377 0.58859 0.40636 -0.41400
O 	O 	0.22072 0.63429 0.31849 -0.38800
O 	O 	0.25183 0.78244 0.39006 -0.70800
O 	O 	0.35550 0.84193 0.44199 -0.36400
O 	O 	0.13454 0.73304 0.34222 -0.36000
O 	O 	0.19603 0.87346 0.34688 -0.41200
Ni	Ni	0.27081 0.89979 0.38251 1.06900
H 	H 	0.38204 0.73672 0.35368 0.15600
H 	H 	0.21006 0.76081 0.40411 0.16900
C 	C 	0.18187 0.58640 0.40121 0.28400
O 	O 	0.36054 0.91301 0.35549 -0.41500
C 	C 	0.43307 0.66577 0.42516 0.29400
C 	C 	0.22568 0.56020 0.32109 0.27900
C 	C 	0.42869 0.91174 0.36441 0.28200
C 	C 	0.13115 0.80789 0.34538 0.27300
C 	C 	0.34035 0.91123 0.44141 0.28700
O 	O 	0.16243 0.61012 0.37634 -0.36100
O 	O 	0.23578 0.53370 0.34663 -0.40100
Ni	Ni	0.35036 0.68863 0.13002 1.10100
O 	O 	0.25204 0.65878 0.10391 -0.69600
Ni	Ni	0.18860 0.71368 0.12515 1.10400
O 	O 	0.40081 0.62849 0.10289 -0.35200
O 	O 	0.29214 0.51012 0.10195 -0.40100
O 	O 	0.38897 0.79106 0.10514 -0.39000
Ni	Ni	0.19196 0.54082 0.09864 1.07100
O 	O 	0.40758 0.79161 0.19037 -0.42100
O 	O 	0.17502 0.52748 0.14142 -0.41200
O 	O 	0.10115 0.69142 0.09510 -0.36400
O 	O 	0.27902 0.72772 0.15361 -0.69900
O 	O 	0.45308 0.72834 0.15448 -0.36800
O 	O 	0.14961 0.79703 0.14587 -0.37300
O 	O 	0.27209 0.89588 0.14544 -0.40300
Ni	Ni	0.33951 0.84056 0.16777 1.06900
H 	H 	0.26451 0.68431 0.08493 0.17000
H 	H 	0.26099 0.69022 0.16997 0.15900
C 	C 	0.11850 0.54616 0.15310 0.28800
O 	O 	0.43133 0.89070 0.14063 -0.39600
C 	C 	0.35834 0.55706 0.09057 0.28200
C 	C 	0.07801 0.62036 0.08045 0.28300
C 	C 	0.43512 0.86449 0.11434 0.31400
C 	C 	0.19669 0.87460 0.15013 0.26900
C 	C 	0.46502 0.77435 0.17832 0.29000
O 	O 	0.11301 0.61979 0.14919 -0.36300
O 	O 	0.08574 0.55317 0.09159 -0.40400
O 	O 	0.03146 0.23997 0.23687 -0.37100
O 	O 	0.09704 0.11784 0.23289 -0.40600
O 	O 	0.00253 0.10334 0.19799 -0.36700
Ni	Ni	0.04158 0.08281 0.27086 1.06500
O 	O 	0.05081 0.20081 0.28202 -0.41400
C 	C 	0.06093 0.25884 0.26298 0.28700
C 	C 	0.06415 0.08744 0.20766 0.27000
C 	C 	0.02365 0.48442 0.19170 -0.00900
C 	C 	0.05085 0.47859 0.16417 -0.06200
C 	C 	0.01341 0.40733 0.14710 -0.00300
C 	C 	0.95300 0.34010 0.15812 0.00200
C 	C 	0.96317 0.41673 0.20281 -0.00300
H 	H 	0.05099 0.54000 0.20482 0.03700
H 	H 	0.03225 0.40333 0.12547 0.03100
C 	C 	0.21351 0.00412 0.17838 -0.01300
C 	C 	0.16553 0.93691 0.16131 -0.06800
C 	C 	0.08622 0.92608 0.15676 -0.00600
C 	C 	0.05410 0.97862 0.17060 -0.01700
C 	C 	0.10089 0.04233 0.18921 -0.06700
C 	C 	0.18132 0.05649 0.19230 -0.01500
H 	H 	0.27508 0.01395 0.18174 0.02500
H 	H 	0.04899 0.87575 0.14306 0.05200
H 	H 	0.99211 0.96754 0.16781 0.04600
H 	H 	0.21849 0.10668 0.20606 0.04000
C 	C 	0.11747 0.48224 0.28704 -0.00900
C 	C 	0.19357 0.49756 0.29808 -0.06500
C 	C 	0.23041 0.44006 0.29235 -0.01400
C 	C 	0.18853 0.36388 0.27879 -0.00400
C 	C 	0.10981 0.34501 0.27053 -0.06800
C 	C 	0.07555 0.40590 0.27343 -0.00800
H 	H 	0.08860 0.52651 0.29101 0.04600
H 	H 	0.28963 0.45187 0.30028 0.02200
H 	H 	0.21599 0.31781 0.27608 0.03200
H 	H 	0.01489 0.39202 0.26696 0.02500
C 	C 	0.01971 0.80680 0.31390 -0.01500
C 	C 	0.05625 0.82037 0.34108 -0.06300
C 	C 	0.03159 0.86426 0.36201 -0.01800
C 	C 	0.96829 0.84783 0.30647 -0.01600
H 	H 	0.03648 0.77084 0.29779 0.03800
H 	H 	0.05751 0.87281 0.38338 0.02700
H 	H 	0.94641 0.84372 0.28460 0.02100
C 	C 	0.29198 0.94992 0.51695 -0.03600
C 	C 	0.36419 0.00915 0.52646 0.02300
C 	C 	0.41164 0.02097 0.47764 0.02600
C 	C 	0.34251 0.95577 0.46872 -0.07800
C 	C 	0.28108 0.92334 0.48805 0.02100
C 	C 	0.20748 0.86102 0.47829 0.06800
C 	C 	0.31235 0.12920 0.55615 0.10400
C 	C 	0.22988 0.91475 0.53708 0.10200
N 	N 	0.27124 0.15743 0.54460 -0.10600
N 	N 	0.14880 0.81125 0.47051 -0.11200
N 	N 	0.18037 0.88675 0.55316 -0.10800
C 	C 	0.02161 0.46388 0.46596 0.01700
C 	C 	0.10539 0.46996 0.51928 0.10700
C 	C 	0.02488 0.54271 0.45654 -0.03800
C 	C 	0.07006 0.57837 0.43281 0.01900
C 	C 	0.11916 0.53989 0.42068 -0.07100
C 	C 	0.11100 0.45815 0.42851 0.02300
C 	C 	0.06130 0.41974 0.45093 -0.03600
C 	C 	0.98301 0.58770 0.47165 0.10600
C 	C 	0.15149 0.41272 0.41286 0.08300
C 	C 	0.06178 0.65100 0.41981 0.07700
C 	C 	0.05150 0.33528 0.45875 0.09900
N 	N 	0.05431 0.70868 0.40947 -0.12100
N 	N 	0.18381 0.37651 0.40036 -0.11800
N 	N 	0.04362 0.26790 0.46502 -0.10800
N 	N 	0.17322 0.49569 0.51972 -0.10400
C 	C 	0.50288 0.47641 0.53692 -0.03800
C 	C 	0.50012 0.59489 0.50659 0.02300
C 	C 	0.52289 0.35986 0.56202 0.07600
C 	C 	0.42930 0.60984 0.50344 -0.03500
C 	C 	0.40650 0.63096 0.47655 0.02300
C 	C 	0.45527 0.63868 0.45283 -0.07800
C 	C 	0.52752 0.62657 0.45623 0.02600
C 	C 	0.54996 0.60485 0.48311 -0.03800
C 	C 	0.38041 0.60437 0.52799 0.10900
C 	C 	0.57935 0.63800 0.43224 0.09100
C 	C 	0.33269 0.64453 0.47325 0.07800
C 	C 	0.45916 0.41881 0.51443 0.10300
N 	N 	0.27383 0.65540 0.47070 -0.11000
N 	N 	0.34168 0.60016 0.54765 -0.10200
N 	N 	0.62072 0.64712 0.41310 -0.10500
N 	N 	0.51726 0.29068 0.56219 -0.10100
N 	N 	0.42430 0.37293 0.49649 -0.10800
C 	C 	0.47134 0.15443 0.73097 -0.01300
C 	C 	0.47143 0.21300 0.71020 -0.06600
C 	C 	0.39952 0.21783 0.70074 -0.00900
C 	C 	0.32875 0.15976 0.70988 -0.00400
C 	C 	0.32935 0.09645 0.72845 -0.06300
C 	C 	0.40082 0.09517 0.73939 -0.01500
H 	H 	0.52605 0.15156 0.73934 0.03000
H 	H 	0.39824 0.26412 0.68544 0.05800
H 	H 	0.27368 0.16169 0.70150 0.04200
H 	H 	0.40199 0.04604 0.75343 0.03000
C 	C 	0.03253 0.61243 0.05349 -0.08600
C 	C 	0.06935 0.65607 0.02924 0.02000
C 	C 	0.03112 0.63730 0.00224 -0.04200
C 	C 	0.14764 0.71823 0.03194 0.06600
C 	C 	0.06942 0.68096 0.97720 0.10100
N 	N 	0.21009 0.76778 0.03410 -0.10600
N 	N 	0.09989 0.71574 0.95719 -0.10700
C 	C 	0.52929 0.98886 0.99138 -0.03600
C 	C 	0.58300 0.02377 0.01422 0.02300
C 	C 	0.56194 0.99540 0.04396 0.02400
C 	C 	0.57699 0.92562 0.05419 -0.03800
C 	C 	0.54314 0.88852 0.07974 0.02900
C 	C 	0.49155 0.91910 0.09438 -0.08300
C 	C 	0.48432 0.99474 0.08600 0.02500
C 	C 	0.52027 0.03334 0.06088 -0.03800
C 	C 	0.43750 0.03100 0.10252 0.08400
C 	C 	0.55987 0.81779 0.09066 0.08400
C 	C 	0.51301 0.11094 0.05206 0.10400
C 	C 	0.45498 0.92342 0.99671 0.10500
N 	N 	0.40015 0.05999 0.11569 -0.10400
N 	N 	0.50737 0.17291 0.04499 -0.10000
N 	N 	0.39558 0.87134 0.00093 -0.10000
C 	C 	0.40941 0.43825 0.95883 -0.03800
C 	C 	0.43031 0.48322 0.01066 0.02200
C 	C 	0.33103 0.44119 0.95986 0.09900
C 	C 	0.43294 0.56549 0.01491 -0.03800
C 	C 	0.40575 0.58842 0.04049 0.02200
C 	C 	0.38330 0.53145 0.06312 -0.08700
C 	C 	0.38340 0.44979 0.05918 0.02100
C 	C 	0.40333 0.42473 0.03251 -0.03900
C 	C 	0.46408 0.62669 0.99299 0.10300
C 	C 	0.36578 0.39259 0.08278 0.08800
C 	C 	0.39730 0.66903 0.04293 0.07300
C 	C 	0.39574 0.33873 0.02745 0.10300
C 	C 	0.38576 0.39367 0.90786 0.09000
N 	N 	0.39058 0.73338 0.04470 -0.10000
N 	N 	0.48893 0.67551 0.97550 -0.10700
N 	N 	0.35176 0.34692 0.10160 -0.10200
N 	N 	0.38964 0.27012 0.02336 -0.10100
N 	N 	0.26851 0.44359 0.96072 -0.11000
N 	N 	0.34560 0.37744 0.88757 -0.10700
C 	C 	0.46321 0.99873 0.82318 -0.00700
C 	C 	0.47727 0.07960 0.83381 -0.06700
C 	C 	0.41995 0.11579 0.82993 -0.00700
C 	C 	0.34854 0.07095 0.81614 -0.00900
C 	C 	0.33335 0.98908 0.80623 -0.06600
C 	C 	0.39155 0.95353 0.80955 -0.01200
H 	H 	0.50680 0.96994 0.82622 0.03800
H 	H 	0.43048 0.17846 0.83786 0.03800
H 	H 	0.30523 0.10007 0.81300 0.05100
H 	H 	0.38112 0.89071 0.80186 0.04100
Ni	Ni	0.62231 0.26251 0.89351 1.10200
O 	O 	0.63705 0.32163 0.85476 -0.69600
Ni	Ni	0.74520 0.32157 0.84556 1.09600
O 	O 	0.53132 0.29566 0.90688 -0.35900
O 	O 	0.54630 0.41435 0.88317 -0.39500
O 	O 	0.54010 0.15640 0.87611 -0.36200
Ni	Ni	0.64691 0.43914 0.85931 1.06900
O 	O 	0.62827 0.08824 0.90719 -0.39600
O 	O 	0.71455 0.44755 0.89521 -0.41600
O 	O 	0.76373 0.39304 0.80999 -0.38800
O 	O 	0.72324 0.25290 0.88173 -0.71000
O 	O 	0.61558 0.20085 0.93059 -0.36200
O 	O 	0.84576 0.29671 0.83826 -0.36000
O 	O 	0.78059 0.15654 0.84063 -0.41100
Ni	Ni	0.70357 0.13475 0.87440 1.06800
H 	H 	0.59749 0.29208 0.83984 0.15500
H 	H 	0.76378 0.27534 0.89698 0.16900
C 	C 	0.78704 0.44889 0.89383 0.28000
O 	O 	0.61526 0.11718 0.84479 -0.41300
C 	C 	0.53614 0.37335 0.90715 0.29500
C 	C 	0.75792 0.46702 0.81127 0.28000
C 	C 	0.54782 0.12293 0.85154 0.28300
C 	C 	0.84686 0.22068 0.84018 0.27300
C 	C 	0.62793 0.12985 0.93124 0.28500
O 	O 	0.81203 0.42404 0.87023 -0.35900
O 	O 	0.74351 0.49622 0.83582 -0.40300
Ni	Ni	0.62405 0.33547 0.64084 1.10100
O 	O 	0.69956 0.35601 0.60726 -0.69800
Ni	Ni	0.76784 0.29298 0.61937 1.10300
O 	O 	0.56501 0.40375 0.62160 -0.35200
O 	O 	0.67844 0.51372 0.61533 -0.39900
O 	O 	0.55782 0.23430 0.61664 -0.38200
Ni	Ni	0.76574 0.47125 0.60183 1.07300
O 	O 	0.60757 0.23931 0.70070 -0.42200
O 	O 	0.81034 0.48229 0.64257 -0.40900
O 	O 	0.82925 0.30721 0.58281 -0.36600
O 	O 	0.70377 0.28817 0.65517 -0.69800
O 	O 	0.54285 0.30546 0.67309 -0.36700
O 	O 	0.81097 0.20353 0.63228 -0.37200
O 	O 	0.68713 0.11557 0.64043 -0.40800
Ni	Ni	0.64822 0.17896 0.67120 1.06900
H 	H 	0.67194 0.33193 0.58903 0.17100
H 	H 	0.73646 0.32553 0.67044 0.15800
C 	C 	0.86680 0.45455 0.64889 0.28600
O 	O 	0.53889 0.13856 0.65193 -0.39500
C 	C 	0.60425 0.47291 0.60840 0.28000
C 	C 	0.85424 0.38045 0.57056 0.28500
C 	C 	0.52334 0.15886 0.62616 0.30900
C 	C 	0.76232 0.12887 0.63840 0.27000
C 	C 	0.54474 0.25804 0.69512 0.28900
O 	O 	0.86514 0.38233 0.63847 -0.36300
O 	O 	0.85970 0.44873 0.58532 -0.40200
O 	O 	0.86759 0.88927 0.71603 -0.40600
C 	C 	0.89731 0.91334 0.69064 0.27500
Ni	Ni	0.85575 0.06408 0.28255 1.09900
O 	O 	0.82460 0.25940 0.21603 -0.39800
Ni	Ni	0.77102 0.16323 0.24442 1.06900
O 	O 	0.77025 0.06455 0.21944 -0.42100
O 	O 	0.77192 0.07623 0.30878 -0.38800
C 	C 	0.74941 0.98913 0.23034 0.26500
C 	C 	0.70346 0.07296 0.29827 0.28500
O 	O 	0.76973 0.97826 0.25711 -0.36800
O 	O 	0.69383 0.08053 0.27053 -0.41300
C 	C 	0.55937 0.80844 0.21955 -0.00700
C 	C 	0.54506 0.81317 0.19021 -0.06800
C 	C 	0.60390 0.86687 0.17336 -0.00300
C 	C 	0.67387 0.92034 0.18615 -0.01700
C 	C 	0.68555 0.92041 0.21591 -0.05700
C 	C 	0.62940 0.86136 0.23233 -0.01600
H 	H 	0.51467 0.76660 0.23270 0.03500
H 	H 	0.59339 0.87115 0.15069 0.05000
H 	H 	0.71730 0.96422 0.17311 0.04800
H 	H 	0.63778 0.85986 0.25527 0.05100
C 	C 	0.57177 0.99587 0.36155 -0.00600
C 	C 	0.49911 0.95384 0.34769 -0.06700
C 	C 	0.49349 0.95320 0.31776 -0.01500
C 	C 	0.55966 0.99338 0.30176 -0.01200
C 	C 	0.63267 0.03507 0.31550 -0.06500
C 	C 	0.63821 0.03647 0.34553 -0.00900
H 	H 	0.57669 0.99777 0.38468 0.05900
H 	H 	0.43795 0.92058 0.30682 0.03100
H 	H 	0.55436 0.99065 0.27864 0.04000
H 	H 	0.69379 0.06881 0.35646 0.05000
C 	C 	0.42292 0.04694 0.50658 -0.03800
C 	C 	0.38078 0.02787 0.55758 0.02300
C 	C 	0.49654 0.10929 0.51624 0.10500
C 	C 	0.42401 0.98805 0.57307 -0.03700
C 	C 	0.46324 0.02456 0.59882 0.02000
C 	C 	0.45806 0.10005 0.60894 -0.07900
C 	C 	0.40051 0.12790 0.59693 0.02900
C 	C 	0.36389 0.09384 0.57058 -0.03700
C 	C 	0.43035 0.91161 0.56193 0.10300
C 	C 	0.38120 0.19321 0.61126 0.09100
C 	C 	0.50938 0.98533 0.61457 0.08400
C 	C 	0.47252 0.05879 0.45728 0.09400
N 	N 	0.54597 0.95359 0.62711 -0.10900
N 	N 	0.43527 0.85059 0.55298 -0.10200
N 	N 	0.36586 0.24543 0.62267 -0.10300
N 	N 	0.55541 0.15878 0.52398 -0.10500
N 	N 	0.52106 0.08889 0.44102 -0.10300
C 	C 	0.85508 0.37603 0.51727 0.02300
C 	C 	0.77015 0.34824 0.51668 0.06500
N 	N 	0.70240 0.32631 0.51622 -0.10800
C 	C 	0.51945 0.56244 0.53408 0.02100
C 	C 	0.55532 0.61760 0.55705 -0.03900
C 	C 	0.57590 0.58670 0.58258 0.02000
C 	C 	0.56692 0.50172 0.58429 -0.08500
C 	C 	0.52963 0.44641 0.56136 0.01800
C 	C 	0.57196 0.70615 0.55424 0.10200
C 	C 	0.62429 0.59269 0.48668 0.09900
C 	C 	0.60490 0.64189 0.60724 0.08700
N 	N 	0.68355 0.58291 0.48958 -0.11200
N 	N 	0.58524 0.77680 0.55197 -0.10300
N 	N 	0.62804 0.68595 0.62691 -0.10500
C 	C 	0.74549 0.99299 0.66104 -0.01700
C 	C 	0.79289 0.06300 0.64630 -0.06800
C 	C 	0.87171 0.07358 0.64169 -0.01000
C 	C 	0.90459 0.01973 0.65419 -0.01300
C 	C 	0.85895 0.95489 0.67138 -0.07000
C 	C 	0.77838 0.93916 0.67346 -0.01100
H 	H 	0.68407 0.98249 0.66412 0.03700
H 	H 	0.74195 0.88749 0.68584 0.04300
C 	C 	0.94039 0.51292 0.66129 -0.06500
H 	H 	0.90241 0.49445 0.70496 0.03200
C 	C 	0.89496 0.45406 0.92892 0.01800
C 	C 	0.84391 0.49152 0.91716 -0.07000
C 	C 	0.83996 0.56446 0.93029 0.02500
C 	C 	0.80220 0.61410 0.91535 0.08600
C 	C 	0.83910 0.47294 0.02126 0.10600
C 	C 	0.91223 0.38996 0.91300 0.07700
N 	N 	0.77681 0.42310 0.01913 -0.10000
N 	N 	0.92662 0.33895 0.90040 -0.11600
N 	N 	0.77206 0.65369 0.90343 -0.11600
C 	C 	0.65564 0.08667 0.00897 -0.03500
C 	C 	0.67261 0.11807 0.98120 0.02000
C 	C 	0.61730 0.08586 0.95860 -0.07500
C 	C 	0.54673 0.01932 0.96354 0.02500
C 	C 	0.71221 0.11996 0.03224 0.10200
C 	C 	0.49074 0.98439 0.94018 0.09700
C 	C 	0.62486 0.89029 0.03785 0.10300
C 	C 	0.74623 0.18479 0.97594 0.07300
N 	N 	0.57334 0.76135 0.09931 -0.09500
N 	N 	0.66301 0.86211 0.02478 -0.10500
N 	N 	0.75731 0.14648 0.05083 -0.10800
N 	N 	0.80486 0.23810 0.97172 -0.11100
N 	N 	0.44612 0.95659 0.92154 -0.09900
C 	C 	0.53467 0.45536 0.98257 -0.03600
C 	C 	0.45872 0.45884 0.98350 0.02300
C 	C 	0.43610 0.41398 0.93330 0.02700
C 	C 	0.51091 0.40710 0.93278 -0.07900
C 	C 	0.55938 0.42602 0.95767 0.02300
C 	C 	0.63297 0.41134 0.95808 0.07800
C 	C 	0.58730 0.48200 0.00730 0.10700
N 	N 	0.69144 0.39921 0.95852 -0.10800
N 	N 	0.62923 0.50330 0.02704 -0.10200
C 	C 	0.95379 0.22567 0.80720 -0.00500
C 	C 	0.91930 0.20530 0.83396 -0.06200
H 	H 	0.93733 0.26718 0.79337 0.03800
C 	C 	0.75025 0.56928 0.77561 -0.01600
C 	C 	0.79399 0.52686 0.78903 -0.06400
C 	C 	0.87563 0.55541 0.78608 -0.00800
C 	C 	0.87041 0.67547 0.76062 -0.06900
C 	C 	0.78835 0.64327 0.76138 -0.00400
H 	H 	0.68714 0.54754 0.77764 0.02300
H 	H 	0.75435 0.67761 0.75218 0.03600
O 	O 	0.04862 0.79287 0.68279 -0.36300
O 	O 	0.87278 0.16506 0.25864 -0.69900
O 	O 	0.86862 0.97097 0.30705 -0.36100
C 	C 	0.02038 0.43761 0.51863 -0.05100
N 	N 	0.05544 0.42577 0.59265 -0.10200
N 	N 	0.82026 0.36250 0.44253 -0.10900
H 	H 	0.00516 0.06838 0.85497 0.04100
H 	H 	0.94491 0.42024 0.22454 0.03200
C 	C 	0.85395 0.37620 0.46430 0.10400
H 	H 	0.90832 0.12538 0.62941 0.05500
C 	C 	0.93171 0.48144 0.95584 -0.03500
C 	C 	0.02162 0.42151 0.57117 0.08500
H 	H 	0.99569 0.54561 0.62050 0.05300
H 	H 	0.92663 0.28417 0.14507 0.05300
C 	C 	0.98033 0.90526 0.35454 0.00000
C 	C 	0.95445 0.90340 0.32606 -0.07200
H 	H 	0.96772 0.94567 0.37015 0.04400
C 	C 	0.95505 0.55483 0.05106 0.02900
C 	C 	0.91429 0.51605 0.07642 0.09200
N 	N 	0.88187 0.48511 0.09667 -0.10100
O 	O 	0.91736 0.82321 0.76833 -0.41000
O 	O 	0.99983 0.04549 0.31144 -0.40900
C 	C 	0.89666 0.38917 0.54365 -0.08100
C 	C 	0.99910 0.56075 0.64316 -0.00200
C 	C 	0.94649 0.53199 0.69064 0.00000
C 	C 	0.94369 0.15415 0.85204 -0.01300
H 	H 	0.91962 0.14033 0.87317 0.02800
C 	C 	0.91382 0.63017 0.77230 -0.00800
H 	H 	0.90997 0.52305 0.79633 0.04800
C 	C 	0.93008 0.34284 0.18648 -0.06600
Ni	Ni	0.02925 0.87186 0.71201 1.09700
O 	O 	0.93300 0.77309 0.72444 -0.36700
O 	O 	0.95891 0.89695 0.68211 -0.36400
O 	O 	0.96675 0.98376 0.79428 -0.40600
Ni	Ni	0.92663 0.93707 0.75355 1.06600
C 	C 	0.91065 0.76046 0.75102 0.28400
Ni	Ni	0.93500 0.13573 0.22641 1.10500
O 	O 	0.90244 0.19822 0.19479 -0.37300
O 	O 	0.93570 0.05151 0.25485 -0.70800
H 	H 	0.90182 0.21721 0.26940 0.16000
H 	H 	0.91849 0.99527 0.24582 0.15900
C 	C 	0.88591 0.26461 0.20060 0.29700
C 	C 	0.93984 0.97618 0.31512 0.27200
C 	C 	0.89627 0.39344 0.49156 -0.04100
C 	C 	0.97881 0.42896 0.49236 0.03300
C 	C 	0.97922 0.41605 0.54423 0.03800
N 	N 	0.94958 0.62352 0.48373 -0.10800
H 	H 	0.96656 0.03141 0.65191 0.04200
C 	C 	0.00608 0.60359 0.70120 -0.01700
C 	C 	0.05760 0.65815 0.68232 -0.07000
C 	C 	0.05770 0.63320 0.65367 -0.00400
H 	H 	0.00736 0.62086 0.72357 0.02200
H 	H 	0.09837 0.67386 0.63898 0.05100
C 	C 	0.87508 0.59054 0.95748 -0.03500
C 	C 	0.91978 0.54804 0.97051 0.02200
C 	C 	0.95619 0.57480 0.99946 0.02600
C 	C 	0.98119 0.44061 0.96864 0.10400
C 	C 	0.91723 0.53524 0.02399 -0.04000
C 	C 	0.86417 0.66016 0.97230 0.10300
N 	N 	0.02066 0.40811 0.97888 -0.11400
N 	N 	0.85549 0.71569 0.98415 -0.10500
C 	C 	0.99267 0.11379 0.84178 0.00200
C 	C 	0.01621 0.12319 0.81325 -0.06800
C 	C 	0.00270 0.18503 0.79694 -0.02400
H 	H 	0.02280 0.19495 0.77517 0.02500
H 	H 	0.97727 0.65498 0.77205 0.01900
