data_crystal

_cell_length_a 16.63418
_cell_length_b 17.49619
_cell_length_c 46.72369
_cell_angle_alpha 90.24647
_cell_angle_beta  90.24628
_cell_angle_gamma 119.42582

_symmetry_space_group_name_	'P 1'
_symmetry_space_group_name_H-M	'P 1'

loop_
_symmetry_equiv_pos_as_xyz
  x,y,z

loop_
_atom_site_label
_atom_site_type_symbol
_atom_site_fract_x
_atom_site_fract_y
_atom_site_fract_z
_atom_site_charge
Ni	Ni	0.02665 0.12632 0.77767 1.12900
Ni	Ni	0.02656 0.94487 0.77351 1.11000
O 	O 	0.05092 0.87866 0.23780 -0.37500
O 	O 	0.03765 0.10200 0.31695 -0.36100
O 	O 	0.10220 0.87362 0.29338 -0.37400
O 	O 	0.04162 0.15796 0.25942 -0.34900
O 	O 	0.04302 0.00062 0.27021 -0.71000
H 	H 	0.03555 0.00057 0.24930 0.17500
H 	H 	0.08477 0.19385 0.37082 0.11400
C 	C 	0.04238 0.36771 0.96084 -0.05500
C 	C 	0.04711 0.39893 0.45674 0.00700
H 	H 	0.03737 0.39095 0.43376 0.08000
C 	C 	0.04552 0.33740 0.98846 0.00600
C 	C 	0.01146 0.42236 0.56312 -0.04200
H 	H 	0.02190 0.42912 0.58612 0.05100
C 	C 	0.07178 0.42369 0.51597 0.01300
H 	H 	0.03827 0.28963 0.23965 0.13200
C 	C 	0.08354 0.43210 0.54570 -0.03300
C 	C 	0.12719 0.33827 0.03218 0.01600
F 	F 	0.07656 0.42512 0.20784 -0.39800
H 	H 	0.08743 0.74417 0.24877 0.09900
F 	F 	0.13010 0.33362 0.40217 -0.44200
H 	H 	0.14922 0.44751 0.55535 0.04800
C 	C 	0.12635 0.37809 0.00587 0.00800
H 	H 	0.10478 0.40642 0.94882 0.05400
C 	C 	0.10790 0.08226 0.72957 0.35300
C 	C 	0.15902 0.08784 0.81097 0.33000
O 	O 	0.05678 0.11709 0.73682 -0.34900
O 	O 	0.11249 0.00117 0.80709 -0.33300
O 	O 	0.14867 0.14186 0.79317 -0.36200
O 	O 	0.12504 0.03544 0.74813 -0.36000
C 	C 	0.14131 0.91265 0.23555 0.34500
C 	C 	0.11822 0.17364 0.31525 0.34900
C 	C 	0.16843 0.93488 0.30928 0.33900
C 	C 	0.09287 0.16648 0.23666 0.34400
Ni	Ni	0.17143 0.07459 0.27213 1.12600
O 	O 	0.15713 0.14211 0.23757 -0.30700
C 	C 	0.07173 0.29075 0.21969 -0.07500
C 	C 	0.09794 0.22705 0.21388 -0.09200
C 	C 	0.09491 0.35993 0.20075 0.35600
C 	C 	0.13997 0.77007 0.23240 -0.08200
F 	F 	0.12850 0.62950 0.22729 -0.39500
C 	C 	0.11510 0.25471 0.35898 -0.08300
C 	C 	0.13267 0.25473 0.32965 -0.12000
C 	C 	0.14165 0.33403 0.37345 0.34100
F 	F 	0.23375 0.99073 0.36616 -0.42700
C 	C 	0.13665 0.44064 0.46846 -0.03700
C 	C 	0.14759 0.44410 0.49823 -0.02000
C 	C 	0.19867 0.46412 0.00026 -0.04800
C 	C 	0.19807 0.38495 0.05215 -0.01400
H 	H 	0.20064 0.49686 0.98053 0.04900
H 	H 	0.19837 0.35459 0.07233 0.05600
C 	C 	0.05005 0.25873 0.04015 -0.04100
C 	C 	0.21205 0.50607 0.45118 0.28600
O 	O 	0.21267 0.58106 0.44689 -0.37200
O 	O 	0.19369 0.53011 0.38879 -0.34900
O 	O 	0.16120 0.49625 0.15295 -0.33700
O 	O 	0.20049 0.99187 0.24617 -0.33600
O 	O 	0.18054 0.17854 0.29690 -0.32400
O 	O 	0.18443 0.01617 0.30906 -0.32500
C 	C 	0.13647 0.22706 0.18717 0.34700
C 	C 	0.15985 0.29654 0.16829 -0.07500
C 	C 	0.14468 0.36614 0.17590 -0.12500
H 	H 	0.19526 0.29925 0.14859 0.10000
F 	F 	0.15388 0.16142 0.17989 -0.40900
C 	C 	0.17744 0.85764 0.22362 -0.12300
C 	C 	0.16869 0.71516 0.21964 0.35000
C 	C 	0.17006 0.33403 0.31443 0.35000
C 	C 	0.18570 0.41397 0.35858 -0.12200
C 	C 	0.31386 0.90907 0.36670 -0.08400
C 	C 	0.23481 0.91451 0.32355 -0.11900
C 	C 	0.26197 0.94011 0.35209 0.34100
H 	H 	0.33001 0.92499 0.38918 0.09700
H 	H 	0.21633 0.47146 0.50744 0.04600
C 	C 	0.15829 0.10741 0.70229 -0.12700
F 	F 	0.16087 0.24596 0.70214 -0.43000
C 	C 	0.26301 0.51241 0.02168 0.00700
C 	C 	0.25751 0.47519 0.04858 -0.06900
F 	F 	0.15323 0.02158 0.86686 -0.42000
H 	H 	0.15621 0.98383 0.69630 0.09200
C 	C 	0.23771 0.49705 0.37449 0.35700
Ni	Ni	0.26018 0.65242 0.40986 1.11600
O 	O 	0.26389 0.48176 0.43582 -0.33200
O 	O 	0.29890 0.77344 0.43085 -0.35600
C 	C 	0.24391 0.68566 0.17856 0.33000
C 	C 	0.29141 0.53194 0.07424 0.30400
C 	C 	0.20019 0.45176 0.16245 0.35600
Ni	Ni	0.22464 0.59533 0.12265 1.11600
O 	O 	0.20744 0.67343 0.15254 -0.35800
O 	O 	0.24045 0.50706 0.09719 -0.37300
O 	O 	0.25991 0.68634 0.08932 -0.36400
C 	C 	0.24797 0.89135 0.20320 0.34800
C 	C 	0.23440 0.74717 0.19775 -0.10900
C 	C 	0.19656 0.41310 0.32889 -0.07900
F 	F 	0.18288 0.33472 0.28574 -0.42000
C 	C 	0.26628 0.86371 0.30916 -0.08600
C 	C 	0.18431 0.05083 0.68904 -0.04900
C 	C 	0.18977 0.19186 0.69100 0.35000
H 	H 	0.31185 0.58103 0.01812 0.04600
C 	C 	0.26868 0.82852 0.05434 0.00400
H 	H 	0.22742 0.76365 0.04508 0.04500
H 	H 	0.23407 0.88948 0.02079 0.04200
H 	H 	0.22597 0.00267 0.00719 0.06100
C 	C 	0.23976 0.12555 0.83050 -0.10700
C 	C 	0.23351 0.09087 0.85799 0.34000
H 	H 	0.05163 0.22641 0.05971 0.05600
O 	O 	0.30895 0.71320 0.37107 -0.35200
O 	O 	0.27365 0.63285 0.18891 -0.31400
O 	O 	0.28981 0.48630 0.16220 -0.37100
C 	C 	0.27616 0.83618 0.19030 -0.08800
F 	F 	0.28583 0.97619 0.19479 -0.42700
H 	H 	0.22961 0.47424 0.31720 0.12800
C 	C 	0.33804 0.85164 0.35297 -0.13000
H 	H 	0.24865 0.84635 0.28683 0.10700
H 	H 	0.29284 0.77636 0.50421 0.04300
C 	C 	0.25204 0.08274 0.66789 0.34200
C 	C 	0.32314 0.84030 0.07867 -0.06100
C 	C 	0.27189 0.90076 0.04061 -0.04000
C 	C 	0.29448 0.05740 0.01073 -0.05100
C 	C 	0.32320 0.19788 0.82179 -0.08500
H 	H 	0.32947 0.22413 0.80044 0.11600
C 	C 	0.36500 0.79766 0.37023 0.36300
O 	O 	0.32715 0.53159 0.37706 -0.36200
C 	C 	0.33289 0.76666 0.08984 0.28100
O 	O 	0.36029 0.61304 0.07230 -0.37200
C 	C 	0.31747 0.83227 0.32379 0.35000
C 	C 	0.34364 0.84380 0.49973 -0.02400
C 	C 	0.25736 0.22330 0.66984 -0.09400
F 	F 	0.28362 0.03014 0.65727 -0.41400
C 	C 	0.32960 0.98675 0.05130 -0.01100
H 	H 	0.29662 0.11636 0.97023 0.05200
C 	C 	0.30936 0.12944 0.87673 -0.08000
H 	H 	0.30302 0.10344 0.89812 0.10400
C 	C 	0.36659 0.81254 0.45030 0.27500
O 	O 	0.37360 0.66146 0.41985 -0.71300
H 	H 	0.37032 0.66334 0.44084 0.15800
O 	O 	0.34919 0.64971 0.13461 -0.71200
H 	H 	0.36018 0.70895 0.13940 0.16000
H 	H 	0.32712 0.86145 0.17344 0.09200
C 	C 	0.36278 0.87242 0.47136 -0.03200
C 	C 	0.29559 0.17194 0.66054 -0.11500
H 	H 	0.28758 0.29108 0.66318 0.09900
C 	C 	0.37566 0.92428 0.09064 -0.01000
C 	C 	0.34638 0.06246 0.03537 0.03600
C 	C 	0.33154 0.12483 0.99060 0.01400
Ni	Ni	0.38879 0.56084 0.41588 1.12600
F 	F 	0.34309 0.77927 0.30998 -0.41000
C 	C 	0.38154 0.99784 0.07672 0.00400
O 	O 	0.43096 0.83541 0.38959 -0.37200
Ni	Ni	0.37539 0.61480 0.17042 1.13900
O 	O 	0.41744 0.77938 0.09488 -0.37000
C 	C 	0.41918 0.96230 0.46646 -0.06500
H 	H 	0.42645 0.98683 0.44478 0.06300
H 	H 	0.43563 0.70939 0.50155 0.03300
H 	H 	0.41619 0.93293 0.10986 0.05000
C 	C 	0.39209 0.20309 0.86823 -0.12000
C 	C 	0.39891 0.23646 0.84052 0.35000
O 	O 	0.44736 0.81578 0.44739 -0.37800
Ni	Ni	0.44243 0.68136 0.10640 1.12000
C 	C 	0.40000 0.89779 0.52194 -0.00700
H 	H 	0.38382 0.87500 0.54372 0.03800
H 	H 	0.42509 0.51331 0.62533 0.05800
H 	H 	0.43812 0.61172 0.58660 0.04800
H 	H 	0.46349 0.70372 0.55302 0.04600
C 	C 	0.42249 0.14477 0.04297 0.01100
C 	C 	0.41845 0.19841 0.99545 -0.06100
C 	C 	0.39366 0.21628 0.65359 0.34100
O 	O 	0.45974 0.59290 0.45293 -0.37000
O 	O 	0.45493 0.57552 0.11362 -0.38700
C 	C 	0.44546 0.08252 0.08638 -0.01100
O 	O 	0.41827 0.19951 0.62867 -0.35100
O 	O 	0.46095 0.28685 0.95281 -0.35900
Ni	Ni	0.48248 0.77021 0.41305 1.12400
O 	O 	0.48010 0.58935 0.16180 -0.32500
C 	C 	0.48167 0.01528 0.48780 0.09800
C 	C 	0.49026 0.54946 0.61431 0.01000
C 	C 	0.49756 0.60494 0.59178 -0.03800
C 	C 	0.50711 0.69504 0.53780 -0.04900
C 	C 	0.49452 0.70356 0.50862 0.00500
C 	C 	0.46753 0.15523 0.06927 -0.03400
C 	C 	0.45763 0.21303 0.02293 -0.01300
H 	H 	0.48273 0.09143 0.10631 0.05900
F 	F 	0.47908 0.30592 0.83165 -0.40700
O 	O 	0.47013 0.74074 0.17511 -0.35500
C 	C 	0.47944 0.23893 0.97105 0.28100
C 	C 	0.46937 0.24771 0.88882 0.35400
O 	O 	0.45093 0.24001 0.67531 -0.36700
C 	C 	0.49845 0.57038 0.13617 0.29500
C 	C 	0.47639 0.98059 0.51554 -0.07700
O 	O 	0.50900 0.72820 0.37654 -0.36700
H 	H 	0.50534 0.41836 0.13238 0.05600
O 	O 	0.48301 0.20085 0.90821 -0.36400
O 	O 	0.52704 0.42381 0.65685 -0.33600
C 	C 	0.52300 0.67520 0.45880 0.28200
O 	O 	0.51211 0.60977 0.39536 -0.36700
H 	H 	0.52231 0.21929 0.07597 0.04700
Ni	Ni	0.56059 0.39678 0.93026 1.11500
O 	O 	0.53731 0.20971 0.96447 -0.36200
O 	O 	0.51066 0.33349 0.89124 -0.33600
C 	C 	0.53807 0.44256 0.62916 0.27300
Ni	Ni	0.53417 0.28308 0.60754 1.12100
O 	O 	0.50201 0.37921 0.60976 -0.37400
C 	C 	0.54232 0.67445 0.37674 0.36000
O 	O 	0.55938 0.73482 0.43820 -0.37200
C 	C 	0.54894 0.77158 0.16140 0.33100
O 	O 	0.55134 0.76274 0.13292 -0.38100
F 	F 	0.55091 0.67824 0.21056 -0.44100
F 	F 	0.54579 0.67236 0.31611 -0.40900
C 	C 	0.55320 0.09942 0.48111 -0.07400
C 	C 	0.54776 0.02977 0.53586 0.09900
H 	H 	0.55710 0.12612 0.45995 0.06600
H 	H 	0.51149 0.92719 0.56768 0.06800
C 	C 	0.56176 0.53107 0.61984 -0.02700
C 	C 	0.57742 0.64278 0.57445 0.00500
C 	C 	0.57774 0.67795 0.54692 0.01200
C 	C 	0.55456 0.69941 0.48850 -0.06300
H 	H 	0.52135 0.27320 0.02749 0.03900
C 	C 	0.56527 0.47633 0.12441 0.00900
C 	C 	0.57948 0.55967 0.13178 -0.05200
Ni	Ni	0.57338 0.34882 0.67601 1.12900
C 	C 	0.55151 0.99637 0.56305 -0.12400
O 	O 	0.56999 0.18904 0.60510 -0.35900
C 	C 	0.62087 0.14898 0.50141 -0.00100
H 	H 	0.60196 0.40184 0.09648 0.04900
O 	O 	0.61650 0.47155 0.96704 -0.36300
H 	H 	0.60514 0.26507 0.64697 0.16500
C 	C 	0.61775 0.11565 0.52884 -0.02500
Ni	Ni	0.60718 0.23615 0.92732 1.13500
C 	C 	0.61944 0.46722 0.10330 -0.03900
C 	C 	0.60877 0.05385 0.58449 0.06600
H 	H 	0.60294 0.03056 0.60624 0.06300
O 	O 	0.61594 0.32312 0.64099 -0.71000
C 	C 	0.62715 0.69929 0.36065 -0.12500
F 	F 	0.62250 0.58627 0.68572 -0.44200
O 	O 	0.62469 0.28180 0.69828 -0.34300
C 	C 	0.63351 0.79918 0.17865 -0.12900
C 	C 	0.62975 0.75209 0.20349 0.35000
C 	C 	0.62669 0.71112 0.33096 0.34900
O 	O 	0.63951 0.51571 0.90868 -0.35900
O 	O 	0.62234 0.34113 0.57358 -0.37900
C 	C 	0.63490 0.69989 0.49791 -0.01200
O 	O 	0.64666 0.35654 0.93444 -0.70900
H 	H 	0.65012 0.35514 0.95543 0.15300
C 	C 	0.64754 0.69036 0.52720 0.01300
C 	C 	0.65417 0.20493 0.59869 0.29900
C 	C 	0.64740 0.58254 0.60691 -0.02500
H 	H 	0.67515 0.21411 0.49589 0.03800
C 	C 	0.65394 0.63272 0.58274 0.02600
C 	C 	0.66169 0.63340 0.12346 -0.02100
C 	C 	0.66164 0.14384 0.57877 -0.06900
O 	O 	0.66490 0.25976 0.88877 -0.34700
H 	H 	0.67700 0.69775 0.13119 0.05400
C 	C 	0.67983 0.16915 0.55017 0.00500
H 	H 	0.68833 0.38511 0.01031 0.03300
H 	H 	0.68387 0.70118 0.48238 0.05200
H 	H 	0.68672 0.39926 0.06261 0.04800
O 	O 	0.68819 0.45610 0.68964 -0.36100
C 	C 	0.68852 0.54240 0.08929 0.00700
H 	H 	0.69408 0.73037 0.71614 0.10300
F 	F 	0.68095 0.11118 0.89218 -0.44700
C 	C 	0.69868 0.27608 0.69058 0.32900
C 	C 	0.70542 0.52887 0.89056 0.35600
C 	C 	0.70620 0.50947 0.97256 0.28300
H 	H 	0.69891 0.24769 0.74745 0.12200
C 	C 	0.70546 0.78330 0.22193 -0.08900
H 	H 	0.70042 0.74722 0.24125 0.11200
C 	C 	0.70998 0.44886 0.01990 0.00700
C 	C 	0.70398 0.45592 0.04951 -0.04900
H 	H 	0.71343 0.72685 0.39828 0.09900
C 	C 	0.71534 0.87637 0.17217 -0.08300
C 	C 	0.71196 0.73668 0.37544 -0.08800
H 	H 	0.70521 0.57361 0.61294 0.06200
C 	C 	0.71747 0.21182 0.70470 -0.11000
C 	C 	0.71369 0.63626 0.69187 0.34000
H 	H 	0.71945 0.91276 0.15301 0.09400
C 	C 	0.70810 0.76935 0.31703 -0.08200
C 	C 	0.71217 0.62653 0.10052 0.02000
C 	C 	0.70900 0.40182 0.57615 0.31200
H 	H 	0.70597 0.78210 0.29446 0.10500
H 	H 	0.70493 0.39261 0.51777 0.04000
O 	O 	0.71718 0.23461 0.94700 -0.34300
C 	C 	0.72216 0.21064 0.73462 -0.08100
F 	F 	0.73750 0.15901 0.65936 -0.44200
C 	C 	0.72224 0.53673 0.06180 0.01200
O 	O 	0.73022 0.26875 0.61154 -0.33400
H 	H 	0.73428 0.23402 0.54502 0.04400
C 	C 	0.72584 0.68720 0.53668 -0.03300
F 	F 	0.73266 0.51263 0.83149 -0.40600
C 	C 	0.73030 0.66148 0.56459 -0.03900
C 	C 	0.74584 0.16182 0.68831 0.34100
C 	C 	0.73721 0.52253 0.00250 -0.06800
O 	O 	0.74054 0.47669 0.89019 -0.35300
C 	C 	0.74378 0.71193 0.70864 -0.08300
C 	C 	0.74312 0.60462 0.87114 -0.12400
C 	C 	0.74256 0.51900 0.67280 0.35100
O 	O 	0.73681 0.44377 0.59998 -0.39200
Ni	Ni	0.74439 0.37904 0.63531 1.11400
H 	H 	0.76079 0.69825 0.90427 0.10000
C 	C 	0.75440 0.29453 0.88620 0.36200
C 	C 	0.75310 0.15523 0.87422 0.35700
C 	C 	0.76258 0.59416 0.84257 0.35000
O 	O 	0.76679 0.52891 0.95156 -0.37000
O 	O 	0.76521 0.33778 0.67507 -0.34300
C 	C 	0.76291 0.16677 0.74798 0.35500
H 	H 	0.75801 0.03916 0.86194 0.11800
C 	C 	0.76785 0.61345 0.04499 0.01100
C 	C 	0.77357 0.68926 0.88212 -0.08400
Ni	Ni	0.77294 0.43551 0.92637 1.12300
C 	C 	0.76635 0.39598 0.52709 0.01300
F 	F 	0.77003 0.16861 0.77696 -0.41800
C 	C 	0.77396 0.60582 0.01520 -0.01200
C 	C 	0.77680 0.60980 0.68271 -0.12700
C 	C 	0.77433 0.70236 0.08576 -0.04000
C 	C 	0.78662 0.11790 0.70168 -0.07700
C 	C 	0.77908 0.40188 0.55684 -0.09000
C 	C 	0.78478 0.86354 0.21665 -0.11200
H 	H 	0.78207 0.70178 0.52212 0.05100
O 	O 	0.78796 0.50318 0.65301 -0.36700
C 	C 	0.79064 0.90905 0.19124 0.33700
H 	H 	0.79018 0.65675 0.57128 0.05500
C 	C 	0.79109 0.81455 0.33250 -0.13000
C 	C 	0.78947 0.10964 0.85955 -0.08200
C 	C 	0.79405 0.30318 0.95732 0.28600
C 	C 	0.79381 0.79461 0.36143 0.34400
C 	C 	0.79177 0.24628 0.87062 -0.12600
C 	C 	0.79918 0.12365 0.73141 -0.12000
H 	H 	0.79619 0.76668 0.09494 0.05300
C 	C 	0.79938 0.69597 0.05776 -0.03400
H 	H 	0.79992 0.66356 0.00181 0.04900
O 	O 	0.80300 0.38225 0.95950 -0.38900
H 	H 	0.81232 0.08293 0.68881 0.10900
O 	O 	0.80895 0.83469 0.75628 -0.36900
O 	O 	0.81140 0.36649 0.90038 -0.38200
C 	C 	0.81252 0.66761 0.82531 -0.08600
H 	H 	0.81395 0.20305 0.99815 0.05300
C 	C 	0.82340 0.76280 0.86482 0.34100
H 	H 	0.82490 0.65847 0.80314 0.11500
O 	O 	0.82464 0.04013 0.80627 -0.32400
H 	H 	0.82454 0.39627 0.48630 0.05100
O 	O 	0.83240 0.00942 0.74393 -0.35700
Ni	Ni	0.83314 0.94461 0.78080 1.10800
O 	O 	0.83185 0.87182 0.81565 -0.35000
C 	C 	0.83353 0.39527 0.50918 -0.05400
C 	C 	0.83712 0.76203 0.71643 -0.12400
H 	H 	0.83991 0.75524 0.04559 0.04700
C 	C 	0.84258 0.75229 0.83622 -0.10900
F 	F 	0.85252 0.84431 0.87578 -0.42900
C 	C 	0.85628 0.90379 0.23913 0.33300
C 	C 	0.85792 0.09303 0.74485 0.35300
C 	C 	0.86079 0.41005 0.56860 -0.00300
O 	O 	0.86438 0.94753 0.30521 -0.37800
C 	C 	0.86475 0.15440 0.84127 -0.09600
C 	C 	0.86688 0.83559 0.73703 0.34600
F 	F 	0.86843 0.98535 0.18527 -0.43100
C 	C 	0.98434 0.39908 0.50360 0.01400
C 	C 	0.97092 0.37742 0.47422 -0.03800
F 	F 	0.97731 0.29006 0.82041 -0.41800
H 	H 	0.90246 0.34340 0.46489 0.05200
C 	C 	0.87721 0.82721 0.81649 0.33600
C 	C 	0.89122 0.10450 0.82198 0.34300
O 	O 	0.93613 0.83386 0.79584 -0.35400
O 	O 	0.92292 0.14572 0.76275 -0.32200
O 	O 	0.95244 0.89879 0.73703 -0.35700
O 	O 	0.98043 0.13609 0.81658 -0.32800
O 	O 	0.96172 0.00363 0.78449 -0.70800
H 	H 	0.96865 0.00242 0.80541 0.18500
C 	C 	0.87282 0.88565 0.31866 0.35800
Ni	Ni	0.96295 0.04441 0.28119 1.13100
Ni	Ni	0.99247 0.87845 0.27545 1.12200
O 	O 	0.87028 0.85074 0.25642 -0.38200
O 	O 	0.88477 0.98685 0.24634 -0.35700
O 	O 	0.94558 0.87664 0.31484 -0.36600
F 	F 	0.87439 0.83534 0.37640 -0.42800
C 	C 	0.92804 0.40884 0.55103 0.01800
C 	C 	0.91369 0.39820 0.52104 0.00900
H 	H 	0.87230 0.41788 0.59155 0.02000
C 	C 	0.90136 0.73915 0.70542 0.34200
C 	C 	0.87114 0.66380 0.68846 -0.08000
H 	H 	0.92051 0.64443 0.68136 0.10700
F 	F 	0.99227 0.78707 0.71238 -0.43800
C 	C 	0.87528 0.29369 0.96329 -0.05700
C 	C 	0.95736 0.34662 0.94850 0.01700
C 	C 	0.96326 0.26874 1.00000 0.02200
C 	C 	0.87774 0.24837 0.98764 -0.01200
C 	C 	0.96729 0.22635 0.02486 -0.02900
H 	H 	0.95553 0.37590 0.92832 0.04700
H 	H 	0.90574 0.16999 0.03286 0.05300
C 	C 	0.86930 0.29160 0.85323 -0.07100
C 	C 	0.90556 0.24599 0.83850 0.35600
H 	H 	0.90029 0.36198 0.85067 0.11300
