data_crystal

_cell_length_a 23.39017
_cell_length_b 23.42577
_cell_length_c 26.61854
_cell_angle_alpha 95.49715
_cell_angle_beta  95.49911
_cell_angle_gamma 125.95860

_symmetry_space_group_name_	'P 1'
_symmetry_space_group_name_H-M	'P 1'

loop_
_symmetry_equiv_pos_as_xyz
  x,y,z

loop_
_atom_site_label
_atom_site_type_symbol
_atom_site_fract_x
_atom_site_fract_y
_atom_site_fract_z
_atom_site_charge
C 	C 	0.06714 0.03870 0.98352 0.03300
C 	C 	0.03536 0.07391 0.98966 -0.07500
H 	H 	0.06725 0.13153 0.99176 0.05400
C 	C 	0.04432 0.01764 0.45894 0.04500
C 	C 	0.00726 0.04731 0.45356 -0.07800
H 	H 	0.03658 0.10406 0.45258 0.05600
C 	C 	0.26130 0.13918 0.46675 0.04100
C 	C 	0.29960 0.11617 0.48871 -0.06500
C 	C 	0.37295 0.15400 0.48807 0.02000
C 	C 	0.12092 0.06179 0.46213 -0.02100
C 	C 	0.37013 0.23885 0.44426 0.01800
C 	C 	0.29678 0.20087 0.44493 -0.06700
C 	C 	0.18499 0.09759 0.46448 -0.01700
C 	C 	0.40852 0.21517 0.46534 -0.08300
H 	H 	0.27237 0.06844 0.50566 0.05400
H 	H 	0.40178 0.13503 0.50440 0.04600
H 	H 	0.39703 0.28657 0.42732 0.03600
H 	H 	0.26745 0.21904 0.42804 0.05100
C 	C 	0.28882 0.13775 0.98173 -0.00900
C 	C 	0.23727 0.09536 0.93675 -0.03100
C 	C 	0.16518 0.06645 0.93639 -0.03700
C 	C 	0.42495 0.18979 0.98444 -0.10100
C 	C 	0.19634 0.12428 0.02554 -0.03200
C 	C 	0.26843 0.15321 0.02583 -0.02600
C 	C 	0.36266 0.16532 0.98277 0.04800
C 	C 	0.14417 0.07961 0.98111 -0.00400
H 	H 	0.25278 0.08388 0.90233 0.04200
H 	H 	0.12532 0.03210 0.90188 0.04200
H 	H 	0.18067 0.13457 0.06028 0.04300
H 	H 	0.30817 0.18662 0.06059 0.04400
C 	C 	0.96220 0.03432 0.99277 0.04200
C 	C 	0.93237 0.00387 0.44944 0.04200
Cu	Cu	0.63040 0.22921 0.00567 0.93000
Cu	Cu	0.68631 0.23190 0.89705 0.87100
Cu	Cu	0.66700 0.34009 0.93783 0.89800
Cu	Cu	0.63688 0.36505 0.04042 0.89700
C 	C 	0.65460 0.28473 0.11297 0.30300
O 	O 	0.52634 0.19005 0.00617 -0.34300
C 	C 	0.65185 0.29624 0.82659 0.30000
O 	O 	0.69067 0.34093 0.00910 -0.63800
O 	O 	0.61908 0.23506 0.93215 -0.64200
O 	O 	0.67357 0.17676 0.00203 -0.36000
O 	O 	0.75328 0.25160 0.95491 -0.43800
O 	O 	0.62340 0.31453 0.09958 -0.37500
O 	O 	0.72075 0.44320 0.94650 -0.37200
C 	C 	0.71962 0.48514 0.98270 0.28900
C 	C 	0.49997 0.22191 0.98765 0.29500
O 	O 	0.54366 0.28833 0.98100 -0.39500
O 	O 	0.68077 0.45966 0.01895 -0.38600
O 	O 	0.65677 0.24173 0.07863 -0.34600
C 	C 	0.73424 0.20476 0.98524 0.28500
O 	O 	0.65061 0.33758 0.86336 -0.36100
O 	O 	0.64376 0.23745 0.83462 -0.41500
H 	H 	0.74281 0.37182 0.02366 0.16900
H 	H 	0.56908 0.20434 0.91255 0.17700
Cu	Cu	0.73853 0.33592 0.43706 0.92900
Cu	Cu	0.73672 0.28171 0.54634 0.87100
Cu	Cu	0.63015 0.30390 0.50633 0.89900
Cu	Cu	0.60418 0.33260 0.40344 0.89600
C 	C 	0.68195 0.31168 0.32993 0.30400
O 	O 	0.77981 0.44020 0.43578 -0.35000
C 	C 	0.67535 0.31966 0.61733 0.30000
O 	O 	0.62713 0.27814 0.43493 -0.64000
O 	O 	0.73466 0.34920 0.51084 -0.64000
O 	O 	0.78918 0.29084 0.44036 -0.36500
O 	O 	0.71479 0.21331 0.48876 -0.43700
O 	O 	0.65314 0.34384 0.34358 -0.37600
O 	O 	0.52731 0.25253 0.49897 -0.37200
C 	C 	0.48520 0.25341 0.46269 0.29400
C 	C 	0.74937 0.46837 0.45414 0.28200
O 	O 	0.68317 0.42603 0.46192 -0.39300
O 	O 	0.51055 0.29150 0.42607 -0.39200
O 	O 	0.72404 0.30804 0.36410 -0.34800
C 	C 	0.76079 0.23070 0.45786 0.28800
O 	O 	0.63485 0.32255 0.58092 -0.36100
O 	O 	0.73328 0.32602 0.60888 -0.41500
H 	H 	0.59510 0.22590 0.42090 0.16800
H 	H 	0.76661 0.39938 0.52997 0.17700
C 	C 	0.59411 0.25638 0.73435 -0.03600
C 	C 	0.65117 0.30992 0.77376 -0.08600
C 	C 	0.71161 0.37183 0.76131 0.11900
C 	C 	0.71690 0.37690 0.70972 -0.03600
C 	C 	0.66219 0.32083 0.67029 -0.08600
C 	C 	0.59924 0.26162 0.68277 0.11900
Br	Br	0.52158 0.18510 0.63000 -0.26000
H 	H 	0.54685 0.20931 0.74375 0.06300
H 	H 	0.76481 0.42327 0.70032 0.06300
Br	Br	0.78957 0.44800 0.81408 -0.26000
C 	C 	0.62355 0.23479 0.24330 -0.04000
C 	C 	0.68322 0.29797 0.27517 -0.08200
C 	C 	0.73840 0.35221 0.25317 0.12800
C 	C 	0.73113 0.34484 0.19965 -0.04100
C 	C 	0.66904 0.28389 0.16775 -0.08100
C 	C 	0.61612 0.22755 0.18976 0.12700
Br	Br	0.53126 0.14221 0.14737 -0.22700
H 	H 	0.58129 0.19261 0.26007 0.05500
H 	H 	0.77233 0.38801 0.18288 0.05500
Br	Br	0.82213 0.43856 0.29560 -0.23700
C 	C 	0.78457 0.54594 0.45792 -0.08400
H 	H 	0.84656 0.55860 0.39882 0.05400
H 	H 	0.72979 0.55152 0.51716 0.03500
C 	C 	0.83720 0.10425 0.43916 0.04000
C 	C 	0.88006 0.17583 0.43244 -0.06900
C 	C 	0.85392 0.21635 0.43594 0.01700
C 	C 	0.89519 0.03561 0.44498 -0.02100
C 	C 	0.74059 0.11269 0.45056 0.01600
C 	C 	0.76693 0.07237 0.44715 -0.07000
C 	C 	0.86742 0.06557 0.44186 -0.02000
C 	C 	0.78465 0.18554 0.44639 -0.09300
H 	H 	0.93436 0.20072 0.42593 0.05100
H 	H 	0.88845 0.27227 0.43238 0.03900
H 	H 	0.68654 0.08775 0.45760 0.03200
H 	H 	0.73325 0.01689 0.45193 0.04900
C 	C 	0.75875 0.56195 0.98052 -0.08700
C 	C 	0.85864 0.12616 0.00366 0.04500
C 	C 	0.89223 0.19795 0.99939 -0.07800
C 	C 	0.85235 0.22479 0.99622 0.02000
C 	C 	0.92836 0.06936 0.99746 -0.03000
C 	C 	0.74557 0.10880 0.00380 0.02500
C 	C 	0.78563 0.08210 0.00701 -0.07200
C 	C 	0.89751 0.09618 0.00077 -0.01200
C 	C 	0.77830 0.17979 0.99697 -0.10000
H 	H 	0.94880 0.23253 0.99728 0.05000
H 	H 	0.87863 0.28005 0.99194 0.03100
H 	H 	0.68865 0.07352 0.00464 0.03700
H 	H 	0.75940 0.02661 0.01066 0.05300
H 	H 	0.84018 0.56876 0.94299 0.04500
H 	H 	0.68635 0.57340 0.01718 0.03700
C 	C 	0.76560 0.58020 0.49110 0.01300
C 	C 	0.02565 0.96419 0.98074 -0.07300
H 	H 	0.05022 0.93700 0.97647 0.05600
C 	C 	0.00672 0.94457 0.46025 -0.07600
H 	H 	0.03560 0.92167 0.46423 0.05700
C 	C 	0.92116 0.95990 0.99000 -0.07800
C 	C 	0.95288 0.92492 0.98401 0.04400
H 	H 	0.86464 0.92928 0.99241 0.05500
C 	C 	0.89445 0.93031 0.45060 -0.07700
C 	C 	0.93191 0.90073 0.45597 0.04500
H 	H 	0.83648 0.89649 0.44736 0.05600
C 	C 	0.83775 0.68878 0.45632 0.03800
C 	C 	0.85809 0.65537 0.42403 -0.06400
C 	C 	0.83174 0.58430 0.42483 0.01500
C 	C 	0.89418 0.82523 0.45619 -0.02100
C 	C 	0.79209 0.65133 0.49023 -0.06600
C 	C 	0.86685 0.76272 0.45637 -0.01700
H 	H 	0.89410 0.68434 0.39813 0.05400
H 	H 	0.77699 0.67717 0.51586 0.05100
C 	C 	0.83546 0.70903 0.97916 0.03500
C 	C 	0.77304 0.67356 0.00025 -0.06200
C 	C 	0.73472 0.60031 0.00092 0.02300
C 	C 	0.91099 0.84873 0.98192 -0.02200
C 	C 	0.82089 0.59755 0.95874 0.02000
C 	C 	0.85908 0.67086 0.95812 -0.06400
C 	C 	0.87639 0.78499 0.98045 -0.01600
H 	H 	0.75439 0.70280 0.01642 0.05100
H 	H 	0.90737 0.69806 0.94173 0.05300
