data_crystal

_cell_length_a 30.72095
_cell_length_b 31.13920
_cell_length_c 26.55111
_cell_angle_alpha 95.49029
_cell_angle_beta  95.48351
_cell_angle_gamma 125.56559

_symmetry_space_group_name_	'P 1'
_symmetry_space_group_name_H-M	'P 1'

loop_
_symmetry_equiv_pos_as_xyz
  x,y,z

loop_
_atom_site_label
_atom_site_type_symbol
_atom_site_fract_x
_atom_site_fract_y
_atom_site_fract_z
_atom_site_charge
C 	C 	0.05667 0.03217 0.97421 0.04900
C 	C 	0.03453 0.06041 0.98165 -0.08500
H 	H 	0.05967 0.10352 0.98330 0.05300
C 	C 	0.02381 0.00171 0.43680 0.02800
H 	H 	0.01532 0.06450 0.42602 0.04900
C 	C 	0.08263 0.03515 0.43591 -0.00300
C 	C 	0.10237 0.02086 0.39716 -0.03500
C 	C 	0.15840 0.05042 0.39824 -0.04200
C 	C 	0.19515 0.09456 0.43804 0.00800
C 	C 	0.17537 0.10948 0.47624 -0.04200
C 	C 	0.11933 0.07988 0.47519 -0.03500
H 	H 	0.17329 0.03862 0.36857 0.04100
H 	H 	0.20344 0.14371 0.50693 0.04100
H 	H 	0.10446 0.09116 0.50530 0.03900
C 	C 	0.21646 0.10914 0.96294 0.02200
C 	C 	0.16012 0.08296 0.96629 -0.01100
C 	C 	0.11297 0.06030 0.96968 -0.02900
H 	H 	0.24675 0.15480 0.04055 0.04300
H 	H 	0.19905 0.06887 0.88481 0.04300
C 	C 	0.99465 0.02325 0.43136 -0.07000
H 	H 	0.96731 0.08711 0.92043 0.04000
C 	C 	0.97994 0.03301 0.98729 0.03800
C 	C 	0.90882 0.01514 0.42888 -0.00200
C 	C 	0.90224 0.03147 0.38305 -0.03600
C 	C 	0.87945 0.05936 0.38078 -0.04100
C 	C 	0.86315 0.07120 0.42435 0.00700
C 	C 	0.86806 0.05331 0.46964 -0.04100
C 	C 	0.89077 0.02535 0.47188 -0.03600
C 	C 	0.84359 0.10467 0.42344 0.01000
C 	C 	0.87458 0.15621 0.45411 -0.04400
C 	C 	0.80465 0.16689 0.42499 -0.01000
C 	C 	0.77413 0.11586 0.39349 -0.02900
C 	C 	0.79359 0.08485 0.39262 -0.04400
H 	H 	0.91587 0.02358 0.34959 0.03900
H 	H 	0.87563 0.07283 0.34560 0.04100
H 	H 	0.85519 0.06191 0.50335 0.04000
H 	H 	0.91344 0.17203 0.47769 0.04100
H 	H 	0.73498 0.09984 0.37038 0.04100
H 	H 	0.76946 0.04518 0.36869 0.04200
C 	C 	0.25432 0.12433 0.44038 0.01000
C 	C 	0.28657 0.12468 0.48185 -0.04200
C 	C 	0.34259 0.15249 0.48383 -0.03000
C 	C 	0.36669 0.18007 0.44438 -0.00700
C 	C 	0.33458 0.17976 0.40292 -0.03000
C 	C 	0.27855 0.15198 0.40090 -0.04300
H 	H 	0.26818 0.10322 0.51236 0.04300
H 	H 	0.25402 0.15204 0.36880 0.04100
C 	C 	0.95634 0.06254 0.99443 -0.00000
C 	C 	0.93660 0.06401 0.03962 -0.04000
C 	C 	0.91235 0.09029 0.04552 -0.03900
C 	C 	0.90771 0.11533 0.00629 0.00200
C 	C 	0.92812 0.11446 0.96141 -0.03600
C 	C 	0.95233 0.08818 0.95551 -0.03700
C 	C 	0.87975 0.14075 0.01130 0.01100
C 	C 	0.90796 0.19587 0.01106 -0.04400
C 	C 	0.82418 0.18711 0.01117 -0.00800
C 	C 	0.79634 0.13246 0.01321 -0.03000
C 	C 	0.82402 0.10932 0.01330 -0.04400
H 	H 	0.89691 0.09094 0.08038 0.04000
H 	H 	0.92449 0.13347 0.93082 0.04000
H 	H 	0.75301 0.10761 0.01341 0.04100
H 	H 	0.80190 0.06675 0.01355 0.04100
C 	C 	0.40723 0.15742 0.99171 -0.05700
C 	C 	0.32555 0.15293 0.95972 0.00300
C 	C 	0.31164 0.16662 0.00417 -0.03700
C 	C 	0.25725 0.14475 0.00575 -0.04700
C 	C 	0.23041 0.09640 0.91806 -0.04400
H 	H 	0.38385 0.12788 0.01510 0.04900
H 	H 	0.48158 0.16914 0.02157 0.05100
H 	H 	0.34288 0.19365 0.03765 0.04100
H 	H 	0.36720 0.15260 0.51600 0.04400
H 	H 	0.93980 0.04458 0.07000 0.03900
C 	C 	0.38244 0.17340 0.95929 0.02500
C 	C 	0.46259 0.18064 0.99514 0.01600
C 	C 	0.28484 0.11830 0.91641 -0.03400
H 	H 	0.89568 0.01292 0.50742 0.03900
H 	H 	0.29524 0.10763 0.88189 0.04200
C 	C 	0.85516 0.18719 0.45486 -0.03000
H 	H 	0.35299 0.20109 0.37234 0.04000
H 	H 	0.87893 0.22656 0.47936 0.03800
C 	C 	0.79441 0.20929 0.00449 0.04400
O 	O 	0.57601 0.22924 0.99627 -0.34900
O 	O 	0.69237 0.22735 0.00208 -0.36900
C 	C 	0.73918 0.24858 0.98698 0.31200
H 	H 	0.61514 0.24639 0.90630 0.18300
O 	O 	0.70579 0.23492 0.47600 -0.44000
H 	H 	0.58969 0.24020 0.65055 0.06500
Br	Br	0.55915 0.21479 0.75206 -0.25300
H 	H 	0.60774 0.23450 0.25364 0.05400
Br	Br	0.57086 0.19846 0.14051 -0.23800
C 	C 	0.78227 0.19659 0.42996 0.04900
C 	C 	0.76357 0.22132 0.43586 -0.11600
C 	C 	0.42448 0.20923 0.44673 0.04800
C 	C 	0.47288 0.23396 0.44863 -0.10400
C 	C 	0.88021 0.21895 0.01095 -0.03100
C 	C 	0.76927 0.22746 0.99738 -0.11100
H 	H 	0.95108 0.22055 0.00995 0.04100
H 	H 	0.90202 0.26126 0.00944 0.03900
C 	C 	0.49378 0.22025 0.96623 -0.08200
C 	C 	0.41284 0.21108 0.92860 -0.06200
Cu	Cu	0.65652 0.26393 0.00112 0.92900
Cu	Cu	0.70479 0.26649 0.89541 0.87400
O 	O 	0.65232 0.26926 0.92738 -0.63900
O 	O 	0.75419 0.28284 0.95559 -0.43900
C 	C 	0.55352 0.25010 0.97522 0.28400
O 	O 	0.67161 0.27295 0.07458 -0.34700
O 	O 	0.67228 0.26795 0.83132 -0.40200
O 	O 	0.55920 0.25813 0.48600 -0.37800
C 	C 	0.53050 0.26390 0.45076 0.30800
C 	C 	0.74119 0.25032 0.44529 0.30900
H 	H 	0.61609 0.25114 0.40716 0.16600
C 	C 	0.62237 0.27353 0.73130 0.12400
C 	C 	0.62318 0.27422 0.67876 -0.03900
C 	C 	0.63483 0.26170 0.18369 0.12800
C 	C 	0.63989 0.26637 0.23724 -0.04200
C 	C 	0.46828 0.23438 0.93198 0.01300
H 	H 	0.39386 0.22326 0.90309 0.04900
H 	H 	0.49158 0.26413 0.90875 0.03900
C 	C 	0.66641 0.30402 0.10697 0.30300
O 	O 	0.58445 0.30016 0.96872 -0.38600
Cu	Cu	0.72136 0.28296 0.53627 0.87400
Cu	Cu	0.63760 0.29757 0.49766 0.89900
O 	O 	0.63984 0.28889 0.42576 -0.64000
O 	O 	0.76242 0.29652 0.43019 -0.36500
O 	O 	0.55406 0.30287 0.42391 -0.39200
O 	O 	0.63422 0.29347 0.57114 -0.38200
C 	C 	0.67542 0.30401 0.16223 -0.08200
C 	C 	0.67414 0.30976 0.82199 0.30500
C 	C 	0.67541 0.31106 0.60892 0.30600
O 	O 	0.71649 0.31730 0.35744 -0.34600
C 	C 	0.66747 0.31593 0.76811 -0.08700
C 	C 	0.68497 0.31309 0.26964 -0.08200
O 	O 	0.64076 0.32402 0.09088 -0.37600
C 	C 	0.68450 0.32164 0.32482 0.30200
O 	O 	0.71855 0.31409 0.60012 -0.40300
C 	C 	0.66850 0.31718 0.66260 -0.08700
Cu	Cu	0.72446 0.33122 0.43088 0.93000
Cu	Cu	0.62499 0.33433 0.40032 0.89600
O 	O 	0.71779 0.33430 0.50435 -0.64000
O 	O 	0.66330 0.34606 0.34066 -0.37500
Cu	Cu	0.68797 0.34797 0.93305 0.89900
O 	O 	0.69789 0.34704 0.00511 -0.64200
C 	C 	0.72193 0.34945 0.19462 -0.04100
O 	O 	0.69129 0.35048 0.85939 -0.38200
C 	C 	0.93888 0.99171 0.43324 0.03000
H 	H 	0.07431 0.98650 0.36658 0.03800
C 	C 	0.02438 0.97660 0.97243 -0.08500
H 	H 	0.04170 0.95485 0.96708 0.05500
H 	H 	0.01970 0.93188 0.44843 0.05100
C 	C 	0.99710 0.94849 0.44397 -0.07400
H 	H 	0.93905 0.87086 0.89748 0.04000
C 	C 	0.94766 0.97728 0.98551 -0.08000
C 	C 	0.96985 0.94904 0.97811 0.03900
H 	H 	0.90537 0.95595 0.98952 0.05300
C 	C 	0.94147 0.91683 0.44583 0.04400
C 	C 	0.91229 0.93839 0.44053 -0.07800
H 	H 	0.86921 0.91393 0.44206 0.05200
Cu	Cu	0.65101 0.36056 0.03043 0.89500
O 	O 	0.72647 0.42503 0.94370 -0.37900
C 	C 	0.71949 0.45315 0.97796 0.31200
O 	O 	0.68094 0.42979 0.00584 -0.39500
H 	H 	0.73626 0.37124 0.02342 0.16600
O 	O 	0.75832 0.41063 0.43640 -0.34900
C 	C 	0.73567 0.43162 0.45664 0.28300
O 	O 	0.68484 0.39994 0.46265 -0.38700
H 	H 	0.74017 0.37085 0.52566 0.18300
C 	C 	0.70996 0.36146 0.75194 -0.03900
C 	C 	0.71052 0.36236 0.69940 0.12400
Br	Br	0.76867 0.42573 0.67860 -0.25200
H 	H 	0.74381 0.39516 0.78014 0.06600
C 	C 	0.72684 0.35424 0.24817 0.12800
Br	Br	0.78972 0.41845 0.29138 -0.23600
H 	H 	0.75340 0.38193 0.17822 0.05400
C 	C 	0.76444 0.49045 0.46554 -0.08100
C 	C 	0.80637 0.52250 0.43875 0.01300
C 	C 	0.82878 0.57690 0.44204 -0.06100
C 	C 	0.80962 0.59987 0.47217 0.02700
C 	C 	0.76926 0.56850 0.50050 -0.06200
C 	C 	0.74689 0.51410 0.49737 0.01200
C 	C 	0.83037 0.65618 0.47245 -0.00100
C 	C 	0.79590 0.66791 0.45032 -0.03300
C 	C 	0.81656 0.72100 0.44720 -0.04400
C 	C 	0.87173 0.76264 0.46628 0.01900
C 	C 	0.90588 0.75113 0.48950 -0.04400
C 	C 	0.88530 0.69809 0.49258 -0.03300
C 	C 	0.89418 0.81668 0.45926 -0.01200
C 	C 	0.91463 0.86218 0.45318 -0.02700
H 	H 	0.82043 0.50496 0.41409 0.05400
H 	H 	0.86011 0.60090 0.42020 0.05200
H 	H 	0.75472 0.58609 0.52439 0.04900
H 	H 	0.71530 0.49018 0.51898 0.03900
H 	H 	0.75344 0.63581 0.43463 0.04000
H 	H 	0.78992 0.72958 0.42918 0.04300
H 	H 	0.94857 0.78315 0.50439 0.04300
H 	H 	0.91216 0.68947 0.50995 0.04100
C 	C 	0.93624 0.89064 0.97684 -0.00300
C 	C 	0.91758 0.87023 0.02121 -0.03700
C 	C 	0.88898 0.81521 0.02107 -0.04500
C 	C 	0.87880 0.78021 0.97655 0.01200
C 	C 	0.89645 0.80048 0.93186 -0.04200
C 	C 	0.92506 0.85547 0.93200 -0.03400
C 	C 	0.85095 0.72260 0.97713 0.00900
C 	C 	0.87844 0.69958 0.97007 -0.04200
C 	C 	0.85202 0.64493 0.97054 -0.02900
C 	C 	0.79805 0.61301 0.97813 -0.00700
C 	C 	0.77057 0.63593 0.98531 -0.02900
C 	C 	0.79692 0.69058 0.98482 -0.04200
C 	C 	0.77072 0.55667 0.97818 0.05000
C 	C 	0.74756 0.50943 0.97813 -0.10400
H 	H 	0.92611 0.89711 0.05602 0.03800
H 	H 	0.87549 0.79991 0.05575 0.04100
H 	H 	0.88837 0.77368 0.89719 0.04300
H 	H 	0.92024 0.72405 0.96435 0.04300
H 	H 	0.87350 0.62745 0.96499 0.04200
H 	H 	0.72881 0.61144 0.99116 0.04100
H 	H 	0.77535 0.70797 0.99019 0.04200
