data_crystal

_cell_length_a 26.17133
_cell_length_b 26.33293
_cell_length_c 26.57665
_cell_angle_alpha 95.43883
_cell_angle_beta  95.43841
_cell_angle_gamma 125.86557

_symmetry_space_group_name_	'P 1'
_symmetry_space_group_name_H-M	'P 1'

loop_
_symmetry_equiv_pos_as_xyz
  x,y,z

loop_
_atom_site_label
_atom_site_type_symbol
_atom_site_fract_x
_atom_site_fract_y
_atom_site_fract_z
_atom_site_charge
C 	C 	0.97438 0.03745 0.00192 0.12500
N 	N 	0.94137 0.97335 0.99725 -0.14300
C 	C 	0.97263 0.94673 0.99431 0.12600
N 	N 	0.03690 0.98416 0.99571 -0.14400
C 	C 	0.07018 0.04837 0.00100 0.12400
N 	N 	0.03894 0.07506 0.00429 -0.14500
C 	C 	0.93746 0.99838 0.43844 0.12800
N 	N 	0.90495 0.93776 0.44742 -0.14600
C 	C 	0.93297 0.90765 0.44654 0.12500
N 	N 	0.99418 0.93903 0.43853 -0.14500
C 	C 	0.02632 0.99912 0.42860 0.13000
N 	N 	0.99781 0.02867 0.42849 -0.14800
Cu	Cu	0.63969 0.24606 0.00891 0.92800
Cu	Cu	0.68364 0.23871 0.89849 0.86900
Cu	Cu	0.68537 0.34761 0.94195 0.89500
Cu	Cu	0.66231 0.37588 0.04594 0.89400
C 	C 	0.66501 0.29574 0.11655 0.28500
O 	O 	0.55088 0.22276 0.01036 -0.35700
C 	C 	0.65772 0.30089 0.82918 0.28400
O 	O 	0.70264 0.34533 0.01330 -0.63800
O 	O 	0.63201 0.25305 0.93565 -0.64400
O 	O 	0.66704 0.18952 0.00403 -0.37100
O 	O 	0.74054 0.24840 0.95491 -0.44400
O 	O 	0.64322 0.32795 0.10389 -0.38200
O 	O 	0.74089 0.43967 0.95245 -0.38700
C 	C 	0.73535 0.47750 0.98383 0.29900
C 	C 	0.53333 0.25596 0.99149 0.29000
O 	O 	0.57723 0.31491 0.98633 -0.40000
O 	O 	0.71431 0.46233 0.02738 -0.39300
O 	O 	0.66195 0.25449 0.08159 -0.35600
C 	C 	0.71883 0.20683 0.98567 0.29800
O 	O 	0.68093 0.34917 0.86755 -0.38500
O 	O 	0.64702 0.24700 0.83719 -0.41600
H 	H 	0.74859 0.36781 0.02789 0.16500
H 	H 	0.58774 0.23093 0.91665 0.17100
Cu	Cu	0.73288 0.33644 0.44128 0.92800
Cu	Cu	0.73618 0.28963 0.55136 0.87100
Cu	Cu	0.62718 0.28881 0.50567 0.89700
Cu	Cu	0.60801 0.32563 0.40491 0.89300
C 	C 	0.68399 0.31509 0.33318 0.28100
O 	O 	0.76702 0.42858 0.44336 -0.36200
C 	C 	0.67064 0.31252 0.61830 0.28400
O 	O 	0.63264 0.27910 0.43447 -0.64000
O 	O 	0.72296 0.34176 0.51425 -0.64100
O 	O 	0.78387 0.30235 0.44452 -0.37100
O 	O 	0.72280 0.23154 0.49449 -0.44500
O 	O 	0.65298 0.33864 0.34541 -0.38800
O 	O 	0.53428 0.23337 0.49168 -0.38300
C 	C 	0.49934 0.23525 0.45368 0.29600
C 	C 	0.73447 0.44946 0.45704 0.29400
O 	O 	0.67545 0.40900 0.46402 -0.39200
O 	O 	0.52513 0.28463 0.43010 -0.39400
O 	O 	0.72560 0.31793 0.36815 -0.35400
C 	C 	0.76439 0.25082 0.46361 0.29900
O 	O 	0.62191 0.28480 0.57915 -0.38700
O 	O 	0.72621 0.32558 0.61178 -0.41400
H 	H 	0.60845 0.23419 0.41682 0.16000
H 	H 	0.74482 0.38557 0.53356 0.17500
C 	C 	0.65209 0.31063 0.77566 -0.07000
C 	C 	0.70281 0.36650 0.76177 -0.01600
C 	C 	0.70623 0.37025 0.70981 0.00100
C 	C 	0.65899 0.31724 0.67127 -0.07000
C 	C 	0.60447 0.26457 0.68509 -0.01600
C 	C 	0.60054 0.26125 0.73704 0.00100
H 	H 	0.74113 0.40589 0.79136 0.04300
H 	H 	0.56651 0.22488 0.65550 0.04200
C 	C 	0.54332 0.20740 0.75039 0.07200
C 	C 	0.75813 0.42865 0.69634 0.07200
N 	N 	0.49748 0.16427 0.76109 -0.12300
N 	N 	0.79970 0.47544 0.68555 -0.12200
C 	C 	0.67487 0.29206 0.17109 -0.06300
C 	C 	0.73277 0.34148 0.20359 -0.01600
C 	C 	0.73834 0.34668 0.25713 0.00400
C 	C 	0.68529 0.30199 0.27843 -0.06400
C 	C 	0.62918 0.24979 0.24579 -0.01600
C 	C 	0.62369 0.24456 0.19229 0.00500
H 	H 	0.77258 0.37742 0.18727 0.03100
H 	H 	0.58872 0.21480 0.26210 0.03000
C 	C 	0.56441 0.19177 0.15944 0.08100
C 	C 	0.79773 0.39938 0.28990 0.07900
N 	N 	0.51694 0.14952 0.13309 -0.11300
N 	N 	0.84533 0.44158 0.31614 -0.11500
C 	C 	0.89809 0.84174 0.45601 -0.05000
C 	C 	0.83845 0.79097 0.42475 0.09800
C 	C 	0.80891 0.72854 0.43348 -0.08500
C 	C 	0.84061 0.71504 0.46901 -0.01000
C 	C 	0.90006 0.76567 0.50035 0.07100
C 	C 	0.92731 0.82867 0.49438 -0.05400
N 	N 	0.81096 0.80116 0.38479 -0.19900
H 	H 	0.76312 0.68963 0.40987 0.05200
C 	C 	0.81531 0.64766 0.46789 0.00500
N 	N 	0.93147 0.75419 0.53577 -0.19500
H 	H 	0.97257 0.86760 0.51865 0.04900
C 	C 	0.82313 0.61646 0.42706 -0.10100
C 	C 	0.79337 0.55082 0.42089 0.13000
C 	C 	0.76193 0.51743 0.45989 -0.11500
C 	C 	0.75538 0.54899 0.50149 -0.02300
C 	C 	0.78015 0.61341 0.50511 0.05500
H 	H 	0.84925 0.64262 0.39823 0.05800
N 	N 	0.79171 0.51961 0.37620 -0.20400
H 	H 	0.73041 0.52322 0.53090 0.04100
N 	N 	0.77018 0.64196 0.54431 -0.19200
H 	H 	0.81917 0.54521 0.34954 0.09100
H 	H 	0.75916 0.47013 0.36540 0.10500
H 	H 	0.74463 0.61639 0.57180 0.08300
H 	H 	0.78711 0.68943 0.54775 0.08700
H 	H 	0.97549 0.79192 0.55851 0.08300
H 	H 	0.91269 0.70800 0.54126 0.08900
H 	H 	0.83578 0.84448 0.37193 0.09200
H 	H 	0.76537 0.76400 0.36390 0.08300
C 	C 	0.90656 0.03051 0.43742 -0.05300
C 	C 	0.88815 0.04476 0.48194 0.09800
C 	C 	0.86018 0.07671 0.47947 -0.08500
C 	C 	0.85352 0.09764 0.43441 -0.01000
C 	C 	0.87212 0.08364 0.38998 0.07000
C 	C 	0.89792 0.04963 0.39185 -0.05400
N 	N 	0.89920 0.03006 0.52750 -0.19900
H 	H 	0.84581 0.08755 0.51338 0.05000
C 	C 	0.83118 0.13795 0.43553 0.00400
N 	N 	0.86530 0.10257 0.34553 -0.19500
H 	H 	0.91195 0.03855 0.35781 0.04600
C 	C 	0.87558 0.20338 0.45549 -0.09900
C 	C 	0.85512 0.24167 0.46441 0.12300
C 	C 	0.78908 0.21430 0.45044 -0.11700
C 	C 	0.74520 0.14953 0.42787 -0.02000
C 	C 	0.76545 0.11083 0.42067 0.05400
H 	H 	0.92598 0.22401 0.46632 0.05600
N 	N 	0.89867 0.30377 0.48806 -0.20400
H 	H 	0.69478 0.12880 0.41690 0.03800
N 	N 	0.72162 0.04784 0.39969 -0.19200
H 	H 	0.94742 0.32374 0.49686 0.08100
H 	H 	0.88472 0.33226 0.49953 0.08000
H 	H 	0.67309 0.02814 0.38934 0.08000
H 	H 	0.73517 0.01796 0.39292 0.08600
H 	H 	0.87954 0.09231 0.31303 0.08200
H 	H 	0.84550 0.12717 0.34257 0.08900
H 	H 	0.92551 0.01214 0.53221 0.09100
H 	H 	0.88349 0.03893 0.55960 0.08100
C 	C 	0.42866 0.18912 0.44522 -0.11000
C 	C 	0.39101 0.16859 0.39545 0.12300
C 	C 	0.32481 0.13799 0.39019 -0.09800
C 	C 	0.29482 0.12192 0.43305 0.00300
C 	C 	0.33121 0.13426 0.48167 0.05800
C 	C 	0.39820 0.16979 0.48768 -0.02400
N 	N 	0.41766 0.17592 0.35268 -0.20200
H 	H 	0.29642 0.12591 0.35254 0.05500
C 	C 	0.22574 0.09386 0.42677 -0.00900
N 	N 	0.30222 0.11216 0.52252 -0.19200
H 	H 	0.42664 0.18326 0.52559 0.04900
C 	C 	0.18033 0.03192 0.39846 -0.08600
C 	C 	0.11447 0.00301 0.39350 0.09900
C 	C 	0.09382 0.03399 0.42193 -0.05300
C 	C 	0.13918 0.09715 0.44813 -0.05400
C 	C 	0.20496 0.12827 0.44914 0.07100
H 	H 	0.19632 0.00668 0.37936 0.05200
N 	N 	0.07164 0.94721 0.35975 -0.19800
H 	H 	0.12341 0.12187 0.46843 0.04900
N 	N 	0.24771 0.19096 0.47137 -0.19400
H 	H 	0.08685 0.92278 0.34120 0.08400
H 	H 	0.02398 0.93005 0.34883 0.09100
H 	H 	0.23213 0.21521 0.48958 0.08300
H 	H 	0.29622 0.21687 0.46900 0.08900
H 	H 	0.32967 0.12364 0.55872 0.08400
H 	H 	0.25232 0.08141 0.51837 0.08800
H 	H 	0.46423 0.18942 0.35478 0.07100
H 	H 	0.39032 0.16388 0.31629 0.08100
C 	C 	0.76694 0.54374 0.97635 -0.11000
C 	C 	0.73492 0.57220 0.97897 0.12500
C 	C 	0.76948 0.63794 0.97979 -0.09900
C 	C 	0.83432 0.67490 0.97542 0.00500
C 	C 	0.86519 0.64562 0.96925 0.05600
C 	C 	0.83124 0.58031 0.97024 -0.02000
N 	N 	0.67090 0.53653 0.97940 -0.20300
H 	H 	0.74569 0.66035 0.98344 0.05600
C 	C 	0.87006 0.74465 0.97958 -0.01100
N 	N 	0.92720 0.67983 0.96243 -0.19200
H 	H 	0.85541 0.55821 0.96736 0.04200
C 	C 	0.90460 0.78429 0.02771 -0.08300
C 	C 	0.93810 0.85057 0.03351 0.10000
C 	C 	0.93701 0.87747 0.99012 -0.05100
C 	C 	0.90218 0.83783 0.94205 -0.05300
C 	C 	0.86890 0.77155 0.93620 0.07100
H 	H 	0.90517 0.76341 0.06083 0.05300
N 	N 	0.97055 0.88791 0.08081 -0.19900
H 	H 	0.90150 0.85870 0.90895 0.04700
N 	N 	0.83656 0.73423 0.88889 -0.19500
H 	H 	0.97163 0.86760 0.11246 0.08300
H 	H 	0.99430 0.93713 0.08688 0.08900
H 	H 	0.83562 0.75454 0.85720 0.08300
H 	H 	0.81264 0.68499 0.88289 0.08900
H 	H 	0.94989 0.65800 0.95879 0.08100
H 	H 	0.95314 0.72793 0.95971 0.08800
H 	H 	0.64255 0.48681 0.97353 0.08400
H 	H 	0.64819 0.55831 0.98331 0.08200
C 	C 	0.94031 0.06616 0.00575 -0.04700
C 	C 	0.93548 0.09709 0.96677 0.09600
C 	C 	0.90140 0.12261 0.97147 -0.08600
C 	C 	0.87009 0.11562 0.01314 -0.00900
C 	C 	0.87515 0.08501 0.05222 0.07100
C 	C 	0.91039 0.06067 0.04813 -0.05500
N 	N 	0.96164 0.10075 0.92412 -0.19900
H 	H 	0.89744 0.14621 0.94169 0.05000
C 	C 	0.82872 0.13681 0.01349 0.00600
N 	N 	0.84666 0.07912 0.09376 -0.19500
H 	H 	0.91433 0.03712 0.07796 0.04700
C 	C 	0.76460 0.09458 0.98811 -0.10200
C 	C 	0.72653 0.11563 0.98052 0.12300
C 	C 	0.75308 0.18006 0.99977 -0.11900
C 	C 	0.81601 0.22122 0.02787 -0.01600
C 	C 	0.85422 0.20025 0.03497 0.05400
H 	H 	0.74496 0.04569 0.97253 0.05600
N 	N 	0.66535 0.07428 0.95360 -0.20500
H 	H 	0.83588 0.27025 0.04320 0.03700
N 	N 	0.91521 0.24120 0.06224 -0.19100
H 	H 	0.64641 0.02692 0.93954 0.08000
H 	H 	0.63606 0.08847 0.94610 0.07900
H 	H 	0.93403 0.28831 0.07715 0.08100
H 	H 	0.94409 0.22651 0.06977 0.08700
H 	H 	0.85011 0.05583 0.12214 0.08200
H 	H 	0.82158 0.09817 0.09871 0.08900
H 	H 	0.98283 0.07799 0.91726 0.08900
H 	H 	0.95917 0.12513 0.89628 0.08000
C 	C 	0.13968 0.08866 0.00142 -0.04800
C 	C 	0.18265 0.09183 0.04054 0.09800
C 	C 	0.24686 0.12226 0.03545 -0.08200
C 	C 	0.26929 0.15144 0.99306 -0.01100
C 	C 	0.22712 0.15124 0.95532 0.07100
C 	C 	0.16258 0.11972 0.95993 -0.05600
N 	N 	0.16292 0.06690 0.08341 -0.19800
H 	H 	0.27963 0.12360 0.06476 0.05500
C 	C 	0.33679 0.18104 0.98827 0.00400
N 	N 	0.24816 0.18099 0.91467 -0.19500
H 	H 	0.12971 0.11799 0.93042 0.04600
C 	C 	0.35147 0.14389 0.96165 -0.09800
C 	C 	0.41534 0.16906 0.95896 0.12800
C 	C 	0.46554 0.23165 0.98551 -0.11300
C 	C 	0.45063 0.26961 0.01041 -0.01900
C 	C 	0.38665 0.24502 0.01188 0.05700
H 	H 	0.31299 0.09532 0.94268 0.05700
N 	N 	0.42794 0.13371 0.92971 -0.20200
H 	H 	0.48904 0.31791 0.02999 0.03300
N 	N 	0.37353 0.28295 0.03611 -0.19200
H 	H 	0.39084 0.08666 0.91200 0.08400
H 	H 	0.47385 0.15339 0.92216 0.08200
H 	H 	0.41076 0.32987 0.05404 0.08000
H 	H 	0.32647 0.26676 0.03679 0.08700
H 	H 	0.21651 0.18008 0.88679 0.08100
H 	H 	0.29604 0.20580 0.91053 0.08700
H 	H 	0.11718 0.04904 0.09054 0.08900
H 	H 	0.19437 0.06747 0.11123 0.08300
