data_crystal

_cell_length_a 18.41758
_cell_length_b 18.80136
_cell_length_c 42.48802
_cell_angle_alpha 95.42480
_cell_angle_beta  95.42449
_cell_angle_gamma 126.39174

_symmetry_space_group_name_	'P 1'
_symmetry_space_group_name_H-M	'P 1'

loop_
_symmetry_equiv_pos_as_xyz
  x,y,z

loop_
_atom_site_label
_atom_site_type_symbol
_atom_site_fract_x
_atom_site_fract_y
_atom_site_fract_z
_atom_site_charge
C 	C 	0.92253 0.99935 0.96766 0.14800
N 	N 	0.01304 0.05272 0.96604 -0.13200
C 	C 	0.05939 0.01770 0.96461 0.14000
N 	N 	0.01520 0.92896 0.96442 -0.13000
C 	C 	0.92495 0.87492 0.96626 0.13200
N 	N 	0.87826 0.91016 0.96815 -0.13200
C 	C 	0.92211 0.02759 0.50103 0.12700
N 	N 	0.86963 0.93946 0.50347 -0.12200
C 	C 	0.90789 0.89646 0.50568 0.14000
N 	N 	0.99871 0.94162 0.50563 -0.14400
C 	C 	0.05138 0.02952 0.50297 0.13900
N 	N 	0.01302 0.07261 0.50057 -0.12900
Cu	Cu	0.78253 0.35046 0.96902 0.92700
Cu	Cu	0.77140 0.29575 0.04054 0.87400
Cu	Cu	0.62973 0.30390 0.00603 0.89900
Cu	Cu	0.60968 0.33536 0.93892 0.89700
C 	C 	0.71984 0.30674 0.90056 0.29000
O 	O 	0.83254 0.47968 0.96530 -0.34700
C 	C 	0.68682 0.35240 0.07720 0.28900
O 	O 	0.63846 0.27338 0.96291 -0.63800
O 	O 	0.76545 0.36950 0.01337 -0.64200
O 	O 	0.84579 0.29427 0.97705 -0.37100
O 	O 	0.74617 0.20347 0.00802 -0.42400
O 	O 	0.68148 0.34717 0.90474 -0.38300
O 	O 	0.49745 0.23271 0.99657 -0.38100
C 	C 	0.44799 0.22886 0.97086 0.31800
C 	C 	0.78698 0.51114 0.97239 0.29700
O 	O 	0.70105 0.45525 0.97535 -0.39600
O 	O 	0.48611 0.28131 0.94961 -0.39300
O 	O 	0.77587 0.31320 0.92454 -0.36000
C 	C 	0.80593 0.22072 0.98954 0.30100
O 	O 	0.61965 0.31473 0.05186 -0.38300
O 	O 	0.76200 0.35961 0.07552 -0.41600
H 	H 	0.60143 0.20794 0.95457 0.17000
H 	H 	0.80075 0.43330 0.02392 0.17300
Cu	Cu	0.58965 0.18964 0.50203 0.93000
Cu	Cu	0.64872 0.21138 0.43136 0.87400
Cu	Cu	0.64116 0.34669 0.46925 0.89800
Cu	Cu	0.61106 0.35732 0.53690 0.89700
C 	C 	0.62591 0.23349 0.57106 0.29300
O 	O 	0.46060 0.14361 0.50663 -0.35100
C 	C 	0.60376 0.30797 0.39750 0.28800
O 	O 	0.67248 0.33077 0.51102 -0.64000
O 	O 	0.57220 0.21370 0.45889 -0.64200
O 	O 	0.63708 0.12120 0.49081 -0.37500
O 	O 	0.73753 0.22383 0.46293 -0.42500
O 	O 	0.59031 0.27680 0.56819 -0.38400
O 	O 	0.71517 0.47571 0.48157 -0.38400
C 	C 	0.70991 0.52027 0.50606 0.31900
C 	C 	0.43003 0.19001 0.50082 0.30000
O 	O 	0.48839 0.27591 0.50005 -0.39800
O 	O 	0.67537 0.48425 0.53115 -0.38900
O 	O 	0.62720 0.18867 0.54552 -0.35900
C 	C 	0.71353 0.15987 0.47944 0.30600
O 	O 	0.62776 0.36446 0.42453 -0.38100
O 	O 	0.58974 0.23066 0.39772 -0.41800
H 	H 	0.73916 0.36497 0.51906 0.17100
H 	H 	0.50754 0.18094 0.44811 0.17500
C 	C 	0.64216 0.21604 0.60299 -0.08300
C 	C 	0.72406 0.22882 0.61412 0.01400
C 	C 	0.74379 0.22202 0.64586 -0.06400
C 	C 	0.68114 0.20125 0.66647 0.02800
C 	C 	0.59745 0.18435 0.65481 -0.06500
C 	C 	0.57809 0.19180 0.62325 0.01900
C 	C 	0.70613 0.20503 0.70093 0.00100
C 	C 	0.65317 0.12787 0.71444 -0.03700
C 	C 	0.66266 0.13519 0.74788 -0.03700
C 	C 	0.72499 0.21978 0.76805 0.00100
C 	C 	0.78299 0.29574 0.75454 -0.03700
C 	C 	0.77367 0.28836 0.72111 -0.03700
C 	C 	0.72047 0.23085 0.80251 0.02800
C 	C 	0.79883 0.26876 0.82617 -0.06400
C 	C 	0.79771 0.29012 0.85850 0.01800
C 	C 	0.71823 0.27399 0.86738 -0.08400
C 	C 	0.63874 0.23227 0.84386 0.01400
C 	C 	0.63988 0.21093 0.81161 -0.06500
H 	H 	0.77359 0.24674 0.59857 0.03100
H 	H 	0.80841 0.23474 0.65461 0.04800
H 	H 	0.54859 0.16807 0.67051 0.04900
H 	H 	0.51392 0.18021 0.61470 0.03900
H 	H 	0.60170 0.06300 0.69905 0.04200
H 	H 	0.61865 0.07586 0.75808 0.04100
H 	H 	0.83187 0.36125 0.76988 0.04200
H 	H 	0.81539 0.34821 0.71091 0.04100
H 	H 	0.86119 0.28379 0.81942 0.05000
H 	H 	0.85945 0.32191 0.87642 0.04300
H 	H 	0.57662 0.21822 0.85048 0.02500
H 	H 	0.57899 0.18156 0.79354 0.04800
C 	C 	0.59624 0.33366 0.36633 -0.08800
C 	C 	0.66118 0.42234 0.36212 0.01300
C 	C 	0.66620 0.44278 0.33121 -0.06500
C 	C 	0.60580 0.37495 0.30434 0.02700
C 	C 	0.53638 0.28800 0.30879 -0.06600
C 	C 	0.53165 0.26736 0.33964 0.01500
C 	C 	0.62297 0.39154 0.27169 0.00000
C 	C 	0.56145 0.39259 0.24996 -0.03800
C 	C 	0.57257 0.39862 0.21795 -0.03800
C 	C 	0.64474 0.40263 0.20737 0.00000
C 	C 	0.70773 0.40424 0.22943 -0.03800
C 	C 	0.69708 0.39911 0.26144 -0.03800
C 	C 	0.65050 0.39818 0.17284 0.02700
C 	C 	0.73328 0.46192 0.16318 -0.06600
C 	C 	0.74383 0.44923 0.13145 0.01500
C 	C 	0.67126 0.37341 0.10898 -0.08800
C 	C 	0.58650 0.31297 0.11811 0.01500
C 	C 	0.57633 0.32498 0.14993 -0.06500
H 	H 	0.71084 0.47435 0.38254 0.03600
H 	H 	0.71945 0.51037 0.32802 0.04800
H 	H 	0.48882 0.23541 0.28820 0.04700
H 	H 	0.47993 0.19912 0.34266 0.03200
H 	H 	0.50419 0.38706 0.25771 0.04100
H 	H 	0.52409 0.39826 0.20123 0.04100
H 	H 	0.76336 0.40681 0.22153 0.03800
H 	H 	0.74478 0.39818 0.27806 0.03900
H 	H 	0.79041 0.51960 0.18050 0.04600
H 	H 	0.80907 0.49714 0.12453 0.03000
H 	H 	0.52982 0.25442 0.10095 0.03700
H 	H 	0.51205 0.27545 0.15707 0.04800
C 	C 	0.85089 0.80065 0.50731 -0.03900
C 	C 	0.87347 0.77215 0.53325 -0.09000
C 	C 	0.82552 0.68040 0.53354 0.18600
C 	C 	0.75510 0.61640 0.50747 -0.11800
C 	C 	0.73109 0.64490 0.48189 -0.04200
C 	C 	0.77878 0.73669 0.48169 0.14000
H 	H 	0.92930 0.82122 0.55296 0.07100
O 	O 	0.85115 0.65344 0.55836 -0.29200
H 	H 	0.67636 0.59583 0.46190 0.05900
O 	O 	0.75533 0.76381 0.45635 -0.27300
H 	H 	0.79347 0.76831 0.44049 0.14600
H 	H 	0.81481 0.64942 0.57486 0.15100
C 	C 	0.77352 0.13321 0.48598 -0.12000
C 	C 	0.78045 0.10727 0.51535 -0.04200
C 	C 	0.83325 0.07724 0.52113 0.13800
C 	C 	0.87944 0.07267 0.49741 -0.03700
C 	C 	0.87601 0.10235 0.46868 -0.09200
C 	C 	0.82225 0.13125 0.46264 0.18200
H 	H 	0.74453 0.10996 0.53366 0.06700
O 	O 	0.83732 0.04966 0.54958 -0.27500
H 	H 	0.91183 0.09930 0.45040 0.07200
O 	O 	0.81634 0.15623 0.43375 -0.29800
H 	H 	0.76378 0.10019 0.41916 0.13300
H 	H 	0.89103 0.10425 0.56440 0.14500
C 	C 	0.15030 0.07826 0.50386 -0.04200
C 	C 	0.20214 0.07173 0.52814 -0.09000
C 	C 	0.29354 0.10818 0.52727 0.18100
C 	C 	0.33372 0.15081 0.50172 -0.11800
C 	C 	0.28298 0.16006 0.47799 -0.04600
C 	C 	0.19123 0.12322 0.47880 0.13900
H 	H 	0.17116 0.03756 0.54758 0.07100
O 	O 	0.34331 0.10137 0.55128 -0.27900
H 	H 	0.31417 0.19448 0.45862 0.05500
O 	O 	0.14168 0.13094 0.45504 -0.27500
H 	H 	0.11315 0.07702 0.43802 0.14600
H 	H 	0.37280 0.15633 0.56788 0.14600
C 	C 	0.82630 0.60588 0.97149 -0.11500
C 	C 	0.81549 0.65446 0.99530 -0.04500
C 	C 	0.84208 0.74053 0.99277 0.13900
C 	C 	0.87861 0.77830 0.96599 -0.03900
C 	C 	0.88726 0.72872 0.94182 -0.09000
C 	C 	0.86125 0.64302 0.94443 0.17900
H 	H 	0.78637 0.62547 0.01580 0.05400
O 	O 	0.83251 0.78756 0.01653 -0.27600
H 	H 	0.91613 0.75755 0.92126 0.07100
O 	O 	0.87033 0.59587 0.92053 -0.27900
H 	H 	0.81132 0.56056 0.90496 0.14800
H 	H 	0.89094 0.82220 0.03238 0.14800
C 	C 	0.82837 0.15742 0.98293 -0.11500
C 	C 	0.84760 0.14324 0.95278 -0.04600
C 	C 	0.87021 0.08455 0.94656 0.14000
C 	C 	0.87455 0.03990 0.97067 -0.04800
C 	C 	0.85082 0.05045 0.00019 -0.08800
C 	C 	0.82934 0.10993 0.00665 0.17600
H 	H 	0.84543 0.17791 0.93416 0.06500
O 	O 	0.89223 0.07415 0.91739 -0.28000
H 	H 	0.85421 0.01658 0.01890 0.07000
O 	O 	0.81105 0.12276 0.03635 -0.29700
H 	H 	0.87144 0.17295 0.04972 0.13100
H 	H 	0.83348 0.02245 0.90359 0.14600
C 	C 	0.15837 0.07651 0.96523 -0.04000
C 	C 	0.19310 0.06243 0.93939 -0.09000
C 	C 	0.28791 0.11291 0.94092 0.18400
C 	C 	0.34856 0.17656 0.96879 -0.11800
C 	C 	0.31381 0.19113 0.99454 -0.03900
C 	C 	0.21904 0.14204 0.99272 0.14100
H 	H 	0.14651 0.01165 0.91824 0.07100
O 	O 	0.32113 0.09689 0.91583 -0.29700
H 	H 	0.36033 0.24069 0.01596 0.06100
O 	O 	0.18574 0.15490 0.01845 -0.27800
H 	H 	0.18031 0.20295 0.01466 0.15100
H 	H 	0.32729 0.13733 0.90110 0.14800
