data_crystal

_cell_length_a 22.75939
_cell_length_b 22.56137
_cell_length_c 26.61320
_cell_angle_alpha 95.48161
_cell_angle_beta  95.48102
_cell_angle_gamma 126.00249

_symmetry_space_group_name_	'P 1'
_symmetry_space_group_name_H-M	'P 1'

loop_
_symmetry_equiv_pos_as_xyz
  x,y,z

loop_
_atom_site_label
_atom_site_type_symbol
_atom_site_fract_x
_atom_site_fract_y
_atom_site_fract_z
_atom_site_charge
C 	C 	0.01339 0.08597 0.99980 0.09000
N 	N 	0.08734 0.12469 0.00205 -0.13200
C 	C 	0.11979 0.09018 0.00690 0.11200
N 	N 	0.96257 0.00366 0.44632 -0.12400
Cu	Cu	0.67776 0.27699 0.01604 0.93000
Cu	Cu	0.71584 0.25620 0.90297 0.87000
C 	C 	0.69306 0.33358 0.12091 0.30600
O 	O 	0.57273 0.23506 0.02107 -0.36200
C 	C 	0.67421 0.31505 0.82970 0.29900
O 	O 	0.65845 0.27439 0.94142 -0.64400
O 	O 	0.71949 0.22031 0.01506 -0.36300
O 	O 	0.79144 0.28226 0.95776 -0.43900
C 	C 	0.54292 0.26775 0.00791 0.28300
O 	O 	0.58434 0.33602 0.99886 -0.39100
O 	O 	0.70818 0.29780 0.08896 -0.35600
C 	C 	0.77601 0.24039 0.99273 0.27300
O 	O 	0.66355 0.25459 0.84193 -0.42200
H 	H 	0.60549 0.24448 0.92538 0.17200
Cu	Cu	0.70762 0.24958 0.53909 0.87100
Cu	Cu	0.58289 0.25399 0.50201 0.89700
C 	C 	0.63044 0.27160 0.32104 0.30500
O 	O 	0.57421 0.22684 0.42970 -0.63800
O 	O 	0.74273 0.24512 0.42683 -0.36900
O 	O 	0.68107 0.17313 0.48426 -0.43800
O 	O 	0.47694 0.19484 0.49818 -0.37600
C 	C 	0.43129 0.19242 0.46191 0.28100
O 	O 	0.45672 0.24227 0.43159 -0.39200
O 	O 	0.66546 0.25595 0.35305 -0.35500
C 	C 	0.72285 0.18846 0.44951 0.28600
H 	H 	0.54360 0.17231 0.41703 0.16700
C 	C 	0.59658 0.25619 0.74208 -0.06200
C 	C 	0.59011 0.25050 0.68866 0.16600
H 	H 	0.55275 0.21122 0.75794 0.05900
O 	O 	0.52905 0.18750 0.65715 -0.29200
H 	H 	0.49300 0.19848 0.65068 0.15500
C 	C 	0.64997 0.28323 0.26993 -0.10200
C 	C 	0.68048 0.31340 0.17177 -0.10200
C 	C 	0.71832 0.34795 0.26479 0.16300
C 	C 	0.77358 0.01519 0.49884 -0.02500
C 	C 	0.78099 0.06396 0.46653 -0.00500
C 	C 	0.82474 0.07961 0.42835 0.03100
C 	C 	0.86131 0.04707 0.42346 -0.04100
C 	C 	0.83137 0.12762 0.39564 -0.06400
C 	C 	0.79622 0.16122 0.40148 0.01200
C 	C 	0.75435 0.14762 0.44038 -0.08400
C 	C 	0.74583 0.09782 0.47226 -0.01400
H 	H 	0.74003 0.00268 0.52818 0.03500
H 	H 	0.89484 0.05878 0.39413 0.04900
H 	H 	0.86410 0.13934 0.36585 0.04900
H 	H 	0.80221 0.19844 0.37606 0.04600
H 	H 	0.71305 0.08646 0.50202 0.03200
C 	C 	0.35081 0.14289 0.46193 -0.06900
C 	C 	0.32091 0.08232 0.48777 -0.00200
C 	C 	0.24497 0.03525 0.48771 -0.04100
C 	C 	0.19782 0.04790 0.46167 0.01600
C 	C 	0.22733 0.10819 0.43520 0.00700
C 	C 	0.30361 0.15538 0.43544 -0.02000
C 	C 	0.18024 0.12087 0.40912 -0.04400
C 	C 	0.10463 0.07485 0.40996 -0.02700
C 	C 	0.07505 0.01550 0.43684 -0.00800
C 	C 	0.12165 0.00158 0.46221 -0.03300
H 	H 	0.35642 0.07138 0.50772 0.04100
H 	H 	0.32615 0.20193 0.41541 0.04300
H 	H 	0.20222 0.16664 0.38840 0.03900
H 	H 	0.06897 0.08546 0.38979 0.04100
C 	C 	0.81775 0.21014 0.00331 -0.07200
C 	C 	0.79713 0.15976 0.03729 0.00900
C 	C 	0.83235 0.12630 0.04403 -0.06700
C 	C 	0.88874 0.14282 0.01702 0.04300
C 	C 	0.91123 0.19499 0.98397 -0.01300
C 	C 	0.87599 0.22874 0.97751 -0.02100
C 	C 	0.96794 0.21187 0.95718 -0.02200
C 	C 	0.00139 0.17650 0.96258 -0.05700
C 	C 	0.97857 0.12382 0.99481 0.01500
C 	C 	0.92250 0.10740 0.02227 -0.06000
H 	H 	0.75311 0.14565 0.05799 0.04600
H 	H 	0.81519 0.08695 0.06989 0.05000
H 	H 	0.89306 0.26842 0.95188 0.03400
H 	H 	0.90547 0.06744 0.04771 0.05400
C 	C 	0.46211 0.22587 0.00022 -0.07300
C 	C 	0.41558 0.15036 0.97626 0.00400
C 	C 	0.33896 0.10871 0.97235 -0.06300
C 	C 	0.30804 0.14193 0.99281 0.02600
C 	C 	0.35463 0.21807 0.01666 0.00500
C 	C 	0.43147 0.25986 0.01982 -0.01600
C 	C 	0.32387 0.25109 0.03766 -0.04100
C 	C 	0.24750 0.20904 0.03503 -0.03000
C 	C 	0.20071 0.13344 0.01105 -0.00100
C 	C 	0.23120 0.09998 0.98999 -0.05800
H 	H 	0.43884 0.12386 0.96080 0.03100
H 	H 	0.30380 0.05047 0.95381 0.04500
H 	H 	0.46744 0.31805 0.03865 0.03300
H 	H 	0.35910 0.30931 0.05624 0.03700
H 	H 	0.22467 0.23520 0.05188 0.04300
C 	C 	0.66095 0.31772 0.77491 -0.10500
C 	C 	0.59808 0.23261 0.22584 -0.05500
C 	C 	0.61300 0.24762 0.17687 0.16300
H 	H 	0.54560 0.18229 0.22954 0.06300
O 	O 	0.56144 0.19810 0.13407 -0.28000
H 	H 	0.52967 0.21408 0.12671 0.14600
H 	H 	0.98578 0.25196 0.93184 0.03200
H 	H 	0.04448 0.18937 0.94117 0.04600
C 	C 	0.65092 0.29315 0.61277 0.30600
O 	O 	0.59139 0.26606 0.57766 -0.37900
O 	O 	0.71034 0.30307 0.60021 -0.42200
Cu	Cu	0.68704 0.28761 0.42589 0.92900
Cu	Cu	0.54183 0.27523 0.39585 0.89300
C 	C 	0.64872 0.30655 0.66765 -0.11000
O 	O 	0.56769 0.25921 0.32858 -0.38800
H 	H 	0.19527 0.04183 0.97108 0.05000
O 	O 	0.69062 0.30814 0.50062 -0.64100
N 	N 	0.07776 0.01630 0.00906 -0.12600
N 	N 	0.97163 0.01231 0.00212 -0.11600
C 	C 	0.85369 0.99842 0.45596 -0.01600
C 	C 	0.73345 0.36268 0.21580 -0.05500
H 	H 	0.22290 0.98899 0.50795 0.02900
O 	O 	0.77021 0.39710 0.30757 -0.28100
C 	C 	0.80956 0.98245 0.49345 -0.04400
H 	H 	0.78578 0.41317 0.21209 0.06200
C 	C 	0.99604 0.97030 0.44032 0.10200
H 	H 	0.09898 0.95595 0.48316 0.03400
C 	C 	0.88998 0.96243 0.44974 0.10500
H 	H 	0.80349 0.94493 0.51865 0.04200
H 	H 	0.75975 0.43343 0.31612 0.14700
C 	C 	0.00359 0.97727 0.00666 0.07800
N 	N 	0.95634 0.89526 0.43716 -0.13700
C 	C 	0.88344 0.85382 0.44020 0.11100
N 	N 	0.85066 0.88769 0.44688 -0.13900
Cu	Cu	0.71344 0.38335 0.94053 0.89500
Cu	Cu	0.69197 0.42470 0.04673 0.89400
O 	O 	0.73916 0.39111 0.01284 -0.63600
O 	O 	0.70708 0.39772 0.11376 -0.38800
O 	O 	0.77328 0.49044 0.94488 -0.37400
C 	C 	0.77606 0.53660 0.98131 0.27700
O 	O 	0.72611 0.51114 0.01124 -0.38700
O 	O 	0.70286 0.37549 0.86496 -0.37500
H 	H 	0.79310 0.42134 0.02573 0.16600
O 	O 	0.72924 0.39340 0.42030 -0.36500
C 	C 	0.69820 0.42448 0.43452 0.28000
O 	O 	0.63055 0.38347 0.44364 -0.38600
H 	H 	0.72098 0.36166 0.51654 0.17200
C 	C 	0.71032 0.37095 0.70049 -0.05800
C 	C 	0.71691 0.37654 0.75391 0.16100
H 	H 	0.75477 0.41524 0.68460 0.05700
O 	O 	0.77901 0.43854 0.78544 -0.27900
H 	H 	0.81494 0.42712 0.78993 0.13500
C 	C 	0.83928 0.77204 0.43472 -0.00700
C 	C 	0.76475 0.72645 0.40992 -0.03000
C 	C 	0.72152 0.64921 0.40649 -0.04000
C 	C 	0.75233 0.61644 0.42751 -0.00200
C 	C 	0.82746 0.66185 0.45210 0.03200
C 	C 	0.87059 0.73955 0.45567 -0.05400
C 	C 	0.85845 0.62889 0.47257 -0.06700
C 	C 	0.81561 0.55142 0.46792 0.01300
C 	C 	0.74114 0.50609 0.44320 -0.08100
C 	C 	0.70933 0.53875 0.42365 -0.01200
H 	H 	0.74031 0.75092 0.39315 0.04200
H 	H 	0.66411 0.61489 0.38732 0.03600
H 	H 	0.92795 0.77462 0.47516 0.04900
H 	H 	0.91589 0.66314 0.49167 0.04600
H 	H 	0.84039 0.52653 0.48334 0.02800
H 	H 	0.65192 0.50366 0.40427 0.03100
C 	C 	0.82641 0.61797 0.98189 -0.07700
C 	C 	0.88568 0.64746 0.95531 0.00800
C 	C 	0.93342 0.72416 0.95587 -0.06300
C 	C 	0.92280 0.77253 0.98315 0.02600
C 	C 	0.86389 0.74347 0.01041 0.00300
C 	C 	0.81601 0.66642 0.00968 -0.01100
C 	C 	0.85325 0.79178 0.03775 -0.03800
C 	C 	0.89988 0.86816 0.03735 -0.03500
C 	C 	0.95785 0.89734 0.00968 0.01000
C 	C 	0.96978 0.84950 0.98307 -0.05400
H 	H 	0.89506 0.61103 0.93437 0.03800
H 	H 	0.97863 0.74586 0.93502 0.04500
H 	H 	0.77058 0.64426 0.03038 0.04100
H 	H 	0.80855 0.77015 0.05908 0.03700
H 	H 	0.89080 0.90474 0.05848 0.04200
H 	H 	0.01435 0.87184 0.96152 0.04000
