data_crystal

_cell_length_a 20.93873
_cell_length_b 20.88986
_cell_length_c 21.07295
_cell_angle_alpha 89.99292
_cell_angle_beta  89.99173
_cell_angle_gamma 89.99173

_symmetry_space_group_name_	'P 1'
_symmetry_space_group_name_H-M	'P 1'

loop_
_symmetry_equiv_pos_as_xyz
  x,y,z

loop_
_atom_site_label
_atom_site_type_symbol
_atom_site_fract_x
_atom_site_fract_y
_atom_site_fract_z
_atom_site_charge
Co	Co	0.96362 0.02941 0.42294 1.17700
Co	Co	0.05105 0.95116 0.59442 1.18900
Co	Co	0.94817 0.04321 0.57712 1.17600
Co	Co	0.06733 0.93867 0.44115 1.18700
C 	C 	0.00119 0.11103 0.31194 0.34200
Co	Co	0.03362 0.97301 0.29592 1.17400
Co	Co	0.98839 0.00550 0.72290 1.15200
C 	C 	0.04719 0.84036 0.34436 0.29700
O 	O 	0.89849 0.96596 0.71290 -0.39600
O 	O 	0.00128 0.00552 0.62421 -0.75700
C 	C 	0.85586 0.98955 0.67344 0.29000
O 	O 	0.91069 0.06949 0.49254 -0.47300
O 	O 	0.09781 0.90365 0.52523 -0.46800
C 	C 	0.00549 0.86724 0.69543 0.32000
O 	O 	0.02538 0.01121 0.50914 -0.57500
C 	C 	0.96456 0.14086 0.68096 0.29600
C 	C 	0.89337 0.95868 0.31828 0.28700
C 	C 	0.16715 0.98833 0.34463 0.29300
O 	O 	0.86889 0.99492 0.61230 -0.39200
O 	O 	0.94382 0.93132 0.29247 -0.39600
O 	O 	0.89309 0.97421 0.37927 -0.39000
O 	O 	0.02556 0.91375 0.73240 -0.40100
O 	O 	0.00173 0.87616 0.63387 -0.40000
O 	O 	0.94629 0.09580 0.72052 -0.41200
O 	O 	0.96091 0.13208 0.61904 -0.39200
O 	O 	0.12131 0.01543 0.31095 -0.39500
O 	O 	0.15515 0.95256 0.39562 -0.37700
O 	O 	0.02457 0.98670 0.39392 -0.75700
C 	C 	0.13052 0.01601 0.70058 0.28400
O 	O 	0.07913 0.04524 0.72297 -0.38600
O 	O 	0.12715 0.97073 0.65612 -0.37500
O 	O 	0.99136 0.06034 0.27656 -0.43900
O 	O 	0.98470 0.11124 0.37223 -0.41400
O 	O 	0.07426 0.88287 0.30727 -0.40000
O 	O 	0.02923 0.85677 0.40197 -0.39300
Co	Co	0.96836 0.41507 0.05271 1.18200
Co	Co	0.03757 0.58564 0.95461 1.17900
Co	Co	0.94779 0.56945 0.05844 1.18400
Co	Co	0.05688 0.43001 0.94729 1.17100
C 	C 	0.88740 0.30725 0.01513 0.29500
Co	Co	0.02604 0.28410 0.99496 1.15100
Co	Co	0.97387 0.71514 0.01646 1.17400
C 	C 	0.15899 0.32991 0.96540 0.31100
O 	O 	0.01563 0.71017 0.10548 -0.35600
O 	O 	0.99404 0.61667 0.01383 -0.75800
C 	C 	0.99526 0.67263 0.15197 0.23900
O 	O 	0.91797 0.48536 0.09505 -0.47200
O 	O 	0.07980 0.51416 0.90541 -0.47200
C 	C 	0.11272 0.70456 0.98451 0.30300
O 	O 	0.02347 0.50197 0.02085 -0.55100
C 	C 	0.84453 0.65921 0.02968 0.27900
C 	C 	0.03104 0.30946 0.13393 0.30600
C 	C 	0.00322 0.32593 0.86101 0.33100
O 	O 	0.95616 0.62349 0.14164 -0.37100
O 	O 	0.06544 0.29101 0.08467 -0.37900
O 	O 	0.99625 0.36278 0.13271 -0.39700
O 	O 	0.06016 0.73709 0.97374 -0.41900
O 	O 	0.11621 0.64317 0.97033 -0.40000
O 	O 	0.88394 0.70030 0.05585 -0.39200
O 	O 	0.86475 0.60118 0.01595 -0.38300
O 	O 	0.98392 0.28746 0.90658 -0.42900
O 	O 	0.00831 0.38841 0.87111 -0.40100
O 	O 	0.02212 0.38415 0.00295 -0.72900
C 	C 	0.96206 0.68124 0.87905 0.29400
O 	O 	0.93350 0.71078 0.92648 -0.41200
O 	O 	0.97803 0.62029 0.88378 -0.41200
O 	O 	0.93585 0.27236 0.03448 -0.40000
O 	O 	0.89375 0.36939 0.00870 -0.39400
O 	O 	0.11508 0.28743 0.95089 -0.41800
O 	O 	0.14725 0.39182 0.96039 -0.40200
Co	Co	0.59521 0.03836 0.05046 1.19600
Co	Co	0.42104 0.96916 0.95824 1.17500
Co	Co	0.44126 0.06097 0.05978 1.18700
Co	Co	0.57522 0.94880 0.94638 1.18000
C 	C 	0.70312 0.97359 0.12799 0.29300
Co	Co	0.72283 0.97993 0.98731 1.15200
Co	Co	0.29460 0.03429 0.02250 1.18000
C 	C 	0.67440 0.99980 0.85550 0.29800
O 	O 	0.31032 0.12430 0.06137 -0.39000
O 	O 	0.39250 0.01442 0.01706 -0.75200
C 	C 	0.34997 0.16410 0.03362 0.27700
O 	O 	0.52659 0.08999 0.09421 -0.46900
O 	O 	0.49003 0.92418 0.90843 -0.47400
C 	C 	0.32289 0.04367 0.88424 0.29300
O 	O 	0.50668 0.98383 0.02190 -0.55400
C 	C 	0.34192 0.01251 0.15623 0.28300
C 	C 	0.70130 0.11941 0.00771 0.29400
C 	C 	0.67597 0.84667 0.96094 0.31300
O 	O 	0.40779 0.14443 0.01843 -0.38000
O 	O 	0.73674 0.07078 0.02565 -0.39100
O 	O 	0.63909 0.11299 0.00358 -0.38600
O 	O 	0.29647 0.07375 0.93255 -0.41200
O 	O 	0.38344 0.02567 0.88651 -0.40600
O 	O 	0.30292 0.99202 0.11110 -0.37500
O 	O 	0.38995 0.05246 0.14422 -0.37900
O 	O 	0.71737 0.89070 0.94385 -0.41800
O 	O 	0.61404 0.85836 0.95974 -0.39900
O 	O 	0.62354 0.98420 0.99968 -0.79200
C 	C 	0.30247 0.89412 0.99090 0.30500
O 	O 	0.27065 0.94735 0.98079 -0.42400
O 	O 	0.36423 0.89074 0.97925 -0.40100
O 	O 	0.72069 0.94068 0.07724 -0.37600
O 	O 	0.65269 0.01273 0.12761 -0.38200
O 	O 	0.71462 0.02139 0.89845 -0.40900
O 	O 	0.61266 0.99588 0.86812 -0.39900
C 	C 	0.73908 0.70720 0.05204 -0.05300
C 	C 	0.78213 0.68207 0.00741 0.00700
C 	C 	0.77509 0.69884 0.94329 -0.09000
C 	C 	0.73446 0.74922 0.92618 0.03800
C 	C 	0.69884 0.78124 0.97287 -0.14500
C 	C 	0.69762 0.75683 0.03483 0.07100
H 	H 	0.74248 0.69311 0.10141 0.05200
H 	H 	0.80598 0.67768 0.90778 0.05900
H 	H 	0.73432 0.76639 0.87765 0.02400
H 	H 	0.66902 0.78009 0.07096 0.02800
C 	C 	0.81548 0.24181 0.94854 -0.04800
C 	C 	0.82548 0.27680 0.00442 -0.02800
C 	C 	0.78269 0.27015 0.05516 -0.01100
C 	C 	0.73528 0.22307 0.05305 -0.01100
C 	C 	0.73079 0.18237 0.00032 -0.02700
C 	C 	0.76819 0.19468 0.94649 -0.04800
H 	H 	0.84748 0.24765 0.90853 0.04200
H 	H 	0.78934 0.29784 0.09813 0.04000
H 	H 	0.70578 0.21466 0.09447 0.04000
H 	H 	0.76415 0.16430 0.90499 0.04000
C 	C 	0.17364 0.78410 0.04690 0.03200
C 	C 	0.17164 0.74025 0.99659 -0.11700
C 	C 	0.22113 0.73956 0.95169 -0.00200
C 	C 	0.26839 0.78682 0.95329 -0.00100
C 	C 	0.26624 0.83487 0.99977 -0.11800
C 	C 	0.22077 0.83130 0.04847 0.03300
H 	H 	0.13644 0.78401 0.08266 0.03400
H 	H 	0.22049 0.70529 0.91311 0.03900
H 	H 	0.30390 0.78867 0.91593 0.03800
H 	H 	0.21969 0.86737 0.08541 0.03200
C 	C 	0.24956 0.30964 0.03873 0.07200
C 	C 	0.22473 0.30777 0.97698 -0.14600
C 	C 	0.25676 0.27214 0.93026 0.04000
C 	C 	0.30791 0.23236 0.94716 -0.09300
C 	C 	0.32548 0.22607 0.01114 0.01000
C 	C 	0.29996 0.26901 0.05574 -0.05400
H 	H 	0.22626 0.33819 0.07489 0.02900
H 	H 	0.23918 0.27168 0.88190 0.02400
H 	H 	0.32927 0.20161 0.91164 0.05900
H 	H 	0.31455 0.26619 0.10500 0.05300
C 	C 	0.76407 0.05186 0.71311 -0.02300
C 	C 	0.78931 0.99253 0.69469 -0.06000
C 	C 	0.75912 0.93618 0.71511 -0.00700
C 	C 	0.71224 0.93900 0.76234 -0.01300
C 	C 	0.69575 0.99808 0.78930 -0.06400
C 	C 	0.71751 0.05468 0.76065 -0.00900
H 	H 	0.78551 0.09580 0.69596 0.03600
H 	H 	0.77663 0.89001 0.69941 0.03900
H 	H 	0.69407 0.89496 0.78267 0.03500
H 	H 	0.70337 0.10076 0.77963 0.03800
C 	C 	0.23379 0.97708 0.74526 -0.00900
C 	C 	0.19224 0.02821 0.73205 -0.06800
C 	C 	0.20445 0.08853 0.75886 -0.01400
C 	C 	0.25244 0.09556 0.80440 -0.00600
C 	C 	0.28884 0.04241 0.82325 -0.07700
C 	C 	0.28204 0.98426 0.79066 -0.00400
H 	H 	0.22587 0.93059 0.72389 0.04600
H 	H 	0.17429 0.12902 0.74729 0.03900
H 	H 	0.25868 0.14132 0.82778 0.03700
H 	H 	0.31070 0.94321 0.80400 0.03600
C 	C 	0.25866 0.93627 0.29192 -0.01400
C 	C 	0.23235 0.99121 0.31987 -0.05900
C 	C 	0.25968 0.05110 0.30698 -0.01700
C 	C 	0.30480 0.05715 0.25848 -0.00600
C 	C 	0.32181 0.00345 0.22223 -0.07200
C 	C 	0.30294 0.94240 0.24266 -0.00100
H 	H 	0.23951 0.88944 0.30323 0.04400
H 	H 	0.24135 0.09368 0.33001 0.04000
H 	H 	0.32099 0.10440 0.24463 0.04400
H 	H 	0.31773 0.90027 0.21650 0.04000
C 	C 	0.79728 0.01350 0.27522 -0.01900
C 	C 	0.83259 0.95696 0.28318 -0.05800
C 	C 	0.81648 0.90252 0.24752 -0.00900
C 	C 	0.77011 0.90646 0.19993 -0.01300
C 	C 	0.73943 0.96495 0.18749 -0.05600
C 	C 	0.75094 0.01756 0.22745 -0.01800
H 	H 	0.80877 0.05561 0.30298 0.03700
H 	H 	0.84227 0.85807 0.25438 0.04100
H 	H 	0.76016 0.86485 0.17087 0.04400
H 	H 	0.72694 0.06272 0.21905 0.04500
C 	C 	0.92438 0.24209 0.72789 -0.01000
C 	C 	0.97603 0.20546 0.70602 -0.08500
C 	C 	0.03841 0.22393 0.72191 0.00300
C 	C 	0.04849 0.27261 0.76651 0.01300
C 	C 	0.99620 0.30264 0.79567 -0.11000
C 	C 	0.93453 0.29109 0.77207 0.00500
H 	H 	0.87602 0.22923 0.71477 0.03700
H 	H 	0.07880 0.19705 0.70395 0.03600
H 	H 	0.09652 0.28221 0.78312 0.02900
H 	H 	0.89381 0.31516 0.79302 0.03300
C 	C 	0.03450 0.76055 0.73741 0.01300
C 	C 	0.98716 0.80590 0.72353 -0.10200
C 	C 	0.92628 0.79936 0.75047 -0.00600
C 	C 	0.91546 0.75321 0.79727 -0.00800
C 	C 	0.96547 0.71309 0.81701 -0.08700
C 	C 	0.02357 0.71399 0.78384 0.00200
H 	H 	0.08136 0.76449 0.71593 0.03500
H 	H 	0.88884 0.83317 0.73881 0.03800
H 	H 	0.86961 0.75150 0.82106 0.03700
H 	H 	0.06208 0.68230 0.79775 0.03600
C 	C 	0.08218 0.74149 0.29052 -0.00100
C 	C 	0.03260 0.77674 0.31866 -0.05600
C 	C 	0.96913 0.76167 0.30334 -0.01800
C 	C 	0.95606 0.72032 0.25264 -0.04100
C 	C 	0.00648 0.69360 0.21756 -0.01300
C 	C 	0.06927 0.70074 0.23946 -0.02600
H 	H 	0.13135 0.75103 0.30350 0.03900
H 	H 	0.93023 0.78717 0.32596 0.04300
H 	H 	0.90716 0.71383 0.23711 0.04900
H 	H 	0.10849 0.67889 0.21383 0.04700
C 	C 	0.97004 0.21941 0.27561 -0.01800
C 	C 	0.01663 0.17154 0.28070 -0.06200
C 	C 	0.07371 0.17702 0.24640 -0.00600
C 	C 	0.08139 0.22642 0.20246 -0.01500
C 	C 	0.03156 0.27015 0.19192 -0.04500
C 	C 	0.97743 0.26863 0.23135 -0.03200
H 	H 	0.92621 0.21608 0.30278 0.04100
H 	H 	0.11069 0.14106 0.25132 0.03700
H 	H 	0.12460 0.22861 0.17424 0.04500
H 	H 	0.93916 0.30290 0.22477 0.04800
