data_crystal

_cell_length_a 23.54154
_cell_length_b 26.76730
_cell_length_c 26.41730
_cell_angle_alpha 88.28396
_cell_angle_beta  77.92000
_cell_angle_gamma 79.30996

_symmetry_space_group_name_	'P 1'
_symmetry_space_group_name_H-M	'P 1'

loop_
_symmetry_equiv_pos_as_xyz
  x,y,z

loop_
_atom_site_label
_atom_site_type_symbol
_atom_site_fract_x
_atom_site_fract_y
_atom_site_fract_z
_atom_site_charge
Ni	Ni	0.02111 0.96609 0.03981 1.09200
O 	O 	0.00989 0.97478 0.96483 -0.71000
Ni	Ni	0.97151 0.04984 0.96424 1.10300
O 	O 	0.04546 0.88742 0.03431 -0.35700
O 	O 	0.96229 0.88085 0.00699 -0.39000
O 	O 	0.11132 0.96741 0.01774 -0.36800
Ni	Ni	0.95211 0.93508 0.95141 1.06900
O 	O 	0.07773 0.03087 0.10169 -0.41400
O 	O 	0.89318 0.97004 0.01239 -0.42500
O 	O 	0.96495 0.05221 0.88839 -0.36600
O 	O 	0.98196 0.04107 0.03961 -0.67200
O 	O 	0.02921 0.96405 0.11533 -0.38200
O 	O 	0.94602 0.12833 0.97005 -0.35900
O 	O 	0.02649 0.13716 0.00035 -0.42000
Ni	Ni	0.04114 0.08002 0.05199 1.06800
H 	H 	0.04754 0.96719 0.93903 0.15400
H 	H 	0.94438 0.04878 0.06549 0.16500
C 	C 	0.85817 0.01118 0.00453 0.30700
O 	O 	0.09593 0.04720 0.98824 -0.43400
C 	C 	0.01351 0.85976 0.01575 0.27700
C 	C 	0.95254 0.01209 0.86831 0.28600
C 	C 	0.13216 0.00577 0.99307 0.29900
C 	C 	0.97409 0.15605 0.99298 0.31000
C 	C 	0.04769 0.00194 0.13373 0.28600
O 	O 	0.88102 0.05006 0.98375 -0.36400
O 	O 	0.92065 0.98261 0.89786 -0.41600
Ni	Ni	0.03471 0.94740 0.54412 1.09900
O 	O 	0.05351 0.96156 0.46657 -0.70200
Ni	Ni	0.01696 0.03584 0.46453 1.09700
O 	O 	0.03732 0.87016 0.53593 -0.35500
O 	O 	0.97640 0.88687 0.47856 -0.38100
O 	O 	0.12480 0.93495 0.54474 -0.35900
Ni	Ni	0.02511 0.92279 0.41904 1.06600
O 	O 	0.07407 0.00068 0.62896 -0.39100
O 	O 	0.94793 0.96945 0.41286 -0.39200
O 	O 	0.01962 0.04477 0.38570 -0.37200
O 	O 	0.01086 0.02347 0.54235 -0.70900
O 	O 	0.01724 0.94113 0.62260 -0.36300
O 	O 	0.99470 0.11395 0.47633 -0.33600
O 	O 	0.07034 0.11165 0.51879 -0.39800
Ni	Ni	0.06545 0.05365 0.57240 1.07000
H 	H 	0.09672 0.95843 0.45440 0.15900
H 	H 	0.96998 0.03437 0.56217 0.18000
C 	C 	0.91227 0.99255 0.45342 0.29400
O 	O 	0.13644 0.01610 0.52266 -0.40400
C 	C 	0.00285 0.85480 0.50835 0.22000
C 	C 	0.04428 0.00875 0.34992 0.31900
C 	C 	0.15920 0.96895 0.53009 0.29300
C 	C 	0.02384 0.13716 0.50346 0.24400
C 	C 	0.03182 0.97548 0.64998 0.28300
O 	O 	0.92922 0.02794 0.47737 -0.35600
O 	O 	0.06791 0.96261 0.36234 -0.42600
Ni	Ni	0.99409 0.46166 0.05409 1.10500
O 	O 	0.99588 0.47643 0.97715 -0.68100
Ni	Ni	0.97434 0.55398 0.97754 1.10100
O 	O 	0.00385 0.38349 0.04536 -0.38000
O 	O 	0.92579 0.39201 0.00632 -0.40500
O 	O 	0.08599 0.44922 0.04175 -0.37100
Ni	Ni	0.93239 0.45036 0.95445 1.06800
O 	O 	0.05390 0.50843 0.12852 -0.40600
O 	O 	0.87407 0.48848 0.01390 -0.42600
O 	O 	0.97872 0.56172 0.89959 -0.35500
O 	O 	0.97167 0.53939 0.05479 -0.68100
O 	O 	0.99030 0.45340 0.13165 -0.34600
O 	O 	0.96624 0.63225 0.98543 -0.35800
O 	O 	0.04174 0.62514 0.02787 -0.41600
Ni	Ni	0.03576 0.56481 0.07744 1.06300
H 	H 	0.03490 0.46394 0.95457 0.14800
H 	H 	0.93256 0.55175 0.07728 0.15800
C 	C 	0.84941 0.53490 0.00789 0.31500
O 	O 	0.09158 0.52923 0.01560 -0.43000
C 	C 	0.97178 0.36377 0.01877 0.29500
C 	C 	0.95898 0.52798 0.87582 0.27000
C 	C 	0.11723 0.48270 0.01911 0.31400
C 	C 	0.99688 0.65288 0.01295 0.29000
C 	C 	0.01313 0.48492 0.15524 0.22500
O 	O 	0.88242 0.56847 0.98898 -0.36500
O 	O 	0.91712 0.50507 0.90149 -0.40100
Ni	Ni	0.00652 0.45711 0.55569 1.09500
O 	O 	0.00831 0.46857 0.47816 -0.70400
Ni	Ni	0.97103 0.54394 0.47770 1.10300
O 	O 	0.03260 0.37855 0.54810 -0.35500
O 	O 	0.96086 0.37056 0.50491 -0.38800
O 	O 	0.09624 0.45839 0.54510 -0.36400
Ni	Ni	0.95462 0.43062 0.45451 1.07100
O 	O 	0.05150 0.51892 0.62953 -0.39900
O 	O 	0.89113 0.46127 0.51489 -0.42000
O 	O 	0.97530 0.54931 0.39979 -0.36600
O 	O 	0.96975 0.53250 0.55489 -0.67900
O 	O 	0.00239 0.45274 0.63383 -0.36700
O 	O 	0.94538 0.62243 0.48530 -0.35600
O 	O 	0.01888 0.63038 0.52656 -0.41800
Ni	Ni	0.02460 0.57037 0.57711 1.07400
H 	H 	0.04860 0.46138 0.45629 0.15300
H 	H 	0.92954 0.54007 0.57686 0.17200
C 	C 	0.85733 0.50399 0.50927 0.28900
O 	O 	0.08831 0.53948 0.51737 -0.42700
C 	C 	0.00896 0.35080 0.52056 0.27400
C 	C 	0.96166 0.51223 0.37579 0.29000
C 	C 	0.12079 0.49570 0.52214 0.28700
C 	C 	0.97159 0.65076 0.50982 0.31300
C 	C 	0.01634 0.49056 0.65663 0.27200
O 	O 	0.88116 0.54244 0.48824 -0.35500
O 	O 	0.92768 0.48227 0.40197 -0.40600
Ni	Ni	0.50881 0.96159 0.02002 1.09800
O 	O 	0.51166 0.97753 0.94312 -0.69700
Ni	Ni	0.48938 0.05520 0.94522 1.10200
O 	O 	0.51697 0.88357 0.01092 -0.35100
O 	O 	0.44182 0.89162 0.96788 -0.40400
O 	O 	0.60070 0.94750 0.00795 -0.35900
Ni	Ni	0.44918 0.95198 0.91837 1.06700
O 	O 	0.57007 0.00692 0.09400 -0.40000
O 	O 	0.39074 0.98730 0.97936 -0.44000
O 	O 	0.49459 0.06497 0.86765 -0.36000
O 	O 	0.48719 0.03923 0.02195 -0.68500
O 	O 	0.50541 0.95279 0.09760 -0.37000
O 	O 	0.47977 0.13320 0.95533 -0.35300
O 	O 	0.55787 0.12432 0.99443 -0.40500
Ni	Ni	0.55241 0.06376 0.04360 1.07000
H 	H 	0.55101 0.96570 0.92078 0.16200
H 	H 	0.44840 0.05180 0.04487 0.15800
C 	C 	0.36547 0.03402 0.97601 0.31900
O 	O 	0.60681 0.02711 0.98168 -0.42100
C 	C 	0.48577 0.86328 0.98371 0.26600
C 	C 	0.47398 0.03292 0.84272 0.29800
C 	C 	0.63274 0.98096 0.98678 0.29900
C 	C 	0.51172 0.15263 0.98231 0.27300
C 	C 	0.52878 0.98421 0.12107 0.26200
O 	O 	0.39746 0.06829 0.95690 -0.36100
O 	O 	0.43269 0.00906 0.86782 -0.40000
Ni	Ni	0.54882 0.94325 0.53001 1.09700
O 	O 	0.55138 0.95141 0.45235 -0.69900
Ni	Ni	0.50926 0.02392 0.44862 1.10100
O 	O 	0.55456 0.86505 0.52971 -0.36700
O 	O 	0.47875 0.87599 0.48736 -0.41200
O 	O 	0.64073 0.93572 0.51723 -0.35800
Ni	Ni	0.51433 0.90682 0.41799 1.07700
O 	O 	0.60040 0.00758 0.59789 -0.39000
O 	O 	0.43286 0.94987 0.41895 -0.38300
O 	O 	0.49661 0.02540 0.37266 -0.35700
O 	O 	0.51915 0.01833 0.52429 -0.69100
O 	O 	0.54694 0.94319 0.60742 -0.37100
O 	O 	0.48364 0.10239 0.45554 -0.35800
O 	O 	0.56842 0.10761 0.48233 -0.40300
Ni	Ni	0.57812 0.05450 0.53978 1.07500
H 	H 	0.59279 0.94905 0.43346 0.15900
H 	H 	0.48099 0.02868 0.54890 0.16400
C 	C 	0.40235 0.97624 0.45956 0.27400
O 	O 	0.64176 0.01528 0.48465 -0.40500
C 	C 	0.51375 0.84649 0.51265 0.26300
C 	C 	0.51478 0.98614 0.33942 0.29500
C 	C 	0.67006 0.97072 0.49431 0.27000
C 	C 	0.51629 0.12926 0.47481 0.28500
C 	C 	0.56305 0.98188 0.62716 0.26100
O 	O 	0.42357 0.01300 0.47705 -0.36400
O 	O 	0.54426 0.94251 0.35238 -0.40800
Ni	Ni	0.50633 0.46660 0.03865 1.10000
O 	O 	0.50412 0.47589 0.96140 -0.69400
Ni	Ni	0.46426 0.55030 0.95989 1.09700
O 	O 	0.53436 0.38839 0.03236 -0.35900
O 	O 	0.45986 0.37871 0.99391 -0.41300
O 	O 	0.59606 0.46968 0.02632 -0.36000
Ni	Ni	0.44959 0.43608 0.94159 1.07100
O 	O 	0.54835 0.53310 0.11165 -0.39900
O 	O 	0.38736 0.46661 0.00283 -0.41400
O 	O 	0.46536 0.55313 0.88218 -0.37300
O 	O 	0.46630 0.54110 0.03703 -0.68800
O 	O 	0.50436 0.46370 0.11633 -0.37500
O 	O 	0.43748 0.62868 0.96546 -0.35900
O 	O 	0.51291 0.63813 0.00327 -0.39500
Ni	Ni	0.51975 0.58164 0.05728 1.07900
H 	H 	0.54370 0.46909 0.93827 0.16100
H 	H 	0.42663 0.54774 0.06003 0.16500
C 	C 	0.35237 0.50873 0.99763 0.27200
O 	O 	0.58339 0.55011 0.99804 -0.43200
C 	C 	0.51033 0.36033 0.00576 0.30200
C 	C 	0.45064 0.51506 0.86050 0.29500
C 	C 	0.61850 0.50878 0.00535 0.29800
C 	C 	0.46425 0.65764 0.98850 0.29000
C 	C 	0.51569 0.50283 0.13908 0.29100
O 	O 	0.37447 0.54699 0.97397 -0.35600
O 	O 	0.41840 0.48529 0.88910 -0.40600
Ni	Ni	0.50692 0.44401 0.54012 1.10000
O 	O 	0.51093 0.46000 0.46305 -0.69200
Ni	Ni	0.48225 0.53697 0.46563 1.10100
O 	O 	0.52419 0.36544 0.52929 -0.35300
O 	O 	0.45250 0.36711 0.48324 -0.40000
O 	O 	0.59802 0.43757 0.53056 -0.36500
Ni	Ni	0.45254 0.43014 0.43647 1.06700
O 	O 	0.55881 0.49483 0.61752 -0.40900
O 	O 	0.38979 0.46114 0.49736 -0.42100
O 	O 	0.48819 0.54684 0.38777 -0.36000
O 	O 	0.47816 0.52101 0.54255 -0.69200
O 	O 	0.50113 0.43518 0.61810 -0.36300
O 	O 	0.46420 0.61528 0.47699 -0.35400
O 	O 	0.53842 0.61390 0.52025 -0.40100
Ni	Ni	0.53735 0.55128 0.56760 1.06800
H 	H 	0.55110 0.45041 0.44139 0.16300
H 	H 	0.43814 0.53093 0.56438 0.16400
C 	C 	0.36239 0.50768 0.49619 0.31000
O 	O 	0.59731 0.51897 0.50629 -0.42600
C 	C 	0.49909 0.34269 0.49847 0.26900
C 	C 	0.47042 0.51350 0.36188 0.27000
C 	C 	0.62650 0.47362 0.51004 0.31300
C 	C 	0.49276 0.63888 0.50397 0.29100
C 	C 	0.52013 0.46857 0.64299 0.27100
O 	O 	0.39144 0.54309 0.47487 -0.36600
O 	O 	0.43183 0.48657 0.38634 -0.40800
C 	C 	0.50170 0.47444 0.69965 -0.05500
C 	C 	0.54451 0.47405 0.72958 -0.02300
C 	C 	0.52775 0.48997 0.78140 -0.00100
C 	C 	0.46798 0.50668 0.80399 -0.10200
C 	C 	0.42484 0.50766 0.77383 0.07700
C 	C 	0.44183 0.49064 0.72219 -0.05100
H 	H 	0.56123 0.48845 0.80428 0.02300
H 	H 	0.40872 0.49259 0.69886 0.05400
H 	H 	0.59096 0.46222 0.71240 0.04600
I 	I 	0.33482 0.53966 0.80322 -0.09500
C 	C 	0.48579 0.51189 0.30490 -0.05300
C 	C 	0.50805 0.46506 0.27908 -0.02500
C 	C 	0.51740 0.46220 0.22510 0.00800
C 	C 	0.50390 0.50606 0.19625 -0.09500
C 	C 	0.48079 0.55322 0.22229 0.07500
C 	C 	0.47289 0.55596 0.27634 -0.03400
H 	H 	0.53538 0.42586 0.20571 0.04200
H 	H 	0.45459 0.59202 0.29621 0.06900
H 	H 	0.51787 0.43077 0.30092 0.01400
I 	I 	0.45196 0.61992 0.18206 -0.19300
C 	C 	0.51375 0.79160 0.51285 -0.05300
C 	C 	0.47511 0.77129 0.55237 -0.01600
C 	C 	0.46157 0.72329 0.54634 -0.00200
C 	C 	0.48727 0.69446 0.50104 -0.08600
C 	C 	0.52415 0.71579 0.46041 0.07700
C 	C 	0.53801 0.76364 0.46683 -0.04300
H 	H 	0.43347 0.70734 0.57809 0.02600
H 	H 	0.56581 0.77999 0.43517 0.02900
H 	H 	0.45426 0.79327 0.58730 0.04100
I 	I 	0.56119 0.67570 0.38944 -0.09400
C 	C 	0.51077 0.28683 0.49393 -0.04600
C 	C 	0.52559 0.26471 0.44426 -0.02700
C 	C 	0.51938 0.21452 0.43718 0.00900
C 	C 	0.50005 0.18496 0.47980 -0.08900
C 	C 	0.48402 0.20738 0.52968 0.06800
C 	C 	0.49004 0.25783 0.53658 -0.03500
H 	H 	0.53267 0.19773 0.39872 0.03500
H 	H 	0.47624 0.27508 0.57483 0.06500
H 	H 	0.54004 0.28708 0.41078 0.02300
I 	I 	0.45174 0.16528 0.59542 -0.16800
C 	C 	0.48514 0.80867 0.98700 -0.05100
C 	C 	0.50521 0.77920 0.94158 -0.02600
C 	C 	0.48810 0.73227 0.93829 0.01100
C 	C 	0.45337 0.71274 0.98136 -0.09100
C 	C 	0.42918 0.74410 0.02526 0.07200
C 	C 	0.44692 0.79082 0.02882 -0.02800
H 	H 	0.50617 0.70904 0.90372 0.03900
H 	H 	0.42820 0.81463 0.06290 0.06000
H 	H 	0.53247 0.79350 0.90809 0.02900
I 	I 	0.36654 0.72096 0.08705 -0.12300
C 	C 	0.50638 0.20767 0.98690 -0.05700
C 	C 	0.49095 0.22949 0.03665 -0.01700
C 	C 	0.50385 0.27707 0.04510 0.00700
C 	C 	0.52865 0.30513 0.00337 -0.08400
C 	C 	0.54827 0.28170 0.95419 0.06100
C 	C 	0.53551 0.23392 0.94578 -0.02900
H 	H 	0.48945 0.29416 0.08340 0.03800
H 	H 	0.55067 0.21620 0.90780 0.06400
H 	H 	0.47091 0.20863 0.06924 0.02100
I 	I 	0.59301 0.31995 0.89099 -0.16200
C 	C 	0.54203 0.99508 0.68243 -0.06600
C 	C 	0.53923 0.95689 0.71978 -0.01400
C 	C 	0.51845 0.96973 0.77211 -0.00800
C 	C 	0.49938 0.02091 0.78768 -0.09100
C 	C 	0.50175 0.05944 0.75009 0.07600
C 	C 	0.52395 0.04633 0.69780 -0.03000
H 	H 	0.51675 0.93983 0.80067 -0.00300
H 	H 	0.52565 0.07595 0.66894 0.03300
H 	H 	0.55347 0.91725 0.70835 0.04700
I 	I 	0.46769 0.13717 0.77007 -0.07500
C 	C 	0.51560 0.98854 0.17814 -0.06500
C 	C 	0.52833 0.03024 0.20201 -0.01600
C 	C 	0.52272 0.03174 0.25571 0.01300
C 	C 	0.50427 0.99169 0.28622 -0.09700
C 	C 	0.48591 0.95221 0.26270 0.07800
C 	C 	0.49234 0.95062 0.20885 -0.03900
H 	H 	0.53583 0.06271 0.27322 0.03600
H 	H 	0.48023 0.91934 0.19098 0.06700
H 	H 	0.54414 0.06087 0.17882 0.01800
I 	I 	0.44653 0.89525 0.30696 -0.15000
C 	C 	0.79510 0.50291 0.51066 -0.04900
C 	C 	0.76152 0.48508 0.55548 -0.02100
C 	C 	0.71035 0.46657 0.55329 0.00500
C 	C 	0.69008 0.46825 0.50688 -0.09900
C 	C 	0.72520 0.48387 0.46139 0.08100
C 	C 	0.77632 0.50253 0.46374 -0.04600
H 	H 	0.68408 0.45436 0.58860 0.04600
H 	H 	0.80341 0.51374 0.42850 0.07500
H 	H 	0.77653 0.48356 0.59168 0.04300
I 	I 	0.70051 0.48120 0.38880 -0.12200
C 	C 	0.18458 0.49324 0.51447 -0.05500
C 	C 	0.21478 0.50985 0.46733 -0.02100
C 	C 	0.27047 0.52244 0.46345 0.00500
C 	C 	0.29788 0.51662 0.50606 -0.09700
C 	C 	0.26650 0.50221 0.55408 0.07900
C 	C 	0.21077 0.48942 0.55778 -0.04100
H 	H 	0.29406 0.53345 0.42628 0.04300
H 	H 	0.18659 0.47898 0.59495 0.06700
H 	H 	0.19420 0.51450 0.43401 0.03500
I 	I 	0.30282 0.49918 0.62149 -0.13300
C 	C 	0.68013 0.51221 0.00496 -0.04900
C 	C 	0.69961 0.50843 0.05179 -0.02400
C 	C 	0.75042 0.52673 0.05586 0.00900
C 	C 	0.78503 0.54565 0.01216 -0.09300
C 	C 	0.76207 0.55446 0.96686 0.06800
C 	C 	0.71177 0.53533 0.96252 -0.04700
H 	H 	0.76608 0.52163 0.09177 0.03600
H 	H 	0.69485 0.54164 0.92727 0.05500
H 	H 	0.67422 0.49297 0.08564 0.05700
I 	I 	0.79822 0.60104 0.90680 -0.08300
C 	C 	0.28947 0.50699 0.00367 -0.03400
C 	C 	0.25879 0.49262 0.05171 -0.02700
C 	C 	0.20624 0.47421 0.05535 0.00600
C 	C 	0.18164 0.47279 0.01155 -0.09600
C 	C 	0.21471 0.48331 0.96279 0.07800
C 	C 	0.26705 0.50216 0.95927 -0.05500
H 	H 	0.18195 0.46534 0.09308 0.04000
H 	H 	0.29198 0.51036 0.92166 0.07500
H 	H 	0.27684 0.49403 0.08606 0.03900
I 	I 	0.18397 0.47422 0.89420 -0.12900
C 	C 	0.97778 0.52025 0.81959 -0.03600
C 	C 	0.00794 0.47229 0.79981 -0.03900
C 	C 	0.01784 0.46167 0.74679 -0.01000
C 	C 	0.99737 0.49879 0.71301 -0.06100
C 	C 	0.96597 0.54671 0.73310 0.06900
C 	C 	0.95701 0.55734 0.78609 -0.03200
H 	H 	0.04239 0.42491 0.73188 0.04700
H 	H 	0.93205 0.59383 0.80142 0.07000
H 	H 	0.02316 0.44302 0.82566 0.01500
I 	I 	0.92820 0.60255 0.68506 -0.19900
C 	C 	0.99888 0.48918 0.21197 -0.01000
C 	C 	0.04353 0.47513 0.24017 -0.05000
C 	C 	0.03182 0.48488 0.29342 -0.01600
C 	C 	0.97562 0.50946 0.31891 -0.08400
C 	C 	0.93122 0.52514 0.29030 0.08000
C 	C 	0.94273 0.51404 0.23720 -0.06300
H 	H 	0.06622 0.47259 0.31505 0.01500
H 	H 	0.90871 0.52650 0.21520 0.04800
H 	H 	0.08737 0.45676 0.22080 0.04800
I 	I 	0.84854 0.56957 0.32504 -0.09300
C 	C 	0.99447 0.80167 0.50938 -0.00000
C 	C 	0.01907 0.77105 0.46522 -0.05400
C 	C 	0.00245 0.72410 0.46074 0.00100
C 	C 	0.96304 0.70595 0.50143 -0.07500
C 	C 	0.93361 0.73896 0.54313 0.07400
C 	C 	0.95031 0.78613 0.54759 -0.04700
H 	H 	0.02431 0.69978 0.42765 0.03600
H 	H 	0.92763 0.81128 0.57984 0.07000
H 	H 	0.05072 0.78390 0.43400 0.02300
I 	I 	0.86279 0.71890 0.59871 -0.10400
C 	C 	0.01429 0.19301 0.50594 -0.05900
C 	C 	0.04573 0.21927 0.46623 -0.01900
C 	C 	0.05139 0.26953 0.47400 -0.00100
C 	C 	0.02419 0.29492 0.52106 -0.10200
C 	C 	0.99439 0.26794 0.56166 0.09200
C 	C 	0.98899 0.21754 0.55373 -0.03200
H 	H 	0.07412 0.28974 0.44227 0.01800
H 	H 	0.96690 0.19686 0.58542 0.03900
H 	H 	0.06741 0.20023 0.42979 0.04400
I 	I 	0.95556 0.30291 0.63496 -0.09300
C 	C 	0.73519 0.96189 0.48261 -0.04600
C 	C 	0.76428 0.97251 0.43258 -0.02400
C 	C 	0.82039 0.98537 0.42416 0.00800
C 	C 	0.84980 0.98562 0.46521 -0.09100
C 	C 	0.82281 0.97067 0.51494 0.07900
C 	C 	0.76551 0.95931 0.52340 -0.04400
H 	H 	0.84117 0.99512 0.38545 0.03900
H 	H 	0.74355 0.95098 0.56219 0.06600
H 	H 	0.74157 0.97436 0.40069 0.03800
I 	I 	0.86749 0.96314 0.57756 -0.15200
C 	C 	0.34026 0.97030 0.47940 -0.04200
C 	C 	0.30812 0.95427 0.44563 -0.02200
C 	C 	0.25086 0.94517 0.46434 0.00900
C 	C 	0.22393 0.95362 0.51670 -0.08900
C 	C 	0.25805 0.96500 0.55143 0.07200
C 	C 	0.31565 0.97409 0.53261 -0.04200
H 	H 	0.22556 0.93580 0.43725 0.02700
H 	H 	0.34128 0.98348 0.55940 0.05000
H 	H 	0.32702 0.94987 0.40460 0.05800
I 	I 	0.22329 0.96921 0.63232 -0.11500
C 	C 	0.99466 0.70797 0.01220 -0.01700
C 	C 	0.02584 0.72954 0.96852 -0.05000
C 	C 	0.04265 0.77655 0.97231 0.00700
C 	C 	0.02548 0.80424 0.01905 -0.10800
C 	C 	0.99739 0.78123 0.06360 0.10400
C 	C 	0.98048 0.73421 0.05970 -0.05800
H 	H 	0.06484 0.79343 0.93773 0.01800
H 	H 	0.95899 0.71679 0.09425 0.04500
H 	H 	0.03933 0.70883 0.93207 0.05200
I 	I 	0.97678 0.81837 0.13683 -0.09800
C 	C 	0.97780 0.30872 0.01369 -0.05100
C 	C 	0.99229 0.28753 0.96369 -0.01100
C 	C 	0.97951 0.23998 0.95501 0.01000
C 	C 	0.95598 0.21123 0.99668 -0.10000
C 	C 	0.93778 0.23378 0.04634 0.07600
C 	C 	0.95012 0.28170 0.05492 -0.03300
H 	H 	0.99295 0.22350 0.91641 0.04400
H 	H 	0.93574 0.29888 0.09318 0.06100
H 	H 	0.01134 0.30893 0.93109 0.00700
I 	I 	0.89534 0.19428 0.10972 -0.15900
C 	C 	0.79784 0.00684 0.00106 -0.04300
C 	C 	0.76393 0.98293 0.04136 -0.03500
C 	C 	0.71420 0.96502 0.03364 0.01200
C 	C 	0.69614 0.97271 0.98622 -0.10500
C 	C 	0.73331 0.99218 0.94444 0.07200
C 	C 	0.78179 0.01177 0.95269 -0.04400
H 	H 	0.68704 0.94886 0.06588 0.04800
H 	H 	0.80851 0.02874 0.92080 0.07500
H 	H 	0.77701 0.97712 0.07837 0.04500
I 	I 	0.71462 0.99518 0.86907 -0.12300
C 	C 	0.19466 0.00937 0.98747 -0.06600
C 	C 	0.21881 0.00716 0.03187 -0.00600
C 	C 	0.26991 0.02696 0.03130 0.01000
C 	C 	0.30071 0.04505 0.98507 -0.10400
C 	C 	0.27331 0.05209 0.94220 0.07100
C 	C 	0.22241 0.03189 0.94258 -0.03800
H 	H 	0.28908 0.02323 0.06543 0.03400
H 	H 	0.20204 0.03688 0.90913 0.05300
H 	H 	0.19678 0.99185 0.06748 0.04500
I 	I 	0.30520 0.09604 0.87797 -0.07800
C 	C 	0.97008 0.00207 0.81234 -0.05600
C 	C 	0.95980 0.04112 0.77713 -0.01900
C 	C 	0.97706 0.03127 0.72395 0.03400
C 	C 	0.00564 0.98246 0.70542 -0.11800
C 	C 	0.01554 0.94297 0.74083 0.06300
C 	C 	0.99690 0.95283 0.79407 -0.01300
H 	H 	0.96956 0.06193 0.69703 0.00800
H 	H 	0.00480 0.92253 0.82129 0.00400
H 	H 	0.93843 0.07908 0.79090 0.05300
I 	I 	0.06237 0.86924 0.71559 -0.09600
C 	C 	0.04631 0.00531 0.18949 -0.07800
C 	C 	0.99412 0.00268 0.22564 0.00800
C 	C 	0.99140 0.00987 0.27837 0.01700
C 	C 	0.04123 0.01865 0.29563 -0.11100
C 	C 	0.09277 0.02363 0.25916 0.07600
C 	C 	0.09521 0.01679 0.20638 -0.03600
H 	H 	0.95149 0.00595 0.30611 0.04300
H 	H 	0.13529 0.02003 0.17854 0.05800
H 	H 	0.95558 0.99526 0.21291 0.02900
I 	I 	0.16793 0.04046 0.28301 -0.11800
