data_crystal

_cell_length_a 26.29898
_cell_length_b 26.45240
_cell_length_c 26.29927
_cell_angle_alpha 95.49032
_cell_angle_beta  95.48966
_cell_angle_gamma 125.79805

_symmetry_space_group_name_	'P 1'
_symmetry_space_group_name_H-M	'P 1'

loop_
_symmetry_equiv_pos_as_xyz
  x,y,z

loop_
_atom_site_label
_atom_site_type_symbol
_atom_site_fract_x
_atom_site_fract_y
_atom_site_fract_z
_atom_site_charge
C 	C 	0.95200 0.01817 0.98645 0.05300
C 	C 	0.04599 0.02050 0.98857 0.05500
C 	C 	0.96499 0.02203 0.44355 0.04600
C 	C 	0.02902 0.05049 0.43992 -0.05700
C 	C 	0.94051 0.06033 0.44361 -0.00200
C 	C 	0.88710 0.04164 0.40665 0.07600
H 	H 	0.82248 0.06303 0.38062 0.08600
C 	C 	0.15996 0.05106 0.48752 -0.04700
C 	C 	0.12236 0.04739 0.44360 -0.00900
H 	H 	0.13823 0.02958 0.51980 0.07400
O 	O 	0.27318 0.01779 0.39670 -0.07400
H 	H 	0.93489 0.07211 0.91142 0.07600
O 	O 	0.80753 0.08227 0.86782 -0.07900
O 	O 	0.06573 0.01168 0.32908 -0.06600
N 	N 	0.12057 0.02681 0.08072 -0.02800
O 	O 	0.09361 0.04776 0.10490 -0.06800
C 	C 	0.05367 0.01580 0.44256 0.05300
C 	C 	0.86487 0.07870 0.40778 -0.04700
O 	O 	0.29339 0.05877 0.52763 -0.07200
C 	C 	0.91363 0.07317 0.94447 -0.04500
C 	C 	0.15042 0.05401 0.03809 0.09200
N 	N 	0.11248 0.06792 0.35488 -0.02200
C 	C 	0.01825 0.05250 0.98992 -0.06300
C 	C 	0.15069 0.07467 0.40140 0.08700
N 	N 	0.30934 0.07111 0.38068 -0.01700
O 	O 	0.31163 0.07079 0.33147 -0.08000
C 	C 	0.92242 0.05131 0.98855 -0.02000
C 	C 	0.11589 0.05629 0.99504 -0.01800
C 	C 	0.87453 0.09300 0.94163 0.08100
H 	H 	0.64358 0.04813 0.96323 0.06600
H 	H 	0.28939 0.06061 0.93565 0.09100
C 	C 	0.89500 0.05310 0.03160 0.09500
C 	C 	0.73480 0.06464 0.97292 0.04900
C 	C 	0.22539 0.08184 0.48983 0.07900
N 	N 	0.26243 0.08257 0.53392 -0.02000
N 	N 	0.90610 0.03392 0.07796 -0.02800
O 	O 	0.43531 0.07368 0.93919 -0.09400
H 	H 	0.24025 0.07499 0.07161 0.08300
C 	C 	0.21426 0.07819 0.03909 -0.03400
C 	C 	0.85586 0.07290 0.02876 -0.03900
C 	C 	0.84444 0.09165 0.98362 0.00000
C 	C 	0.69490 0.08358 0.96953 0.00300
C 	C 	0.14694 0.08660 0.95519 -0.04800
H 	H 	0.12072 0.08904 0.92234 0.07600
O 	O 	0.38538 0.09025 0.87611 -0.08900
H 	H 	0.05986 0.09984 0.43597 0.07800
O 	O 	0.96417 0.06005 0.10137 -0.07100
H 	H 	0.83414 0.07348 0.06161 0.08500
N 	N 	0.40570 0.09733 0.92519 -0.02700
O 	O 	0.26192 0.10335 0.58060 -0.08000
C 	C 	0.21665 0.10786 0.40470 -0.05000
C 	C 	0.32720 0.10214 0.96401 -0.08500
H 	H 	0.04809 0.10379 0.99455 0.07500
C 	C 	0.25421 0.11153 0.44865 0.01400
C 	C 	0.24490 0.10714 0.99864 -0.01400
C 	C 	0.80159 0.11065 0.98077 0.03800
C 	C 	0.21143 0.11267 0.95704 0.08500
N 	N 	0.70737 0.99867 0.96816 -0.01000
O 	O 	0.85822 0.99257 0.09815 -0.05500
N 	N 	0.86452 0.11336 0.89568 -0.02000
O 	O 	0.67000 0.96565 0.99940 -0.07300
O 	O 	0.71613 0.97064 0.93038 -0.06700
O 	O 	0.91303 0.16008 0.87963 -0.08300
C 	C 	0.00722 0.95421 0.98259 -0.05300
C 	C 	0.94130 0.92008 0.97979 0.06400
C 	C 	0.91368 0.95198 0.98132 -0.05200
H 	H 	0.02852 0.92937 0.98126 0.07600
H 	H 	0.86257 0.92548 0.97919 0.08400
C 	C 	0.92563 0.95838 0.44992 -0.04700
C 	C 	0.94995 0.92322 0.45115 0.05800
C 	C 	0.01381 0.95201 0.44740 -0.05100
H 	H 	0.87658 0.93648 0.45400 0.08100
H 	H 	0.03262 0.92490 0.44871 0.07700
Cu	Cu	0.63305 0.24084 0.00472 0.93300
Cu	Cu	0.65405 0.21348 0.88683 0.89200
Cu	Cu	0.64414 0.32755 0.93053 0.91700
Cu	Cu	0.61992 0.35082 0.03613 0.90900
C 	C 	0.66245 0.30048 0.11200 0.30800
O 	O 	0.53987 0.19441 0.01139 -0.32400
C 	C 	0.65569 0.30019 0.82824 0.30300
O 	O 	0.67176 0.33629 0.00301 -0.63100
O 	O 	0.61139 0.23733 0.92913 -0.62800
O 	O 	0.68883 0.21222 0.00340 -0.33100
O 	O 	0.64187 0.15006 0.92285 -0.39700
O 	O 	0.62505 0.31720 0.09960 -0.36000
O 	O 	0.68215 0.41634 0.93414 -0.34400
C 	C 	0.68292 0.45203 0.97333 0.29700
C 	C 	0.50701 0.21453 0.99462 0.27600
O 	O 	0.53679 0.27103 0.98246 -0.38100
O 	O 	0.64305 0.42659 0.00597 -0.35600
O 	O 	0.66363 0.26069 0.07854 -0.33900
C 	C 	0.67846 0.16688 0.96803 0.29700
O 	O 	0.62658 0.31625 0.85570 -0.35500
O 	O 	0.69043 0.28510 0.85132 -0.39100
H 	H 	0.71824 0.36854 0.01561 0.19800
H 	H 	0.56486 0.20798 0.91561 0.17700
Cu	Cu	0.75831 0.35821 0.44025 0.93300
Cu	Cu	0.74997 0.29941 0.54599 0.89300
Cu	Cu	0.65560 0.31743 0.50648 0.90300
Cu	Cu	0.63421 0.34753 0.40454 0.90400
C 	C 	0.71144 0.34174 0.33222 0.30700
O 	O 	0.78855 0.44956 0.44355 -0.33200
C 	C 	0.69000 0.32531 0.61839 0.29900
O 	O 	0.65823 0.30078 0.43430 -0.63700
O 	O 	0.74958 0.36241 0.51427 -0.63400
O 	O 	0.80886 0.32361 0.44271 -0.34200
O 	O 	0.73925 0.24778 0.48495 -0.40800
O 	O 	0.68370 0.36756 0.34713 -0.36900
O 	O 	0.56352 0.26743 0.49650 -0.35200
C 	C 	0.52545 0.26348 0.45709 0.31400
C 	C 	0.75676 0.46873 0.46287 0.29900
O 	O 	0.69773 0.42641 0.46826 -0.38300
O 	O 	0.54765 0.30105 0.42258 -0.36900
O 	O 	0.75059 0.34009 0.36620 -0.33700
C 	C 	0.78622 0.27009 0.45927 0.30900
O 	O 	0.65616 0.33042 0.58148 -0.34300
O 	O 	0.74164 0.33065 0.61080 -0.38600
H 	H 	0.63263 0.25529 0.41823 0.18400
H 	H 	0.77546 0.40527 0.53630 0.19800
C 	C 	0.61024 0.26915 0.73387 -0.03200
C 	C 	0.66108 0.31254 0.77498 -0.08000
C 	C 	0.71841 0.36496 0.76441 0.13100
C 	C 	0.72604 0.37097 0.71288 -0.03100
C 	C 	0.67672 0.32520 0.67157 -0.06900
C 	C 	0.61774 0.27515 0.68225 0.12300
Br	Br	0.54807 0.21250 0.62703 -0.19800
H 	H 	0.56558 0.22945 0.74193 0.06700
H 	H 	0.77096 0.41041 0.70493 0.08200
Br	Br	0.78669 0.42896 0.81986 -0.18200
C 	C 	0.66478 0.25967 0.19285 -0.02700
C 	C 	0.68813 0.31147 0.16742 -0.07200
C 	C 	0.72901 0.37360 0.19667 0.12500
C 	C 	0.74101 0.38327 0.25102 -0.02600
C 	C 	0.71267 0.33136 0.27658 -0.07400
C 	C 	0.67691 0.26940 0.24729 0.12400
Br	Br	0.64126 0.19739 0.28098 -0.21600
H 	H 	0.63447 0.21173 0.17048 0.08300
H 	H 	0.77015 0.43117 0.27345 0.08200
Br	Br	0.76820 0.44577 0.16299 -0.21100
C 	C 	0.84565 0.74448 0.41647 -0.05100
C 	C 	0.85226 0.72897 0.46503 0.01500
C 	C 	0.88432 0.77692 0.51001 0.08000
C 	C 	0.91285 0.84022 0.50546 -0.04600
C 	C 	0.90893 0.85605 0.45656 -0.01000
C 	C 	0.87350 0.80765 0.41209 0.09000
C 	C 	0.82749 0.66283 0.46823 0.03400
N 	N 	0.88853 0.76158 0.56026 -0.02000
H 	H 	0.93942 0.87730 0.53983 0.07700
N 	N 	0.86658 0.82265 0.36227 -0.02100
H 	H 	0.82010 0.70763 0.38191 0.08700
C 	C 	0.76136 0.61377 0.45696 0.06100
C 	C 	0.73891 0.55082 0.45604 -0.00200
C 	C 	0.78169 0.53613 0.46765 -0.08500
C 	C 	0.84779 0.58571 0.48159 0.12600
C 	C 	0.87034 0.64853 0.48069 -0.07000
N 	N 	0.71679 0.62771 0.44629 -0.01700
H 	H 	0.68804 0.51321 0.44586 0.06400
N 	N 	0.89189 0.57283 0.49840 -0.02200
H 	H 	0.92121 0.68632 0.49024 0.09100
O 	O 	0.81059 0.80272 0.33842 -0.06000
O 	O 	0.91535 0.85244 0.33920 -0.06500
O 	O 	0.94390 0.79084 0.59043 -0.07900
O 	O 	0.83683 0.72117 0.57708 -0.07000
O 	O 	0.88663 0.54705 0.53918 -0.09000
O 	O 	0.94032 0.59165 0.47558 -0.07500
O 	O 	0.67450 0.59933 0.40345 -0.08000
O 	O 	0.71593 0.66573 0.48080 -0.06900
C 	C 	0.89757 0.13617 0.44339 0.01300
C 	C 	0.95296 0.15648 0.47838 0.08100
C 	C 	0.97277 0.11757 0.47945 -0.05500
C 	C 	0.87054 0.17211 0.44724 0.03300
N 	N 	0.98955 0.21695 0.51258 -0.02400
H 	H 	0.01426 0.13259 0.50750 0.07800
N 	N 	0.85625 0.98596 0.36725 -0.01600
C 	C 	0.86561 0.20008 0.40572 0.06200
C 	C 	0.83912 0.23319 0.41026 0.00300
C 	C 	0.81965 0.24060 0.45651 -0.08800
C 	C 	0.82821 0.21573 0.49898 0.12200
C 	C 	0.85096 0.17954 0.49332 -0.06800
N 	N 	0.88798 0.19554 0.35920 -0.01700
H 	H 	0.83355 0.25290 0.37775 0.07800
N 	N 	0.81678 0.22976 0.54867 -0.03000
H 	H 	0.85546 0.15890 0.52555 0.08900
O 	O 	0.79528 0.94160 0.36187 -0.06800
O 	O 	0.88817 0.98162 0.33448 -0.05500
O 	O 	0.00383 0.22094 0.56225 -0.07800
O 	O 	0.01178 0.26838 0.49373 -0.06700
O 	O 	0.85081 0.28811 0.57364 -0.13500
O 	O 	0.77656 0.18382 0.57099 -0.10400
O 	O 	0.84992 0.17275 0.31429 -0.07700
O 	O 	0.94753 0.21823 0.36139 -0.07000
C 	C 	0.32406 0.14868 0.45226 0.03600
H 	H 	0.23861 0.13021 0.37279 0.08800
C 	C 	0.34994 0.12954 0.41748 0.06000
C 	C 	0.41598 0.16770 0.41925 0.00100
C 	C 	0.45659 0.22367 0.45644 -0.08500
C 	C 	0.43095 0.24186 0.49219 0.13400
C 	C 	0.36484 0.20458 0.48964 -0.07200
H 	H 	0.43577 0.15332 0.39211 0.06200
N 	N 	0.47191 0.29845 0.53089 -0.02400
H 	H 	0.34510 0.21946 0.51640 0.09200
O 	O 	0.12707 0.11787 0.33649 -0.07400
O 	O 	0.50620 0.35346 0.51704 -0.07900
O 	O 	0.47138 0.29535 0.57991 -0.06400
C 	C 	0.82036 0.74291 0.93308 -0.04800
C 	C 	0.82574 0.72029 0.97783 0.00200
C 	C 	0.86885 0.76344 0.02336 0.09400
C 	C 	0.90680 0.82863 0.02336 -0.03400
C 	C 	0.90175 0.85126 0.97853 -0.01900
C 	C 	0.85831 0.80816 0.93310 0.08700
C 	C 	0.78861 0.65136 0.97605 0.03500
N 	N 	0.87425 0.74112 0.06961 -0.02000
H 	H 	0.93983 0.86180 0.05844 0.08900
N 	N 	0.85315 0.83050 0.88680 -0.02200
H 	H 	0.78749 0.70973 0.89796 0.08600
C 	C 	0.72256 0.61430 0.97597 0.06100
C 	C 	0.68832 0.54904 0.97491 0.00100
C 	C 	0.71952 0.52052 0.97445 -0.08100
C 	C 	0.78567 0.55770 0.97477 0.12700
C 	C 	0.81963 0.62271 0.97484 -0.07200
N 	N 	0.69016 0.64284 0.97706 -0.02200
H 	H 	0.63743 0.52055 0.97457 0.07300
N 	N 	0.81885 0.52994 0.97669 -0.03000
H 	H 	0.87050 0.65127 0.97510 0.09000
O 	O 	0.79800 0.81426 0.86451 -0.07300
O 	O 	0.90260 0.86338 0.86498 -0.08100
O 	O 	0.92957 0.75787 0.09199 -0.06800
O 	O 	0.82475 0.70757 0.09122 -0.06200
O 	O 	0.85388 0.53695 0.94233 -0.06800
O 	O 	0.81900 0.50307 0.01557 -0.07900
O 	O 	0.64172 0.62215 0.94061 -0.07600
O 	O 	0.70621 0.68643 0.01631 -0.05700
C 	C 	0.72100 0.14793 0.97367 -0.09200
C 	C 	0.78783 0.19389 0.98139 0.12200
C 	C 	0.82768 0.17503 0.98562 -0.07400
N 	N 	0.81527 0.25953 0.98321 -0.02800
H 	H 	0.87898 0.21043 0.99152 0.08900
O 	O 	0.85626 0.30144 0.02393 -0.06500
O 	O 	0.80340 0.27796 0.94256 -0.12100
C 	C 	0.31218 0.13186 0.00018 0.06000
C 	C 	0.36132 0.18490 0.03780 0.05600
C 	C 	0.42482 0.20837 0.03815 -0.00300
C 	C 	0.44013 0.18070 0.00039 -0.06200
C 	C 	0.39097 0.12649 0.96376 0.11300
N 	N 	0.34704 0.21621 0.07472 -0.01600
H 	H 	0.46262 0.25009 0.06638 0.05800
N 	N 	0.24276 0.14457 0.91656 -0.02100
O 	O 	0.36504 0.22302 0.12427 -0.08200
O 	O 	0.32040 0.24207 0.05883 -0.07000
O 	O 	0.12295 0.98315 0.09690 -0.06400
O 	O 	0.21930 0.11553 0.86829 -0.08200
O 	O 	0.29231 0.20387 0.92766 -0.07800
