data_crystal

_cell_length_a 15.42258
_cell_length_b 15.77857
_cell_length_c 22.22103
_cell_angle_alpha 95.40192
_cell_angle_beta  95.40260
_cell_angle_gamma 126.69561

_symmetry_space_group_name_	'P 1'
_symmetry_space_group_name_H-M	'P 1'

loop_
_symmetry_equiv_pos_as_xyz
  x,y,z

loop_
_atom_site_label
_atom_site_type_symbol
_atom_site_fract_x
_atom_site_fract_y
_atom_site_fract_z
_atom_site_charge
C 	C 	0.08414 0.03189 0.50055 0.09600
N 	N 	0.01075 0.06454 0.95792 -0.12000
N 	N 	0.04640 0.08934 0.51447 -0.10800
C 	C 	0.18523 0.09924 0.96452 0.04300
C 	C 	0.93576 0.03689 0.50968 0.06400
Cu	Cu	0.77010 0.34035 0.93859 0.92800
Cu	Cu	0.71619 0.21764 0.05708 0.85600
Cu	Cu	0.60911 0.30917 0.01864 0.89000
Cu	Cu	0.57016 0.34187 0.88989 0.90700
C 	C 	0.70965 0.33283 0.80987 0.32200
O 	O 	0.83403 0.50179 0.94522 -0.34500
C 	C 	0.64601 0.29591 0.14797 0.31000
O 	O 	0.60119 0.26211 0.93223 -0.62500
O 	O 	0.75741 0.34640 0.02638 -0.65500
O 	O 	0.82842 0.25436 0.93977 -0.35400
O 	O 	0.68677 0.12915 0.98229 -0.42600
O 	O 	0.66811 0.38120 0.82834 -0.38700
O 	O 	0.46832 0.28299 0.00899 -0.40400
C 	C 	0.39363 0.23021 0.95817 0.33300
C 	C 	0.78032 0.53879 0.96322 0.28500
O 	O 	0.67631 0.47103 0.96686 -0.38600
O 	O 	0.41887 0.25596 0.90456 -0.38700
O 	O 	0.75586 0.30808 0.85020 -0.36700
C 	C 	0.76757 0.15694 0.95333 0.29200
O 	O 	0.61825 0.33692 0.10814 -0.38200
O 	O 	0.71280 0.27232 0.13704 -0.42600
H 	H 	0.54995 0.18309 0.91792 0.16500
H 	H 	0.81516 0.41570 0.05443 0.17000
Cu	Cu	0.62457 0.21543 0.53113 0.92300
Cu	Cu	0.70882 0.18771 0.40499 0.87100
Cu	Cu	0.65788 0.33969 0.42430 0.89500
Cu	Cu	0.59531 0.39745 0.53702 0.90000
C 	C 	0.65556 0.33743 0.64754 0.31400
O 	O 	0.45900 0.13808 0.52952 -0.35200
C 	C 	0.62669 0.22464 0.29950 0.31600
O 	O 	0.69319 0.37166 0.51320 -0.63300
O 	O 	0.60093 0.19230 0.43927 -0.63500
O 	O 	0.71337 0.15988 0.54548 -0.36000
O 	O 	0.81733 0.25190 0.47680 -0.44400
O 	O 	0.59152 0.35684 0.61931 -0.38900
O 	O 	0.72040 0.48756 0.41753 -0.37600
C 	C 	0.40653 0.16704 0.49831 0.29700
O 	O 	0.46262 0.25370 0.47495 -0.39200
O 	O 	0.62820 0.50601 0.48650 -0.39100
O 	O 	0.66678 0.26729 0.61955 -0.35900
C 	C 	0.79973 0.19458 0.51940 0.30000
O 	O 	0.64576 0.31050 0.33299 -0.38100
O 	O 	0.62671 0.15330 0.32566 -0.43300
H 	H 	0.77192 0.42991 0.53073 0.16200
H 	H 	0.52407 0.13493 0.41792 0.17600
C 	C 	0.72070 0.32459 0.75059 -0.11500
C 	C 	0.69406 0.37682 0.70807 -0.11700
H 	H 	0.75385 0.28400 0.73452 0.09000
H 	H 	0.69208 0.44124 0.72793 0.08200
C 	C 	0.61539 0.28845 0.20306 -0.11900
C 	C 	0.60864 0.20939 0.23779 -0.12300
H 	H 	0.57848 0.32621 0.21720 0.08700
H 	H 	0.59349 0.13820 0.21200 0.06200
C 	C 	0.85104 0.14195 0.52181 -0.11100
C 	C 	0.89265 0.09661 0.51842 0.02700
C 	C 	0.29429 0.12095 0.50253 -0.08700
C 	C 	0.19972 0.08426 0.50342 0.03100
C 	C 	0.80513 0.09179 0.95035 -0.08200
C 	C 	0.84116 0.04126 0.95088 -0.00100
C 	C 	0.28098 0.15941 0.96253 -0.09300
C 	C 	0.07086 0.02872 0.96498 0.10200
C 	C 	0.70691 0.54823 0.45419 0.30500
C 	C 	0.90047 0.99684 0.95392 0.12600
N 	N 	0.02112 0.92411 0.96719 -0.09900
N 	N 	0.84902 0.89053 0.95642 -0.12500
C 	C 	0.91068 0.85446 0.96279 0.09400
N 	N 	0.86443 0.92840 0.49035 -0.11300
C 	C 	0.90275 0.87258 0.47511 0.08800
N 	N 	0.01204 0.92440 0.48048 -0.09800
C 	C 	0.83015 0.75776 0.46271 0.03200
C 	C 	0.77335 0.66142 0.45593 -0.09300
C 	C 	0.86022 0.74218 0.96307 0.02800
C 	C 	0.82568 0.65003 0.96343 -0.07600
