data_crystal

_cell_length_a 18.29741
_cell_length_b 18.68366
_cell_length_c 22.07711
_cell_angle_alpha 95.46405
_cell_angle_beta  95.46488
_cell_angle_gamma 126.33210

_symmetry_space_group_name_	'P 1'
_symmetry_space_group_name_H-M	'P 1'

loop_
_symmetry_equiv_pos_as_xyz
  x,y,z

loop_
_atom_site_label
_atom_site_type_symbol
_atom_site_fract_x
_atom_site_fract_y
_atom_site_fract_z
_atom_site_charge
C 	C 	0.07457 0.01682 0.99126 0.10400
N 	N 	0.04910 0.07186 0.99726 -0.12800
C 	C 	0.04887 0.01549 0.45415 0.11200
Cu	Cu	0.63399 0.21090 0.01423 0.92700
Cu	Cu	0.74665 0.26245 0.89944 0.86400
Cu	Cu	0.65555 0.34147 0.93233 0.89600
Cu	Cu	0.59588 0.35151 0.05140 0.89500
C 	C 	0.62570 0.25633 0.14042 0.32000
O 	O 	0.49390 0.13682 0.00225 -0.36500
C 	C 	0.67804 0.31683 0.80499 0.31300
O 	O 	0.68564 0.34687 0.01998 -0.64000
O 	O 	0.63134 0.22214 0.92602 -0.64000
O 	O 	0.71012 0.16703 0.01781 -0.37300
O 	O 	0.57441 0.27950 0.11804 -0.39300
O 	O 	0.68834 0.46173 0.93982 -0.38600
C 	C 	0.69612 0.51024 0.99101 0.29900
C 	C 	0.44948 0.16590 0.97780 0.29200
O 	O 	0.49608 0.25088 0.97195 -0.40200
O 	O 	0.64288 0.47170 0.03188 -0.39300
O 	O 	0.65611 0.22410 0.10305 -0.37400
O 	O 	0.63505 0.33268 0.84252 -0.38700
O 	O 	0.70440 0.26663 0.81754 -0.42400
H 	H 	0.57434 0.17279 0.89644 0.17300
Cu	Cu	0.73297 0.33970 0.41889 0.92400
Cu	Cu	0.77334 0.27593 0.54354 0.87200
Cu	Cu	0.62983 0.30003 0.52866 0.89400
Cu	Cu	0.56099 0.34127 0.41701 0.89600
C 	C 	0.61598 0.30118 0.30292 0.31300
C 	C 	0.73815 0.33461 0.65229 0.31700
O 	O 	0.59918 0.27174 0.43946 -0.63700
O 	O 	0.75764 0.35959 0.51135 -0.63700
O 	O 	0.71760 0.18700 0.47099 -0.44600
O 	O 	0.58730 0.34317 0.33161 -0.40100
O 	O 	0.50199 0.23413 0.53815 -0.38300
C 	C 	0.44131 0.23545 0.50197 0.29900
C 	C 	0.75629 0.51065 0.44976 0.29100
O 	O 	0.68364 0.46106 0.47478 -0.39200
O 	O 	0.46800 0.30128 0.47104 -0.39700
O 	O 	0.68514 0.30341 0.33065 -0.36600
O 	O 	0.66079 0.31358 0.61992 -0.38700
H 	H 	0.55430 0.20621 0.42198 0.16000
C 	C 	0.68396 0.34173 0.74959 -0.12000
C 	C 	0.75221 0.34841 0.71432 -0.12500
H 	H 	0.64785 0.36852 0.73435 0.08300
C 	C 	0.58551 0.27105 0.24167 -0.12200
C 	C 	0.63454 0.25198 0.20086 -0.12100
H 	H 	0.52735 0.26802 0.22045 0.07700
H 	H 	0.67574 0.23200 0.21960 0.08600
N 	N 	0.74852 0.57579 0.33675 -0.20500
H 	H 	0.73852 0.59589 0.29614 0.08400
H 	H 	0.73306 0.51200 0.33278 0.10200
C 	C 	0.19993 0.14460 0.51703 -0.08100
C 	C 	0.14988 0.06868 0.46895 -0.02500
C 	C 	0.19629 0.04076 0.43867 0.05900
C 	C 	0.29189 0.08937 0.45754 -0.02700
C 	C 	0.34270 0.16942 0.50188 -0.11400
C 	C 	0.29605 0.19491 0.53415 0.12800
N 	N 	0.34318 0.26733 0.58166 -0.20400
H 	H 	0.16388 0.16415 0.54152 0.05500
H 	H 	0.32801 0.06943 0.43355 0.02500
H 	H 	0.30876 0.28763 0.60410 0.08600
H 	H 	0.41372 0.30220 0.59807 0.09800
C 	C 	0.20361 0.08311 0.93381 -0.07800
C 	C 	0.17071 0.05455 0.98814 -0.02700
C 	C 	0.22675 0.05345 0.03632 0.07500
C 	C 	0.31469 0.08081 0.02898 -0.03400
C 	C 	0.34931 0.11329 0.97583 -0.10600
C 	C 	0.29173 0.11058 0.92659 0.11800
N 	N 	0.31972 0.13198 0.87185 -0.20100
H 	H 	0.15952 0.08152 0.89632 0.05300
H 	H 	0.35870 0.08253 0.06662 0.05000
N 	N 	0.19788 0.02919 0.09047 -0.19500
H 	H 	0.27833 0.13304 0.83645 0.08500
H 	H 	0.38073 0.14384 0.86294 0.08800
H 	H 	0.13656 0.01619 0.09972 0.08900
H 	H 	0.23862 0.02610 0.12504 0.08100
C 	C 	0.76379 0.20404 0.42596 0.29900
H 	H 	0.71356 0.06227 0.34018 0.03500
H 	H 	0.67421 0.59409 0.90776 0.05000
C 	C 	0.78268 0.63278 0.39245 0.11600
H 	H 	0.81485 0.36282 0.73975 0.06500
O 	O 	0.80133 0.33990 0.62464 -0.43300
C 	C 	0.79328 0.21647 0.00464 0.30200
H 	H 	0.75076 0.39570 0.03984 0.15900
O 	O 	0.78887 0.47311 0.42081 -0.36300
O 	O 	0.78878 0.27519 0.40132 -0.36600
H 	H 	0.80263 0.42338 0.53302 0.17500
C 	C 	0.79432 0.60576 0.44840 -0.10500
C 	C 	0.77214 0.08484 0.37544 -0.02200
C 	C 	0.73018 0.64132 0.94647 -0.02800
C 	C 	0.74895 0.60846 0.99539 -0.10300
H 	H 	0.71370 0.71815 0.85956 0.08600
H 	H 	0.80232 0.74226 0.35165 0.05200
O 	O 	0.81812 0.28424 0.97653 -0.44200
C 	C 	0.80727 0.72018 0.39452 -0.07500
C 	C 	0.80534 0.03331 0.37740 0.05300
C 	C 	0.81320 0.16439 0.41923 -0.11500
C 	C 	0.78469 0.73438 0.94617 0.08000
N 	N 	0.76787 0.76411 0.89663 -0.19500
N 	N 	0.00968 0.05588 0.43908 -0.12900
C 	C 	0.82709 0.66570 0.50495 -0.03100
H 	H 	0.83235 0.64396 0.54793 0.04000
H 	H 	0.80978 0.57139 0.09302 0.07400
H 	H 	0.80837 0.83259 0.89402 0.09500
H 	H 	0.83272 0.22369 0.12134 0.10000
H 	H 	0.85987 0.18627 0.91098 0.00800
C 	C 	0.84498 0.78157 0.45082 -0.03300
C 	C 	0.82088 0.66993 0.04659 0.11300
C 	C 	0.84872 0.18298 0.00717 -0.12500
C 	C 	0.85041 0.75245 0.50677 0.08100
N 	N 	0.84224 0.64006 0.09406 -0.20100
N 	N 	0.85404 0.18284 0.11693 -0.20400
N 	N 	0.86220 0.92002 0.43589 -0.12700
C 	C 	0.85759 0.79564 0.99687 -0.02900
H 	H 	0.79825 0.92678 0.32787 0.09600
C 	C 	0.87461 0.16712 0.95264 -0.02300
C 	C 	0.86987 0.16007 0.06198 0.12800
H 	H 	0.86674 0.16276 0.15669 0.08600
C 	C 	0.87724 0.05925 0.42659 -0.02300
N 	N 	0.01162 0.92694 0.98965 -0.11800
C 	C 	0.87306 0.76311 0.04732 -0.07500
N 	N 	0.87780 0.80754 0.56239 -0.19500
H 	H 	0.71415 0.94044 0.29675 0.09100
H 	H 	0.08261 0.94100 0.36877 0.10100
H 	H 	0.88485 0.78715 0.60363 0.08500
H 	H 	0.18457 0.94801 0.36933 0.09000
H 	H 	0.88913 0.86963 0.56525 0.09300
C 	C 	0.89019 0.19418 0.46482 0.10500
C 	C 	0.96057 0.03664 0.00187 0.08600
C 	C 	0.91888 0.13961 0.46960 -0.08100
N 	N 	0.93686 0.27516 0.50419 -0.20800
H 	H 	0.97536 0.16086 0.50636 0.04800
H 	H 	0.99116 0.29506 0.53950 0.07000
H 	H 	0.92244 0.32071 0.49852 0.04700
H 	H 	0.89413 0.68618 0.13219 0.08100
C 	C 	0.90969 0.11488 0.05977 -0.08600
C 	C 	0.93080 0.09451 0.00434 -0.02300
C 	C 	0.91457 0.12219 0.95039 0.06500
N 	N 	0.93478 0.10381 0.89599 -0.19400
H 	H 	0.92352 0.09478 0.10122 0.05200
H 	H 	0.92247 0.12462 0.85651 0.07200
H 	H 	0.96228 0.06845 0.89202 0.08200
H 	H 	0.92867 0.81045 0.08620 0.05300
C 	C 	0.90191 0.87908 0.44939 0.12000
C 	C 	0.91654 0.00903 0.43068 0.08400
C 	C 	0.92370 0.89202 0.99506 0.11300
N 	N 	0.99501 0.92767 0.46004 -0.13700
N 	N 	0.89844 0.94702 0.00192 -0.12500
N 	N 	0.15053 0.97059 0.38951 -0.18200
N 	N 	0.76940 0.96089 0.33141 -0.18200
