data_crystal

_cell_length_a 18.78346
_cell_length_b 16.34206
_cell_length_c 39.42542
_cell_angle_alpha 90.88787
_cell_angle_beta  91.28219
_cell_angle_gamma 111.02220

_symmetry_space_group_name_	'P 1'
_symmetry_space_group_name_H-M	'P 1'

loop_
_symmetry_equiv_pos_as_xyz
  x,y,z

loop_
_atom_site_label
_atom_site_type_symbol
_atom_site_fract_x
_atom_site_fract_y
_atom_site_fract_z
_atom_site_charge
Ni	Ni	0.72185 0.32118 0.88860 1.10900
O 	O 	0.63830 0.24459 0.85576 -0.70400
Ni	Ni	0.54605 0.24652 0.87855 1.11600
O 	O 	0.80271 0.30657 0.85787 -0.29500
O 	O 	0.75000 0.15656 0.86039 -0.33800
O 	O 	0.71680 0.42150 0.85953 -0.34700
Ni	Ni	0.63181 0.12411 0.85188 1.11200
O 	O 	0.72911 0.42166 0.96207 -0.30300
O 	O 	0.61851 0.10266 0.90274 -0.34400
O 	O 	0.47163 0.18058 0.84105 -0.32700
O 	O 	0.62866 0.30675 0.91494 -0.68300
O 	O 	0.80671 0.40699 0.91937 -0.33400
O 	O 	0.46303 0.28218 0.90064 -0.27900
O 	O 	0.54543 0.42331 0.90481 -0.32000
Ni	Ni	0.63892 0.42240 0.93328 1.12100
H 	H 	0.64144 0.27014 0.83298 0.22300
H 	H 	0.62669 0.26727 0.93395 0.21400
C 	C 	0.55333 0.09174 0.91694 0.30800
O 	O 	0.71365 0.51336 0.90329 -0.32500
C 	C 	0.80415 0.22865 0.84996 0.29400
C 	C 	0.46453 0.09966 0.83205 0.29800
C 	C 	0.72773 0.50033 0.87160 0.31900
C 	C 	0.47814 0.36414 0.91029 0.28600
C 	C 	0.79744 0.43829 0.94953 0.30400
O 	O 	0.50923 0.13304 0.90586 -0.31300
O 	O 	0.51517 0.06434 0.84258 -0.27800
Ni	Ni	0.60890 0.32266 0.56770 1.11700
O 	O 	0.69447 0.33685 0.53422 -0.69100
Ni	Ni	0.77174 0.31014 0.56335 1.11100
O 	O 	0.56299 0.40085 0.54169 -0.28700
O 	O 	0.68133 0.50514 0.53928 -0.32000
O 	O 	0.53805 0.21585 0.53954 -0.31200
Ni	Ni	0.74440 0.44724 0.51202 1.10100
O 	O 	0.51748 0.15195 0.60279 -0.31900
O 	O 	0.84122 0.50971 0.54146 -0.31900
O 	O 	0.86657 0.34899 0.53304 -0.29300
O 	O 	0.67904 0.27852 0.59403 -0.69500
O 	O 	0.52446 0.29524 0.60224 -0.26000
O 	O 	0.82637 0.25539 0.59676 -0.28700
O 	O 	0.72532 0.12588 0.59256 -0.34000
Ni	Ni	0.62625 0.15299 0.59803 1.11100
H 	H 	0.67661 0.29076 0.51618 0.17800
H 	H 	0.69194 0.30804 0.61666 0.22500
C 	C 	0.84793 0.50419 0.57442 0.31100
O 	O 	0.60877 0.12910 0.54720 -0.35700
C 	C 	0.60752 0.47978 0.53307 0.29800
C 	C 	0.86790 0.38126 0.50221 0.31200
C 	C 	0.55626 0.14838 0.53033 0.29800
C 	C 	0.79138 0.17444 0.60673 0.29400
C 	C 	0.49721 0.21604 0.61539 0.29100
O 	O 	0.81359 0.42901 0.58938 -0.34200
O 	O 	0.80509 0.38515 0.48787 -0.35000
Ni	Ni	0.00355 0.95560 0.76636 1.11200
O 	O 	0.01531 0.86775 0.73200 -0.70300
Ni	Ni	0.06902 0.94655 0.69509 1.12400
O 	O 	0.94826 0.85667 0.79850 -0.25600
O 	O 	0.85736 0.78939 0.75777 -0.34000
O 	O 	0.10458 0.96847 0.79225 -0.26500
Ni	Ni	0.91487 0.79464 0.71295 1.11100
O 	O 	0.10309 0.14316 0.79342 -0.32700
O 	O 	0.88414 0.89812 0.69899 -0.36200
O 	O 	0.07827 0.84864 0.66441 -0.24000
O 	O 	0.04764 0.03591 0.72731 -0.69600
O 	O 	0.98449 0.04121 0.79912 -0.32300
O 	O 	0.14630 0.03777 0.66548 -0.27400
O 	O 	0.18466 0.16363 0.69753 -0.34100
Ni	Ni	0.13593 0.13536 0.74472 1.09200
H 	H 	0.04470 0.83277 0.74097 0.24700
H 	H 	0.00906 0.05842 0.71806 0.16800
C 	C 	0.91665 0.94779 0.67366 0.31600
O 	O 	0.19143 0.05210 0.75463 -0.38800
C 	C 	0.88948 0.78856 0.78762 0.29200
C 	C 	0.01601 0.77859 0.65787 0.28300
C 	C 	0.17374 0.99630 0.77951 0.30600
C 	C 	0.20184 0.10627 0.67887 0.28600
C 	C 	0.03094 0.12270 0.80120 0.29300
O 	O 	0.98283 0.94979 0.66305 -0.30000
O 	O 	0.94843 0.78061 0.66525 -0.31600
Ni	Ni	0.24738 0.69071 0.38933 1.12200
O 	O 	0.33755 0.74626 0.35891 -0.70000
Ni	Ni	0.42313 0.74090 0.38818 1.11300
O 	O 	0.17653 0.70591 0.35203 -0.27300
O 	O 	0.24111 0.85495 0.35076 -0.28600
O 	O 	0.24256 0.57599 0.36643 -0.35200
Ni	Ni	0.35638 0.86774 0.34904 1.11700
O 	O 	0.22303 0.61273 0.46636 -0.34900
O 	O 	0.36593 0.90630 0.39904 -0.32100
O 	O 	0.50525 0.78611 0.35331 -0.30600
O 	O 	0.33475 0.70220 0.42109 -0.69600
O 	O 	0.15484 0.62470 0.41823 -0.25000
O 	O 	0.49472 0.70171 0.41851 -0.29500
O 	O 	0.40130 0.56785 0.42210 -0.36200
Ni	Ni	0.31086 0.59067 0.44408 1.09200
H 	H 	0.33352 0.71188 0.33758 0.20800
H 	H 	0.33940 0.74885 0.43822 0.18800
C 	C 	0.42622 0.91279 0.41788 0.29000
O 	O 	0.23309 0.49479 0.41398 -0.33900
C 	C 	0.18132 0.78402 0.34194 0.28600
C 	C 	0.51371 0.85914 0.33700 0.29400
C 	C 	0.21881 0.50063 0.38151 0.32100
C 	C 	0.47128 0.62106 0.42946 0.30000
C 	C 	0.15746 0.60008 0.45006 0.31000
O 	O 	0.46633 0.86311 0.41160 -0.31100
O 	O 	0.47340 0.90854 0.34541 -0.26900
Ni	Ni	0.36464 0.67468 0.05221 1.11200
O 	O 	0.27032 0.67433 0.02498 -0.68900
Ni	Ni	0.21018 0.70276 0.06154 1.12000
O 	O 	0.39426 0.59832 0.01744 -0.30500
O 	O 	0.27253 0.49868 0.01544 -0.34400
O 	O 	0.43265 0.78395 0.02716 -0.31700
Ni	Ni	0.20498 0.56877 0.00055 1.12700
O 	O 	0.47716 0.83270 0.09258 -0.29900
O 	O 	0.11994 0.50094 0.03270 -0.35600
O 	O 	0.10601 0.67925 0.03731 -0.25600
O 	O 	0.31098 0.72010 0.08665 -0.69900
O 	O 	0.45824 0.68731 0.08184 -0.31600
O 	O 	0.17551 0.75587 0.10245 -0.25000
O 	O 	0.27851 0.88356 0.09884 -0.29900
Ni	Ni	0.37173 0.84305 0.09542 1.11600
H 	H 	0.28472 0.72299 0.00886 0.20800
H 	H 	0.30398 0.68622 0.10771 0.21800
C 	C 	0.11953 0.51087 0.06592 0.30100
O 	O 	0.37439 0.87623 0.04583 -0.31200
C 	C 	0.34362 0.52359 0.00594 0.28800
C 	C 	0.08752 0.64746 0.00590 0.29200
C 	C 	0.41990 0.85780 0.02486 0.28600
C 	C 	0.21258 0.83802 0.11216 0.27300
C 	C 	0.49399 0.76204 0.09884 0.29200
O 	O 	0.16947 0.57978 0.08190 -0.32200
O 	O 	0.13871 0.63641 0.98573 -0.29700
Ni	Ni	0.96825 0.05039 0.25775 1.11400
O 	O 	0.96296 0.13925 0.22324 -0.71100
Ni	Ni	0.91755 0.06194 0.18293 1.10000
O 	O 	0.01575 0.14880 0.29318 -0.28500
O 	O 	0.11460 0.21871 0.25886 -0.30600
O 	O 	0.86186 0.03750 0.27597 -0.31500
Ni	Ni	0.06499 0.21722 0.21093 1.08800
O 	O 	0.87778 0.84888 0.27480 -0.29700
O 	O 	0.10527 0.12058 0.19741 -0.30900
O 	O 	0.91136 0.16032 0.15263 -0.28600
O 	O 	0.93562 0.97227 0.21557 -0.67400
O 	O 	0.98137 0.96563 0.29200 -0.26600
O 	O 	0.84457 0.97256 0.14850 -0.24800
O 	O 	0.81807 0.84276 0.17485 -0.29900
Ni	Ni	0.85175 0.86345 0.22545 1.11800
H 	H 	0.93061 0.17230 0.23045 0.18900
H 	H 	0.97821 0.95472 0.20856 0.23400
C 	C 	0.07477 0.06505 0.17206 0.28700
O 	O 	0.78632 0.93436 0.23725 -0.39300
C 	C 	0.07818 0.21563 0.28722 0.28300
C 	C 	0.97348 0.23151 0.14945 0.27000
C 	C 	0.79526 0.97669 0.26665 0.31800
C 	C 	0.79471 0.89714 0.15800 0.27500
C 	C 	0.94810 0.88102 0.28720 0.30100
O 	O 	0.01121 0.06345 0.15687 -0.31500
O 	O 	0.04030 0.23290 0.16135 -0.35000
C 	C 	0.98855 0.38297 0.13515 0.05800
C 	C 	0.97461 0.29657 0.12378 0.03700
C 	C 	0.99160 0.28214 0.09003 -0.07100
C 	C 	0.04134 0.35253 0.07214 0.07300
C 	C 	0.06436 0.43892 0.08535 0.01400
C 	C 	0.03058 0.45493 0.11548 -0.07100
C 	C 	0.03950 0.54708 0.12722 0.78000
H 	H 	0.97225 0.39429 0.16050 0.09200
H 	H 	0.06320 0.33989 0.04820 0.10600
C 	C 	0.96346 0.19050 0.07434 0.78800
F 	F 	0.98381 0.54550 0.14990 -0.37900
F 	F 	0.03244 0.59642 0.10005 -0.40700
F 	F 	0.11007 0.58695 0.14326 -0.41800
F 	F 	0.88892 0.14531 0.08313 -0.36500
F 	F 	0.00922 0.14595 0.08570 -0.39900
F 	F 	0.96520 0.19307 0.03927 -0.37000
C 	C 	0.65491 0.84222 0.16278 0.06500
C 	C 	0.71798 0.86247 0.14180 0.02300
C 	C 	0.70694 0.83472 0.10718 -0.06100
C 	C 	0.63201 0.79356 0.09385 0.06500
C 	C 	0.56906 0.77637 0.11475 0.03700
C 	C 	0.58096 0.79468 0.14994 -0.08600
C 	C 	0.51427 0.76781 0.17355 0.78500
H 	H 	0.66385 0.86183 0.18939 0.08100
H 	H 	0.62224 0.77909 0.06686 0.11700
C 	C 	0.77431 0.85241 0.08410 0.78100
F 	F 	0.53853 0.76672 0.20691 -0.39400
F 	F 	0.46391 0.68448 0.16476 -0.42200
F 	F 	0.47655 0.82634 0.17123 -0.41600
F 	F 	0.82730 0.82101 0.09821 -0.37300
F 	F 	0.80832 0.94166 0.07958 -0.34600
F 	F 	0.75200 0.81187 0.05251 -0.37700
C 	C 	0.18186 0.90740 0.16298 0.05500
C 	C 	0.16995 0.88697 0.12821 0.05400
C 	C 	0.12895 0.92667 0.10803 -0.08300
C 	C 	0.10669 0.99220 0.12250 0.11400
C 	C 	0.11587 0.01115 0.15752 -0.01900
C 	C 	0.15472 0.96871 0.17823 -0.04800
C 	C 	0.17345 0.99362 0.21565 0.79900
H 	H 	0.21461 0.87744 0.17792 0.11600
H 	H 	0.07951 0.02685 0.10670 0.12400
C 	C 	0.10594 0.89636 0.07141 0.78800
F 	F 	0.20745 0.94090 0.23116 -0.39800
F 	F 	0.10805 0.98447 0.23299 -0.44800
F 	F 	0.22365 0.07946 0.21881 -0.39500
F 	F 	0.06232 0.80788 0.07041 -0.37700
F 	F 	0.17010 0.91078 0.05239 -0.39600
F 	F 	0.06304 0.94032 0.05651 -0.34800
C 	C 	0.65500 0.91916 0.33792 0.07300
C 	C 	0.58615 0.90152 0.31957 0.05100
C 	C 	0.58723 0.92416 0.28505 -0.07700
C 	C 	0.65765 0.95647 0.26875 0.07600
C 	C 	0.72641 0.96728 0.28646 0.01400
C 	C 	0.72555 0.95493 0.32209 -0.06600
C 	C 	0.79907 0.98171 0.34345 0.80200
H 	H 	0.65333 0.90457 0.36468 0.14300
H 	H 	0.65903 0.97051 0.24196 0.10000
C 	C 	0.51370 0.91394 0.26559 0.78500
F 	F 	0.78514 0.96831 0.37764 -0.36500
F 	F 	0.84043 0.06994 0.33968 -0.40300
F 	F 	0.84208 0.93292 0.33361 -0.41400
F 	F 	0.47993 0.96791 0.28015 -0.40400
F 	F 	0.46397 0.82781 0.26641 -0.41200
F 	F 	0.52648 0.93641 0.23197 -0.37700
C 	C 	0.22131 0.37028 0.34969 0.06600
C 	C 	0.17943 0.42034 0.36126 0.01200
C 	C 	0.10151 0.39634 0.35150 -0.07600
C 	C 	0.06974 0.32915 0.32700 0.06000
C 	C 	0.11249 0.28149 0.31431 0.02200
C 	C 	0.18720 0.29772 0.32758 -0.07400
C 	C 	0.23150 0.23986 0.31763 0.78400
H 	H 	0.28076 0.38865 0.35760 0.10400
H 	H 	0.01186 0.31439 0.31736 0.10400
C 	C 	0.05210 0.44127 0.36749 0.78600
F 	F 	0.29089 0.24964 0.34067 -0.38200
F 	F 	0.26164 0.26260 0.28597 -0.38600
F 	F 	0.18461 0.15233 0.31683 -0.38300
F 	F 	0.07564 0.52748 0.35766 -0.41300
F 	F 	0.05796 0.43851 0.40238 -0.41900
F 	F 	0.97589 0.40066 0.35796 -0.38800
C 	C 	0.07991 0.76155 0.29788 0.08600
C 	C 	0.11063 0.79496 0.33010 0.03600
C 	C 	0.07009 0.83215 0.35166 -0.04700
C 	C 	0.00389 0.84325 0.33877 0.06400
C 	C 	0.98127 0.82372 0.30457 0.05700
C 	C 	0.01350 0.77286 0.28533 -0.08800
C 	C 	0.98086 0.73663 0.25042 0.78900
H 	H 	0.10900 0.72896 0.28226 0.10800
H 	H 	0.97570 0.87772 0.35399 0.15700
C 	C 	0.10269 0.87207 0.38629 0.78700
F 	F 	0.00617 0.67080 0.23991 -0.38800
F 	F 	0.00285 0.80299 0.22721 -0.44700
F 	F 	0.90204 0.70152 0.25093 -0.42900
F 	F 	0.15745 0.95425 0.38215 -0.37000
F 	F 	0.13536 0.82058 0.40340 -0.39000
F 	F 	0.04623 0.88075 0.40644 -0.34700
C 	C 	0.54969 0.11236 0.46902 0.07100
C 	C 	0.51691 0.09362 0.50085 0.01000
C 	C 	0.44851 0.02076 0.50447 -0.08600
C 	C 	0.41760 0.96388 0.47640 0.07600
C 	C 	0.45248 0.98049 0.44495 0.04400
C 	C 	0.51652 0.05802 0.44060 -0.09900
C 	C 	0.55113 0.08124 0.40602 0.78900
H 	H 	0.60177 0.16870 0.46658 0.08100
H 	H 	0.36771 0.90512 0.47918 0.09500
C 	C 	0.40968 0.00256 0.53837 0.75600
F 	F 	0.60232 0.16684 0.40572 -0.39600
F 	F 	0.49448 0.07278 0.38173 -0.41300
F 	F 	0.58934 0.02592 0.39754 -0.41800
F 	F 	0.39396 0.07495 0.54929 -0.40600
F 	F 	0.45704 0.98458 0.56211 -0.40500
F 	F 	0.34152 0.93163 0.53621 -0.37300
C 	C 	0.94961 0.51618 0.47419 0.08200
C 	C 	0.94224 0.43494 0.48806 0.02300
C 	C 	0.00655 0.40891 0.48990 -0.06400
C 	C 	0.07831 0.46874 0.48091 0.07700
C 	C 	0.08525 0.54919 0.46643 0.04300
C 	C 	0.02070 0.57466 0.46416 -0.06200
C 	C 	0.02633 0.66247 0.44985 0.78600
H 	H 	0.89977 0.53454 0.47177 0.10300
H 	H 	0.12834 0.45073 0.48341 0.10100
C 	C 	0.99946 0.31789 0.50116 0.78400
F 	F 	0.96565 0.68597 0.45928 -0.34600
F 	F 	0.02554 0.65719 0.41480 -0.36700
F 	F 	0.09259 0.72793 0.46170 -0.37100
F 	F 	0.93284 0.25531 0.48804 -0.39000
F 	F 	0.99962 0.31569 0.53621 -0.40000
F 	F 	0.05972 0.29574 0.48999 -0.38300
C 	C 	0.61084 0.54146 0.47604 0.07000
C 	C 	0.57907 0.52775 0.50828 0.01200
C 	C 	0.51865 0.55670 0.51589 -0.07200
C 	C 	0.48533 0.58956 0.48974 0.06400
C 	C 	0.51429 0.59854 0.45696 0.00400
C 	C 	0.57940 0.57757 0.45023 -0.06900
C 	C 	0.61347 0.59058 0.41525 0.78000
H 	H 	0.65850 0.52107 0.47084 0.05100
H 	H 	0.43549 0.60618 0.49457 0.04800
C 	C 	0.48718 0.54881 0.55133 0.78100
F 	F 	0.67837 0.56923 0.41411 -0.39100
F 	F 	0.63330 0.67741 0.40649 -0.38600
F 	F 	0.56062 0.53807 0.39160 -0.39900
F 	F 	0.54610 0.57626 0.57548 -0.37300
F 	F 	0.44245 0.46242 0.55677 -0.38000
F 	F 	0.44299 0.60000 0.55560 -0.39100
C 	C 	0.86090 0.07298 0.60538 0.06500
C 	C 	0.83536 0.12933 0.62449 0.03000
C 	C 	0.83449 0.12428 0.66028 -0.09700
C 	C 	0.85696 0.06030 0.67607 0.06700
C 	C 	0.87878 0.00115 0.65661 -0.01300
C 	C 	0.87538 0.00361 0.62075 -0.08800
C 	C 	0.88697 0.93269 0.59870 0.80300
H 	H 	0.86303 0.07867 0.57802 0.11900
H 	H 	0.85908 0.05752 0.70350 0.07100
C 	C 	0.80716 0.18496 0.68143 0.78600
F 	F 	0.85036 0.92585 0.56733 -0.35800
F 	F 	0.85737 0.85175 0.61363 -0.39500
F 	F 	0.96403 0.95313 0.59377 -0.37300
F 	F 	0.72988 0.16482 0.67526 -0.44100
F 	F 	0.84611 0.27111 0.67300 -0.39400
F 	F 	0.81911 0.17716 0.71579 -0.39300
C 	C 	0.32424 0.22350 0.66296 0.06500
C 	C 	0.27954 0.13348 0.66435 0.03100
C 	C 	0.31139 0.07097 0.65359 -0.09000
C 	C 	0.38063 0.09983 0.63657 0.07600
C 	C 	0.42538 0.18973 0.63507 0.04500
C 	C 	0.39976 0.25155 0.65159 -0.07300
C 	C 	0.45232 0.34580 0.65856 0.78200
H 	H 	0.30098 0.27180 0.67154 0.11300
H 	H 	0.39988 0.05178 0.62452 0.13600
C 	C 	0.27107 0.97326 0.65848 0.80500
F 	F 	0.42684 0.38270 0.68535 -0.38700
F 	F 	0.45420 0.39497 0.63014 -0.36300
F 	F 	0.52537 0.34999 0.66726 -0.40600
F 	F 	0.21672 0.93919 0.63274 -0.38500
F 	F 	0.23690 0.95694 0.68960 -0.45600
F 	F 	0.32219 0.92979 0.65741 -0.36300
C 	C 	0.94388 0.55838 0.62264 0.06800
C 	C 	0.90812 0.57725 0.59354 0.01800
C 	C 	0.93439 0.66520 0.58179 -0.06600
C 	C 	0.99704 0.72874 0.59882 0.07200
C 	C 	0.01690 0.71391 0.63184 0.05000
C 	C 	0.99972 0.62632 0.64150 -0.08500
C 	C 	0.03252 0.60604 0.67428 0.77900
H 	H 	0.92726 0.49144 0.63103 0.11900
H 	H 	0.01996 0.79476 0.58937 0.14800
C 	C 	0.89275 0.69360 0.55345 0.78400
F 	F 	0.04123 0.52562 0.67159 -0.37400
F 	F 	0.98383 0.60375 0.70033 -0.39600
F 	F 	0.10335 0.66931 0.68199 -0.37800
F 	F 	0.81467 0.65770 0.55728 -0.40200
F 	F 	0.91138 0.66782 0.52243 -0.39000
F 	F 	0.91291 0.78376 0.55350 -0.34000
C 	C 	0.95848 0.53923 0.01416 0.05400
C 	C 	0.00645 0.60900 0.99560 0.04600
C 	C 	0.97900 0.63241 0.96502 -0.06900
C 	C 	0.90892 0.57652 0.95081 0.07200
C 	C 	0.86457 0.50087 0.96758 0.01500
C 	C 	0.88851 0.48272 1.00000 -0.06100
C 	C 	0.84034 0.40287 0.01926 0.77700
H 	H 	0.97797 0.52597 0.03877 0.12200
H 	H 	0.88961 0.59036 0.92616 0.09800
C 	C 	0.02551 0.71447 0.94668 0.78100
F 	F 	0.87773 0.39169 0.04850 -0.39900
F 	F 	0.82350 0.32781 0.99913 -0.39900
F 	F 	0.77320 0.41268 0.02847 -0.38100
F 	F 	0.07992 0.69751 0.92772 -0.36700
F 	F 	0.06135 0.78256 0.96966 -0.35100
F 	F 	0.97952 0.74151 0.92510 -0.36300
C 	C 	0.53514 0.06288 0.97803 0.09700
C 	C 	0.52718 0.02965 0.94464 -0.01000
C 	C 	0.48548 0.93947 0.93774 -0.03200
C 	C 	0.44795 0.88595 0.96426 0.04500
C 	C 	0.45593 0.91890 0.99770 0.06900
C 	C 	0.50220 0.00783 0.00498 -0.10400
C 	C 	0.51555 0.04483 0.04114 0.77600
H 	H 	0.56593 0.13228 0.98286 0.11000
H 	H 	0.41185 0.81834 0.95893 0.13300
C 	C 	0.47564 0.90150 0.90180 0.77800
F 	F 	0.57152 0.12773 0.04307 -0.37500
F 	F 	0.53919 0.99150 0.06188 -0.40700
F 	F 	0.44891 0.05084 0.05307 -0.40200
F 	F 	0.54474 0.92858 0.88580 -0.40700
F 	F 	0.42457 0.92873 0.88380 -0.39500
F 	F 	0.44782 0.81070 0.90149 -0.35600
C 	C 	0.39659 0.44979 0.92202 0.07000
C 	C 	0.42627 0.38685 0.93275 0.02200
C 	C 	0.41860 0.35985 0.96693 -0.09300
C 	C 	0.38853 0.40361 0.99039 0.07400
C 	C 	0.36499 0.47170 0.98010 0.01500
C 	C 	0.36517 0.49221 0.94537 -0.08000
C 	C 	0.33480 0.56175 0.93344 0.78900
H 	H 	0.40179 0.46890 0.89572 0.12600
H 	H 	0.38553 0.38669 0.01692 0.10200
C 	C 	0.44410 0.28612 0.97856 0.78900
F 	F 	0.33377 0.56672 0.89842 -0.37100
F 	F 	0.38040 0.64279 0.94685 -0.42000
F 	F 	0.26096 0.54224 0.94403 -0.48900
F 	F 	0.52165 0.30898 0.97430 -0.48700
F 	F 	0.40524 0.21032 0.95981 -0.39900
F 	F 	0.42971 0.26818 0.01246 -0.39000
C 	C 	0.91735 0.18829 0.86228 0.06200
C 	C 	0.87750 0.22318 0.83975 0.02100
C 	C 	0.90926 0.25430 0.80805 -0.07500
C 	C 	0.97310 0.23550 0.79738 0.05900
C 	C 	0.00467 0.18721 0.81797 0.01600
C 	C 	0.98414 0.17592 0.85226 -0.07200
C 	C 	0.02893 0.14255 0.87728 0.78600
H 	H 	0.89589 0.16994 0.88743 0.11000
H 	H 	0.99317 0.25027 0.77184 0.08700
C 	C 	0.87605 0.30793 0.78596 0.78500
F 	F 	0.02048 0.16803 0.91014 -0.37800
F 	F 	0.10579 0.17624 0.87033 -0.36800
F 	F 	0.00322 0.05200 0.87509 -0.36500
F 	F 	0.88392 0.38574 0.80276 -0.38500
F 	F 	0.79950 0.26154 0.77887 -0.40200
F 	F 	0.91281 0.32828 0.75548 -0.36300
C 	C 	0.29488 0.96973 0.77606 0.09100
C 	C 	0.23631 0.97559 0.79641 0.02300
C 	C 	0.25139 0.99123 0.83172 -0.04300
C 	C 	0.32760 0.02726 0.84366 0.04700
C 	C 	0.38761 0.03968 0.82139 0.05500
C 	C 	0.37142 0.00398 0.78800 -0.09300
C 	C 	0.43537 0.00833 0.76444 0.75800
H 	H 	0.28169 0.94781 0.74987 0.13400
H 	H 	0.34046 0.04972 0.86989 0.13000
C 	C 	0.18731 0.97179 0.85652 0.79200
F 	F 	0.40779 0.96172 0.73435 -0.35900
F 	F 	0.48426 0.97309 0.77993 -0.37200
F 	F 	0.47564 0.09475 0.75686 -0.41600
F 	F 	0.13033 0.89246 0.84808 -0.34200
F 	F 	0.15767 0.03788 0.85597 -0.37500
F 	F 	0.21304 0.96621 0.88929 -0.34800
C 	C 	0.77852 0.71014 0.82232 0.06800
C 	C 	0.85107 0.71849 0.81112 0.03200
C 	C 	0.88340 0.65550 0.82006 -0.06800
C 	C 	0.84278 0.58625 0.84088 0.07400
C 	C 	0.76923 0.57623 0.85115 0.01600
C 	C 	0.73587 0.63772 0.84135 -0.06900
C 	C 	0.65525 0.62660 0.85125 0.78100
H 	H 	0.75484 0.75937 0.81557 0.11500
H 	H 	0.86792 0.53926 0.84895 0.11600
C 	C 	0.96063 0.66151 0.80707 0.78400
F 	F 	0.62893 0.68477 0.83467 -0.38000
F 	F 	0.65392 0.64138 0.88582 -0.39900
F 	F 	0.60580 0.54257 0.84288 -0.41500
F 	F 	0.01641 0.73700 0.82002 -0.36700
F 	F 	0.95968 0.66353 0.77200 -0.41900
F 	F 	0.97973 0.59062 0.81660 -0.36000
