data_crystal

_cell_length_a 24.46878
_cell_length_b 24.78618
_cell_length_c 35.27884
_cell_angle_alpha 95.57141
_cell_angle_beta  95.56813
_cell_angle_gamma 125.51544

_symmetry_space_group_name_	'P 1'
_symmetry_space_group_name_H-M	'P 1'

loop_
_symmetry_equiv_pos_as_xyz
  x,y,z

loop_
_atom_site_label
_atom_site_type_symbol
_atom_site_fract_x
_atom_site_fract_y
_atom_site_fract_z
_atom_site_charge
N 	N 	0.02777 0.03644 0.98983 -0.12300
C 	C 	0.05590 0.00286 0.98506 0.09600
N 	N 	0.01638 0.93491 0.98164 -0.10300
C 	C 	0.03945 0.04038 0.47724 0.09600
C 	C 	0.21539 0.16571 0.48210 0.11400
C 	C 	0.21888 0.12118 0.50095 0.02300
O 	O 	0.14997 0.14871 0.47359 -0.19700
C 	C 	0.11431 0.08860 0.48779 0.10200
C 	C 	0.15491 0.07197 0.50434 -0.08800
H 	H 	0.13705 0.02134 0.50738 0.06300
C 	C 	0.21064 0.03392 0.97699 0.12000
O 	O 	0.16019 0.00852 0.99917 -0.19800
C 	C 	0.12989 0.03939 0.98746 0.10000
C 	C 	0.16446 0.08487 0.96338 -0.08400
H 	H 	0.14312 0.10330 0.94494 0.06200
C 	C 	0.21339 0.07848 0.95567 0.01800
H 	H 	0.00900 0.13883 0.98944 0.07100
C 	C 	0.26616 0.20659 0.46132 -0.08400
C 	C 	0.27058 0.11293 0.49825 -0.09200
H 	H 	0.26417 0.24196 0.44662 0.06900
H 	H 	0.27254 0.07741 0.51281 0.06900
C 	C 	0.26521 0.02954 0.98300 -0.08800
C 	C 	0.27333 0.12604 0.94277 -0.08900
H 	H 	0.26620 0.99918 0.00278 0.07100
C 	C 	0.31688 0.19723 0.45800 0.00900
C 	C 	0.32105 0.15365 0.47732 0.11900
H 	H 	0.28005 0.16886 0.93236 0.06900
C 	C 	0.31988 0.06830 0.96399 0.01200
C 	C 	0.32610 0.11821 0.94598 0.11600
O 	O 	0.38630 0.16992 0.48484 -0.18900
C 	C 	0.37988 0.24450 0.45238 -0.05800
H 	H 	0.39809 0.29465 0.44800 0.05700
C 	C 	0.38311 0.08616 0.97500 -0.06000
N 	N 	0.00783 0.97369 0.47719 -0.12300
C 	C 	0.42064 0.22777 0.46840 0.04200
O 	O 	0.39319 0.17021 0.94436 -0.19000
H 	H 	0.39812 0.06952 0.99850 0.06100
C 	C 	0.42627 0.14644 0.96303 0.04100
N 	N 	0.00207 0.06209 0.46547 -0.10500
C 	C 	0.95996 0.00127 0.99148 0.08600
C 	C 	0.94953 0.90006 0.98394 0.09400
N 	N 	0.92127 0.93320 0.98899 -0.11500
C 	C 	0.93307 0.01772 0.45472 0.08800
N 	N 	0.90146 0.95100 0.45486 -0.11500
C 	C 	0.93895 0.92879 0.46560 0.09400
Cu	Cu	0.63258 0.21427 0.00309 0.92600
Cu	Cu	0.70176 0.21863 0.92698 0.87300
Cu	Cu	0.67236 0.31710 0.94976 0.89800
Cu	Cu	0.61595 0.33085 0.01971 0.89500
C 	C 	0.63764 0.26689 0.08073 0.32500
O 	O 	0.52999 0.16677 0.99549 -0.35000
C 	C 	0.66671 0.26929 0.86778 0.32700
O 	O 	0.67976 0.31756 0.00446 -0.64000
O 	O 	0.63172 0.21937 0.94740 -0.64000
O 	O 	0.68286 0.17351 0.00831 -0.36600
O 	O 	0.76210 0.24380 0.97425 -0.41700
O 	O 	0.60143 0.28634 0.06576 -0.39000
O 	O 	0.71603 0.41316 0.95640 -0.36700
C 	C 	0.70697 0.44718 0.98304 0.25300
C 	C 	0.50069 0.18983 0.97672 0.24800
O 	O 	0.53747 0.25273 0.97198 -0.36400
O 	O 	0.65320 0.41633 0.99993 -0.36500
O 	O 	0.64690 0.22755 0.05874 -0.36800
C 	C 	0.74347 0.20246 0.99886 0.26200
O 	O 	0.68235 0.31972 0.89481 -0.39300
O 	O 	0.66265 0.21703 0.87709 -0.42700
H 	H 	0.72690 0.34980 0.01960 0.16400
H 	H 	0.58608 0.18870 0.93040 0.17500
Cu	Cu	0.73824 0.35786 0.45789 0.92800
Cu	Cu	0.74026 0.30756 0.54051 0.87300
Cu	Cu	0.63079 0.31865 0.50881 0.89800
Cu	Cu	0.61164 0.35840 0.43335 0.89400
C 	C 	0.68624 0.33974 0.37707 0.32700
O 	O 	0.78000 0.45693 0.45887 -0.33800
C 	C 	0.68069 0.34308 0.59328 0.32700
O 	O 	0.63232 0.30426 0.45470 -0.64000
O 	O 	0.73175 0.36702 0.51336 -0.64000
O 	O 	0.78560 0.31400 0.45944 -0.36200
O 	O 	0.71762 0.24190 0.49718 -0.41600
O 	O 	0.65808 0.36957 0.38797 -0.39100
O 	O 	0.53218 0.26698 0.50021 -0.35600
C 	C 	0.49534 0.27151 0.47256 0.25600
C 	C 	0.75072 0.48386 0.47190 0.25100
O 	O 	0.68803 0.44455 0.47811 -0.38200
O 	O 	0.52418 0.32075 0.45255 -0.38400
O 	O 	0.72590 0.33497 0.40261 -0.36800
C 	C 	0.75899 0.25731 0.47246 0.25400
O 	O 	0.62807 0.31739 0.56464 -0.39200
O 	O 	0.73703 0.35115 0.58687 -0.42500
H 	H 	0.60295 0.25621 0.44171 0.16800
H 	H 	0.75901 0.41403 0.52789 0.17700
C 	C 	0.71281 0.36769 0.70234 0.00600
C 	C 	0.74400 0.34485 0.72410 -0.03900
C 	C 	0.73176 0.33343 0.76138 -0.03800
C 	C 	0.68795 0.34459 0.77732 0.00800
C 	C 	0.65851 0.36963 0.75611 -0.03800
C 	C 	0.67083 0.38114 0.71873 -0.03700
C 	C 	0.67524 0.33287 0.81690 0.01200
C 	C 	0.66164 0.27438 0.82867 -0.16900
C 	C 	0.72640 0.37943 0.66292 0.01200
C 	C 	0.67257 0.35303 0.63144 -0.17000
H 	H 	0.77753 0.33562 0.71201 0.03700
H 	H 	0.75679 0.31644 0.77800 0.03900
H 	H 	0.62589 0.37988 0.76848 0.04300
H 	H 	0.64837 0.40106 0.70275 0.04300
H 	H 	0.67667 0.37020 0.83678 0.04400
H 	H 	0.65166 0.23374 0.80711 0.08300
H 	H 	0.77773 0.40079 0.65774 0.03600
H 	H 	0.62247 0.33640 0.63678 0.08800
C 	C 	0.65731 0.32332 0.18840 0.00700
C 	C 	0.68563 0.38606 0.21178 -0.03800
C 	C 	0.68742 0.39154 0.25173 -0.03800
C 	C 	0.66141 0.33447 0.26881 0.00900
C 	C 	0.63601 0.27222 0.24583 -0.03800
C 	C 	0.63358 0.26651 0.20571 -0.03600
C 	C 	0.65212 0.33831 0.30938 0.01100
C 	C 	0.68568 0.32555 0.33758 -0.16400
C 	C 	0.64342 0.31588 0.14576 0.01200
C 	C 	0.65383 0.27596 0.12106 -0.16600
H 	H 	0.70404 0.43017 0.19877 0.04000
H 	H 	0.70711 0.43979 0.26926 0.04400
H 	H 	0.61531 0.22770 0.25873 0.04300
H 	H 	0.61044 0.21748 0.18798 0.04500
H 	H 	0.62397 0.35748 0.31780 0.03700
H 	H 	0.71383 0.30657 0.32877 0.08900
H 	H 	0.62800 0.34485 0.13369 0.03400
H 	H 	0.67595 0.25265 0.13337 0.08800
C 	C 	0.83008 0.75011 0.44683 0.11300
C 	C 	0.77422 0.68684 0.45188 -0.08400
C 	C 	0.78205 0.63500 0.45126 0.00600
C 	C 	0.84460 0.64729 0.45163 0.12000
C 	C 	0.90225 0.71237 0.45083 -0.09300
C 	C 	0.89208 0.76149 0.44515 0.02300
O 	O 	0.83492 0.80871 0.45647 -0.20100
C 	C 	0.90589 0.85598 0.46139 0.10000
C 	C 	0.94018 0.82834 0.45470 -0.08800
O 	O 	0.84897 0.59852 0.46464 -0.18800
C 	C 	0.78266 0.55572 0.47208 0.04000
C 	C 	0.74373 0.57905 0.46585 -0.05800
H 	H 	0.72798 0.67939 0.45799 0.06700
H 	H 	0.95306 0.72482 0.45584 0.06900
H 	H 	0.99439 0.85344 0.46430 0.06200
H 	H 	0.68871 0.54941 0.46322 0.04900
C 	C 	0.87423 0.11225 0.42980 0.11200
C 	C 	0.88870 0.17648 0.43359 -0.08200
C 	C 	0.84720 0.18719 0.45258 0.00400
C 	C 	0.79118 0.13603 0.46500 0.11800
C 	C 	0.77552 0.07141 0.46050 -0.09600
C 	C 	0.81719 0.06034 0.44171 0.02600
O 	O 	0.92484 0.10306 0.42813 -0.20000
C 	C 	0.89341 0.04150 0.44081 0.10600
C 	C 	0.82932 0.01560 0.44889 -0.09500
O 	O 	0.74368 0.14823 0.47093 -0.19400
C 	C 	0.77670 0.21173 0.46035 0.03600
C 	C 	0.83735 0.23416 0.44812 -0.05600
H 	H 	0.93269 0.21732 0.42389 0.06700
H 	H 	0.73207 0.03106 0.47081 0.06800
H 	H 	0.80576 0.98098 0.46867 0.07000
H 	H 	0.87614 0.28526 0.44475 0.05600
C 	C 	0.79640 0.62300 0.01345 0.11000
C 	C 	0.80062 0.68219 0.02044 -0.08700
C 	C 	0.85678 0.74081 0.01114 0.01600
C 	C 	0.90044 0.73873 0.99035 0.12300
C 	C 	0.89272 0.67832 0.98033 -0.09000
C 	C 	0.84353 0.62242 0.99511 0.01700
O 	O 	0.73575 0.55931 0.01126 -0.19200
C 	C 	0.75058 0.52106 0.98905 0.04900
C 	C 	0.81450 0.55801 0.97954 -0.06600
O 	O 	0.93533 0.79195 0.97093 -0.20200
C 	C 	0.90924 0.82705 0.98258 0.10700
C 	C 	0.85985 0.79499 0.00505 -0.08800
H 	H 	0.75984 0.68151 0.03055 0.06900
H 	H 	0.92154 0.67418 0.96031 0.06900
H 	H 	0.83023 0.54111 0.95636 0.05900
H 	H 	0.84258 0.81832 0.02289 0.06800
C 	C 	0.85226 0.05184 0.00046 0.10800
C 	C 	0.80369 0.05417 0.01701 -0.08600
C 	C 	0.81393 0.11644 0.02446 0.00600
C 	C 	0.86806 0.17329 0.01394 0.11400
C 	C 	0.91760 0.17119 0.99824 -0.09400
C 	C 	0.90663 0.10867 0.99036 0.02700
O 	O 	0.86190 0.00258 0.00448 -0.20600
C 	C 	0.92820 0.03624 0.99674 0.10800
C 	C 	0.95523 0.09940 0.98813 -0.10100
O 	O 	0.85570 0.21989 0.00695 -0.19500
C 	C 	0.78868 0.18506 0.01362 0.03100
C 	C 	0.76352 0.12356 0.02420 -0.05400
H 	H 	0.76021 0.00941 0.02451 0.06600
H 	H 	0.96084 0.21572 0.99041 0.06600
H 	H 	0.70968 0.08190 0.01993 0.05300
