data_crystal

_cell_length_a 24.11058
_cell_length_b 22.77336
_cell_length_c 31.31786
_cell_angle_alpha 104.02231
_cell_angle_beta  115.92980
_cell_angle_gamma 111.53005

_symmetry_space_group_name_	'P 1'
_symmetry_space_group_name_H-M	'P 1'

loop_
_symmetry_equiv_pos_as_xyz
  x,y,z

loop_
_atom_site_label
_atom_site_type_symbol
_atom_site_fract_x
_atom_site_fract_y
_atom_site_fract_z
_atom_site_charge
C 	C 	0.75834 0.49011 0.95985 0.01400
C 	C 	0.77375 0.48929 0.00827 0.03000
C 	C 	0.74274 0.42389 0.00806 -0.03900
C 	C 	0.69533 0.35885 0.95941 0.08900
C 	C 	0.68031 0.35980 0.91083 -0.05200
C 	C 	0.71140 0.42520 0.91115 0.02000
N 	N 	0.66232 0.29210 0.95999 -0.14200
C 	C 	0.45940 0.21983 0.94082 0.02600
C 	C 	0.51413 0.21532 0.97904 0.01100
C 	C 	0.58048 0.23893 0.98486 -0.05500
C 	C 	0.59307 0.26782 0.95291 0.10400
C 	C 	0.53806 0.27266 0.91467 -0.05500
C 	C 	0.47197 0.24955 0.90924 0.01900
C 	C 	0.68113 0.12872 0.88024 0.02600
C 	C 	0.73454 0.17781 0.93562 0.02500
C 	C 	0.72821 0.23166 0.96136 -0.06100
C 	C 	0.66796 0.23641 0.93233 0.11200
C 	C 	0.61345 0.18618 0.87690 -0.05000
C 	C 	0.62118 0.13378 0.85072 0.02700
H 	H 	0.80918 0.53937 0.04595 0.08800
H 	H 	0.75470 0.42365 0.04559 0.09100
H 	H 	0.64319 0.31035 0.87279 0.08000
H 	H 	0.69817 0.42555 0.87343 0.09500
H 	H 	0.50509 0.19329 0.00407 0.10400
H 	H 	0.62244 0.23502 0.01434 0.10500
H 	H 	0.54586 0.29315 0.88872 0.07600
H 	H 	0.43017 0.25397 0.88008 0.09200
H 	H 	0.78122 0.17437 0.95859 0.08700
H 	H 	0.76998 0.26969 0.00404 0.10700
H 	H 	0.56619 0.18874 0.85401 0.08900
H 	H 	0.58042 0.09690 0.80771 0.10200
C 	C 	0.78721 0.56084 0.47174 0.02100
C 	C 	0.84291 0.57773 0.52302 0.01800
C 	C 	0.83450 0.52597 0.54020 -0.04900
C 	C 	0.77101 0.45652 0.50599 0.09800
C 	C 	0.71462 0.43987 0.45469 -0.05700
C 	C 	0.72293 0.49186 0.43774 0.01700
N 	N 	0.76643 0.40190 0.52251 -0.13500
C 	C 	0.57344 0.28222 0.51322 0.02900
C 	C 	0.61191 0.25085 0.50804 0.01300
C 	C 	0.67449 0.28929 0.51039 -0.04500
C 	C 	0.69810 0.35926 0.51603 0.09500
C 	C 	0.66065 0.39134 0.52369 -0.04300
C 	C 	0.59719 0.35196 0.51999 0.01600
C 	C 	0.84220 0.28232 0.46563 0.02800
C 	C 	0.88197 0.32913 0.52112 0.01300
C 	C 	0.85788 0.36985 0.53928 -0.04900
C 	C 	0.79244 0.36224 0.50253 0.09500
C 	C 	0.75229 0.31505 0.44687 -0.05600
C 	C 	0.77797 0.27653 0.42852 0.00700
H 	H 	0.89321 0.63064 0.54917 0.08400
H 	H 	0.87813 0.53912 0.57958 0.08600
H 	H 	0.66433 0.38710 0.42840 0.07500
H 	H 	0.67975 0.47843 0.39802 0.08600
H 	H 	0.59419 0.19715 0.50335 0.09300
H 	H 	0.70527 0.26518 0.50904 0.07900
H 	H 	0.68112 0.44703 0.53312 0.09200
H 	H 	0.56741 0.37640 0.52375 0.11200
H 	H 	0.93015 0.33210 0.55030 0.08900
H 	H 	0.88883 0.40576 0.58216 0.08800
H 	H 	0.70014 0.30626 0.41824 0.07300
H 	H 	0.74621 0.23964 0.38571 0.08000
C 	C 	0.22011 0.47195 0.92097 0.03000
C 	C 	0.26800 0.51680 0.97733 0.01900
C 	C 	0.31756 0.59018 0.99915 -0.04800
C 	C 	0.32190 0.61890 0.96509 0.10800
C 	C 	0.27888 0.57260 0.90895 -0.05100
C 	C 	0.22708 0.49975 0.88691 0.01600
H 	H 	0.26599 0.49503 0.00414 0.11500
H 	H 	0.28410 0.59344 0.88239 0.08500
H 	H 	0.19202 0.46511 0.84345 0.08400
C 	C 	0.37369 0.58884 0.52479 0.02500
C 	C 	0.41858 0.64179 0.57928 0.01400
C 	C 	0.46152 0.71420 0.59437 -0.04800
C 	C 	0.46081 0.73430 0.55532 0.09400
C 	C 	0.41666 0.68094 0.50072 -0.05200
C 	C 	0.37362 0.60857 0.48567 0.01600
H 	H 	0.42010 0.62682 0.60990 0.09200
H 	H 	0.41698 0.69537 0.47034 0.07700
H 	H 	0.34037 0.56782 0.44369 0.08800
Zn	Zn	0.10007 0.12635 0.95818 1.20700
Zn	Zn	0.97236 0.02850 0.83965 1.22000
O 	O 	0.95119 0.98349 0.76557 -0.34200
C 	C 	0.19145 0.12988 0.92514 0.33600
C 	C 	0.06429 0.18941 0.88474 0.33300
O 	O 	0.19264 0.14781 0.96873 -0.33900
O 	O 	0.12810 0.08801 0.87739 -0.27000
O 	O 	0.00252 0.05786 0.91701 -0.70500
O 	O 	0.00792 0.12529 0.84295 -0.30000
O 	O 	0.09473 0.20003 0.93493 -0.36300
O 	O 	0.84560 0.96039 0.87437 -0.43300
Zn	Zn	0.92508 0.01512 0.99223 1.21700
C 	C 	0.83296 0.00705 0.89567 0.34100
O 	O 	0.97205 0.04206 0.06887 -0.38900
O 	O 	0.86642 0.04075 0.94817 -0.40800
O 	O 	0.98577 0.99151 0.98189 -0.94400
H 	H 	0.03874 0.02723 0.01067 0.23700
Zn	Zn	0.21720 0.19079 0.52417 1.19600
Zn	Zn	0.09689 0.13913 0.40959 1.20500
O 	O 	0.06570 0.11393 0.33243 -0.37500
C 	C 	0.30414 0.17269 0.49114 0.31500
C 	C 	0.22006 0.29505 0.48036 0.33600
O 	O 	0.30001 0.18559 0.53249 -0.41100
O 	O 	0.25069 0.15978 0.44499 -0.23100
O 	O 	0.11791 0.14394 0.48142 -0.76000
O 	O 	0.15510 0.24419 0.43447 -0.38900
O 	O 	0.24798 0.28517 0.52285 -0.38800
O 	O 	0.95756 0.06228 0.43304 -0.41600
Zn	Zn	0.01983 0.06484 0.54050 1.21600
C 	C 	0.94507 0.09890 0.46345 0.31800
O 	O 	0.06017 0.06600 0.60989 -0.40700
O 	O 	0.96210 0.10066 0.50988 -0.44400
O 	O 	0.07841 0.04690 0.52300 -0.87100
H 	H 	0.13110 0.07499 0.55343 0.19400
C 	C 	0.08989 0.10838 0.24081 0.19800
C 	C 	0.06817 0.09084 0.18772 -0.03800
H 	H 	0.09553 0.13168 0.17963 0.10700
Cl	Cl	0.16238 0.19642 0.29371 -0.19800
C 	C 	0.22525 0.40856 0.48955 0.07900
C 	C 	0.25670 0.36799 0.48704 -0.00200
C 	C 	0.32405 0.39826 0.49280 -0.06200
C 	C 	0.36161 0.47087 0.50556 0.01000
C 	C 	0.33099 0.51197 0.50927 0.09000
C 	C 	0.26095 0.48005 0.49937 -0.11800
C 	C 	0.22549 0.52280 0.50111 0.78900
H 	H 	0.17352 0.38466 0.48480 0.11400
H 	H 	0.41514 0.49591 0.51312 0.09800
C 	C 	0.35677 0.35389 0.48669 0.77200
F 	F 	0.15387 0.47974 0.48376 -0.37400
F 	F 	0.22425 0.55332 0.46777 -0.41400
F 	F 	0.26498 0.57676 0.55358 -0.41400
F 	F 	0.30454 0.28912 0.43910 -0.41900
F 	F 	0.38088 0.34087 0.53016 -0.44300
F 	F 	0.41572 0.38898 0.48494 -0.42600
H 	H 	0.30409 0.06184 0.52048 0.06900
C 	C 	0.41904 0.04345 0.56085 0.81900
F 	F 	0.45572 0.04944 0.61169 -0.42700
F 	F 	0.43190 0.11050 0.56754 -0.42900
C 	C 	0.07231 0.30495 0.89914 0.09100
C 	C 	0.08330 0.25300 0.87627 0.02800
C 	C 	0.12505 0.26932 0.85522 -0.05500
C 	C 	0.16973 0.34160 0.87000 0.02500
C 	C 	0.16416 0.39515 0.89769 0.09600
C 	C 	0.10881 0.37495 0.90664 -0.11900
C 	C 	0.09010 0.42786 0.92583 0.79300
H 	H 	0.03739 0.29160 0.91282 0.12000
H 	H 	0.20986 0.35643 0.86098 0.10200
C 	C 	0.12412 0.21105 0.81856 0.77800
F 	F 	0.01841 0.39174 0.90992 -0.37800
F 	F 	0.09692 0.47405 0.90408 -0.40500
F 	F 	0.13634 0.46759 0.98171 -0.40900
F 	F 	0.05453 0.14918 0.78313 -0.40300
F 	F 	0.17256 0.19573 0.84957 -0.43400
F 	F 	0.14500 0.23335 0.78775 -0.41400
F 	F 	0.50463 0.63802 0.88896 -0.41200
F 	F 	0.78082 0.00585 0.98397 -0.45100
F 	F 	0.74582 0.01294 0.03912 -0.39600
F 	F 	0.29923 0.03134 0.98090 -0.42600
F 	F 	0.22540 0.05243 0.99787 -0.45000
F 	F 	0.10361 0.69166 0.96064 -0.39800
C 	C 	0.81266 0.15749 0.42807 0.01600
C 	C 	0.86063 0.23068 0.44755 0.08400
C 	C 	0.92972 0.25452 0.45643 -0.12100
C 	C 	0.95575 0.20848 0.45783 0.04000
C 	C 	0.91065 0.13750 0.44487 -0.01100
C 	C 	0.83595 0.10965 0.42357 -0.07800
H 	H 	0.75847 0.13856 0.41898 0.09400
H 	H 	0.01209 0.22883 0.47152 0.07800
C 	C 	0.97711 0.32941 0.46675 0.75500
F 	F 	0.02012 0.37754 0.52140 -0.40000
F 	F 	0.93428 0.35133 0.43783 -0.41300
F 	F 	0.02261 0.33054 0.45082 -0.39300
C 	C 	0.82015 0.60582 0.41656 0.00500
C 	C 	0.79921 0.61338 0.45185 0.10100
C 	C 	0.79870 0.67541 0.47286 -0.13500
C 	C 	0.83239 0.73434 0.46658 0.10000
C 	C 	0.85825 0.72878 0.43444 0.00200
C 	C 	0.84769 0.66251 0.40619 -0.04800
C 	C 	0.86702 0.65277 0.36602 0.77300
H 	H 	0.81773 0.55688 0.39907 0.10800
C 	C 	0.76533 0.68013 0.50389 0.79600
F 	F 	0.84844 0.58298 0.34029 -0.40200
F 	F 	0.94158 0.69879 0.39267 -0.37600
F 	F 	0.82959 0.66801 0.32677 -0.40000
F 	F 	0.81352 0.69518 0.55601 -0.44200
F 	F 	0.69988 0.61574 0.47866 -0.43100
F 	F 	0.75066 0.73377 0.50648 -0.43300
C 	C 	0.44023 0.23923 0.55058 0.11700
C 	C 	0.37403 0.18649 0.49960 0.02400
C 	C 	0.37625 0.15327 0.45624 -0.05300
C 	C 	0.44261 0.18474 0.46147 0.02700
C 	C 	0.50773 0.24178 0.51123 0.10300
C 	C 	0.50764 0.26385 0.55746 -0.11100
C 	C 	0.57869 0.31627 0.61369 0.79600
H 	H 	0.43913 0.26270 0.58449 0.10900
H 	H 	0.44338 0.16581 0.42658 0.10100
C 	C 	0.30871 0.08563 0.40420 0.77900
F 	F 	0.56865 0.30994 0.65301 -0.39900
F 	F 	0.60250 0.38596 0.62227 -0.42300
F 	F 	0.63242 0.30284 0.61961 -0.41300
F 	F 	0.27027 0.10436 0.36839 -0.40500
C 	C 	0.70690 0.97654 0.85840 0.04900
C 	C 	0.77046 0.01001 0.86055 0.00400
C 	C 	0.78172 0.06329 0.84420 -0.07700
C 	C 	0.74174 0.09596 0.84141 0.01800
C 	C 	0.69025 0.07398 0.85330 0.08500
C 	C 	0.66606 0.00828 0.85485 -0.09100
C 	C 	0.60338 0.97745 0.86008 0.76600
H 	H 	0.75660 0.14357 0.83639 0.10600
C 	C 	0.84229 0.09156 0.83660 0.77900
F 	F 	0.54592 0.98050 0.82487 -0.42700
F 	F 	0.62741 0.01651 0.91261 -0.40200
F 	F 	0.84598 0.03561 0.81131 -0.49000
F 	F 	0.90872 0.14117 0.88652 -0.46800
F 	F 	0.82970 0.12454 0.80475 -0.40900
C 	C 	0.74356 0.59033 0.95402 0.00500
C 	C 	0.78492 0.55912 0.95918 0.09400
C 	C 	0.84894 0.59194 0.96097 -0.12500
C 	C 	0.86783 0.65357 0.95432 0.08200
C 	C 	0.82554 0.68400 0.94801 -0.01300
C 	C 	0.76439 0.65389 0.95005 -0.05800
H 	H 	0.69425 0.56412 0.95217 0.10100
H 	H 	0.91494 0.67759 0.95330 0.09800
C 	C 	0.89567 0.55999 0.96819 0.78300
F 	F 	0.67277 0.65983 0.95960 -0.41600
F 	F 	0.85666 0.49405 0.92300 -0.40900
F 	F 	0.91467 0.55065 0.01344 -0.40400
F 	F 	0.95987 0.60414 0.97502 -0.37900
C 	C 	0.38679 0.24592 0.96966 0.01300
C 	C 	0.39020 0.19664 0.93574 0.09700
C 	C 	0.32783 0.12605 0.89726 -0.11500
C 	C 	0.26328 0.10590 0.89431 0.09900
C 	C 	0.26029 0.15454 0.92925 0.03300
C 	C 	0.32118 0.22690 0.96495 -0.05100
C 	C 	0.31697 0.28399 0.99809 0.76600
H 	H 	0.43532 0.29956 0.99935 0.09900
H 	H 	0.21496 0.05224 0.86468 0.11700
C 	C 	0.32992 0.07244 0.85912 0.79400
F 	F 	0.37331 0.35270 0.01759 -0.41100
F 	F 	0.32263 0.27567 0.04182 -0.40400
F 	F 	0.25160 0.27876 0.96685 -0.42900
F 	F 	0.38509 0.06275 0.88868 -0.41300
F 	F 	0.34299 0.09791 0.82653 -0.42100
F 	F 	0.26438 0.00586 0.82585 -0.40500
H 	H 	0.57678 0.74457 0.56467 0.07600
C 	C 	0.98938 0.95817 0.75873 0.27500
Zn	Zn	0.05751 0.04255 0.45526 1.22700
C 	C 	0.07862 0.07142 0.30701 0.33000
C 	C 	0.76476 0.97448 0.01300 0.76900
H 	H 	0.35198 0.62505 0.04253 0.10600
H 	H 	0.49203 0.69762 0.03149 0.08300
Zn	Zn	0.95946 0.96294 0.90972 1.21400
C 	C 	0.00872 0.96761 0.72149 -0.00300
C 	C 	0.05500 0.05527 0.25153 -0.03500
F 	F 	0.62832 0.73991 0.36557 -0.40400
F 	F 	0.08677 0.75193 0.01729 -0.39400
C 	C 	0.22788 0.00127 0.96574 0.79700
C 	C 	0.99009 0.00269 0.08975 0.33400
C 	C 	0.05983 0.00966 0.61386 0.38100
C 	C 	0.09853 0.03356 0.70748 0.23900
C 	C 	0.08009 0.02126 0.74238 -0.01500
H 	H 	0.12085 0.05434 0.78574 0.13500
Cl	Cl	0.18814 0.10243 0.73492 -0.20200
C 	C 	0.01200 0.02047 0.14521 -0.00300
C 	C 	0.04565 0.99088 0.65110 -0.09400
F 	F 	0.67457 0.66837 0.89028 -0.42300
H 	H 	0.49533 0.75485 0.63643 0.08600
F 	F 	0.18273 0.98313 0.91214 -0.48400
C 	C 	0.71801 0.68603 0.94396 0.77100
H 	H 	0.69442 0.93105 0.86589 0.08900
F 	F 	0.82642 0.98009 0.05185 -0.43700
C 	C 	0.95645 0.92362 0.66517 0.16600
C 	C 	0.97526 0.93500 0.63025 -0.02400
H 	H 	0.93439 0.90195 0.58681 0.08500
Cl	Cl	0.86721 0.85417 0.63787 -0.20600
F 	F 	0.32861 0.04591 0.38021 -0.40600
F 	F 	0.26356 0.04198 0.41400 -0.45300
H 	H 	0.42293 0.80246 0.47430 0.07700
F 	F 	0.44757 0.02404 0.53418 -0.42200
C 	C 	0.78206 0.03014 0.39906 0.79700
F 	F 	0.78770 0.01411 0.43998 -0.43100
N 	N 	0.36786 0.69586 0.98788 -0.13700
C 	C 	0.52839 0.76912 0.95617 0.03800
C 	C 	0.46556 0.77136 0.92927 0.00800
C 	C 	0.41133 0.74530 0.93804 -0.04100
C 	C 	0.42079 0.71902 0.97546 0.08000
C 	C 	0.48411 0.71758 0.00261 -0.01700
C 	C 	0.53766 0.74258 0.99312 -0.01500
C 	C 	0.25849 0.80508 0.99244 0.01600
C 	C 	0.32652 0.82934 0.03880 0.02400
C 	C 	0.36279 0.79396 0.03671 -0.04200
C 	C 	0.33179 0.73450 0.98821 0.09700
C 	C 	0.26414 0.71126 0.94141 -0.04700
C 	C 	0.22789 0.74642 0.94367 0.02300
H 	H 	0.45840 0.79262 0.90117 0.10700
H 	H 	0.36224 0.74533 0.91565 0.07600
H 	H 	0.58630 0.74123 0.01442 0.10700
H 	H 	0.35124 0.87551 0.07640 0.08300
H 	H 	0.41476 0.81233 0.07287 0.08900
H 	H 	0.24069 0.66755 0.90310 0.08300
H 	H 	0.17644 0.72872 0.90728 0.08900
N 	N 	0.50368 0.80972 0.57146 -0.13500
C 	C 	0.66325 0.86853 0.53672 0.03400
C 	C 	0.63428 0.91081 0.54208 0.01500
C 	C 	0.58435 0.89331 0.55546 -0.04500
C 	C 	0.55709 0.82901 0.55849 0.09300
C 	C 	0.59026 0.78946 0.55653 -0.04400
C 	C 	0.64180 0.80841 0.54469 0.00600
C 	C 	0.36449 0.89000 0.53042 0.01600
C 	C 	0.40139 0.89616 0.58206 0.02600
C 	C 	0.44816 0.87097 0.59558 -0.04500
C 	C 	0.45672 0.83737 0.55713 0.10200
C 	C 	0.41725 0.82859 0.50454 -0.05400
C 	C 	0.37206 0.85552 0.49157 0.02100
H 	H 	0.65087 0.95762 0.53629 0.09900
H 	H 	0.56715 0.92981 0.56354 0.09700
H 	H 	0.66522 0.77638 0.54181 0.10900
H 	H 	0.39388 0.92051 0.61171 0.09300
H 	H 	0.47718 0.87675 0.63576 0.09300
H 	H 	0.34260 0.84927 0.45125 0.08800
O 	O 	0.02109 0.93624 0.79155 -0.39600
O 	O 	0.02811 0.86066 0.87413 -0.43200
O 	O 	0.93219 0.93406 0.83671 -0.86900
O 	O 	0.07137 0.96403 0.94491 -0.39400
Zn	Zn	0.81762 0.82450 0.87532 1.18700
Zn	Zn	0.95143 0.90086 0.98204 1.19200
C 	C 	0.84705 0.74812 0.94066 0.33700
C 	C 	0.76055 0.87338 0.92714 0.32900
O 	O 	0.91450 0.80512 0.97691 -0.41800
O 	O 	0.80079 0.74502 0.89578 -0.38900
O 	O 	0.74635 0.84218 0.87929 -0.44000
O 	O 	0.82859 0.90834 0.97058 -0.38200
O 	O 	0.91414 0.86875 0.90252 -0.78100
O 	O 	0.99133 0.94906 0.06263 -0.39300
Zn	Zn	0.98031 0.88961 0.82552 1.19200
C 	C 	0.07327 0.90679 0.92604 0.31600
H 	H 	0.87832 0.90241 0.80943 0.18800
O 	O 	0.10892 0.03995 0.32969 -0.38800
O 	O 	0.11603 0.94233 0.39805 -0.38900
O 	O 	0.03686 0.03679 0.38728 -0.84300
O 	O 	0.15977 0.02834 0.47973 -0.42200
Zn	Zn	0.89821 0.90248 0.39920 1.19900
Zn	Zn	0.02925 0.94493 0.50224 1.21200
C 	C 	0.90145 0.79404 0.43467 0.33600
C 	C 	0.85484 0.92609 0.46735 0.32500
O 	O 	0.97104 0.84021 0.47607 -0.37000
O 	O 	0.87032 0.80501 0.39347 -0.33600
O 	O 	0.83301 0.91145 0.41764 -0.34000
O 	O 	0.92331 0.94948 0.50358 -0.49500
O 	O 	0.99545 0.94155 0.42851 -0.75800
O 	O 	0.06265 0.96482 0.58015 -0.39800
Zn	Zn	0.07444 0.98793 0.36362 1.20000
C 	C 	0.15787 0.97361 0.45109 0.33100
H 	H 	0.98403 0.01486 0.35966 0.16800
C 	C 	0.97630 0.96776 0.15593 0.15900
C 	C 	0.99840 0.98523 0.20898 -0.06700
H 	H 	0.97111 0.94438 0.21712 0.07100
Cl	Cl	0.90163 0.88046 0.10299 -0.21000
C 	C 	0.68409 0.84030 0.46567 0.02300
C 	C 	0.71243 0.88427 0.51919 0.09700
C 	C 	0.78682 0.94229 0.55523 -0.11600
C 	C 	0.82989 0.95771 0.53559 0.06500
C 	C 	0.80276 0.91217 0.48260 0.01000
C 	C 	0.72893 0.85157 0.44722 -0.04900
C 	C 	0.69653 0.80023 0.38953 0.77800
H 	H 	0.62674 0.79682 0.43841 0.10700
H 	H 	0.88539 0.00486 0.56189 0.08400
C 	C 	0.81941 0.99082 0.61368 0.76800
F 	F 	0.74134 0.77638 0.38890 -0.43700
F 	F 	0.68808 0.83470 0.35855 -0.38600
F 	F 	0.79836 0.95073 0.63675 -0.41900
F 	F 	0.79591 0.03777 0.61531 -0.40400
F 	F 	0.89538 0.03089 0.64497 -0.40500
C 	C 	0.23760 0.86257 0.48555 -0.00300
C 	C 	0.31278 0.91398 0.51535 0.11500
C 	C 	0.33769 0.98693 0.52873 -0.17800
C 	C 	0.28594 0.00647 0.51091 0.14500
C 	C 	0.21046 0.95417 0.47846 -0.04600
C 	C 	0.18610 0.88225 0.46829 -0.05400
C 	C 	0.10524 0.82556 0.43714 0.78400
H 	H 	0.21919 0.80681 0.47517 0.11600
F 	F 	0.09543 0.76809 0.44745 -0.38100
F 	F 	0.07233 0.80029 0.38221 -0.39400
F 	F 	0.07093 0.85405 0.45207 -0.46500
C 	C 	0.63435 0.78174 0.89409 0.10600
C 	C 	0.69846 0.85070 0.93246 0.01100
C 	C 	0.70280 0.89577 0.97569 -0.05600
C 	C 	0.64780 0.86681 0.98370 0.01400
C 	C 	0.58580 0.79662 0.94687 0.09800
C 	C 	0.57899 0.75321 0.90175 -0.10600
C 	C 	0.51286 0.67650 0.86177 0.79500
H 	H 	0.62863 0.74945 0.85895 0.11000
H 	H 	0.65282 0.89918 0.01849 0.10600
F 	F 	0.52006 0.64069 0.82390 -0.39700
F 	F 	0.45028 0.67738 0.83440 -0.42300
C 	C 	0.24639 0.90704 0.98734 0.00700
C 	C 	0.22264 0.84548 0.99334 0.09500
C 	C 	0.15837 0.81712 0.99175 -0.14000
C 	C 	0.11211 0.84267 0.97412 0.08100
C 	C 	0.13162 0.89868 0.96157 -0.02300
C 	C 	0.20188 0.93491 0.97236 -0.08200
H 	H 	0.29746 0.93043 0.99114 0.09600
H 	H 	0.05887 0.81612 0.96695 0.06400
C 	C 	0.13613 0.75624 0.00484 0.80300
F 	F 	0.19680 0.76711 0.04904 -0.40800
F 	F 	0.71074 0.01117 0.36438 -0.40700
F 	F 	0.79624 0.98985 0.36947 -0.45600
H 	H 	0.83967 0.78507 0.48740 0.07300
F 	F 	0.57707 0.90607 0.84774 -0.42300
F 	F 	0.76206 0.76012 0.97581 -0.44000
