data_crystal

_cell_length_a 38.84688
_cell_length_b 34.61114
_cell_length_c 20.46526
_cell_angle_alpha 92.61497
_cell_angle_beta  85.34371
_cell_angle_gamma 123.97612

_symmetry_space_group_name_	'P 1'
_symmetry_space_group_name_H-M	'P 1'

loop_
_symmetry_equiv_pos_as_xyz
  x,y,z

loop_
_atom_site_label
_atom_site_type_symbol
_atom_site_fract_x
_atom_site_fract_y
_atom_site_fract_z
_atom_site_charge
C 	C 	0.00238 0.96796 0.07104 -0.02800
C 	C 	0.03673 0.00535 0.03614 0.03500
C 	C 	0.03142 0.03583 0.00205 -0.01200
C 	C 	0.07831 0.02581 0.05241 -0.05700
S 	S 	0.07708 0.08708 0.99501 -0.02300
H 	H 	0.00865 0.09867 0.97499 0.05800
C 	C 	0.10487 0.07251 0.03278 0.01700
H 	H 	0.08811 0.00807 0.08020 0.05900
C 	C 	0.23737 0.14358 0.00617 0.00900
C 	C 	0.21151 0.09592 0.99129 -0.03100
C 	C 	0.16831 0.07287 0.99899 -0.05700
C 	C 	0.15041 0.09707 0.02226 0.03600
C 	C 	0.17614 0.14483 0.03601 -0.04000
C 	C 	0.21941 0.16801 0.02798 -0.01600
H 	H 	0.22485 0.07656 0.97459 0.05800
H 	H 	0.14877 0.03620 0.98686 0.05000
H 	H 	0.16265 0.16389 0.05362 0.05700
H 	H 	0.23892 0.20491 0.03874 0.06000
C 	C 	0.03088 0.01226 0.55852 0.02900
C 	C 	0.03228 0.05118 0.53712 -0.02400
C 	C 	0.06970 0.02323 0.57798 -0.05500
S 	S 	0.08094 0.09732 0.54079 0.01300
H 	H 	0.01281 0.11373 0.50230 0.05400
C 	C 	0.10098 0.07092 0.57246 -0.00100
H 	H 	0.07581 0.99722 0.58800 0.05300
C 	C 	0.23193 0.13006 0.55365 -0.00500
C 	C 	0.20469 0.09029 0.51719 -0.01500
C 	C 	0.16184 0.07047 0.52400 -0.04200
C 	C 	0.14578 0.09018 0.56730 0.02400
C 	C 	0.17287 0.12977 0.60376 -0.04200
C 	C 	0.21569 0.14951 0.59726 -0.01600
H 	H 	0.21674 0.07517 0.48286 0.05800
H 	H 	0.14122 0.04029 0.49485 0.05200
H 	H 	0.16074 0.14525 0.63719 0.05200
H 	H 	0.23619 0.17980 0.62629 0.05700
N 	N 	0.30436 0.19808 0.55480 -0.07300
C 	C 	0.27731 0.15153 0.54580 0.11800
N 	N 	0.29241 0.12490 0.52983 -0.07200
N 	N 	0.30119 0.15229 0.95656 -0.08200
C 	C 	0.28307 0.16748 0.00040 0.13000
N 	N 	0.30719 0.20324 0.04126 -0.07200
N 	N 	0.34526 0.21737 0.54834 -0.06000
N 	N 	0.33332 0.14424 0.52314 -0.05900
N 	N 	0.34205 0.17159 0.95458 -0.05900
N 	N 	0.34810 0.22271 0.03902 -0.04900
C 	C 	0.00516 0.04571 0.49079 0.02800
C 	C 	0.36032 0.19073 0.53243 0.10900
C 	C 	0.36604 0.20685 0.99610 0.09600
C 	C 	0.40543 0.21194 0.52593 0.11700
C 	C 	0.41056 0.22590 0.99691 0.10300
C 	C 	0.99751 0.96734 0.54251 -0.02500
C 	C 	0.99214 0.02885 0.00274 0.05400
C 	C 	0.95709 0.98766 0.03028 -0.03200
C 	C 	0.96220 0.95795 0.06645 0.03500
C 	C 	0.98559 0.06495 0.99650 -0.09300
S 	S 	0.91982 0.99715 0.04790 0.01700
C 	C 	0.93017 0.91037 0.07815 -0.05600
S 	S 	0.99760 0.91842 0.08682 0.01500
C 	C 	0.94590 0.05212 0.02106 0.01800
C 	C 	0.94558 0.88361 0.09189 -0.00100
H 	H 	0.89829 0.89505 0.06653 0.05800
C 	C 	0.88568 0.12005 0.98075 -0.03400
C 	C 	0.92376 0.14472 0.01046 0.01600
C 	C 	0.94388 0.12278 0.02216 -0.05500
C 	C 	0.92609 0.07599 0.00446 0.04700
C 	C 	0.88881 0.05183 0.97263 -0.07000
C 	C 	0.86869 0.07372 0.96092 0.00000
H 	H 	0.93721 0.18047 0.02604 0.05600
H 	H 	0.97280 0.14182 0.04633 0.05900
H 	H 	0.87537 0.01608 0.95709 0.05500
H 	H 	0.83978 0.05459 0.93674 0.05200
C 	C 	0.87582 0.73529 0.06710 -0.01400
C 	C 	0.86020 0.75582 0.10983 -0.01000
C 	C 	0.88316 0.80416 0.11802 -0.04600
C 	C 	0.92187 0.83258 0.08347 0.02900
C 	C 	0.93740 0.81218 0.04034 -0.05100
C 	C 	0.91464 0.76381 0.03252 0.01000
H 	H 	0.83012 0.73442 0.13626 0.05700
H 	H 	0.87083 0.81954 0.15125 0.05400
H 	H 	0.96685 0.83372 0.01231 0.05900
H 	H 	0.92726 0.74857 0.99971 0.03700
C 	C 	0.97418 0.00058 0.47041 -0.02100
C 	C 	0.96873 0.96125 0.49892 0.02700
C 	C 	0.99599 0.07925 0.48067 -0.05300
S 	S 	0.93606 0.00268 0.44316 0.01000
C 	C 	0.94717 0.91645 0.46958 -0.05600
S 	S 	0.99705 0.91891 0.54184 0.01000
C 	C 	0.95798 0.06006 0.45233 0.00100
C 	C 	0.96026 0.88844 0.48871 0.00000
H 	H 	0.92360 0.90526 0.43498 0.05500
C 	C 	0.89145 0.12600 0.45846 -0.00500
C 	C 	0.93333 0.15015 0.43435 -0.01500
C 	C 	0.95483 0.12847 0.43226 -0.04200
C 	C 	0.93489 0.08254 0.45462 0.02400
C 	C 	0.89317 0.05851 0.47941 -0.04100
C 	C 	0.87151 0.08000 0.48095 -0.01500
H 	H 	0.94934 0.18579 0.41755 0.05800
H 	H 	0.98700 0.14736 0.41307 0.05300
H 	H 	0.87757 0.02338 0.49804 0.05300
H 	H 	0.83919 0.06076 0.49934 0.05900
C 	C 	0.88178 0.73939 0.48921 -0.00600
C 	C 	0.86806 0.76547 0.52214 -0.01600
C 	C 	0.89368 0.81413 0.52196 -0.04300
C 	C 	0.93333 0.83727 0.48910 0.02300
C 	C 	0.94737 0.81140 0.45702 -0.04200
C 	C 	0.92169 0.76270 0.45676 -0.01600
H 	H 	0.83768 0.74809 0.54824 0.05600
H 	H 	0.88282 0.83386 0.54766 0.05200
H 	H 	0.97802 0.82902 0.43176 0.05400
H 	H 	0.93264 0.74317 0.43076 0.05700
Co	Co	0.69647 0.30993 0.97666 1.20000
O 	O 	0.74821 0.30884 0.94151 -0.27700
Co	Co	0.61439 0.31450 0.99236 1.19700
O 	O 	0.64767 0.28885 0.91932 -0.39800
O 	O 	0.66223 0.37561 0.02163 -0.33200
O 	O 	0.69353 0.24618 0.97787 -0.27800
C 	C 	0.70103 0.39721 0.99627 0.27400
O 	O 	0.62810 0.33215 0.89132 -0.34000
C 	C 	0.53511 0.27475 0.00882 0.30500
C 	C 	0.65802 0.30114 0.09672 0.30500
O 	O 	0.56299 0.31628 0.02729 -0.26000
O 	O 	0.55195 0.25491 0.97946 -0.28600
O 	O 	0.69683 0.31834 0.07990 -0.33000
O 	O 	0.63566 0.28371 0.04555 -0.38300
O 	O 	0.71430 0.37507 0.95898 -0.49800
C 	C 	0.73091 0.26506 0.95211 0.29400
C 	C 	0.64701 0.31217 0.87135 0.30600
H 	H 	0.73895 0.39333 0.92612 0.22200
Co	Co	0.69603 0.31117 0.47313 1.20400
O 	O 	0.74777 0.31025 0.43758 -0.27400
Co	Co	0.61219 0.31252 0.48890 1.20600
O 	O 	0.64440 0.28362 0.41968 -0.39100
O 	O 	0.66010 0.37688 0.50729 -0.34900
O 	O 	0.69591 0.24966 0.48420 -0.27100
C 	C 	0.69822 0.39742 0.47914 0.31300
O 	O 	0.62117 0.32195 0.38580 -0.33500
C 	C 	0.53314 0.27097 0.51224 0.28700
C 	C 	0.66175 0.31032 0.59407 0.31000
O 	O 	0.56071 0.31414 0.52418 -0.26100
O 	O 	0.54999 0.25025 0.48620 -0.27000
O 	O 	0.70025 0.32771 0.57452 -0.33900
O 	O 	0.63752 0.28825 0.54595 -0.39700
O 	O 	0.71090 0.37348 0.44531 -0.50600
C 	C 	0.73240 0.26798 0.45496 0.29300
C 	C 	0.64078 0.30235 0.36865 0.30200
H 	H 	0.73357 0.38946 0.40876 0.22400
C 	C 	0.61159 0.29204 0.76718 0.06100
C 	C 	0.64285 0.29526 0.80201 0.01000
C 	C 	0.67313 0.29016 0.76726 -0.10100
C 	C 	0.67353 0.28658 0.69841 0.06200
C 	C 	0.64806 0.29406 0.66345 0.01000
C 	C 	0.61529 0.29451 0.69826 -0.09800
C 	C 	0.58400 0.29657 0.66253 0.78200
H 	H 	0.58580 0.29078 0.79412 0.09300
H 	H 	0.69580 0.28135 0.67149 0.09300
C 	C 	0.70450 0.28815 0.80282 0.78400
F 	F 	0.55399 0.29593 0.70481 -0.43100
F 	F 	0.56427 0.25821 0.62202 -0.45900
F 	F 	0.60430 0.33727 0.62654 -0.47300
F 	F 	0.68355 0.25069 0.84517 -0.45800
F 	F 	0.72826 0.32928 0.83673 -0.48700
F 	F 	0.73106 0.28249 0.76054 -0.43300
C 	C 	0.66611 0.27183 0.19914 0.06200
C 	C 	0.64145 0.28026 0.16360 0.01400
C 	C 	0.60747 0.27876 0.19745 -0.09800
C 	C 	0.60317 0.27593 0.26636 0.06100
C 	C 	0.63494 0.28089 0.30184 0.01300
C 	C 	0.66505 0.27508 0.26805 -0.10000
C 	C 	0.69703 0.27472 0.30420 0.78400
H 	H 	0.68896 0.26732 0.17275 0.09600
H 	H 	0.57710 0.27439 0.29274 0.09500
C 	C 	0.57721 0.28229 0.16117 0.78200
F 	F 	0.72066 0.26363 0.26372 -0.43000
F 	F 	0.67715 0.24176 0.35337 -0.45700
F 	F 	0.72338 0.31857 0.32980 -0.48400
F 	F 	0.56148 0.24845 0.11312 -0.45500
F 	F 	0.59779 0.32622 0.13400 -0.47000
F 	F 	0.54401 0.27555 0.20183 -0.42900
C 	C 	0.77657 0.54262 0.48576 0.11200
N 	N 	0.73486 0.52076 0.49834 -0.05800
N 	N 	0.70993 0.47442 0.49658 -0.03800
C 	C 	0.72594 0.44862 0.48167 0.04500
N 	N 	0.76768 0.47044 0.46954 -0.05300
N 	N 	0.79265 0.51679 0.47158 -0.06000
C 	C 	0.85430 0.68789 0.48825 0.11700
N 	N 	0.87076 0.66198 0.48225 -0.07400
N 	N 	0.84595 0.61560 0.48137 -0.06200
C 	C 	0.80397 0.59376 0.48681 0.10600
N 	N 	0.78750 0.61963 0.49296 -0.06100
N 	N 	0.81229 0.66599 0.49351 -0.07400
C 	C 	0.82589 0.18944 0.46163 0.10900
N 	N 	0.85961 0.20429 0.41902 -0.05900
N 	N 	0.88053 0.18415 0.41808 -0.07300
C 	C 	0.86851 0.14875 0.46001 0.11900
N 	N 	0.83496 0.13419 0.50297 -0.07200
N 	N 	0.81388 0.15412 0.50359 -0.05900
C 	C 	0.75742 0.24863 0.45871 0.08100
N 	N 	0.74223 0.20905 0.49328 -0.03800
N 	N 	0.76433 0.19048 0.49486 -0.05300
C 	C 	0.80209 0.21071 0.46139 0.11700
N 	N 	0.81728 0.25031 0.42679 -0.05400
N 	N 	0.79528 0.26906 0.42560 -0.03400
C 	C 	0.48832 0.25055 0.51572 0.08500
N 	N 	0.46141 0.20507 0.50010 -0.03700
N 	N 	0.42054 0.18602 0.50516 -0.05400
N 	N 	0.43238 0.25750 0.54132 -0.05400
N 	N 	0.47326 0.27651 0.53645 -0.03600
C 	C 	0.77944 0.54012 0.03064 0.12200
N 	N 	0.74601 0.51265 0.07262 -0.05700
N 	N 	0.72135 0.46697 0.06198 -0.04000
C 	C 	0.72961 0.44735 0.00941 0.07700
N 	N 	0.76329 0.47476 0.96772 -0.06600
N 	N 	0.78780 0.52052 0.97811 -0.07000
C 	C 	0.85147 0.68414 0.05825 0.12200
N 	N 	0.85634 0.66527 0.00146 -0.06600
N 	N 	0.83381 0.61922 0.99303 -0.07800
C 	C 	0.80559 0.59072 0.04098 0.11700
N 	N 	0.80083 0.60953 0.09784 -0.06100
N 	N 	0.82354 0.65554 0.10646 -0.07300
C 	C 	0.79702 0.20361 0.96026 0.11500
N 	N 	0.81704 0.24896 0.94225 -0.05600
N 	N 	0.79593 0.26868 0.93954 -0.03900
C 	C 	0.75430 0.24367 0.95511 0.07800
N 	N 	0.73432 0.19836 0.97292 -0.03900
N 	N 	0.75536 0.17861 0.97544 -0.05500
C 	C 	0.86258 0.14174 0.97351 0.12300
N 	N 	0.82046 0.11604 0.98290 -0.07500
N 	N 	0.79957 0.13578 0.97818 -0.06000
C 	C 	0.82015 0.18179 0.96386 0.10700
N 	N 	0.86227 0.20749 0.95409 -0.06200
N 	N 	0.88320 0.18776 0.95892 -0.07700
C 	C 	0.49166 0.25840 0.00315 0.09400
N 	N 	0.47563 0.28055 0.03580 -0.03300
N 	N 	0.43560 0.26445 0.03288 -0.04400
N 	N 	0.42674 0.20404 0.96375 -0.05400
N 	N 	0.46669 0.21996 0.96705 -0.04800
