data_crystal

_cell_length_a 18.53638
_cell_length_b 18.93899
_cell_length_c 35.01765
_cell_angle_alpha 95.43969
_cell_angle_beta  95.44154
_cell_angle_gamma 126.12746

_symmetry_space_group_name_	'P 1'
_symmetry_space_group_name_H-M	'P 1'

loop_
_symmetry_equiv_pos_as_xyz
  x,y,z

loop_
_atom_site_label
_atom_site_type_symbol
_atom_site_fract_x
_atom_site_fract_y
_atom_site_fract_z
_atom_site_charge
C 	C 	0.80338 0.92537 0.95044 0.06300
C 	C 	0.89769 0.97815 0.95231 -0.07000
C 	C 	0.94336 0.94010 0.95441 0.07300
C 	C 	0.89497 0.84904 0.95436 -0.07300
C 	C 	0.80042 0.79486 0.95103 0.06800
C 	C 	0.75413 0.83297 0.94916 -0.06900
H 	H 	0.93573 0.04913 0.95309 0.06800
H 	H 	0.93081 0.82003 0.95637 0.07600
H 	H 	0.68112 0.79164 0.94748 0.07400
C 	C 	0.03295 0.09499 0.50910 0.05500
C 	C 	0.98122 0.00375 0.50971 -0.06400
C 	C 	0.02238 0.96112 0.50936 0.06500
C 	C 	0.11556 0.01003 0.50946 -0.08000
C 	C 	0.16815 0.10176 0.51037 0.06900
C 	C 	0.12680 0.14434 0.50986 -0.07100
H 	H 	0.90883 0.96568 0.50947 0.07700
H 	H 	0.14735 0.97690 0.50923 0.07700
H 	H 	0.16713 0.21511 0.50971 0.07000
Cu	Cu	0.65015 0.26944 0.94460 0.92700
Cu	Cu	0.66150 0.21961 0.03100 0.87800
Cu	Cu	0.51464 0.22727 0.99924 0.89900
Cu	Cu	0.46922 0.24842 0.91688 0.90300
C 	C 	0.58384 0.24563 0.86312 0.33400
O 	O 	0.70180 0.39765 0.94041 -0.34900
C 	C 	0.59180 0.27722 0.08426 0.32800
O 	O 	0.50934 0.19425 0.94502 -0.63600
O 	O 	0.64793 0.29253 0.00076 -0.63500
O 	O 	0.71176 0.21053 0.94806 -0.35000
O 	O 	0.62409 0.12600 0.98969 -0.43500
O 	O 	0.50388 0.22512 0.86768 -0.37900
O 	O 	0.38389 0.15539 0.99409 -0.36200
C 	C 	0.33040 0.15432 0.96597 0.31000
C 	C 	0.65551 0.42879 0.94632 0.30200
O 	O 	0.57353 0.37660 0.95378 -0.38200
O 	O 	0.36394 0.21247 0.94249 -0.38100
O 	O 	0.63084 0.23388 0.88913 -0.35100
C 	C 	0.67684 0.13965 0.96439 0.30600
O 	O 	0.52023 0.24371 0.05643 -0.37500
O 	O 	0.66435 0.28520 0.07657 -0.41800
H 	H 	0.47336 0.12920 0.93592 0.17600
H 	H 	0.68452 0.35614 0.01313 0.18100
Cu	Cu	0.70665 0.26779 0.51830 0.93200
Cu	Cu	0.75806 0.26726 0.43112 0.87700
Cu	Cu	0.75211 0.40916 0.46924 0.90400
Cu	Cu	0.72185 0.43711 0.55008 0.90400
C 	C 	0.74986 0.33369 0.60128 0.33300
O 	O 	0.57800 0.22048 0.52335 -0.35500
C 	C 	0.70007 0.34521 0.38330 0.33400
O 	O 	0.78452 0.40640 0.52243 -0.63800
O 	O 	0.68481 0.27780 0.46336 -0.64000
O 	O 	0.75904 0.20228 0.51034 -0.35500
O 	O 	0.85088 0.29295 0.47124 -0.42900
O 	O 	0.71399 0.37566 0.59466 -0.38200
O 	O 	0.82504 0.53729 0.47818 -0.37300
C 	C 	0.82697 0.58738 0.50783 0.31500
C 	C 	0.54410 0.26109 0.51188 0.30700
O 	O 	0.59869 0.34381 0.50729 -0.37800
O 	O 	0.77127 0.55231 0.53282 -0.36900
O 	O 	0.74614 0.27999 0.57274 -0.35000
C 	C 	0.83245 0.23704 0.49493 0.31300
O 	O 	0.73791 0.41267 0.41294 -0.38300
O 	O 	0.69318 0.27295 0.38735 -0.41500
H 	H 	0.85075 0.44268 0.53248 0.18200
H 	H 	0.62015 0.24302 0.45071 0.19200
C 	C 	0.76624 0.36665 0.70973 0.01500
C 	C 	0.72147 0.39328 0.72963 -0.02900
C 	C 	0.69910 0.36923 0.76556 -0.03300
C 	C 	0.72045 0.31732 0.78195 0.02100
C 	C 	0.76922 0.29426 0.76304 -0.03300
C 	C 	0.79241 0.31911 0.72712 -0.03000
C 	C 	0.69272 0.28795 0.81915 0.02100
C 	C 	0.60648 0.25807 0.82615 -0.14500
C 	C 	0.78686 0.39098 0.67114 0.01900
C 	C 	0.77194 0.32914 0.63980 -0.15400
H 	H 	0.70307 0.43191 0.71700 0.05300
H 	H 	0.66480 0.39065 0.78056 0.06500
H 	H 	0.78832 0.25640 0.77593 0.05700
H 	H 	0.83116 0.30204 0.71309 0.05400
H 	H 	0.73964 0.28914 0.84082 0.05900
H 	H 	0.55811 0.25112 0.80298 0.09400
H 	H 	0.79927 0.45244 0.66550 0.04400
H 	H 	0.77465 0.27524 0.64541 0.10200
C 	C 	0.64607 0.32579 0.19475 0.01200
C 	C 	0.71670 0.39356 0.22477 -0.03500
C 	C 	0.71283 0.38371 0.26377 -0.03300
C 	C 	0.63774 0.30599 0.27321 0.01200
C 	C 	0.56548 0.23976 0.24331 -0.03400
C 	C 	0.56960 0.24938 0.20428 -0.03400
C 	C 	0.64018 0.28782 0.31334 0.01700
C 	C 	0.67658 0.35542 0.34617 -0.16200
C 	C 	0.65914 0.32923 0.15372 0.01500
C 	C 	0.58645 0.29651 0.12300 -0.16300
H 	H 	0.77627 0.45247 0.21778 0.04900
H 	H 	0.77005 0.43464 0.28641 0.04900
H 	H 	0.50752 0.17932 0.25019 0.04900
H 	H 	0.51533 0.19564 0.18145 0.04900
H 	H 	0.61349 0.22067 0.31713 0.04400
H 	H 	0.69038 0.41844 0.34251 0.09500
H 	H 	0.72653 0.35701 0.14754 0.04300
H 	H 	0.52321 0.28185 0.12949 0.09900
C 	C 	0.97830 0.83595 0.54326 -0.07200
C 	C 	0.96830 0.86524 0.50926 -0.00300
C 	C 	0.91323 0.80311 0.47456 0.08600
C 	C 	0.86803 0.71244 0.47429 -0.01300
C 	C 	0.87821 0.68308 0.50827 -0.09600
C 	C 	0.93456 0.74544 0.54283 0.14200
Br	Br	0.95756 0.70898 0.58892 -0.23800
H 	H 	0.02208 0.88391 0.56981 0.07900
H 	H 	0.82460 0.66466 0.44766 0.07000
Br	Br	0.90115 0.84105 0.42698 -0.20100
C 	C 	0.89774 0.16740 0.46533 -0.01400
C 	C 	0.88577 0.20289 0.49901 -0.10500
C 	C 	0.92721 0.20784 0.53609 0.14500
C 	C 	0.97742 0.17457 0.53907 -0.07500
C 	C 	0.98766 0.13744 0.50537 -0.00100
C 	C 	0.94855 0.13495 0.46834 0.08300
Br	Br	0.96354 0.08703 0.42154 -0.20900
H 	H 	0.86695 0.16447 0.43674 0.04200
H 	H 	0.00804 0.17710 0.56761 0.07500
Br	Br	0.91987 0.26346 0.58278 -0.22300
C 	C 	0.41393 0.20271 0.54591 -0.01700
C 	C 	0.44775 0.22009 0.51111 -0.10000
C 	C 	0.39119 0.20557 0.47672 0.14200
C 	C 	0.30097 0.17198 0.47728 -0.07800
C 	C 	0.26660 0.15271 0.51191 -0.01000
C 	C 	0.32411 0.17006 0.54655 0.08700
Br	Br	0.28101 0.14990 0.59504 -0.22500
H 	H 	0.45800 0.21598 0.57264 0.06500
H 	H 	0.25669 0.15813 0.45051 0.08300
Br	Br	0.43473 0.22741 0.42835 -0.24800
C 	C 	0.73936 0.64607 0.91403 -0.07900
C 	C 	0.75072 0.69793 0.94879 -0.00700
C 	C 	0.73352 0.66162 0.98306 0.08300
C 	C 	0.70709 0.57515 0.98244 -0.02300
C 	C 	0.69785 0.52411 0.94787 -0.09700
C 	C 	0.71386 0.55999 0.91349 0.14100
Br	Br	0.70027 0.49227 0.86534 -0.24800
H 	H 	0.75377 0.67401 0.88768 0.08300
H 	H 	0.69282 0.54728 0.00880 0.06500
Br	Br	0.74768 0.72988 0.03120 -0.19800
C 	C 	0.73079 0.98817 0.91984 -0.07600
C 	C 	0.75847 0.96893 0.95354 -0.00100
C 	C 	0.75891 0.00577 0.99049 0.07400
C 	C 	0.73509 0.06354 0.99358 -0.02200
C 	C 	0.70903 0.08436 0.96002 -0.10100
C 	C 	0.70547 0.04507 0.92286 0.13900
Br	Br	0.66358 0.06554 0.87592 -0.22100
H 	H 	0.73078 0.96045 0.89131 0.08000
H 	H 	0.73677 0.09232 0.02223 0.04500
Br	Br	0.79408 0.97952 0.03726 -0.20000
C 	C 	0.17460 0.03975 0.92895 -0.02400
C 	C 	0.23184 0.09656 0.96425 -0.09800
C 	C 	0.19396 0.10359 0.99615 0.14200
C 	C 	0.09951 0.05253 0.99254 -0.08900
C 	C 	0.04247 0.99588 0.95717 -0.01000
C 	C 	0.08037 0.99016 0.92514 0.09100
Br	Br	0.00458 0.91730 0.87555 -0.22700
H 	H 	0.20356 0.03534 0.90417 0.05500
H 	H 	0.07037 0.05724 0.01718 0.08700
Br	Br	0.26966 0.18597 0.04404 -0.21200
