data_crystal

_cell_length_a 15.74539
_cell_length_b 18.56697
_cell_length_c 43.70609
_cell_angle_alpha 90.34402
_cell_angle_beta  90.35556
_cell_angle_gamma 119.32361

_symmetry_space_group_name_	'P 1'
_symmetry_space_group_name_H-M	'P 1'

loop_
_symmetry_equiv_pos_as_xyz
  x,y,z

loop_
_atom_site_label
_atom_site_type_symbol
_atom_site_fract_x
_atom_site_fract_y
_atom_site_fract_z
_atom_site_charge
C 	C 	0.11701 0.01349 0.77579 0.35200
C 	C 	0.05154 0.98498 0.85950 0.28400
O 	O 	0.08999 0.05967 0.79147 -0.29500
O 	O 	0.07411 0.94533 0.83860 -0.28600
O 	O 	0.01207 0.03104 0.85111 -0.30400
O 	O 	0.05880 0.93321 0.77255 -0.36800
C 	C 	0.30936 0.80208 0.46248 0.30600
C 	C 	0.38832 0.60864 0.37162 0.31900
C 	C 	0.33597 0.65235 0.47896 0.32000
C 	C 	0.35719 0.80532 0.35906 0.29400
Ni	Ni	0.30844 0.68950 0.41302 1.11700
O 	O 	0.27886 0.77444 0.43434 -0.35100
O 	O 	0.34272 0.60089 0.39742 -0.33700
O 	O 	0.43483 0.68093 0.35865 -0.30500
O 	O 	0.27578 0.63094 0.45550 -0.35000
O 	O 	0.42999 0.68966 0.47470 -0.36600
O 	O 	0.29992 0.72890 0.36867 -0.31900
O 	O 	0.45286 0.83659 0.35821 -0.28900
O 	O 	0.44096 0.77207 0.41628 -0.71500
H 	H 	0.43544 0.82232 0.41353 0.15800
C 	C 	0.27372 0.76135 0.18987 0.28100
C 	C 	0.38443 0.64070 0.08442 0.31300
C 	C 	0.28751 0.56116 0.18180 0.31800
C 	C 	0.34743 0.79185 0.07991 0.33200
Ni	Ni	0.27382 0.66982 0.13308 1.11900
Ni	Ni	0.44580 0.73070 0.18445 1.14500
O 	O 	0.23086 0.73391 0.16271 -0.29000
O 	O 	0.32436 0.72908 0.20310 -0.27700
O 	O 	0.33574 0.61075 0.10968 -0.36800
O 	O 	0.22863 0.58206 0.16821 -0.33600
O 	O 	0.38051 0.60750 0.17898 -0.32000
O 	O 	0.27005 0.73273 0.09339 -0.33000
O 	O 	0.40581 0.74662 0.14491 -0.70900
H 	H 	0.39775 0.79468 0.14953 0.19800
C 	C 	0.16115 0.97232 0.25737 0.25000
C 	C 	0.22914 0.30236 0.30712 0.28800
C 	C 	0.20496 0.01986 0.32532 0.34400
C 	C 	0.16085 0.24918 0.24091 0.29500
Ni	Ni	0.22667 0.14965 0.28002 1.12400
O 	O 	0.21578 0.05284 0.25260 -0.29400
O 	O 	0.06913 0.94114 0.26550 -0.26400
O 	O 	0.27850 0.26257 0.30345 -0.32900
O 	O 	0.13926 0.26179 0.31560 -0.28900
O 	O 	0.25877 0.09784 0.31745 -0.32100
O 	O 	0.11077 0.98862 0.33012 -0.31000
O 	O 	0.21220 0.20976 0.24164 -0.30300
O 	O 	0.07129 0.21609 0.25234 -0.26800
O 	O 	0.09063 0.09804 0.28604 -0.71000
H 	H 	0.07363 0.08726 0.26414 0.18200
C 	C 	0.16656 0.41140 0.18723 0.06700
C 	C 	0.24941 0.48209 0.19855 0.01600
C 	C 	0.30361 0.47402 0.22314 -0.07100
C 	C 	0.28324 0.39487 0.23221 0.06500
C 	C 	0.19753 0.32500 0.22247 0.04300
C 	C 	0.14078 0.33231 0.19859 -0.06900
C 	C 	0.05299 0.25665 0.18516 0.76100
H 	H 	0.12377 0.41769 0.16900 0.09300
H 	H 	0.32959 0.38815 0.24907 0.08500
C 	C 	0.38268 0.54912 0.24001 0.78100
F 	F 	0.07008 0.19039 0.18350 -0.39400
F 	F 	0.35842 0.61123 0.24215 -0.42600
F 	F 	0.47008 0.57801 0.22488 -0.41800
F 	F 	0.39549 0.52926 0.26948 -0.41800
C 	C 	0.24400 0.94539 0.21388 0.03300
C 	C 	0.18905 0.91622 0.24069 0.05400
C 	C 	0.16050 0.83434 0.25064 -0.08200
C 	C 	0.19470 0.78724 0.23464 0.08000
C 	C 	0.24949 0.81695 0.20793 0.04200
C 	C 	0.27376 0.89670 0.19723 -0.05400
C 	C 	0.32958 0.92976 0.16771 0.76600
H 	H 	0.26133 0.00574 0.20547 0.14800
H 	H 	0.17465 0.72547 0.24215 0.12500
C 	C 	0.08338 0.79223 0.27500 0.76400
F 	F 	0.27267 0.88471 0.14302 -0.42500
F 	F 	0.10379 0.84157 0.30068 -0.44900
F 	F 	0.07788 0.71890 0.28428 -0.39500
C 	C 	0.26708 0.50666 0.33651 0.08200
C 	C 	0.35524 0.53529 0.35206 0.02000
C 	C 	0.41245 0.49660 0.34750 -0.06800
C 	C 	0.37571 0.42535 0.32872 0.07500
C 	C 	0.28218 0.39163 0.31542 0.02800
C 	C 	0.23148 0.43779 0.31713 -0.07200
C 	C 	0.13494 0.41103 0.30083 0.78600
H 	H 	0.22509 0.53814 0.33978 0.10100
H 	H 	0.41706 0.39328 0.32601 0.11100
C 	C 	0.51043 0.52927 0.36346 0.78000
F 	F 	0.12666 0.47946 0.29290 -0.38900
F 	F 	0.12614 0.36797 0.27432 -0.45000
F 	F 	0.49834 0.52913 0.39477 -0.44600
F 	F 	0.55376 0.48167 0.35697 -0.40500
C 	C 	0.31674 0.96360 0.31623 0.04000
C 	C 	0.25423 0.97414 0.33625 0.01300
C 	C 	0.22823 0.93056 0.36422 -0.06400
C 	C 	0.25221 0.86787 0.36911 0.06100
C 	C 	0.31377 0.85642 0.34899 0.02200
C 	C 	0.34283 0.90211 0.32147 -0.06500
C 	C 	0.40090 0.88556 0.29753 0.77600
H 	H 	0.34047 0.00014 0.29562 0.11400
H 	H 	0.22609 0.83011 0.38931 0.08600
C 	C 	0.17569 0.95049 0.38907 0.76200
F 	F 	0.39162 0.91353 0.26909 -0.41100
F 	F 	0.36834 0.80173 0.29474 -0.40000
F 	F 	0.07620 0.90449 0.38422 -0.41500
F 	F 	0.20345 0.03370 0.38936 -0.40200
F 	F 	0.19739 0.93153 0.41765 -0.43700
C 	C 	0.18002 0.96779 0.56680 0.00500
C 	C 	0.15512 0.88622 0.57371 -0.01500
C 	C 	0.13811 0.83016 0.54985 -0.02000
C 	C 	0.14629 0.85670 0.51953 0.01100
C 	C 	0.14197 0.92891 0.51355 -0.00600
C 	C 	0.15909 0.98502 0.53741 -0.03800
C 	C 	0.19673 0.83225 0.49833 0.07400
C 	C 	0.24642 0.81706 0.48165 -0.06100
H 	H 	0.16332 0.87002 0.59690 0.09300
H 	H 	0.13327 0.77116 0.55483 0.05600
H 	H 	0.14012 0.94712 0.49015 0.10400
C 	C 	0.21784 0.56076 0.56271 0.00200
C 	C 	0.20683 0.48526 0.57295 -0.00800
C 	C 	0.14584 0.44516 0.59767 -0.03500
C 	C 	0.09459 0.47985 0.61207 0.05400
C 	C 	0.11320 0.55910 0.60368 -0.03500
C 	C 	0.17430 0.59928 0.57899 -0.00600
C 	C 	0.26303 0.59334 0.53353 0.06700
C 	C 	0.29778 0.62009 0.50876 -0.08000
H 	H 	0.24141 0.45556 0.56085 0.06500
H 	H 	0.13284 0.38433 0.60410 0.08100
H 	H 	0.07479 0.58695 0.61476 0.09800
H 	H 	0.18364 0.65831 0.57158 0.05600
C 	C 	0.30247 0.07332 0.71268 -0.08700
C 	C 	0.21775 0.02932 0.73005 0.11800
C 	C 	0.21258 0.05413 0.75991 0.00800
C 	C 	0.29678 0.12177 0.77336 -0.05800
C 	C 	0.30281 0.14054 0.80739 0.77900
H 	H 	0.15469 0.97664 0.71993 0.08500
F 	F 	0.39885 0.18535 0.81712 -0.41300
F 	F 	0.25943 0.06836 0.82397 -0.39600
F 	F 	0.25730 0.18646 0.81355 -0.40800
F 	F 	0.25348 0.95484 0.68072 -0.41500
F 	F 	0.26693 0.07055 0.66022 -0.43600
C 	C 	0.24786 0.48445 0.01436 0.00900
C 	C 	0.18682 0.40336 0.02418 -0.01500
C 	C 	0.09016 0.36051 0.01390 0.00400
C 	C 	0.12402 0.46998 0.97804 -0.00200
C 	C 	0.22017 0.51309 0.98870 -0.01600
C 	C 	0.31058 0.54376 0.03660 0.06200
C 	C 	0.35115 0.59077 0.05745 -0.10100
H 	H 	0.20977 0.37847 0.04284 0.07100
H 	H 	0.26888 0.57380 0.97971 0.06600
C 	C 	0.36552 0.78087 0.04847 -0.09500
C 	C 	0.12470 0.07383 0.90617 0.11300
C 	C 	0.09948 0.99996 0.89029 0.00000
C 	C 	0.13632 0.94876 0.90151 -0.05200
C 	C 	0.21909 0.98386 0.92079 0.02900
C 	C 	0.25788 0.06551 0.93119 0.07100
C 	C 	0.19944 0.10370 0.92841 -0.11100
C 	C 	0.21834 0.17786 0.94778 0.79100
H 	H 	0.08910 0.10946 0.90059 0.09700
H 	H 	0.25828 0.95053 0.92526 0.11300
C 	C 	0.08411 0.85673 0.89525 0.76000
F 	F 	0.13082 0.16930 0.95793 -0.42600
F 	F 	0.27535 0.18597 0.97317 -0.43600
F 	F 	0.11368 0.84011 0.86765 -0.41100
F 	F 	0.10409 0.81561 0.91808 -0.41800
C 	C 	0.25777 0.03320 0.58389 0.12100
H 	H 	0.09985 0.49660 0.96031 0.07100
F 	F 	0.26413 0.24847 0.93040 -0.42600
Ni	Ni	0.52289 0.78707 0.38163 1.13900
Ni	Ni	0.50287 0.80236 0.45536 1.12900
O 	O 	0.40297 0.83466 0.47091 -0.35300
O 	O 	0.61203 0.77824 0.44790 -0.32500
O 	O 	0.46553 0.71332 0.08386 -0.37300
O 	O 	0.42149 0.84444 0.09652 -0.33100
F 	F 	0.41373 0.92440 0.16857 -0.41700
F 	F 	0.35624 0.01191 0.16330 -0.36800
F 	F 	0.57237 0.60903 0.35404 -0.40500
F 	F 	0.49842 0.92611 0.30574 -0.40200
C 	C 	0.32865 0.08661 0.59670 -0.03600
H 	H 	0.17036 0.04607 0.53221 0.10300
C 	C 	0.37659 0.17217 0.75462 0.05800
C 	C 	0.37892 0.15014 0.72400 0.04600
H 	H 	0.43571 0.22939 0.76372 0.11400
C 	C 	0.30661 0.04031 0.68140 0.81300
C 	C 	0.39360 0.77455 0.02349 0.07200
H 	H 	0.32559 0.76350 0.96522 0.07600
C 	C 	0.42127 0.41768 0.05216 -0.02600
C 	C 	0.44862 0.46020 0.08035 -0.01400
H 	H 	0.36864 0.35234 0.05163 0.08500
H 	H 	0.41344 0.42842 0.10115 0.08000
C 	C 	0.36447 0.11734 0.93102 0.28800
C 	C 	0.40224 0.78218 0.96740 -0.00300
O 	O 	0.41425 0.14430 0.95749 -0.30500
C 	C 	0.41608 0.14866 0.61103 0.35400
O 	O 	0.43431 0.22561 0.61129 -0.34100
O 	O 	0.42378 0.22734 0.67700 -0.30100
O 	O 	0.59842 0.73416 0.39826 -0.29700
Ni	Ni	0.50835 0.80650 0.11596 1.12600
O 	O 	0.52790 0.85298 0.19196 -0.29100
O 	O 	0.56237 0.71674 0.17430 -0.30600
F 	F 	0.40108 0.06271 0.67369 -0.40800
C 	C 	0.44040 0.77375 0.99534 -0.00500
H 	H 	0.43754 0.83996 0.92336 0.11700
C 	C 	0.46472 0.45887 0.02491 0.02200
C 	C 	0.52130 0.54345 0.08147 0.01300
C 	C 	0.56287 0.58469 0.05418 -0.01300
C 	C 	0.53336 0.54312 0.02608 -0.02800
C 	C 	0.46081 0.41171 0.99804 0.07900
C 	C 	0.54167 0.59154 0.10938 0.08600
C 	C 	0.56236 0.64363 0.12907 -0.06800
H 	H 	0.61659 0.64979 0.05468 0.07000
H 	H 	0.56763 0.57557 0.00527 0.08600
C 	C 	0.60792 0.72405 0.42766 0.32100
C 	C 	0.59044 0.71881 0.14594 0.33300
O 	O 	0.40638 0.14162 0.90421 -0.29600
C 	C 	0.45339 0.21177 0.70301 0.30700
O 	O 	0.48195 0.12934 0.62029 -0.31100
O 	O 	0.62718 0.90258 0.39238 -0.32900
O 	O 	0.57087 0.90746 0.14350 -0.29200
F 	F 	0.54025 0.00140 0.22194 -0.35500
C 	C 	0.46597 0.82544 0.94364 -0.02800
C 	C 	0.47159 0.37394 0.97725 -0.01900
O 	O 	0.45823 0.29625 0.93132 -0.29600
O 	O 	0.61349 0.78431 0.13002 -0.37400
C 	C 	0.50419 0.33092 0.95735 0.33300
O 	O 	0.59530 0.91856 0.44249 -0.32900
C 	C 	0.59420 0.90297 0.17242 0.30300
F 	F 	0.60265 0.06513 0.17726 -0.35900
C 	C 	0.64749 0.67249 0.43645 0.01300
F 	F 	0.47753 0.96069 0.68739 -0.38800
C 	C 	0.53792 0.79148 0.99658 -0.00500
F 	F 	0.39000 0.02021 0.85503 -0.37000
F 	F 	0.39672 0.90229 0.85509 -0.40100
H 	H 	0.60994 0.46687 0.43973 0.11200
Ni	Ni	0.56350 0.20823 0.96420 1.13200
O 	O 	0.57719 0.10681 0.96089 -0.33100
Ni	Ni	0.51801 0.31025 0.64527 1.12500
O 	O 	0.54366 0.26075 0.71287 -0.32300
C 	C 	0.65785 0.93248 0.42022 0.26400
C 	C 	0.62495 0.05484 0.20702 0.77700
F 	F 	0.49108 0.03304 0.73064 -0.39600
F 	F 	0.48186 0.90854 0.73296 -0.40100
C 	C 	0.56685 0.86680 0.94939 0.06000
H 	H 	0.56699 0.77926 0.01724 0.05800
C 	C 	0.44899 0.98615 0.86142 0.73500
F 	F 	0.47402 0.99776 0.89213 -0.47000
Ni	Ni	0.51619 0.25496 0.89814 1.14200
O 	O 	0.57340 0.31835 0.96760 -0.36900
H 	H 	0.56629 0.16614 0.91448 0.19100
F 	F 	0.66651 0.13109 0.22163 -0.37300
C 	C 	0.51844 0.98092 0.71644 0.75100
F 	F 	0.51798 0.54738 0.76016 -0.40100
C 	C 	0.60149 0.83766 0.97321 -0.02800
C 	C 	0.68021 0.63069 0.44624 0.09800
H 	H 	0.61586 0.38050 0.48142 0.07600
O 	O 	0.59432 0.22379 0.92155 -0.72200
O 	O 	0.57965 0.40311 0.67918 -0.33800
O 	O 	0.60233 0.15519 0.68914 -0.31800
C 	C 	0.68930 0.96446 0.18457 -0.01300
C 	C 	0.69436 0.02037 0.20738 -0.02100
H 	H 	0.56945 0.50053 0.71810 0.10400
C 	C 	0.61819 0.95400 0.94364 0.03200
O 	O 	0.60541 0.27532 0.58564 -0.35500
C 	C 	0.66159 0.49554 0.45843 -0.01900
C 	C 	0.64955 0.10529 0.94603 0.29500
O 	O 	0.55958 0.21879 0.85860 -0.25600
Ni	Ni	0.62651 0.21061 0.61973 1.13100
O 	O 	0.59827 0.38410 0.60910 -0.33500
O 	O 	0.61669 0.28173 0.64969 -0.71300
H 	H 	0.73186 0.09949 0.41030 0.11100
C 	C 	0.64448 0.02667 0.94275 0.01300
C 	C 	0.05704 0.39713 0.99252 -0.01800
C 	C 	0.63157 0.35497 0.58714 0.31000
C 	C 	0.63968 0.11807 0.67344 0.33400
O 	O 	0.65306 0.13017 0.64382 -0.33300
C 	C 	0.66466 0.44665 0.48211 -0.00800
C 	C 	0.54010 0.02628 0.84242 -0.02900
C 	C 	0.60240 0.17131 0.85797 0.29100
O 	O 	0.61808 0.37469 0.89607 -0.34900
Ni	Ni	0.66345 0.27720 0.68899 1.13600
C 	C 	0.75764 0.00061 0.42304 0.07500
F 	F 	0.77764 0.92410 0.47404 -0.44300
F 	F 	0.60626 0.68434 0.75545 -0.43500
H 	H 	0.67915 0.86203 0.97634 0.09100
H 	H 	0.56952 0.92403 0.84677 0.11700
C 	C 	0.62861 0.02263 0.71495 -0.05800
C 	C 	0.71578 0.58174 0.46094 0.04400
O 	O 	0.70002 0.25979 0.98374 -0.34400
H 	H 	0.67204 0.33505 0.64375 0.16400
C 	C 	0.75875 0.03792 0.23210 0.05400
H 	H 	0.75387 0.07130 0.25184 0.14400
C 	C 	0.66920 0.40276 0.56009 -0.06300
C 	C 	0.61103 0.61425 0.76305 0.78200
C 	C 	0.57974 0.10949 0.83342 0.03200
H 	H 	0.76695 0.91027 0.16271 0.09100
C 	C 	0.77775 0.07180 0.40687 0.04600
C 	C 	0.67167 0.44115 0.68930 0.30200
C 	C 	0.76704 0.94844 0.18158 0.08500
C 	C 	0.64725 0.54070 0.72075 0.06300
C 	C 	0.59521 0.98539 0.83771 -0.01700
O 	O 	0.68413 0.19326 0.87315 -0.30900
F 	F 	0.05911 0.36252 0.32005 -0.39500
C 	C 	0.67979 0.07247 0.69001 -0.00000
C 	C 	0.69635 0.44045 0.53662 0.07000
H 	H 	0.64278 0.98168 0.75954 0.07100
F 	F 	0.63854 0.61860 0.79324 -0.44100
O 	O 	0.72920 0.17475 0.93769 -0.31900
O 	O 	0.71996 0.40040 0.69397 -0.29600
C 	C 	0.72201 0.48411 0.50822 0.01100
C 	C 	0.69842 0.40315 0.88066 0.31800
Ni	Ni	0.72595 0.26842 0.91087 1.12800
C 	C 	0.68082 0.01296 0.73899 0.06700
C 	C 	0.71067 0.52371 0.70388 0.02200
C 	C 	0.68298 0.60498 0.74258 -0.08500
F 	F 	0.68695 0.37548 0.81615 -0.41500
F 	F 	0.63600 0.67483 0.88216 -0.40600
C 	C 	0.64786 0.13470 0.81005 0.07900
C 	C 	0.77516 0.32607 0.97305 0.34800
C 	C 	0.83187 0.97930 0.42423 -0.12600
O 	O 	0.74780 0.36278 0.88012 -0.28300
O 	O 	0.76806 0.35187 0.94629 -0.36300
O 	O 	0.77069 0.28414 0.61857 -0.35300
H 	H 	0.66381 0.19030 0.79772 0.11800
C 	C 	0.84235 0.93354 0.45107 0.79500
C 	C 	0.68708 0.02695 0.82340 0.09100
F 	F 	0.78640 0.19076 0.36819 -0.39300
C 	C 	0.78550 0.61779 0.48445 -0.02200
O 	O 	0.79369 0.29500 0.67156 -0.31900
O 	O 	0.71038 0.90549 0.82275 -0.30500
C 	C 	0.82677 0.00956 0.23192 0.07500
C 	C 	0.83881 0.97353 0.20467 -0.10600
C 	C 	0.77834 0.09529 0.68623 0.06800
H 	H 	0.72050 0.53341 0.91318 0.09700
F 	F 	0.68197 0.63883 0.92541 -0.42900
C 	C 	0.78801 0.56901 0.50827 -0.01100
C 	C 	0.74309 0.48972 0.86990 0.01700
C 	C 	0.71676 0.10691 0.81067 -0.12600
C 	C 	0.73768 0.54819 0.88927 0.06900
C 	C 	0.71269 0.67216 0.89667 0.78400
C 	C 	0.83974 0.09358 0.38138 -0.06700
O 	O 	0.74047 0.74945 0.82754 -0.24800
F 	F 	0.82569 0.85654 0.44156 -0.42700
H 	H 	0.81759 0.13353 0.66703 0.09500
Ni	Ni	0.03083 0.16364 0.29452 1.14800
O 	O 	0.76113 0.91287 0.75953 -0.30300
C 	C 	0.77850 0.03327 0.73537 0.06800
C 	C 	0.74463 0.62129 0.87747 -0.07300
C 	C 	0.82525 0.32085 0.64313 0.29100
Ni	Ni	0.76234 0.84240 0.79561 1.13500
C 	C 	0.76852 0.50978 0.83883 -0.07100
C 	C 	0.77486 0.44843 0.81710 0.78100
C 	C 	0.75089 0.98724 0.82212 0.20800
C 	C 	0.78566 0.65797 0.74575 0.01900
O 	O 	0.79154 0.78401 0.76054 -0.29800
H 	H 	0.83046 0.68437 0.48596 0.09700
C 	C 	0.81218 0.57992 0.70520 -0.07400
C 	C 	0.77423 0.64298 0.84691 0.05900
F 	F 	0.82775 0.13263 0.33042 -0.41300
C 	C 	0.78891 0.58827 0.82818 0.06600
C 	C 	0.82748 0.07264 0.70803 -0.08200
C 	C 	0.89443 0.99871 0.39918 0.06300
C 	C 	0.84930 0.16173 0.36024 0.78000
C 	C 	0.87071 0.34672 0.98335 -0.09300
H 	H 	0.83517 0.59817 0.52792 0.07100
F 	F 	0.83744 0.54179 0.65499 -0.44600
C 	C 	0.81600 0.99287 0.75628 0.25200
F 	F 	0.79614 0.47837 0.78757 -0.41100
F 	F 	0.78884 0.75176 0.90046 -0.39500
C 	C 	0.80678 0.72781 0.83596 0.28000
C 	C 	0.89193 0.04996 0.37611 0.02600
H 	H 	0.81630 0.60696 0.80531 0.09600
C 	C 	0.82638 0.73464 0.76480 0.29600
C 	C 	0.88495 0.01971 0.25994 0.30100
F 	F 	0.84750 0.43237 0.82695 -0.38600
F 	F 	0.90957 0.88860 0.21433 -0.39600
H 	H 	0.03981 0.30205 0.02414 0.07800
F 	F 	0.93602 0.97737 0.46286 -0.41500
C 	C 	0.00594 0.42645 0.62819 0.03100
O 	O 	0.89807 0.07804 0.27969 -0.29200
C 	C 	0.92582 0.96048 0.20010 0.79700
C 	C 	0.84894 0.64356 0.72741 0.07100
F 	F 	0.94088 0.95366 0.16928 -0.39600
C 	C 	0.82387 0.17116 0.80784 0.79300
O 	O 	0.90573 0.96149 0.26792 -0.28000
F 	F 	0.83545 0.24586 0.79758 -0.39000
H 	H 	0.94371 0.97371 0.39753 0.12700
O 	O 	0.84411 0.03294 0.82901 -0.25400
C 	C 	0.88192 0.57294 0.68309 0.77900
F 	F 	0.87031 0.14603 0.78742 -0.44300
F 	F 	0.03224 0.27163 0.15581 -0.41800
F 	F 	0.86906 0.18516 0.83620 -0.41300
O 	O 	0.92900 0.98968 0.33242 -0.33100
H 	H 	0.87722 0.90113 0.83105 0.16500
O 	O 	0.89233 0.90732 0.80901 -0.71200
F 	F 	0.91382 0.52162 0.69519 -0.40400
O 	O 	0.89919 0.78382 0.84037 -0.27600
C 	C 	0.94244 0.05703 0.34702 0.36600
C 	C 	0.92609 0.37920 0.63790 0.02900
O 	O 	0.90813 0.03206 0.76567 -0.23000
O 	O 	0.91274 0.76296 0.77789 -0.32700
Ni	Ni	0.01347 0.98430 0.29832 1.12600
C 	C 	0.93186 0.09265 0.70232 0.78700
H 	H 	0.92690 0.68407 0.72958 0.11400
F 	F 	0.94328 0.22733 0.36193 -0.38200
F 	F 	0.93986 0.02188 0.70447 -0.40400
C 	C 	0.95468 0.36740 0.98852 0.12500
O 	O 	0.00756 0.12993 0.33812 -0.33000
F 	F 	0.00978 0.02648 0.21185 -0.42800
Ni	Ni	0.95640 0.02598 0.80870 1.15400
F 	F 	0.96246 0.12482 0.67344 -0.41000
F 	F 	0.96212 0.64970 0.67814 -0.40900
F 	F 	0.97260 0.23592 0.20321 -0.36800
Ni	Ni	0.98000 0.86278 0.80744 1.14500
F 	F 	0.98476 0.82658 0.89464 -0.38800
F 	F 	0.99326 0.15053 0.72358 -0.38600
F 	F 	0.99337 0.77443 0.26323 -0.36200
