data_crystal

_cell_length_a 26.11097
_cell_length_b 26.45739
_cell_length_c 26.71095
_cell_angle_alpha 95.47970
_cell_angle_beta  95.47905
_cell_angle_gamma 125.83925

_symmetry_space_group_name_	'P 1'
_symmetry_space_group_name_H-M	'P 1'

loop_
_symmetry_equiv_pos_as_xyz
  x,y,z

loop_
_atom_site_label
_atom_site_type_symbol
_atom_site_fract_x
_atom_site_fract_y
_atom_site_fract_z
_atom_site_charge
C 	C 	0.96668 0.03553 0.98890 0.28900
C 	C 	0.03204 0.07056 0.98562 -0.16300
C 	C 	0.05969 0.03922 0.97612 0.28400
C 	C 	0.02199 0.97295 0.96990 -0.17700
C 	C 	0.95683 0.93792 0.97336 0.28300
C 	C 	0.92914 0.96919 0.98262 -0.16500
H 	H 	0.06125 0.12187 0.99067 0.17000
H 	H 	0.04353 0.94878 0.96309 0.16600
H 	H 	0.87864 0.94205 0.98515 0.17000
C 	C 	0.93129 0.99140 0.44926 0.21200
C 	C 	0.99868 0.02877 0.45894 -0.08200
C 	C 	0.02976 0.00007 0.46225 0.22500
C 	C 	0.99347 0.93395 0.45617 -0.10900
C 	C 	0.92613 0.89629 0.44647 0.23700
C 	C 	0.89494 0.92503 0.44315 -0.11200
H 	H 	0.02681 0.08000 0.46361 0.14400
H 	H 	0.01758 0.91177 0.45857 0.14600
H 	H 	0.84283 0.89599 0.43558 0.15800
Cu	Cu	0.64096 0.25171 0.01013 0.94400
Cu	Cu	0.70079 0.24776 0.90904 0.91600
Cu	Cu	0.68189 0.34608 0.93767 0.91700
Cu	Cu	0.64786 0.37414 0.03445 0.93500
C 	C 	0.65284 0.30405 0.11373 0.38900
O 	O 	0.54784 0.21966 0.00370 -0.30100
C 	C 	0.67975 0.30263 0.83075 0.39400
O 	O 	0.69733 0.34991 0.01027 -0.63600
O 	O 	0.63774 0.25352 0.93613 -0.62600
O 	O 	0.67656 0.20272 0.01505 -0.29200
O 	O 	0.75448 0.26562 0.97127 -0.36800
O 	O 	0.62765 0.33092 0.09488 -0.31000
O 	O 	0.73031 0.43700 0.94301 -0.31900
C 	C 	0.72218 0.47432 0.97191 0.41400
C 	C 	0.52697 0.24783 0.98046 0.39100
O 	O 	0.56847 0.30571 0.97264 -0.33500
O 	O 	0.69410 0.45785 0.01222 -0.31100
O 	O 	0.65866 0.26589 0.08342 -0.29700
C 	C 	0.73248 0.22485 0.00226 0.39300
O 	O 	0.67573 0.34103 0.86288 -0.31200
O 	O 	0.66938 0.25067 0.84285 -0.34400
H 	H 	0.74326 0.37694 0.02692 0.22200
H 	H 	0.59426 0.22594 0.91443 0.22600
Cu	Cu	0.71453 0.31777 0.42927 0.94300
Cu	Cu	0.77407 0.32189 0.54779 0.92400
Cu	Cu	0.63448 0.28931 0.51309 0.92400
Cu	Cu	0.59012 0.31469 0.41253 0.93600
C 	C 	0.65182 0.30085 0.32814 0.39600
O 	O 	0.75469 0.40872 0.42102 -0.30300
C 	C 	0.70139 0.32371 0.62031 0.39000
O 	O 	0.61985 0.27217 0.44024 -0.63500
O 	O 	0.72715 0.34166 0.50481 -0.62500
O 	O 	0.74613 0.26454 0.42401 -0.29500
O 	O 	0.81950 0.31694 0.49871 -0.33900
O 	O 	0.60149 0.29558 0.34172 -0.30800
O 	O 	0.54359 0.24002 0.51423 -0.30500
C 	C 	0.50479 0.24751 0.48617 0.39700
C 	C 	0.72840 0.43662 0.43406 0.39800
O 	O 	0.67558 0.40590 0.45301 -0.33000
O 	O 	0.52774 0.29394 0.45975 -0.31300
O 	O 	0.68465 0.28711 0.35699 -0.30200
C 	C 	0.78980 0.27078 0.45867 0.39000
O 	O 	0.64718 0.28629 0.58645 -0.32200
O 	O 	0.75751 0.35504 0.60588 -0.33400
H 	H 	0.59147 0.22604 0.42611 0.22100
H 	H 	0.74665 0.38720 0.51521 0.21100
C 	C 	0.64805 0.32184 0.74745 0.29800
C 	C 	0.68876 0.31405 0.77834 -0.17700
C 	C 	0.73595 0.31325 0.75799 0.29100
C 	C 	0.74115 0.31806 0.70681 0.29200
C 	C 	0.69929 0.32402 0.67536 -0.17600
C 	C 	0.65327 0.32678 0.69612 0.29500
F 	F 	0.61351 0.33402 0.66653 -0.34100
F 	F 	0.60220 0.32267 0.76667 -0.33800
F 	F 	0.78533 0.31453 0.68724 -0.36100
F 	F 	0.77640 0.30703 0.78780 -0.35900
C 	C 	0.63558 0.24779 0.18771 0.29500
C 	C 	0.65975 0.30452 0.16932 -0.16900
C 	C 	0.68554 0.36084 0.20411 0.29200
C 	C 	0.68447 0.35989 0.25631 0.29500
C 	C 	0.65851 0.30291 0.27429 -0.17400
C 	C 	0.63527 0.24716 0.24002 0.30000
F 	F 	0.61020 0.19184 0.25716 -0.33200
F 	F 	0.60977 0.19277 0.15469 -0.33100
F 	F 	0.70799 0.41423 0.28937 -0.34600
F 	F 	0.71096 0.41635 0.18720 -0.34900
C 	C 	0.84836 0.61491 0.45341 0.24300
C 	C 	0.81052 0.63070 0.42940 0.01300
C 	C 	0.74755 0.58235 0.40358 0.24400
C 	C 	0.72179 0.51873 0.40317 0.33300
C 	C 	0.75872 0.50289 0.42878 -0.19200
C 	C 	0.82255 0.55118 0.45308 0.32900
C 	C 	0.83622 0.69784 0.43246 -0.00200
F 	F 	0.71094 0.59713 0.37967 -0.30800
F 	F 	0.85872 0.53649 0.47794 -0.35000
C 	C 	0.85950 0.72807 0.39090 0.25700
C 	C 	0.88547 0.79220 0.39435 0.29800
C 	C 	0.88862 0.82666 0.43948 -0.15100
C 	C 	0.86332 0.79583 0.48038 0.30000
C 	C 	0.83717 0.73163 0.47686 0.25500
F 	F 	0.85794 0.69554 0.34754 -0.30700
F 	F 	0.86605 0.82866 0.52413 -0.32700
F 	F 	0.90928 0.82144 0.35442 -0.32900
F 	F 	0.81355 0.70241 0.51684 -0.31300
F 	F 	0.90971 0.66139 0.47779 -0.31200
F 	F 	0.66061 0.47234 0.37834 -0.35400
C 	C 	0.87659 0.08496 0.40087 0.26000
C 	C 	0.85636 0.09790 0.44392 -0.00300
C 	C 	0.85510 0.07071 0.48688 0.25800
C 	C 	0.87637 0.03292 0.48758 0.29500
C 	C 	0.89910 0.02211 0.44533 -0.13300
C 	C 	0.89787 0.04719 0.40156 0.29600
C 	C 	0.83953 0.14239 0.44502 0.01100
F 	F 	0.83488 0.08235 0.52846 -0.31500
F 	F 	0.91903 0.03639 0.36029 -0.31800
C 	C 	0.77495 0.11917 0.43315 0.24400
C 	C 	0.75881 0.16123 0.43630 0.32000
C 	C 	0.80725 0.22697 0.45138 -0.19700
C 	C 	0.87205 0.25021 0.46210 0.32600
C 	C 	0.88805 0.20806 0.45901 0.24200
F 	F 	0.72777 0.05577 0.41923 -0.30900
F 	F 	0.91951 0.31364 0.47521 -0.33400
F 	F 	0.69599 0.13797 0.42632 -0.35400
F 	F 	0.95071 0.23095 0.47005 -0.31100
F 	F 	0.87696 0.11018 0.35884 -0.30500
F 	F 	0.87708 0.00866 0.52997 -0.32300
C 	C 	0.20276 0.08282 0.52453 0.25800
C 	C 	0.23448 0.10792 0.48390 -0.00200
C 	C 	0.19907 0.09908 0.43665 0.25600
C 	C 	0.13227 0.06480 0.42987 0.29900
C 	C 	0.10041 0.03912 0.47031 -0.14700
C 	C 	0.13591 0.04851 0.51776 0.29800
C 	C 	0.30475 0.14343 0.49069 0.01200
F 	F 	0.22947 0.12334 0.39721 -0.31400
F 	F 	0.10550 0.02415 0.55717 -0.32900
C 	C 	0.33148 0.11109 0.48159 0.24300
C 	C 	0.39755 0.14517 0.48241 0.32400
C 	C 	0.43723 0.21183 0.49212 -0.19000
C 	C 	0.41084 0.24407 0.50367 0.33000
C 	C 	0.34483 0.20996 0.50287 0.24400
F 	F 	0.29308 0.04667 0.47044 -0.31200
F 	F 	0.44916 0.30847 0.51528 -0.33200
F 	F 	0.42260 0.11350 0.47168 -0.34800
F 	F 	0.31949 0.24151 0.51282 -0.30900
F 	F 	0.23675 0.09155 0.57044 -0.30800
F 	F 	0.09829 0.05562 0.38378 -0.32500
C 	C 	0.84965 0.64255 0.95793 0.24300
C 	C 	0.81554 0.66830 0.95903 0.01000
C 	C 	0.74961 0.62903 0.96039 0.24600
C 	C 	0.71851 0.56494 0.96265 0.33000
C 	C 	0.75312 0.53962 0.96350 -0.19200
C 	C 	0.81859 0.57843 0.96013 0.32900
C 	C 	0.84974 0.73708 0.96233 0.00500
F 	F 	0.71605 0.65336 0.96056 -0.30700
F 	F 	0.85270 0.55467 0.96118 -0.34400
C 	C 	0.86376 0.76358 0.91797 0.25300
C 	C 	0.89793 0.82917 0.92144 0.30600
C 	C 	0.91821 0.86862 0.96930 -0.16600
C 	C 	0.90348 0.84199 0.01355 0.30400
C 	C 	0.86940 0.77646 0.01009 0.24800
F 	F 	0.84452 0.72575 0.87161 -0.30900
F 	F 	0.92315 0.87982 0.06000 -0.32700
F 	F 	0.91160 0.85452 0.87841 -0.33100
F 	F 	0.85606 0.75117 0.05316 -0.31000
F 	F 	0.91337 0.68019 0.95630 -0.31100
F 	F 	0.65485 0.52749 0.96451 -0.33300
C 	C 	0.86754 0.21231 0.03458 0.24100
C 	C 	0.83501 0.14666 0.02030 0.01300
C 	C 	0.76756 0.10611 0.00774 0.23800
C 	C 	0.73317 0.13142 0.00587 0.32000
C 	C 	0.76612 0.19754 0.01638 -0.19600
C 	C 	0.83324 0.23767 0.03273 0.32600
C 	C 	0.87165 0.12110 0.01336 -0.00700
F 	F 	0.73560 0.04238 0.99504 -0.30700
F 	F 	0.86540 0.30147 0.04503 -0.34400
C 	C 	0.88533 0.09699 0.05283 0.26000
C 	C 	0.91804 0.07063 0.04538 0.30100
C 	C 	0.93717 0.06813 0.99834 -0.16000
C 	C 	0.92454 0.09338 0.95924 0.30300
C 	C 	0.89193 0.11978 0.96673 0.25800
F 	F 	0.86640 0.09862 0.09819 -0.30300
F 	F 	0.94261 0.09097 0.91359 -0.32900
F 	F 	0.93064 0.04694 0.08361 -0.32100
F 	F 	0.87914 0.14329 0.92844 -0.31900
F 	F 	0.93265 0.25171 0.04828 -0.31000
F 	F 	0.66824 0.09195 0.99072 -0.33800
C 	C 	0.23789 0.12377 0.01693 0.24700
C 	C 	0.25856 0.13424 0.96983 0.00600
C 	C 	0.21430 0.11643 0.92519 0.25300
C 	C 	0.14955 0.08723 0.92750 0.30800
C 	C 	0.12871 0.07580 0.97447 -0.16500
C 	C 	0.17322 0.09472 0.01924 0.30200
C 	C 	0.32662 0.16403 0.96743 0.01000
F 	F 	0.23403 0.12704 0.87959 -0.30600
F 	F 	0.15345 0.08379 0.06481 -0.33200
C 	C 	0.34611 0.12624 0.95277 0.24400
C 	C 	0.41146 0.15392 0.95510 0.32700
C 	C 	0.45787 0.21963 0.97238 -0.19300
C 	C 	0.43797 0.25764 0.98547 0.32900
C 	C 	0.37264 0.22990 0.98279 0.24400
F 	F 	0.30177 0.06251 0.93729 -0.30900
F 	F 	0.48210 0.32105 0.00290 -0.35700
F 	F 	0.42975 0.11689 0.94086 -0.34400
F 	F 	0.35408 0.26685 0.99645 -0.30800
F 	F 	0.28043 0.14110 0.06032 -0.31500
F 	F 	0.10680 0.06908 0.88402 -0.32600
