data_crystal

_cell_length_a 26.22200
_cell_length_b 26.44327
_cell_length_c 34.71892
_cell_angle_alpha 95.53404
_cell_angle_beta  95.53756
_cell_angle_gamma 125.67928

_symmetry_space_group_name_	'P 1'
_symmetry_space_group_name_H-M	'P 1'

loop_
_symmetry_equiv_pos_as_xyz
  x,y,z

loop_
_atom_site_label
_atom_site_type_symbol
_atom_site_fract_x
_atom_site_fract_y
_atom_site_fract_z
_atom_site_charge
C 	C 	0.94697 0.01019 0.99463 0.08400
C 	C 	0.01229 0.04675 0.99288 -0.07600
C 	C 	0.04227 0.01737 0.98776 0.08400
C 	C 	0.00721 0.95165 0.98490 -0.08300
C 	C 	0.94236 0.91522 0.98735 0.08300
C 	C 	0.91222 0.94446 0.99213 -0.08200
H 	H 	0.03946 0.09767 0.99518 0.09100
H 	H 	0.03050 0.92898 0.98111 0.08300
H 	H 	0.86184 0.91614 0.99368 0.08600
C 	C 	0.95841 0.02122 0.46332 0.08200
C 	C 	0.92854 0.95870 0.46923 -0.07700
C 	C 	0.96083 0.93110 0.46701 0.08000
C 	C 	0.02345 0.96677 0.45976 -0.08100
C 	C 	0.05414 0.02987 0.45540 0.08200
C 	C 	0.02100 0.05642 0.45600 -0.07700
H 	H 	0.88075 0.93192 0.47582 0.09000
H 	H 	0.04888 0.94599 0.45861 0.08200
H 	H 	0.04459 0.10508 0.45216 0.08600
Cu	Cu	0.61546 0.21966 0.00211 0.93800
Cu	Cu	0.66399 0.21905 0.91873 0.89800
Cu	Cu	0.65615 0.32140 0.95203 0.90700
Cu	Cu	0.63013 0.34429 0.03082 0.91100
C 	C 	0.63765 0.26677 0.08459 0.39900
O 	O 	0.52503 0.19182 0.00238 -0.31900
C 	C 	0.64115 0.28301 0.86616 0.39300
O 	O 	0.67473 0.31880 0.00635 -0.63600
O 	O 	0.60785 0.22755 0.94618 -0.63500
O 	O 	0.64705 0.16707 0.99827 -0.32500
O 	O 	0.72084 0.23033 0.96262 -0.40700
O 	O 	0.61287 0.29623 0.07482 -0.34500
O 	O 	0.70852 0.41295 0.96040 -0.34500
C 	C 	0.70611 0.45038 0.98706 0.31600
C 	C 	0.50536 0.22308 0.98774 0.30200
O 	O 	0.54750 0.28204 0.98407 -0.37600
O 	O 	0.67631 0.43019 0.01700 -0.35900
O 	O 	0.63733 0.22761 0.05777 -0.32500
C 	C 	0.70034 0.18798 0.98540 0.31200
O 	O 	0.64594 0.32282 0.89518 -0.33700
O 	O 	0.62906 0.22864 0.87165 -0.36700
H 	H 	0.72078 0.34330 0.01777 0.20000
H 	H 	0.56371 0.20339 0.93103 0.20600
Cu	Cu	0.75493 0.35615 0.45840 0.93700
Cu	Cu	0.73669 0.29955 0.53988 0.89200
Cu	Cu	0.64614 0.32057 0.50266 0.90700
Cu	Cu	0.64163 0.36046 0.42493 0.91100
C 	C 	0.71685 0.34093 0.37508 0.40300
O 	O 	0.79700 0.45019 0.46104 -0.32000
C 	C 	0.67764 0.33429 0.58955 0.39800
O 	O 	0.65508 0.30741 0.44917 -0.63600
O 	O 	0.73997 0.36167 0.51295 -0.63500
O 	O 	0.79654 0.31274 0.46382 -0.33200
O 	O 	0.72095 0.24164 0.49539 -0.40800
O 	O 	0.69276 0.37195 0.38313 -0.34800
O 	O 	0.55456 0.27541 0.48916 -0.33800
C 	C 	0.52428 0.28056 0.45890 0.31200
C 	C 	0.76851 0.47559 0.47168 0.30000
O 	O 	0.70747 0.43862 0.47327 -0.37500
O 	O 	0.55540 0.32498 0.43776 -0.36000
O 	O 	0.75258 0.33809 0.40304 -0.32300
C 	C 	0.76633 0.25767 0.47518 0.31100
O 	O 	0.63510 0.31981 0.55828 -0.34400
O 	O 	0.72930 0.33809 0.58604 -0.37400
H 	H 	0.62771 0.26243 0.43570 0.20300
H 	H 	0.76587 0.40495 0.52905 0.19900
C 	C 	0.68107 0.29916 0.76436 0.22900
C 	C 	0.64776 0.32146 0.74891 -0.00200
C 	C 	0.61260 0.33181 0.77215 0.23300
C 	C 	0.61047 0.31955 0.81057 0.31600
C 	C 	0.64369 0.29696 0.82598 -0.20800
C 	C 	0.67922 0.28716 0.80271 0.31100
C 	C 	0.64880 0.33251 0.70804 -0.00000
F 	F 	0.58021 0.35334 0.75742 -0.33900
F 	F 	0.71267 0.26672 0.81750 -0.39100
C 	C 	0.59859 0.28547 0.67750 0.22900
C 	C 	0.60580 0.28873 0.63819 0.31200
C 	C 	0.66348 0.33896 0.62921 -0.21000
C 	C 	0.71138 0.38878 0.65963 0.31400
C 	C 	0.70400 0.38561 0.69890 0.23100
F 	F 	0.54434 0.23469 0.68602 -0.34200
F 	F 	0.76614 0.43904 0.65121 -0.37700
F 	F 	0.55851 0.24089 0.60903 -0.37700
F 	F 	0.75186 0.43251 0.72822 -0.34300
F 	F 	0.71501 0.28882 0.74203 -0.34900
F 	F 	0.57505 0.32824 0.83244 -0.37200
C 	C 	0.72541 0.28644 0.18423 0.23400
C 	C 	0.68175 0.27768 0.20827 -0.00100
C 	C 	0.62133 0.25946 0.19104 0.22800
C 	C 	0.60579 0.25301 0.15034 0.31600
C 	C 	0.65076 0.26525 0.12650 -0.20800
C 	C 	0.70993 0.28017 0.14344 0.31200
C 	C 	0.70136 0.29377 0.25159 -0.00100
F 	F 	0.57849 0.25014 0.21398 -0.34500
F 	F 	0.75334 0.29099 0.12061 -0.38000
C 	C 	0.74060 0.35756 0.27068 0.22800
C 	C 	0.74923 0.37309 0.31160 0.31800
C 	C 	0.71855 0.32496 0.33375 -0.20800
C 	C 	0.68290 0.26122 0.31501 0.31300
C 	C 	0.67444 0.24565 0.27404 0.23400
F 	F 	0.76773 0.40446 0.24933 -0.34400
F 	F 	0.65353 0.21434 0.33621 -0.38100
F 	F 	0.78542 0.43492 0.32960 -0.36900
F 	F 	0.63775 0.18383 0.25596 -0.33800
F 	F 	0.78348 0.30284 0.20054 -0.33800
F 	F 	0.54725 0.23557 0.13407 -0.37200
C 	C 	0.84826 0.75168 0.45349 -0.05000
C 	C 	0.87981 0.74067 0.48260 0.01600
C 	C 	0.93603 0.79239 0.50802 0.08500
C 	C 	0.96022 0.85443 0.50387 -0.04300
C 	C 	0.93017 0.86551 0.47370 -0.01300
C 	C 	0.87371 0.81366 0.44838 0.09100
C 	C 	0.85638 0.67488 0.48434 0.03500
N 	N 	0.96996 0.78205 0.53714 -0.02000
H 	H 	0.00333 0.89410 0.52359 0.08800
N 	N 	0.84350 0.82360 0.41655 -0.02300
H 	H 	0.80521 0.71194 0.43378 0.09000
C 	C 	0.80324 0.63573 0.50181 0.06700
C 	C 	0.77795 0.57180 0.49988 -0.00200
C 	C 	0.80351 0.54556 0.47929 -0.08000
C 	C 	0.85812 0.58562 0.46280 0.13300
C 	C 	0.88448 0.64998 0.46587 -0.07100
N 	N 	0.77324 0.66010 0.52023 -0.01700
H 	H 	0.73719 0.54209 0.51354 0.07800
N 	N 	0.88546 0.56085 0.44162 -0.02600
H 	H 	0.92564 0.68018 0.45262 0.09600
O 	O 	0.78426 0.80274 0.41423 -0.07000
O 	O 	0.87349 0.84893 0.38827 -0.07600
O 	O 	0.03004 0.80723 0.53786 -0.06400
O 	O 	0.94197 0.75086 0.56438 -0.05600
O 	O 	0.86487 0.53862 0.40397 -0.02500
O 	O 	0.93500 0.56626 0.45913 -0.05400
O 	O 	0.71252 0.63252 0.50884 -0.06900
O 	O 	0.80568 0.70744 0.54990 -0.05800
C 	C 	0.92139 0.13562 0.49566 -0.05000
C 	C 	0.86883 0.11464 0.46641 0.01600
C 	C 	0.84369 0.06083 0.43711 0.08300
C 	C 	0.87240 0.02969 0.43685 -0.03800
C 	C 	0.92503 0.05079 0.46608 -0.01500
C 	C 	0.94859 0.10314 0.49620 0.09200
C 	C 	0.83927 0.14829 0.46734 0.03700
N 	N 	0.78884 0.03750 0.40773 -0.02000
H 	H 	0.85385 0.98918 0.41381 0.08400
N 	N 	0.99954 0.12280 0.52772 -0.02200
H 	H 	0.94029 0.17643 0.51852 0.09000
C 	C 	0.80793 0.14739 0.49831 0.06200
C 	C 	0.78476 0.18351 0.50061 0.00300
C 	C 	0.79038 0.21904 0.47150 -0.08900
C 	C 	0.81916 0.21754 0.43945 0.13900
C 	C 	0.84473 0.18341 0.43807 -0.07200
N 	N 	0.79942 0.10964 0.52749 -0.01700
H 	H 	0.76224 0.18382 0.52513 0.06100
N 	N 	0.82001 0.24815 0.40746 -0.02600
H 	H 	0.86803 0.18348 0.41391 0.09900
O 	O 	0.99298 0.08342 0.55013 -0.06100
O 	O 	0.05076 0.18120 0.53559 -0.06500
O 	O 	0.79175 0.03103 0.37057 -0.06000
O 	O 	0.73481 0.01859 0.41807 -0.05600
O 	O 	0.87422 0.29226 0.39870 -0.05000
O 	O 	0.76666 0.22787 0.38487 -0.02700
O 	O 	0.81966 0.13573 0.56466 -0.07000
O 	O 	0.76793 0.04862 0.51708 -0.06100
C 	C 	0.34692 0.14840 0.43400 -0.06700
C 	C 	0.32223 0.17954 0.44883 0.03600
C 	C 	0.36400 0.24478 0.46535 0.06700
C 	C 	0.43005 0.27756 0.46806 0.00700
C 	C 	0.45482 0.24593 0.45435 -0.07700
C 	C 	0.41301 0.18120 0.43681 0.13200
C 	C 	0.25346 0.14250 0.45031 0.01800
N 	N 	0.33951 0.27763 0.47991 -0.01700
H 	H 	0.46216 0.32759 0.48110 0.07800
N 	N 	0.43744 0.14874 0.42155 -0.02900
H 	H 	0.31489 0.09830 0.42116 0.09700
C 	C 	0.20753 0.11999 0.41578 0.08200
C 	C 	0.14241 0.08365 0.41778 -0.04000
C 	C 	0.12282 0.06988 0.45392 -0.01700
C 	C 	0.16880 0.09279 0.48843 0.09600
C 	C 	0.23374 0.12852 0.48639 -0.05200
N 	N 	0.22682 0.13361 0.37865 -0.02000
H 	H 	0.10709 0.06611 0.39121 0.08200
N 	N 	0.14958 0.07950 0.52559 -0.02300
H 	H 	0.26898 0.14572 0.51295 0.09700
O 	O 	0.42124 0.12388 0.38427 -0.05500
O 	O 	0.47116 0.13918 0.44541 -0.06900
O 	O 	0.36140 0.30983 0.51577 -0.06100
O 	O 	0.29812 0.27844 0.45664 -0.06300
O 	O 	0.12158 0.10187 0.54088 -0.05800
O 	O 	0.16365 0.04842 0.54526 -0.06400
O 	O 	0.20351 0.08754 0.34889 -0.06500
O 	O 	0.26430 0.19207 0.37386 -0.06000
C 	C 	0.82701 0.73765 0.95169 -0.05100
C 	C 	0.83846 0.71577 0.98425 0.01600
C 	C 	0.88395 0.75954 0.01790 0.08300
C 	C 	0.91790 0.82462 0.01847 -0.03900
C 	C 	0.90645 0.84653 0.98594 -0.01900
C 	C 	0.86087 0.80280 0.95231 0.09400
C 	C 	0.80339 0.64700 0.98279 0.03600
N 	N 	0.89559 0.73797 0.05160 -0.02000
H 	H 	0.95277 0.85823 0.04440 0.08300
N 	N 	0.84916 0.82443 0.91866 -0.02200
H 	H 	0.79224 0.70404 0.92573 0.09500
C 	C 	0.73856 0.60914 0.98629 0.06700
C 	C 	0.70689 0.54458 0.98675 0.00600
C 	C 	0.73948 0.51749 0.98426 -0.07800
C 	C 	0.80423 0.55529 0.98038 0.13500
C 	C 	0.83549 0.61958 0.97908 -0.06800
N 	N 	0.70495 0.63629 0.98982 -0.01800
H 	H 	0.65706 0.51562 0.98959 0.07700
N 	N 	0.83905 0.52917 0.97931 -0.02500
H 	H 	0.88538 0.64868 0.97638 0.09600
O 	O 	0.79152 0.80542 0.90498 -0.06300
O 	O 	0.89522 0.85964 0.90015 -0.06900
O 	O 	0.95313 0.75661 0.06517 -0.06600
O 	O 	0.84963 0.70330 0.07032 -0.06200
O 	O 	0.84804 0.50802 0.00958 -0.07100
O 	O 	0.86646 0.53164 0.94953 -0.06000
O 	O 	0.65356 0.61413 0.96431 -0.06300
O 	O 	0.72298 0.67993 0.02007 -0.06300
C 	C 	0.74428 0.07676 0.99932 -0.07100
C 	C 	0.81122 0.11929 0.00665 0.03800
C 	C 	0.84142 0.18495 0.01119 0.06700
C 	C 	0.80442 0.20706 0.00619 0.00900
C 	C 	0.73749 0.16429 0.99644 -0.08200
C 	C 	0.70724 0.09874 0.99374 0.13200
C 	C 	0.84909 0.09451 0.00483 0.01800
N 	N 	0.90975 0.22919 0.01971 -0.01500
H 	H 	0.82786 0.25755 0.00915 0.08400
N 	N 	0.63917 0.05411 0.98317 -0.02400
H 	H 	0.72097 0.02624 0.99601 0.09600
C 	C 	0.85705 0.06746 0.03575 0.08400
C 	C 	0.88991 0.04081 0.03235 -0.03800
C 	C 	0.91446 0.04044 0.99824 -0.01700
C 	C 	0.90628 0.06736 0.96728 0.09400
C 	C 	0.87438 0.09490 0.97097 -0.05300
N 	N 	0.83113 0.06623 0.07042 -0.02000
H 	H 	0.89624 0.02026 0.05622 0.08300
N 	N 	0.92889 0.06535 0.93165 -0.02400
H 	H 	0.86773 0.11513 0.94701 0.09000
O 	O 	0.60688 0.01856 0.00771 -0.04800
O 	O 	0.61028 0.04462 0.94770 -0.08200
O 	O 	0.93916 0.27108 0.99761 -0.06600
O 	O 	0.94230 0.22980 0.05073 -0.05400
O 	O 	0.90658 0.01107 0.91006 -0.06600
O 	O 	0.96825 0.11760 0.91937 -0.06600
O 	O 	0.79306 0.01277 0.08187 -0.06200
O 	O 	0.84878 0.11891 0.09189 -0.04800
C 	C 	0.22195 0.11605 0.01776 -0.04900
C 	C 	0.23996 0.11697 0.98093 0.01600
C 	C 	0.19320 0.08874 0.94619 0.08300
C 	C 	0.12875 0.05776 0.94874 -0.03900
C 	C 	0.11062 0.05531 0.98560 -0.01700
C 	C 	0.15758 0.08539 0.02027 0.09500
C 	C 	0.30742 0.14506 0.97904 0.03700
N 	N 	0.21099 0.09113 0.90831 -0.02000
H 	H 	0.09269 0.03515 0.92204 0.08800
N 	N 	0.13995 0.08427 0.05810 -0.02200
H 	H 	0.25785 0.13802 0.04451 0.09500
C 	C 	0.35495 0.21092 0.99058 0.06600
C 	C 	0.41935 0.23606 0.99237 0.00300
C 	C 	0.43692 0.19624 0.98205 -0.07600
C 	C 	0.38897 0.13071 0.96843 0.13300
C 	C 	0.32466 0.10540 0.96768 -0.06700
N 	N 	0.33799 0.25238 0.00089 -0.01600
H 	H 	0.45582 0.28655 0.00238 0.07400
N 	N 	0.40521 0.09005 0.95436 -0.02300
H 	H 	0.28803 0.05483 0.95813 0.09600
O 	O 	0.16239 0.13715 0.08152 -0.06200
O 	O 	0.10576 0.03087 0.07036 -0.07500
O 	O 	0.18378 0.03906 0.88268 -0.06300
O 	O 	0.25140 0.14555 0.89856 -0.05500
O 	O 	0.38740 0.04051 0.96979 -0.05800
O 	O 	0.43293 0.09950 0.92396 -0.08000
O 	O 	0.36401 0.29096 0.03478 -0.06400
O 	O 	0.29948 0.25423 0.97552 -0.06000
