data_crystal

_cell_length_a 20.17906
_cell_length_b 20.51912
_cell_length_c 52.98108
_cell_angle_alpha 89.72016
_cell_angle_beta  89.72109
_cell_angle_gamma 119.45290

_symmetry_space_group_name_	'P 1'
_symmetry_space_group_name_H-M	'P 1'

loop_
_symmetry_equiv_pos_as_xyz
  x,y,z

loop_
_atom_site_label
_atom_site_type_symbol
_atom_site_fract_x
_atom_site_fract_y
_atom_site_fract_z
_atom_site_charge
C 	C 	0.18147 0.08902 0.76147 0.30400
C 	C 	0.09626 0.09239 0.69481 0.32500
Ni	Ni	0.05366 0.96899 0.73250 1.09700
Ni	Ni	0.06216 0.12756 0.74601 1.11900
O 	O 	0.14909 0.01758 0.75515 -0.36200
O 	O 	0.16785 0.13710 0.74871 -0.37200
O 	O 	0.12044 0.05140 0.70630 -0.36700
O 	O 	0.06476 0.12491 0.70762 -0.38000
O 	O 	0.01561 0.02179 0.75055 -0.70700
H 	H 	0.03575 0.02042 0.76731 0.15800
C 	C 	0.13478 0.59815 0.43886 0.30200
O 	O 	0.19132 0.63387 0.45431 -0.37800
O 	O 	0.14840 0.59997 0.41441 -0.37000
C 	C 	0.28844 0.62840 0.96148 0.28000
O 	O 	0.31306 0.70143 0.96177 -0.37000
C 	C 	0.04063 0.13237 0.25461 0.29800
C 	C 	0.08564 0.99616 0.16548 0.30500
C 	C 	0.12540 0.98258 0.23839 0.27900
Ni	Ni	0.09552 0.08916 0.20896 1.12200
O 	O 	0.09773 0.06230 0.17265 -0.37000
O 	O 	0.05684 0.15835 0.19671 -0.38300
O 	O 	0.06152 0.91889 0.23444 -0.37800
O 	O 	0.15340 0.03736 0.22126 -0.35500
O 	O 	0.09984 0.13214 0.24366 -0.37000
O 	O 	0.06908 0.94240 0.18214 -0.38500
C 	C 	0.01269 0.25948 0.11928 -0.01500
C 	C 	0.04030 0.24730 0.09651 -0.02500
C 	C 	0.05915 0.29828 0.07653 -0.03600
C 	C 	0.05106 0.36192 0.07936 0.00200
C 	C 	0.00761 0.21606 0.14131 0.06100
C 	C 	0.00406 0.17989 0.15974 -0.10900
C 	C 	0.09554 0.42635 0.06364 0.04700
H 	H 	0.08520 0.29121 0.05959 0.04500
C 	C 	0.14821 0.97300 0.09392 -0.05400
C 	C 	0.22557 0.00917 0.08724 0.04800
C 	C 	0.24914 0.98984 0.06495 -0.11400
C 	C 	0.19555 0.93363 0.04941 0.02800
C 	C 	0.11769 0.90329 0.05482 -0.06000
C 	C 	0.09409 0.92257 0.07711 -0.00800
C 	C 	0.12529 0.98146 0.11902 0.05800
C 	C 	0.10676 0.98790 0.14019 -0.10800
C 	C 	0.21989 0.89290 0.03324 0.02500
H 	H 	0.26775 0.04939 0.09988 0.03100
H 	H 	0.07568 0.86047 0.04280 0.04600
H 	H 	0.03403 0.89545 0.08186 0.03400
C 	C 	0.07660 0.22207 0.32518 0.00500
C 	C 	0.14411 0.23712 0.33738 -0.03400
C 	C 	0.16749 0.28239 0.35881 -0.02900
C 	C 	0.12352 0.31288 0.36810 -0.00400
C 	C 	0.05270 0.29221 0.35721 -0.02700
C 	C 	0.02946 0.24719 0.33572 -0.04100
C 	C 	0.06065 0.18894 0.30045 0.04500
C 	C 	0.04994 0.16275 0.27954 -0.08900
C 	C 	0.15823 0.37755 0.38415 0.04900
C 	C 	0.18826 0.43566 0.39556 -0.09800
H 	H 	0.18033 0.21690 0.32957 0.04800
H 	H 	0.01799 0.31501 0.36437 0.04300
C 	C 	0.23024 0.99271 0.30476 0.01100
C 	C 	0.29953 0.99260 0.30567 -0.06800
C 	C 	0.32140 0.97178 0.32793 -0.01800
C 	C 	0.27377 0.95054 0.34928 -0.01500
C 	C 	0.20805 0.95736 0.34903 -0.02700
C 	C 	0.18642 0.97864 0.32681 -0.04300
C 	C 	0.19770 0.99348 0.28077 0.03400
C 	C 	0.16687 0.99027 0.26105 -0.09300
H 	H 	0.33425 0.00437 0.28879 0.07000
H 	H 	0.37288 0.96758 0.32808 0.03800
H 	H 	0.13327 0.97970 0.32635 0.04200
C 	C 	0.06288 0.53690 0.44922 -0.07900
C 	C 	0.06467 0.48110 0.46417 0.00300
H 	H 	0.11797 0.48180 0.46736 0.02400
C 	C 	0.12477 0.12010 0.64598 0.05200
C 	C 	0.11096 0.10766 0.66824 -0.09800
H 	H 	0.16018 0.24730 0.62050 0.04300
C 	C 	0.22045 0.57905 0.94644 -0.06500
C 	C 	0.19120 0.50114 0.94685 0.00200
C 	C 	0.11891 0.45336 0.93726 -0.05000
C 	C 	0.10569 0.56113 0.92530 0.02300
C 	C 	0.17919 0.60891 0.93430 -0.02500
C 	C 	0.06033 0.59051 0.91629 -0.07100
H 	H 	0.22305 0.47732 0.95552 0.03800
H 	H 	0.20230 0.66903 0.93321 0.04900
H 	H 	0.08395 0.65044 0.91408 0.04600
C 	C 	0.23719 0.11555 0.78096 -0.09800
O 	O 	0.05524 0.13800 0.78352 -0.38600
C 	C 	0.22431 0.50941 0.40606 0.31000
C 	C 	0.35638 0.76478 0.47936 0.29700
C 	C 	0.30487 0.82254 0.40151 0.33100
Ni	Ni	0.28249 0.61481 0.45288 1.11200
Ni	Ni	0.25303 0.66405 0.39736 1.12100
O 	O 	0.21951 0.51738 0.43095 -0.37200
O 	O 	0.25017 0.56654 0.39000 -0.38500
O 	O 	0.37510 0.83812 0.40617 -0.38400
O 	O 	0.33600 0.69344 0.48166 -0.36500
O 	O 	0.35461 0.79229 0.45725 -0.38100
O 	O 	0.34134 0.71941 0.37232 -0.37800
O 	O 	0.38074 0.60646 0.45238 -0.37000
O 	O 	0.24765 0.75584 0.40641 -0.39200
O 	O 	0.32100 0.67485 0.42380 -0.71200
H 	H 	0.34739 0.65040 0.41601 0.15600
C 	C 	0.26145 0.80046 0.01391 0.30400
C 	C 	0.19527 0.55014 0.04060 0.31500
Ni	Ni	0.38564 0.76960 0.98962 1.11100
Ni	Ni	0.31071 0.71670 0.04593 1.12300
Ni	Ni	0.33813 0.60392 0.01234 1.12000
O 	O 	0.32552 0.59960 0.97386 -0.37800
O 	O 	0.22572 0.54547 0.01893 -0.39200
O 	O 	0.22895 0.61038 0.05528 -0.38000
O 	O 	0.31939 0.82243 0.99738 -0.36800
O 	O 	0.23695 0.73881 0.02756 -0.38500
O 	O 	0.33009 0.69209 0.01315 -0.71300
H 	H 	0.27908 0.67164 0.00580 0.16000
H 	H 	0.00917 0.00283 0.23598 0.15200
C 	C 	0.01613 0.36978 0.10119 -0.04300
C 	C 	0.13824 0.48219 0.05207 -0.09900
H 	H 	0.00873 0.41830 0.10342 0.04600
C 	C 	0.23960 0.85359 0.02240 -0.09700
H 	H 	0.30942 0.01434 0.06083 0.07600
H 	H 	0.22202 0.29754 0.36718 0.04400
C 	C 	0.28444 0.90879 0.36917 0.05500
C 	C 	0.29326 0.87070 0.38467 -0.11300
H 	H 	0.17139 0.94194 0.36555 0.03900
H 	H 	0.32637 0.94053 0.53817 0.05200
H 	H 	0.30847 0.83348 0.51237 0.04500
C 	C 	0.22967 0.18109 0.57464 -0.00400
C 	C 	0.21033 0.22969 0.58711 -0.03200
C 	C 	0.16872 0.20720 0.60975 -0.03300
C 	C 	0.14467 0.13542 0.61958 -0.00200
C 	C 	0.15336 0.08326 0.60499 -0.03100
C 	C 	0.19513 0.10590 0.58239 -0.03000
C 	C 	0.30128 0.21266 0.56127 0.05200
H 	H 	0.23450 0.28731 0.58081 0.04200
H 	H 	0.13284 0.02684 0.61205 0.04700
H 	H 	0.20748 0.06704 0.57243 0.04600
C 	C 	0.07475 0.48283 0.92728 0.00100
H 	H 	0.06542 0.26770 0.86365 0.04400
C 	C 	0.33197 0.14915 0.81901 -0.00100
C 	C 	0.30986 0.16036 0.84299 -0.03300
C 	C 	0.28158 0.13306 0.79805 0.05000
H 	H 	0.25861 0.16441 0.84531 0.04500
H 	H 	0.52301 0.68899 0.93975 0.04100
C 	C 	0.41083 0.72795 0.37526 0.30400
Ni	Ni	0.40448 0.77386 0.42717 1.12100
O 	O 	0.46243 0.73643 0.97553 -0.36500
O 	O 	0.35376 0.58946 0.04907 -0.39000
C 	C 	0.40069 0.81711 0.49943 -0.06400
C 	C 	0.36945 0.85477 0.51267 -0.03200
C 	C 	0.36594 0.24037 0.55362 -0.10300
C 	C 	0.39794 0.14333 0.81621 -0.03200
C 	C 	0.35259 0.16405 0.86414 -0.02900
H 	H 	0.41509 0.13415 0.79775 0.04700
H 	H 	0.33498 0.17237 0.88265 0.04300
C 	C 	0.44947 0.66573 0.44963 0.28500
O 	O 	0.45107 0.75872 0.39585 -0.38400
C 	C 	0.48702 0.69813 0.98887 0.30000
C 	C 	0.39705 0.64559 0.06380 0.33200
O 	O 	0.38119 0.83043 0.04586 -0.37600
O 	O 	0.45240 0.66473 0.00980 -0.38800
C 	C 	0.38731 0.96503 0.53548 -0.10400
C 	C 	0.41761 0.92384 0.52407 0.04300
H 	H 	0.40447 0.08520 0.01836 0.05600
H 	H 	0.39482 0.96451 0.02956 0.05400
C 	C 	0.55461 0.67525 0.95320 0.00600
H 	H 	0.59836 0.63178 0.92469 0.04500
C 	C 	0.41751 0.15642 0.86140 -0.00500
C 	C 	0.44654 0.27397 0.54984 0.32400
O 	O 	0.45948 0.73480 0.44990 -0.38100
C 	C 	0.44735 0.86663 0.03412 0.29400
O 	O 	0.39333 0.70765 0.06357 -0.38800
O 	O 	0.46507 0.83394 0.01630 -0.37700
C 	C 	0.44971 0.71894 0.35396 -0.09700
C 	C 	0.43523 0.03963 0.54203 0.05700
H 	H 	0.41069 0.07209 0.54961 0.03500
C 	C 	0.46594 0.11106 0.01917 -0.07000
C 	C 	0.50032 0.06910 0.02685 0.05900
C 	C 	0.49154 0.94864 0.03604 -0.05100
C 	C 	0.45611 0.99176 0.03134 -0.06300
C 	C 	0.59669 0.64184 0.94468 -0.05700
C 	C 	0.54886 0.68564 0.97914 -0.07300
C 	C 	0.44069 0.14705 0.83736 -0.02900
H 	H 	0.48355 0.21622 0.00440 0.03800
O 	O 	0.47752 0.29776 0.52733 -0.37200
C 	C 	0.44697 0.63842 0.08118 -0.10700
C 	C 	0.48809 0.71405 0.33735 0.04600
C 	C 	0.47934 0.84334 0.50068 -0.01100
C 	C 	0.51088 0.18561 0.01132 0.01700
C 	C 	0.46259 0.16225 0.88303 0.06000
O 	O 	0.48903 0.28913 0.56981 -0.38000
H 	H 	0.47771 0.63356 0.14660 0.04400
H 	H 	0.49476 0.74683 0.28779 0.04300
C 	C 	0.49745 0.95513 0.52205 -0.03300
H 	H 	0.50367 0.81293 0.49146 0.04100
C 	C 	0.51491 0.65544 0.45451 -0.06800
H 	H 	0.50849 0.60189 0.41892 0.03300
H 	H 	0.53694 0.70699 0.49114 0.04300
C 	C 	0.58035 0.10398 0.02841 -0.00700
C 	C 	0.57079 0.98414 0.03871 -0.03500
H 	H 	0.49149 0.14219 0.83508 0.04700
H 	H 	0.03653 0.30840 0.90389 0.03900
C 	C 	0.49164 0.63835 0.09608 0.05400
C 	C 	0.53129 0.61226 0.43786 0.00700
C 	C 	0.54761 0.67152 0.47856 -0.01600
C 	C 	0.59070 0.21943 0.01151 -0.07400
C 	C 	0.61493 0.06157 0.03528 -0.01100
H 	H 	0.59844 0.95140 0.04264 0.04600
C 	C 	0.63242 0.61736 0.96206 0.01400
H 	H 	0.66375 0.56040 0.93425 0.04800
C 	C 	0.50201 0.16962 0.90094 -0.11000
O 	O 	0.52389 0.19166 0.52489 -0.38600
C 	C 	0.53952 0.71201 0.31881 -0.00200
C 	C 	0.54014 0.73704 0.29412 -0.03300
C 	C 	0.51367 0.07435 0.53669 -0.09300
C 	C 	0.52768 0.91252 0.51166 -0.03800
C 	C 	0.62500 0.17950 0.02146 -0.00700
C 	C 	0.59171 0.66886 0.99628 -0.02000
C 	C 	0.53501 0.65252 0.13969 -0.03100
O 	O 	0.60585 0.32257 0.98432 -0.37400
O 	O 	0.54431 0.21647 0.94189 -0.39100
O 	O 	0.57358 0.43745 0.54295 -0.37100
C 	C 	0.54540 0.03060 0.52838 0.03000
C 	C 	0.58381 0.63288 0.48767 0.01500
C 	C 	0.57057 0.57634 0.44638 -0.05500
H 	H 	0.67627 0.08802 0.03690 0.04300
C 	C 	0.66425 0.57329 0.95410 -0.02000
H 	H 	0.58947 0.67905 0.01626 0.04800
C 	C 	0.63163 0.63276 0.98795 0.01400
C 	C 	0.55184 0.18310 0.92176 0.31800
C 	C 	0.55760 0.15678 0.53472 0.31400
C 	C 	0.54797 0.64624 0.11403 -0.00600
C 	C 	0.59179 0.58193 0.47180 0.01600
H 	H 	0.60025 0.67797 0.52538 0.04400
H 	H 	0.57914 0.53967 0.43377 0.04600
H 	H 	0.68650 0.20581 0.02240 0.04900
C 	C 	0.60295 0.63693 0.51326 -0.05500
C 	C 	0.63843 0.29194 0.99837 0.27900
Ni	Ni	0.57683 0.30099 0.51644 1.12200
H 	H 	0.58638 0.70115 0.17516 0.04300
C 	C 	0.59803 0.69849 0.32664 -0.03300
H 	H 	0.59754 0.67822 0.34561 0.04300
Ni	Ni	0.61088 0.32738 0.94545 1.11800
C 	C 	0.60749 0.45736 0.52042 0.28700
Ni	Ni	0.59727 0.37956 0.57109 1.11400
C 	C 	0.59655 0.69120 0.15582 -0.03200
H 	H 	0.58870 0.93441 0.51097 0.03400
C 	C 	0.61704 0.52672 0.50860 -0.06700
C 	C 	0.61903 0.58368 0.52373 0.00700
C 	C 	0.61111 0.53072 0.48227 -0.01900
H 	H 	0.61413 0.48955 0.47028 0.04800
O 	O 	0.60530 0.34058 0.90794 -0.38600
O 	O 	0.61264 0.33585 0.60492 -0.37700
O 	O 	0.61468 0.40847 0.50597 -0.38200
C 	C 	0.60229 0.75490 0.27814 -0.03300
H 	H 	0.60439 0.77839 0.25960 0.04300
H 	H 	0.60624 0.05643 0.52503 0.04300
H 	H 	0.62848 0.58401 0.54385 0.03500
C 	C 	0.66604 0.60704 0.00541 -0.05600
H 	H 	0.66706 0.61980 0.02528 0.04500
C 	C 	0.61354 0.27247 0.60654 0.33300
O 	O 	0.61224 0.23661 0.58610 -0.39200
C 	C 	0.62202 0.66866 0.10550 -0.03100
O 	O 	0.61482 0.17960 0.91801 -0.37300
O 	O 	0.63324 0.33803 0.54677 -0.71500
H 	H 	0.60434 0.10129 0.66971 0.04600
C 	C 	0.69183 0.54141 0.97197 -0.07400
C 	C 	0.69540 0.56114 0.99749 0.00600
H 	H 	0.63243 0.66227 0.08582 0.04100
O 	O 	0.67071 0.43998 0.94465 -0.39000
O 	O 	0.63185 0.19228 0.53819 -0.38300
H 	H 	0.09572 0.39337 0.93886 0.04200
C 	C 	0.66047 0.71695 0.31074 -0.03300
O 	O 	0.71366 0.32133 0.99855 -0.36400
H 	H 	0.67778 0.27109 0.95681 0.14900
C 	C 	0.66438 0.74848 0.28689 -0.00300
C 	C 	0.70510 0.47909 0.96443 0.30400
C 	C 	0.66527 0.36206 0.89321 0.32200
C 	C 	0.63619 0.25322 0.62968 -0.11200
H 	H 	0.71762 0.53818 0.01139 0.04300
C 	C 	0.69263 0.42842 0.87808 -0.10300
C 	C 	0.67100 0.72273 0.14636 -0.00500
O 	O 	0.66567 0.29960 0.49824 -0.37100
C 	C 	0.72207 0.48430 0.86525 0.05200
O 	O 	0.69975 0.31702 0.94649 -0.70200
H 	H 	0.67645 0.38361 0.53965 0.15700
C 	C 	0.68359 0.70729 0.12163 -0.03200
H 	H 	0.70777 0.71099 0.31757 0.04300
C 	C 	0.76254 0.55063 0.84996 -0.00400
Ni	Ni	0.68703 0.28898 0.55765 1.12100
C 	C 	0.65945 0.23717 0.64822 0.05600
H 	H 	0.05080 0.20055 0.09472 0.04600
O 	O 	0.74724 0.46056 0.97833 -0.36800
C 	C 	0.65947 0.14265 0.67672 -0.03000
O 	O 	0.71088 0.45768 0.57412 -0.38400
H 	H 	0.67732 0.06115 0.69670 0.04800
C 	C 	0.02658 0.22614 0.87701 -0.04100
Ni	Ni	0.71995 0.27139 0.91809 1.12200
C 	C 	0.73255 0.78046 0.16024 0.05400
C 	C 	0.73646 0.78802 0.27384 0.04700
O 	O 	0.69393 0.31792 0.88941 -0.38700
C 	C 	0.69147 0.21772 0.66916 -0.00600
O 	O 	0.75199 0.22042 0.94378 -0.38600
H 	H 	0.72566 0.50580 0.66557 0.04400
C 	C 	0.70096 0.11987 0.69189 -0.03100
C 	C 	0.73827 0.33941 0.50526 0.27800
H 	H 	0.74369 0.60889 0.69367 0.04200
H 	H 	0.74241 0.43605 0.46911 0.03900
H 	H 	0.74110 0.72974 0.11438 0.04300
C 	C 	0.75771 0.44016 0.58571 0.31100
C 	C 	0.01085 0.24921 0.90000 -0.03800
H 	H 	0.69311 0.50211 0.81701 0.04400
O 	O 	0.75779 0.37587 0.58123 -0.37100
O 	O 	0.75997 0.33328 0.52842 -0.37500
C 	C 	0.74280 0.55012 0.82461 -0.03200
C 	C 	0.76254 0.27086 0.67852 -0.03100
H 	H 	0.00113 0.38312 0.48721 0.03900
H 	H 	0.77167 0.61099 0.78941 0.04300
C 	C 	0.77451 0.17211 0.69958 -0.00100
Ni	Ni	0.78087 0.38197 0.96796 1.11000
C 	C 	0.77975 0.55735 0.66550 -0.03500
C 	C 	0.78402 0.83017 0.17150 -0.11100
C 	C 	0.78788 0.61129 0.80890 -0.03300
C 	C 	0.78965 0.61596 0.68126 -0.03100
H 	H 	0.78746 0.32913 0.67289 0.04400
C 	C 	0.79616 0.82620 0.26302 -0.09900
C 	C 	0.79386 0.43189 0.46978 0.00100
C 	C 	0.79430 0.48188 0.60785 -0.10100
C 	C 	0.79789 0.37940 0.48591 -0.06000
C 	C 	0.80408 0.24806 0.69365 -0.03200
C 	C 	0.99732 0.31883 0.12118 -0.01400
C 	C 	0.99869 0.13559 0.18143 0.33800
H 	H 	0.97442 0.32767 0.13856 0.04300
H 	H 	0.84407 0.61262 0.87896 0.04300
O 	O 	0.99940 0.00578 0.21796 -0.70100
C 	C 	0.82775 0.61237 0.85948 -0.03300
C 	C 	0.98285 0.54289 0.91185 0.02100
H 	H 	0.92259 0.72143 0.85137 0.04100
C 	C 	0.87283 0.67348 0.84377 -0.03400
C 	C 	0.99839 0.42535 0.47559 -0.04000
C 	C 	0.99344 0.53592 0.44545 -0.00600
H 	H 	0.99189 0.57895 0.43391 0.04200
O 	O 	0.97079 0.14256 0.74285 -0.37700
H 	H 	0.94710 0.56655 0.90675 0.03400
O 	O 	0.97878 0.11805 0.24161 -0.35600
H 	H 	0.97662 0.23490 0.32662 0.05300
O 	O 	0.93265 0.07832 0.18751 -0.36900
C 	C 	0.86794 0.41936 0.91992 0.29700
C 	C 	0.81935 0.25673 0.95391 0.31700
O 	O 	0.83523 0.44338 0.93597 -0.37900
O 	O 	0.83291 0.34871 0.91247 -0.37400
O 	O 	0.84156 0.32165 0.96550 -0.37000
C 	C 	0.89855 0.87696 0.71469 0.32900
C 	C 	0.95511 0.86522 0.77693 0.31100
C 	C 	0.90850 0.09651 0.73071 0.32600
C 	C 	0.99163 0.09610 0.79658 0.31200
Ni	Ni	0.90987 0.97381 0.75855 1.11000
O 	O 	0.88250 0.02398 0.73121 -0.37300
O 	O 	0.96418 0.93225 0.70787 -0.39500
O 	O 	0.86786 0.88013 0.73631 -0.38100
O 	O 	0.92593 0.05238 0.78502 -0.36800
O 	O 	0.99410 0.87248 0.75560 -0.37200
O 	O 	0.93306 0.91380 0.78363 -0.39400
C 	C 	0.86486 0.87793 0.25003 0.31300
C 	C 	0.84566 0.88908 0.18478 0.33000
Ni	Ni	0.91424 0.01939 0.22107 1.12100
Ni	Ni	0.98566 0.91083 0.20844 1.11900
O 	O 	0.88769 0.94998 0.25227 -0.39000
O 	O 	0.89444 0.85179 0.23276 -0.37300
O 	O 	0.83119 0.92426 0.20280 -0.38200
O 	O 	0.91505 0.90249 0.18029 -0.39500
C 	C 	0.92956 0.42575 0.47290 0.01500
C 	C 	0.92663 0.48091 0.45759 0.01300
C 	C 	0.85780 0.48216 0.45556 -0.05100
C 	C 	0.86469 0.37425 0.48646 -0.01600
H 	H 	0.85443 0.52354 0.44367 0.04600
H 	H 	0.86737 0.33265 0.49849 0.05000
C 	C 	0.82240 0.14677 0.71098 0.05400
C 	C 	0.86222 0.12449 0.72006 -0.09700
H 	H 	0.86054 0.28892 0.69981 0.04500
C 	C 	0.85729 0.68460 0.67999 -0.00800
C 	C 	0.83699 0.56765 0.64814 -0.00300
C 	C 	0.90693 0.63419 0.64842 -0.03500
C 	C 	0.91708 0.69253 0.66432 -0.03200
C 	C 	0.86400 0.74868 0.69323 0.05200
C 	C 	0.87532 0.80555 0.70347 -0.11600
C 	C 	0.81708 0.51970 0.62650 0.04700
H 	H 	0.95170 0.64255 0.63523 0.04200
H 	H 	0.97019 0.74504 0.66363 0.03900
C 	C 	0.95058 0.46543 0.91575 -0.07900
C 	C 	0.99804 0.43534 0.92139 -0.00500
H 	H 	0.97386 0.37551 0.92338 0.04800
C 	C 	0.98767 0.15031 0.87050 0.00800
C 	C 	0.93929 0.09695 0.88822 -0.03400
C 	C 	0.92393 0.12004 0.91130 -0.03100
C 	C 	0.95570 0.19660 0.91652 0.00200
C 	C 	0.98915 0.12884 0.84469 0.04700
C 	C 	0.98992 0.11280 0.82282 -0.08900
C 	C 	0.91563 0.22048 0.93340 0.04700
C 	C 	0.87556 0.23884 0.94479 -0.10600
H 	H 	0.91020 0.03800 0.88358 0.04900
H 	H 	0.88220 0.07871 0.92410 0.04800
C 	C 	0.85303 0.67308 0.81844 -0.00300
C 	C 	0.89363 0.73961 0.80324 0.04700
C 	C 	0.92438 0.79647 0.79091 -0.10100
