data_crystal

_cell_length_a 26.97625
_cell_length_b 26.25348
_cell_length_c 20.25714
_cell_angle_alpha 90.00168
_cell_angle_beta  90.00129
_cell_angle_gamma 89.99880

_symmetry_space_group_name_	'P 1'
_symmetry_space_group_name_H-M	'P 1'

loop_
_symmetry_equiv_pos_as_xyz
  x,y,z

loop_
_atom_site_label
_atom_site_type_symbol
_atom_site_fract_x
_atom_site_fract_y
_atom_site_fract_z
_atom_site_charge
Co	Co	0.30928 0.59371 0.53886 1.18900
O 	O 	0.37087 0.61232 0.59616 -0.36000
Co	Co	0.23768 0.53366 0.43035 1.18800
O 	O 	0.30244 0.52115 0.50396 -0.45700
O 	O 	0.26045 0.59904 0.39370 -0.41200
O 	O 	0.31115 0.57359 0.64154 -0.33200
C 	C 	0.30724 0.61270 0.39444 0.34300
O 	O 	0.30398 0.49107 0.40689 -0.34600
C 	C 	0.16444 0.47479 0.40051 0.29100
C 	C 	0.21132 0.61595 0.52953 0.31200
O 	O 	0.17669 0.51630 0.37088 -0.35000
O 	O 	0.19426 0.46608 0.44912 -0.33200
O 	O 	0.24779 0.64459 0.54925 -0.33900
O 	O 	0.22697 0.56999 0.51872 -0.44900
O 	O 	0.33080 0.62092 0.45093 -0.51900
C 	C 	0.35480 0.59247 0.65005 0.29700
C 	C 	0.32948 0.49827 0.46073 0.30300
H 	H 	0.36340 0.64014 0.45036 0.18700
Co	Co	0.55314 0.32970 0.51604 1.18700
O 	O 	0.56851 0.38757 0.44886 -0.36500
Co	Co	0.49598 0.26541 0.63327 1.18600
O 	O 	0.48199 0.32187 0.54684 -0.45900
O 	O 	0.55842 0.29450 0.66710 -0.42000
O 	O 	0.53924 0.31810 0.41294 -0.33300
C 	C 	0.57173 0.34224 0.65950 0.35000
O 	O 	0.45049 0.33278 0.64223 -0.34200
C 	C 	0.44163 0.19157 0.67615 0.29600
C 	C 	0.58200 0.23371 0.54647 0.30800
O 	O 	0.48018 0.21042 0.70450 -0.35600
O 	O 	0.43360 0.21479 0.62091 -0.32600
O 	O 	0.60788 0.27107 0.52221 -0.34000
O 	O 	0.53546 0.24629 0.55051 -0.44800
O 	O 	0.56986 0.36485 0.60101 -0.52700
C 	C 	0.55370 0.36330 0.39741 0.29800
C 	C 	0.45809 0.35284 0.58442 0.30900
H 	H 	0.58018 0.40187 0.59722 0.18500
Co	Co	0.67229 0.43024 0.03594 1.18400
O 	O 	0.60966 0.41427 0.09228 -0.36700
Co	Co	0.74655 0.48895 0.93029 1.18900
O 	O 	0.68398 0.50342 0.00673 -0.46800
O 	O 	0.71971 0.42656 0.89047 -0.41400
O 	O 	0.67229 0.44568 0.13998 -0.33700
C 	C 	0.67230 0.41565 0.89026 0.34400
O 	O 	0.68300 0.53692 0.91124 -0.34000
C 	C 	0.82148 0.54521 0.89988 0.29200
C 	C 	0.76766 0.39975 0.02169 0.30600
O 	O 	0.80650 0.50535 0.86870 -0.34900
O 	O 	0.79445 0.55250 0.95163 -0.32600
O 	O 	0.72929 0.37387 0.04146 -0.34300
O 	O 	0.75625 0.44765 0.01528 -0.45300
O 	O 	0.64717 0.41050 0.94624 -0.51900
C 	C 	0.62712 0.43050 0.14743 0.29900
C 	C 	0.65807 0.52935 0.96529 0.31100
H 	H 	0.61206 0.39675 0.94468 0.18300
Co	Co	0.42660 0.69587 0.01823 1.18500
O 	O 	0.40674 0.63865 0.95199 -0.35400
Co	Co	0.48809 0.75777 0.13492 1.18500
O 	O 	0.49787 0.69836 0.05083 -0.45900
O 	O 	0.42365 0.73407 0.16885 -0.42400
O 	O 	0.44455 0.70331 0.91535 -0.32500
C 	C 	0.40753 0.68714 0.16292 0.34500
O 	O 	0.52843 0.68709 0.14614 -0.34600
C 	C 	0.54673 0.82899 0.17564 0.29400
C 	C 	0.40554 0.79446 0.04440 0.31100
O 	O 	0.50704 0.81326 0.20435 -0.36000
O 	O 	0.55425 0.80340 0.12198 -0.33000
O 	O 	0.37732 0.75939 0.01920 -0.35300
O 	O 	0.45080 0.77813 0.05068 -0.44600
O 	O 	0.40288 0.66549 0.10392 -0.52000
C 	C 	0.42636 0.65934 0.90085 0.29900
C 	C 	0.51985 0.66619 0.08891 0.30900
H 	H 	0.38455 0.63190 0.10030 0.18800
Co	Co	0.06026 0.19542 0.31101 1.18600
O 	O 	0.07790 0.13554 0.37455 -0.35800
Co	Co	0.00186 0.26252 0.19565 1.17600
O 	O 	0.98971 0.20081 0.27610 -0.44700
O 	O 	0.06602 0.23786 0.16180 -0.42300
O 	O 	0.04198 0.20031 0.41407 -0.32900
C 	C 	0.08070 0.19026 0.16661 0.34500
O 	O 	0.96078 0.19311 0.17925 -0.34600
C 	C 	0.94295 0.33477 0.15782 0.29500
C 	C 	0.08395 0.29396 0.28938 0.30900
O 	O 	0.98336 0.32050 0.12933 -0.34900
O 	O 	0.93602 0.30791 0.21054 -0.32600
O 	O 	0.11103 0.25768 0.31386 -0.33900
O 	O 	0.03844 0.27898 0.28165 -0.44800
O 	O 	0.08489 0.16736 0.22487 -0.52200
C 	C 	0.05952 0.15571 0.42695 0.29400
C 	C 	0.96768 0.17044 0.23566 0.31200
H 	H 	0.10227 0.13318 0.22737 0.18900
Co	Co	0.81041 0.94050 0.28974 1.18200
O 	O 	0.87095 0.92665 0.22802 -0.37000
Co	Co	0.73877 0.99851 0.39994 1.17500
O 	O 	0.79828 0.01333 0.31940 -0.44600
O 	O 	0.76821 0.93626 0.43820 -0.42300
O 	O 	0.80482 0.95489 0.18563 -0.34100
C 	C 	0.81581 0.92552 0.43566 0.34000
O 	O 	0.80202 0.04781 0.41438 -0.33300
C 	C 	0.66259 0.05267 0.43329 0.29200
C 	C 	0.71610 0.90861 0.31035 0.31000
O 	O 	0.68052 0.01428 0.46493 -0.34600
O 	O 	0.68829 0.06071 0.38042 -0.31900
O 	O 	0.75437 0.88294 0.28975 -0.34600
O 	O 	0.72714 0.95663 0.31581 -0.45600
O 	O 	0.83963 0.92279 0.37822 -0.52200
C 	C 	0.85009 0.94174 0.17436 0.29800
C 	C 	0.82527 0.03946 0.35917 0.31000
H 	H 	0.87512 0.91009 0.37754 0.18200
Co	Co	0.17559 0.08722 0.79089 1.18700
O 	O 	0.11401 0.10085 0.73099 -0.36400
Co	Co	0.24860 0.02836 0.89914 1.19300
O 	O 	0.18998 0.01400 0.81747 -0.43400
O 	O 	0.21820 0.08945 0.93886 -0.41300
O 	O 	0.18064 0.07632 0.68594 -0.32900
C 	C 	0.17047 0.09931 0.93699 0.33800
O 	O 	0.18658 0.97712 0.91063 -0.34400
C 	C 	0.32542 0.97517 0.93229 0.26200
C 	C 	0.26990 0.11927 0.81173 0.31000
O 	O 	0.30768 0.01394 0.96325 -0.32500
O 	O 	0.29976 0.96674 0.87945 -0.32900
O 	O 	0.23142 0.14524 0.79220 -0.34300
O 	O 	0.25888 0.07134 0.81610 -0.44800
O 	O 	0.14635 0.10233 0.87991 -0.51800
C 	C 	0.13474 0.08789 0.67639 0.30000
C 	C 	0.16388 0.98494 0.85477 0.28200
H 	H 	0.11072 0.11462 0.87974 0.18400
Co	Co	0.92338 0.82745 0.80936 1.18700
O 	O 	0.90644 0.88869 0.87111 -0.36500
Co	Co	0.98135 0.75658 0.69811 1.19100
O 	O 	0.99490 0.81565 0.78165 -0.43600
O 	O 	0.91988 0.78515 0.65967 -0.41600
O 	O 	0.93470 0.82111 0.91407 -0.31900
C 	C 	0.90607 0.83305 0.66461 0.34700
O 	O 	0.02871 0.82224 0.68733 -0.35400
C 	C 	0.03537 0.67963 0.66337 0.27400
C 	C 	0.89504 0.73002 0.78665 0.30800
O 	O 	0.99713 0.69719 0.63278 -0.34400
O 	O 	0.04312 0.70608 0.71626 -0.32500
O 	O 	0.86862 0.76841 0.80705 -0.34100
O 	O 	0.94120 0.74286 0.78154 -0.44300
O 	O 	0.90987 0.85867 0.72086 -0.52700
C 	C 	0.91977 0.86695 0.92510 0.28600
C 	C 	0.02199 0.84397 0.74447 0.28500
H 	H 	0.90233 0.89650 0.72108 0.18000
C 	C 	0.13059 0.94590 0.82603 -0.07600
C 	C 	0.12833 0.93695 0.75697 0.06100
C 	C 	0.08950 0.90771 0.73140 -0.02300
C 	C 	0.06075 0.87731 0.77338 -0.07800
C 	C 	0.07073 0.87817 0.84228 0.06000
C 	C 	0.10084 0.91665 0.86804 -0.02400
H 	H 	0.08493 0.90479 0.67839 0.06300
H 	H 	0.10494 0.92016 0.92106 0.06700
I 	I 	0.19050 0.94889 0.69406 -0.07600
I 	I 	0.05884 0.81370 0.90391 -0.06400
C 	C 	0.90268 0.88460 0.98993 -0.03900
C 	C 	0.86728 0.85677 0.02653 0.04500
C 	C 	0.84996 0.87613 0.08660 -0.00900
C 	C 	0.86640 0.92355 0.10962 -0.07700
C 	C 	0.90033 0.95203 0.07206 0.06400
C 	C 	0.91873 0.93220 0.01291 -0.04900
H 	H 	0.82342 0.85441 0.11526 0.05700
H 	H 	0.94502 0.95419 0.98418 0.07100
I 	I 	0.83632 0.78749 0.99069 -0.04500
I 	I 	0.92234 0.02626 0.10168 -0.05100
C 	C 	0.88197 0.85739 0.60721 -0.10100
C 	C 	0.83789 0.83735 0.58032 0.07400
C 	C 	0.81710 0.85957 0.52391 -0.01700
C 	C 	0.83895 0.90264 0.49495 -0.09700
C 	C 	0.88196 0.92390 0.52353 0.06400
C 	C 	0.90362 0.90065 0.57866 -0.02000
H 	H 	0.78361 0.84356 0.50284 0.06500
H 	H 	0.93718 0.91653 0.59971 0.05200
I 	I 	0.79989 0.77588 0.62627 -0.07700
I 	I 	0.91321 0.99287 0.48813 -0.12000
C 	C 	0.07699 0.14150 0.49285 -0.06800
C 	C 	0.12119 0.16217 0.51857 0.07000
C 	C 	0.14040 0.14353 0.57794 -0.01700
C 	C 	0.11573 0.10474 0.61228 -0.07200
C 	C 	0.07134 0.08445 0.58691 0.07200
C 	C 	0.05226 0.10288 0.52734 -0.02200
H 	H 	0.17425 0.15964 0.59782 0.06500
H 	H 	0.01862 0.08648 0.50721 0.06100
I 	I 	0.15993 0.22140 0.46901 -0.06500
I 	I 	0.03351 0.02431 0.63590 -0.08500
C 	C 	0.10422 0.16662 0.10857 -0.10800
C 	C 	0.14870 0.18630 0.08253 0.08200
C 	C 	0.16967 0.16417 0.02630 -0.03700
C 	C 	0.14750 0.12160 0.99659 -0.06700
C 	C 	0.10400 0.10069 0.02422 0.04100
C 	C 	0.08235 0.12368 0.07955 -0.01100
H 	H 	0.20343 0.17998 0.00576 0.06700
H 	H 	0.04863 0.10793 0.10029 0.05000
I 	I 	0.18673 0.24743 0.12924 -0.07800
I 	I 	0.07166 0.03295 0.98637 -0.08500
C 	C 	0.93021 0.13502 0.26142 -0.08200
C 	C 	0.94364 0.08568 0.28185 0.07900
C 	C 	0.90968 0.05563 0.31669 -0.02400
C 	C 	0.86277 0.07479 0.33328 -0.07600
C 	C 	0.84927 0.12418 0.31262 0.07300
C 	C 	0.88282 0.15373 0.27645 -0.01200
H 	H 	0.91930 0.01676 0.32930 0.05900
H 	H 	0.87256 0.19198 0.26164 0.06600
I 	I 	0.01416 0.05465 0.25883 -0.12700
I 	I 	0.77822 0.15514 0.33398 -0.04900
C 	C 	0.39490 0.84833 0.02901 -0.09800
C 	C 	0.41834 0.87280 0.97499 0.08900
C 	C 	0.39587 0.91512 0.94520 -0.03600
C 	C 	0.35019 0.93330 0.96801 -0.04300
C 	C 	0.32817 0.91067 0.02410 0.05100
C 	C 	0.35172 0.86982 0.05560 -0.01000
H 	H 	0.41348 0.93315 0.90317 0.06200
H 	H 	0.33379 0.85162 0.09728 0.05400
I 	I 	0.48672 0.84650 0.93522 -0.05300
I 	I 	0.25639 0.93229 0.05763 -0.09900
C 	C 	0.58778 0.85150 0.21357 -0.06900
C 	C 	0.60524 0.90067 0.19885 0.06600
C 	C 	0.64411 0.92161 0.23582 -0.01700
C 	C 	0.66653 0.89346 0.28681 -0.08200
C 	C 	0.64690 0.84561 0.30410 0.06900
C 	C 	0.60784 0.82477 0.26735 -0.02000
H 	H 	0.65865 0.95869 0.22252 0.06400
H 	H 	0.59336 0.78757 0.28024 0.06100
I 	I 	0.57396 0.94397 0.12066 -0.08300
I 	I 	0.67537 0.80431 0.38589 -0.08000
C 	C 	0.90062 0.35254 0.11829 -0.06700
C 	C 	0.88949 0.40472 0.11306 0.06600
C 	C 	0.84838 0.42054 0.07594 -0.02000
C 	C 	0.81777 0.38451 0.04441 -0.07800
C 	C 	0.83152 0.33260 0.04565 0.06400
C 	C 	0.87230 0.31695 0.08319 -0.01900
H 	H 	0.83906 0.46065 0.07409 0.06300
H 	H 	0.88203 0.27691 0.08508 0.05900
I 	I 	0.93319 0.46028 0.16218 -0.06600
I 	I 	0.79266 0.27689 0.98998 -0.04200
C 	C 	0.62186 0.56697 0.98949 -0.07200
C 	C 	0.63777 0.61429 0.01502 0.05900
C 	C 	0.60478 0.64478 0.05094 -0.01300
C 	C 	0.55544 0.62957 0.06021 -0.07700
C 	C 	0.53920 0.58295 0.03294 0.05600
C 	C 	0.57260 0.55177 0.99866 -0.01200
H 	H 	0.61718 0.68121 0.06997 0.06400
H 	H 	0.56038 0.51512 0.98014 0.04900
I 	I 	0.71088 0.64163 0.99907 -0.03900
I 	I 	0.46521 0.55754 0.04350 -0.11000
C 	C 	0.88174 0.67828 0.80843 -0.07700
C 	C 	0.90606 0.65497 0.86272 0.07400
C 	C 	0.88741 0.60974 0.88918 -0.02100
C 	C 	0.84377 0.58836 0.86463 -0.06500
C 	C 	0.81956 0.61131 0.81031 0.07200
C 	C 	0.83941 0.65533 0.78174 -0.02000
H 	H 	0.90586 0.59229 0.93100 0.06500
H 	H 	0.82035 0.67323 0.74075 0.06300
I 	I 	0.96822 0.68842 0.91078 -0.03300
I 	I 	0.75064 0.58374 0.77379 -0.07300
C 	C 	0.59606 0.18110 0.52926 -0.07800
C 	C 	0.64052 0.16024 0.55355 0.07100
C 	C 	0.66127 0.11732 0.52307 -0.01900
C 	C 	0.63793 0.09481 0.46839 -0.06300
C 	C 	0.59185 0.11357 0.44683 0.06600
C 	C 	0.57089 0.15622 0.47772 -0.01400
H 	H 	0.69621 0.10227 0.54084 0.06600
H 	H 	0.53638 0.17173 0.45912 0.06800
I 	I 	0.67728 0.19316 0.63584 -0.07000
I 	I 	0.55341 0.07872 0.36725 -0.05500
C 	C 	0.57203 0.37562 0.33170 -0.07200
C 	C 	0.62287 0.37182 0.31684 0.07200
C 	C 	0.64068 0.39084 0.25703 -0.02000
C 	C 	0.60796 0.41236 0.21098 -0.07200
C 	C 	0.55672 0.41397 0.22491 0.07000
C 	C 	0.53920 0.39580 0.28524 -0.02000
H 	H 	0.67985 0.38794 0.24577 0.06900
H 	H 	0.50002 0.39838 0.29664 0.06000
I 	I 	0.67321 0.33527 0.38226 -0.06900
I 	I 	0.50475 0.44460 0.15710 -0.06700
C 	C 	0.60028 0.36619 0.71295 -0.10000
C 	C 	0.58002 0.40616 0.75066 0.06700
C 	C 	0.60474 0.42306 0.80735 -0.02000
C 	C 	0.64904 0.39973 0.82757 -0.09900
C 	C 	0.66987 0.36056 0.78862 0.07500
C 	C 	0.64579 0.34480 0.73115 -0.01300
H 	H 	0.58900 0.45369 0.83649 0.05200
H 	H 	0.66153 0.31427 0.70186 0.06500
I 	I 	0.51133 0.44036 0.72484 -0.10100
I 	I 	0.73525 0.32119 0.81722 -0.05300
C 	C 	0.31929 0.13412 0.78763 -0.08000
C 	C 	0.33814 0.18306 0.80060 0.07100
C 	C 	0.37848 0.20138 0.76421 -0.01800
C 	C 	0.40060 0.17098 0.71536 -0.06700
C 	C 	0.38378 0.12100 0.70522 0.06700
C 	C 	0.34363 0.10259 0.74172 -0.01700
H 	H 	0.39231 0.23950 0.77336 0.06200
H 	H 	0.32978 0.06458 0.73199 0.07100
I 	I 	0.30724 0.22946 0.87602 -0.06800
I 	I 	0.41787 0.07267 0.63439 -0.05800
C 	C 	0.16240 0.62336 0.55988 -0.08000
C 	C 	0.12375 0.64685 0.52488 0.06500
C 	C 	0.08123 0.66308 0.55851 -0.02600
C 	C 	0.07660 0.65528 0.62703 -0.06400
C 	C 	0.11325 0.62711 0.66059 0.06600
C 	C 	0.15612 0.61186 0.62707 -0.01200
H 	H 	0.05236 0.68289 0.53161 0.06300
H 	H 	0.18518 0.59204 0.65364 0.06800
I 	I 	0.12789 0.65677 0.42114 -0.08700
I 	I 	0.10383 0.60429 0.76050 -0.06000
C 	C 	0.37245 0.60968 0.71451 -0.07000
C 	C 	0.34706 0.64802 0.74971 0.07100
C 	C 	0.36631 0.66573 0.80943 -0.01700
C 	C 	0.41078 0.64595 0.83417 -0.07000
C 	C 	0.43688 0.60888 0.79813 0.07100
C 	C 	0.41757 0.59086 0.73856 -0.02000
H 	H 	0.34628 0.69438 0.83723 0.06300
H 	H 	0.43777 0.56234 0.71074 0.06200
I 	I 	0.28044 0.68111 0.71343 -0.06800
I 	I 	0.50594 0.58014 0.83215 -0.07600
C 	C 	0.33039 0.62968 0.33226 -0.09900
C 	C 	0.31251 0.67274 0.29817 0.07300
C 	C 	0.33654 0.68923 0.24082 -0.01500
C 	C 	0.38011 0.66528 0.21930 -0.09800
C 	C 	0.39896 0.62337 0.25485 0.06500
C 	C 	0.37297 0.60470 0.30949 -0.02000
H 	H 	0.32244 0.72207 0.21437 0.05800
H 	H 	0.38697 0.57180 0.33583 0.05600
I 	I 	0.25298 0.71707 0.33568 -0.06800
I 	I 	0.46923 0.59146 0.23309 -0.08300
C 	C 	0.36496 0.45936 0.48332 -0.07800
C 	C 	0.41315 0.47328 0.50306 0.06000
C 	C 	0.44234 0.43898 0.53917 -0.02300
C 	C 	0.42402 0.39066 0.55581 -0.08300
C 	C 	0.37628 0.37621 0.53451 0.07400
C 	C 	0.34728 0.41040 0.49812 -0.01700
H 	H 	0.47976 0.44953 0.55307 0.04800
H 	H 	0.31007 0.39959 0.48357 0.06800
I 	I 	0.44384 0.54464 0.47603 -0.11900
I 	I 	0.34659 0.30318 0.55658 -0.05600
C 	C 	0.09528 0.34702 0.30706 -0.08100
C 	C 	0.07395 0.36947 0.36391 0.07500
C 	C 	0.09588 0.41254 0.39222 -0.02300
C 	C 	0.13929 0.43311 0.36551 -0.06700
C 	C 	0.15939 0.41215 0.30717 0.07100
C 	C 	0.13640 0.37025 0.27741 -0.02000
H 	H 	0.07996 0.42906 0.43643 0.06000
H 	H 	0.15290 0.35326 0.23387 0.06100
I 	I 	0.01071 0.33777 0.41140 -0.06600
I 	I 	0.22740 0.43882 0.26671 -0.07800
