data_crystal

_cell_length_a 26.20153
_cell_length_b 26.33284
_cell_length_c 32.96351
_cell_angle_alpha 95.50480
_cell_angle_beta  95.50195
_cell_angle_gamma 125.85237

_symmetry_space_group_name_	'P 1'
_symmetry_space_group_name_H-M	'P 1'

loop_
_symmetry_equiv_pos_as_xyz
  x,y,z

loop_
_atom_site_label
_atom_site_type_symbol
_atom_site_fract_x
_atom_site_fract_y
_atom_site_fract_z
_atom_site_charge
C 	C 	0.95785 0.02617 0.99893 0.10900
N 	N 	0.91985 0.96141 0.99232 -0.12600
C 	C 	0.94601 0.92992 0.98752 0.12000
N 	N 	0.01006 0.96319 0.98907 -0.12300
C 	C 	0.04810 0.02784 0.99548 0.12200
N 	N 	0.02200 0.05941 0.00045 -0.12300
C 	C 	0.93929 0.99442 0.45686 0.13600
N 	N 	0.00427 0.03462 0.46352 -0.13100
C 	C 	0.03854 0.01138 0.46764 0.12400
N 	N 	0.00791 0.94783 0.46478 -0.12100
C 	C 	0.94291 0.90727 0.45746 0.12000
N 	N 	0.90844 0.93058 0.45378 -0.13300
Cu	Cu	0.63487 0.24830 0.01324 0.92900
Cu	Cu	0.66746 0.22232 0.92317 0.87600
Cu	Cu	0.65897 0.32882 0.94595 0.89800
Cu	Cu	0.63776 0.36996 0.02703 0.89800
C 	C 	0.67210 0.32266 0.09478 0.25500
O 	O 	0.54334 0.21372 0.01747 -0.34800
C 	C 	0.62333 0.26030 0.85898 0.25700
O 	O 	0.68420 0.34363 0.00490 -0.63800
O 	O 	0.61576 0.23784 0.95206 -0.63800
O 	O 	0.67363 0.20189 0.01629 -0.35800
O 	O 	0.73420 0.25047 0.96823 -0.43200
O 	O 	0.63932 0.34329 0.08155 -0.35700
O 	O 	0.70619 0.41893 0.94429 -0.36800
C 	C 	0.70565 0.46027 0.97001 0.29300
C 	C 	0.51529 0.23580 0.99908 0.28600
O 	O 	0.55007 0.29040 0.98662 -0.38600
O 	O 	0.66629 0.44172 0.99675 -0.38600
O 	O 	0.66649 0.27485 0.07204 -0.34600
C 	C 	0.72221 0.21771 0.99810 0.29000
O 	O 	0.64712 0.31431 0.88463 -0.35700
O 	O 	0.61901 0.21245 0.87218 -0.40300
H 	H 	0.73113 0.37296 0.01514 0.17100
H 	H 	0.56964 0.20930 0.93928 0.18200
Cu	Cu	0.72039 0.32053 0.44659 0.92500
Cu	Cu	0.75341 0.29397 0.53708 0.87800
Cu	Cu	0.63992 0.30975 0.51116 0.91300
Cu	Cu	0.60572 0.33199 0.42713 0.90200
C 	C 	0.67355 0.31812 0.36434 0.25700
O 	O 	0.76916 0.41460 0.44331 -0.36000
C 	C 	0.67361 0.29465 0.59007 0.25600
O 	O 	0.62519 0.28248 0.45239 -0.63400
O 	O 	0.72944 0.34040 0.50772 -0.63000
O 	O 	0.74684 0.26262 0.44130 -0.35600
O 	O 	0.81295 0.30450 0.50444 -0.42000
O 	O 	0.62343 0.31578 0.37146 -0.35800
O 	O 	0.55148 0.27314 0.51284 -0.36400
C 	C 	0.51328 0.27318 0.48376 0.29000
C 	C 	0.74622 0.44615 0.45334 0.28600
O 	O 	0.69115 0.41715 0.46574 -0.38500
O 	O 	0.53677 0.31403 0.45821 -0.38100
O 	O 	0.69554 0.29449 0.38764 -0.33500
C 	C 	0.79192 0.26853 0.46761 0.29000
O 	O 	0.65706 0.32583 0.57110 -0.36500
O 	O 	0.68454 0.25857 0.56833 -0.40100
H 	H 	0.59277 0.23584 0.44297 0.17400
H 	H 	0.76044 0.38677 0.51880 0.16200
C 	C 	0.65500 0.25650 0.69032 0.11600
C 	C 	0.62382 0.21259 0.71639 -0.08700
C 	C 	0.60189 0.22862 0.74888 0.01300
C 	C 	0.61384 0.28747 0.75685 0.11800
C 	C 	0.64333 0.33064 0.72996 -0.08400
C 	C 	0.66556 0.31464 0.69768 0.01200
O 	O 	0.65713 0.23815 0.64995 -0.18900
C 	C 	0.66787 0.29000 0.63363 0.04100
C 	C 	0.67314 0.33592 0.66172 -0.06000
O 	O 	0.61655 0.30747 0.79813 -0.18100
C 	C 	0.60624 0.25555 0.81422 0.04400
C 	C 	0.59702 0.20825 0.78504 -0.05700
H 	H 	0.61573 0.16697 0.71103 0.06900
H 	H 	0.65176 0.37641 0.73537 0.07300
H 	H 	0.66617 0.37072 0.65379 0.06300
H 	H 	0.60601 0.17445 0.79202 0.05500
C 	C 	0.73448 0.33458 0.27131 0.11600
C 	C 	0.73695 0.30939 0.23268 -0.08200
C 	C 	0.74037 0.33988 0.19922 0.01200
C 	C 	0.73154 0.38684 0.20214 0.12000
C 	C 	0.72336 0.40810 0.23988 -0.08700
C 	C 	0.72984 0.38438 0.27478 0.01800
O 	O 	0.71343 0.29928 0.30276 -0.17800
C 	C 	0.69361 0.33129 0.32428 0.05400
C 	C 	0.70361 0.38210 0.30817 -0.06300
O 	O 	0.70864 0.39237 0.16433 -0.19000
C 	C 	0.70362 0.34370 0.13863 0.04800
C 	C 	0.72220 0.31201 0.15901 -0.05500
H 	H 	0.73248 0.26554 0.22831 0.07400
H 	H 	0.70849 0.43882 0.24135 0.07200
H 	H 	0.67990 0.40384 0.31431 0.06400
H 	H 	0.70634 0.26400 0.14768 0.06800
C 	C 	0.84982 0.74091 0.48061 -0.02300
C 	C 	0.86190 0.70998 0.44994 0.01100
C 	C 	0.89647 0.74271 0.41992 -0.04200
C 	C 	0.92038 0.80638 0.42081 -0.00400
C 	C 	0.91013 0.83803 0.45229 -0.01300
C 	C 	0.87386 0.80468 0.48156 -0.02000
C 	C 	0.83558 0.64215 0.44772 0.02800
C 	C 	0.77538 0.59470 0.42309 -0.06100
C 	C 	0.74721 0.53023 0.42290 0.03000
C 	C 	0.77958 0.51272 0.44770 -0.08500
C 	C 	0.84139 0.56013 0.47058 0.01500
C 	C 	0.86949 0.62479 0.47083 -0.04300
C 	C 	0.68480 0.48231 0.39744 0.05500
C 	C 	0.93253 0.67299 0.49539 0.09400
C 	C 	0.81333 0.70769 0.51140 0.09100
C 	C 	0.95461 0.83868 0.38896 0.08800
N 	N 	0.63473 0.44406 0.37708 -0.12500
N 	N 	0.98304 0.71166 0.51507 -0.11200
N 	N 	0.98205 0.86461 0.36348 -0.10400
N 	N 	0.78410 0.68102 0.53605 -0.10900
H 	H 	0.86582 0.82888 0.50573 0.05400
H 	H 	0.90461 0.71850 0.39583 0.05300
H 	H 	0.74992 0.60809 0.40466 0.05800
H 	H 	0.86665 0.54682 0.48932 0.03600
C 	C 	0.89010 0.20662 0.46201 -0.03600
C 	C 	0.84184 0.14010 0.45184 0.02400
C 	C 	0.77723 0.11605 0.44466 -0.06000
C 	C 	0.76019 0.15749 0.44866 0.02600
C 	C 	0.80850 0.22420 0.45925 -0.08600
C 	C 	0.87320 0.24824 0.46549 0.01100
C 	C 	0.85853 0.09513 0.45059 0.01400
C 	C 	0.85665 0.06759 0.48532 -0.04700
C 	C 	0.87846 0.03014 0.48646 0.00400
C 	C 	0.90269 0.02031 0.45261 -0.02800
C 	C 	0.90083 0.04458 0.41688 -0.01500
C 	C 	0.87860 0.08164 0.41562 -0.02600
C 	C 	0.87760 0.00353 0.52295 0.07100
C 	C 	0.87769 0.10670 0.37867 0.09200
C 	C 	0.95703 0.23246 0.46959 0.08100
C 	C 	0.69313 0.13098 0.44384 0.06800
N 	N 	0.87692 0.98219 0.55217 -0.09900
N 	N 	0.87696 0.12682 0.34909 -0.10800
N 	N 	0.63941 0.10971 0.43999 -0.11100
N 	N 	0.01063 0.25308 0.47565 -0.09600
H 	H 	0.91039 0.29934 0.47372 0.04200
H 	H 	0.74015 0.06489 0.43687 0.05700
H 	H 	0.83979 0.07673 0.51186 0.05100
H 	H 	0.91880 0.03644 0.39062 0.05000
C 	C 	0.21371 0.11338 0.51611 -0.02300
C 	C 	0.24250 0.13125 0.48098 0.01200
C 	C 	0.20412 0.11150 0.44173 -0.04100
C 	C 	0.13730 0.07316 0.43713 -0.00100
C 	C 	0.10848 0.05434 0.47214 -0.01400
C 	C 	0.14685 0.07491 0.51148 -0.01800
C 	C 	0.31270 0.16863 0.48471 0.02800
C 	C 	0.34065 0.13674 0.48315 -0.05900
C 	C 	0.40640 0.17059 0.48358 0.02700
C 	C 	0.44481 0.23723 0.48570 -0.07900
C 	C 	0.41702 0.26930 0.48824 0.01600
C 	C 	0.35125 0.23537 0.48782 -0.04100
C 	C 	0.43369 0.13632 0.48041 0.07200
C 	C 	0.32358 0.26929 0.49054 0.09800
C 	C 	0.25249 0.13430 0.55693 0.09200
C 	C 	0.09855 0.05243 0.39630 0.09200
N 	N 	0.45556 0.10889 0.47786 -0.11100
N 	N 	0.30136 0.29641 0.49271 -0.10700
N 	N 	0.06745 0.03578 0.36362 -0.10100
N 	N 	0.28361 0.15109 0.58962 -0.10700
H 	H 	0.12458 0.06057 0.53843 0.05200
H 	H 	0.22636 0.12546 0.41475 0.05500
H 	H 	0.31090 0.08537 0.48088 0.05900
H 	H 	0.44663 0.32065 0.49040 0.04700
C 	C 	0.86822 0.75995 0.93667 -0.02400
C 	C 	0.83716 0.72656 0.96784 0.01100
C 	C 	0.83891 0.75975 0.00450 -0.04100
C 	C 	0.87257 0.82605 0.01075 -0.00300
C 	C 	0.90502 0.85972 0.98000 -0.01400
C 	C 	0.90208 0.82629 0.94294 -0.02000
C 	C 	0.80374 0.65691 0.96282 0.02700
C 	C 	0.83907 0.63389 0.97270 -0.05900
C 	C 	0.80763 0.56883 0.97286 0.02600
C 	C 	0.74009 0.52634 0.96327 -0.07800
C 	C 	0.70503 0.54891 0.95129 0.01600
C 	C 	0.73649 0.61386 0.95090 -0.04100
C 	C 	0.84485 0.54642 0.98423 0.06900
C 	C 	0.69944 0.63614 0.93866 0.09700
C 	C 	0.86558 0.72647 0.89822 0.09000
C 	C 	0.87516 0.85933 0.04929 0.09000
N 	N 	0.87466 0.52845 0.99335 -0.11400
N 	N 	0.66980 0.65404 0.92886 -0.10900
N 	N 	0.87719 0.88592 0.08018 -0.10000
N 	N 	0.86344 0.69960 0.86742 -0.10900
H 	H 	0.92675 0.85209 0.91919 0.05100
H 	H 	0.81464 0.73394 0.02837 0.05400
H 	H 	0.89092 0.66692 0.98125 0.05700
H 	H 	0.65312 0.51606 0.94320 0.04400
C 	C 	0.86113 0.20974 0.01935 -0.04300
C 	C 	0.82942 0.14328 0.01196 0.02700
C 	C 	0.76225 0.10155 0.00445 -0.06100
C 	C 	0.72644 0.12535 0.00191 0.02600
C 	C 	0.75817 0.19187 0.00732 -0.08800
C 	C 	0.82541 0.23365 0.01690 0.01500
C 	C 	0.86601 0.11685 0.00916 0.01100
C 	C 	0.88149 0.09851 0.04404 -0.04100
C 	C 	0.91315 0.07038 0.04136 -0.00500
C 	C 	0.92922 0.06014 0.00335 -0.01000
C 	C 	0.91516 0.07991 0.96876 -0.02300
C 	C 	0.88352 0.10802 0.97142 -0.02400
C 	C 	0.92959 0.05281 0.07784 0.08900
C 	C 	0.86863 0.12714 0.93521 0.08700
C 	C 	0.93029 0.25363 0.02867 0.09500
C 	C 	0.65730 0.08109 0.99188 0.06600
N 	N 	0.94283 0.03882 0.10708 -0.10400
N 	N 	0.85667 0.14249 0.90623 -0.11500
N 	N 	0.60192 0.04562 0.98384 -0.10900
N 	N 	0.98571 0.28875 0.03612 -0.11100
H 	H 	0.84992 0.28477 0.02146 0.04000
H 	H 	0.73787 0.05042 0.99925 0.05700
H 	H 	0.86855 0.10581 0.07316 0.05400
H 	H 	0.92795 0.07246 0.93960 0.05100
C 	C 	0.36429 0.21464 0.01683 -0.04100
C 	C 	0.31676 0.15001 0.99863 0.02800
C 	C 	0.33455 0.11336 0.98068 -0.05900
C 	C 	0.39932 0.14066 0.98079 0.02900
C 	C 	0.44687 0.20540 0.99899 -0.08100
C 	C 	0.42893 0.24199 0.01683 0.01700
C 	C 	0.24816 0.12008 0.99866 0.01100
C 	C 	0.21294 0.12656 0.96757 -0.04100
C 	C 	0.14797 0.09858 0.96704 -0.00300
C 	C 	0.11772 0.06349 0.99787 -0.01400
C 	C 	0.15327 0.05791 0.02931 -0.01900
C 	C 	0.21825 0.08609 0.02992 -0.02300
C 	C 	0.11235 0.10483 0.93425 0.09000
C 	C 	0.25396 0.07996 0.06271 0.09200
C 	C 	0.34709 0.25307 0.03586 0.09600
C 	C 	0.41637 0.10242 0.96124 0.07300
N 	N 	0.08378 0.10981 0.90800 -0.10500
N 	N 	0.28263 0.07508 0.08896 -0.10600
N 	N 	0.43006 0.07181 0.94557 -0.11100
N 	N 	0.33326 0.28380 0.05110 -0.10800
H 	H 	0.46545 0.29172 0.03097 0.03300
H 	H 	0.29792 0.06361 0.96663 0.05800
H 	H 	0.23612 0.15319 0.94372 0.05400
H 	H 	0.13008 0.03100 0.05306 0.05400
