data_crystal

_cell_length_a 26.04891
_cell_length_b 26.41800
_cell_length_c 34.88428
_cell_angle_alpha 95.57216
_cell_angle_beta  95.56815
_cell_angle_gamma 125.66233

_symmetry_space_group_name_	'P 1'
_symmetry_space_group_name_H-M	'P 1'

loop_
_symmetry_equiv_pos_as_xyz
  x,y,z

loop_
_atom_site_label
_atom_site_type_symbol
_atom_site_fract_x
_atom_site_fract_y
_atom_site_fract_z
_atom_site_charge
C 	C 	0.96631 0.02443 0.98801 0.13600
N 	N 	0.02907 0.05490 0.98492 -0.12800
C 	C 	0.05445 0.02228 0.98265 0.14300
N 	N 	0.01692 0.95924 0.98312 -0.12700
C 	C 	0.95436 0.92876 0.98627 0.14100
N 	N 	0.92917 0.96144 0.98893 -0.12900
C 	C 	0.93611 0.99708 0.45916 0.15000
N 	N 	0.90495 0.93466 0.46091 -0.14300
C 	C 	0.93826 0.90982 0.46309 0.14200
N 	N 	0.00268 0.94764 0.46415 -0.11800
C 	C 	0.03383 0.00994 0.46256 0.14400
N 	N 	0.00057 0.03464 0.46019 -0.13200
Cu	Cu	0.64098 0.24247 0.00209 0.93100
Cu	Cu	0.71716 0.28003 0.92931 0.86600
Cu	Cu	0.66324 0.34116 0.95505 0.89600
Cu	Cu	0.64050 0.35806 0.03609 0.90300
C 	C 	0.65356 0.27924 0.08437 0.29400
O 	O 	0.54644 0.20664 0.99860 -0.33800
C 	C 	0.65968 0.31468 0.87116 0.29100
O 	O 	0.69006 0.34141 0.00918 -0.63800
O 	O 	0.63842 0.25401 0.94744 -0.64500
O 	O 	0.67995 0.19664 0.99745 -0.34300
O 	O 	0.76274 0.27671 0.97383 -0.43500
O 	O 	0.62120 0.30153 0.07489 -0.37300
O 	O 	0.68111 0.42455 0.96210 -0.36300
C 	C 	0.70612 0.46580 0.99540 0.31300
C 	C 	0.52345 0.23671 0.98608 0.30000
O 	O 	0.56282 0.29795 0.98635 -0.39700
O 	O 	0.69161 0.44716 0.02898 -0.38600
O 	O 	0.66012 0.24615 0.05723 -0.35000
C 	C 	0.73689 0.22424 0.98790 0.31100
O 	O 	0.64077 0.33444 0.89900 -0.36700
O 	O 	0.68811 0.28738 0.87853 -0.40700
H 	H 	0.73716 0.37011 0.01897 0.16400
H 	H 	0.59767 0.22234 0.92860 0.18600
Cu	Cu	0.73922 0.33850 0.45652 0.93200
Cu	Cu	0.72289 0.28247 0.53737 0.86900
Cu	Cu	0.63894 0.31149 0.50541 0.89800
Cu	Cu	0.61705 0.33102 0.42524 0.90100
C 	C 	0.69386 0.31635 0.37418 0.29400
O 	O 	0.77244 0.42995 0.45548 -0.34200
C 	C 	0.67376 0.32893 0.59060 0.28800
O 	O 	0.63874 0.28547 0.45188 -0.64000
O 	O 	0.73162 0.34848 0.51179 -0.64300
O 	O 	0.78666 0.30102 0.46213 -0.36100
O 	O 	0.71286 0.22681 0.49346 -0.43400
O 	O 	0.66853 0.34593 0.38316 -0.37200
O 	O 	0.54709 0.26911 0.49916 -0.38000
C 	C 	0.50886 0.26560 0.46940 0.31700
C 	C 	0.74186 0.45234 0.46809 0.30300
O 	O 	0.68150 0.41275 0.47162 -0.39800
O 	O 	0.52858 0.28524 0.43668 -0.37300
O 	O 	0.73066 0.31378 0.40145 -0.34900
C 	C 	0.75913 0.24607 0.47335 0.31500
O 	O 	0.64513 0.33727 0.56106 -0.36900
O 	O 	0.71652 0.31800 0.58589 -0.40600
H 	H 	0.61115 0.23900 0.44230 0.17500
H 	H 	0.76070 0.39195 0.52769 0.18500
C 	C 	0.65485 0.38104 0.78006 -0.03700
C 	C 	0.63958 0.33129 0.75060 0.02100
C 	C 	0.61957 0.27255 0.76041 -0.03900
C 	C 	0.61809 0.26492 0.79978 0.02100
C 	C 	0.64358 0.31785 0.82986 -0.07400
C 	C 	0.65952 0.37542 0.81985 0.02100
C 	C 	0.64884 0.34207 0.70976 0.02100
C 	C 	0.60228 0.22064 0.73016 0.09800
C 	C 	0.68246 0.42931 0.85030 0.09000
C 	C 	0.71131 0.37683 0.70104 -0.03900
C 	C 	0.71937 0.37947 0.66176 0.02200
C 	C 	0.66519 0.34157 0.63101 -0.07400
C 	C 	0.60276 0.31060 0.63978 0.01900
C 	C 	0.59500 0.31332 0.67922 -0.03700
C 	C 	0.76707 0.40824 0.73237 0.09800
C 	C 	0.54658 0.27407 0.60848 0.08500
C 	C 	0.78304 0.42249 0.65300 0.08500
C 	C 	0.53166 0.28560 0.68845 0.10100
C 	C 	0.66667 0.43820 0.76941 0.10200
C 	C 	0.58872 0.20240 0.80926 0.08200
N 	N 	0.83384 0.45685 0.64601 -0.11100
N 	N 	0.81153 0.43327 0.75740 -0.11200
N 	N 	0.50165 0.24488 0.58358 -0.10200
N 	N 	0.48113 0.26349 0.69586 -0.10700
N 	N 	0.58850 0.17926 0.70600 -0.11300
N 	N 	0.56526 0.15252 0.81682 -0.11300
N 	N 	0.70073 0.47238 0.87453 -0.09300
N 	N 	0.67610 0.48380 0.76086 -0.10700
C 	C 	0.74608 0.30833 0.27695 -0.03700
C 	C 	0.68785 0.28063 0.25055 0.02200
C 	C 	0.63038 0.25598 0.26496 -0.03700
C 	C 	0.63186 0.26183 0.30570 0.02100
C 	C 	0.69138 0.29738 0.33218 -0.07300
C 	C 	0.74861 0.31950 0.31771 0.02400
C 	C 	0.68784 0.28197 0.20781 0.02300
C 	C 	0.57008 0.22609 0.23790 0.10100
C 	C 	0.81024 0.35617 0.34439 0.09800
C 	C 	0.66239 0.22582 0.18078 -0.03700
C 	C 	0.65130 0.22438 0.14016 0.02500
C 	C 	0.67141 0.28086 0.12644 -0.07500
C 	C 	0.70429 0.33860 0.15357 0.02100
C 	C 	0.70979 0.33867 0.19415 -0.03700
C 	C 	0.64690 0.16942 0.19485 0.10300
C 	C 	0.73307 0.39798 0.13967 0.06800
C 	C 	0.61675 0.16448 0.11281 0.09900
C 	C 	0.73665 0.39672 0.22183 0.10000
C 	C 	0.80351 0.32628 0.26210 0.10300
C 	C 	0.57217 0.23090 0.32044 0.07200
N 	N 	0.58916 0.11664 0.09102 -0.09400
N 	N 	0.63454 0.12445 0.20613 -0.10600
N 	N 	0.75602 0.44533 0.12855 -0.11700
N 	N 	0.75806 0.44298 0.24396 -0.10800
N 	N 	0.52200 0.20226 0.21627 -0.10700
N 	N 	0.52458 0.20625 0.33223 -0.11400
N 	N 	0.85946 0.38545 0.36564 -0.09700
N 	N 	0.84931 0.34059 0.25020 -0.10700
C 	C 	0.88565 0.74176 0.43839 -0.09800
C 	C 	0.85166 0.71513 0.46831 -0.00500
C 	C 	0.84296 0.75155 0.49527 0.14000
C 	C 	0.86952 0.81468 0.49265 -0.06500
C 	C 	0.90457 0.84170 0.46313 -0.05500
C 	C 	0.91165 0.80460 0.43552 0.16500
C 	C 	0.82289 0.64821 0.47025 0.01200
O 	O 	0.81052 0.72625 0.52500 -0.27300
H 	H 	0.86409 0.84301 0.51409 0.06900
O 	O 	0.94514 0.83013 0.40620 -0.27000
H 	H 	0.89167 0.71361 0.41722 0.07600
C 	C 	0.75756 0.60055 0.45418 0.11800
C 	C 	0.73124 0.53688 0.45430 -0.03000
C 	C 	0.76997 0.52000 0.46979 -0.11900
C 	C 	0.83528 0.56781 0.48629 0.19500
C 	C 	0.86157 0.63165 0.48624 -0.11100
O 	O 	0.71921 0.61619 0.43864 -0.27400
H 	H 	0.68092 0.50046 0.44155 0.05400
O 	O 	0.87362 0.55228 0.50202 -0.28200
H 	H 	0.91204 0.66823 0.49850 0.08300
H 	H 	0.91264 0.82162 0.38401 0.15200
H 	H 	0.72258 0.61574 0.41054 0.15000
H 	H 	0.86980 0.55243 0.53004 0.15000
H 	H 	0.76501 0.70768 0.51443 0.16000
C 	C 	0.75957 0.10387 0.44769 -0.11500
C 	C 	0.82538 0.13178 0.45773 0.01200
C 	C 	0.86980 0.19793 0.47035 0.11900
C 	C 	0.84807 0.23549 0.47351 -0.03100
C 	C 	0.78198 0.20730 0.46505 -0.12600
C 	C 	0.73767 0.14121 0.45159 0.19600
C 	C 	0.84763 0.09154 0.45590 -0.00600
O 	O 	0.93446 0.22597 0.47940 -0.26600
H 	H 	0.88249 0.28630 0.48375 0.05900
O 	O 	0.67322 0.11337 0.44100 -0.28600
H 	H 	0.72528 0.05306 0.43736 0.07500
C 	C 	0.84061 0.05654 0.48554 0.13200
C 	C 	0.86698 0.02303 0.48544 -0.06900
C 	C 	0.90028 0.02412 0.45587 -0.06300
C 	C 	0.90435 0.05646 0.42515 0.16600
C 	C 	0.87834 0.09025 0.42538 -0.09300
O 	O 	0.81095 0.05771 0.51567 -0.27900
H 	H 	0.86345 0.99805 0.50910 0.07100
O 	O 	0.93555 0.05678 0.39557 -0.27700
H 	H 	0.88307 0.11639 0.40220 0.08100
H 	H 	0.65494 0.09890 0.46473 0.15100
H 	H 	0.76497 0.02117 0.50685 0.14600
H 	H 	0.90193 0.01944 0.37512 0.15100
H 	H 	0.94330 0.22624 0.50776 0.15100
C 	C 	0.19644 0.06984 0.43866 -0.09300
C 	C 	0.23716 0.12558 0.46704 -0.00600
C 	C 	0.21087 0.14428 0.49324 0.14000
C 	C 	0.14416 0.10705 0.49104 -0.06400
C 	C 	0.10348 0.05051 0.46323 -0.05000
C 	C 	0.12980 0.03242 0.43657 0.16000
C 	C 	0.30740 0.16344 0.46977 0.01300
O 	O 	0.25024 0.19928 0.52071 -0.27200
H 	H 	0.12416 0.12149 0.51145 0.07300
O 	O 	0.09051 0.97775 0.40883 -0.26100
H 	H 	0.21653 0.05540 0.41833 0.07300
C 	C 	0.34174 0.14263 0.48649 0.11600
C 	C 	0.40788 0.17708 0.48717 -0.02600
C 	C 	0.44017 0.23223 0.47100 -0.11900
C 	C 	0.40607 0.25416 0.45543 0.19800
C 	C 	0.33980 0.21935 0.45451 -0.11100
O 	O 	0.31094 0.08930 0.50288 -0.26700
H 	H 	0.43379 0.16016 0.49953 0.06200
O 	O 	0.43725 0.30911 0.44069 -0.28400
H 	H 	0.31354 0.23573 0.44181 0.08600
H 	H 	0.07910 0.99063 0.38563 0.15800
H 	H 	0.29686 0.05380 0.48141 0.15000
H 	H 	0.45168 0.34332 0.46321 0.15600
H 	H 	0.26130 0.18666 0.54419 0.15900
C 	C 	0.82305 0.62720 0.97076 -0.11300
C 	C 	0.80733 0.66301 0.99154 0.01300
C 	C 	0.75840 0.63406 0.01369 0.12000
C 	C 	0.72518 0.56947 0.01468 -0.02900
C 	C 	0.74111 0.53361 0.99407 -0.11700
C 	C 	0.79069 0.56288 0.97231 0.19700
C 	C 	0.84383 0.73133 0.99124 -0.00300
O 	O 	0.74216 0.66856 0.03375 -0.26600
H 	H 	0.68684 0.54720 0.03133 0.06400
O 	O 	0.80748 0.52869 0.95250 -0.29000
H 	H 	0.86103 0.64950 0.95385 0.07700
C 	C 	0.90395 0.77489 0.01622 0.13200
C 	C 	0.93913 0.83957 0.01511 -0.06600
C 	C 	0.91501 0.86117 0.98883 -0.05200
C 	C 	0.85466 0.81753 0.96390 0.16500
C 	C 	0.81912 0.75289 0.96541 -0.09200
O 	O 	0.92766 0.75445 0.04241 -0.27400
H 	H 	0.98533 0.87296 0.03458 0.07500
O 	O 	0.83039 0.83793 0.93808 -0.27300
H 	H 	0.77272 0.71941 0.94617 0.08200
H 	H 	0.84153 0.53318 0.97141 0.14000
H 	H 	0.95357 0.74543 0.02828 0.14900
H 	H 	0.84620 0.83611 0.91362 0.15200
H 	H 	0.76991 0.68578 0.06016 0.15700
C 	C 	0.91218 0.12550 0.96568 -0.09700
C 	C 	0.87750 0.11864 0.99560 -0.00400
C 	C 	0.87524 0.08389 0.02432 0.13600
C 	C 	0.90557 0.05433 0.02214 -0.06600
C 	C 	0.93900 0.05984 0.99168 -0.05100
C 	C 	0.94264 0.09603 0.96351 0.16400
C 	C 	0.84114 0.14541 0.99574 0.01200
O 	O 	0.84170 0.07711 0.05382 -0.27000
H 	H 	0.90274 0.02673 0.04401 0.07200
O 	O 	0.97556 0.10231 0.93372 -0.28000
H 	H 	0.91442 0.15262 0.94364 0.06800
C 	C 	0.87332 0.21095 0.00800 0.11300
C 	C 	0.83862 0.23614 0.00668 -0.03300
C 	C 	0.77183 0.19638 0.99276 -0.12300
C 	C 	0.73959 0.13062 0.98086 0.19200
C 	C 	0.77425 0.10542 0.98270 -0.11000
O 	O 	0.93842 0.25021 0.02215 -0.27000
H 	H 	0.86374 0.28669 0.01618 0.05900
O 	O 	0.67436 0.09100 0.96717 -0.27400
H 	H 	0.74925 0.05485 0.97332 0.08400
H 	H 	0.94337 0.06644 0.91205 0.15100
H 	H 	0.95840 0.26517 0.99898 0.14800
H 	H 	0.66895 0.08923 0.93841 0.14200
H 	H 	0.87330 0.11340 0.07542 0.15800
C 	C 	0.34281 0.11128 0.95988 -0.11300
C 	C 	0.32107 0.14541 0.97489 0.00900
C 	C 	0.36562 0.21019 0.99155 0.12600
C 	C 	0.43152 0.23991 0.99437 -0.03000
C 	C 	0.45364 0.20552 0.98038 -0.11600
C 	C 	0.40885 0.14121 0.96225 0.19400
C 	C 	0.25219 0.11226 0.97589 -0.00000
O 	O 	0.34496 0.24374 0.00691 -0.27200
H 	H 	0.46555 0.28940 0.00840 0.05500
O 	O 	0.42948 0.10729 0.94749 -0.28000
H 	H 	0.30856 0.06138 0.94680 0.07900
C 	C 	0.21335 0.11850 0.94884 0.13400
C 	C 	0.14918 0.09065 0.95191 -0.06200
C 	C 	0.12313 0.05553 0.98142 -0.05400
C 	C 	0.16217 0.04953 0.00853 0.16600
C 	C 	0.22625 0.07745 0.00548 -0.09800
O 	O 	0.23845 0.15301 0.92000 -0.27500
H 	H 	0.11940 0.09544 0.93094 0.07400
O 	O 	0.13753 0.01584 0.03779 -0.28000
H 	H 	0.25612 0.07284 0.02650 0.08000
H 	H 	0.43178 0.11288 0.91984 0.14900
H 	H 	0.23076 0.12211 0.89735 0.15100
H 	H 	0.14547 0.04722 0.06020 0.15600
H 	H 	0.33887 0.26234 0.98513 0.16200
