data_crystal

_cell_length_a 20.23788
_cell_length_b 21.47014
_cell_length_c 31.34795
_cell_angle_alpha 60.97196
_cell_angle_beta  118.75903
_cell_angle_gamma 133.17369

_symmetry_space_group_name_	'P 1'
_symmetry_space_group_name_H-M	'P 1'

loop_
_symmetry_equiv_pos_as_xyz
  x,y,z

loop_
_atom_site_label
_atom_site_type_symbol
_atom_site_fract_x
_atom_site_fract_y
_atom_site_fract_z
_atom_site_charge
C 	C 	0.00032 0.99192 0.76791 0.33600
Co	Co	0.04405 0.88978 0.13400 1.19900
C 	C 	0.02317 0.97869 0.96109 0.34100
O 	O 	0.00663 0.01372 0.97715 -0.35600
O 	O 	0.07588 0.81107 0.08899 -0.36200
Co	Co	0.02584 0.86279 0.64404 1.19300
O 	O 	0.00546 0.99190 0.48117 -0.28900
O 	O 	0.01473 0.95186 0.75454 -0.33600
O 	O 	0.05568 0.77541 0.60452 -0.37800
C 	C 	0.01537 0.98209 0.82180 -0.03400
C 	C 	0.00629 0.95576 0.41695 -0.04000
O 	O 	0.03704 0.91841 0.99210 -0.30100
O 	O 	0.03518 0.12109 0.03637 -0.39400
O 	O 	0.02490 0.09687 0.54027 -0.38600
O 	O 	0.05889 0.92634 0.58837 -0.73000
C 	C 	0.03829 0.93756 0.35861 -0.01400
C 	C 	0.05584 0.94001 0.40742 0.17300
O 	O 	0.03711 0.99909 0.12185 -0.51600
F 	F 	0.07777 0.71189 0.22425 -0.42300
Co	Co	0.07220 0.04535 0.04834 1.17400
C 	C 	0.01405 0.20022 0.13301 0.31800
O 	O 	0.08489 0.96281 0.08123 -0.71700
Co	Co	0.05346 0.01314 0.55416 1.17300
C 	C 	0.03131 0.19542 0.63619 0.31300
H 	H 	0.07794 0.92801 0.35154 0.11400
F 	F 	0.00426 0.17908 0.23784 -0.43200
O 	O 	0.05178 0.18423 0.11824 -0.31600
O 	O 	0.06243 0.16889 0.62463 -0.33200
C 	C 	0.08127 0.06467 0.88196 0.11400
C 	C 	0.08600 0.05784 0.84089 -0.05200
C 	C 	0.07066 0.35711 0.55443 0.77600
F 	F 	0.06760 0.52512 0.72987 -0.37700
H 	H 	0.03745 0.33842 0.05485 0.11500
F 	F 	0.02243 0.46013 0.00326 -0.40400
C 	C 	0.00920 0.94145 0.46976 0.31100
C 	C 	0.06329 0.35375 0.09023 0.07000
C 	C 	0.06329 0.29069 0.13528 0.00800
F 	F 	0.07268 0.54929 0.04601 -0.41700
O 	O 	0.01403 0.87754 0.50443 -0.37200
C 	C 	0.00721 0.99270 0.90640 -0.01100
N 	N 	0.12232 0.93008 0.44430 -0.18700
Co	Co	0.12441 0.90719 0.56554 1.18500
C 	C 	0.09319 0.28213 0.64768 0.00200
C 	C 	0.09915 0.35614 0.60910 -0.05300
F 	F 	0.10098 0.44082 0.52359 -0.37800
F 	F 	0.10880 0.32893 0.54792 -0.39500
F 	F 	0.11677 0.58229 0.79164 -0.35000
C 	C 	0.09445 0.43561 0.09064 -0.12000
C 	C 	0.09139 0.50180 0.04164 0.78800
F 	F 	0.10065 0.25600 0.78892 -0.42100
C 	C 	0.09390 0.30960 0.18155 -0.06500
C 	C 	0.09411 0.24308 0.23103 0.77700
H 	H 	0.12991 0.71618 0.73351 0.13400
C 	C 	0.11818 0.28264 0.69780 0.08200
H 	H 	0.11423 0.22649 0.72739 0.07700
H 	H 	0.13061 0.57640 0.14563 0.11600
H 	H 	0.13159 0.54241 0.67142 0.13000
H 	H 	0.14158 0.11419 0.82162 0.10200
H 	H 	0.14050 0.15080 0.92393 0.14200
C 	C 	0.12777 0.42768 0.62173 0.02700
H 	H 	0.13567 0.48568 0.59264 0.12700
F 	F 	0.12671 0.38629 0.76549 -0.36700
C 	C 	0.12278 0.39080 0.18136 0.02600
C 	C 	0.13375 0.45723 0.13698 0.08900
F 	F 	0.12823 0.20476 0.23141 -0.42300
C 	C 	0.13927 0.35068 0.70976 -0.11300
Co	Co	0.14593 0.94498 0.05388 1.19500
O 	O 	0.14735 0.86747 0.68933 -0.31800
H 	H 	0.14962 0.94649 0.47799 0.11400
C 	C 	0.97567 0.97309 0.26549 0.36100
O 	O 	0.96752 0.03585 0.23220 -0.35300
O 	O 	0.98403 0.04965 0.73447 -0.40300
Co	Co	0.97530 0.07409 0.09184 1.19000
C 	C 	0.26040 0.13920 0.03475 0.31100
C 	C 	0.22564 0.91086 0.16048 0.30900
O 	O 	0.92588 0.14270 0.13523 -0.34800
O 	O 	0.24525 0.97303 0.11913 -0.31200
O 	O 	0.15946 0.88389 0.17818 -0.26500
O 	O 	0.21826 0.07530 0.01497 -0.41200
O 	O 	0.21303 0.14269 0.05020 -0.31800
Co	Co	0.96806 0.05846 0.59512 1.17900
C 	C 	0.24032 0.10230 0.54472 0.32800
C 	C 	0.20774 0.88408 0.67193 0.30900
O 	O 	0.94298 0.14659 0.63529 -0.35300
O 	O 	0.22653 0.94064 0.62910 -0.32300
O 	O 	0.19767 0.03734 0.52570 -0.38600
O 	O 	0.19657 0.10094 0.56586 -0.35900
N 	N 	0.14695 0.14118 0.89691 -0.19000
H 	H 	0.20300 0.19348 0.87982 0.17500
H 	H 	0.15243 0.91156 0.43799 0.15700
F 	F 	0.97465 0.30170 0.53973 -0.40400
C 	C 	0.19558 0.67584 0.72473 -0.10000
C 	C 	0.18308 0.73750 0.71897 0.07700
C 	C 	0.23994 0.82672 0.69464 0.01300
C 	C 	0.14542 0.58419 0.75857 0.79400
F 	F 	0.20343 0.55761 0.78688 -0.37500
F 	F 	0.17632 0.55914 0.02909 -0.36100
C 	C 	0.21466 0.70892 0.19736 0.01500
C 	C 	0.26066 0.85728 0.17827 0.01700
C 	C 	0.21201 0.76732 0.20486 -0.06900
C 	C 	0.16768 0.73563 0.24531 0.78300
H 	H 	0.17731 0.63999 0.21705 0.12400
F 	F 	0.16447 0.66327 0.28110 -0.37200
F 	F 	0.21881 0.80121 0.26951 -0.37700
F 	F 	0.84202 0.45735 0.69838 -0.34400
F 	F 	0.82093 0.56178 0.67042 -0.38500
F 	F 	0.93222 0.23407 0.99388 -0.40800
F 	F 	0.95409 0.77342 0.96701 -0.42800
C 	C 	0.74494 0.29342 0.04813 0.06500
C 	C 	0.65243 0.26347 0.03751 -0.01000
C 	C 	0.63428 0.30976 0.04474 0.08100
C 	C 	0.70797 0.38786 0.06013 -0.02400
C 	C 	0.80006 0.42246 0.06693 0.07400
C 	C 	0.81923 0.37541 0.06090 -0.01000
H 	H 	0.59494 0.20193 0.02635 0.13100
H 	H 	0.69352 0.42358 0.06542 0.11000
H 	H 	0.89069 0.40095 0.06732 0.12100
C 	C 	0.72373 0.29089 0.53025 0.06500
C 	C 	0.79112 0.37922 0.53391 -0.00500
C 	C 	0.76421 0.42497 0.53372 0.07900
C 	C 	0.67002 0.38510 0.52572 -0.01300
C 	C 	0.60441 0.29566 0.52700 0.06700
C 	C 	0.63006 0.24912 0.52707 -0.01400
H 	H 	0.86418 0.41042 0.53950 0.13300
H 	H 	0.64941 0.42096 0.52492 0.11400
H 	H 	0.57875 0.17968 0.52756 0.10600
C 	C 	0.27867 0.68021 0.16244 0.07200
C 	C 	0.19993 0.59956 0.14927 -0.02200
C 	C 	0.21152 0.54911 0.14072 0.07800
C 	C 	0.30063 0.58101 0.14315 -0.02000
C 	C 	0.37886 0.65980 0.15700 0.07800
C 	C 	0.36835 0.70640 0.16986 -0.01900
H 	H 	0.30933 0.54212 0.13649 0.12100
H 	H 	0.42950 0.76385 0.18438 0.12200
C 	C 	0.27441 0.64191 0.70303 0.08300
C 	C 	0.20290 0.56340 0.68576 -0.00400
C 	C 	0.22591 0.51410 0.68569 0.07300
C 	C 	0.31919 0.54805 0.69709 -0.01100
C 	C 	0.38954 0.63001 0.70810 0.06900
C 	C 	0.36772 0.67197 0.71646 -0.02000
H 	H 	0.33704 0.51304 0.69407 0.11100
H 	H 	0.42358 0.73243 0.72896 0.11400
Co	Co	0.94765 0.91855 0.17774 1.21300
Co	Co	0.86158 0.00832 0.16920 1.16400
C 	C 	0.98731 0.75965 0.08903 0.32100
O 	O 	0.76593 0.97910 0.10304 -0.30600
O 	O 	0.93919 0.00361 0.14627 -0.77300
C 	C 	0.78779 0.04252 0.06260 0.24900
O 	O 	0.98328 0.84188 0.18935 -0.37100
C 	C 	0.75428 0.81695 0.18231 0.32600
O 	O 	0.85236 0.06591 0.04537 -0.29300
O 	O 	0.79130 0.87547 0.20494 -0.34700
O 	O 	0.80472 0.82742 0.16108 -0.34500
O 	O 	0.98516 0.92859 0.25245 -0.30100
O 	O 	0.95442 0.78344 0.10157 -0.32300
Co	Co	0.94574 0.91106 0.68593 1.19900
Co	Co	0.87173 0.01487 0.67439 1.15600
C 	C 	0.96733 0.72579 0.60437 0.31800
O 	O 	0.76980 0.98064 0.61029 -0.30400
O 	O 	0.93086 0.99152 0.64959 -0.71300
C 	C 	0.78873 0.04179 0.56859 0.26500
O 	O 	0.97838 0.83011 0.70134 -0.37700
C 	C 	0.76100 0.81836 0.70308 0.31200
O 	O 	0.97241 0.94548 0.61222 -0.53200
O 	O 	0.85286 0.06535 0.55062 -0.27400
O 	O 	0.80153 0.88713 0.71806 -0.35900
O 	O 	0.80617 0.81530 0.68574 -0.32200
O 	O 	0.93745 0.74694 0.62108 -0.30800
C 	C 	0.93431 0.91945 0.88547 -0.00900
C 	C 	0.94160 0.91051 0.84640 0.16800
N 	N 	0.87832 0.83246 0.83334 -0.20000
H 	H 	0.87580 0.86511 0.90286 0.14000
H 	H 	0.82168 0.78091 0.84999 0.20500
H 	H 	0.88807 0.82074 0.80892 0.17200
C 	C 	0.97522 0.95326 0.31856 -0.02900
C 	C 	0.92345 0.96583 0.32847 0.18100
C 	C 	0.94304 0.97118 0.37682 -0.00000
H 	H 	0.90395 0.98161 0.38370 0.11500
N 	N 	0.85249 0.96929 0.29241 -0.18200
H 	H 	0.82401 0.94924 0.25982 0.13600
H 	H 	0.82013 0.98569 0.29854 0.18300
C 	C 	0.15386 0.42798 0.67207 0.10500
C 	C 	0.15350 0.34333 0.76364 0.79100
F 	F 	0.24647 0.38035 0.78777 -0.41200
C 	C 	0.54231 0.65407 0.74671 0.02300
C 	C 	0.48462 0.67575 0.70529 0.08400
C 	C 	0.51154 0.72792 0.65887 -0.11800
C 	C 	0.59987 0.76406 0.65668 0.07500
C 	C 	0.66103 0.74983 0.69968 0.00100
C 	C 	0.62787 0.68598 0.74317 -0.06800
C 	C 	0.67192 0.63838 0.78093 0.77600
H 	H 	0.51758 0.60727 0.78061 0.12600
H 	H 	0.62382 0.80823 0.62239 0.10200
C 	C 	0.44690 0.74597 0.61195 0.79100
F 	F 	0.68090 0.63267 0.82907 -0.39200
F 	F 	0.75872 0.67944 0.77563 -0.41600
F 	F 	0.61445 0.55401 0.77474 -0.37200
F 	F 	0.42703 0.78899 0.61992 -0.42900
F 	F 	0.36487 0.66772 0.60013 -0.41800
F 	F 	0.48659 0.79845 0.57093 -0.38900
C 	C 	0.31149 0.79152 0.67462 0.01500
C 	C 	0.25562 0.70204 0.69854 0.08200
C 	C 	0.31423 0.85430 0.68008 -0.07300
C 	C 	0.39644 0.95019 0.67004 0.78600
H 	H 	0.35878 0.81333 0.65530 0.13200
F 	F 	0.47767 0.95690 0.68687 -0.35900
F 	F 	0.40711 0.99619 0.69480 -0.36100
F 	F 	0.38368 0.98801 0.61903 -0.41200
H 	H 	0.14616 0.40586 0.21646 0.12300
F 	F 	0.15001 0.28224 0.27106 -0.38900
C 	C 	0.52317 0.66966 0.20940 0.01900
C 	C 	0.47267 0.68972 0.16188 0.08200
C 	C 	0.50880 0.73147 0.11907 -0.10800
C 	C 	0.59824 0.75808 0.12575 0.07500
C 	C 	0.65326 0.74890 0.17403 -0.00100
C 	C 	0.61153 0.69510 0.21542 -0.06200
C 	C 	0.66439 0.67166 0.26702 0.77900
H 	H 	0.49371 0.63451 0.24174 0.11000
H 	H 	0.62856 0.79342 0.09377 0.10200
C 	C 	0.45168 0.74558 0.06646 0.78700
F 	F 	0.60337 0.59185 0.29495 -0.38100
F 	F 	0.71540 0.73628 0.29186 -0.41000
F 	F 	0.72426 0.66435 0.26338 -0.39300
F 	F 	0.41586 0.78396 0.06388 -0.35900
F 	F 	0.37928 0.66555 0.05395 -0.37700
F 	F 	0.50490 0.80038 0.03117 -0.38400
C 	C 	0.26763 0.74016 0.16546 0.08800
C 	C 	0.31694 0.83066 0.14036 -0.12300
C 	C 	0.32603 0.88883 0.15490 0.07300
H 	H 	0.37330 0.95919 0.14056 0.12200
C 	C 	0.35178 0.86453 0.09500 0.79100
F 	F 	0.29594 0.80046 0.06889 -0.37900
F 	F 	0.44252 0.89126 0.11013 -0.38100
F 	F 	0.35012 0.93599 0.06220 -0.40700
C 	C 	0.74355 0.21885 0.49831 0.02700
C 	C 	0.75302 0.23729 0.53920 0.09900
C 	C 	0.77594 0.19328 0.58844 -0.11800
C 	C 	0.77058 0.12045 0.59555 0.08900
C 	C 	0.77009 0.10631 0.55591 0.01100
C 	C 	0.75337 0.15430 0.50616 -0.03900
C 	C 	0.74562 0.13742 0.46169 0.77700
H 	H 	0.72781 0.25413 0.46055 0.12800
H 	H 	0.77440 0.07860 0.63294 0.03100
C 	C 	0.81789 0.23069 0.63276 0.79400
F 	F 	0.70435 0.17181 0.41707 -0.38200
F 	F 	0.69177 0.04791 0.46647 -0.40200
F 	F 	0.83363 0.17664 0.45901 -0.36900
F 	F 	0.75777 0.23724 0.63659 -0.37500
F 	F 	0.90085 0.31345 0.62635 -0.42500
F 	F 	0.83658 0.17844 0.67763 -0.41100
C 	C 	0.88528 0.65503 0.53491 0.07700
C 	C 	0.90261 0.64533 0.58602 -0.00700
C 	C 	0.87978 0.56324 0.62010 -0.05000
C 	C 	0.85219 0.49658 0.60344 0.01400
C 	C 	0.83345 0.50585 0.55216 0.09800
C 	C 	0.85580 0.58783 0.51804 -0.12900
C 	C 	0.84219 0.60188 0.46294 0.79300
H 	H 	0.89739 0.71608 0.50841 0.08600
H 	H 	0.83701 0.43418 0.62956 0.16700
C 	C 	0.87714 0.54438 0.67277 0.78300
F 	F 	0.74911 0.56494 0.43912 -0.39600
F 	F 	0.87014 0.56308 0.45757 -0.40300
F 	F 	0.89417 0.69069 0.43966 -0.41300
F 	F 	0.96583 0.59715 0.69960 -0.39800
C 	C 	0.44408 0.25469 0.48996 0.01700
C 	C 	0.51119 0.24986 0.53281 0.08400
C 	C 	0.49461 0.21590 0.58111 -0.11100
C 	C 	0.40713 0.17963 0.58488 0.08500
C 	C 	0.33702 0.17626 0.54171 -0.00600
C 	C 	0.35917 0.22295 0.49429 -0.06200
C 	C 	0.28897 0.23175 0.44755 0.77800
H 	H 	0.45869 0.28449 0.45324 0.11700
H 	H 	0.39031 0.14611 0.62123 0.10600
C 	C 	0.56664 0.21125 0.62838 0.79900
F 	F 	0.33382 0.30759 0.41180 -0.38300
F 	F 	0.23415 0.23641 0.45860 -0.40400
F 	F 	0.23252 0.15984 0.42767 -0.42700
F 	F 	0.65118 0.29337 0.62894 -0.39500
F 	F 	0.57762 0.15318 0.63011 -0.36900
F 	F 	0.54004 0.18242 0.67130 -0.36500
C 	C 	0.80597 0.25388 0.01893 -0.01300
C 	C 	0.76267 0.23280 0.05287 0.10200
C 	C 	0.72347 0.14814 0.08597 -0.12900
C 	C 	0.71196 0.08230 0.07780 0.06700
C 	C 	0.76420 0.10423 0.04894 0.01300
C 	C 	0.80627 0.18988 0.01601 -0.08000
C 	C 	0.84257 0.21111 0.97478 0.79800
H 	H 	0.83671 0.31892 0.99380 0.16500
H 	H 	0.66995 0.01470 0.09836 0.08400
C 	C 	0.69397 0.12701 0.13029 0.79000
F 	F 	0.84430 0.28074 0.93608 -0.35700
F 	F 	0.78570 0.13933 0.95464 -0.37800
F 	F 	0.60165 0.09566 0.11604 -0.42000
F 	F 	0.74863 0.20055 0.14843 -0.40200
F 	F 	0.70335 0.06305 0.16920 -0.43800
C 	C 	0.93301 0.60401 0.12654 0.07000
C 	C 	0.92970 0.66891 0.08366 0.01100
C 	C 	0.89631 0.65407 0.03568 -0.08000
C 	C 	0.88017 0.58187 0.03183 0.00100
C 	C 	0.87387 0.51312 0.07404 0.10000
C 	C 	0.90858 0.52756 0.12219 -0.12400
C 	C 	0.91404 0.45915 0.16893 0.79100
H 	H 	0.95738 0.61429 0.16328 0.12700
H 	H 	0.85907 0.57307 0.99502 0.15600
C 	C 	0.87821 0.71447 0.98820 0.78800
F 	F 	0.97599 0.49569 0.20986 -0.39200
F 	F 	0.94421 0.42392 0.16193 -0.42000
F 	F 	0.82688 0.39243 0.17932 -0.38500
F 	F 	0.86198 0.75934 0.99743 -0.42600
F 	F 	0.80027 0.66618 0.95418 -0.39500
C 	C 	0.38799 0.24719 0.99078 0.11000
C 	C 	0.35947 0.21113 0.03500 -0.02500
C 	C 	0.42664 0.22252 0.08098 -0.06600
C 	C 	0.51214 0.24519 0.08409 0.02300
C 	C 	0.53808 0.27337 0.04037 0.06600
C 	C 	0.47820 0.28096 0.99287 -0.10000
C 	C 	0.50860 0.32160 0.94460 0.78800
H 	H 	0.33767 0.24297 0.95511 0.08500
H 	H 	0.56023 0.24432 0.12026 0.12900
C 	C 	0.40848 0.21309 0.12610 0.77800
F 	F 	0.44609 0.33478 0.90322 -0.39200
F 	F 	0.51438 0.26634 0.93809 -0.40200
F 	F 	0.59462 0.40254 0.94638 -0.38600
F 	F 	0.35000 0.12511 0.14807 -0.43600
F 	F 	0.36749 0.25408 0.11147 -0.40400
F 	F 	0.49053 0.25174 0.16161 -0.38900
