data_crystal

_cell_length_a 16.79638
_cell_length_b 17.59771
_cell_length_c 37.23544
_cell_angle_alpha 60.60351
_cell_angle_beta  119.10908
_cell_angle_gamma 133.32224

_symmetry_space_group_name_	'P 1'
_symmetry_space_group_name_H-M	'P 1'

loop_
_symmetry_equiv_pos_as_xyz
  x,y,z

loop_
_atom_site_label
_atom_site_type_symbol
_atom_site_fract_x
_atom_site_fract_y
_atom_site_fract_z
_atom_site_charge
C 	C 	0.72013 0.32105 0.98443 0.11300
N 	N 	0.77271 0.42919 0.97208 -0.11600
C 	C 	0.72867 0.47013 0.97311 0.13800
N 	N 	0.62980 0.40219 0.98457 -0.09900
C 	C 	0.58311 0.29585 0.00051 0.11100
N 	N 	0.62624 0.25478 0.99924 -0.11800
C 	C 	0.71784 0.32348 0.49077 0.12100
N 	N 	0.60650 0.28110 0.47776 -0.12700
C 	C 	0.56994 0.32452 0.48209 0.12300
N 	N 	0.64579 0.41914 0.49296 -0.12000
C 	C 	0.75433 0.45529 0.51030 0.12400
N 	N 	0.79148 0.40831 0.50887 -0.12100
C 	C 	0.26500 0.57317 0.17747 0.12500
N 	N 	0.18979 0.46536 0.18003 -0.12700
C 	C 	0.22118 0.41075 0.18083 0.12500
N 	N 	0.32923 0.46316 0.18137 -0.12100
C 	C 	0.40103 0.57164 0.17436 0.12500
N 	N 	0.37079 0.62593 0.17463 -0.12100
C 	C 	0.28981 0.61695 0.68026 0.13100
N 	N 	0.39704 0.64633 0.69816 -0.11600
C 	C 	0.42581 0.58982 0.69878 0.13300
N 	N 	0.34335 0.49248 0.68972 -0.12300
C 	C 	0.23766 0.46469 0.66949 0.13100
N 	N 	0.21043 0.52768 0.66425 -0.11800
Co	Co	0.00542 0.82771 0.08337 1.18700
Co	Co	0.98645 0.07893 0.06960 1.16400
Co	Co	0.86909 0.85426 0.11198 1.18800
Co	Co	0.13992 0.05907 0.04801 1.16100
C 	C 	0.92846 0.74625 0.00709 0.28200
Co	Co	0.17291 0.91377 0.03285 1.18200
Co	Co	0.76504 0.97494 0.09486 1.19800
C 	C 	0.35963 0.09013 0.07431 0.24100
O 	O 	0.78439 0.89062 0.15824 -0.39400
O 	O 	0.86747 0.96372 0.08408 -0.71100
C 	C 	0.87790 0.89839 0.18243 0.35900
O 	O 	0.90955 0.75769 0.12318 -0.44200
O 	O 	0.13353 0.16291 0.05457 -0.46400
C 	C 	0.00018 0.15174 0.13054 0.31200
O 	O 	0.96935 0.94705 0.06293 -0.52900
C 	C 	0.62352 0.74539 0.10254 0.31500
C 	C 	0.14638 0.75300 0.11541 0.31500
C 	C 	0.16753 0.09718 0.96544 0.35700
O 	O 	0.93202 0.89079 0.16913 -0.35700
O 	O 	0.12727 0.76557 0.07521 -0.39800
O 	O 	0.12091 0.79258 0.12710 -0.37000
O 	O 	0.89730 0.12405 0.10966 -0.42000
O 	O 	0.04444 0.12053 0.12460 -0.39500
O 	O 	0.63170 0.83285 0.07739 -0.36200
O 	O 	0.69662 0.73148 0.10772 -0.36300
O 	O 	0.22936 0.06127 0.98860 -0.40200
O 	O 	0.12777 0.11047 0.98327 -0.38100
O 	O 	0.09377 0.93452 0.05283 -0.74400
C 	C 	0.82529 0.14444 0.01640 0.32900
O 	O 	0.74472 0.04637 0.03096 -0.42000
O 	O 	0.92512 0.17007 0.02255 -0.37800
O 	O 	0.01824 0.83633 0.99262 -0.34400
O 	O 	0.90931 0.72751 0.04257 -0.35700
O 	O 	0.31539 0.99077 0.07782 -0.31700
O 	O 	0.30529 0.11042 0.08078 -0.37600
Co	Co	0.03446 0.83926 0.61273 1.18500
Co	Co	0.96919 0.08183 0.56317 1.16100
Co	Co	0.92180 0.90188 0.63659 1.20100
Co	Co	0.07221 0.01627 0.53557 1.15500
C 	C 	0.95398 0.65606 0.58723 0.34500
Co	Co	0.13373 0.86446 0.54763 1.18400
Co	Co	0.79873 0.01300 0.60938 1.13700
C 	C 	0.27690 0.10277 0.51766 0.32700
O 	O 	0.87222 0.98824 0.67410 -0.31100
O 	O 	0.88590 0.98514 0.59756 -0.69500
C 	C 	0.97867 0.02390 0.68951 0.25900
O 	O 	0.98544 0.81712 0.65933 -0.41900
O 	O 	0.06316 0.13495 0.52584 -0.46700
C 	C 	0.03052 0.22329 0.60863 0.30000
O 	O 	0.96019 0.93402 0.57827 -0.53000
C 	C 	0.69264 0.78344 0.64989 0.31300
C 	C 	0.24800 0.85475 0.63662 0.30600
C 	C 	0.98273 0.90263 0.46878 0.34700
O 	O 	0.02141 0.00144 0.67738 -0.39200
O 	O 	0.26877 0.91173 0.59881 -0.35300
O 	O 	0.18834 0.85712 0.64955 -0.34500
O 	O 	0.92205 0.17888 0.59725 -0.40200
O 	O 	0.07115 0.19220 0.59989 -0.39500
O 	O 	0.67594 0.85106 0.61688 -0.35000
O 	O 	0.76964 0.77420 0.65529 -0.34900
O 	O 	0.99052 0.82525 0.49930 -0.36900
O 	O 	0.99218 0.97464 0.47717 -0.30500
O 	O 	0.07005 0.90582 0.56574 -0.73800
C 	C 	0.78019 0.11160 0.51900 0.31500
O 	O 	0.72204 0.02556 0.54597 -0.40400
O 	O 	0.86565 0.12981 0.51429 -0.36800
O 	O 	0.05876 0.71299 0.58754 -0.41300
O 	O 	0.92198 0.68891 0.59933 -0.36800
O 	O 	0.21742 0.01342 0.50710 -0.44600
O 	O 	0.24210 0.11151 0.53953 -0.40800
C 	C 	0.14286 0.07625 0.79811 -0.12000
C 	C 	0.11902 0.13994 0.79701 -0.01000
C 	C 	0.06872 0.18188 0.75834 0.31700
C 	C 	0.03053 0.15015 0.72216 -0.09200
C 	C 	0.04573 0.07913 0.72386 -0.10500
C 	C 	0.10672 0.04616 0.76159 0.30100
C 	C 	0.13081 0.14858 0.83695 0.02300
F 	F 	0.04985 0.24752 0.75650 -0.41800
H 	H 	0.98255 0.17516 0.69343 0.09000
F 	F 	0.12332 0.97842 0.76381 -0.37400
H 	H 	0.18366 0.04514 0.82778 0.09700
C 	C 	0.03491 0.08781 0.85195 0.28800
C 	C 	0.04695 0.08183 0.89294 -0.05900
C 	C 	0.15455 0.13485 0.91939 -0.15200
C 	C 	0.24996 0.20427 0.90280 0.37800
C 	C 	0.23804 0.21035 0.86181 -0.15500
F 	F 	0.93041 0.02941 0.82776 -0.42100
H 	H 	0.97284 0.02928 0.90525 0.08500
F 	F 	0.35449 0.26079 0.92735 -0.43600
H 	H 	0.31225 0.25974 0.85000 0.12200
C 	C 	0.03255 0.98949 0.28309 -0.07800
C 	C 	0.94644 0.91561 0.30496 0.00700
C 	C 	0.84356 0.82771 0.28897 0.29900
C 	C 	0.82481 0.81718 0.25031 -0.05600
C 	C 	0.90858 0.89416 0.22725 -0.12900
C 	C 	0.01423 0.97799 0.24462 0.38800
C 	C 	0.96617 0.92676 0.34578 0.04300
F 	F 	0.76150 0.75295 0.31080 -0.41700
H 	H 	0.74358 0.75120 0.23745 0.09800
F 	F 	0.09784 0.05008 0.22365 -0.48000
H 	H 	0.11326 0.05605 0.29578 0.07100
C 	C 	0.04188 0.90960 0.38148 0.28000
C 	C 	0.05012 0.90634 0.42124 -0.06100
C 	C 	0.98226 0.91941 0.42591 -0.11900
C 	C 	0.90999 0.94141 0.38994 0.38200
C 	C 	0.90222 0.94530 0.34995 -0.13300
F 	F 	0.10424 0.89174 0.37788 -0.40700
H 	H 	0.10743 0.89097 0.44872 0.08900
F 	F 	0.84418 0.95465 0.39388 -0.41300
H 	H 	0.84421 0.95953 0.32241 0.13900
C 	C 	0.16331 0.38183 0.64677 0.03700
C 	C 	0.10534 0.31102 0.62881 -0.07000
C 	C 	0.61072 0.70559 0.67470 -0.05500
C 	C 	0.53108 0.64925 0.68958 0.04500
C 	C 	0.26877 0.69468 0.66885 0.04600
C 	C 	0.25788 0.76579 0.65683 -0.05700
C 	C 	0.13720 0.31320 0.16671 0.03700
C 	C 	0.07288 0.23684 0.15153 -0.05800
C 	C 	0.48593 0.62844 0.15259 0.04200
C 	C 	0.55084 0.67766 0.13105 -0.07900
C 	C 	0.18790 0.68928 0.14557 -0.06400
C 	C 	0.22319 0.63524 0.16336 0.03900
C 	C 	0.75093 0.26027 0.49649 0.04000
C 	C 	0.76976 0.19779 0.50426 -0.08000
C 	C 	0.81972 0.52216 0.53872 0.05200
C 	C 	0.87466 0.57982 0.56207 -0.08300
C 	C 	0.46399 0.25448 0.49228 0.04200
C 	C 	0.37841 0.19054 0.50401 -0.08900
C 	C 	0.77531 0.27797 0.99081 0.07800
C 	C 	0.80835 0.22612 0.00027 -0.11800
C 	C 	0.80200 0.57623 0.97845 0.03900
C 	C 	0.86049 0.65816 0.98891 -0.02300
C 	C 	0.50645 0.23239 0.02687 0.04600
C 	C 	0.44162 0.17339 0.04937 -0.07600
