data_crystal

_cell_length_a 20.25828
_cell_length_b 20.63841
_cell_length_c 35.16728
_cell_angle_alpha 95.47752
_cell_angle_beta  95.47794
_cell_angle_gamma 126.12238

_symmetry_space_group_name_	'P 1'
_symmetry_space_group_name_H-M	'P 1'

loop_
_symmetry_equiv_pos_as_xyz
  x,y,z

loop_
_atom_site_label
_atom_site_type_symbol
_atom_site_fract_x
_atom_site_fract_y
_atom_site_fract_z
_atom_site_charge
C 	C 	0.03643 0.95459 0.99435 -0.08800
C 	C 	0.08636 0.03867 0.99514 0.05000
C 	C 	0.05202 0.08107 0.99800 -0.09000
H 	H 	0.06303 0.92189 0.99207 0.05600
H 	H 	0.09052 0.14627 0.99836 0.05500
C 	C 	0.98326 0.92468 0.45911 -0.07100
C 	C 	0.02591 0.00726 0.45740 0.03400
C 	C 	0.98375 0.04175 0.45641 -0.07200
H 	H 	0.01642 0.89831 0.45987 0.05000
H 	H 	0.01735 0.10610 0.45526 0.05000
Cu	Cu	0.64076 0.22490 0.00652 0.92700
Cu	Cu	0.70620 0.22763 0.92434 0.87000
Cu	Cu	0.68408 0.35131 0.95504 0.89700
Cu	Cu	0.63689 0.37230 0.03119 0.89600
C 	C 	0.65830 0.28288 0.08738 0.29600
O 	O 	0.51831 0.17407 0.00536 -0.36500
C 	C 	0.65931 0.29390 0.87023 0.29400
O 	O 	0.70519 0.35115 0.00945 -0.63800
O 	O 	0.62923 0.23184 0.95078 -0.64100
O 	O 	0.69602 0.17054 0.00508 -0.37600
O 	O 	0.78555 0.25538 0.96843 -0.44500
O 	O 	0.62060 0.31454 0.07606 -0.38700
O 	O 	0.74285 0.46823 0.96306 -0.38500
C 	C 	0.73678 0.51168 0.99061 0.31100
C 	C 	0.48539 0.20747 0.99064 0.30300
O 	O 	0.53408 0.28255 0.98497 -0.40000
O 	O 	0.68157 0.47723 0.01342 -0.39600
O 	O 	0.66972 0.24045 0.06194 -0.36900
C 	C 	0.76594 0.20377 0.99202 0.31000
O 	O 	0.68343 0.35447 0.89881 -0.38800
O 	O 	0.65223 0.22870 0.87727 -0.42300
H 	H 	0.76468 0.38791 0.02207 0.16500
H 	H 	0.57146 0.19672 0.93585 0.17200
Cu	Cu	0.73519 0.33864 0.45598 0.92500
Cu	Cu	0.72846 0.27711 0.53933 0.87000
Cu	Cu	0.60111 0.29314 0.50446 0.89700
Cu	Cu	0.58059 0.33369 0.42650 0.89500
C 	C 	0.67975 0.31703 0.37403 0.29600
O 	O 	0.78263 0.45839 0.45581 -0.36300
C 	C 	0.65575 0.32302 0.59011 0.29400
O 	O 	0.60553 0.27131 0.45078 -0.63900
O 	O 	0.72370 0.35036 0.51097 -0.64100
O 	O 	0.79116 0.28437 0.46015 -0.37500
O 	O 	0.70242 0.19746 0.49661 -0.44400
O 	O 	0.64422 0.35174 0.38341 -0.38700
O 	O 	0.48132 0.23117 0.49470 -0.38400
C 	C 	0.43617 0.23156 0.46517 0.31300
C 	C 	0.74376 0.48768 0.46798 0.30000
O 	O 	0.66677 0.43720 0.47263 -0.39800
O 	O 	0.47029 0.28441 0.44165 -0.39700
O 	O 	0.72384 0.30947 0.40094 -0.36900
O 	O 	0.59491 0.29658 0.56045 -0.38500
O 	O 	0.72333 0.33042 0.58500 -0.42400
H 	H 	0.57050 0.21260 0.43882 0.16400
H 	H 	0.75727 0.40728 0.52549 0.17100
C 	C 	0.69743 0.40117 0.69776 -0.09400
C 	C 	0.63469 0.32987 0.70960 0.00300
C 	C 	0.56989 0.26172 0.68134 0.02400
C 	C 	0.57418 0.26267 0.64175 -0.01700
C 	C 	0.64168 0.33100 0.63014 -0.11000
C 	C 	0.70089 0.40263 0.65812 0.09700
C 	C 	0.64320 0.32328 0.75114 0.00400
C 	C 	0.49918 0.18607 0.69338 -0.17200
H 	H 	0.52735 0.20858 0.62012 0.03600
C 	C 	0.69071 0.29854 0.76600 0.02200
C 	C 	0.69603 0.29039 0.80510 -0.01400
C 	C 	0.65356 0.30523 0.82946 -0.11100
C 	C 	0.60517 0.32918 0.81447 0.10000
C 	C 	0.60208 0.33988 0.77559 -0.09500
C 	C 	0.73599 0.28100 0.74028 -0.17000
H 	H 	0.73342 0.27247 0.81666 0.02600
C 	C 	0.55692 0.34340 0.83959 -0.20500
H 	H 	0.56615 0.35939 0.76410 0.05100
H 	H 	0.47085 0.20245 0.71404 0.06400
H 	H 	0.52261 0.15568 0.70756 0.06100
H 	H 	0.44938 0.14176 0.66802 0.06000
H 	H 	0.76827 0.25990 0.75598 0.05500
H 	H 	0.78347 0.33720 0.73000 0.06200
H 	H 	0.69125 0.23235 0.71480 0.06000
H 	H 	0.60041 0.40150 0.86090 0.08200
H 	H 	0.52128 0.29217 0.85533 0.07000
H 	H 	0.51147 0.34752 0.82191 0.06700
C 	C 	0.65618 0.21427 0.18428 -0.09500
C 	C 	0.68764 0.28638 0.21024 0.00400
C 	C 	0.71715 0.35888 0.19592 0.02500
C 	C 	0.71275 0.35747 0.15574 -0.01600
C 	C 	0.67535 0.28405 0.12946 -0.10800
C 	C 	0.64658 0.21146 0.14389 0.10400
C 	C 	0.68345 0.28412 0.25207 0.00400
C 	C 	0.75212 0.43750 0.22328 -0.17300
H 	H 	0.73575 0.41318 0.14474 0.02900
C 	C 	0.60393 0.13077 0.11666 -0.20800
H 	H 	0.63523 0.15920 0.19549 0.05200
C 	C 	0.60795 0.25321 0.26511 0.02400
C 	C 	0.60727 0.25912 0.30515 -0.01600
C 	C 	0.68141 0.29924 0.33245 -0.10800
C 	C 	0.75706 0.32951 0.31932 0.10400
C 	C 	0.75652 0.31857 0.27917 -0.09500
C 	C 	0.52828 0.21508 0.23651 -0.17200
H 	H 	0.54927 0.23504 0.31517 0.02800
H 	H 	0.81396 0.34065 0.26897 0.05200
H 	H 	0.57597 0.07905 0.13256 0.06900
H 	H 	0.64972 0.13111 0.10151 0.08900
H 	H 	0.55274 0.11911 0.09499 0.08400
H 	H 	0.81047 0.45806 0.24241 0.06400
H 	H 	0.70634 0.42836 0.24145 0.06600
H 	H 	0.76666 0.48703 0.20729 0.06000
H 	H 	0.47614 0.19960 0.25146 0.06000
H 	H 	0.51032 0.15794 0.21849 0.06400
H 	H 	0.53661 0.25814 0.21731 0.06600
C 	C 	0.77746 0.57156 0.46733 -0.11500
C 	C 	0.34821 0.18421 0.46306 -0.11700
C 	C 	0.27428 0.14462 0.46135 0.06100
C 	C 	0.18783 0.09801 0.45957 -0.03100
C 	C 	0.11396 0.05733 0.45836 -0.01400
C 	C 	0.78089 0.59715 0.99133 -0.11600
C 	C 	0.39922 0.17072 0.99013 -0.12000
C 	C 	0.32775 0.14283 0.99057 0.05600
C 	C 	0.24447 0.11066 0.99181 -0.02900
C 	C 	0.17285 0.08059 0.99325 -0.02100
C 	C 	0.96739 0.03854 0.00011 0.05500
C 	C 	0.91783 0.95422 0.99941 -0.09100
C 	C 	0.95243 0.91241 0.99640 0.05300
H 	H 	0.85238 0.92117 0.00078 0.05800
C 	C 	0.89872 0.99402 0.45774 0.04000
C 	C 	0.85550 0.91059 0.45979 -0.07800
C 	C 	0.89838 0.87604 0.46039 0.04000
H 	H 	0.78984 0.87339 0.46112 0.05300
C 	C 	0.75554 0.21556 0.47340 0.30700
C 	C 	0.77002 0.47934 0.64610 -0.20200
H 	H 	0.74579 0.45425 0.71950 0.05100
H 	H 	0.82041 0.47455 0.64113 0.07100
H 	H 	0.79657 0.53395 0.66895 0.06600
H 	H 	0.74649 0.48903 0.61906 0.07000
C 	C 	0.83857 0.37511 0.34762 -0.20800
H 	H 	0.83978 0.33233 0.36401 0.08900
H 	H 	0.84725 0.42501 0.36816 0.08400
H 	H 	0.89238 0.40361 0.33243 0.07000
C 	C 	0.80163 0.64062 0.46623 0.05500
C 	C 	0.82942 0.72129 0.46447 -0.02800
C 	C 	0.85683 0.79101 0.46270 -0.01700
C 	C 	0.85801 0.03275 0.45886 -0.01700
C 	C 	0.83079 0.07156 0.46034 -0.03100
C 	C 	0.80383 0.12137 0.46308 0.05600
C 	C 	0.78227 0.16492 0.46677 -0.12300
C 	C 	0.90187 0.82592 0.99498 -0.02100
C 	C 	0.86215 0.75355 0.99371 -0.02700
C 	C 	0.81790 0.66915 0.99230 0.05900
C 	C 	0.81220 0.17186 0.99708 -0.12800
C 	C 	0.85091 0.14464 0.99960 0.05500
C 	C 	0.89484 0.11114 0.00090 -0.02700
C 	C 	0.92989 0.08001 0.00097 -0.02200
