data_crystal

_cell_length_a 18.70933
_cell_length_b 18.84130
_cell_length_c 35.12827
_cell_angle_alpha 95.42064
_cell_angle_beta  95.42098
_cell_angle_gamma 126.42874

_symmetry_space_group_name_	'P 1'
_symmetry_space_group_name_H-M	'P 1'

loop_
_symmetry_equiv_pos_as_xyz
  x,y,z

loop_
_atom_site_label
_atom_site_type_symbol
_atom_site_fract_x
_atom_site_fract_y
_atom_site_fract_z
_atom_site_charge
C 	C 	0.85232 0.94780 0.96329 0.06300
C 	C 	0.94704 0.00253 0.96970 -0.06200
C 	C 	0.99218 0.96445 0.97231 0.05300
C 	C 	0.94335 0.87197 0.97036 -0.06500
C 	C 	0.84886 0.81631 0.96415 0.06800
C 	C 	0.80274 0.85407 0.96055 -0.06900
H 	H 	0.98546 0.07457 0.97177 0.07400
H 	H 	0.97885 0.84292 0.97271 0.07600
H 	H 	0.72950 0.81126 0.95572 0.07800
C 	C 	0.00743 0.08912 0.50737 0.10400
C 	C 	0.95762 0.99602 0.50491 -0.11300
C 	C 	0.00028 0.95545 0.50172 0.10100
C 	C 	0.09294 0.00779 0.50162 -0.08200
C 	C 	0.14390 0.10099 0.50552 0.08200
C 	C 	0.10106 0.14190 0.50775 -0.08400
H 	H 	0.88546 0.95507 0.50460 0.08600
H 	H 	0.12575 0.97608 0.49904 0.08200
H 	H 	0.13996 0.21385 0.50949 0.08700
Cu	Cu	0.67672 0.27519 0.94659 0.92600
Cu	Cu	0.72901 0.25294 0.03717 0.89500
Cu	Cu	0.55692 0.24608 0.00619 0.91800
Cu	Cu	0.50575 0.27291 0.92714 0.90900
C 	C 	0.60174 0.25550 0.86696 0.34500
O 	O 	0.73579 0.40671 0.94257 -0.34300
C 	C 	0.62718 0.27856 0.08567 0.33900
O 	O 	0.54049 0.21034 0.95130 -0.63800
O 	O 	0.68679 0.30379 0.00399 -0.62700
O 	O 	0.71979 0.19864 0.94270 -0.33700
O 	O 	0.80100 0.24906 0.00445 -0.38600
O 	O 	0.53223 0.25243 0.87507 -0.33700
O 	O 	0.42985 0.18283 0.00641 -0.33400
C 	C 	0.37559 0.18334 0.97979 0.30500
C 	C 	0.69819 0.44485 0.95284 0.30100
O 	O 	0.61964 0.39734 0.96348 -0.37600
O 	O 	0.40791 0.24244 0.95653 -0.36600
O 	O 	0.64383 0.23613 0.89113 -0.34700
C 	C 	0.76204 0.18993 0.97193 0.29500
O 	O 	0.58393 0.29497 0.06091 -0.34100
O 	O 	0.64675 0.22491 0.07325 -0.39200
H 	H 	0.49876 0.14444 0.94215 0.18200
H 	H 	0.72381 0.36932 0.01361 0.16900
Cu	Cu	0.67854 0.26398 0.51418 0.93100
Cu	Cu	0.73509 0.24761 0.43015 0.90200
Cu	Cu	0.72301 0.39238 0.45671 0.90500
Cu	Cu	0.69412 0.44016 0.53636 0.91000
C 	C 	0.69229 0.33108 0.59326 0.33800
O 	O 	0.54815 0.21236 0.51628 -0.34800
C 	C 	0.68707 0.31552 0.37283 0.33600
O 	O 	0.75410 0.40198 0.51169 -0.63300
O 	O 	0.65805 0.26157 0.45738 -0.63400
O 	O 	0.73522 0.20101 0.51475 -0.34500
O 	O 	0.82507 0.28321 0.47332 -0.41200
O 	O 	0.71068 0.40825 0.58735 -0.34400
O 	O 	0.79426 0.52106 0.46006 -0.35100
C 	C 	0.79378 0.57427 0.48712 0.31000
C 	C 	0.51491 0.25399 0.50596 0.31100
O 	O 	0.56789 0.33424 0.49782 -0.36400
O 	O 	0.73184 0.54156 0.50914 -0.36800
O 	O 	0.71192 0.28821 0.56980 -0.35700
C 	C 	0.80591 0.22969 0.49830 0.31100
O 	O 	0.70647 0.38256 0.39928 -0.35700
O 	O 	0.67332 0.24335 0.38287 -0.36100
H 	H 	0.82000 0.43945 0.52177 0.17700
H 	H 	0.59389 0.22352 0.44415 0.20000
C 	C 	0.60525 0.30472 0.68767 -0.14500
C 	C 	0.64935 0.27621 0.70800 0.01700
C 	C 	0.70318 0.25998 0.68960 0.30600
C 	C 	0.71531 0.27543 0.65168 -0.05400
C 	C 	0.67320 0.30656 0.63175 -0.13500
C 	C 	0.61654 0.31927 0.64970 0.37200
C 	C 	0.63941 0.26421 0.74867 0.01900
F 	F 	0.74403 0.22976 0.70853 -0.39700
H 	H 	0.75882 0.26498 0.63814 0.10800
F 	F 	0.57263 0.34607 0.63034 -0.44300
H 	H 	0.56279 0.31638 0.70146 0.12600
C 	C 	0.71368 0.32192 0.77937 0.30700
C 	C 	0.70171 0.31658 0.81803 -0.05200
C 	C 	0.61529 0.25528 0.82633 -0.12900
C 	C 	0.54159 0.19564 0.79563 0.37800
C 	C 	0.55380 0.20000 0.75701 -0.14500
F 	F 	0.79670 0.38504 0.77177 -0.39700
H 	H 	0.75912 0.36195 0.84152 0.10700
F 	F 	0.45828 0.13334 0.80321 -0.42500
H 	H 	0.49636 0.15464 0.73353 0.12700
C 	C 	0.70238 0.28892 0.26655 -0.13300
C 	C 	0.66296 0.32683 0.25128 0.01600
C 	C 	0.63287 0.36287 0.27614 0.29700
C 	C 	0.64165 0.36020 0.31597 -0.05100
C 	C 	0.68031 0.32129 0.33115 -0.13200
C 	C 	0.71165 0.28664 0.30623 0.37200
C 	C 	0.65231 0.32730 0.20909 0.02200
F 	F 	0.59530 0.40046 0.26177 -0.40600
H 	H 	0.61747 0.38733 0.33486 0.11200
F 	F 	0.75246 0.25203 0.32061 -0.43600
H 	H 	0.72591 0.26117 0.24757 0.13000
C 	C 	0.72910 0.37690 0.19195 0.29000
C 	C 	0.72020 0.36380 0.15141 -0.05500
C 	C 	0.63459 0.30215 0.12767 -0.14100
C 	C 	0.55728 0.25654 0.14471 0.38200
C 	C 	0.56620 0.26904 0.18530 -0.13700
F 	F 	0.81259 0.43521 0.21463 -0.41300
H 	H 	0.78008 0.39981 0.13847 0.07900
F 	F 	0.47400 0.19684 0.12202 -0.41700
H 	H 	0.50657 0.23068 0.19824 0.13600
C 	C 	0.91019 0.72756 0.52429 -0.01600
C 	C 	0.85355 0.67141 0.48882 -0.09100
C 	C 	0.84498 0.70898 0.45749 0.14400
C 	C 	0.89267 0.80197 0.46211 -0.06900
C 	C 	0.94774 0.85771 0.49789 -0.02200
C 	C 	0.95632 0.82016 0.52912 0.08700
Br	Br	0.02771 0.89397 0.57911 -0.16600
H 	H 	0.91599 0.69872 0.54858 0.06000
H 	H 	0.88653 0.83093 0.43795 0.08100
Br	Br	0.76534 0.63444 0.40885 -0.17900
C 	C 	0.90914 0.20900 0.53658 -0.00800
C 	C 	0.85207 0.18824 0.50158 -0.09700
C 	C 	0.84709 0.13567 0.46859 0.14300
C 	C 	0.90187 0.10803 0.47034 -0.06900
C 	C 	0.95939 0.12910 0.50517 -0.02000
C 	C 	0.96230 0.17914 0.53860 0.08700
Br	Br	0.03683 0.20570 0.58735 -0.16000
H 	H 	0.91312 0.24926 0.56207 0.07200
H 	H 	0.89780 0.06777 0.44482 0.08200
Br	Br	0.76218 0.09656 0.42147 -0.26200
C 	C 	0.38731 0.20136 0.54060 -0.01500
C 	C 	0.41915 0.21301 0.50543 -0.09000
C 	C 	0.36272 0.19740 0.47102 0.14400
C 	C 	0.27489 0.16905 0.47203 -0.07200
C 	C 	0.24211 0.15482 0.50700 -0.00800
C 	C 	0.29967 0.17346 0.54161 0.09500
Br	Br	0.25898 0.15992 0.59044 -0.15500
H 	H 	0.43128 0.21556 0.56732 0.09200
H 	H 	0.23055 0.15379 0.44523 0.08500
Br	Br	0.40266 0.20965 0.42201 -0.21200
C 	C 	0.76806 0.59495 0.99204 -0.01800
C 	C 	0.74663 0.54230 0.95564 -0.09100
C 	C 	0.75155 0.57827 0.92171 0.14000
C 	C 	0.77770 0.66577 0.92451 -0.07300
C 	C 	0.79926 0.71835 0.96094 -0.00400
C 	C 	0.79319 0.68195 0.99479 0.08700
Br	Br	0.81937 0.75046 0.04511 -0.19300
H 	H 	0.76221 0.56706 0.01821 0.06900
H 	H 	0.78392 0.69388 0.89839 0.09200
Br	Br	0.72040 0.50816 0.87118 -0.20700
C 	C 	0.77247 0.00145 0.99255 -0.07100
C 	C 	0.80620 0.98999 0.96044 -0.00800
C 	C 	0.81377 0.03581 0.92969 0.09100
C 	C 	0.79749 0.09965 0.93329 -0.01200
C 	C 	0.77122 0.11671 0.96697 -0.09200
C 	C 	0.75389 0.06356 0.99576 0.13800
Br	Br	0.70040 0.07090 0.03853 -0.27400
H 	H 	0.76400 0.96463 0.01580 0.08800
H 	H 	0.80720 0.13727 0.91024 0.08200
Br	Br	0.84793 0.01310 0.88289 -0.17500
C 	C 	0.21947 0.07041 0.94363 -0.01400
C 	C 	0.27803 0.12495 0.97898 -0.09000
C 	C 	0.24232 0.12801 0.01217 0.14900
C 	C 	0.14862 0.07491 0.00974 -0.07100
C 	C 	0.09032 0.02059 0.97430 0.00500
C 	C 	0.12607 0.01918 0.94102 0.09000
Br	Br	0.04829 0.95011 0.89140 -0.17300
H 	H 	0.24679 0.06899 0.91793 0.06700
H 	H 	0.12105 0.07663 0.03530 0.09100
Br	Br	0.31979 0.20831 0.06024 -0.14000
