data_crystal

_cell_length_a 24.50293
_cell_length_b 22.17135
_cell_length_c 46.00733
_cell_angle_alpha 90.54125
_cell_angle_beta  91.22553
_cell_angle_gamma 110.73006

_symmetry_space_group_name_	'P 1'
_symmetry_space_group_name_H-M	'P 1'

loop_
_symmetry_equiv_pos_as_xyz
  x,y,z

loop_
_atom_site_label
_atom_site_type_symbol
_atom_site_fract_x
_atom_site_fract_y
_atom_site_fract_z
_atom_site_charge
C 	C 	0.01505 0.64598 0.55824 -0.03100
O 	O 	0.01038 0.80773 0.63440 -0.39400
H 	H 	0.01200 0.00612 0.67903 0.15000
O 	O 	0.01531 0.92914 0.63330 -0.34300
S 	S 	0.00437 0.92906 0.15592 0.02800
S 	S 	0.03241 0.32345 0.17499 -0.00100
H 	H 	0.00687 0.81438 0.12380 0.04800
C 	C 	0.03046 0.59849 0.61369 -0.04000
H 	H 	0.03007 0.58258 0.63591 0.04200
C 	C 	0.00965 0.52183 0.95609 0.06400
O 	O 	0.02912 0.87091 0.69392 -0.70100
C 	C 	0.02758 0.31424 0.12119 0.03300
H 	H 	0.02063 0.61125 0.01339 0.09700
C 	C 	0.02807 0.03915 0.19007 0.29000
O 	O 	0.03025 0.18004 0.18590 -0.38700
C 	C 	0.02584 0.76623 0.31090 -0.03900
H 	H 	0.02418 0.74353 0.28978 0.04400
N 	N 	0.02765 0.58113 0.99741 -0.13800
O 	O 	0.03987 0.99146 0.68997 -0.67500
C 	C 	0.03397 0.56901 0.47507 0.04200
C 	C 	0.05251 0.35981 0.14362 0.00300
C 	C 	0.04008 0.87856 0.16098 -0.00400
C 	C 	0.03981 0.83031 0.14108 -0.05200
C 	C 	0.03803 0.49148 0.51125 -0.05200
H 	H 	0.03185 0.28957 0.07574 0.05100
H 	H 	0.05348 0.85089 0.70474 0.15500
Ni	Ni	0.04639 0.15514 0.22719 1.06800
C 	C 	0.05617 0.68507 0.57856 -0.00700
O 	O 	0.05444 0.05971 0.74882 -0.39500
C 	C 	0.05148 0.14574 0.29244 0.28800
C 	C 	0.05168 0.32326 0.09346 -0.05800
C 	C 	0.04788 0.99045 0.17664 -0.07100
S 	S 	0.05542 0.21348 0.34366 0.03100
C 	C 	0.04343 0.84459 0.36196 -0.03500
C 	C 	0.06164 0.66282 0.60664 0.01500
C 	C 	0.06692 0.81837 0.63415 0.27700
O 	O 	0.05554 0.07129 0.21336 -0.41300
H 	H 	0.05990 0.47812 0.52944 0.05000
O 	O 	0.06751 0.94398 0.74897 -0.35900
H 	H 	0.06603 0.32874 0.38051 0.04800
H 	H 	0.05440 0.88117 0.37907 0.04800
C 	C 	0.06301 0.55156 0.49803 0.06100
S 	S 	0.07178 0.76407 0.58156 0.04300
H 	H 	0.07659 0.70308 0.65118 0.02400
C 	C 	0.06896 0.55623 0.95792 -0.06500
Ni	Ni	0.07610 0.93646 0.66597 1.10000
C 	C 	0.06951 0.76914 0.33155 0.00200
H 	H 	0.07037 0.61649 0.43494 0.06300
C 	C 	0.07999 0.71296 0.62813 -0.02900
H 	H 	0.00374 0.66658 0.53877 0.04700
O 	O 	0.07707 0.14002 0.26813 -0.41300
H 	H 	0.07271 0.75610 0.10035 0.04600
C 	C 	0.07647 0.61009 0.45796 -0.05600
C 	C 	0.07814 0.59323 0.98333 0.01000
C 	C 	0.08669 0.77410 0.61728 -0.07200
C 	C 	0.08585 0.80669 0.14288 0.01200
C 	C 	0.08584 0.19037 0.31544 -0.07900
C 	C 	0.08059 0.81078 0.35582 0.01300
C 	C 	0.08904 0.90970 0.17916 0.01200
Ni	Ni	0.09611 0.06666 0.71049 1.06800
C 	C 	0.09282 0.97221 0.18844 -0.00700
C 	C 	0.10467 0.41167 0.13987 -0.05600
C 	C 	0.10049 0.33596 0.36511 -0.05400
H 	H 	0.09829 0.56622 0.93985 0.05100
O 	O 	0.10485 0.87483 0.64287 -0.36700
C 	C 	0.09979 0.77202 0.11987 -0.01600
C 	C 	0.10385 0.37516 0.08977 0.00100
C 	C 	0.10860 0.28341 0.35117 -0.00400
H 	H 	0.12471 0.44521 0.15762 0.04300
C 	C 	0.12284 0.96421 0.74148 0.28400
N 	N 	0.12112 0.58066 0.49567 -0.14900
H 	H 	0.12516 0.45212 0.39676 0.04700
C 	C 	0.12929 0.42005 0.11232 0.01400
S 	S 	0.12592 0.41098 0.05836 0.02700
H 	H 	0.12747 0.00312 0.20265 0.02800
S 	S 	0.13063 0.75612 0.32448 0.01500
C 	C 	0.12972 0.61564 0.47114 0.00800
C 	C 	0.13245 0.83415 0.16299 0.00900
O 	O 	0.13730 0.01172 0.64553 -0.36700
C 	C 	0.13578 0.62483 0.99747 0.26900
C 	C 	0.13663 0.88864 0.17979 -0.05700
O 	O 	0.13912 0.65035 0.02399 -0.36400
C 	C 	0.13878 0.39802 0.35878 0.01400
C 	C 	0.13927 0.23983 0.31035 -0.02700
C 	C 	0.13828 0.82821 0.36734 -0.01700
O 	O 	0.14336 0.01222 0.72341 -0.43200
O 	O 	0.14542 0.09907 0.67394 -0.40100
H 	H 	0.14621 0.97984 0.80110 0.05500
C 	C 	0.14908 0.45276 0.37716 -0.01700
C 	C 	0.15185 0.29240 0.33031 0.01400
H 	H 	0.15176 0.56301 0.50488 0.08500
H 	H 	0.15354 0.85729 0.38696 0.04300
C 	C 	0.15711 0.77272 0.12223 -0.07000
O 	O 	0.99941 0.10384 0.29827 -0.38300
C 	C 	0.99411 0.83344 0.34381 -0.01700
Ni	Ni	0.69104 0.31241 0.86888 1.09900
O 	O 	0.61589 0.25836 0.84674 -0.70500
Ni	Ni	0.55593 0.27691 0.87015 1.10000
O 	O 	0.74077 0.28275 0.84084 -0.36800
O 	O 	0.68689 0.17615 0.84755 -0.40900
O 	O 	0.69210 0.38337 0.84034 -0.38700
Ni	Ni	0.59874 0.16606 0.84683 1.06400
O 	O 	0.72150 0.40173 0.92863 -0.41500
O 	O 	0.60037 0.16221 0.89115 -0.41200
O 	O 	0.48633 0.22899 0.84368 -0.37900
O 	O 	0.62947 0.31890 0.89547 -0.70300
O 	O 	0.76629 0.37322 0.88962 -0.36700
O 	O 	0.50697 0.32084 0.89168 -0.37100
O 	O 	0.57849 0.41914 0.88675 -0.41200
Ni	Ni	0.65028 0.40878 0.90792 1.06800
H 	H 	0.61466 0.27309 0.82657 0.15400
H 	H 	0.62903 0.29264 0.91279 0.15600
C 	C 	0.55576 0.16334 0.90610 0.26500
O 	O 	0.70325 0.45890 0.87600 -0.40100
C 	C 	0.72731 0.22151 0.83348 0.26900
C 	C 	0.47713 0.16922 0.83473 0.27700
C 	C 	0.69511 0.44136 0.84852 0.29900
C 	C 	0.52512 0.38414 0.89400 0.24500
C 	C 	0.76906 0.40435 0.91477 0.26800
O 	O 	0.52694 0.20110 0.89848 -0.36400
O 	O 	0.50904 0.13660 0.84555 -0.40700
Ni	Ni	0.64473 0.32967 0.57665 1.09900
O 	O 	0.70320 0.33126 0.54546 -0.70000
Ni	Ni	0.76763 0.31782 0.56914 1.09800
O 	O 	0.59761 0.36924 0.55064 -0.37000
O 	O 	0.67943 0.45426 0.53992 -0.40700
O 	O 	0.58968 0.24004 0.56166 -0.36500
Ni	Ni	0.73322 0.40946 0.52223 1.06600
O 	O 	0.58773 0.22034 0.61957 -0.40900
O 	O 	0.80313 0.47376 0.54522 -0.39800
O 	O 	0.82964 0.33094 0.53788 -0.37700
O 	O 	0.70631 0.31003 0.59991 -0.70200
O 	O 	0.58905 0.32224 0.60973 -0.38100
O 	O 	0.82022 0.29310 0.59841 -0.37200
O 	O 	0.74684 0.20032 0.61041 -0.41000
Ni	Ni	0.67107 0.22200 0.61362 1.06300
H 	H 	0.68648 0.29400 0.53191 0.15200
H 	H 	0.72135 0.34114 0.61632 0.15600
C 	C 	0.83352 0.45688 0.56530 0.30000
O 	O 	0.65060 0.18555 0.57260 -0.41600
C 	C 	0.62220 0.42644 0.53934 0.24400
C 	C 	0.83430 0.36772 0.51480 0.26400
C 	C 	0.60512 0.18922 0.55837 0.26400
C 	C 	0.79985 0.24256 0.61513 0.27400
C 	C 	0.57308 0.27083 0.62629 0.28000
O 	O 	0.80736 0.41096 0.58327 -0.39500
O 	O 	0.78754 0.37289 0.50175 -0.41300
Ni	Ni	0.99786 0.92565 0.71979 1.09000
O 	O 	0.95308 0.84718 0.74412 -0.37000
O 	O 	0.90468 0.78943 0.70411 -0.41200
Ni	Ni	0.96568 0.80655 0.67141 1.05700
O 	O 	0.93059 0.87068 0.65493 -0.40500
O 	O 	0.96478 0.98160 0.74371 -0.36900
C 	C 	0.96048 0.91944 0.63892 0.26200
C 	C 	0.91819 0.79263 0.73210 0.27600
C 	C 	0.16999 0.06394 0.65995 0.28400
C 	C 	0.99727 0.04169 0.74958 0.25700
Ni	Ni	0.25633 0.69719 0.40384 1.10000
O 	O 	0.32875 0.74059 0.38003 -0.70700
Ni	Ni	0.38927 0.72286 0.40439 1.10100
O 	O 	0.20595 0.72268 0.37384 -0.36900
O 	O 	0.26360 0.82951 0.37834 -0.40900
O 	O 	0.24818 0.61701 0.37915 -0.39400
Ni	Ni	0.35018 0.83304 0.37726 1.06400
O 	O 	0.23079 0.62561 0.46781 -0.40700
O 	O 	0.35441 0.84700 0.42130 -0.40900
O 	O 	0.45600 0.76025 0.37676 -0.37900
O 	O 	0.31927 0.69235 0.43085 -0.70400
O 	O 	0.18357 0.64660 0.42692 -0.37000
O 	O 	0.43648 0.67819 0.42749 -0.36900
O 	O 	0.35897 0.58300 0.42537 -0.41000
Ni	Ni	0.29393 0.60541 0.44625 1.06900
H 	H 	0.32585 0.72061 0.36045 0.15700
H 	H 	0.32375 0.72320 0.44718 0.15800
C 	C 	0.39894 0.84484 0.43701 0.26400
O 	O 	0.23078 0.54924 0.41758 -0.39800
C 	C 	0.21849 0.78313 0.36615 0.27200
C 	C 	0.46760 0.81886 0.36636 0.27500
C 	C 	0.23030 0.55859 0.38948 0.30600
C 	C 	0.41466 0.61538 0.43132 0.24100
C 	C 	0.18410 0.63165 0.45483 0.26100
O 	O 	0.42575 0.80488 0.42999 -0.36700
O 	O 	0.43932 0.85645 0.37580 -0.40400
Ni	Ni	0.34442 0.69354 0.05101 1.09900
O 	O 	0.27525 0.67983 0.02296 -0.70400
Ni	Ni	0.21373 0.68426 0.05021 1.09900
O 	O 	0.38771 0.65368 0.02350 -0.37400
O 	O 	0.30710 0.56264 0.01744 -0.41300
O 	O 	0.38908 0.78234 0.03341 -0.36300
Ni	Ni	0.24549 0.59883 0.00074 1.06700
O 	O 	0.40421 0.81146 0.09180 -0.40300
O 	O 	0.18356 0.53911 0.02708 -0.39700
O 	O 	0.28696 0.71103 0.07687 -0.70100
O 	O 	0.41028 0.71262 0.08119 -0.38000
O 	O 	0.16645 0.70878 0.08156 -0.36400
O 	O 	0.23555 0.80920 0.08875 -0.40600
Ni	Ni	0.31793 0.80196 0.08807 1.06600
H 	H 	0.28365 0.71596 0.00927 0.15600
H 	H 	0.28129 0.68408 0.09437 0.15300
C 	C 	0.18755 0.54225 0.05553 0.29500
O 	O 	0.32549 0.83185 0.04622 -0.41000
C 	C 	0.36332 0.59360 0.01427 0.24600
C 	C 	0.36824 0.82919 0.03020 0.26200
C 	C 	0.18930 0.76179 0.09753 0.27200
C 	C 	0.42303 0.76393 0.09847 0.27400
O 	O 	0.19432 0.59645 0.06948 -0.38800
O 	O 	0.18308 0.62847 0.98322 -0.41300
Ni	Ni	0.94963 0.04170 0.26650 1.09200
O 	O 	0.96522 0.11520 0.23770 -0.71200
Ni	Ni	0.92018 0.06729 0.20280 1.09700
O 	O 	0.87812 0.06359 0.27788 -0.38900
O 	O 	0.88445 0.88028 0.26234 -0.41100
O 	O 	0.93087 0.14585 0.17798 -0.37400
O 	O 	0.91726 0.99321 0.22948 -0.69800
O 	O 	0.92686 0.96604 0.29468 -0.36900
O 	O 	0.85661 0.00969 0.17464 -0.39100
O 	O 	0.79510 0.96927 0.21207 -0.41600
Ni	Ni	0.84242 0.92666 0.23747 1.07000
H 	H 	0.94944 0.14830 0.24424 0.15400
H 	H 	0.94390 0.97130 0.22318 0.15200
O 	O 	0.81711 0.95891 0.27468 -0.38200
C 	C 	0.98279 0.19214 0.17788 0.25500
C 	C 	0.82580 0.01976 0.28002 0.28200
C 	C 	0.80392 0.97815 0.18400 0.28100
C 	C 	0.91577 0.90530 0.28638 0.28300
O 	O 	0.98309 0.05031 0.17853 -0.38600
C 	C 	0.17069 0.48213 0.07193 -0.07800
C 	C 	0.16721 0.48025 0.10235 -0.02000
C 	C 	0.98983 0.25102 0.16195 -0.07500
C 	C 	0.99208 0.25303 0.13148 -0.03700
H 	H 	0.18424 0.52286 0.11626 0.04000
H 	H 	0.97766 0.20991 0.11782 0.04600
C 	C 	0.66960 0.88921 0.13347 0.00200
C 	C 	0.63044 0.83068 0.12223 -0.05600
C 	C 	0.57204 0.81151 0.13046 0.01200
C 	C 	0.55503 0.84780 0.15125 0.00500
C 	C 	0.59444 0.90591 0.16275 -0.05900
C 	C 	0.65270 0.92513 0.15441 0.01600
S 	S 	0.74122 0.90721 0.13716 0.00700
C 	C 	0.75388 0.96284 0.16374 -0.07100
C 	C 	0.70010 0.96657 0.17154 -0.02300
S 	S 	0.48395 0.83196 0.14653 -0.00700
C 	C 	0.47131 0.77673 0.11975 -0.07200
C 	C 	0.52483 0.77108 0.11284 -0.01800
H 	H 	0.64437 0.80236 0.10672 0.04500
H 	H 	0.58056 0.93437 0.17821 0.04400
H 	H 	0.69439 0.99039 0.19131 0.04400
H 	H 	0.53103 0.74779 0.09301 0.04800
S 	S 	0.18953 0.81789 0.15134 -0.01800
H 	H 	0.17686 0.91608 0.19140 0.04500
C 	C 	0.62375 0.93927 0.35561 -0.00500
C 	C 	0.68469 0.96625 0.35551 -0.03700
C 	C 	0.71071 0.00473 0.33197 -0.00100
C 	C 	0.67605 0.01184 0.30842 -0.00700
C 	C 	0.61578 0.97720 0.30684 -0.04500
C 	C 	0.58955 0.94233 0.33126 0.01600
S 	S 	0.58598 0.87525 0.37449 0.03400
C 	C 	0.52485 0.85044 0.35372 -0.07100
C 	C 	0.53342 0.89319 0.33047 -0.02600
S 	S 	0.71828 0.03149 0.27969 -0.00200
C 	C 	0.78152 0.03593 0.29577 -0.07100
C 	C 	0.77001 0.01883 0.32491 -0.01600
H 	H 	0.71101 0.95463 0.37222 0.04600
H 	H 	0.59097 0.97420 0.28675 0.04200
H 	H 	0.50021 0.88971 0.31397 0.02600
H 	H 	0.80023 0.00580 0.33880 0.04100
C 	C 	0.18139 0.40690 0.33777 0.00100
C 	C 	0.19062 0.35461 0.32438 -0.06000
S 	S 	0.23150 0.48014 0.34261 0.01000
C 	C 	0.19953 0.50423 0.36989 -0.07400
H 	H 	0.22472 0.36211 0.30873 0.04100
H 	H 	0.16306 0.24258 0.29053 0.03000
C 	C 	0.98674 0.79743 0.31769 0.00100
S 	S 	0.95978 0.88537 0.33967 0.03000
C 	C 	0.93197 0.86251 0.30613 -0.07500
C 	C 	0.95173 0.81385 0.29645 -0.02200
C 	C 	0.17253 0.80068 0.35179 -0.07500
H 	H 	0.94898 0.79856 0.27386 0.03300
C 	C 	0.52663 0.03268 0.52812 0.05300
C 	C 	0.52974 0.97874 0.51306 -0.05900
C 	C 	0.49640 0.95920 0.48731 -0.00000
C 	C 	0.45989 0.99066 0.47734 0.09800
C 	C 	0.45672 0.04469 0.49227 -0.10800
C 	C 	0.49010 0.06450 0.51810 0.02300
N 	N 	0.57191 0.07362 0.54367 -0.14900
C 	C 	0.56525 0.13148 0.54310 -0.00200
C 	C 	0.51470 0.12789 0.52783 -0.04600
N 	N 	0.41513 0.94979 0.46146 -0.15400
C 	C 	0.42328 0.89254 0.46063 -0.00200
C 	C 	0.47260 0.89630 0.47717 -0.03900
H 	H 	0.55781 0.95371 0.52086 0.05000
H 	H 	0.42863 0.06961 0.48438 0.05500
H 	H 	0.50700 0.16850 0.51803 0.04900
H 	H 	0.49439 0.86148 0.47713 0.05100
H 	H 	0.61157 0.06700 0.54767 0.08300
H 	H 	0.38729 0.96337 0.44762 0.08800
C 	C 	0.95679 0.46534 0.47640 0.08900
C 	C 	0.98023 0.52634 0.46397 -0.11600
C 	C 	0.98568 0.44796 0.49926 -0.01900
N 	N 	0.89910 0.43189 0.47711 -0.15400
C 	C 	0.89078 0.39323 0.50044 -0.00400
C 	C 	0.94372 0.40214 0.51483 -0.03500
H 	H 	0.95784 0.53983 0.44603 0.05500
H 	H 	0.94812 0.39382 0.53780 0.04800
H 	H 	0.86721 0.44767 0.46792 0.07900
C 	C 	0.51467 0.47884 0.50656 0.07400
C 	C 	0.47254 0.46267 0.48389 -0.08800
C 	C 	0.47945 0.50634 0.46121 0.00900
C 	C 	0.52562 0.56519 0.46161 0.07300
C 	C 	0.56838 0.58089 0.48402 -0.08700
C 	C 	0.56156 0.53703 0.50663 0.01000
N 	N 	0.52920 0.43434 0.52128 -0.15200
C 	C 	0.58537 0.46331 0.53038 0.00200
C 	C 	0.60716 0.52716 0.52160 -0.05000
N 	N 	0.50984 0.60986 0.44767 -0.15200
C 	C 	0.45382 0.57996 0.43840 0.00100
C 	C 	0.43355 0.51558 0.44635 -0.05000
H 	H 	0.43602 0.41735 0.48376 0.05100
H 	H 	0.60490 0.62621 0.48417 0.05200
H 	H 	0.65291 0.55436 0.51828 0.04500
H 	H 	0.38802 0.48713 0.44953 0.04000
H 	H 	0.50884 0.38454 0.51802 0.08900
H 	H 	0.52914 0.65953 0.45162 0.09200
C 	C 	0.95041 0.08865 0.63345 -0.00400
C 	C 	0.94931 0.14698 0.62267 -0.05800
C 	C 	0.91163 0.17396 0.63562 0.01100
C 	C 	0.87431 0.14091 0.65771 0.00200
C 	C 	0.86935 0.07804 0.66501 -0.05600
C 	C 	0.90869 0.05261 0.65288 -0.00700
S 	S 	0.97535 0.03840 0.61585 -0.00500
C 	C 	0.93650 0.97017 0.63259 -0.06500
C 	C 	0.90055 0.98613 0.65239 -0.02400
S 	S 	0.81935 0.16800 0.65868 -0.00900
C 	C 	0.84121 0.22355 0.63291 -0.07200
C 	C 	0.89314 0.22066 0.62179 -0.02000
H 	H 	0.97428 0.16872 0.60390 0.04300
H 	H 	0.83388 0.04861 0.67814 0.03800
H 	H 	0.87270 0.95202 0.66732 0.03800
H 	H 	0.91094 0.24273 0.60152 0.04400
C 	C 	0.42181 0.24709 0.65989 -0.00400
C 	C 	0.36304 0.23897 0.65463 -0.05200
C 	C 	0.32066 0.17971 0.66170 0.01300
C 	C 	0.33726 0.12935 0.67200 0.00300
C 	C 	0.39578 0.13421 0.67290 -0.05700
C 	C 	0.43844 0.19473 0.66773 0.01500
S 	S 	0.47735 0.30002 0.64301 0.03000
C 	C 	0.52498 0.26168 0.64642 -0.07800
C 	C 	0.49652 0.20302 0.66028 -0.02400
S 	S 	0.28040 0.06110 0.66770 0.00300
C 	C 	0.23239 0.09212 0.65387 -0.06900
C 	C 	0.26159 0.15912 0.65183 -0.02000
H 	H 	0.35096 0.27597 0.64398 0.04500
H 	H 	0.40757 0.09197 0.67609 0.04100
H 	H 	0.51362 0.16416 0.66099 0.03300
H 	H 	0.24054 0.19189 0.64439 0.04400
C 	C 	0.99401 0.55766 0.59233 -0.01600
C 	C 	0.98381 0.58180 0.56534 -0.00400
S 	S 	0.93484 0.49449 0.59980 0.01900
C 	C 	0.89630 0.49374 0.56939 -0.08200
C 	C 	0.92861 0.54554 0.55236 -0.01400
H 	H 	0.91067 0.56098 0.53332 0.03800
C 	C 	0.98556 0.53861 0.98063 0.03300
C 	C 	0.92727 0.53519 0.98022 -0.06600
C 	C 	0.89470 0.51613 0.95414 -0.00300
C 	C 	0.91885 0.49942 0.92956 0.09000
C 	C 	0.97717 0.50301 0.92999 -0.12000
N 	N 	0.87687 0.45649 0.91288 -0.15300
C 	C 	0.82649 0.44456 0.92701 -0.00100
C 	C 	0.83539 0.48142 0.95243 -0.04300
H 	H 	0.90828 0.54775 0.99935 0.04500
H 	H 	0.99621 0.49048 0.91087 0.05600
H 	H 	0.80655 0.47026 0.97071 0.04200
H 	H 	0.88407 0.42563 0.89733 0.09200
C 	C 	0.46139 0.04731 0.95243 0.09000
C 	C 	0.42627 0.03121 0.97691 -0.11100
C 	C 	0.43201 0.98329 0.99509 0.03800
C 	C 	0.47040 0.95154 0.98875 0.06300
C 	C 	0.50592 0.96819 0.96439 -0.05800
C 	C 	0.49973 0.01572 0.94610 -0.01600
N 	N 	0.48015 0.10660 0.94105 -0.15200
C 	C 	0.53110 0.11404 0.92811 -0.00500
C 	C 	0.54415 0.05806 0.93034 -0.03900
N 	N 	0.45072 0.89160 0.99952 -0.14800
C 	C 	0.39937 0.88430 0.01197 0.00300
C 	C 	0.38678 0.94052 0.01023 -0.05600
H 	H 	0.39606 0.05546 0.98174 0.05600
H 	H 	0.53613 0.94397 0.95951 0.04900
H 	H 	0.58689 0.05506 0.92750 0.04000
H 	H 	0.34373 0.94321 0.01224 0.05300
H 	H 	0.46646 0.14436 0.94725 0.08900
H 	H 	0.46346 0.85363 0.99260 0.09100
C 	C 	0.41564 0.48246 0.97940 0.07200
C 	C 	0.39767 0.42870 0.96044 -0.08800
C 	C 	0.42334 0.43493 0.93315 0.01000
C 	C 	0.46568 0.49267 0.92509 0.07100
C 	C 	0.48331 0.54646 0.94405 -0.08800
C 	C 	0.45888 0.53965 0.97163 0.00800
N 	N 	0.37995 0.49449 0.99861 -0.15200
C 	C 	0.40011 0.55912 0.00317 -0.00300
C 	C 	0.44914 0.58879 0.98680 -0.04600
N 	N 	0.50227 0.48100 0.90635 -0.15300
C 	C 	0.48462 0.41622 0.90277 -0.00200
C 	C 	0.43542 0.38594 0.91900 -0.04700
H 	H 	0.36464 0.38377 0.96665 0.05100
H 	H 	0.51626 0.59146 0.93786 0.05000
H 	H 	0.46252 0.63821 0.97961 0.04700
H 	H 	0.42349 0.33726 0.92700 0.05000
H 	H 	0.33684 0.46418 0.00170 0.08400
H 	H 	0.54490 0.51260 0.90316 0.07900
C 	C 	0.80940 0.13096 0.78889 0.00900
C 	C 	0.82802 0.10575 0.76463 -0.06100
C 	C 	0.88811 0.11939 0.76199 0.01500
C 	C 	0.92819 0.16078 0.78218 -0.00100
C 	C 	0.90955 0.18675 0.80623 -0.05500
C 	C 	0.84953 0.17378 0.80857 0.01100
S 	S 	0.74677 0.14410 0.79041 -0.02100
C 	C 	0.76782 0.20333 0.81557 -0.06800
C 	C 	0.82579 0.21390 0.82403 -0.02000
S 	S 	0.98976 0.14519 0.78124 0.00400
C 	C 	0.96963 0.08965 0.75439 -0.08800
C 	C 	0.91150 0.07946 0.74622 -0.02400
H 	H 	0.79681 0.07481 0.74891 0.04100
H 	H 	0.94071 0.21771 0.82195 0.04200
H 	H 	0.85008 0.24960 0.84024 0.04200
H 	H 	0.88498 0.03917 0.73260 0.03400
C 	C 	0.26870 0.96495 0.77554 -0.00800
C 	C 	0.32919 0.99805 0.77558 -0.03300
C 	C 	0.35569 0.03598 0.80010 -0.00700
C 	C 	0.32169 0.04245 0.82327 0.00800
C 	C 	0.26073 0.01607 0.82156 -0.07800
C 	C 	0.23424 0.97569 0.79769 0.03800
S 	S 	0.22715 0.94488 0.74548 0.01400
C 	C 	0.16457 0.94555 0.75907 -0.07200
C 	C 	0.17561 0.96388 0.78850 -0.02400
S 	S 	0.35941 0.10978 0.84155 0.02900
C 	C 	0.41974 0.13218 0.82189 -0.07300
C 	C 	0.41149 0.08558 0.79978 -0.02000
H 	H 	0.35394 0.99838 0.75631 0.04200
H 	H 	0.23471 0.03030 0.83710 0.05000
H 	H 	0.44417 0.08754 0.78396 0.02100
C 	C 	0.73227 0.55746 0.78199 -0.00000
C 	C 	0.76747 0.58351 0.75833 -0.05600
C 	C 	0.79901 0.65008 0.75882 0.01600
C 	C 	0.79770 0.68809 0.78318 -0.00300
C 	C 	0.76986 0.66019 0.80855 -0.05300
C 	C 	0.73513 0.59446 0.80739 0.01400
S 	S 	0.71006 0.48021 0.79109 0.01900
C 	C 	0.69975 0.49025 0.82639 -0.07800
C 	C 	0.71684 0.55658 0.83247 -0.01800
S 	S 	0.85517 0.75618 0.78215 0.03300
C 	C 	0.88255 0.74131 0.75096 -0.07900
C 	C 	0.84617 0.68041 0.74040 -0.02200
H 	H 	0.77261 0.55269 0.74099 0.04100
H 	H 	0.77718 0.68772 0.82876 0.04500
H 	H 	0.72317 0.57684 0.85434 0.04100
H 	H 	0.85347 0.65880 0.72033 0.02600
