data_crystal

_cell_length_a 18.73556
_cell_length_b 15.70936
_cell_length_c 41.70640
_cell_angle_alpha 90.91396
_cell_angle_beta  91.29453
_cell_angle_gamma 111.10934

_symmetry_space_group_name_	'P 1'
_symmetry_space_group_name_H-M	'P 1'

loop_
_symmetry_equiv_pos_as_xyz
  x,y,z

loop_
_atom_site_label
_atom_site_type_symbol
_atom_site_fract_x
_atom_site_fract_y
_atom_site_fract_z
_atom_site_charge
Ni	Ni	0.71359 0.29652 0.89110 1.10300
O 	O 	0.62677 0.23430 0.85787 -0.69900
Ni	Ni	0.54033 0.25753 0.87987 1.10000
O 	O 	0.78680 0.23489 0.87656 -0.36100
O 	O 	0.71109 0.10576 0.84957 -0.38600
O 	O 	0.76395 0.39900 0.85927 -0.36600
Ni	Ni	0.59933 0.10129 0.85498 1.07200
O 	O 	0.77512 0.49924 0.91475 -0.40500
O 	O 	0.60739 0.09852 0.90377 -0.41200
O 	O 	0.45443 0.18556 0.84830 -0.37500
O 	O 	0.62983 0.32871 0.91013 -0.70800
O 	O 	0.79444 0.36586 0.92486 -0.37400
O 	O 	0.46725 0.30650 0.90329 -0.35800
O 	O 	0.54761 0.45431 0.89891 -0.40700
Ni	Ni	0.65917 0.46110 0.90734 1.06700
H 	H 	0.63563 0.26211 0.83649 0.16700
H 	H 	0.62158 0.30945 0.93261 0.15500
C 	C 	0.55272 0.10586 0.92161 0.28100
O 	O 	0.66937 0.45808 0.85913 -0.41300
C 	C 	0.77337 0.17983 0.85138 0.29000
C 	C 	0.44088 0.09902 0.84179 0.29400
C 	C 	0.73055 0.45168 0.84640 0.29100
C 	C 	0.48918 0.39292 0.91230 0.28400
C 	C 	0.80947 0.45312 0.93139 0.28900
O 	O 	0.50855 0.14987 0.91121 -0.35900
O 	O 	0.48252 0.05779 0.85601 -0.40200
Ni	Ni	0.61154 0.32943 0.57035 1.10100
O 	O 	0.69082 0.35272 0.53534 -0.70000
Ni	Ni	0.76317 0.29752 0.55372 1.10000
O 	O 	0.56742 0.42451 0.55490 -0.37000
O 	O 	0.68739 0.52929 0.55468 -0.41100
O 	O 	0.53132 0.23395 0.54063 -0.36500
Ni	Ni	0.74743 0.47837 0.52359 1.07600
O 	O 	0.50993 0.14188 0.59551 -0.39800
O 	O 	0.84423 0.52928 0.55274 -0.38600
O 	O 	0.85055 0.33898 0.52144 -0.37500
O 	O 	0.67782 0.26351 0.58667 -0.70000
O 	O 	0.53432 0.29435 0.60574 -0.37600
O 	O 	0.81610 0.22031 0.57656 -0.35500
O 	O 	0.70648 0.09370 0.57552 -0.39600
Ni	Ni	0.61439 0.13391 0.58530 1.07000
H 	H 	0.66752 0.31772 0.51549 0.15600
H 	H 	0.69738 0.28471 0.60876 0.16900
C 	C 	0.86945 0.48340 0.57339 0.29600
O 	O 	0.59192 0.13156 0.53724 -0.41000
C 	C 	0.61380 0.50779 0.54921 0.28700
C 	C 	0.85930 0.40190 0.49935 0.29600
C 	C 	0.54303 0.16620 0.52548 0.29500
C 	C 	0.77647 0.13845 0.58693 0.27800
C 	C 	0.49825 0.20775 0.61245 0.28400
O 	O 	0.82293 0.40500 0.58379 -0.38700
O 	O 	0.80314 0.43028 0.49136 -0.41700
Ni	Ni	0.99646 0.93263 0.75238 1.09300
O 	O 	0.00446 0.84055 0.71879 -0.70000
Ni	Ni	0.07056 0.92473 0.68696 1.10000
O 	O 	0.92851 0.82986 0.78031 -0.35500
O 	O 	0.84592 0.76515 0.73800 -0.39900
O 	O 	0.09269 0.92093 0.77335 -0.36700
Ni	Ni	0.90819 0.76802 0.69714 1.07000
O 	O 	0.05110 0.16310 0.75776 -0.39400
O 	O 	0.88382 0.87808 0.68233 -0.40500
O 	O 	0.08402 0.82550 0.65829 -0.36200
O 	O 	0.04629 0.01481 0.71669 -0.69400
O 	O 	0.99808 0.03002 0.78600 -0.37000
O 	O 	0.15746 0.02390 0.66449 -0.35200
O 	O 	0.21334 0.08899 0.71244 -0.39800
Ni	Ni	0.12832 0.12162 0.73491 1.07700
H 	H 	0.03026 0.80053 0.72755 0.16900
H 	H 	0.00784 0.03651 0.70670 0.16500
C 	C 	0.92241 0.93217 0.65997 0.28200
O 	O 	0.15413 0.07452 0.77719 -0.36800
C 	C 	0.87314 0.75920 0.76695 0.27200
C 	C 	0.02283 0.75193 0.65149 0.28200
C 	C 	0.15500 0.99202 0.77981 0.27700
C 	C 	0.21597 0.08289 0.68098 0.26900
C 	C 	0.00148 0.11319 0.77861 0.30300
O 	O 	0.99237 0.93719 0.65337 -0.36600
O 	O 	0.95364 0.75510 0.65421 -0.40300
Ni	Ni	0.25616 0.69116 0.39333 1.09900
O 	O 	0.35439 0.74950 0.36840 -0.69800
Ni	Ni	0.43387 0.75551 0.40216 1.10200
O 	O 	0.19058 0.70656 0.35587 -0.36800
O 	O 	0.26074 0.84776 0.33720 -0.38500
O 	O 	0.25528 0.57118 0.37366 -0.39000
Ni	Ni	0.37221 0.87398 0.35521 1.07400
O 	O 	0.21630 0.60486 0.46481 -0.41800
O 	O 	0.35222 0.91235 0.40027 -0.41300
O 	O 	0.52760 0.81096 0.37492 -0.37400
O 	O 	0.33592 0.70575 0.42734 -0.70500
O 	O 	0.15768 0.62282 0.41741 -0.37800
O 	O 	0.49997 0.72888 0.43764 -0.37000
O 	O 	0.41717 0.58165 0.43774 -0.40800
Ni	Ni	0.31315 0.59074 0.44936 1.07300
H 	H 	0.35783 0.71116 0.34986 0.16800
H 	H 	0.33371 0.75155 0.44337 0.15700
C 	C 	0.40254 0.92276 0.42406 0.28500
O 	O 	0.25283 0.48576 0.41782 -0.39200
C 	C 	0.19492 0.78791 0.34674 0.28100
C 	C 	0.53438 0.88402 0.35835 0.28400
C 	C 	0.22963 0.49327 0.38828 0.30600
C 	C 	0.48120 0.64542 0.44813 0.28200
C 	C 	0.15451 0.58621 0.44612 0.30300
O 	O 	0.45376 0.88289 0.42272 -0.36400
O 	O 	0.48804 0.92886 0.36348 -0.39800
Ni	Ni	0.36030 0.68664 0.05782 1.09800
O 	O 	0.26625 0.66101 0.02766 -0.70100
Ni	Ni	0.20353 0.71807 0.05292 1.09900
O 	O 	0.40704 0.61059 0.03068 -0.36300
O 	O 	0.29676 0.48717 0.02516 -0.40200
O 	O 	0.42462 0.79364 0.03003 -0.36700
Ni	Ni	0.20477 0.53044 0.02230 1.07100
O 	O 	0.46596 0.87007 0.08811 -0.40400
O 	O 	0.19610 0.51284 0.07043 -0.40800
O 	O 	0.11511 0.69058 0.02021 -0.37100
O 	O 	0.29685 0.74252 0.08338 -0.70200
O 	O 	0.45149 0.71939 0.08943 -0.37100
O 	O 	0.15661 0.79586 0.07899 -0.35500
O 	O 	0.26687 0.91914 0.08541 -0.40300
Ni	Ni	0.35800 0.87399 0.08685 1.06700
H 	H 	0.27882 0.68990 0.00661 0.15000
H 	H 	0.28391 0.71443 0.10458 0.16500
C 	C 	0.14573 0.53517 0.08619 0.29400
O 	O 	0.35811 0.88719 0.03851 -0.41900
C 	C 	0.36408 0.53647 0.01474 0.28400
C 	C 	0.08563 0.60926 0.00626 0.28700
C 	C 	0.40320 0.86067 0.02074 0.29800
C 	C 	0.19767 0.87171 0.09455 0.28400
C 	C 	0.48607 0.80426 0.10003 0.28300
O 	O 	0.13483 0.61185 0.08025 -0.35600
O 	O 	0.09912 0.53973 0.01862 -0.39700
Ni	Ni	0.96155 0.04631 0.26620 1.10300
O 	O 	0.97167 0.14890 0.23513 -0.70900
Ni	Ni	0.91507 0.07644 0.19670 1.10400
O 	O 	0.02253 0.13721 0.30140 -0.34600
O 	O 	0.12206 0.20439 0.26807 -0.38800
O 	O 	0.86043 0.05718 0.27977 -0.37000
Ni	Ni	0.07619 0.21508 0.22293 1.07400
O 	O 	0.90339 0.81664 0.26063 -0.38100
O 	O 	0.09578 0.10136 0.20731 -0.39300
O 	O 	0.92034 0.18567 0.16950 -0.35400
O 	O 	0.92198 0.97535 0.22542 -0.70500
O 	O 	0.94276 0.93949 0.29615 -0.36700
O 	O 	0.83305 0.98635 0.16636 -0.36400
O 	O 	0.76079 0.91618 0.20867 -0.39500
Ni	Ni	0.83373 0.86715 0.23462 1.07800
H 	H 	0.94690 0.19107 0.24289 0.16700
H 	H 	0.96190 0.95324 0.21799 0.16000
C 	C 	0.06384 0.05734 0.18058 0.29400
O 	O 	0.79746 0.90300 0.27676 -0.38000
C 	C 	0.08656 0.20483 0.29504 0.27400
C 	C 	0.98771 0.25330 0.16760 0.26200
C 	C 	0.79809 0.98508 0.28350 0.28800
C 	C 	0.76766 0.93060 0.17758 0.26500
C 	C 	0.94686 0.86201 0.28557 0.27200
O 	O 	0.99961 0.06209 0.16895 -0.36800
O 	O 	0.05125 0.24121 0.17707 -0.38300
C 	C 	0.99631 0.32975 0.14607 -0.05900
C 	C 	0.03485 0.41904 0.15843 0.00400
C 	C 	0.08773 0.48444 0.13948 0.00800
C 	C 	0.09094 0.46628 0.10644 -0.06200
C 	C 	0.04170 0.38173 0.09278 0.01900
C 	C 	0.99426 0.31371 0.11266 -0.00400
C 	C 	0.02487 0.44095 0.19151 0.06800
C 	C 	0.04262 0.36260 0.05870 0.08400
C 	C 	0.94847 0.22462 0.09910 0.10600
C 	C 	0.14469 0.56467 0.15464 0.08500
N 	N 	0.91218 0.15350 0.08821 -0.09800
N 	N 	0.19033 0.62856 0.16675 -0.12000
N 	N 	0.04304 0.34631 0.03156 -0.11800
N 	N 	0.01689 0.45838 0.21794 -0.11500
C 	C 	0.56193 0.82988 0.11728 -0.06300
C 	C 	0.62231 0.91150 0.10987 0.00300
C 	C 	0.68500 0.94891 0.13151 -0.00500
C 	C 	0.69825 0.89441 0.15590 -0.05700
C 	C 	0.64335 0.80594 0.16027 -0.00000
C 	C 	0.57283 0.77693 0.14273 -0.00000
C 	C 	0.62259 0.95370 0.07918 0.09600
C 	C 	0.66006 0.74395 0.18201 0.07000
C 	C 	0.51125 0.69447 0.15156 0.08500
C 	C 	0.73012 0.04558 0.13076 0.10500
N 	N 	0.46213 0.62866 0.15864 -0.11300
N 	N 	0.76566 0.12292 0.13017 -0.10300
N 	N 	0.67338 0.69446 0.19935 -0.13300
N 	N 	0.62290 0.98738 0.05467 -0.11000
C 	C 	0.15807 0.91777 0.11492 -0.07300
C 	C 	0.11542 0.87187 0.14091 0.00200
C 	C 	0.09588 0.92168 0.16523 -0.00800
C 	C 	0.10581 0.01395 0.16075 -0.05400
C 	C 	0.14328 0.05871 0.13343 0.00100
C 	C 	0.16837 0.01039 0.11026 0.01400
C 	C 	0.08409 0.77307 0.14080 0.09000
C 	C 	0.15540 0.15435 0.12905 0.09400
C 	C 	0.19911 0.05371 0.08056 0.09700
C 	C 	0.06743 0.87834 0.19511 0.07200
N 	N 	0.22360 0.08830 0.05687 -0.10400
N 	N 	0.04502 0.84270 0.21886 -0.11600
N 	N 	0.16511 0.23058 0.12547 -0.10500
N 	N 	0.05803 0.69419 0.14062 -0.10100
C 	C 	0.60435 0.92827 0.34006 -0.06900
C 	C 	0.67733 0.95571 0.35546 0.01100
C 	C 	0.74370 0.98871 0.33713 -0.00600
C 	C 	0.73689 0.99301 0.30351 -0.05500
C 	C 	0.66491 0.97993 0.28911 -0.01000
C 	C 	0.59828 0.94524 0.30716 0.00500
C 	C 	0.68408 0.95072 0.39004 0.09300
C 	C 	0.65949 0.00120 0.25565 0.09300
C 	C 	0.52355 0.92410 0.29168 0.05700
C 	C 	0.81891 0.01563 0.35262 0.11000
N 	N 	0.46391 0.90722 0.27935 -0.13400
N 	N 	0.87898 0.03718 0.36494 -0.10000
N 	N 	0.65501 0.01833 0.22897 -0.11000
N 	N 	0.68940 0.94668 0.41763 -0.10300
C 	C 	0.12369 0.27514 0.32021 -0.06100
C 	C 	0.08027 0.31910 0.33588 -0.00100
C 	C 	0.11245 0.37862 0.36210 0.00700
C 	C 	0.19189 0.40928 0.36860 -0.06600
C 	C 	0.23633 0.36661 0.35275 0.00700
C 	C 	0.20148 0.29661 0.32951 0.00100
C 	C 	0.00272 0.30448 0.32465 0.10000
C 	C 	0.31754 0.39443 0.36043 0.08700
C 	C 	0.24486 0.24542 0.31596 0.09800
C 	C 	0.06244 0.39820 0.38441 0.09600
N 	N 	0.27957 0.20467 0.30517 -0.10300
N 	N 	0.02021 0.41118 0.40182 -0.10300
N 	N 	0.38235 0.41668 0.36658 -0.11100
N 	N 	0.94091 0.29281 0.31570 -0.11600
C 	C 	0.12348 0.80371 0.33699 -0.06700
C 	C 	0.05309 0.73060 0.32961 0.01700
C 	C 	0.99498 0.74760 0.31121 -0.01800
C 	C 	0.00968 0.83503 0.29848 -0.04100
C 	C 	0.08164 0.90360 0.30454 0.00200
C 	C 	0.12984 0.89225 0.32859 0.01200
C 	C 	0.03728 0.64158 0.34316 0.09500
C 	C 	0.11165 0.97625 0.28227 0.06000
C 	C 	0.18419 0.97141 0.34533 0.07900
C 	C 	0.92099 0.67581 0.30554 0.09700
N 	N 	0.22756 0.03463 0.35873 -0.10000
N 	N 	0.86190 0.61846 0.30102 -0.11100
N 	N 	0.13702 0.03378 0.26429 -0.10500
N 	N 	0.02424 0.57032 0.35394 -0.10000
C 	C 	0.43142 0.03370 0.50537 -0.02400
C 	C 	0.48991 0.11676 0.49911 -0.08600
C 	C 	0.50265 0.14556 0.46710 0.10900
C 	C 	0.46647 0.08375 0.44182 -0.02600
C 	C 	0.41467 0.99620 0.44822 -0.09200
C 	C 	0.39137 0.97481 0.47998 0.09600
N 	N 	0.33012 0.89880 0.48612 -0.20000
H 	H 	0.41797 0.01418 0.52997 0.05200
H 	H 	0.48142 0.10223 0.41725 0.05400
N 	N 	0.54856 0.23217 0.46053 -0.19900
H 	H 	0.31562 0.88027 0.50973 0.08800
H 	H 	0.29342 0.86128 0.46753 0.07800
H 	H 	0.56668 0.28285 0.47854 0.08000
H 	H 	0.56179 0.25118 0.43686 0.09000
C 	C 	0.99543 0.41709 0.49300 -0.05600
C 	C 	0.93146 0.43521 0.48142 -0.07900
C 	C 	0.94081 0.49674 0.45599 0.10300
C 	C 	0.01472 0.55407 0.44833 -0.01700
C 	C 	0.07864 0.53471 0.45917 -0.09100
C 	C 	0.06773 0.46083 0.48011 0.12900
N 	N 	0.12449 0.42805 0.48633 -0.19900
H 	H 	0.98874 0.36700 0.51138 0.06600
H 	H 	0.02186 0.60801 0.43140 0.06100
N 	N 	0.88048 0.49360 0.43667 -0.19600
H 	H 	0.11847 0.38053 0.50429 0.09600
H 	H 	0.17056 0.44093 0.47121 0.08300
H 	H 	0.83085 0.43525 0.43519 0.10400
H 	H 	0.88644 0.54441 0.41996 0.09200
C 	C 	0.48377 0.60424 0.50491 -0.04500
C 	C 	0.52237 0.62797 0.47608 -0.09800
C 	C 	0.59731 0.62720 0.47366 0.10900
C 	C 	0.62953 0.59526 0.49930 -0.03800
C 	C 	0.58786 0.56338 0.52701 -0.11000
C 	C 	0.51656 0.57356 0.53070 0.11600
N 	N 	0.48009 0.55555 0.55902 -0.19900
H 	H 	0.42756 0.60849 0.50712 0.01100
H 	H 	0.68544 0.59032 0.49692 -0.00700
N 	N 	0.63774 0.65452 0.44658 -0.19900
H 	H 	0.42595 0.55969 0.56117 0.08600
H 	H 	0.50656 0.54149 0.57951 0.10100
H 	H 	0.61563 0.67872 0.42704 0.10600
H 	H 	0.69269 0.65244 0.44495 0.08700
C 	C 	0.81628 0.08873 0.60559 -0.06400
C 	C 	0.85707 0.04147 0.58972 0.01500
C 	C 	0.89028 0.98848 0.60735 -0.00700
C 	C 	0.88562 0.98588 0.64118 -0.07600
C 	C 	0.84467 0.03356 0.65701 0.01100
C 	C 	0.81042 0.08508 0.63921 -0.00100
C 	C 	0.86439 0.04685 0.55518 0.09400
C 	C 	0.83601 0.02767 0.69148 0.08200
C 	C 	0.76868 0.13407 0.65550 0.06900
C 	C 	0.92556 0.93294 0.59054 0.09800
N 	N 	0.73539 0.17315 0.66848 -0.12000
N 	N 	0.95367 0.88861 0.57714 -0.10300
N 	N 	0.82876 0.02232 0.71894 -0.11700
N 	N 	0.87023 0.05119 0.52764 -0.10300
C 	C 	0.42689 0.18396 0.63046 -0.06100
C 	C 	0.42919 0.17878 0.66411 -0.00000
C 	C 	0.36122 0.15758 0.68132 0.00200
C 	C 	0.28942 0.13156 0.66447 -0.06000
C 	C 	0.28837 0.14608 0.63108 0.00100
C 	C 	0.35664 0.16928 0.61399 0.00600
C 	C 	0.50153 0.19495 0.68108 0.07500
C 	C 	0.21845 0.14381 0.61477 0.09500
C 	C 	0.35450 0.17747 0.57941 0.09800
C 	C 	0.36646 0.17303 0.71580 0.09200
N 	N 	0.35271 0.18395 0.55182 -0.10100
N 	N 	0.37102 0.18608 0.74329 -0.11100
N 	N 	0.16270 0.14202 0.60174 -0.10100
N 	N 	0.55922 0.20783 0.69462 -0.11100
C 	C 	0.03002 0.67552 0.63282 -0.05600
C 	C 	0.04047 0.68514 0.59968 0.01700
C 	C 	0.99627 0.61378 0.57854 -0.01600
C 	C 	0.94348 0.53295 0.59119 -0.06100
C 	C 	0.95355 0.51448 0.62369 0.00500
C 	C 	0.99672 0.58692 0.64474 -0.02500
C 	C 	0.09119 0.77081 0.58740 0.09800
C 	C 	0.92514 0.42163 0.63476 0.08900
C 	C 	0.00124 0.57244 0.67881 0.07300
C 	C 	0.00299 0.62492 0.54425 0.10500
N 	N 	0.00482 0.56096 0.70605 -0.12000
N 	N 	0.00874 0.63529 0.51692 -0.11500
N 	N 	0.90260 0.34747 0.64365 -0.10500
N 	N 	0.13167 0.83929 0.57761 -0.10300
C 	C 	0.95036 0.50393 0.93670 -0.04600
C 	C 	0.88149 0.50471 0.94888 -0.08100
C 	C 	0.88242 0.55402 0.97771 0.10400
C 	C 	0.95211 0.59683 0.99478 -0.04200
C 	C 	0.02002 0.58981 0.98376 -0.07800
C 	C 	0.01987 0.54741 0.95362 0.11400
N 	N 	0.08631 0.54840 0.94082 -0.19900
H 	H 	0.94977 0.46865 0.91408 0.06700
H 	H 	0.95268 0.63097 0.01765 0.06000
N 	N 	0.81671 0.55828 0.98962 -0.19600
H 	H 	0.08558 0.51428 0.91903 0.09300
H 	H 	0.13935 0.58569 0.95178 0.06100
H 	H 	0.76368 0.52533 0.97801 0.06400
H 	H 	0.81814 0.59480 0.01094 0.08800
C 	C 	0.48161 0.01514 0.00282 -0.01900
C 	C 	0.44588 0.92152 0.99548 -0.09800
C 	C 	0.45238 0.88761 0.96439 0.11600
C 	C 	0.49318 0.94869 0.94119 -0.05300
C 	C 	0.52594 0.04267 0.94823 -0.06700
C 	C 	0.52305 0.07569 0.97970 0.10400
N 	N 	0.56199 0.16462 0.98814 -0.19500
H 	H 	0.47870 0.04069 0.02688 0.04800
H 	H 	0.49614 0.92346 0.91709 0.04800
N 	N 	0.41772 0.79752 0.95628 -0.19800
H 	H 	0.55588 0.18995 0.01083 0.08600
H 	H 	0.60235 0.20763 0.97314 0.07400
H 	H 	0.38225 0.75128 0.97197 0.07900
H 	H 	0.42458 0.77311 0.93353 0.08300
C 	C 	0.44269 0.38395 0.96753 -0.05100
C 	C 	0.44732 0.42151 0.93703 -0.09700
C 	C 	0.42230 0.49527 0.93202 0.10900
C 	C 	0.39942 0.53515 0.95824 -0.05000
C 	C 	0.39708 0.49949 0.98892 -0.09700
C 	C 	0.41885 0.42307 0.99372 0.11600
N 	N 	0.41900 0.38860 0.02344 -0.20100
H 	H 	0.46144 0.32696 0.97124 0.04700
H 	H 	0.38051 0.59195 0.95452 0.03200
N 	N 	0.41753 0.52584 0.90200 -0.20000
H 	H 	0.43350 0.33088 0.02659 0.09100
H 	H 	0.40683 0.41992 0.04377 0.10700
H 	H 	0.42512 0.49069 0.88169 0.10500
H 	H 	0.40224 0.58292 0.89865 0.08500
C 	C 	0.84020 0.17872 0.83358 -0.05900
C 	C 	0.84721 0.20224 0.80099 0.00100
C 	C 	0.90699 0.19189 0.78324 0.00500
C 	C 	0.95847 0.15660 0.79812 -0.06900
C 	C 	0.95916 0.14903 0.83169 -0.00200
C 	C 	0.89792 0.15518 0.84924 0.00900
C 	C 	0.79353 0.23769 0.78590 0.07700
C 	C 	0.02459 0.13931 0.84821 0.11400
C 	C 	0.89287 0.13423 0.88306 0.09900
C 	C 	0.91723 0.22069 0.75028 0.08800
N 	N 	0.88886 0.11750 0.91003 -0.10300
N 	N 	0.92547 0.24398 0.72398 -0.10900
N 	N 	0.07698 0.13197 0.86141 -0.09900
N 	N 	0.75070 0.26607 0.77391 -0.11600
C 	C 	0.36528 0.04276 0.82766 -0.07300
C 	C 	0.29918 0.02269 0.84608 0.02700
C 	C 	0.22624 0.98991 0.83067 -0.01400
C 	C 	0.22015 0.98001 0.79702 -0.04800
C 	C 	0.28449 0.98182 0.77984 -0.01800
C 	C 	0.35777 0.01551 0.79500 0.02300
C 	C 	0.30642 0.03685 0.88062 0.09700
C 	C 	0.27500 0.94802 0.74690 0.08300
C 	C 	0.42518 0.02467 0.77690 0.07000
C 	C 	0.15765 0.96510 0.84925 0.10500
N 	N 	0.47900 0.03207 0.76244 -0.11600
N 	N 	0.10280 0.94486 0.86408 -0.09900
N 	N 	0.26745 0.92081 0.72061 -0.12200
N 	N 	0.31231 0.04817 0.90819 -0.09600
C 	C 	0.76789 0.51433 0.82016 -0.06400
C 	C 	0.84877 0.55356 0.81874 0.00100
C 	C 	0.88310 0.63356 0.80120 0.00200
C 	C 	0.83698 0.67531 0.78551 -0.07000
C 	C 	0.75643 0.63211 0.78518 -0.00100
C 	C 	0.72292 0.54763 0.80000 0.00000
C 	C 	0.89657 0.50954 0.83369 0.10000
C 	C 	0.70790 0.67673 0.77125 0.08900
C 	C 	0.64288 0.49323 0.79352 0.08500
C 	C 	0.96571 0.67141 0.79859 0.07100
N 	N 	0.57902 0.44978 0.78834 -0.11300
N 	N 	0.03158 0.70156 0.79652 -0.09900
N 	N 	0.66912 0.71229 0.76015 -0.11100
N 	N 	0.93491 0.47446 0.84549 -0.10900
