data_crystal

_cell_length_a 20.12978
_cell_length_b 20.56633
_cell_length_c 35.02171
_cell_angle_alpha 95.49775
_cell_angle_beta  95.49783
_cell_angle_gamma 126.15141

_symmetry_space_group_name_	'P 1'
_symmetry_space_group_name_H-M	'P 1'

loop_
_symmetry_equiv_pos_as_xyz
  x,y,z

loop_
_atom_site_label
_atom_site_type_symbol
_atom_site_fract_x
_atom_site_fract_y
_atom_site_fract_z
_atom_site_charge
N 	N 	0.02592 0.07953 0.99192 -0.12300
C 	C 	0.06135 0.04021 0.98930 0.12700
N 	N 	0.01382 0.95805 0.98746 -0.11900
N 	N 	0.00290 0.92783 0.46280 -0.12000
C 	C 	0.04483 0.00833 0.46158 0.12900
N 	N 	0.00345 0.04148 0.45976 -0.13100
Cu	Cu	0.61681 0.22323 0.00602 0.92900
Cu	Cu	0.67004 0.22466 0.92047 0.87200
Cu	Cu	0.65797 0.35223 0.95653 0.89900
Cu	Cu	0.63366 0.38128 0.03750 0.89800
C 	C 	0.65324 0.28354 0.08857 0.31300
O 	O 	0.49849 0.18336 0.00991 -0.35500
C 	C 	0.62484 0.29894 0.87033 0.30500
O 	O 	0.68994 0.35092 0.00981 -0.64000
O 	O 	0.59852 0.23168 0.95083 -0.64100
O 	O 	0.66386 0.16146 0.99910 -0.36900
O 	O 	0.75248 0.24662 0.96183 -0.44000
O 	O 	0.61816 0.31959 0.08075 -0.38000
O 	O 	0.72301 0.47011 0.96480 -0.37800
C 	C 	0.71950 0.51670 0.99189 0.31900
C 	C 	0.46921 0.22194 0.99743 0.30400
O 	O 	0.52113 0.29859 0.99358 -0.39200
O 	O 	0.69058 0.49215 0.02404 -0.39000
O 	O 	0.65289 0.23525 0.06068 -0.35500
C 	C 	0.73275 0.19362 0.98483 0.31200
O 	O 	0.63998 0.35370 0.90013 -0.36600
O 	O 	0.61419 0.23100 0.87559 -0.42100
H 	H 	0.75112 0.38421 0.01941 0.17000
H 	H 	0.53927 0.19841 0.93739 0.17800
Cu	Cu	0.75614 0.34061 0.45656 0.92700
Cu	Cu	0.75062 0.27828 0.53974 0.87400
Cu	Cu	0.62591 0.30075 0.50749 0.89900
Cu	Cu	0.59872 0.33403 0.42840 0.89800
C 	C 	0.69304 0.31227 0.37457 0.30800
O 	O 	0.80298 0.46042 0.45578 -0.35400
C 	C 	0.67794 0.32062 0.59265 0.31000
O 	O 	0.62569 0.27314 0.45334 -0.63800
O 	O 	0.74829 0.35442 0.51223 -0.63900
O 	O 	0.81237 0.28598 0.46000 -0.36200
O 	O 	0.72283 0.19862 0.49635 -0.43600
O 	O 	0.65909 0.34877 0.38412 -0.38300
O 	O 	0.50563 0.24080 0.50019 -0.37700
C 	C 	0.45758 0.23599 0.46987 0.31400
C 	C 	0.76419 0.48997 0.46831 0.30000
O 	O 	0.68725 0.43956 0.47375 -0.39300
O 	O 	0.48900 0.28541 0.44455 -0.38800
O 	O 	0.74224 0.30971 0.40120 -0.35000
O 	O 	0.62694 0.31730 0.56422 -0.37500
O 	O 	0.74660 0.33052 0.58639 -0.41400
H 	H 	0.58955 0.21360 0.44246 0.16800
H 	H 	0.78441 0.41170 0.52682 0.17800
C 	C 	0.65868 0.27587 0.69498 -0.11600
C 	C 	0.63295 0.32169 0.70993 0.00400
C 	C 	0.62043 0.36628 0.68610 0.12100
C 	C 	0.63501 0.36575 0.64772 -0.03100
C 	C 	0.66167 0.32048 0.63289 -0.12200
C 	C 	0.67306 0.27506 0.65671 0.19200
C 	C 	0.62061 0.32361 0.75083 0.00600
O 	O 	0.59585 0.41184 0.70051 -0.27100
H 	H 	0.62635 0.40110 0.62968 0.06300
O 	O 	0.69470 0.22701 0.64207 -0.30700
H 	H 	0.66771 0.24088 0.71313 0.06700
C 	C 	0.55198 0.25364 0.76160 0.11600
C 	C 	0.55020 0.24863 0.80115 -0.03300
C 	C 	0.61704 0.31279 0.83015 -0.12000
C 	C 	0.68250 0.38533 0.81945 0.18700
C 	C 	0.68375 0.39064 0.77988 -0.10900
O 	O 	0.48693 0.18987 0.73350 -0.27100
H 	H 	0.49847 0.19343 0.80918 0.05800
O 	O 	0.74650 0.45014 0.84752 -0.27900
H 	H 	0.73607 0.44527 0.77177 0.07900
H 	H 	0.75666 0.26174 0.64942 0.14500
H 	H 	0.50148 0.15193 0.72793 0.14500
H 	H 	0.78970 0.44101 0.85125 0.13800
H 	H 	0.53372 0.37418 0.69443 0.15500
C 	C 	0.65476 0.20695 0.18250 -0.11100
C 	C 	0.69351 0.27924 0.21016 0.00600
C 	C 	0.72722 0.35407 0.19754 0.12200
C 	C 	0.71901 0.35565 0.15757 -0.03500
C 	C 	0.67557 0.28268 0.12984 -0.11800
C 	C 	0.64543 0.20825 0.14245 0.19500
C 	C 	0.69121 0.27541 0.25202 0.00400
O 	O 	0.76733 0.42562 0.22427 -0.27600
H 	H 	0.74376 0.41336 0.14813 0.05000
O 	O 	0.60201 0.13606 0.11589 -0.28100
H 	H 	0.62915 0.14921 0.19206 0.07400
C 	C 	0.61587 0.24321 0.26564 0.11700
C 	C 	0.61637 0.25138 0.30583 -0.03500
C 	C 	0.69169 0.29176 0.33278 -0.11800
C 	C 	0.76658 0.32066 0.31910 0.19500
C 	C 	0.76575 0.31135 0.27883 -0.10900
O 	O 	0.54259 0.20832 0.23977 -0.27100
H 	H 	0.55845 0.22857 0.31607 0.04900
H 	H 	0.82377 0.33524 0.26848 0.08000
H 	H 	0.64466 0.12877 0.10991 0.15800
H 	H 	0.51653 0.14895 0.23387 0.14800
H 	H 	0.72289 0.43087 0.22934 0.15300
C 	C 	0.79784 0.57406 0.46758 -0.10300
C 	C 	0.13342 0.05880 0.46354 -0.01900
C 	C 	0.20791 0.09999 0.46530 -0.00400
C 	C 	0.29498 0.14729 0.46729 0.06400
C 	C 	0.36933 0.18759 0.46871 -0.10300
C 	C 	0.38179 0.18504 0.99426 -0.10300
C 	C 	0.30870 0.15498 0.99236 0.06300
C 	C 	0.22308 0.11889 0.99086 -0.00300
C 	C 	0.14952 0.08533 0.99000 -0.01800
C 	C 	0.94276 0.03601 0.99272 0.11000
C 	C 	0.93108 0.91489 0.98824 0.12300
N 	N 	0.89557 0.95379 0.99094 -0.12700
C 	C 	0.91985 0.99429 0.45933 0.13800
N 	N 	0.87730 0.91300 0.46080 -0.13300
C 	C 	0.91943 0.87989 0.46234 0.12100
C 	C 	0.77611 0.21664 0.47303 0.30600
O 	O 	0.84078 0.35947 0.34493 -0.27900
H 	H 	0.86527 0.41850 0.34927 0.15600
C 	C 	0.87695 0.79439 0.46385 -0.01900
C 	C 	0.84933 0.72424 0.46516 -0.00500
C 	C 	0.82175 0.64329 0.46659 0.05800
C 	C 	0.80291 0.16572 0.46640 -0.10800
C 	C 	0.82427 0.12173 0.46292 0.05400
C 	C 	0.85103 0.07140 0.46060 -0.00300
C 	C 	0.87838 0.03242 0.45965 -0.03500
C 	C 	0.76144 0.60109 0.98969 -0.10100
C 	C 	0.79802 0.67254 0.98851 0.06600
C 	C 	0.84251 0.75658 0.98785 -0.00400
C 	C 	0.88210 0.82876 0.98780 -0.01800
C 	C 	0.90348 0.07576 0.99356 -0.01900
C 	C 	0.86659 0.10528 0.99349 -0.01400
C 	C 	0.82051 0.13681 0.99219 0.06100
C 	C 	0.78022 0.16265 0.98973 -0.11800
