data_crystal

_cell_length_a 23.76622
_cell_length_b 24.35743
_cell_length_c 17.32065
_cell_angle_alpha 95.46785
_cell_angle_beta  95.47152
_cell_angle_gamma 125.82508

_symmetry_space_group_name_	'P 1'
_symmetry_space_group_name_H-M	'P 1'

loop_
_symmetry_equiv_pos_as_xyz
  x,y,z

loop_
_atom_site_label
_atom_site_type_symbol
_atom_site_fract_x
_atom_site_fract_y
_atom_site_fract_z
_atom_site_charge
C 	C 	0.95059 0.00807 0.07033 -0.00500
C 	C 	0.06510 0.02950 0.09049 -0.01400
C 	C 	0.02401 0.05252 0.07417 -0.04500
H 	H 	0.04895 0.10423 0.06268 0.03400
C 	C 	0.94822 0.00612 0.31227 -0.00700
C 	C 	0.01746 0.05662 0.35367 -0.04100
C 	C 	0.05961 0.03760 0.38405 -0.00700
H 	H 	0.03736 0.11011 0.36527 0.04000
Cu	Cu	0.63513 0.23885 0.99633 0.93300
Cu	Cu	0.74606 0.27629 0.87534 0.86100
Cu	Cu	0.67801 0.34044 0.88269 0.89000
Cu	Cu	0.59424 0.34369 0.00577 0.88600
C 	C 	0.62452 0.29585 0.14225 0.19000
O 	O 	0.52898 0.17317 0.96047 -0.34900
C 	C 	0.70753 0.30856 0.73121 0.19400
O 	O 	0.67109 0.34097 0.99230 -0.61900
O 	O 	0.65189 0.24669 0.88648 -0.64100
O 	O 	0.69292 0.20774 0.03017 -0.36200
O 	O 	0.78578 0.29152 0.98231 -0.42200
O 	O 	0.58250 0.30823 0.10626 -0.35900
O 	O 	0.71007 0.43475 0.88686 -0.37200
C 	C 	0.68843 0.46194 0.93383 0.26200
C 	C 	0.49256 0.19433 0.93392 0.25900
O 	O 	0.52596 0.25460 0.91297 -0.37200
O 	O 	0.62532 0.42305 0.95211 -0.37800
O 	O 	0.63152 0.25025 0.10649 -0.32600
C 	C 	0.75831 0.23964 0.01983 0.25800
O 	O 	0.67812 0.33247 0.76943 -0.34500
O 	O 	0.72878 0.27532 0.76441 -0.39400
H 	H 	0.71616 0.37791 0.02814 0.14400
H 	H 	0.61277 0.21027 0.84357 0.17800
Cu	Cu	0.72957 0.33642 0.36578 0.92700
Cu	Cu	0.73422 0.26454 0.51252 0.86300
Cu	Cu	0.65179 0.31884 0.50235 0.89300
Cu	Cu	0.60895 0.35580 0.36069 0.89300
C 	C 	0.64927 0.31963 0.21948 0.19600
O 	O 	0.78118 0.43966 0.37396 -0.35600
C 	C 	0.70981 0.31195 0.65498 0.19000
O 	O 	0.62712 0.29389 0.38912 -0.63900
O 	O 	0.74487 0.34458 0.48142 -0.64200
O 	O 	0.77038 0.28654 0.34098 -0.36500
O 	O 	0.70263 0.20605 0.41275 -0.43300
O 	O 	0.63767 0.36122 0.25591 -0.35900
O 	O 	0.55798 0.28636 0.51877 -0.37700
C 	C 	0.51927 0.30306 0.48434 0.26700
C 	C 	0.76283 0.47371 0.41415 0.25800
O 	O 	0.70384 0.43946 0.44176 -0.39200
O 	O 	0.52737 0.32273 0.41509 -0.39000
O 	O 	0.69625 0.31285 0.25413 -0.32600
C 	C 	0.74333 0.22598 0.35977 0.26700
O 	O 	0.67878 0.33510 0.61730 -0.34100
O 	O 	0.75111 0.30107 0.62194 -0.38900
H 	H 	0.58873 0.24444 0.36843 0.16400
H 	H 	0.78605 0.38979 0.51210 0.17500
C 	C 	0.84306 0.73362 0.32027 0.07000
C 	C 	0.78779 0.67571 0.34578 -0.08100
C 	C 	0.79202 0.62104 0.34969 0.00500
C 	C 	0.85312 0.62794 0.34140 0.07900
C 	C 	0.91252 0.68982 0.32709 -0.09000
C 	C 	0.90393 0.74001 0.30982 0.02600
N 	N 	0.85733 0.79615 0.33562 -0.16900
C 	C 	0.92711 0.84274 0.33655 0.07500
C 	C 	0.95784 0.80991 0.31972 -0.08500
N 	N 	0.85661 0.58362 0.37837 -0.15200
C 	C 	0.79657 0.54636 0.40824 -0.00300
C 	C 	0.75694 0.57096 0.39462 -0.04500
H 	H 	0.74548 0.67490 0.36563 0.04900
H 	H 	0.96362 0.69970 0.33280 0.05300
H 	H 	0.01381 0.83361 0.33246 0.05000
H 	H 	0.70151 0.54337 0.39765 0.03500
H 	H 	0.82622 0.80689 0.36209 0.08000
H 	H 	0.88947 0.56932 0.36859 0.08700
C 	C 	0.87494 0.09354 0.26095 0.06700
C 	C 	0.88857 0.15852 0.27237 -0.07800
C 	C 	0.84493 0.16627 0.31354 0.00300
C 	C 	0.78864 0.11146 0.33964 0.07400
C 	C 	0.77352 0.04612 0.32638 -0.09200
C 	C 	0.81734 0.03799 0.28585 0.02500
N 	N 	0.92623 0.08533 0.25982 -0.16800
C 	C 	0.90203 0.02518 0.28419 0.07500
C 	C 	0.83463 0.99435 0.30082 -0.09600
N 	N 	0.73958 0.12174 0.34743 -0.15300
C 	C 	0.76468 0.18379 0.32803 -0.00900
C 	C 	0.82926 0.21189 0.30386 -0.04100
H 	H 	0.93240 0.20153 0.25186 0.05000
H 	H 	0.72948 0.00326 0.34686 0.05000
H 	H 	0.86699 0.26516 0.29853 0.04700
H 	H 	0.97932 0.12507 0.26084 0.08100
H 	H 	0.69793 0.09419 0.37766 0.07900
C 	C 	0.22885 0.19234 0.47943 0.06900
C 	C 	0.29220 0.25420 0.47226 -0.08200
C 	C 	0.35551 0.27146 0.51462 0.00900
C 	C 	0.35666 0.22386 0.55195 0.07800
C 	C 	0.29368 0.15856 0.55124 -0.09100
C 	C 	0.22962 0.14616 0.52030 0.02500
N 	N 	0.16936 0.15885 0.42457 -0.16900
C 	C 	0.13238 0.09140 0.42929 0.07400
C 	C 	0.16756 0.08153 0.48883 -0.08900
N 	N 	0.41948 0.23508 0.55379 -0.15100
C 	C 	0.45847 0.28942 0.51784 0.00200
C 	C 	0.42041 0.31327 0.49261 -0.04600
H 	H 	0.29255 0.28522 0.43116 0.04900
H 	H 	0.29479 0.11774 0.56917 0.05300
H 	H 	0.15894 0.03325 0.49357 0.05000
H 	H 	0.42963 0.34085 0.44414 0.04600
H 	H 	0.16376 0.17728 0.37452 0.08000
H 	H 	0.42719 0.19727 0.55777 0.08700
C 	C 	0.77253 0.62018 0.06177 0.08000
C 	C 	0.77776 0.67682 0.09992 -0.09400
C 	C 	0.84558 0.73901 0.12554 0.03000
C 	C 	0.90450 0.74708 0.10336 0.06600
C 	C 	0.89755 0.69217 0.05702 -0.07300
C 	C 	0.83154 0.62754 0.04220 -0.01500
N 	N 	0.71374 0.56592 0.01351 -0.16100
C 	C 	0.73410 0.53661 0.96439 0.00400
C 	C 	0.80753 0.57562 0.97861 -0.02700
N 	N 	0.95437 0.81347 0.10018 -0.16800
C 	C 	0.92786 0.84804 0.11997 0.07600
C 	C 	0.86027 0.80341 0.13610 -0.08800
H 	H 	0.73095 0.67385 0.10468 0.05200
H 	H 	0.94033 0.70055 0.02934 0.04400
H 	H 	0.83751 0.55804 0.95971 0.04000
H 	H 	0.82094 0.81271 0.13480 0.04900
H 	H 	0.66246 0.54230 0.02415 0.08000
H 	H 	0.99326 0.82969 0.06556 0.08000
C 	C 	0.86733 0.07680 0.98130 0.09000
C 	C 	0.87557 0.13475 0.95902 -0.09100
C 	C 	0.82718 0.14686 0.97749 0.01900
C 	C 	0.78128 0.11098 0.02746 0.05600
C 	C 	0.77964 0.05923 0.05888 -0.07800
C 	C 	0.81871 0.03861 0.02893 0.00100
N 	N 	0.91999 0.07040 0.99032 -0.16400
C 	C 	0.90596 0.02927 0.04407 0.06200
C 	C 	0.84321 0.00780 0.06860 -0.07800
N 	N 	0.76238 0.14803 0.06234 -0.14600
C 	C 	0.79340 0.20664 0.03209 -0.02400
C 	C 	0.83730 0.20903 0.98214 -0.03700
H 	H 	0.91977 0.17060 0.93241 0.05100
H 	H 	0.75242 0.03865 0.10721 0.05400
H 	H 	0.85728 0.24186 0.93857 0.02100
H 	H 	0.96918 0.10359 0.97455 0.08400
H 	H 	0.71933 0.12806 0.09111 0.09400
C 	C 	0.23126 0.07615 0.05787 0.03900
C 	C 	0.30058 0.09871 0.08245 -0.06600
C 	C 	0.35183 0.14328 0.04046 -0.01500
C 	C 	0.33462 0.16422 0.97602 0.10100
C 	C 	0.26507 0.14183 0.95190 -0.11400
C 	C 	0.21373 0.09648 0.99343 0.07600
N 	N 	0.18500 0.05882 0.10675 -0.16700
C 	C 	0.13803 0.06870 0.07486 0.08600
C 	C 	0.15529 0.09341 0.00484 -0.13800
N 	N 	0.37937 0.17858 0.92560 -0.15900
C 	C 	0.42323 0.16444 0.95567 0.00600
C 	C 	0.40848 0.14373 0.02770 -0.05400
H 	H 	0.31410 0.08218 0.13223 0.04500
H 	H 	0.25132 0.15807 0.90199 0.06100
H 	H 	0.12062 0.09353 0.95962 0.07300
H 	H 	0.42588 0.11737 0.05701 0.05000
H 	H 	0.19328 0.05462 0.16559 0.08000
H 	H 	0.37032 0.18203 0.86661 0.08600
C 	C 	0.91897 0.94137 0.08627 -0.04500
C 	C 	0.96066 0.91966 0.10767 -0.00700
C 	C 	0.03402 0.96503 0.11252 -0.04000
H 	H 	0.86206 0.90585 0.07862 0.03800
H 	H 	0.06640 0.94874 0.12961 0.04100
C 	C 	0.03109 0.96728 0.37433 -0.04600
C 	C 	0.96073 0.91658 0.33642 -0.00500
C 	C 	0.92054 0.93639 0.30295 -0.04300
H 	H 	0.06281 0.95195 0.39761 0.03700
H 	H 	0.86701 0.89741 0.27123 0.04100
H 	H 	0.81256 0.95892 0.34155 0.05100
H 	H 	0.82678 0.98623 0.12097 0.05200
