data_crystal

_cell_length_a 26.54582
_cell_length_b 28.56543
_cell_length_c 26.44798
_cell_angle_alpha 89.92201
_cell_angle_beta  89.91817
_cell_angle_gamma 90.91670

_symmetry_space_group_name_	'P 1'
_symmetry_space_group_name_H-M	'P 1'

loop_
_symmetry_equiv_pos_as_xyz
  x,y,z

loop_
_atom_site_label
_atom_site_type_symbol
_atom_site_fract_x
_atom_site_fract_y
_atom_site_fract_z
_atom_site_charge
Zn	Zn	0.48494 0.51333 0.99766 1.22500
C 	C 	0.54848 0.59675 0.00356 0.32000
O 	O 	0.50911 0.47611 0.05385 -0.48700
O 	O 	0.51635 0.60968 0.03825 -0.45600
O 	O 	0.55968 0.52840 0.09173 -0.47900
C 	C 	0.40882 0.57062 0.03461 0.31600
O 	O 	0.43403 0.56024 0.99348 -0.45100
O 	O 	0.42643 0.55918 0.07949 -0.50000
C 	C 	0.55314 0.48672 0.07236 0.30400
O 	O 	0.41813 0.45968 0.98745 -0.32600
Zn	Zn	0.49828 0.56598 0.09705 1.17000
O 	O 	0.54484 0.55448 0.98382 -0.43800
C 	C 	0.44686 0.43916 0.95488 0.26900
O 	O 	0.48666 0.46349 0.94235 -0.38700
Zn	Zn	0.40852 0.15269 0.98023 1.22000
C 	C 	0.43677 0.13438 0.08404 0.30400
O 	O 	0.34452 0.12800 0.00881 -0.44400
O 	O 	0.39733 0.15735 0.09975 -0.44700
O 	O 	0.31617 0.19889 0.03558 -0.50300
C 	C 	0.44823 0.24610 0.99115 0.29400
O 	O 	0.43406 0.21424 0.95830 -0.45500
O 	O 	0.44477 0.23659 0.03944 -0.48700
C 	C 	0.30724 0.15547 0.02159 0.31200
O 	O 	0.37576 0.14434 0.89711 -0.33300
Zn	Zn	0.37908 0.21976 0.06601 1.17300
O 	O 	0.45399 0.14110 0.03792 -0.43100
C 	C 	0.40684 0.10984 0.89363 0.30100
O 	O 	0.43334 0.10191 0.93355 -0.39700
C 	C 	0.54619 0.97491 0.67054 0.15000
C 	C 	0.57691 0.94573 0.69959 -0.11200
H 	H 	0.60323 0.92275 0.68102 0.07400
C 	C 	0.57337 0.94618 0.75253 0.06600
C 	C 	0.53930 0.97605 0.77629 -0.07400
C 	C 	0.50823 0.00488 0.74741 0.02400
C 	C 	0.51189 0.00450 0.69453 -0.11000
H 	H 	0.48822 0.02703 0.67206 0.06700
N 	N 	0.54981 0.97451 0.61625 -0.17500
C 	C 	0.51723 0.94674 0.58883 0.19200
C 	C 	0.51914 0.94698 0.53558 -0.06200
C 	C 	0.55505 0.97560 0.51092 0.04000
C 	C 	0.58850 0.00346 0.53949 -0.07100
C 	C 	0.58527 0.00245 0.59267 0.18300
C 	C 	0.48563 0.91921 0.50675 -0.01300
C 	C 	0.48796 0.92007 0.45391 -0.01200
C 	C 	0.52391 0.94865 0.42899 -0.06300
C 	C 	0.55748 0.97638 0.45756 0.04000
C 	C 	0.59350 0.00487 0.43290 -0.07200
C 	C 	0.62451 0.03198 0.51457 -0.01300
C 	C 	0.62699 0.03267 0.46173 -0.01300
C 	C 	0.52694 0.94987 0.37581 0.19300
N 	N 	0.56261 0.97757 0.35222 -0.17600
C 	C 	0.59554 0.00499 0.37966 0.18300
C 	C 	0.56607 0.97728 0.29793 0.15700
C 	C 	0.59520 0.94357 0.27350 -0.12000
C 	C 	0.59887 0.94338 0.22061 0.07200
C 	C 	0.57258 0.97638 0.19210 -0.09300
C 	C 	0.54390 0.01055 0.21639 0.06300
C 	C 	0.54051 0.01082 0.26936 -0.12900
O 	O 	0.61624 0.02865 0.61991 -0.20600
O 	O 	0.48394 0.91980 0.61243 -0.20200
O 	O 	0.49546 0.92421 0.34855 -0.20600
O 	O 	0.62936 0.03135 0.35606 -0.20800
H 	H 	0.51826 0.03701 0.28833 0.07200
H 	H 	0.61522 0.91791 0.29563 0.07400
H 	H 	0.65063 0.05367 0.53598 0.04800
H 	H 	0.65500 0.05486 0.44337 0.04700
H 	H 	0.45769 0.89695 0.52511 0.04900
H 	H 	0.46179 0.89843 0.43250 0.04700
H 	H 	0.57501 0.97592 0.15116 0.06400
H 	H 	0.53690 0.97678 0.81723 0.05900
Zn	Zn	0.72270 0.81732 0.98697 1.21900
C 	C 	0.71185 0.81987 0.09493 0.30600
O 	O 	0.77212 0.86618 0.00736 -0.43800
O 	O 	0.75972 0.80997 0.10071 -0.44600
O 	O 	0.83361 0.81225 0.01490 -0.50500
C 	C 	0.71669 0.71760 0.99940 0.30400
O 	O 	0.72150 0.75153 0.96610 -0.46700
O 	O 	0.74119 0.72022 0.04235 -0.48700
C 	C 	0.81957 0.85604 0.01486 0.31600
O 	O 	0.73402 0.83765 0.90061 -0.32000
Zn	Zn	0.79618 0.76464 0.05248 1.17200
O 	O 	0.68874 0.80943 0.05243 -0.44100
C 	C 	0.68972 0.85594 0.90463 0.26700
O 	O 	0.66873 0.85234 0.94867 -0.38500
Zn	Zn	0.11979 0.67259 0.99687 1.22100
C 	C 	0.10372 0.65230 0.10285 0.30900
O 	O 	0.10222 0.73804 0.98203 -0.45800
O 	O 	0.14756 0.67148 0.11396 -0.44900
O 	O 	0.10509 0.75585 0.06530 -0.49500
C 	C 	0.22358 0.66156 0.02334 0.31600
O 	O 	0.18079 0.63908 0.01521 -0.44900
O 	O 	0.22377 0.70589 0.03612 -0.51000
C 	C 	0.09358 0.76746 0.01890 0.30400
O 	O 	0.14309 0.66147 0.91096 -0.32100
Zn	Zn	0.17145 0.73189 0.07819 1.17200
O 	O 	0.08156 0.66230 0.05987 -0.43600
C 	C 	0.10135 0.63728 0.90859 0.27000
O 	O 	0.07560 0.63437 0.94991 -0.39100
C 	C 	0.96939 0.49027 0.31244 0.14500
C 	C 	0.94201 0.45533 0.28684 -0.11900
H 	H 	0.92051 0.42940 0.30809 0.07500
C 	C 	0.94274 0.45375 0.23393 0.07800
C 	C 	0.97074 0.48730 0.20664 -0.10800
C 	C 	0.99824 0.52218 0.23218 0.08200
C 	C 	0.99720 0.52389 0.28511 -0.10600
H 	H 	0.01824 0.55095 0.30501 0.06100
N 	N 	0.96943 0.49129 0.36668 -0.17500
C 	C 	0.00409 0.46554 0.39268 0.18300
C 	C 	0.00417 0.46541 0.44586 -0.07400
C 	C 	0.96861 0.49218 0.47195 0.04200
C 	C 	0.93358 0.51862 0.44479 -0.06300
C 	C 	0.93457 0.51770 0.39162 0.19300
C 	C 	0.03912 0.43891 0.47325 -0.01300
C 	C 	0.03852 0.43914 0.52611 -0.01400
C 	C 	0.00300 0.46592 0.55243 -0.07300
C 	C 	0.96808 0.49249 0.52527 0.04100
C 	C 	0.93263 0.51937 0.55136 -0.06200
C 	C 	0.89811 0.54547 0.47111 -0.01200
C 	C 	0.89765 0.54585 0.52397 -0.01200
C 	C 	0.00185 0.46666 0.60560 0.18300
N 	N 	0.96719 0.49330 0.63054 -0.17500
C 	C 	0.93282 0.51938 0.60454 0.19300
C 	C 	0.96716 0.49420 0.68479 0.14600
C 	C 	0.93442 0.46449 0.71193 -0.11800
C 	C 	0.93360 0.46608 0.76485 0.07700
C 	C 	0.96638 0.49666 0.79063 -0.10800
C 	C 	0.99945 0.52610 0.76351 0.08400
C 	C 	0.99952 0.52511 0.71059 -0.10700
O 	O 	0.90179 0.54219 0.36563 -0.20400
O 	O 	0.03740 0.44078 0.36769 -0.21000
O 	O 	0.03418 0.44166 0.63158 -0.20700
O 	O 	0.89996 0.54466 0.62953 -0.20300
H 	H 	0.02466 0.54819 0.68949 0.06400
H 	H 	0.90936 0.44067 0.69186 0.07500
H 	H 	0.87084 0.56608 0.45078 0.04900
H 	H 	0.87003 0.56675 0.54346 0.04900
H 	H 	0.06679 0.41807 0.45376 0.04600
H 	H 	0.06574 0.41848 0.54643 0.04700
H 	H 	0.96594 0.49776 0.83161 0.06700
H 	H 	0.97117 0.48622 0.16565 0.06700
Zn	Zn	0.79858 0.32844 0.00037 1.22500
C 	C 	0.80815 0.35351 0.89534 0.30800
O 	O 	0.75131 0.38000 0.99594 -0.44900
O 	O 	0.75915 0.34830 0.89040 -0.44800
O 	O 	0.68647 0.33007 0.97682 -0.50300
C 	C 	0.79932 0.23570 0.96267 0.30500
O 	O 	0.79365 0.26074 0.00367 -0.47400
O 	O 	0.77523 0.24731 0.92144 -0.48400
C 	C 	0.70284 0.37099 0.99331 0.30700
O 	O 	0.79019 0.32921 0.08966 -0.32100
Zn	Zn	0.72166 0.29333 0.92542 1.17000
O 	O 	0.83124 0.33481 0.93411 -0.44400
C 	C 	0.83585 0.34618 0.08891 0.26800
O 	O 	0.85543 0.35231 0.04461 -0.38300
Zn	Zn	0.01595 0.04672 0.00340 1.21800
C 	C 	0.06867 0.96045 0.00028 0.31500
O 	O 	0.96707 0.03054 0.05652 -0.47900
O 	O 	0.09802 0.98236 0.03270 -0.44800
O 	O 	0.00742 0.97269 0.09713 -0.50100
C 	C 	0.10877 0.08587 0.03841 0.31900
O 	O 	0.08466 0.07111 0.99806 -0.45100
O 	O 	0.09131 0.07504 0.08348 -0.51200
C 	C 	0.96646 0.98842 0.07595 0.33500
O 	O 	0.99322 0.12495 0.00991 -0.31700
Zn	Zn	0.06893 0.01109 0.09778 1.16400
O 	O 	0.03009 0.98237 0.98044 -0.43500
C 	C 	0.96597 0.11795 0.96996 0.26000
O 	O 	0.96910 0.07624 0.95074 -0.37900
C 	C 	0.92068 0.19829 0.97988 -0.02500
H 	H 	0.95360 0.21787 0.99550 0.04500
C 	C 	0.87074 0.18864 0.00809 0.00900
H 	H 	0.86216 0.20029 0.04717 0.03800
C 	C 	0.89147 0.21199 0.93175 -0.00400
H 	H 	0.89963 0.24317 0.90780 0.03700
C 	C 	0.84177 0.20217 0.96008 -0.08300
C 	C 	0.92051 0.14703 0.96200 -0.04600
C 	C 	0.89183 0.16027 0.91370 -0.01900
H 	H 	0.90100 0.14831 0.87489 0.04000
C 	C 	0.84119 0.15101 0.94195 -0.00200
H 	H 	0.80795 0.13185 0.92644 0.02700
C 	C 	0.87071 0.13725 0.99016 -0.03100
H 	H 	0.86251 0.10616 0.01424 0.04400
C 	C 	0.83748 0.37983 0.85726 -0.06400
C 	C 	0.88587 0.36518 0.84398 -0.00700
C 	C 	0.91617 0.39271 0.81224 -0.02700
C 	C 	0.89866 0.43538 0.79350 -0.05000
C 	C 	0.84902 0.44962 0.80513 0.08800
C 	C 	0.81872 0.42143 0.83692 -0.04900
H 	H 	0.95388 0.38141 0.80313 0.04200
H 	H 	0.78118 0.43263 0.84698 0.05100
H 	H 	0.90034 0.33272 0.85892 0.04200
N 	N 	0.83052 0.49028 0.78645 -0.19800
H 	H 	0.85180 0.51180 0.76236 0.09500
H 	H 	0.79406 0.50065 0.79568 0.08600
C 	C 	0.86059 0.36460 0.13440 -0.04500
C 	C 	0.83490 0.39515 0.16640 -0.01600
C 	C 	0.86144 0.42147 0.20232 -0.02300
C 	C 	0.91383 0.41720 0.20678 -0.05100
C 	C 	0.93885 0.38240 0.17868 0.09100
C 	C 	0.91206 0.35692 0.14188 -0.05300
H 	H 	0.84177 0.44725 0.22459 0.03900
H 	H 	0.93153 0.33200 0.11825 0.05500
H 	H 	0.79494 0.40072 0.16133 0.04200
N 	N 	0.98838 0.37351 0.18674 -0.18400
H 	H 	0.00824 0.38954 0.21624 0.08000
H 	H 	0.00707 0.34899 0.16456 0.07300
C 	C 	0.11966 0.88278 0.98352 -0.01700
H 	H 	0.15431 0.89949 0.96770 0.03100
C 	C 	0.08727 0.84439 0.95703 -0.01000
H 	H 	0.09531 0.82866 0.91958 0.03800
C 	C 	0.11639 0.85529 0.03366 -0.01400
H 	H 	0.14853 0.84879 0.05944 -0.00700
C 	C 	0.08393 0.81753 0.00745 -0.08300
C 	C 	0.07132 0.90848 0.99806 -0.08100
C 	C 	0.06804 0.88108 0.04816 -0.01400
H 	H 	0.06041 0.89584 0.08614 0.01100
C 	C 	0.03557 0.84306 0.02186 -0.00500
H 	H 	0.00143 0.82579 0.03800 0.02300
C 	C 	0.03863 0.87104 0.97146 -0.01100
H 	H 	0.00691 0.87824 0.94545 0.03400
C 	C 	0.08364 0.61521 0.86187 -0.04800
C 	C 	0.03961 0.63116 0.83895 -0.01000
C 	C 	0.01442 0.60341 0.80341 -0.03700
C 	C 	0.03274 0.55919 0.79076 -0.05800
C 	C 	0.07975 0.54480 0.81020 0.09100
C 	C 	0.10487 0.57315 0.84586 -0.05500
H 	H 	0.97902 0.61508 0.78787 0.05000
H 	H 	0.13956 0.56134 0.86293 0.05000
H 	H 	0.02339 0.66397 0.85074 0.03600
N 	N 	0.10047 0.50378 0.79539 -0.19900
H 	H 	0.08378 0.48300 0.76741 0.09100
H 	H 	0.13448 0.49284 0.81098 0.08500
C 	C 	0.07816 0.62141 0.13953 -0.06900
C 	C 	0.02645 0.62593 0.14849 -0.00400
C 	C 	0.00118 0.59447 0.18036 -0.04500
C 	C 	0.02709 0.55767 0.20321 -0.05600
C 	C 	0.07970 0.55344 0.19523 0.08500
C 	C 	0.10490 0.58588 0.16373 -0.04800
H 	H 	0.96105 0.59804 0.18646 0.04700
H 	H 	0.14497 0.58255 0.15686 0.04800
H 	H 	0.00570 0.65367 0.13039 0.03100
N 	N 	0.10591 0.51811 0.21686 -0.19800
H 	H 	0.08829 0.49298 0.23979 0.08900
H 	H 	0.14465 0.51536 0.21067 0.08100
C 	C 	0.91261 0.94377 0.00526 -0.00500
H 	H 	0.93059 0.96025 0.97161 0.03700
C 	C 	0.85578 0.94585 0.01835 0.00100
H 	H 	0.82670 0.96364 0.99550 0.03600
C 	C 	0.91250 0.89090 0.01775 -0.00300
H 	H 	0.92914 0.86318 0.99397 0.03200
C 	C 	0.85626 0.89331 0.03102 -0.07800
C 	C 	0.92557 0.95452 0.06085 -0.08000
C 	C 	0.92578 0.90193 0.07342 -0.00900
H 	H 	0.95464 0.88394 0.09635 0.03400
C 	C 	0.86905 0.90406 0.08658 -0.01600
H 	H 	0.85066 0.88740 0.11993 0.02700
C 	C 	0.86925 0.95717 0.07418 -0.00800
H 	H 	0.85172 0.98469 0.09767 0.03400
C 	C 	0.66207 0.87335 0.86043 -0.04300
C 	C 	0.68493 0.90575 0.82746 -0.01500
C 	C 	0.65665 0.92689 0.78939 -0.02300
C 	C 	0.60536 0.91542 0.78351 -0.04700
C 	C 	0.58348 0.87934 0.81357 0.09100
C 	C 	0.61178 0.85941 0.85272 -0.05400
H 	H 	0.67397 0.95388 0.76603 0.04300
H 	H 	0.59465 0.83306 0.87711 0.05400
H 	H 	0.72400 0.91612 0.83269 0.04500
N 	N 	0.53565 0.86364 0.80483 -0.19800
H 	H 	0.51523 0.87507 0.77356 0.09300
H 	H 	0.51909 0.83826 0.82833 0.08600
C 	C 	0.68569 0.84758 0.13343 -0.06400
C 	C 	0.63514 0.83753 0.14503 -0.00800
C 	C 	0.60786 0.86776 0.17574 -0.02800
C 	C 	0.63056 0.90872 0.19484 -0.04900
C 	C 	0.68233 0.91809 0.18510 0.08800
C 	C 	0.70954 0.88711 0.15457 -0.04800
H 	H 	0.56844 0.86016 0.18335 0.03800
H 	H 	0.74871 0.89481 0.14569 0.05100
H 	H 	0.61660 0.80680 0.12925 0.03600
N 	N 	0.70578 0.95690 0.20417 -0.19800
H 	H 	0.68690 0.98032 0.22746 0.09500
H 	H 	0.74374 0.96382 0.19612 0.08600
C 	C 	0.18282 0.12975 0.98633 -0.01100
H 	H 	0.16161 0.13742 0.95121 0.03800
C 	C 	0.23059 0.09941 0.98983 -0.01300
H 	H 	0.24962 0.08224 0.95755 0.03800
C 	C 	0.20768 0.16680 0.02138 -0.00900
H 	H 	0.20775 0.20522 0.01492 0.03300
C 	C 	0.25476 0.13620 0.02496 -0.07000
C 	C 	0.16128 0.10463 0.03326 -0.07700
C 	C 	0.18551 0.14141 0.06832 -0.01300
H 	H 	0.16654 0.15864 0.10061 0.02700
C 	C 	0.23319 0.11107 0.07183 -0.01800
H 	H 	0.25443 0.10343 0.10694 0.02300
C 	C 	0.20830 0.07399 0.03679 -0.00800
H 	H 	0.20800 0.03557 0.04324 0.02000
C 	C 	0.47288 0.03627 0.77299 0.04700
C 	C 	0.43037 0.01747 0.79760 -0.09800
C 	C 	0.40443 0.04416 0.83305 0.04600
C 	C 	0.42097 0.08978 0.84457 -0.13400
C 	C 	0.46006 0.11075 0.81534 0.14700
C 	C 	0.48601 0.08353 0.77986 -0.12000
H 	H 	0.37383 0.02814 0.85441 0.01900
H 	H 	0.51794 0.09848 0.75954 0.06300
H 	H 	0.41938 0.98120 0.79163 0.06500
N 	N 	0.47360 0.15644 0.82207 -0.20900
H 	H 	0.45350 0.17810 0.84633 0.09900
H 	H 	0.50367 0.17118 0.80169 0.08300
C 	C 	0.46436 0.10439 0.11948 -0.06400
C 	C 	0.43801 0.07282 0.15078 -0.01100
C 	C 	0.46413 0.04348 0.18357 -0.03100
C 	C 	0.51693 0.04583 0.18611 -0.04800
C 	C 	0.54363 0.07950 0.15653 0.08400
C 	C 	0.51705 0.10768 0.12240 -0.04900
H 	H 	0.44337 0.01814 0.20629 0.03500
H 	H 	0.53733 0.13290 0.09904 0.05200
H 	H 	0.39729 0.07026 0.14892 0.03400
N 	N 	0.59430 0.08565 0.16156 -0.19700
H 	H 	0.61438 0.06851 0.18980 0.08800
H 	H 	0.61390 0.10932 0.13833 0.08300
C 	C 	0.49520 0.32986 0.98499 -0.01800
H 	H 	0.53222 0.31965 0.00067 0.03300
C 	C 	0.45859 0.36466 0.00937 -0.00500
H 	H 	0.46548 0.38387 0.04523 0.03500
C 	C 	0.48642 0.35284 0.93254 -0.01400
H 	H 	0.51619 0.36243 0.90471 0.03100
C 	C 	0.44957 0.38708 0.95719 -0.05900
C 	C 	0.45055 0.29623 0.97537 -0.08600
C 	C 	0.44161 0.31815 0.92297 -0.00800
H 	H 	0.43468 0.29839 0.88747 0.03400
C 	C 	0.40497 0.35335 0.94754 -0.01700
H 	H 	0.36779 0.36332 0.93206 0.03200
C 	C 	0.41395 0.33078 0.99974 -0.02300
H 	H 	0.38411 0.32161 0.02769 -0.01200
C 	C 	0.33545 0.61144 0.98114 -0.01500
H 	H 	0.35246 0.60884 0.94289 0.04300
C 	C 	0.32240 0.65757 0.00845 -0.00100
H 	H 	0.32784 0.69330 0.99258 0.02700
C 	C 	0.28403 0.58973 0.99744 -0.01100
H 	H 	0.25787 0.56963 0.97262 0.03900
C 	C 	0.27168 0.63557 0.02480 -0.07400
C 	C 	0.35895 0.59340 0.03045 -0.07000
C 	C 	0.30830 0.57128 0.04678 -0.00500
H 	H 	0.30304 0.53553 0.06265 0.03300
C 	C 	0.29519 0.61748 0.07404 -0.01400
H 	H 	0.27808 0.62017 0.11224 0.02300
C 	C 	0.34643 0.63921 0.05772 -0.01700
H 	H 	0.37252 0.65941 0.08253 0.01900
C 	C 	0.59397 0.40517 0.05413 -0.00600
H 	H 	0.56255 0.38345 0.06973 0.03000
C 	C 	0.64936 0.40333 0.07196 -0.01500
H 	H 	0.66404 0.37970 0.10167 0.03600
C 	C 	0.61142 0.40570 0.99846 -0.01500
H 	H 	0.59481 0.38439 0.96744 0.03100
C 	C 	0.66637 0.40409 0.01633 -0.06500
C 	C 	0.59714 0.45904 0.05487 -0.07400
C 	C 	0.61445 0.45968 0.99926 -0.02200
H 	H 	0.60035 0.48259 0.96870 0.03800
C 	C 	0.66996 0.45790 0.01699 -0.00300
H 	H 	0.70151 0.47940 0.00132 0.03800
C 	C 	0.65211 0.45770 0.07303 -0.00800
H 	H 	0.66853 0.47937 0.10387 0.03300
C 	C 	0.64128 0.61995 0.96194 -0.01200
H 	H 	0.64658 0.59113 0.93442 0.03700
C 	C 	0.67594 0.63100 0.00784 -0.00300
H 	H 	0.71044 0.61170 0.01811 0.02900
C 	C 	0.63996 0.67309 0.94899 -0.00800
H 	H 	0.64481 0.68857 0.91073 0.03800
C 	C 	0.67376 0.68348 0.99499 -0.08100
C 	C 	0.59498 0.62597 0.99619 -0.08200
C 	C 	0.59300 0.67844 0.98327 -0.01400
H 	H 	0.55851 0.69783 0.97313 0.03400
C 	C 	0.62731 0.68911 0.02901 -0.00400
H 	H 	0.62169 0.71773 0.05674 0.03400
C 	C 	0.62910 0.63650 0.04191 -0.01000
H 	H 	0.62446 0.62123 0.08031 0.01900
