data_crystal

_cell_length_a 26.16848
_cell_length_b 26.45541
_cell_length_c 35.15988
_cell_angle_alpha 95.48857
_cell_angle_beta  95.48564
_cell_angle_gamma 125.82864

_symmetry_space_group_name_	'P 1'
_symmetry_space_group_name_H-M	'P 1'

loop_
_symmetry_equiv_pos_as_xyz
  x,y,z

loop_
_atom_site_label
_atom_site_type_symbol
_atom_site_fract_x
_atom_site_fract_y
_atom_site_fract_z
_atom_site_charge
C 	C 	0.99262 0.06722 0.99771 0.08100
C 	C 	0.05916 0.10091 0.00070 -0.07800
C 	C 	0.08562 0.06803 0.99561 0.08300
C 	C 	0.04567 0.00156 0.98839 -0.08800
C 	C 	0.97932 0.96784 0.98589 0.08800
C 	C 	0.95279 0.00067 0.99057 -0.08600
H 	H 	0.09006 0.15239 0.00645 0.08500
H 	H 	0.06619 0.97612 0.98483 0.08400
H 	H 	0.90138 0.97457 0.98852 0.08300
C 	C 	0.90843 0.96025 0.45680 0.08000
C 	C 	0.87298 0.89401 0.45227 -0.07600
C 	C 	0.90494 0.86618 0.45553 0.08200
C 	C 	0.97215 0.90456 0.46258 -0.08000
C 	C 	0.00752 0.97054 0.46658 0.07800
C 	C 	0.97568 0.99843 0.46431 -0.07200
H 	H 	0.82097 0.86438 0.44638 0.08400
H 	H 	0.99686 0.88305 0.46462 0.08500
H 	H 	0.00311 0.04959 0.46777 0.08300
Cu	Cu	0.67411 0.29203 0.01334 0.93500
Cu	Cu	0.70756 0.27051 0.92832 0.88300
Cu	Cu	0.69306 0.37179 0.95123 0.90300
Cu	Cu	0.67996 0.41482 0.03001 0.91100
C 	C 	0.68879 0.34658 0.09122 0.31100
O 	O 	0.58257 0.25535 0.01839 -0.34000
C 	C 	0.66722 0.31358 0.86944 0.30500
O 	O 	0.72309 0.38704 0.00600 -0.63600
O 	O 	0.65328 0.28168 0.95618 -0.63500
O 	O 	0.71328 0.24639 0.01575 -0.32800
O 	O 	0.77324 0.29583 0.97065 -0.42000
O 	O 	0.69199 0.39603 0.08270 -0.35500
O 	O 	0.73849 0.46082 0.94889 -0.34700
C 	C 	0.74049 0.50242 0.97421 0.31100
C 	C 	0.55517 0.28099 0.00637 0.30900
O 	O 	0.58901 0.33542 0.99477 -0.37200
O 	O 	0.70365 0.48437 0.00073 -0.36400
O 	O 	0.70539 0.31825 0.06814 -0.33800
C 	C 	0.76053 0.26119 0.99758 0.30600
O 	O 	0.66713 0.35423 0.89442 -0.35100
O 	O 	0.66225 0.26465 0.88008 -0.39700
H 	H 	0.77040 0.41554 0.01406 0.18700
H 	H 	0.60703 0.25225 0.94448 0.18700
Cu	Cu	0.69083 0.28614 0.44095 0.93400
Cu	Cu	0.74786 0.28552 0.53090 0.89500
Cu	Cu	0.61027 0.25556 0.50429 0.90800
Cu	Cu	0.56779 0.28514 0.42937 0.91200
C 	C 	0.63101 0.27540 0.36496 0.30600
O 	O 	0.73211 0.37800 0.43667 -0.33700
C 	C 	0.67579 0.29051 0.58552 0.31100
O 	O 	0.59622 0.24066 0.44896 -0.63900
O 	O 	0.70286 0.30762 0.49855 -0.63200
O 	O 	0.72230 0.23296 0.43524 -0.32900
O 	O 	0.79220 0.27982 0.49331 -0.39700
O 	O 	0.58054 0.26969 0.37529 -0.35300
O 	O 	0.51963 0.20677 0.50493 -0.35400
C 	C 	0.48142 0.21571 0.48447 0.30400
C 	C 	0.70598 0.40583 0.44695 0.30200
O 	O 	0.65338 0.37492 0.46142 -0.35900
O 	O 	0.50453 0.26263 0.46477 -0.35900
O 	O 	0.66122 0.25803 0.38582 -0.33100
C 	C 	0.76160 0.23443 0.46248 0.30300
O 	O 	0.62268 0.25049 0.55948 -0.36700
O 	O 	0.73261 0.31886 0.57578 -0.38300
H 	H 	0.56749 0.19478 0.43749 0.18000
H 	H 	0.72270 0.35310 0.50726 0.17600
C 	C 	0.66067 0.31615 0.82775 -0.09100
C 	C 	0.70886 0.36961 0.81390 0.14400
C 	C 	0.70690 0.36756 0.77382 -0.07800
C 	C 	0.65737 0.31259 0.74733 0.02600
C 	C 	0.60745 0.26046 0.76110 0.08600
C 	C 	0.60930 0.26245 0.80115 -0.00700
H 	H 	0.74512 0.40795 0.76329 0.09100
C 	C 	0.66196 0.30733 0.70580 0.02600
H 	H 	0.57154 0.22162 0.81162 0.07400
C 	C 	0.69167 0.28094 0.69215 -0.08000
C 	C 	0.69610 0.27490 0.65289 0.15200
C 	C 	0.67160 0.29650 0.62694 -0.09300
C 	C 	0.64165 0.32270 0.64056 -0.00500
C 	C 	0.63688 0.32836 0.67985 0.08800
H 	H 	0.71063 0.26434 0.71203 0.09000
H 	H 	0.62219 0.33881 0.62063 0.07100
Br	Br	0.53715 0.18564 0.72560 -0.17500
Br	Br	0.78000 0.44429 0.84918 -0.20600
Br	Br	0.73268 0.23390 0.63493 -0.22800
Br	Br	0.59545 0.36427 0.69749 -0.17200
C 	C 	0.68360 0.33459 0.13148 -0.08100
C 	C 	0.65186 0.27244 0.13932 0.14900
C 	C 	0.64693 0.26258 0.17763 -0.07400
C 	C 	0.66925 0.31319 0.20801 0.02600
C 	C 	0.69982 0.37494 0.20019 0.08700
C 	C 	0.70809 0.38553 0.16230 -0.00700
H 	H 	0.62327 0.21498 0.18358 0.09500
C 	C 	0.65878 0.30088 0.24776 0.02600
H 	H 	0.73273 0.43341 0.15672 0.08000
C 	C 	0.71098 0.32096 0.27670 -0.07400
C 	C 	0.70308 0.31447 0.31520 0.14900
C 	C 	0.64113 0.28316 0.32450 -0.07900
C 	C 	0.58854 0.26106 0.29504 -0.00800
C 	C 	0.59731 0.27101 0.25710 0.08700
H 	H 	0.75838 0.34417 0.26960 0.09500
H 	H 	0.54080 0.23685 0.30170 0.08000
Br	Br	0.72815 0.44508 0.24054 -0.17000
Br	Br	0.60972 0.19965 0.09814 -0.18100
Br	Br	0.77838 0.35406 0.35474 -0.19100
Br	Br	0.52512 0.24580 0.21885 -0.17300
C 	C 	0.73652 0.47230 0.44338 -0.09200
C 	C 	0.70160 0.48896 0.42222 0.15400
C 	C 	0.72812 0.55290 0.42318 -0.08000
C 	C 	0.79018 0.60064 0.44401 0.03200
C 	C 	0.82643 0.58399 0.46352 0.08400
C 	C 	0.79938 0.51996 0.46322 -0.00400
H 	H 	0.70061 0.56554 0.40751 0.09500
C 	C 	0.81636 0.66789 0.44586 0.01300
H 	H 	0.82678 0.50736 0.47907 0.06900
C 	C 	0.81518 0.70121 0.47886 -0.06100
C 	C 	0.84162 0.76551 0.48167 0.11300
C 	C 	0.86834 0.79666 0.45083 -0.02200
C 	C 	0.86715 0.76260 0.41718 -0.04900
C 	C 	0.84184 0.69865 0.41470 0.10200
H 	H 	0.79489 0.67744 0.50270 0.08800
H 	H 	0.88786 0.78645 0.39345 0.08600
Br	Br	0.91291 0.64799 0.49051 -0.17900
Br	Br	0.61897 0.42507 0.39024 -0.23300
Br	Br	0.84331 0.81062 0.52852 -0.19600
Br	Br	0.84474 0.65477 0.36917 -0.17000
C 	C 	0.87537 0.99001 0.45398 -0.01800
C 	C 	0.86303 0.00499 0.41851 0.11000
C 	C 	0.84037 0.04151 0.41751 -0.05900
C 	C 	0.83037 0.06374 0.45173 0.01100
C 	C 	0.84014 0.04650 0.48689 0.10400
C 	C 	0.86242 0.00966 0.48782 -0.05300
H 	H 	0.83207 0.05398 0.39032 0.08800
C 	C 	0.81262 0.10741 0.45095 0.03100
H 	H 	0.87152 0.99792 0.51512 0.08500
C 	C 	0.74781 0.08304 0.44621 -0.08000
C 	C 	0.73043 0.12408 0.44890 0.14700
C 	C 	0.77831 0.19033 0.45571 -0.09500
C 	C 	0.84301 0.21453 0.45906 -0.00500
C 	C 	0.86034 0.17347 0.45675 0.08500
H 	H 	0.71099 0.03221 0.44161 0.09200
H 	H 	0.87999 0.26536 0.46405 0.07700
Br	Br	0.82532 0.07462 0.53412 -0.18700
Br	Br	0.87837 0.97724 0.37138 -0.17900
Br	Br	0.64146 0.08874 0.44586 -0.23200
Br	Br	0.94951 0.20849 0.46259 -0.18100
C 	C 	0.41399 0.17979 0.48885 -0.09000
C 	C 	0.38920 0.21126 0.50334 0.15200
C 	C 	0.32315 0.17731 0.50204 -0.08100
C 	C 	0.28170 0.11186 0.48735 0.03200
C 	C 	0.30695 0.07977 0.47516 0.08400
C 	C 	0.37289 0.11385 0.47593 -0.00900
H 	H 	0.30397 0.20186 0.51227 0.09400
C 	C 	0.21178 0.07798 0.48274 0.01200
H 	H 	0.39196 0.08928 0.46551 0.06700
C 	C 	0.17641 0.06755 0.44649 -0.06000
C 	C 	0.10974 0.03335 0.44107 0.11200
C 	C 	0.07804 0.01027 0.47239 -0.02200
C 	C 	0.11360 0.02195 0.50888 -0.05000
C 	C 	0.18021 0.05546 0.51416 0.10300
H 	H 	0.20068 0.08506 0.42231 0.08700
H 	H 	0.08929 0.00406 0.53300 0.08200
Br	Br	0.25200 0.98954 0.45709 -0.17900
Br	Br	0.44496 0.29977 0.52668 -0.18900
Br	Br	0.06253 0.01657 0.39035 -0.18300
Br	Br	0.22709 0.06860 0.56414 -0.17500
C 	C 	0.93803 0.89810 0.97996 -0.02700
C 	C 	0.91930 0.86137 0.94263 0.11400
C 	C 	0.88556 0.79554 0.93811 -0.06100
C 	C 	0.86984 0.76597 0.97054 0.01200
C 	C 	0.88724 0.80258 0.00774 0.10400
C 	C 	0.92111 0.86835 0.01225 -0.04700
H 	H 	0.87167 0.76738 0.90941 0.09000
C 	C 	0.83593 0.69684 0.96552 0.03000
H 	H 	0.93534 0.89653 0.04100 0.07800
C 	C 	0.87139 0.67289 0.96996 -0.07900
C 	C 	0.84036 0.60856 0.97106 0.15100
C 	C 	0.77314 0.56762 0.96739 -0.08700
C 	C 	0.73747 0.59094 0.96058 -0.00400
C 	C 	0.76852 0.65524 0.95959 0.08700
H 	H 	0.92328 0.70474 0.97401 0.09200
H 	H 	0.68562 0.55933 0.95702 0.07700
Br	Br	0.86562 0.76355 0.05273 -0.18300
Br	Br	0.93922 0.90034 0.89756 -0.17400
Br	Br	0.89090 0.57839 0.97988 -0.20900
Br	Br	0.71829 0.68588 0.95144 -0.17800
C 	C 	0.96439 0.10156 0.00133 -0.02000
C 	C 	0.94805 0.11956 0.96861 0.11000
C 	C 	0.91778 0.14876 0.97202 -0.06400
C 	C 	0.90331 0.15997 0.00782 0.01500
C 	C 	0.92051 0.14284 0.04068 0.10300
C 	C 	0.95109 0.11390 0.03732 -0.05100
H 	H 	0.90459 0.16190 0.94668 0.08500
C 	C 	0.86688 0.18622 0.01001 0.02800
H 	H 	0.96376 0.10021 0.06257 0.07900
C 	C 	0.79966 0.14490 0.00164 -0.07600
C 	C 	0.76417 0.16884 0.99893 0.14100
C 	C 	0.79617 0.23503 0.00520 -0.09300
C 	C 	0.86339 0.27634 0.01502 -0.00800
C 	C 	0.89882 0.25227 0.01738 0.08600
H 	H 	0.77500 0.09402 0.99602 0.08900
H 	H 	0.88821 0.32723 0.02001 0.07300
Br	Br	0.90207 0.15810 0.09023 -0.17800
Br	Br	0.96526 0.10313 0.91884 -0.17300
Br	Br	0.67242 0.11026 0.98378 -0.21300
Br	Br	0.99078 0.31024 0.02996 -0.17800
C 	C 	0.15539 0.10303 0.99852 -0.02600
C 	C 	0.18503 0.12967 0.96719 0.11400
C 	C 	0.25049 0.15853 0.96934 -0.06300
C 	C 	0.28646 0.15981 0.00217 0.01500
C 	C 	0.25686 0.13328 0.03351 0.10000
C 	C 	0.19170 0.10547 0.03167 -0.04700
H 	H 	0.27326 0.17916 0.94525 0.08900
C 	C 	0.35530 0.19000 0.00379 0.03300
H 	H 	0.16890 0.08460 0.05570 0.07700
C 	C 	0.40086 0.25222 0.02433 -0.08000
C 	C 	0.46636 0.28160 0.02642 0.15400
C 	C 	0.48672 0.24932 0.00661 -0.09300
C 	C 	0.44117 0.18677 0.98646 -0.00500
C 	C 	0.37563 0.15692 0.98506 0.08300
H 	H 	0.38532 0.27740 0.03925 0.09500
H 	H 	0.45665 0.16150 0.97159 0.06900
Br	Br	0.30426 0.13298 0.07857 -0.17600
Br	Br	0.13639 0.12494 0.92067 -0.17300
Br	Br	0.52720 0.36405 0.05863 -0.22600
Br	Br	0.31463 0.07078 0.95793 -0.18000
