data_crystal

_cell_length_a 26.12072
_cell_length_b 26.45130
_cell_length_c 23.04413
_cell_angle_alpha 95.47828
_cell_angle_beta  95.47840
_cell_angle_gamma 125.82133

_symmetry_space_group_name_	'P 1'
_symmetry_space_group_name_H-M	'P 1'

loop_
_symmetry_equiv_pos_as_xyz
  x,y,z

loop_
_atom_site_label
_atom_site_type_symbol
_atom_site_fract_x
_atom_site_fract_y
_atom_site_fract_z
_atom_site_charge
C 	C 	0.04560 0.01714 0.96097 0.11900
C 	C 	0.11874 0.06741 0.49115 -0.05300
C 	C 	0.14482 0.08275 0.43926 0.09200
Br	Br	0.08866 0.05155 0.36311 -0.11600
Br	Br	0.12386 0.07086 0.61793 -0.11900
C 	C 	0.04859 0.02763 0.48715 0.12200
Br	Br	0.08138 0.06598 0.84171 -0.11600
C 	C 	0.01798 0.04817 0.97396 -0.08700
H 	H 	0.04252 0.10507 0.48275 0.10400
C 	C 	0.15952 0.08853 0.54652 0.09300
C 	C 	0.22620 0.12289 0.54969 0.08100
C 	C 	0.21164 0.11950 0.44279 0.08000
C 	C 	0.11522 0.05422 0.96075 -0.05200
C 	C 	0.13910 0.07823 0.90984 0.09400
C 	C 	0.15709 0.06187 0.00997 0.09400
Br	Br	0.12545 0.03361 0.08141 -0.12000
H 	H 	0.04771 0.09960 0.98349 0.10400
C 	C 	0.20477 0.10987 0.90824 0.08100
C 	C 	0.01580 0.05435 0.48096 -0.09000
C 	C 	0.25226 0.13833 0.49777 0.01000
C 	C 	0.22201 0.09060 0.00720 0.08200
Br	Br	0.24788 0.14423 0.37242 -0.11600
Br	Br	0.23843 0.14645 0.84023 -0.10800
C 	C 	0.24603 0.11496 0.95646 0.00800
Br	Br	0.27155 0.02442 0.89030 -0.11600
Br	Br	0.27795 0.09569 0.07240 -0.12000
C 	C 	0.95181 0.01266 0.97411 0.11900
C 	C 	0.91453 0.04396 0.46190 -0.05000
C 	C 	0.89730 0.04982 0.40447 0.09300
Br	Br	0.72615 0.05428 0.43418 -0.11800
Br	Br	0.29175 0.04744 0.47709 -0.11800
Br	Br	0.93764 0.02649 0.10751 -0.11400
C 	C 	0.90727 0.07286 0.51169 0.09300
Br	Br	0.92443 0.05917 0.58967 -0.12100
Br	Br	0.84769 0.07599 0.12933 -0.10400
C 	C 	0.90803 0.05061 0.04352 0.09500
C 	C 	0.87301 0.07454 0.05361 0.08000
C 	C 	0.88821 0.11212 0.50457 0.08100
C 	C 	0.87657 0.08774 0.39716 0.08100
Br	Br	0.85242 0.09557 0.31864 -0.10600
C 	C 	0.92229 0.04512 0.98682 -0.05200
C 	C 	0.90521 0.06749 0.94136 0.09300
C 	C 	0.74933 0.07833 0.99764 0.06300
Br	Br	0.62375 0.04806 0.95978 -0.16000
Br	Br	0.92370 0.05903 0.86345 -0.12200
Br	Br	0.42707 0.09689 0.88621 -0.16200
C 	C 	0.87414 0.12063 0.44734 0.00900
C 	C 	0.85738 0.16461 0.44011 0.02300
C 	C 	0.79357 0.14327 0.43843 0.06600
Br	Br	0.69366 0.15904 0.44782 -0.20500
Br	Br	0.88307 0.15575 0.57317 -0.13600
C 	C 	0.32208 0.17280 0.50054 0.02400
C 	C 	0.34676 0.13879 0.48724 0.06700
Br	Br	0.28191 0.14799 0.62478 -0.11300
Br	Br	0.44321 0.12466 0.45587 -0.15700
C 	C 	0.85545 0.09641 0.00797 0.01100
C 	C 	0.87327 0.09458 0.95240 0.07800
C 	C 	0.81642 0.11943 0.01756 0.02500
C 	C 	0.71406 0.10303 0.99455 0.12000
Br	Br	0.85365 0.12909 0.89146 -0.14100
C 	C 	0.33468 0.11229 0.92756 0.06700
C 	C 	0.40051 0.14154 0.92910 0.12900
C 	C 	0.94851 0.01547 0.47043 0.12000
C 	C 	0.41120 0.17142 0.48075 0.12700
C 	C 	0.31494 0.14685 0.95431 0.02400
Br	Br	0.90407 0.00738 0.33608 -0.11400
C 	C 	0.74554 0.16847 0.01420 -0.11100
C 	C 	0.77923 0.18692 0.44074 0.12400
O 	O 	0.66106 0.18135 0.01486 -0.32600
C 	C 	0.84681 0.18369 0.04169 0.06500
C 	C 	0.71411 0.19773 0.99667 0.32700
H 	H 	0.57890 0.20129 0.89521 0.20400
O 	O 	0.53622 0.20387 0.99945 -0.32900
C 	C 	0.44689 0.20396 0.96087 -0.11000
C 	C 	0.81084 0.20763 0.04170 0.12800
C 	C 	0.36106 0.21086 0.98180 0.06500
C 	C 	0.00729 0.95065 0.94969 -0.08700
H 	H 	0.02883 0.92666 0.94084 0.10300
H 	H 	0.03967 0.94157 0.48970 0.10400
C 	C 	0.01420 0.96224 0.48502 -0.08900
Br	Br	0.70637 0.98860 0.97288 -0.11600
C 	C 	0.94153 0.91512 0.95125 0.12200
C 	C 	0.91358 0.94612 0.96222 -0.08600
H 	H 	0.86257 0.91862 0.96288 0.10400
C 	C 	0.94689 0.92311 0.47456 0.12300
C 	C 	0.91393 0.94973 0.46717 -0.08400
H 	H 	0.86182 0.91947 0.45846 0.10600
Cu	Cu	0.62826 0.23263 0.00599 0.93700
Cu	Cu	0.68361 0.21990 0.88747 0.88800
Cu	Cu	0.66689 0.32113 0.91650 0.90500
Cu	Cu	0.63888 0.35794 0.02751 0.91600
C 	C 	0.64524 0.29345 0.12341 0.29000
C 	C 	0.66256 0.27338 0.79477 0.28200
O 	O 	0.68587 0.32988 0.00113 -0.63600
O 	O 	0.62285 0.22938 0.91932 -0.63400
O 	O 	0.73699 0.23707 0.95945 -0.40800
O 	O 	0.61873 0.31800 0.09920 -0.34000
O 	O 	0.71541 0.41133 0.91652 -0.35400
C 	C 	0.71164 0.45210 0.94999 0.33900
C 	C 	0.51580 0.23116 0.97007 0.32300
O 	O 	0.55763 0.28753 0.95791 -0.36600
O 	O 	0.68821 0.44022 0.99946 -0.35100
O 	O 	0.64784 0.25132 0.09116 -0.32500
O 	O 	0.65382 0.30923 0.82975 -0.34300
O 	O 	0.65306 0.22203 0.80956 -0.37500
H 	H 	0.73223 0.35700 0.01881 0.19500
Cu	Cu	0.73324 0.34045 0.42139 0.93400
Cu	Cu	0.77314 0.31496 0.55023 0.89700
Cu	Cu	0.64954 0.31636 0.51445 0.92100
Cu	Cu	0.61280 0.34171 0.40161 0.91600
C 	C 	0.66761 0.31899 0.30330 0.29000
O 	O 	0.77076 0.43296 0.42036 -0.32800
C 	C 	0.68703 0.30203 0.62596 0.28900
O 	O 	0.63637 0.29262 0.43030 -0.63700
O 	O 	0.74123 0.35552 0.50935 -0.62200
O 	O 	0.77077 0.29267 0.41077 -0.32900
O 	O 	0.83409 0.33375 0.50242 -0.38800
O 	O 	0.64527 0.34871 0.32565 -0.33800
O 	O 	0.55987 0.27236 0.51764 -0.34700
C 	C 	0.51809 0.27226 0.48049 0.33600
C 	C 	0.74756 0.45971 0.44712 0.32400
O 	O 	0.69217 0.42415 0.46425 -0.36800
O 	O 	0.53569 0.30794 0.43928 -0.35000
O 	O 	0.70876 0.31506 0.33657 -0.32300
C 	C 	0.81472 0.29826 0.44995 0.33700
O 	O 	0.66665 0.33056 0.59984 -0.34400
O 	O 	0.70407 0.27190 0.59451 -0.38700
H 	H 	0.60571 0.24637 0.41482 0.19600
H 	H 	0.76892 0.40128 0.52702 0.18400
C 	C 	0.67009 0.28343 0.73516 -0.01200
C 	C 	0.67755 0.29203 0.68527 -0.02000
C 	C 	0.65479 0.29955 0.18673 -0.00600
C 	C 	0.66125 0.30706 0.24005 -0.00400
C 	C 	0.77761 0.52757 0.44847 -0.11200
C 	C 	0.84116 0.57426 0.47904 0.12900
C 	C 	0.86857 0.63900 0.48208 0.06700
C 	C 	0.83118 0.65707 0.45786 0.02400
C 	C 	0.76730 0.61042 0.42852 0.06600
C 	C 	0.74166 0.54596 0.42120 0.13200
C 	C 	0.85947 0.72511 0.46181 0.01000
C 	C 	0.86005 0.75932 0.51299 0.08000
C 	C 	0.88722 0.82402 0.51672 0.09400
C 	C 	0.91114 0.85378 0.46822 -0.05000
C 	C 	0.90700 0.81854 0.41577 0.09300
C 	C 	0.88343 0.75496 0.41336 0.08000
Br	Br	0.71469 0.63502 0.39908 -0.11300
Br	Br	0.88962 0.54967 0.51882 -0.16400
Br	Br	0.89354 0.87250 0.58879 -0.11600
Br	Br	0.88508 0.70894 0.34427 -0.11500
Br	Br	0.65917 0.48333 0.37048 -0.18500
Br	Br	0.95738 0.70302 0.51892 -0.11600
Br	Br	0.82337 0.71730 0.57774 -0.11200
Br	Br	0.93287 0.85739 0.34705 -0.11400
C 	C 	0.82817 0.25154 0.44113 -0.12400
C 	C 	0.89104 0.27199 0.43833 0.12900
C 	C 	0.90593 0.22877 0.43881 0.06500
Br	Br	0.99301 0.25753 0.43928 -0.11800
Br	Br	0.95653 0.35910 0.43352 -0.12800
C 	C 	0.36313 0.23964 0.51217 0.06700
C 	C 	0.42838 0.27235 0.50865 0.12900
C 	C 	0.45177 0.23823 0.49046 -0.11000
Br	Br	0.48626 0.36367 0.53087 -0.13100
Br	Br	0.32937 0.28613 0.53122 -0.11200
C 	C 	0.74248 0.51616 0.93644 -0.11000
C 	C 	0.80983 0.55802 0.94173 0.12900
C 	C 	0.83968 0.62152 0.93582 0.06600
C 	C 	0.80273 0.64413 0.92802 0.02300
C 	C 	0.73524 0.60170 0.92017 0.06700
C 	C 	0.70509 0.53745 0.92312 0.12600
C 	C 	0.83517 0.71322 0.93354 0.01000
C 	C 	0.85652 0.75147 0.99015 0.07900
C 	C 	0.89172 0.81765 0.99596 0.09200
C 	C 	0.90274 0.84542 0.94497 -0.05000
C 	C 	0.87903 0.80693 0.88819 0.09300
C 	C 	0.84639 0.74098 0.88251 0.08100
Br	Br	0.68448 0.63225 0.90752 -0.11200
Br	Br	0.86155 0.52960 0.96097 -0.15700
Br	Br	0.92717 0.87062 0.07380 -0.11000
Br	Br	0.81802 0.68870 0.80510 -0.11400
Br	Br	0.61254 0.47829 0.90848 -0.13900
Br	Br	0.93135 0.67815 0.93969 -0.12000
Br	Br	0.83746 0.71292 0.05967 -0.11300
Br	Br	0.89113 0.84469 0.81835 -0.11800
Br	Br	0.93813 0.23941 0.07196 -0.11400
Br	Br	0.85061 0.29389 0.07951 -0.14700
C 	C 	0.42695 0.23860 0.98744 0.13000
Br	Br	0.33369 0.26022 0.01232 -0.11000
Br	Br	0.48934 0.32192 0.03562 -0.17400
