data_crystal

_cell_length_a 48.12626
_cell_length_b 46.83084
_cell_length_c 37.70094
_cell_angle_alpha 89.96006
_cell_angle_beta  89.95776
_cell_angle_gamma 90.47418

_symmetry_space_group_name_	'P 1'
_symmetry_space_group_name_H-M	'P 1'

loop_
_symmetry_equiv_pos_as_xyz
  x,y,z

loop_
_atom_site_label
_atom_site_type_symbol
_atom_site_fract_x
_atom_site_fract_y
_atom_site_fract_z
_atom_site_charge
Zn	Zn	0.49113 0.50417 0.99940 1.22200
C 	C 	0.52552 0.55481 0.99689 0.32000
O 	O 	0.50946 0.47951 0.03421 -0.47300
O 	O 	0.51059 0.56378 0.02383 -0.45000
O 	O 	0.53337 0.51422 0.06312 -0.49500
C 	C 	0.44898 0.54013 0.02687 0.32700
O 	O 	0.46309 0.53370 0.99824 -0.45500
O 	O 	0.45992 0.53578 0.05832 -0.50600
C 	C 	0.53184 0.48810 0.05090 0.33900
O 	O 	0.45388 0.47146 0.99653 -0.32700
Zn	Zn	0.50009 0.53753 0.06576 1.17000
O 	O 	0.52303 0.52832 0.98556 -0.43500
C 	C 	0.46442 0.46369 0.96641 0.27900
O 	O 	0.48675 0.47738 0.95693 -0.38100
Zn	Zn	0.33899 0.17690 0.00504 1.22100
C 	C 	0.35902 0.17416 0.07732 0.31900
O 	O 	0.29819 0.17346 0.00726 -0.46400
O 	O 	0.35458 0.20176 0.07976 -0.44700
O 	O 	0.29503 0.18791 0.06469 -0.49600
C 	C 	0.36046 0.23381 0.00466 0.34600
O 	O 	0.36738 0.20681 0.00462 -0.45500
O 	O 	0.33713 0.24187 0.01936 -0.51000
C 	C 	0.28474 0.17398 0.03753 0.33600
O 	O 	0.33664 0.18285 0.94274 -0.32200
Zn	Zn	0.31985 0.22027 0.05769 1.17100
O 	O 	0.34835 0.15946 0.05085 -0.43800
C 	C 	0.34610 0.15697 0.94134 0.27900
O 	O 	0.35044 0.14496 0.97175 -0.38200
C 	C 	0.53901 0.99651 0.37394 0.14000
C 	C 	0.52195 0.01476 0.35428 -0.10400
H 	H 	0.50893 0.03004 0.36789 0.07200
C 	C 	0.52145 0.01299 0.31716 0.05300
C 	C 	0.53815 0.99300 0.29973 -0.08600
C 	C 	0.55519 0.97466 0.31934 0.05200
C 	C 	0.55566 0.97653 0.35646 -0.10400
H 	H 	0.56868 0.96231 0.37176 0.07200
N 	N 	0.53895 0.99786 0.41203 -0.17900
C 	C 	0.52174 0.97993 0.43089 0.19100
C 	C 	0.52123 0.98107 0.46820 -0.06000
C 	C 	0.53843 0.00083 0.48586 0.03200
C 	C 	0.55597 0.01902 0.46620 -0.06000
C 	C 	0.55600 0.01715 0.42892 0.19100
C 	C 	0.50376 0.96282 0.48804 -0.01200
C 	C 	0.50344 0.96436 0.52509 -0.01200
C 	C 	0.52056 0.98420 0.54291 -0.06000
C 	C 	0.53806 0.00243 0.52325 0.03100
C 	C 	0.55516 0.02229 0.54090 -0.05900
C 	C 	0.57314 0.03881 0.48403 -0.01200
C 	C 	0.57273 0.04044 0.52107 -0.01200
C 	C 	0.52043 0.98616 0.58017 0.19000
N 	N 	0.53709 0.00582 0.59705 -0.17800
C 	C 	0.55435 0.02371 0.57819 0.19100
C 	C 	0.53632 0.00781 0.63507 0.14100
C 	C 	0.51620 0.02468 0.65167 -0.10400
C 	C 	0.51524 0.02646 0.68878 0.05200
C 	C 	0.53456 0.01141 0.70925 -0.08600
C 	C 	0.55475 0.99457 0.69272 0.05200
C 	C 	0.55556 0.99274 0.65560 -0.10400
O 	O 	0.57246 0.03399 0.41015 -0.20000
O 	O 	0.50555 0.96162 0.41398 -0.19900
O 	O 	0.50422 0.96907 0.59896 -0.20000
O 	O 	0.57016 0.04237 0.59508 -0.19900
H 	H 	0.57108 0.97970 0.64270 0.07200
H 	H 	0.50135 0.03630 0.63572 0.07200
H 	H 	0.58680 0.05300 0.46930 0.05100
H 	H 	0.58608 0.05585 0.53423 0.05100
H 	H 	0.49039 0.94743 0.47488 0.05100
H 	H 	0.48983 0.95013 0.53981 0.05100
H 	H 	0.53369 0.01255 0.73796 0.05800
H 	H 	0.53786 0.99170 0.27101 0.05700
Zn	Zn	0.71302 0.80548 0.00691 1.22100
C 	C 	0.70659 0.80244 0.08268 0.31600
O 	O 	0.74285 0.83084 0.02381 -0.45000
O 	O 	0.73260 0.79435 0.08536 -0.44800
O 	O 	0.77447 0.79508 0.02597 -0.50900
C 	C 	0.70486 0.74475 0.00849 0.33800
O 	O 	0.70818 0.76702 0.98777 -0.47000
O 	O 	0.71750 0.74369 0.03922 -0.49500
C 	C 	0.76873 0.82244 0.02598 0.32700
O 	O 	0.72143 0.82083 0.94797 -0.32200
Zn	Zn	0.75013 0.76710 0.04878 1.17100
O 	O 	0.69349 0.80011 0.05221 -0.44000
C 	C 	0.69863 0.83515 0.95176 0.27800
O 	O 	0.68648 0.83256 0.98224 -0.38300
Zn	Zn	0.16735 0.68743 0.98751 1.22100
C 	C 	0.16370 0.68491 0.06401 0.31900
O 	O 	0.15874 0.72681 0.97299 -0.46400
O 	O 	0.18913 0.69525 0.06600 -0.44800
O 	O 	0.16841 0.74619 0.02687 -0.49500
C 	C 	0.22476 0.67526 0.99990 0.34800
O 	O 	0.19958 0.66436 0.99961 -0.45400
O 	O 	0.22847 0.70289 0.00302 -0.51300
C 	C 	0.15505 0.74704 0.99658 0.31600
O 	O 	0.17547 0.67499 0.92745 -0.32300
Zn	Zn	0.20335 0.72608 0.03113 1.17100
O 	O 	0.14948 0.68719 0.03439 -0.43900
C 	C 	0.15171 0.66174 0.92974 0.27800
O 	O 	0.13945 0.66328 0.96022 -0.38300
C 	C 	0.99930 0.48470 0.35404 0.14100
C 	C 	0.98382 0.46521 0.33371 -0.10500
H 	H 	0.97050 0.44967 0.34678 0.07200
C 	C 	0.98548 0.46590 0.29658 0.05300
C 	C 	0.00258 0.48624 0.27983 -0.08700
C 	C 	0.01797 0.50585 0.30010 0.05300
C 	C 	0.01647 0.50490 0.33722 -0.10500
H 	H 	0.02823 0.52010 0.35300 0.07200
N 	N 	0.99704 0.48445 0.39205 -0.17800
C 	C 	0.01293 0.46587 0.41139 0.19000
C 	C 	0.01137 0.46569 0.44869 -0.06000
C 	C 	0.99349 0.48482 0.46584 0.03200
C 	C 	0.97727 0.50363 0.44569 -0.06000
C 	C 	0.97922 0.50300 0.40844 0.19100
C 	C 	0.02747 0.44678 0.46901 -0.01200
C 	C 	0.02577 0.44706 0.50605 -0.01200
C 	C 	0.00800 0.46629 0.52338 -0.06000
C 	C 	0.99187 0.48518 0.50323 0.03200
C 	C 	0.97416 0.50448 0.52039 -0.05900
C 	C 	0.95944 0.52281 0.46302 -0.01200
C 	C 	0.95793 0.52326 0.50006 -0.01200
C 	C 	0.00610 0.46697 0.56064 0.19000
N 	N 	0.98886 0.48609 0.57705 -0.17800
C 	C 	0.97301 0.50470 0.55770 0.19100
C 	C 	0.98741 0.48666 0.61513 0.14100
C 	C 	0.96591 0.47211 0.63280 -0.10400
C 	C 	0.96423 0.47300 0.66992 0.05300
C 	C 	0.98433 0.48816 0.68934 -0.08600
C 	C 	0.00590 0.50266 0.67173 0.05200
C 	C 	0.00734 0.50200 0.63460 -0.10500
O 	O 	0.96389 0.52032 0.38920 -0.20000
O 	O 	0.02985 0.44825 0.39496 -0.20000
O 	O 	0.02090 0.44916 0.57986 -0.19900
O 	O 	0.95673 0.52293 0.57415 -0.19900
H 	H 	0.02391 0.51329 0.62087 0.07200
H 	H 	0.95044 0.46040 0.61766 0.07200
H 	H 	0.94678 0.53745 0.44791 0.05100
H 	H 	0.94411 0.53823 0.51284 0.05100
H 	H 	0.04132 0.43185 0.45623 0.05100
H 	H 	0.03835 0.43233 0.52116 0.05100
H 	H 	0.98314 0.48877 0.71806 0.05800
H 	H 	0.00367 0.48699 0.25111 0.05800
Zn	Zn	0.79067 0.31670 0.98173 1.22100
C 	C 	0.78651 0.32653 0.90638 0.31900
O 	O 	0.75365 0.32193 0.00270 -0.46700
O 	O 	0.77703 0.30033 0.90225 -0.44600
O 	O 	0.73017 0.31526 0.95109 -0.49100
C 	C 	0.80406 0.25971 0.96092 0.34600
O 	O 	0.81325 0.28611 0.96233 -0.45600
O 	O 	0.77729 0.25435 0.95991 -0.50900
C 	C 	0.73173 0.32656 0.98288 0.31600
O 	O 	0.80829 0.30413 0.03826 -0.32300
Zn	Zn	0.75117 0.28124 0.93918 1.17000
O 	O 	0.78591 0.33867 0.93780 -0.44000
C 	C 	0.81985 0.32928 0.03759 0.27800
O 	O 	0.81520 0.34426 0.00939 -0.38400
Zn	Zn	0.00454 0.02439 0.03491 1.22100
C 	C 	0.03537 0.97236 0.02552 0.33800
O 	O 	0.97436 0.01307 0.06726 -0.47200
O 	O 	0.04903 0.98007 0.05420 -0.45200
O 	O 	0.99538 0.97481 0.09198 -0.49600
C 	C 	0.05414 0.04614 0.06664 0.32900
O 	O 	0.04239 0.03898 0.03653 -0.45400
O 	O 	0.04481 0.03526 0.09650 -0.50700
C 	C 	0.97290 0.98717 0.08027 0.34000
O 	O 	0.99053 0.07229 0.03968 -0.32700
Zn	Zn	0.02954 0.99656 0.09831 1.17000
O 	O 	0.01338 0.98663 0.01506 -0.43500
C 	C 	0.98020 0.06882 0.00819 0.27800
O 	O 	0.98343 0.04367 0.99450 -0.38000
C 	C 	0.96184 0.09030 0.99222 -0.07500
C 	C 	0.93837 0.08177 0.97265 0.01300
C 	C 	0.91859 0.10193 0.96251 -0.06200
C 	C 	0.92221 0.13077 0.97168 0.02600
C 	C 	0.94639 0.13949 0.98953 -0.06200
C 	C 	0.96611 0.11937 0.99971 0.01300
C 	C 	0.89976 0.15142 0.96529 0.00500
C 	C 	0.90474 0.17574 0.94435 -0.04100
C 	C 	0.88466 0.19708 0.94194 -0.02800
C 	C 	0.85948 0.19421 0.96036 -0.01100
C 	C 	0.85409 0.16952 0.98030 -0.02900
C 	C 	0.87415 0.14818 0.98277 -0.04000
C 	C 	0.83978 0.21721 0.96026 0.05700
C 	C 	0.82341 0.23657 0.96049 -0.12000
H 	H 	0.93488 0.05942 0.96653 0.04200
H 	H 	0.90012 0.09504 0.94839 0.04800
H 	H 	0.94945 0.16172 0.99655 0.04900
H 	H 	0.98435 0.12627 0.01432 0.03800
H 	H 	0.92438 0.17839 0.93063 0.04300
H 	H 	0.88890 0.21606 0.92631 0.04200
H 	H 	0.83462 0.16712 0.99449 0.04000
H 	H 	0.87013 0.12954 0.99908 0.04300
C 	C 	0.94121 0.45839 0.68852 -0.00100
C 	C 	0.93957 0.42847 0.68877 -0.03700
C 	C 	0.91905 0.41458 0.70881 -0.02400
C 	C 	0.90000 0.43052 0.72877 -0.00900
C 	C 	0.92167 0.47434 0.70752 -0.03600
C 	C 	0.87995 0.41595 0.75242 0.10700
N 	N 	0.86857 0.39041 0.74306 -0.08400
N 	N 	0.85149 0.37666 0.76521 -0.08300
C 	C 	0.84533 0.38803 0.79738 0.10100
N 	N 	0.85647 0.41372 0.80654 -0.08200
N 	N 	0.87351 0.42748 0.78439 -0.08300
C 	C 	0.82781 0.37204 0.82289 0.01000
C 	C 	0.81413 0.32710 0.85035 0.01400
C 	C 	0.79891 0.34195 0.87610 -0.08900
C 	C 	0.79724 0.37182 0.87421 0.01500
C 	C 	0.81154 0.38678 0.84770 -0.04900
C 	C 	0.90115 0.46049 0.72752 -0.02400
C 	C 	0.82856 0.34205 0.82392 -0.05000
H 	H 	0.95456 0.41600 0.67412 0.04600
H 	H 	0.91847 0.39145 0.70957 0.04800
H 	H 	0.88630 0.47305 0.74230 0.04700
H 	H 	0.92263 0.49746 0.70718 0.04500
H 	H 	0.84100 0.33037 0.80497 0.05300
H 	H 	0.81558 0.30404 0.85151 0.03700
H 	H 	0.81024 0.40985 0.84674 0.05400
H 	H 	0.78514 0.38349 0.89354 0.04100
C 	C 	0.83815 0.33965 0.06630 -0.06900
C 	C 	0.85717 0.36196 0.05981 0.00600
C 	C 	0.87421 0.37215 0.08706 -0.04400
C 	C 	0.87242 0.36021 0.12116 0.00600
C 	C 	0.83649 0.32754 0.10035 0.00600
C 	C 	0.89007 0.37141 0.15001 0.10200
N 	N 	0.91663 0.37977 0.14325 -0.08200
N 	N 	0.93194 0.39193 0.16860 -0.08400
C 	C 	0.92113 0.39612 0.20145 0.10600
N 	N 	0.89473 0.38728 0.20840 -0.08400
N 	N 	0.87942 0.37509 0.18305 -0.08300
C 	C 	0.93731 0.41176 0.22854 -0.00900
C 	C 	0.98198 0.42594 0.25314 -0.03600
C 	C 	0.96878 0.44585 0.27509 -0.00200
C 	C 	0.93972 0.44790 0.27468 -0.03700
C 	C 	0.92404 0.43093 0.25153 -0.02400
C 	C 	0.85349 0.33782 0.12767 -0.04400
C 	C 	0.96633 0.40895 0.23000 -0.02500
H 	H 	0.85880 0.37140 0.03364 0.04600
H 	H 	0.88858 0.38957 0.08176 0.05300
H 	H 	0.85204 0.32831 0.15381 0.05200
H 	H 	0.82186 0.31038 0.10577 0.04400
H 	H 	0.97679 0.39389 0.21288 0.04700
H 	H 	0.00440 0.42402 0.25355 0.04400
H 	H 	0.90168 0.43335 0.25068 0.04700
H 	H 	0.92936 0.46320 0.29158 0.04600
C 	C 	0.13556 0.77044 0.98944 -0.10000
C 	C 	0.12035 0.78245 0.01740 0.02000
C 	C 	0.10364 0.80620 0.01140 -0.07000
C 	C 	0.10194 0.81821 0.97737 0.02800
C 	C 	0.11638 0.80566 0.94911 -0.06800
C 	C 	0.13306 0.78178 0.95509 0.01900
C 	C 	0.08701 0.84529 0.97219 0.00200
C 	C 	0.10197 0.87038 0.96441 -0.04000
C 	C 	0.08934 0.89699 0.96816 -0.03100
C 	C 	0.06170 0.89867 0.97969 -0.01000
C 	C 	0.04603 0.87357 0.98426 -0.03100
C 	C 	0.05862 0.84694 0.98045 -0.04000
C 	C 	0.05142 0.92524 0.99346 0.05300
C 	C 	0.04362 0.94706 0.00700 -0.11500
H 	H 	0.12175 0.77361 0.04390 0.03300
H 	H 	0.09259 0.81575 0.03339 0.04600
H 	H 	0.11512 0.81472 0.92272 0.04800
H 	H 	0.14462 0.77264 0.93327 0.03300
H 	H 	0.12382 0.86934 0.95759 0.03900
H 	H 	0.10153 0.91629 0.96420 0.04000
H 	H 	0.02455 0.87468 0.99278 0.04000
H 	H 	0.04675 0.82767 0.98586 0.04100
C 	C 	0.14039 0.64427 0.90046 -0.06900
C 	C 	0.11963 0.62373 0.90728 0.00600
C 	C 	0.10860 0.60738 0.87962 -0.04400
C 	C 	0.11815 0.61137 0.84476 0.00600
C 	C 	0.15006 0.64819 0.86560 0.00600
C 	C 	0.10613 0.59434 0.81557 0.10200
N 	N 	0.09862 0.56668 0.82107 -0.08200
N 	N 	0.08553 0.55198 0.79579 -0.08300
C 	C 	0.07957 0.56448 0.76422 0.10700
N 	N 	0.08763 0.59196 0.75841 -0.08300
N 	N 	0.10071 0.60669 0.78373 -0.08200
C 	C 	0.06286 0.54896 0.73750 -0.00900
C 	C 	0.04656 0.50404 0.71248 -0.03600
C 	C 	0.02682 0.51870 0.69227 -0.00200
C 	C 	0.02585 0.54860 0.69366 -0.03700
C 	C 	0.04377 0.56368 0.71618 -0.02400
C 	C 	0.13895 0.63185 0.83787 -0.04400
C 	C 	0.06457 0.51908 0.73490 -0.02400
H 	H 	0.11205 0.62036 0.93403 0.04700
H 	H 	0.09240 0.59183 0.88524 0.05300
H 	H 	0.14662 0.63502 0.81112 0.05200
H 	H 	0.16599 0.66402 0.85991 0.04400
H 	H 	0.07954 0.50748 0.75065 0.04800
H 	H 	0.04759 0.48096 0.71131 0.04600
H 	H 	0.04218 0.58670 0.71788 0.04800
H 	H 	0.01070 0.56007 0.67804 0.04600
C 	C 	0.03495 0.52795 0.28235 -0.00200
C 	C 	0.06403 0.52720 0.28455 -0.03700
C 	C 	0.08016 0.54723 0.26602 -0.02400
C 	C 	0.06731 0.56819 0.24514 -0.01000
C 	C 	0.02209 0.54924 0.26217 -0.03700
C 	C 	0.08427 0.58813 0.22369 0.10600
N 	N 	0.10779 0.57897 0.20751 -0.08400
N 	N 	0.12164 0.59611 0.18535 -0.08300
C 	C 	0.11238 0.62290 0.17871 0.10000
N 	N 	0.08928 0.63231 0.19561 -0.08400
N 	N 	0.07543 0.61518 0.21778 -0.08400
C 	C 	0.12583 0.64063 0.15115 0.00900
C 	C 	0.16727 0.65506 0.11867 0.01400
C 	C 	0.15092 0.67095 0.09511 -0.09000
C 	C 	0.12208 0.67231 0.10037 0.01500
C 	C 	0.10961 0.65726 0.12824 -0.05000
C 	C 	0.03817 0.56927 0.24366 -0.02400
C 	C 	0.15478 0.63992 0.14652 -0.05000
H 	H 	0.07412 0.51088 0.30020 0.04500
H 	H 	0.10261 0.54635 0.26774 0.04600
H 	H 	0.02798 0.58522 0.22753 0.04700
H 	H 	0.99963 0.55004 0.26048 0.04500
H 	H 	0.16758 0.62746 0.16427 0.05100
H 	H 	0.18955 0.65385 0.11492 0.03600
H 	H 	0.08725 0.65797 0.13147 0.05300
H 	H 	0.10927 0.68481 0.08267 0.04000
C 	C 	0.79122 0.84366 0.03076 -0.10200
C 	C 	0.78594 0.86955 0.04823 0.02300
C 	C 	0.80757 0.88899 0.05453 -0.06900
C 	C 	0.83465 0.88276 0.04337 0.02900
C 	C 	0.83990 0.85710 0.02549 -0.07000
C 	C 	0.81830 0.83763 0.01921 0.02100
C 	C 	0.85758 0.90295 0.05071 0.00200
C 	C 	0.87153 0.91653 0.02261 -0.04000
C 	C 	0.89408 0.93469 0.02948 -0.02900
C 	C 	0.90282 0.93939 0.06446 -0.01100
C 	C 	0.88864 0.92623 0.09261 -0.03000
C 	C 	0.86606 0.90807 0.08578 -0.04100
C 	C 	0.92717 0.95659 0.07122 0.05600
C 	C 	0.94788 0.97072 0.07597 -0.12100
H 	H 	0.76519 0.87439 0.05752 0.03800
H 	H 	0.80333 0.90881 0.06824 0.05000
H 	H 	0.86076 0.85215 0.01673 0.04700
H 	H 	0.82262 0.81785 0.00546 0.02900
H 	H 	0.86504 0.91282 0.99548 0.04300
H 	H 	0.90495 0.94482 0.00759 0.04200
H 	H 	0.89531 0.92975 0.11972 0.03800
H 	H 	0.85542 0.89767 0.10764 0.04000
C 	C 	0.57476 0.97854 0.71441 -0.00200
C 	C 	0.57330 0.94864 0.71582 -0.03700
C 	C 	0.59039 0.93357 0.73911 -0.02400
C 	C 	0.60913 0.94831 0.76121 -0.00900
C 	C 	0.59414 0.99322 0.73553 -0.03700
C 	C 	0.62524 0.93273 0.78823 0.10700
N 	N 	0.63384 0.90564 0.78197 -0.08300
N 	N 	0.64678 0.89094 0.80724 -0.08200
C 	C 	0.65152 0.90291 0.83951 0.10200
N 	N 	0.64333 0.93016 0.84556 -0.08300
N 	N 	0.63037 0.94484 0.82031 -0.08400
C 	C 	0.66406 0.88600 0.86830 0.00600
C 	C 	0.69658 0.84988 0.88803 0.00500
C 	C 	0.68707 0.85295 0.92307 -0.06900
C 	C 	0.66617 0.87283 0.93056 0.00600
C 	C 	0.65475 0.88924 0.90335 -0.04400
C 	C 	0.61128 0.97819 0.75877 -0.02400
C 	C 	0.68511 0.86630 0.86079 -0.04400
H 	H 	0.55841 0.93713 0.69956 0.04700
H 	H 	0.58847 0.91054 0.74071 0.04800
H 	H 	0.62598 0.98980 0.77518 0.04700
H 	H 	0.59557 0.01630 0.73436 0.04400
H 	H 	0.69265 0.86376 0.83391 0.05300
H 	H 	0.71267 0.83464 0.88182 0.04500
H 	H 	0.63839 0.90422 0.90948 0.05300
H 	H 	0.65874 0.87557 0.95746 0.04700
C 	C 	0.57224 0.95323 0.30093 -0.00200
C 	C 	0.60133 0.95479 0.30268 -0.03700
C 	C 	0.61750 0.93551 0.28349 -0.02400
C 	C 	0.60470 0.91453 0.26228 -0.00900
C 	C 	0.55943 0.93184 0.28051 -0.03700
C 	C 	0.62171 0.89548 0.24005 0.10600
N 	N 	0.64564 0.90528 0.22509 -0.08400
N 	N 	0.65993 0.88882 0.20289 -0.08300
C 	C 	0.65071 0.86210 0.19498 0.10100
N 	N 	0.62706 0.85210 0.21045 -0.08300
N 	N 	0.61279 0.86854 0.23268 -0.08400
C 	C 	0.66522 0.84486 0.16808 0.00900
C 	C 	0.70790 0.83159 0.13807 0.01300
C 	C 	0.69254 0.81561 0.11328 -0.08900
C 	C 	0.66354 0.81361 0.11670 0.01400
C 	C 	0.64995 0.82814 0.14396 -0.04900
C 	C 	0.57556 0.91260 0.26125 -0.02400
C 	C 	0.69431 0.84615 0.16531 -0.05000
H 	H 	0.61139 0.97118 0.31848 0.04600
H 	H 	0.63994 0.93701 0.28493 0.04700
H 	H 	0.56539 0.89662 0.24493 0.04700
H 	H 	0.53697 0.93037 0.27919 0.04400
H 	H 	0.70636 0.85867 0.18403 0.05100
H 	H 	0.73029 0.83334 0.13573 0.03600
H 	H 	0.62750 0.82696 0.14576 0.05300
H 	H 	0.65148 0.80107 0.09801 0.04100
C 	C 	0.07923 0.06441 0.06654 -0.10200
C 	C 	0.09983 0.06075 0.09250 0.02300
C 	C 	0.12501 0.07573 0.09002 -0.07100
C 	C 	0.12979 0.09453 0.06163 0.03000
C 	C 	0.10884 0.09903 0.03645 -0.06900
C 	C 	0.08366 0.08408 0.03891 0.02600
C 	C 	0.15716 0.10849 0.05736 0.00200
C 	C 	0.15953 0.13836 0.05871 -0.04000
C 	C 	0.18543 0.15157 0.05400 -0.03000
C 	C 	0.20909 0.13501 0.04790 -0.01100
C 	C 	0.20676 0.10519 0.04654 -0.02900
C 	C 	0.18088 0.09196 0.05123 -0.04000
C 	C 	0.23583 0.14860 0.04376 0.05500
C 	C 	0.25820 0.16009 0.04064 -0.12200
H 	H 	0.09671 0.04569 0.11398 0.01900
H 	H 	0.14098 0.07236 0.10978 0.04600
H 	H 	0.11229 0.11364 0.01456 0.05000
H 	H 	0.06777 0.08745 0.01903 0.03700
H 	H 	0.14134 0.15129 0.06346 0.04100
H 	H 	0.18711 0.17464 0.05517 0.03600
H 	H 	0.22498 0.09227 0.04188 0.04100
H 	H 	0.17922 0.06889 0.04992 0.04100
C 	C 	0.35642 0.14434 0.90802 -0.06900
C 	C 	0.36200 0.11499 0.90628 0.00700
C 	C 	0.37474 0.10349 0.87626 -0.04400
C 	C 	0.38200 0.12119 0.84756 0.00600
C 	C 	0.36246 0.16181 0.87864 0.00600
C 	C 	0.39829 0.10968 0.81768 0.10200
N 	N 	0.39491 0.08206 0.80748 -0.08300
N 	N 	0.41182 0.07068 0.78343 -0.08300
C 	C 	0.43259 0.08660 0.76880 0.10700
N 	N 	0.43541 0.11447 0.77817 -0.08400
N 	N 	0.41853 0.12583 0.80227 -0.08200
C 	C 	0.45334 0.07308 0.74548 -0.00900
C 	C 	0.46564 0.03578 0.70366 -0.03700
C 	C 	0.49374 0.04370 0.70634 -0.00200
C 	C 	0.50146 0.06699 0.72763 -0.03700
C 	C 	0.48138 0.08162 0.74712 -0.02400
C 	C 	0.37522 0.15029 0.84859 -0.04400
C 	C 	0.44552 0.05042 0.72311 -0.02400
H 	H 	0.35699 0.10117 0.92848 0.04500
H 	H 	0.37975 0.08098 0.87581 0.05300
H 	H 	0.38021 0.16408 0.82636 0.05200
H 	H 	0.35801 0.18443 0.87942 0.04500
H 	H 	0.42393 0.04389 0.72114 0.04800
H 	H 	0.45948 0.01789 0.68716 0.04700
H 	H 	0.48774 0.09902 0.76427 0.04700
H 	H 	0.52309 0.07338 0.72965 0.04400
C 	C 	0.50295 0.03160 0.29651 -0.00200
C 	C 	0.50804 0.06112 0.29494 -0.03700
C 	C 	0.49121 0.07858 0.27405 -0.02400
C 	C 	0.46910 0.06666 0.25460 -0.00900
C 	C 	0.48065 0.01973 0.27749 -0.03700
C 	C 	0.45196 0.08485 0.23148 0.10600
N 	N 	0.46388 0.10631 0.21241 -0.08400
N 	N 	0.44877 0.12144 0.18963 -0.08300
C 	C 	0.42131 0.11554 0.18527 0.10100
N 	N 	0.40929 0.09443 0.20482 -0.08300
N 	N 	0.42440 0.07930 0.22758 -0.08400
C 	C 	0.40506 0.13075 0.15809 0.00900
C 	C 	0.39504 0.17406 0.12507 0.01300
C 	C 	0.37476 0.15933 0.10531 -0.08900
C 	C 	0.36962 0.13029 0.11225 0.01500
C 	C 	0.38468 0.11610 0.13846 -0.04900
C 	C 	0.46379 0.03716 0.25665 -0.02400
C 	C 	0.41013 0.15984 0.15131 -0.05000
H 	H 	0.52520 0.07046 0.30960 0.04600
H 	H 	0.49536 0.10134 0.27299 0.04700
H 	H 	0.44692 0.02765 0.24162 0.04700
H 	H 	0.47653 0.99697 0.27863 0.04400
H 	H 	0.42566 0.17145 0.16643 0.05200
H 	H 	0.39931 0.19643 0.11991 0.03700
H 	H 	0.38070 0.09362 0.14322 0.05300
H 	H 	0.35388 0.11872 0.09744 0.04200
C 	C 	0.45625 0.43645 0.94997 -0.07600
C 	C 	0.42808 0.42856 0.94910 0.01300
C 	C 	0.42041 0.40010 0.94352 -0.06200
C 	C 	0.44087 0.37926 0.93869 0.02500
C 	C 	0.46886 0.38766 0.93584 -0.06200
C 	C 	0.47653 0.41619 0.94142 0.01300
C 	C 	0.43344 0.34877 0.94263 0.00500
C 	C 	0.44391 0.33318 0.97145 -0.04100
C 	C 	0.43190 0.30695 0.98072 -0.02900
C 	C 	0.40939 0.29611 0.96128 -0.01100
C 	C 	0.40046 0.31044 0.93074 -0.02900
C 	C 	0.41253 0.33665 0.92133 -0.04100
C 	C 	0.39286 0.27311 0.97568 0.05700
C 	C 	0.37840 0.25472 0.98860 -0.12000
H 	H 	0.41221 0.44417 0.95490 0.03500
H 	H 	0.39870 0.39395 0.94524 0.04700
H 	H 	0.48478 0.37185 0.93133 0.04700
H 	H 	0.49834 0.42212 0.94146 0.04000
H 	H 	0.46019 0.34219 0.98793 0.04200
H 	H 	0.43912 0.29583 0.00415 0.03900
H 	H 	0.38327 0.30201 0.91530 0.04100
H 	H 	0.40461 0.34825 0.89866 0.04200
C 	C 	0.42100 0.55252 0.02368 -0.10100
C 	C 	0.41088 0.57083 0.05013 0.02200
C 	C 	0.38498 0.58375 0.04615 -0.07100
C 	C 	0.36894 0.57847 0.01575 0.03000
C 	C 	0.37876 0.55974 0.98966 -0.06900
C 	C 	0.40466 0.54681 0.99359 0.02500
C 	C 	0.34231 0.59332 0.01069 0.00200
C 	C 	0.32039 0.58898 0.03472 -0.04000
C 	C 	0.29574 0.60432 0.03107 -0.03000
C 	C 	0.29285 0.62404 0.00336 -0.01200
C 	C 	0.31448 0.62794 0.97888 -0.03000
C 	C 	0.33914 0.61263 0.98252 -0.04000
C 	C 	0.26848 0.64162 0.00145 0.05600
C 	C 	0.24836 0.65676 0.00038 -0.12300
H 	H 	0.42329 0.57550 0.07340 0.02100
H 	H 	0.37759 0.59824 0.06639 0.04600
H 	H 	0.36641 0.55534 0.96625 0.05000
H 	H 	0.41202 0.53241 0.97324 0.03700
H 	H 	0.32257 0.57398 0.05642 0.04000
H 	H 	0.27910 0.60119 0.05009 0.04000
H 	H 	0.31239 0.64318 0.95742 0.04000
H 	H 	0.35595 0.61615 0.96385 0.04100
C 	C 	0.70904 0.34477 0.99615 -0.09900
C 	C 	0.71419 0.36493 0.02302 0.02100
C 	C 	0.69291 0.38275 0.03478 -0.06800
C 	C 	0.66629 0.38060 0.01983 0.02800
C 	C 	0.66102 0.36027 0.99331 -0.06900
C 	C 	0.68226 0.34242 0.98154 0.02000
C 	C 	0.64416 0.40029 0.03103 0.00300
C 	C 	0.64695 0.42972 0.02472 -0.04000
C 	C 	0.62495 0.44807 0.03230 -0.03000
C 	C 	0.60004 0.43713 0.04625 -0.01200
C 	C 	0.59756 0.40790 0.05371 -0.03000
C 	C 	0.61956 0.38952 0.04618 -0.04100
C 	C 	0.57619 0.45533 0.04943 0.05500
C 	C 	0.55603 0.47041 0.05088 -0.12200
H 	H 	0.73475 0.36709 0.03444 0.03800
H 	H 	0.69715 0.39835 0.05533 0.04900
H 	H 	0.64055 0.35851 0.98155 0.04700
H 	H 	0.67788 0.32680 0.96108 0.02400
H 	H 	0.66586 0.43825 0.01307 0.04200
H 	H 	0.62701 0.47064 0.02642 0.03900
H 	H 	0.57837 0.39929 0.06451 0.03900
H 	H 	0.61729 0.36688 0.05144 0.04000
C 	C 	0.54648 0.57394 0.98130 -0.09600
C 	C 	0.53877 0.60128 0.97000 0.02100
C 	C 	0.55902 0.62240 0.96459 -0.06800
C 	C 	0.58711 0.61643 0.97098 0.02800
C 	C 	0.59500 0.58836 0.97905 -0.06800
C 	C 	0.57474 0.56714 0.98400 0.01900
C 	C 	0.60733 0.64010 0.97481 0.00300
C 	C 	0.63157 0.64089 0.95407 -0.04000
C 	C 	0.65145 0.66246 0.95944 -0.03000
C 	C 	0.64715 0.68331 0.98551 -0.01100
C 	C 	0.62279 0.68276 0.00582 -0.03000
C 	C 	0.60298 0.66123 0.00058 -0.04100
C 	C 	0.66807 0.70474 0.99237 0.05500
C 	C 	0.68512 0.72292 0.99922 -0.12000
H 	H 	0.51701 0.60660 0.96725 0.03200
H 	H 	0.55275 0.64382 0.95748 0.04900
H 	H 	0.61666 0.58340 0.98356 0.04700
H 	H 	0.58092 0.54598 0.99236 0.03300
H 	H 	0.63511 0.62472 0.93408 0.04100
H 	H 	0.67026 0.66277 0.94361 0.03900
H 	H 	0.61935 0.69881 0.02602 0.04000
H 	H 	0.58447 0.66067 0.01695 0.03900
