data_crystal

_cell_length_a 24.52659
_cell_length_b 24.13216
_cell_length_c 26.79041
_cell_angle_alpha 95.51428
_cell_angle_beta  95.51306
_cell_angle_gamma 125.81926

_symmetry_space_group_name_	'P 1'
_symmetry_space_group_name_H-M	'P 1'

loop_
_symmetry_equiv_pos_as_xyz
  x,y,z

loop_
_atom_site_label
_atom_site_type_symbol
_atom_site_fract_x
_atom_site_fract_y
_atom_site_fract_z
_atom_site_charge
C 	C 	0.07792 0.03958 0.02528 0.01500
C 	C 	0.05848 0.07958 0.04647 -0.05600
C 	C 	0.21005 0.06368 0.44210 0.07300
N 	N 	0.14432 0.01224 0.44298 -0.16600
C 	C 	0.10585 0.02408 0.41311 0.09200
H 	H 	0.26171 0.05243 0.50621 0.06100
C 	C 	0.15105 0.07265 0.02468 0.07000
C 	C 	0.18457 0.04464 0.03978 -0.07200
H 	H 	0.29674 0.04202 0.03877 0.06500
C 	C 	0.01120 0.03320 0.42523 -0.03400
H 	H 	0.75687 0.01649 0.48746 0.06000
H 	H 	0.79206 0.06063 0.07798 0.06200
C 	C 	0.78436 0.04860 0.46034 -0.08000
H 	H 	0.04773 0.08945 0.43254 0.04200
C 	C 	0.26404 0.08735 0.48243 -0.07800
C 	C 	0.14709 0.08331 0.39254 -0.09200
C 	C 	0.75538 0.07137 0.42838 0.01400
N 	N 	0.87133 0.03017 0.46641 -0.16300
H 	H 	0.87379 0.02171 0.07812 0.08900
C 	C 	0.85007 0.06893 0.45645 0.07400
C 	C 	0.83254 0.10254 0.06224 -0.07800
H 	H 	0.09734 0.13298 0.06578 0.05000
C 	C 	0.21366 0.10843 0.41115 0.03100
H 	H 	0.13213 0.11455 0.37954 0.05800
C 	C 	0.30548 0.09174 0.04063 -0.08400
C 	C 	0.25383 0.09890 0.04817 0.02600
N 	N 	0.19668 0.14133 0.02476 -0.16800
H 	H 	0.42797 0.11608 0.01988 0.10700
C 	C 	0.77208 0.15128 0.03530 -0.04500
H 	H 	0.73455 0.12962 0.05987 0.07100
C 	C 	0.71429 0.08925 0.44310 -0.04400
H 	H 	0.69682 0.08266 0.47922 0.05100
C 	C 	0.81954 0.13828 0.03083 0.01500
C 	C 	0.79109 0.11348 0.39400 0.08600
N 	N 	0.91116 0.07358 0.07587 -0.16700
C 	C 	0.88531 0.11027 0.42176 0.03000
C 	C 	0.89893 0.12053 0.07073 0.07600
H 	H 	0.40181 0.14969 0.51992 0.06000
C 	C 	0.32063 0.15773 0.49154 0.01400
C 	C 	0.25923 0.15749 0.03849 0.07600
C 	C 	0.36735 0.15049 0.03229 0.08900
N 	N 	0.41353 0.14767 0.01138 -0.15200
H 	H 	0.18610 0.17064 0.00551 0.08700
H 	H 	0.02963 0.17950 0.01565 0.05300
C 	C 	0.85591 0.13175 0.38896 -0.09000
C 	C 	0.91963 0.04614 0.43792 0.07900
C 	C 	0.26982 0.17896 0.42067 -0.09100
C 	C 	0.72697 0.14181 0.41716 0.01000
C 	C 	0.87126 0.19211 0.01059 0.08300
C 	C 	0.92963 0.09561 0.40949 -0.08700
C 	C 	0.97019 0.09733 0.05904 0.07300
H 	H 	0.94843 0.10182 0.37392 0.05900
C 	C 	0.94208 0.00205 0.42675 0.00300
C 	C 	0.95103 0.17522 0.05099 0.02800
C 	C 	0.32393 0.20267 0.46093 0.08400
C 	C 	0.38729 0.18214 0.50908 -0.03700
C 	C 	0.31775 0.21212 0.02310 -0.07800
C 	C 	0.45133 0.20636 0.99180 0.01100
F 	F 	0.62318 0.19748 0.25718 -0.39400
F 	F 	0.62787 0.20174 0.15589 -0.39300
N 	N 	0.77314 0.15570 0.38701 -0.14900
H 	H 	0.88352 0.16379 0.36186 0.06400
C 	C 	0.93800 0.21163 0.02033 -0.08600
C 	C 	0.98921 0.05171 0.04169 0.01400
C 	C 	0.99655 0.16046 0.04356 -0.07900
O 	O 	0.55486 0.21655 0.01293 -0.33700
H 	H 	0.59442 0.21946 0.92052 0.18300
H 	H 	0.27210 0.21387 0.39690 0.06000
C 	C 	0.37348 0.20965 0.02452 0.01400
O 	O 	0.70006 0.21364 0.02048 -0.34300
O 	O 	0.68418 0.18501 0.47437 -0.41900
C 	C 	0.71644 0.19366 0.43618 0.26600
C 	C 	0.79787 0.21325 0.01802 0.00600
H 	H 	0.57527 0.22322 0.42157 0.17800
C 	C 	0.75691 0.23738 0.00338 0.26500
H 	H 	0.80425 0.20318 0.37498 0.10600
N 	N 	0.85722 0.23687 0.00201 -0.15200
C 	C 	0.52421 0.24018 0.99057 0.25500
C 	C 	0.42835 0.24142 0.48852 0.01500
C 	C 	0.42532 0.24436 0.99721 -0.04500
H 	H 	0.31835 0.25255 0.00808 0.05800
O 	O 	0.66223 0.23802 0.84387 -0.38700
H 	H 	0.97833 0.25353 0.00449 0.06100
Cu	Cu	0.70646 0.24477 0.90875 0.88600
N 	N 	0.38955 0.25373 0.45953 -0.15200
O 	O 	0.64240 0.25299 0.93895 -0.63900
O 	O 	0.53321 0.25452 0.51140 -0.35300
Cu	Cu	0.65516 0.26041 0.01389 0.93300
C 	C 	0.65230 0.26089 0.18919 0.27100
C 	C 	0.64953 0.25859 0.24092 0.27400
O 	O 	0.74334 0.25073 0.41726 -0.34800
F 	F 	0.74676 0.25648 0.77794 -0.41900
C 	C 	0.49877 0.26984 0.48248 0.26300
O 	O 	0.77258 0.27572 0.96818 -0.41800
Cu	Cu	0.72529 0.25666 0.53289 0.88400
F 	F 	0.75111 0.25693 0.67673 -0.41200
O 	O 	0.61240 0.27242 0.43724 -0.63800
H 	H 	0.40511 0.28184 0.42992 0.09300
O 	O 	0.68196 0.28572 0.08660 -0.33900
H 	H 	0.89299 0.28794 0.99713 0.09400
C 	C 	0.71586 0.27894 0.75087 0.26700
C 	C 	0.71988 0.28118 0.69941 0.26500
O 	O 	0.68335 0.28584 0.35515 -0.34500
H 	H 	0.45227 0.29860 0.99431 0.05100
Cu	Cu	0.62742 0.29127 0.51030 0.90200
O 	O 	0.63734 0.29136 0.58463 -0.35400
C 	C 	0.67293 0.29301 0.82811 0.37700
O 	O 	0.56117 0.30137 0.97723 -0.37800
C 	C 	0.68030 0.29982 0.77451 -0.20400
C 	C 	0.69054 0.30423 0.61566 0.37300
C 	C 	0.69007 0.30633 0.67104 -0.20000
Cu	Cu	0.71167 0.30983 0.42746 0.93100
C 	C 	0.66086 0.31422 0.32844 0.39300
O 	O 	0.74055 0.30820 0.59764 -0.38200
O 	O 	0.52986 0.31967 0.45558 -0.37200
C 	C 	0.67091 0.31836 0.27535 -0.20400
C 	C 	0.67035 0.32342 0.11622 0.38700
C 	C 	0.67688 0.32321 0.17149 -0.19900
O 	O 	0.61684 0.32433 0.34358 -0.36500
C 	C 	0.65140 0.32608 0.74659 0.27300
O 	O 	0.72219 0.32441 0.50276 -0.63900
C 	C 	0.65683 0.32996 0.69523 0.26900
Cu	Cu	0.60051 0.33674 0.41450 0.90200
O 	O 	0.67488 0.34078 0.85888 -0.35100
F 	F 	0.61679 0.34641 0.76880 -0.39400
O 	O 	0.64065 0.35013 0.09702 -0.36100
Cu	Cu	0.68261 0.35183 0.93400 0.90100
F 	F 	0.62996 0.35682 0.66908 -0.39400
O 	O 	0.70507 0.36502 0.00705 -0.63600
H 	H 	0.16246 0.98982 0.03292 0.04800
C 	C 	0.03343 0.99184 0.41577 -0.03100
H 	H 	0.12814 0.98425 0.47261 0.08200
C 	C 	0.02750 0.96936 0.00268 -0.06100
H 	H 	0.04259 0.93779 0.98801 0.04300
H 	H 	0.00456 0.88767 0.40470 0.03700
Cu	Cu	0.64954 0.38726 0.03212 0.90300
F 	F 	0.72051 0.43973 0.29140 -0.41300
F 	F 	0.72738 0.44483 0.19023 -0.41000
O 	O 	0.72482 0.44915 0.93438 -0.35900
C 	C 	0.70579 0.48416 0.95776 0.26400
O 	O 	0.68611 0.47301 0.00236 -0.36900
H 	H 	0.75458 0.39855 0.02169 0.17800
O 	O 	0.76877 0.41321 0.42806 -0.34800
C 	C 	0.75386 0.45244 0.45010 0.26400
O 	O 	0.69474 0.42377 0.46455 -0.36900
H 	H 	0.75794 0.37303 0.52053 0.18200
C 	C 	0.70130 0.38375 0.20647 0.26700
C 	C 	0.69800 0.38122 0.25812 0.27000
N 	N 	0.79551 0.57173 0.48649 -0.15300
H 	H 	0.78743 0.68052 0.50640 0.06100
H 	H 	0.75626 0.55503 0.50735 0.09800
C 	C 	0.72932 0.64253 0.93782 0.01500
C 	C 	0.71712 0.54428 0.93795 0.01800
C 	C 	0.69409 0.58138 0.95660 -0.04400
H 	H 	0.72100 0.70810 0.99286 0.05700
H 	H 	0.67244 0.57509 0.99087 0.05600
C 	C 	0.74721 0.70619 0.96317 -0.07900
C 	C 	0.80232 0.52852 0.45648 0.01200
C 	C 	0.82731 0.63150 0.46848 0.08300
C 	C 	0.80814 0.67601 0.47362 -0.08800
C 	C 	0.77262 0.64021 0.90909 0.08800
N 	N 	0.76487 0.58016 0.90923 -0.14900
C 	C 	0.80369 0.76750 0.95184 0.07400
H 	H 	0.80219 0.57335 0.90293 0.10300
H 	H 	0.84313 0.98430 0.48090 0.08100
H 	H 	0.88545 0.96203 0.01051 0.04700
H 	H 	0.84114 0.90479 0.41788 0.04500
C 	C 	0.84185 0.70778 0.39251 0.08000
C 	C 	0.86137 0.66354 0.38755 -0.07500
C 	C 	0.85498 0.62675 0.42680 0.02000
C 	C 	0.81519 0.71336 0.43464 0.03000
C 	C 	0.86815 0.81138 0.40460 0.08100
C 	C 	0.83214 0.77959 0.44260 -0.08900
C 	C 	0.83930 0.56109 0.41910 -0.04300
H 	H 	0.83835 0.80760 0.47941 0.05800
H 	H 	0.83435 0.53361 0.38248 0.08500
C 	C 	0.83389 0.70197 0.90310 -0.08700
C 	C 	0.84544 0.76520 0.92129 0.03000
N 	N 	0.83928 0.82942 0.98377 -0.16900
H 	H 	0.87273 0.70099 0.88786 0.06300
H 	H 	0.82602 0.83854 0.01791 0.08600
C 	C 	0.89497 0.92920 0.41834 -0.04700
N 	N 	0.87318 0.76714 0.37402 -0.16800
H 	H 	0.88204 0.65898 0.35476 0.07100
C 	C 	0.90372 0.86644 0.97440 0.07500
C 	C 	0.90947 0.82878 0.93535 -0.08500
C 	C 	0.93887 0.98248 0.01696 -0.05600
C 	C 	0.91727 0.88775 0.41028 -0.01100
H 	H 	0.91016 0.78242 0.35114 0.09100
C 	C 	0.95764 0.94042 0.99857 0.00600
H 	H 	0.95684 0.83856 0.92825 0.05600
C 	C 	0.98672 0.91933 0.40960 -0.02400
