data_crystal

_cell_length_a 20.20491
_cell_length_b 20.93240
_cell_length_c 37.63356
_cell_angle_alpha 60.77594
_cell_angle_beta  118.92746
_cell_angle_gamma 133.38518

_symmetry_space_group_name_	'P 1'
_symmetry_space_group_name_H-M	'P 1'

loop_
_symmetry_equiv_pos_as_xyz
  x,y,z

loop_
_atom_site_label
_atom_site_type_symbol
_atom_site_fract_x
_atom_site_fract_y
_atom_site_fract_z
_atom_site_charge
Co	Co	0.06509 0.05877 0.02529 1.19100
Co	Co	0.14404 0.96655 0.02489 1.15200
O 	O 	0.02811 0.08015 0.19041 -0.40400
C 	C 	0.04722 0.02128 0.21503 0.33300
O 	O 	0.02947 0.13521 0.01844 -0.46600
C 	C 	0.04842 0.23250 0.10316 0.30800
C 	C 	0.25172 0.96010 0.11168 0.26000
O 	O 	0.06035 0.98622 0.19952 -0.41300
O 	O 	0.25963 0.01176 0.07366 -0.36700
O 	O 	0.19915 0.94626 0.12986 -0.39100
O 	O 	0.07701 0.20683 0.09090 -0.39800
O 	O 	0.08108 0.97622 0.05120 -0.77400
O 	O 	0.20030 0.09905 0.98892 -0.39200
O 	O 	0.20613 0.15849 0.02802 -0.40000
Co	Co	0.01867 0.98723 0.53096 1.16700
C 	C 	0.04110 0.99794 0.71891 0.23800
O 	O 	0.05692 0.10359 0.53389 -0.46400
C 	C 	0.10681 0.22052 0.61757 0.30600
C 	C 	0.08790 0.79028 0.59786 0.29400
O 	O 	0.04276 0.95538 0.70238 -0.38200
O 	O 	0.01847 0.75093 0.56784 -0.41600
O 	O 	0.08611 0.83362 0.61374 -0.40200
O 	O 	0.11807 0.17481 0.60895 -0.39700
O 	O 	0.09633 0.93338 0.50392 -0.41400
O 	O 	0.14578 0.01298 0.54776 -0.37700
C 	C 	0.03627 0.04038 0.85400 0.12300
C 	C 	0.10669 0.07599 0.83642 -0.10700
C 	C 	0.09304 0.01957 0.81953 0.04800
N 	N 	0.05380 0.06700 0.88568 -0.14400
C 	C 	0.06095 0.97916 0.76506 -0.01900
C 	C 	0.12518 0.04974 0.78535 -0.02500
H 	H 	0.16981 0.14470 0.83610 0.05400
H 	H 	0.16925 0.12051 0.76999 0.04400
H 	H 	0.12015 0.11797 0.89891 0.08600
C 	C 	0.01570 0.04145 0.35074 0.12200
C 	C 	0.09107 0.07682 0.33670 -0.10800
C 	C 	0.07705 0.02561 0.31629 0.04600
C 	C 	0.05620 0.99606 0.26068 -0.06600
C 	C 	0.11753 0.06131 0.28402 -0.01000
N 	N 	0.02645 0.05602 0.38512 -0.14300
H 	H 	0.15802 0.14080 0.34190 0.05500
H 	H 	0.16528 0.13326 0.27133 0.03700
H 	H 	0.09121 0.09578 0.40396 0.08500
C 	C 	0.23144 0.45311 0.61849 -0.07000
C 	C 	0.20945 0.38737 0.60496 0.08900
H 	H 	0.24732 0.51767 0.59677 0.04700
C 	C 	0.15832 0.77042 0.61850 -0.10200
C 	C 	0.18778 0.76262 0.59403 0.08600
C 	C 	0.18794 0.81223 0.54853 -0.19600
H 	H 	0.15446 0.74140 0.68121 0.03900
H 	H 	0.25983 0.87449 0.54595 0.06300
H 	H 	0.13902 0.83043 0.53279 0.06200
H 	H 	0.16713 0.76896 0.53085 0.06000
C 	C 	0.11067 0.39347 0.06574 -0.02200
H 	H 	0.08482 0.37618 0.03665 0.03500
C 	C 	0.15330 0.55000 0.02378 -0.19400
H 	H 	0.22528 0.59500 0.01923 0.06600
H 	H 	0.13710 0.59155 0.02331 0.06700
H 	H 	0.10269 0.51731 0.99716 0.07200
C 	C 	0.22239 0.80835 0.14481 -0.02700
C 	C 	0.28441 0.90237 0.12965 -0.09300
C 	C 	0.16416 0.64731 0.16101 -0.18200
H 	H 	0.16309 0.78190 0.15412 0.03700
H 	H 	0.12560 0.63332 0.18014 0.06300
H 	H 	0.11215 0.61568 0.13418 0.07700
C 	C 	0.31837 0.72235 0.12666 0.11400
N 	N 	0.40635 0.74961 0.13379 -0.14500
C 	C 	0.41941 0.70335 0.12535 0.11600
N 	N 	0.34469 0.62800 0.11118 -0.14200
C 	C 	0.25662 0.59703 0.10605 0.11500
N 	N 	0.24299 0.64516 0.11296 -0.14300
C 	C 	0.28418 0.63011 0.67427 0.11300
N 	N 	0.37924 0.68177 0.68663 -0.14400
C 	C 	0.42637 0.65213 0.69179 0.11800
N 	N 	0.37837 0.56675 0.68976 -0.14200
C 	C 	0.28445 0.51623 0.67558 0.11700
N 	N 	0.23686 0.54811 0.66740 -0.14100
C 	C 	0.24620 0.16459 0.00633 0.29900
C 	C 	0.16281 0.98429 0.53107 0.25000
C 	C 	0.23893 0.43827 0.66050 -0.02800
C 	C 	0.22866 0.35826 0.68955 0.04800
C 	C 	0.20891 0.29403 0.67579 -0.02700
C 	C 	0.18687 0.30272 0.63290 -0.10200
H 	H 	0.20050 0.23248 0.69802 0.05000
C 	C 	0.24170 0.34249 0.73536 -0.18200
H 	H 	0.20784 0.36294 0.73927 0.06900
H 	H 	0.31761 0.38258 0.75039 0.07000
H 	H 	0.20946 0.26981 0.75184 0.06500
C 	C 	0.52325 0.71739 0.68737 -0.02700
H 	H 	0.40746 0.73394 0.60489 0.06700
C 	C 	0.22472 0.71330 0.61292 -0.07100
C 	C 	0.23721 0.67442 0.65584 -0.02700
C 	C 	0.21530 0.68754 0.68108 0.04300
C 	C 	0.17598 0.73561 0.66218 -0.02800
H 	H 	0.24648 0.70734 0.59404 0.04500
C 	C 	0.23198 0.64927 0.72781 -0.18100
H 	H 	0.30813 0.68199 0.74166 0.06800
H 	H 	0.19445 0.57499 0.73501 0.06800
H 	H 	0.20658 0.66098 0.74286 0.06300
C 	C 	0.16550 0.43465 0.14006 -0.07000
C 	C 	0.17990 0.50273 0.10278 -0.02800
C 	C 	0.14638 0.48023 0.06489 0.04600
C 	C 	0.10521 0.32804 0.10382 -0.10300
C 	C 	0.13415 0.34954 0.14140 0.09300
C 	C 	0.13275 0.28247 0.18306 -0.20400
H 	H 	0.18842 0.45110 0.16898 0.04900
H 	H 	0.17436 0.31527 0.20952 0.07000
H 	H 	0.16401 0.25269 0.18530 0.08500
H 	H 	0.05957 0.22827 0.18668 0.07600
C 	C 	0.51379 0.72856 0.13612 -0.02800
C 	C 	0.49363 0.74046 0.06139 -0.17700
H 	H 	0.53805 0.77408 0.03989 0.05800
H 	H 	0.45873 0.77350 0.04919 0.06200
H 	H 	0.43973 0.66790 0.06070 0.06900
C 	C 	0.36605 0.93657 0.12123 0.05300
C 	C 	0.37378 0.87712 0.11887 -0.06400
C 	C 	0.30632 0.78267 0.12947 -0.03300
C 	C 	0.23275 0.74784 0.14505 0.05000
H 	H 	0.43248 0.90467 0.10857 0.04000
C 	C 	0.44308 0.03687 0.11251 -0.16600
H 	H 	0.20116 0.61513 0.18134 0.07100
H 	H 	0.44683 0.07023 0.12970 0.07500
H 	H 	0.43034 0.06792 0.07839 0.07500
H 	H 	0.51220 0.04967 0.12295 0.06700
C 	C 	0.30925 0.00799 0.58205 0.01100
C 	C 	0.25927 0.01631 0.54015 -0.08200
C 	C 	0.30324 0.05781 0.50758 0.08900
C 	C 	0.39698 0.09167 0.51767 -0.07400
C 	C 	0.44862 0.08981 0.55933 -0.02400
C 	C 	0.40298 0.04201 0.59188 0.03200
C 	C 	0.45490 0.03050 0.63706 -0.13800
H 	H 	0.27527 0.97563 0.60699 0.02100
H 	H 	0.43206 0.12628 0.49281 0.04700
C 	C 	0.25254 0.07058 0.46219 -0.19700
H 	H 	0.40559 0.97245 0.65768 0.04000
H 	H 	0.50272 0.01668 0.64125 0.06800
H 	H 	0.30056 0.11458 0.44091 0.06600
H 	H 	0.22173 0.10371 0.45640 0.07800
H 	H 	0.19661 0.00404 0.45399 0.08600
C 	C 	0.40745 0.23792 0.05020 -0.01800
C 	C 	0.34780 0.23121 0.01009 -0.11800
C 	C 	0.38464 0.26762 0.97572 0.10300
C 	C 	0.47343 0.29189 0.98299 -0.06200
C 	C 	0.52906 0.28830 0.02373 -0.04000
C 	C 	0.49800 0.26574 0.05743 0.04600
C 	C 	0.56122 0.27232 0.10084 -0.18200
H 	H 	0.38093 0.21460 0.07635 0.04600
H 	H 	0.49955 0.31433 0.95685 0.05000
C 	C 	0.32739 0.27514 0.93141 -0.20400
H 	H 	0.52166 0.23795 0.12467 0.06500
H 	H 	0.59476 0.23961 0.10977 0.06900
H 	H 	0.27444 0.28100 0.92874 0.07800
H 	H 	0.29156 0.21454 0.92109 0.07500
H 	H 	0.37327 0.33653 0.91001 0.06900
C 	C 	0.54278 0.77589 0.64772 0.04300
C 	C 	0.47495 0.79687 0.61402 -0.17700
H 	H 	0.46259 0.82692 0.62554 0.06600
C 	C 	0.55095 0.74799 0.10564 0.04000
H 	H 	0.53428 0.70773 0.20160 0.05000
H 	H 	0.52701 0.04026 0.50577 0.07500
H 	H 	0.49632 0.09313 0.64710 0.06800
Co	Co	0.06340 0.91371 0.09991 1.18300
H 	H 	0.50230 0.84635 0.58546 0.05600
H 	H 	0.55723 0.07911 0.45774 0.06700
H 	H 	0.55580 0.14983 0.47068 0.06900
O 	O 	0.09660 0.83504 0.06031 -0.41400
C 	C 	0.57269 0.10076 0.48413 -0.18100
C 	C 	0.62276 0.31637 0.03031 0.11800
H 	H 	0.57350 0.65584 0.74859 0.04900
C 	C 	0.55065 0.15294 0.56728 0.11700
C 	C 	0.58883 0.70139 0.71832 -0.07500
C 	C 	0.56477 0.72715 0.17786 -0.07600
H 	H 	0.53770 0.95809 0.04624 0.06600
C 	C 	0.21464 0.40995 0.56135 -0.20100
H 	H 	0.28914 0.45943 0.55951 0.07200
H 	H 	0.18327 0.34937 0.55236 0.07500
O 	O 	0.04012 0.06880 0.69563 -0.36300
H 	H 	0.52067 0.32756 0.51632 0.07400
C 	C 	0.01145 0.93229 0.81903 0.03500
H 	H 	0.17716 0.44084 0.53830 0.06500
O 	O 	0.02202 0.92458 0.97911 -0.38300
N 	N 	0.59610 0.14773 0.55285 -0.14200
H 	H 	0.60716 0.10699 0.05186 0.05900
H 	H 	0.62420 0.94856 0.09129 0.07800
H 	H 	0.56324 0.43690 0.47973 0.06400
N 	N 	0.63331 0.26513 0.02429 -0.14300
O 	O 	0.02277 0.18988 0.61485 -0.41400
N 	N 	0.59391 0.23031 0.57677 -0.14200
C 	C 	0.58271 0.39055 0.50359 -0.18100
Co	Co	0.00236 0.07364 0.57761 1.19100
C 	C 	0.60870 0.97471 0.05678 -0.23400
H 	H 	0.01033 0.32455 0.56666 0.08500
H 	H 	0.60126 0.37397 0.48746 0.06900
H 	H 	0.60721 0.93968 0.04152 0.07600
H 	H 	0.61635 0.34468 0.10178 0.07200
C 	C 	0.01454 0.77382 0.06982 0.31800
O 	O 	0.01992 0.86958 0.15117 -0.47200
C 	C 	0.64219 0.77374 0.11690 -0.01700
C 	C 	0.62494 0.81300 0.63916 -0.02400
H 	H 	0.64092 0.85926 0.60908 0.03400
C 	C 	0.00254 0.98268 0.95224 0.23900
H 	H 	0.00262 0.67176 0.15160 0.07500
O 	O 	0.00133 0.03141 0.96513 -0.33300
H 	H 	0.99838 0.28248 0.53019 0.08300
N 	N 	0.99238 0.90783 0.78613 -0.14900
H 	H 	0.67320 0.79421 0.09313 0.03800
C 	C 	0.98526 0.99618 0.90685 -0.02800
Co	Co	0.98377 0.08997 0.06918 1.18500
Co	Co	0.96400 0.81491 0.51445 1.16200
H 	H 	0.95305 0.60967 0.63376 0.08000
H 	H 	0.67822 0.04583 0.50390 0.04400
O 	O 	0.96558 0.87403 0.54687 -0.76100
O 	O 	0.97612 0.00821 0.46479 -0.34400
Co	Co	0.96580 0.82590 0.59813 1.17800
C 	C 	0.94552 0.95282 0.44402 0.24400
C 	C 	0.94647 0.98562 0.39896 -0.02800
O 	O 	0.96413 0.17664 0.10982 -0.41400
H 	H 	0.98885 0.37321 0.51120 0.06800
C 	C 	0.97248 0.30900 0.53548 -0.21300
C 	C 	0.72056 0.28974 0.03226 0.10900
N 	N 	0.69891 0.39350 0.04275 -0.14300
C 	C 	0.78577 0.41838 0.05087 0.11400
N 	N 	0.79689 0.36572 0.04645 -0.14300
C 	C 	0.67862 0.22274 0.54233 0.11700
N 	N 	0.71915 0.30235 0.54924 -0.14300
C 	C 	0.67702 0.30567 0.56702 0.11800
Co	Co	0.97818 0.94161 0.14340 1.17400
Co	Co	0.90707 0.04300 0.14394 1.17100
O 	O 	0.95761 0.02176 0.11623 -0.74100
O 	O 	0.99411 0.98134 0.07872 -0.60600
C 	C 	0.79914 0.84297 0.16467 0.31200
O 	O 	0.84594 0.91102 0.18049 -0.43000
O 	O 	0.84153 0.83750 0.14960 -0.40000
C 	C 	0.80144 0.05713 0.05645 0.30600
O 	O 	0.79214 0.00372 0.09426 -0.38800
O 	O 	0.85597 0.07413 0.03821 -0.38200
O 	O 	0.98241 0.79359 0.08341 -0.40400
Co	Co	0.95011 0.91153 0.64663 1.17300
C 	C 	0.82494 0.65639 0.56456 0.30100
Co	Co	0.93171 0.05826 0.64444 1.17200
O 	O 	0.95461 0.00650 0.61926 -0.74700
O 	O 	0.96444 0.81780 0.65405 -0.47800
O 	O 	0.94761 0.93439 0.58057 -0.59000
C 	C 	0.78519 0.85734 0.66467 0.31000
O 	O 	0.84357 0.93047 0.67855 -0.42400
O 	O 	0.81531 0.83111 0.65393 -0.39800
O 	O 	0.89972 0.86577 0.46061 -0.39000
C 	C 	0.85276 0.10143 0.55363 0.30000
O 	O 	0.82916 0.04560 0.58965 -0.38600
O 	O 	0.91134 0.11208 0.54070 -0.38300
O 	O 	0.83414 0.70504 0.52616 -0.39100
O 	O 	0.85047 0.69305 0.59339 -0.38600
C 	C 	0.94184 0.89610 0.83735 -0.06100
C 	C 	0.95562 0.95253 0.85426 -0.04400
C 	C 	0.92320 0.92323 0.88822 -0.02600
H 	H 	0.87853 0.82753 0.83753 0.04200
H 	H 	0.88173 0.85281 0.90477 0.04100
H 	H 	0.92518 0.85914 0.77220 0.07800
C 	C 	0.99237 0.94243 0.31066 0.02500
C 	C 	0.91653 0.90867 0.32366 -0.05900
C 	C 	0.92923 0.96131 0.34255 -0.04800
N 	N 	0.98098 0.92396 0.27759 -0.14000
C 	C 	0.88437 0.92586 0.37280 -0.02700
H 	H 	0.84968 0.84446 0.31866 0.03800
H 	H 	0.82975 0.85449 0.38242 0.04100
H 	H 	0.91609 0.87822 0.26110 0.07900
C 	C 	0.68937 0.79522 0.66986 -0.10900
C 	C 	0.66944 0.73616 0.70935 0.09800
C 	C 	0.73253 0.70857 0.74216 -0.20200
H 	H 	0.69028 0.63349 0.75321 0.07100
H 	H 	0.76553 0.73705 0.76928 0.06800
H 	H 	0.78815 0.73087 0.73052 0.07800
C 	C 	0.69660 0.78142 0.15781 -0.11500
C 	C 	0.65438 0.74961 0.18923 0.09400
C 	C 	0.70629 0.74408 0.23461 -0.20000
H 	H 	0.74529 0.80888 0.24215 0.07000
H 	H 	0.75592 0.73012 0.24156 0.07300
H 	H 	0.65665 0.68824 0.25530 0.06600
C 	C 	0.71908 0.10985 0.51127 -0.02100
C 	C 	0.81573 0.15537 0.52818 -0.10300
C 	C 	0.86884 0.24369 0.53261 0.09300
C 	C 	0.82337 0.27162 0.53337 -0.07600
C 	C 	0.72532 0.21643 0.52480 -0.02800
C 	C 	0.67409 0.14322 0.50714 0.04800
H 	H 	0.86427 0.33407 0.54217 0.05300
C 	C 	0.78337 0.43207 0.60157 -0.07300
C 	C 	0.71111 0.39351 0.56812 -0.02700
C 	C 	0.66392 0.43328 0.53873 0.04600
C 	C 	0.69270 0.51329 0.54230 -0.02200
C 	C 	0.77152 0.55725 0.57310 -0.10300
C 	C 	0.81196 0.51224 0.60510 0.09400
C 	C 	0.88578 0.54938 0.64271 -0.20700
H 	H 	0.81647 0.39903 0.62521 0.05000
H 	H 	0.65812 0.54515 0.51913 0.04500
H 	H 	0.89743 0.49845 0.66799 0.07000
H 	H 	0.86378 0.56798 0.65585 0.08200
C 	C 	0.66727 0.13462 0.04265 -0.08800
C 	C 	0.73144 0.22895 0.02954 -0.01500
C 	C 	0.80649 0.26379 0.01515 0.02500
C 	C 	0.82424 0.20503 0.02053 -0.00700
C 	C 	0.76541 0.11171 0.03787 -0.11900
C 	C 	0.68159 0.07565 0.04509 0.12400
H 	H 	0.88673 0.23275 0.01332 0.03500
C 	C 	0.86949 0.36314 0.99525 -0.14800
H 	H 	0.92541 0.40006 0.02009 0.05700
H 	H 	0.82908 0.39186 0.97520 0.06400
H 	H 	0.90341 0.37395 0.97488 0.05800
C 	C 	0.95683 0.66859 0.03257 -0.01100
C 	C 	0.96122 0.68063 0.06738 -0.11700
C 	C 	0.92550 0.60506 0.10131 0.09800
C 	C 	0.87928 0.51816 0.09802 -0.07900
C 	C 	0.86687 0.50564 0.06132 -0.02100
C 	C 	0.91177 0.58193 0.02972 0.02500
C 	C 	0.91023 0.57105 0.99251 -0.14900
H 	H 	0.98827 0.72706 0.00748 0.02800
H 	H 	0.84628 0.45936 0.12269 0.04900
C 	C 	0.93102 0.61532 0.13985 -0.20800
H 	H 	0.94760 0.63736 0.97027 0.05600
H 	H 	0.83698 0.52828 0.97518 0.06500
H 	H 	0.94565 0.53921 0.00340 0.05100
H 	H 	0.88031 0.62832 0.13238 0.08200
H 	H 	0.91398 0.55302 0.16572 0.06700
