data_crystal

_cell_length_a 12.90098
_cell_length_b 13.28826
_cell_length_c 29.64408
_cell_angle_alpha 91.07883
_cell_angle_beta  91.19330
_cell_angle_gamma 113.37964

_symmetry_space_group_name_	'P 1'
_symmetry_space_group_name_H-M	'P 1'

loop_
_symmetry_equiv_pos_as_xyz
  x,y,z

loop_
_atom_site_label
_atom_site_type_symbol
_atom_site_fract_x
_atom_site_fract_y
_atom_site_fract_z
_atom_site_charge
C 	C 	0.05099 0.92895 0.71435 0.03000
H 	H 	0.05488 0.91533 0.67737 0.01500
C 	C 	0.04132 0.96092 0.80267 -0.14400
H 	H 	0.03832 0.97476 0.83965 0.04900
C 	C 	0.16501 0.99897 0.73769 -0.12900
C 	C 	0.16016 0.01498 0.78345 0.09700
Ni	Ni	0.28296 0.66504 0.42021 1.09900
O 	O 	0.35736 0.59295 0.46289 -0.37500
O 	O 	0.18958 0.68370 0.47177 -0.41000
O 	O 	0.06156 0.55895 0.34679 -0.42000
O 	O 	0.24402 0.75797 0.37643 -0.70400
O 	O 	0.15989 0.51398 0.40376 -0.39500
O 	O 	0.24602 0.98502 0.37097 -0.38200
O 	O 	0.07929 0.85771 0.39578 -0.41500
Ni	Ni	0.07871 0.70628 0.37492 1.06700
H 	H 	0.27024 0.74743 0.34625 0.15500
O 	O 	0.01817 0.63278 0.43526 -0.40000
C 	C 	0.07981 0.63374 0.47147 0.31600
C 	C 	0.13568 0.94836 0.37404 0.24000
C 	C 	0.10045 0.48981 0.36539 0.31300
O 	O 	0.22806 0.66247 0.09267 -0.69500
Ni	Ni	0.13519 0.71624 0.13235 1.09800
Ni	Ni	0.19253 0.50643 0.09991 1.07100
O 	O 	0.20310 0.51617 0.16849 -0.41500
O 	O 	0.29599 0.80952 0.15546 -0.70500
O 	O 	0.06453 0.81096 0.16425 -0.39500
O 	O 	0.19215 0.96629 0.13365 -0.43700
Ni	Ni	0.34694 0.96923 0.15664 1.06200
H 	H 	0.21084 0.67325 0.06089 0.15300
H 	H 	0.31011 0.78509 0.18546 0.15700
C 	C 	0.12193 0.52787 0.19087 0.31700
C 	C 	0.09975 0.91627 0.15637 0.30900
O 	O 	0.10604 0.61981 0.18871 -0.38400
O 	O 	0.02209 0.46294 0.10113 -0.41600
C 	C 	0.00660 0.07532 0.24103 -0.03900
C 	C 	0.00828 0.07716 0.28733 0.03900
C 	C 	0.04540 0.43684 0.21791 -0.16000
C 	C 	0.04476 0.33056 0.21421 0.00100
H 	H 	0.09249 0.31302 0.18765 0.02700
C 	C 	0.07613 0.03700 0.21620 0.06700
C 	C 	0.03886 0.97925 0.17507 -0.22000
H 	H 	0.15377 0.03908 0.23212 0.00900
C 	C 	0.06912 0.37941 0.34506 -0.16500
H 	H 	0.11553 0.33072 0.35564 0.08000
C 	C 	0.07665 0.01367 0.35537 -0.05300
C 	C 	0.03593 0.99440 0.31265 -0.09100
H 	H 	0.08462 0.08849 0.37333 0.05300
H 	H 	0.03100 0.92020 0.29483 0.03000
C 	C 	0.02436 0.58658 0.51367 -0.11200
H 	H 	0.05494 0.63289 0.54527 0.07200
C 	C 	0.26702 0.02628 0.71462 0.11500
C 	C 	0.35798 0.12817 0.72167 -0.19700
H 	H 	0.26722 0.97618 0.68522 -0.00900
H 	H 	0.35222 0.18640 0.74660 0.08300
H 	H 	0.02963 0.67160 0.72564 0.01200
H 	H 	0.01421 0.15399 0.83839 0.06100
C 	C 	0.29417 0.14273 0.83794 -0.13400
C 	C 	0.26114 0.04877 0.81367 -0.02200
H 	H 	0.24300 0.19098 0.83716 0.07500
H 	H 	0.31410 0.00239 0.81261 0.04000
C 	C 	0.01189 0.51048 0.95816 0.25900
Ni	Ni	0.33910 0.91143 0.40273 1.09500
H 	H 	0.34921 0.99201 0.50620 0.00700
C 	C 	0.02800 0.50707 0.00691 -0.12300
H 	H 	0.09490 0.48433 0.01985 0.01100
O 	O 	0.36154 0.52969 0.09742 -0.41100
H 	H 	0.37823 0.51589 0.53776 0.07200
O 	O 	0.36526 0.06190 0.59512 -0.40000
H 	H 	0.38369 0.82972 0.47245 0.15300
Ni	Ni	0.38842 0.77165 0.11025 1.09700
O 	O 	0.36653 0.86246 0.05863 -0.38600
C 	C 	0.00780 0.82442 0.74174 -0.06000
H 	H 	0.01534 0.64450 0.80067 0.06400
C 	C 	0.40514 0.18842 0.86139 0.29800
Ni	Ni	0.41413 0.22806 0.59447 1.07100
O 	O 	0.39483 0.81763 0.44024 -0.70000
O 	O 	0.42510 0.02758 0.09693 -0.34800
O 	O 	0.44095 0.39264 0.59116 -0.41600
C 	C 	0.42626 0.01568 0.57497 0.27600
C 	C 	0.42720 0.58906 0.06605 0.27600
C 	C 	0.41269 0.96988 0.05911 0.22700
C 	C 	0.42858 0.01683 0.52537 -0.08700
O 	O 	0.44056 0.24997 0.66206 -0.43300
O 	O 	0.44486 0.29148 0.87563 -0.38600
O 	O 	0.44787 0.12065 0.87792 -0.40500
C 	C 	0.44233 0.17055 0.68676 0.33000
O 	O 	0.44327 0.05779 0.43139 -0.36000
O 	O 	0.44042 0.94732 0.34710 -0.39200
O 	O 	0.45795 0.69631 0.06652 -0.37300
C 	C 	0.46116 0.51674 0.53118 -0.09800
H 	H 	0.38759 0.99679 0.98676 0.02100
C 	C 	0.46736 0.62107 0.46383 0.27900
H 	H 	0.46276 0.45123 0.03755 0.06800
C 	C 	0.44485 0.02685 0.01598 0.00800
C 	C 	0.47660 0.53677 0.03361 -0.08800
O 	O 	0.49641 0.97983 0.18374 -0.42000
C 	C 	0.50691 0.45716 0.56119 0.28200
O 	O 	0.51435 0.01296 0.59718 -0.36500
C 	C 	0.51729 0.56698 0.49489 -0.09900
O 	O 	0.51497 0.12519 0.67922 -0.37800
C 	C 	0.52769 0.05723 0.50414 -0.14500
C 	C 	0.00205 0.83983 0.78749 0.01900
O 	O 	0.52922 0.43964 0.95281 -0.36800
O 	O 	0.52939 0.23241 0.95584 -0.36900
C 	C 	0.53136 0.05784 0.45464 0.29000
O 	O 	0.53074 0.68738 0.43360 -0.41600
C 	C 	0.53160 0.92673 0.34305 0.32500
C 	C 	0.53592 0.59259 0.99897 -0.10600
O 	O 	0.54148 0.84547 0.36441 -0.42400
O 	O 	0.54694 0.89133 0.12517 -0.38000
C 	C 	0.54627 0.10998 0.01166 -0.11300
H 	H 	0.88851 0.54550 0.02194 0.00000
Ni	Ni	0.83734 0.35839 0.89963 1.09800
O 	O 	0.68146 0.29877 0.86858 -0.70600
Ni	Ni	0.59487 0.35688 0.91042 1.09700
O 	O 	0.89964 0.27763 0.85559 -0.37500
O 	O 	0.75956 0.10873 0.86604 -0.40300
O 	O 	0.90460 0.48276 0.85403 -0.37200
Ni	Ni	0.61202 0.13790 0.87148 1.06500
O 	O 	0.98436 0.58815 0.94177 -0.39800
O 	O 	0.63625 0.13566 0.93995 -0.41100
O 	O 	0.75050 0.41583 0.94227 -0.69900
O 	O 	0.98805 0.42012 0.93411 -0.36100
O 	O 	0.67555 0.60439 0.94549 -0.41500
Ni	Ni	0.82287 0.57748 0.94395 1.06800
H 	H 	0.68182 0.32444 0.83742 0.15400
H 	H 	0.74838 0.38619 0.97278 0.15700
C 	C 	0.57715 0.16619 0.96840 0.29800
O 	O 	0.81033 0.58744 0.87621 -0.42600
C 	C 	0.85289 0.17193 0.84635 0.29100
C 	C 	0.88225 0.57067 0.85003 0.31200
C 	C 	0.58711 0.54126 0.96717 0.28600
Ni	Ni	0.62203 0.15833 0.62506 1.10200
O 	O 	0.72039 0.31202 0.65078 -0.70100
Ni	Ni	0.68513 0.40663 0.60676 1.09900
O 	O 	0.71267 0.08214 0.65764 -0.37600
O 	O 	0.87370 0.20754 0.63012 -0.42600
Ni	Ni	0.88551 0.36031 0.65211 1.07200
O 	O 	0.94921 0.43681 0.59235 -0.38700
O 	O 	0.80891 0.55550 0.62589 -0.39600
O 	O 	0.57227 0.25505 0.58601 -0.69600
O 	O 	0.61638 0.48248 0.56316 -0.37400
H 	H 	0.69498 0.32388 0.68096 0.15200
H 	H 	0.58313 0.24299 0.55379 0.16400
C 	C 	0.88863 0.43703 0.55608 0.31000
C 	C 	0.82355 0.12345 0.65576 0.31100
C 	C 	0.86363 0.57398 0.66536 0.31800
O 	O 	0.77899 0.38736 0.55551 -0.40300
O 	O 	0.90527 0.50506 0.68178 -0.42000
C 	C 	0.97334 0.98668 0.72754 -0.12300
C 	C 	0.96851 0.00344 0.77324 0.11300
Ni	Ni	0.55516 0.85188 0.43290 1.06300
O 	O 	0.59799 0.01711 0.43528 -0.39300
O 	O 	0.98059 0.61374 0.10713 -0.37400
C 	C 	0.97499 0.52625 0.08397 0.29300
C 	C 	0.57368 0.96013 0.16070 0.25600
C 	C 	0.92879 0.12428 0.21854 -0.03900
H 	H 	0.92762 0.12210 0.18106 0.04900
C 	C 	0.93510 0.13237 0.30825 -0.04100
H 	H 	0.93734 0.13698 0.34575 0.05100
C 	C 	0.97131 0.24145 0.23925 0.00800
C 	C 	0.81351 0.06155 0.24055 0.05700
C 	C 	0.97295 0.24473 0.28573 -0.00800
C 	C 	0.81774 0.06657 0.28709 0.00000
H 	H 	0.97881 0.44965 0.23554 0.09200
C 	C 	0.69211 0.01348 0.17615 -0.04000
C 	C 	0.72275 0.98952 0.21675 -0.09700
H 	H 	0.74781 0.08394 0.15813 0.05600
H 	H 	0.66382 0.91779 0.23322 0.05600
H 	H 	0.95588 0.96530 0.16085 0.09300
C 	C 	0.62075 0.99314 0.31259 -0.19400
C 	C 	0.72519 0.99337 0.31532 0.00700
H 	H 	0.60281 0.04687 0.28933 0.11600
H 	H 	0.74567 0.94591 0.34081 0.01900
C 	C 	0.98609 0.33932 0.31086 0.03400
H 	H 	0.93356 0.38347 0.30270 0.03500
H 	H 	0.60689 0.08160 0.52340 0.04600
C 	C 	0.94493 0.48387 0.51399 -0.06900
H 	H 	0.91448 0.43755 0.48239 0.07300
H 	H 	0.60073 0.56903 0.48843 0.07300
C 	C 	0.88980 0.10308 0.69270 -0.19600
C 	C 	0.89956 0.00229 0.69542 0.12300
H 	H 	0.94028 0.17102 0.71532 0.06600
H 	H 	0.86607 0.94279 0.66760 -0.01400
C 	C 	0.89254 0.68016 0.68853 -0.17600
C 	C 	0.97675 0.71662 0.71958 0.07000
H 	H 	0.84527 0.72955 0.68009 0.08300
C 	C 	0.95560 0.52330 0.03510 -0.10400
H 	H 	0.60689 0.13578 0.03994 0.07700
H 	H 	0.55200 0.67874 0.99545 0.07500
C 	C 	0.88919 0.04587 0.79375 -0.03500
C 	C 	0.92576 0.12151 0.82740 -0.10600
H 	H 	0.80273 0.01783 0.78058 0.04300
C 	C 	0.94764 0.65558 0.81829 -0.12900
C 	C 	0.93482 0.75565 0.81569 -0.00100
H 	H 	0.88418 0.77508 0.84049 0.03500
