data_crystal

_cell_length_a 26.22569
_cell_length_b 26.41345
_cell_length_c 35.55542
_cell_angle_alpha 95.50003
_cell_angle_beta  95.49902
_cell_angle_gamma 125.83941

_symmetry_space_group_name_	'P 1'
_symmetry_space_group_name_H-M	'P 1'

loop_
_symmetry_equiv_pos_as_xyz
  x,y,z

loop_
_atom_site_label
_atom_site_type_symbol
_atom_site_fract_x
_atom_site_fract_y
_atom_site_fract_z
_atom_site_charge
C 	C 	0.96519 0.02272 0.99028 0.11000
C 	C 	0.02829 0.05990 0.98364 -0.08300
C 	C 	0.06290 0.03476 0.98304 0.11300
C 	C 	0.03304 0.97131 0.98675 -0.08300
C 	C 	0.97024 0.93427 0.99344 0.12000
C 	C 	0.93719 0.96065 0.99650 -0.08600
H 	H 	0.05058 0.10829 0.97946 0.10300
H 	H 	0.05907 0.95122 0.98519 0.10100
H 	H 	0.88891 0.93217 0.00232 0.10600
C 	C 	0.93693 0.00557 0.46561 0.11200
C 	C 	0.00379 0.04096 0.47121 -0.08300
C 	C 	0.03270 0.01017 0.47315 0.11700
C 	C 	0.99487 0.94418 0.47103 -0.08500
C 	C 	0.92796 0.90853 0.46532 0.11900
C 	C 	0.89895 0.93919 0.46205 -0.07800
H 	H 	0.03313 0.09214 0.47337 0.10200
H 	H 	0.01732 0.92047 0.47298 0.10400
H 	H 	0.84720 0.91167 0.45726 0.10300
Cu	Cu	0.63014 0.23058 0.99868 0.93500
Cu	Cu	0.69312 0.25062 0.92180 0.89400
Cu	Cu	0.68372 0.34563 0.95973 0.90300
Cu	Cu	0.65259 0.35617 0.03688 0.91300
C 	C 	0.64698 0.26305 0.08037 0.33300
O 	O 	0.54126 0.20783 0.99771 -0.33100
C 	C 	0.67095 0.32051 0.87483 0.33300
O 	O 	0.69536 0.33073 0.01068 -0.63500
O 	O 	0.63113 0.25124 0.94669 -0.63800
O 	O 	0.65776 0.17495 0.98973 -0.33600
O 	O 	0.74106 0.25045 0.96507 -0.40700
O 	O 	0.62607 0.29698 0.07406 -0.36500
O 	O 	0.73989 0.43714 0.97457 -0.36100
C 	C 	0.73577 0.47084 0.00232 0.34400
C 	C 	0.52754 0.24572 0.98721 0.32100
O 	O 	0.57408 0.30575 0.98787 -0.36900
O 	O 	0.70966 0.44718 0.03213 -0.35400
O 	O 	0.64412 0.22546 0.05162 -0.33900
C 	C 	0.71410 0.19941 0.98046 0.33100
O 	O 	0.68153 0.35919 0.90620 -0.36800
O 	O 	0.66426 0.26728 0.87668 -0.39700
H 	H 	0.74041 0.35132 0.02270 0.19000
H 	H 	0.58903 0.23082 0.92993 0.20200
Cu	Cu	0.73466 0.34073 0.45368 0.93700
Cu	Cu	0.74735 0.31615 0.54156 0.88600
Cu	Cu	0.63613 0.30813 0.50446 0.90600
Cu	Cu	0.60207 0.31080 0.42292 0.91100
C 	C 	0.68071 0.29754 0.37296 0.33600
O 	O 	0.75508 0.42469 0.44374 -0.33200
C 	C 	0.68220 0.34575 0.58871 0.33000
O 	O 	0.63568 0.27825 0.45300 -0.63900
O 	O 	0.73069 0.36022 0.50780 -0.63700
O 	O 	0.79385 0.31748 0.46294 -0.33800
O 	O 	0.73831 0.25330 0.50444 -0.40700
O 	O 	0.64651 0.31858 0.37871 -0.36500
O 	O 	0.54403 0.25207 0.49940 -0.35700
C 	C 	0.50239 0.24705 0.47227 0.34000
C 	C 	0.72203 0.44418 0.45521 0.32100
O 	O 	0.66402 0.40265 0.46155 -0.36400
O 	O 	0.51677 0.26428 0.43881 -0.35400
O 	O 	0.72372 0.30695 0.40108 -0.34700
C 	C 	0.77764 0.26954 0.48008 0.33400
O 	O 	0.63937 0.33305 0.55900 -0.36400
O 	O 	0.73756 0.35798 0.58410 -0.39900
H 	H 	0.61342 0.23183 0.44621 0.19600
H 	H 	0.75290 0.40564 0.51873 0.20300
C 	C 	0.66478 0.31958 0.76794 0.02000
C 	C 	0.62098 0.27897 0.73406 -0.02800
C 	C 	0.63539 0.29514 0.69827 -0.02800
C 	C 	0.69386 0.35237 0.69599 0.02000
C 	C 	0.73682 0.39393 0.72992 -0.02700
C 	C 	0.72240 0.37771 0.76574 -0.02700
C 	C 	0.71390 0.36501 0.65842 0.01900
C 	C 	0.67040 0.35157 0.62579 -0.15400
C 	C 	0.65430 0.29685 0.80482 0.02100
C 	C 	0.66798 0.33731 0.83902 -0.15400
H 	H 	0.57665 0.23382 0.73541 0.06300
H 	H 	0.60234 0.26194 0.67231 0.05900
H 	H 	0.78223 0.43795 0.72850 0.06400
H 	H 	0.75721 0.40900 0.79163 0.06100
H 	H 	0.76298 0.38417 0.65628 0.05400
H 	H 	0.62460 0.34125 0.62919 0.10600
H 	H 	0.63506 0.24758 0.80503 0.05800
H 	H 	0.67838 0.38340 0.83781 0.10600
C 	C 	0.65050 0.26839 0.26475 0.02200
C 	C 	0.60233 0.22130 0.23411 -0.02600
C 	C 	0.60992 0.22846 0.19612 -0.02500
C 	C 	0.66540 0.28331 0.18851 0.02200
C 	C 	0.71472 0.32902 0.21911 -0.02700
C 	C 	0.70753 0.32146 0.25707 -0.02500
C 	C 	0.66736 0.29798 0.14949 0.02300
C 	C 	0.65789 0.25547 0.11792 -0.15100
C 	C 	0.63731 0.26680 0.30421 0.02400
C 	C 	0.68246 0.27896 0.33528 -0.15100
H 	H 	0.55812 0.18021 0.23972 0.06500
H 	H 	0.57134 0.19301 0.17269 0.06800
H 	H 	0.75765 0.37157 0.21352 0.06400
H 	H 	0.74489 0.35840 0.28049 0.06700
H 	H 	0.67656 0.34276 0.14550 0.05100
H 	H 	0.65952 0.21634 0.12266 0.11500
H 	H 	0.59264 0.25789 0.30908 0.05300
H 	H 	0.72081 0.27594 0.32990 0.11000
C 	C 	0.74769 0.51159 0.45739 -0.11200
C 	C 	0.80959 0.56048 0.47858 0.12800
C 	C 	0.83589 0.62450 0.47800 0.06600
C 	C 	0.79843 0.64013 0.45920 0.02300
C 	C 	0.73536 0.59152 0.43990 0.06600
C 	C 	0.71131 0.52743 0.43713 0.13000
C 	C 	0.82586 0.70772 0.45918 0.00900
C 	C 	0.82831 0.74497 0.49146 0.08100
C 	C 	0.86163 0.81086 0.49355 0.09300
C 	C 	0.88828 0.83871 0.46207 -0.04900
C 	C 	0.88089 0.80037 0.42846 0.09200
C 	C 	0.85195 0.73545 0.42756 0.08100
Br	Br	0.68185 0.61290 0.41750 -0.11700
Br	Br	0.85730 0.54017 0.50983 -0.17900
Br	Br	0.87372 0.86342 0.54019 -0.12200
Br	Br	0.84996 0.68493 0.38368 -0.12600
Br	Br	0.63147 0.46215 0.40276 -0.17400
Br	Br	0.92371 0.69091 0.50229 -0.12500
Br	Br	0.78615 0.70558 0.53279 -0.12200
Br	Br	0.90956 0.83677 0.38351 -0.12400
C 	C 	0.80043 0.23141 0.47031 -0.11800
C 	C 	0.86566 0.25794 0.48134 0.12500
C 	C 	0.88593 0.21923 0.47629 0.06500
C 	C 	0.84065 0.15350 0.46187 0.02300
C 	C 	0.77587 0.12753 0.44942 0.06400
C 	C 	0.75619 0.16692 0.45259 0.13000
C 	C 	0.86059 0.11130 0.46184 0.00800
C 	C 	0.87739 0.09540 0.42864 0.08100
C 	C 	0.89902 0.05766 0.42927 0.09100
C 	C 	0.90676 0.03833 0.46361 -0.04900
C 	C 	0.88934 0.05369 0.49669 0.09200
C 	C 	0.86479 0.08880 0.49551 0.08100
Br	Br	0.71397 0.03771 0.42918 -0.12500
Br	Br	0.92663 0.34650 0.50504 -0.16200
Br	Br	0.91771 0.03198 0.38315 -0.12700
Br	Br	0.83712 0.10648 0.54000 -0.13600
Br	Br	0.66925 0.13327 0.43153 -0.17400
Br	Br	0.97556 0.25582 0.48961 -0.12500
Br	Br	0.87215 0.12665 0.38266 -0.12300
Br	Br	0.90157 0.02877 0.54399 -0.12900
C 	C 	0.10250 0.04666 0.47531 -0.05100
C 	C 	0.14360 0.06998 0.51127 0.09300
C 	C 	0.20998 0.10347 0.51319 0.08100
C 	C 	0.23536 0.11448 0.47917 0.00900
C 	C 	0.19429 0.09197 0.44325 0.08000
C 	C 	0.12787 0.05757 0.44130 0.09300
C 	C 	0.30516 0.14914 0.48104 0.02300
C 	C 	0.34530 0.21582 0.48473 0.06700
C 	C 	0.41060 0.24816 0.48321 0.12600
C 	C 	0.43557 0.21378 0.47736 -0.11200
C 	C 	0.39583 0.14729 0.47469 0.12800
C 	C 	0.33085 0.11511 0.47708 0.06500
Br	Br	0.22933 0.10843 0.39678 -0.12300
Br	Br	0.10876 0.05617 0.55781 -0.13100
Br	Br	0.46614 0.33962 0.48942 -0.14700
Br	Br	0.27661 0.02429 0.47442 -0.12600
Br	Br	0.07132 0.02457 0.39202 -0.12100
Br	Br	0.26627 0.13401 0.56231 -0.12800
Br	Br	0.31036 0.26251 0.49114 -0.11900
Br	Br	0.42983 0.10008 0.46617 -0.16100
C 	C 	0.77117 0.53950 0.00363 -0.11000
C 	C 	0.73760 0.56565 0.99926 0.12300
C 	C 	0.77132 0.63115 0.99976 0.06400
C 	C 	0.83841 0.67009 0.00313 0.02600
C 	C 	0.87202 0.64402 0.00780 0.06500
C 	C 	0.83855 0.57906 0.00904 0.13000
C 	C 	0.87337 0.73804 0.00073 0.01300
C 	C 	0.87937 0.75636 0.96453 0.07600
C 	C 	0.91073 0.82065 0.96214 0.09500
C 	C 	0.93817 0.86697 0.99599 -0.05600
C 	C 	0.93391 0.84889 0.03223 0.09800
C 	C 	0.90040 0.78431 0.03458 0.07900
Br	Br	0.96381 0.69728 0.01186 -0.12300
Br	Br	0.64527 0.51127 0.99140 -0.14800
Br	Br	0.91519 0.84538 0.91251 -0.12700
Br	Br	0.89075 0.75889 0.08405 -0.11800
Br	Br	0.88505 0.54477 0.01985 -0.16000
Br	Br	0.72587 0.66779 0.99571 -0.12100
Br	Br	0.84468 0.69316 0.91832 -0.13200
Br	Br	0.97498 0.91287 0.07854 -0.12200
C 	C 	0.74209 0.16440 0.98122 -0.12300
C 	C 	0.76907 0.15930 0.94990 0.13200
C 	C 	0.81023 0.14190 0.95433 0.06400
C 	C 	0.81332 0.11594 0.98648 0.02000
C 	C 	0.77889 0.11237 0.01552 0.06800
C 	C 	0.74755 0.14112 0.01439 0.13400
C 	C 	0.85101 0.09063 0.98901 0.00600
C 	C 	0.82967 0.03453 0.96395 0.07800
C 	C 	0.87050 0.01683 0.96147 0.08700
C 	C 	0.92721 0.04767 0.98915 -0.05000
C 	C 	0.94563 0.10027 0.01681 0.09300
C 	C 	0.91025 0.12469 0.01466 0.08400
Br	Br	0.77319 0.06670 0.05607 -0.12200
Br	Br	0.74342 0.16810 0.89974 -0.23300
Br	Br	0.85171 0.95458 0.91834 -0.12200
Br	Br	0.94424 0.20593 0.04543 -0.12600
Br	Br	0.71721 0.15300 0.05929 -0.15300
Br	Br	0.86434 0.15617 0.91726 -0.12900
Br	Br	0.74405 0.98126 0.93383 -0.11500
Br	Br	0.01593 0.13569 0.05918 -0.12700
C 	C 	0.13190 0.07605 0.98158 -0.05200
C 	C 	0.17716 0.09222 0.01421 0.09500
C 	C 	0.24103 0.12008 0.01093 0.08300
C 	C 	0.26165 0.13944 0.97639 0.00500
C 	C 	0.21770 0.12943 0.94495 0.08200
C 	C 	0.15227 0.09476 0.94685 0.09300
C 	C 	0.32954 0.17051 0.97333 0.02400
C 	C 	0.37690 0.23384 0.99204 0.06300
C 	C 	0.44175 0.25815 0.99793 0.12800
C 	C 	0.46008 0.22273 0.97951 -0.11200
C 	C 	0.41276 0.16288 0.95591 0.12800
C 	C 	0.34756 0.13506 0.95499 0.06500
Br	Br	0.24738 0.16396 0.89968 -0.12200
Br	Br	0.15189 0.07813 0.06362 -0.12600
Br	Br	0.50342 0.33565 0.03485 -0.17200
Br	Br	0.28320 0.04748 0.93042 -0.12700
Br	Br	0.09033 0.07000 0.90147 -0.13200
Br	Br	0.29963 0.12926 0.05313 -0.13000
Br	Br	0.35260 0.28664 0.01029 -0.11200
Br	Br	0.43710 0.12083 0.92317 -0.17600
