data_crystal

_cell_length_a 17.61088
_cell_length_b 17.29758
_cell_length_c 47.95002
_cell_angle_alpha 90.72088
_cell_angle_beta  91.01283
_cell_angle_gamma 110.88626

_symmetry_space_group_name_	'P 1'
_symmetry_space_group_name_H-M	'P 1'

loop_
_symmetry_equiv_pos_as_xyz
  x,y,z

loop_
_atom_site_label
_atom_site_type_symbol
_atom_site_fract_x
_atom_site_fract_y
_atom_site_fract_z
_atom_site_charge
O 	O 	0.08700 0.88175 0.75982 -0.69700
Ni	Ni	0.09111 0.98169 0.78290 1.10000
O 	O 	0.16725 0.79973 0.72194 -0.37800
Ni	Ni	0.19929 0.88893 0.75403 1.07300
O 	O 	0.21000 0.98727 0.72942 -0.40800
O 	O 	0.16023 0.96698 0.81568 -0.36000
O 	O 	0.02321 0.99284 0.74942 -0.70800
O 	O 	0.06802 0.07486 0.80420 -0.33400
H 	H 	0.05549 0.82984 0.76906 0.16100
H 	H 	0.04561 0.04791 0.74082 0.17500
C 	C 	0.22268 0.06095 0.74074 0.29300
C 	C 	0.09759 0.77710 0.70802 0.30300
C 	C 	0.23217 0.96282 0.81139 0.29700
C 	C 	0.99288 0.07330 0.80602 0.28000
O 	O 	0.19234 0.06851 0.76543 -0.35600
O 	O 	0.25899 0.96737 0.78581 -0.40600
Ni	Ni	0.37451 0.73546 0.41233 1.09900
O 	O 	0.35455 0.66771 0.37568 -0.69700
Ni	Ni	0.24242 0.66774 0.36547 1.10000
O 	O 	0.47181 0.70661 0.42486 -0.36900
O 	O 	0.44733 0.57708 0.40768 -0.38900
O 	O 	0.45822 0.83774 0.39475 -0.36500
Ni	Ni	0.34320 0.55127 0.38231 1.07000
O 	O 	0.37235 0.91241 0.42389 -0.38300
O 	O 	0.27440 0.54700 0.41649 -0.41300
O 	O 	0.22008 0.58988 0.33149 -0.36000
O 	O 	0.26830 0.74222 0.40029 -0.70900
O 	O 	0.38542 0.80320 0.44783 -0.38300
O 	O 	0.13773 0.69113 0.35719 -0.34700
O 	O 	0.20545 0.83098 0.35890 -0.38700
Ni	Ni	0.28810 0.85831 0.39244 1.07800
H 	H 	0.39454 0.69339 0.36116 0.16500
H 	H 	0.22734 0.72239 0.41495 0.16600
C 	C 	0.20330 0.55574 0.41443 0.26200
O 	O 	0.37490 0.86903 0.36370 -0.39100
C 	C 	0.46489 0.62994 0.42891 0.28100
C 	C 	0.22737 0.51716 0.33361 0.29700
C 	C 	0.44695 0.86913 0.37097 0.30200
C 	C 	0.13671 0.76695 0.35791 0.29300
C 	C 	0.37983 0.87716 0.44776 0.27700
O 	O 	0.17561 0.57128 0.39017 -0.35000
O 	O 	0.24208 0.49181 0.35820 -0.39700
Ni	Ni	0.34759 0.66066 0.13411 1.10300
O 	O 	0.24641 0.62589 0.10789 -0.69400
Ni	Ni	0.18214 0.68944 0.12470 1.10100
O 	O 	0.39707 0.58558 0.11364 -0.34900
O 	O 	0.27997 0.47344 0.11246 -0.39100
O 	O 	0.39837 0.74708 0.10463 -0.38400
Ni	Ni	0.17962 0.50844 0.10701 1.07100
O 	O 	0.41058 0.78860 0.18775 -0.39600
O 	O 	0.16464 0.50951 0.14904 -0.39700
O 	O 	0.09216 0.65969 0.09501 -0.36100
O 	O 	0.27537 0.71156 0.15324 -0.70200
O 	O 	0.45246 0.70492 0.15861 -0.35400
O 	O 	0.14267 0.77884 0.14082 -0.35200
O 	O 	0.26954 0.87458 0.13723 -0.41700
Ni	Ni	0.33887 0.82755 0.16255 1.07400
H 	H 	0.26072 0.64455 0.08861 0.15100
H 	H 	0.25551 0.68146 0.17062 0.17900
C 	C 	0.11030 0.53639 0.15959 0.30200
O 	O 	0.42747 0.85959 0.13346 -0.39100
C 	C 	0.34975 0.51647 0.10136 0.27700
C 	C 	0.06451 0.58415 0.08415 0.26900
C 	C 	0.41646 0.82692 0.10824 0.28200
C 	C 	0.19196 0.85654 0.14190 0.28900
C 	C 	0.46832 0.76458 0.17791 0.31000
O 	O 	0.10193 0.60454 0.15037 -0.35100
O 	O 	0.07082 0.52157 0.09837 -0.39700
O 	O 	0.05237 0.21649 0.24085 -0.35700
O 	O 	0.11378 0.09671 0.22729 -0.37100
O 	O 	0.01231 0.09594 0.19650 -0.34400
Ni	Ni	0.06129 0.04880 0.26399 1.07900
O 	O 	0.07829 0.16187 0.28147 -0.39700
C 	C 	0.08167 0.22607 0.26659 0.30400
C 	C 	0.07586 0.07546 0.20271 0.29100
C 	C 	0.93746 0.34219 0.20344 -0.08800
C 	C 	0.91432 0.36964 0.17825 0.11400
C 	C 	0.96893 0.43901 0.16523 -0.04400
C 	C 	0.04671 0.48053 0.17700 -0.05500
C 	C 	0.06669 0.45778 0.20344 0.09700
N 	N 	0.14362 0.50300 0.21672 -0.02100
H 	H 	0.95247 0.45775 0.14522 0.07700
N 	N 	0.83716 0.32489 0.16512 -0.02100
O 	O 	0.18787 0.46373 0.22718 -0.08400
O 	O 	0.77044 0.31523 0.17822 -0.08400
O 	O 	0.83348 0.29871 0.13940 -0.09200
C 	C 	0.21874 0.99309 0.16562 -0.03400
C 	C 	0.16317 0.92205 0.15230 -0.08200
C 	C 	0.07991 0.91175 0.15093 0.10200
C 	C 	0.05219 0.96583 0.16614 -0.02300
C 	C 	0.10710 0.03203 0.18175 -0.07700
C 	C 	0.19124 0.04887 0.17985 0.09500
N 	N 	0.24890 0.12331 0.19192 -0.01900
H 	H 	0.28333 0.00434 0.16539 0.04900
H 	H 	0.98768 0.95499 0.16638 0.06800
N 	N 	0.02387 0.84818 0.13356 -0.01300
O 	O 	0.30729 0.11985 0.20827 -0.09900
O 	O 	0.24582 0.19484 0.18528 -0.07200
O 	O 	0.95754 0.79692 0.14394 -0.09200
O 	O 	0.03618 0.84543 0.10695 -0.09200
O 	O 	0.46393 0.05373 0.37600 -0.10900
O 	O 	0.43583 0.05632 0.33013 -0.10100
C 	C 	0.07272 0.35162 0.28962 -0.02600
C 	C 	0.12094 0.30974 0.27869 -0.07700
C 	C 	0.20602 0.34342 0.28266 0.10900
C 	C 	0.24129 0.41536 0.29917 -0.02700
C 	C 	0.19248 0.45461 0.31138 -0.06900
C 	C 	0.10808 0.42422 0.30567 0.10500
N 	N 	0.05756 0.46484 0.31722 -0.02100
H 	H 	0.00737 0.32650 0.28640 0.04000
H 	H 	0.30643 0.43938 0.30313 0.05400
N 	N 	0.25663 0.30385 0.27040 -0.02500
O 	O 	0.04150 0.45887 0.34364 -0.08800
O 	O 	0.25263 0.28929 0.24363 -0.06500
O 	O 	0.31003 0.28678 0.28575 -0.09700
C 	C 	0.03260 0.75845 0.32141 -0.00600
C 	C 	0.06250 0.78070 0.34879 -0.07300
C 	C 	0.03424 0.83380 0.36457 0.10300
C 	C 	0.98845 0.87515 0.35137 -0.03500
C 	C 	0.97152 0.86417 0.32261 -0.05500
C 	C 	0.98699 0.80006 0.30820 0.07400
N 	N 	0.96165 0.78136 0.27955 -0.03000
H 	H 	0.05017 0.71377 0.30968 0.07800
N 	N 	0.05602 0.84947 0.39361 -0.02800
O 	O 	0.01193 0.77197 0.26141 -0.10300
O 	O 	0.88767 0.77173 0.27171 -0.09100
O 	O 	0.08099 0.92477 0.40371 -0.12000
C 	C 	0.39029 0.14902 0.53470 -0.04000
C 	C 	0.36969 0.10422 0.50942 -0.03900
C 	C 	0.39847 0.03973 0.50380 0.02200
C 	C 	0.40603 0.92917 0.47328 -0.04900
C 	C 	0.37729 0.99388 0.47861 -0.02900
H 	H 	0.36744 0.19844 0.53874 0.04400
H 	H 	0.33129 0.11969 0.49425 0.04600
H 	H 	0.33759 0.00749 0.46344 0.04500
C 	C 	0.02383 0.46668 0.46130 0.03500
C 	C 	0.05704 0.50616 0.48697 -0.01100
C 	C 	0.12278 0.58578 0.53800 -0.04100
C 	C 	0.16971 0.60355 0.51405 -0.03800
C 	C 	0.13733 0.56392 0.48848 0.02300
C 	C 	0.18444 0.58081 0.46449 -0.03200
C 	C 	0.15169 0.54120 0.43897 -0.05200
C 	C 	0.07115 0.48507 0.43730 -0.02700
H 	H 	0.14858 0.61703 0.55756 0.05600
H 	H 	0.23127 0.64817 0.51540 0.04600
H 	H 	0.24654 0.62454 0.46562 0.03000
H 	H 	0.04617 0.45447 0.41755 0.06500
C 	C 	0.52722 0.57894 0.51106 -0.00800
C 	C 	0.56242 0.65925 0.50050 0.01900
C 	C 	0.47926 0.51308 0.49341 0.01900
C 	C 	0.44520 0.43304 0.50406 -0.04100
C 	C 	0.54889 0.67354 0.47252 -0.02500
C 	C 	0.49652 0.60939 0.45535 -0.05500
C 	C 	0.46396 0.52864 0.46557 -0.02700
H 	H 	0.63525 0.78702 0.51041 0.04400
H 	H 	0.40844 0.38196 0.49068 0.04300
H 	H 	0.57607 0.73540 0.46440 0.05800
H 	H 	0.42388 0.47903 0.45232 0.04300
C 	C 	0.36983 0.19916 0.69058 -0.02400
C 	C 	0.43732 0.23642 0.70847 -0.07400
C 	C 	0.42840 0.22840 0.73755 0.10200
C 	C 	0.35447 0.17647 0.74822 -0.02900
C 	C 	0.28947 0.13231 0.73011 -0.06700
C 	C 	0.29580 0.14725 0.70125 0.09600
N 	N 	0.22765 0.10861 0.68268 -0.01900
H 	H 	0.37576 0.20783 0.66826 0.07200
H 	H 	0.34902 0.16723 0.77052 0.07900
N 	N 	0.49455 0.27213 0.75630 -0.02000
O 	O 	0.15718 0.11318 0.68803 -0.11100
O 	O 	0.23686 0.07188 0.65984 -0.08900
O 	O 	0.53051 0.35185 0.75445 -0.09600
O 	O 	0.51544 0.23308 0.77630 -0.10500
N 	N 	0.12656 0.71628 0.65394 -0.01900
O 	O 	0.20185 0.74010 0.66274 -0.08500
O 	O 	0.10981 0.73433 0.62886 -0.09600
C 	C 	0.99591 0.44389 0.99238 -0.04900
C 	C 	0.98602 0.49978 0.01222 0.01400
C 	C 	0.96749 0.61382 0.05141 -0.03200
C 	C 	0.01661 0.56764 0.05794 -0.04800
C 	C 	0.02481 0.50990 0.03850 -0.02200
H 	H 	0.03330 0.40764 0.99729 0.04900
H 	H 	0.96068 0.65784 0.06657 0.06700
H 	H 	0.06320 0.47473 0.04356 0.02100
C 	C 	0.43618 0.07691 0.05583 -0.04300
C 	C 	0.45612 0.12341 0.03154 -0.03300
C 	C 	0.49143 0.09631 0.00918 0.01300
C 	C 	0.48716 0.97536 0.03576 -0.01600
C 	C 	0.45164 0.00291 0.05812 0.03100
C 	C 	0.50330 0.90141 0.03790 0.02500
C 	C 	0.43126 0.95562 0.08234 -0.03200
C 	C 	0.44590 0.88107 0.08424 -0.05100
C 	C 	0.48315 0.85497 0.06218 -0.02800
H 	H 	0.40888 0.09862 0.07287 0.05100
H 	H 	0.44449 0.18071 0.03022 0.04200
H 	H 	0.40236 0.97561 0.09935 0.05200
H 	H 	0.49554 0.79805 0.06381 0.05400
C 	C 	0.37288 0.30173 0.99993 -0.04200
C 	C 	0.35624 0.31816 0.02736 -0.04000
C 	C 	0.36777 0.39944 0.03613 0.01700
C 	C 	0.39554 0.46458 0.01706 -0.00700
C 	C 	0.40137 0.36640 0.98091 0.02200
C 	C 	0.39295 0.56293 0.05338 -0.03100
C 	C 	0.36582 0.49829 0.07247 -0.07200
C 	C 	0.35249 0.41657 0.06376 -0.02700
H 	H 	0.36413 0.23875 0.99354 0.04500
H 	H 	0.33488 0.26766 0.04181 0.04500
H 	H 	0.33118 0.36677 0.07850 0.05000
C 	C 	0.36434 0.07227 0.87250 -0.03000
C 	C 	0.43671 0.06164 0.86506 -0.06900
C 	C 	0.43334 0.99819 0.84580 0.09400
C 	C 	0.36050 0.95551 0.83118 -0.02300
C 	C 	0.29193 0.97779 0.83485 -0.08100
C 	C 	0.29189 0.03076 0.85752 0.11000
N 	N 	0.21922 0.04393 0.86504 -0.01700
H 	H 	0.36539 0.11684 0.88875 0.07000
H 	H 	0.35935 0.91011 0.81522 0.05100
O 	O 	0.15983 0.98423 0.87585 -0.08200
O 	O 	0.21604 0.11782 0.86398 -0.07800
Ni	Ni	0.57917 0.29735 0.89657 1.09900
O 	O 	0.61040 0.36931 0.86184 -0.69500
Ni	Ni	0.72102 0.36559 0.85519 1.10500
O 	O 	0.47735 0.32539 0.90060 -0.36900
O 	O 	0.51519 0.46253 0.89053 -0.38500
O 	O 	0.52195 0.20409 0.86881 -0.38800
Ni	Ni	0.62096 0.48537 0.86732 1.07200
O 	O 	0.65870 0.18135 0.93166 -0.41300
O 	O 	0.69040 0.49601 0.90268 -0.41100
O 	O 	0.74548 0.43563 0.82040 -0.35100
O 	O 	0.69138 0.30024 0.89098 -0.70600
O 	O 	0.54389 0.21728 0.92947 -0.38300
O 	O 	0.82022 0.33212 0.84865 -0.34900
O 	O 	0.73950 0.19613 0.85168 -0.39500
Ni	Ni	0.69212 0.18783 0.89135 1.07600
H 	H 	0.57391 0.34462 0.84560 0.17600
H 	H 	0.72587 0.33065 0.90693 0.15500
C 	C 	0.76345 0.49133 0.90207 0.27000
O 	O 	0.57902 0.10756 0.87846 -0.37400
C 	C 	0.48533 0.40111 0.90806 0.27200
C 	C 	0.73950 0.50932 0.82074 0.29500
C 	C 	0.51473 0.12722 0.87283 0.31300
C 	C 	0.81034 0.25320 0.84635 0.28400
C 	C 	0.58420 0.17128 0.93951 0.28600
O 	O 	0.79008 0.46728 0.87912 -0.34900
O 	O 	0.72223 0.54007 0.84417 -0.39000
Ni	Ni	0.61769 0.37510 0.65071 1.10200
O 	O 	0.69700 0.39953 0.61811 -0.69800
Ni	Ni	0.76891 0.33657 0.62884 1.09800
O 	O 	0.55887 0.44914 0.63506 -0.34800
O 	O 	0.67650 0.55695 0.62953 -0.38800
O 	O 	0.54093 0.28321 0.62549 -0.37700
Ni	Ni	0.76633 0.51590 0.61543 1.07000
O 	O 	0.57677 0.24760 0.70397 -0.39000
O 	O 	0.80591 0.51948 0.65572 -0.39700
O 	O 	0.83638 0.35980 0.59376 -0.36900
O 	O 	0.69788 0.32211 0.66329 -0.69800
O 	O 	0.53400 0.34242 0.68187 -0.35400
O 	O 	0.82102 0.25207 0.64031 -0.34800
O 	O 	0.69782 0.15399 0.64876 -0.41600
Ni	Ni	0.63969 0.20869 0.67553 1.07600
H 	H 	0.66890 0.37840 0.60000 0.15100
H 	H 	0.73035 0.35471 0.67931 0.17700
C 	C 	0.86373 0.49159 0.66213 0.31000
O 	O 	0.54107 0.17049 0.64902 -0.38600
C 	C 	0.60026 0.51718 0.62218 0.27900
C 	C 	0.86564 0.43574 0.58418 0.26700
C 	C 	0.53909 0.20685 0.62537 0.26700
C 	C 	0.77738 0.17783 0.64882 0.29000
C 	C 	0.51818 0.27440 0.69647 0.30900
O 	O 	0.86607 0.42416 0.64977 -0.35400
O 	O 	0.86750 0.49941 0.60018 -0.40300
Ni	Ni	0.03236 0.90475 0.72396 1.10800
O 	O 	0.07110 0.83292 0.69792 -0.34600
O 	O 	0.92910 0.80368 0.73142 -0.36000
O 	O 	0.86397 0.91962 0.71865 -0.38300
O 	O 	0.97242 0.93240 0.69109 -0.34800
O 	O 	0.93125 0.00609 0.79880 -0.38800
Ni	Ni	0.90805 0.96398 0.75765 1.07100
O 	O 	0.89373 0.84992 0.77221 -0.40300
C 	C 	0.89459 0.78904 0.75585 0.30500
C 	C 	0.90556 0.94761 0.69593 0.29200
Ni	Ni	0.94834 0.12053 0.22810 1.10400
O 	O 	0.88924 0.14026 0.26275 -0.70000
Ni	Ni	0.87591 0.03481 0.28262 1.10000
O 	O 	0.91664 0.19789 0.20247 -0.35500
O 	O 	0.82618 0.23915 0.22614 -0.37400
Ni	Ni	0.78041 0.13982 0.25330 1.07400
O 	O 	0.77192 0.04736 0.22518 -0.39900
O 	O 	0.79903 0.04495 0.31250 -0.37700
O 	O 	0.94942 0.02665 0.25144 -0.71300
O 	O 	0.88954 0.93534 0.30222 -0.33300
O 	O 	0.02770 0.99890 0.30313 -0.38500
H 	H 	0.92058 0.18929 0.27434 0.15600
H 	H 	0.92726 0.97353 0.24084 0.17700
C 	C 	0.75612 0.97067 0.23359 0.28200
C 	C 	0.89478 0.25705 0.21265 0.30800
C 	C 	0.72556 0.04194 0.30557 0.30200
C 	C 	0.96255 0.93277 0.30692 0.27500
O 	O 	0.77884 0.95607 0.25901 -0.35200
O 	O 	0.70742 0.05330 0.27949 -0.40000
C 	C 	0.01173 0.38903 0.21655 -0.00800
H 	H 	0.02877 0.36934 0.23618 0.06200
O 	O 	0.16715 0.58299 0.21984 -0.10100
C 	C 	0.61457 0.85012 0.17539 -0.02200
C 	C 	0.54995 0.79846 0.19089 -0.07500
C 	C 	0.56057 0.79178 0.21981 0.10600
C 	C 	0.63180 0.84390 0.23338 -0.03100
C 	C 	0.69289 0.90245 0.21831 -0.06100
C 	C 	0.68636 0.90187 0.18893 0.09300
N 	N 	0.75219 0.95385 0.17283 -0.01800
H 	H 	0.60770 0.85288 0.15294 0.07100
H 	H 	0.63769 0.84168 0.25585 0.08900
N 	N 	0.49802 0.73373 0.23561 -0.02000
O 	O 	0.82513 0.95287 0.17678 -0.11300
O 	O 	0.73854 0.99926 0.15336 -0.09100
O 	O 	0.46729 0.65645 0.22755 -0.08400
O 	O 	0.47472 0.75725 0.25878 -0.09900
C 	C 	0.57788 0.87964 0.34993 -0.02700
C 	C 	0.51819 0.91438 0.35431 -0.07400
C 	C 	0.52969 0.99407 0.34423 0.10100
C 	C 	0.59890 0.03621 0.32892 -0.02700
C 	C 	0.65824 0.00107 0.32437 -0.07500
C 	C 	0.64776 0.92249 0.33519 0.10300
N 	N 	0.70714 0.88516 0.33072 -0.02100
H 	H 	0.56987 0.81890 0.35789 0.06100
H 	H 	0.60674 0.09666 0.32074 0.05600
N 	N 	0.47292 0.03365 0.35036 -0.02100
O 	O 	0.76179 0.89082 0.35002 -0.08800
O 	O 	0.70082 0.83776 0.30889 -0.08500
O 	O 	0.02226 0.50199 0.30090 -0.08700
H 	H 	0.97207 0.92091 0.36295 0.07400
O 	O 	0.04909 0.78824 0.41008 -0.12200
C 	C 	0.44844 0.02029 0.52376 -0.00300
C 	C 	0.46868 0.06497 0.54926 -0.01000
C 	C 	0.43987 0.12986 0.55468 0.02200
C 	C 	0.51794 0.04485 0.56930 0.02800
C 	C 	0.54694 0.98059 0.56367 -0.04500
C 	C 	0.52729 0.93661 0.53828 -0.03500
C 	C 	0.47802 0.95604 0.51827 0.01600
C 	C 	0.45752 0.91152 0.49297 -0.02300
C 	C 	0.46142 0.17508 0.57993 -0.02700
C 	C 	0.51123 0.15555 0.59982 -0.05200
C 	C 	0.53835 0.08976 0.59458 -0.03500
H 	H 	0.58493 0.96479 0.57891 0.04900
H 	H 	0.55017 0.88718 0.53424 0.04300
H 	H 	0.48122 0.86278 0.48864 0.05400
H 	H 	0.43977 0.22538 0.58409 0.05400
H 	H 	0.57669 0.07478 0.60992 0.05200
C 	C 	0.89772 0.38953 0.48414 -0.03300
C 	C 	0.94411 0.40858 0.46005 -0.05200
C 	C 	0.01010 0.48756 0.51115 0.00200
C 	C 	0.93028 0.42873 0.50976 0.01100
C 	C 	0.04302 0.52782 0.53673 0.03200
C 	C 	0.88387 0.41035 0.53396 -0.02900
C 	C 	0.91613 0.45148 0.55931 -0.04900
C 	C 	0.99571 0.50984 0.56068 -0.04000
H 	H 	0.83641 0.34439 0.48284 0.04300
H 	H 	0.91806 0.37785 0.44045 0.05100
H 	H 	0.82234 0.36541 0.53300 0.03800
H 	H 	0.02065 0.54098 0.58037 0.06700
C 	C 	0.60863 0.72491 0.51831 -0.04000
C 	C 	0.61997 0.71088 0.54646 -0.04300
C 	C 	0.58596 0.63088 0.55709 0.01900
C 	C 	0.53924 0.56466 0.53935 -0.01000
C 	C 	0.45835 0.41858 0.53209 -0.04100
C 	C 	0.50523 0.48408 0.54985 0.01700
C 	C 	0.52041 0.46961 0.57776 -0.03200
C 	C 	0.56991 0.53502 0.59513 -0.06900
C 	C 	0.60003 0.61590 0.58500 -0.03400
H 	H 	0.65569 0.76221 0.55994 0.04700
H 	H 	0.43210 0.35642 0.53996 0.04100
H 	H 	0.49691 0.40712 0.58558 0.05100
H 	H 	0.63696 0.66650 0.59858 0.05600
C 	C 	0.77707 0.03390 0.65186 -0.02600
C 	C 	0.81751 0.11915 0.65685 -0.08300
C 	C 	0.89359 0.14710 0.67117 0.09700
C 	C 	0.92665 0.08969 0.68097 -0.03800
C 	C 	0.88281 0.00459 0.67810 -0.07300
C 	C 	0.80902 0.97650 0.66260 0.09000
N 	N 	0.76562 0.88964 0.65815 -0.02000
H 	H 	0.72007 0.01203 0.64005 0.06300
H 	H 	0.98361 0.11139 0.69282 0.05300
N 	N 	0.93455 0.23315 0.67762 -0.02300
O 	O 	0.68810 0.85820 0.66275 -0.09600
O 	O 	0.80272 0.84274 0.64818 -0.08800
O 	O 	0.90573 0.26958 0.69636 -0.10300
O 	O 	0.00467 0.27284 0.66683 -0.07500
C 	C 	0.99910 0.63714 0.71627 -0.03300
C 	C 	0.05747 0.69048 0.69904 -0.06700
C 	C 	0.06271 0.66632 0.67120 0.10300
C 	C 	0.00303 0.59464 0.66001 -0.01600
C 	C 	0.93747 0.54824 0.67622 -0.07900
C 	C 	0.93765 0.56724 0.70486 0.11000
N 	N 	0.87456 0.51702 0.72227 -0.02600
H 	H 	0.99764 0.65346 0.73806 0.05500
H 	H 	0.00495 0.57795 0.63823 0.07000
O 	O 	0.89263 0.47958 0.74332 -0.07700
O 	O 	0.80082 0.51628 0.71901 -0.09600
C 	C 	0.95762 0.43455 0.96609 -0.03700
C 	C 	0.93750 0.54688 0.00554 -0.00800
C 	C 	0.89866 0.53719 0.97915 -0.00500
C 	C 	0.90863 0.48069 0.95937 0.01700
C 	C 	0.84907 0.58330 0.97263 0.01800
C 	C 	0.83986 0.63982 0.99237 -0.03600
C 	C 	0.87907 0.65001 0.01851 -0.04100
C 	C 	0.92781 0.60365 0.02527 0.02500
C 	C 	0.86794 0.46956 0.93340 -0.02800
C 	C 	0.81573 0.51276 0.92736 -0.05500
C 	C 	0.80799 0.57102 0.94672 -0.02300
H 	H 	0.96565 0.39100 0.95103 0.04100
H 	H 	0.80205 0.67568 0.98752 0.04500
H 	H 	0.87138 0.69388 0.03352 0.05300
H 	H 	0.87445 0.42516 0.91833 0.04000
H 	H 	0.76890 0.60555 0.94179 0.04900
C 	C 	0.50664 0.02179 0.01126 0.00600
C 	C 	0.53877 0.87440 0.01559 -0.04400
C 	C 	0.55775 0.92026 0.99123 -0.03400
C 	C 	0.54222 0.99414 0.98895 0.01000
C 	C 	0.56346 0.04153 0.96491 -0.01600
C 	C 	0.55097 0.11708 0.96313 -0.05900
C 	C 	0.51337 0.14360 0.98500 -0.01800
H 	H 	0.55187 0.81793 0.01712 0.04300
H 	H 	0.58512 0.89857 0.97420 0.04200
H 	H 	0.59136 0.02068 0.94780 0.04200
H 	H 	0.50365 0.20195 0.98358 0.04500
C 	C 	0.41208 0.44798 0.98943 -0.00900
C 	C 	0.44069 0.51325 0.97048 0.02000
C 	C 	0.45114 0.59438 0.97914 -0.04100
C 	C 	0.43460 0.61082 0.00656 -0.04100
C 	C 	0.40762 0.54641 0.02570 0.01600
C 	C 	0.42110 0.35067 0.95373 -0.03100
C 	C 	0.45256 0.41608 0.93503 -0.05400
C 	C 	0.46038 0.49699 0.94332 -0.02700
H 	H 	0.47264 0.64490 0.96470 0.04300
H 	H 	0.44303 0.67373 0.01293 0.04000
H 	H 	0.40184 0.62581 0.06004 0.04300
H 	H 	0.41419 0.28806 0.94739 0.05700
H 	H 	0.48379 0.54747 0.92895 0.04900
C 	C 	0.90082 0.17556 0.85715 -0.02600
C 	C 	0.87921 0.22811 0.83923 -0.07900
C 	C 	0.91446 0.24485 0.81280 0.10400
C 	C 	0.96432 0.20252 0.80360 -0.03800
C 	C 	0.97643 0.14128 0.82006 -0.06800
C 	C 	0.94883 0.13161 0.84766 0.09800
N 	N 	0.96410 0.07237 0.86535 -0.02500
H 	H 	0.87641 0.16511 0.87794 0.03400
H 	H 	0.98716 0.21165 0.78257 0.05500
N 	N 	0.89434 0.29933 0.79435 -0.02300
O 	O 	0.03788 0.07394 0.86922 -0.06400
O 	O 	0.90468 0.01905 0.87849 -0.10300
O 	O 	0.92288 0.37866 0.79939 -0.06400
O 	O 	0.85352 0.27041 0.77129 -0.09700
N 	N 	0.50462 0.98033 0.83977 -0.02000
O 	O 	0.52912 0.93539 0.85669 -0.10300
O 	O 	0.54107 0.00317 0.81629 -0.09500
C 	C 	0.90472 0.67344 0.78341 -0.02200
C 	C 	0.85860 0.70380 0.76553 -0.08000
C 	C 	0.77423 0.66058 0.76240 0.11000
C 	C 	0.73590 0.59294 0.77943 -0.02900
C 	C 	0.78140 0.56773 0.79920 -0.06200
C 	C 	0.86668 0.60634 0.80044 0.10700
N 	N 	0.91442 0.58126 0.82034 -0.02000
H 	H 	0.96971 0.70556 0.78559 0.03600
H 	H 	0.67053 0.56172 0.77784 0.06200
N 	N 	0.72697 0.68690 0.74261 -0.02400
O 	O 	0.97148 0.55607 0.81177 -0.08300
O 	O 	0.91036 0.59700 0.84675 -0.08300
O 	O 	0.74874 0.69775 0.71674 -0.06800
O 	O 	0.66002 0.69605 0.75014 -0.09700
