data_crystal

_cell_length_a 26.76092
_cell_length_b 26.52086
_cell_length_c 20.21522
_cell_angle_alpha 89.99121
_cell_angle_beta  89.99212
_cell_angle_gamma 90.12760

_symmetry_space_group_name_	'P 1'
_symmetry_space_group_name_H-M	'P 1'

loop_
_symmetry_equiv_pos_as_xyz
  x,y,z

loop_
_atom_site_label
_atom_site_type_symbol
_atom_site_fract_x
_atom_site_fract_y
_atom_site_fract_z
_atom_site_charge
C 	C 	0.72663 0.95826 0.29918 0.28200
C 	C 	0.70717 0.81528 0.53006 0.30800
C 	C 	0.78803 0.95974 0.46216 0.30400
C 	C 	0.63748 0.81473 0.37319 0.28800
C 	C 	0.85295 0.81489 0.43390 0.31000
C 	C 	0.78909 0.79324 0.26645 0.28800
Ni	Ni	0.69870 0.89956 0.42898 1.11200
Ni	Ni	0.74767 0.78996 0.40125 1.12100
Ni	Ni	0.80303 0.88828 0.34977 1.12100
O 	O 	0.70569 0.95934 0.35958 -0.36200
O 	O 	0.76053 0.92407 0.28225 -0.38000
O 	O 	0.82272 0.78034 0.40915 -0.38100
O 	O 	0.67797 0.85114 0.50707 -0.36800
O 	O 	0.74829 0.80401 0.49902 -0.38800
O 	O 	0.82017 0.82935 0.28794 -0.37600
O 	O 	0.75514 0.92876 0.48747 -0.37900
O 	O 	0.80078 0.95520 0.39957 -0.37600
O 	O 	0.75336 0.77418 0.30468 -0.38700
O 	O 	0.64234 0.86443 0.37696 -0.37200
O 	O 	0.67058 0.78317 0.40080 -0.37300
O 	O 	0.84415 0.86286 0.42483 -0.39100
O 	O 	0.74233 0.85908 0.37936 -0.72000
H 	H 	0.72422 0.85632 0.33706 0.16400
C 	C 	0.76595 0.53917 0.79730 0.29000
C 	C 	0.79125 0.68026 0.02801 0.29800
C 	C 	0.71552 0.53604 0.96496 0.32400
C 	C 	0.85823 0.68542 0.86724 0.29000
C 	C 	0.64380 0.68292 0.93827 0.30800
C 	C 	0.70265 0.70320 0.76894 0.28700
Ni	Ni	0.80029 0.59906 0.92346 1.11600
Ni	Ni	0.74826 0.70760 0.90095 1.12100
Ni	Ni	0.69161 0.60843 0.85461 1.12000
O 	O 	0.79088 0.53922 0.85485 -0.36300
O 	O 	0.73030 0.57225 0.78369 -0.38200
O 	O 	0.67341 0.71723 0.91180 -0.37900
O 	O 	0.82222 0.64813 0.00006 -0.37000
O 	O 	0.74973 0.69237 0.99841 -0.37900
O 	O 	0.67240 0.66692 0.79249 -0.37500
O 	O 	0.74833 0.56829 0.98688 -0.37600
O 	O 	0.69583 0.54155 0.90559 -0.37700
O 	O 	0.73958 0.72264 0.80475 -0.38300
O 	O 	0.85275 0.63581 0.86664 -0.37200
O 	O 	0.82521 0.71586 0.89714 -0.37100
O 	O 	0.65382 0.63498 0.93199 -0.38900
O 	O 	0.75334 0.63843 0.87836 -0.72000
H 	H 	0.76917 0.64116 0.83447 0.16500
C 	C 	0.19180 0.66803 0.67449 0.28500
C 	C 	0.03832 0.80159 0.57194 0.30700
C 	C 	0.18783 0.73877 0.51130 0.30700
C 	C 	0.03776 0.74266 0.73378 0.28900
C 	C 	0.17455 0.88364 0.61189 0.30900
C 	C 	0.19537 0.81806 0.77830 0.28800
Ni	Ni	0.10483 0.71871 0.60995 1.11300
Ni	Ni	0.10320 0.82509 0.68939 1.12200
Ni	Ni	0.20689 0.77908 0.64325 1.12100
O 	O 	0.14299 0.66520 0.66402 -0.37200
O 	O 	0.22001 0.70251 0.64382 -0.37200
O 	O 	0.12764 0.87067 0.61844 -0.39400
O 	O 	0.07401 0.77292 0.54971 -0.37800
O 	O 	0.03957 0.81806 0.63344 -0.37500
O 	O 	0.21844 0.78469 0.74031 -0.38700
O 	O 	0.15749 0.70396 0.53497 -0.36700
O 	O 	0.19618 0.77984 0.54502 -0.39000
O 	O 	0.15734 0.84623 0.75614 -0.37600
O 	O 	0.04213 0.72014 0.67454 -0.36500
O 	O 	0.06855 0.77885 0.75362 -0.38400
O 	O 	0.21052 0.85543 0.63691 -0.38300
O 	O 	0.13847 0.76705 0.66122 -0.71900
H 	H 	0.14113 0.74911 0.70376 0.16100
C 	C 	0.31555 0.85950 0.16946 0.28200
C 	C 	0.45601 0.71293 0.06819 0.31200
C 	C 	0.31560 0.79656 0.00315 0.30100
C 	C 	0.45908 0.77013 0.23103 0.29100
C 	C 	0.31096 0.64406 0.10531 0.31100
C 	C 	0.29370 0.71626 0.26650 0.28500
Ni	Ni	0.39829 0.80253 0.10506 1.11300
Ni	Ni	0.38589 0.69614 0.18209 1.12000
Ni	Ni	0.28886 0.75247 0.12944 1.12000
O 	O 	0.36420 0.85983 0.15674 -0.36600
O 	O 	0.28411 0.83007 0.13519 -0.37300
O 	O 	0.35783 0.65702 0.10695 -0.39600
O 	O 	0.42459 0.74589 0.04487 -0.38100
O 	O 	0.45126 0.69626 0.12927 -0.37800
O 	O 	0.26939 0.74508 0.22376 -0.38600
O 	O 	0.35014 0.82576 0.02908 -0.36600
O 	O 	0.30406 0.75414 0.03198 -0.38700
O 	O 	0.32793 0.68245 0.24693 -0.37600
O 	O 	0.45866 0.79373 0.17233 -0.36700
O 	O 	0.42394 0.73753 0.24871 -0.38400
O 	O 	0.27607 0.67714 0.12037 -0.38200
O 	O 	0.35757 0.75777 0.15372 -0.71500
H 	H 	0.35506 0.77517 0.19665 0.15900
C 	C 	0.20909 0.06434 0.46086 0.28800
C 	C 	0.21202 0.19940 0.22073 0.30900
C 	C 	0.26995 0.04386 0.30234 0.31000
C 	C 	0.14631 0.21427 0.38140 0.28400
C 	C 	0.35681 0.17896 0.31707 0.30900
C 	C 	0.29634 0.21648 0.48417 0.29000
Ni	Ni	0.19244 0.12007 0.32612 1.11400
Ni	Ni	0.25735 0.22215 0.34815 1.12100
Ni	Ni	0.29650 0.11834 0.40749 1.12200
O 	O 	0.19016 0.06326 0.39946 -0.36200
O 	O 	0.24759 0.09383 0.47634 -0.38300
O 	O 	0.33282 0.21878 0.33993 -0.38000
O 	O 	0.17917 0.16715 0.24438 -0.36900
O 	O 	0.25462 0.20613 0.25081 -0.38800
O 	O 	0.32254 0.17650 0.46432 -0.37800
O 	O 	0.24419 0.07905 0.27261 -0.37400
O 	O 	0.28412 0.05006 0.36411 -0.37900
O 	O 	0.26615 0.24112 0.44336 -0.38600
O 	O 	0.14079 0.16488 0.37369 -0.37000
O 	O 	0.18219 0.24006 0.34980 -0.37200
O 	O 	0.34175 0.13326 0.33156 -0.38900
O 	O 	0.24160 0.15541 0.37360 -0.71900
H 	H 	0.22377 0.16273 0.41511 0.16100
C 	C 	0.27542 0.46426 0.95771 0.30100
C 	C 	0.29729 0.33174 0.71809 0.30900
C 	C 	0.22875 0.47693 0.79154 0.30400
C 	C 	0.35754 0.31356 0.88232 0.28800
C 	C 	0.14876 0.33630 0.79872 0.31100
C 	C 	0.20505 0.30345 0.97354 0.29400
Ni	Ni	0.30920 0.40695 0.82935 1.11400
Ni	Ni	0.24864 0.30144 0.83981 1.12000
Ni	Ni	0.19856 0.40122 0.89563 1.12200
O 	O 	0.30318 0.46408 0.90242 -0.36500
O 	O 	0.24006 0.43040 0.96907 -0.38300
O 	O 	0.17394 0.29906 0.82596 -0.38700
O 	O 	0.32957 0.36078 0.74915 -0.36500
O 	O 	0.25380 0.32299 0.74465 -0.39000
O 	O 	0.17591 0.34113 0.95235 -0.37200
O 	O 	0.25988 0.44366 0.76808 -0.38000
O 	O 	0.20785 0.46993 0.85007 -0.37600
O 	O 	0.23698 0.28024 0.93358 -0.38200
O 	O 	0.35849 0.36356 0.88314 -0.37100
O 	O 	0.32447 0.28795 0.84567 -0.37300
O 	O 	0.15559 0.38281 0.81862 -0.38800
O 	O 	0.25831 0.36854 0.86899 -0.71900
H 	H 	0.27342 0.36199 0.91259 0.16200
C 	C 	0.82763 0.15159 0.58586 0.28200
C 	C 	0.96039 0.31264 0.66720 0.30900
C 	C 	0.81780 0.22489 0.73987 0.31200
C 	C 	0.96533 0.24901 0.51602 0.28900
C 	C 	0.80884 0.36999 0.63187 0.31200
C 	C 	0.79940 0.29078 0.47020 0.29000
Ni	Ni	0.90471 0.22058 0.64422 1.11500
Ni	Ni	0.88760 0.32135 0.55518 1.12100
Ni	Ni	0.79355 0.26031 0.60926 1.12200
O 	O 	0.87585 0.15751 0.59893 -0.37100
O 	O 	0.79293 0.18230 0.61162 -0.36700
O 	O 	0.85713 0.36478 0.62480 -0.38800
O 	O 	0.92679 0.28405 0.69471 -0.37700
O 	O 	0.95317 0.32927 0.60659 -0.37700
O 	O 	0.77691 0.26089 0.51349 -0.38200
O 	O 	0.85771 0.19943 0.72263 -0.36900
O 	O 	0.80548 0.26512 0.70705 -0.39000
O 	O 	0.82956 0.32829 0.48939 -0.37900
O 	O 	0.96471 0.22780 0.57632 -0.36500
O 	O 	0.92831 0.27782 0.49419 -0.38200
O 	O 	0.77760 0.33503 0.61069 -0.38200
O 	O 	0.86279 0.25911 0.58926 -0.71500
H 	H 	0.86237 0.23848 0.54870 0.16000
C 	C 	0.67381 0.34494 0.08519 0.28600
C 	C 	0.54181 0.18361 0.17415 0.30700
C 	C 	0.68612 0.26689 0.23343 0.30900
C 	C 	0.53350 0.25116 0.01670 0.27300
C 	C 	0.68787 0.12500 0.12759 0.31100
C 	C 	0.69587 0.19648 0.96351 0.30100
Ni	Ni	0.59668 0.27571 0.14271 1.11300
Ni	Ni	0.60730 0.17387 0.05467 1.11900
Ni	Ni	0.70482 0.23362 0.09949 1.12000
O 	O 	0.62531 0.33584 0.09049 -0.37700
O 	O 	0.70831 0.31158 0.10525 -0.37300
O 	O 	0.63934 0.12902 0.12147 -0.38800
O 	O 	0.57569 0.21393 0.19769 -0.37700
O 	O 	0.54403 0.16952 0.11174 -0.37500
O 	O 	0.71317 0.23330 0.00150 -0.39600
O 	O 	0.64781 0.29543 0.21753 -0.36800
O 	O 	0.69673 0.22763 0.19755 -0.39600
O 	O 	0.66217 0.16284 0.98508 -0.37300
O 	O 	0.53419 0.26738 0.07946 -0.36800
O 	O 	0.56561 0.21707 0.99423 -0.36800
O 	O 	0.71825 0.15828 0.10021 -0.38600
O 	O 	0.63507 0.23560 0.08585 -0.71900
H 	H 	0.63397 0.25567 0.04486 0.16300
C 	C 	0.72258 0.18647 0.90158 -0.07000
C 	C 	0.70121 0.20195 0.84183 -0.02600
C 	C 	0.73135 0.21041 0.78630 0.04900
C 	C 	0.78390 0.20499 0.79150 -0.08300
C 	C 	0.80415 0.18324 0.84869 -0.01600
C 	C 	0.77356 0.17314 0.90327 0.03700
S 	S 	0.70258 0.22510 0.71033 -0.07500
S 	S 	0.79958 0.14487 0.97409 -0.03000
H 	H 	0.79339 0.09365 0.97050 0.04500
H 	H 	0.69752 0.27635 0.70490 0.03600
H 	H 	0.66151 0.20986 0.83941 0.04500
H 	H 	0.84394 0.17603 0.85173 0.04800
C 	C 	0.78216 0.28802 0.40124 -0.07300
C 	C 	0.76046 0.33051 0.37128 -0.02200
C 	C 	0.72856 0.32479 0.31638 0.03600
C 	C 	0.71516 0.27570 0.29476 -0.07800
C 	C 	0.73738 0.23384 0.32525 -0.02100
C 	C 	0.77415 0.24028 0.37313 0.03900
S 	S 	0.70778 0.37900 0.27433 -0.02500
S 	S 	0.80939 0.18787 0.39895 -0.04200
H 	H 	0.84857 0.18076 0.35642 0.03600
H 	H 	0.66294 0.39414 0.30021 0.04200
H 	H 	0.76722 0.36772 0.39160 0.05000
H 	H 	0.72742 0.19610 0.30966 0.05100
C 	C 	0.40201 0.28730 0.90695 -0.06800
C 	C 	0.44911 0.30193 0.88285 -0.01900
C 	C 	0.49253 0.28999 0.91798 0.03400
C 	C 	0.48902 0.26163 0.97661 -0.06300
C 	C 	0.44260 0.24213 0.99640 -0.01100
C 	C 	0.39897 0.25571 0.96281 0.03000
S 	S 	0.55071 0.31228 0.88938 -0.03400
S 	S 	0.34080 0.23459 0.99275 -0.02800
H 	H 	0.32809 0.19035 0.96202 0.04200
H 	H 	0.57226 0.27651 0.84971 0.04100
H 	H 	0.45166 0.32518 0.83883 0.04900
H 	H 	0.44040 0.21658 0.03806 0.03900
C 	C 	0.01119 0.31523 0.69600 -0.08400
C 	C 	0.04132 0.35711 0.68177 -0.01800
C 	C 	0.08931 0.36096 0.70841 0.03700
C 	C 	0.10576 0.32518 0.75532 -0.07400
C 	C 	0.07722 0.28162 0.76624 -0.02600
C 	C 	0.03120 0.27524 0.73450 0.05000
S 	S 	0.12974 0.40812 0.67850 -0.02400
S 	S 	0.00241 0.21541 0.73760 -0.08900
H 	H 	0.97048 0.21341 0.79055 0.04500
H 	H 	0.12400 0.45116 0.71520 0.04700
H 	H 	0.02776 0.38635 0.64890 0.04800
H 	H 	0.09072 0.25263 0.79953 0.05400
C 	C 	0.49389 0.18035 0.20920 -0.07800
C 	C 	0.45452 0.21177 0.18941 -0.02700
C 	C 	0.41020 0.21375 0.22587 0.04100
C 	C 	0.40550 0.18504 0.28423 -0.07700
C 	C 	0.44585 0.15533 0.30561 -0.01700
C 	C 	0.48968 0.15248 0.26811 0.03700
S 	S 	0.36085 0.25176 0.19716 -0.03700
S 	S 	0.53871 0.11327 0.29491 -0.02800
H 	H 	0.53327 0.06641 0.26724 0.04100
H 	H 	0.33142 0.22439 0.15483 0.05000
H 	H 	0.45891 0.23589 0.14674 0.04900
H 	H 	0.44252 0.13331 0.35061 0.04400
C 	C 	0.10400 0.24164 0.41013 -0.06900
C 	C 	0.05874 0.24155 0.37509 -0.02200
C 	C 	0.01309 0.24260 0.40891 0.03700
C 	C 	0.01264 0.24854 0.47835 -0.07100
C 	C 	0.05798 0.25580 0.51209 -0.02000
C 	C 	0.10354 0.25206 0.47843 0.03200
S 	S 	0.95754 0.23114 0.36455 -0.03500
S 	S 	0.15978 0.25751 0.52306 -0.03700
H 	H 	0.17528 0.30678 0.52317 0.04500
H 	H 	0.94773 0.18041 0.36452 0.03500
H 	H 	0.05903 0.23487 0.32216 0.04800
H 	H 	0.05784 0.26320 0.56486 0.05300
C 	C 	0.19474 0.28019 0.03846 -0.07400
C 	C 	0.20771 0.30633 0.09616 -0.02900
C 	C 	0.21037 0.28106 0.15698 0.04700
C 	C 	0.20079 0.22861 0.16007 -0.08300
C 	C 	0.18365 0.20349 0.10338 -0.01700
C 	C 	0.18011 0.22909 0.04283 0.03000
S 	S 	0.22397 0.31587 0.22897 -0.07100
S 	S 	0.15667 0.19703 0.97312 -0.02500
H 	H 	0.10607 0.20419 0.96909 0.04100
H 	H 	0.18025 0.33185 0.25723 0.04600
H 	H 	0.21757 0.34596 0.09338 0.04600
H 	H 	0.17445 0.16370 0.10586 0.04500
C 	C 	0.31049 0.24144 0.54650 -0.06800
C 	C 	0.32844 0.29121 0.54473 -0.02300
C 	C 	0.32998 0.32031 0.60256 0.04100
C 	C 	0.31365 0.29931 0.66288 -0.08100
C 	C 	0.30273 0.24749 0.66587 -0.01500
C 	C 	0.30020 0.21870 0.60794 0.03300
S 	S 	0.35111 0.38301 0.59812 -0.03700
S 	S 	0.28127 0.15518 0.61277 -0.04200
H 	H 	0.23049 0.15219 0.60488 0.04300
H 	H 	0.31760 0.41020 0.56155 0.03600
H 	H 	0.33877 0.30809 0.49781 0.04800
H 	H 	0.29265 0.23045 0.71279 0.03200
C 	C 	0.27737 0.99400 0.27077 -0.08000
C 	C 	0.31667 0.96369 0.29344 -0.01800
C 	C 	0.32398 0.91562 0.26758 0.03700
C 	C 	0.29578 0.89944 0.21264 -0.07200
C 	C 	0.25455 0.92803 0.19218 -0.02400
C 	C 	0.24386 0.97428 0.22271 0.04000
S 	S 	0.36834 0.87573 0.30491 -0.04500
S 	S 	0.18648 0.00382 0.20494 -0.04400
H 	H 	0.15116 0.98786 0.24940 0.03100
H 	H 	0.34942 0.85629 0.36248 0.03500
H 	H 	0.34114 0.97721 0.33237 0.04700
H 	H 	0.23123 0.91477 0.15191 0.05000
C 	C 	0.29730 0.59326 0.08085 -0.08200
C 	C 	0.25086 0.58558 0.05027 -0.01800
C 	C 	0.24176 0.54145 0.01422 0.03100
C 	C 	0.28087 0.50645 0.00428 -0.07900
C 	C 	0.32567 0.51218 0.03901 -0.02300
C 	C 	0.33284 0.55371 0.08048 0.04600
S 	S 	0.18060 0.52893 0.98636 -0.04000
S 	S 	0.38321 0.55297 0.13666 -0.05800
H 	H 	0.42461 0.57365 0.10723 0.04400
H 	H 	0.16841 0.55981 0.93460 0.04000
H 	H 	0.22207 0.61414 0.05363 0.04600
H 	H 	0.35441 0.48356 0.03527 0.04400
C 	C 	0.19615 0.02252 0.50669 -0.06700
C 	C 	0.22971 0.00920 0.55750 -0.02400
C 	C 	0.22411 0.96357 0.59184 0.03500
C 	C 	0.18621 0.92929 0.57276 -0.07900
C 	C 	0.15289 0.94299 0.52219 -0.02100
C 	C 	0.15487 0.99085 0.49384 0.03300
S 	S 	0.26335 0.95130 0.65994 -0.03500
S 	S 	0.10223 0.01302 0.45033 -0.03600
H 	H 	0.06987 0.03552 0.49372 0.03900
H 	H 	0.24076 0.96779 0.71676 0.04000
H 	H 	0.26042 0.03411 0.57010 0.05000
H 	H 	0.12298 0.91753 0.50826 0.05300
C 	C 	0.22004 0.83187 0.84069 -0.06600
C 	C 	0.27040 0.84680 0.83838 -0.02300
C 	C 	0.30212 0.83759 0.89214 0.04200
C 	C 	0.28250 0.81615 0.95054 -0.07500
C 	C 	0.23058 0.80884 0.95609 -0.00400
C 	C 	0.19936 0.81646 0.90138 0.02800
S 	S 	0.36657 0.84951 0.88355 -0.03200
S 	S 	0.13485 0.80463 0.90873 -0.03500
H 	H 	0.12479 0.75567 0.89168 0.03900
H 	H 	0.37686 0.89755 0.90452 0.04200
H 	H 	0.28596 0.86095 0.79242 0.04700
H 	H 	0.21480 0.79514 0.00213 0.02300
C 	C 	0.21411 0.73148 0.44717 -0.07800
C 	C 	0.22791 0.68279 0.42633 -0.02200
C 	C 	0.25810 0.67626 0.36980 0.03600
C 	C 	0.27756 0.71894 0.33642 -0.07000
C 	C 	0.26730 0.76705 0.36158 -0.02600
C 	C 	0.23172 0.77363 0.41118 0.03900
S 	S 	0.27039 0.61482 0.34130 -0.03200
S 	S 	0.20441 0.83369 0.42078 -0.02300
H 	H 	0.23288 0.86201 0.46320 0.04400
H 	H 	0.23524 0.60153 0.29517 0.04200
H 	H 	0.21513 0.65006 0.45369 0.05000
H 	H 	0.28138 0.79991 0.33565 0.04400
C 	C 	0.22652 0.52744 0.76014 -0.07900
C 	C 	0.22582 0.57065 0.80032 -0.01900
C 	C 	0.21972 0.61852 0.77224 0.03100
C 	C 	0.21596 0.62363 0.70311 -0.06800
C 	C 	0.22289 0.58139 0.66275 -0.02200
C 	C 	0.22745 0.53332 0.69046 0.03600
S 	S 	0.21572 0.67165 0.82415 -0.03100
S 	S 	0.23517 0.48155 0.63710 -0.02900
H 	H 	0.28503 0.47791 0.62316 0.03900
H 	H 	0.16657 0.68046 0.83898 0.03500
H 	H 	0.23054 0.56710 0.85328 0.05000
H 	H 	0.22144 0.58553 0.60940 0.04700
C 	C 	0.59486 0.69742 0.96532 -0.06500
C 	C 	0.55200 0.67208 0.94253 -0.02500
C 	C 	0.50686 0.67554 0.97710 0.05000
C 	C 	0.50377 0.70615 0.03369 -0.09200
C 	C 	0.54554 0.73437 0.05378 -0.01700
C 	C 	0.59132 0.72930 0.02093 0.02800
S 	S 	0.45489 0.64023 0.95011 -0.03000
S 	S 	0.64415 0.76149 0.05151 -0.04200
H 	H 	0.66872 0.73149 0.09606 0.04800
H 	H 	0.42662 0.66906 0.90819 0.04800
H 	H 	0.55442 0.64790 0.89939 0.04200
H 	H 	0.54246 0.76010 0.09522 0.04700
C 	C 	0.90649 0.70633 0.84490 -0.07000
C 	C 	0.90710 0.74948 0.80503 -0.02400
C 	C 	0.95083 0.76364 0.77183 0.03600
C 	C 	0.99330 0.73202 0.77430 -0.07100
C 	C 	0.99383 0.69109 0.81788 -0.02500
C 	C 	0.95148 0.67960 0.85562 0.04200
S 	S 	0.95294 0.82251 0.73192 -0.03500
S 	S 	0.95656 0.63522 0.92013 -0.03800
H 	H 	0.96961 0.65953 0.97741 0.04200
H 	H 	0.97041 0.85821 0.77513 0.03600
H 	H 	0.87341 0.77166 0.79908 0.04700
H 	H 	0.02755 0.66893 0.82367 0.04300
C 	C 	0.78970 0.41532 0.66526 -0.07900
C 	C 	0.75698 0.40979 0.71883 -0.01500
C 	C 	0.74786 0.45033 0.76140 0.03200
C 	C 	0.77304 0.49665 0.75157 -0.06800
C 	C 	0.80288 0.50323 0.69536 -0.02600
C 	C 	0.81032 0.46325 0.65128 0.04500
S 	S 	0.70366 0.44298 0.82507 -0.02400
S 	S 	0.84333 0.47426 0.57726 -0.04600
H 	H 	0.89324 0.46590 0.58756 0.03900
H 	H 	0.65764 0.45787 0.80285 0.03900
H 	H 	0.73989 0.37344 0.72872 0.04700
H 	H 	0.82001 0.53957 0.68562 0.04600
C 	C 	0.68972 0.39628 0.06558 -0.06100
C 	C 	0.73306 0.40258 0.02756 -0.04500
C 	C 	0.74357 0.44913 0.99794 0.07000
C 	C 	0.70804 0.48849 0.00125 -0.10500
C 	C 	0.66647 0.48329 0.04259 -0.00900
C 	C 	0.65882 0.43858 0.07795 0.03300
S 	S 	0.80264 0.45867 0.96183 -0.05700
S 	S 	0.61499 0.43823 0.14302 -0.03900
H 	H 	0.56893 0.42503 0.11891 0.03800
H 	H 	0.80368 0.43818 0.89967 0.05400
H 	H 	0.75843 0.37122 0.02056 0.05200
H 	H 	0.64111 0.51472 0.04927 0.04200
C 	C 	0.50309 0.77585 0.27416 -0.07100
C 	C 	0.50181 0.81080 0.32594 -0.02500
C 	C 	0.54415 0.81879 0.36514 0.04100
C 	C 	0.58954 0.79454 0.34903 -0.07100
C 	C 	0.58954 0.75634 0.30129 -0.02500
C 	C 	0.54602 0.74554 0.26552 0.03500
S 	S 	0.53903 0.85621 0.43680 -0.03900
S 	S 	0.54450 0.69147 0.21537 -0.03100
H 	H 	0.52732 0.65136 0.25161 0.03600
H 	H 	0.52677 0.82617 0.48953 0.04000
H 	H 	0.46773 0.83122 0.33640 0.04500
H 	H 	0.62358 0.73566 0.29106 0.04600
C 	C 	0.90130 0.80035 0.46246 -0.07800
C 	C 	0.94495 0.82024 0.43397 -0.01800
C 	C 	0.98936 0.82276 0.47029 0.03600
C 	C 	0.99099 0.80314 0.53500 -0.07800
C 	C 	0.94863 0.77902 0.56119 -0.02300
C 	C 	0.90370 0.77803 0.52565 0.04000
S 	S 	0.04185 0.85284 0.43538 -0.03000
S 	S 	0.85068 0.74944 0.56126 -0.03200
H 	H 	0.82520 0.78425 0.59821 0.05100
H 	H 	0.03937 0.90348 0.44825 0.03500
H 	H 	0.94342 0.83687 0.38499 0.04100
H 	H 	0.95080 0.76041 0.60881 0.05300
C 	C 	0.80181 0.76567 0.20516 -0.06800
C 	C 	0.80829 0.71311 0.20772 -0.02300
C 	C 	0.81004 0.68457 0.14935 0.03800
C 	C 	0.80619 0.70879 0.08753 -0.07800
C 	C 	0.80518 0.76176 0.08505 -0.02000
C 	C 	0.80201 0.79023 0.14333 0.03200
S 	S 	0.81448 0.61846 0.15453 -0.03400
S 	S 	0.79470 0.85608 0.13785 -0.04100
H 	H 	0.74481 0.86759 0.13661 0.03900
H 	H 	0.86378 0.60469 0.15262 0.03800
H 	H 	0.80980 0.69418 0.25523 0.04800
H 	H 	0.80328 0.78065 0.03754 0.03400
C 	C 	0.69200 0.78488 0.58825 -0.08200
C 	C 	0.68049 0.80909 0.64796 -0.01800
C 	C 	0.67843 0.78152 0.70720 0.03600
C 	C 	0.68897 0.72932 0.70701 -0.06600
C 	C 	0.69496 0.70435 0.64654 -0.03000
C 	C 	0.69597 0.73165 0.58715 0.04800
S 	S 	0.66232 0.81260 0.78113 -0.03600
S 	S 	0.70124 0.69870 0.51187 -0.07300
H 	H 	0.65444 0.68844 0.48783 0.04700
H 	H 	0.61176 0.80903 0.79082 0.04300
H 	H 	0.67529 0.84961 0.64889 0.04500
H 	H 	0.70106 0.66394 0.64585 0.04800
C 	C 	0.81275 0.10500 0.55053 -0.06700
C 	C 	0.84575 0.08612 0.50245 -0.02700
C 	C 	0.84179 0.03649 0.48014 0.04300
C 	C 	0.79973 0.00728 0.49762 -0.07600
C 	C 	0.76558 0.02642 0.54423 -0.02200
C 	C 	0.77270 0.07423 0.57240 0.03500
S 	S 	0.89218 0.01004 0.43607 -0.03600
S 	S 	0.73247 0.09358 0.63653 -0.02600
H 	H 	0.75336 0.08179 0.69644 0.04400
H 	H 	0.92468 0.98790 0.47960 0.03800
H 	H 	0.87697 0.10908 0.48604 0.04900
H 	H 	0.73342 0.00411 0.55876 0.04500
C 	C 	0.71870 0.00131 0.25405 -0.05900
C 	C 	0.70095 0.99226 0.18986 -0.03500
C 	C 	0.69577 0.03209 0.14481 0.04800
C 	C 	0.70817 0.08168 0.16408 -0.08200
C 	C 	0.72995 0.08996 0.22600 -0.01600
C 	C 	0.73424 0.05052 0.27166 0.03100
S 	S 	0.67490 0.01932 0.06393 -0.04700
S 	S 	0.75914 0.06347 0.35031 -0.02100
H 	H 	0.72143 0.07613 0.39298 0.04300
H 	H 	0.62389 0.02326 0.06171 0.03700
H 	H 	0.69118 0.95422 0.17494 0.04600
H 	H 	0.74149 0.12764 0.23984 0.04400
