data_crystal

_cell_length_a 26.10249
_cell_length_b 26.34596
_cell_length_c 28.54559
_cell_angle_alpha 95.51183
_cell_angle_beta  95.50417
_cell_angle_gamma 125.79528

_symmetry_space_group_name_	'P 1'
_symmetry_space_group_name_H-M	'P 1'

loop_
_symmetry_equiv_pos_as_xyz
  x,y,z

loop_
_atom_site_label
_atom_site_type_symbol
_atom_site_fract_x
_atom_site_fract_y
_atom_site_fract_z
_atom_site_charge
C 	C 	0.96460 0.02442 0.99036 0.13300
N 	N 	0.92937 0.96014 0.98581 -0.12200
C 	C 	0.95768 0.93078 0.97978 0.14900
N 	N 	0.02122 0.96570 0.97798 -0.10700
C 	C 	0.05657 0.02991 0.98238 0.14800
N 	N 	0.02837 0.05939 0.98884 -0.11200
C 	C 	0.94454 0.00509 0.45355 0.12800
N 	N 	0.00973 0.04157 0.46104 -0.12200
C 	C 	0.04049 0.01498 0.46919 0.14500
N 	N 	0.00582 0.95162 0.46946 -0.10500
C 	C 	0.94070 0.91509 0.46238 0.15000
N 	N 	0.90994 0.94167 0.45401 -0.11100
Cu	Cu	0.63476 0.23813 0.00549 0.93300
Cu	Cu	0.68581 0.23159 0.90630 0.88100
Cu	Cu	0.67379 0.33393 0.93885 0.90000
Cu	Cu	0.65021 0.36547 0.03375 0.91200
C 	C 	0.65619 0.29199 0.10411 0.30500
O 	O 	0.54367 0.21076 0.00377 -0.33500
C 	C 	0.66255 0.28975 0.83679 0.30100
O 	O 	0.69392 0.33688 0.00622 -0.63500
O 	O 	0.62734 0.24057 0.93634 -0.63900
O 	O 	0.66716 0.18579 0.00561 -0.33300
O 	O 	0.74222 0.24691 0.96191 -0.42600
O 	O 	0.63157 0.32055 0.08919 -0.35200
O 	O 	0.72420 0.42542 0.94426 -0.37200
C 	C 	0.71885 0.46373 0.97315 0.30800
C 	C 	0.52408 0.24171 0.98478 0.29500
O 	O 	0.56644 0.29990 0.97793 -0.37200
O 	O 	0.69999 0.45034 0.01453 -0.35300
O 	O 	0.65643 0.25096 0.07394 -0.34100
C 	C 	0.72123 0.20607 0.99098 0.29400
O 	O 	0.66186 0.32893 0.86891 -0.36000
O 	O 	0.65160 0.23667 0.84632 -0.39900
H 	H 	0.74043 0.36209 0.01964 0.17800
H 	H 	0.58290 0.21430 0.91764 0.18600
Cu	Cu	0.73805 0.33940 0.43854 0.93200
Cu	Cu	0.74973 0.29479 0.53985 0.88100
Cu	Cu	0.64575 0.30604 0.50847 0.90100
Cu	Cu	0.61172 0.32828 0.41407 0.91200
C 	C 	0.67908 0.31471 0.34048 0.30700
O 	O 	0.76907 0.43032 0.43762 -0.34300
C 	C 	0.69534 0.32262 0.61036 0.30200
O 	O 	0.63918 0.28364 0.44095 -0.63900
O 	O 	0.73946 0.35111 0.50830 -0.63500
O 	O 	0.78863 0.30482 0.43779 -0.34100
O 	O 	0.72994 0.23503 0.48535 -0.42600
O 	O 	0.65120 0.34015 0.35568 -0.35200
O 	O 	0.55378 0.25610 0.50566 -0.36800
C 	C 	0.51189 0.25121 0.47199 0.31400
C 	C 	0.74029 0.45260 0.45657 0.30000
O 	O 	0.68325 0.41294 0.46697 -0.36900
O 	O 	0.53028 0.28787 0.43935 -0.35600
O 	O 	0.72069 0.31417 0.37019 -0.34200
C 	C 	0.76857 0.25255 0.45438 0.30900
O 	O 	0.65454 0.32204 0.57861 -0.36100
O 	O 	0.74804 0.33243 0.59967 -0.39800
H 	H 	0.61218 0.23728 0.42806 0.18300
H 	H 	0.76682 0.39582 0.52572 0.18700
C 	C 	0.68597 0.31987 0.65905 -0.07900
C 	C 	0.67883 0.31556 0.69995 0.05000
C 	C 	0.67158 0.30840 0.74780 0.04900
C 	C 	0.66663 0.30068 0.78853 -0.07800
C 	C 	0.67790 0.30445 0.28998 -0.06300
C 	C 	0.67558 0.29828 0.24725 0.05700
C 	C 	0.67107 0.29369 0.19713 0.05700
C 	C 	0.66541 0.29185 0.15446 -0.06400
C 	C 	0.87788 0.76141 0.50615 -0.05600
C 	C 	0.85014 0.71786 0.46261 0.02000
C 	C 	0.84793 0.73868 0.41924 0.07600
C 	C 	0.87386 0.80276 0.41991 -0.02900
C 	C 	0.90374 0.84672 0.46326 -0.02200
C 	C 	0.90502 0.82578 0.50670 0.10500
C 	C 	0.82214 0.65017 0.46268 0.03200
N 	N 	0.82083 0.69519 0.37436 -0.01900
H 	H 	0.87326 0.81888 0.38645 0.08000
N 	N 	0.93426 0.86987 0.55142 -0.02200
H 	H 	0.87856 0.74531 0.53960 0.08900
C 	C 	0.86194 0.63175 0.47494 0.06100
C 	C 	0.83452 0.56723 0.47401 -0.00000
C 	C 	0.76787 0.52061 0.45969 -0.08500
C 	C 	0.72824 0.53918 0.44677 0.12600
C 	C 	0.75542 0.60382 0.44963 -0.06900
N 	N 	0.93030 0.67831 0.48762 -0.01700
H 	H 	0.86526 0.55334 0.48373 0.06800
N 	N 	0.66096 0.49242 0.42827 -0.02500
H 	H 	0.72475 0.61784 0.44004 0.09300
O 	O 	0.97653 0.87213 0.58156 -0.05900
O 	O 	0.91551 0.90465 0.56337 -0.05500
O 	O 	0.77468 0.68802 0.34519 -0.07600
O 	O 	0.84535 0.66627 0.36121 -0.07300
O 	O 	0.61909 0.49012 0.45114 -0.08100
O 	O 	0.64174 0.45643 0.38638 -0.10300
O 	O 	0.96094 0.68335 0.52859 -0.08100
O 	O 	0.96235 0.71249 0.45688 -0.07300
C 	C 	0.87957 0.20590 0.44305 -0.07200
C 	C 	0.83498 0.13945 0.42963 0.03300
C 	C 	0.76875 0.11124 0.41862 0.05700
C 	C 	0.74768 0.14928 0.42444 0.00100
C 	C 	0.79209 0.21534 0.44060 -0.09400
C 	C 	0.85852 0.24396 0.44877 0.12200
C 	C 	0.85741 0.09940 0.43229 0.01600
N 	N 	0.72271 0.04381 0.40239 -0.01600
H 	H 	0.69662 0.12726 0.41720 0.06500
N 	N 	0.90466 0.31123 0.46521 -0.02300
H 	H 	0.93057 0.22781 0.45114 0.08900
C 	C 	0.89573 0.09996 0.40043 0.07700
C 	C 	0.92294 0.06783 0.40715 -0.03600
C 	C 	0.91163 0.03445 0.44501 -0.01800
C 	C 	0.87179 0.03237 0.47602 0.08600
C 	C 	0.84464 0.06450 0.46932 -0.05200
N 	N 	0.90751 0.13350 0.36143 -0.01900
H 	H 	0.95298 0.06892 0.38292 0.07500
N 	N 	0.86105 0.99999 0.51559 -0.00700
H 	H 	0.81537 0.06415 0.49398 0.08000
O 	O 	0.94661 0.34570 0.43931 -0.07300
O 	O 	0.90871 0.33696 0.50796 -0.11300
O 	O 	0.67394 0.01102 0.42353 -0.08700
O 	O 	0.72769 0.01575 0.36497 -0.07200
O 	O 	0.90870 0.02045 0.55021 -0.08200
O 	O 	0.80286 0.95343 0.51893 -0.06400
O 	O 	0.96616 0.17494 0.35560 -0.07900
O 	O 	0.85955 0.11993 0.33016 -0.06900
C 	C 	0.33117 0.13270 0.43980 -0.06900
C 	C 	0.31298 0.15091 0.47890 0.03100
C 	C 	0.36051 0.19883 0.51757 0.06200
C 	C 	0.42561 0.22875 0.51624 0.00200
C 	C 	0.44381 0.21256 0.47613 -0.08400
C 	C 	0.39630 0.16344 0.43809 0.12400
C 	C 	0.24408 0.12004 0.47888 0.02000
N 	N 	0.34288 0.21835 0.55764 -0.01700
H 	H 	0.46210 0.26654 0.54553 0.07200
N 	N 	0.41407 0.14462 0.39769 -0.02600
H 	H 	0.29465 0.09492 0.41052 0.09000
C 	C 	0.20843 0.13002 0.44588 0.07600
C 	C 	0.14211 0.09641 0.44367 -0.03000
C 	C 	0.11113 0.05406 0.47494 -0.02300
C 	C 	0.14755 0.04696 0.50984 0.10200
C 	C 	0.21347 0.07882 0.51085 -0.05700
N 	N 	0.23948 0.17415 0.41446 -0.01900
H 	H 	0.11457 0.10278 0.41725 0.08000
N 	N 	0.11814 0.00892 0.54514 -0.02800
H 	H 	0.24105 0.07203 0.53687 0.08700
O 	O 	0.38989 0.14122 0.35447 -0.07900
O 	O 	0.45107 0.12692 0.40399 -0.10200
O 	O 	0.36181 0.21611 0.60072 -0.08000
O 	O 	0.31209 0.24281 0.55146 -0.06900
O 	O 	0.12320 0.96353 0.55083 -0.05000
O 	O 	0.09006 0.02242 0.57369 -0.05900
O 	O 	0.21863 0.15559 0.36840 -0.07500
O 	O 	0.28600 0.23373 0.43204 -0.06800
C 	C 	0.75208 0.62391 0.97292 -0.07200
C 	C 	0.81322 0.65868 0.96071 0.03500
C 	C 	0.84049 0.62757 0.94787 0.05800
C 	C 	0.80806 0.56301 0.95017 0.00100
C 	C 	0.74810 0.52884 0.96445 -0.08500
C 	C 	0.71890 0.55896 0.97407 0.12600
C 	C 	0.85049 0.72846 0.96497 0.01300
N 	N 	0.90160 0.66171 0.93317 -0.01700
H 	H 	0.83023 0.53984 0.94189 0.06800
N 	N 	0.65529 0.52353 0.98452 -0.02700
H 	H 	0.73044 0.64746 0.98179 0.09200
C 	C 	0.83166 0.75481 0.93304 0.07700
C 	C 	0.86607 0.82107 0.93899 -0.02800
C 	C 	0.91979 0.86136 0.97596 -0.02900
C 	C 	0.93830 0.83497 0.00810 0.10600
C 	C 	0.90368 0.76875 0.00233 -0.04900
N 	N 	0.77800 0.71442 0.89429 -0.01900
H 	H 	0.85191 0.84126 0.91412 0.08300
N 	N 	0.99145 0.87529 0.04722 -0.02800
H 	H 	0.91763 0.74855 0.02735 0.08600
O 	O 	0.60784 0.47293 0.95445 -0.08000
O 	O 	0.64409 0.54418 0.02253 -0.06900
O 	O 	0.94755 0.66103 0.95433 -0.08500
O 	O 	0.91016 0.69053 0.89695 -0.07200
O 	O 	0.99075 0.91359 0.07905 -0.07700
O 	O 	0.03854 0.87067 0.05274 -0.05400
O 	O 	0.73105 0.71926 0.88926 -0.07600
O 	O 	0.77813 0.67591 0.86225 -0.07000
C 	C 	0.90520 0.12399 0.97454 -0.06600
C 	C 	0.86891 0.11045 0.01094 0.02600
C 	C 	0.86654 0.07088 0.04196 0.07200
C 	C 	0.89877 0.04373 0.03528 -0.02400
C 	C 	0.93390 0.05611 0.99820 -0.03100
C 	C 	0.93736 0.09678 0.96780 0.10100
C 	C 	0.82981 0.13411 0.01409 0.03500
N 	N 	0.83113 0.05788 0.08010 -0.02500
H 	H 	0.89664 0.01310 0.05907 0.07600
N 	N 	0.97144 0.10866 0.92896 -0.02800
H 	H 	0.90683 0.15414 0.95048 0.08200
C 	C 	0.85968 0.19982 0.02736 0.06000
C 	C 	0.82289 0.22255 0.02232 -0.00400
C 	C 	0.75645 0.18031 0.00453 -0.07800
C 	C 	0.72603 0.11420 0.99411 0.11300
C 	C 	0.76282 0.09149 0.99918 -0.07600
N 	N 	0.92760 0.24374 0.04497 -0.01600
H 	H 	0.84626 0.27330 0.03127 0.06700
N 	N 	0.65833 0.07024 0.97603 -0.02400
H 	H 	0.73961 0.04085 0.98942 0.08600
O 	O 	0.01815 0.16674 0.92630 -0.05700
O 	O 	0.95251 0.06205 0.89433 -0.07600
O 	O 	0.78798 0.99929 0.08424 -0.05900
O 	O 	0.84475 0.10451 0.11234 -0.06900
O 	O 	0.63476 0.06892 0.93328 -0.11500
O 	O 	0.62126 0.02752 0.00038 -0.06900
O 	O 	0.96276 0.29337 0.02557 -0.08400
O 	O 	0.95375 0.23592 0.08198 -0.07100
C 	C 	0.21477 0.12365 0.93933 -0.05300
C 	C 	0.25616 0.12853 0.97770 0.01000
C 	C 	0.23255 0.10440 0.01885 0.08600
C 	C 	0.16746 0.07389 0.02055 -0.02400
C 	C 	0.12568 0.06744 0.98169 -0.02600
C 	C 	0.14959 0.09308 0.94105 0.10300
C 	C 	0.32443 0.15960 0.97497 0.04100
N 	N 	0.27461 0.11095 0.05903 -0.01900
H 	H 	0.14916 0.05425 0.05185 0.08500
N 	N 	0.10768 0.08744 0.90124 -0.02000
H 	H 	0.23299 0.14276 0.90786 0.08700
C 	C 	0.34317 0.12548 0.95067 0.05800
C 	C 	0.40867 0.15348 0.95287 0.00600
C 	C 	0.45563 0.21537 0.97887 -0.09500
C 	C 	0.43668 0.25034 0.00152 0.14600
C 	C 	0.37128 0.22242 0.99917 -0.09000
N 	N 	0.29586 0.06232 0.92391 -0.01600
H 	H 	0.42298 0.12666 0.93498 0.06200
N 	N 	0.48373 0.31319 0.02871 -0.03000
H 	H 	0.35695 0.24893 0.01755 0.10000
O 	O 	0.12004 0.13833 0.88697 -0.06200
O 	O 	0.06009 0.03146 0.87704 -0.06400
O 	O 	0.28169 0.14098 0.10087 -0.07200
O 	O 	0.30213 0.08302 0.05457 -0.06700
O 	O 	0.49195 0.36191 0.01332 -0.07300
O 	O 	0.51422 0.32118 0.07077 -0.09300
O 	O 	0.29372 0.04983 0.87826 -0.08000
O 	O 	0.25826 0.01635 0.94578 -0.07200
