data_crystal

_cell_length_a 25.37293
_cell_length_b 22.14959
_cell_length_c 47.54568
_cell_angle_alpha 90.56892
_cell_angle_beta  91.27565
_cell_angle_gamma 110.78222

_symmetry_space_group_name_	'P 1'
_symmetry_space_group_name_H-M	'P 1'

loop_
_symmetry_equiv_pos_as_xyz
  x,y,z

loop_
_atom_site_label
_atom_site_type_symbol
_atom_site_fract_x
_atom_site_fract_y
_atom_site_fract_z
_atom_site_charge
Ni	Ni	0.70031 0.30578 0.86917 1.09800
O 	O 	0.62689 0.26084 0.84663 -0.70700
Ni	Ni	0.57086 0.27747 0.87132 1.09900
O 	O 	0.74509 0.27835 0.83930 -0.37000
O 	O 	0.69005 0.17205 0.84424 -0.41200
O 	O 	0.70478 0.38486 0.84598 -0.39500
Ni	Ni	0.60647 0.16816 0.84276 1.06300
O 	O 	0.73390 0.38156 0.93025 -0.42600
O 	O 	0.60771 0.15494 0.88512 -0.42200
O 	O 	0.50313 0.23915 0.84476 -0.38100
O 	O 	0.64224 0.30967 0.89636 -0.70400
O 	O 	0.77474 0.35770 0.89055 -0.38100
O 	O 	0.52622 0.31875 0.89565 -0.38100
O 	O 	0.59835 0.41600 0.89530 -0.42700
Ni	Ni	0.66621 0.39651 0.91270 1.06700
H 	H 	0.62666 0.28024 0.82798 0.15400
H 	H 	0.64043 0.27903 0.91162 0.15200
C 	C 	0.56595 0.15573 0.90059 0.30600
O 	O 	0.71885 0.45350 0.88390 -0.40900
C 	C 	0.73244 0.21691 0.83233 0.26900
C 	C 	0.49121 0.18071 0.83356 0.27600
C 	C 	0.71485 0.44300 0.85660 0.29700
C 	C 	0.54638 0.38103 0.90172 0.27900
C 	C 	0.77893 0.38583 0.91574 0.30200
O 	O 	0.53896 0.19515 0.89480 -0.37700
O 	O 	0.52002 0.14352 0.84153 -0.40600
Ni	Ni	0.63134 0.30749 0.57336 1.09900
O 	O 	0.69714 0.32033 0.54697 -0.70000
Ni	Ni	0.75718 0.31385 0.57374 1.09700
O 	O 	0.58567 0.34241 0.54599 -0.37600
O 	O 	0.66245 0.43256 0.53934 -0.41300
O 	O 	0.58834 0.21760 0.55549 -0.37800
Ni	Ni	0.72584 0.40108 0.52636 1.07200
O 	O 	0.57497 0.18929 0.61035 -0.41300
O 	O 	0.78175 0.46907 0.55284 -0.39700
O 	O 	0.82665 0.34016 0.54858 -0.38500
O 	O 	0.68881 0.29263 0.59903 -0.70400
O 	O 	0.56901 0.28875 0.60175 -0.38500
O 	O 	0.80381 0.29193 0.60516 -0.37000
O 	O 	0.73747 0.19133 0.60962 -0.40900
Ni	Ni	0.65904 0.20175 0.60903 1.06300
H 	H 	0.68781 0.28416 0.53313 0.15100
H 	H 	0.69625 0.32109 0.61597 0.15600
C 	C 	0.80754 0.45675 0.57511 0.29800
O 	O 	0.65040 0.16887 0.56847 -0.42000
C 	C 	0.60953 0.39774 0.53358 0.28800
C 	C 	0.83260 0.37538 0.52566 0.29800
C 	C 	0.60966 0.17204 0.55184 0.29900
C 	C 	0.78468 0.23676 0.61839 0.27300
C 	C 	0.55349 0.23455 0.61602 0.27700
O 	O 	0.78250 0.40573 0.59015 -0.39300
O 	O 	0.78841 0.37551 0.51044 -0.42600
Ni	Ni	0.00985 0.95460 0.73598 1.08700
O 	O 	0.03093 0.89166 0.71102 -0.71500
Ni	Ni	0.06714 0.94834 0.67918 1.09100
O 	O 	0.97398 0.88417 0.76480 -0.36400
O 	O 	0.91712 0.81668 0.73118 -0.41000
O 	O 	0.08520 0.97795 0.75865 -0.37300
Ni	Ni	0.96386 0.82313 0.69531 1.06700
O 	O 	0.07569 0.09398 0.75690 -0.40500
O 	O 	0.92717 0.88504 0.67986 -0.41500
O 	O 	0.08755 0.87986 0.65746 -0.37700
O 	O 	0.03982 0.01056 0.70241 -0.68900
O 	O 	0.98722 0.01869 0.75911 -0.37000
O 	O 	0.11866 0.01666 0.65329 -0.35800
O 	O 	0.13562 0.11136 0.67720 -0.40200
Ni	Ni	0.10000 0.08949 0.71643 1.06700
H 	H 	0.05723 0.87383 0.72047 0.15100
H 	H 	0.00960 0.02198 0.69297 0.15400
C 	C 	0.94929 0.92482 0.65946 0.29600
O 	O 	0.14895 0.03735 0.72694 -0.40400
C 	C 	0.94049 0.82614 0.75654 0.27500
C 	C 	0.04865 0.82207 0.65309 0.26700
C 	C 	0.13519 0.99465 0.74709 0.24800
C 	C 	0.15433 0.07196 0.66323 0.28500
C 	C 	0.02259 0.07773 0.76402 0.28000
O 	O 	0.00055 0.93372 0.65123 -0.38300
O 	O 	0.99506 0.81295 0.65714 -0.39400
Ni	Ni	0.25576 0.69841 0.38846 1.10000
O 	O 	0.31618 0.72424 0.35862 -0.70700
Ni	Ni	0.37817 0.70452 0.37802 1.10100
O 	O 	0.20241 0.72454 0.36250 -0.37000
O 	O 	0.26763 0.82641 0.35795 -0.41200
O 	O 	0.22921 0.60947 0.36859 -0.38700
Ni	Ni	0.34462 0.81542 0.35011 1.06100
O 	O 	0.24951 0.64757 0.45279 -0.42700
O 	O 	0.36710 0.84434 0.39096 -0.42200
O 	O 	0.42976 0.72258 0.34488 -0.38500
O 	O 	0.32281 0.69244 0.40982 -0.70300
O 	O 	0.19293 0.66532 0.41749 -0.37800
O 	O 	0.42688 0.66122 0.39857 -0.38000
O 	O 	0.34885 0.57369 0.40741 -0.42700
Ni	Ni	0.29954 0.61214 0.43060 1.06800
H 	H 	0.30408 0.69788 0.34110 0.15500
H 	H 	0.33636 0.72892 0.42353 0.15400
C 	C 	0.41185 0.83850 0.40312 0.30000
O 	O 	0.22917 0.55441 0.40879 -0.40300
C 	C 	0.21770 0.78248 0.35152 0.27100
C 	C 	0.44452 0.77855 0.33199 0.28000
C 	C 	0.22292 0.55521 0.38140 0.29600
C 	C 	0.40399 0.60196 0.40764 0.28200
C 	C 	0.19945 0.64411 0.44290 0.30400
O 	O 	0.42952 0.79184 0.39549 -0.37500
O 	O 	0.42630 0.82504 0.34069 -0.41200
Ni	Ni	0.34151 0.69007 0.07026 1.09800
O 	O 	0.27210 0.66314 0.04350 -0.69900
Ni	Ni	0.22144 0.70028 0.06435 1.09700
O 	O 	0.38213 0.63904 0.04872 -0.36700
O 	O 	0.30599 0.54658 0.04386 -0.40900
O 	O 	0.38477 0.76385 0.04400 -0.37400
Ni	Ni	0.23339 0.56899 0.04152 1.06500
O 	O 	0.41244 0.82643 0.09289 -0.41500
O 	O 	0.23160 0.56504 0.08416 -0.42500
O 	O 	0.15502 0.66992 0.03618 -0.39000
O 	O 	0.29104 0.72748 0.09082 -0.70300
O 	O 	0.40785 0.72205 0.09825 -0.38400
O 	O 	0.18180 0.75228 0.08600 -0.36800
O 	O 	0.25819 0.84557 0.08795 -0.41200
Ni	Ni	0.33020 0.82168 0.09112 1.06200
H 	H 	0.28042 0.68153 0.02451 0.15000
H 	H 	0.28304 0.71021 0.11001 0.15400
C 	C 	0.19146 0.57633 0.09738 0.29400
O 	O 	0.32986 0.82486 0.04851 -0.42700
C 	C 	0.35422 0.58545 0.03466 0.28900
C 	C 	0.13647 0.60999 0.02641 0.29200
C 	C 	0.36562 0.80758 0.03413 0.29600
C 	C 	0.20861 0.81000 0.09713 0.27800
C 	C 	0.43157 0.78404 0.10464 0.28400
O 	O 	0.17759 0.62644 0.09073 -0.37000
O 	O 	0.15214 0.56598 0.03888 -0.41900
Ni	Ni	0.93975 0.04407 0.25763 1.10300
O 	O 	0.94266 0.12024 0.23312 -0.70200
Ni	Ni	0.90914 0.07451 0.19705 1.10200
O 	O 	0.97500 0.10554 0.29111 -0.35400
O 	O 	0.05060 0.16313 0.26498 -0.41000
O 	O 	0.86087 0.04161 0.26787 -0.37700
Ni	Ni	0.01840 0.17915 0.22605 1.06200
O 	O 	0.90764 0.88581 0.24667 -0.41400
O 	O 	0.04580 0.11016 0.20951 -0.40900
O 	O 	0.90622 0.15341 0.17655 -0.37300
O 	O 	0.91926 0.00127 0.21974 -0.68700
O 	O 	0.93010 0.96479 0.28197 -0.38300
O 	O 	0.85765 0.01420 0.16655 -0.35700
O 	O 	0.80152 0.95147 0.19999 -0.41700
Ni	Ni	0.85619 0.92061 0.22401 1.06700
H 	H 	0.91931 0.14408 0.24049 0.15800
H 	H 	0.95150 0.99025 0.21323 0.14100
C 	C 	0.02633 0.08024 0.18541 0.28000
O 	O 	0.82043 0.93276 0.26069 -0.39800
C 	C 	0.02248 0.15515 0.28856 0.25700
C 	C 	0.95004 0.20803 0.17899 0.28200
C 	C 	0.81747 0.98761 0.26971 0.28900
C 	C 	0.81160 0.96646 0.17342 0.25300
C 	C 	0.92902 0.90807 0.27207 0.28800
O 	O 	0.97878 0.08090 0.17406 -0.36000
O 	O 	0.00029 0.20740 0.18714 -0.41200
C 	C 	0.98312 0.35140 0.12823 0.00200
C 	C 	0.01954 0.38298 0.10701 -0.06400
C 	C 	0.05939 0.44444 0.11313 0.01300
C 	C 	0.06276 0.47284 0.13995 0.00400
C 	C 	0.03260 0.43706 0.16224 -0.07100
C 	C 	0.99169 0.37601 0.15604 0.02700
S 	S 	0.95300 0.27167 0.12976 0.03500
C 	C 	0.94744 0.26499 0.16462 -0.07500
C 	C 	0.97168 0.32738 0.17647 -0.02900
S 	S 	0.12567 0.53142 0.14351 0.00600
C 	C 	0.15050 0.52294 0.11198 -0.07700
C 	C 	0.10843 0.47292 0.09734 -0.01700
H 	H 	0.01982 0.35852 0.08719 0.04300
H 	H 	0.04320 0.45406 0.18382 0.04100
H 	H 	0.98312 0.33603 0.19864 0.02400
H 	H 	0.11269 0.45819 0.07598 0.03100
C 	C 	0.68669 0.90462 0.11821 -0.00200
C 	C 	0.63717 0.90980 0.10678 -0.05700
C 	C 	0.58685 0.85692 0.10932 0.01200
C 	C 	0.58628 0.80210 0.12398 0.00100
C 	C 	0.63377 0.80175 0.13944 -0.05900
C 	C 	0.68488 0.85301 0.13566 0.01500
S 	S 	0.74454 0.96718 0.12696 0.01400
C 	C 	0.77064 0.93096 0.15141 -0.07500
C 	C 	0.73200 0.86799 0.15454 -0.02800
S 	S 	0.51979 0.75979 0.13160 0.01500
C 	C 	0.48953 0.80783 0.11639 -0.07900
C 	C 	0.53256 0.86008 0.10486 -0.02000
H 	H 	0.63729 0.95445 0.09762 0.04000
H 	H 	0.63060 0.76472 0.15471 0.04200
H 	H 	0.73397 0.83768 0.17198 0.02400
H 	H 	0.52485 0.89761 0.09287 0.03800
C 	C 	0.11713 0.91354 0.11218 -0.01900
C 	C 	0.07122 0.93248 0.11773 -0.03400
C 	C 	0.08113 0.98736 0.13504 -0.03900
C 	C 	0.13475 0.01888 0.14776 0.05100
C 	C 	0.17767 0.99326 0.14565 -0.11300
C 	C 	0.16873 0.94107 0.12693 0.03600
S 	S 	0.11279 0.84113 0.10021 0.02100
C 	C 	0.17600 0.84259 0.11218 -0.07500
C 	C 	0.20208 0.90160 0.12681 -0.03500
S 	S 	0.12734 0.06272 0.17499 0.00800
C 	C 	0.05779 0.04511 0.17120 -0.08600
C 	C 	0.03775 0.00322 0.14794 0.01500
H 	H 	0.02912 0.90414 0.10995 0.03300
H 	H 	0.21530 0.01113 0.15905 0.06300
H 	H 	0.24426 0.91646 0.13606 0.02300
H 	H 	0.99361 0.98214 0.14164 0.02700
C 	C 	0.66836 0.95800 0.29724 -0.01700
C 	C 	0.61072 0.93749 0.28991 -0.05200
C 	C 	0.57639 0.87493 0.29723 0.01200
C 	C 	0.60033 0.83271 0.30915 -0.00300
C 	C 	0.65684 0.85430 0.31811 -0.05600
C 	C 	0.69148 0.91693 0.31112 0.01700
S 	S 	0.71913 0.00935 0.27865 0.04100
C 	C 	0.77215 0.98534 0.28867 -0.08600
C 	C 	0.74998 0.93358 0.30696 -0.01800
S 	S 	0.54947 0.77329 0.32381 0.03000
C 	C 	0.49542 0.79662 0.31515 -0.07700
C 	C 	0.51724 0.85519 0.30079 -0.02400
H 	H 	0.59323 0.96927 0.27914 0.03600
H 	H 	0.67413 0.82214 0.32874 0.04500
H 	H 	0.77241 0.90174 0.31261 0.04700
H 	H 	0.49344 0.88644 0.29682 0.02800
C 	C 	0.18186 0.37770 0.35592 0.00400
C 	C 	0.17712 0.32389 0.33899 -0.06200
C 	C 	0.12500 0.27268 0.33772 0.01500
C 	C 	0.07843 0.27782 0.35169 -0.00100
C 	C 	0.08125 0.33589 0.36477 -0.05700
C 	C 	0.13420 0.38544 0.36746 0.01100
S 	S 	0.23079 0.45060 0.35279 -0.00400
C 	C 	0.19484 0.49408 0.36619 -0.07400
C 	C 	0.14175 0.45076 0.37367 -0.01800
S 	S 	0.02024 0.22445 0.33691 0.00400
C 	C 	0.05124 0.19074 0.31404 -0.06600
C 	C 	0.10971 0.22382 0.31642 -0.02900
H 	H 	0.21172 0.32322 0.32619 0.04200
H 	H 	0.04333 0.34351 0.37117 0.04200
H 	H 	0.11042 0.46561 0.38384 0.04100
H 	H 	0.13904 0.21885 0.30114 0.04200
C 	C 	0.08444 0.82782 0.34614 -0.00800
C 	C 	0.05000 0.86494 0.34471 -0.04600
C 	C 	0.00371 0.84505 0.32575 -0.01500
C 	C 	0.99473 0.79144 0.30762 0.02700
C 	C 	0.03391 0.76019 0.30644 -0.07800
C 	C 	0.07828 0.77785 0.32653 0.02400
S 	S 	0.15077 0.85487 0.35813 0.01100
C 	C 	0.17362 0.80412 0.34012 -0.07700
C 	C 	0.12813 0.76369 0.32353 -0.02600
S 	S 	0.95540 0.79835 0.28028 0.00900
C 	C 	0.94545 0.86554 0.29102 -0.07600
C 	C 	0.97580 0.88669 0.31642 -0.00500
H 	H 	0.06079 0.90985 0.35663 0.03800
H 	H 	0.03207 0.72655 0.28942 0.04500
H 	H 	0.13065 0.72501 0.31013 0.03500
H 	H 	0.98429 0.93439 0.32550 0.04400
C 	C 	0.49158 0.99778 0.44078 -0.11400
C 	C 	0.50418 0.97627 0.46681 -0.00600
C 	C 	0.48829 0.90938 0.47157 0.02100
C 	C 	0.45766 0.86496 0.45058 -0.01200
C 	C 	0.44438 0.88644 0.42464 -0.11600
C 	C 	0.46339 0.95342 0.41929 0.11200
C 	C 	0.53215 0.02423 0.48939 0.02300
C 	C 	0.50269 0.88524 0.49918 -0.17000
H 	H 	0.44385 0.81358 0.45447 0.02500
C 	C 	0.45379 0.97793 0.39084 -0.22900
H 	H 	0.50413 0.04919 0.43719 0.06400
C 	C 	0.59102 0.05798 0.48971 0.01400
C 	C 	0.61581 0.10612 0.51037 -0.00900
C 	C 	0.58285 0.11957 0.53109 -0.11700
C 	C 	0.52443 0.08301 0.53172 0.11000
C 	C 	0.49935 0.03702 0.51032 -0.10200
C 	C 	0.62726 0.04388 0.46773 -0.14900
H 	H 	0.66069 0.13359 0.51017 0.02800
C 	C 	0.48881 0.09218 0.55523 -0.21200
H 	H 	0.45425 0.01059 0.51010 0.05800
H 	H 	0.46466 0.95011 0.37379 0.07400
H 	H 	0.48057 0.02950 0.38844 0.08000
H 	H 	0.40898 0.97352 0.38824 0.07000
H 	H 	0.47722 0.89514 0.51609 0.05600
H 	H 	0.54820 0.90965 0.50462 0.05900
H 	H 	0.49396 0.83242 0.49824 0.05500
H 	H 	0.67289 0.06873 0.47280 0.05900
H 	H 	0.61777 0.06056 0.44693 0.06200
H 	H 	0.61901 0.99121 0.46642 0.05100
H 	H 	0.44671 0.05307 0.55508 0.07300
H 	H 	0.48232 0.13890 0.55297 0.09400
H 	H 	0.50956 0.09121 0.57594 0.08600
C 	C 	0.95257 0.44650 0.47584 -0.09600
C 	C 	0.99444 0.48641 0.49438 0.01200
C 	C 	0.98506 0.48483 0.52356 0.03300
C 	C 	0.93269 0.44547 0.53361 -0.01800
C 	C 	0.88974 0.40784 0.51493 -0.11000
C 	C 	0.90107 0.40517 0.48600 0.10100
C 	C 	0.04878 0.52823 0.48308 -0.00500
C 	C 	0.03017 0.52623 0.54392 -0.18300
H 	H 	0.92494 0.44508 0.55594 0.04500
C 	C 	0.85910 0.35812 0.46595 -0.20200
H 	H 	0.96055 0.44674 0.45352 0.05600
C 	C 	0.09213 0.50371 0.47817 0.02400
C 	C 	0.14199 0.54321 0.46591 -0.01200
C 	C 	0.14912 0.60669 0.45845 -0.11200
C 	C 	0.10678 0.63219 0.46452 0.10100
C 	C 	0.05647 0.59229 0.47642 -0.09200
C 	C 	0.08449 0.43476 0.48496 -0.17200
H 	H 	0.17476 0.52396 0.46143 0.02600
C 	C 	0.11445 0.70121 0.45790 -0.20500
H 	H 	0.02315 0.61097 0.48042 0.04800
H 	H 	0.88024 0.34832 0.44715 0.06800
H 	H 	0.82703 0.37847 0.45880 0.07300
H 	H 	0.83801 0.31107 0.47617 0.07700
H 	H 	0.03690 0.57796 0.54061 0.06600
H 	H 	0.07037 0.51813 0.54071 0.06400
H 	H 	0.01842 0.51472 0.56612 0.06400
H 	H 	0.12403 0.42479 0.48224 0.05800
H 	H 	0.05133 0.40131 0.47079 0.06300
H 	H 	0.07198 0.42465 0.50715 0.06100
H 	H 	0.08370 0.71736 0.46913 0.06600
H 	H 	0.10816 0.70568 0.43494 0.08300
H 	H 	0.15736 0.73407 0.46458 0.07200
C 	C 	0.57025 0.46178 0.46598 -0.08800
C 	C 	0.52134 0.47235 0.47382 0.00200
C 	C 	0.49813 0.45223 0.50035 0.02400
C 	C 	0.52704 0.42677 0.51960 -0.01300
C 	C 	0.57767 0.41945 0.51230 -0.10800
C 	C 	0.59802 0.43408 0.48480 0.08600
C 	C 	0.49607 0.50713 0.45462 0.00400
C 	C 	0.44344 0.45935 0.50843 -0.17000
H 	H 	0.51072 0.41377 0.54045 0.03900
C 	C 	0.64979 0.42149 0.47560 -0.18900
H 	H 	0.58718 0.47607 0.44534 0.05000
C 	C 	0.51109 0.57476 0.45706 0.02200
C 	C 	0.48215 0.60570 0.44060 -0.02000
C 	C 	0.43975 0.57024 0.42119 -0.11800
C 	C 	0.42907 0.50364 0.41668 0.09800
C 	C 	0.45630 0.47228 0.43402 -0.09700
C 	C 	0.55678 0.61372 0.47773 -0.17200
H 	H 	0.49133 0.65707 0.44354 0.03600
C 	C 	0.38812 0.46554 0.39387 -0.20300
H 	H 	0.44616 0.42060 0.43168 0.05200
H 	H 	0.68821 0.45951 0.48454 0.02500
H 	H 	0.65257 0.42174 0.45231 0.06000
H 	H 	0.64862 0.37338 0.48267 0.02000
H 	H 	0.41018 0.43632 0.49209 0.06100
H 	H 	0.44929 0.51129 0.51057 0.05600
H 	H 	0.42835 0.43589 0.52874 0.05900
H 	H 	0.56657 0.66643 0.47546 0.05900
H 	H 	0.59617 0.60402 0.47417 0.06600
H 	H 	0.54317 0.60072 0.49958 0.06000
H 	H 	0.39644 0.42119 0.38790 0.06700
H 	H 	0.39208 0.49454 0.37457 0.07600
H 	H 	0.34434 0.45099 0.40142 0.07600
C 	C 	0.90206 0.06020 0.62860 -0.01400
C 	C 	0.91457 0.12551 0.62295 -0.04900
C 	C 	0.88453 0.15832 0.63711 0.00700
C 	C 	0.84804 0.12790 0.65874 0.01000
C 	C 	0.83687 0.06288 0.66485 -0.07000
C 	C 	0.86517 0.02953 0.64984 0.03600
S 	S 	0.94520 0.02001 0.62339 0.04900
C 	C 	0.91702 0.96070 0.64619 -0.09200
C 	C 	0.87322 0.97323 0.65970 -0.04600
S 	S 	0.80044 0.16293 0.66109 -0.01200
C 	C 	0.82391 0.21801 0.63614 -0.06900
C 	C 	0.87151 0.20962 0.62478 -0.01800
H 	H 	0.94400 0.14894 0.60682 0.04500
H 	H 	0.80712 0.03907 0.68080 0.04800
H 	H 	0.85445 0.94923 0.67870 0.04000
H 	H 	0.88877 0.23048 0.60498 0.04500
C 	C 	0.31025 0.17681 0.64861 -0.00400
C 	C 	0.35712 0.21980 0.63523 -0.05400
C 	C 	0.40370 0.20075 0.63156 0.01200
C 	C 	0.40149 0.13928 0.63942 0.00500
C 	C 	0.35493 0.09626 0.65277 -0.06000
C 	C 	0.30787 0.11458 0.65598 0.01900
S 	S 	0.24448 0.17505 0.64450 0.01600
C 	C 	0.21111 0.09705 0.65193 -0.06900
C 	C 	0.25210 0.06997 0.65826 -0.02600
S 	S 	0.46669 0.13906 0.64126 0.00000
C 	C 	0.50022 0.21539 0.63116 -0.07500
C 	C 	0.45912 0.24365 0.62645 -0.02000
H 	H 	0.35771 0.26660 0.62849 0.04200
H 	H 	0.35416 0.04906 0.65903 0.04500
H 	H 	0.24216 0.02037 0.66456 0.04000
H 	H 	0.46858 0.29229 0.61895 0.04400
C 	C 	0.95354 0.56225 0.60982 -0.00600
C 	C 	0.99054 0.59895 0.63103 -0.04700
C 	C 	0.02603 0.66205 0.62487 0.00500
C 	C 	0.02360 0.68724 0.59800 -0.01300
C 	C 	0.98158 0.65331 0.57815 -0.04500
C 	C 	0.94642 0.59036 0.58433 0.01000
S 	S 	0.89351 0.50165 0.61587 0.02100
C 	C 	0.85724 0.50874 0.58706 -0.07600
C 	C 	0.89254 0.55958 0.57129 -0.02100
S 	S 	0.04699 0.76704 0.60167 0.02300
C 	C 	0.06170 0.77383 0.63625 -0.07300
C 	C 	0.04841 0.71066 0.64612 -0.03000
H 	H 	0.98832 0.58123 0.65230 0.03900
H 	H 	0.97323 0.67723 0.55971 0.04300
H 	H 	0.87979 0.57437 0.55141 0.04100
H 	H 	0.04410 0.69989 0.66833 0.01600
C 	C 	0.98569 0.55636 0.99875 -0.09000
C 	C 	0.98950 0.52334 0.97402 0.01500
C 	C 	0.04268 0.52503 0.96507 0.00900
C 	C 	0.09113 0.55819 0.98153 -0.01500
C 	C 	0.08702 0.58809 0.00709 -0.11700
C 	C 	0.03389 0.58764 0.01573 0.10100
C 	C 	0.93731 0.48565 0.95799 0.00200
C 	C 	0.04776 0.49052 0.93832 -0.16600
H 	H 	0.13196 0.55867 0.97498 0.01200
C 	C 	0.02814 0.61880 0.04330 -0.22100
H 	H 	0.94484 0.55585 0.00524 0.05100
C 	C 	0.90298 0.42362 0.96671 0.02600
C 	C 	0.85158 0.39103 0.95234 -0.01300
C 	C 	0.83522 0.41842 0.92881 -0.11100
C 	C 	0.87130 0.47883 0.91908 0.10200
C 	C 	0.92138 0.51264 0.93424 -0.09300
C 	C 	0.92022 0.39288 0.99174 -0.17300
H 	H 	0.82406 0.34450 0.95961 0.03400
C 	C 	0.85514 0.50934 0.89367 -0.21200
H 	H 	0.94799 0.56019 0.92760 0.05300
H 	H 	0.04547 0.59828 0.06092 0.09100
H 	H 	0.98334 0.61060 0.04774 0.07800
H 	H 	0.05114 0.67174 0.04264 0.08900
H 	H 	0.03395 0.51236 0.91999 0.05900
H 	H 	0.02114 0.43855 0.93923 0.05900
H 	H 	0.09189 0.49379 0.93500 0.05400
H 	H 	0.89263 0.34147 0.99367 0.06300
H 	H 	0.91743 0.41916 0.01133 0.06500
H 	H 	0.96415 0.39431 0.98960 0.06700
H 	H 	0.89162 0.55031 0.88611 0.07200
H 	H 	0.82151 0.52812 0.89921 0.08200
H 	H 	0.84037 0.47385 0.87596 0.09200
C 	C 	0.49713 0.06411 0.96488 -0.11400
C 	C 	0.48586 0.00023 0.95579 0.05600
C 	C 	0.50348 0.98762 0.92914 -0.02800
C 	C 	0.53097 0.03924 0.91163 0.02600
C 	C 	0.54168 0.10321 0.92052 -0.12600
C 	C 	0.52612 0.11591 0.94771 0.11400
C 	C 	0.45580 0.94672 0.97447 -0.03000
C 	C 	0.49182 0.91919 0.91904 -0.15000
H 	H 	0.54292 0.02961 0.89078 0.02400
C 	C 	0.53960 0.18427 0.95839 -0.20700
H 	H 	0.48373 0.07347 0.98545 0.05900
C 	C 	0.48535 0.92671 0.99574 0.04000
C 	C 	0.45536 0.87864 0.01430 -0.02500
C 	C 	0.39646 0.84987 0.01169 -0.10400
C 	C 	0.36738 0.86686 0.98922 0.08700
C 	C 	0.39720 0.91634 0.97117 -0.07900
C 	C 	0.54850 0.95824 0.99940 -0.19900
H 	H 	0.47764 0.86524 0.03146 0.04900
C 	C 	0.30456 0.83369 0.98484 -0.19500
H 	H 	0.37482 0.93133 0.95455 0.04500
H 	H 	0.53555 0.18607 0.98158 0.06400
H 	H 	0.51012 0.20518 0.94844 0.07900
H 	H 	0.58365 0.21451 0.95359 0.05800
H 	H 	0.44564 0.89346 0.91624 0.05600
H 	H 	0.50894 0.89331 0.93455 0.05600
H 	H 	0.51171 0.91765 0.89859 0.04900
H 	H 	0.56577 0.93316 0.01524 0.06500
H 	H 	0.55948 0.00924 0.00651 0.07800
H 	H 	0.56919 0.95689 0.97919 0.06600
H 	H 	0.28208 0.85347 0.00009 0.07200
H 	H 	0.29222 0.78080 0.98771 0.05500
H 	H 	0.29076 0.84110 0.96321 0.06200
C 	C 	0.38043 0.50447 0.96860 -0.08800
C 	C 	0.43499 0.50500 0.97427 0.00100
C 	C 	0.46518 0.53722 0.99866 0.02600
C 	C 	0.43850 0.56407 0.01815 -0.01400
C 	C 	0.38303 0.56141 0.01298 -0.10400
C 	C 	0.35472 0.53401 0.98738 0.08400
C 	C 	0.46007 0.47117 0.95461 0.00300
C 	C 	0.52547 0.54249 0.00407 -0.17200
H 	H 	0.46061 0.58621 0.03751 0.04600
C 	C 	0.29689 0.53526 0.98014 -0.18900
H 	H 	0.35788 0.48081 0.94956 0.04900
C 	C 	0.45558 0.40665 0.95919 0.02300
C 	C 	0.48285 0.37716 0.94123 -0.02000
C 	C 	0.51260 0.41036 0.91818 -0.11600
C 	C 	0.51246 0.47281 0.91215 0.09600
C 	C 	0.48771 0.50343 0.93096 -0.09600
C 	C 	0.42224 0.36938 0.98329 -0.17200
H 	H 	0.48193 0.32881 0.94554 0.03500
C 	C 	0.53879 0.50720 0.88592 -0.20200
H 	H 	0.48978 0.55241 0.92715 0.05000
H 	H 	0.26465 0.49761 0.99207 0.03600
H 	H 	0.28649 0.52577 0.95732 0.05700
H 	H 	0.29475 0.58336 0.98527 0.02900
H 	H 	0.55135 0.56422 0.98573 0.06100
H 	H 	0.52739 0.49388 0.00769 0.05800
H 	H 	0.54450 0.57349 0.02284 0.06100
H 	H 	0.41980 0.31829 0.98289 0.06000
H 	H 	0.37847 0.36933 0.98203 0.06600
H 	H 	0.44238 0.39178 0.00364 0.06100
H 	H 	0.52201 0.54576 0.88049 0.06500
H 	H 	0.52928 0.47306 0.86763 0.07600
H 	H 	0.58516 0.52980 0.88928 0.07400
C 	C 	0.86110 0.19576 0.79448 -0.00000
C 	C 	0.91516 0.21408 0.78357 -0.05400
C 	C 	0.95015 0.18072 0.79275 0.00900
C 	C 	0.93342 0.13656 0.81484 -0.00400
C 	C 	0.87910 0.11846 0.82559 -0.05300
C 	C 	0.84312 0.14895 0.81518 0.01500
S 	S 	0.81926 0.23926 0.79419 0.01100
C 	C 	0.77485 0.19685 0.81851 -0.07400
C 	C 	0.79415 0.14908 0.82875 -0.02300
S 	S 	0.96877 0.08674 0.81223 0.05000
C 	C 	0.00705 0.11850 0.78426 -0.09700
C 	C 	0.99164 0.17061 0.77560 -0.00100
H 	H 	0.92820 0.24977 0.76727 0.04300
H 	H 	0.86524 0.08151 0.84134 0.04600
H 	H 	0.77782 0.12123 0.84728 0.04300
H 	H 	0.00185 0.19222 0.75515 0.01000
C 	C 	0.33816 0.06157 0.82117 0.01100
C 	C 	0.27919 0.03681 0.82066 -0.07700
C 	C 	0.25109 0.00181 0.79664 0.06800
C 	C 	0.28190 0.99568 0.77322 -0.04300
C 	C 	0.34040 0.02807 0.77246 -0.02700
C 	C 	0.36864 0.05962 0.79712 0.00200
S 	S 	0.37761 0.12352 0.84127 0.03000
C 	C 	0.43453 0.14877 0.82130 -0.07200
C 	C 	0.42348 0.10768 0.79753 -0.02100
S 	S 	0.23885 0.98109 0.74511 -0.00600
C 	C 	0.17992 0.97782 0.76123 -0.05600
C 	C 	0.19365 0.99119 0.78993 -0.07400
H 	H 	0.25594 0.04792 0.83756 0.05300
H 	H 	0.36247 0.03228 0.75290 0.03700
H 	H 	0.45361 0.11229 0.78116 0.02300
H 	H 	0.16647 0.00395 0.80425 0.07000
C 	C 	0.79444 0.61567 0.83056 -0.00100
C 	C 	0.80598 0.67855 0.82095 -0.05600
C 	C 	0.84468 0.69978 0.79937 0.01000
C 	C 	0.86737 0.65757 0.78666 0.01000
C 	C 	0.85594 0.59485 0.79621 -0.06300
C 	C 	0.81678 0.57327 0.81754 0.01500
S 	S 	0.73618 0.57171 0.84655 0.00400
C 	C 	0.73740 0.49841 0.83823 -0.07700
C 	C 	0.78511 0.50739 0.82206 -0.02300
S 	S 	0.92434 0.70111 0.76980 -0.02300
C 	C 	0.92182 0.77437 0.77687 -0.07000
C 	C 	0.87470 0.76556 0.79357 -0.01900
H 	H 	0.78696 0.71023 0.83046 0.04200
H 	H 	0.87468 0.56309 0.78652 0.04400
H 	H 	0.79769 0.46813 0.81479 0.04300
H 	H 	0.86124 0.80463 0.80019 0.03900
