data_crystal

_cell_length_a 18.74701
_cell_length_b 18.75219
_cell_length_c 30.61522
_cell_angle_alpha 95.43245
_cell_angle_beta  95.43250
_cell_angle_gamma 126.42047

_symmetry_space_group_name_	'P 1'
_symmetry_space_group_name_H-M	'P 1'

loop_
_symmetry_equiv_pos_as_xyz
  x,y,z

loop_
_atom_site_label
_atom_site_type_symbol
_atom_site_fract_x
_atom_site_fract_y
_atom_site_fract_z
_atom_site_charge
C 	C 	0.91412 0.00434 0.97485 0.09600
C 	C 	0.86457 0.91026 0.97039 -0.06800
C 	C 	0.90864 0.87062 0.96663 0.10400
C 	C 	0.00128 0.92484 0.96592 -0.07200
C 	C 	0.05112 0.01883 0.97171 0.10100
C 	C 	0.00772 0.05847 0.97722 -0.07400
H 	H 	0.79248 0.86833 0.96973 0.09400
H 	H 	0.03468 0.89401 0.96142 0.09300
H 	H 	0.04634 0.13123 0.98197 0.09400
C 	C 	0.95884 0.04474 0.49809 0.10000
C 	C 	0.05150 0.09461 0.49741 -0.07400
C 	C 	0.09244 0.05163 0.49774 0.10200
C 	C 	0.04055 0.95909 0.49771 -0.07400
C 	C 	0.94858 0.90962 0.49870 0.10800
C 	C 	0.90809 0.95273 0.49987 -0.07200
H 	H 	0.09112 0.16588 0.49617 0.09400
H 	H 	0.07186 0.92559 0.49701 0.09100
H 	H 	0.83656 0.91411 0.50043 0.09400
Cu	Cu	0.74891 0.33576 0.95304 0.93400
Cu	Cu	0.72422 0.26814 0.04861 0.89000
Cu	Cu	0.61473 0.31673 0.00808 0.90300
Cu	Cu	0.57185 0.30968 0.91004 0.91400
C 	C 	0.68653 0.28983 0.85759 0.29100
O 	O 	0.79054 0.46203 0.94588 -0.33500
C 	C 	0.66217 0.34317 0.10582 0.28100
O 	O 	0.60911 0.26176 0.94907 -0.63300
O 	O 	0.74103 0.35862 0.01572 -0.64100
O 	O 	0.81459 0.28349 0.96404 -0.34000
O 	O 	0.70937 0.18413 0.00169 -0.41100
O 	O 	0.64535 0.32637 0.86367 -0.35400
O 	O 	0.49398 0.28610 0.99884 -0.34600
C 	C 	0.42980 0.23328 0.96340 0.33000
C 	C 	0.74488 0.49278 0.95580 0.31700
O 	O 	0.65841 0.43637 0.95742 -0.37100
O 	O 	0.44907 0.23259 0.92318 -0.36100
O 	O 	0.73757 0.29238 0.89139 -0.33500
C 	C 	0.77555 0.20857 0.98018 0.33600
O 	O 	0.62301 0.35443 0.07169 -0.34000
O 	O 	0.72379 0.33098 0.10146 -0.38500
H 	H 	0.57180 0.19508 0.94388 0.17900
H 	H 	0.78608 0.42168 0.03183 0.20000
Cu	Cu	0.62148 0.20360 0.50510 0.93300
Cu	Cu	0.67241 0.20080 0.40571 0.89300
Cu	Cu	0.67273 0.34776 0.44858 0.90600
Cu	Cu	0.64626 0.38058 0.54244 0.91300
C 	C 	0.64519 0.25717 0.59971 0.29100
O 	O 	0.49332 0.15540 0.51045 -0.34900
C 	C 	0.61927 0.28130 0.35048 0.28700
O 	O 	0.70268 0.34441 0.50947 -0.63600
O 	O 	0.60121 0.21412 0.44220 -0.63900
O 	O 	0.67307 0.13686 0.49703 -0.34600
O 	O 	0.76416 0.22811 0.45206 -0.41300
O 	O 	0.65688 0.33354 0.59690 -0.34600
O 	O 	0.74978 0.47762 0.45902 -0.35800
C 	C 	0.74777 0.52806 0.49123 0.33600
C 	C 	0.46338 0.20155 0.50187 0.33200
O 	O 	0.51932 0.28484 0.49641 -0.37000
O 	O 	0.68922 0.49199 0.51823 -0.35900
O 	O 	0.65807 0.21601 0.56754 -0.33600
C 	C 	0.74541 0.17128 0.47903 0.33500
O 	O 	0.65992 0.35101 0.38399 -0.35700
O 	O 	0.60910 0.20691 0.35556 -0.38800
H 	H 	0.76816 0.37855 0.52074 0.18900
H 	H 	0.53734 0.18066 0.42782 0.20200
C 	C 	0.69782 0.27198 0.81197 -0.04700
C 	C 	0.78335 0.32683 0.80044 0.02400
C 	C 	0.79169 0.32760 0.75554 -0.04100
C 	C 	0.71450 0.27313 0.72173 0.03100
C 	C 	0.62918 0.21205 0.73314 0.02700
C 	C 	0.62131 0.21169 0.77832 -0.01000
C 	C 	0.55222 0.15625 0.69926 -0.03900
C 	C 	0.55891 0.16597 0.65477 0.01400
C 	C 	0.64218 0.23212 0.64385 -0.04300
C 	C 	0.72057 0.28283 0.67700 -0.00800
H 	H 	0.84284 0.37278 0.82626 0.06400
H 	H 	0.85775 0.37308 0.74715 0.07000
H 	H 	0.55537 0.16827 0.78727 0.05200
H 	H 	0.48679 0.10740 0.70747 0.06700
H 	H 	0.49868 0.12456 0.62903 0.06200
H 	H 	0.78526 0.33266 0.66830 0.06700
C 	C 	0.64896 0.36020 0.15100 -0.04600
C 	C 	0.71874 0.43970 0.18085 0.01600
C 	C 	0.71979 0.44557 0.22683 -0.04200
C 	C 	0.65172 0.37130 0.24338 0.02600
C 	C 	0.57760 0.29390 0.21318 0.02900
C 	C 	0.57579 0.28960 0.16698 -0.01800
C 	C 	0.51025 0.21907 0.22966 -0.04500
C 	C 	0.52049 0.21777 0.27534 0.01500
C 	C 	0.59756 0.29169 0.30510 -0.05200
C 	C 	0.66043 0.37039 0.28939 -0.01200
H 	H 	0.77470 0.49511 0.16862 0.06200
H 	H 	0.77585 0.50613 0.24961 0.06900
H 	H 	0.52120 0.22868 0.14378 0.06200
H 	H 	0.45196 0.16025 0.20692 0.06800
H 	H 	0.47032 0.15778 0.28739 0.05900
H 	H 	0.71919 0.42823 0.31245 0.06700
C 	C 	0.90247 0.77885 0.53519 0.07000
C 	C 	0.89416 0.81181 0.49714 -0.03800
C 	C 	0.83906 0.75153 0.45671 0.06900
C 	C 	0.78893 0.65819 0.45497 0.12100
C 	C 	0.80090 0.62549 0.49243 -0.11600
C 	C 	0.85938 0.68620 0.53221 0.11800
Br	Br	0.88370 0.64274 0.58185 -0.19000
Br	Br	0.97145 0.86068 0.59156 -0.14200
Br	Br	0.69972 0.57542 0.40241 -0.16700
Br	Br	0.83562 0.79708 0.40325 -0.14000
C 	C 	0.86595 0.07311 0.45056 0.06800
C 	C 	0.91281 0.08637 0.49293 -0.03600
C 	C 	0.90573 0.12885 0.53092 0.06800
C 	C 	0.85044 0.15647 0.52655 0.12100
C 	C 	0.79920 0.13797 0.48446 -0.12200
C 	C 	0.80554 0.09427 0.44666 0.12100
Br	Br	0.72715 0.05808 0.39015 -0.23600
Br	Br	0.88637 0.02784 0.39780 -0.14200
Br	Br	0.84705 0.22194 0.57783 -0.17500
Br	Br	0.97125 0.14837 0.58886 -0.14600
C 	C 	0.33963 0.17114 0.54058 0.11800
C 	C 	0.36797 0.16208 0.50079 -0.12100
C 	C 	0.30836 0.12747 0.45948 0.12100
C 	C 	0.21982 0.09929 0.45817 0.06800
C 	C 	0.18985 0.10291 0.49819 -0.03700
C 	C 	0.25042 0.14085 0.53930 0.06900
Br	Br	0.21006 0.14899 0.59396 -0.14400
Br	Br	0.42399 0.22796 0.59662 -0.20400
Br	Br	0.13868 0.05445 0.40165 -0.14800
Br	Br	0.34794 0.11865 0.40472 -0.20300
C 	C 	0.84778 0.73601 0.00294 0.07000
C 	C 	0.85825 0.77212 0.96362 -0.03500
C 	C 	0.83064 0.71622 0.92178 0.07000
C 	C 	0.79666 0.62553 0.91934 0.11600
C 	C 	0.78720 0.58962 0.95871 -0.10800
C 	C 	0.81138 0.64458 0.00044 0.11500
Br	Br	0.79520 0.59475 0.05418 -0.19800
Br	Br	0.88518 0.81248 0.06024 -0.14000
Br	Br	0.76263 0.55034 0.86207 -0.17300
Br	Br	0.83920 0.76416 0.86782 -0.14200
C 	C 	0.87470 0.09273 0.01754 0.06600
C 	C 	0.86838 0.04696 0.97643 -0.03200
C 	C 	0.83092 0.05382 0.93635 0.06300
C 	C 	0.80122 0.10752 0.93743 0.12300
C 	C 	0.81178 0.15687 0.97845 -0.11900
C 	C 	0.84978 0.15031 0.01845 0.11900
Br	Br	0.87235 0.22405 0.07418 -0.23600
Br	Br	0.91746 0.07614 0.07262 -0.15000
Br	Br	0.74414 0.11170 0.88293 -0.17400
Br	Br	0.82235 0.99129 0.87996 -0.12900
C 	C 	0.20974 0.08205 0.00439 0.06600
C 	C 	0.14869 0.07590 0.97062 -0.03400
C 	C 	0.18121 0.12556 0.93617 0.06800
C 	C 	0.27448 0.18613 0.93757 0.12100
C 	C 	0.33437 0.18397 0.96797 -0.11100
C 	C 	0.30128 0.13040 0.00113 0.11900
Br	Br	0.37894 0.11747 0.03981 -0.21900
Br	Br	0.16912 0.02862 0.05621 -0.15800
Br	Br	0.32019 0.27849 0.90161 -0.16600
Br	Br	0.09822 0.10586 0.88541 -0.14500
