data_crystal

_cell_length_a 35.11018
_cell_length_b 35.81140
_cell_length_c 34.97055
_cell_angle_alpha 95.53846
_cell_angle_beta  95.53671
_cell_angle_gamma 125.36360

_symmetry_space_group_name_	'P 1'
_symmetry_space_group_name_H-M	'P 1'

loop_
_symmetry_equiv_pos_as_xyz
  x,y,z

loop_
_atom_site_label
_atom_site_type_symbol
_atom_site_fract_x
_atom_site_fract_y
_atom_site_fract_z
_atom_site_charge
C 	C 	0.97516 0.02036 0.99879 0.11600
N 	N 	0.94899 0.97346 0.99676 -0.14200
C 	C 	0.96964 0.95122 0.99305 0.12000
N 	N 	0.01662 0.97601 0.99163 -0.14200
C 	C 	0.04296 0.02284 0.99368 0.11900
N 	N 	0.02217 0.04499 0.99716 -0.14200
C 	C 	0.95200 0.99789 0.43190 0.11900
N 	N 	0.92776 0.95184 0.43363 -0.14100
C 	C 	0.95102 0.93197 0.43554 0.11900
N 	N 	0.99853 0.95827 0.43598 -0.14000
C 	C 	0.02289 0.00425 0.43443 0.11900
N 	N 	0.99956 0.02398 0.43236 -0.14100
Cu	Cu	0.65012 0.26327 0.99755 0.92800
Cu	Cu	0.69832 0.27163 0.92042 0.87000
Cu	Cu	0.67878 0.33838 0.94833 0.89600
Cu	Cu	0.64722 0.34793 0.02225 0.89500
C 	C 	0.65650 0.29471 0.07816 0.30800
O 	O 	0.58002 0.23511 0.99218 -0.36300
C 	C 	0.67838 0.31426 0.86472 0.30600
O 	O 	0.68806 0.33601 0.00270 -0.64000
O 	O 	0.64898 0.27029 0.94222 -0.64200
O 	O 	0.67980 0.22993 0.99767 -0.37100
O 	O 	0.73782 0.28155 0.96716 -0.44000
O 	O 	0.63473 0.31282 0.06615 -0.38700
O 	O 	0.71211 0.40526 0.95729 -0.38400
C 	C 	0.70576 0.42981 0.98309 0.29200
C 	C 	0.56220 0.25486 0.97601 0.28400
O 	O 	0.59066 0.29894 0.97319 -0.39600
O 	O 	0.67624 0.41043 0.00776 -0.39300
O 	O 	0.66135 0.26834 0.05311 -0.35100
C 	C 	0.72210 0.24927 0.98875 0.29400
O 	O 	0.67547 0.34038 0.89207 -0.38300
O 	O 	0.67453 0.27666 0.87128 -0.40800
H 	H 	0.72158 0.35649 0.01658 0.16600
H 	H 	0.61733 0.25031 0.92488 0.17600
Cu	Cu	0.72963 0.34005 0.44889 0.92800
Cu	Cu	0.72693 0.30396 0.53199 0.87100
Cu	Cu	0.65374 0.31501 0.49862 0.89700
Cu	Cu	0.64290 0.34192 0.42194 0.89500
C 	C 	0.69627 0.32864 0.36715 0.31100
O 	O 	0.75906 0.40852 0.44959 -0.36100
C 	C 	0.68557 0.33018 0.58423 0.30800
O 	O 	0.65581 0.30385 0.44445 -0.64100
O 	O 	0.72377 0.34654 0.50446 -0.64100
O 	O 	0.76245 0.30945 0.45167 -0.37200
O 	O 	0.71279 0.25940 0.48834 -0.44000
O 	O 	0.67705 0.34988 0.37736 -0.37500
O 	O 	0.58528 0.28073 0.48919 -0.37700
C 	C 	0.56005 0.28403 0.46095 0.28900
C 	C 	0.73926 0.42772 0.46314 0.28400
O 	O 	0.69490 0.40100 0.46784 -0.39000
O 	O 	0.58067 0.31611 0.43893 -0.39000
O 	O 	0.72257 0.32437 0.39344 -0.36500
C 	C 	0.74356 0.27040 0.46511 0.28900
O 	O 	0.65054 0.31575 0.55481 -0.37700
O 	O 	0.72414 0.33401 0.57848 -0.42200
H 	H 	0.63507 0.27057 0.43165 0.16500
H 	H 	0.74326 0.37894 0.51932 0.17400
C 	C 	0.63649 0.30289 0.67715 -0.11400
C 	C 	0.67542 0.34008 0.70479 0.00300
C 	C 	0.71450 0.37747 0.69209 0.11800
C 	C 	0.71630 0.37545 0.65218 -0.03500
C 	C 	0.67895 0.33653 0.62468 -0.12400
C 	C 	0.63818 0.30083 0.63721 0.18800
C 	C 	0.67815 0.33655 0.74654 0.00600
O 	O 	0.75220 0.41473 0.71881 -0.27800
H 	H 	0.74747 0.40341 0.64273 0.05300
O 	O 	0.60058 0.26330 0.61060 -0.28500
H 	H 	0.60591 0.27436 0.68674 0.06900
C 	C 	0.64959 0.34148 0.76894 0.11400
C 	C 	0.65066 0.33539 0.80794 -0.03100
C 	C 	0.67971 0.32381 0.82460 -0.12500
C 	C 	0.70926 0.32024 0.80243 0.19100
C 	C 	0.70800 0.32613 0.76350 -0.11200
O 	O 	0.62143 0.35321 0.75306 -0.27300
H 	H 	0.62819 0.33872 0.82491 0.05800
O 	O 	0.73888 0.31030 0.81862 -0.30300
H 	H 	0.73007 0.32231 0.74635 0.07500
H 	H 	0.60722 0.23983 0.60832 0.13800
H 	H 	0.59019 0.32312 0.74198 0.14400
H 	H 	0.76926 0.34102 0.83016 0.14000
H 	H 	0.74460 0.43738 0.72270 0.14900
C 	C 	0.71468 0.30474 0.17930 -0.11400
C 	C 	0.68053 0.29810 0.20125 0.00400
C 	C 	0.63736 0.28768 0.18236 0.12300
C 	C 	0.62933 0.28570 0.14202 -0.03600
C 	C 	0.66408 0.29380 0.12014 -0.11900
C 	C 	0.70671 0.30281 0.13887 0.18700
C 	C 	0.69157 0.30605 0.24430 0.00500
O 	O 	0.60391 0.28161 0.20361 -0.27500
H 	H 	0.59619 0.27820 0.12777 0.06200
O 	O 	0.74066 0.30995 0.11780 -0.28500
H 	H 	0.74788 0.31250 0.19372 0.07100
C 	C 	0.67144 0.26811 0.26396 0.11800
C 	C 	0.67515 0.27582 0.30464 -0.03600
C 	C 	0.69911 0.32125 0.32580 -0.12100
C 	C 	0.72222 0.35935 0.30645 0.19500
C 	C 	0.71820 0.35162 0.26581 -0.11400
O 	O 	0.64599 0.22340 0.24326 -0.27800
H 	H 	0.65793 0.24639 0.31950 0.04900
O 	O 	0.74693 0.40405 0.32703 -0.28600
H 	H 	0.73435 0.38099 0.25085 0.07300
H 	H 	0.76164 0.34404 0.11841 0.13900
H 	H 	0.66955 0.21663 0.24172 0.14600
H 	H 	0.77996 0.41420 0.33492 0.14900
H 	H 	0.58278 0.24768 0.20366 0.15400
C 	C 	0.92489 0.88190 0.43661 -0.02400
C 	C 	0.89177 0.86150 0.46145 -0.01400
C 	C 	0.87113 0.81533 0.46570 -0.05400
C 	C 	0.88333 0.78929 0.44504 0.03300
C 	C 	0.91510 0.80908 0.41927 -0.05400
C 	C 	0.93580 0.85516 0.41504 -0.01400
C 	C 	0.86468 0.74285 0.45125 -0.02400
C 	C 	0.84975 0.70392 0.45574 -0.00300
C 	C 	0.83303 0.65832 0.46035 0.00200
C 	C 	0.81908 0.61931 0.46366 -0.03000
C 	C 	0.80251 0.57249 0.46674 0.04600
C 	C 	0.76844 0.54758 0.48974 -0.07100
C 	C 	0.74939 0.50084 0.49009 0.01600
C 	C 	0.76412 0.47858 0.46720 -0.08900
C 	C 	0.79971 0.50429 0.44540 0.01900
C 	C 	0.81873 0.55102 0.44517 -0.07100
H 	H 	0.88308 0.88175 0.47828 0.03900
H 	H 	0.84637 0.80016 0.48553 0.04700
H 	H 	0.92436 0.78902 0.40296 0.04700
H 	H 	0.96084 0.87030 0.39542 0.03900
H 	H 	0.75605 0.56410 0.50679 0.05100
H 	H 	0.72257 0.48174 0.50755 0.03300
H 	H 	0.81151 0.48773 0.42762 0.04100
H 	H 	0.84530 0.57018 0.42751 0.05200
C 	C 	0.75994 0.24096 0.45705 -0.09700
C 	C 	0.78758 0.24819 0.42815 0.02000
C 	C 	0.80472 0.22161 0.42200 -0.07300
C 	C 	0.79426 0.18757 0.44454 0.04600
C 	C 	0.76602 0.17969 0.47281 -0.07500
C 	C 	0.74891 0.20616 0.47907 0.01600
C 	C 	0.81368 0.16166 0.43965 -0.03200
C 	C 	0.82943 0.13945 0.43622 0.00100
C 	C 	0.84795 0.11344 0.43310 -0.00400
C 	C 	0.86403 0.09145 0.43103 -0.02400
C 	C 	0.88378 0.06563 0.42906 0.03200
C 	C 	0.91961 0.07790 0.40734 -0.05400
C 	C 	0.94105 0.05499 0.40747 -0.01500
C 	C 	0.92687 0.01960 0.42946 -0.02400
C 	C 	0.89011 0.00659 0.45046 -0.01500
C 	C 	0.86871 0.02960 0.45028 -0.05400
H 	H 	0.79596 0.27442 0.41057 0.03900
H 	H 	0.82640 0.22777 0.39995 0.05200
H 	H 	0.75774 0.15337 0.49030 0.04900
H 	H 	0.72766 0.20002 0.50144 0.02100
H 	H 	0.93129 0.10558 0.39073 0.04700
H 	H 	0.96889 0.06494 0.39070 0.04100
H 	H 	0.87889 0.97949 0.46763 0.04000
H 	H 	0.84097 0.01989 0.46712 0.04600
C 	C 	0.07457 0.03263 0.43507 -0.02400
C 	C 	0.10434 0.07930 0.45472 -0.01500
C 	C 	0.15354 0.10547 0.45674 -0.05400
C 	C 	0.17331 0.08525 0.43914 0.03200
C 	C 	0.14369 0.03896 0.41904 -0.05400
C 	C 	0.09452 0.01273 0.41697 -0.01500
C 	C 	0.22407 0.11169 0.44226 -0.02400
C 	C 	0.26651 0.13351 0.44471 -0.00300
C 	C 	0.31616 0.15877 0.44752 0.00200
C 	C 	0.35856 0.18022 0.44987 -0.03000
C 	C 	0.40919 0.20582 0.45260 0.04600
C 	C 	0.43824 0.21643 0.48836 -0.07000
C 	C 	0.48747 0.24165 0.49112 0.01800
C 	C 	0.50800 0.25649 0.45803 -0.08600
C 	C 	0.47865 0.24545 0.42216 0.01700
C 	C 	0.42946 0.22024 0.41950 -0.07100
H 	H 	0.08950 0.09504 0.46899 0.04100
H 	H 	0.17627 0.14128 0.47229 0.04700
H 	H 	0.15875 0.02320 0.40521 0.04700
H 	H 	0.07195 0.97698 0.40131 0.04000
H 	H 	0.42277 0.20534 0.51407 0.05300
H 	H 	0.50961 0.25013 0.51904 0.04500
H 	H 	0.49390 0.25622 0.39631 0.02900
H 	H 	0.40715 0.21198 0.39172 0.05100
C 	C 	0.94107 0.90023 0.98994 -0.02600
C 	C 	0.95079 0.87413 0.96583 -0.01400
C 	C 	0.92520 0.82610 0.96420 -0.05400
C 	C 	0.88969 0.80375 0.98656 0.03000
C 	C 	0.87932 0.82949 0.01016 -0.05200
C 	C 	0.90487 0.87758 0.01185 -0.01300
C 	C 	0.86473 0.75461 0.98596 -0.02400
C 	C 	0.84411 0.71345 0.98519 -0.00400
C 	C 	0.82035 0.66532 0.98428 0.00200
C 	C 	0.80021 0.62424 0.98357 -0.03100
C 	C 	0.77617 0.57519 0.98288 0.04800
C 	C 	0.79735 0.55376 0.97137 -0.07300
C 	C 	0.77431 0.50623 0.97124 0.02000
C 	C 	0.72986 0.47981 0.98267 -0.08900
C 	C 	0.70865 0.50144 0.99398 0.01800
C 	C 	0.73177 0.54894 0.99409 -0.07500
H 	H 	0.97817 0.89104 0.94838 0.04100
H 	H 	0.93323 0.80633 0.94575 0.04700
H 	H 	0.85183 0.81237 0.02750 0.04700
H 	H 	0.89714 0.89731 0.03069 0.04100
H 	H 	0.83173 0.57392 0.96270 0.05100
H 	H 	0.79124 0.49012 0.96270 0.03100
H 	H 	0.67415 0.48143 0.00245 0.03500
H 	H 	0.71517 0.56531 0.00292 0.05300
C 	C 	0.74979 0.23148 0.99943 -0.09700
C 	C 	0.79854 0.25801 0.99808 0.01600
C 	C 	0.82345 0.23890 0.00340 -0.07200
C 	C 	0.80000 0.19332 0.01033 0.04700
C 	C 	0.75201 0.16758 0.01365 -0.07300
C 	C 	0.72697 0.18656 0.00829 0.02300
C 	C 	0.82407 0.17170 0.01092 -0.03100
C 	C 	0.84426 0.15364 0.01140 0.00200
C 	C 	0.86740 0.13199 0.01098 -0.00300
C 	C 	0.88659 0.11296 0.00988 -0.02400
C 	C 	0.90875 0.08951 0.00775 0.03400
C 	C 	0.88314 0.04390 0.98663 -0.05600
C 	C 	0.90479 0.02132 0.98369 -0.01800
C 	C 	0.95233 0.04425 0.00193 -0.01900
C 	C 	0.97790 0.08999 0.02320 -0.01500
C 	C 	0.95613 0.11251 0.02606 -0.05400
H 	H 	0.81692 0.29306 0.99215 0.03000
H 	H 	0.86070 0.25915 0.00117 0.05000
H 	H 	0.73375 0.13241 0.01930 0.05200
H 	H 	0.68952 0.16578 0.00979 0.03800
H 	H 	0.84652 0.02599 0.97229 0.04600
H 	H 	0.88476 0.98623 0.96689 0.04200
H 	H 	0.01443 0.10794 0.03774 0.04100
H 	H 	0.97613 0.14781 0.04245 0.04700
C 	C 	0.09382 0.04932 0.99170 -0.02600
C 	C 	0.11403 0.08453 0.96922 -0.01500
C 	C 	0.16120 0.10659 0.96450 -0.05400
C 	C 	0.18842 0.09372 0.98230 0.03000
C 	C 	0.16875 0.05957 0.00561 -0.05200
C 	C 	0.12166 0.03746 0.01033 -0.01300
C 	C 	0.23617 0.11468 0.97599 -0.02400
C 	C 	0.27624 0.13159 0.97127 -0.00400
C 	C 	0.32327 0.15084 0.96649 0.00200
C 	C 	0.36366 0.16711 0.96324 -0.03100
C 	C 	0.41223 0.18662 0.96053 0.04600
C 	C 	0.44218 0.23200 0.95338 -0.07200
C 	C 	0.49086 0.25346 0.95621 0.01600
C 	C 	0.51004 0.22975 0.96661 -0.09000
C 	C 	0.47931 0.18317 0.97134 0.01800
C 	C 	0.43065 0.16184 0.96848 -0.07200
H 	H 	0.09290 0.09393 0.95462 0.04000
H 	H 	0.17631 0.13317 0.94659 0.04700
H 	H 	0.18976 0.04975 0.01972 0.04700
H 	H 	0.10668 0.01080 0.02816 0.04100
H 	H 	0.42803 0.25116 0.94676 0.05000
H 	H 	0.51379 0.28900 0.95157 0.03300
H 	H 	0.49322 0.16393 0.97835 0.03700
H 	H 	0.40753 0.12649 0.97357 0.05100
