data_crystal

_cell_length_a 17.47328
_cell_length_b 14.47031
_cell_length_c 31.19204
_cell_angle_alpha 89.86916
_cell_angle_beta  89.87176
_cell_angle_gamma 119.50150

_symmetry_space_group_name_	'P 1'
_symmetry_space_group_name_H-M	'P 1'

loop_
_symmetry_equiv_pos_as_xyz
  x,y,z

loop_
_atom_site_label
_atom_site_type_symbol
_atom_site_fract_x
_atom_site_fract_y
_atom_site_fract_z
_atom_site_charge
Ni	Ni	0.12901 0.04312 0.79480 1.10700
Ni	Ni	0.10269 0.20123 0.72695 1.11900
O 	O 	0.00200 0.86644 0.30619 -0.37300
C 	C 	0.08415 0.67062 0.89943 -0.08700
C 	C 	0.11617 0.70747 0.98715 -0.11400
H 	H 	0.07227 0.65593 0.86538 0.09000
H 	H 	0.12769 0.72053 0.02121 0.10900
C 	C 	0.21390 0.27711 0.80903 0.27800
C 	C 	0.26645 0.19122 0.73015 0.29600
O 	O 	0.16935 0.18328 0.82820 -0.37200
O 	O 	0.18333 0.30208 0.77411 -0.36200
O 	O 	0.24886 0.12530 0.76248 -0.37000
O 	O 	0.20324 0.18247 0.70492 -0.37800
C 	C 	0.23144 0.82941 0.43325 0.29900
C 	C 	0.09739 0.47813 0.45097 0.34100
C 	C 	0.22975 0.62288 0.32469 0.29000
Ni	Ni	0.26318 0.66147 0.48104 1.11700
Ni	Ni	0.25935 0.52421 0.39910 1.12800
Ni	Ni	0.35698 0.77750 0.39197 1.12400
O 	O 	0.25105 0.79980 0.47076 -0.32500
O 	O 	0.27340 0.83357 0.39729 -0.36600
O 	O 	0.26656 0.52542 0.50188 -0.36200
O 	O 	0.30663 0.71172 0.33249 -0.36900
O 	O 	0.19168 0.54654 0.35346 -0.37000
O 	O 	0.13115 0.56504 0.47426 -0.37600
O 	O 	0.14750 0.43932 0.43584 -0.35600
O 	O 	0.27248 0.65319 0.42176 -0.71500
H 	H 	0.21747 0.65017 0.41256 0.17300
C 	C 	0.19241 0.64781 0.11642 0.31000
C 	C 	0.15653 0.37568 0.03103 0.29300
C 	C 	0.24986 0.69289 0.97943 0.33700
Ni	Ni	0.26958 0.50573 0.09947 1.11500
Ni	Ni	0.34900 0.74309 0.06114 1.12400
Ni	Ni	0.32711 0.55708 0.99855 1.12100
O 	O 	0.31484 0.76751 0.00180 -0.35500
O 	O 	0.21793 0.58529 0.13404 -0.37100
O 	O 	0.22273 0.69068 0.07885 -0.38400
O 	O 	0.43579 0.69505 0.97763 -0.34700
O 	O 	0.16193 0.44306 0.05994 -0.37000
O 	O 	0.22218 0.40441 0.00362 -0.32300
O 	O 	0.24158 0.59816 0.97510 -0.36500
O 	O 	0.33333 0.60464 0.05609 -0.71300
C 	C 	0.02827 0.11159 0.16038 0.29600
C 	C 	0.06961 0.26425 0.25712 0.28400
C 	C 	0.03788 0.85209 0.21063 0.30300
C 	C 	0.06002 0.95265 0.32730 0.29000
Ni	Ni	0.08795 0.06502 0.24406 1.11600
O 	O 	0.09513 0.93234 0.23348 -0.37500
O 	O 	0.07537 0.07426 0.17915 -0.38200
O 	O 	0.10671 0.04549 0.30691 -0.38100
O 	O 	0.12131 0.22117 0.25256 -0.37200
C 	C 	0.13860 0.20215 0.05359 -0.02600
C 	C 	0.09906 0.26210 0.04098 -0.03600
C 	C 	0.01408 0.23022 0.05639 -0.02900
C 	C 	0.03736 0.13271 0.11361 -0.08200
C 	C 	0.11020 0.14098 0.09113 0.00700
H 	H 	0.19813 0.21450 0.03821 0.09200
H 	H 	0.14862 0.10756 0.10429 0.04600
C 	C 	0.07695 0.70029 0.12358 -0.00200
C 	C 	0.14325 0.68560 0.14226 -0.06700
C 	C 	0.16777 0.71591 0.18487 -0.00400
C 	C 	0.12934 0.76477 0.20803 -0.00700
C 	C 	0.06699 0.78545 0.18857 -0.06100
C 	C 	0.03897 0.75028 0.14668 -0.00500
H 	H 	0.05592 0.67461 0.09104 0.06600
H 	H 	0.21952 0.70601 0.19940 0.05200
H 	H 	0.14999 0.78956 0.24072 0.05300
C 	C 	0.24530 0.55242 0.25669 -0.00700
C 	C 	0.19987 0.59204 0.28061 -0.06200
C 	C 	0.10838 0.54226 0.27448 -0.00100
C 	C 	0.06270 0.43368 0.26437 -0.00500
C 	C 	0.11057 0.38193 0.25408 -0.05500
C 	C 	0.20131 0.44483 0.24519 -0.00900
H 	H 	0.31641 0.59725 0.25469 0.04600
H 	H 	0.07207 0.57976 0.28637 0.05500
H 	H 	0.23847 0.40930 0.23244 0.04400
C 	C 	0.08455 0.80899 0.42274 0.00600
C 	C 	0.17370 0.87662 0.43194 -0.06000
C 	C 	0.21159 0.98365 0.41913 0.06600
C 	C 	0.17127 0.01311 0.38706 -0.06100
C 	C 	0.08965 0.93713 0.37030 -0.01600
C 	C 	0.04279 0.83846 0.39150 -0.01800
H 	H 	0.05166 0.72828 0.43493 0.05400
H 	H 	0.27804 0.03979 0.42886 0.05300
H 	H 	0.20614 0.09227 0.37346 0.07300
F 	F 	0.37513 0.98868 0.49849 -0.43500
H 	H 	0.36092 0.01061 0.58039 0.08300
C 	C 	0.00342 0.40926 0.45552 -0.13100
H 	H 	0.01286 0.33112 0.51231 0.09100
C 	C 	0.34987 0.34832 0.50090 0.34000
F 	F 	0.27722 0.27708 0.47938 -0.44700
C 	C 	0.47279 0.37297 0.66678 -0.01300
C 	C 	0.42615 0.28146 0.74827 0.00000
C 	C 	0.35983 0.26361 0.71864 -0.06800
C 	C 	0.38370 0.31498 0.67856 0.00200
H 	H 	0.49030 0.40815 0.63523 0.07400
H 	H 	0.40937 0.24669 0.78006 0.04700
H 	H 	0.33379 0.30702 0.65601 0.05300
C 	C 	0.18255 0.71304 0.96045 -0.11200
C 	C 	0.16826 0.70236 0.91589 0.33700
F 	F 	0.23345 0.71322 0.88905 -0.42600
F 	F 	0.50929 0.81427 0.90877 -0.42600
C 	C 	0.36981 0.27320 0.00334 0.38500
F 	F 	0.30319 0.26767 0.97920 -0.48400
H 	H 	0.40807 0.19737 0.95558 0.10300
C 	C 	0.31380 0.34966 0.87176 -0.00500
C 	C 	0.29755 0.35793 0.82827 -0.05100
C 	C 	0.36861 0.42513 0.80165 -0.00700
H 	H 	0.25961 0.30624 0.89382 0.07400
H 	H 	0.35710 0.43986 0.76888 0.05300
O 	O 	0.30945 0.39834 0.07737 -0.37700
C 	C 	0.42181 0.23289 0.98716 -0.15600
H 	H 	0.39320 0.61916 0.06297 0.16200
H 	H 	0.40329 0.24253 0.50546 0.10800
H 	H 	0.06790 0.80899 0.66994 0.05600
C 	C 	0.39443 0.33227 0.04146 -0.15400
C 	C 	0.45509 0.46086 0.81553 -0.00100
C 	C 	0.37026 0.41437 0.04785 0.34700
C 	C 	0.31655 0.49208 0.48350 0.36000
C 	C 	0.49028 0.78180 0.00033 0.37300
O 	O 	0.47167 0.79774 0.03986 -0.39700
C 	C 	0.40927 0.95391 0.52948 0.31500
C 	C 	0.54830 0.41939 0.86422 0.30200
C 	C 	0.57780 0.28328 0.98152 0.32700
Ni	Ni	0.61662 0.27570 0.88953 1.12100
O 	O 	0.57140 0.22140 0.94926 -0.38500
O 	O 	0.54232 0.34758 0.89185 -0.38100
O 	O 	0.64907 0.37528 0.98734 -0.35700
C 	C 	0.51486 0.07636 0.62422 0.32700
C 	C 	0.55749 0.36698 0.54719 0.35200
C 	C 	0.61076 0.36624 0.67615 0.30000
O 	O 	0.61442 0.28048 0.68592 -0.37700
O 	O 	0.52571 0.15816 0.60314 -0.39300
O 	O 	0.58101 0.08872 0.64817 -0.34300
O 	O 	0.59610 0.40442 0.58365 -0.37000
C 	C 	0.43581 0.83994 0.47917 0.34700
C 	C 	0.44091 0.66022 0.36593 0.30400
O 	O 	0.36402 0.57565 0.35806 -0.37100
O 	O 	0.33771 0.51169 0.44307 -0.37400
O 	O 	0.39694 0.73897 0.48443 -0.39000
O 	O 	0.42214 0.87665 0.44296 -0.33900
O 	O 	0.44616 0.73086 0.39319 -0.38300
C 	C 	0.42299 0.69134 0.13920 0.27900
O 	O 	0.40018 0.49390 0.01982 -0.36200
O 	O 	0.37731 0.58622 0.13880 -0.36700
O 	O 	0.38924 0.74970 0.12365 -0.36500
C 	C 	0.50951 0.74322 0.16025 -0.05800
C 	C 	0.52703 0.68950 0.19303 -0.00900
H 	H 	0.47384 0.61896 0.20762 0.04800
C 	C 	0.51573 0.69041 0.33713 -0.06700
C 	C 	0.53372 0.76968 0.30632 -0.01200
H 	H 	0.48061 0.77965 0.29354 0.04100
C 	C 	0.39956 0.97296 0.57253 -0.08000
C 	C 	0.45967 0.97408 0.60263 -0.12800
C 	C 	0.49582 0.90854 0.59427 0.34300
C 	C 	0.49994 0.87893 0.55187 -0.09600
C 	C 	0.45788 0.90345 0.51863 -0.14200
F 	F 	0.53255 0.88046 0.62635 -0.43600
C 	C 	0.43753 0.52249 0.53226 -0.08500
C 	C 	0.36283 0.45052 0.50952 -0.12900
C 	C 	0.41410 0.32146 0.51229 -0.08900
C 	C 	0.49197 0.39653 0.53226 -0.12700
C 	C 	0.53780 0.37676 0.69441 -0.04700
C 	C 	0.51446 0.34422 0.73702 -0.01200
H 	H 	0.56463 0.35427 0.75980 0.06200
C 	C 	0.62479 0.99190 0.91872 -0.06900
C 	C 	0.68023 0.07520 0.94632 -0.12000
C 	C 	0.63611 0.94750 0.00486 -0.01000
C 	C 	0.56888 0.86998 0.97923 -0.17400
C 	C 	0.56821 0.89033 0.93518 0.34900
H 	H 	0.62094 0.00750 0.88504 0.08100
C 	C 	0.50042 0.25698 0.00784 -0.07200
C 	C 	0.51236 0.29247 0.05049 0.32300
C 	C 	0.45982 0.33181 0.06712 -0.07000
H 	H 	0.47587 0.37169 0.09784 0.08700
F 	F 	0.58226 0.30295 0.07329 -0.42900
C 	C 	0.46963 0.43027 0.85610 -0.06200
C 	C 	0.39998 0.38720 0.88574 0.00100
H 	H 	0.50935 0.50330 0.79343 0.05300
H 	H 	0.41185 0.37436 0.91863 0.07300
O 	O 	0.10193 0.91331 0.75647 -0.35000
C 	C 	0.50281 0.49711 0.54259 0.33600
H 	H 	0.44846 0.60159 0.53887 0.09900
C 	C 	0.71221 0.18750 0.93286 0.32400
O 	O 	0.62172 0.47748 0.84282 -0.36600
O 	O 	0.68881 0.20410 0.89467 -0.39200
O 	O 	0.64032 0.30111 0.82515 -0.37400
Ni	Ni	0.61966 0.20571 0.55648 1.11600
Ni	Ni	0.69085 0.23678 0.65509 1.12600
O 	O 	0.56607 0.29221 0.52769 -0.36200
O 	O 	0.67887 0.44814 0.65789 -0.36900
C 	C 	0.57882 0.83612 0.14264 -0.01000
C 	C 	0.61336 0.72413 0.20603 -0.00400
H 	H 	0.56633 0.87840 0.11738 0.05600
H 	H 	0.53173 0.83239 0.54513 0.10300
H 	H 	0.68476 0.91285 0.62406 0.09300
C 	C 	0.69080 0.05011 0.98873 0.27600
H 	H 	0.64198 0.93046 0.03815 0.08200
H 	H 	0.67105 0.19201 0.75392 0.03600
O 	O 	0.74808 0.26576 0.96206 -0.32600
Ni	Ni	0.71951 0.43885 0.59790 1.12700
O 	O 	0.66322 0.09494 0.57261 -0.35200
O 	O 	0.69526 0.29654 0.59891 -0.72000
H 	H 	0.62559 0.68066 0.23089 0.05100
C 	C 	0.58452 0.67499 0.35138 -0.00300
C 	C 	0.62079 0.84490 0.29631 -0.00500
H 	H 	0.57138 0.61212 0.37413 0.05000
H 	H 	0.63368 0.90875 0.27417 0.05000
F 	F 	0.57793 0.57151 0.56149 -0.44600
H 	H 	0.70248 0.76152 0.92712 0.06100
O 	O 	0.70511 0.57578 0.92173 -0.37600
O 	O 	0.72257 0.40386 0.90079 -0.71000
H 	H 	0.86693 0.47440 0.74601 0.06200
C 	C 	0.73561 0.21904 0.76751 -0.00700
H 	H 	0.76157 0.11499 0.72858 0.04800
Ni	Ni	0.76362 0.41711 0.95849 1.13200
O 	O 	0.80336 0.36407 0.67772 -0.35900
C 	C 	0.66521 0.87193 0.15609 -0.00400
C 	C 	0.75299 0.96180 0.61517 0.00200
H 	H 	0.79752 0.89194 0.66313 0.04100
C 	C 	0.72123 0.35611 0.80939 0.28400
O 	O 	0.75972 0.17389 0.62970 -0.35600
C 	C 	0.68323 0.81551 0.18762 -0.06700
C 	C 	0.73576 0.11469 0.59477 0.30200
H 	H 	0.02505 0.90847 0.91949 0.05500
C 	C 	0.76286 0.62528 0.95113 0.29300
H 	H 	0.76517 0.38793 0.88683 0.15900
C 	C 	0.69055 0.83721 0.31494 -0.06300
C 	C 	0.67155 0.74894 0.34112 -0.00700
F 	F 	0.75203 0.12518 0.01467 -0.41700
C 	C 	0.78692 0.17542 0.75321 -0.01100
C 	C 	0.77307 0.79368 0.92561 -0.01500
H 	H 	0.78938 0.90104 0.87400 0.05800
H 	H 	0.75220 0.30626 0.58906 0.19400
Ni	Ni	0.74566 0.52641 0.86929 1.11300
O 	O 	0.79805 0.57415 0.97081 -0.32200
C 	C 	0.76937 0.30046 0.79799 -0.07100
O 	O 	0.71506 0.28001 0.51086 -0.36400
H 	H 	0.71809 0.94301 0.14169 0.05600
C 	C 	0.77810 0.04957 0.58786 -0.05400
C 	C 	0.81738 0.95056 0.63774 0.02400
H 	H 	0.94041 0.64215 0.78606 0.04800
O 	O 	0.75825 0.45065 0.53439 -0.35800
C 	C 	0.82228 0.87220 0.89506 -0.00800
O 	O 	0.05498 0.08138 0.76476 -0.72000
C 	C 	0.91179 0.54653 0.72943 -0.00900
O 	O 	0.76678 0.45994 0.81505 -0.36900
C 	C 	0.85258 0.45912 0.65924 0.29800
C 	C 	0.81229 0.74315 0.94802 -0.05500
H 	H 	0.72420 0.73900 0.35450 0.05000
C 	C 	0.01368 0.64553 0.92752 -0.12700
C 	C 	0.77518 0.38062 0.51447 0.33000
O 	O 	0.83939 0.47905 0.61942 -0.36400
C 	C 	0.77405 0.85691 0.20361 0.30400
C 	C 	0.78315 0.91410 0.30366 0.30200
O 	O 	0.79076 0.80340 0.23286 -0.37300
C 	C 	0.03078 0.66622 0.97163 0.32400
C 	C 	0.95349 0.64185 0.75209 0.00400
O 	O 	0.80198 0.00016 0.27999 -0.37800
C 	C 	0.85310 0.33466 0.81545 -0.00200
C 	C 	0.87195 0.21256 0.76971 -0.05400
O 	O 	0.89072 0.07158 0.74072 -0.39200
H 	H 	0.83880 0.46589 0.43656 0.09300
H 	H 	0.04052 0.11543 0.78835 0.14500
C 	C 	0.92074 0.54674 0.68474 -0.05200
O 	O 	0.91169 0.96888 0.81716 -0.36800
H 	H 	0.87967 0.39721 0.83918 0.04100
O 	O 	0.88295 0.47655 0.93126 -0.36400
O 	O 	0.83575 0.94932 0.19051 -0.37600
C 	C 	0.86517 0.10185 0.57273 -0.00400
C 	C 	0.90405 0.29110 0.80131 -0.00800
C 	C 	0.90690 0.02325 0.63078 -0.07800
O 	O 	0.84453 0.88959 0.31333 -0.38000
C 	C 	0.91198 0.90510 0.88928 -0.05500
C 	C 	0.86229 0.41226 0.49734 -0.12800
Ni	Ni	0.93791 0.97194 0.75343 1.12600
O 	O 	0.88058 0.60758 0.88836 -0.36700
C 	C 	0.87988 0.44213 0.45403 -0.08500
C 	C 	0.92822 0.17162 0.75336 0.29000
H 	H 	0.88427 0.16083 0.54762 0.06800
C 	C 	0.90428 0.79682 0.95067 -0.01000
Ni	Ni	0.90351 0.07056 0.23327 1.10900
Ni	Ni	0.90606 0.85686 0.26627 1.12400
F 	F 	0.89844 0.34726 0.56039 -0.46400
C 	C 	0.91218 0.37385 0.51824 0.33200
O 	O 	0.03917 0.13902 0.67064 -0.36500
C 	C 	0.02549 0.73566 0.68684 -0.00300
O 	O 	0.02874 0.94615 0.83813 -0.35500
O 	O 	0.01069 0.24099 0.74276 -0.37200
H 	H 	0.92249 0.15217 0.10801 0.04900
C 	C 	0.93042 0.09251 0.59539 0.01100
C 	C 	0.92304 0.57212 0.91366 0.32800
C 	C 	0.02123 0.83766 0.74954 0.30200
O 	O 	0.95457 0.84496 0.76489 -0.38000
H 	H 	0.93665 0.77269 0.97382 0.08100
O 	O 	0.95959 0.96399 0.69093 -0.37200
C 	C 	0.95614 0.95042 0.84747 0.28500
C 	C 	0.94885 0.43785 0.43279 0.33800
C 	C 	0.95439 0.87566 0.92041 0.00100
O 	O 	0.95355 0.81803 0.21499 -0.37400
F 	F 	0.96335 0.63287 0.00005 -0.43900
C 	C 	0.97216 0.04199 0.66495 0.29100
H 	H 	0.96901 0.31920 0.81463 0.05400
O 	O 	0.96543 0.00714 0.25614 -0.71900
F 	F 	0.97022 0.47566 0.39210 -0.45000
H 	H 	0.97069 0.03405 0.28563 0.16000
H 	H 	0.97791 0.26753 0.04411 0.08200
C 	C 	0.97484 0.36056 0.49555 -0.08000
H 	H 	0.97675 0.78156 0.38154 0.05900
C 	C 	0.98364 0.64023 0.66414 -0.00500
C 	C 	0.00534 0.73770 0.73020 -0.06300
C 	C 	0.98354 0.16650 0.09321 0.02400
O 	O 	0.98537 0.20600 0.26776 -0.36100
O 	O 	0.98898 0.15187 0.18337 -0.37800
H 	H 	0.99014 0.76487 0.13156 0.06400
H 	H 	0.99174 0.38948 0.26720 0.06000
H 	H 	0.99528 0.64056 0.63000 0.06100
H 	H 	0.99901 0.14402 0.58733 0.05900
