data_crystal

_cell_length_a 22.34456
_cell_length_b 22.39828
_cell_length_c 49.88464
_cell_angle_alpha 89.91722
_cell_angle_beta  89.91815
_cell_angle_gamma 119.84139

_symmetry_space_group_name_	'P 1'
_symmetry_space_group_name_H-M	'P 1'

loop_
_symmetry_equiv_pos_as_xyz
  x,y,z

loop_
_atom_site_label
_atom_site_type_symbol
_atom_site_fract_x
_atom_site_fract_y
_atom_site_fract_z
_atom_site_charge
C 	C 	0.66688 0.43764 0.97197 0.28800
C 	C 	0.63301 0.17659 0.93502 0.30600
C 	C 	0.78354 0.36236 0.98312 0.31000
C 	C 	0.52200 0.25285 0.92000 0.28900
C 	C 	0.81053 0.34669 0.90012 0.31400
C 	C 	0.71587 0.44501 0.88278 0.29400
Ni	Ni	0.63656 0.29309 0.96323 1.11300
Ni	Ni	0.66149 0.29475 0.89902 1.12400
Ni	Ni	0.76537 0.42309 0.93437 1.12100
O 	O 	0.61901 0.37186 0.97424 -0.36800
O 	O 	0.73255 0.45674 0.96660 -0.37200
O 	O 	0.74935 0.29149 0.89833 -0.38200
O 	O 	0.66588 0.22182 0.95370 -0.38100
O 	O 	0.61424 0.19544 0.91304 -0.36800
O 	O 	0.73313 0.46757 0.90773 -0.38600
O 	O 	0.71900 0.33830 0.99045 -0.36500
O 	O 	0.80068 0.37436 0.95793 -0.39200
O 	O 	0.70023 0.38128 0.87550 -0.36500
O 	O 	0.54073 0.23621 0.94312 -0.36300
O 	O 	0.56658 0.28427 0.90014 -0.37000
O 	O 	0.81687 0.40742 0.90454 -0.38400
O 	O 	0.67717 0.34359 0.93184 -0.71800
H 	H 	0.64866 0.36524 0.92885 0.16400
C 	C 	0.76238 0.40166 0.52845 0.28800
C 	C 	0.52693 0.16113 0.57384 0.30700
C 	C 	0.57169 0.33241 0.51550 0.31000
C 	C 	0.71367 0.23257 0.58980 0.28600
C 	C 	0.52960 0.34347 0.59758 0.31500
C 	C 	0.71657 0.44187 0.61475 0.29700
Ni	Ni	0.64297 0.26374 0.54206 1.11300
Ni	Ni	0.62188 0.28702 0.60510 1.12400
Ni	Ni	0.65178 0.40490 0.56241 1.12000
O 	O 	0.74068 0.33481 0.52903 -0.37000
O 	O 	0.71844 0.42548 0.53067 -0.37400
O 	O 	0.53326 0.28813 0.60310 -0.38400
O 	O 	0.54153 0.20119 0.55304 -0.38000
O 	O 	0.56515 0.18442 0.59556 -0.36100
O 	O 	0.72827 0.45167 0.58872 -0.39100
O 	O 	0.60920 0.30323 0.51093 -0.36300
O 	O 	0.56744 0.35198 0.53959 -0.39100
O 	O 	0.67295 0.37964 0.62505 -0.36400
O 	O 	0.67757 0.21001 0.56697 -0.36100
O 	O 	0.70292 0.27115 0.60722 -0.37000
O 	O 	0.58498 0.40137 0.59062 -0.38600
O 	O 	0.65585 0.32439 0.57034 -0.71500
H 	H 	0.70569 0.34423 0.57343 0.16400
C 	C 	0.94494 0.09511 0.72138 0.28400
C 	C 	0.96331 0.89116 0.78812 0.28100
C 	C 	0.97123 0.10056 0.79623 0.29600
C 	C 	0.94251 0.88905 0.71556 0.26200
C 	C 	0.15376 0.08449 0.78705 0.30900
C 	C 	0.14372 0.10234 0.70891 0.29000
Ni	Ni	0.92452 0.98017 0.75817 1.11200
Ni	Ni	0.06825 0.98057 0.74701 1.12400
Ni	Ni	0.07008 0.12312 0.75370 1.12600
O 	O 	0.90392 0.02880 0.72695 -0.36100
O 	O 	0.99230 0.13713 0.73885 -0.37700
O 	O 	0.11911 0.01832 0.78166 -0.37200
O 	O 	0.94812 0.94009 0.79117 -0.37000
O 	O 	0.00288 0.89367 0.76805 -0.34500
O 	O 	0.11299 0.13648 0.71746 -0.37900
O 	O 	0.91881 0.05254 0.78280 -0.36000
O 	O 	0.03389 0.11303 0.79139 -0.37100
O 	O 	0.14607 0.05383 0.72386 -0.36900
O 	O 	0.90506 0.89297 0.73565 -0.36400
O 	O 	0.01098 0.92864 0.71473 -0.35600
O 	O 	0.15605 0.12981 0.76968 -0.38200
O 	O 	0.01697 0.02745 0.74695 -0.71100
H 	H 	0.01064 0.02869 0.72747 0.16000
C 	C 	0.20108 0.71375 0.43149 0.29000
C 	C 	0.38238 0.61058 0.47587 0.30800
C 	C 	0.38917 0.80809 0.44722 0.30900
C 	C 	0.19058 0.51811 0.46340 0.28800
C 	C 	0.42487 0.67886 0.39199 0.31400
C 	C 	0.23526 0.56773 0.37611 0.29300
Ni	Ni	0.28818 0.66973 0.46655 1.11400
Ni	Ni	0.31106 0.57181 0.42474 1.12200
Ni	Ni	0.31445 0.70734 0.40343 1.12500
O 	O 	0.23547 0.72221 0.45449 -0.36200
O 	O 	0.22144 0.69941 0.40854 -0.37400
O 	O 	0.38094 0.61247 0.39453 -0.37600
O 	O 	0.33570 0.62223 0.48693 -0.36100
O 	O 	0.39170 0.61604 0.45001 -0.38500
O 	O 	0.27950 0.63522 0.37343 -0.36600
O 	O 	0.38329 0.75698 0.46179 -0.37600
O 	O 	0.35145 0.79566 0.42551 -0.36900
O 	O 	0.23677 0.53220 0.39712 -0.38100
O 	O 	0.19890 0.57726 0.47262 -0.36700
O 	O 	0.24399 0.51230 0.45466 -0.37000
O 	O 	0.41080 0.72438 0.40200 -0.38400
O 	O 	0.28691 0.64068 0.43115 -0.71700
H 	H 	0.23692 0.61401 0.42777 0.16300
C 	C 	0.51880 0.74928 0.08658 0.28900
C 	C 	0.25105 0.63374 0.02688 0.31100
C 	C 	0.41509 0.82891 0.06529 0.30900
C 	C 	0.35673 0.54980 0.04378 0.28600
C 	C 	0.23773 0.68168 0.10860 0.31500
C 	C 	0.32542 0.57824 0.13124 0.29100
Ni	Ni	0.39973 0.69948 0.04452 1.11400
Ni	Ni	0.26925 0.58699 0.07906 1.12200
Ni	Ni	0.38402 0.72252 0.10768 1.12400
O 	O 	0.49895 0.75768 0.06215 -0.36200
O 	O 	0.47539 0.72520 0.10718 -0.37500
O 	O 	0.22520 0.61779 0.10717 -0.38100
O 	O 	0.31363 0.64984 0.01917 -0.36200
O 	O 	0.23692 0.63207 0.05229 -0.38700
O 	O 	0.34239 0.64396 0.13528 -0.36700
O 	O 	0.37884 0.77880 0.04875 -0.37600
O 	O 	0.43494 0.81572 0.08833 -0.36300
O 	O 	0.29844 0.54612 0.10832 -0.38100
O 	O 	0.40831 0.61288 0.03900 -0.37100
O 	O 	0.29327 0.53790 0.04954 -0.36800
O 	O 	0.30079 0.73348 0.10635 -0.38300
O 	O 	0.36075 0.66196 0.07803 -0.71900
H 	H 	0.38633 0.63813 0.08274 0.16300
C 	C 	0.07806 0.91396 0.22675 0.28600
C 	C 	0.05817 0.13426 0.28576 0.33100
C 	C 	0.05739 0.92722 0.30460 0.31500
C 	C 	0.09596 0.13443 0.22393 0.28800
C 	C 	0.86720 0.92417 0.28955 0.31400
C 	C 	0.88588 0.91279 0.21358 0.28600
Ni	Ni	0.10295 0.03656 0.26237 1.11300
Ni	Ni	0.95610 0.03190 0.24959 1.11400
Ni	Ni	0.95898 0.89235 0.25988 1.11400
O 	O 	0.11905 0.95968 0.24500 -0.34900
O 	O 	0.01038 0.87596 0.23039 -0.36100
O 	O 	0.86964 0.96532 0.27009 -0.37300
O 	O 	0.11022 0.12388 0.28087 -0.36800
O 	O 	0.99449 0.08371 0.28408 -0.40600
O 	O 	0.87986 0.87446 0.23488 -0.37800
O 	O 	0.08830 0.99372 0.30048 -0.35800
O 	O 	0.02662 0.88447 0.28479 -0.36500
O 	O 	0.91010 0.97998 0.21596 -0.37300
O 	O 	0.12109 0.09247 0.22731 -0.36700
O 	O 	0.02879 0.11306 0.22704 -0.35400
O 	O 	0.91549 0.90779 0.29202 -0.39900
O 	O 	0.01030 0.98793 0.25135 -0.70000
H 	H 	0.01682 0.98579 0.23190 0.16000
C 	C 	0.31873 0.42821 0.16556 -0.03700
C 	C 	0.26427 0.41169 0.18374 0.02200
C 	C 	0.24561 0.46135 0.18989 -0.05500
C 	C 	0.27394 0.52316 0.17535 0.02600
C 	C 	0.32115 0.53517 0.15435 -0.07200
C 	C 	0.34779 0.49048 0.15136 0.01200
C 	C 	0.22125 0.34023 0.19382 0.02200
C 	C 	0.24562 0.31660 0.21483 -0.05500
C 	C 	0.20669 0.24866 0.22410 0.02400
C 	C 	0.14139 0.20399 0.21268 -0.07000
C 	C 	0.11725 0.22779 0.19157 0.01300
C 	C 	0.15697 0.29528 0.18196 -0.03700
C 	C 	0.23440 0.22547 0.24524 0.07600
C 	C 	0.13171 0.31788 0.15974 0.09700
C 	C 	0.34241 0.37997 0.16028 0.09300
C 	C 	0.25189 0.57236 0.18125 0.08700
N 	N 	0.25702 0.20720 0.26213 -0.11200
N 	N 	0.11157 0.33608 0.14195 -0.11000
N 	N 	0.23426 0.61181 0.18604 -0.10600
N 	N 	0.36134 0.34128 0.15606 -0.11100
H 	H 	0.38653 0.50110 0.13610 0.04200
H 	H 	0.20620 0.45018 0.20490 0.05700
H 	H 	0.29532 0.35097 0.22379 0.05700
H 	H 	0.06753 0.19366 0.18257 0.05500
C 	C 	0.68603 0.76016 0.10502 -0.03700
C 	C 	0.71466 0.81917 0.12143 0.02100
C 	C 	0.68765 0.86364 0.12042 -0.05700
C 	C 	0.62627 0.84461 0.10667 0.02600
C 	C 	0.59301 0.78161 0.09256 -0.07300
C 	C 	0.62556 0.74194 0.09047 0.00900
C 	C 	0.76427 0.82879 0.14300 0.02400
C 	C 	0.83306 0.88171 0.14058 -0.06100
C 	C 	0.87527 0.90651 0.16331 0.03100
C 	C 	0.84831 0.87823 0.18881 -0.07700
C 	C 	0.78206 0.82036 0.19070 0.01200
C 	C 	0.74000 0.79555 0.16797 -0.03900
C 	C 	0.94588 0.96123 0.16035 0.05200
C 	C 	0.67063 0.73826 0.17068 0.09600
C 	C 	0.71672 0.71673 0.10387 0.09200
C 	C 	0.59423 0.88654 0.10955 0.07700
N 	N 	0.00243 0.00511 0.15799 -0.09300
N 	N 	0.61504 0.69238 0.17282 -0.11100
N 	N 	0.56906 0.92051 0.11223 -0.10400
N 	N 	0.74135 0.68193 0.10297 -0.11300
H 	H 	0.60114 0.69433 0.07915 0.03900
H 	H 	0.71120 0.91037 0.13229 0.05600
H 	H 	0.85253 0.90600 0.12125 0.05500
H 	H 	0.76187 0.79687 0.21009 0.05200
C 	C 	0.08096 0.84010 0.16043 -0.03500
C 	C 	0.12725 0.81583 0.16536 0.02300
C 	C 	0.16862 0.83755 0.18843 -0.05300
C 	C 	0.15836 0.87629 0.20803 0.02700
C 	C 	0.10830 0.89635 0.20395 -0.06900
C 	C 	0.07409 0.88259 0.17920 0.01200
C 	C 	0.13323 0.76791 0.14652 0.02600
C 	C 	0.15999 0.79090 0.12074 -0.05700
C 	C 	0.18201 0.75349 0.10524 0.03100
C 	C 	0.18291 0.69618 0.11650 -0.08300
C 	C 	0.14595 0.66712 0.14021 0.01600
C 	C 	0.12064 0.70263 0.15525 -0.03900
C 	C 	0.20751 0.77638 0.07838 0.08300
C 	C 	0.08361 0.67286 0.17989 0.10000
C 	C 	0.03731 0.81835 0.13699 0.09700
C 	C 	0.19727 0.89253 0.23264 0.09100
N 	N 	0.22796 0.79467 0.05687 -0.10600
N 	N 	0.05396 0.64907 0.19964 -0.10500
N 	N 	0.22855 0.90540 0.25233 -0.09700
N 	N 	0.00232 0.80094 0.11822 -0.10500
H 	H 	0.03704 0.89964 0.17569 0.05000
H 	H 	0.20676 0.82174 0.19162 0.05900
H 	H 	0.16667 0.83939 0.11331 0.05900
H 	H 	0.14173 0.61993 0.14798 0.05200
C 	C 	0.60313 0.72512 0.36940 -0.04000
C 	C 	0.61344 0.77094 0.34815 0.02400
C 	C 	0.55873 0.77954 0.33937 -0.05700
C 	C 	0.49530 0.74657 0.35267 0.03500
C 	C 	0.48557 0.70267 0.37461 -0.08100
C 	C 	0.53890 0.69052 0.38228 0.01800
C 	C 	0.68118 0.80983 0.33474 0.02500
C 	C 	0.70155 0.77585 0.31651 -0.05900
C 	C 	0.76235 0.81262 0.30171 0.03200
C 	C 	0.80298 0.88470 0.30483 -0.08600
C 	C 	0.78288 0.91869 0.32319 0.01800
C 	C 	0.72266 0.88155 0.33840 -0.04100
C 	C 	0.78221 0.77604 0.28315 0.06600
C 	C 	0.70400 0.91716 0.35788 0.09500
C 	C 	0.65876 0.71511 0.37863 0.09300
C 	C 	0.44084 0.75923 0.34407 0.07700
N 	N 	0.79790 0.74641 0.26837 -0.11800
N 	N 	0.68899 0.94563 0.37350 -0.11000
N 	N 	0.39728 0.76943 0.33719 -0.11100
N 	N 	0.70337 0.70713 0.38602 -0.11100
H 	H 	0.53147 0.65676 0.39912 0.04200
H 	H 	0.56623 0.81342 0.32257 0.06000
H 	H 	0.66950 0.72075 0.31365 0.05900
H 	H 	0.81452 0.97391 0.32583 0.04300
C 	C 	0.13634 0.29648 0.32718 -0.04500
C 	C 	0.10934 0.33437 0.31451 0.03000
C 	C 	0.06228 0.30472 0.29345 -0.06900
C 	C 	0.04281 0.23817 0.28459 0.06000
C 	C 	0.07206 0.20129 0.29654 -0.09600
C 	C 	0.11823 0.23064 0.31794 0.02700
C 	C 	0.13203 0.40601 0.32277 0.02300
C 	C 	0.19838 0.45831 0.31573 -0.05500
C 	C 	0.23099 0.51905 0.33075 0.02700
C 	C 	0.19599 0.52806 0.35261 -0.07200
C 	C 	0.12519 0.48178 0.35591 0.01600
C 	C 	0.09335 0.41995 0.34150 -0.04400
C 	C 	0.30236 0.56839 0.32528 0.08800
C 	C 	0.02250 0.36938 0.34727 0.12100
C 	C 	0.18258 0.32487 0.34972 0.09900
C 	C 	0.99318 0.20847 0.26316 0.03200
N 	N 	0.35961 0.60752 0.32077 -0.10300
N 	N 	0.96573 0.32882 0.35188 -0.13400
N 	N 	0.95326 0.18491 0.24604 -0.11500
N 	N 	0.21961 0.34771 0.36777 -0.11300
H 	H 	0.14012 0.20219 0.32738 0.04700
H 	H 	0.04100 0.33359 0.28389 0.06500
H 	H 	0.22685 0.44910 0.30020 0.05600
H 	H 	0.09696 0.49033 0.37175 0.04500
C 	C 	0.02123 0.83549 0.37137 -0.02000
C 	C 	0.08634 0.84320 0.37760 0.02000
C 	C 	0.14259 0.88194 0.36045 -0.05400
C 	C 	0.13421 0.91158 0.33705 0.03300
C 	C 	0.06839 0.90082 0.33013 -0.08100
C 	C 	0.01237 0.86336 0.34748 0.03600
C 	C 	0.09494 0.80534 0.40045 0.02900
C 	C 	0.06382 0.73338 0.39919 -0.05400
C 	C 	0.09016 0.69908 0.41443 0.02800
C 	C 	0.15037 0.73740 0.42977 -0.07400
C 	C 	0.17244 0.80684 0.43504 0.01300
C 	C 	0.14483 0.84108 0.42043 -0.04000
C 	C 	0.05873 0.62517 0.41255 0.08000
C 	C 	0.17003 0.91331 0.42513 0.09700
C 	C 	0.96362 0.79995 0.38953 0.06600
C 	C 	0.19336 0.95256 0.32016 0.08400
N 	N 	0.03359 0.56596 0.41104 -0.10800
N 	N 	0.19023 0.97121 0.42889 -0.10800
N 	N 	0.24081 0.98555 0.30668 -0.10000
N 	N 	0.91746 0.77145 0.40407 -0.10800
H 	H 	0.96196 0.85609 0.34242 0.02700
H 	H 	0.19270 0.88795 0.36514 0.05900
H 	H 	0.02258 0.70482 0.38500 0.06300
H 	H 	0.21563 0.83576 0.44841 0.04600
C 	C 	0.42208 0.96481 0.49051 -0.00500
C 	C 	0.39565 0.99124 0.50962 -0.03900
C 	C 	0.42520 0.00578 0.53531 0.00800
C 	C 	0.47419 0.98643 0.54224 0.00700
C 	C 	0.49866 0.95759 0.52325 -0.05600
C 	C 	0.47084 0.94556 0.49736 0.02200
S 	S 	0.37950 0.91978 0.46378 0.04000
C 	C 	0.42262 0.87723 0.45893 -0.07400
C 	C 	0.47169 0.89668 0.47955 -0.01800
S 	S 	0.52292 0.03900 0.56629 0.04000
C 	C 	0.48489 0.08676 0.56960 -0.07300
C 	C 	0.42996 0.06061 0.55117 -0.01400
H 	H 	0.35658 0.00427 0.50423 0.04800
H 	H 	0.53804 0.94488 0.52849 0.05400
H 	H 	0.49837 0.86861 0.48407 0.05300
H 	H 	0.40418 0.08895 0.54562 0.05000
C 	C 	0.95292 0.46293 0.51603 -0.01600
C 	C 	0.00310 0.44375 0.51954 -0.03300
C 	C 	0.02837 0.42671 0.49675 0.04600
C 	C 	0.99728 0.42081 0.47164 -0.04000
C 	C 	0.94373 0.43582 0.46858 -0.04100
C 	C 	0.92077 0.45556 0.49127 0.01800
S 	S 	0.89847 0.45771 0.53966 0.02700
C 	C 	0.83338 0.44801 0.52013 -0.06900
C 	C 	0.85396 0.44798 0.49344 -0.01600
S 	S 	0.05767 0.44002 0.44859 0.06600
C 	C 	0.12433 0.45640 0.46845 -0.07000
C 	C 	0.09831 0.44307 0.49480 -0.01900
H 	H 	0.02554 0.44698 0.53909 0.05600
H 	H 	0.92106 0.43274 0.44908 0.04800
H 	H 	0.81769 0.43002 0.47694 0.04700
H 	H 	0.13226 0.46025 0.51204 0.05300
C 	C 	0.49696 0.53216 0.49356 -0.00100
C 	C 	0.54693 0.51658 0.48451 -0.05200
C 	C 	0.52773 0.44696 0.48133 0.01900
C 	C 	0.45823 0.39554 0.48408 0.00200
C 	C 	0.40782 0.41176 0.49224 -0.05300
C 	C 	0.42785 0.48117 0.49644 0.02100
S 	S 	0.49949 0.60667 0.48875 0.03800
C 	C 	0.41483 0.57906 0.49158 -0.07400
C 	C 	0.38147 0.50729 0.49557 -0.02100
S 	S 	0.45742 0.32375 0.49291 0.03700
C 	C 	0.54246 0.35259 0.49341 -0.07600
C 	C 	0.57466 0.42236 0.48569 -0.02000
H 	H 	0.60000 0.55689 0.48174 0.05100
H 	H 	0.35479 0.37162 0.49524 0.05400
H 	H 	0.32632 0.47432 0.49309 0.05100
H 	H 	0.62927 0.45711 0.48883 0.04300
C 	C 	0.86743 0.21970 0.61121 -0.02800
C 	C 	0.83751 0.16822 0.63110 0.01900
C 	C 	0.76560 0.12882 0.63315 -0.05400
C 	C 	0.72348 0.14518 0.61771 0.02500
C 	C 	0.75347 0.20044 0.59926 -0.07000
C 	C 	0.82518 0.23511 0.59520 0.00400
C 	C 	0.88047 0.16026 0.65187 0.02400
C 	C 	0.89534 0.19873 0.67557 -0.05800
C 	C 	0.92044 0.18078 0.69812 0.02600
C 	C 	0.93128 0.12380 0.69693 -0.07500
C 	C 	0.92206 0.08928 0.67248 0.01000
C 	C 	0.89673 0.10718 0.65000 -0.03900
C 	C 	0.93281 0.21982 0.72253 0.08600
C 	C 	0.88610 0.06986 0.62526 0.09300
C 	C 	0.94133 0.25797 0.60756 0.06700
C 	C 	0.65005 0.10897 0.62268 0.08100
N 	N 	0.94281 0.25128 0.74204 -0.10700
N 	N 	0.87757 0.03998 0.60542 -0.11200
N 	N 	0.59134 0.07987 0.62695 -0.10200
N 	N 	0.00057 0.28860 0.60465 -0.08800
H 	H 	0.84842 0.27698 0.58081 0.03800
H 	H 	0.74253 0.08800 0.64799 0.05900
H 	H 	0.88418 0.24057 0.67683 0.05900
H 	H 	0.93254 0.04697 0.67121 0.03800
C 	C 	0.34287 0.25300 0.60170 -0.03800
C 	C 	0.33627 0.27093 0.62821 0.02500
C 	C 	0.38916 0.33261 0.63900 -0.05900
C 	C 	0.45316 0.36791 0.62593 0.02800
C 	C 	0.46365 0.34123 0.60197 -0.08300
C 	C 	0.40594 0.29060 0.58825 0.01700
C 	C 	0.28374 0.21906 0.64652 0.02200
C 	C 	0.30450 0.18776 0.66594 -0.05600
C 	C 	0.25803 0.14462 0.68551 0.02500
C 	C 	0.18864 0.12990 0.68498 -0.07100
C 	C 	0.16653 0.15561 0.66376 0.01200
C 	C 	0.21410 0.20224 0.64527 -0.03600
C 	C 	0.28302 0.11870 0.70669 0.08700
C 	C 	0.19162 0.23491 0.62589 0.09900
C 	C 	0.28757 0.19272 0.58915 0.09700
C 	C 	0.50962 0.42718 0.63851 0.08000
N 	N 	0.30319 0.09806 0.72365 -0.10400
N 	N 	0.17360 0.26108 0.61037 -0.10500
N 	N 	0.55495 0.47465 0.64858 -0.10400
N 	N 	0.24326 0.14441 0.57910 -0.10900
H 	H 	0.41272 0.27380 0.56865 0.04500
H 	H 	0.38265 0.34927 0.65866 0.05800
H 	H 	0.35776 0.19930 0.66645 0.05800
H 	H 	0.11303 0.14322 0.66287 0.04800
C 	C 	0.77315 0.62449 0.63426 -0.04100
C 	C 	0.80494 0.63015 0.65924 0.02600
C 	C 	0.80239 0.57163 0.67082 -0.05600
C 	C 	0.77196 0.50880 0.65695 0.02800
C 	C 	0.74101 0.50365 0.63176 -0.07500
C 	C 	0.73941 0.56104 0.62123 0.01900
C 	C 	0.84126 0.69741 0.67333 0.01500
C 	C 	0.80354 0.72851 0.68201 -0.04900
C 	C 	0.83738 0.79499 0.69274 0.01800
C 	C 	0.90914 0.82820 0.69769 -0.05700
C 	C 	0.94708 0.79743 0.68864 -0.02500
C 	C 	0.91373 0.73297 0.67609 -0.02600
C 	C 	0.79885 0.83023 0.69713 0.08200
C 	C 	0.95431 0.70403 0.66586 0.08300
C 	C 	0.77719 0.68422 0.62136 0.09300
C 	C 	0.77490 0.45095 0.66828 0.08200
N 	N 	0.76800 0.85847 0.70063 -0.10700
N 	N 	0.98678 0.68082 0.65767 -0.11400
N 	N 	0.77728 0.40461 0.67737 -0.10500
N 	N 	0.78046 0.73205 0.61103 -0.11200
H 	H 	0.71404 0.55682 0.60222 0.03600
H 	H 	0.82578 0.57557 0.69026 0.05700
H 	H 	0.74800 0.70198 0.67935 0.05900
H 	H 	0.00235 0.82291 0.69187 0.07000
C 	C 	0.95496 0.48701 0.01673 -0.01800
C 	C 	0.01119 0.55392 0.01426 -0.02800
C 	C 	0.07362 0.56223 0.00419 0.01800
C 	C 	0.07751 0.50510 0.99508 -0.00200
C 	C 	0.02130 0.43818 0.99753 -0.02600
C 	C 	0.95866 0.42992 0.00737 -0.00400
S 	S 	0.87312 0.46768 0.01489 0.02900
C 	C 	0.83855 0.38722 0.00316 -0.07900
C 	C 	0.89334 0.37353 0.00022 -0.01100
S 	S 	0.15957 0.52487 0.99669 0.04000
C 	C 	0.19397 0.60602 0.00767 -0.07500
C 	C 	0.13895 0.61930 0.01076 -0.01400
H 	H 	0.00713 0.59792 0.02072 0.05300
H 	H 	0.02536 0.39421 0.99102 0.05200
H 	H 	0.88839 0.33061 0.98849 0.04100
H 	H 	0.14408 0.66284 0.02210 0.05400
C 	C 	0.50917 0.00806 0.97140 -0.00500
C 	C 	0.45577 0.98091 0.99040 -0.04800
C 	C 	0.47100 0.96930 0.01651 0.01800
C 	C 	0.53890 0.98874 0.02361 0.00200
C 	C 	0.59200 0.01455 0.00457 -0.05800
C 	C 	0.57721 0.02730 0.97855 0.02000
S 	S 	0.51323 0.05777 0.94597 0.03500
C 	C 	0.59904 0.10348 0.94226 -0.07400
C 	C 	0.62751 0.07973 0.96186 -0.01900
S 	S 	0.53568 0.94292 0.05024 0.04400
C 	C 	0.45006 0.89952 0.05483 -0.07100
C 	C 	0.42097 0.91975 0.03417 -0.01800
H 	H 	0.40383 0.96810 0.98492 0.05300
H 	H 	0.64393 0.02751 0.01013 0.05100
H 	H 	0.68168 0.10802 0.96718 0.04900
H 	H 	0.36653 0.89124 0.02931 0.05600
C 	C 	0.55069 0.51248 0.98709 0.00300
C 	C 	0.48223 0.49662 0.98356 -0.04900
C 	C 	0.43795 0.47406 0.00587 0.02100
C 	C 	0.46055 0.46144 0.03037 0.00400
C 	C 	0.52857 0.47536 0.03362 -0.05200
C 	C 	0.57292 0.49874 0.01138 0.02000
S 	S 	0.59879 0.50732 0.96294 0.03800
C 	C 	0.64962 0.48872 0.98151 -0.07000
C 	C 	0.62937 0.48696 0.00836 -0.01500
S 	S 	0.41598 0.47268 0.05443 0.02800
C 	C 	0.36647 0.49271 0.03567 -0.06500
C 	C 	0.38336 0.48869 0.00880 -0.01600
H 	H 	0.46483 0.50486 0.96437 0.05600
H 	H 	0.54607 0.46701 0.05277 0.05300
H 	H 	0.64483 0.46422 0.02417 0.04800
H 	H 	0.36811 0.51054 0.99259 0.05000
C 	C 	0.90765 0.25379 0.89584 -0.04400
C 	C 	0.94191 0.28031 0.87124 0.02700
C 	C 	0.95233 0.34416 0.86218 -0.06300
C 	C 	0.91744 0.37424 0.87451 0.02800
C 	C 	0.87197 0.33986 0.89595 -0.08500
C 	C 	0.87401 0.28471 0.90839 0.01600
C 	C 	0.95027 0.23469 0.85208 0.00200
C 	C 	0.90208 0.20429 0.83139 -0.05300
C 	C 	0.90709 0.15936 0.81331 0.02900
C 	C 	0.96020 0.14277 0.81634 -0.09600
C 	C 	0.00766 0.17244 0.83747 0.03100
C 	C 	0.00381 0.21928 0.85493 -0.01900
C 	C 	0.85872 0.13239 0.79134 0.09000
C 	C 	0.05554 0.25203 0.87548 0.09700
C 	C 	0.90202 0.19176 0.90712 0.09100
C 	C 	0.92713 0.43908 0.86462 0.08200
N 	N 	0.81987 0.11085 0.77379 -0.10000
N 	N 	0.09696 0.27826 0.89195 -0.10900
N 	N 	0.93512 0.49118 0.85674 -0.10700
N 	N 	0.89752 0.14206 0.91615 -0.11600
H 	H 	0.84323 0.26137 0.92624 0.04400
H 	H 	0.98273 0.36724 0.84424 0.05500
H 	H 	0.86074 0.21611 0.82930 0.05900
H 	H 	0.04851 0.16008 0.83996 0.04800
C 	C 	0.35530 0.12472 0.88957 -0.03600
C 	C 	0.33311 0.16919 0.87934 0.02100
C 	C 	0.36251 0.23652 0.88921 -0.05400
C 	C 	0.41988 0.26248 0.90624 0.02500
C 	C 	0.44812 0.22073 0.91348 -0.07200
C 	C 	0.41217 0.15054 0.90689 0.01100
C 	C 	0.28696 0.14915 0.85565 0.02400
C 	C 	0.21529 0.10963 0.85916 -0.05600
C 	C 	0.17117 0.08890 0.83691 0.03000
C 	C 	0.19894 0.10831 0.81081 -0.07700
C 	C 	0.27052 0.14888 0.80737 0.01500
C 	C 	0.31463 0.16898 0.82957 -0.03900
C 	C 	0.09748 0.04874 0.84106 0.08600
C 	C 	0.38832 0.20909 0.82544 0.09700
C 	C 	0.32237 0.05361 0.88130 0.09200
C 	C 	0.45163 0.33302 0.91512 0.07600
N 	N 	0.03847 0.01659 0.84441 -0.09300
N 	N 	0.44736 0.24122 0.82217 -0.10900
N 	N 	0.47696 0.38958 0.92220 -0.11100
N 	N 	0.29594 0.99663 0.87466 -0.10400
H 	H 	0.43221 0.11753 0.91322 0.04600
H 	H 	0.34345 0.26995 0.88232 0.05700
H 	H 	0.19394 0.09470 0.87919 0.06000
H 	H 	0.29197 0.16373 0.78734 0.04900
C 	C 	0.74308 0.61078 0.85435 -0.03800
C 	C 	0.79156 0.62234 0.83401 0.02400
C 	C 	0.80179 0.56832 0.82573 -0.05700
C 	C 	0.76931 0.50512 0.83931 0.02600
C 	C 	0.72711 0.49635 0.86185 -0.07300
C 	C 	0.71014 0.54743 0.86777 0.01200
C 	C 	0.83503 0.69195 0.82250 0.01700
C 	C 	0.90253 0.73344 0.83200 -0.04600
C 	C 	0.94468 0.79939 0.82131 -0.00300
C 	C 	0.91888 0.82439 0.80109 -0.06500
C 	C 	0.85110 0.78324 0.79187 0.00700
C 	C 	0.80940 0.71698 0.80221 -0.03400
C 	C 	0.01408 0.84116 0.83127 0.11400
C 	C 	0.74068 0.67465 0.79170 0.09300
C 	C 	0.72896 0.66456 0.86227 0.09500
C 	C 	0.78011 0.45007 0.83013 0.09100
N 	N 	0.06969 0.87466 0.83924 -0.10300
N 	N 	0.68561 0.64072 0.78329 -0.10900
N 	N 	0.78871 0.40597 0.82271 -0.10400
N 	N 	0.71766 0.70768 0.86860 -0.11100
H 	H 	0.67522 0.53975 0.88425 0.04500
H 	H 	0.83668 0.57622 0.80923 0.05700
H 	H 	0.92220 0.71424 0.84767 0.05000
H 	H 	0.83127 0.80242 0.77625 0.04000
