data_crystal

_cell_length_a 22.47419
_cell_length_b 24.96195
_cell_length_c 26.50544
_cell_angle_alpha 89.99956
_cell_angle_beta  90.01962
_cell_angle_gamma 92.64483

_symmetry_space_group_name_	'P 1'
_symmetry_space_group_name_H-M	'P 1'

loop_
_symmetry_equiv_pos_as_xyz
  x,y,z

loop_
_atom_site_label
_atom_site_type_symbol
_atom_site_fract_x
_atom_site_fract_y
_atom_site_fract_z
_atom_site_charge
C 	C 	0.91611 0.87287 0.98902 0.10300
N 	N 	0.96257 0.90811 0.99626 -0.16900
C 	C 	0.01174 0.88294 0.98252 0.09500
C 	C 	0.07222 0.90094 0.99967 -0.07200
C 	C 	0.09116 0.95830 0.99720 0.09000
C 	C 	0.11643 0.86115 0.01243 0.03600
C 	C 	0.10507 0.82425 0.05157 -0.05800
C 	C 	0.14444 0.78359 0.06053 -0.03200
C 	C 	0.19603 0.78040 0.03117 -0.00500
C 	C 	0.16868 0.85855 0.98380 -0.05400
N 	N 	0.06826 0.99295 0.96439 -0.13000
C 	C 	0.13079 0.98387 0.03002 -0.06700
C 	C 	0.09401 0.04122 0.97619 0.08900
C 	C 	0.06883 0.09203 0.95999 -0.07500
C 	C 	0.10788 0.14136 0.95698 0.03900
C 	C 	0.20130 0.18496 0.92982 -0.03300
C 	C 	0.09822 0.18471 0.98921 -0.05700
C 	C 	0.14095 0.22715 0.99297 -0.03100
C 	C 	0.19376 0.22627 0.96476 -0.00300
N 	N 	0.96176 0.06455 0.97011 -0.17000
C 	C 	0.90985 0.08185 0.95251 0.09700
C 	C 	0.92034 0.12097 0.91589 -0.06400
C 	C 	0.98156 0.12790 0.91150 -0.06100
C 	C 	0.85309 0.07375 0.98067 -0.07000
C 	C 	0.81113 0.11766 0.98505 0.03500
C 	C 	0.71042 0.14846 0.98039 -0.03700
C 	C 	0.73137 0.20050 0.99310 0.00400
C 	C 	0.79250 0.21119 0.00100 -0.04500
C 	C 	0.83192 0.16956 0.99882 -0.04700
N 	N 	0.85082 0.97409 0.97966 -0.12600
C 	C 	0.80943 0.95669 0.05571 -0.06400
C 	C 	0.83353 0.93518 0.01259 0.08500
C 	C 	0.85604 0.88068 0.01008 -0.07900
C 	C 	0.81464 0.83404 0.01988 0.03900
C 	C 	0.78062 0.81125 0.98034 -0.05600
C 	C 	0.73921 0.76894 0.98989 -0.02900
C 	C 	0.73116 0.74929 0.03913 -0.00700
C 	C 	0.76556 0.77175 0.07867 -0.03200
C 	C 	0.80752 0.81375 0.06899 -0.05900
C 	C 	0.93537 0.82485 0.97036 -0.06800
C 	C 	0.99655 0.83130 0.96608 -0.05900
C 	C 	0.20833 0.81834 0.99317 -0.03100
C 	C 	0.13240 0.03727 0.01678 -0.06600
C 	C 	0.00528 0.09266 0.94546 0.09600
C 	C 	0.81102 0.01142 0.04853 -0.06200
C 	C 	0.83633 0.02030 0.00164 0.08000
C 	C 	0.75015 0.10741 0.97575 -0.05400
H 	H 	0.96242 0.94045 0.02132 0.08900
H 	H 	0.96702 0.04614 0.00516 0.08800
H 	H 	0.71257 0.75207 0.95920 0.03500
H 	H 	0.75917 0.75728 0.11690 0.03200
H 	H 	0.78587 0.82667 0.94231 0.04500
H 	H 	0.83369 0.83109 0.09974 0.04100
H 	H 	0.13437 0.75405 0.08961 0.03300
H 	H 	0.17781 0.88689 0.95352 0.04400
H 	H 	0.24800 0.81592 0.97021 0.03400
H 	H 	0.06500 0.82623 0.07408 0.04200
H 	H 	0.13429 0.25942 0.01940 0.03200
H 	H 	0.05888 0.18444 0.01284 0.03900
C 	C 	0.15875 0.14245 0.92621 -0.05800
H 	H 	0.24127 0.18465 0.90700 0.03500
H 	H 	0.66339 0.14003 0.97354 0.03600
H 	H 	0.73359 0.06769 0.96469 0.04400
H 	H 	0.87865 0.17777 0.00712 0.03700
H 	H 	0.80925 0.25153 0.00968 0.03500
H 	H 	0.91120 0.78648 0.97346 0.04700
H 	H 	0.02649 0.79858 0.96486 0.04400
H 	H 	0.14327 0.96862 0.06657 0.04400
H 	H 	0.14509 0.06990 0.04206 0.04400
H 	H 	0.88892 0.15012 0.90421 0.04600
H 	H 	0.00468 0.16336 0.89640 0.04400
H 	H 	0.80821 0.93738 0.09229 0.04300
H 	H 	0.81001 0.04084 0.07848 0.04300
H 	H 	0.16623 0.10951 0.90072 0.04400
C 	C 	0.98133 0.89659 0.43915 0.10000
N 	N 	0.02936 0.92626 0.45474 -0.17300
C 	C 	0.07656 0.89543 0.44919 0.09900
C 	C 	0.13499 0.90827 0.47339 -0.07700
C 	C 	0.15470 0.96477 0.48186 0.08800
C 	C 	0.17683 0.86562 0.48257 0.04100
C 	C 	0.17935 0.84132 0.53014 -0.06100
C 	C 	0.22190 0.80358 0.53986 -0.03400
C 	C 	0.26221 0.79009 0.50206 -0.00300
C 	C 	0.21596 0.85096 0.44435 -0.06000
N 	N 	0.13551 0.00549 0.45384 -0.13000
C 	C 	0.19683 0.98253 0.51680 -0.06500
C 	C 	0.16601 0.04958 0.47081 0.08700
C 	C 	0.15017 0.10449 0.45707 -0.07700
C 	C 	0.19301 0.14994 0.46660 0.04100
C 	C 	0.28018 0.20414 0.44107 -0.03300
C 	C 	0.19324 0.17634 0.51330 -0.05900
C 	C 	0.23766 0.21567 0.52430 -0.03400
C 	C 	0.28198 0.22890 0.48857 -0.00200
N 	N 	0.04252 0.08529 0.43952 -0.17300
C 	C 	0.99933 0.11081 0.41540 0.10100
C 	C 	0.02350 0.15512 0.38969 -0.06700
C 	C 	0.08414 0.15635 0.39859 -0.06400
C 	C 	0.93584 0.10439 0.43021 -0.07700
C 	C 	0.89980 0.15201 0.43508 0.04100
C 	C 	0.82865 0.21169 0.39964 -0.03300
C 	C 	0.82331 0.23664 0.44673 -0.00300
C 	C 	0.85710 0.21966 0.48775 -0.03300
C 	C 	0.89591 0.17802 0.48173 -0.06000
N 	N 	0.93381 0.00460 0.42599 -0.12900
C 	C 	0.85306 0.98515 0.47425 -0.06400
C 	C 	0.89996 0.96486 0.44767 0.08600
C 	C 	0.91988 0.90939 0.45326 -0.07700
C 	C 	0.87712 0.86616 0.46984 0.04000
C 	C 	0.82893 0.85024 0.43885 -0.05900
C 	C 	0.78856 0.80931 0.45440 -0.03400
C 	C 	0.79558 0.78453 0.50141 -0.00200
C 	C 	0.84417 0.80001 0.53218 -0.03400
C 	C 	0.88479 0.84077 0.51646 -0.05900
C 	C 	0.99774 0.84631 0.42365 -0.06400
C 	C 	0.05872 0.84556 0.43009 -0.06700
C 	C 	0.25811 0.81288 0.45390 -0.03400
C 	C 	0.20370 0.03714 0.50998 -0.06300
C 	C 	0.09408 0.11284 0.42930 0.09900
C 	C 	0.85777 0.03991 0.46810 -0.06300
C 	C 	0.90739 0.05028 0.43814 0.08700
C 	C 	0.86657 0.16931 0.39391 -0.05900
H 	H 	0.02755 0.95788 0.48047 0.09300
H 	H 	0.03534 0.06139 0.47153 0.09300
H 	H 	0.75157 0.79709 0.43015 0.03400
H 	H 	0.85032 0.78060 0.56825 0.03300
H 	H 	0.82294 0.86942 0.40265 0.04300
H 	H 	0.92210 0.85269 0.54049 0.04300
H 	H 	0.22416 0.78541 0.57689 0.03300
H 	H 	0.21398 0.86942 0.40742 0.04400
H 	H 	0.28845 0.80192 0.42428 0.03300
H 	H 	0.14901 0.85233 0.55975 0.04200
H 	H 	0.23827 0.23519 0.56081 0.03400
H 	H 	0.15987 0.16549 0.54144 0.04200
C 	C 	0.23631 0.16426 0.43037 -0.06000
H 	H 	0.31330 0.21521 0.41280 0.03400
H 	H 	0.80234 0.22429 0.36789 0.03400
H 	H 	0.86947 0.14940 0.35773 0.04300
H 	H 	0.92140 0.16473 0.51370 0.04200
H 	H 	0.85208 0.23779 0.52455 0.03300
H 	H 	0.96821 0.81083 0.42222 0.04600
H 	H 	0.08306 0.80942 0.43442 0.04600
H 	H 	0.22770 0.95785 0.53646 0.04400
H 	H 	0.23975 0.06276 0.52480 0.04400
H 	H 	0.99913 0.18970 0.37883 0.04600
H 	H 	0.11335 0.19189 0.39546 0.04500
H 	H 	0.83012 0.96500 0.50530 0.04400
H 	H 	0.83878 0.06843 0.49353 0.04400
H 	H 	0.23626 0.14416 0.39414 0.04300
Ni	Ni	0.42996 0.52140 0.05716 1.09700
O 	O 	0.49716 0.46933 0.04711 -0.70100
Ni	Ni	0.49047 0.45617 0.97186 1.09600
O 	O 	0.43158 0.51971 0.13454 -0.36800
O 	O 	0.44626 0.43132 0.14629 -0.40600
O 	O 	0.49076 0.58576 0.06479 -0.37800
Ni	Ni	0.47904 0.39976 0.08000 1.06400
O 	O 	0.40879 0.62704 0.00147 -0.42000
O 	O 	0.39497 0.39700 0.05080 -0.42300
O 	O 	0.55646 0.40307 0.96661 -0.39400
O 	O 	0.42558 0.50953 0.98200 -0.70500
O 	O 	0.36312 0.57330 0.06087 -0.38400
O 	O 	0.48231 0.45745 0.89461 -0.37800
O 	O 	0.49495 0.54874 0.88968 -0.41800
Ni	Ni	0.44725 0.57850 0.94994 1.06400
H 	H 	0.53708 0.48462 0.05642 0.15200
H 	H 	0.38561 0.49567 0.97130 0.15400
C 	C 	0.38534 0.38343 0.00361 0.28100
O 	O 	0.52765 0.58536 0.98475 -0.42300
C 	C 	0.45650 0.48145 0.15968 0.28400
C 	C 	0.55649 0.36200 0.99765 0.29300
C 	C 	0.53272 0.59950 0.03204 0.29500
C 	C 	0.48482 0.50194 0.86787 0.28100
C 	C 	0.36129 0.61305 0.02847 0.29000
O 	O 	0.42722 0.39295 0.96943 -0.36800
O 	O 	0.50934 0.35005 0.02563 -0.41800
Ni	Ni	0.51145 0.54653 0.55147 1.09800
O 	O 	0.57495 0.49258 0.53829 -0.70800
Ni	Ni	0.55579 0.46988 0.46746 1.09900
O 	O 	0.51702 0.54080 0.62854 -0.38300
O 	O 	0.50524 0.44943 0.62558 -0.42500
O 	O 	0.57566 0.60860 0.55375 -0.37300
Ni	Ni	0.57628 0.42877 0.58027 1.06700
O 	O 	0.49134 0.65007 0.49160 -0.41000
O 	O 	0.52321 0.37343 0.54192 -0.40800
O 	O 	0.60661 0.40360 0.46068 -0.38300
O 	O 	0.50077 0.53221 0.47755 -0.70100
O 	O 	0.44935 0.60261 0.55756 -0.38600
O 	O 	0.53720 0.46634 0.39159 -0.36900
O 	O 	0.56049 0.55572 0.38091 -0.41100
Ni	Ni	0.52487 0.59720 0.44101 1.06900
H 	H 	0.61516 0.51036 0.53868 0.15400
H 	H 	0.45868 0.52170 0.47018 0.15400
C 	C 	0.47624 0.38520 0.51539 0.30000
O 	O 	0.60729 0.60082 0.47245 -0.42300
C 	C 	0.50674 0.49454 0.65144 0.27300
C 	C 	0.64631 0.38774 0.49400 0.29500
C 	C 	0.61620 0.61808 0.51856 0.29400
C 	C 	0.53588 0.51029 0.36415 0.27800
C 	C 	0.44506 0.63848 0.52136 0.28300
O 	O 	0.48085 0.42202 0.48016 -0.39200
O 	O 	0.64831 0.40575 0.54108 -0.42400
C 	C 	0.50133 0.49311 0.70680 -0.09100
C 	C 	0.44728 0.47641 0.73089 0.05400
C 	C 	0.44370 0.47807 0.78378 -0.03700
C 	C 	0.49195 0.49808 0.81272 -0.08600
C 	C 	0.54599 0.51502 0.78852 0.05200
C 	C 	0.55027 0.51119 0.73584 -0.03600
H 	H 	0.40248 0.46522 0.80237 0.03300
H 	H 	0.59174 0.52319 0.71721 0.02900
C 	C 	0.39202 0.45933 0.70095 -0.11800
C 	C 	0.59975 0.53676 0.81818 -0.11300
C 	C 	0.34783 0.50433 0.69679 -0.01500
H 	H 	0.33584 0.51863 0.73502 0.02200
H 	H 	0.30634 0.48764 0.67873 0.02000
C 	C 	0.63146 0.49182 0.84515 -0.01700
H 	H 	0.64659 0.46245 0.81690 0.02300
H 	H 	0.60044 0.47058 0.87171 0.03500
H 	H 	0.40265 0.44420 0.66292 0.06000
H 	H 	0.58690 0.56782 0.84544 0.06400
C 	C 	0.37180 0.55183 0.66528 -0.16000
C 	C 	0.68531 0.51378 0.87504 -0.16100
H 	H 	0.38689 0.53803 0.62782 0.05800
H 	H 	0.33600 0.58039 0.65943 0.05700
H 	H 	0.40943 0.57330 0.68497 0.07200
H 	H 	0.36911 0.42473 0.72043 0.04800
H 	H 	0.71811 0.53450 0.84951 0.05400
H 	H 	0.70717 0.48019 0.89394 0.05300
H 	H 	0.67116 0.54232 0.90440 0.05800
H 	H 	0.63212 0.55772 0.79230 0.04700
C 	C 	0.47880 0.49287 0.21089 -0.08000
C 	C 	0.53776 0.48161 0.22452 0.03900
C 	C 	0.55538 0.48654 0.27520 -0.02400
C 	C 	0.51666 0.50654 0.31130 -0.08400
C 	C 	0.46002 0.52340 0.29648 0.04300
C 	C 	0.44092 0.51490 0.24658 -0.02500
H 	H 	0.59989 0.47627 0.28628 0.03800
H 	H 	0.39679 0.52615 0.23536 0.04600
C 	C 	0.58359 0.46878 0.18474 -0.09800
C 	C 	0.42232 0.55549 0.33185 -0.10500
C 	C 	0.60444 0.51863 0.15420 -0.02800
H 	H 	0.56574 0.53781 0.13696 0.03100
H 	H 	0.63339 0.50574 0.12288 0.01400
C 	C 	0.43768 0.61576 0.32584 -0.03900
H 	H 	0.42636 0.62854 0.28694 0.03500
H 	H 	0.48621 0.62411 0.33172 0.01100
H 	H 	0.62295 0.45080 0.20235 0.04000
H 	H 	0.42829 0.54310 0.37172 0.02000
C 	C 	0.63964 0.56015 0.18603 -0.15400
C 	C 	0.40367 0.64916 0.36341 -0.15300
H 	H 	0.67854 0.54189 0.20394 0.05400
H 	H 	0.65604 0.59373 0.16149 0.05700
H 	H 	0.61089 0.57677 0.21570 0.06400
H 	H 	0.56472 0.43778 0.15845 0.00500
H 	H 	0.35495 0.64021 0.36006 0.05300
H 	H 	0.41287 0.69245 0.35560 0.04900
H 	H 	0.41837 0.64081 0.40247 0.01700
H 	H 	0.37433 0.54739 0.32308 0.04600
C 	C 	0.30835 0.75159 0.51266 0.01000
C 	C 	0.36804 0.76928 0.52206 -0.01000
C 	C 	0.41173 0.73136 0.52746 -0.00500
C 	C 	0.39681 0.67633 0.52373 -0.09900
C 	C 	0.33633 0.65863 0.51808 0.05800
C 	C 	0.29290 0.69661 0.51138 -0.08200
H 	H 	0.45767 0.74475 0.53409 0.03700
H 	H 	0.24694 0.68331 0.50474 0.04600
C 	C 	0.38522 0.82824 0.52923 -0.05200
C 	C 	0.31735 0.59957 0.51854 -0.08800
C 	C 	0.37681 0.84513 0.58400 -0.14300
H 	H 	0.35918 0.85401 0.50419 0.03800
H 	H 	0.43271 0.83624 0.51872 0.03300
H 	H 	0.32942 0.83932 0.59535 0.05600
H 	H 	0.39035 0.88823 0.58833 0.05000
H 	H 	0.40479 0.82134 0.60938 0.05500
C 	C 	0.32320 0.57426 0.46649 -0.12300
H 	H 	0.27009 0.59432 0.53075 0.03900
H 	H 	0.34321 0.57737 0.54653 0.04400
H 	H 	0.29818 0.59682 0.43796 0.04600
H 	H 	0.30464 0.53229 0.46747 0.04100
H 	H 	0.37064 0.57364 0.45525 0.02400
C 	C 	0.66548 0.65766 0.52809 -0.09900
C 	C 	0.72504 0.64562 0.51723 0.05800
C 	C 	0.76814 0.68769 0.51133 -0.07900
C 	C 	0.75293 0.74112 0.51753 0.00900
C 	C 	0.69518 0.75255 0.53450 -0.00800
C 	C 	0.65199 0.71048 0.53992 -0.00700
H 	H 	0.81323 0.67886 0.50065 0.04600
H 	H 	0.60698 0.71924 0.55090 0.04000
C 	C 	0.74361 0.58819 0.51335 -0.07200
C 	C 	0.67995 0.80892 0.54937 -0.05200
C 	C 	0.75170 0.57126 0.45850 -0.13900
H 	H 	0.71098 0.55996 0.53204 0.02900
H 	H 	0.78652 0.58420 0.53362 0.03600
H 	H 	0.70986 0.57498 0.43684 0.06200
H 	H 	0.76418 0.52875 0.45719 0.04600
H 	H 	0.78772 0.59641 0.44035 0.05300
C 	C 	0.69926 0.82120 0.60350 -0.14300
H 	H 	0.63111 0.81363 0.54634 0.03400
H 	H 	0.70099 0.83930 0.52362 0.03800
H 	H 	0.67669 0.79239 0.63001 0.05600
H 	H 	0.68692 0.86238 0.61370 0.05100
H 	H 	0.74825 0.81881 0.60749 0.05700
C 	C 	0.69004 0.34925 0.47800 -0.10100
C 	C 	0.67458 0.29373 0.47507 0.06200
C 	C 	0.71860 0.25773 0.46333 -0.08200
C 	C 	0.77748 0.27620 0.45448 0.01100
C 	C 	0.79219 0.33195 0.45449 -0.01000
C 	C 	0.74841 0.36792 0.46724 -0.00400
H 	H 	0.70713 0.21509 0.46156 0.04700
H 	H 	0.75985 0.41059 0.46881 0.02500
C 	C 	0.61094 0.27246 0.48250 -0.07700
C 	C 	0.85425 0.35372 0.44112 -0.05200
C 	C 	0.57652 0.27208 0.43282 -0.13500
H 	H 	0.58764 0.29625 0.51102 0.05200
H 	H 	0.61038 0.23084 0.49752 0.03700
H 	H 	0.57756 0.31265 0.41565 0.07500
H 	H 	0.52934 0.25915 0.43973 0.05400
H 	H 	0.59598 0.24367 0.40583 0.05200
C 	C 	0.89103 0.36634 0.48842 -0.14300
H 	H 	0.85106 0.39118 0.41875 0.03300
H 	H 	0.87819 0.32554 0.41685 0.03800
H 	H 	0.86942 0.39688 0.51176 0.05200
H 	H 	0.93601 0.38250 0.47737 0.05000
H 	H 	0.89617 0.32961 0.51126 0.05500
C 	C 	0.33022 0.26890 0.50084 0.01100
C 	C 	0.38654 0.25297 0.51739 -0.01000
C 	C 	0.43346 0.29163 0.52257 -0.00600
C 	C 	0.42422 0.34630 0.51443 -0.09800
C 	C 	0.36580 0.36266 0.50349 0.06400
C 	C 	0.31996 0.32345 0.49515 -0.08100
H 	H 	0.47739 0.27894 0.53261 0.03600
H 	H 	0.27585 0.33547 0.48476 0.04700
C 	C 	0.39724 0.19497 0.53016 -0.05200
C 	C 	0.35025 0.42121 0.50502 -0.08300
C 	C 	0.42688 0.16662 0.48648 -0.14200
H 	H 	0.35535 0.17236 0.54061 0.03800
H 	H 	0.42668 0.19343 0.56380 0.03300
H 	H 	0.39977 0.16882 0.45161 0.05600
H 	H 	0.43151 0.12375 0.49620 0.05000
H 	H 	0.47197 0.18506 0.47932 0.05100
C 	C 	0.35390 0.44376 0.55850 -0.12900
H 	H 	0.30402 0.42573 0.49118 0.03800
H 	H 	0.37875 0.44603 0.47922 0.04500
H 	H 	0.33107 0.41584 0.58568 0.05100
H 	H 	0.33172 0.48248 0.55990 0.04000
H 	H 	0.40105 0.45096 0.56994 0.03700
C 	C 	0.23435 0.73457 0.03685 0.01300
C 	C 	0.28702 0.73881 0.06611 -0.01200
C 	C 	0.32640 0.69686 0.06527 -0.00000
C 	C 	0.31500 0.65196 0.03447 -0.10100
C 	C 	0.26138 0.64681 0.00673 0.05800
C 	C 	0.22129 0.68815 0.00847 -0.08500
H 	H 	0.36683 0.69981 0.08765 0.03500
H 	H 	0.18093 0.68518 0.98600 0.04900
C 	C 	0.30070 0.78687 0.09980 -0.05000
C 	C 	0.24837 0.59929 0.97233 -0.08700
C 	C 	0.27334 0.77827 0.15202 -0.14400
H 	H 	0.28452 0.82432 0.08314 0.03700
H 	H 	0.34973 0.79353 0.10402 0.03200
H 	H 	0.22413 0.77295 0.14935 0.05700
H 	H 	0.28444 0.81377 0.17605 0.05100
H 	H 	0.29136 0.74233 0.17022 0.05600
C 	C 	0.27440 0.60964 0.91983 -0.12000
H 	H 	0.19943 0.59139 0.96882 0.04100
H 	H 	0.26636 0.56225 0.98835 0.03500
H 	H 	0.25666 0.64660 0.90336 0.04600
H 	H 	0.26192 0.57542 0.89464 0.03400
H 	H 	0.32375 0.61403 0.92159 0.01000
C 	C 	0.68276 0.70867 0.04976 0.01300
C 	C 	0.69107 0.65336 0.04245 -0.01300
C 	C 	0.64133 0.61708 0.04237 -0.00500
C 	C 	0.58356 0.63538 0.04746 -0.10500
C 	C 	0.57580 0.69019 0.05883 0.06700
C 	C 	0.62579 0.72605 0.06061 -0.08500
H 	H 	0.64742 0.57477 0.03595 0.02000
H 	H 	0.61978 0.76834 0.06722 0.04800
C 	C 	0.75280 0.63220 0.03673 -0.05200
C 	C 	0.51442 0.71220 0.06447 -0.08700
C 	C 	0.77934 0.61951 0.08811 -0.14300
H 	H 	0.78325 0.66107 0.01640 0.03700
H 	H 	0.75069 0.59499 0.01359 0.03000
H 	H 	0.78235 0.65596 0.11217 0.05400
H 	H 	0.82485 0.60484 0.08300 0.04900
H 	H 	0.75154 0.58779 0.10743 0.05000
C 	C 	0.49263 0.73436 0.01440 -0.12500
H 	H 	0.51610 0.74518 0.09272 0.04200
H 	H 	0.48146 0.68182 0.07926 0.06800
H 	H 	0.52124 0.76969 0.00275 0.04700
H 	H 	0.44622 0.74711 0.01870 0.05200
H 	H 	0.49357 0.70342 0.98435 0.05000
C 	C 	0.60430 0.32369 0.99491 -0.10700
C 	C 	0.61813 0.29738 0.94928 0.07100
C 	C 	0.66263 0.25979 0.94919 -0.08600
C 	C 	0.68964 0.24449 0.99430 0.01400
C 	C 	0.67376 0.26888 0.04031 -0.01500
C 	C 	0.63240 0.30930 0.03983 -0.00800
H 	H 	0.67481 0.24094 0.91403 0.04800
H 	H 	0.62030 0.32825 0.07496 0.00700
C 	C 	0.58621 0.30880 0.90035 -0.08100
C 	C 	0.69588 0.24875 0.09062 -0.05100
C 	C 	0.62265 0.34928 0.86852 -0.12800
H 	H 	0.54088 0.32328 0.90677 0.06400
H 	H 	0.57955 0.27104 0.87836 0.04200
H 	H 	0.63680 0.38476 0.89151 0.06200
H 	H 	0.59543 0.36258 0.83628 0.05300
H 	H 	0.66298 0.33070 0.85352 0.04700
C 	C 	0.65730 0.20079 0.10912 -0.14300
H 	H 	0.69468 0.28113 0.11938 0.02900
H 	H 	0.74301 0.23768 0.08860 0.03600
H 	H 	0.61025 0.21194 0.11322 0.05100
H 	H 	0.67367 0.18767 0.14646 0.05000
H 	H 	0.65940 0.16670 0.08238 0.05700
C 	C 	0.24310 0.26621 0.97468 0.01400
C 	C 	0.28535 0.25783 0.01318 -0.01200
C 	C 	0.33188 0.29632 0.02127 -0.00600
C 	C 	0.33644 0.34346 0.99241 -0.08800
C 	C 	0.29430 0.35178 0.95370 0.06100
C 	C 	0.24789 0.31298 0.94537 -0.08000
H 	H 	0.36491 0.28941 0.05012 0.02800
H 	H 	0.21497 0.31957 0.91637 0.04700
C 	C 	0.28297 0.20702 0.04463 -0.05000
C 	C 	0.29505 0.40356 0.92391 -0.08400
C 	C 	0.32129 0.16454 0.02142 -0.14800
H 	H 	0.23674 0.19024 0.04945 0.03800
H 	H 	0.29966 0.21617 0.08333 0.03300
H 	H 	0.30529 0.15362 0.98301 0.06100
H 	H 	0.31881 0.12793 0.04527 0.05200
H 	H 	0.36854 0.17954 0.01923 0.05600
C 	C 	0.26094 0.44601 0.95163 -0.13100
H 	H 	0.27396 0.39641 0.88639 0.04000
H 	H 	0.34108 0.41915 0.91597 0.04500
H 	H 	0.21387 0.43185 0.95758 0.05100
H 	H 	0.26148 0.48312 0.92862 0.03700
H 	H 	0.28187 0.45544 0.98874 0.04200
