data_crystal

_cell_length_a 27.55843
_cell_length_b 28.20451
_cell_length_c 34.95807
_cell_angle_alpha 95.51901
_cell_angle_beta  95.51439
_cell_angle_gamma 125.66528

_symmetry_space_group_name_	'P 1'
_symmetry_space_group_name_H-M	'P 1'

loop_
_symmetry_equiv_pos_as_xyz
  x,y,z

loop_
_atom_site_label
_atom_site_type_symbol
_atom_site_fract_x
_atom_site_fract_y
_atom_site_fract_z
_atom_site_charge
C 	C 	0.96555 0.01211 0.99272 0.12800
N 	N 	0.02390 0.04258 0.98706 -0.13900
C 	C 	0.04936 0.01384 0.98176 0.12700
N 	N 	0.01663 0.95490 0.98219 -0.13600
C 	C 	0.95845 0.92450 0.98785 0.13400
N 	N 	0.93283 0.95305 0.99310 -0.13700
C 	C 	0.93665 0.00759 0.45048 0.12600
N 	N 	0.90573 0.94933 0.45339 -0.13500
C 	C 	0.93584 0.92471 0.45646 0.13500
N 	N 	0.99645 0.95826 0.45673 -0.13600
C 	C 	0.02719 0.01625 0.45390 0.13100
N 	N 	0.99735 0.04093 0.45079 -0.13900
Cu	Cu	0.64071 0.23644 0.99905 0.92700
Cu	Cu	0.69701 0.24189 0.91965 0.87200
Cu	Cu	0.68051 0.33277 0.94964 0.89800
Cu	Cu	0.63839 0.34495 0.02346 0.89800
C 	C 	0.64951 0.27720 0.07983 0.31000
O 	O 	0.55114 0.20064 0.99430 -0.36100
C 	C 	0.66943 0.29508 0.86478 0.30900
O 	O 	0.68983 0.32901 0.00406 -0.63800
O 	O 	0.63846 0.24517 0.94352 -0.64100
O 	O 	0.67867 0.19411 0.99901 -0.37300
O 	O 	0.75004 0.25715 0.96566 -0.44200
O 	O 	0.62273 0.30108 0.06786 -0.37100
O 	O 	0.72539 0.41827 0.95954 -0.37600
C 	C 	0.71771 0.44916 0.98580 0.30600
C 	C 	0.52875 0.22609 0.97852 0.30300
O 	O 	0.56537 0.28178 0.97495 -0.39300
O 	O 	0.67494 0.42330 0.00711 -0.38500
O 	O 	0.65571 0.24369 0.05478 -0.35900
C 	C 	0.73144 0.21761 0.98832 0.30900
O 	O 	0.68554 0.33815 0.89394 -0.37300
O 	O 	0.66319 0.24671 0.87133 -0.42100
H 	H 	0.73243 0.35452 0.01843 0.16700
H 	H 	0.59739 0.22109 0.92693 0.17500
Cu	Cu	0.73670 0.35209 0.45097 0.92800
Cu	Cu	0.73538 0.30573 0.53375 0.87400
Cu	Cu	0.63927 0.31612 0.50102 0.89800
Cu	Cu	0.62261 0.34911 0.42431 0.89600
C 	C 	0.69224 0.33586 0.36924 0.30800
O 	O 	0.77118 0.43890 0.45213 -0.35800
C 	C 	0.68099 0.33568 0.58663 0.30900
O 	O 	0.64192 0.30271 0.44668 -0.63900
O 	O 	0.72913 0.35894 0.50661 -0.64000
O 	O 	0.78027 0.31496 0.45334 -0.36600
O 	O 	0.71780 0.24963 0.48984 -0.44000
O 	O 	0.66652 0.36143 0.37964 -0.38600
O 	O 	0.55151 0.27013 0.49183 -0.38000
C 	C 	0.51811 0.27321 0.46391 0.30900
C 	C 	0.74373 0.46064 0.46586 0.30100
O 	O 	0.68736 0.42444 0.47059 -0.39200
O 	O 	0.54279 0.31334 0.44130 -0.39200
O 	O 	0.72799 0.33295 0.39539 -0.35000
C 	C 	0.75646 0.26477 0.46608 0.31000
O 	O 	0.63565 0.31615 0.55731 -0.38600
O 	O 	0.73105 0.34258 0.58056 -0.40600
H 	H 	0.61653 0.26033 0.43387 0.16600
H 	H 	0.75318 0.40006 0.52166 0.17800
C 	C 	0.64003 0.34305 0.77299 -0.11100
C 	C 	0.66417 0.32479 0.74689 0.00400
C 	C 	0.68896 0.29595 0.75930 0.11400
C 	C 	0.69053 0.28649 0.79779 -0.03400
C 	C 	0.66664 0.30486 0.82412 -0.12400
C 	C 	0.64068 0.33275 0.81144 0.19200
C 	C 	0.66293 0.33509 0.70633 0.00500
O 	O 	0.71312 0.27832 0.73407 -0.27600
H 	H 	0.71092 0.26534 0.80729 0.04800
O 	O 	0.61630 0.35025 0.83656 -0.28400
H 	H 	0.62047 0.36491 0.76344 0.07800
C 	C 	0.61282 0.29200 0.67678 0.11500
C 	C 	0.61705 0.29526 0.63738 -0.03500
C 	C 	0.67158 0.34071 0.62722 -0.12400
C 	C 	0.71975 0.38661 0.65685 0.19200
C 	C 	0.71537 0.38346 0.69624 -0.11000
O 	O 	0.56018 0.24596 0.68634 -0.27500
H 	H 	0.57914 0.26052 0.61477 0.05800
O 	O 	0.77216 0.43312 0.64739 -0.28900
H 	H 	0.75376 0.41730 0.71892 0.07700
H 	H 	0.57294 0.31570 0.83308 0.14600
H 	H 	0.56497 0.21381 0.68714 0.14000
H 	H 	0.76558 0.46381 0.64490 0.14700
H 	H 	0.67891 0.23716 0.72101 0.13900
C 	C 	0.67678 0.25897 0.26908 -0.11300
C 	C 	0.68773 0.30162 0.24648 0.00400
C 	C 	0.70429 0.35702 0.26473 0.12400
C 	C 	0.70720 0.36848 0.30503 -0.03500
C 	C 	0.69413 0.32510 0.32752 -0.11700
C 	C 	0.67976 0.27045 0.30950 0.18800
C 	C 	0.67686 0.28657 0.20343 0.00500
O 	O 	0.71483 0.39897 0.24289 -0.27400
H 	H 	0.71899 0.41093 0.31876 0.06300
O 	O 	0.66830 0.22814 0.33125 -0.28500
H 	H 	0.66452 0.21641 0.25519 0.07200
C 	C 	0.72598 0.30732 0.18375 0.11900
C 	C 	0.71636 0.30164 0.14294 -0.03600
C 	C 	0.65790 0.27513 0.12166 -0.11900
C 	C 	0.60821 0.25072 0.14112 0.19500
C 	C 	0.61790 0.25677 0.18189 -0.11200
O 	O 	0.78378 0.33590 0.20450 -0.27600
H 	H 	0.75467 0.31970 0.12804 0.05200
O 	O 	0.55048 0.22293 0.12049 -0.28300
H 	H 	0.57980 0.24001 0.19688 0.07500
H 	H 	0.62384 0.20345 0.33066 0.14000
H 	H 	0.78887 0.30417 0.20664 0.14700
H 	H 	0.53376 0.18050 0.11338 0.15200
H 	H 	0.75907 0.42343 0.24272 0.15500
C 	C 	0.81204 0.63437 0.46874 -0.00700
C 	C 	0.87021 0.68154 0.48926 -0.02700
C 	C 	0.89212 0.74024 0.48812 -0.04200
C 	C 	0.85595 0.75204 0.46643 0.01800
C 	C 	0.79729 0.70489 0.44657 -0.04200
C 	C 	0.77536 0.64618 0.44773 -0.02700
C 	C 	0.88099 0.81221 0.46220 0.00700
C 	C 	0.90407 0.86328 0.45956 -0.03500
C 	C 	0.79020 0.57379 0.46863 0.04800
C 	C 	0.77034 0.52253 0.46783 -0.10600
H 	H 	0.89872 0.67282 0.50571 0.04200
H 	H 	0.93756 0.77646 0.50351 0.04700
H 	H 	0.76910 0.71360 0.42970 0.04700
H 	H 	0.73021 0.60992 0.43194 0.04100
C 	C 	0.81353 0.16088 0.44733 -0.00900
C 	C 	0.78190 0.10652 0.46033 -0.02800
C 	C 	0.80352 0.07225 0.45890 -0.04400
C 	C 	0.85683 0.09214 0.44445 0.01800
C 	C 	0.88732 0.14554 0.43026 -0.04300
C 	C 	0.86573 0.17984 0.43171 -0.02700
C 	C 	0.88279 0.06023 0.44680 0.00400
C 	C 	0.90588 0.03475 0.44832 -0.03500
C 	C 	0.79492 0.19908 0.45283 0.05000
C 	C 	0.77792 0.22973 0.45795 -0.11200
H 	H 	0.74142 0.09148 0.47237 0.03900
H 	H 	0.77960 0.03099 0.46984 0.04500
H 	H 	0.92849 0.16116 0.41894 0.04700
H 	H 	0.89036 0.22170 0.42153 0.04300
C 	C 	0.33555 0.17897 0.46043 -0.00800
C 	C 	0.29691 0.16574 0.42548 -0.02800
C 	C 	0.23431 0.13387 0.42416 -0.04300
C 	C 	0.21014 0.11515 0.45779 0.01700
C 	C 	0.24882 0.12863 0.49278 -0.04200
C 	C 	0.31142 0.16049 0.49410 -0.02800
C 	C 	0.14554 0.08062 0.45612 0.00500
C 	C 	0.09149 0.05169 0.45501 -0.03600
C 	C 	0.39999 0.21199 0.46182 0.04900
C 	C 	0.45392 0.23964 0.46284 -0.10500
H 	H 	0.31531 0.18003 0.39937 0.04100
H 	H 	0.20464 0.12352 0.39700 0.04600
H 	H 	0.23041 0.11420 0.51887 0.04600
H 	H 	0.34106 0.17070 0.52123 0.04300
C 	C 	0.80619 0.62630 0.98803 -0.01100
C 	C 	0.77343 0.64680 0.97411 -0.02600
C 	C 	0.80322 0.70749 0.97475 -0.04100
C 	C 	0.86586 0.74784 0.98933 0.01400
C 	C 	0.89852 0.72737 0.00349 -0.03800
C 	C 	0.86874 0.66671 0.00284 -0.02300
C 	C 	0.89707 0.80998 0.98863 0.00800
C 	C 	0.92429 0.86224 0.98837 -0.03700
C 	C 	0.77557 0.56388 0.98727 0.05000
C 	C 	0.74955 0.51152 0.98653 -0.10200
H 	H 	0.72500 0.61578 0.96271 0.04300
H 	H 	0.77772 0.72303 0.96372 0.04700
H 	H 	0.94699 0.75836 0.01476 0.04800
H 	H 	0.89430 0.65115 0.01374 0.04200
C 	C 	0.82367 0.14687 0.00487 -0.00600
C 	C 	0.79300 0.08737 0.00888 -0.03000
C 	C 	0.82329 0.06125 0.00874 -0.04000
C 	C 	0.88435 0.09453 0.00458 0.01200
C 	C 	0.91564 0.15463 0.00204 -0.03700
C 	C 	0.88536 0.18075 0.00219 -0.02700
C 	C 	0.91369 0.06611 0.00053 0.01400
C 	C 	0.93783 0.04188 0.99717 -0.04500
C 	C 	0.79057 0.17141 0.99969 0.04300
C 	C 	0.76341 0.19250 0.99530 -0.11900
H 	H 	0.74535 0.06092 0.01104 0.04200
H 	H 	0.79890 0.01484 0.01094 0.04500
H 	H 	0.96294 0.18072 0.99903 0.04100
H 	H 	0.90941 0.22682 0.99916 0.03700
C 	C 	0.22523 0.09850 0.96796 0.01800
C 	C 	0.24214 0.06374 0.95204 -0.04300
C 	C 	0.30333 0.08947 0.95135 -0.02700
C 	C 	0.34780 0.15005 0.96655 -0.00800
C 	C 	0.33063 0.18527 0.98109 -0.02700
C 	C 	0.26944 0.15953 0.98180 -0.04300
C 	C 	0.41121 0.17521 0.96992 0.04900
C 	C 	0.46466 0.19759 0.97317 -0.10800
C 	C 	0.16349 0.07060 0.97304 0.00400
C 	C 	0.11141 0.04582 0.97686 -0.03600
H 	H 	0.20813 0.01654 0.94115 0.04500
H 	H 	0.31624 0.06203 0.93991 0.04000
H 	H 	0.36478 0.23222 0.99272 0.04100
H 	H 	0.25668 0.18671 0.99403 0.04600
