data_crystal

_cell_length_a 23.03915
_cell_length_b 20.82497
_cell_length_c 22.23821
_cell_angle_alpha 90.03203
_cell_angle_beta  89.13960
_cell_angle_gamma 90.52439

_symmetry_space_group_name_	'P 1'
_symmetry_space_group_name_H-M	'P 1'

loop_
_symmetry_equiv_pos_as_xyz
  x,y,z

loop_
_atom_site_label
_atom_site_type_symbol
_atom_site_fract_x
_atom_site_fract_y
_atom_site_fract_z
_atom_site_charge
C 	C 	0.11040 0.01841 0.13288 0.23500
C 	C 	0.95782 0.13326 0.95401 0.33500
C 	C 	0.01937 0.94608 0.01048 0.39200
C 	C 	0.04387 0.22860 0.04370 0.30700
C 	C 	0.10904 0.03944 0.86814 0.34700
C 	C 	0.21613 0.11433 0.96739 0.27500
Ni	Ni	0.01897 0.08127 0.05880 1.11300
Ni	Ni	0.08851 0.14980 0.94645 1.11700
Ni	Ni	0.13072 0.01474 0.99604 1.09600
O 	O 	0.07380 0.06717 0.13052 -0.36100
O 	O 	0.12453 0.98428 0.08397 -0.32300
O 	O 	0.07507 0.08847 0.87856 -0.39200
O 	O 	0.96605 0.08134 0.98507 -0.40500
O 	O 	0.00159 0.17230 0.94077 -0.37700
O 	O 	0.20005 0.07128 0.00846 -0.35300
O 	O 	0.00856 0.98130 0.05847 -0.36700
O 	O 	0.06060 0.96255 0.97235 -0.40200
O 	O 	0.17753 0.14898 0.93684 -0.36100
O 	O 	0.01254 0.18239 0.07142 -0.35200
O 	O 	0.09149 0.21502 0.01291 -0.35400
O 	O 	0.14799 0.02257 0.90734 -0.39700
O 	O 	0.08597 0.08910 0.01069 -0.70300
H 	H 	0.11112 0.11093 0.03990 0.16900
C 	C 	0.21750 0.81529 0.54030 0.29900
C 	C 	0.02443 0.98523 0.49337 0.34700
C 	C 	0.11363 0.91150 0.64021 0.31500
C 	C 	0.11957 0.91282 0.37141 0.30400
C 	C 	0.96051 0.80390 0.55036 0.33400
C 	C 	0.04790 0.70881 0.47807 0.30900
Ni	Ni	0.14077 0.92568 0.50910 1.11800
Ni	Ni	0.03050 0.85076 0.45017 1.12000
Ni	Ni	0.08874 0.79522 0.57009 1.12500
O 	O 	0.21169 0.86555 0.50416 -0.36300
O 	O 	0.17718 0.80020 0.58188 -0.35500
O 	O 	0.97121 0.85350 0.51607 -0.39400
O 	O 	0.07166 0.98640 0.52553 -0.37000
O 	O 	0.02116 0.94781 0.44576 -0.37300
O 	O 	0.09315 0.72233 0.51179 -0.38200
O 	O 	0.15504 0.92479 0.60114 -0.36200
O 	O 	0.07432 0.86776 0.62856 -0.37300
O 	O 	0.02592 0.75245 0.44060 -0.37700
O 	O 	0.14045 0.94758 0.41677 -0.35500
O 	O 	0.08761 0.86023 0.38057 -0.36300
O 	O 	0.00239 0.77542 0.57962 -0.36800
O 	O 	0.09498 0.85063 0.50189 -0.71700
H 	H 	0.12094 0.82494 0.47595 0.16100
C 	C 	0.88566 0.71847 0.96316 0.26900
C 	C 	0.81894 0.52387 0.13972 0.33100
C 	C 	0.97330 0.62233 0.03704 0.33600
C 	C 	0.71383 0.62090 0.04420 0.31400
C 	C 	0.89830 0.44302 0.99640 0.24400
C 	C 	0.80333 0.51298 0.87546 0.31400
Ni	Ni	0.84511 0.63978 0.06609 1.11400
Ni	Ni	0.78712 0.50879 0.01239 1.13100
Ni	Ni	0.89710 0.57213 0.94466 1.11000
O 	O 	0.84156 0.70988 0.00093 -0.33900
O 	O 	0.90744 0.66987 0.93046 -0.36900
O 	O 	0.84982 0.44461 0.02827 -0.33400
O 	O 	0.85858 0.56786 0.12847 -0.36600
O 	O 	0.77578 0.51544 0.10281 -0.37700
O 	O 	0.83819 0.56372 0.87971 -0.38600
O 	O 	0.93509 0.65895 0.06472 -0.35900
O 	O 	0.95657 0.57024 0.00983 -0.37400
O 	O 	0.78036 0.48363 0.92382 -0.38100
O 	O 	0.75479 0.63790 0.08311 -0.36500
O 	O 	0.71950 0.56984 0.00852 -0.35400
O 	O 	0.90286 0.47585 0.94603 -0.37900
O 	O 	0.83564 0.58285 0.00083 -0.68200
H 	H 	0.81002 0.60812 0.97501 0.13600
C 	C 	0.80572 0.40960 0.63643 0.30800
C 	C 	0.96961 0.30034 0.45884 0.34100
C 	C 	0.90463 0.48402 0.51678 0.32200
C 	C 	0.87925 0.20312 0.53670 0.31300
C 	C 	0.82017 0.40392 0.37113 0.33600
C 	C 	0.71163 0.31168 0.46952 0.31000
Ni	Ni	0.90007 0.34870 0.56208 1.11400
Ni	Ni	0.83994 0.28860 0.44215 1.12100
Ni	Ni	0.79110 0.41838 0.49930 1.12400
O 	O 	0.83994 0.35898 0.63160 -0.37400
O 	O 	0.79036 0.44384 0.58857 -0.36500
O 	O 	0.85595 0.35627 0.37981 -0.38500
O 	O 	0.95974 0.35065 0.49217 -0.39000
O 	O 	0.92656 0.26615 0.43670 -0.37800
O 	O 	0.72120 0.36047 0.50701 -0.38200
O 	O 	0.90887 0.44821 0.56516 -0.37300
O 	O 	0.85946 0.47814 0.48169 -0.36100
O 	O 	0.75213 0.29142 0.43035 -0.37600
O 	O 	0.90491 0.24760 0.57102 -0.36000
O 	O 	0.83428 0.21711 0.50299 -0.38400
O 	O 	0.77850 0.41588 0.41014 -0.39000
O 	O 	0.83738 0.34420 0.51025 -0.71900
H 	H 	0.81076 0.31942 0.53667 0.16300
C 	C 	0.62531 0.00317 0.12836 0.22300
C 	C 	0.45853 0.10258 0.95330 0.32900
C 	C 	0.53672 0.92579 0.00359 0.39200
C 	C 	0.53373 0.20567 0.04907 0.30800
C 	C 	0.61318 0.03118 0.86516 0.35200
C 	C 	0.71620 0.12049 0.96649 0.26600
Ni	Ni	0.52666 0.05637 0.05785 1.11500
Ni	Ni	0.58535 0.13705 0.94691 1.11000
Ni	Ni	0.64312 0.00632 0.99081 1.09500
O 	O 	0.58486 0.04798 0.12728 -0.35800
O 	O 	0.64411 0.97365 0.07834 -0.31200
O 	O 	0.57640 0.07735 0.87699 -0.40100
O 	O 	0.47067 0.05255 0.98618 -0.41300
O 	O 	0.49725 0.14850 0.94410 -0.38800
O 	O 	0.70776 0.07014 0.00255 -0.34600
O 	O 	0.52861 0.95669 0.05441 -0.36600
O 	O 	0.58111 0.94077 0.96843 -0.38700
O 	O 	0.67346 0.14675 0.93474 -0.37400
O 	O 	0.50998 0.15404 0.07580 -0.36200
O 	O 	0.58115 0.20127 0.01478 -0.36000
O 	O 	0.65575 0.01914 0.90193 -0.40300
O 	O 	0.59093 0.07407 0.00849 -0.70400
H 	H 	0.61458 0.09847 0.03735 0.16400
C 	C 	0.54609 0.70415 0.46974 0.30300
C 	C 	0.61148 0.90878 0.63355 0.32400
C 	C 	0.45886 0.79970 0.53997 0.33000
C 	C 	0.71932 0.80898 0.54202 0.30900
C 	C 	0.53283 0.98247 0.48741 0.36000
C 	C 	0.62738 0.90491 0.36807 0.32700
Ni	Ni	0.58764 0.78851 0.56647 1.11300
Ni	Ni	0.64399 0.91637 0.50421 1.12500
Ni	Ni	0.53410 0.84851 0.44328 1.12500
O 	O 	0.59110 0.71491 0.50444 -0.37800
O 	O 	0.52572 0.74986 0.43343 -0.34800
O 	O 	0.58160 0.98187 0.51745 -0.37500
O 	O 	0.57268 0.86358 0.62527 -0.37100
O 	O 	0.65448 0.91656 0.59482 -0.37000
O 	O 	0.59250 0.85444 0.37563 -0.38200
O 	O 	0.49812 0.76883 0.57066 -0.37600
O 	O 	0.47303 0.85070 0.50887 -0.38000
O 	O 	0.65178 0.93542 0.41430 -0.36200
O 	O 	0.67771 0.79248 0.58156 -0.36300
O 	O 	0.71217 0.85574 0.50210 -0.36400
O 	O 	0.52629 0.94506 0.44005 -0.38200
O 	O 	0.59566 0.84183 0.49821 -0.71700
H 	H 	0.62156 0.81549 0.47281 0.16400
C 	C 	0.47514 0.62614 0.04163 0.31200
C 	C 	0.30830 0.50490 0.87820 0.31600
C 	C 	0.39288 0.70404 0.95243 0.32700
C 	C 	0.39209 0.42556 0.00434 0.34600
C 	C 	0.21874 0.62368 0.01981 0.35400
C 	C 	0.30587 0.53988 0.14188 0.30400
Ni	Ni	0.40577 0.55917 0.94783 1.10200
Ni	Ni	0.28735 0.50695 0.01230 1.13300
Ni	Ni	0.34240 0.64084 0.05679 1.13400
O 	O 	0.46911 0.57180 0.01151 -0.36800
O 	O 	0.43032 0.65599 0.06808 -0.34700
O 	O 	0.23494 0.57650 0.98421 -0.41800
O 	O 	0.34112 0.55605 0.88422 -0.37600
O 	O 	0.29153 0.47184 0.92604 -0.37100
O 	O 	0.33769 0.59285 0.13506 -0.36600
O 	O 	0.42088 0.65623 0.92683 -0.38100
O 	O 	0.34362 0.69284 0.98049 -0.39200
O 	O 	0.26754 0.52222 0.10077 -0.37500
O 	O 	0.40621 0.45828 0.95464 -0.40300
O 	O 	0.34147 0.43438 0.03255 -0.37100
O 	O 	0.25461 0.64789 0.05986 -0.37100
O 	O 	0.35366 0.56264 0.01371 -0.69400
H 	H 	0.37660 0.54086 0.04451 0.15300
C 	C 	0.30597 0.40353 0.63593 0.30900
C 	C 	0.46965 0.31043 0.45132 0.33000
C 	C 	0.39484 0.48727 0.51667 0.32500
C 	C 	0.38845 0.20470 0.52522 0.30400
C 	C 	0.31342 0.40750 0.36892 0.32400
C 	C 	0.21129 0.30451 0.46438 0.30700
Ni	Ni	0.39972 0.35021 0.55658 1.11300
Ni	Ni	0.34090 0.29101 0.43540 1.12500
Ni	Ni	0.28519 0.41429 0.49888 1.12200
O 	O 	0.34070 0.35386 0.62766 -0.37600
O 	O 	0.28293 0.43523 0.58977 -0.36300
O 	O 	0.35227 0.36258 0.37599 -0.37000
O 	O 	0.45687 0.35944 0.48510 -0.38600
O 	O 	0.42852 0.27524 0.42703 -0.36100
O 	O 	0.21915 0.35106 0.50458 -0.38000
O 	O 	0.40253 0.44978 0.56331 -0.36400
O 	O 	0.34870 0.48052 0.48320 -0.38300
O 	O 	0.25276 0.28751 0.42484 -0.36900
O 	O 	0.41109 0.24943 0.56151 -0.37200
O 	O 	0.34179 0.21618 0.49294 -0.37600
O 	O 	0.27191 0.41581 0.40927 -0.37700
O 	O 	0.33610 0.34308 0.50604 -0.71800
H 	H 	0.31159 0.31510 0.53186 0.16100
C 	C 	0.29779 0.42921 0.69806 -0.09700
C 	C 	0.29829 0.38715 0.74746 -0.06100
C 	C 	0.29981 0.41114 0.80652 0.16700
C 	C 	0.29895 0.47811 0.81690 -0.10200
C 	C 	0.29545 0.51999 0.76760 -0.06000
C 	C 	0.29534 0.49609 0.70854 0.16800
H 	H 	0.29932 0.33572 0.74013 0.06900
O 	O 	0.30300 0.36902 0.85376 -0.27600
H 	H 	0.29453 0.57144 0.77490 0.07500
O 	O 	0.29673 0.53841 0.66126 -0.27700
H 	H 	0.25548 0.54756 0.65280 0.15400
H 	H 	0.34507 0.36224 0.85986 0.15300
C 	C 	0.30568 0.50642 0.20037 -0.09300
C 	C 	0.30523 0.43909 0.20184 -0.06200
C 	C 	0.30745 0.40644 0.25678 0.17800
C 	C 	0.31045 0.44125 0.31096 -0.10000
C 	C 	0.30930 0.50851 0.30974 -0.05400
C 	C 	0.30726 0.54125 0.25479 0.17300
H 	H 	0.30349 0.41200 0.16032 0.06500
O 	O 	0.30716 0.34056 0.25739 -0.28400
H 	H 	0.31052 0.53552 0.35140 0.06600
O 	O 	0.30413 0.60701 0.25454 -0.27500
H 	H 	0.34499 0.62239 0.25549 0.16400
H 	H 	0.26562 0.32783 0.26035 0.15500
C 	C 	0.51132 0.64512 0.48023 -0.10100
C 	C 	0.50352 0.62229 0.53928 -0.05700
C 	C 	0.46462 0.57204 0.55173 0.17200
C 	C 	0.43572 0.54096 0.50440 -0.10400
C 	C 	0.44561 0.56172 0.44487 -0.05600
C 	C 	0.48344 0.61342 0.43266 0.16500
H 	H 	0.52611 0.64512 0.57605 0.05700
O 	O 	0.45453 0.55385 0.61029 -0.27900
H 	H 	0.42406 0.53772 0.40802 0.07000
O 	O 	0.49197 0.63364 0.37447 -0.27400
H 	H 	0.52547 0.60864 0.35904 0.15700
H 	H 	0.42174 0.58069 0.62456 0.16300
C 	C 	0.49131 0.03551 0.49847 -0.13700
C 	C 	0.46006 0.06123 0.45057 -0.04400
C 	C 	0.42367 0.11402 0.45968 0.16400
C 	C 	0.41909 0.14280 0.51712 -0.09600
C 	C 	0.44853 0.11556 0.56550 -0.06700
C 	C 	0.48428 0.06210 0.55656 0.18200
H 	H 	0.46485 0.04122 0.40580 0.06300
O 	O 	0.39503 0.13938 0.41169 -0.28900
H 	H 	0.44425 0.13622 0.61008 0.06600
O 	O 	0.51058 0.03457 0.60497 -0.29900
H 	H 	0.54732 0.05904 0.61014 0.15200
H 	H 	0.35764 0.11550 0.41011 0.14700
C 	C 	0.49718 0.87151 0.98762 -0.16000
C 	C 	0.45184 0.85395 0.02746 -0.01600
C 	C 	0.41467 0.80255 0.01419 0.20300
C 	C 	0.42324 0.76657 0.96096 -0.14000
C 	C 	0.46625 0.78631 0.91940 -0.05200
C 	C 	0.50349 0.83796 0.93252 0.18300
H 	H 	0.44546 0.87993 0.06922 0.07000
O 	O 	0.37173 0.78577 0.05477 -0.31000
H 	H 	0.47214 0.76028 0.87757 0.06900
O 	O 	0.54505 0.85614 0.89095 -0.26500
H 	H 	0.57928 0.82929 0.89962 0.15200
H 	H 	0.33754 0.81140 0.04331 0.16700
C 	C 	0.50049 0.26646 0.04947 -0.07600
C 	C 	0.44090 0.26462 0.06403 -0.05700
C 	C 	0.40524 0.31626 0.04990 0.19300
C 	C 	0.42946 0.37201 0.02324 -0.12100
C 	C 	0.48985 0.37654 0.01452 0.00100
C 	C 	0.52541 0.32414 0.02733 0.14600
H 	H 	0.42125 0.22126 0.08237 0.07900
O 	O 	0.34625 0.30974 0.05724 -0.26800
H 	H 	0.50928 0.42051 0.99720 0.02400
O 	O 	0.58449 0.33038 0.02054 -0.24100
H 	H 	0.59267 0.32190 0.97735 0.11500
H 	H 	0.33815 0.32161 0.09970 0.15500
C 	C 	0.61267 0.00054 0.80571 -0.19200
C 	C 	0.66525 0.98766 0.77569 0.01000
C 	C 	0.66540 0.95904 0.71888 0.15000
C 	C 	0.61239 0.94283 0.69154 -0.08000
C 	C 	0.55983 0.95542 0.72183 -0.07500
C 	C 	0.55976 0.98406 0.77864 0.23500
H 	H 	0.70615 0.99971 0.79648 0.07800
O 	O 	0.71733 0.94353 0.69183 -0.26700
H 	H 	0.51890 0.94233 0.70153 0.09300
O 	O 	0.50813 0.99253 0.80908 -0.24600
H 	H 	0.49391 0.03503 0.79597 0.13000
H 	H 	0.72951 0.98246 0.66907 0.16100
C 	C 	0.64081 0.97644 0.18747 0.01400
C 	C 	0.64884 0.01834 0.23611 -0.18000
C 	C 	0.64753 0.99513 0.29521 0.27000
C 	C 	0.63908 0.92886 0.30618 -0.13500
C 	C 	0.63630 0.88631 0.25723 -0.02100
C 	C 	0.63694 0.90974 0.19811 0.12600
H 	H 	0.65285 0.06957 0.22829 0.09500
O 	O 	0.65007 0.03784 0.34211 -0.31900
H 	H 	0.63151 0.83515 0.26497 0.06700
O 	O 	0.62915 0.86782 0.15124 -0.25600
H 	H 	0.66878 0.85417 0.13914 0.15200
H 	H 	0.69202 0.04339 0.35034 0.15200
C 	C 	0.53008 0.28935 0.44795 -0.10800
C 	C 	0.55597 0.26567 0.50008 -0.05700
C 	C 	0.61630 0.26860 0.50616 0.16900
C 	C 	0.65112 0.29287 0.45887 -0.09700
C 	C 	0.62564 0.30831 0.40382 -0.05700
C 	C 	0.56517 0.30670 0.39829 0.17600
H 	H 	0.52912 0.24964 0.53767 0.05700
O 	O 	0.64106 0.24844 0.55853 -0.28800
H 	H 	0.65241 0.32570 0.36666 0.07100
O 	O 	0.54042 0.32757 0.34619 -0.27900
H 	H 	0.53571 0.28851 0.32114 0.15900
H 	H 	0.64122 0.28660 0.58524 0.15200
C 	C 	0.02979 0.27975 0.44943 -0.12200
C 	C 	0.06176 0.30431 0.40038 -0.04800
C 	C 	0.12254 0.30629 0.40191 0.16500
C 	C 	0.15144 0.28365 0.45297 -0.09600
C 	C 	0.11983 0.25163 0.49822 -0.06300
C 	C 	0.05914 0.24977 0.49676 0.17300
H 	H 	0.03952 0.32643 0.36322 0.06200
O 	O 	0.15317 0.33595 0.35624 -0.27400
H 	H 	0.14202 0.23198 0.53661 0.06200
O 	O 	0.02852 0.22121 0.54297 -0.29000
H 	H 	0.02454 0.25482 0.57435 0.13600
H 	H 	0.16258 0.30130 0.32717 0.15200
C 	C 	0.53409 0.65040 0.05140 -0.10200
C 	C 	0.56616 0.67415 0.00201 -0.02400
C 	C 	0.62684 0.67292 0.00226 0.19100
C 	C 	0.65556 0.64762 0.05210 -0.10000
C 	C 	0.62379 0.63394 0.10495 -0.05400
C 	C 	0.56299 0.63458 0.10453 0.17600
H 	H 	0.54413 0.68798 0.96140 0.03700
O 	O 	0.65774 0.69080 0.95169 -0.30500
H 	H 	0.64589 0.61707 0.14454 0.07100
O 	O 	0.53200 0.61641 0.15498 -0.27400
H 	H 	0.52753 0.56910 0.15188 0.15500
H 	H 	0.66626 0.73720 0.95708 0.14800
C 	C 	0.15669 0.64102 0.02282 -0.07400
C 	C 	0.12909 0.65023 0.07904 -0.05600
C 	C 	0.06824 0.65121 0.08361 0.17800
C 	C 	0.03476 0.64201 0.03191 -0.08800
C 	C 	0.06252 0.63883 0.97535 -0.08200
C 	C 	0.12307 0.63926 0.97059 0.14800
H 	H 	0.15457 0.65302 0.11954 0.08000
O 	O 	0.04185 0.65585 0.13912 -0.27700
H 	H 	0.03703 0.63255 0.93516 0.04700
O 	O 	0.14933 0.63807 0.91478 -0.27300
H 	H 	0.15062 0.59209 0.90320 0.15300
H 	H 	0.03601 0.70249 0.14565 0.16100
C 	C 	0.79213 0.48596 0.81517 -0.10100
C 	C 	0.78867 0.52727 0.76561 -0.05800
C 	C 	0.78957 0.50277 0.70697 0.16800
C 	C 	0.79330 0.43576 0.69735 -0.09800
C 	C 	0.79199 0.39425 0.74712 -0.06200
C 	C 	0.79188 0.41893 0.80577 0.16800
H 	H 	0.78753 0.57879 0.77243 0.07400
O 	O 	0.79088 0.54462 0.65934 -0.27100
H 	H 	0.79339 0.34273 0.74039 0.06900
O 	O 	0.79589 0.37758 0.85351 -0.27800
H 	H 	0.75523 0.36613 0.86456 0.14800
H 	H 	0.74958 0.55260 0.65006 0.15100
C 	C 	0.81622 0.49367 0.19920 -0.10200
C 	C 	0.82747 0.53048 0.25061 -0.05000
C 	C 	0.82616 0.50175 0.30732 0.17600
C 	C 	0.81888 0.43487 0.31230 -0.10500
C 	C 	0.80576 0.39838 0.26127 -0.05200
C 	C 	0.80160 0.42817 0.20526 0.17200
H 	H 	0.83565 0.58166 0.24674 0.06900
O 	O 	0.83185 0.53905 0.35778 -0.26300
H 	H 	0.79700 0.34733 0.26538 0.06200
O 	O 	0.78406 0.39309 0.15642 -0.28900
H 	H 	0.74112 0.39623 0.15652 0.15700
H 	H 	0.79179 0.55183 0.36916 0.14900
C 	C 	0.94659 0.53719 0.50619 -0.09700
C 	C 	0.97187 0.56863 0.55511 -0.04800
C 	C 	0.00889 0.62140 0.54573 0.16600
C 	C 	0.01721 0.64667 0.48718 -0.11800
C 	C 	0.99379 0.61372 0.43803 -0.02800
C 	C 	0.96095 0.55739 0.44721 0.16500
H 	H 	0.96279 0.55231 0.60058 0.07500
O 	O 	0.03565 0.64918 0.59403 -0.29200
H 	H 	0.00203 0.63089 0.39267 0.06100
O 	O 	0.94432 0.52138 0.39869 -0.25700
H 	H 	0.97603 0.49016 0.39196 0.15800
H 	H 	0.07258 0.62562 0.59840 0.14800
C 	C 	0.97942 0.03404 0.50517 -0.12500
C 	C 	0.96945 0.05543 0.56441 -0.04900
C 	C 	0.93448 0.10894 0.57569 0.17400
C 	C 	0.90787 0.14058 0.52764 -0.09500
C 	C 	0.91383 0.11577 0.46910 -0.05600
C 	C 	0.94993 0.06339 0.45755 0.17600
H 	H 	0.99025 0.03168 0.60162 0.06000
O 	O 	0.92537 0.12925 0.63374 -0.28500
H 	H 	0.89259 0.13902 0.43193 0.05700
O 	O 	0.95923 0.04384 0.39930 -0.28000
H 	H 	0.92825 0.01166 0.39145 0.14300
H 	H 	0.95856 0.15826 0.64258 0.16100
C 	C 	0.90014 0.78318 0.55958 -0.10400
C 	C 	0.87128 0.75323 0.51188 -0.05300
C 	C 	0.81073 0.75615 0.50836 0.16900
C 	C 	0.77879 0.78803 0.55347 -0.09300
C 	C 	0.80698 0.80959 0.60530 -0.05900
C 	C 	0.86765 0.80799 0.60815 0.18200
H 	H 	0.89606 0.73225 0.47512 0.06600
O 	O 	0.78335 0.73195 0.45880 -0.27900
H 	H 	0.78231 0.83212 0.64130 0.08400
O 	O 	0.89520 0.83347 0.65710 -0.27200
H 	H 	0.90102 0.87967 0.64772 0.16400
H 	H 	0.77349 0.68680 0.46920 0.15200
C 	C 	0.27586 0.78818 0.54571 -0.09000
C 	C 	0.30577 0.76963 0.49334 -0.06100
C 	C 	0.36635 0.76638 0.49266 0.17500
C 	C 	0.39743 0.78083 0.54502 -0.10900
C 	C 	0.36717 0.79037 0.59939 -0.04800
C 	C 	0.30647 0.79493 0.59985 0.16900
H 	H 	0.28237 0.76258 0.45188 0.06900
O 	O 	0.39530 0.75480 0.43950 -0.29000
H 	H 	0.39080 0.79947 0.64035 0.07100
O 	O 	0.27751 0.80897 0.65254 -0.26800
H 	H 	0.27675 0.85655 0.65468 0.16700
H 	H 	0.39647 0.70739 0.43601 0.16300
C 	C 	0.91757 0.78046 0.96469 -0.06900
C 	C 	0.97784 0.78101 0.95523 -0.07300
C 	C 	0.01154 0.83293 0.97450 0.18600
C 	C 	0.98460 0.88797 0.99841 -0.17400
C 	C 	0.92388 0.89000 0.00300 0.04100
C 	C 	0.89026 0.83653 0.98646 0.11200
H 	H 	0.99893 0.74016 0.93486 0.07400
O 	O 	0.07094 0.82847 0.97286 -0.29800
H 	H 	0.90262 0.93329 0.01857 0.06100
O 	O 	0.83084 0.84030 0.98878 -0.28900
H 	H 	0.81971 0.83060 0.03110 0.17200
H 	H 	0.08278 0.84097 0.93142 0.15900
C 	C 	0.94315 0.39516 0.01095 -0.01800
C 	C 	0.97796 0.36952 0.96479 -0.10000
C 	C 	0.01654 0.31998 0.97687 0.14800
C 	C 	0.01772 0.29241 0.03488 -0.08200
C 	C 	0.98770 0.32233 0.08227 -0.03600
C 	C 	0.95120 0.37435 0.07070 0.14800
H 	H 	0.97446 0.38714 0.91916 0.08400
O 	O 	0.05104 0.29656 0.93123 -0.30100
H 	H 	0.99099 0.30399 0.12767 0.06900
O 	O 	0.92462 0.40547 0.11774 -0.26300
H 	H 	0.89063 0.37810 0.12834 0.16800
H 	H 	0.08719 0.32273 0.93239 0.14700
C 	C 	0.89766 0.15321 0.94366 -0.10800
C 	C 	0.86644 0.12328 0.89761 -0.05100
C 	C 	0.80582 0.11715 0.90220 0.15800
C 	C 	0.77627 0.14091 0.95331 -0.07900
C 	C 	0.80659 0.17722 0.99556 -0.10500
C 	C 	0.86691 0.18467 0.99017 0.15400
H 	H 	0.88945 0.10005 0.86084 0.06400
O 	O 	0.77628 0.08332 0.85929 -0.28500
H 	H 	0.78381 0.19758 0.03397 0.09500
O 	O 	0.89613 0.21860 0.03301 -0.26400
H 	H 	0.89341 0.26391 0.01992 0.16500
H 	H 	0.76449 0.11579 0.82934 0.15100
C 	C 	0.27719 0.11505 0.94704 -0.09000
C 	C 	0.30988 0.17218 0.94833 -0.06600
C 	C 	0.37033 0.17034 0.93971 0.17400
C 	C 	0.39824 0.11068 0.93340 -0.11700
C 	C 	0.36458 0.05565 0.92236 -0.05700
C 	C 	0.30435 0.05730 0.93019 0.16400
H 	H 	0.28887 0.21752 0.95774 0.07400
O 	O 	0.40191 0.22642 0.93885 -0.28600
H 	H 	0.38550 0.01030 0.91264 0.06300
O 	O 	0.27208 0.00245 0.92155 -0.31100
H 	H 	0.27248 0.97941 0.96057 0.16900
H 	H 	0.40313 0.24008 0.89613 0.15100
C 	C 	0.11239 0.94416 0.69832 -0.04500
C 	C 	0.10909 0.01125 0.70052 -0.12000
C 	C 	0.10628 0.04287 0.75594 0.20700
C 	C 	0.10776 0.00712 0.80965 -0.16600
C 	C 	0.11127 0.94002 0.80725 0.01500
C 	C 	0.11304 0.90844 0.75190 0.14300
H 	H 	0.10828 0.03888 0.65924 0.07100
O 	O 	0.10508 0.10871 0.75752 -0.29100
H 	H 	0.11293 0.91236 0.84840 0.05400
O 	O 	0.11809 0.84285 0.75018 -0.27000
H 	H 	0.07768 0.82600 0.75152 0.15500
H 	H 	0.06338 0.11996 0.75588 0.15400
C 	C 	0.12629 0.93853 0.30941 -0.06700
C 	C 	0.13273 0.00512 0.30058 -0.08300
C 	C 	0.13116 0.03130 0.24262 0.12800
C 	C 	0.12308 0.99091 0.19259 -0.01800
C 	C 	0.12076 0.92399 0.20098 -0.07900
C 	C 	0.12305 0.89771 0.25893 0.17300
H 	H 	0.13705 0.03699 0.33881 0.07100
O 	O 	0.13881 0.09622 0.23490 -0.27300
H 	H 	0.11537 0.89231 0.16275 0.08400
O 	O 	0.12095 0.83229 0.26606 -0.27400
H 	H 	0.16202 0.81838 0.26476 0.15700
H 	H 	0.09977 0.11505 0.24104 0.15400
