data_crystal

_cell_length_a 15.82446
_cell_length_b 15.55106
_cell_length_c 37.41675
_cell_angle_alpha 89.87580
_cell_angle_beta  89.87807
_cell_angle_gamma 119.38504

_symmetry_space_group_name_	'P 1'
_symmetry_space_group_name_H-M	'P 1'

loop_
_symmetry_equiv_pos_as_xyz
  x,y,z

loop_
_atom_site_label
_atom_site_type_symbol
_atom_site_fract_x
_atom_site_fract_y
_atom_site_fract_z
_atom_site_charge
Ni	Ni	0.05495 0.92274 0.75833 1.13300
Ni	Ni	0.12733 0.15764 0.75271 1.11900
O 	O 	0.02907 0.02757 0.76334 -0.71800
O 	O 	0.04968 0.15261 0.20497 -0.36200
O 	O 	0.07320 0.87748 0.29994 -0.36500
O 	O 	0.02158 0.16442 0.27852 -0.35900
O 	O 	0.04397 0.84380 0.22365 -0.35600
O 	O 	0.02485 0.99869 0.25921 -0.62800
H 	H 	0.02303 0.01541 0.28445 0.11700
C 	C 	0.06749 0.85579 0.37390 0.00500
S 	S 	0.05684 0.67866 0.38030 -0.01300
H 	H 	0.09695 0.67367 0.34842 0.05300
H 	H 	0.99435 0.81642 0.36339 0.01900
C 	C 	0.02627 0.54414 0.44634 -0.02500
C 	C 	0.04538 0.63070 0.46531 0.01900
C 	C 	0.96883 0.64676 0.47541 -0.01800
C 	C 	0.98858 0.73468 0.49477 0.04700
N 	N 	0.00451 0.80530 0.51030 -0.05900
C 	C 	0.98972 0.60016 0.07253 -0.18800
C 	C 	0.22725 0.06529 0.79856 0.23900
C 	C 	0.21419 0.06893 0.70891 0.24800
O 	O 	0.14601 0.98085 0.80115 -0.32400
O 	O 	0.23003 0.14609 0.78420 -0.35900
O 	O 	0.18207 0.98512 0.72660 -0.31000
O 	O 	0.16374 0.11361 0.70813 -0.38000
C 	C 	0.25543 0.80660 0.41248 0.28800
C 	C 	0.10437 0.51655 0.44424 0.27200
C 	C 	0.24725 0.59925 0.32524 0.30700
O 	O 	0.19251 0.55412 0.35211 -0.39900
O 	O 	0.17048 0.55089 0.46915 -0.35900
O 	O 	0.11521 0.47065 0.41570 -0.33400
H 	H 	0.23554 0.64314 0.40552 0.15900
C 	C 	0.24521 0.61898 0.18157 0.31000
C 	C 	0.18788 0.41895 0.09139 0.31300
C 	C 	0.07851 0.62225 0.09173 0.37500
O 	O 	0.13809 0.71168 0.10356 -0.37000
O 	O 	0.19878 0.62720 0.15498 -0.38300
O 	O 	0.21937 0.47031 0.12030 -0.37100
O 	O 	0.11231 0.56334 0.08602 -0.39600
C 	C 	0.10380 0.13153 0.18407 0.30600
C 	C 	0.11501 0.22894 0.27461 0.30100
C 	C 	0.13515 0.87009 0.22881 0.30900
C 	C 	0.12473 0.95882 0.31936 0.31700
Ni	Ni	0.16224 0.06771 0.25072 1.10300
O 	O 	0.19587 0.95991 0.23999 -0.35500
O 	O 	0.14612 0.08249 0.19686 -0.37900
O 	O 	0.17852 0.04639 0.30345 -0.40700
O 	O 	0.17605 0.20424 0.25916 -0.38000
C 	C 	0.12005 0.16839 0.14632 -0.08200
C 	C 	0.04353 0.17209 0.12845 0.02900
C 	C 	0.06336 0.24472 0.10223 0.06000
C 	C 	0.16007 0.31336 0.09359 -0.07600
C 	C 	0.23259 0.29100 0.10397 -0.02800
C 	C 	0.21451 0.22247 0.13168 0.04500
C 	C 	0.16785 0.79495 0.22816 -0.08400
C 	C 	0.26749 0.82642 0.22583 -0.02400
C 	C 	0.23223 0.65833 0.21574 -0.07800
C 	C 	0.13519 0.62470 0.22573 -0.03400
C 	C 	0.10250 0.69247 0.23238 0.08400
H 	H 	0.08234 0.54736 0.22246 0.06300
C 	C 	0.15098 0.33568 0.28102 -0.08200
C 	C 	0.25129 0.39807 0.28537 -0.02300
C 	C 	0.22838 0.53930 0.29278 -0.07700
C 	C 	0.13007 0.48078 0.28354 -0.03400
C 	C 	0.09126 0.37958 0.27676 0.08400
H 	H 	0.08115 0.51033 0.28692 0.06100
C 	C 	0.19588 0.85551 0.40939 -0.09700
C 	C 	0.22093 0.00373 0.37740 -0.08300
C 	C 	0.13350 0.94628 0.35867 -0.00100
C 	C 	0.10369 0.80292 0.39245 0.04900
H 	H 	0.11817 0.68195 0.47385 0.04900
H 	H 	0.15246 0.49217 0.60037 0.04800
H 	H 	0.08922 0.33523 0.67448 0.05100
H 	H 	0.22909 0.98904 0.64727 0.10900
C 	C 	0.00094 0.63364 0.03715 0.11800
C 	C 	0.05096 0.73746 0.02905 0.07600
N 	N 	0.09015 0.82055 0.02196 -0.08100
N 	N 	0.20181 0.98944 0.07277 -0.10500
H 	H 	0.24504 0.07001 0.87008 0.05000
H 	H 	0.03068 0.03446 0.78955 0.15800
O 	O 	0.07895 0.20778 0.79272 -0.34700
Ni	Ni	0.30915 0.66286 0.45861 1.11700
Ni	Ni	0.24789 0.51219 0.39084 1.12000
O 	O 	0.27711 0.78155 0.44505 -0.33800
O 	O 	0.29513 0.79974 0.38219 -0.37600
O 	O 	0.33316 0.67871 0.33075 -0.37400
O 	O 	0.29557 0.64121 0.40961 -0.71000
Ni	Ni	0.27090 0.74552 0.12416 1.12400
Ni	Ni	0.22951 0.60988 0.05599 1.12200
O 	O 	0.32389 0.61326 0.17443 -0.36600
O 	O 	0.24524 0.74637 0.04118 -0.35700
O 	O 	0.20223 0.46502 0.06029 -0.36300
O 	O 	0.31029 0.66920 0.09585 -0.71100
S 	S 	0.31111 0.20878 0.14841 -0.05000
H 	H 	0.31681 0.13579 0.12995 0.04100
H 	H 	0.30629 0.33728 0.09457 0.04000
C 	C 	0.29904 0.75672 0.22421 0.03400
H 	H 	0.32035 0.90419 0.22760 0.06100
C 	C 	0.28973 0.50025 0.28550 0.03900
H 	H 	0.30014 0.36786 0.28488 0.05000
C 	C 	0.24707 0.95919 0.40506 0.12300
S 	S 	0.29187 0.13132 0.36961 -0.00600
H 	H 	0.31581 0.00194 0.41852 -0.00700
N 	N 	0.30417 0.75778 0.51836 -0.13800
H 	H 	0.30020 0.30430 0.46100 0.05700
C 	C 	0.29958 0.10648 0.68549 -0.04000
C 	C 	0.28873 0.06285 0.65185 -0.09400
C 	C 	0.34796 0.11754 0.62314 0.06300
S 	S 	0.32521 0.06401 0.58030 -0.02900
H 	H 	0.34745 0.30932 0.73623 0.02500
H 	H 	0.37926 0.01801 0.57533 0.04000
C 	C 	0.26569 0.99561 0.05572 0.17500
C 	C 	0.27663 0.32879 0.94715 0.08500
N 	N 	0.21667 0.25287 0.93711 -0.10800
C 	C 	0.31149 0.07562 0.81902 -0.05800
C 	C 	0.30895 0.07788 0.85640 -0.02500
S 	S 	0.37952 0.02839 0.75804 -0.08300
H 	H 	0.33396 0.92736 0.75759 0.07900
O 	O 	0.35820 0.56356 0.47276 -0.33700
S 	S 	0.07043 0.45672 0.62102 -0.00200
C 	C 	0.31145 0.83569 0.05396 0.26700
Ni	Ni	0.35430 0.59265 0.12045 1.11100
O 	O 	0.32852 0.85237 0.08846 -0.36600
H 	H 	0.41442 0.80358 0.27690 0.04400
H 	H 	0.36226 0.14804 0.34484 0.03100
N 	N 	0.35454 0.11710 0.47765 -0.11400
C 	C 	0.37670 0.20352 0.69087 0.01700
S 	S 	0.39837 0.25945 0.73314 -0.03000
C 	C 	0.34616 0.00424 0.03468 -0.10600
H 	H 	0.28763 0.40547 0.01203 0.05500
C 	C 	0.38855 0.06907 0.80229 0.03500
C 	C 	0.38919 0.09000 0.87609 0.03500
S 	S 	0.38259 0.08410 0.92287 -0.04000
S 	S 	0.41342 0.78794 0.24094 -0.01300
C 	C 	0.35629 0.49639 0.45080 0.29500
Ni	Ni	0.38701 0.74876 0.37982 1.12300
O 	O 	0.37375 0.54148 0.36179 -0.36400
O 	O 	0.28049 0.44728 0.43067 -0.38100
O 	O 	0.40141 0.80250 0.15339 -0.35100
H 	H 	0.36872 0.72175 0.08416 0.18100
S 	S 	0.40376 0.57417 0.26637 -0.02000
H 	H 	0.39619 0.55386 0.23064 0.04200
C 	C 	0.38432 0.81761 0.51416 0.05900
C 	C 	0.37854 0.35002 0.46087 -0.01300
C 	C 	0.39107 0.20096 0.47197 0.08300
H 	H 	0.40042 0.15900 0.02315 0.03300
C 	C 	0.34786 0.45296 0.99477 -0.01600
C 	C 	0.35152 0.42345 0.95964 0.00900
H 	H 	0.39456 0.17146 0.93605 0.04600
O 	O 	0.39566 0.55308 0.07117 -0.36300
O 	O 	0.35309 0.64068 0.03162 -0.38400
C 	C 	0.42058 0.45298 0.45735 -0.05600
C 	C 	0.42294 0.21550 0.62845 -0.09400
C 	C 	0.43569 0.25781 0.66229 -0.00800
C 	C 	0.41549 0.09810 0.02204 0.01700
C 	C 	0.36104 0.92178 0.03001 0.01000
C 	C 	0.39543 0.58795 0.03818 0.29300
C 	C 	0.43678 0.30584 0.46522 0.00700
C 	C 	0.47689 0.11570 0.85823 -0.07300
C 	C 	0.47079 0.08778 0.82236 -0.02300
O 	O 	0.45548 0.74776 0.45621 -0.37700
C 	C 	0.41865 0.54641 0.00687 -0.06400
C 	C 	0.43534 0.47912 0.93887 -0.06700
C 	C 	0.50320 0.26143 0.60273 0.31900
C 	C 	0.46061 0.62323 0.36609 0.29200
O 	O 	0.46310 0.85780 0.41720 -0.36500
O 	O 	0.46723 0.68696 0.38931 -0.38600
C 	C 	0.47902 0.78941 0.14759 0.29700
O 	O 	0.47627 0.72708 0.12361 -0.37700
H 	H 	0.49723 0.78544 0.32948 -0.00100
C 	C 	0.48471 0.89242 0.50988 0.01000
H 	H 	0.49702 0.93454 0.56519 0.04600
H 	H 	0.50158 0.66073 0.18822 0.03600
H 	H 	0.49519 0.33168 0.66690 0.05100
C 	C 	0.44737 0.93710 0.01406 0.02500
H 	H 	0.53423 0.09358 0.80899 0.04400
C 	C 	0.48579 0.42721 0.92586 0.29400
O 	O 	0.05527 0.19920 0.71862 -0.34600
O 	O 	0.49990 0.37445 0.94989 -0.39300
O 	O 	0.54861 0.21350 0.59489 -0.39500
C 	C 	0.49032 0.83765 0.44753 0.32500
C 	C 	0.50399 0.11338 0.00813 -0.06200
C 	C 	0.53537 0.94520 0.54006 0.05300
C 	C 	0.52282 0.51057 0.45483 -0.00300
H 	H 	0.46128 0.87560 0.01156 0.05200
C 	C 	0.49313 0.57887 0.94770 -0.00800
C 	C 	0.49033 0.61086 0.98250 0.00400
C 	C 	0.56065 0.20999 0.86797 0.28200
O 	O 	0.55754 0.29055 0.85888 -0.36500
C 	C 	0.53297 0.91107 0.47615 -0.07800
O 	O 	0.54141 0.45900 0.89623 -0.36100
O 	O 	0.54520 0.35730 0.59640 -0.37800
C 	C 	0.53039 0.66702 0.33561 -0.07900
C 	C 	0.53851 0.36488 0.46746 -0.07600
C 	C 	0.52227 0.03298 0.00715 -0.03400
C 	C 	0.55210 0.81377 0.17585 -0.07000
C 	C 	0.54708 0.75976 0.32261 -0.00700
C 	C 	0.56318 0.20077 0.98537 0.29000
O 	O 	0.56558 0.32699 0.52602 -0.38300
C 	C 	0.56122 0.73521 0.19057 -0.02600
H 	H 	0.54873 0.62809 0.92945 0.05400
H 	H 	0.57394 0.30272 0.92262 0.16700
C 	C 	0.56971 0.61591 0.44941 0.08900
S 	S 	0.58716 0.55756 0.64321 -0.02800
H 	H 	0.60268 0.59267 0.60882 0.03900
C 	C 	0.04118 0.28701 0.65398 0.01600
H 	H 	0.97678 0.59063 0.98197 0.06100
S 	S 	0.96756 0.25721 0.08401 -0.07100
H 	H 	0.97270 0.73507 0.94244 0.04100
H 	H 	0.97557 0.88847 0.87618 0.04800
S 	S 	0.95892 0.67991 0.73657 -0.09300
C 	C 	0.95988 0.56542 0.00948 -0.09800
H 	H 	0.91807 0.63976 0.76900 0.04600
S 	S 	0.97189 0.31275 0.26040 -0.10800
C 	C 	0.74022 0.60280 0.92192 0.30300
C 	C 	0.82410 0.39427 0.86945 0.30800
C 	C 	0.80944 0.42496 0.98889 0.29400
Ni	Ni	0.65207 0.42484 0.88008 1.11400
Ni	Ni	0.63418 0.41912 0.96675 1.12100
Ni	Ni	0.70845 0.28671 0.92869 1.12400
O 	O 	0.64161 0.21468 0.88146 -0.36300
O 	O 	0.77366 0.47744 0.97615 -0.39300
O 	O 	0.76276 0.54927 0.90207 -0.37600
O 	O 	0.67328 0.55902 0.94706 -0.36700
O 	O 	0.59644 0.18440 0.95534 -0.39000
O 	O 	0.75667 0.40374 0.85235 -0.36100
O 	O 	0.82332 0.39583 0.90391 -0.38300
O 	O 	0.59133 0.29263 0.99732 -0.37300
O 	O 	0.78295 0.33641 0.97579 -0.36600
O 	O 	0.64059 0.35797 0.92381 -0.71000
C 	C 	0.83107 0.52110 0.50779 0.29100
C 	C 	0.64424 0.11792 0.55078 0.31900
C 	C 	0.59068 0.33481 0.49284 0.30800
C 	C 	0.87788 0.29499 0.58623 0.29800
C 	C 	0.73055 0.47585 0.63329 0.28800
Ni	Ni	0.75745 0.31504 0.52323 1.11400
Ni	Ni	0.68874 0.27215 0.60563 1.12100
Ni	Ni	0.65568 0.42778 0.56057 1.12100
O 	O 	0.85858 0.46021 0.52002 -0.38400
O 	O 	0.75007 0.51931 0.52020 -0.36200
O 	O 	0.63901 0.17937 0.52902 -0.38600
O 	O 	0.67893 0.14682 0.58310 -0.38200
O 	O 	0.73668 0.51166 0.60058 -0.38200
O 	O 	0.67544 0.34305 0.48473 -0.37100
O 	O 	0.69417 0.37885 0.63982 -0.37700
O 	O 	0.84949 0.27543 0.55200 -0.36000
O 	O 	0.83104 0.31943 0.60985 -0.39000
O 	O 	0.72560 0.35788 0.56542 -0.71200
H 	H 	0.78870 0.41105 0.57371 0.17800
C 	C 	0.88176 0.82355 0.71442 0.31500
C 	C 	0.88773 0.87223 0.81261 0.27800
C 	C 	0.99828 0.14087 0.69326 0.27100
C 	C 	0.98916 0.19372 0.79313 0.24900
Ni	Ni	0.90044 0.00169 0.75204 1.09600
O 	O 	0.92987 0.05050 0.70125 -0.39000
O 	O 	0.97573 0.87153 0.71217 -0.38000
O 	O 	0.83700 0.85911 0.73392 -0.36000
O 	O 	0.92255 0.13477 0.76984 -0.38500
O 	O 	0.93203 0.83718 0.79123 -0.36600
O 	O 	0.86402 0.93878 0.80107 -0.35100
C 	C 	0.81290 0.88199 0.29400 0.28900
C 	C 	0.83280 0.86365 0.20869 0.31300
Ni	Ni	0.95068 0.05254 0.24150 1.06900
Ni	Ni	0.96925 0.85892 0.26373 1.10300
O 	O 	0.82846 0.96106 0.27442 -0.35100
O 	O 	0.88485 0.86604 0.30229 -0.39100
O 	O 	0.90356 0.95061 0.20134 -0.37500
O 	O 	0.84846 0.80773 0.23131 -0.37700
H 	H 	0.93631 0.20352 0.05314 0.04300
H 	H 	0.96944 0.12511 0.13734 0.00400
C 	C 	0.73215 0.84517 0.20204 -0.10100
C 	C 	0.71839 0.92583 0.19290 0.04100
C 	C 	0.62938 0.91020 0.17936 0.05900
C 	C 	0.65082 0.74942 0.20258 0.04900
S 	S 	0.61685 0.01175 0.16583 -0.10100
S 	S 	0.65989 0.64551 0.21592 -0.03700
H 	H 	0.68413 0.60822 0.18696 0.04000
H 	H 	0.64131 0.03132 0.13042 0.04300
H 	H 	0.77793 0.00069 0.19519 -0.03000
S 	S 	0.98493 0.64832 0.24994 -0.12000
H 	H 	0.98871 0.64718 0.28651 0.02800
C 	C 	0.71174 0.80593 0.30490 -0.06300
C 	C 	0.69208 0.70930 0.31404 -0.02400
C 	C 	0.60256 0.64070 0.32971 0.04100
C 	C 	0.63614 0.82884 0.30795 0.02900
S 	S 	0.58377 0.52412 0.34306 -0.04300
S 	S 	0.65337 0.94710 0.29751 -0.01000
H 	H 	0.62991 0.94960 0.26245 0.04600
H 	H 	0.61554 0.52936 0.37744 0.04100
H 	H 	0.74732 0.68829 0.30996 0.04100
H 	H 	0.97396 0.31671 0.22380 0.03400
C 	C 	0.62857 0.02461 0.53628 -0.12000
C 	C 	0.63255 0.97794 0.47462 0.05700
C 	C 	0.68174 0.02845 0.50545 -0.04200
H 	H 	0.67273 0.98579 0.45016 0.04400
C 	C 	0.78578 0.08948 0.50448 0.06300
N 	N 	0.86933 0.13791 0.50340 -0.12100
C 	C 	0.87438 0.56793 0.47343 -0.06400
C 	C 	0.85643 0.50220 0.44485 -0.01500
C 	C 	0.93073 0.48231 0.43393 -0.04100
H 	H 	0.78295 0.45594 0.43557 0.04500
C 	C 	0.90821 0.39996 0.41071 0.07700
N 	N 	0.89006 0.33389 0.39206 -0.12400
C 	C 	0.58066 0.46532 0.45845 -0.01600
H 	H 	0.65896 0.51041 0.45785 0.04800
N 	N 	0.60896 0.70049 0.44513 -0.09500
C 	C 	0.99800 0.18399 0.65772 -0.11000
C 	C 	0.01735 0.32772 0.62491 0.06800
C 	C 	0.94633 0.26527 0.60044 -0.10500
C 	C 	0.91907 0.16467 0.60022 -0.02500
C 	C 	0.94615 0.12384 0.62846 0.04800
S 	S 	0.92277 0.00112 0.62518 -0.07900
H 	H 	0.00076 0.00011 0.60963 0.07300
H 	H 	0.87007 0.11675 0.57988 0.05400
C 	C 	0.82814 0.72071 0.70159 -0.08200
C 	C 	0.74110 0.68868 0.68304 -0.01300
C 	C 	0.69935 0.59893 0.66468 0.03600
C 	C 	0.74760 0.54296 0.66338 -0.06600
C 	C 	0.82717 0.56837 0.68571 -0.02900
C 	C 	0.86649 0.65586 0.70550 0.05300
H 	H 	0.70768 0.73504 0.68183 0.05400
H 	H 	0.86127 0.52258 0.68643 0.04600
C 	C 	0.88361 0.46991 0.01669 -0.03400
C 	C 	0.90792 0.50850 0.08041 0.03900
C 	C 	0.85812 0.44121 0.05273 -0.03400
H 	H 	0.89224 0.48400 0.10801 0.02600
C 	C 	0.78064 0.34354 0.06149 0.09000
N 	N 	0.71859 0.26524 0.06848 -0.11500
C 	C 	0.61894 0.04908 0.00030 0.08700
N 	N 	0.69634 0.06204 0.99483 -0.12300
C 	C 	0.56045 0.71013 0.99288 0.08700
N 	N 	0.61657 0.78964 0.00119 -0.09900
C 	C 	0.87689 0.34989 0.85115 -0.08700
C 	C 	0.90918 0.37820 0.81590 -0.01600
C 	C 	0.95443 0.33361 0.79733 0.03400
C 	C 	0.96851 0.26041 0.81423 -0.06400
C 	C 	0.94435 0.23834 0.85014 -0.03500
C 	C 	0.89518 0.27863 0.86843 0.05200
S 	S 	0.99405 0.37066 0.75308 -0.05100
S 	S 	0.84993 0.23162 0.91143 -0.10400
H 	H 	0.76219 0.14709 0.90862 0.02800
H 	H 	0.92260 0.31100 0.72977 0.04400
H 	H 	0.89818 0.43414 0.80276 0.04500
H 	H 	0.95652 0.18294 0.86314 0.04100
C 	C 	0.84234 0.81868 0.84606 -0.06200
C 	C 	0.89916 0.83389 0.87662 -0.02300
C 	C 	0.85789 0.77629 0.90746 0.04200
C 	C 	0.76108 0.69886 0.90689 -0.07500
C 	C 	0.70114 0.69727 0.87887 -0.02900
C 	C 	0.74165 0.75384 0.84797 0.03900
S 	S 	0.93083 0.79382 0.94512 -0.01800
S 	S 	0.66663 0.73613 0.81082 -0.02600
H 	H 	0.63291 0.80210 0.81227 0.05100
H 	H 	0.62586 0.64067 0.87841 0.04700
