data_crystal

_cell_length_a 18.68982
_cell_length_b 18.82319
_cell_length_c 33.55315
_cell_angle_alpha 95.41218
_cell_angle_beta  95.41361
_cell_angle_gamma 126.42912

_symmetry_space_group_name_	'P 1'
_symmetry_space_group_name_H-M	'P 1'

loop_
_symmetry_equiv_pos_as_xyz
  x,y,z

loop_
_atom_site_label
_atom_site_type_symbol
_atom_site_fract_x
_atom_site_fract_y
_atom_site_fract_z
_atom_site_charge
C 	C 	0.90918 0.00429 0.96702 0.04300
C 	C 	0.86118 0.91066 0.96250 -0.08900
C 	C 	0.90781 0.87343 0.96059 0.03900
C 	C 	0.00168 0.92984 0.96220 -0.08900
C 	C 	0.04991 0.02342 0.96841 0.04200
C 	C 	0.00338 0.06023 0.97060 -0.08600
H 	H 	0.78855 0.86736 0.96105 0.04900
H 	H 	0.03725 0.90102 0.95933 0.04900
H 	H 	0.04058 0.13257 0.97537 0.05000
C 	C 	0.94245 0.02922 0.50192 0.04500
C 	C 	0.03550 0.08200 0.50102 -0.09000
C 	C 	0.08024 0.04289 0.50182 0.04500
C 	C 	0.03170 0.95120 0.50254 -0.09200
C 	C 	0.93907 0.89857 0.50302 0.04200
C 	C 	0.89486 0.93789 0.50366 -0.09300
H 	H 	0.07253 0.15260 0.49947 0.05000
H 	H 	0.06591 0.92062 0.50228 0.05200
H 	H 	0.82287 0.89684 0.50396 0.05200
Cu	Cu	0.75681 0.34512 0.95554 0.92500
Cu	Cu	0.75939 0.29801 0.04676 0.86800
Cu	Cu	0.61855 0.31079 0.00837 0.89500
Cu	Cu	0.57918 0.32076 0.92158 0.89400
C 	C 	0.68765 0.29916 0.86955 0.26400
O 	O 	0.79798 0.47046 0.94855 -0.36300
C 	C 	0.68178 0.35224 0.09804 0.25700
O 	O 	0.61645 0.26741 0.95333 -0.63700
O 	O 	0.75068 0.37089 0.01291 -0.64200
O 	O 	0.82191 0.29162 0.96420 -0.38000
O 	O 	0.72839 0.20375 0.00535 -0.44500
O 	O 	0.64813 0.33682 0.87709 -0.38300
O 	O 	0.48852 0.24558 0.00206 -0.38800
C 	C 	0.43361 0.23784 0.97101 0.29700
C 	C 	0.75452 0.50189 0.96031 0.28300
O 	O 	0.67001 0.44592 0.96505 -0.40300
O 	O 	0.45603 0.25055 0.93472 -0.40200
O 	O 	0.74144 0.30141 0.89891 -0.36400
C 	C 	0.78428 0.21910 0.98059 0.29400
O 	O 	0.62195 0.33791 0.06735 -0.37400
O 	O 	0.75667 0.36441 0.09209 -0.41800
H 	H 	0.57977 0.20120 0.94574 0.16500
H 	H 	0.78930 0.43549 0.02543 0.16800
Cu	Cu	0.60680 0.19214 0.50520 0.92600
Cu	Cu	0.66021 0.18892 0.41482 0.87000
Cu	Cu	0.66305 0.33850 0.45451 0.89700
Cu	Cu	0.62652 0.36593 0.53754 0.89300
C 	C 	0.64556 0.25823 0.59140 0.26000
O 	O 	0.47870 0.14772 0.50876 -0.36500
C 	C 	0.62176 0.27899 0.36445 0.26000
O 	O 	0.68858 0.33259 0.51027 -0.64000
O 	O 	0.58997 0.20477 0.44777 -0.64000
O 	O 	0.65549 0.12257 0.49821 -0.37400
O 	O 	0.74928 0.21168 0.45732 -0.44300
O 	O 	0.61053 0.30023 0.58336 -0.38200
O 	O 	0.74024 0.46821 0.46500 -0.38700
C 	C 	0.74150 0.51879 0.49560 0.29800
C 	C 	0.44863 0.19149 0.49658 0.29000
O 	O 	0.50614 0.27436 0.49145 -0.39800
O 	O 	0.68193 0.48350 0.51997 -0.40000
O 	O 	0.64210 0.20302 0.56241 -0.35600
C 	C 	0.72740 0.15384 0.48157 0.29600
O 	O 	0.65753 0.34569 0.39586 -0.38000
O 	O 	0.60146 0.20078 0.36939 -0.41700
H 	H 	0.75379 0.36753 0.52193 0.16100
H 	H 	0.52633 0.17245 0.43412 0.17000
C 	C 	0.62798 0.24842 0.76450 0.07500
C 	C 	0.57956 0.19507 0.72575 -0.08500
C 	C 	0.61290 0.23542 0.69214 0.00900
C 	C 	0.69704 0.31764 0.69676 0.07400
C 	C 	0.75181 0.36426 0.73546 -0.08400
C 	C 	0.71154 0.33106 0.76913 0.00800
N 	N 	0.61802 0.21629 0.79928 -0.15300
C 	C 	0.69380 0.28038 0.82713 -0.00300
C 	C 	0.75586 0.35044 0.80839 -0.04200
N 	N 	0.72873 0.32702 0.66182 -0.15400
C 	C 	0.66319 0.25227 0.63398 0.00200
C 	C 	0.59217 0.19153 0.65272 -0.04200
H 	H 	0.52098 0.12535 0.72201 0.05000
H 	H 	0.82243 0.42145 0.73908 0.04900
H 	H 	0.81203 0.41746 0.82433 0.04500
H 	H 	0.52425 0.13665 0.63684 0.04700
H 	H 	0.55547 0.16695 0.80645 0.07300
H 	H 	0.77931 0.38879 0.65468 0.07200
C 	C 	0.62739 0.27862 0.18930 0.07000
C 	C 	0.57161 0.22621 0.21582 -0.08400
C 	C 	0.60965 0.25431 0.25752 0.00600
C 	C 	0.69154 0.33792 0.27241 0.07000
C 	C 	0.74125 0.39592 0.24604 -0.08400
C 	C 	0.71101 0.36043 0.20413 0.00600
N 	N 	0.59702 0.27449 0.15060 -0.15300
C 	C 	0.66328 0.35205 0.13962 -0.00500
C 	C 	0.73305 0.40919 0.17320 -0.04500
N 	N 	0.69706 0.36551 0.31175 -0.15200
C 	C 	0.62049 0.29772 0.32293 -0.00500
C 	C 	0.56247 0.22936 0.28913 -0.04700
H 	H 	0.50153 0.16876 0.20474 0.04800
H 	H 	0.79833 0.46567 0.25748 0.04800
H 	H 	0.80102 0.46627 0.17163 0.04100
H 	H 	0.50601 0.16113 0.29036 0.04200
H 	H 	0.54709 0.21466 0.13022 0.07400
H 	H 	0.75764 0.41546 0.33185 0.08000
C 	C 	0.89466 0.76907 0.53588 -0.08400
C 	C 	0.88763 0.80119 0.50088 -0.01500
C 	C 	0.83695 0.74084 0.46344 0.03200
C 	C 	0.79106 0.64856 0.46201 -0.01800
C 	C 	0.79701 0.61621 0.49716 -0.10600
C 	C 	0.85166 0.67716 0.53412 0.09000
C 	C 	0.86343 0.64459 0.57181 -0.19600
H 	H 	0.93487 0.81598 0.56440 0.04600
H 	H 	0.74935 0.60161 0.43367 0.04200
C 	C 	0.83061 0.77446 0.42516 -0.17500
H 	H 	0.92290 0.70059 0.59479 0.06100
H 	H 	0.87470 0.59364 0.56413 0.05800
H 	H 	0.80218 0.61461 0.58577 0.06400
H 	H 	0.89944 0.82755 0.41991 0.06300
H 	H 	0.79272 0.80237 0.42806 0.06200
H 	H 	0.79499 0.71978 0.39787 0.06000
C 	C 	0.84439 0.05020 0.45815 -0.08000
C 	C 	0.89253 0.06679 0.49685 -0.01600
C 	C 	0.88397 0.10945 0.53099 0.03300
C 	C 	0.82697 0.13479 0.52577 -0.01800
C 	C 	0.77881 0.11809 0.48701 -0.10800
C 	C 	0.78574 0.07332 0.45307 0.08500
C 	C 	0.73144 0.05073 0.41135 -0.18500
H 	H 	0.85064 0.01675 0.43211 0.04600
H 	H 	0.82120 0.16878 0.55176 0.04000
C 	C 	0.93469 0.12720 0.57293 -0.17600
H 	H 	0.72921 0.99966 0.39052 0.05300
H 	H 	0.76253 0.11221 0.39784 0.04000
H 	H 	0.66042 0.02251 0.41331 0.03900
H 	H 	0.00851 0.16863 0.57297 0.06100
H 	H 	0.91177 0.06253 0.58201 0.06500
H 	H 	0.92334 0.16392 0.59616 0.06200
C 	C 	0.20648 0.10513 0.46381 -0.08300
C 	C 	0.17793 0.09706 0.50141 -0.01600
C 	C 	0.24007 0.12455 0.53761 0.03200
C 	C 	0.32727 0.15161 0.53531 -0.02000
C 	C 	0.35455 0.15579 0.49756 -0.10800
C 	C 	0.29440 0.13395 0.46155 0.09100
C 	C 	0.32302 0.13948 0.42069 -0.19900
H 	H 	0.15881 0.08481 0.43611 0.04700
H 	H 	0.37440 0.17044 0.56299 0.03800
C 	C 	0.21207 0.12048 0.57855 -0.17500
H 	H 	0.26611 0.11387 0.39524 0.06400
H 	H 	0.34731 0.09851 0.41581 0.06200
H 	H 	0.37825 0.21046 0.41946 0.07000
H 	H 	0.16936 0.04972 0.58309 0.06400
H 	H 	0.17319 0.14755 0.58041 0.06200
H 	H 	0.27188 0.16114 0.60377 0.06000
C 	C 	0.81205 0.63065 0.92446 -0.02200
C 	C 	0.79451 0.59737 0.96087 -0.10400
C 	C 	0.80889 0.65350 0.99675 0.08700
C 	C 	0.84091 0.74226 0.99558 -0.08400
C 	C 	0.85959 0.77588 0.95928 -0.01500
C 	C 	0.84267 0.71889 0.92316 0.03100
C 	C 	0.85955 0.75256 0.88349 -0.17500
H 	H 	0.80026 0.58726 0.89690 0.03900
H 	H 	0.85382 0.78608 0.02322 0.04500
C 	C 	0.79157 0.61966 0.03639 -0.19800
H 	H 	0.82697 0.69622 0.85708 0.05900
H 	H 	0.93346 0.79803 0.88380 0.06200
H 	H 	0.83115 0.78954 0.87888 0.06300
H 	H 	0.82885 0.59200 0.04325 0.06000
H 	H 	0.71799 0.56634 0.03428 0.07000
H 	H 	0.81450 0.67423 0.06233 0.06300
C 	C 	0.83502 0.06426 0.93468 -0.08900
C 	C 	0.86202 0.04517 0.97001 -0.01100
C 	C 	0.86015 0.08063 0.00854 0.02500
C 	C 	0.83836 0.14035 0.01140 -0.01500
C 	C 	0.81408 0.16190 0.97622 -0.11800
C 	C 	0.80965 0.12135 0.93741 0.09900
C 	C 	0.77932 0.13945 0.89897 -0.20700
H 	H 	0.83649 0.03692 0.90511 0.04900
H 	H 	0.84018 0.17014 0.04113 0.01400
C 	C 	0.88605 0.05876 0.04685 -0.16600
H 	H 	0.76862 0.09405 0.87148 0.06900
H 	H 	0.83156 0.20985 0.89569 0.08800
H 	H 	0.71416 0.12834 0.89989 0.07700
H 	H 	0.96040 0.09499 0.05339 0.05900
H 	H 	0.85104 0.98530 0.04321 0.05600
H 	H 	0.86658 0.07872 0.07352 0.05300
C 	C 	0.30006 0.13678 0.00283 -0.01900
C 	C 	0.33770 0.19368 0.97436 -0.10500
C 	C 	0.28143 0.20262 0.94747 0.09300
C 	C 	0.18732 0.14272 0.94430 -0.08600
C 	C 	0.14941 0.08343 0.97166 -0.01300
C 	C 	0.20695 0.08531 0.00306 0.03000
C 	C 	0.16987 0.03222 0.03655 -0.16900
H 	H 	0.34298 0.13206 0.02467 0.04300
H 	H 	0.14356 0.14403 0.92124 0.04800
C 	C 	0.32070 0.27673 0.92294 -0.19700
H 	H 	0.22378 0.06024 0.06383 0.05900
H 	H 	0.14193 0.96130 0.02575 0.05700
H 	H 	0.11615 0.03464 0.04642 0.06300
H 	H 	0.33215 0.25488 0.89390 0.06900
H 	H 	0.38533 0.33921 0.94035 0.06600
H 	H 	0.27375 0.29353 0.91552 0.06300
