data_crystal

_cell_length_a 27.20258
_cell_length_b 29.07838
_cell_length_c 22.17453
_cell_angle_alpha 61.54182
_cell_angle_beta  117.98324
_cell_angle_gamma 133.15251

_symmetry_space_group_name_	'P 1'
_symmetry_space_group_name_H-M	'P 1'

loop_
_symmetry_equiv_pos_as_xyz
  x,y,z

loop_
_atom_site_label
_atom_site_type_symbol
_atom_site_fract_x
_atom_site_fract_y
_atom_site_fract_z
_atom_site_charge
C 	C 	0.77057 0.32311 0.08231 0.27900
N 	N 	0.80722 0.38863 0.06906 -0.10000
C 	C 	0.78476 0.41344 0.07967 0.28700
N 	N 	0.72623 0.37298 0.10348 -0.11300
C 	C 	0.68988 0.30779 0.11719 0.29000
N 	N 	0.71198 0.28275 0.10653 -0.10400
C 	C 	0.77711 0.32367 0.59672 0.29900
N 	N 	0.81390 0.38924 0.58331 -0.09900
C 	C 	0.79183 0.41429 0.59417 0.29700
N 	N 	0.73344 0.37402 0.61819 -0.11100
C 	C 	0.69676 0.30879 0.63173 0.29500
N 	N 	0.71858 0.28352 0.62098 -0.10400
C 	C 	0.24305 0.64404 0.31025 0.29200
N 	N 	0.30316 0.67926 0.29092 -0.10000
C 	C 	0.32148 0.64850 0.28500 0.29100
N 	N 	0.27987 0.58282 0.29859 -0.11100
C 	C 	0.21945 0.54762 0.31655 0.29500
N 	N 	0.20083 0.57813 0.32236 -0.10200
C 	C 	0.24555 0.64742 0.80933 0.29600
N 	N 	0.30585 0.68222 0.79061 -0.09800
C 	C 	0.32385 0.65102 0.78502 0.29400
N 	N 	0.28171 0.58534 0.79829 -0.10900
C 	C 	0.22111 0.55058 0.81565 0.29900
N 	N 	0.20284 0.58152 0.82117 -0.10000
Co	Co	0.10039 0.00571 0.21701 1.20000
Co	Co	0.89257 0.95154 0.16537 1.20700
Co	Co	0.01792 0.02091 0.26994 1.18900
Co	Co	0.97779 0.94248 0.10981 1.20500
C 	C 	0.14935 0.92633 0.26906 0.42100
Co	Co	0.11528 0.96669 0.11283 1.18600
Co	Co	0.87819 0.98949 0.27122 1.18900
C 	C 	0.00922 0.97350 0.97655 0.28300
O 	O 	0.94111 0.08884 0.23441 -0.30800
O 	O 	0.93425 0.98960 0.23040 -0.73400
C 	C 	0.00826 0.12358 0.26142 0.37100
O 	O 	0.10824 0.03633 0.28860 -0.39400
O 	O 	0.88460 0.91962 0.09533 -0.39300
C 	C 	0.82336 0.01371 0.11712 0.43100
O 	O 	0.00447 0.00179 0.17361 -0.56100
C 	C 	0.98006 0.97628 0.40344 0.25400
C 	C 	0.21945 0.09708 0.14090 0.40800
C 	C 	0.97958 0.83593 0.12166 0.41900
O 	O 	0.04838 0.11153 0.26322 -0.32000
O 	O 	0.17855 0.06684 0.08961 -0.35200
O 	O 	0.19429 0.08835 0.18732 -0.31600
O 	O 	0.80480 0.97884 0.17739 -0.35600
O 	O 	0.85597 0.00648 0.09735 -0.31800
O 	O 	0.94556 0.00123 0.36964 -0.30000
O 	O 	0.99606 0.96327 0.36854 -0.30100
O 	O 	0.04695 0.86666 0.14013 -0.35700
O 	O 	0.95078 0.84955 0.13857 -0.33800
O 	O 	0.06215 0.97745 0.14480 -0.74800
C 	C 	0.78794 0.85498 0.25810 0.40700
O 	O 	0.82336 0.88970 0.30442 -0.34300
O 	O 	0.81939 0.86185 0.22018 -0.32800
O 	O 	0.17700 0.96494 0.21387 -0.35300
O 	O 	0.10969 0.93104 0.28039 -0.34000
O 	O 	0.05821 0.96477 0.00801 -0.33700
O 	O 	0.99381 0.98892 0.00913 -0.34100
Co	Co	0.10410 0.00994 0.71894 1.20000
Co	Co	0.89523 0.95283 0.66903 1.20900
Co	Co	0.02053 0.02315 0.77286 1.18900
Co	Co	0.98157 0.94542 0.61288 1.20600
C 	C 	0.15329 0.93096 0.76941 0.42200
Co	Co	0.12114 0.97409 0.61331 1.18700
Co	Co	0.88028 0.99009 0.77525 1.19000
C 	C 	0.01026 0.97348 0.47941 0.20200
O 	O 	0.94234 0.08949 0.73825 -0.30600
O 	O 	0.93673 0.99118 0.73376 -0.73200
C 	C 	0.00959 0.12484 0.76470 0.37000
O 	O 	0.11110 0.03913 0.79134 -0.38800
O 	O 	0.88755 0.92020 0.59996 -0.38300
C 	C 	0.82498 0.01393 0.62131 0.42900
O 	O 	0.00739 0.00479 0.67605 -0.55900
C 	C 	0.98352 0.97847 0.90696 0.21700
C 	C 	0.22468 0.10299 0.64493 0.40800
C 	C 	0.98625 0.84140 0.62354 0.42600
O 	O 	0.05010 0.11334 0.76629 -0.31500
O 	O 	0.18462 0.07414 0.59257 -0.34300
O 	O 	0.19838 0.09344 0.69076 -0.31000
O 	O 	0.80658 0.97883 0.68164 -0.35400
O 	O 	0.85723 0.00668 0.60097 -0.31000
O 	O 	0.94776 0.00218 0.87355 -0.28100
O 	O 	0.99926 0.96554 0.87161 -0.28100
O 	O 	0.05375 0.87370 0.63828 -0.35700
O 	O 	0.95861 0.85406 0.64372 -0.33400
O 	O 	0.06668 0.98319 0.64574 -0.74600
C 	C 	0.79124 0.85570 0.76249 0.40800
O 	O 	0.82637 0.89041 0.80873 -0.33800
O 	O 	0.82300 0.86292 0.72463 -0.32300
O 	O 	0.18169 0.97058 0.71477 -0.35200
O 	O 	0.11333 0.93508 0.78109 -0.33800
O 	O 	0.06632 0.97529 0.50769 -0.29000
O 	O 	0.99348 0.98854 0.51079 -0.29300
C 	C 	0.11523 0.30162 0.75961 0.25000
C 	C 	0.08782 0.29721 0.80393 0.01100
C 	C 	0.03798 0.23611 0.83844 0.25900
C 	C 	0.01478 0.17971 0.82793 0.29400
C 	C 	0.04109 0.18394 0.78256 -0.17800
C 	C 	0.09185 0.24515 0.74885 0.33400
C 	C 	0.11224 0.35665 0.81502 0.00700
F 	F 	0.01160 0.23144 0.88173 -0.30600
F 	F 	0.11676 0.24999 0.70388 -0.32300
C 	C 	0.08575 0.39181 0.76507 0.26200
C 	C 	0.11647 0.45327 0.76989 0.31500
C 	C 	0.17411 0.47999 0.82440 -0.13300
C 	C 	0.19588 0.44192 0.87810 0.31700
C 	C 	0.16530 0.38059 0.87322 0.26000
F 	F 	0.03233 0.36767 0.71021 -0.30500
F 	F 	0.24994 0.46635 0.93246 -0.30700
F 	F 	0.09366 0.48889 0.71872 -0.31800
F 	F 	0.18944 0.34574 0.92324 -0.29900
F 	F 	0.16400 0.36065 0.72652 -0.29900
F 	F 	0.96601 0.12079 0.86117 -0.34000
C 	C 	0.60687 0.79415 0.68728 0.24700
C 	C 	0.58091 0.75495 0.74867 0.01200
C 	C 	0.61982 0.73701 0.81013 0.24300
C 	C 	0.68717 0.76406 0.81244 0.33500
C 	C 	0.71577 0.80865 0.75309 -0.19800
C 	C 	0.67346 0.81951 0.68911 0.32600
C 	C 	0.51499 0.73571 0.74986 0.00200
F 	F 	0.59342 0.69559 0.86847 -0.29800
F 	F 	0.69883 0.85880 0.63000 -0.35200
C 	C 	0.45229 0.69184 0.71109 0.26200
C 	C 	0.38961 0.66896 0.71746 0.31200
C 	C 	0.38890 0.68788 0.76468 -0.13200
C 	C 	0.45176 0.73479 0.80024 0.31400
C 	C 	0.51455 0.75906 0.79231 0.25900
F 	F 	0.45206 0.66975 0.66900 -0.29300
F 	F 	0.45209 0.75437 0.84520 -0.31100
F 	F 	0.32929 0.62661 0.67953 -0.31300
F 	F 	0.57502 0.80382 0.82751 -0.30800
F 	F 	0.56895 0.81022 0.62686 -0.29000
F 	F 	0.72622 0.75014 0.87359 -0.32600
C 	C 	0.19803 0.70090 0.88610 0.26600
C 	C 	0.19313 0.74854 0.82867 0.00200
C 	C 	0.20335 0.76143 0.76432 0.25600
C 	C 	0.21995 0.72805 0.75788 0.31400
C 	C 	0.22604 0.68115 0.81561 -0.13100
C 	C 	0.21424 0.66715 0.87957 0.31600
C 	C 	0.18161 0.78797 0.83675 0.01500
F 	F 	0.19806 0.80699 0.70829 -0.32800
F 	F 	0.22014 0.62202 0.93581 -0.30300
C 	C 	0.23829 0.84911 0.85115 0.24500
C 	C 	0.22817 0.89413 0.83943 0.33300
C 	C 	0.16135 0.87843 0.81271 -0.19300
C 	C 	0.10423 0.81397 0.80922 0.32300
C 	C 	0.11428 0.76918 0.81963 0.24200
F 	F 	0.30349 0.86655 0.87149 -0.29400
F 	F 	0.03909 0.79632 0.78997 -0.34400
F 	F 	0.28374 0.95497 0.84795 -0.30300
F 	F 	0.05884 0.70906 0.80873 -0.30600
F 	F 	0.18822 0.68807 0.94849 -0.28800
F 	F 	0.22977 0.74102 0.69541 -0.32300
C 	C 	0.08476 0.38902 0.26568 0.25900
C 	C 	0.11183 0.35425 0.31512 0.00500
C 	C 	0.16504 0.37824 0.37322 0.25700
C 	C 	0.19518 0.43930 0.37847 0.31300
C 	C 	0.17282 0.47705 0.32523 -0.13500
C 	C 	0.11503 0.45020 0.27088 0.31300
C 	C 	0.08762 0.29505 0.30369 0.01000
F 	F 	0.18970 0.34372 0.42278 -0.30900
F 	F 	0.09166 0.48549 0.22018 -0.32200
C 	C 	0.11577 0.29980 0.25988 0.24700
C 	C 	0.09205 0.24357 0.24820 0.33100
C 	C 	0.04015 0.18226 0.28045 -0.18200
C 	C 	0.01324 0.17767 0.32551 0.29300
C 	C 	0.03682 0.23382 0.33696 0.25500
F 	F 	0.16549 0.35896 0.22802 -0.30600
F 	F 	0.96346 0.11864 0.35745 -0.35000
F 	F 	0.11770 0.24878 0.20369 -0.33000
F 	F 	0.00982 0.22882 0.37987 -0.31700
F 	F 	0.03120 0.36479 0.21094 -0.30600
F 	F 	0.24939 0.46383 0.43269 -0.31600
C 	C 	0.44919 0.69046 0.20892 0.25900
C 	C 	0.51203 0.73439 0.24751 0.00000
C 	C 	0.51183 0.75750 0.29046 0.25700
C 	C 	0.44918 0.73287 0.29911 0.31100
C 	C 	0.38621 0.68582 0.26381 -0.13400
C 	C 	0.38663 0.66720 0.21604 0.30800
C 	C 	0.57784 0.75387 0.24570 0.01000
F 	F 	0.57243 0.80232 0.32549 -0.31500
F 	F 	0.32616 0.62472 0.17835 -0.32100
C 	C 	0.60350 0.79334 0.18413 0.24500
C 	C 	0.67001 0.81890 0.18544 0.32400
C 	C 	0.71252 0.80792 0.24907 -0.20100
C 	C 	0.68423 0.76312 0.30856 0.33300
C 	C 	0.61696 0.73588 0.30676 0.24000
F 	F 	0.56535 0.80946 0.12408 -0.29700
F 	F 	0.72349 0.74913 0.36935 -0.33500
F 	F 	0.69512 0.85851 0.12620 -0.35700
F 	F 	0.59084 0.69423 0.36524 -0.30500
F 	F 	0.44872 0.66865 0.16631 -0.30200
F 	F 	0.44977 0.75219 0.34455 -0.31900
C 	C 	0.19504 0.69676 0.38743 0.26300
C 	C 	0.18979 0.74425 0.33004 0.00100
C 	C 	0.19986 0.75720 0.26557 0.25400
C 	C 	0.21662 0.72404 0.25895 0.31200
C 	C 	0.22309 0.67733 0.31665 -0.13300
C 	C 	0.21144 0.66325 0.38074 0.31300
C 	C 	0.17804 0.78343 0.33825 0.01200
F 	F 	0.19425 0.80262 0.20959 -0.33300
F 	F 	0.21772 0.61832 0.43696 -0.31300
C 	C 	0.23458 0.84462 0.35258 0.24200
C 	C 	0.22428 0.88966 0.34033 0.33100
C 	C 	0.15743 0.87390 0.31315 -0.19600
C 	C 	0.10041 0.80937 0.30990 0.32100
C 	C 	0.11064 0.76455 0.32088 0.24000
F 	F 	0.29984 0.86213 0.37322 -0.30100
F 	F 	0.03519 0.79170 0.29014 -0.34500
F 	F 	0.27974 0.95058 0.34865 -0.30900
F 	F 	0.05532 0.70435 0.31013 -0.30800
F 	F 	0.18536 0.68387 0.44994 -0.29900
F 	F 	0.22627 0.73706 0.19636 -0.32900
C 	C 	0.87719 0.18302 0.56220 0.24500
C 	C 	0.81604 0.16987 0.55947 0.01200
C 	C 	0.75451 0.10654 0.56027 0.23900
C 	C 	0.75560 0.05575 0.57097 0.33200
C 	C 	0.81836 0.06763 0.58209 -0.19800
C 	C 	0.87819 0.13212 0.57275 0.32700
C 	C 	0.81793 0.22005 0.56457 0.00200
F 	F 	0.69453 0.09353 0.55530 -0.30200
F 	F 	0.93862 0.14483 0.57993 -0.34100
C 	C 	0.78281 0.24508 0.50790 0.26500
C 	C 	0.77319 0.28271 0.51714 0.31600
C 	C 	0.79906 0.29598 0.58292 -0.13300
C 	C 	0.83830 0.27480 0.63808 0.31800
C 	C 	0.84771 0.23696 0.62901 0.26000
F 	F 	0.75566 0.23077 0.44477 -0.29500
F 	F 	0.86482 0.28859 0.70141 -0.30700
F 	F 	0.73622 0.30398 0.46308 -0.30600
F 	F 	0.88293 0.21412 0.68381 -0.31700
F 	F 	0.93641 0.24452 0.55851 -0.29500
F 	F 	0.69660 0.99409 0.57604 -0.31800
C 	C 	0.88456 0.66295 0.64335 0.24800
C 	C 	0.89544 0.66461 0.58609 0.01500
C 	C 	0.92590 0.72311 0.53545 0.24500
C 	C 	0.94908 0.78026 0.54412 0.32500
C 	C 	0.94314 0.77971 0.60415 -0.20000
C 	C 	0.90827 0.72032 0.65231 0.34700
C 	C 	0.87605 0.60533 0.57987 0.00300
F 	F 	0.93523 0.72499 0.47907 -0.30800
F 	F 	0.90023 0.71864 0.70946 -0.30700
C 	C 	0.81848 0.57279 0.52858 0.26000
C 	C 	0.79584 0.51312 0.52744 0.31200
C 	C 	0.82961 0.48480 0.57858 -0.13300
C 	C 	0.89073 0.52007 0.62587 0.31600
C 	C 	0.91389 0.58017 0.62655 0.26100
F 	F 	0.78274 0.59764 0.48179 -0.30100
F 	F 	0.92490 0.49401 0.67437 -0.30800
F 	F 	0.73807 0.48049 0.47979 -0.31700
F 	F 	0.97166 0.61288 0.67416 -0.29900
F 	F 	0.85259 0.60603 0.69115 -0.29200
F 	F 	0.98082 0.83703 0.49608 -0.37500
C 	C 	0.50561 0.19262 0.62233 0.25900
C 	C 	0.50158 0.21165 0.66647 0.00200
C 	C 	0.56234 0.25346 0.70864 0.26300
C 	C 	0.62672 0.27968 0.70298 0.31500
C 	C 	0.63099 0.26618 0.65324 -0.13400
C 	C 	0.57007 0.22020 0.61525 0.31300
C 	C 	0.43432 0.19152 0.66465 0.01100
F 	F 	0.55904 0.27088 0.75286 -0.28600
F 	F 	0.57322 0.20534 0.56825 -0.31400
C 	C 	0.40466 0.14913 0.72356 0.24800
C 	C 	0.33831 0.12575 0.71955 0.32800
C 	C 	0.30004 0.14246 0.65573 -0.20000
C 	C 	0.33159 0.18835 0.59844 0.33100
C 	C 	0.39870 0.21322 0.60309 0.24100
F 	F 	0.43911 0.12878 0.78381 -0.28200
F 	F 	0.29631 0.20721 0.53753 -0.33600
F 	F 	0.30965 0.08391 0.77645 -0.33200
F 	F 	0.42850 0.25704 0.54715 -0.30500
F 	F 	0.44698 0.14949 0.58410 -0.31000
F 	F 	0.68523 0.32080 0.74336 -0.30600
C 	C 	0.87332 0.18241 0.05310 0.23200
C 	C 	0.81197 0.16907 0.05003 0.03100
C 	C 	0.75095 0.10533 0.05266 0.22300
C 	C 	0.75283 0.05450 0.06549 0.33400
C 	C 	0.81588 0.06681 0.07688 -0.20700
C 	C 	0.87517 0.13146 0.06597 0.32800
C 	C 	0.81334 0.21956 0.05343 -0.07900
F 	F 	0.69077 0.09208 0.04746 -0.31100
F 	F 	0.93591 0.14444 0.07377 -0.34700
C 	C 	0.77696 0.24308 0.99636 0.39000
C 	C 	0.76669 0.28077 0.00439 0.20200
C 	C 	0.79326 0.29567 0.06932 -0.09400
C 	C 	0.83386 0.27618 0.12470 0.28700
C 	C 	0.84384 0.23820 0.11688 0.29100
F 	F 	0.74917 0.22716 0.93409 -0.30200
F 	F 	0.86105 0.29159 0.18718 -0.30600
F 	F 	0.72845 0.30049 0.95006 -0.25800
F 	F 	0.88023 0.21679 0.17204 -0.32300
F 	F 	0.93200 0.24424 0.04760 -0.30100
F 	F 	0.69434 0.99257 0.07213 -0.32500
C 	C 	0.91864 0.72069 0.02869 0.21200
C 	C 	0.88919 0.66161 0.07893 0.01500
C 	C 	0.87930 0.65851 0.13794 0.24500
C 	C 	0.90299 0.71506 0.14888 0.34300
C 	C 	0.93669 0.77501 0.10088 -0.19600
C 	C 	0.94170 0.77699 0.03930 0.29200
C 	C 	0.86974 0.60324 0.07039 0.00200
F 	F 	0.84830 0.60100 0.18546 -0.29700
F 	F 	0.97222 0.83427 0.99142 -0.34000
C 	C 	0.90772 0.57797 0.11532 0.25800
C 	C 	0.88436 0.51843 0.11270 0.31100
C 	C 	0.82291 0.48386 0.06521 -0.12900
C 	C 	0.78919 0.51257 0.01551 0.28000
C 	C 	0.81197 0.57161 0.01865 0.22800
F 	F 	0.96576 0.60994 0.16320 -0.30300
F 	F 	0.73122 0.48074 0.96750 -0.28000
F 	F 	0.91858 0.49209 0.15971 -0.31100
F 	F 	0.77612 0.59665 0.97348 -0.26600
F 	F 	0.92709 0.72397 0.97074 -0.27500
F 	F 	0.89615 0.71210 0.20771 -0.31000
C 	C 	0.49935 0.18999 0.11123 0.25600
C 	C 	0.49580 0.20909 0.15571 -0.00000
C 	C 	0.55688 0.25177 0.19682 0.26000
C 	C 	0.62102 0.27863 0.18987 0.31100
C 	C 	0.62468 0.26492 0.13984 -0.13700
C 	C 	0.56355 0.21822 0.10282 0.30900
C 	C 	0.42858 0.18798 0.15546 0.00900
F 	F 	0.55406 0.26935 0.24129 -0.29300
F 	F 	0.56617 0.20322 0.05553 -0.32300
C 	C 	0.40049 0.14598 0.21538 0.24500
C 	C 	0.33429 0.12182 0.21301 0.32600
C 	C 	0.29461 0.13736 0.14986 -0.20400
C 	C 	0.32456 0.18283 0.09151 0.32800
C 	C 	0.39153 0.20848 0.09450 0.23700
F 	F 	0.43635 0.12677 0.27504 -0.28900
F 	F 	0.28786 0.20050 0.03117 -0.34900
F 	F 	0.30711 0.08026 0.27085 -0.33700
F 	F 	0.41980 0.25193 0.03756 -0.31500
F 	F 	0.44046 0.14609 0.07398 -0.31800
F 	F 	0.67984 0.32053 0.22928 -0.31200
