data_crystal

_cell_length_a 18.63691
_cell_length_b 18.86782
_cell_length_c 39.80603
_cell_angle_alpha 95.43136
_cell_angle_beta  95.43186
_cell_angle_gamma 126.40719

_symmetry_space_group_name_	'P 1'
_symmetry_space_group_name_H-M	'P 1'

loop_
_symmetry_equiv_pos_as_xyz
  x,y,z

loop_
_atom_site_label
_atom_site_type_symbol
_atom_site_fract_x
_atom_site_fract_y
_atom_site_fract_z
_atom_site_charge
C 	C 	0.91233 0.00269 0.97618 0.02200
C 	C 	0.00653 0.05838 0.97808 -0.05800
C 	C 	0.05297 0.02142 0.97579 0.02300
C 	C 	0.00596 0.92899 0.97375 -0.05800
C 	C 	0.91214 0.87283 0.97289 0.02500
C 	C 	0.86490 0.90962 0.97385 -0.05800
H 	H 	0.04335 0.13025 0.98056 0.05500
H 	H 	0.04214 0.90054 0.97237 0.05400
H 	H 	0.79212 0.86634 0.97271 0.05400
C 	C 	0.94891 0.03703 0.49919 0.02300
C 	C 	0.89308 0.94529 0.50017 -0.06100
C 	C 	0.92928 0.89817 0.50016 0.02600
C 	C 	0.02154 0.94290 0.49987 -0.06100
C 	C 	0.07801 0.03475 0.49948 0.02600
C 	C 	0.04181 0.08216 0.49922 -0.06000
H 	H 	0.82123 0.91025 0.50000 0.05500
H 	H 	0.04931 0.90607 0.49969 0.05500
H 	H 	0.08520 0.15315 0.49845 0.05400
Cu	Cu	0.75493 0.34033 0.96320 0.92800
Cu	Cu	0.72990 0.26972 0.03621 0.86800
Cu	Cu	0.61793 0.31759 0.00554 0.89600
Cu	Cu	0.58324 0.32639 0.93127 0.90000
C 	C 	0.69465 0.30337 0.89019 0.31000
O 	O 	0.80193 0.46878 0.95978 -0.35200
C 	C 	0.66515 0.34048 0.08082 0.28600
O 	O 	0.61406 0.26971 0.95922 -0.63300
O 	O 	0.74536 0.35999 0.01148 -0.64600
O 	O 	0.81559 0.28218 0.97021 -0.35900
O 	O 	0.70863 0.18476 0.99909 -0.43100
O 	O 	0.65926 0.34523 0.89613 -0.38600
O 	O 	0.49622 0.28558 0.99846 -0.36800
C 	C 	0.43476 0.23928 0.96997 0.29100
C 	C 	0.75854 0.50123 0.96887 0.27600
O 	O 	0.67174 0.44639 0.97029 -0.38900
O 	O 	0.45762 0.25408 0.93962 -0.38900
O 	O 	0.74389 0.30095 0.91537 -0.35600
C 	C 	0.77303 0.20614 0.98167 0.28800
O 	O 	0.62340 0.34969 0.05471 -0.36700
O 	O 	0.72868 0.33076 0.07709 -0.41500
H 	H 	0.57449 0.20340 0.95335 0.16500
H 	H 	0.78976 0.42245 0.02423 0.17800
Cu	Cu	0.61779 0.20169 0.50391 0.92900
Cu	Cu	0.67527 0.20719 0.42825 0.87200
Cu	Cu	0.65839 0.34299 0.46081 0.89900
Cu	Cu	0.62227 0.36585 0.53144 0.89800
C 	C 	0.65620 0.26709 0.57675 0.29200
O 	O 	0.48679 0.14674 0.50709 -0.35600
C 	C 	0.61696 0.28240 0.38501 0.30700
O 	O 	0.68991 0.34094 0.50784 -0.63900
O 	O 	0.59700 0.21154 0.45545 -0.64000
O 	O 	0.67591 0.14160 0.49790 -0.36800
O 	O 	0.76771 0.23630 0.46435 -0.43600
O 	O 	0.61521 0.30375 0.57040 -0.37600
O 	O 	0.72551 0.47158 0.46899 -0.37900
C 	C 	0.72476 0.51932 0.49527 0.29400
C 	C 	0.45034 0.18544 0.49756 0.28600
O 	O 	0.50252 0.26845 0.49299 -0.39200
O 	O 	0.66744 0.48097 0.51645 -0.38600
O 	O 	0.65628 0.21508 0.55203 -0.35500
C 	C 	0.75036 0.17991 0.48499 0.29300
O 	O 	0.64623 0.34753 0.41127 -0.38300
O 	O 	0.61094 0.21070 0.38908 -0.41800
H 	H 	0.75594 0.38012 0.51721 0.16900
H 	H 	0.53261 0.17398 0.44379 0.17500
C 	C 	0.68154 0.26597 0.61284 -0.07500
C 	C 	0.66121 0.18694 0.62240 0.02200
C 	C 	0.67415 0.18272 0.65716 -0.06100
C 	C 	0.70741 0.25737 0.68264 0.02800
C 	C 	0.73145 0.33748 0.67302 -0.06100
C 	C 	0.71871 0.34179 0.63831 0.01500
C 	C 	0.70971 0.24959 0.71925 0.00500
C 	C 	0.79122 0.30834 0.74321 -0.03800
C 	C 	0.79072 0.31087 0.77843 -0.02900
C 	C 	0.70887 0.25448 0.78992 -0.00300
C 	C 	0.62833 0.19219 0.76600 -0.03000
C 	C 	0.62868 0.18972 0.73079 -0.03800
C 	C 	0.70537 0.26893 0.82575 0.05000
C 	C 	0.70115 0.28328 0.85541 -0.09700
H 	H 	0.63258 0.12792 0.60302 0.04700
H 	H 	0.65613 0.12080 0.66430 0.05100
H 	H 	0.75735 0.39556 0.69247 0.05000
H 	H 	0.73569 0.40344 0.63125 0.03200
H 	H 	0.85433 0.35409 0.73458 0.04400
H 	H 	0.85336 0.35896 0.79676 0.04600
H 	H 	0.56483 0.14817 0.77467 0.04200
H 	H 	0.56541 0.14391 0.71255 0.04500
C 	C 	0.65010 0.35445 0.11579 -0.08000
C 	C 	0.56205 0.31748 0.12150 0.01200
C 	C 	0.54531 0.31718 0.15507 -0.06200
C 	C 	0.61661 0.35438 0.18317 0.02600
C 	C 	0.70543 0.39619 0.17747 -0.06400
C 	C 	0.72214 0.39641 0.14398 0.01500
C 	C 	0.59739 0.34200 0.21820 0.00400
C 	C 	0.54360 0.25529 0.22569 -0.03900
C 	C 	0.53821 0.24351 0.25977 -0.03100
C 	C 	0.58647 0.31820 0.28659 -0.00600
C 	C 	0.63604 0.40478 0.27906 -0.03100
C 	C 	0.64131 0.41669 0.24497 -0.03900
C 	C 	0.59433 0.30623 0.32164 0.04700
C 	C 	0.60329 0.29563 0.35073 -0.10700
H 	H 	0.50603 0.28581 0.09999 0.04300
H 	H 	0.47665 0.28573 0.15920 0.04900
H 	H 	0.76105 0.42563 0.19897 0.04800
H 	H 	0.79074 0.42700 0.13995 0.03600
H 	H 	0.50923 0.19715 0.20525 0.04100
H 	H 	0.49942 0.17635 0.26537 0.04100
H 	H 	0.67313 0.46288 0.29965 0.04400
H 	H 	0.68218 0.48390 0.23946 0.04400
C 	C 	0.77558 0.61628 0.49692 -0.08300
C 	C 	0.76864 0.64823 0.46731 0.01200
C 	C 	0.81573 0.74020 0.46839 -0.04100
C 	C 	0.87018 0.80107 0.49945 0.01600
C 	C 	0.87562 0.76909 0.52921 -0.06000
C 	C 	0.82933 0.67721 0.52808 0.02400
H 	H 	0.72640 0.60136 0.44343 0.04400
H 	H 	0.91806 0.81612 0.55303 0.05100
C 	C 	0.84018 0.64631 0.55864 0.06300
C 	C 	0.80917 0.77182 0.43742 0.08900
N 	N 	0.84888 0.62155 0.58311 -0.12100
N 	N 	0.80398 0.79725 0.41264 -0.11200
C 	C 	0.80662 0.14915 0.48910 -0.09200
C 	C 	0.82319 0.11775 0.45972 0.01200
C 	C 	0.87360 0.08507 0.46279 -0.04400
C 	C 	0.90832 0.08393 0.49560 0.01800
C 	C 	0.89479 0.11845 0.52503 -0.06300
C 	C 	0.84442 0.15133 0.52199 0.02900
H 	H 	0.79527 0.11718 0.43441 0.01600
H 	H 	0.92210 0.11816 0.55029 0.05200
C 	C 	0.83402 0.18929 0.55267 0.07200
C 	C 	0.88766 0.05085 0.43213 0.08800
N 	N 	0.82596 0.21979 0.57731 -0.10800
N 	N 	0.89890 0.02337 0.40759 -0.11000
C 	C 	0.17529 0.08080 0.49948 0.01600
C 	C 	0.23116 0.09331 0.52925 -0.06100
C 	C 	0.31979 0.12300 0.52850 0.02300
C 	C 	0.35385 0.14194 0.49772 -0.08600
C 	C 	0.29844 0.13075 0.46808 0.00900
C 	C 	0.20934 0.09991 0.46873 -0.04100
H 	H 	0.20469 0.07780 0.55282 0.05100
H 	H 	0.32501 0.14665 0.44454 0.03300
C 	C 	0.15286 0.08684 0.43766 0.08800
C 	C 	0.37564 0.13486 0.55955 0.07100
N 	N 	0.10759 0.07635 0.41276 -0.11100
N 	N 	0.42021 0.14422 0.58444 -0.10600
C 	C 	0.86380 0.77513 0.97068 0.02000
C 	C 	0.83977 0.73809 0.00037 -0.06300
C 	C 	0.80885 0.64975 0.00053 0.01800
C 	C 	0.80182 0.59756 0.97069 -0.07400
C 	C 	0.82497 0.63431 0.94092 0.00600
C 	C 	0.85469 0.72211 0.94062 -0.04000
H 	H 	0.84758 0.77888 0.02362 0.05400
H 	H 	0.81754 0.59367 0.91769 0.04300
C 	C 	0.87505 0.75720 0.90927 0.08800
C 	C 	0.78659 0.61391 0.03165 0.06500
N 	N 	0.89143 0.78540 0.88418 -0.11500
N 	N 	0.76873 0.58512 0.05657 -0.11300
C 	C 	0.80576 0.15113 0.97948 -0.08500
C 	C 	0.81783 0.12094 0.00891 0.00500
C 	C 	0.84644 0.06691 0.00754 -0.04800
C 	C 	0.86388 0.04277 0.97648 0.02200
C 	C 	0.84903 0.07040 0.94676 -0.06200
C 	C 	0.81986 0.12410 0.94803 0.02700
H 	H 	0.80576 0.14031 0.03302 0.01600
H 	H 	0.86242 0.05193 0.92282 0.05800
C 	C 	0.80281 0.14933 0.91684 0.07800
C 	C 	0.85944 0.03792 0.03831 0.08200
N 	N 	0.78920 0.16937 0.89178 -0.10200
N 	N 	0.86988 0.01465 0.06295 -0.12100
C 	C 	0.15098 0.07939 0.97471 0.02600
C 	C 	0.21197 0.08453 0.00026 -0.07400
C 	C 	0.30433 0.13472 0.99868 0.03600
C 	C 	0.33734 0.18464 0.97217 -0.08500
C 	C 	0.27622 0.18039 0.94691 0.01400
C 	C 	0.18333 0.12645 0.94754 -0.04500
H 	H 	0.18700 0.04753 0.02095 0.05300
H 	H 	0.30091 0.21836 0.92647 0.04100
C 	C 	0.12130 0.11733 0.91957 0.08900
C 	C 	0.36347 0.13052 0.02321 0.05800
N 	N 	0.07158 0.10998 0.89719 -0.11600
N 	N 	0.41074 0.12703 0.04285 -0.12700
