data_crystal

_cell_length_a 27.49617
_cell_length_b 28.78568
_cell_length_c 30.79835
_cell_angle_alpha 61.21682
_cell_angle_beta  118.47506
_cell_angle_gamma 133.26432

_symmetry_space_group_name_	'P 1'
_symmetry_space_group_name_H-M	'P 1'

loop_
_symmetry_equiv_pos_as_xyz
  x,y,z

loop_
_atom_site_label
_atom_site_type_symbol
_atom_site_fract_x
_atom_site_fract_y
_atom_site_fract_z
_atom_site_charge
C 	C 	0.75286 0.30854 0.05816 0.15000
N 	N 	0.68499 0.27947 0.04945 -0.14300
C 	C 	0.66544 0.30459 0.06004 0.14900
N 	N 	0.71352 0.35791 0.07989 -0.13600
C 	C 	0.78106 0.38724 0.08846 0.14700
N 	N 	0.80102 0.36289 0.07736 -0.12700
C 	C 	0.73559 0.32545 0.52229 0.14800
N 	N 	0.77940 0.37864 0.54249 -0.14100
C 	C 	0.75409 0.40020 0.55078 0.15000
N 	N 	0.68553 0.36891 0.53876 -0.13600
C 	C 	0.64161 0.31513 0.51983 0.14700
N 	N 	0.66661 0.29352 0.51126 -0.13300
C 	C 	0.27182 0.65409 0.24981 0.14400
N 	N 	0.33685 0.68302 0.24947 -0.13400
C 	C 	0.34908 0.65189 0.23831 0.14600
N 	N 	0.29655 0.59227 0.22767 -0.14200
C 	C 	0.23241 0.56216 0.22981 0.15100
N 	N 	0.21979 0.59288 0.24099 -0.13200
C 	C 	0.27710 0.65780 0.75792 0.14500
N 	N 	0.33525 0.69732 0.74096 -0.12900
C 	C 	0.35346 0.67051 0.73092 0.14400
N 	N 	0.31396 0.60450 0.73824 -0.14400
C 	C 	0.25570 0.56498 0.75455 0.14400
N 	N 	0.23677 0.59156 0.76405 -0.13700
Co	Co	0.09777 0.99387 0.16275 1.18000
Co	Co	0.89632 0.94929 0.12432 1.18600
Co	Co	0.02587 0.02611 0.19473 1.19000
Co	Co	0.97106 0.92784 0.08627 1.18900
C 	C 	0.12888 0.89348 0.21138 0.31500
Co	Co	0.09336 0.92605 0.09894 1.16400
Co	Co	0.89076 0.00060 0.19467 1.18400
C 	C 	0.02523 0.96830 0.99614 0.27800
O 	O 	0.95058 0.09879 0.16034 -0.36900
O 	O 	0.94187 0.99298 0.16812 -0.76800
C 	C 	0.01742 0.13557 0.17878 0.29700
O 	O 	0.11437 0.04034 0.20676 -0.45000
O 	O 	0.88213 0.91158 0.07489 -0.45900
C 	C 	0.82511 0.01090 0.08485 0.35600
O 	O 	0.00550 0.99552 0.12889 -0.59100
C 	C 	0.98984 0.98752 0.29033 0.32200
C 	C 	0.21261 0.06133 0.11566 0.32700
C 	C 	0.95055 0.80664 0.10090 0.33400
O 	O 	0.05719 0.12063 0.18461 -0.37400
O 	O 	0.19351 0.00208 0.12439 -0.40100
O 	O 	0.18252 0.07054 0.13057 -0.37500
O 	O 	0.81181 0.98089 0.12997 -0.42200
O 	O 	0.86033 0.00497 0.07291 -0.38200
O 	O 	0.96393 0.02060 0.26250 -0.37900
O 	O 	0.00980 0.97453 0.26859 -0.40200
O 	O 	0.99707 0.84612 0.07417 -0.40100
O 	O 	0.93752 0.83100 0.11725 -0.39200
O 	O 	0.05353 0.95617 0.11472 -0.76400
C 	C 	0.79987 0.85950 0.19726 0.31800
O 	O 	0.83925 0.90101 0.22630 -0.37700
O 	O 	0.82501 0.86242 0.16751 -0.38500
O 	O 	0.09345 0.86830 0.17172 -0.40900
O 	O 	0.11516 0.92464 0.21932 -0.38900
O 	O 	0.08558 0.98462 0.02701 -0.38400
O 	O 	0.97692 0.95444 0.01080 -0.35100
Co	Co	0.10021 0.99613 0.66476 1.17900
Co	Co	0.90701 0.97174 0.61674 1.17900
Co	Co	0.03201 0.03228 0.69618 1.18600
Co	Co	0.97768 0.94187 0.58218 1.18600
C 	C 	0.12015 0.88847 0.71150 0.32400
Co	Co	0.09419 0.92903 0.59913 1.16600
Co	Co	0.90299 0.02115 0.69031 1.17400
C 	C 	0.03659 0.98106 0.49562 0.30100
O 	O 	0.97472 0.12037 0.66571 -0.37100
O 	O 	0.95172 0.00971 0.66441 -0.74400
C 	C 	0.04043 0.14856 0.68824 0.30500
O 	O 	0.11686 0.03874 0.71185 -0.45000
O 	O 	0.89286 0.93528 0.56627 -0.46300
C 	C 	0.85100 0.04777 0.57805 0.33100
O 	O 	0.01450 0.00775 0.62778 -0.57400
C 	C 	0.98751 0.98900 0.78896 0.32200
C 	C 	0.21664 0.06004 0.62149 0.32900
C 	C 	0.94691 0.81632 0.59351 0.33200
O 	O 	0.07405 0.12854 0.69152 -0.36200
O 	O 	0.19485 0.00012 0.62894 -0.38000
O 	O 	0.18961 0.07083 0.63807 -0.37400
O 	O 	0.83241 0.01603 0.62133 -0.40800
O 	O 	0.88203 0.03651 0.56657 -0.37600
O 	O 	0.96784 0.02741 0.76230 -0.38800
O 	O 	0.00529 0.97457 0.76659 -0.40600
O 	O 	0.99642 0.85414 0.56984 -0.40100
O 	O 	0.93485 0.84244 0.60891 -0.39800
O 	O 	0.05739 0.96284 0.61426 -0.76600
C 	C 	0.80011 0.88447 0.67961 0.31900
O 	O 	0.83892 0.92004 0.71325 -0.40500
O 	O 	0.82756 0.88572 0.65304 -0.38700
O 	O 	0.08727 0.86660 0.67031 -0.38200
O 	O 	0.10668 0.91981 0.71932 -0.39500
O 	O 	0.09458 0.99272 0.52849 -0.39800
O 	O 	0.98938 0.97164 0.50808 -0.36900
C 	C 	0.01448 0.97291 0.94233 -0.11400
C 	C 	0.06764 0.02615 0.91662 -0.05300
C 	C 	0.06345 0.02684 0.86905 0.18700
C 	C 	0.00428 0.97541 0.84518 -0.13700
C 	C 	0.95195 0.92108 0.87151 -0.04600
C 	C 	0.95676 0.91967 0.91978 0.16600
H 	H 	0.11226 0.06741 0.93337 0.07700
O 	O 	0.11499 0.08055 0.84405 -0.28500
H 	H 	0.90588 0.88134 0.85352 0.05600
O 	O 	0.90602 0.86538 0.94532 -0.29000
H 	H 	0.87216 0.87411 0.93442 0.15200
H 	H 	0.14724 0.07007 0.85442 0.15400
C 	C 	0.00617 0.97473 0.34647 -0.13100
C 	C 	0.07081 0.02177 0.37100 -0.04000
C 	C 	0.08064 0.02545 0.41878 0.17700
C 	C 	0.02534 0.98135 0.44296 -0.12000
C 	C 	0.96151 0.93226 0.41953 -0.05000
C 	C 	0.95202 0.92839 0.37189 0.17400
H 	H 	0.11263 0.05826 0.35167 0.06000
O 	O 	0.14335 0.07436 0.44037 -0.27700
H 	H 	0.91924 0.89657 0.43835 0.06500
O 	O 	0.88855 0.88156 0.34892 -0.27800
H 	H 	0.88895 0.84316 0.36036 0.16200
H 	H 	0.17044 0.05643 0.45953 0.15100
C 	C 	0.12027 0.40403 0.71746 -0.10200
C 	C 	0.15315 0.37320 0.74601 -0.00500
C 	C 	0.21237 0.39979 0.78471 0.13900
C 	C 	0.24130 0.45956 0.79176 -0.06400
C 	C 	0.21232 0.49383 0.75980 -0.05900
C 	C 	0.14984 0.46439 0.72403 0.16500
C 	C 	0.12828 0.31582 0.73298 0.01100
O 	O 	0.24482 0.36995 0.81315 -0.27100
H 	H 	0.28906 0.48159 0.81975 0.06700
O 	O 	0.11890 0.49561 0.69424 -0.28100
H 	H 	0.07339 0.38266 0.68867 0.07200
C 	C 	0.09330 0.25240 0.76449 0.12300
C 	C 	0.06935 0.19834 0.75150 -0.03600
C 	C 	0.07814 0.20671 0.70634 -0.11100
C 	C 	0.11373 0.27019 0.67506 0.19800
C 	C 	0.13938 0.32458 0.68876 -0.11100
O 	O 	0.08265 0.24319 0.80806 -0.27300
H 	H 	0.04182 0.14955 0.77571 0.06500
O 	O 	0.12349 0.27920 0.63113 -0.28200
H 	H 	0.16692 0.37344 0.66460 0.08000
H 	H 	0.13774 0.52294 0.66332 0.15200
H 	H 	0.03802 0.23571 0.79757 0.14600
H 	H 	0.08363 0.27702 0.60410 0.16200
H 	H 	0.22557 0.34060 0.84387 0.16100
C 	C 	0.53881 0.78539 0.72404 -0.10000
C 	C 	0.53390 0.76697 0.68659 -0.00800
C 	C 	0.46898 0.72491 0.65848 0.14000
C 	C 	0.40967 0.69859 0.66997 -0.06600
C 	C 	0.41445 0.71254 0.71032 -0.05600
C 	C 	0.47942 0.75778 0.73640 0.16300
C 	C 	0.59658 0.78774 0.67976 0.01300
O 	O 	0.46337 0.70583 0.62223 -0.27000
H 	H 	0.35981 0.66447 0.64924 0.06900
O 	O 	0.48511 0.77387 0.77472 -0.27500
H 	H 	0.58876 0.81905 0.74500 0.06700
C 	C 	0.62226 0.83533 0.63625 0.11800
C 	C 	0.68549 0.85958 0.63283 -0.03300
C 	C 	0.72555 0.84006 0.67404 -0.12700
C 	C 	0.69768 0.78916 0.71590 0.20000
C 	C 	0.63299 0.76260 0.71831 -0.11700
O 	O 	0.58651 0.85933 0.59764 -0.27400
H 	H 	0.70596 0.89772 0.59992 0.05400
O 	O 	0.73425 0.76628 0.75496 -0.28500
H 	H 	0.61246 0.72445 0.75120 0.07900
H 	H 	0.48887 0.74164 0.80630 0.15200
H 	H 	0.60349 0.89792 0.60644 0.14600
H 	H 	0.76023 0.79269 0.78013 0.15400
H 	H 	0.45975 0.73699 0.58960 0.16200
C 	C 	0.27798 0.75117 0.81295 -0.10000
C 	C 	0.22003 0.74969 0.78034 -0.00400
C 	C 	0.17936 0.71560 0.74156 0.13800
C 	C 	0.19727 0.68411 0.73543 -0.06500
C 	C 	0.25610 0.68701 0.76720 -0.05500
C 	C 	0.29611 0.72001 0.80651 0.16400
C 	C 	0.20591 0.78932 0.78334 0.00800
O 	O 	0.12473 0.71662 0.70762 -0.27200
H 	H 	0.16640 0.65897 0.70500 0.07100
O 	O 	0.35399 0.72350 0.83771 -0.27700
H 	H 	0.30972 0.77753 0.84267 0.07000
C 	C 	0.14362 0.75878 0.79342 0.11900
C 	C 	0.11983 0.79567 0.77884 -0.02500
C 	C 	0.15770 0.86253 0.75378 -0.12200
C 	C 	0.22609 0.89498 0.75456 0.18500
C 	C 	0.24948 0.85815 0.76802 -0.11100
O 	O 	0.10337 0.69224 0.81337 -0.27600
H 	H 	0.06872 0.77084 0.78170 0.06000
O 	O 	0.26686 0.96170 0.73555 -0.28400
H 	H 	0.29935 0.88266 0.76294 0.07700
H 	H 	0.33830 0.68443 0.86671 0.14900
H 	H 	0.11817 0.68667 0.85079 0.14500
H 	H 	0.29158 0.98076 0.76533 0.15300
H 	H 	0.08408 0.67610 0.72161 0.15900
C 	C 	0.14996 0.38365 0.26036 -0.10000
C 	C 	0.12118 0.37387 0.21113 -0.00500
C 	C 	0.11560 0.42188 0.16932 0.14000
C 	C 	0.14418 0.48151 0.17658 -0.06200
C 	C 	0.17909 0.49384 0.22529 -0.05800
C 	C 	0.17805 0.44304 0.26759 0.16600
C 	C 	0.09610 0.31286 0.20369 0.01000
O 	O 	0.08186 0.41047 0.12150 -0.27200
H 	H 	0.14335 0.51985 0.14390 0.06900
O 	O 	0.21003 0.45358 0.31564 -0.28000
H 	H 	0.15235 0.34594 0.29292 0.07400
C 	C 	0.13292 0.31383 0.18303 0.11800
C 	C 	0.10845 0.25542 0.17633 -0.03400
C 	C 	0.04833 0.19571 0.19135 -0.11600
C 	C 	0.01374 0.19461 0.21446 0.18300
C 	C 	0.03693 0.25312 0.21954 -0.11300
O 	O 	0.19182 0.37189 0.16833 -0.27500
H 	H 	0.13551 0.25687 0.15864 0.06400
O 	O 	0.95639 0.13639 0.23123 -0.29700
H 	H 	0.00908 0.25192 0.23626 0.07700
H 	H 	0.17402 0.43946 0.32883 0.15400
H 	H 	0.22949 0.37580 0.19888 0.15000
H 	H 	0.97354 0.12041 0.26754 0.16200
H 	H 	0.11780 0.42860 0.10592 0.16000
C 	C 	0.52388 0.76695 0.20936 -0.09300
C 	C 	0.53965 0.72277 0.22642 -0.00600
C 	C 	0.49665 0.65781 0.25281 0.13200
C 	C 	0.43843 0.63745 0.26158 -0.06300
C 	C 	0.41957 0.67992 0.24110 -0.05700
C 	C 	0.46334 0.74542 0.21561 0.16400
C 	C 	0.60206 0.74506 0.21763 0.01000
O 	O 	0.51130 0.61403 0.26988 -0.27500
H 	H 	0.40575 0.58729 0.28209 0.07400
O 	O 	0.44685 0.78823 0.19640 -0.27900
H 	H 	0.55776 0.81759 0.19023 0.08100
C 	C 	0.61139 0.77067 0.16787 0.11600
C 	C 	0.67494 0.80085 0.16053 -0.03000
C 	C 	0.72892 0.80493 0.20258 -0.12300
C 	C 	0.71579 0.77036 0.25161 0.20000
C 	C 	0.65349 0.74264 0.25923 -0.11200
O 	O 	0.55987 0.76940 0.12658 -0.27000
H 	H 	0.68387 0.82562 0.12242 0.06200
O 	O 	0.76607 0.76857 0.29266 -0.28000
H 	H 	0.64602 0.72112 0.29760 0.08900
H 	H 	0.41994 0.78395 0.16105 0.15200
H 	H 	0.53295 0.72731 0.11781 0.14900
H 	H 	0.75899 0.72830 0.29618 0.15400
H 	H 	0.48771 0.59293 0.24151 0.15000
C 	C 	0.19216 0.73175 0.23121 -0.09800
C 	C 	0.23255 0.76122 0.27248 -0.01000
C 	C 	0.28536 0.75469 0.30686 0.14000
C 	C 	0.29750 0.71900 0.29965 -0.06500
C 	C 	0.25736 0.68992 0.25807 -0.05400
C 	C 	0.20454 0.69659 0.22371 0.16100
C 	C 	0.22160 0.80204 0.27756 0.01300
O 	O 	0.32403 0.78165 0.34817 -0.27300
H 	H 	0.33802 0.71391 0.32642 0.07200
O 	O 	0.16508 0.66897 0.18270 -0.28000
H 	H 	0.15203 0.73735 0.20423 0.06300
C 	C 	0.26138 0.87056 0.25748 0.11500
C 	C 	0.23746 0.90603 0.24670 -0.03700
C 	C 	0.17179 0.87267 0.25224 -0.12300
C 	C 	0.13913 0.80725 0.28144 0.19900
C 	C 	0.16337 0.77164 0.29323 -0.11400
O 	O 	0.32168 0.90234 0.24594 -0.27700
H 	H 	0.26558 0.95775 0.22742 0.05200
O 	O 	0.08145 0.77704 0.29596 -0.28500
H 	H 	0.13436 0.71957 0.31135 0.08300
H 	H 	0.18930 0.70329 0.15481 0.14800
H 	H 	0.30873 0.90138 0.21015 0.14300
H 	H 	0.04218 0.75498 0.26871 0.15600
H 	H 	0.36430 0.82610 0.33671 0.15900
C 	C 	0.76116 0.25028 0.46969 -0.09400
C 	C 	0.79950 0.23070 0.51331 -0.00300
C 	C 	0.82190 0.24761 0.55859 0.13600
C 	C 	0.80399 0.28186 0.56041 -0.06200
C 	C 	0.76224 0.29802 0.51768 -0.05500
C 	C 	0.74176 0.28312 0.47186 0.16800
C 	C 	0.80982 0.18650 0.51328 0.00800
O 	O 	0.86079 0.23015 0.60125 -0.27600
H 	H 	0.82035 0.29354 0.59569 0.06900
O 	O 	0.70417 0.30187 0.42894 -0.27800
H 	H 	0.74456 0.23825 0.43452 0.07300
C 	C 	0.75481 0.11980 0.51440 0.11400
C 	C 	0.76778 0.07450 0.52846 -0.02800
C 	C 	0.83544 0.09515 0.54216 -0.12700
C 	C 	0.88920 0.16290 0.53404 0.19600
C 	C 	0.87632 0.20836 0.51994 -0.11000
O 	O 	0.68917 0.09789 0.50641 -0.26900
H 	H 	0.72577 0.02253 0.53317 0.06300
O 	O 	0.95533 0.18422 0.54502 -0.28600
H 	H 	0.91867 0.26001 0.51745 0.08300
H 	H 	0.65551 0.26348 0.42888 0.16000
H 	H 	0.66943 0.09998 0.46945 0.15000
H 	H 	0.96210 0.19211 0.51261 0.15800
H 	H 	0.82731 0.18607 0.61971 0.15100
C 	C 	0.80774 0.50590 0.62450 -0.09600
C 	C 	0.84942 0.56827 0.59511 -0.00200
C 	C 	0.87348 0.57463 0.55976 0.13400
C 	C 	0.84848 0.51826 0.54943 -0.06100
C 	C 	0.80003 0.45574 0.57451 -0.05900
C 	C 	0.78422 0.44975 0.61507 0.16800
C 	C 	0.86432 0.62619 0.59922 0.01400
O 	O 	0.92208 0.63564 0.53602 -0.27000
H 	H 	0.86333 0.52334 0.51966 0.07000
O 	O 	0.74127 0.38875 0.64279 -0.27800
H 	H 	0.79146 0.50080 0.65334 0.07700
C 	C 	0.83282 0.65629 0.56001 0.11600
C 	C 	0.85358 0.71570 0.56144 -0.02500
C 	C 	0.90504 0.74482 0.60205 -0.12700
C 	C 	0.92882 0.70961 0.64454 0.19800
C 	C 	0.90990 0.65140 0.64244 -0.11200
O 	O 	0.78088 0.62707 0.52096 -0.26600
H 	H 	0.83290 0.74121 0.52942 0.05600
O 	O 	0.97394 0.73418 0.68679 -0.27800
H 	H 	0.93183 0.62671 0.67392 0.08100
H 	H 	0.77187 0.37764 0.67171 0.15200
H 	H 	0.80323 0.64795 0.49296 0.14500
H 	H 	0.94491 0.71561 0.70918 0.15400
H 	H 	0.89609 0.64806 0.50291 0.14600
C 	C 	0.46746 0.17843 0.54862 -0.10000
C 	C 	0.44410 0.21490 0.53638 -0.00500
C 	C 	0.47855 0.28056 0.50807 0.14000
C 	C 	0.53903 0.31067 0.49603 -0.06300
C 	C 	0.56741 0.27678 0.51421 -0.05500
C 	C 	0.52941 0.20927 0.53831 0.16700
C 	C 	0.38823 0.18631 0.55777 0.01300
O 	O 	0.45650 0.31696 0.49592 -0.26800
H 	H 	0.56694 0.36216 0.47617 0.07300
O 	O 	0.55393 0.17401 0.55356 -0.27600
H 	H 	0.43963 0.12707 0.56876 0.07600
C 	C 	0.32360 0.17012 0.52598 0.12300
C 	C 	0.26911 0.13664 0.54739 -0.03600
C 	C 	0.27742 0.11538 0.60037 -0.12100
C 	C 	0.34308 0.13566 0.63200 0.20200
C 	C 	0.39830 0.17123 0.61064 -0.11300
O 	O 	0.31327 0.18580 0.47414 -0.26900
H 	H 	0.21920 0.12344 0.52285 0.07200
O 	O 	0.35233 0.11673 0.68392 -0.27900
H 	H 	0.44836 0.18484 0.63528 0.08200
H 	H 	0.58131 0.17763 0.58894 0.15500
H 	H 	0.29996 0.14808 0.46662 0.14700
H 	H 	0.36390 0.15235 0.69322 0.15700
H 	H 	0.42733 0.31403 0.46091 0.16300
C 	C 	0.82934 0.22631 0.08131 -0.10500
C 	C 	0.79887 0.20781 0.03537 0.01700
C 	C 	0.75893 0.22839 0.99514 0.10000
C 	C 	0.74614 0.26354 0.00217 -0.02500
C 	C 	0.77388 0.27927 0.04897 -0.06900
C 	C 	0.81680 0.26163 0.08832 0.17700
C 	C 	0.80171 0.16014 0.03203 0.01300
O 	O 	0.72983 0.21168 0.94972 -0.27000
H 	H 	0.71361 0.27750 0.97152 0.05300
O 	O 	0.84546 0.27772 0.13397 -0.27300
H 	H 	0.86046 0.21091 0.11239 0.08000
C 	C 	0.86475 0.17705 0.03509 0.11800
C 	C 	0.86986 0.12775 0.04409 -0.01900
C 	C 	0.81320 0.06143 0.05251 -0.13900
C 	C 	0.74849 0.04569 0.04286 0.22000
C 	C 	0.74301 0.09494 0.03301 -0.11600
O 	O 	0.92161 0.24136 0.03035 -0.26300
H 	H 	0.91940 0.14061 0.04938 0.06500
O 	O 	0.69169 0.98137 0.04783 -0.30100
H 	H 	0.69387 0.08179 0.02929 0.09100
H 	H 	0.81179 0.24006 0.15536 0.15300
H 	H 	0.94575 0.24723 0.06562 0.15800
H 	H 	0.67161 0.97346 0.01340 0.15600
H 	H 	0.76417 0.24823 0.92867 0.15300
C 	C 	0.89344 0.56512 0.08394 -0.09700
C 	C 	0.87953 0.56092 0.12450 -0.00600
C 	C 	0.84978 0.50080 0.16059 0.14200
C 	C 	0.82720 0.44408 0.15273 -0.06300
C 	C 	0.83178 0.44657 0.10805 -0.05100
C 	C 	0.86928 0.50805 0.07542 0.16800
C 	C 	0.88901 0.61735 0.12572 0.01800
O 	O 	0.83737 0.49625 0.20115 -0.26800
H 	H 	0.80013 0.39707 0.17887 0.07100
O 	O 	0.87911 0.51203 0.03372 -0.27300
H 	H 	0.91919 0.61198 0.05724 0.07400
C 	C 	0.94400 0.65573 0.16075 0.11300
C 	C 	0.95780 0.71400 0.15709 -0.01800
C 	C 	0.91933 0.73615 0.11701 -0.13000
C 	C 	0.86118 0.69524 0.08446 0.20500
C 	C 	0.84574 0.63565 0.08926 -0.11700
O 	O 	0.98514 0.63711 0.19791 -0.26200
H 	H 	0.00159 0.74434 0.18311 0.04800
O 	O 	0.82056 0.71433 0.04698 -0.28700
H 	H 	0.80199 0.60517 0.06313 0.08500
H 	H 	0.83947 0.50882 0.00564 0.15600
H 	H 	0.02208 0.65733 0.18238 0.13800
H 	H 	0.83970 0.73818 0.01650 0.16600
H 	H 	0.87800 0.50272 0.22939 0.16300
C 	C 	0.34308 0.17025 0.03802 -0.09700
C 	C 	0.40336 0.19112 0.07638 0.00800
C 	C 	0.40146 0.18154 0.12503 0.12000
C 	C 	0.33833 0.14526 0.13627 -0.02700
C 	C 	0.27711 0.11773 0.09938 -0.11900
C 	C 	0.27997 0.13312 0.04942 0.19000
C 	C 	0.46700 0.21803 0.06669 -0.00000
O 	O 	0.46112 0.20767 0.16148 -0.26600
H 	H 	0.33670 0.13486 0.17457 0.06100
O 	O 	0.22088 0.10995 0.01213 -0.28200
H 	H 	0.34465 0.17968 0.99996 0.06600
C 	C 	0.48812 0.17806 0.08361 0.13200
C 	C 	0.55070 0.20512 0.07683 -0.06100
C 	C 	0.59245 0.27195 0.05335 -0.05800
C 	C 	0.56792 0.31005 0.03207 0.16700
C 	C 	0.50591 0.28329 0.03951 -0.09500
O 	O 	0.44711 0.11240 0.10593 -0.27400
H 	H 	0.56834 0.17497 0.09217 0.06900
O 	O 	0.60630 0.37448 0.00625 -0.26700
H 	H 	0.48859 0.31357 0.02480 0.08100
H 	H 	0.20938 0.06968 0.01052 0.15400
H 	H 	0.46305 0.10925 0.14304 0.14800
H 	H 	0.59114 0.37332 0.97019 0.14100
H 	H 	0.46770 0.17245 0.18116 0.14700
