data_crystal

_cell_length_a 20.55580
_cell_length_b 21.67995
_cell_length_c 39.28979
_cell_angle_alpha 60.77738
_cell_angle_beta  118.95302
_cell_angle_gamma 133.29090

_symmetry_space_group_name_	'P 1'
_symmetry_space_group_name_H-M	'P 1'

loop_
_symmetry_equiv_pos_as_xyz
  x,y,z

loop_
_atom_site_label
_atom_site_type_symbol
_atom_site_fract_x
_atom_site_fract_y
_atom_site_fract_z
_atom_site_charge
Co	Co	0.05678 0.03215 0.03784 1.17400
Co	Co	0.12354 0.92673 0.04477 1.18000
O 	O 	0.00703 0.06794 0.18174 -0.36400
C 	C 	0.00896 0.00315 0.20913 0.22400
O 	O 	0.02705 0.11366 0.02687 -0.44100
C 	C 	0.04677 0.21529 0.10428 0.33800
O 	O 	0.00911 0.95177 0.19949 -0.32200
O 	O 	0.13848 0.87002 0.14345 -0.33600
O 	O 	0.07229 0.18363 0.09553 -0.36700
O 	O 	0.05970 0.94374 0.06400 -0.73800
Co	Co	0.09557 0.03357 0.55192 1.17700
Co	Co	0.13389 0.90912 0.55176 1.18200
O 	O 	0.08220 0.12419 0.54551 -0.43300
C 	C 	0.03289 0.18299 0.61781 0.34000
C 	C 	0.14077 0.80549 0.63708 0.33500
O 	O 	0.12128 0.80535 0.60023 -0.39300
O 	O 	0.11328 0.83662 0.64508 -0.35500
O 	O 	0.07206 0.16120 0.61139 -0.36200
O 	O 	0.07163 0.93224 0.56916 -0.74200
C 	C 	0.07044 0.03311 0.79615 -0.03300
C 	C 	0.06264 0.01487 0.76407 -0.02700
H 	H 	0.11836 0.06070 0.74898 0.07200
C 	C 	0.08247 0.97939 0.92453 0.06700
C 	C 	0.07195 0.97443 0.88788 -0.05400
S 	S 	0.16703 0.97052 0.96560 -0.01600
H 	H 	0.11260 0.96157 0.88609 0.07900
C 	C 	0.01833 0.98342 0.32577 0.04000
C 	C 	0.04573 0.95042 0.28462 -0.02100
C 	C 	0.12373 0.06609 0.37997 -0.04400
C 	C 	0.13803 0.08122 0.41467 0.03300
C 	C 	0.04906 0.30976 0.61733 0.12300
Br	Br	0.08851 0.47955 0.57790 -0.14800
C 	C 	0.13692 0.62437 0.66153 0.07400
C 	C 	0.16859 0.74785 0.66906 -0.09900
C 	C 	0.10802 0.65989 0.66815 0.11100
Br	Br	0.04915 0.54191 0.62877 -0.16200
Br	Br	0.06728 0.37309 0.02700 -0.14500
Br	Br	0.17070 0.58894 0.21722 -0.13300
H 	H 	0.13495 0.54271 0.13748 0.10000
C 	C 	0.10703 0.39470 0.62098 0.07500
C 	C 	0.08696 0.26372 0.63125 -0.10900
C 	C 	0.10757 0.37200 0.08267 0.11500
O 	O 	0.01391 0.01831 0.97858 -0.36400
C 	C 	0.08997 0.02098 0.47719 0.32100
O 	O 	0.15445 0.00995 0.50066 -0.40900
O 	O 	0.05543 0.03500 0.49138 -0.37800
C 	C 	0.02569 0.99081 0.92812 -0.03900
C 	C 	0.05348 0.94894 0.32273 0.01200
C 	C 	0.03709 0.99591 0.36455 0.05500
S 	S 	0.10367 0.90084 0.36614 0.03500
H 	H 	0.07761 0.92891 0.28228 0.07800
C 	C 	0.06604 0.02914 0.43370 -0.12700
Br	Br	0.12707 0.53462 0.05310 -0.14700
C 	C 	0.11268 0.30324 0.11226 -0.10900
C 	C 	0.00986 0.98569 0.85356 0.03300
Br	Br	0.16854 0.74371 0.21565 -0.12500
Co	Co	0.02381 0.87667 0.10724 1.18700
C 	C 	0.13589 0.44178 0.09374 0.07200
O 	O 	0.05397 0.79422 0.07315 -0.39200
H 	H 	0.16864 0.49205 0.68725 0.09900
Co	Co	0.00890 0.85313 0.60357 1.18800
C 	C 	0.15507 0.30988 0.15227 0.11100
C 	C 	0.01511 0.96790 0.96864 0.32400
H 	H 	0.15564 0.19600 0.78739 0.06000
O 	O 	0.01662 0.90227 0.99552 -0.36600
S 	S 	0.16913 0.13196 0.80977 0.02100
C 	C 	0.17048 0.29086 0.66103 0.11700
C 	C 	0.17339 0.37350 0.16380 0.06900
C 	C 	0.17194 0.44430 0.13448 -0.03700
O 	O 	0.00202 0.82002 0.52479 -0.37200
C 	C 	0.99914 0.98199 0.24964 0.02200
Br	Br	0.99890 0.28697 0.51770 -0.15800
Co	Co	0.99183 0.06995 0.57683 1.17800
C 	C 	0.20041 0.75748 0.17245 0.11900
C 	C 	0.20819 0.69462 0.17487 0.07800
C 	C 	0.99752 0.97485 0.81561 0.06400
C 	C 	0.20286 0.89456 0.12945 0.32800
C 	C 	0.97938 0.94402 0.74818 -0.03400
H 	H 	0.93138 0.12096 0.19601 0.04900
H 	H 	0.19724 0.96084 0.37494 0.06100
O 	O 	0.96106 0.16945 0.10508 -0.39300
C 	C 	0.95485 0.00674 0.25380 0.03000
Br	Br	0.98444 0.59200 0.67183 -0.13600
Co	Co	0.97318 0.07430 0.07141 1.18500
O 	O 	0.22210 0.95581 0.09661 -0.35900
O 	O 	0.97216 0.91747 0.69227 -0.35900
S 	S 	0.88164 0.03265 0.21265 -0.06600
C 	C 	0.23244 0.83708 0.14232 -0.09600
O 	O 	0.19918 0.05827 0.01574 -0.41800
O 	O 	0.19833 0.11877 0.04903 -0.38300
O 	O 	0.94786 0.01670 0.68031 -0.41100
C 	C 	0.95618 0.95293 0.70468 0.32200
O 	O 	0.94472 0.14225 0.60526 -0.39200
O 	O 	0.25773 0.99897 0.58250 -0.33800
O 	O 	0.23801 0.09923 0.57339 -0.35700
H 	H 	0.25036 0.05097 0.96471 0.05200
C 	C 	0.96733 0.00957 0.29136 -0.07700
H 	H 	0.93742 0.03300 0.29377 0.07100
H 	H 	0.20645 0.13087 0.42797 0.06800
Br	Br	0.92010 0.24984 0.61058 -0.19500
C 	C 	0.24297 0.11922 0.03355 0.35400
C 	C 	0.28596 0.08040 0.57187 0.29600
S 	S 	0.21378 0.13791 0.35528 0.03100
H 	H 	0.27183 0.11379 0.37321 0.04800
C 	C 	0.26288 0.78339 0.68382 0.11000
C 	C 	0.28224 0.85616 0.11911 0.09600
Br	Br	0.30575 0.23264 0.48886 -0.18000
Br	Br	0.59393 0.96102 0.06406 -0.10200
Br	Br	0.28187 0.24822 0.94803 -0.16800
C 	C 	0.71922 0.28791 0.03111 0.10600
C 	C 	0.62733 0.25569 0.02376 -0.08400
C 	C 	0.60851 0.29914 0.03084 0.11500
C 	C 	0.67995 0.38002 0.04001 -0.08900
C 	C 	0.77107 0.41571 0.04518 0.11100
C 	C 	0.79155 0.36866 0.04201 -0.08100
H 	H 	0.57110 0.19411 0.01526 0.09200
H 	H 	0.66469 0.41497 0.04384 0.09400
H 	H 	0.86250 0.39390 0.04842 0.10100
C 	C 	0.73757 0.28879 0.51939 0.10300
C 	C 	0.64993 0.23631 0.52698 -0.08200
C 	C 	0.61918 0.27488 0.52950 0.11400
C 	C 	0.67606 0.36470 0.52539 -0.08800
C 	C 	0.76933 0.41330 0.52768 0.11000
C 	C 	0.80133 0.37494 0.52535 -0.07800
H 	H 	0.60735 0.16594 0.53221 0.09300
H 	H 	0.65037 0.39488 0.52533 0.09700
H 	H 	0.87429 0.40828 0.53164 0.11700
C 	C 	0.27344 0.65653 0.15327 0.10900
C 	C 	0.36793 0.69626 0.16100 -0.08200
C 	C 	0.39616 0.65509 0.15879 0.11500
C 	C 	0.33150 0.57077 0.15311 -0.08600
C 	C 	0.23759 0.53031 0.14473 0.11100
C 	C 	0.20777 0.57288 0.14489 -0.07800
H 	H 	0.41878 0.76152 0.16595 0.10200
H 	H 	0.35418 0.53855 0.15253 0.09500
C 	C 	0.26861 0.63036 0.66388 0.10400
C 	C 	0.34786 0.68992 0.64807 -0.08200
C 	C 	0.37749 0.65811 0.63904 0.11100
C 	C 	0.32138 0.57046 0.63941 -0.08800
C 	C 	0.24656 0.51027 0.65667 0.11300
C 	C 	0.22305 0.53940 0.67131 -0.07900
H 	H 	0.38598 0.75968 0.64295 0.09800
H 	H 	0.33990 0.54797 0.62855 0.09800
Co	Co	0.94458 0.92197 0.14220 1.19700
C 	C 	0.96689 0.74350 0.07373 0.34400
Co	Co	0.89168 0.03952 0.13646 1.17000
O 	O 	0.93665 0.00769 0.11427 -0.76800
O 	O 	0.97138 0.83865 0.15216 -0.42200
O 	O 	0.97299 0.96010 0.08328 -0.54300
C 	C 	0.76780 0.84448 0.15527 0.34600
O 	O 	0.81792 0.91173 0.17004 -0.36500
O 	O 	0.80589 0.83297 0.14196 -0.35100
C 	C 	0.79937 0.06360 0.05224 0.31900
O 	O 	0.78468 0.00817 0.08717 -0.38200
O 	O 	0.86174 0.08610 0.03750 -0.34100
O 	O 	0.93626 0.76543 0.08577 -0.35300
Co	Co	0.91875 0.89581 0.63445 1.18900
C 	C 	0.94123 0.74885 0.54615 0.32100
Co	Co	0.85795 0.01046 0.62492 1.16600
O 	O 	0.92277 0.98805 0.60895 -0.72100
O 	O 	0.93982 0.80851 0.64338 -0.42000
O 	O 	0.98335 0.95408 0.58388 -0.55100
C 	C 	0.72617 0.82008 0.62988 0.34300
O 	O 	0.76647 0.87937 0.64786 -0.39500
O 	O 	0.77536 0.81246 0.62176 -0.35500
C 	C 	0.82549 0.07954 0.53762 0.32300
O 	O 	0.78245 0.01275 0.56614 -0.37200
O 	O 	0.89388 0.09343 0.53158 -0.34400
O 	O 	0.92200 0.75432 0.57237 -0.34100
C 	C 	0.91826 0.89869 0.80264 -0.06100
C 	C 	0.90845 0.88361 0.76891 0.04800
S 	S 	0.80546 0.79081 0.75199 0.03200
H 	H 	0.86367 0.85145 0.81852 0.07700
C 	C 	0.95800 0.00378 0.85595 -0.01400
C 	C 	0.96561 0.00551 0.89325 -0.02200
S 	S 	0.88384 0.02445 0.81275 -0.02400
H 	H 	0.92225 0.01488 0.89528 0.06600
H 	H 	0.74289 0.80932 0.72725 0.06200
H 	H 	0.79895 0.94700 0.80757 0.08300
C 	C 	0.97673 0.96749 0.41498 0.11100
C 	C 	0.96326 0.94854 0.38162 -0.06500
S 	S 	0.88079 0.91814 0.43123 0.03000
H 	H 	0.89480 0.89902 0.36814 0.08800
H 	H 	0.86853 0.84846 0.46357 0.06700
C 	C 	0.18487 0.41939 0.65291 -0.03900
C 	C 	0.21571 0.36553 0.67392 0.06900
Br	Br	0.21981 0.22466 0.68591 -0.18200
Br	Br	0.31888 0.39408 0.71970 -0.15000
C 	C 	0.49201 0.75117 0.59810 0.07300
C 	C 	0.47300 0.71060 0.63644 -0.03800
C 	C 	0.53145 0.68958 0.66931 0.07000
C 	C 	0.59874 0.69821 0.66265 0.11400
C 	C 	0.62740 0.75189 0.62682 -0.11100
C 	C 	0.56677 0.76755 0.59317 0.11500
Br	Br	0.58131 0.80224 0.54071 -0.12500
Br	Br	0.41406 0.78110 0.55257 -0.13800
Br	Br	0.64231 0.62795 0.69946 -0.15300
Br	Br	0.51515 0.64404 0.72280 -0.15000
C 	C 	0.23261 0.66346 0.67184 -0.03300
C 	C 	0.29421 0.73775 0.68804 0.07200
Br	Br	0.34732 0.89148 0.69935 -0.11800
Br	Br	0.41320 0.76644 0.72194 -0.14500
Br	Br	0.20144 0.24193 0.18954 -0.17600
Br	Br	0.20547 0.36662 0.21980 -0.16000
C 	C 	0.55925 0.70852 0.19431 0.07300
C 	C 	0.49230 0.70330 0.15803 -0.03700
C 	C 	0.51288 0.73007 0.12166 0.07500
C 	C 	0.60122 0.76545 0.12149 0.12300
C 	C 	0.67047 0.77807 0.15727 -0.11100
C 	C 	0.64767 0.74435 0.19398 0.12100
Br	Br	0.73783 0.74672 0.24380 -0.15200
Br	Br	0.52924 0.66512 0.24448 -0.14300
Br	Br	0.62757 0.79717 0.07219 -0.14300
Br	Br	0.41965 0.71781 0.07206 -0.12400
C 	C 	0.24475 0.71035 0.14643 -0.03600
C 	C 	0.27299 0.78852 0.11624 0.07200
Br	Br	0.30028 0.80379 0.07108 -0.15000
Br	Br	0.37933 0.97523 0.09955 -0.13600
C 	C 	0.85169 0.29074 0.50701 0.07700
C 	C 	0.76061 0.25196 0.50555 -0.02400
C 	C 	0.69075 0.17278 0.49335 0.06800
C 	C 	0.71210 0.11706 0.50076 0.11500
C 	C 	0.80439 0.14556 0.51565 -0.10200
C 	C 	0.87486 0.23566 0.51501 0.12200
Br	Br	0.92435 0.41070 0.47823 -0.12500
Br	Br	0.61742 0.00749 0.48586 -0.15400
Br	Br	0.57887 0.15639 0.45528 -0.16100
C 	C 	0.86943 0.57701 0.50508 0.07500
C 	C 	0.83311 0.50133 0.53613 -0.03000
C 	C 	0.83117 0.50815 0.56953 0.07600
C 	C 	0.84560 0.58304 0.56785 0.11700
C 	C 	0.88889 0.66115 0.53869 -0.09800
C 	C 	0.89438 0.65594 0.50548 0.11600
Br	Br	0.91579 0.74845 0.45695 -0.18100
Br	Br	0.88026 0.57167 0.46064 -0.13500
Br	Br	0.77961 0.56903 0.59603 -0.13800
Br	Br	0.79846 0.41067 0.61589 -0.12200
C 	C 	0.38645 0.19818 0.52428 0.10700
C 	C 	0.37834 0.15103 0.56399 -0.10100
C 	C 	0.45371 0.15208 0.59304 0.11300
C 	C 	0.52766 0.18235 0.58116 0.07400
C 	C 	0.53103 0.22093 0.54036 -0.04300
C 	C 	0.45889 0.22710 0.51178 0.07200
Br	Br	0.45797 0.27232 0.45555 -0.16600
Br	Br	0.62287 0.16895 0.62054 -0.15600
Br	Br	0.45955 0.12128 0.64883 -0.14300
C 	C 	0.69224 0.08312 0.05124 0.08100
C 	C 	0.75748 0.11208 0.03375 -0.09800
C 	C 	0.79909 0.19748 0.00841 0.10900
C 	C 	0.78789 0.25640 0.00755 0.06800
C 	C 	0.73836 0.23033 0.03326 -0.03800
C 	C 	0.69553 0.14394 0.05704 0.07100
Br	Br	0.65223 0.11144 0.10100 -0.17500
Br	Br	0.83533 0.36927 0.96991 -0.12000
Br	Br	0.84801 0.22510 0.96782 -0.12100
C 	C 	0.86959 0.64538 0.02795 0.10600
C 	C 	0.90802 0.65526 0.06740 -0.10800
C 	C 	0.91154 0.58784 0.09948 0.11500
C 	C 	0.88173 0.51371 0.09177 0.07300
C 	C 	0.84346 0.50448 0.05214 -0.03700
C 	C 	0.84684 0.57493 0.02027 0.06700
Br	Br	0.81232 0.57068 0.96590 -0.13200
Br	Br	0.83498 0.72001 0.98561 -0.15000
Br	Br	0.89031 0.42334 0.13540 -0.15000
Br	Br	0.94956 0.59370 0.15382 -0.14100
C 	C 	0.36669 0.23493 0.99691 0.12800
C 	C 	0.34060 0.19002 0.03368 -0.13100
C 	C 	0.40694 0.19181 0.06968 0.12300
C 	C 	0.49270 0.22252 0.06878 0.07300
C 	C 	0.51457 0.25753 0.03162 -0.04900
C 	C 	0.45278 0.26688 0.99573 0.07600
Br	Br	0.48635 0.32381 0.94509 -0.14900
Br	Br	0.57991 0.21596 0.11834 -0.13700
Br	Br	0.37954 0.15088 0.12014 -0.17000
