data_crystal

_cell_length_a 19.71420
_cell_length_b 21.30404
_cell_length_c 48.94896
_cell_angle_alpha 60.55174
_cell_angle_beta  119.24796
_cell_angle_gamma 133.34634

_symmetry_space_group_name_	'P 1'
_symmetry_space_group_name_H-M	'P 1'

loop_
_symmetry_equiv_pos_as_xyz
  x,y,z

loop_
_atom_site_label
_atom_site_type_symbol
_atom_site_fract_x
_atom_site_fract_y
_atom_site_fract_z
_atom_site_charge
C 	C 	0.68204 0.25373 0.03491 0.03500
C 	C 	0.76387 0.33455 0.04376 -0.08200
C 	C 	0.75303 0.39376 0.04338 0.03700
C 	C 	0.66119 0.36973 0.03635 -0.08300
C 	C 	0.58022 0.29023 0.02747 0.03600
C 	C 	0.59041 0.23290 0.02619 -0.08200
H 	H 	0.65292 0.41476 0.03665 0.05200
H 	H 	0.52710 0.17122 0.01916 0.04600
C 	C 	0.80940 0.31544 0.52552 0.03300
C 	C 	0.85726 0.40606 0.52277 -0.07600
C 	C 	0.83114 0.42844 0.53708 0.03300
C 	C 	0.75533 0.36113 0.55245 -0.07800
C 	C 	0.70218 0.27296 0.55218 0.03400
C 	C 	0.73710 0.24934 0.54277 -0.07800
H 	H 	0.73040 0.37877 0.56114 0.05100
H 	H 	0.70111 0.17955 0.54576 0.04500
C 	C 	0.24457 0.65940 0.10289 0.03100
C 	C 	0.17301 0.57471 0.09598 -0.08200
C 	C 	0.19982 0.52444 0.09898 0.02900
C 	C 	0.29669 0.55871 0.10864 -0.08000
C 	C 	0.36747 0.64241 0.11523 0.03300
C 	C 	0.34166 0.69213 0.11298 -0.08100
H 	H 	0.09795 0.54907 0.08793 0.03900
H 	H 	0.31717 0.52028 0.11066 0.05200
H 	H 	0.39712 0.75804 0.11747 0.04800
C 	C 	0.32217 0.63084 0.64579 0.03200
C 	C 	0.41999 0.66969 0.65179 -0.08000
C 	C 	0.44619 0.62343 0.65136 0.03400
C 	C 	0.37926 0.53241 0.65369 -0.08000
C 	C 	0.28163 0.49427 0.64557 0.03400
C 	C 	0.25285 0.54180 0.64334 -0.08200
H 	H 	0.47395 0.73873 0.65298 0.04900
H 	H 	0.40108 0.49574 0.65513 0.05100
H 	H 	0.17706 0.51253 0.63700 0.04000
Co	Co	0.91819 0.03850 0.05549 1.18700
Co	Co	0.00069 0.01994 0.01771 1.15700
C 	C 	0.96095 0.74884 0.04461 0.35400
Co	Co	0.09097 0.94411 0.01262 1.15800
C 	C 	0.19022 0.13510 0.00435 0.31600
O 	O 	0.99863 0.04258 0.14856 -0.36700
C 	C 	0.02573 0.98961 0.16599 0.26500
O 	O 	0.95427 0.08490 0.01397 -0.45700
C 	C 	0.99082 0.18070 0.08169 0.40800
C 	C 	0.76218 0.80150 0.13629 0.31400
C 	C 	0.19926 0.92546 0.07923 0.29700
O 	O 	0.03396 0.95564 0.15201 -0.40500
O 	O 	0.20957 0.98225 0.05092 -0.39500
O 	O 	0.14849 0.91194 0.09438 -0.40200
O 	O 	0.90919 0.12386 0.09013 -0.42700
O 	O 	0.01748 0.15533 0.07123 -0.46900
O 	O 	0.80185 0.79400 0.12395 -0.39200
O 	O 	0.02346 0.94279 0.03555 -0.77200
O 	O 	0.14695 0.07690 0.98842 -0.43100
O 	O 	0.14305 0.12431 0.01992 -0.42700
Co	Co	0.03758 0.09521 0.55744 1.16100
Co	Co	0.11508 0.04304 0.53232 1.18000
C 	C 	0.92045 0.75600 0.52653 0.30100
Co	Co	0.12044 0.90479 0.52486 1.16200
C 	C 	0.30448 0.07403 0.54370 0.29100
O 	O 	0.12144 0.14490 0.52962 -0.48300
C 	C 	0.08812 0.21262 0.59093 0.25600
C 	C 	0.75399 0.84345 0.59732 0.31800
C 	C 	0.14518 0.80417 0.59374 0.30800
O 	O 	0.10826 0.79780 0.56378 -0.42800
O 	O 	0.12299 0.83256 0.60459 -0.40200
O 	O 	0.99608 0.17616 0.58142 -0.37200
O 	O 	0.12437 0.19338 0.58209 -0.39700
O 	O 	0.80558 0.85120 0.58466 -0.40700
O 	O 	0.08786 0.94039 0.54723 -0.77200
O 	O 	0.26114 0.98932 0.54699 -0.38900
O 	O 	0.25666 0.10850 0.53275 -0.38900
C 	C 	0.03572 0.96768 0.74371 -0.10500
C 	C 	0.04392 0.96982 0.71631 -0.01200
C 	C 	0.97278 0.04568 0.90430 0.04400
C 	C 	0.96967 0.04348 0.87550 -0.03800
H 	H 	0.10004 0.00406 0.76104 0.03400
H 	H 	0.11451 0.00871 0.71257 0.01500
H 	H 	0.02959 0.10585 0.91291 -0.00900
H 	H 	0.02270 0.10253 0.86182 0.00500
C 	C 	0.05795 0.97753 0.20128 -0.11400
C 	C 	0.13468 0.05472 0.24249 -0.08000
C 	C 	0.13273 0.05333 0.21377 0.00700
C 	C 	0.95298 0.95270 0.42260 0.07000
C 	C 	0.94606 0.94756 0.39374 -0.01800
H 	H 	0.18846 0.11569 0.25061 0.04400
H 	H 	0.18367 0.11390 0.19964 0.02700
H 	H 	0.90394 0.89376 0.43763 0.02700
H 	H 	0.89074 0.88520 0.38654 0.04500
C 	C 	0.15956 0.36762 0.58477 -0.02300
C 	C 	0.15154 0.28915 0.60488 -0.10000
C 	C 	0.17900 0.27631 0.63874 0.08500
C 	C 	0.20322 0.33698 0.65171 -0.08800
C 	C 	0.21359 0.41660 0.63164 -0.01400
C 	C 	0.18711 0.42996 0.59772 0.02600
C 	C 	0.19078 0.51189 0.57524 -0.16900
H 	H 	0.13989 0.37821 0.55887 0.02800
H 	H 	0.22372 0.32660 0.67772 0.04400
C 	C 	0.18470 0.19945 0.66139 -0.20200
H 	H 	0.16397 0.51032 0.54949 0.04800
H 	H 	0.26584 0.57242 0.57855 0.06000
H 	H 	0.14493 0.51634 0.58009 0.05000
H 	H 	0.25477 0.22417 0.67948 0.06500
H 	H 	0.17902 0.16414 0.64880 0.07300
H 	H 	0.12662 0.15191 0.67441 0.06800
C 	C 	0.67597 0.71143 0.63906 -0.01200
C 	C 	0.66767 0.75673 0.60630 -0.11800
C 	C 	0.57829 0.74099 0.58741 0.10200
C 	C 	0.50875 0.70190 0.60272 -0.08800
C 	C 	0.52505 0.67225 0.63654 -0.00900
C 	C 	0.60779 0.67380 0.65483 0.03000
C 	C 	0.62495 0.63818 0.69103 -0.17600
H 	H 	0.74220 0.71730 0.65315 0.03500
H 	H 	0.44165 0.69387 0.58836 0.04600
C 	C 	0.56192 0.77693 0.55129 -0.20800
H 	H 	0.69812 0.65410 0.70212 0.06600
H 	H 	0.57183 0.56470 0.69719 0.06400
H 	H 	0.61789 0.66828 0.70178 0.06400
H 	H 	0.60173 0.77582 0.54169 0.08200
H 	H 	0.58682 0.84650 0.54502 0.07600
H 	H 	0.48445 0.73588 0.53939 0.06700
C 	C 	0.23153 0.66209 0.65319 -0.08700
C 	C 	0.29133 0.68722 0.63657 -0.01200
C 	C 	0.31554 0.76243 0.60980 0.02900
C 	C 	0.28485 0.81359 0.60177 -0.01900
C 	C 	0.21312 0.78041 0.61469 -0.11100
C 	C 	0.19030 0.70696 0.64197 0.09000
C 	C 	0.11876 0.67342 0.65808 -0.19800
H 	H 	0.21360 0.60520 0.67390 0.04400
H 	H 	0.30656 0.87306 0.58208 0.03900
C 	C 	0.36616 0.78397 0.58795 -0.17300
H 	H 	0.11566 0.62113 0.68077 0.05700
H 	H 	0.13948 0.72895 0.66436 0.07400
H 	H 	0.33581 0.72243 0.58298 0.05900
H 	H 	0.44430 0.81835 0.59910 0.06300
H 	H 	0.35675 0.82858 0.56419 0.05600
C 	C 	0.10257 0.42502 0.06244 -0.11000
C 	C 	0.12751 0.43413 0.09318 -0.00200
C 	C 	0.10881 0.35953 0.11984 0.01000
C 	C 	0.07768 0.28119 0.11626 0.00900
C 	C 	0.05371 0.27192 0.08571 -0.18400
C 	C 	0.06617 0.34458 0.05850 0.12800
C 	C 	0.04197 0.33716 0.02539 -0.27600
H 	H 	0.11670 0.48217 0.04189 0.04700
H 	H 	0.06690 0.22521 0.13712 0.01800
C 	C 	0.12906 0.36544 0.15276 -0.16500
H 	H 	0.05834 0.40051 0.00682 0.06900
H 	H 	0.96434 0.28449 0.01821 0.11000
H 	H 	0.08442 0.32029 0.02556 0.08500
H 	H 	0.10715 0.40396 0.15073 0.05300
H 	H 	0.20698 0.39864 0.16432 0.06000
H 	H 	0.08839 0.29823 0.16861 0.05000
C 	C 	0.62199 0.71275 0.15819 -0.01400
C 	C 	0.65751 0.74180 0.13237 -0.11800
C 	C 	0.59489 0.73210 0.10132 0.10600
C 	C 	0.50251 0.70542 0.09579 -0.09000
C 	C 	0.46896 0.68127 0.12125 -0.01000
C 	C 	0.52785 0.68193 0.15291 0.02800
C 	C 	0.49129 0.65149 0.18096 -0.17400
H 	H 	0.66931 0.71815 0.18217 0.03900
H 	H 	0.45551 0.70128 0.07173 0.04900
C 	C 	0.62525 0.74824 0.07423 -0.20500
H 	H 	0.54399 0.65077 0.20438 0.06200
H 	H 	0.42375 0.58284 0.18210 0.06300
H 	H 	0.47742 0.69715 0.17807 0.06300
H 	H 	0.64572 0.70391 0.08155 0.07900
H 	H 	0.68690 0.81867 0.06805 0.07700
H 	H 	0.56620 0.73395 0.05199 0.06800
C 	C 	0.19298 0.71473 0.11834 -0.08600
C 	C 	0.22021 0.71965 0.09525 -0.01300
C 	C 	0.24234 0.79235 0.06791 0.02900
C 	C 	0.24792 0.86376 0.06584 -0.02000
C 	C 	0.21666 0.85826 0.08794 -0.10800
C 	C 	0.19192 0.78375 0.11524 0.08900
C 	C 	0.16897 0.77859 0.14180 -0.19800
H 	H 	0.17607 0.65881 0.13939 0.04100
H 	H 	0.27182 0.92202 0.04583 0.02800
C 	C 	0.26262 0.79525 0.04116 -0.17200
H 	H 	0.17338 0.72816 0.16408 0.06100
H 	H 	0.09476 0.75899 0.13396 0.06200
H 	H 	0.22129 0.84346 0.14837 0.08000
H 	H 	0.20895 0.72962 0.03507 0.05800
H 	H 	0.33558 0.81233 0.04880 0.06000
H 	H 	0.25844 0.84562 0.01880 0.05100
C 	C 	0.82888 0.28873 0.50853 -0.00000
C 	C 	0.75192 0.21818 0.49290 0.02300
C 	C 	0.76563 0.16078 0.49354 -0.00800
C 	C 	0.03098 0.31105 0.50373 -0.25700
H 	H 	0.70425 0.09819 0.48687 0.03400
C 	C 	0.65550 0.20245 0.47646 -0.17100
H 	H 	0.01805 0.30079 0.48102 0.07500
H 	H 	0.06792 0.28133 0.52397 0.07400
H 	H 	0.07915 0.38397 0.50138 0.06800
H 	H 	0.66143 0.26340 0.47040 0.06300
H 	H 	0.60485 0.14740 0.49235 0.05800
H 	H 	0.62552 0.18384 0.45353 0.06000
C 	C 	0.87335 0.52208 0.53265 -0.00200
C 	C 	0.91979 0.55542 0.56015 0.02200
C 	C 	0.91777 0.62126 0.55905 -0.00200
C 	C 	0.88610 0.66600 0.52952 -0.11100
H 	H 	0.94703 0.64184 0.58084 0.04900
C 	C 	0.96619 0.51696 0.59132 -0.11500
H 	H 	0.99651 0.49558 0.58654 0.06500
H 	H 	0.91227 0.45888 0.60581 0.05700
H 	H 	0.02623 0.56738 0.60567 0.02300
C 	C 	0.53540 0.21378 0.52041 -0.08800
C 	C 	0.59926 0.21509 0.55082 -0.01100
C 	C 	0.56688 0.17476 0.57899 0.02900
C 	C 	0.47118 0.13540 0.57618 -0.01800
C 	C 	0.40754 0.13459 0.54570 -0.10700
C 	C 	0.44052 0.17589 0.51756 0.09600
C 	C 	0.37325 0.17519 0.48448 -0.20400
H 	H 	0.56093 0.24547 0.49883 0.04800
H 	H 	0.44526 0.10271 0.59775 0.03200
C 	C 	0.63439 0.17504 0.61193 -0.17500
H 	H 	0.41292 0.22107 0.46505 0.06600
H 	H 	0.33272 0.19716 0.48195 0.08400
H 	H 	0.32213 0.10697 0.48074 0.07200
H 	H 	0.59483 0.12770 0.63140 0.06100
H 	H 	0.68490 0.24285 0.61600 0.06500
H 	H 	0.67592 0.15487 0.61381 0.06300
C 	C 	0.63916 0.10024 0.05624 -0.08200
C 	C 	0.69075 0.18711 0.03721 -0.01100
C 	C 	0.74179 0.20661 0.01822 0.03200
C 	C 	0.74962 0.14202 0.02170 -0.01800
H 	H 	0.59656 0.08382 0.06974 0.04600
C 	C 	0.79014 0.29628 0.99495 -0.17400
H 	H 	0.86012 0.34528 0.00828 0.06900
H 	H 	0.74420 0.32012 0.98184 0.06500
H 	H 	0.80385 0.29265 0.97647 0.06400
C 	C 	0.83608 0.48568 0.04590 -0.00700
C 	C 	0.87401 0.50887 0.07512 0.03400
C 	C 	0.91118 0.59429 0.07429 -0.00500
C 	C 	0.91488 0.65768 0.04473 -0.11700
H 	H 	0.93772 0.61155 0.09662 0.04400
C 	C 	0.86825 0.44082 0.10693 -0.17800
H 	H 	0.85701 0.67443 0.96333 0.07100
H 	H 	0.88200 0.39821 0.10695 0.07200
H 	H 	0.79573 0.39832 0.11113 0.06700
H 	H 	0.92285 0.47349 0.12721 0.07200
C 	C 	0.33536 0.24327 0.98311 -0.01200
C 	C 	0.29489 0.20227 0.00917 -0.12500
C 	C 	0.35506 0.20735 0.04074 0.10700
C 	C 	0.44826 0.23572 0.04638 -0.08900
C 	C 	0.48424 0.26560 0.02065 -0.01100
C 	C 	0.43010 0.27535 0.98861 0.02700
C 	C 	0.47118 0.31560 0.96038 -0.17300
H 	H 	0.29076 0.24402 0.95868 0.03100
H 	H 	0.49263 0.23388 0.07082 0.05100
C 	C 	0.32039 0.18206 0.06843 -0.20500
H 	H 	0.42553 0.33024 0.93719 0.05700
H 	H 	0.47630 0.26863 0.95893 0.05900
H 	H 	0.54376 0.37930 0.96323 0.06400
H 	H 	0.26590 0.10901 0.07502 0.07400
H 	H 	0.28896 0.21690 0.06165 0.07500
H 	H 	0.38023 0.20155 0.09021 0.06700
H 	H 	0.83495 0.35116 0.05082 0.05600
H 	H 	0.91217 0.45813 0.50918 0.05300
Co	Co	0.93257 0.90034 0.11196 1.19000
O 	O 	0.97108 0.82997 0.11438 -0.44900
O 	O 	0.81361 0.86941 0.14833 -0.40800
C 	C 	0.73590 0.00085 0.05392 0.28200
O 	O 	0.73605 0.95138 0.08378 -0.38800
O 	O 	0.78312 0.01539 0.03684 -0.38600
O 	O 	0.04347 0.81286 0.03624 -0.44900
O 	O 	0.92925 0.76134 0.05866 -0.38900
Co	Co	0.95159 0.91724 0.60284 1.19300
O 	O 	0.96013 0.82091 0.60918 -0.44800
C 	C 	0.06832 0.02098 0.46904 0.31400
O 	O 	0.78882 0.90706 0.60881 -0.41000
O 	O 	0.13468 0.00727 0.48377 -0.42800
C 	C 	0.86833 0.10742 0.52374 0.30800
O 	O 	0.82110 0.04501 0.54645 -0.40000
O 	O 	0.93112 0.10879 0.51966 -0.37300
O 	O 	0.97548 0.82360 0.50645 -0.37600
O 	O 	0.91083 0.76966 0.54787 -0.37300
C 	C 	0.87045 0.87674 0.69807 0.00700
C 	C 	0.86222 0.87408 0.72555 -0.07500
C 	C 	0.83254 0.88852 0.88308 -0.06900
C 	C 	0.83578 0.89068 0.91187 0.01900
C 	C 	0.90970 0.96768 0.92368 -0.08700
H 	H 	0.80617 0.84416 0.67997 0.03100
H 	H 	0.79163 0.83764 0.72875 0.04800
H 	H 	0.77888 0.82702 0.87531 0.04700
H 	H 	0.78581 0.83027 0.92635 0.02700
C 	C 	0.99611 0.90041 0.24911 -0.03000
C 	C 	0.08359 0.10191 0.38459 -0.06700
C 	C 	0.09078 0.10676 0.41353 0.02600
H 	H 	0.93783 0.83926 0.21155 0.03300
H 	H 	0.94195 0.84131 0.26237 0.05000
H 	H 	0.13534 0.15972 0.37027 0.04100
H 	H 	0.14958 0.16760 0.42163 0.02000
C 	C 	0.92282 0.31816 0.51406 -0.10000
C 	C 	0.85794 0.18126 0.50522 -0.12500
C 	C 	0.93688 0.26817 0.50914 0.15300
H 	H 	0.98400 0.37803 0.52255 0.06800
C 	C 	0.83994 0.56551 0.50315 -0.08800
C 	C 	0.84380 0.63575 0.50148 0.10100
C 	C 	0.80410 0.67885 0.46961 -0.20500
H 	H 	0.80486 0.54066 0.48190 0.05200
C 	C 	0.70293 0.05689 0.04245 -0.10300
C 	C 	0.63909 0.03356 0.05697 0.07700
C 	C 	0.57032 0.93805 0.07304 -0.18500
H 	H 	0.79437 0.15901 0.00898 0.03800
H 	H 	0.50485 0.92655 0.07182 0.06400
H 	H 	0.60505 0.92229 0.09887 0.07200
H 	H 	0.54676 0.89163 0.06079 0.07600
C 	C 	0.85317 0.55275 0.01714 -0.08900
C 	C 	0.88782 0.63744 0.01594 0.10600
C 	C 	0.89125 0.70419 0.98376 -0.20700
H 	H 	0.82866 0.53587 0.99494 0.05300
O 	O 	0.97822 0.03224 0.64087 -0.39000
O 	O 	0.96473 0.90409 0.97774 -0.38500
O 	O 	0.93451 0.99913 0.97066 -0.35400
Co	Co	0.89606 0.04038 0.59427 1.16600
O 	O 	0.06416 0.99132 0.57631 -0.60000
C 	C 	0.99452 0.89896 0.22045 0.04900
H 	H 	0.04599 0.64453 0.64160 0.05700
H 	H 	0.74604 0.63116 0.45406 0.06900
H 	H 	0.96696 0.76118 0.98263 0.08300
C 	C 	0.96926 0.95754 0.65936 0.29300
O 	O 	0.98303 0.91751 0.65055 -0.37000
C 	C 	0.96135 0.92804 0.69256 -0.04600
C 	C 	0.94482 0.92257 0.74776 0.08600
C 	C 	0.06299 0.97975 0.25924 0.01200
Co	Co	0.00777 0.87634 0.07288 1.16400
C 	C 	0.93967 0.95831 0.95876 0.30200
Co	Co	0.02470 0.86366 0.57568 1.16800
C 	C 	0.01457 0.02087 0.37556 -0.02200
C 	C 	0.03032 0.03010 0.43396 -0.15600
H 	H 	0.77282 0.70128 0.47322 0.08000
H 	H 	0.85197 0.72848 0.98032 0.08300
Co	Co	0.86390 0.99619 0.11825 1.17400
O 	O 	0.90291 0.97332 0.09275 -0.74500
O 	O 	0.93148 0.93582 0.06000 -0.56700
O 	O 	0.96991 0.01729 0.58484 -0.74400
O 	O 	0.03633 0.02537 0.48580 -0.42000
C 	C 	0.93630 0.93216 0.77305 -0.03400
C 	C 	0.92836 0.93973 0.79410 0.01200
C 	C 	0.91876 0.94886 0.81864 -0.00200
C 	C 	0.91087 0.95622 0.83976 -0.01700
C 	C 	0.90223 0.96369 0.86561 0.04100
C 	C 	0.05121 0.98730 0.28426 -0.04000
C 	C 	0.04130 0.99354 0.30516 0.00700
C 	C 	0.02984 0.00199 0.32941 -0.04200
C 	C 	0.02153 0.01016 0.35018 -0.02200
H 	H 	0.86228 0.73682 0.45678 0.08100
