data_crystal

_cell_length_a 18.34693
_cell_length_b 18.79108
_cell_length_c 17.60949
_cell_angle_alpha 95.40937
_cell_angle_beta  95.41107
_cell_angle_gamma 126.45357

_symmetry_space_group_name_	'P 1'
_symmetry_space_group_name_H-M	'P 1'

loop_
_symmetry_equiv_pos_as_xyz
  x,y,z

loop_
_atom_site_label
_atom_site_type_symbol
_atom_site_fract_x
_atom_site_fract_y
_atom_site_fract_z
_atom_site_charge
C 	C 	0.92723 0.01514 0.97824 0.12500
N 	N 	0.02097 0.06835 0.98830 -0.10400
C 	C 	0.06339 0.03192 0.96742 0.12000
N 	N 	0.01272 0.94245 0.93995 -0.09500
C 	C 	0.92019 0.88845 0.93528 0.11900
N 	N 	0.87714 0.92536 0.95078 -0.11300
C 	C 	0.92408 0.00654 0.42923 0.08600
N 	N 	0.87864 0.91840 0.43616 -0.11000
C 	C 	0.92787 0.88736 0.45452 0.10600
N 	N 	0.02118 0.94437 0.46706 -0.09700
C 	C 	0.06591 0.03121 0.45902 0.11500
N 	N 	0.01747 0.06207 0.43980 -0.10500
Cu	Cu	0.62557 0.22625 0.03680 0.91700
Cu	Cu	0.64511 0.14959 0.86685 0.88200
Cu	Cu	0.66241 0.33057 0.90375 0.91300
Cu	Cu	0.62074 0.39132 0.04713 0.89100
C 	C 	0.66015 0.33083 0.18625 0.20300
O 	O 	0.49119 0.17194 0.04048 -0.33800
C 	C 	0.64766 0.25245 0.74980 0.19500
O 	O 	0.69216 0.35708 0.01493 -0.65600
O 	O 	0.59635 0.20356 0.92001 -0.62000
O 	O 	0.70229 0.18317 0.05481 -0.35000
O 	O 	0.63258 0.08070 0.94241 -0.38400
O 	O 	0.61510 0.35734 0.15165 -0.34400
O 	O 	0.72876 0.45520 0.89489 -0.36300
C 	C 	0.72425 0.51249 0.93940 0.30200
C 	C 	0.45030 0.19977 0.00166 0.20200
O 	O 	0.49958 0.27333 0.97314 -0.33400
O 	O 	0.65981 0.48474 0.98198 -0.36200
O 	O 	0.66803 0.27245 0.14748 -0.31200
C 	C 	0.69304 0.11912 0.00701 0.25900
O 	O 	0.62818 0.29912 0.79141 -0.32400
O 	O 	0.62394 0.17485 0.76614 -0.36800
H 	H 	0.75905 0.40118 0.03641 0.17100
H 	H 	0.52961 0.16706 0.89869 0.18300
Cu	Cu	0.75810 0.34678 0.41342 0.92500
Cu	Cu	0.70115 0.21344 0.53831 0.87200
Cu	Cu	0.63831 0.31804 0.53414 0.89300
Cu	Cu	0.60372 0.37750 0.39111 0.90500
C 	C 	0.68258 0.35085 0.26394 0.20400
O 	O 	0.82954 0.48513 0.43709 -0.34200
C 	C 	0.66885 0.27027 0.68001 0.19400
O 	O 	0.62018 0.29305 0.42114 -0.63500
O 	O 	0.75561 0.33725 0.52471 -0.63500
O 	O 	0.80991 0.27860 0.39332 -0.34400
O 	O 	0.69202 0.16184 0.43745 -0.42500
O 	O 	0.66730 0.40340 0.30134 -0.34400
O 	O 	0.51913 0.29035 0.54040 -0.36800
C 	C 	0.45893 0.27216 0.47983 0.29300
C 	C 	0.79641 0.52437 0.46971 0.28000
O 	O 	0.71342 0.47438 0.48605 -0.38900
O 	O 	0.48470 0.32160 0.42555 -0.37200
O 	O 	0.73361 0.33185 0.30084 -0.30900
C 	C 	0.76719 0.19690 0.40871 0.29800
O 	O 	0.65521 0.32283 0.64697 -0.32400
O 	O 	0.70978 0.24009 0.64777 -0.37200
H 	H 	0.57079 0.22928 0.39689 0.17000
H 	H 	0.80978 0.38656 0.56402 0.18900
C 	C 	0.88093 0.79071 0.45671 0.00300
C 	C 	0.86670 0.73314 0.38991 -0.02700
C 	C 	0.85284 0.65165 0.39636 0.00900
C 	C 	0.84028 0.62111 0.46792 -0.07100
C 	C 	0.85222 0.67780 0.53461 0.01400
C 	C 	0.87355 0.76275 0.52913 -0.02600
C 	C 	0.86848 0.75885 0.31458 0.10000
C 	C 	0.84521 0.64986 0.60929 0.08700
C 	C 	0.89180 0.82311 0.59856 0.10500
C 	C 	0.85657 0.60219 0.33054 0.09200
N 	N 	0.90682 0.87162 0.65387 -0.09500
N 	N 	0.86020 0.56330 0.27790 -0.10200
N 	N 	0.83966 0.62760 0.66890 -0.10400
N 	N 	0.86986 0.77939 0.25450 -0.10200
C 	C 	0.81542 0.15522 0.41392 -0.08700
C 	C 	0.83289 0.13456 0.48524 0.01800
C 	C 	0.85254 0.07261 0.48660 -0.03200
C 	C 	0.87382 0.04556 0.42024 0.00700
C 	C 	0.86827 0.07596 0.35080 -0.03300
C 	C 	0.83514 0.12740 0.34676 0.02200
C 	C 	0.84392 0.18634 0.55761 0.03000
C 	C 	0.90374 0.06081 0.28611 0.09700
C 	C 	0.82593 0.15539 0.27484 0.08700
C 	C 	0.85615 0.04081 0.55776 0.09600
N 	N 	0.81887 0.17825 0.21764 -0.09700
N 	N 	0.85911 0.01547 0.61452 -0.10700
N 	N 	0.93303 0.04934 0.23497 -0.11200
N 	N 	0.85401 0.22801 0.61580 -0.12800
C 	C 	0.16690 0.09065 0.46706 0.01200
C 	C 	0.22183 0.16607 0.52809 -0.02800
C 	C 	0.31825 0.22490 0.53372 0.02600
C 	C 	0.35981 0.20664 0.47967 -0.07900
C 	C 	0.30525 0.12826 0.42163 0.02500
C 	C 	0.20875 0.07157 0.41406 -0.04900
C 	C 	0.17914 0.18233 0.58555 0.11200
C 	C 	0.34868 0.10522 0.37047 0.06400
C 	C 	0.15229 0.99435 0.35094 0.14300
C 	C 	0.37444 0.30494 0.59409 0.09900
N 	N 	0.10729 0.93272 0.30068 -0.09300
N 	N 	0.41922 0.36878 0.64227 -0.09000
N 	N 	0.38304 0.08651 0.32964 -0.11400
N 	N 	0.14497 0.19519 0.63131 -0.09200
C 	C 	0.78255 0.60761 0.93259 -0.07600
C 	C 	0.85253 0.67218 0.99563 0.04100
C 	C 	0.89502 0.76396 0.99770 0.01800
C 	C 	0.87174 0.79187 0.93426 -0.00500
C 	C 	0.80387 0.72747 0.86980 -0.02000
C 	C 	0.76010 0.63524 0.86851 0.02400
C 	C 	0.88032 0.64378 0.05870 0.03700
C 	C 	0.77692 0.75584 0.80624 0.10900
C 	C 	0.69125 0.56868 0.80182 0.10000
C 	C 	0.95994 0.82959 0.06646 0.03400
N 	N 	0.63640 0.51555 0.74861 -0.09000
N 	N 	0.01168 0.88196 0.12125 -0.05500
N 	N 	0.75506 0.77833 0.75563 -0.09700
N 	N 	0.90248 0.62110 0.10896 -0.10600
C 	C 	0.87944 0.05383 0.00006 -0.05900
C 	C 	0.80738 0.00878 0.04282 -0.02900
C 	C 	0.74963 0.03437 0.05002 -0.00100
C 	C 	0.76498 0.10617 0.01639 -0.09600
C 	C 	0.84299 0.15761 0.98170 0.02700
C 	C 	0.89890 0.13030 0.97165 0.02200
C 	C 	0.79137 0.93488 0.07787 0.11800
C 	C 	0.86396 0.23713 0.95414 0.05200
C 	C 	0.67359 0.98601 0.09112 0.11500
N 	N 	0.03175 0.21558 0.89359 -0.06400
N 	N 	0.61298 0.94749 0.12399 -0.10200
N 	N 	0.88057 0.30052 0.93215 -0.12900
N 	N 	0.77845 0.87580 0.10565 -0.10700
C 	C 	0.34990 0.15191 0.99365 0.00800
C 	C 	0.29591 0.12455 0.91906 -0.00300
C 	C 	0.20507 0.09691 0.91115 -0.01900
C 	C 	0.16467 0.08811 0.97725 0.03100
C 	C 	0.21857 0.11613 0.05197 -0.04400
C 	C 	0.31131 0.14860 0.06022 -0.03100
C 	C 	0.33369 0.12405 0.85039 0.09500
C 	C 	0.17830 0.11067 0.12030 0.10300
C 	C 	0.36778 0.18121 0.13708 0.09900
C 	C 	0.15270 0.07717 0.83482 0.10800
N 	N 	0.41284 0.20736 0.19839 -0.11500
N 	N 	0.11089 0.06141 0.77397 -0.09300
N 	N 	0.14620 0.10636 0.17482 -0.09900
N 	N 	0.36378 0.12368 0.79559 -0.11100
C 	C 	0.97282 0.17774 0.92825 0.05600
