data_crystal

_cell_length_a 22.04326
_cell_length_b 20.55756
_cell_length_c 38.79863
_cell_angle_alpha 92.70184
_cell_angle_beta  85.32070
_cell_angle_gamma 124.79239

_symmetry_space_group_name_	'P 1'
_symmetry_space_group_name_H-M	'P 1'

loop_
_symmetry_equiv_pos_as_xyz
  x,y,z

loop_
_atom_site_label
_atom_site_type_symbol
_atom_site_fract_x
_atom_site_fract_y
_atom_site_fract_z
_atom_site_charge
H 	H 	0.02143 0.16795 0.06172 0.04900
N 	N 	0.02221 0.03628 0.52679 -0.14300
H 	H 	0.03876 0.96399 0.46969 0.04400
H 	H 	0.00884 0.13774 0.56636 0.04600
C 	C 	0.19044 0.10186 0.03516 -0.01200
C 	C 	0.11509 0.06782 0.04257 -0.07400
C 	C 	0.07438 0.07632 0.01950 0.07700
C 	C 	0.10997 0.11911 0.98857 -0.07400
C 	C 	0.18562 0.15362 0.98128 -0.01000
H 	H 	0.22143 0.09532 0.05333 0.03500
H 	H 	0.08807 0.03473 0.06631 0.05200
H 	H 	0.07896 0.12459 0.97006 0.04900
H 	H 	0.21276 0.18682 0.95757 0.03200
C 	C 	0.22214 0.12823 0.53913 -0.01400
C 	C 	0.14519 0.08366 0.54482 -0.07400
C 	C 	0.10147 0.08068 0.51971 0.08300
C 	C 	0.13570 0.12216 0.48837 -0.07600
C 	C 	0.21279 0.16671 0.48269 -0.01500
H 	H 	0.11934 0.05175 0.56891 0.05300
H 	H 	0.10280 0.11901 0.46833 0.04900
C 	C 	0.22604 0.14508 0.00458 -0.03400
C 	C 	0.25628 0.17026 0.50814 -0.02500
H 	H 	0.25531 0.13017 0.55880 0.03600
H 	H 	0.23869 0.19856 0.45858 0.03300
C 	C 	0.30619 0.18387 0.99780 0.07200
H 	H 	0.29652 0.07512 0.98496 0.05700
C 	C 	0.33758 0.21779 0.50246 0.06300
H 	H 	0.35556 0.30445 0.54135 0.06400
H 	H 	0.33777 0.14462 0.46074 0.05600
C 	C 	0.33402 0.13800 0.98990 -0.09500
C 	C 	0.35507 0.26546 0.00337 -0.13400
H 	H 	0.33353 0.30127 0.00850 0.06500
C 	C 	0.37125 0.19407 0.47775 -0.09200
C 	C 	0.38146 0.28367 0.52346 -0.12900
C 	C 	0.40977 0.17203 0.99043 0.05100
C 	C 	0.43147 0.30049 0.00362 0.15200
H 	H 	0.43004 0.13493 0.98612 0.03100
C 	C 	0.44778 0.23109 0.47623 0.04800
H 	H 	0.45337 0.07874 0.17872 0.06200
H 	H 	0.45808 0.41501 0.01238 0.08600
C 	C 	0.45874 0.32298 0.52138 0.15500
C 	C 	0.45841 0.25222 0.99915 -0.14800
H 	H 	0.47248 0.20963 0.45800 0.02300
H 	H 	0.47629 0.41195 0.55634 0.08600
N 	N 	0.47856 0.38014 0.00793 -0.20900
H 	H 	0.48366 0.10454 0.68022 0.06100
C 	C 	0.49144 0.29150 0.49985 -0.15200
H 	H 	0.49507 0.11806 0.11762 0.03600
H 	H 	0.99848 0.96582 0.96797 0.04800
N 	N 	0.99629 0.03979 0.02767 -0.13800
C 	C 	0.91502 0.17736 0.00591 -0.02400
C 	C 	0.89723 0.11166 0.98504 -0.01200
C 	C 	0.92587 0.06796 0.99114 -0.07100
C 	C 	0.96908 0.08648 0.01959 0.07800
C 	C 	0.98705 0.15226 0.04023 -0.06700
C 	C 	0.96186 0.19860 0.03293 -0.01700
C 	C 	0.87047 0.79190 0.00897 -0.03000
C 	C 	0.92066 0.84432 0.98293 -0.01200
C 	C 	0.96009 0.92601 0.98831 -0.07300
C 	C 	0.94978 0.95614 0.01997 0.07400
C 	C 	0.89760 0.90358 0.04541 -0.07300
C 	C 	0.85820 0.82182 0.04001 -0.01500
H 	H 	0.86082 0.09412 0.96424 0.03500
H 	H 	0.91375 0.01951 0.97402 0.05200
H 	H 	0.97831 0.25070 0.04847 0.03400
H 	H 	0.92955 0.82172 0.95866 0.03300
H 	H 	0.88915 0.92621 0.06977 0.05100
H 	H 	0.81926 0.78172 0.06021 0.03300
C 	C 	0.91548 0.14587 0.50285 0.01500
C 	C 	0.92036 0.09625 0.47844 -0.03300
C 	C 	0.95669 0.06124 0.48576 -0.06700
C 	C 	0.98770 0.07488 0.51787 0.07800
C 	C 	0.98442 0.12623 0.54178 -0.06100
C 	C 	0.94913 0.16220 0.53420 -0.03500
C 	C 	0.90356 0.78842 0.50759 -0.02500
C 	C 	0.95856 0.84190 0.48313 -0.01700
C 	C 	0.99729 0.92348 0.48901 -0.07100
C 	C 	0.98133 0.95237 0.51958 0.07800
C 	C 	0.92575 0.89873 0.54374 -0.07300
C 	C 	0.88711 0.81719 0.53784 -0.01600
H 	H 	0.89533 0.08418 0.45398 0.04100
H 	H 	0.96054 0.02356 0.46661 0.05000
H 	H 	0.94635 0.20123 0.55301 0.04100
H 	H 	0.97104 0.82025 0.45951 0.03400
H 	H 	0.91301 0.92042 0.56725 0.05000
H 	H 	0.84474 0.77635 0.55688 0.03300
Co	Co	0.64993 0.30473 0.03862 1.18200
O 	O 	0.68116 0.30265 0.08776 -0.38300
Co	Co	0.64944 0.31285 0.95347 1.18400
O 	O 	0.69199 0.27552 0.99640 -0.46000
O 	O 	0.67019 0.41275 0.97453 -0.43300
O 	O 	0.59636 0.19461 0.06610 -0.34900
C 	C 	0.71804 0.45372 0.99828 0.35600
O 	O 	0.76052 0.34425 0.95240 -0.37100
C 	C 	0.59625 0.24164 0.89596 0.29000
C 	C 	0.53323 0.28168 0.00877 0.32000
O 	O 	0.61388 0.31132 0.90489 -0.37300
O 	O 	0.61015 0.21129 0.91993 -0.34800
O 	O 	0.55242 0.30435 0.04014 -0.36500
O 	O 	0.57131 0.25765 0.99317 -0.46300
O 	O 	0.72077 0.41939 0.02586 -0.53700
C 	C 	0.63610 0.22732 0.09236 0.29500
C 	C 	0.75899 0.31700 0.98225 0.31500
H 	H 	0.75845 0.45373 0.04338 0.16900
Co	Co	0.67415 0.30834 0.53204 1.18200
O 	O 	0.71230 0.30648 0.57931 -0.38300
Co	Co	0.65971 0.30232 0.44684 1.18300
O 	O 	0.69117 0.25488 0.49052 -0.46000
O 	O 	0.71497 0.41701 0.45932 -0.42100
O 	O 	0.60958 0.20583 0.56478 -0.35200
C 	C 	0.74577 0.44999 0.48887 0.34700
O 	O 	0.75642 0.30004 0.44284 -0.35400
C 	C 	0.58480 0.22485 0.39425 0.28900
C 	C 	0.56589 0.31109 0.50580 0.31400
O 	O 	0.61973 0.30005 0.39943 -0.37400
O 	O 	0.59303 0.19192 0.41929 -0.34700
O 	O 	0.59323 0.33549 0.53591 -0.36900
O 	O 	0.58976 0.27175 0.49031 -0.46600
O 	O 	0.75647 0.41117 0.51128 -0.53900
C 	C 	0.65719 0.23601 0.58815 0.29100
C 	C 	0.75352 0.27744 0.47402 0.29200
H 	H 	0.80388 0.44035 0.52375 0.17000
C 	C 	0.60032 0.18292 0.78883 0.10300
C 	C 	0.61683 0.14849 0.81345 -0.09200
C 	C 	0.61266 0.16497 0.84862 0.03000
C 	C 	0.59305 0.21726 0.85941 -0.09500
C 	C 	0.57429 0.24981 0.83480 0.02900
C 	C 	0.57828 0.23311 0.79969 -0.08900
H 	H 	0.63437 0.11023 0.80525 0.06100
H 	H 	0.62675 0.13890 0.86732 0.03800
H 	H 	0.55815 0.28940 0.84280 0.03400
H 	H 	0.56638 0.26097 0.78085 0.06400
N 	N 	0.61391 0.17402 0.75317 -0.08800
N 	N 	0.57430 0.17197 0.73136 -0.08800
C 	C 	0.63641 0.21094 0.62467 -0.09700
C 	C 	0.56165 0.15827 0.63614 0.03100
C 	C 	0.54159 0.14281 0.67147 -0.09200
C 	C 	0.59589 0.17869 0.69556 0.10300
C 	C 	0.67094 0.22862 0.68397 -0.09000
C 	C 	0.69105 0.24422 0.64870 0.02900
H 	H 	0.51888 0.13141 0.61789 0.03800
H 	H 	0.71342 0.25739 0.70235 0.06400
H 	H 	0.74897 0.28392 0.64014 0.03200
C 	C 	0.56375 0.14404 0.28959 0.10300
C 	C 	0.54819 0.19991 0.29978 -0.08900
C 	C 	0.55086 0.22282 0.33441 0.03000
C 	C 	0.56966 0.19070 0.35918 -0.09500
C 	C 	0.58101 0.13155 0.34933 0.03100
C 	C 	0.57856 0.10883 0.31462 -0.09200
H 	H 	0.53723 0.22806 0.28067 0.06400
H 	H 	0.54088 0.26761 0.34178 0.03200
H 	H 	0.59488 0.10565 0.36822 0.03800
H 	H 	0.59082 0.06593 0.30698 0.06200
N 	N 	0.57523 0.13193 0.25405 -0.08800
N 	N 	0.53889 0.13520 0.23202 -0.08800
C 	C 	0.61150 0.19215 0.12716 -0.09900
C 	C 	0.53575 0.13910 0.13668 0.03300
C 	C 	0.51203 0.11673 0.17131 -0.09300
C 	C 	0.56371 0.14620 0.19655 0.10400
C 	C 	0.63974 0.19584 0.18666 -0.09100
C 	C 	0.66341 0.21846 0.15214 0.03200
H 	H 	0.68025 0.21964 0.20595 0.06400
H 	H 	0.72204 0.25875 0.14500 0.02700
C 	C 	0.86308 0.70225 0.50154 0.06300
C 	C 	0.90109 0.66597 0.49910 -0.09600
C 	C 	0.86274 0.58422 0.49424 0.05000
C 	C 	0.78547 0.53718 0.49230 -0.16100
C 	C 	0.74716 0.57420 0.49310 0.15300
C 	C 	0.78643 0.65650 0.49834 -0.13000
H 	H 	0.89321 0.55734 0.49187 0.01500
H 	H 	0.75738 0.68500 0.49954 0.06300
H 	H 	0.96048 0.70116 0.50115 0.05400
N 	N 	0.67342 0.53170 0.48848 -0.21000
H 	H 	0.64318 0.47146 0.48266 0.08900
H 	H 	0.64565 0.55943 0.48993 0.08400
C 	C 	0.79571 0.24535 0.48250 -0.06900
C 	C 	0.86488 0.27372 0.46532 -0.00500
C 	C 	0.90342 0.24094 0.47212 -0.03700
C 	C 	0.87314 0.17891 0.49600 -0.02900
C 	C 	0.80307 0.14969 0.51343 0.08100
C 	C 	0.76584 0.18467 0.50711 -0.04900
H 	H 	0.95699 0.26375 0.45877 0.04100
H 	H 	0.71261 0.16294 0.52065 0.05200
H 	H 	0.88888 0.32125 0.44665 0.04100
N 	N 	0.77061 0.08722 0.53556 -0.19600
H 	H 	0.79381 0.05583 0.53881 0.09000
H 	H 	0.72002 0.06776 0.54904 0.08700
N 	N 	0.50106 0.39191 0.53897 -0.20800
H 	H 	0.55822 0.42892 0.53377 0.09700
C 	C 	0.83235 0.70577 0.00415 0.06600
C 	C 	0.75515 0.65676 0.00343 -0.09900
C 	C 	0.71863 0.57489 0.00023 0.05500
C 	C 	0.75877 0.54083 0.99772 -0.16500
C 	C 	0.83718 0.59036 0.99693 0.15300
C 	C 	0.87327 0.67265 0.00067 -0.13500
H 	H 	0.65878 0.53760 0.00051 0.01900
H 	H 	0.93312 0.71085 0.00085 0.06400
H 	H 	0.72333 0.68211 0.00573 0.05400
N 	N 	0.87792 0.55961 0.99199 -0.21200
H 	H 	0.85317 0.49954 0.98676 0.09100
H 	H 	0.93558 0.59640 0.99234 0.08700
C 	C 	0.88295 0.22251 0.00006 0.05600
C 	C 	0.88022 0.24241 0.96635 -0.08600
C 	C 	0.84356 0.27790 0.96062 0.04700
C 	C 	0.81210 0.29737 0.98863 -0.14100
C 	C 	0.82395 0.28756 0.02270 0.13900
C 	C 	0.85443 0.24505 0.02820 -0.12000
H 	H 	0.83755 0.28786 0.93432 0.03300
H 	H 	0.85737 0.23118 0.05436 0.06200
H 	H 	0.90486 0.22857 0.94450 0.05300
N 	N 	0.81115 0.32338 0.04976 -0.20800
H 	H 	0.80094 0.36601 0.04566 0.06600
H 	H 	0.81708 0.31342 0.07506 0.09000
H 	H 	0.53585 0.40848 0.00556 0.09500
