data_crystal

_cell_length_a 13.99754
_cell_length_b 15.13019
_cell_length_c 52.26151
_cell_angle_alpha 90.20445
_cell_angle_beta  90.21600
_cell_angle_gamma 119.39288

_symmetry_space_group_name_	'P 1'
_symmetry_space_group_name_H-M	'P 1'

loop_
_symmetry_equiv_pos_as_xyz
  x,y,z

loop_
_atom_site_label
_atom_site_type_symbol
_atom_site_fract_x
_atom_site_fract_y
_atom_site_fract_z
_atom_site_charge
C 	C 	0.50624 0.65286 0.09164 0.32700
C 	C 	0.39339 0.56306 0.16382 0.28600
C 	C 	0.23624 0.70761 0.08058 0.33600
C 	C 	0.16590 0.68064 0.14999 0.28100
Ni	Ni	0.54253 0.77193 0.13955 1.11600
Ni	Ni	0.29922 0.60873 0.11780 1.11900
Ni	Ni	0.36027 0.83892 0.12489 1.12500
O 	O 	0.29830 0.66751 0.08400 -0.40800
O 	O 	0.57944 0.72616 0.10581 -0.38000
O 	O 	0.41549 0.58067 0.10202 -0.36800
O 	O 	0.23990 0.77818 0.14984 -0.38300
O 	O 	0.47581 0.88477 0.09804 -0.39200
O 	O 	0.16427 0.61439 0.13234 -0.37600
O 	O 	0.49430 0.62828 0.15571 -0.35900
O 	O 	0.30569 0.53481 0.14911 -0.37900
O 	O 	0.24263 0.77682 0.09689 -0.37600
O 	O 	0.39485 0.73459 0.13312 -0.71400
H 	H 	0.36653 0.71801 0.15066 0.15700
C 	C 	0.06000 0.85986 0.22044 0.28600
C 	C 	0.22378 0.17866 0.30242 0.30800
C 	C 	0.10688 0.86488 0.28930 0.30900
C 	C 	0.20581 0.23525 0.23389 0.28500
Ni	Ni	0.19754 0.04924 0.25616 1.11000
O 	O 	0.15864 0.92790 0.22990 -0.35800
O 	O 	0.27360 0.17242 0.28174 -0.36500
O 	O 	0.11735 0.12648 0.30371 -0.39100
O 	O 	0.18107 0.96048 0.28751 -0.37600
O 	O 	0.02474 0.82345 0.27282 -0.38500
O 	O 	0.22293 0.15786 0.22886 -0.37200
O 	O 	0.15995 0.23985 0.25591 -0.37400
O 	O 	0.05234 0.02545 0.25700 -0.72300
C 	C 	0.37869 0.50267 0.18706 -0.06900
C 	C 	0.30207 0.49755 0.20505 -0.02400
C 	C 	0.24020 0.40913 0.21926 0.03700
C 	C 	0.26673 0.32984 0.21843 -0.06700
C 	C 	0.35499 0.34213 0.20305 -0.02400
C 	C 	0.40947 0.42688 0.18713 0.03800
S 	S 	0.12291 0.39504 0.23528 -0.04800
S 	S 	0.51299 0.43489 0.16665 -0.02600
H 	H 	0.46775 0.39221 0.14342 0.04600
H 	H 	0.15119 0.43230 0.25972 0.03800
H 	H 	0.28101 0.55757 0.20569 0.04100
H 	H 	0.37991 0.28471 0.20299 0.05200
C 	C 	0.05048 0.77650 0.20358 -0.08200
C 	C 	0.99775 0.75961 0.17968 0.00500
C 	C 	0.00397 0.69223 0.16207 0.01500
C 	C 	0.07360 0.65188 0.16737 -0.06100
C 	C 	0.09514 0.64381 0.19320 -0.03200
C 	C 	0.09123 0.71133 0.21117 0.04400
S 	S 	0.94177 0.67427 0.13183 -0.01200
S 	S 	0.13518 0.71171 0.24273 -0.03400
H 	H 	0.01375 0.74584 0.11528 0.04200
H 	H 	0.95606 0.80131 0.17445 0.04500
H 	H 	0.13322 0.59901 0.19843 0.04200
H 	H 	0.27779 0.37355 0.29504 0.04700
C 	C 	0.12974 0.80055 0.30653 -0.07800
C 	C 	0.23635 0.81401 0.30707 -0.01800
H 	H 	0.29159 0.85240 0.29136 0.04400
H 	H 	0.04207 0.33457 0.01700 0.06200
C 	C 	0.04351 0.57331 0.07657 -0.05000
C 	C 	0.13726 0.65037 0.06477 -0.12800
C 	C 	0.14924 0.64477 0.03817 0.19800
C 	C 	0.07683 0.55681 0.02452 -0.12600
H 	H 	0.02989 0.57888 0.09668 0.06400
O 	O 	0.23431 0.72352 0.02567 -0.29400
H 	H 	0.29525 0.70776 0.02599 0.15400
C 	C 	0.35805 0.10403 0.00821 -0.02800
O 	O 	0.33714 0.99018 0.04244 -0.26500
H 	H 	0.37253 0.95319 0.03499 0.15400
C 	C 	0.58321 0.72583 0.04970 -0.03100
C 	C 	0.53972 0.64081 0.06579 -0.12200
C 	C 	0.56366 0.56239 0.06078 0.19700
H 	H 	0.56488 0.78655 0.05335 0.06000
O 	O 	0.51815 0.47641 0.07544 -0.29100
H 	H 	0.57143 0.49022 0.08954 0.15500
C 	C 	0.63679 0.57304 0.04117 -0.11600
C 	C 	0.39055 0.08557 0.03210 0.11600
C 	C 	0.66241 0.74010 0.03142 0.11400
H 	H 	0.65551 0.51271 0.03776 0.09900
C 	C 	0.50848 0.91088 0.17300 0.29200
C 	C 	0.57735 0.94451 0.10455 0.32900
O 	O 	0.51968 0.82970 0.17299 -0.37900
O 	O 	0.46917 0.93586 0.15248 -0.35200
O 	O 	0.61936 0.92080 0.12435 -0.36200
S 	S 	0.42342 0.90663 0.22963 -0.03000
H 	H 	0.40150 0.97903 0.23931 0.03000
C 	C 	0.47866 0.16558 0.04521 0.00700
C 	C 	0.68832 0.66258 0.02663 0.01200
O 	O 	0.71713 0.83123 0.01900 -0.27300
H 	H 	0.04154 0.03651 0.23887 0.16300
H 	H 	0.51799 0.20271 0.09637 0.07400
C 	C 	0.57692 0.98955 0.19152 -0.05500
C 	C 	0.55765 0.96488 0.21761 0.02900
C 	C 	0.51118 0.26531 0.03774 -0.10800
C 	C 	0.48134 0.28307 0.01339 0.19100
C 	C 	0.55155 0.14457 0.06177 0.00400
O 	O 	0.52751 0.37999 0.00418 -0.28800
H 	H 	0.56285 0.32829 0.05015 0.07800
C 	C 	0.60975 0.09845 0.05149 0.11800
C 	C 	0.65590 0.05635 0.06799 -0.03100
C 	C 	0.63063 0.04769 0.09409 -0.13000
C 	C 	0.59981 0.11629 0.10441 0.18700
C 	C 	0.55487 0.16064 0.08825 -0.11300
O 	O 	0.61715 0.09032 0.02552 -0.26900
H 	H 	0.69253 0.01387 0.05996 0.05500
O 	O 	0.59900 0.12870 0.13034 -0.29200
H 	H 	0.47335 0.40258 0.00785 0.15400
H 	H 	0.55756 0.02161 0.02081 0.14700
H 	H 	0.78199 0.87401 0.02990 0.15400
C 	C 	0.68512 0.05587 0.18407 -0.03700
C 	C 	0.64393 0.97446 0.23322 -0.00900
H 	H 	0.70118 0.08360 0.16464 0.06200
H 	H 	0.62784 0.94636 0.25267 0.04900
S 	S 	0.64678 0.77252 0.29069 -0.04600
H 	H 	0.69179 0.71322 0.28403 0.02800
H 	H 	0.66973 0.19028 0.13434 0.15100
O 	O 	0.87532 0.62726 0.03134 -0.26400
H 	H 	0.94496 0.69199 0.03350 0.15600
C 	C 	0.77241 0.06531 0.19923 0.04100
C 	C 	0.75051 0.01758 0.22333 -0.07800
H 	H 	0.74106 0.37665 0.04603 0.16000
O 	O 	0.76717 0.40904 0.02917 -0.26600
C 	C 	0.83876 0.01721 0.23867 0.28400
O 	O 	0.82115 0.92983 0.24943 -0.37000
C 	C 	0.86918 0.95482 0.30650 0.32200
O 	O 	0.89105 0.04084 0.29556 -0.38500
S 	S 	0.90636 0.12798 0.18678 -0.03500
C 	C 	0.81057 0.35519 0.01780 0.13200
O 	O 	0.92343 0.10641 0.24513 -0.38100
O 	O 	0.91419 0.90281 0.29824 -0.39700
H 	H 	0.95679 0.22838 0.19366 0.04800
C 	C 	0.91933 0.37967 0.02295 -0.00400
O 	O 	0.89636 0.40153 0.07659 -0.28000
Ni	Ni	0.93679 0.89144 0.26111 1.12400
H 	H 	0.93215 0.36313 0.08292 0.14500
H 	H 	0.04849 0.64350 0.25700 0.04200
C 	C 	0.96057 0.32051 0.01199 -0.09800
Ni	Ni	0.02580 0.12342 0.27370 1.11800
C 	C 	0.97634 0.48240 0.06353 0.13100
O 	O 	0.97048 0.86558 0.22536 -0.37600
C 	C 	0.99313 0.47357 0.03735 0.01700
C 	C 	0.83613 0.63310 0.00769 0.12800
H 	H 	0.08756 0.55240 0.00412 0.07300
C 	C 	0.76240 0.67104 0.00510 0.00800
C 	C 	0.28616 0.35583 0.31472 -0.02600
H 	H 	0.38474 0.59729 0.31426 0.03700
C 	C 	0.28128 0.26320 0.32043 -0.08000
C 	C 	0.68813 0.81902 0.32204 0.04100
S 	S 	0.28883 0.53293 0.32628 -0.03100
C 	C 	0.05640 0.74530 0.32618 0.03300
C 	C 	0.27512 0.78569 0.32850 0.03600
S 	S 	0.91763 0.71391 0.32459 -0.02800
S 	S 	0.41066 0.80734 0.32814 -0.03100
C 	C 	0.78587 0.91112 0.32658 -0.08600
C 	C 	0.29029 0.42083 0.33439 0.03500
H 	H 	0.48012 0.90134 0.33819 0.04600
H 	H 	0.54759 0.69310 0.33896 0.04900
H 	H 	0.90238 0.78158 0.33907 0.05000
C 	C 	0.62198 0.76404 0.34255 -0.02500
C 	C 	0.29724 0.24279 0.34583 0.04000
C 	C 	0.09399 0.71549 0.34752 -0.02400
C 	C 	0.20471 0.73969 0.34959 -0.07100
C 	C 	0.81457 0.94783 0.35168 -0.01000
S 	S 	0.30380 0.13245 0.35326 -0.03500
H 	H 	0.89191 0.01614 0.35538 0.04300
H 	H 	0.19981 0.05323 0.35670 0.04500
C 	C 	0.29448 0.39493 0.36019 -0.07100
C 	C 	0.30303 0.30800 0.36557 -0.02400
H 	H 	0.03748 0.67598 0.36292 0.05200
C 	C 	0.64844 0.80246 0.36751 -0.07300
C 	C 	0.74815 0.89290 0.37221 0.03200
C 	C 	0.24332 0.71550 0.37386 0.30000
C 	C 	0.29257 0.45824 0.38171 0.30100
O 	O 	0.16928 0.65513 0.39027 -0.37300
O 	O 	0.34784 0.76787 0.38070 -0.37500
O 	O 	0.22263 0.49291 0.38130 -0.37000
H 	H 	0.31042 0.28918 0.38520 0.05600
C 	C 	0.56563 0.75557 0.38779 0.30400
O 	O 	0.51281 0.65599 0.39053 -0.38500
O 	O 	0.34201 0.45946 0.40316 -0.37900
O 	O 	0.55044 0.81461 0.40384 -0.38100
S 	S 	0.79646 0.93209 0.40368 -0.00800
H 	H 	0.85410 0.88543 0.41156 0.04500
Ni	Ni	0.18925 0.55493 0.41360 1.11200
Ni	Ni	0.40322 0.78313 0.41757 1.12000
Ni	Ni	0.43569 0.58825 0.42320 1.12200
O 	O 	0.33683 0.64046 0.42275 -0.71200
O 	O 	0.26584 0.78409 0.42976 -0.38100
O 	O 	0.18291 0.43861 0.43648 -0.36000
O 	O 	0.54881 0.70472 0.44454 -0.36900
O 	O 	0.14559 0.62184 0.44316 -0.36000
H 	H 	0.32635 0.64099 0.44132 0.14100
C 	C 	0.20069 0.72160 0.44743 0.30800
C 	C 	0.24674 0.45565 0.45685 0.30100
O 	O 	0.35594 0.50565 0.45472 -0.37300
O 	O 	0.47027 0.80522 0.45328 -0.38100
H 	H 	0.20889 0.90014 0.45995 0.06000
O 	O 	0.01178 0.32059 0.46612 -0.29000
H 	H 	0.98930 0.36665 0.45793 0.16100
C 	C 	0.52465 0.75783 0.46092 0.30200
C 	C 	0.20275 0.76224 0.47326 -0.12600
O 	O 	0.72129 0.75047 0.47565 -0.28000
C 	C 	0.22049 0.86162 0.47611 -0.03300
H 	H 	0.78394 0.82032 0.47745 0.15800
C 	C 	0.19609 0.42387 0.48269 -0.10800
H 	H 	0.28302 0.63662 0.48720 0.14000
C 	C 	0.08094 0.37591 0.48575 0.20100
C 	C 	0.56490 0.76836 0.48765 -0.11600
O 	O 	0.20744 0.62017 0.49184 -0.29300
H 	H 	0.35991 0.05512 0.49449 0.14400
C 	C 	0.64714 0.74333 0.49375 0.19600
C 	C 	0.26320 0.91464 0.49916 0.11700
C 	C 	0.21362 0.71225 0.49468 0.19000
O 	O 	0.28514 0.01323 0.50147 -0.26900
C 	C 	0.26304 0.46177 0.50455 -0.03700
H 	H 	0.35101 0.49790 0.50269 0.06000
C 	C 	0.50648 0.78112 0.50771 -0.03700
H 	H 	0.45821 0.81786 0.50426 0.05700
C 	C 	0.03674 0.38355 0.50925 -0.11400
H 	H 	0.46773 0.44720 0.51558 0.15200
H 	H 	0.49727 0.00736 0.51499 0.07100
H 	H 	0.94863 0.34876 0.51131 0.09600
H 	H 	0.01047 0.60193 0.51733 0.15100
C 	C 	0.64901 0.70544 0.51804 -0.10400
C 	C 	0.24637 0.76221 0.51821 -0.11800
C 	C 	0.28330 0.86624 0.51978 0.00900
O 	O 	0.53880 0.49438 0.52376 -0.27500
H 	H 	0.70639 0.67865 0.52213 0.09000
O 	O 	0.96528 0.52876 0.52114 -0.26500
C 	C 	0.10660 0.44160 0.52938 0.01700
C 	C 	0.21919 0.47194 0.52771 0.12200
H 	H 	0.25614 0.72288 0.53437 0.06400
C 	C 	0.56968 0.69347 0.53610 0.01000
C 	C 	0.51386 0.74913 0.53250 0.11300
C 	C 	0.46961 0.99693 0.53465 -0.10300
H 	H 	0.30523 0.58946 0.54713 0.14100
C 	C 	0.36033 0.92642 0.54052 0.00500
C 	C 	0.51410 0.51171 0.54801 0.12400
O 	O 	0.64728 0.12874 0.54797 -0.28400
H 	H 	0.64260 0.19079 0.54428 0.15300
C 	C 	0.99205 0.51824 0.54579 0.13500
O 	O 	0.28783 0.51792 0.54802 -0.28300
H 	H 	0.41331 0.74929 0.55689 0.13600
C 	C 	0.06423 0.47954 0.55075 -0.01000
O 	O 	0.49195 0.79267 0.55309 -0.27100
C 	C 	0.53033 0.60887 0.55518 0.00900
H 	H 	0.48060 0.36476 0.56123 0.05600
C 	C 	0.54259 0.05601 0.55407 0.19400
H 	H 	0.87634 0.55696 0.56233 0.06300
C 	C 	0.32831 0.90670 0.56627 0.12000
C 	C 	0.48356 0.43548 0.56646 -0.03400
C 	C 	0.94116 0.53926 0.56627 -0.04400
C 	C 	0.09611 0.47771 0.57625 -0.10700
O 	O 	0.22219 0.83767 0.57244 -0.27100
H 	H 	0.22295 0.77387 0.57629 0.14400
C 	C 	0.50782 0.62418 0.58053 -0.11000
C 	C 	0.50734 0.04273 0.57959 -0.11400
H 	H 	0.14903 0.44658 0.58086 0.08100
C 	C 	0.47541 0.45622 0.59220 -0.11400
H 	H 	0.52247 0.69795 0.58680 0.08800
C 	C 	0.40296 0.96271 0.58569 -0.02900
C 	C 	0.96046 0.52047 0.59149 -0.09500
C 	C 	0.55882 0.12829 0.59746 0.31500
C 	C 	0.05278 0.50917 0.59617 0.17400
C 	C 	0.47297 0.54566 0.59843 0.19900
O 	O 	0.50427 0.17699 0.60244 -0.38900
C 	C 	0.52127 0.41624 0.61123 0.31300
H 	H 	0.37602 0.95064 0.60542 0.05800
H 	H 	0.64971 0.33246 0.61443 0.17200
O 	O 	0.64328 0.13972 0.61203 -0.36000
O 	O 	0.82242 0.36095 0.60544 -0.37700
C 	C 	0.86437 0.46017 0.60739 0.30200
O 	O 	0.62403 0.47742 0.61832 -0.38200
O 	O 	0.45530 0.33061 0.62399 -0.37300
O 	O 	0.08944 0.51318 0.62077 -0.28900
H 	H 	0.37337 0.53911 0.62365 0.15500
O 	O 	0.45312 0.56267 0.62313 -0.28600
O 	O 	0.84290 0.50350 0.62756 -0.36200
Ni	Ni	0.49767 0.22618 0.63763 1.12100
O 	O 	0.64861 0.31799 0.63282 -0.71500
H 	H 	0.05074 0.44226 0.62700 0.15000
Ni	Ni	0.74659 0.26657 0.63545 1.11500
O 	O 	0.50547 0.10219 0.65119 -0.37300
Ni	Ni	0.69509 0.44810 0.64735 1.12300
H 	H 	0.60577 0.95161 0.65365 0.04900
S 	S 	0.29294 0.35667 0.66517 -0.02600
H 	H 	0.01032 0.60411 0.66056 0.05500
O 	O 	0.87222 0.37767 0.65858 -0.36600
H 	H 	0.87015 0.00591 0.66325 0.03900
H 	H 	0.28037 0.43779 0.67207 0.04400
O 	O 	0.56605 0.42821 0.66951 -0.36900
C 	C 	0.57999 0.11189 0.66818 0.31300
O 	O 	0.67503 0.19323 0.66864 -0.37800
S 	S 	0.00945 0.78880 0.67244 -0.04100
S 	S 	0.77966 0.92325 0.67290 -0.01200
O 	O 	0.49964 0.25933 0.67443 -0.39200
C 	C 	0.61514 0.97121 0.67383 -0.02200
H 	H 	0.11656 0.85886 0.67754 0.04500
C 	C 	0.50414 0.34307 0.68185 0.31300
O 	O 	0.74939 0.40790 0.67819 -0.38900
C 	C 	0.84679 0.41867 0.67768 0.31200
C 	C 	0.98161 0.59853 0.68002 -0.02000
C 	C 	0.31696 0.30360 0.69264 0.03200
C 	C 	0.56723 0.02657 0.68359 -0.08100
C 	C 	0.69549 0.96340 0.68826 0.03400
C 	C 	0.97221 0.67923 0.69073 0.04100
H 	H 	0.14715 0.18999 0.69662 0.04900
C 	C 	0.93175 0.50407 0.69224 -0.08200
C 	C 	0.22886 0.22213 0.70479 -0.02200
C 	C 	0.42462 0.33575 0.70106 -0.07700
C 	C 	0.56762 0.03837 0.71026 0.04000
C 	C 	0.71470 0.99746 0.71406 -0.07300
C 	C 	0.92650 0.66837 0.71538 -0.08200
C 	C 	0.91583 0.50364 0.71879 0.04100
C 	C 	0.24665 0.18088 0.72717 -0.07800
C 	C 	0.43933 0.31051 0.72607 -0.01800
S 	S 	0.48464 0.08217 0.72430 -0.03200
C 	C 	0.64659 0.03060 0.72516 -0.02300
O 	O 	0.79839 0.90208 0.72895 -0.37500
C 	C 	0.90630 0.74760 0.72658 0.30500
O 	O 	0.98918 0.83849 0.72974 -0.38100
C 	C 	0.79554 0.98666 0.73027 0.30300
C 	C 	0.90672 0.58343 0.73004 -0.02200
C 	C 	0.15312 0.09093 0.73889 0.30500
O 	O 	0.05686 0.08454 0.73868 -0.40100
C 	C 	0.35074 0.23246 0.73922 0.03700
H 	H 	0.52139 0.34293 0.73405 0.04700
H 	H 	0.38746 0.00125 0.73184 0.03700
O 	O 	0.81460 0.72077 0.73917 -0.36100
H 	H 	0.77329 0.32881 0.73537 0.04700
S 	S 	0.88391 0.39464 0.73676 -0.03700
O 	O 	0.16748 0.01971 0.75000 -0.38000
H 	H 	0.65706 0.05288 0.74506 0.05100
O 	O 	0.84507 0.05075 0.74946 -0.36900
H 	H 	0.88147 0.57812 0.74980 0.05300
Ni	Ni	0.78630 0.82183 0.76150 1.11400
Ni	Ni	0.04478 0.88861 0.76524 1.11500
Ni	Ni	0.97248 0.05704 0.77084 1.12400
S 	S 	0.36916 0.20751 0.77123 -0.02500
H 	H 	0.39302 0.13000 0.77241 0.04000
O 	O 	0.92930 0.91728 0.77186 -0.71100
H 	H 	0.58964 0.07794 0.78359 0.03400
O 	O 	0.72263 0.89941 0.78342 -0.36400
O 	O 	0.94966 0.74555 0.78043 -0.37000
H 	H 	0.78617 0.51936 0.79303 0.04600
H 	H 	0.92250 0.90779 0.79052 0.15800
O 	O 	0.10707 0.09489 0.79414 -0.37600
S 	S 	0.56136 0.98742 0.79521 -0.03600
C 	C 	0.86804 0.72025 0.79711 0.28600
O 	O 	0.78432 0.73479 0.79183 -0.37100
O 	O 	0.10408 0.94093 0.79980 -0.39700
C 	C 	0.77423 0.96277 0.80300 0.28800
O 	O 	0.87751 0.03588 0.80136 -0.38200
C 	C 	0.79356 0.54596 0.81262 -0.02200
C 	C 	0.12373 0.03033 0.80865 0.28400
S 	S 	0.64329 0.34953 0.82338 -0.02900
H 	H 	0.69952 0.29679 0.82469 0.04300
C 	C 	0.64459 0.01127 0.82242 0.03400
C 	C 	0.85308 0.65020 0.81791 -0.06900
H 	H 	0.26460 0.97127 0.82551 0.05000
C 	C 	0.71174 0.96661 0.82512 -0.06900
C 	C 	0.19134 0.06649 0.83228 -0.06800
H 	H 	0.59313 0.11086 0.83941 0.04500
C 	C 	0.73221 0.47733 0.83178 0.04000
C 	C 	0.25462 0.02068 0.83901 -0.02700
C 	C 	0.64101 0.07287 0.84200 -0.02300
C 	C 	0.86282 0.68417 0.84344 0.03400
S 	S 	0.09142 0.18035 0.84440 -0.04600
C 	C 	0.75268 0.96451 0.84957 -0.02100
C 	C 	0.17759 0.12854 0.85050 0.03400
H 	H 	0.43489 0.96455 0.86365 0.04700
C 	C 	0.73718 0.51209 0.85714 -0.07900
H 	H 	0.04879 0.83251 0.85721 0.03800
H 	H 	0.79881 0.92495 0.85233 0.04500
S 	S 	0.94509 0.81355 0.85116 -0.02600
C 	C 	0.29724 0.03114 0.86365 0.04000
H 	H 	0.98753 0.11360 0.85230 0.04900
C 	C 	0.69661 0.08365 0.86517 -0.07800
C 	C 	0.80441 0.61532 0.86285 -0.02000
S 	S 	0.33769 0.94445 0.87448 -0.03700
C 	C 	0.74786 0.02473 0.86944 0.03300
C 	C 	0.68858 0.43935 0.87821 0.31000
C 	C 	0.29820 0.10450 0.88018 -0.07800
C 	C 	0.23303 0.14886 0.87411 -0.01700
O 	O 	0.71197 0.36626 0.88014 -0.39000
C 	C 	0.68511 0.14347 0.88598 0.31000
H 	H 	0.81254 0.64189 0.88245 0.06100
H 	H 	0.22955 0.20273 0.88728 0.04200
O 	O 	0.58703 0.11658 0.89443 -0.39800
O 	O 	0.77244 0.22356 0.89539 -0.37800
C 	C 	0.39045 0.15809 0.89807 0.30800
O 	O 	0.45369 0.25552 0.89523 -0.37900
O 	O 	0.63860 0.45771 0.89710 -0.37000
Ni	Ni	0.77106 0.34306 0.91295 1.12100
S 	S 	0.80696 0.02619 0.89937 -0.02000
H 	H 	0.91359 0.10312 0.89995 0.04500
H 	H 	0.68723 0.64228 0.93036 0.15300
O 	O 	0.40535 0.10988 0.91736 -0.37000
Ni	Ni	0.54654 0.34862 0.92470 1.11400
O 	O 	0.76377 0.69309 0.93494 -0.28600
O 	O 	0.80867 0.48410 0.92785 -0.36800
Ni	Ni	0.55705 0.14004 0.93035 1.12200
O 	O 	0.63039 0.28350 0.92866 -0.71700
O 	O 	0.69350 0.14474 0.94671 -0.36700
O 	O 	0.83596 0.31030 0.94285 -0.38700
C 	C 	0.78138 0.66769 0.95901 0.19600
C 	C 	0.76029 0.50225 0.94778 0.30600
H 	H 	0.65179 0.29921 0.94676 0.15600
O 	O 	0.43479 0.25501 0.95287 -0.36400
H 	H 	0.69389 0.73283 0.97782 0.08700
O 	O 	0.65273 0.45142 0.95097 -0.37300
C 	C 	0.81932 0.59780 0.96208 -0.11100
C 	C 	0.77732 0.22887 0.95684 0.30300
C 	C 	0.45671 0.20463 0.97077 0.31500
O 	O 	0.50114 0.14738 0.96508 -0.38300
C 	C 	0.74429 0.69754 0.98048 -0.10700
O 	O 	0.94286 0.19448 0.98136 -0.28200
H 	H 	0.98916 0.23834 0.96731 0.15500
C 	C 	0.86335 0.59485 0.98601 -0.03000
C 	C 	0.79920 0.23807 0.98444 -0.10800
H 	H 	0.67046 0.27166 0.99355 0.06400
H 	H 	0.90561 0.55164 0.98834 0.06300
C 	C 	0.89968 0.24829 0.99303 0.19100
H 	H 	0.29837 0.04085 0.99682 0.05900
C 	C 	0.74998 0.28260 0.99906 -0.03400
C 	C 	0.41864 0.20030 0.99709 -0.12000
