data_crystal

_cell_length_a 26.23506
_cell_length_b 26.52560
_cell_length_c 34.96849
_cell_angle_alpha 95.48336
_cell_angle_beta  95.48228
_cell_angle_gamma 125.83276

_symmetry_space_group_name_	'P 1'
_symmetry_space_group_name_H-M	'P 1'

loop_
_symmetry_equiv_pos_as_xyz
  x,y,z

loop_
_atom_site_label
_atom_site_type_symbol
_atom_site_fract_x
_atom_site_fract_y
_atom_site_fract_z
_atom_site_charge
C 	C 	0.97646 0.05000 0.00264 0.03400
C 	C 	0.93678 0.98389 0.99805 -0.06600
C 	C 	0.96297 0.95076 0.99543 0.04000
C 	C 	0.02898 0.98366 0.99777 -0.06800
C 	C 	0.06897 0.04979 0.00253 0.03300
C 	C 	0.04273 0.08311 0.00518 -0.07000
H 	H 	0.88552 0.95825 0.99592 0.06000
H 	H 	0.04913 0.95784 0.99552 0.06000
H 	H 	0.07351 0.13427 0.00858 0.05900
C 	C 	0.92532 0.98107 0.45532 0.06800
C 	C 	0.88985 0.91531 0.45292 -0.08400
C 	C 	0.92149 0.88743 0.45683 0.05000
C 	C 	0.98852 0.92543 0.46353 -0.07600
C 	C 	0.02402 0.99104 0.46597 0.06300
C 	C 	0.99241 0.01884 0.46188 -0.09800
H 	H 	0.83799 0.88601 0.44778 0.06400
H 	H 	0.01300 0.90392 0.46654 0.06400
H 	H 	0.01987 0.06962 0.46370 0.06300
Cu	Cu	0.65787 0.27578 0.00890 0.92700
Cu	Cu	0.68254 0.24222 0.92291 0.87700
Cu	Cu	0.67000 0.35634 0.94871 0.91200
Cu	Cu	0.64393 0.38568 0.02564 0.89700
C 	C 	0.67897 0.33574 0.08844 0.28700
O 	O 	0.56388 0.23017 0.01240 -0.35000
C 	C 	0.68389 0.32316 0.87384 0.28400
O 	O 	0.69704 0.36979 0.00390 -0.64000
O 	O 	0.63777 0.26740 0.95130 -0.63000
O 	O 	0.71406 0.24741 0.01237 -0.36100
O 	O 	0.66976 0.18185 0.95295 -0.41900
O 	O 	0.64555 0.35556 0.07573 -0.37900
O 	O 	0.70753 0.44397 0.94784 -0.37300
C 	C 	0.70555 0.48143 0.97433 0.29000
C 	C 	0.53138 0.24929 0.99730 0.28200
O 	O 	0.56191 0.30397 0.98584 -0.39200
O 	O 	0.66726 0.45885 0.00007 -0.38200
O 	O 	0.68731 0.30047 0.06447 -0.35600
C 	C 	0.70539 0.20122 0.98768 0.29100
O 	O 	0.65366 0.34032 0.89229 -0.37400
O 	O 	0.71918 0.31068 0.89374 -0.42400
H 	H 	0.74354 0.40259 0.01346 0.16800
H 	H 	0.59129 0.23727 0.94068 0.16400
Cu	Cu	0.71615 0.31307 0.44589 0.92800
Cu	Cu	0.73739 0.27726 0.53037 0.87400
Cu	Cu	0.62836 0.28131 0.50587 0.89800
Cu	Cu	0.58858 0.30196 0.42753 0.90100
C 	C 	0.66335 0.30304 0.36781 0.28300
O 	O 	0.75242 0.40428 0.44387 -0.36300
C 	C 	0.69149 0.31452 0.58897 0.28300
O 	O 	0.61866 0.26045 0.45047 -0.63700
O 	O 	0.72125 0.32798 0.50317 -0.64000
O 	O 	0.76291 0.27487 0.44322 -0.36100
O 	O 	0.71201 0.21306 0.48738 -0.43500
O 	O 	0.60884 0.29064 0.37515 -0.37200
O 	O 	0.53695 0.23072 0.50445 -0.37600
C 	C 	0.49702 0.23393 0.48077 0.29100
C 	C 	0.72210 0.42775 0.45337 0.28700
O 	O 	0.66660 0.39187 0.46404 -0.37900
O 	O 	0.51766 0.27525 0.45707 -0.37900
O 	O 	0.69505 0.28873 0.39014 -0.35800
C 	C 	0.74640 0.22627 0.45992 0.29000
O 	O 	0.63801 0.28850 0.56331 -0.38200
O 	O 	0.74190 0.32161 0.57832 -0.41300
H 	H 	0.59217 0.21435 0.44020 0.16800
H 	H 	0.74743 0.37313 0.51589 0.17700
C 	C 	0.68693 0.32810 0.83236 -0.07600
C 	C 	0.74358 0.34909 0.81868 0.00500
C 	C 	0.74615 0.35177 0.77916 -0.05200
C 	C 	0.69217 0.33513 0.75265 0.00700
C 	C 	0.63395 0.31048 0.76616 0.00900
C 	C 	0.63232 0.30918 0.80612 -0.01700
C 	C 	0.57735 0.28439 0.73937 -0.03800
C 	C 	0.57736 0.28014 0.69929 -0.03900
C 	C 	0.63471 0.30570 0.68543 0.01200
C 	C 	0.69325 0.33747 0.71221 0.00600
C 	C 	0.75114 0.37226 0.69805 -0.05000
C 	C 	0.75037 0.36666 0.65783 0.00300
C 	C 	0.69204 0.32826 0.63112 -0.06900
C 	C 	0.63428 0.30011 0.64502 -0.01900
H 	H 	0.78560 0.36254 0.83862 0.03800
H 	H 	0.78885 0.36327 0.76910 0.04500
H 	H 	0.58800 0.29128 0.81653 0.04200
H 	H 	0.53268 0.26527 0.74953 0.04300
H 	H 	0.53264 0.25734 0.67897 0.04400
H 	H 	0.79645 0.40560 0.71781 0.04600
H 	H 	0.79528 0.39226 0.64743 0.04000
H 	H 	0.58910 0.27283 0.62453 0.05200
C 	C 	0.69432 0.34083 0.13103 -0.06400
C 	C 	0.70709 0.39227 0.15699 0.00500
C 	C 	0.71205 0.39279 0.19718 -0.04800
C 	C 	0.70112 0.34008 0.21183 0.00800
C 	C 	0.69666 0.29236 0.18627 0.01300
C 	C 	0.69211 0.29236 0.14591 -0.01500
C 	C 	0.69645 0.24508 0.20124 -0.03700
C 	C 	0.69804 0.24320 0.24104 -0.03700
C 	C 	0.69573 0.28608 0.26616 0.01300
C 	C 	0.69548 0.33406 0.25155 0.00800
C 	C 	0.68370 0.37067 0.27576 -0.04700
C 	C 	0.67638 0.36225 0.31419 0.00400
C 	C 	0.67863 0.31618 0.32891 -0.06200
C 	C 	0.68945 0.27892 0.30513 -0.01400
H 	H 	0.71316 0.43195 0.14599 0.03500
H 	H 	0.72689 0.43510 0.21669 0.04700
H 	H 	0.68494 0.25379 0.12609 0.05500
H 	H 	0.69516 0.20965 0.18199 0.04700
H 	H 	0.69843 0.20660 0.25210 0.04600
H 	H 	0.67608 0.40269 0.26443 0.04700
H 	H 	0.66693 0.39040 0.33225 0.04000
H 	H 	0.68974 0.24229 0.31628 0.05200
C 	C 	0.83046 0.72651 0.48533 -0.01900
C 	C 	0.82944 0.68964 0.45295 0.00600
C 	C 	0.85359 0.71662 0.42046 -0.03800
C 	C 	0.88076 0.78048 0.42057 -0.01500
C 	C 	0.88455 0.81815 0.45371 -0.00400
C 	C 	0.85823 0.79057 0.48561 -0.03200
C 	C 	0.80276 0.62249 0.45266 0.02900
C 	C 	0.74076 0.57458 0.43198 -0.06200
C 	C 	0.71455 0.51080 0.43120 0.02900
C 	C 	0.75029 0.49454 0.45198 -0.08500
C 	C 	0.81286 0.54247 0.47200 0.01600
C 	C 	0.83934 0.60629 0.47234 -0.04300
C 	C 	0.65187 0.46235 0.40792 0.05900
C 	C 	0.90403 0.65486 0.49288 0.09500
C 	C 	0.80354 0.69904 0.51845 0.08800
C 	C 	0.90464 0.80708 0.38659 0.08500
N 	N 	0.60168 0.42354 0.38927 -0.12300
N 	N 	0.95585 0.69382 0.50934 -0.11200
N 	N 	0.92379 0.82846 0.35940 -0.10700
N 	N 	0.78197 0.67698 0.54497 -0.10900
H 	H 	0.86067 0.81936 0.51098 0.05100
H 	H 	0.85165 0.68795 0.39523 0.05100
H 	H 	0.71304 0.58701 0.41630 0.05700
H 	H 	0.84066 0.53011 0.48766 0.03800
C 	C 	0.74876 0.08585 0.43735 -0.04000
C 	C 	0.81507 0.11524 0.44420 0.02500
C 	C 	0.85858 0.18149 0.45169 -0.06100
C 	C 	0.83667 0.21861 0.45476 0.02400
C 	C 	0.77030 0.18915 0.45001 -0.08800
C 	C 	0.72676 0.12288 0.44037 0.01200
C 	C 	0.83946 0.07713 0.44648 0.00900
C 	C 	0.85713 0.06108 0.41348 -0.04400
C 	C 	0.88338 0.02791 0.41568 -0.00700
C 	C 	0.89227 0.01071 0.45131 -0.02000
C 	C 	0.87311 0.02538 0.48401 -0.02800
C 	C 	0.84692 0.05857 0.48183 -0.02400
C 	C 	0.90124 0.01185 0.38135 0.07100
C 	C 	0.82846 0.07403 0.51607 0.08400
C 	C 	0.70307 0.01772 0.42802 0.08200
C 	C 	0.88269 0.28671 0.46450 0.06500
N 	N 	0.91560 0.99895 0.35387 -0.09900
N 	N 	0.81364 0.08645 0.54348 -0.11700
N 	N 	0.91959 0.34126 0.47231 -0.11200
N 	N 	0.66650 0.96312 0.42056 -0.10500
H 	H 	0.67573 0.10011 0.43623 0.03700
H 	H 	0.90959 0.20411 0.45643 0.05500
H 	H 	0.85093 0.07489 0.38621 0.05200
H 	H 	0.87969 0.01194 0.51136 0.04500
C 	C 	0.19075 0.08425 0.44337 -0.02200
C 	C 	0.22783 0.09733 0.48001 0.00800
C 	C 	0.19819 0.07808 0.51243 -0.04100
C 	C 	0.13179 0.04482 0.50845 -0.01200
C 	C 	0.09451 0.03042 0.47159 -0.01500
C 	C 	0.12437 0.05085 0.43936 -0.02900
C 	C 	0.29791 0.13148 0.48466 0.02500
C 	C 	0.33869 0.19752 0.49615 -0.06100
C 	C 	0.40453 0.23140 0.49695 0.02900
C 	C 	0.42992 0.19894 0.48581 -0.08000
C 	C 	0.38962 0.13262 0.47646 0.00900
C 	C 	0.32376 0.09873 0.47579 -0.03800
C 	C 	0.44582 0.29931 0.50975 0.07800
C 	C 	0.28286 0.03049 0.46531 0.08300
C 	C 	0.22047 0.10459 0.40974 0.08700
C 	C 	0.10227 0.02583 0.54229 0.07800
N 	N 	0.47890 0.35371 0.52000 -0.10600
N 	N 	0.25003 0.97582 0.45690 -0.10500
N 	N 	0.07856 0.01059 0.56938 -0.11300
N 	N 	0.24435 0.12091 0.38282 -0.11100
H 	H 	0.09573 0.03994 0.41104 0.04900
H 	H 	0.22682 0.08875 0.54070 0.05000
H 	H 	0.31895 0.22258 0.50380 0.05600
H 	H 	0.40924 0.10753 0.46855 0.03400
C 	C 	0.86931 0.78604 0.01770 -0.01700
C 	C 	0.84626 0.74888 0.97986 0.00400
C 	C 	0.85951 0.77806 0.94709 -0.03700
C 	C 	0.89678 0.84405 0.95180 -0.01500
C 	C 	0.92104 0.88125 0.98969 -0.00300
C 	C 	0.90662 0.85200 0.02240 -0.03300
C 	C 	0.80977 0.67946 0.97441 0.02900
C 	C 	0.74292 0.64151 0.96974 -0.06200
C 	C 	0.70788 0.57618 0.96816 0.03000
C 	C 	0.74019 0.54858 0.97171 -0.08100
C 	C 	0.80675 0.58616 0.97441 0.01200
C 	C 	0.84170 0.65141 0.97581 -0.04300
C 	C 	0.63884 0.53767 0.96193 0.07800
C 	C 	0.91041 0.68949 0.97935 0.09300
C 	C 	0.85532 0.75677 0.05181 0.08700
C 	C 	0.91019 0.87336 0.91770 0.08700
N 	N 	0.58354 0.50684 0.95693 -0.10700
N 	N 	0.96546 0.72006 0.98219 -0.11300
N 	N 	0.92100 0.89694 0.89042 -0.10400
N 	N 	0.84408 0.73327 0.07910 -0.11100
H 	H 	0.92502 0.88070 0.05153 0.05000
H 	H 	0.84138 0.74937 0.91798 0.05200
H 	H 	0.71833 0.66304 0.96788 0.05700
H 	H 	0.83149 0.56478 0.97642 0.03500
C 	C 	0.89849 0.12297 0.03859 -0.01900
C 	C 	0.87287 0.12785 0.00303 0.00600
C 	C 	0.88739 0.11364 0.96790 -0.03900
C 	C 	0.92465 0.09173 0.96772 -0.01900
C 	C 	0.94783 0.08403 0.00306 0.00100
C 	C 	0.93589 0.10116 0.03842 -0.03700
C 	C 	0.82989 0.14687 0.00214 0.03000
C 	C 	0.85583 0.21077 0.00398 -0.06500
C 	C 	0.81574 0.22932 0.00017 0.03100
C 	C 	0.74867 0.18345 0.99493 -0.09400
C 	C 	0.72283 0.11964 0.99387 0.01500
C 	C 	0.76305 0.10113 0.99751 -0.04400
C 	C 	0.84362 0.29511 0.99998 0.05600
C 	C 	0.73543 0.03509 0.99612 0.08400
C 	C 	0.88558 0.13907 0.07522 0.08600
C 	C 	0.93764 0.07574 0.93107 0.08500
N 	N 	0.86595 0.34779 0.99982 -0.11900
N 	N 	0.71337 0.98221 0.99502 -0.10600
N 	N 	0.94803 0.06287 0.90173 -0.10500
N 	N 	0.87518 0.15197 0.10455 -0.11100
H 	H 	0.95397 0.09553 0.06564 0.04900
H 	H 	0.86858 0.11847 0.94062 0.04800
H 	H 	0.90725 0.24589 0.00756 0.05700
H 	H 	0.67137 0.08433 0.98981 0.03900
C 	C 	0.23989 0.11263 0.03788 -0.01900
C 	C 	0.26713 0.13400 0.00470 0.00700
C 	C 	0.22994 0.13064 0.97155 -0.03900
C 	C 	0.16571 0.10551 0.97105 -0.01800
C 	C 	0.13834 0.08382 0.00416 0.00100
C 	C 	0.17588 0.08816 0.03755 -0.03600
C 	C 	0.33543 0.16256 0.00499 0.03000
C 	C 	0.35234 0.12590 0.98725 -0.06300
C 	C 	0.41655 0.15312 0.98546 0.02500
C 	C 	0.46436 0.21765 0.00174 -0.08000
C 	C 	0.44744 0.25367 0.02043 0.01600
C 	C 	0.38338 0.22667 0.02190 -0.04300
C 	C 	0.43263 0.11509 0.96587 0.06900
C 	C 	0.36708 0.26525 0.04039 0.09400
C 	C 	0.27718 0.11517 0.07222 0.08600
C 	C 	0.12784 0.10096 0.93619 0.08400
N 	N 	0.44553 0.08464 0.95018 -0.11500
N 	N 	0.35396 0.29611 0.05519 -0.11300
N 	N 	0.09747 0.09728 0.90828 -0.10600
N 	N 	0.30710 0.11724 0.09972 -0.11000
H 	H 	0.15474 0.07109 0.06293 0.04800
H 	H 	0.25108 0.14756 0.94614 0.05000
H 	H 	0.31541 0.07647 0.97439 0.05500
H 	H 	0.48425 0.30311 0.03339 0.02800
