data_crystal

_cell_length_a 16.88996
_cell_length_b 15.88666
_cell_length_c 23.23557
_cell_angle_alpha 89.99255
_cell_angle_beta  90.00562
_cell_angle_gamma 100.71370

_symmetry_space_group_name_	'P 1'
_symmetry_space_group_name_H-M	'P 1'

loop_
_symmetry_equiv_pos_as_xyz
  x,y,z

loop_
_atom_site_label
_atom_site_type_symbol
_atom_site_fract_x
_atom_site_fract_y
_atom_site_fract_z
_atom_site_charge
Ni	Ni	0.35135 0.68250 0.82664 1.10100
O 	O 	0.31746 0.76358 0.76729 -0.70200
Ni	Ni	0.28888 0.68426 0.70042 1.09900
O 	O 	0.41547 0.77866 0.87618 -0.37000
O 	O 	0.48857 0.83695 0.79850 -0.40400
O 	O 	0.25100 0.68691 0.87712 -0.36300
Ni	Ni	0.39915 0.86107 0.74224 1.06800
O 	O 	0.25467 0.50570 0.86927 -0.40400
O 	O 	0.46221 0.82338 0.67330 -0.38800
O 	O 	0.27553 0.76858 0.63501 -0.38000
O 	O 	0.31003 0.60145 0.76294 -0.70200
O 	O 	0.37813 0.59279 0.88147 -0.37100
O 	O 	0.25063 0.58307 0.64664 -0.37400
O 	O 	0.15209 0.52284 0.70976 -0.40700
Ni	Ni	0.21368 0.52333 0.78789 1.06400
H 	H 	0.26863 0.78428 0.78023 0.15700
H 	H 	0.35185 0.56863 0.75133 0.15500
C 	C 	0.44917 0.74655 0.65012 0.28000
O 	O 	0.15808 0.62012 0.81257 -0.41600
C 	C 	0.47774 0.83146 0.85469 0.24400
C 	C 	0.29905 0.85311 0.63708 0.26600
C 	C 	0.17542 0.66053 0.86132 0.26600
C 	C 	0.18589 0.52552 0.65831 0.25000
C 	C 	0.33215 0.51590 0.88262 0.24800
O 	O 	0.40421 0.68216 0.67615 -0.39800
O 	O 	0.31772 0.89371 0.68638 -0.41400
Ni	Ni	0.67560 0.31375 0.30800 1.10000
O 	O 	0.71875 0.22600 0.25878 -0.70200
Ni	Ni	0.75436 0.29521 0.18798 1.09800
O 	O 	0.61100 0.22494 0.36221 -0.37200
O 	O 	0.54667 0.14633 0.28793 -0.40700
O 	O 	0.76888 0.31798 0.36588 -0.36800
Ni	Ni	0.64209 0.12244 0.23727 1.06700
O 	O 	0.76729 0.49300 0.34894 -0.40300
O 	O 	0.58211 0.15006 0.16418 -0.39300
O 	O 	0.77605 0.20205 0.13109 -0.37500
O 	O 	0.72410 0.38600 0.24202 -0.70100
O 	O 	0.64022 0.40967 0.35306 -0.37500
O 	O 	0.79998 0.38841 0.12884 -0.36300
O 	O 	0.88398 0.46236 0.19643 -0.40600
Ni	Ni	0.81537 0.46844 0.27046 1.06400
H 	H 	0.76640 0.20925 0.27712 0.15700
H 	H 	0.68369 0.41630 0.22477 0.15500
C 	C 	0.59671 0.22204 0.13472 0.28000
O 	O 	0.86821 0.37475 0.30368 -0.41600
C 	C 	0.55479 0.16258 0.34342 0.24900
C 	C 	0.74808 0.11866 0.13673 0.26600
C 	C 	0.84588 0.34202 0.35395 0.27000
C 	C 	0.85296 0.45672 0.14417 0.24600
C 	C 	0.68910 0.48403 0.36084 0.25100
O 	O 	0.64171 0.29084 0.15602 -0.39900
O 	O 	0.72742 0.08439 0.18764 -0.41700
C 	C 	0.04844 0.68942 0.97910 0.06600
C 	C 	0.03868 0.67570 0.03864 -0.08200
C 	C 	0.96390 0.63106 0.05820 0.01300
C 	C 	0.90681 0.58856 0.01980 0.07800
C 	C 	0.92162 0.59255 0.96028 -0.09000
C 	C 	0.98983 0.65003 0.94068 0.02100
N 	N 	0.12108 0.70624 0.95319 -0.15100
C 	C 	0.10935 0.67815 0.89832 -0.00100
C 	C 	0.02864 0.64222 0.88909 -0.05400
N 	N 	0.86025 0.52106 0.04582 -0.15300
C 	C 	0.88797 0.51998 0.10031 0.00000
C 	C 	0.95187 0.58734 0.10989 -0.05600
H 	H 	0.08853 0.69486 0.06807 0.05100
H 	H 	0.88409 0.54967 0.93082 0.05200
H 	H 	0.00751 0.59390 0.85690 0.04400
H 	H 	0.99686 0.58875 0.14328 0.04600
H 	H 	0.17607 0.71311 0.97500 0.09200
H 	H 	0.82701 0.46814 0.02445 0.09100
C 	C 	0.02452 0.46197 0.56429 0.06800
C 	C 	0.95048 0.41411 0.54625 -0.07700
C 	C 	0.93432 0.41275 0.48712 0.00700
C 	C 	0.99355 0.44482 0.44758 0.07900
C 	C 	0.07147 0.48178 0.46555 -0.09100
C 	C 	0.08318 0.49611 0.52471 0.01400
N 	N 	0.05807 0.45203 0.61558 -0.15200
C 	C 	0.13804 0.48315 0.61001 -0.00200
C 	C 	0.15607 0.50673 0.55291 -0.04700
N 	N 	0.97655 0.40752 0.39612 -0.15100
C 	C 	0.90422 0.35425 0.40158 -0.00600
C 	C 	0.87885 0.35241 0.45889 -0.04100
H 	H 	0.90938 0.37659 0.57638 0.05100
H 	H 	0.12112 0.49505 0.43538 0.05200
H 	H 	0.21104 0.54727 0.53807 0.05200
H 	H 	0.81794 0.32918 0.47378 0.05500
H 	H 	0.02650 0.44342 0.65447 0.08300
H 	H 	0.00233 0.43205 0.35729 0.07700
C 	C 	0.43909 0.01035 0.43616 0.07000
C 	C 	0.37925 0.93822 0.44693 -0.08100
C 	C 	0.32854 0.94060 0.49466 0.01500
C 	C 	0.33671 0.01296 0.52972 0.06600
C 	C 	0.39461 0.08617 0.51720 -0.08200
C 	C 	0.44734 0.08195 0.47129 0.01000
N 	N 	0.46914 0.03241 0.38342 -0.15700
C 	C 	0.49480 0.11827 0.38426 -0.00200
C 	C 	0.48331 0.15088 0.43852 -0.04100
N 	N 	0.31463 0.99003 0.58398 -0.14700
C 	C 	0.29371 0.90361 0.58448 -0.00000
C 	C 	0.30100 0.87075 0.52957 -0.04500
H 	H 	0.37334 0.88180 0.41995 0.04900
H 	H 	0.40095 0.14272 0.54409 0.04900
H 	H 	0.48339 0.21759 0.44820 0.05000
H 	H 	0.31144 0.80666 0.52109 0.04800
H 	H 	0.45707 0.99520 0.34624 0.07700
H 	H 	0.33471 0.02709 0.62015 0.07700
C 	C 	0.73931 0.01966 0.99924 0.06600
C 	C 	0.70501 0.02256 0.94430 -0.08600
C 	C 	0.65969 0.94639 0.92216 0.01500
C 	C 	0.63754 0.87465 0.95712 0.07200
C 	C 	0.66342 0.87563 0.01455 -0.08100
C 	C 	0.72017 0.94646 0.03319 0.01600
N 	N 	0.76062 0.08950 0.03265 -0.14800
C 	C 	0.75536 0.06158 0.08778 -0.00300
C 	C 	0.72986 0.97313 0.08982 -0.04300
N 	N 	0.56744 0.82753 0.93881 -0.15200
C 	C 	0.54399 0.86934 0.89313 0.00300
C 	C 	0.60025 0.94251 0.88066 -0.04800
H 	H 	0.70934 0.08264 0.92137 0.04900
H 	H 	0.63685 0.82589 0.04437 0.05000
H 	H 	0.69821 0.93887 0.12584 0.04000
H 	H 	0.58813 0.99640 0.85581 0.03500
H 	H 	0.75588 0.15159 0.02010 0.08900
H 	H 	0.52939 0.78185 0.96341 0.09100
C 	C 	0.52737 0.32705 0.02296 0.08700
C 	C 	0.52812 0.36741 0.96942 -0.09500
C 	C 	0.46523 0.41178 0.95879 0.01900
C 	C 	0.39914 0.40418 0.99506 0.06900
C 	C 	0.39351 0.35258 0.04452 -0.07700
C 	C 	0.46263 0.32064 0.05948 0.00300
N 	N 	0.57488 0.27202 0.03802 -0.15300
C 	C 	0.54316 0.23365 0.08728 -0.00400
C 	C 	0.46919 0.25811 0.09915 -0.03900
N 	N 	0.33555 0.42355 0.96683 -0.15000
C 	C 	0.36176 0.44741 0.91302 -0.00700
C 	C 	0.44108 0.43580 0.90581 -0.05400
H 	H 	0.57389 0.36309 0.93747 0.05200
H 	H 	0.33821 0.33695 0.06907 0.05100
H 	H 	0.44029 0.25319 0.14095 0.04300
H 	H 	0.48172 0.46528 0.87240 0.03900
H 	H 	0.63546 0.27890 0.02614 0.08500
H 	H 	0.28601 0.44183 0.98691 0.08700
C 	C 	0.56732 0.64314 0.56289 0.07500
C 	C 	0.63752 0.61716 0.54274 -0.08300
C 	C 	0.63167 0.57383 0.48975 0.01000
C 	C 	0.56520 0.57055 0.45459 0.07800
C 	C 	0.50017 0.60867 0.47120 -0.08600
C 	C 	0.50022 0.63796 0.52814 0.01300
N 	N 	0.56572 0.70034 0.60531 -0.15000
C 	C 	0.49543 0.72941 0.59940 -0.00100
C 	C 	0.45562 0.69523 0.54950 -0.04600
N 	N 	0.58406 0.55625 0.39980 -0.15400
C 	C 	0.66206 0.54594 0.39981 -0.00300
C 	C 	0.69485 0.56144 0.45499 -0.04300
H 	H 	0.69387 0.63200 0.56612 0.05300
H 	H 	0.45344 0.61725 0.44102 0.05100
H 	H 	0.39206 0.69183 0.54103 0.04600
H 	H 	0.74850 0.54035 0.47035 0.05000
H 	H 	0.59817 0.70145 0.64370 0.08400
H 	H 	0.54188 0.53353 0.36786 0.08000
