data_crystal

_cell_length_a 18.57145
_cell_length_b 18.99358
_cell_length_c 26.49222
_cell_angle_alpha 95.41706
_cell_angle_beta  95.41776
_cell_angle_gamma 126.41188

_symmetry_space_group_name_	'P 1'
_symmetry_space_group_name_H-M	'P 1'

loop_
_symmetry_equiv_pos_as_xyz
  x,y,z

loop_
_atom_site_label
_atom_site_type_symbol
_atom_site_fract_x
_atom_site_fract_y
_atom_site_fract_z
_atom_site_charge
C 	C 	0.94823 0.03400 0.00691 0.07200
C 	C 	0.90061 0.94737 0.01695 -0.10900
C 	C 	0.93828 0.90211 0.01304 0.06000
C 	C 	0.02887 0.94756 0.00721 -0.11000
C 	C 	0.08003 0.03670 0.00157 0.07100
C 	C 	0.03866 0.07918 0.99927 -0.11400
H 	H 	0.83065 0.91205 0.02238 0.06200
H 	H 	0.05888 0.91299 0.00572 0.06300
H 	H 	0.07625 0.14639 0.99164 0.05900
C 	C 	0.91057 0.00119 0.44703 0.06200
C 	C 	0.86467 0.91053 0.44991 -0.10300
C 	C 	0.91321 0.87500 0.45225 0.05600
C 	C 	0.00730 0.93076 0.45359 -0.10300
C 	C 	0.05254 0.02041 0.45032 0.06000
C 	C 	0.00408 0.05518 0.44638 -0.09800
H 	H 	0.79229 0.86829 0.45033 0.05800
H 	H 	0.04516 0.90409 0.45662 0.06100
H 	H 	0.03965 0.12498 0.44439 0.06100
Cu	Cu	0.62832 0.22104 0.00869 0.92400
Cu	Cu	0.70424 0.22586 0.90255 0.88400
Cu	Cu	0.65250 0.35229 0.94104 0.90800
Cu	Cu	0.60159 0.36770 0.04266 0.89600
C 	C 	0.63858 0.27870 0.11601 0.30000
O 	O 	0.49101 0.15246 0.00454 -0.34400
C 	C 	0.67214 0.32192 0.83900 0.30700
O 	O 	0.68372 0.35626 0.01340 -0.63800
O 	O 	0.61572 0.22912 0.93460 -0.63600
O 	O 	0.70929 0.18271 0.01233 -0.36800
O 	O 	0.67835 0.12525 0.92685 -0.41200
O 	O 	0.58828 0.30332 0.10061 -0.37700
O 	O 	0.69731 0.47433 0.94823 -0.38000
C 	C 	0.70545 0.52146 0.99124 0.29600
C 	C 	0.44849 0.18368 0.98634 0.28700
O 	O 	0.49615 0.26634 0.97949 -0.40000
O 	O 	0.64740 0.48378 0.02278 -0.38800
O 	O 	0.65569 0.23654 0.08268 -0.35000
C 	C 	0.71076 0.13285 0.97483 0.29100
O 	O 	0.62977 0.34189 0.86687 -0.37000
O 	O 	0.73416 0.31649 0.86195 -0.41600
H 	H 	0.74892 0.40225 0.02889 0.15600
H 	H 	0.55307 0.18375 0.91483 0.17700
Cu	Cu	0.76088 0.34875 0.44201 0.92700
Cu	Cu	0.75299 0.27325 0.54942 0.87300
Cu	Cu	0.62211 0.30441 0.51214 0.89700
Cu	Cu	0.59462 0.35169 0.41111 0.89600
C 	C 	0.68708 0.32275 0.33536 0.29800
O 	O 	0.81778 0.48066 0.44376 -0.34700
C 	C 	0.68032 0.31952 0.62357 0.30100
O 	O 	0.61992 0.27970 0.43971 -0.63800
O 	O 	0.75456 0.36085 0.51649 -0.63800
O 	O 	0.81912 0.28659 0.44231 -0.35900
O 	O 	0.72118 0.19064 0.48973 -0.43600
O 	O 	0.65542 0.36610 0.35056 -0.37900
O 	O 	0.49170 0.24081 0.50347 -0.38200
C 	C 	0.44159 0.24373 0.46611 0.30200
C 	C 	0.78000 0.51580 0.46251 0.28800
O 	O 	0.69693 0.46328 0.47128 -0.39100
O 	O 	0.47865 0.30340 0.43601 -0.39400
O 	O 	0.74265 0.31904 0.36807 -0.34500
C 	C 	0.78124 0.21187 0.46015 0.29800
O 	O 	0.62428 0.31757 0.58751 -0.36700
O 	O 	0.75251 0.32743 0.61334 -0.41000
H 	H 	0.57824 0.21572 0.42365 0.16500
H 	H 	0.79539 0.42222 0.53692 0.18000
C 	C 	0.67277 0.38623 0.76110 -0.02500
C 	C 	0.65754 0.31458 0.78249 -0.08100
C 	C 	0.63849 0.24003 0.75004 0.08700
C 	C 	0.64225 0.24098 0.69754 -0.02600
C 	C 	0.66328 0.31492 0.67674 -0.08000
C 	C 	0.67628 0.38703 0.70838 0.09600
N 	N 	0.69572 0.46226 0.68758 -0.02000
H 	H 	0.68625 0.44321 0.78578 0.06400
H 	H 	0.63006 0.18454 0.67300 0.04600
N 	N 	0.61570 0.16331 0.77041 -0.02700
O 	O 	0.64318 0.48591 0.69096 -0.11100
O 	O 	0.76999 0.51146 0.66928 -0.11500
O 	O 	0.54840 0.12344 0.79521 -0.14200
O 	O 	0.65894 0.13041 0.76169 -0.13200
C 	C 	0.59323 0.23234 0.24935 -0.03100
C 	C 	0.67934 0.29910 0.27953 -0.07600
C 	C 	0.75460 0.35086 0.25527 0.09700
C 	C 	0.74176 0.33868 0.20119 -0.03200
C 	C 	0.65432 0.27653 0.17118 -0.07500
C 	C 	0.58031 0.22039 0.19532 0.09600
N 	N 	0.49158 0.15224 0.16511 -0.02100
H 	H 	0.53564 0.19116 0.26789 0.04900
H 	H 	0.79908 0.38097 0.18271 0.05200
N 	N 	0.84336 0.41846 0.28535 -0.02000
O 	O 	0.48084 0.09480 0.12813 -0.09900
O 	O 	0.42067 0.14349 0.17711 -0.12300
O 	O 	0.90962 0.41343 0.28186 -0.10500
O 	O 	0.85988 0.48897 0.31246 -0.10600
C 	C 	0.85179 0.74983 0.50005 -0.08300
C 	C 	0.86619 0.77903 0.45273 -0.02400
C 	C 	0.85439 0.72188 0.40888 0.07300
C 	C 	0.83366 0.63890 0.41393 -0.03200
C 	C 	0.82059 0.61018 0.46141 -0.10100
C 	C 	0.83070 0.66662 0.50510 0.12100
N 	N 	0.82308 0.64264 0.55224 -0.20100
H 	H 	0.86179 0.79393 0.53376 0.05400
H 	H 	0.82376 0.59491 0.38019 0.06000
N 	N 	0.86199 0.74593 0.36177 -0.19400
H 	H 	0.82781 0.68326 0.58397 0.09500
H 	H 	0.81573 0.58532 0.55829 0.09700
H 	H 	0.87065 0.80397 0.35598 0.08500
H 	H 	0.85626 0.70491 0.32988 0.08900
C 	C 	0.87501 0.08952 0.49811 -0.08100
C 	C 	0.86375 0.04278 0.45010 -0.02300
C 	C 	0.82676 0.05337 0.40472 0.07200
C 	C 	0.80470 0.11286 0.40831 -0.02500
C 	C 	0.81921 0.16192 0.45627 -0.10500
C 	C 	0.85762 0.15226 0.50142 0.11400
N 	N 	0.88156 0.20563 0.54760 -0.20000
H 	H 	0.90429 0.08221 0.53275 0.05400
H 	H 	0.77434 0.11937 0.37379 0.05000
N 	N 	0.81165 0.00633 0.35779 -0.19000
H 	H 	0.90542 0.19516 0.58122 0.07900
H 	H 	0.88210 0.26112 0.55010 0.04000
H 	H 	0.82275 0.95840 0.35416 0.08100
H 	H 	0.78638 0.01593 0.32433 0.08900
C 	C 	0.20810 0.13981 0.49926 -0.08700
C 	C 	0.15192 0.07917 0.45333 -0.02000
C 	C 	0.19114 0.07404 0.41119 0.07000
C 	C 	0.28622 0.12754 0.41666 -0.02500
C 	C 	0.34244 0.18805 0.46261 -0.10900
C 	C 	0.30311 0.19625 0.50389 0.13100
N 	N 	0.35570 0.25965 0.54722 -0.20300
H 	H 	0.17763 0.14411 0.53124 0.05600
H 	H 	0.31665 0.12267 0.38482 0.03600
N 	N 	0.13809 0.01901 0.36529 -0.19000
H 	H 	0.32614 0.26269 0.57822 0.09300
H 	H 	0.42539 0.30887 0.54978 0.10700
H 	H 	0.06733 0.98230 0.35883 0.08100
H 	H 	0.16777 0.01422 0.33484 0.08600
C 	C 	0.88372 0.76613 0.04844 -0.08600
C 	C 	0.87911 0.80474 0.00700 -0.02000
C 	C 	0.81800 0.75001 0.96002 0.06700
C 	C 	0.75979 0.65756 0.95635 -0.02200
C 	C 	0.76507 0.61873 0.99753 -0.11000
C 	C 	0.82905 0.67334 0.04373 0.12200
N 	N 	0.84024 0.63727 0.08293 -0.20200
H 	H 	0.93147 0.80846 0.08408 0.05300
H 	H 	0.71110 0.61548 0.92093 0.05200
N 	N 	0.81599 0.78570 0.91817 -0.19400
H 	H 	0.88542 0.67825 0.11747 0.08400
H 	H 	0.80741 0.56896 0.07890 0.07300
H 	H 	0.86323 0.85353 0.91805 0.08700
H 	H 	0.76843 0.74481 0.88430 0.08700
C 	C 	0.82518 0.02436 0.95342 -0.07600
C 	C 	0.89763 0.07005 0.99584 -0.03500
C 	C 	0.90709 0.13538 0.03277 0.07600
C 	C 	0.84346 0.15299 0.02645 -0.02900
C 	C 	0.76817 0.10349 0.98539 -0.11200
C 	C 	0.75593 0.03418 0.95078 0.12600
N 	N 	0.67550 0.97310 0.91768 -0.20500
H 	H 	0.81749 0.97373 0.92543 0.04500
H 	H 	0.85324 0.20596 0.05331 0.05100
N 	N 	0.97656 0.18114 0.07433 -0.19400
H 	H 	0.66907 0.92593 0.88983 0.08700
H 	H 	0.61679 0.96675 0.92230 0.10000
H 	H 	0.02547 0.17045 0.08004 0.08600
H 	H 	0.98245 0.22869 0.10155 0.08800
C 	C 	0.32695 0.13197 0.03738 -0.03300
C 	C 	0.35169 0.13708 0.98872 -0.10100
C 	C 	0.28821 0.11505 0.94439 0.12000
C 	C 	0.20177 0.09009 0.94985 -0.07900
C 	C 	0.17717 0.08503 0.99857 -0.03500
C 	C 	0.24141 0.10895 0.04294 0.08200
N 	N 	0.22172 0.11115 0.09098 -0.19700
H 	H 	0.37640 0.15097 0.07142 0.06700
H 	H 	0.15210 0.07071 0.91582 0.05300
N 	N 	0.30904 0.11570 0.89648 -0.20100
H 	H 	0.26830 0.12617 0.12351 0.10000
H 	H 	0.16163 0.10121 0.09665 0.09000
H 	H 	0.36998 0.12753 0.89081 0.09100
H 	H 	0.26278 0.10160 0.86403 0.09000
