data_crystal

_cell_length_a 26.23714
_cell_length_b 26.45412
_cell_length_c 34.72950
_cell_angle_alpha 95.49511
_cell_angle_beta  95.49245
_cell_angle_gamma 125.83727

_symmetry_space_group_name_	'P 1'
_symmetry_space_group_name_H-M	'P 1'

loop_
_symmetry_equiv_pos_as_xyz
  x,y,z

loop_
_atom_site_label
_atom_site_type_symbol
_atom_site_fract_x
_atom_site_fract_y
_atom_site_fract_z
_atom_site_charge
C 	C 	0.00202 0.04605 0.99381 0.03600
C 	C 	0.96730 0.98019 0.99115 -0.07400
C 	C 	0.99868 0.95181 0.98949 0.03700
C 	C 	0.06486 0.98953 0.99043 -0.07600
C 	C 	0.09946 0.05512 0.99232 0.03800
C 	C 	0.06813 0.08347 0.99428 -0.07400
H 	H 	0.91601 0.95111 0.99005 0.05600
H 	H 	0.08943 0.96788 0.98968 0.05700
H 	H 	0.09495 0.13431 0.99596 0.05700
C 	C 	0.90313 0.98791 0.46027 0.03000
C 	C 	0.96913 0.02378 0.46066 -0.06900
C 	C 	0.00006 0.99494 0.46209 0.03000
C 	C 	0.96488 0.93012 0.46359 -0.07200
C 	C 	0.89919 0.89433 0.46418 0.03300
C 	C 	0.86820 0.92316 0.46223 -0.07200
H 	H 	0.99638 0.07408 0.46006 0.05400
H 	H 	0.98852 0.90753 0.46421 0.05500
H 	H 	0.81730 0.89545 0.46233 0.05400
Cu	Cu	0.67484 0.25817 0.00475 0.93000
Cu	Cu	0.70291 0.24552 0.91588 0.88200
Cu	Cu	0.71116 0.35689 0.95254 0.90400
Cu	Cu	0.70020 0.38820 0.03637 0.90200
C 	C 	0.69513 0.30032 0.08752 0.33500
O 	O 	0.58647 0.22962 0.01132 -0.35500
C 	C 	0.67001 0.30580 0.86646 0.33700
O 	O 	0.73516 0.35680 0.00636 -0.63900
O 	O 	0.65800 0.26290 0.94909 -0.64000
O 	O 	0.70524 0.20496 0.99789 -0.36000
O 	O 	0.76855 0.26133 0.95524 -0.42600
O 	O 	0.70883 0.35653 0.08487 -0.36400
O 	O 	0.76792 0.44833 0.95923 -0.36800
C 	C 	0.77205 0.48782 0.98794 0.29500
C 	C 	0.56625 0.26346 0.00386 0.29200
O 	O 	0.60673 0.32177 0.99844 -0.37800
O 	O 	0.73450 0.46712 0.01433 -0.38300
O 	O 	0.70264 0.26875 0.05968 -0.34700
C 	C 	0.75472 0.22381 0.98093 0.29100
O 	O 	0.70025 0.35592 0.89534 -0.36600
O 	O 	0.65844 0.25168 0.87209 -0.39500
H 	H 	0.78164 0.37894 0.01505 0.17700
H 	H 	0.61236 0.24102 0.93762 0.18300
Cu	Cu	0.70531 0.32580 0.45289 0.93200
Cu	Cu	0.69723 0.28247 0.53838 0.87900
Cu	Cu	0.59795 0.28946 0.49784 0.90100
Cu	Cu	0.57985 0.30605 0.41540 0.90100
C 	C 	0.66753 0.30082 0.36882 0.33800
O 	O 	0.73290 0.41433 0.44840 -0.34600
C 	C 	0.63004 0.31119 0.58467 0.33300
O 	O 	0.60491 0.26612 0.44551 -0.63900
O 	O 	0.69267 0.33697 0.50715 -0.64100
O 	O 	0.75747 0.29446 0.46290 -0.36000
O 	O 	0.68821 0.22311 0.49762 -0.42700
O 	O 	0.63331 0.32180 0.37426 -0.36700
O 	O 	0.50545 0.23749 0.48714 -0.36900
C 	C 	0.46915 0.23651 0.45748 0.29400
C 	C 	0.69889 0.43373 0.45839 0.28400
O 	O 	0.63825 0.39175 0.46012 -0.39000
O 	O 	0.49036 0.25743 0.42515 -0.38200
O 	O 	0.70242 0.30075 0.39877 -0.34600
C 	C 	0.73263 0.24127 0.47620 0.29100
O 	O 	0.59318 0.30611 0.55337 -0.36100
O 	O 	0.68464 0.32029 0.58239 -0.39600
H 	H 	0.58135 0.21995 0.43618 0.18100
H 	H 	0.71653 0.38146 0.52105 0.18600
C 	C 	0.61414 0.31506 0.62374 -0.12000
C 	C 	0.57261 0.25889 0.63780 0.12100
C 	C 	0.57337 0.26099 0.67848 0.06500
C 	C 	0.61501 0.31950 0.70484 0.01800
C 	C 	0.64870 0.37639 0.69009 0.06500
C 	C 	0.64858 0.37412 0.64944 0.12800
C 	C 	0.63155 0.32044 0.74702 0.01700
C 	C 	0.59466 0.32066 0.77390 0.06700
C 	C 	0.60757 0.31643 0.81328 0.12500
C 	C 	0.65836 0.31365 0.82596 -0.12200
C 	C 	0.69732 0.31690 0.79958 0.12700
C 	C 	0.68324 0.31911 0.76000 0.06400
Br	Br	0.69766 0.45691 0.72586 -0.16200
Br	Br	0.51711 0.17898 0.60143 -0.21300
Br	Br	0.55484 0.31282 0.84964 -0.20200
Br	Br	0.73396 0.31910 0.72324 -0.17400
Br	Br	0.69673 0.45149 0.62895 -0.19500
Br	Br	0.52067 0.18365 0.69840 -0.16600
Br	Br	0.52645 0.32643 0.75660 -0.15800
Br	Br	0.77100 0.31992 0.81804 -0.22300
C 	C 	0.68790 0.28129 0.12628 -0.11600
C 	C 	0.63283 0.26360 0.14140 0.12200
C 	C 	0.63143 0.25922 0.18135 0.06600
C 	C 	0.68445 0.27081 0.20597 0.01700
C 	C 	0.73641 0.28130 0.18981 0.06600
C 	C 	0.73889 0.28796 0.15016 0.12700
C 	C 	0.68883 0.27950 0.24924 0.01700
C 	C 	0.71809 0.34053 0.27139 0.06400
C 	C 	0.71519 0.34795 0.31154 0.12700
C 	C 	0.68055 0.29414 0.32913 -0.11800
C 	C 	0.65502 0.23365 0.30776 0.12200
C 	C 	0.65987 0.22643 0.26788 0.06700
Br	Br	0.80497 0.28862 0.22245 -0.15900
Br	Br	0.55970 0.24628 0.10739 -0.20800
Br	Br	0.75982 0.43184 0.34279 -0.18500
Br	Br	0.62589 0.14395 0.23850 -0.15900
Br	Br	0.81363 0.30996 0.12932 -0.18400
Br	Br	0.55816 0.24020 0.20290 -0.17000
Br	Br	0.76004 0.41359 0.24627 -0.16700
Br	Br	0.61206 0.16069 0.33288 -0.20300
C 	C 	0.85065 0.74492 0.50090 -0.03600
C 	C 	0.80561 0.69801 0.46841 0.00500
C 	C 	0.78790 0.71550 0.43571 -0.03500
C 	C 	0.81653 0.77956 0.43498 -0.03300
C 	C 	0.86309 0.82661 0.46695 0.00000
C 	C 	0.87923 0.80894 0.50019 -0.03300
C 	C 	0.77878 0.63085 0.46801 0.03000
H 	H 	0.75304 0.67960 0.41052 0.04800
H 	H 	0.80383 0.79272 0.40918 0.04500
H 	H 	0.91488 0.84491 0.52509 0.04400
H 	H 	0.86415 0.73184 0.52643 0.04800
C 	C 	0.81886 0.61196 0.46853 -0.05800
C 	C 	0.79313 0.54794 0.46643 0.02000
C 	C 	0.72691 0.50205 0.46366 -0.07600
C 	C 	0.68709 0.52140 0.46407 0.01700
C 	C 	0.71294 0.58543 0.46618 -0.05900
H 	H 	0.86982 0.64675 0.47003 0.05600
H 	H 	0.82464 0.53405 0.46660 0.04800
H 	H 	0.63600 0.48680 0.46207 0.04000
H 	H 	0.68171 0.59965 0.46606 0.05300
C 	C 	0.84649 0.08135 0.42584 -0.03500
C 	C 	0.82111 0.08802 0.45805 0.00400
C 	C 	0.81946 0.05867 0.49002 -0.03600
C 	C 	0.84426 0.02412 0.49016 -0.03400
C 	C 	0.87094 0.01862 0.45833 0.00200
C 	C 	0.87123 0.04673 0.42595 -0.03400
C 	C 	0.79714 0.12650 0.45866 0.03100
H 	H 	0.79991 0.06352 0.51502 0.04500
H 	H 	0.84407 0.00286 0.51535 0.04500
H 	H 	0.89150 0.04254 0.40118 0.04500
H 	H 	0.84747 0.10335 0.40089 0.05000
C 	C 	0.83941 0.19217 0.45982 -0.06000
C 	C 	0.81777 0.22948 0.46380 0.01900
C 	C 	0.75374 0.20139 0.46682 -0.08200
C 	C 	0.71097 0.13529 0.46401 0.02000
C 	C 	0.73260 0.09809 0.45999 -0.06100
H 	H 	0.88931 0.21451 0.45864 0.05400
H 	H 	0.85125 0.28035 0.46584 0.04300
H 	H 	0.66117 0.11286 0.46556 0.04200
H 	H 	0.69943 0.04732 0.45856 0.05500
C 	C 	0.17569 0.06792 0.49112 -0.03500
C 	C 	0.20097 0.10240 0.46102 0.00500
C 	C 	0.16024 0.10229 0.43161 -0.03600
C 	C 	0.09473 0.06719 0.43192 -0.03400
C 	C 	0.06945 0.03267 0.46201 0.00200
C 	C 	0.11035 0.03366 0.49179 -0.03400
C 	C 	0.26984 0.13764 0.45989 0.03000
H 	H 	0.17932 0.12916 0.40843 0.04500
H 	H 	0.06358 0.06653 0.40869 0.04300
H 	H 	0.09146 0.00767 0.51534 0.04500
H 	H 	0.20659 0.06736 0.51383 0.04900
C 	C 	0.31605 0.18233 0.49281 -0.05900
C 	C 	0.38117 0.21452 0.49204 0.02000
C 	C 	0.40068 0.20310 0.45813 -0.07800
C 	C 	0.35454 0.15895 0.42506 0.01900
C 	C 	0.28942 0.12605 0.42603 -0.06100
H 	H 	0.30151 0.19207 0.51896 0.05600
H 	H 	0.41644 0.24868 0.51766 0.04800
H 	H 	0.36909 0.14936 0.39886 0.04000
H 	H 	0.25420 0.09121 0.40060 0.05300
C 	C 	0.82945 0.63886 0.95111 -0.06000
C 	C 	0.87104 0.68473 0.98490 0.03200
C 	C 	0.88304 0.66568 0.01885 -0.06300
C 	C 	0.85198 0.60128 0.01946 0.01500
C 	C 	0.80961 0.55545 0.98592 -0.07800
C 	C 	0.79926 0.57453 0.95154 0.02100
C 	C 	0.90121 0.75253 0.98496 0.00700
H 	H 	0.91588 0.70073 0.04488 0.05300
H 	H 	0.86040 0.58695 0.04609 0.03300
H 	H 	0.76629 0.53941 0.92556 0.05000
H 	H 	0.81971 0.65299 0.92478 0.05700
C 	C 	0.93692 0.78203 0.95604 -0.03600
C 	C 	0.96683 0.84657 0.95672 -0.03300
C 	C 	0.96237 0.88254 0.98678 0.00200
C 	C 	0.92587 0.85285 0.01536 -0.03500
C 	C 	0.89499 0.78804 0.01427 -0.03800
H 	H 	0.94206 0.75511 0.93331 0.04800
H 	H 	0.99429 0.86887 0.93425 0.04400
H 	H 	0.92222 0.88017 0.03873 0.04300
H 	H 	0.86676 0.76554 0.03639 0.04500
C 	C 	0.80060 0.11588 0.99942 -0.05700
C 	C 	0.86582 0.15477 0.99722 0.02900
C 	C 	0.89549 0.21801 0.99307 -0.06000
C 	C 	0.85966 0.24132 0.98931 0.02000
C 	C 	0.79383 0.20169 0.98985 -0.08200
C 	C 	0.76480 0.13932 0.99590 0.01800
C 	C 	0.90204 0.12825 0.99684 0.00800
H 	H 	0.94603 0.24869 0.99197 0.05400
H 	H 	0.88285 0.28989 0.98537 0.04100
H 	H 	0.71409 0.10831 0.99647 0.04300
H 	H 	0.77730 0.06704 0.00275 0.05100
C 	C 	0.90888 0.10296 0.02897 -0.03800
C 	C 	0.94206 0.07663 0.02814 -0.03600
C 	C 	0.96883 0.07559 0.99524 0.00300
C 	C 	0.96248 0.10135 0.96328 -0.03400
C 	C 	0.92911 0.12744 0.96403 -0.03700
H 	H 	0.88843 0.10364 0.05450 0.04900
H 	H 	0.94687 0.05692 0.05298 0.04500
H 	H 	0.98277 0.10049 0.93771 0.04500
H 	H 	0.92376 0.14650 0.93898 0.04500
C 	C 	0.41369 0.24840 0.00296 -0.06200
C 	C 	0.36759 0.18231 0.99571 0.03600
C 	C 	0.38663 0.14276 0.99065 -0.06000
C 	C 	0.45135 0.16911 0.99292 0.02800
C 	C 	0.49768 0.23536 0.00035 -0.07900
C 	C 	0.47842 0.27485 0.00530 0.02500
C 	C 	0.29942 0.15444 0.99381 0.00700
H 	H 	0.35130 0.09162 0.98516 0.05600
H 	H 	0.46537 0.13803 0.98885 0.04400
H 	H 	0.51361 0.32600 0.01142 0.04000
H 	H 	0.39938 0.27927 0.00687 0.05500
C 	C 	0.27824 0.16432 0.02736 -0.03700
C 	C 	0.21296 0.13414 0.02635 -0.03500
C 	C 	0.16846 0.09382 0.99183 0.00200
C 	C 	0.18986 0.08577 0.95789 -0.03300
C 	C 	0.25510 0.11598 0.95888 -0.03600
H 	H 	0.31217 0.19414 0.05442 0.05100
H 	H 	0.19680 0.14057 0.05268 0.04500
H 	H 	0.15579 0.05490 0.93107 0.04500
H 	H 	0.27111 0.10868 0.93271 0.04800
