data_crystal

_cell_length_a 20.44957
_cell_length_b 21.28773
_cell_length_c 39.17474
_cell_angle_alpha 61.03915
_cell_angle_beta  118.74024
_cell_angle_gamma 133.28255

_symmetry_space_group_name_	'P 1'
_symmetry_space_group_name_H-M	'P 1'

loop_
_symmetry_equiv_pos_as_xyz
  x,y,z

loop_
_atom_site_label
_atom_site_type_symbol
_atom_site_fract_x
_atom_site_fract_y
_atom_site_fract_z
_atom_site_charge
C 	C 	0.23505 0.51809 0.13505 0.11900
N 	N 	0.20993 0.56046 0.13790 -0.13400
N 	N 	0.23019 0.58624 0.65621 -0.13800
C 	C 	0.26629 0.56468 0.64570 0.12000
Co	Co	0.01799 0.97969 0.03955 1.14800
Co	Co	0.08251 0.87287 0.04244 1.15300
C 	C 	0.19710 0.06942 0.02652 0.31100
O 	O 	0.00509 0.04164 0.18853 -0.39100
C 	C 	0.01833 0.17585 0.10589 0.24400
C 	C 	0.18190 0.85776 0.12633 0.29900
O 	O 	0.03217 0.94284 0.20101 -0.41100
O 	O 	0.19495 0.90831 0.09033 -0.39800
O 	O 	0.13260 0.85153 0.14237 -0.39000
O 	O 	0.04423 0.14447 0.09662 -0.38900
O 	O 	0.02680 0.89347 0.06573 -0.78200
O 	O 	0.14928 0.00447 0.00961 -0.40100
O 	O 	0.15788 0.07058 0.04452 -0.39500
Co	Co	0.03000 0.12336 0.57259 1.16200
Co	Co	0.09421 0.05666 0.54135 1.18700
Co	Co	0.12334 0.91715 0.54936 1.16200
C 	C 	0.27676 0.10710 0.54998 0.30800
O 	O 	0.09550 0.15946 0.53351 -0.46800
C 	C 	0.12937 0.23668 0.63182 0.29100
C 	C 	0.15953 0.85587 0.63710 0.29900
O 	O 	0.20102 0.91585 0.60752 -0.40200
O 	O 	0.10001 0.85419 0.64369 -0.39400
O 	O 	0.07246 0.17206 0.65562 -0.42000
O 	O 	0.13876 0.21978 0.60638 -0.38900
O 	O 	0.06739 0.95297 0.56335 -0.78400
O 	O 	0.22831 0.04726 0.53002 -0.40500
O 	O 	0.23492 0.11615 0.56271 -0.38800
C 	C 	0.05716 0.01821 0.80249 -0.10700
C 	C 	0.06398 0.02222 0.76735 0.07700
C 	C 	0.14503 0.10474 0.74942 -0.20600
H 	H 	0.10888 0.07524 0.81558 0.05900
H 	H 	0.15495 0.09237 0.72839 0.08900
H 	H 	0.20944 0.12856 0.77350 0.08400
H 	H 	0.13428 0.15758 0.73342 0.08300
H 	H 	0.16828 0.98880 0.88175 0.05400
C 	C 	0.06925 0.00604 0.32531 0.06800
C 	C 	0.11523 0.08339 0.29588 -0.00300
C 	C 	0.12153 0.07567 0.26411 0.03000
C 	C 	0.06742 0.99202 0.25661 -0.13200
C 	C 	0.15470 0.17374 0.29717 -0.16300
H 	H 	0.15826 0.13519 0.24202 0.04100
H 	H 	0.21921 0.16277 0.45642 0.09000
H 	H 	0.16519 0.22138 0.26735 0.07000
H 	H 	0.22259 0.20087 0.31904 0.06800
H 	H 	0.10701 0.16971 0.30557 0.06600
C 	C 	0.21759 0.47277 0.64509 -0.00600
C 	C 	0.25485 0.42647 0.67483 -0.04500
C 	C 	0.23897 0.35782 0.66778 0.01900
C 	C 	0.17850 0.32912 0.63211 -0.08200
C 	C 	0.14336 0.37690 0.60192 -0.00200
C 	C 	0.15934 0.44576 0.60884 -0.02900
H 	H 	0.30259 0.44892 0.70215 0.05200
C 	C 	0.29028 0.32163 0.69594 0.07300
N 	N 	0.33185 0.29304 0.71843 -0.11000
C 	C 	0.17795 0.78810 0.66203 -0.09300
C 	C 	0.26984 0.81719 0.68100 0.01100
C 	C 	0.29910 0.76968 0.68523 -0.03100
C 	C 	0.23875 0.69852 0.66653 0.00200
C 	C 	0.14406 0.66118 0.65383 -0.05900
C 	C 	0.11324 0.70262 0.65464 0.04100
H 	H 	0.31931 0.87874 0.69061 0.03800
H 	H 	0.09481 0.60077 0.64332 0.05300
C 	C 	0.08438 0.26482 0.11475 -0.06100
C 	C 	0.08779 0.27076 0.14992 -0.00800
C 	C 	0.12579 0.35242 0.15446 -0.02400
C 	C 	0.16529 0.43093 0.12447 -0.00600
C 	C 	0.12348 0.34322 0.08459 0.00800
H 	H 	0.05728 0.21082 0.17318 0.03200
C 	C 	0.12623 0.35538 0.19064 0.08300
N 	N 	0.12662 0.35780 0.21963 -0.11800
C 	C 	0.21334 0.79956 0.14642 -0.08900
C 	C 	0.14750 0.70652 0.15374 0.00800
C 	C 	0.16632 0.65186 0.15582 -0.03300
C 	C 	0.25305 0.69078 0.15108 0.00100
C 	C 	0.32169 0.78290 0.14816 -0.05200
C 	C 	0.30309 0.83615 0.14729 0.03200
H 	H 	0.08014 0.67694 0.15593 0.03100
C 	C 	0.09723 0.55671 0.16374 0.08800
N 	N 	0.04161 0.48047 0.17008 -0.12300
C 	C 	0.34920 0.29198 0.50137 0.07000
N 	N 	0.31162 0.32399 0.48955 -0.11000
C 	C 	0.29641 0.13489 0.02861 -0.08700
H 	H 	0.27846 0.16541 0.96491 0.04100
C 	C 	0.27650 0.63679 0.15147 0.11500
C 	C 	0.27619 0.67302 0.65489 0.11400
H 	H 	0.10058 0.35831 0.57354 0.03000
C 	C 	0.16205 0.42524 0.08925 -0.04100
C 	C 	0.12768 0.34099 0.04948 0.07700
C 	C 	0.32669 0.16976 0.99403 0.01300
C 	C 	0.05558 0.00158 0.46941 0.33200
O 	O 	0.05909 0.05337 0.48136 -0.38500
C 	C 	0.04377 0.93028 0.89550 -0.02800
C 	C 	0.04040 0.92865 0.93088 -0.06300
C 	C 	0.11396 0.92368 0.89685 -0.15500
H 	H 	0.08787 0.92189 0.95870 0.01500
H 	H 	0.14797 0.90499 0.92818 0.05300
C 	C 	0.14573 0.06055 0.38728 -0.08000
C 	C 	0.06391 0.01210 0.36035 -0.04200
C 	C 	0.05823 0.02478 0.42749 -0.13700
C 	C 	0.14344 0.07427 0.41819 0.10400
C 	C 	0.23219 0.14165 0.44087 -0.21600
H 	H 	0.21168 0.09054 0.38330 0.05400
H 	H 	0.27565 0.20216 0.41984 0.07800
C 	C 	0.11776 0.49025 0.57808 0.07700
N 	N 	0.08454 0.52602 0.55349 -0.12600
H 	H 	0.19457 0.48560 0.06649 0.05200
N 	N 	0.13142 0.33942 0.02138 -0.11200
C 	C 	0.02722 0.98682 0.21405 0.26800
N 	N 	0.31165 0.09148 0.13064 -0.10600
N 	N 	0.32540 0.55339 0.14424 -0.13400
N 	N 	0.34700 0.62878 0.63424 -0.13600
H 	H 	0.27108 0.11341 0.46281 0.08900
N 	N 	0.35593 0.73733 0.64177 -0.13300
Co	Co	0.00437 0.83310 0.11171 1.16000
O 	O 	0.02483 0.74266 0.07552 -0.45800
O 	O 	0.04023 0.92481 0.49282 -0.44200
O 	O 	0.02358 0.78390 0.56776 -0.45800
H 	H 	0.08011 0.87202 0.88171 0.04800
C 	C 	0.33323 0.11484 0.10195 0.09300
C 	C 	0.01750 0.65314 0.65317 0.00900
C 	C 	0.02758 0.91502 0.28733 0.06900
C 	C 	0.03030 0.92282 0.32190 -0.19600
H 	H 	0.02586 0.82565 0.27494 0.03000
C 	C 	0.36025 0.14394 0.06618 0.02800
Co	Co	0.00430 0.88084 0.59845 1.16000
N 	N 	0.36696 0.66991 0.16134 -0.13700
H 	H 	0.99963 0.86392 0.34546 0.11600
C 	C 	0.37404 0.17672 0.54844 -0.08000
O 	O 	0.98865 0.06175 0.03004 -0.42000
C 	C 	0.97589 0.97683 0.40041 0.01400
C 	C 	0.39600 0.25197 0.51611 0.01900
C 	C 	0.97819 0.97367 0.36582 0.06300
C 	C 	0.38629 0.78778 0.71208 0.09600
H 	H 	0.89738 0.96498 0.30478 0.08200
H 	H 	0.91004 0.93950 0.40690 0.04300
C 	C 	0.88906 0.92657 0.33599 -0.19000
H 	H 	0.83296 0.91902 0.33942 0.07400
C 	C 	0.37689 0.92875 0.14734 0.05000
O 	O 	0.95961 0.95593 0.98142 -0.35400
N 	N 	0.91235 0.21891 0.99646 -0.08500
Co	Co	0.94556 0.02599 0.07761 1.20500
C 	C 	0.97187 0.92841 0.93140 -0.05200
O 	O 	0.93479 0.12504 0.11083 -0.34900
H 	H 	0.86883 0.99535 0.90495 0.09100
O 	O 	0.91157 0.99217 0.68290 -0.41000
C 	C 	0.96936 0.97110 0.70370 0.30600
O 	O 	0.99940 0.95963 0.68539 -0.38500
C 	C 	0.99202 0.95159 0.74799 -0.07500
H 	H 	0.38981 0.81356 0.14634 0.06000
N 	N 	0.43614 0.00287 0.14750 -0.07800
C 	C 	0.67549 0.21948 0.04429 0.11900
N 	N 	0.74754 0.29638 0.05684 -0.12800
C 	C 	0.73027 0.34353 0.06105 0.12300
N 	N 	0.64232 0.31364 0.05319 -0.13600
C 	C 	0.57123 0.23941 0.03954 0.12700
N 	N 	0.58770 0.19330 0.03422 -0.13000
C 	C 	0.73015 0.33370 0.49969 0.12200
N 	N 	0.63890 0.27937 0.50013 -0.13400
C 	C 	0.60126 0.31345 0.49970 0.12100
N 	N 	0.65152 0.40186 0.49423 -0.13800
C 	C 	0.74397 0.45270 0.50040 0.12400
N 	N 	0.78403 0.41883 0.50308 -0.12600
C 	C 	0.39130 0.62958 0.15671 0.12100
C 	C 	0.39171 0.71493 0.63178 0.12100
Co	Co	0.93939 0.88528 0.15111 1.19300
C 	C 	0.94181 0.68881 0.08175 0.36100
Co	Co	0.88038 0.99812 0.14780 1.17000
O 	O 	0.92027 0.96432 0.12280 -0.75600
O 	O 	0.96816 0.80267 0.16053 -0.43100
O 	O 	0.94649 0.91089 0.08930 -0.56600
C 	C 	0.77308 0.80180 0.17637 0.30600
C 	C 	0.95627 0.90222 0.97107 0.28600
O 	O 	0.82415 0.87467 0.18794 -0.40000
O 	O 	0.80738 0.78933 0.16107 -0.38200
O 	O 	0.96296 0.83860 0.99850 -0.36600
C 	C 	0.76981 0.00315 0.06554 0.32500
O 	O 	0.76320 0.95391 0.10243 -0.41500
O 	O 	0.82284 0.01824 0.04791 -0.36100
O 	O 	0.91644 0.71165 0.09672 -0.37300
Co	Co	0.93270 0.94453 0.62661 1.18200
C 	C 	0.93678 0.75243 0.55731 0.37200
Co	Co	0.93408 0.09354 0.63104 1.18600
O 	O 	0.96578 0.05032 0.60717 -0.72500
O 	O 	0.92733 0.84041 0.63309 -0.43600
O 	O 	0.98907 0.99192 0.57487 -0.56000
C 	C 	0.75665 0.92321 0.61388 0.27000
O 	O 	0.80078 0.00998 0.60254 -0.36200
O 	O 	0.79286 0.88477 0.61883 -0.36600
C 	C 	0.91711 0.18989 0.54499 0.29800
O 	O 	0.95138 0.19926 0.58160 -0.38300
O 	O 	0.93935 0.15866 0.53348 -0.35100
O 	O 	0.91009 0.78115 0.56764 -0.36900
C 	C 	0.98481 0.94080 0.82108 0.01900
C 	C 	0.92051 0.86507 0.80505 0.04000
C 	C 	0.92405 0.87141 0.76834 -0.01700
C 	C 	0.98129 0.93750 0.85918 0.05900
C 	C 	0.84606 0.77875 0.82598 -0.18200
H 	H 	0.86997 0.81598 0.75421 0.04800
C 	C 	0.90975 0.93666 0.89495 0.09900
C 	C 	0.91597 0.94260 0.85894 -0.09700
C 	C 	0.83617 0.93767 0.89428 -0.20600
H 	H 	0.86886 0.94944 0.83091 0.05900
H 	H 	0.79505 0.78591 0.82366 0.07400
H 	H 	0.87671 0.76015 0.85813 0.08300
H 	H 	0.80896 0.72343 0.81249 0.07800
H 	H 	0.79037 0.87518 0.91394 0.08200
H 	H 	0.79251 0.94335 0.86355 0.07700
C 	C 	0.97981 0.82464 0.28291 -0.09400
H 	H 	0.86742 0.85935 0.34072 0.08400
H 	H 	0.91517 0.80575 0.25902 0.07600
H 	H 	0.96187 0.77278 0.31123 0.07400
C 	C 	0.48010 0.78289 0.61892 -0.00500
C 	C 	0.49645 0.76367 0.59532 -0.04000
C 	C 	0.58676 0.80508 0.59522 0.01900
C 	C 	0.66197 0.86820 0.61816 -0.06700
C 	C 	0.64520 0.89235 0.63908 0.00100
C 	C 	0.55488 0.85444 0.63730 -0.02500
H 	H 	0.43873 0.71322 0.57855 0.05500
H 	H 	0.70284 0.94513 0.65461 0.03200
C 	C 	0.53993 0.89864 0.64833 0.09200
C 	C 	0.60133 0.78340 0.57099 0.08700
N 	N 	0.52872 0.93528 0.65679 -0.11400
N 	N 	0.61295 0.76602 0.55157 -0.10600
N 	N 	0.94082 0.61297 0.65260 -0.05400
N 	N 	0.45594 0.80185 0.73383 -0.11400
C 	C 	0.67324 0.74260 0.17361 -0.08400
C 	C 	0.61239 0.73014 0.13585 0.01000
C 	C 	0.52126 0.69697 0.12961 -0.02700
C 	C 	0.48900 0.67208 0.16193 -0.00300
C 	C 	0.54840 0.68031 0.20015 -0.04400
C 	C 	0.64010 0.71496 0.20622 0.02100
H 	H 	0.63773 0.75176 0.11067 0.04300
H 	H 	0.52299 0.65901 0.22523 0.05300
C 	C 	0.69982 0.72192 0.24602 0.07600
C 	C 	0.46244 0.69238 0.08957 0.09000
N 	N 	0.74752 0.72750 0.27792 -0.11300
N 	N 	0.41531 0.68868 0.05753 -0.11800
C 	C 	0.86205 0.22428 0.51597 -0.06600
C 	C 	0.90791 0.31671 0.50309 0.01000
C 	C 	0.86282 0.35359 0.49345 -0.01900
C 	C 	0.77226 0.29737 0.49935 0.00300
C 	C 	0.72271 0.20482 0.50660 -0.03800
C 	C 	0.76632 0.16887 0.51302 0.01700
H 	H 	0.98021 0.36019 0.50259 0.05700
H 	H 	0.65073 0.16064 0.50764 0.06200
C 	C 	0.71209 0.07540 0.51584 0.09000
C 	C 	0.90701 0.44724 0.47455 0.11200
N 	N 	0.66828 0.00049 0.51783 -0.09600
N 	N 	0.94287 0.52235 0.45936 -0.09600
C 	C 	0.79901 0.53133 0.51553 0.00700
C 	C 	0.77892 0.52037 0.54852 -0.04100
C 	C 	0.80777 0.59374 0.55706 0.03500
C 	C 	0.86937 0.67993 0.53674 -0.09300
C 	C 	0.88648 0.69128 0.50272 0.01800
C 	C 	0.85082 0.61750 0.49178 -0.02600
H 	H 	0.73479 0.45389 0.56564 0.06100
H 	H 	0.93108 0.75777 0.48585 0.05000
C 	C 	0.86488 0.63077 0.45540 0.10000
C 	C 	0.76932 0.57998 0.58481 0.09000
N 	N 	0.87602 0.64172 0.42615 -0.10600
N 	N 	0.73827 0.56889 0.60698 -0.09600
C 	C 	0.51516 0.25563 0.51331 -0.00400
C 	C 	0.45982 0.28547 0.49654 -0.04500
C 	C 	0.43324 0.15092 0.56725 0.00600
C 	C 	0.50301 0.18913 0.54980 -0.02500
H 	H 	0.47084 0.33900 0.46954 0.05300
H 	H 	0.41948 0.09536 0.59346 0.04900
C 	C 	0.56161 0.15985 0.56969 0.09800
N 	N 	0.60850 0.13631 0.58566 -0.10500
C 	C 	0.73011 0.05369 0.04686 -0.09700
C 	C 	0.64986 0.01473 0.05680 0.05300
C 	C 	0.63255 0.06768 0.05718 -0.05400
C 	C 	0.69186 0.16153 0.04385 0.01600
C 	C 	0.76555 0.19982 0.02897 -0.04900
C 	C 	0.78395 0.14638 0.02971 0.03700
H 	H 	0.60549 0.94313 0.06807 0.01500
H 	H 	0.80836 0.27109 0.01666 0.06700
C 	C 	0.85537 0.18665 0.01136 0.08500
C 	C 	0.55758 0.02522 0.07389 0.13700
N 	N 	0.49742 0.99101 0.08725 -0.14400
C 	C 	0.88218 0.59790 0.07677 -0.09200
C 	C 	0.86678 0.58834 0.04004 0.02100
C 	C 	0.83177 0.50715 0.03651 -0.03100
C 	C 	0.80533 0.43214 0.06915 0.00900
C 	C 	0.82498 0.44249 0.10649 -0.03900
C 	C 	0.86229 0.52450 0.11039 0.03600
H 	H 	0.88543 0.64543 0.01448 0.04100
H 	H 	0.80542 0.38509 0.13187 0.06500
C 	C 	0.87972 0.53251 0.14894 0.08900
C 	C 	0.81895 0.50012 0.99857 0.10500
N 	N 	0.89373 0.53891 0.17985 -0.09500
N 	N 	0.80861 0.49439 0.96819 -0.10800
C 	C 	0.47676 0.20360 0.03529 -0.00200
C 	C 	0.44992 0.17806 0.06928 -0.03700
C 	C 	0.41597 0.20257 0.99725 -0.02300
H 	H 	0.49865 0.18355 0.09829 0.06400
C 	C 	0.44443 0.23443 0.96145 0.09300
N 	N 	0.46727 0.25995 0.93280 -0.10900
