data_crystal

_cell_length_a 20.79224
_cell_length_b 24.42709
_cell_length_c 34.65579
_cell_angle_alpha 89.99726
_cell_angle_beta  89.99734
_cell_angle_gamma 120.39887

_symmetry_space_group_name_	'P 1'
_symmetry_space_group_name_H-M	'P 1'

loop_
_symmetry_equiv_pos_as_xyz
  x,y,z

loop_
_atom_site_label
_atom_site_type_symbol
_atom_site_fract_x
_atom_site_fract_y
_atom_site_fract_z
_atom_site_charge
C 	C 	0.78952 0.51201 0.79824 0.29500
C 	C 	0.78224 0.32297 0.68799 0.30900
C 	C 	0.77853 0.49817 0.69932 0.31400
C 	C 	0.82002 0.32113 0.79562 0.29200
C 	C 	0.56674 0.30453 0.70683 0.31300
C 	C 	0.59619 0.30813 0.81612 0.28900
Ni	Ni	0.82578 0.42538 0.74703 1.11800
Ni	Ni	0.67550 0.28695 0.75285 1.12400
Ni	Ni	0.66238 0.41135 0.75624 1.12100
O 	O 	0.84101 0.50528 0.77899 -0.35300
O 	O 	0.71983 0.46503 0.80172 -0.38000
O 	O 	0.57578 0.26750 0.73110 -0.37500
O 	O 	0.83437 0.35940 0.71273 -0.36700
O 	O 	0.71140 0.29544 0.69754 -0.37000
O 	O 	0.58344 0.34261 0.79075 -0.37700
O 	O 	0.79911 0.45604 0.69748 -0.37500
O 	O 	0.72645 0.49110 0.72380 -0.37900
O 	O 	0.62991 0.27638 0.80559 -0.36700
O 	O 	0.84876 0.38347 0.79296 -0.36000
O 	O 	0.76493 0.28082 0.77251 -0.36500
O 	O 	0.61240 0.36608 0.70739 -0.38200
O 	O 	0.72557 0.37637 0.76086 -0.71700
H 	H 	0.73208 0.37757 0.78906 0.16500
C 	C 	0.20924 0.49551 0.30511 0.29700
C 	C 	0.20497 0.67142 0.18638 0.30900
C 	C 	0.22997 0.50507 0.20120 0.31000
C 	C 	0.17083 0.67679 0.29384 0.29000
C 	C 	0.42895 0.69819 0.20854 0.31000
C 	C 	0.39522 0.70461 0.31656 0.29000
Ni	Ni	0.16872 0.57180 0.24732 1.11500
Ni	Ni	0.31378 0.71400 0.24989 1.12400
Ni	Ni	0.33504 0.59487 0.26087 1.12200
O 	O 	0.15826 0.49633 0.28190 -0.36200
O 	O 	0.27851 0.54382 0.30743 -0.38300
O 	O 	0.41557 0.73630 0.22954 -0.37200
O 	O 	0.15345 0.63164 0.21038 -0.36400
O 	O 	0.27602 0.69700 0.19484 -0.37800
O 	O 	0.41052 0.66802 0.29434 -0.37000
O 	O 	0.19571 0.53757 0.19908 -0.37400
O 	O 	0.27352 0.51234 0.23073 -0.38100
O 	O 	0.35934 0.73260 0.30276 -0.36800
O 	O 	0.14015 0.61415 0.29096 -0.36200
O 	O 	0.22085 0.71574 0.26815 -0.36500
O 	O 	0.38638 0.63640 0.21136 -0.38500
O 	O 	0.26819 0.62599 0.26135 -0.72000
H 	H 	0.26102 0.62719 0.28937 0.16000
C 	C 	0.21337 0.08295 0.99307 0.28700
C 	C 	0.90485 0.92675 0.05683 0.31200
C 	C 	0.08966 0.90527 0.00155 0.31500
C 	C 	0.03262 0.10429 0.05136 0.26900
C 	C 	0.92081 0.90694 0.93252 0.31200
C 	C 	0.02824 0.08787 0.92221 0.28600
Ni	Ni	0.07124 0.00237 0.04238 1.11100
Ni	Ni	0.94672 0.00778 0.98866 1.12400
Ni	Ni	0.07713 0.99591 0.94915 1.12300
O 	O 	0.18307 0.04405 0.02331 -0.36200
O 	O 	0.17668 0.07381 0.96006 -0.37100
O 	O 	0.90648 0.95240 0.94087 -0.37200
O 	O 	0.97053 0.96130 0.07309 -0.35300
O 	O 	0.89787 0.92657 0.01940 -0.37300
O 	O 	0.04433 0.04313 0.91247 -0.37800
O 	O 	0.04741 0.91258 0.02637 -0.37800
O 	O 	0.12221 0.94684 0.97365 -0.36900
O 	O 	0.99159 0.08410 0.95437 -0.37000
O 	O 	0.08216 0.08734 0.06027 -0.36400
O 	O 	0.96543 0.06247 0.03733 -0.34800
O 	O 	0.98448 0.91207 0.94201 -0.37800
O 	O 	0.04293 0.01807 0.99402 -0.72500
H 	H 	0.07367 0.06467 0.99267 0.16000
C 	C 	0.77798 0.88990 0.50640 0.29500
C 	C 	0.07150 0.08347 0.57522 0.31100
C 	C 	0.86966 0.06542 0.51685 0.31100
C 	C 	0.98921 0.90804 0.57078 0.30600
C 	C 	0.05739 0.09692 0.44845 0.30000
C 	C 	0.98854 0.91869 0.44182 0.29700
Ni	Ni	0.91223 0.98243 0.55830 1.12100
Ni	Ni	0.05520 0.00733 0.50706 1.11900
Ni	Ni	0.90970 0.98955 0.46515 1.12300
O 	O 	0.80131 0.92485 0.53861 -0.35400
O 	O 	0.82201 0.90241 0.47596 -0.37600
O 	O 	0.08644 0.06220 0.45899 -0.37700
O 	O 	0.00945 0.03764 0.59027 -0.36800
O 	O 	0.08183 0.08620 0.53787 -0.38100
O 	O 	0.96047 0.95467 0.43033 -0.37100
O 	O 	0.91324 0.06476 0.54375 -0.36600
O 	O 	0.84633 0.02361 0.48862 -0.37600
O 	O 	0.03141 0.93310 0.47300 -0.38800
O 	O 	0.92535 0.90746 0.57496 -0.36100
O 	O 	0.05007 0.95831 0.55642 -0.38000
O 	O 	0.98883 0.08017 0.45772 -0.37800
O 	O 	0.95153 0.97743 0.51059 -0.71400
H 	H 	0.93184 0.93137 0.50896 0.16500
C 	C 	0.16367 0.33833 0.16618 -0.04100
C 	C 	0.14107 0.34106 0.12815 0.02500
C 	C 	0.15384 0.39908 0.11325 -0.05800
C 	C 	0.18900 0.45421 0.13576 0.02900
C 	C 	0.20703 0.45073 0.17468 -0.08200
C 	C 	0.19555 0.39283 0.18934 0.01500
C 	C 	0.10638 0.28372 0.10322 0.01700
C 	C 	0.03491 0.23317 0.11213 -0.04700
C 	C 	0.00637 0.17479 0.09303 0.00700
C 	C 	0.04849 0.16769 0.06354 -0.06300
C 	C 	0.11626 0.22042 0.05198 0.00600
C 	C 	0.14616 0.27783 0.07209 -0.03300
C 	C 	0.93634 0.12154 0.10563 0.10800
C 	C 	0.21948 0.32927 0.06194 0.09400
C 	C 	0.15471 0.27990 0.18158 0.09600
C 	C 	0.20985 0.51449 0.11811 0.08500
N 	N 	0.88029 0.07895 0.11586 -0.10400
N 	N 	0.27820 0.37045 0.05380 -0.10500
N 	N 	0.22658 0.56269 0.10381 -0.10600
N 	N 	0.14751 0.23309 0.19390 -0.10800
H 	H 	0.20984 0.38983 0.21907 0.04600
H 	H 	0.13796 0.40154 0.08376 0.05800
H 	H 	0.00327 0.23828 0.13532 0.05300
H 	H 	0.14862 0.21511 0.02928 0.04600
C 	C 	0.56363 0.74678 0.12498 -0.03800
C 	C 	0.63286 0.78282 0.14394 0.02500
C 	C 	0.63488 0.78735 0.18429 -0.05500
C 	C 	0.56885 0.75701 0.20579 0.03000
C 	C 	0.49935 0.72487 0.18668 -0.07900
C 	C 	0.49726 0.71873 0.14641 0.01600
C 	C 	0.70311 0.81945 0.12164 0.02600
C 	C 	0.71403 0.87156 0.09957 -0.05400
C 	C 	0.77991 0.90726 0.07856 0.03400
C 	C 	0.83739 0.89258 0.08088 -0.07700
C 	C 	0.82732 0.84142 0.10370 0.02000
C 	C 	0.76007 0.80412 0.12355 -0.03800
C 	C 	0.78758 0.95830 0.05427 0.07700
C 	C 	0.74919 0.74931 0.14494 0.09800
C 	C 	0.56035 0.73787 0.08367 0.09900
C 	C 	0.57330 0.75543 0.24730 0.08500
N 	N 	0.79341 0.99904 0.03477 -0.11200
N 	N 	0.74042 0.70539 0.16208 -0.10700
N 	N 	0.57754 0.75409 0.28054 -0.10000
N 	N 	0.55779 0.73077 0.05058 -0.10500
H 	H 	0.44399 0.69252 0.13173 0.04700
H 	H 	0.68805 0.81416 0.19897 0.06100
H 	H 	0.67069 0.88385 0.09841 0.06200
H 	H 	0.87092 0.82945 0.10507 0.04700
C 	C 	0.20794 0.72254 0.08327 -0.03700
C 	C 	0.15374 0.74090 0.08431 0.02100
C 	C 	0.11057 0.72964 0.11761 -0.05700
C 	C 	0.12567 0.70600 0.15102 0.02700
C 	C 	0.18299 0.69091 0.15074 -0.07800
C 	C 	0.22302 0.69851 0.11657 0.01600
C 	C 	0.15094 0.78202 0.05386 0.02600
C 	C 	0.09061 0.75685 0.02809 -0.06100
C 	C 	0.07426 0.79743 0.00714 0.03600
C 	C 	0.11853 0.86363 0.01215 -0.08400
C 	C 	0.18293 0.88858 0.03495 0.01800
C 	C 	0.19989 0.84820 0.05538 -0.04000
C 	C 	0.01029 0.77084 0.98180 0.06300
C 	C 	0.26500 0.87515 0.07992 0.09800
C 	C 	0.24979 0.72999 0.04846 0.09900
C 	C 	0.08598 0.70210 0.18609 0.08500
N 	N 	0.95907 0.74961 0.96150 -0.09500
N 	N 	0.31713 0.89668 0.09959 -0.10900
N 	N 	0.05410 0.69913 0.21412 -0.10500
N 	N 	0.28332 0.73599 0.02055 -0.10600
H 	H 	0.26735 0.68742 0.11625 0.05400
H 	H 	0.06838 0.74331 0.11825 0.05600
H 	H 	0.05405 0.70584 0.02605 0.05800
H 	H 	0.21653 0.93947 0.03922 0.04800
C 	C 	0.21723 0.34946 0.33153 -0.03900
C 	C 	0.16366 0.32333 0.36118 0.02300
C 	C 	0.12430 0.35356 0.37214 -0.05600
C 	C 	0.13780 0.40945 0.35365 0.02700
C 	C 	0.19161 0.43565 0.32408 -0.07700
C 	C 	0.23110 0.40550 0.31328 0.01300
C 	C 	0.14536 0.26241 0.37951 0.02400
C 	C 	0.18501 0.26241 0.41227 -0.05600
C 	C 	0.16204 0.20604 0.43284 0.02900
C 	C 	0.09753 0.14971 0.42120 -0.08000
C 	C 	0.06268 0.14867 0.38631 0.01500
C 	C 	0.08617 0.20468 0.36546 -0.04000
C 	C 	0.20496 0.20633 0.46567 0.08400
C 	C 	0.04829 0.20284 0.33012 0.09400
C 	C 	0.25753 0.31861 0.31938 0.09500
C 	C 	0.09711 0.44006 0.36559 0.07900
N 	N 	0.23956 0.20651 0.49187 -0.10600
N 	N 	0.01802 0.20145 0.30179 -0.11200
N 	N 	0.06453 0.46461 0.37514 -0.10400
N 	N 	0.28976 0.29384 0.30965 -0.10800
H 	H 	0.27254 0.42566 0.29052 0.03900
H 	H 	0.08276 0.33322 0.39483 0.05800
H 	H 	0.23268 0.30642 0.42213 0.05900
H 	H 	0.01469 0.10478 0.37651 0.03400
C 	C 	0.58490 0.84285 0.47669 -0.03800
C 	C 	0.56578 0.78608 0.45702 0.02400
C 	C 	0.60565 0.75510 0.46494 -0.05300
C 	C 	0.66999 0.78479 0.48780 0.02700
C 	C 	0.69740 0.84747 0.50059 -0.07000
C 	C 	0.65179 0.87428 0.49743 0.01200
C 	C 	0.51652 0.76691 0.42263 0.02400
C 	C 	0.53755 0.80846 0.39103 -0.05300
C 	C 	0.49610 0.78961 0.35689 0.03100
C 	C 	0.43498 0.72734 0.35340 -0.06600
C 	C 	0.41279 0.68614 0.38515 0.00900
C 	C 	0.45232 0.70603 0.42000 -0.03600
C 	C 	0.51708 0.83430 0.32543 0.09200
C 	C 	0.42601 0.66425 0.45303 0.09400
C 	C 	0.53804 0.87060 0.47409 0.09700
C 	C 	0.70682 0.75045 0.49851 0.08400
N 	N 	0.53384 0.87008 0.30023 -0.10200
N 	N 	0.40496 0.63079 0.47950 -0.10800
N 	N 	0.73579 0.72248 0.50725 -0.09400
N 	N 	0.50047 0.89282 0.47198 -0.10800
H 	H 	0.67160 0.92197 0.50786 0.05400
H 	H 	0.58891 0.70959 0.45169 0.06000
H 	H 	0.58683 0.85532 0.39294 0.05800
H 	H 	0.36462 0.63872 0.38276 0.04400
C 	C 	0.04299 0.85592 0.35660 -0.02700
C 	C 	0.02976 0.79725 0.37132 0.00100
C 	C 	0.98988 0.77388 0.40581 -0.03300
C 	C 	0.96879 0.81082 0.42733 0.01700
C 	C 	0.98861 0.87227 0.41456 -0.05500
C 	C 	0.02219 0.89307 0.37824 -0.00800
C 	C 	0.06419 0.76331 0.35303 0.03400
C 	C 	0.13858 0.78231 0.36145 -0.06000
C 	C 	0.17286 0.75176 0.34412 0.02800
C 	C 	0.13259 0.70186 0.31769 -0.07200
C 	C 	0.05704 0.68087 0.31072 0.02300
C 	C 	0.02288 0.71164 0.32798 -0.05600
C 	C 	0.24833 0.77035 0.35480 0.07500
C 	C 	0.94595 0.69078 0.31922 0.11800
C 	C 	0.07948 0.87897 0.31982 0.09100
C 	C 	0.92776 0.78572 0.46275 0.08300
N 	N 	0.30875 0.78553 0.36369 -0.09900
N 	N 	0.88431 0.67409 0.31222 -0.10900
N 	N 	0.89489 0.76545 0.49113 -0.10200
N 	N 	0.10873 0.89738 0.29034 -0.10800
H 	H 	0.03604 0.93968 0.36785 0.05100
H 	H 	0.97752 0.72783 0.41655 0.05800
H 	H 	0.16980 0.82101 0.38151 0.05900
H 	H 	0.02556 0.64194 0.29086 0.04700
C 	C 	0.95972 0.14428 0.84127 -0.05000
C 	C 	0.98304 0.20625 0.85441 0.04800
C 	C 	0.03865 0.23362 0.88277 -0.07700
C 	C 	0.06444 0.19718 0.90106 0.03700
C 	C 	0.03170 0.13210 0.89235 -0.09000
C 	C 	0.98425 0.10749 0.86029 0.03500
C 	C 	0.94375 0.23977 0.84184 0.01200
C 	C 	0.87056 0.21786 0.85453 -0.04700
C 	C 	0.83052 0.24606 0.84110 0.02300
C 	C 	0.86445 0.29777 0.81530 -0.06400
C 	C 	0.93900 0.32176 0.80422 0.00700
C 	C 	0.97847 0.29266 0.81699 -0.01700
C 	C 	0.75452 0.22135 0.85370 0.08300
C 	C 	0.05366 0.31604 0.80346 0.07700
C 	C 	0.90895 0.11756 0.80910 0.10200
C 	C 	0.12372 0.22649 0.92912 0.07500
N 	N 	0.69360 0.20141 0.86378 -0.10300
N 	N 	0.11389 0.33475 0.79263 -0.10400
N 	N 	0.17143 0.25004 0.95150 -0.10700
N 	N 	0.86826 0.09619 0.78333 -0.10900
H 	H 	0.96157 0.05816 0.85223 0.04500
H 	H 	0.05976 0.28242 0.89155 0.06200
H 	H 	0.84430 0.17794 0.87426 0.05700
H 	H 	0.96519 0.36136 0.78426 0.05100
C 	C 	0.86984 0.80454 0.84646 -0.03700
C 	C 	0.83250 0.74444 0.86436 0.02500
C 	C 	0.80611 0.73904 0.90221 -0.05400
C 	C 	0.82439 0.79361 0.92371 0.03200
C 	C 	0.87046 0.85410 0.90743 -0.07900
C 	C 	0.88699 0.85893 0.86788 0.01600
C 	C 	0.82544 0.68769 0.84476 0.02400
C 	C 	0.87445 0.66613 0.85453 -0.05600
C 	C 	0.86566 0.61015 0.83823 0.02800
C 	C 	0.80759 0.57559 0.81162 -0.07400
C 	C 	0.76082 0.59886 0.80063 0.01400
C 	C 	0.76880 0.65409 0.81737 -0.03800
C 	C 	0.91485 0.58756 0.84992 0.08700
C 	C 	0.71767 0.67528 0.80687 0.09600
C 	C 	0.89384 0.81105 0.80675 0.09800
C 	C 	0.79966 0.78734 0.96326 0.08700
N 	N 	0.95427 0.56945 0.85928 -0.09800
N 	N 	0.67676 0.69230 0.79848 -0.10800
N 	N 	0.77981 0.78226 0.99494 -0.09800
N 	N 	0.91302 0.81621 0.77494 -0.11000
H 	H 	0.91989 0.90546 0.85482 0.04400
H 	H 	0.77426 0.69256 0.91546 0.06100
H 	H 	0.91853 0.69235 0.87536 0.06400
H 	H 	0.71669 0.57281 0.77979 0.03900
C 	C 	0.38716 0.23596 0.97668 -0.03500
C 	C 	0.42744 0.21371 0.95567 0.02200
C 	C 	0.40927 0.15054 0.96019 -0.05600
C 	C 	0.34196 0.10665 0.97768 0.02800
C 	C 	0.29427 0.12707 0.99248 -0.07200
C 	C 	0.32062 0.19238 0.99518 0.01000
C 	C 	0.47243 0.24932 0.92173 0.02400
C 	C 	0.55007 0.27568 0.92246 -0.05500
C 	C 	0.59169 0.29721 0.88827 0.02700
C 	C 	0.55512 0.29145 0.85291 -0.07100
C 	C 	0.47824 0.26861 0.85259 0.01300
C 	C 	0.43680 0.24762 0.88668 -0.03700
C 	C 	0.67188 0.32655 0.88984 0.08200
C 	C 	0.35709 0.22190 0.88525 0.09800
C 	C 	0.41060 0.30258 0.97679 0.09800
C 	C 	0.31822 0.04002 0.97589 0.07900
N 	N 	0.73614 0.35013 0.89104 -0.10200
N 	N 	0.29327 0.20128 0.88418 -0.10800
N 	N 	0.29979 0.98677 0.97402 -0.10000
N 	N 	0.42937 0.35599 0.97686 -0.10600
H 	H 	0.28586 0.20867 0.00827 0.04400
H 	H 	0.44299 0.13410 0.94605 0.05900
H 	H 	0.57771 0.27778 0.94944 0.05900
H 	H 	0.45026 0.26540 0.82553 0.04900
C 	C 	0.86769 0.25900 0.61884 -0.03700
C 	C 	0.82093 0.24552 0.58642 0.02500
C 	C 	0.77174 0.26888 0.58491 -0.05600
C 	C 	0.76374 0.30003 0.61692 0.03100
C 	C 	0.80330 0.30571 0.65125 -0.07700
C 	C 	0.85821 0.28849 0.65119 0.01500
C 	C 	0.81324 0.19732 0.55804 0.02500
C 	C 	0.76646 0.13315 0.56709 -0.05800
C 	C 	0.77899 0.08708 0.55067 0.03100
C 	C 	0.83577 0.10493 0.52278 -0.08100
C 	C 	0.87348 0.16756 0.50896 0.01800
C 	C 	0.86329 0.21413 0.52688 -0.03700
C 	C 	0.73974 0.02339 0.56606 0.06900
C 	C 	0.90719 0.27941 0.51459 0.10000
C 	C 	0.92313 0.23998 0.61971 0.10100
C 	C 	0.71648 0.32740 0.61405 0.09100
N 	N 	0.70823 0.97268 0.57886 -0.10200
N 	N 	0.94237 0.33175 0.50476 -0.10500
N 	N 	0.67869 0.34940 0.61179 -0.09800
N 	N 	0.96749 0.22469 0.62034 -0.10200
H 	H 	0.89101 0.29520 0.67697 0.05100
H 	H 	0.73781 0.26076 0.55941 0.06000
H 	H 	0.72561 0.11994 0.59000 0.06000
H 	H 	0.91553 0.18112 0.48667 0.04700
C 	C 	0.82720 0.64222 0.63861 -0.03600
C 	C 	0.90576 0.67613 0.64094 0.01900
C 	C 	0.94245 0.65069 0.66147 -0.04100
C 	C 	0.90170 0.59264 0.68063 0.02700
C 	C 	0.82278 0.55895 0.67887 -0.08300
C 	C 	0.78617 0.58399 0.65768 0.01700
C 	C 	0.94932 0.74113 0.62538 0.03100
C 	C 	0.95959 0.79220 0.64825 -0.05900
C 	C 	0.98371 0.85149 0.63147 0.03600
C 	C 	0.99732 0.85953 0.59142 -0.08100
C 	C 	0.99939 0.81168 0.57017 0.03200
C 	C 	0.97375 0.75182 0.58672 -0.04300
C 	C 	0.99064 0.90294 0.65508 0.08500
C 	C 	0.96952 0.70103 0.56349 0.10500
C 	C 	0.78840 0.66730 0.61699 0.10000
C 	C 	0.94129 0.56918 0.70308 0.07100
N 	N 	0.99600 0.94403 0.67406 -0.09900
N 	N 	0.96607 0.66031 0.54487 -0.10600
N 	N 	0.97321 0.55052 0.72099 -0.12200
N 	N 	0.75742 0.68747 0.59968 -0.10300
H 	H 	0.72575 0.55812 0.65605 0.04600
H 	H 	0.00285 0.67700 0.66335 0.04600
H 	H 	0.94455 0.78474 0.67858 0.06400
H 	H 	0.01566 0.81958 0.54004 0.03200
C 	C 	0.37433 0.27130 0.68061 -0.04000
C 	C 	0.35238 0.22269 0.65294 0.02400
C 	C 	0.40297 0.20385 0.64128 -0.05600
C 	C 	0.47368 0.23082 0.65830 0.03100
C 	C 	0.49531 0.27898 0.68624 -0.08000
C 	C 	0.44592 0.29972 0.69668 0.01800
C 	C 	0.27541 0.18918 0.63723 0.02300
C 	C 	0.25334 0.22043 0.61106 -0.05500
C 	C 	0.18302 0.18774 0.59350 0.03100
C 	C 	0.13583 0.12230 0.60052 -0.08100
C 	C 	0.15611 0.09212 0.62840 0.01400
C 	C 	0.22506 0.12540 0.64714 -0.03900
C 	C 	0.15864 0.22201 0.56935 0.09000
C 	C 	0.24401 0.09369 0.67633 0.09500
C 	C 	0.32298 0.29089 0.69356 0.09500
C 	C 	0.52322 0.20821 0.64730 0.08200
N 	N 	0.13900 0.24940 0.55003 -0.10100
N 	N 	0.25923 0.06832 0.69971 -0.11000
N 	N 	0.56278 0.18995 0.63852 -0.10500
N 	N 	0.28181 0.30655 0.70391 -0.10800
H 	H 	0.46239 0.33656 0.71832 0.03600
H 	H 	0.38642 0.16692 0.61970 0.05800
H 	H 	0.29102 0.27006 0.60431 0.06100
H 	H 	0.11962 0.04201 0.63425 0.05100
