data_crystal

_cell_length_a 18.46498
_cell_length_b 18.81766
_cell_length_c 26.27516
_cell_angle_alpha 95.45237
_cell_angle_beta  95.45169
_cell_angle_gamma 126.42166

_symmetry_space_group_name_	'P 1'
_symmetry_space_group_name_H-M	'P 1'

loop_
_symmetry_equiv_pos_as_xyz
  x,y,z

loop_
_atom_site_label
_atom_site_type_symbol
_atom_site_fract_x
_atom_site_fract_y
_atom_site_fract_z
_atom_site_charge
C 	C 	0.93646 0.02158 0.96825 0.09200
N 	N 	0.02851 0.07540 0.96990 -0.10900
C 	C 	0.07346 0.03874 0.96811 0.11300
N 	N 	0.02706 0.94931 0.96642 -0.09600
C 	C 	0.93587 0.89614 0.96608 0.11900
N 	N 	0.89036 0.93193 0.96591 -0.10900
C 	C 	0.91117 0.99709 0.47477 0.16600
N 	N 	0.00327 0.05405 0.47829 -0.12900
C 	C 	0.05168 0.02151 0.47473 0.11600
N 	N 	0.00825 0.93181 0.46992 -0.09800
C 	C 	0.91693 0.87487 0.46947 0.11700
N 	N 	0.86772 0.90721 0.47098 -0.12600
Cu	Cu	0.61567 0.20343 0.01058 0.93300
Cu	Cu	0.64618 0.17715 0.88622 0.89300
Cu	Cu	0.69680 0.35754 0.95128 0.90700
Cu	Cu	0.63792 0.38016 0.05220 0.90900
C 	C 	0.64566 0.26635 0.12086 0.32900
O 	O 	0.48447 0.15880 0.00918 -0.33000
C 	C 	0.66533 0.31541 0.83697 0.32900
O 	O 	0.70128 0.34378 0.02184 -0.64000
O 	O 	0.60844 0.22301 0.93748 -0.63800
O 	O 	0.67637 0.14395 0.00874 -0.33500
O 	O 	0.63716 0.09038 0.92150 -0.39700
O 	O 	0.61490 0.31241 0.11035 -0.35600
O 	O 	0.77917 0.48552 0.97075 -0.36300
C 	C 	0.75891 0.53290 0.99688 0.28900
C 	C 	0.45787 0.20656 0.99525 0.27900
O 	O 	0.51869 0.29053 0.99097 -0.37200
O 	O 	0.70312 0.50078 0.03085 -0.36100
O 	O 	0.63883 0.20842 0.08409 -0.33400
C 	C 	0.69091 0.11500 0.96629 0.27900
O 	O 	0.71893 0.37398 0.88023 -0.36200
O 	O 	0.61744 0.22831 0.83574 -0.38500
H 	H 	0.76439 0.37443 0.04109 0.18500
H 	H 	0.54701 0.20374 0.92230 0.18300
Cu	Cu	0.75110 0.33426 0.44870 0.93300
Cu	Cu	0.69904 0.24011 0.54994 0.87900
Cu	Cu	0.61890 0.31873 0.51477 0.89700
Cu	Cu	0.58192 0.33032 0.40311 0.91100
C 	C 	0.68766 0.30110 0.33883 0.33400
O 	O 	0.80500 0.46615 0.44734 -0.33300
C 	C 	0.66569 0.33255 0.62712 0.32300
O 	O 	0.60983 0.26935 0.44357 -0.63500
O 	O 	0.74180 0.34815 0.52225 -0.64300
O 	O 	0.80890 0.27239 0.45638 -0.33900
O 	O 	0.69053 0.16661 0.49144 -0.41700
O 	O 	0.65652 0.34698 0.34930 -0.36500
O 	O 	0.50156 0.29871 0.50618 -0.35300
C 	C 	0.43665 0.25160 0.46426 0.28800
C 	C 	0.76312 0.50111 0.46054 0.27700
O 	O 	0.67559 0.44836 0.46316 -0.38200
O 	O 	0.45634 0.26086 0.41732 -0.36500
O 	O 	0.73897 0.29810 0.37560 -0.33700
C 	C 	0.76341 0.19416 0.47136 0.29300
O 	O 	0.63172 0.35333 0.58976 -0.34800
O 	O 	0.70587 0.29490 0.61717 -0.38900
H 	H 	0.56711 0.20284 0.43448 0.17600
H 	H 	0.79088 0.40641 0.54536 0.20000
C 	C 	0.58714 0.31619 0.75443 0.10600
C 	C 	0.66914 0.34767 0.78749 -0.10500
C 	C 	0.75290 0.39968 0.76970 0.10400
C 	C 	0.75220 0.40978 0.71736 0.10700
C 	C 	0.66841 0.36083 0.68199 -0.09800
C 	C 	0.58630 0.32099 0.70123 0.10100
Br	Br	0.47292 0.27070 0.65475 -0.16900
Br	Br	0.47696 0.26784 0.78229 -0.17300
Br	Br	0.86555 0.48860 0.69347 -0.17500
Br	Br	0.86751 0.45039 0.81524 -0.17700
C 	C 	0.60244 0.20216 0.25230 0.10200
C 	C 	0.68601 0.27467 0.28403 -0.10200
C 	C 	0.76194 0.33233 0.26109 0.11100
C 	C 	0.75023 0.32582 0.20670 0.10100
C 	C 	0.66316 0.26056 0.17546 -0.10000
C 	C 	0.59054 0.19553 0.19793 0.10900
Br	Br	0.47383 0.10015 0.15443 -0.16200
Br	Br	0.50377 0.11377 0.28371 -0.20200
Br	Br	0.85227 0.40798 0.17500 -0.19700
Br	Br	0.88103 0.42138 0.30422 -0.16000
C 	C 	0.87152 0.77770 0.46683 0.00400
C 	C 	0.86066 0.74272 0.51309 -0.02000
C 	C 	0.82981 0.65334 0.51142 0.01800
C 	C 	0.80978 0.59870 0.46349 -0.06200
C 	C 	0.82151 0.63416 0.41728 0.01700
C 	C 	0.85100 0.72301 0.41891 -0.02100
C 	C 	0.88204 0.79898 0.56244 0.11200
C 	C 	0.80194 0.57894 0.36790 0.09600
C 	C 	0.85985 0.75815 0.37118 0.10900
C 	C 	0.81884 0.61760 0.55903 0.09000
N 	N 	0.86695 0.78629 0.33314 -0.09200
N 	N 	0.80999 0.58898 0.59697 -0.09000
N 	N 	0.78647 0.53537 0.32832 -0.08400
N 	N 	0.89916 0.84399 0.60178 -0.08800
C 	C 	0.85866 0.03334 0.47346 -0.03700
C 	C 	0.82851 0.04441 0.42552 -0.00100
C 	C 	0.79962 0.09912 0.42472 0.01200
C 	C 	0.80020 0.14230 0.47190 -0.06900
C 	C 	0.82800 0.12906 0.51981 0.01200
C 	C 	0.85480 0.07277 0.52045 -0.01100
C 	C 	0.82821 0.00025 0.37708 0.06800
C 	C 	0.83180 0.17564 0.56847 0.06100
C 	C 	0.87963 0.05626 0.56955 0.09400
C 	C 	0.76892 0.11061 0.37543 0.10200
N 	N 	0.89946 0.04303 0.60869 -0.10000
N 	N 	0.74443 0.11985 0.33613 -0.08700
N 	N 	0.83488 0.21282 0.60730 -0.11900
N 	N 	0.82804 0.96497 0.33846 -0.06500
C 	C 	0.15102 0.08338 0.47396 0.00100
C 	C 	0.18387 0.14687 0.44066 -0.01800
C 	C 	0.27863 0.20814 0.44181 0.02100
C 	C 	0.33955 0.19747 0.47001 -0.06100
C 	C 	0.30632 0.13145 0.50156 0.01500
C 	C 	0.21343 0.07888 0.50624 -0.00800
C 	C 	0.12015 0.14648 0.40353 0.11300
C 	C 	0.36643 0.11433 0.52695 0.09100
C 	C 	0.18275 0.02242 0.54528 0.08300
C 	C 	0.31363 0.28375 0.41539 0.10200
N 	N 	0.15824 0.97737 0.57643 -0.05900
N 	N 	0.34151 0.34407 0.39432 -0.09400
N 	N 	0.41437 0.10060 0.54711 -0.12000
N 	N 	0.06938 0.14620 0.37390 -0.09100
C 	C 	0.88951 0.80333 0.97409 -0.00500
C 	C 	0.82754 0.73081 0.93266 -0.01800
C 	C 	0.78306 0.64194 0.94049 0.02100
C 	C 	0.80233 0.62571 0.98947 -0.06800
C 	C 	0.86435 0.69838 0.03094 0.02200
C 	C 	0.90679 0.78711 0.02347 -0.00500
C 	C 	0.81032 0.74778 0.88187 0.11300
C 	C 	0.88599 0.68182 0.08090 0.09800
C 	C 	0.96754 0.86189 0.06667 0.08800
C 	C 	0.71617 0.56712 0.89848 0.09600
N 	N 	0.01601 0.92160 0.10106 -0.06000
N 	N 	0.66280 0.50753 0.86497 -0.09100
N 	N 	0.90325 0.66858 0.12073 -0.09200
N 	N 	0.79664 0.76140 0.84137 -0.09000
C 	C 	0.76075 0.09917 0.97018 -0.08600
C 	C 	0.82332 0.13030 0.93558 0.01900
C 	C 	0.88396 0.10794 0.93590 -0.02700
C 	C 	0.88741 0.06087 0.97358 -0.00100
C 	C 	0.83375 0.04082 0.01249 -0.01700
C 	C 	0.76642 0.05447 0.00888 0.03600
C 	C 	0.82713 0.18740 0.90076 0.04700
C 	C 	0.84855 0.00688 0.05647 0.07700
C 	C 	0.70047 0.01872 0.04329 0.07400
C 	C 	0.94085 0.13122 0.89664 0.10400
N 	N 	0.64790 0.99017 0.07076 -0.05300
N 	N 	0.98624 0.14975 0.86533 -0.10200
N 	N 	0.86042 0.97980 0.09152 -0.06900
N 	N 	0.83035 0.23303 0.87299 -0.13000
C 	C 	0.36005 0.16778 0.98755 -0.07100
C 	C 	0.30422 0.12345 0.93771 0.02100
C 	C 	0.21177 0.09003 0.93004 -0.02100
C 	C 	0.17377 0.09649 0.97269 0.00200
C 	C 	0.23056 0.14444 0.02198 -0.01700
C 	C 	0.32365 0.18000 0.02945 0.02500
C 	C 	0.34103 0.10979 0.89470 0.08800
C 	C 	0.19242 0.15478 0.06534 0.11300
C 	C 	0.38161 0.22789 0.08043 0.09100
C 	C 	0.15526 0.04815 0.87837 0.11300
N 	N 	0.42758 0.26605 0.12116 -0.09200
N 	N 	0.11008 0.01471 0.83717 -0.09000
N 	N 	0.16186 0.16293 0.09989 -0.09100
N 	N 	0.37005 0.09853 0.86030 -0.10000
