data_crystal

_cell_length_a 20.33300
_cell_length_b 21.16892
_cell_length_c 37.85977
_cell_angle_alpha 60.71847
_cell_angle_beta  119.03600
_cell_angle_gamma 133.31860

_symmetry_space_group_name_	'P 1'
_symmetry_space_group_name_H-M	'P 1'

loop_
_symmetry_equiv_pos_as_xyz
  x,y,z

loop_
_atom_site_label
_atom_site_type_symbol
_atom_site_fract_x
_atom_site_fract_y
_atom_site_fract_z
_atom_site_charge
C 	C 	0.30014 0.67229 0.14716 0.26800
N 	N 	0.39003 0.70062 0.16226 -0.09800
C 	C 	0.41840 0.66629 0.15527 0.27200
N 	N 	0.35517 0.59891 0.13575 -0.11100
C 	C 	0.26339 0.56115 0.12596 0.27200
N 	N 	0.23537 0.59943 0.13047 -0.10600
C 	C 	0.26250 0.65566 0.64917 0.26000
N 	N 	0.20423 0.56953 0.64555 -0.09600
C 	C 	0.22569 0.54514 0.62750 0.27200
N 	N 	0.30445 0.60616 0.61359 -0.12300
C 	C 	0.36632 0.68847 0.62080 0.28000
N 	N 	0.34436 0.71407 0.63752 -0.10400
Co	Co	0.03438 0.01035 0.03361 1.17300
Co	Co	0.10704 0.91340 0.03356 1.19600
C 	C 	0.21401 0.10973 0.01624 0.40300
O 	O 	0.05081 0.06811 0.19899 -0.28800
C 	C 	0.06391 0.00592 0.22439 0.15100
O 	O 	0.00402 0.09029 0.02630 -0.40200
C 	C 	0.05819 0.20970 0.11058 0.44800
C 	C 	0.21180 0.90132 0.12010 0.39900
O 	O 	0.05888 0.95629 0.20953 -0.26000
O 	O 	0.22118 0.95418 0.08269 -0.32600
O 	O 	0.16134 0.88897 0.13862 -0.30700
O 	O 	0.07760 0.17737 0.09750 -0.35000
O 	O 	0.04792 0.92684 0.05978 -0.71800
O 	O 	0.16707 0.04518 0.99851 -0.39300
O 	O 	0.17429 0.10635 0.03665 -0.36900
Co	Co	0.00718 0.08884 0.57727 1.20600
Co	Co	0.06577 0.02596 0.53895 1.18100
Co	Co	0.10578 0.89548 0.54550 1.19400
C 	C 	0.24815 0.09072 0.53809 0.42200
O 	O 	0.06469 0.12651 0.53279 -0.39300
C 	C 	0.10630 0.20383 0.63760 0.39400
C 	C 	0.16673 0.85209 0.63694 0.39600
O 	O 	0.00243 0.93938 0.69812 -0.29800
O 	O 	0.19804 0.90777 0.60307 -0.32700
O 	O 	0.11151 0.85089 0.64691 -0.32300
O 	O 	0.05323 0.13775 0.66396 -0.35400
O 	O 	0.11630 0.18771 0.61112 -0.33400
O 	O 	0.04776 0.92536 0.56290 -0.71500
O 	O 	0.19888 0.02783 0.51905 -0.42100
O 	O 	0.20848 0.09446 0.55539 -0.37600
C 	C 	0.03296 0.97550 0.81527 0.31100
C 	C 	0.05300 0.02984 0.83558 -0.23300
C 	C 	0.01291 0.01889 0.89123 -0.17000
O 	O 	0.06201 0.01034 0.77925 -0.21700
H 	H 	0.11175 0.09982 0.83179 0.16200
H 	H 	0.08138 0.07392 0.90303 0.13600
C 	C 	0.10785 0.02431 0.32244 0.05000
C 	C 	0.12465 0.07452 0.34406 -0.02700
C 	C 	0.05814 0.03370 0.36531 -0.00500
C 	C 	0.07412 0.05548 0.39822 -0.08700
O 	O 	0.14394 0.06379 0.28809 -0.16100
C 	C 	0.08250 0.99058 0.27001 0.19700
H 	H 	0.18493 0.14359 0.34289 0.11300
H 	H 	0.14148 0.10728 0.41262 0.11300
C 	C 	0.18912 0.39534 0.66913 0.26500
C 	C 	0.17554 0.45051 0.63031 -0.12100
C 	C 	0.14281 0.42543 0.59375 0.26900
C 	C 	0.13102 0.35031 0.59589 0.29900
C 	C 	0.14593 0.29584 0.63471 -0.19500
C 	C 	0.17644 0.31973 0.67132 0.29500
F 	F 	0.19289 0.26885 0.70917 -0.36100
F 	F 	0.22142 0.41876 0.70475 -0.34000
F 	F 	0.10362 0.32971 0.56017 -0.34700
F 	F 	0.12846 0.47757 0.55593 -0.32300
C 	C 	0.48723 0.77414 0.58311 0.27900
F 	F 	0.42423 0.77290 0.54624 -0.32700
C 	C 	0.30639 0.76784 0.67801 0.26800
C 	C 	0.23685 0.68759 0.66458 -0.11500
C 	C 	0.14296 0.64899 0.65880 0.26700
C 	C 	0.12022 0.69728 0.66001 0.29300
C 	C 	0.18935 0.78700 0.66228 -0.18500
C 	C 	0.28277 0.81855 0.67567 0.30800
F 	F 	0.35100 0.90168 0.68273 -0.31900
F 	F 	0.39707 0.79903 0.69107 -0.32300
F 	F 	0.07400 0.56702 0.65052 -0.32900
C 	C 	0.13416 0.37295 0.07842 0.31700
C 	C 	0.12436 0.30287 0.11440 -0.19700
C 	C 	0.15289 0.31761 0.15331 0.30400
C 	C 	0.18501 0.39872 0.15602 0.27000
C 	C 	0.19669 0.46945 0.12036 -0.11700
C 	C 	0.17058 0.45598 0.08142 0.27400
F 	F 	0.18321 0.52419 0.04666 -0.33100
F 	F 	0.10555 0.35975 0.04044 -0.33200
F 	F 	0.21111 0.41089 0.19395 -0.34200
F 	F 	0.14506 0.25125 0.18849 -0.37400
C 	C 	0.20074 0.69413 0.15502 0.27100
C 	C 	0.27763 0.73031 0.14240 -0.11800
C 	C 	0.33971 0.82399 0.12916 0.27000
C 	C 	0.32554 0.88044 0.12867 0.30300
C 	C 	0.24471 0.84465 0.13769 -0.18200
C 	C 	0.18457 0.75108 0.15290 0.29400
F 	F 	0.10910 0.71508 0.16434 -0.35000
F 	F 	0.14190 0.60427 0.16940 -0.33600
F 	F 	0.38738 0.97057 0.11639 -0.32000
F 	F 	0.41249 0.86043 0.11542 -0.30100
C 	C 	0.43086 0.26454 0.48019 0.26000
C 	C 	0.49457 0.24312 0.50455 -0.13100
C 	C 	0.48633 0.18737 0.54498 0.26700
C 	C 	0.41224 0.14957 0.55982 0.29500
C 	C 	0.34338 0.16368 0.53377 -0.20600
C 	C 	0.35705 0.22679 0.49522 0.29700
F 	F 	0.29296 0.24408 0.47040 -0.37200
F 	F 	0.44068 0.32213 0.44192 -0.34900
F 	F 	0.40236 0.09211 0.59811 -0.36100
F 	F 	0.55141 0.17153 0.57021 -0.33700
C 	C 	0.35285 0.20610 0.98868 0.30700
C 	C 	0.31506 0.17131 0.02194 -0.21500
C 	C 	0.37229 0.17572 0.06246 0.30100
C 	C 	0.46250 0.20423 0.07026 0.27600
C 	C 	0.49672 0.23029 0.03751 -0.14300
C 	C 	0.44294 0.23424 0.99652 0.27600
F 	F 	0.47785 0.26479 0.96435 -0.34700
F 	F 	0.29987 0.20707 0.94903 -0.37000
F 	F 	0.51576 0.20376 0.10985 -0.33500
F 	F 	0.33800 0.14568 0.09476 -0.37600
Co	Co	0.03006 0.86559 0.10845 1.21200
O 	O 	0.05429 0.78235 0.06814 -0.34400
O 	O 	0.02202 0.01736 0.47654 -0.34800
C 	C 	0.46294 0.73877 0.62074 -0.12600
C 	C 	0.51861 0.70600 0.16644 -0.11700
F 	F 	0.50282 0.69896 0.69535 -0.33600
F 	F 	0.48416 0.56978 0.16959 -0.34400
C 	C 	0.01618 0.96384 0.46394 0.30900
C 	C 	0.03260 0.93602 0.32518 0.15400
F 	F 	0.03059 0.65912 0.65619 -0.34100
C 	C 	0.52720 0.73694 0.65872 0.27300
C 	C 	0.01571 0.91401 0.29218 -0.09300
O 	O 	0.00944 0.89055 0.48973 -0.30600
O 	O 	0.01816 0.76041 0.57062 -0.35600
C 	C 	0.00449 0.97951 0.41906 0.14900
F 	F 	0.56140 0.84224 0.16825 -0.30600
C 	C 	0.54717 0.65759 0.17023 0.26600
C 	C 	0.99145 0.99170 0.85904 0.19300
C 	C 	0.99742 0.93376 0.76334 0.10200
O 	O 	0.97823 0.15962 0.11976 -0.39900
Co	Co	0.97371 0.05699 0.07928 1.17100
O 	O 	0.90054 0.95476 0.69628 -0.32100
C 	C 	0.96657 0.94370 0.71757 0.25700
C 	C 	0.69622 0.24461 0.04750 0.26900
N 	N 	0.60765 0.21609 0.03900 -0.10900
C 	C 	0.59157 0.26139 0.04570 0.28200
N 	N 	0.66356 0.33586 0.06003 -0.12300
C 	C 	0.75204 0.36704 0.06684 0.27400
N 	N 	0.76876 0.32132 0.06076 -0.10900
C 	C 	0.70567 0.30280 0.49727 0.26100
N 	N 	0.61350 0.25629 0.49391 -0.10400
C 	C 	0.58162 0.29688 0.49255 0.27100
N 	N 	0.64014 0.38515 0.49089 -0.12200
C 	C 	0.73272 0.42916 0.49885 0.27500
N 	N 	0.76594 0.38820 0.50187 -0.10500
Co	Co	0.96606 0.91033 0.15400 1.19000
C 	C 	0.97176 0.72497 0.07630 0.39300
Co	Co	0.92442 0.03127 0.15758 1.16300
O 	O 	0.95622 0.99659 0.12777 -0.71700
O 	O 	0.99058 0.82664 0.15984 -0.39500
O 	O 	0.97044 0.94079 0.08837 -0.54500
C 	C 	0.80735 0.83467 0.18321 0.39700
C 	C 	0.97119 0.93557 0.96051 0.25000
O 	O 	0.86886 0.90539 0.19806 -0.36100
O 	O 	0.83224 0.81927 0.16363 -0.33500
O 	O 	0.98714 0.87581 0.98727 -0.31700
O 	O 	0.97010 0.98374 0.97342 -0.29400
C 	C 	0.80354 0.03617 0.07329 0.31900
O 	O 	0.80193 0.98912 0.11219 -0.27000
O 	O 	0.85023 0.04793 0.05276 -0.33200
O 	O 	0.94461 0.74579 0.09197 -0.33300
Co	Co	0.99890 0.85601 0.60439 1.19100
Co	Co	0.92970 0.91457 0.63847 1.20500
C 	C 	0.93000 0.72043 0.56547 0.40100
Co	Co	0.91338 0.05277 0.64111 1.16300
O 	O 	0.94856 0.01477 0.61521 -0.80400
O 	O 	0.93372 0.81527 0.64611 -0.40800
O 	O 	0.97051 0.95854 0.58002 -0.53800
C 	C 	0.74064 0.87617 0.62179 0.40900
O 	O 	0.77862 0.96183 0.61424 -0.30200
O 	O 	0.79086 0.84470 0.63772 -0.33500
C 	C 	0.88688 0.14687 0.55112 0.42200
O 	O 	0.92268 0.15681 0.58907 -0.38900
O 	O 	0.90931 0.11651 0.53875 -0.34700
O 	O 	0.90388 0.74597 0.57876 -0.33500
C 	C 	0.91752 0.90284 0.86455 0.07300
C 	C 	0.89819 0.84833 0.84470 0.00100
C 	C 	0.95953 0.88637 0.82118 -0.04800
O 	O 	0.88583 0.86821 0.89963 -0.13300
C 	C 	0.94892 0.94489 0.91530 0.14200
C 	C 	0.93631 0.85943 0.78858 -0.01700
H 	H 	0.83921 0.77844 0.84838 0.10900
H 	H 	0.86739 0.80387 0.77742 0.10600
C 	C 	0.98199 0.94591 0.36738 0.19600
C 	C 	0.96596 0.89537 0.34629 -0.12900
O 	O 	0.94333 0.90677 0.40073 -0.15500
H 	H 	0.90553 0.82637 0.34738 0.13600
H 	H 	0.94864 0.86028 0.27884 0.10100
C 	C 	0.61593 0.77262 0.65905 0.30100
C 	C 	0.64209 0.81272 0.62142 -0.18900
C 	C 	0.57651 0.81085 0.58345 0.31700
F 	F 	0.60054 0.84752 0.54688 -0.33000
F 	F 	0.67868 0.77334 0.69597 -0.37000
C 	C 	0.58629 0.79417 0.17125 0.27600
C 	C 	0.67996 0.83413 0.17838 0.30700
C 	C 	0.70804 0.78850 0.17876 -0.20000
C 	C 	0.64126 0.69936 0.17554 0.30500
F 	F 	0.66757 0.65233 0.17872 -0.35300
F 	F 	0.74365 0.91834 0.18423 -0.38400
C 	C 	0.69417 0.16397 0.51606 0.26300
C 	C 	0.74167 0.25759 0.50041 -0.11900
C 	C 	0.82677 0.30837 0.49020 0.26500
C 	C 	0.86939 0.26820 0.50091 0.30500
C 	C 	0.82745 0.17721 0.52175 -0.19600
C 	C 	0.73610 0.12408 0.52556 0.29300
F 	F 	0.69102 0.03448 0.54203 -0.37300
F 	F 	0.60973 0.11211 0.52416 -0.34600
F 	F 	0.95411 0.31900 0.49337 -0.33200
F 	F 	0.86893 0.39671 0.47059 -0.33900
C 	C 	0.84871 0.55971 0.57537 0.30500
C 	C 	0.86159 0.64067 0.54900 -0.19000
C 	C 	0.83374 0.65182 0.50568 0.28700
C 	C 	0.80220 0.58666 0.48903 0.26900
C 	C 	0.79421 0.50774 0.51552 -0.13100
C 	C 	0.81873 0.49518 0.55885 0.26800
F 	F 	0.80702 0.41730 0.58485 -0.34000
F 	F 	0.86548 0.54364 0.61710 -0.32600
F 	F 	0.77526 0.59827 0.44705 -0.35100
F 	F 	0.83908 0.72683 0.47967 -0.37100
C 	C 	0.78999 0.22874 0.03175 0.27200
C 	C 	0.71313 0.18863 0.04562 -0.13600
C 	C 	0.65503 0.09475 0.05975 0.28100
C 	C 	0.67803 0.04275 0.06319 0.24100
C 	C 	0.76098 0.08398 0.05412 -0.16300
C 	C 	0.81366 0.17658 0.03587 0.27800
F 	F 	0.89133 0.21696 0.02475 -0.36000
F 	F 	0.84287 0.31842 0.01511 -0.33800
F 	F 	0.62288 0.95253 0.07807 -0.30100
F 	F 	0.57925 0.05430 0.07245 -0.34100
C 	C 	0.88518 0.56119 0.10966 0.31000
C 	C 	0.91717 0.63207 0.07483 -0.18900
C 	C 	0.90916 0.61538 0.04078 0.29300
C 	C 	0.86623 0.52834 0.04083 0.26800
C 	C 	0.82770 0.45660 0.07415 -0.12800
C 	C 	0.84104 0.47387 0.10938 0.27200
F 	F 	0.80632 0.40511 0.14236 -0.33400
F 	F 	0.89735 0.57692 0.14383 -0.33600
F 	F 	0.85518 0.51268 0.00690 -0.34100
F 	F 	0.94149 0.68357 0.00722 -0.38100
