data_crystal

_cell_length_a 26.16441
_cell_length_b 26.54402
_cell_length_c 30.91533
_cell_angle_alpha 95.44490
_cell_angle_beta  95.44441
_cell_angle_gamma 125.95155

_symmetry_space_group_name_	'P 1'
_symmetry_space_group_name_H-M	'P 1'

loop_
_symmetry_equiv_pos_as_xyz
  x,y,z

loop_
_atom_site_label
_atom_site_type_symbol
_atom_site_fract_x
_atom_site_fract_y
_atom_site_fract_z
_atom_site_charge
C 	C 	0.96678 0.03202 0.99032 0.13400
N 	N 	0.03158 0.06613 0.99470 -0.04900
C 	C 	0.05907 0.03592 0.99183 0.17500
N 	N 	0.02173 0.97173 0.98455 -0.02800
C 	C 	0.95704 0.93764 0.98034 0.17000
N 	N 	0.92965 0.96784 0.98367 -0.06200
C 	C 	0.93731 0.99672 0.46391 0.23100
N 	N 	0.90570 0.93511 0.46822 -0.05400
C 	C 	0.93712 0.90860 0.46915 0.16900
N 	N 	0.00049 0.94431 0.46674 -0.04900
C 	C 	0.03251 0.00623 0.46379 0.16900
N 	N 	0.00071 0.03213 0.46168 -0.08400
Cu	Cu	0.64644 0.25623 0.00833 0.94500
Cu	Cu	0.67023 0.21897 0.90904 0.90900
Cu	Cu	0.69436 0.35065 0.94614 0.91800
Cu	Cu	0.63861 0.37130 0.02327 0.92600
C 	C 	0.66295 0.31780 0.09625 0.28700
O 	O 	0.55083 0.21227 0.00413 -0.27400
C 	C 	0.68151 0.30453 0.85312 0.29000
O 	O 	0.69338 0.35240 0.00748 -0.63800
O 	O 	0.63935 0.25656 0.94361 -0.63100
O 	O 	0.70142 0.22709 0.01630 -0.30100
O 	O 	0.66182 0.16434 0.94785 -0.32400
O 	O 	0.63162 0.33900 0.07995 -0.33100
O 	O 	0.74309 0.44133 0.95319 -0.30800
C 	C 	0.72716 0.47358 0.97557 0.30400
C 	C 	0.52330 0.23573 0.98623 0.29300
O 	O 	0.55883 0.29154 0.97503 -0.33200
O 	O 	0.67305 0.44433 0.99129 -0.32100
O 	O 	0.66305 0.27389 0.07193 -0.30900
C 	C 	0.69918 0.18641 0.98680 0.29800
O 	O 	0.71683 0.35111 0.88752 -0.35200
O 	O 	0.65060 0.24499 0.85776 -0.35300
H 	H 	0.73717 0.38087 0.02570 0.21700
H 	H 	0.59493 0.23735 0.92892 0.22500
Cu	Cu	0.73503 0.33395 0.44545 0.94400
Cu	Cu	0.73159 0.27997 0.53762 0.91300
Cu	Cu	0.62948 0.29112 0.50051 0.91200
Cu	Cu	0.61661 0.33437 0.41601 0.92300
C 	C 	0.69080 0.32275 0.35317 0.29600
O 	O 	0.77591 0.42786 0.45098 -0.25900
C 	C 	0.66902 0.30421 0.59686 0.29000
O 	O 	0.63485 0.28245 0.43922 -0.63700
O 	O 	0.72470 0.33709 0.50809 -0.62500
O 	O 	0.78058 0.29412 0.44579 -0.26700
O 	O 	0.71579 0.22331 0.48715 -0.38100
O 	O 	0.66296 0.34881 0.36554 -0.31400
O 	O 	0.53682 0.24271 0.48841 -0.30900
C 	C 	0.50389 0.25043 0.45823 0.31000
C 	C 	0.74627 0.45161 0.46344 0.28600
O 	O 	0.68639 0.41340 0.46864 -0.35100
O 	O 	0.53293 0.29744 0.43612 -0.32300
O 	O 	0.72793 0.31845 0.38233 -0.29800
C 	C 	0.75854 0.24196 0.46152 0.29700
O 	O 	0.62218 0.28420 0.56319 -0.34200
O 	O 	0.72377 0.31577 0.59050 -0.36500
H 	H 	0.60791 0.23804 0.42311 0.22000
H 	H 	0.74940 0.38038 0.52585 0.20700
C 	C 	0.68597 0.31944 0.80826 -0.04000
C 	C 	0.74418 0.37164 0.79978 0.02300
C 	C 	0.75068 0.38246 0.75661 -0.03000
C 	C 	0.69908 0.34122 0.72138 0.03900
C 	C 	0.63945 0.29039 0.72993 0.04100
C 	C 	0.63315 0.27977 0.77341 -0.00600
C 	C 	0.58769 0.24953 0.69467 -0.03000
C 	C 	0.59617 0.25668 0.65110 0.02500
C 	C 	0.65648 0.30474 0.64232 -0.03900
C 	C 	0.70711 0.34845 0.67760 -0.00400
H 	H 	0.78505 0.40279 0.82649 0.08300
H 	H 	0.79634 0.42209 0.75049 0.09200
H 	H 	0.58778 0.24019 0.78002 0.09000
H 	H 	0.54141 0.21109 0.70087 0.09700
H 	H 	0.55660 0.22310 0.62411 0.08500
H 	H 	0.75329 0.38650 0.67089 0.08300
C 	C 	0.68392 0.33162 0.14454 -0.02800
C 	C 	0.71176 0.39242 0.16837 0.02900
C 	C 	0.72388 0.40416 0.21453 -0.02400
C 	C 	0.70806 0.35513 0.23746 0.05100
C 	C 	0.68315 0.29461 0.21379 0.04300
C 	C 	0.67150 0.28318 0.16731 0.00100
C 	C 	0.66761 0.24569 0.23693 -0.02000
C 	C 	0.67354 0.25593 0.28300 0.02400
C 	C 	0.69491 0.31500 0.30624 -0.01500
C 	C 	0.71411 0.36505 0.28357 -0.00400
H 	H 	0.72274 0.43032 0.15103 0.08700
H 	H 	0.74411 0.45103 0.23242 0.10900
H 	H 	0.65041 0.23625 0.14898 0.09900
H 	H 	0.64939 0.19935 0.21922 0.10400
H 	H 	0.65930 0.21729 0.30039 0.08700
H 	H 	0.73145 0.41094 0.30163 0.12600
C 	C 	0.85109 0.62595 0.45265 0.03400
C 	C 	0.83032 0.65045 0.48238 0.10400
C 	C 	0.78430 0.61053 0.50738 -0.09400
C 	C 	0.76193 0.54707 0.50310 0.07700
C 	C 	0.77963 0.52125 0.47133 0.01100
C 	C 	0.82329 0.56094 0.44455 -0.05700
C 	C 	0.85318 0.71680 0.48404 0.08800
C 	C 	0.75441 0.63351 0.53524 0.79000
H 	H 	0.72847 0.51673 0.52324 0.09900
C 	C 	0.83943 0.53463 0.40680 0.77900
H 	H 	0.88719 0.65742 0.43435 0.13400
C 	C 	0.91195 0.76795 0.51137 -0.06500
C 	C 	0.93549 0.83036 0.50813 0.04900
C 	C 	0.90420 0.84254 0.47608 0.08800
C 	C 	0.84594 0.79112 0.44810 -0.07400
C 	C 	0.81963 0.72890 0.45405 0.05600
C 	C 	0.95306 0.75636 0.54039 0.75500
H 	H 	0.98000 0.86986 0.52923 0.14500
C 	C 	0.81154 0.80204 0.41203 0.78500
H 	H 	0.77418 0.68930 0.43392 0.13400
F 	F 	0.87819 0.51890 0.42364 -0.38300
F 	F 	0.87198 0.57842 0.37999 -0.39200
F 	F 	0.78385 0.48183 0.38039 -0.43700
F 	F 	0.71563 0.64128 0.50771 -0.38300
F 	F 	0.80149 0.69068 0.56293 -0.35800
F 	F 	0.71719 0.59075 0.56140 -0.38100
F 	F 	0.76336 0.74604 0.38347 -0.36700
F 	F 	0.85417 0.84273 0.38705 -0.38800
F 	F 	0.78386 0.82760 0.43103 -0.35100
F 	F 	0.00230 0.81086 0.56975 -0.31400
F 	F 	0.97996 0.73630 0.51399 -0.39200
F 	F 	0.91656 0.71067 0.56494 -0.36700
C 	C 	0.86946 0.19376 0.46007 0.03600
C 	C 	0.82467 0.12803 0.44601 0.09900
C 	C 	0.75860 0.10043 0.43340 -0.09500
C 	C 	0.73877 0.13958 0.43617 0.07900
C 	C 	0.78324 0.20511 0.45182 0.00600
C 	C 	0.84951 0.23277 0.46390 -0.05900
C 	C 	0.84721 0.08822 0.44799 0.09800
C 	C 	0.70851 0.02892 0.42098 0.78900
H 	H 	0.68817 0.11882 0.42783 0.10400
C 	C 	0.89905 0.30363 0.48081 0.78000
H 	H 	0.91986 0.21418 0.46917 0.13600
C 	C 	0.87540 0.07991 0.41375 -0.08500
C 	C 	0.90221 0.04739 0.41912 0.07700
C 	C 	0.90199 0.02388 0.45793 0.03300
C 	C 	0.87365 0.03206 0.49213 -0.05100
C 	C 	0.84533 0.06314 0.48627 0.04100
C 	C 	0.88227 0.11044 0.37334 0.78900
H 	H 	0.92517 0.04194 0.39361 0.11400
C 	C 	0.87289 0.00729 0.53461 0.75300
H 	H 	0.82314 0.06943 0.51199 0.13200
F 	F 	0.95939 0.31975 0.49559 -0.38000
F 	F 	0.88159 0.32318 0.51582 -0.43700
F 	F 	0.90354 0.33595 0.44708 -0.37700
F 	F 	0.70106 0.00272 0.45859 -0.39300
F 	F 	0.72694 0.00298 0.39113 -0.36300
F 	F 	0.64948 0.01245 0.40161 -0.37800
F 	F 	0.85195 0.02828 0.56613 -0.37400
F 	F 	0.93403 0.02776 0.55254 -0.38000
F 	F 	0.83191 0.94180 0.52574 -0.32900
F 	F 	0.89864 0.08639 0.34027 -0.36800
F 	F 	0.92992 0.17501 0.38518 -0.38900
F 	F 	0.82524 0.09959 0.35597 -0.36700
C 	C 	0.21286 0.10056 0.49818 0.05000
C 	C 	0.23270 0.11449 0.45762 0.09000
C 	C 	0.18651 0.09301 0.41881 -0.07500
C 	C 	0.12105 0.05757 0.42170 0.06000
C 	C 	0.10154 0.04512 0.46249 0.06800
C 	C 	0.14786 0.06835 0.50142 -0.06700
C 	C 	0.30202 0.15029 0.45605 0.10100
C 	C 	0.20631 0.10400 0.37395 0.78600
H 	H 	0.08492 0.03873 0.39211 0.12900
C 	C 	0.12786 0.05685 0.54614 0.76000
H 	H 	0.24842 0.11533 0.52728 0.12900
C 	C 	0.34458 0.21715 0.46897 -0.09400
C 	C 	0.41065 0.24876 0.46985 0.08300
C 	C 	0.43426 0.21531 0.45641 0.01000
C 	C 	0.39137 0.14888 0.44170 -0.05400
C 	C 	0.32593 0.11674 0.44362 0.03800
C 	C 	0.32052 0.25440 0.48487 0.79000
H 	H 	0.44415 0.29949 0.48163 0.10800
C 	C 	0.41545 0.11197 0.42519 0.77800
H 	H 	0.29325 0.06548 0.43533 0.13400
F 	F 	0.08742 0.07333 0.55237 -0.35500
F 	F 	0.18039 0.09242 0.58049 -0.36100
F 	F 	0.09624 0.99352 0.54816 -0.34900
F 	F 	0.22467 0.06642 0.36091 -0.38400
F 	F 	0.25704 0.16685 0.37599 -0.36300
F 	F 	0.15633 0.08906 0.34195 -0.35800
F 	F 	0.44977 0.10917 0.46050 -0.41300
F 	F 	0.45473 0.14109 0.39495 -0.42000
F 	F 	0.36518 0.05068 0.40445 -0.37500
F 	F 	0.36651 0.31887 0.48772 -0.36800
F 	F 	0.30558 0.24358 0.52633 -0.38500
F 	F 	0.26642 0.23642 0.45603 -0.36100
C 	C 	0.85313 0.65152 0.99554 0.03100
C 	C 	0.81991 0.66943 0.97145 0.10200
C 	C 	0.75756 0.62252 0.94626 -0.09500
C 	C 	0.72909 0.55839 0.94699 0.08300
C 	C 	0.76086 0.54079 0.97315 0.01100
C 	C 	0.82339 0.58757 0.99788 -0.05900
C 	C 	0.85118 0.73762 0.97271 0.08500
C 	C 	0.72274 0.64045 0.91691 0.79000
H 	H 	0.68190 0.52183 0.92733 0.10600
C 	C 	0.85846 0.56932 0.02649 0.78700
H 	H 	0.90178 0.68781 0.01317 0.14000
C 	C 	0.85132 0.77504 0.00871 -0.07000
C 	C 	0.88580 0.84056 0.01020 0.06800
C 	C 	0.91719 0.86837 0.97567 0.06900
C 	C 	0.91300 0.83014 0.93823 -0.06400
C 	C 	0.88316 0.76569 0.93844 0.05200
C 	C 	0.81906 0.74629 0.04715 0.78600
H 	H 	0.88974 0.87044 0.03879 0.13100
C 	C 	0.94228 0.85819 0.89880 0.75300
H 	H 	0.88446 0.73702 0.91181 0.13000
F 	F 	0.82081 0.53309 0.05545 -0.42400
F 	F 	0.91606 0.62199 0.05130 -0.37800
F 	F 	0.87146 0.53472 0.99989 -0.41500
F 	F 	0.75355 0.66278 0.88174 -0.38700
F 	F 	0.72205 0.68690 0.94056 -0.36300
F 	F 	0.65957 0.58908 0.90013 -0.37300
F 	F 	0.00810 0.89040 0.90865 -0.34100
F 	F 	0.92912 0.89948 0.88828 -0.35200
F 	F 	0.91763 0.81140 0.86179 -0.35900
F 	F 	0.81417 0.78738 0.07421 -0.36000
F 	F 	0.85477 0.73280 0.07225 -0.38400
F 	F 	0.75758 0.69115 0.03192 -0.36600
C 	C 	0.75915 0.08832 0.00030 0.04700
C 	C 	0.82549 0.13430 0.00366 0.09900
C 	C 	0.85094 0.19872 0.00526 -0.10300
C 	C 	0.80854 0.21491 0.00079 0.09100
C 	C 	0.74217 0.16867 0.99661 -0.01100
C 	C 	0.71744 0.10539 0.99895 -0.05400
C 	C 	0.86704 0.11360 0.00180 0.09900
C 	C 	0.92240 0.24937 0.00768 0.79500
H 	H 	0.82687 0.26323 0.99897 0.07400
C 	C 	0.64637 0.05546 0.99809 0.77100
H 	H 	0.74006 0.03904 0.99815 0.12800
C 	C 	0.88750 0.09906 0.03960 -0.08100
C 	C 	0.92151 0.07363 0.03520 0.06300
C 	C 	0.93690 0.06447 0.99444 0.06600
C 	C 	0.91875 0.08134 0.95715 -0.07000
C 	C 	0.88277 0.10466 0.96108 0.04000
C 	C 	0.86862 0.10553 0.08367 0.78700
H 	H 	0.93469 0.05931 0.06325 0.12300
C 	C 	0.93605 0.07266 0.91291 0.75600
H 	H 	0.86598 0.11509 0.93235 0.12800
F 	F 	0.62357 0.07911 0.02574 -0.38300
F 	F 	0.63508 0.00237 0.01224 -0.36300
F 	F 	0.61261 0.03731 0.95542 -0.38700
F 	F 	0.93806 0.24450 0.96680 -0.40500
F 	F 	0.95854 0.24266 0.03887 -0.36900
F 	F 	0.93901 0.30954 0.01945 -0.38400
F 	F 	0.90637 0.00906 0.89786 -0.37600
F 	F 	0.00190 0.10567 0.91765 -0.34300
F 	F 	0.91683 0.09472 0.88121 -0.37400
F 	F 	0.90446 0.10260 0.11787 -0.36600
F 	F 	0.80441 0.05690 0.08163 -0.38500
F 	F 	0.87863 0.16293 0.09369 -0.36800
C 	C 	0.34120 0.12270 0.96353 0.03600
C 	C 	0.32698 0.15680 0.99060 0.10000
C 	C 	0.37748 0.21591 0.01748 -0.09300
C 	C 	0.44140 0.23955 0.01646 0.09000
C 	C 	0.45557 0.20683 0.98796 0.00100
C 	C 	0.40521 0.14821 0.96069 -0.04800
C 	C 	0.25888 0.12899 0.99171 0.08400
C 	C 	0.36349 0.25196 0.04923 0.79000
H 	H 	0.48054 0.28364 0.03792 0.08200
C 	C 	0.41961 0.11270 0.92891 0.77600
H 	H 	0.30212 0.07653 0.94439 0.13800
C 	C 	0.22133 0.13381 0.95859 -0.06900
C 	C 	0.15609 0.10424 0.95997 0.06300
C 	C 	0.12889 0.07251 0.99446 0.07600
C 	C 	0.16764 0.07161 0.02910 -0.06400
C 	C 	0.23132 0.09666 0.02590 0.06100
C 	C 	0.24924 0.16621 0.92008 0.78600
H 	H 	0.12576 0.10418 0.93349 0.15400
C 	C 	0.14066 0.04179 0.06860 0.76100
H 	H 	0.25991 0.09163 0.05028 0.13000
F 	F 	0.36421 0.06034 0.90183 -0.37500
F 	F 	0.44958 0.09223 0.95257 -0.39600
F 	F 	0.45945 0.15205 0.90211 -0.41900
F 	F 	0.34106 0.22072 0.08408 -0.38700
F 	F 	0.31786 0.25662 0.02796 -0.36000
F 	F 	0.41807 0.31292 0.06626 -0.38000
F 	F 	0.10383 0.97660 0.05685 -0.34800
F 	F 	0.10306 0.05842 0.08297 -0.37200
F 	F 	0.18939 0.06186 0.10371 -0.35900
F 	F 	0.20891 0.17551 0.89608 -0.35100
F 	F 	0.25783 0.12902 0.89206 -0.38100
F 	F 	0.30772 0.22490 0.93511 -0.36800
