data_crystal

_cell_length_a 26.30840
_cell_length_b 26.44030
_cell_length_c 26.62835
_cell_angle_alpha 95.49633
_cell_angle_beta  95.49363
_cell_angle_gamma 125.83030

_symmetry_space_group_name_	'P 1'
_symmetry_space_group_name_H-M	'P 1'

loop_
_symmetry_equiv_pos_as_xyz
  x,y,z

loop_
_atom_site_label
_atom_site_type_symbol
_atom_site_fract_x
_atom_site_fract_y
_atom_site_fract_z
_atom_site_charge
C 	C 	0.97050 0.03461 0.98703 0.28800
C 	C 	0.03432 0.06784 0.98095 -0.15900
C 	C 	0.06206 0.03603 0.97624 0.27900
C 	C 	0.02565 0.97091 0.97733 -0.17100
C 	C 	0.96158 0.93742 0.98231 0.28100
C 	C 	0.93409 0.96932 0.98738 -0.16500
H 	H 	0.06232 0.11819 0.98014 0.17100
H 	H 	0.04715 0.94635 0.97427 0.16700
H 	H 	0.88452 0.94341 0.99140 0.16700
C 	C 	0.93539 0.99921 0.44706 0.23500
C 	C 	0.90042 0.93430 0.44911 -0.12600
C 	C 	0.93191 0.90630 0.45463 0.24800
C 	C 	0.99825 0.94325 0.45823 -0.12700
C 	C 	0.03320 0.00793 0.45612 0.25100
C 	C 	0.00180 0.03592 0.45064 -0.12700
H 	H 	0.84907 0.90576 0.44623 0.15900
H 	H 	0.02256 0.92157 0.46228 0.15000
H 	H 	0.02892 0.08607 0.44918 0.15900
Cu	Cu	0.64331 0.24721 0.00772 0.94400
Cu	Cu	0.69462 0.24589 0.90028 0.90700
Cu	Cu	0.68049 0.34568 0.93883 0.91500
Cu	Cu	0.64212 0.36439 0.03756 0.92200
C 	C 	0.66138 0.29882 0.11359 0.33500
O 	O 	0.54973 0.20845 0.00465 -0.28600
C 	C 	0.66397 0.30038 0.82748 0.33900
O 	O 	0.69414 0.34563 0.01074 -0.63400
O 	O 	0.63628 0.25233 0.93390 -0.63300
O 	O 	0.68306 0.20210 0.00770 -0.29000
O 	O 	0.75378 0.26527 0.95918 -0.37700
O 	O 	0.63145 0.32258 0.09833 -0.33200
O 	O 	0.72800 0.43699 0.94896 -0.31500
C 	C 	0.72075 0.47158 0.98241 0.39200
C 	C 	0.52436 0.23429 0.98468 0.37100
O 	O 	0.56160 0.29312 0.97762 -0.33900
O 	O 	0.67756 0.44557 0.01213 -0.31300
O 	O 	0.66308 0.25891 0.08115 -0.28900
C 	C 	0.73661 0.22523 0.99082 0.37400
O 	O 	0.68160 0.34760 0.86478 -0.31000
O 	O 	0.65575 0.24844 0.83741 -0.36900
H 	H 	0.73953 0.37360 0.02804 0.21100
H 	H 	0.59220 0.22595 0.91381 0.21100
Cu	Cu	0.73222 0.33532 0.43713 0.94200
Cu	Cu	0.73449 0.28423 0.54427 0.90800
Cu	Cu	0.63041 0.29177 0.50384 0.91500
Cu	Cu	0.60974 0.32770 0.40501 0.92900
C 	C 	0.68501 0.32093 0.33069 0.33700
O 	O 	0.76557 0.42741 0.44040 -0.29700
C 	C 	0.67505 0.30990 0.61567 0.33700
O 	O 	0.63265 0.27925 0.43228 -0.63700
O 	O 	0.72499 0.34035 0.51043 -0.63000
O 	O 	0.78114 0.29932 0.43822 -0.30600
O 	O 	0.71788 0.22666 0.48548 -0.37900
O 	O 	0.65588 0.34517 0.34601 -0.31500
O 	O 	0.53826 0.24032 0.49234 -0.31700
C 	C 	0.50213 0.24749 0.46046 0.40300
C 	C 	0.73531 0.44836 0.45933 0.38700
O 	O 	0.67683 0.40755 0.46649 -0.34100
O 	O 	0.52538 0.28610 0.42705 -0.31500
O 	O 	0.72252 0.31678 0.36392 -0.31100
C 	C 	0.75847 0.24546 0.45402 0.39600
O 	O 	0.62737 0.29016 0.57772 -0.31300
O 	O 	0.72865 0.32057 0.60672 -0.36800
H 	H 	0.60683 0.23422 0.41491 0.21300
H 	H 	0.74934 0.38391 0.53076 0.21300
C 	C 	0.60955 0.25871 0.73581 -0.07100
C 	C 	0.66030 0.30877 0.77369 -0.10000
C 	C 	0.71158 0.36315 0.75906 0.35900
C 	C 	0.71423 0.36520 0.70700 -0.07200
C 	C 	0.66557 0.31327 0.66917 -0.10100
C 	C 	0.61197 0.26096 0.68375 0.35900
F 	F 	0.56414 0.21060 0.64762 -0.38700
H 	H 	0.56935 0.21698 0.74671 0.13600
H 	H 	0.75531 0.40614 0.69612 0.13400
F 	F 	0.76077 0.41230 0.79521 -0.38800
C 	C 	0.65597 0.25533 0.24478 -0.07200
C 	C 	0.68983 0.31544 0.27625 -0.09500
C 	C 	0.72165 0.37008 0.25427 0.36700
C 	C 	0.71589 0.36445 0.20095 -0.07400
C 	C 	0.67837 0.30427 0.16913 -0.09400
C 	C 	0.65008 0.24962 0.19131 0.36800
F 	F 	0.61378 0.19101 0.16108 -0.37000
H 	H 	0.63176 0.21296 0.26152 0.13300
H 	H 	0.73856 0.40685 0.18423 0.12400
F 	F 	0.75606 0.42860 0.28451 -0.38100
C 	C 	0.85210 0.75263 0.50437 0.25400
C 	C 	0.84113 0.71062 0.46088 -0.00200
C 	C 	0.85602 0.73211 0.41446 0.25300
C 	C 	0.88301 0.79549 0.41181 0.29900
C 	C 	0.89551 0.83794 0.45562 -0.15700
C 	C 	0.87925 0.81611 0.50175 0.30100
C 	C 	0.81337 0.64392 0.46370 0.01000
F 	F 	0.84502 0.69167 0.37209 -0.31500
F 	F 	0.89122 0.85681 0.54432 -0.32900
C 	C 	0.74815 0.59618 0.44492 0.24200
C 	C 	0.72247 0.53245 0.44422 0.32400
C 	C 	0.76180 0.51586 0.46280 -0.19400
C 	C 	0.82691 0.56387 0.48259 0.32500
C 	C 	0.85259 0.62766 0.48297 0.24200
F 	F 	0.70988 0.61154 0.42640 -0.31400
F 	F 	0.86520 0.54874 0.50157 -0.35200
F 	F 	0.65981 0.48665 0.42383 -0.36200
F 	F 	0.91572 0.67363 0.50143 -0.31400
F 	F 	0.83699 0.73203 0.54922 -0.31300
F 	F 	0.89834 0.81611 0.36699 -0.33300
C 	C 	0.87241 0.08339 0.39251 0.25900
C 	C 	0.85221 0.09751 0.43504 -0.00300
C 	C 	0.85596 0.07606 0.48052 0.25400
C 	C 	0.88114 0.04202 0.48388 0.29600
C 	C 	0.90275 0.02917 0.44176 -0.14400
C 	C 	0.89755 0.04930 0.39583 0.29700
C 	C 	0.82835 0.13588 0.43243 0.01000
F 	F 	0.83617 0.08918 0.52174 -0.32300
F 	F 	0.91768 0.03652 0.35470 -0.32200
C 	C 	0.76245 0.10596 0.42210 0.24000
C 	C 	0.73957 0.14219 0.42586 0.32300
C 	C 	0.78247 0.20871 0.44017 -0.20300
C 	C 	0.84853 0.23881 0.44760 0.32100
C 	C 	0.87134 0.20248 0.44382 0.23900
F 	F 	0.72057 0.04165 0.40980 -0.31400
F 	F 	0.89058 0.30302 0.46115 -0.35000
F 	F 	0.67566 0.11263 0.41674 -0.35200
F 	F 	0.93521 0.23186 0.45304 -0.31600
F 	F 	0.86828 0.10332 0.34819 -0.30800
F 	F 	0.88610 0.02294 0.52847 -0.33000
C 	C 	0.33041 0.11528 0.46331 0.24200
C 	C 	0.30358 0.14813 0.46460 0.01000
C 	C 	0.34246 0.21395 0.46640 0.24200
C 	C 	0.40758 0.24662 0.46596 0.32600
C 	C 	0.43433 0.21363 0.46367 -0.19300
C 	C 	0.39558 0.14790 0.46290 0.32600
C 	C 	0.23447 0.11335 0.46266 -0.00100
F 	F 	0.31698 0.24616 0.46832 -0.31300
F 	F 	0.42073 0.11540 0.46030 -0.34700
C 	C 	0.20932 0.09859 0.50773 0.25400
C 	C 	0.14361 0.06505 0.50575 0.30000
C 	C 	0.10267 0.04610 0.45867 -0.15800
C 	C 	0.12793 0.06144 0.41369 0.30200
C 	C 	0.19361 0.09492 0.41567 0.25400
F 	F 	0.24860 0.11668 0.55338 -0.31300
F 	F 	0.08864 0.04304 0.36798 -0.32600
F 	F 	0.11960 0.05070 0.54948 -0.33300
F 	F 	0.21761 0.10909 0.37192 -0.31200
F 	F 	0.29308 0.05159 0.46164 -0.31300
F 	F 	0.44486 0.31042 0.46820 -0.34000
C 	C 	0.85435 0.64350 0.98381 0.24100
C 	C 	0.82106 0.66985 0.98114 0.01100
C 	C 	0.75471 0.63092 0.97823 0.24100
C 	C 	0.72181 0.56604 0.97826 0.32400
C 	C 	0.75513 0.53961 0.98136 -0.19300
C 	C 	0.82152 0.57859 0.98387 0.32300
C 	C 	0.85566 0.73821 0.98127 -0.00900
F 	F 	0.72214 0.65601 0.97515 -0.31500
F 	F 	0.85432 0.55376 0.98735 -0.35200
C 	C 	0.86895 0.76111 0.93521 0.25300
C 	C 	0.90257 0.82612 0.93541 0.30600
C 	C 	0.92312 0.86867 0.98170 -0.17700
C 	C 	0.90915 0.84567 0.02768 0.31300
C 	C 	0.87553 0.78063 0.02746 0.26000
F 	F 	0.84943 0.72029 0.89032 -0.31500
F 	F 	0.92902 0.88651 0.07263 -0.32900
F 	F 	0.91551 0.84793 0.89073 -0.33100
F 	F 	0.86267 0.75880 0.07215 -0.31200
F 	F 	0.91857 0.68093 0.98665 -0.31700
F 	F 	0.65741 0.52859 0.97436 -0.34300
C 	C 	0.89643 0.10731 0.04502 0.25000
C 	C 	0.87867 0.12419 0.00200 0.01200
C 	C 	0.89352 0.11406 0.95457 0.23800
C 	C 	0.92480 0.08606 0.94994 0.31000
C 	C 	0.94151 0.06805 0.99272 -0.18000
C 	C 	0.92780 0.07936 0.04042 0.32100
C 	C 	0.84261 0.15048 0.00607 0.01300
F 	F 	0.87667 0.13046 0.91282 -0.32400
F 	F 	0.94442 0.06275 0.08214 -0.32300
C 	C 	0.87469 0.21640 0.01388 0.24300
C 	C 	0.84002 0.24111 0.01180 0.31800
C 	C 	0.77291 0.19999 0.00166 -0.18100
C 	C 	0.74095 0.13409 0.99646 0.30800
C 	C 	0.77573 0.10950 0.99865 0.23500
F 	F 	0.93945 0.25641 0.02222 -0.31200
F 	F 	0.67617 0.09371 0.98669 -0.34900
F 	F 	0.87155 0.30497 0.01879 -0.34600
F 	F 	0.74440 0.04568 0.99179 -0.31700
F 	F 	0.88268 0.11740 0.09111 -0.30500
F 	F 	0.93773 0.07520 0.90367 -0.33800
C 	C 	0.20991 0.07935 0.92656 0.25300
C 	C 	0.25809 0.12509 0.96806 -0.00800
C 	C 	0.24209 0.14589 0.01006 0.25900
C 	C 	0.17812 0.11850 0.01192 0.31100
C 	C 	0.12969 0.07100 0.97128 -0.17300
C 	C 	0.14602 0.05294 0.92791 0.30400
C 	C 	0.32478 0.14848 0.96900 -0.00100
F 	F 	0.28853 0.19149 0.04967 -0.31600
F 	F 	0.09976 0.00860 0.88765 -0.33000
C 	C 	0.36045 0.18888 0.93579 0.24200
C 	C 	0.42474 0.21397 0.93885 0.31700
C 	C 	0.45445 0.20023 0.97616 -0.20100
C 	C 	0.41790 0.15792 0.00820 0.32600
C 	C 	0.35328 0.13174 0.00419 0.24800
F 	F 	0.33304 0.20467 0.90115 -0.31200
F 	F 	0.44551 0.14408 0.04457 -0.33900
F 	F 	0.45829 0.25194 0.90576 -0.35700
F 	F 	0.31856 0.09106 0.03533 -0.31400
F 	F 	0.22491 0.05929 0.88560 -0.31000
F 	F 	0.16300 0.13641 0.05403 -0.33700
