data_crystal

_cell_length_a 18.38085
_cell_length_b 18.86708
_cell_length_c 39.67262
_cell_angle_alpha 95.43761
_cell_angle_beta  95.43721
_cell_angle_gamma 126.42846

_symmetry_space_group_name_	'P 1'
_symmetry_space_group_name_H-M	'P 1'

loop_
_symmetry_equiv_pos_as_xyz
  x,y,z

loop_
_atom_site_label
_atom_site_type_symbol
_atom_site_fract_x
_atom_site_fract_y
_atom_site_fract_z
_atom_site_charge
C 	C 	0.90752 0.00140 0.96973 0.10900
N 	N 	0.99795 0.05482 0.96763 -0.13700
C 	C 	0.04517 0.02070 0.96659 0.12000
N 	N 	0.00164 0.93256 0.96691 -0.11900
C 	C 	0.91100 0.87816 0.96858 0.11700
N 	N 	0.86371 0.91271 0.97047 -0.12300
C 	C 	0.93898 0.02491 0.49023 0.10100
N 	N 	0.03124 0.06982 0.49321 -0.12400
C 	C 	0.06691 0.02415 0.49387 0.11200
N 	N 	0.01052 0.93408 0.49196 -0.11700
C 	C 	0.91822 0.88899 0.48834 0.11500
N 	N 	0.88259 0.93458 0.48767 -0.12400
Cu	Cu	0.76851 0.35466 0.96867 0.92700
Cu	Cu	0.75449 0.29252 0.04374 0.87100
Cu	Cu	0.61761 0.30914 0.00931 0.89900
Cu	Cu	0.59666 0.34381 0.93834 0.89900
C 	C 	0.70575 0.31724 0.89552 0.29200
O 	O 	0.82020 0.48456 0.96623 -0.35300
C 	C 	0.67306 0.34813 0.08571 0.29100
O 	O 	0.62435 0.27930 0.96268 -0.63700
O 	O 	0.75291 0.37149 0.01661 -0.64300
O 	O 	0.82902 0.29524 0.97544 -0.36300
O 	O 	0.72688 0.20234 0.00743 -0.43700
O 	O 	0.66758 0.35736 0.90117 -0.38100
O 	O 	0.48526 0.24019 0.99995 -0.37800
C 	C 	0.43533 0.23596 0.97246 0.29500
C 	C 	0.77600 0.51655 0.97518 0.28000
O 	O 	0.68974 0.46103 0.97827 -0.38700
O 	O 	0.47323 0.28986 0.95019 -0.38400
O 	O 	0.76071 0.32040 0.92066 -0.35600
C 	C 	0.78665 0.22000 0.98755 0.28900
O 	O 	0.60945 0.32247 0.05848 -0.38000
O 	O 	0.74731 0.35418 0.08264 -0.41600
H 	H 	0.58604 0.21414 0.95333 0.17000
H 	H 	0.78997 0.43459 0.02879 0.17900
Cu	Cu	0.61975 0.20545 0.50872 0.92900
Cu	Cu	0.67392 0.21475 0.43235 0.86900
Cu	Cu	0.63162 0.33203 0.46395 0.89700
Cu	Cu	0.63681 0.37692 0.53908 0.90200
C 	C 	0.67181 0.27544 0.58143 0.29600
O 	O 	0.49141 0.15972 0.51576 -0.35400
C 	C 	0.59690 0.27658 0.38881 0.28200
O 	O 	0.69037 0.34346 0.50976 -0.63600
O 	O 	0.58892 0.20664 0.46010 -0.64400
O 	O 	0.67445 0.14216 0.50063 -0.36600
O 	O 	0.76726 0.23966 0.46770 -0.43600
O 	O 	0.62757 0.30949 0.57616 -0.37900
O 	O 	0.66377 0.45185 0.46850 -0.37700
C 	C 	0.70745 0.51573 0.49627 0.29400
C 	C 	0.45477 0.19921 0.50633 0.27700
O 	O 	0.50781 0.28396 0.50321 -0.39200
O 	O 	0.70498 0.49761 0.52761 -0.38600
O 	O 	0.66996 0.22365 0.55609 -0.35600
C 	C 	0.74868 0.17998 0.48690 0.29300
O 	O 	0.58699 0.31725 0.41500 -0.37200
O 	O 	0.60507 0.21264 0.39240 -0.41600
H 	H 	0.75851 0.38325 0.51386 0.16400
H 	H 	0.52319 0.16144 0.44923 0.17500
C 	C 	0.70094 0.27493 0.61716 -0.08100
C 	C 	0.66821 0.19341 0.62771 0.02800
C 	C 	0.67974 0.19075 0.66282 -0.06600
C 	C 	0.72429 0.26950 0.68751 0.04300
C 	C 	0.76268 0.35172 0.67689 -0.06600
C 	C 	0.75093 0.35445 0.64184 0.02000
C 	C 	0.72007 0.26463 0.72334 -0.01700
C 	C 	0.71766 0.26282 0.75352 -0.01700
C 	C 	0.71252 0.26284 0.78950 0.04300
C 	C 	0.79310 0.30663 0.81436 -0.06600
C 	C 	0.79028 0.32019 0.84936 0.02500
C 	C 	0.70680 0.29041 0.85963 -0.08000
C 	C 	0.62550 0.24243 0.83480 0.01900
C 	C 	0.62838 0.22859 0.79987 -0.06600
H 	H 	0.62987 0.13160 0.60888 0.04500
H 	H 	0.65053 0.12698 0.67084 0.05500
H 	H 	0.79809 0.41303 0.69583 0.05400
H 	H 	0.77747 0.41787 0.63395 0.02600
H 	H 	0.85837 0.33298 0.80654 0.05400
H 	H 	0.85346 0.35697 0.86830 0.04400
H 	H 	0.56054 0.21814 0.84247 0.02900
H 	H 	0.56571 0.19416 0.78080 0.05400
C 	C 	0.65633 0.36201 0.12055 -0.08700
C 	C 	0.56581 0.31406 0.12669 0.01700
C 	C 	0.54999 0.31459 0.16047 -0.06800
C 	C 	0.62433 0.36325 0.18831 0.04100
C 	C 	0.71459 0.41625 0.18220 -0.06900
C 	C 	0.73063 0.41586 0.14845 0.01900
C 	C 	0.60848 0.34959 0.22276 -0.01900
C 	C 	0.59588 0.33856 0.25170 -0.01800
C 	C 	0.58216 0.32254 0.28611 0.04100
C 	C 	0.62794 0.39483 0.31396 -0.06700
C 	C 	0.62766 0.37942 0.34779 0.01600
C 	C 	0.58239 0.29162 0.35389 -0.08600
C 	C 	0.53191 0.21910 0.32594 0.01900
C 	C 	0.53181 0.23459 0.29219 -0.06900
H 	H 	0.50773 0.27307 0.10544 0.04000
H 	H 	0.47997 0.27413 0.16500 0.05300
H 	H 	0.77242 0.45498 0.20362 0.05100
H 	H 	0.80078 0.45513 0.14408 0.03500
H 	H 	0.66654 0.46303 0.30945 0.05400
H 	H 	0.66626 0.43589 0.36916 0.03400
H 	H 	0.49508 0.15092 0.33033 0.03400
H 	H 	0.49546 0.17832 0.27077 0.05100
C 	C 	0.75439 0.60938 0.49209 -0.07900
C 	C 	0.81379 0.64286 0.46835 0.00600
C 	C 	0.86462 0.73335 0.46572 -0.02800
C 	C 	0.85756 0.79171 0.48760 0.00200
C 	C 	0.79453 0.75724 0.51003 -0.04400
C 	C 	0.74203 0.66631 0.51205 0.02300
H 	H 	0.82126 0.59859 0.45222 0.03200
H 	H 	0.78727 0.80155 0.52624 0.05700
C 	C 	0.67339 0.63142 0.53369 0.07800
C 	C 	0.92185 0.76521 0.43989 0.09200
N 	N 	0.61842 0.60355 0.55102 -0.11200
N 	N 	0.96769 0.79076 0.41920 -0.11300
C 	C 	0.89986 0.07370 0.48970 0.00400
C 	C 	0.88422 0.10091 0.52052 -0.04900
C 	C 	0.83640 0.13734 0.52011 0.02400
C 	C 	0.80281 0.14569 0.48841 -0.08800
C 	C 	0.82135 0.12124 0.45772 0.00700
C 	C 	0.86968 0.08544 0.45822 -0.03200
H 	H 	0.90826 0.09258 0.54479 0.05100
H 	H 	0.79668 0.12867 0.43336 0.01600
C 	C 	0.88692 0.05966 0.42625 0.08800
C 	C 	0.82465 0.16838 0.55236 0.07600
N 	N 	0.90072 0.03898 0.40065 -0.11400
N 	N 	0.81554 0.19325 0.57827 -0.10600
C 	C 	0.16666 0.07212 0.49737 0.00100
C 	C 	0.21556 0.07387 0.52719 -0.04400
C 	C 	0.30943 0.11380 0.53022 0.01800
C 	C 	0.35492 0.15148 0.50287 -0.07500
C 	C 	0.30595 0.14982 0.47306 0.00300
C 	C 	0.21215 0.11029 0.47014 -0.02500
H 	H 	0.18043 0.04424 0.54809 0.05300
H 	H 	0.34099 0.17938 0.45213 0.03900
C 	C 	0.16271 0.10768 0.43889 0.09500
C 	C 	0.35915 0.11848 0.56191 0.08000
N 	N 	0.12308 0.10557 0.41386 -0.10600
N 	N 	0.39901 0.12228 0.58729 -0.10600
C 	C 	0.86497 0.78194 0.96850 -0.00200
C 	C 	0.83906 0.74860 0.99885 -0.03400
C 	C 	0.81509 0.66399 0.00211 0.01000
C 	C 	0.81596 0.61130 0.97458 -0.07100
C 	C 	0.84076 0.64424 0.94410 -0.00100
C 	C 	0.86405 0.72843 0.94076 -0.02400
H 	H 	0.84105 0.78997 0.02044 0.05400
H 	H 	0.83913 0.60306 0.92254 0.04500
C 	C 	0.88612 0.75922 0.90861 0.09000
C 	C 	0.79228 0.63282 0.03416 0.07300
N 	N 	0.90386 0.78396 0.88287 -0.11200
N 	N 	0.77399 0.60777 0.05981 -0.11500
C 	C 	0.81367 0.16026 0.98236 -0.08100
C 	C 	0.83735 0.13512 0.01117 0.00300
C 	C 	0.85997 0.07608 0.00709 -0.03200
C 	C 	0.85972 0.04183 0.97387 0.00400
C 	C 	0.83223 0.06382 0.94496 -0.04600
C 	C 	0.80883 0.12238 0.94898 0.02100
H 	H 	0.83895 0.16222 0.03684 0.01900
H 	H 	0.83184 0.03752 0.91935 0.05200
C 	C 	0.77783 0.14119 0.91870 0.07600
C 	C 	0.88575 0.05276 0.03722 0.08700
N 	N 	0.75287 0.15583 0.89433 -0.10700
N 	N 	0.90643 0.03405 0.06134 -0.11700
C 	C 	0.33539 0.18262 0.97026 -0.07800
C 	C 	0.30084 0.19707 0.99795 0.01000
C 	C 	0.20589 0.14627 0.99663 -0.02400
C 	C 	0.14458 0.08006 0.96730 -0.00100
C 	C 	0.17906 0.06626 0.93945 -0.04300
C 	C 	0.27407 0.11720 0.94074 0.01900
H 	H 	0.34805 0.24783 0.02057 0.04300
H 	H 	0.13181 0.01498 0.91696 0.05600
C 	C 	0.30812 0.10013 0.91213 0.06700
C 	C 	0.17190 0.16085 0.02583 0.09100
N 	N 	0.33543 0.08649 0.88923 -0.11900
N 	N 	0.14461 0.17249 0.04920 -0.11000
