data_crystal

_cell_length_a 26.20898
_cell_length_b 26.30855
_cell_length_c 34.95979
_cell_angle_alpha 95.49875
_cell_angle_beta  95.49553
_cell_angle_gamma 125.81907

_symmetry_space_group_name_	'P 1'
_symmetry_space_group_name_H-M	'P 1'

loop_
_symmetry_equiv_pos_as_xyz
  x,y,z

loop_
_atom_site_label
_atom_site_type_symbol
_atom_site_fract_x
_atom_site_fract_y
_atom_site_fract_z
_atom_site_charge
C 	C 	0.95450 0.01717 0.98453 0.11500
N 	N 	0.01804 0.04879 0.98441 -0.12800
C 	C 	0.04244 0.01566 0.97932 0.12200
N 	N 	0.00350 0.95114 0.97500 -0.12900
C 	C 	0.94014 0.91958 0.97530 0.12200
N 	N 	0.91573 0.95262 0.98035 -0.13200
C 	C 	0.95568 0.01574 0.47109 0.11500
N 	N 	0.92544 0.95523 0.47783 -0.13200
C 	C 	0.95825 0.93024 0.48205 0.12000
N 	N 	0.02106 0.96569 0.47912 -0.12700
C 	C 	0.05163 0.02657 0.47336 0.12300
N 	N 	0.01897 0.05158 0.46934 -0.12900
Cu	Cu	0.62610 0.22992 0.00220 0.93300
Cu	Cu	0.66911 0.22614 0.91757 0.87800
Cu	Cu	0.65318 0.32281 0.94748 0.90200
Cu	Cu	0.63538 0.35329 0.02671 0.90600
C 	C 	0.65575 0.28606 0.08336 0.39200
O 	O 	0.53514 0.19750 0.00571 -0.34000
C 	C 	0.63081 0.27833 0.86309 0.37900
O 	O 	0.67999 0.32841 0.00167 -0.64100
O 	O 	0.61089 0.23014 0.94577 -0.63900
O 	O 	0.66090 0.18008 0.99916 -0.34200
O 	O 	0.72952 0.24163 0.96049 -0.42700
O 	O 	0.62767 0.31255 0.07339 -0.35500
O 	O 	0.70087 0.41391 0.95065 -0.35100
C 	C 	0.70370 0.45403 0.97817 0.30000
C 	C 	0.51088 0.22520 0.99159 0.29100
O 	O 	0.54902 0.28295 0.98426 -0.38600
O 	O 	0.67251 0.43504 0.00750 -0.37500
O 	O 	0.65494 0.24553 0.05740 -0.33200
C 	C 	0.71206 0.20034 0.98388 0.29400
O 	O 	0.62795 0.31356 0.89122 -0.34600
O 	O 	0.62931 0.22890 0.86965 -0.37900
H 	H 	0.72697 0.35588 0.01096 0.18000
H 	H 	0.56563 0.20215 0.93203 0.18900
Cu	Cu	0.74770 0.34854 0.45356 0.93300
Cu	Cu	0.73602 0.29101 0.53379 0.87800
Cu	Cu	0.64890 0.31974 0.50444 0.90100
Cu	Cu	0.63080 0.35025 0.42665 0.90800
C 	C 	0.70027 0.33022 0.37210 0.39300
O 	O 	0.78626 0.44200 0.45495 -0.34300
C 	C 	0.68490 0.32996 0.58892 0.38100
O 	O 	0.64822 0.29900 0.45007 -0.63900
O 	O 	0.74126 0.35660 0.50927 -0.64000
O 	O 	0.79258 0.30828 0.45605 -0.34600
O 	O 	0.72157 0.23447 0.48883 -0.42800
O 	O 	0.67725 0.36156 0.38245 -0.35800
O 	O 	0.55748 0.27741 0.49793 -0.35000
C 	C 	0.52097 0.27450 0.46762 0.29500
C 	C 	0.76035 0.46757 0.47030 0.28400
O 	O 	0.69960 0.43091 0.47312 -0.38100
O 	O 	0.54571 0.31231 0.44185 -0.37000
O 	O 	0.73784 0.32691 0.39803 -0.33300
C 	C 	0.76572 0.25308 0.46728 0.29600
O 	O 	0.65259 0.33668 0.56093 -0.34800
O 	O 	0.73234 0.32745 0.58260 -0.38100
H 	H 	0.61920 0.25284 0.43862 0.17900
H 	H 	0.77058 0.40012 0.52532 0.18800
C 	C 	0.71227 0.35676 0.69938 0.22100
C 	C 	0.64924 0.32447 0.70600 -0.00900
C 	C 	0.59880 0.30029 0.67440 0.22700
C 	C 	0.61069 0.30434 0.63619 0.30100
C 	C 	0.67346 0.33398 0.62935 -0.21300
C 	C 	0.72448 0.36250 0.66137 0.30300
C 	C 	0.63564 0.31160 0.74547 -0.00900
F 	F 	0.53799 0.27110 0.68063 -0.35500
F 	F 	0.78587 0.39530 0.65562 -0.39300
C 	C 	0.66029 0.36236 0.77676 0.22700
C 	C 	0.65648 0.35128 0.81512 0.30000
C 	C 	0.62641 0.28892 0.82243 -0.21100
C 	C 	0.59714 0.23755 0.79066 0.30200
C 	C 	0.60276 0.24899 0.75250 0.22200
F 	F 	0.68994 0.42276 0.77010 -0.35500
F 	F 	0.56368 0.17657 0.79679 -0.39100
F 	F 	0.68445 0.40148 0.84526 -0.39000
F 	F 	0.57801 0.19941 0.72242 -0.35900
F 	F 	0.76152 0.38091 0.72973 -0.35900
F 	F 	0.56087 0.27708 0.60574 -0.39000
C 	C 	0.66164 0.23640 0.18066 0.22600
C 	C 	0.69206 0.29468 0.20656 -0.00600
C 	C 	0.71642 0.35092 0.19172 0.22300
C 	C 	0.70768 0.34849 0.15131 0.30400
C 	C 	0.67388 0.28968 0.12535 -0.21300
C 	C 	0.65224 0.23376 0.14021 0.30900
C 	C 	0.69289 0.29600 0.24895 -0.00600
F 	F 	0.74655 0.40764 0.21652 -0.35900
F 	F 	0.61946 0.17649 0.11558 -0.38300
C 	C 	0.75085 0.32452 0.27506 0.22600
C 	C 	0.75300 0.33325 0.31549 0.31000
C 	C 	0.69696 0.31295 0.33008 -0.21500
C 	C 	0.63845 0.28140 0.30390 0.30400
C 	C 	0.63649 0.27325 0.26354 0.22300
F 	F 	0.80540 0.34550 0.26121 -0.35600
F 	F 	0.58368 0.25984 0.31763 -0.40700
F 	F 	0.80998 0.36397 0.34037 -0.38400
F 	F 	0.58011 0.24512 0.23853 -0.35900
F 	F 	0.63920 0.18197 0.19475 -0.35600
F 	F 	0.73080 0.40313 0.13733 -0.40600
C 	C 	0.92571 0.78273 0.51534 -0.05300
C 	C 	0.87125 0.73447 0.48769 0.00500
C 	C 	0.84053 0.75056 0.46162 0.00900
C 	C 	0.86791 0.81480 0.46108 -0.03200
C 	C 	0.92478 0.86332 0.48713 -0.02200
C 	C 	0.95190 0.84692 0.51572 0.02100
C 	C 	0.84812 0.66748 0.48531 0.01900
S 	S 	0.76791 0.69076 0.42959 -0.01600
H 	H 	0.84587 0.82704 0.43974 0.05500
S 	S 	0.01623 0.90582 0.55335 -0.00200
H 	H 	0.94798 0.77033 0.53640 0.05600
C 	C 	0.86064 0.63827 0.45554 -0.00400
C 	C 	0.83402 0.57347 0.45190 -0.00100
C 	C 	0.79633 0.53768 0.47837 -0.08200
C 	C 	0.78896 0.56856 0.51033 0.05400
C 	C 	0.81373 0.63285 0.51313 -0.06700
S 	S 	0.90992 0.68241 0.42288 -0.00700
H 	H 	0.84129 0.55050 0.42787 0.06500
S 	S 	0.75272 0.52868 0.54828 -0.01500
H 	H 	0.80640 0.65600 0.53702 0.06200
H 	H 	0.99283 0.91680 0.58394 0.03900
H 	H 	0.97250 0.71015 0.43872 0.04700
H 	H 	0.79797 0.53470 0.57559 0.05400
H 	H 	0.78061 0.67481 0.39519 0.04900
C 	C 	0.88634 0.09507 0.42913 -0.05600
C 	C 	0.86477 0.10735 0.46142 0.00600
C 	C 	0.86842 0.08480 0.49583 0.00700
C 	C 	0.89620 0.05285 0.49818 -0.03200
C 	C 	0.92031 0.04298 0.46647 -0.02500
C 	C 	0.91386 0.06287 0.43140 0.03100
C 	C 	0.84064 0.14592 0.45948 0.02100
S 	S 	0.83928 0.09715 0.53631 -0.02700
H 	H 	0.90041 0.03698 0.52501 0.05100
S 	S 	0.93839 0.04620 0.38986 -0.02900
H 	H 	0.88242 0.11129 0.40240 0.06200
C 	C 	0.88218 0.21263 0.47243 -0.00600
C 	C 	0.85759 0.24768 0.47312 0.00200
C 	C 	0.79179 0.21685 0.46093 -0.08700
C 	C 	0.75084 0.15060 0.44589 0.06000
C 	C 	0.77542 0.11551 0.44549 -0.06800
S 	S 	0.96482 0.25260 0.48851 -0.01200
H 	H 	0.88936 0.29868 0.48426 0.04700
S 	S 	0.66939 0.11150 0.42622 -0.01300
H 	H 	0.74369 0.06442 0.43465 0.06200
H 	H 	0.88890 0.98745 0.36846 0.05100
H 	H 	0.97643 0.25319 0.52767 0.03900
H 	H 	0.63417 0.08966 0.45518 0.04400
H 	H 	0.88682 0.15480 0.55969 0.04000
C 	C 	0.23168 0.13289 0.50510 -0.05400
C 	C 	0.25115 0.13495 0.46894 0.00800
C 	C 	0.20486 0.10272 0.43412 0.00600
C 	C 	0.13972 0.06834 0.43588 -0.02900
C 	C 	0.12026 0.06563 0.47207 -0.02500
C 	C 	0.16658 0.09865 0.50684 0.03100
C 	C 	0.32012 0.17078 0.46787 0.02200
S 	S 	0.22790 0.10535 0.38825 -0.01500
H 	H 	0.10412 0.04325 0.40911 0.05300
S 	S 	0.14369 0.09791 0.55264 -0.01400
H 	H 	0.26728 0.15802 0.53187 0.06700
C 	C 	0.35779 0.23637 0.46651 -0.00300
C 	C 	0.42322 0.26962 0.46610 0.00700
C 	C 	0.45168 0.23810 0.46710 -0.07400
C 	C 	0.41373 0.17221 0.46789 0.06300
C 	C 	0.34836 0.13910 0.46855 -0.06400
S 	S 	0.32347 0.27724 0.46508 -0.00800
H 	H 	0.45218 0.32021 0.46539 0.05400
S 	S 	0.44680 0.13010 0.46638 -0.02000
H 	H 	0.31927 0.08851 0.46927 0.06500
H 	H 	0.13838 0.04975 0.56851 0.04700
H 	H 	0.30051 0.27229 0.42696 0.04200
H 	H 	0.44298 0.10858 0.42818 0.04600
H 	H 	0.23880 0.15766 0.37501 0.04400
C 	C 	0.83393 0.62741 0.97757 -0.06600
C 	C 	0.79751 0.64958 0.96933 0.02300
C 	C 	0.73010 0.60656 0.96196 -0.00200
C 	C 	0.69992 0.54246 0.96437 0.01100
C 	C 	0.73636 0.52061 0.97359 -0.07500
C 	C 	0.80375 0.56321 0.97976 0.06300
C 	C 	0.83043 0.71838 0.97033 0.00800
S 	S 	0.68311 0.63260 0.95015 -0.00200
H 	H 	0.64805 0.50959 0.95931 0.05200
S 	S 	0.85082 0.53725 0.99153 -0.02000
H 	H 	0.88580 0.66046 0.98305 0.06200
C 	C 	0.84342 0.75920 0.00507 0.00500
C 	C 	0.87726 0.82472 0.00591 -0.03100
C 	C 	0.89891 0.85012 0.97252 -0.02500
C 	C 	0.88450 0.80912 0.93749 0.03100
C 	C 	0.85053 0.74354 0.93662 -0.05500
S 	S 	0.81857 0.72893 0.04784 -0.02100
H 	H 	0.88813 0.85622 0.03282 0.05200
S 	S 	0.90789 0.83923 0.89447 -0.01700
H 	H 	0.83999 0.71207 0.90979 0.06700
H 	H 	0.86303 0.54280 0.03129 0.04700
H 	H 	0.86455 0.72697 0.06821 0.04600
H 	H 	0.96840 0.85720 0.89341 0.04600
H 	H 	0.67304 0.65368 0.98393 0.04400
C 	C 	0.75729 0.08770 0.98335 -0.06800
C 	C 	0.82354 0.13076 0.99716 0.02000
C 	C 	0.85209 0.19595 0.00971 -0.00500
C 	C 	0.81451 0.21771 0.00696 0.00400
C 	C 	0.74861 0.17505 0.99167 -0.08400
C 	C 	0.71971 0.10942 0.98033 0.05600
C 	C 	0.86304 0.10770 0.99587 0.00700
S 	S 	0.93478 0.25072 0.02866 -0.01500
H 	H 	0.83677 0.26808 0.01598 0.05000
S 	S 	0.63737 0.05449 0.96029 -0.01800
H 	H 	0.73526 0.03746 0.97395 0.05900
C 	C 	0.87281 0.08245 0.02712 0.00500
C 	C 	0.90495 0.05502 0.02365 -0.03200
C 	C 	0.92757 0.05261 0.98926 -0.02400
C 	C 	0.91942 0.07956 0.95845 0.02900
C 	C 	0.88742 0.10709 0.96198 -0.05600
S 	S 	0.84436 0.08422 0.07048 -0.01200
H 	H 	0.91139 0.03454 0.04743 0.05100
S 	S 	0.94649 0.07660 0.91468 -0.02600
H 	H 	0.88012 0.12674 0.93799 0.05600
H 	H 	0.62831 0.05118 0.92062 0.03300
H 	H 	0.78242 0.03085 0.06650 0.04800
H 	H 	0.90011 0.02006 0.88987 0.04300
H 	H 	0.94543 0.25288 0.06813 0.05000
C 	C 	0.20742 0.11270 0.95337 -0.05600
C 	C 	0.24221 0.10666 0.98323 0.00800
C 	C 	0.21157 0.07217 0.01235 0.00600
C 	C 	0.14665 0.04411 0.01130 -0.03000
C 	C 	0.11164 0.04966 0.98129 -0.02400
C 	C 	0.14221 0.08394 0.95203 0.02900
C 	C 	0.31099 0.13754 0.98419 0.02200
S 	S 	0.25369 0.06263 0.04975 -0.00500
H 	H 	0.12310 0.01732 0.03363 0.05400
S 	S 	0.09890 0.08883 0.91271 -0.01800
H 	H 	0.23096 0.13913 0.93092 0.05700
C 	C 	0.33125 0.10628 0.96278 -0.00500
C 	C 	0.39676 0.13543 0.96537 0.00500
C 	C 	0.44232 0.19539 0.98931 -0.08200
C 	C 	0.42191 0.22618 0.01118 0.06200
C 	C 	0.35651 0.19759 0.00795 -0.06800
S 	S 	0.27509 0.03047 0.93302 -0.01400
H 	H 	0.41230 0.11151 0.94873 0.04600
S 	S 	0.47744 0.29866 0.04437 -0.02700
H 	H 	0.34089 0.22132 0.02471 0.06400
H 	H 	0.07183 0.03668 0.88358 0.04300
H 	H 	0.25910 0.03761 0.89650 0.04500
H 	H 	0.49681 0.34866 0.02541 0.04100
H 	H 	0.25122 0.01018 0.03707 0.04800
