data_crystal

_cell_length_a 17.07368
_cell_length_b 17.78439
_cell_length_c 64.06269
_cell_angle_alpha 89.53588
_cell_angle_beta  89.54096
_cell_angle_gamma 119.43524

_symmetry_space_group_name_	'P 1'
_symmetry_space_group_name_H-M	'P 1'

loop_
_symmetry_equiv_pos_as_xyz
  x,y,z

loop_
_atom_site_label
_atom_site_type_symbol
_atom_site_fract_x
_atom_site_fract_y
_atom_site_fract_z
_atom_site_charge
C 	C 	0.39801 0.89489 0.00117 0.31500
H 	H 	0.24173 0.63980 0.00291 0.13200
C 	C 	0.46159 0.05478 0.00285 -0.03200
H 	H 	0.52022 0.59462 0.00468 0.07100
O 	O 	0.43646 0.84927 0.00540 -0.37600
O 	O 	0.31662 0.87116 0.00867 -0.36300
N 	N 	0.52770 0.21165 0.00638 -0.02000
O 	O 	0.28957 0.51834 0.01279 -0.34900
O 	O 	0.28086 0.68106 0.01327 -0.69700
O 	O 	0.45434 0.21420 0.01054 -0.09200
O 	O 	0.60478 0.27403 0.01242 -0.09500
Ni	Ni	0.21746 0.74662 0.01438 1.11900
O 	O 	0.46961 0.72135 0.01696 -0.36800
H 	H 	0.42016 0.04567 0.01657 0.07000
O 	O 	0.12751 0.53139 0.02294 -0.36900
O 	O 	0.09254 0.64104 0.02085 -0.36700
C 	C 	0.07462 0.56296 0.02746 0.31800
Ni	Ni	0.25814 0.59166 0.03309 1.11400
C 	C 	0.45130 0.71461 0.03710 0.31700
C 	C 	0.99943 0.51321 0.04106 -0.09900
O 	O 	0.24066 0.76556 0.04525 -0.37900
O 	O 	0.38581 0.64315 0.04494 -0.37100
H 	H 	0.86126 0.29215 0.05009 0.05600
C 	C 	0.50346 0.78444 0.05092 -0.09300
C 	C 	0.94430 0.46473 0.05354 0.05800
C 	C 	0.20134 0.70165 0.05881 0.31500
O 	O 	0.21846 0.63699 0.05894 -0.37100
C 	C 	0.86451 0.31523 0.06584 -0.02700
C 	C 	0.53855 0.83733 0.06439 0.05800
C 	C 	0.88942 0.40198 0.06915 -0.00100
C 	C 	0.09482 0.06828 0.74684 0.29600
C 	C 	0.11652 0.00146 0.69215 0.29800
Ni	Ni	0.00623 0.88992 0.72859 1.11400
Ni	Ni	0.98180 0.04604 0.70842 1.11700
O 	O 	0.06034 0.98472 0.75116 -0.36500
O 	O 	0.09067 0.09655 0.72778 -0.37600
O 	O 	0.12007 0.97160 0.71078 -0.36200
O 	O 	0.05047 0.01600 0.68722 -0.38800
O 	O 	0.93069 0.93505 0.72127 -0.70800
H 	H 	0.92300 0.95221 0.73536 0.14700
C 	C 	0.30239 0.68716 0.38014 0.29100
C 	C 	0.49170 0.66203 0.36484 0.31100
C 	C 	0.51473 0.55742 0.42539 0.31500
C 	C 	0.29856 0.56430 0.44395 0.29800
Ni	Ni	0.49086 0.78955 0.39539 1.11700
Ni	Ni	0.49336 0.70318 0.43993 1.12400
Ni	Ni	0.38018 0.58353 0.40212 1.12300
O 	O 	0.36065 0.76060 0.38899 -0.35900
O 	O 	0.31210 0.61677 0.38073 -0.37000
O 	O 	0.55687 0.63756 0.43192 -0.37700
O 	O 	0.28232 0.54710 0.42376 -0.36900
O 	O 	0.48535 0.73221 0.36682 -0.37600
O 	O 	0.48102 0.61321 0.38122 -0.38400
O 	O 	0.38150 0.59649 0.45156 -0.35300
O 	O 	0.50846 0.87432 0.42000 -0.35100
O 	O 	0.44607 0.78270 0.44874 -0.35700
O 	O 	0.43050 0.52175 0.41937 -0.36300
O 	O 	0.43684 0.69521 0.41380 -0.72000
H 	H 	0.38378 0.69885 0.41854 0.17000
C 	C 	0.23196 0.70991 0.97038 0.29400
Ni	Ni	0.38590 0.72919 0.99567 1.12500
O 	O 	0.18951 0.73441 0.98369 -0.36000
O 	O 	0.32092 0.74463 0.97085 -0.34900
C 	C 	0.90333 0.13222 0.17659 0.31200
C 	C 	0.04380 0.21422 0.22673 0.30800
C 	C 	0.81937 0.86957 0.19578 0.30400
C 	C 	0.95311 0.94100 0.24608 0.30600
Ni	Ni	0.95912 0.04155 0.20715 1.11600
O 	O 	0.86705 0.94984 0.18921 -0.39100
O 	O 	0.83496 0.12104 0.18815 -0.38700
O 	O 	0.97215 0.13014 0.18499 -0.38200
O 	O 	0.97425 0.95577 0.22581 -0.38000
O 	O 	0.05154 0.14470 0.22299 -0.37900
C 	C 	0.91032 0.16472 0.15520 -0.09200
C 	C 	0.97487 0.25013 0.15024 0.01700
C 	C 	0.96380 0.29135 0.13276 -0.06900
C 	C 	0.88733 0.24769 0.12027 0.03100
C 	C 	0.82708 0.15995 0.12424 -0.06800
C 	C 	0.83984 0.11827 0.14139 0.02000
C 	C 	0.87079 0.29405 0.10309 0.00200
C 	C 	0.85724 0.26184 0.08273 -0.03500
C 	C 	0.88889 0.42962 0.08954 -0.03000
C 	C 	0.87930 0.37568 0.10651 -0.03700
H 	H 	0.03056 0.28621 0.16060 0.04100
H 	H 	0.01307 0.35797 0.12929 0.05400
H 	H 	0.76901 0.12484 0.11446 0.04900
H 	H 	0.84748 0.19786 0.07987 0.04600
H 	H 	0.90495 0.49558 0.09230 0.04200
H 	H 	0.88489 0.39958 0.12224 0.04100
C 	C 	0.80938 0.80082 0.18167 -0.08900
C 	C 	0.84109 0.74472 0.18780 0.01700
C 	C 	0.86992 0.70695 0.17270 -0.06600
C 	C 	0.86738 0.72543 0.15143 0.02900
C 	C 	0.82265 0.77036 0.14537 -0.06500
C 	C 	0.79265 0.80693 0.16048 0.01900
C 	C 	0.92476 0.71222 0.13615 -0.00000
C 	C 	0.88936 0.67238 0.11703 -0.03600
C 	C 	0.94650 0.67140 0.10139 -0.03500
C 	C 	0.03898 0.70834 0.10493 -0.00100
C 	C 	0.07409 0.74573 0.12421 -0.03200
C 	C 	0.01740 0.74811 0.13972 -0.03400
C 	C 	0.09785 0.70793 0.08877 0.05100
C 	C 	0.14626 0.70646 0.07518 -0.10200
H 	H 	0.85140 0.73694 0.20417 0.03900
H 	H 	0.90058 0.66897 0.17756 0.04800
H 	H 	0.81750 0.78274 0.12899 0.05100
H 	H 	0.81805 0.64411 0.11411 0.04400
H 	H 	0.91896 0.64258 0.08648 0.04600
H 	H 	0.14549 0.77418 0.12706 0.04400
H 	H 	0.04580 0.78002 0.15429 0.04300
C 	C 	0.49003 0.62856 0.34374 -0.08900
C 	C 	0.50627 0.68237 0.32616 0.02100
C 	C 	0.47760 0.64632 0.30651 -0.06700
C 	C 	0.43382 0.55646 0.30424 0.02800
C 	C 	0.42855 0.50387 0.32124 -0.06400
C 	C 	0.45682 0.53976 0.34091 0.01800
C 	C 	0.37990 0.51687 0.28558 0.00200
C 	C 	0.30440 0.52629 0.28157 -0.03800
C 	C 	0.24085 0.47326 0.26711 -0.03200
C 	C 	0.25250 0.41078 0.25654 -0.00500
C 	C 	0.33133 0.40603 0.25929 -0.03100
C 	C 	0.39498 0.45903 0.27376 -0.03900
C 	C 	0.17875 0.34404 0.24541 0.04700
C 	C 	0.11675 0.28588 0.23666 -0.10200
H 	H 	0.53596 0.75155 0.32793 0.03700
H 	H 	0.48451 0.68773 0.29331 0.04900
H 	H 	0.39678 0.43449 0.31952 0.05100
H 	H 	0.44715 0.49769 0.35416 0.03800
H 	H 	0.29237 0.57113 0.29054 0.04100
H 	H 	0.18044 0.47782 0.26491 0.04100
H 	H 	0.34122 0.35845 0.25098 0.04300
H 	H 	0.45364 0.45210 0.27655 0.04200
C 	C 	0.24030 0.69061 0.36489 -0.07200
C 	C 	0.19548 0.73688 0.36953 0.01900
C 	C 	0.15663 0.76101 0.35357 -0.05600
C 	C 	0.16234 0.73915 0.33283 0.02700
C 	C 	0.20112 0.68734 0.32840 -0.06000
C 	C 	0.23966 0.66287 0.34438 0.01500
C 	C 	0.13402 0.77589 0.31567 0.00700
C 	C 	0.06369 0.72146 0.30259 -0.04000
C 	C 	0.03432 0.75673 0.28694 -0.02500
C 	C 	0.07507 0.84656 0.28428 -0.00500
C 	C 	0.14701 0.90092 0.29694 -0.02800
C 	C 	0.17658 0.86575 0.31255 -0.03900
C 	C 	0.03679 0.88273 0.27015 0.04800
C 	C 	0.00111 0.91101 0.25883 -0.09400
H 	H 	0.19457 0.75772 0.38533 0.05500
H 	H 	0.12501 0.79938 0.35720 0.05800
H 	H 	0.20491 0.66926 0.31247 0.04700
H 	H 	0.27408 0.62716 0.34058 0.04000
H 	H 	0.03074 0.65204 0.30479 0.04500
H 	H 	0.97848 0.71430 0.27724 0.03900
H 	H 	0.17876 0.97040 0.29499 0.04500
H 	H 	0.23174 0.90827 0.32240 0.04900
H 	H 	0.44446 0.86909 0.47994 0.08400
N 	N 	0.48654 0.00806 0.50317 -0.02500
O 	O 	0.46471 0.05821 0.51336 -0.10000
O 	O 	0.51056 0.95932 0.51340 -0.10200
C 	C 	0.15730 0.43827 0.45644 -0.02300
C 	C 	0.22102 0.52576 0.45849 -0.06200
C 	C 	0.20071 0.57854 0.47117 0.09300
N 	N 	0.26685 0.66637 0.47470 -0.02200
H 	H 	0.17318 0.39691 0.44707 0.07700
O 	O 	0.25312 0.72846 0.46829 -0.09400
O 	O 	0.33572 0.68382 0.48631 -0.10000
N 	N 	0.41499 0.37408 0.43669 -0.01900
O 	O 	0.36385 0.31518 0.42359 -0.09800
O 	O 	0.37959 0.38825 0.45321 -0.09300
C 	C 	0.19044 0.02446 0.67705 -0.09500
C 	C 	0.22062 0.09856 0.66438 0.02000
C 	C 	0.28770 0.11844 0.64931 -0.06300
C 	C 	0.32505 0.06432 0.64670 0.01600
C 	C 	0.29595 0.99083 0.65952 -0.05400
C 	C 	0.22909 0.97113 0.67473 0.02700
C 	C 	0.39159 0.08289 0.62989 0.01000
C 	C 	0.36520 0.03559 0.61139 -0.05200
C 	C 	0.42146 0.06471 0.59373 -0.02500
H 	H 	0.19189 0.14061 0.66617 0.03200
H 	H 	0.30981 0.17528 0.63945 0.04900
H 	H 	0.32444 0.94867 0.65757 0.05100
H 	H 	0.20607 0.91360 0.68437 0.03600
H 	H 	0.29930 0.97889 0.61038 0.05500
H 	H 	0.39874 0.03019 0.57920 0.04900
C 	C 	0.05263 0.57688 0.93285 -0.02200
C 	C 	0.06307 0.48354 0.95906 0.11400
C 	C 	0.14677 0.55169 0.96504 -0.03100
C 	C 	0.17786 0.63543 0.95689 -0.06600
C 	C 	0.13469 0.64619 0.93940 0.10200
N 	N 	0.17133 0.72849 0.92899 -0.02100
H 	H 	0.18371 0.54072 0.97716 0.07200
O 	O 	0.25692 0.77230 0.92458 -0.07900
O 	O 	0.11878 0.75851 0.92338 -0.09900
O 	O 	0.45541 0.89896 0.94714 -0.08100
N 	N 	0.25871 0.39682 0.97279 -0.02200
O 	O 	0.22973 0.39672 0.95407 -0.08800
O 	O 	0.20151 0.35701 0.98795 -0.07400
C 	C 	0.34037 0.28340 0.82101 -0.03800
C 	C 	0.27014 0.23681 0.80725 -0.03100
C 	C 	0.28847 0.23522 0.78597 -0.00300
C 	C 	0.37709 0.28313 0.77836 -0.03100
C 	C 	0.21798 0.17799 0.77233 0.04400
C 	C 	0.16040 0.12854 0.76084 -0.09300
H 	H 	0.32580 0.28190 0.83755 0.04600
H 	H 	0.20183 0.19995 0.81325 0.04300
H 	H 	0.39175 0.28232 0.76190 0.04400
C 	C 	0.81407 0.58417 0.93403 0.28700
C 	C 	0.61307 0.23175 0.96580 0.31100
C 	C 	0.91287 0.44733 0.94515 0.32200
C 	C 	0.55028 0.41125 0.95845 0.30100
C 	C 	0.66972 0.24314 0.89880 0.29800
C 	C 	0.63690 0.39935 0.88523 0.28800
Ni	Ni	0.73329 0.42376 0.96132 1.12000
Ni	Ni	0.58052 0.30557 0.92719 1.12200
Ni	Ni	0.78784 0.42618 0.91202 1.12000
O 	O 	0.77554 0.55221 0.95257 -0.33800
O 	O 	0.85410 0.54869 0.92341 -0.37800
O 	O 	0.62011 0.22493 0.91588 -0.38600
O 	O 	0.69551 0.29566 0.96890 -0.34300
O 	O 	0.55498 0.24494 0.95538 -0.36400
O 	O 	0.71764 0.45668 0.89188 -0.39200
O 	O 	0.86982 0.45941 0.96072 -0.35000
O 	O 	0.86863 0.39855 0.92947 -0.37200
O 	O 	0.57069 0.34822 0.89835 -0.38300
O 	O 	0.60497 0.39805 0.97043 -0.34100
O 	O 	0.52710 0.37514 0.93984 -0.36900
O 	O 	0.74930 0.31354 0.89728 -0.38000
O 	O 	0.69808 0.39573 0.93315 -0.70800
H 	H 	0.68215 0.44048 0.92979 0.13900
C 	C 	0.82813 0.20181 0.50921 0.28400
C 	C 	0.69500 0.38907 0.45593 0.32000
C 	C 	0.95692 0.42617 0.48516 0.31600
C 	C 	0.58013 0.15980 0.47518 0.30000
C 	C 	0.76637 0.48982 0.52015 0.31100
C 	C 	0.63792 0.26145 0.54079 0.30700
Ni	Ni	0.77826 0.28551 0.47311 1.12100
Ni	Ni	0.63936 0.32782 0.49856 1.12300
Ni	Ni	0.82070 0.35971 0.52016 1.12200
O 	O 	0.84685 0.23219 0.48959 -0.33900
O 	O 	0.82150 0.24791 0.52464 -0.37300
O 	O 	0.68147 0.43039 0.51771 -0.37500
O 	O 	0.71523 0.32823 0.45165 -0.35000
O 	O 	0.69808 0.41422 0.47509 -0.37600
O 	O 	0.72171 0.32684 0.54218 -0.38100
O 	O 	0.89083 0.40691 0.47232 -0.35200
O 	O 	0.94014 0.39884 0.50467 -0.37000
O 	O 	0.58867 0.25155 0.52401 -0.36800
O 	O 	0.66100 0.16834 0.47221 -0.36300
O 	O 	0.56885 0.22820 0.47814 -0.36700
O 	O 	0.83078 0.47455 0.51417 -0.38600
O 	O 	0.73598 0.30334 0.49867 -0.71500
H 	H 	0.70382 0.24382 0.50426 0.16100
C 	C 	0.88363 0.75782 0.69875 0.32500
C 	C 	0.84181 0.81072 0.75750 0.30100
C 	C 	0.85711 0.95095 0.67499 0.33700
C 	C 	0.82157 0.02157 0.73178 0.29100
Ni	Ni	0.80653 0.85943 0.71545 1.12200
O 	O 	0.81213 0.87495 0.68421 -0.38600
O 	O 	0.96720 0.80012 0.70486 -0.37300
O 	O 	0.81932 0.75357 0.71085 -0.38000
O 	O 	0.90767 0.07690 0.72759 -0.37900
O 	O 	0.77406 0.95374 0.71985 -0.36500
O 	O 	0.90561 0.79905 0.74862 -0.36300
O 	O 	0.78528 0.82468 0.74614 -0.37200
O 	O 	0.89094 0.02190 0.68597 -0.39800
C 	C 	0.65691 0.83366 0.41704 0.33200
C 	C 	0.46215 0.85336 0.43800 0.30200
O 	O 	0.61252 0.79561 0.40047 -0.38300
O 	O 	0.61462 0.81412 0.43520 -0.36300
C 	C 	0.34996 0.55083 0.99750 0.31000
O 	O 	0.35432 0.61190 0.98513 -0.37700
C 	C 	0.80072 0.07029 0.26499 0.27200
C 	C 	0.66594 0.97829 0.21043 0.31200
Ni	Ni	0.84047 0.13128 0.22030 1.11100
Ni	Ni	0.78180 0.93262 0.23544 1.12300
O 	O 	0.83042 0.13909 0.25251 -0.36800
O 	O 	0.74576 0.99150 0.25795 -0.36000
O 	O 	0.87617 0.93148 0.25362 -0.38600
O 	O 	0.70183 0.05270 0.22002 -0.38000
O 	O 	0.67558 0.91465 0.21804 -0.37900
O 	O 	0.97781 0.22433 0.21868 -0.37400
O 	O 	0.79656 0.85155 0.21571 -0.38000
O 	O 	0.86936 0.04321 0.22450 -0.71700
H 	H 	0.90522 0.06508 0.23720 0.14400
H 	H 	0.79201 0.05117 0.14467 0.02900
C 	C 	0.62215 0.96768 0.18991 -0.08000
C 	C 	0.58015 0.88594 0.18061 0.01900
C 	C 	0.56583 0.87866 0.15913 -0.06800
C 	C 	0.59126 0.95263 0.14676 0.03900
C 	C 	0.62121 0.03266 0.15638 -0.07600
C 	C 	0.63650 0.04024 0.17795 0.01500
C 	C 	0.59517 0.94711 0.12380 -0.00100
C 	C 	0.53226 0.95490 0.11137 -0.03400
C 	C 	0.52089 0.92826 0.09056 -0.03000
C 	C 	0.57210 0.89336 0.08214 0.00000
C 	C 	0.64158 0.89457 0.09388 -0.03100
C 	C 	0.65294 0.92106 0.11466 -0.03600
H 	H 	0.56381 0.82856 0.18980 0.04000
H 	H 	0.53901 0.81598 0.15194 0.05100
H 	H 	0.63784 0.08975 0.14704 0.05000
H 	H 	0.66459 0.10317 0.18502 0.03500
H 	H 	0.48838 0.97636 0.11814 0.04600
H 	H 	0.46773 0.92868 0.08152 0.05300
H 	H 	0.68235 0.86887 0.08745 0.04700
H 	H 	0.70280 0.91610 0.12403 0.04200
H 	H 	0.76450 0.84711 0.15561 0.03400
C 	C 	0.82084 0.08285 0.28747 -0.07600
C 	C 	0.75681 0.02887 0.30241 0.00600
C 	C 	0.77743 0.03944 0.32365 -0.07000
C 	C 	0.86242 0.10374 0.33015 0.03000
C 	C 	0.92630 0.15805 0.31528 -0.06300
C 	C 	0.90554 0.14791 0.29403 0.01200
C 	C 	0.88561 0.11015 0.35245 0.00100
C 	C 	0.84428 0.13967 0.36670 -0.03700
C 	C 	0.83360 0.11266 0.38763 -0.02600
C 	C 	0.85989 0.05267 0.39392 -0.00800
C 	C 	0.91961 0.04090 0.38099 -0.03700
C 	C 	0.93087 0.06792 0.36005 -0.03300
C 	C 	0.79790 0.98076 0.40673 0.07100
C 	C 	0.73703 0.91486 0.41388 -0.10500
H 	H 	0.69114 0.97879 0.29761 0.04600
H 	H 	0.72786 0.99685 0.33505 0.05800
H 	H 	0.99222 0.20744 0.32014 0.04900
H 	H 	0.95586 0.18950 0.28263 0.03400
H 	H 	0.81293 0.17622 0.36122 0.04800
H 	H 	0.79289 0.12768 0.39801 0.05100
H 	H 	0.94613 0.99976 0.38616 0.05900
H 	H 	0.96699 0.04849 0.34938 0.04200
C 	C 	0.47890 0.06884 0.44768 -0.03500
C 	C 	0.50317 0.07801 0.46876 -0.06200
C 	C 	0.47948 0.00320 0.48085 0.08400
C 	C 	0.45495 0.92490 0.47082 -0.01000
C 	C 	0.45094 0.92091 0.44892 -0.06400
C 	C 	0.45262 0.99022 0.43763 0.10900
N 	N 	0.42833 0.98116 0.41607 -0.01800
H 	H 	0.48911 0.12481 0.43863 0.07200
O 	O 	0.35358 0.91524 0.41012 -0.09800
O 	O 	0.47882 0.04076 0.40254 -0.11300
C 	C 	0.11447 0.54505 0.48016 -0.01900
C 	C 	0.04849 0.45937 0.47658 -0.07200
C 	C 	0.07073 0.40534 0.46494 0.10100
H 	H 	0.09856 0.58612 0.48964 0.06600
N 	N 	0.00485 0.31761 0.46118 -0.01800
O 	O 	0.94265 0.30039 0.44747 -0.13100
O 	O 	0.01575 0.25544 0.46881 -0.09600
C 	C 	0.55687 0.37264 0.43973 -0.03000
C 	C 	0.65117 0.41649 0.44026 -0.07600
C 	C 	0.69928 0.49987 0.43129 0.10000
C 	C 	0.65307 0.54308 0.42490 -0.02600
C 	C 	0.55926 0.50393 0.42751 -0.07300
C 	C 	0.51057 0.41651 0.43411 0.09800
H 	H 	0.51938 0.30721 0.44588 0.06500
H 	H 	0.69058 0.60837 0.41867 0.07300
N 	N 	0.79552 0.54273 0.42974 -0.02200
O 	O 	0.83554 0.50175 0.42267 -0.08900
O 	O 	0.84308 0.62334 0.43493 -0.09300
C 	C 	0.83308 0.12438 0.51498 -0.06900
C 	C 	0.91780 0.13191 0.51825 0.01900
C 	C 	0.92844 0.08283 0.53404 -0.06200
C 	C 	0.85438 0.02690 0.54668 0.03600
C 	C 	0.76772 0.00754 0.54055 -0.07100
C 	C 	0.75719 0.05532 0.52446 0.01800
C 	C 	0.86888 0.00638 0.56833 -0.01500
C 	C 	0.81564 0.92277 0.57676 -0.01800
C 	C 	0.81499 0.90820 0.59831 -0.04200
C 	C 	0.86952 0.97642 0.61145 0.01400
C 	C 	0.92692 0.05837 0.60291 -0.05100
C 	C 	0.92636 0.07352 0.58150 -0.02600
C 	C 	0.86301 0.96410 0.63381 0.04800
C 	C 	0.85926 0.95693 0.65260 -0.09900
H 	H 	0.97673 0.18256 0.51036 0.05200
H 	H 	0.99528 0.09464 0.53779 0.05300
H 	H 	0.70930 0.96180 0.54953 0.06500
H 	H 	0.69090 0.04630 0.52134 0.04700
H 	H 	0.77228 0.86999 0.56677 0.04100
H 	H 	0.77071 0.84446 0.60480 0.04800
H 	H 	0.96981 0.11122 0.61296 0.04600
H 	H 	0.96746 0.13839 0.57530 0.04100
C 	C 	0.50444 0.14101 0.59452 -0.00500
C 	C 	0.53363 0.18472 0.61343 -0.02900
C 	C 	0.47738 0.15574 0.63108 -0.04200
C 	C 	0.55309 0.18092 0.57550 0.05100
C 	C 	0.59247 0.21660 0.55961 -0.08800
H 	H 	0.59806 0.24338 0.61420 0.04200
H 	H 	0.49866 0.19219 0.64537 0.04400
C 	C 	0.78776 0.56133 0.53471 -0.08300
C 	C 	0.87288 0.60436 0.54398 0.01700
C 	C 	0.88441 0.64931 0.56251 -0.06200
C 	C 	0.81154 0.65302 0.57169 0.02800
C 	C 	0.73065 0.62125 0.56078 -0.06300
C 	C 	0.71882 0.57575 0.54231 0.02200
C 	C 	0.81486 0.67560 0.59389 0.00400
C 	C 	0.75598 0.61331 0.60839 -0.04000
C 	C 	0.76733 0.62943 0.62976 -0.02900
C 	C 	0.83752 0.70776 0.63680 -0.00700
C 	C 	0.89439 0.77134 0.62238 -0.02900
C 	C 	0.88319 0.75531 0.60098 -0.04100
C 	C 	0.85240 0.72232 0.65881 0.05900
C 	C 	0.86589 0.73641 0.67716 -0.10800
H 	H 	0.92834 0.59789 0.53772 0.04000
H 	H 	0.94813 0.67601 0.57046 0.05100
H 	H 	0.67511 0.62701 0.56731 0.05100
H 	H 	0.65431 0.54718 0.53468 0.04400
H 	H 	0.70340 0.55131 0.60311 0.04400
H 	H 	0.72265 0.58033 0.64084 0.04200
H 	H 	0.94792 0.83269 0.62774 0.04600
H 	H 	0.92843 0.80416 0.58993 0.04600
C 	C 	0.01196 0.49867 0.94422 -0.07900
H 	H 	0.01791 0.58596 0.91985 0.06200
N 	N 	0.02820 0.40024 0.96886 -0.02000
O 	O 	0.99320 0.33100 0.95759 -0.08000
O 	O 	0.03315 0.39369 0.98898 -0.07700
C 	C 	0.45482 0.98286 0.99240 -0.06400
C 	C 	0.51265 0.99572 0.97521 0.11300
C 	C 	0.57528 0.07947 0.96857 -0.04000
C 	C 	0.57815 0.15126 0.97810 -0.06500
C 	C 	0.52327 0.13887 0.99587 0.10000
H 	H 	0.61671 0.08844 0.95484 0.07100
N 	N 	0.50464 0.92373 0.96375 -0.02700
O 	O 	0.55596 0.89097 0.96819 -0.10800
C 	C 	0.40486 0.40769 0.96528 -0.02200
C 	C 	0.49822 0.44781 0.96807 -0.07000
C 	C 	0.53970 0.51614 0.98226 0.10100
C 	C 	0.48758 0.54119 0.99402 -0.02700
C 	C 	0.39521 0.50382 0.99066 -0.07300
C 	C 	0.35325 0.43577 0.97642 0.10500
H 	H 	0.37210 0.35396 0.95472 0.07300
N 	N 	0.63545 0.56433 0.98364 -0.02400
O 	O 	0.68054 0.63249 0.97185 -0.09300
O 	O 	0.67565 0.54813 0.99875 -0.10000
C 	C 	0.64699 0.17568 0.88333 -0.08400
C 	C 	0.57503 0.15460 0.86984 0.01400
C 	C 	0.57053 0.11374 0.85097 -0.06400
C 	C 	0.63722 0.09250 0.84571 0.03100
C 	C 	0.70301 0.10464 0.86035 -0.06400
C 	C 	0.70788 0.14614 0.87908 0.02400
C 	C 	0.64685 0.07073 0.82404 -0.00900
C 	C 	0.66585 0.13166 0.80794 -0.03600
C 	C 	0.69411 0.11981 0.78831 -0.03000
C 	C 	0.70326 0.04699 0.78464 -0.01700
C 	C 	0.67920 0.98360 0.80029 -0.01900
C 	C 	0.65075 0.99524 0.81991 -0.02500
C 	C 	0.74430 0.04063 0.76555 0.04900
C 	C 	0.77963 0.03363 0.74991 -0.10300
H 	H 	0.52682 0.17601 0.87316 0.03100
H 	H 	0.51842 0.10319 0.83994 0.04900
H 	H 	0.75392 0.08713 0.85661 0.05000
H 	H 	0.76253 0.16043 0.88966 0.04400
H 	H 	0.66294 0.19012 0.81094 0.04000
H 	H 	0.71186 0.16869 0.77622 0.04200
H 	H 	0.68551 0.92676 0.79749 0.04400
H 	H 	0.63555 0.94751 0.83217 0.04600
C 	C 	0.61196 0.40813 0.86391 -0.08400
C 	C 	0.55997 0.44830 0.86057 0.01900
C 	C 	0.50670 0.42924 0.84283 -0.06400
C 	C 	0.50427 0.36900 0.82846 0.02700
C 	C 	0.56446 0.33702 0.83056 -0.06300
C 	C 	0.61899 0.35750 0.84813 0.01000
C 	C 	0.42961 0.32891 0.81356 0.00400
C 	C 	0.44749 0.32992 0.79210 -0.03900
H 	H 	0.55559 0.48907 0.87247 0.03500
H 	H 	0.46268 0.45655 0.84101 0.05200
H 	H 	0.56464 0.29185 0.81934 0.04600
H 	H 	0.66125 0.32843 0.85026 0.03000
H 	H 	0.51599 0.36522 0.78617 0.04300
C 	C 	0.79958 0.64965 0.92344 -0.07000
C 	C 	0.87409 0.72182 0.91443 0.01900
C 	C 	0.86476 0.75751 0.89571 -0.05400
C 	C 	0.78052 0.72214 0.88618 0.02800
C 	C 	0.70388 0.66088 0.89722 -0.05300
C 	C 	0.71337 0.62557 0.91601 0.01800
C 	C 	0.77565 0.73460 0.86350 0.00800
C 	C 	0.79987 0.81667 0.85525 -0.03900
C 	C 	0.80793 0.83090 0.83361 -0.02900
C 	C 	0.79208 0.76324 0.82012 -0.00400
C 	C 	0.76470 0.68060 0.82831 -0.02800
C 	C 	0.75683 0.66637 0.84990 -0.04000
C 	C 	0.80891 0.77965 0.79798 0.04700
C 	C 	0.82375 0.79338 0.77949 -0.09500
H 	H 	0.94067 0.74367 0.92057 0.05500
H 	H 	0.92410 0.80716 0.88771 0.05700
H 	H 	0.63790 0.63570 0.89045 0.05300
H 	H 	0.65468 0.57241 0.92337 0.04100
H 	H 	0.81462 0.86979 0.86560 0.04900
H 	H 	0.82831 0.89483 0.82738 0.04400
H 	H 	0.75186 0.62788 0.81799 0.04400
H 	H 	0.73975 0.60323 0.85611 0.05100
