data_crystal

_cell_length_a 18.51847
_cell_length_b 18.84525
_cell_length_c 34.96798
_cell_angle_alpha 95.43142
_cell_angle_beta  95.43156
_cell_angle_gamma 126.40814

_symmetry_space_group_name_	'P 1'
_symmetry_space_group_name_H-M	'P 1'

loop_
_symmetry_equiv_pos_as_xyz
  x,y,z

loop_
_atom_site_label
_atom_site_type_symbol
_atom_site_fract_x
_atom_site_fract_y
_atom_site_fract_z
_atom_site_charge
C 	C 	0.91600 0.99753 0.97375 0.31000
N 	N 	0.00518 0.04664 0.97043 -0.10400
C 	C 	0.04816 0.00841 0.96919 0.25600
N 	N 	0.00172 0.92033 0.97111 -0.07700
C 	C 	0.91283 0.87049 0.97498 0.26600
N 	N 	0.86934 0.90895 0.97613 -0.09900
C 	C 	0.96218 0.05153 0.49057 0.24600
N 	N 	0.05421 0.09566 0.49714 -0.08700
C 	C 	0.08776 0.04793 0.49786 0.26100
N 	N 	0.02947 0.95716 0.49257 -0.07400
C 	C 	0.93798 0.91338 0.48523 0.27000
N 	N 	0.90463 0.96065 0.48378 -0.08600
Cu	Cu	0.75870 0.33968 0.96067 0.94400
Cu	Cu	0.70998 0.23728 0.03509 0.91000
Cu	Cu	0.61282 0.30179 0.00671 0.91600
Cu	Cu	0.58683 0.32875 0.92445 0.94400
C 	C 	0.70641 0.31886 0.87782 0.30800
O 	O 	0.80658 0.47138 0.96371 -0.30300
C 	C 	0.64784 0.30347 0.09089 0.30400
O 	O 	0.61574 0.26614 0.95295 -0.62800
O 	O 	0.74013 0.34260 0.01502 -0.63200
O 	O 	0.81952 0.28016 0.96542 -0.29600
O 	O 	0.70130 0.16792 0.98937 -0.37600
O 	O 	0.66903 0.35842 0.88609 -0.30800
O 	O 	0.49091 0.27095 0.99807 -0.29500
C 	C 	0.43191 0.23051 0.96467 0.39300
C 	C 	0.75791 0.49918 0.97262 0.38300
O 	O 	0.67036 0.44035 0.97292 -0.34900
O 	O 	0.45851 0.25114 0.93115 -0.29800
O 	O 	0.75676 0.31540 0.90571 -0.28200
C 	C 	0.77364 0.19869 0.97355 0.40900
O 	O 	0.61514 0.32542 0.06291 -0.28100
O 	O 	0.70287 0.28235 0.08493 -0.34300
H 	H 	0.57707 0.20039 0.94360 0.22800
H 	H 	0.78379 0.40082 0.03325 0.22800
Cu	Cu	0.64359 0.23924 0.51099 0.93600
Cu	Cu	0.67536 0.20602 0.42171 0.94400
Cu	Cu	0.64869 0.35373 0.45366 0.93000
Cu	Cu	0.64502 0.40682 0.53754 0.93800
C 	C 	0.66668 0.30652 0.59228 0.30700
O 	O 	0.51066 0.17731 0.51678 -0.30000
C 	C 	0.63786 0.30016 0.37419 0.30600
O 	O 	0.70358 0.37486 0.50721 -0.62900
O 	O 	0.60896 0.22968 0.45420 -0.62200
O 	O 	0.72462 0.20034 0.51168 -0.30600
O 	O 	0.67118 0.12276 0.44886 -0.33100
O 	O 	0.67900 0.38126 0.58726 -0.27800
O 	O 	0.69681 0.47629 0.45248 -0.31200
C 	C 	0.71372 0.53475 0.48274 0.39100
C 	C 	0.46918 0.21330 0.50870 0.40000
O 	O 	0.51588 0.29522 0.50179 -0.33700
O 	O 	0.67195 0.50840 0.51273 -0.30300
O 	O 	0.68527 0.26651 0.56645 -0.30800
C 	C 	0.72584 0.15131 0.48262 0.38900
O 	O 	0.60348 0.32562 0.39806 -0.30500
O 	O 	0.70070 0.29260 0.38866 -0.30900
H 	H 	0.77113 0.41798 0.51270 0.20800
H 	H 	0.54230 0.18484 0.44462 0.21800
C 	C 	0.62697 0.29677 0.69681 0.04700
C 	C 	0.68616 0.27917 0.71243 0.09400
C 	C 	0.72729 0.25569 0.68725 -0.08300
C 	C 	0.71764 0.26201 0.64754 0.08300
C 	C 	0.66365 0.28635 0.63240 0.02800
C 	C 	0.61181 0.29652 0.65664 -0.05300
C 	C 	0.70578 0.28741 0.75543 0.10400
C 	C 	0.77932 0.22188 0.70241 0.78900
H 	H 	0.75402 0.25041 0.62859 0.12700
C 	C 	0.54352 0.31134 0.64057 0.78000
H 	H 	0.59382 0.31226 0.71620 0.13100
C 	C 	0.77106 0.37253 0.77999 -0.09500
C 	C 	0.77458 0.38033 0.82065 0.08700
C 	C 	0.71606 0.30498 0.83703 0.01700
C 	C 	0.65739 0.21892 0.81293 -0.05600
C 	C 	0.65070 0.21135 0.77210 0.04100
C 	C 	0.82985 0.45659 0.76282 0.79000
H 	H 	0.81948 0.44589 0.83949 0.11200
C 	C 	0.59752 0.13596 0.83048 0.77700
H 	H 	0.60020 0.14685 0.75308 0.14100
F 	F 	0.58839 0.40170 0.64052 -0.38800
F 	F 	0.47733 0.28351 0.66342 -0.37300
F 	F 	0.49931 0.26316 0.60299 -0.41300
F 	F 	0.72074 0.14291 0.71559 -0.38500
F 	F 	0.85008 0.28489 0.73289 -0.36500
F 	F 	0.81626 0.20484 0.67359 -0.36700
F 	F 	0.55618 0.05785 0.80327 -0.36800
F 	F 	0.53008 0.13650 0.84409 -0.41900
F 	F 	0.64960 0.13503 0.86123 -0.38700
F 	F 	0.90155 0.52769 0.79095 -0.37500
F 	F 	0.77710 0.48068 0.74778 -0.39100
F 	F 	0.86697 0.44215 0.73336 -0.37400
C 	C 	0.61314 0.24166 0.26472 0.04700
C 	C 	0.61457 0.31090 0.25221 0.09500
C 	C 	0.60774 0.36742 0.27871 -0.08400
C 	C 	0.61445 0.36246 0.31870 0.08800
C 	C 	0.61909 0.29666 0.33166 0.02300
C 	C 	0.60953 0.23044 0.30382 -0.05600
C 	C 	0.62353 0.32341 0.21120 0.10300
C 	C 	0.58999 0.43024 0.26423 0.79000
H 	H 	0.61771 0.41060 0.33986 0.12100
C 	C 	0.59678 0.14858 0.31546 0.77500
H 	H 	0.61522 0.19669 0.24393 0.12700
C 	C 	0.71063 0.37554 0.20051 -0.09400
C 	C 	0.71616 0.37442 0.16064 0.08300
C 	C 	0.63726 0.31923 0.13150 0.01700
C 	C 	0.55007 0.26954 0.14220 -0.05500
C 	C 	0.54436 0.27350 0.18213 0.03700
C 	C 	0.79758 0.42395 0.23110 0.79000
H 	H 	0.78238 0.41251 0.15207 0.11100
C 	C 	0.46337 0.21026 0.11125 0.78000
H 	H 	0.47828 0.23450 0.19078 0.14200
F 	F 	0.68096 0.17038 0.33019 -0.40300
F 	F 	0.55511 0.07908 0.28354 -0.38100
F 	F 	0.54197 0.11769 0.34338 -0.44100
F 	F 	0.50841 0.38085 0.23769 -0.38600
F 	F 	0.65977 0.49082 0.24618 -0.36300
F 	F 	0.58397 0.47837 0.29452 -0.37200
F 	F 	0.38585 0.16357 0.12767 -0.36900
F 	F 	0.46534 0.14818 0.08788 -0.39800
F 	F 	0.45635 0.26259 0.08837 -0.37900
F 	F 	0.87452 0.48178 0.21577 -0.37600
F 	F 	0.80500 0.36162 0.24475 -0.39500
F 	F 	0.79656 0.47430 0.26215 -0.37000
C 	C 	0.89591 0.76209 0.46169 0.27600
C 	C 	0.87517 0.81516 0.48089 -0.11700
C 	C 	0.79615 0.77414 0.49746 0.27700
C 	C 	0.74029 0.68165 0.49593 0.30900
C 	C 	0.76480 0.62959 0.47930 -0.18000
C 	C 	0.84181 0.67000 0.46142 0.30300
F 	F 	0.86582 0.62045 0.44486 -0.35100
F 	F 	0.96888 0.79996 0.44349 -0.32800
F 	F 	0.66236 0.64258 0.51073 -0.32700
F 	F 	0.77512 0.82435 0.51620 -0.31500
C 	C 	0.81819 0.11658 0.52155 0.31000
C 	C 	0.79658 0.13730 0.48677 -0.18800
C 	C 	0.84441 0.14673 0.45626 0.30100
C 	C 	0.90789 0.12877 0.45939 0.27100
C 	C 	0.92399 0.10107 0.49290 -0.11300
C 	C 	0.88199 0.09907 0.52465 0.27200
F 	F 	0.89849 0.07417 0.55756 -0.32000
F 	F 	0.77451 0.10952 0.55171 -0.33400
F 	F 	0.94966 0.13303 0.42886 -0.32400
F 	F 	0.82901 0.17274 0.42351 -0.36700
C 	C 	0.32224 0.17045 0.47257 0.30400
C 	C 	0.36866 0.15891 0.50262 -0.18100
C 	C 	0.32148 0.10949 0.53080 0.31700
C 	C 	0.23110 0.07760 0.53054 0.27600
C 	C 	0.18646 0.09330 0.50164 -0.11300
C 	C 	0.23224 0.13905 0.47246 0.27600
F 	F 	0.18847 0.15060 0.44322 -0.31900
F 	F 	0.36495 0.21304 0.44364 -0.35500
F 	F 	0.18667 0.03114 0.55832 -0.32500
F 	F 	0.36354 0.09368 0.55882 -0.32200
C 	C 	0.87300 0.66219 0.00244 0.30800
C 	C 	0.79629 0.59448 0.97416 -0.18500
C 	C 	0.75234 0.61717 0.94872 0.30500
C 	C 	0.78639 0.70701 0.95086 0.27300
C 	C 	0.86478 0.77518 0.97841 -0.11300
C 	C 	0.90668 0.75197 0.00479 0.27300
F 	F 	0.98115 0.81679 0.03225 -0.31200
F 	F 	0.91453 0.64106 0.02790 -0.34900
F 	F 	0.74560 0.72810 0.92497 -0.31400
F 	F 	0.67798 0.55234 0.92120 -0.36200
C 	C 	0.76479 0.06532 0.94694 0.31300
C 	C 	0.81229 0.14903 0.97211 -0.18800
C 	C 	0.88847 0.17812 0.00012 0.29700
C 	C 	0.91759 0.12473 0.00274 0.27800
C 	C 	0.87219 0.04236 0.97671 -0.14200
C 	C 	0.79497 0.01249 0.94904 0.25900
F 	F 	0.75090 0.93378 0.92339 -0.29200
F 	F 	0.68961 0.03532 0.92035 -0.32200
F 	F 	0.99092 0.15362 0.03029 -0.33800
F 	F 	0.93300 0.25723 0.02554 -0.36200
C 	C 	0.20531 0.05562 0.99123 0.25200
C 	C 	0.14589 0.06331 0.96716 -0.10600
C 	C 	0.18079 0.12580 0.94205 0.27300
C 	C 	0.27427 0.18120 0.94156 0.31300
C 	C 	0.33359 0.17319 0.96550 -0.17700
C 	C 	0.29848 0.10956 0.99004 0.31900
F 	F 	0.35452 0.09899 0.01226 -0.33300
F 	F 	0.17301 0.99706 0.01632 -0.27600
F 	F 	0.30746 0.24381 0.91834 -0.33000
F 	F 	0.12390 0.13238 0.91791 -0.32300
