data_crystal

_cell_length_a 39.86296
_cell_length_b 39.58877
_cell_length_c 22.63677
_cell_angle_alpha 89.96088
_cell_angle_beta  89.95013
_cell_angle_gamma 89.99893

_symmetry_space_group_name_	'P 1'
_symmetry_space_group_name_H-M	'P 1'

loop_
_symmetry_equiv_pos_as_xyz
  x,y,z

loop_
_atom_site_label
_atom_site_type_symbol
_atom_site_fract_x
_atom_site_fract_y
_atom_site_fract_z
_atom_site_charge
C 	C 	0.54307 0.44943 0.09565 0.09800
N 	N 	0.51263 0.45424 0.07121 -0.17300
C 	C 	0.49568 0.42507 0.07801 0.09600
C 	C 	0.46522 0.41684 0.04340 -0.07100
C 	C 	0.43923 0.44286 0.03396 0.07800
C 	C 	0.45844 0.38166 0.02526 0.02500
C 	C 	0.47922 0.36565 0.98379 -0.04000
C 	C 	0.47240 0.33251 0.96609 -0.04500
C 	C 	0.44479 0.31521 0.98984 0.02900
C 	C 	0.43079 0.36435 0.04882 -0.04500
N 	N 	0.43484 0.46952 0.07010 -0.12700
C 	C 	0.41960 0.44546 0.98391 -0.05400
C 	C 	0.41175 0.48901 0.04305 0.07900
C 	C 	0.40504 0.52429 0.06060 -0.07400
C 	C 	0.37083 0.53822 0.05325 0.04000
C 	C 	0.31078 0.53363 0.06928 -0.03500
C 	C 	0.36560 0.56719 0.01868 -0.06000
C 	C 	0.33307 0.57942 0.00973 -0.04600
C 	C 	0.30553 0.56240 0.03436 0.02500
N 	N 	0.46430 0.54143 0.07677 -0.17300
C 	C 	0.47964 0.56871 0.09977 0.10100
C 	C 	0.45661 0.58914 0.12852 -0.06400
C 	C 	0.42583 0.57342 0.12279 -0.06300
C 	C 	0.51302 0.58025 0.07954 -0.08000
C 	C 	0.51863 0.61613 0.06469 0.05000
C 	C 	0.54952 0.66807 0.08088 -0.03200
C 	C 	0.53733 0.68098 0.02733 0.00600
C 	C 	0.51437 0.66204 0.99405 -0.00600
C 	C 	0.50502 0.62971 0.01274 -0.08000
N 	N 	0.54011 0.52492 0.10013 -0.12800
C 	C 	0.58513 0.52920 0.04019 -0.06100
C 	C 	0.56714 0.50872 0.07823 0.08800
C 	C 	0.57205 0.47184 0.08343 -0.07600
C 	C 	0.60643 0.45795 0.08092 0.04200
C 	C 	0.62979 0.46675 0.12457 -0.05300
C 	C 	0.66369 0.45888 0.11707 -0.03200
C 	C 	0.67450 0.44231 0.06573 0.02100
C 	C 	0.65083 0.43149 0.02396 -0.04500
C 	C 	0.61688 0.43936 0.03150 -0.06100
C 	C 	0.54567 0.41701 0.11828 -0.06400
C 	C 	0.51533 0.40141 0.10701 -0.06200
C 	C 	0.42396 0.33130 0.03110 -0.04400
C 	C 	0.40200 0.47522 0.98964 -0.05300
C 	C 	0.43154 0.54422 0.09059 0.09800
C 	C 	0.56857 0.55969 0.03907 -0.06300
C 	C 	0.54136 0.55620 0.07661 0.09000
C 	C 	0.54028 0.63572 0.09940 -0.06000
H 	H 	0.50753 0.47208 0.03836 0.09200
H 	H 	0.47353 0.52763 0.04092 0.09200
H 	H 	0.68175 0.46696 0.14989 0.04500
H 	H 	0.65894 0.41846 0.98438 0.04800
H 	H 	0.62186 0.48081 0.16317 0.04800
H 	H 	0.59895 0.43227 0.99777 0.05000
H 	H 	0.48864 0.32023 0.93428 0.04300
H 	H 	0.41465 0.37652 0.08092 0.04700
H 	H 	0.40254 0.31812 0.04951 0.04900
H 	H 	0.50058 0.37889 0.96529 0.04200
H 	H 	0.32921 0.60177 0.98293 0.04800
H 	H 	0.38668 0.58006 0.99848 0.05000
C 	C 	0.34329 0.52163 0.07880 -0.05100
H 	H 	0.28964 0.52045 0.08868 0.04500
H 	H 	0.56709 0.68263 0.10703 0.04000
H 	H 	0.55071 0.62549 0.13980 0.04800
H 	H 	0.48812 0.61478 0.98587 0.05700
H 	H 	0.50455 0.67198 0.95295 0.04100
H 	H 	0.56900 0.40374 0.12607 0.04800
H 	H 	0.51175 0.37433 0.10501 0.04900
H 	H 	0.42461 0.43281 0.94245 0.04700
H 	H 	0.39156 0.48940 0.95311 0.04900
H 	H 	0.45993 0.61585 0.13692 0.04800
H 	H 	0.40190 0.58612 0.12682 0.04800
H 	H 	0.60166 0.52021 0.00563 0.04600
H 	H 	0.57030 0.57788 0.00346 0.04700
H 	H 	0.34708 0.49930 0.10569 0.04800
Zn	Zn	0.37138 0.12318 0.94395 1.22400
C 	C 	0.30799 0.08752 0.94367 0.33900
O 	O 	0.39514 0.10875 0.01590 -0.46700
O 	O 	0.32374 0.06269 0.91699 -0.45400
O 	O 	0.36546 0.06027 0.02606 -0.49300
C 	C 	0.38647 0.08514 0.84010 0.35000
O 	O 	0.36876 0.11046 0.86071 -0.45400
O 	O 	0.39656 0.06102 0.87558 -0.51200
C 	C 	0.38507 0.08337 0.04884 0.33700
O 	O 	0.41878 0.15606 0.91861 -0.31700
Zn	Zn	0.37061 0.04736 0.94406 1.17300
O 	O 	0.32515 0.11238 0.96749 -0.42300
C 	C 	0.40023 0.18166 0.93317 0.30200
O 	O 	0.37039 0.17425 0.95152 -0.38300
C 	C 	0.50920 0.97027 0.50135 0.01300
C 	C 	0.48149 0.99301 0.49994 0.01100
C 	C 	0.52228 0.95728 0.44841 -0.05500
C 	C 	0.50882 0.96759 0.39395 0.01300
C 	C 	0.46723 0.00235 0.44562 -0.05300
C 	C 	0.48127 0.99057 0.39255 0.01000
H 	H 	0.44505 0.01815 0.44469 0.05200
H 	H 	0.54313 0.93976 0.44958 0.05200
C 	C 	0.46849 0.00083 0.33712 -0.01200
C 	C 	0.48489 0.99224 0.28450 0.00500
C 	C 	0.47806 0.01478 0.23723 -0.05400
C 	C 	0.45684 0.04132 0.25342 0.01700
S 	S 	0.44657 0.03611 0.32450 -0.00900
H 	H 	0.48651 0.01076 0.19233 0.04600
C 	C 	0.52216 0.95582 0.33983 -0.01400
C 	C 	0.51199 0.96985 0.28592 0.01000
C 	C 	0.53640 0.96688 0.24053 -0.05600
C 	C 	0.56562 0.95064 0.25930 0.01200
S 	S 	0.56075 0.94016 0.33026 0.00500
H 	H 	0.53222 0.97450 0.19521 0.04100
C 	C 	0.51134 0.97578 0.60921 0.00900
C 	C 	0.52443 0.96313 0.55632 -0.01500
S 	S 	0.54687 0.92872 0.57243 -0.00100
C 	C 	0.54092 0.92878 0.64560 0.01600
C 	C 	0.52094 0.95677 0.65949 -0.05900
C 	C 	0.46809 0.00460 0.55406 -0.01400
C 	C 	0.48357 0.99713 0.60791 0.00800
C 	C 	0.47540 0.02017 0.65358 -0.05700
C 	C 	0.45362 0.04580 0.63506 0.01100
S 	S 	0.44499 0.03940 0.56356 0.00700
H 	H 	0.48434 0.01780 0.69855 0.04400
H 	H 	0.51380 0.96327 0.70423 0.04400
Zn	Zn	0.63358 0.85960 0.95096 1.22400
C 	C 	0.69952 0.88964 0.94017 0.33400
O 	O 	0.61633 0.87760 0.02624 -0.46600
O 	O 	0.68410 0.91425 0.91230 -0.43700
O 	O 	0.65060 0.92328 0.02770 -0.48700
C 	C 	0.61613 0.89762 0.84852 0.34900
O 	O 	0.63258 0.87099 0.86717 -0.45400
O 	O 	0.60997 0.92276 0.88458 -0.50500
C 	C 	0.63136 0.90178 0.05585 0.33000
O 	O 	0.58122 0.83301 0.93620 -0.32600
Zn	Zn	0.64115 0.93520 0.94652 1.17700
O 	O 	0.68197 0.86525 0.96483 -0.43500
C 	C 	0.59690 0.80539 0.94987 0.29900
O 	O 	0.62848 0.80881 0.96162 -0.38200
Zn	Zn	0.10783 0.62712 0.00216 1.21900
C 	C 	0.06745 0.68510 0.03280 0.32600
O 	O 	0.09954 0.61835 0.08635 -0.45000
O 	O 	0.04630 0.66351 0.05651 -0.44900
O 	O 	0.05230 0.58782 0.06905 -0.51200
C 	C 	0.06409 0.62281 0.90035 0.33600
O 	O 	0.09202 0.61192 0.92458 -0.45000
O 	O 	0.04039 0.63578 0.93340 -0.50200
C 	C 	0.07735 0.59600 0.10364 0.35200
O 	O 	0.14461 0.58030 0.00003 -0.33600
Zn	Zn	0.03323 0.61978 0.01314 1.16900
O 	O 	0.09206 0.67419 0.99898 -0.41600
C 	C 	0.16831 0.60274 0.99926 0.31600
O 	O 	0.15848 0.63391 0.99993 -0.37100
C 	C 	0.00429 0.47672 0.45712 0.01500
C 	C 	0.03035 0.50120 0.45759 0.01000
C 	C 	0.97910 0.47764 0.50063 -0.05500
C 	C 	0.97862 0.50375 0.54263 0.01200
C 	C 	0.03066 0.52648 0.50123 -0.05300
C 	C 	0.00448 0.52848 0.54268 0.01000
H 	H 	0.05071 0.54494 0.50204 0.05100
H 	H 	0.95956 0.45862 0.50093 0.05200
C 	C 	0.00203 0.55598 0.58215 -0.01100
C 	C 	0.97591 0.55831 0.62347 0.00700
C 	C 	0.98381 0.57956 0.67224 -0.05500
C 	C 	0.01612 0.59326 0.66901 0.01800
S 	S 	0.03443 0.57814 0.60816 -0.00900
H 	H 	0.96836 0.58173 0.71134 0.04500
C 	C 	0.95161 0.50729 0.58258 -0.01400
C 	C 	0.95063 0.53361 0.62401 0.01000
C 	C 	0.93002 0.52621 0.67381 -0.05900
C 	C 	0.91532 0.49412 0.67119 0.01600
S 	S 	0.92892 0.47539 0.60962 -0.00100
H 	H 	0.92924 0.54156 0.71327 0.04200
C 	C 	0.02748 0.45254 0.36586 0.01100
C 	C 	0.00387 0.45212 0.41199 -0.01400
S 	S 	0.96898 0.43455 0.38550 0.00600
C 	C 	0.98232 0.42534 0.31758 0.01100
C 	C 	0.01559 0.43640 0.31354 -0.05300
C 	C 	0.05511 0.50017 0.41297 -0.01100
C 	C 	0.05307 0.47707 0.36597 0.00800
C 	C 	0.06962 0.48867 0.31378 -0.05400
C 	C 	0.08359 0.52093 0.31950 0.01700
S 	S 	0.07546 0.53412 0.38798 -0.01000
H 	H 	0.06752 0.47629 0.27140 0.05000
H 	H 	0.02902 0.43665 0.27205 0.04600
Zn	Zn	0.87841 0.39945 0.00285 1.21800
C 	C 	0.81704 0.43594 0.02588 0.32700
O 	O 	0.89553 0.41543 0.92596 -0.45500
O 	O 	0.83574 0.45999 0.04864 -0.45300
O 	O 	0.86754 0.46534 0.92991 -0.49800
C 	C 	0.90443 0.43283 0.10470 0.34800
O 	O 	0.88304 0.40995 0.08654 -0.45600
O 	O 	0.91155 0.45877 0.07086 -0.51500
C 	C 	0.88339 0.44223 0.89931 0.33600
O 	O 	0.92706 0.36593 0.01357 -0.31400
Zn	Zn	0.88044 0.47468 0.01077 1.16800
O 	O 	0.83081 0.41166 0.99443 -0.42000
C 	C 	0.90735 0.34060 0.00279 0.28700
O 	O 	0.87624 0.34830 0.99317 -0.37500
C 	C 	0.99110 0.94402 0.11913 0.09900
N 	N 	0.97540 0.97056 0.09425 -0.17300
C 	C 	0.94270 0.96765 0.10811 0.10200
C 	C 	0.91610 0.98496 0.07406 -0.08000
C 	C 	0.91846 0.02170 0.06301 0.09100
C 	C 	0.88629 0.96604 0.05378 0.04800
C 	C 	0.88994 0.93864 0.01499 -0.07300
C 	C 	0.86162 0.92143 0.99450 -0.01000
C 	C 	0.82951 0.93148 0.01277 -0.00800
C 	C 	0.85419 0.97587 0.07239 -0.06300
N 	N 	0.93983 0.04196 0.09250 -0.12900
C 	C 	0.90619 0.03748 0.01295 -0.07000
C 	C 	0.94047 0.07111 0.06171 0.09200
C 	C 	0.96643 0.09721 0.07056 -0.08100
C 	C 	0.95816 0.13290 0.05862 0.05100
C 	C 	0.92998 0.18472 0.08698 -0.03000
C 	C 	0.97079 0.14894 0.00803 -0.08100
C 	C 	0.96284 0.18275 0.99673 -0.00600
C 	C 	0.94239 0.20073 0.03618 0.00500
N 	N 	0.01565 0.05958 0.08441 -0.17300
C 	C 	0.04761 0.06418 0.10198 0.10200
C 	C 	0.05148 0.09589 0.12691 -0.06400
C 	C 	0.02039 0.11123 0.12438 -0.06200
C 	C 	0.07569 0.04362 0.07888 -0.08100
C 	C 	0.10724 0.05994 0.06045 0.05300
C 	C 	0.16693 0.06747 0.07582 -0.01700
C 	C 	0.17059 0.07779 0.01688 -0.00900
C 	C 	0.14208 0.08173 0.98123 -0.00600
C 	C 	0.11045 0.07284 0.00303 -0.08300
N 	N 	0.04995 0.98924 0.10968 -0.12800
C 	C 	0.07585 0.95408 0.04605 -0.06200
C 	C 	0.05173 0.95719 0.08972 0.08800
C 	C 	0.02457 0.93237 0.09934 -0.07400
C 	C 	0.03111 0.89596 0.08997 0.03900
C 	C 	0.05686 0.87975 0.12131 -0.05300
C 	C 	0.06353 0.84555 0.11157 -0.02900
C 	C 	0.04439 0.82723 0.07066 0.01500
C 	C 	0.01870 0.84346 0.03918 -0.03800
C 	C 	0.01211 0.87771 0.04875 -0.05500
C 	C 	0.96833 0.92398 0.14938 -0.06300
C 	C 	0.93735 0.93909 0.14229 -0.06400
C 	C 	0.82591 0.95872 0.05186 -0.02000
C 	C 	0.92032 0.06922 0.01216 -0.06900
C 	C 	0.99899 0.08817 0.09793 0.10000
C 	C 	0.08991 0.98562 0.03952 -0.06200
C 	C 	0.07359 0.00634 0.07941 0.09100
C 	C 	0.13538 0.05842 0.09744 -0.06300
H 	H 	0.98438 0.98357 0.05726 0.09100
H 	H 	0.00844 0.04280 0.05114 0.09200
H 	H 	0.08348 0.83324 0.13591 0.04800
H 	H 	0.00374 0.82948 0.00762 0.03500
H 	H 	0.07166 0.89365 0.15321 0.04800
H 	H 	0.99231 0.89007 0.02412 0.04100
H 	H 	0.86460 0.90037 0.96441 0.03300
H 	H 	0.85116 0.99688 0.10258 0.04900
H 	H 	0.80118 0.96668 0.06606 0.04000
H 	H 	0.91467 0.93087 0.00044 0.04500
H 	H 	0.97266 0.19500 0.95756 0.04000
H 	H 	0.98668 0.13522 0.97750 0.05600
C 	C 	0.93764 0.15085 0.09794 -0.06100
H 	H 	0.91429 0.19849 0.11777 0.03800
H 	H 	0.18877 0.06487 0.10391 0.04300
H 	H 	0.13300 0.04884 0.14209 0.05100
H 	H 	0.08875 0.07435 0.97437 0.05600
H 	H 	0.14466 0.09001 0.93583 0.03200
H 	H 	0.97199 0.89754 0.15974 0.04800
H 	H 	0.91363 0.92597 0.14623 0.04900
H 	H 	0.89683 0.02445 0.97429 0.05400
H 	H 	0.92355 0.08440 0.97276 0.05500
H 	H 	0.07502 0.10940 0.13009 0.04900
H 	H 	0.01651 0.13829 0.12543 0.04900
H 	H 	0.07585 0.93483 0.01211 0.04600
H 	H 	0.10265 0.99427 0.00004 0.04600
H 	H 	0.92785 0.13862 0.13715 0.04800
C 	C 	0.93459 0.23657 0.02511 -0.01500
C 	C 	0.90899 0.24565 0.98536 0.10500
C 	C 	0.90162 0.27986 0.97577 -0.02800
C 	C 	0.91874 0.30511 0.00719 -0.11000
C 	C 	0.94536 0.29594 0.04520 0.15600
C 	C 	0.95232 0.26170 0.05536 -0.10100
H 	H 	0.88215 0.28671 0.94459 0.06000
H 	H 	0.97176 0.25473 0.08652 0.06400
O 	O 	0.89285 0.22117 0.95243 -0.19300
O 	O 	0.96267 0.32029 0.07650 -0.18500
C 	C 	0.86265 0.21251 0.98121 -0.01500
H 	H 	0.86718 0.20253 0.02650 0.03200
H 	H 	0.85025 0.19215 0.95563 0.04400
H 	H 	0.84503 0.23431 0.98270 0.04100
C 	C 	0.99287 0.32741 0.04643 -0.02300
H 	H 	0.01010 0.30528 0.04725 0.03700
H 	H 	0.00568 0.34847 0.06953 0.05100
H 	H 	0.98835 0.33575 0.00008 0.04800
C 	C 	0.89051 0.44822 0.83629 -0.13300
C 	C 	0.92368 0.44651 0.81476 0.16400
C 	C 	0.93147 0.46069 0.75963 -0.10800
C 	C 	0.90622 0.47516 0.72471 -0.00300
C 	C 	0.87274 0.47467 0.74443 0.09100
C 	C 	0.86493 0.46040 0.79948 -0.02200
H 	H 	0.95733 0.46128 0.74479 0.06600
H 	H 	0.83915 0.46028 0.81470 0.05200
O 	O 	0.94918 0.43455 0.85041 -0.21200
O 	O 	0.84728 0.48617 0.70818 -0.18800
C 	C 	0.95537 0.40051 0.83554 -0.01800
H 	H 	0.93249 0.38458 0.84035 0.05200
H 	H 	0.97448 0.39033 0.86638 0.04600
H 	H 	0.96573 0.39830 0.79001 0.03800
C 	C 	0.83940 0.51968 0.72418 -0.02500
H 	H 	0.81982 0.52922 0.69363 0.04300
H 	H 	0.86145 0.53676 0.71994 0.03600
H 	H 	0.82890 0.52094 0.76972 0.03400
C 	C 	0.92019 0.42984 0.16346 -0.13100
C 	C 	0.93253 0.39849 0.18376 0.16800
C 	C 	0.95294 0.39731 0.23424 -0.10600
C 	C 	0.95967 0.42678 0.26630 -0.00000
C 	C 	0.94631 0.45792 0.24725 0.09000
C 	C 	0.92572 0.45905 0.19712 -0.02000
H 	H 	0.96371 0.37346 0.24813 0.06800
H 	H 	0.91500 0.48294 0.18328 0.03800
O 	O 	0.92768 0.36954 0.15081 -0.18600
O 	O 	0.95134 0.48687 0.28028 -0.19100
C 	C 	0.90059 0.35133 0.17526 -0.02300
H 	H 	0.90706 0.34124 0.21973 0.03900
H 	H 	0.89523 0.32940 0.14628 0.05200
H 	H 	0.87726 0.36678 0.17755 0.04800
C 	C 	0.97677 0.50640 0.25347 -0.02200
H 	H 	0.99963 0.49145 0.24276 0.03700
H 	H 	0.98452 0.52642 0.28489 0.04200
H 	H 	0.96716 0.51899 0.21294 0.02900
C 	C 	0.05086 0.79092 0.06140 0.00000
C 	C 	0.04361 0.76737 0.10631 0.08900
C 	C 	0.05063 0.73305 0.09745 -0.02200
C 	C 	0.06284 0.72166 0.04278 -0.13300
C 	C 	0.06874 0.74515 0.99695 0.18700
C 	C 	0.06375 0.77972 0.00722 -0.12800
H 	H 	0.04621 0.71524 0.13300 0.05700
H 	H 	0.06946 0.79779 0.97264 0.07700
O 	O 	0.03196 0.77820 0.16060 -0.18900
O 	O 	0.08143 0.73459 0.94320 -0.19500
C 	C 	0.99662 0.77661 0.16033 -0.02400
H 	H 	0.98564 0.79323 0.12564 0.03500
H 	H 	0.98727 0.78583 0.20358 0.04200
H 	H 	0.98760 0.75017 0.15495 0.03400
C 	C 	0.05441 0.72934 0.90409 -0.02100
H 	H 	0.03701 0.70945 0.92063 0.04000
H 	H 	0.06464 0.72046 0.86125 0.04600
H 	H 	0.04052 0.75324 0.89538 0.03500
C 	C 	0.03496 0.60314 0.72206 -0.00600
C 	C 	0.03039 0.63549 0.74639 0.09200
C 	C 	0.04137 0.64219 0.80398 -0.02400
C 	C 	0.05768 0.61711 0.83704 -0.13000
C 	C 	0.06389 0.58524 0.81130 0.16600
C 	C 	0.05337 0.57881 0.75327 -0.10500
H 	H 	0.03624 0.66661 0.82358 0.04800
H 	H 	0.05770 0.55413 0.73401 0.06800
O 	O 	0.01206 0.65956 0.71622 -0.19300
O 	O 	0.08126 0.56068 0.84215 -0.19700
C 	C 	0.03448 0.67943 0.68280 -0.02500
H 	H 	0.05245 0.69322 0.71172 0.03900
H 	H 	0.01980 0.69866 0.65827 0.04300
H 	H 	0.04820 0.66398 0.64950 0.04200
C 	C 	0.05788 0.53918 0.87010 -0.01300
H 	H 	0.04153 0.55322 0.90156 0.00900
H 	H 	0.07190 0.52008 0.89610 0.04300
H 	H 	0.04239 0.52529 0.83720 0.03200
C 	C 	0.08529 0.54432 0.26891 -0.00400
C 	C 	0.11027 0.54017 0.22550 0.09200
C 	C 	0.10767 0.55747 0.17163 -0.02100
C 	C 	0.08086 0.57961 0.16145 -0.13100
C 	C 	0.05681 0.58512 0.20597 0.17200
C 	C 	0.05953 0.56797 0.25997 -0.10700
H 	H 	0.12622 0.55319 0.13739 0.05000
H 	H 	0.04074 0.57199 0.29386 0.06600
O 	O 	0.13569 0.51692 0.23361 -0.19000
O 	O 	0.03245 0.60964 0.19872 -0.21200
C 	C 	0.16344 0.53373 0.25861 -0.02400
H 	H 	0.17338 0.55360 0.22843 0.03700
H 	H 	0.18380 0.51506 0.26556 0.04400
H 	H 	0.15716 0.54470 0.30257 0.04100
C 	C 	0.00183 0.59384 0.18416 -0.01500
H 	H 	0.00438 0.57546 0.14716 0.01900
H 	H 	0.98386 0.61355 0.16963 0.02000
H 	H 	0.99084 0.58124 0.22358 0.03000
C 	C 	0.73551 0.89300 0.95379 -0.12000
C 	C 	0.75746 0.90849 0.91304 0.16700
C 	C 	0.78912 0.91951 0.93179 -0.11300
C 	C 	0.79951 0.91402 0.99016 0.01300
C 	C 	0.77923 0.89492 0.02864 0.08200
C 	C 	0.74711 0.88499 0.01065 -0.03100
H 	H 	0.80499 0.93358 0.90163 0.06700
H 	H 	0.73060 0.87268 0.04205 0.05700
O 	O 	0.74667 0.91609 0.85657 -0.20300
O 	O 	0.78930 0.88921 0.08617 -0.19200
C 	C 	0.75484 0.88880 0.81927 -0.02000
H 	H 	0.78246 0.88471 0.81706 0.03500
H 	H 	0.74618 0.89490 0.77393 0.04100
H 	H 	0.74178 0.86521 0.83313 0.04200
C 	C 	0.80626 0.85798 0.08827 -0.02400
H 	H 	0.78944 0.83671 0.07569 0.03700
H 	H 	0.81454 0.85345 0.13437 0.04100
H 	H 	0.82916 0.85818 0.06003 0.03500
C 	C 	0.56544 0.91489 0.68744 -0.00000
C 	C 	0.55714 0.88643 0.72187 0.09200
C 	C 	0.57697 0.87798 0.77089 -0.02000
C 	C 	0.60351 0.89903 0.78780 -0.13300
C 	C 	0.61385 0.92531 0.75008 0.17200
C 	C 	0.59461 0.93331 0.70026 -0.10800
H 	H 	0.57015 0.85652 0.79814 0.05300
H 	H 	0.60128 0.95503 0.67356 0.06800
O 	O 	0.53084 0.86570 0.70549 -0.18700
O 	O 	0.64053 0.94574 0.76560 -0.21800
C 	C 	0.50231 0.87434 0.73920 -0.02500
H 	H 	0.48100 0.85847 0.72434 0.04300
H 	H 	0.49486 0.90117 0.73262 0.03600
H 	H 	0.50629 0.86900 0.78697 0.03800
C 	C 	0.67010 0.93168 0.74182 -0.02100
H 	H 	0.67519 0.90613 0.76043 0.04800
H 	H 	0.69154 0.94807 0.75416 0.04600
H 	H 	0.66915 0.93071 0.69266 0.03800
C 	C 	0.62157 0.90849 0.11802 -0.13000
C 	C 	0.63431 0.93681 0.14869 0.16400
C 	C 	0.61689 0.94938 0.19774 -0.10900
C 	C 	0.58817 0.93283 0.21856 -0.00200
C 	C 	0.57860 0.90169 0.19356 0.09200
C 	C 	0.59614 0.88910 0.14450 -0.02700
H 	H 	0.62502 0.97273 0.21820 0.06600
H 	H 	0.58869 0.86521 0.12526 0.06400
O 	O 	0.66223 0.95386 0.12812 -0.20800
O 	O 	0.55406 0.88223 0.22025 -0.18700
C 	C 	0.69099 0.93931 0.15395 -0.01800
H 	H 	0.69065 0.94189 0.20295 0.03800
H 	H 	0.71342 0.95299 0.13747 0.04300
H 	H 	0.69390 0.91233 0.14096 0.04600
C 	C 	0.52426 0.88441 0.18685 -0.02600
H 	H 	0.51665 0.91094 0.17775 0.03500
H 	H 	0.50368 0.87255 0.21254 0.04400
H 	H 	0.52671 0.87019 0.14472 0.03900
C 	C 	0.20433 0.08011 0.99064 0.00900
C 	C 	0.22333 0.05062 0.98116 0.08800
C 	C 	0.25703 0.05322 0.96438 -0.01900
C 	C 	0.27156 0.08500 0.95430 -0.12500
C 	C 	0.25154 0.11433 0.95825 0.17300
C 	C 	0.21824 0.11179 0.97784 -0.11000
H 	H 	0.27211 0.03052 0.96102 0.04200
H 	H 	0.20348 0.13450 0.98406 0.07100
O 	O 	0.20995 0.01929 0.99433 -0.18800
O 	O 	0.26525 0.14581 0.94758 -0.19300
C 	C 	0.19594 0.00568 0.94237 -0.02500
H 	H 	0.17547 0.02193 0.92467 0.03900
H 	H 	0.18468 0.98080 0.95320 0.04300
H 	H 	0.21548 0.00132 0.90802 0.03600
C 	C 	0.26040 0.15382 0.88749 -0.02400
H 	H 	0.27331 0.13542 0.85800 0.04200
H 	H 	0.27161 0.17900 0.87885 0.04700
H 	H 	0.23323 0.15549 0.87637 0.03800
C 	C 	0.43071 0.06304 0.67611 0.00100
C 	C 	0.39950 0.04845 0.69081 0.09100
C 	C 	0.38195 0.06003 0.74059 -0.02100
C 	C 	0.39638 0.08426 0.77777 -0.13300
C 	C 	0.42529 0.10164 0.75913 0.17000
C 	C 	0.44267 0.09055 0.70889 -0.10700
H 	H 	0.35843 0.04820 0.75283 0.04000
H 	H 	0.46642 0.10215 0.69736 0.06800
O 	O 	0.38521 0.02435 0.65448 -0.18900
O 	O 	0.43899 0.12668 0.79407 -0.19900
C 	C 	0.39041 0.99210 0.67946 -0.02400
H 	H 	0.41738 0.98689 0.68823 0.03700
H 	H 	0.38163 0.97280 0.64753 0.04300
H 	H 	0.37549 0.98891 0.72065 0.03100
C 	C 	0.42651 0.15809 0.77455 -0.02500
H 	H 	0.43343 0.16313 0.72767 0.04100
H 	H 	0.43808 0.17831 0.80163 0.06300
H 	H 	0.39884 0.15982 0.78070 0.05500
C 	C 	0.40103 0.07746 0.10696 -0.13000
C 	C 	0.38487 0.05795 0.15091 0.16600
C 	C 	0.40202 0.04996 0.20329 -0.10500
C 	C 	0.43573 0.05921 0.21029 -0.00600
C 	C 	0.45077 0.08101 0.16901 0.09300
C 	C 	0.43357 0.08974 0.11733 -0.02900
H 	H 	0.38973 0.03471 0.23666 0.06600
H 	H 	0.44611 0.10502 0.08429 0.05500
O 	O 	0.35148 0.04909 0.14480 -0.19600
O 	O 	0.48379 0.09084 0.17600 -0.19500
C 	C 	0.34941 0.01440 0.13071 -0.01300
H 	H 	0.36639 0.00707 0.09372 0.01900
H 	H 	0.32339 0.00877 0.11643 0.03900
H 	H 	0.35472 0.99859 0.17025 0.03200
C 	C 	0.48425 0.12172 0.20698 -0.02400
H 	H 	0.47130 0.14207 0.18178 0.04100
H 	H 	0.51074 0.12963 0.21276 0.04300
H 	H 	0.47313 0.11903 0.25192 0.04200
C 	C 	0.41494 0.21491 0.94464 -0.11500
C 	C 	0.41160 0.24115 0.90308 0.16600
C 	C 	0.42380 0.27349 0.91649 -0.10500
C 	C 	0.43777 0.28011 0.97212 0.00100
C 	C 	0.44244 0.25349 0.01259 0.07700
C 	C 	0.43048 0.22115 0.99904 -0.00400
H 	H 	0.42124 0.29369 0.88446 0.06600
H 	H 	0.43284 0.20103 0.03128 0.04500
O 	O 	0.39877 0.23460 0.84754 -0.20900
O 	O 	0.45588 0.25978 0.06775 -0.18800
C 	C 	0.36437 0.24290 0.84734 -0.02300
H 	H 	0.35004 0.22800 0.88060 0.05000
H 	H 	0.35393 0.23660 0.80329 0.04400
H 	H 	0.36046 0.27045 0.85444 0.04000
C 	C 	0.49077 0.25412 0.06508 -0.02500
H 	H 	0.49656 0.22728 0.05447 0.03800
H 	H 	0.50162 0.25954 0.10917 0.04300
H 	H 	0.50318 0.27137 0.03289 0.03700
C 	C 	0.27112 0.57427 0.02272 -0.01900
C 	C 	0.25166 0.55905 0.97815 0.10400
C 	C 	0.21790 0.56821 0.97137 -0.02000
C 	C 	0.20375 0.59335 0.00717 -0.12400
C 	C 	0.22313 0.60827 0.05224 0.16500
C 	C 	0.25700 0.59940 0.05856 -0.10000
H 	H 	0.20279 0.55587 0.93796 0.05700
H 	H 	0.27197 0.61128 0.09266 0.06500
O 	O 	0.26476 0.53295 0.94482 -0.18800
O 	O 	0.20935 0.63259 0.08871 -0.19400
C 	C 	0.27708 0.54642 0.89134 -0.02600
H 	H 	0.25646 0.55731 0.86417 0.04200
H 	H 	0.28850 0.52561 0.86542 0.04600
H 	H 	0.29703 0.56560 0.89899 0.04100
C 	C 	0.19639 0.61651 0.13949 -0.02400
H 	H 	0.17626 0.59812 0.12812 0.04600
H 	H 	0.18496 0.63598 0.16839 0.05100
H 	H 	0.21658 0.60389 0.16535 0.03700
C 	C 	0.71066 0.44018 0.05231 -0.01100
C 	C 	0.72855 0.46942 0.03603 0.09400
C 	C 	0.76337 0.46782 0.02818 -0.02600
C 	C 	0.78038 0.43698 0.03396 -0.12200
C 	C 	0.76240 0.40758 0.04956 0.16600
C 	C 	0.72749 0.40922 0.05738 -0.10400
H 	H 	0.77711 0.49058 0.01708 0.04000
H 	H 	0.71367 0.38654 0.06872 0.06400
O 	O 	0.71241 0.50028 0.03291 -0.19900
O 	O 	0.77862 0.37682 0.05380 -0.19900
C 	C 	0.70270 0.50599 0.97385 -0.01500
H 	H 	0.72491 0.50808 0.94421 0.03600
H 	H 	0.68905 0.53037 0.97168 0.04100
H 	H 	0.68526 0.48607 0.95766 0.03900
C 	C 	0.78853 0.37190 0.11299 -0.02400
H 	H 	0.80624 0.39189 0.12800 0.04300
H 	H 	0.80197 0.34742 0.11612 0.04400
H 	H 	0.76643 0.37046 0.14303 0.03700
C 	C 	0.57870 0.77436 0.96535 -0.09700
C 	C 	0.55548 0.77427 0.01237 0.15000
C 	C 	0.54209 0.74356 0.03241 -0.09700
C 	C 	0.55046 0.71320 0.00421 -0.01700
C 	C 	0.57308 0.71342 0.95632 0.10700
C 	C 	0.58660 0.74410 0.93649 -0.03600
H 	H 	0.52534 0.74337 0.07015 0.06300
H 	H 	0.60388 0.74420 0.89949 0.05500
O 	O 	0.54873 0.80371 0.04293 -0.19700
O 	O 	0.58026 0.68388 0.92632 -0.19300
C 	C 	0.51810 0.81707 0.02224 -0.03000
H 	H 	0.51829 0.82116 0.97354 0.05400
H 	H 	0.51408 0.84206 0.04323 0.04000
H 	H 	0.49665 0.80062 0.03507 0.03500
C 	C 	0.60993 0.66992 0.94986 -0.02500
H 	H 	0.63183 0.68685 0.94235 0.04100
H 	H 	0.61517 0.64581 0.92667 0.04400
H 	H 	0.60729 0.66393 0.99770 0.04300
