data_crystal

_cell_length_a 16.93192
_cell_length_b 17.83894
_cell_length_c 36.58759
_cell_angle_alpha 60.57198
_cell_angle_beta  119.13851
_cell_angle_gamma 133.16454

_symmetry_space_group_name_	'P 1'
_symmetry_space_group_name_H-M	'P 1'

loop_
_symmetry_equiv_pos_as_xyz
  x,y,z

loop_
_atom_site_label
_atom_site_type_symbol
_atom_site_fract_x
_atom_site_fract_y
_atom_site_fract_z
_atom_site_charge
C 	C 	0.81342 0.32157 0.04169 0.02700
C 	C 	0.87069 0.43003 0.03641 -0.07500
C 	C 	0.81210 0.47380 0.01966 0.04200
C 	C 	0.69524 0.40897 0.00705 -0.09000
C 	C 	0.63725 0.29957 0.01286 0.03800
C 	C 	0.69689 0.25701 0.02923 -0.07400
H 	H 	0.96097 0.47981 0.04657 0.05600
H 	H 	0.64992 0.44347 0.99228 0.06900
H 	H 	0.65238 0.17260 0.03442 0.05100
C 	C 	0.60876 0.21356 0.50467 0.02400
C 	C 	0.49507 0.15517 0.50220 -0.06700
C 	C 	0.45135 0.20621 0.49611 0.03000
C 	C 	0.51617 0.31669 0.48521 -0.06900
C 	C 	0.63018 0.37594 0.48863 0.03100
C 	C 	0.67520 0.32490 0.49621 -0.06700
H 	H 	0.44357 0.06938 0.50902 0.05200
H 	H 	0.48059 0.35616 0.47820 0.05400
H 	H 	0.76404 0.37026 0.50016 0.05400
C 	C 	0.41201 0.76645 0.13407 0.03000
C 	C 	0.51334 0.83881 0.12190 -0.07600
C 	C 	0.55359 0.80387 0.11295 0.03300
C 	C 	0.48732 0.69817 0.11178 -0.07300
C 	C 	0.38319 0.62519 0.12218 0.03000
C 	C 	0.34721 0.65893 0.13465 -0.07400
H 	H 	0.56321 0.92181 0.12112 0.04900
H 	H 	0.52028 0.67131 0.10582 0.05500
H 	H 	0.27118 0.60127 0.14592 0.04600
C 	C 	0.15134 0.54657 0.65833 0.04200
C 	C 	0.25148 0.63489 0.64479 -0.07900
C 	C 	0.31477 0.61960 0.63847 0.03400
C 	C 	0.27446 0.51627 0.64297 -0.07600
C 	C 	0.17478 0.42840 0.65600 0.03700
C 	C 	0.11660 0.44375 0.66559 -0.08100
H 	H 	0.27883 0.71480 0.63823 0.05100
H 	H 	0.32077 0.50446 0.63642 0.05600
H 	H 	0.03997 0.37551 0.67606 0.04700
Co	Co	0.07262 0.88526 0.09186 1.17500
Co	Co	0.10689 0.16691 0.07481 1.18100
Co	Co	0.04154 0.97436 0.14129 1.16700
Co	Co	0.13039 0.07649 0.02329 1.18400
C 	C 	0.95519 0.72756 0.04388 0.36300
Co	Co	0.17481 0.92344 0.02375 1.15900
Co	Co	0.10494 0.17038 0.16210 1.16500
C 	C 	0.34382 0.16161 0.00975 0.34400
O 	O 	0.18534 0.10964 0.21526 -0.39200
O 	O 	0.10586 0.10680 0.12714 -0.75300
C 	C 	0.13094 0.00745 0.23169 0.30700
O 	O 	0.99770 0.84178 0.13519 -0.44900
O 	O 	0.10311 0.17819 0.01611 -0.47500
C 	C 	0.26692 0.36154 0.11057 0.31700
O 	O 	0.13372 0.04399 0.09203 -0.56800
C 	C 	0.86924 0.97360 0.14453 0.31200
C 	C 	0.24989 0.85196 0.11723 0.31800
C 	C 	0.03098 0.98658 0.94749 0.21500
O 	O 	0.09082 0.94348 0.20923 -0.38600
O 	O 	0.28652 0.92809 0.08302 -0.40400
O 	O 	0.17519 0.83303 0.12994 -0.38900
O 	O 	0.25814 0.30262 0.15008 -0.38800
O 	O 	0.23945 0.32247 0.08016 -0.38800
O 	O 	0.94888 0.03079 0.17313 -0.38600
O 	O 	0.89040 0.94627 0.12451 -0.40300
O 	O 	0.05452 0.91718 0.96735 -0.37800
O 	O 	0.01444 0.01465 0.96931 -0.35800
O 	O 	0.13629 0.97178 0.05092 -0.77700
C 	C 	0.95641 0.20093 0.07504 0.38000
O 	O 	0.03476 0.24298 0.10783 -0.44600
O 	O 	0.96058 0.14973 0.06007 -0.40800
O 	O 	0.05702 0.76404 0.04760 -0.43900
O 	O 	0.94011 0.77604 0.05531 -0.40300
O 	O 	0.29061 0.07932 0.99518 -0.38600
O 	O 	0.28815 0.18468 0.01262 -0.40200
Co	Co	0.88465 0.75898 0.58476 1.19300
Co	Co	0.92188 0.04733 0.56444 1.19200
Co	Co	0.82157 0.83623 0.62475 1.18600
Co	Co	0.99698 0.97145 0.52736 1.18900
C 	C 	0.76987 0.61710 0.52422 0.32900
Co	Co	0.00805 0.79405 0.52785 1.15700
Co	Co	0.81575 0.00361 0.63408 1.17100
C 	C 	0.21257 0.99859 0.54710 0.31800
O 	O 	0.81012 0.88861 0.69076 -0.39400
O 	O 	0.84823 0.95745 0.60285 -0.76200
C 	C 	0.88893 0.87502 0.70891 0.26500
O 	O 	0.81266 0.71307 0.62927 -0.46200
O 	O 	0.00119 0.09394 0.52179 -0.46900
C 	C 	0.04956 0.18041 0.62825 0.29400
O 	O 	0.87077 0.89264 0.56391 -0.58100
C 	C 	0.60953 0.78893 0.62512 0.31400
C 	C 	0.02729 0.68695 0.62062 0.29600
C 	C 	0.97776 0.94779 0.44654 0.29300
O 	O 	0.91936 0.86373 0.68593 -0.38000
O 	O 	0.98566 0.66997 0.58249 -0.39000
O 	O 	0.01206 0.74166 0.62750 -0.40800
O 	O 	0.98522 0.10675 0.65570 -0.38000
O 	O 	0.05789 0.15394 0.60276 -0.39700
O 	O 	0.64916 0.89040 0.61150 -0.39800
O 	O 	0.65432 0.75497 0.62143 -0.38400
O 	O 	0.04151 0.91527 0.47197 -0.42000
O 	O 	0.94230 0.96988 0.46262 -0.37300
O 	O 	0.95257 0.84362 0.54553 -0.75800
C 	C 	0.77865 0.11705 0.54105 0.35700
O 	O 	0.82312 0.12659 0.58088 -0.41600
O 	O 	0.81326 0.09286 0.52550 -0.38900
O 	O 	0.84304 0.69481 0.50001 -0.39300
O 	O 	0.76284 0.63380 0.55411 -0.38400
O 	O 	0.16536 0.89609 0.56047 -0.41000
O 	O 	0.16757 0.03843 0.54630 -0.38700
C 	C 	0.92224 0.85466 0.81291 0.15800
C 	C 	0.86282 0.83679 0.83626 -0.10800
C 	C 	0.90292 0.92189 0.84931 0.04000
C 	C 	0.00244 0.01881 0.84232 0.09300
C 	C 	0.06037 0.03763 0.81793 -0.05700
C 	C 	0.01973 0.95264 0.80461 -0.03300
O 	O 	0.87004 0.79532 0.78402 -0.19900
C 	C 	0.93974 0.86990 0.75517 0.07400
C 	C 	0.03158 0.96278 0.76825 -0.09600
O 	O 	0.05642 0.07476 0.87289 -0.20000
C 	C 	0.98375 0.99971 0.90066 0.09100
C 	C 	0.88935 0.91057 0.88542 -0.07700
H 	H 	0.78605 0.75981 0.84297 0.07400
H 	H 	0.13707 0.11463 0.81116 0.06100
H 	H 	0.07695 0.03860 0.74630 0.07100
H 	H 	0.83958 0.83403 0.90607 0.06900
C 	C 	0.01922 0.91528 0.31563 0.10000
C 	C 	0.93056 0.88866 0.32526 -0.06800
C 	C 	0.95361 0.95448 0.34505 0.02100
C 	C 	0.06009 0.04214 0.35530 0.09700
C 	C 	0.14866 0.06653 0.34663 -0.05700
C 	C 	0.12651 0.99781 0.32895 -0.04300
O 	O 	0.00407 0.88843 0.28167 -0.18900
C 	C 	0.11255 0.96461 0.27521 -0.01200
C 	C 	0.18618 0.02792 0.30421 0.00200
O 	O 	0.07751 0.07293 0.38827 -0.19200
C 	C 	0.97604 0.98931 0.40039 0.04800
C 	C 	0.90010 0.92031 0.37356 -0.06100
H 	H 	0.84634 0.82085 0.31668 0.06500
H 	H 	0.23303 0.13415 0.35531 0.05700
H 	H 	0.26257 0.10635 0.29831 0.04300
H 	H 	0.83218 0.83829 0.38340 0.05300
C 	C 	0.13143 0.31890 0.66101 -0.00800
C 	C 	0.12435 0.29259 0.63010 -0.13600
H 	H 	0.09253 0.25686 0.68775 0.03900
H 	H 	0.16468 0.35426 0.60369 0.07400
C 	C 	0.51065 0.70975 0.64330 -0.14200
C 	C 	0.42163 0.71230 0.62548 -0.00100
H 	H 	0.50631 0.64221 0.66927 0.08100
H 	H 	0.42655 0.78135 0.60070 0.03600
C 	C 	0.06995 0.55863 0.65607 -0.03000
C 	C 	0.09812 0.65180 0.65378 -0.13100
H 	H 	0.98179 0.49510 0.64803 0.06100
H 	H 	0.18132 0.70904 0.66953 0.07300
C 	C 	0.31975 0.47527 0.10149 -0.14600
C 	C 	0.31958 0.51046 0.12675 0.00300
H 	H 	0.35586 0.52982 0.07360 0.07700
H 	H 	0.27219 0.45360 0.15149 0.02700
C 	C 	0.75322 0.92281 0.14162 -0.14200
C 	C 	0.67006 0.87428 0.10997 -0.00100
H 	H 	0.73471 0.92070 0.16684 0.08000
H 	H 	0.68829 0.87646 0.08465 0.04200
C 	C 	0.37792 0.80475 0.14770 0.00200
C 	C 	0.27237 0.77291 0.13495 -0.15100
H 	H 	0.44298 0.87703 0.15901 0.03500
H 	H 	0.20437 0.69507 0.12858 0.07400
C 	C 	0.71078 0.14823 0.51448 -0.19300
C 	C 	0.66347 0.15867 0.53119 0.02600
H 	H 	0.69316 0.16384 0.47969 0.09800
H 	H 	0.66746 0.12847 0.56567 0.02900
C 	C 	0.70513 0.48747 0.49119 0.00500
C 	C 	0.69244 0.51622 0.51657 -0.16100
H 	H 	0.77632 0.54438 0.47676 0.03800
H 	H 	0.62646 0.45593 0.53388 0.08800
C 	C 	0.31560 0.06320 0.54136 -0.16500
C 	C 	0.34324 0.14494 0.50615 0.01400
H 	H 	0.36910 0.03649 0.56039 0.08700
H 	H 	0.28805 0.16959 0.48543 0.04100
C 	C 	0.87420 0.27314 0.06888 0.02800
C 	C 	0.88018 0.22225 0.05347 -0.20400
H 	H 	0.92293 0.28782 0.10087 0.03800
H 	H 	0.82536 0.20117 0.02284 0.09700
C 	C 	0.86463 0.63022 0.03304 -0.16600
C 	C 	0.87505 0.58946 0.01236 -0.00900
H 	H 	0.78682 0.58510 0.04150 0.08600
H 	H 	0.94440 0.64216 0.99718 0.05500
C 	C 	0.51394 0.22827 0.00209 0.00200
C 	C 	0.45438 0.23478 0.01350 -0.18100
H 	H 	0.47278 0.16397 0.98838 0.05200
H 	H 	0.49672 0.30048 0.02656 0.08900
