data_crystal

_cell_length_a 18.52523
_cell_length_b 18.80049
_cell_length_c 39.86159
_cell_angle_alpha 95.43781
_cell_angle_beta  95.43788
_cell_angle_gamma 126.43001

_symmetry_space_group_name_	'P 1'
_symmetry_space_group_name_H-M	'P 1'

loop_
_symmetry_equiv_pos_as_xyz
  x,y,z

loop_
_atom_site_label
_atom_site_type_symbol
_atom_site_fract_x
_atom_site_fract_y
_atom_site_fract_z
_atom_site_charge
C 	C 	0.90234 0.99729 0.96893 0.17300
N 	N 	0.99261 0.04978 0.96761 -0.14000
C 	C 	0.03784 0.01379 0.96677 0.14600
N 	N 	0.99317 0.92533 0.96764 -0.12500
C 	C 	0.90296 0.87216 0.96891 0.15300
N 	N 	0.85712 0.90808 0.96964 -0.12400
C 	C 	0.95364 0.03601 0.50170 0.13800
N 	N 	0.89894 0.94674 0.50252 -0.11600
C 	C 	0.93401 0.90072 0.50246 0.15200
N 	N 	0.02398 0.94415 0.50226 -0.11500
C 	C 	0.07918 0.03352 0.50195 0.14300
N 	N 	0.04394 0.07955 0.50132 -0.12200
Cu	Cu	0.75494 0.34378 0.96498 0.92900
Cu	Cu	0.74396 0.28499 0.04031 0.88700
Cu	Cu	0.60554 0.29719 0.00589 0.90100
Cu	Cu	0.58187 0.32835 0.93489 0.90200
C 	C 	0.69123 0.30334 0.89189 0.29200
O 	O 	0.80490 0.47317 0.96168 -0.33700
C 	C 	0.66058 0.33718 0.08207 0.28700
O 	O 	0.61191 0.26619 0.95962 -0.63900
O 	O 	0.74035 0.36246 0.01283 -0.63900
O 	O 	0.81903 0.28833 0.97217 -0.35600
O 	O 	0.71947 0.19558 0.00453 -0.41800
O 	O 	0.65052 0.34082 0.89736 -0.36300
O 	O 	0.47404 0.22519 0.99663 -0.36700
C 	C 	0.42389 0.22642 0.97117 0.31600
C 	C 	0.75997 0.50471 0.96957 0.29800
O 	O 	0.67491 0.44910 0.97332 -0.38200
O 	O 	0.45964 0.27458 0.94712 -0.38000
O 	O 	0.74587 0.30715 0.91714 -0.35200
C 	C 	0.78100 0.21525 0.98566 0.30600
O 	O 	0.59800 0.31278 0.05494 -0.36500
O 	O 	0.73560 0.34612 0.07881 -0.40200
H 	H 	0.57472 0.20070 0.95068 0.17100
H 	H 	0.77623 0.42600 0.02460 0.18200
Cu	Cu	0.62157 0.20270 0.50607 0.93100
Cu	Cu	0.68603 0.21242 0.43179 0.87700
Cu	Cu	0.66273 0.34474 0.46311 0.90300
Cu	Cu	0.62270 0.36570 0.53303 0.90500
C 	C 	0.65513 0.26638 0.57856 0.30900
O 	O 	0.48889 0.14692 0.50799 -0.35300
C 	C 	0.62569 0.28502 0.38750 0.31200
O 	O 	0.69313 0.34250 0.51025 -0.63700
O 	O 	0.60337 0.21330 0.45763 -0.63900
O 	O 	0.68118 0.14322 0.50086 -0.35200
O 	O 	0.77669 0.24097 0.46880 -0.42800
O 	O 	0.61243 0.30130 0.57159 -0.37100
O 	O 	0.72809 0.47363 0.47127 -0.37000
C 	C 	0.72786 0.52132 0.49778 0.31400
C 	C 	0.45193 0.18469 0.49734 0.30400
O 	O 	0.50467 0.26870 0.49349 -0.37600
O 	O 	0.67027 0.48268 0.51895 -0.36700
O 	O 	0.65776 0.21543 0.55430 -0.33900
C 	C 	0.75758 0.18295 0.48891 0.31100
O 	O 	0.65146 0.34929 0.41363 -0.37000
O 	O 	0.62286 0.21488 0.39183 -0.40600
H 	H 	0.75938 0.38248 0.51999 0.18200
H 	H 	0.53912 0.17457 0.44530 0.19100
C 	C 	0.69445 0.27854 0.85615 -0.07300
C 	C 	0.61594 0.23512 0.83061 0.01900
C 	C 	0.62152 0.22437 0.79600 -0.05800
C 	C 	0.70567 0.25683 0.78656 0.03300
C 	C 	0.78334 0.29616 0.81213 -0.05700
C 	C 	0.77777 0.30688 0.84680 0.02500
C 	C 	0.71381 0.25692 0.75004 0.00900
C 	C 	0.66028 0.17573 0.72607 -0.03400
C 	C 	0.65676 0.17682 0.69092 -0.02500
C 	C 	0.70696 0.25899 0.67950 0.00500
C 	C 	0.76422 0.33984 0.70343 -0.02500
C 	C 	0.76769 0.33888 0.73858 -0.03300
C 	C 	0.69144 0.26095 0.64358 0.05800
C 	C 	0.67618 0.26318 0.61375 -0.07800
H 	H 	0.55109 0.21208 0.83752 0.03300
H 	H 	0.56108 0.19365 0.77649 0.05700
H 	H 	0.84847 0.32069 0.80512 0.06000
H 	H 	0.83889 0.34042 0.86624 0.05300
H 	H 	0.61914 0.11205 0.73464 0.05100
H 	H 	0.61265 0.11398 0.67258 0.05500
H 	H 	0.80347 0.40362 0.69481 0.05400
H 	H 	0.80937 0.40194 0.75683 0.05500
C 	C 	0.64393 0.35010 0.11689 -0.07500
C 	C 	0.71777 0.40331 0.14466 0.01600
C 	C 	0.70220 0.40263 0.17830 -0.05800
C 	C 	0.61265 0.34947 0.18457 0.02900
C 	C 	0.53868 0.30135 0.15680 -0.05600
C 	C 	0.55420 0.30160 0.12310 0.01600
C 	C 	0.59685 0.33673 0.21992 0.00800
C 	C 	0.55209 0.25063 0.22813 -0.03500
C 	C 	0.54900 0.24004 0.26234 -0.02700
C 	C 	0.59074 0.31532 0.28861 -0.00000
C 	C 	0.63165 0.40082 0.28038 -0.02600
C 	C 	0.63443 0.41150 0.24613 -0.03500
C 	C 	0.60067 0.30608 0.32391 0.05500
C 	C 	0.61094 0.29712 0.35314 -0.09300
H 	H 	0.78731 0.44293 0.14025 0.04400
H 	H 	0.75982 0.44066 0.19952 0.05500
H 	H 	0.46925 0.26128 0.16134 0.05800
H 	H 	0.49649 0.26105 0.10197 0.05700
H 	H 	0.52284 0.19243 0.20816 0.04700
H 	H 	0.51702 0.17370 0.26849 0.04900
H 	H 	0.66374 0.45932 0.30054 0.05400
H 	H 	0.66824 0.47813 0.24007 0.05200
C 	C 	0.76319 0.65024 0.47144 -0.01600
C 	C 	0.77877 0.61840 0.49952 -0.09100
C 	C 	0.84195 0.67973 0.52928 0.14000
C 	C 	0.88934 0.77205 0.53056 -0.06300
C 	C 	0.87487 0.80395 0.50228 -0.01700
C 	C 	0.81104 0.74261 0.47264 0.09900
Br	Br	0.79119 0.78379 0.43301 -0.18900
H 	H 	0.71409 0.60312 0.44858 0.07200
H 	H 	0.93922 0.81925 0.55326 0.08900
Br	Br	0.86835 0.63900 0.56766 -0.23600
C 	C 	0.83286 0.12305 0.46342 -0.01800
C 	C 	0.81304 0.15080 0.49278 -0.10000
C 	C 	0.84697 0.14811 0.52544 0.14300
C 	C 	0.89644 0.11387 0.52822 -0.06700
C 	C 	0.91362 0.08353 0.49875 -0.01500
C 	C 	0.88290 0.08957 0.46627 0.09700
Br	Br	0.90666 0.05020 0.42542 -0.20800
H 	H 	0.80797 0.12605 0.43827 0.04300
H 	H 	0.92060 0.10984 0.55330 0.08100
Br	Br	0.83024 0.19446 0.56655 -0.21400
C 	C 	0.20990 0.10465 0.47159 -0.06400
C 	C 	0.17655 0.07959 0.50188 -0.01700
C 	C 	0.23314 0.08632 0.53022 0.09900
C 	C 	0.32152 0.11618 0.52782 -0.02200
C 	C 	0.35489 0.14095 0.49750 -0.09400
C 	C 	0.29847 0.13473 0.46919 0.13900
Br	Br	0.33953 0.16258 0.42650 -0.23400
H 	H 	0.16596 0.09800 0.44951 0.08700
H 	H 	0.36531 0.12266 0.54991 0.07000
Br	Br	0.19166 0.05742 0.57278 -0.21300
C 	C 	0.84861 0.72258 0.93870 -0.06100
C 	C 	0.85487 0.77513 0.96796 -0.01700
C 	C 	0.83190 0.73907 0.99802 0.10000
C 	C 	0.80441 0.65185 0.99869 -0.02100
C 	C 	0.80021 0.60006 0.96965 -0.09000
C 	C 	0.82172 0.63568 0.93939 0.13600
Br	Br	0.81280 0.56627 0.89838 -0.21400
H 	H 	0.86708 0.75028 0.91560 0.09000
H 	H 	0.78598 0.62420 0.02179 0.06200
Br	Br	0.84008 0.80874 0.03872 -0.20700
C 	C 	0.86005 0.07590 0.00567 -0.06000
C 	C 	0.85641 0.03928 0.97268 -0.03300
C 	C 	0.82725 0.06019 0.94386 0.10300
C 	C 	0.80454 0.11920 0.94829 -0.02000
C 	C 	0.81085 0.15795 0.98136 -0.09400
C 	C 	0.83923 0.13623 0.01020 0.13900
Br	Br	0.85796 0.19424 0.05597 -0.28500
H 	H 	0.88412 0.06145 0.02794 0.08000
H 	H 	0.78154 0.13448 0.92601 0.06700
Br	Br	0.81915 0.00959 0.89825 -0.21100
C 	C 	0.26479 0.10889 0.94072 -0.01600
C 	C 	0.32528 0.17430 0.96989 -0.09600
C 	C 	0.29080 0.19015 0.99728 0.14200
C 	C 	0.19646 0.13852 0.99567 -0.06500
C 	C 	0.13609 0.07146 0.96689 -0.01700
C 	C 	0.17049 0.05759 0.93907 0.08900
Br	Br	0.08973 0.97087 0.89818 -0.18200
H 	H 	0.29113 0.09762 0.91937 0.05700
H 	H 	0.17002 0.14994 0.01695 0.08000
Br	Br	0.37113 0.28426 0.03646 -0.22100
