data_crystal

_cell_length_a 16.42602
_cell_length_b 15.05368
_cell_length_c 36.71041
_cell_angle_alpha 89.87928
_cell_angle_beta  89.88161
_cell_angle_gamma 119.42806

_symmetry_space_group_name_	'P 1'
_symmetry_space_group_name_H-M	'P 1'

loop_
_symmetry_equiv_pos_as_xyz
  x,y,z

loop_
_atom_site_label
_atom_site_type_symbol
_atom_site_fract_x
_atom_site_fract_y
_atom_site_fract_z
_atom_site_charge
Ni	Ni	0.04036 0.92210 0.75835 1.10100
Ni	Ni	0.05895 0.13704 0.72927 1.11200
O 	O 	0.01803 0.18466 0.28564 -0.39200
O 	O 	0.92012 0.77395 0.21918 -0.35200
H 	H 	0.06021 0.35561 0.22986 0.03800
C 	C 	0.11591 0.58439 0.53760 0.34200
F 	F 	0.18046 0.56285 0.55185 -0.44200
C 	C 	0.04299 0.47183 0.94787 0.28500
F 	F 	0.07515 0.49654 0.91317 -0.44600
C 	C 	0.19290 0.11597 0.78344 0.29200
C 	C 	0.17018 0.05893 0.69888 0.30300
O 	O 	0.12386 0.02968 0.79557 -0.39400
O 	O 	0.17650 0.17684 0.76142 -0.37000
O 	O 	0.15680 0.98816 0.72303 -0.36600
O 	O 	0.10157 0.07450 0.69112 -0.39900
C 	C 	0.27525 0.87887 0.39734 0.28900
C 	C 	0.20793 0.64992 0.48064 0.32600
C 	C 	0.26211 0.57419 0.35520 0.29100
O 	O 	0.33413 0.91607 0.42582 -0.32400
O 	O 	0.29821 0.84683 0.36769 -0.36200
O 	O 	0.23656 0.55933 0.38961 -0.38900
O 	O 	0.25464 0.74982 0.47928 -0.37500
O 	O 	0.24701 0.59207 0.47139 -0.35300
O 	O 	0.34571 0.74147 0.41709 -0.70400
H 	H 	0.27877 0.72020 0.41504 0.15800
C 	C 	0.18515 0.60368 0.16114 0.30000
C 	C 	0.19775 0.36688 0.09590 0.30600
C 	C 	0.12573 0.55770 0.04158 0.37300
Ni	Ni	0.26579 0.70660 0.09342 1.12200
Ni	Ni	0.29269 0.54658 0.04630 1.12400
O 	O 	0.16720 0.65382 0.05250 -0.37700
O 	O 	0.16692 0.60515 0.12683 -0.38400
O 	O 	0.21412 0.42013 0.12565 -0.36600
O 	O 	0.25436 0.40447 0.06739 -0.35200
O 	O 	0.15842 0.49973 0.05171 -0.40900
C 	C 	0.00596 0.11417 0.19321 0.26900
C 	C 	0.10443 0.20077 0.28370 0.30400
C 	C 	0.00918 0.82167 0.21055 0.26400
C 	C 	0.02205 0.86258 0.30594 0.23800
Ni	Ni	0.07387 0.01526 0.24571 1.10600
O 	O 	0.05176 0.92011 0.20434 -0.38200
O 	O 	0.07952 0.12232 0.21059 -0.38200
O 	O 	0.08466 0.91598 0.28031 -0.36700
O 	O 	0.12139 0.12374 0.28453 -0.39900
C 	C 	0.01546 0.13573 0.15326 -0.12000
C 	C 	0.07920 0.11766 0.13331 0.00100
C 	C 	0.12744 0.18086 0.10363 0.01200
C 	C 	0.11497 0.26447 0.09545 -0.04000
C 	C 	0.03042 0.25816 0.10666 -0.08100
C 	C 	0.98217 0.19701 0.13682 0.11400
H 	H 	0.09659 0.06062 0.14257 0.04200
H 	H 	0.01114 0.31259 0.09617 0.08800
C 	C 	0.05652 0.76089 0.20270 -0.05700
C 	C 	0.00147 0.65706 0.19381 -0.06100
C 	C 	0.04305 0.59681 0.18712 0.02700
C 	C 	0.14093 0.64107 0.18718 -0.08000
C 	C 	0.19466 0.73962 0.20113 -0.02400
C 	C 	0.15413 0.80121 0.20783 0.03600
S 	S 	0.97214 0.46688 0.17663 0.00800
S 	S 	0.22704 0.92797 0.22189 -0.04400
H 	H 	0.26062 0.98994 0.19186 0.04700
H 	H 	0.96065 0.45544 0.13965 0.07600
H 	H 	0.92625 0.62328 0.19166 0.08500
H 	H 	0.26951 0.77167 0.20359 0.05800
C 	C 	0.24713 0.48550 0.33291 -0.07400
C 	C 	0.22189 0.48101 0.29617 -0.01900
C 	C 	0.18772 0.38939 0.27692 0.03600
C 	C 	0.17877 0.30170 0.29454 -0.07500
C 	C 	0.21984 0.31138 0.32856 -0.02100
C 	C 	0.25013 0.40051 0.34867 0.04900
S 	S 	0.15321 0.38402 0.23123 -0.02400
S 	S 	0.28594 0.40115 0.39397 -0.07600
H 	H 	0.22383 0.54681 0.28321 0.05400
H 	H 	0.21814 0.24532 0.34124 0.05300
C 	C 	0.18531 0.87884 0.39666 -0.06500
C 	C 	0.10537 0.78449 0.38935 -0.00900
C 	C 	0.04300 0.77693 0.36173 0.00900
C 	C 	0.05618 0.86606 0.34378 -0.05500
C 	C 	0.12071 0.96128 0.35850 -0.01200
C 	C 	0.18464 0.96775 0.38523 0.04800
S 	S 	0.26784 0.08769 0.40188 0.02300
H 	H 	0.23298 0.11041 0.43223 0.04500
H 	H 	0.10140 0.71532 0.39999 0.03500
H 	H 	0.12573 0.03048 0.34734 0.03800
C 	C 	0.11818 0.60663 0.50018 -0.11500
C 	C 	0.29131 0.23520 0.67502 0.04900
C 	C 	0.26696 0.13525 0.68762 -0.08100
S 	S 	0.21370 0.28432 0.67834 -0.07600
H 	H 	0.22694 0.33533 0.71054 0.02900
C 	C 	0.08979 0.54175 0.97602 -0.06600
C 	C 	0.05663 0.51934 0.01207 -0.18900
H 	H 	0.15560 0.60986 0.97021 0.08500
C 	C 	0.28990 0.13360 0.78869 -0.07100
C 	C 	0.30215 0.04974 0.79817 -0.02600
H 	H 	0.24414 0.97267 0.79599 0.04400
H 	H 	0.37892 0.52676 0.52809 0.10600
S 	S 	0.06621 0.40845 0.77547 -0.06000
H 	H 	0.15701 0.09431 0.04928 0.03500
H 	H 	0.09567 0.38745 0.80761 0.06100
H 	H 	0.00419 0.87129 0.86909 0.01700
H 	H 	0.39773 0.37271 0.64944 0.05800
H 	H 	0.01227 0.67260 0.91136 0.03500
C 	C 	0.38087 0.29896 0.66070 -0.01900
O 	O 	0.25857 0.59582 0.17065 -0.35800
Ni	Ni	0.33648 0.61389 0.42706 1.12000
C 	C 	0.45854 0.70107 0.48881 0.36700
Ni	Ni	0.38314 0.83124 0.45701 1.11800
Ni	Ni	0.39241 0.80014 0.36852 1.12500
O 	O 	0.42579 0.76215 0.49769 -0.33600
O 	O 	0.45382 0.67261 0.45578 -0.40100
O 	O 	0.30560 0.66823 0.34083 -0.36300
C 	C 	0.37953 0.77250 0.02738 0.33500
Ni	Ni	0.33295 0.55746 0.13292 1.11900
O 	O 	0.32813 0.67608 0.01546 -0.36800
O 	O 	0.35734 0.80299 0.05761 -0.38200
O 	O 	0.36091 0.78316 0.13512 -0.35900
O 	O 	0.31949 0.62001 0.09023 -0.71400
H 	H 	0.38462 0.67235 0.08562 0.17100
S 	S 	0.20437 0.15674 0.07784 0.04400
H 	H 	0.37463 0.41456 0.39427 0.05800
H 	H 	0.44313 0.13611 0.48153 0.10600
F 	F 	0.47139 0.12094 0.41187 -0.44100
C 	C 	0.45405 0.56260 0.52460 -0.09600
C 	C 	0.49581 0.50085 0.52265 0.34000
F 	F 	0.44232 0.39868 0.52786 -0.43300
C 	C 	0.44671 0.26582 0.65884 -0.07900
C 	C 	0.33635 0.10753 0.68944 -0.01800
C 	C 	0.42485 0.17048 0.67487 0.04800
H 	H 	0.32024 0.03407 0.70077 0.05400
H 	H 	0.33948 0.88340 0.98042 0.09400
C 	C 	0.46338 0.39403 0.04706 0.34300
H 	H 	0.42134 0.28633 0.00321 0.10500
F 	F 	0.40619 0.32368 0.07165 -0.44200
C 	C 	0.38690 0.06545 0.81298 0.03100
C 	C 	0.36930 0.23191 0.78755 0.04000
S 	S 	0.36083 0.34111 0.77670 -0.02600
H 	H 	0.38094 0.36430 0.74058 0.03800
H 	H 	0.37215 0.94563 0.86537 0.06000
C 	C 	0.49333 0.11088 0.47589 -0.11300
C 	C 	0.41374 0.91293 0.98435 -0.07500
S 	S 	0.39623 0.96086 0.82922 -0.01700
O 	O 	0.51969 0.25916 0.86996 -0.36700
C 	C 	0.55230 0.15358 0.53911 0.33900
C 	C 	0.52402 0.31444 0.63218 0.31700
O 	O 	0.53086 0.25583 0.60831 -0.37600
O 	O 	0.57597 0.24757 0.53500 -0.36900
O 	O 	0.61582 0.45812 0.56788 -0.37400
C 	C 	0.53541 0.96494 0.41314 0.35300
C 	C 	0.50765 0.70860 0.38231 0.30900
O 	O 	0.43225 0.62121 0.39031 -0.37400
O 	O 	0.51178 0.88830 0.43410 -0.39400
O 	O 	0.48632 0.94863 0.38329 -0.34100
O 	O 	0.50034 0.77652 0.36264 -0.37700
C 	C 	0.45599 0.53838 0.07211 0.33600
C 	C 	0.44175 0.78211 0.14035 0.28300
O 	O 	0.41685 0.50750 0.10511 -0.33800
O 	O 	0.42637 0.58249 0.04892 -0.37400
O 	O 	0.44264 0.69602 0.14633 -0.36300
S 	S 	0.45703 0.95017 0.20046 -0.01000
H 	H 	0.48883 0.05105 0.19278 0.03300
S 	S 	0.57897 0.54534 0.36866 -0.01600
H 	H 	0.59631 0.49923 0.39752 0.05500
C 	C 	0.57550 0.06310 0.43205 -0.15700
C 	C 	0.51541 0.10196 0.43949 0.33400
C 	C 	0.54325 0.09757 0.50485 -0.14500
C 	C 	0.50465 0.66584 0.51474 -0.11900
C 	C 	0.60288 0.71151 0.51268 0.34000
C 	C 	0.59337 0.54464 0.51850 -0.12100
S 	S 	0.50523 0.12520 0.67490 -0.07600
H 	H 	0.49262 0.06760 0.64440 0.02500
C 	C 	0.47658 0.01358 0.97396 0.32800
C 	C 	0.44525 0.85358 0.00264 -0.11600
F 	F 	0.44390 0.06970 0.95679 -0.45000
C 	C 	0.51145 0.49704 0.05644 -0.12400
C 	C 	0.46403 0.36562 0.01089 -0.09300
C 	C 	0.52840 0.43630 0.98581 -0.12600
C 	C 	0.46197 0.16487 0.81622 -0.06900
C 	C 	0.45599 0.24463 0.79852 -0.02200
H 	H 	0.51574 0.32085 0.79905 0.04200
C 	C 	0.63808 0.48934 0.53482 0.35100
C 	C 	0.97279 0.42816 0.01884 0.38800
C 	C 	0.52405 0.19307 0.84813 0.29200
C 	C 	0.56167 0.39557 0.95691 0.34200
O 	O 	0.57784 0.43603 0.92315 -0.34400
O 	O 	0.57904 0.12856 0.56957 -0.34200
O 	O 	0.59762 0.40566 0.63833 -0.37000
C 	C 	0.64171 0.67821 0.37433 0.04000
C 	C 	0.63963 0.07550 0.45943 -0.09000
C 	C 	0.61269 0.07234 0.49587 0.32600
F 	F 	0.64761 0.03621 0.52168 -0.43200
C 	C 	0.64664 0.65096 0.51373 -0.09300
C 	C 	0.58556 0.56339 0.03386 -0.08600
C 	C 	0.58781 0.53681 0.99753 0.34500
H 	H 	0.58639 0.12486 0.77482 0.04400
O 	O 	0.68899 0.45995 0.51564 -0.33900
C 	C 	0.52857 0.87575 0.14884 -0.05800
C 	C 	0.60207 0.72927 0.39280 -0.05500
F 	F 	0.65503 0.81293 0.50572 -0.42500
C 	C 	0.54197 0.89441 0.00807 0.32600
H 	H 	0.63020 0.64170 0.04223 0.11200
Ni	Ni	0.63870 0.23300 0.61199 1.12300
C 	C 	0.95676 0.38346 0.95464 -0.08000
H 	H 	0.96209 0.97366 0.28571 0.14000
O 	O 	0.59747 0.33943 0.96783 -0.37500
C 	C 	0.53726 0.91471 0.18400 0.03700
O 	O 	0.94806 0.97009 0.25967 -0.68300
O 	O 	0.00303 0.19576 0.76340 -0.41700
S 	S 	0.95272 0.65573 0.34892 0.02700
H 	H 	0.05577 0.65585 0.45876 0.08800
O 	O 	0.93200 0.80003 0.29764 -0.34700
C 	C 	0.05374 0.63511 0.48708 -0.12700
O 	O 	0.93694 0.11501 0.21173 -0.34700
O 	O 	0.98781 0.00825 0.75250 -0.70100
H 	H 	0.99145 0.03344 0.77754 0.17200
H 	H 	0.87398 0.63240 0.36880 0.04600
C 	C 	0.78420 0.57259 0.91453 0.30400
C 	C 	0.76270 0.36827 0.82463 0.30500
C 	C 	0.88169 0.36045 0.92851 0.35100
C 	C 	0.63781 0.14088 0.95608 0.33700
Ni	Ni	0.63661 0.39648 0.87797 1.11300
Ni	Ni	0.72542 0.37341 0.95265 1.12500
Ni	Ni	0.71088 0.23270 0.88546 1.12300
O 	O 	0.59888 0.17765 0.84816 -0.35900
O 	O 	0.84794 0.42115 0.92916 -0.38700
O 	O 	0.76638 0.52058 0.88479 -0.36800
O 	O 	0.75530 0.52360 0.94599 -0.32900
O 	O 	0.63884 0.12199 0.92100 -0.37800
O 	O 	0.68683 0.37738 0.82672 -0.36300
O 	O 	0.79537 0.35017 0.85396 -0.37400
O 	O 	0.70071 0.23106 0.97063 -0.36700
O 	O 	0.82888 0.26755 0.91549 -0.36200
O 	O 	0.66646 0.31513 0.90799 -0.71400
H 	H 	0.60535 0.26111 0.91668 0.19500
C 	C 	0.88463 0.53497 0.55465 0.32500
C 	C 	0.77954 0.20017 0.57607 0.29000
C 	C 	0.75402 0.40106 0.66873 0.29500
Ni	Ni	0.71641 0.34297 0.53454 1.11700
Ni	Ni	0.71157 0.47124 0.60359 1.12200
O 	O 	0.85276 0.45053 0.53580 -0.36900
O 	O 	0.82626 0.56311 0.57025 -0.34800
O 	O 	0.79232 0.46625 0.64206 -0.38900
O 	O 	0.68546 0.30491 0.66251 -0.36100
O 	O 	0.75437 0.22579 0.54413 -0.31700
O 	O 	0.74690 0.20981 0.60773 -0.37600
O 	O 	0.71451 0.35541 0.58508 -0.71400
H 	H 	0.77828 0.37085 0.59151 0.17700
C 	C 	0.87292 0.76182 0.72476 0.31000
C 	C 	0.88560 0.86348 0.81611 0.29200
C 	C 	0.90963 0.05102 0.67346 0.30300
C 	C 	0.91417 0.17131 0.76025 0.33500
Ni	Ni	0.85576 0.94606 0.74574 1.12300
O 	O 	0.85895 0.96273 0.69054 -0.36300
O 	O 	0.96037 0.82523 0.71765 -0.35400
O 	O 	0.81960 0.79600 0.73863 -0.37200
O 	O 	0.84654 0.07471 0.75541 -0.38800
O 	O 	0.93694 0.83377 0.79697 -0.35300
O 	O 	0.84409 0.91088 0.80017 -0.35900
O 	O 	0.96683 0.13283 0.69203 -0.36700
C 	C 	0.80397 0.89360 0.32097 0.28900
C 	C 	0.75112 0.90685 0.21801 0.29700
Ni	Ni	0.89907 0.05987 0.26510 1.11100
Ni	Ni	0.86256 0.82573 0.25613 1.11900
O 	O 	0.84901 0.99464 0.31708 -0.34200
O 	O 	0.77442 0.83549 0.29199 -0.37500
O 	O 	0.76631 0.96103 0.24743 -0.36600
O 	O 	0.78664 0.84459 0.21497 -0.35400
S 	S 	0.87746 0.19152 0.15119 -0.02000
H 	H 	0.80413 0.12002 0.13129 0.04400
C 	C 	0.61013 0.88496 0.13258 -0.02500
C 	C 	0.68205 0.88957 0.15474 0.04000
C 	C 	0.67722 0.89983 0.19287 -0.06500
C 	C 	0.60745 0.91962 0.20682 -0.01800
S 	S 	0.77497 0.88049 0.13450 0.01000
H 	H 	0.84008 0.97343 0.12099 0.05200
H 	H 	0.61000 0.86969 0.10373 0.07700
H 	H 	0.60767 0.93849 0.23531 0.05900
C 	C 	0.66428 0.82857 0.40497 -0.02000
C 	C 	0.74578 0.88934 0.38475 0.06200
C 	C 	0.77109 0.84328 0.35696 -0.06800
C 	C 	0.72981 0.73590 0.35794 -0.01200
S 	S 	0.81809 0.01791 0.39643 -0.01000
H 	H 	0.78764 0.07661 0.37891 0.04700
H 	H 	0.64515 0.86104 0.42733 0.09200
H 	H 	0.75799 0.69823 0.34113 0.04600
H 	H 	0.69539 0.05904 0.45328 0.09600
C 	C 	0.05023 0.59037 0.56081 -0.12500
C 	C 	0.98129 0.60998 0.54629 -0.08900
C 	C 	0.99655 0.65167 0.51123 0.37500
H 	H 	0.04499 0.56603 0.58893 0.09000
F 	F 	0.94009 0.68639 0.49809 -0.43300
H 	H 	0.72219 0.68738 0.51236 0.11300
C 	C 	0.82890 0.14039 0.57672 -0.01900
C 	C 	0.77573 0.03735 0.58741 -0.05600
C 	C 	0.80473 0.99979 0.61698 0.08100
C 	C 	0.89121 0.06445 0.63415 -0.09100
C 	C 	0.95441 0.15512 0.61584 0.03800
C 	C 	0.92377 0.19192 0.58660 0.03300
S 	S 	0.73669 0.87056 0.62938 -0.00900
S 	S 	0.00060 0.31070 0.56686 -0.02400
H 	H 	0.04333 0.29660 0.53709 0.05700
H 	H 	0.76413 0.81319 0.60927 0.05500
H 	H 	0.70595 0.99132 0.57671 0.12300
H 	H 	0.02507 0.20057 0.62592 0.02700
C 	C 	0.76877 0.44572 0.70530 -0.06300
C 	C 	0.86251 0.50437 0.71600 -0.03200
C 	C 	0.89845 0.60775 0.72499 0.08200
C 	C 	0.83784 0.64994 0.72458 -0.08400
C 	C 	0.74129 0.58305 0.72418 -0.01500
C 	C 	0.70697 0.47959 0.71715 0.03300
S 	S 	0.01390 0.67754 0.74113 -0.09800
S 	S 	0.58789 0.39478 0.72334 -0.02100
H 	H 	0.53810 0.43416 0.70661 0.04200
H 	H 	0.01378 0.66936 0.77831 0.03400
H 	H 	0.91000 0.47450 0.71213 0.06300
H 	H 	0.69290 0.61138 0.72879 0.04900
C 	C 	0.92960 0.35646 0.99103 -0.13100
F 	F 	0.93859 0.40432 0.05331 -0.45300
H 	H 	0.86705 0.28527 0.99723 0.10500
C 	C 	0.60539 0.99443 0.99666 -0.05000
C 	C 	0.57321 0.05476 0.97942 -0.13700
F 	F 	0.57425 0.83892 0.02592 -0.44300
H 	H 	0.67974 0.02354 0.00004 0.08000
F 	F 	0.65033 0.60737 0.97421 -0.43700
C 	C 	0.80275 0.35973 0.78963 -0.06900
C 	C 	0.90097 0.40585 0.78817 -0.03100
C 	C 	0.94344 0.35008 0.77568 0.07900
C 	C 	0.88681 0.25230 0.76048 -0.08900
C 	C 	0.79494 0.22488 0.75099 -0.01100
C 	C 	0.75096 0.27403 0.76716 0.02900
S 	S 	0.63083 0.22220 0.76115 -0.01200
H 	H 	0.94319 0.47847 0.80154 0.07100
H 	H 	0.75446 0.15832 0.73419 0.05100
C 	C 	0.81126 0.68130 0.91090 -0.03000
C 	C 	0.74414 0.70329 0.89617 -0.02600
C 	C 	0.76770 0.77170 0.86672 0.04900
C 	C 	0.86168 0.82645 0.85455 -0.07700
C 	C 	0.93112 0.82390 0.87627 0.03600
C 	C 	0.90604 0.75194 0.90463 0.01500
S 	S 	0.67849 0.78384 0.84476 -0.02400
S 	S 	0.99366 0.74147 0.92852 0.05300
H 	H 	0.66985 0.86114 0.86062 0.05300
H 	H 	0.67121 0.65548 0.90341 0.08000
