data_crystal

_cell_length_a 30.64987
_cell_length_b 29.72961
_cell_length_c 26.29939
_cell_angle_alpha 95.54595
_cell_angle_beta  95.53946
_cell_angle_gamma 125.60602

_symmetry_space_group_name_	'P 1'
_symmetry_space_group_name_H-M	'P 1'

loop_
_symmetry_equiv_pos_as_xyz
  x,y,z

loop_
_atom_site_label
_atom_site_type_symbol
_atom_site_fract_x
_atom_site_fract_y
_atom_site_fract_z
_atom_site_charge
C 	C 	0.96862 0.02859 0.43483 0.11100
C 	C 	0.04844 0.03512 0.43046 0.11700
C 	C 	0.88874 0.02957 0.40914 -0.02300
C 	C 	0.97299 0.02405 0.00431 0.10800
C 	C 	0.04600 0.01986 0.99303 0.11700
C 	C 	0.13169 0.02683 0.00813 -0.02300
H 	H 	0.82424 0.03714 0.38651 0.04100
C 	C 	0.91104 0.04037 0.04324 -0.01700
H 	H 	0.20729 0.03643 0.01907 0.04300
C 	C 	0.12968 0.04410 0.40603 -0.02000
C 	C 	0.94136 0.05600 0.43809 -0.02000
H 	H 	0.85711 0.05621 0.07236 0.04300
N 	N 	0.02639 0.05037 0.00092 -0.13900
C 	C 	0.10409 0.04836 0.98954 -0.02000
N 	N 	0.02213 0.05927 0.43094 -0.13700
C 	C 	0.86466 0.05762 0.40937 -0.05500
H 	H 	0.20230 0.05678 0.38699 0.04400
C 	C 	0.95152 0.05703 0.01285 -0.02400
C 	C 	0.18619 0.05279 0.00361 -0.05800
C 	C 	0.10719 0.06935 0.42825 -0.02300
C 	C 	0.88797 0.06920 0.04850 -0.05600
H 	H 	0.26165 0.05461 0.94650 0.04400
C 	C 	0.18543 0.07658 0.40448 -0.05600
H 	H 	0.79834 0.06939 0.01090 0.04200
H 	H 	0.34918 0.06641 0.99770 0.05000
H 	H 	0.73750 0.09181 0.05846 0.04700
C 	C 	0.13186 0.09648 0.96679 -0.01600
C 	C 	0.96972 0.10384 0.98901 -0.02100
C 	C 	0.21359 0.10026 0.97996 0.03500
C 	C 	0.96901 0.11001 0.46844 -0.02400
C 	C 	0.29000 0.10011 0.95881 -0.05500
C 	C 	0.89311 0.11237 0.43828 0.03000
C 	C 	0.90467 0.11459 0.02293 0.02800
C 	C 	0.37345 0.10483 0.98250 -0.07600
H 	H 	0.11107 0.11344 0.95209 0.03900
H 	H 	0.29082 0.11694 0.46229 0.04500
C 	C 	0.82439 0.11514 0.01694 -0.05500
H 	H 	0.00096 0.11722 0.96554 0.04300
H 	H 	0.44794 0.11396 0.00418 0.03800
H 	H 	0.82477 0.11856 0.44224 0.04000
H 	H 	0.00921 0.13036 0.49174 0.04300
C 	C 	0.14104 0.12757 0.44826 -0.01500
C 	C 	0.18643 0.12244 0.96230 -0.05800
C 	C 	0.75204 0.12519 0.03620 -0.07500
C 	C 	0.94655 0.13260 0.99424 -0.05300
C 	C 	0.27188 0.12920 0.97678 -0.04700
C 	C 	0.21924 0.13455 0.42528 0.03300
H 	H 	0.68739 0.13247 0.04564 0.03900
C 	C 	0.34903 0.12812 0.96073 0.04800
C 	C 	0.94486 0.13787 0.46887 -0.05400
C 	C 	0.42952 0.13179 0.98602 0.02200
C 	C 	0.87911 0.14410 0.02662 -0.04700
C 	C 	0.86738 0.14169 0.43838 -0.04600
H 	H 	0.12441 0.14762 0.46578 0.04000
C 	C 	0.79853 0.14441 0.01417 0.04300
C 	C 	0.72352 0.14822 0.02878 0.01600
C 	C 	0.30928 0.15453 0.44515 -0.05600
C 	C 	0.19666 0.16000 0.44636 -0.05800
H 	H 	0.20746 0.15956 0.94475 0.04400
H 	H 	0.96037 0.16818 0.97510 0.04000
N 	N 	0.54962 0.16146 0.59525 -0.12000
H 	H 	0.79912 0.16609 0.37938 0.04900
C 	C 	0.27826 0.16900 0.42463 -0.04700
N 	N 	0.51091 0.16496 0.13962 -0.11600
H 	H 	0.30006 0.17477 0.98861 0.04200
H 	H 	0.96625 0.17916 0.49310 0.04100
C 	C 	0.38062 0.17708 0.93987 -0.07500
C 	C 	0.46181 0.18225 0.96732 -0.09000
H 	H 	0.90517 0.18987 0.03331 0.04000
H 	H 	0.38467 0.18902 0.53110 0.05000
C 	C 	0.81665 0.18740 0.98504 -0.07300
C 	C 	0.36923 0.19225 0.45014 0.04800
C 	C 	0.74091 0.19038 0.99867 -0.09600
O 	O 	0.66144 0.18934 0.00249 -0.37400
O 	O 	0.54512 0.19278 0.99777 -0.35800
C 	C 	0.89552 0.19579 0.43275 -0.05700
H 	H 	0.36179 0.19430 0.92124 0.04800
H 	H 	0.58126 0.19831 0.73031 0.04200
C 	C 	0.57947 0.19938 0.62885 0.07500
H 	H 	0.36747 0.20238 0.36977 0.04800
H 	H 	0.22240 0.20479 0.46207 0.04400
H 	H 	0.85164 0.20167 0.96667 0.04500
C 	C 	0.55446 0.20104 0.16210 0.08000
C 	C 	0.40269 0.20558 0.49781 -0.07600
H 	H 	0.58111 0.20377 0.90442 0.17500
C 	C 	0.82023 0.20448 0.40820 -0.07700
C 	C 	0.43671 0.20405 0.94320 0.01600
H 	H 	0.29730 0.20903 0.41161 0.04200
H 	H 	0.89744 0.00509 0.06277 0.03700
C 	C 	0.70792 0.21099 0.98629 0.29200
C 	C 	0.78841 0.21064 0.97782 0.01300
C 	C 	0.39300 0.21351 0.40712 -0.07600
H 	H 	0.75533 0.21288 0.39447 0.03600
C 	C 	0.52204 0.21399 0.97604 0.28300
H 	H 	0.93795 0.21877 0.42831 0.04400
C 	C 	0.87139 0.22644 0.43796 0.04800
Cu	Cu	0.62553 0.22782 0.00062 0.92700
Cu	Cu	0.67330 0.22959 0.89390 0.86600
O 	O 	0.61857 0.22962 0.92534 -0.64000
O 	O 	0.64244 0.23120 0.82797 -0.41800
C 	C 	0.79564 0.23133 0.41646 0.02000
H 	H 	0.58548 0.23470 0.26522 0.03000
C 	C 	0.61180 0.23960 0.72231 -0.01500
C 	C 	0.45950 0.24066 0.50282 0.02100
O 	O 	0.64353 0.24077 0.07499 -0.35700
H 	H 	0.46065 0.24216 0.92750 0.03300
H 	H 	0.80275 0.24341 0.95487 0.02300
C 	C 	0.60885 0.24611 0.19010 0.00500
C 	C 	0.61672 0.24675 0.67079 0.00400
O 	O 	0.72259 0.24734 0.95511 -0.44300
C 	C 	0.44981 0.24851 0.41202 0.01800
H 	H 	0.86696 0.98784 0.38568 0.04300
N 	N 	0.01205 0.96296 0.98866 -0.13500
C 	C 	0.95865 0.93648 0.99191 0.11600
N 	N 	0.93924 0.96714 0.99960 -0.13600
N 	N 	0.94105 0.97321 0.43761 -0.13800
C 	C 	0.96715 0.94872 0.43696 0.11500
N 	N 	0.02088 0.97983 0.43357 -0.13500
Cu	Cu	0.65146 0.31103 0.92786 0.89700
Cu	Cu	0.62171 0.33081 0.02807 0.89300
C 	C 	0.63970 0.27503 0.10681 0.28400
C 	C 	0.64559 0.27542 0.81760 0.27800
O 	O 	0.66687 0.31448 0.00116 -0.64200
O 	O 	0.61272 0.29437 0.08998 -0.38200
O 	O 	0.68899 0.39139 0.93371 -0.37800
C 	C 	0.68950 0.42425 0.97179 0.29400
O 	O 	0.55278 0.26595 0.96790 -0.39000
O 	O 	0.65301 0.40305 0.00248 -0.39700
O 	O 	0.63904 0.30543 0.85218 -0.37100
H 	H 	0.70610 0.34056 0.01740 0.16200
Cu	Cu	0.72540 0.34045 0.43546 0.92500
Cu	Cu	0.74387 0.31261 0.54885 0.87300
Cu	Cu	0.64918 0.32798 0.50850 0.91100
Cu	Cu	0.63351 0.35652 0.40524 0.89300
C 	C 	0.67818 0.32139 0.32826 0.28300
O 	O 	0.76725 0.42355 0.43284 -0.36000
C 	C 	0.66745 0.30739 0.60717 0.28500
O 	O 	0.64343 0.30759 0.43563 -0.64200
O 	O 	0.72669 0.35561 0.51102 -0.63200
O 	O 	0.75067 0.29173 0.43542 -0.38000
O 	O 	0.80273 0.32852 0.51675 -0.42600
O 	O 	0.66424 0.35462 0.34223 -0.38200
O 	O 	0.57285 0.29571 0.50351 -0.37600
C 	C 	0.54332 0.29672 0.46424 0.28700
C 	C 	0.75166 0.45350 0.45218 0.28100
O 	O 	0.70184 0.42799 0.46158 -0.39200
O 	O 	0.56671 0.33416 0.43374 -0.39200
O 	O 	0.71001 0.31675 0.36142 -0.35500
C 	C 	0.79308 0.30441 0.46841 0.29100
O 	O 	0.65620 0.33700 0.58305 -0.37800
O 	O 	0.68009 0.27759 0.58136 -0.42600
H 	H 	0.61527 0.26704 0.42107 0.16100
H 	H 	0.75265 0.39610 0.52684 0.15900
C 	C 	0.65717 0.30013 0.66034 -0.07600
C 	C 	0.68991 0.34645 0.70140 -0.01500
C 	C 	0.68511 0.33937 0.75297 -0.00300
C 	C 	0.64661 0.28533 0.76366 -0.06700
H 	H 	0.72036 0.38771 0.69329 0.03100
C 	C 	0.72135 0.38732 0.79467 0.07000
N 	N 	0.75041 0.42577 0.82802 -0.11900
C 	C 	0.65157 0.27856 0.16312 -0.06400
C 	C 	0.70465 0.31993 0.19103 -0.01600
C 	C 	0.71463 0.33221 0.24551 0.00600
C 	C 	0.67107 0.30240 0.27238 -0.06400
C 	C 	0.61880 0.25830 0.24454 -0.01600
H 	H 	0.73771 0.34430 0.17029 0.03300
C 	C 	0.76913 0.37706 0.27343 0.08200
N 	N 	0.81276 0.41300 0.29582 -0.11500
C 	C 	0.93757 0.88882 0.44082 -0.02500
C 	C 	0.89764 0.86496 0.47209 -0.01500
C 	C 	0.87080 0.80861 0.47688 -0.05800
C 	C 	0.88397 0.77576 0.45094 0.03400
C 	C 	0.92308 0.79924 0.41881 -0.05800
C 	C 	0.94995 0.85556 0.41402 -0.01500
C 	C 	0.85413 0.71578 0.45496 -0.04700
C 	C 	0.88089 0.69338 0.46454 -0.05500
C 	C 	0.85061 0.63257 0.46481 0.04700
C 	C 	0.86178 0.60060 0.43391 -0.07500
C 	C 	0.83079 0.54234 0.43116 0.01700
C 	C 	0.78862 0.51558 0.45977 -0.09200
C 	C 	0.77955 0.54817 0.49296 0.01500
C 	C 	0.81048 0.60639 0.49556 -0.07600
H 	H 	0.88783 0.89018 0.49314 0.04000
H 	H 	0.84007 0.79061 0.50111 0.04400
H 	H 	0.93220 0.77372 0.39711 0.04400
H 	H 	0.98001 0.87316 0.38909 0.03700
H 	H 	0.80995 0.69003 0.45133 0.04200
H 	H 	0.92509 0.71920 0.46849 0.04400
H 	H 	0.89343 0.62065 0.41086 0.04900
H 	H 	0.83856 0.51788 0.40564 0.04100
H 	H 	0.74812 0.52835 0.51627 0.03000
H 	H 	0.80289 0.63105 0.52103 0.04800
C 	C 	0.82211 0.28056 0.45445 -0.09600
C 	C 	0.87476 0.30429 0.48189 0.01900
C 	C 	0.89935 0.27743 0.47349 -0.07800
H 	H 	0.89619 0.34294 0.51041 0.02900
H 	H 	0.93944 0.29538 0.49570 0.04600
C 	C 	0.48344 0.26224 0.45988 -0.09000
H 	H 	0.10397 0.99948 0.38960 0.04400
H 	H 	0.48483 0.25097 0.54005 0.04200
H 	H 	0.46762 0.26404 0.37835 0.02500
C 	C 	0.92181 0.87453 0.98726 -0.02200
C 	C 	0.87589 0.84925 0.01129 -0.01700
C 	C 	0.84082 0.79070 0.00651 -0.06100
C 	C 	0.85168 0.75683 0.97842 0.03600
C 	C 	0.89726 0.78188 0.95402 -0.05800
C 	C 	0.93221 0.84041 0.95849 -0.01600
C 	C 	0.81374 0.69493 0.97274 -0.04700
C 	C 	0.83218 0.66515 0.98487 -0.05600
C 	C 	0.79431 0.60323 0.97997 0.05400
C 	C 	0.80831 0.56957 0.95765 -0.07800
C 	C 	0.77400 0.51123 0.95472 0.02300
C 	C 	0.72526 0.48587 0.97424 -0.09300
C 	C 	0.71150 0.51972 0.99708 0.02900
C 	C 	0.74606 0.57810 0.00034 -0.08500
H 	H 	0.86749 0.87493 0.03392 0.03900
H 	H 	0.80545 0.77167 0.02503 0.04400
H 	H 	0.90526 0.75598 0.93115 0.04400
H 	H 	0.96692 0.85912 0.93905 0.03900
H 	H 	0.77017 0.67392 0.96087 0.04300
H 	H 	0.87583 0.68629 0.99641 0.04400
H 	H 	0.84588 0.58864 0.94265 0.04900
H 	H 	0.78573 0.48589 0.93796 0.03400
H 	H 	0.67415 0.50091 0.01242 0.02900
H 	H 	0.73568 0.60381 0.01925 0.04900
H 	H 	0.11113 0.99035 0.02657 0.04400
