data_crystal

_cell_length_a 25.81523
_cell_length_b 32.84064
_cell_length_c 15.14890
_cell_angle_alpha 89.99856
_cell_angle_beta  90.00045
_cell_angle_gamma 90.00285

_symmetry_space_group_name_	'P 1'
_symmetry_space_group_name_H-M	'P 1'

loop_
_symmetry_equiv_pos_as_xyz
  x,y,z

loop_
_atom_site_label
_atom_site_type_symbol
_atom_site_fract_x
_atom_site_fract_y
_atom_site_fract_z
_atom_site_charge
Co	Co	0.44918 0.34952 0.87610 1.20200
O 	O 	0.37196 0.33205 0.86164 -0.28300
Co	Co	0.57716 0.35270 0.85147 1.20700
O 	O 	0.50019 0.33867 0.77613 -0.38100
O 	O 	0.56391 0.32353 0.96528 -0.32300
O 	O 	0.39649 0.38824 0.80519 -0.24400
C 	C 	0.52081 0.30399 0.98757 0.38000
O 	O 	0.56713 0.30034 0.76911 -0.25200
C 	C 	0.65637 0.39205 0.79243 0.29100
C 	C 	0.50734 0.40632 0.95880 0.30700
O 	O 	0.65413 0.37161 0.86495 -0.24700
O 	O 	0.61317 0.38929 0.75006 -0.24400
O 	O 	0.46211 0.39223 0.98118 -0.26800
O 	O 	0.52013 0.39307 0.88147 -0.42600
O 	O 	0.48068 0.30140 0.93371 -0.52500
C 	C 	0.35803 0.36405 0.81896 0.29100
C 	C 	0.51816 0.30377 0.75120 0.30300
H 	H 	0.45842 0.27597 0.93497 0.24500
Co	Co	0.44013 0.63445 0.08198 1.20200
O 	O 	0.36140 0.64733 0.09105 -0.28000
Co	Co	0.56706 0.64033 0.10325 1.20300
O 	O 	0.48992 0.65479 0.17746 -0.37300
O 	O 	0.54796 0.65831 0.98183 -0.31700
O 	O 	0.39155 0.59879 0.16731 -0.25100
C 	C 	0.50784 0.68145 0.96142 0.37900
O 	O 	0.55263 0.69704 0.16955 -0.29000
C 	C 	0.65112 0.60995 0.16705 0.29900
C 	C 	0.50297 0.57434 0.02183 0.31600
O 	O 	0.64516 0.62503 0.08924 -0.27100
O 	O 	0.60882 0.61325 0.21161 -0.21300
O 	O 	0.45735 0.58497 0.99348 -0.24700
O 	O 	0.51453 0.59482 0.09183 -0.41500
O 	O 	0.46419 0.68073 0.00745 -0.54600
C 	C 	0.35039 0.61877 0.14596 0.28700
C 	C 	0.50465 0.69181 0.19310 0.29100
H 	H 	0.43815 0.70353 0.99906 0.24800
Co	Co	0.06804 0.34492 0.59841 1.19800
O 	O 	0.14094 0.32306 0.63416 -0.31500
Co	Co	0.93869 0.35243 0.58959 1.20200
O 	O 	0.00647 0.32834 0.67667 -0.40900
O 	O 	0.96440 0.32856 0.47780 -0.32100
O 	O 	0.11267 0.37597 0.69717 -0.24200
C 	C 	0.00003 0.29966 0.47518 0.37600
O 	O 	0.93639 0.29502 0.65669 -0.24100
C 	C 	0.85690 0.39224 0.63596 0.28600
C 	C 	0.02147 0.40839 0.51947 0.32200
O 	O 	0.86503 0.37542 0.56025 -0.23200
O 	O 	0.89539 0.38531 0.68826 -0.28200
O 	O 	0.06882 0.39580 0.50958 -0.25700
O 	O 	0.00010 0.39140 0.58739 -0.42300
O 	O 	0.04843 0.30729 0.50082 -0.50500
C 	C 	0.15054 0.35043 0.69288 0.30300
C 	C 	0.98403 0.29311 0.68389 0.25300
H 	H 	0.07815 0.29196 0.47237 0.22700
Co	Co	0.06657 0.64269 0.38550 1.19900
O 	O 	0.14183 0.66367 0.36753 -0.31300
Co	Co	0.93749 0.63906 0.38753 1.21300
O 	O 	0.00727 0.66754 0.31223 -0.41000
O 	O 	0.96195 0.65261 0.50744 -0.28800
O 	O 	0.11183 0.62075 0.27652 -0.24200
C 	C 	0.99938 0.67908 0.52148 0.32700
O 	O 	0.93952 0.70131 0.34438 -0.20900
C 	C 	0.85302 0.60899 0.32487 0.27400
C 	C 	0.01638 0.57463 0.43459 0.33800
O 	O 	0.86241 0.61698 0.40659 -0.21900
O 	O 	0.89242 0.61832 0.27666 -0.24900
O 	O 	0.06388 0.58505 0.45110 -0.25900
O 	O 	0.99645 0.59792 0.37450 -0.43600
O 	O 	0.04758 0.67081 0.49719 -0.48900
C 	C 	0.15149 0.64245 0.29816 0.29400
C 	C 	0.98694 0.70370 0.31605 0.24600
H 	H 	0.07748 0.68233 0.53271 0.22500
Co	Co	0.55816 0.84171 0.58524 1.20000
O 	O 	0.62955 0.81381 0.61012 -0.30600
Co	Co	0.43003 0.85795 0.59456 1.20300
O 	O 	0.49940 0.83037 0.67153 -0.39400
O 	O 	0.44798 0.83487 0.47766 -0.31600
O 	O 	0.61076 0.86772 0.68029 -0.22800
C 	C 	0.47892 0.80316 0.46726 0.32800
O 	O 	0.42704 0.79978 0.66004 -0.28300
C 	C 	0.35130 0.89750 0.65825 0.29900
C 	C 	0.51610 0.90888 0.51376 0.31600
O 	O 	0.35576 0.88309 0.57917 -0.25100
O 	O 	0.39325 0.89009 0.70192 -0.23500
O 	O 	0.56094 0.89252 0.49763 -0.26200
O 	O 	0.49535 0.89338 0.58435 -0.41100
O 	O 	0.52845 0.80445 0.49308 -0.49500
C 	C 	0.64429 0.83896 0.67020 0.30100
C 	C 	0.47513 0.79658 0.68411 0.28900
H 	H 	0.55392 0.78426 0.46705 0.21700
Co	Co	0.56830 0.14591 0.37176 1.19500
O 	O 	0.64157 0.17100 0.34928 -0.30800
Co	Co	0.43914 0.13436 0.36602 1.21100
O 	O 	0.50840 0.16261 0.28942 -0.43100
O 	O 	0.45937 0.15581 0.48314 -0.28800
O 	O 	0.61773 0.12087 0.27110 -0.26200
C 	C 	0.49367 0.18528 0.49325 0.33500
O 	O 	0.43643 0.19337 0.30545 -0.25200
C 	C 	0.36118 0.09358 0.30648 0.28700
C 	C 	0.52227 0.07782 0.43335 0.33200
O 	O 	0.36582 0.10849 0.38486 -0.21200
O 	O 	0.40093 0.10314 0.25914 -0.27900
O 	O 	0.56840 0.09155 0.45090 -0.28100
O 	O 	0.50255 0.09735 0.36744 -0.42600
O 	O 	0.54327 0.17922 0.47337 -0.49500
C 	C 	0.65382 0.14727 0.28499 0.30200
C 	C 	0.48460 0.19725 0.28179 0.29200
H 	H 	0.57093 0.19477 0.50686 0.22200
Co	Co	0.94040 0.83993 0.88063 1.19900
O 	O 	0.86961 0.81126 0.85421 -0.29700
Co	Co	0.06708 0.85780 0.88364 1.21400
O 	O 	0.00146 0.82793 0.80101 -0.38300
O 	O 	0.04450 0.84077 0.00416 -0.35400
O 	O 	0.89014 0.86332 0.77935 -0.20900
C 	C 	0.01150 0.81095 0.02163 0.34900
O 	O 	0.07240 0.79755 0.82854 -0.19400
C 	C 	0.14891 0.89455 0.82399 0.28100
C 	C 	0.97815 0.91137 0.94193 0.28600
O 	O 	0.14001 0.88441 0.90497 -0.23200
O 	O 	0.10970 0.88483 0.77550 -0.21500
O 	O 	0.93583 0.89241 0.96381 -0.25700
O 	O 	0.00143 0.89281 0.87753 -0.38600
O 	O 	0.97256 0.80171 0.96790 -0.51100
C 	C 	0.85624 0.83497 0.79041 0.30000
C 	C 	0.02623 0.79406 0.79551 0.28500
H 	H 	0.95391 0.77481 0.97628 0.23000
Co	Co	0.95436 0.14793 0.09841 1.18800
O 	O 	0.88352 0.17448 0.13203 -0.31000
Co	Co	0.08056 0.13079 0.09936 1.21300
O 	O 	0.01185 0.15162 0.18791 -0.39400
O 	O 	0.06476 0.16041 0.98727 -0.29800
O 	O 	0.90007 0.11499 0.17895 -0.25900
C 	C 	0.02593 0.18606 0.97431 0.38700
O 	O 	0.08356 0.18394 0.18246 -0.24600
C 	C 	0.16063 0.08920 0.14803 0.31100
C 	C 	0.99374 0.08448 0.00549 0.25700
O 	O 	0.15539 0.10911 0.07524 -0.21400
O 	O 	0.11922 0.09269 0.19536 -0.23400
O 	O 	0.95302 0.10677 0.99013 -0.29200
O 	O 	0.01529 0.09529 0.07991 -0.37200
O 	O 	0.99045 0.19280 0.03533 -0.55500
C 	C 	0.86750 0.14475 0.18025 0.30700
C 	C 	0.03600 0.18433 0.20980 0.30100
H 	H 	0.97342 0.22058 0.03850 0.22800
C 	C 	0.94225 0.02243 0.97309 0.05800
C 	C 	0.99129 0.04070 0.98067 0.04500
C 	C 	0.03619 0.01669 0.96545 -0.08400
C 	C 	0.03089 0.97416 0.95713 0.09400
C 	C 	0.98183 0.95623 0.94996 0.00200
C 	C 	0.93730 0.98162 0.94780 -0.05800
C 	C 	0.88534 0.96657 0.91375 0.77900
H 	H 	0.90768 0.04033 0.98510 0.11900
H 	H 	0.06513 0.95503 0.95560 0.08200
C 	C 	0.08995 0.03464 0.96574 0.80700
F 	F 	0.85416 0.99882 0.88820 -0.37800
F 	F 	0.85982 0.94527 0.97938 -0.38700
F 	F 	0.89206 0.94200 0.84061 -0.40100
F 	F 	0.10987 0.03043 0.04959 -0.42800
F 	F 	0.09038 0.07514 0.94085 -0.42300
F 	F 	0.12148 0.01365 0.90744 -0.37100
C 	C 	0.30590 0.08209 0.17424 0.06300
C 	C 	0.31051 0.08267 0.26661 0.03900
C 	C 	0.26607 0.07456 0.31892 -0.06500
C 	C 	0.21687 0.07665 0.27923 0.06900
C 	C 	0.21207 0.07998 0.18705 0.04200
C 	C 	0.25728 0.07740 0.13404 -0.06500
C 	C 	0.25445 0.06944 0.03545 0.77000
H 	H 	0.34017 0.08539 0.13353 0.12400
H 	H 	0.18242 0.07591 0.32010 0.14400
C 	C 	0.27044 0.06277 0.41553 0.78700
F 	F 	0.29981 0.05169 0.00546 -0.36800
F 	F 	0.24734 0.10577 0.99096 -0.34100
F 	F 	0.21434 0.04307 0.01575 -0.35200
F 	F 	0.27352 0.09749 0.46689 -0.34300
F 	F 	0.31371 0.03875 0.42985 -0.35800
F 	F 	0.22755 0.04060 0.44209 -0.34500
C 	C 	0.74617 0.13356 0.31904 0.06600
C 	C 	0.70777 0.14135 0.25576 0.02900
C 	C 	0.72178 0.14713 0.16634 -0.07500
C 	C 	0.77431 0.14537 0.14222 0.07100
C 	C 	0.81289 0.13988 0.20615 0.02400
C 	C 	0.79894 0.13365 0.29555 -0.06600
C 	C 	0.84024 0.12796 0.36599 0.78200
H 	H 	0.73484 0.12854 0.38703 0.11400
H 	H 	0.78555 0.14961 0.07392 0.11000
C 	C 	0.68115 0.15801 0.09805 0.78800
F 	F 	0.81900 0.12492 0.44965 -0.37100
F 	F 	0.87386 0.16079 0.36565 -0.38700
F 	F 	0.86780 0.09268 0.34927 -0.37600
F 	F 	0.65717 0.19396 0.12233 -0.40000
F 	F 	0.64468 0.12726 0.09294 -0.37800
F 	F 	0.70236 0.16331 0.01489 -0.37400
C 	C 	0.28803 0.86677 0.76222 0.07200
C 	C 	0.30041 0.89834 0.70362 0.04100
C 	C 	0.26420 0.92988 0.68805 -0.05600
C 	C 	0.21517 0.92824 0.72941 0.06900
C 	C 	0.20224 0.89616 0.78675 0.05900
C 	C 	0.23879 0.86446 0.80203 -0.06600
C 	C 	0.22600 0.82837 0.86107 0.78700
H 	H 	0.31668 0.84343 0.77537 0.12500
H 	H 	0.18673 0.95176 0.71651 0.14100
C 	C 	0.27743 0.96487 0.62653 0.78300
F 	F 	0.26311 0.79806 0.85490 -0.37500
F 	F 	0.17913 0.81140 0.83686 -0.38800
F 	F 	0.22371 0.84096 0.94808 -0.35900
F 	F 	0.28200 0.95045 0.54112 -0.35900
F 	F 	0.32381 0.98249 0.65179 -0.35200
F 	F 	0.23972 0.99484 0.62762 -0.33900
C 	C 	0.76212 0.84198 0.82044 0.06900
C 	C 	0.80235 0.83838 0.75870 0.04100
C 	C 	0.79074 0.83646 0.66745 -0.06600
C 	C 	0.73879 0.83943 0.63980 0.06800
C 	C 	0.69839 0.84158 0.70164 0.03200
C 	C 	0.70997 0.84240 0.79307 -0.06700
C 	C 	0.66689 0.84336 0.86144 0.78500
H 	H 	0.77158 0.84398 0.88998 0.12600
H 	H 	0.72951 0.83929 0.57005 0.12000
C 	C 	0.83362 0.83121 0.59959 0.78300
F 	F 	0.68595 0.83980 0.94652 -0.37400
F 	F 	0.63291 0.81144 0.84728 -0.39900
F 	F 	0.64035 0.87982 0.85532 -0.35400
F 	F 	0.86414 0.79802 0.62120 -0.38500
F 	F 	0.86406 0.86584 0.59767 -0.36300
F 	F 	0.81402 0.82481 0.51564 -0.36000
C 	C 	0.48477 0.97913 0.54502 0.07000
C 	C 	0.50439 0.95080 0.48408 0.01500
C 	C 	0.51970 0.96433 0.39899 -0.06900
C 	C 	0.52449 0.00625 0.38315 0.07500
C 	C 	0.50987 0.03459 0.44742 0.00300
C 	C 	0.48647 0.02114 0.52659 -0.06600
C 	C 	0.46396 0.05149 0.59144 0.78500
H 	H 	0.47057 0.96859 0.60830 0.12000
H 	H 	0.54108 0.01687 0.32153 0.11000
C 	C 	0.53464 0.93459 0.32670 0.78200
F 	F 	0.43848 0.03240 0.66041 -0.34400
F 	F 	0.42872 0.07625 0.54847 -0.37900
F 	F 	0.50329 0.07517 0.62618 -0.37000
F 	F 	0.50656 0.89889 0.33297 -0.37800
F 	F 	0.58689 0.92580 0.33289 -0.38400
F 	F 	0.52497 0.95121 0.24433 -0.37000
C 	C 	0.98230 0.79979 0.17565 0.06300
C 	C 	0.01583 0.78904 0.10690 0.00200
C 	C 	0.04742 0.75402 0.11529 -0.06700
C 	C 	0.04012 0.72775 0.18798 0.04700
C 	C 	0.00277 0.73650 0.25300 0.05500
C 	C 	0.97714 0.77495 0.25088 -0.09400
C 	C 	0.94212 0.78908 0.32541 0.79400
H 	H 	0.95870 0.82694 0.16914 0.10100
H 	H 	0.06180 0.69958 0.19186 0.09500
C 	C 	0.08613 0.74301 0.04377 0.76400
F 	F 	0.93927 0.83118 0.32746 -0.37100
F 	F 	0.96063 0.77653 0.40642 -0.40800
F 	F 	0.89274 0.77384 0.31279 -0.35000
F 	F 	0.11638 0.77645 0.02311 -0.39300
F 	F 	0.05988 0.73038 0.96904 -0.39800
F 	F 	0.11889 0.71198 0.07044 -0.39500
C 	C 	0.98264 0.73324 0.73636 0.03700
C 	C 	0.01583 0.76629 0.72208 0.05500
C 	C 	0.03246 0.77572 0.63526 -0.07600
C 	C 	0.01913 0.74942 0.56605 0.10800
C 	C 	0.99078 0.71379 0.58218 -0.00600
C 	C 	0.96693 0.70845 0.66568 -0.04100
C 	C 	0.92324 0.67818 0.67884 0.77900
H 	H 	0.96811 0.72748 0.80235 0.10900
H 	H 	0.03564 0.75409 0.50110 0.10600
C 	C 	0.06605 0.81283 0.61670 0.78500
F 	F 	0.89629 0.68590 0.75610 -0.37900
F 	F 	0.94318 0.63923 0.68358 -0.34900
F 	F 	0.88827 0.68073 0.60982 -0.36400
F 	F 	0.11194 0.81000 0.66335 -0.39200
F 	F 	0.04015 0.84792 0.64101 -0.38300
F 	F 	0.07829 0.81620 0.52800 -0.38000
C 	C 	0.98702 0.19807 0.82766 0.07000
C 	C 	0.02366 0.20933 0.89104 -0.00200
C 	C 	0.05311 0.24525 0.87934 -0.05700
C 	C 	0.04106 0.27160 0.80878 0.04600
C 	C 	0.00152 0.26177 0.74848 0.04800
C 	C 	0.97737 0.22281 0.75380 -0.09900
C 	C 	0.93923 0.20803 0.68439 0.79400
H 	H 	0.96491 0.17034 0.83718 0.10000
H 	H 	0.06126 0.30036 0.80237 0.10900
C 	C 	0.09584 0.25628 0.94392 0.78900
F 	F 	0.93579 0.16595 0.68490 -0.37400
F 	F 	0.95454 0.21949 0.60072 -0.41900
F 	F 	0.89065 0.22380 0.70196 -0.38300
F 	F 	0.13048 0.22434 0.95125 -0.38400
F 	F 	0.07463 0.26436 0.02591 -0.41600
F 	F 	0.12327 0.29023 0.91672 -0.37100
C 	C 	0.01994 0.22769 0.43935 0.11300
C 	C 	0.99077 0.26276 0.42036 -0.02100
C 	C 	0.96548 0.26540 0.33759 -0.03900
C 	C 	0.98304 0.24073 0.26807 0.04200
C 	C 	0.01876 0.20949 0.28403 0.04100
C 	C 	0.03399 0.20061 0.37168 -0.07600
C 	C 	0.06739 0.16373 0.39252 0.78600
H 	H 	0.03637 0.22407 0.50470 0.10800
H 	H 	0.96834 0.24540 0.20179 0.09100
C 	C 	0.91788 0.29175 0.32463 0.77900
F 	F 	0.07238 0.15784 0.48263 -0.36900
F 	F 	0.11631 0.16906 0.35720 -0.40000
F 	F 	0.04539 0.12894 0.35727 -0.38100
F 	F 	0.93267 0.33137 0.30710 -0.36000
F 	F 	0.88693 0.29081 0.39923 -0.37500
F 	F 	0.88831 0.27784 0.25455 -0.38400
C 	C 	0.01525 0.50359 0.38069 0.07500
C 	C 	0.00004 0.53199 0.44471 0.02500
C 	C 	0.97954 0.51816 0.52586 -0.09200
C 	C 	0.98354 0.47669 0.54770 0.06000
C 	C 	0.00508 0.44891 0.48767 0.02200
C 	C 	0.01604 0.46176 0.40033 -0.06200
C 	C 	0.03192 0.43158 0.32953 0.78100
H 	H 	0.02957 0.51429 0.31750 0.12800
H 	H 	0.97272 0.46641 0.61312 0.10700
C 	C 	0.95720 0.54799 0.59183 0.78900
F 	F 	0.02104 0.44673 0.24627 -0.36300
F 	F 	0.00537 0.39525 0.33897 -0.37700
F 	F 	0.08455 0.42428 0.33535 -0.37100
F 	F 	0.92386 0.57453 0.54953 -0.41000
F 	F 	0.99703 0.56977 0.63051 -0.38100
F 	F 	0.92956 0.52829 0.65749 -0.37600
C 	C 	0.51187 0.75240 0.90741 0.07500
C 	C 	0.51252 0.71075 0.88767 -0.01300
C 	C 	0.50709 0.69782 0.79903 -0.06200
C 	C 	0.49665 0.72683 0.73301 0.05800
C 	C 	0.49079 0.76805 0.75433 0.01000
C 	C 	0.49786 0.78116 0.84290 -0.06500
C 	C 	0.48916 0.82530 0.86952 0.78500
H 	H 	0.51854 0.76201 0.97490 0.10600
H 	H 	0.49191 0.71731 0.66501 0.09800
C 	C 	0.51290 0.65330 0.77485 0.78100
F 	F 	0.48861 0.82993 0.96037 -0.36600
F 	F 	0.44201 0.83895 0.83782 -0.40100
F 	F 	0.52847 0.84933 0.83602 -0.36700
F 	F 	0.47537 0.63060 0.81757 -0.38700
F 	F 	0.56147 0.63997 0.80002 -0.35000
F 	F 	0.50777 0.64685 0.68495 -0.35900
C 	C 	0.45727 0.75184 0.25137 0.07200
C 	C 	0.48293 0.71502 0.26818 0.03500
C 	C 	0.49112 0.70255 0.35705 -0.06300
C 	C 	0.48002 0.73006 0.42588 0.07000
C 	C 	0.46267 0.76954 0.40698 0.00200
C 	C 	0.44312 0.77773 0.32145 -0.04800
C 	C 	0.40374 0.81117 0.30609 0.78400
H 	H 	0.44829 0.76028 0.18389 0.11000
H 	H 	0.49000 0.72242 0.49332 0.09000
C 	C 	0.51398 0.66110 0.37856 0.78500
F 	F 	0.37617 0.80453 0.22900 -0.35600
F 	F 	0.42855 0.84825 0.29939 -0.35800
F 	F 	0.36853 0.81242 0.37494 -0.37900
F 	F 	0.56352 0.65846 0.34461 -0.40700
F 	F 	0.48351 0.63062 0.34297 -0.37100
F 	F 	0.51684 0.65453 0.46872 -0.36700
C 	C 	0.26965 0.58883 0.20410 0.06600
C 	C 	0.30510 0.62108 0.20390 0.03600
C 	C 	0.29297 0.65753 0.24889 -0.07000
C 	C 	0.24177 0.66444 0.27509 0.07100
C 	C 	0.20494 0.63314 0.27054 0.03000
C 	C 	0.22066 0.59354 0.24333 -0.06800
C 	C 	0.18682 0.55629 0.25805 0.78200
H 	H 	0.27984 0.56040 0.17214 0.11700
H 	H 	0.23050 0.69418 0.29958 0.12000
C 	C 	0.33415 0.68923 0.26821 0.77800
F 	F 	0.21556 0.52078 0.25214 -0.37300
F 	F 	0.14833 0.55489 0.19464 -0.37900
F 	F 	0.16477 0.55723 0.34130 -0.40500
F 	F 	0.34059 0.71420 0.19557 -0.40200
F 	F 	0.38069 0.67058 0.28827 -0.42000
F 	F 	0.32028 0.71308 0.33978 -0.38700
C 	C 	0.72808 0.64629 0.22258 0.07300
C 	C 	0.70176 0.60944 0.21055 0.03400
C 	C 	0.72410 0.57251 0.23955 -0.05800
C 	C 	0.77339 0.57322 0.27896 0.06300
C 	C 	0.80018 0.60999 0.28943 0.04500
C 	C 	0.77681 0.64720 0.26354 -0.07500
C 	C 	0.80442 0.68768 0.27665 0.78500
H 	H 	0.71038 0.67429 0.19965 0.11000
H 	H 	0.79144 0.54513 0.30047 0.12800
C 	C 	0.69567 0.53240 0.22725 0.77900
F 	F 	0.77224 0.72036 0.25852 -0.37700
F 	F 	0.84669 0.68993 0.22083 -0.40300
F 	F 	0.82087 0.69154 0.36312 -0.38300
F 	F 	0.68563 0.52619 0.13854 -0.37600
F 	F 	0.64931 0.53339 0.27298 -0.36100
F 	F 	0.72427 0.49966 0.25792 -0.35500
C 	C 	0.53176 0.21414 0.14291 0.06400
C 	C 	0.49975 0.22716 0.21265 0.01100
C 	C 	0.47961 0.26760 0.21170 -0.07600
C 	C 	0.49234 0.29352 0.14106 0.07900
C 	C 	0.52052 0.27924 0.06862 -0.02500
C 	C 	0.53954 0.23886 0.06820 -0.07000
C 	C 	0.56706 0.22184 0.98738 0.79700
H 	H 	0.54825 0.18383 0.14479 0.11900
H 	H 	0.47665 0.32412 0.13886 0.12200
C 	C 	0.43895 0.28164 0.27769 0.78900
F 	F 	0.57859 0.18094 0.99688 -0.34500
F 	F 	0.61275 0.24289 0.97378 -0.36800
F 	F 	0.53606 0.22567 0.91340 -0.42100
F 	F 	0.45089 0.26921 0.36207 -0.41200
F 	F 	0.39124 0.26595 0.25397 -0.38400
F 	F 	0.43521 0.32370 0.27936 -0.35400
C 	C 	0.50464 0.25854 0.52662 0.08700
C 	C 	0.48020 0.22154 0.54757 0.01500
C 	C 	0.45459 0.21782 0.63029 -0.05000
C 	C 	0.46503 0.24670 0.69657 0.08200
C 	C 	0.49480 0.28123 0.67781 0.02700
C 	C 	0.50937 0.28947 0.58981 -0.06000
C 	C 	0.53404 0.32976 0.56457 0.78500
H 	H 	0.52449 0.26157 0.46392 0.11000
H 	H 	0.45182 0.24154 0.76357 0.11300
C 	C 	0.41632 0.18380 0.64833 0.78700
F 	F 	0.53291 0.33555 0.47403 -0.35400
F 	F 	0.58506 0.33041 0.59227 -0.40800
F 	F 	0.50753 0.36175 0.60310 -0.36600
F 	F 	0.44263 0.14754 0.65972 -0.34200
F 	F 	0.38170 0.18029 0.57903 -0.35900
F 	F 	0.38778 0.19132 0.72400 -0.35700
C 	C 	0.26682 0.38564 0.82673 0.06400
C 	C 	0.30713 0.36854 0.77736 0.03500
C 	C 	0.29686 0.35109 0.69403 -0.06700
C 	C 	0.24529 0.34744 0.66566 0.06900
C 	C 	0.20414 0.36112 0.71881 0.03000
C 	C 	0.21502 0.38180 0.79913 -0.06100
C 	C 	0.17205 0.40079 0.85417 0.78300
H 	H 	0.27583 0.40048 0.88873 0.12100
H 	H 	0.23687 0.33283 0.60318 0.12300
C 	C 	0.34052 0.33394 0.63790 0.77900
F 	F 	0.19050 0.41592 0.93348 -0.36400
F 	F 	0.13447 0.37216 0.87357 -0.36500
F 	F 	0.14999 0.43273 0.80806 -0.37600
F 	F 	0.35999 0.29918 0.67730 -0.40500
F 	F 	0.37981 0.36232 0.62963 -0.37500
F 	F 	0.32379 0.32396 0.55380 -0.36800
C 	C 	0.71096 0.39598 0.65709 0.06500
C 	C 	0.70594 0.40197 0.74849 0.04500
C 	C 	0.74939 0.41528 0.79769 -0.06900
C 	C 	0.79880 0.41305 0.75912 0.06900
C 	C 	0.80449 0.40291 0.66949 0.03800
C 	C 	0.75951 0.39995 0.61588 -0.06500
C 	C 	0.76228 0.40287 0.51602 0.78500
H 	H 	0.67721 0.38808 0.61811 0.14700
H 	H 	0.83289 0.41852 0.79919 0.12700
C 	C 	0.74377 0.43088 0.89153 0.78500
F 	F 	0.71561 0.41627 0.48155 -0.35300
F 	F 	0.77301 0.36495 0.48081 -0.36100
F 	F 	0.80005 0.43035 0.49034 -0.37700
F 	F 	0.74346 0.39837 0.94950 -0.36600
F 	F 	0.69841 0.45293 0.90119 -0.37200
F 	F 	0.78456 0.45633 0.91343 -0.36100
C 	C 	0.54642 0.47395 0.92664 0.06400
C 	C 	0.52417 0.44715 0.98832 0.04600
C 	C 	0.50985 0.46225 0.07221 -0.09600
C 	C 	0.50422 0.50445 0.08342 0.09200
C 	C 	0.51895 0.53138 0.01594 -0.01100
C 	C 	0.54548 0.51619 0.94130 -0.03700
C 	C 	0.56955 0.54462 0.87432 0.78200
H 	H 	0.56160 0.46215 0.86504 0.11600
H 	H 	0.48699 0.51629 0.14346 0.11400
C 	C 	0.49941 0.43387 0.14904 0.79100
F 	F 	0.60764 0.52498 0.82606 -0.35800
F 	F 	0.59225 0.57762 0.91586 -0.38100
F 	F 	0.53159 0.55802 0.81703 -0.34800
F 	F 	0.52903 0.39885 0.14244 -0.40200
F 	F 	0.44752 0.42348 0.15047 -0.38600
F 	F 	0.51181 0.45267 0.22807 -0.35200
