data_crystal

_cell_length_a 17.89103
_cell_length_b 16.47143
_cell_length_c 45.00848
_cell_angle_alpha 89.61858
_cell_angle_beta  89.62848
_cell_angle_gamma 119.39522

_symmetry_space_group_name_	'P 1'
_symmetry_space_group_name_H-M	'P 1'

loop_
_symmetry_equiv_pos_as_xyz
  x,y,z

loop_
_atom_site_label
_atom_site_type_symbol
_atom_site_fract_x
_atom_site_fract_y
_atom_site_fract_z
_atom_site_charge
C 	C 	0.15579 0.13452 0.77617 0.24800
C 	C 	0.14423 0.08565 0.69285 0.30900
Ni	Ni	0.04606 0.95315 0.74238 1.08000
Ni	Ni	0.04247 0.14627 0.73025 1.10400
O 	O 	0.15580 0.06718 0.75992 -0.34100
O 	O 	0.11488 0.17958 0.76742 -0.36900
O 	O 	0.09344 0.99746 0.69953 -0.40800
O 	O 	0.14662 0.15130 0.70993 -0.38100
C 	C 	0.22797 0.58644 0.34344 0.26000
C 	C 	0.23083 0.50287 0.43695 0.28500
Ni	Ni	0.31342 0.49995 0.38052 1.12100
O 	O 	0.28482 0.67474 0.34881 -0.35300
O 	O 	0.24779 0.51842 0.34612 -0.36300
O 	O 	0.21701 0.46729 0.40982 -0.37200
O 	O 	0.30889 0.54376 0.44861 -0.37200
H 	H 	0.30987 0.62915 0.39528 0.16100
C 	C 	0.07885 0.64672 0.06324 0.24100
C 	C 	0.22435 0.52831 0.02020 0.26900
C 	C 	0.24993 0.77327 0.99261 0.31400
Ni	Ni	0.25207 0.81182 0.05574 1.11900
O 	O 	0.26520 0.83932 0.01185 -0.38600
O 	O 	0.12871 0.71812 0.04623 -0.36200
O 	O 	0.17744 0.54748 0.03801 -0.36900
O 	O 	0.30606 0.58959 0.01530 -0.36900
O 	O 	0.30504 0.74342 0.98978 -0.38400
C 	C 	0.99878 0.10296 0.13715 0.36200
C 	C 	0.14624 0.16039 0.20200 0.25900
C 	C 	0.01549 0.85766 0.22657 0.20700
Ni	Ni	0.02338 0.97305 0.17500 1.09500
O 	O 	0.93684 0.84094 0.16456 -0.35100
O 	O 	0.00959 0.15864 0.15952 -0.39700
O 	O 	0.97396 0.01489 0.14189 -0.36300
O 	O 	0.06693 0.91998 0.20647 -0.36200
O 	O 	0.12699 0.10497 0.17847 -0.34800
C 	C 	0.09277 0.29301 0.02216 0.12200
C 	C 	0.01983 0.23338 0.03914 -0.10600
C 	C 	0.02744 0.17749 0.06121 -0.04200
C 	C 	0.10617 0.18636 0.06817 0.13400
C 	C 	0.17933 0.24692 0.05155 -0.09100
C 	C 	0.17046 0.29693 0.02767 0.01600
O 	O 	0.10124 0.37440 0.00970 -0.19000
C 	C 	0.19012 0.43117 0.01121 0.04200
C 	C 	0.23180 0.38337 0.01984 -0.05600
O 	O 	0.11190 0.16274 0.09747 -0.17400
C 	C 	0.03073 0.14281 0.10759 -0.05200
C 	C 	0.97940 0.14930 0.08620 0.05500
H 	H 	0.24242 0.26266 0.05908 0.07400
H 	H 	0.29554 0.41656 0.02900 0.06300
C 	C 	0.87819 0.63155 0.06425 0.09100
C 	C 	0.84599 0.69259 0.06920 -0.07800
C 	C 	0.80242 0.68529 0.09598 0.01400
C 	C 	0.82018 0.55584 0.11187 -0.08400
C 	C 	0.86345 0.56280 0.08505 0.02300
O 	O 	0.95272 0.66022 0.04760 -0.18800
C 	C 	0.98554 0.60945 0.06198 0.08600
C 	C 	0.93100 0.54816 0.08330 -0.06800
C 	C 	0.81048 0.76009 0.11062 -0.05500
H 	H 	0.86544 0.75252 0.05466 0.07300
H 	H 	0.95176 0.52081 0.10152 0.07900
H 	H 	0.84493 0.83070 0.10180 0.05900
C 	C 	0.34315 0.29351 0.23701 0.12200
C 	C 	0.37384 0.45275 0.22876 -0.08300
C 	C 	0.34239 0.36101 0.21886 0.01500
O 	O 	0.27779 0.20370 0.23123 -0.18600
C 	C 	0.23680 0.22369 0.20833 0.05600
C 	C 	0.27502 0.31699 0.20077 -0.05100
H 	H 	0.35890 0.50063 0.21707 0.07100
H 	H 	0.24176 0.34966 0.19040 0.06300
C 	C 	0.10960 0.73574 0.26014 0.10900
C 	C 	0.13041 0.66415 0.25997 -0.08200
C 	C 	0.11042 0.60667 0.28538 0.00800
C 	C 	0.07291 0.62141 0.31024 0.12400
C 	C 	0.04678 0.68905 0.30944 -0.10200
C 	C 	0.07031 0.74848 0.28459 0.03800
O 	O 	0.10129 0.77693 0.23427 -0.18800
C 	C 	0.05137 0.81361 0.24571 0.07800
C 	C 	0.03196 0.79658 0.27558 -0.12700
O 	O 	0.09545 0.59579 0.33671 -0.19000
C 	C 	0.15338 0.56908 0.32579 0.05200
C 	C 	0.15987 0.57195 0.29517 -0.05600
H 	H 	0.16218 0.65427 0.24089 0.07200
H 	H 	0.01597 0.70011 0.32857 0.06700
H 	H 	0.97835 0.79721 0.28672 0.09600
H 	H 	0.21554 0.57912 0.28312 0.06300
C 	C 	0.03026 0.49689 0.46690 -0.04800
C 	C 	0.10685 0.52574 0.45093 0.01800
C 	C 	0.15645 0.48209 0.45613 -0.06300
C 	C 	0.13101 0.41314 0.47827 -0.00900
C 	C 	0.05339 0.38252 0.49382 0.00700
H 	H 	0.17004 0.38071 0.48261 0.05100
C 	C 	0.13326 0.59910 0.42885 0.07400
N 	N 	0.15432 0.65782 0.41116 -0.10600
N 	N 	0.30635 0.25406 0.43282 -0.10600
C 	C 	0.29740 0.09728 0.64057 0.09900
O 	O 	0.21433 0.04399 0.65176 -0.17000
C 	C 	0.21137 0.11093 0.66998 0.03200
C 	C 	0.28587 0.19609 0.66973 -0.05400
H 	H 	0.30577 0.24628 0.68753 0.06400
C 	C 	0.16292 0.71686 0.97993 -0.10500
C 	C 	0.13581 0.62436 0.97143 0.03700
C 	C 	0.10350 0.74988 0.97931 0.06700
H 	H 	0.18197 0.60008 0.96943 0.04400
C 	C 	0.13133 0.84794 0.98209 0.06100
N 	N 	0.15346 0.92648 0.98428 -0.11300
O 	O 	0.30507 0.23991 0.79325 -0.18500
C 	C 	0.21932 0.17556 0.79954 0.05500
C 	C 	0.19897 0.15853 0.82933 -0.06300
H 	H 	0.13515 0.13115 0.83882 0.05600
H 	H 	0.02719 0.89354 0.84419 0.01000
O 	O 	0.11147 0.61795 0.08411 -0.36300
O 	O 	0.08822 0.17706 0.21494 -0.36600
O 	O 	0.36916 0.45555 0.41043 -0.37700
O 	O 	0.36291 0.62689 0.39117 -0.72000
Ni	Ni	0.22347 0.61059 0.07826 1.11200
Ni	Ni	0.36419 0.72928 0.02530 1.12000
O 	O 	0.37192 0.91697 0.06250 -0.38800
O 	O 	0.29096 0.72357 0.05736 -0.71200
C 	C 	0.37956 0.30405 0.43092 0.09100
C 	C 	0.33965 0.18686 0.65104 0.02100
C 	C 	0.34384 0.05763 0.62808 -0.03400
H 	H 	0.31107 0.98821 0.61891 0.02800
H 	H 	0.47255 0.63932 0.01355 0.03000
N 	N 	0.55432 0.56351 0.95790 -0.11400
C 	C 	0.33439 0.26049 0.82220 0.12000
C 	C 	0.27258 0.21195 0.84353 0.01800
C 	C 	0.79143 0.61960 0.11739 0.12500
C 	C 	0.80547 0.73848 0.14044 0.05200
H 	H 	0.99073 0.07327 0.63403 0.06000
C 	C 	0.41775 0.47808 0.25579 0.11700
O 	O 	0.42615 0.55375 0.27196 -0.18600
C 	C 	0.38291 0.31780 0.26478 -0.08500
C 	C 	0.85426 0.81150 0.16189 0.27200
H 	H 	0.00274 0.01315 0.22095 0.15700
O 	O 	0.99736 0.89554 0.78432 -0.34900
O 	O 	0.93046 0.81958 0.22522 -0.32900
C 	C 	0.42511 0.41219 0.27272 0.01400
H 	H 	0.82032 0.51148 0.12974 0.08000
C 	C 	0.77660 0.65060 0.96061 0.25600
C 	C 	0.67988 0.28464 0.02090 0.30100
C 	C 	0.89699 0.52922 0.96407 0.27300
C 	C 	0.57133 0.43205 0.02137 0.28200
C 	C 	0.67904 0.27452 0.92567 0.27600
C 	C 	0.54157 0.39365 0.92246 0.26600
Ni	Ni	0.75181 0.48861 0.00392 1.11500
Ni	Ni	0.58669 0.31393 0.97315 1.12200
Ni	Ni	0.73175 0.47096 0.93228 1.12400
O 	O 	0.80288 0.62419 0.98489 -0.34400
O 	O 	0.73115 0.59120 0.93942 -0.36300
O 	O 	0.60303 0.25614 0.93584 -0.35500
O 	O 	0.71533 0.37017 0.03117 -0.35300
O 	O 	0.66063 0.26931 0.99294 -0.38000
O 	O 	0.61713 0.41215 0.91085 -0.36700
O 	O 	0.85136 0.47464 0.98600 -0.35300
O 	O 	0.85908 0.54646 0.94198 -0.35700
O 	O 	0.51656 0.35465 0.94918 -0.35700
O 	O 	0.65263 0.49550 0.02521 -0.36100
O 	O 	0.54899 0.34560 0.01284 -0.36800
O 	O 	0.74554 0.35817 0.92824 -0.36800
O 	O 	0.68063 0.43719 0.97078 -0.71600
H 	H 	0.64848 0.47138 0.97132 0.16300
C 	C 	0.76787 0.13532 0.52963 0.24700
C 	C 	0.66771 0.36960 0.45727 0.30400
C 	C 	0.91120 0.37999 0.49865 0.33200
C 	C 	0.54339 0.13270 0.47813 0.28300
C 	C 	0.75689 0.47619 0.54650 0.27900
C 	C 	0.60660 0.23116 0.57816 0.25900
Ni	Ni	0.73531 0.24411 0.48016 1.11600
Ni	Ni	0.61799 0.30760 0.51808 1.12200
Ni	Ni	0.78126 0.31419 0.54809 1.12400
O 	O 	0.78965 0.17208 0.50228 -0.33400
O 	O 	0.76461 0.18451 0.55242 -0.35100
O 	O 	0.67362 0.41780 0.54581 -0.35500
O 	O 	0.68559 0.30360 0.45012 -0.35500
O 	O 	0.67746 0.39863 0.48454 -0.38100
O 	O 	0.69056 0.29087 0.58000 -0.35400
O 	O 	0.85057 0.36759 0.48012 -0.37000
O 	O 	0.89140 0.34322 0.52556 -0.36100
O 	O 	0.56323 0.22530 0.55370 -0.37000
O 	O 	0.61514 0.12802 0.47866 -0.36400
O 	O 	0.53751 0.20493 0.48916 -0.37100
O 	O 	0.81186 0.44697 0.54130 -0.37600
O 	O 	0.69956 0.26607 0.51703 -0.71900
H 	H 	0.66250 0.20182 0.52430 0.16300
C 	C 	0.89385 0.83271 0.70522 0.26800
C 	C 	0.92337 0.88485 0.79471 0.25400
C 	C 	0.90236 0.05673 0.68811 0.26600
C 	C 	0.91147 0.13519 0.77388 0.26100
Ni	Ni	0.86310 0.95693 0.74472 1.10600
O 	O 	0.85050 0.03124 0.71140 -0.34300
O 	O 	0.94968 0.83155 0.72384 -0.33600
O 	O 	0.83853 0.85789 0.71430 -0.37400
O 	O 	0.95582 0.17630 0.74935 -0.35100
O 	O 	0.86156 0.04370 0.77549 -0.34900
O 	O 	0.85875 0.86602 0.77662 -0.35200
O 	O 	0.98397 0.11914 0.69078 -0.35200
O 	O 	0.98584 0.01948 0.74396 -0.67600
H 	H 	0.99243 0.03349 0.76526 0.15100
C 	C 	0.56975 0.79137 0.39650 0.26900
C 	C 	0.42264 0.56669 0.32721 0.27600
C 	C 	0.37756 0.81070 0.41651 0.28800
C 	C 	0.45065 0.50502 0.41759 0.30100
Ni	Ni	0.41004 0.71788 0.36124 1.11300
Ni	Ni	0.41197 0.65577 0.42968 1.12300
O 	O 	0.48217 0.59150 0.42646 -0.37900
O 	O 	0.53475 0.75140 0.37138 -0.36100
O 	O 	0.52181 0.77735 0.42033 -0.36300
O 	O 	0.41247 0.64028 0.32493 -0.35100
O 	O 	0.41179 0.52415 0.35285 -0.37900
O 	O 	0.41620 0.82131 0.39004 -0.36800
O 	O 	0.35663 0.73660 0.43375 -0.37300
C 	C 	0.39772 0.61666 0.06692 0.29400
C 	C 	0.26518 0.76789 0.11986 0.25000
C 	C 	0.44317 0.92709 0.04942 0.25300
O 	O 	0.31970 0.57101 0.07933 -0.36200
O 	O 	0.42838 0.70280 0.05703 -0.38200
O 	O 	0.44042 0.87080 0.02760 -0.36500
O 	O 	0.26065 0.68531 0.11741 -0.34400
O 	O 	0.22626 0.79629 0.10060 -0.36400
H 	H 	0.33622 0.75531 0.07215 0.15100
C 	C 	0.91985 0.03733 0.26711 0.29400
C 	C 	0.77114 0.98522 0.19921 0.25000
Ni	Ni	0.96047 0.11189 0.20246 1.13100
Ni	Ni	0.86597 0.89207 0.22071 1.12200
O 	O 	0.91325 0.09225 0.24654 -0.33200
O 	O 	0.90466 0.95168 0.26086 -0.38900
O 	O 	0.83705 0.05457 0.18577 -0.32100
O 	O 	0.78264 0.94238 0.22195 -0.36900
O 	O 	0.81257 0.83113 0.18214 -0.37100
O 	O 	0.96247 0.99907 0.20445 -0.72100
H 	H 	0.96175 0.23821 0.03741 0.10000
H 	H 	0.92334 0.15651 0.09062 0.04000
C 	C 	0.58029 0.95629 0.16685 0.10200
C 	C 	0.52595 0.98566 0.15440 -0.12200
C 	C 	0.43725 0.93215 0.16033 0.02600
C 	C 	0.40446 0.85291 0.17822 0.11300
C 	C 	0.46043 0.82852 0.19239 -0.08400
C 	C 	0.54737 0.87804 0.18454 0.01600
O 	O 	0.66834 0.01405 0.16941 -0.14300
C 	C 	0.68394 0.96270 0.19100 0.02300
C 	C 	0.61220 0.88160 0.20011 -0.04900
O 	O 	0.32231 0.78529 0.17059 -0.18300
C 	C 	0.31135 0.82672 0.14503 0.05400
C 	C 	0.37732 0.91626 0.13989 -0.07300
H 	H 	0.55123 0.04596 0.13972 0.10000
H 	H 	0.43569 0.76711 0.20655 0.07100
H 	H 	0.60630 0.84246 0.22027 0.06000
H 	H 	0.39169 0.95060 0.11839 0.05400
O 	O 	0.78825 0.64761 0.14617 -0.17900
C 	C 	0.78846 0.93922 0.38259 0.07900
C 	C 	0.85923 0.94774 0.36646 -0.09500
C 	C 	0.89807 0.01959 0.34514 0.02800
C 	C 	0.86217 0.07450 0.33774 0.13100
C 	C 	0.79055 0.06502 0.35362 -0.10600
C 	C 	0.75785 0.00028 0.37722 0.09300
O 	O 	0.72763 0.85438 0.39491 -0.18200
C 	C 	0.65750 0.86955 0.39598 0.06100
C 	C 	0.67504 0.95625 0.38579 -0.11500
O 	O 	0.87780 0.10652 0.30847 -0.17300
C 	C 	0.92261 0.06221 0.29854 0.04100
C 	C 	0.93726 0.01291 0.32049 -0.01600
H 	H 	0.87761 0.89425 0.36821 0.07500
H 	H 	0.75629 0.09996 0.34590 0.08600
H 	H 	0.62707 0.97187 0.37706 0.06100
H 	H 	0.95012 0.95612 0.31630 0.04200
C 	C 	0.43738 0.52614 0.30025 0.04200
C 	C 	0.43734 0.44227 0.30086 -0.05400
H 	H 	0.37525 0.26426 0.28058 0.07400
H 	H 	0.42151 0.39722 0.32026 0.06000
C 	C 	0.47110 0.06117 0.46124 -0.03300
C 	C 	0.40976 0.98045 0.47618 -0.04700
C 	C 	0.36378 0.89678 0.46063 0.00700
C 	C 	0.38062 0.89449 0.42999 -0.05300
C 	C 	0.42404 0.97933 0.41443 -0.04500
C 	C 	0.47467 0.06156 0.42979 0.03300
H 	H 	0.40222 0.98115 0.50010 0.04000
H 	H 	0.42784 0.97965 0.39035 0.05100
C 	C 	0.53683 0.14220 0.41323 0.07800
C 	C 	0.29695 0.81582 0.47577 0.08200
N 	N 	0.58622 0.20572 0.39941 -0.09900
N 	N 	0.24338 0.75097 0.48793 -0.11400
C 	C 	0.00098 0.42278 0.48748 -0.08800
H 	H 	0.99158 0.52967 0.46246 0.09100
C 	C 	0.02721 0.30801 0.51544 0.08100
N 	N 	0.00656 0.24842 0.53279 -0.10900
C 	C 	0.50519 0.46032 0.41960 -0.06100
C 	C 	0.59461 0.51602 0.41596 -0.00700
C 	C 	0.64978 0.48296 0.42508 0.00900
C 	C 	0.61554 0.39259 0.43725 -0.06200
C 	C 	0.52646 0.33277 0.43672 -0.01400
C 	C 	0.47102 0.36614 0.42860 0.00600
H 	H 	0.62135 0.58671 0.40742 0.05900
H 	H 	0.49970 0.26180 0.44457 0.05500
C 	C 	0.74147 0.54323 0.42274 0.09300
N 	N 	0.81496 0.59150 0.42088 -0.09900
C 	C 	0.78913 0.94368 0.62313 0.16500
C 	C 	0.72406 0.92897 0.60318 -0.13400
C 	C 	0.74551 0.95072 0.57295 0.07600
C 	C 	0.82994 0.99206 0.56323 0.01600
C 	C 	0.89490 0.00602 0.58322 0.04700
C 	C 	0.87235 0.97767 0.61291 -0.10500
O 	O 	0.78320 0.96103 0.65306 -0.22000
C 	C 	0.87046 0.01093 0.65942 0.06200
C 	C 	0.92385 0.02010 0.63595 0.02100
O 	O 	0.84728 0.05086 0.53880 -0.14100
C 	C 	0.76862 0.04875 0.53648 0.10000
C 	C 	0.70636 0.98452 0.55542 -0.12300
H 	H 	0.66097 0.91204 0.61143 0.07600
H 	H 	0.96168 0.04762 0.57662 0.05800
H 	H 	0.64987 0.98825 0.56229 0.06100
C 	C 	0.47635 0.19874 0.63965 0.12800
C 	C 	0.42939 0.23742 0.65247 -0.09000
C 	C 	0.43401 0.10991 0.62814 -0.00300
O 	O 	0.55725 0.25459 0.62726 -0.18100
C 	C 	0.55738 0.19373 0.60581 0.05200
C 	C 	0.48495 0.10667 0.60665 -0.04600
H 	H 	0.46185 0.30707 0.66149 0.07300
H 	H 	0.46170 0.06019 0.58785 0.06100
C 	C 	0.78850 0.67284 0.58651 0.11800
C 	C 	0.76090 0.70206 0.61138 -0.08400
C 	C 	0.82143 0.75348 0.63298 0.01200
C 	C 	0.90359 0.76694 0.63202 0.11800
C 	C 	0.92968 0.73176 0.60826 -0.08300
C 	C 	0.87245 0.69061 0.58461 0.01400
O 	O 	0.73148 0.59788 0.56960 -0.18100
C 	C 	0.78822 0.57050 0.55810 0.04800
C 	C 	0.87232 0.62574 0.56671 -0.05200
O 	O 	0.94379 0.78660 0.65953 -0.17800
C 	C 	0.87691 0.78229 0.67704 0.05000
C 	C 	0.80297 0.75865 0.66140 -0.05400
H 	H 	0.69343 0.67912 0.61487 0.07000
H 	H 	0.98990 0.73111 0.60901 0.07700
H 	H 	0.91991 0.60314 0.56729 0.06600
H 	H 	0.74814 0.76383 0.66930 0.06700
C 	C 	0.04902 0.56224 0.96637 -0.07300
C 	C 	0.98879 0.59329 0.96864 0.06100
C 	C 	0.01665 0.68744 0.97445 -0.13900
H 	H 	0.97062 0.71200 0.97533 0.12100
C 	C 	0.02249 0.46703 0.95853 0.10500
N 	N 	0.00115 0.39077 0.95223 -0.11900
C 	C 	0.52369 0.01837 0.05312 -0.02900
C 	C 	0.51995 0.09236 0.06733 -0.01900
C 	C 	0.58438 0.18476 0.06203 0.00600
C 	C 	0.65016 0.20357 0.04124 -0.06300
C 	C 	0.66384 0.12994 0.03266 -0.01400
C 	C 	0.60132 0.03720 0.03882 0.03500
H 	H 	0.46539 0.07865 0.08133 0.06000
H 	H 	0.71933 0.14442 0.01902 0.05900
C 	C 	0.61924 0.96297 0.03184 0.04900
C 	C 	0.58217 0.25966 0.07773 0.09300
N 	N 	0.63367 0.90351 0.02625 -0.10700
N 	N 	0.58077 0.31978 0.09041 -0.10600
C 	C 	0.43686 0.56225 0.05506 -0.06900
C 	C 	0.47106 0.58206 0.02610 0.00200
C 	C 	0.50107 0.52732 0.01279 -0.00300
C 	C 	0.50538 0.45691 0.02933 -0.05700
C 	C 	0.46736 0.43337 0.05778 -0.01200
C 	C 	0.43350 0.48596 0.07084 0.00700
H 	H 	0.46857 0.37777 0.07039 0.05600
C 	C 	0.39916 0.46361 0.10075 0.08900
C 	C 	0.53084 0.54681 0.98233 0.08000
N 	N 	0.37163 0.44558 0.12472 -0.10600
C 	C 	0.86938 0.21318 0.83999 0.12700
C 	C 	0.84949 0.19042 0.87012 -0.08300
C 	C 	0.76828 0.17113 0.88058 0.02200
C 	C 	0.71003 0.17755 0.86213 0.12000
C 	C 	0.72989 0.19951 0.83193 -0.08100
C 	C 	0.81198 0.22141 0.82172 0.01500
O 	O 	0.92795 0.19578 0.82497 -0.18000
C 	C 	0.89875 0.19169 0.79600 0.05700
C 	C 	0.83030 0.20799 0.79387 -0.05200
O 	O 	0.65289 0.19768 0.87693 -0.18100
C 	C 	0.68572 0.20899 0.90561 0.05200
C 	C 	0.75299 0.19080 0.90808 -0.05400
H 	H 	0.89496 0.18557 0.88477 0.08400
H 	H 	0.68446 0.20425 0.81722 0.07400
H 	H 	0.78397 0.18226 0.77608 0.06600
H 	H 	0.80114 0.21934 0.92526 0.07400
C 	C 	0.40926 0.34223 0.82955 -0.08500
C 	C 	0.41846 0.37368 0.85894 0.01400
C 	C 	0.35660 0.32428 0.88043 0.11800
C 	C 	0.27980 0.24484 0.87259 -0.08500
O 	O 	0.38894 0.33566 0.90901 -0.18000
C 	C 	0.47622 0.39256 0.90255 0.05400
C 	C 	0.49392 0.41742 0.87290 -0.05700
H 	H 	0.45879 0.38009 0.81297 0.07200
H 	H 	0.23039 0.20622 0.88912 0.07400
H 	H 	0.55538 0.43896 0.86218 0.06500
C 	C 	0.86016 0.89830 0.86856 0.13500
C 	C 	0.79882 0.86540 0.89155 -0.10000
C 	C 	0.82299 0.84999 0.91979 0.02700
C 	C 	0.90280 0.85831 0.92432 0.09500
C 	C 	0.96341 0.88884 0.90102 -0.01400
C 	C 	0.94199 0.91332 0.87372 -0.03700
O 	O 	0.83657 0.88347 0.83883 -0.18900
C 	C 	0.91072 0.88793 0.82692 0.02500
C 	C 	0.97419 0.90706 0.84731 0.01200
O 	O 	0.90336 0.80032 0.94675 -0.17900
C 	C 	0.81576 0.75028 0.95350 0.05400
C 	C 	0.76843 0.78312 0.93865 -0.06400
H 	H 	0.73226 0.84328 0.88684 0.07100
H 	H 	0.02170 0.88463 0.90320 0.02300
H 	H 	0.70008 0.74154 0.93481 0.06600
