data_crystal

_cell_length_a 24.62043
_cell_length_b 24.97797
_cell_length_c 22.15416
_cell_angle_alpha 95.47811
_cell_angle_beta  95.47729
_cell_angle_gamma 125.82278

_symmetry_space_group_name_	'P 1'
_symmetry_space_group_name_H-M	'P 1'

loop_
_symmetry_equiv_pos_as_xyz
  x,y,z

loop_
_atom_site_label
_atom_site_type_symbol
_atom_site_fract_x
_atom_site_fract_y
_atom_site_fract_z
_atom_site_charge
C 	C 	0.97823 0.02163 0.99123 0.08500
C 	C 	0.07196 0.01958 0.98435 0.09400
N 	N 	0.04660 0.05487 0.99504 -0.11400
C 	C 	0.03573 0.03006 0.46852 0.10000
N 	N 	0.00399 0.05933 0.46133 -0.11400
Cu	Cu	0.65669 0.24186 0.01884 0.92700
Cu	Cu	0.70006 0.22851 0.88707 0.87100
Cu	Cu	0.68184 0.33210 0.92314 0.89500
Cu	Cu	0.66536 0.37277 0.05169 0.89800
C 	C 	0.67586 0.29941 0.14543 0.31800
O 	O 	0.55810 0.20067 0.02334 -0.35900
C 	C 	0.64830 0.26492 0.79197 0.32000
O 	O 	0.70972 0.34394 0.01048 -0.63500
O 	O 	0.63875 0.23605 0.92861 -0.64200
O 	O 	0.70243 0.19690 0.02079 -0.34300
O 	O 	0.76982 0.25895 0.95547 -0.43100
O 	O 	0.68951 0.35656 0.13329 -0.38400
O 	O 	0.73039 0.42769 0.92415 -0.35500
C 	C 	0.72932 0.46851 0.96575 0.25400
C 	C 	0.52948 0.22909 0.00661 0.25700
O 	O 	0.56695 0.29038 0.99565 -0.36700
O 	O 	0.68657 0.44497 0.00468 -0.37600
O 	O 	0.68342 0.26151 0.10673 -0.36600
C 	C 	0.75750 0.22090 0.99682 0.25100
O 	O 	0.66590 0.31866 0.83122 -0.37800
O 	O 	0.64861 0.21675 0.81110 -0.43000
H 	H 	0.75980 0.37278 0.02452 0.17000
H 	H 	0.59016 0.20498 0.90821 0.17800
Cu	Cu	0.73530 0.35591 0.44373 0.92600
Cu	Cu	0.72453 0.29896 0.57210 0.86700
Cu	Cu	0.62591 0.32225 0.52099 0.89700
Cu	Cu	0.59913 0.33417 0.38593 0.89800
C 	C 	0.69501 0.33763 0.31148 0.31600
O 	O 	0.77301 0.45263 0.44170 -0.35800
C 	C 	0.65717 0.32749 0.65257 0.31200
O 	O 	0.62776 0.29591 0.43700 -0.63700
O 	O 	0.72549 0.36522 0.53085 -0.63900
O 	O 	0.78669 0.31732 0.45181 -0.36100
O 	O 	0.71139 0.23869 0.50297 -0.41700
O 	O 	0.63153 0.31444 0.31397 -0.38500
O 	O 	0.52759 0.27223 0.50902 -0.36900
C 	C 	0.48885 0.26205 0.45720 0.25600
C 	C 	0.73507 0.47368 0.44284 0.25100
O 	O 	0.67058 0.43201 0.44629 -0.36500
O 	O 	0.51418 0.30305 0.41760 -0.36300
O 	O 	0.73309 0.33687 0.35714 -0.36700
C 	C 	0.75790 0.25863 0.46848 0.25600
O 	O 	0.62864 0.34173 0.60981 -0.37800
O 	O 	0.71309 0.33312 0.64693 -0.41600
H 	H 	0.60292 0.24685 0.42400 0.16700
H 	H 	0.75470 0.41171 0.55491 0.17900
C 	C 	0.63098 0.25906 0.73127 -0.12500
C 	C 	0.63178 0.31128 0.70413 -0.11500
H 	H 	0.61868 0.21546 0.70013 0.06000
H 	H 	0.59732 0.32256 0.71630 0.08600
C 	C 	0.67056 0.28796 0.20307 -0.11100
C 	C 	0.71412 0.34378 0.25661 -0.11100
H 	H 	0.64691 0.23697 0.21077 0.08400
H 	H 	0.76805 0.37912 0.25542 0.08000
C 	C 	0.88137 0.76079 0.43730 0.11700
C 	C 	0.87774 0.70484 0.41237 -0.08500
C 	C 	0.82075 0.64111 0.41740 0.00900
C 	C 	0.77096 0.63306 0.44802 0.11700
C 	C 	0.77465 0.68932 0.47283 -0.08900
C 	C 	0.83220 0.75310 0.46828 0.02100
O 	O 	0.73337 0.57240 0.46872 -0.18800
C 	C 	0.76669 0.54573 0.44872 0.04100
C 	C 	0.81986 0.58722 0.41968 -0.05900
H 	H 	0.91722 0.71070 0.38919 0.06900
H 	H 	0.73558 0.68368 0.49653 0.07000
H 	H 	0.84588 0.57321 0.39314 0.05600
C 	C 	0.89314 0.13419 0.44496 0.11300
C 	C 	0.89474 0.18632 0.42421 -0.08600
C 	C 	0.83473 0.18165 0.41835 0.00900
C 	C 	0.77681 0.12966 0.43593 0.11800
C 	C 	0.77514 0.07706 0.45597 -0.09400
C 	C 	0.83526 0.08203 0.46185 0.02300
O 	O 	0.93845 0.12037 0.43267 -0.20200
C 	C 	0.90150 0.05423 0.44307 0.10400
C 	C 	0.83899 0.03037 0.45864 -0.09700
O 	O 	0.73420 0.14568 0.45244 -0.19400
C 	C 	0.77258 0.21244 0.44388 0.03800
C 	C 	0.83254 0.23436 0.42368 -0.05400
H 	H 	0.94051 0.22814 0.41179 0.06800
H 	H 	0.72968 0.03549 0.46900 0.06600
H 	H 	0.87684 0.28647 0.43072 0.05600
C 	C 	0.30934 0.15695 0.41235 0.11900
C 	C 	0.24744 0.14662 0.39304 -0.09000
C 	C 	0.19179 0.10170 0.41956 0.02300
C 	C 	0.19899 0.07550 0.46889 0.11700
C 	C 	0.26255 0.09102 0.49228 -0.08500
C 	C 	0.31566 0.12765 0.45976 0.01000
O 	O 	0.37103 0.21260 0.40297 -0.18800
C 	C 	0.41455 0.21487 0.45021 0.04500
C 	C 	0.38233 0.16449 0.48402 -0.06100
O 	O 	0.14773 0.05322 0.50331 -0.19900
C 	C 	0.10910 0.06879 0.46973 0.10400
C 	C 	0.13706 0.10065 0.42157 -0.08500
H 	H 	0.24409 0.17562 0.36155 0.07300
H 	H 	0.27108 0.07780 0.53551 0.06900
H 	H 	0.40356 0.16574 0.52976 0.05800
H 	H 	0.11008 0.10529 0.38332 0.07000
C 	C 	0.78666 0.69072 0.97243 -0.08400
C 	C 	0.79518 0.64061 0.97829 0.01000
C 	C 	0.84289 0.63900 0.95222 0.11800
C 	C 	0.88887 0.69163 0.92367 -0.09100
O 	O 	0.82736 0.57531 0.93971 -0.19100
C 	C 	0.76513 0.53918 0.96008 0.04600
C 	C 	0.74589 0.57766 0.98338 -0.05900
H 	H 	0.74794 0.69056 0.99207 0.06900
H 	H 	0.92782 0.69183 0.90446 0.06900
H 	H 	0.69449 0.55870 0.98851 0.05900
C 	C 	0.91735 0.11654 0.97238 0.11500
C 	C 	0.91841 0.17241 0.96531 -0.08800
C 	C 	0.85978 0.16762 0.97291 0.00700
C 	C 	0.80787 0.11578 0.99594 0.10800
C 	C 	0.81052 0.06357 0.00965 -0.08300
C 	C 	0.86367 0.06303 0.99242 0.01600
O 	O 	0.97498 0.11800 0.97674 -0.20600
C 	C 	0.94994 0.05930 0.00084 0.10900
C 	C 	0.88481 0.02850 0.01331 -0.09000
O 	O 	0.76545 0.12907 0.01883 -0.18600
C 	C 	0.79669 0.19401 0.00613 0.04100
C 	C 	0.85528 0.21850 0.98182 -0.06400
H 	H 	0.96325 0.21785 0.95589 0.06600
H 	H 	0.77395 0.02617 0.03383 0.06900
H 	H 	0.88062 0.26167 0.95935 0.05000
C 	C 	0.23123 0.05595 0.97876 0.11400
C 	C 	0.28767 0.05561 0.99376 -0.08900
C 	C 	0.34811 0.10379 0.97436 0.01000
C 	C 	0.35597 0.15686 0.95116 0.11700
C 	C 	0.30114 0.16067 0.94202 -0.09000
C 	C 	0.23772 0.10622 0.95173 0.02100
O 	O 	0.17370 0.02059 0.00528 -0.19800
C 	C 	0.14576 0.05423 0.99094 0.10000
C 	C 	0.18560 0.10755 0.96168 -0.08500
O 	O 	0.42341 0.21299 0.95840 -0.19000
C 	C 	0.45495 0.18853 0.98854 0.03700
C 	C 	0.41073 0.12379 0.99853 -0.06100
H 	H 	0.28528 0.02091 0.02124 0.07000
H 	H 	0.30850 0.20550 0.93079 0.07100
H 	H 	0.16836 0.13162 0.93637 0.06700
H 	H 	0.42213 0.10228 0.03328 0.06000
C 	C 	0.93493 0.02169 0.45293 0.08700
C 	C 	0.83279 0.74374 0.94434 0.11500
C 	C 	0.88183 0.74313 0.91933 0.02400
C 	C 	0.83571 0.80891 0.46921 -0.08500
O 	O 	0.84921 0.80745 0.95966 -0.20200
C 	C 	0.93348 0.80732 0.91947 -0.08800
O 	O 	0.92071 0.82216 0.41859 -0.19800
H 	H 	0.81376 0.82455 0.49989 0.06300
H 	H 	0.98583 0.82597 0.91956 0.06800
C 	C 	0.91368 0.84506 0.94381 0.10300
C 	C 	0.89045 0.85100 0.44164 0.10100
H 	H 	0.80691 0.98524 0.47727 0.07000
N 	N 	0.93552 0.95348 0.97532 -0.11400
C 	C 	0.96060 0.91853 0.96287 0.09500
N 	N 	0.02885 0.95158 0.96816 -0.11200
N 	N 	0.89730 0.95382 0.44933 -0.12400
C 	C 	0.92932 0.92442 0.45574 0.09900
N 	N 	0.99837 0.96293 0.46640 -0.11000
H 	H 	0.85189 0.97806 0.02268 0.07500
