data_crystal

_cell_length_a 27.29544
_cell_length_b 28.80807
_cell_length_c 41.22227
_cell_angle_alpha 60.88853
_cell_angle_beta  118.83246
_cell_angle_gamma 133.20334

_symmetry_space_group_name_	'P 1'
_symmetry_space_group_name_H-M	'P 1'

loop_
_symmetry_equiv_pos_as_xyz
  x,y,z

loop_
_atom_site_label
_atom_site_type_symbol
_atom_site_fract_x
_atom_site_fract_y
_atom_site_fract_z
_atom_site_charge
Co	Co	0.05991 0.00838 0.06763 1.15600
Co	Co	0.00483 0.05665 0.09220 1.18200
C 	C 	0.19240 0.05156 0.06221 0.26000
Co	Co	0.08434 0.90518 0.07797 1.17000
O 	O 	0.05270 0.08113 0.05527 -0.47000
C 	C 	0.06242 0.15423 0.13521 0.31600
C 	C 	0.13064 0.87598 0.16220 0.31100
O 	O 	0.02100 0.10602 0.15876 -0.40200
O 	O 	0.07036 0.14309 0.11072 -0.37100
O 	O 	0.15267 0.91564 0.13051 -0.38300
O 	O 	0.08093 0.86665 0.16898 -0.35500
O 	O 	0.05220 0.93810 0.09373 -0.74100
O 	O 	0.15435 0.99869 0.05013 -0.35400
O 	O 	0.16519 0.06326 0.07390 -0.38400
Co	Co	0.02989 0.00319 0.56086 1.16000
C 	C 	0.16921 0.07627 0.55172 0.33500
Co	Co	0.09236 0.93120 0.57261 1.18100
O 	O 	0.00265 0.06189 0.54684 -0.47500
C 	C 	0.02138 0.15061 0.61358 0.34000
C 	C 	0.15859 0.92702 0.65384 0.31900
O 	O 	0.04023 0.12462 0.60715 -0.40500
O 	O 	0.17109 0.96203 0.61976 -0.36300
O 	O 	0.11647 0.92226 0.66471 -0.36500
O 	O 	0.03888 0.94217 0.58850 -0.73300
O 	O 	0.14095 0.02670 0.53928 -0.44000
O 	O 	0.13519 0.07331 0.56771 -0.41900
C 	C 	0.00362 0.02220 0.82801 -0.08700
C 	C 	0.01983 0.93663 0.35932 -0.01900
C 	C 	0.02112 0.93648 0.39388 -0.02100
H 	H 	0.04636 0.92068 0.35969 0.05500
H 	H 	0.04868 0.92040 0.42058 0.05300
C 	C 	0.13751 0.39381 0.63181 -0.00400
C 	C 	0.12344 0.38413 0.66414 0.13500
C 	C 	0.14995 0.43842 0.67478 -0.06300
C 	C 	0.11723 0.33769 0.62290 0.01100
O 	O 	0.08657 0.32201 0.68634 -0.27600
H 	H 	0.14296 0.43088 0.70111 0.06700
C 	C 	0.06672 0.31667 0.58975 0.11200
C 	C 	0.04258 0.25940 0.58380 -0.02700
C 	C 	0.06670 0.22143 0.61132 -0.13200
C 	C 	0.12187 0.24586 0.64255 0.19500
C 	C 	0.14692 0.30381 0.64827 -0.11200
O 	O 	0.03719 0.34913 0.56459 -0.27400
H 	H 	0.00106 0.24168 0.55925 0.05400
O 	O 	0.14719 0.21027 0.66932 -0.28900
H 	H 	0.18752 0.32092 0.67321 0.08300
H 	H 	0.06425 0.38088 0.54470 0.15000
H 	H 	0.18568 0.22650 0.66052 0.15100
H 	H 	0.03755 0.30616 0.67534 0.15100
C 	C 	0.25907 0.73020 0.72944 0.13900
C 	C 	0.21408 0.79821 0.69741 0.01300
O 	O 	0.28958 0.75139 0.76191 -0.27200
C 	C 	0.24784 0.90999 0.67314 -0.03200
C 	C 	0.18683 0.88796 0.67822 -0.11400
C 	C 	0.14535 0.82254 0.69862 0.19800
C 	C 	0.15987 0.77822 0.70862 -0.10200
O 	O 	0.08756 0.80037 0.70596 -0.29100
H 	H 	0.12636 0.72744 0.72295 0.08000
H 	H 	0.10336 0.80742 0.73147 0.16300
C 	C 	0.11311 0.32056 0.11961 -0.11300
C 	C 	0.15942 0.33542 0.15461 0.01100
C 	C 	0.18219 0.29567 0.18044 0.11700
C 	C 	0.15444 0.23871 0.17243 -0.03000
C 	C 	0.10485 0.22162 0.13844 -0.12300
C 	C 	0.08593 0.26398 0.11142 0.19400
C 	C 	0.18346 0.39215 0.16437 -0.00600
H 	H 	0.16939 0.20642 0.19334 0.05500
O 	O 	0.03971 0.24939 0.07735 -0.28800
H 	H 	0.09660 0.35182 0.09921 0.07400
C 	C 	0.19335 0.43519 0.20708 0.16500
C 	C 	0.16338 0.38190 0.19417 -0.09400
O 	O 	0.17552 0.42439 0.23727 -0.28100
H 	H 	0.12655 0.33246 0.20827 0.07400
H 	H 	0.99398 0.22583 0.08156 0.15100
H 	H 	0.20805 0.41716 0.26041 0.15400
C 	C 	0.21111 0.76540 0.21899 0.01200
O 	O 	0.29592 0.73356 0.28669 -0.27000
C 	C 	0.23181 0.87173 0.19524 -0.03000
C 	C 	0.16151 0.84056 0.19038 -0.11400
C 	C 	0.11850 0.77209 0.20498 0.19300
C 	C 	0.14359 0.73485 0.21940 -0.11100
O 	O 	0.05109 0.74110 0.20345 -0.27600
H 	H 	0.10908 0.68181 0.22845 0.08100
H 	H 	0.02439 0.72861 0.17869 0.15100
H 	H 	0.22332 0.11049 0.99387 0.05500
O 	O 	0.02836 0.98236 0.11924 -0.54100
O 	O 	0.00804 0.98396 0.01423 -0.34900
Co	Co	0.01788 0.89835 0.63162 1.19100
C 	C 	0.01317 0.00587 0.71988 0.17700
O 	O 	0.00190 0.04962 0.69428 -0.37000
C 	C 	0.02147 0.98707 0.82733 0.08300
C 	C 	0.02149 0.98979 0.79112 0.00400
C 	C 	0.01989 0.99518 0.75956 0.01400
C 	C 	0.21757 0.74852 0.69804 -0.00300
C 	C 	0.22976 0.72567 0.22199 -0.00700
O 	O 	0.01886 0.97260 0.70967 -0.31200
C 	C 	0.01267 0.97332 0.93276 0.04700
C 	C 	0.01594 0.97855 0.89679 0.05800
C 	C 	0.01145 0.96565 0.96414 -0.06900
O 	O 	0.04946 0.83516 0.60573 -0.38500
H 	H 	0.33534 0.79346 0.75816 0.16400
H 	H 	0.20524 0.16994 0.48688 0.05100
C 	C 	0.27454 0.71399 0.25513 0.14100
O 	O 	0.22934 0.31095 0.21423 -0.27500
H 	H 	0.30265 0.67734 0.75173 0.07100
H 	H 	0.28249 0.96103 0.65957 0.08100
H 	H 	0.27521 0.33952 0.20856 0.15500
H 	H 	0.26617 0.92469 0.18567 0.07200
H 	H 	0.33996 0.77816 0.28391 0.16600
C 	C 	0.26041 0.86511 0.68154 0.12100
H 	H 	0.29663 0.13646 0.62514 0.15200
C 	C 	0.30294 0.63145 0.22422 0.14800
N 	N 	0.26017 0.57581 0.21181 -0.13300
C 	C 	0.28710 0.55302 0.20836 0.14900
C 	C 	0.26296 0.63875 0.68992 0.14800
N 	N 	0.21616 0.58457 0.67542 -0.13500
C 	C 	0.23847 0.55785 0.67131 0.14900
C 	C 	0.17242 0.45733 0.60845 -0.09400
C 	C 	0.18993 0.50244 0.65315 -0.05400
C 	C 	0.19794 0.51140 0.61878 0.16600
O 	O 	0.23242 0.57331 0.59576 -0.27400
H 	H 	0.18182 0.46512 0.58294 0.07200
C 	C 	0.18472 0.72450 0.66552 -0.09800
C 	C 	0.26957 0.69021 0.72762 -0.06300
C 	C 	0.23998 0.66921 0.69425 -0.05600
C 	C 	0.19568 0.68499 0.66349 0.16500
O 	O 	0.16675 0.66566 0.63051 -0.27300
H 	H 	0.15257 0.73835 0.64124 0.08200
O 	O 	0.31735 0.88658 0.67360 -0.26400
H 	H 	0.12094 0.62323 0.63366 0.15500
H 	H 	0.30197 0.88380 0.64695 0.15500
C 	C 	0.22923 0.45652 0.14528 0.13200
C 	C 	0.25819 0.50974 0.15773 -0.06100
C 	C 	0.24260 0.49927 0.18956 -0.05700
O 	O 	0.24920 0.46727 0.11606 -0.27100
H 	H 	0.29556 0.55909 0.14384 0.07100
H 	H 	0.21654 0.47324 0.09239 0.14900
C 	C 	0.20613 0.70314 0.19046 -0.10000
C 	C 	0.29649 0.68113 0.25619 -0.06400
C 	C 	0.27427 0.66011 0.22422 -0.05600
C 	C 	0.22801 0.67040 0.19143 0.16600
H 	H 	0.33141 0.67271 0.28169 0.07100
O 	O 	0.20750 0.65215 0.15950 -0.28000
H 	H 	0.17197 0.71241 0.16478 0.07000
C 	C 	0.25636 0.83438 0.20873 0.12000
O 	O 	0.32389 0.86526 0.21049 -0.26600
H 	H 	0.16336 0.60753 0.16181 0.15600
H 	H 	0.32395 0.86970 0.18508 0.15300
C 	C 	0.31331 0.21153 0.50260 0.10900
C 	C 	0.24875 0.17342 0.51022 -0.02600
C 	C 	0.23875 0.13499 0.54719 -0.13900
C 	C 	0.29591 0.14145 0.57744 0.19600
O 	O 	0.28762 0.10677 0.61407 -0.30100
C 	C 	0.33269 0.15701 0.01134 0.12300
C 	C 	0.26857 0.12423 0.01748 -0.04800
C 	C 	0.26143 0.10408 0.05446 -0.10900
C 	C 	0.32042 0.12230 0.08492 0.18200
O 	O 	0.33725 0.16988 0.97580 -0.27500
O 	O 	0.31462 0.10476 0.12104 -0.28600
H 	H 	0.30689 0.06147 0.13312 0.13700
Co	Co	0.00916 0.88722 0.12887 1.19200
H 	H 	0.34433 0.21276 0.96179 0.16100
N 	N 	0.35645 0.58526 0.21778 -0.13500
C 	C 	0.39950 0.64118 0.22963 0.14900
N 	N 	0.37266 0.66417 0.23303 -0.14200
N 	N 	0.30675 0.58467 0.68204 -0.13700
C 	C 	0.35339 0.63858 0.69619 0.15100
N 	N 	0.33157 0.66580 0.70001 -0.14100
H 	H 	0.28126 0.58902 0.60397 0.15600
C 	C 	0.36007 0.17831 0.56975 -0.11700
C 	C 	0.36809 0.21092 0.53209 0.01100
C 	C 	0.43270 0.24173 0.52350 -0.00900
O 	O 	0.32163 0.24624 0.46598 -0.27600
H 	H 	0.40280 0.17944 0.59284 0.08100
C 	C 	0.43231 0.21527 0.50228 -0.09400
H 	H 	0.38411 0.17378 0.49096 0.07200
H 	H 	0.33770 0.29041 0.46387 0.14700
C 	C 	0.38518 0.15701 0.07857 -0.11600
C 	C 	0.39109 0.17230 0.04212 0.00400
H 	H 	0.43039 0.17021 0.10220 0.07000
H 	H 	0.45791 0.11781 0.06827 0.06400
C 	C 	0.03415 0.94370 0.89614 -0.02800
C 	C 	0.03689 0.94794 0.86155 -0.04400
H 	H 	0.05055 0.92049 0.86142 0.05900
C 	C 	0.01310 0.95073 0.00354 0.30300
O 	O 	0.01419 0.80761 0.10247 -0.40800
H 	H 	0.04594 0.91312 0.92237 0.05200
C 	C 	0.45823 0.20374 0.03629 -0.00700
C 	C 	0.42770 0.67095 0.70362 -0.06000
H 	H 	0.45125 0.76705 0.67070 0.07400
O 	O 	0.41381 0.56908 0.74283 -0.27900
H 	H 	0.42503 0.57093 0.76911 0.15500
C 	C 	0.47396 0.68239 0.23171 -0.06000
O 	O 	0.47778 0.58872 0.26519 -0.27800
C 	C 	0.49431 0.26888 0.01470 0.13600
C 	C 	0.48593 0.16833 0.05198 -0.09800
O 	O 	0.46837 0.30437 0.99967 -0.27300
H 	H 	0.48745 0.32614 0.01965 0.14900
C 	C 	0.45367 0.63317 0.72348 0.16600
C 	C 	0.47033 0.73728 0.68551 -0.06100
C 	C 	0.50808 0.74960 0.21348 -0.06200
C 	C 	0.50636 0.65233 0.24369 0.16700
H 	H 	0.48562 0.77431 0.20583 0.07200
H 	H 	0.49951 0.59205 0.29212 0.15200
C 	C 	0.49526 0.29549 0.53805 0.13300
C 	C 	0.49412 0.24208 0.49577 0.16200
O 	O 	0.49622 0.32223 0.55845 -0.27700
O 	O 	0.49277 0.21656 0.47438 -0.28200
H 	H 	0.49027 0.35700 0.53924 0.15000
H 	H 	0.48686 0.24222 0.44768 0.15000
O 	O 	0.00765 0.90199 0.52728 -0.37600
O 	O 	0.03212 0.71307 0.64851 -0.28200
H 	H 	0.01528 0.68559 0.67235 0.15700
C 	C 	0.53605 0.76428 0.68435 0.13200
C 	C 	0.51917 0.66004 0.72212 -0.09400
H 	H 	0.53790 0.63004 0.73635 0.08100
C 	C 	0.55702 0.29785 0.00853 -0.06800
C 	C 	0.55060 0.19856 0.04739 0.16100
O 	O 	0.57830 0.16426 0.06401 -0.28100
C 	C 	0.55982 0.72500 0.70183 -0.00500
H 	H 	0.56512 0.82981 0.63943 0.15300
C 	C 	0.56789 0.78359 0.20187 0.13100
C 	C 	0.56490 0.68562 0.23116 -0.09500
H 	H 	0.57684 0.85112 0.15650 0.15300
C 	C 	0.55715 0.32073 0.53279 -0.06500
C 	C 	0.55719 0.29445 0.51161 -0.05700
C 	C 	0.58694 0.26404 0.02604 -0.05300
H 	H 	0.58431 0.34805 0.99168 0.08100
H 	H 	0.60513 0.17245 0.08987 0.14400
C 	C 	0.00089 0.01797 0.86260 -0.07300
H 	H 	0.99145 0.05247 0.80175 0.04000
C 	C 	0.98397 0.95691 0.32456 -0.00300
O 	O 	0.98331 0.94478 0.20653 -0.36700
H 	H 	0.98687 0.04514 0.86271 0.03700
C 	C 	0.98064 0.95571 0.28861 0.05600
C 	C 	0.98654 0.95662 0.39392 -0.00100
O 	O 	0.99036 0.98085 0.50770 -0.34400
O 	O 	0.95852 0.11550 0.61737 -0.42700
Co	Co	0.96654 0.03731 0.58982 1.16100
C 	C 	0.98661 0.95475 0.42989 0.05200
C 	C 	0.98902 0.95176 0.46101 -0.08300
O 	O 	0.01103 0.89856 0.02721 -0.38900
C 	C 	0.74648 0.31968 0.01272 0.14400
N 	N 	0.79064 0.38200 0.01747 -0.14400
C 	C 	0.76958 0.40295 0.02803 0.14900
N 	N 	0.70572 0.36143 0.03457 -0.14100
C 	C 	0.66023 0.30124 0.02752 0.14600
N 	N 	0.68065 0.28000 0.01683 -0.12800
C 	C 	0.70329 0.30669 0.51490 0.14900
N 	N 	0.63710 0.28282 0.50974 -0.13300
C 	C 	0.62350 0.32279 0.50614 0.14800
N 	N 	0.67582 0.38683 0.50605 -0.14200
C 	C 	0.74226 0.40856 0.51587 0.15000
N 	N 	0.75609 0.36898 0.51927 -0.13900
Co	Co	0.94953 0.93279 0.15149 1.19900
Co	Co	0.91968 0.03306 0.13928 1.14700
C 	C 	0.94921 0.78323 0.09519 0.31500
O 	O 	0.92184 0.09844 0.08656 -0.42300
O 	O 	0.96541 0.00716 0.12893 -0.80300
C 	C 	0.89899 0.08215 0.05507 0.32700
O 	O 	0.95691 0.86023 0.16402 -0.45400
C 	C 	0.80698 0.89644 0.13295 0.32100
O 	O 	0.91905 0.05364 0.05253 -0.40700
O 	O 	0.82388 0.95656 0.11801 -0.36500
O 	O 	0.84265 0.88143 0.13218 -0.37900
C 	C 	0.95881 0.96086 0.21716 0.32100
O 	O 	0.91095 0.96961 0.19327 -0.38900
O 	O 	0.93328 0.81330 0.09994 -0.38700
Co	Co	0.95537 0.93311 0.66098 1.18700
Co	Co	0.91175 0.02076 0.65216 1.13800
C 	C 	0.98474 0.79414 0.60816 0.31800
O 	O 	0.82715 0.99039 0.60705 -0.33200
O 	O 	0.94452 0.99309 0.63245 -0.72100
C 	C 	0.83459 0.02417 0.57185 0.24300
O 	O 	0.97941 0.87219 0.67403 -0.45500
C 	C 	0.82714 0.87446 0.67990 0.32300
O 	O 	0.96908 0.95223 0.60462 -0.56000
C 	C 	0.99585 0.94465 0.50001 0.30200
O 	O 	0.87598 0.03235 0.55810 -0.38100
O 	O 	0.86343 0.92935 0.68941 -0.39200
O 	O 	0.85448 0.86456 0.66702 -0.37400
O 	O 	0.96012 0.80875 0.61978 -0.38000
C 	C 	0.95106 0.97725 0.35914 -0.02700
C 	C 	0.94976 0.97738 0.32461 -0.02600
C 	C 	0.97405 0.95678 0.25697 -0.08900
H 	H 	0.92418 0.99284 0.35876 0.05600
H 	H 	0.92183 0.99309 0.29795 0.05300
C 	C 	0.63397 0.76269 0.66332 -0.11400
C 	C 	0.62684 0.75163 0.69840 0.01100
C 	C 	0.68486 0.77043 0.72929 0.12100
C 	C 	0.75015 0.80410 0.72419 -0.02800
C 	C 	0.75836 0.82109 0.68805 -0.12200
C 	C 	0.69958 0.79790 0.65794 0.19800
O 	O 	0.67804 0.75694 0.76430 -0.27000
H 	H 	0.79508 0.82065 0.74774 0.06300
O 	O 	0.70636 0.81139 0.62292 -0.28300
H 	H 	0.58905 0.74664 0.63972 0.07900
O 	O 	0.57723 0.82917 0.66646 -0.27100
H 	H 	0.71090 0.85306 0.60823 0.16800
H 	H 	0.68451 0.79554 0.76390 0.15700
C 	C 	0.63102 0.79672 0.14892 -0.11300
C 	C 	0.64622 0.78035 0.18899 0.01100
C 	C 	0.71118 0.79257 0.21009 0.12100
C 	C 	0.76106 0.82331 0.19104 -0.02900
C 	C 	0.74831 0.84594 0.15112 -0.12400
C 	C 	0.68231 0.83089 0.12998 0.20200
C 	C 	0.59384 0.75023 0.20861 -0.00200
O 	O 	0.72621 0.77512 0.24927 -0.27200
H 	H 	0.81128 0.83332 0.20746 0.05800
O 	O 	0.66779 0.84931 0.09081 -0.27900
H 	H 	0.58005 0.78474 0.13248 0.07900
O 	O 	0.60080 0.84921 0.18392 -0.26900
H 	H 	0.58606 0.66030 0.23766 0.08400
H 	H 	0.67770 0.89277 0.08383 0.16800
H 	H 	0.74662 0.81398 0.25693 0.15300
C 	C 	0.78192 0.21625 0.55187 -0.10200
C 	C 	0.74704 0.18319 0.52331 -0.00300
C 	C 	0.69740 0.19036 0.49207 0.13300
C 	C 	0.68270 0.23015 0.48970 -0.06400
C 	C 	0.71815 0.26385 0.51807 -0.05800
C 	C 	0.76798 0.25670 0.54930 0.16600
C 	C 	0.76167 0.13986 0.52683 -0.00500
O 	O 	0.66219 0.15751 0.46425 -0.27900
H 	H 	0.64423 0.23532 0.46562 0.06800
O 	O 	0.80057 0.28656 0.57825 -0.28400
H 	H 	0.81969 0.21032 0.57620 0.06700
C 	C 	0.82397 0.16699 0.52051 0.12500
C 	C 	0.84380 0.12679 0.53102 -0.05000
C 	C 	0.80298 0.05994 0.54911 -0.09100
C 	C 	0.73757 0.03180 0.55202 0.11600
C 	C 	0.71712 0.07181 0.54075 -0.08800
O 	O 	0.86580 0.23281 0.50439 -0.27700
H 	H 	0.89317 0.14855 0.52749 0.05900
O 	O 	0.69349 0.96526 0.56563 -0.22900
H 	H 	0.66798 0.05030 0.54447 0.06200
H 	H 	0.84423 0.32889 0.57153 0.15300
H 	H 	0.89802 0.25379 0.52618 0.15200
H 	H 	0.70116 0.95848 0.59321 0.15400
H 	H 	0.69039 0.18777 0.44493 0.15300
C 	C 	0.94517 0.64318 0.60549 -0.11500
C 	C 	0.88412 0.62202 0.57681 0.01200
C 	C 	0.84937 0.65029 0.56363 0.11900
C 	C 	0.87935 0.70339 0.57680 -0.03100
C 	C 	0.94320 0.72762 0.60350 -0.11900
C 	C 	0.97353 0.69432 0.61964 0.19100
C 	C 	0.85518 0.56813 0.56207 -0.00200
O 	O 	0.78530 0.62473 0.53902 -0.26900
H 	H 	0.85448 0.72743 0.56500 0.06100
H 	H 	0.97072 0.61989 0.61688 0.07300
C 	C 	0.85682 0.58049 0.52495 0.13300
C 	C 	0.82632 0.52821 0.51087 -0.06300
C 	C 	0.79526 0.46390 0.53386 -0.06100
C 	C 	0.80069 0.45294 0.57228 0.16600
C 	C 	0.82926 0.50468 0.58600 -0.09900
O 	O 	0.89005 0.64361 0.50295 -0.27400
H 	H 	0.82385 0.53728 0.48152 0.06500
O 	O 	0.77241 0.39048 0.59544 -0.28000
H 	H 	0.83019 0.49527 0.61508 0.07400
H 	H 	0.85337 0.65027 0.48624 0.14600
H 	H 	0.81008 0.38492 0.60769 0.15500
H 	H 	0.79385 0.65229 0.51318 0.14600
H 	H 	0.60536 0.36061 0.54545 0.07600
C 	C 	0.87400 0.20898 0.98815 -0.11700
C 	C 	0.81446 0.18252 0.99719 0.01400
C 	C 	0.77090 0.11427 0.01200 0.11000
C 	C 	0.79228 0.07519 0.02270 -0.03100
C 	C 	0.85911 0.10472 0.02159 -0.13400
C 	C 	0.89561 0.16969 0.99965 0.20500
C 	C 	0.80382 0.22678 0.99709 -0.00700
O 	O 	0.70919 0.08622 0.01777 -0.27700
H 	H 	0.76115 0.02374 0.03700 0.04100
O 	O 	0.95462 0.19601 0.99152 -0.29200
H 	H 	0.90576 0.26070 0.97449 0.07600
C 	C 	0.84592 0.26230 0.02541 0.12700
C 	C 	0.82917 0.29580 0.02899 -0.06500
C 	C 	0.77046 0.29413 0.00456 -0.06100
C 	C 	0.73076 0.26190 0.97481 0.16700
C 	C 	0.74741 0.22823 0.97127 -0.09500
O 	O 	0.90077 0.26079 0.05116 -0.28700
H 	H 	0.86021 0.32070 0.05184 0.06300
O 	O 	0.67433 0.26133 0.94996 -0.27600
H 	H 	0.71524 0.20171 0.94914 0.07700
H 	H 	0.99306 0.21649 0.01273 0.16300
H 	H 	0.94118 0.29928 0.03980 0.14500
H 	H 	0.69233 0.30064 0.92861 0.15000
H 	H 	0.72015 0.08774 0.04409 0.14200
C 	C 	0.79661 0.55806 0.00826 -0.10600
C 	C 	0.84544 0.57883 0.04163 -0.00200
C 	C 	0.88218 0.55106 0.06511 0.12500
C 	C 	0.86374 0.49761 0.05759 -0.06100
C 	C 	0.81004 0.47278 0.02623 -0.06800
C 	C 	0.78102 0.50710 0.99976 0.17400
C 	C 	0.85657 0.62824 0.05249 0.00500
O 	O 	0.93368 0.57390 0.09638 -0.28000
H 	H 	0.88779 0.47268 0.07764 0.06200
O 	O 	0.73146 0.48595 0.96766 -0.28200
H 	H 	0.76896 0.57985 0.98954 0.09000
C 	C 	0.87630 0.69049 0.02747 0.11600
C 	C 	0.89183 0.73818 0.03932 -0.03800
C 	C 	0.89594 0.72720 0.07737 -0.11600
C 	C 	0.86853 0.66295 0.10081 0.19100
C 	C 	0.84817 0.61344 0.08815 -0.10600
O 	O 	0.88202 0.70537 0.99183 -0.27100
H 	H 	0.90668 0.78571 0.01985 0.06800
O 	O 	0.86237 0.64862 0.13619 -0.28200
H 	H 	0.82857 0.56440 0.10667 0.08300
H 	H 	0.75720 0.51085 0.94762 0.15400
H 	H 	0.93048 0.72372 0.99525 0.14400
H 	H 	0.90463 0.65209 0.15429 0.15000
H 	H 	0.97667 0.60913 0.08695 0.14400
