data_crystal

_cell_length_a 26.48682
_cell_length_b 26.18906
_cell_length_c 26.03428
_cell_angle_alpha 95.49945
_cell_angle_beta  95.50031
_cell_angle_gamma 125.84258

_symmetry_space_group_name_	'P 1'
_symmetry_space_group_name_H-M	'P 1'

loop_
_symmetry_equiv_pos_as_xyz
  x,y,z

loop_
_atom_site_label
_atom_site_type_symbol
_atom_site_fract_x
_atom_site_fract_y
_atom_site_fract_z
_atom_site_charge
C 	C 	0.94814 0.01165 0.99329 0.04100
C 	C 	0.91147 0.94457 0.98510 -0.08700
C 	C 	0.94057 0.91413 0.98066 0.04600
C 	C 	0.00638 0.95075 0.98425 -0.08600
C 	C 	0.04329 0.01783 0.99272 0.04300
C 	C 	0.01420 0.04834 0.99766 -0.06500
H 	H 	0.86046 0.91618 0.98213 0.05600
H 	H 	0.02884 0.92713 0.98054 0.05800
H 	H 	0.04266 0.10024 0.00413 0.03400
C 	C 	0.96554 0.02797 0.45838 0.05800
C 	C 	0.93585 0.96493 0.46666 -0.10200
C 	C 	0.96811 0.93742 0.46475 0.05400
C 	C 	0.02983 0.97301 0.45414 -0.10000
C 	C 	0.06021 0.03666 0.44775 0.05800
C 	C 	0.02778 0.06379 0.44917 -0.09800
H 	H 	0.88805 0.93753 0.47465 0.05500
H 	H 	0.05482 0.95187 0.45250 0.05700
H 	H 	0.05125 0.11299 0.44397 0.05700
Cu	Cu	0.61119 0.21369 0.00028 0.91900
Cu	Cu	0.65065 0.20449 0.88574 0.86700
Cu	Cu	0.64149 0.30750 0.92632 0.89900
Cu	Cu	0.62611 0.34132 0.03254 0.88900
C 	C 	0.64571 0.27429 0.10816 0.28900
O 	O 	0.52247 0.18555 0.00550 -0.37700
C 	C 	0.61981 0.26267 0.81378 0.28100
O 	O 	0.66770 0.31284 0.99906 -0.61800
O 	O 	0.59647 0.21380 0.92441 -0.63700
O 	O 	0.64219 0.16034 0.99654 -0.35900
O 	O 	0.70990 0.21840 0.94297 -0.43700
O 	O 	0.61759 0.30054 0.09514 -0.38400
O 	O 	0.69154 0.39925 0.92985 -0.38300
C 	C 	0.69819 0.44134 0.96764 0.32400
C 	C 	0.50030 0.21445 0.98522 0.30900
O 	O 	0.53987 0.27231 0.97560 -0.39300
O 	O 	0.66645 0.42368 0.00664 -0.41500
O 	O 	0.63971 0.22929 0.07442 -0.35800
C 	C 	0.69165 0.17768 0.97515 0.29300
O 	O 	0.61645 0.29805 0.85098 -0.36900
O 	O 	0.61321 0.21024 0.82186 -0.41200
H 	H 	0.71416 0.33909 0.01132 0.15000
H 	H 	0.55159 0.18713 0.90632 0.17500
Cu	Cu	0.74164 0.34776 0.44082 0.92400
Cu	Cu	0.73958 0.30229 0.55390 0.87600
Cu	Cu	0.63917 0.32657 0.50086 0.91100
Cu	Cu	0.64126 0.37115 0.39872 0.89500
C 	C 	0.70362 0.33658 0.33070 0.28700
O 	O 	0.79353 0.44444 0.44567 -0.35900
C 	C 	0.64455 0.29729 0.60115 0.29100
O 	O 	0.64529 0.31085 0.42922 -0.64000
O 	O 	0.72916 0.35635 0.51439 -0.63100
O 	O 	0.76698 0.28883 0.44215 -0.37100
O 	O 	0.81177 0.32024 0.52893 -0.42600
O 	O 	0.68882 0.37581 0.34249 -0.38200
O 	O 	0.55073 0.29147 0.48544 -0.37300
C 	C 	0.52360 0.29581 0.44256 0.29800
C 	C 	0.77255 0.47657 0.46287 0.29000
O 	O 	0.71193 0.44612 0.46403 -0.39300
O 	O 	0.55721 0.34179 0.41590 -0.39400
O 	O 	0.73718 0.32996 0.36652 -0.35000
C 	C 	0.80503 0.29276 0.48146 0.30100
O 	O 	0.63474 0.33159 0.57447 -0.37200
O 	O 	0.66000 0.26264 0.57822 -0.42700
H 	H 	0.61367 0.26572 0.41100 0.16400
H 	H 	0.75803 0.40118 0.53377 0.16000
C 	C 	0.62042 0.27610 0.75986 -0.06700
C 	C 	0.67271 0.33437 0.74952 -0.00500
C 	C 	0.67867 0.34287 0.69722 -0.00200
C 	C 	0.63275 0.29301 0.65533 -0.07700
C 	C 	0.57766 0.23729 0.66569 0.00400
C 	C 	0.57120 0.22906 0.71801 -0.00100
C 	C 	0.72121 0.38479 0.79261 0.07300
C 	C 	0.52762 0.18868 0.62253 0.08300
C 	C 	0.51355 0.17299 0.72885 0.08600
C 	C 	0.73272 0.40238 0.68642 0.06200
N 	N 	0.46754 0.12826 0.73751 -0.11800
N 	N 	0.77580 0.44982 0.67775 -0.12700
N 	N 	0.48772 0.14995 0.58806 -0.11500
N 	N 	0.75991 0.42504 0.82696 -0.11600
C 	C 	0.69777 0.31415 0.27482 -0.06500
C 	C 	0.64439 0.25253 0.24934 -0.00400
C 	C 	0.62989 0.23687 0.19399 0.00400
C 	C 	0.66910 0.28286 0.16435 -0.06600
C 	C 	0.72661 0.34130 0.19000 -0.00300
C 	C 	0.74095 0.35703 0.24533 0.00300
C 	C 	0.60340 0.20609 0.28005 0.07100
C 	C 	0.77024 0.38570 0.15938 0.06600
C 	C 	0.79928 0.41781 0.27193 0.08700
C 	C 	0.57354 0.17446 0.16755 0.08900
N 	N 	0.84579 0.46630 0.29320 -0.11600
N 	N 	0.52858 0.12467 0.14643 -0.11300
N 	N 	0.80500 0.42109 0.13489 -0.12900
N 	N 	0.57070 0.16908 0.30459 -0.12500
C 	C 	0.93733 0.87115 0.47382 -0.03900
C 	C 	0.96298 0.85861 0.51679 0.08600
C 	C 	0.94078 0.79533 0.51845 -0.08100
C 	C 	0.89089 0.74422 0.47981 -0.01300
C 	C 	0.86091 0.75625 0.43985 0.07400
C 	C 	0.88557 0.81983 0.43649 -0.06700
N 	N 	0.00799 0.90684 0.55688 -0.19700
H 	H 	0.96222 0.78580 0.55002 0.05100
C 	C 	0.87097 0.67842 0.48124 0.00400
N 	N 	0.80857 0.70716 0.40484 -0.19500
H 	H 	0.86494 0.82943 0.40432 0.04500
C 	C 	0.83596 0.64593 0.51905 -0.10000
C 	C 	0.81015 0.58118 0.51773 0.12500
C 	C 	0.81558 0.54735 0.47555 -0.11100
C 	C 	0.85523 0.58121 0.44051 -0.02600
C 	C 	0.88423 0.64697 0.44369 0.05900
H 	H 	0.82854 0.67099 0.54943 0.05600
N 	N 	0.78175 0.55226 0.55758 -0.20200
H 	H 	0.86155 0.55589 0.40941 0.05300
N 	N 	0.92414 0.67937 0.41048 -0.19200
H 	H 	0.77528 0.57656 0.58733 0.08700
H 	H 	0.76923 0.50696 0.56103 0.08700
H 	H 	0.93186 0.65528 0.38167 0.08600
H 	H 	0.94950 0.72897 0.41405 0.08700
H 	H 	0.78809 0.71657 0.37445 0.08000
H 	H 	0.78642 0.65943 0.40840 0.08700
H 	H 	0.02090 0.95322 0.55946 0.08400
H 	H 	0.02855 0.89759 0.58733 0.08200
C 	C 	0.93222 0.05746 0.46074 -0.04000
C 	C 	0.90407 0.06224 0.41420 0.08700
C 	C 	0.88297 0.10049 0.41734 -0.08100
C 	C 	0.88859 0.13303 0.46604 -0.01300
C 	C 	0.91372 0.12556 0.51282 0.07300
C 	C 	0.93534 0.08777 0.50960 -0.06600
N 	N 	0.89700 0.03014 0.36656 -0.19600
H 	H 	0.86236 0.10518 0.38172 0.05300
C 	C 	0.86724 0.17420 0.46757 0.00500
N 	N 	0.91784 0.15497 0.56073 -0.19500
H 	H 	0.95638 0.08345 0.54519 0.04600
C 	C 	0.80374 0.14658 0.47009 -0.09800
C 	C 	0.78231 0.18445 0.47444 0.12100
C 	C 	0.82522 0.25117 0.47506 -0.11500
C 	C 	0.88845 0.27862 0.47148 -0.01900
C 	C 	0.91001 0.24075 0.46760 0.05600
H 	H 	0.77113 0.09556 0.46975 0.05600
N 	N 	0.72088 0.15666 0.47880 -0.20200
H 	H 	0.92113 0.32968 0.47199 0.04000
N 	N 	0.97164 0.26854 0.46414 -0.19200
H 	H 	0.68958 0.10733 0.47784 0.08100
H 	H 	0.70367 0.18351 0.48380 0.06000
H 	H 	0.00293 0.31777 0.46465 0.08300
H 	H 	0.98907 0.24175 0.46056 0.08600
H 	H 	0.93693 0.14952 0.59496 0.08000
H 	H 	0.90195 0.18313 0.56463 0.08600
H 	H 	0.90903 0.99862 0.36314 0.08200
H 	H 	0.87765 0.03524 0.33227 0.08100
C 	C 	0.12739 0.07622 0.44260 -0.04000
C 	C 	0.17650 0.10963 0.48754 0.08900
C 	C 	0.23989 0.14667 0.48108 -0.08000
C 	C 	0.25499 0.15114 0.43078 -0.01200
C 	C 	0.20592 0.11847 0.38584 0.07300
C 	C 	0.14246 0.08102 0.39227 -0.06500
N 	N 	0.16317 0.10637 0.53687 -0.19800
H 	H 	0.27770 0.17188 0.51536 0.05600
C 	C 	0.32240 0.18795 0.42586 0.00600
N 	N 	0.21935 0.12326 0.33659 -0.19500
H 	H 	0.10465 0.05570 0.35800 0.04600
C 	C 	0.34989 0.15587 0.42152 -0.09800
C 	C 	0.41530 0.19013 0.42314 0.12800
C 	C 	0.45406 0.25794 0.43119 -0.11000
C 	C 	0.42612 0.28979 0.43271 -0.01900
C 	C 	0.36041 0.25534 0.42971 0.05600
H 	H 	0.32031 0.10407 0.41731 0.05900
N 	N 	0.44043 0.15771 0.41616 -0.20200
H 	H 	0.45576 0.34166 0.43767 0.04300
N 	N 	0.33422 0.28714 0.43066 -0.19100
H 	H 	0.41184 0.10780 0.41216 0.08800
H 	H 	0.48776 0.18128 0.41250 0.08100
H 	H 	0.36284 0.33705 0.43466 0.08200
H 	H 	0.28526 0.26269 0.42625 0.08600
H 	H 	0.18277 0.09841 0.30367 0.08000
H 	H 	0.26596 0.15220 0.33043 0.08600
H 	H 	0.11659 0.07977 0.54322 0.08600
H 	H 	0.19983 0.13099 0.56974 0.08400
C 	C 	0.90232 0.84376 0.97419 -0.01900
C 	C 	0.88524 0.80494 0.92455 0.08400
C 	C 	0.85263 0.73857 0.92073 -0.08300
C 	C 	0.83548 0.71035 0.96520 0.00400
C 	C 	0.85192 0.74911 0.01472 0.05900
C 	C 	0.88515 0.81553 0.01862 -0.08500
N 	N 	0.89930 0.83089 0.88047 -0.19700
H 	H 	0.83967 0.70862 0.88287 0.05400
C 	C 	0.79932 0.64002 0.95926 0.00400
N 	N 	0.83618 0.72297 0.05858 -0.19400
H 	H 	0.89835 0.84551 0.05654 0.04500
C 	C 	0.83249 0.61381 0.96483 -0.09600
C 	C 	0.80026 0.54845 0.96648 0.13300
C 	C 	0.73342 0.50864 0.96152 -0.11200
C 	C 	0.70005 0.53427 0.95318 -0.01500
C 	C 	0.73230 0.59961 0.95173 0.06000
H 	H 	0.88378 0.64485 0.96971 0.06000
N 	N 	0.83384 0.52471 0.97404 -0.20300
H 	H 	0.64876 0.50334 0.94842 0.04400
N 	N 	0.69878 0.62329 0.94353 -0.19100
H 	H 	0.88313 0.55456 0.97749 0.08900
H 	H 	0.81170 0.47680 0.97693 0.09000
H 	H 	0.64937 0.59327 0.93905 0.08500
H 	H 	0.72111 0.67125 0.94066 0.08900
H 	H 	0.84826 0.75201 0.09487 0.07900
H 	H 	0.81217 0.67387 0.05731 0.08200
H 	H 	0.92087 0.87956 0.88148 0.08400
H 	H 	0.88747 0.80197 0.84419 0.08200
C 	C 	0.72878 0.15408 0.98920 -0.08800
C 	C 	0.70243 0.08827 0.97539 0.11100
C 	C 	0.74156 0.06897 0.98402 -0.07200
C 	C 	0.80659 0.11421 0.00418 -0.01500
C 	C 	0.83244 0.17953 0.01981 0.06400
C 	C 	0.79310 0.19875 0.01233 -0.04800
N 	N 	0.64038 0.04379 0.95229 -0.19900
H 	H 	0.72185 0.01883 0.97281 0.05400
C 	C 	0.84794 0.09347 0.00375 -0.03500
N 	N 	0.89483 0.22395 0.04183 -0.19400
H 	H 	0.81295 0.24893 0.02352 0.04300
C 	C 	0.87053 0.09098 0.95774 -0.05200
C 	C 	0.90435 0.06540 0.95370 0.07200
C 	C 	0.91706 0.04339 0.99719 -0.00600
C 	C 	0.89646 0.04807 0.04388 -0.09800
C 	C 	0.86166 0.07261 0.04757 0.08500
H 	H 	0.86027 0.10747 0.92443 0.04600
N 	N 	0.92339 0.06110 0.90777 -0.19500
H 	H 	0.90664 0.03152 0.07719 0.05000
N 	N 	0.84168 0.07605 0.09315 -0.19800
H 	H 	0.91401 0.07782 0.87605 0.08100
H 	H 	0.94710 0.04076 0.90278 0.08500
H 	H 	0.85154 0.05996 0.12510 0.08100
H 	H 	0.81685 0.09525 0.09759 0.08800
H 	H 	0.91371 0.27226 0.05244 0.08000
H 	H 	0.92493 0.21099 0.04946 0.08400
H 	H 	0.61069 0.05666 0.94234 0.08200
H 	H 	0.62139 0.99532 0.94300 0.08000
C 	C 	0.11232 0.05596 0.99464 -0.01400
C 	C 	0.15296 0.06127 0.03781 0.06900
C 	C 	0.21618 0.08804 0.03441 -0.09400
C 	C 	0.24004 0.11194 0.98968 0.00000
C 	C 	0.20033 0.10989 0.94769 0.07700
C 	C 	0.13664 0.08153 0.95054 -0.07100
N 	N 	0.13180 0.04150 0.08273 -0.19600
H 	H 	0.24713 0.09091 0.06690 0.05300
C 	C 	0.30679 0.13919 0.98742 0.02200
N 	N 	0.22295 0.13493 0.90468 -0.19500
H 	H 	0.10552 0.07805 0.91781 0.04800
C 	C 	0.32049 0.09972 0.96283 -0.10000
C 	C 	0.38322 0.12404 0.95947 0.13100
C 	C 	0.43332 0.18820 0.98374 -0.09700
C 	C 	0.41946 0.22761 0.00825 -0.03500
C 	C 	0.35664 0.20397 0.00990 0.04000
H 	H 	0.28204 0.05029 0.94519 0.06000
N 	N 	0.39468 0.08636 0.93149 -0.20200
H 	H 	0.45784 0.27681 0.02658 0.03200
N 	N 	0.34454 0.24371 0.03295 -0.19000
H 	H 	0.35765 0.03838 0.91548 0.08700
H 	H 	0.43955 0.10486 0.92322 0.08600
H 	H 	0.38178 0.29132 0.04987 0.07700
H 	H 	0.29832 0.22820 0.03384 0.08100
H 	H 	0.19306 0.13258 0.87369 0.08300
H 	H 	0.27035 0.15756 0.90172 0.09000
H 	H 	0.08652 0.02576 0.08798 0.08100
H 	H 	0.16156 0.04379 0.11380 0.08100
