data_crystal

_cell_length_a 26.05168
_cell_length_b 26.31134
_cell_length_c 34.98347
_cell_angle_alpha 95.54149
_cell_angle_beta  95.54351
_cell_angle_gamma 125.67430

_symmetry_space_group_name_	'P 1'
_symmetry_space_group_name_H-M	'P 1'

loop_
_symmetry_equiv_pos_as_xyz
  x,y,z

loop_
_atom_site_label
_atom_site_type_symbol
_atom_site_fract_x
_atom_site_fract_y
_atom_site_fract_z
_atom_site_charge
C 	C 	0.97051 0.02446 0.99465 0.10900
N 	N 	0.03507 0.05720 0.99673 -0.13900
C 	C 	0.06131 0.02530 0.99396 0.10700
N 	N 	0.02299 0.96083 0.98904 -0.13800
C 	C 	0.95855 0.92794 0.98667 0.11000
N 	N 	0.93236 0.95982 0.98943 -0.13700
C 	C 	0.93441 0.00480 0.45615 0.10800
N 	N 	0.90168 0.94234 0.45933 -0.13600
C 	C 	0.93364 0.91614 0.46347 0.11000
N 	N 	0.99790 0.95224 0.46404 -0.13600
C 	C 	0.03076 0.01452 0.46129 0.10700
N 	N 	0.99898 0.04072 0.45739 -0.13600
Cu	Cu	0.64454 0.23908 0.00208 0.92800
Cu	Cu	0.68631 0.23695 0.91705 0.86900
Cu	Cu	0.66966 0.33409 0.94915 0.89800
Cu	Cu	0.64558 0.35683 0.02851 0.89400
C 	C 	0.66999 0.29011 0.08388 0.31200
O 	O 	0.55180 0.20138 0.00541 -0.35900
C 	C 	0.64858 0.28955 0.86375 0.30600
O 	O 	0.69432 0.33732 0.00329 -0.64200
O 	O 	0.62898 0.24135 0.94602 -0.64000
O 	O 	0.68449 0.19379 0.99812 -0.37000
O 	O 	0.75062 0.25741 0.95928 -0.43900
O 	O 	0.64002 0.31523 0.07447 -0.38500
O 	O 	0.71522 0.42525 0.95523 -0.37900
C 	C 	0.71368 0.46195 0.98300 0.28600
C 	C 	0.52421 0.22661 0.99189 0.27500
O 	O 	0.56003 0.28516 0.98557 -0.39000
O 	O 	0.67843 0.43844 0.01024 -0.39400
O 	O 	0.67317 0.25336 0.05720 -0.36000
C 	C 	0.73702 0.21786 0.98344 0.28000
O 	O 	0.65611 0.33172 0.89224 -0.37000
O 	O 	0.64227 0.23805 0.87077 -0.42200
H 	H 	0.74127 0.36600 0.01356 0.16400
H 	H 	0.58337 0.21320 0.93255 0.17500
Cu	Cu	0.73527 0.34393 0.45232 0.92700
Cu	Cu	0.73360 0.30321 0.53802 0.87100
Cu	Cu	0.63156 0.31037 0.50072 0.89800
Cu	Cu	0.61198 0.33383 0.42051 0.89400
C 	C 	0.68910 0.31796 0.36949 0.30800
O 	O 	0.76896 0.43531 0.44929 -0.35600
C 	C 	0.67352 0.33726 0.58723 0.31300
O 	O 	0.63472 0.28920 0.44742 -0.64000
O 	O 	0.72671 0.35677 0.50731 -0.64100
O 	O 	0.78278 0.30596 0.45900 -0.36600
O 	O 	0.71608 0.23989 0.49680 -0.43900
O 	O 	0.66005 0.34444 0.37709 -0.38800
O 	O 	0.53873 0.25972 0.49123 -0.38200
C 	C 	0.50189 0.26039 0.46279 0.28400
C 	C 	0.73789 0.45804 0.46019 0.27400
O 	O 	0.67801 0.41883 0.46456 -0.39100
O 	O 	0.52590 0.29473 0.43530 -0.39200
O 	O 	0.72703 0.31806 0.39754 -0.35300
C 	C 	0.75763 0.25377 0.47374 0.27700
O 	O 	0.62757 0.31851 0.55703 -0.38500
O 	O 	0.72748 0.34591 0.58242 -0.42000
H 	H 	0.60876 0.24292 0.43688 0.16600
H 	H 	0.75173 0.40175 0.52075 0.17700
C 	C 	0.61580 0.33676 0.77045 -0.11400
C 	C 	0.64702 0.32234 0.74604 0.00400
C 	C 	0.67720 0.29579 0.75998 0.11800
C 	C 	0.67725 0.28510 0.79836 -0.03700
C 	C 	0.64653 0.29989 0.82305 -0.12500
C 	C 	0.61489 0.32510 0.80876 0.19300
C 	C 	0.64738 0.33398 0.70561 0.00300
O 	O 	0.70809 0.28173 0.73638 -0.28100
H 	H 	0.70184 0.26588 0.80908 0.04300
O 	O 	0.58335 0.33855 0.83214 -0.28400
H 	H 	0.59190 0.35661 0.75968 0.07200
C 	C 	0.59613 0.28740 0.67527 0.11500
C 	C 	0.60307 0.29132 0.63623 -0.03600
C 	C 	0.66111 0.34148 0.62723 -0.12600
C 	C 	0.71018 0.39098 0.65756 0.19300
C 	C 	0.70291 0.38725 0.69658 -0.11200
O 	O 	0.54104 0.23568 0.68375 -0.28000
H 	H 	0.56465 0.25349 0.61307 0.05400
O 	O 	0.76486 0.44324 0.64912 -0.29300
H 	H 	0.74179 0.42424 0.71987 0.07500
H 	H 	0.53865 0.29891 0.82737 0.14600
H 	H 	0.51211 0.24841 0.68558 0.14400
H 	H 	0.79667 0.43383 0.65098 0.15000
H 	H 	0.67496 0.23705 0.72270 0.14500
C 	C 	0.75218 0.31931 0.27627 -0.11300
C 	C 	0.69576 0.28941 0.24819 0.00500
C 	C 	0.63643 0.26283 0.26028 0.12000
C 	C 	0.63422 0.26849 0.30017 -0.03600
C 	C 	0.69109 0.30201 0.32831 -0.12000
C 	C 	0.75028 0.32657 0.31621 0.19400
C 	C 	0.69959 0.29170 0.20644 0.00300
O 	O 	0.58062 0.23187 0.23312 -0.27500
H 	H 	0.58843 0.24877 0.30922 0.04600
O 	O 	0.80637 0.35869 0.34326 -0.28400
H 	H 	0.79791 0.33925 0.26710 0.07000
C 	C 	0.72324 0.34885 0.19287 0.11400
C 	C 	0.71688 0.34859 0.15266 -0.03500
C 	C 	0.68704 0.29161 0.12567 -0.12200
C 	C 	0.66708 0.23513 0.13934 0.19400
C 	C 	0.67347 0.23547 0.17962 -0.11100
O 	O 	0.74876 0.40416 0.21879 -0.27700
H 	H 	0.73317 0.39240 0.14242 0.04600
O 	O 	0.63727 0.17877 0.11348 -0.28400
H 	H 	0.65577 0.19145 0.18995 0.07800
H 	H 	0.82309 0.40406 0.34701 0.15200
H 	H 	0.79564 0.42499 0.22497 0.14100
H 	H 	0.67223 0.17549 0.10864 0.15300
H 	H 	0.57557 0.26528 0.22792 0.14900
C 	C 	0.93880 0.74999 0.51280 -0.05000
C 	C 	0.91313 0.68570 0.51064 -0.03600
C 	C 	0.85290 0.63789 0.48706 0.01200
C 	C 	0.81790 0.65493 0.46581 0.00100
C 	C 	0.84405 0.71971 0.46770 -0.02200
C 	C 	0.90481 0.76735 0.49114 0.03400
C 	C 	0.80991 0.73682 0.44557 0.03500
C 	C 	0.74915 0.68896 0.42253 -0.05000
C 	C 	0.72284 0.62460 0.42103 -0.03600
C 	C 	0.75710 0.60725 0.44239 0.01100
C 	C 	0.73139 0.54284 0.44052 -0.02100
C 	C 	0.76632 0.52579 0.46146 -0.06100
C 	C 	0.82716 0.57329 0.48447 -0.02200
C 	C 	0.93169 0.83176 0.49182 -0.05900
C 	C 	0.89941 0.84906 0.46821 0.00700
C 	C 	0.83777 0.80154 0.44593 -0.06000
H 	H 	0.98548 0.78629 0.53099 0.04200
H 	H 	0.94023 0.67316 0.52726 0.03900
H 	H 	0.72238 0.70152 0.40556 0.04300
H 	H 	0.67597 0.58828 0.40304 0.03800
H 	H 	0.68449 0.50599 0.42264 0.03300
H 	H 	0.85382 0.55994 0.50074 0.03800
H 	H 	0.97859 0.86846 0.50974 0.05100
H 	H 	0.81270 0.81479 0.42784 0.05200
C 	C 	0.74446 0.06343 0.49368 -0.03700
C 	C 	0.76898 0.02821 0.49117 -0.05400
C 	C 	0.82073 0.04733 0.47194 0.03500
C 	C 	0.84706 0.10153 0.45435 -0.02300
C 	C 	0.82263 0.13727 0.45713 -0.00100
C 	C 	0.77153 0.11842 0.47714 0.01000
C 	C 	0.85023 0.19258 0.44058 0.01300
C 	C 	0.90088 0.21074 0.42045 -0.03700
C 	C 	0.92488 0.17503 0.41750 -0.05000
C 	C 	0.89873 0.12084 0.43478 0.03400
C 	C 	0.92476 0.08677 0.43360 -0.06100
C 	C 	0.90059 0.03443 0.45266 0.00800
C 	C 	0.84757 0.01395 0.47100 -0.06400
C 	C 	0.74897 0.15541 0.48114 -0.02800
C 	C 	0.77789 0.21198 0.46596 -0.06500
C 	C 	0.82773 0.22973 0.44503 -0.02500
H 	H 	0.70486 0.04831 0.50891 0.03500
H 	H 	0.74806 0.98640 0.50452 0.04400
H 	H 	0.92213 0.25283 0.40736 0.04200
H 	H 	0.96436 0.19005 0.40218 0.04300
H 	H 	0.96462 0.10170 0.41861 0.05100
H 	H 	0.82867 0.97353 0.48558 0.05400
H 	H 	0.70971 0.14080 0.49663 0.03900
H 	H 	0.84963 0.27275 0.43283 0.05400
C 	C 	0.22718 0.18700 0.42057 -0.05000
C 	C 	0.29310 0.22099 0.42047 -0.03700
C 	C 	0.32984 0.20645 0.44202 0.01200
C 	C 	0.30015 0.15764 0.46404 -0.00100
C 	C 	0.23387 0.12363 0.46429 -0.02200
C 	C 	0.19718 0.13813 0.44230 0.03400
C 	C 	0.20420 0.07479 0.48629 0.03400
C 	C 	0.24099 0.06048 0.50801 -0.05000
C 	C 	0.30675 0.09408 0.50763 -0.03700
C 	C 	0.33663 0.14259 0.48565 0.01200
C 	C 	0.40244 0.17603 0.48494 -0.02400
C 	C 	0.43232 0.22489 0.46310 -0.06000
C 	C 	0.39582 0.24003 0.44174 -0.02500
C 	C 	0.13086 0.10310 0.44195 -0.06000
C 	C 	0.10105 0.05380 0.46344 0.00600
C 	C 	0.13806 0.04043 0.48600 -0.06000
H 	H 	0.19946 0.19861 0.40366 0.04200
H 	H 	0.31550 0.25850 0.40351 0.03800
H 	H 	0.21863 0.02309 0.52505 0.04100
H 	H 	0.33441 0.08228 0.52442 0.03800
H 	H 	0.43027 0.16387 0.50116 0.04600
H 	H 	0.41879 0.27805 0.42516 0.04500
H 	H 	0.10231 0.11331 0.42445 0.05000
H 	H 	0.11527 0.00313 0.50313 0.05000
C 	C 	0.74208 0.66426 0.01853 -0.03700
C 	C 	0.77593 0.72953 0.01865 -0.05400
C 	C 	0.82850 0.76082 0.99947 0.04000
C 	C 	0.84655 0.72600 0.97952 -0.02400
C 	C 	0.81268 0.66037 0.97956 0.00100
C 	C 	0.76047 0.62949 0.99931 0.01200
C 	C 	0.83158 0.62584 0.96029 0.01100
C 	C 	0.88348 0.65691 0.94056 -0.03500
C 	C 	0.91698 0.72205 0.94041 -0.05100
C 	C 	0.89916 0.75700 0.96010 0.03600
C 	C 	0.93405 0.82273 0.96123 -0.06200
C 	C 	0.91752 0.85795 0.98219 0.01000
C 	C 	0.86404 0.82669 0.00069 -0.06600
C 	C 	0.72770 0.56441 0.99993 -0.02200
C 	C 	0.74711 0.53005 0.98129 -0.06000
C 	C 	0.79885 0.56089 0.96134 -0.02200
H 	H 	0.70183 0.64088 0.03364 0.03800
H 	H 	0.76148 0.75579 0.03390 0.04300
H 	H 	0.89815 0.63072 0.92550 0.03900
H 	H 	0.95717 0.74541 0.92525 0.04400
H 	H 	0.97453 0.84667 0.94629 0.05300
H 	H 	0.85126 0.85384 0.01686 0.05200
H 	H 	0.68721 0.54054 0.01485 0.04400
H 	H 	0.81408 0.53458 0.94710 0.04500
C 	C 	0.95855 0.19735 0.96512 -0.04800
C 	C 	0.92601 0.22487 0.96392 -0.03900
C 	C 	0.86986 0.19869 0.97972 0.01000
C 	C 	0.84720 0.14545 0.99776 -0.00000
C 	C 	0.88006 0.11784 0.99908 -0.02100
C 	C 	0.93546 0.14341 0.98224 0.03200
C 	C 	0.85664 0.06379 0.01641 0.03300
C 	C 	0.80144 0.03861 0.03310 -0.05300
C 	C 	0.76873 0.06594 0.03172 -0.03700
C 	C 	0.79084 0.11885 0.01367 0.00900
C 	C 	0.75634 0.14438 0.01043 -0.02700
C 	C 	0.77739 0.19590 0.99102 -0.06600
C 	C 	0.83524 0.22408 0.97677 -0.02800
C 	C 	0.96617 0.11383 0.98190 -0.05800
C 	C 	0.94176 0.05882 0.99813 0.00800
C 	C 	0.88784 0.03477 0.01610 -0.06400
H 	H 	0.00135 0.21766 0.95238 0.04000
H 	H 	0.94408 0.26608 0.95024 0.03600
H 	H 	0.78336 0.99738 0.04676 0.04400
H 	H 	0.72577 0.04546 0.04432 0.03900
H 	H 	0.71243 0.12322 0.02209 0.04900
H 	H 	0.85253 0.26482 0.96269 0.03900
H 	H 	0.00781 0.13246 0.96810 0.04900
H 	H 	0.86983 0.99311 0.02936 0.05200
C 	C 	0.32428 0.07576 0.03838 -0.03800
C 	C 	0.26035 0.05021 0.04038 -0.04900
C 	C 	0.22824 0.06919 0.01850 0.03200
C 	C 	0.26075 0.11446 0.99459 -0.02000
C 	C 	0.32509 0.14007 0.99250 -0.00100
C 	C 	0.35696 0.12068 0.01452 0.01300
C 	C 	0.35758 0.18517 0.96849 0.01300
C 	C 	0.32546 0.20422 0.94665 -0.03800
C 	C 	0.26147 0.17869 0.94867 -0.05000
C 	C 	0.22875 0.13371 0.97250 0.03300
C 	C 	0.16408 0.10675 0.97392 -0.06000
C 	C 	0.13117 0.06026 0.99685 0.00800
C 	C 	0.16371 0.04258 0.01968 -0.06200
C 	C 	0.42137 0.14712 0.01290 -0.02800
C 	C 	0.45443 0.19329 0.98975 -0.05800
C 	C 	0.42201 0.21129 0.96701 -0.02900
H 	H 	0.34839 0.06062 0.05545 0.04200
H 	H 	0.23576 0.01547 0.05885 0.04300
H 	H 	0.35002 0.23889 0.92813 0.03900
H 	H 	0.23734 0.19379 0.93158 0.04200
H 	H 	0.13881 0.12025 0.95629 0.05000
H 	H 	0.13833 0.00720 0.03771 0.05100
H 	H 	0.44626 0.13318 0.03047 0.05400
H 	H 	0.44718 0.24617 0.94867 0.04400
