data_crystal

_cell_length_a 19.81342
_cell_length_b 21.24819
_cell_length_c 49.30254
_cell_angle_alpha 60.61703
_cell_angle_beta  119.10467
_cell_angle_gamma 133.36491

_symmetry_space_group_name_	'P 1'
_symmetry_space_group_name_H-M	'P 1'

loop_
_symmetry_equiv_pos_as_xyz
  x,y,z

loop_
_atom_site_label
_atom_site_type_symbol
_atom_site_fract_x
_atom_site_fract_y
_atom_site_fract_z
_atom_site_charge
C 	C 	0.73702 0.31568 0.00070 0.03400
C 	C 	0.64759 0.24276 0.00828 -0.06600
C 	C 	0.58884 0.25786 0.00809 0.04000
C 	C 	0.62040 0.34470 0.00169 -0.06900
C 	C 	0.71597 0.41492 0.00194 0.03800
C 	C 	0.77282 0.40291 0.99841 -0.06000
H 	H 	0.62259 0.17496 0.01311 0.06000
H 	H 	0.57436 0.35592 0.00153 0.06300
H 	H 	0.84218 0.46024 0.99339 0.06600
C 	C 	0.73713 0.30537 0.51223 0.04100
C 	C 	0.81637 0.39191 0.51663 -0.06500
C 	C 	0.80159 0.45291 0.51179 0.04300
C 	C 	0.70900 0.42596 0.50475 -0.06900
C 	C 	0.63173 0.33770 0.50432 0.04200
C 	C 	0.64436 0.28013 0.50466 -0.06700
H 	H 	0.88837 0.41110 0.52407 0.06500
H 	H 	0.69815 0.47152 0.50303 0.06400
H 	H 	0.58272 0.21329 0.50179 0.06200
C 	C 	0.22047 0.59371 0.13268 0.04000
C 	C 	0.18537 0.50733 0.13399 -0.06500
C 	C 	0.24404 0.49722 0.13040 0.04000
C 	C 	0.33960 0.56852 0.13089 -0.06800
C 	C 	0.37056 0.65438 0.12583 0.04200
C 	C 	0.31023 0.66761 0.12559 -0.06700
H 	H 	0.11547 0.44933 0.13839 0.06300
H 	H 	0.38693 0.55901 0.13092 0.06300
H 	H 	0.33477 0.73483 0.12149 0.06300
C 	C 	0.29931 0.64545 0.63820 0.04200
C 	C 	0.39393 0.67228 0.65233 -0.06800
C 	C 	0.42337 0.63119 0.65010 0.04200
C 	C 	0.35468 0.55174 0.64022 -0.06800
C 	C 	0.26022 0.52345 0.62626 0.04100
C 	C 	0.23208 0.57049 0.62507 -0.06600
H 	H 	0.44684 0.73200 0.66126 0.06500
H 	H 	0.37675 0.51718 0.64011 0.06300
H 	H 	0.15977 0.55096 0.61310 0.06400
Co	Co	0.01000 0.08636 0.05432 1.18200
Co	Co	0.06307 0.99740 0.03541 1.18700
C 	C 	0.86564 0.69024 0.04698 0.30700
Co	Co	0.06592 0.83810 0.04300 1.16700
C 	C 	0.23918 0.02698 0.04266 0.30800
O 	O 	0.98933 0.06727 0.13648 -0.39400
C 	C 	0.97176 0.98947 0.15502 0.32300
O 	O 	0.08395 0.11189 0.02841 -0.45800
C 	C 	0.10513 0.22210 0.08770 0.30800
C 	C 	0.73274 0.88592 0.09826 0.31400
C 	C 	0.09884 0.77640 0.11310 0.29300
O 	O 	0.97287 0.94033 0.14610 -0.37300
O 	O 	0.14335 0.82969 0.08980 -0.38300
O 	O 	0.04928 0.79022 0.11765 -0.37600
O 	O 	0.02054 0.20484 0.07654 -0.41100
O 	O 	0.11939 0.17566 0.08336 -0.38700
O 	O 	0.79067 0.95710 0.10923 -0.39700
O 	O 	0.76458 0.86321 0.08914 -0.37900
O 	O 	0.02131 0.88902 0.05271 -0.76300
O 	O 	0.95086 0.70964 0.05628 -0.39800
O 	O 	0.84784 0.72309 0.05745 -0.37000
O 	O 	0.18436 0.96220 0.02849 -0.39900
O 	O 	0.20231 0.03875 0.05441 -0.39700
Co	Co	0.98055 0.07182 0.55766 1.18700
Co	Co	0.07922 0.05290 0.52710 1.18500
C 	C 	0.96128 0.77591 0.52789 0.30500
Co	Co	0.14451 0.95341 0.52335 1.17600
C 	C 	0.28562 0.13445 0.53448 0.30000
O 	O 	0.00944 0.04249 0.64755 -0.39200
C 	C 	0.02539 0.98176 0.66619 0.31700
O 	O 	0.04610 0.12980 0.52256 -0.45300
C 	C 	0.03830 0.19986 0.58782 0.29900
C 	C 	0.77305 0.81387 0.62668 0.31100
C 	C 	0.18651 0.86481 0.59202 0.31000
O 	O 	0.03331 0.94315 0.65424 -0.38100
O 	O 	0.15464 0.85751 0.56280 -0.40700
O 	O 	0.15643 0.88998 0.60079 -0.38100
O 	O 	0.94838 0.14572 0.58798 -0.39900
O 	O 	0.07300 0.17797 0.57951 -0.38500
O 	O 	0.82042 0.88124 0.63847 -0.39500
O 	O 	0.81083 0.81441 0.61077 -0.37700
O 	O 	0.07664 0.96085 0.54220 -0.75900
O 	O 	0.00907 0.85082 0.50724 -0.39300
O 	O 	0.94359 0.77517 0.55111 -0.36200
O 	O 	0.27082 0.05714 0.54302 -0.38400
O 	O 	0.22766 0.14035 0.53787 -0.38500
C 	C 	0.06225 0.97244 0.84198 0.00400
C 	C 	0.13563 0.98761 0.87011 -0.03900
C 	C 	0.12866 0.99203 0.89603 -0.01300
C 	C 	0.06744 0.96360 0.81501 0.01000
C 	C 	0.06893 0.95388 0.76028 -0.00800
C 	C 	0.14651 0.02777 0.77357 -0.02700
C 	C 	0.14565 0.03282 0.80072 -0.04300
C 	C 	0.05627 0.96069 0.72762 0.05800
C 	C 	0.04563 0.96633 0.70034 -0.09200
H 	H 	0.91364 0.95982 0.86403 0.05400
H 	H 	0.92698 0.95456 0.81797 0.05300
H 	H 	0.19704 0.99407 0.87218 0.05500
H 	H 	0.18448 0.00125 0.91791 0.04300
H 	H 	0.93299 0.83235 0.81409 0.05200
H 	H 	0.20509 0.08349 0.76190 0.05100
H 	H 	0.20419 0.09181 0.80996 0.05200
C 	C 	0.97428 0.95618 0.24449 0.02300
C 	C 	0.04556 0.03261 0.25660 -0.04500
C 	C 	0.04020 0.03617 0.28309 -0.05300
C 	C 	0.95158 0.03371 0.32239 -0.04300
C 	C 	0.95681 0.04448 0.34944 -0.04200
C 	C 	0.96917 0.92130 0.38273 -0.02900
C 	C 	0.96348 0.91020 0.35574 -0.03300
C 	C 	0.97038 0.95987 0.21362 0.05600
C 	C 	0.97166 0.96825 0.18769 -0.07900
H 	H 	0.10364 0.09041 0.24491 0.05600
H 	H 	0.09529 0.09590 0.29201 0.05200
H 	H 	0.83432 0.82861 0.29751 0.05400
H 	H 	0.84296 0.82313 0.25036 0.05700
H 	H 	0.94569 0.07801 0.29917 0.05200
H 	H 	0.95618 0.09772 0.34688 0.05600
H 	H 	0.97900 0.87931 0.40612 0.05700
H 	H 	0.96759 0.85899 0.35853 0.05400
C 	C 	0.19120 0.44386 0.61288 0.01100
C 	C 	0.20306 0.44716 0.58603 -0.03700
C 	C 	0.15833 0.36722 0.57895 0.02000
C 	C 	0.10017 0.28352 0.59844 -0.07700
C 	C 	0.08521 0.28118 0.62453 0.02400
C 	C 	0.12869 0.36110 0.63101 -0.03700
C 	C 	0.26196 0.53300 0.56585 0.09700
C 	C 	0.02256 0.19675 0.64421 0.06900
C 	C 	0.11052 0.35801 0.65699 0.10000
C 	C 	0.16958 0.37141 0.55104 0.08700
N 	N 	0.09608 0.35568 0.67768 -0.10500
N 	N 	0.17855 0.37482 0.52874 -0.09800
N 	N 	0.30910 0.60160 0.54983 -0.10200
C 	C 	0.67353 0.74253 0.62864 -0.08100
C 	C 	0.65386 0.68002 0.65832 0.02300
C 	C 	0.57605 0.64831 0.66774 -0.03600
C 	C 	0.52232 0.68339 0.64807 0.01000
C 	C 	0.54983 0.75100 0.62016 -0.03200
C 	C 	0.60762 0.76166 0.60765 0.01800
C 	C 	0.71491 0.65095 0.67932 0.08600
C 	C 	0.54774 0.82498 0.61180 0.09900
C 	C 	0.60004 0.79241 0.57359 0.09800
C 	C 	0.55298 0.58222 0.69765 0.09700
N 	N 	0.59391 0.81633 0.54629 -0.09300
N 	N 	0.53448 0.52939 0.72154 -0.10700
N 	N 	0.54775 0.88498 0.60569 -0.10700
N 	N 	0.76375 0.62777 0.69609 -0.09800
C 	C 	0.27819 0.70873 0.62998 0.01000
C 	C 	0.23215 0.69663 0.64866 -0.03300
C 	C 	0.21681 0.76057 0.64083 0.02100
C 	C 	0.24952 0.83643 0.61499 -0.07500
C 	C 	0.31516 0.85668 0.60281 0.01900
C 	C 	0.31393 0.78714 0.60542 -0.03200
C 	C 	0.19798 0.61794 0.67483 0.10200
C 	C 	0.37094 0.94483 0.58299 0.09600
C 	C 	0.33038 0.78843 0.57952 0.09900
C 	C 	0.16887 0.74888 0.65935 0.09400
N 	N 	0.34255 0.78880 0.55873 -0.10200
N 	N 	0.13053 0.73955 0.67415 -0.09900
N 	N 	0.41523 0.01523 0.56708 -0.11100
N 	N 	0.17064 0.55500 0.69572 -0.10300
C 	C 	0.20397 0.42041 0.11972 0.01100
C 	C 	0.21396 0.43846 0.08959 -0.03600
C 	C 	0.21867 0.38217 0.08443 0.02300
C 	C 	0.18293 0.29568 0.10386 -0.07900
C 	C 	0.18425 0.28064 0.13523 0.01500
C 	C 	0.18939 0.34056 0.14275 -0.03700
C 	C 	0.22144 0.51556 0.06441 0.10300
C 	C 	0.19168 0.21045 0.16028 0.08900
C 	C 	0.18171 0.32099 0.17411 0.09200
C 	C 	0.26767 0.41540 0.06130 0.09300
N 	N 	0.17553 0.30532 0.19917 -0.11400
N 	N 	0.30722 0.44204 0.04287 -0.09700
N 	N 	0.19828 0.15467 0.18042 -0.10500
N 	N 	0.22733 0.57706 0.04423 -0.10400
C 	C 	0.46600 0.73036 0.11969 0.01200
C 	C 	0.54605 0.73798 0.14417 -0.03800
C 	C 	0.62846 0.77601 0.13631 0.02600
C 	C 	0.63717 0.82015 0.10432 -0.08200
C 	C 	0.56008 0.81997 0.08000 0.02400
C 	C 	0.47511 0.77660 0.08779 -0.03600
C 	C 	0.54180 0.70334 0.17744 0.10000
C 	C 	0.56872 0.86516 0.04705 0.08600
C 	C 	0.39699 0.77931 0.06309 0.10100
C 	C 	0.70447 0.76958 0.16103 0.08000
N 	N 	0.33470 0.78162 0.04340 -0.10900
N 	N 	0.76494 0.76425 0.18076 -0.10500
N 	N 	0.57566 0.90124 0.02078 -0.09500
N 	N 	0.53836 0.67567 0.20398 -0.10500
C 	C 	0.10705 0.70175 0.13473 -0.07000
C 	C 	0.19589 0.72069 0.15531 0.01900
C 	C 	0.22342 0.66826 0.16079 -0.03400
C 	C 	0.16942 0.60788 0.14150 0.00700
C 	C 	0.07440 0.58039 0.12512 -0.02500
C 	C 	0.04095 0.62032 0.12599 -0.00500
C 	C 	0.25899 0.79432 0.17016 0.09400
C 	C 	0.01225 0.51401 0.10698 0.07500
C 	C 	0.94229 0.56886 0.12575 0.10800
C 	C 	0.30638 0.67640 0.18577 0.09800
N 	N 	0.37266 0.68289 0.20572 -0.10300
N 	N 	0.96208 0.46076 0.09247 -0.09500
N 	N 	0.30943 0.85319 0.18204 -0.09600
C 	C 	0.75073 0.23844 0.51801 0.01000
C 	C 	0.69814 0.15119 0.53704 -0.03100
C 	C 	0.69254 0.08343 0.53578 0.00100
C 	C 	0.76562 0.10598 0.52704 -0.06600
C 	C 	0.82240 0.19424 0.50872 0.01800
C 	C 	0.80868 0.25807 0.50208 -0.03300
C 	C 	0.66053 0.13368 0.56068 0.09400
C 	C 	0.84997 0.34112 0.47793 0.09800
C 	C 	0.60318 0.99558 0.53590 0.11100
N 	N 	0.53087 0.92571 0.53543 -0.09700
N 	N 	0.94775 0.23920 0.48567 -0.09700
N 	N 	0.63094 0.11963 0.57976 -0.10200
C 	C 	0.88201 0.54374 0.51622 0.01200
C 	C 	0.88873 0.61504 0.48981 -0.03700
C 	C 	0.89710 0.68199 0.49333 0.01900
C 	C 	0.92529 0.69124 0.52436 -0.07700
C 	C 	0.93810 0.62849 0.55146 0.02000
C 	C 	0.91987 0.55663 0.54713 -0.03500
C 	C 	0.87435 0.61289 0.45844 0.09900
C 	C 	0.96434 0.63454 0.58355 0.09100
C 	C 	0.93444 0.49298 0.57451 0.09900
C 	C 	0.86688 0.73460 0.46553 0.09000
N 	N 	0.94608 0.44212 0.59635 -0.10500
N 	N 	0.84244 0.77637 0.44339 -0.10300
N 	N 	0.98455 0.63869 0.60922 -0.10100
N 	N 	0.86283 0.61110 0.43339 -0.10600
C 	C 	0.54624 0.30073 0.51235 0.01100
C 	C 	0.54519 0.27325 0.54477 -0.03300
C 	C 	0.46103 0.23142 0.55256 0.02700
C 	C 	0.37836 0.21578 0.52807 -0.07800
C 	C 	0.38590 0.25996 0.49604 0.01800
C 	C 	0.46883 0.29954 0.48792 -0.03600
C 	C 	0.63054 0.28820 0.56989 0.10400
C 	C 	0.30753 0.26247 0.47154 0.08500
C 	C 	0.47413 0.33772 0.45467 0.09600
C 	C 	0.45750 0.19982 0.58574 0.09300
N 	N 	0.47844 0.36822 0.42814 -0.10700
N 	N 	0.45461 0.17450 0.61223 -0.10200
N 	N 	0.24505 0.26468 0.45196 -0.10300
N 	N 	0.69870 0.30029 0.58990 -0.10200
C 	C 	0.85552 0.21043 0.99978 -0.07500
C 	C 	0.76469 0.18733 0.98005 0.02200
C 	C 	0.73419 0.23734 0.97443 -0.03800
C 	C 	0.78790 0.29964 0.99286 0.01700
C 	C 	0.88411 0.33033 0.00869 -0.04100
C 	C 	0.91977 0.29261 0.00781 0.02800
C 	C 	0.70329 0.11283 0.96580 0.09100
C 	C 	0.94468 0.39622 0.02695 0.09900
C 	C 	0.64906 0.22548 0.94996 0.10000
N 	N 	0.09780 0.38951 0.00739 -0.09900
N 	N 	0.58104 0.21602 0.93043 -0.10700
N 	N 	0.65423 0.05331 0.95438 -0.09900
C 	C 	0.75867 0.49135 0.01323 0.01200
C 	C 	0.77701 0.57280 0.99074 -0.03400
C 	C 	0.78660 0.63425 0.99894 0.01700
C 	C 	0.78746 0.61812 0.03037 -0.07800
C 	C 	0.74812 0.53088 0.04918 0.02500
C 	C 	0.74903 0.47301 0.04346 -0.03500
C 	C 	0.78407 0.59243 0.95926 0.09700
C 	C 	0.69635 0.49799 0.07131 0.09600
C 	C 	0.73843 0.39425 0.06822 0.10500
C 	C 	0.78513 0.70816 0.97452 0.09100
N 	N 	0.73010 0.33148 0.08809 -0.10400
N 	N 	0.65456 0.47160 0.08893 -0.09600
N 	N 	0.78972 0.60810 0.93411 -0.10700
C 	C 	0.49570 0.18336 0.01629 0.01000
C 	C 	0.49255 0.13898 0.04879 -0.03600
C 	C 	0.41250 0.09874 0.05895 0.02200
C 	C 	0.33417 0.09959 0.03642 -0.08300
C 	C 	0.34000 0.14717 0.00439 0.02200
C 	C 	0.41438 0.17804 0.99380 -0.03600
C 	C 	0.57090 0.13377 0.07155 0.09900
C 	C 	0.26754 0.16170 0.98221 0.07900
C 	C 	0.40946 0.20772 0.95982 0.09700
C 	C 	0.40938 0.05436 0.09237 0.08500
N 	N 	0.40557 0.23138 0.93271 -0.10700
N 	N 	0.40683 0.01889 0.11904 -0.09900
N 	N 	0.20994 0.17359 0.96447 -0.10200
N 	N 	0.63338 0.12945 0.08971 -0.11000
Co	Co	0.95769 0.82576 0.08083 1.19200
Co	Co	0.90702 0.91646 0.10012 1.19000
Co	Co	0.90521 0.07844 0.09117 1.17200
O 	O 	0.93800 0.02085 0.07956 -0.76000
O 	O 	0.89293 0.80390 0.10931 -0.44700
O 	O 	0.95695 0.94728 0.05972 -0.56700
C 	C 	0.01367 0.93595 0.97889 0.29900
O 	O 	0.98665 0.85547 0.99731 -0.37100
O 	O 	0.02645 0.99419 0.98780 -0.36100
C 	C 	0.86991 0.13958 0.02073 0.29600
O 	O 	0.82623 0.08276 0.04441 -0.38100
O 	O 	0.93632 0.14243 0.01825 -0.35600
Co	Co	0.03008 0.87947 0.57362 1.18600
Co	Co	0.95314 0.91037 0.60939 1.19000
Co	Co	0.88687 0.01295 0.61167 1.16800
O 	O 	0.94074 0.99493 0.59067 -0.74300
O 	O 	0.97628 0.82804 0.61140 -0.43900
O 	O 	0.98370 0.96383 0.56137 -0.57000
C 	C 	0.06319 0.04198 0.46560 0.32700
O 	O 	0.14147 0.04747 0.48145 -0.41200
O 	O 	0.01989 0.03995 0.47988 -0.37800
C 	C 	0.79511 0.04504 0.54310 0.27800
O 	O 	0.77547 0.98861 0.57120 -0.35900
O 	O 	0.85081 0.05555 0.53132 -0.36400
C 	C 	0.04812 0.98091 0.89417 -0.01700
C 	C 	0.97628 0.96878 0.86572 -0.00600
C 	C 	0.98336 0.96478 0.83970 -0.02400
C 	C 	0.99277 0.88710 0.80292 -0.02600
C 	C 	0.99356 0.88236 0.77568 -0.01100
C 	C 	0.03282 0.96836 0.92291 0.05600
C 	C 	0.02383 0.95815 0.94768 -0.08600
H 	H 	0.93322 0.82499 0.76566 0.05100
C 	C 	0.96338 0.96326 0.29776 0.03100
C 	C 	0.89355 0.88560 0.28626 -0.03700
C 	C 	0.89894 0.88217 0.25969 -0.02800
C 	C 	0.95720 0.96781 0.32556 0.02100
C 	C 	0.96793 0.98967 0.37984 0.02800
C 	C 	0.99521 0.01297 0.40848 0.04900
C 	C 	0.02001 0.02691 0.43394 -0.09900
N 	N 	0.97230 0.13029 0.66007 -0.11500
N 	N 	0.86363 0.52707 0.12630 -0.10400
C 	C 	0.89203 0.21901 0.49594 0.08700
N 	N 	0.88291 0.40737 0.45866 -0.10300
C 	C 	0.01882 0.34608 0.00796 0.07800
N 	N 	0.99368 0.44907 0.04155 -0.10400
N 	N 	0.78332 0.76694 0.95488 -0.09700
