data_crystal

_cell_length_a 21.55487
_cell_length_b 22.64072
_cell_length_c 43.51299
_cell_angle_alpha 60.65540
_cell_angle_beta  119.10254
_cell_angle_gamma 133.38520

_symmetry_space_group_name_	'P 1'
_symmetry_space_group_name_H-M	'P 1'

loop_
_symmetry_equiv_pos_as_xyz
  x,y,z

loop_
_atom_site_label
_atom_site_type_symbol
_atom_site_fract_x
_atom_site_fract_y
_atom_site_fract_z
_atom_site_charge
C 	C 	0.24991 0.56523 0.18200 0.13300
N 	N 	0.33770 0.60547 0.18869 -0.13500
C 	C 	0.36832 0.56373 0.19458 0.13500
N 	N 	0.31145 0.48094 0.19585 -0.13600
C 	C 	0.22380 0.44244 0.18570 0.13500
N 	N 	0.19257 0.48450 0.17892 -0.13300
C 	C 	0.32306 0.66775 0.67143 0.13000
N 	N 	0.26245 0.59067 0.66395 -0.13300
C 	C 	0.28918 0.54500 0.67018 0.13300
N 	N 	0.37511 0.57620 0.68394 -0.13600
C 	C 	0.43626 0.65618 0.68711 0.13300
N 	N 	0.41016 0.70149 0.68172 -0.13600
Co	Co	0.96293 0.02651 0.07414 1.18500
Co	Co	0.03281 0.97214 0.04688 1.18200
Co	Co	0.99067 0.82194 0.02876 1.16400
C 	C 	0.17445 0.96570 0.05584 0.30500
O 	O 	0.84330 0.92649 0.15901 -0.40200
C 	C 	0.92143 0.94205 0.17758 0.30500
O 	O 	0.05995 0.07133 0.05405 -0.45200
C 	C 	0.99226 0.11586 0.11754 0.28900
C 	C 	0.07548 0.77283 0.10738 0.31200
O 	O 	0.95968 0.92878 0.16764 -0.39700
O 	O 	0.02751 0.75173 0.07619 -0.39700
O 	O 	0.06866 0.81339 0.11827 -0.38600
O 	O 	0.90980 0.08855 0.10146 -0.39400
O 	O 	0.02850 0.09276 0.11260 -0.37100
O 	O 	0.97924 0.86804 0.05566 -0.76300
O 	O 	0.12074 0.92768 0.02901 -0.40100
O 	O 	0.15124 0.98884 0.06868 -0.40100
Co	Co	0.01591 0.11171 0.56373 1.18800
Co	Co	0.10409 0.07069 0.53924 1.19000
Co	Co	0.14785 0.95509 0.54412 1.17000
C 	C 	0.26883 0.13900 0.52833 0.33100
O 	O 	0.92239 0.02141 0.65675 -0.40800
C 	C 	0.00383 0.04456 0.67255 0.30700
O 	O 	0.09737 0.16078 0.53391 -0.45900
C 	C 	0.05492 0.21259 0.60489 0.32400
C 	C 	0.23142 0.93697 0.62154 0.31100
O 	O 	0.04127 0.03301 0.66125 -0.39100
O 	O 	0.24972 0.98445 0.58968 -0.39000
O 	O 	0.18297 0.93529 0.63310 -0.37600
O 	O 	0.96994 0.17708 0.59414 -0.41500
O 	O 	0.08956 0.19107 0.59768 -0.39500
O 	O 	0.09611 0.98129 0.56168 -0.76500
O 	O 	0.21827 0.07603 0.51389 -0.40600
O 	O 	0.23873 0.14330 0.54670 -0.39200
C 	C 	0.04611 0.06859 0.70711 -0.08600
C 	C 	0.07066 0.08229 0.77370 0.02500
C 	C 	0.07103 0.02117 0.77293 -0.04900
C 	C 	0.05929 0.01468 0.73976 0.03200
C 	C 	0.13190 0.08524 0.83929 -0.03600
C 	C 	0.12358 0.07594 0.87169 -0.03400
H 	H 	0.07594 0.97613 0.79771 0.04200
H 	H 	0.05434 0.96416 0.73928 0.02700
H 	H 	0.18888 0.09557 0.83917 0.04700
H 	H 	0.17359 0.07788 0.89641 0.04900
C 	C 	0.07047 0.07680 0.38365 -0.05900
C 	C 	0.07363 0.07590 0.41684 0.00600
C 	C 	0.00183 0.05676 0.30454 -0.00500
C 	C 	0.99763 0.05109 0.27283 -0.05200
C 	C 	0.00103 0.99012 0.27418 0.01600
C 	C 	0.98035 0.97434 0.24079 0.03000
C 	C 	0.95747 0.96013 0.21228 -0.09400
H 	H 	0.11863 0.13371 0.36838 0.05400
H 	H 	0.12509 0.13178 0.42709 0.04600
H 	H 	0.99662 0.10251 0.30298 0.03200
H 	H 	0.98879 0.09228 0.24706 0.05100
C 	C 	0.11072 0.28525 0.61894 -0.10300
C 	C 	0.14959 0.34465 0.63046 0.06200
C 	C 	0.19199 0.41341 0.64388 -0.00300
C 	C 	0.23161 0.47274 0.65560 -0.02000
C 	C 	0.52284 0.69869 0.68438 -0.02200
C 	C 	0.29623 0.71789 0.66468 -0.02000
C 	C 	0.27786 0.76352 0.65850 -0.00300
C 	C 	0.25954 0.82081 0.64953 0.06000
C 	C 	0.24587 0.87242 0.63911 -0.10100
C 	C 	0.16781 0.36751 0.17337 -0.02200
C 	C 	0.12803 0.30744 0.16222 0.00600
C 	C 	0.08493 0.23966 0.14808 0.05400
C 	C 	0.04611 0.18293 0.13486 -0.07600
C 	C 	0.45152 0.60989 0.18746 -0.02000
C 	C 	0.12286 0.73662 0.13205 -0.09600
C 	C 	0.15635 0.69979 0.14798 0.06000
C 	C 	0.19041 0.65292 0.16236 -0.00100
C 	C 	0.21743 0.61237 0.17216 -0.02000
C 	C 	0.35533 0.20291 0.52253 -0.10900
C 	C 	0.42335 0.24634 0.51409 0.06900
C 	C 	0.49788 0.28894 0.50212 -0.00400
C 	C 	0.56127 0.32464 0.49183 -0.02100
C 	C 	0.26497 0.00005 0.06464 -0.08500
C 	C 	0.34098 0.03078 0.07004 0.05900
C 	C 	0.43018 0.07101 0.07429 0.00400
C 	C 	0.50702 0.11088 0.07651 -0.02300
C 	C 	0.70981 0.22827 0.05124 0.13200
N 	N 	0.75877 0.29782 0.06298 -0.13700
C 	C 	0.72771 0.30150 0.08214 0.13400
N 	N 	0.65014 0.23385 0.09121 -0.13600
C 	C 	0.59878 0.16616 0.07788 0.13600
N 	N 	0.62890 0.16303 0.05804 -0.13700
C 	C 	0.76042 0.37843 0.48919 0.13100
N 	N 	0.81634 0.45709 0.49438 -0.13600
C 	C 	0.78291 0.49470 0.49045 0.13100
N 	N 	0.69537 0.45573 0.47918 -0.13700
C 	C 	0.64070 0.37293 0.48128 0.13400
N 	N 	0.67269 0.33437 0.48491 -0.13500
Co	Co	0.95802 0.81316 0.09690 1.18200
Co	Co	0.89459 0.86946 0.12640 1.18200
C 	C 	0.84066 0.67142 0.06114 0.32800
Co	Co	0.80628 0.96276 0.10244 1.16700
O 	O 	0.88235 0.94574 0.09633 -0.75700
O 	O 	0.93933 0.80127 0.14182 -0.46800
O 	O 	0.92924 0.90691 0.07544 -0.57200
C 	C 	0.70737 0.78025 0.12725 0.32600
C 	C 	0.99451 0.96471 0.97077 0.26400
O 	O 	0.70495 0.84022 0.10043 -0.38900
O 	O 	0.76806 0.77104 0.13509 -0.37900
O 	O 	0.94711 0.88290 0.98050 -0.38000
O 	O 	0.01301 0.00743 0.99020 -0.34500
C 	C 	0.82717 0.06242 0.02856 0.34100
O 	O 	0.77230 0.98928 0.04652 -0.39600
O 	O 	0.90187 0.08161 0.03026 -0.37900
O 	O 	0.86152 0.72308 0.03007 -0.38600
O 	O 	0.85176 0.69701 0.08601 -0.38500
Co	Co	0.06460 0.92394 0.60121 1.18600
Co	Co	0.97059 0.96419 0.62313 1.17200
C 	C 	0.00333 0.78806 0.57482 0.35700
Co	Co	0.87341 0.04856 0.60066 1.17100
O 	O 	0.94613 0.03205 0.59093 -0.75100
O 	O 	0.02114 0.89967 0.64119 -0.45900
O 	O 	0.00886 0.99890 0.57355 -0.57700
C 	C 	0.78580 0.86804 0.63008 0.32200
C 	C 	0.03406 0.99360 0.47675 0.26000
O 	O 	0.77691 0.92374 0.60259 -0.39500
O 	O 	0.84861 0.86262 0.63656 -0.38100
O 	O 	0.04017 0.93191 0.50092 -0.37900
O 	O 	0.05123 0.05216 0.48657 -0.35500
C 	C 	0.86911 0.13531 0.52410 0.32200
O 	O 	0.82032 0.06664 0.54573 -0.38100
O 	O 	0.93741 0.15035 0.52120 -0.37600
O 	O 	0.08520 0.83325 0.57458 -0.41500
O 	O 	0.97790 0.81032 0.58685 -0.39900
C 	C 	0.05277 0.13372 0.70831 0.01900
C 	C 	0.06554 0.14086 0.74141 -0.05900
C 	C 	0.06571 0.07917 0.80739 0.01700
C 	C 	0.04913 0.06060 0.87245 0.01900
C 	C 	0.98465 0.05772 0.84030 -0.04300
C 	C 	0.99280 0.06689 0.80793 -0.04500
C 	C 	0.03212 0.03426 0.90690 0.03400
C 	C 	0.01596 0.00657 0.93596 -0.05800
H 	H 	0.04200 0.17527 0.68336 0.03300
H 	H 	0.06700 0.18937 0.74172 0.05400
H 	H 	0.92665 0.04537 0.84062 0.05000
H 	H 	0.94129 0.06212 0.78351 0.04600
C 	C 	0.01480 0.00135 0.43796 -0.03900
C 	C 	0.94873 0.92943 0.42427 -0.01300
C 	C 	0.94508 0.93048 0.39099 -0.07900
C 	C 	0.00778 0.00335 0.37110 0.05000
C 	C 	0.00985 0.00166 0.33792 0.00500
C 	C 	0.01218 0.93701 0.30767 -0.03500
C 	C 	0.01696 0.94296 0.33945 -0.04100
H 	H 	0.90250 0.87167 0.44014 0.04300
H 	H 	0.89502 0.87399 0.38118 0.05200
H 	H 	0.01469 0.88960 0.30901 0.05000
H 	H 	0.02456 0.90095 0.36512 0.04600
C 	C 	0.72327 0.81088 0.65207 -0.11100
C 	C 	0.66472 0.77136 0.66644 0.06300
C 	C 	0.59072 0.73157 0.67828 -0.00700
C 	C 	0.64390 0.72583 0.14857 -0.11000
C 	C 	0.58714 0.68674 0.16384 0.06600
C 	C 	0.51642 0.64536 0.17825 -0.00500
C 	C 	0.85905 0.20129 0.51031 -0.10800
C 	C 	0.84368 0.25001 0.50239 0.06400
C 	C 	0.81937 0.30011 0.49622 -0.00500
C 	C 	0.79446 0.33798 0.49257 -0.02000
C 	C 	0.83290 0.55787 0.50913 -0.02000
C 	C 	0.86619 0.60731 0.52533 -0.01400
C 	C 	0.90330 0.66483 0.54406 0.07600
C 	C 	0.94203 0.71801 0.55919 -0.13400
C 	C 	0.82168 0.12775 0.02090 -0.12300
C 	C 	0.80596 0.16945 0.02079 0.07100
C 	C 	0.77765 0.20195 0.02714 -0.01000
C 	C 	0.74814 0.21831 0.03665 -0.02100
C 	C 	0.81818 0.59036 0.07002 -0.11800
C 	C 	0.80184 0.52389 0.07606 0.07200
C 	C 	0.78200 0.44717 0.08088 -0.00700
C 	C 	0.76082 0.38109 0.08274 -0.02000
