data_crystal

_cell_length_a 18.70784
_cell_length_b 18.82085
_cell_length_c 33.40582
_cell_angle_alpha 95.41505
_cell_angle_beta  95.41572
_cell_angle_gamma 126.40061

_symmetry_space_group_name_	'P 1'
_symmetry_space_group_name_H-M	'P 1'

loop_
_symmetry_equiv_pos_as_xyz
  x,y,z

loop_
_atom_site_label
_atom_site_type_symbol
_atom_site_fract_x
_atom_site_fract_y
_atom_site_fract_z
_atom_site_charge
C 	C 	0.89306 0.97231 0.95836 0.20100
C 	C 	0.98587 0.02589 0.95773 -0.08300
C 	C 	0.03154 0.98808 0.95784 0.18400
C 	C 	0.98449 0.89636 0.95798 -0.09200
C 	C 	0.89160 0.84182 0.95815 0.20400
C 	C 	0.84559 0.87984 0.95852 -0.10700
H 	H 	0.02287 0.09732 0.95814 0.11700
H 	H 	0.02036 0.86752 0.95837 0.11600
H 	H 	0.77395 0.83819 0.95932 0.13300
C 	C 	0.96651 0.06567 0.50367 0.24800
C 	C 	0.91329 0.97339 0.50420 -0.14400
C 	C 	0.95254 0.92917 0.50480 0.25000
C 	C 	0.04514 0.97707 0.50521 -0.15200
C 	C 	0.09914 0.06942 0.50517 0.24000
C 	C 	0.05980 0.11397 0.50426 -0.14400
H 	H 	0.84121 0.93582 0.50338 0.14000
H 	H 	0.07515 0.94237 0.50533 0.13600
H 	H 	0.10117 0.18527 0.50366 0.14300
Cu	Cu	0.74059 0.31473 0.95720 0.93300
Cu	Cu	0.73728 0.25752 0.04762 0.90400
Cu	Cu	0.59333 0.26390 0.00735 0.91800
Cu	Cu	0.57157 0.30497 0.92444 0.91800
C 	C 	0.68090 0.28588 0.87030 0.26800
O 	O 	0.79181 0.44477 0.95476 -0.32800
C 	C 	0.65298 0.30603 0.09764 0.26600
O 	O 	0.59959 0.23893 0.95134 -0.64000
O 	O 	0.72726 0.33119 0.01477 -0.62800
O 	O 	0.80313 0.25794 0.96380 -0.32700
O 	O 	0.70949 0.16711 0.00450 -0.38000
O 	O 	0.63879 0.32076 0.87872 -0.32100
O 	O 	0.46313 0.19232 0.99628 -0.35000
C 	C 	0.41456 0.19532 0.96605 0.39800
C 	C 	0.74957 0.47747 0.96622 0.38500
O 	O 	0.66590 0.42251 0.97142 -0.36600
O 	O 	0.45248 0.25286 0.94098 -0.34400
O 	O 	0.72972 0.28086 0.89957 -0.29900
C 	C 	0.76699 0.18527 0.98012 0.37400
O 	O 	0.58518 0.26764 0.06614 -0.32600
O 	O 	0.72891 0.31869 0.09362 -0.35400
H 	H 	0.56231 0.17418 0.93921 0.19700
H 	H 	0.76177 0.39450 0.02877 0.21000
Cu	Cu	0.63012 0.22450 0.50723 0.93600
Cu	Cu	0.68201 0.22657 0.41553 0.90200
Cu	Cu	0.68080 0.37196 0.45790 0.91200
Cu	Cu	0.64445 0.39432 0.54191 0.91900
C 	C 	0.66878 0.28711 0.59432 0.26600
O 	O 	0.50097 0.17563 0.51143 -0.32800
C 	C 	0.63209 0.31267 0.36766 0.26500
O 	O 	0.70815 0.36499 0.51344 -0.63600
O 	O 	0.61132 0.23858 0.45003 -0.63500
O 	O 	0.68334 0.15943 0.49859 -0.32900
O 	O 	0.77390 0.25139 0.45732 -0.39200
O 	O 	0.63184 0.32774 0.58726 -0.31800
O 	O 	0.75442 0.50145 0.46932 -0.34200
C 	C 	0.75157 0.55005 0.49945 0.39900
C 	C 	0.46850 0.21826 0.50061 0.38900
O 	O 	0.52391 0.30175 0.49584 -0.36200
O 	O 	0.69663 0.51301 0.52575 -0.34100
O 	O 	0.66655 0.23397 0.56447 -0.29900
C 	C 	0.75549 0.19413 0.48169 0.38800
O 	O 	0.67459 0.38039 0.39923 -0.33000
O 	O 	0.61953 0.23685 0.37061 -0.35600
H 	H 	0.77356 0.40119 0.52487 0.19800
H 	H 	0.54731 0.20525 0.43673 0.20700
C 	C 	0.71182 0.32938 0.70024 0.13900
C 	C 	0.75579 0.37499 0.74065 -0.06900
C 	C 	0.71401 0.32950 0.77200 0.03900
C 	C 	0.64110 0.24044 0.76430 0.13300
C 	C 	0.60344 0.19196 0.72393 -0.06300
C 	C 	0.63699 0.24113 0.69245 0.03200
O 	O 	0.74996 0.36002 0.66620 -0.16100
C 	C 	0.68894 0.28112 0.63680 0.08300
C 	C 	0.62443 0.20833 0.65298 -0.03800
O 	O 	0.62396 0.20075 0.79869 -0.15900
C 	C 	0.69368 0.27613 0.82807 0.08600
C 	C 	0.75078 0.35187 0.81166 -0.04700
H 	H 	0.81973 0.44177 0.74727 0.10900
H 	H 	0.55167 0.11982 0.71744 0.10600
H 	H 	0.56129 0.14830 0.63549 0.10300
H 	H 	0.79590 0.42011 0.82885 0.11400
C 	C 	0.56598 0.29382 0.26277 0.13200
C 	C 	0.53541 0.24097 0.22353 -0.06700
C 	C 	0.59265 0.27527 0.19497 0.02500
C 	C 	0.67400 0.35944 0.20362 0.13200
C 	C 	0.70341 0.41388 0.24225 -0.07200
C 	C 	0.64628 0.38011 0.27113 0.03400
O 	O 	0.53923 0.25595 0.29732 -0.15700
C 	C 	0.61131 0.32717 0.32712 0.07100
C 	C 	0.67514 0.40135 0.31184 -0.04100
O 	O 	0.70833 0.39306 0.16916 -0.15600
C 	C 	0.63794 0.32085 0.13893 0.07100
C 	C 	0.56724 0.25181 0.15421 -0.04200
H 	H 	0.47175 0.17397 0.21632 0.10000
H 	H 	0.76795 0.48017 0.24949 0.10200
H 	H 	0.74525 0.45044 0.32685 0.08800
H 	H 	0.51525 0.18416 0.13742 0.08800
C 	C 	0.84501 0.77169 0.46676 0.25700
C 	C 	0.89640 0.83200 0.50393 -0.15400
C 	C 	0.89972 0.79953 0.53963 0.26000
C 	C 	0.85296 0.70738 0.53808 0.29300
C 	C 	0.80240 0.64698 0.50079 -0.20100
C 	C 	0.79808 0.67947 0.46516 0.29400
F 	F 	0.74730 0.62154 0.42918 -0.37200
F 	F 	0.84169 0.80273 0.43209 -0.36100
F 	F 	0.85804 0.67676 0.57264 -0.37600
F 	F 	0.94940 0.85759 0.57569 -0.35100
C 	C 	0.83633 0.15429 0.52698 0.29400
C 	C 	0.81289 0.16484 0.48794 -0.20300
C 	C 	0.84658 0.14968 0.45491 0.29100
C 	C 	0.90163 0.12274 0.46072 0.25900
C 	C 	0.92289 0.10972 0.49942 -0.14900
C 	C 	0.89101 0.12671 0.53266 0.25600
F 	F 	0.91161 0.11476 0.57028 -0.35700
F 	F 	0.80684 0.17147 0.55945 -0.37100
F 	F 	0.93140 0.10571 0.42833 -0.35100
F 	F 	0.82351 0.15822 0.41687 -0.39500
C 	C 	0.23101 0.14383 0.46970 0.25500
C 	C 	0.19673 0.11858 0.50568 -0.14800
C 	C 	0.25231 0.12648 0.53997 0.25300
C 	C 	0.34001 0.15591 0.53779 0.29100
C 	C 	0.37356 0.17915 0.50152 -0.20600
C 	C 	0.31923 0.17438 0.46770 0.29200
F 	F 	0.35155 0.19816 0.43269 -0.38100
F 	F 	0.17775 0.13583 0.43626 -0.35800
F 	F 	0.39312 0.16356 0.57121 -0.38100
F 	F 	0.22030 0.10342 0.57509 -0.35800
C 	C 	0.80915 0.60320 0.92775 0.29200
C 	C 	0.78807 0.57156 0.96456 -0.20500
C 	C 	0.79260 0.62622 0.99801 0.28400
C 	C 	0.82060 0.71276 0.99506 0.24000
C 	C 	0.84359 0.74513 0.95852 -0.13200
C 	C 	0.83605 0.68922 0.92465 0.24700
F 	F 	0.85713 0.71934 0.88902 -0.35700
F 	F 	0.80159 0.54977 0.89467 -0.38700
F 	F 	0.82839 0.76632 0.02814 -0.34200
F 	F 	0.77079 0.59578 0.03351 -0.36800
C 	C 	0.83492 0.03662 0.00096 0.26500
C 	C 	0.84796 0.01511 0.96231 -0.14400
C 	C 	0.83242 0.04802 0.92913 0.25100
C 	C 	0.80658 0.10407 0.93488 0.29700
C 	C 	0.79620 0.12780 0.97389 -0.21400
C 	C 	0.80980 0.09306 0.00683 0.30400
F 	F 	0.80146 0.11634 0.04487 -0.39600
F 	F 	0.85066 0.00607 0.03331 -0.34800
F 	F 	0.79092 0.13458 0.90249 -0.37000
F 	F 	0.84448 0.02737 0.89156 -0.35600
C 	C 	0.16411 0.04428 0.92411 0.25100
C 	C 	0.12961 0.04517 0.95950 -0.13000
C 	C 	0.18885 0.09594 0.99704 0.23700
C 	C 	0.28205 0.14475 0.99929 0.28800
C 	C 	0.31664 0.14300 0.96396 -0.20300
C 	C 	0.25729 0.09305 0.92631 0.29400
F 	F 	0.28997 0.09055 0.89202 -0.37900
F 	F 	0.10709 0.99521 0.88770 -0.35500
F 	F 	0.33890 0.19487 0.03563 -0.36200
F 	F 	0.15583 0.09697 0.03140 -0.35000
