data_crystal

_cell_length_a 20.61719
_cell_length_b 21.33966
_cell_length_c 39.82460
_cell_angle_alpha 60.69708
_cell_angle_beta  119.06314
_cell_angle_gamma 133.29700

_symmetry_space_group_name_	'P 1'
_symmetry_space_group_name_H-M	'P 1'

loop_
_symmetry_equiv_pos_as_xyz
  x,y,z

loop_
_atom_site_label
_atom_site_type_symbol
_atom_site_fract_x
_atom_site_fract_y
_atom_site_fract_z
_atom_site_charge
Co	Co	0.05475 0.02705 0.03534 1.17900
Co	Co	0.11628 0.91366 0.04318 1.18600
O 	O 	0.02254 0.07443 0.18026 -0.36100
C 	C 	0.02174 0.00639 0.20677 0.27500
O 	O 	0.03206 0.11489 0.02493 -0.43900
C 	C 	0.06513 0.22621 0.10281 0.33000
O 	O 	0.01656 0.95195 0.19617 -0.31900
O 	O 	0.13685 0.87405 0.14086 -0.35500
O 	O 	0.08633 0.19252 0.09255 -0.36900
O 	O 	0.05463 0.93543 0.06143 -0.73900
Co	Co	0.00438 0.08076 0.57324 1.19400
Co	Co	0.06390 0.01029 0.54206 1.18400
Co	Co	0.06180 0.85716 0.54074 1.18200
O 	O 	0.07063 0.11558 0.53567 -0.43900
C 	C 	0.08861 0.22357 0.60856 0.32100
C 	C 	0.08881 0.77091 0.62605 0.31900
O 	O 	0.04663 0.75463 0.59112 -0.39100
O 	O 	0.08300 0.81891 0.63477 -0.36000
O 	O 	0.10801 0.18413 0.60145 -0.37700
O 	O 	0.02770 0.90351 0.56064 -0.74400
C 	C 	0.08551 0.97843 0.88988 -0.05800
C 	C 	0.08844 0.97917 0.92563 0.12700
N 	N 	0.15712 0.97579 0.95995 -0.02100
H 	H 	0.13388 0.97351 0.88927 0.09900
C 	C 	0.09780 0.05331 0.80037 0.05300
C 	C 	0.10235 0.04754 0.76791 -0.02100
H 	H 	0.16088 0.10201 0.75486 0.09100
C 	C 	0.04232 0.05608 0.36149 -0.07800
C 	C 	0.04264 0.05891 0.39628 0.13100
N 	N 	0.09149 0.14294 0.40328 -0.02500
H 	H 	0.07972 0.11760 0.34062 0.09400
C 	C 	0.05858 0.96223 0.28230 0.12000
C 	C 	0.05333 0.95750 0.31776 -0.04100
N 	N 	0.12154 0.95175 0.28385 -0.01300
H 	H 	0.09612 0.94469 0.34579 0.09200
O 	O 	0.06775 0.19605 0.37871 -0.06700
O 	O 	0.11405 0.87817 0.30438 -0.06000
C 	C 	0.14993 0.61971 0.66357 0.08300
C 	C 	0.10676 0.64957 0.66364 -0.01000
C 	C 	0.14797 0.74093 0.65341 -0.07500
H 	H 	0.03768 0.60193 0.66786 0.08500
N 	N 	0.10731 0.52642 0.67451 -0.01700
O 	O 	0.14927 0.49338 0.70485 -0.06900
O 	O 	0.02381 0.47368 0.65608 -0.07200
C 	C 	0.14577 0.72628 0.14655 -0.01000
H 	H 	0.07496 0.69638 0.14303 0.06700
C 	C 	0.02962 0.97812 0.46687 0.34900
O 	O 	0.08542 0.95564 0.48890 -0.37900
O 	O 	0.00735 0.00213 0.48238 -0.37200
O 	O 	0.15252 0.17774 0.81666 -0.06700
C 	C 	0.15753 0.31541 0.61232 -0.08200
N 	N 	0.09552 0.59412 0.13536 -0.01900
O 	O 	0.06547 0.52271 0.16387 -0.06800
O 	O 	0.05777 0.58846 0.09870 -0.07500
Co	Co	0.01812 0.86945 0.10394 1.19200
O 	O 	0.13818 0.89927 0.98391 -0.12100
O 	O 	0.04324 0.77979 0.07023 -0.37600
C 	C 	0.13252 0.31733 0.10867 -0.07700
H 	H 	0.12855 0.38170 0.04664 0.08300
O 	O 	0.13978 0.57354 0.03610 -0.06400
C 	C 	0.02841 0.97612 0.74999 -0.04200
C 	C 	0.02131 0.98385 0.85514 0.03800
C 	C 	0.14434 0.38860 0.07535 -0.00600
O 	O 	0.01415 0.01503 0.97658 -0.35900
C 	C 	0.02444 0.98352 0.92752 -0.06100
C 	C 	0.16768 0.67896 0.14420 0.08000
C 	C 	0.02134 0.98342 0.81747 0.05700
O 	O 	0.01840 0.06399 0.68285 -0.37600
O 	O 	0.00379 0.18725 0.60556 -0.39600
C 	C 	0.01213 0.96112 0.96714 0.32000
O 	O 	0.01001 0.89276 0.99396 -0.34700
O 	O 	0.12424 0.23613 0.20894 -0.08600
C 	C 	0.01404 0.99204 0.70677 0.31400
O 	O 	0.01308 0.94386 0.69382 -0.34100
O 	O 	0.16078 0.24864 0.71392 -0.08000
C 	C 	0.15786 0.32902 0.14618 0.11300
O 	O 	0.16457 0.16974 0.43205 -0.07700
C 	C 	0.16396 0.38291 0.57771 -0.00700
H 	H 	0.14467 0.37202 0.54942 0.07000
O 	O 	0.14510 0.56038 0.53449 -0.06100
N 	N 	0.16110 0.26344 0.18144 -0.02400
N 	N 	0.17034 0.13121 0.81537 -0.01600
C 	C 	0.00382 0.98000 0.24555 -0.04200
C 	C 	0.17054 0.46675 0.07834 0.08500
O 	O 	0.96919 0.34116 0.00103 -0.09800
C 	C 	0.18434 0.33106 0.64896 0.11700
N 	N 	0.18992 0.26823 0.68526 -0.02500
H 	H 	0.22150 0.41749 0.67823 0.09300
O 	O 	0.22849 0.23412 0.69043 -0.08300
C 	C 	0.99567 0.97925 0.42412 -0.08900
C 	C 	0.20175 0.40639 0.64992 -0.04900
O 	O 	0.98076 0.18244 0.10407 -0.40200
C 	C 	0.99542 0.97435 0.35400 0.04500
C 	C 	0.99562 0.97263 0.31678 0.00900
O 	O 	0.19551 0.04765 0.01565 -0.39200
O 	O 	0.24238 0.04458 0.96171 -0.08800
C 	C 	0.19055 0.87921 0.12876 0.31200
Co	Co	0.98358 0.07987 0.06970 1.18200
O 	O 	0.88389 0.23143 0.97108 -0.07100
O 	O 	0.21535 0.93504 0.09547 -0.36000
O 	O 	0.19649 0.94278 0.56631 -0.34900
O 	O 	0.20247 0.06090 0.55922 -0.37400
O 	O 	0.19132 0.01854 0.26794 -0.08200
N 	N 	0.17747 0.53684 0.04344 -0.01700
O 	O 	0.21904 0.56211 0.01836 -0.06400
C 	C 	0.21400 0.81471 0.14980 -0.08000
O 	O 	0.44835 0.98910 0.15596 -0.06200
C 	C 	0.70652 0.26744 0.03666 0.14700
N 	N 	0.77813 0.34474 0.04855 -0.12900
C 	C 	0.76178 0.38328 0.05961 0.15300
N 	N 	0.67548 0.34427 0.05933 -0.13000
C 	C 	0.60422 0.27146 0.04518 0.15500
N 	N 	0.61923 0.23397 0.03295 -0.11600
C 	C 	0.72105 0.27223 0.52880 0.14500
N 	N 	0.76977 0.35806 0.52934 -0.11400
C 	C 	0.73694 0.38027 0.54087 0.15300
N 	N 	0.65543 0.31797 0.55085 -0.12700
C 	C 	0.60616 0.23314 0.54997 0.15200
N 	N 	0.63884 0.20996 0.53901 -0.13600
C 	C 	0.28855 0.67845 0.14068 0.14600
N 	N 	0.22676 0.59648 0.13261 -0.11500
C 	C 	0.25395 0.56739 0.12157 0.15200
N 	N 	0.34178 0.61884 0.11943 -0.12500
C 	C 	0.40386 0.69745 0.12931 0.15500
N 	N 	0.37739 0.72740 0.13973 -0.13000
C 	C 	0.27384 0.65742 0.64238 0.15000
N 	N 	0.36224 0.71657 0.63886 -0.12500
C 	C 	0.39457 0.69817 0.62484 0.15300
N 	N 	0.33805 0.62241 0.61311 -0.12900
C 	C 	0.25183 0.56099 0.61826 0.15500
N 	N 	0.21875 0.57844 0.63257 -0.11700
Co	Co	0.94950 0.92381 0.13895 1.18900
C 	C 	0.95734 0.73047 0.07136 0.30100
Co	Co	0.90856 0.05109 0.13495 1.16900
C 	C 	0.23941 0.10940 0.03345 0.32100
O 	O 	0.94849 0.01475 0.11237 -0.76600
O 	O 	0.96649 0.83281 0.14790 -0.44400
O 	O 	0.97295 0.95851 0.08019 -0.56900
C 	C 	0.77832 0.85420 0.15222 0.32900
O 	O 	0.83225 0.92188 0.16774 -0.38400
O 	O 	0.81151 0.84066 0.13740 -0.37300
C 	C 	0.81617 0.07641 0.05090 0.30200
O 	O 	0.80086 0.02349 0.08601 -0.39300
O 	O 	0.87268 0.09057 0.03634 -0.35500
O 	O 	0.93019 0.75394 0.08451 -0.37400
O 	O 	0.19527 0.11018 0.04820 -0.38400
Co	Co	0.97923 0.83699 0.59947 1.18900
Co	Co	0.94030 0.91458 0.63717 1.19100
C 	C 	0.86980 0.71380 0.54402 0.30500
Co	Co	0.91711 0.05625 0.63214 1.16900
C 	C 	0.23618 0.02881 0.55609 0.29100
O 	O 	0.95389 0.01281 0.61184 -0.76500
O 	O 	0.93719 0.81116 0.64440 -0.43400
O 	O 	0.97277 0.95117 0.58073 -0.56800
C 	C 	0.77096 0.86340 0.64471 0.32900
O 	O 	0.82802 0.92924 0.66153 -0.39200
O 	O 	0.80159 0.84316 0.63208 -0.35600
C 	C 	0.84774 0.09823 0.54534 0.31400
O 	O 	0.82121 0.04262 0.57863 -0.37700
O 	O 	0.90727 0.10821 0.53480 -0.36300
O 	O 	0.92307 0.77902 0.51909 -0.38800
O 	O 	0.87079 0.72874 0.57335 -0.34700
C 	C 	0.95912 0.99129 0.85620 0.06200
C 	C 	0.96071 0.99056 0.89242 -0.00900
N 	N 	0.89394 0.99887 0.82089 -0.00900
H 	H 	0.91081 0.99310 0.89326 0.08000
C 	C 	0.95560 0.90266 0.76911 0.10500
C 	C 	0.95178 0.90741 0.80230 -0.07600
N 	N 	0.88734 0.82208 0.75597 -0.02400
H 	H 	0.89587 0.85103 0.81680 0.09400
O 	O 	0.80715 0.94438 0.82053 -0.07100
O 	O 	0.92185 0.06360 0.78992 -0.09300
O 	O 	0.91203 0.78870 0.74872 -0.08100
O 	O 	0.80249 0.77577 0.75682 -0.08400
O 	O 	0.25491 0.15895 0.82519 -0.07100
C 	C 	0.94269 0.89483 0.38026 0.06100
C 	C 	0.94104 0.89794 0.41437 0.00300
N 	N 	0.89355 0.81054 0.37335 -0.01700
H 	H 	0.90319 0.83630 0.43509 0.06300
C 	C 	0.93983 0.98846 0.28026 0.08700
C 	C 	0.94350 0.99120 0.24524 0.00500
N 	N 	0.88187 0.00568 0.27825 -0.03400
H 	H 	0.90285 0.00725 0.21731 0.03400
O 	O 	0.90828 0.75225 0.40054 -0.07700
O 	O 	0.82896 0.78934 0.34134 -0.06100
O 	O 	0.89260 0.08040 0.25654 -0.08600
O 	O 	0.81474 0.94456 0.29606 -0.05300
C 	C 	0.20197 0.47121 0.61500 -0.00300
C 	C 	0.18322 0.45932 0.57859 0.08300
N 	N 	0.18535 0.52570 0.54248 -0.01900
O 	O 	0.22531 0.54962 0.51705 -0.07200
C 	C 	0.52148 0.76689 0.59773 -0.05000
C 	C 	0.49308 0.75181 0.62827 -0.01200
C 	C 	0.55568 0.76837 0.66506 0.08200
C 	C 	0.64467 0.79849 0.67104 -0.00700
C 	C 	0.67256 0.81179 0.64084 -0.08400
C 	C 	0.60959 0.79375 0.60428 0.12500
N 	N 	0.63381 0.79984 0.57419 -0.02300
H 	H 	0.47326 0.75301 0.56951 0.09200
H 	H 	0.69320 0.81415 0.69893 0.08500
N 	N 	0.52803 0.75144 0.69698 -0.01900
O 	O 	0.60467 0.72806 0.56874 -0.07000
O 	O 	0.67940 0.87631 0.55045 -0.06600
O 	O 	0.48551 0.67144 0.71929 -0.07100
O 	O 	0.55087 0.81696 0.70540 -0.07100
C 	C 	0.28548 0.77184 0.65324 -0.05100
C 	C 	0.23660 0.68239 0.65421 -0.00600
C 	C 	0.24223 0.80071 0.65418 0.11500
N 	N 	0.29336 0.89123 0.65453 -0.02100
H 	H 	0.35608 0.81936 0.65080 0.09300
O 	O 	0.27540 0.90987 0.67414 -0.06900
O 	O 	0.36362 0.95373 0.63863 -0.07700
C 	C 	0.18318 0.40661 0.14922 -0.04900
C 	C 	0.19204 0.47689 0.11571 -0.00600
H 	H 	0.20365 0.41518 0.17826 0.08500
O 	O 	0.20839 0.23740 0.18770 -0.07300
C 	C 	0.62189 0.79566 0.10957 -0.00600
C 	C 	0.67948 0.79969 0.14776 -0.08900
C 	C 	0.64603 0.77106 0.17979 0.12100
C 	C 	0.55777 0.74429 0.17285 -0.05300
C 	C 	0.50121 0.74279 0.13450 -0.01100
C 	C 	0.53362 0.76902 0.10264 0.08000
N 	N 	0.47766 0.77056 0.06303 -0.01900
H 	H 	0.64789 0.81908 0.08478 0.07200
H 	H 	0.53180 0.72124 0.19759 0.08400
N 	N 	0.70230 0.77022 0.21939 -0.02400
O 	O 	0.44368 0.81490 0.04804 -0.06600
O 	O 	0.46499 0.73183 0.04122 -0.07200
O 	O 	0.71008 0.80425 0.24189 -0.07000
O 	O 	0.74300 0.73254 0.23345 -0.07200
C 	C 	0.30641 0.84685 0.16120 0.12400
C 	C 	0.32930 0.79752 0.16179 -0.05300
C 	C 	0.26066 0.71674 0.14999 -0.00500
H 	H 	0.40088 0.82376 0.17018 0.09100
N 	N 	0.37753 0.93059 0.17146 -0.02300
O 	O 	0.37365 0.94663 0.19778 -0.05400
C 	C 	0.69521 0.16692 0.50466 -0.05500
C 	C 	0.75699 0.24539 0.51771 -0.00900
C 	C 	0.85227 0.28834 0.52602 0.07800
C 	C 	0.88298 0.24559 0.52702 -0.01300
C 	C 	0.82010 0.15848 0.52246 -0.08400
C 	C 	0.72627 0.12272 0.50745 0.11800
N 	N 	0.66187 0.03929 0.49697 -0.03000
H 	H 	0.62247 0.13754 0.49451 0.08100
H 	H 	0.95591 0.27690 0.53511 0.06600
N 	N 	0.91787 0.37360 0.53459 -0.01800
O 	O 	0.58532 0.97904 0.50840 -0.06300
O 	O 	0.67871 0.02443 0.47512 -0.07300
O 	O 	0.96428 0.38050 0.57081 -0.08600
O 	O 	0.93756 0.44483 0.50578 -0.06300
C 	C 	0.80816 0.48579 0.57785 -0.05100
C 	C 	0.78744 0.47147 0.54199 -0.00800
C 	C 	0.78503 0.53437 0.50632 0.08100
C 	C 	0.79818 0.60770 0.50663 -0.01300
C 	C 	0.81930 0.62218 0.54256 -0.08000
C 	C 	0.81670 0.55666 0.57794 0.11600
N 	N 	0.81325 0.55690 0.61291 -0.02200
H 	H 	0.80683 0.43591 0.60525 0.09100
H 	H 	0.79726 0.65635 0.47903 0.07600
N 	N 	0.76558 0.52209 0.46943 -0.02000
O 	O 	0.87003 0.55064 0.64640 -0.09100
O 	O 	0.74593 0.55150 0.61234 -0.06600
O 	O 	0.69532 0.51711 0.44135 -0.07100
O 	O 	0.82240 0.52352 0.46272 -0.06300
C 	C 	0.44055 0.12392 0.52631 -0.04800
C 	C 	0.51238 0.17033 0.55534 -0.01500
C 	C 	0.49254 0.17223 0.58403 0.08400
C 	C 	0.40215 0.13421 0.58126 -0.00600
C 	C 	0.33047 0.08834 0.55201 -0.07100
C 	C 	0.35011 0.08356 0.52434 0.10900
N 	N 	0.27800 0.03763 0.49407 -0.03200
H 	H 	0.45521 0.12261 0.50403 0.07900
H 	H 	0.38708 0.13506 0.60354 0.07800
N 	N 	0.56416 0.21177 0.61632 -0.01800
O 	O 	0.25739 0.08156 0.45913 -0.08000
O 	O 	0.24264 0.95521 0.49963 -0.08700
O 	O 	0.57189 0.26852 0.62485 -0.07500
O 	O 	0.61953 0.18859 0.63810 -0.07700
C 	C 	0.80141 0.26275 0.01670 -0.05000
C 	C 	0.72370 0.21708 0.03008 -0.01100
C 	C 	0.66311 0.12311 0.03742 0.07900
C 	C 	0.68456 0.07719 0.03392 -0.01400
C 	C 	0.77082 0.12198 0.02840 -0.07700
C 	C 	0.82386 0.21546 0.01473 0.10500
N 	N 	0.89657 0.26198 0.99670 -0.01400
H 	H 	0.84390 0.33467 0.00752 0.08500
H 	H 	0.63969 0.00515 0.04130 0.07300
N 	N 	0.58433 0.07359 0.05187 -0.01800
O 	O 	0.50260 0.03174 0.02940 -0.07500
O 	O 	0.59405 0.06210 0.08881 -0.08600
C 	C 	0.85406 0.54451 0.03194 -0.04400
C 	C 	0.83320 0.47336 0.06563 -0.01000
C 	C 	0.85216 0.48757 0.10143 0.08600
C 	C 	0.88298 0.56969 0.10199 -0.01000
C 	C 	0.89854 0.63914 0.06758 -0.07400
C 	C 	0.88187 0.62544 0.03216 0.10800
N 	N 	0.88966 0.69260 0.99592 -0.02000
H 	H 	0.83893 0.53393 0.00427 0.08200
H 	H 	0.89901 0.58074 0.12969 0.06900
N 	N 	0.83652 0.41722 0.13695 -0.01800
O 	O 	0.94017 0.71988 0.97455 -0.07600
O 	O 	0.83897 0.71970 0.98232 -0.07600
O 	O 	0.86061 0.36720 0.14597 -0.07100
O 	O 	0.79943 0.40400 0.16057 -0.07700
C 	C 	0.36714 0.21594 0.00087 -0.01400
C 	C 	0.33705 0.17874 0.03518 -0.08300
C 	C 	0.40008 0.18477 0.07221 0.11900
C 	C 	0.48576 0.21057 0.07544 -0.05000
C 	C 	0.51117 0.23643 0.04150 -0.01000
C 	C 	0.45331 0.24330 0.00385 0.08000
N 	N 	0.48186 0.27800 0.96863 -0.01500
H 	H 	0.32048 0.21645 0.97199 0.08700
H 	H 	0.53320 0.21197 0.10423 0.09100
N 	N 	0.37667 0.16344 0.10663 -0.02500
O 	O 	0.43396 0.22948 0.94361 -0.06100
O 	O 	0.55177 0.36016 0.96017 -0.07200
O 	O 	0.38817 0.10845 0.13881 -0.07200
O 	O 	0.35201 0.20522 0.10693 -0.07900
