data_crystal

_cell_length_a 37.32168
_cell_length_b 32.89419
_cell_length_c 24.42379
_cell_angle_alpha 90.00032
_cell_angle_beta  90.00178
_cell_angle_gamma 89.99962

_symmetry_space_group_name_	'P 1'
_symmetry_space_group_name_H-M	'P 1'

loop_
_symmetry_equiv_pos_as_xyz
  x,y,z

loop_
_atom_site_label
_atom_site_type_symbol
_atom_site_fract_x
_atom_site_fract_y
_atom_site_fract_z
_atom_site_charge
Cu	Cu	0.16702 0.84559 0.29147 0.92800
Cu	Cu	0.19830 0.76971 0.21993 0.86800
Cu	Cu	0.17985 0.85121 0.16835 0.89500
Cu	Cu	0.16214 0.92859 0.22882 0.89400
C 	C 	0.17488 0.92107 0.34868 0.28600
O 	O 	0.11435 0.86045 0.28990 -0.36400
C 	C 	0.18075 0.77405 0.10713 0.27500
O 	O 	0.19224 0.88251 0.23261 -0.63700
O 	O 	0.16230 0.81221 0.22526 -0.64200
O 	O 	0.19002 0.80399 0.33841 -0.37700
O 	O 	0.23152 0.78654 0.27460 -0.43800
O 	O 	0.15620 0.93818 0.30902 -0.38600
O 	O 	0.19744 0.89086 0.11534 -0.38100
C 	C 	0.18976 0.93014 0.11509 0.28400
C 	C 	0.09845 0.87246 0.24454 0.27500
O 	O 	0.11729 0.89015 0.20572 -0.39500
O 	O 	0.18427 0.95031 0.16110 -0.39500
O 	O 	0.17992 0.88141 0.34961 -0.36900
C 	C 	0.22162 0.78926 0.32600 0.28800
O 	O 	0.17418 0.81363 0.10623 -0.38000
O 	O 	0.17719 0.75296 0.15264 -0.41900
H 	H 	0.21813 0.88832 0.23680 0.16200
H 	H 	0.13772 0.80224 0.21804 0.17100
Cu	Cu	0.31490 0.64278 0.79100 0.92800
Cu	Cu	0.28670 0.72191 0.72147 0.86700
Cu	Cu	0.30114 0.64053 0.66832 0.89600
Cu	Cu	0.31716 0.56116 0.72486 0.89200
C 	C 	0.30710 0.56638 0.84757 0.28500
O 	O 	0.36707 0.62619 0.78990 -0.36600
C 	C 	0.30270 0.71794 0.60826 0.27600
O 	O 	0.28844 0.60825 0.73114 -0.63900
O 	O 	0.32097 0.67746 0.72578 -0.64100
O 	O 	0.29267 0.68414 0.83925 -0.37700
O 	O 	0.25279 0.70488 0.77474 -0.43900
O 	O 	0.32208 0.54802 0.80500 -0.38500
O 	O 	0.27966 0.60366 0.61637 -0.38600
C 	C 	0.28952 0.56544 0.61014 0.28300
C 	C 	0.38282 0.61415 0.74452 0.27600
O 	O 	0.36361 0.59823 0.70479 -0.39400
O 	O 	0.29713 0.54233 0.65303 -0.39100
O 	O 	0.30092 0.60593 0.84751 -0.36900
C 	C 	0.26209 0.70122 0.82626 0.28900
O 	O 	0.30785 0.67815 0.60660 -0.38100
O 	O 	0.30780 0.73843 0.65392 -0.41800
H 	H 	0.26243 0.60325 0.73556 0.16400
H 	H 	0.34593 0.68602 0.71830 0.17100
Cu	Cu	0.31821 0.34687 0.17123 0.92800
Cu	Cu	0.27903 0.27093 0.23331 0.86600
Cu	Cu	0.29018 0.35194 0.28817 0.89500
Cu	Cu	0.31441 0.43075 0.23229 0.89300
C 	C 	0.31583 0.42170 0.10963 0.28600
O 	O 	0.36983 0.36204 0.18621 -0.36600
C 	C 	0.28352 0.27484 0.34952 0.27600
O 	O 	0.28598 0.38367 0.22167 -0.63600
O 	O 	0.31514 0.31349 0.23782 -0.64300
O 	O 	0.30114 0.30476 0.11979 -0.38000
O 	O 	0.25244 0.28778 0.17054 -0.43800
O 	O 	0.32719 0.44144 0.15357 -0.38400
O 	O 	0.26711 0.39182 0.33456 -0.38300
C 	C 	0.27896 0.42935 0.34032 0.28100
C 	C 	0.38010 0.37542 0.23447 0.27700
O 	O 	0.35696 0.39358 0.26682 -0.39300
O 	O 	0.28720 0.45140 0.29686 -0.39000
O 	O 	0.31209 0.38181 0.10965 -0.37000
C 	C 	0.26810 0.29155 0.12269 0.28700
O 	O 	0.28807 0.31477 0.35140 -0.38200
O 	O 	0.29193 0.25388 0.30535 -0.41900
H 	H 	0.26105 0.38885 0.20968 0.16100
H 	H 	0.33847 0.30393 0.25223 0.17100
Cu	Cu	0.15393 0.14189 0.66658 0.92800
Cu	Cu	0.19074 0.20940 0.74681 0.86500
Cu	Cu	0.17128 0.12477 0.78650 0.89500
Cu	Cu	0.15007 0.05331 0.71540 0.89400
C 	C 	0.16113 0.07182 0.59833 0.28500
O 	O 	0.10116 0.12791 0.67031 -0.36400
C 	C 	0.17744 0.19488 0.86010 0.27500
O 	O 	0.18065 0.09922 0.71667 -0.63700
O 	O 	0.15280 0.16915 0.73810 -0.64200
O 	O 	0.17508 0.18744 0.62485 -0.37800
O 	O 	0.22055 0.19810 0.68497 -0.43700
O 	O 	0.14236 0.05143 0.63484 -0.38600
O 	O 	0.18907 0.08014 0.83146 -0.38200
C 	C 	0.17910 0.04174 0.82653 0.28300
C 	C 	0.08666 0.11120 0.71399 0.27600
O 	O 	0.10665 0.09004 0.74799 -0.39500
O 	O 	0.17362 0.02557 0.77780 -0.39500
O 	O 	0.16374 0.11170 0.60143 -0.36700
C 	C 	0.20773 0.19993 0.63497 0.28700
O 	O 	0.16801 0.15633 0.85443 -0.38100
O 	O 	0.17392 0.22074 0.81920 -0.41700
H 	H 	0.20626 0.09358 0.70925 0.16000
H 	H 	0.12888 0.17922 0.74924 0.17100
Cu	Cu	0.65321 0.35008 0.34541 0.92800
Cu	Cu	0.69789 0.27407 0.29207 0.86400
Cu	Cu	0.68164 0.34902 0.22862 0.89500
Cu	Cu	0.65436 0.42898 0.27220 0.89400
C 	C 	0.65406 0.42975 0.39276 0.28300
O 	O 	0.60134 0.36132 0.32597 -0.36300
C 	C 	0.69175 0.27006 0.17482 0.27600
O 	O 	0.68450 0.38487 0.29104 -0.63700
O 	O 	0.65861 0.31240 0.28328 -0.64300
O 	O 	0.67171 0.31302 0.40252 -0.37800
O 	O 	0.72173 0.29676 0.35412 -0.43800
O 	O 	0.63870 0.44306 0.34763 -0.38700
O 	O 	0.70531 0.38568 0.17814 -0.38500
C 	C 	0.69476 0.42334 0.16887 0.28500
C 	C 	0.59149 0.37034 0.27558 0.27500
O 	O 	0.61475 0.38642 0.24139 -0.39600
O 	O 	0.68398 0.44689 0.20940 -0.39600
O 	O 	0.65674 0.39035 0.40204 -0.36300
C 	C 	0.70510 0.30068 0.40125 0.28600
O 	O 	0.68247 0.30870 0.16973 -0.38300
O 	O 	0.68754 0.25061 0.22172 -0.41700
H 	H 	0.70918 0.39227 0.30212 0.16200
H 	H 	0.63614 0.29985 0.26991 0.17200
Cu	Cu	0.81374 0.13310 0.84875 0.92900
Cu	Cu	0.77850 0.20683 0.77699 0.86400
Cu	Cu	0.79721 0.12578 0.72773 0.89600
Cu	Cu	0.81616 0.04890 0.78780 0.89100
C 	C 	0.80796 0.05870 0.90990 0.28700
O 	O 	0.86619 0.11808 0.84478 -0.36600
C 	C 	0.79344 0.19976 0.66220 0.27600
O 	O 	0.78647 0.09542 0.79297 -0.64000
O 	O 	0.81625 0.16587 0.78164 -0.64300
O 	O 	0.79339 0.17579 0.89654 -0.37700
O 	O 	0.74860 0.19204 0.83747 -0.43600
O 	O 	0.82317 0.03930 0.86841 -0.38400
O 	O 	0.77637 0.08650 0.67827 -0.38700
C 	C 	0.78751 0.04858 0.67393 0.28200
C 	C 	0.88088 0.10460 0.79937 0.27800
O 	O 	0.86096 0.08667 0.76214 -0.39500
O 	O 	0.79514 0.02698 0.71818 -0.39000
O 	O 	0.80247 0.09831 0.90849 -0.37000
C 	C 	0.76136 0.19063 0.88757 0.28700
O 	O 	0.80336 0.16123 0.66445 -0.38400
O 	O 	0.79527 0.22325 0.70594 -0.41600
H 	H 	0.76068 0.08997 0.79901 0.16200
H 	H 	0.84039 0.17619 0.77215 0.17200
Cu	Cu	0.81852 0.83464 0.22232 0.92800
Cu	Cu	0.79240 0.75385 0.28900 0.86700
Cu	Cu	0.80648 0.83507 0.34541 0.89600
Cu	Cu	0.81847 0.91590 0.28946 0.89200
C 	C 	0.80695 0.91072 0.16735 0.28800
O 	O 	0.87012 0.85362 0.22325 -0.36600
C 	C 	0.80887 0.75672 0.40200 0.27500
O 	O 	0.79151 0.86743 0.28361 -0.63800
O 	O 	0.82585 0.79933 0.28612 -0.64200
O 	O 	0.79804 0.79289 0.17302 -0.37800
O 	O 	0.75792 0.76992 0.23562 -0.43800
O 	O 	0.82219 0.92949 0.20931 -0.38500
O 	O 	0.78610 0.87096 0.40028 -0.38300
C 	C 	0.79400 0.90994 0.40519 0.28100
C 	C 	0.88567 0.86583 0.26872 0.27600
O 	O 	0.86618 0.88083 0.30876 -0.39600
O 	O 	0.79794 0.93322 0.36137 -0.39100
O 	O 	0.80263 0.87095 0.16696 -0.37200
C 	C 	0.76734 0.77556 0.18444 0.28800
O 	O 	0.81502 0.79626 0.40497 -0.38000
O 	O 	0.81401 0.73681 0.35591 -0.41800
H 	H 	0.76527 0.87108 0.28014 0.16300
H 	H 	0.85106 0.79115 0.29236 0.17000
Cu	Cu	0.66502 0.63418 0.71873 0.92800
Cu	Cu	0.70222 0.71018 0.78530 0.86600
Cu	Cu	0.68082 0.63313 0.84071 0.89600
Cu	Cu	0.65616 0.55554 0.79048 0.89300
C 	C 	0.66738 0.55471 0.66991 0.28400
O 	O 	0.61155 0.62426 0.72281 -0.36400
C 	C 	0.68584 0.71049 0.89926 0.27600
O 	O 	0.68923 0.59814 0.77933 -0.64100
O 	O 	0.66328 0.67092 0.78272 -0.64100
O 	O 	0.69089 0.67106 0.66807 -0.37500
O 	O 	0.73299 0.68731 0.73167 -0.44000
O 	O 	0.64848 0.54144 0.71194 -0.38500
O 	O 	0.70110 0.59607 0.89328 -0.39000
C 	C 	0.68980 0.55859 0.90173 0.28800
C 	C 	0.59560 0.61504 0.76926 0.27700
O 	O 	0.61427 0.59914 0.80961 -0.39500
O 	O 	0.67638 0.53624 0.86155 -0.39500
O 	O 	0.67405 0.59391 0.66366 -0.36400
C 	C 	0.72283 0.68502 0.68037 0.28800
O 	O 	0.67591 0.67193 0.90099 -0.38200
O 	O 	0.68426 0.73121 0.85310 -0.41800
H 	H 	0.71448 0.58967 0.77443 0.16500
H 	H 	0.63951 0.68281 0.79099 0.17200
C 	C 	0.74412 0.76124 0.13972 -0.08200
C 	C 	0.72745 0.72307 0.14320 0.00500
C 	C 	0.70970 0.70681 0.09777 -0.06200
C 	C 	0.70842 0.72863 0.04840 0.01400
C 	C 	0.72347 0.76800 0.04567 0.00900
C 	C 	0.74111 0.78420 0.09149 -0.01600
C 	C 	0.72200 0.78993 0.99650 -0.05700
C 	C 	0.70771 0.77203 0.94943 -0.00200
C 	C 	0.69462 0.73193 0.95093 -0.07400
C 	C 	0.69376 0.71090 0.00114 -0.02400
H 	H 	0.72937 0.70532 0.18046 0.01700
H 	H 	0.69782 0.67682 0.10057 0.04000
H 	H 	0.75331 0.81408 0.08920 0.04400
H 	H 	0.73285 0.82045 0.99426 0.03900
H 	H 	0.70794 0.78892 0.91137 0.02800
H 	H 	0.68295 0.68033 0.00301 0.04600
C 	C 	0.74637 0.70033 0.63688 -0.08400
C 	C 	0.76398 0.73775 0.64327 0.00600
C 	C 	0.78286 0.75482 0.59955 -0.06200
C 	C 	0.78442 0.73454 0.54907 0.01400
C 	C 	0.76842 0.69580 0.54350 0.01000
C 	C 	0.74945 0.67888 0.58750 -0.01500
C 	C 	0.77036 0.67529 0.49331 -0.05900
C 	C 	0.78584 0.69416 0.44793 -0.00100
C 	C 	0.79959 0.73387 0.45214 -0.07700
C 	C 	0.80023 0.75325 0.50345 -0.02200
H 	H 	0.76199 0.75427 0.68152 0.01200
H 	H 	0.79548 0.78427 0.60456 0.04000
H 	H 	0.73641 0.64958 0.58299 0.04300
H 	H 	0.75888 0.64519 0.48893 0.04000
H 	H 	0.78579 0.67853 0.40890 0.02400
H 	H 	0.81176 0.78339 0.50741 0.04600
C 	C 	0.78485 0.02792 0.61991 -0.07000
C 	C 	0.77969 0.05108 0.57208 0.00000
C 	C 	0.77925 0.03235 0.52070 -0.05700
C 	C 	0.78424 0.99023 0.51616 0.01100
C 	C 	0.78907 0.96659 0.56389 0.01200
C 	C 	0.78926 0.98549 0.61562 -0.02400
C 	C 	0.79418 0.92444 0.55925 -0.05800
C 	C 	0.79515 0.90600 0.50763 0.00100
C 	C 	0.79084 0.92939 0.45985 -0.07100
C 	C 	0.78500 0.97154 0.46438 -0.02200
H 	H 	0.77655 0.08376 0.57456 0.04000
H 	H 	0.77545 0.05077 0.48436 0.03900
H 	H 	0.79314 0.96733 0.65219 0.04100
H 	H 	0.79780 0.90596 0.59558 0.03900
H 	H 	0.79985 0.87356 0.50478 0.03700
H 	H 	0.78125 0.98975 0.42782 0.04100
C 	C 	0.80463 0.03758 0.96298 -0.07100
C 	C 	0.80868 0.05932 0.01220 0.00400
C 	C 	0.80803 0.03902 0.06243 -0.05800
C 	C 	0.80334 0.99675 0.06415 0.01200
C 	C 	0.79801 0.97492 0.01495 0.01200
C 	C 	0.79857 0.99548 0.96458 -0.02200
C 	C 	0.79293 0.93274 0.01670 -0.05900
C 	C 	0.79461 0.91207 0.06655 0.00400
C 	C 	0.80150 0.93332 0.11551 -0.07200
C 	C 	0.80480 0.97588 0.11426 -0.02100
H 	H 	0.81313 0.09186 0.01153 0.04000
H 	H 	0.81175 0.05613 0.09993 0.04000
H 	H 	0.79470 0.97875 0.92676 0.03400
H 	H 	0.78824 0.91579 0.97932 0.03900
H 	H 	0.79132 0.87936 0.06689 0.04000
H 	H 	0.80910 0.99262 0.15195 0.03800
C 	C 	0.70175 0.44178 0.11489 -0.07400
C 	C 	0.70100 0.41756 0.06751 0.00200
C 	C 	0.70141 0.43564 0.01573 -0.05800
C 	C 	0.70219 0.47813 0.01079 0.01100
C 	C 	0.70480 0.50251 0.05825 0.01200
C 	C 	0.70525 0.48416 0.11002 -0.02100
C 	C 	0.70524 0.54499 0.05342 -0.05800
C 	C 	0.70131 0.56322 0.00216 0.00200
C 	C 	0.69738 0.53918 0.95496 -0.07400
C 	C 	0.69890 0.49658 0.95927 -0.02000
H 	H 	0.69869 0.38482 0.07077 0.03700
H 	H 	0.69997 0.41662 0.97956 0.03900
H 	H 	0.70702 0.50289 0.14648 0.04100
H 	H 	0.70762 0.56395 0.08953 0.03900
H 	H 	0.70040 0.59607 0.99932 0.03700
H 	H 	0.69678 0.47789 0.92283 0.04000
C 	C 	0.66030 0.45873 0.43821 -0.07300
C 	C 	0.65837 0.50085 0.42852 0.00200
C 	C 	0.66196 0.52839 0.47168 -0.05800
C 	C 	0.66773 0.51429 0.52511 0.01300
C 	C 	0.67135 0.47213 0.53486 0.01300
C 	C 	0.66778 0.44452 0.49133 -0.02100
C 	C 	0.67743 0.45808 0.58828 -0.05800
C 	C 	0.67803 0.48543 0.63205 0.00300
C 	C 	0.67263 0.52716 0.62295 -0.07200
C 	C 	0.66870 0.54167 0.56919 -0.01900
H 	H 	0.65376 0.51230 0.38754 0.02800
H 	H 	0.65976 0.56070 0.46361 0.04100
H 	H 	0.67004 0.41216 0.49901 0.04700
H 	H 	0.68091 0.42589 0.59612 0.04000
H 	H 	0.68187 0.47407 0.67328 0.02400
H 	H 	0.66486 0.57391 0.56191 0.04700
C 	C 	0.74002 0.20613 0.93390 -0.08000
C 	C 	0.71930 0.24149 0.92791 0.00400
C 	C 	0.70351 0.25975 0.97370 -0.06000
C 	C 	0.70833 0.24283 0.02599 0.01300
C 	C 	0.72770 0.20619 0.03181 0.01100
C 	C 	0.74321 0.18784 0.98565 -0.01700
C 	C 	0.73247 0.18918 0.08397 -0.05800
C 	C 	0.71954 0.20929 0.13033 -0.00000
C 	C 	0.70147 0.24660 0.12519 -0.07300
C 	C 	0.69510 0.26279 0.07270 -0.02100
H 	H 	0.71648 0.25567 0.88810 0.01900
H 	H 	0.68830 0.28757 0.96864 0.04000
H 	H 	0.75858 0.16003 0.99016 0.04600
H 	H 	0.74694 0.16083 0.08879 0.04000
H 	H 	0.72451 0.19638 0.17043 0.02500
H 	H 	0.68059 0.29117 0.06828 0.04500
C 	C 	0.72391 0.29146 0.45278 -0.08100
C 	C 	0.71545 0.31314 0.50060 0.00700
C 	C 	0.72997 0.30149 0.55091 -0.06100
C 	C 	0.75294 0.26782 0.55406 0.01300
C 	C 	0.76277 0.24695 0.50575 0.00900
C 	C 	0.74846 0.25915 0.45518 -0.02000
C 	C 	0.78558 0.21314 0.50897 -0.05900
C 	C 	0.79708 0.19888 0.55993 0.00400
C 	C 	0.78605 0.21839 0.60832 -0.07500
C 	C 	0.76492 0.25367 0.60507 -0.02500
H 	H 	0.69715 0.33868 0.49890 0.03700
H 	H 	0.72270 0.31811 0.58759 0.03800
H 	H 	0.75522 0.24254 0.41822 0.02600
H 	H 	0.79374 0.19729 0.47212 0.03800
H 	H 	0.81402 0.17217 0.56179 0.03800
H 	H 	0.75650 0.26897 0.64226 0.03000
C 	C 	0.92009 0.10641 0.79254 -0.07500
C 	C 	0.94257 0.10422 0.83862 0.00400
C 	C 	0.97977 0.10527 0.83246 -0.05900
C 	C 	0.99498 0.10858 0.78015 0.01200
C 	C 	0.97251 0.11120 0.73367 0.01200
C 	C 	0.93513 0.11003 0.74009 -0.02300
C 	C 	0.98771 0.11479 0.68140 -0.05900
C 	C 	0.02491 0.11530 0.67517 0.00300
C 	C 	0.04742 0.11218 0.72114 -0.07500
C 	C 	0.03236 0.10908 0.77365 -0.02300
H 	H 	0.93121 0.10118 0.87923 0.03900
H 	H 	0.99673 0.10330 0.86839 0.04200
H 	H 	0.91783 0.11214 0.70451 0.03900
H 	H 	0.97075 0.11693 0.64550 0.04200
H 	H 	0.03625 0.11748 0.63444 0.04000
H 	H 	0.04966 0.10712 0.80926 0.03900
C 	C 	0.41793 0.37142 0.25139 -0.07600
C 	C 	0.42719 0.37296 0.30712 0.00200
C 	C 	0.46311 0.37133 0.32312 -0.05800
C 	C 	0.49025 0.36816 0.28359 0.01300
C 	C 	0.48111 0.36567 0.22756 0.01200
C 	C 	0.44498 0.36718 0.21171 -0.02200
C 	C 	0.50826 0.36252 0.18803 -0.05800
C 	C 	0.54425 0.36294 0.20386 0.00100
C 	C 	0.55354 0.36647 0.25940 -0.07400
C 	C 	0.52643 0.36834 0.29928 -0.02200
H 	H 	0.40655 0.37553 0.33811 0.03300
H 	H 	0.46982 0.37290 0.36624 0.04300
H 	H 	0.43798 0.36598 0.16864 0.04600
H 	H 	0.50153 0.36018 0.14497 0.04200
H 	H 	0.56493 0.36081 0.17286 0.03200
H 	H 	0.53347 0.37105 0.34222 0.04700
C 	C 	0.23006 0.21525 0.58983 -0.08000
C 	C 	0.24884 0.25198 0.59552 0.00500
C 	C 	0.26512 0.27005 0.54997 -0.06000
C 	C 	0.26282 0.25145 0.49832 0.01300
C 	C 	0.24553 0.21341 0.49310 0.01200
C 	C 	0.22940 0.19542 0.53897 -0.01800
C 	C 	0.24343 0.19460 0.44172 -0.05900
C 	C 	0.25697 0.21410 0.39536 0.00100
C 	C 	0.27290 0.25270 0.39970 -0.07500
C 	C 	0.27651 0.27095 0.45154 -0.02000
H 	H 	0.24967 0.26732 0.63475 0.01800
H 	H 	0.27874 0.29895 0.55465 0.04000
H 	H 	0.21542 0.16665 0.53481 0.04500
H 	H 	0.23059 0.16521 0.43742 0.04000
H 	H 	0.25413 0.19966 0.35573 0.02200
H 	H 	0.28935 0.30040 0.45534 0.04400
C 	C 	0.24825 0.28256 0.07212 -0.08000
C 	C 	0.25277 0.30746 0.02595 0.00500
C 	C 	0.23736 0.29668 0.97594 -0.05900
C 	C 	0.21753 0.26062 0.97136 0.01300
C 	C 	0.21181 0.23614 0.01811 0.00900
C 	C 	0.22690 0.24751 0.06854 -0.02000
C 	C 	0.19227 0.19986 0.01332 -0.05900
C 	C 	0.17980 0.18710 0.96212 0.00300
C 	C 	0.18651 0.21063 0.91512 -0.07500
C 	C 	0.20457 0.24794 0.92024 -0.02500
H 	H 	0.26870 0.33494 0.02866 0.04000
H 	H 	0.24152 0.31593 0.94049 0.03900
H 	H 	0.22327 0.22835 0.10427 0.02700
H 	H 	0.18735 0.18109 0.04901 0.03800
H 	H 	0.16538 0.15862 0.95895 0.03900
H 	H 	0.20975 0.26628 0.88419 0.03100
C 	C 	0.42224 0.61634 0.73967 -0.07500
C 	C 	0.43864 0.61511 0.68791 0.00100
C 	C 	0.47598 0.61583 0.68338 -0.05800
C 	C 	0.49739 0.61778 0.73054 0.01300
C 	C 	0.48109 0.61965 0.78267 0.01200
C 	C 	0.44360 0.61899 0.78700 -0.02200
C 	C 	0.50251 0.62160 0.82984 -0.05800
C 	C 	0.53985 0.62091 0.82539 0.00100
C 	C 	0.55624 0.61829 0.77373 -0.07400
C 	C 	0.53489 0.61725 0.72629 -0.02200
H 	H 	0.42248 0.61364 0.65113 0.03300
H 	H 	0.48822 0.61464 0.64316 0.04300
H 	H 	0.43109 0.61983 0.82708 0.04700
H 	H 	0.49028 0.62335 0.87001 0.04200
H 	H 	0.55604 0.62229 0.86216 0.03300
H 	H 	0.54741 0.61511 0.68631 0.04700
C 	C 	0.27605 0.44933 0.39460 -0.07100
C 	C 	0.27220 0.42560 0.44218 0.00000
C 	C 	0.27281 0.44380 0.49391 -0.05700
C 	C 	0.27753 0.48594 0.49891 0.01200
C 	C 	0.28069 0.51013 0.45134 0.01200
C 	C 	0.27973 0.49177 0.39940 -0.02300
C 	C 	0.28550 0.55227 0.45632 -0.05800
C 	C 	0.28790 0.57020 0.50807 0.00100
C 	C 	0.28532 0.54629 0.55564 -0.07200
C 	C 	0.27975 0.50414 0.55089 -0.02100
H 	H 	0.26950 0.39288 0.43921 0.04000
H 	H 	0.27016 0.42497 0.53011 0.03900
H 	H 	0.28236 0.51037 0.36296 0.04100
H 	H 	0.28782 0.57114 0.42011 0.03900
H 	H 	0.29233 0.60267 0.51116 0.03700
H 	H 	0.27728 0.48558 0.58739 0.04100
C 	C 	0.30356 0.54371 0.89995 -0.06900
C 	C 	0.28982 0.56315 0.94686 0.00100
C 	C 	0.28931 0.54303 0.99734 -0.05600
C 	C 	0.30224 0.50311 0.00164 0.01000
C 	C 	0.31497 0.48291 0.95441 0.01400
C 	C 	0.31542 0.50320 0.90379 -0.02300
C 	C 	0.32749 0.44283 0.95849 -0.05900
C 	C 	0.32775 0.42303 0.00907 0.00500
C 	C 	0.31556 0.44305 0.05640 -0.07200
C 	C 	0.30274 0.48312 0.05258 -0.02100
H 	H 	0.27989 0.59403 0.94444 0.04000
H 	H 	0.27906 0.55866 0.03313 0.03800
H 	H 	0.32547 0.48768 0.86775 0.04100
H 	H 	0.33721 0.42701 0.92250 0.04100
H 	H 	0.33779 0.39218 0.01157 0.03900
H 	H 	0.29297 0.49850 0.08892 0.03200
C 	C 	0.92511 0.86499 0.27336 -0.07500
C 	C 	0.94148 0.86391 0.32514 0.00200
C 	C 	0.97881 0.86439 0.32970 -0.05900
C 	C 	0.00025 0.86596 0.28254 0.01400
C 	C 	0.98398 0.86659 0.23032 0.01100
C 	C 	0.94648 0.86602 0.22596 -0.02100
C 	C 	0.00544 0.86821 0.18316 -0.05700
C 	C 	0.04276 0.86967 0.18779 0.00000
C 	C 	0.05909 0.86953 0.23962 -0.07400
C 	C 	0.03772 0.86736 0.28695 -0.02300
H 	H 	0.92529 0.86261 0.36190 0.03200
H 	H 	0.99102 0.86369 0.36995 0.04300
H 	H 	0.93396 0.86706 0.18590 0.04600
H 	H 	0.99324 0.86849 0.14289 0.04200
H 	H 	0.05897 0.87085 0.15103 0.03300
H 	H 	0.05018 0.86745 0.32707 0.04700
C 	C 	0.19532 0.95352 0.06425 -0.07200
C 	C 	0.21128 0.99220 0.06633 0.00400
C 	C 	0.21273 0.01657 0.01950 -0.06000
C 	C 	0.19812 0.00265 0.97002 0.01400
C 	C 	0.18311 0.96325 0.96721 0.01200
C 	C 	0.18210 0.93869 0.01429 -0.02300
C 	C 	0.16834 0.94939 0.91783 -0.05900
C 	C 	0.16759 0.97477 0.87194 0.00100
C 	C 	0.18192 0.01430 0.87457 -0.07100
C 	C 	0.19758 0.02796 0.92365 -0.02200
H 	H 	0.22219 0.00361 0.10446 0.03200
H 	H 	0.22471 0.04654 0.02199 0.04000
H 	H 	0.16993 0.90875 0.01253 0.04000
H 	H 	0.15692 0.91916 0.91514 0.04000
H 	H 	0.15531 0.96386 0.83454 0.03100
H 	H 	0.20893 0.05827 0.92600 0.04600
C 	C 	0.18171 0.94467 0.39912 -0.07200
C 	C 	0.18820 0.92458 0.44901 0.00400
C 	C 	0.18889 0.94639 0.49803 -0.05700
C 	C 	0.18304 0.98850 0.49784 0.01100
C 	C 	0.17906 0.00927 0.44756 0.01500
C 	C 	0.17900 0.98730 0.39834 -0.02300
C 	C 	0.17339 0.05144 0.44741 -0.06000
C 	C 	0.16924 0.07238 0.49679 0.00700
C 	C 	0.17091 0.05135 0.54683 -0.07500
C 	C 	0.17937 0.00978 0.54724 -0.01900
H 	H 	0.19153 0.89188 0.45009 0.04000
H 	H 	0.19287 0.93033 0.53631 0.03900
H 	H 	0.17552 0.00315 0.35975 0.03600
H 	H 	0.17106 0.06782 0.40907 0.04000
H 	H 	0.16349 0.10465 0.49602 0.03900
H 	H 	0.18183 0.99379 0.58592 0.02900
C 	C 	0.29447 0.74028 0.55714 -0.07600
C 	C 	0.28239 0.78076 0.55979 -0.00100
C 	C 	0.26837 0.79977 0.51338 -0.05800
C 	C 	0.26624 0.77865 0.46366 0.01000
C 	C 	0.28046 0.73893 0.45969 0.01400
C 	C 	0.29476 0.72000 0.50639 -0.02200
C 	C 	0.27867 0.71801 0.40965 -0.06100
C 	C 	0.26112 0.73548 0.36485 0.00500
C 	C 	0.24510 0.77392 0.36969 -0.08200
C 	C 	0.24868 0.79598 0.41854 -0.01600
H 	H 	0.28257 0.79703 0.59834 0.02500
H 	H 	0.25819 0.83055 0.51656 0.03900
H 	H 	0.30492 0.68918 0.50364 0.04600
H 	H 	0.28998 0.68779 0.40585 0.04000
H 	H 	0.25875 0.71844 0.32706 0.01600
H 	H 	0.23688 0.82603 0.42191 0.04300
C 	C 	0.18789 0.75226 0.05522 -0.07400
C 	C 	0.19561 0.71038 0.05609 -0.00200
C 	C 	0.20907 0.69110 0.00954 -0.05800
C 	C 	0.21485 0.71331 0.96141 0.00900
C 	C 	0.20467 0.75466 0.95891 0.01500
C 	C 	0.19102 0.77393 0.00578 -0.02500
C 	C 	0.20991 0.77667 0.91033 -0.06300
C 	C 	0.22704 0.75843 0.86574 0.00700
C 	C 	0.23919 0.71815 0.86941 -0.08400
C 	C 	0.23209 0.69526 0.91658 -0.01500
H 	H 	0.19240 0.69300 0.09343 0.02800
H 	H 	0.21598 0.65912 0.01144 0.03900
H 	H 	0.18424 0.80597 0.00432 0.04700
H 	H 	0.20164 0.80819 0.90758 0.04100
H 	H 	0.23210 0.77611 0.82912 0.01400
H 	H 	0.24091 0.66387 0.91892 0.04100
