data_crystal

_cell_length_a 18.54550
_cell_length_b 18.80187
_cell_length_c 34.85454
_cell_angle_alpha 95.45023
_cell_angle_beta  95.44923
_cell_angle_gamma 126.40620

_symmetry_space_group_name_	'P 1'
_symmetry_space_group_name_H-M	'P 1'

loop_
_symmetry_equiv_pos_as_xyz
  x,y,z

loop_
_atom_site_label
_atom_site_type_symbol
_atom_site_fract_x
_atom_site_fract_y
_atom_site_fract_z
_atom_site_charge
C 	C 	0.89544 0.99466 0.96023 0.29500
N 	N 	0.98584 0.04780 0.95911 -0.12700
C 	C 	0.03155 0.01233 0.95812 0.26800
N 	N 	0.98693 0.92346 0.95801 -0.11100
C 	C 	0.89672 0.86965 0.95926 0.27300
N 	N 	0.85065 0.90530 0.96071 -0.11000
C 	C 	0.96000 0.03819 0.50159 0.26000
N 	N 	0.05114 0.08302 0.50345 -0.10500
C 	C 	0.08651 0.03708 0.50363 0.26300
N 	N 	0.03080 0.94682 0.50166 -0.09400
C 	C 	0.93961 0.90170 0.49860 0.26900
N 	N 	0.90431 0.94752 0.49865 -0.10000
Cu	Cu	0.74706 0.34131 0.95928 0.93500
Cu	Cu	0.73692 0.28102 0.04501 0.90900
Cu	Cu	0.59932 0.29696 0.00680 0.92100
Cu	Cu	0.57659 0.33056 0.92576 0.92000
C 	C 	0.68491 0.30542 0.87587 0.34300
O 	O 	0.79837 0.47161 0.95611 -0.30500
C 	C 	0.65654 0.33499 0.09377 0.34300
O 	O 	0.60449 0.26617 0.95347 -0.64100
O 	O 	0.73351 0.35937 0.01416 -0.62700
O 	O 	0.80903 0.28340 0.96669 -0.30900
O 	O 	0.70978 0.19065 0.00371 -0.36700
O 	O 	0.64595 0.34439 0.88289 -0.33200
O 	O 	0.46798 0.22840 0.99670 -0.33400
C 	C 	0.41790 0.22472 0.96579 0.40200
C 	C 	0.75513 0.50440 0.96625 0.37700
O 	O 	0.67014 0.44935 0.97055 -0.35800
O 	O 	0.45477 0.27711 0.93978 -0.33800
O 	O 	0.73679 0.30494 0.90444 -0.28800
C 	C 	0.76942 0.20899 0.98123 0.36900
O 	O 	0.59279 0.31001 0.06321 -0.30300
O 	O 	0.73084 0.34321 0.08944 -0.37300
H 	H 	0.56629 0.20072 0.94296 0.20000
H 	H 	0.77064 0.42289 0.02780 0.21300
Cu	Cu	0.62830 0.20495 0.50835 0.94000
Cu	Cu	0.69068 0.21358 0.42331 0.91400
Cu	Cu	0.65373 0.33781 0.45694 0.91500
Cu	Cu	0.63605 0.37225 0.53921 0.92000
C 	C 	0.66746 0.27266 0.59103 0.34400
O 	O 	0.49767 0.15421 0.51270 -0.30400
C 	C 	0.63275 0.28617 0.37186 0.34200
O 	O 	0.69947 0.34414 0.51037 -0.63600
O 	O 	0.60467 0.20937 0.45257 -0.63200
O 	O 	0.68562 0.14332 0.50211 -0.30900
O 	O 	0.78050 0.24171 0.46572 -0.37400
O 	O 	0.62404 0.30656 0.58280 -0.33500
O 	O 	0.70952 0.46484 0.46211 -0.32500
C 	C 	0.72466 0.52060 0.49352 0.39500
C 	C 	0.46128 0.19289 0.50074 0.38100
O 	O 	0.51428 0.27654 0.49566 -0.35900
O 	O 	0.69356 0.49270 0.52579 -0.32900
O 	O 	0.67086 0.22233 0.56333 -0.28900
C 	C 	0.76099 0.18206 0.48778 0.38300
O 	O 	0.62244 0.32979 0.40020 -0.32800
O 	O 	0.62916 0.21568 0.37691 -0.34600
H 	H 	0.76677 0.38509 0.51834 0.20100
H 	H 	0.54018 0.16625 0.43897 0.21100
C 	C 	0.77684 0.30525 0.78364 -0.11800
C 	C 	0.69822 0.26427 0.75483 0.02500
C 	C 	0.61377 0.22772 0.76618 0.30900
C 	C 	0.60897 0.23657 0.80595 -0.04700
C 	C 	0.68836 0.28226 0.83479 -0.10900
C 	C 	0.77219 0.31452 0.82349 0.39600
C 	C 	0.70579 0.26861 0.71317 0.02600
F 	F 	0.53707 0.18737 0.73861 -0.38200
H 	H 	0.54390 0.21055 0.81434 0.11700
F 	F 	0.84979 0.35903 0.85092 -0.37700
H 	H 	0.84213 0.33297 0.77513 0.15600
C 	C 	0.74518 0.35077 0.70037 0.30800
C 	C 	0.73832 0.35261 0.66024 -0.04600
C 	C 	0.69182 0.27252 0.63251 -0.11200
C 	C 	0.65756 0.19103 0.64535 0.39600
C 	C 	0.66476 0.18929 0.68556 -0.11800
F 	F 	0.78591 0.42814 0.72677 -0.38100
H 	H 	0.76588 0.41588 0.65065 0.11300
F 	F 	0.61265 0.11290 0.61897 -0.37500
H 	H 	0.63511 0.12577 0.69522 0.15600
C 	C 	0.69397 0.32384 0.27172 -0.12500
C 	C 	0.63438 0.34018 0.25512 0.02500
C 	C 	0.57626 0.34225 0.27752 0.30800
C 	C 	0.57700 0.32660 0.31604 -0.04200
C 	C 	0.63544 0.30836 0.33230 -0.11900
C 	C 	0.69485 0.30836 0.31009 0.38200
C 	C 	0.63032 0.35075 0.21368 0.02900
F 	F 	0.51880 0.35875 0.26190 -0.37800
H 	H 	0.53102 0.32693 0.33291 0.13200
F 	F 	0.75374 0.29362 0.32580 -0.41200
H 	H 	0.73900 0.32215 0.25465 0.14600
C 	C 	0.70736 0.42330 0.20192 0.30500
C 	C 	0.71297 0.42145 0.16214 -0.04500
C 	C 	0.64136 0.34763 0.13377 -0.11800
C 	C 	0.56074 0.27930 0.14526 0.38400
C 	C 	0.55547 0.28085 0.18509 -0.12600
F 	F 	0.77883 0.49314 0.22921 -0.38000
H 	H 	0.77459 0.47551 0.15351 0.12500
F 	F 	0.49011 0.20823 0.11812 -0.39500
H 	H 	0.49527 0.22514 0.19385 0.15200
C 	C 	0.84563 0.65884 0.47074 0.29800
C 	C 	0.77414 0.61669 0.49186 -0.18900
C 	C 	0.75283 0.66773 0.51277 0.30000
C 	C 	0.80599 0.76062 0.51456 0.26900
C 	C 	0.87911 0.80308 0.49437 -0.12500
C 	C 	0.89675 0.75119 0.47146 0.26800
F 	F 	0.96378 0.79045 0.44995 -0.34300
F 	F 	0.86730 0.61076 0.45042 -0.36300
F 	F 	0.78802 0.80974 0.53682 -0.33100
F 	F 	0.68053 0.62727 0.53136 -0.35200
C 	C 	0.91427 0.11840 0.46654 0.26700
C 	C 	0.92066 0.08661 0.50050 -0.12700
C 	C 	0.87853 0.09044 0.53121 0.26900
C 	C 	0.82808 0.12347 0.52751 0.29900
C 	C 	0.81821 0.15169 0.49275 -0.19200
C 	C 	0.86267 0.14999 0.46244 0.29300
F 	F 	0.85283 0.17550 0.42838 -0.37800
F 	F 	0.95454 0.11463 0.43666 -0.33800
F 	F 	0.78910 0.12831 0.55772 -0.34800
F 	F 	0.88535 0.06079 0.56440 -0.33700
C 	C 	0.23575 0.07778 0.53445 0.26800
C 	C 	0.18433 0.08395 0.50459 -0.12500
C 	C 	0.22341 0.12386 0.47292 0.27000
C 	C 	0.31282 0.15624 0.47086 0.29600
C 	C 	0.36412 0.14950 0.50061 -0.19200
C 	C 	0.32519 0.11040 0.53251 0.29700
F 	F 	0.37497 0.10648 0.56222 -0.35100
F 	F 	0.19874 0.03983 0.56533 -0.34400
F 	F 	0.34943 0.19344 0.43978 -0.36700
F 	F 	0.17371 0.12860 0.44351 -0.33400
C 	C 	0.82851 0.63571 0.93207 0.29400
C 	C 	0.79505 0.59946 0.96529 -0.18900
C 	C 	0.78757 0.64981 0.99496 0.28300
C 	C 	0.81475 0.73602 0.99173 0.25700
C 	C 	0.84967 0.77281 0.95883 -0.12400
C 	C 	0.85525 0.72163 0.92879 0.26700
F 	F 	0.88795 0.75590 0.89660 -0.33200
F 	F 	0.83274 0.58669 0.90242 -0.35300
F 	F 	0.81025 0.78505 0.02127 -0.32100
F 	F 	0.75467 0.61545 0.02710 -0.35400
C 	C 	0.82363 0.04758 0.99858 0.23700
C 	C 	0.84786 0.03548 0.96295 -0.13300
C 	C 	0.84278 0.07762 0.93265 0.26400
C 	C 	0.81681 0.13382 0.93842 0.30200
C 	C 	0.79627 0.14901 0.97471 -0.21000
C 	C 	0.79875 0.10453 0.00461 0.32900
F 	F 	0.78040 0.11909 0.04006 -0.38500
F 	F 	0.82893 0.00794 0.02819 -0.32500
F 	F 	0.81120 0.17298 0.90868 -0.35500
F 	F 	0.86515 0.06576 0.89789 -0.34700
C 	C 	0.28415 0.18672 0.99472 0.29500
C 	C 	0.31909 0.17158 0.96359 -0.19400
C 	C 	0.25917 0.10682 0.92991 0.30200
C 	C 	0.16494 0.05616 0.92772 0.25400
C 	C 	0.13001 0.07059 0.95901 -0.12400
C 	C 	0.18990 0.13661 0.99236 0.25500
F 	F 	0.15664 0.15064 0.02286 -0.33000
F 	F 	0.34161 0.25058 0.02707 -0.33600
F 	F 	0.10742 0.99273 0.89527 -0.31500
F 	F 	0.29239 0.09199 0.89961 -0.37300
