data_crystal

_cell_length_a 20.32631
_cell_length_b 21.80897
_cell_length_c 39.71471
_cell_angle_alpha 60.70052
_cell_angle_beta  119.03786
_cell_angle_gamma 133.27604

_symmetry_space_group_name_	'P 1'
_symmetry_space_group_name_H-M	'P 1'

loop_
_symmetry_equiv_pos_as_xyz
  x,y,z

loop_
_atom_site_label
_atom_site_type_symbol
_atom_site_fract_x
_atom_site_fract_y
_atom_site_fract_z
_atom_site_charge
O 	O 	0.00379 0.94135 0.69361 -0.38600
Co	Co	0.01391 0.88270 0.59447 1.18500
Br	Br	0.00862 0.73266 0.00490 -0.24500
H 	H 	0.01488 0.09214 0.32582 0.05800
C 	C 	0.00058 0.94290 0.97167 0.24800
O 	O 	0.01497 0.08717 0.03253 -0.44700
C 	C 	0.01611 0.02143 0.89990 0.08700
C 	C 	0.01676 0.00842 0.45670 0.25900
H 	H 	0.99786 0.17050 0.34717 0.13300
O 	O 	0.01678 0.88576 0.99845 -0.36200
H 	H 	0.11010 0.52750 0.12586 0.09200
H 	H 	0.14482 0.54282 0.64096 0.09800
Co	Co	0.96261 0.04465 0.07829 1.19200
Co	Co	0.04715 0.00949 0.04052 1.17600
Co	Co	0.12867 0.91777 0.04590 1.18000
C 	C 	0.23664 0.10808 0.03209 0.34300
O 	O 	0.97991 0.01860 0.19166 -0.37200
C 	C 	0.98704 0.95526 0.21672 0.29800
C 	C 	0.02598 0.17683 0.11366 0.31400
C 	C 	0.21066 0.88691 0.12964 0.32400
O 	O 	0.99477 0.91284 0.20467 -0.34900
O 	O 	0.22973 0.94854 0.09699 -0.36100
O 	O 	0.14828 0.86444 0.14450 -0.34400
O 	O 	0.93884 0.12619 0.11553 -0.37300
O 	O 	0.05610 0.15169 0.10316 -0.36800
O 	O 	0.05881 0.92678 0.06638 -0.75400
O 	O 	0.19622 0.04768 0.01509 -0.40100
O 	O 	0.18946 0.10207 0.04878 -0.37900
Co	Co	0.02245 0.10826 0.57469 1.18400
Co	Co	0.06665 0.04621 0.53182 1.18300
Co	Co	0.10100 0.92710 0.52769 1.18600
C 	C 	0.26066 0.10881 0.53516 0.33900
O 	O 	0.91881 0.97989 0.68817 -0.38300
C 	C 	0.97663 0.95918 0.71008 0.32500
O 	O 	0.06320 0.14104 0.52733 -0.44400
C 	C 	0.12338 0.22744 0.62999 0.32300
C 	C 	0.14876 0.84562 0.61450 0.33800
O 	O 	0.11109 0.83536 0.57837 -0.37900
O 	O 	0.12205 0.86842 0.62820 -0.35400
O 	O 	0.07348 0.16000 0.65586 -0.38800
O 	O 	0.12489 0.21751 0.59956 -0.34600
O 	O 	0.06332 0.95604 0.55527 -0.76000
O 	O 	0.23447 0.02830 0.54621 -0.36100
O 	O 	0.20156 0.12763 0.52390 -0.35700
C 	C 	0.06896 0.98211 0.81461 -0.09600
C 	C 	0.98509 0.92977 0.75397 -0.07500
C 	C 	0.06990 0.97972 0.77968 0.10200
C 	C 	0.16112 0.02808 0.77078 -0.22700
H 	H 	0.13401 0.01866 0.83472 0.07100
C 	C 	0.01960 0.01927 0.86559 -0.10100
C 	C 	0.05327 0.10600 0.90400 -0.23800
H 	H 	0.04989 0.07869 0.84284 0.07400
H 	H 	0.16786 0.98108 0.77143 0.10900
H 	H 	0.22116 0.06636 0.79282 0.10700
H 	H 	0.16452 0.07364 0.74092 0.11100
H 	H 	0.96122 0.79072 0.87724 0.10400
H 	H 	0.08891 0.16171 0.88009 0.11100
H 	H 	0.10418 0.11835 0.93287 0.11600
C 	C 	0.05360 0.97315 0.32010 -0.09400
C 	C 	0.97871 0.92771 0.25812 -0.06100
C 	C 	0.05917 0.96463 0.28849 0.09700
C 	C 	0.15167 0.99874 0.28646 -0.20300
H 	H 	0.11573 0.00306 0.34282 0.07200
C 	C 	0.98915 0.05299 0.38244 0.13300
C 	C 	0.99145 0.03933 0.35172 -0.06900
C 	C 	0.01885 0.14061 0.37862 -0.29400
H 	H 	0.14319 0.95407 0.27622 0.10100
H 	H 	0.20110 0.00433 0.31610 0.09600
H 	H 	0.18201 0.06385 0.26549 0.10700
H 	H 	0.09548 0.18403 0.38894 0.12900
C 	C 	0.19908 0.38237 0.67737 0.06700
C 	C 	0.17015 0.31489 0.63324 -0.11000
C 	C 	0.20269 0.32639 0.67155 0.11300
Br	Br	0.25776 0.26975 0.71534 -0.18400
Br	Br	0.21922 0.38146 0.73019 -0.16200
C 	C 	0.19398 0.67938 0.67184 0.07300
C 	C 	0.16875 0.73100 0.66634 0.11700
C 	C 	0.20832 0.81566 0.64108 -0.10400
C 	C 	0.28249 0.85061 0.62745 0.11400
Br	Br	0.36870 0.97386 0.61042 -0.14300
Br	Br	0.07897 0.68534 0.69214 -0.15400
C 	C 	0.10790 0.40732 0.08860 0.06900
C 	C 	0.08524 0.26704 0.11780 -0.10400
C 	C 	0.08347 0.33278 0.08410 0.11000
Br	Br	0.05436 0.32373 0.03217 -0.16200
Br	Br	0.10074 0.49467 0.04252 -0.14900
C 	C 	0.26760 0.77666 0.11086 0.07200
C 	C 	0.28395 0.84434 0.11727 0.09800
C 	C 	0.23363 0.82520 0.14028 -0.09800
C 	C 	0.19094 0.74112 0.16643 0.11400
Br	Br	0.15372 0.72079 0.20925 -0.14700
Br	Br	0.38742 0.96184 0.10109 -0.15600
Br	Br	0.29638 0.79702 0.06525 -0.15000
Br	Br	0.27634 0.20793 0.44558 -0.18500
Br	Br	0.81945 0.18391 0.97567 -0.11600
C 	C 	0.72444 0.26208 0.04741 0.10700
C 	C 	0.79766 0.34048 0.05974 -0.07900
C 	C 	0.77749 0.38936 0.06139 0.10800
C 	C 	0.68517 0.35781 0.05278 -0.08700
C 	C 	0.61257 0.27780 0.04324 0.11200
C 	C 	0.63174 0.23208 0.03845 -0.08300
H 	H 	0.86914 0.36324 0.06781 0.10000
H 	H 	0.66975 0.39477 0.05458 0.09100
H 	H 	0.57484 0.17093 0.02997 0.09700
C 	C 	0.75397 0.31984 0.52450 0.10900
C 	C 	0.82098 0.39768 0.53757 -0.08000
C 	C 	0.79197 0.44003 0.53860 0.10900
C 	C 	0.69717 0.40146 0.52942 -0.09000
C 	C 	0.63131 0.32038 0.52078 0.11400
C 	C 	0.65908 0.28368 0.51467 -0.08400
H 	H 	0.89422 0.42513 0.54642 0.10700
H 	H 	0.67457 0.43228 0.53137 0.09100
H 	H 	0.60690 0.22378 0.50498 0.10100
C 	C 	0.25298 0.63725 0.14237 0.10500
C 	C 	0.18291 0.55485 0.13301 -0.07500
C 	C 	0.20869 0.50904 0.13249 0.10800
C 	C 	0.30245 0.54696 0.13938 -0.08600
C 	C 	0.37130 0.62869 0.14730 0.11400
C 	C 	0.34729 0.67199 0.15076 -0.08100
H 	H 	0.32197 0.51282 0.13805 0.09300
H 	H 	0.40158 0.73503 0.15759 0.09700
C 	C 	0.28276 0.65955 0.65467 0.11000
C 	C 	0.21902 0.57520 0.64811 -0.08100
C 	C 	0.25274 0.53412 0.65014 0.11300
C 	C 	0.34807 0.57827 0.65679 -0.09000
C 	C 	0.40906 0.66483 0.65787 0.11700
C 	C 	0.37839 0.70209 0.66139 -0.08600
H 	H 	0.37375 0.54735 0.65748 0.09500
H 	H 	0.42792 0.76742 0.66564 0.10400
Co	Co	0.02462 0.85789 0.10951 1.18000
Co	Co	0.93508 0.88982 0.14655 1.18700
C 	C 	0.98270 0.73070 0.07797 0.35900
Co	Co	0.86935 0.99433 0.14354 1.17800
O 	O 	0.92574 0.97454 0.12085 -0.73800
O 	O 	0.96908 0.81339 0.15457 -0.41700
O 	O 	0.96803 0.93569 0.08804 -0.55600
C 	C 	0.74886 0.80235 0.15614 0.34900
O 	O 	0.79400 0.86433 0.17305 -0.39900
O 	O 	0.79365 0.79714 0.14347 -0.36000
O 	O 	0.99465 0.98870 0.98239 -0.32300
C 	C 	0.78406 0.02760 0.05990 0.31900
O 	O 	0.76677 0.96654 0.09268 -0.36200
O 	O 	0.84904 0.05485 0.04499 -0.33400
O 	O 	0.06984 0.78781 0.07576 -0.39600
O 	O 	0.94478 0.74824 0.08834 -0.35400
Co	Co	0.95004 0.93739 0.63307 1.19400
C 	C 	0.92397 0.76529 0.54167 0.32200
Co	Co	0.93435 0.07480 0.63584 1.18400
O 	O 	0.97824 0.03950 0.61495 -0.74600
O 	O 	0.95210 0.84179 0.63639 -0.41600
O 	O 	0.04132 0.00489 0.59167 -0.58100
C 	C 	0.76779 0.90205 0.62290 0.33100
O 	O 	0.80030 0.98428 0.61142 -0.35000
O 	O 	0.80676 0.87684 0.61852 -0.36400
O 	O 	0.09273 0.01291 0.47397 -0.37200
O 	O 	0.98221 0.00977 0.47728 -0.35000
C 	C 	0.89719 0.15609 0.55038 0.34300
O 	O 	0.93976 0.17250 0.58526 -0.38600
O 	O 	0.90793 0.11314 0.54135 -0.36000
O 	O 	0.96201 0.83148 0.51286 -0.36600
O 	O 	0.91178 0.77649 0.56782 -0.34300
C 	C 	0.98417 0.93859 0.82312 0.02400
C 	C 	0.89984 0.88848 0.79724 0.05000
C 	C 	0.90226 0.87578 0.76641 -0.01200
C 	C 	0.98422 0.94065 0.86073 0.02400
C 	C 	0.80759 0.85553 0.79927 -0.20000
H 	H 	0.83711 0.83418 0.74791 0.06800
C 	C 	0.94213 0.86316 0.89008 0.05800
C 	C 	0.92690 0.86423 0.92077 -0.02800
C 	C 	0.97276 0.94320 0.92887 -0.03600
C 	C 	0.91287 0.77902 0.88899 -0.20000
H 	H 	0.88810 0.80344 0.94127 0.08000
H 	H 	0.77634 0.88393 0.77071 0.11900
H 	H 	0.81267 0.87315 0.82271 0.09500
H 	H 	0.75968 0.78374 0.80436 0.10000
H 	H 	0.91313 0.73535 0.91920 0.12000
H 	H 	0.84132 0.74454 0.87040 0.09300
H 	H 	0.99513 0.10302 0.90244 0.12500
C 	C 	0.96865 0.94513 0.32183 0.02900
C 	C 	0.88783 0.90499 0.29242 0.04800
C 	C 	0.89263 0.89096 0.26281 -0.02500
C 	C 	0.96461 0.95812 0.35464 0.00500
C 	C 	0.79753 0.88199 0.29081 -0.18900
H 	H 	0.83000 0.85876 0.24109 0.06800
C 	C 	0.92895 0.88837 0.38749 0.05900
C 	C 	0.92174 0.90162 0.41668 -0.02900
C 	C 	0.96381 0.98591 0.41735 -0.06200
C 	C 	0.90720 0.80257 0.39370 -0.19900
H 	H 	0.89183 0.84752 0.44102 0.07200
H 	H 	0.80835 0.94040 0.28943 0.09300
H 	H 	0.77116 0.83063 0.31745 0.09000
H 	H 	0.74289 0.85760 0.26419 0.09500
H 	H 	0.87685 0.75394 0.41991 0.10800
H 	H 	0.97205 0.81206 0.39866 0.11500
H 	H 	0.85637 0.77503 0.36750 0.09600
H 	H 	0.98577 0.13496 0.39648 0.13300
C 	C 	0.19023 0.44542 0.64488 -0.04100
C 	C 	0.15778 0.43518 0.60631 0.07200
C 	C 	0.15338 0.37372 0.60021 0.11100
Br	Br	0.13883 0.37956 0.54735 -0.15400
Br	Br	0.12305 0.50779 0.56188 -0.15500
C 	C 	0.59813 0.78335 0.60682 0.12700
C 	C 	0.67642 0.83702 0.63258 -0.10800
C 	C 	0.66409 0.83568 0.66507 0.11400
C 	C 	0.58121 0.76681 0.67720 0.07600
C 	C 	0.50120 0.71943 0.65005 -0.03900
C 	C 	0.50932 0.73039 0.61371 0.07500
Br	Br	0.40025 0.68324 0.57158 -0.13300
Br	Br	0.61106 0.78775 0.56050 -0.14600
Br	Br	0.57760 0.73793 0.73077 -0.19100
Br	Br	0.74106 0.93954 0.68266 -0.20800
C 	C 	0.28965 0.79470 0.62405 0.07200
C 	C 	0.25050 0.70943 0.64851 -0.03600
Br	Br	0.33762 0.82963 0.58142 -0.14300
Br	Br	0.15701 0.57249 0.71274 -0.15100
C 	C 	0.13942 0.41903 0.12683 -0.04000
C 	C 	0.13543 0.35080 0.16012 0.07000
C 	C 	0.11760 0.27971 0.15584 0.10900
Br	Br	0.14805 0.20592 0.20166 -0.19700
Br	Br	0.16182 0.35854 0.21205 -0.16100
C 	C 	0.49633 0.70510 0.11434 0.07500
C 	C 	0.46866 0.67078 0.14955 -0.03800
C 	C 	0.52802 0.66168 0.18669 0.06900
C 	C 	0.61641 0.69125 0.18852 0.11800
C 	C 	0.64842 0.73605 0.15360 -0.11800
C 	C 	0.58552 0.73591 0.11647 0.12300
Br	Br	0.62127 0.77698 0.06868 -0.16200
Br	Br	0.41188 0.70967 0.06327 -0.13000
Br	Br	0.69278 0.66792 0.23848 -0.17100
Br	Br	0.48790 0.60827 0.23492 -0.15900
C 	C 	0.19027 0.67602 0.16534 0.07400
C 	C 	0.22972 0.69418 0.13749 -0.03600
Br	Br	0.13609 0.56332 0.20188 -0.15200
C 	C 	0.83823 0.30899 0.49911 0.07500
C 	C 	0.78160 0.27151 0.52427 -0.03400
C 	C 	0.73972 0.18264 0.54453 0.06900
C 	C 	0.75280 0.13405 0.53828 0.11300
C 	C 	0.82966 0.17701 0.52426 -0.10700
C 	C 	0.86308 0.26145 0.49963 0.12200
Br	Br	0.93644 0.30839 0.46496 -0.12500
Br	Br	0.87424 0.41997 0.46186 -0.12400
Br	Br	0.65744 0.01251 0.54134 -0.14400
Br	Br	0.67689 0.13063 0.58488 -0.14800
C 	C 	0.90471 0.60165 0.52004 0.07000
C 	C 	0.85962 0.52549 0.54874 -0.03400
C 	C 	0.85654 0.53252 0.58135 0.07000
C 	C 	0.87330 0.60858 0.57946 0.11800
C 	C 	0.91430 0.68467 0.54907 -0.11100
C 	C 	0.94308 0.68205 0.52367 0.13100
Br	Br	0.04889 0.78443 0.50118 -0.27800
Br	Br	0.90897 0.59638 0.47422 -0.14700
Br	Br	0.83811 0.60513 0.61792 -0.14100
Br	Br	0.83116 0.43876 0.62847 -0.12600
C 	C 	0.37456 0.21835 0.49271 0.12200
C 	C 	0.35605 0.17980 0.53058 -0.11200
C 	C 	0.42945 0.19479 0.56455 0.12500
C 	C 	0.51726 0.23288 0.56165 0.07500
C 	C 	0.53559 0.26888 0.52392 -0.03900
C 	C 	0.46485 0.26409 0.48940 0.07100
Br	Br	0.49181 0.32018 0.43773 -0.15900
Br	Br	0.60966 0.22928 0.60917 -0.12300
Br	Br	0.40971 0.16532 0.61472 -0.15800
C 	C 	0.69486 0.05674 0.06923 0.09600
C 	C 	0.75022 0.08107 0.04723 -0.10000
C 	C 	0.78768 0.16392 0.02025 0.11400
C 	C 	0.78365 0.22566 0.02135 0.06900
C 	C 	0.74287 0.20427 0.04955 -0.03600
C 	C 	0.70427 0.12070 0.07526 0.07000
Br	Br	0.66861 0.09468 0.12003 -0.16300
Br	Br	0.59459 0.93678 0.08466 -0.15300
Br	Br	0.83065 0.33713 0.98363 -0.11300
C 	C 	0.93609 0.63241 0.04264 0.13600
C 	C 	0.93262 0.64189 0.07458 -0.11900
C 	C 	0.89881 0.56887 0.10672 0.12000
C 	C 	0.86330 0.48711 0.10532 0.06900
C 	C 	0.85218 0.47586 0.07038 -0.03400
C 	C 	0.89163 0.54928 0.03965 0.06100
Br	Br	0.87991 0.53557 0.99214 -0.13100
Br	Br	0.82861 0.38978 0.15096 -0.13100
Br	Br	0.90451 0.58071 0.15329 -0.13700
C 	C 	0.48668 0.20097 0.07582 0.07400
C 	C 	0.51651 0.23986 0.04067 -0.03800
C 	C 	0.46056 0.25564 0.00381 0.06400
C 	C 	0.37252 0.22683 0.00197 0.11600
C 	C 	0.33739 0.17626 0.03628 -0.11900
C 	C 	0.39831 0.17215 0.07359 0.12400
Br	Br	0.36274 0.13175 0.12129 -0.16800
Br	Br	0.56648 0.18668 0.12687 -0.12800
Br	Br	0.30194 0.26022 0.95320 -0.17700
Br	Br	0.50455 0.31654 0.95600 -0.15000
