data_crystal

_cell_length_a 26.14925
_cell_length_b 26.51664
_cell_length_c 34.92664
_cell_angle_alpha 95.50960
_cell_angle_beta  95.50664
_cell_angle_gamma 125.81371

_symmetry_space_group_name_	'P 1'
_symmetry_space_group_name_H-M	'P 1'

loop_
_symmetry_equiv_pos_as_xyz
  x,y,z

loop_
_atom_site_label
_atom_site_type_symbol
_atom_site_fract_x
_atom_site_fract_y
_atom_site_fract_z
_atom_site_charge
C 	C 	0.95274 0.01166 0.99070 0.15200
C 	C 	0.01757 0.04686 0.98717 -0.10600
C 	C 	0.04658 0.01653 0.98197 0.15100
C 	C 	0.01073 0.95102 0.98026 -0.10600
C 	C 	0.94611 0.91582 0.98402 0.15100
C 	C 	0.91708 0.94611 0.98902 -0.10600
H 	H 	0.04530 0.09758 0.98854 0.11500
H 	H 	0.03321 0.92759 0.97637 0.11600
H 	H 	0.86695 0.91880 0.99167 0.11600
C 	C 	0.94320 0.01437 0.45887 0.14800
C 	C 	0.00983 0.05104 0.46081 -0.11500
C 	C 	0.04165 0.02326 0.46409 0.14900
C 	C 	0.00689 0.95878 0.46570 -0.09600
C 	C 	0.94026 0.92175 0.46354 0.14600
C 	C 	0.90836 0.94959 0.46023 -0.10100
H 	H 	0.03681 0.10103 0.45974 0.10300
H 	H 	0.03160 0.93737 0.46848 0.11900
H 	H 	0.85680 0.92102 0.45852 0.12000
Cu	Cu	0.62473 0.22457 0.00268 0.94100
Cu	Cu	0.67958 0.22742 0.92200 0.90100
Cu	Cu	0.66573 0.32575 0.95269 0.91000
Cu	Cu	0.63602 0.34758 0.03004 0.91700
C 	C 	0.64263 0.27071 0.08422 0.40300
O 	O 	0.53299 0.19482 0.00096 -0.29900
C 	C 	0.65551 0.28850 0.86794 0.39500
O 	O 	0.68276 0.32354 0.00701 -0.63500
O 	O 	0.61938 0.23243 0.94704 -0.63500
O 	O 	0.65867 0.17414 0.00027 -0.33200
O 	O 	0.73525 0.24022 0.96710 -0.37900
O 	O 	0.61695 0.29890 0.07352 -0.33800
O 	O 	0.71623 0.41698 0.96087 -0.35300
C 	C 	0.70954 0.45283 0.98560 0.35000
C 	C 	0.51278 0.22530 0.98588 0.33100
O 	O 	0.55467 0.28459 0.98262 -0.36900
O 	O 	0.68382 0.43399 0.01696 -0.32900
O 	O 	0.64446 0.23252 0.05821 -0.32000
C 	C 	0.71418 0.19768 0.98960 0.34600
O 	O 	0.65723 0.32693 0.89615 -0.33000
O 	O 	0.64586 0.23547 0.87400 -0.35900
H 	H 	0.72884 0.34873 0.01896 0.20900
H 	H 	0.57551 0.20713 0.93112 0.21200
Cu	Cu	0.74803 0.35616 0.45577 0.94000
Cu	Cu	0.74713 0.30857 0.53902 0.90000
Cu	Cu	0.64350 0.31479 0.50450 0.91000
Cu	Cu	0.62313 0.34375 0.42641 0.91600
C 	C 	0.70196 0.33542 0.37358 0.40200
O 	O 	0.77867 0.44664 0.45570 -0.29700
C 	C 	0.68478 0.33560 0.59065 0.39700
O 	O 	0.64754 0.29863 0.45061 -0.63700
O 	O 	0.73872 0.36348 0.51109 -0.63300
O 	O 	0.79856 0.32189 0.46002 -0.30300
O 	O 	0.73292 0.25015 0.49572 -0.41000
O 	O 	0.67244 0.36036 0.38299 -0.33900
O 	O 	0.55081 0.26269 0.49472 -0.34800
C 	C 	0.51446 0.26861 0.46946 0.34900
C 	C 	0.74675 0.46677 0.46880 0.33400
O 	O 	0.68710 0.42543 0.47281 -0.37100
O 	O 	0.53588 0.29908 0.44011 -0.33200
O 	O 	0.74080 0.33507 0.40048 -0.31800
C 	C 	0.77489 0.26840 0.47251 0.34300
O 	O 	0.63898 0.31834 0.56080 -0.33400
O 	O 	0.73910 0.34584 0.58524 -0.36200
H 	H 	0.62266 0.25324 0.43870 0.20000
H 	H 	0.76270 0.40727 0.52594 0.21500
C 	C 	0.62405 0.33240 0.77312 0.23800
C 	C 	0.66162 0.32448 0.75084 0.00100
C 	C 	0.69788 0.30588 0.76731 0.23300
C 	C 	0.69635 0.29489 0.80566 0.31500
C 	C 	0.65818 0.30198 0.82790 -0.20300
C 	C 	0.62222 0.32112 0.81152 0.32000
C 	C 	0.66154 0.33350 0.70981 0.00200
F 	F 	0.73420 0.29794 0.74594 -0.33900
F 	F 	0.58435 0.32724 0.83242 -0.35900
C 	C 	0.71552 0.38706 0.69990 0.23600
C 	C 	0.72129 0.38976 0.66060 0.31900
C 	C 	0.67299 0.33895 0.63090 -0.20400
C 	C 	0.61674 0.28763 0.64072 0.31500
C 	C 	0.61114 0.28488 0.68004 0.23400
F 	F 	0.76357 0.43528 0.72847 -0.33000
F 	F 	0.56922 0.23861 0.61231 -0.36700
F 	F 	0.77459 0.44096 0.65141 -0.36200
F 	F 	0.55821 0.23341 0.68932 -0.33100
F 	F 	0.58889 0.35045 0.75743 -0.32600
F 	F 	0.73247 0.27789 0.82141 -0.37900
C 	C 	0.72736 0.29758 0.18606 0.23800
C 	C 	0.67866 0.28095 0.20761 0.00200
C 	C 	0.61653 0.25495 0.18796 0.23200
C 	C 	0.60398 0.24882 0.14731 0.32100
C 	C 	0.65353 0.26872 0.12596 -0.20400
C 	C 	0.71476 0.29129 0.14531 0.31600
C 	C 	0.69410 0.29701 0.25078 0.00200
F 	F 	0.56890 0.23782 0.20850 -0.33600
F 	F 	0.76268 0.30954 0.12485 -0.36800
C 	C 	0.72080 0.35873 0.26975 0.23200
C 	C 	0.72624 0.37202 0.31027 0.32200
C 	C 	0.70494 0.32365 0.33215 -0.20300
C 	C 	0.68169 0.26278 0.31353 0.31600
C 	C 	0.67610 0.24944 0.27292 0.23800
F 	F 	0.73927 0.40526 0.24866 -0.33600
F 	F 	0.66210 0.21599 0.33454 -0.37300
F 	F 	0.75109 0.43164 0.32822 -0.36100
F 	F 	0.65128 0.18987 0.25490 -0.32900
F 	F 	0.78732 0.32172 0.20476 -0.32900
F 	F 	0.54393 0.22455 0.12868 -0.36100
C 	C 	0.86517 0.64521 0.48194 -0.13300
C 	C 	0.82382 0.66147 0.47248 0.02800
C 	C 	0.75722 0.61431 0.46393 0.31100
C 	C 	0.73218 0.55108 0.46383 -0.04800
C 	C 	0.77349 0.53428 0.47221 -0.12200
C 	C 	0.84022 0.58194 0.48197 0.38500
C 	C 	0.85046 0.72737 0.46956 0.01100
F 	F 	0.71681 0.62961 0.45488 -0.38400
H 	H 	0.68070 0.51493 0.45625 0.11500
F 	F 	0.88081 0.56708 0.49169 -0.40500
H 	H 	0.91665 0.68155 0.48890 0.14200
C 	C 	0.85625 0.76834 0.50124 0.32500
C 	C 	0.88293 0.83127 0.49857 -0.08600
C 	C 	0.90404 0.85362 0.46430 -0.07000
C 	C 	0.89654 0.81207 0.43225 0.35000
C 	C 	0.86993 0.74924 0.43493 -0.11800
F 	F 	0.83695 0.74745 0.53476 -0.38700
H 	H 	0.88870 0.86306 0.52346 0.12700
F 	F 	0.91623 0.83300 0.39880 -0.39600
H 	H 	0.86494 0.71766 0.41024 0.14100
C 	C 	0.88228 0.21922 0.45833 -0.13000
C 	C 	0.83783 0.15307 0.45252 0.02800
C 	C 	0.77211 0.12499 0.44912 0.30200
C 	C 	0.75133 0.16291 0.45342 -0.04500
C 	C 	0.79600 0.22922 0.46123 -0.12900
C 	C 	0.86155 0.25725 0.46265 0.38100
C 	C 	0.86059 0.11363 0.45291 0.01000
F 	F 	0.72855 0.06100 0.44262 -0.38900
H 	H 	0.70060 0.14079 0.45167 0.11700
F 	F 	0.90544 0.32124 0.47021 -0.40500
H 	H 	0.93307 0.24120 0.46073 0.14300
C 	C 	0.88371 0.10331 0.42070 0.31900
C 	C 	0.90832 0.06862 0.42209 -0.08500
C 	C 	0.91019 0.04417 0.45569 -0.07400
C 	C 	0.88558 0.05319 0.48751 0.34700
C 	C 	0.86085 0.08775 0.48607 -0.11400
F 	F 	0.88294 0.12744 0.38827 -0.38800
H 	H 	0.92707 0.06174 0.39738 0.12500
F 	F 	0.88750 0.03019 0.52028 -0.41200
H 	H 	0.84293 0.09540 0.51099 0.13500
C 	C 	0.20215 0.08569 0.43635 -0.11500
C 	C 	0.24452 0.13181 0.46959 0.01000
C 	C 	0.22020 0.14322 0.50070 0.31900
C 	C 	0.15386 0.10819 0.49865 -0.08600
C 	C 	0.11146 0.06161 0.46556 -0.07500
C 	C 	0.13586 0.05072 0.43428 0.34900
C 	C 	0.31428 0.16806 0.47173 0.02800
F 	F 	0.26084 0.18780 0.53299 -0.39000
H 	H 	0.13536 0.11680 0.52290 0.12000
F 	F 	0.09527 0.00634 0.40189 -0.39800
H 	H 	0.22067 0.07695 0.41216 0.13900
C 	C 	0.34509 0.14022 0.47999 0.30500
C 	C 	0.41077 0.17361 0.48001 -0.04300
C 	C 	0.44613 0.23501 0.47164 -0.12400
C 	C 	0.41546 0.26334 0.46425 0.38400
C 	C 	0.34977 0.22987 0.46424 -0.13100
F 	F 	0.31121 0.08059 0.48762 -0.38800
H 	H 	0.43391 0.15133 0.48577 0.12100
F 	F 	0.44939 0.32345 0.45741 -0.40800
H 	H 	0.32630 0.25175 0.45811 0.14300
C 	C 	0.88910 0.75985 0.01313 -0.11200
C 	C 	0.84059 0.71671 0.98088 0.00800
C 	C 	0.82600 0.73902 0.94995 0.32000
C 	C 	0.86019 0.80413 0.95117 -0.08500
C 	C 	0.90911 0.84730 0.98328 -0.07700
C 	C 	0.92323 0.82492 0.01438 0.35400
C 	C 	0.80535 0.64826 0.97957 0.02900
F 	F 	0.77912 0.69760 0.91862 -0.39000
H 	H 	0.84906 0.82109 0.92708 0.11700
F 	F 	0.96988 0.86628 0.04583 -0.39600
H 	H 	0.90032 0.74288 0.03718 0.14000
C 	C 	0.83397 0.61862 0.97029 0.30300
C 	C 	0.80199 0.55440 0.97141 -0.04400
C 	C 	0.74122 0.51933 0.98191 -0.12500
C 	C 	0.71195 0.54875 0.99024 0.38500
C 	C 	0.74402 0.61299 0.98911 -0.13100
F 	F 	0.89311 0.65228 0.96067 -0.39000
H 	H 	0.82502 0.53224 0.96494 0.11800
F 	F 	0.65235 0.51502 0.99922 -0.40800
H 	H 	0.72152 0.63555 0.99604 0.14500
C 	C 	0.86708 0.07277 0.03330 -0.11500
C 	C 	0.85538 0.09592 0.00180 0.01400
C 	C 	0.87775 0.09346 0.96720 0.31300
C 	C 	0.91078 0.06717 0.96397 -0.08400
C 	C 	0.92168 0.04311 0.99524 -0.07800
C 	C 	0.90020 0.04652 0.03010 0.35500
C 	C 	0.81922 0.12223 0.00484 0.02900
F 	F 	0.86668 0.11579 0.93655 -0.39800
H 	H 	0.92708 0.06459 0.93697 0.11500
F 	F 	0.91127 0.02420 0.06076 -0.39700
H 	H 	0.85027 0.07488 0.06015 0.14500
C 	C 	0.75184 0.08169 0.99834 0.30000
C 	C 	0.71737 0.10673 0.99588 -0.04600
C 	C 	0.74999 0.17237 0.99964 -0.13300
C 	C 	0.81748 0.21303 0.00860 0.39200
C 	C 	0.85185 0.18796 0.01109 -0.13100
F 	F 	0.71980 0.01799 0.99283 -0.39300
H 	H 	0.66536 0.07497 0.98929 0.11600
F 	F 	0.84970 0.27677 0.01412 -0.40300
H 	H 	0.90387 0.21953 0.01679 0.14500
C 	C 	0.22692 0.11822 0.01143 -0.11100
C 	C 	0.24475 0.11347 0.97538 0.01000
C 	C 	0.19757 0.07976 0.94114 0.31600
C 	C 	0.13292 0.04980 0.94317 -0.08500
C 	C 	0.11501 0.05347 0.97935 -0.07800
C 	C 	0.16233 0.08842 0.01343 0.35500
C 	C 	0.31259 0.14223 0.97383 0.02900
F 	F 	0.21434 0.07564 0.90602 -0.39300
H 	H 	0.09662 0.02293 0.91676 0.11700
F 	F 	0.14550 0.09206 0.04861 -0.39400
H 	H 	0.26307 0.14417 0.03797 0.14600
C 	C 	0.35840 0.20831 0.98182 0.30300
C 	C 	0.42354 0.23537 0.98429 -0.04700
C 	C 	0.44358 0.19666 0.97876 -0.12200
C 	C 	0.39729 0.13050 0.96888 0.38300
C 	C 	0.33216 0.10351 0.96667 -0.12800
F 	F 	0.33986 0.24626 0.98793 -0.39000
H 	H 	0.45857 0.28641 0.99163 0.11700
F 	F 	0.41537 0.09240 0.96147 -0.41000
H 	H 	0.29695 0.05246 0.96005 0.14600
