data_crystal

_cell_length_a 35.25170
_cell_length_b 35.87637
_cell_length_c 39.39350
_cell_angle_alpha 95.54399
_cell_angle_beta  95.55024
_cell_angle_gamma 125.38586

_symmetry_space_group_name_	'P 1'
_symmetry_space_group_name_H-M	'P 1'

loop_
_symmetry_equiv_pos_as_xyz
  x,y,z

loop_
_atom_site_label
_atom_site_type_symbol
_atom_site_fract_x
_atom_site_fract_y
_atom_site_fract_z
_atom_site_charge
C 	C 	0.97894 0.02734 0.99213 0.05300
C 	C 	0.02683 0.05330 0.98930 -0.09100
C 	C 	0.04899 0.03131 0.98598 0.05300
C 	C 	0.02330 0.98342 0.98547 -0.09200
C 	C 	0.97549 0.95745 0.98835 0.05500
C 	C 	0.95326 0.97938 0.99167 -0.08900
H 	H 	0.04675 0.09042 0.98972 0.05600
H 	H 	0.04053 0.96645 0.98302 0.05600
H 	H 	0.91621 0.95927 0.99391 0.05600
C 	C 	0.95058 0.99690 0.45048 0.05100
C 	C 	0.99923 0.02248 0.45023 -0.08500
C 	C 	0.02205 0.00106 0.45268 0.04900
C 	C 	0.99623 0.95403 0.45528 -0.08500
C 	C 	0.94762 0.92831 0.45554 0.05100
C 	C 	0.92470 0.94972 0.45312 -0.08700
H 	H 	0.01930 0.05899 0.44833 0.05400
H 	H 	0.01397 0.93749 0.45724 0.05400
H 	H 	0.88708 0.92989 0.45343 0.05500
Cu	Cu	0.65603 0.27093 0.99659 0.92800
Cu	Cu	0.69553 0.27247 0.92449 0.87000
Cu	Cu	0.68715 0.34661 0.95298 0.89600
Cu	Cu	0.65992 0.35914 0.02063 0.89400
C 	C 	0.66884 0.30447 0.06904 0.28900
O 	O 	0.58741 0.24617 0.99494 -0.36400
C 	C 	0.67584 0.31693 0.87710 0.28900
O 	O 	0.69684 0.34368 0.00105 -0.64000
O 	O 	0.65227 0.27762 0.94740 -0.64200
O 	O 	0.68191 0.23425 0.99434 -0.37500
O 	O 	0.73746 0.28168 0.96395 -0.44400
O 	O 	0.64892 0.32481 0.05999 -0.38500
O 	O 	0.72441 0.41386 0.96171 -0.38500
C 	C 	0.72070 0.43952 0.98560 0.30800
C 	C 	0.57080 0.26751 0.98202 0.30200
O 	O 	0.60011 0.31106 0.97888 -0.39500
O 	O 	0.68968 0.42094 0.00643 -0.39500
O 	O 	0.67033 0.27648 0.04575 -0.35900
C 	C 	0.72228 0.25074 0.98414 0.31000
O 	O 	0.68754 0.35015 0.90319 -0.38500
O 	O 	0.66887 0.27789 0.88255 -0.42100
H 	H 	0.73048 0.36247 0.01272 0.16300
H 	H 	0.61985 0.25968 0.93347 0.17400
Cu	Cu	0.72463 0.33469 0.44961 0.92700
Cu	Cu	0.72482 0.30199 0.52460 0.87000
Cu	Cu	0.64758 0.30616 0.49300 0.89700
Cu	Cu	0.63354 0.32856 0.42349 0.89400
C 	C 	0.68765 0.31512 0.37675 0.28800
O 	O 	0.74938 0.40163 0.44858 -0.36300
C 	C 	0.67891 0.32386 0.56945 0.28900
O 	O 	0.65052 0.29444 0.44527 -0.64100
O 	O 	0.71795 0.34145 0.49870 -0.64100
O 	O 	0.76149 0.30865 0.45395 -0.37500
O 	O 	0.71420 0.25773 0.48702 -0.44300
O 	O 	0.66731 0.33561 0.38401 -0.38400
O 	O 	0.57907 0.26827 0.48427 -0.38400
C 	C 	0.55248 0.26978 0.45925 0.30800
C 	C 	0.72715 0.41836 0.45974 0.30100
O 	O 	0.68295 0.38990 0.46332 -0.39300
O 	O 	0.57107 0.30022 0.43837 -0.39500
O 	O 	0.71887 0.31815 0.40063 -0.36000
C 	C 	0.74465 0.27015 0.46612 0.30800
O 	O 	0.64407 0.30788 0.54281 -0.38600
O 	O 	0.71902 0.33083 0.56500 -0.42100
H 	H 	0.63173 0.26103 0.43464 0.16300
H 	H 	0.73560 0.37391 0.51134 0.17300
C 	C 	0.67055 0.32857 0.60515 -0.09300
C 	C 	0.62432 0.30123 0.61198 0.01700
C 	C 	0.61696 0.29985 0.64622 -0.07600
C 	C 	0.65560 0.32605 0.67399 0.04500
C 	C 	0.70167 0.35544 0.66718 -0.07700
C 	C 	0.70904 0.35694 0.63294 0.01700
C 	C 	0.64824 0.31686 0.70946 -0.05300
C 	C 	0.67162 0.35156 0.73732 -0.05400
C 	C 	0.67081 0.34135 0.77283 0.04600
C 	C 	0.68015 0.30994 0.78135 -0.07800
C 	C 	0.68108 0.30154 0.81518 0.01800
C 	C 	0.67318 0.32481 0.84107 -0.09300
C 	C 	0.66418 0.35652 0.83261 0.02000
C 	C 	0.66330 0.36493 0.79866 -0.07700
H 	H 	0.59420 0.27946 0.59085 0.03700
H 	H 	0.58130 0.27710 0.65116 0.04700
H 	H 	0.73191 0.37552 0.68835 0.04600
H 	H 	0.74482 0.37898 0.62808 0.02900
H 	H 	0.62399 0.28106 0.71290 0.04200
H 	H 	0.69182 0.38760 0.73393 0.04200
H 	H 	0.68741 0.29256 0.76186 0.04600
H 	H 	0.68886 0.27760 0.82139 0.02300
H 	H 	0.65785 0.37461 0.85224 0.03500
H 	H 	0.65660 0.38962 0.79244 0.04800
C 	C 	0.67762 0.30293 0.10591 -0.08800
C 	C 	0.72197 0.31584 0.12183 0.01800
C 	C 	0.73094 0.31633 0.15733 -0.07500
C 	C 	0.69526 0.30287 0.17694 0.04700
C 	C 	0.65067 0.28936 0.16083 -0.07600
C 	C 	0.64192 0.28938 0.12549 0.02200
C 	C 	0.70593 0.30696 0.21488 -0.05300
C 	C 	0.67730 0.27136 0.23048 -0.05300
C 	C 	0.67980 0.27890 0.26843 0.04700
C 	C 	0.63848 0.26383 0.28147 -0.07600
C 	C 	0.64087 0.27424 0.31705 0.01800
C 	C 	0.68456 0.29930 0.34002 -0.08900
C 	C 	0.72561 0.31215 0.32721 0.02200
C 	C 	0.72322 0.30185 0.29155 -0.07500
H 	H 	0.74975 0.32637 0.10690 0.02600
H 	H 	0.76562 0.32736 0.16961 0.04800
H 	H 	0.62314 0.27976 0.17585 0.04900
H 	H 	0.60745 0.27907 0.11336 0.03400
H 	H 	0.73609 0.34002 0.23029 0.04300
H 	H 	0.64776 0.23814 0.21478 0.04400
H 	H 	0.60469 0.24528 0.26390 0.04600
H 	H 	0.60888 0.26354 0.32672 0.01900
H 	H 	0.75951 0.33124 0.34470 0.03800
H 	H 	0.75513 0.31231 0.28186 0.04900
C 	C 	0.78532 0.55618 0.46528 -0.00900
C 	C 	0.79436 0.57456 0.43478 -0.03000
C 	C 	0.81187 0.62100 0.43544 -0.04400
C 	C 	0.82039 0.64939 0.46664 0.01000
C 	C 	0.81151 0.63098 0.49722 -0.04500
C 	C 	0.79402 0.58450 0.49652 -0.03100
C 	C 	0.83964 0.69864 0.46740 0.00400
C 	C 	0.81407 0.71016 0.44719 -0.03700
C 	C 	0.83390 0.75679 0.44594 -0.04400
C 	C 	0.87930 0.79215 0.46493 0.01700
C 	C 	0.90430 0.78078 0.48587 -0.04400
C 	C 	0.88457 0.73419 0.48711 -0.03700
C 	C 	0.90170 0.83978 0.46110 -0.01100
C 	C 	0.92161 0.88003 0.45854 -0.03000
C 	C 	0.76527 0.50775 0.46416 0.04500
C 	C 	0.74848 0.46713 0.46260 -0.11100
H 	H 	0.78762 0.55284 0.41053 0.03900
H 	H 	0.81897 0.63497 0.41176 0.04100
H 	H 	0.81800 0.65261 0.52144 0.04000
H 	H 	0.78696 0.57048 0.52018 0.03700
H 	H 	0.77920 0.68298 0.43209 0.03900
H 	H 	0.81432 0.76533 0.42975 0.04100
H 	H 	0.93942 0.80794 0.50063 0.04100
H 	H 	0.90460 0.72569 0.50278 0.03900
C 	C 	0.79363 0.19238 0.44871 -0.01200
C 	C 	0.76798 0.14761 0.45665 -0.03100
C 	C 	0.78597 0.12165 0.45440 -0.04500
C 	C 	0.82976 0.14030 0.44416 0.01000
C 	C 	0.85476 0.18463 0.43525 -0.04500
C 	C 	0.83675 0.21058 0.43756 -0.03000
C 	C 	0.85062 0.11454 0.44460 0.00300
C 	C 	0.82713 0.07067 0.42319 -0.03700
C 	C 	0.84641 0.04585 0.42432 -0.04400
C 	C 	0.88923 0.06471 0.44684 0.01700
C 	C 	0.91272 0.10850 0.46819 -0.04400
C 	C 	0.89349 0.13332 0.46711 -0.03700
C 	C 	0.90967 0.03967 0.44761 -0.01200
C 	C 	0.92762 0.01951 0.44880 -0.03000
C 	C 	0.77716 0.22067 0.45421 0.04600
C 	C 	0.76255 0.24358 0.45905 -0.12000
H 	H 	0.73459 0.13328 0.46525 0.03600
H 	H 	0.76640 0.08750 0.46135 0.04000
H 	H 	0.88843 0.19920 0.42706 0.04100
H 	H 	0.85672 0.24512 0.43128 0.03800
H 	H 	0.79404 0.05588 0.40570 0.03900
H 	H 	0.82812 0.01207 0.40766 0.04100
H 	H 	0.94588 0.12332 0.48561 0.04100
H 	H 	0.91172 0.16698 0.48392 0.03800
C 	C 	0.41055 0.19689 0.45782 -0.01000
C 	C 	0.39252 0.22067 0.46985 -0.03000
C 	C 	0.34391 0.19649 0.46916 -0.04500
C 	C 	0.31302 0.14834 0.45641 0.01000
C 	C 	0.33116 0.12458 0.44442 -0.04500
C 	C 	0.37980 0.14881 0.44515 -0.03100
C 	C 	0.26175 0.12282 0.45570 0.00400
C 	C 	0.23545 0.13326 0.43514 -0.03700
C 	C 	0.18685 0.10909 0.43454 -0.04400
C 	C 	0.16426 0.07436 0.45447 0.01700
C 	C 	0.19046 0.06394 0.47506 -0.04400
C 	C 	0.23905 0.08809 0.47569 -0.03700
C 	C 	0.11412 0.04902 0.45354 -0.01200
C 	C 	0.07216 0.02747 0.45305 -0.03000
C 	C 	0.46055 0.22200 0.45819 0.04600
C 	C 	0.50250 0.24350 0.45867 -0.10900
H 	H 	0.41611 0.25785 0.47969 0.03900
H 	H 	0.33027 0.21509 0.47861 0.04100
H 	H 	0.30758 0.08743 0.43445 0.04000
H 	H 	0.39351 0.13023 0.43578 0.03700
H 	H 	0.25264 0.15993 0.41955 0.03900
H 	H 	0.16678 0.11728 0.41854 0.04100
H 	H 	0.17320 0.03712 0.49053 0.04100
H 	H 	0.25909 0.07994 0.49177 0.03800
C 	C 	0.79092 0.57838 0.98645 -0.01100
C 	C 	0.79979 0.60776 0.01706 -0.02900
C 	C 	0.82206 0.65516 0.01755 -0.04400
C 	C 	0.83562 0.67346 0.98738 0.01000
C 	C 	0.82689 0.64401 0.95677 -0.04500
C 	C 	0.80458 0.59659 0.95632 -0.03000
C 	C 	0.85928 0.72348 0.98793 0.00300
C 	C 	0.90373 0.75660 0.00926 -0.03700
C 	C 	0.92630 0.80402 0.00966 -0.04200
C 	C 	0.90463 0.81864 0.98874 0.01500
C 	C 	0.86012 0.78566 0.96757 -0.04300
C 	C 	0.83747 0.73819 0.96716 -0.03700
C 	C 	0.92874 0.86739 0.98830 -0.01000
C 	C 	0.94953 0.90839 0.98830 -0.03200
C 	C 	0.76648 0.52932 0.98572 0.04600
C 	C 	0.74598 0.48832 0.98552 -0.10900
H 	H 	0.78919 0.59385 0.04042 0.03700
H 	H 	0.82857 0.67761 0.04127 0.04100
H 	H 	0.83747 0.65789 0.93340 0.04100
H 	H 	0.79776 0.57404 0.93254 0.03900
H 	H 	0.92087 0.74556 0.02532 0.03900
H 	H 	0.96077 0.82936 0.02603 0.04100
H 	H 	0.84318 0.79674 0.95133 0.04100
H 	H 	0.80304 0.71288 0.95075 0.03900
C 	C 	0.79024 0.19116 0.00060 -0.01000
C 	C 	0.76655 0.14353 0.98815 -0.03200
C 	C 	0.79110 0.12392 0.99042 -0.04600
C 	C 	0.83952 0.15186 0.00522 0.01100
C 	C 	0.86281 0.19926 0.01863 -0.04500
C 	C 	0.83823 0.21884 0.01627 -0.03000
C 	C 	0.86631 0.13205 0.00492 0.00400
C 	C 	0.85392 0.09526 0.02236 -0.03700
C 	C 	0.87757 0.07475 0.02036 -0.04400
C 	C 	0.91376 0.09091 0.00098 0.01900
C 	C 	0.92670 0.12812 0.98401 -0.04500
C 	C 	0.90305 0.14862 0.98594 -0.03800
C 	C 	0.93683 0.06861 0.99786 -0.01300
C 	C 	0.95608 0.04985 0.99530 -0.03100
C 	C 	0.76621 0.21221 0.99514 0.04600
C 	C 	0.74612 0.22987 0.99058 -0.12200
H 	H 	0.72942 0.12191 0.97605 0.03600
H 	H 	0.77281 0.08730 0.97999 0.04000
H 	H 	0.90009 0.22104 0.03034 0.04100
H 	H 	0.85671 0.25567 0.02604 0.03700
H 	H 	0.82574 0.08235 0.03719 0.03900
H 	H 	0.86748 0.04606 0.03362 0.04200
H 	H 	0.95471 0.14083 0.96902 0.04100
H 	H 	0.91274 0.17688 0.97227 0.03800
C 	C 	0.43070 0.21129 0.97418 -0.01000
C 	C 	0.41834 0.23406 0.99628 -0.03100
C 	C 	0.37069 0.21450 0.99644 -0.04600
C 	C 	0.33506 0.17198 0.97449 0.01100
C 	C 	0.34748 0.14979 0.95173 -0.04500
C 	C 	0.39520 0.16941 0.95159 -0.03000
C 	C 	0.28497 0.14948 0.97674 0.00200
C 	C 	0.26897 0.13452 0.00738 -0.03600
C 	C 	0.22128 0.11224 0.00932 -0.04300
C 	C 	0.18928 0.10474 0.98068 0.01500
C 	C 	0.20525 0.12014 0.95018 -0.04400
C 	C 	0.25299 0.14246 0.94820 -0.03700
C 	C 	0.13972 0.07930 0.98208 -0.01100
C 	C 	0.09836 0.05792 0.98375 -0.03200
C 	C 	0.47973 0.22992 0.97589 0.04600
C 	C 	0.52115 0.24657 0.97807 -0.11200
H 	H 	0.44563 0.26654 0.01372 0.03800
H 	H 	0.36144 0.23201 0.01395 0.04100
H 	H 	0.32021 0.11694 0.93469 0.04100
H 	H 	0.40452 0.15169 0.93437 0.03700
H 	H 	0.29339 0.13971 0.02952 0.03900
H 	H 	0.20912 0.10033 0.03295 0.04100
H 	H 	0.18066 0.11444 0.92793 0.04100
H 	H 	0.26508 0.15412 0.92450 0.03800
