data_crystal

_cell_length_a 49.53285
_cell_length_b 46.04461
_cell_length_c 31.18917
_cell_angle_alpha 89.95880
_cell_angle_beta  89.94566
_cell_angle_gamma 90.40954

_symmetry_space_group_name_	'P 1'
_symmetry_space_group_name_H-M	'P 1'

loop_
_symmetry_equiv_pos_as_xyz
  x,y,z

loop_
_atom_site_label
_atom_site_type_symbol
_atom_site_fract_x
_atom_site_fract_y
_atom_site_fract_z
_atom_site_charge
Zn	Zn	0.49713 0.49415 0.02121 1.22000
C 	C 	0.50971 0.55523 0.01426 0.32200
O 	O 	0.52574 0.47893 0.05853 -0.47000
O 	O 	0.49551 0.55821 0.04960 -0.44800
O 	O 	0.53621 0.52116 0.09209 -0.49500
C 	C 	0.44836 0.51233 0.06151 0.34800
O 	O 	0.46123 0.51077 0.02491 -0.45500
O 	O 	0.46185 0.51300 0.09766 -0.50600
C 	C 	0.54365 0.49616 0.07627 0.34000
O 	O 	0.47547 0.44860 0.02390 -0.33200
Zn	Zn	0.49817 0.52975 0.10044 1.17000
O 	O 	0.51566 0.52923 0.99961 -0.42300
C 	C 	0.48472 0.44491 0.98544 0.30600
O 	O 	0.49892 0.46628 0.97018 -0.37600
Zn	Zn	0.41509 0.07971 0.99847 1.22400
C 	C 	0.36296 0.05070 0.00286 0.33300
O 	O 	0.43454 0.07105 0.05218 -0.45500
O 	O 	0.37452 0.02732 0.98770 -0.43900
O 	O 	0.40845 0.03149 0.06622 -0.48800
C 	C 	0.42648 0.04046 0.92963 0.31600
O 	O 	0.41271 0.06357 0.94060 -0.44400
O 	O 	0.43289 0.02096 0.95849 -0.50000
C 	C 	0.42641 0.05068 0.07889 0.30200
O 	O 	0.45307 0.10662 0.97355 -0.32400
Zn	Zn	0.41163 0.01442 0.00980 1.17200
O 	O 	0.37772 0.07232 0.01748 -0.43400
C 	C 	0.43820 0.12910 0.98128 0.29900
O 	O 	0.41431 0.12372 0.99602 -0.38000
C 	C 	0.51592 0.99507 0.27642 0.15500
C 	C 	0.49708 0.01155 0.25351 -0.10800
H 	H 	0.48240 0.02448 0.27063 0.08500
C 	C 	0.49682 0.01069 0.20860 0.09100
C 	C 	0.51623 0.99444 0.18664 -0.10200
C 	C 	0.53551 0.97853 0.20940 0.09100
C 	C 	0.53492 0.97828 0.25434 -0.10800
H 	H 	0.54953 0.96565 0.27210 0.08500
N 	N 	0.51581 0.99551 0.32248 -0.18100
C 	C 	0.49731 0.97888 0.34439 0.19800
C 	C 	0.49663 0.97937 0.38951 -0.07700
C 	C 	0.51565 0.99628 0.41189 0.06200
C 	C 	0.53380 0.01400 0.38893 -0.07700
C 	C 	0.53379 0.01306 0.34381 0.19800
C 	C 	0.47655 0.96422 0.41231 0.01200
C 	C 	0.47603 0.96500 0.45701 -0.05600
C 	C 	0.49699 0.97895 0.48010 0.01700
C 	C 	0.51601 0.99613 0.45731 -0.02700
C 	C 	0.53459 0.01414 0.47956 0.01700
C 	C 	0.55081 0.03326 0.41116 0.01200
C 	C 	0.55037 0.03425 0.45586 -0.05600
C 	C 	0.49854 0.97728 0.52557 0.01700
C 	C 	0.51703 0.99536 0.54785 -0.02700
C 	C 	0.53599 0.01266 0.52509 0.01700
O 	O 	0.55112 0.02914 0.32195 -0.18700
O 	O 	0.48019 0.96225 0.32310 -0.18700
H 	H 	0.56374 0.04832 0.39388 0.04800
H 	H 	0.56118 0.05168 0.47156 0.04800
H 	H 	0.46068 0.95264 0.39546 0.04800
H 	H 	0.45856 0.95609 0.47322 0.04900
C 	C 	0.55672 0.02694 0.54830 -0.05600
C 	C 	0.55599 0.02790 0.59298 0.01200
C 	C 	0.53606 0.01248 0.61570 -0.07900
C 	C 	0.51738 0.99516 0.59327 0.06200
C 	C 	0.48302 0.95688 0.54915 -0.05600
C 	C 	0.48277 0.95758 0.59386 0.01200
C 	C 	0.49958 0.97701 0.61617 -0.07700
C 	C 	0.53521 0.01309 0.66081 0.19800
N 	N 	0.51715 0.99589 0.68269 -0.18000
C 	C 	0.49970 0.97774 0.66130 0.19700
C 	C 	0.51685 0.99646 0.72878 0.14500
C 	C 	0.53725 0.98246 0.75199 -0.09800
C 	C 	0.53659 0.98237 0.79689 0.04300
C 	C 	0.51540 0.99603 0.81854 -0.08400
C 	C 	0.49489 0.00983 0.79549 0.08200
C 	C 	0.49582 0.01042 0.75060 -0.10400
O 	O 	0.55168 0.03046 0.68210 -0.19900
O 	O 	0.48301 0.96087 0.68312 -0.18700
H 	H 	0.55349 0.97171 0.73510 0.07400
H 	H 	0.47998 0.02105 0.73264 0.08200
H 	H 	0.57418 0.03596 0.53224 0.04900
H 	H 	0.57164 0.03978 0.60990 0.04600
H 	H 	0.47228 0.93946 0.53328 0.04900
H 	H 	0.47007 0.94226 0.61107 0.04800
H 	H 	0.51475 0.99575 0.85331 0.06100
H 	H 	0.51636 0.99422 0.15186 0.05900
Zn	Zn	0.61740 0.91039 0.99930 1.22400
C 	C 	0.66909 0.94027 0.00284 0.33300
O 	O 	0.59843 0.91838 0.05377 -0.45500
O 	O 	0.65693 0.96335 0.98784 -0.42600
O 	O 	0.62385 0.95849 0.06728 -0.48700
C 	C 	0.60460 0.94967 0.93122 0.35800
O 	O 	0.61908 0.92696 0.94163 -0.44700
O 	O 	0.59809 0.96890 0.96038 -0.49900
C 	C 	0.60634 0.93891 0.08031 0.30200
O 	O 	0.57925 0.88368 0.97512 -0.32500
Zn	Zn	0.61986 0.97566 0.01104 1.17400
O 	O 	0.65490 0.91810 0.01724 -0.43200
C 	C 	0.59425 0.86113 0.98158 0.29900
O 	O 	0.61828 0.86632 0.99583 -0.37800
Zn	Zn	0.09968 0.58452 0.98799 1.22300
C 	C 	0.06717 0.63650 0.98745 0.34600
O 	O 	0.08777 0.58538 0.04838 -0.44100
O 	O 	0.04846 0.62120 0.00712 -0.45700
O 	O 	0.04988 0.55858 0.03531 -0.50800
C 	C 	0.06981 0.56919 0.91143 0.30400
O 	O 	0.09073 0.56283 0.93553 -0.45200
O 	O 	0.05059 0.58558 0.92679 -0.48800
C 	C 	0.06826 0.56828 0.06202 0.31600
O 	O 	0.12927 0.54600 0.00515 -0.32400
Zn	Zn	0.03861 0.58040 0.98526 1.17500
O 	O 	0.08792 0.62347 0.96983 -0.43200
C 	C 	0.14816 0.56548 0.00128 0.28900
O 	O 	0.14025 0.59137 0.99169 -0.37300
C 	C 	0.00778 0.49454 0.26977 0.14400
C 	C 	0.98583 0.48242 0.24740 -0.09700
H 	H 	0.96967 0.47172 0.26491 0.07300
C 	C 	0.98429 0.48524 0.20270 0.04200
C 	C 	0.00501 0.49955 0.18039 -0.08400
C 	C 	0.02660 0.51228 0.20263 0.08000
C 	C 	0.02823 0.50937 0.24729 -0.10300
H 	H 	0.04476 0.51942 0.26468 0.08100
N 	N 	0.00826 0.49366 0.31584 -0.18000
C 	C 	0.01994 0.47057 0.33630 0.19800
C 	C 	0.01986 0.46896 0.38142 -0.07900
C 	C 	0.00718 0.49089 0.40519 0.06200
C 	C 	0.99659 0.51513 0.38381 -0.07700
C 	C 	0.99706 0.51600 0.33868 0.19800
C 	C 	0.03311 0.44640 0.40296 0.01100
C 	C 	0.03291 0.44511 0.44767 -0.05600
C 	C 	0.01744 0.46499 0.47185 0.01700
C 	C 	0.00574 0.48897 0.45050 -0.02700
C 	C 	0.99364 0.51167 0.47417 0.01800
C 	C 	0.98663 0.53855 0.40770 0.01200
C 	C 	0.98619 0.53736 0.45239 -0.05600
C 	C 	0.01452 0.46223 0.51712 0.01700
C 	C 	0.00227 0.48488 0.54073 -0.02700
C 	C 	0.99051 0.50879 0.51932 0.01700
O 	O 	0.98648 0.53827 0.31826 -0.18800
O 	O 	0.03113 0.44970 0.31361 -0.19900
H 	H 	0.98001 0.55817 0.39181 0.04800
H 	H 	0.98143 0.55695 0.46976 0.04900
H 	H 	0.04444 0.43035 0.38521 0.04600
H 	H 	0.04596 0.42963 0.46316 0.04800
C 	C 	0.97471 0.52846 0.54330 -0.05500
C 	C 	0.97426 0.52712 0.58798 0.01200
C 	C 	0.98769 0.50476 0.60964 -0.07500
C 	C 	0.00074 0.48300 0.58604 0.06100
C 	C 	0.02233 0.43673 0.53910 -0.05600
C 	C 	0.02195 0.43568 0.58383 0.01100
C 	C 	0.01163 0.45898 0.60758 -0.07800
C 	C 	0.98755 0.50325 0.65473 0.19800
N 	N 	0.99974 0.48054 0.67539 -0.18000
C 	C 	0.01117 0.45825 0.65276 0.19800
C 	C 	0.00108 0.48051 0.72143 0.15400
C 	C 	0.02245 0.49487 0.74218 -0.10800
C 	C 	0.02184 0.49870 0.78675 0.09000
C 	C 	0.00065 0.48663 0.81078 -0.09800
C 	C 	0.97921 0.47235 0.79025 0.09000
C 	C 	0.97959 0.46896 0.74557 -0.10800
O 	O 	0.97599 0.52397 0.67724 -0.17300
O 	O 	0.02206 0.43625 0.67337 -0.20000
H 	H 	0.03863 0.50448 0.72341 0.08400
H 	H 	0.96272 0.45862 0.72942 0.08300
H 	H 	0.96162 0.54383 0.52761 0.04900
H 	H 	0.96266 0.54302 0.60559 0.05100
H 	H 	0.02732 0.41714 0.52190 0.04800
H 	H 	0.02885 0.41621 0.59985 0.04600
H 	H 	0.99999 0.48994 0.84520 0.06300
H 	H 	0.00368 0.50201 0.14586 0.05600
Zn	Zn	0.89530 0.42064 0.00051 1.22000
C 	C 	0.84305 0.44846 0.00124 0.33000
O 	O 	0.89317 0.43389 0.94058 -0.44000
O 	O 	0.85464 0.47087 0.98272 -0.44000
O 	O 	0.91227 0.47819 0.95349 -0.50000
C 	C 	0.90624 0.45331 0.07772 0.34100
O 	O 	0.91476 0.43246 0.05246 -0.44900
O 	O 	0.88839 0.47178 0.06329 -0.49500
C 	C 	0.90701 0.45660 0.92722 0.31500
O 	O 	0.93422 0.39351 0.98242 -0.31800
Zn	Zn	0.89116 0.48596 0.00480 1.16900
O 	O 	0.85787 0.42827 0.01918 -0.42900
C 	C 	0.91827 0.37117 0.98584 0.30100
O 	O 	0.89355 0.37665 0.99602 -0.37200
Zn	Zn	0.01130 0.01021 0.03195 1.22000
C 	C 	0.02160 0.94930 0.01991 0.32900
O 	O 	0.97920 0.01039 0.06903 -0.47100
O 	O 	0.03593 0.95135 0.05527 -0.44900
O 	O 	0.98488 0.96602 0.09909 -0.49500
C 	C 	0.06266 0.01229 0.07285 0.35000
O 	O 	0.05035 0.00953 0.03596 -0.45600
O 	O 	0.05031 0.00474 0.10839 -0.50600
C 	C 	0.96894 0.98624 0.08435 0.34100
O 	O 	0.01517 0.06080 0.04034 -0.32300
Zn	Zn	0.02300 0.97393 0.10845 1.17100
O 	O 	0.00697 0.97131 0.00656 -0.43300
C 	C 	0.00601 0.06234 0.00153 0.27900
O 	O 	0.00036 0.03772 0.98341 -0.36600
C 	C 	0.94205 0.28777 0.96451 -0.00300
C 	C 	0.93104 0.26576 0.99030 -0.02200
C 	C 	0.93883 0.23694 0.98433 -0.03300
C 	C 	0.95768 0.22990 0.95241 0.00900
C 	C 	0.96844 0.25193 0.92619 -0.04000
C 	C 	0.96064 0.28080 0.93226 -0.02800
C 	C 	0.96744 0.19979 0.94849 0.01100
C 	C 	0.99461 0.19350 0.95688 -0.03900
C 	C 	0.00289 0.16468 0.96104 -0.03100
C 	C 	0.98407 0.14197 0.95699 0.00100
C 	C 	0.95736 0.14812 0.94555 -0.03000
C 	C 	0.94906 0.17695 0.94122 -0.04000
C 	C 	0.99108 0.11327 0.97132 0.04200
C 	C 	0.99771 0.08955 0.98363 -0.07600
C 	C 	0.93422 0.31748 0.97126 0.05100
C 	C 	0.92726 0.34214 0.97769 -0.08600
H 	H 	0.91660 0.27099 0.01520 0.04100
H 	H 	0.93059 0.22014 0.00500 0.03900
H 	H 	0.98299 0.24674 0.90145 0.04500
H 	H 	0.96915 0.29771 0.91208 0.04400
H 	H 	0.00901 0.21094 0.96222 0.04500
H 	H 	0.02363 0.16008 0.96955 0.04600
H 	H 	0.94274 0.13067 0.94200 0.04600
H 	H 	0.92813 0.18156 0.93400 0.04500
C 	C 	0.91929 0.45663 0.88430 -0.06400
C 	C 	0.93671 0.43415 0.87233 -0.00600
C 	C 	0.95456 0.43804 0.83796 -0.02700
C 	C 	0.95499 0.46435 0.81522 -0.04100
C 	C 	0.93527 0.48543 0.82400 0.10000
C 	C 	0.91760 0.48156 0.85861 -0.03900
H 	H 	0.96934 0.42146 0.83099 0.04400
H 	H 	0.90357 0.49861 0.86692 0.05700
H 	H 	0.93781 0.41456 0.89149 0.04600
Br	Br	0.93363 0.52066 0.79114 -0.22100
C 	C 	0.95974 0.47614 0.17952 0.04300
C 	C 	0.94315 0.49723 0.16108 -0.08400
C 	C 	0.92408 0.48937 0.13023 0.04100
C 	C 	0.92123 0.46020 0.11760 -0.14500
C 	C 	0.93551 0.43855 0.14022 0.16600
C 	C 	0.95512 0.44670 0.17042 -0.11300
H 	H 	0.91261 0.50621 0.11442 0.00700
H 	H 	0.96717 0.43021 0.18598 0.08200
H 	H 	0.94614 0.51997 0.16881 0.05800
Br	Br	0.92710 0.39805 0.13308 -0.23300
C 	C 	0.02232 0.87032 0.96128 -0.00600
C 	C 	0.04478 0.86178 0.93713 -0.02800
C 	C 	0.04958 0.83229 0.92985 -0.04200
C 	C 	0.03192 0.81122 0.94676 0.01000
C 	C 	0.00801 0.81999 0.96704 -0.04200
C 	C 	0.00321 0.84947 0.97415 -0.02900
C 	C 	0.04028 0.78056 0.94898 0.01100
C 	C 	0.06347 0.77296 0.97222 -0.04200
C 	C 	0.06975 0.74376 0.97876 -0.02600
C 	C 	0.05291 0.72194 0.96222 -0.01000
C 	C 	0.03018 0.72943 0.93795 -0.02700
C 	C 	0.02388 0.75866 0.93131 -0.04300
C 	C 	0.05834 0.69191 0.97150 0.05900
C 	C 	0.06264 0.66669 0.97902 -0.11400
C 	C 	0.02195 0.89871 0.98050 0.05100
C 	C 	0.02132 0.92238 0.99691 -0.10100
H 	H 	0.05943 0.87781 0.92642 0.04400
H 	H 	0.06776 0.82578 0.91321 0.04500
H 	H 	0.99401 0.80392 0.97961 0.04400
H 	H 	0.98556 0.85593 0.99226 0.04300
H 	H 	0.07618 0.78969 0.98621 0.04500
H 	H 	0.08741 0.73811 0.99740 0.04400
H 	H 	0.01715 0.71265 0.92485 0.04100
H 	H 	0.00600 0.76427 0.91321 0.04400
C 	C 	0.06526 0.55365 0.87074 -0.06700
C 	C 	0.07269 0.52440 0.86688 -0.01100
C 	C 	0.06074 0.50690 0.83544 -0.02800
C 	C 	0.04122 0.51848 0.80782 -0.04300
C 	C 	0.03648 0.54863 0.80812 0.10100
C 	C 	0.04876 0.56612 0.83926 -0.04300
H 	H 	0.06503 0.48386 0.83479 0.04200
H 	H 	0.04395 0.58902 0.84081 0.06900
H 	H 	0.08608 0.51467 0.89018 0.04400
Br	Br	0.01124 0.56582 0.76905 -0.21700
C 	C 	0.06710 0.55930 0.10703 -0.06500
C 	C 	0.07669 0.53182 0.11858 -0.00300
C 	C 	0.06621 0.51767 0.15469 -0.02900
C 	C 	0.04593 0.53086 0.17916 -0.03900
C 	C 	0.03966 0.56021 0.17152 0.10000
C 	C 	0.05025 0.57432 0.13537 -0.04200
H 	H 	0.07187 0.49540 0.16112 0.04400
H 	H 	0.04357 0.59603 0.12743 0.06000
H 	H 	0.09037 0.52037 0.09750 0.03900
Br	Br	0.01439 0.58023 0.20739 -0.23800
C 	C 	0.75006 0.94421 0.02565 -0.02500
C 	C 	0.75891 0.95014 0.06742 -0.01900
C 	C 	0.78643 0.95393 0.07575 -0.05000
C 	C 	0.80528 0.95178 0.04232 0.02100
C 	C 	0.79644 0.94513 0.00069 -0.06800
C 	C 	0.76890 0.94138 0.99239 -0.00100
C 	C 	0.83410 0.95779 0.05053 0.00600
C 	C 	0.84872 0.94013 0.07880 -0.04100
C 	C 	0.87595 0.94614 0.08699 -0.02900
C 	C 	0.88869 0.96982 0.06700 -0.01100
C 	C 	0.87410 0.98752 0.03889 -0.02800
C 	C 	0.84689 0.98155 0.03069 -0.04100
C 	C 	0.91698 0.97535 0.07400 0.05700
C 	C 	0.94065 0.98035 0.07943 -0.12000
C 	C 	0.72160 0.94250 0.01663 0.06000
C 	C 	0.69768 0.94118 0.00986 -0.11000
H 	H 	0.74444 0.95231 0.09329 0.04100
H 	H 	0.79305 0.95907 0.10798 0.04600
H 	H 	0.81087 0.94322 0.97473 0.05600
H 	H 	0.76219 0.93670 0.96004 0.04100
H 	H 	0.83901 0.92174 0.09425 0.04200
H 	H 	0.88714 0.93231 0.10863 0.03900
H 	H 	0.88386 0.00581 0.02324 0.04300
H 	H 	0.83573 0.99542 0.00906 0.04300
C 	C 	0.55842 0.96877 0.82158 0.04300
C 	C 	0.55330 0.94306 0.84442 -0.07800
C 	C 	0.57062 0.93463 0.87744 0.04600
C 	C 	0.59297 0.95203 0.88814 -0.13900
C 	C 	0.59987 0.97581 0.86180 0.16400
C 	C 	0.58254 0.98412 0.82863 -0.11100
H 	H 	0.56546 0.91590 0.89691 0.03400
H 	H 	0.58701 0.00349 0.81011 0.08300
H 	H 	0.53497 0.93072 0.83852 0.06100
Br	Br	0.63219 0.99794 0.87212 -0.25600
C 	C 	0.59173 0.94344 0.12117 -0.06900
C 	C 	0.56722 0.92882 0.12908 -0.01000
C 	C 	0.54991 0.93857 0.16134 -0.02900
C 	C 	0.55683 0.96305 0.18585 -0.04400
C 	C 	0.58269 0.97562 0.18123 0.10000
C 	C 	0.60015 0.96551 0.14937 -0.04800
H 	H 	0.53031 0.92830 0.16538 0.04300
H 	H 	0.61967 0.97589 0.14508 0.06500
H 	H 	0.56086 0.91098 0.10877 0.04600
Br	Br	0.59370 0.00807 0.21587 -0.23700
C 	C 	0.28181 0.04905 0.02448 -0.00500
C 	C 	0.26652 0.02537 0.00982 -0.03900
C 	C 	0.23909 0.02324 0.01992 -0.03800
C 	C 	0.22678 0.04481 0.04480 0.00800
C 	C 	0.24200 0.06881 0.05880 -0.04000
C 	C 	0.26946 0.07090 0.04869 -0.03000
C 	C 	0.19804 0.04209 0.05639 0.01200
C 	C 	0.18924 0.01903 0.08247 -0.04400
C 	C 	0.16167 0.01454 0.08962 -0.02700
C 	C 	0.14275 0.03306 0.07077 -0.01300
C 	C 	0.15156 0.05686 0.04631 -0.02600
C 	C 	0.17913 0.06138 0.03914 -0.04400
C 	C 	0.11447 0.02580 0.07240 0.05900
C 	C 	0.09075 0.01989 0.07360 -0.12100
C 	C 	0.31043 0.05006 0.01670 0.05200
C 	C 	0.33438 0.05064 0.00996 -0.11100
H 	H 	0.27594 0.00842 0.99106 0.05000
H 	H 	0.22743 0.00477 0.00864 0.04100
H 	H 	0.23264 0.08561 0.07791 0.04300
H 	H 	0.28118 0.08928 0.06014 0.04400
H 	H 	0.20373 0.00421 0.09629 0.04300
H 	H 	0.15500 0.99615 0.10868 0.03700
H 	H 	0.13703 0.07131 0.03171 0.04200
H 	H 	0.18575 0.07932 0.01914 0.04400
C 	C 	0.43729 0.03771 0.88606 -0.06300
C 	C 	0.45717 0.05725 0.87173 -0.00500
C 	C 	0.47439 0.04944 0.83816 -0.02700
C 	C 	0.47171 0.02212 0.81864 -0.03900
C 	C 	0.44946 0.00429 0.82917 0.10100
C 	C 	0.43238 0.01211 0.86292 -0.03900
H 	H 	0.49108 0.06364 0.82959 0.04400
H 	H 	0.41643 0.99738 0.87299 0.05800
H 	H 	0.46073 0.07739 0.88882 0.04600
Br	Br	0.44346 0.96808 0.80013 -0.23200
C 	C 	0.44110 0.04589 0.11956 -0.06900
C 	C 	0.46578 0.06020 0.12722 -0.01000
C 	C 	0.48300 0.05032 0.15948 -0.02800
C 	C 	0.47579 0.02604 0.18428 -0.04500
C 	C 	0.44983 0.01371 0.17978 0.10000
C 	C 	0.43247 0.02395 0.14789 -0.04800
H 	H 	0.50268 0.06038 0.16341 0.04400
H 	H 	0.41285 0.01379 0.14376 0.06500
H 	H 	0.47232 0.07792 0.10676 0.04600
Br	Br	0.43850 0.98148 0.21470 -0.23900
C 	C 	0.45865 0.21275 0.95221 -0.00300
C 	C 	0.44224 0.23455 0.96921 -0.02900
C 	C 	0.44816 0.26373 0.96108 -0.04000
C 	C 	0.47054 0.27137 0.93573 0.01100
C 	C 	0.48683 0.24950 0.91829 -0.04100
C 	C 	0.48088 0.22024 0.92652 -0.02900
C 	C 	0.47779 0.30228 0.92993 0.01100
C 	C 	0.45891 0.32157 0.91248 -0.04100
C 	C 	0.46271 0.35154 0.91678 -0.02900
C 	C 	0.48546 0.36239 0.93829 -0.00300
C 	C 	0.50563 0.34325 0.95181 -0.02800
C 	C 	0.50179 0.31325 0.94773 -0.04000
C 	C 	0.48550 0.39183 0.95380 0.04900
C 	C 	0.48552 0.41648 0.96676 -0.09100
C 	C 	0.45259 0.18275 0.96140 0.04800
C 	C 	0.44659 0.15802 0.97010 -0.09100
H 	H 	0.42500 0.22890 0.98904 0.04700
H 	H 	0.43562 0.28043 0.97507 0.04600
H 	H 	0.50417 0.25517 0.89872 0.04400
H 	H 	0.49361 0.20348 0.91315 0.04400
H 	H 	0.44058 0.31333 0.89780 0.04500
H 	H 	0.44720 0.36622 0.90569 0.04400
H 	H 	0.52349 0.35148 0.96791 0.04500
H 	H 	0.51669 0.29857 0.96074 0.04500
C 	C 	0.22738 0.54888 0.02684 0.00200
C 	C 	0.23496 0.52360 0.04865 -0.03300
C 	C 	0.26224 0.51815 0.05672 -0.03900
C 	C 	0.28211 0.53799 0.04299 0.00700
C 	C 	0.27444 0.56339 0.02140 -0.03600
C 	C 	0.24716 0.56880 0.01338 -0.04200
C 	C 	0.31096 0.53186 0.05022 0.01200
C 	C 	0.32298 0.50772 0.03070 -0.04400
C 	C 	0.35068 0.50295 0.03525 -0.02600
C 	C 	0.36654 0.52226 0.05933 -0.01200
C 	C 	0.35448 0.54600 0.07970 -0.02700
C 	C 	0.32676 0.55078 0.07520 -0.04400
C 	C 	0.39542 0.51879 0.06075 0.05800
C 	C 	0.41957 0.51569 0.06174 -0.12000
C 	C 	0.19932 0.55436 0.01805 0.04200
C 	C 	0.17591 0.55925 0.01046 -0.08800
H 	H 	0.21976 0.50813 0.05925 0.04400
H 	H 	0.26795 0.49853 0.07352 0.04300
H 	H 	0.28962 0.57877 0.01049 0.04100
H 	H 	0.24144 0.58841 0.99654 0.05300
H 	H 	0.31096 0.49299 0.01133 0.04400
H 	H 	0.35988 0.48456 0.01940 0.04200
H 	H 	0.36661 0.56100 0.09841 0.03800
H 	H 	0.31764 0.56937 0.09063 0.04300
C 	C 	0.76165 0.45133 0.02094 -0.02500
C 	C 	0.74947 0.43597 0.05473 -0.01900
C 	C 	0.72203 0.43980 0.06372 -0.05000
C 	C 	0.70666 0.45906 0.03900 0.02100
C 	C 	0.71874 0.47380 0.00448 -0.06800
C 	C 	0.74613 0.46994 0.99550 -0.00200
C 	C 	0.67823 0.46465 0.05016 0.00500
C 	C 	0.65863 0.44279 0.04489 -0.04100
C 	C 	0.63140 0.44876 0.05274 -0.02800
C 	C 	0.62364 0.47657 0.06598 -0.01100
C 	C 	0.64328 0.49819 0.07236 -0.02900
C 	C 	0.67049 0.49227 0.06449 -0.04200
C 	C 	0.59543 0.48346 0.07016 0.05600
C 	C 	0.57180 0.48917 0.07363 -0.12000
C 	C 	0.79038 0.44966 0.01428 0.05800
C 	C 	0.81440 0.44859 0.00815 -0.11200
H 	H 	0.76133 0.42152 0.07451 0.04200
H 	H 	0.71286 0.42825 0.09035 0.04600
H 	H 	0.70698 0.48853 0.98500 0.05500
H 	H 	0.75540 0.48184 0.96928 0.03700
H 	H 	0.66441 0.42140 0.03393 0.04300
H 	H 	0.61633 0.43193 0.04776 0.04200
H 	H 	0.63744 0.51973 0.08266 0.03900
H 	H 	0.68551 0.50922 0.06895 0.04100
C 	C 	0.56974 0.77849 0.95375 -0.00300
C 	C 	0.58638 0.76059 0.92896 -0.02900
C 	C 	0.57978 0.73123 0.92351 -0.04100
C 	C 	0.55653 0.71959 0.94296 0.01000
C 	C 	0.53934 0.73787 0.96630 -0.04000
C 	C 	0.54593 0.76721 0.97163 -0.02900
C 	C 	0.55159 0.68793 0.94268 0.01100
C 	C 	0.52687 0.67676 0.92778 -0.04200
C 	C 	0.51981 0.64780 0.93586 -0.02900
C 	C 	0.53743 0.62986 0.95876 -0.00600
C 	C 	0.56306 0.64028 0.97028 -0.02900
C 	C 	0.57012 0.66924 0.96236 -0.04200
C 	C 	0.52754 0.60312 0.97709 0.05000
C 	C 	0.51957 0.58068 0.99269 -0.09900
C 	C 	0.57813 0.80776 0.96348 0.04800
C 	C 	0.58525 0.83225 0.97152 -0.09000
H 	H 	0.60475 0.76922 0.91482 0.04500
H 	H 	0.59309 0.71737 0.90518 0.04400
H 	H 	0.52137 0.72911 0.98153 0.04400
H 	H 	0.53291 0.78095 0.99067 0.04400
H 	H 	0.51263 0.69086 0.91180 0.04400
H 	H 	0.50008 0.63980 0.92638 0.04400
H 	H 	0.57692 0.62645 0.98759 0.04200
H 	H 	0.58937 0.67754 0.97358 0.04400
