data_crystal

_cell_length_a 26.06959
_cell_length_b 26.46203
_cell_length_c 34.97552
_cell_angle_alpha 95.49631
_cell_angle_beta  95.49356
_cell_angle_gamma 125.82788

_symmetry_space_group_name_	'P 1'
_symmetry_space_group_name_H-M	'P 1'

loop_
_symmetry_equiv_pos_as_xyz
  x,y,z

loop_
_atom_site_label
_atom_site_type_symbol
_atom_site_fract_x
_atom_site_fract_y
_atom_site_fract_z
_atom_site_charge
C 	C 	0.99313 0.05246 0.99048 0.14500
N 	N 	0.05722 0.08670 0.99012 -0.13200
C 	C 	0.08556 0.05708 0.98751 0.15500
N 	N 	0.04974 0.99328 0.98520 -0.13700
C 	C 	0.98572 0.95900 0.98555 0.14100
N 	N 	0.95744 0.98863 0.98791 -0.14700
C 	C 	0.90172 0.96621 0.45898 0.13900
N 	N 	0.86803 0.90382 0.46157 -0.14400
C 	C 	0.89898 0.87682 0.46507 0.14400
N 	N 	0.96327 0.91206 0.46562 -0.13500
C 	C 	0.99714 0.97443 0.46349 0.12400
N 	N 	0.96636 0.00156 0.46044 -0.11700
Cu	Cu	0.66433 0.26575 0.00557 0.93200
Cu	Cu	0.71306 0.26792 0.92269 0.87400
Cu	Cu	0.70274 0.36767 0.95654 0.89700
Cu	Cu	0.68291 0.39168 0.03679 0.89700
C 	C 	0.68720 0.30984 0.08807 0.29200
O 	O 	0.57436 0.23974 0.00720 -0.34100
C 	C 	0.68722 0.33117 0.87135 0.28700
O 	O 	0.72478 0.36484 0.01007 -0.63800
O 	O 	0.65543 0.27404 0.95035 -0.64100
O 	O 	0.69479 0.21230 0.00003 -0.35100
O 	O 	0.77008 0.27772 0.96578 -0.43900
O 	O 	0.66451 0.34157 0.07950 -0.37800
O 	O 	0.75434 0.45930 0.96447 -0.37400
C 	C 	0.75338 0.49658 0.99189 0.31400
C 	C 	0.55508 0.27202 0.99373 0.30200
O 	O 	0.59775 0.33174 0.99125 -0.39900
O 	O 	0.73399 0.47888 0.02497 -0.39100
O 	O 	0.68773 0.27261 0.06045 -0.35100
C 	C 	0.74894 0.23426 0.98763 0.30900
O 	O 	0.68796 0.36794 0.90026 -0.36800
O 	O 	0.67756 0.27760 0.87616 -0.40700
H 	H 	0.77150 0.38873 0.02013 0.17000
H 	H 	0.61072 0.24918 0.93556 0.18000
Cu	Cu	0.70179 0.30507 0.44919 0.92900
Cu	Cu	0.71320 0.27359 0.53661 0.87400
Cu	Cu	0.60325 0.27165 0.50198 0.90100
Cu	Cu	0.57261 0.28670 0.41960 0.90000
C 	C 	0.65952 0.28967 0.36770 0.29200
O 	O 	0.73420 0.39445 0.44407 -0.36900
C 	C 	0.65719 0.31144 0.58705 0.29000
O 	O 	0.60181 0.24860 0.44805 -0.63800
O 	O 	0.69832 0.32114 0.50483 -0.64100
O 	O 	0.75226 0.27063 0.45439 -0.37000
O 	O 	0.69405 0.20798 0.49654 -0.43600
O 	O 	0.60338 0.27797 0.37080 -0.37300
O 	O 	0.51040 0.21836 0.49578 -0.36700
C 	C 	0.47125 0.21599 0.46748 0.31300
C 	C 	0.70230 0.41672 0.45308 0.30700
O 	O 	0.64269 0.37800 0.45813 -0.37400
O 	O 	0.49341 0.25469 0.44214 -0.38700
O 	O 	0.68928 0.27832 0.39430 -0.35800
C 	C 	0.73141 0.22072 0.47069 0.31500
O 	O 	0.60545 0.28112 0.55898 -0.37400
O 	O 	0.71022 0.31884 0.58113 -0.41000
H 	H 	0.57758 0.20237 0.43880 0.17400
H 	H 	0.72224 0.36647 0.51678 0.17700
C 	C 	0.60773 0.28588 0.68498 -0.03900
C 	C 	0.65757 0.34501 0.70875 0.02200
C 	C 	0.70064 0.39592 0.69126 -0.05900
C 	C 	0.69786 0.38682 0.65075 0.02500
C 	C 	0.65150 0.32618 0.62745 -0.07900
C 	C 	0.60462 0.27699 0.64446 0.01200
C 	C 	0.67098 0.35108 0.75175 0.02200
C 	C 	0.71908 0.34679 0.76840 -0.05800
C 	C 	0.72722 0.34394 0.80805 0.02500
C 	C 	0.68630 0.34460 0.83142 -0.07800
C 	C 	0.64091 0.35304 0.81537 0.01500
C 	C 	0.63326 0.35659 0.77569 -0.03900
C 	C 	0.77808 0.34090 0.82467 0.05900
C 	C 	0.58612 0.36497 0.75965 0.09500
C 	C 	0.56134 0.23333 0.70214 0.09400
C 	C 	0.74274 0.43982 0.63332 0.07100
N 	N 	0.81881 0.33847 0.83797 -0.12400
N 	N 	0.54834 0.37166 0.74676 -0.11100
N 	N 	0.77867 0.48225 0.61934 -0.11700
N 	N 	0.52421 0.19127 0.71593 -0.11200
H 	H 	0.56788 0.23071 0.62645 0.04400
H 	H 	0.73795 0.44189 0.70939 0.05500
H 	H 	0.74919 0.34417 0.75019 0.05200
H 	H 	0.61025 0.35490 0.83344 0.04600
C 	C 	0.70053 0.25873 0.27171 -0.03800
C 	C 	0.69913 0.30172 0.25156 0.02200
C 	C 	0.69146 0.34505 0.27110 -0.05600
C 	C 	0.68196 0.34377 0.30983 0.02500
C 	C 	0.67919 0.29806 0.32922 -0.07500
C 	C 	0.69047 0.25703 0.31038 0.01300
C 	C 	0.70005 0.29818 0.20911 0.02300
C 	C 	0.64363 0.25061 0.18235 -0.05600
C 	C 	0.64014 0.25187 0.14229 0.03000
C 	C 	0.69360 0.30130 0.12873 -0.07500
C 	C 	0.75117 0.34687 0.15521 0.00900
C 	C 	0.75477 0.34541 0.19530 -0.03900
C 	C 	0.58088 0.20339 0.11539 0.08700
C 	C 	0.81448 0.39281 0.22212 0.09200
C 	C 	0.71176 0.21596 0.25281 0.09600
C 	C 	0.67529 0.38966 0.32950 0.07100
N 	N 	0.53343 0.16462 0.09382 -0.09700
N 	N 	0.86230 0.43077 0.24364 -0.11200
N 	N 	0.66988 0.42637 0.34523 -0.11100
N 	N 	0.72076 0.18170 0.23764 -0.10800
H 	H 	0.68945 0.22251 0.32539 0.05100
H 	H 	0.69156 0.37890 0.25583 0.05600
H 	H 	0.60178 0.21376 0.19289 0.05900
H 	H 	0.79259 0.38443 0.14474 0.03200
C 	C 	0.86020 0.72709 0.49600 -0.10200
C 	C 	0.80830 0.68059 0.46626 -0.00600
C 	C 	0.78175 0.69838 0.43852 0.13900
C 	C 	0.80905 0.76267 0.43973 -0.06500
C 	C 	0.86320 0.80945 0.46826 -0.06000
C 	C 	0.88731 0.79125 0.49732 0.16500
C 	C 	0.78300 0.61351 0.46367 0.01000
O 	O 	0.72867 0.65301 0.41058 -0.27300
H 	H 	0.78958 0.77621 0.41761 0.06700
O 	O 	0.93871 0.83630 0.52631 -0.28400
H 	H 	0.88018 0.71354 0.51777 0.07000
C 	C 	0.79884 0.58529 0.43574 0.11800
C 	C 	0.77407 0.52145 0.43324 -0.03000
C 	C 	0.73409 0.48558 0.45882 -0.12300
C 	C 	0.72126 0.51498 0.48819 0.19400
C 	C 	0.74500 0.57844 0.49014 -0.11300
O 	O 	0.83713 0.61956 0.41021 -0.27300
H 	H 	0.78489 0.49952 0.41088 0.06500
O 	O 	0.68503 0.48162 0.51475 -0.28600
H 	H 	0.73398 0.60043 0.51232 0.07800
H 	H 	0.91956 0.84233 0.54783 0.14900
H 	H 	0.88182 0.63917 0.42345 0.14800
H 	H 	0.71636 0.48797 0.53680 0.14900
H 	H 	0.74598 0.64772 0.38772 0.16000
C 	C 	0.72988 0.07725 0.44771 -0.11600
C 	C 	0.79599 0.10541 0.45514 0.01300
C 	C 	0.84090 0.17196 0.46474 0.11600
C 	C 	0.81944 0.20967 0.46760 -0.03100
C 	C 	0.75329 0.18136 0.46204 -0.12900
C 	C 	0.70839 0.11485 0.45159 0.19800
C 	C 	0.81809 0.06509 0.45432 -0.00700
O 	O 	0.90574 0.20021 0.47131 -0.26800
H 	H 	0.85427 0.26082 0.47553 0.05300
O 	O 	0.64357 0.08667 0.44413 -0.29000
H 	H 	0.69510 0.02611 0.43964 0.07600
C 	C 	0.81017 0.03050 0.48430 0.13800
C 	C 	0.83542 0.99612 0.48483 -0.07300
C 	C 	0.86872 0.99603 0.45563 -0.06300
C 	C 	0.87447 0.02864 0.42485 0.17200
C 	C 	0.84929 0.06308 0.42434 -0.09200
O 	O 	0.78070 0.03290 0.51415 -0.27300
H 	H 	0.83082 0.97113 0.50861 0.06600
O 	O 	0.90626 0.02837 0.39584 -0.26500
H 	H 	0.85490 0.08903 0.40096 0.08200
H 	H 	0.62921 0.07594 0.46932 0.15200
H 	H 	0.73458 0.99642 0.50562 0.13700
H 	H 	0.87271 0.99116 0.37537 0.14200
H 	H 	0.91779 0.20364 0.49972 0.15000
C 	C 	0.16475 0.09175 0.44335 -0.09200
C 	C 	0.20069 0.08018 0.46836 -0.00500
C 	C 	0.17012 0.03551 0.49269 0.13600
C 	C 	0.10407 0.00278 0.49189 -0.05800
C 	C 	0.06758 0.01298 0.46612 -0.03700
C 	C 	0.09827 0.05766 0.44164 0.16000
C 	C 	0.27011 0.11398 0.46846 0.01200
O 	O 	0.20492 0.02434 0.51762 -0.26300
H 	H 	0.08106 0.96896 0.51109 0.07200
O 	O 	0.06343 0.06792 0.41599 -0.26400
H 	H 	0.18820 0.12642 0.42470 0.07200
C 	C 	0.29100 0.09988 0.43624 0.11500
C 	C 	0.35693 0.13234 0.43655 -0.03100
C 	C 	0.40234 0.17882 0.46887 -0.12100
C 	C 	0.38146 0.19265 0.50121 0.19800
C 	C 	0.31552 0.16012 0.50093 -0.11000
O 	O 	0.24702 0.05300 0.40500 -0.26900
H 	H 	0.37278 0.12153 0.41157 0.05100
O 	O 	0.42541 0.23777 0.53313 -0.27800
H 	H 	0.29966 0.17102 0.52586 0.08600
H 	H 	0.04934 0.03738 0.39145 0.15800
H 	H 	0.23956 0.07489 0.38624 0.14800
H 	H 	0.43452 0.27818 0.52778 0.15400
H 	H 	0.20310 0.98952 0.50242 0.14700
C 	C 	0.79950 0.64420 0.95388 -0.11300
C 	C 	0.84854 0.69187 0.98457 0.00800
C 	C 	0.86714 0.67524 0.01728 0.12000
C 	C 	0.83564 0.61131 0.01958 -0.02800
C 	C 	0.78641 0.56357 0.98899 -0.12400
C 	C 	0.76844 0.58018 0.95597 0.19300
C 	C 	0.88002 0.75919 0.98260 -0.00800
O 	O 	0.91529 0.72147 0.04737 -0.27100
H 	H 	0.84990 0.59882 0.04500 0.05700
O 	O 	0.72090 0.53395 0.92564 -0.28400
H 	H 	0.78520 0.65681 0.92854 0.07300
C 	C 	0.92385 0.78847 0.95731 0.13100
C 	C 	0.95730 0.85354 0.95788 -0.06400
C 	C 	0.94720 0.88982 0.98353 -0.06000
C 	C 	0.90212 0.86007 0.00823 0.16700
C 	C 	0.86869 0.79498 0.00756 -0.09300
O 	O 	0.93627 0.75417 0.93332 -0.27500
H 	H 	0.99151 0.87591 0.93859 0.06500
O 	O 	0.89356 0.89513 0.03466 -0.27800
H 	H 	0.83494 0.77256 0.02711 0.07700
H 	H 	0.68029 0.52480 0.93200 0.14800
H 	H 	0.90564 0.73856 0.90832 0.14700
H 	H 	0.85664 0.89268 0.02129 0.15200
H 	H 	0.95562 0.73058 0.04050 0.15400
C 	C 	0.93281 0.14910 0.97171 -0.09700
C 	C 	0.89590 0.13738 0.00096 -0.00500
C 	C 	0.89385 0.10052 0.02804 0.13600
C 	C 	0.92676 0.07384 0.02489 -0.06200
C 	C 	0.96274 0.08457 0.99520 -0.05800
C 	C 	0.96607 0.12276 0.96869 0.15600
C 	C 	0.85730 0.16154 0.00209 0.01400
O 	O 	0.85817 0.08898 0.05688 -0.27100
H 	H 	0.92402 0.04448 0.04541 0.07400
O 	O 	0.00151 0.13413 0.93972 -0.26500
H 	H 	0.93471 0.17768 0.95085 0.06600
C 	C 	0.88770 0.22688 0.01330 0.11200
C 	C 	0.85128 0.25001 0.01066 -0.02500
C 	C 	0.78458 0.20838 0.99661 -0.13000
C 	C 	0.75384 0.14271 0.98685 0.19300
C 	C 	0.79022 0.11954 0.98980 -0.11400
O 	O 	0.95280 0.26803 0.02739 -0.26900
H 	H 	0.87513 0.30055 0.01869 0.05500
O 	O 	0.68845 0.10123 0.97385 -0.27800
H 	H 	0.76651 0.06907 0.98149 0.08300
H 	H 	0.97122 0.09953 0.91707 0.14200
H 	H 	0.97264 0.28310 0.00423 0.14600
H 	H 	0.68222 0.09718 0.94499 0.13800
H 	H 	0.88810 0.12401 0.07939 0.15700
C 	C 	0.37387 0.15264 0.96688 -0.11800
C 	C 	0.35446 0.18828 0.98276 0.01300
C 	C 	0.40090 0.25287 0.99934 0.11500
C 	C 	0.46643 0.28064 0.00153 -0.02400
C 	C 	0.48609 0.24433 0.98716 -0.12500
C 	C 	0.43940 0.18050 0.96876 0.19700
C 	C 	0.28602 0.15669 0.98469 -0.00600
O 	O 	0.38247 0.28804 0.01527 -0.26500
H 	H 	0.50201 0.32988 0.01559 0.05300
O 	O 	0.45774 0.14489 0.95348 -0.28500
H 	H 	0.33817 0.10301 0.95368 0.08000
C 	C 	0.24700 0.16256 0.95769 0.13500
C 	C 	0.18191 0.13179 0.95965 -0.06100
C 	C 	0.15515 0.09404 0.98794 -0.06000
C 	C 	0.19456 0.08918 0.01537 0.17000
C 	C 	0.25962 0.12017 0.01350 -0.09300
O 	O 	0.27258 0.19894 0.92973 -0.27700
H 	H 	0.15191 0.13603 0.93860 0.07200
O 	O 	0.16926 0.05323 0.04357 -0.27200
H 	H 	0.28960 0.11577 0.03446 0.08000
H 	H 	0.46033 0.15090 0.92598 0.14400
H 	H 	0.26672 0.16958 0.90689 0.15000
H 	H 	0.17471 0.08272 0.06616 0.15700
H 	H 	0.37695 0.30726 0.99377 0.15500
