data_crystal

_cell_length_a 18.55411
_cell_length_b 18.87492
_cell_length_c 26.76091
_cell_angle_alpha 95.46303
_cell_angle_beta  95.46277
_cell_angle_gamma 126.43713

_symmetry_space_group_name_	'P 1'
_symmetry_space_group_name_H-M	'P 1'

loop_
_symmetry_equiv_pos_as_xyz
  x,y,z

loop_
_atom_site_label
_atom_site_type_symbol
_atom_site_fract_x
_atom_site_fract_y
_atom_site_fract_z
_atom_site_charge
C 	C 	0.95742 0.04211 0.00055 0.10500
N 	N 	0.91135 0.95211 0.99584 -0.11800
C 	C 	0.95705 0.91672 0.99404 0.12600
N 	N 	0.04852 0.97107 0.99704 -0.11500
C 	C 	0.09492 0.06081 0.00213 0.11900
N 	N 	0.04946 0.09665 0.00361 -0.12200
C 	C 	0.89743 0.99248 0.45138 0.15200
N 	N 	0.98849 0.04139 0.45248 -0.14300
C 	C 	0.03020 0.00211 0.45546 0.13200
N 	N 	0.98085 0.91357 0.45668 -0.13100
C 	C 	0.88966 0.86369 0.45464 0.13200
N 	N 	0.84755 0.90315 0.45241 -0.13100
Cu	Cu	0.63241 0.22381 0.01493 0.92800
Cu	Cu	0.66628 0.19359 0.89961 0.88300
Cu	Cu	0.67646 0.35215 0.93991 0.90200
Cu	Cu	0.66200 0.40485 0.04742 0.90200
C 	C 	0.67045 0.29724 0.12180 0.29100
O 	O 	0.50590 0.18176 0.02448 -0.35300
C 	C 	0.62305 0.27003 0.82906 0.28500
O 	O 	0.71405 0.36106 0.01114 -0.63800
O 	O 	0.60346 0.22075 0.94118 -0.63700
O 	O 	0.67979 0.15211 0.00990 -0.35900
O 	O 	0.76345 0.22671 0.95129 -0.42700
O 	O 	0.67681 0.36883 0.11348 -0.36700
O 	O 	0.75437 0.48098 0.94441 -0.36600
C 	C 	0.76032 0.53722 0.98111 0.29600
C 	C 	0.47460 0.22526 0.01095 0.28500
O 	O 	0.52960 0.30455 0.99963 -0.37500
O 	O 	0.70277 0.50821 0.01301 -0.38000
O 	O 	0.67835 0.24945 0.08653 -0.35100
C 	C 	0.74722 0.17640 0.98559 0.29600
O 	O 	0.65684 0.34214 0.86425 -0.36100
O 	O 	0.59897 0.19438 0.84212 -0.40000
H 	H 	0.78075 0.39552 0.02234 0.17500
H 	H 	0.53770 0.18660 0.92703 0.18800
Cu	Cu	0.74312 0.33739 0.44162 0.92800
Cu	Cu	0.75630 0.28854 0.55467 0.88600
Cu	Cu	0.60388 0.29042 0.51106 0.90100
Cu	Cu	0.56497 0.31735 0.40577 0.90200
C 	C 	0.66947 0.29696 0.33381 0.29000
O 	O 	0.78849 0.46482 0.43583 -0.34500
C 	C 	0.67013 0.32221 0.62245 0.28300
O 	O 	0.60181 0.25847 0.44024 -0.63800
O 	O 	0.73860 0.35890 0.51484 -0.63700
O 	O 	0.81108 0.28506 0.44756 -0.35400
O 	O 	0.72360 0.19648 0.50087 -0.42300
O 	O 	0.62291 0.32695 0.34485 -0.36700
O 	O 	0.47259 0.21634 0.50252 -0.37000
C 	C 	0.41791 0.21138 0.46451 0.29500
C 	C 	0.74508 0.49581 0.45135 0.28300
O 	O 	0.66263 0.44024 0.46039 -0.38100
O 	O 	0.44982 0.26676 0.43188 -0.37800
O 	O 	0.72395 0.29737 0.36971 -0.34800
C 	C 	0.77846 0.21388 0.46868 0.28900
O 	O 	0.60566 0.30556 0.58594 -0.36000
O 	O 	0.74977 0.34855 0.61274 -0.39500
H 	H 	0.56503 0.19317 0.42716 0.17400
H 	H 	0.77447 0.42277 0.53129 0.18700
C 	C 	0.64959 0.30218 0.67354 -0.06300
C 	C 	0.61303 0.33772 0.70054 -0.00400
C 	C 	0.60012 0.32456 0.75075 0.01000
C 	C 	0.62744 0.27844 0.77481 -0.06100
C 	C 	0.66016 0.23983 0.74686 -0.01000
C 	C 	0.66908 0.24938 0.69622 0.00700
H 	H 	0.59469 0.37546 0.68257 0.06000
H 	H 	0.67891 0.20225 0.76469 0.03900
C 	C 	0.69478 0.20175 0.66710 0.06100
C 	C 	0.55317 0.35282 0.77573 0.10100
N 	N 	0.71524 0.16348 0.64380 -0.12300
N 	N 	0.51522 0.37515 0.79566 -0.09600
C 	C 	0.67775 0.28479 0.17505 -0.05100
C 	C 	0.75670 0.35189 0.21086 -0.00200
C 	C 	0.75781 0.35194 0.26328 0.01100
C 	C 	0.67858 0.28496 0.28018 -0.05100
C 	C 	0.60253 0.21356 0.24423 -0.00600
C 	C 	0.60227 0.21249 0.19173 0.00900
H 	H 	0.81605 0.40596 0.19798 0.05400
H 	H 	0.54241 0.16059 0.25713 0.04700
C 	C 	0.52358 0.13811 0.15531 0.09200
C 	C 	0.83922 0.42302 0.29950 0.10100
N 	N 	0.46053 0.07851 0.12613 -0.10100
N 	N 	0.90438 0.47997 0.32854 -0.10000
C 	C 	0.83675 0.76621 0.45340 -0.00300
C 	C 	0.83262 0.73476 0.49959 -0.02100
C 	C 	0.80720 0.64770 0.49907 0.01500
C 	C 	0.78353 0.59093 0.45220 -0.07000
C 	C 	0.78338 0.62099 0.40582 0.01500
C 	C 	0.80891 0.70808 0.40649 -0.02100
C 	C 	0.85596 0.79264 0.54771 0.10400
C 	C 	0.75572 0.56202 0.35737 0.08700
C 	C 	0.80794 0.73859 0.35885 0.10400
C 	C 	0.80635 0.61687 0.54680 0.08200
N 	N 	0.80723 0.76305 0.32089 -0.09700
N 	N 	0.80562 0.59224 0.58487 -0.10800
N 	N 	0.73366 0.51536 0.31856 -0.10000
N 	N 	0.87463 0.83892 0.58607 -0.09600
C 	C 	0.81430 0.16160 0.46301 -0.07300
C 	C 	0.79733 0.11099 0.41494 0.01300
C 	C 	0.81913 0.05061 0.41129 -0.01300
C 	C 	0.85580 0.03920 0.45577 -0.02000
C 	C 	0.86847 0.08659 0.50386 -0.01700
C 	C 	0.85350 0.15173 0.50713 0.01500
C 	C 	0.75686 0.12035 0.36943 0.09100
C 	C 	0.89579 0.06733 0.55006 0.10000
C 	C 	0.88150 0.21090 0.55557 0.06300
C 	C 	0.80381 0.00024 0.36186 0.08400
N 	N 	0.90397 0.25818 0.59420 -0.12600
N 	N 	0.79161 0.95997 0.32244 -0.08700
N 	N 	0.91733 0.05176 0.58693 -0.09900
N 	N 	0.72456 0.12779 0.33309 -0.10000
C 	C 	0.12936 0.05571 0.45793 0.00100
C 	C 	0.16357 0.03926 0.41720 -0.03700
C 	C 	0.25828 0.08722 0.42061 0.02100
C 	C 	0.31907 0.15411 0.46389 -0.07400
C 	C 	0.28487 0.17052 0.50471 0.02000
C 	C 	0.19003 0.12057 0.50197 -0.02400
C 	C 	0.10121 0.97394 0.37144 0.12500
C 	C 	0.34726 0.24000 0.54906 0.09400
C 	C 	0.15483 0.13498 0.54474 0.10500
C 	C 	0.29337 0.06717 0.37985 0.07400
N 	N 	0.12693 0.14659 0.57891 -0.09700
N 	N 	0.32142 0.05123 0.34736 -0.11200
N 	N 	0.39703 0.29537 0.58443 -0.09900
N 	N 	0.05141 0.92182 0.33498 -0.09700
C 	C 	0.82096 0.63428 0.98106 -0.06800
C 	C 	0.88215 0.69419 0.02635 0.01200
C 	C 	0.92335 0.78625 0.03141 -0.02100
C 	C 	0.90795 0.81947 0.98998 0.00100
C 	C 	0.85229 0.76057 0.94329 -0.02300
C 	C 	0.80827 0.66790 0.93890 0.01900
C 	C 	0.90283 0.66085 0.06769 0.07600
C 	C 	0.84154 0.79545 0.89951 0.10600
C 	C 	0.74935 0.60725 0.89124 0.09700
C 	C 	0.98040 0.84673 0.07952 0.09500
N 	N 	0.70251 0.55906 0.85312 -0.09500
N 	N 	0.02593 0.89505 0.11785 -0.08700
N 	N 	0.83286 0.82299 0.86448 -0.09500
N 	N 	0.91927 0.63418 0.10064 -0.11200
C 	C 	0.90622 0.07922 0.99707 0.00900
C 	C 	0.85912 0.06912 0.94918 -0.02900
C 	C 	0.79951 0.09223 0.94630 0.02000
C 	C 	0.79526 0.13588 0.99057 -0.07700
C 	C 	0.84451 0.14847 0.03851 0.01800
C 	C 	0.89877 0.11872 0.04182 -0.03100
C 	C 	0.87514 0.03869 0.90269 0.10300
C 	C 	0.84070 0.19325 0.08418 0.09000
C 	C 	0.94720 0.12912 0.09113 0.10300
C 	C 	0.74047 0.06864 0.89808 0.05600
N 	N 	0.98589 0.13739 0.13046 -0.10200
N 	N 	0.69338 0.04978 0.85961 -0.13300
N 	N 	0.83770 0.22898 0.12064 -0.09800
N 	N 	0.88819 0.01483 0.86555 -0.10000
C 	C 	0.37749 0.18555 0.00868 -0.07600
C 	C 	0.31914 0.15463 0.96087 0.02100
C 	C 	0.22794 0.12229 0.95869 -0.02100
C 	C 	0.19420 0.11838 0.00418 -0.00300
C 	C 	0.25391 0.15454 0.05183 -0.02300
C 	C 	0.34581 0.18902 0.05409 0.01800
C 	C 	0.35298 0.15642 0.91395 0.08000
C 	C 	0.22023 0.15471 0.09855 0.10400
C 	C 	0.40857 0.23135 0.10286 0.08200
C 	C 	0.16813 0.09164 0.90963 0.10400
N 	N 	0.45860 0.26541 0.14178 -0.10600
N 	N 	0.12030 0.06712 0.87053 -0.09800
N 	N 	0.19323 0.15476 0.13578 -0.09800
N 	N 	0.37976 0.15787 0.87643 -0.10900
