data_crystal

_cell_length_a 12.82106
_cell_length_b 13.28337
_cell_length_c 44.76239
_cell_angle_alpha 90.58476
_cell_angle_beta  90.59295
_cell_angle_gamma 119.38842

_symmetry_space_group_name_	'P 1'
_symmetry_space_group_name_H-M	'P 1'

loop_
_symmetry_equiv_pos_as_xyz
  x,y,z

loop_
_atom_site_label
_atom_site_type_symbol
_atom_site_fract_x
_atom_site_fract_y
_atom_site_fract_z
_atom_site_charge
O 	O 	0.02056 0.27160 0.30224 -0.40200
C 	C 	0.03213 0.29684 0.38908 0.32100
C 	C 	0.04194 0.62840 0.48155 -0.02000
C 	C 	0.05691 0.57898 0.99482 -0.06100
C 	C 	0.04722 0.45756 0.95217 0.01400
H 	H 	0.06053 0.66438 0.03609 0.03200
O 	O 	0.01310 0.32554 0.36240 -0.39100
C 	C 	0.04484 0.65577 0.51194 -0.04300
Ni	Ni	0.05423 0.74151 0.78605 1.11300
H 	H 	0.02898 0.57149 0.62931 0.04200
H 	H 	0.05335 0.73967 0.65985 0.03400
O 	O 	0.09084 0.23983 0.39203 -0.39700
H 	H 	0.06456 0.08005 0.57120 0.04500
C 	C 	0.10388 0.62705 0.02295 -0.02800
H 	H 	0.09381 0.74505 0.51963 0.04300
O 	O 	0.09096 0.01182 0.79688 -0.40300
H 	H 	0.09324 0.85273 0.05412 0.03800
H 	H 	0.08142 0.56663 0.08578 0.04400
H 	H 	0.99196 0.59162 0.55607 0.03900
C 	C 	0.11204 0.72034 0.46126 0.05400
Ni	Ni	0.99276 0.93363 0.75951 1.12400
C 	C 	0.98786 0.56864 0.53267 -0.02100
C 	C 	0.62252 0.24946 0.96603 0.30200
C 	C 	0.47744 0.14274 0.83983 0.34400
C 	C 	0.41056 0.99088 0.93020 0.30800
C 	C 	0.67934 0.44771 0.87802 0.32100
C 	C 	0.71315 0.02609 0.86380 0.33600
C 	C 	0.91112 0.31539 0.90924 0.29400
Ni	Ni	0.50525 0.21831 0.90353 1.11300
Ni	Ni	0.72934 0.25478 0.86218 1.12300
Ni	Ni	0.67741 0.10829 0.92206 1.12100
O 	O 	0.52422 0.22519 0.95022 -0.37800
O 	O 	0.69226 0.20402 0.95938 -0.37500
O 	O 	0.78343 0.13633 0.85841 -0.38500
O 	O 	0.46350 0.21184 0.85846 -0.37900
O 	O 	0.58041 0.14369 0.83835 -0.38600
O 	O 	0.85640 0.20312 0.91480 -0.37300
O 	O 	0.40209 0.04152 0.90613 -0.38000
O 	O 	0.51112 0.99095 0.93656 -0.37200
O 	O 	0.88304 0.35506 0.88510 -0.37000
O 	O 	0.59866 0.39660 0.89902 -0.38100
O 	O 	0.69259 0.38651 0.85621 -0.36500
O 	O 	0.65273 0.99443 0.88878 -0.38600
O 	O 	0.64721 0.21276 0.89930 -0.71100
H 	H 	0.69817 0.28463 0.91066 0.14300
C 	C 	0.71291 0.34712 0.69008 0.32000
C 	C 	0.30196 0.88992 0.66797 0.30200
C 	C 	0.51960 0.05067 0.73064 0.32500
C 	C 	0.40984 0.10454 0.60929 0.29500
C 	C 	0.62098 0.87031 0.67430 0.33700
C 	C 	0.77602 0.14320 0.62251 0.28500
Ni	Ni	0.46757 0.14317 0.67726 1.11300
Ni	Ni	0.52135 0.97365 0.63315 1.12200
Ni	Ni	0.70863 0.11678 0.68586 1.11900
O 	O 	0.60864 0.31252 0.67606 -0.37900
O 	O 	0.73760 0.27191 0.70347 -0.37000
O 	O 	0.52355 0.85355 0.66001 -0.40000
O 	O 	0.32004 0.98044 0.68392 -0.36600
O 	O 	0.34404 0.90259 0.64090 -0.38600
O 	O 	0.81148 0.18996 0.64981 -0.37400
O 	O 	0.51777 0.14247 0.72108 -0.37800
O 	O 	0.60289 0.02840 0.72096 -0.37700
O 	O 	0.69165 0.03332 0.61891 -0.37400
O 	O 	0.39999 0.15125 0.63492 -0.36800
O 	O 	0.49567 0.07793 0.60512 -0.38400
O 	O 	0.71636 0.97323 0.67513 -0.38900
O 	O 	0.57250 0.09451 0.66225 -0.71000
H 	H 	0.61317 0.16046 0.64890 0.14700
C 	C 	0.87116 0.63360 0.83341 0.32300
C 	C 	0.79073 0.79587 0.71803 0.33400
C 	C 	0.88021 0.56200 0.74294 0.32400
C 	C 	0.79360 0.90748 0.79877 0.32200
C 	C 	0.21007 0.91981 0.74578 0.35000
C 	C 	0.17658 0.99184 0.80750 0.30700
Ni	Ni	0.77031 0.68319 0.77755 1.11200
O 	O 	0.77889 0.59175 0.81441 -0.36000
O 	O 	0.97870 0.65919 0.82424 -0.37100
O 	O 	0.14137 0.96243 0.73794 -0.40400
O 	O 	0.72047 0.74939 0.74102 -0.37000
O 	O 	0.90725 0.84787 0.72152 -0.38500
O 	O 	0.15864 0.88471 0.81154 -0.38300
O 	O 	0.78075 0.56453 0.74889 -0.36600
O 	O 	0.96201 0.58600 0.76418 -0.37100
O 	O 	0.74161 0.79586 0.80470 -0.37300
O 	O 	0.84782 0.94567 0.77308 -0.38800
O 	O 	0.16256 0.80929 0.75109 -0.40300
O 	O 	0.93755 0.78921 0.77907 -0.70100
H 	H 	0.93921 0.81645 0.79971 0.14100
C 	C 	0.42649 0.79275 0.48577 0.28900
C 	C 	0.76033 0.17723 0.41626 0.33400
C 	C 	0.65931 0.03688 0.51698 0.33400
C 	C 	0.54333 0.84414 0.39502 0.32900
C 	C 	0.49173 0.22724 0.44419 0.33100
C 	C 	0.26636 0.92533 0.44166 0.31000
Ni	Ni	0.65844 0.96400 0.45379 1.11200
Ni	Ni	0.49639 0.03808 0.40971 1.12300
Ni	Ni	0.47141 0.04265 0.48215 1.11800
O 	O 	0.52792 0.81048 0.47272 -0.36600
O 	O 	0.41258 0.87846 0.49798 -0.37600
O 	O 	0.51136 0.19393 0.41804 -0.38100
O 	O 	0.78077 0.12681 0.43918 -0.36800
O 	O 	0.67010 0.11685 0.39747 -0.37500
O 	O 	0.31195 0.00091 0.46360 -0.40200
O 	O 	0.72009 0.01432 0.49766 -0.37500
O 	O 	0.61761 0.10414 0.50896 -0.39000
O 	O 	0.31527 0.95021 0.41493 -0.37200
O 	O 	0.64434 0.90123 0.41019 -0.38300
O 	O 	0.47287 0.88925 0.39066 -0.38100
O 	O 	0.53311 0.20599 0.46895 -0.39000
O 	O 	0.53220 0.99975 0.44833 -0.69800
H 	H 	0.46647 0.92101 0.44503 0.12700
C 	C 	0.39480 0.93427 0.28116 0.30400
C 	C 	0.37863 0.81646 0.15208 0.30400
C 	C 	0.29107 0.62676 0.24009 0.33900
C 	C 	0.43589 0.06370 0.18181 0.31200
C 	C 	0.61520 0.75103 0.20223 0.30600
C 	C 	0.74524 0.04982 0.24565 0.32600
Ni	Ni	0.32084 0.84961 0.21658 1.11100
Ni	Ni	0.59598 0.95811 0.19115 1.11900
Ni	Ni	0.52672 0.82411 0.25364 1.12200
O 	O 	0.30384 0.86759 0.26271 -0.37000
O 	O 	0.49074 0.92005 0.28351 -0.37400
O 	O 	0.67630 0.86181 0.19641 -0.38300
O 	O 	0.30290 0.82456 0.17037 -0.38100
O 	O 	0.48456 0.83460 0.16128 -0.39100
O 	O 	0.70277 0.94025 0.25270 -0.38900
O 	O 	0.25128 0.67190 0.22017 -0.38600
O 	O 	0.36189 0.69157 0.26190 -0.37600
O 	O 	0.72194 0.07793 0.21902 -0.37900
O 	O 	0.37449 0.01979 0.20635 -0.37500
O 	O 	0.54388 0.07506 0.17850 -0.37600
O 	O 	0.54948 0.71512 0.22632 -0.38100
O 	O 	0.48416 0.89654 0.22264 -0.71200
H 	H 	0.50905 0.97195 0.23239 0.14600
C 	C 	0.25952 0.09239 0.31818 0.31100
C 	C 	0.36215 0.56301 0.35962 0.34300
C 	C 	0.31792 0.23742 0.39733 0.34900
C 	C 	0.31800 0.44173 0.28197 0.31700
C 	C 	0.94563 0.16387 0.31030 0.34200
Ni	Ni	0.37690 0.35256 0.33813 1.11300
Ni	Ni	0.14100 0.38741 0.33137 1.12200
Ni	Ni	0.11133 0.15459 0.35725 1.12100
O 	O 	0.35780 0.18675 0.32885 -0.36200
O 	O 	0.14914 0.06939 0.32519 -0.38300
O 	O 	0.43196 0.52738 0.34743 -0.36900
O 	O 	0.24961 0.49071 0.36410 -0.40200
O 	O 	0.95608 0.12453 0.33679 -0.37700
O 	O 	0.39316 0.33256 0.38392 -0.36800
O 	O 	0.24086 0.14830 0.38149 -0.39500
O 	O 	0.38123 0.39546 0.29326 -0.37400
O 	O 	0.26253 0.48103 0.29961 -0.37300
O 	O 	0.20905 0.28945 0.33548 -0.71600
H 	H 	0.19443 0.25732 0.31496 0.15600
C 	C 	0.25613 0.51363 0.23844 -0.12300
C 	C 	0.32750 0.46647 0.25285 -0.11100
H 	H 	0.19000 0.46035 0.22152 0.07700
H 	H 	0.37886 0.44047 0.23872 0.08000
C 	C 	0.84532 0.10012 0.29443 -0.11500
C 	C 	0.82547 0.13185 0.26404 -0.11300
H 	H 	0.77781 0.01879 0.30365 0.09000
H 	H 	0.87141 0.22159 0.25726 0.09200
C 	C 	0.38494 0.00944 0.29985 -0.10600
C 	C 	0.27052 0.01278 0.30173 -0.10800
H 	H 	0.45956 0.06437 0.31471 0.08300
H 	H 	0.18986 0.94165 0.29179 0.08100
C 	C 	0.84805 0.27909 0.40759 -0.12600
C 	C 	0.97295 0.30578 0.41224 -0.08300
H 	H 	0.82889 0.32543 0.39044 0.09200
H 	H 	0.00164 0.29816 0.43466 0.06400
C 	C 	0.52099 0.74764 0.37995 -0.11300
C 	C 	0.40256 0.67468 0.36548 -0.12500
H 	H 	0.58542 0.71685 0.38101 0.08400
H 	H 	0.33721 0.70441 0.36619 0.09100
C 	C 	0.42542 0.27936 0.44556 -0.11400
C 	C 	0.31467 0.23228 0.42714 -0.12600
H 	H 	0.42899 0.32613 0.46593 0.07500
H 	H 	0.23262 0.16814 0.43733 0.07900
C 	C 	0.22379 0.77277 0.67868 -0.07400
C 	C 	0.11518 0.70694 0.66285 0.01300
C 	C 	0.10360 0.61437 0.64495 -0.06000
C 	C 	0.20510 0.59983 0.64246 0.02300
C 	C 	0.27342 0.62322 0.66908 -0.05400
C 	C 	0.28213 0.71215 0.68795 0.01100
C 	C 	0.27167 0.63274 0.61349 0.00400
C 	C 	0.38474 0.63917 0.61148 -0.03900
C 	C 	0.47248 0.72082 0.59291 -0.03800
C 	C 	0.44500 0.79045 0.57483 -0.03000
C 	C 	0.32719 0.76957 0.57293 -0.03100
C 	C 	0.24035 0.68964 0.59159 -0.03900
C 	C 	0.53522 0.88056 0.55711 0.05800
C 	C 	0.59907 0.95479 0.54011 -0.11800
H 	H 	0.33210 0.58733 0.67259 0.04500
H 	H 	0.35133 0.74828 0.70516 0.03900
H 	H 	0.40743 0.58715 0.62572 0.04300
H 	H 	0.56188 0.73154 0.59317 0.04500
H 	H 	0.30349 0.81812 0.55761 0.04500
H 	H 	0.15139 0.67907 0.59052 0.03800
C 	C 	0.81126 0.21924 0.59650 -0.08400
C 	C 	0.86643 0.19873 0.57207 0.02200
C 	C 	0.89546 0.26889 0.54688 -0.05800
C 	C 	0.87007 0.36048 0.54604 0.03500
C 	C 	0.80616 0.37448 0.56957 -0.06200
C 	C 	0.77952 0.30614 0.59491 0.01900
C 	C 	0.92638 0.45224 0.52336 0.00600
C 	C 	0.92151 0.42432 0.49272 -0.03800
C 	C 	0.97986 0.51250 0.47187 -0.01000
C 	C 	0.17897 0.80917 0.44900 -0.11900
H 	H 	0.88732 0.12902 0.57260 0.03700
H 	H 	0.93944 0.25328 0.52833 0.06100
H 	H 	0.78115 0.44137 0.56869 0.05100
H 	H 	0.73328 0.32020 0.61322 0.03000
H 	H 	0.87339 0.33500 0.48510 0.05900
H 	H 	0.97737 0.49065 0.44842 0.04800
C 	C 	0.33709 0.10210 0.58357 -0.08300
C 	C 	0.21534 0.06617 0.58730 0.01400
C 	C 	0.15523 0.09886 0.56677 -0.06600
C 	C 	0.21768 0.16964 0.54288 0.02900
C 	C 	0.33213 0.18655 0.53632 -0.06900
C 	C 	0.39219 0.15353 0.55679 0.00600
C 	C 	0.18188 0.25178 0.53135 0.00000
C 	C 	0.18109 0.33443 0.55101 -0.03900
C 	C 	0.19458 0.43781 0.54000 -0.03500
C 	C 	0.21192 0.46040 0.50950 -0.00400
C 	C 	0.19416 0.37122 0.48949 -0.03600
C 	C 	0.17781 0.26629 0.50044 -0.03900
C 	C 	0.27887 0.57807 0.50028 0.04600
C 	C 	0.34292 0.67678 0.49346 -0.09300
H 	H 	0.17006 0.02068 0.60722 0.03500
H 	H 	0.37940 0.23652 0.51714 0.04700
H 	H 	0.48471 0.17698 0.55304 0.03800
H 	H 	0.17961 0.32249 0.57495 0.04200
H 	H 	0.20190 0.50411 0.55543 0.04400
H 	H 	0.20359 0.38664 0.46569 0.04700
H 	H 	0.17253 0.20058 0.48505 0.04200
C 	C 	0.62685 0.78024 0.68570 -0.11800
C 	C 	0.74466 0.78775 0.69057 -0.12000
H 	H 	0.54631 0.69681 0.68710 0.07600
H 	H 	0.80437 0.81158 0.67167 0.08500
C 	C 	0.42323 0.96918 0.74464 -0.11300
C 	C 	0.32530 0.99334 0.75237 -0.14200
H 	H 	0.41545 0.88577 0.74940 0.08000
H 	H 	0.35013 0.08313 0.75681 0.08400
C 	C 	0.78336 0.46062 0.69574 -0.11100
C 	C 	0.88186 0.50336 0.71848 -0.10800
H 	H 	0.75941 0.52169 0.68622 0.08100
H 	H 	0.95482 0.48484 0.71544 0.08400
C 	C 	0.33533 0.76642 0.12203 -0.09000
C 	C 	0.41345 0.80372 0.09782 0.01900
C 	C 	0.37178 0.75638 0.06926 -0.07000
C 	C 	0.25156 0.67137 0.06468 0.02900
C 	C 	0.17399 0.63311 0.08899 -0.06900
C 	C 	0.21545 0.68073 0.11746 0.01800
C 	C 	0.20558 0.62544 0.03429 -0.00800
C 	C 	0.10994 0.52738 0.97794 0.01600
C 	C 	0.21370 0.52885 0.98874 -0.04300
C 	C 	0.26153 0.57780 0.01683 -0.03300
C 	C 	0.98851 0.39498 0.93176 -0.07000
H 	H 	0.50593 0.87031 0.10104 0.02900
H 	H 	0.43226 0.78719 0.05062 0.04700
H 	H 	0.15461 0.65024 0.13604 0.03300
H 	H 	0.97648 0.57788 0.98664 0.06000
H 	H 	0.25485 0.48856 0.97586 0.04300
H 	H 	0.33992 0.57585 0.02536 0.03700
C 	C 	0.32275 0.96324 0.95423 -0.09300
C 	C 	0.26515 0.02949 0.95785 0.02300
C 	C 	0.22664 0.04190 0.98614 -0.06100
C 	C 	0.24276 0.98588 0.01071 0.02100
C 	C 	0.28572 0.90824 0.00614 -0.06400
C 	C 	0.32163 0.89399 0.97783 0.02300
C 	C 	0.23355 0.02146 0.04150 0.01000
C 	C 	0.31713 0.13258 0.05205 -0.04000
C 	C 	0.33869 0.15457 0.08278 -0.03200
C 	C 	0.27671 0.06579 0.10307 -0.00400
C 	C 	0.18277 0.95949 0.09268 -0.03500
C 	C 	0.16068 0.93763 0.06199 -0.04500
C 	C 	0.32801 0.07300 0.13231 0.04900
C 	C 	0.37521 0.07284 0.15573 -0.10700
H 	H 	0.26021 0.07964 0.93951 0.01800
H 	H 	0.19108 0.10024 0.98927 0.04600
H 	H 	0.30032 0.86621 0.02496 0.05000
H 	H 	0.35992 0.83775 0.97499 0.03700
H 	H 	0.37199 0.19896 0.03646 0.04500
H 	H 	0.40994 0.23771 0.09063 0.04300
H 	H 	0.13317 0.89071 0.10823 0.03900
C 	C 	0.62379 0.66736 0.18207 -0.08500
C 	C 	0.51950 0.56705 0.17262 0.02000
C 	C 	0.52299 0.50157 0.14836 -0.06300
C 	C 	0.63086 0.53575 0.13348 0.02900
C 	C 	0.73674 0.63059 0.14446 -0.06400
C 	C 	0.73325 0.69615 0.16865 0.01900
C 	C 	0.63025 0.48240 0.10439 0.00200
C 	C 	0.69418 0.42248 0.10083 -0.04000
C 	C 	0.69909 0.37794 0.07272 -0.03200
C 	C 	0.64046 0.39346 0.04806 -0.00600
C 	C 	0.57633 0.45293 0.05163 -0.03400
C 	C 	0.57126 0.49730 0.07967 -0.04100
C 	C 	0.64066 0.34360 0.01937 0.04200
C 	C 	0.63576 0.30130 0.99508 -0.09700
H 	H 	0.43460 0.54364 0.18289 0.03600
H 	H 	0.44103 0.42737 0.14030 0.04900
H 	H 	0.82071 0.65685 0.13334 0.05000
H 	H 	0.81474 0.77218 0.17613 0.03900
H 	H 	0.74024 0.41079 0.11977 0.04500
H 	H 	0.74811 0.33131 0.07016 0.04300
H 	H 	0.52977 0.46417 0.03273 0.03900
H 	H 	0.52237 0.54411 0.08215 0.04200
C 	C 	0.77413 0.97978 0.81596 -0.10900
C 	C 	0.71171 0.94555 0.84506 -0.11700
H 	H 	0.80837 0.06812 0.80860 0.08500
H 	H 	0.66099 0.85475 0.85073 0.09000
C 	C 	0.38614 0.06894 0.82256 -0.12700
C 	C 	0.27786 0.08087 0.81818 -0.11000
H 	H 	0.39324 0.00098 0.81061 0.09000
H 	H 	0.28583 0.16615 0.81968 0.08200
C 	C 	0.85290 0.62665 0.86293 -0.11800
C 	C 	0.73255 0.56259 0.87583 -0.10800
H 	H 	0.92976 0.66315 0.87816 0.08400
H 	H 	0.70382 0.61018 0.89030 0.07700
