data_crystal

_cell_length_a 25.72980
_cell_length_b 26.30391
_cell_length_c 20.26841
_cell_angle_alpha 95.48271
_cell_angle_beta  95.48299
_cell_angle_gamma 125.83410

_symmetry_space_group_name_	'P 1'
_symmetry_space_group_name_H-M	'P 1'

loop_
_symmetry_equiv_pos_as_xyz
  x,y,z

loop_
_atom_site_label
_atom_site_type_symbol
_atom_site_fract_x
_atom_site_fract_y
_atom_site_fract_z
_atom_site_charge
C 	C 	0.14757 0.10646 0.05246 0.20300
N 	N 	0.10876 0.12559 0.04646 -0.07500
C 	C 	0.12045 0.00477 0.48493 0.02500
C 	C 	0.13024 0.05948 0.39092 -0.06700
C 	C 	0.06184 0.02368 0.37594 0.05300
C 	C 	0.17121 0.10506 0.34550 0.79300
H 	H 	0.03851 0.02847 0.33208 0.15200
F 	F 	0.13522 0.11663 0.30308 -0.34000
F 	F 	0.09381 0.17357 0.93065 -0.37400
C 	C 	0.23180 0.17351 0.98657 0.07300
C 	C 	0.21661 0.15053 0.04682 0.06100
C 	C 	0.26715 0.16626 0.09896 -0.07000
H 	H 	0.19272 0.16091 0.94680 0.15300
C 	C 	0.25306 0.14734 0.16714 0.78800
F 	F 	0.22652 0.08347 0.16248 -0.36200
C 	C 	0.15956 0.04909 0.44562 0.10300
F 	F 	0.26293 0.23738 0.87988 -0.33900
F 	F 	0.19407 0.07889 0.30628 -0.35300
F 	F 	0.20981 0.15763 0.18819 -0.34600
C 	C 	0.04343 0.08286 0.04280 0.18000
F 	F 	0.30949 0.18287 0.21586 -0.36700
C 	C 	0.23091 0.08168 0.45976 0.09800
H 	H 	0.22369 0.01211 0.38643 0.14200
F 	F 	0.21209 0.11755 0.59654 -0.37300
C 	C 	0.29655 0.21019 0.97622 -0.06300
C 	C 	0.31148 0.23459 0.91043 0.78500
F 	F 	0.22366 0.16315 0.38352 -0.36100
F 	F 	0.20470 0.17068 0.51980 -0.35700
N 	N 	0.12098 0.04463 0.05549 -0.08500
C 	C 	0.33082 0.19754 0.08609 0.05400
C 	C 	0.25667 0.05656 0.42233 0.04400
C 	C 	0.24617 0.16188 0.55639 0.79000
F 	F 	0.02495 0.29087 0.00404 -0.36200
F 	F 	0.00672 0.26650 0.10698 -0.33400
C 	C 	0.34592 0.21952 0.02530 0.08200
F 	F 	0.31566 0.19396 0.86671 -0.37400
C 	C 	0.27324 0.13828 0.50903 -0.08600
F 	F 	0.29525 0.21941 0.59825 -0.35800
H 	H 	0.36866 0.20412 0.12295 0.11900
F 	F 	0.00694 0.34615 0.07715 -0.34800
C 	C 	0.32451 0.08994 0.42870 -0.04900
F 	F 	0.36963 0.29541 0.92143 -0.35100
F 	F 	0.40333 0.34864 0.06042 -0.35400
C 	C 	0.34115 0.17230 0.51426 0.09000
C 	C 	0.35169 0.06317 0.38619 0.76600
H 	H 	0.38046 0.16161 0.94501 0.13400
C 	C 	0.36671 0.15011 0.47214 0.02100
N 	N 	0.01718 0.02134 0.04720 -0.08400
H 	H 	0.37429 0.21734 0.54920 0.11800
F 	F 	0.37525 0.09712 0.33483 -0.40600
C 	C 	0.41226 0.24752 0.01146 0.08300
F 	F 	0.40193 0.06807 0.42566 -0.41600
C 	C 	0.02831 0.12257 0.91436 0.82100
C 	C 	0.42193 0.20962 0.96897 0.05700
F 	F 	0.02177 0.06621 0.90290 -0.39000
F 	F 	0.43484 0.15490 0.85552 -0.37100
C 	C 	0.43583 0.19357 0.46699 0.30700
C 	C 	0.00075 0.10253 0.03164 0.14100
F 	F 	0.00167 0.12735 0.85474 -0.35600
F 	F 	0.45041 0.33668 0.15117 -0.38900
O 	O 	0.45211 0.23222 0.42324 -0.29300
C 	C 	0.45754 0.35335 0.08822 0.78800
C 	C 	0.46635 0.31001 0.04374 -0.08700
O 	O 	0.48053 0.20236 0.51462 -0.30400
C 	C 	0.05605 0.00237 0.05434 0.19200
C 	C 	0.48458 0.23331 0.95713 -0.06800
C 	C 	0.49235 0.19606 0.90221 0.78500
F 	F 	0.50893 0.16045 0.93045 -0.39600
F 	F 	0.51114 0.41659 0.09593 -0.34400
F 	F 	0.07518 0.00085 0.19351 -0.37100
C 	C 	0.98964 0.28605 0.05352 0.72900
C 	C 	0.78978 0.02084 0.45368 0.01500
C 	C 	0.77331 0.03764 0.39598 0.10500
C 	C 	0.78101 0.01821 0.33223 -0.10800
C 	C 	0.75310 0.08003 0.40402 0.10100
C 	C 	0.76563 0.03754 0.26920 0.79600
H 	H 	0.78517 0.03732 0.50231 0.13500
C 	C 	0.68840 0.05552 0.41079 -0.11200
C 	C 	0.67301 0.09820 0.42490 0.08600
C 	C 	0.80056 0.14603 0.41061 0.03500
H 	H 	0.62399 0.08015 0.43125 0.10200
F 	F 	0.81435 0.10133 0.27042 -0.37200
F 	F 	0.70650 0.02804 0.26550 -0.37100
F 	F 	0.76161 0.00197 0.21130 -0.35400
C 	C 	0.95844 0.14777 0.96600 0.09300
C 	C 	0.92505 0.14730 0.01693 0.06100
C 	C 	0.92658 0.12112 0.07439 -0.05700
C 	C 	0.96530 0.09963 0.08141 0.00700
C 	C 	0.99455 0.12352 0.97155 -0.14000
C 	C 	0.88667 0.17234 0.00811 0.09000
C 	C 	0.88436 0.11282 0.12614 0.78500
H 	H 	0.96821 0.08079 0.12573 0.14400
H 	H 	0.95620 0.16726 0.92195 0.11800
C 	C 	0.78460 0.15273 0.95927 -0.06100
C 	C 	0.82078 0.13006 0.97685 0.05500
C 	C 	0.71396 0.10610 0.92296 0.78200
H 	H 	0.79827 0.07947 0.96479 0.14100
F 	F 	0.81933 0.06752 0.09696 -0.37400
F 	F 	0.89473 0.16986 0.14897 -0.36200
F 	F 	0.89807 0.09285 0.18158 -0.37100
F 	F 	0.70311 0.12798 0.86771 -0.41900
F 	F 	0.67316 0.09940 0.96674 -0.37000
F 	F 	0.69790 0.04643 0.89986 -0.37000
F 	F 	0.54012 0.23704 0.86787 -0.43000
O 	O 	0.72731 0.22792 0.98445 -0.26600
O 	O 	0.67316 0.20075 0.50139 -0.37500
H 	H 	0.53514 0.17886 0.40641 0.23500
C 	C 	0.72067 0.16430 0.43225 0.00300
C 	C 	0.78564 0.18882 0.42659 -0.05500
H 	H 	0.84969 0.16401 0.40481 0.13900
C 	C 	0.91705 0.23869 0.02431 -0.08000
C 	C 	0.81468 0.21895 0.97638 0.02600
C 	C 	0.77911 0.24520 0.95852 0.29800
Cu	Cu	0.70613 0.28833 0.00712 0.94100
Cu	Cu	0.74928 0.29632 0.85810 0.91400
O 	O 	0.61738 0.26852 0.00979 -0.29300
O 	O 	0.70678 0.31412 0.91957 -0.63100
O 	O 	0.80370 0.29103 0.92305 -0.37200
C 	C 	0.60611 0.31033 0.00062 0.26700
O 	O 	0.71904 0.27939 0.09785 -0.32700
O 	O 	0.71838 0.32477 0.79166 -0.35500
H 	H 	0.66370 0.30089 0.89721 0.24100
Cu	Cu	0.69709 0.27311 0.56375 0.91500
Cu	Cu	0.57299 0.25656 0.51236 0.91900
C 	C 	0.64642 0.31907 0.65030 0.33900
O 	O 	0.56009 0.22581 0.41842 -0.63300
O 	O 	0.71157 0.24803 0.41121 -0.27600
O 	O 	0.63270 0.24351 0.31245 -0.31800
C 	C 	0.70264 0.20716 0.44992 0.30400
O 	O 	0.58906 0.27486 0.61138 -0.34000
C 	C 	0.64897 0.35228 0.70647 -0.07800
H 	H 	0.60485 0.34579 0.71631 0.14200
H 	H 	0.66022 0.21608 0.18655 0.14700
C 	C 	0.83898 0.26031 0.43681 0.77900
C 	C 	0.88042 0.26118 0.00821 0.05800
C 	C 	0.52966 0.33023 0.03860 0.05400
C 	C 	0.53931 0.29174 0.99693 0.04100
C 	C 	0.69815 0.29806 0.14422 0.33700
Cu	Cu	0.65802 0.28023 0.40634 0.94300
Cu	Cu	0.52327 0.25897 0.37084 0.93200
C 	C 	0.59704 0.25129 0.26922 0.32000
O 	O 	0.66706 0.30730 0.50367 -0.62900
O 	O 	0.54228 0.24088 0.28187 -0.31800
O 	O 	0.69957 0.32607 0.63802 -0.34600
C 	C 	0.66192 0.25810 0.18397 -0.09100
C 	C 	0.61018 0.25983 0.20732 -0.07800
F 	F 	0.90037 0.27436 0.44261 -0.37600
F 	F 	0.83803 0.29140 0.49522 -0.42400
F 	F 	0.82957 0.28363 0.38223 -0.38600
H 	H 	0.90322 0.31187 0.01950 0.09800
H 	H 	0.57158 0.37503 0.06885 0.10600
C 	C 	0.73465 0.38315 0.80108 0.33400
O 	O 	0.65531 0.37077 0.00588 -0.32900
C 	C 	0.71103 0.40059 0.75398 -0.07800
H 	H 	0.58130 0.26724 0.17248 0.10300
H 	H 	0.69018 0.35374 0.51784 0.24700
O 	O 	0.77704 0.38762 0.03447 -0.63600
O 	O 	0.71470 0.35675 0.15414 -0.34200
O 	O 	0.60054 0.35561 0.42446 -0.32200
Cu	Cu	0.77055 0.40877 0.94744 0.92200
O 	O 	0.77686 0.42577 0.85503 -0.32600
O 	O 	0.68682 0.36664 0.38779 -0.30100
H 	H 	0.72933 0.45022 0.75962 0.15900
H 	H 	0.82165 0.40337 0.05492 0.20500
Cu	Cu	0.73887 0.41564 0.08739 0.92000
C 	C 	0.65653 0.39089 0.40452 0.29600
H 	H 	0.61490 0.42026 0.30013 0.08600
C 	C 	0.68181 0.45560 0.39409 0.00600
F 	F 	0.71520 0.46798 0.54199 -0.42100
C 	C 	0.65313 0.46249 0.33671 0.08100
O 	O 	0.83174 0.49968 0.97985 -0.30000
F 	F 	0.79076 0.47320 0.48851 -0.41700
F 	F 	0.58399 0.47111 0.23236 -0.36200
O 	O 	0.79861 0.50757 0.07980 -0.30700
C 	C 	0.76313 0.50352 0.50511 0.77500
C 	C 	0.73336 0.51022 0.44123 -0.04900
C 	C 	0.82439 0.53188 0.02724 0.30000
C 	C 	0.67324 0.52319 0.32639 -0.09900
C 	C 	0.64154 0.52929 0.26344 0.78900
F 	F 	0.75429 0.54010 0.91076 -0.41000
F 	F 	0.71831 0.54639 0.00616 -0.39900
F 	F 	0.68365 0.55129 0.21810 -0.39900
F 	F 	0.81127 0.56220 0.54568 -0.37400
C 	C 	0.75604 0.57114 0.42900 0.03400
C 	C 	0.75943 0.58144 0.96323 0.79400
F 	F 	0.62673 0.57122 0.27932 -0.35500
C 	C 	0.72542 0.57801 0.37320 0.10300
F 	F 	0.63133 0.58638 0.42144 -0.36200
C 	C 	0.86017 0.60092 0.03078 0.01600
F 	F 	0.73892 0.61463 0.93618 -0.36100
H 	H 	0.79693 0.61352 0.46341 0.14200
H 	H 	0.94682 0.62240 0.08997 0.10000
C 	C 	0.82934 0.62582 0.00175 -0.05300
C 	C 	0.92459 0.64227 0.06641 0.09400
C 	C 	0.74914 0.64312 0.36403 0.09000
H 	H 	0.80548 0.64596 0.29053 0.12200
F 	F 	0.71673 0.64392 0.50839 -0.37500
C 	C 	0.68551 0.64721 0.45138 0.78600
C 	C 	0.79225 0.67232 0.31938 0.05800
H 	H 	0.14311 0.99530 0.52485 0.16200
F 	F 	0.30446 0.99940 0.35779 -0.34800
C 	C 	0.05266 0.97307 0.47339 -0.04800
C 	C 	0.02295 0.98039 0.41623 0.11900
F 	F 	0.05099 0.94318 0.58174 -0.34400
C 	C 	0.01228 0.92973 0.52066 0.81400
F 	F 	0.05294 0.71958 0.13039 -0.36400
F 	F 	0.07080 0.79810 0.07833 -0.36100
C 	C 	0.02880 0.75287 0.11396 0.81200
H 	H 	0.03989 0.92012 0.95221 0.13100
F 	F 	0.02565 0.83176 0.88475 -0.34000
C 	C 	0.02696 0.93476 0.05364 0.06000
C 	C 	0.02176 0.89785 0.99519 0.10700
F 	F 	0.02855 0.78342 0.17323 -0.36700
C 	C 	0.01138 0.94636 0.17524 0.81400
C 	C 	0.00291 0.90646 0.11003 -0.03000
F 	F 	0.00372 0.75440 0.94106 -0.34200
F 	F 	0.89638 0.99961 0.53015 -0.35900
C 	C 	0.80798 0.98464 0.32845 0.10100
F 	F 	0.98193 0.86679 0.49143 -0.39600
H 	H 	0.81762 0.97263 0.28076 0.13200
C 	C 	0.63706 0.98459 0.40847 0.80700
F 	F 	0.96553 0.93775 0.53414 -0.36900
C 	C 	0.81321 0.98418 0.44916 -0.03500
F 	F 	0.80660 0.97766 0.56596 -0.35200
N 	N 	0.92221 0.97157 0.39664 -0.08600
C 	C 	0.82436 0.96789 0.38621 0.04800
C 	C 	0.82945 0.96539 0.51213 0.77900
F 	F 	0.64979 0.96837 0.46758 -0.37800
C 	C 	0.95144 0.94221 0.39712 0.18300
F 	F 	0.57497 0.96893 0.40169 -0.36200
C 	C 	0.85620 0.93635 0.38091 0.20100
N 	N 	0.91464 0.87764 0.38065 -0.06700
C 	C 	0.84863 0.84223 0.36431 0.20500
N 	N 	0.81947 0.87174 0.36424 -0.08800
C 	C 	0.73253 0.67764 0.40296 -0.07000
C 	C 	0.76420 0.74256 0.40057 0.06400
C 	C 	0.80855 0.77212 0.35709 0.07800
C 	C 	0.81882 0.73534 0.31227 -0.06900
H 	H 	0.75645 0.77095 0.43460 0.15200
C 	C 	0.86032 0.76357 0.25894 0.78100
F 	F 	0.84404 0.71601 0.20647 -0.40000
F 	F 	0.92542 0.79643 0.28747 -0.37900
F 	F 	0.85104 0.80463 0.23183 -0.39000
F 	F 	0.66365 0.68247 0.47095 -0.34900
F 	F 	0.80113 0.90081 0.50021 -0.37200
F 	F 	0.63729 0.94851 0.35436 -0.35400
C 	C 	0.86392 0.69235 0.00951 0.03400
C 	C 	0.92923 0.73376 0.04285 0.11200
C 	C 	0.95995 0.70879 0.07249 -0.11400
C 	C 	0.96492 0.80337 0.04650 0.09300
H 	H 	0.84050 0.71224 0.98893 0.15400
C 	C 	0.99223 0.83246 0.99138 -0.09400
C 	C 	0.96920 0.84022 0.10453 0.02000
C 	C 	0.98591 0.79317 0.92677 0.75800
H 	H 	0.94640 0.81710 0.14545 0.16500
F 	F 	0.99719 0.91307 0.22787 -0.39200
F 	F 	0.97009 0.96364 0.16645 -0.41000
F 	F 	0.92202 0.75561 0.89245 -0.38000
