data_crystal

_cell_length_a 16.65265
_cell_length_b 17.56171
_cell_length_c 35.17847
_cell_angle_alpha 60.62243
_cell_angle_beta  119.15861
_cell_angle_gamma 133.33178

_symmetry_space_group_name_	'P 1'
_symmetry_space_group_name_H-M	'P 1'

loop_
_symmetry_equiv_pos_as_xyz
  x,y,z

loop_
_atom_site_label
_atom_site_type_symbol
_atom_site_fract_x
_atom_site_fract_y
_atom_site_fract_z
_atom_site_charge
C 	C 	0.80897 0.33776 0.00859 0.02400
C 	C 	0.88214 0.43797 0.01934 -0.07200
C 	C 	0.84964 0.46013 0.04084 0.03200
C 	C 	0.74505 0.38004 0.05296 -0.06900
C 	C 	0.66911 0.28193 0.04039 0.01800
C 	C 	0.70304 0.25962 0.01974 -0.06300
H 	H 	0.96286 0.49977 0.00984 0.04300
H 	H 	0.72410 0.39283 0.07302 0.05000
H 	H 	0.64435 0.18392 0.01003 0.04700
C 	C 	0.71298 0.24841 0.50935 0.03200
C 	C 	0.60228 0.17095 0.51617 -0.06900
C 	C 	0.56407 0.18803 0.53730 0.01900
C 	C 	0.64000 0.28014 0.55439 -0.06700
C 	C 	0.74920 0.36014 0.54623 0.02500
C 	C 	0.78610 0.34290 0.52453 -0.06900
H 	H 	0.54390 0.10012 0.50294 0.05300
H 	H 	0.61574 0.28790 0.57510 0.04800
H 	H 	0.87034 0.40469 0.51810 0.04800
C 	C 	0.35861 0.75777 0.14715 0.03200
C 	C 	0.43892 0.83918 0.12117 -0.08300
C 	C 	0.45196 0.81410 0.09343 0.02900
C 	C 	0.37726 0.70796 0.08857 -0.07500
C 	C 	0.29683 0.62480 0.11491 0.03200
C 	C 	0.28634 0.65086 0.14354 -0.07500
H 	H 	0.49571 0.92151 0.12440 0.04900
H 	H 	0.38712 0.68977 0.06656 0.05000
H 	H 	0.22574 0.58734 0.16442 0.05200
C 	C 	0.21864 0.58022 0.67942 0.03700
C 	C 	0.32629 0.66045 0.66932 -0.07800
C 	C 	0.37921 0.63250 0.66292 0.03500
C 	C 	0.32673 0.52377 0.66823 -0.07600
C 	C 	0.21629 0.44473 0.67481 0.03500
C 	C 	0.16445 0.47220 0.68237 -0.07600
H 	H 	0.36602 0.74494 0.66393 0.05100
H 	H 	0.37006 0.50107 0.66579 0.05300
H 	H 	0.07918 0.41068 0.68781 0.05400
Co	Co	0.05612 0.88586 0.10259 1.19100
Co	Co	0.06017 0.16962 0.06079 1.18800
Co	Co	0.96087 0.96888 0.12550 1.17700
Co	Co	0.14621 0.08358 0.03292 1.18300
C 	C 	0.97612 0.71674 0.06660 0.31600
Co	Co	0.20242 0.91873 0.05344 1.16700
Co	Co	0.95388 0.15098 0.12404 1.15500
C 	C 	0.37716 0.15849 0.03824 0.36500
O 	O 	0.00316 0.08946 0.19088 -0.36500
O 	O 	0.01714 0.10138 0.10849 -0.74500
C 	C 	0.96218 0.98729 0.20794 0.28000
O 	O 	0.94749 0.83845 0.13325 -0.47800
O 	O 	0.11520 0.19341 0.01292 -0.46600
C 	C 	0.16168 0.35680 0.09487 0.31300
O 	O 	0.09911 0.04652 0.09359 -0.56600
C 	C 	0.74385 0.94404 0.09362 0.33400
C 	C 	0.24719 0.85633 0.15166 0.31400
C 	C 	0.07520 0.98068 0.96244 0.30500
O 	O 	0.97420 0.94049 0.19286 -0.38200
O 	O 	0.29804 0.93050 0.11835 -0.39500
O 	O 	0.16340 0.84431 0.15569 -0.37800
O 	O 	0.11683 0.28895 0.12975 -0.38400
O 	O 	0.17179 0.32513 0.07098 -0.38400
O 	O 	0.79153 0.00445 0.12058 -0.42200
O 	O 	0.80318 0.93020 0.08643 -0.42300
O 	O 	0.09281 0.90657 0.99065 -0.37900
O 	O 	0.05226 0.02174 0.97588 -0.37500
O 	O 	0.14164 0.97270 0.06723 -0.76700
C 	C 	0.88037 0.20475 0.02199 0.34400
O 	O 	0.90741 0.22814 0.05861 -0.42200
O 	O 	0.90545 0.14619 0.02343 -0.43200
O 	O 	0.08415 0.75772 0.07895 -0.40500
O 	O 	0.94435 0.76842 0.06637 -0.40800
O 	O 	0.32345 0.07373 0.02428 -0.42300
O 	O 	0.31980 0.18631 0.03736 -0.40500
Co	Co	0.95979 0.78602 0.60922 1.18200
Co	Co	0.94832 0.06292 0.56524 1.17800
Co	Co	0.85111 0.85691 0.63148 1.18500
Co	Co	0.04521 0.98654 0.53823 1.18500
C 	C 	0.87624 0.61516 0.57338 0.34000
Co	Co	0.09690 0.82139 0.55468 1.17300
Co	Co	0.80687 0.02556 0.61813 1.16500
C 	C 	0.27222 0.06124 0.53927 0.36700
O 	O 	0.78708 0.91540 0.68001 -0.41100
O 	O 	0.88283 0.98226 0.60694 -0.76400
C 	C 	0.86680 0.90225 0.70801 0.30200
O 	O 	0.86139 0.73646 0.64582 -0.47100
O 	O 	0.02504 0.10224 0.52156 -0.45100
C 	C 	0.05322 0.21534 0.62222 0.33800
O 	O 	0.98764 0.94088 0.59737 -0.58900
C 	C 	0.61919 0.80394 0.60570 0.31500
C 	C 	0.16268 0.77119 0.65379 0.31100
C 	C 	0.97395 0.88869 0.46576 0.30800
O 	O 	0.90252 0.87064 0.69636 -0.38900
O 	O 	0.20367 0.83902 0.61775 -0.39600
O 	O 	0.07648 0.75273 0.65943 -0.37200
O 	O 	0.97254 0.13939 0.64486 -0.42200
O 	O 	0.05177 0.20364 0.58696 -0.38100
O 	O 	0.64889 0.90344 0.59052 -0.39100
O 	O 	0.67778 0.78126 0.60355 -0.40100
O 	O 	0.97894 0.80721 0.49404 -0.39800
O 	O 	0.95758 0.93722 0.47797 -0.39400
O 	O 	0.03742 0.87273 0.57077 -0.75500
C 	C 	0.78521 0.11896 0.51935 0.36100
O 	O 	0.81429 0.13947 0.55695 -0.41700
O 	O 	0.80758 0.05966 0.51949 -0.41800
O 	O 	0.98470 0.65983 0.58266 -0.42900
O 	O 	0.84443 0.66471 0.57495 -0.40800
O 	O 	0.21334 0.97741 0.52357 -0.42100
O 	O 	0.21959 0.08473 0.54533 -0.39900
C 	C 	0.97389 0.96073 0.83427 -0.02300
C 	C 	0.85882 0.88568 0.81703 -0.04400
C 	C 	0.82469 0.86021 0.77739 0.00700
C 	C 	0.03922 0.98438 0.91552 -0.09800
C 	C 	0.02098 0.98311 0.77232 0.00000
C 	C 	0.05512 0.00841 0.81211 -0.01700
C 	C 	0.00973 0.97747 0.87774 0.06100
C 	C 	0.90536 0.90983 0.75445 -0.08800
H 	H 	0.79571 0.84654 0.83444 0.04500
H 	H 	0.73513 0.80393 0.76386 0.03600
H 	H 	0.08391 0.02331 0.75461 0.04500
H 	H 	0.14457 0.06488 0.82567 0.04200
C 	C 	0.94134 0.91642 0.33776 0.00100
C 	C 	0.01896 0.91439 0.33318 -0.04200
C 	C 	0.01757 0.92483 0.29078 0.02500
C 	C 	0.95715 0.90507 0.41891 -0.10200
C 	C 	0.85589 0.93176 0.25785 0.00700
C 	C 	0.85748 0.92156 0.30024 -0.05100
C 	C 	0.94773 0.91209 0.38121 0.04100
C 	C 	0.93893 0.93802 0.25260 -0.08800
H 	H 	0.08245 0.90783 0.36224 0.04800
H 	H 	0.08209 0.92950 0.28729 0.03900
H 	H 	0.79434 0.94132 0.22866 0.02800
H 	H 	0.79543 0.92053 0.30362 0.04700
C 	C 	0.15076 0.33498 0.67024 0.00000
C 	C 	0.14326 0.32020 0.63415 -0.14600
H 	H 	0.09738 0.26664 0.69352 0.04600
H 	H 	0.19742 0.38843 0.61113 0.08000
C 	C 	0.48913 0.71832 0.65001 -0.00300
C 	C 	0.51080 0.71569 0.61869 -0.14700
H 	H 	0.55043 0.78827 0.66418 0.03300
H 	H 	0.45022 0.64696 0.60387 0.07900
C 	C 	0.20361 0.70459 0.68518 -0.13600
C 	C 	0.15230 0.61060 0.67750 -0.00800
H 	H 	0.28955 0.74362 0.70602 0.07400
H 	H 	0.06146 0.56404 0.66258 0.04800
C 	C 	0.23792 0.50897 0.11946 -0.00300
C 	C 	0.22163 0.47325 0.08810 -0.13800
H 	H 	0.20703 0.45115 0.14966 0.04500
H 	H 	0.24593 0.52795 0.05660 0.07400
C 	C 	0.55510 0.89526 0.07577 0.00400
C 	C 	0.61998 0.86874 0.08189 -0.15200
H 	H 	0.59143 0.98017 0.06777 0.03100
H 	H 	0.58261 0.78584 0.08532 0.08000
C 	C 	0.25889 0.76724 0.17537 -0.14700
C 	C 	0.35452 0.78541 0.17941 0.00100
H 	H 	0.18146 0.68537 0.17713 0.08300
H 	H 	0.43431 0.85109 0.19433 0.03700
C 	C 	0.74043 0.24652 0.47535 0.02700
C 	C 	0.74522 0.16798 0.47984 -0.20000
H 	H 	0.73781 0.30077 0.44235 0.02500
H 	H 	0.73235 0.15598 0.44928 0.09200
C 	C 	0.82991 0.45872 0.56358 0.00200
C 	C 	0.79525 0.51465 0.56233 -0.16800
H 	H 	0.91963 0.49208 0.57479 0.03300
H 	H 	0.70570 0.48128 0.55172 0.08600
C 	C 	0.44477 0.10614 0.54239 0.02800
C 	C 	0.38497 0.13307 0.54210 -0.19900
H 	H 	0.40285 0.02340 0.54324 0.02800
H 	H 	0.42807 0.21326 0.54459 0.09500
C 	C 	0.83442 0.24704 0.98191 -0.18800
C 	C 	0.82946 0.32731 0.97508 0.03300
H 	H 	0.81806 0.22922 0.95232 0.08900
H 	H 	0.82202 0.37632 0.94105 0.02500
C 	C 	0.93116 0.56403 0.05425 -0.02500
C 	C 	0.89564 0.61796 0.05420 -0.15300
H 	H 	0.02142 0.60131 0.06252 0.05500
H 	H 	0.80598 0.58424 0.04365 0.08000
C 	C 	0.55349 0.20075 0.04882 0.02800
C 	C 	0.49053 0.22984 0.04340 -0.20200
H 	H 	0.51481 0.11598 0.05466 0.02400
H 	H 	0.53128 0.31210 0.04255 0.09400
