data_crystal

_cell_length_a 18.39872
_cell_length_b 18.73939
_cell_length_c 38.21668
_cell_angle_alpha 95.42335
_cell_angle_beta  95.42298
_cell_angle_gamma 126.41845

_symmetry_space_group_name_	'P 1'
_symmetry_space_group_name_H-M	'P 1'

loop_
_symmetry_equiv_pos_as_xyz
  x,y,z

loop_
_atom_site_label
_atom_site_type_symbol
_atom_site_fract_x
_atom_site_fract_y
_atom_site_fract_z
_atom_site_charge
C 	C 	0.87928 0.96244 0.96305 0.13500
N 	N 	0.83557 0.87335 0.96413 -0.13900
C 	C 	0.88227 0.83806 0.96179 0.14100
N 	N 	0.97206 0.89201 0.95877 -0.14200
C 	C 	0.01551 0.98063 0.95804 0.13800
N 	N 	0.96922 0.01572 0.96024 -0.13000
C 	C 	0.96520 0.06179 0.49942 0.14500
N 	N 	0.05742 0.10991 0.50095 -0.14100
C 	C 	0.09783 0.06869 0.50443 0.14500
N 	N 	0.04598 0.97978 0.50626 -0.13600
C 	C 	0.95410 0.93184 0.50461 0.14300
N 	N 	0.91369 0.97275 0.50111 -0.14000
Cu	Cu	0.74169 0.31374 0.96498 0.92800
Cu	Cu	0.71798 0.25347 0.04341 0.87400
Cu	Cu	0.58065 0.26133 0.00131 0.89800
Cu	Cu	0.56976 0.29335 0.92649 0.89800
C 	C 	0.69687 0.28063 0.88827 0.29100
O 	O 	0.78864 0.44231 0.96093 -0.35600
C 	C 	0.62328 0.30317 0.08096 0.28900
O 	O 	0.59745 0.23264 0.95468 -0.63800
O 	O 	0.71647 0.32926 0.01297 -0.64400
O 	O 	0.80646 0.26030 0.97642 -0.37200
O 	O 	0.70010 0.16412 0.00775 -0.42700
O 	O 	0.65308 0.31597 0.89190 -0.37600
O 	O 	0.44884 0.18791 0.98762 -0.37500
C 	C 	0.40271 0.19256 0.96045 0.31500
C 	C 	0.73980 0.47111 0.96725 0.30100
O 	O 	0.65214 0.41254 0.96814 -0.39600
O 	O 	0.43944 0.22749 0.93267 -0.39300
O 	O 	0.74321 0.27917 0.91639 -0.36100
C 	C 	0.76402 0.18459 0.98898 0.30400
O 	O 	0.56203 0.27146 0.05111 -0.37800
O 	O 	0.70062 0.31334 0.08100 -0.41700
H 	H 	0.56264 0.16724 0.94543 0.16900
H 	H 	0.74964 0.39265 0.02511 0.17400
Cu	Cu	0.63305 0.22269 0.50638 0.92900
Cu	Cu	0.67268 0.23251 0.42449 0.87500
Cu	Cu	0.68341 0.37853 0.46876 0.89900
Cu	Cu	0.66973 0.39908 0.54631 0.89600
C 	C 	0.69317 0.27906 0.58242 0.29200
O 	O 	0.50871 0.18407 0.51586 -0.34900
C 	C 	0.62204 0.32897 0.38973 0.28900
O 	O 	0.72062 0.36459 0.51465 -0.63800
O 	O 	0.60818 0.24427 0.45878 -0.64200
O 	O 	0.67409 0.14936 0.49134 -0.37500
O 	O 	0.76701 0.24568 0.45656 -0.42400
O 	O 	0.65659 0.32188 0.58151 -0.38200
O 	O 	0.76232 0.50850 0.48110 -0.37400
C 	C 	0.76067 0.55608 0.50836 0.31200
C 	C 	0.48041 0.23294 0.51017 0.30000
O 	O 	0.54022 0.31870 0.50879 -0.39800
O 	O 	0.73713 0.52559 0.53837 -0.39500
O 	O 	0.67791 0.22318 0.55387 -0.36000
C 	C 	0.74680 0.18464 0.47623 0.30400
O 	O 	0.66549 0.39298 0.41884 -0.37700
O 	O 	0.60757 0.25101 0.38935 -0.41500
H 	H 	0.78760 0.39640 0.52156 0.16800
H 	H 	0.54250 0.21370 0.44901 0.17400
C 	C 	0.71493 0.26609 0.85272 -0.08500
C 	C 	0.68631 0.18045 0.83705 0.01900
C 	C 	0.69265 0.16379 0.80139 -0.07300
C 	C 	0.72949 0.23320 0.78146 0.04800
C 	C 	0.76172 0.31993 0.79775 -0.07300
C 	C 	0.75450 0.33621 0.83319 0.02200
C 	C 	0.72231 0.21213 0.74246 -0.05100
C 	C 	0.79403 0.26559 0.72662 -0.05100
C 	C 	0.77910 0.26931 0.68835 0.04900
C 	C 	0.81420 0.35264 0.67834 -0.07500
C 	C 	0.78977 0.35612 0.64316 0.02000
C 	C 	0.73095 0.27634 0.61753 -0.08900
C 	C 	0.70134 0.19344 0.62687 0.02500
C 	C 	0.72549 0.18994 0.66218 -0.07400
H 	H 	0.65618 0.12603 0.85203 0.02800
H 	H 	0.66709 0.09654 0.78904 0.05100
H 	H 	0.78900 0.37376 0.78251 0.05100
H 	H 	0.77754 0.40281 0.84520 0.04300
H 	H 	0.65558 0.15760 0.72627 0.04600
H 	H 	0.86129 0.31771 0.74309 0.04600
H 	H 	0.85724 0.41442 0.69818 0.04900
H 	H 	0.81439 0.42061 0.63607 0.02100
H 	H 	0.65683 0.13148 0.60720 0.04200
H 	H 	0.70064 0.12549 0.66935 0.05300
C 	C 	0.59975 0.31710 0.11550 -0.08900
C 	C 	0.50937 0.25723 0.12125 0.01900
C 	C 	0.49042 0.25915 0.15577 -0.07400
C 	C 	0.56122 0.32181 0.18473 0.04700
C 	C 	0.65038 0.38573 0.17857 -0.07500
C 	C 	0.66948 0.38348 0.14411 0.01900
C 	C 	0.54536 0.31016 0.22163 -0.05200
C 	C 	0.57261 0.38051 0.24697 -0.05200
C 	C 	0.57740 0.37385 0.28532 0.04700
C 	C 	0.65655 0.44273 0.31024 -0.07400
C 	C 	0.66842 0.43080 0.34534 0.02000
C 	C 	0.60120 0.34976 0.35574 -0.08900
C 	C 	0.51861 0.28415 0.33169 0.02000
C 	C 	0.50613 0.29671 0.29677 -0.07400
H 	H 	0.45472 0.20617 0.09936 0.04200
H 	H 	0.42140 0.20964 0.16021 0.05100
H 	H 	0.70579 0.43420 0.20074 0.04900
H 	H 	0.73916 0.43116 0.13990 0.03000
H 	H 	0.51491 0.24406 0.22846 0.04300
H 	H 	0.60215 0.44620 0.23982 0.04400
H 	H 	0.71077 0.50368 0.30199 0.04900
H 	H 	0.73187 0.48255 0.36385 0.03900
H 	H 	0.46517 0.22242 0.33976 0.03000
H 	H 	0.44235 0.24536 0.27836 0.04900
C 	C 	0.89886 0.83611 0.50700 -0.04300
C 	C 	0.82969 0.77093 0.47811 -0.08800
C 	C 	0.78267 0.67903 0.47872 0.18000
C 	C 	0.80510 0.65201 0.50840 -0.11500
C 	C 	0.87207 0.71733 0.53782 -0.04300
C 	C 	0.91867 0.80908 0.53726 0.14100
H 	H 	0.81382 0.79152 0.45483 0.07000
O 	O 	0.71649 0.61581 0.44995 -0.28300
H 	H 	0.88941 0.69700 0.56084 0.05900
O 	O 	0.98555 0.87238 0.56585 -0.27700
H 	H 	0.95322 0.88449 0.58190 0.14800
H 	H 	0.65807 0.60209 0.45519 0.14400
C 	C 	0.80858 0.15957 0.48304 -0.11800
C 	C 	0.82041 0.13770 0.51618 -0.04500
C 	C 	0.87623 0.11076 0.52247 0.14100
C 	C 	0.92067 0.10533 0.49550 -0.04500
C 	C 	0.91216 0.13079 0.46298 -0.09000
C 	C 	0.85527 0.15644 0.45639 0.18000
H 	H 	0.78607 0.14124 0.53705 0.06800
O 	O 	0.88471 0.08668 0.55454 -0.27600
H 	H 	0.94640 0.12683 0.44215 0.07100
O 	O 	0.84437 0.17711 0.42374 -0.29600
H 	H 	0.79146 0.11907 0.40856 0.13500
H 	H 	0.93879 0.14309 0.57017 0.14700
C 	C 	0.38353 0.19450 0.50958 -0.11700
C 	C 	0.33606 0.20555 0.48238 -0.04600
C 	C 	0.24363 0.16896 0.48159 0.13900
C 	C 	0.19813 0.12073 0.50814 -0.04300
C 	C 	0.24685 0.11296 0.53609 -0.08900
C 	C 	0.33917 0.14987 0.53698 0.18100
H 	H 	0.37028 0.24106 0.46149 0.05300
O 	O 	0.19658 0.17582 0.45375 -0.27800
H 	H 	0.21251 0.07675 0.55683 0.07800
O 	O 	0.38557 0.14107 0.56438 -0.27700
H 	H 	0.41336 0.19523 0.58318 0.14700
H 	H 	0.20526 0.23278 0.46167 0.14800
C 	C 	0.83560 0.74096 0.96127 -0.04300
C 	C 	0.84434 0.69137 0.93438 -0.09100
C 	C 	0.81642 0.60461 0.93687 0.18000
C 	C 	0.77799 0.56583 0.96625 -0.11800
C 	C 	0.76663 0.61423 0.99262 -0.04400
C 	C 	0.79526 0.70147 0.99025 0.14000
H 	H 	0.87469 0.72098 0.91184 0.07000
O 	O 	0.82272 0.55622 0.90970 -0.28900
H 	H 	0.73583 0.58435 0.01505 0.05100
O 	O 	0.78806 0.74956 0.01719 -0.28200
H 	H 	0.72664 0.73476 0.01003 0.14800
H 	H 	0.88489 0.57227 0.91615 0.15400
C 	C 	0.78617 0.12121 0.98124 -0.11300
C 	C 	0.80523 0.10766 0.94760 -0.04500
C 	C 	0.82718 0.04847 0.94023 0.13900
C 	C 	0.83135 0.00296 0.96675 -0.04100
C 	C 	0.80743 0.01266 0.99964 -0.07900
C 	C 	0.78634 0.07246 0.00723 0.17100
H 	H 	0.80329 0.14314 0.92716 0.06600
O 	O 	0.84879 0.03841 0.90765 -0.26800
H 	H 	0.81041 0.97786 0.02018 0.06300
O 	O 	0.76750 0.08431 0.04024 -0.29700
H 	H 	0.82785 0.13420 0.05533 0.13300
H 	H 	0.78975 0.98692 0.89228 0.14200
C 	C 	0.30368 0.14453 0.95836 -0.11700
C 	C 	0.24165 0.07771 0.92840 -0.04300
C 	C 	0.14702 0.02453 0.92792 0.14300
C 	C 	0.11391 0.03959 0.95721 -0.03900
C 	C 	0.17572 0.10881 0.98652 -0.08700
C 	C 	0.27039 0.16120 0.98722 0.18500
H 	H 	0.26691 0.06516 0.90594 0.05700
O 	O 	0.08689 0.95926 0.89849 -0.27900
H 	H 	0.15041 0.12074 0.00911 0.06900
O 	O 	0.33040 0.22694 0.01655 -0.28700
H 	H 	0.34034 0.28265 0.01127 0.14600
H 	H 	0.07898 0.90398 0.90302 0.14700
