data_crystal

_cell_length_a 24.22816
_cell_length_b 24.59295
_cell_length_c 34.54206
_cell_angle_alpha 95.54254
_cell_angle_beta  95.54710
_cell_angle_gamma 125.70436

_symmetry_space_group_name_	'P 1'
_symmetry_space_group_name_H-M	'P 1'

loop_
_symmetry_equiv_pos_as_xyz
  x,y,z

loop_
_atom_site_label
_atom_site_type_symbol
_atom_site_fract_x
_atom_site_fract_y
_atom_site_fract_z
_atom_site_charge
C 	C 	0.03144 0.94442 0.00112 -0.03400
C 	C 	0.05738 0.00044 0.98200 -0.00700
C 	C 	0.02325 0.03108 0.97963 -0.03500
H 	H 	0.05631 0.91943 0.00200 0.06700
H 	H 	0.03979 0.07115 0.96261 0.05200
C 	C 	0.02745 0.02287 0.44116 -0.03000
H 	H 	0.01732 0.10399 0.43964 0.04500
H 	H 	0.02130 0.93166 0.44085 0.04600
O 	O 	0.13979 0.12338 0.42868 -0.21800
C 	C 	0.10355 0.06931 0.44871 0.12900
C 	C 	0.14458 0.06557 0.47720 -0.11000
H 	H 	0.12887 0.02081 0.48961 0.06300
O 	O 	0.14257 0.98536 0.95628 -0.21600
C 	C 	0.11813 0.02425 0.96269 0.12300
C 	C 	0.15881 0.08816 0.95293 -0.10500
H 	H 	0.16130 0.13180 0.96551 0.06300
C 	C 	0.20671 0.15042 0.44683 0.11200
C 	C 	0.20986 0.11703 0.47591 0.02900
H 	H 	0.26201 0.21649 0.40603 0.06500
C 	C 	0.20133 0.03158 0.94169 0.11300
C 	C 	0.21066 0.09197 0.93907 0.02600
C 	C 	0.26749 0.11739 0.48622 -0.09600
C 	C 	0.26361 0.18943 0.42854 -0.08600
H 	H 	0.26909 0.09032 0.50872 0.06800
C 	C 	0.25779 0.02886 0.94325 -0.08400
H 	H 	0.25332 0.98461 0.95027 0.06600
C 	C 	0.32435 0.15636 0.46789 0.11800
C 	C 	0.32104 0.18941 0.43865 0.00800
C 	C 	0.27670 0.15260 0.94040 -0.09500
H 	H 	0.28588 0.20166 0.94527 0.06900
C 	C 	0.32126 0.08689 0.93805 0.00700
C 	C 	0.33153 0.14826 0.93783 0.11900
O 	O 	0.39133 0.18327 0.48586 -0.19000
C 	C 	0.38628 0.24036 0.43692 -0.06200
H 	H 	0.40197 0.28559 0.42504 0.05500
O 	O 	0.40043 0.20486 0.94907 -0.19200
C 	C 	0.38354 0.10136 0.95044 -0.05900
H 	H 	0.39196 0.06835 0.96415 0.05900
C 	C 	0.42744 0.23649 0.46522 0.04200
C 	C 	0.43019 0.17153 0.95661 0.04200
H 	H 	0.46460 0.09678 0.11035 0.04200
S 	S 	0.48816 0.16333 0.11923 -0.03300
C 	C 	0.50324 0.20942 0.97571 0.24900
C 	C 	0.50323 0.28353 0.47301 0.25400
H 	H 	0.51423 0.19848 0.61112 0.04900
H 	H 	0.52042 0.29664 0.74484 0.03600
O 	O 	0.52657 0.17705 0.98970 -0.34800
O 	O 	0.53441 0.33544 0.45432 -0.38100
O 	O 	0.53802 0.27940 0.50293 -0.35500
H 	H 	0.54273 0.20392 0.20259 0.05400
O 	O 	0.54495 0.27599 0.97932 -0.36300
S 	S 	0.57505 0.36166 0.76301 -0.03300
C 	C 	0.57390 0.21354 0.14581 0.05800
S 	S 	0.57546 0.20923 0.62486 -0.06300
H 	H 	0.58005 0.16092 0.35279 0.02900
C 	C 	0.58585 0.22353 0.18720 -0.07200
O 	O 	0.59057 0.27569 0.07318 -0.38000
H 	H 	0.59995 0.22521 0.92998 0.17600
C 	C 	0.98994 0.04934 0.43657 -0.01200
C 	C 	0.96618 0.00843 0.99815 -0.00200
C 	C 	0.94320 0.95499 0.01915 -0.04300
C 	C 	0.97338 0.92042 0.01898 -0.00700
H 	H 	0.90262 0.94106 0.03586 0.04000
C 	C 	0.91728 0.00575 0.42959 -0.02200
C 	C 	0.99231 0.95236 0.43806 -0.01400
C 	C 	0.91977 0.90857 0.43154 -0.02300
C 	C 	0.88230 0.93540 0.42721 -0.02200
H 	H 	0.82619 0.90164 0.42182 0.04800
Cu	Cu	0.62967 0.22151 0.00279 0.92500
Cu	Cu	0.71872 0.25630 0.93126 0.87300
Cu	Cu	0.68930 0.34929 0.96587 0.89700
Cu	Cu	0.61752 0.33833 0.03446 0.89400
C 	C 	0.62136 0.24804 0.08406 0.28900
C 	C 	0.69930 0.33137 0.88120 0.29600
O 	O 	0.68322 0.32780 0.01785 -0.64100
O 	O 	0.64269 0.24908 0.95031 -0.63800
O 	O 	0.67581 0.17531 0.00205 -0.35100
O 	O 	0.76659 0.26192 0.97987 -0.43200
O 	O 	0.73900 0.44612 0.98526 -0.36300
C 	C 	0.72375 0.47201 0.01393 0.24900
O 	O 	0.66418 0.43420 0.02599 -0.36700
O 	O 	0.63087 0.21319 0.05751 -0.35600
C 	C 	0.73966 0.20765 0.99603 0.26100
O 	O 	0.71000 0.37269 0.91337 -0.38300
O 	O 	0.69306 0.27487 0.88328 -0.41500
H 	H 	0.72831 0.35412 0.03636 0.16300
Cu	Cu	0.74380 0.35973 0.45863 0.92900
Cu	Cu	0.73613 0.29702 0.53906 0.87200
Cu	Cu	0.63665 0.32448 0.51101 0.89800
Cu	Cu	0.62273 0.37164 0.43512 0.89500
C 	C 	0.68965 0.34294 0.37705 0.28800
O 	O 	0.79284 0.46113 0.46270 -0.35300
C 	C 	0.68519 0.33941 0.59625 0.29400
O 	O 	0.63746 0.31180 0.45537 -0.63900
O 	O 	0.73693 0.36538 0.51518 -0.64100
O 	O 	0.78278 0.30788 0.45771 -0.35400
O 	O 	0.70727 0.23178 0.49256 -0.42900
O 	O 	0.66716 0.37862 0.38822 -0.38400
C 	C 	0.76731 0.49131 0.47781 0.24900
O 	O 	0.70258 0.45477 0.48234 -0.36700
O 	O 	0.73300 0.34110 0.40220 -0.35300
C 	C 	0.74667 0.24636 0.46587 0.25600
O 	O 	0.63366 0.32122 0.56774 -0.38100
O 	O 	0.73781 0.34013 0.58856 -0.41500
H 	H 	0.60544 0.26373 0.44132 0.16400
H 	H 	0.76796 0.41184 0.53155 0.17600
C 	C 	0.63518 0.29913 0.69540 -0.07400
C 	C 	0.68200 0.36347 0.71988 0.01400
C 	C 	0.72396 0.42114 0.70281 -0.00600
C 	C 	0.72225 0.41318 0.66190 -0.00100
C 	C 	0.67829 0.34824 0.63777 -0.09300
C 	C 	0.63303 0.29121 0.65451 0.06000
C 	C 	0.69288 0.36833 0.76331 0.01500
S 	S 	0.77862 0.50338 0.73233 -0.03400
H 	H 	0.75620 0.45729 0.64898 0.03600
H 	H 	0.60218 0.25483 0.70842 0.05300
C 	C 	0.64328 0.36108 0.78502 -0.00700
C 	C 	0.64798 0.35296 0.82453 0.00000
C 	C 	0.70203 0.35249 0.84261 -0.09300
C 	C 	0.75468 0.36547 0.82187 0.06200
C 	C 	0.74952 0.37270 0.78231 -0.07400
H 	H 	0.60835 0.34474 0.84074 0.03800
S 	S 	0.82769 0.37360 0.84528 -0.07200
H 	H 	0.78863 0.37993 0.76594 0.05500
H 	H 	0.87795 0.44034 0.86287 0.04000
H 	H 	0.74255 0.52996 0.73576 0.04000
C 	C 	0.65688 0.23885 0.27754 -0.07000
C 	C 	0.66633 0.28368 0.25219 0.01300
C 	C 	0.68444 0.34829 0.26799 -0.00400
C 	C 	0.69330 0.36751 0.30883 -0.00400
C 	C 	0.68285 0.32238 0.33426 -0.08500
C 	C 	0.66458 0.25757 0.31842 0.05200
C 	C 	0.65354 0.26132 0.20891 0.01400
S 	S 	0.69512 0.40516 0.23684 -0.03600
H 	H 	0.70801 0.41757 0.32085 0.04600
S 	S 	0.64814 0.19829 0.34905 -0.03200
H 	H 	0.64245 0.18896 0.26537 0.05400
C 	C 	0.70911 0.28370 0.18880 -0.00500
C 	C 	0.69727 0.27447 0.14740 -0.00700
C 	C 	0.63036 0.24262 0.12590 -0.08800
S 	S 	0.79374 0.32480 0.21518 -0.03600
H 	H 	0.74052 0.29478 0.13206 0.03500
H 	H 	0.80414 0.27691 0.22121 0.04000
H 	H 	0.76228 0.44433 0.23135 0.03800
C 	C 	0.82221 0.65964 0.48670 0.11900
C 	C 	0.79992 0.69976 0.47972 -0.09700
C 	C 	0.82442 0.73929 0.45027 0.02700
C 	C 	0.87324 0.74338 0.43069 0.11300
C 	C 	0.89668 0.70443 0.43822 -0.08700
C 	C 	0.87166 0.66418 0.46736 0.00800
O 	O 	0.78088 0.59858 0.49983 -0.19300
C 	C 	0.80847 0.56596 0.48536 0.04000
C 	C 	0.86319 0.60508 0.46650 -0.05800
O 	O 	0.91225 0.80274 0.41565 -0.21700
C 	C 	0.88327 0.83464 0.42898 0.12700
C 	C 	0.83081 0.79712 0.44962 -0.10800
H 	H 	0.76198 0.69742 0.49519 0.06800
H 	H 	0.93448 0.70673 0.42262 0.06600
H 	H 	0.87836 0.58440 0.44436 0.06000
H 	H 	0.81608 0.81887 0.47139 0.06400
C 	C 	0.81891 0.06608 0.44666 0.11200
C 	C 	0.76048 0.06144 0.45355 -0.08800
C 	C 	0.74820 0.10462 0.43745 0.00700
C 	C 	0.79314 0.15156 0.41603 0.11800
C 	C 	0.84981 0.15360 0.40775 -0.09600
C 	C 	0.86327 0.11263 0.42542 0.02800
O 	O 	0.82558 0.01421 0.44989 -0.21700
C 	C 	0.87799 0.03416 0.42790 0.12600
C 	C 	0.90031 0.09254 0.41304 -0.10900
O 	O 	0.79405 0.20875 0.41803 -0.18500
C 	C 	0.74779 0.19309 0.44377 0.03700
C 	C 	0.71949 0.13086 0.45499 -0.05900
H 	H 	0.72603 0.02589 0.47103 0.06400
H 	H 	0.88513 0.18974 0.39084 0.07000
H 	H 	0.92974 0.10925 0.38949 0.06500
H 	H 	0.69883 0.11793 0.48188 0.04800
C 	C 	0.92773 0.77011 0.05376 0.11400
C 	C 	0.92284 0.71006 0.04778 -0.08700
C 	C 	0.86015 0.64879 0.05054 0.01000
C 	C 	0.80160 0.64514 0.05308 0.11700
C 	C 	0.80488 0.70422 0.05507 -0.09400
C 	C 	0.87002 0.76696 0.05837 0.02500
O 	O 	0.97864 0.82868 0.04129 -0.21500
C 	C 	0.94541 0.85969 0.03798 0.12000
C 	C 	0.88032 0.82288 0.04776 -0.10300
O 	O 	0.73998 0.58027 0.03940 -0.19000
C 	C 	0.76738 0.54625 0.02720 0.04700
C 	C 	0.83863 0.58631 0.03386 -0.06400
H 	H 	0.96485 0.71054 0.03904 0.06600
H 	H 	0.75805 0.70094 0.05191 0.06800
H 	H 	0.83907 0.82594 0.03652 0.05900
H 	H 	0.86920 0.57455 0.01943 0.05300
C 	C 	0.90698 0.10727 0.97937 0.11200
C 	C 	0.91110 0.16695 0.98328 -0.08500
C 	C 	0.84899 0.15975 0.98147 0.00200
C 	C 	0.78754 0.09854 0.98232 0.11500
C 	C 	0.78470 0.03993 0.98269 -0.09300
C 	C 	0.84434 0.04496 0.97759 0.02400
O 	O 	0.96426 0.10788 0.98989 -0.21500
C 	C 	0.92991 0.04017 0.99488 0.11900
C 	C 	0.85857 0.00253 0.98765 -0.10000
O 	O 	0.73757 0.10442 0.99397 -0.18900
C 	C 	0.77525 0.17558 0.99956 0.03100
C 	C 	0.84294 0.20883 0.99413 -0.05800
H 	H 	0.96071 0.21679 0.98916 0.06500
H 	H 	0.73890 0.99320 0.98784 0.06700
H 	H 	0.82278 0.95384 0.99603 0.05900
H 	H 	0.87736 0.26146 0.99068 0.04800
