data_crystal

_cell_length_a 30.43186
_cell_length_b 26.97050
_cell_length_c 34.82978
_cell_angle_alpha 89.93668
_cell_angle_beta  89.92728
_cell_angle_gamma 90.85962

_symmetry_space_group_name_	'P 1'
_symmetry_space_group_name_H-M	'P 1'

loop_
_symmetry_equiv_pos_as_xyz
  x,y,z

loop_
_atom_site_label
_atom_site_type_symbol
_atom_site_fract_x
_atom_site_fract_y
_atom_site_fract_z
_atom_site_charge
Zn	Zn	0.51392 0.53232 0.96962 1.21900
C 	C 	0.58248 0.46128 0.97936 0.30500
O 	O 	0.53869 0.57714 0.93074 -0.47300
O 	O 	0.56358 0.43776 0.95053 -0.45000
O 	O 	0.58656 0.52491 0.90309 -0.48900
C 	C 	0.46286 0.44905 0.94430 0.31800
O 	O 	0.48015 0.47129 0.97419 -0.45200
O 	O 	0.47824 0.45867 0.90979 -0.49800
C 	C 	0.57776 0.56899 0.91657 0.30900
O 	O 	0.44656 0.57274 0.96324 -0.31800
Zn	Zn	0.54094 0.47326 0.90218 1.16900
O 	O 	0.56910 0.50551 0.98987 -0.42900
C 	C 	0.45605 0.59300 0.99597 0.25600
O 	O 	0.49302 0.58014 0.01122 -0.36900
Zn	Zn	0.29255 0.20663 0.99024 1.22100
C 	C 	0.32582 0.20837 0.06780 0.34400
O 	O 	0.22796 0.20412 0.99341 -0.46000
O 	O 	0.31993 0.25653 0.06834 -0.44700
O 	O 	0.22481 0.23525 0.05396 -0.48700
C 	C 	0.33196 0.30303 0.98402 0.33700
O 	O 	0.33996 0.25556 0.98687 -0.45600
O 	O 	0.29591 0.32093 0.99893 -0.49700
C 	C 	0.20759 0.20805 0.02650 0.30700
O 	O 	0.28900 0.21105 0.92246 -0.31800
Zn	Zn	0.26643 0.28857 0.04225 1.17300
O 	O 	0.30682 0.18069 0.04141 -0.43900
C 	C 	0.30216 0.16552 0.92331 0.30400
O 	O 	0.30803 0.14730 0.95725 -0.38400
C 	C 	0.52236 0.02571 0.69363 0.15000
C 	C 	0.55517 0.00126 0.71430 -0.12300
H 	H 	0.57997 0.98053 0.69908 0.08300
C 	C 	0.55554 0.00328 0.75451 0.07400
C 	C 	0.52319 0.02978 0.77402 -0.10200
C 	C 	0.49035 0.05409 0.75346 0.08000
C 	C 	0.48999 0.05218 0.71327 -0.11700
H 	H 	0.46458 0.07089 0.69726 0.07500
N 	N 	0.52151 0.02302 0.65241 -0.18600
C 	C 	0.49676 0.98669 0.63486 0.20300
C 	C 	0.49478 0.98408 0.59451 -0.07300
C 	C 	0.51951 0.01803 0.57241 0.05500
C 	C 	0.54348 0.05602 0.59083 -0.07900
C 	C 	0.54457 0.05755 0.63124 0.19700
C 	C 	0.46701 0.94956 0.57614 0.01100
C 	C 	0.46490 0.94779 0.53616 -0.05700
C 	C 	0.49345 0.97764 0.51349 0.02200
C 	C 	0.51919 0.01489 0.53178 -0.03400
C 	C 	0.54298 0.05042 0.50976 0.01600
C 	C 	0.56434 0.09308 0.56878 0.01000
C 	C 	0.56254 0.09150 0.52877 -0.05800
C 	C 	0.49517 0.97277 0.47282 0.02200
C 	C 	0.51894 0.00833 0.45081 -0.03400
C 	C 	0.54477 0.04547 0.46910 0.01600
O 	O 	0.56785 0.09232 0.64882 -0.20300
O 	O 	0.47479 0.95402 0.65588 -0.19700
H 	H 	0.58068 0.12426 0.58255 0.04400
H 	H 	0.57425 0.12353 0.51296 0.04600
H 	H 	0.44569 0.92519 0.59277 0.04600
H 	H 	0.43938 0.92518 0.52319 0.04800
C 	C 	0.57345 0.07520 0.44645 -0.05700
C 	C 	0.57129 0.07349 0.40646 0.01000
C 	C 	0.54329 0.03921 0.38808 -0.07900
C 	C 	0.51846 0.00535 0.41018 0.05500
C 	C 	0.47547 0.93181 0.45376 -0.05700
C 	C 	0.47339 0.93048 0.41376 0.01100
C 	C 	0.49419 0.96761 0.39174 -0.07400
C 	C 	0.54109 0.03681 0.34773 0.19600
N 	N 	0.51579 0.00097 0.33017 -0.19000
C 	C 	0.49270 0.96645 0.35133 0.20300
C 	C 	0.51416 0.99895 0.28895 0.16300
C 	C 	0.48311 0.02679 0.26886 -0.12500
C 	C 	0.48186 0.02521 0.22866 0.07400
C 	C 	0.51156 0.99567 0.20855 -0.09500
C 	C 	0.54260 0.96783 0.22856 0.08100
C 	C 	0.54389 0.96945 0.26875 -0.11800
O 	O 	0.56339 0.06921 0.32672 -0.20100
O 	O 	0.46889 0.93214 0.33375 -0.20200
H 	H 	0.46022 0.04965 0.28452 0.07700
H 	H 	0.56797 0.94812 0.28432 0.07900
H 	H 	0.59905 0.09766 0.45944 0.04600
H 	H 	0.59270 0.09776 0.38983 0.04500
H 	H 	0.46385 0.89969 0.46951 0.04700
H 	H 	0.45690 0.89942 0.39996 0.04500
H 	H 	0.51067 0.99454 0.17742 0.06500
H 	H 	0.52335 0.03112 0.80516 0.06100
Zn	Zn	0.72459 0.80642 0.99056 1.22000
C 	C 	0.69516 0.78384 0.06722 0.34500
O 	O 	0.76791 0.84259 0.02218 -0.43900
O 	O 	0.73372 0.76551 0.07551 -0.44500
O 	O 	0.81409 0.77709 0.02583 -0.49600
C 	C 	0.70846 0.70332 0.97481 0.32700
O 	O 	0.72030 0.74609 0.95976 -0.46400
O 	O 	0.71963 0.69257 0.01018 -0.47400
C 	C 	0.80666 0.82459 0.03044 0.31400
O 	O 	0.75175 0.84642 0.93450 -0.31600
Zn	Zn	0.76881 0.72642 0.03519 1.17400
O 	O 	0.68271 0.78802 0.03131 -0.44000
C 	C 	0.71597 0.87189 0.93641 0.30500
O 	O 	0.69009 0.86088 0.96469 -0.38300
Zn	Zn	0.21932 0.70141 0.02078 1.22300
C 	C 	0.20044 0.68149 0.10077 0.34700
O 	O 	0.19443 0.76627 0.00859 -0.45700
O 	O 	0.23526 0.70811 0.11017 -0.44800
O 	O 	0.19259 0.79295 0.07042 -0.48600
C 	C 	0.30936 0.70262 0.04378 0.34000
O 	O 	0.27462 0.67422 0.03817 -0.45500
O 	O 	0.30492 0.74893 0.05443 -0.49600
C 	C 	0.17693 0.79379 0.03537 0.33000
O 	O 	0.24688 0.69637 0.95720 -0.31400
Zn	Zn	0.25233 0.77182 0.08058 1.17300
O 	O 	0.18378 0.68440 0.06610 -0.43300
C 	C 	0.21557 0.66384 0.95226 0.30300
O 	O 	0.19084 0.65538 0.98179 -0.38100
C 	C 	0.99001 0.47213 0.30730 0.14700
C 	C 	0.95981 0.44252 0.28687 -0.11500
H 	H 	0.93823 0.41696 0.30217 0.07700
C 	C 	0.95755 0.44619 0.24678 0.08100
C 	C 	0.98537 0.47948 0.22718 -0.10600
C 	C 	0.01542 0.50911 0.24756 0.08300
C 	C 	0.01785 0.50533 0.28758 -0.11500
H 	H 	0.04106 0.52825 0.30345 0.07500
N 	N 	0.99211 0.46901 0.34844 -0.18400
C 	C 	0.01824 0.43415 0.36524 0.20000
C 	C 	0.02505 0.43458 0.40523 -0.08100
C 	C 	0.00534 0.47144 0.42757 0.06400
C 	C 	0.97598 0.50436 0.41029 -0.08200
C 	C 	0.96970 0.50256 0.37027 0.19800
C 	C 	0.05028 0.39810 0.42314 0.01100
C 	C 	0.05745 0.39960 0.46269 -0.05700
C 	C 	0.04259 0.44006 0.48479 0.01500
C 	C 	0.01425 0.47470 0.46740 -0.02500
C 	C 	0.99338 0.51132 0.48977 0.01000
C 	C 	0.95262 0.53768 0.43321 0.01100
C 	C 	0.95997 0.53984 0.47271 -0.05600
C 	C 	0.05356 0.44526 0.52431 0.01800
C 	C 	0.03270 0.48196 0.54663 -0.03000
C 	C 	0.00471 0.51683 0.52914 0.02300
O 	O 	0.94290 0.53392 0.35360 -0.20100
O 	O 	0.03787 0.40087 0.34376 -0.20200
H 	H 	0.92779 0.56108 0.42070 0.04500
H 	H 	0.93810 0.56177 0.48999 0.04700
H 	H 	0.06329 0.36755 0.40670 0.04400
H 	H 	0.07249 0.36798 0.47609 0.04700
C 	C 	0.99042 0.55772 0.55103 -0.06100
C 	C 	0.99752 0.55934 0.59058 0.01000
C 	C 	0.02191 0.52229 0.60870 -0.07800
C 	C 	0.04118 0.48497 0.58652 0.06300
C 	C 	0.08640 0.41617 0.54168 -0.05800
C 	C 	0.09292 0.41773 0.58132 0.01200
C 	C 	0.06956 0.45122 0.60408 -0.08000
C 	C 	0.02813 0.52243 0.64875 0.19800
N 	N 	0.05261 0.48630 0.66585 -0.18200
C 	C 	0.07476 0.45229 0.64424 0.19900
C 	C 	0.05271 0.48207 0.70698 0.15000
C 	C 	0.08635 0.50466 0.72858 -0.11400
C 	C 	0.08588 0.50096 0.76873 0.08300
C 	C 	0.05180 0.47480 0.78721 -0.10300
C 	C 	0.01818 0.45239 0.76567 0.08400
C 	C 	0.01870 0.45587 0.72559 -0.11500
O 	O 	0.00942 0.55661 0.67001 -0.19800
O 	O 	0.10002 0.41962 0.66124 -0.19900
H 	H 	0.11249 0.52513 0.71416 0.07800
H 	H 	0.99270 0.43856 0.70883 0.07400
H 	H 	0.97581 0.58949 0.53743 0.04800
H 	H 	0.98494 0.59024 0.60689 0.04500
H 	H 	0.10849 0.39428 0.52460 0.04700
H 	H 	0.11720 0.39381 0.59407 0.04500
H 	H 	0.05133 0.47215 0.81830 0.06700
H 	H 	0.98351 0.48244 0.19615 0.06500
Zn	Zn	0.80039 0.28105 0.99198 1.22300
C 	C 	0.81138 0.32613 0.91740 0.34500
O 	O 	0.76078 0.33731 0.99591 -0.44600
O 	O 	0.76855 0.32377 0.91302 -0.45200
O 	O 	0.70258 0.29210 0.97357 -0.49800
C 	C 	0.79857 0.19141 0.94851 0.30900
O 	O 	0.79598 0.20975 0.98330 -0.46400
O 	O 	0.77823 0.21313 0.92012 -0.48600
C 	C 	0.71824 0.33106 0.99192 0.33100
O 	O 	0.79041 0.26477 0.05838 -0.31300
Zn	Zn	0.73325 0.26183 0.93040 1.17200
O 	O 	0.83053 0.29985 0.94417 -0.44300
C 	C 	0.83017 0.28225 0.06178 0.30400
O 	O 	0.84870 0.29690 0.03028 -0.37900
Zn	Zn	0.98820 0.02065 0.01692 1.22100
C 	C 	0.05289 0.94601 0.03109 0.30600
O 	O 	0.93970 0.00266 0.05143 -0.46800
O 	O 	0.06585 0.97436 0.05973 -0.44200
O 	O 	0.97782 0.95563 0.09298 -0.48800
C 	C 	0.05229 0.08762 0.04721 0.33700
O 	O 	0.04183 0.06041 0.01735 -0.44500
O 	O 	0.03505 0.07706 0.08093 -0.50000
C 	C 	0.94199 0.96339 0.07329 0.34000
O 	O 	0.95138 0.09405 0.00270 -0.31000
Zn	Zn	0.02243 0.00826 0.09619 1.16900
O 	O 	0.01648 0.95569 0.01226 -0.42200
C 	C 	0.94041 0.07273 0.97072 0.28600
O 	O 	0.95582 0.02862 0.96583 -0.37100
C 	C 	0.83075 0.15301 0.94044 -0.06300
C 	C 	0.87148 0.16639 0.92439 -0.01100
C 	C 	0.90732 0.13504 0.92847 0.00200
C 	C 	0.90263 0.09042 0.94889 -0.07600
C 	C 	0.86005 0.07326 0.95864 0.07200
C 	C 	0.82440 0.10517 0.95529 -0.03000
H 	H 	0.93962 0.14780 0.91936 0.04500
H 	H 	0.79237 0.09373 0.96602 0.05000
H 	H 	0.87630 0.20279 0.91171 0.04700
I 	I 	0.84921 0.00078 0.98082 -0.09300
C 	C 	0.98301 0.42607 0.78485 -0.04500
C 	C 	0.95393 0.40414 0.80150 0.01800
C 	C 	0.91978 0.37791 0.82217 -0.02800
C 	C 	0.89043 0.40282 0.84294 -0.07100
C 	C 	0.86123 0.37659 0.86872 0.08100
C 	C 	0.83784 0.35398 0.89074 -0.12900
H 	H 	0.89031 0.44311 0.84245 0.05600
H 	H 	0.91982 0.33761 0.82266 0.04500
C 	C 	0.84845 0.29508 0.09845 -0.09900
C 	C 	0.86503 0.30744 0.12843 0.07100
C 	C 	0.88632 0.32406 0.16314 -0.06200
C 	C 	0.87217 0.36455 0.18123 -0.03100
C 	C 	0.90138 0.39204 0.20616 0.01800
C 	C 	0.92659 0.41616 0.22550 -0.04400
H 	H 	0.84094 0.38071 0.17334 0.04800
H 	H 	0.91728 0.30752 0.17138 0.05300
C 	C 	0.07857 0.90240 0.02135 -0.05400
C 	C 	0.11960 0.90878 0.00356 -0.01500
C 	C 	0.15076 0.87135 0.00563 0.01400
C 	C 	0.14121 0.82747 0.02576 -0.10400
C 	C 	0.09855 0.81909 0.04040 0.08000
C 	C 	0.06734 0.85656 0.03793 -0.04100
H 	H 	0.18320 0.87766 0.99356 0.02800
H 	H 	0.03537 0.85120 0.05116 0.05200
H 	H 	0.12837 0.94394 0.99033 0.04500
I 	I 	0.08077 0.75088 0.06715 -0.10700
C 	C 	0.11959 0.52498 0.79128 -0.04200
C 	C 	0.14657 0.54461 0.81176 0.02000
C 	C 	0.17715 0.56755 0.83810 -0.02900
C 	C 	0.17261 0.61514 0.84790 -0.06100
C 	C 	0.19006 0.63302 0.88384 0.07300
C 	C 	0.20274 0.64738 0.91471 -0.09900
H 	H 	0.15062 0.63868 0.83173 0.05700
H 	H 	0.19965 0.54419 0.85389 0.04900
C 	C 	0.17851 0.65170 0.12922 -0.12400
C 	C 	0.15906 0.62648 0.15241 0.08000
C 	C 	0.13470 0.59612 0.17929 -0.06900
C 	C 	0.09320 0.60718 0.18811 -0.02800
C 	C 	0.06631 0.57283 0.20983 0.01700
C 	C 	0.04334 0.54388 0.22734 -0.04400
H 	H 	0.07856 0.64080 0.17701 0.04700
H 	H 	0.14941 0.56255 0.19039 0.05300
C 	C 	0.84174 0.85775 0.04540 -0.05500
C 	C 	0.88612 0.84654 0.03936 -0.01900
C 	C 	0.91918 0.87945 0.05153 0.01300
C 	C 	0.90830 0.92406 0.06967 -0.10500
C 	C 	0.86393 0.93395 0.07787 0.08500
C 	C 	0.83088 0.90092 0.06560 -0.03500
H 	H 	0.95318 0.87148 0.04508 0.03800
H 	H 	0.79679 0.90901 0.07161 0.06700
H 	H 	0.89501 0.81310 0.02419 0.04700
I 	I 	0.84595 0.99832 0.10887 -0.10400
C 	C 	0.70069 0.90022 0.90432 -0.10000
C 	C 	0.68607 0.92359 0.87784 0.07200
C 	C 	0.66661 0.95122 0.84691 -0.06200
C 	C 	0.64407 0.92755 0.81931 -0.02800
C 	C 	0.61417 0.95437 0.79515 0.01500
C 	C 	0.58801 0.97664 0.77600 -0.03400
H 	H 	0.64452 0.88733 0.81756 0.04800
H 	H 	0.66640 0.99146 0.84852 0.05300
C 	C 	0.66816 0.80355 0.09717 -0.12300
C 	C 	0.64528 0.82142 0.12165 0.08200
C 	C 	0.61764 0.84411 0.15009 -0.06800
C 	C 	0.63023 0.88664 0.16683 -0.02700
C 	C 	0.59953 0.91445 0.18948 0.01900
C 	C 	0.57370 0.93845 0.20768 -0.04100
H 	H 	0.66272 0.90235 0.16129 0.04800
H 	H 	0.58519 0.82831 0.15568 0.05600
C 	C 	0.16621 0.18061 0.03324 -0.06000
C 	C 	0.16084 0.15179 0.06646 -0.02100
C 	C 	0.12251 0.12344 0.07188 0.01100
C 	C 	0.08887 0.12401 0.04431 -0.10500
C 	C 	0.09309 0.15566 0.01208 0.08300
C 	C 	0.13212 0.18286 0.00632 -0.03600
H 	H 	0.11964 0.09963 0.09687 0.01900
H 	H 	0.13562 0.20639 0.98123 0.05400
H 	H 	0.18691 0.15018 0.08757 0.04300
I 	I 	0.03999 0.16714 0.97371 -0.10200
C 	C 	0.45682 0.08053 0.77383 -0.04500
C 	C 	0.42941 0.10227 0.79199 0.01600
C 	C 	0.39762 0.12791 0.81503 -0.03000
C 	C 	0.36519 0.10260 0.83259 -0.06300
C 	C 	0.34118 0.12500 0.86360 0.07100
C 	C 	0.32251 0.14354 0.89042 -0.10200
H 	H 	0.35975 0.06351 0.82637 0.05500
H 	H 	0.40289 0.16708 0.82110 0.04500
C 	C 	0.45039 0.05419 0.20787 -0.04300
C 	C 	0.42443 0.07809 0.18972 0.01200
C 	C 	0.39378 0.10616 0.16722 -0.02700
C 	C 	0.40818 0.14307 0.14454 -0.07100
C 	C 	0.37868 0.16669 0.11806 0.07900
C 	C 	0.35438 0.18599 0.09538 -0.12700
H 	H 	0.44273 0.15389 0.14447 0.05600
H 	H 	0.35923 0.09534 0.16734 0.04000
C 	C 	0.43151 0.40781 0.95031 -0.06500
C 	C 	0.43986 0.37243 0.97881 -0.01600
C 	C 	0.40771 0.33731 0.98876 0.00400
C 	C 	0.36675 0.33714 0.97041 -0.10200
C 	C 	0.35905 0.37089 0.94024 0.07700
C 	C 	0.39149 0.40621 0.93040 -0.03600
H 	H 	0.41418 0.31106 0.01157 0.04300
H 	H 	0.38515 0.43301 0.90795 0.05600
H 	H 	0.47098 0.37291 0.99391 0.04500
I 	I 	0.29986 0.36795 0.90800 -0.11200
C 	C 	0.42707 0.62931 0.01370 -0.02300
C 	C 	0.40585 0.61790 0.04838 -0.03300
C 	C 	0.36891 0.64445 0.05963 0.02200
C 	C 	0.35324 0.68295 0.03649 -0.11200
C 	C 	0.37702 0.69738 0.00347 0.09400
C 	C 	0.41385 0.67052 0.99230 -0.05700
H 	H 	0.35119 0.63355 0.08538 0.03200
H 	H 	0.43076 0.68002 0.96583 0.06500
H 	H 	0.41615 0.58641 0.06530 0.05000
I 	I 	0.35619 0.75696 0.96826 -0.11400
C 	C 	0.61959 0.43823 0.99873 -0.06200
C 	C 	0.66241 0.45324 0.98881 -0.01900
C 	C 	0.69667 0.41939 0.99078 0.00200
C 	C 	0.68829 0.37072 0.00342 -0.09600
C 	C 	0.64729 0.35900 0.02022 0.07500
C 	C 	0.61290 0.39269 0.01744 -0.03200
H 	H 	0.72869 0.42968 0.97940 0.04500
H 	H 	0.58028 0.38200 0.02721 0.05500
H 	H 	0.66830 0.48931 0.97599 0.04300
I 	I 	0.63673 0.29132 0.05027 -0.11100
C 	C 	0.61372 0.60525 0.92367 -0.06200
C 	C 	0.60404 0.65543 0.92942 -0.01800
C 	C 	0.63589 0.68789 0.94436 0.01300
C 	C 	0.67768 0.67054 0.95395 -0.10000
C 	C 	0.68854 0.62105 0.94567 0.07900
C 	C 	0.65669 0.58882 0.93014 -0.03700
H 	H 	0.62750 0.72612 0.94993 0.03800
H 	H 	0.66500 0.55066 0.92435 0.05600
H 	H 	0.57135 0.66892 0.92362 0.04900
I 	I 	0.75277 0.59412 0.95563 -0.15500
