data_crystal

_cell_length_a 24.48353
_cell_length_b 20.97410
_cell_length_c 19.19476
_cell_angle_alpha 92.70468
_cell_angle_beta  85.32058
_cell_angle_gamma 124.78557

_symmetry_space_group_name_	'P 1'
_symmetry_space_group_name_H-M	'P 1'

loop_
_symmetry_equiv_pos_as_xyz
  x,y,z

loop_
_atom_site_label
_atom_site_type_symbol
_atom_site_fract_x
_atom_site_fract_y
_atom_site_fract_z
_atom_site_charge
C 	C 	0.96749 0.19757 0.88940 -0.03600
C 	C 	0.94886 0.14587 0.83284 0.04000
C 	C 	0.97591 0.10266 0.82144 -0.11400
C 	C 	0.01753 0.10569 0.86958 0.13500
C 	C 	0.03644 0.15813 0.92628 -0.08800
C 	C 	0.01306 0.20523 0.93463 0.06600
N 	N 	0.03416 0.04932 0.86421 -0.16200
C 	C 	0.20945 0.11956 0.96439 0.03500
C 	C 	0.14679 0.06909 0.99885 -0.02300
C 	C 	0.08898 0.04469 0.96615 -0.04100
C 	C 	0.09334 0.07090 0.89808 0.08700
C 	C 	0.15629 0.12293 0.86462 -0.02700
C 	C 	0.21409 0.14749 0.89767 0.01500
C 	C 	0.87458 0.81504 0.90793 0.02500
C 	C 	0.91924 0.83323 0.84931 0.03800
C 	C 	0.97041 0.91056 0.83398 -0.09900
C 	C 	0.97738 0.97029 0.87701 0.15000
C 	C 	0.92965 0.95220 0.93295 -0.06800
C 	C 	0.87919 0.87490 0.94875 0.02700
H 	H 	0.91164 0.13706 0.79925 0.07500
H 	H 	0.96063 0.06228 0.77810 0.06500
H 	H 	0.06786 0.16139 0.96468 0.08100
H 	H 	0.02779 0.24507 0.97842 0.07900
H 	H 	0.14290 0.04842 0.05091 0.10300
H 	H 	0.04130 0.00751 0.99449 0.05700
H 	H 	0.16026 0.14549 0.81362 0.08300
H 	H 	0.26245 0.18781 0.87130 0.09300
H 	H 	0.91582 0.78728 0.81731 0.10800
H 	H 	0.00580 0.92407 0.78979 0.14400
H 	H 	0.93407 0.99764 0.96651 0.09400
H 	H 	0.84540 0.86136 0.99452 0.09500
C 	C 	0.90289 0.07718 0.49072 -0.01200
C 	C 	0.92798 0.03696 0.45777 0.04600
C 	C 	0.95476 0.00789 0.49728 -0.14000
C 	C 	0.95821 0.02070 0.57006 0.06400
C 	C 	0.93732 0.06557 0.60184 -0.04900
C 	C 	0.90984 0.09378 0.56239 0.02100
N 	N 	0.98046 0.98572 0.61288 -0.10700
C 	C 	0.19004 0.09620 0.60104 0.00400
C 	C 	0.15976 0.11762 0.65304 0.02600
C 	C 	0.09092 0.08216 0.65597 -0.06100
C 	C 	0.05229 0.02735 0.60531 0.09800
C 	C 	0.08392 0.01140 0.54940 -0.14700
C 	C 	0.15238 0.04521 0.54779 0.04600
C 	C 	0.87025 0.73792 0.59919 0.01400
C 	C 	0.83880 0.77539 0.59010 0.03200
C 	C 	0.87409 0.85607 0.59651 -0.05200
C 	C 	0.94239 0.90086 0.60961 0.12100
C 	C 	0.97084 0.86160 0.62748 -0.10600
C 	C 	0.93628 0.78131 0.61833 0.03900
H 	H 	0.92374 0.02496 0.40223 0.06200
H 	H 	0.96960 0.97235 0.47209 0.13400
H 	H 	0.94076 0.07679 0.65746 0.06800
H 	H 	0.89181 0.12621 0.58796 0.08300
H 	H 	0.18936 0.16040 0.69194 0.07400
H 	H 	0.06735 0.09619 0.69822 0.07600
H 	H 	0.05494 0.96940 0.50979 0.15200
H 	H 	0.17582 0.03002 0.50635 0.06400
H 	H 	0.78711 0.74200 0.57746 0.10200
H 	H 	0.84832 0.88355 0.59122 0.12800
H 	H 	0.01974 0.89309 0.64775 0.14600
H 	H 	0.96088 0.75289 0.62609 0.09300
Co	Co	0.73830 0.37078 0.98288 1.19700
O 	O 	0.82132 0.38272 0.92889 -0.31300
Co	Co	0.58955 0.33995 0.01660 1.20000
O 	O 	0.64771 0.30402 0.94228 -0.46100
O 	O 	0.65635 0.45520 0.01974 -0.35500
O 	O 	0.75435 0.28087 0.98920 -0.27500
C 	C 	0.71714 0.49493 0.98785 0.33100
O 	O 	0.58422 0.33276 0.90517 -0.32900
C 	C 	0.46642 0.24731 0.06304 0.30900
C 	C 	0.69215 0.37138 0.11520 0.31300
O 	O 	0.50247 0.32231 0.06616 -0.27700
O 	O 	0.50216 0.22447 0.03496 -0.31300
O 	O 	0.75345 0.40436 0.09041 -0.24200
O 	O 	0.65119 0.32567 0.06909 -0.42700
O 	O 	0.74002 0.46001 0.94917 -0.51100
C 	C 	0.80797 0.31714 0.94853 0.28500
C 	C 	0.62895 0.31909 0.88811 0.32500
H 	H 	0.76927 0.48643 0.90508 0.23100
Co	Co	0.71707 0.26717 0.48142 1.19600
O 	O 	0.79110 0.26814 0.41745 -0.27700
Co	Co	0.58944 0.27486 0.54474 1.20000
O 	O 	0.63557 0.25423 0.44181 -0.43700
O 	O 	0.67371 0.36532 0.57794 -0.39500
O 	O 	0.70091 0.16083 0.44234 -0.32400
C 	C 	0.72807 0.40988 0.53691 0.35300
O 	O 	0.59871 0.32574 0.44708 -0.26000
C 	C 	0.46568 0.20345 0.58801 0.28000
C 	C 	0.66359 0.22148 0.61250 0.33300
O 	O 	0.51471 0.26710 0.61323 -0.29200
O 	O 	0.48660 0.17955 0.53625 -0.28300
O 	O 	0.72186 0.24195 0.58633 -0.33100
O 	O 	0.62589 0.21168 0.56353 -0.45300
O 	O 	0.75852 0.38078 0.50128 -0.49900
C 	C 	0.75932 0.19370 0.41046 0.30400
C 	C 	0.63288 0.30535 0.40956 0.33100
H 	H 	0.80666 0.41753 0.48299 0.23400
C 	C 	0.65407 0.24327 0.68455 -0.10600
C 	C 	0.70800 0.28420 0.72834 0.15400
C 	C 	0.69830 0.30740 0.79498 -0.03600
C 	C 	0.63654 0.29281 0.81803 -0.09500
C 	C 	0.58190 0.24896 0.77593 0.15800
C 	C 	0.59100 0.22422 0.70959 -0.04500
H 	H 	0.73940 0.33770 0.82861 0.05100
H 	H 	0.54865 0.18888 0.67820 0.05700
O 	O 	0.76781 0.29326 0.70949 -0.15600
O 	O 	0.52069 0.23508 0.79731 -0.15200
C 	C 	0.81497 0.37014 0.68622 -0.04800
H 	H 	0.79856 0.38400 0.64034 0.07000
H 	H 	0.86217 0.37629 0.66928 0.10600
H 	H 	0.82619 0.41289 0.72897 0.08500
C 	C 	0.48072 0.16182 0.83008 -0.05400
H 	H 	0.47028 0.11431 0.79288 0.08900
H 	H 	0.43213 0.15157 0.84821 0.11200
H 	H 	0.50352 0.15948 0.87695 0.08100
C 	C 	0.67468 0.35216 0.18972 -0.06200
C 	C 	0.63661 0.37355 0.22919 0.15500
C 	C 	0.62015 0.35438 0.30033 -0.01000
C 	C 	0.64117 0.31356 0.33241 -0.06000
C 	C 	0.67327 0.28536 0.29074 0.16300
C 	C 	0.69367 0.30911 0.22092 -0.02300
H 	H 	0.59154 0.37200 0.33061 0.13900
H 	H 	0.72130 0.29050 0.19001 0.13100
O 	O 	0.61050 0.40721 0.19697 -0.14700
O 	O 	0.68437 0.23415 0.31776 -0.16500
C 	C 	0.65248 0.48830 0.20630 -0.07400
H 	H 	0.65144 0.50436 0.26227 0.13600
H 	H 	0.63387 0.51556 0.17658 0.12800
H 	H 	0.70455 0.51267 0.18565 0.13700
C 	C 	0.63082 0.15793 0.30191 -0.04900
H 	H 	0.58281 0.14412 0.32767 0.08600
H 	H 	0.63998 0.11638 0.32209 0.09800
H 	H 	0.62690 0.14816 0.24444 0.09500
C 	C 	0.82232 0.62879 0.51437 0.00200
C 	C 	0.83524 0.65392 0.58386 0.10300
C 	C 	0.81240 0.59876 0.63791 -0.13600
C 	C 	0.78221 0.52020 0.62018 0.09400
C 	C 	0.76718 0.49458 0.55101 -0.04000
C 	C 	0.78542 0.54917 0.49760 -0.05500
C 	C 	0.75843 0.52274 0.42563 0.76600
H 	H 	0.83919 0.67150 0.47370 0.10800
H 	H 	0.76822 0.47817 0.66063 0.06500
C 	C 	0.82127 0.62322 0.71429 0.78900
F 	F 	0.78367 0.58482 0.38085 -0.41200
F 	F 	0.68992 0.48367 0.43187 -0.43000
F 	F 	0.77513 0.47447 0.39534 -0.44400
F 	F 	0.80473 0.67564 0.72885 -0.41500
F 	F 	0.88676 0.65696 0.72889 -0.44700
F 	F 	0.78078 0.56025 0.75840 -0.44500
C 	C 	0.89944 0.16938 0.41730 -0.00200
C 	C 	0.86525 0.09740 0.45137 0.11500
C 	C 	0.79478 0.04826 0.45287 -0.20000
C 	C 	0.75987 0.07776 0.43084 0.09600
C 	C 	0.79440 0.15439 0.40627 -0.01200
C 	C 	0.86408 0.19593 0.39021 -0.05900
C 	C 	0.90087 0.26711 0.34373 0.77600
H 	H 	0.95348 0.20512 0.41278 0.10400
H 	H 	0.70594 0.04300 0.43699 0.07800
C 	C 	0.75669 0.96637 0.48188 0.85300
F 	F 	0.95455 0.27316 0.30661 -0.39900
F 	F 	0.92432 0.33294 0.38437 -0.40300
F 	F 	0.85960 0.26293 0.29581 -0.38700
F 	F 	0.76117 0.96929 0.55345 -0.40900
F 	F 	0.78282 0.92730 0.45154 -0.41300
F 	F 	0.68995 0.92420 0.46842 -0.39000
C 	C 	0.30795 0.18992 0.55901 0.01000
C 	C 	0.26133 0.12705 0.60227 0.08600
C 	C 	0.28248 0.09175 0.64369 -0.11100
C 	C 	0.35057 0.12098 0.64103 0.06200
C 	C 	0.39675 0.18175 0.59564 0.00700
C 	C 	0.37571 0.21759 0.55472 -0.06500
C 	C 	0.42495 0.28369 0.50511 0.77400
H 	H 	0.29092 0.21618 0.52765 0.11000
H 	H 	0.36771 0.09535 0.67310 0.08200
C 	C 	0.23257 0.02286 0.69037 0.69900
F 	F 	0.39518 0.31283 0.47244 -0.39500
F 	F 	0.45088 0.25760 0.45392 -0.42100
F 	F 	0.47628 0.34388 0.54155 -0.40900
F 	F 	0.18283 0.96407 0.65134 -0.36800
F 	F 	0.20436 0.04552 0.74222 -0.43000
F 	F 	0.26225 0.99305 0.72210 -0.32000
C 	C 	0.72408 0.60930 0.94530 0.08700
C 	C 	0.75294 0.57991 0.98114 -0.02000
C 	C 	0.81993 0.63019 0.99897 -0.09100
C 	C 	0.85916 0.70604 0.97237 0.01900
C 	C 	0.83135 0.73437 0.93348 0.09700
C 	C 	0.76284 0.68633 0.92066 -0.11400
C 	C 	0.73048 0.71789 0.88351 0.79400
H 	H 	0.67210 0.57097 0.93401 0.09400
H 	H 	0.91165 0.74354 0.98194 0.10100
C 	C 	0.85009 0.60275 0.04510 0.79800
F 	F 	0.66624 0.65954 0.86727 -0.39600
F 	F 	0.76683 0.75398 0.82178 -0.39500
F 	F 	0.72777 0.77108 0.92625 -0.41500
F 	F 	0.86422 0.55562 0.00705 -0.42500
F 	F 	0.80617 0.56183 0.10143 -0.43400
F 	F 	0.90852 0.66460 0.07117 -0.39400
C 	C 	0.89504 0.31490 0.87536 0.07600
C 	C 	0.85578 0.29542 0.93856 0.00300
C 	C 	0.86110 0.25295 0.98977 -0.07600
C 	C 	0.89446 0.21759 0.97075 -0.02500
C 	C 	0.93277 0.23582 0.90705 0.10700
C 	C 	0.93757 0.29033 0.86149 -0.13000
C 	C 	0.98633 0.32114 0.79748 0.74700
H 	H 	0.89212 0.34883 0.83679 0.08400
H 	H 	0.89175 0.17690 0.00609 0.11600
C 	C 	0.83331 0.24666 0.06478 0.79300
F 	F 	0.00047 0.39172 0.77679 -0.37600
F 	F 	0.95899 0.26913 0.74288 -0.44400
F 	F 	0.04597 0.33273 0.81139 -0.39100
F 	F 	0.76603 0.18782 0.06990 -0.41600
F 	F 	0.84281 0.31594 0.08679 -0.39900
F 	F 	0.86505 0.22989 0.10963 -0.39500
C 	C 	0.29425 0.20081 0.04995 0.03500
C 	C 	0.27034 0.14299 0.99826 0.06300
C 	C 	0.30463 0.10799 0.97943 -0.15500
C 	C 	0.36697 0.13909 0.00586 0.12700
C 	C 	0.39416 0.20237 0.05236 -0.01400
C 	C 	0.35412 0.22751 0.08046 -0.06500
C 	C 	0.37476 0.28296 0.14200 0.77700
H 	H 	0.26633 0.22522 0.06614 0.10200
H 	H 	0.39594 0.11665 0.98752 0.05600
C 	C 	0.27763 0.04170 0.92704 0.74900
F 	F 	0.31932 0.27207 0.17961 -0.40000
F 	F 	0.41447 0.35863 0.11801 -0.39500
F 	F 	0.40937 0.27093 0.18713 -0.40600
F 	F 	0.28613 0.07023 0.86071 -0.41700
F 	F 	0.21062 0.98615 0.94296 -0.34600
F 	F 	0.31044 0.00552 0.92718 -0.42600
