data_crystal

_cell_length_a 17.85586
_cell_length_b 14.86053
_cell_length_c 32.17558
_cell_angle_alpha 89.87701
_cell_angle_beta  89.87916
_cell_angle_gamma 119.40392

_symmetry_space_group_name_	'P 1'
_symmetry_space_group_name_H-M	'P 1'

loop_
_symmetry_equiv_pos_as_xyz
  x,y,z

loop_
_atom_site_label
_atom_site_type_symbol
_atom_site_fract_x
_atom_site_fract_y
_atom_site_fract_z
_atom_site_charge
Ni	Ni	0.12131 0.99469 0.76127 1.10100
Ni	Ni	0.12964 0.20759 0.72613 1.12600
Br	Br	0.04187 0.46328 0.31299 -0.16800
C 	C 	0.07225 0.48119 0.49859 -0.12900
Br	Br	0.10766 0.31256 0.59665 -0.12600
C 	C 	0.01237 0.55742 0.04897 -0.07200
O 	O 	0.18958 0.10348 0.80535 -0.34800
O 	O 	0.19199 0.16602 0.68542 -0.35900
C 	C 	0.06430 0.12691 0.27696 0.33300
C 	C 	0.03825 0.82437 0.29856 0.29500
Ni	Ni	0.05193 0.94870 0.22325 1.12100
O 	O 	0.05010 0.82882 0.19199 -0.34600
O 	O 	0.01270 0.98642 0.16995 -0.36800
O 	O 	0.09064 0.90456 0.27464 -0.36900
C 	C 	0.05001 0.10764 0.09658 -0.04500
C 	C 	0.00494 0.12042 0.12999 -0.01700
C 	C 	0.03232 0.28395 0.09994 0.01000
H 	H 	0.05793 0.03998 0.09513 0.11200
C 	C 	0.01248 0.64940 0.19748 -0.03200
C 	C 	0.03501 0.52256 0.16018 0.00600
H 	H 	0.02024 0.47337 0.13363 0.07000
C 	C 	0.06619 0.29267 0.29049 -0.00000
C 	C 	0.11126 0.23761 0.28784 -0.08300
C 	C 	0.10845 0.39638 0.30236 0.12000
C 	C 	0.09289 0.72737 0.39720 -0.03500
C 	C 	0.06614 0.82158 0.34236 -0.07000
C 	C 	0.04158 0.72812 0.36408 0.14200
H 	H 	0.07878 0.65448 0.41136 0.08000
C 	C 	0.05527 0.49813 0.53986 0.37100
C 	C 	0.10652 0.61917 0.05309 0.33300
C 	C 	0.08591 0.27769 0.06959 -0.08900
H 	H 	0.03077 0.35433 0.10379 0.06100
F 	F 	0.11506 0.51936 0.56979 -0.41400
H 	H 	0.06595 0.90603 0.88160 0.07300
Br	Br	0.03016 0.76774 0.95409 -0.12900
H 	H 	0.06558 0.09745 0.77802 0.16900
O 	O 	0.09451 0.09562 0.24554 -0.33800
C 	C 	0.16169 0.53429 0.48534 0.33700
C 	C 	0.08849 0.18472 0.06593 0.14800
C 	C 	0.24841 0.19608 0.79376 0.30500
C 	C 	0.25156 0.14629 0.69811 0.31500
O 	O 	0.22981 0.25517 0.76879 -0.34800
O 	O 	0.23203 0.06670 0.72296 -0.34100
C 	C 	0.24774 0.80741 0.41058 0.29000
C 	C 	0.23050 0.52474 0.34360 0.31200
Ni	Ni	0.32798 0.72553 0.47662 1.12100
Ni	Ni	0.29280 0.52341 0.42619 1.12500
O 	O 	0.29322 0.82853 0.44617 -0.31700
O 	O 	0.27510 0.78515 0.37602 -0.35100
O 	O 	0.29504 0.62027 0.33529 -0.34000
O 	O 	0.20659 0.49129 0.38179 -0.38100
O 	O 	0.20453 0.63330 0.49383 -0.35600
O 	O 	0.20130 0.48124 0.47344 -0.35200
O 	O 	0.30499 0.65656 0.42552 -0.71200
H 	H 	0.24501 0.63922 0.42051 0.16400
C 	C 	0.18943 0.56960 0.15885 0.32100
C 	C 	0.15804 0.37483 0.05282 0.32700
Ni	Ni	0.27303 0.72943 0.09785 1.12600
Ni	Ni	0.23880 0.58925 0.01551 1.13100
O 	O 	0.14303 0.65990 0.08916 -0.35400
O 	O 	0.19349 0.49441 0.13875 -0.36000
O 	O 	0.25085 0.66391 0.15397 -0.36900
O 	O 	0.23505 0.40037 0.06505 -0.35900
O 	O 	0.14377 0.44341 0.03305 -0.36000
O 	O 	0.29508 0.81870 0.04717 -0.35000
O 	O 	0.15342 0.63793 0.01970 -0.36500
O 	O 	0.28760 0.62625 0.06969 -0.71400
Br	Br	0.14902 0.16469 0.02075 -0.14600
C 	C 	0.07776 0.66311 0.22515 -0.04300
C 	C 	0.11211 0.55375 0.18211 -0.09100
C 	C 	0.12614 0.61371 0.21825 0.14700
Br	Br	0.22856 0.65723 0.25031 -0.19800
H 	H 	0.09722 0.72045 0.24937 0.08800
C 	C 	0.20151 0.29105 0.29218 0.13100
C 	C 	0.24423 0.39693 0.30107 -0.03800
C 	C 	0.19717 0.44698 0.31073 -0.06200
Br	Br	0.26630 0.21914 0.29175 -0.18500
C 	C 	0.16975 0.81754 0.40737 -0.05500
C 	C 	0.17901 0.91234 0.39364 0.10100
C 	C 	0.12878 0.91440 0.36051 -0.02200
H 	H 	0.14155 0.98798 0.34755 0.07200
H 	H 	0.33467 0.37366 0.52332 0.10800
C 	C 	0.39672 0.30082 0.70832 -0.03700
C 	C 	0.34130 0.21415 0.68448 -0.07900
C 	C 	0.36987 0.20065 0.64553 0.14100
C 	C 	0.45593 0.26423 0.63416 -0.03400
H 	H 	0.37166 0.32725 0.73302 0.07400
H 	H 	0.47727 0.25723 0.60366 0.10500
Br	Br	0.29302 0.09729 0.60753 -0.14600
C 	C 	0.33808 0.23111 0.80614 -0.07300
C 	C 	0.38350 0.31883 0.83094 0.13700
Br	Br	0.33006 0.39492 0.85150 -0.15200
O 	O 	0.06750 0.25794 0.76324 -0.34500
H 	H 	0.31510 0.90522 0.94592 0.12800
C 	C 	0.38346 0.57280 0.50452 0.36100
Ni	Ni	0.36233 0.73875 0.37673 1.13100
O 	O 	0.35389 0.63319 0.51769 -0.31700
C 	C 	0.34227 0.82112 0.01507 0.29700
Ni	Ni	0.30269 0.52888 0.10135 1.11500
O 	O 	0.31499 0.52794 0.00251 -0.32400
O 	O 	0.32595 0.73448 0.99481 -0.31000
H 	H 	0.34730 0.67272 0.06114 0.15800
H 	H 	0.31310 0.43660 0.30607 0.08100
Br	Br	0.26509 0.03959 0.41693 -0.08100
C 	C 	0.40091 0.42908 0.53040 -0.08400
F 	F 	0.43702 0.29467 0.52604 -0.42300
C 	C 	0.37138 0.95897 0.96324 -0.13900
F 	F 	0.38435 0.09691 0.92021 -0.42100
C 	C 	0.37728 0.17245 0.79459 -0.02600
C 	C 	0.46884 0.35103 0.84144 -0.02200
H 	H 	0.34069 0.10017 0.77835 0.07800
H 	H 	0.50386 0.42016 0.85979 0.07700
O 	O 	0.06747 0.07320 0.74981 -0.69700
O 	O 	0.38482 0.54389 0.38364 -0.36800
O 	O 	0.39029 0.56204 0.46518 -0.38300
C 	C 	0.46241 0.39638 0.53093 0.34800
C 	C 	0.42655 0.53487 0.53250 -0.11300
C 	C 	0.48466 0.35645 0.69877 0.13000
C 	C 	0.41232 0.06464 0.95324 0.40200
C 	C 	0.40030 0.92353 0.99670 -0.05400
C 	C 	0.39252 0.56667 0.01833 0.30800
O 	O 	0.38234 0.64142 0.14296 -0.35400
O 	O 	0.40095 0.79449 0.11476 -0.31400
C 	C 	0.46473 0.20910 0.80232 0.13800
O 	O 	0.45304 0.79232 0.45862 -0.37300
F 	F 	0.37872 0.63360 0.93574 -0.42700
H 	H 	0.06830 0.72428 0.70455 0.07200
Br	Br	0.04442 0.51673 0.68444 -0.15100
O 	O 	0.44222 0.87848 0.40524 -0.33500
O 	O 	0.05546 0.88542 0.71665 -0.36600
O 	O 	0.40290 0.55970 0.05913 -0.34700
C 	C 	0.51160 0.30007 0.82538 -0.06600
C 	C 	0.48147 0.87861 0.43977 0.35900
H 	H 	0.41876 0.05840 0.52996 0.14200
C 	C 	0.46011 0.02728 0.52111 -0.12500
F 	F 	0.42679 0.03493 0.44986 -0.40300
C 	C 	0.47035 0.01285 0.47881 0.38200
H 	H 	0.00631 0.40934 0.04636 0.13000
O 	O 	0.46385 0.71896 0.37495 -0.36500
C 	C 	0.43324 0.73870 0.13229 0.29200
C 	C 	0.46010 0.63026 0.38178 0.32500
H 	H 	0.06469 0.41774 0.78317 0.11000
C 	C 	0.51581 0.32965 0.66364 -0.06700
Br	Br	0.03684 0.58077 0.82055 -0.17500
O 	O 	0.04990 0.19607 0.67843 -0.32300
C 	C 	0.47064 0.99568 0.02018 0.28000
C 	C 	0.45595 0.64844 0.94917 0.33900
H 	H 	0.02264 0.44962 0.43625 0.10300
C 	C 	0.46718 0.62561 0.99083 -0.08700
F 	F 	0.49672 0.96415 0.05406 -0.42000
C 	C 	0.48476 0.13622 0.97579 -0.12500
C 	C 	0.01074 0.46277 0.46812 -0.06800
H 	H 	0.50086 0.51375 0.32958 0.08500
H 	H 	0.51259 0.68571 0.88806 0.11100
C 	C 	0.51380 0.01834 0.55112 -0.08500
H 	H 	0.47696 0.79408 0.21206 0.08600
C 	C 	0.52410 0.68079 0.92081 -0.07100
O 	O 	0.02263 0.90715 0.80418 -0.34500
C 	C 	0.51102 0.60396 0.54455 0.35400
C 	C 	0.52094 0.96916 0.46683 -0.17700
C 	C 	0.51211 0.10109 0.00989 -0.03600
Br	Br	0.51964 0.13801 0.77844 -0.16900
C 	C 	0.54952 0.46828 0.53723 -0.11800
C 	C 	0.52053 0.78970 0.15017 -0.05200
C 	C 	0.54533 0.09469 0.58509 0.33700
F 	F 	0.53536 0.70481 0.55116 -0.39800
Br	Br	0.56007 0.47165 0.73233 -0.18100
C 	C 	0.52733 0.79327 0.19345 -0.03200
C 	C 	0.54104 0.62787 0.37807 -0.06800
C 	C 	0.55008 0.65479 0.00461 -0.11200
O 	O 	0.55852 0.18417 0.57478 -0.38500
O 	O 	0.54867 0.32233 0.96620 -0.34100
C 	C 	0.55390 0.58263 0.34269 -0.02200
C 	C 	0.54680 0.23408 0.95552 0.34100
C 	C 	0.56431 0.97527 0.53862 0.30300
H 	H 	0.56181 0.64334 0.03668 0.11300
C 	C 	0.57913 0.96915 0.49622 -0.06800
O 	O 	0.58052 0.51336 0.92867 -0.38600
C 	C 	0.57292 0.57197 0.54511 -0.07500
H 	H 	0.56832 0.15479 0.02727 0.10600
C 	C 	0.59883 0.33123 0.66585 0.31400
O 	O 	0.59789 0.24281 0.66806 -0.35600
C 	C 	0.59903 0.68120 0.93341 -0.13000
C 	C 	0.60662 0.35542 0.82574 0.29200
O 	O 	0.57873 0.22563 0.91979 -0.36000
O 	O 	0.59614 0.09102 0.61380 -0.30900
C 	C 	0.60977 0.43195 0.54929 0.35400
C 	C 	0.58901 0.79512 0.12673 0.11500
F 	F 	0.60270 0.94501 0.56743 -0.39600
C 	C 	0.61677 0.60586 0.91283 0.33500
C 	C 	0.59620 0.79086 0.21326 0.12500
Br	Br	0.60737 0.84786 0.07125 -0.15100
O 	O 	0.62114 0.36775 0.52515 -0.32200
Br	Br	0.60994 0.74302 0.45393 -0.16100
C 	C 	0.61773 0.69606 0.97623 0.35300
H 	H 	0.62372 0.94332 0.48701 0.12400
Br	Br	0.60954 0.82011 0.27120 -0.22200
C 	C 	0.61417 0.70812 0.39734 0.13000
H 	H 	0.62251 0.40819 0.89599 0.15400
O 	O 	0.63544 0.44711 0.58762 -0.39000
O 	O 	0.64549 0.45730 0.82241 -0.33100
C 	C 	0.63353 0.63170 0.32208 0.13300
H 	H 	0.63890 0.62728 0.55272 0.10800
O 	O 	0.64972 0.30852 0.84006 -0.33900
Ni	Ni	0.65294 0.46768 0.95896 1.12600
Br	Br	0.65700 0.55500 0.28131 -0.19900
C 	C 	0.65248 0.77934 0.14606 -0.02600
C 	C 	0.65763 0.77760 0.18977 -0.06500
Ni	Ni	0.67053 0.27098 0.54378 1.11900
O 	O 	0.67284 0.41873 0.66276 -0.36000
O 	O 	0.68009 0.63572 0.88511 -0.35000
C 	C 	0.00115 0.88459 0.89132 0.01700
O 	O 	0.68235 0.44031 0.90511 -0.70800
C 	C 	0.00203 0.67031 0.71239 0.02000
Ni	Ni	0.69014 0.22439 0.64181 1.13100
C 	C 	0.68933 0.76624 0.37416 -0.02100
C 	C 	0.69720 0.73183 0.33490 -0.06200
Ni	Ni	0.69739 0.32361 0.90021 1.12500
C 	C 	0.98866 0.73184 0.19389 0.29000
H 	H 	0.99768 0.25406 0.28454 0.06200
C 	C 	0.98792 0.05665 0.16855 0.30400
C 	C 	0.98769 0.20346 0.12832 0.08500
C 	C 	0.98468 0.56968 0.16807 0.09700
F 	F 	0.99562 0.70665 0.05501 -0.41900
O 	O 	0.98395 0.07133 0.28995 -0.36700
O 	O 	0.96303 0.08315 0.20290 -0.33400
O 	O 	0.96942 0.74220 0.28232 -0.35300
H 	H 	0.95493 0.90524 0.27620 0.13700
O 	O 	0.93890 0.89419 0.24678 -0.71500
Br	Br	0.89724 0.20399 0.16066 -0.17400
C 	C 	0.97549 0.45238 0.03822 -0.15000
C 	C 	0.96514 0.60796 0.04198 0.33000
O 	O 	0.90851 0.70970 0.19788 -0.35100
Br	Br	0.87779 0.52206 0.13946 -0.16100
Br	Br	0.93330 0.60625 0.35424 -0.14800
C 	C 	0.98301 0.50782 0.54917 -0.12700
H 	H 	0.97061 0.51985 0.58105 0.11100
C 	C 	0.82327 0.66331 0.93811 0.29700
C 	C 	0.83961 0.43948 0.84408 0.33400
C 	C 	0.77319 0.40537 0.98351 0.35800
Ni	Ni	0.73853 0.54814 0.86455 1.12400
O 	O 	0.71402 0.42374 0.99736 -0.38600
O 	O 	0.83193 0.60949 0.90876 -0.36100
O 	O 	0.75301 0.62071 0.96215 -0.31800
O 	O 	0.81084 0.49878 0.82962 -0.34600
O 	O 	0.82043 0.40409 0.88162 -0.36700
O 	O 	0.75320 0.32976 0.95638 -0.32900
C 	C 	0.83500 0.46056 0.52959 0.32100
C 	C 	0.77955 0.17092 0.57761 0.30000
C 	C 	0.83811 0.42578 0.67555 0.30800
Ni	Ni	0.74384 0.45686 0.60976 1.12300
O 	O 	0.77622 0.37595 0.51195 -0.33800
O 	O 	0.81352 0.51496 0.55538 -0.36000
O 	O 	0.84595 0.46815 0.63892 -0.38900
O 	O 	0.78009 0.32689 0.68287 -0.34700
O 	O 	0.72063 0.16568 0.54984 -0.32300
O 	O 	0.77307 0.18489 0.61785 -0.35000
O 	O 	0.71946 0.32208 0.59577 -0.71300
H 	H 	0.77860 0.33693 0.59024 0.15300
C 	C 	0.97459 0.81876 0.72323 0.31100
C 	C 	0.97195 0.93826 0.82233 0.28300
C 	C 	0.99913 0.11000 0.65780 0.29500
C 	C 	0.98252 0.21431 0.76352 0.28600
Ni	Ni	0.94742 0.00196 0.73749 1.13400
O 	O 	0.96968 0.01936 0.67607 -0.35800
O 	O 	0.92011 0.85145 0.73229 -0.35100
O 	O 	0.93517 0.13125 0.74066 -0.34700
O 	O 	0.92784 0.97174 0.79963 -0.34700
C 	C 	0.77542 0.79404 0.30964 0.30900
C 	C 	0.74240 0.80330 0.20849 0.30600
Ni	Ni	0.88758 0.97774 0.24922 1.10900
Ni	Ni	0.87201 0.74800 0.25023 1.12900
O 	O 	0.79580 0.88906 0.29642 -0.34600
O 	O 	0.82939 0.75986 0.30582 -0.36700
O 	O 	0.80491 0.89654 0.20264 -0.36800
O 	O 	0.75840 0.72909 0.22224 -0.32600
H 	H 	0.70341 0.78048 0.12728 0.08600
H 	H 	0.74189 0.83586 0.38710 0.07700
C 	C 	0.92455 0.49615 0.51797 -0.10400
C 	C 	0.94174 0.47919 0.47683 0.31800
F 	F 	0.88772 0.47156 0.44570 -0.41100
C 	C 	0.93171 0.22285 0.56927 -0.02900
C 	C 	0.84599 0.14370 0.56566 -0.06400
C 	C 	0.82988 0.04331 0.57512 0.15000
C 	C 	0.88190 0.02996 0.60438 -0.00300
C 	C 	0.95826 0.11609 0.61807 -0.06500
C 	C 	0.98821 0.21014 0.59615 0.11700
H 	H 	0.95100 0.29735 0.55559 0.06700
H 	H 	0.86414 0.95313 0.61545 0.05900
Br	Br	0.75625 0.93001 0.54063 -0.15600
C 	C 	0.83263 0.52772 0.73377 -0.05000
C 	C 	0.88140 0.49597 0.71014 -0.06200
C 	C 	0.97003 0.56438 0.70615 0.08700
C 	C 	0.94692 0.70641 0.72655 -0.10900
C 	C 	0.86425 0.63308 0.74172 0.15200
Br	Br	0.79689 0.67201 0.77640 -0.23900
H 	H 	0.76666 0.47251 0.74173 0.09600
C 	C 	0.88780 0.55824 0.02004 -0.06200
C 	C 	0.85731 0.45753 0.00437 -0.14200
C 	C 	0.90006 0.40362 0.01502 0.38300
H 	H 	0.85117 0.59763 0.01559 0.10600
F 	F 	0.86754 0.30310 0.00412 -0.42100
F 	F 	0.69946 0.73938 0.99023 -0.43500
C 	C 	0.81913 0.28982 0.80259 -0.02400
C 	C 	0.87341 0.39147 0.81538 -0.08700
C 	C 	0.96184 0.43830 0.80713 0.13300
C 	C 	0.99624 0.38065 0.78927 -0.05600
C 	C 	0.94290 0.27526 0.77976 -0.04700
C 	C 	0.85270 0.23051 0.78578 0.12500
Br	Br	0.77300 0.08787 0.77385 -0.16500
H 	H 	0.75065 0.25439 0.80801 0.07900
C 	C 	0.83600 0.83099 0.91800 -0.05300
C 	C 	0.87588 0.77693 0.93393 -0.03300
C 	C 	0.96432 0.81829 0.92548 0.08900
C 	C 	0.95117 0.91433 0.86735 -0.09400
C 	C 	0.87300 0.89941 0.88448 0.14500
Br	Br	0.82375 0.98329 0.86817 -0.18300
H 	H 	0.77305 0.81287 0.92845 0.12300
