data_crystal

_cell_length_a 26.15129
_cell_length_b 26.55178
_cell_length_c 28.07454
_cell_angle_alpha 89.99950
_cell_angle_beta  90.00001
_cell_angle_gamma 100.88287

_symmetry_space_group_name_	'P 1'
_symmetry_space_group_name_H-M	'P 1'

loop_
_symmetry_equiv_pos_as_xyz
  x,y,z

loop_
_atom_site_label
_atom_site_type_symbol
_atom_site_fract_x
_atom_site_fract_y
_atom_site_fract_z
_atom_site_charge
H 	H 	0.02085 0.38971 0.47139 0.05200
C 	C 	0.14939 0.54721 0.43767 -0.10400
C 	C 	0.14216 0.49724 0.41938 0.03300
C 	C 	0.09247 0.46683 0.41878 -0.07800
C 	C 	0.05018 0.48665 0.43647 0.06300
N 	N 	0.05761 0.53598 0.45239 -0.11400
C 	C 	0.10580 0.56633 0.45340 0.06900
H 	H 	0.17493 0.48179 0.40614 0.03700
H 	H 	0.08685 0.42819 0.40469 0.05400
H 	H 	0.11025 0.60515 0.46678 0.04000
H 	H 	0.01487 0.40646 0.97576 0.05300
C 	C 	0.14024 0.56512 0.94141 -0.10400
C 	C 	0.13118 0.51670 0.91974 0.03400
C 	C 	0.08151 0.48638 0.92098 -0.07800
C 	C 	0.04102 0.50477 0.94383 0.06300
N 	N 	0.04998 0.55283 0.96289 -0.11300
C 	C 	0.09825 0.58306 0.96220 0.07000
H 	H 	0.16261 0.50230 0.90253 0.03600
H 	H 	0.07450 0.44885 0.90443 0.05400
H 	H 	0.10404 0.62078 0.97825 0.04000
O 	O 	0.23398 0.57654 0.93392 -0.38300
O 	O 	0.20603 0.63338 0.97371 -0.34700
C 	C 	0.19356 0.59571 0.94420 0.29600
O 	O 	0.21258 0.61770 0.47011 -0.34700
C 	C 	0.20228 0.57855 0.44200 0.29700
O 	O 	0.24360 0.55960 0.43507 -0.38100
H 	H 	0.26110 0.66582 0.87539 0.02000
H 	H 	0.24513 0.64896 0.78963 0.05600
H 	H 	0.27695 0.57118 0.64180 0.03600
H 	H 	0.27424 0.64477 0.37255 0.01700
H 	H 	0.28272 0.58999 0.72791 0.05500
C 	C 	0.28352 0.66714 0.80175 -0.08000
O 	O 	0.28761 0.59385 0.55188 -0.36500
Co	Co	0.28656 0.62654 0.97607 1.18300
O 	O 	0.28496 0.60491 0.04986 -0.36300
Co	Co	0.29316 0.61232 0.47746 1.18300
C 	C 	0.29238 0.60982 0.65382 0.04300
C 	C 	0.29536 0.62047 0.70246 -0.08100
C 	C 	0.29253 0.67674 0.85016 0.03700
N 	N 	0.29666 0.65824 0.30057 -0.11400
C 	C 	0.30469 0.66245 0.34847 0.07200
N 	N 	0.30747 0.62478 0.19980 -0.11600
C 	C 	0.30142 0.61617 0.15213 0.07700
H 	H 	0.28887 0.57735 0.13931 0.03500
C 	C 	0.30902 0.64786 0.06807 0.31400
O 	O 	0.31464 0.68477 0.03730 -0.46300
C 	C 	0.31005 0.63770 0.56946 0.31400
O 	O 	0.31701 0.67343 0.53741 -0.46200
C 	C 	0.31631 0.67028 0.71804 0.06700
C 	C 	0.31022 0.64893 0.62097 -0.11900
C 	C 	0.31224 0.65722 0.11989 -0.11900
C 	C 	0.32444 0.67281 0.21749 0.06600
O 	O 	0.32593 0.68205 0.44971 -0.45900
O 	O 	0.31861 0.69736 0.95008 -0.46000
C 	C 	0.32439 0.68121 0.76915 0.06600
N 	N 	0.33342 0.70785 0.68559 -0.11400
C 	C 	0.33049 0.69841 0.63791 0.07500
C 	C 	0.33389 0.67992 0.26892 0.06600
C 	C 	0.32838 0.70703 0.13757 0.03900
C 	C 	0.33427 0.71493 0.18646 -0.07900
H 	H 	0.33665 0.73947 0.11357 0.02500
H 	H 	0.34681 0.75342 0.20018 0.05700
H 	H 	0.34452 0.72923 0.61324 0.02000
C 	C 	0.34220 0.70029 0.86572 -0.12400
C 	C 	0.35235 0.68894 0.36638 -0.12100
O 	O 	0.35452 0.60716 0.96064 -0.53800
C 	C 	0.35355 0.70772 0.91700 0.31500
H 	H 	0.35488 0.58419 0.93183 0.17400
C 	C 	0.36265 0.69109 0.41809 0.31200
O 	O 	0.36250 0.59385 0.46685 -0.53800
H 	H 	0.36585 0.57157 0.43812 0.17300
H 	H 	0.36723 0.51494 0.02159 0.02100
H 	H 	0.36835 0.49711 0.49395 0.01900
N 	N 	0.37203 0.70535 0.78480 -0.11500
O 	O 	0.37279 0.79963 0.01956 -0.34300
O 	O 	0.37439 0.78776 0.51617 -0.34300
H 	H 	0.37844 0.88806 0.52077 0.04000
C 	C 	0.38175 0.71486 0.83188 0.07700
C 	C 	0.38198 0.70667 0.28551 -0.08200
Co	Co	0.38285 0.72147 0.00810 1.18500
O 	O 	0.41052 0.65676 0.01386 -0.41600
C 	C 	0.39411 0.61308 0.99084 0.34500
O 	O 	0.39806 0.73130 0.93335 -0.36100
C 	C 	0.41262 0.80990 0.04758 0.29300
O 	O 	0.43449 0.77057 0.05168 -0.37200
Co	Co	0.38654 0.70965 0.51011 1.18400
O 	O 	0.41465 0.64572 0.52110 -0.41700
C 	C 	0.39974 0.60086 0.49950 0.34300
O 	O 	0.40587 0.71591 0.43600 -0.36000
C 	C 	0.41319 0.80094 0.54492 0.29400
O 	O 	0.43570 0.76252 0.55272 -0.37000
Co	Co	0.74221 0.35252 0.99127 1.18300
O 	O 	0.79457 0.40385 0.95005 -0.37900
Co	Co	0.64783 0.25512 0.02089 1.18500
O 	O 	0.71289 0.28158 0.96426 -0.46000
O 	O 	0.61921 0.31911 0.02737 -0.42100
O 	O 	0.82330 0.34749 0.99003 -0.34600
C 	C 	0.63213 0.36159 0.00185 0.34900
O 	O 	0.63479 0.24593 0.94579 -0.36200
C 	C 	0.61885 0.16529 0.05800 0.29300
C 	C 	0.71830 0.32983 0.08273 0.31400
O 	O 	0.59568 0.20379 0.06218 -0.37300
O 	O 	0.65987 0.17756 0.03168 -0.34400
O 	O 	0.74147 0.37339 0.06505 -0.36200
O 	O 	0.71451 0.29312 0.05182 -0.46100
O 	O 	0.67382 0.37030 0.97396 -0.53800
C 	C 	0.83521 0.38516 0.96048 0.29800
C 	C 	0.67914 0.27086 0.93026 0.31400
H 	H 	0.67398 0.39345 0.94520 0.17500
Co	Co	0.75298 0.34510 0.49452 1.18300
O 	O 	0.80356 0.39777 0.45301 -0.37800
Co	Co	0.65466 0.25056 0.52452 1.18400
O 	O 	0.71101 0.28135 0.46218 -0.46200
O 	O 	0.63952 0.31752 0.54456 -0.42700
O 	O 	0.82978 0.33194 0.47810 -0.34600
C 	C 	0.64419 0.35735 0.51584 0.34200
O 	O 	0.62899 0.25545 0.45240 -0.36500
C 	C 	0.62103 0.15720 0.55142 0.29500
C 	C 	0.74194 0.30902 0.58363 0.32100
O 	O 	0.60360 0.19715 0.56509 -0.37400
O 	O 	0.65828 0.16996 0.52097 -0.34300
O 	O 	0.76742 0.35318 0.56951 -0.35800
O 	O 	0.72828 0.27752 0.54866 -0.45900
O 	O 	0.68951 0.37746 0.49550 -0.52400
C 	C 	0.84179 0.37346 0.45326 0.29800
C 	C 	0.67198 0.27957 0.43344 0.30800
H 	H 	0.69276 0.41117 0.47773 0.17400
C 	C 	0.72407 0.27546 0.73115 0.06700
N 	N 	0.77038 0.30090 0.71355 -0.11400
C 	C 	0.77746 0.31025 0.66608 0.08200
C 	C 	0.73665 0.29385 0.63397 -0.12400
C 	C 	0.68912 0.26709 0.65122 0.04300
C 	C 	0.68256 0.25802 0.69990 -0.08000
H 	H 	0.81458 0.33110 0.65339 0.03500
H 	H 	0.65655 0.25572 0.62737 0.01400
H 	H 	0.64491 0.23947 0.71343 0.05600
C 	C 	0.69469 0.26917 0.88010 -0.12200
C 	C 	0.67629 0.22587 0.85219 0.04700
C 	C 	0.68761 0.22672 0.80366 -0.08200
C 	C 	0.71624 0.27153 0.78313 0.06700
N 	N 	0.73560 0.31251 0.81132 -0.11400
C 	C 	0.72566 0.31213 0.85893 0.07300
H 	H 	0.65315 0.19181 0.86796 0.03600
H 	H 	0.67378 0.19310 0.78207 0.05600
H 	H 	0.74039 0.34587 0.88000 0.01100
C 	C 	0.70036 0.30469 0.23199 0.06700
N 	N 	0.72225 0.35177 0.21470 -0.11500
C 	C 	0.72884 0.36040 0.16709 0.07700
C 	C 	0.71368 0.32025 0.13448 -0.11900
C 	C 	0.69217 0.27134 0.15174 0.04000
C 	C 	0.68552 0.26346 0.20059 -0.07900
H 	H 	0.74559 0.39853 0.15462 0.03700
H 	H 	0.68041 0.23961 0.12745 0.02100
H 	H 	0.66892 0.22564 0.21400 0.05700
C 	C 	0.67869 0.28548 0.38141 -0.12100
C 	C 	0.63622 0.27073 0.35076 0.04200
C 	C 	0.64311 0.27661 0.30174 -0.08200
C 	C 	0.69251 0.29747 0.28358 0.06600
N 	N 	0.73315 0.31264 0.31393 -0.11400
C 	C 	0.72739 0.30691 0.36195 0.07300
H 	H 	0.59800 0.25484 0.36481 0.03600
H 	H 	0.61025 0.26549 0.27801 0.05600
H 	H 	0.76063 0.31909 0.38493 0.01900
C 	C 	0.49718 0.95457 0.55405 0.06500
N 	N 	0.51893 0.91460 0.56901 -0.11300
C 	C 	0.49210 0.86541 0.56761 0.06900
C 	C 	0.44111 0.85457 0.54953 -0.10000
C 	C 	0.41786 0.89525 0.53450 0.03400
C 	C 	0.44597 0.94539 0.53658 -0.07600
H 	H 	0.51072 0.83468 0.57991 0.04000
H 	H 	0.42847 0.97678 0.52396 0.05500
C 	C 	0.58918 0.10498 0.55370 -0.10200
C 	C 	0.53972 0.09658 0.57481 0.03400
C 	C 	0.50929 0.04744 0.57501 -0.07800
C 	C 	0.52859 0.00683 0.55414 0.06600
N 	N 	0.57736 0.01540 0.53500 -0.11300
C 	C 	0.60766 0.06314 0.53422 0.07000
H 	H 	0.52474 0.12800 0.59077 0.03800
H 	H 	0.47114 0.04088 0.59146 0.05500
H 	H 	0.64608 0.06852 0.51843 0.04000
C 	C 	0.99748 0.45491 0.43718 0.06800
N 	N 	0.95651 0.47493 0.42090 -0.11300
C 	C 	0.90668 0.44854 0.42419 0.07100
C 	C 	0.89618 0.39990 0.44563 -0.10200
C 	C 	0.93789 0.37815 0.46164 0.03400
C 	C 	0.98869 0.40578 0.45764 -0.07400
H 	H 	0.87514 0.46575 0.41083 0.03800
H 	H 	0.93100 0.34053 0.47799 0.04200
C 	C 	0.49451 0.48777 0.51276 0.06600
N 	N 	0.51498 0.53831 0.51965 -0.11700
C 	C 	0.48508 0.57490 0.51634 0.08100
C 	C 	0.43175 0.56102 0.50604 -0.13100
C 	C 	0.40966 0.50899 0.50069 0.04000
C 	C 	0.44118 0.47223 0.50369 -0.08300
H 	H 	0.50299 0.61484 0.52082 0.03300
H 	H 	0.42441 0.43202 0.49889 0.05500
C 	C 	0.60222 0.38709 0.51552 -0.13400
C 	C 	0.57458 0.39173 0.47366 0.04000
C 	C 	0.53745 0.42311 0.47302 -0.08200
C 	C 	0.52875 0.45001 0.51431 0.06500
N 	N 	0.55577 0.44458 0.55488 -0.11700
C 	C 	0.59157 0.41348 0.55642 0.08200
H 	H 	0.58236 0.37169 0.44161 0.02100
H 	H 	0.51662 0.42764 0.44042 0.05500
H 	H 	0.61271 0.41031 0.58912 0.03000
C 	C 	0.50095 0.96070 0.06300 0.06500
N 	N 	0.45481 0.95258 0.03901 -0.11300
C 	C 	0.42506 0.90480 0.03490 0.07000
C 	C 	0.44153 0.86252 0.05572 -0.10200
C 	C 	0.48760 0.87064 0.08244 0.03400
C 	C 	0.51747 0.91979 0.08605 -0.07800
H 	H 	0.38911 0.89964 0.01482 0.04000
H 	H 	0.50061 0.83886 0.09981 0.03800
H 	H 	0.55332 0.92605 0.10639 0.05500
C 	C 	0.59045 0.11191 0.06253 -0.10300
C 	C 	0.61420 0.07082 0.04976 0.03400
C 	C 	0.58539 0.02096 0.05069 -0.07600
C 	C 	0.53296 0.01252 0.06474 0.06600
N 	N 	0.51078 0.05285 0.07785 -0.11400
C 	C 	0.53829 0.10175 0.07759 0.06900
H 	H 	0.65453 0.07748 0.03847 0.04000
H 	H 	0.60330 0.98923 0.03970 0.05600
H 	H 	0.51930 0.13283 0.08827 0.03800
C 	C 	0.98862 0.47279 0.94681 0.06800
N 	N 	0.94643 0.49293 0.93404 -0.11300
C 	C 	0.89716 0.46523 0.93759 0.07100
C 	C 	0.88863 0.41497 0.95557 -0.10200
C 	C 	0.93154 0.39363 0.96892 0.03500
C 	C 	0.98169 0.42260 0.96469 -0.07400
H 	H 	0.86463 0.48248 0.92685 0.03800
H 	H 	0.92610 0.35484 0.98263 0.04100
C 	C 	0.49111 0.50184 0.99560 0.06500
N 	N 	0.50967 0.55016 0.97927 -0.11600
C 	C 	0.47899 0.58615 0.97735 0.08300
C 	C 	0.42703 0.57405 0.99227 -0.13700
C 	C 	0.40717 0.52484 0.00937 0.04400
C 	C 	0.43941 0.48868 0.01167 -0.08200
H 	H 	0.49495 0.62417 0.96407 0.02700
H 	H 	0.42464 0.45108 0.02648 0.05500
C 	C 	0.59529 0.39702 0.00013 -0.13300
C 	C 	0.54344 0.37920 0.98710 0.04700
C 	C 	0.50892 0.41319 0.98553 -0.08400
C 	C 	0.52636 0.46473 0.99821 0.06500
N 	N 	0.57721 0.48136 0.01043 -0.11400
C 	C 	0.61167 0.44886 0.01158 0.07700
H 	H 	0.53017 0.33935 0.97750 0.02700
H 	H 	0.46922 0.39981 0.97381 0.05400
H 	H 	0.65174 0.46328 0.02166 0.02200
H 	H 	0.42038 0.73337 0.84302 0.03600
C 	C 	0.39115 0.71117 0.33431 0.04300
H 	H 	0.42849 0.73144 0.34709 0.03800
H 	H 	0.41231 0.72309 0.26070 0.05600
