data_crystal

_cell_length_a 26.06735
_cell_length_b 26.27781
_cell_length_c 33.09539
_cell_angle_alpha 95.54969
_cell_angle_beta  95.55202
_cell_angle_gamma 125.63728

_symmetry_space_group_name_	'P 1'
_symmetry_space_group_name_H-M	'P 1'

loop_
_symmetry_equiv_pos_as_xyz
  x,y,z

loop_
_atom_site_label
_atom_site_type_symbol
_atom_site_fract_x
_atom_site_fract_y
_atom_site_fract_z
_atom_site_charge
C 	C 	0.96929 0.04978 0.00394 0.11000
N 	N 	0.03417 0.08332 0.00799 -0.13900
C 	C 	0.06111 0.05203 0.00525 0.10900
N 	N 	0.02321 0.98738 0.99847 -0.14000
C 	C 	0.95844 0.95369 0.99394 0.11200
N 	N 	0.93158 0.98499 0.99653 -0.13900
C 	C 	0.92642 0.97358 0.44036 0.10800
N 	N 	0.89169 0.90930 0.43773 -0.13700
C 	C 	0.92188 0.88107 0.43789 0.10900
N 	N 	0.98659 0.91710 0.44089 -0.13600
C 	C 	0.02150 0.98123 0.44412 0.10600
N 	N 	0.99134 0.00939 0.44383 -0.13600
Cu	Cu	0.64513 0.26770 0.01712 0.92600
Cu	Cu	0.67529 0.25161 0.92468 0.87000
Cu	Cu	0.66881 0.35792 0.95680 0.89700
Cu	Cu	0.64905 0.38893 0.04142 0.89400
C 	C 	0.68633 0.33397 0.10116 0.25800
O 	O 	0.55362 0.23170 0.02331 -0.36200
C 	C 	0.63770 0.30215 0.86717 0.25900
O 	O 	0.69465 0.36531 0.01452 -0.63900
O 	O 	0.62526 0.26505 0.95727 -0.64000
O 	O 	0.68415 0.22120 0.01377 -0.37400
O 	O 	0.74390 0.27635 0.96733 -0.44100
O 	O 	0.65295 0.35602 0.09265 -0.37900
O 	O 	0.71592 0.44919 0.96068 -0.38100
C 	C 	0.71340 0.48728 0.98826 0.28200
C 	C 	0.52550 0.25638 0.00891 0.27400
O 	O 	0.56041 0.31347 0.99983 -0.39000
O 	O 	0.67684 0.46533 0.01652 -0.39500
O 	O 	0.67754 0.28677 0.07537 -0.35200
C 	C 	0.73370 0.24133 0.99556 0.28000
O 	O 	0.65797 0.35204 0.89592 -0.37600
O 	O 	0.62690 0.24979 0.87699 -0.41400
H 	H 	0.74178 0.39368 0.02451 0.16200
H 	H 	0.57887 0.23787 0.94497 0.17200
Cu	Cu	0.72708 0.31311 0.44862 0.92700
Cu	Cu	0.72726 0.27159 0.53872 0.87000
Cu	Cu	0.62301 0.27768 0.49984 0.89700
Cu	Cu	0.60438 0.30553 0.41425 0.89400
C 	C 	0.69719 0.31237 0.36397 0.26300
O 	O 	0.76598 0.40580 0.44696 -0.36700
C 	C 	0.66623 0.30374 0.59094 0.26000
O 	O 	0.62670 0.26051 0.44295 -0.63600
O 	O 	0.71827 0.32439 0.50672 -0.64300
O 	O 	0.77300 0.27348 0.45343 -0.37200
O 	O 	0.70912 0.20797 0.49480 -0.43900
O 	O 	0.64141 0.30283 0.36420 -0.37600
O 	O 	0.53026 0.22764 0.48906 -0.38000
C 	C 	0.49572 0.23133 0.45913 0.28000
C 	C 	0.73474 0.42988 0.45404 0.27500
O 	O 	0.67486 0.39261 0.45880 -0.38900
O 	O 	0.52331 0.27439 0.43532 -0.39200
O 	O 	0.71856 0.29154 0.39055 -0.36000
C 	C 	0.74925 0.22172 0.46935 0.27800
O 	O 	0.61808 0.27928 0.55936 -0.37900
O 	O 	0.72081 0.31406 0.58572 -0.41200
H 	H 	0.60114 0.21449 0.43100 0.16500
H 	H 	0.74276 0.36940 0.52087 0.17300
C 	C 	0.69103 0.32582 0.69859 0.07400
C 	C 	0.71624 0.36052 0.73930 -0.08300
C 	C 	0.68587 0.32774 0.77047 0.00600
C 	C 	0.62778 0.26755 0.76106 0.07300
C 	C 	0.59750 0.23700 0.71983 -0.08300
C 	C 	0.63322 0.26532 0.68919 0.00600
N 	N 	0.70342 0.35271 0.66488 -0.15200
C 	C 	0.65478 0.30875 0.63326 -0.00100
C 	C 	0.60848 0.25496 0.64797 -0.04500
N 	N 	0.59643 0.25627 0.79282 -0.15200
C 	C 	0.63538 0.30823 0.82345 -0.00200
C 	C 	0.69008 0.35510 0.80956 -0.04600
H 	H 	0.75565 0.41096 0.74611 0.05200
H 	H 	0.54797 0.19489 0.71196 0.05100
H 	H 	0.57220 0.20838 0.62903 0.04200
H 	H 	0.73449 0.39500 0.82930 0.04100
H 	H 	0.74881 0.39147 0.66153 0.08300
H 	H 	0.55895 0.21096 0.79697 0.08400
C 	C 	0.76472 0.34626 0.20020 0.07500
C 	C 	0.76202 0.31231 0.23125 -0.08200
C 	C 	0.76794 0.33830 0.27203 0.01000
C 	C 	0.76486 0.38938 0.28041 0.07600
C 	C 	0.75859 0.41777 0.24838 -0.08400
C 	C 	0.76436 0.39900 0.20896 0.01200
N 	N 	0.74052 0.31904 0.15990 -0.15100
C 	C 	0.72456 0.35396 0.14299 0.00200
C 	C 	0.73829 0.40378 0.17240 -0.05100
N 	N 	0.74135 0.38731 0.31517 -0.15300
C 	C 	0.72950 0.33541 0.32896 0.00300
C 	C 	0.74517 0.30350 0.30317 -0.04100
H 	H 	0.75221 0.26603 0.22365 0.05300
H 	H 	0.74622 0.45043 0.25345 0.05100
H 	H 	0.71469 0.42664 0.17036 0.04500
H 	H 	0.72438 0.25335 0.30036 0.04900
H 	H 	0.72017 0.27146 0.14786 0.09400
H 	H 	0.71973 0.40930 0.32277 0.08100
C 	C 	0.88756 0.67992 0.38596 -0.05100
C 	C 	0.86481 0.61790 0.39011 -0.03900
C 	C 	0.82690 0.58900 0.41975 0.01100
C 	C 	0.81116 0.62248 0.44511 -0.00200
C 	C 	0.83394 0.68488 0.44086 -0.02200
C 	C 	0.87272 0.71385 0.41142 0.03300
C 	C 	0.81885 0.71869 0.46654 0.03300
C 	C 	0.78024 0.68945 0.49582 -0.05100
C 	C 	0.75737 0.62735 0.49992 -0.03800
C 	C 	0.77281 0.59366 0.47479 0.01100
C 	C 	0.74994 0.53135 0.47872 -0.02600
C 	C 	0.76497 0.49764 0.45316 -0.06500
C 	C 	0.80398 0.52681 0.42403 -0.02700
C 	C 	0.89768 0.77697 0.40859 -0.06000
C 	C 	0.88505 0.81169 0.43534 0.00600
C 	C 	0.84414 0.78193 0.46345 -0.06000
H 	H 	0.91713 0.70171 0.36314 0.04100
H 	H 	0.87682 0.59244 0.37029 0.03800
H 	H 	0.76822 0.71492 0.51563 0.04100
H 	H 	0.72776 0.60555 0.52272 0.03700
H 	H 	0.71999 0.50883 0.50129 0.04000
H 	H 	0.81484 0.50045 0.40394 0.04500
H 	H 	0.92865 0.79986 0.38656 0.05000
H 	H 	0.83438 0.80879 0.48403 0.04900
C 	C 	0.73807 0.03092 0.48660 -0.03800
C 	C 	0.76285 0.99600 0.48257 -0.05300
C 	C 	0.81444 0.01637 0.46189 0.03400
C 	C 	0.84047 0.07163 0.44445 -0.02300
C 	C 	0.81564 0.10691 0.44864 -0.00100
C 	C 	0.76464 0.08677 0.47009 0.00900
C 	C 	0.84265 0.16297 0.43203 0.01000
C 	C 	0.89333 0.18258 0.41057 -0.03800
C 	C 	0.91788 0.14748 0.40634 -0.05100
C 	C 	0.89216 0.09236 0.42356 0.03400
C 	C 	0.91840 0.05854 0.42090 -0.06100
C 	C 	0.89400 0.00466 0.43946 0.00700
C 	C 	0.84124 0.98301 0.45925 -0.06200
C 	C 	0.74164 0.12330 0.47552 -0.02800
C 	C 	0.76986 0.18045 0.46019 -0.06800
C 	C 	0.81956 0.19942 0.43776 -0.02500
H 	H 	0.69859 0.01483 0.50294 0.03400
H 	H 	0.74222 0.95341 0.49585 0.04000
H 	H 	0.91416 0.22533 0.39745 0.03800
H 	H 	0.95736 0.16358 0.39001 0.04200
H 	H 	0.95829 0.07453 0.40493 0.05000
H 	H 	0.82236 0.94146 0.47354 0.05000
H 	H 	0.70255 0.10781 0.49216 0.03800
H 	H 	0.84098 0.24297 0.42547 0.04900
C 	C 	0.29334 0.04997 0.49080 -0.03800
C 	C 	0.22710 0.01559 0.48934 -0.05000
C 	C 	0.19288 0.03553 0.47013 0.03300
C 	C 	0.22559 0.09067 0.45248 -0.02200
C 	C 	0.29233 0.12542 0.45408 -0.00100
C 	C 	0.32628 0.10486 0.47321 0.01100
C 	C 	0.32505 0.18057 0.43645 0.01100
C 	C 	0.29086 0.20062 0.41735 -0.03800
C 	C 	0.22451 0.16597 0.41561 -0.05100
C 	C 	0.19152 0.11089 0.43302 0.03300
C 	C 	0.12485 0.07548 0.43088 -0.06100
C 	C 	0.09203 0.02012 0.44810 0.00700
C 	C 	0.12634 0.00073 0.46810 -0.06100
C 	C 	0.39266 0.13936 0.47447 -0.02500
C 	C 	0.42556 0.19463 0.45714 -0.06000
C 	C 	0.39151 0.21503 0.43812 -0.02600
H 	H 	0.31900 0.03385 0.50563 0.03700
H 	H 	0.20238 0.97330 0.50303 0.04100
H 	H 	0.31559 0.24300 0.40375 0.03700
H 	H 	0.19881 0.18195 0.40064 0.04100
H 	H 	0.09839 0.09029 0.41525 0.05000
H 	H 	0.10121 0.95859 0.48195 0.05100
H 	H 	0.41864 0.12313 0.48874 0.04300
H 	H 	0.41676 0.25785 0.42497 0.04400
C 	C 	0.76515 0.75068 0.01445 -0.05200
C 	C 	0.73069 0.68512 0.01351 -0.03800
C 	C 	0.75376 0.65199 0.99779 0.01100
C 	C 	0.81113 0.68472 0.98203 -0.00100
C 	C 	0.84564 0.75067 0.98275 -0.02300
C 	C 	0.82298 0.78390 0.99953 0.03400
C 	C 	0.90347 0.78360 0.96750 0.03400
C 	C 	0.92584 0.75019 0.95100 -0.05100
C 	C 	0.89175 0.68473 0.95049 -0.03700
C 	C 	0.83471 0.65179 0.96632 0.01100
C 	C 	0.80169 0.58668 0.96743 -0.02500
C 	C 	0.74534 0.55436 0.98410 -0.06100
C 	C 	0.72083 0.58688 0.99842 -0.02400
C 	C 	0.85911 0.85010 0.00206 -0.06100
C 	C 	0.91769 0.88335 0.98788 0.00600
C 	C 	0.93891 0.84969 0.96973 -0.06100
H 	H 	0.74710 0.77570 0.02713 0.04100
H 	H 	0.68641 0.66027 0.02545 0.03700
H 	H 	0.97004 0.77502 0.93897 0.04100
H 	H 	0.91003 0.65980 0.93809 0.03600
H 	H 	0.82053 0.56161 0.95628 0.04200
H 	H 	0.67655 0.56163 0.01040 0.04300
H 	H 	0.84260 0.87590 0.01601 0.05000
H 	H 	0.98331 0.87504 0.95788 0.05200
C 	C 	0.95928 0.22648 0.97935 -0.04800
C 	C 	0.92652 0.25383 0.97873 -0.04000
C 	C 	0.86851 0.22495 0.99340 0.01000
C 	C 	0.84412 0.16908 0.00981 -0.00300
C 	C 	0.87721 0.14166 0.01056 -0.02200
C 	C 	0.93456 0.17002 0.99477 0.03000
C 	C 	0.85215 0.08508 0.02622 0.03200
C 	C 	0.79496 0.05707 0.04182 -0.05100
C 	C 	0.76199 0.08417 0.04094 -0.03800
C 	C 	0.78583 0.13972 0.02452 0.01000
C 	C 	0.75119 0.16518 0.02156 -0.02600
C 	C 	0.77412 0.21948 0.00369 -0.07000
C 	C 	0.83376 0.25029 0.99082 -0.02700
C 	C 	0.96566 0.14079 0.99373 -0.05600
C 	C 	0.93975 0.08341 0.00827 0.00400
C 	C 	0.88376 0.05646 0.02528 -0.05900
H 	H 	0.00355 0.24894 0.96745 0.03800
H 	H 	0.94590 0.29704 0.96633 0.03500
H 	H 	0.77557 0.01384 0.05420 0.04100
H 	H 	0.71752 0.06152 0.05262 0.03700
H 	H 	0.70561 0.14170 0.03194 0.04600
H 	H 	0.85237 0.29310 0.97801 0.03900
H 	H 	0.00888 0.16167 0.98067 0.04800
H 	H 	0.86451 0.01291 0.03731 0.05000
C 	C 	0.32644 0.23094 0.95737 -0.03900
C 	C 	0.26231 0.20530 0.95880 -0.05100
C 	C 	0.22932 0.16106 0.98436 0.03300
C 	C 	0.26122 0.14272 0.00884 -0.02200
C 	C 	0.32581 0.16861 0.00745 -0.00300
C 	C 	0.35849 0.21285 0.98161 0.01200
C 	C 	0.35770 0.15032 0.03197 0.01200
C 	C 	0.32471 0.10607 0.05753 -0.03800
C 	C 	0.26045 0.08006 0.05872 -0.05100
C 	C 	0.22836 0.09801 0.03439 0.03300
C 	C 	0.16350 0.07089 0.03468 -0.06000
C 	C 	0.13115 0.08777 0.00948 0.00500
C 	C 	0.16446 0.13384 0.98507 -0.06000
C 	C 	0.42303 0.23909 0.98073 -0.02800
C 	C 	0.45557 0.22241 0.00605 -0.06400
C 	C 	0.42242 0.17718 0.03108 -0.02700
H 	H 	0.35119 0.26498 0.93746 0.03700
H 	H 	0.23826 0.21968 0.93986 0.04000
H 	H 	0.34879 0.09175 0.07652 0.03800
H 	H 	0.23560 0.04578 0.07848 0.04100
H 	H 	0.13774 0.03570 0.05379 0.05000
H 	H 	0.13932 0.14668 0.96558 0.04900
H 	H 	0.44823 0.27316 0.96087 0.04200
H 	H 	0.44739 0.16424 0.05063 0.04800
