data_crystal

_cell_length_a 26.23112
_cell_length_b 26.48994
_cell_length_c 34.92018
_cell_angle_alpha 95.50133
_cell_angle_beta  95.50043
_cell_angle_gamma 125.85680

_symmetry_space_group_name_	'P 1'
_symmetry_space_group_name_H-M	'P 1'

loop_
_symmetry_equiv_pos_as_xyz
  x,y,z

loop_
_atom_site_label
_atom_site_type_symbol
_atom_site_fract_x
_atom_site_fract_y
_atom_site_fract_z
_atom_site_charge
C 	C 	0.95114 0.00412 0.99167 0.04600
C 	C 	0.01388 0.03813 0.98455 -0.09300
C 	C 	0.04666 0.01123 0.98597 0.05200
C 	C 	0.01518 0.94881 0.99217 -0.09900
C 	C 	0.95301 0.91519 0.00030 0.04700
C 	C 	0.92129 0.94323 0.00033 -0.09300
H 	H 	0.03724 0.08549 0.97827 0.04800
H 	H 	0.03927 0.92675 0.99110 0.05000
H 	H 	0.87316 0.91738 0.00649 0.05100
C 	C 	0.94503 0.02233 0.45736 0.04900
C 	C 	0.01199 0.05856 0.46301 -0.09300
C 	C 	0.04207 0.02926 0.46720 0.05100
C 	C 	0.00520 0.96364 0.46557 -0.09600
C 	C 	0.93828 0.92715 0.45968 0.04600
C 	C 	0.90813 0.95647 0.45544 -0.09700
H 	H 	0.04057 0.10941 0.46440 0.05100
H 	H 	0.02851 0.94100 0.46882 0.05100
H 	H 	0.85635 0.92832 0.45095 0.05000
Cu	Cu	0.62476 0.21849 0.99635 0.92600
Cu	Cu	0.66472 0.22062 0.90957 0.86900
Cu	Cu	0.67330 0.32915 0.95286 0.89600
Cu	Cu	0.64050 0.34180 0.03241 0.89200
C 	C 	0.65487 0.26166 0.08018 0.32200
O 	O 	0.53358 0.18548 0.99806 -0.37500
C 	C 	0.64388 0.29433 0.86623 0.32500
O 	O 	0.68423 0.31798 0.00545 -0.63900
O 	O 	0.61714 0.23413 0.94244 -0.64200
O 	O 	0.65537 0.16576 0.98773 -0.38100
O 	O 	0.72433 0.22786 0.94935 -0.44700
O 	O 	0.63198 0.29442 0.07552 -0.39900
O 	O 	0.73157 0.42062 0.96728 -0.38400
C 	C 	0.72925 0.45324 0.99725 0.28200
C 	C 	0.51284 0.21914 0.99172 0.29300
O 	O 	0.55348 0.27873 0.98875 -0.39400
O 	O 	0.67994 0.42530 0.01538 -0.39600
O 	O 	0.64538 0.21967 0.05088 -0.37200
C 	C 	0.70537 0.18472 0.97137 0.29500
O 	O 	0.67589 0.34004 0.89766 -0.40300
O 	O 	0.62789 0.23721 0.86752 -0.43200
H 	H 	0.72950 0.33997 0.01791 0.15900
H 	H 	0.57288 0.21509 0.92930 0.17000
Cu	Cu	0.73830 0.35659 0.44938 0.92600
Cu	Cu	0.75861 0.32136 0.53439 0.86700
Cu	Cu	0.64730 0.32140 0.50759 0.89600
Cu	Cu	0.61172 0.34397 0.43039 0.89200
C 	C 	0.67559 0.32656 0.36926 0.32500
O 	O 	0.76829 0.44626 0.44686 -0.36800
C 	C 	0.70544 0.35030 0.59183 0.32500
O 	O 	0.64031 0.30061 0.45233 -0.64100
O 	O 	0.74100 0.37058 0.50651 -0.64200
O 	O 	0.78988 0.32344 0.44898 -0.37900
O 	O 	0.73777 0.25869 0.49165 -0.44700
O 	O 	0.64673 0.35105 0.38115 -0.40000
O 	O 	0.55539 0.26895 0.50471 -0.38700
C 	C 	0.51437 0.26888 0.47952 0.29800
C 	C 	0.74085 0.46922 0.46298 0.29100
O 	O 	0.68428 0.43036 0.47188 -0.39700
O 	O 	0.53352 0.30753 0.45406 -0.40100
O 	O 	0.71943 0.32942 0.39371 -0.37400
C 	C 	0.77366 0.27417 0.46490 0.29600
O 	O 	0.65441 0.32950 0.56515 -0.39600
O 	O 	0.75844 0.36332 0.58170 -0.43700
H 	H 	0.61395 0.25459 0.44154 0.16000
H 	H 	0.76619 0.41554 0.51961 0.16800
C 	C 	0.63554 0.31749 0.68334 0.00300
C 	C 	0.61225 0.34105 0.70833 -0.04200
C 	C 	0.60256 0.32403 0.74516 -0.04100
C 	C 	0.61553 0.28281 0.75701 0.00200
C 	C 	0.63707 0.25794 0.73155 -0.04300
C 	C 	0.64723 0.27531 0.69496 -0.04100
C 	C 	0.60487 0.26380 0.79552 0.00800
C 	C 	0.63526 0.30960 0.83011 -0.17500
C 	C 	0.64511 0.33479 0.64432 0.00900
C 	C 	0.70229 0.35509 0.63159 -0.17500
H 	H 	0.60203 0.37275 0.69935 0.03500
H 	H 	0.58449 0.34236 0.76426 0.03500
H 	H 	0.64630 0.22540 0.74023 0.03000
H 	H 	0.66362 0.25552 0.67549 0.03200
H 	H 	0.58062 0.21403 0.79698 0.03000
H 	H 	0.65605 0.35874 0.82857 0.08100
H 	H 	0.60657 0.32968 0.62515 0.03800
H 	H 	0.74350 0.36908 0.65288 0.07600
C 	C 	0.70976 0.29485 0.27087 0.00500
C 	C 	0.76103 0.34547 0.25726 -0.04100
C 	C 	0.75643 0.34758 0.21730 -0.04100
C 	C 	0.70115 0.29833 0.19057 0.00300
C 	C 	0.65156 0.24565 0.20394 -0.04000
C 	C 	0.65578 0.24402 0.24398 -0.04200
C 	C 	0.69142 0.30637 0.14997 0.01000
C 	C 	0.67538 0.26004 0.11815 -0.17100
C 	C 	0.70957 0.29878 0.31321 0.00900
C 	C 	0.66852 0.30906 0.32897 -0.16800
H 	H 	0.80311 0.38466 0.27781 0.03800
H 	H 	0.79499 0.38837 0.20725 0.03300
H 	H 	0.60855 0.20744 0.18357 0.03900
H 	H 	0.61617 0.20444 0.25422 0.03600
H 	H 	0.69761 0.34940 0.14498 0.02400
H 	H 	0.67948 0.22251 0.12300 0.08400
H 	H 	0.74676 0.30166 0.33231 0.04100
H 	H 	0.63314 0.30803 0.30919 0.07800
C 	C 	0.86279 0.75321 0.42720 -0.07400
C 	C 	0.84352 0.73016 0.46158 -0.01300
C 	C 	0.85033 0.77078 0.49432 0.04000
C 	C 	0.87904 0.83473 0.49268 -0.06200
C 	C 	0.89994 0.85817 0.45866 -0.03400
C 	C 	0.88971 0.81665 0.42518 0.05300
C 	C 	0.81642 0.66332 0.46308 0.00900
C 	C 	0.82889 0.74663 0.53136 -0.17900
H 	H 	0.88660 0.86669 0.51822 0.03800
C 	C 	0.90962 0.84033 0.38779 -0.18500
H 	H 	0.85686 0.72168 0.40202 0.04400
C 	C 	0.75118 0.61406 0.44775 0.01900
C 	C 	0.72736 0.55091 0.44802 -0.01200
C 	C 	0.76740 0.53636 0.46411 -0.11200
C 	C 	0.83217 0.58591 0.48085 0.09600
C 	C 	0.85649 0.64897 0.47936 -0.09600
C 	C 	0.70721 0.62853 0.43030 -0.16800
H 	H 	0.67767 0.51289 0.43527 0.02600
C 	C 	0.87557 0.57200 0.50009 -0.20000
H 	H 	0.90654 0.68702 0.49115 0.04900
H 	H 	0.89309 0.86901 0.38043 0.06300
H 	H 	0.88851 0.80045 0.36270 0.05900
H 	H 	0.96258 0.86993 0.39133 0.06300
H 	H 	0.85956 0.73469 0.54516 0.06100
H 	H 	0.77824 0.70366 0.52463 0.06200
H 	H 	0.83212 0.78256 0.55289 0.05700
H 	H 	0.65655 0.58555 0.42286 0.05500
H 	H 	0.72162 0.64732 0.40309 0.06000
H 	H 	0.70957 0.66421 0.45149 0.05900
H 	H 	0.88846 0.55125 0.47736 0.07200
H 	H 	0.85150 0.53841 0.52026 0.05900
H 	H 	0.92052 0.61575 0.51769 0.06000
C 	C 	0.88431 0.22776 0.45478 -0.09600
C 	C 	0.84003 0.16149 0.44625 0.00800
C 	C 	0.77376 0.13274 0.43905 0.01800
C 	C 	0.75281 0.17078 0.44289 -0.01300
C 	C 	0.79705 0.23698 0.45367 -0.11700
C 	C 	0.86346 0.26590 0.45877 0.09100
C 	C 	0.86350 0.12253 0.44806 -0.01400
C 	C 	0.72531 0.06153 0.42933 -0.16800
H 	H 	0.70194 0.14872 0.43873 0.03100
C 	C 	0.91221 0.33705 0.46946 -0.19800
H 	H 	0.93515 0.24959 0.45951 0.04800
C 	C 	0.88183 0.10604 0.41519 0.04200
C 	C 	0.90674 0.07163 0.41840 -0.06200
C 	C 	0.91371 0.05376 0.45393 -0.03200
C 	C 	0.89473 0.06970 0.48668 0.05000
C 	C 	0.86940 0.10368 0.48337 -0.07300
C 	C 	0.87669 0.12663 0.37711 -0.18000
H 	H 	0.92174 0.05962 0.39342 0.04100
C 	C 	0.90207 0.05119 0.52522 -0.17800
H 	H 	0.85495 0.11621 0.50845 0.04100
H 	H 	0.96197 0.35170 0.47463 0.05900
H 	H 	0.90508 0.35551 0.49673 0.05000
H 	H 	0.90749 0.35915 0.44526 0.07500
H 	H 	0.72581 0.04115 0.45558 0.05900
H 	H 	0.73666 0.04142 0.40516 0.06000
H 	H 	0.67608 0.04681 0.41972 0.05600
H 	H 	0.88847 0.10606 0.35346 0.05900
H 	H 	0.91041 0.17910 0.38111 0.06300
H 	H 	0.82712 0.11085 0.36734 0.06300
H 	H 	0.88753 0.06949 0.54836 0.05600
H 	H 	0.95287 0.07086 0.53539 0.06100
H 	H 	0.87160 0.99873 0.52170 0.05800
C 	C 	0.21675 0.11740 0.51318 -0.07400
C 	C 	0.24554 0.13279 0.48013 -0.01300
C 	C 	0.20760 0.11553 0.44287 0.04200
C 	C 	0.14117 0.08251 0.43925 -0.06100
C 	C 	0.11238 0.06710 0.47228 -0.03400
C 	C 	0.15048 0.08561 0.50966 0.05300
C 	C 	0.31574 0.16796 0.48481 0.00900
C 	C 	0.23767 0.13151 0.40694 -0.17900
H 	H 	0.11167 0.06822 0.41064 0.04100
C 	C 	0.12053 0.07057 0.54567 -0.18500
H 	H 	0.24611 0.13078 0.54169 0.04400
C 	C 	0.35695 0.23490 0.49332 0.01900
C 	C 	0.42247 0.26723 0.49307 -0.01300
C 	C 	0.44730 0.23366 0.48463 -0.11000
C 	C 	0.40658 0.16667 0.47800 0.09400
C 	C 	0.34104 0.13433 0.47852 -0.09600
C 	C 	0.33096 0.27191 0.50159 -0.16900
H 	H 	0.45407 0.31866 0.49869 0.03500
C 	C 	0.43239 0.12956 0.46951 -0.20000
H 	H 	0.30929 0.08291 0.47274 0.04900
H 	H 	0.08988 0.08663 0.54697 0.06300
H 	H 	0.15740 0.09472 0.57296 0.06000
H 	H 	0.09090 0.01865 0.54486 0.06400
H 	H 	0.25950 0.10663 0.40186 0.06300
H 	H 	0.27525 0.18346 0.41089 0.06200
H 	H 	0.20187 0.11696 0.38033 0.05800
H 	H 	0.36967 0.32382 0.50891 0.05600
H 	H 	0.30598 0.25798 0.52684 0.06100
H 	H 	0.29677 0.26232 0.47547 0.05900
H 	H 	0.46770 0.14015 0.49525 0.07100
H 	H 	0.45591 0.14234 0.44361 0.05900
H 	H 	0.39378 0.07761 0.46311 0.06200
C 	C 	0.92058 0.77056 0.03704 -0.07400
C 	C 	0.86396 0.72184 0.01110 -0.01000
C 	C 	0.83146 0.73696 0.98572 0.04000
C 	C 	0.86147 0.80035 0.98211 -0.06600
C 	C 	0.91977 0.84919 0.00680 -0.02900
C 	C 	0.94682 0.83427 0.03656 0.05000
C 	C 	0.83922 0.65515 0.01051 0.01000
C 	C 	0.76511 0.68596 0.96250 -0.17900
H 	H 	0.83946 0.81171 0.96013 0.04000
C 	C 	0.00352 0.88560 0.06763 -0.18200
H 	H 	0.94398 0.75888 0.05775 0.04300
C 	C 	0.84273 0.62049 0.97891 0.01900
C 	C 	0.80719 0.55444 0.97498 -0.02400
C 	C 	0.77408 0.52371 0.00446 -0.09900
C 	C 	0.78181 0.56095 0.03973 0.09100
C 	C 	0.81062 0.62565 0.04133 -0.09400
C 	C 	0.88362 0.65342 0.94923 -0.16900
H 	H 	0.80502 0.52706 0.94887 0.04500
C 	C 	0.76169 0.53303 0.07595 -0.19400
H 	H 	0.81132 0.65317 0.06674 0.04900
H 	H 	0.04863 0.90301 0.05692 0.06100
H 	H 	0.00432 0.86720 0.09479 0.05900
H 	H 	0.00135 0.92582 0.07566 0.06300
H 	H 	0.73511 0.65130 0.98081 0.06400
H 	H 	0.76783 0.66077 0.93646 0.06100
H 	H 	0.74061 0.70642 0.95233 0.05800
H 	H 	0.89486 0.62370 0.93334 0.05600
H 	H 	0.92991 0.69880 0.96387 0.06000
H 	H 	0.85819 0.66317 0.92751 0.05800
H 	H 	0.78983 0.57027 0.10282 0.06000
H 	H 	0.77024 0.49696 0.07846 0.05500
H 	H 	0.71024 0.51128 0.07511 0.06600
C 	C 	0.86121 0.06621 0.95388 -0.07200
C 	C 	0.84950 0.08498 0.98881 -0.01800
C 	C 	0.87067 0.07668 0.02475 0.04600
C 	C 	0.90505 0.05138 0.02526 -0.06000
C 	C 	0.91660 0.03240 0.99029 -0.03500
C 	C 	0.89331 0.03857 0.95419 0.05100
C 	C 	0.81304 0.11133 0.98724 0.00900
C 	C 	0.85535 0.09325 0.06236 -0.18100
H 	H 	0.92225 0.04575 0.05283 0.04000
C 	C 	0.90295 0.01626 0.91604 -0.17900
H 	H 	0.84455 0.07245 0.92636 0.04200
C 	C 	0.84477 0.17718 0.99035 0.01700
C 	C 	0.80872 0.20049 0.98655 -0.01500
C 	C 	0.74153 0.15885 0.97853 -0.11800
C 	C 	0.70980 0.09269 0.97481 0.09300
C 	C 	0.74601 0.06978 0.98024 -0.09700
C 	C 	0.91685 0.22239 0.99622 -0.17200
H 	H 	0.83297 0.25109 0.98919 0.03200
C 	C 	0.63770 0.04626 0.96450 -0.19300
H 	H 	0.72200 0.01927 0.97799 0.04900
H 	H 	0.95402 0.04878 0.91342 0.06100
H 	H 	0.87345 0.01520 0.89046 0.05700
H 	H 	0.88874 0.96743 0.91461 0.06000
H 	H 	0.80264 0.06379 0.06038 0.06600
H 	H 	0.87526 0.14411 0.06778 0.06300
H 	H 	0.87597 0.08466 0.08797 0.05900
H 	H 	0.93443 0.27257 0.99977 0.05400
H 	H 	0.93324 0.21213 0.97045 0.05900
H 	H 	0.93881 0.21729 0.02292 0.06200
H 	H 	0.61900 0.05661 0.93894 0.05500
H 	H 	0.61666 0.04904 0.99001 0.07700
H 	H 	0.62146 0.99669 0.95650 0.05500
C 	C 	0.33972 0.11696 0.00553 -0.09600
C 	C 	0.31278 0.13667 0.98012 0.00600
C 	C 	0.35169 0.18444 0.95906 0.01800
C 	C 	0.41642 0.20915 0.96209 -0.01600
C 	C 	0.44378 0.19006 0.98796 -0.12000
C 	C 	0.40551 0.14559 0.01127 0.10300
C 	C 	0.24461 0.10999 0.97801 -0.01400
C 	C 	0.32519 0.21108 0.93478 -0.16900
H 	H 	0.44581 0.24406 0.94479 0.03400
C 	C 	0.43443 0.12981 0.04304 -0.20600
H 	H 	0.30972 0.08088 0.02203 0.05100
C 	C 	0.19647 0.05685 0.94910 0.03800
C 	C 	0.13180 0.02792 0.95066 -0.05500
C 	C 	0.11468 0.04880 0.98193 -0.04000
C 	C 	0.16305 0.10149 0.01116 0.05700
C 	C 	0.22749 0.13324 0.00792 -0.07200
C 	C 	0.21371 0.02793 0.91847 -0.17300
H 	H 	0.09466 0.98726 0.92845 0.03600
C 	C 	0.14649 0.12328 0.04621 -0.18600
H 	H 	0.26469 0.17426 0.02990 0.04400
H 	H 	0.44425 0.09722 0.02979 0.08200
H 	H 	0.40147 0.10604 0.06372 0.06600
H 	H 	0.47938 0.17361 0.06058 0.08100
H 	H 	0.30871 0.23278 0.95384 0.06000
H 	H 	0.28425 0.17295 0.91169 0.05800
H 	H 	0.36179 0.24820 0.92015 0.05600
H 	H 	0.17097 0.98967 0.89634 0.05400
H 	H 	0.23543 0.00729 0.93270 0.06100
H 	H 	0.24834 0.06437 0.90271 0.06000
H 	H 	0.18953 0.15697 0.06944 0.06000
H 	H 	0.11175 0.08234 0.05933 0.06600
H 	H 	0.12572 0.14769 0.03725 0.06400
