data_crystal

_cell_length_a 16.89861
_cell_length_b 17.54825
_cell_length_c 43.56913
_cell_angle_alpha 60.49525
_cell_angle_beta  119.28551
_cell_angle_gamma 133.30281

_symmetry_space_group_name_	'P 1'
_symmetry_space_group_name_H-M	'P 1'

loop_
_symmetry_equiv_pos_as_xyz
  x,y,z

loop_
_atom_site_label
_atom_site_type_symbol
_atom_site_fract_x
_atom_site_fract_y
_atom_site_fract_z
_atom_site_charge
C 	C 	0.75242 0.31234 0.01383 0.01800
C 	C 	0.82046 0.42301 0.01150 -0.07200
C 	C 	0.77177 0.47700 0.99788 0.02900
C 	C 	0.65507 0.42006 0.98672 -0.06900
C 	C 	0.58719 0.30855 0.99004 0.02300
C 	C 	0.63641 0.25673 0.00153 -0.06700
H 	H 	0.91053 0.46587 0.02169 0.04400
H 	H 	0.61730 0.46131 0.97691 0.05100
H 	H 	0.58389 0.17044 0.00421 0.04900
C 	C 	0.67435 0.21674 0.51150 0.02500
C 	C 	0.57583 0.14052 0.52383 -0.06900
C 	C 	0.55095 0.16684 0.54205 0.01800
C 	C 	0.63101 0.26675 0.55138 -0.06800
C 	C 	0.73046 0.34412 0.53926 0.02400
C 	C 	0.75302 0.31767 0.52014 -0.07200
H 	H 	0.51382 0.06371 0.51647 0.05000
H 	H 	0.61722 0.28337 0.56849 0.04700
H 	H 	0.82839 0.37795 0.51005 0.04900
C 	C 	0.33182 0.69395 0.13390 0.03600
C 	C 	0.26191 0.60370 0.11965 -0.07400
C 	C 	0.30666 0.58143 0.10784 0.03400
C 	C 	0.42205 0.65071 0.11005 -0.07300
C 	C 	0.49343 0.73721 0.12646 0.03200
C 	C 	0.44823 0.75654 0.13925 -0.07300
H 	H 	0.17208 0.55359 0.11623 0.05300
H 	H 	0.45536 0.64035 0.09767 0.05300
H 	H 	0.50350 0.82223 0.15231 0.04900
C 	C 	0.19101 0.57633 0.63760 0.03700
C 	C 	0.14030 0.47140 0.63722 -0.07500
C 	C 	0.19881 0.44883 0.63271 0.03400
C 	C 	0.31176 0.52943 0.63166 -0.07400
C 	C 	0.36185 0.63594 0.63002 0.03300
C 	C 	0.30220 0.65895 0.63368 -0.07700
H 	H 	0.05324 0.40866 0.63845 0.05300
H 	H 	0.36031 0.50961 0.63188 0.05200
H 	H 	0.34044 0.74151 0.63183 0.05400
Co	Co	0.06610 0.88397 0.07746 1.19500
Co	Co	0.04279 0.14229 0.05439 1.19600
Co	Co	0.99745 0.94917 0.11457 1.17700
Co	Co	0.11827 0.07996 0.01935 1.18400
C 	C 	0.94263 0.72056 0.03307 0.30700
Co	Co	0.16619 0.92800 0.01929 1.17200
Co	Co	0.95898 0.10779 0.11603 1.15600
C 	C 	0.34282 0.15917 0.02113 0.36100
O 	O 	0.09464 0.12538 0.15886 -0.38900
O 	O 	0.99313 0.05769 0.09173 -0.78000
C 	C 	0.10374 0.04491 0.17760 0.30400
O 	O 	0.01652 0.83986 0.12078 -0.45400
O 	O 	0.10489 0.19256 0.01350 -0.46500
C 	C 	0.15885 0.31623 0.08876 0.32300
O 	O 	0.01260 0.99086 0.05878 -0.56900
C 	C 	0.79212 0.86627 0.13008 0.32700
C 	C 	0.24591 0.86318 0.09939 0.32500
C 	C 	0.06174 0.02688 0.95210 0.31300
O 	O 	0.11115 0.00269 0.16175 -0.39000
O 	O 	0.19562 0.83169 0.06938 -0.40400
O 	O 	0.22086 0.91141 0.10469 -0.40100
O 	O 	0.05867 0.26989 0.09076 -0.40300
O 	O 	0.17584 0.26730 0.07991 -0.40300
O 	O 	0.85635 0.94944 0.14397 -0.41300
O 	O 	0.83575 0.84344 0.12068 -0.40100
O 	O 	0.14880 0.02451 0.96797 -0.41000
O 	O 	0.03812 0.05761 0.96677 -0.38000
O 	O 	0.10177 0.96138 0.03801 -0.76300
C 	C 	0.85702 0.15809 0.03814 0.35900
O 	O 	0.83196 0.09225 0.06978 -0.41300
O 	O 	0.91168 0.15843 0.02427 -0.40900
O 	O 	0.00108 0.79834 0.00812 -0.37800
O 	O 	0.96219 0.73741 0.06358 -0.40000
O 	O 	0.32509 0.06478 0.03165 -0.40800
O 	O 	0.29046 0.17033 0.03145 -0.41900
Co	Co	0.94136 0.78948 0.57978 1.17700
Co	Co	0.95526 0.07976 0.54662 1.17600
Co	Co	0.84670 0.87212 0.59875 1.18400
Co	Co	0.04632 0.99796 0.52642 1.19200
C 	C 	0.86218 0.61469 0.55184 0.33800
Co	Co	0.08509 0.82731 0.53755 1.17600
Co	Co	0.82659 0.05563 0.59039 1.16300
C 	C 	0.26979 0.05749 0.53974 0.35600
O 	O 	0.92733 0.04286 0.64167 -0.41700
O 	O 	0.87148 0.99445 0.57535 -0.75800
C 	C 	0.91450 0.95100 0.66143 0.31400
O 	O 	0.85012 0.74677 0.61021 -0.46900
O 	O 	0.04550 0.12360 0.51581 -0.45700
C 	C 	0.06111 0.23897 0.58574 0.35300
O 	O 	0.91182 0.91916 0.55312 -0.58700
C 	C 	0.63174 0.81438 0.59869 0.31800
C 	C 	0.13334 0.76489 0.61710 0.31200
C 	C 	0.00246 0.92625 0.46418 0.33400
O 	O 	0.92775 0.90377 0.65000 -0.40300
O 	O 	0.18153 0.83042 0.58984 -0.39700
O 	O 	0.06646 0.77186 0.62180 -0.37900
O 	O 	0.95991 0.21322 0.57510 -0.43800
O 	O 	0.07996 0.18728 0.57931 -0.40300
O 	O 	0.69088 0.90256 0.60940 -0.40500
O 	O 	0.67682 0.79606 0.58776 -0.39600
O 	O 	0.98240 0.83309 0.48645 -0.41800
O 	O 	0.01077 0.99407 0.47336 -0.37300
O 	O 	0.01379 0.87196 0.54748 -0.74800
C 	C 	0.78610 0.13837 0.50987 0.34900
O 	O 	0.73567 0.07229 0.53709 -0.40100
O 	O 	0.85557 0.13230 0.50621 -0.39900
O 	O 	0.96858 0.66240 0.55589 -0.42800
O 	O 	0.83111 0.65968 0.55629 -0.40200
O 	O 	0.21327 0.98769 0.52059 -0.41000
O 	O 	0.21591 0.07092 0.54829 -0.41500
C 	C 	0.91618 0.91837 0.69975 -0.11400
C 	C 	0.81430 0.85085 0.70953 0.01600
C 	C 	0.81167 0.85232 0.74085 -0.06100
C 	C 	0.91122 0.92019 0.76290 0.00400
C 	C 	0.01410 0.97890 0.75516 -0.03900
C 	C 	0.01653 0.97790 0.72372 0.04900
C 	C 	0.90740 0.93608 0.79239 0.01600
C 	C 	0.86421 0.84898 0.82182 -0.04300
C 	C 	0.87198 0.86659 0.85153 -0.03800
C 	C 	0.92363 0.97145 0.85214 0.01200
C 	C 	0.95965 0.05715 0.82164 -0.04600
C 	C 	0.95141 0.03958 0.79184 -0.05200
C 	C 	0.96259 0.99425 0.88636 0.01900
C 	C 	0.00304 0.01120 0.91597 -0.07700
H 	H 	0.73632 0.80374 0.69140 0.02700
H 	H 	0.73191 0.80493 0.74694 0.04600
H 	H 	0.09178 0.02912 0.77260 0.04400
H 	H 	0.09579 0.02958 0.71664 0.02800
H 	H 	0.82855 0.76849 0.82232 0.04000
H 	H 	0.84368 0.79974 0.87495 0.04000
H 	H 	0.99935 0.13839 0.82177 0.03800
H 	H 	0.98251 0.10698 0.76884 0.03600
C 	C 	0.12754 0.01727 0.21737 -0.10500
C 	C 	0.21321 0.10051 0.23555 0.02700
C 	C 	0.20754 0.08977 0.26856 -0.07300
C 	C 	0.11730 0.99482 0.28401 0.02700
C 	C 	0.03979 0.90659 0.26821 -0.04500
C 	C 	0.04545 0.91761 0.23510 0.04700
C 	C 	0.09781 0.99183 0.31435 0.03400
C 	C 	0.99857 0.97404 0.31005 -0.06100
C 	C 	0.98084 0.97298 0.33851 -0.05200
C 	C 	0.06241 0.99051 0.37135 0.02300
C 	C 	0.16246 0.01047 0.37541 -0.04000
C 	C 	0.18007 0.01096 0.34707 -0.04900
C 	C 	0.03814 0.97451 0.40237 0.04900
C 	C 	0.02007 0.95612 0.42971 -0.10000
H 	H 	0.27871 0.17701 0.22255 0.03200
H 	H 	0.26954 0.15752 0.28097 0.04900
H 	H 	0.97186 0.83153 0.28054 0.03000
H 	H 	0.98005 0.85197 0.22169 0.01000
H 	H 	0.93524 0.96092 0.28471 0.04100
H 	H 	0.90297 0.95674 0.33522 0.04200
H 	H 	0.22556 0.02319 0.40082 0.04100
H 	H 	0.25712 0.02528 0.35066 0.04200
C 	C 	0.13883 0.34099 0.62785 0.00600
C 	C 	0.15371 0.33013 0.60287 -0.15100
H 	H 	0.06803 0.27231 0.64013 0.03900
H 	H 	0.22706 0.39497 0.59169 0.07900
C 	C 	0.51500 0.72888 0.60244 -0.14400
C 	C 	0.47791 0.72389 0.62516 -0.00300
H 	H 	0.45957 0.66799 0.58715 0.07800
H 	H 	0.53250 0.78662 0.63962 0.04000
C 	C 	0.11901 0.60271 0.63399 -0.01000
C 	C 	0.16139 0.68857 0.64371 -0.13600
H 	H 	0.03317 0.56093 0.61808 0.04700
H 	H 	0.23784 0.71818 0.66497 0.07600
C 	C 	0.25148 0.42436 0.09594 -0.14300
C 	C 	0.22943 0.49255 0.08933 -0.00100
H 	H 	0.33490 0.44378 0.10987 0.07700
H 	H 	0.14665 0.47380 0.07385 0.04300
C 	C 	0.67480 0.78542 0.13240 -0.15000
C 	C 	0.61332 0.81649 0.12606 0.00400
H 	H 	0.63703 0.70053 0.13771 0.07800
H 	H 	0.65255 0.90158 0.12130 0.03400
C 	C 	0.28065 0.72772 0.13955 0.00200
C 	C 	0.31930 0.83207 0.12845 -0.14300
H 	H 	0.19464 0.66668 0.14233 0.04000
H 	H 	0.40883 0.89467 0.13314 0.07500
C 	C 	0.67553 0.20561 0.48011 0.02600
C 	C 	0.75037 0.19673 0.48116 -0.19400
H 	H 	0.63014 0.22822 0.45358 0.02400
H 	H 	0.77430 0.22958 0.45608 0.08900
C 	C 	0.81419 0.45204 0.54757 0.00200
C 	C 	0.78200 0.50948 0.54660 -0.16800
H 	H 	0.90236 0.48977 0.55228 0.03300
H 	H 	0.69390 0.47213 0.54170 0.08500
C 	C 	0.43875 0.08882 0.55011 0.02700
C 	C 	0.38235 0.12125 0.54774 -0.19700
H 	H 	0.39446 0.00404 0.55223 0.02300
H 	H 	0.42770 0.19820 0.55304 0.09300
C 	C 	0.82255 0.22196 0.01893 -0.21200
C 	C 	0.79974 0.25074 0.03531 0.03100
H 	H 	0.82250 0.25855 0.99023 0.09700
H 	H 	0.81222 0.22562 0.06468 0.01600
C 	C 	0.85863 0.61646 0.02770 -0.16100
C 	C 	0.84256 0.59047 0.99849 -0.00100
H 	H 	0.80980 0.55276 0.04792 0.08200
H 	H 	0.89033 0.65266 0.97795 0.03500
C 	C 	0.46682 0.24209 0.98726 0.03300
C 	C 	0.43079 0.24760 0.00710 -0.20700
H 	H 	0.41165 0.17209 0.97612 0.02700
H 	H 	0.47254 0.32487 0.01144 0.09600
