data_crystal

_cell_length_a 13.75474
_cell_length_b 13.59840
_cell_length_c 32.52391
_cell_angle_alpha 89.99934
_cell_angle_beta  90.00256
_cell_angle_gamma 119.38833

_symmetry_space_group_name_	'P 1'
_symmetry_space_group_name_H-M	'P 1'

loop_
_symmetry_equiv_pos_as_xyz
  x,y,z

loop_
_atom_site_label
_atom_site_type_symbol
_atom_site_fract_x
_atom_site_fract_y
_atom_site_fract_z
_atom_site_charge
C 	C 	0.39608 0.08035 0.85601 0.31900
C 	C 	0.71069 0.56791 0.86363 0.34500
C 	C 	0.68373 0.23758 0.81914 0.33900
C 	C 	0.42206 0.39335 0.91713 0.29300
C 	C 	0.83116 0.38548 0.93663 0.32000
C 	C 	0.57485 0.21377 0.99077 0.29900
Ni	Ni	0.53513 0.33057 0.84787 1.11500
Ni	Ni	0.64348 0.42286 0.93744 1.12600
Ni	Ni	0.62159 0.19263 0.90442 1.12700
O 	O 	0.39387 0.17605 0.85267 -0.37400
O 	O 	0.48825 0.07704 0.86830 -0.36300
O 	O 	0.79490 0.45082 0.92192 -0.37600
O 	O 	0.68227 0.48154 0.83912 -0.37200
O 	O 	0.66550 0.55244 0.90012 -0.37500
O 	O 	0.53985 0.14594 0.95820 -0.36600
O 	O 	0.59641 0.24814 0.80903 -0.36400
O 	O 	0.72275 0.26136 0.85620 -0.38000
O 	O 	0.63202 0.32609 0.98728 -0.37300
O 	O 	0.45488 0.41020 0.87769 -0.34100
O 	O 	0.49151 0.40351 0.94725 -0.36600
O 	O 	0.76429 0.27522 0.93775 -0.35400
O 	O 	0.57215 0.29975 0.90018 -0.71700
H 	H 	0.49803 0.25514 0.91285 0.16700
C 	C 	0.70978 0.25892 0.67558 0.32100
C 	C 	0.78609 0.65994 0.58976 0.34700
C 	C 	0.49588 0.35196 0.65776 0.33700
C 	C 	0.97907 0.55899 0.60784 0.31800
C 	C 	0.56461 0.33525 0.51662 0.31600
C 	C 	0.73040 0.21069 0.54391 0.30700
Ni	Ni	0.74949 0.48478 0.64942 1.11900
Ni	Ni	0.78449 0.45757 0.55155 1.12500
Ni	Ni	0.58516 0.25183 0.59967 1.12500
O 	O 	0.77170 0.36818 0.68328 -0.36600
O 	O 	0.60900 0.21855 0.65910 -0.37400
O 	O 	0.64024 0.43532 0.52927 -0.38000
O 	O 	0.71194 0.58898 0.61543 -0.37100
O 	O 	0.83259 0.62397 0.56260 -0.36700
O 	O 	0.67368 0.18158 0.57891 -0.36900
O 	O 	0.59152 0.41340 0.67691 -0.36300
O 	O 	0.49407 0.32254 0.61917 -0.37000
O 	O 	0.76214 0.31035 0.52572 -0.37500
O 	O 	0.92052 0.58380 0.63455 -0.35100
O 	O 	0.93171 0.49006 0.57624 -0.37000
O 	O 	0.52921 0.24695 0.54122 -0.35600
O 	O 	0.72136 0.39133 0.60300 -0.70900
H 	H 	0.77225 0.36195 0.60924 0.15800
C 	C 	0.84813 0.83304 0.66818 0.32200
C 	C 	0.16169 0.00864 0.80514 0.32700
C 	C 	0.87534 0.77097 0.78662 0.32400
C 	C 	0.21976 0.14194 0.69215 0.32900
C 	C 	0.87468 0.13683 0.79415 0.33800
C 	C 	0.90826 0.16524 0.70521 0.32000
Ni	Ni	0.04835 0.91203 0.72276 1.11100
Ni	Ni	0.07675 0.14767 0.76089 1.11300
Ni	Ni	0.82534 0.93836 0.74393 1.12100
O 	O 	0.95072 0.84981 0.66978 -0.33200
O 	O 	0.79144 0.81589 0.70223 -0.38800
O 	O 	0.97634 0.16033 0.80258 -0.37400
O 	O 	0.16955 0.96628 0.76948 -0.36600
O 	O 	0.11547 0.07387 0.80805 -0.37400
O 	O 	0.84080 0.05351 0.70112 -0.37300
O 	O 	0.92849 0.76978 0.75307 -0.36900
O 	O 	0.82869 0.83650 0.78970 -0.35900
O 	O 	0.01653 0.21021 0.71617 -0.39700
O 	O 	0.16494 0.03349 0.68372 -0.35700
O 	O 	0.21762 0.17805 0.72960 -0.38900
O 	O 	0.80004 0.03262 0.78602 -0.38000
O 	O 	0.98484 0.00292 0.73707 -0.69000
H 	H 	0.99135 0.02789 0.70837 0.14800
C 	C 	0.40400 0.75501 0.32701 0.31600
C 	C 	0.16764 0.35196 0.42614 0.33500
C 	C 	0.11123 0.63359 0.37165 0.34100
C 	C 	0.43739 0.46069 0.39045 0.30500
C 	C 	0.27186 0.67683 0.49889 0.31600
C 	C 	0.54099 0.82290 0.45376 0.30400
Ni	Ni	0.25883 0.52500 0.36140 1.11500
Ni	Ni	0.37108 0.56932 0.45268 1.12900
Ni	Ni	0.32810 0.75926 0.41248 1.12400
O 	O 	0.36386 0.64587 0.31957 -0.36300
O 	O 	0.34730 0.78939 0.35038 -0.37500
O 	O 	0.25373 0.57949 0.48474 -0.37300
O 	O 	0.14220 0.41219 0.40174 -0.37400
O 	O 	0.26283 0.39917 0.44655 -0.36800
O 	O 	0.49293 0.84204 0.42172 -0.36800
O 	O 	0.14567 0.58083 0.34647 -0.36700
O 	O 	0.16065 0.67275 0.40708 -0.38300
O 	O 	0.49534 0.72273 0.47280 -0.36200
O 	O 	0.35354 0.43941 0.36453 -0.35500
O 	O 	0.47593 0.54644 0.41614 -0.37100
O 	O 	0.30826 0.76507 0.47428 -0.37200
O 	O 	0.33934 0.62616 0.40430 -0.70900
H 	H 	0.41404 0.66149 0.39186 0.16000
C 	C 	0.61705 0.77169 0.13791 0.31800
C 	C 	0.18208 0.63736 0.05164 0.32800
C 	C 	0.47246 0.93673 0.12080 0.33600
C 	C 	0.30502 0.49383 0.04958 0.29300
C 	C 	0.18024 0.69798 0.18326 0.35000
C 	C 	0.27698 0.49602 0.20679 0.31800
Ni	Ni	0.42205 0.72964 0.07722 1.11600
Ni	Ni	0.20583 0.53973 0.12730 1.12900
Ni	Ni	0.40855 0.74113 0.17578 1.12500
O 	O 	0.58460 0.79620 0.10223 -0.36400
O 	O 	0.54912 0.73052 0.17019 -0.36500
O 	O 	0.14418 0.59129 0.17400 -0.38000
O 	O 	0.28550 0.68803 0.03883 -0.37100
O 	O 	0.16169 0.63056 0.09082 -0.37000
O 	O 	0.33037 0.60666 0.21535 -0.37100
O 	O 	0.40293 0.86416 0.09493 -0.36900
O 	O 	0.50457 0.90029 0.15242 -0.36600
O 	O 	0.24677 0.45731 0.16881 -0.37100
O 	O 	0.40575 0.57802 0.05787 -0.36500
O 	O 	0.22433 0.45316 0.07808 -0.33900
O 	O 	0.28330 0.77495 0.17557 -0.38400
O 	O 	0.35964 0.65225 0.12661 -0.71400
H 	H 	0.39511 0.60464 0.12938 0.17400
C 	C 	0.14998 0.22247 0.25812 0.31700
C 	C 	0.69903 0.85520 0.30581 0.34700
C 	C 	0.99845 0.13703 0.36453 0.38900
C 	C 	0.82598 0.93723 0.20161 0.33200
C 	C 	0.98497 0.80516 0.34999 0.38100
C 	C 	0.10155 0.86686 0.24783 0.30800
Ni	Ni	0.90092 0.07411 0.27982 1.11800
Ni	Ni	0.87846 0.82465 0.27261 1.12800
Ni	Ni	0.09658 0.02660 0.31254 1.11800
O 	O 	0.05874 0.22090 0.27316 -0.37400
O 	O 	0.18240 0.15043 0.27111 -0.37500
O 	O 	0.93460 0.75662 0.31534 -0.37700
O 	O 	0.73217 0.95174 0.28644 -0.35600
O 	O 	0.77034 0.82122 0.31473 -0.37600
O 	O 	0.14084 0.92203 0.28329 -0.37800
O 	O 	0.90585 0.09317 0.34315 -0.37100
O 	O 	0.09074 0.14739 0.34826 -0.40000
O 	O 	0.99676 0.82923 0.23553 -0.36300
O 	O 	0.87498 0.04116 0.21713 -0.36800
O 	O 	0.79059 0.84676 0.22576 -0.36700
O 	O 	0.01695 0.91196 0.35674 -0.40700
O 	O 	0.96875 0.98315 0.27938 -0.69200
H 	H 	0.00405 0.00256 0.25204 0.14000
C 	C 	0.21675 0.30441 0.23211 -0.11200
C 	C 	0.24172 0.42246 0.23816 -0.09700
H 	H 	0.27269 0.29003 0.21254 0.10000
H 	H 	0.24593 0.45326 0.26932 0.06900
C 	C 	0.79440 0.92336 0.16206 -0.11100
C 	C 	0.72590 0.81002 0.14363 -0.09400
H 	H 	0.81872 0.99717 0.14282 0.09900
H 	H 	0.76812 0.78359 0.12174 0.08700
C 	C 	0.16484 0.83426 0.22759 -0.09200
C 	C 	0.11464 0.72679 0.20416 -0.11800
H 	H 	0.25356 0.87572 0.23465 0.09200
H 	H 	0.02702 0.66512 0.20847 0.09300
C 	C 	0.50983 0.82784 0.31704 -0.11400
C 	C 	0.59133 0.78663 0.31400 -0.11400
H 	H 	0.54002 0.91797 0.31969 0.10000
H 	H 	0.56602 0.70116 0.32423 0.09500
C 	C 	0.10391 0.23936 0.42631 -0.10100
C 	C 	0.00080 0.18272 0.40140 -0.16300
H 	H 	0.12730 0.18837 0.44516 0.09200
H 	H 	0.92599 0.18088 0.41303 0.12100
C 	C 	0.02761 0.65103 0.35995 -0.12300
C 	C 	0.02050 0.75097 0.37506 -0.13500
H 	H 	0.97715 0.60417 0.33369 0.11500
H 	H 	0.06023 0.79026 0.40399 0.09300
C 	C 	0.73754 0.12623 0.47681 -0.02600
C 	C 	0.73512 0.12056 0.51992 -0.06700
C 	C 	0.70816 0.01678 0.53890 0.10000
C 	C 	0.65583 0.91691 0.51589 -0.02700
C 	C 	0.63586 0.92116 0.47375 -0.05900
C 	C 	0.68984 0.02663 0.45353 0.09200
N 	N 	0.69694 0.03235 0.40958 -0.02200
H 	H 	0.77041 0.20707 0.46147 0.07200
H 	H 	0.62534 0.83633 0.53123 0.08000
N 	N 	0.72869 0.01215 0.58181 -0.01900
O 	O 	0.68469 0.10874 0.38980 -0.10500
O 	O 	0.71664 0.96155 0.38934 -0.08200
O 	O 	0.64725 0.94702 0.60615 -0.10400
O 	O 	0.82801 0.07582 0.59680 -0.08800
C 	C 	0.16266 0.57291 0.60317 -0.01900
C 	C 	0.10061 0.62881 0.60701 -0.09000
C 	C 	0.14517 0.73661 0.58936 0.10100
C 	C 	0.21487 0.76258 0.55493 -0.02800
C 	C 	0.25086 0.68680 0.54272 -0.07300
C 	C 	0.23920 0.60215 0.57077 0.10000
N 	N 	0.30241 0.54481 0.56576 -0.02200
H 	H 	0.14073 0.49808 0.62134 0.06200
H 	H 	0.23719 0.83813 0.53716 0.07900
N 	N 	0.12745 0.82121 0.60835 -0.01600
O 	O 	0.40874 0.60202 0.55791 -0.10800
O 	O 	0.25451 0.43587 0.57034 -0.09200
O 	O 	0.13520 0.83289 0.64808 -0.11900
O 	O 	0.11788 0.89526 0.58594 -0.09700
C 	C 	0.39054 0.27845 0.42135 -0.03300
C 	C 	0.46761 0.37285 0.39894 -0.07000
C 	C 	0.58147 0.40896 0.40524 0.09700
C 	C 	0.61489 0.38434 0.44296 -0.01900
C 	C 	0.53397 0.31909 0.47250 -0.08000
C 	C 	0.42160 0.25646 0.45999 0.10100
N 	N 	0.33861 0.17691 0.48711 -0.02100
H 	H 	0.30401 0.23379 0.41200 0.06400
H 	H 	0.70279 0.42249 0.45046 0.05700
N 	N 	0.66338 0.48590 0.37687 -0.02000
O 	O 	0.27638 0.20559 0.50839 -0.08900
O 	O 	0.32482 0.07554 0.49040 -0.10100
O 	O 	0.75758 0.56770 0.39030 -0.09300
O 	O 	0.64221 0.47640 0.33764 -0.09800
C 	C 	0.87110 0.23463 0.69286 -0.10400
C 	C 	0.75174 0.18993 0.68153 -0.12000
H 	H 	0.92781 0.32520 0.69307 0.09400
H 	H 	0.69890 0.10017 0.67582 0.10200
C 	C 	0.40011 0.31365 0.67889 -0.10800
C 	C 	0.29688 0.21120 0.66511 -0.11100
H 	H 	0.40273 0.34690 0.70953 0.08900
H 	H 	0.29256 0.18186 0.63369 0.10100
C 	C 	0.83011 0.77081 0.59637 -0.11300
C 	C 	0.79392 0.81151 0.63220 -0.09900
H 	H 	0.89700 0.83103 0.57690 0.11300
H 	H 	0.70991 0.79976 0.63180 0.09900
C 	C 	0.90966 0.41077 0.00628 -0.03200
C 	C 	0.92740 0.43612 0.96433 -0.04800
C 	C 	0.02889 0.52781 0.95103 0.07300
C 	C 	0.10860 0.59686 0.98001 -0.01200
C 	C 	0.09070 0.57182 0.02220 -0.10600
C 	C 	0.99005 0.47707 0.03520 0.13000
N 	N 	0.96732 0.44989 0.07784 -0.03000
H 	H 	0.82965 0.34424 0.01681 0.08600
H 	H 	0.18547 0.66882 0.96960 0.07000
N 	N 	0.05093 0.55143 0.90804 -0.01700
O 	O 	0.92104 0.49628 0.09945 -0.08800
O 	O 	0.97723 0.36705 0.09330 -0.10900
O 	O 	0.08799 0.65361 0.89438 -0.10200
O 	O 	0.03925 0.47197 0.88287 -0.09800
C 	C 	0.63056 0.07174 0.08059 -0.02200
C 	C 	0.54103 0.05212 0.10616 -0.08600
C 	C 	0.48829 0.11731 0.09999 0.10900
C 	C 	0.50148 0.17236 0.06213 -0.02700
C 	C 	0.56911 0.16443 0.03150 -0.06300
C 	C 	0.63784 0.11737 0.04139 0.09300
N 	N 	0.70661 0.10588 0.01083 -0.02100
H 	H 	0.67988 0.03149 0.08756 0.06900
H 	H 	0.45643 0.21761 0.05607 0.07800
N 	N 	0.41175 0.11685 0.13010 -0.02300
O 	O 	0.81183 0.14331 0.01843 -0.08000
O 	O 	0.66023 0.03843 0.97981 -0.11100
O 	O 	0.43072 0.11241 0.16907 -0.09300
O 	O 	0.32259 0.11981 0.11861 -0.08500
C 	C 	0.24998 0.30912 0.95676 -0.02400
C 	C 	0.32039 0.39450 0.92938 -0.06900
C 	C 	0.32944 0.50089 0.93455 0.10600
C 	C 	0.31771 0.53395 0.97425 -0.03500
C 	C 	0.27823 0.45418 0.00644 -0.05800
C 	C 	0.23323 0.33900 0.99650 0.09500
N 	N 	0.17863 0.25369 0.02706 -0.01800
H 	H 	0.22663 0.22213 0.95023 0.06400
H 	H 	0.34753 0.62210 0.98057 0.06600
N 	N 	0.37011 0.58146 0.90165 -0.01800
O 	O 	0.08179 0.23247 0.04119 -0.07800
O 	O 	0.22097 0.19070 0.03810 -0.08800
O 	O 	0.33569 0.54931 0.86424 -0.08700
O 	O 	0.44130 0.68688 0.90901 -0.09500
C 	C 	0.73005 0.19741 0.79247 -0.11200
C 	C 	0.84465 0.21590 0.80078 -0.11900
H 	H 	0.68820 0.15921 0.76382 0.08900
H 	H 	0.90708 0.29808 0.81225 0.10600
C 	C 	0.30632 0.98541 0.84276 -0.10500
C 	C 	0.19603 0.98116 0.83995 -0.10900
H 	H 	0.30952 0.90732 0.84085 0.09500
H 	H 	0.15950 0.98742 0.86880 0.08800
C 	C 	0.77971 0.67281 0.85036 -0.11200
C 	C 	0.85369 0.69127 0.81488 -0.10400
H 	H 	0.79034 0.74481 0.86835 0.10100
H 	H 	0.88702 0.63410 0.81050 0.10000
