data_crystal

_cell_length_a 22.94997
_cell_length_b 24.61843
_cell_length_c 35.13332
_cell_angle_alpha 89.99837
_cell_angle_beta  90.00614
_cell_angle_gamma 92.64512

_symmetry_space_group_name_	'P 1'
_symmetry_space_group_name_H-M	'P 1'

loop_
_symmetry_equiv_pos_as_xyz
  x,y,z

loop_
_atom_site_label
_atom_site_type_symbol
_atom_site_fract_x
_atom_site_fract_y
_atom_site_fract_z
_atom_site_charge
C 	C 	0.94883 0.88668 0.98882 0.10400
N 	N 	0.99592 0.91954 0.99641 -0.17200
C 	C 	0.04292 0.89107 0.98792 0.10200
C 	C 	0.10267 0.90751 0.00097 -0.07300
C 	C 	0.12046 0.96591 0.00341 0.08800
C 	C 	0.14607 0.86601 0.00762 0.04100
C 	C 	0.13614 0.82602 0.03564 -0.05300
C 	C 	0.17561 0.78499 0.04038 -0.02800
C 	C 	0.22605 0.78459 0.01785 0.01300
C 	C 	0.19662 0.86566 0.98522 -0.05100
N 	N 	0.09880 0.00372 0.98036 -0.12600
C 	C 	0.16605 0.98752 0.02517 -0.06000
C 	C 	0.13099 0.04987 0.98733 0.09300
C 	C 	0.11190 0.10405 0.97570 -0.07300
C 	C 	0.15425 0.15124 0.97520 0.04400
C 	C 	0.22461 0.20969 0.94109 -0.02700
C 	C 	0.16928 0.17827 0.00919 -0.05400
C 	C 	0.21331 0.21949 0.00939 -0.03100
C 	C 	0.24186 0.23474 0.97544 0.01400
N 	N 	0.00492 0.08221 0.97843 -0.17200
C 	C 	0.95687 0.10372 0.96389 0.10200
C 	C 	0.97228 0.14547 0.93875 -0.06000
C 	C 	0.03259 0.14949 0.93817 -0.06100
C 	C 	0.89859 0.09578 0.98184 -0.07300
C 	C 	0.85813 0.14086 0.98314 0.04300
C 	C 	0.76264 0.17529 0.97064 -0.02700
C 	C 	0.78117 0.22607 0.98553 0.01300
C 	C 	0.83795 0.23375 0.99997 -0.02900
C 	C 	0.87607 0.19111 0.99919 -0.05300
N 	N 	0.89586 0.99460 0.98074 -0.12600
C 	C 	0.83893 0.97651 0.03195 -0.05900
C 	C 	0.87075 0.95495 0.00259 0.08800
C 	C 	0.88929 0.89832 0.00184 -0.07500
C 	C 	0.84564 0.85335 0.00869 0.04200
C 	C 	0.80248 0.84097 0.98139 -0.05000
C 	C 	0.76043 0.79917 0.98806 -0.02800
C 	C 	0.76106 0.76954 0.02216 0.01200
C 	C 	0.80416 0.78197 0.04954 -0.02800
C 	C 	0.84657 0.82355 0.04271 -0.05300
C 	C 	0.96553 0.83686 0.97533 -0.06100
C 	C 	0.02584 0.83968 0.97469 -0.06000
C 	C 	0.23660 0.82529 0.99047 -0.02900
C 	C 	0.17238 0.04153 0.01513 -0.06100
C 	C 	0.05093 0.11003 0.96292 0.10200
C 	C 	0.84400 0.03214 0.02762 -0.06200
C 	C 	0.87905 0.04145 0.99613 0.09100
C 	C 	0.80124 0.13319 0.96883 -0.05000
H 	H 	0.99618 0.95223 0.01541 0.09500
H 	H 	0.00608 0.06121 0.00427 0.09400
H 	H 	0.72720 0.78993 0.96683 0.04700
H 	H 	0.80481 0.75944 0.07602 0.04800
H 	H 	0.80153 0.86375 0.95503 0.05200
H 	H 	0.87977 0.83291 0.06394 0.04800
H 	H 	0.16695 0.75344 0.06140 0.04900
H 	H 	0.20458 0.89635 0.96350 0.05200
H 	H 	0.27538 0.82512 0.97288 0.04700
H 	H 	0.09735 0.82619 0.05321 0.04900
H 	H 	0.22576 0.23909 0.03597 0.04700
H 	H 	0.14789 0.16639 0.03559 0.04900
C 	C 	0.18179 0.16732 0.94109 -0.05200
H 	H 	0.24548 0.22201 0.91461 0.05000
H 	H 	0.71846 0.16866 0.96019 0.05000
H 	H 	0.78692 0.09456 0.95643 0.05300
H 	H 	0.91957 0.19714 0.01089 0.04700
H 	H 	0.85234 0.27261 0.01201 0.04500
H 	H 	0.93887 0.79943 0.97612 0.05600
H 	H 	0.05281 0.80477 0.97451 0.05400
H 	H 	0.19848 0.96459 0.03969 0.05500
H 	H 	0.20953 0.06852 0.02179 0.05500
H 	H 	0.94438 0.17761 0.93027 0.05500
H 	H 	0.05827 0.18532 0.92949 0.05200
H 	H 	0.82854 0.95593 0.05849 0.05000
H 	H 	0.83684 0.06140 0.04994 0.05100
H 	H 	0.17028 0.14681 0.91468 0.05200
C 	C 	0.94887 0.88490 0.48184 0.10300
N 	N 	0.99539 0.91711 0.49174 -0.17200
C 	C 	0.04276 0.88850 0.48468 0.10100
C 	C 	0.10175 0.90502 0.49896 -0.07300
C 	C 	0.11874 0.96347 0.50253 0.08900
C 	C 	0.14528 0.86376 0.50584 0.04300
C 	C 	0.13470 0.82305 0.53326 -0.05300
C 	C 	0.17461 0.78249 0.53837 -0.02800
C 	C 	0.22602 0.78319 0.51676 0.01300
C 	C 	0.19681 0.86452 0.48436 -0.05200
N 	N 	0.09757 0.00179 0.47965 -0.12700
C 	C 	0.16293 0.98488 0.52556 -0.06000
C 	C 	0.12869 0.04800 0.48810 0.09100
C 	C 	0.11146 0.10228 0.47528 -0.07300
C 	C 	0.15476 0.14863 0.47573 0.04300
C 	C 	0.22760 0.20615 0.44315 -0.02700
C 	C 	0.16727 0.17643 0.50981 -0.05300
C 	C 	0.21116 0.21771 0.51085 -0.03000
C 	C 	0.24212 0.23217 0.47764 0.01300
N 	N 	0.00455 0.08049 0.47165 -0.17200
C 	C 	0.95824 0.10503 0.45713 0.10100
C 	C 	0.97652 0.14968 0.43539 -0.06100
C 	C 	0.03677 0.15212 0.43668 -0.06100
C 	C 	0.89832 0.09582 0.47240 -0.07300
C 	C 	0.85850 0.14109 0.47398 0.04300
C 	C 	0.78711 0.19622 0.44353 -0.02700
C 	C 	0.77745 0.22251 0.47824 0.01300
C 	C 	0.81020 0.20949 0.51041 -0.03000
C 	C 	0.85086 0.16910 0.50822 -0.05300
N 	N 	0.90340 0.99507 0.47506 -0.12700
C 	C 	0.82411 0.97388 0.51084 -0.05900
C 	C 	0.86986 0.95412 0.49020 0.09000
C 	C 	0.88818 0.89727 0.49174 -0.07300
C 	C 	0.84481 0.85262 0.50012 0.04200
C 	C 	0.80092 0.83879 0.47363 -0.05200
C 	C 	0.75965 0.79682 0.48158 -0.02900
C 	C 	0.76187 0.76843 0.51614 0.01300
C 	C 	0.80571 0.78230 0.54270 -0.02900
C 	C 	0.84731 0.82406 0.53460 -0.05200
C 	C 	0.96631 0.83533 0.46835 -0.06100
C 	C 	0.02658 0.83764 0.47012 -0.06000
C 	C 	0.23715 0.82455 0.48993 -0.02900
C 	C 	0.16891 0.03928 0.51656 -0.05900
C 	C 	0.05238 0.10888 0.45914 0.10200
C 	C 	0.82899 0.02963 0.50767 -0.06000
C 	C 	0.87811 0.04101 0.48570 0.09100
C 	C 	0.82684 0.15501 0.44157 -0.05200
H 	H 	0.99417 0.94900 0.51133 0.09700
H 	H 	0.00318 0.05722 0.49655 0.09800
H 	H 	0.72577 0.78649 0.46099 0.04800
H 	H 	0.80755 0.76075 0.56953 0.04800
H 	H 	0.79881 0.86057 0.44690 0.05100
H 	H 	0.88117 0.83446 0.55518 0.04900
H 	H 	0.16554 0.75045 0.55896 0.04900
H 	H 	0.20529 0.89577 0.46310 0.05200
H 	H 	0.27667 0.82520 0.47304 0.04700
H 	H 	0.09514 0.82237 0.55012 0.04900
H 	H 	0.22159 0.23802 0.53751 0.04600
H 	H 	0.14385 0.16525 0.53563 0.04900
C 	C 	0.18491 0.16376 0.44236 -0.05200
H 	H 	0.25043 0.21782 0.41721 0.05000
H 	H 	0.76257 0.20661 0.41842 0.05000
H 	H 	0.83281 0.13371 0.41497 0.05200
H 	H 	0.87548 0.15873 0.53329 0.04900
H 	H 	0.80335 0.22997 0.53723 0.04400
H 	H 	0.93922 0.79817 0.46744 0.05600
H 	H 	0.05328 0.80254 0.47044 0.05300
H 	H 	0.19515 0.96184 0.54020 0.05500
H 	H 	0.20575 0.06622 0.52397 0.05500
H 	H 	0.95038 0.18403 0.42907 0.05200
H 	H 	0.06371 0.18860 0.43152 0.05200
H 	H 	0.78617 0.95041 0.52095 0.05300
H 	H 	0.79441 0.05701 0.51317 0.05600
H 	H 	0.17530 0.14264 0.41588 0.05200
Ni	Ni	0.47077 0.53481 0.03993 1.10000
O 	O 	0.53677 0.48318 0.03113 -0.70100
Ni	Ni	0.53091 0.47128 0.97422 1.09900
O 	O 	0.47834 0.53366 0.09829 -0.33900
O 	O 	0.47690 0.44134 0.10268 -0.37900
O 	O 	0.52929 0.60122 0.04357 -0.35800
Ni	Ni	0.51933 0.41217 0.05520 1.07500
O 	O 	0.44514 0.64129 0.99845 -0.39500
O 	O 	0.43819 0.40437 0.03157 -0.40600
O 	O 	0.59782 0.42026 0.96978 -0.37300
O 	O 	0.46469 0.52265 0.98298 -0.70200
O 	O 	0.40432 0.58631 0.04437 -0.36400
O 	O 	0.52287 0.47194 0.91587 -0.34300
O 	O 	0.52488 0.56425 0.91124 -0.38400
Ni	Ni	0.48198 0.59341 0.95852 1.07300
H 	H 	0.57562 0.49878 0.03864 0.16200
H 	H 	0.42597 0.50697 0.97537 0.17200
C 	C 	0.43063 0.39343 0.99547 0.30100
O 	O 	0.56238 0.60149 0.98240 -0.41400
C 	C 	0.48826 0.48940 0.11778 0.25600
C 	C 	0.60202 0.38071 0.99467 0.29500
C 	C 	0.56973 0.61440 0.01821 0.29900
C 	C 	0.51368 0.51616 0.89616 0.25600
C 	C 	0.39964 0.62534 0.01919 0.29800
O 	O 	0.47287 0.40453 0.97098 -0.36300
O 	O 	0.55596 0.36461 0.01490 -0.39500
Ni	Ni	0.47204 0.53490 0.54005 1.10100
O 	O 	0.53714 0.48239 0.53081 -0.70200
Ni	Ni	0.52940 0.46956 0.47406 1.10000
O 	O 	0.48129 0.53470 0.59832 -0.34000
O 	O 	0.47836 0.44247 0.60330 -0.38400
O 	O 	0.53122 0.60081 0.54271 -0.35900
Ni	Ni	0.51910 0.41204 0.55559 1.06800
O 	O 	0.44644 0.64102 0.49804 -0.39600
O 	O 	0.43736 0.40558 0.53278 -0.40800
O 	O 	0.59474 0.41691 0.46911 -0.36400
O 	O 	0.46438 0.52207 0.48325 -0.70100
O 	O 	0.40637 0.58717 0.54487 -0.36400
O 	O 	0.51978 0.46968 0.41577 -0.34000
O 	O 	0.52385 0.56197 0.41084 -0.38300
Ni	Ni	0.48202 0.59228 0.45814 1.07400
H 	H 	0.57639 0.49760 0.53775 0.16200
H 	H 	0.42523 0.50682 0.47620 0.17200
C 	C 	0.42884 0.39320 0.49699 0.30100
O 	O 	0.56293 0.59982 0.48128 -0.41400
C 	C 	0.49079 0.49056 0.61802 0.25500
C 	C 	0.59841 0.37694 0.49373 0.29200
C 	C 	0.57117 0.61326 0.51691 0.30100
C 	C 	0.51140 0.51398 0.39596 0.25600
C 	C 	0.40129 0.62559 0.51927 0.29900
O 	O 	0.47015 0.40377 0.47180 -0.36300
O 	O 	0.55303 0.36281 0.51525 -0.40700
C 	C 	0.50414 0.50538 0.77789 0.10100
N 	N 	0.50649 0.45961 0.79932 -0.06900
N 	N 	0.50853 0.46292 0.83717 -0.05500
C 	C 	0.50826 0.51209 0.85464 0.04800
N 	N 	0.50528 0.55779 0.83322 -0.06300
N 	N 	0.50323 0.55448 0.79539 -0.07000
C 	C 	0.49748 0.49487 0.65946 0.04800
N 	N 	0.49729 0.54409 0.67688 -0.05400
N 	N 	0.49989 0.54751 0.71471 -0.06800
C 	C 	0.50272 0.50179 0.73617 0.10000
N 	N 	0.50367 0.45268 0.71870 -0.07100
N 	N 	0.50107 0.44927 0.68090 -0.06500
C 	C 	0.49899 0.49976 0.23602 0.10100
N 	N 	0.49985 0.45072 0.21843 -0.06900
N 	N 	0.49750 0.44755 0.18060 -0.06200
C 	C 	0.49425 0.49332 0.15928 0.05000
N 	N 	0.49410 0.54243 0.17684 -0.05400
N 	N 	0.49644 0.54560 0.21469 -0.06800
C 	C 	0.50526 0.50983 0.35448 0.04900
N 	N 	0.50192 0.55552 0.33311 -0.06300
N 	N 	0.49953 0.55225 0.29529 -0.07000
C 	C 	0.50046 0.50319 0.27775 0.10100
N 	N 	0.50310 0.45739 0.29914 -0.06800
N 	N 	0.50548 0.46067 0.33699 -0.05400
C 	C 	0.26647 0.73884 0.52036 0.01200
C 	C 	0.30734 0.73847 0.55028 0.02500
C 	C 	0.34929 0.69901 0.55092 0.00200
C 	C 	0.35176 0.66081 0.52145 -0.09000
C 	C 	0.31004 0.66036 0.49211 0.08100
C 	C 	0.26724 0.69892 0.49194 -0.07300
H 	H 	0.38136 0.69934 0.57357 0.06400
H 	H 	0.23559 0.69892 0.46904 0.06400
I 	I 	0.30904 0.79884 0.59353 -0.09500
I 	I 	0.31176 0.60288 0.44706 -0.16400
C 	C 	0.62212 0.64899 0.52690 -0.09100
C 	C 	0.61499 0.70281 0.53946 0.08400
C 	C 	0.66245 0.74061 0.53865 -0.07500
C 	C 	0.71677 0.72567 0.52496 0.01100
C 	C 	0.72509 0.67105 0.51538 0.02500
C 	C 	0.67793 0.63294 0.51674 -0.00600
H 	H 	0.65634 0.78239 0.54688 0.06300
H 	H 	0.68397 0.59142 0.50784 0.04700
I 	I 	0.53265 0.72979 0.55732 -0.08100
I 	I 	0.80755 0.64557 0.49679 -0.09900
C 	C 	0.73144 0.26201 0.48131 0.01100
C 	C 	0.67220 0.24434 0.48222 0.02400
C 	C 	0.62916 0.28241 0.48525 -0.00400
C 	C 	0.64454 0.33802 0.48878 -0.09100
C 	C 	0.70391 0.35560 0.48882 0.08100
C 	C 	0.74693 0.31759 0.48450 -0.07400
H 	H 	0.58361 0.26867 0.48533 0.05800
H 	H 	0.79253 0.33116 0.48436 0.06400
I 	I 	0.64646 0.16026 0.48131 -0.10400
I 	I 	0.73028 0.43845 0.49841 -0.12800
C 	C 	0.29009 0.27421 0.47915 0.01200
C 	C 	0.34870 0.26003 0.47575 0.02500
C 	C 	0.39355 0.30023 0.47891 -0.00300
C 	C 	0.38084 0.35411 0.48725 -0.08900
C 	C 	0.32232 0.36834 0.49063 0.08400
C 	C 	0.27730 0.32854 0.48599 -0.07300
H 	H 	0.43857 0.28903 0.47677 0.05700
H 	H 	0.23231 0.33962 0.48856 0.06400
I 	I 	0.37124 0.17771 0.46938 -0.10100
I 	I 	0.30055 0.44930 0.50321 -0.12500
C 	C 	0.26605 0.73981 0.02120 0.01000
C 	C 	0.30734 0.73903 0.05086 0.02500
C 	C 	0.34872 0.69905 0.05127 0.00200
C 	C 	0.35039 0.66084 0.02176 -0.09000
C 	C 	0.30829 0.66083 0.99267 0.08200
C 	C 	0.26594 0.69983 0.99277 -0.07200
H 	H 	0.38105 0.69901 0.07376 0.06400
H 	H 	0.23397 0.70014 0.97008 0.06400
I 	I 	0.31071 0.79965 0.09394 -0.09500
I 	I 	0.30884 0.60342 0.94753 -0.16100
C 	C 	0.71535 0.72667 0.02950 0.01100
C 	C 	0.72384 0.67232 0.01926 0.02500
C 	C 	0.67654 0.63428 0.01937 -0.00600
C 	C 	0.62042 0.65011 0.02898 -0.09100
C 	C 	0.61291 0.70366 0.04198 0.08400
C 	C 	0.66049 0.74138 0.04241 -0.07500
H 	H 	0.68282 0.59300 0.01002 0.04300
H 	H 	0.65415 0.78296 0.05104 0.06300
I 	I 	0.80686 0.64723 0.00146 -0.10500
I 	I 	0.52990 0.73042 0.05862 -0.08200
C 	C 	0.65210 0.34556 0.99263 -0.09200
C 	C 	0.67712 0.32510 0.02606 0.08500
C 	C 	0.71995 0.28669 0.02342 -0.07600
C 	C 	0.74012 0.27027 0.98775 0.01400
C 	C 	0.71881 0.29433 0.95445 0.02400
C 	C 	0.67418 0.33095 0.95699 -0.00100
H 	H 	0.73758 0.26953 0.04914 0.06500
H 	H 	0.65633 0.34772 0.93120 0.06300
I 	I 	0.65493 0.35473 0.08080 -0.18700
I 	I 	0.75527 0.27841 0.90019 -0.09700
C 	C 	0.29014 0.27669 0.97604 0.01100
C 	C 	0.34844 0.26244 0.97079 0.02500
C 	C 	0.39377 0.30224 0.97407 -0.00300
C 	C 	0.38196 0.35567 0.98439 -0.08800
C 	C 	0.32368 0.37006 0.98918 0.08500
C 	C 	0.27814 0.33077 0.98442 -0.07300
H 	H 	0.43855 0.29087 0.97071 0.06000
H 	H 	0.23341 0.34197 0.98828 0.06400
I 	I 	0.37001 0.18042 0.96153 -0.10100
I 	I 	0.30303 0.45047 0.00428 -0.12800
