data_crystal

_cell_length_a 26.14968
_cell_length_b 26.45149
_cell_length_c 26.58400
_cell_angle_alpha 95.50786
_cell_angle_beta  95.50756
_cell_angle_gamma 125.79587

_symmetry_space_group_name_	'P 1'
_symmetry_space_group_name_H-M	'P 1'

loop_
_symmetry_equiv_pos_as_xyz
  x,y,z

loop_
_atom_site_label
_atom_site_type_symbol
_atom_site_fract_x
_atom_site_fract_y
_atom_site_fract_z
_atom_site_charge
C 	C 	0.95828 0.02085 0.99337 0.04900
C 	C 	0.92014 0.95503 0.99153 -0.07700
C 	C 	0.94577 0.92157 0.98308 0.02700
C 	C 	0.00946 0.95390 0.97610 -0.06800
C 	C 	0.04781 0.01960 0.97791 0.02800
C 	C 	0.02224 0.05311 0.98665 -0.07600
H 	H 	0.87072 0.92996 0.99662 0.05400
H 	H 	0.02930 0.92803 0.96964 0.05200
H 	H 	0.05192 0.10399 0.98825 0.05400
C 	C 	0.94573 0.01273 0.44170 0.02300
C 	C 	0.01282 0.05058 0.44683 -0.07000
C 	C 	0.04566 0.02425 0.45531 0.02600
C 	C 	0.01150 0.96011 0.45891 -0.06900
C 	C 	0.94460 0.92205 0.45419 0.02400
C 	C 	0.91159 0.94830 0.44536 -0.07100
H 	H 	0.03937 0.10037 0.44438 0.04800
H 	H 	0.03699 0.93981 0.46544 0.04900
H 	H 	0.85980 0.91893 0.44158 0.04700
Cu	Cu	0.63322 0.23675 0.00821 0.92000
Cu	Cu	0.69795 0.23964 0.90801 0.86900
Cu	Cu	0.66637 0.32899 0.93384 0.89800
Cu	Cu	0.62040 0.34739 0.02760 0.88600
C 	C 	0.63790 0.28749 0.11077 0.28100
O 	O 	0.53722 0.19264 0.99991 -0.35400
C 	C 	0.67024 0.28787 0.82738 0.27800
O 	O 	0.67898 0.33366 0.00698 -0.64900
O 	O 	0.63017 0.23803 0.93355 -0.63400
O 	O 	0.67816 0.19680 0.01611 -0.37300
O 	O 	0.75278 0.26291 0.97140 -0.42800
O 	O 	0.60636 0.30758 0.09003 -0.39100
O 	O 	0.70731 0.41895 0.93903 -0.38200
C 	C 	0.69840 0.45317 0.97140 0.29100
C 	C 	0.50973 0.21424 0.97529 0.28400
O 	O 	0.54540 0.27212 0.96604 -0.39000
O 	O 	0.65358 0.42660 0.99989 -0.39000
O 	O 	0.64918 0.25260 0.08207 -0.36200
C 	C 	0.73434 0.22249 0.00275 0.27200
O 	O 	0.66370 0.32494 0.85885 -0.37800
O 	O 	0.66394 0.23816 0.84088 -0.41900
H 	H 	0.72399 0.36485 0.02533 0.15900
H 	H 	0.58730 0.20750 0.91131 0.17400
Cu	Cu	0.74082 0.34799 0.43374 0.92600
Cu	Cu	0.75091 0.29532 0.53799 0.86800
Cu	Cu	0.64983 0.31255 0.51095 0.89600
Cu	Cu	0.62086 0.34898 0.41505 0.89300
C 	C 	0.67824 0.32901 0.33127 0.28000
O 	O 	0.77911 0.44163 0.43810 -0.36200
C 	C 	0.70252 0.32209 0.61883 0.27800
O 	O 	0.64245 0.29729 0.43766 -0.63800
O 	O 	0.74293 0.35516 0.50899 -0.63900
O 	O 	0.78492 0.30682 0.42709 -0.37300
O 	O 	0.72464 0.23651 0.47692 -0.44500
O 	O 	0.65666 0.35957 0.35062 -0.38600
O 	O 	0.55805 0.26609 0.50742 -0.38400
C 	C 	0.52028 0.27292 0.47691 0.29100
C 	C 	0.75364 0.46596 0.46106 0.28400
O 	O 	0.69722 0.42788 0.47336 -0.39600
O 	O 	0.54314 0.31518 0.44642 -0.39900
O 	O 	0.72169 0.32781 0.35982 -0.36000
C 	C 	0.76178 0.25280 0.44265 0.28900
O 	O 	0.65659 0.31597 0.58638 -0.37900
O 	O 	0.75414 0.33311 0.60379 -0.42100
H 	H 	0.61292 0.25199 0.42084 0.16200
H 	H 	0.77174 0.39892 0.52928 0.17400
C 	C 	0.71869 0.28728 0.75151 -0.01500
C 	C 	0.67992 0.29926 0.77470 -0.07000
C 	C 	0.64993 0.32090 0.74712 -0.01000
C 	C 	0.65775 0.32919 0.69637 -0.01200
C 	C 	0.69600 0.31631 0.67302 -0.07000
C 	C 	0.72672 0.29576 0.70112 -0.01500
H 	H 	0.74262 0.27124 0.77258 0.02200
H 	H 	0.61985 0.33033 0.76458 0.04200
H 	H 	0.63411 0.34551 0.67535 0.04400
H 	H 	0.75603 0.28528 0.68360 0.02500
C 	C 	0.60581 0.28738 0.24601 -0.01400
C 	C 	0.66546 0.30997 0.27483 -0.06600
C 	C 	0.71420 0.31937 0.24921 -0.01000
C 	C 	0.70428 0.30941 0.19535 -0.01400
C 	C 	0.64579 0.29029 0.16679 -0.06600
C 	C 	0.59607 0.27775 0.19234 -0.01200
H 	H 	0.56741 0.27866 0.26526 0.02700
H 	H 	0.76039 0.33649 0.27092 0.04500
H 	H 	0.74278 0.31867 0.17598 0.03600
H 	H 	0.55018 0.26150 0.17063 0.03800
C 	C 	0.87247 0.64209 0.46265 -0.06700
C 	C 	0.83243 0.66121 0.46283 0.02600
C 	C 	0.76729 0.61675 0.46407 -0.06800
C 	C 	0.74200 0.55346 0.46453 0.01200
C 	C 	0.78164 0.53377 0.46354 -0.09000
C 	C 	0.84717 0.57858 0.46291 0.01400
C 	C 	0.85857 0.72771 0.46141 -0.00100
H 	H 	0.73614 0.63118 0.46442 0.04400
H 	H 	0.69131 0.51952 0.46473 0.02500
H 	H 	0.87845 0.56431 0.46255 0.03100
H 	H 	0.92298 0.67627 0.46192 0.04500
C 	C 	0.89808 0.77506 0.50518 -0.03900
C 	C 	0.92320 0.83818 0.50373 -0.03900
C 	C 	0.90943 0.85458 0.45834 -0.00100
C 	C 	0.86835 0.80689 0.41502 -0.03900
C 	C 	0.84294 0.74367 0.41658 -0.03900
H 	H 	0.90965 0.76301 0.54016 0.03800
H 	H 	0.95471 0.87462 0.53743 0.03700
H 	H 	0.85764 0.81903 0.37975 0.03700
H 	H 	0.81192 0.70726 0.38275 0.03700
C 	C 	0.85164 0.07661 0.46628 -0.03900
C 	C 	0.85714 0.10600 0.42375 -0.00200
C 	C 	0.88880 0.10170 0.38570 -0.03900
C 	C 	0.91581 0.06934 0.39067 -0.04000
C 	C 	0.91157 0.04118 0.43381 -0.00100
C 	C 	0.87871 0.04434 0.47127 -0.04000
C 	C 	0.83107 0.14257 0.41984 0.02500
H 	H 	0.89290 0.12381 0.35255 0.03700
H 	H 	0.94084 0.06695 0.36141 0.03600
H 	H 	0.87543 0.02308 0.50482 0.03600
H 	H 	0.82738 0.07972 0.49589 0.03400
C 	C 	0.76525 0.11238 0.41767 -0.07000
C 	C 	0.74180 0.14818 0.42131 0.01400
C 	C 	0.78394 0.21458 0.42718 -0.09800
C 	C 	0.84912 0.24435 0.42586 0.01200
C 	C 	0.87263 0.20849 0.42236 -0.06900
H 	H 	0.73259 0.06140 0.41479 0.04400
H 	H 	0.69122 0.12453 0.42144 0.02600
H 	H 	0.88213 0.29550 0.43015 0.02700
H 	H 	0.92347 0.23222 0.42361 0.04300
C 	C 	0.22223 0.14728 0.50990 -0.03900
C 	C 	0.24986 0.13293 0.47382 -0.00100
C 	C 	0.21032 0.08429 0.43077 -0.03900
C 	C 	0.14368 0.04986 0.42408 -0.03900
C 	C 	0.11599 0.06374 0.46041 -0.00100
C 	C 	0.15552 0.11279 0.50321 -0.03900
C 	C 	0.32020 0.17033 0.48002 0.02600
H 	H 	0.23128 0.07338 0.40242 0.03600
H 	H 	0.11350 0.01210 0.39089 0.03700
H 	H 	0.13452 0.12357 0.53161 0.03800
H 	H 	0.25242 0.18492 0.54316 0.03800
C 	C 	0.35697 0.23482 0.47692 -0.06800
C 	C 	0.42283 0.26898 0.47793 0.01500
C 	C 	0.45258 0.23890 0.48196 -0.09000
C 	C 	0.41624 0.17501 0.48718 0.01400
C 	C 	0.35024 0.14081 0.48611 -0.06800
H 	H 	0.33423 0.25808 0.47250 0.04500
H 	H 	0.45058 0.31858 0.47479 0.03100
H 	H 	0.43866 0.15134 0.49048 0.02700
H 	H 	0.32226 0.09112 0.48900 0.04400
C 	C 	0.88906 0.76286 0.01573 -0.05600
C 	C 	0.83590 0.72106 0.97597 0.01600
C 	C 	0.81736 0.74529 0.93968 -0.04100
C 	C 	0.85238 0.81087 0.94265 -0.04000
C 	C 	0.90615 0.85265 0.98197 0.01400
C 	C 	0.92400 0.82838 0.01875 -0.05500
C 	C 	0.79970 0.65197 0.97240 0.02300
H 	H 	0.77628 0.71334 0.90891 0.04000
H 	H 	0.83838 0.82918 0.91399 0.03900
H 	H 	0.96527 0.86031 0.04938 0.03600
H 	H 	0.90335 0.74455 0.04418 0.03600
C 	C 	0.82924 0.62264 0.96249 -0.06300
C 	C 	0.79581 0.55752 0.96127 0.01300
C 	C 	0.73255 0.52119 0.97008 -0.08600
C 	C 	0.70270 0.55049 0.97911 0.01400
C 	C 	0.73616 0.61557 0.98025 -0.06400
H 	H 	0.87824 0.65039 0.95614 0.04600
H 	H 	0.81944 0.53557 0.95440 0.03000
H 	H 	0.65364 0.52291 0.98528 0.03500
H 	H 	0.71296 0.63783 0.98782 0.04700
C 	C 	0.87151 0.21053 0.01957 -0.07300
C 	C 	0.83874 0.14551 0.01953 0.02700
C 	C 	0.77280 0.10754 0.02049 -0.07100
C 	C 	0.73919 0.13361 0.01845 0.01000
C 	C 	0.77124 0.19787 0.01516 -0.09700
C 	C 	0.83796 0.23662 0.01747 0.00900
C 	C 	0.87220 0.11627 0.01410 -0.01600
H 	H 	0.74715 0.05737 0.02087 0.04200
H 	H 	0.68782 0.10320 0.01704 0.02800
H 	H 	0.86351 0.28653 0.01603 0.02300
H 	H 	0.92263 0.24046 0.01973 0.04000
C 	C 	0.89669 0.11646 0.96932 -0.02800
C 	C 	0.92585 0.08633 0.96299 -0.01700
C 	C 	0.93080 0.05574 0.00138 -0.04000
C 	C 	0.90721 0.05639 0.04654 -0.03100
C 	C 	0.87796 0.08648 0.05284 -0.04200
H 	H 	0.89224 0.13911 0.93910 0.03600
H 	H 	0.94365 0.08587 0.92792 0.03200
H 	H 	0.91111 0.03319 0.07653 0.03100
H 	H 	0.85946 0.08632 0.08764 0.03700
C 	C 	0.22850 0.12093 0.01111 -0.05700
C 	C 	0.24302 0.10413 0.96587 0.02000
C 	C 	0.19378 0.06381 0.92310 -0.04300
C 	C 	0.13020 0.03857 0.92620 -0.03900
C 	C 	0.11538 0.05338 0.97214 0.01400
C 	C 	0.16493 0.09563 0.01424 -0.05400
C 	C 	0.30936 0.12683 0.96405 0.01600
H 	H 	0.20459 0.05090 0.88791 0.03900
H 	H 	0.09227 0.00623 0.89341 0.03800
H 	H 	0.15397 0.10736 0.04984 0.03700
H 	H 	0.26633 0.15265 0.04413 0.03700
C 	C 	0.34381 0.16824 0.93099 -0.06200
C 	C 	0.40843 0.19399 0.93247 0.01000
C 	C 	0.43929 0.17882 0.96732 -0.09100
C 	C 	0.40369 0.13470 0.99846 0.02600
C 	C 	0.33909 0.10895 0.99686 -0.04700
H 	H 	0.32099 0.18168 0.90505 0.04500
H 	H 	0.43488 0.22694 0.90748 0.03200
H 	H 	0.42656 0.12211 0.02527 0.02300
H 	H 	0.31251 0.07615 0.02192 0.03000
