data_crystal

_cell_length_a 19.95157
_cell_length_b 21.52168
_cell_length_c 27.94749
_cell_angle_alpha 60.80006
_cell_angle_beta  118.88153
_cell_angle_gamma 133.20481

_symmetry_space_group_name_	'P 1'
_symmetry_space_group_name_H-M	'P 1'

loop_
_symmetry_equiv_pos_as_xyz
  x,y,z

loop_
_atom_site_label
_atom_site_type_symbol
_atom_site_fract_x
_atom_site_fract_y
_atom_site_fract_z
_atom_site_charge
C 	C 	0.28059 0.63540 0.23203 0.03200
C 	C 	0.36993 0.67722 0.22488 -0.07100
C 	C 	0.39287 0.62772 0.22613 0.03700
C 	C 	0.32406 0.53921 0.22687 -0.07600
C 	C 	0.22978 0.50214 0.21868 0.03400
C 	C 	0.20711 0.54797 0.22421 -0.07400
H 	H 	0.41893 0.74813 0.21452 0.05800
H 	H 	0.34210 0.50181 0.22673 0.05500
H 	H 	0.13414 0.51795 0.21974 0.04700
C 	C 	0.25775 0.65195 0.72178 0.03400
C 	C 	0.35586 0.70074 0.73063 -0.07300
C 	C 	0.39111 0.68972 0.70506 0.03700
C 	C 	0.33305 0.61601 0.68427 -0.07600
C 	C 	0.23869 0.55414 0.68734 0.03600
C 	C 	0.19833 0.57393 0.70311 -0.07400
H 	H 	0.40358 0.75410 0.75126 0.06000
H 	H 	0.36236 0.60495 0.66759 0.05700
H 	H 	0.12300 0.53048 0.70031 0.05000
Co	Co	0.06143 0.01843 0.04997 1.15900
C 	C 	0.25244 0.08868 0.05641 0.31600
Co	Co	0.11029 0.90150 0.05038 1.17800
O 	O 	0.05022 0.11072 0.04115 -0.48600
C 	C 	0.03788 0.20006 0.14512 0.29000
C 	C 	0.18828 0.85657 0.17479 0.28300
O 	O 	0.07454 0.17496 0.13543 -0.39800
O 	O 	0.20598 0.89127 0.12491 -0.38000
O 	O 	0.16150 0.88623 0.18877 -0.38100
O 	O 	0.05159 0.92295 0.08175 -0.73000
C 	C 	0.00411 0.99784 0.29000 0.29800
O 	O 	0.20866 0.03568 0.02471 -0.44500
O 	O 	0.20488 0.08994 0.07528 -0.42900
Co	Co	0.08414 0.03893 0.55350 1.16200
Co	Co	0.02816 0.12134 0.59207 1.17100
C 	C 	0.26284 0.05196 0.59121 0.24600
Co	Co	0.08976 0.88323 0.56538 1.17100
O 	O 	0.09720 0.14819 0.54168 -0.47500
C 	C 	0.12422 0.24088 0.66944 0.29800
C 	C 	0.08665 0.79108 0.68534 0.30900
O 	O 	0.12683 0.97960 0.49217 -0.35800
O 	O 	0.06513 0.17739 0.70214 -0.41000
O 	O 	0.13616 0.22383 0.63502 -0.38500
O 	O 	0.05618 0.77871 0.63573 -0.41500
O 	O 	0.08026 0.84388 0.69133 -0.39000
O 	O 	0.04269 0.93229 0.58135 -0.74100
O 	O 	0.22427 0.96700 0.60747 -0.34900
O 	O 	0.22394 0.08222 0.59227 -0.39900
C 	C 	0.17355 0.33189 0.67012 -0.09400
C 	C 	0.14565 0.38346 0.62337 -0.00700
C 	C 	0.15151 0.44792 0.63012 -0.00300
C 	C 	0.19022 0.46478 0.68365 -0.00100
C 	C 	0.21685 0.41232 0.73021 -0.07000
C 	C 	0.21607 0.35187 0.72288 0.05600
S 	S 	0.10994 0.50697 0.57129 -0.04200
S 	S 	0.26627 0.29925 0.78073 -0.04600
H 	H 	0.19925 0.22419 0.81006 0.04100
H 	H 	0.01652 0.46353 0.56735 0.03400
H 	H 	0.11341 0.36951 0.58239 0.04200
H 	H 	0.24817 0.42552 0.77138 0.05300
S 	S 	0.39908 0.81048 0.58549 -0.02500
H 	H 	0.35272 0.74557 0.56004 0.03800
C 	C 	0.21872 0.68979 0.72458 0.00300
C 	C 	0.14136 0.63562 0.74906 -0.06600
C 	C 	0.10497 0.67235 0.75047 0.05400
C 	C 	0.14765 0.76360 0.72848 -0.09000
C 	C 	0.23895 0.81675 0.72140 -0.00700
C 	C 	0.26467 0.78223 0.70764 -0.00200
S 	S 	0.00050 0.60300 0.77350 -0.05300
S 	S 	0.33133 0.85022 0.65628 -0.01900
H 	H 	0.27210 0.84986 0.60369 0.03000
H 	H 	0.02285 0.59383 0.83014 0.04200
H 	H 	0.10828 0.56558 0.76554 0.04900
H 	H 	0.27828 0.88745 0.71174 0.05900
C 	C 	0.15678 0.42080 0.19767 -0.00300
C 	C 	0.14432 0.42904 0.14124 -0.06800
C 	C 	0.12115 0.36187 0.12585 0.05000
C 	C 	0.09843 0.28081 0.16519 -0.08400
C 	C 	0.10620 0.27104 0.22086 -0.01600
C 	C 	0.13242 0.33915 0.23669 0.00000
S 	S 	0.13105 0.38360 0.05933 -0.05200
S 	S 	0.13987 0.32306 0.30668 -0.04300
H 	H 	0.22924 0.34815 0.33837 0.03700
H 	H 	0.04421 0.35008 0.02272 0.03300
H 	H 	0.16365 0.49171 0.11084 0.04800
H 	H 	0.08991 0.20967 0.25179 0.04700
H 	H 	0.36649 0.64413 0.08699 0.03700
C 	C 	0.26399 0.68631 0.24351 0.00200
C 	C 	0.17357 0.65154 0.24459 -0.06500
C 	C 	0.15463 0.70914 0.23630 0.04300
C 	C 	0.22101 0.80089 0.21855 -0.08000
C 	C 	0.31478 0.83317 0.22830 -0.00200
C 	C 	0.33767 0.77444 0.24824 -0.00200
S 	S 	0.06354 0.66868 0.26240 -0.05600
S 	S 	0.44723 0.80149 0.29616 -0.03000
H 	H 	0.43971 0.77892 0.34932 0.04200
H 	H 	0.12029 0.58126 0.25445 0.04600
H 	H 	0.37009 0.90322 0.22219 0.05200
C 	C 	0.34675 0.11321 0.56836 -0.08800
C 	C 	0.33957 0.15773 0.51114 -0.01300
C 	C 	0.41557 0.20942 0.48675 -0.00000
C 	C 	0.43152 0.12195 0.60166 0.04800
S 	S 	0.40491 0.26514 0.41494 -0.04700
S 	S 	0.45036 0.08391 0.67559 -0.05900
H 	H 	0.44817 0.01119 0.69317 0.02500
H 	H 	0.43557 0.34732 0.40978 0.03600
H 	H 	0.27492 0.15242 0.48568 0.03600
S 	S 	0.10585 0.69168 0.10636 -0.06500
H 	H 	0.15872 0.66091 0.12781 0.04000
C 	C 	0.50214 0.17549 0.12175 -0.07700
C 	C 	0.41232 0.14496 0.11792 0.05900
C 	C 	0.35359 0.15352 0.06467 -0.10600
C 	C 	0.39167 0.20887 0.01716 -0.01300
C 	C 	0.48408 0.24545 0.02115 -0.01500
S 	S 	0.37537 0.09934 0.17996 -0.06600
S 	S 	0.53113 0.31827 0.96087 -0.02200
H 	H 	0.35758 0.01813 0.20531 0.03000
H 	H 	0.34745 0.21941 0.97645 0.05100
S 	S 	0.42132 0.71842 0.10530 -0.03800
Co	Co	0.03130 0.86661 0.14808 1.17600
C 	C 	0.02147 0.97312 0.94358 0.33800
O 	O 	0.02293 0.02045 0.96280 -0.40300
O 	O 	0.02458 0.96205 0.27530 -0.36400
C 	C 	0.07144 0.00255 0.45470 0.25800
O 	O 	0.04445 0.03201 0.46923 -0.38500
C 	C 	0.00892 0.98917 0.88354 -0.03800
C 	C 	0.02836 0.99635 0.34902 0.03900
C 	C 	0.04587 0.00034 0.39640 -0.12400
C 	C 	0.50604 0.17076 0.57671 -0.07000
C 	C 	0.53802 0.22407 0.07335 0.00500
C 	C 	0.50025 0.21788 0.51998 -0.00400
C 	C 	0.48529 0.75962 0.69412 0.00600
C 	C 	0.48643 0.67054 0.22027 0.00200
H 	H 	0.54476 0.16244 0.16242 0.04500
C 	C 	0.49620 0.81474 0.63943 -0.00300
H 	H 	0.55326 0.39844 0.95177 0.03900
C 	C 	0.50723 0.71467 0.16674 -0.00300
H 	H 	0.59951 0.20572 0.01614 0.04600
C 	C 	0.56207 0.76030 0.73516 -0.06900
H 	H 	0.55301 0.71664 0.77687 0.05600
C 	C 	0.55107 0.65773 0.26735 -0.07000
H 	H 	0.53241 0.61787 0.30781 0.05300
H 	H 	0.57197 0.17873 0.60263 0.04700
C 	C 	0.63498 0.25976 0.07928 0.03000
C 	C 	0.58863 0.29185 0.50144 0.03700
H 	H 	0.58166 0.22381 0.46126 0.04800
C 	C 	0.58369 0.86987 0.62666 0.01000
H 	H 	0.59194 0.91217 0.58471 0.05500
C 	C 	0.59693 0.75525 0.16220 -0.00600
S 	S 	0.59778 0.96664 0.06777 0.01900
H 	H 	0.60835 0.92162 0.12310 0.03400
C 	C 	0.65620 0.25048 0.04333 -0.07500
C 	C 	0.62768 0.27838 0.48045 -0.07600
H 	H 	0.61074 0.38269 0.52937 0.05600
C 	C 	0.63933 0.69576 0.26213 0.06100
H 	H 	0.61558 0.79494 0.12173 0.04400
H 	H 	0.65921 0.11119 0.09723 0.03200
C 	C 	0.64298 0.36970 0.51675 -0.07800
H 	H 	0.69308 0.31169 0.14961 0.05200
C 	C 	0.65947 0.86786 0.66696 -0.10400
C 	C 	0.64814 0.81170 0.72148 0.06400
C 	C 	0.66554 0.75170 0.21057 -0.09700
S 	S 	0.68576 0.45746 0.06226 -0.03900
H 	H 	0.65810 0.05350 0.44443 0.03100
H 	H 	0.65380 0.15837 0.50838 0.04500
O 	O 	0.01361 0.90126 0.97616 -0.37800
H 	H 	0.69513 0.51073 0.00898 0.03700
C 	C 	0.70853 0.30948 0.11843 -0.07300
C 	C 	0.70606 0.13599 0.07336 -0.05400
S 	S 	0.69515 0.06111 0.49884 -0.06700
C 	C 	0.69860 0.07672 0.06025 -0.01500
C 	C 	0.72671 0.33041 0.48894 0.03200
S 	S 	0.71702 0.67363 0.32021 -0.04300
S 	S 	0.73377 0.69628 0.44533 -0.03800
H 	H 	0.72569 0.55986 0.44300 0.05200
H 	H 	0.69978 0.60010 0.32021 0.03900
C 	C 	0.72199 0.20445 0.49807 -0.07300
C 	C 	0.75001 0.28499 0.05097 0.03100
C 	C 	0.73938 0.42912 0.51859 0.03500
C 	C 	0.75058 0.92673 0.65260 0.35800
S 	S 	0.73918 0.80176 0.77206 -0.02500
H 	H 	0.73252 0.73832 0.76573 0.04200
O 	O 	0.00646 0.76915 0.06721 -0.39100
C 	C 	0.76523 0.57231 0.48460 -0.06600
C 	C 	0.76460 0.82478 0.21081 0.31300
C 	C 	0.76980 0.29622 0.48570 0.00200
C 	C 	0.76358 0.17182 0.49863 0.05600
C 	C 	0.77067 0.10576 0.04035 -0.06500
C 	C 	0.76613 0.22696 0.05071 -0.00500
O 	O 	0.99643 0.97253 0.75600 -0.37200
C 	C 	0.99439 0.99191 0.83489 -0.02500
O 	O 	0.98261 0.05209 0.25203 -0.42600
Co	Co	0.98502 0.06776 0.09944 1.16500
Co	Co	0.98003 0.86687 0.63128 1.18800
O 	O 	0.94646 0.15086 0.13962 -0.40100
C 	C 	0.96591 0.99293 0.77553 0.34500
H 	H 	0.86119 0.46022 0.37343 0.03800
C 	C 	0.79910 0.49243 0.10705 -0.00200
H 	H 	0.80840 0.57924 0.13066 0.04700
C 	C 	0.82269 0.35542 0.07805 -0.07100
C 	C 	0.79777 0.37353 0.10709 0.03100
H 	H 	0.89588 0.39196 0.07855 0.05200
C 	C 	0.78333 0.40689 0.50878 -0.07300
H 	H 	0.85966 0.44639 0.51840 0.05500
Co	Co	0.95772 0.91877 0.19915 1.18500
Co	Co	0.87425 0.01866 0.18185 1.14500
C 	C 	0.98051 0.72107 0.11490 0.29800
O 	O 	0.77828 0.98652 0.10780 -0.34500
O 	O 	0.93972 0.99715 0.15741 -0.72400
C 	C 	0.80028 0.04789 0.06116 0.23100
O 	O 	0.99836 0.84323 0.21681 -0.45600
O 	O 	0.97702 0.94909 0.11435 -0.55300
O 	O 	0.87072 0.07503 0.04471 -0.37900
O 	O 	0.80271 0.89081 0.22895 -0.39400
O 	O 	0.81716 0.81820 0.20072 -0.38800
O 	O 	0.95213 0.74204 0.13579 -0.38200
Co	Co	0.93213 0.95040 0.67367 1.19800
Co	Co	0.92432 0.10050 0.66658 1.17000
C 	C 	0.88652 0.74438 0.55592 0.29300
O 	O 	0.94691 0.20373 0.59516 -0.40900
O 	O 	0.96167 0.05297 0.64082 -0.77900
C 	C 	0.91720 0.19467 0.54438 0.30900
O 	O 	0.92037 0.84202 0.68625 -0.46000
O 	O 	0.98078 0.98677 0.59957 -0.54800
O 	O 	0.93698 0.15660 0.53286 -0.38900
O 	O 	0.78773 0.01144 0.63099 -0.43600
O 	O 	0.78851 0.89228 0.65578 -0.38200
O 	O 	0.90226 0.00714 0.74217 -0.45600
O 	O 	0.95019 0.80892 0.52565 -0.37900
O 	O 	0.87816 0.75764 0.59456 -0.36600
H 	H 	0.97924 0.59794 0.24255 0.04500
C 	C 	0.86031 0.22700 0.50096 -0.09800
C 	C 	0.90511 0.31844 0.48216 -0.00200
C 	C 	0.85768 0.35299 0.47085 -0.00500
S 	S 	0.89968 0.46109 0.42928 -0.03800
H 	H 	0.97774 0.36268 0.47856 0.03900
C 	C 	0.79100 0.51657 0.52695 -0.00000
C 	C 	0.78038 0.63721 0.49715 0.05400
C 	C 	0.83187 0.65458 0.55085 -0.08500
C 	C 	0.85755 0.59889 0.59349 -0.01000
C 	C 	0.83872 0.53109 0.58166 0.00100
S 	S 	0.87554 0.46515 0.63563 -0.04300
H 	H 	0.80379 0.39263 0.66230 0.03600
H 	H 	0.79992 0.77126 0.41541 0.05400
H 	H 	0.89680 0.61124 0.63513 0.05100
C 	C 	0.83129 0.19662 0.01677 -0.03100
C 	C 	0.82589 0.25699 0.01943 -0.00300
S 	S 	0.88846 0.36702 0.98065 -0.02300
H 	H 	0.83260 0.37569 0.92795 0.03800
H 	H 	0.88306 0.22035 0.99731 0.06200
C 	C 	0.94421 0.62861 0.12899 -0.09000
C 	C 	0.84806 0.56427 0.12767 -0.00400
C 	C 	0.84913 0.46484 0.11030 0.00400
C 	C 	0.94798 0.52273 0.12092 -0.07100
C 	C 	0.99439 0.60811 0.12338 0.06000
H 	H 	0.98828 0.50428 0.12317 0.04900
