data_crystal

_cell_length_a 18.63009
_cell_length_b 18.89496
_cell_length_c 40.10410
_cell_angle_alpha 95.41343
_cell_angle_beta  95.41320
_cell_angle_gamma 126.38368

_symmetry_space_group_name_	'P 1'
_symmetry_space_group_name_H-M	'P 1'

loop_
_symmetry_equiv_pos_as_xyz
  x,y,z

loop_
_atom_site_label
_atom_site_type_symbol
_atom_site_fract_x
_atom_site_fract_y
_atom_site_fract_z
_atom_site_charge
C 	C 	0.08467 0.03725 0.50190 0.02500
C 	C 	0.87548 0.16970 0.47275 0.01000
C 	C 	0.23224 0.07216 0.52698 -0.06200
H 	H 	0.35899 0.09631 0.54421 0.03700
C 	C 	0.89870 0.99433 0.96458 0.01300
C 	C 	0.85285 0.90209 0.96435 -0.06300
C 	C 	0.90197 0.86708 0.96572 0.01600
C 	C 	0.99619 0.92446 0.96784 -0.05800
C 	C 	0.04146 0.01564 0.96802 0.00900
C 	C 	0.99298 0.05048 0.96631 -0.05600
H 	H 	0.78003 0.85823 0.96309 0.04600
H 	H 	0.03437 0.89805 0.96935 0.04400
H 	H 	0.02879 0.12156 0.96694 0.04300
C 	C 	0.95802 0.04322 0.50390 0.02500
C 	C 	0.05098 0.08695 0.50410 -0.07300
C 	C 	0.02540 0.94429 0.49934 -0.07400
C 	C 	0.93322 0.90089 0.49946 0.02500
C 	C 	0.89950 0.95013 0.50175 -0.07200
H 	H 	0.09659 0.15892 0.50587 0.04700
H 	H 	0.05108 0.90570 0.49734 0.04900
H 	H 	0.82765 0.91597 0.50129 0.04900
Cu	Cu	0.74989 0.33939 0.96351 0.92500
Cu	Cu	0.74320 0.27769 0.03767 0.86800
Cu	Cu	0.60735 0.29702 0.00700 0.89600
Cu	Cu	0.58115 0.33300 0.93757 0.89400
C 	C 	0.68291 0.30529 0.89155 0.28800
O 	O 	0.80269 0.46978 0.96135 -0.35900
C 	C 	0.66807 0.33293 0.08225 0.28600
O 	O 	0.60869 0.26674 0.96012 -0.63800
O 	O 	0.74033 0.35755 0.01185 -0.64300
O 	O 	0.80892 0.27862 0.96799 -0.37200
O 	O 	0.71193 0.18771 0.00098 -0.44500
O 	O 	0.64589 0.34527 0.89893 -0.38700
O 	O 	0.47696 0.22981 0.99964 -0.38400
C 	C 	0.42644 0.22930 0.97400 0.29100
C 	C 	0.76174 0.50367 0.97149 0.28100
O 	O 	0.67816 0.44992 0.97638 -0.39500
O 	O 	0.46282 0.28341 0.95194 -0.39600
O 	O 	0.73564 0.30361 0.91546 -0.36500
C 	C 	0.76943 0.20461 0.98069 0.28800
O 	O 	0.60458 0.31121 0.05632 -0.38600
O 	O 	0.74065 0.33950 0.07733 -0.42300
H 	H 	0.56933 0.20171 0.95075 0.16400
H 	H 	0.77852 0.42061 0.02390 0.17300
Cu	Cu	0.62617 0.20844 0.50713 0.92700
Cu	Cu	0.69072 0.21541 0.43343 0.86900
Cu	Cu	0.66658 0.34732 0.46318 0.89700
Cu	Cu	0.62541 0.37029 0.53193 0.89400
C 	C 	0.65628 0.27304 0.57887 0.30500
O 	O 	0.49376 0.15228 0.50870 -0.36200
C 	C 	0.63280 0.28685 0.38820 0.30600
O 	O 	0.69648 0.34704 0.51026 -0.64000
O 	O 	0.60803 0.21678 0.45862 -0.64100
O 	O 	0.68706 0.15039 0.50321 -0.37300
O 	O 	0.78073 0.24597 0.47061 -0.44200
O 	O 	0.61448 0.30798 0.57099 -0.38800
O 	O 	0.73135 0.47532 0.47054 -0.38500
C 	C 	0.72624 0.52311 0.49513 0.29200
C 	C 	0.45663 0.18926 0.49771 0.28300
O 	O 	0.50873 0.27188 0.49283 -0.39700
O 	O 	0.67127 0.48551 0.51704 -0.39600
O 	O 	0.66193 0.22361 0.55530 -0.36400
C 	C 	0.76236 0.18893 0.49087 0.28800
O 	O 	0.65545 0.35028 0.41381 -0.38700
O 	O 	0.62833 0.21662 0.39329 -0.42400
H 	H 	0.76222 0.38744 0.52004 0.16400
H 	H 	0.54423 0.17784 0.44633 0.17300
C 	C 	0.68367 0.28260 0.85540 -0.08600
C 	C 	0.60756 0.24950 0.83035 0.01300
C 	C 	0.61178 0.23901 0.79578 -0.06600
C 	C 	0.69207 0.26129 0.78588 0.02600
C 	C 	0.76697 0.29071 0.81086 -0.06600
C 	C 	0.76279 0.30118 0.84549 0.01500
C 	C 	0.69965 0.26001 0.74951 0.00200
C 	C 	0.64037 0.18002 0.72557 -0.04100
C 	C 	0.63890 0.18107 0.69067 -0.03300
C 	C 	0.69682 0.26197 0.67949 -0.00700
C 	C 	0.75899 0.34119 0.70341 -0.03300
C 	C 	0.76047 0.34027 0.73830 -0.04000
C 	C 	0.68538 0.26536 0.64375 0.04300
C 	C 	0.67353 0.26867 0.61401 -0.10500
H 	H 	0.54576 0.23379 0.83765 0.02200
H 	H 	0.55348 0.21596 0.77670 0.04500
H 	H 	0.82902 0.30738 0.80347 0.04600
H 	H 	0.82200 0.32660 0.86451 0.03800
H 	H 	0.59370 0.11758 0.73395 0.03900
H 	H 	0.59083 0.11949 0.67235 0.04000
H 	H 	0.80408 0.40397 0.69497 0.03700
H 	H 	0.80658 0.40236 0.75655 0.03900
C 	C 	0.65508 0.34547 0.11757 -0.09000
C 	C 	0.73007 0.39416 0.14463 0.01100
C 	C 	0.71699 0.39436 0.17839 -0.06700
C 	C 	0.62888 0.34659 0.18551 0.02400
C 	C 	0.55417 0.30243 0.15854 -0.06700
C 	C 	0.56713 0.30180 0.12473 0.01000
C 	C 	0.61467 0.33604 0.22091 0.00100
C 	C 	0.56584 0.25052 0.22939 -0.04200
C 	C 	0.56172 0.24106 0.26347 -0.03400
C 	C 	0.60649 0.31690 0.28935 -0.00900
C 	C 	0.65221 0.40214 0.28086 -0.03400
C 	C 	0.65611 0.41172 0.24674 -0.04200
C 	C 	0.61353 0.30777 0.32456 0.04300
C 	C 	0.62120 0.29888 0.35379 -0.11300
H 	H 	0.79841 0.42992 0.13954 0.02900
H 	H 	0.77519 0.42918 0.19900 0.04300
H 	H 	0.48593 0.26640 0.16376 0.04400
H 	H 	0.50861 0.26459 0.10419 0.03400
H 	H 	0.53366 0.19166 0.20970 0.03600
H 	H 	0.52616 0.17494 0.26983 0.03600
H 	H 	0.68681 0.46109 0.30071 0.03800
H 	H 	0.69322 0.47798 0.24047 0.03800
C 	C 	0.84739 0.74613 0.46677 -0.06200
C 	C 	0.87235 0.80376 0.49756 0.01600
C 	C 	0.84639 0.76891 0.52722 -0.06300
C 	C 	0.79803 0.67719 0.52637 0.01100
C 	C 	0.77486 0.61945 0.49574 -0.08800
C 	C 	0.79872 0.65431 0.46581 0.01200
H 	H 	0.86720 0.77275 0.44374 0.04400
H 	H 	0.86582 0.81322 0.55112 0.04400
H 	H 	0.78017 0.65126 0.54965 0.02800
H 	H 	0.77989 0.61043 0.44187 0.03800
C 	C 	0.87000 0.08899 0.52849 -0.06300
C 	C 	0.92052 0.09358 0.50374 0.01700
C 	C 	0.92487 0.13617 0.47636 -0.06400
C 	C 	0.82085 0.16075 0.49648 -0.09500
C 	C 	0.82014 0.12214 0.52482 0.01400
H 	H 	0.86706 0.05716 0.54996 0.04500
H 	H 	0.96359 0.14008 0.45711 0.04200
H 	H 	0.87735 0.19994 0.45088 0.01700
H 	H 	0.78010 0.11666 0.54375 0.03900
C 	C 	0.18189 0.08190 0.50210 0.01500
C 	C 	0.22125 0.12439 0.47512 -0.06200
C 	C 	0.30995 0.15638 0.47295 0.01000
C 	C 	0.35993 0.14575 0.49764 -0.08900
C 	C 	0.32051 0.10329 0.52462 0.01100
H 	H 	0.20238 0.03928 0.54788 0.04400
H 	H 	0.18258 0.13116 0.45554 0.04200
H 	H 	0.33995 0.18967 0.45214 0.02800
C 	C 	0.81854 0.73278 0.99324 -0.06100
C 	C 	0.85577 0.77049 0.96516 0.01800
C 	C 	0.86408 0.72078 0.93959 -0.06200
C 	C 	0.83811 0.63561 0.94259 0.01000
C 	C 	0.80190 0.59833 0.97088 -0.08800
C 	C 	0.79148 0.64707 0.99603 0.01200
H 	H 	0.81288 0.77075 0.01336 0.04000
H 	H 	0.89305 0.74924 0.91784 0.04500
H 	H 	0.84434 0.59792 0.92256 0.03600
H 	H 	0.76231 0.61851 0.01774 0.02600
C 	C 	0.81078 0.03417 0.99338 -0.06200
C 	C 	0.84968 0.03388 0.96513 0.02000
C 	C 	0.85648 0.08533 0.94065 -0.06400
C 	C 	0.82973 0.14050 0.94546 0.01400
C 	C 	0.79488 0.14402 0.97462 -0.09400
C 	C 	0.78357 0.08881 0.99812 0.01200
H 	H 	0.80545 0.99522 0.01250 0.03900
H 	H 	0.88581 0.08524 0.91858 0.04500
H 	H 	0.83689 0.18088 0.92669 0.03700
H 	H 	0.75609 0.09006 0.02061 0.01400
C 	C 	0.26924 0.14963 0.94160 0.01200
C 	C 	0.32788 0.17646 0.97272 -0.08700
C 	C 	0.29191 0.15290 0.00254 0.01100
C 	C 	0.19834 0.10208 0.00111 -0.06800
C 	C 	0.14004 0.07469 0.96995 0.02400
C 	C 	0.17576 0.09914 0.94028 -0.06700
H 	H 	0.29596 0.16686 0.91838 0.02600
H 	H 	0.33632 0.17410 0.02681 0.03600
H 	H 	0.17102 0.08331 0.02414 0.04400
H 	H 	0.13092 0.07772 0.91609 0.04400
