data_crystal

_cell_length_a 42.84588
_cell_length_b 44.86483
_cell_length_c 22.56244
_cell_angle_alpha 89.84212
_cell_angle_beta  90.00000
_cell_angle_gamma 90.00028

_symmetry_space_group_name_	'P 1'
_symmetry_space_group_name_H-M	'P 1'

loop_
_symmetry_equiv_pos_as_xyz
  x,y,z

loop_
_atom_site_label
_atom_site_type_symbol
_atom_site_fract_x
_atom_site_fract_y
_atom_site_fract_z
_atom_site_charge
C 	C 	0.49664 0.56262 0.92451 0.10900
N 	N 	0.48148 0.53700 0.93641 -0.17200
C 	C 	0.45177 0.54092 0.91842 0.10500
C 	C 	0.42581 0.52147 0.93849 -0.07100
C 	C 	0.43139 0.48949 0.94933 0.09300
C 	C 	0.39341 0.53262 0.93828 0.04800
C 	C 	0.37948 0.54219 0.99115 -0.04800
C 	C 	0.34795 0.55029 0.99188 -0.01600
C 	C 	0.33029 0.54915 0.93957 0.00400
C 	C 	0.37587 0.53195 0.88583 -0.05100
N 	N 	0.45355 0.47376 0.92080 -0.12300
C 	C 	0.41961 0.47385 0.99722 -0.05100
C 	C 	0.45536 0.44765 0.95023 0.09200
C 	C 	0.48047 0.42569 0.94023 -0.06900
C 	C 	0.47482 0.39396 0.95421 0.04100
C 	C 	0.44213 0.35007 0.94510 -0.02500
C 	C 	0.49211 0.37977 0.99889 -0.04000
C 	C 	0.48400 0.35103 0.01754 -0.03100
C 	C 	0.45847 0.33638 0.99171 0.01800
N 	N 	0.52567 0.45979 0.92896 -0.17200
C 	C 	0.55478 0.45721 0.90698 0.10500
C 	C 	0.55783 0.43081 0.87571 -0.05600
C 	C 	0.52922 0.41666 0.87918 -0.05600
C 	C 	0.58128 0.47561 0.92826 -0.07000
C 	C 	0.61367 0.46422 0.92523 0.04700
C 	C 	0.66705 0.46986 0.89107 -0.01500
C 	C 	0.67596 0.44463 0.92392 0.00500
C 	C 	0.65336 0.42890 0.95664 -0.02100
C 	C 	0.62244 0.43893 0.95794 -0.05300
N 	N 	0.55314 0.52392 0.92215 -0.12400
C 	C 	0.57351 0.54681 0.00216 -0.06900
C 	C 	0.55208 0.54845 0.95645 0.10000
C 	C 	0.52662 0.57058 0.95310 -0.07600
C 	C 	0.53247 0.60155 0.97216 0.05500
C 	C 	0.55420 0.61920 0.94160 -0.05600
C 	C 	0.55901 0.64882 0.95827 -0.00900
C 	C 	0.54234 0.66092 0.00597 -0.00300
C 	C 	0.52084 0.64315 0.03700 -0.01700
C 	C 	0.51590 0.61356 0.02007 -0.06100
C 	C 	0.47656 0.58311 0.89871 -0.05600
C 	C 	0.44785 0.56925 0.89487 -0.05600
C 	C 	0.34447 0.54038 0.88639 -0.01600
C 	C 	0.43504 0.44693 0.99782 -0.05200
C 	C 	0.51009 0.43516 0.91218 0.10500
C 	C 	0.58886 0.52008 0.99518 -0.04500
C 	C 	0.57593 0.50689 0.94565 0.08900
C 	C 	0.63607 0.47951 0.89152 -0.05000
H 	H 	0.48838 0.52178 0.96902 0.09700
H 	H 	0.51975 0.47278 0.96566 0.09700
H 	H 	0.57561 0.66239 0.93402 0.05700
H 	H 	0.50767 0.65238 0.07359 0.05100
H 	H 	0.56706 0.61008 0.90449 0.06200
H 	H 	0.49907 0.60005 0.04386 0.05600
H 	H 	0.33721 0.55723 0.03306 0.05500
H 	H 	0.38649 0.52459 0.84482 0.06200
H 	H 	0.33102 0.53956 0.84577 0.06000
H 	H 	0.39292 0.54286 0.03180 0.05200
H 	H 	0.49697 0.34051 0.05310 0.06000
H 	H 	0.51122 0.39132 0.02031 0.04900
C 	C 	0.45024 0.37876 0.92653 -0.04500
H 	H 	0.42284 0.33867 0.92394 0.06000
H 	H 	0.68422 0.48219 0.86565 0.06100
H 	H 	0.62950 0.49902 0.86603 0.06100
H 	H 	0.60531 0.42704 0.98427 0.05400
H 	H 	0.65971 0.40896 0.98098 0.05200
H 	H 	0.47989 0.60703 0.89889 0.06200
H 	H 	0.42581 0.58095 0.89196 0.06100
H 	H 	0.40860 0.48387 0.03547 0.05400
H 	H 	0.43773 0.43288 0.03656 0.05500
H 	H 	0.57967 0.41972 0.86608 0.06100
H 	H 	0.52575 0.39295 0.87334 0.06300
H 	H 	0.57175 0.55882 0.04357 0.06000
H 	H 	0.60084 0.50822 0.03030 0.05300
H 	H 	0.43700 0.38944 0.89151 0.06100
Co	Co	0.39545 0.12083 0.07077 1.19300
Co	Co	0.39224 0.05186 0.04893 1.11700
O 	O 	0.39744 0.16538 0.08664 -0.31400
O 	O 	0.44243 0.14738 0.06928 -0.23600
O 	O 	0.35091 0.10999 0.07535 -0.36800
O 	O 	0.42708 0.07185 0.00638 -0.43700
C 	C 	0.33809 0.09165 0.03691 0.30100
C 	C 	0.42679 0.17103 0.08212 0.28900
O 	O 	0.35549 0.07240 0.00801 -0.39600
O 	O 	0.40182 0.11492 0.98701 -0.37200
C 	C 	0.42117 0.09406 0.97022 0.33400
O 	O 	0.40897 0.10429 0.14567 -0.38000
O 	O 	0.38127 0.06138 0.13201 -0.40600
C 	C 	0.39892 0.07841 0.16525 0.31900
C 	C 	0.48669 0.97612 0.52956 0.03900
C 	C 	0.46748 0.00191 0.52726 0.04200
C 	C 	0.50967 0.97349 0.57378 -0.04000
C 	C 	0.51314 0.99598 0.61661 0.04600
C 	C 	0.47167 0.02483 0.56876 -0.03700
C 	C 	0.49403 0.02189 0.61394 0.04600
H 	H 	0.45726 0.04463 0.56648 0.07800
H 	H 	0.52438 0.95387 0.57542 0.07900
C 	C 	0.49747 0.04402 0.65793 -0.01300
C 	C 	0.51690 0.03940 0.70732 0.03800
C 	C 	0.50730 0.05574 0.75825 -0.00800
C 	C 	0.48040 0.07265 0.74857 -0.00600
S 	S 	0.46906 0.06726 0.67879 0.12900
H 	H 	0.51699 0.05244 0.80201 0.07600
C 	C 	0.53509 0.99328 0.66308 -0.01400
C 	C 	0.53604 0.01402 0.70961 0.03900
C 	C 	0.54896 0.00214 0.76282 -0.00800
C 	C 	0.55746 0.97222 0.75780 -0.00500
S 	S 	0.54886 0.96094 0.68930 0.13000
H 	H 	0.54906 0.01376 0.80472 0.07600
C 	C 	0.45874 0.95554 0.44386 0.03800
C 	C 	0.48135 0.95295 0.48858 -0.01000
S 	S 	0.50857 0.92933 0.46455 0.10700
C 	C 	0.49211 0.91991 0.40023 0.02800
C 	C 	0.46461 0.93653 0.39459 -0.01900
C 	C 	0.44376 0.00363 0.48398 -0.00600
C 	C 	0.44007 0.98126 0.44102 0.03300
C 	C 	0.42552 0.99180 0.38813 -0.00800
C 	C 	0.41886 0.02228 0.38963 -0.00200
S 	S 	0.43054 0.03546 0.45487 0.10700
H 	H 	0.42272 0.97856 0.34853 0.08100
H 	H 	0.45174 0.93767 0.35343 0.08700
Co	Co	0.58980 0.88331 0.08168 1.19200
Co	Co	0.51773 0.88990 0.05868 1.12400
O 	O 	0.63715 0.88008 0.08632 -0.32000
O 	O 	0.62184 0.92528 0.08971 -0.21500
O 	O 	0.57329 0.84228 0.07949 -0.38300
O 	O 	0.52634 0.87569 0.14042 -0.42700
C 	C 	0.55279 0.83390 0.03937 0.30200
C 	C 	0.64545 0.90753 0.09122 0.29100
O 	O 	0.53429 0.85358 0.01394 -0.41200
O 	O 	0.57465 0.89449 0.15929 -0.36100
C 	C 	0.54560 0.88999 0.17545 0.32000
O 	O 	0.58453 0.89312 0.99905 -0.37000
O 	O 	0.54287 0.92181 0.02113 -0.41200
C 	C 	0.56540 0.91465 0.98451 0.33100
Co	Co	0.10003 0.61918 0.88990 1.18800
Co	Co	0.02839 0.60895 0.90692 1.14000
O 	O 	0.14640 0.62820 0.88454 -0.34200
O 	O 	0.13807 0.58201 0.90164 -0.26900
O 	O 	0.07908 0.65760 0.87465 -0.36600
O 	O 	0.03814 0.61698 0.82221 -0.39300
C 	C 	0.05795 0.66833 0.91120 0.29800
C 	C 	0.15871 0.60237 0.89230 0.29000
O 	O 	0.03880 0.65027 0.93932 -0.34500
O 	O 	0.08758 0.59819 0.81891 -0.38800
C 	C 	0.06030 0.60266 0.79394 0.31900
O 	O 	0.09359 0.61691 0.97411 -0.40000
O 	O 	0.05462 0.58374 0.95922 -0.40000
C 	C 	0.07505 0.59616 0.99474 0.33100
C 	C 	0.00893 0.51666 0.42717 0.03700
C 	C 	0.98792 0.49226 0.42258 0.03500
C 	C 	0.03308 0.52002 0.38549 -0.04100
C 	C 	0.03600 0.49976 0.33837 0.02600
C 	C 	0.99097 0.47190 0.37573 -0.04900
C 	C 	0.01465 0.47567 0.33323 0.03700
H 	H 	0.97489 0.45335 0.37213 0.07900
H 	H 	0.04934 0.53839 0.38943 0.07300
C 	C 	0.01806 0.45555 0.28573 -0.02000
C 	C 	0.04084 0.45974 0.24181 0.03600
C 	C 	0.03359 0.44485 0.18780 -0.03600
C 	C 	0.00471 0.43014 0.18903 0.03000
S 	S 	0.98898 0.43607 0.25560 0.11300
H 	H 	0.04708 0.44727 0.14758 0.08400
C 	C 	0.05986 0.50292 0.29554 -0.00700
C 	C 	0.06140 0.48410 0.24593 0.02500
C 	C 	0.07613 0.49774 0.19599 -0.02300
C 	C 	0.08564 0.52714 0.20638 0.03300
S 	S 	0.07548 0.53550 0.27575 0.07600
H 	H 	0.07564 0.48838 0.15190 0.09200
C 	C 	0.98111 0.53386 0.51597 0.03000
C 	C 	0.00441 0.53771 0.47279 -0.01000
S 	S 	0.03262 0.55862 0.50244 0.10400
C 	C 	0.01595 0.56469 0.56807 0.00100
C 	C 	0.98751 0.54947 0.56950 -0.01100
C 	C 	0.96351 0.48960 0.46433 -0.01500
C 	C 	0.96059 0.50954 0.51183 0.03600
C 	C 	0.94394 0.49729 0.56087 -0.01800
C 	C 	0.93441 0.46781 0.55181 0.02700
S 	S 	0.94732 0.45743 0.48522 0.10300
H 	H 	0.94259 0.50785 0.60381 0.09000
H 	H 	0.97334 0.54787 0.60904 0.08300
Co	Co	0.90753 0.38098 0.87904 1.19000
Co	Co	0.91519 0.45133 0.87574 1.15400
O 	O 	0.89911 0.33647 0.87453 -0.33400
O 	O 	0.94625 0.34663 0.85257 -0.24500
O 	O 	0.86796 0.39898 0.90618 -0.38600
O 	O 	0.91268 0.43532 0.95774 -0.37700
C 	C 	0.85428 0.42045 0.87599 0.30100
C 	C 	0.92565 0.32586 0.85829 0.28400
O 	O 	0.87100 0.44089 0.84871 -0.40300
O 	O 	0.93291 0.38873 0.94827 -0.38900
C 	C 	0.93194 0.41446 0.97580 0.32100
O 	O 	0.90526 0.39260 0.79691 -0.39800
O 	O 	0.93940 0.43007 0.81424 -0.37600
C 	C 	0.92499 0.41250 0.77678 0.32200
C 	C 	0.98818 0.93826 0.06633 0.10300
N 	N 	0.97127 0.96232 0.05081 -0.17200
C 	C 	0.94416 0.96048 0.08077 0.10500
C 	C 	0.91588 0.97712 0.06249 -0.07200
C 	C 	0.91852 0.00845 0.04285 0.09000
C 	C 	0.88472 0.96322 0.06726 0.04700
C 	C 	0.87686 0.93893 0.03118 -0.05400
C 	C 	0.84681 0.92680 0.03359 -0.02100
C 	C 	0.82446 0.93882 0.07231 0.00300
C 	C 	0.86255 0.97496 0.10645 -0.05100
N 	N 	0.94301 0.02590 0.05703 -0.12300
C 	C 	0.90169 0.02043 0.99619 -0.05100
C 	C 	0.94124 0.04945 0.01999 0.09000
C 	C 	0.96672 0.07136 0.01293 -0.07600
C 	C 	0.95936 0.10182 0.99206 0.05500
C 	C 	0.93129 0.14835 0.00442 -0.02200
C 	C 	0.97221 0.11257 0.93897 -0.05500
C 	C 	0.96437 0.14103 0.91832 -0.01500
C 	C 	0.94358 0.15892 0.95061 0.00800
N 	N 	0.01289 0.03816 0.02111 -0.17300
C 	C 	0.04354 0.04239 0.03160 0.10400
C 	C 	0.04885 0.07120 0.05137 -0.05500
C 	C 	0.02006 0.08502 0.05300 -0.05400
C 	C 	0.06813 0.02251 0.00753 -0.07100
C 	C 	0.10056 0.03318 0.00251 0.04300
C 	C 	0.15171 0.04023 0.04628 -0.02100
C 	C 	0.16305 0.05106 0.99201 0.01000
C 	C 	0.14283 0.05340 0.94321 -0.02300
C 	C 	0.11166 0.04449 0.94850 -0.04600
N 	N 	0.04390 0.97468 0.03797 -0.12300
C 	C 	0.05355 0.94742 0.95626 -0.05200
C 	C 	0.03924 0.94822 0.01123 0.08900
C 	C 	0.01451 0.92730 0.03001 -0.06900
C 	C 	0.01683 0.89533 0.01461 0.04100
C 	C 	0.04351 0.87899 0.03030 -0.04700
C 	C 	0.04538 0.84862 0.01720 -0.02300
C 	C 	0.02050 0.83428 0.98863 0.01200
C 	C 	0.99397 0.85072 0.97215 -0.02700
C 	C 	0.99217 0.88113 0.98505 -0.04700
C 	C 	0.97193 0.92090 0.10674 -0.05600
C 	C 	0.94374 0.93511 0.11600 -0.05700
C 	C 	0.83256 0.96282 0.10898 -0.01500
C 	C 	0.91628 0.04678 0.98155 -0.05300
C 	C 	0.99855 0.06405 0.03408 0.10400
C 	C 	0.06819 0.97455 0.94940 -0.05200
C 	C 	0.06193 0.99042 0.00036 0.09000
C 	C 	0.12062 0.03121 0.05142 -0.04800
H 	H 	0.97410 0.97394 0.01095 0.09400
H 	H 	0.00396 0.02220 0.99200 0.10000
H 	H 	0.06597 0.83614 0.02998 0.06000
H 	H 	0.97482 0.83995 0.94931 0.05300
H 	H 	0.06265 0.88975 0.05321 0.06000
H 	H 	0.97159 0.89363 0.97230 0.05200
H 	H 	0.84073 0.90848 0.00461 0.05100
H 	H 	0.86850 0.99363 0.13463 0.06100
H 	H 	0.81554 0.97220 0.13915 0.06000
H 	H 	0.89386 0.92978 0.00071 0.05200
H 	H 	0.97416 0.14904 0.87695 0.05900
H 	H 	0.98803 0.09878 0.91351 0.05700
C 	C 	0.93904 0.11988 0.02486 -0.05500
H 	H 	0.91581 0.16221 0.03044 0.05600
H 	H 	0.16711 0.03836 0.08420 0.06300
H 	H 	0.11216 0.02252 0.09329 0.06200
H 	H 	0.09624 0.04614 0.91058 0.05500
H 	H 	0.15128 0.06203 0.90129 0.05500
H 	H 	0.97594 0.89738 0.11446 0.05900
H 	H 	0.92286 0.92416 0.13204 0.05900
H 	H 	0.88721 0.00766 0.96624 0.06000
H 	H 	0.91465 0.05759 0.93870 0.05800
H 	H 	0.07087 0.08290 0.04806 0.06200
H 	H 	0.01666 0.10892 0.05139 0.06300
H 	H 	0.04642 0.93324 0.91996 0.05900
H 	H 	0.07431 0.98441 0.90712 0.05700
H 	H 	0.92928 0.11185 0.06623 0.06200
C 	C 	0.95016 0.23671 0.89575 0.11000
C 	C 	0.91873 0.24560 0.89453 0.10400
N 	N 	0.91132 0.27422 0.88091 -0.08000
C 	C 	0.93406 0.29444 0.86816 0.00300
C 	C 	0.96547 0.28528 0.86764 0.05400
N 	N 	0.97288 0.25663 0.88175 -0.09300
N 	N 	0.95769 0.20854 0.91274 -0.10400
N 	N 	0.89601 0.22575 0.90879 -0.09100
H 	H 	0.98387 0.30096 0.85707 0.08400
C 	C 	0.93498 0.18880 0.92851 0.05800
C 	C 	0.90348 0.19747 0.92538 0.01200
H 	H 	0.88511 0.18186 0.93653 0.05500
C 	C 	0.95755 0.43469 0.62816 0.00600
C 	C 	0.93078 0.44665 0.60135 0.10200
C 	C 	0.90116 0.44161 0.62708 -0.13900
C 	C 	0.89938 0.42844 0.68362 0.07900
C 	C 	0.92652 0.41894 0.71284 -0.02200
C 	C 	0.95549 0.41968 0.68277 -0.05500
C 	C 	0.98457 0.40618 0.71020 0.77300
H 	H 	0.98015 0.43826 0.60771 0.11400
H 	H 	0.87715 0.42712 0.70640 0.07200
C 	C 	0.87171 0.45238 0.59650 0.79300
F 	F 	0.00677 0.40009 0.66731 -0.40500
F 	F 	0.97752 0.37968 0.73875 -0.42100
F 	F 	0.99718 0.42594 0.75056 -0.39500
F 	F 	0.87226 0.44455 0.53722 -0.42900
F 	F 	0.86971 0.48305 0.60110 -0.43900
F 	F 	0.84526 0.43990 0.62165 -0.43300
C 	C 	0.95254 0.39550 0.07169 0.08200
C 	C 	0.95055 0.41885 0.03028 -0.01500
C 	C 	0.96726 0.44568 0.04045 -0.07100
C 	C 	0.98236 0.44972 0.09507 0.00800
C 	C 	0.98557 0.42595 0.13518 0.09200
C 	C 	0.97140 0.39816 0.12250 -0.13000
C 	C 	0.97545 0.37164 0.16379 0.79000
H 	H 	0.93955 0.37515 0.06397 0.08400
H 	H 	0.99241 0.47120 0.10589 0.08900
C 	C 	0.96909 0.47008 0.99368 0.77200
F 	F 	0.96557 0.34544 0.13747 -0.42600
F 	F 	0.95809 0.37604 0.21466 -0.43200
F 	F 	0.00654 0.36811 0.17885 -0.42400
F 	F 	0.94156 0.48616 0.99323 -0.46500
F 	F 	0.97424 0.45803 0.93813 -0.47900
F 	F 	0.99341 0.48956 0.00522 -0.42900
C 	C 	0.02686 0.74175 0.95759 0.10700
C 	C 	0.04991 0.76126 0.93618 0.10800
N 	N 	0.04726 0.79100 0.94595 -0.10500
C 	C 	0.02229 0.80212 0.97601 0.05700
C 	C 	0.99917 0.78258 0.99715 0.01400
N 	N 	0.00193 0.75278 0.98751 -0.08700
N 	N 	0.02983 0.71196 0.94884 -0.07300
N 	N 	0.07491 0.75022 0.90649 -0.09600
H 	H 	0.97940 0.79103 0.02182 0.05100
C 	C 	0.05490 0.70077 0.91917 0.00500
C 	C 	0.07787 0.72039 0.89746 0.05700
H 	H 	0.09807 0.71195 0.87406 0.07300
C 	C 	0.05208 0.56232 0.72112 0.07800
C 	C 	0.05502 0.59286 0.73261 -0.01900
C 	C 	0.05052 0.61375 0.68630 -0.06400
C 	C 	0.03860 0.60388 0.63173 0.00100
C 	C 	0.03349 0.57347 0.62151 0.10000
C 	C 	0.04272 0.55223 0.66493 -0.13900
C 	C 	0.04132 0.51891 0.65303 0.79400
H 	H 	0.05621 0.54645 0.75657 0.08100
H 	H 	0.03224 0.61992 0.59780 0.09600
C 	C 	0.05686 0.64669 0.69578 0.77400
F 	F 	0.06091 0.50350 0.69111 -0.40900
F 	F 	0.05070 0.51249 0.59586 -0.43700
F 	F 	0.01121 0.50869 0.66159 -0.44400
F 	F 	0.08450 0.65065 0.72652 -0.43300
F 	F 	0.03261 0.65916 0.72764 -0.43100
F 	F 	0.05951 0.66169 0.64230 -0.42700
C 	C 	0.10809 0.56917 0.06734 0.08300
C 	C 	0.08001 0.58390 0.05457 -0.01700
C 	C 	0.05576 0.58421 0.09710 -0.06500
C 	C 	0.05820 0.56587 0.14742 0.00800
C 	C 	0.08561 0.54968 0.15862 0.09400
C 	C 	0.11154 0.55283 0.12028 -0.13200
C 	C 	0.14219 0.53733 0.13386 0.79200
H 	H 	0.12679 0.56952 0.03499 0.08200
H 	H 	0.03841 0.56339 0.17696 0.09000
C 	C 	0.02672 0.60301 0.08778 0.77000
F 	F 	0.16627 0.54859 0.09950 -0.42900
F 	F 	0.13931 0.50718 0.12259 -0.43000
F 	F 	0.15013 0.54136 0.19276 -0.42800
F 	F 	0.00730 0.58921 0.04734 -0.45500
F 	F 	0.03472 0.63100 0.06680 -0.44400
F 	F 	0.01048 0.60680 0.14029 -0.42800
C 	C 	0.73171 0.90726 0.07911 0.10600
C 	C 	0.73802 0.93765 0.06996 0.11200
N 	N 	0.76801 0.94721 0.06662 -0.10500
C 	C 	0.79212 0.92763 0.07201 0.05800
C 	C 	0.78579 0.89718 0.08066 0.01000
N 	N 	0.75570 0.88760 0.08400 -0.09200
N 	N 	0.70170 0.89787 0.08481 -0.07900
N 	N 	0.71413 0.95741 0.06633 -0.08900
H 	H 	0.80469 0.88136 0.08581 0.05200
C 	C 	0.67769 0.91773 0.08191 0.02200
C 	C 	0.68410 0.94809 0.07213 0.06400
H 	H 	0.66533 0.96419 0.06957 0.10800
C 	C 	0.58905 0.95181 0.83971 -0.00500
C 	C 	0.56047 0.95219 0.80951 0.10600
C 	C 	0.53404 0.93791 0.83499 -0.14100
C 	C 	0.53703 0.92412 0.89077 0.08500
C 	C 	0.56485 0.92622 0.92318 -0.02400
C 	C 	0.59121 0.94038 0.89770 -0.05700
C 	C 	0.62101 0.94475 0.93314 0.76800
H 	H 	0.60919 0.96218 0.81919 0.09800
H 	H 	0.51746 0.91216 0.90982 0.05500
C 	C 	0.50312 0.93605 0.80200 0.79200
F 	F 	0.64251 0.96210 0.90291 -0.43300
F 	F 	0.63466 0.91744 0.94477 -0.43700
F 	F 	0.61425 0.95894 0.98592 -0.43000
F 	F 	0.50645 0.91799 0.75289 -0.43400
F 	F 	0.49336 0.96406 0.78431 -0.41500
F 	F 	0.47977 0.92409 0.83722 -0.42800
C 	C 	0.52438 0.93371 0.31337 0.00100
C 	C 	0.51073 0.91130 0.34815 0.10100
C 	C 	0.51162 0.88135 0.32902 -0.13800
C 	C 	0.52396 0.87475 0.27279 0.08100
C 	C 	0.53573 0.89745 0.23620 -0.02500
C 	C 	0.53604 0.92733 0.25656 -0.06300
C 	C 	0.54865 0.95239 0.21788 0.77200
H 	H 	0.52456 0.95641 0.32971 0.12100
H 	H 	0.52388 0.85200 0.25675 0.08100
C 	C 	0.49809 0.85668 0.36734 0.79300
F 	F 	0.54248 0.98013 0.24197 -0.39300
F 	F 	0.53503 0.95151 0.16230 -0.45300
F 	F 	0.58063 0.94945 0.21221 -0.41900
F 	F 	0.46603 0.85988 0.37054 -0.43200
F 	F 	0.51050 0.85820 0.42386 -0.42900
F 	F 	0.50470 0.82872 0.34475 -0.43000
C 	C 	0.24013 0.08421 0.02576 0.10500
C 	C 	0.25945 0.06933 0.98517 0.10500
N 	N 	0.29089 0.07280 0.98827 -0.07900
C 	C 	0.30390 0.09068 0.03026 -0.01100
C 	C 	0.28441 0.10625 0.06972 0.06000
N 	N 	0.25294 0.10260 0.06676 -0.09300
N 	N 	0.20893 0.07893 0.02569 -0.10600
N 	N 	0.24669 0.05039 0.94507 -0.09100
H 	H 	0.29425 0.12060 0.10339 0.08600
C 	C 	0.19614 0.05948 0.98634 0.05900
C 	C 	0.21540 0.04523 0.94472 0.01100
H 	H 	0.20565 0.02945 0.91357 0.05600
C 	C 	0.42250 0.06717 0.87494 0.08500
C 	C 	0.43127 0.09221 0.90790 -0.02600
C 	C 	0.45200 0.11343 0.88307 -0.05800
C 	C 	0.46512 0.10791 0.82698 -0.00400
C 	C 	0.45906 0.08122 0.79698 0.10600
C 	C 	0.43666 0.06092 0.82016 -0.14100
C 	C 	0.42679 0.03333 0.78579 0.79200
H 	H 	0.40539 0.05195 0.89332 0.05900
H 	H 	0.48173 0.12350 0.80814 0.09900
C 	C 	0.46185 0.14081 0.91782 0.76900
F 	F 	0.40663 0.01556 0.81834 -0.42600
F 	F 	0.45245 0.01611 0.77154 -0.41600
F 	F 	0.41151 0.04182 0.73450 -0.43600
F 	F 	0.47727 0.13206 0.96880 -0.43500
F 	F 	0.43592 0.15752 0.93273 -0.43600
F 	F 	0.48174 0.15895 0.88549 -0.43200
C 	C 	0.38755 0.05507 0.32458 -0.00100
C 	C 	0.41614 0.04101 0.33604 0.10000
C 	C 	0.44098 0.04369 0.29454 -0.14000
C 	C 	0.43499 0.05688 0.23912 0.07600
C 	C 	0.40576 0.06926 0.22642 -0.02100
C 	C 	0.38243 0.07011 0.27071 -0.06300
C 	C 	0.35146 0.08557 0.25945 0.77300
H 	H 	0.36896 0.05347 0.35703 0.09800
H 	H 	0.45278 0.05665 0.20495 0.07500
C 	C 	0.47331 0.03112 0.30721 0.79400
F 	F 	0.33516 0.09004 0.31167 -0.42600
F 	F 	0.33339 0.06829 0.22217 -0.43500
F 	F 	0.35631 0.11316 0.23346 -0.43100
F 	F 	0.47341 0.00072 0.29743 -0.44600
F 	F 	0.48229 0.03675 0.36492 -0.44400
F 	F 	0.49546 0.04399 0.27050 -0.40900
C 	C 	0.45931 0.25662 0.03519 0.11100
C 	C 	0.42821 0.25226 0.05302 0.10700
N 	N 	0.41842 0.22467 0.06936 -0.07600
C 	C 	0.43844 0.20111 0.06854 0.01600
C 	C 	0.46972 0.20563 0.05182 0.06400
N 	N 	0.47949 0.23329 0.03534 -0.09000
N 	N 	0.46876 0.28396 0.01642 -0.10300
N 	N 	0.40792 0.27550 0.05221 -0.09000
H 	H 	0.48603 0.18720 0.05121 0.09600
C 	C 	0.44829 0.30716 0.01453 0.05200
C 	C 	0.41736 0.30288 0.03352 0.01400
H 	H 	0.40094 0.32123 0.03315 0.05400
C 	C 	0.23386 0.56738 0.93418 0.11200
C 	C 	0.25544 0.58758 0.90985 0.10700
N 	N 	0.28647 0.58165 0.91314 -0.10500
C 	C 	0.29687 0.55648 0.94056 0.05900
C 	C 	0.27531 0.53661 0.96594 0.01600
N 	N 	0.24421 0.54240 0.96205 -0.07700
N 	N 	0.20278 0.57266 0.92858 -0.06900
N 	N 	0.24511 0.61257 0.88205 -0.09800
H 	H 	0.28326 0.51641 0.98756 0.06500
C 	C 	0.19236 0.59761 0.90031 -0.00200
C 	C 	0.21401 0.61807 0.87704 0.05200
H 	H 	0.20611 0.63794 0.85420 0.06600
C 	C 	0.75652 0.42991 0.87142 0.10600
C 	C 	0.77180 0.42240 0.92449 0.10000
N 	N 	0.80324 0.41840 0.92471 -0.08000
C 	C 	0.82012 0.42216 0.87410 -0.01600
C 	C 	0.80475 0.42936 0.82097 0.05400
N 	N 	0.77324 0.43299 0.82066 -0.09500
N 	N 	0.72543 0.43570 0.87184 -0.10600
N 	N 	0.75531 0.42087 0.97582 -0.09200
H 	H 	0.81784 0.43220 0.78027 0.07000
C 	C 	0.70889 0.43471 0.92337 0.05600
C 	C 	0.72421 0.42702 0.97643 0.01500
H 	H 	0.71167 0.42683 0.01808 0.05000
C 	C 	0.54371 0.74325 0.99358 0.11000
C 	C 	0.55436 0.75152 0.05009 0.09500
N 	N 	0.55767 0.78083 0.06365 -0.07800
C 	C 	0.55038 0.80229 0.02315 -0.02300
C 	C 	0.53985 0.79394 0.96655 0.05700
N 	N 	0.53679 0.76459 0.95289 -0.10100
N 	N 	0.54002 0.71398 0.98025 -0.10600
N 	N 	0.56077 0.73017 0.09110 -0.09100
H 	H 	0.53426 0.81071 0.93360 0.06100
C 	C 	0.54626 0.69254 0.02138 0.05500
C 	C 	0.55690 0.70082 0.07790 0.00900
H 	H 	0.56222 0.68400 0.11090 0.05500
