data_crystal

_cell_length_a 17.00053
_cell_length_b 17.19470
_cell_length_c 44.90663
_cell_angle_alpha 90.20872
_cell_angle_beta  90.21765
_cell_angle_gamma 119.36081

_symmetry_space_group_name_	'P 1'
_symmetry_space_group_name_H-M	'P 1'

loop_
_symmetry_equiv_pos_as_xyz
  x,y,z

loop_
_atom_site_label
_atom_site_type_symbol
_atom_site_fract_x
_atom_site_fract_y
_atom_site_fract_z
_atom_site_charge
C 	C 	0.06967 0.66810 0.03090 -0.07700
O 	O 	0.02245 0.89917 0.72824 -0.32700
O 	O 	0.04552 0.12381 0.81800 -0.29700
O 	O 	0.02818 0.99590 0.78088 -0.72200
H 	H 	0.02498 0.98552 0.80253 0.19200
C 	C 	0.06323 0.54455 0.96355 -0.10100
F 	F 	0.03730 0.19822 0.87298 -0.35100
F 	F 	0.08708 0.61508 0.91605 -0.40200
H 	H 	0.01000 0.82308 0.67341 0.17900
C 	C 	0.11886 0.62768 0.94509 0.78800
C 	C 	0.20944 0.09180 0.73518 0.36200
C 	C 	0.21659 0.04530 0.81166 0.37300
Ni	Ni	0.10703 0.12128 0.78017 1.13400
Ni	Ni	0.08196 0.92695 0.76869 1.13300
O 	O 	0.15237 0.12036 0.73962 -0.35700
O 	O 	0.15106 0.96260 0.80700 -0.35400
O 	O 	0.21166 0.11671 0.80199 -0.35300
O 	O 	0.19770 0.01770 0.74798 -0.32900
C 	C 	0.15698 0.48152 0.44807 0.31900
C 	C 	0.29464 0.84587 0.40993 0.35000
C 	C 	0.20222 0.56919 0.37792 0.37000
C 	C 	0.29145 0.77615 0.49106 0.27900
C 	C 	0.45919 0.65744 0.46912 0.28600
Ni	Ni	0.20049 0.66445 0.43396 1.13200
Ni	Ni	0.41562 0.79356 0.44272 1.14800
Ni	Ni	0.34328 0.59666 0.41679 1.13000
O 	O 	0.16234 0.55395 0.45995 -0.33500
O 	O 	0.22206 0.48525 0.43008 -0.30800
O 	O 	0.45569 0.80311 0.40071 -0.34000
O 	O 	0.24577 0.76276 0.40251 -0.33900
O 	O 	0.35655 0.86947 0.43107 -0.28100
O 	O 	0.41222 0.58823 0.45131 -0.29900
O 	O 	0.14788 0.57497 0.39746 -0.31600
O 	O 	0.28750 0.62214 0.38160 -0.37600
O 	O 	0.22619 0.75328 0.47050 -0.26100
O 	O 	0.37458 0.79679 0.48389 -0.29600
O 	O 	0.46620 0.67661 0.39841 -0.34000
O 	O 	0.31608 0.67614 0.43880 -0.71500
H 	H 	0.31232 0.65409 0.45921 0.17100
C 	C 	0.32986 0.55126 0.09902 0.31100
C 	C 	0.29512 0.53419 0.18090 0.34300
C 	C 	0.23936 0.73523 0.08887 0.31700
C 	C 	0.21640 0.75752 0.17541 0.33300
Ni	Ni	0.44611 0.68482 0.14277 1.14600
Ni	Ni	0.23233 0.61867 0.13728 1.13300
Ni	Ni	0.37584 0.82696 0.13687 1.13300
O 	O 	0.22511 0.65579 0.09601 -0.34700
O 	O 	0.39879 0.63085 0.10139 -0.27500
O 	O 	0.26046 0.52697 0.11701 -0.32000
O 	O 	0.29960 0.82356 0.17100 -0.35100
O 	O 	0.44651 0.83376 0.10039 -0.31100
O 	O 	0.17556 0.68859 0.15632 -0.32100
O 	O 	0.36944 0.56096 0.16452 -0.27600
O 	O 	0.23782 0.56412 0.17616 -0.34900
O 	O 	0.27180 0.80137 0.10852 -0.31500
O 	O 	0.35156 0.71042 0.14640 -0.72300
H 	H 	0.34646 0.71258 0.16819 0.17800
C 	C 	0.08623 0.92270 0.25614 0.35900
C 	C 	0.10705 0.22399 0.32973 0.36300
C 	C 	0.10178 0.96321 0.33905 0.33200
C 	C 	0.11731 0.21659 0.24992 0.35500
Ni	Ni	0.14209 0.09738 0.29254 1.13700
O 	O 	0.14879 0.98799 0.27323 -0.30600
O 	O 	0.16593 0.21712 0.31255 -0.32000
O 	O 	0.12815 0.04720 0.33490 -0.30300
O 	O 	0.04120 0.90225 0.32095 -0.30800
O 	O 	0.15099 0.16191 0.25290 -0.32400
O 	O 	0.05475 0.21448 0.26841 -0.34700
C 	C 	0.21618 0.38047 0.24647 -0.06700
C 	C 	0.16847 0.29720 0.23217 -0.10800
C 	C 	0.17071 0.29167 0.20108 0.37100
C 	C 	0.21701 0.36944 0.18433 -0.06600
C 	C 	0.26321 0.45300 0.19856 -0.08300
C 	C 	0.26356 0.45810 0.22973 0.35200
F 	F 	0.30716 0.53856 0.24374 -0.40100
H 	H 	0.21574 0.38503 0.27055 0.11700
H 	H 	0.21322 0.36521 0.16024 0.16100
F 	F 	0.12516 0.21141 0.18706 -0.37600
C 	C 	0.19054 0.78712 0.22730 -0.07800
C 	C 	0.16216 0.77370 0.19739 -0.09500
C 	C 	0.10256 0.80310 0.18763 0.36100
C 	C 	0.07885 0.85272 0.20677 -0.06900
C 	C 	0.11394 0.87291 0.23587 -0.10200
C 	C 	0.16723 0.83703 0.24641 0.36400
F 	F 	0.19617 0.85015 0.27514 -0.38400
H 	H 	0.23562 0.76380 0.23521 0.13200
H 	H 	0.03474 0.87710 0.19877 0.14000
F 	F 	0.07319 0.78953 0.15893 -0.38300
C 	C 	0.06763 0.34315 0.34062 -0.07100
C 	C 	0.12958 0.31111 0.34247 -0.11700
C 	C 	0.21524 0.36519 0.35469 0.36300
C 	C 	0.23915 0.45011 0.36503 -0.06500
C 	C 	0.17671 0.48173 0.36424 -0.13400
C 	C 	0.09142 0.42862 0.35131 0.36100
H 	H 	0.30580 0.49067 0.37458 0.07000
F 	F 	0.27526 0.33486 0.35689 -0.38600
C 	C 	0.29894 0.94363 0.36940 -0.06900
C 	C 	0.26828 0.90908 0.39789 -0.07700
C 	C 	0.18756 0.90356 0.40817 0.36700
C 	C 	0.13110 0.91708 0.38850 -0.06300
C 	C 	0.15671 0.94022 0.35882 -0.09000
C 	C 	0.24302 0.95795 0.34978 0.36400
F 	F 	0.27246 0.98835 0.32192 -0.39800
H 	H 	0.36235 0.95109 0.36143 0.13500
H 	H 	0.06732 0.90899 0.39633 0.15000
F 	F 	0.15897 0.87513 0.43626 -0.34900
C 	C 	0.38721 0.93421 0.54689 0.01900
C 	C 	0.42320 0.88572 0.56122 0.09500
C 	C 	0.37029 0.79089 0.56194 -0.09800
C 	C 	0.29192 0.74893 0.54385 0.06900
C 	C 	0.27919 0.79859 0.52160 0.04500
C 	C 	0.31129 0.88955 0.52799 -0.04900
H 	H 	0.25186 0.67686 0.54313 0.11600
C 	C 	0.27795 0.94216 0.51031 0.76800
H 	H 	0.42195 0.00641 0.54860 0.13600
F 	F 	0.32992 0.97586 0.48506 -0.37100
F 	F 	0.28377 0.01227 0.52722 -0.35800
F 	F 	0.18871 0.88821 0.50197 -0.34500
F 	F 	0.38211 0.74945 0.61142 -0.39500
F 	F 	0.34209 0.64525 0.57619 -0.39700
C 	C 	0.06665 0.40151 0.44770 -0.01100
C 	C 	0.03587 0.35305 0.47423 -0.01000
H 	H 	0.01653 0.42450 0.40666 0.10000
C 	C 	0.07221 0.29308 0.48416 0.78100
F 	F 	0.06130 0.27851 0.51452 -0.33900
F 	F 	0.16296 0.33048 0.47752 -0.35500
C 	C 	0.35691 0.51465 0.53111 -0.08000
C 	C 	0.38034 0.59413 0.51561 0.09200
C 	C 	0.25968 0.45478 0.54064 0.79500
H 	H 	0.32925 0.61264 0.51084 0.07300
C 	C 	0.37362 0.31130 0.59387 -0.06900
C 	C 	0.37902 0.38707 0.58031 0.04400
C 	C 	0.32111 0.27629 0.62217 0.78700
H 	H 	0.36557 0.43267 0.59313 0.14400
F 	F 	0.25130 0.46554 0.57074 -0.37100
F 	F 	0.23291 0.36620 0.53493 -0.35000
F 	F 	0.20127 0.47533 0.52545 -0.40400
F 	F 	0.36292 0.33770 0.64483 -0.41300
F 	F 	0.31430 0.19555 0.63005 -0.40800
F 	F 	0.23487 0.26359 0.61815 -0.36000
C 	C 	0.40577 0.16995 0.68255 -0.04300
C 	C 	0.44825 0.26339 0.68625 -0.09500
C 	C 	0.41279 0.29981 0.70661 0.38500
C 	C 	0.33570 0.24341 0.72300 -0.06300
C 	C 	0.29377 0.15002 0.71928 -0.10900
C 	C 	0.32901 0.11382 0.69883 0.37400
F 	F 	0.28839 0.02420 0.69445 -0.38400
H 	H 	0.43394 0.14069 0.66755 0.09000
H 	H 	0.30904 0.27216 0.73882 0.11400
C 	C 	0.11138 0.63273 0.01197 0.09700
C 	C 	0.11945 0.72276 0.05519 0.07600
C 	C 	0.21037 0.74611 0.05904 0.02100
C 	C 	0.25524 0.73482 0.03450 -0.06900
C 	C 	0.20501 0.66956 0.01319 0.03900
H 	H 	0.08509 0.73768 0.07271 0.12300
C 	C 	0.35604 0.78040 0.03356 0.77900
H 	H 	0.23817 0.64378 0.99886 0.15200
F 	F 	0.20772 0.64642 0.94456 -0.38600
F 	F 	0.11471 0.70045 0.95649 -0.37900
F 	F 	0.38544 0.72689 0.04691 -0.41000
F 	F 	0.39214 0.86149 0.04823 -0.45600
F 	F 	0.38456 0.79524 0.00428 -0.41100
C 	C 	0.47447 0.01961 0.00631 0.06600
C 	C 	0.47760 0.06387 0.95494 0.00600
C 	C 	0.44696 0.05978 0.98424 -0.03800
C 	C 	0.39905 0.11050 0.99304 0.78500
H 	H 	0.45527 0.01993 0.02925 0.15300
F 	F 	0.33796 0.06628 0.01552 -0.36800
F 	F 	0.35234 0.11850 0.96900 -0.37400
C 	C 	0.35334 0.44961 0.02976 -0.08100
C 	C 	0.30471 0.46249 0.05298 0.10000
C 	C 	0.34191 0.48478 0.08182 0.02900
C 	C 	0.30212 0.39860 0.00213 0.79200
H 	H 	0.24010 0.45827 0.04832 0.10000
F 	F 	0.23181 0.31672 0.01062 -0.36800
F 	F 	0.35453 0.38310 0.98211 -0.38200
F 	F 	0.26615 0.44545 0.98795 -0.36800
C 	C 	0.37911 0.09266 0.80515 -0.06900
C 	C 	0.30317 0.05851 0.82358 -0.11800
C 	C 	0.30944 0.03268 0.85274 0.38500
C 	C 	0.39360 0.05109 0.86437 -0.08200
C 	C 	0.47202 0.09781 0.84721 -0.10500
C 	C 	0.46272 0.10978 0.81670 0.35500
H 	H 	0.37388 0.10798 0.78208 0.11400
H 	H 	0.39891 0.03683 0.88753 0.13800
F 	F 	0.23518 0.99393 0.87025 -0.39100
O 	O 	0.49210 0.88225 0.16295 -0.34900
C 	C 	0.39523 0.73527 0.58201 0.78600
C 	C 	0.05731 0.54848 0.99504 0.10700
F 	F 	0.46159 0.19476 0.00304 -0.37600
C 	C 	0.46326 0.63881 0.50087 0.03400
F 	F 	0.36947 0.42156 0.13642 -0.42400
C 	C 	0.41941 0.47731 0.08784 -0.06700
F 	F 	0.42355 0.56636 0.96331 -0.35700
F 	F 	0.46181 0.62543 0.00938 -0.37400
C 	C 	0.44600 0.47573 0.03491 0.10900
C 	C 	0.44555 0.46830 0.11923 0.78800
H 	H 	0.48374 0.90430 0.61870 0.12700
O 	O 	0.49248 0.75609 0.18172 -0.32500
C 	C 	0.53423 0.15266 0.94208 0.31200
C 	C 	0.55629 0.16207 0.86226 0.36100
Ni	Ni	0.57023 0.30892 0.89777 1.12800
O 	O 	0.49917 0.18677 0.92237 -0.29200
C 	C 	0.53876 0.31866 0.67354 0.36900
C 	C 	0.49835 0.27854 0.59492 0.29100
O 	O 	0.55024 0.37456 0.65168 -0.30800
O 	O 	0.49182 0.22299 0.61699 -0.31300
O 	O 	0.59281 0.28619 0.67503 -0.37400
C 	C 	0.49790 0.76136 0.39186 0.35900
O 	O 	0.49322 0.74150 0.45930 -0.26200
C 	C 	0.51647 0.84158 0.18364 0.34100
C 	C 	0.52760 0.84414 0.10193 0.30300
O 	O 	0.54668 0.79910 0.12153 -0.29000
F 	F 	0.50383 0.82452 0.24656 -0.40300
C 	C 	0.58790 0.81281 0.37823 -0.10700
H 	H 	0.57601 0.70218 0.35179 0.13200
C 	C 	0.51874 0.93390 0.57222 0.09600
C 	C 	0.53699 0.94047 0.60289 0.04600
F 	F 	0.48423 0.75691 0.57783 -0.39300
C 	C 	0.51482 0.55173 0.52913 0.04900
C 	C 	0.42514 0.49181 0.53711 0.09700
C 	C 	0.53469 0.62625 0.51119 -0.04200
C 	C 	0.40324 0.40390 0.55021 0.10200
C 	C 	0.41250 0.33841 0.53344 -0.09300
C 	C 	0.41827 0.26974 0.54886 0.08700
C 	C 	0.41676 0.26882 0.58012 0.03000
H 	H 	0.43911 0.22770 0.53713 0.12400
F 	F 	0.36856 0.37557 0.48739 -0.37100
F 	F 	0.45418 0.38937 0.71116 -0.38200
C 	C 	0.53387 0.98662 0.99903 0.12600
C 	C 	0.54909 0.97761 0.96827 -0.12800
C 	C 	0.50234 0.00002 0.94704 0.13600
C 	C 	0.58195 0.96713 0.02373 0.09200
H 	H 	0.50705 0.98735 0.92363 0.06900
C 	C 	0.59280 0.89757 0.07886 0.04200
C 	C 	0.59518 0.85428 0.05263 -0.05100
C 	C 	0.57779 0.88315 0.02534 0.07900
H 	H 	0.55575 0.83856 0.00638 0.18000
F 	F 	0.58581 0.86621 0.95402 -0.36700
F 	F 	0.53630 0.69982 0.06079 -0.38800
F 	F 	0.58898 0.14525 0.05791 -0.38100
C 	C 	0.55626 0.43607 0.01383 0.04300
C 	C 	0.50979 0.48432 0.01070 0.10600
C 	C 	0.53845 0.55139 0.98816 -0.07200
C 	C 	0.49388 0.60844 0.98341 0.79400
H 	H 	0.53733 0.38678 0.03130 0.13900
C 	C 	0.47716 0.48706 0.06442 0.05400
H 	H 	0.54557 0.50129 0.06915 0.12600
F 	F 	0.55559 0.69005 0.97164 -0.35300
F 	F 	0.49966 0.55201 0.13143 -0.45200
F 	F 	0.49294 0.42188 0.11936 -0.38600
F 	F 	0.53683 0.14829 0.79911 -0.39300
H 	H 	0.01989 0.45608 0.92539 0.09400
O 	O 	0.02549 0.16273 0.75997 -0.33200
F 	F 	0.53916 0.99705 0.50509 -0.39900
F 	F 	0.53674 0.86760 0.51560 -0.40700
C 	C 	0.01387 0.46134 0.94922 0.11100
O 	O 	0.57929 0.24564 0.86026 -0.34600
O 	O 	0.58891 0.13624 0.88446 -0.33800
O 	O 	0.62188 0.18459 0.94474 -0.29100
O 	O 	0.57221 0.38731 0.93259 -0.29300
Ni	Ni	0.59663 0.21920 0.63978 1.12900
O 	O 	0.57310 0.35398 0.59021 -0.36600
C 	C 	0.59239 0.89579 0.20353 -0.10800
C 	C 	0.58600 0.87111 0.23361 0.35900
C 	C 	0.61820 0.77189 0.35766 -0.06300
F 	F 	0.61826 0.94323 0.40680 -0.39300
C 	C 	0.59235 0.98191 0.55242 -0.11700
C 	C 	0.58387 0.95916 0.51957 0.79600
F 	F 	0.61089 0.87754 0.64407 -0.37400
H 	H 	0.56802 0.53729 0.53531 0.12000
C 	C 	0.42234 0.34444 0.49987 0.79000
F 	F 	0.39648 0.26133 0.48757 -0.35200
C 	C 	0.62204 0.95722 0.95772 0.79400
C 	C 	0.61642 0.02482 0.04892 -0.05100
C 	C 	0.61680 0.98787 0.07685 0.02900
H 	H 	0.62691 0.02666 0.09700 0.11800
C 	C 	0.61416 0.77735 0.05389 0.79200
C 	C 	0.60289 0.55726 0.96710 0.08600
O 	O 	0.61322 0.42601 0.87228 -0.30600
O 	O 	0.62114 0.16128 0.60538 -0.35200
C 	C 	0.64389 0.90355 0.38569 0.37400
C 	C 	0.62559 0.99515 0.61292 -0.10400
C 	C 	0.62970 0.68480 0.50012 0.78000
F 	F 	0.64634 0.77135 0.49620 -0.35700
C 	C 	0.65175 0.12421 0.04655 0.78300
F 	F 	0.65586 0.99744 0.93056 -0.42900
F 	F 	0.64660 0.76631 0.02690 -0.36500
C 	C 	0.64130 0.50149 0.96920 0.03900
C 	C 	0.63076 0.45560 0.99599 -0.05800
H 	H 	0.61484 0.59737 0.94730 0.13000
F 	F 	0.66081 0.33576 0.99056 -0.38900
F 	F 	0.65124 0.01079 0.66485 -0.41600
C 	C 	0.64714 0.45811 0.94177 0.29200
C 	C 	0.66348 0.88762 0.24961 -0.08300
C 	C 	0.67793 0.94737 0.19095 -0.06600
H 	H 	0.65762 0.86708 0.27266 0.12800
H 	H 	0.68388 0.96778 0.16789 0.12200
F 	F 	0.63002 0.21211 0.49829 -0.37500
F 	F 	0.64053 0.65177 0.47325 -0.37500
F 	F 	0.51145 0.40143 0.49265 -0.39700
F 	F 	0.67858 0.79345 0.07556 -0.39000
F 	F 	0.67001 0.15265 0.01736 -0.35400
H 	H 	0.00555 0.47012 0.03493 0.12500
C 	C 	0.66003 0.96889 0.63984 0.77400
H 	H 	0.67330 0.32715 0.93329 0.21500
Ni	Ni	0.65798 0.41990 0.62308 1.13400
O 	O 	0.67423 0.18161 0.66493 -0.32100
F 	F 	0.69422 0.98910 0.97737 -0.38500
O 	O 	0.68129 0.32352 0.91178 -0.72100
C 	C 	0.70238 0.82137 0.34413 0.35100
C 	C 	0.67525 0.05050 0.56422 0.10300
F 	F 	0.66798 0.99076 0.50677 -0.36500
C 	C 	0.69222 0.41847 0.00382 0.78300
F 	F 	0.69560 0.40947 0.03436 -0.34500
F 	F 	0.67696 0.61693 0.87616 -0.39200
Ni	Ni	0.70109 0.22365 0.90904 1.14200
O 	O 	0.68752 0.32622 0.62243 -0.71300
H 	H 	0.67956 0.31041 0.60113 0.17200
C 	C 	0.68356 0.06775 0.59497 0.04500
H 	H 	0.67276 0.32358 0.53786 0.08000
C 	C 	0.00446 0.46918 0.01078 0.07200
C 	C 	0.69169 0.46448 0.85863 0.35300
C 	C 	0.69525 0.15529 0.60404 0.28000
F 	F 	0.69231 0.68682 0.52036 -0.36300
C 	C 	0.72725 0.95315 0.37176 -0.09900
F 	F 	0.73004 0.78139 0.32379 -0.42300
F 	F 	0.72933 0.24902 0.46129 -0.35800
F 	F 	0.73085 0.16956 0.06288 -0.35100
O 	O 	0.72040 0.49761 0.92438 -0.29500
C 	C 	0.72118 0.25317 0.49179 0.79200
C 	C 	0.74837 0.93180 0.23605 -0.08800
C 	C 	0.71998 0.54336 0.83961 -0.10300
C 	C 	0.72619 0.62151 0.85183 0.35700
O 	O 	0.73564 0.47475 0.65911 -0.35900
C 	C 	0.75544 0.96366 0.20685 0.33000
C 	C 	0.75677 0.91251 0.35094 -0.09900
H 	H 	0.72698 0.09697 0.54944 0.13400
C 	C 	0.73438 0.37335 0.52745 0.07900
C 	C 	0.74848 0.23832 0.67927 0.36600
O 	O 	0.75034 0.43926 0.86442 -0.36000
H 	H 	0.76909 0.02323 0.37725 0.15900
O 	O 	0.76444 0.26536 0.87067 -0.35400
F 	F 	0.74941 0.99146 0.63605 -0.40300
C 	C 	0.76948 0.34905 0.50293 -0.09500
F 	F 	0.77876 0.47564 0.99420 -0.37400
F 	F 	0.75794 0.20635 0.50542 -0.41200
O 	O 	0.76100 0.48852 0.59309 -0.28900
H 	H 	0.76555 0.49015 0.80418 0.14400
F 	F 	0.03239 0.45998 0.34867 -0.37800
O 	O 	0.02362 0.15969 0.33032 -0.35200
F 	F 	0.02560 0.21199 0.46951 -0.35500
C 	C 	0.77057 0.55001 0.81409 -0.07500
O 	O 	0.01738 0.04080 0.28612 -0.70400
H 	H 	0.01518 0.03511 0.26425 0.19500
H 	H 	0.78079 0.53254 0.71458 0.14100
O 	O 	0.77586 0.22170 0.61382 -0.31200
C 	C 	0.00152 0.40601 0.42968 0.11200
O 	O 	0.78810 0.32166 0.67212 -0.34900
F 	F 	0.78671 0.40534 0.43476 -0.36600
Ni	Ni	0.78731 0.43475 0.90641 1.13600
C 	C 	0.78803 0.45433 0.54248 0.01400
C 	C 	0.78853 0.70525 0.84044 -0.07300
C 	C 	0.79409 0.44955 0.57501 0.28700
F 	F 	0.79289 0.67063 0.74240 -0.39600
H 	H 	0.00194 0.30258 0.33041 0.11500
H 	H 	0.79361 0.76498 0.85045 0.13700
C 	C 	0.80308 0.20574 0.69469 -0.10000
Ni	Ni	0.80864 0.35446 0.62793 1.12400
F 	F 	0.81042 0.31980 0.02186 -0.32600
O 	O 	0.81771 0.28002 0.93451 -0.29700
H 	H 	0.81794 0.14231 0.65532 0.15900
F 	F 	0.81934 0.29744 0.73714 -0.38500
O 	O 	0.82346 0.41399 0.94635 -0.30500
C 	C 	0.82327 0.51974 0.65785 0.35900
C 	C 	0.95879 0.34754 0.48793 -0.00800
H 	H 	0.93962 0.31972 0.51004 0.13700
F 	F 	0.95327 0.67785 0.51715 -0.37000
H 	H 	0.96092 0.54940 0.49310 0.10900
F 	F 	0.97301 0.62405 0.56051 -0.39500
O 	O 	0.99854 0.89060 0.26042 -0.37500
C 	C 	0.90957 0.38290 0.47357 0.12200
C 	C 	0.92657 0.40592 0.44303 -0.14300
C 	C 	0.84775 0.32934 0.87003 0.36400
C 	C 	0.85289 0.35678 0.94994 0.32700
O 	O 	0.87501 0.39966 0.88769 -0.35500
O 	O 	0.86772 0.48890 0.64214 -0.29700
O 	O 	0.83507 0.40716 0.58575 -0.31500
C 	C 	0.90634 0.80063 0.80337 0.34200
C 	C 	0.96983 0.12021 0.73774 0.32800
C 	C 	0.93720 0.84045 0.72538 0.32500
C 	C 	0.96208 0.11068 0.81739 0.30700
Ni	Ni	0.90613 0.95303 0.77152 1.11400
O 	O 	0.88099 0.86213 0.80498 -0.35000
O 	O 	0.97676 0.81143 0.78668 -0.32000
O 	O 	0.93593 0.03412 0.73476 -0.31600
O 	O 	0.87737 0.84583 0.74256 -0.30200
O 	O 	0.89786 0.04751 0.80004 -0.32800
C 	C 	0.84147 0.96625 0.33492 0.33000
C 	C 	0.83024 0.96151 0.25420 0.30700
Ni	Ni	0.95751 0.10824 0.29191 1.11800
Ni	Ni	0.94737 0.91911 0.29658 1.12500
O 	O 	0.84662 0.02689 0.31599 -0.34600
O 	O 	0.83605 0.90343 0.27291 -0.32700
O 	O 	0.88715 0.04838 0.25537 -0.33000
O 	O 	0.90243 0.94089 0.33491 -0.35700
F 	F 	0.83744 0.00923 0.19371 -0.37400
C 	C 	0.89717 0.50017 0.50250 0.04600
C 	C 	0.85565 0.41174 0.49191 0.09000
C 	C 	0.86140 0.52280 0.52716 -0.05700
C 	C 	0.90981 0.61675 0.53959 0.78100
C 	C 	0.87596 0.44422 0.42615 0.79800
F 	F 	0.84901 0.63746 0.55288 -0.36800
F 	F 	0.87717 0.42985 0.39584 -0.39200
F 	F 	0.91698 0.53509 0.43141 -0.42300
C 	C 	0.83547 0.15749 0.67853 -0.05800
C 	C 	0.84237 0.24238 0.72249 0.35800
C 	C 	0.90853 0.22543 0.73455 -0.07900
C 	C 	0.92893 0.16448 0.72053 -0.10500
C 	C 	0.89542 0.13404 0.69171 0.37300
F 	F 	0.92232 0.08322 0.67628 -0.35800
H 	H 	0.94371 0.25954 0.75469 0.11500
C 	C 	0.83073 0.59581 0.70538 -0.06600
C 	C 	0.87070 0.59783 0.67784 -0.10300
C 	C 	0.93681 0.68041 0.66662 0.37400
C 	C 	0.95845 0.75983 0.68209 -0.10700
C 	C 	0.91123 0.75754 0.70810 -0.08500
C 	C 	0.84535 0.67475 0.71910 0.36800
F 	F 	0.97667 0.68432 0.64012 -0.37200
C 	C 	0.94175 0.39156 0.96410 -0.00400
C 	C 	0.94662 0.38988 0.99540 -0.06200
C 	C 	0.88170 0.30868 0.01263 0.78500
C 	C 	0.97203 0.64415 0.02648 0.76700
F 	F 	0.92433 0.29826 0.03738 -0.37700
F 	F 	0.84941 0.23220 0.99531 -0.35700
F 	F 	0.95713 0.71091 0.03766 -0.37700
F 	F 	0.91665 0.56568 0.04122 -0.38200
F 	F 	0.94960 0.63374 0.99652 -0.37400
C 	C 	0.89502 0.21023 0.81362 -0.09300
C 	C 	0.94553 0.18078 0.83002 -0.08600
C 	C 	0.98634 0.22418 0.85698 0.32500
C 	C 	0.96925 0.29057 0.86844 -0.06000
C 	C 	0.91182 0.31380 0.85293 -0.11900
C 	C 	0.88676 0.28272 0.82363 0.36400
F 	F 	0.83841 0.31085 0.80717 -0.38700
H 	H 	0.85956 0.17502 0.79364 0.12200
H 	H 	0.99238 0.31657 0.89069 0.12100
C 	C 	0.84590 0.71200 0.81681 -0.09300
C 	C 	0.83712 0.63333 0.80399 0.37400
F 	F 	0.89467 0.63715 0.78246 -0.40000
