data_crystal

_cell_length_a 22.40664
_cell_length_b 22.69067
_cell_length_c 26.60306
_cell_angle_alpha 95.48419
_cell_angle_beta  95.48361
_cell_angle_gamma 125.98880

_symmetry_space_group_name_	'P 1'
_symmetry_space_group_name_H-M	'P 1'

loop_
_symmetry_equiv_pos_as_xyz
  x,y,z

loop_
_atom_site_label
_atom_site_type_symbol
_atom_site_fract_x
_atom_site_fract_y
_atom_site_fract_z
_atom_site_charge
C 	C 	0.98938 0.06660 0.03440 0.03000
C 	C 	0.06674 0.10617 0.03495 -0.07800
C 	C 	0.09992 0.06960 0.03658 0.02700
H 	H 	0.10081 0.16493 0.03391 0.05000
C 	C 	0.97356 0.01312 0.41072 -0.05200
H 	H 	0.00355 0.07084 0.40719 0.04200
H 	H 	0.61998 0.17939 0.15328 0.05000
C 	C 	0.60372 0.15003 0.24791 0.08300
N 	N 	0.57078 0.09187 0.25879 -0.11600
C 	C 	0.85748 0.00437 0.41015 0.01700
C 	C 	0.81849 0.06908 0.36633 -0.03000
C 	C 	0.80432 0.09013 0.41241 -0.00800
C 	C 	0.81509 0.06637 0.45738 0.04000
C 	C 	0.84103 0.02307 0.45587 -0.07200
C 	C 	0.78035 0.13529 0.41435 -0.00600
H 	H 	0.85082 0.00605 0.49055 0.04800
H 	H 	0.77156 0.15327 0.37990 0.04700
C 	C 	0.09378 0.02876 0.41654 0.01900
C 	C 	0.19709 0.09085 0.37037 -0.03200
C 	C 	0.24860 0.11596 0.41623 -0.00800
C 	C 	0.22232 0.09738 0.46268 0.03900
C 	C 	0.14486 0.05362 0.46257 -0.07300
C 	C 	0.32598 0.15937 0.41625 -0.01200
H 	H 	0.12431 0.03908 0.49807 0.04800
H 	H 	0.34612 0.17280 0.38050 0.03400
C 	C 	0.78312 0.17670 0.98609 -0.09400
C 	C 	0.75826 0.11526 0.94857 0.01300
C 	C 	0.79460 0.08210 0.95017 -0.07300
C 	C 	0.85618 0.11004 0.98946 0.03600
C 	C 	0.88098 0.17151 0.02772 -0.00400
C 	C 	0.97810 0.16529 0.06908 -0.03900
C 	C 	0.95364 0.10423 0.03116 0.01400
C 	C 	0.89313 0.07719 0.99112 -0.07400
H 	H 	0.71119 0.09370 0.91779 0.00800
C 	C 	0.18110 0.11078 0.03813 0.01500
C 	C 	0.22774 0.12236 0.08305 -0.04600
C 	C 	0.30237 0.15075 0.08269 -0.03300
C 	C 	0.33120 0.16802 0.03735 -0.00300
C 	C 	0.28525 0.15903 0.99246 0.03400
C 	C 	0.21026 0.13051 0.99313 -0.07400
C 	C 	0.40520 0.19378 0.03620 -0.00700
H 	H 	0.33739 0.15827 0.11747 0.03800
H 	H 	0.17408 0.12153 0.95844 0.04700
H 	H 	0.44070 0.20086 0.07060 0.04200
O 	O 	0.68637 0.18902 0.00032 -0.36600
C 	C 	0.76697 0.15649 0.46083 -0.08800
C 	C 	0.12011 0.04761 0.37059 -0.04900
H 	H 	0.21663 0.10483 0.33455 0.03500
H 	H 	0.20545 0.10737 0.11791 0.04000
C 	C 	0.94217 0.19896 0.06728 -0.03400
H 	H 	0.02447 0.18615 0.10027 0.03600
C 	C 	0.31461 0.17751 0.94735 -0.07000
H 	H 	0.28004 0.17120 0.91278 0.04500
C 	C 	0.84426 0.20470 0.02576 0.00100
N 	N 	0.48282 0.16644 0.61759 -0.12100
C 	C 	0.27385 0.12289 0.50858 -0.06800
C 	C 	0.38889 0.20436 0.94677 0.01100
C 	C 	0.43409 0.21194 0.99098 -0.08500
O 	O 	0.53999 0.20985 0.00875 -0.35800
H 	H 	0.08080 0.02846 0.33498 0.04100
H 	H 	0.25431 0.10918 0.54443 0.04700
C 	C 	0.80142 0.08759 0.50351 -0.07400
O 	O 	0.69673 0.19426 0.49608 -0.44000
C 	C 	0.74785 0.21407 0.98197 0.28700
H 	H 	0.58226 0.22661 0.91416 0.17400
C 	C 	0.73965 0.20203 0.46313 0.28800
H 	H 	0.56767 0.19648 0.42457 0.16800
H 	H 	0.54958 0.22726 0.74934 0.03900
C 	C 	0.53419 0.21503 0.64750 0.06700
C 	C 	0.35091 0.16654 0.50844 0.01100
C 	C 	0.37742 0.18493 0.46232 -0.07600
H 	H 	0.38999 0.18658 0.54429 0.04700
H 	H 	0.41127 0.21909 0.91191 0.02700
H 	H 	0.87463 0.03039 0.96159 0.04700
H 	H 	0.80961 0.06978 0.53820 0.04300
C 	C 	0.77767 0.13238 0.50525 0.01200
Cu	Cu	0.64708 0.24802 0.00622 0.92900
Cu	Cu	0.70051 0.24780 0.89593 0.86800
O 	O 	0.63468 0.25582 0.93307 -0.64300
C 	C 	0.51303 0.24359 0.99117 0.27800
O 	O 	0.65559 0.25589 0.83506 -0.42000
O 	O 	0.50467 0.23675 0.50086 -0.37600
C 	C 	0.45881 0.23052 0.46199 0.28500
C 	C 	0.64924 0.22902 0.18272 -0.01000
C 	C 	0.64486 0.22264 0.23436 0.00500
H 	H 	0.96164 0.24601 0.09682 0.03900
H 	H 	0.77498 0.03485 0.92076 0.04300
O 	O 	0.76991 0.26340 0.95226 -0.44000
H 	H 	0.86345 0.25238 0.05466 0.03500
O 	O 	0.67563 0.25956 0.07871 -0.36000
O 	O 	0.60076 0.25133 0.43350 -0.63600
C 	C 	0.59782 0.27394 0.73733 -0.01200
C 	C 	0.59834 0.27564 0.68487 -0.00300
O 	O 	0.76486 0.25585 0.43681 -0.36800
H 	H 	0.76800 0.14880 0.54134 0.01000
O 	O 	0.48519 0.27366 0.42752 -0.39100
O 	O 	0.69251 0.26675 0.35823 -0.35900
Cu	Cu	0.72887 0.27605 0.54732 0.86800
O 	O 	0.59525 0.27076 0.32888 -0.38100
C 	C 	0.65867 0.28102 0.32356 0.28500
Cu	Cu	0.61153 0.28953 0.50396 0.89700
H 	H 	0.81001 0.08650 0.33152 0.04000
C 	C 	0.67854 0.28677 0.27227 -0.06300
Cu	Cu	0.57053 0.29693 0.39350 0.89400
C 	C 	0.68687 0.29895 0.16860 -0.06400
C 	C 	0.67444 0.30372 0.11414 0.28600
C 	C 	0.84522 0.02667 0.36529 -0.04700
Cu	Cu	0.71531 0.30569 0.43007 0.92600
O 	O 	0.55930 0.31190 0.98411 -0.39300
H 	H 	0.85800 0.01252 0.32989 0.04300
C 	C 	0.66685 0.31799 0.82746 0.28200
O 	O 	0.62372 0.32097 0.57824 -0.37300
C 	C 	0.01256 0.98279 0.41643 0.00500
C 	C 	0.89631 0.96972 0.41093 0.01500
C 	C 	0.05566 0.99343 0.03691 -0.07700
C 	C 	0.97850 0.95371 0.03604 0.03000
C 	C 	0.94555 0.99043 0.03546 -0.07300
H 	H 	0.08123 0.96505 0.03767 0.05200
H 	H 	0.88585 0.95969 0.03516 0.05100
C 	C 	0.85754 0.89493 0.41549 -0.06300
C 	C 	0.89650 0.86415 0.42108 0.01600
C 	C 	0.97428 0.90875 0.42221 -0.05300
H 	H 	0.79761 0.86107 0.41498 0.04700
H 	H 	0.00495 0.88588 0.42756 0.04200
Cu	Cu	0.69042 0.36545 0.94000 0.89600
Cu	Cu	0.65824 0.38993 0.04288 0.89600
O 	O 	0.71289 0.36357 0.01086 -0.63900
O 	O 	0.64440 0.33734 0.10190 -0.37900
O 	O 	0.75126 0.47249 0.95086 -0.38000
C 	C 	0.75079 0.51526 0.98801 0.28400
O 	O 	0.70360 0.48695 0.02034 -0.38700
O 	O 	0.67718 0.36669 0.86583 -0.37500
H 	H 	0.76710 0.39389 0.02586 0.16900
O 	O 	0.76232 0.41038 0.41813 -0.36900
C 	C 	0.67236 0.32767 0.61525 0.28000
O 	O 	0.71983 0.33515 0.50378 -0.64000
C 	C 	0.73039 0.44314 0.42560 0.28000
O 	O 	0.66315 0.40614 0.43716 -0.38800
O 	O 	0.73252 0.33465 0.60551 -0.41900
H 	H 	0.75371 0.38920 0.51750 0.17500
C 	C 	0.66095 0.33004 0.77430 -0.06900
C 	C 	0.66278 0.33413 0.66908 -0.07000
C 	C 	0.72298 0.39371 0.70619 -0.01200
C 	C 	0.72235 0.39209 0.75868 -0.00200
H 	H 	0.77169 0.43985 0.69416 0.04100
C 	C 	0.78636 0.45270 0.79612 0.07000
N 	N 	0.83763 0.50126 0.82610 -0.12100
C 	C 	0.72232 0.35686 0.25879 -0.01500
C 	C 	0.72709 0.36333 0.20725 0.00200
H 	H 	0.75001 0.40630 0.28818 0.03600
C 	C 	0.77281 0.43616 0.19424 0.06500
N 	N 	0.80942 0.49449 0.18382 -0.12600
C 	C 	0.85624 0.78539 0.42627 0.01600
C 	C 	0.81130 0.75793 0.46384 -0.04700
C 	C 	0.77761 0.68521 0.47128 -0.03200
C 	C 	0.78954 0.63945 0.44187 -0.00700
C 	C 	0.83497 0.66684 0.40421 0.03800
C 	C 	0.86687 0.73916 0.39589 -0.07100
C 	C 	0.84862 0.62187 0.37579 -0.07000
C 	C 	0.81675 0.54993 0.38421 0.01100
C 	C 	0.76985 0.52155 0.42059 -0.08100
C 	C 	0.75681 0.56672 0.44971 -0.01200
H 	H 	0.80347 0.79333 0.48787 0.04000
H 	H 	0.74304 0.66486 0.50037 0.03600
H 	H 	0.90082 0.75989 0.36645 0.04900
H 	H 	0.88386 0.64254 0.34709 0.04800
H 	H 	0.82733 0.51572 0.36168 0.03500
H 	H 	0.72135 0.54532 0.47827 0.03900
C 	C 	0.93194 0.87321 0.03444 0.01600
C 	C 	0.90049 0.84425 0.07708 -0.04500
C 	C 	0.85923 0.76821 0.07664 -0.03300
C 	C 	0.84888 0.72033 0.03340 -0.00200
C 	C 	0.87986 0.74923 0.99016 0.03400
C 	C 	0.92128 0.82565 0.99091 -0.07300
C 	C 	0.86916 0.70135 0.94685 -0.06700
C 	C 	0.82766 0.62524 0.94626 0.01000
C 	C 	0.79654 0.59604 0.98912 -0.07900
C 	C 	0.80792 0.64401 0.03284 -0.00800
H 	H 	0.90876 0.88085 0.11081 0.04200
H 	H 	0.83555 0.74660 0.10996 0.03700
H 	H 	0.94552 0.84823 0.95792 0.04800
H 	H 	0.89269 0.72297 0.91349 0.04800
H 	H 	0.81910 0.58895 0.91224 0.04700
H 	H 	0.78499 0.62200 0.06631 0.04000
