data_crystal

_cell_length_a 30.66641
_cell_length_b 31.10119
_cell_length_c 34.92805
_cell_angle_alpha 95.54416
_cell_angle_beta  95.54290
_cell_angle_gamma 125.54806

_symmetry_space_group_name_	'P 1'
_symmetry_space_group_name_H-M	'P 1'

loop_
_symmetry_equiv_pos_as_xyz
  x,y,z

loop_
_atom_site_label
_atom_site_type_symbol
_atom_site_fract_x
_atom_site_fract_y
_atom_site_fract_z
_atom_site_charge
C 	C 	0.97890 0.02843 0.99691 0.11900
N 	N 	0.94872 0.97444 0.99551 -0.14200
C 	C 	0.97278 0.94910 0.99442 0.12000
N 	N 	0.02722 0.97792 0.99505 -0.14100
C 	C 	0.05759 0.03183 0.99641 0.11800
N 	N 	0.03338 0.05708 0.99720 -0.14200
C 	C 	0.94187 0.99707 0.44897 0.11900
N 	N 	0.99647 0.02656 0.44961 -0.14100
C 	C 	0.02318 0.00425 0.45497 0.11800
N 	N 	0.99518 0.95230 0.45971 -0.14100
C 	C 	0.94068 0.92257 0.45914 0.11900
N 	N 	0.91394 0.94493 0.45367 -0.14100
Cu	Cu	0.65461 0.25919 0.99701 0.92700
Cu	Cu	0.69939 0.26800 0.91471 0.86600
Cu	Cu	0.67730 0.34343 0.94759 0.89600
Cu	Cu	0.65210 0.35629 0.02632 0.89400
C 	C 	0.67312 0.29836 0.07916 0.29700
O 	O 	0.57485 0.22563 0.99751 -0.36500
C 	C 	0.66969 0.31604 0.86285 0.29400
O 	O 	0.69602 0.34282 0.00148 -0.64000
O 	O 	0.64553 0.26543 0.94148 -0.64100
O 	O 	0.68956 0.22191 0.99267 -0.37600
O 	O 	0.74997 0.28140 0.95857 -0.44400
O 	O 	0.64534 0.31740 0.07026 -0.38500
O 	O 	0.71384 0.42029 0.95574 -0.38600
C 	C 	0.71294 0.44957 0.98529 0.29100
C 	C 	0.55179 0.24741 0.98407 0.28300
O 	O 	0.58242 0.29810 0.98045 -0.39700
O 	O 	0.68147 0.42743 0.01136 -0.39500
O 	O 	0.67501 0.26690 0.05223 -0.36500
C 	C 	0.73589 0.24458 0.98013 0.29200
O 	O 	0.66413 0.34297 0.89124 -0.38100
O 	O 	0.66678 0.27297 0.86757 -0.42000
H 	H 	0.73555 0.36726 0.01273 0.16200
H 	H 	0.60778 0.24124 0.92624 0.17400
Cu	Cu	0.72881 0.33754 0.44764 0.92700
Cu	Cu	0.72217 0.29459 0.53028 0.86700
Cu	Cu	0.63845 0.30498 0.49446 0.89600
Cu	Cu	0.62410 0.32895 0.41564 0.89300
C 	C 	0.69073 0.31779 0.36501 0.29700
O 	O 	0.75634 0.41491 0.44721 -0.36300
C 	C 	0.66813 0.31895 0.58053 0.29600
O 	O 	0.64309 0.28982 0.44113 -0.64100
O 	O 	0.71916 0.34396 0.50246 -0.64300
O 	O 	0.77128 0.30774 0.45348 -0.37500
O 	O 	0.71251 0.24579 0.48721 -0.44300
O 	O 	0.66675 0.34081 0.37297 -0.38500
O 	O 	0.55960 0.26203 0.48413 -0.38700
C 	C 	0.52890 0.26367 0.45585 0.29400
C 	C 	0.72935 0.43294 0.45930 0.28200
O 	O 	0.67799 0.39855 0.46206 -0.39600
O 	O 	0.54971 0.29315 0.42863 -0.39600
O 	O 	0.72450 0.31944 0.39270 -0.36500
C 	C 	0.74996 0.26177 0.46544 0.28900
O 	O 	0.63474 0.31402 0.55043 -0.38400
O 	O 	0.71371 0.32531 0.57637 -0.42300
H 	H 	0.62156 0.25107 0.42957 0.16200
H 	H 	0.74020 0.38110 0.51764 0.17400
C 	C 	0.65742 0.32374 0.62028 -0.11100
C 	C 	0.62188 0.27736 0.63587 0.12100
C 	C 	0.62082 0.28266 0.67608 -0.09700
C 	C 	0.65389 0.33340 0.70068 0.00000
C 	C 	0.68546 0.38011 0.68438 0.05700
C 	C 	0.68754 0.37476 0.64434 -0.02100
N 	N 	0.58938 0.22768 0.61259 -0.20400
H 	H 	0.59558 0.24702 0.68851 0.05500
C 	C 	0.66088 0.33649 0.74366 -0.00000
N 	N 	0.71375 0.43002 0.70697 -0.19200
H 	H 	0.71360 0.41033 0.63206 0.03800
C 	C 	0.70715 0.34345 0.76348 -0.09500
C 	C 	0.71256 0.34073 0.80334 0.11800
C 	C 	0.66977 0.32871 0.82329 -0.10900
C 	C 	0.62468 0.32434 0.80401 -0.02100
C 	C 	0.62007 0.32872 0.76438 0.05800
H 	H 	0.73892 0.35061 0.74772 0.05400
N 	N 	0.75914 0.35040 0.82239 -0.20200
H 	H 	0.59251 0.31634 0.81961 0.04300
N 	N 	0.57669 0.32570 0.74652 -0.19200
H 	H 	0.78972 0.35741 0.80712 0.07700
H 	H 	0.76643 0.35316 0.85266 0.06200
H 	H 	0.54608 0.31866 0.76177 0.08200
H 	H 	0.57362 0.33174 0.71779 0.08700
H 	H 	0.73835 0.46431 0.69501 0.08100
H 	H 	0.71018 0.43533 0.73618 0.08700
H 	H 	0.58772 0.22251 0.58237 0.07800
H 	H 	0.56428 0.19353 0.62456 0.08000
C 	C 	0.68898 0.30000 0.12087 -0.10700
C 	C 	0.71531 0.34807 0.14886 0.12100
C 	C 	0.71839 0.34586 0.18890 -0.09500
C 	C 	0.69917 0.29726 0.20144 0.00000
C 	C 	0.67853 0.25044 0.17358 0.05800
C 	C 	0.67264 0.25200 0.13346 -0.02200
N 	N 	0.73875 0.39646 0.13752 -0.20200
H 	H 	0.73579 0.38207 0.21037 0.05700
C 	C 	0.69667 0.29497 0.24344 0.00000
N 	N 	0.66455 0.20410 0.18512 -0.19200
H 	H 	0.65401 0.21546 0.11205 0.04900
C 	C 	0.64612 0.27108 0.25519 -0.09500
C 	C 	0.64290 0.27350 0.29506 0.12100
C 	C 	0.69153 0.30360 0.32363 -0.10600
C 	C 	0.74182 0.32495 0.31189 -0.02100
C 	C 	0.74472 0.31996 0.27198 0.05900
H 	H 	0.60917 0.25052 0.23323 0.05600
N 	N 	0.59316 0.24593 0.30570 -0.20200
H 	H 	0.77897 0.34666 0.33378 0.05000
N 	N 	0.79353 0.33896 0.26130 -0.19200
H 	H 	0.55752 0.22580 0.28451 0.08100
H 	H 	0.58925 0.24184 0.33475 0.07000
H 	H 	0.82909 0.35885 0.28253 0.08300
H 	H 	0.79641 0.33259 0.23204 0.08700
H 	H 	0.64772 0.16924 0.16436 0.08300
H 	H 	0.67196 0.20266 0.21461 0.08700
H 	H 	0.74277 0.40026 0.10845 0.07100
H 	H 	0.75592 0.43144 0.15824 0.08100
C 	C 	0.75458 0.49132 0.46533 -0.09000
C 	C 	0.80912 0.52858 0.46141 0.01500
C 	C 	0.83110 0.58294 0.46345 -0.07100
C 	C 	0.79895 0.60057 0.46956 0.04000
C 	C 	0.74523 0.56398 0.47472 -0.07100
C 	C 	0.72312 0.50966 0.47275 0.01300
C 	C 	0.82068 0.65599 0.46953 -0.02500
C 	C 	0.83910 0.70242 0.46947 -0.01700
C 	C 	0.86184 0.75806 0.46933 0.02600
C 	C 	0.83654 0.77150 0.44250 -0.05300
C 	C 	0.86095 0.82553 0.44035 -0.01700
C 	C 	0.91099 0.86639 0.46491 -0.02400
C 	C 	0.93516 0.85279 0.49269 -0.01600
C 	C 	0.91068 0.79885 0.49483 -0.05300
H 	H 	0.83426 0.51544 0.45625 0.03500
H 	H 	0.87289 0.61118 0.45981 0.04800
H 	H 	0.72028 0.57742 0.47976 0.04800
H 	H 	0.68125 0.48175 0.47629 0.03100
H 	H 	0.79860 0.74016 0.42281 0.04400
H 	H 	0.84191 0.83545 0.41877 0.03900
H 	H 	0.97341 0.88397 0.51214 0.03800
H 	H 	0.93024 0.78878 0.51585 0.04400
C 	C 	0.76888 0.22867 0.45542 -0.09700
C 	C 	0.73371 0.17266 0.45318 0.01600
C 	C 	0.75319 0.14189 0.44821 -0.07400
C 	C 	0.80789 0.16671 0.44535 0.04100
C 	C 	0.84263 0.22226 0.44608 -0.07300
C 	C 	0.82321 0.25317 0.45102 0.01700
C 	C 	0.82900 0.13562 0.44383 -0.02600
C 	C 	0.84627 0.10925 0.44256 -0.01700
C 	C 	0.86712 0.07792 0.44166 0.02500
C 	C 	0.90731 0.08935 0.41967 -0.05300
C 	C 	0.93038 0.06162 0.42097 -0.01700
C 	C 	0.91350 0.02226 0.44444 -0.02400
C 	C 	0.87199 0.00976 0.46553 -0.01800
C 	C 	0.84896 0.03756 0.46415 -0.05300
H 	H 	0.69149 0.15307 0.45588 0.02700
H 	H 	0.72598 0.09891 0.44733 0.04700
H 	H 	0.88493 0.24170 0.44367 0.04800
H 	H 	0.85080 0.29627 0.45262 0.03100
H 	H 	0.92129 0.12025 0.40201 0.04400
H 	H 	0.96179 0.07117 0.40411 0.03900
H 	H 	0.85864 0.97964 0.48383 0.04000
H 	H 	0.81774 0.02837 0.48114 0.04300
C 	C 	0.08261 0.03654 0.45635 -0.02300
C 	C 	0.10717 0.07487 0.43217 -0.01700
C 	C 	0.16319 0.10394 0.43251 -0.05300
C 	C 	0.19503 0.09502 0.45702 0.02500
C 	C 	0.17081 0.05730 0.48149 -0.05200
C 	C 	0.11485 0.02819 0.48121 -0.01800
C 	C 	0.25242 0.12402 0.45664 -0.01600
C 	C 	0.30048 0.14832 0.45631 -0.02600
C 	C 	0.35784 0.17714 0.45590 0.04200
C 	C 	0.38614 0.15794 0.47097 -0.07200
C 	C 	0.44196 0.18608 0.47090 0.01800
C 	C 	0.46989 0.23370 0.45568 -0.09100
C 	C 	0.44128 0.25273 0.44048 0.01800
C 	C 	0.38547 0.22450 0.44060 -0.07200
H 	H 	0.08279 0.08154 0.41270 0.03900
H 	H 	0.18172 0.13312 0.41355 0.04400
H 	H 	0.19527 0.05038 0.50064 0.04300
H 	H 	0.09659 0.99925 0.50037 0.04000
H 	H 	0.36495 0.12125 0.48277 0.04700
H 	H 	0.46334 0.17066 0.48242 0.02900
H 	H 	0.46235 0.28964 0.42897 0.03100
H 	H 	0.36382 0.23961 0.42895 0.04800
C 	C 	0.74219 0.50774 0.98621 -0.09300
C 	C 	0.79025 0.53651 0.97083 0.01800
C 	C 	0.81780 0.59157 0.97149 -0.07200
C 	C 	0.79761 0.61827 0.98752 0.04000
C 	C 	0.74978 0.58979 0.00294 -0.07000
C 	C 	0.72211 0.53473 0.00230 0.02000
C 	C 	0.82612 0.67493 0.98823 -0.02600
C 	C 	0.85034 0.72240 0.98867 -0.01600
C 	C 	0.87985 0.77911 0.98908 0.02400
C 	C 	0.86634 0.80884 0.01059 -0.05100
C 	C 	0.89618 0.86430 0.01195 -0.01500
C 	C 	0.93983 0.89035 0.99180 -0.02600
C 	C 	0.95273 0.86021 0.96984 -0.01700
C 	C 	0.92285 0.80483 0.96854 -0.05300
H 	H 	0.80646 0.51635 0.95863 0.02800
H 	H 	0.85488 0.61345 0.95960 0.04700
H 	H 	0.73395 0.61025 0.01534 0.04800
H 	H 	0.68484 0.51301 0.01395 0.03200
H 	H 	0.83307 0.78913 0.02651 0.04400
H 	H 	0.88596 0.88708 0.02915 0.04000
H 	H 	0.98583 0.87967 0.95376 0.04000
H 	H 	0.93333 0.78197 0.95173 0.04300
C 	C 	0.76924 0.22489 0.98675 -0.10200
C 	C 	0.76219 0.19487 0.01629 0.02200
C 	C 	0.79094 0.17294 0.02051 -0.07200
C 	C 	0.82703 0.18102 0.99541 0.04000
C 	C 	0.83543 0.21229 0.96677 -0.07500
C 	C 	0.80675 0.23419 0.96243 0.01600
C 	C 	0.85302 0.15469 0.99743 -0.02700
C 	C 	0.87519 0.13301 0.99862 -0.01700
C 	C 	0.90101 0.10644 0.99900 0.02300
C 	C 	0.87303 0.05389 0.97802 -0.05300
C 	C 	0.89853 0.02853 0.97717 -0.01800
C 	C 	0.95233 0.05558 0.99739 -0.02600
C 	C 	0.98027 0.10830 0.01847 -0.01500
C 	C 	0.95464 0.13361 0.01923 -0.05100
H 	H 	0.73415 0.18811 0.03571 0.03700
H 	H 	0.78451 0.14903 0.04289 0.04900
H 	H 	0.86340 0.21879 0.94734 0.04600
H 	H 	0.81278 0.25730 0.93957 0.01600
H 	H 	0.83163 0.03278 0.96215 0.04300
H 	H 	0.87665 0.98807 0.96051 0.04000
H 	H 	0.02157 0.12946 0.03452 0.03900
H 	H 	0.97654 0.17431 0.03546 0.04400
C 	C 	0.11646 0.06248 0.99659 -0.02600
C 	C 	0.14056 0.09937 0.97137 -0.01700
C 	C 	0.19493 0.12331 0.96802 -0.05300
C 	C 	0.22546 0.11070 0.98996 0.02400
C 	C 	0.20208 0.07548 0.01618 -0.05100
C 	C 	0.14781 0.05145 0.01950 -0.01500
C 	C 	0.28021 0.13252 0.98483 -0.01600
C 	C 	0.32615 0.15006 0.98126 -0.02600
C 	C 	0.38119 0.17054 0.97798 0.04100
C 	C 	0.40582 0.14966 0.99636 -0.07300
C 	C 	0.46093 0.17297 0.99667 0.01400
C 	C 	0.49196 0.21762 0.97866 -0.09100
C 	C 	0.46631 0.23663 0.95850 0.01400
C 	C 	0.41119 0.21329 0.95835 -0.07200
H 	H 	0.11677 0.10816 0.95350 0.03900
H 	H 	0.21292 0.15085 0.94788 0.04300
H 	H 	0.22566 0.06600 0.03352 0.04400
H 	H 	0.12984 0.02356 0.03941 0.03900
H 	H 	0.38264 0.11623 0.01128 0.05000
H 	H 	0.47986 0.15747 0.01204 0.03900
H 	H 	0.48932 0.27022 0.94372 0.03100
H 	H 	0.39217 0.22920 0.94366 0.04800
