data_crystal

_cell_length_a 25.89494
_cell_length_b 26.48779
_cell_length_c 36.73480
_cell_angle_alpha 95.49400
_cell_angle_beta  95.49259
_cell_angle_gamma 125.83736

_symmetry_space_group_name_	'P 1'
_symmetry_space_group_name_H-M	'P 1'

loop_
_symmetry_equiv_pos_as_xyz
  x,y,z

loop_
_atom_site_label
_atom_site_type_symbol
_atom_site_fract_x
_atom_site_fract_y
_atom_site_fract_z
_atom_site_charge
C 	C 	0.95741 0.02344 0.98026 0.15700
N 	N 	0.02210 0.05851 0.98037 -0.12400
C 	C 	0.05075 0.02937 0.97569 0.15900
C 	C 	0.95017 0.93024 0.97122 0.15900
C 	C 	0.93422 0.99211 0.46534 0.16300
N 	N 	0.90042 0.93063 0.46961 -0.13000
C 	C 	0.93242 0.90579 0.47818 0.15800
N 	N 	0.99815 0.94305 0.48383 -0.13100
C 	C 	0.03203 0.00429 0.47930 0.16000
N 	N 	0.99981 0.02831 0.46933 -0.11700
Cu	Cu	0.63779 0.24772 0.00847 0.93300
Cu	Cu	0.67352 0.23421 0.92667 0.88000
Cu	Cu	0.67195 0.34121 0.95619 0.90000
Cu	Cu	0.66157 0.37768 0.03282 0.90900
C 	C 	0.67194 0.30413 0.08578 0.31000
O 	O 	0.54935 0.22510 0.01295 -0.34100
C 	C 	0.64427 0.29265 0.87561 0.30500
O 	O 	0.69934 0.34532 0.00762 -0.63700
O 	O 	0.62214 0.24819 0.95488 -0.63900
O 	O 	0.66528 0.19149 0.00482 -0.33900
O 	O 	0.73461 0.24701 0.96647 -0.42700
O 	O 	0.64856 0.33497 0.07665 -0.35900
O 	O 	0.72596 0.43213 0.95940 -0.36700
C 	C 	0.72682 0.47301 0.98354 0.31300
C 	C 	0.52925 0.25611 0.99910 0.30100
O 	O 	0.57146 0.31359 0.99298 -0.37600
O 	O 	0.71029 0.46103 0.01636 -0.35900
O 	O 	0.66763 0.26200 0.06078 -0.34600
C 	C 	0.71552 0.20735 0.98965 0.30900
O 	O 	0.65065 0.33431 0.90223 -0.36700
O 	O 	0.63349 0.23957 0.88228 -0.40200
H 	H 	0.74673 0.36902 0.01568 0.18400
H 	H 	0.57605 0.22346 0.94267 0.18400
Cu	Cu	0.74442 0.34072 0.46079 0.93300
Cu	Cu	0.73962 0.28248 0.53643 0.88300
Cu	Cu	0.63458 0.28949 0.50469 0.90500
Cu	Cu	0.61930 0.33114 0.43400 0.90100
C 	C 	0.70133 0.32863 0.38336 0.30900
O 	O 	0.77619 0.43235 0.46540 -0.33700
C 	C 	0.67415 0.30539 0.58573 0.30900
O 	O 	0.64245 0.28244 0.45354 -0.63800
O 	O 	0.73112 0.33997 0.51281 -0.63800
O 	O 	0.79531 0.30613 0.46253 -0.35500
O 	O 	0.72720 0.22861 0.49313 -0.41200
O 	O 	0.67116 0.35265 0.39343 -0.37000
O 	O 	0.54109 0.23746 0.49299 -0.35600
C 	C 	0.50748 0.25136 0.47285 0.31300
C 	C 	0.74284 0.45051 0.47863 0.30500
O 	O 	0.68226 0.40762 0.48112 -0.38400
O 	O 	0.53028 0.28480 0.44617 -0.37600
O 	O 	0.74088 0.32747 0.40816 -0.34400
C 	C 	0.77032 0.25024 0.47142 0.31100
O 	O 	0.62632 0.28176 0.55709 -0.36000
O 	O 	0.72875 0.31434 0.58156 -0.39800
H 	H 	0.61809 0.23832 0.43982 0.18500
H 	H 	0.75389 0.38235 0.52865 0.19100
C 	C 	0.64253 0.31710 0.69182 0.00700
C 	C 	0.58831 0.26465 0.70217 -0.02600
C 	C 	0.58453 0.26312 0.73982 -0.02600
C 	C 	0.63492 0.31406 0.76725 0.00400
C 	C 	0.68689 0.36832 0.75678 -0.02600
C 	C 	0.69069 0.36983 0.71912 -0.02700
C 	C 	0.63777 0.30708 0.80563 0.05600
C 	C 	0.64000 0.30110 0.83773 -0.09100
C 	C 	0.65306 0.31330 0.65420 0.05900
C 	C 	0.66203 0.31026 0.62272 -0.08200
H 	H 	0.55056 0.22392 0.68120 0.05900
H 	H 	0.54391 0.22122 0.74769 0.05600
H 	H 	0.72577 0.40813 0.77781 0.05500
H 	H 	0.73248 0.41079 0.71132 0.05700
C 	C 	0.71157 0.30879 0.27337 0.00700
C 	C 	0.66508 0.25127 0.24883 -0.02500
C 	C 	0.66186 0.24830 0.21038 -0.02400
C 	C 	0.70510 0.30286 0.19635 0.00800
C 	C 	0.75402 0.35936 0.22097 -0.02500
C 	C 	0.75725 0.36232 0.25941 -0.02400
C 	C 	0.69413 0.30304 0.15721 0.06000
C 	C 	0.68499 0.30324 0.12445 -0.07900
C 	C 	0.70783 0.31478 0.31222 0.05800
C 	C 	0.70522 0.32044 0.34481 -0.08200
H 	H 	0.62990 0.20954 0.25943 0.05800
H 	H 	0.62416 0.20432 0.19152 0.06100
H 	H 	0.78788 0.40163 0.21034 0.05700
H 	H 	0.79366 0.40684 0.27822 0.05900
C 	C 	0.89616 0.83742 0.47752 -0.03300
C 	C 	0.89629 0.79855 0.44860 0.12400
C 	C 	0.86988 0.73565 0.45091 -0.06600
C 	C 	0.84239 0.71066 0.48165 0.01500
C 	C 	0.84037 0.74887 0.51003 0.09900
C 	C 	0.86721 0.81202 0.50783 -0.03700
H 	H 	0.87057 0.70606 0.42875 0.08700
C 	C 	0.81494 0.64413 0.48351 0.03000
H 	H 	0.86689 0.84174 0.53010 0.07900
C 	C 	0.85372 0.63013 0.50219 -0.08200
C 	C 	0.83012 0.56702 0.50173 0.15100
C 	C 	0.76747 0.51730 0.48183 -0.09600
C 	C 	0.72823 0.53151 0.46396 -0.00600
C 	C 	0.75158 0.59448 0.46479 0.08300
H 	H 	0.90229 0.66830 0.51700 0.09100
H 	H 	0.67985 0.49351 0.44882 0.05700
Br	Br	0.80142 0.71569 0.55199 -0.18600
Br	Br	0.93161 0.83042 0.40547 -0.18500
Br	Br	0.88286 0.54993 0.52995 -0.21900
Br	Br	0.69632 0.61182 0.44002 -0.18600
C 	C 	0.90062 0.02100 0.45930 -0.03000
C 	C 	0.90536 0.04935 0.42798 0.12600
C 	C 	0.88262 0.08586 0.42578 -0.06400
C 	C 	0.85490 0.09419 0.45453 0.01500
C 	C 	0.84692 0.06299 0.48483 0.10100
C 	C 	0.86969 0.02654 0.48705 -0.03500
H 	H 	0.88747 0.10862 0.40201 0.08800
C 	C 	0.83642 0.13736 0.45346 0.03000
C 	C 	0.77298 0.11312 0.43742 -0.08400
C 	C 	0.75217 0.15138 0.44064 0.15300
C 	C 	0.79504 0.21446 0.46018 -0.10000
C 	C 	0.85985 0.24002 0.47370 -0.00900
C 	C 	0.88067 0.20176 0.47051 0.08300
H 	H 	0.73932 0.06406 0.42335 0.09100
H 	H 	0.89332 0.28881 0.48825 0.06400
Br	Br	0.80673 0.07115 0.52397 -0.19700
Br	Br	0.94136 0.03753 0.38758 -0.17600
Br	Br	0.66526 0.11695 0.41785 -0.21800
Br	Br	0.96896 0.23752 0.49093 -0.18200
C 	C 	0.43852 0.21923 0.47527 -0.09000
C 	C 	0.41792 0.21057 0.50989 0.14900
C 	C 	0.35171 0.17519 0.51095 -0.08300
C 	C 	0.30594 0.15152 0.47810 0.02900
C 	C 	0.32691 0.16484 0.44398 0.08700
C 	C 	0.39263 0.19695 0.44254 -0.00800
H 	H 	0.33587 0.16701 0.53744 0.08800
C 	C 	0.23622 0.11320 0.47974 0.01500
H 	H 	0.40802 0.20461 0.41592 0.07200
C 	C 	0.21075 0.14259 0.49554 -0.06600
C 	C 	0.14475 0.10713 0.49721 0.12300
C 	C 	0.10280 0.04200 0.48094 -0.02700
C 	C 	0.12880 0.01250 0.46587 -0.03900
C 	C 	0.19533 0.04734 0.46620 0.10400
H 	H 	0.24256 0.19289 0.50718 0.08700
Br	Br	0.26674 0.14110 0.39922 -0.17600
Br	Br	0.47911 0.25188 0.55613 -0.20900
Br	Br	0.11463 0.14725 0.52501 -0.18400
C 	C 	0.75902 0.53789 0.97698 -0.09200
C 	C 	0.82598 0.58432 0.99011 0.15000
C 	C 	0.85494 0.64719 0.98641 -0.08200
C 	C 	0.81753 0.66428 0.96987 0.02800
C 	C 	0.75099 0.61746 0.95561 0.08600
C 	C 	0.72204 0.55453 0.95927 -0.00800
H 	H 	0.90631 0.68306 0.99707 0.09000
C 	C 	0.84778 0.73161 0.96921 0.01600
H 	H 	0.67056 0.51875 0.94890 0.06700
C 	C 	0.87581 0.75740 0.93877 -0.06600
C 	C 	0.90767 0.82198 0.93859 0.12400
C 	C 	0.91239 0.86145 0.96939 -0.03200
C 	C 	0.88290 0.83527 0.99940 -0.04100
C 	C 	0.85078 0.77068 0.99947 0.09800
H 	H 	0.87287 0.72724 0.91525 0.08700
H 	H 	0.88603 0.86540 0.02302 0.08200
Br	Br	0.69873 0.63888 0.93181 -0.18400
Br	Br	0.87842 0.56286 0.01365 -0.21100
Br	Br	0.94216 0.85486 0.89547 -0.17600
Br	Br	0.81178 0.73669 0.04129 -0.18000
C 	C 	0.74985 0.17988 0.99792 -0.10600
C 	C 	0.71816 0.11420 0.98745 0.15000
C 	C 	0.75419 0.09040 0.98922 -0.09100
C 	C 	0.82170 0.13154 0.00099 0.04000
C 	C 	0.85290 0.19666 0.01324 0.07900
C 	C 	0.81688 0.22047 0.01176 -0.00000
H 	H 	0.73000 0.04014 0.98010 0.09200
C 	C 	0.85983 0.10715 0.99674 0.00600
H 	H 	0.84136 0.27092 0.02022 0.06600
C 	C 	0.88022 0.10559 0.96291 -0.06400
C 	C 	0.91316 0.07928 0.95746 0.12300
C 	C 	0.92654 0.05480 0.98623 -0.03400
C 	C 	0.90692 0.05713 0.02026 -0.03500
C 	C 	0.87355 0.08305 0.02560 0.10500
H 	H 	0.86949 0.12391 0.94060 0.08200
H 	H 	0.91699 0.03815 0.04242 0.07900
Br	Br	0.94491 0.25398 0.03103 -0.18300
Br	Br	0.62659 0.05681 0.96806 -0.22300
Br	Br	0.93662 0.07435 0.90995 -0.17300
Br	Br	0.84665 0.08473 0.07234 -0.18200
C 	C 	0.12135 0.06725 0.97839 -0.03400
C 	C 	0.15129 0.10148 0.95044 0.12500
C 	C 	0.21826 0.13485 0.95274 -0.06500
C 	C 	0.25551 0.13332 0.98232 0.01400
C 	C 	0.22559 0.09923 0.01029 0.10200
C 	C 	0.15883 0.06655 0.00824 -0.03400
H 	H 	0.24119 0.16099 0.93115 0.08700
C 	C 	0.32566 0.16700 0.98369 0.02700
H 	H 	0.13591 0.04005 0.02971 0.07900
C 	C 	0.36963 0.22790 0.00541 -0.07900
C 	C 	0.43639 0.25795 0.01025 0.15600
C 	C 	0.45969 0.22755 0.99232 -0.09800
C 	C 	0.41569 0.16748 0.96961 -0.00700
C 	C 	0.34891 0.13708 0.96528 0.08400
H 	H 	0.35180 0.25096 0.01962 0.09300
H 	H 	0.43339 0.14399 0.95573 0.06100
Br	Br	0.27498 0.09576 0.05109 -0.18500
Br	Br	0.10117 0.10049 0.90796 -0.16700
Br	Br	0.49436 0.33814 0.04375 -0.22200
Br	Br	0.29009 0.05395 0.93497 -0.18700
N 	N 	0.01486 0.96534 0.97155 -0.12600
N 	N 	0.92161 0.95940 0.97593 -0.13100
H 	H 	0.86540 0.00436 0.51102 0.08100
H 	H 	0.09724 0.96233 0.45391 0.09100
Br	Br	0.22977 0.00383 0.44909 -0.18400
