data_crystal

_cell_length_a 17.80037
_cell_length_b 17.05199
_cell_length_c 49.03448
_cell_angle_alpha 90.73648
_cell_angle_beta  91.03120
_cell_angle_gamma 110.84898

_symmetry_space_group_name_	'P 1'
_symmetry_space_group_name_H-M	'P 1'

loop_
_symmetry_equiv_pos_as_xyz
  x,y,z

loop_
_atom_site_label
_atom_site_type_symbol
_atom_site_fract_x
_atom_site_fract_y
_atom_site_fract_z
_atom_site_charge
O 	O 	0.09491 0.86840 0.75971 -0.70100
Ni	Ni	0.10842 0.97707 0.77940 1.09700
O 	O 	0.16135 0.76980 0.72368 -0.38900
Ni	Ni	0.20276 0.86748 0.75279 1.07100
O 	O 	0.21741 0.96315 0.72635 -0.41700
O 	O 	0.17919 0.96476 0.81092 -0.38200
O 	O 	0.03875 0.98454 0.74690 -0.71500
O 	O 	0.09677 0.08058 0.79826 -0.35800
H 	H 	0.06382 0.81880 0.77018 0.15800
H 	H 	0.06368 0.03665 0.73663 0.16400
C 	C 	0.23467 0.04094 0.73565 0.28300
C 	C 	0.08896 0.74411 0.71221 0.29000
C 	C 	0.25066 0.96199 0.80636 0.28100
C 	C 	0.02545 0.08661 0.80061 0.27200
O 	O 	0.20800 0.05632 0.75954 -0.36400
O 	O 	0.27154 0.95259 0.78121 -0.40600
Ni	Ni	0.35651 0.74277 0.40670 1.11200
O 	O 	0.33948 0.66646 0.37251 -0.69600
Ni	Ni	0.23126 0.66781 0.35974 1.10000
O 	O 	0.44382 0.70804 0.42494 -0.32800
O 	O 	0.42340 0.57844 0.40705 -0.35300
O 	O 	0.44739 0.83747 0.38849 -0.33900
Ni	Ni	0.32365 0.54885 0.38073 1.08200
O 	O 	0.36191 0.92610 0.40958 -0.37700
O 	O 	0.25218 0.55206 0.41242 -0.37900
O 	O 	0.21339 0.58642 0.32759 -0.38500
O 	O 	0.25520 0.75148 0.39149 -0.71400
O 	O 	0.36645 0.82297 0.43853 -0.31500
O 	O 	0.13075 0.69278 0.34819 -0.34500
O 	O 	0.20330 0.83265 0.34508 -0.40300
Ni	Ni	0.28140 0.86630 0.37894 1.07800
H 	H 	0.38072 0.68918 0.35855 0.16100
H 	H 	0.21246 0.73701 0.40516 0.21800
C 	C 	0.18027 0.55586 0.40852 0.38200
O 	O 	0.37090 0.86242 0.35426 -0.41600
C 	C 	0.43358 0.62890 0.42842 0.39300
C 	C 	0.21544 0.51122 0.33112 0.28400
C 	C 	0.44136 0.86830 0.36447 0.29600
C 	C 	0.13355 0.77021 0.34504 0.28600
C 	C 	0.36207 0.89761 0.43459 0.40000
O 	O 	0.15781 0.57479 0.38434 -0.35000
O 	O 	0.22655 0.48703 0.35582 -0.38300
Ni	Ni	0.33184 0.67362 0.13600 1.10100
O 	O 	0.23884 0.64342 0.10802 -0.70300
Ni	Ni	0.17131 0.70342 0.12410 1.10700
O 	O 	0.38688 0.60451 0.11542 -0.32600
O 	O 	0.27274 0.48838 0.11365 -0.37100
O 	O 	0.39298 0.77400 0.11189 -0.33900
Ni	Ni	0.17436 0.52371 0.10557 1.10600
O 	O 	0.43606 0.84652 0.15876 -0.39100
O 	O 	0.14856 0.51662 0.14614 -0.39800
O 	O 	0.08989 0.67684 0.09261 -0.33600
O 	O 	0.25801 0.72304 0.15459 -0.69800
O 	O 	0.42494 0.71047 0.16394 -0.36800
O 	O 	0.12119 0.78866 0.13702 -0.34700
O 	O 	0.21792 0.86949 0.16669 -0.40600
Ni	Ni	0.32072 0.84332 0.15964 1.07300
H 	H 	0.25673 0.66480 0.08967 0.22000
H 	H 	0.23741 0.69499 0.17189 0.16300
C 	C 	0.09437 0.54447 0.15588 0.29100
O 	O 	0.31865 0.85811 0.11852 -0.39600
C 	C 	0.34404 0.53151 0.10423 0.39300
C 	C 	0.06562 0.60229 0.08059 0.39300
C 	C 	0.36245 0.82920 0.10262 0.37300
C 	C 	0.16245 0.86271 0.14792 0.30200
C 	C 	0.45998 0.79033 0.17045 0.28500
O 	O 	0.08639 0.61298 0.14627 -0.35600
O 	O 	0.06853 0.53638 0.09390 -0.36100
O 	O 	0.03142 0.22719 0.23474 -0.37000
O 	O 	0.08338 0.10361 0.21627 -0.40000
O 	O 	0.97722 0.10905 0.19026 -0.35300
O 	O 	0.01623 0.99972 0.29124 -0.40800
Ni	Ni	0.04039 0.05180 0.25281 1.06900
O 	O 	0.06441 0.16503 0.27179 -0.40800
C 	C 	0.06776 0.23263 0.25869 0.29100
C 	C 	0.03940 0.08513 0.19341 0.27700
C 	C 	0.91858 0.36165 0.20294 -0.07000
C 	C 	0.99295 0.41008 0.21507 -0.01900
C 	C 	0.04997 0.47288 0.20039 0.04300
C 	C 	0.03150 0.48963 0.17352 -0.06400
C 	C 	0.95375 0.44795 0.16258 -0.01500
S 	S 	0.14447 0.52886 0.21572 -0.05300
H 	H 	0.19570 0.48652 0.21103 0.04800
H 	H 	0.00865 0.39499 0.23520 0.04400
H 	H 	0.93830 0.46256 0.14226 0.08600
C 	C 	0.06204 0.04025 0.17119 -0.06100
C 	C 	0.14217 0.06875 0.16300 -0.01700
C 	C 	0.17378 0.01273 0.15102 0.04500
C 	C 	0.12532 0.92727 0.14795 -0.07100
C 	C 	0.04202 0.90310 0.15124 -0.00800
C 	C 	0.01005 0.95938 0.16282 0.02300
S 	S 	0.27410 0.04961 0.14041 0.00700
S 	S 	0.90594 0.92605 0.16833 -0.01400
H 	H 	0.88916 0.88592 0.19273 0.01800
H 	H 	0.27638 0.07272 0.11369 0.10100
H 	H 	0.18114 0.13284 0.16763 0.06200
H 	H 	0.00311 0.83877 0.14696 0.07000
H 	H 	0.40838 0.04034 0.33003 0.03000
C 	C 	0.17880 0.44689 0.30987 -0.06700
C 	C 	0.22675 0.41089 0.29582 -0.02600
C 	C 	0.19179 0.34549 0.27678 0.04200
C 	C 	0.10791 0.31502 0.27199 -0.07900
C 	C 	0.06097 0.35490 0.28475 -0.02200
C 	C 	0.09565 0.41997 0.30379 0.03900
S 	S 	0.25343 0.30204 0.25912 -0.03000
S 	S 	0.03353 0.46394 0.32102 -0.00900
H 	H 	0.00907 0.42237 0.34485 0.06700
H 	H 	0.25940 0.23583 0.27338 0.03700
H 	H 	0.29105 0.43301 0.29995 0.03600
H 	H 	0.99679 0.33313 0.28068 0.02400
C 	C 	0.96392 0.86362 0.31060 -0.06900
C 	C 	0.98637 0.80562 0.29540 -0.02900
C 	C 	0.03617 0.76698 0.30722 0.04200
C 	C 	0.06172 0.78488 0.33473 -0.06400
C 	C 	0.02790 0.83140 0.35093 -0.01800
C 	C 	0.97849 0.87028 0.33902 0.04000
S 	S 	0.07027 0.70103 0.28693 -0.03700
H 	H 	0.01675 0.62027 0.28797 0.05100
H 	H 	0.97183 0.79702 0.27374 0.03200
H 	H 	0.04427 0.84195 0.37244 0.05900
C 	C 	0.37173 0.98928 0.50486 0.23200
C 	C 	0.38580 0.95825 0.45729 -0.21500
C 	C 	0.34028 0.94287 0.48099 0.32500
F 	F 	0.26699 0.88060 0.48113 -0.36000
F 	F 	0.32838 0.97251 0.52797 -0.33300
C 	C 	0.02755 0.47810 0.47691 0.00300
C 	C 	0.02784 0.54809 0.46203 0.23500
C 	C 	0.07354 0.57054 0.43847 0.31300
C 	C 	0.12000 0.52366 0.42984 -0.20700
C 	C 	0.11533 0.45049 0.44379 0.31800
C 	C 	0.06963 0.42812 0.46727 0.23400
F 	F 	0.98551 0.59553 0.47080 -0.33200
F 	F 	0.15622 0.40184 0.43480 -0.37700
F 	F 	0.07479 0.63937 0.42462 -0.40100
F 	F 	0.06811 0.35917 0.48113 -0.33200
F 	F 	0.87388 0.35276 0.48312 -0.32800
C 	C 	0.52113 0.53115 0.48370 0.23800
C 	C 	0.49978 0.55165 0.45785 0.32100
C 	C 	0.45300 0.60272 0.45543 -0.20400
F 	F 	0.56611 0.48168 0.48584 -0.31900
F 	F 	0.52656 0.52399 0.43525 -0.36800
C 	C 	0.43029 0.21528 0.69352 -0.06000
C 	C 	0.43359 0.21410 0.72201 -0.03000
C 	C 	0.36859 0.16073 0.73640 0.04000
C 	C 	0.29763 0.10997 0.72206 -0.07100
C 	C 	0.29112 0.11938 0.69384 -0.01500
C 	C 	0.35684 0.17215 0.67955 0.03300
S 	S 	0.37968 0.15386 0.77193 -0.02100
S 	S 	0.34738 0.18196 0.64407 0.06500
H 	H 	0.37111 0.12384 0.63076 0.07300
H 	H 	0.35174 0.20923 0.78496 0.04700
H 	H 	0.48927 0.24936 0.73288 0.03600
H 	H 	0.23595 0.08333 0.68284 0.05200
S 	S 	0.16182 0.67952 0.66341 0.03300
H 	H 	0.15620 0.74341 0.64782 0.07300
C 	C 	0.02522 0.64050 0.00716 0.23600
C 	C 	0.06160 0.64987 0.03305 0.31900
C 	C 	0.02703 0.59127 0.05334 -0.21200
C 	C 	0.95556 0.52321 0.04746 0.32400
F 	F 	0.05917 0.69742 0.98771 -0.33100
F 	F 	0.92034 0.46735 0.06705 -0.36700
F 	F 	0.13149 0.71498 0.03832 -0.37300
C 	C 	0.44874 0.99933 0.05096 0.22400
C 	C 	0.46767 0.95384 0.02977 0.00500
C 	C 	0.44646 0.86657 0.03172 0.23500
C 	C 	0.40799 0.82527 0.05487 0.31800
C 	C 	0.39185 0.87114 0.07663 -0.20400
C 	C 	0.41179 0.95847 0.07440 0.31000
F 	F 	0.46411 0.82191 0.01129 -0.32000
F 	F 	0.39845 0.00427 0.09536 -0.38800
C 	C 	0.46843 0.98572 0.98015 0.22900
F 	F 	0.46549 0.01986 0.93328 -0.37000
F 	F 	0.39073 0.93281 0.97775 -0.32600
F 	F 	0.38724 0.74073 0.05632 -0.37800
C 	C 	0.43115 0.47201 0.02916 0.00700
C 	C 	0.34890 0.45710 0.03179 0.23500
C 	C 	0.31954 0.47268 0.05674 0.32000
C 	C 	0.37229 0.50276 0.07935 -0.21500
C 	C 	0.45424 0.51507 0.07688 0.32700
F 	F 	0.29757 0.42824 0.01006 -0.33300
F 	F 	0.24048 0.46194 0.05864 -0.42700
F 	F 	0.45235 0.58042 0.98438 -0.31700
H 	H 	0.98937 0.01086 0.86342 0.05700
C 	C 	0.31549 0.00115 0.82667 -0.03700
C 	C 	0.32444 0.08051 0.83759 -0.02400
C 	C 	0.39811 0.13230 0.84909 0.06000
C 	C 	0.46250 0.10249 0.85135 -0.07400
C 	C 	0.45119 0.02036 0.84253 0.02300
C 	C 	0.37802 0.96952 0.83038 0.01800
S 	S 	0.41066 0.23640 0.85845 -0.05200
S 	S 	0.36461 0.86569 0.82049 -0.04300
H 	H 	0.33364 0.81345 0.84174 0.06700
H 	H 	0.39024 0.23934 0.88515 0.08400
H 	H 	0.27622 0.10486 0.83502 0.06800
Ni	Ni	0.62797 0.29016 0.90548 1.10800
O 	O 	0.63686 0.35396 0.87015 -0.70400
Ni	Ni	0.74176 0.35156 0.85612 1.10000
O 	O 	0.53858 0.32779 0.91938 -0.34800
O 	O 	0.61168 0.46703 0.91539 -0.33700
O 	O 	0.53723 0.18718 0.88911 -0.33900
Ni	Ni	0.63785 0.46926 0.87382 1.08400
O 	O 	0.62387 0.10778 0.91296 -0.37000
O 	O 	0.75500 0.53438 0.88511 -0.35500
O 	O 	0.75811 0.43111 0.82385 -0.37100
O 	O 	0.72655 0.27876 0.89001 -0.70600
O 	O 	0.62506 0.22152 0.93919 -0.31700
O 	O 	0.83947 0.32356 0.84455 -0.34400
O 	O 	0.77323 0.18212 0.84750 -0.39700
Ni	Ni	0.70048 0.15962 0.88158 1.07900
H 	H 	0.59344 0.32281 0.85699 0.15700
H 	H 	0.77235 0.29976 0.90323 0.19200
C 	C 	0.80182 0.49684 0.89500 0.35900
O 	O 	0.60686 0.15119 0.85578 -0.40800
C 	C 	0.55425 0.40585 0.92711 0.37900
C 	C 	0.73548 0.49707 0.82391 0.29300
C 	C 	0.53902 0.15366 0.86502 0.29600
C 	C 	0.84078 0.24704 0.84557 0.28400
C 	C 	0.62147 0.14299 0.93717 0.39800
O 	O 	0.82231 0.44553 0.87928 -0.34500
O 	O 	0.66543 0.49258 0.83389 -0.39500
Ni	Ni	0.62591 0.35265 0.64263 1.10200
O 	O 	0.70824 0.37733 0.61232 -0.70500
Ni	Ni	0.77688 0.31380 0.62490 1.10700
O 	O 	0.56675 0.42098 0.62351 -0.31300
O 	O 	0.68235 0.53404 0.62130 -0.36300
O 	O 	0.55686 0.24892 0.61987 -0.33900
Ni	Ni	0.77611 0.49535 0.61024 1.10400
O 	O 	0.52652 0.18255 0.66669 -0.39500
O 	O 	0.81346 0.50134 0.65013 -0.39800
O 	O 	0.84565 0.33516 0.59098 -0.33000
O 	O 	0.70413 0.30267 0.65825 -0.69600
O 	O 	0.54185 0.32032 0.67245 -0.36900
O 	O 	0.82596 0.22365 0.63433 -0.33600
O 	O 	0.74765 0.16333 0.67010 -0.40500
Ni	Ni	0.64154 0.18495 0.66512 1.07500
H 	H 	0.68357 0.35618 0.59418 0.21800
H 	H 	0.73250 0.33330 0.67488 0.16300
C 	C 	0.86779 0.46999 0.65779 0.29100
O 	O 	0.63031 0.16306 0.62411 -0.39200
C 	C 	0.60849 0.49255 0.61230 0.37600
C 	C 	0.87311 0.41129 0.58078 0.38800
C 	C 	0.58615 0.19474 0.60908 0.36300
C 	C 	0.79218 0.15800 0.64971 0.30300
C 	C 	0.50609 0.24109 0.67873 0.28300
O 	O 	0.87196 0.40278 0.64543 -0.35500
O 	O 	0.87612 0.47722 0.59597 -0.36000
Ni	Ni	0.03570 0.88421 0.72490 1.10100
O 	O 	0.06154 0.79843 0.70136 -0.36100
O 	O 	0.93145 0.79238 0.73767 -0.36900
O 	O 	0.87551 0.91703 0.72007 -0.40200
O 	O 	0.97344 0.90599 0.69244 -0.35500
O 	O 	0.96012 0.02117 0.79536 -0.39700
Ni	Ni	0.92823 0.96993 0.75640 1.06700
O 	O 	0.90285 0.85784 0.77493 -0.39900
C 	C 	0.90497 0.78988 0.76272 0.28300
C 	C 	0.91438 0.93348 0.69691 0.28000
Ni	Ni	0.92426 0.13271 0.22411 1.10500
O 	O 	0.87725 0.15179 0.26066 -0.70000
Ni	Ni	0.86439 0.04178 0.27784 1.10100
O 	O 	0.88814 0.21342 0.20181 -0.36400
O 	O 	0.81629 0.26426 0.23048 -0.38800
Ni	Ni	0.77092 0.15917 0.25561 1.07200
O 	O 	0.75067 0.06698 0.22635 -0.40700
O 	O 	0.79720 0.05215 0.31001 -0.37900
O 	O 	0.92798 0.03414 0.24455 -0.70200
O 	O 	0.87978 0.93754 0.29400 -0.36700
H 	H 	0.91285 0.19902 0.27202 0.16200
H 	H 	0.90180 0.98149 0.23386 0.15400
C 	C 	0.73325 0.98759 0.23326 0.26400
C 	C 	0.87589 0.27692 0.21341 0.29500
C 	C 	0.72430 0.05282 0.30587 0.29100
C 	C 	0.95228 0.93342 0.29618 0.27200
O 	O 	0.76150 0.96764 0.25647 -0.36900
O 	O 	0.70177 0.07036 0.28157 -0.40300
C 	C 	0.89735 0.38405 0.17713 0.04500
S 	S 	0.80143 0.33059 0.16243 0.03200
H 	H 	0.80290 0.26239 0.14767 0.07300
C 	C 	0.66908 0.92153 0.21775 -0.06700
C 	C 	0.67490 0.91505 0.18939 -0.02000
C 	C 	0.60877 0.86399 0.17360 0.03700
C 	C 	0.53595 0.81892 0.18627 -0.06500
C 	C 	0.53299 0.81823 0.21471 -0.02900
C 	C 	0.59805 0.87048 0.23055 0.03700
S 	S 	0.61730 0.85790 0.13799 0.05100
S 	S 	0.58682 0.87584 0.26602 -0.02800
H 	H 	0.59942 0.80911 0.27783 0.03900
H 	H 	0.64178 0.79245 0.13155 0.07400
H 	H 	0.72991 0.95194 0.17951 0.04900
H 	H 	0.47753 0.78200 0.22449 0.03400
C 	C 	0.66089 0.01200 0.32564 -0.05400
C 	C 	0.60273 0.04805 0.33077 -0.01700
C 	C 	0.53082 0.00206 0.34342 0.05300
C 	C 	0.51548 0.91780 0.35046 -0.06900
C 	C 	0.57521 0.88320 0.34671 -0.01000
C 	C 	0.64833 0.93007 0.33501 0.03400
S 	S 	0.46243 0.05199 0.35131 0.01300
S 	S 	0.72364 0.88580 0.33291 0.01400
H 	H 	0.71720 0.84382 0.30849 0.04500
H 	H 	0.61262 0.11142 0.32427 0.04800
H 	H 	0.56506 0.81972 0.35317 0.05100
S 	S 	0.94068 0.93268 0.35946 0.01800
H 	H 	0.99406 0.01375 0.36010 0.05700
C 	C 	0.44930 0.05049 0.50522 0.01100
C 	C 	0.49239 0.06994 0.48104 0.23100
C 	C 	0.46055 0.02428 0.45708 0.32800
C 	C 	0.48801 0.08857 0.53122 -0.00200
F 	F 	0.56688 0.13023 0.48113 -0.32000
C 	C 	0.51313 0.04071 0.54988 0.23700
C 	C 	0.54738 0.07576 0.57505 0.31500
C 	C 	0.55814 0.15976 0.58157 -0.21100
C 	C 	0.53561 0.20844 0.56230 0.31300
C 	C 	0.50012 0.17266 0.53737 0.24000
F 	F 	0.50318 0.95969 0.54372 -0.33400
F 	F 	0.54709 0.29015 0.56791 -0.38600
F 	F 	0.56726 0.02718 0.59346 -0.38800
F 	F 	0.47655 0.21945 0.51926 -0.32200
F 	F 	0.50464 0.04027 0.43413 -0.37000
C 	C 	0.91232 0.39684 0.50570 0.23900
C 	C 	0.98801 0.46053 0.50356 0.00600
C 	C 	0.02755 0.50533 0.52705 0.23100
C 	C 	0.99123 0.48748 0.55245 0.32300
C 	C 	0.91481 0.42470 0.55456 -0.20400
C 	C 	0.87589 0.37888 0.53110 0.31700
F 	F 	0.10147 0.56584 0.52527 -0.32200
F 	F 	0.80180 0.31860 0.53280 -0.36500
F 	F 	0.03061 0.53061 0.57505 -0.37200
C 	C 	0.60652 0.58469 0.54236 0.23600
C 	C 	0.52520 0.54689 0.53454 0.00400
C 	C 	0.47031 0.49597 0.55293 0.24100
C 	C 	0.49663 0.48216 0.57888 0.32600
C 	C 	0.57887 0.51700 0.58641 -0.20500
C 	C 	0.63351 0.56945 0.56801 0.30500
C 	C 	0.49720 0.56271 0.50731 0.00400
F 	F 	0.39137 0.45965 0.54561 -0.32000
F 	F 	0.71305 0.60422 0.57466 -0.41800
C 	C 	0.42666 0.63153 0.47912 0.31900
C 	C 	0.44943 0.61245 0.50489 0.23900
F 	F 	0.37888 0.67813 0.47711 -0.36600
F 	F 	0.42612 0.64339 0.52756 -0.32100
F 	F 	0.65960 0.63605 0.52500 -0.33300
F 	F 	0.44215 0.43505 0.59671 -0.36100
C 	C 	0.82744 0.09200 0.65078 -0.06100
C 	C 	0.91067 0.11497 0.65512 -0.01200
C 	C 	0.94192 0.05938 0.66762 0.04100
C 	C 	0.88925 0.97990 0.67570 -0.07700
C 	C 	0.80818 0.95259 0.66732 -0.01900
C 	C 	0.77732 0.00794 0.65453 0.04900
S 	S 	0.04612 0.09205 0.67453 -0.01700
S 	S 	0.67534 0.97237 0.64414 -0.01200
H 	H 	0.66776 0.94234 0.61780 0.10400
H 	H 	0.06414 0.13622 0.69879 0.01900
H 	H 	0.95029 0.17834 0.65094 0.07200
H 	H 	0.76827 0.88983 0.67208 0.06200
C 	C 	0.05028 0.65575 0.70380 -0.07300
C 	C 	0.97940 0.60775 0.71669 -0.02000
C 	C 	0.92139 0.54068 0.70268 0.04400
C 	C 	0.93498 0.52077 0.67572 -0.06300
C 	C 	0.01090 0.56018 0.66458 -0.01800
C 	C 	0.06875 0.62750 0.67854 0.04700
S 	S 	0.83173 0.48306 0.71886 -0.05900
H 	H 	0.77401 0.51594 0.71229 0.04100
H 	H 	0.96650 0.62692 0.73671 0.04200
H 	H 	0.02299 0.54226 0.64429 0.09100
C 	C 	0.95431 0.52801 0.95262 0.23200
C 	C 	0.91920 0.55951 0.97338 -0.00400
C 	C 	0.85121 0.58017 0.96751 0.23600
C 	C 	0.81610 0.56564 0.94131 0.30100
C 	C 	0.84801 0.52871 0.92081 -0.20700
C 	C 	0.91974 0.51370 0.92638 0.30200
C 	C 	0.95452 0.57202 0.00118 0.00400
F 	F 	0.81888 0.61393 0.98728 -0.33100
F 	F 	0.95625 0.48579 0.90636 -0.37900
C 	C 	0.91959 0.51353 0.02142 0.23300
F 	F 	0.85112 0.44706 0.01575 -0.32700
F 	F 	0.02179 0.51060 0.95796 -0.33600
F 	F 	0.75105 0.58720 0.93592 -0.37200
C 	C 	0.50946 0.99766 0.00548 -0.00600
C 	C 	0.58975 0.05303 0.00775 0.25100
C 	C 	0.62763 0.09835 0.98510 0.32100
C 	C 	0.58608 0.08744 0.95991 -0.19600
C 	C 	0.50670 0.02999 0.95744 0.33200
F 	F 	0.63062 0.06363 0.03198 -0.33300
F 	F 	0.70434 0.15361 0.98772 -0.36000
F 	F 	0.46718 0.08345 0.04899 -0.31900
C 	C 	0.47165 0.51067 0.98129 0.23900
C 	C 	0.46195 0.45500 0.00293 0.00300
C 	C 	0.48239 0.38338 0.99964 0.23900
C 	C 	0.51302 0.36765 0.97501 0.31900
C 	C 	0.52222 0.42287 0.95315 -0.19600
C 	C 	0.50145 0.49456 0.95644 0.32200
F 	F 	0.47295 0.32918 0.02046 -0.32300
F 	F 	0.50917 0.54794 0.93548 -0.37400
C 	C 	0.48359 0.50027 0.05184 0.23500
F 	F 	0.50551 0.54211 0.09871 -0.37200
F 	F 	0.56313 0.51390 0.04953 -0.32400
F 	F 	0.53547 0.29973 0.97259 -0.36100
C 	C 	0.91315 0.23219 0.83671 -0.06300
C 	C 	0.94758 0.18805 0.85373 -0.01300
C 	C 	0.00067 0.15225 0.84309 0.03900
C 	C 	0.01727 0.15852 0.81508 -0.06800
C 	C 	0.99577 0.21622 0.79968 -0.02600
C 	C 	0.94166 0.25120 0.80999 0.04400
S 	S 	0.04001 0.09309 0.86432 0.02400
S 	S 	0.90522 0.31243 0.78852 -0.03400
H 	H 	0.95240 0.39537 0.79195 0.05600
H 	H 	0.92946 0.17742 0.87476 0.05200
H 	H 	0.01287 0.22547 0.77851 0.03200
H 	H 	0.49911 0.99571 0.84535 0.04500
C 	C 	0.78036 0.56958 0.80741 -0.06500
C 	C 	0.84975 0.63029 0.81870 -0.02200
C 	C 	0.89387 0.70028 0.80375 0.04200
C 	C 	0.86995 0.70884 0.77659 -0.07800
C 	C 	0.80256 0.64563 0.76479 -0.02000
C 	C 	0.75666 0.57701 0.78024 0.03800
S 	S 	0.97767 0.77776 0.81962 -0.04000
S 	S 	0.66790 0.50324 0.76581 -0.02700
H 	H 	0.68279 0.43438 0.75635 0.03400
H 	H 	0.04414 0.75573 0.81705 0.03200
H 	H 	0.86874 0.62383 0.83943 0.07100
H 	H 	0.78332 0.65207 0.74411 0.05300
