data_crystal

_cell_length_a 18.51366
_cell_length_b 15.17725
_cell_length_c 42.78690
_cell_angle_alpha 90.85700
_cell_angle_beta  91.25915
_cell_angle_gamma 110.99071

_symmetry_space_group_name_	'P 1'
_symmetry_space_group_name_H-M	'P 1'

loop_
_symmetry_equiv_pos_as_xyz
  x,y,z

loop_
_atom_site_label
_atom_site_type_symbol
_atom_site_fract_x
_atom_site_fract_y
_atom_site_fract_z
_atom_site_charge
Ni	Ni	0.72293 0.29518 0.89620 1.10300
O 	O 	0.63968 0.24440 0.86105 -0.70100
Ni	Ni	0.54980 0.26402 0.88202 1.10200
O 	O 	0.79877 0.23680 0.87944 -0.30700
O 	O 	0.72351 0.11241 0.84871 -0.36100
O 	O 	0.77844 0.41225 0.87023 -0.32900
Ni	Ni	0.60957 0.10827 0.85241 1.08600
O 	O 	0.78331 0.49639 0.92624 -0.37700
O 	O 	0.60708 0.08223 0.89926 -0.36900
O 	O 	0.46817 0.20523 0.84762 -0.37000
O 	O 	0.63563 0.32297 0.91509 -0.70800
O 	O 	0.80056 0.35488 0.93187 -0.33200
O 	O 	0.47331 0.30731 0.90635 -0.35100
O 	O 	0.55657 0.45992 0.90752 -0.36500
Ni	Ni	0.66706 0.46078 0.91715 1.07800
H 	H 	0.65246 0.28038 0.84156 0.16700
H 	H 	0.62324 0.29485 0.93593 0.16500
C 	C 	0.55364 0.09417 0.91693 0.31700
O 	O 	0.68241 0.47286 0.87043 -0.40500
C 	C 	0.78692 0.18805 0.85300 0.32000
C 	C 	0.45211 0.11766 0.83779 0.33800
C 	C 	0.74392 0.46601 0.85781 0.33000
C 	C 	0.49473 0.39407 0.91779 0.32400
C 	C 	0.81597 0.44352 0.94095 0.32800
O 	O 	0.50998 0.14045 0.90654 -0.36200
O 	O 	0.49091 0.06698 0.84951 -0.36300
Ni	Ni	0.60322 0.33282 0.56683 1.10500
O 	O 	0.68552 0.34566 0.53415 -0.69400
Ni	Ni	0.75710 0.29340 0.55655 1.10200
O 	O 	0.56126 0.42788 0.54690 -0.35000
O 	O 	0.68355 0.53325 0.54486 -0.36300
O 	O 	0.52361 0.22730 0.53954 -0.33100
Ni	Ni	0.74394 0.47000 0.51822 1.12300
O 	O 	0.49703 0.14786 0.59555 -0.36100
O 	O 	0.84139 0.52930 0.54673 -0.31200
O 	O 	0.84947 0.32757 0.52672 -0.36300
O 	O 	0.66782 0.26782 0.58708 -0.70000
O 	O 	0.52274 0.30745 0.60039 -0.35800
O 	O 	0.80668 0.21911 0.58396 -0.36000
O 	O 	0.69505 0.08994 0.58248 -0.35400
Ni	Ni	0.60242 0.13471 0.58886 1.08600
H 	H 	0.66246 0.30398 0.51578 0.16700
H 	H 	0.68590 0.29494 0.60827 0.16900
C 	C 	0.86340 0.48999 0.57060 0.32400
O 	O 	0.58303 0.11901 0.54179 -0.39400
C 	C 	0.60942 0.51091 0.53882 0.32100
C 	C 	0.85805 0.38592 0.50310 0.33000
C 	C 	0.53796 0.15563 0.52713 0.33800
C 	C 	0.76454 0.13590 0.59475 0.31300
C 	C 	0.48522 0.22036 0.60933 0.32700
O 	O 	0.81494 0.41289 0.58275 -0.38900
O 	O 	0.79882 0.40456 0.49160 -0.35500
Ni	Ni	0.99495 0.93636 0.75022 1.09800
O 	O 	0.01544 0.84584 0.71928 -0.70400
Ni	Ni	0.06728 0.93304 0.68541 1.10700
O 	O 	0.94213 0.82760 0.77943 -0.34900
O 	O 	0.85439 0.74925 0.74112 -0.36600
O 	O 	0.09682 0.95957 0.77629 -0.32900
Ni	Ni	0.91681 0.75990 0.70074 1.07700
O 	O 	0.08117 0.14387 0.77485 -0.37500
O 	O 	0.87692 0.86375 0.68694 -0.39900
O 	O 	0.08608 0.83216 0.65781 -0.35300
O 	O 	0.03693 0.02417 0.71430 -0.67200
O 	O 	0.96612 0.02321 0.77942 -0.37200
O 	O 	0.14015 0.03560 0.65837 -0.33000
O 	O 	0.17528 0.17077 0.68807 -0.33800
Ni	Ni	0.12062 0.13716 0.73066 1.09300
H 	H 	0.04801 0.81226 0.72806 0.18100
H 	H 	0.99555 0.04384 0.70539 0.17800
C 	C 	0.91034 0.92146 0.66462 0.32800
O 	O 	0.18242 0.05529 0.74201 -0.39600
C 	C 	0.88552 0.75146 0.76913 0.32200
C 	C 	0.02668 0.75270 0.65173 0.34300
C 	C 	0.16859 0.00381 0.76706 0.32700
C 	C 	0.19455 0.11103 0.67054 0.33100
C 	C 	0.00682 0.11334 0.78128 0.36700
O 	O 	0.97820 0.92613 0.65501 -0.33900
O 	O 	0.95570 0.74842 0.65735 -0.40100
Ni	Ni	0.24116 0.68701 0.39437 1.10400
O 	O 	0.33189 0.74448 0.36566 -0.70500
Ni	Ni	0.42065 0.74648 0.39311 1.10800
O 	O 	0.16583 0.69258 0.35945 -0.34600
O 	O 	0.22904 0.85181 0.35406 -0.36100
O 	O 	0.23884 0.56218 0.37552 -0.38900
Ni	Ni	0.34759 0.87310 0.35418 1.08500
O 	O 	0.21857 0.60200 0.46536 -0.36000
O 	O 	0.35644 0.92326 0.39944 -0.39000
O 	O 	0.50282 0.79260 0.36060 -0.34400
O 	O 	0.33131 0.70517 0.42366 -0.69300
O 	O 	0.14855 0.61879 0.42189 -0.35100
O 	O 	0.49787 0.71694 0.42251 -0.33900
O 	O 	0.40940 0.57051 0.42826 -0.38100
Ni	Ni	0.31216 0.58720 0.44598 1.11600
H 	H 	0.32830 0.70480 0.34668 0.17600
H 	H 	0.33517 0.75610 0.43903 0.17400
C 	C 	0.41621 0.93056 0.41780 0.33200
O 	O 	0.24160 0.47641 0.41848 -0.35300
C 	C 	0.17278 0.77180 0.34546 0.32100
C 	C 	0.50724 0.86563 0.34328 0.32500
C 	C 	0.21405 0.48297 0.39041 0.35900
C 	C 	0.47733 0.63419 0.43548 0.33000
C 	C 	0.15224 0.58293 0.44975 0.34600
O 	O 	0.46041 0.88172 0.41167 -0.32900
O 	O 	0.46618 0.91950 0.34999 -0.36000
Ni	Ni	0.37263 0.69178 0.06002 1.10300
O 	O 	0.27301 0.66329 0.03324 -0.69900
Ni	Ni	0.21560 0.72926 0.05877 1.10300
O 	O 	0.41380 0.60714 0.03339 -0.34700
O 	O 	0.30138 0.48062 0.03245 -0.35400
O 	O 	0.43464 0.79653 0.03012 -0.36300
Ni	Ni	0.20947 0.52782 0.03163 1.08900
O 	O 	0.48767 0.88225 0.08550 -0.38600
O 	O 	0.21059 0.52225 0.07898 -0.38100
O 	O 	0.11947 0.69520 0.02984 -0.32800
O 	O 	0.31520 0.75704 0.08571 -0.69600
O 	O 	0.46853 0.72565 0.08875 -0.34500
O 	O 	0.17588 0.81696 0.08480 -0.30400
O 	O 	0.28973 0.94068 0.08904 -0.37500
Ni	Ni	0.38060 0.89218 0.08683 1.08500
H 	H 	0.28294 0.68919 0.01200 0.16400
H 	H 	0.30540 0.73106 0.10694 0.18000
C 	C 	0.16072 0.54670 0.09462 0.34000
O 	O 	0.37331 0.89977 0.03966 -0.37700
C 	C 	0.36714 0.52866 0.01987 0.32900
C 	C 	0.08831 0.60876 0.01793 0.32100
C 	C 	0.41594 0.86895 0.02172 0.33000
C 	C 	0.22313 0.89064 0.10072 0.31600
C 	C 	0.50522 0.81366 0.09822 0.33500
O 	O 	0.15158 0.62723 0.08914 -0.33100
O 	O 	0.10321 0.53908 0.03103 -0.36000
Ni	Ni	0.94917 0.03253 0.26624 1.09700
O 	O 	0.96433 0.13731 0.23539 -0.71900
Ni	Ni	0.92401 0.06334 0.19608 1.09900
O 	O 	0.99218 0.13160 0.30140 -0.36600
O 	O 	0.10567 0.19516 0.27577 -0.36700
O 	O 	0.83878 0.02907 0.27382 -0.37300
Ni	Ni	0.07323 0.21101 0.22975 1.08800
O 	O 	0.85904 0.79879 0.27215 -0.38100
O 	O 	0.10423 0.09923 0.21647 -0.37800
O 	O 	0.93266 0.17771 0.16978 -0.34100
O 	O 	0.92676 0.95672 0.22535 -0.68800
O 	O 	0.93416 0.93194 0.29831 -0.36700
O 	O 	0.85447 0.97868 0.16113 -0.31700
O 	O 	0.80423 0.83321 0.18162 -0.37500
Ni	Ni	0.83728 0.83781 0.22844 1.08000
H 	H 	0.93457 0.17800 0.24064 0.18200
H 	H 	0.97201 0.93867 0.22136 0.14700
C 	C 	0.08159 0.05527 0.18930 0.33700
O 	O 	0.76485 0.90448 0.24216 -0.37400
C 	C 	0.06216 0.19546 0.29977 0.34100
C 	C 	0.99848 0.25171 0.17134 0.29400
C 	C 	0.77502 0.95438 0.26848 0.33600
C 	C 	0.79389 0.90400 0.16749 0.32600
C 	C 	0.92203 0.84600 0.28874 0.34000
O 	O 	0.02032 0.05914 0.17430 -0.34600
O 	O 	0.06171 0.24397 0.18422 -0.34900
C 	C 	0.08718 0.49511 0.14327 -0.07200
C 	C 	0.10226 0.47485 0.11258 -0.11100
C 	C 	0.06251 0.38452 0.09934 0.35500
C 	C 	0.01536 0.31254 0.11785 -0.06600
C 	C 	0.00961 0.32944 0.14984 -0.08900
C 	C 	0.04052 0.42269 0.16183 0.33600
F 	F 	0.03183 0.44119 0.19237 -0.44200
H 	H 	0.11473 0.56565 0.15326 0.11900
H 	H 	0.98964 0.24150 0.10806 0.11500
F 	F 	0.07194 0.36554 0.06892 -0.43600
C 	C 	0.64778 0.89806 0.10317 -0.07700
C 	C 	0.57896 0.83756 0.11591 -0.12100
C 	C 	0.58060 0.80198 0.14585 0.34900
C 	C 	0.65055 0.82652 0.16292 -0.08100
C 	C 	0.71989 0.88559 0.15004 -0.11100
C 	C 	0.71810 0.92163 0.12000 0.34700
F 	F 	0.78441 0.97706 0.10673 -0.41100
H 	H 	0.64693 0.92573 0.08002 0.11600
H 	H 	0.65102 0.79908 0.18613 0.11400
F 	F 	0.51422 0.74459 0.15860 -0.43300
C 	C 	0.10232 0.91382 0.16839 -0.06900
C 	C 	0.13017 0.01199 0.17342 -0.12800
C 	C 	0.19379 0.06904 0.15684 0.36000
C 	C 	0.22485 0.02922 0.13347 -0.09500
C 	C 	0.19311 0.93163 0.12670 -0.10500
C 	C 	0.13379 0.87355 0.14525 0.33900
F 	F 	0.10624 0.77837 0.14073 -0.42100
H 	H 	0.05377 0.86914 0.18141 0.08500
H 	H 	0.27195 0.07473 0.11998 0.11900
F 	F 	0.22196 0.16403 0.16183 -0.42600
C 	C 	0.71515 0.95530 0.31991 -0.08300
C 	C 	0.70681 0.94480 0.28726 -0.11500
C 	C 	0.63267 0.92040 0.27297 0.34600
C 	C 	0.56741 0.90025 0.29140 -0.08900
C 	C 	0.57562 0.90489 0.32408 -0.10900
C 	C 	0.64993 0.93558 0.33825 0.35700
F 	F 	0.65867 0.94313 0.36988 -0.39800
H 	H 	0.77200 0.97562 0.33114 0.11900
H 	H 	0.51033 0.87806 0.28029 0.09300
F 	F 	0.62383 0.91611 0.24133 -0.43000
C 	C 	0.05664 0.31222 0.33996 -0.06400
C 	C 	0.09616 0.25777 0.32694 -0.12700
C 	C 	0.17032 0.26812 0.33866 0.35100
C 	C 	0.20668 0.33726 0.36160 -0.08100
C 	C 	0.16947 0.39670 0.37278 -0.11700
C 	C 	0.09333 0.38189 0.36268 0.34500
F 	F 	0.05622 0.43786 0.37390 -0.42000
H 	H 	0.99883 0.30340 0.33146 0.09200
H 	H 	0.26519 0.34766 0.36958 0.10800
F 	F 	0.20761 0.21241 0.32742 -0.42100
C 	C 	0.03024 0.73037 0.33777 -0.07200
C 	C 	0.10565 0.77607 0.32719 -0.10800
C 	C 	0.11657 0.82865 0.29986 0.33900
C 	C 	0.05340 0.84122 0.28467 -0.06600
C 	C 	0.97914 0.80311 0.29699 -0.15400
C 	C 	0.96722 0.74394 0.32274 0.35200
F 	F 	0.89556 0.70527 0.33460 -0.41600
H 	H 	0.02089 0.68796 0.35849 0.12500
H 	H 	0.06297 0.88603 0.26452 0.06900
F 	F 	0.18854 0.86957 0.28848 -0.44300
C 	C 	0.39319 0.00124 0.46771 -0.08600
C 	C 	0.44136 0.00423 0.44257 -0.11700
C 	C 	0.51811 0.06846 0.44371 0.35000
C 	C 	0.54826 0.12283 0.47083 -0.08300
C 	C 	0.50187 0.11447 0.49686 -0.11900
C 	C 	0.42335 0.05623 0.49483 0.35200
F 	F 	0.37752 0.04877 0.51974 -0.39900
H 	H 	0.33370 0.95262 0.46693 0.10200
H 	H 	0.60859 0.16875 0.47205 0.09000
F 	F 	0.56443 0.07503 0.41902 -0.40500
C 	C 	0.02496 0.57847 0.46783 -0.04600
C 	C 	0.08001 0.53533 0.46580 -0.11700
C 	C 	0.06394 0.44459 0.47764 0.37400
C 	C 	0.99196 0.39628 0.49050 -0.09800
C 	C 	0.93578 0.43838 0.49156 -0.10300
C 	C 	0.95342 0.53078 0.48072 0.34500
F 	F 	0.90126 0.57455 0.48284 -0.41600
H 	H 	0.03752 0.64906 0.45922 0.11700
H 	H 	0.97930 0.32550 0.49893 0.11800
F 	F 	0.11698 0.40208 0.47572 -0.42300
C 	C 	0.59330 0.62242 0.46235 -0.07300
C 	C 	0.51814 0.62314 0.46394 -0.13200
C 	C 	0.47887 0.60268 0.49219 0.34600
C 	C 	0.51162 0.57264 0.51765 -0.07900
C 	C 	0.58395 0.56352 0.51518 -0.12500
C 	C 	0.62633 0.59266 0.48784 0.34000
F 	F 	0.69725 0.58630 0.48522 -0.48200
H 	H 	0.62455 0.64016 0.44083 0.11600
H 	H 	0.47944 0.55279 0.53889 0.11400
F 	F 	0.40785 0.60891 0.49458 -0.50100
C 	C 	0.79139 0.94980 0.64699 -0.07900
C 	C 	0.87225 0.98173 0.65026 -0.12400
C 	C 	0.91713 0.06914 0.63787 0.34300
C 	C 	0.88180 0.12016 0.62036 -0.08600
C 	C 	0.80115 0.08558 0.61545 -0.11500
C 	C 	0.75578 0.00180 0.63000 0.33800
F 	F 	0.67733 0.97094 0.62781 -0.44800
H 	H 	0.75611 0.88370 0.65705 0.10800
H 	H 	0.91740 0.18602 0.61026 0.11400
F 	F 	0.99511 0.10458 0.64274 -0.44300
C 	C 	0.41004 0.20308 0.65786 -0.08500
C 	C 	0.41176 0.20130 0.62511 -0.11300
C 	C 	0.34225 0.17474 0.60737 0.35500
C 	C 	0.27146 0.14740 0.62227 -0.07900
C 	C 	0.26939 0.14642 0.65503 -0.11100
C 	C 	0.33906 0.17589 0.67283 0.33900
F 	F 	0.33789 0.17531 0.70454 -0.43900
H 	H 	0.46348 0.22358 0.67169 0.09400
H 	H 	0.21812 0.12621 0.60835 0.13000
F 	F 	0.34337 0.17397 0.57565 -0.39200
C 	C 	0.95092 0.51934 0.61836 -0.10900
C 	C 	0.93614 0.54563 0.58822 -0.09900
C 	C 	0.98587 0.63279 0.57701 0.32500
C 	C 	0.03583 0.70020 0.59797 -0.05500
C 	C 	0.03434 0.68133 0.62997 -0.12600
C 	C 	0.00268 0.58662 0.63885 0.35700
F 	F 	0.01035 0.56387 0.66899 -0.44800
H 	H 	0.91880 0.44940 0.62662 0.10800
H 	H 	0.06677 0.77096 0.59008 0.11600
F 	F 	0.98296 0.65404 0.54642 -0.40700
C 	C 	0.88438 0.54405 0.98676 -0.08600
C 	C 	0.88690 0.49156 0.95980 -0.10600
C 	C 	0.95831 0.49075 0.94973 0.34400
C 	C 	0.02587 0.53761 0.96745 -0.07000
C 	C 	0.02284 0.58516 0.99546 -0.10500
C 	C 	0.95207 0.59039 0.00466 0.34600
F 	F 	0.94819 0.63610 0.03172 -0.41100
H 	H 	0.82978 0.54723 0.99421 0.09400
H 	H 	0.08028 0.53355 0.96011 0.08800
F 	F 	0.96221 0.44455 0.92276 -0.39600
C 	C 	0.47069 0.88384 0.96835 -0.08300
C 	C 	0.45612 0.92713 0.99551 -0.11700
C 	C 	0.48186 0.02634 0.99784 0.34300
C 	C 	0.51801 0.08094 0.97269 -0.08300
C 	C 	0.52988 0.03761 0.94510 -0.11800
C 	C 	0.50736 0.93872 0.94323 0.35100
F 	F 	0.51763 0.89557 0.91657 -0.42000
H 	H 	0.45210 0.80761 0.96642 0.10100
H 	H 	0.53535 0.15709 0.97438 0.08500
F 	F 	0.47257 0.06991 0.02458 -0.43200
C 	C 	0.42212 0.36307 0.96702 -0.09100
C 	C 	0.44730 0.41933 0.94081 -0.12300
C 	C 	0.43943 0.50801 0.93972 0.34300
C 	C 	0.41321 0.54333 0.96565 -0.08800
C 	C 	0.39253 0.48952 0.99254 -0.13100
C 	C 	0.39478 0.39799 0.99284 0.34900
F 	F 	0.37367 0.34459 0.01860 -0.41200
H 	H 	0.42758 0.29442 0.96805 0.10600
H 	H 	0.40926 0.61282 0.96492 0.09200
F 	F 	0.45922 0.56097 0.91380 -0.41500
C 	C 	0.85467 0.20493 0.80242 -0.08600
C 	C 	0.85548 0.19372 0.83486 -0.10400
C 	C 	0.92077 0.18396 0.84968 0.36000
C 	C 	0.98046 0.17530 0.83174 -0.08800
C 	C 	0.97438 0.17355 0.79895 -0.13000
C 	C 	0.91475 0.19692 0.78459 0.34300
F 	F 	0.91026 0.20085 0.75296 -0.45200
H 	H 	0.80619 0.21633 0.79087 0.08900
H 	H 	0.02724 0.15992 0.84320 0.14100
F 	F 	0.92397 0.17635 0.88121 -0.40200
C 	C 	0.30213 0.00245 0.77409 -0.07600
C 	C 	0.23495 0.00732 0.78754 -0.11200
C 	C 	0.23772 0.03541 0.81915 0.34600
C 	C 	0.30824 0.06613 0.83615 -0.07600
C 	C 	0.37647 0.06851 0.82186 -0.11300
C 	C 	0.37261 0.03291 0.79116 0.34700
F 	F 	0.43778 0.03275 0.77728 -0.43900
H 	H 	0.30059 0.97986 0.74985 0.10900
H 	H 	0.31041 0.09174 0.86006 0.11500
F 	F 	0.17342 0.03974 0.83271 -0.41400
C 	C 	0.89565 0.64975 0.81270 -0.08600
C 	C 	0.84942 0.67453 0.79068 -0.12100
C 	C 	0.76899 0.62503 0.78926 0.34400
C 	C 	0.73535 0.55288 0.81009 -0.08700
C 	C 	0.78124 0.53035 0.83283 -0.12300
C 	C 	0.86187 0.57818 0.83374 0.34700
F 	F 	0.90708 0.55822 0.85586 -0.40600
H 	H 	0.95780 0.68658 0.81368 0.11000
H 	H 	0.67319 0.51614 0.80915 0.10300
F 	F 	0.72310 0.64910 0.76850 -0.42400
