data_crystal

_cell_length_a 18.42655
_cell_length_b 19.09620
_cell_length_c 36.59785
_cell_angle_alpha 95.42139
_cell_angle_beta  95.42568
_cell_angle_gamma 126.55836

_symmetry_space_group_name_	'P 1'
_symmetry_space_group_name_H-M	'P 1'

loop_
_symmetry_equiv_pos_as_xyz
  x,y,z

loop_
_atom_site_label
_atom_site_type_symbol
_atom_site_fract_x
_atom_site_fract_y
_atom_site_fract_z
_atom_site_charge
C 	C 	0.90789 0.99308 0.96815 0.03500
C 	C 	0.00157 0.04783 0.96643 -0.07800
C 	C 	0.05113 0.01394 0.96710 0.04300
C 	C 	0.00690 0.92449 0.96881 -0.08200
C 	C 	0.91242 0.86780 0.96904 0.03900
C 	C 	0.86253 0.90223 0.96903 -0.08400
H 	H 	0.03655 0.11756 0.96569 0.05500
H 	H 	0.04587 0.89876 0.96965 0.05500
H 	H 	0.78992 0.85933 0.97019 0.05100
C 	C 	0.92804 0.01981 0.48448 0.04200
C 	C 	0.86956 0.92738 0.48139 -0.08700
C 	C 	0.90664 0.88183 0.48551 0.04100
C 	C 	0.00144 0.92719 0.48868 -0.08600
C 	C 	0.05957 0.01835 0.48889 0.04400
C 	C 	0.02326 0.06533 0.48755 -0.08600
H 	H 	0.79583 0.89187 0.47821 0.05700
H 	H 	0.03016 0.89176 0.49145 0.05400
H 	H 	0.06872 0.13669 0.48937 0.05300
Cu	Cu	0.77220 0.34838 0.96508 0.92400
Cu	Cu	0.75896 0.27825 0.04446 0.87000
Cu	Cu	0.62356 0.29973 0.01119 0.89600
Cu	Cu	0.60302 0.34473 0.93669 0.89400
C 	C 	0.70986 0.32350 0.88641 0.30400
O 	O 	0.82713 0.47923 0.96525 -0.35900
C 	C 	0.68198 0.33059 0.09348 0.30500
O 	O 	0.62878 0.27609 0.95978 -0.64000
O 	O 	0.75863 0.36072 0.01782 -0.64100
O 	O 	0.82963 0.28566 0.96896 -0.37200
O 	O 	0.72704 0.19181 0.00290 -0.44200
O 	O 	0.67241 0.36249 0.89525 -0.38900
O 	O 	0.49141 0.23231 0.00158 -0.38700
C 	C 	0.44244 0.23670 0.97441 0.30200
C 	C 	0.78500 0.51180 0.97661 0.28700
O 	O 	0.69957 0.45735 0.98101 -0.39600
O 	O 	0.48103 0.29225 0.95105 -0.39800
O 	O 	0.76121 0.31864 0.91220 -0.36800
C 	C 	0.78659 0.21001 0.98124 0.29400
O 	O 	0.61653 0.30581 0.06498 -0.38800
O 	O 	0.75513 0.33644 0.08856 -0.42400
H 	H 	0.58914 0.21230 0.94823 0.16400
H 	H 	0.79664 0.42235 0.03206 0.17100
Cu	Cu	0.62645 0.22398 0.50975 0.92300
Cu	Cu	0.66648 0.20926 0.42435 0.87500
Cu	Cu	0.62251 0.34121 0.46031 0.91000
Cu	Cu	0.60509 0.37178 0.54046 0.89900
C 	C 	0.65644 0.28631 0.58892 0.30900
O 	O 	0.49089 0.15687 0.51362 -0.36300
C 	C 	0.64020 0.31747 0.38565 0.30300
O 	O 	0.67550 0.35605 0.51165 -0.63300
O 	O 	0.59522 0.22275 0.45622 -0.63500
O 	O 	0.71341 0.19305 0.50721 -0.37100
O 	O 	0.65951 0.12105 0.44639 -0.42400
O 	O 	0.60216 0.30821 0.58093 -0.39500
O 	O 	0.63838 0.45158 0.46508 -0.37600
C 	C 	0.68017 0.51195 0.49595 0.29700
C 	C 	0.44393 0.18584 0.50282 0.28700
O 	O 	0.48710 0.26878 0.49881 -0.40000
O 	O 	0.65669 0.48981 0.52827 -0.39500
O 	O 	0.67075 0.24612 0.56259 -0.36400
C 	C 	0.71173 0.14380 0.47886 0.29700
O 	O 	0.59225 0.32755 0.40676 -0.37900
O 	O 	0.70158 0.30898 0.40068 -0.43600
H 	H 	0.74286 0.40317 0.51833 0.15400
H 	H 	0.52905 0.17541 0.44607 0.15500
C 	C 	0.71299 0.28154 0.69885 -0.00600
C 	C 	0.78464 0.36017 0.72340 -0.03500
C 	C 	0.79076 0.36435 0.76205 -0.03500
C 	C 	0.72522 0.28992 0.77632 -0.00500
C 	C 	0.65752 0.20951 0.75179 -0.03600
C 	C 	0.65144 0.20531 0.71312 -0.03500
C 	C 	0.71948 0.29958 0.81526 0.04200
C 	C 	0.71581 0.30902 0.84794 -0.10600
C 	C 	0.69441 0.28284 0.65986 0.04300
C 	C 	0.67893 0.28399 0.62723 -0.10800
H 	H 	0.83294 0.41921 0.71261 0.03700
H 	H 	0.84382 0.42658 0.78082 0.03900
H 	H 	0.60706 0.15143 0.76259 0.03700
H 	H 	0.59628 0.14401 0.69433 0.04000
C 	C 	0.63389 0.34845 0.27679 -0.00800
C 	C 	0.55743 0.28292 0.24914 -0.03600
C 	C 	0.56288 0.28501 0.21131 -0.03600
C 	C 	0.64484 0.35262 0.20101 -0.00700
C 	C 	0.71928 0.42108 0.22865 -0.03600
C 	C 	0.71382 0.41900 0.26645 -0.03500
C 	C 	0.65680 0.34537 0.16283 0.04200
C 	C 	0.66733 0.33975 0.13093 -0.11300
C 	C 	0.63453 0.33745 0.31523 0.04300
C 	C 	0.63592 0.32898 0.34749 -0.11800
H 	H 	0.49514 0.22848 0.25689 0.03600
H 	H 	0.50479 0.23213 0.19012 0.03800
H 	H 	0.78268 0.47388 0.22093 0.03700
H 	H 	0.77302 0.47026 0.28765 0.03700
C 	C 	0.84371 0.72629 0.46205 -0.08900
C 	C 	0.84686 0.78718 0.48810 -0.01800
C 	C 	0.79714 0.75777 0.51758 0.06400
C 	C 	0.73884 0.66690 0.51826 -0.02600
C 	C 	0.73917 0.60661 0.49330 -0.11000
C 	C 	0.79665 0.63784 0.46631 0.12100
N 	N 	0.81174 0.58530 0.44631 -0.19800
H 	H 	0.88325 0.74922 0.43992 0.05200
H 	H 	0.69586 0.64358 0.53926 0.04500
N 	N 	0.80812 0.81645 0.54605 -0.19300
H 	H 	0.84731 0.60616 0.42421 0.08300
H 	H 	0.79672 0.52797 0.45474 0.07200
H 	H 	0.86217 0.88416 0.55010 0.08300
H 	H 	0.76644 0.79379 0.56620 0.08000
C 	C 	0.88362 0.10541 0.45636 -0.08600
C 	C 	0.88963 0.06897 0.48690 -0.02000
C 	C 	0.84716 0.06858 0.51723 0.06600
C 	C 	0.78858 0.09264 0.51402 -0.02500
C 	C 	0.77827 0.12437 0.48247 -0.11100
C 	C 	0.83219 0.13762 0.45483 0.11400
N 	N 	0.83855 0.18486 0.42807 -0.19800
H 	H 	0.91923 0.10901 0.43380 0.05000
H 	H 	0.75126 0.08697 0.53619 0.04800
N 	N 	0.86350 0.04644 0.54957 -0.19400
H 	H 	0.87300 0.18881 0.40631 0.07500
H 	H 	0.81659 0.22413 0.43033 0.03900
H 	H 	0.91485 0.03862 0.55438 0.08300
H 	H 	0.82826 0.04168 0.57112 0.08200
C 	C 	0.21349 0.09437 0.52758 -0.08900
C 	C 	0.15909 0.06467 0.49196 -0.01900
C 	C 	0.19684 0.06593 0.45987 0.06600
C 	C 	0.28869 0.09740 0.46416 -0.02600
C 	C 	0.34374 0.12918 0.49978 -0.11000
C 	C 	0.30486 0.12470 0.53185 0.12200
N 	N 	0.35480 0.14914 0.56677 -0.20700
H 	H 	0.18357 0.09101 0.55212 0.05200
H 	H 	0.31872 0.10120 0.43962 0.03200
N 	N 	0.14581 0.03831 0.42492 -0.19400
H 	H 	0.32690 0.14922 0.59033 0.08400
H 	H 	0.42005 0.16470 0.57088 0.10200
H 	H 	0.07883 0.01870 0.42068 0.08600
H 	H 	0.17372 0.03790 0.40140 0.08000
C 	C 	0.85201 0.74288 0.00356 -0.08800
C 	C 	0.86667 0.77228 0.96937 -0.01900
C 	C 	0.85699 0.71634 0.93779 0.06600
C 	C 	0.83848 0.63470 0.94160 -0.03100
C 	C 	0.82491 0.60572 0.97589 -0.10600
C 	C 	0.83260 0.66077 0.00731 0.11700
N 	N 	0.82411 0.63650 0.04135 -0.20200
H 	H 	0.86038 0.78599 0.02785 0.05000
H 	H 	0.83043 0.59178 0.91731 0.04600
N 	N 	0.86430 0.74016 0.90367 -0.19400
H 	H 	0.82721 0.67609 0.06417 0.08100
H 	H 	0.81756 0.57992 0.04581 0.08200
H 	H 	0.87088 0.79682 0.89932 0.08300
H 	H 	0.86026 0.70021 0.88072 0.08100
C 	C 	0.85090 0.14008 0.00938 -0.02400
C 	C 	0.81726 0.15379 0.97699 -0.11600
C 	C 	0.80166 0.10439 0.94175 0.12600
C 	C 	0.82373 0.04508 0.93967 -0.09200
C 	C 	0.86012 0.03362 0.97205 -0.01400
C 	C 	0.87056 0.07921 0.00735 0.06000
N 	N 	0.89992 0.06522 0.03940 -0.19300
H 	H 	0.86037 0.17588 0.03645 0.01500
H 	H 	0.81574 0.01027 0.91261 0.05300
N 	N 	0.76545 0.11310 0.90992 -0.20500
H 	H 	0.91047 0.10121 0.06531 0.07500
H 	H 	0.90983 0.01674 0.03902 0.08400
H 	H 	0.74693 0.15521 0.91043 0.09900
H 	H 	0.75470 0.07675 0.88407 0.08500
C 	C 	0.20960 0.13422 0.00095 -0.09100
C 	C 	0.15095 0.07360 0.96797 -0.01600
C 	C 	0.18813 0.07013 0.93633 0.06400
C 	C 	0.28388 0.12465 0.93900 -0.02500
C 	C 	0.34258 0.18430 0.97217 -0.11200
C 	C 	0.30508 0.19172 0.00301 0.12800
N 	N 	0.35985 0.25560 0.03406 -0.20200
H 	H 	0.18064 0.13772 0.02489 0.05300
H 	H 	0.31285 0.12046 0.91518 0.03400
N 	N 	0.13248 0.01549 0.90331 -0.19200
H 	H 	0.33192 0.25785 0.05731 0.08500
H 	H 	0.42934 0.30624 0.03477 0.09600
H 	H 	0.06102 0.97784 0.89969 0.08400
H 	H 	0.16074 0.01193 0.88040 0.08000
