data_crystal

_cell_length_a 18.71322
_cell_length_b 15.78430
_cell_length_c 40.67500
_cell_angle_alpha 90.89139
_cell_angle_beta  91.29562
_cell_angle_gamma 110.94784

_symmetry_space_group_name_	'P 1'
_symmetry_space_group_name_H-M	'P 1'

loop_
_symmetry_equiv_pos_as_xyz
  x,y,z

loop_
_atom_site_label
_atom_site_type_symbol
_atom_site_fract_x
_atom_site_fract_y
_atom_site_fract_z
_atom_site_charge
Ni	Ni	0.71738 0.33914 0.88575 1.10700
O 	O 	0.62722 0.26617 0.85537 -0.70400
Ni	Ni	0.53985 0.26732 0.88188 1.11000
O 	O 	0.79250 0.32656 0.85183 -0.33400
O 	O 	0.73585 0.17101 0.85026 -0.36500
O 	O 	0.70969 0.44810 0.86162 -0.38100
Ni	Ni	0.61674 0.14108 0.84737 1.09000
O 	O 	0.73682 0.43189 0.96019 -0.40000
O 	O 	0.61290 0.11045 0.89619 -0.38300
O 	O 	0.45763 0.20656 0.84717 -0.34600
O 	O 	0.62930 0.32241 0.91494 -0.69900
O 	O 	0.80742 0.42256 0.91500 -0.33400
O 	O 	0.46336 0.30379 0.90882 -0.33500
O 	O 	0.54854 0.44820 0.91161 -0.39100
Ni	Ni	0.64421 0.44016 0.93587 1.07900
H 	H 	0.62704 0.29637 0.83423 0.19900
H 	H 	0.62960 0.27890 0.93214 0.16400
C 	C 	0.55247 0.10211 0.91350 0.28300
O 	O 	0.71674 0.53751 0.90715 -0.38800
C 	C 	0.78848 0.24668 0.83996 0.38600
C 	C 	0.44967 0.12623 0.83418 0.39100
C 	C 	0.72585 0.52823 0.87559 0.42800
C 	C 	0.48090 0.38909 0.91814 0.28400
C 	C 	0.80316 0.44767 0.94604 0.31000
O 	O 	0.50646 0.14537 0.90550 -0.34000
O 	O 	0.49838 0.08447 0.84206 -0.36500
Ni	Ni	0.60394 0.31351 0.56558 1.10700
O 	O 	0.69428 0.33385 0.53516 -0.69800
Ni	Ni	0.76249 0.28591 0.56166 1.10500
O 	O 	0.56151 0.40010 0.54174 -0.34500
O 	O 	0.67960 0.50943 0.54347 -0.38300
O 	O 	0.53484 0.21115 0.53421 -0.34500
Ni	Ni	0.75203 0.45581 0.52063 1.08700
O 	O 	0.49829 0.13008 0.59205 -0.37100
O 	O 	0.83559 0.51696 0.55600 -0.34900
O 	O 	0.85988 0.32335 0.53400 -0.35300
O 	O 	0.66711 0.25493 0.58994 -0.69800
O 	O 	0.51573 0.28162 0.59718 -0.35100
O 	O 	0.80834 0.21460 0.59205 -0.32500
O 	O 	0.70152 0.08680 0.58545 -0.37800
Ni	Ni	0.60648 0.12508 0.58935 1.08800
H 	H 	0.67692 0.29544 0.51509 0.15700
H 	H 	0.67933 0.27987 0.61272 0.20300
C 	C 	0.85959 0.47662 0.57959 0.36900
O 	O 	0.59803 0.11234 0.53944 -0.39200
C 	C 	0.60744 0.48141 0.53397 0.29400
C 	C 	0.87565 0.38375 0.51033 0.30400
C 	C 	0.55474 0.14532 0.52206 0.29500
C 	C 	0.76817 0.13083 0.60018 0.39500
C 	C 	0.48010 0.19656 0.60559 0.39200
O 	O 	0.81333 0.39935 0.59105 -0.34500
O 	O 	0.82155 0.40632 0.49570 -0.39700
Ni	Ni	0.99194 0.95818 0.75437 1.09700
O 	O 	0.01224 0.85929 0.72810 -0.70600
Ni	Ni	0.06024 0.92646 0.68834 1.10200
O 	O 	0.94345 0.86890 0.79069 -0.32200
O 	O 	0.85398 0.77659 0.75431 -0.35800
O 	O 	0.09541 0.99480 0.78066 -0.34300
Ni	Ni	0.91456 0.76754 0.71296 1.08700
O 	O 	0.07816 0.16426 0.76993 -0.35700
O 	O 	0.87221 0.85792 0.69207 -0.37600
O 	O 	0.07806 0.81898 0.66581 -0.32300
O 	O 	0.03093 0.02514 0.71257 -0.66600
O 	O 	0.96376 0.05307 0.77902 -0.33700
O 	O 	0.13188 0.01137 0.65545 -0.28700
O 	O 	0.16258 0.15290 0.67848 -0.34000
Ni	Ni	0.11363 0.13972 0.72450 1.10000
H 	H 	0.04594 0.83284 0.73982 0.19600
H 	H 	0.98951 0.03958 0.70135 0.19500
C 	C 	0.90217 0.90300 0.66586 0.38400
O 	O 	0.17885 0.06987 0.74104 -0.36700
C 	C 	0.88474 0.79391 0.78419 0.37600
C 	C 	0.01959 0.74072 0.66277 0.38800
C 	C 	0.16428 0.02172 0.76779 0.40000
C 	C 	0.18397 0.09024 0.66454 0.38100
C 	C 	0.00514 0.13909 0.77732 0.41900
O 	O 	0.96925 0.90569 0.65611 -0.34200
O 	O 	0.94963 0.73780 0.66868 -0.38600
Ni	Ni	0.24208 0.67963 0.39147 1.10800
O 	O 	0.32953 0.72818 0.35968 -0.70300
Ni	Ni	0.41865 0.73195 0.38791 1.10900
O 	O 	0.16600 0.68118 0.35494 -0.31600
O 	O 	0.22952 0.83273 0.34618 -0.36800
O 	O 	0.23639 0.55593 0.37378 -0.37700
Ni	Ni	0.34635 0.85021 0.34517 1.08900
O 	O 	0.22464 0.60903 0.46769 -0.40500
O 	O 	0.35940 0.90729 0.39162 -0.38400
O 	O 	0.49764 0.76984 0.35248 -0.34300
O 	O 	0.33308 0.69911 0.42132 -0.69900
O 	O 	0.15235 0.62082 0.42225 -0.33300
O 	O 	0.49560 0.70458 0.41866 -0.35100
O 	O 	0.40680 0.56530 0.42718 -0.37900
Ni	Ni	0.31477 0.58942 0.44692 1.08100
H 	H 	0.32382 0.68680 0.34044 0.19800
H 	H 	0.33893 0.75042 0.43672 0.15600
C 	C 	0.41732 0.91221 0.41144 0.29500
O 	O 	0.23997 0.48028 0.42073 -0.36700
C 	C 	0.17180 0.75559 0.33930 0.38700
C 	C 	0.50359 0.83939 0.33362 0.37600
C 	C 	0.21226 0.48226 0.39090 0.40900
C 	C 	0.47609 0.62493 0.43219 0.28800
C 	C 	0.15783 0.58962 0.45200 0.30000
O 	O 	0.46025 0.86413 0.40510 -0.36400
O 	O 	0.46343 0.89258 0.33959 -0.36100
Ni	Ni	0.38162 0.70241 0.06177 1.10800
O 	O 	0.28485 0.67402 0.03266 -0.69800
Ni	Ni	0.21877 0.71913 0.06118 1.10500
O 	O 	0.42415 0.61678 0.03713 -0.33800
O 	O 	0.31016 0.50242 0.04023 -0.39100
O 	O 	0.44392 0.80184 0.03017 -0.35500
Ni	Ni	0.22868 0.54740 0.01975 1.07900
O 	O 	0.48736 0.89045 0.08943 -0.39000
O 	O 	0.15512 0.48928 0.05707 -0.36500
O 	O 	0.11359 0.66752 0.03597 -0.34600
O 	O 	0.32111 0.76066 0.08746 -0.69800
O 	O 	0.47435 0.74021 0.09271 -0.34600
O 	O 	0.17628 0.79161 0.09293 -0.32300
O 	O 	0.27850 0.92146 0.08490 -0.38200
Ni	Ni	0.37752 0.89090 0.08751 1.08400
H 	H 	0.29640 0.71050 0.01257 0.16400
H 	H 	0.31515 0.73845 0.11024 0.20100
C 	C 	0.13918 0.53064 0.08275 0.39000
O 	O 	0.37734 0.89613 0.03772 -0.40700
C 	C 	0.37960 0.53353 0.02917 0.28800
C 	C 	0.09684 0.60357 0.01231 0.29500
C 	C 	0.42570 0.87134 0.02097 0.30600
C 	C 	0.21702 0.87686 0.10121 0.39000
C 	C 	0.50980 0.82612 0.10159 0.39400
O 	O 	0.18492 0.61232 0.09207 -0.35100
O 	O 	0.15148 0.58858 0.99627 -0.39500
Ni	Ni	0.95985 0.03101 0.26474 1.11800
O 	O 	0.96792 0.13832 0.23612 -0.71000
Ni	Ni	0.93159 0.07712 0.19278 1.11500
O 	O 	0.99959 0.11753 0.30454 -0.32500
O 	O 	0.10885 0.19340 0.27757 -0.36600
O 	O 	0.84811 0.01202 0.27713 -0.29200
Ni	Ni	0.07438 0.21692 0.23059 1.09600
O 	O 	0.86985 0.81203 0.26554 -0.35600
O 	O 	0.11197 0.11838 0.21228 -0.35900
O 	O 	0.93318 0.19148 0.16956 -0.30300
O 	O 	0.94094 0.96983 0.21935 -0.70300
O 	O 	0.95867 0.92827 0.29394 -0.36100
O 	O 	0.86752 0.00302 0.15359 -0.29000
O 	O 	0.82844 0.85760 0.17003 -0.34300
Ni	Ni	0.85451 0.85350 0.21951 1.10300
H 	H 	0.93582 0.17254 0.24361 0.21400
H 	H 	0.98681 0.95617 0.21375 0.19100
C 	C 	0.08973 0.08180 0.18282 0.37900
O 	O 	0.78503 0.92038 0.23324 -0.36100
C 	C 	0.06513 0.18561 0.30310 0.40500
C 	C 	0.99654 0.26480 0.17167 0.34500
C 	C 	0.78552 0.95010 0.26361 0.35200
C 	C 	0.81237 0.92521 0.15793 0.35900
C 	C 	0.93560 0.84544 0.28204 0.38900
O 	O 	0.02874 0.08787 0.16829 -0.32600
O 	O 	0.06086 0.25964 0.18436 -0.34300
C 	C 	0.08940 0.49573 0.13989 0.29400
C 	C 	0.08149 0.47511 0.10586 -0.19500
C 	C 	0.02370 0.39415 0.09453 0.30500
C 	C 	0.98562 0.32749 0.11683 0.25000
C 	C 	0.00365 0.34238 0.15065 -0.13700
C 	C 	0.04941 0.42993 0.16211 0.26500
F 	F 	0.06132 0.44813 0.19494 -0.37400
F 	F 	0.13837 0.57740 0.15155 -0.35600
F 	F 	0.93621 0.24584 0.10537 -0.35400
F 	F 	0.00660 0.37858 0.06189 -0.39100
C 	C 	0.68743 0.94596 0.15379 0.25000
C 	C 	0.73805 0.90665 0.14139 -0.18000
C 	C 	0.71428 0.84273 0.11532 0.27800
C 	C 	0.63971 0.81640 0.10228 0.28500
C 	C 	0.58794 0.85308 0.11554 -0.20000
C 	C 	0.61250 0.91904 0.14099 0.28800
F 	F 	0.56330 0.95575 0.15369 -0.40000
F 	F 	0.71025 0.00818 0.17897 -0.36300
F 	F 	0.61811 0.75661 0.07634 -0.38100
F 	F 	0.76358 0.80612 0.10265 -0.37300
C 	C 	0.15455 0.06492 0.13210 0.26300
C 	C 	0.13578 0.03953 0.16463 -0.14900
C 	C 	0.14547 0.96111 0.17653 0.23700
C 	C 	0.16884 0.90548 0.15541 0.29900
C 	C 	0.18398 0.92888 0.12242 -0.23200
C 	C 	0.17732 0.00933 0.11099 0.32200
F 	F 	0.19208 0.03306 0.07922 -0.37300
F 	F 	0.14759 0.14197 0.12055 -0.36100
F 	F 	0.17774 0.82963 0.16710 -0.35800
F 	F 	0.13016 0.93748 0.20825 -0.36700
C 	C 	0.62443 0.96135 0.31682 0.26600
C 	C 	0.57067 0.87254 0.31245 -0.18400
C 	C 	0.58694 0.81102 0.29135 0.28100
C 	C 	0.65724 0.83622 0.27590 0.27800
C 	C 	0.71179 0.92435 0.28066 -0.16600
C 	C 	0.69446 0.98736 0.30081 0.26000
F 	F 	0.74501 0.07372 0.30477 -0.34400
F 	F 	0.61009 0.02140 0.33748 -0.35700
F 	F 	0.67324 0.77404 0.25695 -0.38700
F 	F 	0.53523 0.72554 0.28656 -0.37800
C 	C 	0.09771 0.39065 0.35721 0.27400
C 	C 	0.16574 0.39686 0.37411 -0.20300
C 	C 	0.19390 0.32575 0.37116 0.28400
C 	C 	0.15759 0.25256 0.34948 0.28800
C 	C 	0.09247 0.24954 0.33099 -0.19800
C 	C 	0.06070 0.31661 0.33605 0.28700
F 	F 	0.99674 0.31307 0.31874 -0.39000
F 	F 	0.06983 0.45885 0.35997 -0.38200
F 	F 	0.18751 0.18654 0.34535 -0.36400
F 	F 	0.25917 0.33050 0.38766 -0.37600
C 	C 	0.03315 0.77636 0.27389 0.29100
C 	C 	0.97527 0.78587 0.29336 -0.20200
C 	C 	0.97538 0.76740 0.32701 0.28100
C 	C 	0.03904 0.75530 0.34192 0.29900
C 	C 	0.10220 0.75967 0.32309 -0.18500
C 	C 	0.09755 0.76574 0.28881 0.28900
F 	F 	0.15612 0.76383 0.27008 -0.36600
F 	F 	0.03031 0.78602 0.24085 -0.37100
F 	F 	0.04101 0.74393 0.37491 -0.37300
F 	F 	0.91734 0.77058 0.34582 -0.36500
C 	C 	0.43835 0.04491 0.49158 -0.00700
C 	C 	0.51679 0.09707 0.49152 -0.07800
C 	C 	0.55883 0.09769 0.46293 0.11900
C 	C 	0.52129 0.04604 0.43510 -0.00200
C 	C 	0.44520 0.98616 0.43644 -0.10000
C 	C 	0.40234 0.98759 0.46460 0.09700
N 	N 	0.32745 0.93310 0.46623 -0.19800
H 	H 	0.40599 0.04569 0.51330 0.10100
H 	H 	0.55334 0.04674 0.41314 0.09600
N 	N 	0.63542 0.14527 0.46231 -0.19700
H 	H 	0.29695 0.93347 0.48741 0.12100
H 	H 	0.29846 0.89074 0.44654 0.10100
H 	H 	0.66739 0.17329 0.48368 0.08900
H 	H 	0.66478 0.14978 0.44046 0.12100
C 	C 	0.01332 0.47593 0.51672 -0.01000
C 	C 	0.95301 0.41739 0.49702 -0.08700
C 	C 	0.96369 0.40794 0.46308 0.13200
C 	C 	0.03056 0.46583 0.44882 -0.02600
C 	C 	0.08706 0.53253 0.46794 -0.07000
C 	C 	0.07749 0.53899 0.50229 0.13600
N 	N 	0.12601 0.60910 0.52095 -0.19200
H 	H 	0.00696 0.47868 0.54307 0.08400
H 	H 	0.03906 0.45815 0.42285 0.10500
N 	N 	0.91091 0.34198 0.44430 -0.19800
H 	H 	0.12272 0.60878 0.54658 0.13700
H 	H 	0.16206 0.66808 0.51023 0.13100
H 	H 	0.86420 0.29290 0.45484 0.12300
H 	H 	0.91792 0.33699 0.41900 0.13700
C 	C 	0.55307 0.59419 0.51526 -0.02700
C 	C 	0.58422 0.52829 0.50736 -0.09000
C 	C 	0.59177 0.50681 0.47397 0.11100
C 	C 	0.56369 0.54820 0.44919 -0.02700
C 	C 	0.52630 0.60790 0.45718 -0.08200
C 	C 	0.52412 0.63466 0.49041 0.10400
N 	N 	0.49326 0.69792 0.49861 -0.20300
H 	H 	0.54979 0.61262 0.54083 0.06500
H 	H 	0.56665 0.52947 0.42362 0.07700
N 	N 	0.62421 0.44519 0.46557 -0.19400
H 	H 	0.48982 0.71523 0.52328 0.09700
H 	H 	0.47425 0.73215 0.48066 0.07700
H 	H 	0.64424 0.41152 0.48331 0.03100
H 	H 	0.62938 0.42994 0.44084 0.10900
C 	C 	0.80690 0.07384 0.65148 0.27800
C 	C 	0.80718 0.07786 0.61708 -0.19800
C 	C 	0.83613 0.02202 0.59871 0.31200
C 	C 	0.86430 0.96214 0.61462 0.25500
C 	C 	0.86422 0.95797 0.64909 -0.22500
C 	C 	0.83506 0.01393 0.66748 0.30300
F 	F 	0.83573 0.01180 0.70085 -0.38400
F 	F 	0.77839 0.12720 0.66939 -0.36400
F 	F 	0.89115 0.90750 0.59653 -0.36100
F 	F 	0.83578 0.02488 0.56536 -0.37300
C 	C 	0.39836 0.19444 0.65356 0.28400
C 	C 	0.40432 0.17259 0.62040 -0.19100
C 	C 	0.33767 0.12532 0.60150 0.28800
C 	C 	0.26575 0.09897 0.61574 0.28100
C 	C 	0.25972 0.11917 0.64916 -0.17300
C 	C 	0.32641 0.16763 0.66793 0.28200
F 	F 	0.32161 0.18726 0.70024 -0.37300
F 	F 	0.46233 0.24016 0.67204 -0.37600
F 	F 	0.20187 0.05547 0.59689 -0.34400
F 	F 	0.34258 0.10576 0.56920 -0.38000
C 	C 	0.94202 0.51066 0.63168 0.27700
C 	C 	0.92999 0.53162 0.59896 -0.18600
C 	C 	0.98024 0.61374 0.58636 0.25400
C 	C 	0.02963 0.68041 0.60778 0.29000
C 	C 	0.02562 0.66732 0.64178 -0.17400
C 	C 	0.99194 0.57813 0.65280 0.25700
F 	F 	0.99719 0.56086 0.68518 -0.38900
F 	F 	0.90298 0.42731 0.64345 -0.36400
F 	F 	0.07143 0.76290 0.59605 -0.36000
F 	F 	0.97719 0.63157 0.55392 -0.39400
C 	C 	0.96782 0.60777 0.99862 -0.04800
C 	C 	0.01657 0.55787 0.00031 -0.03900
C 	C 	0.99114 0.46810 0.98655 0.11800
C 	C 	0.92087 0.43383 0.96926 -0.01800
C 	C 	0.87420 0.48536 0.96609 -0.07500
C 	C 	0.89735 0.57318 0.98108 0.14600
N 	N 	0.85387 0.62582 0.97775 -0.19600
H 	H 	0.98649 0.67576 0.00940 0.08300
H 	H 	0.90217 0.36605 0.95825 0.07900
N 	N 	0.03343 0.41420 0.99009 -0.17900
H 	H 	0.87104 0.68987 0.98931 0.12800
H 	H 	0.80380 0.60502 0.96316 0.11900
H 	H 	0.07993 0.43095 0.00654 0.11300
H 	H 	0.01669 0.35113 0.97781 0.14200
C 	C 	0.46370 0.89060 0.96271 -0.00900
C 	C 	0.46785 0.92898 0.99434 -0.12000
C 	C 	0.51000 0.02288 0.99988 0.17300
C 	C 	0.54149 0.07745 0.97315 -0.05900
C 	C 	0.53326 0.04013 0.94124 -0.03200
C 	C 	0.49589 0.94531 0.93599 0.08400
N 	N 	0.48969 0.90665 0.90542 -0.18900
H 	H 	0.43343 0.81833 0.95868 0.04700
H 	H 	0.57112 0.14986 0.97713 0.05200
N 	N 	0.52134 0.06081 0.03073 -0.20300
H 	H 	0.46066 0.83692 0.90171 0.10800
H 	H 	0.51456 0.94477 0.88518 0.10300
H 	H 	0.50503 0.02147 0.05148 0.11700
H 	H 	0.54983 0.13068 0.03430 0.11200
C 	C 	0.40290 0.53279 0.96967 -0.04700
C 	C 	0.39682 0.48956 0.99989 -0.09700
C 	C 	0.40438 0.40360 0.00138 0.12300
C 	C 	0.42305 0.36558 0.97288 -0.04500
C 	C 	0.43584 0.41293 0.94336 -0.08800
C 	C 	0.42065 0.49415 0.94121 0.12300
N 	N 	0.42255 0.53486 0.91185 -0.19800
H 	H 	0.39338 0.59655 0.96829 0.04000
H 	H 	0.43283 0.30199 0.97427 0.06300
N 	N 	0.39625 0.35867 0.03015 -0.19900
H 	H 	0.41425 0.59682 0.91060 0.10800
H 	H 	0.42914 0.50361 0.88989 0.13100
H 	H 	0.38503 0.38635 0.05203 0.13100
H 	H 	0.40179 0.29513 0.03092 0.11800
C 	C 	0.86155 0.24592 0.78942 0.28600
C 	C 	0.85619 0.24049 0.82372 -0.18800
C 	C 	0.91561 0.22844 0.84248 0.28800
C 	C 	0.97542 0.21171 0.82679 0.27900
C 	C 	0.97484 0.20417 0.79229 -0.19800
C 	C 	0.92145 0.22925 0.77378 0.28300
F 	F 	0.92253 0.22719 0.74042 -0.36900
F 	F 	0.80689 0.26305 0.77112 -0.37000
F 	F 	0.02918 0.19282 0.84511 -0.34400
F 	F 	0.91370 0.22901 0.87583 -0.38300
C 	C 	0.30782 0.06111 0.83755 0.28400
C 	C 	0.37393 0.07143 0.81981 -0.18400
C 	C 	0.36649 0.04171 0.78683 0.27800
C 	C 	0.29455 0.01246 0.77067 0.31100
C 	C 	0.23005 0.01558 0.78717 -0.18800
C 	C 	0.23616 0.03380 0.82129 0.28900
F 	F 	0.17388 0.03172 0.83822 -0.33900
F 	F 	0.31373 0.08290 0.87018 -0.36700
F 	F 	0.28838 0.98726 0.73834 -0.40400
F 	F 	0.42945 0.04667 0.76987 -0.37000
C 	C 	0.84539 0.64855 0.85898 0.28900
C 	C 	0.76529 0.60864 0.85668 -0.21300
C 	C 	0.72424 0.63894 0.83337 0.28600
C 	C 	0.76323 0.70463 0.81104 0.27300
C 	C 	0.84378 0.73899 0.81145 -0.18500
C 	C 	0.88461 0.71329 0.83635 0.27200
F 	F 	0.96235 0.74734 0.83749 -0.37300
F 	F 	0.88536 0.62111 0.88211 -0.38600
F 	F 	0.72287 0.73389 0.78865 -0.37100
F 	F 	0.64657 0.60274 0.83175 -0.39000
