data_crystal

_cell_length_a 20.61258
_cell_length_b 30.04699
_cell_length_c 27.96495
_cell_angle_alpha 90.00931
_cell_angle_beta  90.00014
_cell_angle_gamma 89.98939

_symmetry_space_group_name_	'P 1'
_symmetry_space_group_name_H-M	'P 1'

loop_
_symmetry_equiv_pos_as_xyz
  x,y,z

loop_
_atom_site_label
_atom_site_type_symbol
_atom_site_fract_x
_atom_site_fract_y
_atom_site_fract_z
_atom_site_charge
Cu	Cu	0.07204 0.85427 0.08678 0.93500
Cu	Cu	0.00069 0.84730 0.19107 0.88500
Cu	Cu	0.93255 0.82485 0.10140 0.88400
Cu	Cu	0.99091 0.80741 0.00519 0.86800
C 	C 	0.13478 0.80791 0.00991 0.26600
O 	O 	0.05239 0.90233 0.03829 -0.32300
C 	C 	0.86231 0.85471 0.18560 0.28700
O 	O 	0.00892 0.80094 0.07122 -0.61300
O 	O 	0.99536 0.86982 0.12570 -0.67000
O 	O 	0.13739 0.85813 0.13876 -0.36700
O 	O 	0.07793 0.81307 0.18678 -0.42700
O 	O 	0.08272 0.81478 0.98344 -0.35200
O 	O 	0.87505 0.77807 0.08047 -0.39900
C 	C 	0.86598 0.76667 0.03549 0.29900
C 	C 	0.99403 0.90776 0.02023 0.24600
O 	O 	0.95345 0.87408 0.01809 -0.40100
O 	O 	0.91433 0.76676 0.00441 -0.41000
O 	O 	0.14174 0.82805 0.05151 -0.35900
C 	C 	0.13278 0.83318 0.17707 0.29700
O 	O 	0.86018 0.84755 0.13906 -0.38500
O 	O 	0.91570 0.86941 0.20620 -0.43600
H 	H 	0.02095 0.77057 0.08170 0.16500
H 	H 	0.97979 0.90090 0.12300 0.16900
Cu	Cu	0.41421 0.86669 0.39148 0.92800
Cu	Cu	0.48523 0.84584 0.28948 0.86500
Cu	Cu	0.55411 0.83612 0.38048 0.89300
Cu	Cu	0.49647 0.83108 0.47887 0.89100
C 	C 	0.35305 0.82770 0.47336 0.29100
O 	O 	0.43310 0.92060 0.43247 -0.36200
C 	C 	0.62324 0.85749 0.29206 0.29000
O 	O 	0.47832 0.81614 0.41442 -0.64100
O 	O 	0.49049 0.87727 0.35031 -0.64400
O 	O 	0.34840 0.86469 0.33976 -0.37100
O 	O 	0.40651 0.81388 0.29777 -0.43600
O 	O 	0.40412 0.83848 0.49936 -0.38300
O 	O 	0.61209 0.79259 0.40794 -0.39100
C 	C 	0.62197 0.78707 0.45412 0.29700
C 	C 	0.49156 0.92912 0.44888 0.28600
O 	O 	0.53239 0.89627 0.45682 -0.39700
O 	O 	0.57447 0.79200 0.48550 -0.39600
O 	O 	0.34480 0.84487 0.43039 -0.36100
C 	C 	0.35245 0.83595 0.30463 0.29800
O 	O 	0.62613 0.85362 0.33908 -0.38600
O 	O 	0.56859 0.86766 0.27016 -0.42100
H 	H 	0.46645 0.78467 0.40861 0.15900
H 	H 	0.50643 0.90822 0.34786 0.16900
Cu	Cu	0.06976 0.14300 0.88596 0.93700
Cu	Cu	0.99903 0.15054 0.78130 0.85500
Cu	Cu	0.93216 0.17771 0.87129 0.88600
Cu	Cu	0.98902 0.18306 0.97213 0.87400
C 	C 	0.13206 0.18542 0.96513 0.28500
O 	O 	0.05156 0.09033 0.92904 -0.31400
C 	C 	0.86240 0.13895 0.78854 0.29400
O 	O 	0.00746 0.19499 0.90726 -0.60800
O 	O 	0.99223 0.13085 0.84697 -0.66500
O 	O 	0.13291 0.14760 0.83261 -0.36900
O 	O 	0.06786 0.19218 0.78788 -0.42000
O 	O 	0.08151 0.17636 0.99239 -0.36300
O 	O 	0.87813 0.22388 0.89803 -0.39100
C 	C 	0.86554 0.22800 0.94405 0.29300
C 	C 	0.99444 0.08410 0.94893 0.23500
O 	O 	0.95333 0.11733 0.95287 -0.39100
O 	O 	0.91154 0.22278 0.97656 -0.40300
O 	O 	0.13979 0.16542 0.92357 -0.36100
C 	C 	0.12613 0.17855 0.79985 0.29200
O 	O 	0.86325 0.16887 0.82332 -0.39400
O 	O 	0.91664 0.12379 0.76959 -0.42900
H 	H 	0.02200 0.22577 0.90062 0.16500
H 	H 	0.97448 0.10040 0.85039 0.16600
Cu	Cu	0.41173 0.15568 0.59841 0.92800
Cu	Cu	0.48038 0.15832 0.70395 0.87100
Cu	Cu	0.54834 0.19062 0.61626 0.89500
Cu	Cu	0.49196 0.20084 0.51575 0.89200
C 	C 	0.34727 0.19859 0.51993 0.29400
O 	O 	0.43225 0.10573 0.55213 -0.36400
C 	C 	0.61706 0.14636 0.69602 0.29100
O 	O 	0.47287 0.20938 0.58106 -0.63800
O 	O 	0.48860 0.14229 0.63728 -0.64500
O 	O 	0.34776 0.15607 0.65140 -0.37700
O 	O 	0.41022 0.19921 0.69957 -0.44000
O 	O 	0.39999 0.19301 0.49367 -0.38800
O 	O 	0.60299 0.23804 0.59244 -0.38400
C 	C 	0.61460 0.24559 0.54673 0.29200
C 	C 	0.49048 0.10072 0.53359 0.28700
O 	O 	0.53020 0.13483 0.53096 -0.39700
O 	O 	0.56832 0.24187 0.51414 -0.39400
O 	O 	0.34155 0.17967 0.56228 -0.37100
C 	C 	0.35269 0.18532 0.68608 0.29500
O 	O 	0.61650 0.17905 0.66422 -0.39100
O 	O 	0.56268 0.13107 0.71466 -0.42000
H 	H 	0.45734 0.23959 0.58938 0.16100
H 	H 	0.50653 0.11208 0.63249 0.16800
Cu	Cu	0.92000 0.65037 0.59160 0.92600
Cu	Cu	0.99125 0.64330 0.69614 0.85600
Cu	Cu	0.05836 0.68214 0.61099 0.91100
Cu	Cu	0.99987 0.70147 0.51277 0.87400
C 	C 	0.85598 0.70192 0.51950 0.29300
O 	O 	0.93817 0.60499 0.53999 -0.34900
C 	C 	0.12847 0.63389 0.68838 0.29100
O 	O 	0.98240 0.70464 0.57905 -0.65400
O 	O 	0.99772 0.63275 0.62813 -0.69500
O 	O 	0.85557 0.64412 0.64385 -0.37500
O 	O 	0.91807 0.68160 0.69707 -0.44900
O 	O 	0.90724 0.69702 0.49164 -0.39300
O 	O 	0.11323 0.73115 0.59112 -0.37300
C 	C 	0.12398 0.74260 0.54623 0.29000
C 	C 	0.99620 0.60012 0.52125 0.17800
O 	O 	0.03680 0.63383 0.52027 -0.33400
O 	O 	0.07713 0.74160 0.51386 -0.37400
O 	O 	0.84964 0.67821 0.55887 -0.36500
C 	C 	0.86128 0.66617 0.68409 0.30100
O 	O 	0.12850 0.66623 0.65612 -0.38100
O 	O 	0.07400 0.61587 0.70368 -0.40200
H 	H 	0.96793 0.73421 0.59048 0.15400
H 	H 	0.01474 0.60283 0.62034 0.21000
Cu	Cu	0.57053 0.63502 0.89389 0.92800
Cu	Cu	0.50732 0.63373 0.78617 0.87000
Cu	Cu	0.43673 0.67270 0.87068 0.89500
Cu	Cu	0.48879 0.68498 0.97285 0.89300
C 	C 	0.63240 0.68196 0.97017 0.28800
O 	O 	0.54657 0.58793 0.94220 -0.36200
C 	C 	0.36904 0.62951 0.78933 0.29300
O 	O 	0.51108 0.69065 0.90752 -0.63700
O 	O 	0.49456 0.62178 0.85359 -0.64400
O 	O 	0.63730 0.62924 0.84353 -0.37900
O 	O 	0.58238 0.67068 0.78898 -0.43900
O 	O 	0.57968 0.67693 0.99645 -0.38200
O 	O 	0.38264 0.72144 0.89215 -0.38100
C 	C 	0.36899 0.72937 0.93745 0.29200
C 	C 	0.48752 0.58432 0.95939 0.28500
O 	O 	0.44863 0.61898 0.95995 -0.39100
O 	O 	0.41446 0.72745 0.97075 -0.39200
O 	O 	0.64036 0.65892 0.93050 -0.36200
C 	C 	0.63738 0.65514 0.80582 0.29600
O 	O 	0.37061 0.66233 0.82093 -0.38900
O 	O 	0.42273 0.61011 0.77436 -0.42000
H 	H 	0.52869 0.72013 0.89846 0.15800
H 	H 	0.47430 0.59247 0.85983 0.16700
Cu	Cu	0.90721 0.36303 0.38868 0.92500
Cu	Cu	0.97860 0.34128 0.28667 0.85000
Cu	Cu	0.04651 0.33174 0.37923 0.91200
Cu	Cu	0.98891 0.32933 0.47744 0.87200
C 	C 	0.84541 0.32681 0.47163 0.29200
O 	O 	0.92696 0.41812 0.42785 -0.34500
C 	C 	0.11708 0.35133 0.29190 0.28700
O 	O 	0.97058 0.31287 0.41355 -0.65700
O 	O 	0.98365 0.37236 0.34768 -0.65900
O 	O 	0.84269 0.35690 0.33637 -0.37800
O 	O 	0.90384 0.30557 0.29741 -0.45000
O 	O 	0.89653 0.33797 0.49744 -0.39200
O 	O 	0.10449 0.28886 0.40772 -0.38200
C 	C 	0.11422 0.28448 0.45406 0.29300
C 	C 	0.98589 0.42649 0.44364 0.18100
O 	O 	0.02589 0.39342 0.45279 -0.33900
O 	O 	0.06626 0.28963 0.48504 -0.37600
O 	O 	0.83756 0.34290 0.42817 -0.36900
C 	C 	0.84737 0.32436 0.30526 0.29600
O 	O 	0.11860 0.35018 0.33908 -0.37700
O 	O 	0.06344 0.36199 0.26879 -0.39800
H 	H 	0.95853 0.28130 0.40860 0.15400
H 	H 	0.99987 0.40324 0.34506 0.16100
Cu	Cu	0.56975 0.35266 0.09343 0.92700
Cu	Cu	0.49762 0.34140 0.19670 0.86500
Cu	Cu	0.43055 0.32154 0.10525 0.89600
Cu	Cu	0.49055 0.30992 0.00845 0.88800
C 	C 	0.63418 0.31240 0.01361 0.27300
O 	O 	0.54945 0.40353 0.04820 -0.36900
C 	C 	0.35964 0.35043 0.19041 0.29000
O 	O 	0.50773 0.29990 0.07397 -0.63900
O 	O 	0.49259 0.36562 0.13234 -0.64300
O 	O 	0.63345 0.35136 0.14673 -0.37800
O 	O 	0.57151 0.30400 0.19035 -0.44300
O 	O 	0.58202 0.32022 0.98765 -0.37600
O 	O 	0.37333 0.27597 0.08033 -0.38900
C 	C 	0.36646 0.26640 0.03455 0.30200
C 	C 	0.49114 0.40899 0.02983 0.29200
O 	O 	0.45133 0.37500 0.02612 -0.40500
O 	O 	0.41612 0.26793 0.00476 -0.40300
O 	O 	0.64007 0.32896 0.05705 -0.36900
C 	C 	0.62837 0.32136 0.18062 0.29500
O 	O 	0.35748 0.34157 0.14414 -0.38200
O 	O 	0.41330 0.36458 0.21105 -0.42200
H 	H 	0.52017 0.26910 0.08258 0.16000
H 	H 	0.47669 0.39670 0.13091 0.17100
C 	C 	0.67473 0.31188 0.26197 -0.04800
C 	C 	0.68414 0.31217 0.21226 -0.10500
C 	C 	0.74765 0.30775 0.19360 0.10400
C 	C 	0.80096 0.31013 0.22474 -0.04700
C 	C 	0.79158 0.31342 0.27433 -0.10800
C 	C 	0.72800 0.31079 0.29322 0.10800
N 	N 	0.71793 0.30586 0.34100 -0.20000
H 	H 	0.62594 0.31308 0.27642 0.02700
H 	H 	0.84977 0.31000 0.21027 0.02100
N 	N 	0.75759 0.29975 0.14630 -0.19900
H 	H 	0.67090 0.30644 0.35496 0.08100
H 	H 	0.75615 0.29853 0.36419 0.09900
H 	H 	0.71929 0.29098 0.12377 0.09800
H 	H 	0.80460 0.29921 0.13229 0.07700
C 	C 	0.19413 0.38611 0.23494 -0.04500
C 	C 	0.17888 0.35062 0.26556 -0.09100
C 	C 	0.22375 0.31536 0.27177 0.10200
C 	C 	0.28395 0.31723 0.24855 -0.04400
C 	C 	0.29871 0.35225 0.21740 -0.09800
C 	C 	0.25385 0.38740 0.21087 0.11200
N 	N 	0.26821 0.42274 0.18233 -0.20000
H 	H 	0.15990 0.41321 0.23047 0.05200
H 	H 	0.31857 0.29041 0.25340 0.03000
N 	N 	0.20853 0.27902 0.29859 -0.19700
H 	H 	0.23427 0.44814 0.17711 0.08400
H 	H 	0.31343 0.42590 0.16588 0.09200
H 	H 	0.16159 0.27376 0.31134 0.08600
H 	H 	0.24320 0.25433 0.30495 0.08400
C 	C 	0.46836 0.48865 0.04431 -0.03300
C 	C 	0.47163 0.45308 0.01196 -0.11400
C 	C 	0.46477 0.46135 0.96229 0.12200
C 	C 	0.46023 0.50545 0.94602 -0.05200
C 	C 	0.46556 0.54114 0.97803 -0.07900
C 	C 	0.46538 0.53274 0.02782 0.08700
N 	N 	0.46402 0.56678 0.05989 -0.19600
H 	H 	0.47110 0.48212 0.08240 0.03200
H 	H 	0.45788 0.51204 0.90792 0.03600
N 	N 	0.46511 0.42746 0.92997 -0.20000
H 	H 	0.46617 0.56032 0.09658 0.07700
H 	H 	0.45894 0.59977 0.04887 0.07400
H 	H 	0.47039 0.39437 0.94046 0.08000
H 	H 	0.46027 0.43410 0.89345 0.07900
C 	C 	0.98326 0.55217 0.45022 -0.10100
C 	C 	0.01157 0.55898 0.49514 0.00800
C 	C 	0.04379 0.52341 0.51814 0.08900
C 	C 	0.03853 0.48020 0.49925 -0.06200
C 	C 	0.00429 0.47261 0.45658 0.00800
C 	C 	0.98131 0.50949 0.42987 0.05700
N 	N 	0.95899 0.50433 0.38447 -0.19000
H 	H 	0.96123 0.57996 0.43154 0.05100
H 	H 	0.05923 0.45236 0.51863 0.05400
N 	N 	0.07980 0.53050 0.55815 -0.19600
H 	H 	0.93867 0.53123 0.36610 0.07400
H 	H 	0.96554 0.47457 0.36591 0.06700
H 	H 	0.09020 0.56268 0.56995 0.07800
H 	H 	0.10081 0.50376 0.57638 0.08300
C 	C 	0.18958 0.62064 0.76359 -0.04500
C 	C 	0.18953 0.62293 0.71343 -0.09300
C 	C 	0.24879 0.61884 0.68824 0.10500
C 	C 	0.30751 0.61893 0.71375 -0.04400
C 	C 	0.30765 0.62028 0.76396 -0.09700
C 	C 	0.24814 0.61795 0.78904 0.10900
N 	N 	0.24690 0.61227 0.83730 -0.19800
H 	H 	0.14403 0.62181 0.78294 0.04500
H 	H 	0.35312 0.61882 0.69443 0.04000
N 	N 	0.24958 0.61364 0.63992 -0.19800
H 	H 	0.20291 0.61300 0.85588 0.08400
H 	H 	0.28900 0.60465 0.85639 0.08400
H 	H 	0.20701 0.60748 0.62079 0.08400
H 	H 	0.29356 0.61306 0.62132 0.07900
C 	C 	0.77402 0.70288 0.73051 -0.04200
C 	C 	0.80849 0.66405 0.71926 -0.10700
C 	C 	0.78935 0.62287 0.73931 0.09900
C 	C 	0.73281 0.62073 0.76697 -0.04400
C 	C 	0.69720 0.65931 0.77733 -0.10300
C 	C 	0.71941 0.70113 0.76055 0.10400
N 	N 	0.69004 0.73963 0.77428 -0.20000
H 	H 	0.78978 0.73455 0.71598 0.03900
H 	H 	0.71660 0.58886 0.78072 0.04100
N 	N 	0.82563 0.58549 0.73284 -0.19700
H 	H 	0.70513 0.77011 0.76011 0.07800
H 	H 	0.65442 0.74002 0.80079 0.08700
H 	H 	0.87105 0.58669 0.71638 0.05200
H 	H 	0.80978 0.55489 0.74623 0.07300
C 	C 	0.17148 0.21885 0.48728 -0.04600
C 	C 	0.17441 0.26265 0.47016 -0.09000
C 	C 	0.23536 0.28406 0.46550 0.10100
C 	C 	0.29205 0.26143 0.47930 -0.04500
C 	C 	0.28888 0.21803 0.49753 -0.09800
C 	C 	0.22841 0.19565 0.49906 0.11200
N 	N 	0.22507 0.15151 0.50958 -0.19900
H 	H 	0.12497 0.20210 0.48950 0.05000
H 	H 	0.33851 0.27829 0.47742 0.03400
N 	N 	0.23971 0.32654 0.44891 -0.19900
H 	H 	0.18009 0.13585 0.51339 0.08700
H 	H 	0.26674 0.13178 0.51088 0.10300
H 	H 	0.19845 0.34516 0.44065 0.08800
H 	H 	0.28498 0.34173 0.44482 0.08200
C 	C 	0.73334 0.24465 0.53333 -0.04300
C 	C 	0.67505 0.26868 0.53357 -0.09500
C 	C 	0.67442 0.31347 0.51789 0.10700
C 	C 	0.73106 0.33211 0.49850 -0.04400
C 	C 	0.78867 0.30734 0.49597 -0.09200
C 	C 	0.79022 0.26335 0.51425 0.09300
N 	N 	0.84541 0.23852 0.51247 -0.19800
H 	H 	0.73394 0.21067 0.54644 0.03700
H 	H 	0.73032 0.36608 0.48540 0.05100
N 	N 	0.62017 0.33896 0.52224 -0.20000
H 	H 	0.84602 0.20620 0.52629 0.07000
H 	H 	0.88797 0.25069 0.49707 0.05900
H 	H 	0.57924 0.32749 0.54044 0.08900
H 	H 	0.61944 0.37148 0.50900 0.08000
C 	C 	0.26763 0.26816 0.98464 -0.02200
C 	C 	0.30576 0.24558 0.01825 -0.11500
C 	C 	0.28504 0.20380 0.03615 0.11900
C 	C 	0.22554 0.18607 0.02074 -0.06300
C 	C 	0.18814 0.20830 0.98634 -0.07100
C 	C 	0.20865 0.25016 0.96878 0.09000
N 	N 	0.17160 0.27348 0.93724 -0.19700
H 	H 	0.28357 0.30019 0.97113 0.03700
H 	H 	0.20975 0.15392 0.03397 0.05600
N 	N 	0.32292 0.17984 0.06659 -0.20200
H 	H 	0.18795 0.30381 0.92349 0.08300
H 	H 	0.12581 0.26229 0.92682 0.07500
H 	H 	0.37004 0.18980 0.07505 0.08900
H 	H 	0.30623 0.14975 0.08074 0.08300
C 	C 	0.80822 0.29426 0.97534 -0.04500
C 	C 	0.80520 0.25043 0.95833 -0.09400
C 	C 	0.74456 0.22842 0.95538 0.10300
C 	C 	0.68840 0.25028 0.97139 -0.04900
C 	C 	0.69187 0.29348 0.99015 -0.08500
C 	C 	0.75173 0.31658 0.98978 0.11400
N 	N 	0.75486 0.36049 0.00143 -0.20400
H 	H 	0.85449 0.31142 0.97632 0.04200
H 	H 	0.64218 0.23303 0.97072 0.03600
N 	N 	0.74007 0.18614 0.93820 -0.19800
H 	H 	0.79966 0.37666 0.00351 0.07500
H 	H 	0.71291 0.37957 0.00567 0.09700
H 	H 	0.78099 0.16845 0.92717 0.08100
H 	H 	0.69501 0.17033 0.93595 0.07900
C 	C 	0.17741 0.19632 0.72178 -0.04700
C 	C 	0.18283 0.19304 0.77167 -0.09900
C 	C 	0.24427 0.19854 0.79343 0.10900
C 	C 	0.30018 0.19833 0.76483 -0.04600
C 	C 	0.29500 0.19678 0.71481 -0.10400
C 	C 	0.23311 0.20037 0.69329 0.11100
N 	N 	0.22704 0.20930 0.64585 -0.19900
H 	H 	0.13000 0.19505 0.70503 0.03900
H 	H 	0.34764 0.19854 0.78156 0.03400
N 	N 	0.24954 0.20569 0.84125 -0.19900
H 	H 	0.18143 0.20900 0.62952 0.08800
H 	H 	0.26677 0.21992 0.62573 0.10100
H 	H 	0.20878 0.21300 0.86193 0.10200
H 	H 	0.29513 0.20728 0.85754 0.08700
C 	C 	0.79720 0.13064 0.71434 -0.04500
C 	C 	0.80030 0.12912 0.76449 -0.10000
C 	C 	0.74253 0.12376 0.79114 0.10600
C 	C 	0.68243 0.12754 0.76795 -0.04600
C 	C 	0.67934 0.13334 0.71815 -0.09600
C 	C 	0.73703 0.13106 0.69083 0.10200
N 	N 	0.73491 0.12797 0.64233 -0.19700
H 	H 	0.84157 0.13241 0.69360 0.03500
H 	H 	0.63813 0.12686 0.78883 0.04300
N 	N 	0.74449 0.11397 0.83860 -0.19800
H 	H 	0.77765 0.12899 0.62225 0.07400
H 	H 	0.69142 0.12165 0.62442 0.07900
H 	H 	0.78801 0.10553 0.85544 0.08100
H 	H 	0.70169 0.11220 0.85855 0.07800
C 	C 	0.73741 0.79047 0.47809 -0.04200
C 	C 	0.68194 0.76471 0.46951 -0.09600
C 	C 	0.68469 0.71790 0.47496 0.10800
C 	C 	0.74270 0.69795 0.49024 -0.04300
C 	C 	0.79784 0.72380 0.49987 -0.09000
C 	C 	0.79543 0.77053 0.49347 0.09500
N 	N 	0.84808 0.79650 0.50272 -0.19800
H 	H 	0.73526 0.82626 0.47328 0.03700
H 	H 	0.74483 0.66214 0.49490 0.05100
N 	N 	0.63214 0.69194 0.46543 -0.20000
H 	H 	0.84573 0.83095 0.49781 0.07200
H 	H 	0.89161 0.78297 0.51505 0.06100
H 	H 	0.58867 0.70550 0.45302 0.08700
H 	H 	0.63458 0.65745 0.46998 0.08000
C 	C 	0.23931 0.83161 0.50203 -0.04300
C 	C 	0.29681 0.80702 0.49724 -0.08800
C 	C 	0.29900 0.76232 0.51339 0.09800
C 	C 	0.24268 0.74269 0.53234 -0.04200
C 	C 	0.18434 0.76658 0.53463 -0.09100
C 	C 	0.18331 0.81207 0.52146 0.11200
N 	N 	0.12932 0.83734 0.52831 -0.19900
H 	H 	0.23819 0.86614 0.49076 0.05500
H 	H 	0.24366 0.70814 0.54356 0.04100
N 	N 	0.35426 0.73773 0.50969 -0.19800
H 	H 	0.12816 0.87044 0.51685 0.08800
H 	H 	0.08917 0.82507 0.54685 0.09800
H 	H 	0.39643 0.75070 0.49447 0.06600
H 	H 	0.35533 0.70485 0.52187 0.07800
C 	C 	0.53530 0.98085 0.51037 -0.04400
C 	C 	0.50761 0.97471 0.46496 -0.09500
C 	C 	0.48649 0.01232 0.43864 0.10500
C 	C 	0.48411 0.05407 0.46103 -0.04300
C 	C 	0.50625 0.05937 0.50800 -0.09500
C 	C 	0.53607 0.02320 0.53175 0.10000
N 	N 	0.56576 0.02893 0.57472 -0.20000
H 	H 	0.55413 0.95245 0.52985 0.04100
H 	H 	0.46395 0.08237 0.44208 0.04100
N 	N 	0.46970 0.00869 0.39180 -0.19700
H 	H 	0.58500 0.00168 0.59313 0.07800
H 	H 	0.57311 0.06064 0.58898 0.07400
H 	H 	0.47863 0.97959 0.37260 0.07600
H 	H 	0.45097 0.03608 0.37334 0.08000
C 	C 	0.74951 0.76982 0.01479 -0.05200
C 	C 	0.80522 0.74409 0.02257 -0.10000
C 	C 	0.80236 0.69729 0.01728 0.11100
C 	C 	0.74460 0.67744 0.00141 -0.07000
C 	C 	0.68957 0.70339 0.99165 -0.07500
C 	C 	0.69163 0.75000 0.99907 0.10400
N 	N 	0.63886 0.77599 0.99027 -0.19900
H 	H 	0.75158 0.80557 0.01995 0.04000
H 	H 	0.74256 0.64167 0.99639 0.06400
N 	N 	0.85440 0.67121 0.02793 -0.20200
H 	H 	0.64104 0.81037 0.99579 0.08200
H 	H 	0.59535 0.76257 0.97780 0.06700
H 	H 	0.89674 0.68455 0.04254 0.07800
H 	H 	0.85224 0.63679 0.02281 0.07300
C 	C 	0.24864 0.81475 0.98228 -0.04900
C 	C 	0.19275 0.78848 0.98713 -0.06900
C 	C 	0.19337 0.74373 0.97104 0.09600
C 	C 	0.25060 0.72597 0.95150 -0.03900
C 	C 	0.30734 0.75157 0.94912 -0.09500
C 	C 	0.30574 0.79691 0.96276 0.11500
N 	N 	0.35833 0.82363 0.95640 -0.20000
H 	H 	0.24759 0.84930 0.99351 0.06000
H 	H 	0.25173 0.69147 0.94009 0.04000
N 	N 	0.14009 0.71730 0.97555 -0.19600
H 	H 	0.35747 0.85668 0.96805 0.08600
H 	H 	0.39951 0.81245 0.93828 0.09200
H 	H 	0.09794 0.72851 0.99235 0.07900
H 	H 	0.14086 0.68456 0.96291 0.08500
C 	C 	0.97081 0.98737 0.03362 -0.03900
C 	C 	0.97508 0.95164 0.00156 -0.10500
C 	C 	0.97362 0.95994 0.95171 0.11400
C 	C 	0.97417 0.00405 0.93513 -0.06100
C 	C 	0.97721 0.03975 0.96732 -0.06900
C 	C 	0.97306 0.03148 0.01714 0.07700
N 	N 	0.97356 0.06546 0.04934 -0.19500
H 	H 	0.97003 0.98084 0.07177 0.02700
H 	H 	0.97539 0.01055 0.89699 0.03400
N 	N 	0.97345 0.92587 0.91964 -0.20100
H 	H 	0.97093 0.05884 0.08599 0.06900
H 	H 	0.97661 0.09862 0.03861 0.06200
H 	H 	0.97164 0.89272 0.93061 0.07600
H 	H 	0.97397 0.93240 0.88293 0.07300
C 	C 	0.25112 0.82671 0.19141 -0.04000
C 	C 	0.18829 0.83000 0.21035 -0.09800
C 	C 	0.17987 0.83318 0.26061 0.10200
C 	C 	0.23417 0.82960 0.29060 -0.04100
C 	C 	0.29712 0.83051 0.27156 -0.09800
C 	C 	0.30565 0.83053 0.22117 0.09800
N 	N 	0.36504 0.83707 0.20116 -0.19300
H 	H 	0.25769 0.82440 0.15300 0.05200
H 	H 	0.22753 0.82974 0.32909 0.05500
N 	N 	0.12102 0.84277 0.28006 -0.19300
H 	H 	0.37170 0.83251 0.16443 0.07500
H 	H 	0.40303 0.85123 0.22051 0.03900
H 	H 	0.08418 0.85725 0.25978 0.04700
H 	H 	0.11405 0.84045 0.31700 0.08300
C 	C 	0.70202 0.81906 0.23999 -0.04500
C 	C 	0.68388 0.85776 0.26448 -0.09700
C 	C 	0.72422 0.89586 0.26281 0.10600
C 	C 	0.78263 0.89414 0.23698 -0.04500
C 	C 	0.80115 0.85518 0.21286 -0.09700
C 	C 	0.76096 0.81697 0.21502 0.09900
N 	N 	0.77948 0.77789 0.19449 -0.19800
H 	H 	0.67090 0.78998 0.24141 0.03100
H 	H 	0.81343 0.92336 0.23525 0.04300
N 	N 	0.70696 0.93421 0.28538 -0.20000
H 	H 	0.74826 0.75048 0.19460 0.07900
H 	H 	0.82576 0.77364 0.18008 0.07500
H 	H 	0.66310 0.93704 0.30378 0.08900
H 	H 	0.73739 0.96202 0.28425 0.07700
