data_crystal

_cell_length_a 15.46950
_cell_length_b 14.84219
_cell_length_c 26.10882
_cell_angle_alpha 95.40655
_cell_angle_beta  95.40536
_cell_angle_gamma 126.65946

_symmetry_space_group_name_	'P 1'
_symmetry_space_group_name_H-M	'P 1'

loop_
_symmetry_equiv_pos_as_xyz
  x,y,z

loop_
_atom_site_label
_atom_site_type_symbol
_atom_site_fract_x
_atom_site_fract_y
_atom_site_fract_z
_atom_site_charge
N 	N 	0.03700 0.08241 0.47916 -0.12900
C 	C 	0.08290 0.02818 0.47580 0.11100
N 	N 	0.06333 0.13548 0.97417 -0.12600
C 	C 	0.10856 0.08088 0.97955 0.11200
C 	C 	0.92824 0.02236 0.47992 0.09100
S 	S 	0.40674 0.06617 0.24964 -0.05600
C 	C 	0.87789 0.08107 0.47785 -0.01400
C 	C 	0.78470 0.04119 0.49583 -0.15600
C 	C 	0.25079 0.04471 0.47415 -0.14400
C 	C 	0.90285 0.13458 0.96342 -0.00800
C 	C 	0.22806 0.14504 0.98780 -0.01400
C 	C 	0.95262 0.07537 0.96685 0.09200
H 	H 	0.43071 0.01816 0.80208 0.03800
H 	H 	0.81548 0.08411 0.94792 0.04100
H 	H 	0.26448 0.11260 0.00940 0.04800
O 	O 	0.63949 0.05461 0.50748 -0.37500
O 	O 	0.41392 0.06548 0.50636 -0.36700
C 	C 	0.20257 0.09561 0.47836 -0.01400
H 	H 	0.47099 0.13728 0.15291 0.04200
C 	C 	0.37091 0.11197 0.48694 0.30300
C 	C 	0.73051 0.09558 0.48965 0.30900
H 	H 	0.49177 0.10850 0.41490 0.17200
H 	H 	0.91923 0.15969 0.46234 0.03700
S 	S 	0.44672 0.11471 0.79053 -0.07000
H 	H 	0.45361 0.10205 0.68103 0.05000
Cu	Cu	0.57488 0.13770 0.51037 0.92800
Cu	Cu	0.67033 0.15299 0.40166 0.86900
O 	O 	0.56671 0.15583 0.43626 -0.64100
O 	O 	0.60543 0.15065 0.58475 -0.35500
O 	O 	0.60819 0.16443 0.33827 -0.42000
C 	C 	0.53733 0.16175 0.70250 -0.02100
H 	H 	0.25254 0.18840 0.48634 0.04600
O 	O 	0.76569 0.17545 0.46125 -0.44500
C 	C 	0.52550 0.19126 0.23662 0.03800
C 	C 	0.55753 0.18616 0.75727 0.03700
C 	C 	0.53405 0.20578 0.18463 -0.02100
H 	H 	0.55137 0.21814 0.93112 0.16200
C 	C 	0.59966 0.21725 0.61918 0.28600
O 	O 	0.43468 0.22022 0.48286 -0.39400
C 	C 	0.62412 0.21940 0.67521 -0.07100
C 	C 	0.29014 0.23466 0.96450 -0.13000
C 	C 	0.96035 0.24607 0.98445 -0.15800
O 	O 	0.66747 0.25069 0.09611 -0.43200
H 	H 	0.74680 0.96648 0.51423 0.09300
H 	H 	0.42163 0.98405 0.25029 0.04400
H 	H 	0.20128 0.95202 0.46606 0.09100
H 	H 	0.04633 0.29553 0.00248 0.09500
N 	N 	0.04325 0.96655 0.97801 -0.12300
C 	C 	0.93255 0.90566 0.96947 0.10700
N 	N 	0.88734 0.96025 0.96394 -0.13200
N 	N 	0.01934 0.91307 0.47256 -0.12300
C 	C 	0.91087 0.85251 0.47371 0.10500
N 	N 	0.86496 0.90704 0.47712 -0.13000
Cu	Cu	0.77433 0.36806 0.94955 0.92400
Cu	Cu	0.79973 0.32018 0.06716 0.87400
Cu	Cu	0.61412 0.34713 0.01693 0.91100
Cu	Cu	0.59395 0.39787 0.91014 0.89700
C 	C 	0.68526 0.31949 0.84009 0.28800
O 	O 	0.86169 0.53652 0.94490 -0.36500
C 	C 	0.64254 0.31291 0.11907 0.28900
O 	O 	0.60836 0.30090 0.94504 -0.63800
O 	O 	0.76978 0.40282 0.02417 -0.63200
O 	O 	0.82372 0.27039 0.95536 -0.38100
O 	O 	0.92080 0.35180 0.03878 -0.43600
O 	O 	0.66100 0.38999 0.85013 -0.38000
O 	O 	0.46123 0.28308 0.00751 -0.38300
C 	C 	0.40753 0.28987 0.96748 0.30800
C 	C 	0.82775 0.59605 0.95978 0.29800
O 	O 	0.72695 0.54323 0.96768 -0.39700
O 	O 	0.45949 0.35969 0.93488 -0.39500
O 	O 	0.75009 0.31674 0.87555 -0.35700
C 	C 	0.90416 0.29725 0.99206 0.31100
O 	O 	0.62075 0.36890 0.09169 -0.37400
H 	H 	0.82189 0.48556 0.03917 0.15900
Cu	Cu	0.64110 0.32395 0.44582 0.89700
Cu	Cu	0.57053 0.34347 0.54646 0.89500
C 	C 	0.61621 0.25589 0.33143 0.29000
O 	O 	0.66204 0.31586 0.51808 -0.64100
O 	O 	0.54699 0.25808 0.60490 -0.38100
O 	O 	0.72154 0.48815 0.46000 -0.38600
C 	C 	0.70620 0.54616 0.49462 0.30500
O 	O 	0.63479 0.49559 0.52603 -0.39500
O 	O 	0.64685 0.33688 0.37151 -0.38600
H 	H 	0.73962 0.36629 0.53638 0.16400
C 	C 	0.66561 0.26887 0.78514 -0.07500
C 	C 	0.75328 0.31721 0.75806 -0.01700
C 	C 	0.73302 0.29295 0.70319 0.03200
S 	S 	0.84422 0.35943 0.66999 -0.05000
H 	H 	0.86718 0.45965 0.65952 0.02700
H 	H 	0.83684 0.37872 0.77950 0.04800
C 	C 	0.61032 0.27804 0.27780 -0.08000
C 	C 	0.69686 0.38280 0.26655 -0.02500
C 	C 	0.70459 0.39775 0.21460 0.03200
C 	C 	0.62500 0.30721 0.17334 -0.08400
S 	S 	0.81679 0.52841 0.20168 -0.06300
H 	H 	0.90040 0.52214 0.19626 0.01400
H 	H 	0.76093 0.45087 0.29812 0.04400
C 	C 	0.84245 0.72706 0.46719 -0.01900
C 	C 	0.76471 0.66991 0.49606 -0.12800
H 	H 	0.86310 0.68236 0.44213 0.05000
H 	H 	0.74714 0.71566 0.52260 0.07800
C 	C 	0.86101 0.78078 0.96676 -0.02000
C 	C 	0.90125 0.72140 0.96516 -0.13200
H 	H 	0.77354 0.73622 0.96461 0.04700
H 	H 	0.98799 0.76481 0.96547 0.07700
H 	H 	0.25255 0.26268 0.94021 0.08300
