data_crystal

_cell_length_a 22.26922
_cell_length_b 21.10482
_cell_length_c 49.37037
_cell_angle_alpha 89.85212
_cell_angle_beta  89.85642
_cell_angle_gamma 119.78352

_symmetry_space_group_name_	'P 1'
_symmetry_space_group_name_H-M	'P 1'

loop_
_symmetry_equiv_pos_as_xyz
  x,y,z

loop_
_atom_site_label
_atom_site_type_symbol
_atom_site_fract_x
_atom_site_fract_y
_atom_site_fract_z
_atom_site_charge
C 	C 	0.84619 0.44455 0.92586 0.29500
C 	C 	0.59285 0.36055 0.85890 0.30500
C 	C 	0.74300 0.53447 0.91530 0.30400
C 	C 	0.69591 0.26300 0.86660 0.28700
C 	C 	0.55736 0.34255 0.94933 0.32100
C 	C 	0.63954 0.23056 0.95440 0.29900
Ni	Ni	0.73665 0.41651 0.88117 1.11300
Ni	Ni	0.59793 0.27627 0.90495 1.12000
Ni	Ni	0.70419 0.39599 0.94567 1.12000
O 	O 	0.83117 0.46623 0.90257 -0.37300
O 	O 	0.79756 0.40237 0.94361 -0.38800
O 	O 	0.54277 0.28169 0.93673 -0.38900
O 	O 	0.65759 0.38251 0.85254 -0.36600
O 	O 	0.57094 0.34029 0.88374 -0.38400
O 	O 	0.65933 0.29640 0.96514 -0.38700
O 	O 	0.71361 0.49530 0.89382 -0.37700
O 	O 	0.75679 0.50508 0.93623 -0.37700
O 	O 	0.62445 0.21667 0.92834 -0.39200
O 	O 	0.74817 0.33125 0.86640 -0.37000
O 	O 	0.63120 0.24846 0.87058 -0.37600
O 	O 	0.61726 0.40142 0.94566 -0.39700
O 	O 	0.68923 0.35502 0.91060 -0.71500
H 	H 	0.71486 0.32835 0.91236 0.16000
C 	C 	0.84992 0.46472 0.56095 0.29300
C 	C 	0.57102 0.22018 0.55766 0.31800
C 	C 	0.67141 0.45728 0.54443 0.31600
C 	C 	0.73488 0.22700 0.57707 0.28300
C 	C 	0.59722 0.37368 0.62331 0.30500
C 	C 	0.76656 0.39386 0.64524 0.29200
Ni	Ni	0.71017 0.34078 0.54747 1.11200
Ni	Ni	0.65434 0.28037 0.60829 1.12100
Ni	Ni	0.73521 0.45253 0.59676 1.12100
O 	O 	0.81656 0.40448 0.54642 -0.37500
O 	O 	0.81774 0.49922 0.57037 -0.37400
O 	O 	0.58380 0.31232 0.61158 -0.39100
O 	O 	0.60389 0.28687 0.54854 -0.39600
O 	O 	0.58983 0.20446 0.58086 -0.37600
O 	O 	0.79317 0.44276 0.62544 -0.39400
O 	O 	0.70985 0.43341 0.53325 -0.38000
O 	O 	0.67230 0.46673 0.57074 -0.38600
O 	O 	0.70505 0.33288 0.64303 -0.37500
O 	O 	0.71175 0.24319 0.55468 -0.37200
O 	O 	0.71696 0.23759 0.60171 -0.37500
O 	O 	0.66127 0.42823 0.62535 -0.38200
O 	O 	0.71372 0.35814 0.58473 -0.71700
H 	H 	0.75752 0.35974 0.58912 0.15300
C 	C 	0.94329 0.03706 0.68065 0.30000
C 	C 	0.95038 0.91705 0.78662 0.30400
C 	C 	0.93844 0.10061 0.75304 0.29700
C 	C 	0.95490 0.83806 0.71930 0.28000
C 	C 	0.14616 0.11638 0.76859 0.30900
C 	C 	0.15919 0.07586 0.70078 0.29300
Ni	Ni	0.91451 0.95581 0.73327 1.10700
Ni	Ni	0.06477 0.97218 0.74553 1.11600
Ni	Ni	0.05581 0.10895 0.72269 1.12300
O 	O 	0.90614 0.97177 0.69218 -0.38200
O 	O 	0.98105 0.09637 0.69553 -0.37900
O 	O 	0.09961 0.04884 0.77415 -0.38500
O 	O 	0.92295 0.95239 0.77494 -0.38200
O 	O 	0.99362 0.90296 0.77319 -0.38500
O 	O 	0.11203 0.09422 0.69443 -0.38400
O 	O 	0.89719 0.04334 0.73856 -0.36700
O 	O 	0.00499 0.12393 0.75381 -0.36800
O 	O 	0.15040 0.02976 0.72117 -0.37200
O 	O 	0.90747 0.85297 0.72925 -0.37100
O 	O 	0.02227 0.88620 0.71991 -0.36900
O 	O 	0.14029 0.14947 0.74692 -0.38400
O 	O 	0.01068 0.00601 0.72788 -0.69700
H 	H 	0.01264 0.98972 0.70938 0.15300
C 	C 	0.23111 0.77947 0.41094 0.29000
C 	C 	0.39357 0.63244 0.44027 0.31900
C 	C 	0.41291 0.84534 0.41347 0.32100
C 	C 	0.20375 0.55678 0.44874 0.30400
C 	C 	0.39147 0.67307 0.35391 0.31000
C 	C 	0.19667 0.58967 0.35564 0.28800
Ni	Ni	0.31230 0.71155 0.43888 1.11200
Ni	Ni	0.29020 0.58576 0.39685 1.12100
Ni	Ni	0.31148 0.73797 0.37427 1.12100
O 	O 	0.27145 0.78164 0.43135 -0.36800
O 	O 	0.23329 0.75358 0.38666 -0.37900
O 	O 	0.33958 0.60861 0.36068 -0.38200
O 	O 	0.35541 0.65125 0.45477 -0.38200
O 	O 	0.38419 0.62309 0.41408 -0.38700
O 	O 	0.24875 0.65553 0.34863 -0.37800
O 	O 	0.40807 0.78712 0.42439 -0.39100
O 	O 	0.37558 0.83763 0.39182 -0.37700
O 	O 	0.20209 0.55171 0.37616 -0.38300
O 	O 	0.21835 0.62542 0.45076 -0.38400
O 	O 	0.23996 0.53701 0.43264 -0.37900
O 	O 	0.39587 0.73300 0.36369 -0.38700
O 	O 	0.28738 0.67248 0.40426 -0.71700
H 	H 	0.23700 0.65299 0.40495 0.16500
C 	C 	0.41511 0.53998 0.09196 0.30400
C 	C 	0.19526 0.59671 0.13699 0.31000
C 	C 	0.22880 0.45267 0.07970 0.30800
C 	C 	0.38589 0.69710 0.15266 0.28600
C 	C 	0.23926 0.64708 0.04922 0.32400
C 	C 	0.42145 0.76899 0.06317 0.30200
Ni	Ni	0.30209 0.55206 0.12557 1.11400
Ni	Ni	0.30904 0.69946 0.10248 1.11800
Ni	Ni	0.34010 0.60099 0.06250 1.12000
O 	O 	0.36598 0.51188 0.11109 -0.37400
O 	O 	0.42217 0.59342 0.07562 -0.38500
O 	O 	0.27289 0.70375 0.06525 -0.40000
O 	O 	0.23395 0.57272 0.14785 -0.37100
O 	O 	0.21040 0.62712 0.11298 -0.38800
O 	O 	0.40036 0.70698 0.04922 -0.38600
O 	O 	0.21948 0.47858 0.10241 -0.37500
O 	O 	0.28680 0.48966 0.06593 -0.37900
O 	O 	0.40441 0.76880 0.08888 -0.39300
O 	O 	0.37691 0.63017 0.15045 -0.37000
O 	O 	0.34059 0.71422 0.14219 -0.37500
O 	O 	0.25120 0.59224 0.04965 -0.39500
O 	O 	0.33273 0.62528 0.09880 -0.71800
H 	H 	0.38230 0.65316 0.10326 0.16400
C 	C 	0.04169 0.16664 0.26077 0.30900
C 	C 	0.06730 0.91217 0.22508 0.30700
C 	C 	0.04413 0.08164 0.19008 0.30700
C 	C 	0.04799 0.97033 0.29724 0.27600
C 	C 	0.84606 0.89245 0.20996 0.30500
C 	C 	0.83310 0.92536 0.27180 0.28700
Ni	Ni	0.08451 0.05406 0.24489 1.11600
Ni	Ni	0.94327 0.89771 0.25265 1.11400
Ni	Ni	0.93372 0.03712 0.23130 1.12100
O 	O 	0.08869 0.15524 0.24858 -0.37100
O 	O 	0.97450 0.12303 0.25688 -0.38800
O 	O 	0.86447 0.85475 0.22579 -0.38700
O 	O 	0.10475 0.96838 0.24061 -0.37400
O 	O 	0.00028 0.88554 0.22318 -0.37600
O 	O 	0.85099 0.98490 0.25674 -0.38400
O 	O 	0.08377 0.06162 0.20288 -0.36700
O 	O 	0.00631 0.10250 0.20379 -0.37400
O 	O 	0.87857 0.90527 0.27925 -0.39300
O 	O 	0.08716 0.03618 0.28633 -0.35900
O 	O 	0.01437 0.91154 0.28172 -0.36700
O 	O 	0.89058 0.95982 0.20309 -0.40500
O 	O 	0.98704 0.00093 0.24805 -0.71700
H 	H 	0.98203 0.01471 0.26662 0.15100
C 	C 	0.08645 0.25118 0.08846 -0.00800
C 	C 	0.03650 0.20357 0.10696 -0.03100
C 	C 	0.04866 0.15290 0.12075 0.00500
C 	C 	0.11070 0.15194 0.11653 0.00400
C 	C 	0.16400 0.20536 0.10059 -0.05700
C 	C 	0.15096 0.25454 0.08607 0.01900
S 	S 	0.09857 0.33349 0.08110 0.03600
C 	C 	0.18295 0.37534 0.07359 -0.07600
C 	C 	0.20476 0.32391 0.07727 -0.02100
S 	S 	0.12384 0.11326 0.14358 0.03000
C 	C 	0.05137 0.09296 0.16057 -0.07600
C 	C 	0.01516 0.11951 0.14550 0.00400
H 	H 	0.99247 0.20993 0.11215 0.03200
H 	H 	0.21557 0.21231 0.10124 0.04400
H 	H 	0.25887 0.33929 0.07830 0.04500
H 	H 	0.97246 0.12431 0.15374 0.03000
C 	C 	0.55804 0.84137 0.18580 -0.00000
C 	C 	0.62949 0.88700 0.18208 -0.05500
C 	C 	0.67417 0.87023 0.19638 0.01400
C 	C 	0.64753 0.80697 0.21229 0.00000
C 	C 	0.57683 0.75658 0.21318 -0.05400
C 	C 	0.53165 0.77547 0.20046 0.01600
S 	S 	0.49866 0.83144 0.16325 0.01800
C 	C 	0.43707 0.74725 0.17203 -0.06900
C 	C 	0.46350 0.72296 0.19287 -0.02000
S 	S 	0.70999 0.78726 0.21724 0.02500
C 	C 	0.77386 0.85915 0.20099 -0.08100
C 	C 	0.74554 0.90044 0.19031 -0.02200
H 	H 	0.64935 0.93112 0.16739 0.04400
H 	H 	0.55788 0.70310 0.22222 0.04700
H 	H 	0.43927 0.66630 0.19919 0.04600
H 	H 	0.77553 0.95115 0.17927 0.03700
C 	C 	0.14531 0.79236 0.20110 -0.00200
C 	C 	0.15864 0.73498 0.20509 -0.05300
C 	C 	0.13036 0.67698 0.18661 0.01600
C 	C 	0.08370 0.67357 0.16664 -0.00000
C 	C 	0.06817 0.72989 0.16355 -0.05500
C 	C 	0.09855 0.78880 0.18146 0.01700
S 	S 	0.15245 0.85194 0.22455 0.02700
C 	C 	0.10055 0.87833 0.21001 -0.07600
C 	C 	0.07279 0.83698 0.18645 -0.01800
S 	S 	0.08815 0.62548 0.14099 0.02500
C 	C 	0.14544 0.60457 0.15405 -0.07800
C 	C 	0.16391 0.63701 0.17972 -0.01800
H 	H 	0.19368 0.73771 0.22081 0.04700
H 	H 	0.03398 0.72806 0.14762 0.04800
H 	H 	0.02968 0.83480 0.17553 0.05000
H 	H 	0.20912 0.64371 0.19043 0.04900
C 	C 	0.63379 0.82376 0.27995 -0.00100
C 	C 	0.56682 0.81029 0.28520 -0.05400
C 	C 	0.52098 0.74512 0.29850 0.01500
C 	C 	0.54370 0.69721 0.30753 -0.00100
C 	C 	0.61341 0.71610 0.30550 -0.05500
C 	C 	0.65805 0.77918 0.29078 0.01500
S 	S 	0.70140 0.90560 0.27409 0.02300
C 	C 	0.76355 0.88774 0.28378 -0.07100
C 	C 	0.73119 0.81473 0.29253 -0.02300
S 	S 	0.49068 0.64591 0.33222 0.02400
C 	C 	0.43588 0.67836 0.33115 -0.07600
C 	C 	0.46028 0.73446 0.31183 -0.01600
H 	H 	0.55207 0.85088 0.28051 0.04500
H 	H 	0.63297 0.68546 0.31635 0.04500
H 	H 	0.75917 0.78793 0.29940 0.04100
H 	H 	0.44117 0.77258 0.31025 0.03700
C 	C 	0.05369 0.43003 0.31505 -0.00600
C 	C 	0.01952 0.35377 0.31323 -0.03200
C 	C 	0.03590 0.32251 0.29149 0.00500
C 	C 	0.08628 0.36691 0.27242 0.00500
C 	C 	0.12616 0.44236 0.27605 -0.05600
C 	C 	0.10877 0.47412 0.29741 0.02100
S 	S 	0.06851 0.47413 0.34421 0.02700
C 	C 	0.14174 0.55006 0.33584 -0.06900
C 	C 	0.15741 0.54194 0.30896 -0.02100
S 	S 	0.11465 0.31644 0.25728 0.03100
C 	C 	0.06430 0.23759 0.27343 -0.08100
C 	C 	0.02264 0.24951 0.29171 0.00500
H 	H 	0.98598 0.31999 0.32948 0.03200
H 	H 	0.17259 0.47443 0.26411 0.04800
H 	H 	0.20804 0.57655 0.30007 0.04800
H 	H 	0.98427 0.20722 0.30469 0.03200
C 	C 	0.17024 0.91994 0.39707 0.00300
C 	C 	0.17411 0.97326 0.37902 -0.06900
C 	C 	0.11377 0.95923 0.36518 0.02500
C 	C 	0.05260 0.89190 0.36857 -0.00300
C 	C 	0.05249 0.83457 0.38297 -0.05200
C 	C 	0.11173 0.84974 0.39783 0.01500
S 	S 	0.23783 0.91234 0.40666 0.02200
C 	C 	0.19647 0.82272 0.41336 -0.06800
C 	C 	0.12656 0.79491 0.40676 -0.02100
S 	S 	0.00203 0.88037 0.34223 0.02600
C 	C 	0.05254 0.95993 0.32648 -0.06300
C 	C 	0.11398 0.99754 0.34139 -0.03500
H 	H 	0.22312 0.02186 0.37470 0.05600
H 	H 	0.00956 0.77929 0.38135 0.04700
H 	H 	0.09069 0.73708 0.40439 0.04200
H 	H 	0.16028 0.04416 0.33343 0.05500
C 	C 	0.42997 0.90734 0.43173 -0.12600
C 	C 	0.47448 0.98079 0.42380 0.12600
C 	C 	0.49145 0.03690 0.44278 -0.09400
C 	C 	0.46425 0.02041 0.46921 0.01400
C 	C 	0.41508 0.94796 0.47612 0.04300
C 	C 	0.40201 0.89192 0.45807 -0.00200
N 	N 	0.50319 0.99766 0.39860 -0.21000
H 	H 	0.52838 0.09291 0.43739 0.05600
C 	C 	0.49614 0.07582 0.49069 -0.00200
N 	N 	0.38148 0.93179 0.50040 -0.18800
H 	H 	0.37001 0.83577 0.46461 -0.00100
C 	C 	0.47100 0.12400 0.49530 -0.09800
C 	C 	0.48807 0.16557 0.51912 0.12900
C 	C 	0.53376 0.16132 0.53796 -0.11900
C 	C 	0.55660 0.11100 0.53377 -0.02300
C 	C 	0.54108 0.07093 0.50973 0.06300
H 	H 	0.43531 0.12640 0.48100 0.05800
N 	N 	0.45910 0.20791 0.52415 -0.20400
H 	H 	0.59087 0.10694 0.54836 0.05600
N 	N 	0.56999 0.02839 0.50488 -0.19200
H 	H 	0.42768 0.21329 0.50970 0.08600
H 	H 	0.46505 0.23325 0.54288 0.09500
H 	H 	0.60115 0.02302 0.51946 0.08700
H 	H 	0.56407 0.00257 0.48627 0.09100
H 	H 	0.34744 0.87757 0.50587 0.08000
H 	H 	0.38642 0.97282 0.51352 0.08500
H 	H 	0.49459 0.95719 0.38455 0.09700
H 	H 	0.53558 0.05210 0.39294 0.09100
C 	C 	0.92551 0.49990 0.56204 -0.09900
C 	C 	0.95529 0.45918 0.57217 0.10800
C 	C 	0.01150 0.46152 0.55840 -0.07700
C 	C 	0.04202 0.50958 0.53655 -0.00600
C 	C 	0.02335 0.56359 0.53146 0.07900
C 	C 	0.96440 0.55794 0.54422 -0.04100
N 	N 	0.92739 0.41464 0.59401 -0.20300
H 	H 	0.02864 0.42310 0.56361 0.05400
C 	C 	0.08024 0.49287 0.51583 0.00100
N 	N 	0.06028 0.61906 0.51373 -0.19500
H 	H 	0.94486 0.59368 0.53809 0.04700
C 	C 	0.04827 0.46418 0.49087 -0.08000
C 	C 	0.08854 0.47107 0.46796 0.12400
C 	C 	0.16109 0.50699 0.47033 -0.10700
C 	C 	0.19028 0.51845 0.49625 -0.02300
C 	C 	0.15106 0.51495 0.51910 0.06000
H 	H 	0.99290 0.44182 0.48884 0.04700
N 	N 	0.05783 0.44682 0.44352 -0.20400
H 	H 	0.24559 0.54014 0.49821 0.04700
N 	N 	0.18216 0.53563 0.54369 -0.19300
H 	H 	0.00419 0.42279 0.44157 0.09000
H 	H 	0.08695 0.44978 0.42644 0.09600
H 	H 	0.23488 0.55336 0.54571 0.08300
H 	H 	0.15438 0.53348 0.56104 0.08700
H 	H 	0.04461 0.65706 0.50919 0.08800
H 	H 	0.10621 0.62644 0.50509 0.09300
H 	H 	0.88598 0.41283 0.60463 0.09100
H 	H 	0.94877 0.38358 0.60121 0.08200
C 	C 	0.63134 0.47996 0.52714 -0.11500
C 	C 	0.56044 0.45501 0.53246 0.13200
C 	C 	0.52630 0.48494 0.51792 -0.09900
C 	C 	0.56012 0.53550 0.49701 0.00200
C 	C 	0.63007 0.55796 0.49080 0.05700
C 	C 	0.66516 0.53034 0.50613 -0.02000
N 	N 	0.52431 0.40073 0.55077 -0.20500
H 	H 	0.47245 0.46705 0.52232 0.05800
C 	C 	0.52074 0.56228 0.48112 0.00200
N 	N 	0.66367 0.60562 0.47017 -0.19200
H 	H 	0.71922 0.54889 0.50190 0.04500
C 	C 	0.52601 0.62936 0.48791 -0.09900
C 	C 	0.48770 0.65532 0.47383 0.13000
C 	C 	0.43963 0.61072 0.45390 -0.11400
C 	C 	0.43474 0.54381 0.44704 -0.01800
C 	C 	0.47574 0.51974 0.46009 0.05800
H 	H 	0.56119 0.66222 0.50380 0.05700
N 	N 	0.49925 0.72386 0.47883 -0.20500
H 	H 	0.39861 0.51011 0.43153 0.03800
N 	N 	0.47189 0.45603 0.45226 -0.19200
H 	H 	0.53231 0.75490 0.49446 0.08400
H 	H 	0.47891 0.74856 0.46639 0.09600
H 	H 	0.43746 0.42427 0.43709 0.08300
H 	H 	0.50389 0.43815 0.46064 0.08800
H 	H 	0.71539 0.62215 0.46586 0.08200
H 	H 	0.63890 0.62624 0.45808 0.08800
H 	H 	0.54589 0.37210 0.55992 0.10500
H 	H 	0.47260 0.38419 0.55507 0.08500
C 	C 	0.91889 0.11167 0.61136 0.00500
C 	C 	0.91600 0.16802 0.59743 -0.05800
C 	C 	0.85298 0.15253 0.58558 0.02000
C 	C 	0.79385 0.08366 0.58925 -0.00600
C 	C 	0.79452 0.03162 0.60672 -0.03500
C 	C 	0.85845 0.04525 0.61710 0.00500
S 	S 	0.97680 0.12472 0.63503 0.01900
C 	C 	0.93040 0.04644 0.65213 -0.07600
C 	C 	0.86487 0.00845 0.64009 0.00100
S 	S 	0.72489 0.09253 0.58349 0.02400
C 	C 	0.76625 0.18066 0.57448 -0.06800
C 	C 	0.83742 0.20728 0.57735 -0.02500
H 	H 	0.95998 0.22291 0.59716 0.04300
H 	H 	0.74669 0.98430 0.61320 0.03300
H 	H 	0.82093 0.96277 0.64978 0.03300
H 	H 	0.87528 0.26492 0.57722 0.03700
C 	C 	0.44445 0.32334 0.67237 0.00100
C 	C 	0.40205 0.27302 0.69222 -0.05500
C 	C 	0.33252 0.22559 0.68570 0.01900
C 	C 	0.30819 0.22590 0.65969 -0.00200
C 	C 	0.35276 0.26790 0.63880 -0.05200
C 	C 	0.42118 0.31905 0.64560 0.01400
S 	S 	0.52999 0.36099 0.67121 0.02500
C 	C 	0.54147 0.37685 0.63782 -0.07500
C 	C 	0.47565 0.34956 0.62628 -0.01700
S 	S 	0.23365 0.14938 0.65577 0.03100
C 	C 	0.22650 0.11449 0.68702 -0.06800
C 	C 	0.28676 0.16326 0.70121 -0.02200
H 	H 	0.42318 0.26854 0.71141 0.04900
H 	H 	0.33588 0.25888 0.61790 0.04500
H 	H 	0.46668 0.33991 0.60475 0.03900
H 	H 	0.29453 0.15704 0.72249 0.04700
C 	C 	0.93845 0.64609 0.70916 -0.00000
C 	C 	0.94058 0.58949 0.69531 -0.05500
C 	C 	0.88147 0.51975 0.69589 0.01700
C 	C 	0.82172 0.50806 0.70997 -0.00200
C 	C 	0.81721 0.56674 0.72096 -0.05400
C 	C 	0.87635 0.63614 0.72044 0.01600
S 	S 	0.98701 0.73407 0.70110 0.01700
C 	C 	0.93268 0.76235 0.71150 -0.06700
C 	C 	0.87358 0.70174 0.72216 -0.02100
S 	S 	0.75491 0.43658 0.69592 0.03000
C 	C 	0.79669 0.41677 0.67224 -0.07100
C 	C 	0.86749 0.46754 0.67521 -0.02100
H 	H 	0.98434 0.60069 0.68247 0.04400
H 	H 	0.76767 0.55987 0.72728 0.04700
H 	H 	0.82980 0.70444 0.73043 0.04600
H 	H 	0.90528 0.47554 0.65973 0.04200
C 	C 	0.91883 0.48180 0.93500 -0.09800
C 	C 	0.94399 0.44427 0.95092 0.10800
C 	C 	0.00159 0.48411 0.96764 -0.07500
C 	C 	0.03574 0.56066 0.96787 -0.00900
C 	C 	0.01577 0.59819 0.94941 0.07800
C 	C 	0.95819 0.55809 0.93270 -0.04300
N 	N 	0.91372 0.37031 0.94991 -0.20000
H 	H 	0.01919 0.45550 0.98083 0.05700
C 	C 	0.09050 0.60047 0.98821 0.00900
N 	N 	0.05030 0.67242 0.94812 -0.19500
H 	H 	0.94149 0.58666 0.91916 0.05200
C 	C 	0.15980 0.62723 0.98084 -0.10200
C 	C 	0.21170 0.65337 0.00062 0.13200
C 	C 	0.19319 0.64846 0.02828 -0.11700
C 	C 	0.12511 0.62858 0.03539 -0.01500
C 	C 	0.07347 0.60520 0.01551 0.05700
H 	H 	0.17318 0.62647 0.95976 0.05800
N 	N 	0.27908 0.68283 0.99301 -0.20700
H 	H 	0.11149 0.62748 0.05657 0.04500
N 	N 	0.00776 0.58669 0.02276 -0.17800
H 	H 	0.29232 0.68361 0.97264 0.08400
H 	H 	0.31897 0.70820 0.00708 0.09500
H 	H 	0.99517 0.58818 0.04307 0.07400
H 	H 	0.96915 0.57290 0.00828 0.07900
H 	H 	0.03452 0.69955 0.93465 0.08700
H 	H 	0.09307 0.70395 0.96034 0.08900
H 	H 	0.87552 0.34012 0.93566 0.09100
H 	H 	0.93053 0.34256 0.96260 0.08200
C 	C 	0.46333 0.84024 0.04912 -0.10800
C 	C 	0.45496 0.90125 0.05518 0.12800
C 	C 	0.50027 0.96941 0.04358 -0.10600
C 	C 	0.54524 0.97539 0.02261 -0.00500
C 	C 	0.55381 0.91486 0.01635 0.05800
C 	C 	0.51346 0.84809 0.03001 -0.02500
N 	N 	0.40057 0.89364 0.07027 -0.20200
H 	H 	0.49460 0.01620 0.04856 0.06500
C 	C 	0.57123 0.03913 0.00402 0.00700
N 	N 	0.60020 0.92030 0.99721 -0.19200
H 	H 	0.52085 0.80211 0.02559 0.04500
C 	C 	0.63801 0.09887 0.00770 -0.09900
C 	C 	0.66209 0.16220 0.99160 0.12500
C 	C 	0.61665 0.16720 0.97275 -0.10600
C 	C 	0.54925 0.10825 0.96982 -0.02300
C 	C 	0.52699 0.04336 0.98446 0.06700
H 	H 	0.67168 0.09565 0.02280 0.05800
N 	N 	0.72890 0.21673 0.99393 -0.20500
H 	H 	0.51444 0.11220 0.95546 0.04500
N 	N 	0.46326 0.98516 0.97951 -0.19700
H 	H 	0.76144 0.21310 0.00831 0.08400
H 	H 	0.74987 0.26204 0.98104 0.09500
H 	H 	0.43011 0.98961 0.96566 0.08100
H 	H 	0.44681 0.93442 0.98860 0.08800
H 	H 	0.60510 0.87495 0.99225 0.08200
H 	H 	0.63270 0.96972 0.98745 0.08400
H 	H 	0.35618 0.84293 0.07282 0.08400
H 	H 	0.39901 0.93971 0.07701 0.08200
C 	C 	0.51555 0.33955 0.97280 -0.11800
C 	C 	0.47990 0.37920 0.97266 0.13300
C 	C 	0.46454 0.40103 0.99731 -0.09700
C 	C 	0.48505 0.38439 0.02194 0.00200
C 	C 	0.51314 0.33713 0.02213 0.05800
C 	C 	0.52599 0.31321 0.99742 -0.02300
N 	N 	0.46109 0.39713 0.94893 -0.20500
H 	H 	0.43973 0.43412 0.99730 0.05900
C 	C 	0.48301 0.42240 0.04677 0.00100
N 	N 	0.53017 0.31674 0.04576 -0.19200
H 	H 	0.54996 0.27932 0.99739 0.04800
C 	C 	0.42954 0.38515 0.06563 -0.10000
C 	C 	0.41869 0.42371 0.08635 0.13000
C 	C 	0.45282 0.50083 0.08492 -0.11000
C 	C 	0.51292 0.53712 0.06899 -0.02300
C 	C 	0.52890 0.49818 0.05001 0.05900
H 	H 	0.39742 0.32628 0.06451 0.05700
N 	N 	0.38018 0.38729 0.10836 -0.20300
H 	H 	0.54404 0.59613 0.06980 0.04600
N 	N 	0.58737 0.53371 0.03473 -0.19200
H 	H 	0.35108 0.33028 0.10840 0.08300
H 	H 	0.38482 0.41455 0.12652 0.09800
H 	H 	0.61958 0.59013 0.03650 0.08300
H 	H 	0.60275 0.50533 0.02176 0.08800
H 	H 	0.55132 0.28224 0.04560 0.08400
H 	H 	0.52281 0.33479 0.06447 0.08700
H 	H 	0.46842 0.37796 0.93043 0.10000
H 	H 	0.43675 0.42861 0.94887 0.08800
C 	C 	0.73719 0.14129 0.82073 0.00000
C 	C 	0.75294 0.13162 0.79411 -0.05400
C 	C 	0.82179 0.15306 0.78784 0.01800
C 	C 	0.87361 0.18682 0.80738 -0.00100
C 	C 	0.85781 0.19354 0.83420 -0.05300
C 	C 	0.78929 0.17393 0.84049 0.01700
S 	S 	0.67478 0.15926 0.82878 0.02800
C 	C 	0.70841 0.20472 0.85751 -0.07300
C 	C 	0.77245 0.20844 0.86134 -0.01900
S 	S 	0.94216 0.18153 0.79742 0.02900
C 	C 	0.91066 0.14058 0.76772 -0.07400
C 	C 	0.84232 0.12646 0.76543 -0.01900
H 	H 	0.71297 0.10828 0.77883 0.04800
H 	H 	0.89818 0.21776 0.84930 0.04600
H 	H 	0.81044 0.24555 0.87564 0.04100
H 	H 	0.80656 0.09076 0.75024 0.04800
C 	C 	0.42266 0.30780 0.82157 -0.00000
C 	C 	0.36904 0.30866 0.80716 -0.05300
C 	C 	0.32354 0.24523 0.79286 0.01300
C 	C 	0.33600 0.18600 0.79149 0.00200
C 	C 	0.39118 0.18681 0.80533 -0.05700
C 	C 	0.43590 0.24999 0.81959 0.01800
S 	S 	0.49280 0.37979 0.83369 0.02200
C 	C 	0.54195 0.34032 0.83727 -0.07400
C 	C 	0.50266 0.26764 0.82854 -0.02300
S 	S 	0.26132 0.11104 0.78529 0.01600
C 	C 	0.21157 0.14959 0.78341 -0.07600
C 	C 	0.25371 0.22493 0.78734 -0.01400
H 	H 	0.36024 0.35464 0.80846 0.04600
H 	H 	0.39907 0.14014 0.80491 0.04700
H 	H 	0.51995 0.22803 0.83022 0.04400
H 	H 	0.23433 0.26293 0.78750 0.04300
C 	C 	0.83451 0.77905 0.84234 -0.00100
C 	C 	0.78261 0.74210 0.86168 -0.05500
C 	C 	0.79863 0.71317 0.88438 0.01500
C 	C 	0.86716 0.72899 0.88881 -0.00000
C 	C 	0.91920 0.76680 0.86936 -0.05900
C 	C 	0.90213 0.79293 0.84619 0.01900
S 	S 	0.83577 0.83677 0.81916 0.01700
C 	C 	0.92092 0.87962 0.81246 -0.07000
C 	C 	0.95104 0.84848 0.82887 -0.03200
S 	S 	0.86359 0.66344 0.90851 0.01100
C 	C 	0.77782 0.61421 0.91288 -0.07500
C 	C 	0.74861 0.64910 0.89804 -0.02000
H 	H 	0.73052 0.73202 0.85837 0.04600
H 	H 	0.97098 0.77550 0.87221 0.04200
H 	H 	0.00563 0.86552 0.82852 0.05300
H 	H 	0.69399 0.62244 0.89324 0.04500
