data_crystal

_cell_length_a 26.18477
_cell_length_b 26.34452
_cell_length_c 32.28976
_cell_angle_alpha 95.50203
_cell_angle_beta  95.49943
_cell_angle_gamma 125.83081

_symmetry_space_group_name_	'P 1'
_symmetry_space_group_name_H-M	'P 1'

loop_
_symmetry_equiv_pos_as_xyz
  x,y,z

loop_
_atom_site_label
_atom_site_type_symbol
_atom_site_fract_x
_atom_site_fract_y
_atom_site_fract_z
_atom_site_charge
C 	C 	0.02876 0.10332 0.99659 0.13100
C 	C 	0.98827 0.03647 0.98791 -0.09000
C 	C 	0.01425 0.00279 0.98437 0.13000
C 	C 	0.08089 0.03609 0.99011 -0.05400
C 	C 	0.12153 0.10290 0.99850 0.12400
C 	C 	0.09549 0.13650 0.00273 -0.06300
H 	H 	0.93676 0.01076 0.98425 0.13400
H 	H 	0.10112 0.01009 0.98840 0.13400
H 	H 	0.12694 0.18814 0.01066 0.14100
C 	C 	0.87706 0.92765 0.44776 0.07100
C 	C 	0.84121 0.86101 0.43928 -0.00900
C 	C 	0.87223 0.83221 0.44299 0.07400
C 	C 	0.93917 0.87025 0.45505 0.00100
C 	C 	0.97519 0.93686 0.46276 0.03500
C 	C 	0.94409 0.96547 0.45882 0.02200
H 	H 	0.78942 0.83169 0.43018 0.13200
H 	H 	0.96319 0.84808 0.45810 0.12500
H 	H 	0.97197 0.01701 0.46422 0.09400
Cu	Cu	0.71085 0.32866 0.02946 0.93900
Cu	Cu	0.71873 0.28731 0.93186 0.91300
Cu	Cu	0.72643 0.40439 0.95924 0.91500
Cu	Cu	0.72372 0.45653 0.04719 0.94100
C 	C 	0.73894 0.39262 0.11397 0.27600
O 	O 	0.62311 0.29612 0.04127 -0.31400
C 	C 	0.67087 0.32878 0.87191 0.26500
O 	O 	0.75969 0.42250 0.01849 -0.63500
O 	O 	0.68088 0.31416 0.96785 -0.62300
O 	O 	0.74820 0.28086 0.02939 -0.28000
O 	O 	0.79270 0.31613 0.97161 -0.37400
O 	O 	0.74699 0.44435 0.10439 -0.26900
O 	O 	0.77568 0.49358 0.95517 -0.31000
C 	C 	0.78004 0.53727 0.98237 0.31500
C 	C 	0.59544 0.32256 0.03052 0.29800
O 	O 	0.62731 0.37574 0.01586 -0.31700
O 	O 	0.74318 0.52122 0.01116 -0.30400
O 	O 	0.74914 0.35862 0.08819 -0.31200
C 	C 	0.78763 0.28821 0.00410 0.29800
O 	O 	0.70791 0.38581 0.89668 -0.33900
O 	O 	0.66320 0.27894 0.88438 -0.33900
H 	H 	0.80712 0.44932 0.02550 0.22800
H 	H 	0.63374 0.28879 0.95919 0.20300
Cu	Cu	0.65151 0.24811 0.42981 0.94200
Cu	Cu	0.71661 0.24747 0.52436 0.91200
Cu	Cu	0.57801 0.21877 0.50234 0.92100
Cu	Cu	0.53129 0.25154 0.42399 0.92700
C 	C 	0.58722 0.23976 0.35012 0.25800
O 	O 	0.69338 0.34038 0.42552 -0.29200
C 	C 	0.65072 0.25638 0.58782 0.26900
O 	O 	0.55907 0.20478 0.44211 -0.63700
O 	O 	0.66876 0.26988 0.49265 -0.63000
O 	O 	0.67947 0.19222 0.42085 -0.29900
O 	O 	0.75774 0.24304 0.48032 -0.31900
O 	O 	0.53854 0.23508 0.36366 -0.30400
O 	O 	0.48875 0.17186 0.50696 -0.30000
C 	C 	0.44932 0.17947 0.48481 0.30400
C 	C 	0.67168 0.37085 0.44089 0.29100
O 	O 	0.61994 0.34085 0.45767 -0.32200
O 	O 	0.47177 0.22854 0.46532 -0.31800
O 	O 	0.61758 0.22051 0.37031 -0.28900
C 	C 	0.72581 0.19819 0.44628 0.29700
O 	O 	0.59639 0.21318 0.56131 -0.34000
O 	O 	0.70636 0.28109 0.57603 -0.32400
H 	H 	0.52895 0.15884 0.42938 0.23300
H 	H 	0.68952 0.31563 0.50265 0.23300
C 	C 	0.68032 0.31547 0.69712 0.13600
C 	C 	0.69695 0.36187 0.73186 -0.06600
C 	C 	0.65998 0.34252 0.76381 0.04100
C 	C 	0.61065 0.27913 0.76245 0.13900
C 	C 	0.59260 0.23317 0.72686 -0.06600
C 	C 	0.63016 0.25256 0.69538 0.03800
O 	O 	0.69673 0.33026 0.65802 -0.13900
C 	C 	0.64973 0.27049 0.63263 0.07100
C 	C 	0.61019 0.22388 0.65458 -0.04500
O 	O 	0.59920 0.26349 0.80212 -0.14500
C 	C 	0.64700 0.32308 0.82739 0.07200
C 	C 	0.68296 0.37048 0.80482 -0.04000
H 	H 	0.73670 0.41141 0.73370 0.11900
H 	H 	0.55319 0.18351 0.72505 0.11500
H 	H 	0.56396 0.17922 0.64098 0.10200
H 	H 	0.73143 0.41295 0.81708 0.09800
C 	C 	0.69803 0.37200 0.21500 0.14500
C 	C 	0.65287 0.36144 0.23998 -0.05900
C 	C 	0.62038 0.30494 0.25623 0.05100
C 	C 	0.63598 0.26330 0.25131 0.14200
C 	C 	0.68078 0.27349 0.22613 -0.05900
C 	C 	0.71241 0.32939 0.20910 0.04700
O 	O 	0.71193 0.40862 0.18375 -0.11500
C 	C 	0.73381 0.38239 0.15779 0.09000
C 	C 	0.73436 0.33520 0.17262 -0.03700
O 	O 	0.62194 0.22698 0.28281 -0.13000
C 	C 	0.59640 0.25099 0.30696 0.08500
C 	C 	0.59549 0.29754 0.29151 -0.03800
H 	H 	0.64138 0.39467 0.24495 0.14200
H 	H 	0.69214 0.24017 0.22115 0.12900
H 	H 	0.73212 0.29795 0.15298 0.11600
H 	H 	0.59553 0.33372 0.31062 0.09900
C 	C 	0.81035 0.66268 0.40154 0.06200
C 	C 	0.77609 0.63136 0.43274 0.08300
C 	C 	0.76871 0.66514 0.46557 -0.07000
C 	C 	0.80011 0.73092 0.46806 0.04100
C 	C 	0.83421 0.76204 0.43677 0.08700
C 	C 	0.83555 0.72666 0.40156 -0.09400
C 	C 	0.75127 0.56417 0.43210 0.10400
C 	C 	0.73160 0.63252 0.49976 0.78400
H 	H 	0.79940 0.75844 0.49489 0.14100
C 	C 	0.86591 0.75735 0.36481 0.78800
H 	H 	0.81727 0.63704 0.37723 0.12600
C 	C 	0.69323 0.51318 0.40499 -0.10100
C 	C 	0.67005 0.45014 0.40694 0.08000
C 	C 	0.70223 0.43739 0.43634 0.00400
C 	C 	0.76099 0.48825 0.46267 -0.04900
C 	C 	0.78585 0.55134 0.45930 0.03300
C 	C 	0.65739 0.52577 0.37282 0.78900
H 	H 	0.62622 0.41061 0.38604 0.07400
C 	C 	0.79602 0.47542 0.49523 0.77600
H 	H 	0.83128 0.59084 0.47871 0.13400
F 	F 	0.84472 0.71169 0.32905 -0.36700
F 	F 	0.93183 0.79252 0.37567 -0.40600
F 	F 	0.85007 0.79691 0.35449 -0.39200
F 	F 	0.76784 0.62348 0.52766 -0.38700
F 	F 	0.67410 0.57414 0.48213 -0.37300
F 	F 	0.71752 0.66889 0.52235 -0.36100
F 	F 	0.81215 0.43926 0.47514 -0.40600
F 	F 	0.75693 0.44276 0.52340 -0.42000
F 	F 	0.85188 0.53126 0.51819 -0.38000
F 	F 	0.59763 0.47043 0.35415 -0.39000
F 	F 	0.69228 0.55083 0.34126 -0.39800
F 	F 	0.64816 0.56831 0.39208 -0.36700
C 	C 	0.82092 0.13413 0.43050 0.03200
C 	C 	0.77474 0.06933 0.43094 0.10500
C 	C 	0.71045 0.04569 0.43202 -0.11900
C 	C 	0.69509 0.08872 0.43586 0.08300
C 	C 	0.74174 0.15373 0.43649 -0.00200
C 	C 	0.80414 0.17599 0.43082 -0.04800
C 	C 	0.79554 0.02796 0.43400 0.09300
C 	C 	0.65943 0.97586 0.43298 0.80900
H 	H 	0.64734 0.07211 0.43998 0.08400
C 	C 	0.85374 0.24469 0.42682 0.77800
H 	H 	0.87019 0.15202 0.43047 0.13400
C 	C 	0.80694 0.00343 0.39793 -0.10100
C 	C 	0.83275 0.96978 0.40315 0.07200
C 	C 	0.84464 0.95807 0.44307 0.07100
C 	C 	0.82963 0.97929 0.47860 -0.06000
C 	C 	0.80746 0.01617 0.47390 0.02300
C 	C 	0.79668 0.01737 0.35455 0.77500
H 	H 	0.84519 0.95391 0.37633 0.12400
C 	C 	0.84022 0.96539 0.52189 0.79600
H 	H 	0.80002 0.03648 0.50135 0.12600
F 	F 	0.82604 0.26521 0.40152 -0.38800
F 	F 	0.90258 0.25128 0.40856 -0.36900
F 	F 	0.88009 0.28314 0.46655 -0.38900
F 	F 	0.66758 0.96434 0.47306 -0.38900
F 	F 	0.66333 0.93673 0.40387 -0.35900
F 	F 	0.59840 0.95975 0.42313 -0.37000
F 	F 	0.90526 0.00039 0.53740 -0.39400
F 	F 	0.81232 0.90118 0.51897 -0.38300
F 	F 	0.81341 0.98117 0.55059 -0.36100
F 	F 	0.79621 0.97784 0.32274 -0.34800
F 	F 	0.84573 0.07985 0.35315 -0.38700
F 	F 	0.73865 0.00802 0.34620 -0.36900
C 	C 	0.14753 0.01808 0.51581 0.04400
C 	C 	0.18009 0.04549 0.48305 0.07500
C 	C 	0.14539 0.03891 0.44384 -0.05300
C 	C 	0.07825 0.00286 0.43797 -0.02400
C 	C 	0.04595 0.97670 0.47105 0.14600
C 	C 	0.08108 0.98683 0.51107 -0.07900
C 	C 	0.25018 0.07816 0.48934 0.11500
C 	C 	0.17911 0.06617 0.40723 0.77700
H 	H 	0.05069 0.99417 0.40739 0.16400
C 	C 	0.04772 0.96235 0.54821 0.78800
H 	H 	0.17420 0.02136 0.54506 0.13000
C 	C 	0.29440 0.14300 0.50940 -0.10000
C 	C 	0.36018 0.17435 0.50972 0.09000
C 	C 	0.38195 0.14235 0.49011 0.00600
C 	C 	0.33810 0.07649 0.47249 -0.04000
C 	C 	0.27259 0.04466 0.47345 0.00200
C 	C 	0.27173 0.17829 0.53120 0.79200
H 	H 	0.39461 0.22421 0.52435 0.10800
C 	C 	0.36090 0.04050 0.45204 0.75800
H 	H 	0.23837 0.99426 0.46019 0.16000
F 	F 	0.09131 0.98963 0.58607 -0.34800
F 	F 	0.01460 0.89699 0.54237 -0.38500
F 	F 	0.00526 0.97697 0.55168 -0.34700
F 	F 	0.19802 0.03052 0.39070 -0.39000
F 	F 	0.23243 0.12887 0.42069 -0.37500
F 	F 	0.13919 0.06504 0.37514 -0.36900
F 	F 	0.31041 0.97774 0.43465 -0.35400
F 	F 	0.40225 0.04054 0.48209 -0.41000
F 	F 	0.39245 0.06933 0.41994 -0.42100
F 	F 	0.32163 0.24204 0.54627 -0.37600
F 	F 	0.24529 0.15109 0.56516 -0.38900
F 	F 	0.22610 0.17508 0.50318 -0.36900
C 	C 	0.91003 0.71224 0.98619 0.03900
C 	C 	0.87350 0.73108 0.96932 0.09900
C 	C 	0.80779 0.68451 0.95109 -0.09100
C 	C 	0.77877 0.62034 0.95371 0.08800
C 	C 	0.81419 0.60240 0.97387 0.01200
C 	C 	0.88087 0.64810 0.98895 -0.04600
C 	C 	0.90418 0.80001 0.97227 0.09700
C 	C 	0.76910 0.70293 0.92811 0.79000
H 	H 	0.72817 0.58430 0.94100 0.10900
C 	C 	0.92031 0.62886 0.00941 0.76800
H 	H 	0.96077 0.74814 0.99856 0.13500
C 	C 	0.91222 0.83779 0.01027 -0.08600
C 	C 	0.94761 0.90412 0.01323 0.04500
C 	C 	0.97195 0.93254 0.97850 0.06300
C 	C 	0.95939 0.89410 0.93951 -0.07200
C 	C 	0.92879 0.82860 0.93762 0.04900
C 	C 	0.88777 0.80843 0.04880 0.78700
H 	H 	0.95784 0.93412 0.04294 0.11300
C 	C 	0.98122 0.92306 0.90051 0.76700
H 	H 	0.92419 0.79966 0.90921 0.13500
F 	F 	0.89950 0.60712 0.04606 -0.40900
F 	F 	0.98496 0.67936 0.01985 -0.37900
F 	F 	0.91335 0.58083 0.98177 -0.41000
F 	F 	0.79340 0.72570 0.89252 -0.38700
F 	F 	0.77216 0.74967 0.95437 -0.36300
F 	F 	0.70510 0.65148 0.91526 -0.37500
F 	F 	0.04641 0.95365 0.90406 -0.34600
F 	F 	0.96828 0.96643 0.89617 -0.34300
F 	F 	0.94985 0.87674 0.86402 -0.35400
F 	F 	0.88923 0.85030 0.07919 -0.36900
F 	F 	0.92586 0.79282 0.06664 -0.39000
F 	F 	0.82504 0.75410 0.03756 -0.37200
C 	C 	0.94884 0.18227 0.97273 0.07400
C 	C 	0.94114 0.19775 0.01328 0.06000
C 	C 	0.96411 0.18398 0.04877 -0.05500
C 	C 	0.99366 0.15398 0.04254 -0.01600
C 	C 	0.00130 0.13853 0.00197 0.10500
C 	C 	0.97966 0.15361 0.96668 -0.10600
C 	C 	0.90409 0.22348 0.01750 0.11500
C 	C 	0.95216 0.19587 0.09259 0.77600
H 	H 	0.00936 0.14101 0.06910 0.14000
C 	C 	0.98604 0.13587 0.92230 0.77500
H 	H 	0.92952 0.19157 0.94579 0.12000
C 	C 	0.93275 0.28875 0.01754 -0.12100
C 	C 	0.89375 0.30922 0.01495 0.08800
C 	C 	0.82728 0.26606 0.01249 -0.00100
C 	C 	0.79887 0.20102 0.01346 -0.05600
C 	C 	0.83808 0.18082 0.01677 0.02600
C 	C 	0.00366 0.33548 0.01630 0.80500
H 	H 	0.91474 0.35855 0.01343 0.09900
C 	C 	0.72698 0.15307 0.01101 0.77400
H 	H 	0.81705 0.13123 0.01727 0.13700
F 	F 	0.04880 0.15903 0.92152 -0.33600
F 	F 	0.96890 0.16102 0.89309 -0.37100
F 	F 	0.94666 0.07028 0.90992 -0.37300
F 	F 	0.88836 0.15063 0.09418 -0.39100
F 	F 	0.96689 0.25590 0.10183 -0.37100
F 	F 	0.98941 0.19206 0.12371 -0.37700
F 	F 	0.69365 0.15606 0.97659 -0.43100
F 	F 	0.71042 0.16619 0.04777 -0.39100
F 	F 	0.70798 0.09119 0.00648 -0.38300
F 	F 	0.02488 0.39798 0.02637 -0.36900
F 	F 	0.01373 0.32543 0.97604 -0.37900
F 	F 	0.04025 0.32779 0.04503 -0.36100
C 	C 	0.29314 0.19612 0.98043 0.05900
C 	C 	0.32395 0.19471 0.01778 0.08000
C 	C 	0.28887 0.16605 0.04989 -0.07800
C 	C 	0.22329 0.13937 0.04363 0.04900
C 	C 	0.19173 0.13744 0.00523 0.04800
C 	C 	0.22660 0.16502 0.97283 -0.06700
C 	C 	0.39353 0.22500 0.02332 0.10500
C 	C 	0.32177 0.16684 0.09167 0.78400
H 	H 	0.19627 0.11925 0.06844 0.11000
C 	C 	0.19395 0.16484 0.93123 0.78200
H 	H 	0.32117 0.22091 0.95706 0.13000
C 	C 	0.41651 0.19389 0.00306 -0.10500
C 	C 	0.48299 0.22705 0.00561 0.07600
C 	C 	0.52640 0.28848 0.03009 0.00500
C 	C 	0.50342 0.31724 0.05319 -0.05400
C 	C 	0.43708 0.28678 0.04730 0.03500
C 	C 	0.37046 0.12733 0.97625 0.79500
H 	H 	0.50112 0.20560 0.98793 0.09900
C 	C 	0.54932 0.38092 0.08332 0.77500
H 	H 	0.41906 0.31090 0.06154 0.13700
F 	F 	0.23312 0.18287 0.90132 -0.35900
F 	F 	0.17940 0.20725 0.93806 -0.36300
F 	F 	0.13820 0.10456 0.91455 -0.34700
F 	F 	0.35979 0.22791 0.11545 -0.39100
F 	F 	0.35953 0.14724 0.08468 -0.37700
F 	F 	0.27765 0.12641 0.11500 -0.37800
F 	F 	0.57780 0.42943 0.06035 -0.41300
F 	F 	0.59634 0.38201 0.10796 -0.42600
F 	F 	0.51766 0.39215 0.11044 -0.37200
F 	F 	0.40153 0.10057 0.96741 -0.38200
F 	F 	0.34388 0.13040 0.93834 -0.39300
F 	F 	0.32194 0.08735 0.99715 -0.37200
