data_crystal

_cell_length_a 20.12443
_cell_length_b 20.31289
_cell_length_c 20.14109
_cell_angle_alpha 89.91859
_cell_angle_beta  89.90036
_cell_angle_gamma 89.90037

_symmetry_space_group_name_	'P 1'
_symmetry_space_group_name_H-M	'P 1'

loop_
_symmetry_equiv_pos_as_xyz
  x,y,z

loop_
_atom_site_label
_atom_site_type_symbol
_atom_site_fract_x
_atom_site_fract_y
_atom_site_fract_z
_atom_site_charge
Co	Co	0.99402 0.02060 0.41796 1.18000
Co	Co	0.03384 0.94250 0.61553 1.20800
Co	Co	0.95238 0.05228 0.57209 1.19100
Co	Co	0.07524 0.91089 0.46232 1.20000
C 	C 	0.08277 0.08323 0.30980 0.30100
Co	Co	0.06704 0.93712 0.30268 1.18300
Co	Co	0.95626 0.02765 0.73075 1.15900
C 	C 	0.02556 0.80850 0.36377 0.28400
O 	O 	0.86463 0.06485 0.69925 -0.32300
O 	O 	0.99061 0.01094 0.63324 -0.79400
C 	C 	0.82997 0.03602 0.65214 0.31700
O 	O 	0.93534 0.07715 0.47621 -0.39600
O 	O 	0.08429 0.87937 0.55691 -0.41900
C 	C 	0.94439 0.88070 0.71495 0.28500
O 	O 	0.03641 0.99932 0.51933 -0.53200
C 	C 	0.98230 0.16304 0.67374 0.27600
C 	C 	0.92349 0.97481 0.29940 0.28700
C 	C 	0.19397 0.90935 0.37191 0.32200
O 	O 	0.85980 0.01575 0.59751 -0.36900
O 	O 	0.98071 0.98259 0.26898 -0.35800
O 	O 	0.92090 0.97345 0.36460 -0.35000
O 	O 	0.91667 0.93358 0.74114 -0.32700
O 	O 	0.96214 0.88019 0.65201 -0.36500
O 	O 	0.00041 0.11881 0.71826 -0.32900
O 	O 	0.96134 0.14657 0.61324 -0.30300
O 	O 	0.15291 0.88656 0.32730 -0.34400
O 	O 	0.17466 0.91596 0.43413 -0.33700
O 	O 	0.04929 0.96181 0.40218 -0.74500
C 	C 	0.10144 0.99510 0.73719 0.35800
O 	O 	0.04521 0.99331 0.77067 -0.35300
O 	O 	0.10880 0.95960 0.68307 -0.36300
O 	O 	0.11500 0.02689 0.30244 -0.37100
O 	O 	0.03547 0.09128 0.35553 -0.26600
O 	O 	0.01551 0.84964 0.31399 -0.35200
O 	O 	0.02412 0.82969 0.42601 -0.34000
Co	Co	0.97195 0.38572 0.04572 1.18500
Co	Co	0.02603 0.58468 0.98815 1.19600
Co	Co	0.92461 0.53559 0.07865 1.19400
Co	Co	0.07582 0.43640 0.95791 1.19500
C 	C 	0.91396 0.28394 0.95475 0.31100
Co	Co	0.06130 0.27865 0.96164 1.18600
Co	Co	0.92562 0.69291 0.05309 1.17000
C 	C 	0.19101 0.34473 0.99887 0.26100
O 	O 	0.96004 0.68768 0.14947 -0.38100
O 	O 	0.96491 0.59770 0.04209 -0.77900
C 	C 	0.95581 0.63515 0.18839 0.31200
O 	O 	0.90788 0.43986 0.10088 -0.41800
O 	O 	0.09527 0.53198 0.93891 -0.43400
C 	C 	0.07252 0.71722 0.03051 0.31200
O 	O 	0.01823 0.48668 0.04028 -0.52800
C 	C 	0.80420 0.61150 0.04716 0.29700
C 	C 	0.03131 0.26337 0.10564 0.33000
C 	C 	0.06423 0.35614 0.83750 0.30200
O 	O 	0.92059 0.58234 0.17120 -0.34000
O 	O 	0.02268 0.23643 0.04713 -0.36300
O 	O 	0.00603 0.32193 0.11871 -0.32200
O 	O 	0.01182 0.73940 0.02089 -0.37200
O 	O 	0.08530 0.65383 0.03250 -0.35500
O 	O 	0.83425 0.65592 0.08332 -0.35200
O 	O 	0.83666 0.55774 0.02997 -0.34800
O 	O 	0.09954 0.31486 0.87304 -0.33300
O 	O 	0.03973 0.40912 0.86601 -0.37100
O 	O 	0.03820 0.37354 0.99624 -0.75400
C 	C 	0.93959 0.67593 0.90693 0.31100
O 	O 	0.89648 0.68909 0.95453 -0.40000
O 	O 	0.97324 0.61998 0.90690 -0.39700
O 	O 	0.96784 0.27099 0.91992 -0.38300
O 	O 	0.90472 0.34273 0.98123 -0.38300
O 	O 	0.15146 0.29362 0.00869 -0.29000
O 	O 	0.17192 0.39750 0.96436 -0.32400
Co	Co	0.60608 0.01599 0.03450 1.18800
Co	Co	0.40749 0.96903 0.96819 1.20000
Co	Co	0.45369 0.05341 0.07487 1.19300
Co	Co	0.55888 0.92457 0.93421 1.19400
C 	C 	0.73279 0.96765 0.09373 0.30900
Co	Co	0.71778 0.93988 0.94556 1.17700
Co	Co	0.29550 0.05285 0.04972 1.17800
C 	C 	0.64341 0.94716 0.81829 0.30800
O 	O 	0.32963 0.13849 0.09390 -0.34000
O 	O 	0.39207 0.01706 0.03346 -0.77400
C 	C 	0.37454 0.17456 0.06394 0.31800
O 	O 	0.55006 0.07001 0.09782 -0.42100
O 	O 	0.46293 0.91037 0.90894 -0.42700
C 	C 	0.31461 0.06502 0.90318 0.27800
O 	O 	0.50531 0.96920 0.02234 -0.54400
C 	C 	0.35301 0.01055 0.18259 0.24900
C 	C 	0.71010 0.08626 0.95134 0.28400
C 	C 	0.65270 0.80692 0.96512 0.31000
O 	O 	0.42858 0.14635 0.04035 -0.35100
O 	O 	0.72282 0.03620 0.91179 -0.36400
O 	O 	0.65185 0.09187 0.98158 -0.33100
O 	O 	0.29578 0.09727 0.95693 -0.32500
O 	O 	0.37410 0.03756 0.89997 -0.37100
O 	O 	0.30360 0.00361 0.13962 -0.35600
O 	O 	0.40851 0.04363 0.16811 -0.31000
O 	O 	0.70202 0.84629 0.98285 -0.38100
O 	O 	0.59874 0.82873 0.93321 -0.35300
O 	O 	0.62049 0.95808 0.97777 -0.76700
C 	C 	0.27547 0.91148 0.00845 0.30800
O 	O 	0.25156 0.97160 0.00504 -0.32600
O 	O 	0.33880 0.89927 0.99766 -0.35800
O 	O 	0.76070 0.97129 0.03450 -0.37800
O 	O 	0.66804 0.97100 0.10132 -0.35700
O 	O 	0.68519 0.91023 0.85189 -0.33900
O 	O 	0.58954 0.96926 0.84780 -0.36200
C 	C 	0.66263 0.73561 0.97369 -0.10500
C 	C 	0.70246 0.70157 0.92784 0.04700
C 	C 	0.74072 0.64768 0.94875 -0.05800
C 	C 	0.74026 0.62893 0.01584 0.06800
C 	C 	0.68759 0.65167 0.05648 -0.13000
C 	C 	0.65082 0.70723 0.03610 0.12300
H 	H 	0.77705 0.62664 0.91513 0.08500
H 	H 	0.61759 0.73149 0.07076 0.06600
H 	H 	0.70934 0.72107 0.87823 0.07800
C 	C 	0.67656 0.62302 0.12492 0.79500
F 	F 	0.71359 0.65771 0.17079 -0.43200
F 	F 	0.61007 0.62701 0.14221 -0.41100
F 	F 	0.69523 0.55741 0.12667 -0.41200
C 	C 	0.85995 0.23551 0.95596 -0.08200
C 	C 	0.87294 0.17169 0.97845 0.04100
C 	C 	0.82289 0.12457 0.97897 -0.04100
C 	C 	0.75909 0.13990 0.95573 0.04000
C 	C 	0.74532 0.20442 0.93183 -0.09500
C 	C 	0.79610 0.25234 0.93380 0.11500
H 	H 	0.83405 0.07536 0.99650 0.05000
H 	H 	0.78637 0.30219 0.91722 0.10000
H 	H 	0.92216 0.15847 0.99568 0.03900
C 	C 	0.67676 0.22290 0.90645 0.79600
F 	F 	0.63268 0.22557 0.95912 -0.42400
F 	F 	0.67701 0.28373 0.87534 -0.39000
F 	F 	0.65483 0.17702 0.86087 -0.40800
C 	C 	0.12771 0.76283 0.02294 -0.07400
C 	C 	0.17297 0.77202 0.07472 0.03800
C 	C 	0.22311 0.81899 0.06861 -0.03900
C 	C 	0.22891 0.85625 0.01024 0.05900
C 	C 	0.18643 0.84329 0.95579 -0.14100
C 	C 	0.13439 0.79829 0.96380 0.07900
H 	H 	0.25624 0.82788 0.11000 0.07700
H 	H 	0.09865 0.79107 0.92432 0.05800
H 	H 	0.16807 0.74424 0.12044 0.07700
C 	C 	0.19407 0.87996 0.89075 0.79100
F 	F 	0.15909 0.84981 0.84007 -0.46000
F 	F 	0.17013 0.94328 0.89836 -0.46000
F 	F 	0.26025 0.88183 0.87221 -0.46400
C 	C 	0.35906 0.24399 0.04952 -0.05600
C 	C 	0.35276 0.26438 0.98330 0.04800
C 	C 	0.30435 0.31113 0.96626 -0.04000
C 	C 	0.26179 0.33633 0.01539 0.09600
C 	C 	0.28051 0.32931 0.08262 -0.12400
C 	C 	0.32875 0.28188 0.09943 0.10900
H 	H 	0.29410 0.32077 0.91436 0.12200
H 	H 	0.33687 0.26920 0.15110 0.11200
H 	H 	0.37934 0.23856 0.94441 0.09800
C 	C 	0.24278 0.36476 0.13688 0.79700
F 	F 	0.18866 0.32737 0.15599 -0.42800
F 	F 	0.28316 0.37480 0.19150 -0.38900
F 	F 	0.22084 0.42557 0.11478 -0.42800
C 	C 	0.66412 0.97411 0.75359 -0.03100
C 	C 	0.69020 0.93187 0.70492 0.04100
C 	C 	0.73761 0.95552 0.65974 0.02700
C 	C 	0.75880 0.02104 0.66380 0.01100
C 	C 	0.71820 0.06621 0.69878 -0.08600
C 	C 	0.67340 0.04209 0.74658 0.05600
H 	H 	0.76217 0.92172 0.62624 0.11100
H 	H 	0.64787 0.07587 0.77950 0.11700
H 	H 	0.67891 0.87976 0.70630 0.10500
C 	C 	0.71750 0.13849 0.68160 0.79100
F 	F 	0.65291 0.15835 0.66918 -0.38900
F 	F 	0.74167 0.17414 0.73459 -0.35500
F 	F 	0.75517 0.15172 0.62562 -0.38300
C 	C 	0.16110 0.02178 0.76950 -0.13900
C 	C 	0.22269 0.99006 0.76204 0.15400
C 	C 	0.27720 0.01045 0.79945 -0.09700
C 	C 	0.27063 0.06297 0.84423 0.09400
C 	C 	0.21363 0.10375 0.83980 -0.15200
C 	C 	0.15708 0.07980 0.80693 0.14300
H 	H 	0.32269 0.98191 0.79774 0.12900
H 	H 	0.11089 0.10731 0.80871 0.04600
H 	H 	0.22724 0.94692 0.73081 0.06600
C 	C 	0.21500 0.17436 0.86323 0.80100
F 	F 	0.27916 0.19861 0.86251 -0.45200
F 	F 	0.17720 0.21350 0.82157 -0.46500
F 	F 	0.18936 0.17826 0.92682 -0.49400
C 	C 	0.25833 0.93567 0.34986 -0.06200
C 	C 	0.30146 0.89471 0.31400 0.04600
C 	C 	0.34312 0.92141 0.26532 -0.05100
C 	C 	0.34111 0.98909 0.25152 0.09900
C 	C 	0.30810 0.03161 0.29665 -0.14600
C 	C 	0.26650 0.00411 0.34580 0.07400
H 	H 	0.37092 0.88865 0.23316 0.08000
H 	H 	0.23525 0.03583 0.37584 0.08400
H 	H 	0.29758 0.84171 0.31879 0.08900
C 	C 	0.31064 0.10565 0.28757 0.79800
F 	F 	0.29030 0.13804 0.34455 -0.39700
F 	F 	0.37485 0.12546 0.27343 -0.41400
F 	F 	0.26934 0.12394 0.23592 -0.44200
C 	C 	0.77484 0.97243 0.15259 -0.06700
C 	C 	0.78215 0.91831 0.19506 0.03400
C 	C 	0.82582 0.92166 0.24876 -0.04600
C 	C 	0.86210 0.97933 0.26061 0.07000
C 	C 	0.84821 0.03674 0.22290 -0.14800
C 	C 	0.80685 0.03179 0.16705 0.07100
H 	H 	0.83487 0.87801 0.27843 0.07000
H 	H 	0.79993 0.07388 0.13459 0.06500
H 	H 	0.75604 0.87281 0.18495 0.05700
C 	C 	0.88097 0.10201 0.23898 0.79400
F 	F 	0.94269 0.10478 0.20891 -0.47300
F 	F 	0.84290 0.15409 0.21602 -0.42700
F 	F 	0.88833 0.10954 0.30685 -0.43800
C 	C 	0.03787 0.33359 0.77350 -0.03800
C 	C 	0.08173 0.30640 0.72679 0.03200
C 	C 	0.06017 0.25632 0.68448 0.01800
C 	C 	0.99480 0.23291 0.68904 0.01900
C 	C 	0.94763 0.26948 0.72617 -0.10600
C 	C 	0.96987 0.32013 0.76824 0.05700
H 	H 	0.09611 0.23072 0.65376 0.08600
H 	H 	0.93542 0.34362 0.80223 0.08200
H 	H 	0.13403 0.31890 0.72823 0.09400
C 	C 	0.87570 0.24872 0.72829 0.79200
F 	F 	0.86912 0.19576 0.77100 -0.43200
F 	F 	0.83526 0.29943 0.75031 -0.39600
F 	F 	0.85486 0.23102 0.66547 -0.37600
C 	C 	0.93965 0.71694 0.84691 -0.13100
C 	C 	0.00004 0.73771 0.81927 0.07200
C 	C 	0.00095 0.78836 0.77229 -0.02700
C 	C 	0.94142 0.81786 0.75164 0.02500
C 	C 	0.87997 0.79085 0.77278 -0.13200
C 	C 	0.87976 0.74210 0.82232 0.10800
H 	H 	0.04818 0.80709 0.75460 0.09100
H 	H 	0.83316 0.72498 0.84301 0.05600
H 	H 	0.04652 0.71728 0.83698 0.04900
C 	C 	0.81494 0.81648 0.74594 0.79200
F 	F 	0.76348 0.77283 0.75778 -0.45300
F 	F 	0.80032 0.87542 0.77674 -0.47400
F 	F 	0.81960 0.82566 0.67808 -0.45100
C 	C 	0.97478 0.64402 0.25800 -0.12500
C 	C 	0.92739 0.66966 0.30211 0.06900
C 	C 	0.94625 0.71724 0.34856 -0.08400
C 	C 	0.01257 0.73833 0.35117 0.09500
C 	C 	0.06189 0.69922 0.32021 -0.14800
C 	C 	0.04233 0.65249 0.27259 0.15300
H 	H 	0.90826 0.74369 0.37587 0.08600
H 	H 	0.07948 0.62909 0.24145 0.06900
H 	H 	0.87507 0.66005 0.29412 0.07000
C 	C 	0.13500 0.71246 0.33102 0.79800
F 	F 	0.17067 0.65424 0.32768 -0.40700
F 	F 	0.15785 0.75464 0.28218 -0.45600
F 	F 	0.14607 0.74026 0.39271 -0.43800
C 	C 	0.06061 0.22357 0.15953 -0.04700
C 	C 	0.09194 0.16352 0.14474 0.05600
C 	C 	0.10909 0.12032 0.19569 -0.00600
C 	C 	0.09537 0.13686 0.26191 0.07700
C 	C 	0.07826 0.20282 0.27724 -0.08600
C 	C 	0.05672 0.24455 0.22585 0.13300
H 	H 	0.12779 0.07181 0.18331 0.06400
H 	H 	0.03700 0.29284 0.23755 0.10800
H 	H 	0.10012 0.14891 0.09367 0.05600
C 	C 	0.08338 0.22924 0.34732 0.79200
F 	F 	0.10328 0.29444 0.34616 -0.38300
F 	F 	0.02203 0.22540 0.37808 -0.39100
F 	F 	0.12959 0.19412 0.38397 -0.40300
