data_crystal

_cell_length_a 25.53179
_cell_length_b 25.66207
_cell_length_c 31.94123
_cell_angle_alpha 95.55148
_cell_angle_beta  95.55383
_cell_angle_gamma 125.64464

_symmetry_space_group_name_	'P 1'
_symmetry_space_group_name_H-M	'P 1'

loop_
_symmetry_equiv_pos_as_xyz
  x,y,z

loop_
_atom_site_label
_atom_site_type_symbol
_atom_site_fract_x
_atom_site_fract_y
_atom_site_fract_z
_atom_site_charge
C 	C 	0.02803 0.96726 0.98483 -0.08200
C 	C 	0.06847 0.03389 0.98252 0.04300
C 	C 	0.04035 0.06657 0.97591 -0.08000
H 	H 	0.04957 0.94214 0.99108 0.05200
H 	H 	0.07128 0.11751 0.97303 0.05400
C 	C 	0.02854 0.00858 0.47224 0.03800
H 	H 	0.00625 0.91286 0.46545 0.05300
H 	H 	0.03537 0.09680 0.47797 0.05300
C 	C 	0.19526 0.03950 0.46748 0.00300
C 	C 	0.25830 0.05662 0.47948 -0.05600
C 	C 	0.30197 0.08480 0.45118 0.01500
C 	C 	0.28381 0.09958 0.41364 0.00100
C 	C 	0.22435 0.09154 0.40532 -0.06000
C 	C 	0.17901 0.05898 0.43203 0.02700
S 	S 	0.14452 0.02656 0.50072 -0.01200
C 	C 	0.09864 0.04207 0.47130 -0.00500
C 	C 	0.12408 0.05959 0.43381 -0.06000
S 	S 	0.35208 0.15572 0.39752 0.02100
C 	C 	0.40561 0.15987 0.43504 -0.07500
C 	C 	0.37067 0.11877 0.46327 -0.02000
H 	H 	0.27375 0.05099 0.51045 0.04700
H 	H 	0.21514 0.11263 0.38046 0.04800
H 	H 	0.10249 0.07009 0.40821 0.04700
H 	H 	0.39386 0.11973 0.49388 0.04600
C 	C 	0.35004 0.12130 0.99778 -0.00900
C 	C 	0.28348 0.07087 0.98239 -0.05400
C 	C 	0.23757 0.07846 0.99645 0.01200
C 	C 	0.25855 0.13661 0.02321 0.01400
C 	C 	0.32479 0.19082 0.03255 -0.06000
C 	C 	0.37083 0.18184 0.02051 0.02500
S 	S 	0.41098 0.13301 0.97512 0.01800
C 	C 	0.43639 0.23367 0.01874 -0.01000
S 	S 	0.19558 0.14056 0.02042 -0.00100
C 	C 	0.14017 0.06956 0.98658 -0.01600
C 	C 	0.17069 0.04019 0.97628 -0.05300
H 	H 	0.26807 0.02889 0.95882 0.04400
H 	H 	0.33952 0.23866 0.04668 0.04900
H 	H 	0.14647 0.99453 0.95393 0.04200
H 	H 	0.46166 0.28313 0.03603 0.03700
C 	C 	0.46607 0.21345 0.99381 -0.09300
C 	C 	0.47629 0.21342 0.44522 0.28800
O 	O 	0.50189 0.25649 0.41966 -0.38700
H 	H 	0.49537 0.23897 0.70882 0.06300
O 	O 	0.51049 0.22232 0.48253 -0.38000
C 	C 	0.53689 0.24554 0.00231 0.29300
H 	H 	0.52635 0.24876 0.63192 0.05200
C 	C 	0.53519 0.29073 0.71696 -0.08900
C 	C 	0.00315 0.04434 0.47595 -0.07800
O 	O 	0.55858 0.21089 0.00867 -0.35900
O 	O 	0.55520 0.28645 0.79241 -0.19400
C 	C 	0.55689 0.30075 0.64470 -0.05700
C 	C 	0.56289 0.32704 0.68492 0.00700
C 	C 	0.56446 0.32165 0.75987 0.11500
O 	O 	0.57842 0.30828 0.00230 -0.38300
H 	H 	0.58109 0.23759 0.92923 0.17200
O 	O 	0.58882 0.28890 0.55956 -0.38100
Cu	Cu	0.59411 0.30711 0.40926 0.89500
H 	H 	0.60338 0.22474 0.43499 0.16600
Cu	Cu	0.60432 0.28669 0.50037 0.89800
C 	C 	0.97223 0.03309 0.97188 0.04100
C 	C 	0.93219 0.96648 0.97401 -0.08000
C 	C 	0.95975 0.93317 0.97950 0.04300
H 	H 	0.87957 0.94042 0.97087 0.05200
C 	C 	0.93656 0.01255 0.47825 0.03900
C 	C 	0.89590 0.94493 0.47746 -0.07700
C 	C 	0.92140 0.90920 0.47401 0.03800
C 	C 	0.98719 0.94086 0.47006 -0.07500
H 	H 	0.84479 0.92036 0.47984 0.05400
Cu	Cu	0.64619 0.23842 0.99567 0.92400
Cu	Cu	0.66664 0.24105 0.89535 0.87100
Cu	Cu	0.68666 0.35392 0.95192 0.89600
Cu	Cu	0.67419 0.36716 0.04474 0.89500
C 	C 	0.69242 0.27837 0.08691 0.25400
C 	C 	0.63504 0.31865 0.85919 0.25400
O 	O 	0.70970 0.34075 0.00651 -0.63700
O 	O 	0.62764 0.25622 0.93942 -0.64300
O 	O 	0.67072 0.18080 0.97579 -0.37300
O 	O 	0.73383 0.24547 0.93100 -0.43600
O 	O 	0.66973 0.31342 0.08763 -0.36500
O 	O 	0.74867 0.44783 0.96733 -0.38500
C 	C 	0.75846 0.48290 0.00437 0.29400
O 	O 	0.71802 0.45715 0.03167 -0.39000
O 	O 	0.67882 0.23732 0.05193 -0.34500
C 	C 	0.71910 0.20142 0.95481 0.28700
O 	O 	0.67706 0.36560 0.89231 -0.38100
O 	O 	0.62149 0.26022 0.85581 -0.39500
H 	H 	0.75716 0.36185 0.01536 0.16700
Cu	Cu	0.72474 0.33839 0.45910 0.92800
Cu	Cu	0.71887 0.30864 0.55740 0.87100
C 	C 	0.69152 0.30299 0.36702 0.25700
O 	O 	0.74834 0.42620 0.45027 -0.36000
C 	C 	0.63379 0.32942 0.59395 0.25500
O 	O 	0.62211 0.27096 0.44561 -0.64000
O 	O 	0.70231 0.34894 0.51525 -0.64100
O 	O 	0.78513 0.31594 0.47745 -0.37000
O 	O 	0.71964 0.24717 0.51970 -0.43700
O 	O 	0.65302 0.32173 0.36757 -0.36900
C 	C 	0.70974 0.44311 0.45712 0.28100
O 	O 	0.64685 0.39814 0.45547 -0.38500
O 	O 	0.73061 0.31333 0.40225 -0.34900
C 	C 	0.76596 0.26645 0.49696 0.28700
O 	O 	0.69408 0.34674 0.59787 -0.39600
H 	H 	0.71849 0.39401 0.52711 0.17300
C 	C 	0.62302 0.38781 0.69467 0.11500
C 	C 	0.65403 0.41741 0.73753 -0.09000
C 	C 	0.62094 0.38512 0.76968 0.00800
O 	O 	0.65817 0.40350 0.66155 -0.19400
C 	C 	0.61360 0.34646 0.63114 0.04000
C 	C 	0.61145 0.33473 0.82252 0.04000
C 	C 	0.65083 0.39351 0.80933 -0.05800
H 	H 	0.70411 0.46145 0.74543 0.06300
H 	H 	0.70303 0.42922 0.82162 0.05400
C 	C 	0.67926 0.25378 0.25867 0.12000
C 	C 	0.65963 0.21169 0.21962 -0.09000
C 	C 	0.69868 0.23627 0.18821 0.01100
C 	C 	0.75345 0.30075 0.19487 0.11800
C 	C 	0.77433 0.34160 0.23484 -0.08700
C 	C 	0.73444 0.31697 0.26549 0.00800
O 	O 	0.65689 0.23217 0.29579 -0.20000
C 	C 	0.70520 0.28903 0.32567 0.04700
C 	C 	0.75307 0.33891 0.30779 -0.05500
O 	O 	0.76781 0.32565 0.15749 -0.20000
C 	C 	0.71589 0.27093 0.12792 0.04900
C 	C 	0.67500 0.21734 0.14588 -0.05500
H 	H 	0.61539 0.16193 0.21370 0.06600
H 	H 	0.81755 0.39193 0.24068 0.06500
H 	H 	0.78656 0.38988 0.32316 0.05600
H 	H 	0.62407 0.17865 0.13169 0.05800
C 	C 	0.83019 0.63132 0.47373 0.00500
C 	C 	0.87509 0.69719 0.49317 -0.06200
C 	C 	0.87111 0.74248 0.47479 0.02800
C 	C 	0.82152 0.72149 0.43973 0.00300
C 	C 	0.76999 0.65511 0.42540 -0.05500
C 	C 	0.77610 0.60984 0.44207 0.01500
S 	S 	0.81221 0.56876 0.49652 0.01300
C 	C 	0.73713 0.51228 0.46702 -0.07400
C 	C 	0.72386 0.54270 0.43795 -0.02000
S 	S 	0.81791 0.78318 0.43449 -0.01000
C 	C 	0.87951 0.83880 0.47503 -0.00500
C 	C 	0.90389 0.80831 0.49469 -0.06100
H 	H 	0.91002 0.71230 0.52222 0.04700
H 	H 	0.72620 0.63944 0.40344 0.04700
H 	H 	0.67970 0.51690 0.41364 0.03700
H 	H 	0.94553 0.83353 0.52096 0.04700
C 	C 	0.88486 0.12099 0.52228 0.00300
C 	C 	0.84433 0.13641 0.53624 -0.05700
C 	C 	0.84543 0.18594 0.52018 0.01400
C 	C 	0.88396 0.21660 0.48955 -0.00200
C 	C 	0.91594 0.19366 0.47072 -0.05800
C 	C 	0.91749 0.14641 0.48828 0.02600
S 	S 	0.87351 0.05058 0.52405 -0.01200
C 	C 	0.90980 0.05011 0.48324 -0.00500
C 	C 	0.93253 0.10706 0.46670 -0.06000
S 	S 	0.85558 0.25242 0.46537 0.03100
C 	C 	0.79534 0.23160 0.49270 -0.08000
C 	C 	0.79614 0.19518 0.52242 -0.02500
H 	H 	0.81045 0.10842 0.55683 0.04400
H 	H 	0.93562 0.20922 0.44208 0.04800
H 	H 	0.95713 0.11867 0.43954 0.04600
H 	H 	0.76211 0.17540 0.54430 0.03400
C 	C 	0.88027 0.66521 0.99292 -0.01100
C 	C 	0.90303 0.71130 0.96612 -0.05200
C 	C 	0.88977 0.75710 0.97154 0.01200
C 	C 	0.85152 0.75403 0.00131 0.01500
C 	C 	0.82905 0.70832 0.02832 -0.06300
C 	C 	0.84132 0.66169 0.02246 0.03000
S 	S 	0.86251 0.59168 0.97983 0.01500
C 	C 	0.80866 0.55403 0.01207 -0.06800
C 	C 	0.80099 0.59902 0.03336 -0.02500
S 	S 	0.86572 0.82639 0.01221 -0.00100
C 	C 	0.91661 0.86211 0.97797 -0.01600
C 	C 	0.92663 0.81810 0.95823 -0.05300
H 	H 	0.93101 0.71217 0.94242 0.04400
H 	H 	0.80054 0.70719 0.05171 0.04900
H 	H 	0.76117 0.58478 0.05035 0.04600
H 	H 	0.96412 0.83178 0.93915 0.04300
C 	C 	0.92391 0.15154 0.95507 0.00200
C 	C 	0.91075 0.19587 0.96806 -0.05500
C 	C 	0.84995 0.18080 0.95038 0.01200
C 	C 	0.80291 0.12140 0.92201 0.00500
C 	C 	0.81269 0.07339 0.91384 -0.06300
C 	C 	0.87457 0.08962 0.92976 0.02700
S 	S 	0.97802 0.14598 0.98367 -0.01300
C 	C 	0.94244 0.06720 0.96454 -0.00500
C 	C 	0.88573 0.04233 0.93454 -0.05900
S 	S 	0.72999 0.10593 0.92188 -0.00100
C 	C 	0.75458 0.17285 0.95625 -0.07500
C 	C 	0.82292 0.21050 0.96883 -0.01900
H 	H 	0.94466 0.23824 0.99316 0.04600
H 	H 	0.77240 0.02398 0.89814 0.04600
H 	H 	0.85224 0.99173 0.91845 0.04400
H 	H 	0.85194 0.25715 0.99067 0.03600
