data_crystal

_cell_length_a 17.87371
_cell_length_b 16.92066
_cell_length_c 48.66337
_cell_angle_alpha 90.73941
_cell_angle_beta  91.03772
_cell_angle_gamma 110.88671

_symmetry_space_group_name_	'P 1'
_symmetry_space_group_name_H-M	'P 1'

loop_
_symmetry_equiv_pos_as_xyz
  x,y,z

loop_
_atom_site_label
_atom_site_type_symbol
_atom_site_fract_x
_atom_site_fract_y
_atom_site_fract_z
_atom_site_charge
O 	O 	0.06513 0.92573 0.76098 -0.70400
Ni	Ni	0.10571 0.03460 0.78320 1.10100
O 	O 	0.07770 0.81771 0.71493 -0.38100
Ni	Ni	0.15410 0.91688 0.74006 1.07200
O 	O 	0.14944 0.01680 0.71777 -0.41400
O 	O 	0.20062 0.01701 0.80261 -0.36700
O 	O 	0.01306 0.05063 0.76208 -0.71800
O 	O 	0.11862 0.13941 0.80753 -0.33900
H 	H 	0.04114 0.87601 0.77264 0.15700
H 	H 	0.02961 0.10485 0.75227 0.16800
C 	C 	0.18131 0.09520 0.72792 0.26700
C 	C 	0.00307 0.80678 0.70739 0.25600
C 	C 	0.25828 0.00618 0.78840 0.28700
C 	C 	0.05502 0.14480 0.81949 0.25600
O 	O 	0.18166 0.11084 0.75479 -0.35700
O 	O 	0.25140 0.99808 0.76139 -0.40500
Ni	Ni	0.37478 0.76115 0.39282 1.11400
O 	O 	0.34254 0.63801 0.38045 -0.70000
Ni	Ni	0.23158 0.61615 0.36550 1.10500
O 	O 	0.48304 0.76245 0.40810 -0.33300
O 	O 	0.42074 0.65138 0.43595 -0.34800
O 	O 	0.41949 0.78656 0.35447 -0.38500
Ni	Ni	0.33691 0.56196 0.41038 1.10000
O 	O 	0.29217 0.91503 0.39002 -0.37600
O 	O 	0.25644 0.59990 0.43039 -0.37200
O 	O 	0.21174 0.49736 0.35131 -0.36400
O 	O 	0.25978 0.73508 0.38228 -0.70200
O 	O 	0.40596 0.88726 0.40174 -0.34900
O 	O 	0.13082 0.61610 0.34443 -0.35200
O 	O 	0.19881 0.74491 0.32622 -0.40900
Ni	Ni	0.25394 0.82689 0.35891 1.07800
H 	H 	0.37707 0.62981 0.36583 0.17500
H 	H 	0.22921 0.73352 0.39915 0.19400
C 	C 	0.18060 0.56812 0.42362 0.41600
O 	O 	0.36137 0.87872 0.33911 -0.37800
C 	C 	0.48637 0.71187 0.42809 0.39000
C 	C 	0.23222 0.44384 0.36647 0.26900
C 	C 	0.42405 0.85521 0.34153 0.30600
C 	C 	0.13123 0.68081 0.32969 0.27400
C 	C 	0.35179 0.92092 0.40753 0.40200
O 	O 	0.15718 0.56293 0.39768 -0.35500
O 	O 	0.24791 0.45865 0.39320 -0.33900
Ni	Ni	0.37952 0.65559 0.13103 1.10800
O 	O 	0.28403 0.62940 0.10363 -0.68100
Ni	Ni	0.21047 0.67250 0.12474 1.10600
O 	O 	0.42376 0.56809 0.11515 -0.32600
O 	O 	0.29933 0.47008 0.11189 -0.39300
O 	O 	0.45223 0.74229 0.10430 -0.32800
Ni	Ni	0.22228 0.51475 0.09064 1.12900
O 	O 	0.48516 0.83221 0.15185 -0.36900
O 	O 	0.13154 0.47384 0.11820 -0.35100
O 	O 	0.10502 0.62230 0.10166 -0.34200
O 	O 	0.31382 0.71561 0.14844 -0.70000
O 	O 	0.47181 0.69394 0.15914 -0.34800
O 	O 	0.16217 0.74432 0.14779 -0.34300
O 	O 	0.26918 0.86225 0.13806 -0.36500
Ni	Ni	0.37301 0.83649 0.14523 1.08000
H 	H 	0.30017 0.66510 0.08730 0.21900
H 	H 	0.30437 0.70002 0.16796 0.16200
C 	C 	0.14000 0.49493 0.14439 0.29000
O 	O 	0.38162 0.83091 0.10377 -0.37400
C 	C 	0.37420 0.49670 0.10444 0.41300
C 	C 	0.09944 0.58770 0.07667 0.40300
C 	C 	0.43277 0.80193 0.09240 0.39800
C 	C 	0.20426 0.82527 0.15210 0.28100
O 	O 	0.17095 0.57522 0.15213 -0.37700
O 	O 	0.15643 0.56347 0.06690 -0.34000
O 	O 	0.10905 0.16239 0.27701 -0.36200
O 	O 	0.16105 0.04162 0.25807 -0.38800
O 	O 	0.10798 0.09802 0.22383 -0.36100
O 	O 	0.99655 0.89788 0.31188 -0.39100
Ni	Ni	0.07201 0.96905 0.28255 1.06100
O 	O 	0.08499 0.06419 0.31012 -0.39700
C 	C 	0.10754 0.14294 0.30295 0.29000
C 	C 	0.14849 0.05017 0.23158 0.29000
C 	C 	0.01079 0.30527 0.20169 -0.07300
C 	C 	0.04703 0.28307 0.17907 0.01000
C 	C 	0.09214 0.34472 0.16103 0.01200
C 	C 	0.09800 0.42993 0.16468 -0.05000
C 	C 	0.05903 0.45165 0.18682 0.00100
H 	H 	0.04372 0.21812 0.17637 0.05400
H 	H 	0.06182 0.51637 0.18954 0.05600
C 	C 	0.13513 0.32034 0.13963 0.10800
N 	N 	0.16929 0.30031 0.12252 -0.07800
C 	C 	0.16267 0.99147 0.21150 -0.08200
C 	C 	0.10111 0.94642 0.19271 -0.01200
C 	C 	0.11171 0.88719 0.17429 0.02500
C 	C 	0.18463 0.87276 0.17458 -0.07000
C 	C 	0.24484 0.91535 0.19406 -0.00400
C 	C 	0.23483 0.97535 0.21220 -0.00100
H 	H 	0.04469 0.95697 0.19261 0.03500
H 	H 	0.30095 0.90406 0.19433 0.00600
C 	C 	0.30025 0.02271 0.23063 0.09700
C 	C 	0.04809 0.84280 0.15484 0.08500
N 	N 	0.35268 0.06061 0.24538 -0.09400
C 	C 	0.14671 0.20960 0.32345 -0.06300
C 	C 	0.10184 0.22387 0.34495 -0.00100
C 	C 	0.13274 0.29733 0.36132 0.01300
C 	C 	0.20934 0.35687 0.35608 -0.03700
C 	C 	0.25745 0.33778 0.33663 -0.01000
C 	C 	0.22668 0.26416 0.32035 0.02100
H 	H 	0.04136 0.18004 0.34801 0.04600
H 	H 	0.31742 0.38234 0.33325 0.05200
C 	C 	0.27724 0.24517 0.30045 0.10400
C 	C 	0.08395 0.31341 0.38248 0.12800
N 	N 	0.31767 0.22992 0.28450 -0.08700
N 	N 	0.04485 0.32630 0.39940 -0.06500
C 	C 	0.05475 0.68428 0.31861 -0.08500
C 	C 	0.04956 0.70741 0.29126 -0.03700
C 	C 	0.98809 0.73601 0.28302 0.01400
C 	C 	0.93774 0.75008 0.30296 -0.06600
C 	C 	0.93000 0.70649 0.32765 -0.00400
C 	C 	0.99004 0.67594 0.33610 0.03000
H 	H 	0.09517 0.70715 0.27689 0.04400
H 	H 	0.88493 0.70820 0.34204 0.07200
C 	C 	0.98705 0.64082 0.36311 0.10600
N 	N 	0.98448 0.61257 0.38476 -0.04400
F 	F 	0.30013 0.13184 0.51246 -0.32800
C 	C 	0.36230 0.93742 0.45827 0.33100
C 	C 	0.36319 0.97373 0.43247 -0.21900
C 	C 	0.38110 0.06131 0.43064 0.32900
F 	F 	0.38203 0.09697 0.40575 -0.38100
F 	F 	0.34351 0.85256 0.46025 -0.37500
C 	C 	0.01901 0.51679 0.47609 0.22100
C 	C 	0.03044 0.44857 0.48939 -0.02200
C 	C 	0.08631 0.41526 0.47943 0.24300
C 	C 	0.13291 0.45206 0.45702 0.32000
C 	C 	0.12369 0.52236 0.44434 -0.21600
C 	C 	0.06572 0.55374 0.45368 0.32500
F 	F 	0.09688 0.34861 0.49193 -0.32800
F 	F 	0.05750 0.62262 0.44195 -0.38400
F 	F 	0.18862 0.42094 0.44806 -0.38500
C 	C 	0.61945 0.67895 0.48063 0.23400
C 	C 	0.59637 0.68793 0.45355 0.31300
C 	C 	0.55321 0.74113 0.44811 -0.19600
F 	F 	0.65218 0.61974 0.48636 -0.34200
F 	F 	0.60559 0.63628 0.43336 -0.37900
C 	C 	0.34992 0.25692 0.67346 -0.05000
C 	C 	0.36204 0.27277 0.70177 -0.01800
C 	C 	0.30369 0.22682 0.72015 0.00500
C 	C 	0.23216 0.16308 0.70994 -0.05300
C 	C 	0.21553 0.15718 0.68152 -0.01100
C 	C 	0.27373 0.20436 0.66329 0.01500
H 	H 	0.41910 0.31678 0.70962 0.04100
H 	H 	0.15864 0.11323 0.67353 0.06100
C 	C 	0.25520 0.19783 0.63416 0.12400
C 	C 	0.31812 0.24585 0.74922 0.09600
N 	N 	0.24011 0.19256 0.61083 -0.03700
N 	N 	0.32990 0.26141 0.77249 -0.10000
H 	H 	0.05150 0.68530 0.68542 0.04800
C 	C 	0.95620 0.62253 0.02544 0.25900
C 	C 	0.00940 0.63779 0.04806 0.30400
C 	C 	0.02622 0.57056 0.05990 -0.22100
C 	C 	0.98348 0.48728 0.05075 0.34200
C 	C 	0.93159 0.47211 0.02789 0.23300
F 	F 	0.99668 0.42146 0.06289 -0.36700
F 	F 	0.04854 0.71839 0.05729 -0.36800
C 	C 	0.54074 0.91905 0.01837 0.00600
C 	C 	0.51961 0.83131 0.02130 0.24000
C 	C 	0.48649 0.79305 0.04580 0.32300
C 	C 	0.47449 0.84242 0.06756 -0.20500
C 	C 	0.49920 0.93069 0.06501 0.32200
F 	F 	0.52970 0.78300 0.00021 -0.31300
F 	F 	0.43499 0.89092 0.97224 -0.32600
F 	F 	0.46396 0.70790 0.04808 -0.34900
C 	C 	0.45681 0.39974 0.04771 0.23500
C 	C 	0.43885 0.42132 0.07403 0.33700
C 	C 	0.39149 0.47141 0.07703 -0.23900
F 	F 	0.50346 0.35214 0.04488 -0.30900
F 	F 	0.35282 0.26641 0.99955 -0.32800
F 	F 	0.46772 0.39403 0.09656 -0.36500
C 	C 	0.33912 0.03156 0.80127 -0.06200
C 	C 	0.40298 0.09644 0.78960 -0.00100
C 	C 	0.47646 0.13206 0.80394 -0.00100
C 	C 	0.48686 0.10146 0.83000 -0.05000
C 	C 	0.42572 0.03091 0.84030 -0.00600
C 	C 	0.35186 0.99630 0.82620 0.01800
H 	H 	0.39437 0.12160 0.76989 0.05000
H 	H 	0.43455 0.00535 0.85992 0.09500
C 	C 	0.28959 0.92454 0.83742 0.10300
C 	C 	0.53947 0.20226 0.79229 0.07200
N 	N 	0.23971 0.86705 0.84641 -0.08400
Ni	Ni	0.60784 0.27045 0.89685 1.11200
O 	O 	0.62061 0.35051 0.86408 -0.69500
Ni	Ni	0.73740 0.37487 0.85656 1.09900
O 	O 	0.50423 0.27959 0.91103 -0.31700
O 	O 	0.50310 0.40317 0.89376 -0.36100
O 	O 	0.53772 0.16769 0.87367 -0.33900
Ni	Ni	0.61102 0.45982 0.87421 1.08700
O 	O 	0.63604 0.09951 0.89794 -0.37900
O 	O 	0.67351 0.46472 0.90999 -0.34800
O 	O 	0.75248 0.46486 0.82750 -0.37400
O 	O 	0.71855 0.28520 0.88584 -0.70900
O 	O 	0.60403 0.18900 0.92757 -0.31800
O 	O 	0.85027 0.37440 0.84973 -0.33800
O 	O 	0.80120 0.23164 0.84168 -0.40500
Ni	Ni	0.71547 0.17617 0.87095 1.07800
H 	H 	0.58622 0.32382 0.84788 0.16700
H 	H 	0.75682 0.30391 0.90165 0.19300
C 	C 	0.74813 0.46778 0.91038 0.36200
O 	O 	0.62800 0.16369 0.84179 -0.40000
C 	C 	0.49713 0.35329 0.91471 0.40300
C 	C 	0.73800 0.53413 0.83300 0.28500
C 	C 	0.55384 0.15068 0.84860 0.28300
C 	C 	0.86225 0.30255 0.84662 0.28000
C 	C 	0.62454 0.12228 0.92326 0.40000
O 	O 	0.78509 0.46601 0.88716 -0.33400
O 	O 	0.71036 0.54464 0.85713 -0.37200
Ni	Ni	0.55749 0.38136 0.62499 1.10600
O 	O 	0.65383 0.39282 0.60094 -0.69900
Ni	Ni	0.71426 0.33892 0.62433 1.11000
O 	O 	0.53174 0.47802 0.60657 -0.31600
O 	O 	0.66258 0.56108 0.61152 -0.38100
O 	O 	0.48479 0.29531 0.59649 -0.32700
Ni	Ni	0.72773 0.50270 0.58999 1.10000
O 	O 	0.43259 0.21388 0.64261 -0.37800
O 	O 	0.82032 0.53286 0.61847 -0.34600
O 	O 	0.81919 0.37282 0.60276 -0.34200
O 	O 	0.61033 0.31321 0.64559 -0.70000
O 	O 	0.46043 0.35634 0.64940 -0.34600
O 	O 	0.75162 0.26359 0.64965 -0.33500
O 	O 	0.63472 0.15100 0.64279 -0.37200
Ni	Ni	0.53971 0.19514 0.64240 1.07500
H 	H 	0.63665 0.35827 0.58389 0.20100
H 	H 	0.62026 0.33220 0.66509 0.16400
C 	C 	0.81120 0.51307 0.64442 0.30300
O 	O 	0.54054 0.19332 0.60062 -0.37800
C 	C 	0.59004 0.55066 0.60231 0.36600
C 	C 	0.82478 0.39692 0.57676 0.41300
C 	C 	0.50250 0.23226 0.58585 0.38900
C 	C 	0.70184 0.18892 0.65704 0.27000
C 	C 	0.42035 0.27687 0.65591 0.27300
O 	O 	0.76354 0.43790 0.65177 -0.37700
O 	O 	0.78346 0.44177 0.56669 -0.35900
Ni	Ni	0.98517 0.95414 0.73555 1.11100
O 	O 	0.98232 0.87267 0.70389 -0.33400
O 	O 	0.89130 0.86241 0.75364 -0.36500
O 	O 	0.83520 0.99489 0.75235 -0.38300
O 	O 	0.90480 0.98853 0.71358 -0.35000
O 	O 	0.98828 0.07862 0.81960 -0.37800
Ni	Ni	0.91874 0.03596 0.78400 1.07300
O 	O 	0.90333 0.91741 0.79709 -0.38900
C 	C 	0.88498 0.85204 0.78025 0.28900
C 	C 	0.85137 0.01253 0.72607 0.27300
C 	C 	0.50008 0.77460 0.16698 0.27100
Ni	Ni	0.01953 0.10307 0.24857 1.09400
O 	O 	0.93008 0.09750 0.27484 -0.69500
Ni	Ni	0.88581 0.97258 0.28334 1.10000
O 	O 	0.03689 0.22458 0.23785 -0.38800
O 	O 	0.90696 0.19361 0.22403 -0.38400
Ni	Ni	0.84624 0.13395 0.25899 1.07700
O 	O 	0.78580 0.03536 0.23272 -0.37200
O 	O 	0.78553 0.96570 0.30447 -0.36600
O 	O 	0.98389 0.98251 0.26064 -0.69000
O 	O 	0.87101 0.84941 0.29339 -0.34600
H 	H 	0.95172 0.13061 0.29196 0.16600
H 	H 	0.96985 0.94346 0.24448 0.17200
C 	C 	0.76286 0.95509 0.23882 0.27900
C 	C 	0.98286 0.24388 0.22389 0.31900
C 	C 	0.73884 0.00876 0.29810 0.29400
C 	C 	0.93225 0.83443 0.30446 0.28300
O 	O 	0.81535 0.92426 0.24889 -0.37500
O 	O 	0.76978 0.08907 0.29071 -0.38900
C 	C 	0.01601 0.38990 0.20540 -0.00800
C 	C 	0.97816 0.41415 0.22834 0.11100
N 	N 	0.94787 0.43362 0.24673 -0.10600
C 	C 	0.55858 0.80364 0.19016 -0.05400
C 	C 	0.55252 0.86671 0.20795 -0.00800
C 	C 	0.61810 0.91570 0.22433 0.00700
C 	C 	0.68894 0.89652 0.22500 -0.05400
C 	C 	0.69157 0.82666 0.20960 -0.00300
C 	C 	0.62757 0.78129 0.19175 0.01500
H 	H 	0.49859 0.88222 0.20738 0.02700
H 	H 	0.74525 0.81078 0.21025 0.06600
C 	C 	0.63488 0.71471 0.17437 0.11700
C 	C 	0.61392 0.98911 0.23879 0.07300
N 	N 	0.64081 0.66137 0.16045 -0.06600
N 	N 	0.61022 0.04801 0.25019 -0.10000
N 	N 	0.99711 0.80723 0.13926 -0.04200
C 	C 	0.65441 0.97446 0.30687 -0.06400
C 	C 	0.60584 0.89261 0.29807 -0.00200
C 	C 	0.52717 0.85615 0.30713 0.00700
C 	C 	0.49730 0.90019 0.32627 -0.04900
C 	C 	0.54446 0.98331 0.33425 -0.01700
C 	C 	0.62302 0.02048 0.32492 0.03300
H 	H 	0.62942 0.85720 0.28412 0.04900
H 	H 	0.52155 0.01746 0.34889 0.08500
C 	C 	0.67217 0.10350 0.33531 0.11300
C 	C 	0.47717 0.77375 0.29650 0.08700
N 	N 	0.71148 0.17001 0.34367 -0.07800
N 	N 	0.43712 0.70775 0.28797 -0.11200
C 	C 	0.98390 0.76159 0.25503 0.04900
N 	N 	0.98058 0.78192 0.23257 -0.10900
C 	C 	0.51161 0.15255 0.51384 0.24100
C 	C 	0.43161 0.13061 0.50485 0.00200
C 	C 	0.37727 0.15140 0.52125 0.23700
C 	C 	0.40154 0.18907 0.54725 0.32400
C 	C 	0.48017 0.20543 0.55707 -0.20900
C 	C 	0.53581 0.18972 0.53987 0.31700
C 	C 	0.40275 0.07641 0.48014 0.01000
F 	F 	0.61296 0.20900 0.54861 -0.36500
C 	C 	0.38187 0.98851 0.48201 0.23500
C 	C 	0.40098 0.11258 0.45444 0.23200
F 	F 	0.38251 0.95298 0.50683 -0.32400
F 	F 	0.42053 0.19752 0.45250 -0.33300
F 	F 	0.56506 0.13463 0.49777 -0.31400
F 	F 	0.34777 0.20611 0.56337 -0.35700
C 	C 	0.98701 0.41541 0.51457 0.05300
C 	C 	0.91159 0.35068 0.51281 0.22400
C 	C 	0.86131 0.33450 0.53535 0.33100
C 	C 	0.88577 0.38413 0.55951 -0.21600
C 	C 	0.96531 0.44023 0.56245 0.35100
C 	C 	0.01578 0.45618 0.53996 0.18400
F 	F 	0.88492 0.30771 0.48870 -0.31900
F 	F 	0.99076 0.48610 0.58612 -0.37200
F 	F 	0.78590 0.27647 0.53283 -0.33800
F 	F 	0.09046 0.51582 0.54223 -0.32700
F 	F 	0.96431 0.54876 0.48547 -0.32300
C 	C 	0.57342 0.79039 0.49567 0.24100
C 	C 	0.60029 0.72421 0.50208 0.00300
C 	C 	0.55183 0.80025 0.46848 0.32200
C 	C 	0.58954 0.68934 0.52998 -0.00600
F 	F 	0.51809 0.85865 0.46277 -0.34800
C 	C 	0.52280 0.61688 0.53535 0.23200
C 	C 	0.51812 0.57559 0.56031 0.30700
C 	C 	0.58076 0.60634 0.58015 -0.21200
C 	C 	0.64225 0.68502 0.57601 0.29200
C 	C 	0.64743 0.72533 0.55078 0.23500
F 	F 	0.46375 0.58480 0.51592 -0.33600
F 	F 	0.69826 0.72100 0.59610 -0.38200
F 	F 	0.45405 0.50435 0.56478 -0.35200
F 	F 	0.70990 0.79801 0.54630 -0.33100
F 	F 	0.56050 0.83925 0.51604 -0.31600
C 	C 	0.73149 0.13844 0.67572 -0.05100
C 	C 	0.74262 0.06590 0.66549 -0.00300
C 	C 	0.77756 0.02099 0.68207 0.01300
C 	C 	0.80118 0.04848 0.70960 -0.05600
C 	C 	0.78502 0.11804 0.72032 -0.00900
C 	C 	0.75102 0.16355 0.70347 0.00100
H 	H 	0.72607 0.04569 0.64427 0.08300
H 	H 	0.80204 0.13891 0.74145 0.03000
C 	C 	0.73635 0.23587 0.71481 0.07400
C 	C 	0.78972 0.94769 0.67042 0.12600
N 	N 	0.72459 0.29382 0.72388 -0.11300
N 	N 	0.79944 0.88943 0.66069 -0.06900
C 	C 	0.85750 0.57536 0.66541 -0.05100
C 	C 	0.82076 0.62505 0.67853 -0.00100
C 	C 	0.86647 0.69971 0.69261 0.00600
C 	C 	0.95135 0.72389 0.69466 -0.03500
C 	C 	0.98722 0.66928 0.68346 0.01600
C 	C 	0.94076 0.59553 0.66880 0.00700
H 	H 	0.75635 0.60831 0.67632 0.05300
C 	C 	0.97886 0.54039 0.65758 0.14300
C 	C 	0.82502 0.75154 0.70371 0.10800
N 	N 	0.00941 0.49613 0.64866 -0.07700
N 	N 	0.78900 0.79111 0.71206 -0.08800
C 	C 	0.91636 0.55421 0.96352 0.23400
C 	C 	0.87552 0.52528 0.98793 0.00200
C 	C 	0.79354 0.47623 0.98672 0.24100
C 	C 	0.75308 0.45438 0.96134 0.31600
C 	C 	0.79336 0.48463 0.93685 -0.20400
C 	C 	0.87535 0.53487 0.93811 0.31500
C 	C 	0.92011 0.54001 0.01449 0.00300
F 	F 	0.75338 0.44853 0.01020 -0.31100
F 	F 	0.91499 0.56623 0.91483 -0.36500
F 	F 	0.94234 0.68818 0.01346 -0.32000
F 	F 	0.89577 0.39187 0.01785 -0.31900
F 	F 	0.99604 0.60033 0.96442 -0.32600
F 	F 	0.67490 0.40267 0.96048 -0.38200
C 	C 	0.53147 0.96863 0.04047 0.23100
C 	C 	0.56706 0.95845 0.99161 0.00200
F 	F 	0.49178 0.97971 0.08634 -0.37500
C 	C 	0.64563 0.01618 0.98888 0.24300
C 	C 	0.66593 0.06685 0.96568 0.31800
C 	C 	0.60821 0.05915 0.94488 -0.20500
C 	C 	0.53146 0.99715 0.94666 0.32400
C 	C 	0.51083 0.94718 0.96999 0.23500
F 	F 	0.70117 0.02574 0.00929 -0.32000
F 	F 	0.47567 0.98828 0.92639 -0.36800
F 	F 	0.74078 0.12557 0.96387 -0.37000
F 	F 	0.55202 0.05352 0.03789 -0.31400
C 	C 	0.37948 0.47751 0.02743 0.23600
C 	C 	0.42717 0.42807 0.02435 0.00800
C 	C 	0.36261 0.50002 0.05357 0.32200
C 	C 	0.44718 0.40775 0.99661 0.00700
F 	F 	0.32015 0.55179 0.05611 -0.46500
C 	C 	0.49983 0.47170 0.98081 0.24400
C 	C 	0.51116 0.45584 0.95327 0.33000
C 	C 	0.47210 0.37488 0.94152 -0.20600
C 	C 	0.41811 0.31135 0.95723 0.32700
C 	C 	0.40588 0.32776 0.98467 0.23700
F 	F 	0.53921 0.54967 0.99213 -0.31000
F 	F 	0.37727 0.23385 0.94583 -0.35300
F 	F 	0.56172 0.51855 0.93817 -0.38100
F 	F 	0.35036 0.50480 0.00495 -0.32700
C 	C 	0.05313 0.22685 0.82876 -0.03900
C 	C 	0.03750 0.23579 0.85654 -0.03100
C 	C 	0.98141 0.27261 0.86367 0.03600
C 	C 	0.94391 0.30341 0.84286 -0.07000
C 	C 	0.97542 0.31362 0.81641 0.02200
C 	C 	0.03198 0.27717 0.80950 -0.03700
H 	H 	0.06004 0.20387 0.87203 0.07800
H 	H 	0.95102 0.34316 0.80071 0.04600
C 	C 	0.06123 0.28377 0.78185 0.07200
C 	C 	0.95818 0.27276 0.89193 0.09000
N 	N 	0.08475 0.28912 0.75969 -0.11400
N 	N 	0.93948 0.27290 0.91457 -0.06600
N 	N 	0.58993 0.25851 0.78297 -0.12000
C 	C 	0.84741 0.76640 0.79105 -0.06200
C 	C 	0.89548 0.72760 0.80406 -0.00300
C 	C 	0.86055 0.64956 0.81677 0.01400
C 	C 	0.77638 0.60944 0.81639 -0.05100
C 	C 	0.72845 0.64702 0.80260 -0.01200
C 	C 	0.76346 0.72521 0.78994 0.01300
H 	H 	0.96005 0.75912 0.80485 0.04000
H 	H 	0.66377 0.61639 0.80233 0.04000
C 	C 	0.71271 0.76404 0.77666 0.09300
C 	C 	0.91132 0.61267 0.83106 0.11500
N 	N 	0.67208 0.79519 0.76602 -0.09800
N 	N 	0.95196 0.58314 0.84251 -0.06500
