data_crystal

_cell_length_a 18.47908
_cell_length_b 18.73769
_cell_length_c 34.63768
_cell_angle_alpha 95.41942
_cell_angle_beta  95.41966
_cell_angle_gamma 126.43695

_symmetry_space_group_name_	'P 1'
_symmetry_space_group_name_H-M	'P 1'

loop_
_symmetry_equiv_pos_as_xyz
  x,y,z

loop_
_atom_site_label
_atom_site_type_symbol
_atom_site_fract_x
_atom_site_fract_y
_atom_site_fract_z
_atom_site_charge
C 	C 	0.91326 0.98847 0.97506 0.10800
N 	N 	0.00450 0.04336 0.97535 -0.12100
C 	C 	0.05211 0.00957 0.97553 0.14400
N 	N 	0.00797 0.92004 0.97476 -0.13300
C 	C 	0.91706 0.86504 0.97564 0.12500
N 	N 	0.86933 0.89917 0.97553 -0.12900
C 	C 	0.91807 0.01457 0.48794 0.14500
N 	N 	0.00712 0.06710 0.48354 -0.13500
C 	C 	0.05032 0.02936 0.47781 0.14500
N 	N 	0.00394 0.93922 0.47570 -0.13900
C 	C 	0.91495 0.88674 0.47953 0.13200
N 	N 	0.87259 0.92466 0.48635 -0.14200
Cu	Cu	0.75688 0.32820 0.96125 0.94000
Cu	Cu	0.70970 0.24437 0.04126 0.88100
Cu	Cu	0.61897 0.30920 0.00793 0.89300
Cu	Cu	0.58243 0.30895 0.92167 0.91000
C 	C 	0.70546 0.29547 0.87663 0.30600
O 	O 	0.80352 0.45716 0.95699 -0.30000
C 	C 	0.66795 0.33920 0.09442 0.30200
O 	O 	0.61489 0.25604 0.95567 -0.63500
O 	O 	0.74483 0.34619 0.01632 -0.64900
O 	O 	0.82085 0.27333 0.97085 -0.32900
O 	O 	0.70607 0.16825 0.99958 -0.40700
O 	O 	0.66149 0.32983 0.88193 -0.32700
O 	O 	0.49881 0.28292 0.99884 -0.35900
C 	C 	0.43492 0.23302 0.96691 0.30400
C 	C 	0.75687 0.48814 0.96469 0.29400
O 	O 	0.66895 0.43182 0.96560 -0.38500
O 	O 	0.45601 0.23420 0.93157 -0.36900
O 	O 	0.74826 0.28811 0.90677 -0.32100
C 	C 	0.77928 0.19724 0.98432 0.29800
O 	O 	0.62738 0.34835 0.06374 -0.35200
O 	O 	0.71022 0.30242 0.09009 -0.33700
H 	H 	0.57551 0.18920 0.95027 0.17700
H 	H 	0.79110 0.40708 0.03266 0.21700
Cu	Cu	0.59176 0.19539 0.50630 0.93600
Cu	Cu	0.68279 0.22278 0.42739 0.88100
Cu	Cu	0.62308 0.32770 0.45438 0.90700
Cu	Cu	0.61492 0.37433 0.53857 0.91000
C 	C 	0.62977 0.26367 0.58962 0.30800
O 	O 	0.46185 0.15457 0.50653 -0.34100
C 	C 	0.62072 0.28878 0.37090 0.29500
O 	O 	0.66996 0.33578 0.50884 -0.63100
O 	O 	0.58058 0.20206 0.44988 -0.64000
O 	O 	0.64282 0.12718 0.50240 -0.32400
O 	O 	0.75523 0.23300 0.47325 -0.41000
O 	O 	0.59234 0.30345 0.58121 -0.36800
O 	O 	0.65506 0.44768 0.45908 -0.31900
C 	C 	0.70622 0.51258 0.49022 0.29600
C 	C 	0.43386 0.20116 0.49500 0.28700
O 	O 	0.49342 0.28694 0.49315 -0.38400
O 	O 	0.69216 0.49661 0.52603 -0.36600
O 	O 	0.62424 0.20625 0.56206 -0.29200
C 	C 	0.72225 0.16433 0.49140 0.31500
O 	O 	0.59012 0.31449 0.39760 -0.30600
O 	O 	0.63770 0.23096 0.37685 -0.38300
H 	H 	0.73753 0.37297 0.51575 0.19300
H 	H 	0.51910 0.15695 0.43324 0.18800
C 	C 	0.77592 0.35416 0.77944 0.03800
C 	C 	0.71583 0.26858 0.75523 0.08900
C 	C 	0.67372 0.19058 0.77251 -0.10300
C 	C 	0.67530 0.20008 0.81346 0.07800
C 	C 	0.72561 0.28622 0.83716 0.00300
C 	C 	0.78403 0.36350 0.82066 -0.06500
C 	C 	0.69023 0.26198 0.71244 0.09700
C 	C 	0.62567 0.09783 0.74738 0.78900
H 	H 	0.63412 0.14089 0.82660 0.08000
C 	C 	0.85017 0.45649 0.84651 0.77900
H 	H 	0.81217 0.41363 0.76605 0.10700
C 	C 	0.61513 0.26063 0.69776 -0.11000
C 	C 	0.59415 0.25617 0.65713 0.07700
C 	C 	0.65122 0.26141 0.63161 -0.00200
C 	C 	0.72976 0.26839 0.64681 -0.06800
C 	C 	0.74615 0.26500 0.68690 0.03100
C 	C 	0.56131 0.27036 0.72565 0.78800
H 	H 	0.53404 0.25023 0.64526 0.08600
C 	C 	0.79427 0.27595 0.62035 0.77500
H 	H 	0.80351 0.26628 0.69855 0.11700
F 	F 	0.80385 0.49088 0.85538 -0.43300
F 	F 	0.91984 0.51520 0.82748 -0.42300
F 	F 	0.89000 0.45216 0.88120 -0.43400
F 	F 	0.68221 0.09983 0.72329 -0.42500
F 	F 	0.54584 0.07184 0.72411 -0.39600
F 	F 	0.60372 0.03353 0.77045 -0.42200
F 	F 	0.87618 0.30335 0.64228 -0.43200
F 	F 	0.81473 0.33869 0.59660 -0.46100
F 	F 	0.75363 0.19264 0.59696 -0.43400
F 	F 	0.48963 0.26527 0.70541 -0.42800
F 	F 	0.61848 0.35321 0.75090 -0.43300
F 	F 	0.52476 0.20260 0.74764 -0.40900
C 	C 	0.72977 0.40859 0.20462 0.04000
C 	C 	0.64246 0.36834 0.21361 0.08900
C 	C 	0.57003 0.34517 0.18396 -0.10300
C 	C 	0.58032 0.34097 0.14423 0.07900
C 	C 	0.66493 0.36963 0.13475 0.00500
C 	C 	0.74266 0.41438 0.16542 -0.06800
C 	C 	0.62629 0.34428 0.25311 0.09600
C 	C 	0.48260 0.32501 0.19458 0.79000
H 	H 	0.52180 0.31142 0.12076 0.08300
C 	C 	0.83874 0.46554 0.15666 0.77900
H 	H 	0.78684 0.43221 0.22790 0.10400
C 	C 	0.59602 0.25793 0.25989 -0.10900
C 	C 	0.58515 0.23910 0.29815 0.07400
C 	C 	0.61590 0.30783 0.33049 0.00100
C 	C 	0.65092 0.39590 0.32390 -0.07200
C 	C 	0.65091 0.41139 0.28489 0.03000
C 	C 	0.58326 0.18876 0.22732 0.78800
H 	H 	0.55660 0.17167 0.30323 0.08900
C 	C 	0.68699 0.47306 0.35800 0.77700
H 	H 	0.67331 0.47690 0.27923 0.11600
F 	F 	0.86191 0.40785 0.15149 -0.42600
F 	F 	0.90119 0.53599 0.18767 -0.42200
F 	F 	0.84514 0.50195 0.12303 -0.44800
F 	F 	0.50367 0.39211 0.22467 -0.42500
F 	F 	0.43242 0.24302 0.20694 -0.40000
F 	F 	0.42873 0.32144 0.16266 -0.42600
F 	F 	0.73294 0.55548 0.34581 -0.43800
F 	F 	0.74786 0.47849 0.38698 -0.46600
F 	F 	0.61454 0.45932 0.37374 -0.43600
F 	F 	0.55396 0.10923 0.24000 -0.42300
F 	F 	0.66557 0.22329 0.21518 -0.43200
F 	F 	0.51882 0.16784 0.19542 -0.40900
C 	C 	0.90308 0.76137 0.50438 -0.06000
C 	C 	0.86599 0.78965 0.47841 -0.02800
C 	C 	0.78039 0.72497 0.45304 0.11400
C 	C 	0.72889 0.63447 0.45738 -0.01700
C 	C 	0.76448 0.60663 0.48446 -0.07000
C 	C 	0.85440 0.66983 0.50666 0.13200
N 	N 	0.89515 0.64280 0.52924 -0.19800
H 	H 	0.97007 0.81077 0.52287 0.07000
H 	H 	0.66092 0.58557 0.43964 0.10600
N 	N 	0.74871 0.74880 0.42380 -0.19200
H 	H 	0.95991 0.69044 0.54690 0.11500
H 	H 	0.86547 0.57454 0.52789 0.10900
H 	H 	0.79001 0.81290 0.41663 0.11400
H 	H 	0.68365 0.70130 0.40636 0.13300
C 	C 	0.79065 0.01632 0.46067 -0.04000
C 	C 	0.86770 0.05261 0.48997 -0.03700
C 	C 	0.89257 0.12127 0.52169 0.11300
C 	C 	0.84245 0.15548 0.52216 -0.02200
C 	C 	0.76581 0.11951 0.49267 -0.07700
C 	C 	0.73886 0.04843 0.46186 0.11600
N 	N 	0.66393 0.01128 0.43317 -0.19200
H 	H 	0.77089 0.96274 0.43676 0.05300
H 	H 	0.86356 0.21068 0.54544 0.11100
N 	N 	0.96291 0.15328 0.55206 -0.19500
H 	H 	0.64548 0.95975 0.41023 0.09900
H 	H 	0.62262 0.03208 0.43352 0.08300
H 	H 	0.99692 0.12463 0.55433 0.11500
H 	H 	0.98224 0.20572 0.57470 0.13300
C 	C 	0.20912 0.14917 0.51272 -0.06300
C 	C 	0.14949 0.08675 0.47828 -0.02700
C 	C 	0.18492 0.06723 0.44801 0.10200
C 	C 	0.27768 0.10307 0.45456 -0.02500
C 	C 	0.33619 0.16120 0.49000 -0.08700
C 	C 	0.30205 0.18567 0.51924 0.13400
N 	N 	0.35730 0.24199 0.55399 -0.19900
H 	H 	0.18206 0.16508 0.53564 0.07100
H 	H 	0.30470 0.08692 0.43170 0.05900
N 	N 	0.13061 0.01561 0.41243 -0.18100
H 	H 	0.33168 0.26056 0.57509 0.11700
H 	H 	0.42542 0.26650 0.56079 0.10200
H 	H 	0.06390 0.99521 0.40542 0.10800
H 	H 	0.15619 0.99859 0.39070 0.10800
C 	C 	0.80309 0.70489 0.94232 -0.07200
C 	C 	0.86987 0.76782 0.97520 -0.00300
C 	C 	0.89937 0.73846 0.00482 0.07200
C 	C 	0.86587 0.64769 0.99958 0.00700
C 	C 	0.79973 0.58489 0.96650 -0.08300
C 	C 	0.76830 0.61382 0.93738 0.15400
N 	N 	0.70661 0.55521 0.90422 -0.19500
H 	H 	0.78063 0.72747 0.91967 0.07800
H 	H 	0.88863 0.62520 0.02215 0.05900
N 	N 	0.95705 0.79614 0.03889 -0.19000
H 	H 	0.68236 0.57672 0.88339 0.12800
H 	H 	0.68414 0.48874 0.89816 0.12900
H 	H 	0.97381 0.86034 0.04586 0.10300
H 	H 	0.98195 0.77531 0.05980 0.11900
C 	C 	0.85373 0.05603 0.01242 -0.08000
C 	C 	0.86332 0.02709 0.97579 0.00300
C 	C 	0.84363 0.05301 0.94163 0.09300
C 	C 	0.81985 0.11175 0.94521 -0.02100
C 	C 	0.81405 0.14376 0.98216 -0.08000
C 	C 	0.83273 0.11686 0.01626 0.12400
N 	N 	0.83489 0.15236 0.05288 -0.19700
H 	H 	0.86929 0.03643 0.03857 0.07700
H 	H 	0.80400 0.13105 0.91902 0.07300
N 	N 	0.84659 0.02110 0.90534 -0.18700
H 	H 	0.84457 0.12913 0.07766 0.11900
H 	H 	0.83205 0.20645 0.05739 0.08400
H 	H 	0.85806 0.97284 0.90142 0.10400
H 	H 	0.83460 0.04247 0.88037 0.12200
C 	C 	0.18162 0.12484 0.94645 -0.07300
C 	C 	0.15084 0.06959 0.97493 -0.00500
C 	C 	0.21499 0.07386 0.00292 0.07400
C 	C 	0.30737 0.12653 0.99929 0.01100
C 	C 	0.33803 0.18139 0.97067 -0.10300
C 	C 	0.27529 0.18450 0.94551 0.14900
N 	N 	0.30482 0.24746 0.92203 -0.20000
H 	H 	0.13278 0.12354 0.92577 0.07800
H 	H 	0.35593 0.12623 0.01935 0.04400
N 	N 	0.18920 0.03094 0.03416 -0.18800
H 	H 	0.25774 0.24544 0.90174 0.11700
H 	H 	0.37380 0.30274 0.92580 0.11400
H 	H 	0.12528 0.00408 0.04151 0.11500
H 	H 	0.23578 0.02984 0.05319 0.12300
