data_crystal

_cell_length_a 26.59376
_cell_length_b 25.95010
_cell_length_c 33.98778
_cell_angle_alpha 95.47822
_cell_angle_beta  95.47730
_cell_angle_gamma 125.84873

_symmetry_space_group_name_	'P 1'
_symmetry_space_group_name_H-M	'P 1'

loop_
_symmetry_equiv_pos_as_xyz
  x,y,z

loop_
_atom_site_label
_atom_site_type_symbol
_atom_site_fract_x
_atom_site_fract_y
_atom_site_fract_z
_atom_site_charge
C 	C 	0.95592 0.01435 0.99064 -0.05000
C 	C 	0.02000 0.04341 0.99046 0.08900
C 	C 	0.04300 0.00677 0.99295 -0.04200
C 	C 	0.00098 0.94031 0.99296 0.12500
C 	C 	0.93615 0.91017 0.98909 -0.01000
C 	C 	0.91375 0.94735 0.98868 0.11100
H 	H 	0.05179 0.09429 0.98892 0.11400
H 	H 	0.01853 0.91182 0.99489 0.10100
H 	H 	0.86373 0.92430 0.98690 0.12000
C 	C 	0.97454 0.04413 0.47131 -0.05000
C 	C 	0.94517 0.98102 0.47863 0.10500
C 	C 	0.97544 0.95149 0.47503 -0.01000
C 	C 	0.03536 0.98558 0.46449 0.12400
C 	C 	0.06617 0.04989 0.45946 -0.03000
C 	C 	0.03502 0.07843 0.46176 0.08700
H 	H 	0.89889 0.95489 0.48682 0.10200
H 	H 	0.05837 0.96253 0.46091 0.11600
H 	H 	0.05816 0.12757 0.45674 0.12700
Cu	Cu	0.61152 0.20063 0.99613 0.94300
Cu	Cu	0.64235 0.19844 0.90535 0.90100
Cu	Cu	0.63748 0.30212 0.94576 0.91400
Cu	Cu	0.62910 0.32812 0.03164 0.93000
C 	C 	0.65553 0.25532 0.08057 0.32300
O 	O 	0.52351 0.16797 0.00417 -0.27000
C 	C 	0.60908 0.26220 0.85767 0.30900
O 	O 	0.66690 0.30184 0.99940 -0.64000
O 	O 	0.59265 0.20682 0.94005 -0.63000
O 	O 	0.64336 0.14904 0.98554 -0.31800
O 	O 	0.70737 0.21282 0.94464 -0.34400
O 	O 	0.62811 0.28399 0.07660 -0.31000
O 	O 	0.68749 0.39538 0.95296 -0.31400
C 	C 	0.69463 0.43447 0.98455 0.30900
C 	C 	0.50122 0.20086 0.99778 0.28800
O 	O 	0.53906 0.26034 0.99162 -0.35500
O 	O 	0.66363 0.41238 0.01430 -0.30300
O 	O 	0.64356 0.20998 0.05144 -0.29400
C 	C 	0.69430 0.17320 0.96987 0.30000
O 	O 	0.61317 0.29994 0.88886 -0.33200
O 	O 	0.59946 0.20706 0.86112 -0.36800
H 	H 	0.71338 0.32741 0.00709 0.25400
H 	H 	0.54718 0.18106 0.92816 0.20300
Cu	Cu	0.74172 0.35352 0.45704 0.93700
Cu	Cu	0.72782 0.30658 0.54397 0.93500
Cu	Cu	0.63140 0.32893 0.49456 0.93800
Cu	Cu	0.64282 0.37276 0.41516 0.92600
C 	C 	0.71368 0.34003 0.37132 0.31100
O 	O 	0.79182 0.45109 0.46082 -0.31900
C 	C 	0.62521 0.29732 0.57151 0.30500
O 	O 	0.64520 0.31357 0.44186 -0.63000
O 	O 	0.72079 0.36036 0.51086 -0.61900
O 	O 	0.76869 0.29616 0.46298 -0.30400
O 	O 	0.80406 0.32708 0.53075 -0.32700
O 	O 	0.69660 0.37837 0.37642 -0.33000
O 	O 	0.54362 0.29220 0.47745 -0.29500
C 	C 	0.51967 0.29526 0.44267 0.30800
C 	C 	0.76766 0.48183 0.47035 0.29000
O 	O 	0.70615 0.44952 0.46661 -0.30700
O 	O 	0.55565 0.34053 0.42214 -0.31100
O 	O 	0.74610 0.33682 0.40163 -0.32200
C 	C 	0.80336 0.30102 0.49555 0.30000
O 	O 	0.61908 0.33273 0.54944 -0.31100
O 	O 	0.64451 0.26414 0.55709 -0.33600
H 	H 	0.61578 0.26779 0.42795 0.23600
H 	H 	0.74784 0.40545 0.52584 0.22100
C 	C 	0.65621 0.32278 0.76150 -0.06000
C 	C 	0.59704 0.28946 0.73624 0.03400
C 	C 	0.54152 0.25207 0.75220 0.07900
C 	C 	0.54588 0.24535 0.79259 0.00900
C 	C 	0.60510 0.27680 0.81735 -0.07200
C 	C 	0.66050 0.31723 0.80204 0.13600
C 	C 	0.59370 0.28911 0.69252 0.03300
N 	N 	0.48072 0.22037 0.72738 -0.01900
H 	H 	0.50321 0.21505 0.80454 0.09600
N 	N 	0.72131 0.35124 0.82732 -0.03100
H 	H 	0.69897 0.35209 0.74943 0.10800
C 	C 	0.61828 0.34688 0.67768 0.08400
C 	C 	0.62576 0.34837 0.63745 0.00000
C 	C 	0.60777 0.29241 0.61164 -0.06800
C 	C 	0.57773 0.23329 0.62560 0.14300
C 	C 	0.57210 0.23228 0.66612 -0.06200
N 	N 	0.63670 0.40437 0.70360 -0.01900
H 	H 	0.64707 0.39351 0.62656 0.11100
N 	N 	0.55166 0.17403 0.59852 -0.02500
H 	H 	0.55158 0.18738 0.67720 0.10800
O 	O 	0.76286 0.34394 0.81681 -0.03300
O 	O 	0.73672 0.39298 0.85929 -0.03400
O 	O 	0.43724 0.15888 0.72546 -0.02700
O 	O 	0.46770 0.25365 0.70848 -0.01600
O 	O 	0.56673 0.13636 0.60710 -0.01300
O 	O 	0.50955 0.15560 0.56674 -0.00100
O 	O 	0.69242 0.45844 0.70591 -0.01700
O 	O 	0.59665 0.40343 0.72331 -0.01400
C 	C 	0.74219 0.32729 0.18746 -0.05800
C 	C 	0.71018 0.27211 0.20508 0.03800
C 	C 	0.67072 0.21023 0.18027 0.08400
C 	C 	0.65753 0.20465 0.13848 0.01400
C 	C 	0.68400 0.26029 0.12134 -0.05400
C 	C 	0.72979 0.32164 0.14566 0.14500
C 	C 	0.70912 0.27986 0.24861 0.03600
N 	N 	0.64192 0.15309 0.19758 -0.01900
H 	H 	0.62411 0.15718 0.11966 0.11400
N 	N 	0.76225 0.37850 0.12806 -0.03100
H 	H 	0.77449 0.37484 0.20637 0.11600
C 	C 	0.76477 0.30940 0.27746 0.08100
C 	C 	0.76529 0.32663 0.31798 0.01000
C 	C 	0.71055 0.31389 0.33000 -0.06800
C 	C 	0.65392 0.28036 0.30155 0.14000
C 	C 	0.65369 0.26421 0.26103 -0.06000
N 	N 	0.82104 0.32289 0.26561 -0.01900
H 	H 	0.80864 0.35122 0.33991 0.10200
N 	N 	0.59647 0.26255 0.31378 -0.03200
H 	H 	0.61057 0.24056 0.23902 0.11600
O 	O 	0.76687 0.42934 0.14332 -0.00700
O 	O 	0.78924 0.38028 0.09770 0.00700
O 	O 	0.58168 0.10696 0.18673 -0.01400
O 	O 	0.67632 0.14615 0.22309 -0.02200
O 	O 	0.56384 0.27925 0.29613 -0.02500
O 	O 	0.57463 0.22594 0.34062 -0.03200
O 	O 	0.87423 0.38052 0.27670 -0.01600
O 	O 	0.81980 0.27675 0.24557 -0.01700
C 	C 	0.94174 0.80396 0.51396 0.07300
C 	C 	0.89174 0.75401 0.48384 0.07600
C 	C 	0.86332 0.76849 0.45388 -0.06200
C 	C 	0.89124 0.83366 0.45168 0.02300
C 	C 	0.94323 0.88380 0.48076 0.12100
C 	C 	0.96573 0.86872 0.51392 -0.12600
C 	C 	0.86752 0.68629 0.48514 0.10500
C 	C 	0.80190 0.71482 0.42560 0.78200
H 	H 	0.87302 0.84567 0.42719 0.14200
C 	C 	0.01705 0.92132 0.54839 0.81300
H 	H 	0.96200 0.79224 0.53743 0.12400
C 	C 	0.88977 0.65658 0.46328 -0.09600
C 	C 	0.85823 0.58946 0.46006 0.08200
C 	C 	0.80914 0.55345 0.48123 0.01200
C 	C 	0.79577 0.58631 0.50911 -0.05900
C 	C 	0.82236 0.65163 0.50888 0.04000
C 	C 	0.94755 0.69639 0.44418 0.79100
H 	H 	0.87027 0.56478 0.44005 0.10700
C 	C 	0.75318 0.55246 0.53891 0.78100
H 	H 	0.80765 0.67555 0.52702 0.13400
F 	F 	0.07544 0.94886 0.53773 -0.35600
F 	F 	0.01590 0.89614 0.58271 -0.35600
F 	F 	0.00893 0.96877 0.55783 -0.35900
F 	F 	0.75538 0.67981 0.44772 -0.39300
F 	F 	0.80989 0.67371 0.40307 -0.37600
F 	F 	0.78126 0.73908 0.39928 -0.36500
F 	F 	0.76755 0.59666 0.57249 -0.38700
F 	F 	0.76073 0.50814 0.55197 -0.44800
F 	F 	0.69087 0.52114 0.52104 -0.40300
F 	F 	0.96417 0.65921 0.42675 -0.38300
F 	F 	0.99832 0.74557 0.47321 -0.39500
F 	F 	0.93585 0.72313 0.41467 -0.37200
C 	C 	0.81932 0.16572 0.50056 0.03800
C 	C 	0.87747 0.19220 0.48848 0.10000
C 	C 	0.91122 0.25449 0.47813 -0.08900
C 	C 	0.88587 0.28924 0.48063 0.07900
C 	C 	0.82848 0.26334 0.49368 0.01100
C 	C 	0.79419 0.20056 0.50326 -0.05900
C 	C 	0.90095 0.15264 0.48483 0.07800
C 	C 	0.97193 0.28215 0.46194 0.75700
H 	H 	0.91048 0.33638 0.47213 0.10200
C 	C 	0.73160 0.17130 0.51724 0.77500
H 	H 	0.79370 0.11771 0.50783 0.13100
C 	C 	0.93379 0.14967 0.51888 -0.06800
C 	C 	0.95457 0.11093 0.51405 0.02200
C 	C 	0.94374 0.07610 0.47612 0.11300
C 	C 	0.90813 0.07643 0.44255 -0.10600
C 	C 	0.88731 0.11513 0.44731 0.06000
C 	C 	0.94385 0.18497 0.56059 0.78200
H 	H 	0.98025 0.10857 0.53968 0.13500
C 	C 	0.89370 0.03686 0.40154 0.75500
H 	H 	0.86079 0.11664 0.42178 0.12500
F 	F 	0.74179 0.20588 0.55446 -0.44600
F 	F 	0.70244 0.10736 0.52077 -0.38900
F 	F 	0.69077 0.17309 0.49000 -0.44000
F 	F 	0.95814 0.24801 0.42378 -0.39400
F 	F 	0.01326 0.27787 0.48670 -0.34200
F 	F 	0.00239 0.34671 0.45963 -0.35200
F 	F 	0.86612 0.97309 0.40459 -0.35900
F 	F 	0.94902 0.06174 0.38700 -0.39800
F 	F 	0.85251 0.03772 0.37393 -0.38200
F 	F 	0.98450 0.18375 0.58845 -0.37100
F 	F 	0.88662 0.15569 0.57323 -0.39700
F 	F 	0.96963 0.24912 0.56008 -0.37300
C 	C 	0.24488 0.16612 0.47427 0.06400
C 	C 	0.25441 0.15776 0.43502 0.07800
C 	C 	0.20188 0.11421 0.40350 -0.06400
C 	C 	0.14074 0.07861 0.41243 0.02300
C 	C 	0.13127 0.08740 0.45164 0.11700
C 	C 	0.18373 0.13133 0.48306 -0.10300
C 	C 	0.31998 0.19139 0.42806 0.10700
C 	C 	0.21092 0.10208 0.36099 0.78200
H 	H 	0.10024 0.04359 0.38893 0.13000
C 	C 	0.17456 0.14276 0.52565 0.79100
H 	H 	0.28553 0.19949 0.49803 0.12700
C 	C 	0.35873 0.25864 0.42750 -0.09600
C 	C 	0.42423 0.29174 0.43063 0.08500
C 	C 	0.45062 0.25824 0.43181 0.01400
C 	C 	0.41068 0.18994 0.42683 -0.05800
C 	C 	0.34612 0.15760 0.42720 0.03700
C 	C 	0.33170 0.29649 0.42760 0.79100
H 	H 	0.45510 0.34402 0.43404 0.11700
C 	C 	0.43708 0.15168 0.42337 0.77800
H 	H 	0.31638 0.10637 0.42811 0.13300
F 	F 	0.14667 0.17398 0.52666 -0.38100
F 	F 	0.23139 0.18066 0.55269 -0.37300
F 	F 	0.13648 0.08452 0.53834 -0.38100
F 	F 	0.23097 0.06349 0.35931 -0.38800
F 	F 	0.25518 0.15970 0.34946 -0.36000
F 	F 	0.15513 0.07104 0.33345 -0.36300
F 	F 	0.46409 0.15477 0.46120 -0.41400
F 	F 	0.48220 0.17632 0.39919 -0.42400
F 	F 	0.39002 0.08733 0.40641 -0.37600
F 	F 	0.37135 0.35446 0.41484 -0.36500
F 	F 	0.32464 0.30981 0.46619 -0.38400
F 	F 	0.27369 0.26184 0.40206 -0.36000
C 	C 	0.84169 0.73029 0.95023 0.06900
C 	C 	0.82024 0.70561 0.98485 0.07200
C 	C 	0.83318 0.74806 0.02036 -0.05700
C 	C 	0.87032 0.81501 0.02082 0.03000
C 	C 	0.89174 0.83952 0.98617 0.11400
C 	C 	0.87444 0.79660 0.94986 -0.10600
C 	C 	0.78741 0.63566 0.98419 0.10800
C 	C 	0.81195 0.72283 0.05865 0.78100
H 	H 	0.88415 0.84845 0.04845 0.15100
C 	C 	0.89357 0.82162 0.91123 0.79200
H 	H 	0.83305 0.69762 0.92363 0.12700
C 	C 	0.72252 0.58968 0.96681 -0.09600
C 	C 	0.69380 0.52360 0.96580 0.08500
C 	C 	0.72798 0.50325 0.98286 0.01200
C 	C 	0.79288 0.54894 0.99965 -0.05500
C 	C 	0.82222 0.61492 0.99965 0.03000
C 	C 	0.68478 0.61049 0.94733 0.79000
H 	H 	0.64452 0.48769 0.95202 0.10500
C 	C 	0.83052 0.52733 0.01790 0.78400
H 	H 	0.87213 0.65052 0.01192 0.14000
F 	F 	0.85992 0.77194 0.87798 -0.36600
F 	F 	0.95718 0.85076 0.91299 -0.40600
F 	F 	0.88191 0.86614 0.90580 -0.38600
F 	F 	0.84918 0.70666 0.07556 -0.38300
F 	F 	0.74946 0.66881 0.05056 -0.36300
F 	F 	0.81714 0.76893 0.08660 -0.35200
F 	F 	0.89357 0.57869 0.03142 -0.37200
F 	F 	0.82718 0.48314 0.98939 -0.40600
F 	F 	0.80593 0.49853 0.05022 -0.40300
F 	F 	0.62067 0.56051 0.93891 -0.37200
F 	F 	0.70386 0.62957 0.91165 -0.38700
F 	F 	0.69379 0.66142 0.97256 -0.36300
C 	C 	0.84201 0.18521 0.99979 0.03800
C 	C 	0.81866 0.12053 0.98816 0.09100
C 	C 	0.75276 0.07175 0.97589 -0.07600
C 	C 	0.71244 0.09000 0.97091 0.06400
C 	C 	0.73644 0.15520 0.98019 0.01100
C 	C 	0.80100 0.20275 0.99756 -0.06300
C 	C 	0.86348 0.10408 0.99043 0.07400
C 	C 	0.72530 0.00046 0.96969 0.66900
H 	H 	0.66245 0.05373 0.95916 0.09700
C 	C 	0.82667 0.27235 0.01286 0.78700
H 	H 	0.89229 0.22187 0.01034 0.13900
C 	C 	0.88950 0.10077 0.95667 -0.07200
C 	C 	0.92204 0.07331 0.95770 0.02500
C 	C 	0.93270 0.05395 0.99272 0.11100
C 	C 	0.91541 0.06712 0.02836 -0.09700
C 	C 	0.87896 0.09011 0.02645 0.06300
C 	C 	0.88301 0.12685 0.91987 0.78300
H 	H 	0.93751 0.06514 0.93101 0.12200
C 	C 	0.93258 0.05334 0.06787 0.75100
H 	H 	0.86081 0.09522 0.05259 0.12100
F 	F 	0.83530 0.30382 0.98073 -0.39500
F 	F 	0.88406 0.30528 0.03900 -0.38300
F 	F 	0.78527 0.27445 0.03347 -0.43200
F 	F 	0.73938 0.98607 0.00535 -0.33400
F 	F 	0.75035 0.98629 0.94045 -0.31800
F 	F 	0.66026 0.96078 0.95769 -0.32500
F 	F 	0.92762 0.08579 0.10023 -0.37300
F 	F 	0.99416 0.07341 0.07334 -0.37000
F 	F 	0.89232 0.98769 0.06781 -0.34300
F 	F 	0.91524 0.12305 0.89144 -0.38200
F 	F 	0.90750 0.19115 0.93109 -0.39600
F 	F 	0.82010 0.09187 0.90211 -0.38700
C 	C 	0.33328 0.09724 0.01793 0.03200
C 	C 	0.30507 0.11763 0.99351 0.10900
C 	C 	0.34201 0.16781 0.97224 -0.10100
C 	C 	0.40451 0.19028 0.97164 0.08200
C 	C 	0.43343 0.17100 0.99675 0.00000
C 	C 	0.39843 0.12743 0.02254 -0.05100
C 	C 	0.23779 0.08920 0.99282 0.05100
C 	C 	0.31668 0.20082 0.95301 0.79200
H 	H 	0.43144 0.22426 0.95248 0.09700
C 	C 	0.42990 0.11412 0.05557 0.77600
H 	H 	0.30467 0.05927 0.03448 0.13000
C 	C 	0.18969 0.03679 0.96228 -0.02100
C 	C 	0.12692 0.01445 0.96130 -0.06700
C 	C 	0.11056 0.03680 0.99327 0.14400
C 	C 	0.15807 0.08324 0.02657 -0.12000
C 	C 	0.22167 0.11230 0.02445 0.08600
C 	C 	0.20443 0.00125 0.93307 0.69500
H 	H 	0.09016 0.97783 0.93643 0.20400
C 	C 	0.14163 0.10223 0.06423 0.79700
H 	H 	0.25885 0.15191 0.04797 0.12400
F 	F 	0.44094 0.07162 0.03902 -0.39700
F 	F 	0.39195 0.08662 0.08377 -0.39000
F 	F 	0.48628 0.17097 0.07577 -0.42100
F 	F 	0.30136 0.22767 0.98219 -0.39300
F 	F 	0.26334 0.15662 0.92403 -0.37300
F 	F 	0.36074 0.24989 0.93483 -0.38500
F 	F 	0.19153 0.13231 0.09648 -0.36900
F 	F 	0.09034 0.04823 0.07505 -0.37900
F 	F 	0.12782 0.14470 0.05741 -0.36800
F 	F 	0.15080 0.95048 0.90637 -0.32000
F 	F 	0.22984 0.97617 0.95430 -0.34000
F 	F 	0.24727 0.04297 0.91095 -0.37300
