data_crystal

_cell_length_a 18.61024
_cell_length_b 18.78029
_cell_length_c 34.57059
_cell_angle_alpha 95.42289
_cell_angle_beta  95.42450
_cell_angle_gamma 126.41592

_symmetry_space_group_name_	'P 1'
_symmetry_space_group_name_H-M	'P 1'

loop_
_symmetry_equiv_pos_as_xyz
  x,y,z

loop_
_atom_site_label
_atom_site_type_symbol
_atom_site_fract_x
_atom_site_fract_y
_atom_site_fract_z
_atom_site_charge
C 	C 	0.91443 0.01126 0.97977 0.06500
C 	C 	0.00866 0.06745 0.98178 -0.07300
C 	C 	0.05538 0.03065 0.97885 0.06700
C 	C 	0.00794 0.93735 0.97492 -0.06800
C 	C 	0.91447 0.88110 0.97503 0.06600
C 	C 	0.86712 0.91783 0.97670 -0.06800
H 	H 	0.04526 0.13961 0.98458 0.07200
H 	H 	0.04370 0.90855 0.97183 0.07500
H 	H 	0.79430 0.87419 0.97559 0.07500
C 	C 	0.95473 0.03040 0.48551 0.06600
C 	C 	0.04896 0.07766 0.48887 -0.07200
C 	C 	0.08663 0.03158 0.49138 0.06700
C 	C 	0.03016 0.93874 0.49104 -0.06700
C 	C 	0.93593 0.89127 0.48694 0.06700
C 	C 	0.89836 0.93718 0.48398 -0.07500
H 	H 	0.09263 0.14973 0.48969 0.07300
H 	H 	0.05953 0.90356 0.49402 0.07800
H 	H 	0.82549 0.90064 0.48111 0.07200
Cu	Cu	0.75299 0.34520 0.96013 0.93000
Cu	Cu	0.72255 0.27157 0.04368 0.87100
Cu	Cu	0.61644 0.32684 0.00748 0.89700
Cu	Cu	0.57966 0.32761 0.92131 0.90900
C 	C 	0.69397 0.30508 0.87561 0.30000
O 	O 	0.79954 0.47357 0.95546 -0.34200
C 	C 	0.64982 0.33762 0.09257 0.29100
O 	O 	0.61198 0.27430 0.95500 -0.63500
O 	O 	0.74237 0.36497 0.01557 -0.64300
O 	O 	0.81495 0.28866 0.96933 -0.34800
O 	O 	0.70510 0.18854 0.00090 -0.43500
O 	O 	0.65628 0.34533 0.88134 -0.36500
O 	O 	0.49690 0.30017 0.99889 -0.37000
C 	C 	0.43347 0.25161 0.96682 0.30900
C 	C 	0.75482 0.50572 0.96427 0.29400
O 	O 	0.66741 0.45059 0.96513 -0.38300
O 	O 	0.45448 0.25298 0.93145 -0.36800
O 	O 	0.74348 0.30477 0.90537 -0.34300
C 	C 	0.77172 0.21172 0.98200 0.31100
O 	O 	0.62341 0.36264 0.06346 -0.37000
O 	O 	0.71366 0.32730 0.09059 -0.40900
H 	H 	0.57257 0.20762 0.94945 0.16600
H 	H 	0.78792 0.42732 0.03050 0.17800
Cu	Cu	0.62792 0.20059 0.50394 0.93100
Cu	Cu	0.70020 0.22855 0.41986 0.87200
Cu	Cu	0.64563 0.33513 0.45654 0.90200
Cu	Cu	0.64359 0.37029 0.54242 0.90700
C 	C 	0.65713 0.25021 0.58845 0.30400
O 	O 	0.49897 0.15414 0.50867 -0.35800
C 	C 	0.63385 0.30152 0.37140 0.29100
O 	O 	0.69889 0.33978 0.50901 -0.63600
O 	O 	0.60727 0.21037 0.44847 -0.64200
O 	O 	0.68373 0.13842 0.49491 -0.35200
O 	O 	0.78421 0.24523 0.46234 -0.43100
O 	O 	0.62238 0.29322 0.58255 -0.38100
O 	O 	0.67222 0.45347 0.46505 -0.36800
C 	C 	0.71920 0.51593 0.49737 0.31000
C 	C 	0.46565 0.19687 0.49858 0.29900
O 	O 	0.52060 0.28368 0.49803 -0.38200
O 	O 	0.71840 0.49459 0.53261 -0.36800
O 	O 	0.66920 0.21145 0.55869 -0.34900
C 	C 	0.76048 0.17969 0.48162 0.31300
O 	O 	0.60890 0.32783 0.40060 -0.35800
O 	O 	0.64342 0.23763 0.37319 -0.40400
H 	H 	0.76619 0.37933 0.51471 0.17000
H 	H 	0.54416 0.16509 0.43376 0.19100
C 	C 	0.70476 0.28652 0.83508 -0.09200
C 	C 	0.66064 0.19729 0.81495 0.13300
C 	C 	0.66166 0.18169 0.77450 -0.09100
C 	C 	0.70121 0.25278 0.75346 0.00200
C 	C 	0.74640 0.34221 0.77385 0.07100
C 	C 	0.75118 0.35824 0.81480 -0.02000
N 	N 	0.61518 0.12628 0.83387 -0.20000
H 	H 	0.62781 0.11345 0.75892 0.06500
C 	C 	0.68609 0.23159 0.70967 0.00400
N 	N 	0.78258 0.41240 0.75421 -0.19200
H 	H 	0.78685 0.42667 0.83055 0.07000
C 	C 	0.59955 0.19232 0.68779 -0.09500
C 	C 	0.58659 0.18720 0.64671 0.13800
C 	C 	0.66271 0.22789 0.62781 -0.10100
C 	C 	0.74735 0.25890 0.64894 -0.02200
C 	C 	0.75895 0.25813 0.68964 0.06900
H 	H 	0.54258 0.16740 0.70286 0.06500
N 	N 	0.50111 0.14232 0.62549 -0.20300
H 	H 	0.80508 0.28719 0.63416 0.06100
N 	N 	0.84027 0.28480 0.70942 -0.19200
H 	H 	0.44566 0.11634 0.63982 0.10100
H 	H 	0.48840 0.12859 0.59461 0.11000
H 	H 	0.89473 0.30742 0.69472 0.10000
H 	H 	0.84922 0.28037 0.73913 0.10100
H 	H 	0.81809 0.47826 0.76978 0.10100
H 	H 	0.77321 0.40248 0.72341 0.09700
H 	H 	0.61179 0.13526 0.86372 0.10200
H 	H 	0.58254 0.06064 0.81868 0.10000
C 	C 	0.62233 0.34004 0.13087 -0.10200
C 	C 	0.56659 0.25984 0.14572 0.12500
C 	C 	0.56041 0.26510 0.18589 -0.09100
C 	C 	0.60650 0.34895 0.21099 0.00300
C 	C 	0.65291 0.42860 0.19496 0.06600
C 	C 	0.66166 0.42349 0.15505 -0.01800
N 	N 	0.51908 0.17781 0.12161 -0.20200
H 	H 	0.52217 0.20391 0.19794 0.06400
C 	C 	0.61738 0.35313 0.25436 0.00100
N 	N 	0.68917 0.50978 0.21768 -0.19200
H 	H 	0.70163 0.48476 0.14319 0.05300
C 	C 	0.70057 0.38030 0.27540 -0.09000
C 	C 	0.70913 0.37050 0.31492 0.12400
C 	C 	0.63197 0.32946 0.33316 -0.09800
C 	C 	0.55037 0.30775 0.31303 -0.02000
C 	C 	0.54274 0.32058 0.27387 0.06900
H 	H 	0.75837 0.40752 0.26071 0.06200
N 	N 	0.79163 0.40129 0.33528 -0.20000
H 	H 	0.49205 0.27882 0.32748 0.06500
N 	N 	0.46410 0.30201 0.25531 -0.19200
H 	H 	0.84756 0.42868 0.32120 0.09100
H 	H 	0.80196 0.40166 0.36554 0.07100
H 	H 	0.40834 0.27537 0.26947 0.10100
H 	H 	0.45856 0.31665 0.22728 0.10000
H 	H 	0.72601 0.56871 0.20604 0.09900
H 	H 	0.67833 0.51478 0.24658 0.10000
H 	H 	0.51742 0.17181 0.09114 0.07400
H 	H 	0.48032 0.11879 0.13305 0.09400
C 	C 	0.82853 0.76500 0.51931 -0.07900
C 	C 	0.87705 0.79445 0.48837 -0.00700
C 	C 	0.86873 0.73131 0.45904 0.08600
C 	C 	0.81738 0.64071 0.46246 -0.01700
C 	C 	0.77028 0.61136 0.49387 -0.09700
C 	C 	0.77278 0.67362 0.52146 0.14500
Br	Br	0.69358 0.63483 0.55941 -0.22800
H 	H 	0.83270 0.81310 0.54129 0.07900
H 	H 	0.81377 0.59290 0.44054 0.05700
Br	Br	0.92259 0.76648 0.41297 -0.22400
C 	C 	0.89946 0.10601 0.52017 -0.08200
C 	C 	0.91478 0.07847 0.48479 -0.00700
C 	C 	0.88144 0.08660 0.44855 0.08400
C 	C 	0.83095 0.11955 0.44789 -0.01500
C 	C 	0.81313 0.14451 0.48317 -0.10800
C 	C 	0.84905 0.13913 0.51957 0.14700
Br	Br	0.83288 0.17938 0.56879 -0.23100
H 	H 	0.92531 0.10005 0.54813 0.08000
H 	H 	0.80467 0.12487 0.41986 0.03900
Br	Br	0.90297 0.05154 0.39962 -0.22300
C 	C 	0.22246 0.10129 0.45965 -0.07700
C 	C 	0.18517 0.08002 0.49400 -0.00700
C 	C 	0.24035 0.09681 0.52974 0.08600
C 	C 	0.33118 0.13208 0.53056 -0.01700
C 	C 	0.36824 0.15250 0.49615 -0.09600
C 	C 	0.31374 0.13770 0.46060 0.14200
Br	Br	0.36206 0.16441 0.41283 -0.24400
H 	H 	0.18005 0.08793 0.43203 0.08500
H 	H 	0.37357 0.14553 0.55820 0.05900
Br	Br	0.19337 0.07398 0.57792 -0.22900
C 	C 	0.82297 0.65628 0.00403 -0.02100
C 	C 	0.79893 0.60250 0.96703 -0.09000
C 	C 	0.80756 0.63925 0.93251 0.14100
C 	C 	0.84086 0.72914 0.93532 -0.08000
C 	C 	0.86627 0.78336 0.97233 -0.00400
C 	C 	0.85701 0.74653 0.00685 0.08600
Br	Br	0.89163 0.81881 0.05808 -0.19800
H 	H 	0.81489 0.62791 0.03062 0.05700
H 	H 	0.84874 0.75745 0.90873 0.07500
Br	Br	0.77332 0.56762 0.88118 -0.24000
C 	C 	0.84916 0.07556 0.94441 -0.08200
C 	C 	0.86552 0.05072 0.97929 -0.00500
C 	C 	0.84952 0.07763 0.01477 0.08100
C 	C 	0.82003 0.13104 0.01534 -0.01800
C 	C 	0.80636 0.15839 0.98072 -0.10300
C 	C 	0.82005 0.12937 0.94493 0.14400
Br	Br	0.79817 0.16082 0.89633 -0.22800
H 	H 	0.86172 0.05524 0.91704 0.07500
H 	H 	0.80856 0.15208 0.04287 0.04000
Br	Br	0.87008 0.04415 0.06301 -0.21100
C 	C 	0.18075 0.13726 0.94562 -0.08100
C 	C 	0.15272 0.08926 0.97667 -0.00500
C 	C 	0.21790 0.09908 0.00574 0.08300
C 	C 	0.30926 0.15202 0.00209 -0.02000
C 	C 	0.33723 0.19897 0.97066 -0.09500
C 	C 	0.27274 0.19445 0.94325 0.14400
Br	Br	0.30914 0.27281 0.90529 -0.22700
H 	H 	0.13105 0.13181 0.92382 0.07600
H 	H 	0.35873 0.15700 0.02383 0.05500
Br	Br	0.18444 0.04509 0.05179 -0.21500
