data_crystal

_cell_length_a 25.94359
_cell_length_b 26.56659
_cell_length_c 34.95627
_cell_angle_alpha 95.49938
_cell_angle_beta  95.49762
_cell_angle_gamma 125.83935

_symmetry_space_group_name_	'P 1'
_symmetry_space_group_name_H-M	'P 1'

loop_
_symmetry_equiv_pos_as_xyz
  x,y,z

loop_
_atom_site_label
_atom_site_type_symbol
_atom_site_fract_x
_atom_site_fract_y
_atom_site_fract_z
_atom_site_charge
C 	C 	0.96152 0.02874 0.98999 0.11300
N 	N 	0.92542 0.96478 0.98111 -0.12000
C 	C 	0.95278 0.93661 0.96964 0.12600
N 	N 	0.01658 0.97274 0.96766 -0.11600
C 	C 	0.05383 0.03633 0.97956 0.12600
N 	N 	0.02609 0.06454 0.99006 -0.12100
C 	C 	0.93911 0.99066 0.46095 0.15200
N 	N 	0.00482 0.02757 0.46800 -0.13100
C 	C 	0.03606 0.00127 0.47355 0.12700
N 	N 	0.00160 0.93809 0.47223 -0.11600
C 	C 	0.93596 0.90104 0.46530 0.12900
N 	N 	0.90460 0.92729 0.45954 -0.13000
Cu	Cu	0.65776 0.27437 0.01036 0.92600
Cu	Cu	0.68521 0.23910 0.92629 0.88000
Cu	Cu	0.67046 0.35241 0.94853 0.91500
Cu	Cu	0.64035 0.38308 0.02462 0.90300
C 	C 	0.66216 0.32455 0.08788 0.28400
O 	O 	0.56253 0.22435 0.01373 -0.35500
C 	C 	0.69040 0.32019 0.87563 0.28500
O 	O 	0.69470 0.36716 0.00380 -0.64000
O 	O 	0.63783 0.26390 0.95250 -0.62900
O 	O 	0.71639 0.24843 0.01579 -0.36300
O 	O 	0.67183 0.17981 0.95752 -0.40900
O 	O 	0.65811 0.36947 0.07835 -0.36100
O 	O 	0.70868 0.43970 0.94738 -0.36700
C 	C 	0.69588 0.47289 0.96935 0.29100
C 	C 	0.52825 0.24325 0.00130 0.28700
O 	O 	0.55632 0.29649 0.98850 -0.38000
O 	O 	0.65262 0.44635 0.99218 -0.37200
O 	O 	0.68476 0.30119 0.06575 -0.35400
C 	C 	0.70619 0.19989 0.99295 0.29600
O 	O 	0.65763 0.33624 0.89231 -0.37100
O 	O 	0.72457 0.30756 0.89713 -0.41900
H 	H 	0.74151 0.40037 0.01382 0.17500
H 	H 	0.59085 0.23345 0.94181 0.16900
Cu	Cu	0.73376 0.32761 0.44760 0.93000
Cu	Cu	0.76200 0.29238 0.53072 0.87800
Cu	Cu	0.64990 0.29559 0.51036 0.90000
Cu	Cu	0.60758 0.31936 0.43574 0.90200
C 	C 	0.66441 0.30064 0.36987 0.28500
O 	O 	0.76576 0.41787 0.44605 -0.34800
C 	C 	0.71717 0.32483 0.59238 0.28400
O 	O 	0.63662 0.27443 0.45458 -0.64000
O 	O 	0.74297 0.34252 0.50526 -0.63800
O 	O 	0.78291 0.29161 0.44311 -0.35700
O 	O 	0.73450 0.22848 0.48719 -0.42700
O 	O 	0.63781 0.32618 0.38463 -0.36800
O 	O 	0.55808 0.24529 0.51122 -0.36900
C 	C 	0.51512 0.24583 0.48804 0.29400
C 	C 	0.74058 0.44224 0.46389 0.28700
O 	O 	0.68572 0.40496 0.47572 -0.37900
O 	O 	0.53233 0.28482 0.46295 -0.37500
O 	O 	0.70812 0.29976 0.39201 -0.35400
C 	C 	0.76692 0.24216 0.45852 0.29200
O 	O 	0.66315 0.30332 0.56795 -0.37500
O 	O 	0.76833 0.33592 0.57946 -0.40700
H 	H 	0.60834 0.22849 0.44377 0.17600
H 	H 	0.77019 0.38753 0.51824 0.18400
C 	C 	0.69911 0.32844 0.83499 -0.07000
C 	C 	0.75539 0.34213 0.82288 0.00600
C 	C 	0.76294 0.34794 0.78417 -0.04800
C 	C 	0.71254 0.33684 0.75630 0.00900
C 	C 	0.65878 0.32926 0.76938 0.01500
C 	C 	0.65162 0.32362 0.80841 -0.01400
C 	C 	0.61340 0.32850 0.74355 -0.03400
C 	C 	0.62017 0.33401 0.70475 -0.03500
C 	C 	0.67008 0.33634 0.69040 0.01500
C 	C 	0.71543 0.33537 0.71576 0.00900
C 	C 	0.75908 0.32815 0.69957 -0.04800
C 	C 	0.76125 0.32756 0.65982 0.00500
C 	C 	0.71829 0.33140 0.63501 -0.06600
C 	C 	0.67314 0.33637 0.65047 -0.01500
H 	H 	0.79412 0.34978 0.84372 0.04300
H 	H 	0.80914 0.36423 0.77666 0.04900
H 	H 	0.60909 0.31522 0.81801 0.05400
H 	H 	0.57309 0.32436 0.75368 0.05200
H 	H 	0.58520 0.33442 0.68543 0.05200
H 	H 	0.78845 0.31892 0.71691 0.04700
H 	H 	0.79468 0.32136 0.64799 0.03800
H 	H 	0.63936 0.33865 0.63133 0.05500
C 	C 	0.65841 0.31346 0.12832 -0.05600
C 	C 	0.60891 0.30695 0.14577 0.00600
C 	C 	0.60618 0.29877 0.18459 -0.04300
C 	C 	0.65221 0.29493 0.20637 0.01000
C 	C 	0.70416 0.30485 0.18927 0.01700
C 	C 	0.70578 0.31206 0.15003 -0.01400
C 	C 	0.75564 0.31084 0.21211 -0.03400
C 	C 	0.75763 0.30998 0.25204 -0.03400
C 	C 	0.70621 0.29905 0.26934 0.01600
C 	C 	0.65092 0.28679 0.24602 0.01100
C 	C 	0.59555 0.26541 0.26268 -0.04500
C 	C 	0.59922 0.26715 0.30296 0.00800
C 	C 	0.65704 0.28750 0.32693 -0.06000
C 	C 	0.70945 0.30048 0.30982 -0.01400
H 	H 	0.57294 0.30925 0.12940 0.04800
H 	H 	0.57058 0.29912 0.19805 0.05300
H 	H 	0.74516 0.31893 0.13686 0.05800
H 	H 	0.79547 0.31850 0.19917 0.05200
H 	H 	0.79922 0.31753 0.26954 0.05200
H 	H 	0.54919 0.24523 0.24458 0.05200
H 	H 	0.55713 0.25307 0.31562 0.04100
H 	H 	0.75334 0.31365 0.32804 0.05900
C 	C 	0.84086 0.73957 0.49388 -0.02300
C 	C 	0.84469 0.70386 0.46325 0.01400
C 	C 	0.87341 0.73158 0.43162 -0.02300
C 	C 	0.89958 0.79528 0.43109 -0.00300
C 	C 	0.89892 0.83197 0.46275 -0.01200
C 	C 	0.86837 0.80372 0.49377 -0.00300
C 	C 	0.81761 0.63654 0.46402 0.02700
C 	C 	0.87643 0.69462 0.39983 0.10100
C 	C 	0.86651 0.84101 0.52597 0.10300
C 	C 	0.75394 0.58747 0.44444 -0.03700
C 	C 	0.72919 0.52386 0.44372 0.02500
C 	C 	0.76723 0.50913 0.46396 -0.07500
C 	C 	0.83065 0.55829 0.48407 0.02400
C 	C 	0.85604 0.62193 0.48374 -0.03700
C 	C 	0.71397 0.60256 0.42494 0.10600
C 	C 	0.86931 0.54345 0.50560 0.08200
C 	C 	0.66527 0.47358 0.42129 0.07800
C 	C 	0.92170 0.67242 0.50362 0.10400
C 	C 	0.80899 0.71033 0.52557 0.10200
C 	C 	0.92706 0.82315 0.39793 0.10100
N 	N 	0.61426 0.43354 0.40338 -0.11700
N 	N 	0.68215 0.61468 0.40939 -0.10200
N 	N 	0.90014 0.53158 0.52278 -0.10900
N 	N 	0.97409 0.71278 0.51948 -0.10300
N 	N 	0.87880 0.66505 0.37449 -0.10200
N 	N 	0.94901 0.84548 0.37151 -0.09500
N 	N 	0.86504 0.87076 0.55168 -0.09200
N 	N 	0.78355 0.68692 0.55084 -0.10100
C 	C 	0.86951 0.06607 0.41294 -0.03000
C 	C 	0.85499 0.08828 0.44540 0.01800
C 	C 	0.86296 0.07365 0.48226 -0.03000
C 	C 	0.88865 0.03981 0.48711 0.00200
C 	C 	0.90536 0.01960 0.45496 -0.03400
C 	C 	0.89401 0.03114 0.41764 0.00800
C 	C 	0.83310 0.12884 0.44115 0.02000
C 	C 	0.84522 0.09396 0.51522 0.09800
C 	C 	0.90740 0.00691 0.38412 0.07900
C 	C 	0.76658 0.10089 0.43072 -0.03200
C 	C 	0.74523 0.13905 0.43266 0.02100
C 	C 	0.79017 0.20495 0.44613 -0.08000
C 	C 	0.85714 0.23337 0.45305 0.01700
C 	C 	0.87855 0.19528 0.45023 -0.03300
C 	C 	0.72013 0.03284 0.41877 0.08700
C 	C 	0.90385 0.30149 0.46442 0.07700
C 	C 	0.67708 0.11065 0.42087 0.08500
C 	C 	0.94725 0.22425 0.45747 0.08800
C 	C 	0.85980 0.07972 0.37486 0.10200
C 	C 	0.89898 0.02675 0.52530 0.09100
N 	N 	0.62271 0.08802 0.41147 -0.10600
N 	N 	0.68313 0.97853 0.40924 -0.08700
N 	N 	0.94114 0.35585 0.47350 -0.10600
N 	N 	0.00205 0.24729 0.46324 -0.09000
N 	N 	0.83105 0.11021 0.54148 -0.11200
N 	N 	0.90729 0.01638 0.55578 -0.09900
N 	N 	0.91802 0.98750 0.35738 -0.08000
N 	N 	0.85203 0.09065 0.34448 -0.10400
C 	C 	0.21096 0.08414 0.52162 -0.02400
C 	C 	0.24304 0.10848 0.49030 0.01500
C 	C 	0.20751 0.10035 0.45407 -0.02400
C 	C 	0.13972 0.06607 0.44874 -0.00300
C 	C 	0.10748 0.04099 0.47991 -0.01300
C 	C 	0.14331 0.05106 0.51657 -0.00400
C 	C 	0.31448 0.14257 0.49533 0.02300
C 	C 	0.24083 0.12707 0.42227 0.10100
C 	C 	0.11055 0.02782 0.54913 0.10000
C 	C 	0.33945 0.10962 0.48395 -0.03200
C 	C 	0.40610 0.14319 0.48342 0.01900
C 	C 	0.44784 0.20962 0.49474 -0.07300
C 	C 	0.42373 0.24180 0.50952 0.02500
C 	C 	0.35695 0.20840 0.50934 -0.03700
C 	C 	0.29634 0.04135 0.47225 0.08800
C 	C 	0.46777 0.30916 0.52512 0.08900
C 	C 	0.43146 0.10963 0.47032 0.08000
C 	C 	0.33167 0.24178 0.52297 0.10500
C 	C 	0.24759 0.09291 0.55892 0.10100
C 	C 	0.10294 0.05527 0.41094 0.10200
N 	N 	0.45174 0.08289 0.45987 -0.10800
N 	N 	0.26187 0.98686 0.46292 -0.08600
N 	N 	0.50292 0.36289 0.53758 -0.10000
N 	N 	0.31142 0.26834 0.53384 -0.10200
N 	N 	0.26749 0.14841 0.39692 -0.10300
N 	N 	0.07360 0.04664 0.38077 -0.09300
N 	N 	0.08434 0.00924 0.57507 -0.09700
N 	N 	0.27689 0.09995 0.58867 -0.10400
C 	C 	0.80825 0.76416 0.93759 -0.02100
C 	C 	0.83299 0.73374 0.95320 0.01200
C 	C 	0.89930 0.76909 0.96950 -0.01800
C 	C 	0.93853 0.83554 0.97586 -0.01900
C 	C 	0.91361 0.86651 0.96088 -0.00700
C 	C 	0.84966 0.82997 0.93916 -0.00500
C 	C 	0.78850 0.66567 0.95588 0.02700
C 	C 	0.92669 0.73693 0.98051 0.09700
C 	C 	0.82733 0.85965 0.91734 0.10500
C 	C 	0.76595 0.61837 0.92282 -0.03800
C 	C 	0.72994 0.55444 0.92663 0.02500
C 	C 	0.72358 0.53850 0.96428 -0.07400
C 	C 	0.74567 0.58607 0.99728 0.02500
C 	C 	0.77405 0.64866 0.99248 -0.03600
C 	C 	0.78103 0.63563 0.88513 0.10400
C 	C 	0.74252 0.57144 0.03632 0.07900
C 	C 	0.69735 0.50521 0.89186 0.09500
C 	C 	0.78972 0.69604 0.02536 0.10400
C 	C 	0.74003 0.72801 0.92075 0.10200
C 	C 	0.00306 0.87165 0.99943 0.12400
N 	N 	0.67139 0.46598 0.86411 -0.10100
N 	N 	0.79310 0.64946 0.85507 -0.10400
N 	N 	0.74007 0.55984 0.06748 -0.10900
N 	N 	0.80229 0.73391 0.05155 -0.10000
N 	N 	0.94845 0.71120 0.98929 -0.10400
N 	N 	0.05451 0.90016 0.01822 -0.09800
N 	N 	0.80947 0.88329 0.89994 -0.09500
N 	N 	0.68558 0.69911 0.90731 -0.09900
C 	C 	0.86627 0.09204 0.96695 -0.02200
C 	C 	0.85790 0.10699 0.00459 0.01100
C 	C 	0.88629 0.09905 0.03769 -0.02200
C 	C 	0.92206 0.07514 0.03306 -0.00900
C 	C 	0.92937 0.05916 0.99535 -0.00900
C 	C 	0.90246 0.06869 0.96239 -0.00700
C 	C 	0.82029 0.13255 0.00930 0.02400
C 	C 	0.87852 0.11536 0.07640 0.09900
C 	C 	0.91219 0.05455 0.92378 0.09800
C 	C 	0.75275 0.09090 0.00722 -0.03400
C 	C 	0.71561 0.11383 0.00456 0.02300
C 	C 	0.74591 0.17822 0.00340 -0.08400
C 	C 	0.81414 0.22067 0.00853 0.02100
C 	C 	0.85126 0.19787 0.01212 -0.04000
C 	C 	0.72150 0.02435 0.00710 0.08900
C 	C 	0.84588 0.28728 0.00841 0.07300
C 	C 	0.64629 0.07127 0.00297 0.08700
C 	C 	0.92128 0.24133 0.01779 0.10100
C 	C 	0.83736 0.10054 0.93296 0.09700
C 	C 	0.95124 0.06685 0.06701 0.09800
N 	N 	0.59097 0.03733 0.00170 -0.10000
N 	N 	0.69663 0.97125 0.00701 -0.08700
N 	N 	0.87123 0.34042 0.00830 -0.11200
N 	N 	0.97716 0.27595 0.02231 -0.10600
N 	N 	0.87227 0.12839 0.10729 -0.10300
N 	N 	0.97455 0.06022 0.09408 -0.10000
N 	N 	0.92002 0.04325 0.89302 -0.10000
N 	N 	0.81426 0.10736 0.90588 -0.11000
C 	C 	0.34671 0.11681 0.98381 -0.03700
C 	C 	0.32690 0.15138 0.00146 0.02300
C 	C 	0.37355 0.21281 0.02340 -0.03800
C 	C 	0.43987 0.24056 0.02642 0.02500
C 	C 	0.45981 0.20847 0.00555 -0.08200
C 	C 	0.41319 0.14568 0.98535 0.02600
C 	C 	0.25680 0.12361 0.99627 0.01700
C 	C 	0.35319 0.24784 0.04226 0.10400
C 	C 	0.43349 0.11151 0.96525 0.08400
C 	C 	0.22207 0.09641 0.02617 -0.02500
C 	C 	0.15683 0.07327 0.02214 -0.00400
C 	C 	0.12483 0.07288 0.98703 -0.01100
C 	C 	0.15975 0.10125 0.95747 -0.00400
C 	C 	0.22594 0.12727 0.96226 -0.02400
C 	C 	0.25340 0.09177 0.06085 0.10200
C 	C 	0.12747 0.10351 0.92215 0.10000
C 	C 	0.12266 0.05049 0.05425 0.10300
C 	C 	0.26237 0.15768 0.93227 0.10100
C 	C 	0.29864 0.05190 0.96377 0.10400
C 	C 	0.48768 0.30219 0.05099 0.06500
N 	N 	0.09532 0.03232 0.07984 -0.09500
N 	N 	0.27847 0.08810 0.08851 -0.10300
N 	N 	0.10166 0.10527 0.89399 -0.09600
N 	N 	0.29151 0.18196 0.90836 -0.10400
N 	N 	0.33687 0.27571 0.05730 -0.10300
N 	N 	0.52567 0.35141 0.07057 -0.12000
N 	N 	0.44971 0.08426 0.94922 -0.10600
N 	N 	0.26021 0.00010 0.94779 -0.10400
