data_crystal

_cell_length_a 18.39691
_cell_length_b 18.85035
_cell_length_c 33.97122
_cell_angle_alpha 95.42241
_cell_angle_beta  95.42299
_cell_angle_gamma 126.41422

_symmetry_space_group_name_	'P 1'
_symmetry_space_group_name_H-M	'P 1'

loop_
_symmetry_equiv_pos_as_xyz
  x,y,z

loop_
_atom_site_label
_atom_site_type_symbol
_atom_site_fract_x
_atom_site_fract_y
_atom_site_fract_z
_atom_site_charge
C 	C 	0.80342 0.89683 0.96800 0.04100
C 	C 	0.89765 0.94985 0.96732 -0.09600
C 	C 	0.94077 0.90965 0.96127 0.04900
C 	C 	0.89108 0.81697 0.95894 -0.08600
C 	C 	0.79810 0.76412 0.96194 0.04700
C 	C 	0.75352 0.80373 0.96574 -0.08400
H 	H 	0.93693 0.02210 0.97075 0.07000
H 	H 	0.92479 0.78595 0.95491 0.06100
H 	H 	0.68089 0.76262 0.96698 0.05800
C 	C 	0.05739 0.13056 0.48157 0.03100
C 	C 	0.99653 0.03665 0.47469 -0.06300
C 	C 	0.03038 0.98748 0.47914 0.01000
C 	C 	0.12528 0.03129 0.48408 -0.04200
C 	C 	0.18681 0.12513 0.48888 0.02600
C 	C 	0.15265 0.17496 0.48940 -0.07100
H 	H 	0.92295 0.00236 0.46869 0.05600
H 	H 	0.15140 0.99282 0.48575 0.03900
H 	H 	0.19978 0.24767 0.49619 0.05400
Cu	Cu	0.65335 0.24030 0.95712 0.93400
Cu	Cu	0.59911 0.14999 0.03689 0.87000
Cu	Cu	0.50622 0.21206 0.00090 0.89100
Cu	Cu	0.48307 0.22474 0.91371 0.90600
C 	C 	0.61872 0.22444 0.87112 0.34400
O 	O 	0.70072 0.36919 0.95532 -0.33800
C 	C 	0.55222 0.24336 0.08916 0.33100
O 	O 	0.51036 0.16696 0.94760 -0.63300
O 	O 	0.63356 0.25197 0.01232 -0.65200
O 	O 	0.71477 0.18352 0.96721 -0.35700
O 	O 	0.59475 0.07580 0.99336 -0.42500
O 	O 	0.56970 0.25362 0.87568 -0.37200
O 	O 	0.38447 0.18206 0.98845 -0.36500
C 	C 	0.32612 0.13301 0.95430 0.29700
C 	C 	0.65235 0.39814 0.96318 0.28600
O 	O 	0.56334 0.34055 0.96178 -0.39300
O 	O 	0.35307 0.14893 0.91949 -0.37900
O 	O 	0.65215 0.20758 0.90175 -0.35900
C 	C 	0.66827 0.10439 0.97782 0.29900
O 	O 	0.50914 0.24862 0.05733 -0.36800
O 	O 	0.58897 0.20084 0.08595 -0.39800
H 	H 	0.47148 0.10071 0.94019 0.17000
H 	H 	0.67751 0.31191 0.02980 0.18900
Cu	Cu	0.74806 0.32156 0.51875 0.92800
Cu	Cu	0.82649 0.36225 0.43426 0.87100
Cu	Cu	0.74489 0.44125 0.46804 0.89800
Cu	Cu	0.76785 0.49618 0.55846 0.90900
C 	C 	0.77012 0.37263 0.60388 0.32700
O 	O 	0.61574 0.26565 0.52264 -0.36600
C 	C 	0.70639 0.38545 0.38259 0.33100
O 	O 	0.81341 0.46026 0.52052 -0.63400
O 	O 	0.72391 0.32527 0.46165 -0.64500
O 	O 	0.80813 0.26266 0.51086 -0.35800
O 	O 	0.90689 0.36899 0.47666 -0.42900
O 	O 	0.80139 0.45576 0.60356 -0.36100
O 	O 	0.75702 0.55153 0.47386 -0.36700
C 	C 	0.81549 0.62128 0.50279 0.29400
C 	C 	0.57883 0.30796 0.52095 0.29100
O 	O 	0.63021 0.39543 0.52207 -0.37900
O 	O 	0.81941 0.61167 0.54062 -0.37900
O 	O 	0.78202 0.32968 0.57541 -0.35100
C 	C 	0.88039 0.29924 0.49342 0.30000
O 	O 	0.68276 0.41082 0.41323 -0.36400
O 	O 	0.77964 0.38702 0.38758 -0.40100
H 	H 	0.88098 0.50056 0.52249 0.16100
H 	H 	0.66232 0.27425 0.44628 0.18700
C 	C 	0.65496 0.23214 0.83367 -0.12300
C 	C 	0.73022 0.31671 0.82804 0.12500
C 	C 	0.75003 0.33010 0.78927 0.06300
C 	C 	0.69623 0.25810 0.75628 0.01700
C 	C 	0.62771 0.17125 0.76273 0.06600
C 	C 	0.60680 0.15838 0.80148 0.12100
C 	C 	0.70673 0.27550 0.71474 0.01600
C 	C 	0.65570 0.29912 0.69452 0.06400
C 	C 	0.67821 0.33339 0.65887 0.11700
C 	C 	0.74847 0.33906 0.64203 -0.12000
C 	C 	0.80200 0.31910 0.66331 0.12900
C 	C 	0.77682 0.28134 0.69798 0.06500
Br	Br	0.56106 0.07095 0.71828 -0.16500
Br	Br	0.80512 0.41445 0.87344 -0.19600
Br	Br	0.62074 0.38279 0.63611 -0.23900
Br	Br	0.84011 0.24000 0.72329 -0.16600
Br	Br	0.51134 0.04043 0.81047 -0.20800
Br	Br	0.84809 0.44791 0.78095 -0.16600
Br	Br	0.55631 0.28654 0.71634 -0.17600
Br	Br	0.91989 0.36187 0.65071 -0.20000
C 	C 	0.56143 0.28734 0.12958 -0.12100
C 	C 	0.64992 0.35399 0.15249 0.12500
C 	C 	0.66233 0.37347 0.19464 0.06400
C 	C 	0.58541 0.33035 0.21361 0.01700
C 	C 	0.49611 0.27473 0.19010 0.06600
C 	C 	0.48399 0.25196 0.14805 0.12500
C 	C 	0.59862 0.33620 0.25788 0.01700
C 	C 	0.59837 0.27021 0.27433 0.06400
C 	C 	0.62345 0.28202 0.31616 0.12400
C 	C 	0.65580 0.36283 0.34127 -0.12100
C 	C 	0.64907 0.42567 0.32521 0.12400
C 	C 	0.61830 0.41100 0.28359 0.06600
Br	Br	0.39091 0.22751 0.21575 -0.15900
Br	Br	0.75387 0.41782 0.12595 -0.22700
Br	Br	0.61099 0.18658 0.33934 -0.22600
Br	Br	0.60499 0.49412 0.26150 -0.16200
Br	Br	0.36189 0.17031 0.11614 -0.20100
Br	Br	0.78470 0.45509 0.22655 -0.17000
Br	Br	0.56786 0.16577 0.23934 -0.16700
Br	Br	0.68391 0.53260 0.35963 -0.19400
C 	C 	0.96321 0.82735 0.45639 -0.08800
C 	C 	0.96774 0.89209 0.48298 0.00100
C 	C 	0.91975 0.86668 0.51545 0.03400
C 	C 	0.86358 0.77616 0.51903 -0.01100
C 	C 	0.86319 0.71248 0.49387 -0.10000
C 	C 	0.91559 0.73884 0.46293 0.10700
C 	C 	0.92599 0.67502 0.43866 -0.21000
H 	H 	0.00076 0.84705 0.43180 0.06100
H 	H 	0.82313 0.75586 0.54264 0.04900
C 	C 	0.92925 0.93555 0.54677 -0.18000
H 	H 	0.97756 0.70919 0.41904 0.08000
H 	H 	0.85949 0.61961 0.41912 0.09700
H 	H 	0.94929 0.64669 0.45904 0.05500
H 	H 	0.88732 0.95578 0.53455 0.07000
H 	H 	0.00229 0.99556 0.55620 0.07200
H 	H 	0.90514 0.90822 0.57430 0.07300
C 	C 	0.00798 0.20551 0.52252 -0.08800
C 	C 	0.02099 0.18222 0.48487 0.00200
C 	C 	0.99162 0.20111 0.45022 0.02400
C 	C 	0.94513 0.23881 0.45352 -0.00900
C 	C 	0.92989 0.26001 0.49109 -0.11600
C 	C 	0.96441 0.24607 0.52607 0.11300
C 	C 	0.95513 0.27418 0.56709 -0.22100
H 	H 	0.03092 0.19105 0.54907 0.06100
H 	H 	0.92001 0.25092 0.42678 0.02300
C 	C 	0.00726 0.17875 0.40959 -0.16500
H 	H 	0.99893 0.27291 0.59144 0.09600
H 	H 	0.88253 0.22783 0.57088 0.11300
H 	H 	0.97715 0.34386 0.57067 0.10600
H 	H 	0.96348 0.10477 0.39972 0.07300
H 	H 	0.08063 0.20705 0.41130 0.07100
H 	H 	0.99014 0.20705 0.38644 0.06900
C 	C 	0.43857 0.27109 0.47887 -0.01500
C 	C 	0.47772 0.25508 0.51098 -0.09900
C 	C 	0.42033 0.19272 0.53458 0.11400
C 	C 	0.32653 0.15480 0.52821 -0.08600
C 	C 	0.28740 0.17121 0.49625 -0.00100
C 	C 	0.34325 0.22619 0.47007 0.04100
C 	C 	0.30216 0.23759 0.43285 -0.18300
H 	H 	0.48224 0.31729 0.46019 0.05000
H 	H 	0.28317 0.11003 0.54739 0.06200
C 	C 	0.45562 0.15851 0.56320 -0.21700
H 	H 	0.34938 0.26235 0.41092 0.08300
H 	H 	0.28914 0.28696 0.44119 0.07500
H 	H 	0.23683 0.17258 0.41733 0.07900
H 	H 	0.52404 0.21359 0.58131 0.10800
H 	H 	0.46068 0.10919 0.54578 0.09500
H 	H 	0.40879 0.12493 0.58469 0.09500
C 	C 	0.69647 0.52160 0.92666 -0.01800
C 	C 	0.69237 0.49272 0.96348 -0.09300
C 	C 	0.71450 0.55073 0.99961 0.10700
C 	C 	0.74208 0.63769 0.99837 -0.06800
C 	C 	0.74839 0.66733 0.96159 -0.01600
C 	C 	0.72231 0.60777 0.92534 0.04800
C 	C 	0.72555 0.63709 0.88532 -0.18600
H 	H 	0.67742 0.47608 0.89889 0.05900
H 	H 	0.76189 0.68348 0.02615 0.04800
C 	C 	0.70957 0.52046 0.03947 -0.22100
H 	H 	0.68557 0.57865 0.85998 0.08400
H 	H 	0.79795 0.68173 0.88102 0.08100
H 	H 	0.69552 0.67361 0.88401 0.07600
H 	H 	0.75193 0.49665 0.04333 0.09000
H 	H 	0.63716 0.46491 0.04058 0.09100
H 	H 	0.73572 0.57577 0.06518 0.09200
C 	C 	0.73389 0.96070 0.93492 -0.10600
C 	C 	0.75713 0.93928 0.97006 0.00800
C 	C 	0.74918 0.97062 0.00760 0.01000
C 	C 	0.72169 0.02601 0.00962 -0.00400
C 	C 	0.70111 0.04969 0.97467 -0.10900
C 	C 	0.70511 0.01511 0.93686 0.12500
C 	C 	0.68016 0.03695 0.89866 -0.21000
H 	H 	0.74059 0.93688 0.90617 0.06000
H 	H 	0.71673 0.05121 0.03850 0.02500
C 	C 	0.77288 0.94763 0.04569 -0.17100
H 	H 	0.67649 0.99648 0.87145 0.08300
H 	H 	0.73275 0.10901 0.89792 0.10700
H 	H 	0.61176 0.02230 0.89699 0.10100
H 	H 	0.84744 0.97911 0.05177 0.07000
H 	H 	0.73266 0.87372 0.04253 0.06900
H 	H 	0.75689 0.97189 0.07212 0.06700
C 	C 	0.10052 0.96493 0.98591 -0.08100
C 	C 	0.03887 0.96481 0.95821 -0.02000
C 	C 	0.07077 0.01442 0.92694 0.05000
C 	C 	0.16533 0.07138 0.92685 -0.01200
C 	C 	0.22706 0.07208 0.95482 -0.10100
C 	C 	0.19334 0.01372 0.98281 0.12300
C 	C 	0.25491 0.00074 0.00832 -0.20400
H 	H 	0.07559 0.92497 0.00923 0.05400
H 	H 	0.19079 0.11455 0.90472 0.05100
C 	C 	0.00487 0.00742 0.89379 -0.16300
H 	H 	0.21432 0.93987 0.02189 0.07200
H 	H 	0.30122 0.05956 0.03302 0.09500
H 	H 	0.29674 0.99229 0.98974 0.05500
H 	H 	0.98553 0.05057 0.90445 0.07100
H 	H 	0.94199 0.93691 0.88399 0.06300
H 	H 	0.03660 0.02964 0.86688 0.07600
