data_crystal

_cell_length_a 25.41530
_cell_length_b 25.65329
_cell_length_c 35.03961
_cell_angle_alpha 95.52626
_cell_angle_beta  95.52767
_cell_angle_gamma 125.68712

_symmetry_space_group_name_	'P 1'
_symmetry_space_group_name_H-M	'P 1'

loop_
_symmetry_equiv_pos_as_xyz
  x,y,z

loop_
_atom_site_label
_atom_site_type_symbol
_atom_site_fract_x
_atom_site_fract_y
_atom_site_fract_z
_atom_site_charge
N 	N 	0.02663 0.05819 0.99470 -0.13300
C 	C 	0.04539 0.01971 0.98415 0.11800
N 	N 	0.03183 0.96975 0.50755 -0.13300
C 	C 	0.06469 0.03472 0.50807 0.11800
N 	N 	0.03051 0.05859 0.49882 -0.13600
H 	H 	0.01025 0.84959 0.48856 0.05400
H 	H 	0.00829 0.14406 0.47390 0.05400
C 	C 	0.32595 0.12989 0.47444 0.00300
C 	C 	0.28037 0.08883 0.49649 -0.05700
C 	C 	0.24032 0.10457 0.51016 0.02500
C 	C 	0.25061 0.16334 0.50489 0.00100
C 	C 	0.29645 0.20449 0.48292 -0.05300
C 	C 	0.33558 0.18807 0.46862 0.01600
S 	S 	0.39455 0.13768 0.47005 0.02200
C 	C 	0.39793 0.23433 0.45927 -0.01700
S 	S 	0.18122 0.15463 0.50780 0.00800
C 	C 	0.13715 0.07894 0.51748 -0.01900
C 	C 	0.17656 0.05709 0.51742 -0.04700
H 	H 	0.27428 0.04471 0.50141 0.04800
H 	H 	0.30240 0.24850 0.47784 0.04800
H 	H 	0.15696 0.00635 0.51633 0.04900
C 	C 	0.31780 0.15713 0.94132 0.00200
C 	C 	0.26423 0.15879 0.94474 -0.05900
C 	C 	0.20766 0.10343 0.95363 0.02500
C 	C 	0.20722 0.05053 0.96128 0.00100
C 	C 	0.26448 0.05385 0.96430 -0.05500
C 	C 	0.31946 0.10691 0.95268 0.01500
S 	S 	0.39518 0.22259 0.94457 0.01700
C 	C 	0.38429 0.12493 0.96212 -0.02200
S 	S 	0.14512 0.00536 0.98401 0.00400
C 	C 	0.11528 0.04898 0.98400 -0.01700
C 	C 	0.15538 0.10225 0.96590 -0.04800
H 	H 	0.26750 0.20233 0.94229 0.04800
H 	H 	0.26696 0.01797 0.97655 0.04700
H 	H 	0.39550 0.09577 0.97612 0.04600
H 	H 	0.14632 0.13760 0.96088 0.05000
H 	H 	0.41755 0.28491 0.45954 0.04500
C 	C 	0.43269 0.18904 0.95765 -0.07600
C 	C 	0.43664 0.21189 0.45821 -0.07500
N 	N 	0.99944 0.95387 0.97409 -0.13500
C 	C 	0.96219 0.03057 0.99593 0.10700
C 	C 	0.93503 0.92630 0.97489 0.12400
N 	N 	0.91667 0.96465 0.98620 -0.13200
C 	C 	0.96371 0.01784 0.48895 0.11300
N 	N 	0.93094 0.95281 0.48833 -0.13100
C 	C 	0.96502 0.92862 0.49739 0.12300
Cu	Cu	0.62256 0.23557 0.99798 0.92700
Cu	Cu	0.68307 0.23502 0.91940 0.87200
Cu	Cu	0.66992 0.33940 0.94729 0.89700
Cu	Cu	0.62485 0.35892 0.01980 0.89600
C 	C 	0.63524 0.28607 0.07792 0.30600
O 	O 	0.52590 0.19881 0.99231 -0.36100
C 	C 	0.65388 0.29243 0.86339 0.30900
O 	O 	0.67831 0.33725 0.00172 -0.63900
O 	O 	0.62133 0.24294 0.94240 -0.64300
O 	O 	0.66296 0.18832 0.99978 -0.36700
O 	O 	0.74153 0.25403 0.96570 -0.43700
O 	O 	0.60758 0.31336 0.06542 -0.38200
O 	O 	0.72200 0.43338 0.95596 -0.38000
C 	C 	0.71215 0.46983 0.97881 0.28600
C 	C 	0.50304 0.22717 0.97528 0.28100
O 	O 	0.54371 0.28868 0.97204 -0.38900
O 	O 	0.66817 0.44499 0.00200 -0.38400
O 	O 	0.63791 0.24526 0.05361 -0.34900
C 	C 	0.72147 0.21434 0.99081 0.28200
O 	O 	0.67714 0.34261 0.89187 -0.39000
O 	O 	0.64732 0.23950 0.87041 -0.40600
H 	H 	0.72441 0.36443 0.01619 0.16700
H 	H 	0.57691 0.21730 0.92575 0.17600
Cu	Cu	0.74183 0.34019 0.44772 0.92900
Cu	Cu	0.73768 0.27811 0.52589 0.87200
Cu	Cu	0.63822 0.29824 0.49956 0.89800
Cu	Cu	0.62189 0.34560 0.42697 0.89500
C 	C 	0.69049 0.32917 0.36811 0.31100
O 	O 	0.78372 0.43687 0.45325 -0.35400
C 	C 	0.68311 0.30796 0.58332 0.30900
O 	O 	0.63980 0.28946 0.44478 -0.63900
O 	O 	0.73511 0.34281 0.50377 -0.63900
O 	O 	0.78600 0.29657 0.44514 -0.36600
O 	O 	0.71571 0.22143 0.47878 -0.44200
O 	O 	0.66670 0.36009 0.38114 -0.38300
O 	O 	0.54348 0.25004 0.49128 -0.37200
C 	C 	0.50869 0.25551 0.46368 0.28800
C 	C 	0.75729 0.46246 0.46972 0.28300
O 	O 	0.69581 0.42437 0.47439 -0.38700
O 	O 	0.53691 0.30617 0.44592 -0.39000
O 	O 	0.73065 0.32443 0.39187 -0.35500
C 	C 	0.75938 0.24000 0.45613 0.28800
O 	O 	0.63469 0.29244 0.55532 -0.37400
O 	O 	0.73604 0.31472 0.57515 -0.42300
H 	H 	0.61064 0.24382 0.43020 0.16400
H 	H 	0.76283 0.38680 0.52054 0.17600
C 	C 	0.59598 0.25209 0.75418 -0.11000
C 	C 	0.64743 0.30900 0.74321 0.00400
C 	C 	0.69626 0.36339 0.77210 0.11500
C 	C 	0.69553 0.35926 0.81162 -0.03500
C 	C 	0.64695 0.30056 0.82255 -0.12500
C 	C 	0.59536 0.24779 0.79369 0.19200
C 	C 	0.65551 0.30809 0.70210 0.00400
O 	O 	0.74542 0.42022 0.76174 -0.27500
H 	H 	0.73463 0.40065 0.83366 0.05900
O 	O 	0.54569 0.19117 0.80397 -0.29000
H 	H 	0.55780 0.21030 0.73201 0.07700
C 	C 	0.68553 0.28075 0.68725 0.11400
C 	C 	0.69403 0.28065 0.64844 -0.03400
C 	C 	0.67374 0.30872 0.62423 -0.12500
C 	C 	0.64456 0.33706 0.63928 0.19300
C 	C 	0.63505 0.33613 0.67805 -0.11100
O 	O 	0.70536 0.25285 0.71049 -0.27600
H 	H 	0.71608 0.25831 0.63707 0.04700
O 	O 	0.62508 0.36538 0.61620 -0.28500
H 	H 	0.61235 0.35772 0.68949 0.07800
H 	H 	0.51111 0.19709 0.80747 0.14500
H 	H 	0.75162 0.28874 0.72311 0.13900
H 	H 	0.66395 0.41184 0.62010 0.14700
H 	H 	0.78145 0.41596 0.75963 0.14000
C 	C 	0.73493 0.32763 0.26818 -0.11300
C 	C 	0.67364 0.29842 0.24403 0.00500
C 	C 	0.61726 0.27486 0.26068 0.12000
C 	C 	0.62271 0.28198 0.30126 -0.03600
C 	C 	0.68440 0.31359 0.32559 -0.12100
C 	C 	0.74060 0.33537 0.30885 0.19600
C 	C 	0.66922 0.29628 0.20153 0.00400
O 	O 	0.55678 0.24493 0.23730 -0.27700
H 	H 	0.57915 0.26440 0.31389 0.04500
O 	O 	0.80160 0.36779 0.33213 -0.28300
H 	H 	0.77851 0.34583 0.25547 0.07200
C 	C 	0.69119 0.35311 0.18631 0.11600
C 	C 	0.68106 0.34954 0.14588 -0.03600
C 	C 	0.64926 0.28952 0.12032 -0.11900
C 	C 	0.62813 0.23272 0.13561 0.19400
C 	C 	0.63900 0.23656 0.17607 -0.11000
O 	O 	0.71977 0.41160 0.21095 -0.27400
H 	H 	0.69740 0.39340 0.13440 0.04700
O 	O 	0.59620 0.17339 0.11117 -0.28000
H 	H 	0.62220 0.19270 0.18768 0.07800
H 	H 	0.80760 0.33357 0.33576 0.15700
H 	H 	0.76781 0.43272 0.21549 0.14600
H 	H 	0.54864 0.15419 0.10776 0.15400
H 	H 	0.55287 0.28060 0.23403 0.15000
C 	C 	0.84436 0.73837 0.46677 0.00000
C 	C 	0.79203 0.67356 0.46711 -0.05300
C 	C 	0.80444 0.62690 0.46366 0.01600
C 	C 	0.86812 0.64580 0.46188 0.00200
C 	C 	0.92218 0.71177 0.46820 -0.05800
C 	C 	0.90935 0.75813 0.46960 0.02700
S 	S 	0.84778 0.80321 0.48394 0.01300
C 	C 	0.93009 0.85791 0.49474 -0.01800
C 	C 	0.95766 0.82558 0.48489 -0.05000
S 	S 	0.87155 0.58582 0.47207 0.03000
C 	C 	0.79339 0.53367 0.47803 -0.07600
C 	C 	0.76215 0.56366 0.47240 -0.02200
H 	H 	0.74457 0.66055 0.47186 0.04800
H 	H 	0.97223 0.72662 0.47371 0.04900
H 	H 	0.71057 0.54013 0.47340 0.04000
C 	C 	0.85460 0.07837 0.49075 -0.00100
C 	C 	0.80038 0.07992 0.48392 -0.05500
C 	C 	0.81275 0.13892 0.47745 0.01100
C 	C 	0.87645 0.19242 0.47553 -0.00200
C 	C 	0.92812 0.18703 0.47565 -0.06000
C 	C 	0.91694 0.12963 0.48470 0.02600
S 	S 	0.85067 0.01105 0.48687 0.00400
C 	C 	0.92715 0.04408 0.47864 -0.01600
C 	C 	0.95810 0.11066 0.47831 -0.05200
S 	S 	0.87105 0.24598 0.45611 0.01600
C 	C 	0.78903 0.20554 0.45103 -0.08100
C 	C 	0.76344 0.14599 0.46377 -0.02600
H 	H 	0.75060 0.03660 0.48242 0.04500
H 	H 	0.97420 0.22479 0.46785 0.04800
H 	H 	0.71191 0.11110 0.46527 0.03900
C 	C 	0.79086 0.73789 0.95728 0.00100
C 	C 	0.74733 0.68068 0.97118 -0.05400
C 	C 	0.75042 0.62816 0.96215 0.01600
C 	C 	0.79835 0.63481 0.94177 0.00200
C 	C 	0.84838 0.69527 0.93365 -0.05700
C 	C 	0.84293 0.74656 0.94041 0.02600
S 	S 	0.81214 0.81138 0.97564 0.00800
C 	C 	0.88468 0.85569 0.96107 -0.01900
C 	C 	0.89612 0.81312 0.94269 -0.04600
S 	S 	0.80556 0.57597 0.94874 0.02700
C 	C 	0.74809 0.53929 0.97648 -0.07400
C 	C 	0.72135 0.57382 0.98127 -0.02100
H 	H 	0.71477 0.67830 0.98993 0.04700
H 	H 	0.89136 0.70295 0.92415 0.04900
H 	H 	0.94315 0.82911 0.93525 0.05200
H 	H 	0.68228 0.56011 0.99751 0.04300
C 	C 	0.80632 0.13610 0.02735 -0.00100
C 	C 	0.80728 0.08182 0.02488 -0.05900
C 	C 	0.85851 0.08626 0.00968 0.03100
C 	C 	0.90406 0.14132 0.99484 -0.00300
C 	C 	0.90375 0.19591 0.99753 -0.06100
C 	C 	0.85229 0.19161 0.01253 0.01900
S 	S 	0.73874 0.13248 0.02678 0.03200
C 	C 	0.76580 0.20163 0.01030 -0.07400
C 	C 	0.82952 0.22861 0.00292 -0.01900
S 	S 	0.96902 0.14157 0.99134 -0.00300
C 	C 	0.94149 0.07180 0.00743 -0.00600
C 	C 	0.87882 0.04639 0.01627 -0.05200
H 	H 	0.77035 0.03836 0.03511 0.04900
H 	H 	0.94014 0.23878 0.98662 0.04500
H 	H 	0.85418 0.26727 0.98627 0.03600
H 	H 	0.84903 0.00091 0.02671 0.05200
