data_crystal

_cell_length_a 18.35482
_cell_length_b 17.00682
_cell_length_c 45.75132
_cell_angle_alpha 90.74561
_cell_angle_beta  91.03270
_cell_angle_gamma 110.73345

_symmetry_space_group_name_	'P 1'
_symmetry_space_group_name_H-M	'P 1'

loop_
_symmetry_equiv_pos_as_xyz
  x,y,z

loop_
_atom_site_label
_atom_site_type_symbol
_atom_site_fract_x
_atom_site_fract_y
_atom_site_fract_z
_atom_site_charge
O 	O 	0.13729 0.87905 0.75790 -0.69600
Ni	Ni	0.14683 0.96809 0.78888 1.10700
O 	O 	0.19758 0.81537 0.70669 -0.34800
Ni	Ni	0.24102 0.89619 0.74294 1.08600
O 	O 	0.23905 0.00591 0.72578 -0.39100
O 	O 	0.23004 0.94827 0.81532 -0.34500
O 	O 	0.06652 0.98643 0.76094 -0.70200
O 	O 	0.13023 0.05067 0.81915 -0.32300
H 	H 	0.11322 0.82159 0.76533 0.17100
H 	H 	0.08221 0.04526 0.75444 0.16600
C 	C 	0.25563 0.07414 0.74278 0.27400
C 	C 	0.12665 0.79737 0.69577 0.29100
C 	C 	0.29477 0.94594 0.80401 0.29100
C 	C 	0.05907 0.04696 0.82504 0.26500
O 	O 	0.23083 0.06927 0.77007 -0.34900
O 	O 	0.30828 0.96465 0.77644 -0.39300
Ni	Ni	0.32202 0.75684 0.40356 1.11900
O 	O 	0.30359 0.69337 0.36403 -0.69500
Ni	Ni	0.19770 0.69761 0.35357 1.10100
O 	O 	0.41096 0.72052 0.41772 -0.31600
O 	O 	0.38838 0.59457 0.39507 -0.34700
O 	O 	0.40282 0.86060 0.38503 -0.35100
Ni	Ni	0.29080 0.57383 0.36766 1.09100
O 	O 	0.32789 0.93845 0.41762 -0.32200
O 	O 	0.22261 0.56474 0.40296 -0.31400
O 	O 	0.17853 0.62584 0.31625 -0.36700
O 	O 	0.22110 0.76676 0.39164 -0.70400
O 	O 	0.33225 0.82231 0.44153 -0.30800
O 	O 	0.09771 0.72262 0.34577 -0.34400
O 	O 	0.15748 0.86451 0.35272 -0.38200
Ni	Ni	0.24170 0.88664 0.38609 1.09400
H 	H 	0.34268 0.72114 0.34931 0.17100
H 	H 	0.18135 0.74378 0.40663 0.19700
C 	C 	0.15207 0.56720 0.40041 0.29600
O 	O 	0.32122 0.89794 0.35452 -0.39300
C 	C 	0.40091 0.64069 0.41925 0.30800
C 	C 	0.17619 0.54784 0.31712 0.28700
C 	C 	0.38993 0.89387 0.36052 0.28300
C 	C 	0.09351 0.79716 0.35105 0.28400
C 	C 	0.33830 0.90165 0.44196 0.30300
O 	O 	0.12901 0.59477 0.37642 -0.33300
O 	O 	0.19401 0.51808 0.34165 -0.34600
Ni	Ni	0.33833 0.65986 0.12317 1.10900
O 	O 	0.23614 0.64357 0.10071 -0.69900
Ni	Ni	0.17985 0.68834 0.12988 1.11600
O 	O 	0.37891 0.60909 0.08897 -0.28300
O 	O 	0.26909 0.49120 0.08766 -0.35200
O 	O 	0.37818 0.77316 0.10250 -0.31800
Ni	Ni	0.17271 0.52802 0.09033 1.09100
O 	O 	0.41085 0.73576 0.18781 -0.39000
O 	O 	0.16041 0.49251 0.13284 -0.38900
O 	O 	0.08883 0.68306 0.10308 -0.31200
O 	O 	0.27378 0.68707 0.15410 -0.69500
O 	O 	0.44422 0.68561 0.14478 -0.32600
O 	O 	0.14819 0.75967 0.16000 -0.34900
O 	O 	0.26870 0.86123 0.16001 -0.35500
Ni	Ni	0.33675 0.79259 0.17393 1.08000
H 	H 	0.24513 0.67796 0.08294 0.22200
H 	H 	0.25805 0.64115 0.16837 0.17200
C 	C 	0.10747 0.50714 0.14849 0.29800
O 	O 	0.41811 0.85296 0.14412 -0.38100
C 	C 	0.33393 0.53929 0.07566 0.29900
C 	C 	0.06110 0.61978 0.08417 0.29600
C 	C 	0.40512 0.84714 0.11578 0.31600
C 	C 	0.19411 0.83737 0.16586 0.28100
C 	C 	0.46384 0.72503 0.17055 0.29100
O 	O 	0.10546 0.58367 0.15045 -0.33800
O 	O 	0.06821 0.54637 0.08935 -0.33400
O 	O 	0.99824 0.20845 0.23766 -0.35900
O 	O 	0.06969 0.08991 0.24175 -0.38800
O 	O 	0.98780 0.06911 0.20157 -0.33900
Ni	Ni	0.00293 0.05919 0.27812 1.07200
O 	O 	0.00593 0.17858 0.28587 -0.38400
C 	C 	0.01499 0.23336 0.26504 0.28000
C 	C 	0.04531 0.05493 0.21560 0.26800
C 	C 	0.04042 0.43525 0.15921 -0.05200
C 	C 	0.99929 0.36709 0.14005 0.04300
C 	C 	0.93249 0.30222 0.14966 0.02500
C 	C 	0.01236 0.43858 0.18765 0.01200
C 	C 	0.02580 0.36296 0.11058 0.12100
C 	C 	0.05360 0.50781 0.20755 0.10200
C 	C 	0.88737 0.23551 0.12949 0.15900
N 	N 	0.85144 0.18229 0.11339 -0.02100
N 	N 	0.04672 0.35918 0.08706 -0.08600
C 	C 	0.08590 0.00402 0.20111 -0.06300
C 	C 	0.16724 0.02444 0.20503 0.00000
C 	C 	0.20250 0.96818 0.19478 0.01300
C 	C 	0.15994 0.90036 0.17573 -0.04400
C 	C 	0.08194 0.88926 0.16805 0.01500
C 	C 	0.04282 0.93283 0.18379 0.00800
C 	C 	0.21510 0.10443 0.21829 0.11100
C 	C 	0.04406 0.83907 0.14253 0.13500
C 	C 	0.95836 0.89975 0.18422 0.11000
C 	C 	0.28051 0.97788 0.20503 0.09100
N 	N 	0.34274 0.98568 0.21326 -0.11400
N 	N 	0.25338 0.16826 0.22885 -0.09000
C 	C 	0.38669 0.83850 0.30069 0.07400
N 	N 	0.33280 0.78404 0.29148 -0.12500
C 	C 	0.12462 0.48652 0.29599 -0.04600
C 	C 	0.04748 0.44147 0.30380 0.03000
C 	C 	0.01070 0.35798 0.29377 0.00700
C 	C 	0.04683 0.32424 0.27247 -0.05700
C 	C 	0.11687 0.37677 0.26001 0.00700
C 	C 	0.15665 0.45759 0.27229 0.00300
C 	C 	0.00716 0.48032 0.32289 0.13200
C 	C 	0.14874 0.34711 0.23521 0.10100
C 	C 	0.23023 0.51080 0.26067 0.08800
N 	N 	0.28891 0.55343 0.25137 -0.10300
N 	N 	0.17409 0.32349 0.21538 -0.08600
C 	C 	0.01789 0.80862 0.34663 -0.06800
C 	C 	0.97877 0.79041 0.31913 0.01600
C 	C 	0.92212 0.82601 0.31213 -0.00900
C 	C 	0.98994 0.84866 0.36862 0.03000
C 	C 	0.99868 0.73800 0.29777 0.11000
C 	C 	0.02029 0.85439 0.39837 0.09900
N 	N 	0.04458 0.85890 0.42209 -0.04600
N 	N 	0.01454 0.69613 0.28073 -0.09900
C 	C 	0.39154 0.05165 0.50768 0.04700
C 	C 	0.44643 0.93896 0.47849 0.08200
C 	C 	0.38144 0.95437 0.46696 0.02700
C 	C 	0.35293 0.01085 0.48180 -0.06700
H 	H 	0.46911 0.89742 0.46660 0.10800
C 	C 	0.28294 0.02919 0.46987 0.77500
H 	H 	0.37309 0.09817 0.51857 0.13700
H 	H 	0.40191 0.99170 0.57383 0.13300
F 	F 	0.30227 0.07279 0.44415 -0.41900
F 	F 	0.25875 0.07736 0.48938 -0.39100
F 	F 	0.22092 0.95493 0.46452 -0.42600
F 	F 	0.42829 0.10364 0.64131 -0.42300
C 	C 	0.03815 0.40865 0.45449 0.04700
C 	C 	0.01172 0.45892 0.47287 0.09800
C 	C 	0.02335 0.54306 0.46525 -0.10100
C 	C 	0.06714 0.57679 0.44055 0.09000
C 	C 	0.09476 0.52670 0.42260 0.01800
C 	C 	0.07408 0.43999 0.42816 -0.04300
H 	H 	0.08221 0.64284 0.43584 0.07400
C 	C 	0.09129 0.38109 0.40640 0.77800
H 	H 	0.03070 0.34508 0.46078 0.13300
H 	H 	0.08519 0.48158 0.52502 0.14400
F 	F 	0.07512 0.39928 0.37817 -0.43500
F 	F 	0.04598 0.29812 0.41132 -0.40000
F 	F 	0.16885 0.38949 0.40892 -0.41000
C 	C 	0.48978 0.57932 0.49942 0.10100
C 	C 	0.56179 0.70853 0.54567 0.79400
C 	C 	0.50145 0.60478 0.44713 0.08700
C 	C 	0.42716 0.61063 0.44608 0.00600
C 	C 	0.38210 0.59681 0.47167 -0.06000
C 	C 	0.41463 0.58227 0.49812 0.04100
C 	C 	0.29615 0.58524 0.47006 0.77800
H 	H 	0.38054 0.57041 0.51775 0.13100
F 	F 	0.48911 0.71580 0.54488 -0.38400
F 	F 	0.28471 0.65116 0.45581 -0.47500
F 	F 	0.26516 0.58164 0.49760 -0.40100
F 	F 	0.25594 0.51061 0.45531 -0.41600
C 	C 	0.31833 0.15275 0.73408 -0.04300
C 	C 	0.38551 0.18965 0.75230 0.01000
C 	C 	0.45356 0.24752 0.74056 0.00200
C 	C 	0.45429 0.26885 0.71093 -0.04500
C 	C 	0.38306 0.24642 0.69503 0.02800
C 	C 	0.31502 0.18719 0.70646 0.01500
C 	C 	0.38487 0.16891 0.78298 0.11200
C 	C 	0.38043 0.28233 0.66668 0.14400
C 	C 	0.24150 0.16421 0.69044 0.11800
C 	C 	0.52425 0.28082 0.75844 0.08200
N 	N 	0.18272 0.14608 0.67767 -0.08700
N 	N 	0.58042 0.30696 0.77287 -0.13200
N 	N 	0.37816 0.31112 0.64406 -0.03500
N 	N 	0.38479 0.15302 0.80750 -0.07800
C 	C 	0.01280 0.66704 0.00829 -0.09800
C 	C 	0.04952 0.67807 0.03604 0.07900
C 	C 	0.01293 0.62717 0.05920 0.00100
C 	C 	0.05328 0.72173 0.98315 0.78900
H 	H 	0.10864 0.72204 0.03920 0.11000
F 	F 	0.12345 0.78230 0.99207 -0.37800
F 	F 	0.00634 0.76258 0.97181 -0.40200
F 	F 	0.06813 0.67268 0.96137 -0.37900
C 	C 	0.57396 0.06155 0.02786 0.10500
C 	C 	0.52942 0.02654 0.05434 0.08400
C 	C 	0.55020 0.91300 0.00781 0.79500
H 	H 	0.60122 0.19010 0.04240 0.13600
C 	C 	0.56769 0.01734 0.08057 -0.10700
C 	C 	0.52356 0.96596 0.10253 0.09000
C 	C 	0.44358 0.92163 0.09802 0.00200
C 	C 	0.40404 0.94185 0.07407 -0.06100
C 	C 	0.44778 0.99387 0.05224 0.05600
H 	H 	0.55200 0.95633 0.12239 0.07800
C 	C 	0.31602 0.90410 0.07058 0.77800
H 	H 	0.41874 0.00453 0.03265 0.11700
F 	F 	0.46981 0.88049 0.00527 -0.39300
F 	F 	0.28089 0.89533 0.09744 -0.46200
F 	F 	0.29518 0.82620 0.05679 -0.42300
F 	F 	0.28807 0.95508 0.05387 -0.39700
C 	C 	0.44314 0.48306 0.01417 0.03300
C 	C 	0.39790 0.48901 0.98984 0.10000
C 	C 	0.30752 0.51962 0.02241 0.08400
C 	C 	0.35437 0.51675 0.04661 -0.00000
C 	C 	0.42147 0.49552 0.04268 -0.04700
H 	H 	0.25458 0.53260 0.02590 0.06800
C 	C 	0.47106 0.48812 0.06871 0.77600
H 	H 	0.49522 0.46834 0.01077 0.13300
H 	H 	0.33474 0.34551 0.95863 0.12700
F 	F 	0.52315 0.44969 0.06089 -0.38700
F 	F 	0.42436 0.44044 0.09016 -0.41600
F 	F 	0.51294 0.56743 0.08003 -0.39000
F 	F 	0.39579 0.21901 0.92162 -0.41300
F 	F 	0.57285 0.61917 0.98169 -0.38800
N 	N 	0.11911 0.21429 0.77047 -0.10600
C 	C 	0.36241 0.95017 0.82338 -0.05700
C 	C 	0.43354 0.95678 0.81049 0.02300
C 	C 	0.50410 0.00980 0.82353 -0.00300
C 	C 	0.50402 0.04168 0.85225 -0.04200
C 	C 	0.43461 0.01089 0.86838 0.01200
C 	C 	0.36292 0.96767 0.85364 0.03400
C 	C 	0.43392 0.90735 0.78449 0.08900
C 	C 	0.43777 0.01936 0.90001 0.15500
C 	C 	0.29183 0.93507 0.86994 0.14300
N 	N 	0.23510 0.90904 0.88299 -0.04600
N 	N 	0.44032 0.02611 0.92526 -0.05100
N 	N 	0.43424 0.86789 0.76373 -0.09800
Ni	Ni	0.64110 0.27876 0.89700 1.11000
O 	O 	0.54824 0.31480 0.90647 -0.29000
O 	O 	0.56080 0.16488 0.88347 -0.33500
O 	O 	0.65373 0.11466 0.92240 -0.37100
O 	O 	0.63149 0.23269 0.93815 -0.29200
O 	O 	0.64345 0.11682 0.85835 -0.39600
C 	C 	0.53783 0.38223 0.89646 0.30300
C 	C 	0.57249 0.11218 0.86448 0.28900
C 	C 	0.64789 0.16478 0.94401 0.29700
Ni	Ni	0.63556 0.37368 0.64926 1.10500
O 	O 	0.57258 0.42492 0.62306 -0.28900
O 	O 	0.56906 0.25600 0.63292 -0.29500
O 	O 	0.54824 0.22404 0.68736 -0.35200
O 	O 	0.55796 0.36033 0.68209 -0.35400
C 	C 	0.60874 0.48612 0.60538 0.28600
C 	C 	0.59810 0.19694 0.62682 0.27800
C 	C 	0.52726 0.28753 0.69493 0.29000
C 	C 	0.54632 0.75440 0.18088 -0.04300
C 	C 	0.60517 0.80986 0.16381 0.01500
C 	C 	0.56474 0.73942 0.20978 0.01100
C 	C 	0.59605 0.80823 0.13226 0.14000
C 	C 	0.51301 0.66806 0.22516 0.11200
N 	N 	0.47182 0.61104 0.23746 -0.09200
N 	N 	0.58891 0.80670 0.10705 -0.03000
C 	C 	0.45572 0.93602 0.34122 -0.04600
C 	C 	0.51882 0.00680 0.35157 0.00600
C 	C 	0.51862 0.94400 0.29415 0.01500
C 	C 	0.45433 0.90693 0.31215 -0.00100
C 	C 	0.51804 0.04023 0.38087 0.12800
C 	C 	0.51588 0.91312 0.26429 0.10000
N 	N 	0.51307 0.88851 0.24044 -0.11100
N 	N 	0.51738 0.06682 0.40424 -0.05000
C 	C 	0.45380 0.03230 0.51984 0.08700
C 	C 	0.47831 0.97138 0.50606 -0.08500
C 	C 	0.49153 0.07457 0.54747 0.10900
C 	C 	0.53176 0.93434 0.52202 0.79000
C 	C 	0.56269 0.14358 0.54744 -0.09000
C 	C 	0.56855 0.14334 0.60064 0.00900
C 	C 	0.49552 0.07672 0.60083 -0.04400
C 	C 	0.45770 0.04285 0.57407 0.03000
C 	C 	0.45605 0.04482 0.62943 0.77200
F 	F 	0.49776 0.89838 0.54764 -0.38200
F 	F 	0.54528 0.87268 0.50531 -0.36800
F 	F 	0.50848 0.03118 0.64898 -0.43100
F 	F 	0.39411 0.96968 0.62542 -0.40400
F 	F 	0.53402 0.20379 0.50388 -0.38100
C 	C 	0.50246 0.47082 0.53257 0.03700
C 	C 	0.51804 0.55600 0.52731 0.09800
C 	C 	0.55266 0.61696 0.54965 -0.10100
C 	C 	0.57582 0.59128 0.57625 0.07700
C 	C 	0.56593 0.50664 0.58067 0.00300
C 	C 	0.52525 0.44491 0.55914 -0.06300
H 	H 	0.60353 0.63739 0.59336 0.09800
H 	H 	0.47229 0.42470 0.51577 0.13500
C 	C 	0.53348 0.58891 0.47362 -0.09700
H 	H 	0.53452 0.61350 0.42729 0.09700
F 	F 	0.59902 0.73780 0.51987 -0.36000
F 	F 	0.60535 0.75948 0.56828 -0.38800
C 	C 	0.60555 0.14903 0.02472 0.03600
C 	C 	0.57877 0.00789 0.00457 -0.11000
C 	C 	0.60481 0.04283 0.97734 0.08300
C 	C 	0.63414 0.13050 0.97394 0.00700
C 	C 	0.64295 0.18372 0.99891 -0.05300
H 	H 	0.59973 0.00168 0.95854 0.09800
C 	C 	0.69224 0.27664 0.99850 0.77700
C 	C 	0.65518 0.06090 0.08495 0.78900
F 	F 	0.72247 0.30536 0.02619 -0.36900
F 	F 	0.64682 0.32193 0.98940 -0.41200
F 	F 	0.57321 0.89190 0.03463 -0.38400
F 	F 	0.58026 0.87567 0.98641 -0.37200
F 	F 	0.69417 0.03725 0.06288 -0.38900
C 	C 	0.32921 0.50751 0.99387 -0.09600
C 	C 	0.42088 0.47061 0.96040 0.09700
C 	C 	0.27648 0.50937 0.96805 0.78900
C 	C 	0.48563 0.52898 0.94647 -0.09600
C 	C 	0.51951 0.50083 0.92312 0.06900
C 	C 	0.48793 0.41727 0.91299 0.01100
C 	C 	0.41504 0.36440 0.92329 -0.06000
C 	C 	0.38470 0.38977 0.94812 0.03800
C 	C 	0.52392 0.61840 0.95827 0.79100
H 	H 	0.57333 0.54230 0.91411 0.11400
C 	C 	0.37142 0.27923 0.90901 0.77900
F 	F 	0.23505 0.42806 0.95846 -0.40300
F 	F 	0.31960 0.55410 0.94530 -0.38100
F 	F 	0.22386 0.54727 0.97569 -0.37200
F 	F 	0.38413 0.28056 0.87926 -0.42500
F 	F 	0.29200 0.25685 0.91277 -0.40200
F 	F 	0.56744 0.67052 0.93703 -0.37900
F 	F 	0.46872 0.65105 0.96730 -0.36600
C 	C 	0.57490 0.03428 0.80690 0.10200
N 	N 	0.63130 0.05373 0.79355 -0.11000
N 	N 	0.01327 0.79942 0.12214 -0.05100
C 	C 	0.60427 0.17077 0.57396 0.10200
F 	F 	0.11735 0.46274 0.57582 -0.39600
F 	F 	0.45843 0.32781 0.58828 -0.41400
C 	C 	0.61145 0.57625 0.47383 0.79100
F 	F 	0.65033 0.60191 0.44802 -0.39300
F 	F 	0.65910 0.62211 0.49650 -0.38000
C 	C 	0.59333 0.18965 0.51944 0.80100
F 	F 	0.03581 0.51058 0.98788 -0.39300
N 	N 	0.08554 0.74867 0.81894 -0.09900
F 	F 	0.62441 0.14259 0.50223 -0.37100
C 	C 	0.02336 0.44625 0.52658 0.02300
F 	F 	0.04255 0.62312 0.50944 -0.40400
N 	N 	0.03968 0.04398 0.64153 -0.06900
N 	N 	0.11690 0.64269 0.75203 -0.10900
F 	F 	0.60292 0.99608 0.52869 -0.37600
F 	F 	0.67390 0.14707 0.08473 -0.41000
C 	C 	0.50558 0.35171 0.56437 0.78500
F 	F 	0.46631 0.30257 0.54065 -0.39100
F 	F 	0.68134 0.04068 0.11137 -0.43400
F 	F 	0.59937 0.49194 0.47725 -0.39300
F 	F 	0.75442 0.29140 0.98003 -0.42400
O 	O 	0.65867 0.31950 0.85444 -0.69500
Ni	Ni	0.76961 0.32490 0.85027 1.09800
O 	O 	0.55144 0.40290 0.86901 -0.34400
Ni	Ni	0.66092 0.43509 0.85113 1.08800
O 	O 	0.71835 0.46288 0.89071 -0.36000
O 	O 	0.79314 0.38590 0.81136 -0.37200
O 	O 	0.74438 0.26942 0.88983 -0.70800
O 	O 	0.87327 0.30376 0.84950 -0.34000
O 	O 	0.80909 0.16307 0.85548 -0.38900
Ni	Ni	0.73095 0.15058 0.88911 1.08700
H 	H 	0.62290 0.28059 0.83984 0.17900
H 	H 	0.78250 0.29930 0.90541 0.19200
C 	C 	0.79110 0.46636 0.89369 0.28600
C 	C 	0.79126 0.46219 0.80908 0.28500
C 	C 	0.87476 0.22784 0.85391 0.27800
O 	O 	0.82433 0.43734 0.87277 -0.33900
O 	O 	0.76274 0.49465 0.83039 -0.35600
O 	O 	0.71169 0.37875 0.61662 -0.70600
Ni	Ni	0.78319 0.32965 0.63622 1.10500
O 	O 	0.68147 0.53447 0.61125 -0.36300
Ni	Ni	0.77256 0.49147 0.60420 1.09700
O 	O 	0.81615 0.52792 0.64547 -0.39400
O 	O 	0.84492 0.32709 0.59988 -0.31500
O 	O 	0.71632 0.33990 0.67098 -0.69600
O 	O 	0.83520 0.25100 0.65398 -0.32800
O 	O 	0.76565 0.21433 0.69542 -0.38700
Ni	Ni	0.66056 0.22924 0.68715 1.08400
H 	H 	0.68630 0.34385 0.59936 0.21500
H 	H 	0.74532 0.38213 0.68608 0.17900
C 	C 	0.87551 0.50926 0.65522 0.29300
O 	O 	0.64421 0.17826 0.64585 -0.36900
C 	C 	0.86768 0.39267 0.58275 0.29800
C 	C 	0.80537 0.19632 0.67459 0.29700
O 	O 	0.87643 0.43254 0.65158 -0.32600
O 	O 	0.86935 0.46692 0.59234 -0.33500
Ni	Ni	0.73590 0.11965 0.23297 1.08100
O 	O 	0.74413 0.01695 0.21152 -0.40000
O 	O 	0.72389 0.04796 0.30225 -0.36300
C 	C 	0.72861 0.94407 0.22481 0.27300
C 	C 	0.65840 0.04166 0.28854 0.29200
O 	O 	0.73662 0.94168 0.25373 -0.35300
O 	O 	0.65471 0.04131 0.25966 -0.39300
C 	C 	0.67404 0.86506 0.17764 0.01200
C 	C 	0.68274 0.86460 0.20839 -0.04700
C 	C 	0.63416 0.79352 0.22348 0.01100
C 	C 	0.65679 0.77386 0.25220 0.11400
C 	C 	0.73679 0.91912 0.16033 0.13700
N 	N 	0.78692 0.96229 0.14652 -0.05100
N 	N 	0.67440 0.75792 0.27516 -0.08600
C 	C 	0.58213 0.04591 0.33329 0.01600
C 	C 	0.58454 0.01171 0.30514 -0.06300
C 	C 	0.64347 0.12290 0.34307 0.11600
N 	N 	0.69239 0.18433 0.35087 -0.06300
H 	H 	0.66241 0.21766 0.57398 0.05900
F 	F 	0.65063 0.26709 0.52537 -0.39100
H 	H 	0.80137 0.32215 0.53196 0.11800
F 	F 	0.77034 0.29746 0.48125 -0.35800
F 	F 	0.57313 0.33542 0.56922 -0.45700
C 	C 	0.81195 0.98522 0.69825 0.00800
C 	C 	0.78233 0.04818 0.69010 0.00600
C 	C 	0.83297 0.12470 0.67858 -0.05300
C 	C 	0.76001 0.90572 0.70904 0.11700
C 	C 	0.69997 0.03353 0.69290 0.09600
N 	N 	0.63426 0.02178 0.69516 -0.08400
N 	N 	0.71852 0.84224 0.71763 -0.08600
N 	N 	0.92120 0.65210 0.59440 -0.07500
F 	F 	0.72398 0.61451 0.91536 -0.42100
C 	C 	0.84679 0.52162 0.78959 -0.04500
C 	C 	0.81921 0.54786 0.76394 -0.00100
C 	C 	0.86037 0.62803 0.75267 0.00900
C 	C 	0.74866 0.49286 0.74928 0.08100
C 	C 	0.83338 0.65449 0.72586 0.09800
N 	N 	0.81194 0.67557 0.70443 -0.08800
N 	N 	0.69239 0.44923 0.73742 -0.12600
O 	O 	0.09843 0.85694 0.69230 -0.35000
N 	N 	0.88509 0.38642 0.24718 -0.10500
N 	N 	0.13287 0.81925 0.61614 -0.04400
N 	N 	0.04952 0.02358 0.90452 -0.04400
F 	F 	0.99671 0.67088 0.47032 -0.39600
C 	C 	0.83804 0.50869 0.91966 0.00100
C 	C 	0.80381 0.64079 0.91254 0.78000
N 	N 	0.96908 0.33346 0.78791 -0.09100
N 	N 	0.91585 0.15997 0.92562 -0.06800
C 	C 	0.88266 0.80921 0.28377 0.08200
C 	C 	0.93354 0.88443 0.36140 0.01300
C 	C 	0.93965 0.16201 0.90228 0.10700
C 	C 	0.08376 0.20040 0.79169 0.08600
N 	N 	0.97489 0.51132 0.33810 -0.06000
N 	N 	0.85141 0.79542 0.26108 -0.10200
C 	C 	0.93767 0.30609 0.30624 0.12100
N 	N 	0.87951 0.26497 0.31633 -0.09700
C 	C 	0.08789 0.64345 0.72943 0.08800
O 	O 	0.94969 0.02629 0.31810 -0.38200
C 	C 	0.90732 0.88191 0.33217 -0.05400
C 	C 	0.93384 0.57434 0.05614 -0.04100
C 	C 	0.88914 0.52765 0.08199 0.77800
F 	F 	0.90397 0.45413 0.08568 -0.39800
C 	C 	0.90926 0.30194 0.17884 -0.04300
Ni	Ni	0.06860 0.91113 0.72765 1.10500
O 	O 	0.97774 0.80098 0.73565 -0.36300
O 	O 	0.90285 0.91664 0.73579 -0.38500
O 	O 	0.99584 0.94421 0.70081 -0.34700
O 	O 	0.99909 0.97849 0.81852 -0.36700
Ni	Ni	0.96037 0.94697 0.77550 1.07600
O 	O 	0.95599 0.82754 0.78317 -0.38100
C 	C 	0.95612 0.77436 0.76211 0.28500
C 	C 	0.93240 0.95265 0.71101 0.27800
Ni	Ni	0.90875 0.10005 0.22501 1.10700
O 	O 	0.83431 0.13000 0.25264 -0.69900
Ni	Ni	0.81439 0.03417 0.28028 1.10300
O 	O 	0.88542 0.15732 0.18918 -0.34900
O 	O 	0.79301 0.21067 0.20236 -0.35500
O 	O 	0.90285 0.02081 0.25700 -0.71300
O 	O 	0.82241 0.94576 0.30920 -0.33500
H 	H 	0.85767 0.18523 0.26269 0.17500
H 	H 	0.89007 0.96308 0.24897 0.17800
C 	C 	0.86246 0.22127 0.19205 0.29600
C 	C 	0.89115 0.95499 0.32091 0.28500
C 	C 	0.94519 0.37332 0.19699 0.01500
C 	C 	0.91195 0.38051 0.22494 0.09600
N 	N 	0.08640 0.56312 0.22341 -0.10400
N 	N 	0.89099 0.87309 0.18465 -0.09700
C 	C 	0.90574 0.92785 0.38356 0.14100
N 	N 	0.88352 0.96255 0.40125 -0.04400
C 	C 	0.97683 0.42485 0.50099 0.10800
C 	C 	0.99506 0.59909 0.48467 0.79800
C 	C 	0.89682 0.37477 0.50260 -0.09000
C 	C 	0.86319 0.35663 0.53023 0.07500
C 	C 	0.90793 0.38799 0.55574 0.00900
C 	C 	0.98977 0.42677 0.55411 -0.04000
C 	C 	0.84754 0.34111 0.47502 0.78800
C 	C 	0.04078 0.45253 0.58159 0.77400
F 	F 	0.91914 0.55718 0.49284 -0.38800
F 	F 	0.01522 0.39175 0.60263 -0.41800
F 	F 	0.03854 0.52778 0.59250 -0.41400
F 	F 	0.87566 0.28686 0.46021 -0.39900
F 	F 	0.84993 0.40663 0.45701 -0.37800
C 	C 	0.89075 0.99716 0.69331 -0.04600
C 	C 	0.90957 0.13156 0.67116 0.01700
C 	C 	0.93333 0.06255 0.67498 -0.00600
C 	C 	0.96592 0.21076 0.66208 0.13000
C 	C 	0.99272 0.05243 0.65650 0.13600
N 	N 	0.01115 0.27393 0.65487 -0.05000
C 	C 	0.94857 0.57823 0.66442 -0.04400
C 	C 	0.98541 0.64396 0.64503 0.03700
C 	C 	0.05578 0.70797 0.65361 0.01900
C 	C 	0.08359 0.71345 0.68268 -0.04300
C 	C 	0.05173 0.64429 0.70107 0.00300
C 	C 	0.98414 0.57647 0.69195 0.02000
C 	C 	0.94953 0.64806 0.61687 0.13200
C 	C 	0.95022 0.50627 0.71114 0.09900
C 	C 	0.09864 0.76985 0.63276 0.15500
N 	N 	0.92321 0.45020 0.72642 -0.10000
C 	C 	0.86495 0.61251 0.95918 0.04200
C 	C 	0.90813 0.57200 0.97433 0.10100
C 	C 	0.91919 0.50074 0.96153 -0.09400
C 	C 	0.88265 0.46902 0.93443 0.08500
C 	C 	0.83586 0.58593 0.93077 -0.05400
C 	C 	0.93905 0.60259 0.00404 0.10300
C 	C 	0.96480 0.45466 0.97764 0.79300
H 	H 	0.88743 0.41233 0.92507 0.07500
H 	H 	0.85537 0.66587 0.96934 0.13800
C 	C 	0.89797 0.56117 0.02824 0.03600
H 	H 	0.83989 0.51486 0.02498 0.14500
F 	F 	0.82115 0.63695 0.88335 -0.43100
F 	F 	0.83601 0.72411 0.92177 -0.38800
F 	F 	0.92245 0.41259 0.00096 -0.39100
F 	F 	0.97964 0.39638 0.95957 -0.39600
F 	F 	0.91071 0.57656 0.10731 -0.41200
F 	F 	0.80974 0.50750 0.07749 -0.37800
C 	C 	0.04531 0.12111 0.83731 -0.04100
C 	C 	0.03965 0.18337 0.81829 -0.01200
C 	C 	0.98965 0.22762 0.82499 0.01800
C 	C 	0.94873 0.21189 0.85140 -0.05100
C 	C 	0.96938 0.16465 0.87303 0.02200
C 	C 	0.01714 0.11829 0.86584 0.01200
C 	C 	0.03513 0.06564 0.88735 0.14400
C 	C 	0.97821 0.28646 0.80437 0.10500
C 	C 	0.92694 0.68292 0.76796 -0.06100
C 	C 	0.95970 0.65169 0.79128 0.01800
C 	C 	0.92182 0.56890 0.80069 0.01700
C 	C 	0.02976 0.70577 0.80658 0.09400
C 	C 	0.95832 0.53360 0.82272 0.12900
N 	N 	0.98755 0.50545 0.84029 -0.06600
