data_crystal

_cell_length_a 31.25737
_cell_length_b 28.78010
_cell_length_c 18.52937
_cell_angle_alpha 92.67842
_cell_angle_beta  85.31135
_cell_angle_gamma 124.33878

_symmetry_space_group_name_	'P 1'
_symmetry_space_group_name_H-M	'P 1'

loop_
_symmetry_equiv_pos_as_xyz
  x,y,z

loop_
_atom_site_label
_atom_site_type_symbol
_atom_site_fract_x
_atom_site_fract_y
_atom_site_fract_z
_atom_site_charge
C 	C 	0.93056 0.85361 0.84832 -0.00800
C 	C 	0.96847 0.87698 0.79040 -0.02500
C 	C 	0.95868 0.94744 0.88954 -0.07400
C 	C 	0.92598 0.88912 0.89797 -0.02400
N 	N 	0.02997 0.03126 0.82028 -0.14200
C 	C 	0.95045 0.11262 0.83932 -0.00500
C 	C 	0.97447 0.11090 0.89895 -0.02400
C 	C 	0.97876 0.06052 0.76802 -0.07000
C 	C 	0.95268 0.08730 0.77380 -0.02600
C 	C 	0.17538 0.11801 0.91719 -0.00000
C 	C 	0.16742 0.14288 0.86115 -0.02600
C 	C 	0.11951 0.11442 0.83042 -0.06600
C 	C 	0.07898 0.06039 0.85462 0.07500
C 	C 	0.08703 0.03565 0.91155 -0.06700
C 	C 	0.13497 0.06441 0.94237 -0.02800
C 	C 	0.86724 0.19015 0.87498 0.02500
C 	C 	0.84158 0.13427 0.85063 -0.04800
C 	C 	0.86912 0.10950 0.83627 -0.03700
C 	C 	0.92257 0.14050 0.84600 0.00800
C 	C 	0.94855 0.19708 0.86757 -0.03800
C 	C 	0.92094 0.22164 0.88255 -0.04700
C 	C 	0.83296 0.67837 0.89954 0.02200
C 	C 	0.81094 0.70669 0.88027 -0.04500
C 	C 	0.84292 0.76330 0.85976 -0.03900
C 	C 	0.89715 0.79210 0.85907 0.00800
C 	C 	0.91912 0.76301 0.87536 -0.03900
C 	C 	0.88714 0.70636 0.89551 -0.04500
C 	C 	0.32461 0.20702 0.00480 0.02300
C 	C 	0.30382 0.15338 0.97453 -0.03500
C 	C 	0.25472 0.12390 0.94710 -0.03600
C 	C 	0.22617 0.14802 0.94923 0.00200
C 	C 	0.24658 0.20124 0.98090 -0.01400
C 	C 	0.29559 0.23057 0.00871 -0.07400
H 	H 	0.97279 0.84992 0.75233 0.03500
H 	H 	0.02997 0.95307 0.73667 0.05300
H 	H 	0.95589 0.97425 0.92970 0.05000
H 	H 	0.89764 0.87151 0.94383 0.03700
H 	H 	0.97235 0.12963 0.95005 0.03700
H 	H 	0.01842 0.08271 0.93986 0.05100
H 	H 	0.97980 0.04051 0.71770 0.05000
H 	H 	0.93424 0.08835 0.72745 0.03400
H 	H 	0.19855 0.18409 0.84092 0.03700
H 	H 	0.11359 0.13449 0.78811 0.05000
H 	H 	0.05637 0.99472 0.93260 0.04800
H 	H 	0.14063 0.04511 0.98613 0.03900
H 	H 	0.80015 0.10970 0.84448 0.04600
H 	H 	0.84870 0.06583 0.81957 0.04000
H 	H 	0.94107 0.26480 0.90135 0.04500
H 	H 	0.76913 0.68520 0.88260 0.04500
H 	H 	0.82560 0.78521 0.84636 0.03900
H 	H 	0.96091 0.78479 0.87474 0.04000
H 	H 	0.90441 0.68463 0.90986 0.04400
H 	H 	0.32605 0.13495 0.97132 0.04800
H 	H 	0.23904 0.08256 0.92366 0.03900
H 	H 	0.22460 0.21995 0.98355 0.03600
H 	H 	0.31140 0.27196 0.03210 0.04500
C 	C 	0.89818 0.79691 0.56166 -0.00800
C 	C 	0.91762 0.81940 0.49185 -0.02400
C 	C 	0.94718 0.87755 0.48140 -0.07100
C 	C 	0.95780 0.91379 0.54050 0.07900
C 	C 	0.93647 0.89116 0.61019 -0.07300
C 	C 	0.90663 0.83290 0.62057 -0.02400
C 	C 	0.91797 0.05341 0.48769 -0.00700
C 	C 	0.90706 0.02589 0.55402 -0.02500
C 	C 	0.93238 0.00036 0.56883 -0.07000
C 	C 	0.96864 0.00172 0.51702 0.07900
C 	C 	0.95515 0.05603 0.43693 -0.02500
C 	C 	0.13074 0.06013 0.64663 -0.00900
C 	C 	0.11129 0.00605 0.61907 -0.01700
C 	C 	0.06553 0.97724 0.58298 -0.07800
C 	C 	0.03745 0.00132 0.57561 0.08100
C 	C 	0.05687 0.05557 0.60460 -0.07400
C 	C 	0.10319 0.08459 0.63963 -0.02000
C 	C 	0.83499 0.12505 0.43931 -0.01300
C 	C 	0.83520 0.08558 0.39210 -0.03000
C 	C 	0.86217 0.06214 0.40797 -0.04700
C 	C 	0.88974 0.07847 0.47076 0.01400
C 	C 	0.89009 0.11849 0.51748 -0.04700
C 	C 	0.86262 0.14144 0.50204 -0.02900
C 	C 	0.81613 0.61829 0.57659 -0.01600
C 	C 	0.79036 0.64465 0.59600 -0.02900
C 	C 	0.81765 0.70331 0.59429 -0.04700
C 	C 	0.87087 0.73594 0.57316 0.01500
C 	C 	0.89712 0.70968 0.55749 -0.04800
C 	C 	0.86984 0.65107 0.55909 -0.02900
C 	C 	0.28634 0.14392 0.70801 -0.01400
C 	C 	0.24582 0.09773 0.74852 -0.02900
C 	C 	0.19430 0.07255 0.73191 -0.04700
C 	C 	0.18290 0.09348 0.67483 0.01700
C 	C 	0.22302 0.14236 0.63836 -0.04700
C 	C 	0.27448 0.16741 0.65477 -0.02900
H 	H 	0.91057 0.79182 0.44589 0.03500
H 	H 	0.96318 0.89465 0.42761 0.04900
H 	H 	0.94453 0.91870 0.65633 0.05000
H 	H 	0.89111 0.81580 0.67451 0.03600
H 	H 	0.87868 0.02393 0.59381 0.03500
H 	H 	0.92416 0.98005 0.62046 0.04500
H 	H 	0.00833 0.03175 0.41169 0.04800
H 	H 	0.96443 0.07787 0.38603 0.03400
H 	H 	0.13275 0.98718 0.62310 0.03200
H 	H 	0.05262 0.93674 0.55880 0.05100
H 	H 	0.03712 0.07603 0.59862 0.05000
H 	H 	0.11866 0.12700 0.65889 0.03300
H 	H 	0.81420 0.07283 0.34340 0.03500
H 	H 	0.86140 0.03105 0.37175 0.04000
H 	H 	0.91151 0.13166 0.56582 0.04000
H 	H 	0.86241 0.17157 0.53911 0.03800
H 	H 	0.74900 0.61965 0.61064 0.03900
H 	H 	0.79718 0.72328 0.60720 0.04200
H 	H 	0.93838 0.73464 0.54213 0.04000
H 	H 	0.89012 0.63108 0.54468 0.03600
H 	H 	0.25442 0.07972 0.79039 0.03600
H 	H 	0.16345 0.03563 0.76163 0.04400
H 	H 	0.21462 0.15912 0.59459 0.04200
H 	H 	0.30534 0.20325 0.62342 0.03800
Co	Co	0.73661 0.36025 0.03556 1.17700
O 	O 	0.79668 0.35703 0.98274 -0.37300
Co	Co	0.62944 0.36119 0.05916 1.18000
O 	O 	0.67173 0.33177 0.98087 -0.43400
O 	O 	0.69135 0.43780 0.07387 -0.41700
O 	O 	0.73169 0.28255 0.03158 -0.35700
C 	C 	0.73244 0.46027 0.02750 0.29100
O 	O 	0.63643 0.37071 0.94385 -0.33800
C 	C 	0.53072 0.30810 0.09230 0.26900
C 	C 	0.69097 0.35219 0.16855 0.27700
O 	O 	0.56566 0.36024 0.10613 -0.36300
O 	O 	0.55264 0.28511 0.06049 -0.33900
O 	O 	0.73837 0.36755 0.15116 -0.34300
O 	O 	0.66288 0.33059 0.11338 -0.44500
O 	O 	0.76258 0.44104 0.02182 -0.51300
C 	C 	0.77634 0.30484 0.99656 0.30500
C 	C 	0.66697 0.35430 0.92608 0.26700
H 	H 	0.79990 0.46669 0.00170 0.16100
Co	Co	0.68366 0.27155 0.50658 1.18600
O 	O 	0.73188 0.26770 0.42479 -0.37300
Co	Co	0.58757 0.27602 0.59141 1.18700
O 	O 	0.60997 0.24489 0.48604 -0.44700
O 	O 	0.65309 0.35197 0.60050 -0.41200
O 	O 	0.67651 0.19388 0.48373 -0.35000
C 	C 	0.69425 0.37710 0.55354 0.35300
O 	O 	0.57316 0.28901 0.48509 -0.34400
C 	C 	0.50013 0.22377 0.66781 0.30700
C 	C 	0.66731 0.26381 0.65146 0.28500
O 	O 	0.53812 0.27556 0.67530 -0.36300
O 	O 	0.51081 0.20105 0.61392 -0.34700
O 	O 	0.71010 0.28042 0.61284 -0.35300
O 	O 	0.62839 0.24294 0.61135 -0.44800
O 	O 	0.70146 0.34975 0.49929 -0.53300
C 	C 	0.71296 0.21497 0.43249 0.31000
C 	C 	0.59599 0.26926 0.44623 0.28400
H 	H 	0.72421 0.37173 0.45488 0.18100
C 	C 	0.66937 0.33486 0.85279 0.03700
N 	N 	0.70760 0.32747 0.83049 -0.07300
N 	N 	0.70704 0.30484 0.76587 -0.06100
C 	C 	0.66753 0.28767 0.72280 0.02100
N 	N 	0.62914 0.29460 0.74546 -0.07500
N 	N 	0.63029 0.31835 0.80927 -0.05500
C 	C 	0.66778 0.33319 0.24198 0.03500
N 	N 	0.68522 0.31050 0.28375 -0.05900
N 	N 	0.66179 0.28940 0.34864 -0.08100
C 	C 	0.62103 0.29156 0.37427 0.02000
N 	N 	0.60375 0.31457 0.33269 -0.05900
N 	N 	0.62644 0.33450 0.26701 -0.07200
C 	C 	0.78639 0.55659 0.56977 0.06100
C 	C 	0.75089 0.52927 0.51609 -0.09300
C 	C 	0.72267 0.47086 0.50924 0.05200
C 	C 	0.72925 0.43891 0.55631 -0.16300
C 	C 	0.76593 0.46635 0.60977 0.15800
C 	C 	0.79447 0.52528 0.61570 -0.13000
H 	H 	0.69474 0.45017 0.46820 0.02400
H 	H 	0.82322 0.54673 0.65559 0.06100
H 	H 	0.74510 0.55337 0.47970 0.05600
N 	N 	0.77428 0.43662 0.65476 -0.21100
H 	H 	0.75652 0.39339 0.64837 0.10400
H 	H 	0.79994 0.45700 0.69579 0.09000
C 	C 	0.80451 0.14787 0.42442 0.05700
C 	C 	0.82868 0.20616 0.42028 -0.08900
C 	C 	0.79895 0.22813 0.41589 0.04400
C 	C 	0.74460 0.19200 0.41547 -0.13800
C 	C 	0.72079 0.13311 0.41095 0.15200
C 	C 	0.75081 0.11142 0.41781 -0.12500
H 	H 	0.81795 0.27333 0.41686 0.03100
H 	H 	0.73232 0.06626 0.41862 0.06400
H 	H 	0.87036 0.23455 0.42305 0.05200
N 	N 	0.66961 0.09751 0.39874 -0.20700
H 	H 	0.64783 0.11276 0.38548 0.10200
H 	H 	0.65177 0.05398 0.39863 0.09000
C 	C 	0.34081 0.16290 0.71435 0.05700
C 	C 	0.37957 0.22029 0.72239 -0.08900
C 	C 	0.43193 0.23979 0.71229 0.04300
C 	C 	0.44618 0.20194 0.69530 -0.13500
C 	C 	0.40737 0.14334 0.69753 0.15300
C 	C 	0.35480 0.12437 0.70406 -0.12400
H 	H 	0.46132 0.28460 0.71443 0.03300
H 	H 	0.32490 0.07976 0.70023 0.06400
H 	H 	0.36909 0.25011 0.73309 0.05100
N 	N 	0.42028 0.10540 0.69594 -0.20600
H 	H 	0.45834 0.11807 0.70210 0.10600
H 	H 	0.39153 0.06228 0.69358 0.09100
C 	C 	0.75101 0.51411 0.99267 -0.04200
C 	C 	0.75966 0.56005 0.03464 -0.02400
C 	C 	0.78389 0.61304 0.00294 -0.05200
C 	C 	0.79951 0.62064 0.92881 -0.01700
C 	C 	0.78744 0.57350 0.88513 0.08200
C 	C 	0.76377 0.52058 0.91783 -0.05500
H 	H 	0.79231 0.64873 0.03654 0.03800
H 	H 	0.75587 0.48462 0.88516 0.04800
H 	H 	0.74947 0.55523 0.09239 0.04400
N 	N 	0.79809 0.57865 0.81218 -0.19600
H 	H 	0.81343 0.61677 0.78584 0.08900
H 	H 	0.78952 0.54369 0.78067 0.08600
C 	C 	0.79434 0.27170 0.95997 -0.06600
C 	C 	0.78336 0.22283 0.99263 0.02100
C 	C 	0.80490 0.19451 0.96224 -0.04200
C 	C 	0.83730 0.21431 0.89829 -0.02700
C 	C 	0.84520 0.26108 0.86191 0.08100
C 	C 	0.82448 0.29018 0.89402 -0.04000
H 	H 	0.79803 0.15831 0.98991 0.04700
H 	H 	0.83155 0.32688 0.86740 0.05700
H 	H 	0.75964 0.20791 0.04312 0.02800
N 	N 	0.87175 0.27754 0.79599 -0.19500
H 	H 	0.88381 0.25402 0.76812 0.08900
H 	H 	0.87885 0.31316 0.77060 0.08800
C 	C 	0.47900 0.29054 0.07325 -0.02700
C 	C 	0.43616 0.26050 0.12301 -0.02900
C 	C 	0.38588 0.23541 0.10099 -0.01400
C 	C 	0.37795 0.23974 0.02878 -0.06800
C 	C 	0.42132 0.27217 0.97895 0.13800
C 	C 	0.47161 0.29753 0.00195 -0.10600
H 	H 	0.35293 0.21104 0.13952 0.03400
H 	H 	0.50497 0.32120 0.96369 0.08100
H 	H 	0.44167 0.25502 0.17817 0.04400
N 	N 	0.41495 0.27844 0.90907 -0.20400
H 	H 	0.37820 0.26135 0.89061 0.09400
H 	H 	0.44718 0.30133 0.87237 0.09300
C 	C 	0.00321 0.05920 0.82728 0.07700
C 	C 	0.00084 0.93538 0.78140 -0.07600
C 	C 	0.99587 0.97095 0.83028 0.08000
C 	C 	0.00081 0.08451 0.89306 -0.07300
H 	H 	0.98989 0.22155 0.87448 0.04000
N 	N 	0.99371 0.97368 0.52980 -0.14400
C 	C 	0.98015 0.03012 0.45150 -0.07000
