data_crystal

_cell_length_a 15.31408
_cell_length_b 15.26821
_cell_length_c 33.67449
_cell_angle_alpha 95.38889
_cell_angle_beta  95.38924
_cell_angle_gamma 126.70350

_symmetry_space_group_name_	'P 1'
_symmetry_space_group_name_H-M	'P 1'

loop_
_symmetry_equiv_pos_as_xyz
  x,y,z

loop_
_atom_site_label
_atom_site_type_symbol
_atom_site_fract_x
_atom_site_fract_y
_atom_site_fract_z
_atom_site_charge
C 	C 	0.85922 0.96799 0.97280 0.02400
C 	C 	0.97162 0.02951 0.96992 -0.07100
C 	C 	0.01787 0.97511 0.96196 0.02900
C 	C 	0.95144 0.85871 0.95672 -0.07400
C 	C 	0.83901 0.79701 0.96011 0.02900
C 	C 	0.79353 0.85210 0.96820 -0.07300
H 	H 	0.02306 0.11948 0.97413 0.04800
H 	H 	0.98641 0.81633 0.94937 0.05000
H 	H 	0.70676 0.80468 0.97056 0.04700
C 	C 	0.97614 0.08781 0.48697 0.02900
C 	C 	0.90901 0.97130 0.48205 -0.07700
C 	C 	0.95761 0.91709 0.48201 0.03200
C 	C 	0.07294 0.97933 0.48712 -0.07600
C 	C 	0.14018 0.09554 0.49081 0.03100
C 	C 	0.09137 0.14933 0.49088 -0.07600
H 	H 	0.81954 0.92304 0.47746 0.04800
H 	H 	0.11018 0.93747 0.48914 0.05000
H 	H 	0.14306 0.23910 0.49398 0.04600
Cu	Cu	0.71185 0.29641 0.95154 0.92900
Cu	Cu	0.76059 0.25183 0.04171 0.86700
Cu	Cu	0.56235 0.24178 0.01442 0.89400
Cu	Cu	0.49162 0.27229 0.93222 0.89300
C 	C 	0.61797 0.26885 0.86987 0.26200
O 	O 	0.77113 0.45232 0.94672 -0.37800
C 	C 	0.67417 0.30958 0.10076 0.26000
O 	O 	0.54450 0.20271 0.95695 -0.63700
O 	O 	0.72322 0.32906 0.01098 -0.64600
O 	O 	0.79773 0.23765 0.95049 -0.38000
O 	O 	0.71838 0.13580 0.99912 -0.44300
O 	O 	0.52614 0.25135 0.87787 -0.37800
O 	O 	0.40423 0.14838 0.01338 -0.39400
C 	C 	0.33239 0.14208 0.98591 0.30900
C 	C 	0.72682 0.49765 0.96041 0.30400
O 	O 	0.62675 0.43543 0.96900 -0.38900
O 	O 	0.36610 0.21718 0.96233 -0.39700
O 	O 	0.67286 0.24670 0.89399 -0.35500
C 	C 	0.77493 0.15741 0.96967 0.31200
O 	O 	0.58029 0.25600 0.07414 -0.38400
O 	O 	0.76483 0.33191 0.08979 -0.41500
H 	H 	0.49889 0.12160 0.94675 0.16500
H 	H 	0.76644 0.40898 0.02286 0.16800
Cu	Cu	0.64410 0.22936 0.51653 0.92700
Cu	Cu	0.75258 0.24367 0.43494 0.87100
Cu	Cu	0.71282 0.40676 0.46388 0.89600
Cu	Cu	0.62337 0.42044 0.53763 0.89400
C 	C 	0.64729 0.30389 0.59867 0.26100
O 	O 	0.47864 0.15185 0.50865 -0.36800
C 	C 	0.69631 0.33422 0.37682 0.26200
O 	O 	0.72560 0.40126 0.52062 -0.63900
O 	O 	0.64336 0.24456 0.45868 -0.64000
O 	O 	0.71648 0.15518 0.51952 -0.37500
O 	O 	0.84446 0.27053 0.48333 -0.44600
O 	O 	0.59270 0.33876 0.58358 -0.37900
O 	O 	0.78576 0.56557 0.47331 -0.38700
C 	C 	0.76423 0.61849 0.49912 0.30800
C 	C 	0.43446 0.19264 0.49022 0.30200
O 	O 	0.49733 0.29726 0.48640 -0.39900
O 	O 	0.68451 0.56509 0.52029 -0.40200
O 	O 	0.66568 0.24492 0.57471 -0.35400
C 	C 	0.80762 0.19272 0.50529 0.30700
O 	O 	0.72903 0.41692 0.40644 -0.38200
O 	O 	0.69018 0.24769 0.38420 -0.41400
H 	H 	0.80208 0.45376 0.53653 0.16200
H 	H 	0.56909 0.19575 0.44100 0.16900
C 	C 	0.58709 0.21373 0.76442 0.07500
C 	C 	0.59284 0.16939 0.72711 -0.08100
C 	C 	0.59282 0.21791 0.69368 0.00900
C 	C 	0.60655 0.31680 0.69877 0.07800
C 	C 	0.61628 0.36924 0.73717 -0.08500
C 	C 	0.59668 0.31052 0.76899 0.01300
N 	N 	0.61613 0.19877 0.80064 -0.15100
C 	C 	0.64078 0.28379 0.82872 0.00700
C 	C 	0.63445 0.35745 0.80967 -0.04800
N 	N 	0.65031 0.37098 0.66848 -0.15300
C 	C 	0.66024 0.30514 0.64262 0.00100
C 	C 	0.63009 0.21127 0.65851 -0.04100
H 	H 	0.60234 0.10435 0.72472 0.05400
H 	H 	0.64334 0.45380 0.74243 0.05200
H 	H 	0.62858 0.41943 0.82447 0.04300
H 	H 	0.60833 0.13515 0.64127 0.05300
H 	H 	0.59350 0.12260 0.80680 0.08900
H 	H 	0.65039 0.43622 0.66138 0.08000
C 	C 	0.74368 0.34600 0.20621 0.07100
C 	C 	0.80362 0.40571 0.24554 -0.08300
C 	C 	0.75267 0.35797 0.27803 0.00600
C 	C 	0.64221 0.26654 0.27182 0.07500
C 	C 	0.57751 0.21718 0.23262 -0.08500
C 	C 	0.63333 0.25325 0.20002 0.00700
N 	N 	0.76638 0.39107 0.17266 -0.15200
C 	C 	0.67183 0.32547 0.14431 -0.00400
C 	C 	0.58589 0.24203 0.16114 -0.04600
N 	N 	0.60100 0.26193 0.30569 -0.15200
C 	C 	0.68623 0.34770 0.33451 -0.00300
C 	C 	0.78053 0.41296 0.31742 -0.04400
H 	H 	0.88348 0.48707 0.25051 0.04900
H 	H 	0.48800 0.15729 0.22783 0.05000
H 	H 	0.50905 0.16638 0.14405 0.04500
H 	H 	0.86460 0.47098 0.33443 0.03800
H 	H 	0.84609 0.44701 0.16668 0.08200
H 	H 	0.52918 0.19016 0.31165 0.08000
C 	C 	0.88812 0.79465 0.47546 -0.00500
C 	C 	0.82317 0.73909 0.50189 -0.14300
H 	H 	0.89856 0.75121 0.45123 0.04300
H 	H 	0.81434 0.78359 0.52633 0.07300
C 	C 	0.85855 0.13591 0.50897 -0.15700
C 	C 	0.92577 0.14520 0.48377 -0.00500
H 	H 	0.83726 0.08227 0.53124 0.07900
H 	H 	0.94857 0.20008 0.46189 0.02000
C 	C 	0.26261 0.16287 0.49806 0.00100
C 	C 	0.31361 0.12702 0.48023 -0.14500
H 	H 	0.31205 0.24433 0.51772 0.02700
H 	H 	0.26592 0.04706 0.45981 0.06800
C 	C 	0.76624 0.67415 0.95226 -0.00100
C 	C 	0.79520 0.61914 0.97104 -0.14600
H 	H 	0.68613 0.62826 0.93211 0.02800
H 	H 	0.87472 0.66457 0.99149 0.07000
C 	C 	0.81082 0.02497 0.98221 0.00900
C 	C 	0.81798 0.09573 0.95932 -0.16000
H 	H 	0.76530 0.00545 0.00703 0.01800
H 	H 	0.85964 0.11118 0.93349 0.08100
C 	C 	0.21368 0.06683 0.98833 -0.13500
C 	C 	0.13490 0.04021 0.95740 -0.00700
H 	H 	0.19014 0.03199 0.01563 0.06800
H 	H 	0.15749 0.07301 0.92972 0.03300
