data_crystal

_cell_length_a 26.04032
_cell_length_b 26.33457
_cell_length_c 35.11399
_cell_angle_alpha 95.52777
_cell_angle_beta  95.52284
_cell_angle_gamma 125.63492

_symmetry_space_group_name_	'P 1'
_symmetry_space_group_name_H-M	'P 1'

loop_
_symmetry_equiv_pos_as_xyz
  x,y,z

loop_
_atom_site_label
_atom_site_type_symbol
_atom_site_fract_x
_atom_site_fract_y
_atom_site_fract_z
_atom_site_charge
C 	C 	0.98798 0.03326 0.99000 0.15100
N 	N 	0.94855 0.96876 0.98450 -0.12200
C 	C 	0.97207 0.93530 0.97671 0.16000
N 	N 	0.03514 0.96640 0.97475 -0.12200
C 	C 	0.07451 0.03077 0.97977 0.15500
N 	N 	0.05099 0.06431 0.98756 -0.12500
C 	C 	0.91068 0.98966 0.46231 0.17200
N 	N 	0.97587 0.02995 0.46868 -0.13100
C 	C 	0.01065 0.00684 0.47145 0.15700
N 	N 	0.98031 0.94343 0.46849 -0.12800
C 	C 	0.91510 0.90282 0.46224 0.16000
N 	N 	0.88011 0.92591 0.45870 -0.12300
Cu	Cu	0.66267 0.25173 0.00855 0.93100
Cu	Cu	0.71637 0.24314 0.92918 0.88000
Cu	Cu	0.70128 0.34446 0.95234 0.90100
Cu	Cu	0.66163 0.36993 0.02474 0.91000
C 	C 	0.67210 0.30382 0.08707 0.29900
O 	O 	0.56815 0.21423 0.00503 -0.35400
C 	C 	0.68201 0.29009 0.86973 0.29800
O 	O 	0.71453 0.34926 0.00753 -0.63900
O 	O 	0.65645 0.25162 0.95193 -0.63900
O 	O 	0.70260 0.20640 0.01248 -0.36600
O 	O 	0.77514 0.26627 0.97539 -0.41600
O 	O 	0.64689 0.33098 0.07261 -0.35900
O 	O 	0.74908 0.43554 0.95673 -0.36200
C 	C 	0.74132 0.47223 0.97994 0.31200
C 	C 	0.54365 0.23957 0.98757 0.30500
O 	O 	0.58212 0.29639 0.97944 -0.37800
O 	O 	0.69786 0.44886 0.00262 -0.36900
O 	O 	0.68281 0.26918 0.06427 -0.35900
C 	C 	0.75733 0.22858 0.00091 0.31700
O 	O 	0.70359 0.34094 0.89616 -0.37900
O 	O 	0.67782 0.24084 0.87942 -0.40800
H 	H 	0.76014 0.37784 0.02091 0.18800
H 	H 	0.61223 0.22436 0.93635 0.17600
Cu	Cu	0.69061 0.31570 0.44747 0.92600
Cu	Cu	0.73019 0.29764 0.53407 0.88400
Cu	Cu	0.61436 0.31126 0.50958 0.91400
Cu	Cu	0.57616 0.32795 0.42991 0.90700
C 	C 	0.63722 0.30442 0.36908 0.30100
O 	O 	0.73907 0.40821 0.44134 -0.36500
C 	C 	0.65481 0.30539 0.58507 0.29500
O 	O 	0.59651 0.27995 0.45483 -0.63600
O 	O 	0.70352 0.34078 0.50482 -0.62800
O 	O 	0.71670 0.25713 0.44413 -0.35000
O 	O 	0.78691 0.30373 0.50211 -0.41200
O 	O 	0.58999 0.30683 0.37738 -0.36100
O 	O 	0.52620 0.27567 0.51265 -0.36100
C 	C 	0.48676 0.27468 0.48555 0.30800
C 	C 	0.71820 0.44180 0.45100 0.30700
O 	O 	0.66350 0.41522 0.46323 -0.37500
O 	O 	0.50879 0.31310 0.46015 -0.36400
O 	O 	0.66185 0.28437 0.39250 -0.35800
C 	C 	0.76332 0.26467 0.46855 0.30800
O 	O 	0.63510 0.33299 0.56571 -0.37000
O 	O 	0.66466 0.26725 0.56597 -0.41500
H 	H 	0.56358 0.23331 0.44723 0.17600
H 	H 	0.73467 0.38741 0.51370 0.16200
C 	C 	0.62491 0.30803 0.77184 -0.09100
C 	C 	0.66170 0.30034 0.74865 0.00700
C 	C 	0.70557 0.28987 0.76535 0.03200
C 	C 	0.71123 0.28626 0.80495 -0.01000
C 	C 	0.67408 0.29337 0.82813 -0.10500
C 	C 	0.63005 0.30372 0.81142 0.10900
C 	C 	0.65366 0.30270 0.70670 0.00500
C 	C 	0.74676 0.28307 0.74110 -0.17800
H 	H 	0.74509 0.27851 0.81790 0.04100
C 	C 	0.58884 0.31057 0.83560 -0.21200
H 	H 	0.59166 0.31654 0.75892 0.06400
C 	C 	0.60914 0.24655 0.67882 0.03500
C 	C 	0.60927 0.24845 0.63902 -0.01000
C 	C 	0.65213 0.30583 0.62678 -0.10500
C 	C 	0.69420 0.36265 0.65463 0.10200
C 	C 	0.69428 0.36063 0.69446 -0.08800
C 	C 	0.56287 0.18431 0.69143 -0.18000
H 	H 	0.57642 0.20511 0.61753 0.05100
C 	C 	0.74002 0.42510 0.64210 -0.20800
H 	H 	0.72752 0.40379 0.71601 0.06200
H 	H 	0.55060 0.30892 0.81712 0.08500
H 	H 	0.61918 0.35682 0.85628 0.09100
H 	H 	0.56479 0.27122 0.85216 0.08000
H 	H 	0.77798 0.32714 0.72942 0.07500
H 	H 	0.71584 0.24213 0.71650 0.07400
H 	H 	0.77835 0.27476 0.75844 0.07600
H 	H 	0.52794 0.14597 0.66619 0.08000
H 	H 	0.53504 0.18971 0.71134 0.08000
H 	H 	0.58981 0.16920 0.70671 0.07500
H 	H 	0.77197 0.46442 0.66748 0.08300
H 	H 	0.71247 0.43781 0.62475 0.09300
H 	H 	0.77100 0.42137 0.62420 0.06500
C 	C 	0.65220 0.24935 0.18449 -0.09100
C 	C 	0.67552 0.30616 0.20951 0.00700
C 	C 	0.70401 0.36321 0.19489 0.03800
C 	C 	0.70685 0.36205 0.15513 -0.01200
C 	C 	0.67888 0.30441 0.12944 -0.09700
C 	C 	0.65121 0.24732 0.14429 0.11400
C 	C 	0.66520 0.30452 0.25029 0.00700
C 	C 	0.73018 0.42509 0.22137 -0.18300
H 	H 	0.72875 0.40581 0.14385 0.04700
C 	C 	0.61910 0.18408 0.11756 -0.21600
H 	H 	0.63166 0.20597 0.19607 0.06300
C 	C 	0.60421 0.28174 0.25902 0.03800
C 	C 	0.59554 0.28018 0.29781 -0.01000
C 	C 	0.64777 0.30481 0.32831 -0.09200
C 	C 	0.70964 0.33059 0.31958 0.11300
C 	C 	0.71701 0.32741 0.28051 -0.08900
C 	C 	0.54805 0.25821 0.22704 -0.18300
H 	H 	0.54805 0.26003 0.30429 0.05600
C 	C 	0.76810 0.36302 0.35151 -0.21800
H 	H 	0.76371 0.34477 0.27363 0.06300
H 	H 	0.59302 0.14378 0.13323 0.08800
H 	H 	0.65586 0.18209 0.10544 0.10300
H 	H 	0.58327 0.17692 0.09348 0.09900
H 	H 	0.77149 0.43846 0.24354 0.08300
H 	H 	0.69215 0.42023 0.23622 0.08500
H 	H 	0.74717 0.46453 0.20497 0.08400
H 	H 	0.50632 0.24994 0.23900 0.08300
H 	H 	0.53254 0.21267 0.20932 0.08100
H 	H 	0.56177 0.29388 0.20799 0.08300
H 	H 	0.76710 0.32717 0.36634 0.09800
H 	H 	0.76969 0.39800 0.37290 0.09900
H 	H 	0.81334 0.38958 0.33980 0.08900
C 	C 	0.75499 0.50891 0.44706 -0.10400
C 	C 	0.73128 0.52731 0.41795 0.15000
C 	C 	0.75827 0.59164 0.41934 -0.08400
C 	C 	0.81016 0.63824 0.44894 0.03100
C 	C 	0.83659 0.62019 0.47664 0.08000
C 	C 	0.80870 0.55562 0.47569 -0.00600
H 	H 	0.73869 0.60542 0.39748 0.09100
C 	C 	0.83534 0.70559 0.45135 0.01400
H 	H 	0.82758 0.54174 0.49791 0.05600
C 	C 	0.81766 0.73280 0.47846 -0.06400
C 	C 	0.84181 0.79679 0.48158 0.12300
C 	C 	0.88272 0.83368 0.45655 -0.03000
C 	C 	0.89867 0.80572 0.42862 -0.03700
C 	C 	0.87577 0.74226 0.42618 0.10000
H 	H 	0.78617 0.70455 0.49770 0.08700
H 	H 	0.93026 0.83388 0.40939 0.08600
Br	Br	0.91054 0.68293 0.51595 -0.19400
Br	Br	0.66247 0.46521 0.37580 -0.25400
Br	Br	0.82147 0.83365 0.52172 -0.19200
Br	Br	0.90218 0.70719 0.38926 -0.19200
C 	C 	0.77880 0.21925 0.46209 -0.10500
C 	C 	0.73115 0.15346 0.45964 0.14800
C 	C 	0.74783 0.11160 0.45665 -0.08400
C 	C 	0.81193 0.13475 0.45727 0.02900
C 	C 	0.85940 0.20027 0.45922 0.08200
C 	C 	0.84263 0.24212 0.46156 -0.00800
H 	H 	0.71125 0.06124 0.45522 0.08900
C 	C 	0.82959 0.09068 0.45813 0.01400
H 	H 	0.87946 0.29259 0.46361 0.06500
C 	C 	0.83427 0.06390 0.42334 -0.06400
C 	C 	0.85651 0.02666 0.42410 0.12100
C 	C 	0.87366 0.01546 0.45990 -0.03800
C 	C 	0.86525 0.03906 0.49440 -0.03500
C 	C 	0.84358 0.07675 0.49371 0.10000
H 	H 	0.82236 0.07350 0.39582 0.08400
H 	H 	0.87818 0.03036 0.52199 0.08000
Br	Br	0.94762 0.23364 0.45981 -0.19300
Br	Br	0.64409 0.12029 0.46340 -0.25000
Br	Br	0.86534 0.99330 0.37615 -0.17200
Br	Br	0.83600 0.11103 0.54183 -0.20400
C 	C 	0.08080 0.04999 0.47568 -0.03200
C 	C 	0.10939 0.07457 0.44361 0.12400
C 	C 	0.17638 0.11361 0.44774 -0.06600
C 	C 	0.21520 0.12794 0.48355 0.01400
C 	C 	0.18665 0.10438 0.51582 0.10100
C 	C 	0.11962 0.06533 0.51170 -0.03700
H 	H 	0.19829 0.13182 0.42288 0.08500
C 	C 	0.28541 0.16532 0.48650 0.03000
H 	H 	0.09769 0.04661 0.53646 0.08000
C 	C 	0.32352 0.23188 0.49602 -0.08400
C 	C 	0.38982 0.26822 0.49683 0.15200
C 	C 	0.41824 0.23775 0.48761 -0.09600
C 	C 	0.38037 0.17117 0.47914 -0.01100
C 	C 	0.31416 0.13487 0.47837 0.08400
H 	H 	0.30156 0.25538 0.50270 0.09100
H 	H 	0.40224 0.14760 0.47243 0.05800
Br	Br	0.23845 0.12438 0.56553 -0.19200
Br	Br	0.05767 0.05345 0.39362 -0.18200
Br	Br	0.44096 0.35909 0.51201 -0.20000
Br	Br	0.26355 0.04377 0.46570 -0.19200
C 	C 	0.93082 0.86603 0.97380 -0.03200
C 	C 	0.91991 0.82563 0.93968 0.12300
C 	C 	0.88728 0.76052 0.93913 -0.06500
C 	C 	0.86476 0.73517 0.97222 0.01400
C 	C 	0.87365 0.77518 0.00585 0.10200
C 	C 	0.90637 0.84029 0.00643 -0.03600
H 	H 	0.87958 0.72961 0.91300 0.08500
C 	C 	0.83329 0.66706 0.97176 0.02900
H 	H 	0.91433 0.87120 0.03265 0.08900
C 	C 	0.87051 0.64695 0.98399 -0.08200
C 	C 	0.84103 0.58303 0.98605 0.14800
C 	C 	0.77368 0.53862 0.97551 -0.09400
C 	C 	0.73667 0.55851 0.96233 -0.00700
C 	C 	0.76614 0.62239 0.96030 0.08400
H 	H 	0.92227 0.68126 0.99264 0.08900
H 	H 	0.68485 0.52434 0.95393 0.06800
Br	Br	0.84228 0.74182 0.05143 -0.18300
Br	Br	0.94758 0.85825 0.89326 -0.18300
Br	Br	0.89322 0.55792 0.00506 -0.21700
Br	Br	0.71392 0.64803 0.94242 -0.18600
C 	C 	0.96206 0.06923 0.99769 -0.03200
C 	C 	0.93959 0.06990 0.03253 0.12500
C 	C 	0.90858 0.09847 0.03754 -0.06500
C 	C 	0.89942 0.12609 0.00795 0.01500
C 	C 	0.92416 0.12762 0.97378 0.09900
C 	C 	0.95557 0.09947 0.96890 -0.03800
H 	H 	0.89047 0.09810 0.06412 0.08600
C 	C 	0.86133 0.15061 0.01208 0.03000
H 	H 	0.97334 0.09953 0.94221 0.08600
C 	C 	0.89285 0.21561 0.02589 -0.08400
C 	C 	0.85836 0.24111 0.02493 0.15200
C 	C 	0.79169 0.20126 0.01009 -0.10600
C 	C 	0.75952 0.13552 0.99910 -0.01300
C 	C 	0.79403 0.11009 0.99984 0.08000
H 	H 	0.94442 0.24664 0.03631 0.09000
H 	H 	0.70807 0.10452 0.98818 0.05800
Br	Br	0.91370 0.16619 0.93297 -0.20500
Br	Br	0.95156 0.03279 0.07375 -0.19900
Br	Br	0.90290 0.33020 0.04445 -0.21300
Br	Br	0.74886 0.02037 0.98233 -0.19800
C 	C 	0.47460 0.20997 0.98404 -0.10400
C 	C 	0.45334 0.24181 0.00376 0.15600
C 	C 	0.38752 0.21265 0.00042 -0.08500
C 	C 	0.34240 0.15130 0.97844 0.02800
C 	C 	0.36345 0.11952 0.95856 0.08300
C 	C 	0.42940 0.14892 0.96151 -0.00800
H 	H 	0.37136 0.23699 0.01591 0.09000
C 	C 	0.27341 0.11933 0.97838 0.01400
H 	H 	0.44549 0.12425 0.94635 0.05800
C 	C 	0.23694 0.12575 0.94991 -0.06600
C 	C 	0.17207 0.09801 0.95049 0.12400
C 	C 	0.14348 0.06406 0.98006 -0.03300
C 	C 	0.18011 0.05796 0.00860 -0.03700
C 	C 	0.24478 0.08536 0.00790 0.10100
H 	H 	0.25897 0.15212 0.92724 0.08500
H 	H 	0.15813 0.03147 0.03124 0.07900
Br	Br	0.30284 0.03571 0.92777 -0.19600
Br	Br	0.51306 0.32324 0.03752 -0.25500
Br	Br	0.12277 0.10498 0.90987 -0.19100
Br	Br	0.29322 0.07555 0.04734 -0.19800
