data_crystal

_cell_length_a 26.12549
_cell_length_b 26.31288
_cell_length_c 26.57681
_cell_angle_alpha 95.49958
_cell_angle_beta  95.49998
_cell_angle_gamma 125.76986

_symmetry_space_group_name_	'P 1'
_symmetry_space_group_name_H-M	'P 1'

loop_
_symmetry_equiv_pos_as_xyz
  x,y,z

loop_
_atom_site_label
_atom_site_type_symbol
_atom_site_fract_x
_atom_site_fract_y
_atom_site_fract_z
_atom_site_charge
C 	C 	0.96888 0.03033 0.98553 0.10200
C 	C 	0.05762 0.03136 0.97301 0.11000
N 	N 	0.00829 0.04387 0.45466 -0.13400
C 	C 	0.04220 0.02022 0.46162 0.11300
C 	C 	0.74347 0.05309 0.48062 -0.03500
C 	C 	0.77099 0.02091 0.48136 -0.05500
C 	C 	0.82548 0.04241 0.45951 0.02800
C 	C 	0.90679 0.03050 0.43767 -0.00300
C 	C 	0.85394 0.01069 0.46147 -0.05700
H 	H 	0.70080 0.03515 0.49708 0.03500
C 	C 	0.11281 0.06268 0.46852 -0.00500
C 	C 	0.14957 0.05228 0.50171 -0.02900
H 	H 	0.24357 0.08261 0.53339 0.04100
C 	C 	0.14398 0.03625 0.93553 -0.03500
H 	H 	0.22145 0.04299 0.90777 0.03900
C 	C 	0.94306 0.00428 0.44617 0.10400
C 	C 	0.20888 0.06498 0.93537 -0.03000
N 	N 	0.03166 0.06299 0.98094 -0.13400
C 	C 	0.93976 0.06416 0.99285 -0.00300
C 	C 	0.12549 0.06619 0.96749 -0.00200
H 	H 	0.31079 0.06319 0.94524 0.04600
H 	H 	0.12676 0.01679 0.52580 0.04600
C 	C 	0.88430 0.03682 0.01465 -0.05400
C 	C 	0.79215 0.03249 0.03152 -0.05300
H 	H 	0.70919 0.02945 0.03789 0.03900
C 	C 	0.21589 0.08800 0.50448 -0.03400
C 	C 	0.92783 0.07867 0.40844 -0.03200
C 	C 	0.75671 0.05656 0.02831 -0.03200
C 	C 	0.85217 0.06477 0.01641 0.02900
H 	H 	0.32291 0.09737 0.50053 0.04600
H 	H 	0.96607 0.09161 0.38735 0.04200
C 	C 	0.85185 0.09610 0.43521 -0.01000
H 	H 	0.86502 0.99274 0.02879 0.05200
H 	H 	0.77173 0.98728 0.04390 0.04500
H 	H 	0.00599 0.14173 0.95635 0.05200
N 	N 	0.93238 0.96605 0.98219 -0.13700
C 	C 	0.95836 0.93451 0.97476 0.10900
N 	N 	0.02089 0.96725 0.97022 -0.13100
N 	N 	0.01077 0.95681 0.46001 -0.13100
C 	C 	0.94562 0.91683 0.45129 0.10800
N 	N 	0.91163 0.94061 0.44461 -0.13500
Cu	Cu	0.64006 0.24196 0.00589 0.92900
Cu	Cu	0.69060 0.24733 0.89707 0.86800
Cu	Cu	0.67343 0.34248 0.94019 0.89700
Cu	Cu	0.64776 0.36351 0.04372 0.89600
C 	C 	0.66230 0.28919 0.11385 0.28900
O 	O 	0.54745 0.20812 0.00663 -0.35200
C 	C 	0.65868 0.30591 0.82832 0.28300
O 	O 	0.69480 0.34151 0.01103 -0.63900
O 	O 	0.63021 0.24905 0.93280 -0.64200
O 	O 	0.67812 0.19484 0.00058 -0.36600
O 	O 	0.74995 0.26293 0.95460 -0.43900
O 	O 	0.63479 0.31649 0.10161 -0.37900
O 	O 	0.72203 0.43410 0.94993 -0.37900
C 	C 	0.72198 0.47141 0.98696 0.28800
C 	C 	0.52456 0.23781 0.98951 0.27800
O 	O 	0.56422 0.29732 0.98399 -0.39400
O 	O 	0.68884 0.44892 0.02418 -0.38900
O 	O 	0.66322 0.25090 0.07862 -0.35300
C 	C 	0.73264 0.22036 0.98414 0.28300
O 	O 	0.65728 0.34145 0.86614 -0.36900
O 	O 	0.65313 0.25401 0.83508 -0.41300
H 	H 	0.74141 0.36822 0.02534 0.17100
H 	H 	0.58564 0.22237 0.91306 0.17800
Cu	Cu	0.73839 0.33835 0.43896 0.92900
Cu	Cu	0.73646 0.29275 0.54971 0.86800
Cu	Cu	0.64203 0.31285 0.50799 0.89800
Cu	Cu	0.61886 0.33633 0.40392 0.89600
C 	C 	0.68726 0.31396 0.33136 0.28900
O 	O 	0.77607 0.43062 0.43556 -0.35600
C 	C 	0.68195 0.32948 0.61938 0.28200
O 	O 	0.63904 0.28828 0.43684 -0.64100
O 	O 	0.73526 0.35227 0.51270 -0.64000
O 	O 	0.78393 0.29852 0.44376 -0.36800
O 	O 	0.71789 0.23108 0.49316 -0.43800
O 	O 	0.66181 0.34336 0.34388 -0.38000
O 	O 	0.55024 0.26782 0.50080 -0.37700
C 	C 	0.51251 0.26681 0.46316 0.28900
C 	C 	0.74949 0.45707 0.45256 0.27800
O 	O 	0.69051 0.42079 0.46095 -0.39200
O 	O 	0.53574 0.30182 0.42725 -0.39000
O 	O 	0.72506 0.31158 0.36623 -0.35500
C 	C 	0.75925 0.24595 0.46249 0.28500
O 	O 	0.64708 0.33286 0.58225 -0.37000
O 	O 	0.73305 0.33308 0.61177 -0.41200
H 	H 	0.61022 0.24174 0.42344 0.17000
H 	H 	0.76393 0.39711 0.53122 0.17900
C 	C 	0.66912 0.33120 0.67233 -0.06700
C 	C 	0.71695 0.38160 0.71240 0.00200
C 	C 	0.71132 0.37563 0.76415 -0.00400
C 	C 	0.65745 0.31958 0.77567 -0.06600
C 	C 	0.60567 0.27349 0.73566 0.00200
C 	C 	0.61165 0.27905 0.68391 -0.00400
C 	C 	0.77155 0.43961 0.70035 0.08400
C 	C 	0.54628 0.22069 0.74778 0.08400
C 	C 	0.55951 0.23033 0.64265 0.07600
C 	C 	0.76164 0.42629 0.80544 0.07600
N 	N 	0.51790 0.19147 0.60972 -0.11800
N 	N 	0.80176 0.46672 0.83841 -0.11900
N 	N 	0.49889 0.17856 0.75748 -0.11700
N 	N 	0.81512 0.48589 0.69071 -0.11700
C 	C 	0.67549 0.28723 0.16862 -0.06300
C 	C 	0.73331 0.33905 0.20058 -0.00200
C 	C 	0.73946 0.34544 0.25455 0.00400
C 	C 	0.68787 0.29964 0.27643 -0.06200
C 	C 	0.63318 0.24415 0.24443 -0.00200
C 	C 	0.62687 0.23797 0.19046 0.00500
C 	C 	0.78585 0.38638 0.17788 0.07300
C 	C 	0.58294 0.19408 0.26709 0.07400
C 	C 	0.56960 0.18199 0.15741 0.09100
C 	C 	0.79790 0.40011 0.28757 0.08900
N 	N 	0.52390 0.13735 0.13100 -0.10900
N 	N 	0.84451 0.44373 0.31393 -0.11300
N 	N 	0.54287 0.15416 0.28521 -0.12000
N 	N 	0.82774 0.42413 0.15973 -0.12100
C 	C 	0.91231 0.84759 0.44639 -0.00400
C 	C 	0.93525 0.81878 0.41922 -0.03100
C 	C 	0.91069 0.75554 0.42030 -0.03400
C 	C 	0.85977 0.71847 0.44649 -0.00700
C 	C 	0.83813 0.74828 0.47546 0.02600
C 	C 	0.86323 0.81209 0.47398 -0.05200
C 	C 	0.79427 0.71525 0.50765 -0.04700
C 	C 	0.77264 0.65359 0.51228 -0.03600
C 	C 	0.79130 0.62223 0.48242 0.00700
C 	C 	0.83252 0.65323 0.44728 0.01000
C 	C 	0.84287 0.61752 0.41227 -0.05200
C 	C 	0.81872 0.55494 0.41611 0.00300
C 	C 	0.78083 0.52542 0.45281 -0.07100
C 	C 	0.76715 0.55916 0.48588 -0.01900
H 	H 	0.97417 0.84634 0.39877 0.04400
H 	H 	0.93432 0.73730 0.40360 0.04000
H 	H 	0.84670 0.83488 0.49616 0.04800
H 	H 	0.77811 0.73804 0.53028 0.04200
H 	H 	0.74021 0.62964 0.53853 0.04000
H 	H 	0.86576 0.63618 0.38007 0.04500
H 	H 	0.82692 0.52831 0.38874 0.04800
H 	H 	0.73664 0.53592 0.51352 0.04300
C 	C 	0.78109 0.20578 0.45201 -0.07900
C 	C 	0.83764 0.22990 0.43247 0.00500
C 	C 	0.86170 0.19456 0.42709 -0.05600
C 	C 	0.82818 0.13301 0.43960 0.01300
C 	C 	0.77236 0.10973 0.46105 0.00200
C 	C 	0.74796 0.14512 0.46533 -0.01800
C 	C 	0.89971 0.11030 0.40615 -0.03400
H 	H 	0.86452 0.27723 0.42325 0.04200
H 	H 	0.90823 0.21704 0.41638 0.04400
H 	H 	0.70431 0.12628 0.48058 0.03900
H 	H 	0.74951 0.97881 0.49868 0.04400
H 	H 	0.91336 0.14351 0.38013 0.03900
H 	H 	0.83608 0.97187 0.48254 0.05100
C 	C 	0.24612 0.13290 0.47209 -0.00700
C 	C 	0.21008 0.14808 0.44288 0.02700
C 	C 	0.14341 0.11198 0.44041 -0.05100
C 	C 	0.24107 0.19953 0.41701 -0.04800
C 	C 	0.30723 0.23552 0.41925 -0.03500
C 	C 	0.34297 0.21825 0.44465 0.00600
C 	C 	0.31218 0.16499 0.46951 0.01300
C 	C 	0.34680 0.14257 0.48783 -0.05200
C 	C 	0.41210 0.17637 0.48627 0.00800
C 	C 	0.44353 0.23157 0.46477 -0.07000
C 	C 	0.40877 0.25222 0.44374 -0.01500
H 	H 	0.11531 0.12145 0.41596 0.05100
H 	H 	0.21393 0.21224 0.39558 0.04300
H 	H 	0.33051 0.27592 0.39986 0.03900
H 	H 	0.43788 0.15850 0.50054 0.04200
H 	H 	0.43272 0.29432 0.42632 0.04400
C 	C 	0.91904 0.86499 0.97211 -0.00800
C 	C 	0.92870 0.82769 0.93902 -0.03000
C 	C 	0.89494 0.76254 0.93893 -0.03400
C 	C 	0.85281 0.73413 0.97377 -0.00900
C 	C 	0.83834 0.77045 0.00330 0.02800
C 	C 	0.87263 0.83598 0.00322 -0.04900
C 	C 	0.78901 0.74073 0.03174 -0.04800
C 	C 	0.75410 0.67547 0.03135 -0.03500
C 	C 	0.77059 0.63957 0.00523 0.00700
C 	C 	0.82226 0.66933 0.97823 0.01100
C 	C 	0.84461 0.63498 0.95935 -0.05300
C 	C 	0.81157 0.57054 0.96200 0.00800
C 	C 	0.75730 0.53981 0.98519 -0.07300
C 	C 	0.73735 0.57462 0.00728 -0.01200
H 	H 	0.96178 0.84906 0.91273 0.04200
H 	H 	0.89941 0.73416 0.91010 0.04000
H 	H 	0.86370 0.86441 0.02770 0.04900
H 	H 	0.77691 0.76807 0.05357 0.04200
H 	H 	0.71509 0.65306 0.05255 0.03900
H 	H 	0.88925 0.65849 0.94524 0.04500
H 	H 	0.82920 0.54486 0.94709 0.04200
H 	H 	0.69619 0.55132 0.02620 0.04300
C 	C 	0.77314 0.19939 0.99667 -0.08300
C 	C 	0.83834 0.23846 0.99301 0.00600
C 	C 	0.87475 0.21543 0.99703 -0.06200
C 	C 	0.84566 0.15178 0.00289 0.01600
C 	C 	0.78254 0.11551 0.01339 0.00100
C 	C 	0.74609 0.13890 0.00906 -0.01100
C 	C 	0.87858 0.12380 0.00015 -0.00900
C 	C 	0.93385 0.15042 0.97757 -0.03300
C 	C 	0.96443 0.12119 0.97467 -0.04300
H 	H 	0.86092 0.28685 0.98699 0.03300
H 	H 	0.92578 0.24799 0.99776 0.04300
H 	H 	0.69651 0.10956 0.01416 0.04600
H 	H 	0.95097 0.19116 0.95926 0.03500
C 	C 	0.45542 0.20787 0.98397 -0.07700
C 	C 	0.41002 0.14296 0.96271 0.01100
C 	C 	0.34436 0.11423 0.95817 -0.05600
C 	C 	0.32307 0.15081 0.97381 0.01800
C 	C 	0.36921 0.21522 0.99873 -0.00400
C 	C 	0.43494 0.24385 0.00207 -0.00300
C 	C 	0.34932 0.24945 0.02209 -0.02800
C 	C 	0.28434 0.21998 0.02226 -0.04800
C 	C 	0.23777 0.15712 0.99606 0.02800
C 	C 	0.25660 0.12347 0.96870 -0.01000
C 	C 	0.17236 0.12763 0.99634 -0.05600
H 	H 	0.42557 0.11444 0.95017 0.03400
H 	H 	0.47020 0.29354 0.02027 0.03200
H 	H 	0.38449 0.29857 0.04159 0.03700
H 	H 	0.27014 0.24647 0.04224 0.04400
H 	H 	0.10793 0.99057 0.91065 0.04900
H 	H 	0.15813 0.15191 0.01968 0.05400
