data_crystal

_cell_length_a 30.00226
_cell_length_b 27.12548
_cell_length_c 42.97114
_cell_angle_alpha 89.88346
_cell_angle_beta  89.86363
_cell_angle_gamma 90.95281

_symmetry_space_group_name_	'P 1'
_symmetry_space_group_name_H-M	'P 1'

loop_
_symmetry_equiv_pos_as_xyz
  x,y,z

loop_
_atom_site_label
_atom_site_type_symbol
_atom_site_fract_x
_atom_site_fract_y
_atom_site_fract_z
_atom_site_charge
Zn	Zn	0.50813 0.51085 0.98540 1.22200
C 	C 	0.55480 0.42016 0.99548 0.30800
O 	O 	0.55030 0.54904 0.95987 -0.46900
O 	O 	0.53647 0.40624 0.96909 -0.44100
O 	O 	0.59041 0.48651 0.94047 -0.48300
C 	C 	0.44462 0.45001 0.95377 0.36100
O 	O 	0.46013 0.46296 0.98106 -0.44700
O 	O 	0.46924 0.45681 0.92873 -0.50600
C 	C 	0.58899 0.53064 0.95270 0.30100
O 	O 	0.45468 0.57103 0.97564 -0.31500
Zn	Zn	0.53444 0.45149 0.93067 1.16900
O 	O 	0.55047 0.46579 0.00554 -0.43100
C 	C 	0.46206 0.58541 0.00392 0.25400
O 	O 	0.49145 0.56058 0.01922 -0.37500
Zn	Zn	0.25778 0.25525 0.00068 1.21900
C 	C 	0.25222 0.22760 0.93593 0.33900
O 	O 	0.27420 0.32533 0.99840 -0.46300
O 	O 	0.21059 0.24186 0.93744 -0.44700
O 	O 	0.24752 0.34180 0.95032 -0.48400
C 	C 	0.16531 0.23163 0.00499 0.30000
O 	O 	0.20511 0.21316 0.00176 -0.44900
O 	O 	0.15710 0.27593 0.99420 -0.49100
C 	C 	0.27867 0.34740 0.97139 0.29800
O 	O 	0.24960 0.26250 0.05507 -0.33000
Zn	Zn	0.19250 0.30545 0.96021 1.16900
O 	O 	0.27942 0.23481 0.95955 -0.43800
C 	C 	0.28689 0.23922 0.05647 0.29800
O 	O 	0.30452 0.22742 0.03004 -0.38700
C 	C 	0.55319 0.02575 0.38465 0.14600
C 	C 	0.52504 0.05694 0.36787 -0.11200
H 	H 	0.50285 0.08133 0.38019 0.07500
C 	C 	0.52553 0.05623 0.33528 0.07400
C 	C 	0.55403 0.02452 0.31951 -0.09900
C 	C 	0.58182 0.99309 0.33611 0.07400
C 	C 	0.58162 0.99377 0.36871 -0.11200
H 	H 	0.60309 0.96944 0.38167 0.07500
N 	N 	0.55253 0.02619 0.41810 -0.17900
C 	C 	0.52693 0.99188 0.43384 0.19100
C 	C 	0.52548 0.99206 0.46659 -0.05900
C 	C 	0.55029 0.02789 0.48295 0.03100
C 	C 	0.57633 0.06278 0.46653 -0.05900
C 	C 	0.57722 0.06117 0.43378 0.19100
C 	C 	0.49958 0.95705 0.48317 -0.01200
C 	C 	0.49852 0.95786 0.51571 -0.01200
C 	C 	0.52328 0.99373 0.53221 -0.05900
C 	C 	0.54906 0.02883 0.51579 0.03100
C 	C 	0.57366 0.06485 0.53213 -0.05900
C 	C 	0.60098 0.09874 0.48303 -0.01200
C 	C 	0.59961 0.09981 0.51556 -0.01200
C 	C 	0.52279 0.99499 0.56497 0.19100
N 	N 	0.54705 0.03034 0.58064 -0.17900
C 	C 	0.57199 0.06522 0.56488 0.19100
C 	C 	0.54686 0.03041 0.61410 0.14600
C 	C 	0.51148 0.05183 0.63040 -0.11200
C 	C 	0.51119 0.05135 0.66301 0.07300
C 	C 	0.54629 0.02997 0.67926 -0.09900
C 	C 	0.58152 0.00851 0.66312 0.07300
C 	C 	0.58185 0.00861 0.63052 -0.11300
O 	O 	0.60188 0.09338 0.41810 -0.19900
O 	O 	0.50346 0.95875 0.41820 -0.19900
O 	O 	0.49917 0.96187 0.58068 -0.19900
O 	O 	0.59449 0.09919 0.58050 -0.20000
H 	H 	0.60897 0.99175 0.61793 0.07500
H 	H 	0.48435 0.06842 0.61772 0.07500
H 	H 	0.62120 0.12596 0.47075 0.05100
H 	H 	0.61883 0.12781 0.52777 0.05100
H 	H 	0.48026 0.92914 0.47095 0.05200
H 	H 	0.47840 0.93055 0.52799 0.05200
H 	H 	0.54598 0.02958 0.70452 0.06000
H 	H 	0.55416 0.02383 0.29425 0.06100
Zn	Zn	0.78467 0.73837 0.99414 1.22000
C 	C 	0.76170 0.73447 0.05947 0.34100
O 	O 	0.84999 0.74413 0.99550 -0.45900
O 	O 	0.76676 0.68653 0.05723 -0.44900
O 	O 	0.86119 0.70834 0.04236 -0.48600
C 	C 	0.74397 0.64230 0.99067 0.35500
O 	O 	0.73659 0.68961 0.99309 -0.44500
O 	O 	0.78269 0.62470 0.99898 -0.50700
C 	C 	0.87110 0.74302 0.02213 0.29300
O 	O 	0.78828 0.73087 0.93954 -0.32800
Zn	Zn	0.81810 0.65610 0.03208 1.16700
O 	O 	0.77158 0.76375 0.03589 -0.44100
C 	C 	0.77497 0.77606 0.93917 0.29900
O 	O 	0.76814 0.79600 0.96607 -0.37700
Zn	Zn	0.26180 0.76418 0.00234 1.22000
C 	C 	0.24030 0.78576 0.06626 0.33800
O 	O 	0.25206 0.82658 0.98059 -0.46400
O 	O 	0.28173 0.80183 0.06887 -0.45200
O 	O 	0.26122 0.87789 0.02157 -0.49000
C 	C 	0.34951 0.74608 0.02413 0.35900
O 	O 	0.30837 0.72913 0.02387 -0.46100
O 	O 	0.35751 0.79367 0.02147 -0.50200
C 	C 	0.24016 0.86580 0.99596 0.30700
O 	O 	0.29074 0.73155 0.95594 -0.31800
Zn	Zn	0.31389 0.84237 0.03460 1.17000
O 	O 	0.22353 0.77458 0.03883 -0.44200
C 	C 	0.25237 0.70933 0.95319 0.29700
O 	O 	0.22474 0.71663 0.97587 -0.38100
C 	C 	0.99746 0.51935 0.61506 0.13600
C 	C 	0.02857 0.54826 0.63163 -0.10100
H 	H 	0.05132 0.57279 0.61921 0.07400
C 	C 	0.03042 0.54487 0.66413 0.06800
C 	C 	0.00105 0.51315 0.68002 -0.08800
C 	C 	0.97012 0.48425 0.66365 0.06300
C 	C 	0.96824 0.48723 0.63114 -0.10600
H 	H 	0.94442 0.46470 0.61834 0.07300
N 	N 	0.99604 0.52200 0.58167 -0.18100
C 	C 	0.02617 0.49595 0.56446 0.19400
C 	C 	0.02516 0.49785 0.53173 -0.05400
C 	C 	0.99274 0.52631 0.51691 0.02600
C 	C 	0.96209 0.55276 0.53483 -0.05900
C 	C 	0.96445 0.55035 0.56752 0.18900
C 	C 	0.05598 0.47166 0.51366 -0.01200
C 	C 	0.05430 0.47378 0.48117 -0.01200
C 	C 	0.02171 0.50201 0.46620 -0.05400
C 	C 	0.99091 0.52826 0.48411 0.02600
C 	C 	0.95823 0.55636 0.46929 -0.05900
C 	C 	0.92955 0.58107 0.51986 -0.01300
C 	C 	0.92761 0.58281 0.48735 -0.01300
C 	C 	0.01933 0.50435 0.43352 0.19400
N 	N 	0.98694 0.53155 0.41935 -0.18100
C 	C 	0.95667 0.55745 0.43655 0.18900
C 	C 	0.98457 0.53273 0.38596 0.14000
C 	C 	0.00499 0.57164 0.36935 -0.10700
C 	C 	0.00348 0.57212 0.33677 0.07900
C 	C 	0.98162 0.53390 0.32085 -0.10600
C 	C 	0.96168 0.49481 0.33730 0.07400
C 	C 	0.96288 0.49428 0.36987 -0.11200
O 	O 	0.93625 0.57548 0.58462 -0.20000
O 	O 	0.05603 0.46881 0.57865 -0.19800
O 	O 	0.04833 0.48033 0.41643 -0.19800
O 	O 	0.92588 0.58325 0.42233 -0.20000
H 	H 	0.94753 0.46399 0.38271 0.07400
H 	H 	0.02225 0.60097 0.38177 0.07500
H 	H 	0.90565 0.60169 0.53330 0.05100
H 	H 	0.90225 0.60476 0.47632 0.05100
H 	H 	0.08128 0.44964 0.52469 0.05200
H 	H 	0.07833 0.45333 0.46773 0.05200
H 	H 	0.98081 0.53413 0.29560 0.06100
H 	H 	0.00258 0.51060 0.70522 0.06000
Zn	Zn	0.75815 0.21769 0.00571 1.22100
C 	C 	0.75783 0.25078 0.94178 0.33600
O 	O 	0.71676 0.27233 0.00881 -0.45400
O 	O 	0.71419 0.24745 0.94374 -0.45700
O 	O 	0.65668 0.22295 0.99885 -0.49800
C 	C 	0.75683 0.12510 0.97458 0.30500
O 	O 	0.75689 0.14612 0.00199 -0.47400
O 	O 	0.72894 0.13994 0.95329 -0.48600
C 	C 	0.67345 0.26517 0.00876 0.35100
O 	O 	0.75217 0.20539 0.05988 -0.32300
Zn	Zn	0.68311 0.18725 0.96392 1.17000
O 	O 	0.78299 0.23383 0.96432 -0.43800
C 	C 	0.79172 0.22523 0.06115 0.29700
O 	O 	0.80862 0.23897 0.03471 -0.38500
Zn	Zn	0.99067 0.00343 0.00809 1.21800
C 	C 	0.07733 0.95874 0.00772 0.33900
O 	O 	0.95393 0.95982 0.03444 -0.47900
O 	O 	0.08408 0.98130 0.03442 -0.44500
O 	O 	0.00902 0.92436 0.06184 -0.48400
C 	C 	0.03890 0.08276 0.03663 0.36300
O 	O 	0.03029 0.06026 0.01034 -0.45400
O 	O 	0.02933 0.06086 0.06319 -0.49900
C 	C 	0.97069 0.92071 0.04750 0.34400
O 	O 	0.93303 0.06052 0.00826 -0.34000
Zn	Zn	0.03622 0.98951 0.06807 1.17200
O 	O 	0.03721 0.95685 0.99511 -0.41900
C 	C 	0.92340 0.04419 0.98072 0.31200
O 	O 	0.94936 0.01007 0.97033 -0.37400
C 	C 	0.79416 0.09367 0.96589 -0.03900
C 	C 	0.82907 0.11343 0.94774 -0.03700
C 	C 	0.87131 0.09238 0.94881 0.02900
C 	C 	0.87872 0.05136 0.96791 -0.13300
C 	C 	0.84205 0.02715 0.98207 0.19600
C 	C 	0.79990 0.04861 0.98123 -0.08900
H 	H 	0.89906 0.11064 0.93714 0.03000
H 	H 	0.77257 0.03203 0.99430 0.06600
H 	H 	0.82457 0.14751 0.93501 0.05100
O 	O 	0.84789 0.98403 0.99821 -0.28100
H 	H 	0.85399 0.99409 0.02000 0.15100
C 	C 	0.89121 0.39407 0.71702 0.01700
C 	C 	0.90856 0.34996 0.72851 -0.04300
C 	C 	0.88939 0.32735 0.75469 -0.03700
C 	C 	0.85262 0.34863 0.76938 0.00300
C 	C 	0.83280 0.39014 0.75608 -0.03700
C 	C 	0.85204 0.41275 0.72994 -0.04300
C 	C 	0.83807 0.33092 0.80028 0.01100
C 	C 	0.82018 0.28314 0.80387 -0.04600
C 	C 	0.80644 0.26653 0.83324 -0.02900
C 	C 	0.81057 0.29755 0.85918 -0.01400
C 	C 	0.82912 0.34497 0.85572 -0.02900
C 	C 	0.84288 0.36161 0.82638 -0.04600
C 	C 	0.79290 0.28195 0.88882 0.05100
C 	C 	0.77785 0.26805 0.91339 -0.12100
C 	C 	0.91833 0.42512 0.69720 -0.00700
C 	C 	0.94097 0.45121 0.68061 -0.03100
H 	H 	0.93855 0.33495 0.71842 0.04300
H 	H 	0.90451 0.29484 0.76450 0.03900
H 	H 	0.80378 0.40620 0.76686 0.03800
H 	H 	0.83810 0.44651 0.72096 0.04300
H 	H 	0.81657 0.25910 0.78390 0.04100
H 	H 	0.79203 0.22983 0.83576 0.03600
H 	H 	0.83237 0.36915 0.87566 0.03700
H 	H 	0.85719 0.39835 0.82388 0.04000
C 	C 	0.90719 0.38428 0.28485 0.01600
C 	C 	0.93579 0.35066 0.27064 -0.04200
C 	C 	0.92110 0.32295 0.24514 -0.03700
C 	C 	0.87771 0.32869 0.23380 0.00400
C 	C 	0.84790 0.35883 0.24986 -0.03700
C 	C 	0.86261 0.38649 0.27537 -0.04200
C 	C 	0.86575 0.30944 0.20290 0.01100
C 	C 	0.85525 0.25928 0.19895 -0.04400
C 	C 	0.84272 0.24153 0.16965 -0.03100
C 	C 	0.84080 0.27383 0.14418 -0.00600
C 	C 	0.85226 0.32371 0.14799 -0.03100
C 	C 	0.86468 0.34148 0.17725 -0.04400
C 	C 	0.82406 0.25658 0.11473 0.04400
C 	C 	0.81003 0.24210 0.09008 -0.09400
C 	C 	0.92558 0.42269 0.30420 -0.00500
C 	C 	0.94144 0.45464 0.32037 -0.03500
H 	H 	0.97018 0.34828 0.27808 0.04300
H 	H 	0.94416 0.29919 0.23315 0.03900
H 	H 	0.81409 0.36285 0.24155 0.04100
H 	H 	0.84012 0.41192 0.28648 0.04400
H 	H 	0.85627 0.23424 0.21860 0.04200
H 	H 	0.83385 0.20290 0.16686 0.04000
H 	H 	0.85086 0.34888 0.12841 0.03800
H 	H 	0.87313 0.38021 0.18008 0.04000
C 	C 	0.19796 0.88966 0.98837 -0.03700
C 	C 	0.15821 0.86161 0.98770 -0.03200
C 	C 	0.11705 0.88499 0.98941 0.03000
C 	C 	0.11546 0.93647 0.99195 -0.13700
C 	C 	0.15499 0.96462 0.98799 0.19900
C 	C 	0.19616 0.94114 0.98655 -0.09000
H 	H 	0.08677 0.86293 0.99164 0.04700
H 	H 	0.22670 0.96302 0.98565 0.06500
H 	H 	0.15926 0.82170 0.98824 0.04900
O 	O 	0.15350 0.01514 0.98671 -0.28200
H 	H 	0.15832 0.02654 0.00839 0.15900
C 	C 	0.20947 0.67305 0.86617 -0.00400
C 	C 	0.16581 0.65607 0.86091 -0.03100
C 	C 	0.15071 0.64860 0.83052 -0.04300
C 	C 	0.17921 0.65817 0.80517 0.01100
C 	C 	0.22314 0.67446 0.81049 -0.04300
C 	C 	0.23821 0.68194 0.84092 -0.03000
C 	C 	0.16324 0.64980 0.77319 0.00500
C 	C 	0.12720 0.67667 0.76176 -0.03600
C 	C 	0.10538 0.66139 0.73465 -0.04100
C 	C 	0.11936 0.61912 0.71894 0.01800
C 	C 	0.15830 0.59559 0.72847 -0.04200
C 	C 	0.18012 0.61077 0.75561 -0.03700
C 	C 	0.08878 0.59376 0.69858 -0.00500
C 	C 	0.06304 0.57266 0.68153 -0.03000
C 	C 	0.22382 0.68470 0.89726 0.04500
C 	C 	0.23655 0.69472 0.92309 -0.09100
H 	H 	0.14341 0.64922 0.88032 0.04100
H 	H 	0.11690 0.63542 0.82665 0.04200
H 	H 	0.24545 0.68165 0.79108 0.04300
H 	H 	0.27199 0.69523 0.84483 0.04400
H 	H 	0.11460 0.70765 0.77478 0.04300
H 	H 	0.07573 0.68031 0.72715 0.04500
H 	H 	0.16977 0.56334 0.71616 0.04400
H 	H 	0.20848 0.59038 0.76393 0.04000
C 	C 	0.06747 0.67534 0.28305 0.01700
C 	C 	0.11336 0.67129 0.27778 -0.04100
C 	C 	0.13340 0.69581 0.25263 -0.03600
C 	C 	0.10760 0.72468 0.23264 0.00400
C 	C 	0.06248 0.73212 0.23957 -0.03700
C 	C 	0.04248 0.70752 0.26473 -0.04200
C 	C 	0.12633 0.74173 0.20266 0.01100
C 	C 	0.16383 0.77333 0.20204 -0.04600
C 	C 	0.18498 0.78438 0.17378 -0.02900
C 	C 	0.16875 0.76396 0.14600 -0.01300
C 	C 	0.13031 0.73395 0.14643 -0.02900
C 	C 	0.10916 0.72283 0.17466 -0.04500
C 	C 	0.19317 0.77122 0.11746 0.05200
C 	C 	0.21412 0.77776 0.09381 -0.11700
C 	C 	0.04495 0.63994 0.30276 -0.00300
C 	C 	0.02625 0.61020 0.31930 -0.03400
H 	H 	0.13300 0.64686 0.29204 0.04500
H 	H 	0.16839 0.69028 0.24770 0.04100
H 	H 	0.04247 0.75509 0.22461 0.03800
H 	H 	0.00706 0.71129 0.26887 0.04300
H 	H 	0.17718 0.78834 0.22349 0.04100
H 	H 	0.21455 0.80788 0.17358 0.03700
H 	H 	0.11747 0.71823 0.12502 0.03900
H 	H 	0.08027 0.69832 0.17489 0.04100
C 	C 	0.89724 0.78651 0.03206 -0.03100
C 	C 	0.87527 0.82929 0.04128 -0.04300
C 	C 	0.89961 0.87220 0.04822 0.04000
C 	C 	0.94629 0.87303 0.04584 -0.15600
C 	C 	0.96861 0.82943 0.03780 0.19400
C 	C 	0.94395 0.78635 0.03090 -0.09500
H 	H 	0.88206 0.90531 0.05457 0.03100
H 	H 	0.96112 0.75333 0.02388 0.06000
H 	H 	0.83922 0.82963 0.04246 0.05300
O 	O 	0.01412 0.82968 0.03462 -0.28800
H 	H 	0.02564 0.81968 0.05527 0.14900
C 	C 	0.67663 0.94410 0.71644 0.01600
C 	C 	0.70590 0.97431 0.73354 -0.04100
C 	C 	0.72863 0.95509 0.75909 -0.03800
C 	C 	0.72214 0.90553 0.76765 0.00500
C 	C 	0.69608 0.87434 0.74874 -0.03700
C 	C 	0.67348 0.89359 0.72316 -0.04100
C 	C 	0.73730 0.88809 0.79833 0.01100
C 	C 	0.72021 0.90922 0.82559 -0.04200
C 	C 	0.72994 0.88878 0.85462 -0.03000
C 	C 	0.75673 0.84711 0.85661 -0.00300
C 	C 	0.77519 0.82707 0.82953 -0.03000
C 	C 	0.76553 0.84750 0.80046 -0.04200
C 	C 	0.76284 0.82296 0.88610 0.04700
C 	C 	0.76834 0.80221 0.91058 -0.09000
C 	C 	0.64378 0.96627 0.69677 -0.00400
C 	C 	0.61640 0.98517 0.68034 -0.03300
H 	H 	0.70898 0.01329 0.72823 0.04200
H 	H 	0.74944 0.97925 0.77314 0.04000
H 	H 	0.69132 0.83585 0.75490 0.04100
H 	H 	0.65133 0.86985 0.70980 0.04400
H 	H 	0.69828 0.94047 0.82420 0.04100
H 	H 	0.71573 0.90459 0.87548 0.04200
H 	H 	0.79615 0.79499 0.83093 0.04300
H 	H 	0.77909 0.83111 0.77959 0.04300
C 	C 	0.72794 0.79223 0.14365 -0.01200
C 	C 	0.71270 0.84061 0.14603 -0.02800
C 	C 	0.70207 0.86009 0.17515 -0.04500
C 	C 	0.70670 0.83130 0.20211 0.01200
C 	C 	0.72215 0.78292 0.19970 -0.04500
C 	C 	0.73276 0.76346 0.17054 -0.02800
C 	C 	0.69331 0.85116 0.23259 0.00400
C 	C 	0.71417 0.89398 0.24421 -0.03700
C 	C 	0.69584 0.91849 0.26968 -0.04200
C 	C 	0.65659 0.90036 0.28365 0.01700
C 	C 	0.63811 0.85523 0.27384 -0.04200
C 	C 	0.65634 0.83072 0.24833 -0.03600
C 	C 	0.63081 0.93234 0.30306 -0.00400
C 	C 	0.60933 0.95926 0.31931 -0.03300
C 	C 	0.73936 0.77237 0.11370 0.05400
C 	C 	0.74904 0.75529 0.08876 -0.11600
H 	H 	0.70900 0.86308 0.12535 0.04000
H 	H 	0.68978 0.89734 0.17675 0.04200
H 	H 	0.72578 0.76039 0.22036 0.04200
H 	H 	0.74469 0.72607 0.16886 0.03700
H 	H 	0.74329 0.90951 0.23262 0.03900
H 	H 	0.71064 0.95309 0.27735 0.04300
H 	H 	0.60803 0.84067 0.28473 0.04400
H 	H 	0.64035 0.79730 0.23980 0.04100
C 	C 	0.12930 0.20126 0.01907 -0.02700
C 	C 	0.08592 0.20272 0.00703 -0.04800
C 	C 	0.05439 0.16654 0.01553 0.04400
C 	C 	0.06593 0.12855 0.03610 -0.16100
C 	C 	0.10797 0.13004 0.05061 0.20700
C 	C 	0.13949 0.16629 0.04202 -0.09800
H 	H 	0.02186 0.16624 0.00461 0.03000
H 	H 	0.17250 0.16582 0.05220 0.07600
H 	H 	0.07736 0.23007 0.98974 0.04600
O 	O 	0.11974 0.09359 0.07103 -0.31400
H 	H 	0.11141 0.10607 0.09189 0.14200
C 	C 	0.29920 0.17675 0.85307 -0.01200
C 	C 	0.32788 0.13661 0.85161 -0.02800
C 	C 	0.34580 0.12221 0.82304 -0.04500
C 	C 	0.33509 0.14791 0.79572 0.01200
C 	C 	0.30554 0.18740 0.79714 -0.04500
C 	C 	0.28766 0.20176 0.82574 -0.02800
C 	C 	0.35711 0.13547 0.76610 0.00400
C 	C 	0.35202 0.08802 0.75351 -0.03700
C 	C 	0.37876 0.07349 0.72858 -0.04200
C 	C 	0.41073 0.10627 0.71611 0.01600
C 	C 	0.41343 0.15484 0.72709 -0.04200
C 	C 	0.38676 0.16941 0.75205 -0.03700
C 	C 	0.44561 0.08774 0.69654 -0.00500
C 	C 	0.47466 0.07181 0.68016 -0.03300
C 	C 	0.28305 0.19363 0.88270 0.05400
C 	C 	0.26911 0.20844 0.90724 -0.11500
H 	H 	0.33688 0.11705 0.87263 0.03900
H 	H 	0.36874 0.09181 0.82220 0.04100
H 	H 	0.29695 0.20735 0.77619 0.04200
H 	H 	0.26537 0.23276 0.82670 0.03700
H 	H 	0.32867 0.06181 0.76385 0.04200
H 	H 	0.37621 0.03598 0.72004 0.04400
H 	H 	0.43784 0.18052 0.71743 0.04200
H 	H 	0.39062 0.20630 0.76139 0.03800
C 	C 	0.44490 0.13948 0.28076 0.01700
C 	C 	0.40273 0.12118 0.27221 -0.04200
C 	C 	0.38085 0.14097 0.24647 -0.03700
C 	C 	0.40099 0.17931 0.22923 0.00500
C 	C 	0.44139 0.20037 0.23947 -0.03700
C 	C 	0.46326 0.18049 0.26517 -0.04100
C 	C 	0.38258 0.19333 0.19875 0.01100
C 	C 	0.33966 0.21285 0.19672 -0.04300
C 	C 	0.32106 0.22277 0.16761 -0.03000
C 	C 	0.34524 0.21323 0.14038 -0.00500
C 	C 	0.38834 0.19446 0.14236 -0.03000
C 	C 	0.40697 0.18450 0.17144 -0.04300
C 	C 	0.32549 0.22198 0.11042 0.04500
C 	C 	0.30835 0.22957 0.08557 -0.09500
C 	C 	0.47263 0.11072 0.30085 -0.00400
C 	C 	0.49607 0.08684 0.31766 -0.03300
H 	H 	0.38810 0.08977 0.28433 0.04400
H 	H 	0.34938 0.12484 0.23899 0.04000
H 	H 	0.45679 0.23064 0.22667 0.04200
H 	H 	0.49565 0.19520 0.27186 0.04500
H 	H 	0.32060 0.21983 0.21765 0.04300
H 	H 	0.28775 0.23745 0.16623 0.04200
H 	H 	0.40725 0.18710 0.12141 0.04200
H 	H 	0.44002 0.16913 0.17275 0.04300
C 	C 	0.32162 0.37107 0.96308 -0.03200
C 	C 	0.32298 0.41622 0.94706 -0.04100
C 	C 	0.36388 0.44056 0.94176 0.03800
C 	C 	0.40365 0.41971 0.95225 -0.16100
C 	C 	0.40248 0.37285 0.96637 0.20200
C 	C 	0.36158 0.34890 0.97192 -0.09500
H 	H 	0.36445 0.47657 0.93079 0.02700
H 	H 	0.36091 0.31337 0.98352 0.07200
H 	H 	0.29235 0.43330 0.93972 0.04300
O 	O 	0.44114 0.35173 0.97639 -0.28600
H 	H 	0.45178 0.33200 0.95853 0.13800
C 	C 	0.44358 0.63146 0.01570 -0.01500
C 	C 	0.41221 0.62996 0.03988 -0.04800
C 	C 	0.38371 0.66961 0.04444 0.04100
C 	C 	0.38659 0.71117 0.02492 -0.15900
C 	C 	0.42142 0.71489 0.00297 0.19700
C 	C 	0.44971 0.67499 0.99842 -0.09200
H 	H 	0.35781 0.66690 0.06200 0.03100
H 	H 	0.47457 0.67673 0.98008 0.07600
H 	H 	0.40772 0.59677 0.05369 0.05200
O 	O 	0.42541 0.75556 0.98408 -0.28600
H 	H 	0.44642 0.77816 0.99501 0.14800
C 	C 	0.58463 0.38617 0.01137 -0.03500
C 	C 	0.63071 0.39508 0.00998 -0.04500
C 	C 	0.66017 0.35578 0.01166 0.03400
C 	C 	0.64371 0.30716 0.01507 -0.15600
C 	C 	0.59790 0.29933 0.02116 0.19600
C 	C 	0.56861 0.33896 0.01943 -0.09700
H 	H 	0.69549 0.36284 0.00826 0.03500
H 	H 	0.53307 0.33224 0.02197 0.07600
H 	H 	0.64352 0.43174 0.00463 0.04700
O 	O 	0.58182 0.25338 0.02919 -0.28700
H 	H 	0.57027 0.23882 0.00958 0.13800
C 	C 	0.63023 0.55538 0.96380 -0.04000
C 	C 	0.67015 0.55231 0.94682 -0.03800
C 	C 	0.70820 0.57882 0.95649 0.03100
C 	C 	0.70659 0.60845 0.98321 -0.15000
C 	C 	0.66730 0.60940 0.00113 0.18800
C 	C 	0.62933 0.58317 0.99134 -0.08100
H 	H 	0.73839 0.57759 0.94264 0.02600
H 	H 	0.59908 0.58467 0.00512 0.06500
H 	H 	0.67142 0.53056 0.92573 0.04200
O 	O 	0.66550 0.63731 0.02768 -0.28100
H 	H 	0.67497 0.61508 0.04469 0.14400
