data_crystal

_cell_length_a 18.60316
_cell_length_b 18.83985
_cell_length_c 26.64446
_cell_angle_alpha 95.42530
_cell_angle_beta  95.42200
_cell_angle_gamma 126.36199

_symmetry_space_group_name_	'P 1'
_symmetry_space_group_name_H-M	'P 1'

loop_
_symmetry_equiv_pos_as_xyz
  x,y,z

loop_
_atom_site_label
_atom_site_type_symbol
_atom_site_fract_x
_atom_site_fract_y
_atom_site_fract_z
_atom_site_charge
C 	C 	0.96552 0.05167 0.00397 0.11500
N 	N 	0.05662 0.09808 0.00569 -0.13700
C 	C 	0.09288 0.05314 0.00210 0.11300
N 	N 	0.03816 0.96249 0.99633 -0.13800
C 	C 	0.94752 0.91616 0.99403 0.11800
N 	N 	0.91133 0.96079 0.99792 -0.13800
C 	C 	0.89772 0.98713 0.44564 0.11800
N 	N 	0.85250 0.89874 0.44924 -0.13500
C 	C 	0.89947 0.86429 0.45437 0.11500
N 	N 	0.99034 0.91792 0.45586 -0.13300
C 	C 	0.03532 0.00561 0.45300 0.11200
N 	N 	0.98898 0.03995 0.44768 -0.13700
Cu	Cu	0.63261 0.21951 0.01131 0.92900
Cu	Cu	0.69409 0.21959 0.90000 0.87500
Cu	Cu	0.67570 0.35729 0.94371 0.90000
Cu	Cu	0.64044 0.38730 0.04766 0.90100
C 	C 	0.66037 0.28341 0.11925 0.34400
O 	O 	0.50125 0.16855 0.01416 -0.35700
C 	C 	0.64457 0.29619 0.83106 0.33000
O 	O 	0.70732 0.35854 0.01468 -0.63700
O 	O 	0.61408 0.22602 0.93805 -0.64100
O 	O 	0.69023 0.15767 0.00599 -0.36200
O 	O 	0.78449 0.24972 0.95570 -0.43100
O 	O 	0.62467 0.32407 0.10674 -0.38100
O 	O 	0.74362 0.48586 0.95327 -0.36700
C 	C 	0.74051 0.53703 0.98914 0.29000
C 	C 	0.46671 0.20832 0.99795 0.27900
O 	O 	0.52116 0.29050 0.98974 -0.39400
O 	O 	0.69246 0.50441 0.02572 -0.38400
O 	O 	0.66916 0.23621 0.08392 -0.35200
C 	C 	0.76546 0.19402 0.98733 0.28600
O 	O 	0.66134 0.35772 0.86911 -0.35500
O 	O 	0.63315 0.22271 0.83964 -0.41800
H 	H 	0.77340 0.39750 0.02866 0.18200
H 	H 	0.54998 0.18799 0.91998 0.17600
Cu	Cu	0.74599 0.33349 0.44135 0.92600
Cu	Cu	0.74241 0.26946 0.55209 0.87600
Cu	Cu	0.60366 0.28785 0.50796 0.90100
Cu	Cu	0.57429 0.32460 0.40402 0.90400
C 	C 	0.67610 0.30030 0.33359 0.34000
O 	O 	0.79693 0.46481 0.44021 -0.35000
C 	C 	0.66500 0.31831 0.62079 0.33000
O 	O 	0.60437 0.25912 0.43693 -0.63500
O 	O 	0.73687 0.34922 0.51439 -0.63900
O 	O 	0.80507 0.27170 0.44612 -0.36100
O 	O 	0.70942 0.17984 0.49603 -0.43100
O 	O 	0.63944 0.34025 0.34584 -0.37000
O 	O 	0.47311 0.22010 0.49765 -0.36600
C 	C 	0.42102 0.21977 0.46007 0.29200
C 	C 	0.75382 0.49663 0.45540 0.27900
O 	O 	0.67037 0.44118 0.46277 -0.39100
O 	O 	0.45536 0.27166 0.42555 -0.38300
O 	O 	0.73182 0.30058 0.36846 -0.36000
C 	C 	0.76598 0.19694 0.46480 0.28200
O 	O 	0.60137 0.29867 0.58252 -0.35400
O 	O 	0.73958 0.32987 0.61233 -0.41800
H 	H 	0.56558 0.19404 0.42256 0.17900
H 	H 	0.77483 0.41224 0.53288 0.17600
C 	C 	0.71882 0.39388 0.71254 -0.09000
C 	C 	0.64976 0.32182 0.67393 -0.13100
C 	C 	0.57240 0.24709 0.68750 0.33300
C 	C 	0.56793 0.24141 0.73926 -0.09000
C 	C 	0.64001 0.31073 0.77785 -0.13200
C 	C 	0.71378 0.38872 0.76430 0.33300
F 	F 	0.78339 0.45699 0.80120 -0.45000
H 	H 	0.77817 0.45235 0.70246 0.08900
H 	H 	0.51006 0.18159 0.74933 0.08800
F 	F 	0.50435 0.17739 0.65059 -0.45100
C 	C 	0.75539 0.32835 0.25929 -0.08500
C 	C 	0.67485 0.27819 0.27891 -0.12700
C 	C 	0.59129 0.21858 0.24487 0.33500
C 	C 	0.58760 0.21492 0.19195 -0.08600
C 	C 	0.66722 0.27087 0.17260 -0.12700
C 	C 	0.75160 0.32495 0.20625 0.33600
F 	F 	0.82934 0.37812 0.18790 -0.44800
H 	H 	0.82033 0.37397 0.28521 0.09600
H 	H 	0.52230 0.17195 0.16614 0.09100
F 	F 	0.51313 0.16774 0.26325 -0.45700
C 	C 	0.77651 0.69990 0.42349 -0.04300
C 	C 	0.85341 0.76956 0.45960 0.00200
C 	C 	0.89714 0.74871 0.49450 -0.04200
C 	C 	0.86704 0.66015 0.49172 0.00900
C 	C 	0.79178 0.59103 0.45479 -0.07500
C 	C 	0.74564 0.61104 0.42122 0.01000
H 	H 	0.74256 0.71475 0.39603 0.05200
H 	H 	0.95630 0.80168 0.52280 0.05100
H 	H 	0.90170 0.64531 0.51868 0.03300
H 	H 	0.68622 0.55783 0.39316 0.02900
C 	C 	0.87836 0.09687 0.41400 -0.04100
C 	C 	0.84954 0.02774 0.44232 -0.00200
C 	C 	0.78628 0.00890 0.47389 -0.04600
C 	C 	0.75669 0.06200 0.47969 0.00300
C 	C 	0.79037 0.13517 0.45410 -0.07800
C 	C 	0.84937 0.15050 0.42005 0.00600
H 	H 	0.92588 0.11117 0.38869 0.05100
H 	H 	0.76311 0.95584 0.49582 0.05200
H 	H 	0.70963 0.04774 0.50529 0.03400
H 	H 	0.87425 0.20483 0.39898 0.04900
C 	C 	0.17669 0.13434 0.42969 -0.04200
C 	C 	0.13459 0.06370 0.45698 0.00200
C 	C 	0.18731 0.04651 0.48669 -0.04300
C 	C 	0.28069 0.09773 0.48797 0.01000
C 	C 	0.32274 0.16746 0.45997 -0.07100
C 	C 	0.27026 0.18610 0.43125 0.00800
H 	H 	0.13676 0.14821 0.40656 0.05100
H 	H 	0.15583 0.99307 0.50860 0.05700
H 	H 	0.32009 0.08247 0.51028 0.05400
H 	H 	0.30178 0.24040 0.40998 0.04400
C 	C 	0.91116 0.76802 0.96123 -0.03800
C 	C 	0.88917 0.81791 0.98876 -0.00400
C 	C 	0.81468 0.77422 0.01381 -0.03800
C 	C 	0.76474 0.68217 0.01288 0.00900
C 	C 	0.78909 0.63288 0.98711 -0.07300
C 	C 	0.86168 0.67613 0.96058 0.00900
H 	H 	0.96743 0.80068 0.94092 0.05500
H 	H 	0.79684 0.81190 0.03507 0.05100
H 	H 	0.70774 0.64942 0.03263 0.04200
H 	H 	0.88095 0.63900 0.94027 0.05500
C 	C 	0.95322 0.17032 0.98146 -0.04500
C 	C 	0.92473 0.09908 0.00753 0.00300
C 	C 	0.84970 0.06606 0.03196 -0.04300
C 	C 	0.79989 0.09953 0.02729 0.01200
C 	C 	0.82473 0.16675 0.99828 -0.08200
C 	C 	0.90375 0.20419 0.97697 0.00500
H 	H 	0.01140 0.19702 0.96284 0.04700
H 	H 	0.82834 0.01257 0.05333 0.05200
H 	H 	0.74074 0.07147 0.04513 0.04900
H 	H 	0.92545 0.25775 0.95564 0.03700
C 	C 	0.23702 0.07954 0.03727 -0.04400
C 	C 	0.19136 0.10192 0.00548 0.00400
C 	C 	0.23653 0.15962 0.97128 -0.04700
C 	C 	0.32565 0.19255 0.96787 0.00600
C 	C 	0.37054 0.16833 0.99883 -0.08200
C 	C 	0.32588 0.11225 0.03386 0.01100
H 	H 	0.20284 0.03519 0.06392 0.05400
H 	H 	0.20169 0.17657 0.94616 0.04800
H 	H 	0.35948 0.23628 0.94090 0.03700
H 	H 	0.36029 0.09476 0.05889 0.04600
