data_crystal

_cell_length_a 24.31518
_cell_length_b 24.26538
_cell_length_c 13.37780
_cell_angle_alpha 90.31545
_cell_angle_beta  90.31554
_cell_angle_gamma 119.99701

_symmetry_space_group_name_	'P 1'
_symmetry_space_group_name_H-M	'P 1'

loop_
_symmetry_equiv_pos_as_xyz
  x,y,z

loop_
_atom_site_label
_atom_site_type_symbol
_atom_site_fract_x
_atom_site_fract_y
_atom_site_fract_z
_atom_site_charge
C 	C 	0.47370 0.81282 0.24142 0.28400
C 	C 	0.66141 0.74923 0.08873 0.30300
C 	C 	0.47476 0.65976 0.23773 0.30400
C 	C 	0.67080 0.91348 0.09375 0.28200
C 	C 	0.65628 0.74278 0.40829 0.30600
C 	C 	0.65584 0.90028 0.42714 0.28100
Ni	Ni	0.55805 0.77933 0.12324 1.11700
Ni	Ni	0.68743 0.83990 0.25621 1.12400
Ni	Ni	0.55365 0.77232 0.36529 1.12200
O 	O 	0.50723 0.82471 0.15818 -0.36000
O 	O 	0.47586 0.77577 0.31296 -0.36200
O 	O 	0.67947 0.76125 0.31851 -0.37900
O 	O 	0.59970 0.72440 0.09361 -0.36300
O 	O 	0.69960 0.80713 0.12255 -0.36600
O 	O 	0.59344 0.85995 0.42807 -0.36600
O 	O 	0.47628 0.69724 0.16625 -0.36100
O 	O 	0.51667 0.68204 0.31120 -0.37000
O 	O 	0.69616 0.88322 0.39101 -0.36700
O 	O 	0.63159 0.85774 0.05068 -0.35600
O 	O 	0.70088 0.91736 0.17917 -0.36300
O 	O 	0.61616 0.75849 0.44645 -0.37100
O 	O 	0.59907 0.80966 0.24685 -0.72100
H 	H 	0.59970 0.85052 0.25042 0.15800
C 	C 	0.06053 0.76512 0.41377 0.28500
C 	C 	0.30914 0.81667 0.25343 0.30500
C 	C 	0.22477 0.91871 0.40827 0.30300
C 	C 	0.15558 0.66282 0.26080 0.28500
C 	C 	0.22357 0.91235 0.08854 0.30800
C 	C 	0.06447 0.75499 0.08053 0.28200
Ni	Ni	0.19307 0.78394 0.37586 1.11600
Ni	Ni	0.19334 0.78058 0.13326 1.12200
Ni	Ni	0.13032 0.85098 0.24606 1.12300
O 	O 	0.11693 0.78118 0.45337 -0.35700
O 	O 	0.05497 0.78919 0.32778 -0.36500
O 	O 	0.20566 0.85554 0.05111 -0.37300
O 	O 	0.27327 0.78235 0.32722 -0.36200
O 	O 	0.28525 0.83406 0.17977 -0.37100
O 	O 	0.08343 0.81366 0.11420 -0.36600
O 	O 	0.24908 0.88121 0.40293 -0.36300
O 	O 	0.16632 0.89861 0.37756 -0.36600
O 	O 	0.10415 0.73217 0.07672 -0.36700
O 	O 	0.14627 0.68680 0.34443 -0.36000
O 	O 	0.19056 0.70006 0.18639 -0.36300
O 	O 	0.20795 0.91918 0.17948 -0.38100
O 	O 	0.15991 0.79225 0.25408 -0.72200
H 	H 	0.11889 0.75222 0.25356 0.15800
C 	C 	0.15401 0.49498 0.26129 0.28500
C 	C 	0.22149 0.30975 0.41565 0.30200
C 	C 	0.30729 0.49438 0.26194 0.30300
C 	C 	0.05685 0.29642 0.41421 0.28500
C 	C 	0.22534 0.31325 0.09510 0.30600
C 	C 	0.06548 0.31058 0.08099 0.28100
Ni	Ni	0.18927 0.41170 0.37942 1.11600
Ni	Ni	0.12946 0.28122 0.24900 1.12300
Ni	Ni	0.19361 0.41431 0.13714 1.12200
O 	O 	0.14253 0.46126 0.34437 -0.36100
O 	O 	0.18999 0.49230 0.18854 -0.36200
O 	O 	0.20781 0.29008 0.18507 -0.37900
O 	O 	0.24547 0.37139 0.40856 -0.36300
O 	O 	0.16386 0.27036 0.38218 -0.36500
O 	O 	0.10533 0.37311 0.07719 -0.36700
O 	O 	0.27012 0.49361 0.33320 -0.36200
O 	O 	0.28452 0.45257 0.18823 -0.37000
O 	O 	0.08411 0.27103 0.11558 -0.36600
O 	O 	0.11252 0.33806 0.45506 -0.35700
O 	O 	0.05281 0.26729 0.32774 -0.36500
O 	O 	0.20718 0.35142 0.05655 -0.37200
O 	O 	0.15825 0.36951 0.25698 -0.72200
H 	H 	0.11709 0.36813 0.25457 0.15900
C 	C 	0.90543 0.68491 0.59101 0.28500
C 	C 	0.65499 0.48695 0.74328 0.30300
C 	C 	0.74080 0.67159 0.58957 0.30200
C 	C 	0.80828 0.48635 0.74393 0.28500
C 	C 	0.73694 0.66809 0.91012 0.30600
C 	C 	0.89680 0.67074 0.92423 0.28100
Ni	Ni	0.77301 0.56963 0.62580 1.11600
Ni	Ni	0.76867 0.56702 0.86808 1.12200
Ni	Ni	0.83283 0.70011 0.75622 1.12300
O 	O 	0.84977 0.64328 0.55016 -0.35700
O 	O 	0.90948 0.71404 0.67748 -0.36500
O 	O 	0.75511 0.62991 0.94867 -0.37200
O 	O 	0.69217 0.48773 0.67202 -0.36200
O 	O 	0.67777 0.52876 0.81699 -0.37000
O 	O 	0.87818 0.71030 0.88964 -0.36600
O 	O 	0.71681 0.60994 0.59666 -0.36300
O 	O 	0.79843 0.71097 0.62304 -0.36500
O 	O 	0.85696 0.60822 0.92803 -0.36700
O 	O 	0.81975 0.52007 0.66085 -0.36100
O 	O 	0.77229 0.48903 0.81668 -0.36200
O 	O 	0.75448 0.69125 0.82015 -0.37900
O 	O 	0.80404 0.61182 0.74824 -0.72200
H 	H 	0.84520 0.61320 0.75065 0.15900
C 	C 	0.80671 0.31851 0.74442 0.28500
C 	C 	0.73751 0.06262 0.59695 0.30300
C 	C 	0.65314 0.16467 0.75179 0.30500
C 	C 	0.90176 0.21621 0.59145 0.28500
C 	C 	0.73871 0.06898 0.91668 0.30800
C 	C 	0.89782 0.22633 0.92469 0.28200
Ni	Ni	0.76922 0.19739 0.62936 1.11600
Ni	Ni	0.83196 0.13035 0.75916 1.12300
Ni	Ni	0.76895 0.20075 0.87196 1.12200
O 	O 	0.81603 0.29453 0.66079 -0.36000
O 	O 	0.77173 0.28127 0.81883 -0.36300
O 	O 	0.75433 0.06215 0.82574 -0.38100
O 	O 	0.71321 0.10013 0.60229 -0.36300
O 	O 	0.79597 0.08272 0.62766 -0.36600
O 	O 	0.85814 0.24916 0.92849 -0.36700
O 	O 	0.68902 0.19898 0.67800 -0.36200
O 	O 	0.67703 0.14728 0.82545 -0.37100
O 	O 	0.87886 0.16767 0.89102 -0.36600
O 	O 	0.84536 0.20015 0.55185 -0.35700
O 	O 	0.90732 0.19214 0.67744 -0.36500
O 	O 	0.75663 0.12579 0.95411 -0.37300
O 	O 	0.80238 0.18908 0.75114 -0.72200
H 	H 	0.84340 0.22911 0.75166 0.15800
C 	C 	0.29148 0.06785 0.91146 0.28100
C 	C 	0.48753 0.32157 0.76750 0.30300
C 	C 	0.30088 0.23209 0.91649 0.30200
C 	C 	0.48859 0.16851 0.76380 0.28300
C 	C 	0.30601 0.23855 0.59693 0.30500
C 	C 	0.30645 0.08105 0.57809 0.28000
Ni	Ni	0.40423 0.20200 0.88198 1.11600
Ni	Ni	0.40864 0.20902 0.63993 1.12200
Ni	Ni	0.27485 0.14143 0.74901 1.12300
O 	O 	0.33070 0.12358 0.95454 -0.35600
O 	O 	0.26141 0.06397 0.82605 -0.36300
O 	O 	0.34613 0.22284 0.55878 -0.37100
O 	O 	0.48601 0.28409 0.83897 -0.36100
O 	O 	0.44562 0.29929 0.69403 -0.37000
O 	O 	0.26613 0.09812 0.61421 -0.36700
O 	O 	0.36259 0.25693 0.91162 -0.36300
O 	O 	0.26269 0.17420 0.88267 -0.36600
O 	O 	0.36885 0.12139 0.57715 -0.36600
O 	O 	0.45506 0.15662 0.84704 -0.36000
O 	O 	0.48643 0.20557 0.69226 -0.36200
O 	O 	0.28281 0.22008 0.68671 -0.37900
O 	O 	0.36322 0.17167 0.75837 -0.72100
H 	H 	0.36259 0.13081 0.75480 0.15800
C 	C 	0.59179 0.15882 0.76227 -0.03600
C 	C 	0.54281 0.15990 0.76535 -0.02100
C 	C 	0.54341 0.38278 0.75823 -0.03100
C 	C 	0.59317 0.43188 0.75199 -0.03000
C 	C 	0.81559 0.43126 0.74085 -0.02700
C 	C 	0.81510 0.38134 0.74095 -0.02700
C 	C 	0.95689 0.25900 0.97962 -0.02700
C 	C 	0.00651 0.28389 0.02583 -0.02700
C 	C 	0.95618 0.24652 0.52887 -0.02800
C 	C 	0.00204 0.27026 0.47617 -0.02800
C 	C 	0.27774 0.26498 0.53267 -0.03100
C 	C 	0.25265 0.28582 0.47880 -0.02800
C 	C 	0.25333 0.28650 0.03126 -0.03100
C 	C 	0.27551 0.26237 0.97825 -0.02800
C 	C 	0.24886 0.96586 0.02331 -0.03700
C 	C 	0.26875 0.01183 0.97066 -0.02200
C 	C 	0.25662 0.97612 0.46744 -0.03300
C 	C 	0.28090 0.02412 0.51779 -0.02200
C 	C 	0.96024 0.71106 0.52905 -0.02800
C 	C 	0.00611 0.73481 0.47635 -0.02800
C 	C 	0.95578 0.69744 0.97938 -0.02700
C 	C 	0.00540 0.72233 0.02560 -0.02700
C 	C 	0.14719 0.60000 0.26427 -0.02700
C 	C 	0.14670 0.55007 0.26438 -0.02700
C 	C 	0.70566 0.00522 0.53778 -0.03300
C 	C 	0.68138 0.95721 0.48743 -0.02200
C 	C 	0.71342 0.01547 0.98190 -0.03700
C 	C 	0.69354 0.96950 0.03455 -0.02200
C 	C 	0.68678 0.71895 0.02697 -0.02800
C 	C 	0.70896 0.69482 0.97396 -0.03100
C 	C 	0.68455 0.71636 0.47255 -0.03100
C 	C 	0.70964 0.69551 0.52642 -0.02800
C 	C 	0.41948 0.82143 0.23987 -0.02100
C 	C 	0.37050 0.82252 0.24295 -0.03600
C 	C 	0.41888 0.59855 0.24699 -0.03100
C 	C 	0.36911 0.54945 0.25323 -0.03000
