data_crystal

_cell_length_a 22.72879
_cell_length_b 22.61535
_cell_length_c 26.54559
_cell_angle_alpha 95.47843
_cell_angle_beta  95.47769
_cell_angle_gamma 126.01046

_symmetry_space_group_name_	'P 1'
_symmetry_space_group_name_H-M	'P 1'

loop_
_symmetry_equiv_pos_as_xyz
  x,y,z

loop_
_atom_site_label
_atom_site_type_symbol
_atom_site_fract_x
_atom_site_fract_y
_atom_site_fract_z
_atom_site_charge
C 	C 	0.95829 0.02857 0.95878 0.01300
C 	C 	0.03439 0.06688 0.95928 -0.06100
C 	C 	0.06458 0.02776 0.95563 0.01500
H 	H 	0.06987 0.12684 0.96232 0.04700
C 	C 	0.93616 0.01264 0.47662 0.01400
C 	C 	0.01046 0.05524 0.47095 -0.06100
C 	C 	0.04650 0.02215 0.46661 0.01600
H 	H 	0.04032 0.11410 0.47035 0.04600
O 	O 	0.52739 0.18015 0.00950 -0.36700
O 	O 	0.68288 0.17754 0.00429 -0.37200
C 	C 	0.49434 0.20833 0.99239 0.27900
C 	C 	0.74345 0.20565 0.98511 0.28600
H 	H 	0.57145 0.20310 0.91547 0.17300
O 	O 	0.72711 0.22508 0.50254 -0.44400
C 	C 	0.77031 0.23891 0.46892 0.29000
H 	H 	0.58991 0.22209 0.43539 0.16200
C 	C 	0.54499 0.22684 0.64458 -0.19100
H 	H 	0.55146 0.22517 0.74708 0.04100
H 	H 	0.49743 0.18070 0.65905 0.06200
H 	H 	0.56273 0.20216 0.61753 0.05100
H 	H 	0.52535 0.25407 0.62353 0.08200
C 	C 	0.79868 0.19521 0.46088 -0.09200
C 	C 	0.85255 0.15173 0.40810 -0.07400
C 	C 	0.85891 0.11740 0.44739 0.04000
C 	C 	0.83382 0.12104 0.49348 -0.01300
C 	C 	0.80361 0.15970 0.49991 -0.01000
C 	C 	0.84043 0.08700 0.53288 -0.03300
C 	C 	0.89874 0.04780 0.48159 0.01500
C 	C 	0.89099 0.08043 0.44158 -0.07400
H 	H 	0.78539 0.16345 0.53560 0.02000
H 	H 	0.91056 0.07763 0.40636 0.04600
C 	C 	0.40154 0.20268 0.47943 -0.08100
C 	C 	0.37923 0.16160 0.51936 0.01000
C 	C 	0.30518 0.11833 0.52487 -0.07200
C 	C 	0.25210 0.11451 0.49011 0.03800
C 	C 	0.27360 0.15406 0.44909 -0.00900
C 	C 	0.34824 0.19815 0.44401 -0.01200
C 	C 	0.22015 0.14908 0.41376 -0.03300
C 	C 	0.14603 0.10554 0.41927 -0.04800
C 	C 	0.12462 0.06703 0.46040 0.01500
C 	C 	0.17777 0.07162 0.49578 -0.07300
H 	H 	0.41924 0.16297 0.54613 0.02900
H 	H 	0.28913 0.08759 0.55613 0.04300
H 	H 	0.23591 0.17883 0.38200 0.03400
H 	H 	0.10515 0.10169 0.39156 0.03900
C 	C 	0.78404 0.17337 0.98976 -0.09300
C 	C 	0.78051 0.13748 0.03103 0.01600
C 	C 	0.81559 0.10339 0.03392 -0.07200
C 	C 	0.85448 0.10461 0.99550 0.03800
C 	C 	0.85913 0.14154 0.95430 -0.01300
C 	C 	0.82419 0.17601 0.95175 -0.01100
C 	C 	0.89767 0.14252 0.91572 -0.03300
C 	C 	0.93050 0.10627 0.91758 -0.05000
C 	C 	0.92559 0.06893 0.95814 0.01600
C 	C 	0.88802 0.06861 0.99732 -0.07600
H 	H 	0.75046 0.13585 0.06085 0.03700
H 	H 	0.81203 0.07562 0.06586 0.04500
H 	H 	0.82686 0.20337 0.91970 0.01800
H 	H 	0.90167 0.17079 0.88401 0.02800
H 	H 	0.95917 0.10650 0.88716 0.03800
H 	H 	0.88457 0.04010 0.02882 0.04800
C 	C 	0.14479 0.06805 0.95620 0.01500
C 	C 	0.17865 0.11492 0.92068 -0.04800
C 	C 	0.25415 0.15191 0.92056 -0.03300
C 	C 	0.29645 0.14168 0.95551 -0.00800
C 	C 	0.26241 0.09394 0.99093 0.03600
C 	C 	0.18701 0.05817 0.99156 -0.07400
C 	C 	0.41393 0.16707 0.99026 -0.08400
C 	C 	0.37232 0.17845 0.95554 -0.01300
H 	H 	0.27953 0.18811 0.89306 0.03500
H 	H 	0.16110 0.02251 0.01930 0.04800
H 	H 	0.39878 0.21553 0.92866 0.03700
Cu	Cu	0.63574 0.22907 0.00863 0.92700
Cu	Cu	0.69456 0.23835 0.89931 0.86400
C 	C 	0.48063 0.25026 0.47490 0.28700
H 	H 	0.53933 0.13145 0.12158 0.08100
C 	C 	0.82268 0.19049 0.41483 0.01500
C 	C 	0.87288 0.05074 0.52699 -0.05000
H 	H 	0.87120 0.14889 0.37248 0.04500
H 	H 	0.82114 0.08926 0.56831 0.02900
H 	H 	0.36475 0.22903 0.41281 0.03900
H 	H 	0.16126 0.04215 0.52770 0.04600
C 	C 	0.30412 0.08234 0.02512 -0.07100
C 	C 	0.52905 0.15593 0.15473 -0.19600
H 	H 	0.49162 0.11015 0.17477 0.06500
C 	C 	0.37921 0.11829 0.02459 0.01100
H 	H 	0.14632 0.12228 0.89294 0.03900
C 	C 	0.60106 0.21677 0.19037 0.08000
C 	C 	0.60538 0.22194 0.24390 -0.04000
H 	H 	0.55684 0.18258 0.25926 0.03500
H 	H 	0.81822 0.21686 0.38423 0.03700
H 	H 	0.27846 0.04552 0.05223 0.04300
H 	H 	0.50057 0.17912 0.14022 0.07600
O 	O 	0.53069 0.26553 0.51421 -0.38900
O 	O 	0.62292 0.23636 0.93512 -0.64100
O 	O 	0.65116 0.24626 0.83748 -0.42300
C 	C 	0.60164 0.27401 0.73905 -0.03600
C 	C 	0.60866 0.28338 0.68788 0.06700
O 	O 	0.76300 0.25663 0.95680 -0.44300
O 	O 	0.66315 0.24186 0.08156 -0.36600
O 	O 	0.62270 0.27715 0.44424 -0.64200
C 	C 	0.66256 0.27179 0.17064 -0.08800
H 	H 	0.41077 0.10919 0.05156 0.03100
H 	H 	0.87881 0.02569 0.55799 0.03800
O 	O 	0.50002 0.28552 0.43558 -0.39400
C 	C 	0.67061 0.28023 0.27771 -0.09000
C 	C 	0.65372 0.27966 0.11668 0.29100
C 	C 	0.65779 0.30697 0.83153 0.28400
O 	O 	0.62033 0.30961 0.10380 -0.38800
O 	O 	0.53437 0.27769 0.98571 -0.39200
Cu	Cu	0.75197 0.30282 0.55547 0.86500
Cu	Cu	0.63520 0.31788 0.51472 0.89600
C 	C 	0.66775 0.29543 0.33221 0.29400
O 	O 	0.79218 0.29493 0.44520 -0.37800
O 	O 	0.70993 0.29215 0.36787 -0.37000
C 	C 	0.66019 0.32574 0.77981 -0.09100
Cu	Cu	0.59226 0.32474 0.40725 0.89200
O 	O 	0.63382 0.32500 0.34392 -0.38800
C 	C 	0.72976 0.32604 0.20424 -0.04200
C 	C 	0.73444 0.33071 0.25781 0.08100
Cu	Cu	0.73489 0.33535 0.43926 0.92800
C 	C 	0.67585 0.34502 0.67754 -0.09200
C 	C 	0.69124 0.34732 0.62476 0.28200
Cu	Cu	0.66743 0.34450 0.94255 0.89500
O 	O 	0.69091 0.34405 0.01362 -0.64200
O 	O 	0.64986 0.34382 0.86856 -0.38200
O 	O 	0.65055 0.35190 0.58874 -0.37900
O 	O 	0.75143 0.35526 0.61617 -0.42100
H 	H 	0.85132 0.42548 0.27181 0.06500
H 	H 	0.82439 0.36743 0.31944 0.08100
C 	C 	0.01844 0.95021 0.95209 -0.06000
C 	C 	0.94288 0.91206 0.95304 0.01400
C 	C 	0.91280 0.95121 0.95622 -0.06200
H 	H 	0.04134 0.91964 0.94881 0.04600
H 	H 	0.85403 0.92144 0.95587 0.04600
C 	C 	0.00828 0.94645 0.46877 -0.06000
C 	C 	0.93404 0.90373 0.47478 0.01500
C 	C 	0.89794 0.93685 0.47834 -0.06200
H 	H 	0.03617 0.92085 0.46572 0.04600
H 	H 	0.84024 0.90371 0.48217 0.04600
Cu	Cu	0.63011 0.36164 0.04470 0.89200
O 	O 	0.71835 0.45078 0.95301 -0.39000
C 	C 	0.71366 0.49044 0.99006 0.28700
O 	O 	0.66829 0.45880 0.02285 -0.39300
H 	H 	0.74432 0.37853 0.02905 0.16200
O 	O 	0.77250 0.43801 0.42722 -0.37100
O 	O 	0.74155 0.36350 0.51366 -0.64000
C 	C 	0.74450 0.47103 0.44477 0.28100
O 	O 	0.67831 0.43124 0.45667 -0.39400
H 	H 	0.77551 0.41750 0.52815 0.17200
C 	C 	0.72439 0.39101 0.76977 0.06700
C 	C 	0.73206 0.39974 0.71855 -0.03600
H 	H 	0.78275 0.44800 0.71056 0.04200
C 	C 	0.78604 0.44985 0.81334 -0.19100
H 	H 	0.81040 0.42653 0.83425 0.05000
H 	H 	0.76427 0.46967 0.84050 0.07600
H 	H 	0.83095 0.49885 0.79917 0.06200
C 	C 	0.80636 0.39182 0.29345 -0.19800
H 	H 	0.77743 0.36696 0.18880 0.03500
H 	H 	0.79911 0.42976 0.31683 0.07800
C 	C 	0.78170 0.55000 0.44272 -0.08400
C 	C 	0.81497 0.57845 0.40046 0.01200
C 	C 	0.85013 0.65324 0.39790 -0.07300
C 	C 	0.85301 0.70070 0.43779 0.03800
C 	C 	0.81988 0.67251 0.48058 -0.00900
C 	C 	0.78378 0.59696 0.48262 -0.01200
C 	C 	0.82390 0.72042 0.52087 -0.03300
C 	C 	0.86097 0.79579 0.51888 -0.04800
C 	C 	0.89374 0.82389 0.47637 0.01500
C 	C 	0.88909 0.77608 0.43568 -0.07300
H 	H 	0.81287 0.54231 0.36926 0.03000
H 	H 	0.87531 0.67428 0.36493 0.04400
H 	H 	0.75827 0.57502 0.51535 0.03500
H 	H 	0.79884 0.69950 0.55390 0.03500
H 	H 	0.86469 0.83251 0.55055 0.03900
H 	H 	0.91385 0.79770 0.40264 0.04600
C 	C 	0.89525 0.83093 0.95060 0.01500
C 	C 	0.87520 0.78281 0.90412 -0.04900
C 	C 	0.83402 0.70609 0.90229 -0.03300
C 	C 	0.81278 0.67674 0.94708 -0.00900
C 	C 	0.83211 0.72495 0.99388 0.03700
C 	C 	0.87304 0.80193 0.99533 -0.07400
C 	C 	0.81122 0.69565 0.03870 -0.07000
C 	C 	0.77221 0.61921 0.03731 0.01100
C 	C 	0.75331 0.57099 0.99102 -0.08200
C 	C 	0.77324 0.59997 0.94583 -0.01000
H 	H 	0.89218 0.80499 0.86948 0.04000
H 	H 	0.81931 0.66964 0.86617 0.03400
H 	H 	0.88870 0.83929 0.03125 0.04800
H 	H 	0.82570 0.73210 0.07477 0.04400
H 	H 	0.75751 0.59760 0.07242 0.02700
H 	H 	0.75798 0.56292 0.90985 0.04100
