data_crystal

_cell_length_a 18.73060
_cell_length_b 18.80265
_cell_length_c 32.98237
_cell_angle_alpha 95.41045
_cell_angle_beta  95.41215
_cell_angle_gamma 126.43319

_symmetry_space_group_name_	'P 1'
_symmetry_space_group_name_H-M	'P 1'

loop_
_symmetry_equiv_pos_as_xyz
  x,y,z

loop_
_atom_site_label
_atom_site_type_symbol
_atom_site_fract_x
_atom_site_fract_y
_atom_site_fract_z
_atom_site_charge
C 	C 	0.94475 0.05522 0.96940 0.12200
C 	C 	0.03917 0.11326 0.97547 -0.09900
C 	C 	0.08795 0.07910 0.97842 0.12700
C 	C 	0.04306 0.98713 0.97697 -0.10300
C 	C 	0.94876 0.92812 0.97078 0.12400
C 	C 	0.89895 0.96184 0.96639 -0.09100
H 	H 	0.07462 0.18497 0.97722 0.09600
H 	H 	0.08145 0.96117 0.97986 0.09400
H 	H 	0.82579 0.91630 0.96122 0.09900
C 	C 	0.90917 0.98043 0.48375 0.10400
C 	C 	0.85945 0.88777 0.48268 -0.07900
C 	C 	0.90382 0.84907 0.48761 0.10600
C 	C 	0.99799 0.90267 0.49175 -0.06900
C 	C 	0.04746 0.99407 0.48953 0.09300
C 	C 	0.00319 0.03347 0.48608 -0.07000
H 	H 	0.78653 0.84632 0.47943 0.09500
H 	H 	0.03262 0.87311 0.49615 0.08700
H 	H 	0.04163 0.10480 0.48570 0.09200
Cu	Cu	0.76918 0.38314 0.95597 0.92900
Cu	Cu	0.80959 0.34457 0.04852 0.89900
Cu	Cu	0.64720 0.35799 0.01750 0.92100
Cu	Cu	0.61079 0.39940 0.93539 0.91200
C 	C 	0.68183 0.34730 0.87095 0.26600
O 	O 	0.83689 0.51740 0.95484 -0.33200
C 	C 	0.69519 0.34860 0.09918 0.25800
O 	O 	0.63360 0.32595 0.95886 -0.63600
O 	O 	0.77539 0.40647 0.01694 -0.62400
O 	O 	0.80042 0.29713 0.95121 -0.33900
O 	O 	0.88913 0.35180 0.01517 -0.38700
O 	O 	0.65121 0.39248 0.88226 -0.33200
O 	O 	0.52132 0.30184 0.01588 -0.34700
C 	C 	0.47135 0.30602 0.98676 0.33000
C 	C 	0.80492 0.55993 0.96813 0.32300
O 	O 	0.72519 0.51472 0.97841 -0.37300
O 	O 	0.50833 0.36768 0.96330 -0.35800
O 	O 	0.74218 0.34962 0.89660 -0.32600
C 	C 	0.85506 0.29696 0.97931 0.32700
O 	O 	0.66629 0.38438 0.07734 -0.32700
O 	O 	0.71330 0.29795 0.08010 -0.38100
H 	H 	0.58806 0.26071 0.94770 0.18500
H 	H 	0.81680 0.47158 0.02886 0.18200
Cu	Cu	0.57818 0.14870 0.50455 0.93300
Cu	Cu	0.64830 0.16382 0.41628 0.89700
Cu	Cu	0.60985 0.28782 0.45345 0.90700
Cu	Cu	0.60828 0.32762 0.54386 0.91600
C 	C 	0.61528 0.20653 0.59315 0.26700
O 	O 	0.45212 0.11142 0.50890 -0.33700
C 	C 	0.60425 0.24933 0.36474 0.25300
O 	O 	0.65675 0.28855 0.50916 -0.63100
O 	O 	0.56172 0.15935 0.44607 -0.63500
O 	O 	0.62688 0.07918 0.49627 -0.33800
O 	O 	0.72981 0.18105 0.46160 -0.41000
O 	O 	0.58289 0.25105 0.58641 -0.34500
O 	O 	0.64557 0.41013 0.46230 -0.34800
C 	C 	0.69547 0.47216 0.49610 0.33100
C 	C 	0.42517 0.15980 0.49899 0.31900
O 	O 	0.48478 0.24576 0.49781 -0.37100
O 	O 	0.69189 0.45045 0.53306 -0.35800
O 	O 	0.61648 0.15774 0.56223 -0.32100
C 	C 	0.70301 0.11608 0.48244 0.33500
O 	O 	0.58600 0.28689 0.39371 -0.32800
O 	O 	0.59457 0.17503 0.36790 -0.36400
H 	H 	0.72328 0.32354 0.51551 0.18300
H 	H 	0.49850 0.11711 0.43091 0.20000
C 	C 	0.61129 0.26385 0.76286 0.13000
C 	C 	0.55322 0.19683 0.72789 -0.07900
C 	C 	0.59173 0.18183 0.69681 0.02800
C 	C 	0.68421 0.23433 0.69932 0.12800
C 	C 	0.74216 0.29899 0.73513 -0.07500
C 	C 	0.70345 0.31464 0.76573 0.02400
O 	O 	0.58429 0.26396 0.80073 -0.17300
C 	C 	0.66935 0.31684 0.82653 0.06500
C 	C 	0.74067 0.34783 0.80603 -0.04500
O 	O 	0.71058 0.24167 0.66096 -0.17100
C 	C 	0.62551 0.19070 0.63523 0.06900
C 	C 	0.55453 0.15394 0.65638 -0.05200
H 	H 	0.48061 0.15708 0.72514 0.09300
H 	H 	0.81480 0.33938 0.73783 0.09100
H 	H 	0.80819 0.37290 0.81998 0.08600
H 	H 	0.48846 0.13464 0.64393 0.08800
C 	C 	0.61347 0.29571 0.19158 0.12200
C 	C 	0.56575 0.28856 0.22343 -0.07000
C 	C 	0.59081 0.27247 0.26100 0.01600
C 	C 	0.66768 0.27880 0.26911 0.13500
C 	C 	0.72041 0.29490 0.23873 -0.08300
C 	C 	0.68683 0.29546 0.19905 0.02900
O 	O 	0.60857 0.32816 0.15603 -0.15900
C 	C 	0.68619 0.34653 0.14290 0.05600
C 	C 	0.73515 0.33122 0.16959 -0.05600
O 	O 	0.69846 0.29030 0.31078 -0.18400
C 	C 	0.63007 0.28669 0.32706 0.06100
C 	C 	0.56837 0.28147 0.29758 -0.04300
H 	H 	0.51360 0.29743 0.21947 0.09100
H 	H 	0.78566 0.30878 0.24599 0.08700
H 	H 	0.78788 0.32684 0.16248 0.06500
H 	H 	0.50170 0.25944 0.30147 0.08000
C 	C 	0.80312 0.72002 0.52222 0.06900
C 	C 	0.85162 0.75269 0.48988 -0.03600
C 	C 	0.84757 0.69251 0.45902 0.07000
C 	C 	0.80157 0.60185 0.46264 0.12100
C 	C 	0.74686 0.56802 0.49299 -0.11200
C 	C 	0.74358 0.62707 0.52110 0.12100
Br	Br	0.65030 0.58070 0.55408 -0.16700
Br	Br	0.82273 0.80249 0.56941 -0.14300
Br	Br	0.81968 0.52674 0.42836 -0.19500
Br	Br	0.89956 0.73258 0.41053 -0.14700
C 	C 	0.85780 0.06002 0.52090 0.07000
C 	C 	0.86218 0.02163 0.48326 -0.03400
C 	C 	0.81062 0.01039 0.44589 0.07100
C 	C 	0.75155 0.03326 0.44633 0.12000
C 	C 	0.74968 0.07484 0.48366 -0.11900
C 	C 	0.80258 0.08784 0.52100 0.12100
Br	Br	0.80060 0.14520 0.57210 -0.15500
Br	Br	0.92606 0.07275 0.57235 -0.13100
Br	Br	0.67001 0.00389 0.39619 -0.23600
Br	Br	0.82197 0.96453 0.39403 -0.15000
C 	C 	0.20455 0.08694 0.53027 0.06800
C 	C 	0.14607 0.04844 0.49148 -0.03100
C 	C 	0.18036 0.05132 0.45492 0.07000
C 	C 	0.27206 0.08828 0.45733 0.11800
C 	C 	0.32931 0.12185 0.49631 -0.11200
C 	C 	0.29603 0.12346 0.53273 0.11900
Br	Br	0.37591 0.17683 0.58592 -0.18800
Br	Br	0.15859 0.08812 0.58008 -0.14200
Br	Br	0.31934 0.09333 0.40732 -0.19300
Br	Br	0.10112 0.00332 0.40167 -0.14000
C 	C 	0.88228 0.77515 0.93173 0.07300
C 	C 	0.90324 0.83113 0.96953 -0.04700
C 	C 	0.89980 0.79988 0.00700 0.07500
C 	C 	0.87881 0.71447 0.00682 0.12000
C 	C 	0.85499 0.65726 0.96899 -0.11600
C 	C 	0.85899 0.68869 0.93146 0.11200
Br	Br	0.83109 0.61273 0.87961 -0.16800
Br	Br	0.88642 0.81763 0.88035 -0.14200
Br	Br	0.88383 0.67590 0.05846 -0.18700
Br	Br	0.92456 0.87479 0.05863 -0.14000
C 	C 	0.90094 0.13787 0.93297 0.07000
C 	C 	0.89499 0.09360 0.96615 -0.04400
C 	C 	0.86178 0.10576 0.00062 0.07600
C 	C 	0.84097 0.16656 0.00301 0.12200
C 	C 	0.86339 0.22305 0.97344 -0.12300
C 	C 	0.89086 0.20658 0.93761 0.12100
Br	Br	0.92043 0.28147 0.89631 -0.16000
Br	Br	0.92582 0.10594 0.88181 -0.13900
Br	Br	0.77384 0.16550 0.04408 -0.26000
Br	Br	0.85047 0.04382 0.04585 -0.14200
C 	C 	0.31526 0.19177 0.94719 0.11700
C 	C 	0.37351 0.25029 0.98454 -0.11700
C 	C 	0.33771 0.25449 0.01963 0.12200
C 	C 	0.24408 0.19597 0.01804 0.07600
C 	C 	0.18596 0.13905 0.98044 -0.05000
C 	C 	0.22149 0.13916 0.94469 0.07400
Br	Br	0.14140 0.06908 0.89208 -0.13800
Br	Br	0.36408 0.18024 0.90015 -0.20100
Br	Br	0.19534 0.19166 0.06755 -0.15100
Br	Br	0.41621 0.34401 0.06887 -0.14700
