data_crystal

_cell_length_a 18.74466
_cell_length_b 18.89867
_cell_length_c 35.03909
_cell_angle_alpha 95.42793
_cell_angle_beta  95.42853
_cell_angle_gamma 126.45067

_symmetry_space_group_name_	'P 1'
_symmetry_space_group_name_H-M	'P 1'

loop_
_symmetry_equiv_pos_as_xyz
  x,y,z

loop_
_atom_site_label
_atom_site_type_symbol
_atom_site_fract_x
_atom_site_fract_y
_atom_site_fract_z
_atom_site_charge
C 	C 	0.90887 0.00177 0.96982 0.09400
C 	C 	0.00341 0.05825 0.97605 -0.07700
C 	C 	0.05073 0.02264 0.97871 0.10400
C 	C 	0.00416 0.93062 0.97670 -0.07400
C 	C 	0.90975 0.87292 0.97025 0.10400
C 	C 	0.86145 0.90828 0.96640 -0.06700
H 	H 	0.04010 0.12989 0.97809 0.09100
H 	H 	0.04138 0.90356 0.97925 0.09000
H 	H 	0.78828 0.86391 0.96111 0.09400
C 	C 	0.95810 0.04000 0.49606 0.10000
C 	C 	0.05029 0.09092 0.49400 -0.07300
C 	C 	0.09224 0.04932 0.49181 0.10200
C 	C 	0.04150 0.95698 0.49043 -0.07400
C 	C 	0.95027 0.90662 0.49314 0.10700
C 	C 	0.90892 0.94828 0.49657 -0.07200
H 	H 	0.08896 0.16213 0.49415 0.09300
H 	H 	0.07360 0.92468 0.48821 0.09000
H 	H 	0.83799 0.90897 0.49847 0.09300
Cu	Cu	0.73120 0.32851 0.95480 0.92700
Cu	Cu	0.77518 0.29429 0.04268 0.89700
Cu	Cu	0.61359 0.30697 0.01409 0.91900
Cu	Cu	0.56769 0.33702 0.93511 0.91200
C 	C 	0.65883 0.31064 0.87446 0.29400
O 	O 	0.79594 0.46162 0.95170 -0.34000
C 	C 	0.66412 0.30312 0.09136 0.28200
O 	O 	0.59615 0.26976 0.95910 -0.63700
O 	O 	0.74117 0.35542 0.01231 -0.62600
O 	O 	0.76534 0.24455 0.95057 -0.33600
O 	O 	0.85330 0.29886 0.01110 -0.38800
O 	O 	0.59572 0.31786 0.88310 -0.35100
O 	O 	0.48781 0.24992 0.01436 -0.35000
C 	C 	0.43484 0.24949 0.98663 0.33000
C 	C 	0.76199 0.50301 0.96275 0.32300
O 	O 	0.68283 0.45780 0.97283 -0.37300
O 	O 	0.46865 0.30834 0.96332 -0.35800
O 	O 	0.69866 0.29014 0.89924 -0.34100
C 	C 	0.81850 0.24335 0.97754 0.32400
O 	O 	0.63825 0.34024 0.07014 -0.34900
O 	O 	0.68179 0.25159 0.07416 -0.39200
H 	H 	0.55185 0.20416 0.94994 0.18500
H 	H 	0.78282 0.42058 0.02274 0.18300
Cu	Cu	0.62756 0.21017 0.50861 0.93300
Cu	Cu	0.68672 0.20511 0.42390 0.89400
Cu	Cu	0.67922 0.34847 0.45635 0.90500
Cu	Cu	0.64368 0.38289 0.53502 0.91000
C 	C 	0.66317 0.28078 0.59084 0.28900
O 	O 	0.49810 0.16282 0.51099 -0.34000
C 	C 	0.63590 0.27925 0.37095 0.28600
O 	O 	0.70665 0.34905 0.51050 -0.63900
O 	O 	0.61009 0.21639 0.45268 -0.63700
O 	O 	0.68007 0.14383 0.50484 -0.34300
O 	O 	0.77480 0.23389 0.46658 -0.41600
O 	O 	0.63338 0.32660 0.58184 -0.34900
O 	O 	0.75401 0.47735 0.46372 -0.36000
C 	C 	0.75122 0.52910 0.49062 0.33700
C 	C 	0.46635 0.20438 0.49850 0.32700
O 	O 	0.52207 0.28600 0.49223 -0.37000
O 	O 	0.69319 0.49555 0.51461 -0.36200
O 	O 	0.66361 0.22722 0.56382 -0.33500
C 	C 	0.75329 0.17655 0.48987 0.33500
O 	O 	0.66864 0.34814 0.39948 -0.35600
O 	O 	0.62615 0.20688 0.37780 -0.38900
H 	H 	0.77195 0.38561 0.52158 0.18600
H 	H 	0.54664 0.18100 0.43893 0.20000
C 	C 	0.66560 0.29989 0.83319 -0.04500
C 	C 	0.74551 0.36309 0.82076 0.01500
C 	C 	0.75004 0.35697 0.78109 -0.03400
C 	C 	0.67577 0.28337 0.75329 0.01600
C 	C 	0.59502 0.21932 0.76623 0.02400
C 	C 	0.59095 0.22774 0.80606 -0.00900
C 	C 	0.51795 0.14968 0.73915 -0.02800
C 	C 	0.51810 0.14515 0.69928 -0.02800
C 	C 	0.59635 0.20814 0.68566 0.02600
C 	C 	0.67751 0.27480 0.71247 0.01400
C 	C 	0.75770 0.33047 0.69769 -0.03600
C 	C 	0.75367 0.32992 0.65756 0.01100
C 	C 	0.67132 0.26997 0.63154 -0.04400
C 	C 	0.59404 0.20610 0.64539 -0.00800
H 	H 	0.80347 0.41893 0.84172 0.06500
H 	H 	0.80940 0.41181 0.77225 0.06200
H 	H 	0.52913 0.17887 0.81588 0.06100
H 	H 	0.45657 0.10025 0.74901 0.06200
H 	H 	0.45669 0.09266 0.67882 0.06500
H 	H 	0.82317 0.37131 0.71660 0.06100
H 	H 	0.81464 0.37649 0.64674 0.05400
H 	H 	0.53134 0.15682 0.62491 0.07100
C 	C 	0.65046 0.29981 0.13201 -0.05600
C 	C 	0.60083 0.21736 0.14438 0.01200
C 	C 	0.58936 0.21359 0.18313 -0.04000
C 	C 	0.62604 0.29284 0.21017 0.01400
C 	C 	0.68061 0.37651 0.19811 0.02200
C 	C 	0.68956 0.37922 0.15877 -0.01300
C 	C 	0.72967 0.45636 0.22583 -0.03000
C 	C 	0.72866 0.45394 0.26550 -0.03100
C 	C 	0.67380 0.37190 0.27788 0.02300
C 	C 	0.61660 0.29133 0.24997 0.01200
C 	C 	0.55065 0.21202 0.26247 -0.04000
C 	C 	0.55320 0.20973 0.30227 0.01100
C 	C 	0.61913 0.28698 0.33010 -0.05200
C 	C 	0.67599 0.36911 0.31792 -0.01500
H 	H 	0.57195 0.15592 0.12400 0.05700
H 	H 	0.55658 0.14972 0.19231 0.05700
H 	H 	0.72967 0.44313 0.14932 0.05800
H 	H 	0.77158 0.52049 0.21679 0.06100
H 	H 	0.77044 0.51612 0.28664 0.06400
H 	H 	0.49584 0.15317 0.24172 0.05900
H 	H 	0.50482 0.14734 0.31149 0.05800
H 	H 	0.72420 0.42987 0.33942 0.06800
C 	C 	0.79180 0.65595 0.45722 0.12000
C 	C 	0.80497 0.62546 0.49044 -0.11700
C 	C 	0.86543 0.68745 0.52452 0.11800
C 	C 	0.90901 0.77926 0.52607 0.06900
C 	C 	0.89811 0.80987 0.49253 -0.03900
C 	C 	0.84113 0.74830 0.45783 0.06900
Br	Br	0.83313 0.79076 0.41085 -0.14600
Br	Br	0.70261 0.57143 0.41171 -0.17200
Br	Br	0.98205 0.86317 0.57434 -0.14600
Br	Br	0.89140 0.64670 0.56843 -0.19600
C 	C 	0.85823 0.06632 0.45891 0.06800
C 	C 	0.91074 0.08055 0.49443 -0.03600
C 	C 	0.90882 0.12355 0.52904 0.06800
C 	C 	0.85485 0.15276 0.52794 0.12100
C 	C 	0.80034 0.13599 0.49250 -0.12300
C 	C 	0.79942 0.08936 0.45836 0.12100
Br	Br	0.71362 0.05226 0.41144 -0.25300
Br	Br	0.86895 0.01748 0.41083 -0.14800
Br	Br	0.85669 0.21694 0.57471 -0.17500
Br	Br	0.97954 0.14168 0.57784 -0.14900
C 	C 	0.31360 0.13722 0.46033 0.11800
C 	C 	0.37030 0.16478 0.49672 -0.11800
C 	C 	0.33794 0.16463 0.53148 0.11700
C 	C 	0.24840 0.13413 0.52980 0.06900
C 	C 	0.19055 0.10261 0.49345 -0.03800
C 	C 	0.22403 0.10690 0.45873 0.06900
Br	Br	0.14637 0.06993 0.40904 -0.15300
Br	Br	0.35814 0.13933 0.41269 -0.19900
Br	Br	0.20384 0.13333 0.57734 -0.14500
Br	Br	0.41654 0.20755 0.58141 -0.19300
C 	C 	0.83808 0.72044 0.93152 0.07000
C 	C 	0.86252 0.77541 0.96791 -0.03900
C 	C 	0.86098 0.74240 0.00248 0.07200
C 	C 	0.83959 0.65680 0.00080 0.12200
C 	C 	0.81246 0.60061 0.96444 -0.11800
C 	C 	0.81258 0.63309 0.92977 0.11500
Br	Br	0.77449 0.55677 0.87985 -0.19600
Br	Br	0.84085 0.76550 0.88409 -0.14500
Br	Br	0.84794 0.61642 0.04837 -0.20200
Br	Br	0.88843 0.81497 0.05221 -0.14600
C 	C 	0.86818 0.08660 0.93532 0.06500
C 	C 	0.86063 0.04185 0.96650 -0.03100
C 	C 	0.82619 0.05370 0.99853 0.05800
C 	C 	0.80459 0.11370 0.00023 0.12700
C 	C 	0.82712 0.16967 0.97227 -0.12400
C 	C 	0.85684 0.15424 0.93915 0.12200
Br	Br	0.88775 0.22911 0.90038 -0.16400
Br	Br	0.89600 0.05621 0.88778 -0.14800
Br	Br	0.73694 0.11289 0.03856 -0.26700
Br	Br	0.81377 0.99209 0.04122 -0.13900
C 	C 	0.30096 0.19594 0.01795 0.12300
C 	C 	0.33691 0.19114 0.98507 -0.12000
C 	C 	0.27867 0.13142 0.95015 0.11800
C 	C 	0.18487 0.07985 0.94754 0.07000
C 	C 	0.14907 0.08116 0.98091 -0.04200
C 	C 	0.20719 0.13799 0.01633 0.07200
Br	Br	0.15829 0.13457 0.06277 -0.15600
Br	Br	0.37927 0.28556 0.06421 -0.15900
Br	Br	0.10521 0.00987 0.89794 -0.14500
Br	Br	0.32751 0.11702 0.90654 -0.21400
