data_crystal

_cell_length_a 20.25475
_cell_length_b 21.15960
_cell_length_c 38.83831
_cell_angle_alpha 60.67501
_cell_angle_beta  119.03551
_cell_angle_gamma 133.27071

_symmetry_space_group_name_	'P 1'
_symmetry_space_group_name_H-M	'P 1'

loop_
_symmetry_equiv_pos_as_xyz
  x,y,z

loop_
_atom_site_label
_atom_site_type_symbol
_atom_site_fract_x
_atom_site_fract_y
_atom_site_fract_z
_atom_site_charge
Co	Co	0.08717 0.16031 0.07281 1.20000
Co	Co	0.11907 0.07941 0.03315 1.19900
Co	Co	0.11006 0.92868 0.02564 1.17800
C 	C 	0.29441 0.09794 0.04613 0.41600
O 	O 	0.13857 0.19012 0.02934 -0.40300
C 	C 	0.19820 0.28357 0.13017 0.40500
C 	C 	0.13120 0.82817 0.11319 0.41600
O 	O 	0.09504 0.82099 0.07556 -0.37600
O 	O 	0.11295 0.86062 0.12645 -0.32300
O 	O 	0.14049 0.21795 0.15421 -0.31300
O 	O 	0.19623 0.27051 0.09916 -0.31400
O 	O 	0.08824 0.97432 0.05351 -0.76700
O 	O 	0.24907 0.01144 0.05163 -0.33200
O 	O 	0.25059 0.13620 0.02968 -0.34300
Co	Co	0.03789 0.97321 0.55315 1.18900
Co	Co	0.04499 0.82167 0.55483 1.18400
C 	C 	0.21507 0.98777 0.57957 0.36100
O 	O 	0.04360 0.07917 0.54561 -0.37500
C 	C 	0.03165 0.16954 0.61715 0.41000
C 	C 	0.04215 0.72006 0.64030 0.41400
O 	O 	0.01282 0.71094 0.60380 -0.37200
O 	O 	0.03060 0.76742 0.64676 -0.34900
O 	O 	0.05503 0.12929 0.61286 -0.34600
O 	O 	0.17493 0.90135 0.58886 -0.32100
O 	O 	0.17635 0.01758 0.58105 -0.31200
C 	C 	0.02787 0.95595 0.81341 -0.09500
C 	C 	0.01762 0.94514 0.77744 0.07100
C 	C 	0.10612 0.95947 0.85020 0.78000
H 	H 	0.07760 0.96746 0.77059 0.12200
F 	F 	0.13399 0.15607 0.80458 -0.34300
F 	F 	0.15832 0.94880 0.84307 -0.37400
F 	F 	0.06874 0.89113 0.88295 -0.39600
F 	F 	0.16519 0.04029 0.86027 -0.35000
C 	C 	0.11753 0.01104 0.39523 -0.09400
C 	C 	0.12030 0.02759 0.42696 0.11300
C 	C 	0.03536 0.98240 0.32474 0.06500
C 	C 	0.20327 0.02740 0.39522 0.80200
H 	H 	0.18593 0.06012 0.44857 0.11600
C 	C 	0.04569 0.99589 0.25084 -0.03700
F 	F 	0.25839 0.11363 0.37328 -0.37100
F 	F 	0.17881 0.96714 0.37864 -0.38700
F 	F 	0.25560 0.01743 0.43452 -0.37900
F 	F 	0.27008 0.18788 0.28284 -0.33600
C 	C 	0.14077 0.30072 0.68923 0.28000
C 	C 	0.11786 0.23634 0.67541 0.30400
C 	C 	0.10138 0.24873 0.63378 -0.18500
F 	F 	0.10752 0.15995 0.70228 -0.35000
F 	F 	0.15760 0.28823 0.72958 -0.29400
C 	C 	0.09293 0.55505 0.68976 0.27500
C 	C 	0.04921 0.59116 0.68383 0.29900
C 	C 	0.09579 0.68445 0.67212 -0.17900
C 	C 	0.19252 0.73971 0.67633 0.30000
F 	F 	0.04534 0.46478 0.69958 -0.31800
C 	C 	0.33504 0.45793 0.18483 0.28100
C 	C 	0.31284 0.39060 0.17369 0.31900
C 	C 	0.25733 0.37464 0.13506 -0.18000
C 	C 	0.23586 0.43499 0.10586 0.29400
F 	F 	0.19108 0.42644 0.06713 -0.34100
F 	F 	0.34293 0.33888 0.20089 -0.29700
C 	C 	0.33613 0.81971 0.16326 0.27100
C 	C 	0.19438 0.66937 0.15974 0.26900
C 	C 	0.14158 0.69969 0.14871 0.30600
C 	C 	0.18498 0.79117 0.14144 -0.18700
C 	C 	0.28258 0.84960 0.15157 0.30200
F 	F 	0.32570 0.93707 0.14741 -0.34100
F 	F 	0.04759 0.64068 0.14325 -0.33000
F 	F 	0.24085 0.13198 0.50991 -0.37700
F 	F 	0.35407 0.17619 0.97497 -0.32100
C 	C 	0.34687 0.70430 0.16658 0.26300
N 	N 	0.30326 0.62073 0.16387 -0.09700
C 	C 	0.35370 0.59905 0.16457 0.27900
C 	C 	0.22604 0.57649 0.68285 0.26500
C 	C 	0.20897 0.45891 0.67763 0.28400
N 	N 	0.17009 0.49234 0.67725 -0.09400
C 	C 	0.13962 0.39424 0.62057 0.27200
C 	C 	0.15171 0.38020 0.66190 -0.11700
C 	C 	0.11986 0.33120 0.60714 0.31200
F 	F 	0.11314 0.34803 0.56749 -0.32000
C 	C 	0.23674 0.70492 0.68131 0.27300
C 	C 	0.18511 0.61240 0.68515 -0.10700
F 	F 	0.24212 0.82880 0.67157 -0.33100
C 	C 	0.25841 0.50289 0.11679 0.27300
C 	C 	0.30747 0.51428 0.15652 -0.12300
F 	F 	0.23636 0.56023 0.08829 -0.33300
C 	C 	0.29199 0.73065 0.16418 -0.10800
F 	F 	0.15044 0.58083 0.16584 -0.33100
C 	C 	0.30618 0.11579 0.52814 0.28700
C 	C 	0.30103 0.05115 0.56513 -0.16500
O 	O 	0.08507 0.03931 0.09141 -0.53700
C 	C 	0.05830 0.04349 0.95456 0.30100
O 	O 	0.12231 0.02897 0.97252 -0.30400
C 	C 	0.03641 0.95815 0.47880 0.33300
O 	O 	0.08629 0.92822 0.50498 -0.36700
O 	O 	0.00639 0.98053 0.49160 -0.29700
C 	C 	0.06117 0.14350 0.80841 0.78800
F 	F 	0.09079 0.22450 0.80910 -0.36800
C 	C 	0.03457 0.97899 0.36412 0.07900
C 	C 	0.03738 0.98877 0.43523 -0.02300
F 	F 	0.21334 0.14285 0.22723 -0.38800
N 	N 	0.30211 0.50909 0.68349 -0.11500
H 	H 	0.11433 0.16517 0.88454 0.12200
C 	C 	0.19260 0.15597 0.25122 0.78000
F 	F 	0.15407 0.47238 0.59393 -0.33000
O 	O 	0.03554 0.97991 0.18966 -0.33000
C 	C 	0.10934 0.07043 0.26801 -0.04000
N 	N 	0.31856 0.62975 0.68368 -0.08700
C 	C 	0.09445 0.06546 0.30123 0.06200
F 	F 	0.32866 0.76149 0.68139 -0.31000
Co	Co	0.02670 0.90293 0.08953 1.19700
H 	H 	0.13347 0.12609 0.31028 0.12900
F 	F 	0.17445 0.21926 0.22892 -0.41500
C 	C 	0.05511 0.09775 0.88123 0.08800
C 	C 	0.03004 0.07238 0.84686 -0.08000
F 	F 	0.05718 0.42069 0.99975 -0.29700
C 	C 	0.35559 0.59645 0.68243 0.28000
O 	O 	0.03360 0.09305 0.11127 -0.74300
O 	O 	0.03529 0.05677 0.97573 -0.29200
C 	C 	0.00632 0.03463 0.91222 0.03000
C 	C 	0.36943 0.03546 0.58363 0.31500
F 	F 	0.36658 0.97456 0.61983 -0.32000
C 	C 	0.37681 0.16175 0.50916 0.27600
F 	F 	0.37999 0.22294 0.47301 -0.32800
C 	C 	0.02103 0.01092 0.20593 0.36300
O 	O 	0.02070 0.24824 0.07885 -0.37600
F 	F 	0.98803 0.11836 0.77464 -0.38200
O 	O 	0.99551 0.86391 0.56921 -0.73500
F 	F 	0.38651 0.47075 0.22277 -0.30700
C 	C 	0.39287 0.15504 0.04677 -0.18900
C 	C 	0.41843 0.18608 0.01102 0.29200
C 	C 	0.98394 0.90348 0.31218 -0.07700
F 	F 	0.97202 0.80492 0.37863 -0.37100
C 	C 	0.98508 0.91192 0.27384 0.11300
C 	C 	0.92482 0.81114 0.33814 0.78900
F 	F 	0.90296 0.74544 0.32640 -0.36200
F 	F 	0.95831 0.53559 0.68522 -0.30300
H 	H 	0.93612 0.85408 0.26120 0.12500
F 	F 	0.43058 0.87765 0.17308 -0.32400
Co	Co	0.95830 0.03844 0.57658 1.20900
C 	C 	0.95487 0.94689 0.81681 0.11600
C 	C 	0.96915 0.97986 0.84803 0.09700
C 	C 	0.91388 0.91932 0.87670 0.04300
H 	H 	0.85870 0.85030 0.87487 0.13900
O 	O 	0.93172 0.88593 0.69373 -0.30500
O 	O 	0.94454 0.13987 0.60576 -0.35400
C 	C 	0.92968 0.90643 0.75019 0.05600
F 	F 	0.77511 0.81781 0.91802 -0.36600
O 	O 	0.97145 0.04244 0.18357 -0.34700
O 	O 	0.93095 0.00310 0.68292 -0.29800
C 	C 	0.92431 0.92902 0.70647 0.28800
C 	C 	0.45912 0.16369 0.08400 0.31300
F 	F 	0.53393 0.25691 0.97750 -0.29400
C 	C 	0.79170 0.34664 0.02337 0.25800
N 	N 	0.70789 0.28064 0.03351 -0.09600
C 	C 	0.67494 0.29649 0.04928 0.27600
N 	N 	0.72699 0.37749 0.05622 -0.11500
C 	C 	0.80762 0.44566 0.04402 0.26600
N 	N 	0.84080 0.43043 0.02769 -0.09300
C 	C 	0.65850 0.24560 0.50230 0.27300
N 	N 	0.57132 0.18520 0.50928 -0.09200
C 	C 	0.53272 0.21240 0.51415 0.28900
N 	N 	0.58112 0.29947 0.51224 -0.11800
C 	C 	0.66960 0.35907 0.50778 0.28700
N 	N 	0.70856 0.33265 0.50243 -0.09400
N 	N 	0.44641 0.66052 0.16751 -0.11600
C 	C 	0.48885 0.74505 0.16723 0.28000
N 	N 	0.43957 0.76660 0.16748 -0.09400
Co	Co	0.98702 0.98242 0.12753 1.20300
C 	C 	0.91623 0.78747 0.02969 0.41800
Co	Co	0.99977 0.14310 0.13036 1.19200
O 	O 	0.96599 0.87120 0.13002 -0.37100
C 	C 	0.81986 0.97492 0.11185 0.39400
O 	O 	0.86213 0.06168 0.10243 -0.32800
O 	O 	0.84973 0.94225 0.10588 -0.33800
C 	C 	0.98137 0.23388 0.04265 0.42300
O 	O 	0.98530 0.18268 0.03478 -0.34000
O 	O 	0.96891 0.85198 0.00386 -0.34100
O 	O 	0.91077 0.80649 0.05590 -0.30900
Co	Co	0.93126 0.79149 0.60384 1.20600
Co	Co	0.86976 0.86294 0.63485 1.20000
C 	C 	0.84306 0.68051 0.54369 0.40100
Co	Co	0.84341 0.00691 0.62601 1.19700
O 	O 	0.88906 0.96415 0.60953 -0.75400
O 	O 	0.86811 0.75851 0.64361 -0.37700
O 	O 	0.92309 0.90729 0.58193 -0.54600
C 	C 	0.68799 0.81250 0.63235 0.42700
O 	O 	0.73995 0.87836 0.64933 -0.33900
O 	O 	0.72639 0.79424 0.62255 -0.32500
C 	C 	0.80221 0.06686 0.53661 0.39500
O 	O 	0.76297 0.00510 0.56736 -0.32600
O 	O 	0.87403 0.08234 0.53205 -0.29900
O 	O 	0.90922 0.74909 0.52380 -0.31800
O 	O 	0.83387 0.68689 0.57371 -0.30600
C 	C 	0.92436 0.95004 0.90532 -0.06300
C 	C 	0.83876 0.90782 0.91759 0.78800
C 	C 	0.85174 0.87202 0.76156 -0.07800
C 	C 	0.86611 0.90243 0.79126 0.04900
C 	C 	0.75463 0.79709 0.74553 0.78200
H 	H 	0.80737 0.88724 0.79584 0.12100
F 	F 	0.79674 0.95047 0.88974 -0.37700
F 	F 	0.86125 0.91565 0.95568 -0.40700
F 	F 	0.71227 0.73107 0.77742 -0.37000
F 	F 	0.75662 0.75853 0.72615 -0.40700
F 	F 	0.70225 0.82968 0.71896 -0.41600
C 	C 	0.95409 0.95502 0.36840 0.05100
C 	C 	0.95334 0.95529 0.40472 -0.03100
C 	C 	0.86403 0.92186 0.41035 0.77600
H 	H 	0.89245 0.93619 0.34361 0.14000
F 	F 	0.83711 0.84715 0.44268 -0.38200
F 	F 	0.79175 0.89862 0.37612 -0.36800
F 	F 	0.87850 0.98829 0.41805 -0.38700
F 	F 	0.84262 0.79438 0.33400 -0.37900
C 	C 	0.50023 0.62636 0.68619 0.28300
C 	C 	0.44488 0.65662 0.67083 -0.10800
C 	C 	0.46147 0.73007 0.63681 0.28300
C 	C 	0.53361 0.77356 0.61923 0.31100
C 	C 	0.59108 0.74532 0.63584 -0.17700
C 	C 	0.56830 0.66670 0.66696 0.32700
F 	F 	0.61759 0.63362 0.68084 -0.32000
F 	F 	0.48567 0.55567 0.71908 -0.30800
F 	F 	0.55207 0.84728 0.58774 -0.34300
F 	F 	0.40603 0.75771 0.62003 -0.31900
C 	C 	0.58879 0.88081 0.12066 0.27300
C 	C 	0.58043 0.81551 0.15763 -0.12200
C 	C 	0.65190 0.80371 0.17951 0.27000
C 	C 	0.72715 0.85159 0.16312 0.29700
C 	C 	0.73343 0.91411 0.12536 -0.19300
C 	C 	0.66447 0.92930 0.10445 0.30300
F 	F 	0.67033 0.99041 0.06811 -0.32200
F 	F 	0.52035 0.89310 0.09915 -0.33300
F 	F 	0.79510 0.83862 0.18432 -0.37900
F 	F 	0.64597 0.74262 0.21589 -0.31800
C 	C 	0.79817 0.25763 0.51050 0.27600
C 	C 	0.70093 0.21462 0.49776 -0.10900
C 	C 	0.64315 0.13517 0.48512 0.27900
C 	C 	0.67960 0.09152 0.49211 0.31400
C 	C 	0.77439 0.12804 0.51066 -0.17200
C 	C 	0.83466 0.21554 0.51551 0.29800
F 	F 	0.92807 0.25684 0.52831 -0.32900
F 	F 	0.85692 0.33776 0.51990 -0.32200
F 	F 	0.62137 0.01019 0.48393 -0.31500
F 	F 	0.55118 0.09861 0.46741 -0.30400
C 	C 	0.79383 0.52471 0.56622 0.29600
C 	C 	0.78592 0.59281 0.53554 -0.17700
C 	C 	0.74570 0.58595 0.49504 0.30500
C 	C 	0.71727 0.51385 0.48520 0.28200
C 	C 	0.72664 0.44660 0.51580 -0.12100
C 	C 	0.76637 0.45317 0.55630 0.27700
F 	F 	0.77393 0.38754 0.58635 -0.32500
F 	F 	0.83134 0.52953 0.60556 -0.33300
F 	F 	0.67689 0.50730 0.44605 -0.30800
F 	F 	0.73647 0.65063 0.46503 -0.30600
C 	C 	0.44097 0.08254 0.56496 0.28000
C 	C 	0.44574 0.14677 0.52785 -0.11600
F 	F 	0.50835 0.06889 0.58391 -0.31800
C 	C 	0.78123 0.23703 0.00742 0.26800
C 	C 	0.83133 0.32518 0.00999 -0.10300
C 	C 	0.92320 0.38849 0.00456 0.25200
C 	C 	0.96839 0.35989 0.00442 0.30600
C 	C 	0.92528 0.26788 0.01316 -0.18500
C 	C 	0.82848 0.20892 0.00883 0.30700
F 	F 	0.78196 0.12211 0.01033 -0.32600
F 	F 	0.68777 0.17842 0.00433 -0.31000
F 	F 	0.96893 0.47685 0.99984 -0.28900
C 	C 	0.85708 0.67296 0.99877 0.37500
C 	C 	0.87494 0.69419 0.03298 -0.22900
C 	C 	0.87545 0.63434 0.07132 0.32600
C 	C 	0.86254 0.55690 0.07555 0.26500
C 	C 	0.84780 0.53761 0.04148 -0.09500
C 	C 	0.84606 0.59669 0.00319 0.20800
F 	F 	0.82842 0.57761 0.96974 -0.29200
F 	F 	0.85347 0.72814 0.96123 -0.33600
F 	F 	0.86110 0.49876 0.11263 -0.30400
F 	F 	0.89075 0.65209 0.10468 -0.34500
C 	C 	0.50944 0.22512 0.01246 0.26100
C 	C 	0.57638 0.23542 0.04956 -0.11700
C 	C 	0.55064 0.20376 0.08541 0.27800
F 	F 	0.43465 0.13308 0.11879 -0.32400
F 	F 	0.61507 0.21393 0.12143 -0.31700
