data_crystal

_cell_length_a 26.16724
_cell_length_b 26.34762
_cell_length_c 34.56786
_cell_angle_alpha 95.49403
_cell_angle_beta  95.49074
_cell_angle_gamma 125.80941

_symmetry_space_group_name_	'P 1'
_symmetry_space_group_name_H-M	'P 1'

loop_
_symmetry_equiv_pos_as_xyz
  x,y,z

loop_
_atom_site_label
_atom_site_type_symbol
_atom_site_fract_x
_atom_site_fract_y
_atom_site_fract_z
_atom_site_charge
C 	C 	0.97446 0.03765 0.98382 0.09600
C 	C 	0.93469 0.97363 0.98786 -0.07000
C 	C 	0.95601 0.93593 0.98339 0.10900
C 	C 	0.01815 0.96279 0.97660 -0.06900
C 	C 	0.05972 0.02782 0.97534 0.10400
C 	C 	0.03726 0.06488 0.97780 -0.07300
H 	H 	0.88662 0.95278 0.99333 0.10000
H 	H 	0.03488 0.93368 0.97368 0.10000
H 	H 	0.06865 0.11472 0.97549 0.10200
C 	C 	0.93991 0.99735 0.46820 0.13500
C 	C 	0.00173 0.03000 0.45931 -0.09500
C 	C 	0.03382 0.00217 0.46004 0.11200
C 	C 	0.00220 0.93961 0.46662 -0.07500
C 	C 	0.94021 0.90646 0.47530 0.11600
C 	C 	0.90978 0.93609 0.47713 -0.09000
H 	H 	0.02561 0.07777 0.45315 0.10400
H 	H 	0.02641 0.91743 0.46605 0.10200
H 	H 	0.86247 0.91115 0.48469 0.10500
Cu	Cu	0.65042 0.25245 0.00177 0.93600
Cu	Cu	0.72556 0.29788 0.92877 0.88500
Cu	Cu	0.66495 0.34967 0.95482 0.89900
Cu	Cu	0.64561 0.36490 0.03803 0.91500
C 	C 	0.66816 0.29025 0.08528 0.29500
O 	O 	0.55560 0.21245 0.00006 -0.32900
C 	C 	0.65630 0.31813 0.86944 0.29500
O 	O 	0.69536 0.35132 0.00910 -0.63500
O 	O 	0.64530 0.26438 0.94683 -0.64200
O 	O 	0.69392 0.21153 0.99514 -0.33600
O 	O 	0.77361 0.29796 0.97381 -0.40100
O 	O 	0.63309 0.31011 0.07749 -0.36000
O 	O 	0.67748 0.43070 0.96298 -0.35500
C 	C 	0.70454 0.47234 0.99645 0.33800
C 	C 	0.53011 0.24091 0.98883 0.32000
O 	O 	0.56728 0.30233 0.98858 -0.37500
O 	O 	0.69261 0.45404 0.03067 -0.35900
O 	O 	0.67163 0.25564 0.05707 -0.33700
C 	C 	0.75161 0.24461 0.98653 0.33200
O 	O 	0.64542 0.34595 0.89804 -0.36000
O 	O 	0.68969 0.29606 0.87704 -0.39400
H 	H 	0.74245 0.38165 0.01811 0.17800
H 	H 	0.60530 0.23123 0.92776 0.19800
Cu	Cu	0.72849 0.32655 0.45653 0.93500
Cu	Cu	0.67035 0.23959 0.52295 0.88500
Cu	Cu	0.62357 0.30578 0.49866 0.90000
Cu	Cu	0.61990 0.33700 0.41684 0.90900
C 	C 	0.69942 0.31747 0.37294 0.29700
O 	O 	0.77206 0.42183 0.46403 -0.33000
C 	C 	0.63804 0.29637 0.58249 0.29500
O 	O 	0.62915 0.28353 0.44454 -0.63600
O 	O 	0.70843 0.32330 0.50976 -0.64200
O 	O 	0.76964 0.28322 0.46279 -0.33500
O 	O 	0.67933 0.19878 0.47837 -0.40000
O 	O 	0.67929 0.35228 0.38010 -0.36300
O 	O 	0.54276 0.29450 0.48755 -0.35800
C 	C 	0.50486 0.27044 0.45259 0.33500
C 	C 	0.74292 0.44794 0.47205 0.31800
O 	O 	0.67995 0.41235 0.46807 -0.36700
O 	O 	0.52802 0.28974 0.42044 -0.36000
O 	O 	0.73351 0.31395 0.40168 -0.33300
C 	C 	0.73605 0.22451 0.46906 0.33300
O 	O 	0.61973 0.31707 0.55486 -0.36000
O 	O 	0.66510 0.26800 0.57466 -0.38800
H 	H 	0.59922 0.23741 0.43317 0.17400
H 	H 	0.73995 0.36061 0.53095 0.20000
C 	C 	0.57345 0.29927 0.67577 -0.08800
C 	C 	0.62692 0.32163 0.70482 0.00800
C 	C 	0.68570 0.34186 0.69358 0.04200
C 	C 	0.68957 0.33791 0.65334 -0.00800
C 	C 	0.63507 0.31154 0.62411 -0.09300
C 	C 	0.57666 0.29313 0.63536 0.11700
C 	C 	0.61923 0.31704 0.74654 0.00700
C 	C 	0.74329 0.36403 0.72420 -0.18500
H 	H 	0.73452 0.35294 0.64465 0.05700
C 	C 	0.51749 0.26577 0.60463 -0.22100
H 	H 	0.52865 0.28448 0.68459 0.07200
C 	C 	0.63991 0.37121 0.77447 0.04400
C 	C 	0.64889 0.37026 0.81507 -0.01300
C 	C 	0.63368 0.31467 0.82779 -0.09400
C 	C 	0.60291 0.25770 0.79970 0.11500
C 	C 	0.59780 0.25982 0.75921 -0.08800
C 	C 	0.65530 0.43083 0.76121 -0.18900
H 	H 	0.66996 0.41335 0.83664 0.06300
C 	C 	0.57748 0.19511 0.81260 -0.21600
H 	H 	0.57925 0.21747 0.73759 0.06900
H 	H 	0.52506 0.30281 0.58785 0.11800
H 	H 	0.47470 0.24891 0.61832 0.10400
H 	H 	0.50674 0.22441 0.58390 0.10000
H 	H 	0.73249 0.32456 0.73954 0.08800
H 	H 	0.75610 0.40501 0.74628 0.08400
H 	H 	0.78597 0.37966 0.71067 0.09000
H 	H 	0.65795 0.46348 0.78557 0.09700
H 	H 	0.61739 0.41864 0.73642 0.09400
H 	H 	0.70213 0.45634 0.75130 0.08900
H 	H 	0.53894 0.15437 0.78920 0.09800
H 	H 	0.55653 0.19177 0.83957 0.09700
H 	H 	0.61687 0.19049 0.81872 0.10100
C 	C 	0.64421 0.25724 0.26276 -0.08300
C 	C 	0.70306 0.28410 0.25036 0.00700
C 	C 	0.75962 0.31263 0.27875 0.04800
C 	C 	0.75746 0.32041 0.31922 -0.00600
C 	C 	0.69916 0.29764 0.33151 -0.08700
C 	C 	0.64158 0.26204 0.30317 0.10700
C 	C 	0.70579 0.28803 0.20803 0.00700
C 	C 	0.82272 0.33771 0.26609 -0.19000
H 	H 	0.80148 0.34628 0.34103 0.07400
C 	C 	0.57753 0.23166 0.31576 -0.21000
H 	H 	0.60062 0.23402 0.24090 0.06800
C 	C 	0.68106 0.23317 0.17941 0.04700
C 	C 	0.67110 0.23497 0.13905 -0.00700
C 	C 	0.68841 0.29165 0.12700 -0.08700
C 	C 	0.72048 0.34832 0.15554 0.10900
C 	C 	0.72700 0.34559 0.19590 -0.08400
C 	C 	0.66226 0.17190 0.19175 -0.18900
H 	H 	0.64799 0.19180 0.11714 0.07300
C 	C 	0.74574 0.41131 0.14328 -0.21200
H 	H 	0.74729 0.38801 0.21793 0.06900
H 	H 	0.53778 0.19288 0.29196 0.09500
H 	H 	0.56926 0.26806 0.32270 0.08300
H 	H 	0.57586 0.21029 0.34224 0.07900
H 	H 	0.84196 0.38365 0.25625 0.09200
H 	H 	0.81636 0.30306 0.24143 0.09200
H 	H 	0.85857 0.34565 0.29076 0.09900
H 	H 	0.65747 0.13856 0.16683 0.09900
H 	H 	0.61561 0.14837 0.20181 0.09000
H 	H 	0.69935 0.18145 0.21615 0.09200
H 	H 	0.70598 0.41531 0.13675 0.09000
H 	H 	0.76774 0.41578 0.11667 0.08100
H 	H 	0.78338 0.45182 0.16712 0.09600
C 	C 	0.78040 0.51814 0.48139 -0.11200
C 	C 	0.76871 0.54693 0.51233 0.12600
C 	C 	0.79270 0.61121 0.51546 0.06600
C 	C 	0.83564 0.64901 0.49123 0.02200
C 	C 	0.85471 0.62236 0.46433 0.06500
C 	C 	0.82352 0.55627 0.45713 0.12500
C 	C 	0.85555 0.71451 0.49091 0.00900
C 	C 	0.82752 0.72597 0.45942 0.08000
C 	C 	0.85615 0.78865 0.45357 0.09200
C 	C 	0.90717 0.84043 0.48238 -0.04800
C 	C 	0.92988 0.82882 0.51656 0.09100
C 	C 	0.90681 0.76615 0.51964 0.08100
Br	Br	0.92278 0.67646 0.43682 -0.13400
Br	Br	0.72298 0.49942 0.55158 -0.17800
Br	Br	0.82996 0.80313 0.40439 -0.12700
Br	Br	0.94766 0.75129 0.56178 -0.12700
Br	Br	0.83413 0.51775 0.41122 -0.15800
Br	Br	0.76404 0.64636 0.55120 -0.12400
Br	Br	0.75039 0.65557 0.42408 -0.13300
Br	Br	0.99116 0.89849 0.55942 -0.12800
C 	C 	0.90726 0.02807 0.46889 -0.06100
C 	C 	0.93085 0.08144 0.49841 0.09400
C 	C 	0.90488 0.11532 0.49618 0.07900
C 	C 	0.84940 0.09071 0.46794 0.01100
C 	C 	0.82267 0.03438 0.44040 0.07400
C 	C 	0.85441 0.00603 0.43899 0.08900
C 	C 	0.81883 0.12360 0.46751 0.02200
C 	C 	0.78329 0.11940 0.49677 0.06500
C 	C 	0.76081 0.15649 0.49914 0.13000
C 	C 	0.76366 0.18892 0.46815 -0.12000
C 	C 	0.79409 0.18811 0.43673 0.13100
C 	C 	0.82598 0.15985 0.43819 0.06400
Br	Br	0.74179 0.99520 0.40544 -0.11700
Br	Br	0.99624 0.10605 0.54288 -0.13700
Br	Br	0.73358 0.16872 0.54686 -0.23100
Br	Br	0.88106 0.17252 0.40096 -0.13400
Br	Br	0.82928 0.94137 0.39432 -0.12000
Br	Br	0.94645 0.19640 0.53080 -0.13000
Br	Br	0.76431 0.06187 0.53307 -0.13100
Br	Br	0.78724 0.22023 0.39015 -0.16700
C 	C 	0.10234 0.04041 0.45709 -0.04800
C 	C 	0.14982 0.07573 0.49163 0.09100
C 	C 	0.21509 0.11295 0.48890 0.08200
C 	C 	0.23304 0.11487 0.45162 0.00700
C 	C 	0.18559 0.07947 0.41706 0.08300
C 	C 	0.12024 0.04220 0.41980 0.08500
C 	C 	0.30192 0.15370 0.44889 0.02400
C 	C 	0.33480 0.21828 0.44580 0.06400
C 	C 	0.40140 0.25665 0.44684 0.12900
C 	C 	0.43498 0.23021 0.45041 -0.12000
C 	C 	0.40188 0.16534 0.45259 0.12500
C 	C 	0.33535 0.12703 0.45169 0.06300
Br	Br	0.21033 0.08215 0.36606 -0.13000
Br	Br	0.12527 0.07303 0.54270 -0.12700
Br	Br	0.44705 0.34586 0.44470 -0.14500
Br	Br	0.28990 0.03815 0.45476 -0.13700
Br	Br	0.05510 0.99344 0.37262 -0.11900
Br	Br	0.28018 0.16140 0.53618 -0.14500
Br	Br	0.28850 0.25413 0.44066 -0.12400
Br	Br	0.44797 0.12916 0.45696 -0.22800
C 	C 	0.73865 0.54005 0.99494 -0.11800
C 	C 	0.80364 0.57700 0.99145 0.12600
C 	C 	0.83649 0.64189 0.98988 0.06400
C 	C 	0.80429 0.66983 0.99183 0.02400
C 	C 	0.73923 0.63284 0.99535 0.06500
C 	C 	0.70633 0.56786 0.99675 0.12900
C 	C 	0.83880 0.73800 0.98993 0.00700
C 	C 	0.87246 0.78429 0.02493 0.08200
C 	C 	0.90970 0.84931 0.02286 0.09200
C 	C 	0.91315 0.86801 0.98580 -0.04800
C 	C 	0.87748 0.82174 0.95093 0.09100
C 	C 	0.84029 0.75672 0.95299 0.08200
Br	Br	0.69545 0.67144 0.99822 -0.12100
Br	Br	0.84757 0.53850 0.98908 -0.21000
Br	Br	0.95680 0.91295 0.07067 -0.12400
Br	Br	0.79205 0.69305 0.90526 -0.13800
Br	Br	0.61673 0.51652 0.00048 -0.13900
Br	Br	0.92561 0.69275 0.98501 -0.13400
Br	Br	0.86812 0.75830 0.07557 -0.12500
Br	Br	0.88027 0.84769 0.90037 -0.12900
C 	C 	0.78974 0.21969 0.98828 -0.12200
C 	C 	0.79288 0.19180 0.02050 0.13300
C 	C 	0.82306 0.16182 0.01959 0.06400
C 	C 	0.85985 0.16955 0.99034 0.02400
C 	C 	0.86348 0.20460 0.96110 0.06400
C 	C 	0.82323 0.22343 0.95757 0.13200
C 	C 	0.89049 0.13687 0.98842 0.00600
C 	C 	0.94677 0.16040 0.01553 0.08400
C 	C 	0.97309 0.12668 0.01510 0.08600
C 	C 	0.94894 0.07506 0.98395 -0.04300
C 	C 	0.89694 0.05611 0.95438 0.08100
C 	C 	0.86441 0.08316 0.95863 0.08300
Br	Br	0.92365 0.22683 0.92598 -0.12800
Br	Br	0.76199 0.20007 0.06743 -0.16900
Br	Br	0.03860 0.14816 0.05852 -0.12800
Br	Br	0.78283 0.04508 0.92480 -0.13700
Br	Br	0.80698 0.24491 0.90833 -0.23200
Br	Br	0.81143 0.10783 0.05710 -0.13400
Br	Br	0.98874 0.23963 0.05227 -0.13000
Br	Br	0.87307 0.99628 0.90696 -0.11800
C 	C 	0.46020 0.20717 0.98436 -0.11500
C 	C 	0.41725 0.14837 0.95798 0.12800
C 	C 	0.35063 0.11588 0.95480 0.06500
C 	C 	0.32710 0.14552 0.97438 0.02400
C 	C 	0.37028 0.20651 0.99814 0.06200
C 	C 	0.43608 0.23464 0.00584 0.13400
C 	C 	0.25729 0.11068 0.97289 0.00700
C 	C 	0.21872 0.10863 0.94044 0.08200
C 	C 	0.15330 0.07924 0.94053 0.09100
C 	C 	0.12813 0.05799 0.97472 -0.04600
C 	C 	0.16772 0.06297 0.00785 0.09100
C 	C 	0.23062 0.08484 0.00572 0.08200
Br	Br	0.33909 0.25151 0.02001 -0.12100
Br	Br	0.44942 0.11417 0.92465 -0.18600
Br	Br	0.09773 0.06582 0.89347 -0.13500
Br	Br	0.28039 0.07921 0.04762 -0.13300
Br	Br	0.49163 0.30628 0.04891 -0.19300
Br	Br	0.29174 0.03022 0.92482 -0.13000
Br	Br	0.25607 0.14814 0.89668 -0.12900
Br	Br	0.13728 0.04424 0.05699 -0.13000
