data_crystal

_cell_length_a 15.81939
_cell_length_b 16.04558
_cell_length_c 49.95356
_cell_angle_alpha 90.19861
_cell_angle_beta  90.21244
_cell_angle_gamma 119.35891

_symmetry_space_group_name_	'P 1'
_symmetry_space_group_name_H-M	'P 1'

loop_
_symmetry_equiv_pos_as_xyz
  x,y,z

loop_
_atom_site_label
_atom_site_type_symbol
_atom_site_fract_x
_atom_site_fract_y
_atom_site_fract_z
_atom_site_charge
C 	C 	0.48759 0.13039 0.94692 0.35600
C 	C 	0.55049 0.14657 0.87682 0.31100
O 	O 	0.46027 0.16737 0.92668 -0.35600
O 	O 	0.57627 0.23626 0.87477 -0.38100
O 	O 	0.57461 0.11704 0.89868 -0.36700
C 	C 	0.51439 0.29269 0.66774 0.31200
C 	C 	0.49203 0.28168 0.59595 0.34000
O 	O 	0.52421 0.35868 0.65034 -0.35400
O 	O 	0.49395 0.21419 0.61155 -0.37100
O 	O 	0.57332 0.25776 0.66749 -0.39400
C 	C 	0.22155 0.09537 0.74567 0.31600
C 	C 	0.22113 0.05715 0.81786 0.30000
Ni	Ni	0.11791 0.14328 0.78448 1.12200
Ni	Ni	0.08005 0.93078 0.77853 1.12400
O 	O 	0.16617 0.13369 0.74862 -0.38500
O 	O 	0.15130 0.96876 0.81318 -0.38700
O 	O 	0.01761 0.90455 0.74216 -0.35300
O 	O 	0.22608 0.13310 0.80505 -0.38000
O 	O 	0.20738 0.02078 0.76005 -0.38100
O 	O 	0.02821 0.01120 0.78802 -0.70600
C 	C 	0.14673 0.52567 0.44811 0.32000
C 	C 	0.38832 0.86301 0.38706 0.30800
C 	C 	0.22133 0.53977 0.37831 0.31400
C 	C 	0.33824 0.86204 0.45771 0.34800
C 	C 	0.53319 0.70380 0.39671 0.31700
C 	C 	0.45259 0.65221 0.47288 0.33700
Ni	Ni	0.23843 0.69959 0.41424 1.11800
Ni	Ni	0.46384 0.79953 0.43330 1.12500
Ni	Ni	0.34520 0.57481 0.42310 1.12700
O 	O 	0.15564 0.61102 0.44414 -0.35400
O 	O 	0.19983 0.49500 0.43454 -0.33900
O 	O 	0.52307 0.77876 0.40075 -0.38500
O 	O 	0.32999 0.77259 0.38357 -0.37900
O 	O 	0.44079 0.89187 0.40932 -0.36100
O 	O 	0.39001 0.57361 0.46009 -0.35500
O 	O 	0.17136 0.57621 0.38949 -0.35300
O 	O 	0.31187 0.57573 0.38451 -0.39000
O 	O 	0.51135 0.73266 0.45967 -0.35100
O 	O 	0.27587 0.82682 0.43694 -0.35200
O 	O 	0.40074 0.83254 0.46283 -0.38200
O 	O 	0.48449 0.62523 0.41094 -0.36400
O 	O 	0.34025 0.68797 0.43010 -0.71900
H 	H 	0.32052 0.67700 0.44898 0.17500
C 	C 	0.55297 0.75492 0.16339 0.28400
C 	C 	0.26507 0.46593 0.09150 0.37800
C 	C 	0.48087 0.75582 0.08404 0.35500
C 	C 	0.28282 0.45639 0.16467 0.28900
C 	C 	0.22670 0.71607 0.09893 0.37200
C 	C 	0.25089 0.72386 0.17443 0.29700
Ni	Ni	0.43302 0.59957 0.12332 1.12000
Ni	Ni	0.22013 0.57085 0.13322 1.12700
Ni	Ni	0.40081 0.78447 0.13386 1.12600
O 	O 	0.53411 0.67110 0.15321 -0.36200
O 	O 	0.53367 0.81525 0.14969 -0.35900
O 	O 	0.22493 0.63424 0.09887 -0.37500
O 	O 	0.34886 0.54185 0.08999 -0.34700
O 	O 	0.20727 0.45619 0.11141 -0.36700
O 	O 	0.34464 0.77742 0.16990 -0.38700
O 	O 	0.51769 0.70905 0.09679 -0.35000
O 	O 	0.46024 0.81369 0.09725 -0.36700
O 	O 	0.19153 0.66024 0.15633 -0.37200
O 	O 	0.35087 0.47284 0.14613 -0.33400
O 	O 	0.23260 0.50245 0.16504 -0.38000
O 	O 	0.28329 0.78346 0.11617 -0.36400
O 	O 	0.35731 0.65015 0.13629 -0.71200
H 	H 	0.36722 0.64688 0.15565 0.15200
C 	C 	0.13118 0.90279 0.25269 0.29300
C 	C 	0.08856 0.19437 0.31744 0.31000
C 	C 	0.13667 0.93647 0.32752 0.32100
C 	C 	0.10593 0.17526 0.24493 0.29400
Ni	Ni	0.15727 0.07495 0.28677 1.11000
O 	O 	0.18819 0.97179 0.26989 -0.36500
O 	O 	0.16002 0.19632 0.30353 -0.37300
O 	O 	0.00360 0.11765 0.31777 -0.36900
O 	O 	0.14486 0.02058 0.32461 -0.38800
O 	O 	0.07963 0.86603 0.31113 -0.35700
O 	O 	0.16067 0.13629 0.25049 -0.38200
O 	O 	0.03361 0.16521 0.26100 -0.36600
O 	O 	0.02488 0.99536 0.27978 -0.69200
H 	H 	0.02475 0.99020 0.26012 0.16400
C 	C 	0.28232 0.39942 0.21010 -0.04400
C 	C 	0.25285 0.37661 0.18337 -0.07800
C 	C 	0.17082 0.28692 0.17720 0.12600
C 	C 	0.11668 0.22529 0.19799 -0.04400
C 	C 	0.14305 0.25108 0.22476 -0.08400
C 	C 	0.22441 0.34093 0.23087 0.11300
N 	N 	0.24555 0.37246 0.25661 -0.20100
H 	H 	0.34475 0.46814 0.21488 0.04600
H 	H 	0.05592 0.15542 0.19323 0.05500
N 	N 	0.14318 0.26014 0.15139 -0.20200
H 	H 	0.30860 0.43637 0.26120 0.08700
H 	H 	0.19655 0.33731 0.27197 0.10800
H 	H 	0.18374 0.30266 0.13552 0.15400
H 	H 	0.08135 0.19499 0.14696 0.11300
H 	H 	0.44937 0.66880 0.20436 0.08500
C 	C 	0.16161 0.80753 0.18711 -0.03900
C 	C 	0.20914 0.75749 0.19519 -0.08100
C 	C 	0.23815 0.76236 0.22225 0.11000
C 	C 	0.22255 0.82040 0.24043 -0.03700
C 	C 	0.17533 0.87066 0.23225 -0.08700
C 	C 	0.14849 0.86745 0.20510 0.12000
N 	N 	0.11202 0.92342 0.19613 -0.19900
H 	H 	0.14123 0.80538 0.16625 0.06900
N 	N 	0.27912 0.70998 0.23096 -0.19800
H 	H 	0.08812 0.91783 0.17633 0.10800
H 	H 	0.11126 0.97596 0.20837 0.10100
H 	H 	0.28391 0.66008 0.21850 0.09200
H 	H 	0.51238 0.66670 0.34380 0.05500
C 	C 	0.12151 0.43333 0.34112 -0.03800
C 	C 	0.17118 0.44424 0.36532 -0.08700
C 	C 	0.18208 0.36641 0.37510 0.11400
C 	C 	0.14682 0.28245 0.35993 -0.03200
C 	C 	0.10676 0.27594 0.33465 -0.09200
C 	C 	0.08844 0.34936 0.32570 0.11200
H 	H 	0.11084 0.49118 0.33389 0.05600
H 	H 	0.15631 0.22389 0.36722 0.06000
N 	N 	0.22597 0.37154 0.39894 -0.18400
H 	H 	0.28598 0.43440 0.40531 0.04000
H 	H 	0.21159 0.30881 0.40891 0.11200
C 	C 	0.30586 0.95870 0.38462 -0.05000
C 	C 	0.36525 0.92819 0.37205 -0.09000
C 	C 	0.36198 0.92099 0.34386 0.11400
C 	C 	0.28297 0.91729 0.32980 -0.04100
C 	C 	0.21207 0.92943 0.34334 -0.09800
C 	C 	0.22573 0.95419 0.37092 0.12200
N 	N 	0.16058 0.97003 0.38457 -0.20200
H 	H 	0.31363 0.97324 0.40590 0.07000
H 	H 	0.27762 0.90651 0.30829 0.05500
N 	N 	0.43106 0.91103 0.33045 -0.19900
H 	H 	0.17255 0.99060 0.40472 0.11400
H 	H 	0.09610 0.95906 0.37565 0.11900
H 	H 	0.49102 0.91521 0.34055 0.10300
H 	H 	0.42662 0.90144 0.30968 0.09000
C 	C 	0.42189 0.01518 0.51484 -0.14800
C 	C 	0.50763 0.08611 0.50316 0.01700
C 	C 	0.50923 0.10172 0.47551 0.30400
C 	C 	0.43196 0.03680 0.45937 -0.06900
C 	C 	0.35805 0.95214 0.47061 -0.13100
C 	C 	0.34523 0.95045 0.49847 0.37800
H 	H 	0.43855 0.04391 0.43785 0.09300
F 	F 	0.26700 0.87586 0.50980 -0.42500
H 	H 	0.41698 0.00657 0.53638 0.12100
C 	C 	0.00290 0.46691 0.50645 -0.07000
C 	C 	0.05920 0.45719 0.46217 -0.06400
C 	C 	0.06592 0.45177 0.49003 0.33900
F 	F 	0.14329 0.44958 0.50107 -0.40400
H 	H 	0.01399 0.47242 0.52794 0.12300
C 	C 	0.42074 0.49017 0.53677 0.01100
C 	C 	0.36312 0.53447 0.53517 0.30500
C 	C 	0.39139 0.61382 0.51851 -0.05500
C 	C 	0.47019 0.64135 0.50110 -0.12800
C 	C 	0.38522 0.39702 0.55069 0.02500
F 	F 	0.27668 0.49661 0.54797 -0.39800
H 	H 	0.34267 0.64259 0.51573 0.11100
C 	C 	0.39470 0.32234 0.53864 0.29800
C 	C 	0.39855 0.25290 0.55485 -0.04600
C 	C 	0.40215 0.26452 0.58272 -0.14100
C 	C 	0.35853 0.31565 0.59322 0.36700
C 	C 	0.35760 0.38785 0.57770 -0.13800
F 	F 	0.40749 0.32137 0.51181 -0.38700
H 	H 	0.41569 0.20135 0.54598 0.11500
F 	F 	0.34062 0.31265 0.61982 -0.44700
H 	H 	0.34388 0.44083 0.58717 0.13800
C 	C 	0.29161 0.10315 0.70127 -0.03900
C 	C 	0.30388 0.14034 0.72720 -0.09100
C 	C 	0.38280 0.23257 0.73288 0.11000
C 	C 	0.44432 0.28753 0.71211 -0.03600
C 	C 	0.43114 0.25063 0.68608 -0.08300
C 	C 	0.35080 0.15944 0.68038 0.12600
N 	N 	0.32749 0.12774 0.65478 -0.20600
H 	H 	0.23029 0.03329 0.69682 0.06600
H 	H 	0.50639 0.35681 0.71662 0.05400
N 	N 	0.40154 0.26739 0.75832 -0.20400
H 	H 	0.27428 0.05724 0.65074 0.11700
H 	H 	0.35414 0.17526 0.63891 0.14900
H 	H 	0.36488 0.22421 0.77451 0.09700
H 	H 	0.45707 0.33700 0.76225 0.09000
N 	N 	0.00471 0.71485 0.73789 -0.17800
H 	H 	0.04342 0.67791 0.73584 0.09800
H 	H 	0.01139 0.75057 0.75587 0.08200
C 	C 	0.05318 0.65514 0.09593 0.02100
C 	C 	0.14522 0.71864 0.08583 -0.18000
C 	C 	0.15230 0.73474 0.05814 0.41600
C 	C 	0.08312 0.66488 0.04099 -0.20500
H 	H 	0.04195 0.65031 0.11738 0.07500
F 	F 	0.23402 0.80798 0.04779 -0.44900
H 	H 	0.09406 0.67165 0.01954 0.13800
C 	C 	0.39928 0.97045 0.00298 -0.12700
C 	C 	0.41533 0.89856 0.99217 0.02000
C 	C 	0.41328 0.88678 0.96432 0.29400
C 	C 	0.41114 0.95563 0.94762 -0.06100
C 	C 	0.41745 0.03914 0.95879 -0.13800
C 	C 	0.39721 0.03909 0.98614 0.37800
C 	C 	0.44456 0.84336 0.00984 0.02900
F 	F 	0.42182 0.81358 0.95349 -0.41500
H 	H 	0.42106 0.95170 0.92633 0.08900
F 	F 	0.39203 0.11409 0.99699 -0.42600
H 	H 	0.39507 0.97695 0.02447 0.14600
C 	C 	0.48307 0.76186 0.05461 -0.12800
C 	C 	0.39474 0.71093 0.04041 0.39700
C 	C 	0.37553 0.75218 0.01826 -0.11800
F 	F 	0.32285 0.62776 0.05006 -0.42700
H 	H 	0.30428 0.71635 0.00898 0.14100
C 	C 	0.45699 0.41938 0.01687 0.02200
C 	C 	0.37219 0.38731 0.03490 0.01800
H 	H 	0.47089 0.29357 0.02318 0.14500
C 	C 	0.29153 0.39732 0.02755 0.31600
C 	C 	0.22654 0.39238 0.04734 -0.03600
C 	C 	0.24776 0.38544 0.07427 -0.14600
C 	C 	0.30555 0.34315 0.07950 0.36800
C 	C 	0.37351 0.35113 0.06040 -0.14600
F 	F 	0.27898 0.41626 0.00183 -0.38800
H 	H 	0.17153 0.41150 0.04236 0.11500
F 	F 	0.31314 0.31712 0.10480 -0.45300
C 	C 	0.37508 0.03894 0.87322 -0.04600
C 	C 	0.46601 0.07969 0.86085 -0.09600
C 	C 	0.47013 0.09238 0.83288 0.11600
C 	C 	0.39118 0.09053 0.81937 -0.04300
C 	C 	0.30584 0.06896 0.83321 -0.09100
C 	C 	0.29619 0.03901 0.86022 0.11600
N 	N 	0.21314 0.01383 0.87402 -0.19800
H 	H 	0.36904 0.01993 0.89413 0.06600
H 	H 	0.39550 0.10401 0.79803 0.05300
N 	N 	0.55199 0.11221 0.81926 -0.20000
H 	H 	0.20599 0.98976 0.89373 0.10600
H 	H 	0.15632 0.02081 0.86569 0.10700
H 	H 	0.55673 0.12551 0.79870 0.09000
O 	O 	0.03684 0.84879 0.25675 -0.36200
H 	H 	0.24202 0.82188 0.26133 0.05100
H 	H 	0.30361 0.71638 0.25072 0.08700
H 	H 	0.02474 0.65177 0.52370 0.17800
H 	H 	0.07974 0.49973 0.01835 0.09700
H 	H 	0.43075 0.33594 0.06602 0.12000
O 	O 	0.06155 0.16121 0.81840 -0.35400
N 	N 	0.03812 0.33922 0.30268 -0.20000
F 	F 	0.58838 0.17490 0.46404 -0.39400
C 	C 	0.51217 0.53421 0.52440 -0.12900
H 	H 	0.02575 0.00502 0.80767 0.17600
N 	N 	0.50694 0.68042 0.21699 -0.19700
C 	C 	0.53847 0.88633 0.02091 0.29300
F 	F 	0.46868 0.57306 0.01052 -0.39800
C 	C 	0.53776 0.61122 0.50701 0.37600
H 	H 	0.61058 0.11203 0.82895 0.10100
Ni	Ni	0.54568 0.29935 0.90616 1.11800
F 	F 	0.58078 0.27746 0.52044 -0.38700
C 	C 	0.59733 0.13743 0.51946 0.01400
C 	C 	0.49817 0.36066 0.01262 -0.14600
C 	C 	0.56975 0.38459 0.99331 0.38500
F 	F 	0.60005 0.32112 0.98756 -0.45800
C 	C 	0.60674 0.44982 0.94790 0.33200
O 	O 	0.57963 0.16112 0.95277 -0.34900
O 	O 	0.59670 0.42457 0.88345 -0.36300
O 	O 	0.53066 0.38227 0.93510 -0.35000
Ni	Ni	0.64398 0.43476 0.62709 1.12300
Ni	Ni	0.61016 0.22219 0.63314 1.12400
O 	O 	0.64998 0.16920 0.60239 -0.36700
O 	O 	0.70390 0.19222 0.65434 -0.36000
O 	O 	0.56449 0.36996 0.59507 -0.39400
C 	C 	0.62303 0.79239 0.18578 -0.07800
C 	C 	0.60024 0.74453 0.21072 0.10400
H 	H 	0.49079 0.64363 0.23513 0.08200
C 	C 	0.58706 0.70883 0.35049 -0.03900
C 	C 	0.60845 0.71341 0.37790 -0.09000
H 	H 	0.67922 0.70950 0.42541 0.13900
H 	H 	0.56337 0.71905 0.29936 0.08600
C 	C 	0.62810 0.23063 0.52851 0.30600
C 	C 	0.64682 0.08981 0.52824 -0.14400
H 	H 	0.62674 0.01930 0.52050 0.11800
F 	F 	0.62072 0.64535 0.49264 -0.42200
H 	H 	0.56052 0.50520 0.52692 0.13600
C 	C 	0.55822 0.84415 0.04285 -0.04400
F 	F 	0.60835 0.97205 0.01171 -0.41600
H 	H 	0.62824 0.88200 0.05274 0.09800
C 	C 	0.49755 0.50872 0.00397 0.30400
C 	C 	0.56643 0.53039 0.98370 -0.04900
C 	C 	0.59506 0.46334 0.97643 -0.14500
H 	H 	0.58949 0.59435 0.97188 0.09800
H 	H 	0.02941 0.39566 0.29548 0.09800
H 	H 	0.05539 0.26808 0.70800 0.09400
H 	H 	0.69871 0.14199 0.70916 0.05300
H 	H 	0.69172 0.06986 0.75106 0.08700
Ni	Ni	0.68180 0.20987 0.92458 1.12700
O 	O 	0.65894 0.31586 0.92358 -0.72400
H 	H 	0.64240 0.31752 0.94234 0.20000
O 	O 	0.69590 0.35076 0.62242 -0.71300
H 	H 	0.68972 0.34212 0.60292 0.15200
C 	C 	0.65877 0.76751 0.33211 0.11000
N 	N 	0.63451 0.76433 0.30583 -0.20200
C 	C 	0.70102 0.27169 0.54808 -0.06300
C 	C 	0.71704 0.13015 0.54865 0.37400
H 	H 	0.65615 0.60207 0.90190 0.11800
H 	H 	0.06073 0.33427 0.66497 0.13200
C 	C 	0.68690 0.47574 0.87548 0.31600
O 	O 	0.69334 0.49821 0.93591 -0.37000
C 	C 	0.73448 0.21845 0.59051 0.33900
O 	O 	0.72168 0.48798 0.66083 -0.38600
C 	C 	0.71928 0.86073 0.18031 -0.04100
C 	C 	0.67463 0.76508 0.22947 -0.04000
H 	H 	0.73741 0.89478 0.16087 0.06200
H 	H 	0.65693 0.72890 0.24858 0.04800
C 	C 	0.70627 0.76328 0.38630 0.12000
N 	N 	0.73088 0.75670 0.41199 -0.20200
H 	H 	0.68537 0.80561 0.29152 0.10600
C 	C 	0.73410 0.21576 0.56113 -0.14400
H 	H 	0.71717 0.33946 0.55666 0.07300
F 	F 	0.75634 0.07881 0.55912 -0.43000
H 	H 	0.67296 0.46209 0.54172 0.10400
H 	H 	0.74135 0.65079 0.64059 0.09900
H 	H 	0.71048 0.72621 0.65991 0.10100
H 	H 	0.72137 0.32564 0.01755 0.14600
C 	C 	0.71499 0.55698 0.85737 -0.09900
N 	N 	0.71285 0.65997 0.89225 -0.20300
N 	N 	0.76685 0.09737 0.75119 -0.19900
O 	O 	0.76634 0.25109 0.89269 -0.38900
C 	C 	0.78313 0.25497 0.66715 0.31600
C 	C 	0.77615 0.16766 0.70859 -0.02900
N 	N 	0.74770 0.68765 0.65840 -0.19900
H 	H 	0.73992 0.72790 0.90082 0.10200
Ni	Ni	0.77320 0.43632 0.92188 1.12400
O 	O 	0.75252 0.45431 0.88310 -0.39100
O 	O 	0.79235 0.27364 0.95240 -0.34900
O 	O 	0.81432 0.27844 0.60440 -0.35500
O 	O 	0.82026 0.34620 0.66300 -0.38400
O 	O 	0.75111 0.53661 0.60335 -0.36600
C 	C 	0.77013 0.83668 0.22447 -0.08900
C 	C 	0.79348 0.88079 0.19902 0.11000
C 	C 	0.77824 0.82318 0.36825 -0.04100
C 	C 	0.75495 0.82896 0.34140 -0.09400
H 	H 	0.80280 0.79658 0.41852 0.11100
C 	C 	0.74937 0.50596 0.53744 -0.04900
F 	F 	0.72636 0.42177 0.49619 -0.35100
H 	H 	0.79841 0.08672 0.76819 0.08100
F 	F 	0.79710 0.47089 0.05051 -0.41400
C 	C 	0.73665 0.54757 0.83071 -0.03700
C 	C 	0.74509 0.64902 0.86802 0.11400
H 	H 	0.71153 0.47682 0.82229 0.05000
O 	O 	0.03323 0.18948 0.76486 -0.34200
C 	C 	0.82138 0.14867 0.73011 0.09600
C 	C 	0.79860 0.51771 0.58441 0.34200
C 	C 	0.78704 0.48782 0.51411 0.28800
C 	C 	0.83025 0.22245 0.68692 -0.09900
H 	H 	0.79040 0.79641 0.70117 0.05900
C 	C 	0.79955 0.36637 0.01698 -0.11100
C 	C 	0.81434 0.54868 0.66002 0.31300
C 	C 	0.80755 0.69097 0.67848 0.12100
C 	C 	0.80771 0.34665 0.96856 0.33600
Ni	Ni	0.83062 0.40118 0.62530 1.11500
C 	C 	0.81321 0.56162 0.55791 -0.15000
C 	C 	0.80844 0.73003 0.85332 -0.04600
C 	C 	0.79160 0.62877 0.81494 0.10800
H 	H 	0.77683 0.54971 0.78014 0.08800
O 	O 	0.80790 0.42378 0.95933 -0.36800
C 	C 	0.82592 0.75332 0.70026 -0.04800
N 	N 	0.80022 0.61773 0.78826 -0.20100
H 	H 	0.83619 0.80057 0.86216 0.05300
C 	C 	0.85175 0.32697 0.89253 0.32200
O 	O 	0.84858 0.47402 0.59016 -0.36900
C 	C 	0.84864 0.44246 0.03497 0.36600
C 	C 	0.83507 0.88704 0.32274 0.31100
C 	C 	0.83666 0.88313 0.24735 0.28500
O 	O 	0.82947 0.94927 0.30648 -0.38200
O 	O 	0.84588 0.82898 0.26634 -0.39000
N 	N 	0.88724 0.94173 0.19237 -0.19800
H 	H 	0.90407 0.97668 0.17393 0.08400
H 	H 	0.85274 0.86512 0.37510 0.05400
C 	C 	0.85382 0.63445 0.67730 -0.09400
C 	C 	0.84955 0.35486 0.99542 -0.07200
C 	C 	0.83352 0.72098 0.82697 -0.08900
H 	H 	0.82128 0.67449 0.77504 0.10700
O 	O 	0.87166 0.53371 0.64392 -0.35100
F 	F 	0.84433 0.48267 0.45521 -0.39700
O 	O 	0.87315 0.40018 0.90877 -0.37100
O 	O 	0.86802 0.87597 0.81171 -0.38500
O 	O 	0.86248 0.84920 0.75565 -0.36600
H 	H 	0.92037 0.23999 0.78831 0.10100
H 	H 	0.88943 0.33037 0.79616 0.08700
Ni	Ni	0.89748 0.96881 0.78034 1.10300
O 	O 	0.89934 0.08006 0.80450 -0.36600
O 	O 	0.86749 0.97549 0.25118 -0.39400
H 	H 	0.94434 0.95233 0.20504 0.07700
C 	C 	0.88811 0.53200 0.51080 0.05600
N 	N 	0.91049 0.28139 0.80269 -0.19900
H 	H 	0.88914 0.38205 0.84085 0.04900
C 	C 	0.89385 0.80904 0.81158 0.29600
C 	C 	0.90888 0.62711 0.55068 0.40200
C 	C 	0.93205 0.25828 0.68654 0.13400
C 	C 	0.92320 0.18359 0.72967 -0.06700
C 	C 	0.89416 0.76491 0.71993 -0.07700
C 	C 	0.91603 0.33516 0.84766 -0.02800
C 	C 	0.92523 0.32499 0.87520 -0.10700
C 	C 	0.92617 0.27426 0.82916 0.09300
O 	O 	0.91150 0.87607 0.32280 -0.41000
F 	F 	0.91368 0.50145 0.09099 -0.39600
O 	O 	0.92886 0.04660 0.74572 -0.37500
C 	C 	0.92555 0.84433 0.73942 0.27200
C 	C 	0.91209 0.46668 0.46724 0.34300
H 	H 	0.95214 0.30597 0.64673 0.09600
C 	C 	0.92397 0.64789 0.69649 -0.02700
C 	C 	0.95250 0.20648 0.83853 -0.05700
C 	C 	0.93202 0.48469 0.49478 -0.06000
C 	C 	0.95071 0.49437 0.03492 -0.13500
C 	C 	0.96920 0.27150 0.88370 0.14000
C 	C 	0.94752 0.61038 0.52739 -0.21400
C 	C 	0.95072 0.39554 0.99773 0.25500
C 	C 	0.97869 0.20948 0.86556 -0.10300
C 	C 	0.96663 0.13886 0.74662 0.26600
C 	C 	0.97170 0.14596 0.81981 0.24900
C 	C 	0.94281 0.71035 0.71825 0.07400
Ni	Ni	0.94075 0.04744 0.28366 1.09400
F 	F 	0.96894 0.69377 0.56864 -0.43700
C 	C 	0.97787 0.24193 0.70851 -0.09500
N 	N 	0.99688 0.27515 0.90964 -0.22800
H 	H 	0.99268 0.32270 0.92321 0.14000
Ni	Ni	0.96880 0.86405 0.28869 1.10100
N 	N 	0.98530 0.30425 0.66466 -0.22100
H 	H 	0.95937 0.60469 0.69555 0.04600
H 	H 	0.00692 0.16383 0.87247 0.09500
C 	C 	0.98701 0.58020 0.07955 0.17200
O 	O 	0.96271 0.81256 0.79522 -0.39500
C 	C 	0.97088 0.44340 0.45154 -0.13100
H 	H 	0.95907 0.43580 0.43008 0.10200
C 	C 	0.00488 0.58203 0.05184 0.15700
H 	H 	0.02565 0.23245 0.91628 0.14400
H 	H 	0.00305 0.27401 0.29249 0.09700
C 	C 	0.00127 0.46498 0.01754 0.00000
F 	F 	0.00092 0.37753 0.97875 -0.38500
