data_crystal

_cell_length_a 26.17478
_cell_length_b 26.53285
_cell_length_c 22.31324
_cell_angle_alpha 95.51633
_cell_angle_beta  95.51619
_cell_angle_gamma 125.83502

_symmetry_space_group_name_	'P 1'
_symmetry_space_group_name_H-M	'P 1'

loop_
_symmetry_equiv_pos_as_xyz
  x,y,z

loop_
_atom_site_label
_atom_site_type_symbol
_atom_site_fract_x
_atom_site_fract_y
_atom_site_fract_z
_atom_site_charge
C 	C 	0.03316 0.06562 0.98236 -0.07300
C 	C 	0.06646 0.03947 0.97621 0.02800
C 	C 	0.00391 0.04450 0.45041 -0.07300
C 	C 	0.03341 0.01433 0.45457 0.02700
H 	H 	0.03295 0.09530 0.45275 0.04800
C 	C 	0.20569 0.07931 0.51189 -0.03900
C 	C 	0.13984 0.04803 0.50875 -0.03900
C 	C 	0.10380 0.05124 0.46048 -0.00200
H 	H 	0.23275 0.07537 0.54857 0.03600
C 	C 	0.22251 0.10207 0.92425 -0.03900
C 	C 	0.15754 0.07467 0.92202 -0.03900
C 	C 	0.13569 0.08022 0.97552 -0.00100
H 	H 	0.23856 0.09581 0.88309 0.03700
C 	C 	0.13461 0.08750 0.41637 -0.03900
H 	H 	0.12373 0.04688 0.87931 0.03700
H 	H 	0.11667 0.02070 0.54338 0.03600
H 	H 	0.10728 0.09017 0.37884 0.03700
H 	H 	0.05830 0.11621 0.98600 0.04800
C 	C 	0.20060 0.11949 0.42000 -0.03900
C 	C 	0.23632 0.11483 0.46728 -0.00100
H 	H 	0.22390 0.14744 0.38577 0.03700
C 	C 	0.26628 0.13562 0.97994 -0.00000
C 	C 	0.17992 0.11641 0.03055 -0.04000
C 	C 	0.24500 0.14403 0.03277 -0.04000
H 	H 	0.16351 0.12094 0.07209 0.03700
H 	H 	0.27863 0.17084 0.07575 0.03700
H 	H 	0.29235 0.10022 0.37781 0.04400
C 	C 	0.96725 0.02616 0.98378 0.02700
C 	C 	0.93695 0.00924 0.44369 0.02600
C 	C 	0.85177 0.07990 0.48510 -0.03900
C 	C 	0.91105 0.07235 0.39020 -0.03900
C 	C 	0.90633 0.04147 0.43942 -0.00200
C 	C 	0.87607 0.04494 0.48657 -0.03900
H 	H 	0.93424 0.06988 0.35353 0.03700
H 	H 	0.87250 0.02160 0.52491 0.03600
H 	H 	0.82940 0.08306 0.52223 0.03400
H 	H 	0.73481 0.07070 0.43499 0.04400
C 	C 	0.85881 0.06257 0.03995 -0.04000
C 	C 	0.92124 0.07774 0.94053 -0.03900
C 	C 	0.93138 0.05279 0.98904 -0.00100
C 	C 	0.90096 0.04646 0.03931 -0.04000
H 	H 	0.94440 0.08272 0.90149 0.03600
H 	H 	0.90865 0.02741 0.07707 0.03700
C 	C 	0.74648 0.06847 0.94277 -0.06900
H 	H 	0.73689 0.03096 0.90810 0.04300
H 	H 	0.33253 0.10526 0.04868 0.04400
H 	H 	0.66465 0.06208 0.90197 0.02600
C 	C 	0.84698 0.08549 0.99047 -0.00100
H 	H 	0.83449 0.05618 0.07833 0.03800
C 	C 	0.70546 0.08609 0.93938 0.00900
C 	C 	0.87926 0.09410 0.94126 -0.03900
C 	C 	0.85732 0.11157 0.43634 -0.00200
C 	C 	0.88662 0.10721 0.38865 -0.03900
O 	O 	0.65136 0.15133 0.91799 -0.43000
C 	C 	0.83290 0.14972 0.43566 0.02600
H 	H 	0.89070 0.13102 0.35058 0.03800
C 	C 	0.76803 0.12130 0.43709 -0.06900
C 	C 	0.74622 0.15834 0.44298 0.01400
H 	H 	0.69635 0.13601 0.44561 0.02600
C 	C 	0.30552 0.14627 0.46939 0.02600
C 	C 	0.32672 0.13439 0.41815 -0.06800
C 	C 	0.80057 0.10019 0.98996 0.02600
H 	H 	0.87119 0.11267 0.90328 0.03400
C 	C 	0.71842 0.13601 0.98298 -0.09600
C 	C 	0.36134 0.14030 0.02157 -0.06800
C 	C 	0.33411 0.16093 0.98313 0.02600
C 	C 	0.42603 0.16537 0.02554 0.01000
H 	H 	0.44696 0.15034 0.05655 0.03200
C 	C 	0.39235 0.16753 0.41839 0.01300
H 	H 	0.40821 0.15925 0.37798 0.02000
C 	C 	0.68281 0.16290 0.97301 0.28800
C 	C 	0.81137 0.14729 0.03562 -0.06900
O 	O 	0.55671 0.21174 0.01100 -0.37000
O 	O 	0.69557 0.20947 0.01453 -0.37400
C 	C 	0.78900 0.22422 0.44728 -0.09500
C 	C 	0.87512 0.21519 0.43705 -0.06800
C 	C 	0.43741 0.21213 0.47017 -0.09000
C 	C 	0.35060 0.18964 0.52187 -0.06800
H 	H 	0.33482 0.19918 0.56169 0.04500
C 	C 	0.77035 0.16487 0.03243 0.01100
H 	H 	0.85251 0.17144 0.07271 0.04500
C 	C 	0.37157 0.20548 0.94748 -0.06800
C 	C 	0.46400 0.21127 0.99110 -0.09000
H 	H 	0.35087 0.22136 0.91736 0.04400
Cu	Cu	0.67811 0.21939 0.87721 0.87100
C 	C 	0.53379 0.24352 0.00073 0.28000
H 	H 	0.59178 0.22628 0.90256 0.15600
O 	O 	0.73037 0.24953 0.50374 -0.44600
H 	H 	0.61386 0.24094 0.42461 0.16200
H 	H 	0.62138 0.23131 0.19617 0.07700
H 	H 	0.92524 0.23760 0.43566 0.04400
C 	C 	0.41627 0.22216 0.52237 0.01600
H 	H 	0.78040 0.20251 0.06720 0.03800
C 	C 	0.43607 0.23036 0.95124 0.01100
Cu	Cu	0.64987 0.24935 0.01041 0.92300
O 	O 	0.63772 0.25062 0.92130 -0.63000
O 	O 	0.54795 0.26339 0.51441 -0.38400
C 	C 	0.50600 0.25259 0.46724 0.29000
C 	C 	0.76828 0.26402 0.46381 0.28900
C 	C 	0.85319 0.25226 0.44261 0.01300
H 	H 	0.45069 0.25671 0.56251 0.03400
H 	H 	0.46457 0.26509 0.92375 0.02900
O 	O 	0.66855 0.26107 0.09794 -0.36900
C 	C 	0.65237 0.28109 0.19295 -0.11400
O 	O 	0.63586 0.28711 0.43528 -0.63700
O 	O 	0.52431 0.28737 0.42422 -0.39300
O 	O 	0.73026 0.29438 0.84265 -0.44700
C 	C 	0.03389 0.97412 0.97161 -0.07300
H 	H 	0.05966 0.95396 0.96700 0.05000
H 	H 	0.01838 0.92520 0.45487 0.04900
C 	C 	0.96834 0.93479 0.97336 0.02900
C 	C 	0.93504 0.96079 0.97926 -0.07200
H 	H 	0.88418 0.93027 0.98042 0.04900
C 	C 	0.99578 0.94876 0.45240 -0.07100
C 	C 	0.92902 0.91340 0.44675 0.02800
C 	C 	0.89951 0.94359 0.44202 -0.07200
H 	H 	0.84783 0.91625 0.43726 0.04900
Cu	Cu	0.68294 0.34362 0.92438 0.91000
Cu	Cu	0.66306 0.37552 0.05148 0.89400
C 	C 	0.66137 0.29589 0.13748 0.31500
C 	C 	0.70430 0.31518 0.80983 0.31700
O 	O 	0.70361 0.34761 0.01008 -0.63900
O 	O 	0.68011 0.35280 0.12983 -0.39000
O 	O 	0.73295 0.43417 0.93096 -0.37800
C 	C 	0.73111 0.47177 0.97248 0.29000
O 	O 	0.57184 0.30171 0.99149 -0.39200
O 	O 	0.68971 0.44874 0.01006 -0.39700
O 	O 	0.67535 0.33568 0.83609 -0.38600
H 	H 	0.75032 0.37278 0.02581 0.16100
Cu	Cu	0.73536 0.34610 0.43292 0.92500
Cu	Cu	0.74875 0.31329 0.56794 0.86600
Cu	Cu	0.64026 0.31598 0.51948 0.89500
Cu	Cu	0.60065 0.31697 0.38556 0.89400
C 	C 	0.68524 0.31982 0.30387 0.31700
O 	O 	0.76456 0.43394 0.42346 -0.37100
C 	C 	0.68975 0.34028 0.65176 0.30900
O 	O 	0.73440 0.36317 0.52082 -0.64100
O 	O 	0.78837 0.31444 0.43968 -0.37300
O 	O 	0.62623 0.29770 0.31024 -0.39100
C 	C 	0.72818 0.45254 0.42903 0.28400
O 	O 	0.66955 0.41285 0.43852 -0.39000
O 	O 	0.72382 0.31992 0.34671 -0.37100
O 	O 	0.64801 0.33641 0.60919 -0.38500
O 	O 	0.74453 0.35423 0.63980 -0.42400
H 	H 	0.75989 0.40856 0.53970 0.17300
C 	C 	0.67851 0.33494 0.70908 -0.12300
C 	C 	0.71506 0.32274 0.75279 -0.13300
H 	H 	0.63717 0.33117 0.72086 0.08100
H 	H 	0.74677 0.31310 0.73602 0.06100
C 	C 	0.70025 0.32661 0.24815 -0.11600
H 	H 	0.75065 0.35547 0.24449 0.07800
C 	C 	0.86777 0.75841 0.49664 -0.03900
C 	C 	0.83309 0.71542 0.44089 -0.00100
C 	C 	0.82521 0.73704 0.38825 -0.03900
C 	C 	0.85369 0.80145 0.39090 -0.03800
C 	C 	0.89034 0.84473 0.44615 -0.00200
C 	C 	0.89628 0.82276 0.49924 -0.03900
C 	C 	0.80636 0.64807 0.43733 0.02600
H 	H 	0.79828 0.70421 0.34505 0.03700
H 	H 	0.84900 0.81796 0.34963 0.03800
H 	H 	0.92443 0.85581 0.54212 0.03700
H 	H 	0.87343 0.74209 0.53770 0.03800
C 	C 	0.84736 0.63105 0.45028 -0.06700
C 	C 	0.82206 0.56734 0.44741 0.01300
C 	C 	0.75542 0.51998 0.43152 -0.09000
C 	C 	0.71453 0.53718 0.41819 0.01200
C 	C 	0.73989 0.60086 0.42116 -0.06700
H 	H 	0.89880 0.66716 0.46254 0.04500
H 	H 	0.85423 0.55498 0.45807 0.03100
H 	H 	0.66312 0.50121 0.40526 0.02700
H 	H 	0.70785 0.61350 0.41111 0.04400
H 	H 	0.88667 0.30300 0.44579 0.02800
C 	C 	0.92170 0.77961 0.01262 -0.04000
C 	C 	0.87025 0.73614 0.96440 0.00000
C 	C 	0.85162 0.75799 0.91859 -0.03900
C 	C 	0.88385 0.82290 0.92133 -0.03800
C 	C 	0.93478 0.86639 0.97002 -0.00100
C 	C 	0.95378 0.84450 0.01550 -0.03900
C 	C 	0.83374 0.66790 0.96374 0.02700
H 	H 	0.81193 0.72465 0.88118 0.03900
H 	H 	0.86921 0.83943 0.88577 0.03800
H 	H 	0.99301 0.87777 0.05331 0.03800
H 	H 	0.93614 0.76305 0.04832 0.03800
C 	C 	0.86196 0.63720 0.95306 -0.06700
C 	C 	0.82814 0.57288 0.95515 0.01500
C 	C 	0.76599 0.53893 0.96829 -0.08800
C 	C 	0.73755 0.56963 0.97816 0.01500
C 	C 	0.77129 0.63380 0.97584 -0.06700
H 	H 	0.91020 0.66328 0.94359 0.04500
H 	H 	0.85057 0.54969 0.94750 0.03000
H 	H 	0.68927 0.54374 0.98748 0.03200
H 	H 	0.74920 0.65723 0.98410 0.04500
