data_crystal

_cell_length_a 24.03857
_cell_length_b 19.37137
_cell_length_c 50.98104
_cell_angle_alpha 90.55253
_cell_angle_beta  91.18764
_cell_angle_gamma 110.71728

_symmetry_space_group_name_	'P 1'
_symmetry_space_group_name_H-M	'P 1'

loop_
_symmetry_equiv_pos_as_xyz
  x,y,z

loop_
_atom_site_label
_atom_site_type_symbol
_atom_site_fract_x
_atom_site_fract_y
_atom_site_fract_z
_atom_site_charge
C 	C 	0.05095 0.90516 0.65166 0.25100
H 	H 	0.00533 0.42578 0.42342 0.04400
C 	C 	0.05401 0.86379 0.62788 -0.00200
N 	N 	0.04133 0.11550 0.83160 -0.15000
C 	C 	0.03245 0.04804 0.82103 0.00600
H 	H 	0.04201 0.48147 0.53838 0.03900
N 	N 	0.05953 0.79687 0.62944 -0.15400
Ni	Ni	0.04980 0.93182 0.75259 1.09800
O 	O 	0.04844 0.89985 0.71418 -0.70400
O 	O 	0.05851 0.96868 0.79084 -0.36700
H 	H 	0.05593 0.05424 0.73532 0.15300
H 	H 	0.03838 0.44346 0.29925 0.04800
C 	C 	0.04151 0.46573 0.43445 -0.05300
C 	C 	0.03895 0.47441 0.46188 0.01200
C 	C 	0.04058 0.48014 0.51711 -0.03400
H 	H 	0.06683 0.16535 0.82316 0.08600
H 	H 	0.04241 0.64310 0.03839 0.04600
C 	C 	0.06315 0.03685 0.79756 0.25300
H 	H 	0.06795 0.86307 0.71174 0.15500
C 	C 	0.02067 0.04165 0.20766 0.25700
C 	C 	0.01370 0.29121 0.10239 -0.07000
N 	N 	0.03916 0.92602 0.19996 -0.15300
H 	H 	0.03387 0.80287 0.17121 0.05100
C 	C 	0.04803 0.62158 0.01929 0.00100
Ni	Ni	0.09671 0.99599 0.69837 1.09900
O 	O 	0.10148 0.09555 0.78612 -0.40000
O 	O 	0.10004 0.95466 0.66184 -0.36700
O 	O 	0.08549 0.02946 0.73527 -0.70600
O 	O 	0.00337 0.17777 0.26747 -0.39700
O 	O 	0.02987 0.09212 0.22625 -0.40300
C 	C 	0.03694 0.41579 0.11969 0.08800
H 	H 	0.02791 0.25204 0.09166 0.05200
C 	C 	0.06037 0.99921 0.20570 0.00600
C 	C 	0.01444 0.73788 0.33963 0.01400
H 	H 	0.00512 0.88863 0.37126 0.05900
C 	C 	0.09223 0.51363 0.47616 0.00700
C 	C 	0.09283 0.51448 0.50365 -0.04100
C 	C 	0.06322 0.56613 0.97006 -0.06100
H 	H 	0.07157 0.55279 0.95023 0.04300
C 	C 	0.04637 0.36703 0.10174 0.00400
C 	C 	0.08344 0.91038 0.18864 0.07200
C 	C 	0.07280 0.85264 0.17013 -0.08300
C 	C 	0.00221 0.33889 0.31907 0.07600
C 	C 	0.03886 0.41325 0.31698 -0.08200
C 	C 	0.02833 0.79648 0.35755 0.08300
C 	C 	0.09254 0.50665 0.42121 0.00600
H 	H 	0.09227 0.50400 0.40000 0.04100
H 	H 	0.06529 0.77304 0.64714 0.06500
O 	O 	0.12488 0.90502 0.75658 -0.37900
H 	H 	0.10341 0.74871 0.14030 0.04800
H 	H 	0.14294 0.54087 0.31831 0.04600
H 	H 	0.13389 0.54224 0.51467 0.03900
C 	C 	0.11066 0.59024 0.98819 0.00600
C 	C 	0.10227 0.61393 0.01333 -0.08100
O 	O 	0.16203 0.09456 0.68989 -0.37300
Ni	Ni	0.15473 0.09123 0.75597 1.06900
N 	N 	0.08702 0.47499 0.12348 -0.15300
C 	C 	0.10512 0.39730 0.09471 -0.03900
H 	H 	0.08925 0.52495 0.13223 0.08900
C 	C 	0.11915 0.03090 0.19819 -0.05600
C 	C 	0.06792 0.73305 0.33224 -0.04200
H 	H 	0.07453 0.70425 0.31494 0.04100
C 	C 	0.14348 0.55161 0.43518 -0.07300
C 	C 	0.14417 0.55248 0.46269 -0.01700
C 	C 	0.14593 0.61833 0.03428 0.28000
H 	H 	0.12367 0.38100 0.07756 0.03700
C 	C 	0.13383 0.97402 0.18731 0.01500
C 	C 	0.11218 0.86298 0.14943 0.01300
C 	C 	0.12496 0.80709 0.13673 -0.04400
C 	C 	0.07966 0.44508 0.33758 0.00800
C 	C 	0.01101 0.29631 0.33952 0.02100
C 	C 	0.13161 0.50513 0.33509 -0.03800
N 	N 	0.08770 0.82681 0.36140 -0.15200
O 	O 	0.17856 0.01510 0.77598 -0.38700
C 	C 	0.17604 0.95281 0.76498 0.26900
C 	C 	0.12844 0.46527 0.10778 -0.00400
C 	C 	0.11219 0.78956 0.34563 -0.00300
H 	H 	0.11043 0.87889 0.36982 0.08700
H 	H 	0.18421 0.58545 0.47355 0.04000
H 	H 	0.15362 0.58850 0.98296 0.00800
O 	O 	0.16582 0.67787 0.04938 -0.37900
O 	O 	0.15231 0.55666 0.04194 -0.41100
H 	H 	0.13990 0.08835 0.19304 0.04700
H 	H 	0.00621 0.18162 0.33766 0.05600
C 	C 	0.16255 0.92640 0.14813 0.07400
O 	O 	0.18240 0.64166 0.40188 -0.38100
O 	O 	0.21586 0.09304 0.72724 -0.41400
C 	C 	0.21300 0.11668 0.70322 0.24300
C 	C 	0.19390 0.60179 0.42084 0.28900
O 	O 	0.18849 0.73875 0.10235 -0.36300
O 	O 	0.16922 0.59168 0.09458 -0.36200
C 	C 	0.17427 0.98324 0.16701 -0.07900
C 	C 	0.18281 0.83973 0.12825 0.00100
C 	C 	0.09059 0.40175 0.35718 0.07600
C 	C 	0.05869 0.32559 0.35758 -0.08800
H 	H 	0.21691 0.88204 0.80439 0.05100
O 	O 	0.17545 0.72167 0.35512 -0.37000
C 	C 	0.17137 0.78669 0.35120 0.25100
C 	C 	0.17657 0.52780 0.09690 0.26800
C 	C 	0.17230 0.49509 0.35302 -0.00700
C 	C 	0.22901 0.93199 0.76562 -0.00300
O 	O 	0.03308 0.03534 0.68392 -0.35900
N 	N 	0.20548 0.91213 0.13509 -0.15100
C 	C 	0.24351 0.89712 0.78702 -0.03900
C 	C 	0.21747 0.80017 0.11554 0.25400
H 	H 	0.21323 0.03296 0.16587 0.04500
H 	H 	0.07283 0.28993 0.37023 0.05300
H 	H 	0.24123 0.21013 0.65953 0.08800
C 	C 	0.22491 0.55578 0.36313 0.28200
Ni	Ni	0.22827 0.68562 0.07798 1.09700
O 	O 	0.21843 0.51466 0.08419 -0.41900
N 	N 	0.14674 0.43282 0.36665 -0.15200
O 	O 	0.23774 0.62179 0.35361 -0.39700
O 	O 	0.24886 0.61416 0.42967 -0.42000
O 	O 	0.26007 0.54246 0.38082 -0.39300
Ni	Ni	0.23262 0.54371 0.04604 1.06300
C 	C 	0.26856 0.15145 0.68914 0.00000
O 	O 	0.21514 0.84789 0.35879 -0.40400
Ni	Ni	0.24332 0.70988 0.37703 1.09800
N 	N 	0.27159 0.18612 0.66606 -0.15100
N 	N 	0.27869 0.97172 0.75295 -0.15400
H 	H 	0.28205 0.01697 0.74127 0.08400
H 	H 	0.25089 0.94333 0.13692 0.08200
H 	H 	0.16971 0.40610 0.37784 0.08600
O 	O 	0.28044 0.64581 0.05629 -0.70100
O 	O 	0.27381 0.83684 0.11114 -0.40400
C 	C 	0.30481 0.91691 0.78719 0.00900
H 	H 	0.29541 0.67628 0.04071 0.15000
H 	H 	0.27898 0.66089 0.12056 0.15400
C 	C 	0.32348 0.14847 0.69671 -0.04900
H 	H 	0.32117 0.89848 0.82807 0.05300
C 	C 	0.32498 0.96349 0.76607 0.07800
O 	O 	0.29386 0.69044 0.10477 -0.70400
Ni	Ni	0.31709 0.62052 0.40581 1.06900
H 	H 	0.29493 0.74924 0.33288 0.15700
C 	C 	0.32885 0.20731 0.65897 0.07600
H 	H 	0.33054 0.28673 0.62901 0.05400
H 	H 	0.33665 0.14092 0.71662 0.04200
H 	H 	0.46716 0.63584 0.96021 0.03700
O 	O 	0.30176 0.50319 0.04787 -0.41200
O 	O 	0.30223 0.77160 0.35075 -0.70700
Ni	Ni	0.30523 0.87326 0.35011 1.06200
O 	O 	0.32085 0.71879 0.39461 -0.69900
H 	H 	0.41447 0.61782 0.00130 0.03200
C 	C 	0.34018 0.92499 0.81008 -0.08200
H 	H 	0.32667 0.75079 0.41042 0.15100
H 	H 	0.35330 0.01760 0.41646 0.03300
C 	C 	0.35614 0.26891 0.64341 -0.08300
H 	H 	0.34305 0.88682 0.03099 0.03300
O 	O 	0.32381 0.89223 0.38950 -0.41200
C 	C 	0.36194 0.18443 0.67735 0.01000
Ni	Ni	0.34595 0.65017 0.08334 1.09700
Ni	Ni	0.34185 0.79399 0.11359 1.06200
O 	O 	0.35479 0.82462 0.07554 -0.41500
C 	C 	0.46463 0.57886 0.96040 -0.04300
C 	C 	0.41409 0.56167 0.00193 -0.02400
H 	H 	0.51188 0.58892 0.92463 0.03600
C 	C 	0.03175 0.75760 0.60802 0.06900
C 	C 	0.35682 0.54377 0.04289 0.27400
C 	C 	0.38182 0.01871 0.76706 -0.08700
C 	C 	0.48979 0.55210 0.94012 -0.04300
H 	H 	0.39409 0.06250 0.75285 0.04900
O 	O 	0.38814 0.62426 0.38286 -0.41600
H 	H 	0.39549 0.09509 0.45536 0.04000
C 	C 	0.38681 0.88957 0.02507 -0.00100
H 	H 	0.39052 0.96646 0.99484 0.04200
C 	C 	0.43763 0.53326 0.98118 0.00700
C 	C 	0.39930 0.97411 0.80973 0.07600
C 	C 	0.38376 0.00342 0.42941 -0.00600
Ni	Ni	0.37904 0.77072 0.36596 1.10100
C 	C 	0.38736 0.80104 0.06013 0.28100
C 	C 	0.37497 0.89575 0.40017 0.28000
O 	O 	0.38698 0.59815 0.05901 -0.36400
C 	C 	0.41767 0.30658 0.64697 0.01000
C 	C 	0.38871 0.51725 0.02316 -0.07500
O 	O 	0.40305 0.74528 0.06708 -0.37000
C 	C 	0.42304 0.22271 0.68129 -0.08500
C 	C 	0.41981 0.01981 0.78841 0.00900
O 	O 	0.39338 0.92027 0.34064 -0.39800
C 	C 	0.41002 0.04956 0.45094 -0.04800
C 	C 	0.41488 0.93710 0.00508 -0.05200
C 	C 	0.39719 0.93977 0.42446 -0.06600
C 	C 	0.41458 0.84518 0.03722 -0.07500
N 	N 	0.43028 0.00587 0.83166 -0.15500
H 	H 	0.41653 0.99147 0.85081 0.09300
O 	O 	0.40958 0.86707 0.38800 -0.36900
O 	O 	0.40860 0.66001 0.11205 -0.37600
H 	H 	0.47222 0.18191 0.47243 0.04100
C 	C 	0.45077 0.28301 0.66520 0.07300
H 	H 	0.44854 0.20475 0.69569 0.04600
H 	H 	0.44084 0.34168 0.60683 0.05400
O 	O 	0.43096 0.82679 0.33662 -0.36800
C 	C 	0.42352 0.88644 0.32725 0.24800
C 	C 	0.48616 0.47825 0.93957 0.00700
C 	C 	0.00587 0.56155 0.97754 0.02400
C 	C 	0.45558 0.33885 0.62690 -0.04100
C 	C 	0.44032 0.67574 0.38746 0.27300
O 	O 	0.42290 0.78234 0.11734 -0.40100
H 	H 	0.45612 0.07017 0.98259 0.04100
C 	C 	0.43491 0.45885 0.98148 0.00400
H 	H 	0.53670 0.49004 0.90432 0.04000
O 	O 	0.44852 0.74434 0.38139 -0.37000
C 	C 	0.43108 0.72222 0.12571 0.25400
C 	C 	0.38974 0.44549 0.02445 0.00400
C 	C 	0.46470 0.08257 0.79800 -0.06000
C 	C 	0.46875 0.07244 0.82475 0.00600
C 	C 	0.45217 0.03406 0.46730 -0.00500
C 	C 	0.43419 0.91992 0.44216 -0.02300
H 	H 	0.47201 0.55567 0.38583 0.03300
C 	C 	0.45611 0.42981 0.95954 0.00200
C 	C 	0.51235 0.45228 0.91918 -0.02500
H 	H 	0.01626 0.15559 0.66954 0.09600
H 	H 	0.44683 0.83945 0.27957 0.07600
C 	C 	0.48898 0.15833 0.48852 -0.05500
C 	C 	0.47246 0.94277 0.99747 0.00300
C 	C 	0.46928 0.84524 0.02807 -0.02000
C 	C 	0.02329 0.86798 0.60489 -0.04000
C 	C 	0.46404 0.92777 0.30709 -0.00200
C 	C 	0.48813 0.05529 0.97147 -0.05800
C 	C 	0.41408 0.41701 0.00418 -0.05400
H 	H 	0.37212 0.41185 0.04131 0.03500
H 	H 	0.44243 0.86891 0.43900 0.03500
C 	C 	0.49115 0.59170 0.40259 -0.00100
C 	C 	0.48332 0.65969 0.40497 -0.08500
H 	H 	0.48039 0.13548 0.78846 0.04000
N 	N 	0.47099 0.89464 0.28456 -0.15300
C 	C 	0.46060 0.96578 0.46390 0.01800
C 	C 	0.48442 0.08358 0.48776 0.01000
N 	N 	0.50695 0.29983 0.65716 -0.15400
H 	H 	0.48997 0.80916 0.03680 0.05100
H 	H 	0.50232 0.14561 0.94523 0.03600
C 	C 	0.47914 0.73055 0.14528 -0.00500
H 	H 	0.50084 0.75798 0.42883 0.03800
C 	C 	0.51020 0.33352 0.63384 0.00100
C 	C 	0.49769 0.89254 0.00786 0.00900
C 	C 	0.50409 0.99426 0.97846 0.00900
C 	C 	0.51883 0.11673 0.84174 0.25000
C 	C 	0.50756 0.70566 0.42686 -0.02500
C 	C 	0.51612 0.10015 0.95080 0.00300
C 	C 	0.49448 0.94354 0.48243 -0.04600
H 	H 	0.52235 0.26196 0.50951 0.03700
C 	C 	0.51947 0.56713 0.42264 -0.05500
H 	H 	0.51883 0.51120 0.42136 0.03900
C 	C 	0.50862 0.37830 0.91827 -0.07500
H 	H 	0.50001 0.89064 0.48021 0.03600
C 	C 	0.51933 0.20482 0.50932 0.00100
O 	O 	0.52451 0.18537 0.84750 -0.37300
H 	H 	0.50207 0.84540 0.15287 0.07900
C 	C 	0.51556 0.98722 0.31354 -0.03900
C 	C 	0.51644 0.05878 0.50684 -0.00100
H 	H 	0.53497 0.27170 0.66301 0.06500
C 	C 	0.44637 0.35364 0.95658 -0.05300
H 	H 	0.41892 0.36416 0.00684 0.04000
O 	O 	0.52902 0.28714 0.89097 -0.36300
N 	N 	0.51059 0.79693 0.15644 -0.15300
H 	H 	0.50646 0.63998 0.13162 0.05500
H 	H 	0.52852 0.00792 0.33341 0.04700
C 	C 	0.52051 0.98858 0.50415 -0.03200
C 	C 	0.53530 0.68120 0.44741 0.00600
C 	C 	0.51281 0.68499 0.14551 -0.04400
C 	C 	0.52665 0.93135 0.27668 0.06800
O 	O 	0.54551 0.08193 0.85673 -0.40100
C 	C 	0.54299 0.61208 0.44516 0.00200
H 	H 	0.54548 0.77539 0.47270 0.03600
H 	H 	0.41611 0.31332 0.96899 0.04000
C 	C 	0.54669 0.35535 0.90028 0.27100
C 	C 	0.55364 0.33190 0.61423 0.24800
C 	C 	0.54727 0.17859 0.52931 -0.07600
C 	C 	0.55113 0.72246 0.47093 -0.04400
C 	C 	0.47380 0.32867 0.93649 -0.00300
O 	O 	0.55364 0.15996 0.90050 -0.37000
O 	O 	0.55913 0.26756 0.60847 -0.39700
H 	H 	0.53691 0.85252 0.24836 0.04800
C 	C 	0.54608 0.10561 0.52790 -0.01600
H 	H 	0.54542 0.96965 0.51856 0.03600
C 	C 	0.55019 0.88886 0.99751 -0.04100
C 	C 	0.55476 0.98625 0.96710 0.01200
C 	C 	0.56171 0.08654 0.93738 -0.07300
O 	O 	0.56837 0.28922 0.55606 -0.37100
O 	O 	0.57352 0.38795 0.59809 -0.37200
C 	C 	0.55567 0.98936 0.29421 0.02300
C 	C 	0.56932 0.58701 0.46657 0.00700
C 	C 	0.57127 0.69416 0.49270 -0.04000
H 	H 	0.01493 0.64794 0.62324 0.04700
C 	C 	0.55905 0.89684 0.26228 -0.07800
C 	C 	0.57947 0.62619 0.49088 0.00300
H 	H 	0.56873 0.08550 0.54296 0.04000
H 	H 	0.58077 0.72544 0.51103 0.03700
C 	C 	0.57908 0.22823 0.55134 0.28200
C 	C 	0.58684 0.52493 0.46418 -0.05800
H 	H 	0.58966 0.50128 0.44521 0.03800
H 	H 	0.56924 0.84985 0.00514 0.04000
C 	C 	0.58506 0.12674 0.91312 0.28300
C 	C 	0.57744 0.93372 0.97678 -0.04200
Ni	Ni	0.58789 0.24442 0.87436 1.09600
C 	C 	0.56732 0.72662 0.15689 0.01000
C 	C 	0.58259 0.03148 0.94632 -0.02600
C 	C 	0.56466 0.79566 0.16298 0.07300
O 	O 	0.59686 0.44417 0.54518 -0.37300
C 	C 	0.59882 0.59738 0.51300 -0.01100
H 	H 	0.46859 0.27083 0.93535 0.03700
O 	O 	0.59350 0.40576 0.89063 -0.41100
C 	C 	0.61015 0.53153 0.51083 -0.08900
C 	C 	0.60522 0.49630 0.48635 0.00100
H 	H 	0.61743 0.44777 0.48435 -0.00300
H 	H 	0.60547 0.62638 0.53178 0.03500
O 	O 	0.61615 0.20985 0.56658 -0.41400
C 	C 	0.61747 0.01214 0.29886 -0.10600
H 	H 	0.61689 0.92835 0.96847 0.03900
C 	C 	0.63256 0.50297 0.53355 0.27600
H 	H 	0.61974 0.02300 0.93689 0.04200
Ni	Ni	0.63579 0.11281 0.86212 1.06100
O 	O 	0.63042 0.11726 0.90194 -0.42200
Ni	Ni	0.63173 0.38604 0.57000 1.10000
H 	H 	0.62342 0.66507 0.14591 0.05100
C 	C 	0.62004 0.91761 0.26794 0.00500
Ni	Ni	0.63858 0.25173 0.60375 1.06300
C 	C 	0.62126 0.71885 0.15033 -0.08400
H 	H 	0.63997 0.05636 0.31276 0.05700
C 	C 	0.61605 0.85928 0.16241 -0.08400
H 	H 	0.61420 0.91312 0.16704 0.05100
O 	O 	0.65614 0.21999 0.85922 -0.70500
H 	H 	0.64781 0.28297 0.91864 0.15200
O 	O 	0.65570 0.29948 0.90033 -0.70300
H 	H 	0.66441 0.23695 0.84097 0.15300
C 	C 	0.64879 0.97415 0.28567 0.09800
H 	H 	0.67346 0.33110 0.53221 0.15400
C 	C 	0.66220 0.91324 0.25067 -0.04600
H 	H 	0.65311 0.88625 0.23153 0.04500
Ni	Ni	0.67902 0.40723 0.89786 1.06400
O 	O 	0.68446 0.35120 0.59284 -0.70400
O 	O 	0.68660 0.40514 0.85833 -0.41600
O 	O 	0.69166 0.37513 0.54369 -0.70100
O 	O 	0.69029 0.52245 0.53730 -0.42100
C 	C 	0.67210 0.78285 0.14928 0.07600
C 	C 	0.66890 0.85194 0.15415 0.01300
H 	H 	0.69683 0.47770 0.80636 0.04200
H 	H 	0.69903 0.38453 0.60831 0.15500
O 	O 	0.71073 0.21546 0.60239 -0.40300
N 	N 	0.70693 0.00406 0.28028 -0.16000
O 	O 	0.72151 0.11204 0.86944 -0.40400
C 	C 	0.71542 0.96798 0.25873 0.00500
Ni	Ni	0.72301 0.27360 0.88548 1.09800
C 	C 	0.73361 0.39792 0.84805 0.26600
Ni	Ni	0.73382 0.45735 0.52142 1.07000
H 	H 	0.00133 0.22175 0.84949 0.05600
N 	N 	0.72746 0.78381 0.15457 -0.15000
C 	C 	0.72499 0.89741 0.16251 -0.04500
H 	H 	0.73601 0.05535 0.28723 0.08700
H 	H 	0.73691 0.14561 0.64721 0.07100
C 	C 	0.74195 0.49520 0.81428 -0.04600
H 	H 	0.73359 0.94568 0.17511 0.03700
H 	H 	0.74982 0.59695 0.77407 0.04800
H 	H 	0.73750 0.73731 0.15969 0.08500
Ni	Ni	0.75113 0.35600 0.56785 1.09900
O 	O 	0.76088 0.35847 0.85989 -0.36500
C 	C 	0.76609 0.25677 0.60899 0.24800
C 	C 	0.76605 0.45081 0.82832 -0.00400
C 	C 	0.00916 0.80031 0.59219 0.01700
O 	O 	0.76903 0.43731 0.90418 -0.40700
C 	C 	0.75990 0.85359 0.16252 -0.00300
C 	C 	0.77191 0.16350 0.86306 0.25800
O 	O 	0.77632 0.39369 0.50594 -0.42100
C 	C 	0.77396 0.96462 0.25263 0.25400
N 	N 	0.77847 0.16190 0.63849 -0.15100
O 	O 	0.78271 0.23326 0.86907 -0.36800
O 	O 	0.77722 0.92014 0.23355 -0.42200
H 	H 	0.78282 0.06638 0.67736 0.04700
O 	O 	0.78529 0.33005 0.91290 -0.38500
O 	O 	0.79177 0.46164 0.58234 -0.38800
H 	H 	0.78412 0.02473 0.85165 0.07700
C 	C 	0.78975 0.58901 0.78134 -0.08300
C 	C 	0.78999 0.55232 0.80489 0.00800
O 	O 	0.79341 0.31862 0.59663 -0.36900
C 	C 	0.79543 0.40018 0.91827 0.28000
C 	C 	0.80206 0.22381 0.62448 -0.00200
H 	H 	0.80622 0.49923 0.95733 0.02300
O 	O 	0.81092 0.51461 0.54208 -0.39300
C 	C 	0.00384 0.68036 0.60818 -0.07700
C 	C 	0.81662 0.51948 0.56774 0.27500
C 	C 	0.81350 0.87115 0.17922 0.26300
O 	O 	0.81641 0.82582 0.19772 -0.39900
O 	O 	0.82119 0.36803 0.54330 -0.37700
C 	C 	0.82241 0.38461 0.51804 0.29100
O 	O 	0.81845 0.99226 0.26991 -0.35600
C 	C 	0.82453 0.14295 0.64677 0.07300
C 	C 	0.82404 0.10458 0.66997 -0.08500
N 	N 	0.82610 0.47983 0.82849 -0.15000
N 	N 	0.82042 0.07050 0.85816 -0.15100
C 	C 	0.82308 0.14135 0.85716 -0.00400
H 	H 	0.83032 0.71079 0.75134 0.08300
O 	O 	0.82726 0.85917 0.27717 -0.40100
Ni	Ni	0.82930 0.85785 0.23714 1.06600
H 	H 	0.83380 0.37667 0.46540 0.03300
C 	C 	0.84087 0.54101 0.81403 0.07800
C 	C 	0.84349 0.61784 0.76802 0.07000
H 	H 	0.85112 0.66632 0.55411 0.08400
C 	C 	0.84794 0.49209 0.95311 -0.02300
C 	C 	0.84959 0.44199 0.93343 -0.07000
H 	H 	0.85431 0.57925 0.99481 0.03700
H 	H 	0.85441 0.45127 0.83338 0.09300
H 	H 	0.86067 0.00617 0.69854 0.04400
N 	N 	0.85826 0.68053 0.75430 -0.15300
O 	O 	0.85990 0.92968 0.17442 -0.36000
C 	C 	0.86226 0.58504 0.57960 -0.00400
C 	C 	0.86329 0.24353 0.62288 -0.04300
H 	H 	0.86395 0.96203 0.84625 0.05400
H 	H 	0.87221 0.10278 0.23388 0.15100
N 	N 	0.87592 0.65241 0.56886 -0.15300
C 	C 	0.99541 0.10737 0.84744 0.07100
H 	H 	0.99403 0.89488 0.19684 0.07300
C 	C 	0.99356 0.39039 0.13878 -0.09600
C 	C 	0.99044 0.83669 0.36038 -0.09400
H 	H 	0.99251 0.42530 0.15536 0.04900
C 	C 	0.99029 0.22392 0.33044 -0.05800
Ni	Ni	0.98214 0.16141 0.22757 1.06000
O 	O 	0.97752 0.16708 0.18765 -0.40200
H 	H 	0.98090 0.31392 0.27873 0.06100
C 	C 	0.96956 0.22578 0.30493 0.00300
C 	C 	0.96290 0.16725 0.28545 0.24200
N 	N 	0.97715 0.29563 0.29807 -0.15700
C 	C 	0.96383 0.71977 0.32311 -0.08800
H 	H 	0.95885 0.68400 0.30607 0.04600
C 	C 	0.96586 0.26688 0.11952 0.06600
H 	H 	0.96294 0.15720 0.12373 0.09200
C 	C 	0.93618 0.81276 0.34611 0.01400
H 	H 	0.92374 0.91836 0.34275 0.05600
C 	C 	0.90880 0.86027 0.33731 -0.04200
C 	C 	0.92353 0.75622 0.32729 0.07200
O 	O 	0.99874 0.82657 0.76299 -0.36500
O 	O 	0.92756 0.82077 0.73166 -0.40700
Ni	Ni	0.96993 0.86594 0.69729 1.06400
O 	O 	0.95378 0.96003 0.70630 -0.40700
C 	C 	0.98133 0.02284 0.69482 0.24800
C 	C 	0.95109 0.78785 0.74883 0.24600
O 	O 	0.99813 0.90042 0.66038 -0.40200
Ni	Ni	0.90780 0.01614 0.26267 1.09100
O 	O 	0.90473 0.08288 0.23243 -0.71200
Ni	Ni	0.89102 0.01285 0.20186 1.09400
O 	O 	0.92538 0.10045 0.28986 -0.36400
O 	O 	0.88649 0.08574 0.17404 -0.37300
O 	O 	0.90021 0.94657 0.23186 -0.69300
O 	O 	0.91345 0.94784 0.29169 -0.37900
H 	H 	0.93596 0.93278 0.23081 0.15200
C 	C 	0.92719 0.15259 0.17403 0.25000
C 	C 	0.87561 0.87983 0.29229 0.26000
O 	O 	0.97623 0.02882 0.19068 -0.36900
C 	C 	0.95566 0.31607 0.13725 0.01800
N 	N 	0.94642 0.19830 0.12923 -0.14800
C 	C 	0.92485 0.20301 0.15319 0.00300
C 	C 	0.92968 0.27536 0.15876 -0.05700
H 	H 	0.93327 0.29830 0.17847 0.02500
N 	N 	0.88952 0.76752 0.30769 -0.15300
C 	C 	0.88147 0.83157 0.31330 -0.00300
H 	H 	0.88795 0.74644 0.28860 0.06000
C 	C 	0.98617 0.44770 0.50335 0.00400
C 	C 	0.98457 0.44533 0.47551 0.00000
C 	C 	0.92866 0.42022 0.46211 -0.05200
C 	C 	0.87610 0.39526 0.47607 0.00100
C 	C 	0.87779 0.39794 0.50357 -0.07300
C 	C 	0.93292 0.42215 0.51714 -0.01500
H 	H 	0.92521 0.42423 0.44108 0.04000
H 	H 	0.93439 0.42515 0.53842 0.04800
C 	C 	0.93171 0.16474 0.67346 0.07400
C 	C 	0.93171 0.20532 0.65080 -0.08500
C 	C 	0.87751 0.19185 0.63731 0.01100
C 	C 	0.87852 0.11639 0.68318 0.00800
N 	N 	0.97683 0.14185 0.67991 -0.15700
C 	C 	0.95301 0.07875 0.69334 -0.00400
C 	C 	0.89215 0.06160 0.69595 -0.04800
H 	H 	0.97282 0.24362 0.64336 0.05100
H 	H 	0.89386 0.29811 0.61834 0.05000
C 	C 	0.95686 0.64765 0.59014 0.00200
C 	C 	0.93346 0.69028 0.57492 0.08000
C 	C 	0.95725 0.76750 0.57671 -0.09100
C 	C 	0.91115 0.58111 0.59374 -0.04200
H 	H 	0.93355 0.80054 0.56822 0.05400
H 	H 	0.99771 0.90384 0.60257 0.04900
H 	H 	0.91705 0.53072 0.59989 0.04700
C 	C 	0.90302 0.43138 0.92828 0.00500
C 	C 	0.95477 0.47038 0.94264 -0.04900
C 	C 	0.95425 0.52253 0.96210 -0.00600
C 	C 	0.89945 0.53044 0.96816 0.01400
C 	C 	0.89602 0.57280 0.99015 -0.04700
C 	C 	0.94529 0.60343 0.00706 -0.03200
C 	C 	0.99981 0.59635 0.00128 -0.01000
H 	H 	0.90432 0.39204 0.91326 0.04200
H 	H 	0.99399 0.45662 0.93955 0.03900
H 	H 	0.94094 0.63242 0.02474 0.03800
C 	C 	0.87696 0.07272 0.86059 0.07500
C 	C 	0.89577 0.01630 0.85128 -0.08900
C 	C 	0.95678 0.03418 0.84697 0.00900
C 	C 	0.97445 0.16478 0.85312 -0.09100
C 	C 	0.91605 0.14551 0.86183 0.01100
C 	C 	0.88178 0.18938 0.85969 -0.04200
C 	C 	0.98016 0.99612 0.82993 -0.04400
H 	H 	0.89779 0.24698 0.85436 0.04900
H 	H 	0.95406 0.94616 0.81922 0.04600
C 	C 	0.89437 0.56894 0.80066 -0.08600
C 	C 	0.89467 0.60723 0.77746 0.01200
C 	C 	0.91833 0.71042 0.75521 -0.00600
C 	C 	0.94260 0.66664 0.76941 -0.05100
H 	H 	0.93422 0.56091 0.80799 0.05200
H 	H 	0.98577 0.68677 0.77936 0.05300
