data_crystal

_cell_length_a 35.10909
_cell_length_b 36.00708
_cell_length_c 33.10117
_cell_angle_alpha 95.54961
_cell_angle_beta  95.54986
_cell_angle_gamma 125.45750

_symmetry_space_group_name_	'P 1'
_symmetry_space_group_name_H-M	'P 1'

loop_
_symmetry_equiv_pos_as_xyz
  x,y,z

loop_
_atom_site_label
_atom_site_type_symbol
_atom_site_fract_x
_atom_site_fract_y
_atom_site_fract_z
_atom_site_charge
C 	C 	0.97231 0.02934 0.99640 0.03200
C 	C 	0.02062 0.05534 0.99345 -0.07800
C 	C 	0.04273 0.03335 0.98881 0.03700
C 	C 	0.01648 0.98532 0.98697 -0.08000
C 	C 	0.96821 0.95920 0.98977 0.03700
C 	C 	0.94620 0.98126 0.99471 -0.07900
H 	H 	0.04083 0.09246 0.99457 0.05000
H 	H 	0.03355 0.96828 0.98326 0.05200
H 	H 	0.90885 0.96108 0.99694 0.05000
C 	C 	0.94447 0.98700 0.44442 0.03000
C 	C 	0.99359 0.01331 0.44483 -0.07200
C 	C 	0.01715 0.99256 0.44749 0.02800
C 	C 	0.99148 0.94534 0.44964 -0.07300
C 	C 	0.94234 0.91880 0.44904 0.03100
C 	C 	0.91884 0.93968 0.44652 -0.07500
H 	H 	0.01335 0.04975 0.44287 0.04900
H 	H 	0.00971 0.92931 0.45193 0.05000
H 	H 	0.88087 0.91926 0.44617 0.05100
Cu	Cu	0.65286 0.27702 0.99931 0.92600
Cu	Cu	0.68750 0.27088 0.91127 0.87100
Cu	Cu	0.68395 0.34942 0.94381 0.89800
Cu	Cu	0.65478 0.36519 0.02263 0.89400
C 	C 	0.67123 0.31893 0.08360 0.25100
O 	O 	0.58368 0.25119 0.99737 -0.36300
C 	C 	0.66485 0.31311 0.85496 0.25500
O 	O 	0.69238 0.34914 0.00157 -0.63800
O 	O 	0.64773 0.28062 0.93991 -0.64000
O 	O 	0.68032 0.24169 0.99908 -0.37300
O 	O 	0.73240 0.28413 0.95790 -0.44000
O 	O 	0.64790 0.33577 0.07209 -0.37400
O 	O 	0.72177 0.41641 0.95200 -0.38200
C 	C 	0.71757 0.44255 0.97935 0.28700
C 	C 	0.56562 0.27054 0.98019 0.28400
O 	O 	0.59410 0.31348 0.97458 -0.39100
O 	O 	0.68285 0.42401 0.00081 -0.39100
O 	O 	0.66785 0.28593 0.05841 -0.33400
C 	C 	0.71960 0.25642 0.98488 0.29000
O 	O 	0.68750 0.35007 0.88485 -0.38300
O 	O 	0.65851 0.27444 0.86122 -0.39700
H 	H 	0.72610 0.36862 0.01584 0.16400
H 	H 	0.61474 0.26294 0.92427 0.17300
Cu	Cu	0.72115 0.32658 0.43888 0.92800
Cu	Cu	0.72286 0.28767 0.52424 0.87100
Cu	Cu	0.64547 0.29542 0.49255 0.89800
Cu	Cu	0.63234 0.32649 0.41356 0.89500
C 	C 	0.69628 0.33107 0.35569 0.26000
O 	O 	0.75091 0.39514 0.44309 -0.36700
C 	C 	0.67944 0.30787 0.58161 0.25600
O 	O 	0.64731 0.28901 0.43489 -0.64000
O 	O 	0.71595 0.32946 0.49780 -0.64200
O 	O 	0.75487 0.29713 0.43741 -0.37300
O 	O 	0.70831 0.24494 0.47629 -0.44100
O 	O 	0.65927 0.33078 0.36173 -0.36400
O 	O 	0.57687 0.25982 0.48291 -0.38100
C 	C 	0.55165 0.26668 0.45666 0.28900
C 	C 	0.73008 0.41314 0.45708 0.28500
O 	O 	0.68565 0.38572 0.46167 -0.38900
O 	O 	0.57242 0.30125 0.43604 -0.39200
O 	O 	0.71299 0.31483 0.38022 -0.35900
C 	C 	0.73746 0.25759 0.44999 0.29000
O 	O 	0.64266 0.28962 0.55114 -0.37900
O 	O 	0.71916 0.31459 0.57484 -0.40000
H 	H 	0.62753 0.25643 0.41991 0.16600
H 	H 	0.73439 0.36126 0.51434 0.17400
C 	C 	0.63258 0.29774 0.74747 0.11500
C 	C 	0.61989 0.26974 0.70888 -0.09000
C 	C 	0.65110 0.28818 0.68102 0.00900
C 	C 	0.69142 0.33335 0.68945 0.11400
C 	C 	0.70335 0.36193 0.72745 -0.09000
C 	C 	0.67229 0.34355 0.75562 0.00800
O 	O 	0.61871 0.27904 0.78268 -0.19400
C 	C 	0.65410 0.31773 0.81262 0.03900
C 	C 	0.68599 0.35628 0.79683 -0.05800
O 	O 	0.70831 0.35101 0.65448 -0.19500
C 	C 	0.67291 0.31250 0.62430 0.04200
C 	C 	0.63899 0.27491 0.63988 -0.06300
H 	H 	0.58829 0.23409 0.70181 0.06300
H 	H 	0.73521 0.39745 0.73453 0.06300
H 	H 	0.72203 0.38387 0.81269 0.05200
H 	H 	0.60472 0.24521 0.62261 0.05300
C 	C 	0.72405 0.32910 0.18482 0.11200
C 	C 	0.72590 0.30989 0.21924 -0.08500
C 	C 	0.73381 0.33431 0.25862 0.00700
C 	C 	0.73163 0.37153 0.26333 0.11800
C 	C 	0.72594 0.38847 0.22865 -0.09100
C 	C 	0.72614 0.36884 0.19001 0.01200
O 	O 	0.70379 0.30286 0.14494 -0.18500
C 	C 	0.69307 0.33022 0.12728 0.04500
C 	C 	0.70633 0.36946 0.15367 -0.06700
O 	O 	0.71875 0.37856 0.30012 -0.19400
C 	C 	0.71351 0.34207 0.31687 0.04500
C 	C 	0.72213 0.31538 0.29249 -0.05400
H 	H 	0.71871 0.27603 0.21530 0.06600
H 	H 	0.71872 0.41397 0.23134 0.06400
H 	H 	0.69192 0.38879 0.14938 0.05000
H 	H 	0.70818 0.27982 0.29420 0.05600
C 	C 	0.91559 0.86902 0.45075 -0.00600
C 	C 	0.89895 0.85323 0.48682 -0.03100
C 	C 	0.87885 0.80714 0.49033 -0.04800
C 	C 	0.87521 0.77662 0.45778 0.02500
C 	C 	0.89036 0.79196 0.42124 -0.04800
C 	C 	0.91049 0.83800 0.41772 -0.03200
C 	C 	0.85782 0.73015 0.46242 -0.02300
C 	C 	0.84341 0.69110 0.46553 -0.00600
C 	C 	0.82687 0.64527 0.46835 0.00100
C 	C 	0.81278 0.60600 0.46996 -0.03100
C 	C 	0.79572 0.55880 0.47085 0.04500
C 	C 	0.75849 0.53128 0.49154 -0.07200
C 	C 	0.73851 0.48413 0.48874 0.01600
C 	C 	0.75546 0.46405 0.46490 -0.09100
C 	C 	0.79427 0.49231 0.44574 0.01800
C 	C 	0.81423 0.53946 0.44869 -0.07100
H 	H 	0.90276 0.87693 0.51249 0.03800
H 	H 	0.86696 0.79546 0.51859 0.04300
H 	H 	0.88739 0.76849 0.39586 0.04400
H 	H 	0.92310 0.84984 0.38972 0.03800
H 	H 	0.74431 0.54611 0.50908 0.05000
H 	H 	0.70927 0.46307 0.50440 0.03300
H 	H 	0.80797 0.47752 0.42745 0.03900
H 	H 	0.84328 0.56065 0.43287 0.05100
C 	C 	0.92002 0.00921 0.44198 -0.00400
C 	C 	0.93221 0.04491 0.47402 -0.03300
C 	C 	0.91170 0.06837 0.47042 -0.04800
C 	C 	0.87887 0.05632 0.43482 0.02400
C 	C 	0.86604 0.02018 0.40305 -0.04700
C 	C 	0.88654 0.99666 0.40662 -0.03300
C 	C 	0.85869 0.08137 0.43083 -0.02300
C 	C 	0.84227 0.10279 0.42816 -0.00700
C 	C 	0.82331 0.12821 0.42597 0.00100
C 	C 	0.80720 0.15003 0.42504 -0.03300
C 	C 	0.78790 0.17611 0.42519 0.04600
C 	C 	0.81779 0.22400 0.42583 -0.07400
C 	C 	0.80062 0.25044 0.43168 0.01800
C 	C 	0.75347 0.22911 0.43723 -0.09800
C 	C 	0.72298 0.18074 0.43444 0.01900
C 	C 	0.74018 0.15439 0.42848 -0.07500
H 	H 	0.95793 0.05478 0.50146 0.03700
H 	H 	0.92162 0.09614 0.49517 0.04300
H 	H 	0.84056 0.01057 0.37549 0.04300
H 	H 	0.87703 0.96927 0.38166 0.03800
H 	H 	0.85467 0.24100 0.42305 0.05000
H 	H 	0.82448 0.28767 0.43357 0.03200
H 	H 	0.68629 0.16372 0.43788 0.02800
H 	H 	0.71674 0.11730 0.42761 0.04900
C 	C 	0.06880 0.02027 0.44796 -0.00400
C 	C 	0.08605 0.00889 0.41615 -0.03100
C 	C 	0.13506 0.03440 0.41716 -0.04800
C 	C 	0.16712 0.07144 0.44990 0.02500
C 	C 	0.14998 0.08310 0.48154 -0.04800
C 	C 	0.10097 0.05760 0.48059 -0.03200
C 	C 	0.21761 0.09721 0.45121 -0.02300
C 	C 	0.25983 0.11865 0.45213 -0.00600
C 	C 	0.30923 0.14365 0.45307 0.00100
C 	C 	0.35140 0.16498 0.45377 -0.03200
C 	C 	0.40178 0.19056 0.45452 0.04600
C 	C 	0.42483 0.17008 0.46280 -0.07300
C 	C 	0.47373 0.19486 0.46340 0.01800
C 	C 	0.49995 0.24039 0.45572 -0.08900
C 	C 	0.47664 0.26079 0.44742 0.01800
C 	C 	0.42777 0.23593 0.44683 -0.07300
H 	H 	0.06150 0.98027 0.39075 0.03700
H 	H 	0.14807 0.02527 0.39256 0.04300
H 	H 	0.17458 0.11174 0.50693 0.04300
H 	H 	0.08801 0.06657 0.50534 0.03700
H 	H 	0.40490 0.13496 0.46870 0.05000
H 	H 	0.49112 0.17856 0.46956 0.03100
H 	H 	0.49642 0.29602 0.44184 0.03400
H 	H 	0.41015 0.25200 0.44049 0.05000
C 	C 	0.94071 0.90865 0.98724 -0.01100
C 	C 	0.92443 0.88916 0.02208 -0.02700
C 	C 	0.90164 0.84168 0.02061 -0.04500
C 	C 	0.89497 0.81347 0.98431 0.02200
C 	C 	0.91025 0.83269 0.94920 -0.04800
C 	C 	0.93304 0.88015 0.95064 -0.03000
C 	C 	0.87365 0.76509 0.98344 -0.02300
C 	C 	0.85579 0.72459 0.98277 -0.00700
C 	C 	0.83492 0.67722 0.98220 0.00000
C 	C 	0.81691 0.63675 0.98192 -0.03200
C 	C 	0.79496 0.58839 0.98189 0.04200
C 	C 	0.78180 0.57068 0.01799 -0.07000
C 	C 	0.75776 0.52321 0.01744 0.02100
C 	C 	0.74660 0.49303 0.98068 -0.09300
C 	C 	0.76105 0.51110 0.94478 0.02000
C 	C 	0.78509 0.55864 0.94543 -0.07200
H 	H 	0.93025 0.91092 0.05048 0.03800
H 	H 	0.88975 0.82697 0.04782 0.04400
H 	H 	0.90500 0.81102 0.92098 0.04300
H 	H 	0.94533 0.89489 0.92353 0.03700
H 	H 	0.78961 0.59357 0.04636 0.05000
H 	H 	0.74739 0.50981 0.04547 0.02500
H 	H 	0.75261 0.48825 0.91618 0.03700
H 	H 	0.79535 0.57218 0.91743 0.05000
C 	C 	0.94873 0.05225 0.00020 0.00100
C 	C 	0.96380 0.08651 0.03488 -0.03300
C 	C 	0.94176 0.10860 0.03814 -0.04800
C 	C 	0.90457 0.09655 0.00679 0.02900
C 	C 	0.88932 0.06217 0.97227 -0.05100
C 	C 	0.91133 0.04011 0.96895 -0.03600
C 	C 	0.88257 0.11999 0.00956 -0.02400
C 	C 	0.86361 0.13911 0.01118 -0.00500
C 	C 	0.84102 0.16115 0.01202 0.00000
C 	C 	0.82140 0.17967 0.01176 -0.03000
C 	C 	0.79759 0.20140 0.01020 0.04300
C 	C 	0.75002 0.17672 0.01508 -0.07300
C 	C 	0.72500 0.19548 0.00849 0.02300
C 	C 	0.74739 0.23906 0.99676 -0.09900
C 	C 	0.79571 0.26455 0.99370 0.01200
C 	C 	0.82064 0.24571 0.00033 -0.06500
H 	H 	0.99252 0.09598 0.05924 0.03900
H 	H 	0.95371 0.13514 0.06493 0.04400
H 	H 	0.86060 0.05273 0.94790 0.04300
H 	H 	0.89956 0.01382 0.94200 0.03800
H 	H 	0.73204 0.14250 0.02288 0.05100
H 	H 	0.68783 0.17547 0.01115 0.03600
H 	H 	0.81373 0.29857 0.98549 0.03000
H 	H 	0.85753 0.26512 0.99680 0.04400
C 	C 	0.09342 0.06049 0.98582 -0.01100
C 	C 	0.12649 0.06510 0.01726 -0.02700
C 	C 	0.17379 0.08712 0.01275 -0.04500
C 	C 	0.18832 0.10468 0.97682 0.02200
C 	C 	0.15562 0.10110 0.94580 -0.04800
C 	C 	0.10827 0.07909 0.95029 -0.03000
C 	C 	0.23648 0.12530 0.97145 -0.02300
C 	C 	0.27699 0.14240 0.96769 -0.00700
C 	C 	0.32465 0.16234 0.96422 0.00100
C 	C 	0.36563 0.17953 0.96220 -0.03200
C 	C 	0.41492 0.20048 0.96105 0.04600
C 	C 	0.43365 0.17584 0.96808 -0.07200
C 	C 	0.48268 0.19808 0.97250 0.01800
C 	C 	0.51341 0.24536 0.97021 -0.09100
C 	C 	0.49411 0.26926 0.96102 0.01600
C 	C 	0.44508 0.24688 0.95657 -0.07300
H 	H 	0.11534 0.05095 0.04484 0.03800
H 	H 	0.19897 0.08999 0.03694 0.04400
H 	H 	0.16669 0.11479 0.91802 0.04300
H 	H 	0.08294 0.07562 0.92584 0.03700
H 	H 	0.41042 0.13978 0.97118 0.05000
H 	H 	0.49678 0.17882 0.97859 0.03500
H 	H 	0.51713 0.30550 0.95854 0.03100
H 	H 	0.43074 0.26602 0.95081 0.05000
