data_crystal

_cell_length_a 20.61987
_cell_length_b 37.03511
_cell_length_c 48.35644
_cell_angle_alpha 104.23984
_cell_angle_beta  116.05951
_cell_angle_gamma 111.03246

_symmetry_space_group_name_	'P 1'
_symmetry_space_group_name_H-M	'P 1'

loop_
_symmetry_equiv_pos_as_xyz
  x,y,z

loop_
_atom_site_label
_atom_site_type_symbol
_atom_site_fract_x
_atom_site_fract_y
_atom_site_fract_z
_atom_site_charge
C 	C 	0.54791 0.12841 0.94440 0.06200
C 	C 	0.56707 0.09559 0.94174 -0.10300
C 	C 	0.64634 0.10509 0.94875 0.06100
C 	C 	0.70695 0.14765 0.95849 -0.10200
C 	C 	0.68689 0.18009 0.95997 0.06200
C 	C 	0.60729 0.17044 0.95303 -0.10100
H 	H 	0.52059 0.06280 0.93452 0.05500
H 	H 	0.76923 0.15539 0.96468 0.05300
H 	H 	0.59221 0.19576 0.95488 0.05700
C 	C 	0.59806 0.15685 0.47532 0.06400
C 	C 	0.64960 0.19600 0.47750 -0.10200
C 	C 	0.72893 0.20619 0.48385 0.06200
C 	C 	0.75611 0.17705 0.48782 -0.10200
C 	C 	0.70319 0.13712 0.48440 0.06200
C 	C 	0.62493 0.12741 0.47874 -0.10200
H 	H 	0.62894 0.21886 0.47505 0.05600
H 	H 	0.81801 0.18525 0.49330 0.05200
H 	H 	0.58449 0.09677 0.47652 0.05600
C 	C 	0.25078 0.20532 0.49154 -0.22600
C 	C 	0.25768 0.21283 0.46675 0.05700
H 	H 	0.23504 0.18567 0.44281 0.03100
C 	C 	0.17902 0.18599 0.95987 -0.18900
C 	C 	0.26339 0.22245 0.98449 0.03700
H 	H 	0.13484 0.18784 0.93807 0.08900
H 	H 	0.31015 0.22066 0.00546 0.02600
C 	C 	0.83778 0.06139 0.46131 -0.18400
C 	C 	0.79881 0.06810 0.47626 0.03600
C 	C 	0.75580 0.09217 0.46822 -0.04900
C 	C 	0.73083 0.10597 0.48772 -0.06400
H 	H 	0.75008 0.10158 0.44802 0.03700
H 	H 	0.82831 0.06822 0.43969 0.06600
H 	H 	0.73183 0.09467 0.50656 0.04200
H 	H 	0.80393 0.05850 0.49632 0.02700
C 	C 	0.40327 0.12368 0.51252 -0.20200
C 	C 	0.41779 0.12547 0.48540 0.03500
C 	C 	0.49832 0.13875 0.49265 -0.04800
C 	C 	0.51546 0.14644 0.46905 -0.06400
H 	H 	0.54832 0.14333 0.51693 0.04200
H 	H 	0.45795 0.14032 0.53975 0.08800
H 	H 	0.46902 0.14634 0.44653 0.04500
H 	H 	0.36636 0.11833 0.46020 0.03500
C 	C 	0.66831 0.07149 0.94885 -0.06300
C 	C 	0.69966 0.06139 0.93115 -0.04800
C 	C 	0.73686 0.03448 0.93718 0.04000
C 	C 	0.79654 0.03806 0.93171 -0.18500
H 	H 	0.72476 0.01652 0.95088 0.02500
H 	H 	0.65950 0.05508 0.96386 0.04300
H 	H 	0.80510 0.05299 0.91586 0.06500
H 	H 	0.70493 0.07636 0.91488 0.03800
C 	C 	0.74837 0.22377 0.96787 -0.06200
H 	H 	0.65792 0.22090 0.92123 0.04300
C 	C 	0.46627 0.11906 0.93881 -0.06100
C 	C 	0.44251 0.10285 0.95695 -0.05200
C 	C 	0.36162 0.09430 0.95184 0.05200
C 	C 	0.35034 0.09243 0.97696 -0.21300
H 	H 	0.31269 0.09130 0.92811 0.03100
H 	H 	0.42759 0.12771 0.92123 0.04500
H 	H 	0.40107 0.09665 0.00084 0.08900
H 	H 	0.48411 0.09697 0.97624 0.04100
Zn	Zn	0.17499 0.08954 0.99570 1.17900
Zn	Zn	0.02739 0.04856 0.92122 1.19700
O 	O 	0.00685 0.03274 0.87334 -0.43700
C 	C 	0.27971 0.08766 0.97406 0.35800
C 	C 	0.15119 0.14598 0.96069 0.36700
O 	O 	0.27495 0.09097 0.00063 -0.49200
O 	O 	0.21617 0.08150 0.94530 -0.34400
O 	O 	0.05824 0.05453 0.96923 -0.77600
O 	O 	0.07513 0.11149 0.93351 -0.46700
O 	O 	0.19666 0.14438 0.98950 -0.46200
O 	O 	0.87022 0.00006 0.93359 -0.49900
C 	C 	0.85818 0.02741 0.95093 0.34700
O 	O 	0.88959 0.03920 0.98405 -0.50700
C 	C 	0.04362 0.01464 0.86415 0.30400
H 	H 	0.06851 0.01112 0.01746 0.17200
Zn	Zn	0.20207 0.10370 0.51664 1.18700
Zn	Zn	0.07350 0.06794 0.43614 1.19900
O 	O 	0.04023 0.05465 0.38672 -0.44000
C 	C 	0.32449 0.10617 0.50467 0.36200
C 	C 	0.21142 0.16423 0.48693 0.38000
O 	O 	0.31396 0.11455 0.52984 -0.48500
O 	O 	0.25724 0.08330 0.47173 -0.34400
O 	O 	0.08925 0.06875 0.48116 -0.78300
O 	O 	0.16902 0.12949 0.45590 -0.46200
O 	O 	0.21926 0.15925 0.51409 -0.47700
O 	O 	0.90389 0.02184 0.45300 -0.48300
C 	C 	0.89624 0.04643 0.47476 0.34200
O 	O 	0.93486 0.05465 0.50754 -0.51200
C 	C 	0.05397 0.02778 0.37001 0.30300
H 	H 	0.10600 0.02121 0.52416 0.15800
N 	N 	0.14612 0.02137 0.72586 -0.08700
N 	N 	0.14331 0.02755 0.75355 -0.08600
C 	C 	0.06752 0.00598 0.74900 0.10600
C 	C 	0.06461 0.01229 0.77971 0.01500
C 	C 	0.12756 0.02283 0.83911 0.01000
C 	C 	0.05401 0.01800 0.83647 -0.08200
C 	C 	0.98745 0.01235 0.80594 -0.00400
C 	C 	0.13279 0.01993 0.81089 -0.05300
H 	H 	0.16717 0.05515 0.63509 0.02200
H 	H 	0.17901 0.05766 0.68852 0.04700
H 	H 	0.18891 0.02247 0.81296 0.04900
H 	H 	0.17998 0.02793 0.86277 0.03700
N 	N 	0.00280 0.02972 0.19902 -0.08500
N 	N 	0.01430 0.03758 0.22973 -0.08300
C 	C 	0.04666 0.02211 0.27921 0.02000
C 	C 	0.99796 0.03575 0.31597 -0.00600
C 	C 	0.05639 0.02971 0.34039 -0.08200
C 	C 	0.99297 0.03189 0.28548 -0.06700
H 	H 	0.94573 0.03522 0.26629 0.04500
H 	H 	0.95444 0.04192 0.31998 0.02300
Zn	Zn	0.94024 0.01157 0.00485 1.19500
O 	O 	0.97760 0.01350 0.04989 -0.47700
Zn	Zn	0.98918 0.02515 0.52224 1.19400
O 	O 	0.03898 0.02344 0.56617 -0.46900
C 	C 	0.99263 0.00944 0.77765 -0.06300
H 	H 	0.93058 0.00881 0.80367 0.02500
C 	C 	0.12527 0.02566 0.63361 0.01400
C 	C 	0.13206 0.02705 0.66394 -0.05100
H 	H 	0.94035 0.00451 0.75405 0.04600
C 	C 	0.11249 0.02183 0.33484 0.00900
C 	C 	0.10764 0.01804 0.30443 -0.05500
H 	H 	0.15911 0.01803 0.35387 0.03500
C 	C 	0.03694 0.01457 0.24583 0.09600
H 	H 	0.15083 0.01157 0.30034 0.04900
Zn	Zn	0.01571 0.00687 0.46251 1.22300
O 	O 	0.04423 0.00718 0.50603 -0.89300
O 	O 	0.98795 0.00629 0.41855 -0.88100
O 	O 	0.07178 0.00133 0.38116 -0.48700
H 	H 	0.27984 0.23326 0.51639 0.09300
H 	H 	0.89152 0.99788 0.12910 0.04300
H 	H 	0.68706 0.24004 0.43979 0.04200
C 	C 	0.01353 0.99859 0.18348 0.11400
H 	H 	0.32321 0.24302 0.43469 0.04400
C 	C 	0.72305 0.24051 0.94495 -0.05200
H 	H 	0.81481 0.24137 0.99025 0.04100
C 	C 	0.78517 0.24800 0.48753 -0.06300
C 	C 	0.29598 0.25819 0.47167 -0.05500
C 	C 	0.75421 0.26045 0.46193 -0.05200
O 	O 	0.07753 0.99661 0.88148 -0.48600
H 	H 	0.87476 0.98933 0.07381 0.02700
C 	C 	0.32115 0.26742 0.45162 -0.05800
C 	C 	0.28930 0.26336 0.98133 -0.04200
H 	H 	0.85296 0.26731 0.50890 0.04000
C 	C 	0.93351 0.99149 0.12398 -0.04700
H 	H 	0.24060 0.26587 0.96186 0.04000
H 	H 	0.30038 0.28372 0.49066 0.04200
H 	H 	0.70957 0.29050 0.41463 0.09000
C 	C 	0.77998 0.28176 0.95178 0.04000
H 	H 	0.69254 0.27366 0.89981 0.09100
C 	C 	0.80880 0.29884 0.46450 0.03900
C 	C 	0.37169 0.29695 0.00178 -0.06900
H 	H 	0.42115 0.29339 0.01965 0.04300
C 	C 	0.99818 0.98905 0.14896 -0.02200
C 	C 	0.34346 0.30986 0.45116 0.06000
C 	C 	0.77480 0.31294 0.43819 -0.21500
C 	C 	0.75193 0.29715 0.92586 -0.21500
H 	H 	0.84459 0.30224 0.97587 0.02900
H 	H 	0.23187 0.30731 0.44573 0.05600
H 	H 	0.45466 0.31911 0.45260 0.05500
H 	H 	0.87621 0.31896 0.48640 0.02900
C 	C 	0.07324 0.99336 0.69279 0.10900
Zn	Zn	0.99241 0.99178 0.95354 1.21000
O 	O 	0.97217 0.98656 0.90956 -0.89300
C 	C 	0.49779 0.39938 0.99999 0.06600
C 	C 	0.45126 0.41966 0.99900 -0.09700
C 	C 	0.37545 0.39851 0.99668 0.05800
C 	C 	0.35035 0.35872 0.99801 -0.10000
C 	C 	0.39698 0.33845 0.99934 0.06700
C 	C 	0.47066 0.35890 0.00033 -0.10700
H 	H 	0.47415 0.45169 0.00018 0.05000
H 	H 	0.29452 0.34355 0.99799 0.05300
H 	H 	0.50733 0.34364 0.00177 0.05700
C 	C 	0.42738 0.36821 0.44438 0.06100
C 	C 	0.37119 0.38281 0.43943 -0.10100
C 	C 	0.30150 0.36127 0.44041 0.06200
C 	C 	0.28804 0.32509 0.44654 -0.10000
C 	C 	0.41334 0.33161 0.45019 -0.09900
H 	H 	0.38012 0.41004 0.43368 0.05500
Zn	Zn	0.17499 0.58954 0.99570 1.17900
Zn	Zn	0.02739 0.54856 0.92122 1.19700
O 	O 	0.07753 0.49661 0.88148 -0.48500
O 	O 	0.00685 0.53274 0.87334 -0.43700
O 	O 	0.07124 0.43331 0.92183 -0.50700
C 	C 	0.27971 0.58766 0.97406 0.35800
O 	O 	0.97217 0.48656 0.90956 -0.89200
C 	C 	0.15120 0.64598 0.96069 0.36700
O 	O 	0.27495 0.59097 0.00063 -0.49200
O 	O 	0.21617 0.58150 0.94530 -0.34400
O 	O 	0.05824 0.55453 0.96923 -0.77600
O 	O 	0.11813 0.48626 0.97395 -0.44800
O 	O 	0.07513 0.61149 0.93351 -0.46700
O 	O 	0.19666 0.64438 0.98950 -0.46200
Zn	Zn	0.81156 0.41175 0.91603 1.17300
Zn	Zn	0.94212 0.43308 0.98339 1.18000
Zn	Zn	0.99241 0.49178 0.95354 1.21000
C 	C 	0.79502 0.33936 0.93387 0.38400
C 	C 	0.73783 0.43210 0.95065 0.35400
O 	O 	0.87022 0.50006 0.93359 -0.49900
Zn	Zn	0.94024 0.51157 0.00485 1.19500
O 	O 	0.86785 0.36864 0.96538 -0.47400
O 	O 	0.76326 0.35084 0.90981 -0.49100
O 	O 	0.73053 0.42309 0.92102 -0.48900
O 	O 	0.81162 0.44645 0.97969 -0.46900
C 	C 	0.97544 0.47991 0.05508 0.31700
O 	O 	0.92360 0.43040 0.93744 -0.79900
C 	C 	0.85818 0.52741 0.95093 0.34700
O 	O 	0.96923 0.44709 0.03300 -0.44100
O 	O 	0.97760 0.51350 0.04989 -0.47800
O 	O 	0.88959 0.53920 0.98405 -0.50700
O 	O 	0.00833 0.49514 0.99682 -0.88100
Zn	Zn	0.02309 0.45939 0.89716 1.18600
C 	C 	0.04362 0.51464 0.86415 0.30300
C 	C 	0.12598 0.45671 0.95609 0.32500
H 	H 	0.06851 0.51112 0.01746 0.17100
H 	H 	0.91016 0.47014 0.89073 0.13400
Zn	Zn	0.20207 0.60370 0.51664 1.18700
Zn	Zn	0.07350 0.56794 0.43614 1.19900
O 	O 	0.07178 0.50133 0.38116 -0.48700
O 	O 	0.04023 0.55465 0.38672 -0.44000
O 	O 	0.04905 0.43501 0.41770 -0.50500
C 	C 	0.32449 0.60617 0.50467 0.36200
O 	O 	0.98795 0.50629 0.41855 -0.88200
C 	C 	0.21142 0.66423 0.48693 0.38000
O 	O 	0.31396 0.61455 0.52984 -0.48500
O 	O 	0.25724 0.58330 0.47173 -0.34400
O 	O 	0.08925 0.56876 0.48116 -0.78300
O 	O 	0.12695 0.49288 0.47225 -0.45000
O 	O 	0.16902 0.62949 0.45590 -0.46200
O 	O 	0.21926 0.65925 0.51409 -0.47700
Zn	Zn	0.83036 0.42746 0.42805 1.17500
Zn	Zn	0.97664 0.44486 0.49084 1.18400
Zn	Zn	0.01571 0.50687 0.46251 1.22200
C 	C 	0.82038 0.35376 0.44397 0.38600
C 	C 	0.78765 0.44946 0.47483 0.36400
O 	O 	0.90389 0.52184 0.45300 -0.48300
Zn	Zn	0.98918 0.52515 0.52224 1.19300
O 	O 	0.90091 0.38077 0.47192 -0.47700
O 	O 	0.78462 0.36567 0.42083 -0.48600
O 	O 	0.76285 0.43991 0.44250 -0.49200
O 	O 	0.86472 0.45938 0.49806 -0.49600
C 	C 	0.04065 0.48902 0.56848 0.31800
O 	O 	0.93977 0.44521 0.44390 -0.80500
C 	C 	0.89624 0.54643 0.47476 0.34200
O 	O 	0.02096 0.45561 0.54169 -0.42700
O 	O 	0.03898 0.52344 0.56617 -0.47000
O 	O 	0.93486 0.55465 0.50754 -0.51200
O 	O 	0.04423 0.50718 0.50603 -0.89300
Zn	Zn	0.01345 0.46828 0.39797 1.18500
C 	C 	0.05397 0.52778 0.37001 0.30300
C 	C 	0.11206 0.45607 0.45116 0.32900
H 	H 	0.10600 0.52122 0.52416 0.15800
H 	H 	0.92824 0.49801 0.40279 0.14600
C 	C 	0.06153 0.48710 0.60112 -0.09600
C 	C 	0.12527 0.52566 0.63361 0.01400
C 	C 	0.13206 0.52705 0.66394 -0.05100
C 	C 	0.07515 0.48983 0.66211 0.00200
C 	C 	0.00906 0.44887 0.59973 0.02600
C 	C 	0.07324 0.49336 0.69279 0.10900
N 	N 	0.14612 0.52137 0.72586 -0.08800
N 	N 	0.14331 0.52754 0.75355 -0.08600
C 	C 	0.06752 0.50598 0.74900 0.10500
N 	N 	0.99477 0.47759 0.71596 -0.09400
N 	N 	0.99755 0.47149 0.68826 -0.09500
C 	C 	0.06461 0.51229 0.77971 0.01600
C 	C 	0.12756 0.52283 0.83911 0.01000
C 	C 	0.05401 0.51800 0.83647 -0.08100
C 	C 	0.98745 0.51235 0.80594 -0.00500
C 	C 	0.99263 0.50944 0.77765 -0.06300
C 	C 	0.01569 0.45023 0.63008 -0.03800
C 	C 	0.13279 0.51993 0.81089 -0.05300
H 	H 	0.16718 0.55515 0.63509 0.02200
H 	H 	0.17901 0.55766 0.68852 0.04700
H 	H 	0.97297 0.42091 0.62848 0.03700
H 	H 	0.96017 0.41877 0.57485 0.02300
H 	H 	0.18891 0.52247 0.81296 0.04900
H 	H 	0.17998 0.52793 0.86277 0.03700
H 	H 	0.94035 0.50451 0.75405 0.04600
H 	H 	0.93058 0.50881 0.80367 0.02500
C 	C 	0.97814 0.47866 0.08565 -0.10400
C 	C 	0.92369 0.48640 0.09255 0.01300
C 	C 	0.93351 0.49149 0.12398 -0.04600
C 	C 	0.99818 0.48905 0.14896 -0.02200
C 	C 	0.04003 0.47399 0.10974 0.02200
C 	C 	0.01353 0.49859 0.18348 0.11400
N 	N 	0.00280 0.52972 0.19902 -0.08600
N 	N 	0.01430 0.53758 0.22973 -0.08300
C 	C 	0.03694 0.51457 0.24583 0.09500
N 	N 	0.04837 0.48369 0.23043 -0.08500
N 	N 	0.03688 0.47583 0.19971 -0.08700
C 	C 	0.04666 0.52211 0.27921 0.02000
C 	C 	0.99796 0.53575 0.31597 -0.00600
C 	C 	0.05639 0.52971 0.34039 -0.08200
C 	C 	0.11249 0.52183 0.33484 0.00900
C 	C 	0.10764 0.51804 0.30443 -0.05500
C 	C 	0.05020 0.47926 0.14135 -0.03500
C 	C 	0.99297 0.53189 0.28548 -0.06800
H 	H 	0.87476 0.48933 0.07381 0.02700
H 	H 	0.89152 0.49788 0.12910 0.04300
H 	H 	0.10009 0.47707 0.16032 0.04400
H 	H 	0.08221 0.46787 0.10458 0.02600
H 	H 	0.94573 0.53522 0.26629 0.04500
H 	H 	0.95444 0.54192 0.31998 0.02300
H 	H 	0.15083 0.51157 0.30034 0.04900
H 	H 	0.15911 0.51803 0.35387 0.03500
C 	C 	0.49372 0.38758 0.43874 -0.06200
C 	C 	0.57628 0.40438 0.46344 -0.04800
C 	C 	0.64162 0.42288 0.45706 0.03800
C 	C 	0.72768 0.43982 0.48258 -0.19800
H 	H 	0.62184 0.42171 0.43180 0.02700
H 	H 	0.47527 0.38992 0.41476 0.04100
H 	H 	0.74761 0.44349 0.50851 0.08700
H 	H 	0.59526 0.40380 0.48809 0.04200
C 	C 	0.23537 0.37204 0.42947 -0.06400
C 	C 	0.23341 0.39836 0.45329 -0.04700
C 	C 	0.16629 0.40870 0.44162 0.03200
C 	C 	0.17374 0.44246 0.46396 -0.17900
H 	H 	0.11195 0.38967 0.41413 0.02600
H 	H 	0.18840 0.35875 0.40159 0.04200
H 	H 	0.22791 0.46143 0.49146 0.07200
H 	H 	0.28182 0.41258 0.48119 0.03900
C 	C 	0.57812 0.42195 0.00285 -0.06900
C 	C 	0.58376 0.40476 0.97662 -0.04200
C 	C 	0.66500 0.42623 0.97984 0.03500
C 	C 	0.66326 0.41810 0.94949 -0.19000
H 	H 	0.72553 0.44788 0.00573 0.02500
H 	H 	0.63206 0.45324 0.02615 0.04300
H 	H 	0.60186 0.40013 0.92407 0.08500
H 	H 	0.52795 0.37479 0.95252 0.04100
C 	C 	0.20356 0.45475 0.97388 -0.17100
C 	C 	0.22607 0.43597 0.95497 0.02900
C 	C 	0.30589 0.43573 0.97165 -0.04800
C 	C 	0.32122 0.41756 0.99289 -0.05800
H 	H 	0.34212 0.44191 0.96067 0.03800
H 	H 	0.24407 0.47020 0.00237 0.06900
H 	H 	0.28294 0.41019 0.00295 0.03900
H 	H 	0.18858 0.42343 0.92675 0.02200
C 	C 	0.54791 0.62841 0.94440 0.06300
C 	C 	0.56707 0.59559 0.94174 -0.10200
C 	C 	0.64634 0.60509 0.94875 0.06200
C 	C 	0.70695 0.64765 0.95849 -0.10100
C 	C 	0.68689 0.68009 0.95997 0.06200
C 	C 	0.60729 0.67044 0.95303 -0.10100
H 	H 	0.52059 0.56280 0.93452 0.05500
H 	H 	0.76923 0.65539 0.96468 0.05300
H 	H 	0.59221 0.69576 0.95488 0.05700
C 	C 	0.59806 0.65685 0.47532 0.06400
C 	C 	0.64960 0.69600 0.47750 -0.10200
C 	C 	0.72893 0.70619 0.48385 0.06200
C 	C 	0.75611 0.67705 0.48782 -0.10200
C 	C 	0.70319 0.63712 0.48440 0.06200
C 	C 	0.62494 0.62741 0.47874 -0.10200
H 	H 	0.62894 0.71886 0.47505 0.05600
H 	H 	0.81801 0.68525 0.49330 0.05100
H 	H 	0.58449 0.59677 0.47652 0.05500
C 	C 	0.49779 0.89938 0.99999 0.06600
C 	C 	0.45126 0.91966 0.99900 -0.09700
C 	C 	0.37545 0.89851 0.99668 0.05800
C 	C 	0.35035 0.85872 0.99801 -0.10000
C 	C 	0.39698 0.83845 0.99934 0.06700
C 	C 	0.47066 0.85890 0.00033 -0.10700
H 	H 	0.47415 0.95169 0.00018 0.05000
H 	H 	0.29452 0.84355 0.99799 0.05300
H 	H 	0.50733 0.84364 0.00177 0.05700
C 	C 	0.42738 0.86821 0.44438 0.06100
C 	C 	0.37119 0.88281 0.43943 -0.10100
C 	C 	0.30150 0.86127 0.44041 0.06200
C 	C 	0.28804 0.82509 0.44654 -0.10000
C 	C 	0.34346 0.80986 0.45116 0.06000
C 	C 	0.41334 0.83161 0.45019 -0.09900
H 	H 	0.38012 0.91004 0.43368 0.05400
H 	H 	0.23187 0.80731 0.44573 0.05600
H 	H 	0.45466 0.81911 0.45260 0.05500
O 	O 	0.07124 0.93331 0.92183 -0.50700
O 	O 	0.11813 0.98626 0.97395 -0.44800
Zn	Zn	0.81156 0.91175 0.91603 1.17300
Zn	Zn	0.94212 0.93308 0.98339 1.18000
C 	C 	0.79502 0.83936 0.93387 0.38400
C 	C 	0.73783 0.93209 0.95065 0.35400
O 	O 	0.86785 0.86864 0.96538 -0.47400
O 	O 	0.76326 0.85084 0.90981 -0.49100
O 	O 	0.73053 0.92309 0.92102 -0.48900
O 	O 	0.81162 0.94644 0.97969 -0.46900
C 	C 	0.97544 0.97991 0.05508 0.31600
O 	O 	0.92360 0.93040 0.93744 -0.79900
O 	O 	0.96923 0.94709 0.03300 -0.44100
O 	O 	0.00833 0.99514 0.99682 -0.88200
Zn	Zn	0.02309 0.95939 0.89716 1.18600
C 	C 	0.12598 0.95671 0.95609 0.32500
H 	H 	0.91016 0.97014 0.89073 0.13400
O 	O 	0.04905 0.93501 0.41770 -0.50500
O 	O 	0.12695 0.99288 0.47225 -0.45100
Zn	Zn	0.83036 0.92746 0.42805 1.17500
Zn	Zn	0.97664 0.94486 0.49084 1.18400
C 	C 	0.82038 0.85376 0.44397 0.38600
C 	C 	0.78765 0.94946 0.47483 0.36400
O 	O 	0.90091 0.88077 0.47192 -0.47700
O 	O 	0.78462 0.86567 0.42083 -0.48700
O 	O 	0.76285 0.93991 0.44250 -0.49300
O 	O 	0.86472 0.95938 0.49806 -0.49600
C 	C 	0.04065 0.98902 0.56848 0.31700
O 	O 	0.93977 0.94521 0.44390 -0.80500
O 	O 	0.02096 0.95561 0.54169 -0.42700
Zn	Zn	0.01345 0.96828 0.39797 1.18500
C 	C 	0.11206 0.95607 0.45116 0.32900
H 	H 	0.92824 0.99801 0.40279 0.14500
C 	C 	0.06153 0.98710 0.60112 -0.09600
C 	C 	0.07515 0.98983 0.66211 0.00100
C 	C 	0.00906 0.94887 0.59973 0.02600
N 	N 	0.99477 0.97759 0.71596 -0.09500
N 	N 	0.99755 0.97149 0.68826 -0.09500
C 	C 	0.01569 0.95024 0.63008 -0.03800
H 	H 	0.97297 0.92091 0.62848 0.03700
H 	H 	0.96017 0.91877 0.57485 0.02300
C 	C 	0.97814 0.97866 0.08565 -0.10400
C 	C 	0.92370 0.98640 0.09255 0.01300
C 	C 	0.04003 0.97399 0.10974 0.02200
N 	N 	0.04837 0.98369 0.23043 -0.08600
N 	N 	0.03688 0.97583 0.19971 -0.08700
C 	C 	0.05020 0.97926 0.14135 -0.03500
H 	H 	0.10009 0.97707 0.16032 0.04400
H 	H 	0.08221 0.96787 0.10458 0.02600
C 	C 	0.25078 0.70532 0.49154 -0.22600
C 	C 	0.25768 0.71283 0.46675 0.05700
C 	C 	0.29598 0.75819 0.47167 -0.05500
C 	C 	0.32115 0.76742 0.45162 -0.05800
H 	H 	0.30038 0.78372 0.49066 0.04200
H 	H 	0.27984 0.73326 0.51639 0.09300
H 	H 	0.32321 0.74302 0.43469 0.04400
H 	H 	0.23504 0.68567 0.44281 0.03100
C 	C 	0.49372 0.88758 0.43874 -0.06200
C 	C 	0.57628 0.90438 0.46344 -0.04800
C 	C 	0.64162 0.92288 0.45706 0.03800
C 	C 	0.72768 0.93982 0.48258 -0.19800
H 	H 	0.62184 0.92171 0.43180 0.02700
H 	H 	0.47527 0.88992 0.41476 0.04100
H 	H 	0.74761 0.94349 0.50851 0.08700
H 	H 	0.59525 0.90380 0.48809 0.04200
C 	C 	0.23537 0.87204 0.42947 -0.06400
C 	C 	0.23341 0.89836 0.45329 -0.04700
C 	C 	0.16629 0.90870 0.44162 0.03200
C 	C 	0.17374 0.94246 0.46396 -0.17900
H 	H 	0.11195 0.88967 0.41413 0.02600
H 	H 	0.18840 0.85875 0.40159 0.04200
H 	H 	0.22791 0.96144 0.49146 0.07200
H 	H 	0.28182 0.91258 0.48119 0.03900
C 	C 	0.17902 0.68599 0.95987 -0.18900
C 	C 	0.26339 0.72245 0.98449 0.03700
C 	C 	0.28930 0.76336 0.98133 -0.04200
C 	C 	0.37169 0.79695 0.00178 -0.06900
H 	H 	0.24060 0.76587 0.96186 0.04000
H 	H 	0.13484 0.68784 0.93807 0.08900
H 	H 	0.42115 0.79339 0.01965 0.04300
H 	H 	0.31015 0.72066 0.00546 0.02600
C 	C 	0.57812 0.92195 0.00285 -0.06900
C 	C 	0.58376 0.90476 0.97662 -0.04200
C 	C 	0.66500 0.92623 0.97984 0.03500
C 	C 	0.66326 0.91810 0.94949 -0.19000
H 	H 	0.72553 0.94788 0.00573 0.02500
H 	H 	0.63206 0.95324 0.02615 0.04200
H 	H 	0.60186 0.90012 0.92407 0.08500
H 	H 	0.52795 0.87479 0.95252 0.04100
C 	C 	0.20356 0.95475 0.97388 -0.17100
C 	C 	0.22607 0.93597 0.95497 0.02900
C 	C 	0.30589 0.93573 0.97165 -0.04800
C 	C 	0.32122 0.91756 0.99289 -0.05800
H 	H 	0.34212 0.94191 0.96067 0.03800
H 	H 	0.24407 0.97020 0.00237 0.06900
H 	H 	0.28294 0.91019 0.00295 0.03900
H 	H 	0.18858 0.92343 0.92675 0.02200
C 	C 	0.83778 0.56139 0.46131 -0.18400
C 	C 	0.79881 0.56810 0.47626 0.03600
C 	C 	0.75579 0.59218 0.46822 -0.04900
C 	C 	0.73083 0.60597 0.48772 -0.06400
H 	H 	0.75008 0.60158 0.44802 0.03700
H 	H 	0.82831 0.56822 0.43969 0.06600
H 	H 	0.73183 0.59467 0.50656 0.04200
H 	H 	0.80394 0.55850 0.49632 0.02700
C 	C 	0.78517 0.74800 0.48753 -0.06300
C 	C 	0.75421 0.76045 0.46193 -0.05200
C 	C 	0.80880 0.79884 0.46450 0.03900
C 	C 	0.77480 0.81293 0.43819 -0.21500
H 	H 	0.87621 0.81897 0.48640 0.02900
H 	H 	0.85296 0.76731 0.50890 0.04000
H 	H 	0.70957 0.79050 0.41463 0.09000
H 	H 	0.68706 0.74004 0.43979 0.04200
C 	C 	0.40327 0.62369 0.51252 -0.20200
C 	C 	0.41779 0.62547 0.48540 0.03500
C 	C 	0.49832 0.63875 0.49265 -0.04800
C 	C 	0.51546 0.64644 0.46905 -0.06400
H 	H 	0.54832 0.64333 0.51693 0.04100
H 	H 	0.45795 0.64032 0.53975 0.08800
H 	H 	0.46902 0.64634 0.44653 0.04500
H 	H 	0.36636 0.61833 0.46020 0.03500
C 	C 	0.66831 0.57149 0.94885 -0.06300
C 	C 	0.69966 0.56139 0.93115 -0.04800
C 	C 	0.73686 0.53448 0.93718 0.04000
C 	C 	0.79654 0.53806 0.93171 -0.18500
H 	H 	0.72477 0.51652 0.95088 0.02500
H 	H 	0.65950 0.55508 0.96386 0.04200
H 	H 	0.80510 0.55299 0.91586 0.06500
H 	H 	0.70493 0.57636 0.91488 0.03800
C 	C 	0.74837 0.72377 0.96787 -0.06200
C 	C 	0.72305 0.74051 0.94495 -0.05200
C 	C 	0.77998 0.78175 0.95178 0.04000
C 	C 	0.75193 0.79715 0.92586 -0.21500
H 	H 	0.84459 0.80224 0.97587 0.02900
H 	H 	0.81481 0.74136 0.99025 0.04100
H 	H 	0.69254 0.77366 0.89981 0.09100
H 	H 	0.65792 0.72090 0.92123 0.04300
C 	C 	0.46627 0.61906 0.93881 -0.06100
C 	C 	0.44251 0.60285 0.95695 -0.05200
C 	C 	0.36162 0.59430 0.95184 0.05200
C 	C 	0.35034 0.59243 0.97696 -0.21300
H 	H 	0.31269 0.59130 0.92811 0.03100
H 	H 	0.42759 0.62771 0.92123 0.04500
H 	H 	0.40107 0.59665 0.00084 0.08900
H 	H 	0.48411 0.59697 0.97624 0.04100
