data_crystal

_cell_length_a 32.29535
_cell_length_b 28.54008
_cell_length_c 20.92132
_cell_angle_alpha 89.99979
_cell_angle_beta  90.00061
_cell_angle_gamma 90.00195

_symmetry_space_group_name_	'P 1'
_symmetry_space_group_name_H-M	'P 1'

loop_
_symmetry_equiv_pos_as_xyz
  x,y,z

loop_
_atom_site_label
_atom_site_type_symbol
_atom_site_fract_x
_atom_site_fract_y
_atom_site_fract_z
_atom_site_charge
Cu	Cu	0.16569 0.86598 0.32834 0.93200
Cu	Cu	0.22313 0.79183 0.24922 0.87400
Cu	Cu	0.18492 0.87442 0.18713 0.90100
Cu	Cu	0.15062 0.95989 0.25196 0.91300
C 	C 	0.16251 0.95485 0.39167 0.29900
O 	O 	0.10364 0.87185 0.31857 -0.34700
C 	C 	0.20378 0.79081 0.11348 0.29100
O 	O 	0.19178 0.91307 0.26199 -0.63700
O 	O 	0.17071 0.82606 0.25205 -0.64100
O 	O 	0.19288 0.82246 0.38837 -0.35600
O 	O 	0.24979 0.81353 0.32558 -0.40900
O 	O 	0.13904 0.97000 0.34447 -0.34100
O 	O 	0.20170 0.92161 0.12571 -0.36200
C 	C 	0.18520 0.96379 0.12186 0.30400
C 	C 	0.08616 0.88262 0.26376 0.29500
O 	O 	0.10680 0.90675 0.22071 -0.36300
O 	O 	0.17553 0.98760 0.17382 -0.35800
O 	O 	0.17096 0.90981 0.39708 -0.34300
C 	C 	0.23159 0.80995 0.38154 0.31200
O 	O 	0.18274 0.83043 0.11631 -0.35600
O 	O 	0.21133 0.76593 0.16559 -0.37900
H 	H 	0.22032 0.92461 0.26914 0.18100
H 	H 	0.14600 0.80717 0.24099 0.18800
Cu	Cu	0.33272 0.65470 0.82800 0.93400
Cu	Cu	0.28190 0.73662 0.74973 0.88600
Cu	Cu	0.30792 0.64608 0.68867 0.90400
Cu	Cu	0.34157 0.56026 0.75092 0.90300
C 	C 	0.33569 0.56594 0.89269 0.30400
O 	O 	0.39451 0.64557 0.81722 -0.33100
C 	C 	0.29400 0.72992 0.61374 0.29800
O 	O 	0.30261 0.60875 0.76427 -0.64000
O 	O 	0.32905 0.69375 0.75043 -0.63600
O 	O 	0.30688 0.69951 0.88853 -0.34700
O 	O 	0.25220 0.71511 0.82320 -0.40600
O 	O 	0.35518 0.54866 0.84250 -0.36000
O 	O 	0.28401 0.59973 0.63254 -0.35900
C 	C 	0.29940 0.55741 0.62382 0.30200
C 	C 	0.41086 0.63074 0.76336 0.30100
O 	O 	0.38715 0.61113 0.71993 -0.38400
O 	O 	0.31643 0.53372 0.67143 -0.35700
O 	O 	0.32709 0.61107 0.89690 -0.34500
C 	C 	0.26916 0.71535 0.88028 0.30700
O 	O 	0.31052 0.68769 0.61527 -0.35800
O 	O 	0.29532 0.75757 0.66433 -0.38500
H 	H 	0.27403 0.59841 0.77401 0.18000
H 	H 	0.35537 0.70837 0.73663 0.19600
Cu	Cu	0.31797 0.36077 0.17776 0.93500
Cu	Cu	0.25101 0.29507 0.25450 0.88300
Cu	Cu	0.29092 0.37486 0.31478 0.90000
Cu	Cu	0.33927 0.45239 0.25588 0.90300
C 	C 	0.33426 0.44790 0.11482 0.30400
O 	O 	0.37975 0.35729 0.19350 -0.33900
C 	C 	0.26812 0.29475 0.39183 0.29700
O 	O 	0.29380 0.41254 0.23936 -0.64000
O 	O 	0.30571 0.32372 0.25466 -0.64100
O 	O 	0.28704 0.32127 0.11636 -0.35000
O 	O 	0.22860 0.32061 0.17723 -0.39900
O 	O 	0.35622 0.46067 0.16506 -0.37000
O 	O 	0.27337 0.42494 0.37067 -0.37500
C 	C 	0.29443 0.46398 0.38002 0.30500
C 	C 	0.39627 0.36851 0.24885 0.30100
O 	O 	0.37480 0.39311 0.29024 -0.38200
O 	O 	0.31595 0.48372 0.33336 -0.35800
O 	O 	0.32150 0.40421 0.10824 -0.34000
C 	C 	0.24708 0.31408 0.12193 0.30700
O 	O 	0.29033 0.33348 0.38780 -0.37000
O 	O 	0.25806 0.27023 0.34027 -0.37300
H 	H 	0.26759 0.42840 0.22778 0.18700
H 	H 	0.32818 0.30316 0.27046 0.20300
Cu	Cu	0.14590 0.15943 0.67877 0.93300
Cu	Cu	0.18562 0.24808 0.75692 0.89300
Cu	Cu	0.16808 0.15396 0.82046 0.90300
Cu	Cu	0.14646 0.06333 0.75284 0.90600
C 	C 	0.15588 0.07215 0.61326 0.30600
O 	O 	0.08574 0.14063 0.68818 -0.33600
C 	C 	0.17453 0.24197 0.89132 0.29200
O 	O 	0.17943 0.11779 0.74411 -0.63300
O 	O 	0.14406 0.19843 0.75641 -0.63600
O 	O 	0.16745 0.20798 0.62020 -0.35500
O 	O 	0.21961 0.22931 0.68688 -0.39900
O 	O 	0.13533 0.05248 0.66052 -0.35800
O 	O 	0.19004 0.10884 0.88157 -0.34900
C 	C 	0.18211 0.06343 0.88206 0.30200
C 	C 	0.07052 0.12524 0.74265 0.29500
O 	O 	0.09531 0.10645 0.78548 -0.38500
O 	O 	0.17715 0.04005 0.82824 -0.36900
O 	O 	0.15815 0.11816 0.60906 -0.35300
C 	C 	0.20417 0.22623 0.62905 0.30500
O 	O 	0.16398 0.19724 0.89299 -0.35600
O 	O 	0.16731 0.26735 0.83994 -0.37000
H 	H 	0.20918 0.11213 0.73567 0.18100
H 	H 	0.11609 0.20956 0.76834 0.19600
Cu	Cu	0.64886 0.32471 0.33257 0.93300
Cu	Cu	0.69372 0.23817 0.25669 0.89200
Cu	Cu	0.67564 0.33113 0.19284 0.90100
Cu	Cu	0.64562 0.42017 0.25792 0.90800
C 	C 	0.64963 0.41249 0.39935 0.30300
O 	O 	0.58794 0.33871 0.32029 -0.33800
C 	C 	0.68427 0.24248 0.12168 0.29400
O 	O 	0.68173 0.36853 0.26942 -0.63400
O 	O 	0.65074 0.28580 0.25487 -0.63700
O 	O 	0.67225 0.27807 0.39267 -0.35300
O 	O 	0.72595 0.25926 0.32742 -0.40200
O 	O 	0.63129 0.43128 0.34928 -0.35300
O 	O 	0.69810 0.37800 0.13495 -0.35400
C 	C 	0.68380 0.42119 0.13068 0.30200
C 	C 	0.57308 0.35361 0.26543 0.29400
O 	O 	0.59790 0.37313 0.22340 -0.37200
O 	O 	0.67490 0.44558 0.18234 -0.36400
O 	O 	0.65682 0.36708 0.40228 -0.34500
C 	C 	0.70971 0.26149 0.38482 0.30500
O 	O 	0.67641 0.28798 0.11956 -0.36400
O 	O 	0.67659 0.21792 0.17367 -0.37600
H 	H 	0.71067 0.37670 0.28038 0.17700
H 	H 	0.62351 0.27364 0.24076 0.18200
Cu	Cu	0.81706 0.11336 0.83226 0.93400
Cu	Cu	0.75389 0.18526 0.75766 0.88000
Cu	Cu	0.78799 0.10296 0.69518 0.90000
Cu	Cu	0.83375 0.02081 0.75379 0.91000
C 	C 	0.83032 0.02539 0.89491 0.29800
O 	O 	0.87875 0.11243 0.81588 -0.34400
C 	C 	0.77040 0.18558 0.62017 0.29400
O 	O 	0.79032 0.06380 0.77003 -0.63700
O 	O 	0.80649 0.15196 0.75611 -0.64200
O 	O 	0.78875 0.15458 0.89444 -0.35400
O 	O 	0.73020 0.16028 0.83434 -0.40100
O 	O 	0.85124 0.01185 0.84408 -0.35800
O 	O 	0.77231 0.05412 0.63562 -0.36700
C 	C 	0.79348 0.01504 0.62836 0.29700
C 	C 	0.89444 0.10140 0.75991 0.29500
O 	O 	0.87221 0.07755 0.71860 -0.35900
O 	O 	0.80707 0.99148 0.67829 -0.35700
O 	O 	0.81832 0.06935 0.90135 -0.33900
C 	C 	0.74923 0.16454 0.88961 0.30600
O 	O 	0.79055 0.14541 0.62339 -0.36200
O 	O 	0.76206 0.21039 0.67219 -0.37600
H 	H 	0.76351 0.04960 0.78237 0.18000
H 	H 	0.83014 0.17076 0.74028 0.19100
Cu	Cu	0.83400 0.82078 0.18477 0.93500
Cu	Cu	0.78168 0.74131 0.26390 0.87600
Cu	Cu	0.81092 0.82979 0.32442 0.90200
Cu	Cu	0.84005 0.91703 0.25890 0.90300
C 	C 	0.83487 0.90876 0.11811 0.30600
O 	O 	0.89557 0.83147 0.19698 -0.33500
C 	C 	0.79849 0.74573 0.39984 0.29600
O 	O 	0.80302 0.86641 0.24790 -0.63700
O 	O 	0.83032 0.78198 0.26206 -0.64000
O 	O 	0.80793 0.77528 0.12582 -0.34800
O 	O 	0.75209 0.76277 0.19001 -0.41400
O 	O 	0.85419 0.92711 0.16754 -0.36500
O 	O 	0.78926 0.87589 0.38381 -0.36000
C 	C 	0.80172 0.91988 0.38668 0.30500
C 	C 	0.91113 0.84862 0.25021 0.30200
O 	O 	0.88660 0.86834 0.29249 -0.38500
O 	O 	0.81121 0.94341 0.33444 -0.37000
O 	O 	0.82802 0.86328 0.11465 -0.33000
C 	C 	0.76914 0.76276 0.13293 0.30500
O 	O 	0.81590 0.78750 0.39663 -0.36100
O 	O 	0.79529 0.71875 0.34864 -0.37900
H 	H 	0.77390 0.87500 0.23886 0.18100
H 	H 	0.85640 0.76641 0.27504 0.19900
Cu	Cu	0.66588 0.61641 0.68641 0.93300
Cu	Cu	0.72551 0.69310 0.76057 0.89100
Cu	Cu	0.69759 0.60278 0.82270 0.90400
Cu	Cu	0.64525 0.52416 0.76386 0.91300
C 	C 	0.65047 0.52914 0.62294 0.29900
O 	O 	0.60402 0.61867 0.70143 -0.34400
C 	C 	0.71260 0.68970 0.89559 0.29800
O 	O 	0.69035 0.56474 0.74767 -0.63400
O 	O 	0.67720 0.65328 0.76432 -0.63700
O 	O 	0.69655 0.65625 0.62457 -0.34700
O 	O 	0.75272 0.66542 0.68905 -0.40800
O 	O 	0.62857 0.51599 0.67305 -0.35600
O 	O 	0.71309 0.55100 0.87736 -0.35700
C 	C 	0.68839 0.51503 0.88775 0.30400
C 	C 	0.58723 0.60714 0.75645 0.29200
O 	O 	0.60859 0.58268 0.79820 -0.35300
O 	O 	0.67020 0.49311 0.83984 -0.35600
O 	O 	0.66287 0.57300 0.61670 -0.33500
C 	C 	0.73577 0.66692 0.63203 0.30900
O 	O 	0.71833 0.64395 0.89107 -0.36100
O 	O 	0.71120 0.71611 0.84384 -0.39200
H 	H 	0.71595 0.54880 0.73334 0.18200
H 	H 	0.65260 0.66962 0.78168 0.18300
C 	C 	0.73155 0.75887 0.96275 -0.02600
C 	C 	0.71700 0.71254 0.95904 -0.06600
C 	C 	0.71123 0.68676 0.01614 0.09700
C 	C 	0.72605 0.70477 0.07425 -0.02300
C 	C 	0.74468 0.74911 0.07643 -0.07700
C 	C 	0.74467 0.77751 0.02131 0.10300
N 	N 	0.75720 0.82558 0.02493 -0.02000
H 	H 	0.73358 0.78016 0.91998 0.07400
H 	H 	0.72396 0.68376 0.11729 0.05800
N 	N 	0.68950 0.64300 0.01555 -0.02000
O 	O 	0.78345 0.84232 0.98365 -0.08400
O 	O 	0.73974 0.85351 0.06602 -0.09900
O 	O 	0.70612 0.60603 0.04133 -0.09000
O 	O 	0.65215 0.64075 0.99247 -0.08700
C 	C 	0.76571 0.75496 0.50633 -0.02700
C 	C 	0.78767 0.72665 0.46328 -0.06900
C 	C 	0.79738 0.68001 0.48029 0.10400
C 	C 	0.78212 0.66134 0.53775 -0.02000
C 	C 	0.75817 0.68904 0.57893 -0.07600
C 	C 	0.75107 0.73649 0.56404 0.10000
N 	N 	0.72800 0.76572 0.60677 -0.02200
H 	H 	0.75912 0.79116 0.49429 0.07800
H 	H 	0.78851 0.62514 0.54993 0.07900
N 	N 	0.82358 0.65201 0.44043 -0.02000
O 	O 	0.74117 0.77266 0.66475 -0.13900
O 	O 	0.69534 0.78784 0.58642 -0.08800
O 	O 	0.86087 0.66615 0.42693 -0.07800
O 	O 	0.81136 0.61079 0.42181 -0.08300
C 	C 	0.83135 0.97373 0.46754 -0.02200
C 	C 	0.79819 0.94563 0.44745 -0.07200
C 	C 	0.76245 0.94194 0.48605 0.10700
C 	C 	0.76102 0.96510 0.54513 -0.02200
C 	C 	0.79449 0.99263 0.56535 -0.06500
C 	C 	0.82961 0.99736 0.52606 0.10200
N 	N 	0.86376 0.02594 0.54574 -0.02800
H 	H 	0.85869 0.97699 0.43780 0.06700
H 	H 	0.73376 0.96191 0.57506 0.07400
N 	N 	0.72715 0.91599 0.46461 -0.02000
O 	O 	0.90069 0.00798 0.54971 -0.08900
O 	O 	0.85844 0.07054 0.55559 -0.09200
O 	O 	0.71214 0.88250 0.49983 -0.08500
O 	O 	0.70800 0.92837 0.41258 -0.08500
C 	C 	0.86825 0.97400 0.97039 -0.02200
C 	C 	0.83096 0.99515 0.95172 -0.06200
C 	C 	0.79446 0.98649 0.98683 0.10700
C 	C 	0.79586 0.95720 0.04056 -0.02300
C 	C 	0.83317 0.93615 0.05906 -0.06400
C 	C 	0.86950 0.94441 0.02359 0.10800
N 	N 	0.90786 0.92317 0.04203 -0.02100
H 	H 	0.89638 0.98059 0.94358 0.08900
H 	H 	0.76792 0.95096 0.06800 0.07400
N 	N 	0.75588 0.00684 0.96760 -0.02400
O 	O 	0.91150 0.87778 0.04235 -0.07300
O 	O 	0.93985 0.94924 0.05475 -0.07600
O 	O 	0.74080 0.99789 0.91125 -0.10000
O 	O 	0.73416 0.03094 0.00835 -0.09200
C 	C 	0.72464 0.47734 0.97925 -0.01500
C 	C 	0.68770 0.49317 0.95133 -0.06700
C 	C 	0.64973 0.48592 0.98300 0.10700
C 	C 	0.64897 0.46220 0.04152 -0.02700
C 	C 	0.68573 0.44572 0.06902 -0.06800
C 	C 	0.72389 0.45375 0.03809 0.10400
N 	N 	0.76190 0.43862 0.06660 -0.02000
H 	H 	0.75393 0.48311 0.95517 0.07500
H 	H 	0.61969 0.45670 0.06575 0.06900
N 	N 	0.61185 0.50296 0.95603 -0.02400
O 	O 	0.78696 0.41159 0.03482 -0.08600
O 	O 	0.77299 0.45484 0.12213 -0.08600
O 	O 	0.58107 0.47440 0.94653 -0.07900
O 	O 	0.60713 0.54752 0.94513 -0.08400
C 	C 	0.68654 0.46449 0.47500 -0.02400
C 	C 	0.65069 0.43955 0.45877 -0.07100
C 	C 	0.61493 0.44358 0.49691 0.11100
C 	C 	0.61515 0.47320 0.55015 -0.02700
C 	C 	0.65092 0.49847 0.56637 -0.06400
C 	C 	0.68698 0.49372 0.52882 0.09800
N 	N 	0.72419 0.51811 0.54554 -0.01900
H 	H 	0.71410 0.46130 0.44572 0.06200
H 	H 	0.58737 0.47666 0.57885 0.08700
N 	N 	0.57813 0.41798 0.48126 -0.02100
O 	O 	0.74210 0.50998 0.60012 -0.10700
O 	O 	0.74188 0.54561 0.50416 -0.08900
O 	O 	0.57895 0.37243 0.47923 -0.07500
O 	O 	0.54302 0.43990 0.47551 -0.07500
C 	C 	0.68269 0.23570 0.00265 -0.02400
C 	C 	0.69559 0.21770 0.06194 -0.06800
C 	C 	0.72205 0.17828 0.06345 0.09900
C 	C 	0.73621 0.15858 0.00623 -0.02100
C 	C 	0.72617 0.17905 0.94727 -0.07000
C 	C 	0.69841 0.21722 0.94548 0.10100
N 	N 	0.68780 0.23890 0.88608 -0.02200
H 	H 	0.66166 0.26527 0.00088 0.07700
H 	H 	0.75707 0.12884 0.00789 0.08400
N 	N 	0.73673 0.15996 0.12292 -0.02100
O 	O 	0.65004 0.23631 0.86474 -0.09400
O 	O 	0.71474 0.26499 0.85661 -0.12300
O 	O 	0.72637 0.11785 0.14048 -0.08700
O 	O 	0.76388 0.18332 0.15600 -0.11700
C 	C 	0.74665 0.17498 0.50813 -0.02600
C 	C 	0.76066 0.20516 0.55651 -0.06600
C 	C 	0.76303 0.25381 0.54447 0.10200
C 	C 	0.74784 0.27185 0.48667 -0.01900
C 	C 	0.73195 0.24174 0.43975 -0.07500
C 	C 	0.73257 0.19298 0.44980 0.10100
N 	N 	0.71729 0.16170 0.40183 -0.02600
H 	H 	0.74560 0.13749 0.51644 0.07500
H 	H 	0.74818 0.30936 0.47845 0.06900
N 	N 	0.78207 0.28471 0.58968 -0.01900
O 	O 	0.73708 0.15712 0.34805 -0.11300
O 	O 	0.68560 0.13501 0.41399 -0.09800
O 	O 	0.82041 0.27820 0.60656 -0.08500
O 	O 	0.76222 0.32149 0.60987 -0.08800
C 	C 	0.00886 0.07712 0.76934 -0.02000
C 	C 	0.02535 0.12025 0.74973 -0.07000
C 	C 	0.99843 0.15664 0.73074 0.10100
C 	C 	0.95553 0.14921 0.73067 -0.02200
C 	C 	0.93918 0.10605 0.75010 -0.06700
C 	C 	0.96602 0.06974 0.76914 0.10100
N 	N 	0.94980 0.02542 0.78906 -0.02400
H 	H 	0.02937 0.04878 0.78309 0.06400
H 	H 	0.93489 0.17754 0.71739 0.06600
N 	N 	0.01446 0.20168 0.71375 -0.02100
O 	O 	0.93068 0.99873 0.74820 -0.10500
O 	O 	0.95725 0.01004 0.84644 -0.09100
O 	O 	0.00686 0.21907 0.65749 -0.08300
O 	O 	0.03330 0.22707 0.75640 -0.10500
C 	C 	0.50426 0.31748 0.24761 -0.02300
C 	C 	0.52812 0.35784 0.25757 -0.07000
C 	C 	0.50844 0.40122 0.26786 0.10300
C 	C 	0.46519 0.40378 0.26851 -0.01900
C 	C 	0.44123 0.36361 0.25753 -0.07300
C 	C 	0.46090 0.32010 0.24750 0.10400
N 	N 	0.43695 0.27837 0.23871 -0.02200
H 	H 	0.51935 0.28387 0.24119 0.06300
H 	H 	0.45022 0.43740 0.27549 0.06000
N 	N 	0.53233 0.44274 0.27822 -0.02400
O 	O 	0.44375 0.25153 0.18957 -0.08700
O 	O 	0.41054 0.26541 0.28221 -0.09600
O 	O 	0.55235 0.46179 0.23096 -0.11400
O 	O 	0.53062 0.46407 0.33308 -0.07900
C 	C 	0.24793 0.30786 0.50507 -0.02500
C 	C 	0.25785 0.27626 0.45594 -0.06800
C 	C 	0.25559 0.22757 0.46778 0.10300
C 	C 	0.23975 0.21140 0.52615 -0.02000
C 	C 	0.22788 0.24319 0.57386 -0.07500
C 	C 	0.23346 0.29157 0.56407 0.10200
N 	N 	0.22271 0.32445 0.61298 -0.02700
H 	H 	0.25025 0.34524 0.49681 0.07100
H 	H 	0.23635 0.17406 0.53418 0.07000
N 	N 	0.27057 0.19455 0.42173 -0.02000
O 	O 	0.24438 0.32640 0.66531 -0.09300
O 	O 	0.19402 0.35550 0.60249 -0.09000
O 	O 	0.30909 0.19586 0.40364 -0.08000
O 	O 	0.24673 0.16068 0.40228 -0.08100
C 	C 	0.17585 0.24730 0.01056 -0.02100
C 	C 	0.18813 0.26541 0.95100 -0.06300
C 	C 	0.21639 0.30320 0.94893 0.10100
C 	C 	0.23271 0.32130 0.00578 -0.01900
C 	C 	0.22285 0.30088 0.06482 -0.07000
C 	C 	0.19361 0.26417 0.06725 0.10300
N 	N 	0.18353 0.24221 0.12670 -0.02300
H 	H 	0.15371 0.21881 0.01281 0.08200
H 	H 	0.25489 0.34978 0.00365 0.08500
N 	N 	0.23062 0.32136 0.88912 -0.02100
O 	O 	0.14613 0.24527 0.14933 -0.09100
O 	O 	0.21051 0.21539 0.15485 -0.11400
O 	O 	0.22159 0.36412 0.87276 -0.08200
O 	O 	0.25620 0.29703 0.85441 -0.11600
C 	C 	0.52546 0.65667 0.77574 -0.02200
C 	C 	0.54232 0.61218 0.76447 -0.06600
C 	C 	0.51590 0.57419 0.75088 0.10400
C 	C 	0.47307 0.58118 0.74758 -0.01700
C 	C 	0.45611 0.62565 0.75883 -0.07000
C 	C 	0.48250 0.66367 0.77292 0.10600
N 	N 	0.46590 0.70964 0.78262 -0.02100
H 	H 	0.54578 0.68617 0.78485 0.06600
H 	H 	0.45288 0.55166 0.73790 0.06200
N 	N 	0.53258 0.52856 0.73905 -0.02400
O 	O 	0.47546 0.73312 0.83383 -0.08300
O 	O 	0.44380 0.72937 0.73815 -0.10100
O 	O 	0.54905 0.50478 0.78559 -0.10200
O 	O 	0.52786 0.50914 0.68329 -0.09000
C 	C 	0.29664 0.56012 0.50509 -0.02500
C 	C 	0.29280 0.53397 0.56157 -0.06500
C 	C 	0.28463 0.48541 0.55781 0.10300
C 	C 	0.28437 0.46310 0.49813 -0.02400
C 	C 	0.28969 0.48905 0.44166 -0.07100
C 	C 	0.29339 0.53833 0.44530 0.10600
N 	N 	0.29173 0.56651 0.38874 -0.01800
H 	H 	0.30216 0.59754 0.50755 0.08200
H 	H 	0.28024 0.42547 0.49579 0.07300
N 	N 	0.27512 0.45898 0.61410 -0.01900
O 	O 	0.25920 0.56509 0.35211 -0.08500
O 	O 	0.32094 0.59672 0.37713 -0.09300
O 	O 	0.24308 0.47003 0.64864 -0.07800
O 	O 	0.29617 0.42138 0.62747 -0.08000
C 	C 	0.37160 0.49792 0.03687 -0.02700
C 	C 	0.33419 0.47861 0.05845 -0.06700
C 	C 	0.29692 0.48935 0.02650 0.09600
C 	C 	0.29760 0.51896 0.97305 -0.01900
C 	C 	0.33506 0.53795 0.95137 -0.07300
C 	C 	0.37221 0.52767 0.98376 0.11100
N 	N 	0.41066 0.54734 0.96266 -0.02200
H 	H 	0.40030 0.48982 0.06140 0.07800
H 	H 	0.26899 0.52702 0.94827 0.06500
N 	N 	0.25830 0.47078 0.04867 -0.02000
O 	O 	0.41556 0.59257 0.96126 -0.07300
O 	O 	0.44161 0.52001 0.94876 -0.07600
O 	O 	0.24550 0.48013 0.10622 -0.10600
O 	O 	0.23433 0.44800 0.00954 -0.08900
C 	C 	0.02635 0.82800 0.26469 -0.02000
C 	C 	0.04171 0.87344 0.25484 -0.06900
C 	C 	0.01392 0.91063 0.24351 0.10700
C 	C 	0.97125 0.90210 0.24290 -0.02000
C 	C 	0.95588 0.85692 0.25413 -0.07000
C 	C 	0.98357 0.81956 0.26451 0.10300
N 	N 	0.96837 0.77317 0.27592 -0.02300
H 	H 	0.04760 0.79937 0.27389 0.06500
H 	H 	0.94998 0.93075 0.23389 0.06400
N 	N 	0.02887 0.95736 0.23448 -0.02400
O 	O 	0.98170 0.73838 0.24141 -0.08600
O 	O 	0.94367 0.76516 0.32381 -0.09500
O 	O 	0.02242 0.97879 0.18053 -0.07800
O 	O 	0.04565 0.97986 0.28193 -0.09600
C 	C 	0.16460 0.99401 0.94894 -0.01000
C 	C 	0.18598 0.03666 0.94261 -0.07800
C 	C 	0.20899 0.05412 0.99510 0.11200
C 	C 	0.20804 0.03035 0.05374 -0.03400
C 	C 	0.18595 0.98831 0.06003 -0.05900
C 	C 	0.16458 0.96977 0.00710 0.09300
N 	N 	0.14190 0.92684 0.01266 -0.02300
H 	H 	0.14692 0.98025 0.90909 0.07100
H 	H 	0.22538 0.04405 0.09398 0.07800
N 	N 	0.23497 0.09440 0.98826 -0.01800
O 	O 	0.11125 0.92366 0.05279 -0.08900
O 	O 	0.14978 0.89222 0.97409 -0.07900
O 	O 	0.22785 0.13170 0.02225 -0.08400
O 	O 	0.26783 0.09230 0.95241 -0.08300
C 	C 	0.16576 0.06347 0.49540 -0.01500
C 	C 	0.16642 0.04336 0.55668 -0.07800
C 	C 	0.17400 0.99484 0.56306 0.11100
C 	C 	0.17422 0.96621 0.50870 -0.02600
C 	C 	0.16936 0.98582 0.44756 -0.05300
C 	C 	0.16847 0.03510 0.44089 0.09300
N 	N 	0.17181 0.05644 0.37913 -0.01900
H 	H 	0.16285 0.10109 0.48992 0.08100
H 	H 	0.17790 0.92869 0.51423 0.08700
N 	N 	0.18258 0.97478 0.62442 -0.02200
O 	O 	0.14506 0.08795 0.36144 -0.08400
O 	O 	0.20334 0.04698 0.34263 -0.10500
O 	O 	0.16220 0.93807 0.64362 -0.09100
O 	O 	0.21261 0.99129 0.65921 -0.10600
C 	C 	0.23839 0.74299 0.45557 -0.01800
C 	C 	0.25279 0.78676 0.43499 -0.08300
C 	C 	0.28223 0.81115 0.47197 0.10600
C 	C 	0.29621 0.79192 0.52983 -0.02400
C 	C 	0.28028 0.74908 0.55183 -0.06900
C 	C 	0.25111 0.72451 0.51437 0.09500
N 	N 	0.23241 0.68226 0.53766 -0.01900
H 	H 	0.21533 0.72451 0.42757 0.06100
H 	H 	0.31886 0.81074 0.55816 0.07700
N 	N 	0.29707 0.85606 0.45193 -0.02300
O 	O 	0.21379 0.68208 0.59282 -0.11400
O 	O 	0.22912 0.64606 0.50023 -0.08800
O 	O 	0.27193 0.89163 0.44970 -0.09000
O 	O 	0.33640 0.86231 0.44159 -0.08600
C 	C 	0.22661 0.80132 0.00070 -0.03100
C 	C 	0.21401 0.77101 0.04990 -0.06200
C 	C 	0.21448 0.72208 0.03928 0.09600
C 	C 	0.23156 0.70420 0.98262 -0.01400
C 	C 	0.24634 0.73458 0.93517 -0.07800
C 	C 	0.24271 0.78338 0.94350 0.10600
N 	N 	0.25645 0.81493 0.89472 -0.02800
H 	H 	0.22563 0.83892 0.00790 0.08100
H 	H 	0.23327 0.66661 0.97553 0.06900
N 	N 	0.19613 0.69064 0.08448 -0.01800
O 	O 	0.23066 0.84487 0.86997 -0.09000
O 	O 	0.29547 0.81682 0.87954 -0.11300
O 	O 	0.15727 0.69509 0.09972 -0.08200
O 	O 	0.21728 0.65530 0.10627 -0.08900
