data_crystal

_cell_length_a 15.45573
_cell_length_b 15.93657
_cell_length_c 44.51526
_cell_angle_alpha 95.40322
_cell_angle_beta  95.39832
_cell_angle_gamma 126.67137

_symmetry_space_group_name_	'P 1'
_symmetry_space_group_name_H-M	'P 1'

loop_
_symmetry_equiv_pos_as_xyz
  x,y,z

loop_
_atom_site_label
_atom_site_type_symbol
_atom_site_fract_x
_atom_site_fract_y
_atom_site_fract_z
_atom_site_charge
C 	C 	0.08419 0.02709 0.49329 0.00400
C 	C 	0.90355 0.01036 0.97670 0.00300
C 	C 	0.01118 0.07155 0.97155 -0.04900
C 	C 	0.06823 0.02934 0.97080 0.00400
H 	H 	0.05220 0.15392 0.96925 0.05100
C 	C 	0.03885 0.08170 0.49336 -0.04700
H 	H 	0.09057 0.16655 0.49335 0.04700
Cu	Cu	0.78699 0.36098 0.97475 0.92500
Cu	Cu	0.72528 0.24944 0.03561 0.86700
Cu	Cu	0.60518 0.31755 0.00706 0.89700
Cu	Cu	0.58396 0.34485 0.94106 0.90200
C 	C 	0.73588 0.33344 0.90908 0.30900
C 	C 	0.63860 0.32725 0.07415 0.30200
O 	O 	0.61548 0.27351 0.96601 -0.63200
O 	O 	0.75808 0.36735 0.01654 -0.64700
O 	O 	0.85131 0.28282 0.98101 -0.36400
O 	O 	0.70717 0.15656 0.00125 -0.43900
O 	O 	0.69058 0.38072 0.91344 -0.38800
O 	O 	0.46009 0.28034 0.99676 -0.38100
C 	C 	0.39360 0.22617 0.97010 0.31000
O 	O 	0.42805 0.25202 0.94419 -0.39200
O 	O 	0.79228 0.33030 0.93240 -0.36300
C 	C 	0.79014 0.18604 0.98758 0.30000
O 	O 	0.59583 0.34340 0.05028 -0.37800
O 	O 	0.71242 0.31105 0.07229 -0.42100
H 	H 	0.57004 0.19534 0.95922 0.16100
H 	H 	0.80830 0.43839 0.03007 0.17400
Cu	Cu	0.60677 0.18089 0.50650 0.92900
Cu	Cu	0.69911 0.21817 0.44220 0.86700
Cu	Cu	0.63145 0.33932 0.46913 0.89700
Cu	Cu	0.62507 0.38127 0.53597 0.90200
C 	C 	0.65344 0.24977 0.57188 0.31000
O 	O 	0.45070 0.12669 0.50946 -0.36000
C 	C 	0.60589 0.28830 0.40211 0.30000
O 	O 	0.69353 0.34593 0.51033 -0.63500
O 	O 	0.58375 0.19206 0.46342 -0.64700
O 	O 	0.67385 0.10807 0.49963 -0.37100
O 	O 	0.79893 0.23588 0.47531 -0.44100
O 	O 	0.60242 0.29136 0.56706 -0.38700
C 	C 	0.41193 0.17761 0.50104 0.29400
O 	O 	0.47898 0.28011 0.50095 -0.39800
O 	O 	0.65512 0.19222 0.54907 -0.36200
C 	C 	0.76816 0.15797 0.49022 0.31100
O 	O 	0.58768 0.33019 0.42544 -0.37700
O 	O 	0.62699 0.22024 0.40511 -0.42000
H 	H 	0.50810 0.13854 0.45157 0.17600
C 	C 	0.71548 0.22605 0.66054 -0.00700
C 	C 	0.82273 0.28275 0.67714 -0.03100
C 	C 	0.84059 0.28643 0.70881 -0.04300
C 	C 	0.75117 0.23381 0.72406 0.00900
C 	C 	0.64372 0.17271 0.70707 -0.04200
C 	C 	0.62604 0.16877 0.67543 -0.03000
C 	C 	0.76986 0.25190 0.75799 0.00900
C 	C 	0.72111 0.16501 0.77325 -0.04300
C 	C 	0.72306 0.18087 0.80484 -0.03100
C 	C 	0.77422 0.28362 0.82136 -0.00700
C 	C 	0.82855 0.37103 0.80652 -0.03000
C 	C 	0.82628 0.35531 0.77494 -0.04300
C 	C 	0.76040 0.29825 0.85249 0.04700
C 	C 	0.75026 0.31313 0.87856 -0.10500
C 	C 	0.69728 0.23541 0.62910 0.04700
C 	C 	0.67890 0.24146 0.60278 -0.10400
H 	H 	0.89229 0.32666 0.66573 0.03900
H 	H 	0.92384 0.33283 0.72163 0.04100
H 	H 	0.57409 0.13175 0.71857 0.04200
H 	H 	0.54288 0.12429 0.66271 0.04200
H 	H 	0.67853 0.08499 0.76046 0.04100
H 	H 	0.68156 0.11295 0.81621 0.03900
H 	H 	0.86887 0.45078 0.81919 0.04100
H 	H 	0.86438 0.42298 0.76345 0.04200
C 	C 	0.57956 0.36605 0.15982 -0.00800
C 	C 	0.47387 0.29564 0.16616 -0.03200
C 	C 	0.45797 0.29346 0.19659 -0.04400
C 	C 	0.54800 0.36119 0.22087 0.00800
C 	C 	0.65251 0.43655 0.21435 -0.04400
C 	C 	0.66810 0.43905 0.18392 -0.03100
C 	C 	0.53584 0.34400 0.25275 0.00800
C 	C 	0.49876 0.24510 0.26007 -0.04300
C 	C 	0.50340 0.23315 0.29074 -0.03200
C 	C 	0.54547 0.31992 0.31434 -0.00800
C 	C 	0.57722 0.41723 0.30708 -0.03200
C 	C 	0.57211 0.42921 0.27636 -0.04400
C 	C 	0.56683 0.31205 0.34574 0.04300
C 	C 	0.58351 0.30232 0.37173 -0.10600
C 	C 	0.59960 0.35338 0.12938 0.04400
C 	C 	0.61629 0.34272 0.10390 -0.10700
H 	H 	0.40481 0.23960 0.14763 0.03800
H 	H 	0.37662 0.23617 0.20132 0.04000
H 	H 	0.47057 0.17876 0.24207 0.03900
H 	H 	0.47813 0.15752 0.29618 0.03800
C 	C 	0.82928 0.11714 0.49210 -0.11800
C 	C 	0.87705 0.07902 0.49306 0.04500
C 	C 	0.29674 0.12600 0.49747 -0.10300
C 	C 	0.20012 0.08315 0.49521 0.04100
C 	C 	0.82180 0.11693 0.98326 -0.10700
C 	C 	0.85222 0.06220 0.98028 0.03700
C 	C 	0.18241 0.09732 0.96968 0.04600
C 	C 	0.27879 0.15581 0.96951 -0.11100
C 	C 	0.92633 0.02593 0.49370 -0.00000
H 	H 	0.77481 0.39266 0.51514 0.16000
H 	H 	0.60912 0.48450 0.32521 0.03900
H 	H 	0.59964 0.50552 0.27096 0.04000
O 	O 	0.67484 0.47725 0.97912 -0.39500
H 	H 	0.72253 0.48961 0.23287 0.04000
H 	H 	0.74993 0.49437 0.17918 0.03800
O 	O 	0.84222 0.51726 0.97546 -0.35100
O 	O 	0.66579 0.47919 0.47565 -0.38100
O 	O 	0.71096 0.52756 0.52822 -0.39300
C 	C 	0.78085 0.54843 0.98068 0.28500
C 	C 	0.72435 0.55216 0.50078 0.31100
C 	C 	0.01722 0.92397 0.97391 -0.04800
C 	C 	0.90872 0.85979 0.97836 0.00800
C 	C 	0.85076 0.90299 0.98006 -0.05100
H 	H 	0.06253 0.89200 0.97315 0.04800
H 	H 	0.76707 0.85450 0.98397 0.04700
C 	C 	0.86042 0.91688 0.49417 -0.04600
C 	C 	0.90616 0.86335 0.49413 0.00200
C 	C 	0.01742 0.91798 0.49339 -0.04600
H 	H 	0.77369 0.87387 0.49468 0.04900
H 	H 	0.05266 0.87604 0.49361 0.04700
C 	C 	0.78665 0.66123 0.49825 -0.11100
C 	C 	0.84022 0.75331 0.49623 0.04600
C 	C 	0.82420 0.65836 0.98109 -0.09500
C 	C 	0.85824 0.74930 0.98038 0.03400
