data_crystal

_cell_length_a 18.34561
_cell_length_b 18.70441
_cell_length_c 33.77009
_cell_angle_alpha 95.42546
_cell_angle_beta  95.42649
_cell_angle_gamma 126.39861

_symmetry_space_group_name_	'P 1'
_symmetry_space_group_name_H-M	'P 1'

loop_
_symmetry_equiv_pos_as_xyz
  x,y,z

loop_
_atom_site_label
_atom_site_type_symbol
_atom_site_fract_x
_atom_site_fract_y
_atom_site_fract_z
_atom_site_charge
C 	C 	0.89235 0.98993 0.95893 0.15900
N 	N 	0.84515 0.90032 0.96008 -0.12400
C 	C 	0.88840 0.86138 0.95717 0.15300
N 	N 	0.97834 0.91215 0.95375 -0.13800
C 	C 	0.02544 0.00138 0.95317 0.16600
N 	N 	0.98217 0.03993 0.95516 -0.13100
C 	C 	0.95598 0.03992 0.50051 0.14100
N 	N 	0.04791 0.09011 0.50042 -0.12200
C 	C 	0.09281 0.05365 0.50651 0.15000
N 	N 	0.04539 0.96661 0.51180 -0.11400
C 	C 	0.95360 0.91646 0.51183 0.14300
N 	N 	0.90896 0.95310 0.50601 -0.12500
Cu	Cu	0.75666 0.34256 0.96184 0.93000
Cu	Cu	0.74590 0.29474 0.05331 0.88600
Cu	Cu	0.59572 0.28467 0.00480 0.90100
Cu	Cu	0.57801 0.31213 0.91919 0.90600
C 	C 	0.70200 0.29475 0.87476 0.29400
O 	O 	0.80054 0.46894 0.95496 -0.34000
C 	C 	0.64433 0.33658 0.09455 0.29000
O 	O 	0.61177 0.25677 0.95185 -0.63900
O 	O 	0.73316 0.36098 0.01640 -0.64000
O 	O 	0.82765 0.29553 0.97557 -0.35900
O 	O 	0.72894 0.20323 0.01469 -0.41600
O 	O 	0.65272 0.32486 0.87712 -0.35600
O 	O 	0.46324 0.20395 0.99028 -0.37200
C 	C 	0.41379 0.20179 0.95844 0.31500
C 	C 	0.74970 0.49579 0.96103 0.30100
O 	O 	0.66303 0.43649 0.96344 -0.38200
O 	O 	0.45229 0.25447 0.93168 -0.36700
O 	O 	0.75687 0.30557 0.90698 -0.34900
C 	C 	0.79083 0.22316 0.99219 0.30900
O 	O 	0.57895 0.29287 0.06165 -0.37300
O 	O 	0.72558 0.35480 0.09447 -0.40200
H 	H 	0.57944 0.19152 0.94184 0.17800
H 	H 	0.76291 0.42469 0.02859 0.17900
Cu	Cu	0.62133 0.19893 0.50072 0.93100
Cu	Cu	0.67205 0.21912 0.40951 0.88600
Cu	Cu	0.69133 0.36674 0.46422 0.90500
Cu	Cu	0.66286 0.37417 0.55097 0.90000
C 	C 	0.66832 0.23802 0.58771 0.29000
O 	O 	0.49598 0.16292 0.50878 -0.34900
C 	C 	0.63750 0.33208 0.37528 0.29400
O 	O 	0.71516 0.34073 0.51535 -0.63700
O 	O 	0.60816 0.23231 0.44836 -0.64200
O 	O 	0.65790 0.12189 0.48231 -0.36000
O 	O 	0.75915 0.22098 0.44582 -0.41300
O 	O 	0.63987 0.28849 0.58822 -0.37300
O 	O 	0.77485 0.49557 0.48309 -0.36400
C 	C 	0.76552 0.53876 0.51292 0.31200
C 	C 	0.47272 0.21653 0.50426 0.30200
O 	O 	0.53688 0.30336 0.50610 -0.37300
O 	O 	0.73766 0.50450 0.54577 -0.37700
O 	O 	0.65532 0.18738 0.55376 -0.35200
C 	C 	0.73221 0.15572 0.46636 0.30800
O 	O 	0.68823 0.39246 0.40903 -0.36200
O 	O 	0.61724 0.25097 0.37109 -0.39600
H 	H 	0.78076 0.36799 0.52500 0.17200
H 	H 	0.54429 0.20730 0.43645 0.19400
C 	C 	0.74929 0.30852 0.76556 -0.00100
C 	C 	0.79368 0.32646 0.73232 -0.04500
C 	C 	0.74576 0.26212 0.69625 0.02500
C 	C 	0.65971 0.17895 0.69521 0.00300
C 	C 	0.61546 0.16139 0.72859 -0.04700
C 	C 	0.66300 0.22638 0.76439 0.02900
S 	S 	0.80122 0.35407 0.81366 0.07200
C 	C 	0.71665 0.27402 0.83479 -0.06500
C 	C 	0.64351 0.20767 0.80334 -0.01800
S 	S 	0.60543 0.13667 0.64728 0.06000
C 	C 	0.68866 0.21741 0.62606 -0.06700
C 	C 	0.76196 0.28400 0.65734 -0.01700
H 	H 	0.86110 0.38981 0.73385 0.05800
H 	H 	0.54754 0.09862 0.72703 0.06100
H 	H 	0.57849 0.14918 0.80837 0.05000
H 	H 	0.81708 0.35092 0.65289 0.04200
C 	C 	0.65313 0.41980 0.27410 0.00100
C 	C 	0.70190 0.44723 0.24215 -0.04900
C 	C 	0.65972 0.38900 0.20440 0.02100
C 	C 	0.57401 0.30481 0.19954 0.00100
C 	C 	0.52461 0.27687 0.23103 -0.04800
C 	C 	0.56748 0.33367 0.26929 0.02500
S 	S 	0.70280 0.45128 0.32258 0.05300
C 	C 	0.61873 0.36155 0.33952 -0.06100
C 	C 	0.54823 0.30096 0.30611 -0.01500
S 	S 	0.53115 0.26464 0.15043 0.04700
C 	C 	0.62046 0.35036 0.13334 -0.07000
C 	C 	0.68722 0.41459 0.16724 -0.01600
H 	H 	0.76989 0.51144 0.24657 0.05500
H 	H 	0.45811 0.21114 0.22668 0.05800
H 	H 	0.49321 0.23123 0.30715 0.05800
H 	H 	0.75383 0.47534 0.16514 0.05000
C 	C 	0.87520 0.69971 0.54746 -0.01500
C 	C 	0.80789 0.63492 0.51403 -0.09100
C 	C 	0.78426 0.66298 0.48114 0.13900
C 	C 	0.83127 0.75520 0.48108 -0.06500
C 	C 	0.90094 0.82001 0.51381 -0.01400
C 	C 	0.92121 0.79193 0.54764 0.09000
Br	Br	0.00833 0.87806 0.59505 -0.16400
H 	H 	0.89258 0.67847 0.57314 0.06600
H 	H 	0.81419 0.77654 0.45535 0.08000
Br	Br	0.68538 0.57649 0.43685 -0.22000
C 	C 	0.82130 0.13030 0.51519 -0.01900
C 	C 	0.79045 0.12693 0.47493 -0.09500
C 	C 	0.81804 0.09887 0.44323 0.14100
C 	C 	0.87637 0.07517 0.45212 -0.06600
C 	C 	0.90614 0.07742 0.49230 -0.01800
C 	C 	0.87894 0.10573 0.52398 0.09900
Br	Br	0.92032 0.11173 0.57944 -0.19500
H 	H 	0.80105 0.15264 0.53970 0.06900
H 	H 	0.89612 0.05212 0.42764 0.07700
Br	Br	0.77171 0.08619 0.38753 -0.26000
C 	C 	0.34644 0.17202 0.54185 -0.01800
C 	C 	0.37734 0.18268 0.50491 -0.09100
C 	C 	0.31644 0.15973 0.46894 0.13900
C 	C 	0.22413 0.12189 0.47001 -0.06300
C 	C 	0.19231 0.10751 0.50677 -0.01700
C 	C 	0.25463 0.13553 0.54299 0.10000
Br	Br	0.21606 0.12654 0.59436 -0.17700
H 	H 	0.39376 0.19180 0.56973 0.06500
H 	H 	0.17659 0.10132 0.44209 0.08000
Br	Br	0.35747 0.17794 0.41808 -0.24200
C 	C 	0.82736 0.70899 0.92198 -0.06200
C 	C 	0.83826 0.76414 0.95680 -0.02000
C 	C 	0.81965 0.73045 0.99309 0.10100
C 	C 	0.79306 0.64344 0.99446 -0.01900
C 	C 	0.78599 0.58988 0.96003 -0.09200
C 	C 	0.80219 0.62267 0.92347 0.13700
Br	Br	0.78975 0.55054 0.87510 -0.22200
H 	H 	0.84201 0.73470 0.89402 0.08100
H 	H 	0.77827 0.61761 0.02238 0.05800
Br	Br	0.83352 0.80349 0.04146 -0.20700
C 	C 	0.85744 0.06934 0.00692 -0.06300
C 	C 	0.85058 0.03563 0.96676 -0.01700
C 	C 	0.82248 0.06257 0.93489 0.10000
C 	C 	0.80463 0.12507 0.94344 -0.01800
C 	C 	0.81458 0.16116 0.98368 -0.09200
C 	C 	0.84114 0.13288 0.01557 0.14100
Br	Br	0.86335 0.18587 0.07112 -0.25900
H 	H 	0.88061 0.05002 0.03155 0.09100
H 	H 	0.78257 0.14518 0.91878 0.07000
Br	Br	0.80899 0.01527 0.87949 -0.20700
C 	C 	0.15668 0.04126 0.92037 -0.06400
C 	C 	0.12460 0.05721 0.95359 -0.02000
C 	C 	0.18783 0.12062 0.98843 0.10300
C 	C 	0.28225 0.16756 0.98964 -0.01500
C 	C 	0.31438 0.15121 0.95653 -0.09100
C 	C 	0.25115 0.08752 0.92174 0.14200
Br	Br	0.29201 0.05872 0.87685 -0.23000
H 	H 	0.10800 0.99148 0.89376 0.08900
H 	H 	0.33081 0.21664 0.01644 0.06900
Br	Br	0.14646 0.14081 0.03544 -0.19700
