data_crystal

_cell_length_a 28.71970
_cell_length_b 27.52886
_cell_length_c 30.10513
_cell_angle_alpha 89.93177
_cell_angle_beta  89.92419
_cell_angle_gamma 90.89907

_symmetry_space_group_name_	'P 1'
_symmetry_space_group_name_H-M	'P 1'

loop_
_symmetry_equiv_pos_as_xyz
  x,y,z

loop_
_atom_site_label
_atom_site_type_symbol
_atom_site_fract_x
_atom_site_fract_y
_atom_site_fract_z
_atom_site_charge
Zn	Zn	0.48636 0.46907 0.00969 1.22400
C 	C 	0.53619 0.55863 0.99135 0.29900
O 	O 	0.52461 0.44301 0.05753 -0.47200
O 	O 	0.51013 0.57665 0.02308 -0.43700
O 	O 	0.56222 0.51070 0.08093 -0.48400
C 	C 	0.41520 0.53150 0.03934 0.35500
O 	O 	0.43417 0.51245 0.00390 -0.45100
O 	O 	0.43594 0.52732 0.07801 -0.50200
C 	C 	0.56366 0.46536 0.06795 0.29600
O 	O 	0.43079 0.40726 0.02236 -0.32600
Zn	Zn	0.50228 0.54275 0.08376 1.17500
O 	O 	0.53359 0.51197 0.98166 -0.42200
C 	C 	0.44705 0.38733 0.98670 0.26600
O 	O 	0.48069 0.41112 0.96732 -0.37400
Zn	Zn	0.33874 0.10749 0.01641 1.22100
C 	C 	0.38788 0.09467 0.09917 0.30900
O 	O 	0.27132 0.10294 0.02861 -0.45400
O 	O 	0.38214 0.14097 0.10778 -0.44000
O 	O 	0.27993 0.11822 0.10239 -0.48700
C 	C 	0.37506 0.20425 0.01829 0.35000
O 	O 	0.38638 0.15869 0.01266 -0.45400
O 	O 	0.33982 0.21535 0.04389 -0.51100
C 	C 	0.25479 0.10131 0.06936 0.29000
O 	O 	0.32427 0.12317 0.94022 -0.32500
Zn	Zn	0.32017 0.17453 0.09337 1.17300
O 	O 	0.36229 0.07303 0.06870 -0.43900
C 	C 	0.33860 0.07917 0.93396 0.30000
O 	O 	0.35018 0.05610 0.96962 -0.38800
C 	C 	0.54691 0.94744 0.26714 0.14600
C 	C 	0.51795 0.97902 0.24381 -0.12200
H 	H 	0.49477 0.00264 0.26187 0.07500
C 	C 	0.51849 0.97966 0.19728 0.07200
C 	C 	0.54817 0.94871 0.17404 -0.10600
C 	C 	0.57691 0.91673 0.19725 0.07400
C 	C 	0.57624 0.91609 0.24385 -0.11900
H 	H 	0.59819 0.89125 0.26192 0.07300
N 	N 	0.54578 0.94659 0.31487 -0.18300
C 	C 	0.51796 0.91305 0.33631 0.19700
C 	C 	0.51211 0.91535 0.38272 -0.08200
C 	C 	0.53440 0.95275 0.40666 0.06100
C 	C 	0.56550 0.98449 0.38465 -0.08300
C 	C 	0.57078 0.98084 0.33825 0.19500
C 	C 	0.48538 0.88018 0.40547 0.01000
C 	C 	0.47916 0.88348 0.45134 -0.05800
C 	C 	0.49631 0.92438 0.47501 0.01400
C 	C 	0.52638 0.95776 0.45287 -0.02700
C 	C 	0.54994 0.99490 0.47684 0.00900
C 	C 	0.59162 0.01849 0.40928 0.01100
C 	C 	0.58527 0.02237 0.45511 -0.05500
C 	C 	0.48592 0.93137 0.52079 0.01700
C 	C 	0.50936 0.96866 0.54471 -0.03200
C 	C 	0.53930 0.00211 0.52251 0.02200
O 	O 	0.59918 0.01104 0.31709 -0.20600
O 	O 	0.49574 0.87926 0.31325 -0.20700
H 	H 	0.61792 0.04108 0.39325 0.04200
H 	H 	0.60948 0.04486 0.47365 0.04400
H 	H 	0.47054 0.84928 0.38794 0.04100
H 	H 	0.46319 0.85297 0.46840 0.04500
C 	C 	0.55600 0.04334 0.54597 -0.06000
C 	C 	0.54941 0.04702 0.59178 0.01100
C 	C 	0.52297 0.01172 0.61467 -0.08000
C 	C 	0.50132 0.97375 0.59091 0.06000
C 	C 	0.45099 0.90351 0.54272 -0.05800
C 	C 	0.44498 0.90720 0.58860 0.01100
C 	C 	0.47082 0.94154 0.61309 -0.08100
C 	C 	0.51678 0.01439 0.66102 0.19900
N 	N 	0.48984 0.98025 0.68267 -0.18100
C 	C 	0.46576 0.94511 0.65951 0.19700
C 	C 	0.48863 0.97983 0.73041 0.13100
C 	C 	0.52404 0.95695 0.75423 -0.09400
C 	C 	0.52266 0.95564 0.80078 0.03100
C 	C 	0.48558 0.97711 0.82342 -0.07200
C 	C 	0.45024 0.00027 0.79974 0.03200
C 	C 	0.45185 0.00177 0.75320 -0.09000
O 	O 	0.53765 0.04931 0.68381 -0.20300
O 	O 	0.43863 0.91388 0.68093 -0.20200
H 	H 	0.55254 0.94031 0.73652 0.06700
H 	H 	0.42459 0.01958 0.73475 0.06900
H 	H 	0.57194 0.07378 0.52876 0.04600
H 	H 	0.56385 0.07822 0.60915 0.04300
H 	H 	0.42678 0.88090 0.52433 0.04600
H 	H 	0.41903 0.88428 0.60477 0.04400
H 	H 	0.48420 0.97579 0.85942 0.05400
H 	H 	0.54827 0.94884 0.13802 0.06200
Zn	Zn	0.68108 0.80527 0.98043 1.22500
C 	C 	0.67601 0.79729 0.07522 0.30500
O 	O 	0.72848 0.85239 0.00062 -0.44700
O 	O 	0.72038 0.78652 0.07705 -0.44700
O 	O 	0.78541 0.79590 0.99900 -0.49700
C 	C 	0.67566 0.70142 0.97982 0.35700
O 	O 	0.67851 0.74031 0.95465 -0.46900
O 	O 	0.69852 0.69996 0.01749 -0.50500
C 	C 	0.77274 0.84141 0.00182 0.29800
O 	O 	0.68778 0.83540 0.90685 -0.32500
Zn	Zn	0.75075 0.74391 0.02883 1.16900
O 	O 	0.65263 0.79036 0.03825 -0.43700
C 	C 	0.64804 0.85534 0.91500 0.29900
O 	O 	0.63069 0.84722 0.95397 -0.38300
Zn	Zn	0.18240 0.70533 0.98102 1.22300
C 	C 	0.17717 0.70499 0.07640 0.30900
O 	O 	0.18044 0.77301 0.96004 -0.45900
O 	O 	0.22131 0.71777 0.07979 -0.44500
O 	O 	0.20059 0.80668 0.02636 -0.49000
C 	C 	0.27292 0.66974 0.00162 0.29500
O 	O 	0.22874 0.65750 0.99792 -0.43800
O 	O 	0.28562 0.71566 0.99975 -0.49500
C 	C 	0.17881 0.80938 0.98816 0.30200
O 	O 	0.19010 0.67780 0.90676 -0.32500
Zn	Zn	0.25296 0.76394 0.03418 1.17100
O 	O 	0.15415 0.71401 0.03975 -0.44300
C 	C 	0.14682 0.66432 0.91115 0.29900
O 	O 	0.12813 0.67271 0.94939 -0.39100
C 	C 	0.99860 0.53337 0.71943 0.11500
C 	C 	0.03104 0.56003 0.74464 -0.08400
H 	H 	0.05817 0.58106 0.72809 0.06800
C 	C 	0.02815 0.55983 0.79110 0.04900
C 	C 	0.99310 0.53244 0.81236 -0.10300
C 	C 	0.96064 0.50568 0.78722 0.06800
C 	C 	0.96310 0.50663 0.74070 -0.10800
H 	H 	0.93792 0.48624 0.72112 0.07000
N 	N 	0.00184 0.53339 0.67181 -0.16800
C 	C 	0.02974 0.50035 0.65113 0.20000
C 	C 	0.03467 0.50091 0.60459 -0.08200
C 	C 	0.00942 0.53447 0.57943 0.07300
C 	C 	0.98204 0.56895 0.60125 -0.09300
C 	C 	0.97813 0.56740 0.64786 0.18900
C 	C 	0.06599 0.47003 0.58324 0.01200
C 	C 	0.07115 0.47152 0.53718 -0.05600
C 	C 	0.04201 0.50095 0.51093 0.01400
C 	C 	0.01271 0.53453 0.53246 -0.01600
C 	C 	0.98835 0.56964 0.50755 0.00200
C 	C 	0.96076 0.60570 0.57655 0.01000
C 	C 	0.96549 0.60728 0.53046 -0.05700
C 	C 	0.04332 0.49935 0.46369 0.02000
C 	C 	0.01900 0.53451 0.43882 -0.02500
C 	C 	0.98946 0.56783 0.46034 0.01000
O 	O 	0.95163 0.59884 0.66860 -0.20400
O 	O 	0.05206 0.46793 0.67495 -0.20000
H 	H 	0.94189 0.63426 0.59310 0.04200
H 	H 	0.95353 0.63914 0.51319 0.04300
H 	H 	0.08782 0.44605 0.60239 0.04400
H 	H 	0.09951 0.45179 0.52255 0.04600
C 	C 	0.96002 0.59694 0.43411 -0.06600
C 	C 	0.96531 0.59866 0.38807 0.02400
C 	C 	0.99721 0.56839 0.36676 -0.12400
C 	C 	0.02265 0.53496 0.39189 0.08700
C 	C 	0.06654 0.46201 0.44068 -0.06100
C 	C 	0.07184 0.46415 0.39464 0.01600
C 	C 	0.05067 0.50107 0.37006 -0.09200
C 	C 	0.00271 0.56956 0.32029 0.23600
N 	N 	0.03180 0.53759 0.29968 -0.18900
C 	C 	0.05544 0.50345 0.32355 0.20500
C 	C 	0.03672 0.53916 0.25221 0.14600
C 	C 	0.00777 0.51007 0.22543 -0.10600
C 	C 	0.01142 0.51269 0.17906 0.08600
C 	C 	0.04424 0.54436 0.15952 -0.10900
C 	C 	0.07270 0.57409 0.18622 0.07600
C 	C 	0.06906 0.57127 0.23258 -0.12000
O 	O 	0.97987 0.60157 0.29648 -0.22700
O 	O 	0.08288 0.47286 0.30285 -0.20800
H 	H 	0.98201 0.48615 0.24068 0.06100
H 	H 	0.09070 0.59449 0.25334 0.07400
H 	H 	0.93140 0.61627 0.44876 0.04600
H 	H 	0.94327 0.62242 0.36892 0.03500
H 	H 	0.07833 0.42996 0.45775 0.04700
H 	H 	0.09107 0.43589 0.37803 0.04100
H 	H 	0.04655 0.54704 0.12364 0.06600
H 	H 	0.99094 0.53215 0.84833 0.05900
Zn	Zn	0.83540 0.38892 0.99085 1.22300
C 	C 	0.82850 0.40338 0.89672 0.30900
O 	O 	0.77377 0.39230 0.01918 -0.47400
O 	O 	0.81332 0.35871 0.89039 -0.44100
O 	O 	0.73494 0.37970 0.95431 -0.48000
C 	C 	0.86188 0.29305 0.96446 0.30400
O 	O 	0.87544 0.33881 0.96647 -0.44800
O 	O 	0.81735 0.28158 0.96279 -0.49700
C 	C 	0.73533 0.39449 0.99575 0.35400
O 	O 	0.87010 0.37272 0.06077 -0.32200
Zn	Zn	0.77138 0.32399 0.93661 1.17500
O 	O 	0.82290 0.42416 0.93552 -0.43900
C 	C 	0.88547 0.41723 0.05796 0.26800
O 	O 	0.87370 0.44063 0.02258 -0.39100
Zn	Zn	0.99723 0.04188 0.02987 1.21900
C 	C 	0.04471 0.95290 0.00945 0.33500
O 	O 	0.94357 0.00110 0.01376 -0.44900
O 	O 	0.01386 0.93233 0.03610 -0.44000
O 	O 	0.93430 0.97554 0.08501 -0.51500
C 	C 	0.06555 0.03786 0.09783 0.35500
O 	O 	0.03030 0.06270 0.08300 -0.47400
O 	O 	0.05963 0.99163 0.10684 -0.48400
C 	C 	0.91928 0.97738 0.04388 0.35800
O 	O 	0.94758 0.10743 0.04343 -0.32100
Zn	Zn	0.99916 0.96046 0.09789 1.16700
O 	O 	0.04607 0.00051 0.00455 -0.42000
C 	C 	0.96413 0.12523 0.00670 0.29500
O 	O 	0.99418 0.09872 0.98617 -0.38200
C 	C 	0.89623 0.25429 0.96846 -0.03100
C 	C 	0.89191 0.21246 0.94208 -0.03600
C 	C 	0.91785 0.17131 0.95202 0.02400
C 	C 	0.94785 0.17147 0.98870 -0.12300
C 	C 	0.95526 0.21472 0.01274 0.18800
C 	C 	0.92951 0.25604 0.00249 -0.09900
H 	H 	0.91242 0.13836 0.93293 0.03300
H 	H 	0.93358 0.28847 0.02259 0.07400
H 	H 	0.86701 0.21113 0.91509 0.03700
O 	O 	0.98542 0.21573 0.04804 -0.30100
H 	H 	0.01596 0.22573 0.03531 0.16000
C 	C 	0.85777 0.42744 0.86288 -0.06400
C 	C 	0.85322 0.47726 0.85479 -0.00700
C 	C 	0.88565 0.50194 0.82816 -0.02800
C 	C 	0.92350 0.47733 0.80980 -0.04700
C 	C 	0.92732 0.42650 0.81639 0.08700
C 	C 	0.89389 0.40190 0.84254 -0.04800
H 	H 	0.88226 0.54069 0.82296 0.03900
H 	H 	0.89731 0.36330 0.84873 0.05300
H 	H 	0.82514 0.49714 0.87003 0.04100
N 	N 	0.96334 0.40143 0.79868 -0.19800
H 	H 	0.98923 0.41862 0.77976 0.09300
H 	H 	0.96581 0.36401 0.80387 0.08600
C 	C 	0.91502 0.43967 0.09238 -0.04500
C 	C 	0.90979 0.48885 0.10287 -0.01800
C 	C 	0.94064 0.51185 0.13206 -0.02100
C 	C 	0.97754 0.48622 0.15087 -0.06400
C 	C 	0.98250 0.43610 0.14129 0.08300
C 	C 	0.95067 0.41310 0.11234 -0.05500
H 	H 	0.93639 0.55003 0.13952 0.03100
H 	H 	0.95466 0.37501 0.10424 0.05400
H 	H 	0.88202 0.50946 0.08797 0.03900
N 	N 	0.01794 0.41021 0.15901 -0.19200
H 	H 	0.04275 0.42637 0.17980 0.09500
H 	H 	0.02116 0.37328 0.15180 0.09200
C 	C 	0.14765 0.85016 0.97968 -0.03700
C 	C 	0.10146 0.84110 0.96670 -0.03500
C 	C 	0.06821 0.87730 0.97134 0.03000
C 	C 	0.08087 0.92272 0.98920 -0.14100
C 	C 	0.12830 0.93363 0.99680 0.20100
C 	C 	0.16154 0.89737 0.99173 -0.09500
H 	H 	0.03201 0.86890 0.96416 0.04300
H 	H 	0.19761 0.90517 0.99998 0.06200
H 	H 	0.09060 0.80507 0.95610 0.04600
O 	O 	0.14192 0.97879 0.01143 -0.29100
H 	H 	0.14340 0.97588 0.04422 0.15400
C 	C 	0.06077 0.58965 0.81751 0.03900
C 	C 	0.10503 0.57221 0.82775 -0.07600
C 	C 	0.13450 0.59858 0.85603 0.04000
C 	C 	0.11996 0.64264 0.87441 -0.12700
C 	C 	0.07670 0.66222 0.86136 0.14900
C 	C 	0.04695 0.63488 0.83370 -0.11300
H 	H 	0.16784 0.58371 0.86523 0.03100
H 	H 	0.01315 0.64886 0.82470 0.06700
H 	H 	0.11608 0.53753 0.81480 0.05700
N 	N 	0.06416 0.70750 0.87434 -0.20500
H 	H 	0.08750 0.73067 0.89081 0.10000
H 	H 	0.03141 0.72086 0.86610 0.09200
C 	C 	0.15457 0.67639 0.11180 -0.06500
C 	C 	0.10941 0.68773 0.12550 -0.00700
C 	C 	0.08406 0.65551 0.15235 -0.02700
C 	C 	0.10328 0.61122 0.16542 -0.05000
C 	C 	0.15004 0.60092 0.15413 0.08800
C 	C 	0.17541 0.63390 0.12739 -0.04900
H 	H 	0.04856 0.66396 0.16141 0.04000
H 	H 	0.21057 0.62540 0.11714 0.05100
H 	H 	0.09332 0.72079 0.11403 0.03800
N 	N 	0.17045 0.55940 0.16824 -0.19800
H 	H 	0.15300 0.53483 0.18908 0.09200
H 	H 	0.20463 0.55169 0.15899 0.08500
C 	C 	0.80812 0.87971 0.00894 -0.04300
C 	C 	0.80142 0.91515 0.04172 -0.04700
C 	C 	0.83746 0.94781 0.05245 0.03600
C 	C 	0.88021 0.94581 0.03001 -0.17400
C 	C 	0.88632 0.91147 0.99588 0.20600
C 	C 	0.85042 0.87841 0.98572 -0.09700
H 	H 	0.83236 0.97422 0.07860 0.02300
H 	H 	0.85578 0.85122 0.96029 0.06800
H 	H 	0.76889 0.91634 0.05993 0.04600
O 	O 	0.92832 0.90818 0.97440 -0.29900
H 	H 	0.92557 0.92916 0.94775 0.15700
C 	C 	0.55983 0.93151 0.82597 0.04300
C 	C 	0.56751 0.88175 0.82023 -0.07900
C 	C 	0.59894 0.85768 0.84758 0.04200
C 	C 	0.62280 0.88296 0.88120 -0.12800
C 	C 	0.61737 0.93382 0.88538 0.14700
C 	C 	0.58563 0.95766 0.85773 -0.11500
H 	H 	0.60322 0.81884 0.84393 0.02800
H 	H 	0.58057 0.99642 0.86132 0.06300
H 	H 	0.54796 0.86138 0.79555 0.05600
N 	N 	0.64264 0.95985 0.91553 -0.20700
H 	H 	0.66848 0.94370 0.93464 0.09900
H 	H 	0.63750 0.99713 0.91921 0.08800
C 	C 	0.65404 0.82299 0.11236 -0.06400
C 	C 	0.60846 0.81071 0.12518 -0.00900
C 	C 	0.58463 0.83982 0.15528 -0.02700
C 	C 	0.60578 0.88204 0.17247 -0.05000
C 	C 	0.65277 0.89332 0.16149 0.08600
C 	C 	0.67662 0.86334 0.13159 -0.04900
H 	H 	0.54889 0.83068 0.16386 0.03800
H 	H 	0.71206 0.87259 0.12193 0.04800
H 	H 	0.59099 0.77927 0.11086 0.03900
N 	N 	0.67482 0.93305 0.17886 -0.19800
H 	H 	0.65842 0.95557 0.20173 0.09100
H 	H 	0.70919 0.94149 0.16993 0.08300
C 	C 	0.20626 0.08576 0.07733 -0.03500
C 	C 	0.17118 0.09949 0.04772 -0.04300
C 	C 	0.12485 0.08623 0.05596 0.04500
C 	C 	0.11309 0.05825 0.09349 -0.16400
C 	C 	0.14808 0.04558 0.12395 0.20100
C 	C 	0.19451 0.05921 0.11569 -0.10200
H 	H 	0.09830 0.09615 0.03222 0.02700
H 	H 	0.22138 0.04885 0.13894 0.07100
H 	H 	0.17978 0.12067 0.01840 0.05100
O 	O 	0.13716 0.01899 0.16120 -0.29700
H 	H 	0.13026 0.04333 0.18447 0.14400
C 	C 	0.41183 0.02312 0.82405 0.04700
C 	C 	0.41354 0.07311 0.83266 -0.08100
C 	C 	0.38493 0.09288 0.86536 0.04200
C 	C 	0.35465 0.06269 0.89004 -0.13000
C 	C 	0.34837 0.01357 0.87718 0.15400
C 	C 	0.37773 0.99389 0.84468 -0.12200
H 	H 	0.38906 0.13090 0.87398 0.03400
H 	H 	0.37522 0.95554 0.83671 0.06700
H 	H 	0.43917 0.09609 0.81610 0.05600
N 	N 	0.31441 0.98532 0.89593 -0.20900
H 	H 	0.28986 0.00004 0.91749 0.10200
H 	H 	0.31108 0.94858 0.88757 0.08900
C 	C 	0.42101 0.06615 0.12549 -0.06300
C 	C 	0.41169 0.01689 0.13414 -0.00600
C 	C 	0.44363 0.98918 0.15762 -0.03300
C 	C 	0.48544 0.01019 0.17278 -0.04500
C 	C 	0.49516 0.06004 0.16438 0.08700
C 	C 	0.46254 0.08772 0.14091 -0.04900
H 	H 	0.43590 0.95116 0.16406 0.03900
H 	H 	0.46994 0.12572 0.13397 0.05700
H 	H 	0.37953 0.00002 0.12277 0.04100
N 	N 	0.53567 0.08132 0.17826 -0.19700
H 	H 	0.56103 0.06162 0.19495 0.09300
H 	H 	0.54235 0.11815 0.17211 0.08700
C 	C 	0.43763 0.33594 0.97745 -0.02000
C 	C 	0.39423 0.32220 0.95995 -0.04300
C 	C 	0.37577 0.27588 0.96857 0.03600
C 	C 	0.40060 0.24312 0.99484 -0.14400
C 	C 	0.44699 0.25424 0.00641 0.18400
C 	C 	0.46545 0.30071 0.99757 -0.08300
H 	H 	0.34059 0.26696 0.95806 0.03000
H 	H 	0.49967 0.31067 0.01006 0.06400
H 	H 	0.37301 0.34876 0.94321 0.04800
O 	O 	0.47254 0.22174 0.03042 -0.29300
H 	H 	0.48927 0.20228 0.00796 0.15100
C 	C 	0.30733 0.63300 0.01386 -0.04600
C 	C 	0.30433 0.58590 0.99626 -0.02000
C 	C 	0.33856 0.55197 0.00627 0.02000
C 	C 	0.37584 0.56470 0.03430 -0.15500
C 	C 	0.37781 0.61140 0.05339 0.20000
C 	C 	0.34371 0.64528 0.04303 -0.09400
H 	H 	0.33661 0.51611 0.99152 0.04100
H 	H 	0.34580 0.68131 0.05745 0.04800
H 	H 	0.27618 0.57592 0.97398 0.05000
O 	O 	0.41461 0.62502 0.07985 -0.32600
H 	H 	0.40431 0.61781 0.11066 0.13400
C 	C 	0.60856 0.44412 0.05436 -0.03700
C 	C 	0.65060 0.46991 0.06113 -0.04700
C 	C 	0.69202 0.45333 0.04237 0.04000
C 	C 	0.69196 0.41075 0.01681 -0.16700
C 	C 	0.65042 0.38346 0.01193 0.19800
C 	C 	0.60899 0.40018 0.03056 -0.10100
H 	H 	0.72397 0.47417 0.04694 0.02400
H 	H 	0.57705 0.37939 0.02570 0.07300
H 	H 	0.65107 0.50345 0.07989 0.04600
O 	O 	0.65007 0.34082 0.98836 -0.30300
H 	H 	0.65655 0.31511 0.01052 0.12700
C 	C 	0.57288 0.58944 0.97173 -0.02600
C 	C 	0.61964 0.57732 0.97815 -0.04900
C 	C 	0.65426 0.61357 0.97705 0.04200
C 	C 	0.64243 0.66202 0.96866 -0.16400
C 	C 	0.59650 0.67283 0.95605 0.20700
C 	C 	0.56194 0.63645 0.95759 -0.10000
H 	H 	0.68980 0.60450 0.98529 0.01800
H 	H 	0.52600 0.64574 0.95128 0.07800
H 	H 	0.62864 0.54074 0.98781 0.05500
O 	O 	0.58442 0.71971 0.94645 -0.29600
H 	H 	0.58812 0.72291 0.91381 0.15500
