data_crystal

_cell_length_a 26.08988
_cell_length_b 26.45742
_cell_length_c 26.48617
_cell_angle_alpha 95.47504
_cell_angle_beta  95.47338
_cell_angle_gamma 125.84009

_symmetry_space_group_name_	'P 1'
_symmetry_space_group_name_H-M	'P 1'

loop_
_symmetry_equiv_pos_as_xyz
  x,y,z

loop_
_atom_site_label
_atom_site_type_symbol
_atom_site_fract_x
_atom_site_fract_y
_atom_site_fract_z
_atom_site_charge
C 	C 	0.98296 0.05071 0.00106 0.12000
N 	N 	0.04364 0.07763 0.99231 -0.13600
C 	C 	0.06613 0.04252 0.98846 0.11900
N 	N 	0.02810 0.98091 0.99399 -0.13200
C 	C 	0.96726 0.95384 0.00184 0.13800
N 	N 	0.94486 0.98882 0.00565 -0.12900
C 	C 	0.93196 0.98448 0.44295 0.14700
N 	N 	0.99730 0.02185 0.45129 -0.14700
C 	C 	0.02879 0.99554 0.45620 0.14900
N 	N 	0.99495 0.93189 0.45280 -0.13700
C 	C 	0.92965 0.89429 0.44394 0.13000
N 	N 	0.89808 0.92064 0.43942 -0.13600
Cu	Cu	0.66010 0.27439 0.00834 0.92700
Cu	Cu	0.70285 0.26101 0.89843 0.87700
Cu	Cu	0.67551 0.36393 0.93620 0.91100
Cu	Cu	0.63367 0.37529 0.03519 0.89900
C 	C 	0.66665 0.32045 0.11423 0.28600
O 	O 	0.56319 0.22095 0.00462 -0.34900
C 	C 	0.70303 0.34539 0.83905 0.28300
O 	O 	0.69465 0.36903 0.00905 -0.63800
O 	O 	0.64849 0.27537 0.93323 -0.63100
O 	O 	0.72133 0.25157 0.01391 -0.36000
O 	O 	0.68837 0.19541 0.93208 -0.42100
O 	O 	0.62957 0.33629 0.09699 -0.37500
O 	O 	0.70788 0.45144 0.94163 -0.37100
C 	C 	0.70190 0.48305 0.97931 0.28600
C 	C 	0.52924 0.23896 0.98488 0.27900
O 	O 	0.55863 0.29677 0.97559 -0.39000
O 	O 	0.65845 0.45343 0.00868 -0.37700
O 	O 	0.68033 0.28993 0.08249 -0.35200
C 	C 	0.71793 0.20965 0.97976 0.28900
O 	O 	0.66793 0.35730 0.86212 -0.37200
O 	O 	0.73966 0.33476 0.86610 -0.42500
H 	H 	0.74004 0.40309 0.02543 0.16700
H 	H 	0.60316 0.24389 0.91546 0.16100
Cu	Cu	0.72253 0.31800 0.43070 0.92800
Cu	Cu	0.74681 0.28481 0.54288 0.87500
Cu	Cu	0.63714 0.28935 0.51201 0.89800
Cu	Cu	0.59505 0.30849 0.40837 0.90100
C 	C 	0.66666 0.30556 0.32778 0.28200
O 	O 	0.75961 0.40934 0.42671 -0.36200
C 	C 	0.70332 0.32418 0.62119 0.28100
O 	O 	0.62524 0.26682 0.43871 -0.63700
O 	O 	0.72995 0.33496 0.50655 -0.63900
O 	O 	0.76859 0.27865 0.42677 -0.35900
O 	O 	0.71930 0.21894 0.48684 -0.43300
O 	O 	0.61289 0.29471 0.33864 -0.37000
O 	O 	0.54553 0.23974 0.51185 -0.37100
C 	C 	0.50492 0.24148 0.47967 0.29100
C 	C 	0.73029 0.43399 0.43978 0.28800
O 	O 	0.67501 0.39915 0.45488 -0.38000
O 	O 	0.52569 0.28369 0.44913 -0.38400
O 	O 	0.69908 0.29170 0.35716 -0.35500
C 	C 	0.75259 0.23072 0.44978 0.29000
O 	O 	0.64898 0.29830 0.58809 -0.38100
O 	O 	0.75342 0.33111 0.60597 -0.41200
H 	H 	0.59797 0.22044 0.42575 0.17200
H 	H 	0.75689 0.38051 0.52263 0.17700
C 	C 	0.64880 0.32459 0.74869 -0.00900
C 	C 	0.70515 0.34850 0.78394 -0.07400
C 	C 	0.76242 0.37082 0.76582 -0.00900
C 	C 	0.76261 0.36612 0.71285 -0.01500
C 	C 	0.70525 0.33824 0.67722 -0.06400
C 	C 	0.64876 0.31940 0.69561 -0.01400
H 	H 	0.60443 0.30781 0.76225 0.04200
H 	H 	0.80661 0.39085 0.79274 0.04100
H 	H 	0.80707 0.38275 0.69954 0.04400
H 	H 	0.60437 0.29901 0.66886 0.05200
C 	C 	0.68711 0.36734 0.25767 -0.00900
C 	C 	0.67932 0.31540 0.27540 -0.05600
C 	C 	0.67555 0.26909 0.24102 -0.00400
C 	C 	0.67530 0.27256 0.18859 -0.00400
C 	C 	0.67895 0.32254 0.17024 -0.05800
C 	C 	0.68721 0.37106 0.20540 -0.00700
H 	H 	0.69108 0.40385 0.28411 0.04300
H 	H 	0.66979 0.22889 0.25440 0.05100
H 	H 	0.66926 0.23493 0.16200 0.05500
H 	H 	0.69150 0.41058 0.19195 0.03800
C 	C 	0.84685 0.61305 0.46635 -0.04200
C 	C 	0.81160 0.62891 0.43730 0.02800
C 	C 	0.75092 0.58062 0.40747 -0.06100
C 	C 	0.72462 0.51677 0.40698 0.02900
C 	C 	0.75912 0.50082 0.43707 -0.08500
C 	C 	0.82048 0.54913 0.46602 0.01600
C 	C 	0.83827 0.69613 0.43735 0.01100
C 	C 	0.87266 0.72623 0.39897 -0.04200
C 	C 	0.90000 0.79029 0.39921 -0.00100
C 	C 	0.89334 0.82494 0.43850 -0.01600
C 	C 	0.85674 0.79414 0.47569 -0.01800
C 	C 	0.82926 0.72998 0.47536 -0.02300
C 	C 	0.93420 0.81997 0.35868 0.09100
C 	C 	0.79263 0.69944 0.51451 0.09100
C 	C 	0.90986 0.66209 0.49679 0.09500
C 	C 	0.66293 0.46790 0.37453 0.05800
N 	N 	0.96161 0.84381 0.32626 -0.10200
N 	N 	0.76328 0.67492 0.54586 -0.10900
N 	N 	0.61352 0.42875 0.34854 -0.12200
N 	N 	0.96034 0.70142 0.52118 -0.11100
H 	H 	0.84723 0.53699 0.48891 0.03700
H 	H 	0.72422 0.59282 0.38458 0.05800
H 	H 	0.87850 0.69985 0.36914 0.05300
H 	H 	0.85119 0.82057 0.50572 0.05200
C 	C 	0.85449 0.06295 0.47920 -0.02900
C 	C 	0.84487 0.07990 0.43220 0.01500
C 	C 	0.86046 0.06203 0.38804 -0.04800
C 	C 	0.88686 0.02875 0.39067 0.00700
C 	C 	0.89805 0.01332 0.43800 -0.03200
C 	C 	0.88086 0.02968 0.48180 -0.01300
C 	C 	0.82040 0.11819 0.42940 0.02300
C 	C 	0.86428 0.18455 0.43777 -0.06000
C 	C 	0.84256 0.22206 0.44171 0.02400
C 	C 	0.77598 0.19286 0.43684 -0.08600
C 	C 	0.73198 0.12637 0.42573 0.01200
C 	C 	0.75380 0.08896 0.42187 -0.03800
C 	C 	0.88907 0.29035 0.45300 0.06700
C 	C 	0.70764 0.02064 0.41122 0.08300
C 	C 	0.83808 0.08019 0.52502 0.08800
C 	C 	0.90216 0.01044 0.34465 0.07500
N 	N 	0.92636 0.34506 0.46205 -0.11100
N 	N 	0.67070 0.96590 0.40270 -0.10000
N 	N 	0.91438 0.99572 0.30778 -0.09000
N 	N 	0.82491 0.09402 0.56171 -0.11700
H 	H 	0.88920 0.01759 0.51815 0.04500
H 	H 	0.85251 0.07449 0.35178 0.05600
H 	H 	0.91550 0.20703 0.44289 0.05700
H 	H 	0.68078 0.10376 0.42139 0.04000
C 	C 	0.34634 0.20611 0.49867 -0.04100
C 	C 	0.30463 0.13939 0.48466 0.02600
C 	C 	0.32991 0.10602 0.47369 -0.05900
C 	C 	0.39598 0.13881 0.47438 0.02500
C 	C 	0.43726 0.20575 0.48593 -0.08000
C 	C 	0.41231 0.23891 0.49913 0.01500
C 	C 	0.23403 0.10432 0.47842 0.01300
C 	C 	0.19930 0.09914 0.43191 -0.04500
C 	C 	0.13231 0.06504 0.42467 0.00300
C 	C 	0.09953 0.03573 0.46439 -0.03000
C 	C 	0.13437 0.04153 0.51112 -0.01400
C 	C 	0.20140 0.07579 0.51839 -0.02700
C 	C 	0.09741 0.05888 0.37588 0.08700
C 	C 	0.23637 0.08151 0.56694 0.09000
C 	C 	0.32167 0.24123 0.51218 0.09500
C 	C 	0.42066 0.10354 0.46152 0.06800
N 	N 	0.06947 0.05394 0.33679 -0.10200
N 	N 	0.26444 0.08613 0.60582 -0.11000
N 	N 	0.44045 0.07529 0.45121 -0.11400
N 	N 	0.30185 0.26932 0.52300 -0.11000
H 	H 	0.44416 0.29036 0.50886 0.04400
H 	H 	0.29789 0.05461 0.46356 0.05700
H 	H 	0.22446 0.12128 0.40122 0.05400
H 	H 	0.10919 0.01898 0.54168 0.04800
C 	C 	0.84089 0.65582 0.99383 -0.03900
C 	C 	0.80922 0.68441 0.99315 0.02700
C 	C 	0.74202 0.64667 0.98738 -0.06100
C 	C 	0.70612 0.58067 0.98220 0.02900
C 	C 	0.73796 0.55212 0.98369 -0.08000
C 	C 	0.80517 0.58998 0.98925 0.01100
C 	C 	0.84588 0.75362 0.99616 0.00900
C 	C 	0.85085 0.77761 0.95047 -0.04200
C 	C 	0.88925 0.84313 0.95205 0.00200
C 	C 	0.92338 0.88520 0.99979 -0.02600
C 	C 	0.91690 0.86131 0.04562 -0.01100
C 	C 	0.87806 0.79572 0.04409 -0.02000
C 	C 	0.89336 0.86693 0.90456 0.09200
C 	C 	0.87182 0.77192 0.09174 0.09300
C 	C 	0.91004 0.69379 0.99893 0.08900
C 	C 	0.63669 0.54253 0.97324 0.08100
N 	N 	0.89666 0.88607 0.86656 -0.09900
N 	N 	0.86679 0.75280 0.12989 -0.10800
N 	N 	0.58108 0.51202 0.96605 -0.10500
N 	N 	0.96543 0.72426 0.00302 -0.10600
H 	H 	0.82965 0.56807 0.99017 0.03500
H 	H 	0.71767 0.66869 0.98622 0.05800
H 	H 	0.82549 0.74516 0.91366 0.05500
H 	H 	0.94260 0.89379 0.08239 0.05200
C 	C 	0.90337 0.12196 0.04928 -0.02300
C 	C 	0.88488 0.13483 0.00339 0.01300
C 	C 	0.90563 0.12724 0.95828 -0.04600
C 	C 	0.94149 0.10345 0.95783 -0.00800
C 	C 	0.95712 0.08739 0.00309 -0.01100
C 	C 	0.93936 0.09833 0.04890 -0.02100
C 	C 	0.84147 0.15368 0.00157 0.03100
C 	C 	0.86786 0.21822 0.01038 -0.06400
C 	C 	0.82785 0.23720 0.00522 0.03200
C 	C 	0.76036 0.19098 0.99148 -0.09400
C 	C 	0.73395 0.12637 0.98405 0.01600
C 	C 	0.77408 0.10750 0.98907 -0.04600
C 	C 	0.85658 0.30411 0.01194 0.06200
C 	C 	0.74587 0.04068 0.98081 0.08300
C 	C 	0.88434 0.13152 0.09660 0.09000
C 	C 	0.95987 0.09331 0.91031 0.08700
N 	N 	0.87961 0.35771 0.01731 -0.11600
N 	N 	0.72334 0.98717 0.97422 -0.10200
N 	N 	0.97460 0.08515 0.87227 -0.10600
N 	N 	0.86905 0.13918 0.13448 -0.10900
H 	H 	0.95180 0.08648 0.08384 0.05000
H 	H 	0.89228 0.13818 0.92318 0.05000
H 	H 	0.91969 0.25370 0.02026 0.05800
H 	H 	0.68217 0.09081 0.97352 0.03800
C 	C 	0.35690 0.16765 0.93144 -0.04200
C 	C 	0.32696 0.14182 0.97325 0.02300
C 	C 	0.36182 0.13998 0.01580 -0.05600
C 	C 	0.42751 0.16834 0.01897 0.02900
C 	C 	0.45838 0.19701 0.97815 -0.08600
C 	C 	0.42205 0.19416 0.93379 0.01100
C 	C 	0.26000 0.11934 0.97398 0.00600
C 	C 	0.20871 0.06192 0.94233 -0.03700
C 	C 	0.14505 0.03861 0.94396 -0.01400
C 	C 	0.13226 0.07152 0.97953 -0.01500
C 	C 	0.18365 0.13025 0.00968 -0.01800
C 	C 	0.24733 0.15457 0.00673 -0.02000
C 	C 	0.09331 0.98219 0.90783 0.10600
C 	C 	0.29941 0.21572 0.03737 0.08900
C 	C 	0.32175 0.16923 0.88683 0.09200
C 	C 	0.46349 0.17100 0.06548 0.08100
N 	N 	0.05192 0.93699 0.87886 -0.10400
N 	N 	0.34118 0.26469 0.06189 -0.11000
N 	N 	0.49230 0.17318 0.10275 -0.10300
N 	N 	0.29355 0.17049 0.85111 -0.11000
H 	H 	0.44533 0.21528 0.90205 0.03700
H 	H 	0.33837 0.11884 0.04746 0.05700
H 	H 	0.21843 0.03557 0.91622 0.05100
H 	H 	0.17411 0.15629 0.03635 0.05200
