data_crystal

_cell_length_a 18.55370
_cell_length_b 18.94298
_cell_length_c 26.51377
_cell_angle_alpha 95.43109
_cell_angle_beta  95.43137
_cell_angle_gamma 126.41720

_symmetry_space_group_name_	'P 1'
_symmetry_space_group_name_H-M	'P 1'

loop_
_symmetry_equiv_pos_as_xyz
  x,y,z

loop_
_atom_site_label
_atom_site_type_symbol
_atom_site_fract_x
_atom_site_fract_y
_atom_site_fract_z
_atom_site_charge
C 	C 	0.94875 0.03725 0.00425 0.03600
C 	C 	0.89244 0.94540 0.00445 -0.07600
C 	C 	0.92822 0.89794 0.00193 0.03200
C 	C 	0.02056 0.94247 0.00041 -0.07100
C 	C 	0.07771 0.03463 0.00193 0.03400
C 	C 	0.04185 0.08221 0.00363 -0.07400
H 	H 	0.82050 0.91056 0.00496 0.05500
H 	H 	0.04810 0.90551 0.99835 0.04600
H 	H 	0.08566 0.15334 0.00363 0.05400
C 	C 	0.90565 0.99622 0.44612 0.02700
C 	C 	0.85887 0.90456 0.44703 -0.07200
C 	C 	0.90679 0.86826 0.44798 0.03500
C 	C 	0.00082 0.92378 0.44896 -0.07800
C 	C 	0.04695 0.01442 0.44771 0.03500
C 	C 	0.99921 0.05020 0.44528 -0.06800
H 	H 	0.78653 0.86241 0.44774 0.05200
H 	H 	0.03816 0.89638 0.45082 0.05200
H 	H 	0.03547 0.12076 0.44480 0.05100
Cu	Cu	0.62121 0.20791 0.01038 0.93000
Cu	Cu	0.68944 0.21842 0.89988 0.86700
Cu	Cu	0.65794 0.34488 0.94362 0.89600
Cu	Cu	0.61876 0.36830 0.04793 0.89600
C 	C 	0.65323 0.27388 0.11866 0.28700
O 	O 	0.48869 0.15147 0.01292 -0.35800
C 	C 	0.63709 0.29425 0.83147 0.28400
O 	O 	0.69080 0.34613 0.01483 -0.63700
O 	O 	0.60273 0.21552 0.93688 -0.64200
O 	O 	0.68060 0.14887 0.00424 -0.36600
O 	O 	0.77751 0.24630 0.95689 -0.44200
O 	O 	0.60877 0.30624 0.10673 -0.38500
O 	O 	0.72055 0.47217 0.95353 -0.38500
C 	C 	0.72193 0.52043 0.99352 0.29300
C 	C 	0.45056 0.18692 0.99535 0.28700
O 	O 	0.50208 0.26971 0.98851 -0.39800
O 	O 	0.66438 0.48290 0.02540 -0.38800
O 	O 	0.65793 0.22354 0.08320 -0.35700
C 	C 	0.75709 0.18785 0.98667 0.29200
O 	O 	0.63362 0.34246 0.86929 -0.37600
O 	O 	0.63102 0.22304 0.83840 -0.41800
H 	H 	0.75704 0.38729 0.02918 0.16500
H 	H 	0.53896 0.17508 0.91776 0.17600
Cu	Cu	0.75935 0.34415 0.44432 0.92600
Cu	Cu	0.74871 0.27664 0.55475 0.86700
Cu	Cu	0.61669 0.30224 0.51026 0.89700
Cu	Cu	0.58992 0.33853 0.40564 0.89500
C 	C 	0.69244 0.31249 0.33580 0.28900
O 	O 	0.81235 0.47437 0.44219 -0.35800
C 	C 	0.66916 0.32565 0.62268 0.28400
O 	O 	0.61745 0.27173 0.43917 -0.63800
O 	O 	0.74972 0.36044 0.51758 -0.64000
O 	O 	0.81927 0.28428 0.45031 -0.37000
O 	O 	0.71926 0.18987 0.49777 -0.44000
O 	O 	0.65596 0.35273 0.34756 -0.38400
O 	O 	0.48599 0.23661 0.50011 -0.38400
C 	C 	0.43480 0.23072 0.45926 0.29700
C 	C 	0.77148 0.50799 0.45821 0.28600
O 	O 	0.68721 0.45413 0.46511 -0.39400
O 	O 	0.47062 0.28706 0.42711 -0.39200
O 	O 	0.74522 0.30990 0.37146 -0.36100
C 	C 	0.77860 0.20897 0.46791 0.29200
O 	O 	0.61833 0.32634 0.58446 -0.37600
O 	O 	0.74284 0.33331 0.61599 -0.41800
H 	H 	0.57758 0.20683 0.42492 0.16500
H 	H 	0.78911 0.42286 0.53676 0.17600
C 	C 	0.63471 0.31279 0.77887 -0.07800
C 	C 	0.56308 0.24563 0.73915 -0.02300
C 	C 	0.56996 0.25273 0.68743 0.03300
C 	C 	0.64973 0.32749 0.67519 -0.07800
C 	C 	0.71733 0.39842 0.71490 -0.02300
C 	C 	0.71005 0.39168 0.76662 0.03300
S 	S 	0.48019 0.16567 0.63846 -0.06300
S 	S 	0.79764 0.48071 0.81559 -0.06500
H 	H 	0.77601 0.53651 0.82983 0.04500
H 	H 	0.42136 0.18454 0.62387 0.04500
H 	H 	0.50367 0.18611 0.74846 0.04300
H 	H 	0.77745 0.45729 0.70559 0.04300
C 	C 	0.69565 0.29385 0.28131 -0.07400
C 	C 	0.62193 0.21282 0.25012 -0.02700
C 	C 	0.61119 0.20235 0.19627 0.03900
C 	C 	0.67527 0.27352 0.17333 -0.07200
C 	C 	0.75342 0.35126 0.20459 -0.02800
C 	C 	0.76382 0.36195 0.25842 0.04000
S 	S 	0.51484 0.10173 0.15805 -0.03100
S 	S 	0.86029 0.46242 0.29669 -0.03900
H 	H 	0.92752 0.45350 0.30920 0.03900
H 	H 	0.44488 0.10776 0.14914 0.03800
H 	H 	0.57035 0.15962 0.26766 0.03500
H 	H 	0.80382 0.40537 0.18705 0.03400
C 	C 	0.85963 0.77226 0.44876 -0.00000
C 	C 	0.84621 0.74322 0.49613 -0.06900
C 	C 	0.82261 0.65887 0.50039 0.05300
C 	C 	0.81123 0.60208 0.45669 -0.09100
C 	C 	0.82335 0.63061 0.40917 -0.00900
C 	C 	0.84621 0.71458 0.40484 -0.00200
S 	S 	0.81106 0.62663 0.56105 -0.06200
S 	S 	0.85757 0.74675 0.34418 -0.04400
H 	H 	0.94673 0.79228 0.33866 0.03500
H 	H 	0.72188 0.58102 0.56654 0.04200
H 	H 	0.85779 0.78773 0.53017 0.05000
H 	H 	0.81232 0.58634 0.37517 0.04300
C 	C 	0.80960 0.15296 0.46134 -0.10000
C 	C 	0.83397 0.12993 0.50511 -0.00400
C 	C 	0.85830 0.07268 0.50022 -0.00600
C 	C 	0.85947 0.03825 0.45103 0.00600
C 	C 	0.83262 0.05914 0.40706 -0.07200
C 	C 	0.80720 0.11577 0.41189 0.05600
S 	S 	0.88938 0.04631 0.55615 -0.04800
S 	S 	0.77028 0.13735 0.35580 -0.04200
H 	H 	0.84295 0.21350 0.34321 0.04800
H 	H 	0.98152 0.10755 0.57361 0.03600
H 	H 	0.83427 0.15689 0.54314 0.01400
H 	H 	0.83369 0.03312 0.36915 0.05200
C 	C 	0.14622 0.07250 0.45049 0.00100
C 	C 	0.18133 0.06808 0.40679 -0.07100
C 	C 	0.27547 0.11771 0.40948 0.05600
C 	C 	0.33554 0.17439 0.45613 -0.09400
C 	C 	0.30027 0.17848 0.49990 -0.00300
C 	C 	0.20611 0.12752 0.49741 -0.00300
S 	S 	0.31694 0.10440 0.35512 -0.07200
S 	S 	0.16394 0.13146 0.55356 -0.04700
H 	H 	0.14807 0.06443 0.57825 0.03500
H 	H 	0.33227 0.16596 0.32553 0.03600
H 	H 	0.13517 0.02444 0.37096 0.05100
H 	H 	0.34622 0.22166 0.53587 0.04400
C 	C 	0.86907 0.80121 0.00053 0.01000
C 	C 	0.87602 0.76900 0.04473 -0.07500
C 	C 	0.83008 0.67753 0.04263 0.06500
C 	C 	0.77418 0.61707 0.99608 -0.10200
C 	C 	0.76634 0.64928 0.95201 0.00100
C 	C 	0.81370 0.74092 0.95394 -0.01100
S 	S 	0.84754 0.64016 0.09755 -0.07300
S 	S 	0.80494 0.77956 0.89752 -0.04700
H 	H 	0.87423 0.79885 0.87248 0.03400
H 	H 	0.78319 0.62145 0.12681 0.03700
H 	H 	0.91975 0.81555 0.08037 0.05200
H 	H 	0.72319 0.60293 0.91623 0.04200
C 	C 	0.90834 0.08435 0.00011 0.01000
C 	C 	0.89280 0.11555 0.04473 -0.07400
C 	C 	0.84438 0.15061 0.04103 0.06400
C 	C 	0.81085 0.15427 0.99208 -0.10900
C 	C 	0.82895 0.12556 0.94764 0.00000
C 	C 	0.87719 0.09051 0.95137 -0.01300
S 	S 	0.82846 0.19180 0.09788 -0.03200
S 	S 	0.89615 0.05237 0.89465 -0.04800
H 	H 	0.82664 0.96321 0.87785 0.03300
H 	H 	0.89826 0.28123 0.11321 0.03500
H 	H 	0.91718 0.11124 0.08226 0.05300
H 	H 	0.80392 0.12896 0.91000 0.01200
C 	C 	0.35377 0.14292 0.99577 -0.10400
C 	C 	0.32291 0.12633 0.04261 0.00400
C 	C 	0.23443 0.09626 0.04581 -0.00800
C 	C 	0.17514 0.08074 0.00144 0.01100
C 	C 	0.20601 0.09757 0.95459 -0.08000
C 	C 	0.29479 0.12817 0.95146 0.06000
S 	S 	0.19886 0.07924 0.10568 -0.04200
S 	S 	0.33018 0.14449 0.89151 -0.06500
H 	H 	0.37068 0.23131 0.88662 0.04200
H 	H 	0.15774 0.99208 0.10999 0.03300
H 	H 	0.36880 0.13944 0.07697 0.03800
H 	H 	0.16003 0.08441 0.92026 0.05200
