data_crystal

_cell_length_a 26.17943
_cell_length_b 26.49013
_cell_length_c 36.79159
_cell_angle_alpha 95.49400
_cell_angle_beta  95.49259
_cell_angle_gamma 125.83736

_symmetry_space_group_name_	'P 1'
_symmetry_space_group_name_H-M	'P 1'

loop_
_symmetry_equiv_pos_as_xyz
  x,y,z

loop_
_atom_site_label
_atom_site_type_symbol
_atom_site_fract_x
_atom_site_fract_y
_atom_site_fract_z
_atom_site_charge
C 	C 	0.96740 0.03164 0.99227 0.09100
C 	C 	0.03359 0.06760 0.99277 -0.09000
C 	C 	0.06258 0.03723 0.98799 0.08900
C 	C 	0.95974 0.93523 0.98377 0.09200
H 	H 	0.06222 0.11883 0.99645 0.08500
H 	H 	0.04822 0.94768 0.98059 0.08300
H 	H 	0.87953 0.93769 0.98790 0.08200
C 	C 	0.93088 0.99452 0.46163 0.07000
C 	C 	0.89504 0.92943 0.46230 -0.07700
C 	C 	0.92603 0.90077 0.46590 0.07500
C 	C 	0.99285 0.93741 0.46914 -0.06900
C 	C 	0.02857 0.00219 0.46810 0.06900
C 	C 	0.99770 0.03088 0.46485 -0.06300
H 	H 	0.84339 0.90123 0.45988 0.07800
H 	H 	0.01686 0.91534 0.47192 0.07600
H 	H 	0.02547 0.08118 0.46440 0.07700
Cu	Cu	0.64083 0.24606 0.00670 0.93300
Cu	Cu	0.67785 0.23404 0.92519 0.88300
Cu	Cu	0.68084 0.34364 0.95646 0.90200
Cu	Cu	0.65943 0.37321 0.03143 0.90900
C 	C 	0.66974 0.29920 0.08421 0.30800
O 	O 	0.55138 0.21933 0.00953 -0.34400
C 	C 	0.64934 0.29369 0.87525 0.31000
O 	O 	0.70096 0.34436 0.00801 -0.63900
O 	O 	0.62856 0.24983 0.95343 -0.63800
O 	O 	0.67049 0.19192 0.00322 -0.34200
O 	O 	0.73895 0.24806 0.96496 -0.42600
O 	O 	0.64663 0.33013 0.07508 -0.35800
O 	O 	0.73602 0.43494 0.96275 -0.36100
C 	C 	0.73317 0.47395 0.98613 0.31400
C 	C 	0.53113 0.25055 0.99664 0.30300
O 	O 	0.57259 0.30779 0.99032 -0.37300
O 	O 	0.70282 0.45620 0.01445 -0.36500
O 	O 	0.66691 0.25809 0.05913 -0.34600
C 	C 	0.72086 0.20899 0.98846 0.30900
O 	O 	0.67419 0.34283 0.90243 -0.37200
O 	O 	0.63754 0.24004 0.88160 -0.40300
H 	H 	0.74733 0.36834 0.01811 0.18300
H 	H 	0.58342 0.22688 0.94086 0.18200
Cu	Cu	0.73454 0.33619 0.45794 0.93400
Cu	Cu	0.73615 0.28781 0.53646 0.88300
Cu	Cu	0.62949 0.29030 0.50410 0.90300
Cu	Cu	0.60787 0.32071 0.43046 0.90300
C 	C 	0.68876 0.31673 0.38011 0.31000
O 	O 	0.76268 0.42605 0.45858 -0.33700
C 	C 	0.67261 0.31288 0.58558 0.31100
O 	O 	0.63417 0.27656 0.45282 -0.63800
O 	O 	0.72482 0.34146 0.51039 -0.63900
O 	O 	0.78693 0.30403 0.46149 -0.35600
O 	O 	0.72311 0.23030 0.49509 -0.41200
O 	O 	0.65762 0.33969 0.38930 -0.37000
O 	O 	0.53685 0.23670 0.49459 -0.36800
C 	C 	0.50047 0.24412 0.47183 0.31600
C 	C 	0.72999 0.44474 0.47163 0.30200
O 	O 	0.67035 0.40224 0.47499 -0.38000
O 	O 	0.52015 0.27252 0.44304 -0.36600
O 	O 	0.72807 0.31683 0.40546 -0.34600
C 	C 	0.76397 0.24980 0.47230 0.31100
O 	O 	0.62482 0.29014 0.55739 -0.36900
O 	O 	0.72708 0.32354 0.58061 -0.40000
H 	H 	0.61043 0.23146 0.44107 0.18400
H 	H 	0.74762 0.38498 0.52470 0.19200
C 	C 	0.64239 0.32054 0.69201 0.00500
C 	C 	0.59146 0.26555 0.70217 -0.02700
C 	C 	0.58816 0.26279 0.73972 -0.02600
C 	C 	0.63576 0.31502 0.76724 0.00300
C 	C 	0.68421 0.37146 0.75699 -0.02600
C 	C 	0.68753 0.37421 0.71942 -0.02700
C 	C 	0.63991 0.30787 0.80548 0.05700
C 	C 	0.64329 0.30179 0.83748 -0.09300
C 	C 	0.65310 0.31896 0.65440 0.05800
C 	C 	0.66155 0.31702 0.62281 -0.08900
H 	H 	0.55607 0.22402 0.68112 0.05600
H 	H 	0.55026 0.21915 0.74741 0.05500
H 	H 	0.72089 0.41225 0.77810 0.05500
H 	H 	0.72674 0.41709 0.71178 0.05600
C 	C 	0.70270 0.29812 0.27093 0.00600
C 	C 	0.65688 0.24126 0.24588 -0.02500
C 	C 	0.65493 0.23938 0.20761 -0.02500
C 	C 	0.69876 0.29437 0.19430 0.00800
C 	C 	0.74701 0.35014 0.21944 -0.02600
C 	C 	0.74898 0.35202 0.25769 -0.02500
C 	C 	0.68921 0.29583 0.15534 0.05900
C 	C 	0.68127 0.29712 0.12273 -0.07900
C 	C 	0.69745 0.30333 0.30949 0.05800
C 	C 	0.69377 0.30857 0.34185 -0.08300
H 	H 	0.62124 0.19925 0.25592 0.05700
H 	H 	0.61776 0.19593 0.18834 0.06000
H 	H 	0.78133 0.39274 0.20937 0.05700
H 	H 	0.78485 0.39604 0.27691 0.05800
C 	C 	0.88870 0.83233 0.46639 -0.02100
C 	C 	0.87922 0.78982 0.43563 0.11100
C 	C 	0.85144 0.72667 0.43832 -0.06100
C 	C 	0.83170 0.70503 0.47122 0.01100
C 	C 	0.83881 0.74688 0.50147 0.10200
C 	C 	0.86742 0.81029 0.49896 -0.05300
H 	H 	0.84513 0.69435 0.41480 0.08600
C 	C 	0.80410 0.63861 0.47384 0.03100
H 	H 	0.87420 0.84274 0.52259 0.07600
C 	C 	0.84322 0.62434 0.49108 -0.08200
C 	C 	0.81876 0.56132 0.49206 0.15100
C 	C 	0.75496 0.51174 0.47468 -0.09400
C 	C 	0.71542 0.52631 0.45838 -0.00700
C 	C 	0.73959 0.58934 0.45803 0.08300
H 	H 	0.89260 0.66229 0.50387 0.09100
H 	H 	0.66615 0.48852 0.44529 0.06300
Br	Br	0.80958 0.71822 0.54631 -0.19100
Br	Br	0.90319 0.81706 0.38962 -0.18000
Br	Br	0.87200 0.54443 0.51920 -0.22200
Br	Br	0.68372 0.60724 0.43587 -0.18700
C 	C 	0.89879 0.02518 0.45847 -0.01700
C 	C 	0.89047 0.04344 0.42497 0.10900
C 	C 	0.86747 0.07961 0.42379 -0.06100
C 	C 	0.85222 0.09740 0.45573 0.01000
C 	C 	0.85774 0.07666 0.48874 0.10500
C 	C 	0.88119 0.04093 0.49000 -0.05400
H 	H 	0.86209 0.09444 0.39815 0.08500
C 	C 	0.83114 0.13827 0.45457 0.03000
C 	C 	0.76595 0.11060 0.44321 -0.08500
C 	C 	0.74403 0.14770 0.44624 0.15200
C 	C 	0.78753 0.21306 0.46126 -0.10000
C 	C 	0.85334 0.24145 0.47006 -0.00900
C 	C 	0.87532 0.20440 0.46672 0.08400
H 	H 	0.73210 0.06002 0.43273 0.09000
H 	H 	0.88718 0.29190 0.48094 0.06600
Br	Br	0.83425 0.09741 0.53249 -0.20300
Br	Br	0.90973 0.01890 0.38055 -0.17600
Br	Br	0.65490 0.10867 0.42876 -0.22200
Br	Br	0.96554 0.24456 0.47991 -0.19100
C 	C 	0.43254 0.21024 0.47457 -0.09300
C 	C 	0.40563 0.24305 0.47845 0.14900
C 	C 	0.33991 0.20942 0.47837 -0.08200
C 	C 	0.30079 0.14329 0.47487 0.03100
C 	C 	0.32793 0.11063 0.47186 0.08400
C 	C 	0.39360 0.14420 0.47182 -0.00600
H 	H 	0.31922 0.23471 0.48108 0.09100
C 	C 	0.23122 0.10841 0.47341 0.01000
H 	H 	0.41415 0.11880 0.46897 0.06900
C 	C 	0.18998 0.08474 0.43887 -0.06100
C 	C 	0.12372 0.05022 0.43687 0.11000
C 	C 	0.09832 0.03979 0.46973 -0.01800
C 	C 	0.13961 0.06405 0.50430 -0.05400
C 	C 	0.20586 0.09823 0.50629 0.10400
H 	H 	0.20941 0.09258 0.41354 0.08500
Br	Br	0.27596 0.02018 0.46756 -0.19000
Br	Br	0.45821 0.33390 0.48529 -0.20900
Br	Br	0.06849 0.01653 0.38901 -0.17500
C 	C 	0.76506 0.53950 0.98076 -0.09300
C 	C 	0.83239 0.58192 0.98554 0.15200
C 	C 	0.86202 0.64552 0.98326 -0.08300
C 	C 	0.82510 0.66740 0.97676 0.03000
C 	C 	0.75776 0.62462 0.97090 0.08500
C 	C 	0.72810 0.56100 0.97300 -0.00700
H 	H 	0.91389 0.67838 0.98763 0.09000
C 	C 	0.85739 0.73569 0.97843 0.01100
H 	H 	0.67626 0.52837 0.96911 0.06900
C 	C 	0.87098 0.76074 0.94580 -0.06300
C 	C 	0.90279 0.82571 0.94708 0.11400
C 	C 	0.92190 0.86620 0.98135 -0.03000
C 	C 	0.90742 0.84097 0.01387 -0.04800
C 	C 	0.87531 0.77602 0.01256 0.10300
H 	H 	0.85673 0.72969 0.91945 0.08500
H 	H 	0.92188 0.87204 0.04025 0.07600
Br	Br	0.70567 0.65264 0.96092 -0.18800
Br	Br	0.88485 0.55482 0.99729 -0.21600
Br	Br	0.91907 0.85825 0.90175 -0.18500
Br	Br	0.85642 0.74315 0.05768 -0.18800
C 	C 	0.75688 0.18396 0.99785 -0.10300
C 	C 	0.72667 0.11820 0.99037 0.14800
C 	C 	0.76358 0.09595 0.99405 -0.08700
C 	C 	0.83050 0.13864 0.00456 0.03300
C 	C 	0.86041 0.20410 0.01352 0.08200
C 	C 	0.82351 0.22641 0.01031 -0.00400
H 	H 	0.74044 0.04548 0.98734 0.09000
C 	C 	0.86912 0.11493 0.00232 0.01300
H 	H 	0.84689 0.27696 0.01645 0.06700
C 	C 	0.88568 0.10676 0.96828 -0.06600
C 	C 	0.91883 0.08065 0.96489 0.11400
C 	C 	0.93634 0.06311 0.99594 -0.02900
C 	C 	0.92082 0.07234 0.03018 -0.04700
C 	C 	0.88702 0.09784 0.03346 0.10200
H 	H 	0.87182 0.11978 0.94426 0.08200
H 	H 	0.93414 0.05876 0.05410 0.07700
Br	Br	0.95179 0.26381 0.02908 -0.18600
Br	Br	0.63585 0.05821 0.97231 -0.22200
Br	Br	0.93766 0.06710 0.91732 -0.18000
Br	Br	0.86500 0.10824 0.08046 -0.18500
C 	C 	0.13210 0.07465 0.98875 -0.02800
C 	C 	0.15778 0.09927 0.95742 0.11400
C 	C 	0.22321 0.13037 0.95763 -0.06200
C 	C 	0.26302 0.13565 0.98848 0.01000
C 	C 	0.23739 0.11130 0.01985 0.10200
C 	C 	0.17231 0.08149 0.01996 -0.04900
H 	H 	0.24289 0.14928 0.93350 0.08600
C 	C 	0.33142 0.16661 0.98775 0.02900
H 	H 	0.15261 0.06229 0.04403 0.07500
C 	C 	0.37738 0.22936 0.00637 -0.08100
C 	C 	0.44279 0.25743 0.00946 0.15500
C 	C 	0.46271 0.22332 0.99226 -0.09800
C 	C 	0.41659 0.16121 0.97257 -0.00700
C 	C 	0.35118 0.13261 0.97046 0.08300
H 	H 	0.36221 0.25549 0.01981 0.09200
H 	H 	0.43161 0.13477 0.95937 0.06300
Br	Br	0.29012 0.11645 0.06230 -0.19200
Br	Br	0.10378 0.08843 0.91353 -0.18000
Br	Br	0.50361 0.33992 0.04015 -0.23200
Br	Br	0.28957 0.04638 0.94491 -0.19200
C 	C 	0.02565 0.97111 0.98371 -0.09400
C 	C 	0.93061 0.96549 0.98796 -0.09300
H 	H 	0.88698 0.02649 0.51572 0.07700
H 	H 	0.12015 0.05596 0.52962 0.07600
Br	Br	0.26090 0.12986 0.55404 -0.19400
