data_crystal

_cell_length_a 26.15199
_cell_length_b 26.45783
_cell_length_c 26.69190
_cell_angle_alpha 95.47936
_cell_angle_beta  95.47940
_cell_angle_gamma 125.86457

_symmetry_space_group_name_	'P 1'
_symmetry_space_group_name_H-M	'P 1'

loop_
_symmetry_equiv_pos_as_xyz
  x,y,z

loop_
_atom_site_label
_atom_site_type_symbol
_atom_site_fract_x
_atom_site_fract_y
_atom_site_fract_z
_atom_site_charge
C 	C 	0.98411 0.04309 0.98154 0.12100
N 	N 	0.04674 0.07464 0.97739 -0.13200
C 	C 	0.07377 0.04375 0.97647 0.12600
N 	N 	0.03771 0.98107 0.97876 -0.13100
C 	C 	0.97479 0.94915 0.98198 0.12800
N 	N 	0.94790 0.98016 0.98300 -0.13000
C 	C 	0.92100 0.98440 0.44788 0.13900
N 	N 	0.98609 0.02120 0.45458 -0.14200
C 	C 	0.01681 0.99395 0.45429 0.14400
N 	N 	0.98239 0.92993 0.44854 -0.13700
C 	C 	0.91735 0.89296 0.44212 0.13000
N 	N 	0.88659 0.92024 0.44196 -0.13500
Cu	Cu	0.66137 0.26219 0.01220 0.93500
Cu	Cu	0.71515 0.27046 0.90508 0.87600
Cu	Cu	0.68523 0.35602 0.94310 0.90000
Cu	Cu	0.65990 0.37791 0.04595 0.90400
C 	C 	0.67672 0.30735 0.11877 0.33300
O 	O 	0.56803 0.22473 0.01235 -0.34000
C 	C 	0.67161 0.31759 0.83262 0.32500
O 	O 	0.71048 0.36004 0.01439 -0.63700
O 	O 	0.65010 0.26525 0.93866 -0.64200
O 	O 	0.70060 0.21665 0.00940 -0.34200
O 	O 	0.77228 0.28370 0.96304 -0.42700
O 	O 	0.64759 0.33228 0.10446 -0.36600
O 	O 	0.72573 0.44596 0.94902 -0.36300
C 	C 	0.73126 0.48399 0.98861 0.29200
C 	C 	0.54152 0.24912 0.99117 0.28000
O 	O 	0.57776 0.30893 0.98621 -0.38500
O 	O 	0.69845 0.46201 0.02582 -0.37000
O 	O 	0.68612 0.27526 0.08484 -0.34100
C 	C 	0.75323 0.23938 0.99070 0.28900
O 	O 	0.66363 0.34864 0.86908 -0.35200
O 	O 	0.67643 0.27206 0.84115 -0.39600
H 	H 	0.75729 0.38950 0.02795 0.18200
H 	H 	0.60584 0.23510 0.91861 0.19100
Cu	Cu	0.71651 0.32023 0.43733 0.93100
Cu	Cu	0.72682 0.28563 0.55083 0.87700
Cu	Cu	0.62450 0.29532 0.51060 0.90100
Cu	Cu	0.58831 0.30457 0.40265 0.90500
C 	C 	0.66816 0.30022 0.33035 0.33100
O 	O 	0.75071 0.40992 0.42987 -0.34400
C 	C 	0.67330 0.32269 0.62104 0.32300
O 	O 	0.61766 0.26639 0.43980 -0.63800
O 	O 	0.71792 0.33880 0.51121 -0.63800
O 	O 	0.76634 0.28514 0.44171 -0.34900
O 	O 	0.70847 0.22204 0.49670 -0.42600
O 	O 	0.61502 0.29334 0.33720 -0.35900
O 	O 	0.53270 0.24628 0.50760 -0.36000
C 	C 	0.49167 0.23887 0.46928 0.29300
C 	C 	0.71941 0.43322 0.43984 0.29100
O 	O 	0.66174 0.39669 0.45048 -0.37800
O 	O 	0.51142 0.27523 0.43434 -0.37300
O 	O 	0.69959 0.29065 0.36517 -0.34300
C 	C 	0.74752 0.23639 0.46418 0.29200
O 	O 	0.63482 0.32174 0.58434 -0.35500
O 	O 	0.72485 0.32800 0.61207 -0.39500
H 	H 	0.59176 0.21968 0.42946 0.18100
H 	H 	0.74519 0.38436 0.52725 0.18800
C 	C 	0.61143 0.27568 0.69019 0.09800
C 	C 	0.66425 0.32808 0.67442 -0.10700
C 	C 	0.71214 0.38261 0.71103 0.10600
C 	C 	0.71217 0.38117 0.76363 0.09800
C 	C 	0.66327 0.32578 0.77938 -0.10500
C 	C 	0.61053 0.27502 0.74277 0.10600
Br	Br	0.53704 0.20510 0.76480 -0.18300
Br	Br	0.54199 0.20365 0.63990 -0.20100
Br	Br	0.78041 0.45390 0.81402 -0.19900
Br	Br	0.77665 0.45935 0.68900 -0.18500
C 	C 	0.72671 0.35637 0.26240 0.10100
C 	C 	0.68057 0.29927 0.27775 -0.10100
C 	C 	0.64076 0.24259 0.24117 0.10600
C 	C 	0.64149 0.24432 0.18870 0.10600
C 	C 	0.68459 0.30240 0.17304 -0.10400
C 	C 	0.72943 0.35763 0.21007 0.10300
Br	Br	0.79388 0.43511 0.18882 -0.20300
Br	Br	0.78436 0.43322 0.31280 -0.18800
Br	Br	0.58033 0.16814 0.13827 -0.17500
Br	Br	0.58473 0.16281 0.26311 -0.18000
C 	C 	0.81453 0.72816 0.47226 -0.02300
C 	C 	0.82515 0.69457 0.43579 0.01400
C 	C 	0.86086 0.72479 0.39838 -0.04100
C 	C 	0.88817 0.78879 0.39826 0.00000
C 	C 	0.88053 0.82344 0.43646 -0.01600
C 	C 	0.84234 0.79239 0.47247 -0.01700
C 	C 	0.79905 0.62758 0.43645 0.03000
C 	C 	0.74245 0.57881 0.40237 -0.05600
C 	C 	0.71701 0.51519 0.40218 0.03400
C 	C 	0.74792 0.49993 0.43704 -0.07200
C 	C 	0.80539 0.54873 0.47028 0.02000
C 	C 	0.83118 0.61244 0.47011 -0.03700
C 	C 	0.66036 0.46594 0.36500 0.07500
C 	C 	0.89052 0.66199 0.50457 0.10300
C 	C 	0.77573 0.69724 0.50989 0.09500
C 	C 	0.92301 0.81830 0.35831 0.09400
N 	N 	0.61502 0.42647 0.33520 -0.11100
N 	N 	0.93805 0.70173 0.53217 -0.10400
N 	N 	0.95093 0.84198 0.32633 -0.10000
N 	N 	0.74465 0.67242 0.54002 -0.10300
H 	H 	0.83580 0.81869 0.50153 0.05300
H 	H 	0.86772 0.69853 0.36956 0.06000
H 	H 	0.71838 0.59048 0.37584 0.06200
H 	H 	0.82958 0.53709 0.49671 0.04500
C 	C 	0.74709 0.09345 0.43666 -0.03700
C 	C 	0.81340 0.12195 0.44487 0.02600
C 	C 	0.85794 0.18832 0.45536 -0.05700
C 	C 	0.83705 0.22645 0.45989 0.02700
C 	C 	0.77064 0.19790 0.45339 -0.08000
C 	C 	0.72609 0.13148 0.44100 0.01600
C 	C 	0.83679 0.08266 0.44505 0.01500
C 	C 	0.85020 0.06501 0.39978 -0.04400
C 	C 	0.87550 0.03069 0.39983 0.00500
C 	C 	0.88784 0.01406 0.44569 -0.02400
C 	C 	0.87277 0.03017 0.49062 -0.01500
C 	C 	0.84738 0.06438 0.49056 -0.02600
C 	C 	0.88860 0.01266 0.35270 0.08600
C 	C 	0.83286 0.08109 0.53743 0.09100
C 	C 	0.70034 0.02520 0.42456 0.09400
C 	C 	0.88413 0.29461 0.47331 0.07600
N 	N 	0.89907 0.99815 0.31496 -0.09200
N 	N 	0.82120 0.09450 0.57495 -0.11000
N 	N 	0.92188 0.34920 0.48408 -0.10300
N 	N 	0.66294 0.97051 0.41488 -0.09900
H 	H 	0.67504 0.10939 0.43556 0.04800
H 	H 	0.90897 0.21025 0.46129 0.06000
H 	H 	0.84142 0.07845 0.36464 0.05900
H 	H 	0.88196 0.01711 0.52584 0.04900
C 	C 	0.18814 0.05624 0.50162 -0.02100
C 	C 	0.22143 0.10151 0.47052 0.01300
C 	C 	0.18777 0.11330 0.43551 -0.04200
C 	C 	0.12107 0.07930 0.43032 0.00200
C 	C 	0.08758 0.03371 0.46132 -0.02000
C 	C 	0.12165 0.02310 0.49721 -0.02000
C 	C 	0.29113 0.13461 0.47247 0.02900
C 	C 	0.31167 0.11434 0.43404 -0.05600
C 	C 	0.37728 0.14693 0.43353 0.02900
C 	C 	0.42303 0.20017 0.47209 -0.07200
C 	C 	0.40258 0.21926 0.51145 0.02100
C 	C 	0.33692 0.18722 0.51155 -0.03700
C 	C 	0.39732 0.12531 0.39346 0.07200
C 	C 	0.31687 0.20924 0.55131 0.10400
C 	C 	0.22173 0.04285 0.53758 0.09600
C 	C 	0.08720 0.08964 0.39166 0.09400
N 	N 	0.41342 0.10803 0.36138 -0.10100
N 	N 	0.30076 0.22682 0.58316 -0.10400
N 	N 	0.06014 0.09799 0.36069 -0.09800
N 	N 	0.24868 0.03218 0.56638 -0.09900
H 	H 	0.09616 0.98831 0.52122 0.06000
H 	H 	0.21343 0.14806 0.41152 0.05700
H 	H 	0.27646 0.07354 0.40423 0.06200
H 	H 	0.43777 0.26015 0.54119 0.05500
C 	C 	0.90537 0.77631 0.94542 -0.02200
C 	C 	0.86523 0.74934 0.98154 0.01000
C 	C 	0.86002 0.78785 0.01719 -0.03700
C 	C 	0.89511 0.85312 0.01764 0.00400
C 	C 	0.93505 0.88014 0.98122 -0.01900
C 	C 	0.93940 0.84125 0.94508 -0.01600
C 	C 	0.83008 0.68108 0.98343 0.02500
C 	C 	0.85374 0.66262 0.02119 -0.05300
C 	C 	0.82190 0.59826 0.02317 0.03300
C 	C 	0.76604 0.55173 0.98674 -0.07700
C 	C 	0.74242 0.57017 0.94894 0.02000
C 	C 	0.77366 0.63456 0.94746 -0.03700
C 	C 	0.84734 0.58029 0.06221 0.07600
C 	C 	0.74731 0.65258 0.90924 0.10300
C 	C 	0.91251 0.73776 0.90904 0.09600
C 	C 	0.89174 0.89221 0.05679 0.09500
N 	N 	0.86768 0.56585 0.09347 -0.09700
N 	N 	0.72625 0.66708 0.87864 -0.10400
N 	N 	0.88895 0.92342 0.08817 -0.09700
N 	N 	0.91818 0.70682 0.87990 -0.09700
H 	H 	0.96987 0.86177 0.91697 0.05300
H 	H 	0.82936 0.76707 0.04514 0.05700
H 	H 	0.89710 0.69843 0.04888 0.06200
H 	H 	0.69921 0.53436 0.92110 0.05300
C 	C 	0.89089 0.22833 0.01099 -0.03500
C 	C 	0.85847 0.16221 0.99869 0.02400
C 	C 	0.79118 0.12122 0.98775 -0.05800
C 	C 	0.75598 0.14562 0.98647 0.02800
C 	C 	0.78845 0.21203 0.99743 -0.08700
C 	C 	0.85577 0.25285 0.01049 0.02000
C 	C 	0.89457 0.13550 0.99443 0.00900
C 	C 	0.91810 0.12519 0.03864 -0.03600
C 	C 	0.94933 0.09679 0.03502 0.00300
C 	C 	0.95620 0.07753 0.98659 -0.01800
C 	C 	0.93422 0.08937 0.94254 -0.01800
C 	C 	0.90365 0.11842 0.94621 -0.02400
C 	C 	0.97507 0.08844 0.08116 0.09600
C 	C 	0.88168 0.13054 0.90037 0.08900
C 	C 	0.96021 0.27136 0.02313 0.09500
C 	C 	0.68686 0.10230 0.97147 0.07700
N 	N 	0.99579 0.08182 0.11811 -0.09700
N 	N 	0.86405 0.14028 0.86368 -0.11100
N 	N 	0.63150 0.06757 0.95943 -0.10100
N 	N 	0.01574 0.30579 0.03284 -0.10000
H 	H 	0.88086 0.30381 0.01929 0.04700
H 	H 	0.76630 0.07030 0.97863 0.06000
H 	H 	0.91186 0.13909 0.07580 0.05900
H 	H 	0.94028 0.07528 0.90536 0.05000
C 	C 	0.22219 0.07690 0.93342 -0.02300
C 	C 	0.27128 0.13221 0.96884 0.00900
C 	C 	0.25535 0.16148 0.00397 -0.03700
C 	C 	0.19095 0.13403 0.00612 0.00300
C 	C 	0.14168 0.07753 0.97164 -0.01900
C 	C 	0.15779 0.05020 0.93473 -0.01700
C 	C 	0.33932 0.15730 0.97191 0.02400
C 	C 	0.37364 0.19266 0.93576 -0.05500
C 	C 	0.43892 0.21947 0.93961 0.02800
C 	C 	0.47095 0.21287 0.98125 -0.07800
C 	C 	0.43578 0.17503 0.01602 0.01600
C 	C 	0.37020 0.14694 0.01135 -0.03300
C 	C 	0.47203 0.25169 0.89982 0.08200
C 	C 	0.33488 0.10767 0.04728 0.10300
C 	C 	0.23750 0.04633 0.89653 0.09300
C 	C 	0.17599 0.16243 0.04539 0.09500
N 	N 	0.49857 0.27750 0.86797 -0.09200
N 	N 	0.30654 0.07620 0.07603 -0.10200
N 	N 	0.16399 0.18516 0.07684 -0.09900
N 	N 	0.24981 0.02187 0.86700 -0.10200
H 	H 	0.12005 0.00722 0.90779 0.05200
H 	H 	0.29321 0.20439 0.03092 0.05600
H 	H 	0.34942 0.19918 0.90460 0.06200
H 	H 	0.45987 0.16889 0.04757 0.06200
