data_crystal

_cell_length_a 18.11127
_cell_length_b 16.07145
_cell_length_c 47.14841
_cell_angle_alpha 90.76206
_cell_angle_beta  91.09037
_cell_angle_gamma 110.90209

_symmetry_space_group_name_	'P 1'
_symmetry_space_group_name_H-M	'P 1'

loop_
_symmetry_equiv_pos_as_xyz
  x,y,z

loop_
_atom_site_label
_atom_site_type_symbol
_atom_site_fract_x
_atom_site_fract_y
_atom_site_fract_z
_atom_site_charge
Ni	Ni	0.12946 0.02414 0.74918 1.09800
O 	O 	0.04813 0.01118 0.71745 -0.70500
O 	O 	0.20469 0.14086 0.73266 -0.35300
O 	O 	0.20340 0.07023 0.69009 -0.39400
O 	O 	0.07034 0.09301 0.77034 -0.36900
Ni	Ni	0.08393 0.00788 0.67896 1.07900
O 	O 	0.15139 0.89962 0.80227 -0.39500
O 	O 	0.09877 0.88862 0.68298 -0.39600
O 	O 	0.05344 0.89869 0.75431 -0.69300
O 	O 	0.20537 0.04088 0.78358 -0.36600
Ni	Ni	0.03563 0.88171 0.79497 1.08000
H 	H 	0.02578 0.05870 0.71940 0.17500
H 	H 	0.07891 0.85736 0.74736 0.17100
C 	C 	0.03774 0.81406 0.68284 0.30000
O 	O 	0.05056 0.00726 0.80940 -0.38800
C 	C 	0.23070 0.14216 0.70662 0.27400
C 	C 	0.03222 0.06408 0.79371 0.28900
C 	C 	0.21065 0.97665 0.79994 0.29400
Ni	Ni	0.39694 0.80893 0.41213 1.10000
O 	O 	0.35504 0.68682 0.39257 -0.70500
Ni	Ni	0.25862 0.69272 0.37250 1.10400
O 	O 	0.39915 0.65601 0.45166 -0.40600
Ni	Ni	0.32346 0.58797 0.41821 1.06900
O 	O 	0.24448 0.63188 0.43752 -0.41800
O 	O 	0.23135 0.57582 0.35093 -0.36200
O 	O 	0.29323 0.80760 0.39650 -0.70600
O 	O 	0.17621 0.72429 0.34886 -0.35800
O 	O 	0.26893 0.85750 0.33832 -0.39600
Ni	Ni	0.31351 0.92068 0.37711 1.07700
H 	H 	0.39221 0.67864 0.37863 0.17000
H 	H 	0.25683 0.80289 0.41230 0.15800
C 	C 	0.17451 0.61614 0.42618 0.29300
O 	O 	0.42949 0.96329 0.36485 -0.37600
C 	C 	0.47195 0.71337 0.44921 0.27100
C 	C 	0.23432 0.50434 0.36363 0.27900
C 	C 	0.19529 0.80111 0.33622 0.27100
O 	O 	0.16660 0.62947 0.39902 -0.36300
O 	O 	0.23742 0.50143 0.39182 -0.40000
Ni	Ni	0.32369 0.61643 0.10509 1.10100
O 	O 	0.23119 0.59158 0.07621 -0.69900
Ni	Ni	0.17166 0.66378 0.09300 1.09900
O 	O 	0.24953 0.41700 0.07967 -0.39700
O 	O 	0.38631 0.71069 0.07708 -0.37800
Ni	Ni	0.15971 0.46750 0.07364 1.06800
O 	O 	0.14305 0.46343 0.11631 -0.40400
O 	O 	0.08807 0.64012 0.06144 -0.37600
O 	O 	0.25757 0.67853 0.12348 -0.70200
O 	O 	0.13625 0.76248 0.10943 -0.36300
O 	O 	0.26300 0.86005 0.11028 -0.41400
Ni	Ni	0.32482 0.79993 0.13505 1.07600
H 	H 	0.24941 0.61335 0.05711 0.15200
H 	H 	0.23415 0.64575 0.14064 0.17200
C 	C 	0.09615 0.49926 0.12804 0.28500
O 	O 	0.41273 0.83167 0.10633 -0.39300
C 	C 	0.32164 0.45977 0.07109 0.27600
C 	C 	0.05414 0.55877 0.05079 0.27800
C 	C 	0.40293 0.79659 0.08069 0.28200
C 	C 	0.18775 0.84326 0.11456 0.28200
O 	O 	0.08855 0.57185 0.11761 -0.35500
O 	O 	0.05734 0.48973 0.06502 -0.39900
Ni	Ni	0.02314 0.10893 0.23688 1.10600
O 	O 	0.10427 0.10885 0.20749 -0.34300
O 	O 	0.10897 0.20128 0.26222 -0.34100
O 	O 	0.06518 0.12306 0.30213 -0.40800
C 	C 	0.07734 0.07756 0.18170 0.26800
C 	C 	0.10827 0.19663 0.29007 0.29000
O 	O 	0.01731 0.09517 0.16993 -0.39100
C 	C 	0.96690 0.31109 0.18758 -0.06400
C 	C 	0.93222 0.31188 0.16048 0.00300
C 	C 	0.96920 0.38218 0.14190 -0.00200
C 	C 	0.04183 0.44907 0.15007 -0.05400
C 	C 	0.06829 0.45558 0.17863 0.00300
C 	C 	0.02634 0.39009 0.19785 0.01300
C 	C 	0.14151 0.52511 0.18773 0.08800
C 	C 	0.04365 0.40409 0.22805 0.10200
C 	C 	0.93302 0.38531 0.11445 0.08800
N 	N 	0.05756 0.41539 0.25216 -0.09700
N 	N 	0.90371 0.38758 0.09259 -0.10500
N 	N 	0.20013 0.58013 0.19515 -0.11100
C 	C 	0.16458 0.90625 0.13226 -0.08100
C 	C 	0.13846 0.88278 0.15994 0.00300
C 	C 	0.11126 0.93914 0.17640 0.00100
C 	C 	0.11407 0.02232 0.16579 -0.07000
C 	C 	0.14609 0.04887 0.13883 -0.00700
C 	C 	0.17050 0.99039 0.12194 0.01500
C 	C 	0.14001 0.80034 0.17168 0.06300
C 	C 	0.15498 0.13663 0.12865 0.09400
C 	C 	0.20124 0.01662 0.09395 0.07400
C 	C 	0.07722 0.90875 0.20358 0.06700
N 	N 	0.22584 0.03756 0.07163 -0.11500
N 	N 	0.05020 0.88153 0.22509 -0.11500
N 	N 	0.16207 0.20666 0.12054 -0.10900
N 	N 	0.14111 0.73463 0.18105 -0.11400
C 	C 	0.20227 0.41967 0.34754 -0.05900
C 	C 	0.12051 0.38318 0.34132 0.00600
C 	C 	0.09115 0.31636 0.32022 0.00400
C 	C 	0.14207 0.27833 0.30762 -0.07600
C 	C 	0.22343 0.31146 0.31494 0.01300
C 	C 	0.25377 0.38320 0.33460 -0.00300
C 	C 	0.06663 0.41504 0.35661 0.10100
C 	C 	0.27561 0.27133 0.30241 0.09600
C 	C 	0.33779 0.41973 0.34144 0.07400
C 	C 	0.00914 0.28902 0.31074 0.03300
N 	N 	0.40483 0.44894 0.34691 -0.11700
N 	N 	0.94367 0.26805 0.30330 -0.13600
N 	N 	0.31718 0.23922 0.29242 -0.09700
N 	N 	0.02368 0.44042 0.36881 -0.10300
C 	C 	0.13228 0.82759 0.32183 -0.06600
C 	C 	0.14710 0.91766 0.31525 0.00100
C 	C 	0.09474 0.93844 0.29703 0.00900
C 	C 	0.01527 0.88088 0.29499 -0.06000
C 	C 	0.05659 0.76311 0.31417 0.00500
C 	C 	0.21259 0.98956 0.32832 0.07300
C 	C 	0.04222 0.66858 0.31555 0.10500
C 	C 	0.12749 0.00166 0.27514 0.06800
N 	N 	0.15602 0.05169 0.25759 -0.11500
N 	N 	0.26477 0.04730 0.33874 -0.14100
H 	H 	0.47060 0.28067 0.48331 0.04300
H 	H 	0.42800 0.15230 0.44982 0.04400
C 	C 	0.10376 0.57125 0.44301 -0.07200
C 	C 	0.02806 0.56101 0.43224 0.01300
C 	C 	0.96099 0.51517 0.44760 -0.05600
C 	C 	0.04456 0.49002 0.48509 0.01500
C 	C 	0.11165 0.53480 0.46940 -0.01900
C 	C 	0.05237 0.45693 0.51196 -0.05100
H 	H 	0.02108 0.58863 0.41197 0.05100
H 	H 	0.90304 0.50807 0.43904 0.05000
H 	H 	0.16978 0.54151 0.47772 0.04200
H 	H 	0.11011 0.46230 0.52029 0.04900
C 	C 	0.44945 0.30986 0.67359 -0.05500
C 	C 	0.37614 0.22823 0.71358 0.00500
C 	C 	0.30421 0.21478 0.69853 -0.05600
C 	C 	0.30578 0.26000 0.67285 0.00200
C 	C 	0.37871 0.31255 0.66161 0.00700
C 	C 	0.23361 0.24532 0.65645 0.07700
C 	C 	0.38081 0.36418 0.63643 0.10200
C 	C 	0.37553 0.18974 0.74126 0.09300
N 	N 	0.38257 0.40537 0.61634 -0.10200
N 	N 	0.37531 0.15912 0.76335 -0.10400
N 	N 	0.17699 0.23409 0.64280 -0.11500
C 	C 	0.04177 0.63730 0.69429 0.09300
N 	N 	0.06477 0.62148 0.71587 -0.10100
C 	C 	0.99727 0.54313 0.02684 -0.07100
C 	C 	0.94909 0.59455 0.02428 0.01300
C 	C 	0.99077 0.47605 0.00655 -0.02000
H 	H 	0.95331 0.64599 0.03998 0.04800
H 	H 	0.02832 0.43667 0.00845 0.02300
C 	C 	0.44649 0.99363 0.03270 -0.04500
C 	C 	0.41977 0.93713 0.05552 0.00100
C 	C 	0.43213 0.85582 0.05652 -0.06700
H 	H 	0.43619 0.05605 0.03223 0.04500
H 	H 	0.38880 0.95627 0.07237 0.04400
C 	C 	0.35303 0.42445 0.04712 -0.07500
C 	C 	0.41016 0.48355 0.03008 -0.02200
H 	H 	0.43145 0.55455 0.03490 0.04900
H 	H 	0.51727 0.58156 0.99414 0.04500
C 	C 	0.08006 0.20801 0.83634 0.10200
N 	N 	0.14598 0.24368 0.84277 -0.09900
C 	C 	0.34135 0.96437 0.81275 0.00000
C 	C 	0.28056 0.99663 0.81908 -0.05100
C 	C 	0.29033 0.05579 0.84219 -0.00200
C 	C 	0.36551 0.09758 0.85488 0.00900
C 	C 	0.22199 0.06773 0.85444 0.09500
C 	C 	0.38188 0.18027 0.87072 0.08400
C 	C 	0.33100 0.90147 0.78934 0.09200
N 	N 	0.39413 0.24643 0.88323 -0.10600
N 	N 	0.32271 0.85128 0.77065 -0.10400
N 	N 	0.16731 0.07651 0.86444 -0.10600
N 	N 	0.02878 0.69397 0.78007 -0.12900
Ni	Ni	0.59500 0.22776 0.91195 1.10000
O 	O 	0.60823 0.30337 0.87610 -0.69700
Ni	Ni	0.71050 0.29483 0.86245 1.09900
O 	O 	0.51501 0.27054 0.93200 -0.36100
O 	O 	0.53077 0.40060 0.91009 -0.39100
O 	O 	0.50121 0.12626 0.89326 -0.36400
Ni	Ni	0.62981 0.42963 0.88537 1.07200
O 	O 	0.57987 0.02934 0.91564 -0.40000
O 	O 	0.70104 0.42406 0.91879 -0.42100
O 	O 	0.73029 0.38326 0.83015 -0.37200
O 	O 	0.68907 0.21042 0.89561 -0.71100
O 	O 	0.58891 0.14788 0.94532 -0.38200
O 	O 	0.80414 0.26002 0.85047 -0.35400
O 	O 	0.72743 0.11171 0.84780 -0.39600
Ni	Ni	0.65574 0.08589 0.88328 1.06600
H 	H 	0.56492 0.27966 0.86173 0.16900
H 	H 	0.73345 0.22534 0.90964 0.15800
C 	C 	0.76769 0.41036 0.91480 0.26500
O 	O 	0.56709 0.09242 0.85701 -0.40500
C 	C 	0.52169 0.35460 0.93341 0.28800
C 	C 	0.73173 0.46451 0.83510 0.28700
C 	C 	0.50169 0.09702 0.86714 0.28600
C 	C 	0.79724 0.17629 0.84622 0.27000
C 	C 	0.58226 0.06395 0.94163 0.27900
O 	O 	0.78680 0.39199 0.88912 -0.35900
O 	O 	0.72509 0.49049 0.86116 -0.40300
Ni	Ni	0.62491 0.40798 0.61053 1.10400
O 	O 	0.69374 0.40429 0.57685 -0.69700
Ni	Ni	0.76489 0.34737 0.59462 1.10100
O 	O 	0.59270 0.50977 0.59530 -0.36300
O 	O 	0.72116 0.58874 0.58639 -0.40400
O 	O 	0.52810 0.31729 0.58940 -0.36500
Ni	Ni	0.75862 0.51261 0.55842 1.07600
O 	O 	0.51358 0.24439 0.64095 -0.39400
O 	O 	0.86646 0.54359 0.57888 -0.38900
O 	O 	0.84996 0.36821 0.56398 -0.36400
O 	O 	0.68419 0.33425 0.62559 -0.70400
O 	O 	0.55595 0.39755 0.64475 -0.36500
O 	O 	0.81106 0.26783 0.61696 -0.35600
O 	O 	0.69045 0.15586 0.61608 -0.39400
Ni	Ni	0.60922 0.21334 0.62875 1.07300
H 	H 	0.66179 0.36330 0.56174 0.15700
H 	H 	0.70942 0.35797 0.64426 0.16900
C 	C 	0.87425 0.53410 0.60616 0.29700
O 	O 	0.57320 0.20157 0.58736 -0.41000
C 	C 	0.64660 0.58147 0.58531 0.28000
C 	C 	0.84576 0.40112 0.53847 0.28900
C 	C 	0.52892 0.24371 0.57705 0.28600
C 	C 	0.76545 0.18716 0.62438 0.26800
C 	C 	0.51563 0.31796 0.65477 0.27700
O 	O 	0.83537 0.45739 0.61780 -0.37800
O 	O 	0.78918 0.43177 0.53178 -0.41700
Ni	Ni	0.96317 0.89603 0.72677 1.10800
O 	O 	0.88222 0.90256 0.69704 -0.34700
O 	O 	0.87755 0.79089 0.74529 -0.34600
O 	O 	0.91493 0.85041 0.78964 -0.40300
C 	C 	0.90845 0.95038 0.67430 0.28700
C 	C 	0.87357 0.78322 0.77297 0.28600
O 	O 	0.98281 0.80011 0.70186 -0.36000
O 	O 	0.97248 0.94803 0.66175 -0.38700
O 	O 	0.48683 0.78086 0.43195 -0.36400
O 	O 	0.46442 0.84433 0.37710 -0.38500
O 	O 	0.34482 0.99332 0.41410 -0.39500
O 	O 	0.43971 0.93635 0.42808 -0.37600
C 	C 	0.47262 0.91314 0.36115 0.29700
C 	C 	0.39189 0.97953 0.43393 0.28800
O 	O 	0.36797 0.53123 0.08499 -0.35500
O 	O 	0.38925 0.75090 0.16085 -0.39900
O 	O 	0.41988 0.64985 0.13270 -0.35900
C 	C 	0.44128 0.71783 0.15111 0.29300
Ni	Ni	0.85348 0.98056 0.25022 1.10100
O 	O 	0.93438 0.00670 0.21939 -0.71600
O 	O 	0.77622 0.87873 0.22592 -0.35600
O 	O 	0.78194 0.97524 0.18992 -0.39100
O 	O 	0.91082 0.89923 0.26531 -0.36200
Ni	Ni	0.90275 0.03696 0.18270 1.07200
O 	O 	0.82962 0.07044 0.31310 -0.39000
O 	O 	0.89442 0.15423 0.19657 -0.40100
O 	O 	0.93182 0.09968 0.26368 -0.69700
O 	O 	0.77653 0.94717 0.28318 -0.35800
Ni	Ni	0.94506 0.09215 0.30497 1.07800
H 	H 	0.95043 0.95482 0.21655 0.17700
H 	H 	0.90915 0.14586 0.25935 0.17000
C 	C 	0.95759 0.22502 0.20157 0.29300
O 	O 	0.93178 0.96177 0.30943 -0.38200
C 	C 	0.75019 0.89562 0.20109 0.26900
C 	C 	0.95205 0.91803 0.28927 0.28000
C 	C 	0.76801 0.00339 0.30252 0.27000
O 	O 	0.01680 0.21979 0.21707 -0.35500
C 	C 	0.85763 0.24335 0.15213 0.08200
N 	N 	0.79803 0.18871 0.14541 -0.11400
C 	C 	0.52097 0.74593 0.16495 -0.06000
C 	C 	0.52998 0.76388 0.19442 0.00400
C 	C 	0.60417 0.81686 0.20606 0.00500
C 	C 	0.67250 0.83533 0.18969 -0.05600
C 	C 	0.66491 0.80480 0.16119 0.00100
C 	C 	0.58911 0.76454 0.14836 0.00400
C 	C 	0.46360 0.72610 0.21286 0.09900
C 	C 	0.73499 0.81623 0.14498 0.07200
C 	C 	0.58138 0.74612 0.11802 0.09800
C 	C 	0.60830 0.86220 0.23309 0.09400
N 	N 	0.57529 0.73149 0.09382 -0.10500
N 	N 	0.61090 0.89893 0.25454 -0.10800
N 	N 	0.79094 0.82539 0.13205 -0.12500
N 	N 	0.41066 0.69594 0.22760 -0.09900
C 	C 	0.53926 0.94001 0.34095 -0.05600
C 	C 	0.59007 0.03015 0.33884 0.00100
C 	C 	0.66232 0.05111 0.32448 -0.00800
C 	C 	0.68937 0.98212 0.31601 -0.03900
C 	C 	0.63936 0.89242 0.31939 0.00300
C 	C 	0.56116 0.87302 0.32792 0.00700
C 	C 	0.56941 0.10104 0.35173 0.09900
C 	C 	0.66944 0.82056 0.31599 0.10700
C 	C 	0.50284 0.78460 0.32284 0.08800
C 	C 	0.70691 0.14285 0.31765 0.09400
N 	N 	0.45629 0.71404 0.31876 -0.11500
N 	N 	0.74241 0.21610 0.31219 -0.10400
N 	N 	0.69337 0.76316 0.31329 -0.09700
N 	N 	0.55307 0.15778 0.36200 -0.10500
C 	C 	0.99621 0.79173 0.30323 0.00300
C 	C 	0.91565 0.72944 0.30006 0.10100
N 	N 	0.03055 0.59303 0.31658 -0.09300
N 	N 	0.85128 0.67973 0.29753 -0.09600
C 	C 	0.48353 0.21069 0.55051 -0.07200
C 	C 	0.48909 0.26897 0.52806 0.00500
C 	C 	0.46335 0.23510 0.50066 -0.05600
C 	C 	0.43242 0.14264 0.49552 0.01400
C 	C 	0.42140 0.08413 0.51852 0.01000
C 	C 	0.44553 0.11870 0.54598 -0.01300
C 	C 	0.39178 0.99179 0.51344 -0.04900
C 	C 	0.37858 0.95777 0.48569 0.01600
C 	C 	0.39335 0.01552 0.46272 -0.08900
C 	C 	0.41726 0.10779 0.46763 -0.01000
H 	H 	0.51728 0.34026 0.53150 0.02600
H 	H 	0.43935 0.07387 0.56353 0.04200
H 	H 	0.38191 0.94637 0.53095 0.04800
H 	H 	0.35902 0.88638 0.48196 0.01700
C 	C 	0.96880 0.48048 0.47418 0.01600
C 	C 	0.98608 0.42055 0.52872 0.00600
C 	C 	0.91113 0.41578 0.51862 -0.06600
C 	C 	0.90220 0.44041 0.49060 -0.02200
H 	H 	0.99367 0.39996 0.55002 0.05500
H 	H 	0.84397 0.43323 0.48224 0.04500
C 	C 	0.62171 0.63651 0.56540 -0.08500
C 	C 	0.55707 0.66160 0.57164 0.02000
C 	C 	0.52186 0.69617 0.55051 -0.05800
C 	C 	0.54982 0.70383 0.52274 0.02200
C 	C 	0.61808 0.68417 0.51680 0.00600
C 	C 	0.65488 0.65259 0.53839 -0.01000
C 	C 	0.64462 0.68934 0.48883 -0.05100
C 	C 	0.59973 0.70595 0.46663 -0.00100
C 	C 	0.52892 0.71900 0.47231 -0.06300
C 	C 	0.50680 0.72353 0.50049 -0.02000
H 	H 	0.53224 0.65115 0.59260 0.04700
H 	H 	0.47053 0.71291 0.55541 0.05200
H 	H 	0.70558 0.63433 0.53365 -0.01200
H 	H 	0.69784 0.67624 0.48411 0.03900
H 	H 	0.61794 0.70422 0.44494 0.03600
H 	H 	0.45313 0.73631 0.50486 0.04500
C 	C 	0.80134 0.12577 0.63780 -0.05300
C 	C 	0.75281 0.04505 0.65037 -0.01500
C 	C 	0.78719 0.98454 0.66055 0.03000
C 	C 	0.87009 0.01226 0.66398 -0.09100
C 	C 	0.91700 0.09934 0.65652 0.01100
C 	C 	0.88453 0.14848 0.63930 -0.00300
C 	C 	0.66979 0.02756 0.65512 0.07900
C 	C 	0.99243 0.14419 0.67075 0.03800
C 	C 	0.93638 0.21622 0.62145 0.10700
C 	C 	0.73734 0.89436 0.66716 0.09800
N 	N 	0.97803 0.27016 0.60720 -0.10300
N 	N 	0.69751 0.82238 0.67243 -0.09500
N 	N 	0.05223 0.18129 0.68239 -0.13200
N 	N 	0.60352 0.01341 0.65898 -0.13300
C 	C 	0.44888 0.27502 0.70084 -0.00200
C 	C 	0.52294 0.28495 0.71532 0.07500
N 	N 	0.58210 0.29291 0.72688 -0.11300
C 	C 	0.02730 0.74630 0.66014 -0.06700
C 	C 	0.00992 0.76516 0.63235 0.00800
C 	C 	0.95663 0.69732 0.61508 0.00200
C 	C 	0.93491 0.60693 0.62320 -0.06100
C 	C 	0.97059 0.58743 0.64807 0.00300
C 	C 	0.01297 0.65714 0.66728 0.01000
C 	C 	0.04731 0.85387 0.62146 0.07900
C 	C 	0.96841 0.49770 0.65296 0.10000
C 	C 	0.92030 0.72146 0.59039 0.09100
N 	N 	0.89144 0.74107 0.57071 -0.12200
N 	N 	0.96678 0.42614 0.65690 -0.09900
N 	N 	0.07728 0.92467 0.61272 -0.12500
C 	C 	0.89441 0.57886 0.00170 -0.05500
C 	C 	0.88759 0.51184 0.98134 0.01700
C 	C 	0.93647 0.46046 0.98369 0.01400
C 	C 	0.93036 0.39422 0.96315 -0.05300
C 	C 	0.87578 0.37861 0.94054 0.00200
C 	C 	0.82642 0.42868 0.93828 -0.06900
C 	C 	0.83257 0.49547 0.95868 -0.01800
H 	H 	0.85728 0.61871 0.00008 0.04800
H 	H 	0.96771 0.35460 0.96470 0.04500
H 	H 	0.87105 0.32667 0.92499 0.03300
H 	H 	0.79506 0.53490 0.95681 0.04400
C 	C 	0.55372 0.00312 0.96559 -0.07000
C 	C 	0.56638 0.92188 0.96645 0.01000
C 	C 	0.53918 0.86463 0.98921 -0.05600
C 	C 	0.49912 0.88815 0.01138 0.01600
C 	C 	0.48625 0.96976 0.01058 0.01900
C 	C 	0.51326 0.02655 0.98769 -0.02100
C 	C 	0.47183 0.83128 0.03436 -0.01800
H 	H 	0.59771 0.90328 0.94961 0.02700
H 	H 	0.54940 0.80218 0.98960 0.04400
H 	H 	0.50221 0.08855 0.98695 0.05500
H 	H 	0.48203 0.76880 0.03515 0.05200
C 	C 	0.32480 0.33270 0.04067 0.00300
C 	C 	0.35307 0.30021 0.01722 -0.05400
C 	C 	0.40956 0.35926 0.99992 0.01500
C 	C 	0.43842 0.45153 0.00649 0.01700
C 	C 	0.49463 0.51070 0.98921 -0.05600
C 	C 	0.52176 0.47872 0.96545 0.00700
C 	C 	0.49295 0.38726 0.95864 -0.06900
C 	C 	0.43706 0.32747 0.97602 -0.01500
H 	H 	0.28121 0.28652 0.05387 0.04400
H 	H 	0.33083 0.22926 0.01246 0.04900
H 	H 	0.56557 0.52506 0.95236 0.02600
H 	H 	0.41437 0.25678 0.97075 0.05500
C 	C 	0.86074 0.15773 0.83085 -0.05700
C 	C 	0.93879 0.18667 0.84227 -0.00300
C 	C 	0.99753 0.16423 0.82816 0.00800
C 	C 	0.97644 0.10525 0.80447 -0.06700
C 	C 	0.90000 0.08141 0.79208 0.00400
C 	C 	0.84340 0.11088 0.80457 0.00200
C 	C 	0.95849 0.23830 0.86860 0.08600
C 	C 	0.87918 0.02649 0.76655 0.06300
C 	C 	0.76848 0.09588 0.78984 0.09800
N 	N 	0.70876 0.08391 0.77809 -0.10400
N 	N 	0.86142 0.98261 0.74617 -0.13200
N 	N 	0.97443 0.27956 0.88960 -0.11600
C 	C 	0.42621 0.06319 0.84985 -0.07200
C 	C 	0.41211 0.99297 0.82940 0.01400
C 	C 	0.46763 0.94716 0.82643 0.09400
N 	N 	0.51180 0.91045 0.82403 -0.10900
C 	C 	0.76348 0.53329 0.81358 -0.06200
C 	C 	0.84416 0.56141 0.80680 0.00500
C 	C 	0.87962 0.64190 0.79250 0.00200
C 	C 	0.83456 0.69454 0.78513 -0.07600
C 	C 	0.75256 0.66258 0.78967 0.01000
C 	C 	0.71686 0.58139 0.80362 -0.00300
C 	C 	0.89123 0.50907 0.81539 0.10000
C 	C 	0.70530 0.71399 0.78046 0.09200
C 	C 	0.63233 0.54766 0.80802 0.06700
C 	C 	0.96258 0.67095 0.78557 0.03900
N 	N 	0.56489 0.52069 0.81154 -0.11900
N 	N 	0.66765 0.75508 0.77310 -0.09700
N 	N 	0.92873 0.46729 0.82225 -0.09700
