data_crystal

_cell_length_a 20.28769
_cell_length_b 21.37205
_cell_length_c 44.73039
_cell_angle_alpha 60.88455
_cell_angle_beta  118.88023
_cell_angle_gamma 133.44583

_symmetry_space_group_name_	'P 1'
_symmetry_space_group_name_H-M	'P 1'

loop_
_symmetry_equiv_pos_as_xyz
  x,y,z

loop_
_atom_site_label
_atom_site_type_symbol
_atom_site_fract_x
_atom_site_fract_y
_atom_site_fract_z
_atom_site_charge
C 	C 	0.28334 0.63218 0.15513 0.21800
C 	C 	0.37961 0.67088 0.16687 -0.12500
C 	C 	0.41401 0.63528 0.16449 0.23100
C 	C 	0.35257 0.55195 0.15762 -0.13400
C 	C 	0.25678 0.51127 0.14614 0.22400
C 	C 	0.22142 0.55192 0.14426 -0.11900
H 	H 	0.42819 0.73231 0.17519 0.15400
H 	H 	0.38016 0.52331 0.15724 0.13700
H 	H 	0.14762 0.52289 0.13374 0.15900
C 	C 	0.31280 0.65479 0.65343 0.22500
C 	C 	0.24568 0.56867 0.64734 -0.12200
C 	C 	0.27519 0.52056 0.65177 0.22800
C 	C 	0.37038 0.55956 0.66079 -0.13800
C 	C 	0.43561 0.64857 0.66156 0.23100
C 	C 	0.40813 0.69108 0.66339 -0.13000
H 	H 	0.17213 0.54089 0.63813 0.16000
H 	H 	0.39286 0.52459 0.66193 0.13700
H 	H 	0.46065 0.75740 0.66781 0.14800
Co	Co	0.06011 0.02147 0.03575 1.18400
Co	Co	0.09492 0.89415 0.03531 1.18700
C 	C 	0.25159 0.07247 0.04769 0.36300
O 	O 	0.01792 0.05757 0.16417 -0.36000
C 	C 	0.02020 0.98999 0.18618 0.34600
O 	O 	0.04514 0.11313 0.02870 -0.40700
C 	C 	0.06258 0.21190 0.09621 0.42800
C 	C 	0.12213 0.80395 0.11093 0.42000
O 	O 	0.01515 0.93844 0.17494 -0.32700
O 	O 	0.08810 0.79289 0.07930 -0.37400
O 	O 	0.10522 0.84319 0.11877 -0.34500
O 	O 	0.08634 0.17710 0.08920 -0.35700
O 	O 	0.04040 0.92121 0.05304 -0.73800
O 	O 	0.22499 0.99018 0.05826 -0.30600
O 	O 	0.20502 0.09241 0.04996 -0.35300
Co	Co	0.01338 0.08935 0.56926 1.19700
Co	Co	0.07012 0.03304 0.53279 1.18300
Co	Co	0.10883 0.90839 0.53212 1.19200
C 	C 	0.24010 0.10587 0.51599 0.42500
O 	O 	0.06563 0.12914 0.52932 -0.40800
C 	C 	0.09322 0.19971 0.62004 0.39000
C 	C 	0.19760 0.87646 0.60731 0.38300
O 	O 	0.21575 0.93276 0.57663 -0.31200
O 	O 	0.13803 0.85928 0.62025 -0.31000
O 	O 	0.03630 0.12769 0.64050 -0.36200
O 	O 	0.10410 0.19602 0.59362 -0.32500
O 	O 	0.06759 0.94082 0.55391 -0.73400
O 	O 	0.18559 0.03722 0.50285 -0.41000
O 	O 	0.20968 0.11449 0.53291 -0.36300
C 	C 	0.06873 0.06460 0.87941 -0.07700
C 	C 	0.07499 0.07531 0.90958 0.04200
C 	C 	0.07830 0.99131 0.83712 0.04200
C 	C 	0.07643 0.97899 0.80838 -0.01900
H 	H 	0.11959 0.11978 0.86364 0.09100
H 	H 	0.13277 0.13747 0.91733 0.09500
H 	H 	0.14271 0.01900 0.85697 0.04000
H 	H 	0.13974 0.99881 0.80614 0.09600
C 	C 	0.06349 0.04855 0.38664 -0.04600
C 	C 	0.05653 0.04784 0.41668 -0.00600
C 	C 	0.02722 0.04715 0.31074 -0.04800
C 	C 	0.03660 0.04487 0.28219 -0.04100
C 	C 	0.02049 0.96934 0.28235 0.06300
C 	C 	0.02271 0.96550 0.25102 0.08300
C 	C 	0.02322 0.97051 0.22274 -0.03200
H 	H 	0.12594 0.10358 0.37668 0.08600
H 	H 	0.11444 0.10145 0.42974 0.09700
H 	H 	0.03840 0.10541 0.30980 0.08200
H 	H 	0.05499 0.10149 0.25966 0.08900
C 	C 	0.17851 0.28980 0.66261 0.28800
C 	C 	0.14665 0.28568 0.62741 -0.19500
C 	C 	0.14455 0.35548 0.60026 0.29200
C 	C 	0.17562 0.42903 0.60832 0.25900
C 	C 	0.20853 0.43320 0.64358 -0.14100
C 	C 	0.20410 0.36050 0.67056 0.25200
F 	F 	0.23356 0.36266 0.70474 -0.36500
F 	F 	0.18271 0.22385 0.68922 -0.37900
F 	F 	0.17869 0.49851 0.58185 -0.34700
F 	F 	0.11016 0.35103 0.56617 -0.35200
F 	F 	0.43137 0.73674 0.59015 -0.32900
C 	C 	0.21475 0.68343 0.65649 0.26200
C 	C 	0.28531 0.71277 0.64362 -0.13500
C 	C 	0.33329 0.79971 0.62256 0.25800
C 	C 	0.31444 0.85745 0.61601 0.28900
C 	C 	0.23776 0.82585 0.62562 -0.17800
C 	C 	0.18929 0.73877 0.64677 0.29600
F 	F 	0.11635 0.70693 0.65719 -0.34800
F 	F 	0.17066 0.60145 0.67825 -0.35400
F 	F 	0.36806 0.94351 0.59862 -0.32600
F 	F 	0.39687 0.82769 0.60769 -0.33700
C 	C 	0.13069 0.36977 0.08373 0.30000
C 	C 	0.13240 0.29656 0.10669 -0.20200
C 	C 	0.17222 0.29415 0.14268 0.29000
C 	C 	0.19792 0.35692 0.15618 0.24800
C 	C 	0.19622 0.43021 0.13337 -0.13600
C 	C 	0.16235 0.43615 0.09697 0.25700
F 	F 	0.16297 0.50769 0.07431 -0.35100
F 	F 	0.09323 0.37391 0.04874 -0.34400
F 	F 	0.23071 0.34997 0.19143 -0.36800
F 	F 	0.18099 0.22771 0.16497 -0.38300
F 	F 	0.45424 0.74515 0.09827 -0.33300
C 	C 	0.17194 0.63840 0.16256 0.26000
C 	C 	0.24980 0.68164 0.15030 -0.13000
C 	C 	0.29835 0.77361 0.13449 0.25600
C 	C 	0.26802 0.82022 0.13040 0.29400
C 	C 	0.18114 0.77401 0.13659 -0.18800
C 	C 	0.13732 0.68431 0.15546 0.30500
F 	F 	0.05629 0.63943 0.16388 -0.34300
F 	F 	0.12871 0.55187 0.18065 -0.35600
F 	F 	0.31581 0.90864 0.11513 -0.33900
F 	F 	0.37120 0.81675 0.12100 -0.34200
C 	C 	0.43475 0.26212 0.47110 0.25000
C 	C 	0.50152 0.24902 0.49760 -0.14300
C 	C 	0.48617 0.19917 0.53163 0.26000
C 	C 	0.40514 0.16313 0.53907 0.30100
C 	C 	0.33603 0.17190 0.51215 -0.21600
C 	C 	0.35268 0.22432 0.47843 0.29900
F 	F 	0.28748 0.23568 0.45241 -0.38600
F 	F 	0.45048 0.31315 0.43847 -0.36300
F 	F 	0.39142 0.11559 0.57213 -0.35900
F 	F 	0.55196 0.18888 0.55783 -0.33900
C 	C 	0.49077 0.18984 0.04217 0.26700
C 	C 	0.48389 0.22993 0.00595 -0.15800
C 	C 	0.40631 0.23130 0.98515 0.26300
C 	C 	0.33420 0.18917 0.00018 0.27400
C 	C 	0.33808 0.14322 0.03580 -0.19000
C 	C 	0.41873 0.14772 0.05705 0.29700
F 	F 	0.42539 0.10780 0.09197 -0.34000
F 	F 	0.56916 0.19478 0.06312 -0.33600
F 	F 	0.25839 0.18919 0.97978 -0.39300
F 	F 	0.40136 0.27414 0.95053 -0.37500
C 	C 	0.69297 0.28424 0.00132 0.22100
C 	C 	0.59723 0.24719 0.99006 -0.12700
C 	C 	0.56654 0.28649 0.99214 0.23400
C 	C 	0.62985 0.37463 0.99400 -0.13500
C 	C 	0.72559 0.41502 0.00397 0.22200
H 	H 	0.54641 0.18195 0.98466 0.14300
H 	H 	0.60496 0.40739 0.99294 0.13800
C 	C 	0.72448 0.30679 0.50092 0.21600
C 	C 	0.62850 0.26933 0.48952 -0.12400
C 	C 	0.59596 0.30564 0.49269 0.22900
C 	C 	0.65886 0.38851 0.50008 -0.13400
C 	C 	0.75443 0.42850 0.51085 0.22200
H 	H 	0.57875 0.20855 0.48065 0.15000
H 	H 	0.63275 0.41778 0.50106 0.13600
C 	C 	0.50944 0.74100 0.61104 0.26600
C 	C 	0.51685 0.70194 0.64733 -0.14600
C 	C 	0.59397 0.69981 0.66809 0.25500
C 	C 	0.66582 0.74132 0.65304 0.29000
C 	C 	0.66204 0.78731 0.61740 -0.19800
C 	C 	0.58117 0.78247 0.59612 0.30700
F 	F 	0.57451 0.82232 0.56119 -0.32800
F 	F 	0.59914 0.65752 0.70278 -0.36800
C 	C 	0.66107 0.72478 0.17961 0.30000
C 	C 	0.67558 0.77272 0.14540 -0.21000
C 	C 	0.60435 0.77691 0.11795 0.30400
C 	C 	0.52227 0.73948 0.12502 0.26400
C 	C 	0.50842 0.69315 0.15935 -0.14200
C 	C 	0.57786 0.68529 0.18657 0.25400
F 	F 	0.56392 0.63811 0.21962 -0.36000
F 	F 	0.61693 0.82159 0.08465 -0.34600
F 	F 	0.63244 0.12066 0.53301 -0.35200
F 	F 	0.60584 0.10902 0.04525 -0.34900
C 	C 	0.04282 0.00114 0.96934 0.28800
O 	O 	0.10933 0.99148 0.98887 -0.33300
O 	O 	0.04102 0.98998 0.58507 -0.54200
C 	C 	0.01195 0.00373 0.93132 -0.07400
C 	C 	0.00222 0.97407 0.34011 0.06700
F 	F 	0.74168 0.74141 0.67350 -0.38400
C 	C 	0.70555 0.16384 0.51967 0.25200
F 	F 	0.68467 0.02766 0.53735 -0.35700
C 	C 	0.72229 0.22750 0.01153 -0.14400
C 	C 	0.67249 0.13928 0.03144 0.26200
C 	C 	0.69254 0.08255 0.03791 0.26000
F 	F 	0.63777 0.99561 0.05425 -0.30900
F 	F 	0.75607 0.57085 0.95153 -0.36600
F 	F 	0.72957 0.72004 0.20640 -0.37500
C 	C 	0.73439 0.11659 0.52306 0.29100
Co	Co	0.02628 0.87018 0.59043 1.20200
O 	O 	0.03578 0.77626 0.55851 -0.38000
C 	C 	0.75616 0.25640 0.50491 -0.13000
C 	C 	0.75786 0.36920 0.00845 -0.12100
C 	C 	0.74881 0.85904 0.60565 0.39700
C 	C 	0.77076 0.83875 0.14077 0.42700
C 	C 	0.77184 0.11600 0.02956 -0.17700
F 	F 	0.78463 0.59062 0.46451 -0.36800
C 	C 	0.78820 0.57268 0.98590 0.25100
C 	C 	0.78801 0.38693 0.51207 -0.11900
O 	O 	0.79504 0.01111 0.07945 -0.33600
O 	O 	0.77407 0.94092 0.59488 -0.31900
C 	C 	0.79583 0.25897 0.99982 0.27000
C 	C 	0.78967 0.50205 0.01230 -0.14200
F 	F 	0.79707 0.70184 0.96901 -0.38600
O 	O 	0.00606 0.01029 0.98335 -0.34000
O 	O 	0.80038 0.82828 0.12425 -0.35000
C 	C 	0.81265 0.06599 0.04852 0.38000
O 	O 	0.79894 0.84067 0.60504 -0.34500
C 	C 	0.80978 0.63999 0.99480 0.29300
C 	C 	0.99192 0.97660 0.37058 0.04200
C 	C 	0.97920 0.97434 0.43166 -0.02200
C 	C 	0.99036 0.95493 0.46995 0.31300
O 	O 	0.99483 0.88790 0.49097 -0.33900
O 	O 	0.99275 0.00256 0.48247 -0.36500
Co	Co	0.98298 0.07013 0.06575 1.19300
O 	O 	0.97620 0.16777 0.09653 -0.39400
F 	F 	0.84907 0.43420 0.58252 -0.35600
C 	C 	0.85033 0.50578 0.55937 0.25600
F 	F 	0.91853 0.56962 0.60698 -0.34900
C 	C 	0.88184 0.57303 0.57203 0.29600
C 	C 	0.81694 0.51072 0.52306 -0.13600
O 	O 	0.88456 0.93754 0.66504 -0.35900
C 	C 	0.95309 0.93169 0.68567 0.33800
O 	O 	0.99408 0.92419 0.67309 -0.33000
C 	C 	0.99327 0.94215 0.78257 0.02700
C 	C 	0.99200 0.93695 0.75077 0.08300
C 	C 	0.98137 0.93328 0.72223 -0.03800
C 	C 	0.85517 0.57826 0.05649 0.29200
C 	C 	0.82557 0.50627 0.04771 0.25700
F 	F 	0.82759 0.43860 0.07368 -0.35200
F 	F 	0.89383 0.58369 0.09056 -0.35600
H 	H 	0.83161 0.39776 0.01841 0.15800
H 	H 	0.86167 0.41523 0.52224 0.15700
Co	Co	0.99074 0.84731 0.08735 1.19600
Co	Co	0.93994 0.90858 0.12438 1.19800
C 	C 	0.90280 0.73255 0.03702 0.39100
Co	Co	0.90291 0.03629 0.12360 1.17700
O 	O 	0.94212 0.00087 0.10241 -0.76400
O 	O 	0.94315 0.81128 0.12813 -0.40300
O 	O 	0.96595 0.94854 0.07192 -0.55100
O 	O 	0.82601 0.90831 0.15345 -0.37800
O 	O 	0.87191 0.08210 0.03578 -0.32200
O 	O 	0.95753 0.80347 0.01567 -0.37100
O 	O 	0.89616 0.73817 0.06407 -0.32600
Co	Co	0.94464 0.91422 0.62062 1.20100
C 	C 	0.94913 0.73104 0.55886 0.41100
Co	Co	0.90090 0.03658 0.61929 1.17500
O 	O 	0.96106 0.01330 0.60275 -0.77300
O 	O 	0.96344 0.82522 0.62767 -0.40300
C 	C 	0.87967 0.13112 0.54409 0.42000
O 	O 	0.90958 0.13938 0.57591 -0.38300
O 	O 	0.89921 0.09349 0.53663 -0.36000
O 	O 	0.92432 0.76395 0.56650 -0.35600
C 	C 	0.93715 0.92410 0.92041 0.05200
C 	C 	0.93143 0.91277 0.89053 -0.05700
C 	C 	0.99904 0.98212 0.87043 0.08200
C 	C 	0.99717 0.96803 0.84007 -0.01000
C 	C 	0.91215 0.91775 0.78580 -0.01900
C 	C 	0.91411 0.93095 0.81419 -0.00300
H 	H 	0.88728 0.86864 0.93650 0.09400
H 	H 	0.87633 0.84909 0.88381 0.09700
H 	H 	0.84775 0.89010 0.76592 0.08500
H 	H 	0.85125 0.91332 0.81576 0.07400
C 	C 	0.90455 0.90582 0.41395 0.02400
C 	C 	0.91091 0.90681 0.38372 -0.03000
C 	C 	0.99572 0.89618 0.31163 -0.02000
C 	C 	0.98712 0.89865 0.34046 -0.03100
H 	H 	0.84404 0.84887 0.42489 0.10200
H 	H 	0.85376 0.85218 0.37110 0.08700
H 	H 	0.98250 0.83727 0.31209 0.08900
H 	H 	0.96873 0.84203 0.36296 0.08300
C 	C 	0.83453 0.29947 0.49299 0.25700
C 	C 	0.86784 0.25269 0.49969 0.30300
C 	C 	0.82216 0.16234 0.51777 -0.19400
F 	F 	0.94950 0.29724 0.49184 -0.34800
F 	F 	0.87944 0.38656 0.47561 -0.35700
C 	C 	0.88046 0.64617 0.54856 -0.19800
C 	C 	0.84227 0.64826 0.51255 0.28800
C 	C 	0.81664 0.58447 0.49970 0.24800
F 	F 	0.83488 0.71524 0.48967 -0.38900
C 	C 	0.82219 0.20431 0.00960 0.28500
F 	F 	0.89797 0.23802 0.00052 -0.35300
F 	F 	0.84192 0.34231 0.97916 -0.35700
C 	C 	0.84738 0.64572 0.02999 -0.20000
