data_crystal

_cell_length_a 21.05459
_cell_length_b 20.24687
_cell_length_c 44.81093
_cell_angle_alpha 90.69931
_cell_angle_beta  90.78282
_cell_angle_gamma 113.46506

_symmetry_space_group_name_	'P 1'
_symmetry_space_group_name_H-M	'P 1'

loop_
_symmetry_equiv_pos_as_xyz
  x,y,z

loop_
_atom_site_label
_atom_site_type_symbol
_atom_site_fract_x
_atom_site_fract_y
_atom_site_fract_z
_atom_site_charge
C 	C 	0.02303 0.01695 0.71881 -0.04200
C 	C 	0.07381 0.00198 0.77197 -0.03700
H 	H 	0.09550 0.99581 0.79399 0.03400
C 	C 	0.02147 0.07048 0.74343 -0.00300
C 	C 	0.09869 0.02506 0.71866 -0.00300
C 	C 	0.04843 0.06352 0.77078 -0.00300
C 	C 	0.12529 0.01899 0.74601 -0.00500
Ni	Ni	0.21403 0.69650 0.42848 1.09800
O 	O 	0.29000 0.72814 0.39698 -0.70200
O 	O 	0.15388 0.73543 0.40388 -0.36800
O 	O 	0.24235 0.84585 0.40038 -0.41700
O 	O 	0.17074 0.60372 0.40342 -0.38800
Ni	Ni	0.33248 0.83178 0.39109 1.06400
O 	O 	0.18501 0.60491 0.49140 -0.41900
O 	O 	0.35710 0.85286 0.43523 -0.42300
O 	O 	0.29177 0.67997 0.44937 -0.70200
O 	O 	0.13466 0.65733 0.45852 -0.37500
O 	O 	0.32351 0.54951 0.44457 -0.42200
Ni	Ni	0.25588 0.58418 0.46689 1.06700
H 	H 	0.27392 0.70231 0.37762 0.15000
H 	H 	0.31036 0.71614 0.46574 0.15200
O 	O 	0.17838 0.52529 0.43779 -0.40900
C 	C 	0.18113 0.79898 0.39155 0.28700
C 	C 	0.17452 0.54238 0.40993 0.29600
C 	C 	0.12920 0.60933 0.47924 0.30500
O 	O 	0.27824 0.68471 0.02333 -0.70600
Ni	Ni	0.24247 0.70367 0.06215 1.09800
O 	O 	0.32276 0.56386 0.01834 -0.42000
Ni	Ni	0.23228 0.58148 0.01501 1.07000
O 	O 	0.19535 0.53103 0.05479 -0.39900
O 	O 	0.13844 0.64046 0.05654 -0.38900
O 	O 	0.34632 0.75942 0.06832 -0.70000
O 	O 	0.22333 0.74760 0.10062 -0.38800
O 	O 	0.28015 0.86178 0.08337 -0.41700
H 	H 	0.26629 0.71163 0.00746 0.16000
H 	H 	0.36358 0.74432 0.08657 0.15100
C 	C 	0.21951 0.55670 0.08160 0.31600
C 	C 	0.10860 0.60931 0.03093 0.31100
C 	C 	0.24074 0.81747 0.10342 0.28200
O 	O 	0.25730 0.62534 0.08601 -0.41000
O 	O 	0.14366 0.59618 0.00900 -0.42200
C 	C 	0.14634 0.47261 0.15565 -0.10000
C 	C 	0.14604 0.40375 0.15180 0.01100
C 	C 	0.17789 0.38828 0.12667 0.01900
C 	C 	0.20473 0.44032 0.10458 -0.01100
C 	C 	0.20052 0.50761 0.10731 -0.11500
C 	C 	0.17215 0.52443 0.13342 0.10400
C 	C 	0.10221 0.34518 0.17132 -0.01700
C 	C 	0.17905 0.31480 0.12229 -0.16900
H 	H 	0.22716 0.42767 0.08480 0.03500
C 	C 	0.16736 0.59636 0.13742 -0.21100
H 	H 	0.12303 0.48461 0.17529 0.05000
C 	C 	0.12876 0.32957 0.19818 0.04400
C 	C 	0.08648 0.27132 0.21532 -0.07200
C 	C 	0.01705 0.23069 0.20672 -0.01200
C 	C 	0.03279 0.30609 0.16311 -0.06900
C 	C 	0.20220 0.37404 0.20840 -0.18000
H 	H 	0.10830 0.25634 0.23480 0.04500
H 	H 	0.22016 0.63943 0.13991 0.08200
H 	H 	0.13824 0.59821 0.15769 0.06800
H 	H 	0.13985 0.60713 0.11800 0.09100
H 	H 	0.12640 0.27524 0.11582 0.06200
H 	H 	0.19614 0.29728 0.14319 0.05800
H 	H 	0.21543 0.31489 0.10455 0.05800
H 	H 	0.21423 0.35657 0.23041 0.05800
H 	H 	0.21028 0.43152 0.21069 0.06200
H 	H 	0.23895 0.36886 0.19193 0.06000
C 	C 	0.16654 0.87002 0.17190 -0.09500
C 	C 	0.12034 0.89581 0.15868 0.00900
C 	C 	0.11163 0.89300 0.12732 0.02000
C 	C 	0.15143 0.86707 0.10960 -0.01400
C 	C 	0.19896 0.84301 0.12276 -0.10700
C 	C 	0.20616 0.84369 0.15415 0.08900
C 	C 	0.08659 0.93240 0.17754 -0.02200
C 	C 	0.06208 0.92034 0.11263 -0.16900
H 	H 	0.14566 0.86585 0.08549 0.03600
C 	C 	0.25637 0.81723 0.16876 -0.19600
H 	H 	0.17270 0.87190 0.19601 0.04700
C 	C 	0.02121 0.89363 0.18999 0.04900
C 	C 	0.01815 0.00635 0.20811 -0.00400
C 	C 	0.08518 0.04459 0.19694 0.04200
C 	C 	0.11853 0.00723 0.18155 -0.06300
C 	C 	0.12013 0.12528 0.20011 -0.18100
H 	H 	0.16892 0.03665 0.17205 0.04200
H 	H 	0.25970 0.82642 0.19334 0.05800
H 	H 	0.30903 0.84608 0.15981 0.05000
H 	H 	0.23930 0.75858 0.16434 0.06700
H 	H 	0.08206 0.97977 0.11546 0.06000
H 	H 	0.01024 0.89550 0.12278 0.05900
H 	H 	0.05544 0.90699 0.08836 0.05800
H 	H 	0.17651 0.14500 0.19592 0.05800
H 	H 	0.11452 0.14290 0.22307 0.06500
H 	H 	0.09696 0.15026 0.18369 0.06600
C 	C 	0.06814 0.32716 0.31680 -0.01900
C 	C 	0.08257 0.26495 0.31553 0.04800
C 	C 	0.04926 0.21163 0.29383 -0.07500
C 	C 	0.09742 0.38099 0.34106 0.01400
C 	C 	0.13116 0.25383 0.33807 -0.18300
H 	H 	0.06021 0.16383 0.29284 0.04600
C 	C 	0.16060 0.44091 0.33759 0.01600
C 	C 	0.18656 0.49171 0.36097 -0.01200
C 	C 	0.14934 0.48434 0.38730 -0.11500
C 	C 	0.08501 0.42524 0.39038 0.10900
C 	C 	0.06062 0.37306 0.36748 -0.10200
C 	C 	0.19917 0.45197 0.30869 -0.16700
H 	H 	0.23509 0.53793 0.35847 0.01700
C 	C 	0.04190 0.41786 0.41778 -0.20700
H 	H 	0.10855 0.24778 0.36062 0.06500
H 	H 	0.18198 0.30048 0.33839 0.06300
H 	H 	0.14060 0.20477 0.33276 0.05900
H 	H 	0.24874 0.50034 0.30986 0.05400
H 	H 	0.16690 0.45920 0.29024 0.05900
H 	H 	0.21142 0.40466 0.30344 0.05800
H 	H 	0.03640 0.46912 0.42289 0.08700
H 	H 	0.06662 0.40296 0.43712 0.08000
C 	C 	0.05231 0.93078 0.31279 -0.01100
C 	C 	0.09619 0.99474 0.29904 0.03400
C 	C 	0.06763 0.02975 0.27958 -0.06200
C 	C 	0.08050 0.89296 0.33358 0.00600
C 	C 	0.17334 0.02547 0.30496 -0.16800
H 	H 	0.10105 0.07896 0.26906 0.04000
C 	C 	0.08364 0.90724 0.36460 0.02200
C 	C 	0.11264 0.87204 0.38374 -0.01200
C 	C 	0.13814 0.82290 0.37228 -0.11000
C 	C 	0.13123 0.80552 0.34149 0.08600
C 	C 	0.10272 0.84110 0.32231 -0.09300
C 	C 	0.05712 0.96065 0.37724 -0.17500
H 	H 	0.11747 0.88458 0.40748 0.03700
C 	C 	0.15771 0.75208 0.32883 -0.19700
H 	H 	0.09887 0.82939 0.29851 0.04800
H 	H 	0.19497 0.98640 0.29738 0.05500
H 	H 	0.18457 0.03694 0.32919 0.05800
H 	H 	0.20023 0.07653 0.29296 0.05500
H 	H 	0.06373 0.96602 0.40191 0.05900
H 	H 	0.08579 0.01455 0.36768 0.06300
H 	H 	0.13664 0.70121 0.34143 0.07200
H 	H 	0.21517 0.77492 0.33040 0.03500
H 	H 	0.14183 0.73864 0.30503 0.06000
C 	C 	0.06319 0.57419 0.49358 -0.09500
C 	C 	0.04151 0.26954 0.67715 -0.18100
H 	H 	0.08850 0.19710 0.71621 0.03800
H 	H 	0.09791 0.29062 0.68245 0.05700
C 	C 	0.32621 0.12313 0.63972 0.01200
C 	C 	0.26004 0.09387 0.65614 -0.02100
H 	H 	0.27524 0.08645 0.59714 0.05100
C 	C 	0.22091 0.13577 0.66087 0.04800
C 	C 	0.16042 0.10777 0.67783 -0.07600
C 	C 	0.14065 0.04021 0.69099 -0.00200
C 	C 	0.17249 0.99396 0.68164 0.03600
C 	C 	0.23354 0.02197 0.66514 -0.05600
C 	C 	0.24493 0.21108 0.64908 -0.18300
H 	H 	0.13186 0.14063 0.68253 0.04300
C 	C 	0.13694 0.91379 0.68547 -0.17800
H 	H 	0.25995 0.98761 0.65903 0.04000
H 	H 	0.37268 0.20485 0.69560 0.05700
H 	H 	0.20766 0.23593 0.65406 0.05800
H 	H 	0.25025 0.21003 0.62449 0.06500
H 	H 	0.29571 0.24553 0.65951 0.06100
H 	H 	0.10199 0.88947 0.66595 0.06300
H 	H 	0.10592 0.90015 0.70591 0.06300
H 	H 	0.17551 0.88921 0.68716 0.05800
C 	C 	0.03584 0.58695 0.02681 -0.10500
C 	C 	0.06965 0.17415 0.80313 0.05100
C 	C 	0.13894 0.21692 0.79016 -0.18600
H 	H 	0.17313 0.18765 0.79339 0.06700
H 	H 	0.16462 0.27033 0.80154 0.06200
H 	H 	0.13291 0.22607 0.76621 0.06400
C 	C 	0.36619 0.05494 0.82766 -0.10000
C 	C 	0.38571 0.07391 0.79817 0.01200
C 	C 	0.33097 0.06231 0.77549 -0.01300
H 	H 	0.31324 0.01914 0.83222 0.05300
C 	C 	0.28768 0.99217 0.76574 0.04200
C 	C 	0.22186 0.97929 0.75394 -0.07700
C 	C 	0.20002 0.03591 0.75109 -0.00400
C 	C 	0.24891 0.10774 0.75530 0.04700
C 	C 	0.31360 0.12012 0.76818 -0.07000
C 	C 	0.30950 0.93036 0.76971 -0.18100
H 	H 	0.18788 0.92543 0.74705 0.04100
C 	C 	0.23755 0.17040 0.74224 -0.18500
H 	H 	0.34960 0.17477 0.77350 0.04400
H 	H 	0.33764 0.02482 0.88401 0.07100
H 	H 	0.28122 0.88557 0.75369 0.05800
H 	H 	0.29834 0.90996 0.79276 0.06000
H 	H 	0.36573 0.94781 0.76564 0.06100
H 	H 	0.26126 0.21879 0.75701 0.05800
H 	H 	0.18219 0.15969 0.73905 0.06700
H 	H 	0.26339 0.18356 0.72045 0.06400
C 	C 	0.07464 0.83466 0.77906 -0.18100
H 	H 	0.11195 0.88292 0.79114 0.06400
H 	H 	0.08050 0.84162 0.75468 0.05900
H 	H 	0.08764 0.78828 0.78490 0.05800
H 	H 	0.02209 0.78844 0.19584 0.06400
C 	C 	0.03341 0.18255 0.71808 -0.07100
H 	H 	0.02610 0.31601 0.67729 0.06400
H 	H 	0.06048 0.26654 0.82399 0.04500
H 	H 	0.06805 0.25379 0.88877 0.06300
Ni	Ni	0.36220 0.70015 0.41577 1.09700
C 	C 	0.41013 0.84422 0.44713 0.30800
C 	C 	0.39101 0.58590 0.44633 0.29100
Ni	Ni	0.38215 0.72769 0.03188 1.10100
Ni	Ni	0.37502 0.86320 0.06920 1.06400
O 	O 	0.34032 0.86276 0.02688 -0.42500
C 	C 	0.32447 0.11519 0.60864 -0.09600
C 	C 	0.39059 0.15768 0.65500 0.02000
C 	C 	0.39397 0.16517 0.68856 -0.17000
H 	H 	0.36389 0.11253 0.69889 0.06500
C 	C 	0.41258 0.08744 0.85135 0.11000
C 	C 	0.38974 0.06947 0.88309 -0.21100
H 	H 	0.38753 0.11740 0.89458 0.09000
H 	H 	0.45143 0.08549 0.74545 0.06000
C 	C 	0.37416 0.59605 0.00023 0.28000
H 	H 	0.03230 0.24447 0.65447 0.06200
O 	O 	0.42867 0.72681 0.38093 -0.38100
O 	O 	0.41954 0.65146 0.43616 -0.37600
C 	C 	0.44494 0.78953 0.36786 0.28300
O 	O 	0.42854 0.79339 0.43720 -0.37200
O 	O 	0.43025 0.84086 0.38083 -0.40900
O 	O 	0.40386 0.66687 0.99965 -0.37500
O 	O 	0.39810 0.80814 0.00094 -0.36900
C 	C 	0.37984 0.86276 0.00479 0.30800
C 	C 	0.41489 0.83575 0.30914 -0.19000
H 	H 	0.40472 0.87747 0.32211 0.04000
H 	H 	0.37450 0.78183 0.31401 0.04300
H 	H 	0.41051 0.84526 0.28498 0.05500
C 	C 	0.45640 0.89990 0.46629 -0.10300
C 	C 	0.43453 0.55210 0.45749 -0.10700
C 	C 	0.45190 0.18794 0.63859 -0.01400
C 	C 	0.38558 0.14381 0.59225 0.09700
C 	C 	0.38222 0.12782 0.55918 -0.19600
H 	H 	0.40682 0.17800 0.54646 0.04100
H 	H 	0.32786 0.10127 0.55076 0.06300
H 	H 	0.44813 0.18406 0.69719 0.05600
C 	C 	0.41922 0.93030 0.99089 -0.10200
C 	C 	0.40115 0.55368 0.98264 -0.10100
C 	C 	0.42436 0.51840 0.96797 0.02000
C 	C 	0.45535 0.11746 0.79203 0.01800
C 	C 	0.47907 0.13948 0.84520 -0.11600
C 	C 	0.47928 0.13279 0.76037 -0.16900
H 	H 	0.42663 0.05230 0.89533 0.08700
H 	H 	0.46983 0.17978 0.75233 0.05700
C 	C 	0.03744 0.09879 0.79864 -0.01200
C 	C 	0.44986 0.18237 0.60730 -0.10500
O 	O 	0.47338 0.88391 0.05509 -0.41600
O 	O 	0.48366 0.77776 0.04311 -0.38100
C 	C 	0.50433 0.83874 0.05859 0.28900
C 	C 	0.49242 0.95052 0.48152 0.02600
C 	C 	0.47126 0.52468 0.46760 0.03000
H 	H 	0.50093 0.21712 0.65016 0.03100
H 	H 	0.40793 0.09052 0.55462 0.08300
C 	C 	0.45298 0.98900 0.98101 0.02100
C 	C 	0.45411 0.47902 0.95108 0.02800
C 	C 	0.50126 0.15158 0.81571 -0.01700
H 	H 	0.53551 0.14516 0.75898 0.05500
C 	C 	0.03976 0.20823 0.82243 -0.07100
O 	O 	0.51521 0.24260 0.87788 -0.38100
O 	O 	0.50803 0.34923 0.92070 -0.37400
C 	C 	0.52382 0.18401 0.86916 0.28400
C 	C 	0.52550 0.41932 0.92131 0.29200
O 	O 	0.53899 0.22868 0.93960 -0.37200
O 	O 	0.55624 0.15471 0.88674 -0.41600
O 	O 	0.52604 0.16096 0.53300 -0.41800
O 	O 	0.52752 0.36324 0.52430 -0.41700
Ni	Ni	0.53741 0.26554 0.52839 1.06400
O 	O 	0.51368 0.27159 0.57173 -0.42100
C 	C 	0.51353 0.22251 0.59035 0.30000
C 	C 	0.56027 0.82551 0.10527 -0.01700
C 	C 	0.56571 0.85955 0.07787 -0.12600
H 	H 	0.51275 0.78030 0.11053 0.01500
C 	C 	0.49762 0.81037 0.34439 -0.10000
C 	C 	0.48585 0.83904 0.31728 0.08100
C 	C 	0.55412 0.06918 0.51235 -0.10400
C 	C 	0.52913 0.01337 0.49846 0.03400
C 	C 	0.54280 0.46067 0.49329 -0.09800
C 	C 	0.51215 0.49165 0.48069 0.02600
C 	C 	0.52779 0.11828 0.96153 -0.10800
C 	C 	0.49312 0.05885 0.97050 0.03400
C 	C 	0.48362 0.44887 0.93709 -0.12100
H 	H 	0.55351 0.18938 0.81116 0.01700
Ni	Ni	0.58112 0.30991 0.90894 1.10100
C 	C 	0.56959 0.18781 0.94978 0.31100
O 	O 	0.56718 0.20439 0.59214 -0.36600
C 	C 	0.57128 0.41894 0.51015 0.28600
C 	C 	0.57453 0.13620 0.52819 0.29300
H 	H 	0.55937 0.76635 0.15731 0.05300
C 	C 	0.56317 0.81051 0.35067 -0.01500
C 	C 	0.54149 0.87370 0.29828 -0.08900
H 	H 	0.57196 0.78772 0.37131 0.04800
H 	H 	0.53338 0.89901 0.27823 0.04500
O 	O 	0.58955 0.46219 0.91583 -0.42300
C 	C 	0.61396 0.85221 0.12659 0.01300
C 	C 	0.62789 0.91703 0.07042 0.10800
C 	C 	0.60485 0.81874 0.15701 -0.16700
H 	H 	0.59713 0.85547 0.17383 0.05600
H 	H 	0.60605 0.98608 0.03943 0.07900
H 	H 	0.61703 0.90991 0.02229 0.08400
H 	H 	0.59343 0.80959 0.24776 0.06100
C 	C 	0.63599 0.95171 0.04032 -0.21000
C 	C 	0.60798 0.87774 0.30548 0.00400
C 	C 	0.61848 0.84370 0.33132 0.02500
O 	O 	0.63142 0.15887 0.54500 -0.37900
H 	H 	0.02596 0.24973 0.92371 0.05900
O 	O 	0.63705 0.44819 0.51864 -0.37200
Ni	Ni	0.65865 0.20295 0.89914 1.06600
O 	O 	0.63352 0.20140 0.94283 -0.42200
O 	O 	0.63660 0.30831 0.53603 -0.70400
H 	H 	0.64201 0.34521 0.60352 0.15800
C 	C 	0.01942 0.22518 0.90096 -0.17000
H 	H 	0.65115 0.80855 0.16353 0.05800
O 	O 	0.66679 0.30111 0.89407 -0.70200
O 	O 	0.65387 0.37215 0.93966 -0.70200
H 	H 	0.67323 0.31405 0.87276 0.15200
H 	H 	0.64841 0.34687 0.95883 0.15800
Ni	Ni	0.65842 0.25281 0.56849 1.10000
H 	H 	0.66191 0.30712 0.51771 0.15400
C 	C 	0.64831 0.81836 0.25202 -0.18000
H 	H 	0.65070 0.78031 0.26919 0.06100
Ni	Ni	0.67099 0.40919 0.55497 1.09900
H 	H 	0.67046 0.01584 0.15725 0.04000
C 	C 	0.67395 0.91349 0.12009 0.01500
Ni	Ni	0.66559 0.47171 0.94728 1.07200
O 	O 	0.67888 0.34987 0.58921 -0.70100
C 	C 	0.68154 0.94407 0.09179 -0.10500
H 	H 	0.69114 0.98580 0.03592 0.06700
C 	C 	0.66756 0.92357 0.28745 -0.01300
H 	H 	0.66832 0.55824 0.65009 0.03200
H 	H 	0.66876 0.80603 0.23090 0.05700
H 	H 	0.68605 0.01836 0.31443 0.04900
C 	C 	0.68938 0.84654 0.33929 -0.17100
H 	H 	0.68735 0.81025 0.35798 0.06200
H 	H 	0.66910 0.61752 0.69573 0.05600
O 	O 	0.71164 0.51091 0.57436 -0.38100
C 	C 	0.68921 0.89481 0.26266 0.04300
O 	O 	0.70896 0.21784 0.60014 -0.37400
H 	H 	0.70376 0.06188 0.21967 0.06400
C 	C 	0.71493 0.00277 0.16153 -0.06200
C 	C 	0.70376 0.99603 0.29577 -0.08000
C 	C 	0.71366 0.60318 0.64260 -0.01100
H 	H 	0.73697 0.51808 0.83446 0.03200
C 	C 	0.72835 0.52511 0.60313 0.30200
O 	O 	0.73252 0.47598 0.62134 -0.42200
C 	C 	0.72504 0.95068 0.14373 -0.02500
H 	H 	0.72831 0.99048 0.08683 0.05100
H 	H 	0.71167 0.82936 0.31987 0.06000
H 	H 	0.70933 0.71399 0.69560 0.06000
H 	H 	0.75386 0.55909 0.78485 0.05500
Ni	Ni	0.74065 0.37625 0.92073 1.09800
O 	O 	0.74688 0.44896 0.88806 -0.39800
H 	H 	0.72940 0.12600 0.19004 0.05700
H 	H 	0.72418 0.90235 0.34611 0.06300
C 	C 	0.74328 0.59742 0.61538 -0.11600
C 	C 	0.71886 0.66428 0.69239 -0.16800
H 	H 	0.74163 0.21688 0.84296 0.02100
O 	O 	0.74232 0.53572 0.92008 -0.40200
O 	O 	0.73891 0.48193 0.97893 -0.41600
C 	C 	0.74622 0.09114 0.20426 -0.17900
C 	C 	0.74681 0.66276 0.66167 0.01700
H 	H 	0.77125 0.65326 0.78291 0.05800
O 	O 	0.76176 0.23508 0.91266 -0.41600
C 	C 	0.75813 0.51654 0.89403 0.31300
H 	H 	0.76025 0.74569 0.81496 0.06200
O 	O 	0.76389 0.42790 0.53462 -0.38800
H 	H 	0.78472 0.64115 0.55688 0.09300
Ni	Ni	0.76859 0.40149 0.60877 1.07500
C 	C 	0.76107 0.03746 0.18500 0.04100
H 	H 	0.75198 0.82558 0.13043 0.06300
C 	C 	0.75064 0.93719 0.24831 -0.07500
H 	H 	0.75943 0.13831 0.29827 0.06000
C 	C 	0.77829 0.56717 0.84273 -0.01200
C 	C 	0.79288 0.61415 0.79021 -0.16800
H 	H 	0.75661 0.66280 0.70965 0.05900
C 	C 	0.77372 0.25849 0.60739 0.28600
C 	C 	0.76269 0.03993 0.28028 0.04700
H 	H 	0.74967 0.32574 0.65691 0.01600
H 	H 	0.77022 0.91291 0.23105 0.04500
C 	C 	0.79920 0.65785 0.60458 0.10600
H 	H 	0.78827 0.84179 0.81450 0.05700
C 	C 	0.79224 0.25560 0.83488 -0.19000
C 	C 	0.81092 0.62426 0.82312 0.01800
C 	C 	0.79842 0.57356 0.87301 -0.11200
C 	C 	0.78212 0.93270 0.14919 0.05100
H 	H 	0.79155 0.12722 0.21755 0.06000
H 	H 	0.79183 0.83747 0.66933 0.04300
H 	H 	0.79509 0.31129 0.83777 0.06200
H 	H 	0.79501 0.24547 0.81060 0.05800
O 	O 	0.80323 0.32304 0.59624 -0.41800
C 	C 	0.78869 0.00945 0.25724 -0.01100
C 	C 	0.79735 0.11869 0.28876 -0.18400
C 	C 	0.80296 0.79737 0.82171 -0.18100
C 	C 	0.81208 0.28664 0.89915 0.28300
H 	H 	0.81000 0.14584 0.60858 0.03900
C 	C 	0.80863 0.71852 0.65257 0.01200
C 	C 	0.82723 0.65655 0.57388 -0.21400
H 	H 	0.83999 0.62252 0.77727 0.06000
C 	C 	0.79857 0.47743 0.97301 0.30200
H 	H 	0.79583 0.92940 0.70238 0.05900
C 	C 	0.79555 0.87919 0.12927 -0.18400
O 	O 	0.81804 0.35386 0.90135 -0.37300
H 	H 	0.80851 0.80033 0.84642 0.06300
C 	C 	0.82431 0.45593 0.54873 0.31000
H 	H 	0.80100 0.89756 0.10583 0.06400
O 	O 	0.81147 0.45718 0.94637 -0.38800
O 	O 	0.82780 0.47113 0.57735 -0.40400
C 	C 	0.80813 0.23826 0.63224 -0.10800
H 	H 	0.81931 0.15162 0.26904 0.06200
C 	C 	0.83163 0.71814 0.62343 -0.10100
C 	C 	0.81741 0.01777 0.19117 -0.00400
C 	C 	0.82614 0.17914 0.62868 -0.01300
H 	H 	0.82821 0.04207 0.76107 0.05800
H 	H 	0.85226 0.61760 0.57304 0.08900
C 	C 	0.80452 0.34157 0.66414 -0.18600
C 	C 	0.83606 0.83314 0.68045 -0.07000
H 	H 	0.86639 0.71028 0.56789 0.07200
H 	H 	0.85045 0.04605 0.84802 0.05900
H 	H 	0.83963 0.93373 0.73720 0.06100
C 	C 	0.82695 0.96520 0.17328 -0.08200
H 	H 	0.83882 0.12743 0.30577 0.06400
H 	H 	0.83657 0.13339 0.72569 0.04400
C 	C 	0.86155 0.68999 0.83443 0.01200
C 	C 	0.82729 0.28062 0.65881 0.08400
C 	C 	0.85239 0.77415 0.67410 -0.01600
C 	C 	0.85036 0.24711 0.85222 0.08200
C 	C 	0.85418 0.63684 0.88345 0.10600
C 	C 	0.84694 0.93867 0.71280 -0.18400
H 	H 	0.85491 0.05808 0.66433 0.06200
C 	C 	0.02130 0.33560 0.29629 -0.06800
H 	H 	0.80824 0.35669 0.68822 0.05700
H 	H 	0.87720 0.76298 0.61606 0.05200
C 	C 	0.86991 0.80279 0.80807 0.04500
C 	C 	0.00736 0.54526 0.50522 0.02800
C 	C 	0.86308 0.26888 0.88253 -0.10800
H 	H 	0.85194 0.65542 0.93084 0.08200
H 	H 	0.86547 0.07149 0.62482 0.06100
H 	H 	0.83808 0.38950 0.65166 0.00600
H 	H 	0.84390 0.87302 0.13595 0.05900
C 	C 	0.85867 0.05095 0.24432 -0.00400
C 	C 	0.85550 0.50948 0.99332 -0.10100
C 	C 	0.86601 0.16363 0.65068 0.02300
C 	C 	0.87408 0.88458 0.70212 0.04500
H 	H 	0.87969 0.65217 0.68626 0.06300
H 	H 	0.88187 0.20472 0.19294 0.06200
H 	H 	0.85121 0.93525 0.29240 0.06600
C 	C 	0.88264 0.69566 0.86447 -0.10000
H 	H 	0.85171 0.84719 0.28798 0.06000
H 	H 	0.89451 0.98962 0.85896 0.05600
H 	H 	0.87943 0.19607 0.81544 0.04600
C 	C 	0.89763 0.75122 0.81440 -0.01600
H 	H 	0.88463 0.89985 0.78432 0.03900
C 	C 	0.88726 0.48551 0.53181 -0.09800
C 	C 	0.87094 0.05611 0.21413 -0.00600
C 	C 	0.88448 0.06716 0.76666 -0.18600
C 	C 	0.88224 0.09780 0.64712 -0.17100
H 	H 	0.89154 0.10124 0.78692 0.06700
C 	C 	0.89912 0.04616 0.85793 -0.17500
H 	H 	0.89709 0.24903 0.15816 0.06000
H 	H 	0.86581 0.90275 0.25607 0.06500
H 	H 	0.88312 0.99343 0.70690 0.06500
C 	C 	0.88436 0.64180 0.91456 -0.20900
C 	C 	0.89001 0.21413 0.83853 -0.09100
H 	H 	0.90557 0.06780 0.88116 0.06200
H 	H 	0.88759 0.59023 0.92065 0.09300
C 	C 	0.86896 0.26651 0.68032 -0.09000
H 	H 	0.87005 0.95034 0.17796 0.04700
H 	H 	0.90095 0.02282 0.77134 0.06800
C 	C 	0.90682 0.86159 0.78998 -0.07000
H 	H 	0.89847 0.24206 0.24338 0.06000
H 	H 	0.90538 0.31849 0.26536 0.05800
C 	C 	0.87593 0.90374 0.28042 -0.18300
C 	C 	0.89139 0.14623 0.72332 -0.07200
H 	H 	0.90278 0.16306 0.16059 0.06600
C 	C 	0.90892 0.76719 0.68893 0.04600
C 	C 	0.88849 0.20855 0.67644 0.00700
C 	C 	0.91352 0.21451 0.17277 -0.18300
C 	C 	0.91845 0.26222 0.89807 -0.01300
H 	H 	0.88540 0.30004 0.70036 0.04800
C 	C 	0.92611 0.70270 0.68306 -0.18100
H 	H 	0.92294 0.74536 0.87288 0.05200
C 	C 	0.90866 0.53592 0.00744 0.02700
H 	H 	0.01212 0.32678 0.36994 0.05200
H 	H 	0.92854 0.27974 0.92127 0.03600
C 	C 	0.92425 0.11329 0.74162 0.04700
H 	H 	0.91568 0.07788 0.28855 0.03900
C 	C 	0.93424 0.88117 0.71526 -0.01000
H 	H 	0.01100 0.38398 0.29724 0.04400
C 	C 	0.93596 0.29276 0.25359 -0.18100
C 	C 	0.92454 0.08139 0.26415 -0.04400
C 	C 	0.92766 0.19157 0.70057 -0.01500
C 	C 	0.01065 0.93504 0.76039 -0.00800
H 	H 	0.93778 0.68420 0.91622 0.06900
H 	H 	0.01114 0.16782 0.90326 0.06100
H 	H 	0.93883 0.11267 0.64954 0.06200
H 	H 	0.01228 0.31934 0.14277 0.04600
C 	C 	0.00201 0.82240 0.78750 0.04400
C 	C 	0.94198 0.51228 0.51912 0.03000
C 	C 	0.94295 0.20384 0.85452 0.00600
H 	H 	0.93607 0.90175 0.21374 0.04300
H 	H 	0.94419 0.70383 0.65984 0.06300
H 	H 	0.93791 0.79019 0.19922 0.05900
H 	H 	0.94782 0.85289 0.31722 0.04500
H 	H 	0.00237 0.02379 0.69664 0.03900
C 	C 	0.94803 0.08937 0.20584 -0.04200
C 	C 	0.95259 0.93643 0.28685 0.04500
C 	C 	0.95041 0.82169 0.70883 -0.07000
C 	C 	0.95956 0.09146 0.83935 0.04100
C 	C 	0.95919 0.23059 0.88415 0.02100
H 	H 	0.95821 0.09206 0.18152 0.03800
C 	C 	0.96372 0.15852 0.25257 -0.00500
H 	H 	0.96514 0.32893 0.23562 0.06500
C 	C 	0.96322 0.76136 0.80399 -0.06900
C 	C 	0.96737 0.04014 0.25305 -0.00000
H 	H 	0.96810 0.99955 0.81773 0.04200
H 	H 	0.96757 0.70200 0.69850 0.05800
C 	C 	0.97306 0.87239 0.77987 -0.01000
C 	C 	0.97571 0.56485 0.01986 0.03300
C 	C 	0.97609 0.16229 0.22242 -0.00400
H 	H 	0.97523 0.79688 0.16292 0.06300
C 	C 	0.98112 0.90213 0.30659 -0.07200
C 	C 	0.97989 0.04473 0.22317 -0.00400
C 	C 	0.98280 0.16740 0.83952 -0.01400
C 	C 	0.98450 0.94317 0.73302 -0.00400
C 	C 	0.98616 0.28130 0.27514 0.04400
H 	H 	0.98496 0.72253 0.80946 0.04400
H 	H 	0.98886 0.37544 0.41455 0.06800
C 	C 	0.98828 0.05769 0.81916 -0.06800
C 	C 	0.98709 0.81273 0.18682 -0.18300
C 	C 	0.98713 0.93107 0.20493 -0.07600
C 	C 	0.98930 0.25085 0.18107 0.04300
H 	H 	0.00108 0.94277 0.37178 0.06300
C 	C 	0.99473 0.12659 0.73693 -0.01200
C 	C 	0.99607 0.00162 0.27365 -0.01100
H 	H 	0.99553 0.81805 0.71908 0.04200
C 	C 	0.00021 0.21477 0.69950 0.04500
C 	C 	0.00097 0.21888 0.27370 -0.00900
