data_crystal

_cell_length_a 25.30579
_cell_length_b 21.53415
_cell_length_c 52.06097
_cell_angle_alpha 90.58001
_cell_angle_beta  91.22036
_cell_angle_gamma 110.67349

_symmetry_space_group_name_	'P 1'
_symmetry_space_group_name_H-M	'P 1'

loop_
_symmetry_equiv_pos_as_xyz
  x,y,z

loop_
_atom_site_label
_atom_site_type_symbol
_atom_site_fract_x
_atom_site_fract_y
_atom_site_fract_z
_atom_site_charge
Ni	Ni	0.70470 0.30360 0.88553 1.10200
O 	O 	0.64206 0.24249 0.86191 -0.70700
Ni	Ni	0.57400 0.24890 0.87847 1.10500
O 	O 	0.76446 0.28624 0.86365 -0.35600
O 	O 	0.72318 0.17377 0.86872 -0.39200
O 	O 	0.70262 0.37686 0.86121 -0.39600
Ni	Ni	0.63627 0.15041 0.86211 1.07600
O 	O 	0.71022 0.38696 0.93983 -0.37600
O 	O 	0.62715 0.14213 0.90098 -0.38400
O 	O 	0.51716 0.19485 0.85136 -0.36700
O 	O 	0.63606 0.29768 0.90499 -0.70000
O 	O 	0.76715 0.37145 0.90786 -0.37100
O 	O 	0.51401 0.28096 0.89409 -0.33200
O 	O 	0.57593 0.38755 0.89454 -0.41000
Ni	Ni	0.64514 0.38744 0.91655 1.08800
H 	H 	0.64449 0.25868 0.84408 0.16400
H 	H 	0.63439 0.27018 0.92027 0.16800
C 	C 	0.57949 0.13751 0.91169 0.33800
O 	O 	0.70207 0.45121 0.89273 -0.36200
C 	C 	0.76291 0.22534 0.85888 0.29200
C 	C 	0.51728 0.13609 0.84365 0.30000
C 	C 	0.71129 0.43797 0.86889 0.32500
C 	C 	0.52556 0.34440 0.89927 0.32100
C 	C 	0.76056 0.39231 0.93126 0.34100
O 	O 	0.54673 0.16719 0.90165 -0.35300
O 	O 	0.55019 0.10815 0.85555 -0.38500
Ni	Ni	0.63702 0.35160 0.56933 1.10500
O 	O 	0.69848 0.35981 0.54322 -0.70100
Ni	Ni	0.75519 0.33647 0.56465 1.10500
O 	O 	0.59974 0.40690 0.54883 -0.36400
O 	O 	0.68490 0.48960 0.54464 -0.37800
O 	O 	0.58285 0.26867 0.55006 -0.37100
Ni	Ni	0.73584 0.44520 0.52721 1.08200
O 	O 	0.56940 0.22519 0.59862 -0.39200
O 	O 	0.80350 0.49926 0.55064 -0.38400
O 	O 	0.82391 0.36132 0.54100 -0.36500
O 	O 	0.68920 0.31759 0.58909 -0.70100
O 	O 	0.57756 0.33506 0.59664 -0.37000
O 	O 	0.79658 0.29622 0.59008 -0.35600
O 	O 	0.72142 0.19831 0.59013 -0.39500
Ni	Ni	0.64939 0.22323 0.59404 1.07200
H 	H 	0.68413 0.32590 0.52934 0.18000
H 	H 	0.70057 0.34151 0.60580 0.16500
C 	C 	0.81994 0.48052 0.57247 0.32900
O 	O 	0.63472 0.20201 0.55583 -0.38700
C 	C 	0.62995 0.46592 0.54043 0.32900
C 	C 	0.82959 0.39614 0.51966 0.34100
C 	C 	0.59641 0.21765 0.54286 0.34200
C 	C 	0.77232 0.23562 0.59865 0.30000
C 	C 	0.55639 0.27613 0.60732 0.30300
O 	O 	0.78888 0.42587 0.58362 -0.39300
O 	O 	0.78597 0.40579 0.50832 -0.37400
Ni	Ni	0.02544 0.95268 0.75067 1.09800
O 	O 	0.04186 0.89348 0.72377 -0.71200
Ni	Ni	0.08476 0.96029 0.69834 1.10300
O 	O 	0.98214 0.87181 0.77216 -0.34400
O 	O 	0.92183 0.82473 0.73838 -0.40900
O 	O 	0.09873 0.96110 0.77132 -0.36400
Ni	Ni	0.97200 0.83662 0.70629 1.06900
O 	O 	0.09731 0.08579 0.77659 -0.40700
O 	O 	0.94537 0.91272 0.69611 -0.41200
O 	O 	0.10116 0.89343 0.67462 -0.35800
O 	O 	0.06041 0.02010 0.72330 -0.69500
O 	O 	0.00675 0.01288 0.77635 -0.37300
O 	O 	0.14315 0.03461 0.67835 -0.34800
O 	O 	0.15978 0.12505 0.70461 -0.39300
Ni	Ni	0.12331 0.09225 0.73954 1.07100
H 	H 	0.06434 0.86765 0.73066 0.16400
H 	H 	0.03215 0.03759 0.71609 0.15600
C 	C 	0.97225 0.95721 0.67935 0.32000
O 	O 	0.16469 0.02777 0.74426 -0.42300
C 	C 	0.94028 0.82130 0.76198 0.29500
C 	C 	0.05894 0.83800 0.66843 0.29800
C 	C 	0.15000 0.98131 0.76167 0.30400
C 	C 	0.17876 0.08920 0.68931 0.31300
C 	C 	0.04394 0.07142 0.78234 0.31200
O 	O 	0.02307 0.96217 0.67237 -0.35700
O 	O 	0.00618 0.83439 0.67133 -0.40600
Ni	Ni	0.25813 0.70582 0.38962 1.10500
O 	O 	0.32214 0.75265 0.36564 -0.70600
Ni	Ni	0.38899 0.75068 0.38598 1.10700
O 	O 	0.20120 0.71587 0.36309 -0.34600
O 	O 	0.24488 0.82914 0.36318 -0.39700
O 	O 	0.25610 0.62122 0.37106 -0.39200
Ni	Ni	0.33113 0.84464 0.35993 1.06800
O 	O 	0.24744 0.63879 0.44678 -0.39400
O 	O 	0.33989 0.87036 0.39814 -0.40700
O 	O 	0.44708 0.79106 0.35880 -0.35800
O 	O 	0.32583 0.71518 0.41191 -0.69800
O 	O 	0.19266 0.65182 0.41238 -0.35100
O 	O 	0.44717 0.72426 0.40710 -0.33400
O 	O 	0.38305 0.61989 0.41036 -0.40200
Ni	Ni	0.31376 0.62968 0.42798 1.08500
H 	H 	0.31872 0.72846 0.34905 0.16400
H 	H 	0.32890 0.74847 0.42563 0.18700
C 	C 	0.38527 0.87439 0.41175 0.34400
O 	O 	0.25910 0.55584 0.40495 -0.38800
C 	C 	0.20282 0.77472 0.35559 0.29500
C 	C 	0.44845 0.84599 0.34715 0.29600
C 	C 	0.23966 0.56338 0.38202 0.33400
C 	C 	0.43366 0.66342 0.41552 0.34300
C 	C 	0.19760 0.62888 0.43556 0.34200
O 	O 	0.41778 0.84170 0.40458 -0.34300
O 	O 	0.41734 0.88049 0.35541 -0.39200
Ni	Ni	0.33720 0.65497 0.05784 1.10500
O 	O 	0.26995 0.65378 0.03509 -0.70200
Ni	Ni	0.21997 0.67233 0.06103 1.10400
O 	O 	0.36635 0.60235 0.03216 -0.33600
O 	O 	0.27887 0.52220 0.02823 -0.40800
O 	O 	0.38806 0.74084 0.04085 -0.34100
Ni	Ni	0.22702 0.57285 0.01590 1.07900
O 	O 	0.41385 0.77340 0.09095 -0.38200
O 	O 	0.16269 0.51670 0.03881 -0.38700
O 	O 	0.14552 0.65325 0.04011 -0.34200
O 	O 	0.29187 0.68557 0.08249 -0.70400
O 	O 	0.40308 0.66438 0.08241 -0.35500
O 	O 	0.18669 0.70742 0.09104 -0.35300
O 	O 	0.26255 0.80483 0.09271 -0.39300
Ni	Ni	0.33418 0.77826 0.09094 1.07200
H 	H 	0.28138 0.69083 0.02290 0.16500
H 	H 	0.28461 0.65834 0.09813 0.17000
C 	C 	0.15660 0.52644 0.06342 0.33600
O 	O 	0.33991 0.80702 0.05369 -0.40900
C 	C 	0.33289 0.54438 0.02293 0.32700
C 	C 	0.13503 0.62665 0.01660 0.33800
C 	C 	0.37543 0.79476 0.03827 0.34000
C 	C 	0.21366 0.76634 0.10163 0.30000
C 	C 	0.42710 0.72015 0.09586 0.30600
O 	O 	0.19061 0.57907 0.07601 -0.38000
O 	O 	0.17561 0.61964 0.00260 -0.40900
Ni	Ni	0.93879 0.04459 0.25246 1.09700
O 	O 	0.93368 0.10255 0.22259 -0.71000
Ni	Ni	0.90009 0.03460 0.19482 1.09800
O 	O 	0.97470 0.12677 0.27583 -0.36000
O 	O 	0.04618 0.17034 0.24799 -0.39600
O 	O 	0.86044 0.03895 0.26582 -0.36300
Ni	Ni	0.00903 0.15721 0.21132 1.06800
O 	O 	0.86202 0.90817 0.27306 -0.40000
O 	O 	0.03768 0.08004 0.20605 -0.40900
O 	O 	0.89379 0.10042 0.16793 -0.36400
O 	O 	0.91427 0.97579 0.22354 -0.68900
O 	O 	0.94835 0.98693 0.28148 -0.36600
O 	O 	0.84828 0.95974 0.17103 -0.35400
O 	O 	0.82408 0.87000 0.19682 -0.39200
Ni	Ni	0.84790 0.90211 0.23430 1.07600
H 	H 	0.90971 0.12924 0.22610 0.16400
H 	H 	0.94521 0.95917 0.22015 0.17200
C 	C 	0.01649 0.03489 0.18783 0.29700
O 	O 	0.80547 0.96609 0.23494 -0.42400
C 	C 	0.01931 0.17645 0.26867 0.29500
C 	C 	0.93850 0.15435 0.16418 0.29800
C 	C 	0.81028 0.00548 0.25498 0.30400
C 	C 	0.80975 0.90591 0.17973 0.31100
C 	C 	0.91317 0.92586 0.28340 0.31600
O 	O 	0.96893 0.02971 0.17590 -0.36300
O 	O 	0.98883 0.15811 0.17318 -0.40200
C 	C 	0.08214 0.40139 0.11352 -0.11100
C 	C 	0.02889 0.37035 0.10155 0.00100
C 	C 	0.01675 0.39297 0.07769 0.12800
C 	C 	0.05830 0.44495 0.06562 -0.01800
C 	C 	0.11208 0.47510 0.07730 -0.11000
C 	C 	0.12381 0.45324 0.10145 0.19600
C 	C 	0.98753 0.31137 0.11335 0.01200
O 	O 	0.96395 0.36539 0.06640 -0.25300
H 	H 	0.04891 0.46127 0.04702 0.08700
O 	O 	0.17605 0.48190 0.11317 -0.28500
H 	H 	0.09172 0.38417 0.13193 0.07100
C 	C 	0.98135 0.24722 0.10439 0.12600
C 	C 	0.95432 0.19206 0.11949 -0.02800
C 	C 	0.93638 0.20090 0.14413 -0.11100
C 	C 	0.93595 0.26377 0.15151 0.18200
C 	C 	0.96132 0.31878 0.13606 -0.10700
O 	O 	0.00392 0.23863 0.08148 -0.27200
H 	H 	0.95301 0.14336 0.11324 0.07200
O 	O 	0.91380 0.27226 0.17455 -0.28700
H 	H 	0.96403 0.36776 0.14262 0.08300
H 	H 	0.19864 0.45549 0.10709 0.15200
H 	H 	0.04296 0.24106 0.08584 0.15200
H 	H 	0.94586 0.28406 0.18720 0.12700
H 	H 	0.96621 0.32967 0.05478 0.17000
C 	C 	0.68392 0.77704 0.14618 -0.10900
C 	C 	0.64906 0.81405 0.14153 0.00900
C 	C 	0.66912 0.88253 0.14740 0.12500
C 	C 	0.72260 0.91273 0.15908 -0.03300
C 	C 	0.75669 0.87523 0.16467 -0.11600
C 	C 	0.73770 0.80732 0.15755 0.19600
C 	C 	0.59135 0.78095 0.13071 0.00700
O 	O 	0.63583 0.91956 0.14243 -0.27000
H 	H 	0.73702 0.96501 0.16435 0.06000
O 	O 	0.77243 0.77123 0.16074 -0.27400
H 	H 	0.66915 0.72461 0.14117 0.07900
C 	C 	0.58295 0.75849 0.10496 0.12800
C 	C 	0.52821 0.73328 0.09417 -0.02000
C 	C 	0.48169 0.73089 0.10885 -0.10100
C 	C 	0.48991 0.75041 0.13492 0.18900
C 	C 	0.54457 0.77444 0.14586 -0.10200
O 	O 	0.62834 0.76502 0.08988 -0.25300
H 	H 	0.52219 0.71881 0.07400 0.10100
O 	O 	0.44457 0.74599 0.14974 -0.29800
H 	H 	0.55073 0.79010 0.16589 0.08100
H 	H 	0.76180 0.74840 0.17732 0.15300
H 	H 	0.63485 0.72238 0.09135 0.15900
H 	H 	0.44002 0.78976 0.14842 0.14200
H 	H 	0.64499 0.93599 0.12475 0.16600
C 	C 	0.04661 0.88345 0.16555 -0.11100
C 	C 	0.10377 0.91157 0.15957 0.00100
C 	C 	0.13349 0.97939 0.16488 0.14100
C 	C 	0.10527 0.01897 0.17521 -0.04900
C 	C 	0.04726 0.99153 0.17989 -0.10700
C 	C 	0.01800 0.92321 0.17517 0.18500
C 	C 	0.13048 0.87165 0.14519 0.01300
O 	O 	0.18914 0.00786 0.15855 -0.27200
H 	H 	0.12802 0.07150 0.17865 0.06500
O 	O 	0.96161 0.89508 0.18027 -0.30800
H 	H 	0.02376 0.83107 0.16179 0.07600
C 	C 	0.17174 0.85093 0.15710 0.12100
C 	C 	0.19789 0.81478 0.14292 -0.03400
C 	C 	0.18170 0.79722 0.11716 -0.11500
C 	C 	0.13866 0.81541 0.10563 0.20400
C 	C 	0.11367 0.85307 0.11957 -0.11200
O 	O 	0.18752 0.86738 0.18235 -0.27500
H 	H 	0.23106 0.80090 0.15188 0.04400
O 	O 	0.12312 0.79943 0.08031 -0.27900
H 	H 	0.08150 0.86834 0.11039 0.08600
H 	H 	0.94144 0.89623 0.16383 0.17600
H 	H 	0.16187 0.83037 0.19234 0.14800
H 	H 	0.09160 0.75604 0.08054 0.17700
H 	H 	0.21104 0.00544 0.17429 0.15900
C 	C 	0.58055 0.97491 0.32156 -0.09900
C 	C 	0.59673 0.93708 0.30338 0.00300
C 	C 	0.56177 0.87085 0.29816 0.13000
C 	C 	0.51215 0.84223 0.31183 -0.03800
C 	C 	0.49686 0.87928 0.33070 -0.10700
C 	C 	0.53093 0.94645 0.33524 0.18900
C 	C 	0.65288 0.96470 0.29177 0.01100
O 	O 	0.57768 0.83291 0.28077 -0.26600
H 	H 	0.48620 0.79071 0.30815 0.06100
O 	O 	0.51797 0.98293 0.35423 -0.25700
H 	H 	0.60738 0.02588 0.32569 0.07400
C 	C 	0.65784 0.98262 0.26578 0.12600
C 	C 	0.71049 0.00061 0.25417 -0.04000
C 	C 	0.75860 0.00190 0.26846 -0.12500
C 	C 	0.75416 0.98871 0.29498 0.20200
C 	C 	0.70140 0.96992 0.30644 -0.11000
O 	O 	0.61091 0.97963 0.25141 -0.27000
H 	H 	0.71356 0.01137 0.23384 0.05700
O 	O 	0.80047 0.98904 0.30926 -0.26600
H 	H 	0.69791 0.95717 0.32658 0.09100
H 	H 	0.49548 0.00643 0.34549 0.14700
H 	H 	0.60815 0.02426 0.25330 0.14300
H 	H 	0.81718 0.03465 0.31665 0.16000
H 	H 	0.56001 0.83821 0.26414 0.15600
C 	C 	0.10329 0.34935 0.29373 -0.11400
C 	C 	0.10427 0.33895 0.32022 0.00600
C 	C 	0.07471 0.27579 0.32998 0.12800
C 	C 	0.04563 0.22312 0.31312 -0.03100
C 	C 	0.04606 0.23305 0.28649 -0.11800
C 	C 	0.07382 0.29699 0.27689 0.19200
C 	C 	0.13726 0.39407 0.33761 0.01000
O 	O 	0.07311 0.26587 0.35598 -0.26100
H 	H 	0.02378 0.17433 0.32074 0.07500
O 	O 	0.07287 0.30814 0.25100 -0.31000
H 	H 	0.12561 0.39810 0.28617 0.07600
C 	C 	0.19030 0.39723 0.34757 0.12100
C 	C 	0.22303 0.45198 0.36267 -0.02500
C 	C 	0.20386 0.50460 0.36730 -0.12200
C 	C 	0.15053 0.50108 0.35762 0.19800
C 	C 	0.11751 0.44598 0.34277 -0.10900
O 	O 	0.21007 0.34674 0.34263 -0.26700
H 	H 	0.26389 0.45422 0.37026 0.07000
O 	O 	0.13111 0.55204 0.36223 -0.27500
H 	H 	0.07681 0.44391 0.33503 0.08300
H 	H 	0.03905 0.32043 0.24786 0.13400
H 	H 	0.23138 0.35910 0.32656 0.15200
H 	H 	0.11030 0.54074 0.37847 0.17000
H 	H 	0.10518 0.25098 0.36004 0.16700
C 	C 	0.99060 0.86727 0.33361 -0.09600
C 	C 	0.00338 0.81918 0.31928 -0.00900
C 	C 	0.97391 0.79486 0.29596 0.13400
C 	C 	0.93670 0.82397 0.28580 -0.03800
C 	C 	0.93026 0.87859 0.29844 -0.12500
C 	C 	0.95385 0.89676 0.32333 0.19900
C 	C 	0.05318 0.80241 0.32670 0.01200
O 	O 	0.98260 0.74398 0.28275 -0.26500
H 	H 	0.91690 0.80801 0.26703 0.03400
O 	O 	0.94485 0.94722 0.33667 -0.27100
H 	H 	0.01186 0.88472 0.35199 0.07600
C 	C 	0.10578 0.83634 0.31579 0.11800
C 	C 	0.15420 0.82532 0.32474 -0.03400
C 	C 	0.15078 0.78130 0.34482 -0.11200
C 	C 	0.09789 0.74682 0.35557 0.19900
C 	C 	0.04935 0.75706 0.34628 -0.11000
O 	O 	0.10983 0.88013 0.29632 -0.27900
H 	H 	0.19459 0.85178 0.31631 0.04600
O 	O 	0.09371 0.70386 0.37536 -0.26500
H 	H 	0.00897 0.73107 0.35480 0.08700
H 	H 	0.91081 0.92528 0.34686 0.16600
H 	H 	0.11744 0.92378 0.30499 0.15200
H 	H 	0.09901 0.73132 0.39127 0.18500
H 	H 	0.01363 0.76578 0.27090 0.15000
C 	C 	0.45542 0.95726 0.47372 -0.14300
C 	C 	0.46063 0.02325 0.46930 0.01500
C 	C 	0.43539 0.03880 0.44721 0.29100
C 	C 	0.40738 0.98903 0.42910 -0.03600
C 	C 	0.40488 0.92359 0.43283 -0.14900
C 	C 	0.42768 0.90757 0.45558 0.37700
C 	C 	0.49556 0.07636 0.48697 0.01500
F 	F 	0.43983 0.10248 0.44285 -0.40600
H 	H 	0.38986 0.00187 0.41163 0.08300
F 	F 	0.42400 0.84407 0.45980 -0.44900
H 	H 	0.47407 0.94480 0.49093 0.12100
C 	C 	0.47004 0.10735 0.50404 0.30000
C 	C 	0.50328 0.15508 0.52177 -0.05500
C 	C 	0.56221 0.17187 0.52269 -0.14700
C 	C 	0.58780 0.14200 0.50515 0.37100
C 	C 	0.55453 0.09443 0.48738 -0.14700
F 	F 	0.41300 0.09013 0.50381 -0.40700
H 	H 	0.48312 0.17769 0.53526 0.10200
F 	F 	0.64485 0.15919 0.50529 -0.44000
H 	H 	0.57449 0.07112 0.47408 0.12100
C 	C 	0.05126 0.58386 0.46198 -0.14800
C 	C 	0.04415 0.52253 0.47317 0.00900
C 	C 	0.08848 0.49761 0.47293 0.30300
C 	C 	0.13929 0.53353 0.46132 -0.05800
C 	C 	0.14603 0.59430 0.44970 -0.14100
C 	C 	0.10196 0.61969 0.45031 0.37400
C 	C 	0.99012 0.48445 0.48499 0.01900
F 	F 	0.08197 0.43816 0.48357 -0.40600
H 	H 	0.17291 0.51338 0.46081 0.09400
F 	F 	0.10849 0.67936 0.43986 -0.44400
H 	H 	0.01743 0.60370 0.46233 0.11500
C 	C 	0.98657 0.47998 0.51182 0.30300
C 	C 	0.93443 0.44810 0.52302 -0.05900
C 	C 	0.88520 0.42130 0.50757 -0.13900
C 	C 	0.88916 0.42361 0.48065 0.37200
C 	C 	0.94143 0.45519 0.46946 -0.14800
F 	F 	0.03340 0.50816 0.52705 -0.41600
H 	H 	0.93202 0.44598 0.54373 0.09200
F 	F 	0.84250 0.39513 0.46535 -0.43100
H 	H 	0.94401 0.45765 0.44872 0.11900
C 	C 	0.55257 0.62445 0.44785 -0.14400
C 	C 	0.52920 0.60259 0.47178 0.01700
C 	C 	0.47712 0.60741 0.47802 0.29700
C 	C 	0.44712 0.63023 0.45992 -0.04600
C 	C 	0.46903 0.64877 0.43550 -0.15100
C 	C 	0.52264 0.64770 0.42975 0.38300
C 	C 	0.55594 0.56797 0.48902 0.01200
F 	F 	0.45465 0.58755 0.50130 -0.41100
H 	H 	0.40613 0.63193 0.46462 0.05400
F 	F 	0.54457 0.66636 0.40629 -0.43200
H 	H 	0.59297 0.62128 0.44298 0.11900
C 	C 	0.53667 0.49836 0.48877 0.30000
C 	C 	0.56016 0.46524 0.50592 -0.06100
C 	C 	0.60335 0.50133 0.52341 -0.14800
C 	C 	0.62257 0.57115 0.52369 0.36700
C 	C 	0.59890 0.60424 0.50651 -0.14200
F 	F 	0.49508 0.46286 0.47188 -0.41100
H 	H 	0.54540 0.41148 0.50533 0.10200
F 	F 	0.66339 0.60682 0.54086 -0.43500
H 	H 	0.61356 0.65799 0.50694 0.12100
C 	C 	0.95079 0.10696 0.64970 -0.11200
C 	C 	0.89190 0.08431 0.64670 0.01400
C 	C 	0.85928 0.02013 0.65449 0.10500
C 	C 	0.88576 0.97875 0.66499 -0.01300
C 	C 	0.94486 0.00121 0.66803 -0.13500
C 	C 	0.97741 0.06610 0.66052 0.19700
C 	C 	0.86463 0.12686 0.63439 0.00700
O 	O 	0.80165 0.99691 0.65096 -0.25700
H 	H 	0.86033 0.92895 0.67053 0.06100
O 	O 	0.03519 0.08929 0.66334 -0.27000
H 	H 	0.97602 0.15636 0.64364 0.09000
C 	C 	0.84343 0.16706 0.64939 0.12100
C 	C 	0.81545 0.20518 0.63749 -0.03500
C 	C 	0.80799 0.20279 0.61071 -0.11500
C 	C 	0.83033 0.16375 0.59569 0.20200
C 	C 	0.85888 0.12633 0.60756 -0.10600
O 	O 	0.85086 0.16996 0.67562 -0.27200
H 	H 	0.79848 0.23539 0.64912 0.04800
O 	O 	0.82490 0.16282 0.56939 -0.27100
H 	H 	0.87579 0.09605 0.59592 0.09000
H 	H 	0.04361 0.11356 0.68010 0.13500
H 	H 	0.81686 0.13497 0.68216 0.14200
H 	H 	0.78944 0.12526 0.56513 0.17000
H 	H 	0.78685 0.00844 0.66712 0.14000
C 	C 	0.44804 0.21035 0.65838 -0.10700
C 	C 	0.39869 0.20925 0.64523 0.00700
C 	C 	0.40241 0.23617 0.62051 0.12700
C 	C 	0.45500 0.26277 0.60899 -0.02600
C 	C 	0.50396 0.26099 0.62163 -0.11100
C 	C 	0.50051 0.23570 0.64660 0.19000
C 	C 	0.34299 0.17870 0.65713 0.00700
O 	O 	0.35466 0.23626 0.60754 -0.25900
H 	H 	0.45734 0.28203 0.58973 0.08000
O 	O 	0.54800 0.23342 0.65915 -0.30600
H 	H 	0.44560 0.19052 0.67754 0.07200
C 	C 	0.32020 0.10968 0.66078 0.12000
C 	C 	0.26650 0.08096 0.67115 -0.03100
C 	C 	0.23504 0.12055 0.67797 -0.11100
C 	C 	0.25787 0.18979 0.67413 0.19400
C 	C 	0.31172 0.21839 0.66394 -0.10600
O 	O 	0.34934 0.06990 0.65327 -0.26100
H 	H 	0.24940 0.02781 0.67397 0.06800
O 	O 	0.22652 0.22899 0.67896 -0.26900
H 	H 	0.32886 0.27147 0.66097 0.08800
H 	H 	0.56375 0.27610 0.66889 0.14800
H 	H 	0.37135 0.06590 0.66875 0.14800
H 	H 	0.23818 0.24737 0.69658 0.14800
H 	H 	0.34057 0.19363 0.59770 0.16800
C 	C 	0.91723 0.63956 0.60393 -0.11400
C 	C 	0.96596 0.62413 0.60871 0.01000
C 	C 	0.96518 0.55971 0.60312 0.13300
C 	C 	0.91592 0.51154 0.59275 -0.03100
C 	C 	0.86821 0.52809 0.58684 -0.11900
C 	C 	0.86886 0.59228 0.59268 0.20000
C 	C 	0.01572 0.67408 0.62165 0.00700
O 	O 	0.01205 0.54342 0.60818 -0.27000
H 	H 	0.91523 0.46174 0.58884 0.06900
O 	O 	0.82146 0.60806 0.58836 -0.27900
H 	H 	0.91682 0.68830 0.60904 0.07800
C 	C 	0.04192 0.73631 0.61038 0.12300
C 	C 	0.06920 0.79230 0.62609 -0.02600
C 	C 	0.06874 0.78624 0.65288 -0.11100
C 	C 	0.05452 0.72249 0.66325 0.18000
C 	C 	0.02741 0.66639 0.64763 -0.10300
O 	O 	0.03857 0.74296 0.58427 -0.25400
H 	H 	0.08409 0.84110 0.61768 0.07500
O 	O 	0.06198 0.71528 0.68909 -0.28600
H 	H 	0.01059 0.61793 0.65623 0.08200
H 	H 	0.82599 0.62795 0.57107 0.17300
H 	H 	0.00515 0.75602 0.58114 0.15300
H 	H 	0.02618 0.71365 0.69698 0.11500
H 	H 	0.03397 0.55334 0.59221 0.18100
C 	C 	0.86869 0.52506 0.97179 -0.14500
C 	C 	0.91361 0.50130 0.97231 0.01400
C 	C 	0.90646 0.43915 0.96114 0.30000
C 	C 	0.85549 0.40235 0.94860 -0.05500
C 	C 	0.81112 0.42707 0.94727 -0.14000
C 	C 	0.81759 0.48820 0.95930 0.37400
C 	C 	0.96868 0.54240 0.98374 0.01600
F 	F 	0.94928 0.41500 0.96211 -0.41700
H 	H 	0.85076 0.35508 0.93954 0.09100
F 	F 	0.77536 0.51325 0.95787 -0.44100
H 	H 	0.87387 0.57281 0.98052 0.12100
C 	C 	0.01454 0.57280 0.96792 0.29500
C 	C 	0.06849 0.60436 0.97879 -0.06000
C 	C 	0.07709 0.60582 0.00557 -0.14000
C 	C 	0.03025 0.57975 0.02145 0.36000
C 	C 	0.97639 0.54778 0.01051 -0.14200
F 	F 	0.00704 0.56998 0.94198 -0.41400
H 	H 	0.10388 0.62607 0.96637 0.09900
F 	F 	0.03723 0.58278 0.04742 -0.44300
H 	H 	0.94092 0.52539 0.02282 0.11700
C 	C 	0.49771 0.91609 0.00376 -0.14900
C 	C 	0.46961 0.94577 0.98717 0.01600
C 	C 	0.41038 0.92555 0.98734 0.30100
C 	C 	0.37967 0.87630 0.00411 -0.05800
C 	C 	0.40776 0.84626 0.02056 -0.14500
C 	C 	0.46702 0.86653 0.02038 0.37500
C 	C 	0.50212 0.99655 0.96910 0.01700
F 	F 	0.38262 0.95304 0.97103 -0.40400
H 	H 	0.33402 0.86096 0.00412 0.09200
F 	F 	0.49490 0.83920 0.03671 -0.43100
H 	H 	0.54337 0.93154 0.00378 0.12100
C 	C 	0.50475 0.06253 0.97182 0.30200
C 	C 	0.53244 0.10942 0.95363 -0.05500
C 	C 	0.55825 0.09098 0.93275 -0.13900
C 	C 	0.55761 0.02557 0.93065 0.36900
C 	C 	0.52961 0.97863 0.94875 -0.14300
F 	F 	0.47981 0.08094 0.99189 -0.40500
H 	H 	0.53297 0.15981 0.95549 0.10600
F 	F 	0.58172 0.00669 0.91039 -0.44900
H 	H 	0.52811 0.92792 0.94664 0.12000
C 	C 	0.43280 0.47500 0.99058 -0.14500
C 	C 	0.40085 0.44452 0.96859 0.01500
C 	C 	0.34537 0.44340 0.96525 0.29600
C 	C 	0.32255 0.47415 0.98350 -0.05800
C 	C 	0.35510 0.50652 0.00515 -0.14700
C 	C 	0.41010 0.50585 0.00882 0.37700
C 	C 	0.42612 0.41517 0.94886 0.01500
F 	F 	0.31392 0.41337 0.94416 -0.41500
H 	H 	0.28011 0.47434 0.98047 0.06900
F 	F 	0.44142 0.53484 0.03009 -0.43100
H 	H 	0.47546 0.47534 0.99338 0.11900
C 	C 	0.45200 0.45261 0.92769 0.29500
C 	C 	0.48201 0.42778 0.91066 -0.06100
C 	C 	0.48643 0.36540 0.91466 -0.15000
C 	C 	0.45826 0.32670 0.93525 0.36600
C 	C 	0.42825 0.35163 0.95223 -0.14500
F 	F 	0.44961 0.51393 0.92412 -0.41400
H 	H 	0.50306 0.45773 0.89474 0.09500
F 	F 	0.46251 0.26656 0.93962 -0.43300
H 	H 	0.40810 0.32240 0.96848 0.12400
C 	C 	0.91469 0.23921 0.84982 -0.11000
C 	C 	0.90794 0.19088 0.83057 0.01000
C 	C 	0.85387 0.15599 0.81987 0.12400
C 	C 	0.80678 0.16823 0.82897 -0.03400
C 	C 	0.81324 0.21586 0.84849 -0.11300
C 	C 	0.86758 0.25155 0.85895 0.19800
C 	C 	0.95689 0.17425 0.82247 0.00600
O 	O 	0.84676 0.10810 0.80120 -0.26800
H 	H 	0.76513 0.14039 0.82094 0.04500
O 	O 	0.87465 0.29812 0.87816 -0.26800
H 	H 	0.95629 0.26634 0.85804 0.08700
C 	C 	0.98549 0.20184 0.80012 0.12400
C 	C 	0.02081 0.17285 0.78852 -0.03900
C 	C 	0.02731 0.11622 0.79905 -0.12400
C 	C 	0.00469 0.09439 0.82319 0.19900
C 	C 	0.96931 0.12324 0.83476 -0.10300
O 	O 	0.97534 0.25349 0.78845 -0.27100
H 	H 	0.03935 0.19106 0.77025 0.03600
O 	O 	0.01322 0.04120 0.83440 -0.27100
H 	H 	0.94875 0.10318 0.85245 0.08700
H 	H 	0.87115 0.27353 0.89442 0.16200
H 	H 	0.00393 0.29423 0.79609 0.15000
H 	H 	0.04784 0.06063 0.84537 0.16200
H 	H 	0.85062 0.13166 0.78468 0.15300
C 	C 	0.29026 0.96348 0.77157 -0.11500
C 	C 	0.30270 0.98759 0.79694 0.01200
C 	C 	0.25898 0.99177 0.81235 0.12700
C 	C 	0.20525 0.98007 0.80139 -0.03200
C 	C 	0.19519 0.96531 0.77503 -0.11900
C 	C 	0.23654 0.95194 0.76062 0.19300
C 	C 	0.36220 0.01967 0.80566 -0.00100
O 	O 	0.27011 0.01351 0.83743 -0.26300
H 	H 	0.17307 0.98852 0.81285 0.07600
O 	O 	0.22615 0.93350 0.73518 -0.29900
H 	H 	0.32326 0.95794 0.75984 0.07800
C 	C 	0.38509 0.99170 0.82528 0.13600
C 	C 	0.43765 0.02847 0.83670 -0.03600
C 	C 	0.46798 0.09294 0.82838 -0.10700
C 	C 	0.44703 0.11853 0.80731 0.19200
C 	C 	0.39443 0.08176 0.79598 -0.10600
O 	O 	0.35493 0.92988 0.83422 -0.26400
H 	H 	0.45364 0.00796 0.85272 0.08400
O 	O 	0.47819 0.17908 0.79757 -0.29800
H 	H 	0.37767 0.10270 0.78033 0.07500
H 	H 	0.21031 0.88429 0.73502 0.15100
H 	H 	0.36630 0.89854 0.82354 0.15400
H 	H 	0.46442 0.21153 0.80620 0.16300
H 	H 	0.26158 0.97267 0.84765 0.17300
C 	C 	0.89798 0.69123 0.81372 -0.10400
C 	C 	0.83991 0.66065 0.80824 0.00700
C 	C 	0.81455 0.68442 0.78820 0.12300
C 	C 	0.84716 0.73839 0.77383 -0.03700
C 	C 	0.90565 0.76798 0.77876 -0.11200
C 	C 	0.93106 0.74395 0.79883 0.18900
C 	C 	0.80586 0.60294 0.82323 0.00900
O 	O 	0.75770 0.65545 0.78283 -0.26900
H 	H 	0.82698 0.75685 0.75867 0.06700
O 	O 	0.98812 0.77174 0.80389 -0.26200
H 	H 	0.91766 0.67337 0.82925 0.08500
C 	C 	0.81325 0.54147 0.82046 0.12200
C 	C 	0.78081 0.48709 0.83472 -0.02900
C 	C 	0.74084 0.49348 0.85190 -0.11300
C 	C 	0.73202 0.55446 0.85390 0.19800
C 	C 	0.76514 0.60907 0.83993 -0.10200
O 	O 	0.85101 0.53395 0.80327 -0.27400
H 	H 	0.78767 0.44037 0.83283 0.07100
O 	O 	0.69151 0.56099 0.86970 -0.26900
H 	H 	0.75887 0.65613 0.84194 0.09200
H 	H 	0.00529 0.74590 0.79318 0.14100
H 	H 	0.88686 0.54345 0.81330 0.15600
H 	H 	0.65654 0.54871 0.85883 0.15700
H 	H 	0.75414 0.61978 0.76997 0.15100
