data_crystal

_cell_length_a 38.36943
_cell_length_b 38.27673
_cell_length_c 19.97610
_cell_angle_alpha 91.02889
_cell_angle_beta  90.68038
_cell_angle_gamma 90.04542

_symmetry_space_group_name_	'P 1'
_symmetry_space_group_name_H-M	'P 1'

loop_
_symmetry_equiv_pos_as_xyz
  x,y,z

loop_
_atom_site_label
_atom_site_type_symbol
_atom_site_fract_x
_atom_site_fract_y
_atom_site_fract_z
_atom_site_charge
Cd	Cd	0.91929 0.86027 0.20868 1.24200
Cd	Cd	0.93170 0.90319 0.36696 1.17200
O 	O 	0.93787 0.79929 0.20745 -0.30500
O 	O 	0.90874 0.82068 0.12264 -0.32700
C 	C 	0.92260 0.79322 0.15026 0.31700
O 	O 	0.89342 0.91359 0.19638 -0.39300
O 	O 	0.92716 0.93910 0.27922 -0.44000
C 	C 	0.90079 0.94063 0.23680 0.24600
C 	C 	0.87101 0.84852 0.31319 0.30000
O 	O 	0.96924 0.87439 0.29471 -0.44300
O 	O 	0.85889 0.83696 0.25566 -0.28700
O 	O 	0.90300 0.85910 0.31266 -0.54500
C 	C 	0.98638 0.88913 0.24712 0.30300
O 	O 	0.97306 0.88494 0.18703 -0.34100
Cd	Cd	0.08462 0.90135 0.97182 1.24100
Cd	Cd	0.07056 0.93567 0.80961 1.17100
O 	O 	0.11605 0.84574 0.97116 -0.31400
O 	O 	0.09681 0.86887 0.06413 -0.33000
C 	C 	0.10764 0.84069 0.03287 0.31700
O 	O 	0.06533 0.95684 0.99258 -0.38400
O 	O 	0.03804 0.95996 0.89047 -0.45200
C 	C 	0.05082 0.97556 0.94447 0.24200
C 	C 	0.14033 0.93321 0.90447 0.30000
O 	O 	0.05292 0.88423 0.85794 -0.44500
O 	O 	0.14840 0.93001 0.96793 -0.29600
O 	O 	0.11181 0.91827 0.88482 -0.54400
C 	C 	0.02484 0.87923 0.89238 0.30200
O 	O 	0.02873 0.88126 0.95708 -0.34900
C 	C 	0.04648 0.72315 0.92974 0.16900
N 	N 	0.04442 0.68983 0.95190 -0.12600
C 	C 	0.03206 0.66397 0.91072 0.13900
N 	N 	0.02027 0.67167 0.84848 -0.14200
C 	C 	0.02214 0.70480 0.82596 0.13900
N 	N 	0.03566 0.73057 0.86630 -0.13100
C 	C 	0.89126 0.67819 0.27123 0.17100
N 	N 	0.90167 0.69195 0.33141 -0.13500
C 	C 	0.90384 0.67137 0.38607 0.13800
N 	N 	0.89539 0.63692 0.38025 -0.14200
C 	C 	0.88421 0.62329 0.32036 0.13900
N 	N 	0.88294 0.64385 0.26572 -0.13200
Cd	Cd	0.89766 0.97008 0.76450 1.23900
Cd	Cd	0.95063 0.98286 0.91116 1.16800
O 	O 	0.83873 0.95292 0.79366 -0.31400
O 	O 	0.85174 0.96447 0.68940 -0.34600
C 	C 	0.82819 0.95501 0.73220 0.31600
O 	O 	0.94876 0.99282 0.72587 -0.39100
O 	O 	0.98017 0.97337 0.81619 -0.43600
C 	C 	0.97803 0.99243 0.76228 0.24800
C 	C 	0.89122 0.03291 0.84147 0.30100
O 	O 	0.91929 0.93559 0.86851 -0.44600
O 	O 	0.87559 0.03556 0.78343 -0.29200
O 	O 	0.90288 0.00214 0.85491 -0.54600
C 	C 	0.93139 0.91176 0.82782 0.30300
O 	O 	0.92237 0.91504 0.76508 -0.35600
Cd	Cd	0.77118 0.95491 0.48902 1.24400
Cd	Cd	0.80210 0.95207 0.32218 1.17100
O 	O 	0.71512 0.92565 0.50552 -0.30400
O 	O 	0.74311 0.95102 0.58893 -0.32900
C 	C 	0.71430 0.93639 0.56741 0.31300
O 	O 	0.82696 0.97480 0.49944 -0.36900
O 	O 	0.82885 0.99126 0.39018 -0.45100
C 	C 	0.84508 0.98355 0.44625 0.24200
C 	C 	0.80128 0.89274 0.43719 0.29800
O 	O 	0.75180 0.97493 0.36848 -0.44700
O 	O 	0.79935 0.89125 0.50243 -0.27400
O 	O 	0.78594 0.91899 0.41014 -0.54100
C 	C 	0.74752 0.00620 0.39361 0.29500
O 	O 	0.75118 0.00913 0.45841 -0.34600
C 	C 	0.68880 0.94973 0.79982 0.17300
N 	N 	0.65967 0.94815 0.76071 -0.12900
C 	C 	0.62779 0.94690 0.78916 0.14200
N 	N 	0.62506 0.94742 0.85684 -0.14300
C 	C 	0.65408 0.94946 0.89622 0.14000
N 	N 	0.68601 0.95096 0.86763 -0.13500
C 	C 	0.58911 0.96496 0.49147 0.16800
N 	N 	0.60169 0.96419 0.42816 -0.13600
C 	C 	0.58049 0.97175 0.37551 0.13700
N 	N 	0.54624 0.97846 0.38607 -0.14200
C 	C 	0.53315 0.97731 0.44893 0.13700
N 	N 	0.55478 0.97135 0.50186 -0.13700
Cd	Cd	0.83557 0.11736 0.22267 1.24100
Cd	Cd	0.84643 0.08029 0.38406 1.17200
O 	O 	0.82025 0.17936 0.22525 -0.31000
O 	O 	0.83516 0.15317 0.13156 -0.32900
C 	C 	0.82785 0.18252 0.16263 0.31200
O 	O 	0.85737 0.06287 0.20131 -0.39000
O 	O 	0.83736 0.04109 0.29995 -0.43300
C 	C 	0.85616 0.03746 0.24566 0.24800
C 	C 	0.89783 0.13073 0.29780 0.30000
O 	O 	0.80025 0.10800 0.33140 -0.44200
O 	O 	0.90114 0.13948 0.23553 -0.28500
O 	O 	0.86680 0.12139 0.31438 -0.54500
C 	C 	0.77642 0.09191 0.29593 0.29600
O 	O 	0.77981 0.09411 0.23106 -0.34600
Cd	Cd	0.00087 0.15648 0.94472 1.24000
Cd	Cd	0.99291 0.10384 0.79666 1.17100
O 	O 	0.96976 0.21219 0.93894 -0.30200
O 	O 	0.99711 0.19694 0.03081 -0.31300
C 	C 	0.97929 0.22079 0.99947 0.30000
O 	O 	0.02346 0.10395 0.97528 -0.38700
O 	O 	0.03584 0.08830 0.86722 -0.45000
C 	C 	0.03117 0.07962 0.92977 0.24500
C 	C 	0.93852 0.11885 0.91808 0.30000
O 	O 	0.01531 0.15930 0.81635 -0.44600
O 	O 	0.93950 0.12958 0.98055 -0.28400
O 	O 	0.96293 0.13047 0.88070 -0.54300
C 	C 	0.04726 0.16704 0.83324 0.29800
O 	O 	0.05284 0.17291 0.89704 -0.35700
C 	C 	0.99927 0.34978 0.91909 0.16900
N 	N 	0.99626 0.33824 0.85460 -0.13700
C 	C 	0.99705 0.36117 0.80358 0.13800
N 	N 	0.00167 0.39579 0.81736 -0.14300
C 	C 	0.00642 0.40721 0.88168 0.13700
N 	N 	0.00403 0.38432 0.93265 -0.13400
C 	C 	0.88398 0.30822 0.23339 0.16800
N 	N 	0.88121 0.34159 0.21171 -0.12600
C 	C 	0.89232 0.36861 0.25144 0.14000
N 	N 	0.90788 0.36210 0.31118 -0.14200
C 	C 	0.91040 0.32899 0.33359 0.13900
N 	N 	0.89775 0.30202 0.29523 -0.13500
Cd	Cd	0.14896 0.05572 0.67887 1.24300
Cd	Cd	0.12384 0.06486 0.84895 1.16900
O 	O 	0.20940 0.07123 0.65437 -0.30500
O 	O 	0.17618 0.04485 0.57946 -0.32900
C 	C 	0.20726 0.05602 0.59592 0.31300
O 	O 	0.09499 0.03112 0.68145 -0.37800
O 	O 	0.07893 0.06270 0.77472 -0.43500
C 	C 	0.07253 0.03778 0.73001 0.24800
C 	C 	0.17073 0.00485 0.77296 0.30000
O 	O 	0.14568 0.10389 0.77260 -0.44400
O 	O 	0.17493 0.99357 0.71162 -0.28600
O 	O 	0.16111 0.03708 0.77880 -0.54700
C 	C 	0.12659 0.12262 0.73295 0.29400
O 	O 	0.12414 0.11093 0.67113 -0.33300
Cd	Cd	0.02465 0.03171 0.41596 1.24100
Cd	Cd	0.96669 0.02642 0.27547 1.17000
O 	O 	0.07766 0.06432 0.39180 -0.30800
O 	O 	0.06950 0.04238 0.49085 -0.34400
C 	C 	0.09080 0.05783 0.45022 0.31300
O 	O 	0.97416 0.01056 0.45933 -0.38300
O 	O 	0.95590 0.98897 0.35746 -0.45400
C 	C 	0.94887 0.99874 0.41911 0.24500
C 	C 	0.98393 0.09027 0.38145 0.30400
O 	O 	0.02320 0.00716 0.29182 -0.44500
O 	O 	0.99703 0.09478 0.44170 -0.30000
O 	O 	0.99492 0.06335 0.34834 -0.54400
C 	C 	0.03269 0.97707 0.31514 0.30000
O 	O 	0.04112 0.97700 0.37853 -0.34900
C 	C 	0.32605 0.00865 0.67403 0.16800
N 	N 	0.36031 0.00217 0.66321 -0.13600
C 	C 	0.38194 0.99534 0.71566 0.13600
N 	N 	0.36890 0.99342 0.77851 -0.14300
C 	C 	0.33467 0.00016 0.78951 0.13800
N 	N 	0.31347 0.00848 0.73731 -0.13600
C 	C 	0.22834 0.04409 0.36236 0.17300
N 	N 	0.22941 0.03908 0.29479 -0.13200
C 	C 	0.26018 0.03167 0.26468 0.14100
N 	N 	0.28980 0.02945 0.30211 -0.14200
C 	C 	0.28877 0.03427 0.36949 0.14200
N 	N 	0.25811 0.04193 0.39953 -0.12900
C 	C 	0.32133 0.00171 0.85880 -0.04700
C 	C 	0.28930 0.98574 0.87560 0.10800
C 	C 	0.27519 0.99190 0.93934 -0.08700
C 	C 	0.29372 0.01130 0.98822 -0.01000
C 	C 	0.32672 0.02552 0.97274 0.06900
C 	C 	0.33985 0.02113 0.90776 -0.04900
N 	N 	0.27281 0.96334 0.83208 -0.19900
H 	H 	0.25025 0.98048 0.95172 0.05900
C 	C 	0.27914 0.01492 0.05655 0.00700
N 	N 	0.34594 0.04329 0.01988 -0.19000
H 	H 	0.36447 0.03314 0.89515 0.05200
C 	C 	0.28273 0.98710 0.10080 -0.08800
C 	C 	0.27311 0.99100 0.16812 0.11000
C 	C 	0.26124 0.02386 0.19214 -0.04600
C 	C 	0.25512 0.05083 0.14688 -0.04900
C 	C 	0.26349 0.04650 0.07886 0.07000
H 	H 	0.29345 0.96247 0.08299 0.06500
N 	N 	0.27493 0.96308 0.20921 -0.19900
H 	H 	0.24499 0.07565 0.16497 0.05900
N 	N 	0.25684 0.07279 0.03560 -0.19000
H 	H 	0.28501 0.93927 0.19188 0.10000
H 	H 	0.26496 0.96428 0.25762 0.11000
H 	H 	0.24620 0.09637 0.05284 0.09000
H 	H 	0.26129 0.06980 0.98436 0.08300
H 	H 	0.37000 0.05413 0.00762 0.09300
H 	H 	0.33760 0.04608 0.06921 0.09600
H 	H 	0.28525 0.95352 0.78956 0.11700
H 	H 	0.24810 0.95360 0.84294 0.10300
C 	C 	0.17518 0.01702 0.40989 0.08900
C 	C 	0.19454 0.04725 0.39608 -0.05200
C 	C 	0.18195 0.08031 0.41608 0.08700
C 	C 	0.14999 0.08297 0.44972 0.11200
C 	C 	0.12875 0.05330 0.45622 -0.10900
C 	C 	0.14298 0.02000 0.44255 0.11800
Br	Br	0.11776 0.97858 0.46640 -0.19500
Br	Br	0.19125 0.97191 0.37846 -0.18300
Br	Br	0.13431 0.12740 0.48441 -0.18200
Br	Br	0.20585 0.12198 0.38917 -0.16500
C 	C 	0.24332 0.00325 0.57738 0.10500
C 	C 	0.23867 0.03940 0.56825 -0.10000
C 	C 	0.26865 0.06031 0.56288 0.10600
C 	C 	0.30052 0.04841 0.58955 0.08300
C 	C 	0.30220 0.01498 0.61752 -0.05900
C 	C 	0.27508 0.99112 0.60396 0.07800
Br	Br	0.28082 0.94270 0.62629 -0.20800
Br	Br	0.20550 0.97119 0.56055 -0.16700
Br	Br	0.34062 0.07867 0.59335 -0.20700
Br	Br	0.26437 0.10731 0.53155 -0.16300
C 	C 	0.98853 0.34897 0.73430 -0.04400
C 	C 	0.00512 0.36341 0.67810 0.10400
C 	C 	0.99137 0.35666 0.61361 -0.08200
C 	C 	0.96377 0.33299 0.60376 -0.00500
C 	C 	0.95040 0.31490 0.65912 0.07700
C 	C 	0.96200 0.32401 0.72409 -0.05200
N 	N 	0.03509 0.38215 0.68534 -0.19800
H 	H 	0.00259 0.36941 0.57086 0.05900
C 	C 	0.94804 0.32861 0.53574 -0.00200
N 	N 	0.92632 0.28907 0.65029 -0.19400
H 	H 	0.94999 0.31197 0.76680 0.06800
C 	C 	0.96681 0.31074 0.48592 -0.08600
C 	C 	0.95400 0.30844 0.41969 0.11000
C 	C 	0.92121 0.32335 0.40375 -0.04800
C 	C 	0.90134 0.33883 0.45476 -0.04900
C 	C 	0.91496 0.34294 0.51997 0.07400
H 	H 	0.99189 0.29935 0.49833 0.06300
N 	N 	0.97356 0.29248 0.37174 -0.20100
H 	H 	0.87607 0.34989 0.44258 0.05500
N 	N 	0.89662 0.36147 0.56645 -0.19400
H 	H 	0.99786 0.28185 0.38393 0.10500
H 	H 	0.96491 0.29031 0.32216 0.12000
H 	H 	0.87183 0.37107 0.55477 0.09200
H 	H 	0.90707 0.36751 0.61371 0.09600
H 	H 	0.91568 0.27672 0.69159 0.09600
H 	H 	0.91882 0.28018 0.60255 0.09400
H 	H 	0.04930 0.38231 0.73024 0.10100
H 	H 	0.04592 0.39455 0.64428 0.09300
C 	C 	0.07513 0.15508 0.79220 -0.07700
C 	C 	0.09862 0.14203 0.76155 -0.06500
C 	C 	0.95792 0.31394 0.98245 0.07600
C 	C 	0.99216 0.32562 0.97355 -0.06400
C 	C 	0.01977 0.30740 0.00378 0.09100
C 	C 	0.01359 0.27409 0.03010 0.10300
C 	C 	0.98077 0.25810 0.01951 -0.08200
C 	C 	0.95207 0.27954 0.00296 0.12100
Br	Br	0.90594 0.25989 0.99545 -0.17100
Br	Br	0.91939 0.34418 0.96131 -0.19300
Br	Br	0.04962 0.25070 0.07997 -0.17000
Br	Br	0.06598 0.32705 0.00517 -0.19000
C 	C 	0.92740 0.11934 0.33481 -0.11300
C 	C 	0.95316 0.10758 0.36012 -0.10200
C 	C 	0.87852 0.22068 0.14272 0.11600
C 	C 	0.84214 0.21603 0.14053 -0.09600
C 	C 	0.82082 0.24570 0.14636 0.11300
C 	C 	0.83445 0.27681 0.17502 0.08700
C 	C 	0.87034 0.27889 0.19147 -0.04900
C 	C 	0.89272 0.25158 0.17114 0.08700
Br	Br	0.94245 0.25632 0.18289 -0.18100
Br	Br	0.90856 0.18502 0.10642 -0.16100
Br	Br	0.80352 0.31487 0.19743 -0.17900
Br	Br	0.77224 0.24215 0.12227 -0.16900
C 	C 	0.49545 0.98215 0.45940 -0.05100
C 	C 	0.47065 0.96380 0.41922 0.10600
C 	C 	0.43582 0.97485 0.41887 -0.08800
C 	C 	0.42478 0.00152 0.46274 -0.00200
C 	C 	0.44858 0.01590 0.51042 0.07400
C 	C 	0.48411 0.00748 0.50583 -0.04900
N 	N 	0.47991 0.93505 0.38262 -0.20000
H 	H 	0.41720 0.96255 0.38464 0.05900
C 	C 	0.38869 0.01502 0.45587 0.00100
N 	N 	0.43761 0.03795 0.55991 -0.19500
H 	H 	0.50296 0.02116 0.53734 0.05500
C 	C 	0.36088 0.99284 0.47110 -0.08000
C 	C 	0.32726 0.99921 0.44560 0.11100
C 	C 	0.32081 0.03019 0.40977 -0.04100
C 	C 	0.34757 0.05472 0.40292 -0.04100
C 	C 	0.38181 0.04694 0.42316 0.08300
H 	H 	0.36597 0.96910 0.49838 0.06400
N 	N 	0.30186 0.97481 0.45303 -0.20200
H 	H 	0.34227 0.07889 0.37718 0.06400
N 	N 	0.40797 0.06960 0.40902 -0.19300
H 	H 	0.30743 0.95123 0.47642 0.11300
H 	H 	0.27635 0.97903 0.43648 0.12000
H 	H 	0.40245 0.09314 0.38541 0.09900
H 	H 	0.43395 0.06406 0.42032 0.09800
H 	H 	0.45549 0.04908 0.59395 0.09400
H 	H 	0.41116 0.04281 0.56715 0.11400
H 	H 	0.50427 0.92334 0.38899 0.10100
H 	H 	0.46189 0.92278 0.35034 0.09200
C 	C 	0.59622 0.94995 0.74735 -0.04300
C 	C 	0.56993 0.92415 0.74886 0.11700
C 	C 	0.53600 0.93245 0.72757 -0.07900
C 	C 	0.52840 0.96568 0.70264 -0.00100
C 	C 	0.55588 0.98974 0.69282 0.08300
C 	C 	0.58962 0.98156 0.71535 -0.05000
N 	N 	0.57716 0.89141 0.77034 -0.19700
H 	H 	0.51522 0.91351 0.73274 0.06400
C 	C 	0.49145 0.97689 0.69790 -0.00600
N 	N 	0.54980 0.02107 0.66389 -0.19300
H 	H 	0.61033 0.00071 0.71147 0.07200
C 	C 	0.47929 0.00231 0.74337 -0.08500
C 	C 	0.44392 0.01131 0.74472 0.10600
C 	C 	0.41975 0.99188 0.70503 -0.05000
C 	C 	0.43193 0.96740 0.65770 -0.05000
C 	C 	0.46776 0.96040 0.65248 0.07600
H 	H 	0.49754 0.01548 0.77717 0.05900
N 	N 	0.43350 0.03931 0.78231 -0.20000
H 	H 	0.41351 0.95366 0.62508 0.05600
N 	N 	0.47924 0.93835 0.60335 -0.19500
H 	H 	0.45115 0.05229 0.81434 0.09100
H 	H 	0.40855 0.04984 0.77687 0.10100
H 	H 	0.46151 0.92577 0.57089 0.09500
H 	H 	0.50580 0.93485 0.59474 0.10900
H 	H 	0.56988 0.03932 0.65966 0.11000
H 	H 	0.52520 0.02762 0.64530 0.09400
H 	H 	0.60269 0.88379 0.78151 0.11400
H 	H 	0.55739 0.87273 0.77331 0.10200
C 	C 	0.59396 0.96999 0.30634 -0.04700
C 	C 	0.62558 0.98664 0.28903 0.10800
C 	C 	0.63906 0.98144 0.22449 -0.08600
C 	C 	0.62000 0.96284 0.17523 -0.00400
C 	C 	0.58786 0.94712 0.19184 0.07500
C 	C 	0.57545 0.95046 0.25751 -0.05000
N 	N 	0.64214 0.00892 0.33272 -0.19900
H 	H 	0.66354 0.99361 0.21146 0.05800
C 	C 	0.63287 0.96182 0.10541 -0.00400
N 	N 	0.56877 0.92892 0.14511 -0.19400
H 	H 	0.55130 0.93770 0.27070 0.05400
C 	C 	0.65168 0.93256 0.08284 -0.09000
C 	C 	0.66010 0.92842 0.01481 0.12000
C 	C 	0.65048 0.95476 0.96916 -0.05400
C 	C 	0.63380 0.98509 0.99275 -0.05800
C 	C 	0.62455 0.98878 0.06029 0.08200
H 	H 	0.65854 0.91226 0.11780 0.06000
N 	N 	0.67664 0.89886 0.99363 -0.21000
H 	H 	0.62697 0.00545 0.95788 0.06000
N 	N 	0.60723 0.01795 0.08115 -0.19400
H 	H 	0.68354 0.87959 0.02775 0.10400
H 	H 	0.68270 0.89456 0.94338 0.11200
H 	H 	0.60098 0.03755 0.04729 0.09700
H 	H 	0.59991 0.02160 0.13092 0.09600
H 	H 	0.54509 0.91745 0.15791 0.09200
H 	H 	0.57707 0.92601 0.09576 0.09600
H 	H 	0.62998 0.01822 0.37594 0.11600
H 	H 	0.66658 0.01915 0.32128 0.10100
C 	C 	0.75294 0.03596 0.35324 -0.07800
C 	C 	0.76115 0.06157 0.32352 -0.06900
C 	C 	0.88251 0.98924 0.45063 -0.10500
C 	C 	0.91354 0.99396 0.44273 -0.11500
C 	C 	0.67002 0.98215 0.58821 0.10000
C 	C 	0.68043 0.94700 0.59510 -0.09900
C 	C 	0.65422 0.92135 0.59878 0.10600
C 	C 	0.62047 0.92874 0.57446 0.08300
C 	C 	0.61336 0.96187 0.54848 -0.06000
C 	C 	0.63643 0.98951 0.56329 0.07900
Br	Br	0.62326 0.03665 0.54238 -0.20800
Br	Br	0.70312 0.01946 0.60189 -0.17200
Br	Br	0.58492 0.89323 0.57197 -0.20400
Br	Br	0.66622 0.87484 0.62533 -0.16400
C 	C 	0.00983 0.00847 0.73870 -0.11400
C 	C 	0.03831 0.02142 0.72949 -0.11100
C 	C 	0.90554 0.06303 0.87424 -0.11500
C 	C 	0.91940 0.08862 0.89751 -0.10300
C 	C 	0.77177 0.98538 0.72672 0.11700
C 	C 	0.79085 0.95442 0.71650 -0.10900
C 	C 	0.77350 0.92220 0.71996 0.11500
C 	C 	0.74063 0.92038 0.75014 0.08700
C 	C 	0.72325 0.95139 0.76864 -0.05200
C 	C 	0.73856 0.98400 0.75581 0.08800
Br	Br	0.71566 0.02649 0.78434 -0.17300
Br	Br	0.79243 0.02961 0.70555 -0.18700
Br	Br	0.72183 0.87577 0.77478 -0.17400
Br	Br	0.79620 0.88043 0.68796 -0.18300
C 	C 	0.87708 0.58542 0.31296 -0.04800
C 	C 	0.85010 0.57289 0.26982 0.11100
C 	C 	0.84988 0.53763 0.24938 -0.08600
C 	C 	0.87326 0.51388 0.27797 -0.00200
C 	C 	0.89779 0.52572 0.32691 0.07400
C 	C 	0.90003 0.56156 0.34265 -0.04800
N 	N 	0.82357 0.59414 0.25052 -0.19900
H 	H 	0.83047 0.52833 0.21339 0.06400
C 	C 	0.87191 0.47668 0.25629 -0.00300
N 	N 	0.91920 0.50292 0.35886 -0.19400
H 	H 	0.92020 0.57094 0.37696 0.05700
C 	C 	0.89740 0.46380 0.21249 -0.08200
C 	C 	0.90196 0.42763 0.20311 0.11000
C 	C 	0.88048 0.40427 0.23785 -0.04200
C 	C 	0.85187 0.41724 0.27346 -0.04700
C 	C 	0.84775 0.45329 0.28442 0.07700
H 	H 	0.91484 0.48187 0.18843 0.06200
N 	N 	0.92718 0.41552 0.16150 -0.19900
H 	H 	0.83447 0.39912 0.29755 0.06300
N 	N 	0.82138 0.46512 0.32374 -0.19400
H 	H 	0.94373 0.43290 0.13756 0.10100
H 	H 	0.92982 0.38884 0.15084 0.11600
H 	H 	0.80400 0.44755 0.34493 0.09600
H 	H 	0.81768 0.49172 0.33345 0.09500
H 	H 	0.93781 0.51204 0.39361 0.09100
H 	H 	0.91701 0.47596 0.35109 0.09400
H 	H 	0.81986 0.61859 0.27338 0.11100
H 	H 	0.80488 0.58531 0.21568 0.10100
C 	C 	0.01234 0.44469 0.89623 -0.04900
C 	C 	0.04115 0.45630 0.93579 0.10800
C 	C 	0.04449 0.49198 0.95216 -0.08600
C 	C 	0.02145 0.51652 0.92503 -0.00400
C 	C 	0.99331 0.50503 0.88353 0.07400
C 	C 	0.98863 0.46913 0.87092 -0.04900
N 	N 	0.06649 0.43370 0.95544 -0.19900
H 	H 	0.06622 0.50090 0.98321 0.06100
C 	C 	0.02939 0.55422 0.93415 -0.00400
N 	N 	0.97102 0.52826 0.85504 -0.19400
H 	H 	0.96661 0.46021 0.84063 0.05700
C 	C 	0.05548 0.56906 0.89524 -0.08300
C 	C 	0.05967 0.60542 0.89362 0.10800
C 	C 	0.03629 0.62720 0.92915 -0.03900
C 	C 	0.01266 0.61236 0.97349 -0.06000
C 	C 	0.00941 0.57586 0.97727 0.07600
H 	H 	0.07195 0.55231 0.86478 0.06000
N 	N 	0.08603 0.61931 0.85771 -0.19900
H 	H 	0.99571 0.62916 0.00284 0.07800
N 	N 	0.98672 0.56183 0.02118 -0.19000
H 	H 	0.10229 0.60316 0.82917 0.09500
H 	H 	0.09152 0.64603 0.86003 0.10800
H 	H 	0.97130 0.57801 0.05135 0.10400
H 	H 	0.98492 0.53485 0.02721 0.09900
H 	H 	0.95014 0.51943 0.82518 0.09100
H 	H 	0.97436 0.55518 0.86124 0.09500
H 	H 	0.06778 0.40828 0.93586 0.11100
H 	H 	0.08659 0.44215 0.98761 0.09900
C 	C 	0.91937 0.68546 0.44946 -0.04500
C 	C 	0.90485 0.67777 0.51246 0.10600
C 	C 	0.92366 0.68622 0.57144 -0.08300
C 	C 	0.95503 0.70503 0.56892 -0.00400
C 	C 	0.96763 0.71594 0.50628 0.07500
C 	C 	0.95023 0.70517 0.44707 -0.05100
N 	N 	0.87243 0.66367 0.51680 -0.19900
H 	H 	0.91358 0.67859 0.61952 0.06100
C 	C 	0.97592 0.71055 0.63155 -0.00400
N 	N 	0.99613 0.73696 0.50266 -0.19400
H 	H 	0.96095 0.71190 0.39899 0.06500
C 	C 	0.00648 0.69109 0.64096 -0.08500
C 	C 	0.02480 0.69273 0.70223 0.10500
C 	C 	0.01091 0.71219 0.75660 -0.04500
C 	C 	0.98177 0.73360 0.74589 -0.05100
C 	C 	0.96445 0.73347 0.68332 0.07500
H 	H 	0.01600 0.67452 0.60053 0.06000
N 	N 	0.05577 0.67579 0.70853 -0.19900
H 	H 	0.97175 0.74940 0.78694 0.06700
N 	N 	0.93709 0.75540 0.67326 -0.19500
H 	H 	0.06515 0.66013 0.66932 0.09300
H 	H 	0.07157 0.67936 0.75105 0.09900
H 	H 	0.92812 0.77143 0.71230 0.09900
H 	H 	0.92528 0.75768 0.62619 0.09400
H 	H 	0.00597 0.74392 0.45619 0.09500
H 	H 	0.00795 0.74767 0.54567 0.09200
H 	H 	0.85572 0.66210 0.47523 0.10300
H 	H 	0.86272 0.65628 0.56313 0.09500
C 	C 	0.04501 0.01288 0.95307 -0.11400
C 	C 	0.03894 0.04396 0.94870 -0.11600
C 	C 	0.99165 0.88634 0.86370 -0.06900
C 	C 	0.96364 0.89580 0.84443 -0.06900
C 	C 	0.15524 0.95957 0.86456 -0.10500
C 	C 	0.16392 0.98085 0.82478 -0.12000
C 	C 	0.05541 0.80390 0.04114 0.11800
C 	C 	0.09180 0.80662 0.04766 -0.10700
C 	C 	0.11161 0.77650 0.03426 0.12300
C 	C 	0.09688 0.74876 0.99571 0.07400
C 	C 	0.06173 0.75090 0.97366 -0.04500
C 	C 	0.04097 0.77901 0.99635 0.07800
Br	Br	0.99507 0.78651 0.95894 -0.18100
Br	Br	0.02575 0.83352 0.09407 -0.17900
Br	Br	0.12560 0.70991 0.96792 -0.19200
Br	Br	0.15977 0.77533 0.06184 -0.17000
C 	C 	0.88372 0.97418 0.22832 -0.12600
C 	C 	0.87105 0.00330 0.23088 -0.11400
C 	C 	0.84773 0.86110 0.36309 -0.11300
C 	C 	0.82701 0.87398 0.40060 -0.09600
C 	C 	0.00618 0.91958 0.26338 -0.06700
C 	C 	0.01984 0.94581 0.28416 -0.07500
C 	C 	0.87461 0.75038 0.15090 0.10800
C 	C 	0.90954 0.75774 0.13549 -0.09600
C 	C 	0.93376 0.73016 0.13875 0.10700
C 	C 	0.92617 0.70082 0.17742 0.08500
C 	C 	0.89416 0.69914 0.21065 -0.05600
C 	C 	0.86714 0.72198 0.19226 0.08400
Br	Br	0.82085 0.71519 0.22586 -0.19000
Br	Br	0.83791 0.78027 0.11932 -0.17600
Br	Br	0.96005 0.66412 0.18813 -0.19500
Br	Br	0.97957 0.73601 0.10302 -0.15900
