data_crystal

_cell_length_a 24.65044
_cell_length_b 21.66788
_cell_length_c 19.40269
_cell_angle_alpha 92.70844
_cell_angle_beta  85.31691
_cell_angle_gamma 124.79214

_symmetry_space_group_name_	'P 1'
_symmetry_space_group_name_H-M	'P 1'

loop_
_symmetry_equiv_pos_as_xyz
  x,y,z

loop_
_atom_site_label
_atom_site_type_symbol
_atom_site_fract_x
_atom_site_fract_y
_atom_site_fract_z
_atom_site_charge
C 	C 	0.89085 0.07407 0.95230 0.03200
C 	C 	0.91141 0.05162 0.89257 -0.01500
C 	C 	0.94490 0.01758 0.89803 -0.05300
C 	C 	0.95953 0.00715 0.96298 0.08300
C 	C 	0.94152 0.03271 0.02271 -0.05600
C 	C 	0.90667 0.06523 0.01735 -0.02000
N 	N 	0.99381 0.97148 0.96726 -0.14000
C 	C 	0.17594 0.08454 0.06329 0.03900
C 	C 	0.11638 0.03710 0.10280 -0.02700
C 	C 	0.05588 0.00186 0.07235 -0.05300
C 	C 	0.05461 0.01388 0.00193 0.08300
C 	C 	0.11408 0.06354 0.96349 -0.05700
C 	C 	0.17445 0.09821 0.99374 -0.02100
C 	C 	0.87410 0.73427 0.99399 0.03300
C 	C 	0.92759 0.76823 0.94422 -0.02200
C 	C 	0.96725 0.84631 0.93655 -0.04600
C 	C 	0.95359 0.89120 0.97810 0.07800
C 	C 	0.90076 0.85715 0.02921 -0.05500
C 	C 	0.86125 0.77904 0.03694 -0.02200
H 	H 	0.90059 0.05959 0.84203 0.06300
H 	H 	0.95956 0.99920 0.85176 0.06000
H 	H 	0.95382 0.02668 0.07308 0.05500
H 	H 	0.89170 0.08321 0.06371 0.05200
H 	H 	0.11704 0.02654 0.15665 0.05200
H 	H 	0.01031 0.96479 0.10312 0.04700
H 	H 	0.11350 0.07321 0.90938 0.06100
H 	H 	0.22022 0.13448 0.96275 0.06200
H 	H 	0.93765 0.73402 0.91062 0.06200
H 	H 	0.00808 0.87205 0.89751 0.05600
H 	H 	0.89063 0.89085 0.06319 0.05400
H 	H 	0.82009 0.75319 0.07564 0.05400
C 	C 	0.93274 0.14149 0.41774 0.03200
C 	C 	0.93724 0.10240 0.36042 -0.02400
C 	C 	0.97326 0.07100 0.36280 -0.05000
C 	C 	0.00421 0.07734 0.42281 0.07700
C 	C 	0.00153 0.11897 0.47944 -0.06500
C 	C 	0.96685 0.15179 0.47629 -0.00900
N 	N 	0.03446 0.03697 0.42695 -0.14100
C 	C 	0.21998 0.14936 0.51687 0.03400
C 	C 	0.16122 0.11017 0.55934 -0.01500
C 	C 	0.10001 0.07254 0.53026 -0.05700
C 	C 	0.09706 0.07690 0.45851 0.08400
C 	C 	0.15592 0.11824 0.41663 -0.05500
C 	C 	0.21709 0.15382 0.44548 -0.02200
C 	C 	0.90380 0.80588 0.48067 0.03300
C 	C 	0.95097 0.82891 0.42462 -0.01900
C 	C 	0.99391 0.90498 0.40764 -0.04600
C 	C 	0.98958 0.95871 0.44577 0.08500
C 	C 	0.94108 0.93534 0.50110 -0.05800
C 	C 	0.89861 0.85923 0.51849 -0.02000
H 	H 	0.91161 0.09491 0.31468 0.05100
H 	H 	0.97540 0.03954 0.31886 0.05700
H 	H 	0.02459 0.12428 0.52636 0.05600
H 	H 	0.96446 0.18299 0.52036 0.06000
H 	H 	0.16299 0.10764 0.61468 0.06100
H 	H 	0.05513 0.04130 0.56350 0.05800
H 	H 	0.15412 0.12160 0.36144 0.06200
H 	H 	0.26226 0.18422 0.41231 0.05900
H 	H 	0.95482 0.78787 0.39476 0.06000
H 	H 	0.03065 0.92238 0.36472 0.05500
H 	H 	0.93720 0.97600 0.53138 0.06200
H 	H 	0.86218 0.84183 0.56176 0.05700
Co	Co	0.69177 0.27507 0.98403 1.18600
O 	O 	0.75785 0.26292 0.92003 -0.35000
Co	Co	0.55898 0.27434 0.03822 1.19000
O 	O 	0.59676 0.22236 0.95693 -0.46300
O 	O 	0.63399 0.38253 0.02969 -0.39200
O 	O 	0.69115 0.17632 0.99124 -0.34900
C 	C 	0.69347 0.41173 0.99735 0.35100
O 	O 	0.53914 0.26203 0.93100 -0.34100
C 	C 	0.44424 0.20623 0.10561 0.31600
C 	C 	0.66930 0.29695 0.11665 0.29900
O 	O 	0.48882 0.27777 0.10350 -0.35800
O 	O 	0.46546 0.17197 0.06878 -0.31800
O 	O 	0.72489 0.31484 0.08538 -0.34900
O 	O 	0.61926 0.25204 0.08033 -0.45700
O 	O 	0.70719 0.37129 0.95538 -0.52900
C 	C 	0.73772 0.19772 0.94326 0.31200
C 	C 	0.57508 0.23855 0.90700 0.31100
H 	H 	0.73944 0.39668 0.91365 0.18200
Co	Co	0.74092 0.34644 0.49872 1.18600
O 	O 	0.81249 0.34128 0.43825 -0.35000
Co	Co	0.60970 0.35185 0.53996 1.19100
O 	O 	0.65782 0.31724 0.45311 -0.45900
O 	O 	0.69148 0.44949 0.56274 -0.41500
O 	O 	0.72832 0.24067 0.48103 -0.34700
C 	C 	0.74561 0.48696 0.52090 0.35700
O 	O 	0.61537 0.37630 0.43260 -0.33000
C 	C 	0.48610 0.27944 0.58087 0.30900
C 	C 	0.69092 0.32980 0.62993 0.30200
O 	O 	0.53185 0.34737 0.59780 -0.33500
O 	O 	0.51065 0.25166 0.53963 -0.33300
O 	O 	0.74971 0.34892 0.60799 -0.34900
O 	O 	0.65136 0.30414 0.58013 -0.45500
O 	O 	0.77469 0.45491 0.49135 -0.52800
C 	C 	0.78223 0.26942 0.44198 0.31200
C 	C 	0.65244 0.35475 0.40747 0.29700
H 	H 	0.81755 0.48693 0.46183 0.17900
C 	C 	0.66617 0.30829 0.70232 -0.09100
C 	C 	0.67097 0.36136 0.75134 0.05800
C 	C 	0.64046 0.33705 0.81778 -0.02900
C 	C 	0.61120 0.26279 0.83851 -0.10700
C 	C 	0.61155 0.21115 0.79136 0.05800
C 	C 	0.63725 0.23389 0.72287 -0.02200
H 	H 	0.64012 0.37647 0.85382 0.07100
H 	H 	0.63467 0.19357 0.68553 0.05500
C 	C 	0.70895 0.44431 0.73433 -0.12000
C 	C 	0.58155 0.13071 0.81215 -0.11900
C 	C 	0.66157 0.46742 0.72507 -0.00700
H 	H 	0.62853 0.45432 0.77267 0.06100
H 	H 	0.62992 0.43528 0.68180 0.04600
C 	C 	0.50685 0.08124 0.80294 -0.01300
H 	H 	0.49786 0.08189 0.74781 0.04400
H 	H 	0.48194 0.10336 0.83484 0.04800
H 	H 	0.74048 0.47718 0.77773 0.06700
H 	H 	0.59132 0.12805 0.86643 0.06600
C 	C 	0.69933 0.55141 0.71041 -0.16700
C 	C 	0.47602 0.00017 0.82439 -0.15700
H 	H 	0.73345 0.56697 0.66345 0.08900
H 	H 	0.66373 0.56571 0.70185 0.09500
H 	H 	0.72834 0.58457 0.75508 0.08400
H 	H 	0.74343 0.45976 0.68766 0.07100
H 	H 	0.49891 0.97586 0.79231 0.07500
H 	H 	0.42212 0.96591 0.81694 0.07800
H 	H 	0.48300 0.99768 0.87980 0.07800
H 	H 	0.60575 0.10794 0.77981 0.06500
C 	C 	0.65811 0.34137 0.33256 -0.08800
C 	C 	0.66865 0.39345 0.28232 0.07200
C 	C 	0.66771 0.37494 0.21198 -0.03300
C 	C 	0.66247 0.30930 0.19072 -0.09500
C 	C 	0.65618 0.25958 0.24037 0.07200
C 	C 	0.65283 0.27541 0.31087 -0.03000
H 	H 	0.67489 0.41404 0.17337 0.04600
H 	H 	0.64700 0.23664 0.34895 0.05700
C 	C 	0.68839 0.47208 0.30199 -0.13200
C 	C 	0.65843 0.19278 0.21911 -0.11900
C 	C 	0.76127 0.52411 0.31921 0.00100
H 	H 	0.77167 0.49835 0.35963 0.03200
H 	H 	0.77050 0.57763 0.34044 0.04300
C 	C 	0.72965 0.21432 0.21729 -0.01200
H 	H 	0.74732 0.22893 0.27039 0.05500
H 	H 	0.76302 0.26422 0.18367 0.06800
H 	H 	0.67997 0.49753 0.25919 0.07300
H 	H 	0.63745 0.17021 0.16812 0.08000
C 	C 	0.80919 0.54228 0.25584 -0.17600
C 	C 	0.73416 0.15005 0.18998 -0.16600
H 	H 	0.79814 0.56560 0.21357 0.08500
H 	H 	0.86065 0.58473 0.27005 0.08800
H 	H 	0.80595 0.49114 0.23706 0.08700
H 	H 	0.65628 0.47063 0.34603 0.10300
H 	H 	0.70178 0.09939 0.22295 0.07900
H 	H 	0.78603 0.16717 0.19069 0.08700
H 	H 	0.71916 0.13615 0.13589 0.08800
H 	H 	0.62680 0.14624 0.25678 0.06900
C 	C 	0.86073 0.72594 0.50041 -0.00300
C 	C 	0.88702 0.69129 0.53043 0.13000
C 	C 	0.84810 0.61344 0.53967 -0.02500
C 	C 	0.78277 0.56965 0.51964 -0.14100
C 	C 	0.75463 0.60513 0.49565 0.19800
C 	C 	0.79399 0.68293 0.48513 -0.10400
H 	H 	0.86896 0.58675 0.56143 0.06600
H 	H 	0.77304 0.70975 0.46384 0.08900
Cl	Cl	0.96859 0.74491 0.55691 -0.30200
Cl	Cl	0.67039 0.55302 0.47844 -0.33000
C 	C 	0.88968 0.16841 0.41800 -0.00400
C 	C 	0.83232 0.13645 0.46306 0.13700
C 	C 	0.79670 0.16873 0.46937 -0.02900
C 	C 	0.81679 0.23190 0.42973 -0.10600
C 	C 	0.87062 0.25938 0.37983 0.19600
C 	C 	0.90751 0.22849 0.37526 -0.09700
H 	H 	0.75384 0.14519 0.50583 0.08300
H 	H 	0.95026 0.25144 0.33866 0.08900
Cl	Cl	0.80387 0.05506 0.51107 -0.31100
Cl	Cl	0.89022 0.32930 0.32018 -0.31400
C 	C 	0.28469 0.18465 0.54671 -0.00400
C 	C 	0.30329 0.14020 0.57291 0.13900
C 	C 	0.36801 0.17384 0.59177 -0.02700
C 	C 	0.41564 0.25105 0.58161 -0.09800
C 	C 	0.39601 0.29624 0.55906 0.19800
C 	C 	0.33049 0.26285 0.54286 -0.09400
H 	H 	0.38251 0.13900 0.60993 0.07700
H 	H 	0.31595 0.29741 0.52408 0.08900
Cl	Cl	0.24767 0.04159 0.57720 -0.30100
Cl	Cl	0.45327 0.39383 0.54668 -0.28900
C 	C 	0.73981 0.49429 0.99591 -0.13700
C 	C 	0.72293 0.53887 0.96620 0.20500
C 	C 	0.76710 0.61709 0.96607 -0.10500
C 	C 	0.82768 0.65173 0.99639 -0.00600
C 	C 	0.84406 0.60738 0.02740 0.13400
C 	C 	0.80034 0.52891 0.02647 -0.02400
H 	H 	0.75432 0.65109 0.94230 0.08800
H 	H 	0.81298 0.49490 0.05049 0.06800
Cl	Cl	0.64654 0.49769 0.92913 -0.33500
Cl	Cl	0.91828 0.64947 0.06909 -0.31200
C 	C 	0.85258 0.10673 0.94676 -0.00400
C 	C 	0.78758 0.06247 0.92486 0.13900
C 	C 	0.75195 0.09419 0.92041 -0.02800
C 	C 	0.77973 0.16931 0.93934 -0.10600
C 	C 	0.84437 0.21328 0.96246 0.19900
C 	C 	0.88077 0.18218 0.96490 -0.09700
H 	H 	0.70177 0.05970 0.90408 0.07200
H 	H 	0.93053 0.21626 0.98234 0.09000
Cl	Cl	0.74882 0.96616 0.90644 -0.31300
Cl	Cl	0.87882 0.30564 0.99294 -0.31100
C 	C 	0.24006 0.11546 0.09288 -0.00600
C 	C 	0.28591 0.19362 0.09944 0.14000
C 	C 	0.35203 0.22320 0.10982 -0.02900
C 	C 	0.37279 0.17514 0.11423 -0.09900
C 	C 	0.32485 0.09680 0.11763 0.19800
C 	C 	0.25900 0.06732 0.10573 -0.09400
H 	H 	0.38771 0.28359 0.11135 0.08800
H 	H 	0.22309 0.00695 0.10402 0.09000
Cl	Cl	0.26132 0.25510 0.09356 -0.30500
Cl	Cl	0.34609 0.03518 0.13848 -0.29700
