data_crystal

_cell_length_a 33.66517
_cell_length_b 34.01074
_cell_length_c 26.60614
_cell_angle_alpha 95.54914
_cell_angle_beta  95.54341
_cell_angle_gamma 125.45533

_symmetry_space_group_name_	'P 1'
_symmetry_space_group_name_H-M	'P 1'

loop_
_symmetry_equiv_pos_as_xyz
  x,y,z

loop_
_atom_site_label
_atom_site_type_symbol
_atom_site_fract_x
_atom_site_fract_y
_atom_site_fract_z
_atom_site_charge
N 	N 	0.03225 0.05579 0.98415 -0.14100
C 	C 	0.05397 0.03247 0.98034 0.11900
N 	N 	0.02621 0.98302 0.97706 -0.14100
C 	C 	0.02155 0.00034 0.43552 0.11800
C 	C 	0.46977 0.22562 0.48857 0.01500
C 	C 	0.41859 0.19947 0.48624 -0.06600
C 	C 	0.38677 0.18421 0.43891 0.02700
C 	C 	0.40655 0.19503 0.39388 -0.06700
C 	C 	0.45776 0.22148 0.39623 0.01400
C 	C 	0.33280 0.15732 0.43659 -0.00100
C 	C 	0.30573 0.11271 0.45427 -0.03700
C 	C 	0.25477 0.08759 0.45268 -0.04100
C 	C 	0.23032 0.10664 0.43302 0.00500
C 	C 	0.25734 0.15109 0.41504 -0.04100
C 	C 	0.30838 0.17641 0.41699 -0.03700
C 	C 	0.17653 0.08019 0.43161 0.01400
C 	C 	0.15888 0.10318 0.45799 -0.04900
C 	C 	0.10812 0.07750 0.45826 -0.01900
C 	C 	0.07458 0.02846 0.43245 -0.02200
C 	C 	0.09218 0.00574 0.40540 -0.02000
C 	C 	0.14288 0.03154 0.40484 -0.04900
H 	H 	0.40371 0.19150 0.52126 0.04700
H 	H 	0.38226 0.18301 0.35710 0.04500
H 	H 	0.47262 0.22972 0.36123 0.02500
H 	H 	0.32418 0.09755 0.46923 0.03800
H 	H 	0.23430 0.05344 0.46690 0.04000
H 	H 	0.23878 0.16599 0.39958 0.03900
H 	H 	0.32899 0.21093 0.40348 0.03800
H 	H 	0.18456 0.14067 0.47890 0.04200
H 	H 	0.09503 0.09535 0.47947 0.03800
H 	H 	0.06660 0.96809 0.38488 0.04000
H 	H 	0.15607 0.01365 0.38388 0.04200
H 	H 	0.02198 0.11927 0.04175 0.03900
C 	C 	0.10751 0.06062 0.98004 -0.02500
C 	C 	0.13583 0.04830 0.00652 -0.01700
C 	C 	0.18585 0.07264 0.00349 -0.04700
C 	C 	0.20809 0.10955 0.97398 0.01200
C 	C 	0.18013 0.12253 0.94818 -0.04900
C 	C 	0.13004 0.09825 0.95129 -0.01900
C 	C 	0.26039 0.13390 0.96948 0.00300
C 	C 	0.29808 0.16284 0.01302 -0.03900
C 	C 	0.34722 0.18211 0.00999 -0.03500
C 	C 	0.35907 0.17253 0.96341 -0.00400
C 	C 	0.32160 0.14476 0.91948 -0.03700
C 	C 	0.27241 0.12551 0.92251 -0.04100
C 	C 	0.41041 0.19033 0.96116 0.02700
C 	C 	0.43253 0.17339 0.99047 -0.06700
C 	C 	0.43821 0.22618 0.93195 -0.06600
H 	H 	0.11900 0.01968 0.02923 0.04000
H 	H 	0.20722 0.06247 0.02361 0.04200
H 	H 	0.19709 0.15115 0.92548 0.04200
H 	H 	0.10854 0.10796 0.93052 0.03900
H 	H 	0.28915 0.16972 0.04936 0.04000
H 	H 	0.37602 0.20397 0.04396 0.03900
H 	H 	0.33045 0.13733 0.88332 0.03900
H 	H 	0.24352 0.10316 0.88871 0.04000
H 	H 	0.41111 0.14521 0.01259 0.05000
H 	H 	0.42127 0.23910 0.90877 0.04600
C 	C 	0.48269 0.19380 0.99256 0.01100
C 	C 	0.48840 0.24659 0.93389 0.01100
C 	C 	0.98287 0.02969 0.98476 0.11800
C 	C 	0.97685 0.95675 0.97741 0.12000
N 	N 	0.95523 0.98016 0.98130 -0.14200
C 	C 	0.94948 0.99646 0.43684 0.11800
N 	N 	0.99797 0.02181 0.43230 -0.14100
N 	N 	0.99652 0.95330 0.44303 -0.14100
C 	C 	0.94812 0.92772 0.44776 0.11800
N 	N 	0.92458 0.94934 0.44465 -0.14100
Cu	Cu	0.65887 0.26884 0.99733 0.92800
Cu	Cu	0.70017 0.26891 0.89052 0.87000
Cu	Cu	0.68718 0.34507 0.92871 0.89600
Cu	Cu	0.65614 0.35870 0.02705 0.89400
C 	C 	0.67024 0.30684 0.10337 0.28300
O 	O 	0.58588 0.23837 0.99396 -0.36100
C 	C 	0.67306 0.30924 0.81750 0.28500
O 	O 	0.69751 0.34489 0.00070 -0.64000
O 	O 	0.65370 0.27295 0.92355 -0.64100
O 	O 	0.69082 0.23459 0.99757 -0.37300
O 	O 	0.74619 0.28430 0.94989 -0.44200
O 	O 	0.64751 0.32597 0.08781 -0.38100
O 	O 	0.72330 0.41565 0.93889 -0.38300
C 	C 	0.71784 0.44230 0.97307 0.28800
C 	C 	0.56565 0.25794 0.97342 0.28300
O 	O 	0.59418 0.30351 0.96644 -0.39200
O 	O 	0.68357 0.42178 0.00202 -0.39200
O 	O 	0.67392 0.27774 0.07067 -0.35400
C 	C 	0.73313 0.25344 0.98174 0.29000
O 	O 	0.68876 0.34660 0.85482 -0.38600
O 	O 	0.66972 0.27021 0.82708 -0.41400
H 	H 	0.73273 0.36669 0.01831 0.16400
H 	H 	0.61953 0.25233 0.90312 0.17600
Cu	Cu	0.72195 0.33146 0.42712 0.92800
Cu	Cu	0.72014 0.28818 0.53254 0.87000
Cu	Cu	0.64241 0.29954 0.49338 0.89700
Cu	Cu	0.62956 0.33150 0.39555 0.89400
C 	C 	0.68535 0.32158 0.32086 0.28300
O 	O 	0.75116 0.40371 0.43222 -0.35800
C 	C 	0.67692 0.31237 0.60475 0.28500
O 	O 	0.64462 0.29125 0.42168 -0.64000
O 	O 	0.71571 0.33436 0.50034 -0.64100
O 	O 	0.75762 0.30072 0.42712 -0.37100
O 	O 	0.70625 0.24401 0.47260 -0.44200
O 	O 	0.66481 0.34286 0.33624 -0.38100
O 	O 	0.57081 0.26219 0.48154 -0.38300
C 	C 	0.54377 0.26648 0.44621 0.28900
C 	C 	0.72950 0.42203 0.45198 0.28200
O 	O 	0.68318 0.39225 0.45769 -0.39100
O 	O 	0.56444 0.30139 0.41839 -0.39400
O 	O 	0.71500 0.31848 0.35384 -0.35500
C 	C 	0.73825 0.25818 0.44160 0.28900
O 	O 	0.63943 0.29629 0.56686 -0.38600
O 	O 	0.71696 0.31652 0.59601 -0.41400
H 	H 	0.62362 0.25663 0.40338 0.16300
H 	H 	0.73557 0.36783 0.52152 0.17600
C 	C 	0.66783 0.31506 0.76353 -0.07000
C 	C 	0.70685 0.35699 0.74816 -0.01500
C 	C 	0.70820 0.35831 0.69585 0.00100
C 	C 	0.67023 0.31724 0.65842 -0.07000
C 	C 	0.62862 0.27763 0.67373 -0.01500
C 	C 	0.62718 0.27638 0.72605 0.00100
H 	H 	0.73731 0.38764 0.77691 0.04100
H 	H 	0.59844 0.24674 0.64497 0.04100
C 	C 	0.58389 0.23539 0.74097 0.07200
C 	C 	0.74866 0.40188 0.68087 0.07100
N 	N 	0.54921 0.20256 0.75293 -0.12100
N 	N 	0.78106 0.43677 0.66886 -0.12100
C 	C 	0.67877 0.30676 0.15861 -0.06300
C 	C 	0.71974 0.34935 0.19131 -0.01600
C 	C 	0.72396 0.35345 0.24478 0.00500
C 	C 	0.68678 0.31452 0.26585 -0.06300
C 	C 	0.64738 0.27081 0.23320 -0.01600
C 	C 	0.64310 0.26674 0.17971 0.00500
H 	H 	0.74747 0.37995 0.17511 0.03100
H 	H 	0.61904 0.24067 0.24940 0.03200
C 	C 	0.60097 0.22214 0.14675 0.08200
C 	C 	0.76566 0.39833 0.27778 0.08100
N 	N 	0.56723 0.18645 0.12031 -0.11500
N 	N 	0.79902 0.43426 0.30425 -0.11500
C 	C 	0.92151 0.87676 0.45674 -0.02200
C 	C 	0.87131 0.84117 0.43402 -0.02000
C 	C 	0.84775 0.79193 0.43832 -0.04900
C 	C 	0.87418 0.77783 0.46525 0.01400
C 	C 	0.92381 0.81365 0.48939 -0.04900
C 	C 	0.94728 0.86284 0.48537 -0.01900
C 	C 	0.85086 0.72533 0.46583 0.00500
C 	C 	0.84883 0.70915 0.51277 -0.04000
C 	C 	0.83055 0.66033 0.51335 -0.03700
C 	C 	0.81378 0.62715 0.46698 -0.00000
C 	C 	0.81478 0.64306 0.42004 -0.03700
C 	C 	0.83341 0.69194 0.41947 -0.04000
C 	C 	0.79517 0.57573 0.46750 0.02600
C 	C 	0.75429 0.54549 0.49050 -0.06500
C 	C 	0.73437 0.49587 0.48766 0.01000
C 	C 	0.75478 0.47578 0.46123 -0.08500
C 	C 	0.79702 0.50664 0.44006 0.01200
C 	C 	0.81710 0.55634 0.44326 -0.06400
H 	H 	0.85095 0.85135 0.41189 0.03900
H 	H 	0.80926 0.76463 0.41997 0.04200
H 	H 	0.94453 0.80321 0.51035 0.04200
H 	H 	0.98574 0.89002 0.50386 0.04100
H 	H 	0.86199 0.73455 0.54877 0.04000
H 	H 	0.82986 0.64842 0.54978 0.03900
H 	H 	0.80141 0.61762 0.38403 0.03900
H 	H 	0.83503 0.70407 0.38304 0.04000
H 	H 	0.73731 0.56018 0.50963 0.04600
H 	H 	0.70244 0.47287 0.50509 0.03400
H 	H 	0.81352 0.49195 0.41994 0.04400
H 	H 	0.84918 0.57958 0.42611 0.04800
C 	C 	0.75609 0.22871 0.42758 -0.09500
C 	C 	0.80682 0.25185 0.42792 0.01400
C 	C 	0.82489 0.22384 0.42278 -0.06800
C 	C 	0.79232 0.17243 0.41677 0.02700
C 	C 	0.74125 0.14918 0.41362 -0.06900
C 	C 	0.72325 0.17718 0.41918 0.01500
C 	C 	0.81203 0.14328 0.41720 -0.00200
C 	C 	0.84056 0.14539 0.38093 -0.03700
C 	C 	0.86111 0.11958 0.38296 -0.04100
C 	C 	0.85304 0.09124 0.42107 0.00500
C 	C 	0.82375 0.08833 0.45669 -0.04100
C 	C 	0.80345 0.11435 0.45488 -0.03700
C 	C 	0.87747 0.06679 0.42540 0.01400
C 	C 	0.92855 0.09469 0.44476 -0.04900
C 	C 	0.95184 0.07168 0.44926 -0.01900
C 	C 	0.92428 0.02042 0.43407 -0.02200
C 	C 	0.87296 0.99246 0.41500 -0.01900
C 	C 	0.84967 0.01558 0.41080 -0.05000
H 	H 	0.83254 0.29156 0.43430 0.03100
H 	H 	0.86436 0.24218 0.42509 0.04600
H 	H 	0.71568 0.10949 0.40808 0.04500
H 	H 	0.68392 0.15886 0.41807 0.02800
H 	H 	0.84712 0.16729 0.35146 0.03900
H 	H 	0.88364 0.12196 0.35525 0.04000
H 	H 	0.81747 0.06665 0.48632 0.03900
H 	H 	0.78170 0.11264 0.48323 0.03600
H 	H 	0.95018 0.13422 0.45651 0.04200
H 	H 	0.99127 0.09370 0.46470 0.04000
H 	H 	0.85124 0.95299 0.40278 0.03900
H 	H 	0.81015 0.99375 0.39591 0.04200
C 	C 	0.48966 0.23707 0.44361 -0.08700
H 	H 	0.49400 0.23775 0.52542 0.03800
C 	C 	0.74521 0.49536 0.97345 -0.08900
C 	C 	0.75840 0.52784 0.01932 0.01600
C 	C 	0.78284 0.57794 0.01943 -0.06400
C 	C 	0.79423 0.59601 0.97370 0.02400
C 	C 	0.78144 0.56371 0.92792 -0.06600
C 	C 	0.75711 0.51361 0.92776 0.01500
C 	C 	0.81959 0.64873 0.97378 0.00000
C 	C 	0.79445 0.66473 0.94824 -0.03800
C 	C 	0.81864 0.71478 0.94810 -0.04000
C 	C 	0.86815 0.74911 0.97338 0.00400
C 	C 	0.89320 0.73311 0.99911 -0.04200
C 	C 	0.86899 0.68311 0.99934 -0.04000
C 	C 	0.89409 0.80169 0.97214 0.01700
C 	C 	0.88091 0.82862 0.99939 -0.05700
C 	C 	0.90724 0.87909 0.00032 -0.01100
C 	C 	0.94697 0.90301 0.97390 -0.02700
C 	C 	0.95929 0.87567 0.94563 -0.01700
C 	C 	0.93303 0.82529 0.94487 -0.05200
H 	H 	0.74979 0.51429 0.05488 0.02600
H 	H 	0.79270 0.60268 0.05497 0.04600
H 	H 	0.79028 0.57744 0.89247 0.04700
H 	H 	0.74685 0.48893 0.89203 0.03800
H 	H 	0.75624 0.63841 0.92856 0.03900
H 	H 	0.79906 0.72684 0.92810 0.03900
H 	H 	0.93141 0.75943 0.01881 0.04200
H 	H 	0.88866 0.67104 0.01914 0.04100
H 	H 	0.85082 0.81061 0.02051 0.04600
H 	H 	0.89744 0.89971 0.02244 0.03900
H 	H 	0.98932 0.89348 0.92440 0.04000
H 	H 	0.94313 0.80463 0.92336 0.04300
C 	C 	0.76317 0.23583 0.99489 -0.10000
C 	C 	0.74044 0.18830 0.00559 0.01900
C 	C 	0.76748 0.16913 0.01087 -0.07000
C 	C 	0.81746 0.19731 0.00567 0.03000
C 	C 	0.84088 0.24568 0.99776 -0.07300
C 	C 	0.81392 0.26491 0.99248 0.01500
C 	C 	0.84396 0.17487 0.00419 0.00100
C 	C 	0.85383 0.15971 0.04791 -0.03800
C 	C 	0.87741 0.13682 0.04578 -0.03700
C 	C 	0.89113 0.12882 0.99987 0.00100
C 	C 	0.88171 0.14444 0.95635 -0.04000
C 	C 	0.85823 0.16736 0.95849 -0.04100
C 	C 	0.91426 0.10306 0.99695 0.01200
C 	C 	0.88858 0.05638 0.96589 -0.04900
C 	C 	0.91095 0.03242 0.96193 -0.02000
C 	C 	0.95928 0.05498 0.98899 -0.02500
C 	C 	0.98487 0.10166 0.02028 -0.01600
C 	C 	0.96240 0.12555 0.02427 -0.04800
H 	H 	0.70143 0.16554 0.00790 0.03500
H 	H 	0.74917 0.13182 0.01727 0.04700
H 	H 	0.87966 0.26795 0.99443 0.04500
H 	H 	0.83221 0.30200 0.98539 0.02700
H 	H 	0.84303 0.16545 0.08338 0.04000
H 	H 	0.88453 0.12485 0.07957 0.04000
H 	H 	0.89234 0.13855 0.92081 0.03800
H 	H 	0.85061 0.17881 0.92451 0.03600
H 	H 	0.85136 0.03875 0.94469 0.04100
H 	H 	0.89091 0.99657 0.93743 0.04000
H 	H 	0.98250 0.16163 0.04830 0.04200
C 	C 	0.51130 0.23147 0.96534 -0.08700
H 	H 	0.49964 0.18147 0.01671 0.04600
H 	H 	0.50971 0.27486 0.91184 0.03300
