data_crystal

_cell_length_a 28.60964
_cell_length_b 25.90806
_cell_length_c 29.06305
_cell_angle_alpha 89.31415
_cell_angle_beta  92.56672
_cell_angle_gamma 100.80946

_symmetry_space_group_name_	'P 1'
_symmetry_space_group_name_H-M	'P 1'

loop_
_symmetry_equiv_pos_as_xyz
  x,y,z

loop_
_atom_site_label
_atom_site_type_symbol
_atom_site_fract_x
_atom_site_fract_y
_atom_site_fract_z
_atom_site_charge
Ni	Ni	0.96421 0.00836 0.03788 1.09900
O 	O 	0.03553 0.01210 0.02944 -0.69700
Ni	Ni	0.03578 0.99148 0.96209 1.09800
O 	O 	0.97177 0.01932 0.10841 -0.36200
O 	O 	0.01378 0.95374 0.11943 -0.40800
O 	O 	0.97121 0.08963 0.03502 -0.36600
Ni	Ni	0.05939 0.95724 0.06581 1.06600
O 	O 	0.89188 0.05767 0.97863 -0.40800
O 	O 	0.00647 0.90124 0.03880 -0.42200
O 	O 	0.10762 0.99679 0.95906 -0.37300
O 	O 	0.96448 0.98773 0.97051 -0.69700
O 	O 	0.89240 0.00308 0.04065 -0.37300
O 	O 	0.02814 0.98059 0.89154 -0.36200
O 	O 	0.98648 0.04651 0.88048 -0.40800
Ni	Ni	0.94093 0.04289 0.93413 1.06700
H 	H 	0.05488 0.04742 0.03551 0.15600
H 	H 	0.94508 0.95245 0.96436 0.15700
C 	C 	0.01034 0.88054 0.99907 0.31100
O 	O 	0.99360 0.09856 0.96117 -0.42300
C 	C 	0.99854 0.99425 0.13512 0.29500
C 	C 	0.13093 0.97823 0.99356 0.29400
C 	C 	0.98961 0.11928 0.00086 0.31100
C 	C 	0.00170 0.00599 0.86475 0.29600
C 	C 	0.86913 0.02170 0.00615 0.29400
O 	O 	0.02865 0.91019 0.96489 -0.36600
O 	O 	0.10820 0.94232 0.02113 -0.40800
Ni	Ni	0.96421 0.00836 0.53788 1.09800
O 	O 	0.03553 0.01210 0.52944 -0.69700
Ni	Ni	0.03578 0.99148 0.46209 1.09800
O 	O 	0.97177 0.01932 0.60841 -0.36200
O 	O 	0.01378 0.95374 0.61943 -0.40900
O 	O 	0.97121 0.08963 0.53502 -0.36600
Ni	Ni	0.05939 0.95723 0.56581 1.06600
O 	O 	0.89188 0.05767 0.47863 -0.40900
O 	O 	0.00647 0.90124 0.53880 -0.42300
O 	O 	0.10762 0.99679 0.45906 -0.37300
O 	O 	0.96448 0.98773 0.47051 -0.69700
O 	O 	0.89240 0.00308 0.54065 -0.37300
O 	O 	0.02814 0.98059 0.39154 -0.36200
O 	O 	0.98648 0.04651 0.38048 -0.40900
Ni	Ni	0.94093 0.04289 0.43413 1.06700
H 	H 	0.05488 0.04742 0.53551 0.15600
H 	H 	0.94508 0.95245 0.46436 0.15600
C 	C 	0.01034 0.88054 0.49907 0.31200
O 	O 	0.99360 0.09856 0.46117 -0.42500
C 	C 	0.99854 0.99425 0.63512 0.29700
C 	C 	0.13093 0.97823 0.49356 0.29500
C 	C 	0.98961 0.11928 0.50086 0.31200
C 	C 	0.00170 0.00599 0.36475 0.29700
C 	C 	0.86913 0.02170 0.50614 0.29500
O 	O 	0.02865 0.91019 0.46489 -0.36500
O 	O 	0.10820 0.94232 0.52114 -0.40900
Ni	Ni	0.96421 0.50836 0.03788 1.09800
O 	O 	0.03553 0.51210 0.02944 -0.69800
Ni	Ni	0.03578 0.49148 0.96209 1.09800
O 	O 	0.97177 0.51932 0.10841 -0.36100
O 	O 	0.01378 0.45374 0.11943 -0.40700
O 	O 	0.97121 0.58963 0.03502 -0.36600
Ni	Ni	0.05939 0.45724 0.06581 1.06700
O 	O 	0.89188 0.55767 0.97863 -0.40800
O 	O 	0.00647 0.40124 0.03880 -0.42100
O 	O 	0.10762 0.49679 0.95906 -0.37300
O 	O 	0.96448 0.48773 0.97051 -0.69700
O 	O 	0.89240 0.50308 0.04065 -0.37300
O 	O 	0.02814 0.48059 0.89154 -0.36100
O 	O 	0.98648 0.54651 0.88048 -0.40700
Ni	Ni	0.94094 0.54289 0.93413 1.06700
H 	H 	0.05488 0.54742 0.03551 0.15600
H 	H 	0.94508 0.45245 0.96436 0.15700
C 	C 	0.01034 0.38054 0.99907 0.31100
O 	O 	0.99360 0.59856 0.96117 -0.42300
C 	C 	0.99854 0.49425 0.13512 0.29400
C 	C 	0.13093 0.47823 0.99356 0.29400
C 	C 	0.98961 0.61928 0.00086 0.31100
C 	C 	0.00170 0.50599 0.86475 0.29400
C 	C 	0.86913 0.52170 0.00615 0.29400
O 	O 	0.02865 0.41019 0.96489 -0.36500
O 	O 	0.10820 0.44232 0.02113 -0.40800
Ni	Ni	0.96421 0.50836 0.53788 1.09800
O 	O 	0.03553 0.51210 0.52944 -0.69800
Ni	Ni	0.03578 0.49148 0.46209 1.09800
O 	O 	0.97177 0.51932 0.60841 -0.36100
O 	O 	0.01378 0.45374 0.61943 -0.40800
O 	O 	0.97121 0.58963 0.53502 -0.36600
Ni	Ni	0.05939 0.45724 0.56581 1.06600
O 	O 	0.89188 0.55767 0.47863 -0.40900
O 	O 	0.00647 0.40124 0.53880 -0.42300
O 	O 	0.10762 0.49679 0.45906 -0.37300
O 	O 	0.96448 0.48773 0.47051 -0.69800
O 	O 	0.89240 0.50308 0.54065 -0.37300
O 	O 	0.02814 0.48059 0.39154 -0.36100
O 	O 	0.98648 0.54651 0.38048 -0.40800
Ni	Ni	0.94094 0.54289 0.43413 1.06700
H 	H 	0.05488 0.54742 0.53551 0.15600
H 	H 	0.94508 0.45245 0.46436 0.15600
C 	C 	0.01034 0.38054 0.49907 0.31200
O 	O 	0.99360 0.59856 0.46117 -0.42400
C 	C 	0.99854 0.49425 0.63512 0.29600
C 	C 	0.13093 0.47823 0.49356 0.29500
C 	C 	0.98961 0.61928 0.50086 0.31300
C 	C 	0.00170 0.50599 0.36475 0.29600
C 	C 	0.86913 0.52170 0.50614 0.29600
O 	O 	0.02865 0.41019 0.46489 -0.36500
O 	O 	0.10820 0.44232 0.52114 -0.40900
Ni	Ni	0.46421 0.00836 0.03788 1.09800
O 	O 	0.53553 0.01210 0.02944 -0.69800
Ni	Ni	0.53578 0.99148 0.96209 1.09800
O 	O 	0.47177 0.01932 0.10841 -0.36100
O 	O 	0.51378 0.95374 0.11943 -0.40800
O 	O 	0.47121 0.08963 0.03502 -0.36500
Ni	Ni	0.55939 0.95723 0.06581 1.06700
O 	O 	0.39188 0.05767 0.97863 -0.40900
O 	O 	0.50647 0.90124 0.03880 -0.42300
O 	O 	0.60762 0.99679 0.95906 -0.37300
O 	O 	0.46448 0.98773 0.97051 -0.69800
O 	O 	0.39240 0.00308 0.04065 -0.37300
O 	O 	0.52814 0.98059 0.89154 -0.36100
O 	O 	0.48648 0.04651 0.88048 -0.40800
Ni	Ni	0.44094 0.04289 0.93413 1.06700
H 	H 	0.55488 0.04742 0.03551 0.15600
H 	H 	0.44508 0.95245 0.96436 0.15600
C 	C 	0.51034 0.88054 0.99907 0.31200
O 	O 	0.49360 0.09856 0.96117 -0.42400
C 	C 	0.49854 0.99425 0.13512 0.29500
C 	C 	0.63093 0.97823 0.99356 0.29600
C 	C 	0.48961 0.11928 0.00086 0.31200
C 	C 	0.50170 0.00599 0.86475 0.29500
C 	C 	0.36913 0.02170 0.00615 0.29600
O 	O 	0.52865 0.91019 0.96489 -0.36500
O 	O 	0.60820 0.94232 0.02113 -0.41000
Ni	Ni	0.46421 0.00836 0.53788 1.09800
O 	O 	0.53553 0.01210 0.52944 -0.69800
Ni	Ni	0.53578 0.99148 0.46209 1.09800
O 	O 	0.47177 0.01932 0.60841 -0.36100
O 	O 	0.51378 0.95374 0.61943 -0.40800
O 	O 	0.47121 0.08963 0.53502 -0.36600
Ni	Ni	0.55939 0.95723 0.56581 1.06700
O 	O 	0.39188 0.05767 0.47863 -0.40900
O 	O 	0.50647 0.90124 0.53880 -0.42300
O 	O 	0.60762 0.99679 0.45906 -0.37300
O 	O 	0.46448 0.98773 0.47051 -0.69800
O 	O 	0.39240 0.00308 0.54065 -0.37300
O 	O 	0.52814 0.98059 0.39154 -0.36100
O 	O 	0.48648 0.04651 0.38048 -0.40800
Ni	Ni	0.44094 0.04289 0.43413 1.06700
H 	H 	0.55488 0.04742 0.53551 0.15600
H 	H 	0.44508 0.95245 0.46436 0.15600
C 	C 	0.51034 0.88054 0.49907 0.31200
O 	O 	0.49360 0.09856 0.46117 -0.42400
C 	C 	0.49854 0.99425 0.63512 0.29500
C 	C 	0.63093 0.97823 0.49356 0.29600
C 	C 	0.48961 0.11928 0.50086 0.31200
C 	C 	0.50170 0.00599 0.36475 0.29500
C 	C 	0.36913 0.02170 0.50614 0.29600
O 	O 	0.52865 0.91019 0.46489 -0.36500
O 	O 	0.60820 0.94232 0.52114 -0.40900
Ni	Ni	0.46421 0.50836 0.03788 1.09800
O 	O 	0.53553 0.51210 0.02944 -0.69800
Ni	Ni	0.53578 0.49148 0.96209 1.09800
O 	O 	0.47177 0.51932 0.10841 -0.36100
O 	O 	0.51378 0.45374 0.11943 -0.40800
O 	O 	0.47121 0.58963 0.03502 -0.36600
Ni	Ni	0.55939 0.45724 0.06581 1.06600
O 	O 	0.39188 0.55767 0.97863 -0.40900
O 	O 	0.50647 0.40124 0.03880 -0.42300
O 	O 	0.60762 0.49679 0.95906 -0.37300
O 	O 	0.46448 0.48773 0.97051 -0.69800
O 	O 	0.39240 0.50308 0.04065 -0.37300
O 	O 	0.52814 0.48059 0.89154 -0.36100
O 	O 	0.48648 0.54651 0.88048 -0.40800
Ni	Ni	0.44094 0.54289 0.93413 1.06700
H 	H 	0.55488 0.54742 0.03551 0.15600
H 	H 	0.44508 0.45245 0.96436 0.15600
C 	C 	0.51034 0.38054 0.99907 0.31200
O 	O 	0.49360 0.59856 0.96117 -0.42400
C 	C 	0.49854 0.49425 0.13512 0.29500
C 	C 	0.63093 0.47823 0.99356 0.29600
C 	C 	0.48961 0.61928 0.00086 0.31300
C 	C 	0.50170 0.50599 0.86475 0.29500
C 	C 	0.36913 0.52170 0.00615 0.29600
O 	O 	0.52865 0.41019 0.96489 -0.36500
O 	O 	0.60820 0.44232 0.02113 -0.41000
Ni	Ni	0.46421 0.50836 0.53788 1.09800
O 	O 	0.53553 0.51210 0.52944 -0.69800
Ni	Ni	0.53578 0.49148 0.46209 1.09800
O 	O 	0.47177 0.51932 0.60841 -0.36100
O 	O 	0.51378 0.45374 0.61943 -0.40800
O 	O 	0.47121 0.58963 0.53502 -0.36600
Ni	Ni	0.55939 0.45724 0.56581 1.06600
O 	O 	0.39188 0.55767 0.47863 -0.40900
O 	O 	0.50647 0.40124 0.53880 -0.42300
O 	O 	0.60762 0.49679 0.45906 -0.37300
O 	O 	0.46448 0.48773 0.47051 -0.69800
O 	O 	0.39240 0.50308 0.54065 -0.37300
O 	O 	0.52814 0.48059 0.39154 -0.36100
O 	O 	0.48648 0.54651 0.38048 -0.40800
Ni	Ni	0.44094 0.54289 0.43413 1.06700
H 	H 	0.55488 0.54742 0.53551 0.15600
H 	H 	0.44508 0.45245 0.46436 0.15600
C 	C 	0.51034 0.38054 0.49907 0.31200
O 	O 	0.49360 0.59856 0.46117 -0.42400
C 	C 	0.49854 0.49425 0.63512 0.29500
C 	C 	0.63093 0.47823 0.49356 0.29500
C 	C 	0.48961 0.61928 0.50086 0.31200
C 	C 	0.50170 0.50599 0.36475 0.29500
C 	C 	0.36913 0.52170 0.50614 0.29600
O 	O 	0.52865 0.41019 0.46489 -0.36500
O 	O 	0.60820 0.44232 0.52114 -0.40900
C 	C 	0.50223 0.50076 0.81573 -0.09300
C 	C 	0.50115 0.49991 0.77424 0.03400
C 	C 	0.49923 0.50042 0.72563 0.03400
C 	C 	0.49811 0.49955 0.68414 -0.09300
C 	C 	0.49811 0.49955 0.18414 -0.09300
C 	C 	0.49923 0.50042 0.22563 0.03400
C 	C 	0.50115 0.49991 0.27424 0.03400
C 	C 	0.50223 0.50076 0.31573 -0.09300
C 	C 	0.49441 0.67530 0.50322 -0.09600
C 	C 	0.49796 0.72238 0.50163 0.03800
C 	C 	0.50192 0.77743 0.49826 0.03800
C 	C 	0.50549 0.82452 0.49668 -0.09600
C 	C 	0.50549 0.32452 0.49668 -0.09600
C 	C 	0.50192 0.27743 0.49826 0.03800
C 	C 	0.49796 0.22238 0.50163 0.03800
C 	C 	0.49441 0.17530 0.50322 -0.09600
C 	C 	0.50549 0.82452 0.99668 -0.09600
C 	C 	0.50192 0.77743 0.99826 0.03800
C 	C 	0.49796 0.72238 0.00163 0.03800
C 	C 	0.49441 0.67530 0.00322 -0.09600
C 	C 	0.50549 0.32452 0.99668 -0.09600
C 	C 	0.50192 0.27743 0.99826 0.03800
C 	C 	0.49796 0.22238 0.00163 0.03800
C 	C 	0.49441 0.17530 0.00322 -0.09600
C 	C 	0.50223 0.00076 0.81573 -0.09300
C 	C 	0.50115 0.99991 0.77424 0.03400
C 	C 	0.49923 0.00042 0.72563 0.03400
C 	C 	0.49811 0.99955 0.68414 -0.09300
C 	C 	0.50223 0.00076 0.31573 -0.09300
C 	C 	0.50115 0.99991 0.27424 0.03400
C 	C 	0.49923 0.00042 0.22563 0.03400
C 	C 	0.49811 0.99955 0.18414 -0.09300
C 	C 	0.81805 0.51201 0.50458 -0.10000
C 	C 	0.77514 0.50434 0.50177 0.03200
C 	C 	0.72492 0.49557 0.49786 0.03200
C 	C 	0.68202 0.48791 0.49508 -0.10100
C 	C 	0.18202 0.48791 0.49508 -0.10100
C 	C 	0.22492 0.49557 0.49786 0.03200
C 	C 	0.27514 0.50434 0.50177 0.03200
C 	C 	0.31805 0.51201 0.50458 -0.10000
C 	C 	0.81805 0.51201 0.00458 -0.10000
C 	C 	0.77514 0.50434 0.00177 0.03100
C 	C 	0.72492 0.49557 0.99786 0.03300
C 	C 	0.68202 0.48791 0.99508 -0.10100
C 	C 	0.18202 0.48791 0.99508 -0.10000
C 	C 	0.22492 0.49557 0.99786 0.03100
C 	C 	0.27514 0.50434 0.00177 0.03300
C 	C 	0.31805 0.51201 0.00458 -0.10100
C 	C 	0.00223 0.50076 0.81573 -0.09300
C 	C 	0.00115 0.49991 0.77424 0.03300
C 	C 	0.99923 0.50042 0.72563 0.03500
C 	C 	0.99811 0.49955 0.68414 -0.09400
C 	C 	0.99811 0.49955 0.18414 -0.09300
C 	C 	0.99923 0.50042 0.22563 0.03300
C 	C 	0.00115 0.49991 0.27424 0.03500
C 	C 	0.00223 0.50076 0.31573 -0.09400
C 	C 	0.00549 0.82452 0.49668 -0.09600
C 	C 	0.00192 0.77743 0.49826 0.03700
C 	C 	0.99796 0.72238 0.50163 0.03900
C 	C 	0.99441 0.67530 0.50322 -0.09700
C 	C 	0.00549 0.32452 0.49668 -0.09600
C 	C 	0.00192 0.27743 0.49826 0.03800
C 	C 	0.99796 0.22238 0.50163 0.03700
C 	C 	0.99441 0.17530 0.50322 -0.09600
C 	C 	0.81805 0.01201 0.50458 -0.10000
C 	C 	0.77514 0.00434 0.50177 0.03200
C 	C 	0.72492 0.99557 0.49786 0.03300
C 	C 	0.68202 0.98791 0.49508 -0.10100
C 	C 	0.18202 0.98791 0.49508 -0.10000
C 	C 	0.22492 0.99557 0.49786 0.03200
C 	C 	0.27514 0.00434 0.50177 0.03300
C 	C 	0.31805 0.01201 0.50458 -0.10100
C 	C 	0.99441 0.67530 0.00322 -0.09700
C 	C 	0.99796 0.72238 0.00163 0.03800
C 	C 	0.00192 0.77743 0.99826 0.03700
C 	C 	0.00549 0.82452 0.99668 -0.09600
C 	C 	0.99441 0.17530 0.00322 -0.09600
C 	C 	0.99796 0.22238 0.00163 0.03700
C 	C 	0.00192 0.27743 0.99826 0.03800
C 	C 	0.00549 0.32452 0.99668 -0.09600
C 	C 	0.81805 0.01201 0.00458 -0.10000
C 	C 	0.77514 0.00434 0.00177 0.03100
C 	C 	0.72492 0.99557 0.99786 0.03400
C 	C 	0.68202 0.98791 0.99508 -0.10100
C 	C 	0.31805 0.01201 0.00458 -0.10100
C 	C 	0.27514 0.00434 0.00177 0.03400
C 	C 	0.22492 0.99557 0.99786 0.03100
C 	C 	0.18202 0.98791 0.99508 -0.10000
C 	C 	0.99811 0.99955 0.68414 -0.09300
C 	C 	0.99923 0.00042 0.72563 0.03500
C 	C 	0.00115 0.99991 0.77424 0.03200
C 	C 	0.00223 0.00076 0.81573 -0.09200
C 	C 	0.00223 0.00076 0.31573 -0.09300
C 	C 	0.00115 0.99991 0.27424 0.03400
C 	C 	0.99923 0.00042 0.22563 0.03200
C 	C 	0.99811 0.99955 0.18414 -0.09200
