data_crystal

_cell_length_a 30.68263
_cell_length_b 31.04125
_cell_length_c 34.98157
_cell_angle_alpha 95.52667
_cell_angle_beta  95.52493
_cell_angle_gamma 125.52589

_symmetry_space_group_name_	'P 1'
_symmetry_space_group_name_H-M	'P 1'

loop_
_symmetry_equiv_pos_as_xyz
  x,y,z

loop_
_atom_site_label
_atom_site_type_symbol
_atom_site_fract_x
_atom_site_fract_y
_atom_site_fract_z
_atom_site_charge
N 	N 	0.01832 0.03773 0.45732 -0.13700
N 	N 	0.01835 0.96407 0.46752 -0.13500
H 	H 	0.00132 0.12042 0.02744 0.04700
N 	N 	0.00689 0.97030 0.98198 -0.13500
N 	N 	0.01061 0.04834 0.98503 -0.13600
C 	C 	0.04546 0.01582 0.46238 0.13000
C 	C 	0.03521 0.02369 0.98150 0.12900
H 	H 	0.99221 0.89104 0.01892 0.04200
C 	C 	0.95748 0.01945 0.98896 0.11000
N 	N 	0.92921 0.96593 0.98947 -0.13700
C 	C 	0.95388 0.94129 0.98600 0.11600
C 	C 	0.96397 0.00780 0.45729 0.12400
N 	N 	0.93671 0.95583 0.46231 -0.13700
C 	C 	0.96398 0.93391 0.46749 0.11600
Cu	Cu	0.63208 0.25026 0.99606 0.92900
Cu	Cu	0.67533 0.25364 0.91360 0.87000
Cu	Cu	0.65991 0.33470 0.94546 0.89800
Cu	Cu	0.63441 0.35080 0.02333 0.89400
C 	C 	0.64821 0.28930 0.07794 0.29000
O 	O 	0.55309 0.21976 0.99631 -0.36000
C 	C 	0.64904 0.30318 0.86066 0.28600
O 	O 	0.67668 0.33409 0.99959 -0.63900
O 	O 	0.62396 0.25574 0.94034 -0.64100
O 	O 	0.66424 0.21017 0.99274 -0.37200
O 	O 	0.72552 0.26634 0.95743 -0.44100
O 	O 	0.62485 0.31249 0.06815 -0.38100
O 	O 	0.70005 0.41220 0.95307 -0.37800
C 	C 	0.69968 0.44262 0.98195 0.31200
C 	C 	0.53189 0.24281 0.98206 0.28400
O 	O 	0.56407 0.29322 0.97781 -0.39100
O 	O 	0.66628 0.42174 0.00698 -0.39500
O 	O 	0.65169 0.25870 0.05137 -0.35900
C 	C 	0.71025 0.23073 0.98020 0.31100
O 	O 	0.64829 0.33412 0.88902 -0.37200
O 	O 	0.64340 0.25894 0.86634 -0.41500
H 	H 	0.71605 0.35729 0.01117 0.16400
H 	H 	0.58616 0.23294 0.92527 0.17600
Cu	Cu	0.74537 0.34406 0.44857 0.92800
Cu	Cu	0.74552 0.29901 0.52975 0.87200
Cu	Cu	0.65902 0.31010 0.49974 0.89800
Cu	Cu	0.64469 0.34528 0.42549 0.89500
C 	C 	0.70491 0.33350 0.36780 0.28900
O 	O 	0.77821 0.42339 0.45170 -0.35800
C 	C 	0.69735 0.32433 0.58444 0.29000
O 	O 	0.66070 0.30077 0.44516 -0.64100
O 	O 	0.73950 0.34839 0.50447 -0.64100
O 	O 	0.78387 0.30969 0.44842 -0.37000
O 	O 	0.72879 0.24926 0.48462 -0.44000
O 	O 	0.68213 0.35655 0.37969 -0.37900
O 	O 	0.58047 0.26951 0.49100 -0.37800
C 	C 	0.55117 0.27652 0.46571 0.29100
C 	C 	0.75527 0.44410 0.46699 0.30200
O 	O 	0.70479 0.41221 0.47210 -0.38900
O 	O 	0.57418 0.31425 0.44410 -0.39100
O 	O 	0.73644 0.32875 0.39279 -0.35700
C 	C 	0.76298 0.26366 0.46036 0.28800
O 	O 	0.65595 0.30592 0.55561 -0.37900
O 	O 	0.74228 0.33116 0.57757 -0.41700
H 	H 	0.63720 0.26277 0.43129 0.16400
H 	H 	0.76138 0.38535 0.52013 0.17500
C 	C 	0.69609 0.30520 0.68944 -0.04300
C 	C 	0.66944 0.32704 0.70230 0.02100
C 	C 	0.65400 0.35020 0.67692 -0.06000
C 	C 	0.66401 0.35081 0.63860 0.02600
C 	C 	0.68923 0.32742 0.62534 -0.08400
C 	C 	0.70564 0.30531 0.65113 0.01000
C 	C 	0.65719 0.32527 0.74231 0.02000
C 	C 	0.69507 0.36867 0.77275 -0.05900
C 	C 	0.69073 0.36327 0.81180 0.02200
C 	C 	0.64798 0.31386 0.82051 -0.08100
C 	C 	0.60754 0.27216 0.78996 0.01100
C 	C 	0.61179 0.27772 0.75095 -0.04100
C 	C 	0.73162 0.40777 0.84269 0.06700
C 	C 	0.57036 0.23383 0.71994 0.08800
C 	C 	0.71348 0.28227 0.71539 0.08500
C 	C 	0.64978 0.37690 0.61357 0.07200
N 	N 	0.76436 0.44342 0.86744 -0.11200
N 	N 	0.53720 0.19870 0.69506 -0.11800
N 	N 	0.63838 0.39780 0.59351 -0.11300
N 	N 	0.72738 0.26391 0.73620 -0.12300
H 	H 	0.72510 0.28738 0.64115 0.02900
H 	H 	0.63417 0.36767 0.68700 0.05300
H 	H 	0.72935 0.40573 0.76607 0.05100
H 	H 	0.57370 0.23472 0.79656 0.03800
C 	C 	0.67794 0.26340 0.26481 -0.04100
C 	C 	0.69462 0.30568 0.24398 0.02100
C 	C 	0.71991 0.35813 0.26446 -0.05900
C 	C 	0.72627 0.36827 0.30523 0.02500
C 	C 	0.70607 0.32528 0.32582 -0.07800
C 	C 	0.68368 0.27340 0.30560 0.00700
C 	C 	0.68164 0.29476 0.20066 0.02100
C 	C 	0.62815 0.27114 0.18180 -0.05900
C 	C 	0.61616 0.26656 0.14133 0.02500
C 	C 	0.65835 0.28690 0.11945 -0.07900
C 	C 	0.71123 0.30776 0.13795 0.00800
C 	C 	0.72307 0.31169 0.17841 -0.04100
C 	C 	0.56035 0.24012 0.12236 0.07800
C 	C 	0.77779 0.33330 0.19690 0.08800
C 	C 	0.65471 0.20968 0.24451 0.08800
C 	C 	0.75429 0.42297 0.32578 0.07900
N 	N 	0.51567 0.21894 0.10715 -0.11300
N 	N 	0.82162 0.35061 0.21176 -0.11700
N 	N 	0.77673 0.46676 0.34226 -0.11100
N 	N 	0.63610 0.16665 0.22822 -0.11700
H 	H 	0.66939 0.24056 0.32149 0.03400
H 	H 	0.73378 0.39089 0.24853 0.05200
H 	H 	0.59604 0.25712 0.19878 0.05200
H 	H 	0.74343 0.32215 0.12101 0.03400
C 	C 	0.93480 0.87750 0.47278 -0.01900
C 	C 	0.95944 0.86364 0.49988 -0.01900
C 	C 	0.93534 0.80955 0.50151 -0.04700
C 	C 	0.88633 0.76875 0.47612 0.01400
C 	C 	0.86048 0.78258 0.45012 -0.04700
C 	C 	0.88457 0.83674 0.44850 -0.01900
C 	C 	0.86383 0.71167 0.47518 0.00800
C 	C 	0.86091 0.68085 0.44155 -0.04100
C 	C 	0.84119 0.62727 0.44100 -0.03000
C 	C 	0.82434 0.60413 0.47406 -0.00600
C 	C 	0.82733 0.63484 0.50772 -0.03100
C 	C 	0.84706 0.68849 0.50831 -0.04100
C 	C 	0.80137 0.54809 0.47267 0.04800
C 	C 	0.78112 0.50084 0.47064 -0.10500
H 	H 	0.99782 0.89476 0.51915 0.04200
H 	H 	0.95545 0.79929 0.52182 0.04400
H 	H 	0.82235 0.75135 0.43065 0.04400
H 	H 	0.86513 0.84689 0.42749 0.04300
H 	H 	0.87419 0.69851 0.41594 0.04300
H 	H 	0.83877 0.60369 0.41482 0.04600
H 	H 	0.81408 0.61713 0.53332 0.04100
H 	H 	0.84924 0.71196 0.53443 0.04200
C 	C 	0.78166 0.23055 0.44965 -0.09400
C 	C 	0.74594 0.17430 0.44607 0.01500
C 	C 	0.76550 0.14345 0.44225 -0.06800
C 	C 	0.82100 0.16851 0.44205 0.02800
C 	C 	0.85620 0.22438 0.44354 -0.06700
C 	C 	0.83658 0.25527 0.44720 0.01400
C 	C 	0.84292 0.13693 0.44325 -0.00200
C 	C 	0.83915 0.11110 0.47493 -0.03500
C 	C 	0.86131 0.08253 0.47675 -0.04200
C 	C 	0.88744 0.07961 0.44697 0.01500
C 	C 	0.89074 0.10484 0.41508 -0.04200
C 	C 	0.86852 0.13340 0.41319 -0.03400
C 	C 	0.91332 0.05310 0.45017 0.00300
C 	C 	0.93582 0.03179 0.45326 -0.03700
H 	H 	0.70327 0.15463 0.44722 0.03000
H 	H 	0.73782 0.10024 0.44046 0.04700
H 	H 	0.89906 0.24408 0.44319 0.04800
H 	H 	0.86456 0.29859 0.44980 0.03300
H 	H 	0.81968 0.11374 0.49836 0.03700
H 	H 	0.85875 0.06326 0.50154 0.04300
H 	H 	0.91096 0.10282 0.39197 0.04400
H 	H 	0.87143 0.15296 0.38853 0.04100
C 	C 	0.49221 0.24669 0.46552 -0.08500
C 	C 	0.46225 0.19471 0.47443 0.01600
C 	C 	0.40636 0.16641 0.47405 -0.06500
C 	C 	0.37991 0.18977 0.46477 0.02900
C 	C 	0.40976 0.24169 0.45593 -0.06500
C 	C 	0.46562 0.27005 0.45632 0.01600
C 	C 	0.32089 0.15978 0.46408 -0.00100
C 	C 	0.30176 0.17937 0.49036 -0.03400
C 	C 	0.24577 0.15105 0.48954 -0.04100
C 	C 	0.20862 0.10304 0.46247 0.01500
C 	C 	0.22763 0.08350 0.43613 -0.04100
C 	C 	0.28359 0.11178 0.43690 -0.03400
C 	C 	0.15107 0.07304 0.46237 0.00500
C 	C 	0.10286 0.04732 0.46234 -0.03700
H 	H 	0.48212 0.17607 0.48132 0.03400
H 	H 	0.38362 0.12636 0.48099 0.04900
H 	H 	0.38964 0.25999 0.44866 0.04900
H 	H 	0.48826 0.31029 0.44975 0.03600
H 	H 	0.33025 0.21635 0.51149 0.04200
H 	H 	0.23134 0.16630 0.51006 0.04500
H 	H 	0.19911 0.04635 0.41516 0.04400
H 	H 	0.29796 0.09650 0.41636 0.04000
C 	C 	0.92337 0.88332 0.98678 -0.01800
C 	C 	0.86813 0.84728 0.96889 -0.01900
C 	C 	0.83983 0.79208 0.96850 -0.04700
C 	C 	0.86647 0.77245 0.98601 0.01500
C 	C 	0.92146 0.80845 0.00421 -0.04900
C 	C 	0.94978 0.86361 0.00465 -0.02100
C 	C 	0.83693 0.71421 0.98507 0.01000
C 	C 	0.82881 0.69421 0.02004 -0.04300
C 	C 	0.80173 0.63908 0.01920 -0.03200
C 	C 	0.78262 0.60365 0.98344 -0.00500
C 	C 	0.79062 0.62350 0.94848 -0.03000
C 	C 	0.81771 0.67864 0.94927 -0.04100
C 	C 	0.75387 0.54681 0.98260 0.04900
C 	C 	0.72941 0.49922 0.98215 -0.10300
H 	H 	0.84735 0.86190 0.95482 0.04100
H 	H 	0.79728 0.76455 0.95451 0.04400
H 	H 	0.94232 0.79362 0.01783 0.04400
H 	H 	0.84342 0.72136 0.04780 0.04200
H 	H 	0.79552 0.62394 0.04633 0.04000
H 	H 	0.77584 0.59628 0.92072 0.04500
H 	H 	0.82404 0.69377 0.92214 0.04300
C 	C 	0.93038 0.04594 0.99226 -0.01200
C 	C 	0.95918 0.09888 0.01321 -0.03000
C 	C 	0.93348 0.12399 0.01611 -0.04500
C 	C 	0.87881 0.09648 0.99805 0.01200
C 	C 	0.84991 0.04349 0.97734 -0.04400
C 	C 	0.87552 0.01831 0.97449 -0.02800
C 	C 	0.85238 0.12377 0.99957 0.01100
C 	C 	0.80556 0.10250 0.01622 -0.04500
C 	C 	0.77811 0.12599 0.01491 -0.03100
C 	C 	0.79739 0.17094 0.99711 -0.00800
C 	C 	0.84498 0.19312 0.98145 -0.03000
C 	C 	0.87238 0.16962 0.98265 -0.04300
C 	C 	0.76645 0.19205 0.99244 0.05000
C 	C 	0.74066 0.20970 0.98748 -0.11700
H 	H 	0.95604 0.16484 0.03230 0.04200
H 	H 	0.80782 0.02208 0.96304 0.04200
H 	H 	0.85295 0.97760 0.95802 0.04600
H 	H 	0.79003 0.06736 0.02961 0.04200
H 	H 	0.74138 0.10869 0.02713 0.04200
H 	H 	0.86011 0.22788 0.96765 0.03800
H 	H 	0.90845 0.18630 0.96969 0.04200
C 	C 	0.47243 0.21474 0.97594 -0.08700
C 	C 	0.44079 0.17549 0.99803 0.01700
C 	C 	0.38572 0.15354 0.99572 -0.06100
C 	C 	0.36168 0.17046 0.97126 0.02700
C 	C 	0.39259 0.20804 0.94803 -0.06400
C 	C 	0.44773 0.23008 0.95032 0.01300
C 	C 	0.30481 0.15041 0.97121 0.00200
C 	C 	0.26442 0.11653 0.93794 -0.03500
C 	C 	0.20986 0.09442 0.93892 -0.04100
C 	C 	0.19544 0.10617 0.97312 0.01700
C 	C 	0.23595 0.14133 0.00595 -0.04300
C 	C 	0.29049 0.16343 0.00501 -0.03600
C 	C 	0.13888 0.07850 0.97567 0.00500
C 	C 	0.09153 0.05419 0.97819 -0.03800
H 	H 	0.45922 0.16320 0.01788 0.04400
H 	H 	0.36194 0.12410 0.01345 0.04900
H 	H 	0.37419 0.22097 0.92881 0.04800
H 	H 	0.47142 0.25967 0.93266 0.03400
H 	H 	0.27515 0.10643 0.91167 0.04100
H 	H 	0.17871 0.06724 0.91343 0.04400
H 	H 	0.22509 0.15061 0.03248 0.04400
H 	H 	0.32150 0.18995 0.03072 0.04200
