data_crystal

_cell_length_a 18.42344
_cell_length_b 18.85307
_cell_length_c 34.35894
_cell_angle_alpha 95.37698
_cell_angle_beta  95.37712
_cell_angle_gamma 126.38406

_symmetry_space_group_name_	'P 1'
_symmetry_space_group_name_H-M	'P 1'

loop_
_symmetry_equiv_pos_as_xyz
  x,y,z

loop_
_atom_site_label
_atom_site_type_symbol
_atom_site_fract_x
_atom_site_fract_y
_atom_site_fract_z
_atom_site_charge
C 	C 	0.90839 0.97003 0.97510 0.13900
N 	N 	0.99914 0.02040 0.97379 -0.14400
C 	C 	0.04061 0.98097 0.96896 0.15100
N 	N 	0.99161 0.89103 0.96635 -0.13800
C 	C 	0.90174 0.84060 0.96934 0.13000
N 	N 	0.85945 0.87986 0.97326 -0.13200
C 	C 	0.93918 0.04999 0.49183 0.11300
N 	N 	0.02843 0.10503 0.48752 -0.12600
C 	C 	0.07943 0.07467 0.48852 0.12400
N 	N 	0.04047 0.98878 0.49237 -0.12400
C 	C 	0.95161 0.93387 0.49642 0.12600
N 	N 	0.90157 0.96494 0.49702 -0.12700
Cu	Cu	0.75694 0.31426 0.96032 0.92900
Cu	Cu	0.72390 0.24221 0.04475 0.87500
Cu	Cu	0.61021 0.28617 0.00448 0.89800
Cu	Cu	0.57966 0.28805 0.91736 0.90400
C 	C 	0.70657 0.27679 0.87499 0.30200
O 	O 	0.79847 0.44078 0.95512 -0.35100
C 	C 	0.64293 0.30349 0.09114 0.29100
O 	O 	0.61352 0.23765 0.95256 -0.63300
O 	O 	0.73995 0.33156 0.01505 -0.64500
O 	O 	0.82238 0.26105 0.97163 -0.35700
O 	O 	0.71116 0.15994 0.00311 -0.43100
O 	O 	0.66357 0.31225 0.87937 -0.38100
O 	O 	0.48637 0.25177 0.99292 -0.36600
C 	C 	0.42606 0.20103 0.95988 0.29200
C 	C 	0.74846 0.46827 0.96242 0.27600
O 	O 	0.65998 0.40959 0.96192 -0.38600
O 	O 	0.45124 0.20899 0.92493 -0.38000
O 	O 	0.75395 0.27628 0.90598 -0.36000
C 	C 	0.77974 0.18470 0.98472 0.29400
O 	O 	0.61015 0.31977 0.06019 -0.36800
O 	O 	0.71111 0.29829 0.09024 -0.40700
H 	H 	0.57660 0.17146 0.94677 0.16800
H 	H 	0.78256 0.39399 0.02995 0.18400
Cu	Cu	0.60809 0.22447 0.50503 0.93000
Cu	Cu	0.66816 0.23081 0.41768 0.87600
Cu	Cu	0.68298 0.38162 0.46184 0.90100
Cu	Cu	0.64905 0.40512 0.54379 0.90000
C 	C 	0.64724 0.27779 0.59020 0.29500
O 	O 	0.48273 0.19267 0.50847 -0.35300
C 	C 	0.63877 0.33450 0.37360 0.29900
O 	O 	0.70335 0.36480 0.51463 -0.64100
O 	O 	0.59893 0.24812 0.45070 -0.64200
O 	O 	0.64750 0.14757 0.49436 -0.36600
O 	O 	0.75219 0.24128 0.45847 -0.43300
O 	O 	0.62141 0.32901 0.58518 -0.37400
O 	O 	0.77071 0.50967 0.47606 -0.37900
C 	C 	0.76517 0.56051 0.50274 0.29600
C 	C 	0.46186 0.24535 0.49883 0.28500
O 	O 	0.52728 0.32937 0.49769 -0.38400
O 	O 	0.72195 0.52995 0.53282 -0.37900
O 	O 	0.63720 0.22243 0.55976 -0.36000
C 	C 	0.72369 0.17979 0.48062 0.29300
O 	O 	0.67926 0.39784 0.40590 -0.38000
O 	O 	0.61694 0.25446 0.37478 -0.41300
H 	H 	0.76814 0.39258 0.52577 0.17500
H 	H 	0.53630 0.22220 0.43695 0.18400
C 	C 	0.78663 0.33032 0.77824 -0.09400
C 	C 	0.71799 0.24860 0.75285 0.00700
C 	C 	0.66243 0.17077 0.76914 0.03100
C 	C 	0.66369 0.17927 0.81028 -0.01400
C 	C 	0.72459 0.26343 0.83526 -0.10300
C 	C 	0.79174 0.33778 0.81958 0.11300
C 	C 	0.69476 0.24847 0.71042 0.00300
C 	C 	0.59766 0.07981 0.74262 -0.17800
H 	H 	0.61441 0.12136 0.82255 0.04000
C 	C 	0.86457 0.42665 0.84650 -0.21500
H 	H 	0.83237 0.38925 0.76573 0.06000
C 	C 	0.62510 0.25629 0.69746 0.03500
C 	C 	0.60742 0.26078 0.65756 -0.01600
C 	C 	0.66223 0.26386 0.63098 -0.09800
C 	C 	0.73342 0.25804 0.64419 0.10200
C 	C 	0.74739 0.24801 0.68361 -0.09000
C 	C 	0.57106 0.26219 0.72630 -0.18000
H 	H 	0.55198 0.26376 0.64733 0.05700
C 	C 	0.79564 0.26426 0.61684 -0.20900
H 	H 	0.80105 0.24242 0.69377 0.05800
H 	H 	0.83438 0.46028 0.85597 0.09500
H 	H 	0.92181 0.47155 0.83117 0.08100
H 	H 	0.89404 0.41669 0.87323 0.09300
H 	H 	0.63096 0.07317 0.71870 0.07500
H 	H 	0.53479 0.07036 0.72895 0.07000
H 	H 	0.57752 0.02550 0.75973 0.07300
H 	H 	0.52368 0.27440 0.71203 0.07600
H 	H 	0.61832 0.31840 0.75171 0.07800
H 	H 	0.52931 0.19859 0.73763 0.07100
H 	H 	0.85594 0.27276 0.63333 0.08100
H 	H 	0.82208 0.32312 0.60218 0.08200
H 	H 	0.75748 0.20214 0.59393 0.09400
C 	C 	0.58191 0.25777 0.19232 -0.08800
C 	C 	0.59985 0.33853 0.20917 0.00300
C 	C 	0.61892 0.40257 0.18521 0.03200
C 	C 	0.62904 0.38869 0.14580 -0.01300
C 	C 	0.61692 0.31029 0.12979 -0.09900
C 	C 	0.58792 0.24212 0.15249 0.09800
C 	C 	0.60806 0.35899 0.25274 0.00400
C 	C 	0.63286 0.48746 0.20203 -0.17900
H 	H 	0.64938 0.44019 0.12807 0.05100
C 	C 	0.56761 0.15434 0.13504 -0.20400
H 	H 	0.56568 0.20804 0.21061 0.05400
C 	C 	0.52981 0.31178 0.27061 0.03200
C 	C 	0.54071 0.30942 0.31135 -0.01300
C 	C 	0.62864 0.35709 0.33460 -0.10200
C 	C 	0.70658 0.41463 0.31777 0.10300
C 	C 	0.69565 0.41426 0.27675 -0.09000
C 	C 	0.43475 0.25877 0.24594 -0.17800
H 	H 	0.48081 0.26740 0.32457 0.04800
C 	C 	0.80160 0.47276 0.34293 -0.20700
H 	H 	0.75558 0.45301 0.26313 0.05600
H 	H 	0.52523 0.10157 0.15245 0.07400
H 	H 	0.63286 0.16327 0.13518 0.06900
H 	H 	0.52865 0.13004 0.10407 0.07000
H 	H 	0.70175 0.53480 0.22125 0.07400
H 	H 	0.57955 0.47239 0.21984 0.07300
H 	H 	0.62781 0.52068 0.17800 0.07400
H 	H 	0.38377 0.24603 0.26478 0.07400
H 	H 	0.41461 0.19336 0.23069 0.07300
H 	H 	0.43244 0.29618 0.22335 0.07300
H 	H 	0.81794 0.43014 0.35496 0.06800
H 	H 	0.80575 0.51761 0.36792 0.09300
H 	H 	0.85472 0.51584 0.32549 0.07500
C 	C 	0.90797 0.83918 0.49770 -0.00500
C 	C 	0.85361 0.77372 0.46301 -0.02400
C 	C 	0.80276 0.68232 0.46517 0.01600
C 	C 	0.81553 0.65648 0.50094 -0.07400
C 	C 	0.87731 0.72279 0.53475 0.01500
C 	C 	0.92069 0.81390 0.53351 -0.02200
C 	C 	0.85407 0.80058 0.42477 0.10100
C 	C 	0.89878 0.69759 0.57018 0.08500
C 	C 	0.97878 0.88173 0.56898 0.09200
C 	C 	0.73466 0.61513 0.43117 0.08300
N 	N 	0.02516 0.93591 0.59724 -0.09600
N 	N 	0.68032 0.56179 0.40401 -0.10600
N 	N 	0.91596 0.67753 0.59844 -0.11200
N 	N 	0.85478 0.82200 0.39424 -0.10500
C 	C 	0.88240 0.08200 0.49032 0.00400
C 	C 	0.79437 0.02926 0.46573 -0.03900
C 	C 	0.73868 0.05749 0.46594 0.02100
C 	C 	0.77392 0.14239 0.48740 -0.08700
C 	C 	0.86265 0.19631 0.51106 0.02000
C 	C 	0.91473 0.16408 0.51420 -0.03800
C 	C 	0.76258 0.94813 0.43891 0.11000
C 	C 	0.90193 0.28645 0.53079 0.07000
C 	C 	0.00020 0.21423 0.54271 0.10900
C 	C 	0.64599 0.00035 0.44293 0.05900
N 	N 	0.06836 0.25445 0.56548 -0.10700
N 	N 	0.57208 0.95481 0.42459 -0.10700
N 	N 	0.93358 0.35855 0.54637 -0.11900
N 	N 	0.73665 0.88329 0.41745 -0.10800
C 	C 	0.17923 0.13711 0.49036 -0.00200
C 	C 	0.23847 0.17757 0.52772 -0.02400
C 	C 	0.33232 0.21713 0.53031 0.01700
C 	C 	0.36648 0.21431 0.49561 -0.07500
C 	C 	0.30914 0.18152 0.45798 0.01500
C 	C 	0.21542 0.14321 0.45537 -0.02500
C 	C 	0.20190 0.17463 0.56365 0.10300
C 	C 	0.34639 0.18694 0.42206 0.07300
C 	C 	0.15566 0.10794 0.41681 0.09700
C 	C 	0.39379 0.26133 0.56859 0.07800
N 	N 	0.10788 0.07974 0.38605 -0.10800
N 	N 	0.44255 0.29669 0.59921 -0.11200
N 	N 	0.37598 0.19129 0.39336 -0.11900
N 	N 	0.17272 0.17208 0.59232 -0.10200
C 	C 	0.78798 0.56400 0.96430 -0.06500
C 	C 	0.77614 0.59357 0.92961 0.01300
C 	C 	0.80736 0.68297 0.93178 -0.02400
C 	C 	0.85073 0.74319 0.96852 -0.00100
C 	C 	0.85846 0.71254 0.00348 -0.02600
C 	C 	0.82763 0.62320 0.00136 0.00900
C 	C 	0.73059 0.53173 0.89178 0.07400
C 	C 	0.89813 0.77302 0.04162 0.10000
C 	C 	0.83566 0.59200 0.03736 0.07400
C 	C 	0.79559 0.71329 0.89611 0.09800
N 	N 	0.84204 0.56726 0.06615 -0.11800
N 	N 	0.78626 0.73757 0.86768 -0.10400
N 	N 	0.92976 0.82136 0.07203 -0.10500
N 	N 	0.69411 0.48268 0.86152 -0.11500
C 	C 	0.81358 0.13017 0.98198 -0.07500
C 	C 	0.80139 0.08186 0.94483 0.01800
C 	C 	0.82634 0.02386 0.94280 -0.03000
C 	C 	0.86327 0.01380 0.97787 -0.00500
C 	C 	0.87194 0.05923 0.01507 -0.02800
C 	C 	0.84903 0.11875 0.01711 0.01100
C 	C 	0.76203 0.09071 0.90878 0.08400
C 	C 	0.90525 0.04525 0.05128 0.09400
C 	C 	0.86367 0.16962 0.05529 0.05600
C 	C 	0.81504 0.97528 0.90458 0.10900
N 	N 	0.87533 0.21022 0.08575 -0.13300
N 	N 	0.80609 0.93650 0.87410 -0.10300
N 	N 	0.93184 0.03401 0.08014 -0.11000
N 	N 	0.73057 0.09752 0.87994 -0.10800
C 	C 	0.32714 0.14385 0.96168 -0.07300
C 	C 	0.26611 0.15080 0.93738 0.01600
C 	C 	0.17149 0.09324 0.93796 -0.02100
C 	C 	0.13888 0.03590 0.96606 -0.01400
C 	C 	0.20061 0.03211 0.99171 -0.02400
C 	C 	0.29361 0.08265 0.98813 0.01800
C 	C 	0.30095 0.21956 0.91309 0.08900
C 	C 	0.16909 0.97840 0.02257 0.10300
C 	C 	0.35430 0.07000 0.01089 0.06700
C 	C 	0.10746 0.09117 0.90892 0.10000
N 	N 	0.40272 0.05990 0.02900 -0.13200
N 	N 	0.05637 0.08950 0.88577 -0.10400
N 	N 	0.14401 0.93557 0.04719 -0.10500
N 	N 	0.32869 0.27441 0.89371 -0.10800
