data_crystal

_cell_length_a 28.30394
_cell_length_b 27.71468
_cell_length_c 44.67120
_cell_angle_alpha 89.91934
_cell_angle_beta  89.91881
_cell_angle_gamma 90.90615

_symmetry_space_group_name_	'P 1'
_symmetry_space_group_name_H-M	'P 1'

loop_
_symmetry_equiv_pos_as_xyz
  x,y,z

loop_
_atom_site_label
_atom_site_type_symbol
_atom_site_fract_x
_atom_site_fract_y
_atom_site_fract_z
_atom_site_charge
Zn	Zn	0.50088 0.48185 0.98341 1.22300
C 	C 	0.52824 0.38288 0.97931 0.29900
O 	O 	0.56895 0.48751 0.98774 -0.44100
O 	O 	0.55778 0.39866 0.95856 -0.43900
O 	O 	0.58171 0.50016 0.93813 -0.48700
C 	C 	0.44033 0.44968 0.93690 0.30800
O 	O 	0.45298 0.48741 0.95265 -0.47400
O 	O 	0.47294 0.42538 0.92292 -0.48400
C 	C 	0.59472 0.50618 0.96618 0.31200
O 	O 	0.49722 0.56597 0.98778 -0.31600
Zn	Zn	0.53895 0.44680 0.92567 1.17000
O 	O 	0.49641 0.41184 0.99076 -0.42400
C 	C 	0.47871 0.55802 0.01392 0.30400
O 	O 	0.47437 0.51285 0.02134 -0.37600
Zn	Zn	0.27830 0.25837 0.99944 1.22100
C 	C 	0.26941 0.22115 0.93910 0.31700
O 	O 	0.27591 0.32841 0.99384 -0.45800
O 	O 	0.22342 0.22293 0.94325 -0.44300
O 	O 	0.23848 0.32831 0.94913 -0.48500
C 	C 	0.19043 0.20990 0.01131 0.31000
O 	O 	0.23576 0.20395 0.00667 -0.45000
O 	O 	0.16955 0.24818 0.00045 -0.48800
C 	C 	0.27079 0.34655 0.96697 0.34500
O 	O 	0.28011 0.26968 0.05183 -0.31700
Zn	Zn	0.19252 0.28081 0.96410 1.17300
O 	O 	0.29851 0.24016 0.95898 -0.43900
C 	C 	0.32454 0.25929 0.04957 0.27900
O 	O 	0.33927 0.24963 0.02282 -0.38000
C 	C 	0.54242 0.00630 0.64643 0.16100
C 	C 	0.56990 0.97334 0.66237 -0.12500
H 	H 	0.59667 0.95291 0.65080 0.07500
C 	C 	0.56278 0.96694 0.69318 0.06400
C 	C 	0.52805 0.99338 0.70799 -0.10800
C 	C 	0.50070 0.02644 0.69216 0.07300
C 	C 	0.50794 0.03299 0.66138 -0.11500
H 	H 	0.48693 0.05865 0.64907 0.07700
N 	N 	0.54944 0.01256 0.61479 -0.18000
C 	C 	0.52043 0.98837 0.59514 0.19500
C 	C 	0.52642 0.99444 0.56406 -0.09900
C 	C 	0.56192 0.02605 0.55339 0.08200
C 	C 	0.59273 0.04874 0.57379 -0.08600
C 	C 	0.58536 0.04217 0.60472 0.20300
C 	C 	0.49875 0.96795 0.54365 0.02300
C 	C 	0.50523 0.97406 0.51292 -0.07900
C 	C 	0.53702 0.00974 0.50184 0.03900
C 	C 	0.56750 0.03387 0.52222 -0.04000
C 	C 	0.60486 0.06401 0.51164 0.02400
C 	C 	0.63145 0.07593 0.56309 0.01700
C 	C 	0.63865 0.08173 0.53239 -0.06000
C 	C 	0.54078 0.01987 0.47071 0.00700
C 	C 	0.57850 0.04939 0.46009 -0.02200
C 	C 	0.60900 0.07361 0.48042 0.01300
O 	O 	0.61291 0.06482 0.62410 -0.20000
O 	O 	0.48674 0.95937 0.60541 -0.20400
H 	H 	0.65717 0.09115 0.57849 0.04500
H 	H 	0.67171 0.09764 0.52498 0.05000
H 	H 	0.47317 0.94132 0.55151 0.04100
H 	H 	0.48733 0.94921 0.49800 0.05100
C 	C 	0.64150 0.10847 0.46911 -0.05400
C 	C 	0.64889 0.11316 0.43834 0.01100
C 	C 	0.62120 0.08639 0.41808 -0.07800
C 	C 	0.58459 0.05631 0.42889 0.06100
C 	C 	0.50645 0.00301 0.45008 -0.04200
C 	C 	0.51370 0.00839 0.41936 0.02000
C 	C 	0.55334 0.03407 0.40857 -0.08100
C 	C 	0.62846 0.09046 0.38697 0.19900
N 	N 	0.59930 0.06616 0.36746 -0.18200
C 	C 	0.56147 0.03925 0.37763 0.20000
C 	C 	0.60868 0.06854 0.33587 0.14400
C 	C 	0.58977 0.10587 0.31864 -0.10600
C 	C 	0.59539 0.10593 0.28742 0.05600
C 	C 	0.62065 0.06894 0.27361 -0.09000
C 	C 	0.63970 0.03165 0.29080 0.06600
C 	C 	0.63398 0.03170 0.32196 -0.10800
O 	O 	0.66378 0.11718 0.37657 -0.19800
O 	O 	0.53295 0.01769 0.35835 -0.19800
H 	H 	0.56974 0.13398 0.32943 0.07400
H 	H 	0.64807 0.00259 0.33531 0.07600
H 	H 	0.65927 0.13377 0.48379 0.04800
H 	H 	0.67514 0.13898 0.43032 0.04700
H 	H 	0.47305 0.98799 0.45763 0.03700
H 	H 	0.48758 0.99375 0.40401 0.03500
H 	H 	0.62398 0.06820 0.24942 0.06200
H 	H 	0.52275 0.98869 0.73188 0.06100
Zn	Zn	0.79508 0.72407 0.99536 1.22200
C 	C 	0.77586 0.72806 0.05886 0.32100
O 	O 	0.86420 0.72796 0.99493 -0.46600
O 	O 	0.77999 0.68078 0.05862 -0.42900
O 	O 	0.87936 0.69817 0.04105 -0.48100
C 	C 	0.75230 0.63032 0.99667 0.35100
O 	O 	0.74415 0.67666 0.99769 -0.44200
O 	O 	0.79372 0.61393 0.00458 -0.49800
C 	C 	0.88756 0.73053 0.02021 0.30600
O 	O 	0.79474 0.71215 0.94305 -0.32400
Zn	Zn	0.83262 0.64685 0.03485 1.17300
O 	O 	0.78481 0.75356 0.03456 -0.43700
C 	C 	0.78062 0.75643 0.94164 0.28000
O 	O 	0.77568 0.77796 0.96715 -0.38300
Zn	Zn	0.27698 0.75935 0.00960 1.22200
C 	C 	0.26316 0.78720 0.07130 0.31700
O 	O 	0.28533 0.81964 0.98726 -0.46900
O 	O 	0.30924 0.79367 0.07341 -0.44700
O 	O 	0.30442 0.86852 0.02582 -0.48400
C 	C 	0.36199 0.71890 0.03141 0.31200
O 	O 	0.31588 0.71348 0.03058 -0.44900
O 	O 	0.38130 0.76183 0.02696 -0.49600
C 	C 	0.28046 0.86075 0.00118 0.30500
O 	O 	0.29277 0.71596 0.96535 -0.31900
Zn	Zn	0.35033 0.82144 0.03914 1.17100
O 	O 	0.24298 0.78354 0.04483 -0.43400
C 	C 	0.24754 0.70745 0.96470 0.27700
O 	O 	0.22392 0.72529 0.98683 -0.37800
C 	C 	0.97156 0.52594 0.66011 0.13900
C 	C 	0.00204 0.55414 0.67792 -0.10200
H 	H 	0.02494 0.58109 0.66757 0.07300
C 	C 	0.00289 0.54735 0.70902 0.05600
C 	C 	0.97339 0.51230 0.72224 -0.08900
C 	C 	0.94310 0.48392 0.70454 0.05400
C 	C 	0.94204 0.49087 0.67346 -0.10500
H 	H 	0.91867 0.46898 0.65966 0.07200
N 	N 	0.97099 0.53255 0.62818 -0.18200
C 	C 	0.00268 0.50832 0.61073 0.19900
C 	C 	0.00177 0.51328 0.57936 -0.07600
C 	C 	0.96735 0.54229 0.56606 0.05800
C 	C 	0.93676 0.56877 0.58432 -0.07800
C 	C 	0.93881 0.56303 0.61564 0.19700
C 	C 	0.03579 0.49121 0.56131 0.01000
C 	C 	0.03444 0.49639 0.53025 -0.05300
C 	C 	0.99654 0.52036 0.51632 0.01300
C 	C 	0.96436 0.54584 0.53447 -0.02600
C 	C 	0.93055 0.57648 0.52133 0.01600
C 	C 	0.90592 0.60183 0.57121 0.01000
C 	C 	0.90425 0.60714 0.54016 -0.05600
C 	C 	0.99144 0.52133 0.48463 0.01600
C 	C 	0.95749 0.55180 0.47148 -0.02800
C 	C 	0.92544 0.57747 0.48964 0.01700
O 	O 	0.90948 0.58679 0.63296 -0.20100
O 	O 	0.03383 0.47991 0.62339 -0.20000
H 	H 	0.88428 0.62476 0.58505 0.04500
H 	H 	0.88449 0.63677 0.53108 0.04700
H 	H 	0.06441 0.47133 0.57132 0.04600
H 	H 	0.06422 0.48397 0.51741 0.04700
C 	C 	0.88751 0.60144 0.47573 -0.05700
C 	C 	0.88576 0.60606 0.44464 0.01100
C 	C 	0.91942 0.58351 0.42655 -0.08000
C 	C 	0.95415 0.55490 0.43987 0.06200
C 	C 	0.01776 0.49064 0.46585 -0.05500
C 	C 	0.01581 0.49558 0.43479 0.01400
C 	C 	0.98462 0.52823 0.42163 -0.08100
C 	C 	0.91773 0.58745 0.39512 0.19800
N 	N 	0.94901 0.56269 0.37767 -0.18100
C 	C 	0.98198 0.53319 0.39030 0.19600
C 	C 	0.94677 0.56709 0.34563 0.14000
C 	C 	0.92012 0.53364 0.32891 -0.10300
C 	C 	0.92007 0.53619 0.29757 0.05200
C 	C 	0.94655 0.57235 0.28298 -0.08300
C 	C 	0.97337 0.60581 0.29958 0.04800
C 	C 	0.97311 0.60335 0.33097 -0.10200
O 	O 	0.88603 0.61514 0.38241 -0.20000
O 	O 	0.01144 0.50951 0.37301 -0.19800
H 	H 	0.90021 0.50533 0.34028 0.07300
H 	H 	0.99403 0.62885 0.34395 0.07100
H 	H 	0.85796 0.61426 0.48862 0.04800
H 	H 	0.85706 0.62584 0.43465 0.04500
H 	H 	0.03777 0.46121 0.47497 0.04800
H 	H 	0.03745 0.47258 0.42099 0.04600
H 	H 	0.94747 0.57348 0.25871 0.05800
H 	H 	0.97417 0.50695 0.74630 0.05900
Zn	Zn	0.73558 0.21564 0.00508 1.22200
C 	C 	0.73274 0.23185 0.94131 0.31700
O 	O 	0.67559 0.24896 0.00126 -0.44200
O 	O 	0.69048 0.21139 0.94200 -0.44800
O 	O 	0.63200 0.18012 0.99537 -0.50000
C 	C 	0.76920 0.12433 0.98563 0.30700
O 	O 	0.76044 0.15099 0.00914 -0.46500
O 	O 	0.73855 0.12171 0.96372 -0.48400
C 	C 	0.63465 0.22621 0.00206 0.35300
O 	O 	0.72665 0.21570 0.05763 -0.30900
Zn	Zn	0.67646 0.15061 0.96744 1.17100
O 	O 	0.76047 0.23006 0.96492 -0.43600
C 	C 	0.75870 0.24971 0.05726 0.28200
O 	O 	0.77455 0.26175 0.03102 -0.37500
Zn	Zn	0.02113 0.99757 0.02307 1.21800
C 	C 	0.11097 0.95282 0.01671 0.33300
O 	O 	0.00255 0.92941 0.02191 -0.43600
O 	O 	0.09767 0.92729 0.04026 -0.42700
O 	O 	0.00467 0.92070 0.07244 -0.48300
C 	C 	0.07810 0.05554 0.06221 0.34500
O 	O 	0.03607 0.05063 0.05021 -0.44800
O 	O 	0.09690 0.01862 0.07582 -0.48500
C 	C 	0.99073 0.90534 0.04606 0.34900
O 	O 	0.94141 0.01676 0.02995 -0.31700
Zn	Zn	0.06450 0.95631 0.07708 1.17300
O 	O 	0.08504 0.98871 0.00700 -0.42900
C 	C 	0.94219 0.02962 0.00207 0.30400
O 	O 	0.98251 0.02546 0.98848 -0.35600
C 	C 	0.81489 0.10037 0.98297 -0.04700
C 	C 	0.81677 0.05005 0.98066 -0.02400
C 	C 	0.86003 0.02677 0.98343 0.03000
C 	C 	0.90175 0.05366 0.98839 -0.10100
C 	C 	0.90040 0.10443 0.98749 0.14100
C 	C 	0.85694 0.12758 0.98512 -0.05400
H 	H 	0.86072 0.98768 0.98371 0.02500
H 	H 	0.85576 0.16663 0.98583 0.06800
H 	H 	0.78451 0.02882 0.97834 0.04200
Br	Br	0.95722 0.14265 0.99116 -0.21700
C 	C 	0.91288 0.44672 0.71874 -0.00200
C 	C 	0.86483 0.45552 0.72358 -0.03600
C 	C 	0.83845 0.42572 0.74284 -0.02400
C 	C 	0.86006 0.38699 0.75754 -0.00900
C 	C 	0.93350 0.40591 0.73153 -0.03600
C 	C 	0.83492 0.36087 0.78182 0.10700
N 	N 	0.80286 0.38408 0.79903 -0.08500
N 	N 	0.78462 0.36275 0.82328 -0.08400
C 	C 	0.79810 0.31768 0.83112 0.10100
N 	N 	0.82918 0.29395 0.81351 -0.08200
N 	N 	0.84724 0.31518 0.78918 -0.08300
C 	C 	0.78136 0.29592 0.85939 0.00900
C 	C 	0.71810 0.27951 0.89494 0.01200
C 	C 	0.74975 0.25518 0.91360 -0.08800
C 	C 	0.79735 0.25164 0.90514 0.01500
C 	C 	0.81304 0.27176 0.87812 -0.04800
C 	C 	0.90728 0.37619 0.75086 -0.02400
C 	C 	0.73387 0.29992 0.86800 -0.05000
H 	H 	0.84850 0.48669 0.71352 0.04700
H 	H 	0.80169 0.43366 0.74706 0.04700
H 	H 	0.92434 0.34615 0.76170 0.04900
H 	H 	0.97049 0.39859 0.72765 0.04600
H 	H 	0.70910 0.31844 0.85372 0.04700
H 	H 	0.68134 0.28269 0.90131 0.03300
H 	H 	0.84989 0.26889 0.87186 0.05500
H 	H 	0.82203 0.23266 0.91925 0.04400
C 	C 	0.77331 0.27550 0.08468 -0.05900
C 	C 	0.81603 0.30195 0.08533 0.00700
C 	C 	0.82981 0.32639 0.11133 -0.04000
C 	C 	0.80094 0.32479 0.13693 0.00800
C 	C 	0.74455 0.27375 0.11034 0.00900
C 	C 	0.81518 0.35110 0.16420 0.10400
N 	N 	0.86117 0.35259 0.17279 -0.08000
N 	N 	0.87435 0.37798 0.19675 -0.08200
C 	C 	0.84192 0.40266 0.21282 0.10800
N 	N 	0.79582 0.40066 0.20446 -0.08100
N 	N 	0.78262 0.37515 0.18054 -0.08000
C 	C 	0.85722 0.43422 0.23765 -0.00800
C 	C 	0.91287 0.45266 0.27753 -0.03600
C 	C 	0.89474 0.49932 0.27981 -0.00100
C 	C 	0.85608 0.51241 0.26212 -0.03600
C 	C 	0.83733 0.48000 0.24116 -0.02400
C 	C 	0.75824 0.29836 0.13628 -0.03800
C 	C 	0.89423 0.42024 0.25653 -0.02300
H 	H 	0.83867 0.30341 0.06577 0.05100
H 	H 	0.86268 0.34696 0.11147 0.05500
H 	H 	0.73581 0.29660 0.15594 0.05700
H 	H 	0.71145 0.25359 0.11015 0.06100
H 	H 	0.90927 0.38469 0.25445 0.05000
H 	H 	0.94259 0.44217 0.29121 0.04900
H 	H 	0.80863 0.49119 0.22685 0.04900
H 	H 	0.84172 0.54831 0.26385 0.04600
C 	C 	0.23933 0.89085 0.99439 -0.05100
C 	C 	0.23889 0.93932 0.00339 -0.02400
C 	C 	0.19599 0.96334 0.00587 0.01500
C 	C 	0.15332 0.93860 0.00026 -0.11300
C 	C 	0.15445 0.89284 0.98670 0.14500
C 	C 	0.19745 0.86912 0.98371 -0.05900
H 	H 	0.19567 0.99958 0.01483 0.02600
H 	H 	0.19770 0.83251 0.97524 0.07100
H 	H 	0.27132 0.95736 0.01029 0.03900
Br	Br	0.09705 0.86037 0.97490 -0.21600
C 	C 	0.22389 0.69024 0.93723 -0.06500
C 	C 	0.24874 0.66245 0.91638 0.00700
C 	C 	0.22798 0.64999 0.88902 -0.04100
C 	C 	0.18212 0.66518 0.88221 0.00700
C 	C 	0.17752 0.70428 0.93075 0.00700
C 	C 	0.16077 0.65341 0.85295 0.10400
N 	N 	0.16856 0.61001 0.83993 -0.08200
N 	N 	0.14771 0.59862 0.81410 -0.08300
C 	C 	0.11861 0.63035 0.80048 0.10700
N 	N 	0.11156 0.67412 0.81322 -0.08200
N 	N 	0.13236 0.68549 0.83907 -0.08000
C 	C 	0.09154 0.61565 0.77367 -0.00800
C 	C 	0.08270 0.56342 0.73032 -0.03500
C 	C 	0.03513 0.57622 0.72790 -0.00300
C 	C 	0.01679 0.61130 0.74708 -0.03200
C 	C 	0.04482 0.63096 0.76987 -0.02500
C 	C 	0.15680 0.69189 0.90338 -0.04000
C 	C 	0.11084 0.58306 0.75310 -0.02400
H 	H 	0.28435 0.65099 0.92121 0.04700
H 	H 	0.24787 0.62930 0.87292 0.05400
H 	H 	0.12111 0.70314 0.89861 0.05800
H 	H 	0.15790 0.72573 0.94660 0.05500
H 	H 	0.14718 0.57188 0.75528 0.04800
H 	H 	0.09726 0.53661 0.71544 0.04700
H 	H 	0.02954 0.65638 0.78537 0.05000
H 	H 	0.98014 0.62161 0.74523 0.04400
C 	C 	0.00456 0.64083 0.28391 0.00700
C 	C 	0.05366 0.63908 0.28789 -0.03900
C 	C 	0.08386 0.66532 0.26893 -0.02100
C 	C 	0.06526 0.69310 0.24550 -0.01100
C 	C 	0.98585 0.67164 0.26212 -0.04500
C 	C 	0.09700 0.71363 0.22224 0.10800
N 	N 	0.13877 0.69228 0.21609 -0.08200
N 	N 	0.16558 0.70797 0.19346 -0.08000
C 	C 	0.15138 0.74536 0.17618 0.10200
N 	N 	0.10997 0.76724 0.18256 -0.08300
N 	N 	0.08319 0.75164 0.20528 -0.08400
C 	C 	0.17995 0.76084 0.15014 0.00900
C 	C 	0.25657 0.76907 0.12598 0.01300
C 	C 	0.23455 0.78061 0.09877 -0.08600
C 	C 	0.18506 0.78402 0.09771 0.01300
C 	C 	0.15792 0.77412 0.12326 -0.04800
C 	C 	0.01601 0.69749 0.24291 -0.01800
C 	C 	0.22944 0.75932 0.15148 -0.04900
H 	H 	0.06849 0.61581 0.30484 0.05000
H 	H 	0.12173 0.66282 0.27186 0.04900
H 	H 	0.00102 0.71927 0.22526 0.04800
H 	H 	0.94795 0.67392 0.25922 0.04600
H 	H 	0.24691 0.74993 0.17220 0.05400
H 	H 	0.29467 0.76661 0.12726 0.04000
H 	H 	0.11975 0.77553 0.12194 0.06400
H 	H 	0.16757 0.79377 0.07707 0.05600
C 	C 	0.91379 0.77511 0.02778 -0.04600
C 	C 	0.89396 0.82009 0.02162 -0.02500
C 	C 	0.91802 0.86258 0.02944 0.02600
C 	C 	0.96240 0.86070 0.04327 -0.11900
C 	C 	0.98212 0.81550 0.04996 0.14800
C 	C 	0.95743 0.77292 0.04252 -0.05600
H 	H 	0.90269 0.89710 0.02403 0.03500
H 	H 	0.97266 0.73824 0.04763 0.06900
H 	H 	0.85977 0.82215 0.01085 0.04400
Br	Br	0.04383 0.81111 0.06751 -0.26200
C 	C 	0.76402 0.77783 0.91339 -0.06800
C 	C 	0.78008 0.76003 0.88583 0.00700
C 	C 	0.76160 0.77766 0.85902 -0.04300
C 	C 	0.72675 0.81310 0.85952 0.00600
C 	C 	0.73036 0.81451 0.91382 0.00600
C 	C 	0.70458 0.82898 0.83149 0.10200
N 	N 	0.73146 0.83915 0.80700 -0.08200
N 	N 	0.71139 0.85494 0.78192 -0.08300
C 	C 	0.66386 0.86059 0.78057 0.10600
N 	N 	0.63698 0.84972 0.80493 -0.08400
N 	N 	0.65705 0.83418 0.83002 -0.08300
C 	C 	0.64197 0.88187 0.75383 -0.00900
C 	C 	0.63894 0.94732 0.71771 -0.03500
C 	C 	0.59248 0.93370 0.71029 -0.00700
C 	C 	0.57223 0.89195 0.72301 -0.03500
C 	C 	0.59687 0.86611 0.74467 -0.02600
C 	C 	0.71171 0.83192 0.88703 -0.04400
C 	C 	0.66364 0.92149 0.73939 -0.02600
H 	H 	0.80649 0.73218 0.88517 0.04500
H 	H 	0.77357 0.76296 0.83792 0.05300
H 	H 	0.68530 0.85978 0.88765 0.04900
H 	H 	0.71780 0.82877 0.93490 0.04400
H 	H 	0.69860 0.93377 0.74603 0.04700
H 	H 	0.65497 0.97933 0.70781 0.04500
H 	H 	0.58024 0.83486 0.75510 0.04700
H 	H 	0.53658 0.88082 0.71710 0.04400
C 	C 	0.66256 0.99083 0.27582 -0.01100
C 	C 	0.64055 0.94512 0.27589 -0.03500
C 	C 	0.65769 0.90846 0.25757 -0.02400
C 	C 	0.69692 0.91728 0.23894 -0.01000
C 	C 	0.70344 0.99877 0.25862 -0.04900
C 	C 	0.71054 0.88136 0.21628 0.10700
N 	N 	0.67682 0.85447 0.20215 -0.08300
N 	N 	0.68817 0.82677 0.17895 -0.08100
C 	C 	0.73355 0.82523 0.16917 0.10200
N 	N 	0.76752 0.85087 0.18391 -0.08200
N 	N 	0.75618 0.87849 0.20714 -0.08400
C 	C 	0.74505 0.79973 0.14124 0.00900
C 	C 	0.73343 0.73155 0.10778 0.01400
C 	C 	0.76458 0.75292 0.08699 -0.08300
C 	C 	0.78608 0.79766 0.09351 0.01400
C 	C 	0.77643 0.82090 0.12050 -0.04700
C 	C 	0.72057 0.96220 0.24026 -0.02100
C 	C 	0.72358 0.75493 0.13475 -0.04500
H 	H 	0.60914 0.93856 0.28927 0.04500
H 	H 	0.63974 0.87365 0.25728 0.04800
H 	H 	0.75103 0.96948 0.22616 0.04600
H 	H 	0.72091 0.03385 0.25866 0.05500
H 	H 	0.69943 0.73816 0.15063 0.05700
H 	H 	0.71664 0.69702 0.10299 0.05600
H 	H 	0.79291 0.85564 0.12512 0.05400
H 	H 	0.81067 0.81421 0.07781 0.04100
C 	C 	0.16260 0.17228 0.02752 -0.04300
C 	C 	0.18299 0.12765 0.03415 -0.02700
C 	C 	0.15613 0.09096 0.04765 0.02400
C 	C 	0.10823 0.09786 0.05430 -0.12100
C 	C 	0.08867 0.14393 0.05002 0.14600
C 	C 	0.11565 0.18064 0.03621 -0.05900
H 	H 	0.17226 0.05652 0.05207 0.03600
H 	H 	0.10021 0.21568 0.03256 0.07600
H 	H 	0.21945 0.12093 0.02831 0.05500
Br	Br	0.02735 0.15897 0.06556 -0.20900
C 	C 	0.28828 0.20147 0.91093 -0.08800
C 	C 	0.33208 0.21806 0.89982 0.01300
C 	C 	0.34852 0.20201 0.87213 -0.05000
C 	C 	0.32156 0.16890 0.85531 0.00900
C 	C 	0.26160 0.16783 0.89427 0.01300
C 	C 	0.33913 0.15180 0.82621 0.10100
N 	N 	0.33551 0.10435 0.81893 -0.08100
N 	N 	0.35516 0.08811 0.79385 -0.08200
C 	C 	0.37885 0.11887 0.77524 0.10700
N 	N 	0.38119 0.16659 0.78209 -0.08400
N 	N 	0.36168 0.18280 0.80723 -0.08300
C 	C 	0.40608 0.09986 0.74973 -0.00700
C 	C 	0.42109 0.03458 0.71492 -0.03200
C 	C 	0.46546 0.05504 0.70818 -0.00800
C 	C 	0.47866 0.09962 0.72063 -0.03300
C 	C 	0.44914 0.12198 0.74133 -0.02600
C 	C 	0.27820 0.15159 0.86662 -0.04800
C 	C 	0.39141 0.05696 0.73553 -0.02500
H 	H 	0.35313 0.24390 0.91242 0.03800
H 	H 	0.38236 0.21509 0.86384 0.05000
H 	H 	0.25712 0.12596 0.85387 0.05600
H 	H 	0.22798 0.15436 0.90268 0.04200
H 	H 	0.35773 0.04018 0.74115 0.05100
H 	H 	0.41047 0.00034 0.70516 0.04900
H 	H 	0.46079 0.15528 0.75184 0.04800
H 	H 	0.51279 0.11577 0.71539 0.04600
C 	C 	0.35585 0.25739 0.07587 -0.06600
C 	C 	0.33665 0.25046 0.10458 0.00800
C 	C 	0.36631 0.24702 0.12943 -0.04200
C 	C 	0.41559 0.25067 0.12590 0.01000
C 	C 	0.40503 0.26207 0.07238 0.01000
C 	C 	0.44704 0.24311 0.15182 0.10500
N 	N 	0.43175 0.25261 0.18001 -0.08000
N 	N 	0.45751 0.23998 0.20361 -0.08100
C 	C 	0.49950 0.21780 0.19972 0.10900
N 	N 	0.51570 0.21010 0.17153 -0.08000
N 	N 	0.48983 0.22250 0.14793 -0.07800
C 	C 	0.52410 0.19662 0.22551 -0.00700
C 	C 	0.52175 0.14418 0.26910 -0.03500
C 	C 	0.57125 0.14206 0.26887 -0.00100
C 	C 	0.59715 0.17004 0.24818 -0.03500
C 	C 	0.57368 0.19706 0.22652 -0.02300
C 	C 	0.43474 0.25888 0.09726 -0.04200
C 	C 	0.49827 0.17145 0.24758 -0.02300
H 	H 	0.29878 0.24678 0.10759 0.04800
H 	H 	0.35099 0.24037 0.15131 0.05600
H 	H 	0.47261 0.26258 0.09424 0.06200
H 	H 	0.42027 0.26823 0.05041 0.05000
H 	H 	0.46000 0.17104 0.24716 0.05000
H 	H 	0.50141 0.12288 0.28505 0.04900
H 	H 	0.59400 0.21715 0.20999 0.05100
H 	H 	0.63541 0.16929 0.24814 0.04600
C 	C 	0.39194 0.42911 0.94031 -0.05000
C 	C 	0.37765 0.38849 0.92365 -0.02600
C 	C 	0.33559 0.36386 0.93081 0.02100
C 	C 	0.30764 0.37921 0.95487 -0.12300
C 	C 	0.31982 0.42220 0.96993 0.14500
C 	C 	0.36165 0.44709 0.96253 -0.06100
H 	H 	0.32600 0.33138 0.91865 0.03400
H 	H 	0.37135 0.47943 0.97482 0.07200
H 	H 	0.39981 0.37499 0.90584 0.04500
Br	Br	0.27974 0.44754 0.00065 -0.24000
C 	C 	0.39220 0.67599 0.03409 -0.04900
C 	C 	0.37215 0.62933 0.03234 -0.01800
C 	C 	0.40116 0.58923 0.02968 0.01500
C 	C 	0.45041 0.59535 0.02838 -0.09700
C 	C 	0.47055 0.64131 0.03377 0.13500
C 	C 	0.44147 0.68145 0.03650 -0.05400
H 	H 	0.38524 0.55387 0.02620 0.04800
H 	H 	0.45730 0.71693 0.03963 0.06600
H 	H 	0.33415 0.62424 0.03162 0.05900
Br	Br	0.53782 0.65005 0.03642 -0.22000
C 	C 	0.53575 0.33516 0.99245 -0.03700
C 	C 	0.53218 0.29441 0.97396 -0.03300
C 	C 	0.55985 0.25412 0.97977 0.02600
C 	C 	0.59126 0.25460 0.00403 -0.12600
C 	C 	0.58764 0.29137 0.02565 0.14900
C 	C 	0.55991 0.33171 0.01972 -0.06100
H 	H 	0.56061 0.22496 0.96365 0.01900
H 	H 	0.56069 0.36208 0.03498 0.07700
H 	H 	0.51188 0.29592 0.95344 0.03700
Br	Br	0.62229 0.28823 0.06246 -0.23400
C 	C 	0.63530 0.53798 0.97378 -0.04100
C 	C 	0.67379 0.54323 0.95412 -0.02700
C 	C 	0.71271 0.57231 0.96207 0.02500
C 	C 	0.71340 0.59646 0.98967 -0.12400
C 	C 	0.67503 0.59083 0.00952 0.15000
C 	C 	0.63620 0.56194 0.00147 -0.05600
H 	H 	0.74201 0.57658 0.94661 0.03200
H 	H 	0.60666 0.55814 0.01680 0.09000
H 	H 	0.67377 0.52459 0.93282 0.04300
Br	Br	0.67546 0.62138 0.04809 -0.22500
