data_crystal

_cell_length_a 26.26576
_cell_length_b 26.48425
_cell_length_c 26.59181
_cell_angle_alpha 95.49437
_cell_angle_beta  95.49275
_cell_angle_gamma 125.83459

_symmetry_space_group_name_	'P 1'
_symmetry_space_group_name_H-M	'P 1'

loop_
_symmetry_equiv_pos_as_xyz
  x,y,z

loop_
_atom_site_label
_atom_site_type_symbol
_atom_site_fract_x
_atom_site_fract_y
_atom_site_fract_z
_atom_site_charge
C 	C 	0.97457 0.03673 0.99872 0.05100
C 	C 	0.03849 0.07164 0.99228 -0.07400
C 	C 	0.06760 0.04145 0.98616 0.06200
C 	C 	0.03263 0.97633 0.98578 -0.07400
C 	C 	0.96952 0.94170 0.99400 0.05700
C 	C 	0.94045 0.97195 0.00031 -0.07800
H 	H 	0.06539 0.12199 0.99210 0.07100
H 	H 	0.05490 0.95285 0.98003 0.06900
H 	H 	0.89138 0.94516 0.00611 0.06200
C 	C 	0.92914 0.99539 0.44526 0.08900
C 	C 	0.99575 0.03248 0.44936 -0.10900
C 	C 	0.02749 0.00483 0.45467 0.08600
C 	C 	0.99274 0.94015 0.45635 -0.10500
C 	C 	0.92619 0.90280 0.45220 0.08400
C 	C 	0.89434 0.93048 0.44686 -0.10300
H 	H 	0.02271 0.08258 0.44809 0.07600
H 	H 	0.01733 0.91875 0.46031 0.07500
H 	H 	0.84283 0.90164 0.44354 0.07000
Cu	Cu	0.64169 0.24507 0.00140 0.93200
Cu	Cu	0.69858 0.24672 0.89616 0.87400
Cu	Cu	0.69017 0.34928 0.93697 0.89900
Cu	Cu	0.64682 0.36542 0.03367 0.90200
C 	C 	0.65511 0.29165 0.10799 0.30100
O 	O 	0.54832 0.20995 0.99546 -0.35000
C 	C 	0.67254 0.30655 0.82531 0.30500
O 	O 	0.69781 0.34430 0.00833 -0.63800
O 	O 	0.64029 0.25494 0.92841 -0.64000
O 	O 	0.67800 0.19670 0.00121 -0.34500
O 	O 	0.75371 0.26117 0.95630 -0.44000
O 	O 	0.62996 0.32005 0.09299 -0.36900
O 	O 	0.74264 0.44100 0.95082 -0.37900
C 	C 	0.73559 0.47497 0.98518 0.30400
C 	C 	0.52758 0.24043 0.97704 0.30600
O 	O 	0.56888 0.29869 0.97059 -0.37600
O 	O 	0.68675 0.44763 0.00947 -0.36500
O 	O 	0.65671 0.25232 0.07472 -0.33900
C 	C 	0.73281 0.21927 0.98650 0.29700
O 	O 	0.69645 0.35456 0.86387 -0.38000
O 	O 	0.66488 0.25418 0.83285 -0.40000
H 	H 	0.74237 0.36966 0.02749 0.16800
H 	H 	0.59719 0.23152 0.90686 0.18600
Cu	Cu	0.72610 0.33114 0.43207 0.93100
Cu	Cu	0.72929 0.28221 0.54012 0.87500
Cu	Cu	0.62713 0.29246 0.50112 0.89900
Cu	Cu	0.60272 0.32266 0.40022 0.89900
C 	C 	0.67506 0.31150 0.32545 0.30400
O 	O 	0.75880 0.42262 0.43324 -0.33500
C 	C 	0.67568 0.31516 0.61304 0.30400
O 	O 	0.62668 0.27583 0.42922 -0.64000
O 	O 	0.72128 0.33900 0.50586 -0.64000
O 	O 	0.77452 0.29460 0.43369 -0.36100
O 	O 	0.71094 0.22330 0.48167 -0.43700
O 	O 	0.64716 0.33723 0.34028 -0.37100
O 	O 	0.53501 0.24234 0.49187 -0.38100
C 	C 	0.49797 0.24883 0.46029 0.31500
C 	C 	0.72935 0.44435 0.45265 0.30300
O 	O 	0.67077 0.40423 0.46023 -0.39100
O 	O 	0.51826 0.28081 0.42237 -0.37700
O 	O 	0.71446 0.30978 0.35881 -0.34000
C 	C 	0.75100 0.24082 0.44973 0.31400
O 	O 	0.62718 0.29557 0.57580 -0.37700
O 	O 	0.72690 0.32085 0.60321 -0.40000
H 	H 	0.60035 0.23029 0.41338 0.17300
H 	H 	0.74695 0.38292 0.52562 0.18500
C 	C 	0.71790 0.36965 0.75693 -0.03800
C 	C 	0.66619 0.31627 0.77204 -0.08500
C 	C 	0.61221 0.26869 0.73463 0.12500
C 	C 	0.61360 0.27119 0.68238 -0.03900
C 	C 	0.66821 0.32128 0.66707 -0.08400
C 	C 	0.71891 0.37259 0.70470 0.12400
Br	Br	0.78908 0.44758 0.68557 -0.23900
H 	H 	0.75852 0.40772 0.78563 0.06800
H 	H 	0.57330 0.23275 0.65366 0.06800
Br	Br	0.53581 0.20067 0.75416 -0.24100
C 	C 	0.62102 0.24710 0.23769 -0.03800
C 	C 	0.67564 0.30059 0.27034 -0.07700
C 	C 	0.72661 0.34751 0.24912 0.12800
C 	C 	0.72109 0.34204 0.19564 -0.03900
C 	C 	0.66497 0.29033 0.16303 -0.07700
C 	C 	0.61538 0.24182 0.18421 0.12800
Br	Br	0.53815 0.16970 0.14080 -0.21200
H 	H 	0.58183 0.21074 0.25385 0.06000
H 	H 	0.75951 0.37930 0.17947 0.05700
Br	Br	0.80252 0.42125 0.29248 -0.21400
C 	C 	0.84972 0.72886 0.40968 -0.09600
C 	C 	0.83594 0.70690 0.45604 -0.00800
C 	C 	0.84743 0.74838 0.50030 0.14000
C 	C 	0.87461 0.81195 0.49834 -0.07500
C 	C 	0.88995 0.83433 0.45227 -0.05200
C 	C 	0.87695 0.79240 0.40771 0.15700
C 	C 	0.80844 0.64012 0.45787 0.01200
O 	O 	0.83402 0.72738 0.54585 -0.27500
H 	H 	0.88496 0.84415 0.53287 0.06500
O 	O 	0.89022 0.81333 0.36211 -0.28000
H 	H 	0.83986 0.69678 0.37526 0.07300
C 	C 	0.74208 0.59294 0.44400 0.11800
C 	C 	0.71649 0.52936 0.44368 -0.03100
C 	C 	0.75685 0.51212 0.45656 -0.11600
C 	C 	0.82327 0.55966 0.47164 0.19700
C 	C 	0.84881 0.62333 0.47184 -0.10900
O 	O 	0.70204 0.60902 0.43152 -0.27200
H 	H 	0.66532 0.49328 0.43228 0.05600
O 	O 	0.86333 0.54401 0.48564 -0.27900
H 	H 	0.90001 0.65961 0.48271 0.08200
H 	H 	0.93442 0.82749 0.36147 0.15400
H 	H 	0.69778 0.60705 0.39378 0.15000
H 	H 	0.86604 0.54553 0.52329 0.15200
H 	H 	0.78933 0.71198 0.54587 0.15700
C 	C 	0.86535 0.07886 0.39030 -0.09200
C 	C 	0.84536 0.09312 0.43290 -0.00800
C 	C 	0.84959 0.07207 0.47867 0.13300
C 	C 	0.87446 0.03770 0.48176 -0.07300
C 	C 	0.89606 0.02489 0.43963 -0.05700
C 	C 	0.89036 0.04459 0.39342 0.15800
C 	C 	0.82150 0.13148 0.43007 0.01200
O 	O 	0.82892 0.08460 0.52024 -0.28000
H 	H 	0.87841 0.02237 0.51734 0.06200
O 	O 	0.91116 0.03222 0.35188 -0.28500
H 	H 	0.86206 0.09484 0.35494 0.07900
C 	C 	0.86440 0.19811 0.44177 0.11400
C 	C 	0.84105 0.23402 0.44450 -0.03100
C 	C 	0.77494 0.20377 0.43684 -0.12700
C 	C 	0.73210 0.13715 0.42290 0.19700
C 	C 	0.75554 0.10138 0.41922 -0.11300
O 	O 	0.92913 0.22817 0.45072 -0.26700
H 	H 	0.87436 0.28525 0.45483 0.05800
O 	O 	0.66741 0.10707 0.41188 -0.28700
H 	H 	0.72233 0.05011 0.40929 0.08000
H 	H 	0.87358 0.99052 0.33209 0.15700
H 	H 	0.94131 0.23283 0.48827 0.14200
H 	H 	0.65231 0.09530 0.44459 0.15200
H 	H 	0.86684 0.12580 0.54044 0.14200
C 	C 	0.18791 0.07349 0.41676 -0.09300
C 	C 	0.22972 0.11273 0.46313 -0.00900
C 	C 	0.20506 0.11742 0.50657 0.14000
C 	C 	0.13889 0.08299 0.50332 -0.07500
C 	C 	0.09707 0.04325 0.45708 -0.05200
C 	C 	0.12177 0.03900 0.41354 0.15100
C 	C 	0.29928 0.14878 0.46605 0.01300
O 	O 	0.24560 0.15641 0.55190 -0.27600
H 	H 	0.12005 0.08664 0.53689 0.06600
O 	O 	0.08126 0.99991 0.36821 -0.27400
H 	H 	0.20673 0.06969 0.38323 0.07000
C 	C 	0.32898 0.11906 0.47263 0.11500
C 	C 	0.39446 0.15267 0.47249 -0.02900
C 	C 	0.43050 0.21571 0.46510 -0.12100
C 	C 	0.40108 0.24603 0.46025 0.19700
C 	C 	0.33558 0.21233 0.46031 -0.11200
O 	O 	0.29426 0.05750 0.47999 -0.27100
H 	H 	0.41685 0.12919 0.47683 0.05900
O 	O 	0.43604 0.30826 0.45467 -0.28600
H 	H 	0.31292 0.23549 0.45555 0.08200
H 	H 	0.07444 0.02658 0.34925 0.15100
H 	H 	0.27848 0.03121 0.44506 0.14800
H 	H 	0.45206 0.33324 0.49016 0.15500
H 	H 	0.25197 0.12954 0.57098 0.15700
C 	C 	0.92827 0.78844 0.02922 -0.09000
C 	C 	0.87208 0.74352 0.99323 -0.01400
C 	C 	0.84562 0.76380 0.95957 0.14600
C 	C 	0.87690 0.82866 0.96073 -0.08000
C 	C 	0.93396 0.87361 0.99593 -0.04600
C 	C 	0.95851 0.85323 0.03139 0.15000
C 	C 	0.84004 0.67528 0.99203 0.00900
O 	O 	0.78802 0.72040 0.92699 -0.27400
H 	H 	0.85715 0.84399 0.93388 0.06600
O 	O 	0.01272 0.89663 0.06754 -0.27500
H 	H 	0.94830 0.77306 0.05574 0.06900
C 	C 	0.83745 0.63727 0.94959 0.11900
C 	C 	0.80407 0.57202 0.94773 -0.03200
C 	C 	0.77535 0.54462 0.98911 -0.12100
C 	C 	0.78259 0.58388 0.03337 0.19700
C 	C 	0.81337 0.64851 0.03406 -0.11000
O 	O 	0.86643 0.66360 0.90944 -0.27300
H 	H 	0.79995 0.54273 0.91386 0.06900
O 	O 	0.75918 0.55907 0.07577 -0.28600
H 	H 	0.81683 0.67796 0.06747 0.07900
H 	H 	0.99742 0.90468 0.09780 0.14800
H 	H 	0.91053 0.67648 0.91846 0.14800
H 	H 	0.79463 0.56275 0.09723 0.14500
H 	H 	0.79888 0.71244 0.89388 0.16300
C 	C 	0.89265 0.11033 0.96132 -0.09700
C 	C 	0.87561 0.11965 0.00780 -0.00900
C 	C 	0.89309 0.10378 0.05187 0.14400
C 	C 	0.92624 0.07747 0.04890 -0.08300
C 	C 	0.94263 0.06745 0.00221 -0.03300
C 	C 	0.92566 0.08396 0.95829 0.14500
C 	C 	0.83895 0.14549 0.00995 0.01600
O 	O 	0.87627 0.11229 0.09744 -0.27300
H 	H 	0.93888 0.06452 0.08277 0.06800
O 	O 	0.94177 0.07479 0.91251 -0.27900
H 	H 	0.87970 0.12298 0.92738 0.06500
C 	C 	0.87069 0.21136 0.01776 0.11500
C 	C 	0.83541 0.23535 0.01332 -0.03300
C 	C 	0.76840 0.19394 0.00021 -0.11500
C 	C 	0.73658 0.12798 0.99439 0.18400
C 	C 	0.77195 0.10413 0.99973 -0.11500
O 	O 	0.93620 0.25234 0.02989 -0.26700
H 	H 	0.86024 0.28617 0.01862 0.05900
O 	O 	0.67107 0.08676 0.98250 -0.27500
H 	H 	0.74731 0.05333 0.99415 0.07900
H 	H 	0.90521 0.03137 0.89473 0.14800
H 	H 	0.95057 0.25973 0.99642 0.14200
H 	H 	0.66029 0.07640 0.94437 0.13700
H 	H 	0.91247 0.15575 0.11545 0.15900
C 	C 	0.21883 0.11782 0.93144 -0.09000
C 	C 	0.26337 0.13328 0.97500 -0.01400
C 	C 	0.24422 0.12233 0.02285 0.14600
C 	C 	0.18076 0.09552 0.02676 -0.07400
C 	C 	0.13577 0.07837 0.98297 -0.04600
C 	C 	0.15501 0.08992 0.93520 0.15200
C 	C 	0.33018 0.16145 0.97069 0.01600
O 	O 	0.28769 0.13844 0.06590 -0.27500
H 	H 	0.16607 0.08644 0.06359 0.07000
O 	O 	0.11162 0.07435 0.89228 -0.27700
H 	H 	0.23353 0.12674 0.89460 0.07100
C 	C 	0.34743 0.12272 0.95261 0.11500
C 	C 	0.41197 0.14897 0.95388 -0.02600
C 	C 	0.45955 0.21390 0.97281 -0.11800
C 	C 	0.44195 0.25273 0.99024 0.19600
C 	C 	0.37745 0.22652 0.98833 -0.11500
O 	O 	0.30154 0.05878 0.93584 -0.27000
H 	H 	0.42502 0.11874 0.94053 0.06300
O 	O 	0.48775 0.31606 0.00990 -0.28800
H 	H 	0.36429 0.25649 0.00219 0.08800
H 	H 	0.09367 0.03024 0.87666 0.15000
H 	H 	0.28836 0.05357 0.89836 0.14800
H 	H 	0.49864 0.31872 0.04730 0.14800
H 	H 	0.28608 0.10024 0.06727 0.16000
