data_crystal

_cell_length_a 21.53544
_cell_length_b 18.74092
_cell_length_c 44.48836
_cell_angle_alpha 90.68472
_cell_angle_beta  91.34452
_cell_angle_gamma 110.88872

_symmetry_space_group_name_	'P 1'
_symmetry_space_group_name_H-M	'P 1'

loop_
_symmetry_equiv_pos_as_xyz
  x,y,z

loop_
_atom_site_label
_atom_site_type_symbol
_atom_site_fract_x
_atom_site_fract_y
_atom_site_fract_z
_atom_site_charge
O 	O 	0.02628 0.88122 0.72418 -0.70000
Ni	Ni	0.07552 0.93203 0.68797 1.09100
O 	O 	0.07701 0.00021 0.77132 -0.35800
O 	O 	0.07264 0.13527 0.75570 -0.42100
O 	O 	0.09756 0.84202 0.67135 -0.37800
O 	O 	0.04323 0.01599 0.70419 -0.68700
O 	O 	0.14037 0.00167 0.65846 -0.36000
O 	O 	0.16929 0.12184 0.67870 -0.39900
Ni	Ni	0.11325 0.11223 0.71713 1.06900
H 	H 	0.05701 0.86923 0.73842 0.15200
O 	O 	0.16149 0.05175 0.73871 -0.42300
C 	C 	0.04875 0.77540 0.66681 0.28000
C 	C 	0.13964 0.01662 0.76386 0.27700
C 	C 	0.18662 0.06661 0.66729 0.28000
C 	C 	0.00824 0.11983 0.75866 0.35200
Ni	Ni	0.25353 0.67579 0.40059 1.09900
O 	O 	0.19295 0.69184 0.36732 -0.36900
O 	O 	0.25524 0.81959 0.36527 -0.40800
O 	O 	0.24185 0.57249 0.38071 -0.38600
O 	O 	0.22690 0.60844 0.46902 -0.41800
O 	O 	0.32983 0.68461 0.42920 -0.70100
O 	O 	0.17135 0.62634 0.42639 -0.37400
Ni	Ni	0.30738 0.59110 0.45235 1.06900
H 	H 	0.32766 0.68502 0.35494 0.15400
H 	H 	0.33613 0.72799 0.44331 0.15300
O 	O 	0.24272 0.51065 0.42433 -0.39800
C 	C 	0.20117 0.76042 0.35746 0.27100
C 	C 	0.24516 0.51302 0.39500 0.29200
C 	C 	0.17154 0.59380 0.45265 0.32000
O 	O 	0.26615 0.67115 0.01586 -0.69900
Ni	Ni	0.20613 0.69826 0.04426 1.09800
Ni	Ni	0.22071 0.56813 0.99920 1.06900
O 	O 	0.15922 0.50558 0.03170 -0.39300
O 	O 	0.11704 0.66232 0.02010 -0.37100
O 	O 	0.29364 0.72825 0.06891 -0.70300
O 	O 	0.16566 0.74793 0.07602 -0.36700
O 	O 	0.25115 0.86147 0.07138 -0.41400
H 	H 	0.27606 0.70749 0.99913 0.15300
H 	H 	0.28807 0.70352 0.08872 0.15300
C 	C 	0.13807 0.53228 0.05534 0.29600
C 	C 	0.10130 0.61007 0.99816 0.28700
C 	C 	0.19694 0.81947 0.08481 0.27000
O 	O 	0.17427 0.59872 0.06772 -0.39300
O 	O 	0.14731 0.59967 0.98151 -0.41600
O 	O 	0.09285 0.18147 0.26234 -0.41000
Ni	Ni	0.04849 0.20114 0.22285 1.06700
O 	O 	0.08336 0.12426 0.20287 -0.40600
C 	C 	0.06053 0.09325 0.17644 0.28300
C 	C 	0.06189 0.16620 0.28790 0.27500
C 	C 	0.99504 0.37767 0.16883 -0.03800
C 	C 	0.02789 0.44081 0.15128 -0.02700
C 	C 	0.03226 0.43123 0.12018 0.02400
C 	C 	0.99608 0.35975 0.10625 0.00400
C 	C 	0.99836 0.35072 0.07503 -0.08600
C 	C 	0.04107 0.40959 0.05817 0.03800
C 	C 	0.08320 0.47778 0.07238 -0.07500
C 	C 	0.07595 0.49016 0.10319 -0.01400
H 	H 	0.99678 0.38461 0.19309 0.01300
H 	H 	0.05294 0.49611 0.16211 0.03500
H 	H 	0.04323 0.40104 0.03415 0.03600
H 	H 	0.10617 0.54368 0.11415 0.04500
C 	C 	0.16340 0.85776 0.10406 -0.07500
C 	C 	0.13525 0.82445 0.13094 0.00200
C 	C 	0.11305 0.86620 0.15162 -0.06300
C 	C 	0.11856 0.94154 0.14549 0.02100
C 	C 	0.14527 0.97441 0.11807 -0.00300
C 	C 	0.16690 0.93209 0.09740 -0.01500
C 	C 	0.15000 0.04926 0.11171 -0.03800
C 	C 	0.12615 0.09022 0.13191 0.00100
C 	C 	0.09821 0.05726 0.15883 -0.05700
C 	C 	0.09647 0.98392 0.16607 -0.03700
H 	H 	0.13250 0.76714 0.13623 0.02900
H 	H 	0.09210 0.84017 0.17246 0.03900
H 	H 	0.18762 0.95737 0.07638 0.04300
H 	H 	0.17091 0.07520 0.09085 0.04500
H 	H 	0.07575 0.95893 0.18711 0.02500
C 	C 	0.09295 0.21173 0.31505 -0.07100
C 	C 	0.05415 0.21304 0.33985 0.00300
C 	C 	0.08020 0.26695 0.36311 -0.05300
C 	C 	0.14480 0.32098 0.36147 0.01300
C 	C 	0.18543 0.31661 0.33755 0.01500
C 	C 	0.15985 0.26052 0.31493 -0.02500
C 	C 	0.24925 0.37207 0.33536 -0.06000
C 	C 	0.27041 0.43471 0.35530 0.00700
C 	C 	0.22879 0.44120 0.37808 -0.07300
C 	C 	0.16745 0.38255 0.38206 -0.01200
H 	H 	0.00291 0.17450 0.34049 0.04700
H 	H 	0.04910 0.26887 0.38168 0.05000
H 	H 	0.19084 0.25747 0.29644 0.04300
H 	H 	0.28124 0.36853 0.31740 0.04000
H 	H 	0.31829 0.47945 0.35246 0.02000
H 	H 	0.13565 0.38752 0.39991 0.05000
C 	C 	0.02814 0.73899 0.27959 -0.01300
C 	C 	0.05511 0.76118 0.30877 -0.01300
C 	C 	0.02864 0.80466 0.32719 0.05900
C 	C 	0.05717 0.82988 0.35584 -0.07200
C 	C 	0.11399 0.81612 0.36543 0.01800
C 	C 	0.14186 0.77517 0.34688 -0.07600
C 	C 	0.11108 0.74536 0.31898 -0.00800
H 	H 	0.04648 0.70364 0.26553 0.03100
H 	H 	0.13645 0.83731 0.38736 0.03400
H 	H 	0.13189 0.71233 0.30492 0.02900
C 	C 	0.05618 0.49976 0.47176 0.07500
C 	C 	0.10941 0.54314 0.46382 -0.10800
C 	C 	0.34456 0.04632 0.63976 -0.06300
C 	C 	0.28165 0.02914 0.65184 0.02100
C 	C 	0.25402 0.08619 0.65514 -0.07400
C 	C 	0.29065 0.16143 0.64670 -0.01600
H 	H 	0.25434 0.97133 0.65868 0.02000
H 	H 	0.26963 0.20577 0.64917 0.04200
C 	C 	0.06385 0.67146 0.63693 -0.01900
H 	H 	0.10364 0.67012 0.65201 0.03900
H 	H 	0.04446 0.55780 0.61941 0.03800
C 	C 	0.03318 0.57491 0.98851 -0.04700
C 	C 	0.30499 0.03394 0.79799 0.00700
C 	C 	0.23443 0.04966 0.83760 -0.05800
C 	C 	0.18027 0.02863 0.81723 0.01000
C 	C 	0.18882 0.01370 0.78688 -0.07700
C 	C 	0.24998 0.01075 0.77791 -0.00400
H 	H 	0.13275 0.02878 0.82462 0.04800
H 	H 	0.25590 0.99604 0.75475 0.02000
Ni	Ni	0.71082 0.32968 0.89268 1.09900
O 	O 	0.62816 0.25937 0.86933 -0.70400
Ni	Ni	0.55650 0.27275 0.89369 1.10200
O 	O 	0.77221 0.30529 0.86313 -0.36700
O 	O 	0.71935 0.17649 0.86848 -0.40600
O 	O 	0.70310 0.41202 0.86452 -0.39600
Ni	Ni	0.61670 0.15201 0.86794 1.06500
O 	O 	0.73934 0.43242 0.95625 -0.41900
O 	O 	0.61547 0.14215 0.91364 -0.41600
O 	O 	0.47954 0.21196 0.86570 -0.37700
O 	O 	0.63877 0.32767 0.92042 -0.70300
O 	O 	0.79225 0.40794 0.91467 -0.38100
O 	O 	0.49573 0.31671 0.91633 -0.37400
O 	O 	0.57184 0.43650 0.91171 -0.42100
Ni	Ni	0.65677 0.43323 0.93362 1.07100
H 	H 	0.62543 0.27735 0.84868 0.15300
H 	H 	0.64073 0.29664 0.93802 0.15800
C 	C 	0.56185 0.13657 0.92834 0.30900
O 	O 	0.71661 0.50077 0.90201 -0.39700
C 	C 	0.76070 0.23460 0.85396 0.26600
C 	C 	0.47662 0.14563 0.85389 0.27200
C 	C 	0.71389 0.48260 0.87329 0.30100
C 	C 	0.51307 0.39099 0.91996 0.29200
C 	C 	0.79371 0.43306 0.94276 0.31100
O 	O 	0.52796 0.18102 0.92206 -0.37000
O 	O 	0.51461 0.10917 0.86496 -0.40400
Ni	Ni	0.63716 0.30833 0.54535 1.09900
O 	O 	0.71280 0.31525 0.51713 -0.70200
Ni	Ni	0.77785 0.29366 0.54547 1.09900
O 	O 	0.59632 0.36952 0.51855 -0.37600
O 	O 	0.69680 0.46553 0.51384 -0.42100
O 	O 	0.57490 0.21138 0.52279 -0.37000
Ni	Ni	0.75700 0.41034 0.49652 1.06900
O 	O 	0.55396 0.16641 0.58047 -0.40400
O 	O 	0.83331 0.47023 0.52576 -0.39900
O 	O 	0.86302 0.32307 0.52048 -0.37300
O 	O 	0.69591 0.27169 0.57138 -0.70400
O 	O 	0.56386 0.29220 0.57547 -0.37900
O 	O 	0.82217 0.24725 0.57737 -0.37100
O 	O 	0.73309 0.13476 0.57526 -0.40600
Ni	Ni	0.64839 0.16360 0.57781 1.06400
H 	H 	0.69782 0.27363 0.50175 0.15500
H 	H 	0.70635 0.30053 0.59077 0.15300
C 	C 	0.83298 0.46465 0.55511 0.29400
O 	O 	0.63513 0.13615 0.53326 -0.41700
C 	C 	0.63197 0.43768 0.50911 0.28900
C 	C 	0.87157 0.36097 0.49500 0.30300
C 	C 	0.59019 0.15094 0.51690 0.31200
C 	C 	0.79198 0.17689 0.58674 0.26700
C 	C 	0.53826 0.22597 0.58911 0.27000
O 	O 	0.81389 0.39748 0.56797 -0.39000
O 	O 	0.82038 0.36428 0.47893 -0.41900
O 	O 	0.33275 0.71704 0.37335 -0.70700
Ni	Ni	0.40628 0.70995 0.39970 1.09900
Ni	Ni	0.35362 0.82304 0.36282 1.06300
O 	O 	0.36651 0.86282 0.40640 -0.41400
O 	O 	0.47746 0.74111 0.36814 -0.37300
O 	O 	0.46768 0.67611 0.42770 -0.37400
O 	O 	0.38459 0.56227 0.43548 -0.41800
C 	C 	0.41864 0.86599 0.42289 0.30200
C 	C 	0.48431 0.80094 0.35115 0.26600
C 	C 	0.44675 0.60789 0.43948 0.28700
O 	O 	0.44974 0.81837 0.41794 -0.37300
O 	O 	0.45453 0.84999 0.35817 -0.40400
Ni	Ni	0.34954 0.69005 0.04250 1.09900
O 	O 	0.38953 0.62825 0.01585 -0.37400
O 	O 	0.29249 0.52603 0.01429 -0.41400
O 	O 	0.40366 0.78320 0.01753 -0.36800
O 	O 	0.43471 0.84120 0.07483 -0.41100
O 	O 	0.42959 0.71677 0.07123 -0.37800
Ni	Ni	0.33866 0.83859 0.07321 1.06300
O 	O 	0.34207 0.85618 0.02828 -0.41900
C 	C 	0.35457 0.55832 0.00673 0.29700
C 	C 	0.38698 0.84296 0.01226 0.30700
C 	C 	0.45398 0.78523 0.08426 0.27300
O 	O 	0.87581 0.01072 0.27286 -0.36500
O 	O 	0.86348 0.01543 0.15611 -0.36300
O 	O 	0.83176 0.89299 0.17170 -0.40400
Ni	Ni	0.86349 0.89306 0.21607 1.06500
O 	O 	0.80992 0.95478 0.23132 -0.43100
C 	C 	0.81626 0.97907 0.25944 0.27900
C 	C 	0.81627 0.94903 0.16032 0.27100
O 	O 	0.02679 0.23722 0.18209 -0.38200
C 	C 	0.75216 0.93004 0.14364 -0.06700
C 	C 	0.74401 0.97836 0.12115 -0.01200
C 	C 	0.68343 0.95983 0.10529 -0.05200
C 	C 	0.63027 0.89279 0.11164 0.01000
C 	C 	0.63792 0.84424 0.13433 0.01300
C 	C 	0.69860 0.86348 0.15043 -0.02400
C 	C 	0.58486 0.77677 0.14047 -0.05900
C 	C 	0.52476 0.75749 0.12408 0.00000
C 	C 	0.51692 0.80578 0.10164 -0.07200
C 	C 	0.56973 0.87342 0.09547 -0.01900
H 	H 	0.78471 0.03003 0.11579 0.05300
H 	H 	0.67797 0.99750 0.08795 0.03900
H 	H 	0.70419 0.82687 0.16819 0.03000
H 	H 	0.59021 0.73910 0.15783 0.03800
H 	H 	0.48415 0.70524 0.12895 0.02600
H 	H 	0.56397 0.91024 0.07782 0.04600
H 	H 	0.12750 0.14681 0.12623 0.04100
C 	C 	0.75605 0.96002 0.27763 -0.09400
C 	C 	0.75138 0.01111 0.30005 0.04100
C 	C 	0.69576 0.99129 0.31827 -0.09500
C 	C 	0.64461 0.91961 0.31455 0.03000
C 	C 	0.64911 0.86796 0.29205 -0.00200
C 	C 	0.70446 0.88872 0.27349 -0.00600
C 	C 	0.59888 0.79557 0.28879 -0.05100
C 	C 	0.54496 0.77420 0.30795 -0.00700
C 	C 	0.53997 0.82524 0.33027 -0.06400
C 	C 	0.58961 0.89828 0.33340 -0.03000
H 	H 	0.79079 0.06620 0.30338 0.02300
H 	H 	0.69286 0.03138 0.33544 0.05800
H 	H 	0.70823 0.84880 0.25640 0.02500
H 	H 	0.60187 0.75550 0.27163 0.03500
H 	H 	0.50697 0.71784 0.30543 0.02500
H 	H 	0.58618 0.93755 0.35084 0.04700
C 	C 	0.54973 0.09408 0.49584 -0.10600
C 	C 	0.51632 0.04412 0.47877 0.05400
C 	C 	0.47897 0.98351 0.45926 0.01500
C 	C 	0.44955 0.93032 0.44270 -0.09300
C 	C 	0.59922 0.48247 0.49417 -0.10400
C 	C 	0.56868 0.51656 0.48145 0.03100
C 	C 	0.52952 0.55241 0.46654 0.02900
C 	C 	0.49324 0.57961 0.45399 -0.10100
C 	C 	0.83090 0.13792 0.60305 -0.07400
C 	C 	0.89983 0.16064 0.59941 0.00700
C 	C 	0.83215 0.02525 0.62958 0.01400
C 	C 	0.79762 0.07145 0.61909 -0.02200
C 	C 	0.79864 0.95707 0.64443 -0.06800
C 	C 	0.83318 0.91065 0.65439 -0.00900
H 	H 	0.74465 0.05459 0.62253 0.02600
H 	H 	0.74591 0.94008 0.64837 0.03600
H 	H 	0.80684 0.85894 0.66624 0.03700
C 	C 	0.47731 0.21129 0.60682 -0.06600
C 	C 	0.45137 0.26950 0.61162 0.00100
C 	C 	0.39005 0.25334 0.62528 -0.05400
C 	C 	0.35385 0.17888 0.63438 0.01000
C 	C 	0.38068 0.12080 0.63069 0.01800
C 	C 	0.44264 0.13747 0.61733 -0.02500
H 	H 	0.47808 0.32702 0.60435 0.04000
H 	H 	0.37037 0.29861 0.62838 0.04100
H 	H 	0.46304 0.09269 0.61453 0.03800
H 	H 	0.36490 0.00145 0.63722 0.04500
C 	C 	0.89708 0.66723 0.58490 -0.07400
C 	C 	0.85572 0.59889 0.57115 0.01300
C 	C 	0.87184 0.53284 0.57302 -0.08400
H 	H 	0.88352 0.71755 0.58356 0.04900
H 	H 	0.81132 0.59739 0.55876 0.02800
C 	C 	0.53145 0.07129 0.94670 -0.10300
C 	C 	0.50134 0.01689 0.96153 0.05200
C 	C 	0.46261 0.95433 0.97867 0.01500
C 	C 	0.42818 0.90245 0.99358 -0.09400
C 	C 	0.47397 0.42134 0.93806 -0.11100
C 	C 	0.44369 0.44930 0.95379 0.03000
C 	C 	0.41086 0.48474 0.97245 0.03100
C 	C 	0.38450 0.51723 0.98830 -0.11000
C 	C 	0.80290 0.22042 0.83107 -0.06300
C 	C 	0.77591 0.19395 0.80234 -0.01100
C 	C 	0.87098 0.23760 0.83727 -0.03800
H 	H 	0.72366 0.18214 0.79731 0.00900
C 	C 	0.41750 0.10170 0.83569 -0.06700
C 	C 	0.42430 0.07464 0.80691 -0.00200
C 	C 	0.36825 0.04073 0.78812 -0.05300
C 	C 	0.29762 0.05632 0.82775 0.01800
C 	C 	0.35402 0.08968 0.84654 -0.01700
H 	H 	0.47320 0.08222 0.79873 0.01400
H 	H 	0.37432 0.02231 0.76555 0.04000
H 	H 	0.34884 0.10870 0.86917 0.05200
H 	H 	0.22786 0.06440 0.86064 0.05000
C 	C 	0.73464 0.54387 0.85100 -0.07500
C 	C 	0.70916 0.52936 0.82129 0.00700
C 	C 	0.73302 0.58466 0.79939 -0.06100
C 	C 	0.78299 0.65506 0.80689 0.01200
C 	C 	0.80741 0.67098 0.83692 0.01100
C 	C 	0.78280 0.61546 0.85891 -0.01700
C 	C 	0.85753 0.74127 0.84438 -0.05900
C 	C 	0.86281 0.77761 0.79187 -0.08100
C 	C 	0.81029 0.70875 0.78456 -0.02900
H 	H 	0.67129 0.47485 0.81508 0.02900
H 	H 	0.71339 0.57218 0.77649 0.03800
H 	H 	0.80261 0.62695 0.88182 0.04600
H 	H 	0.79185 0.69615 0.76148 0.03500
O 	O 	0.88333 0.80817 0.73939 -0.42400
C 	C 	0.90081 0.04673 0.62462 0.03100
C 	C 	0.90154 0.93154 0.64938 -0.06500
C 	C 	0.04173 0.73338 0.63827 -0.02700
C 	C 	0.02923 0.60702 0.61896 -0.00800
C 	C 	0.85704 0.47174 0.95728 -0.11100
H 	H 	0.06363 0.21039 0.80786 0.01500
O 	O 	0.00900 0.10418 0.29020 -0.35400
O 	O 	0.00424 0.09495 0.16532 -0.35300
C 	C 	0.81620 0.18313 0.77994 -0.04100
C 	C 	0.01443 0.20906 0.80135 0.11300
H 	H 	0.79454 0.16213 0.75787 0.03300
O 	O 	0.88269 0.86241 0.25831 -0.41500
H 	H 	0.03678 0.86251 0.37028 0.05600
H 	H 	0.89192 0.25915 0.85942 0.04500
H 	H 	0.87609 0.75444 0.86741 0.04100
C 	C 	0.88515 0.79416 0.82202 0.00100
O 	O 	0.90977 0.82294 0.67627 -0.39500
C 	C 	0.88360 0.19660 0.78634 -0.02200
H 	H 	0.01127 0.02676 0.69032 0.16000
C 	C 	0.89768 0.82929 0.76772 0.27200
C 	C 	0.93057 0.53579 0.58829 0.00200
H 	H 	0.92501 0.84725 0.82807 0.03700
H 	H 	0.92616 0.21189 0.58729 0.03900
C 	C 	0.95485 0.67011 0.60091 0.04500
C 	C 	0.94005 0.88705 0.66239 0.23400
C 	C 	0.93456 0.11531 0.61012 -0.07000
C 	C 	0.93492 0.99940 0.63413 -0.07000
C 	C 	0.91156 0.50484 0.96821 0.05100
C 	C 	0.91136 0.22450 0.81513 0.05800
H 	H 	0.90017 0.15282 0.74342 0.01700
H 	H 	0.97770 0.78551 0.61742 0.05700
Ni	Ni	0.92251 0.07833 0.19101 1.09500
O 	O 	0.91509 0.17465 0.17245 -0.37300
C 	C 	0.93783 0.40751 0.48676 -0.08200
C 	C 	0.92199 0.17625 0.76525 0.02500
O 	O 	0.94316 0.89622 0.77449 -0.38200
Ni	Ni	0.95229 0.78687 0.71231 1.05600
O 	O 	0.93948 0.98826 0.21182 -0.70100
H 	H 	0.93094 0.15030 0.24058 0.15300
C 	C 	0.94333 0.87765 0.26958 0.27200
H 	H 	0.94401 0.48526 0.58901 0.03600
C 	C 	0.97218 0.60425 0.60232 -0.03600
H 	H 	0.93959 0.24045 0.11362 0.04800
H 	H 	0.95993 0.86468 0.32930 0.05100
C 	C 	0.99246 0.73593 0.61759 -0.07300
O 	O 	0.96638 0.04939 0.75554 -0.41600
Ni	Ni	0.96786 0.03627 0.25318 1.09500
O 	O 	0.95997 0.12681 0.23075 -0.72200
C 	C 	0.96057 0.81800 0.28486 -0.05400
O 	O 	0.98277 0.94854 0.27431 -0.39600
H 	H 	0.96584 0.75678 0.24414 0.01500
C 	C 	0.96280 0.29667 0.12406 -0.02600
H 	H 	0.96883 0.29716 0.06391 0.04800
H 	H 	0.97618 0.97583 0.20307 0.14200
C 	C 	0.97846 0.82876 0.31557 -0.05800
H 	H 	0.98751 0.13286 0.60663 0.04000
H 	H 	0.98770 0.01616 0.63024 0.05200
C 	C 	0.97803 0.23438 0.82187 -0.15400
C 	C 	0.97664 0.54326 0.97967 -0.02000
C 	C 	0.96773 0.30421 0.15557 -0.05500
C 	C 	0.96803 0.23864 0.17340 0.24200
C 	C 	0.98122 0.76774 0.26763 -0.04700
C 	C 	0.98481 0.17519 0.77376 -0.17100
O 	O 	0.00230 0.90519 0.65563 -0.36200
C 	C 	0.99273 0.44920 0.48003 -0.00600
Ni	Ni	0.99660 0.96470 0.74123 1.08000
O 	O 	0.00993 0.74133 0.68887 -0.40200
H 	H 	0.00043 0.25752 0.84361 0.08500
