data_crystal

_cell_length_a 12.97565
_cell_length_b 18.53623
_cell_length_c 49.22263
_cell_angle_alpha 90.42844
_cell_angle_beta  90.43214
_cell_angle_gamma 119.47262

_symmetry_space_group_name_	'P 1'
_symmetry_space_group_name_H-M	'P 1'

loop_
_symmetry_equiv_pos_as_xyz
  x,y,z

loop_
_atom_site_label
_atom_site_type_symbol
_atom_site_fract_x
_atom_site_fract_y
_atom_site_fract_z
_atom_site_charge
C 	C 	0.24349 0.22455 0.94864 0.30000
C 	C 	0.18344 0.01416 0.93943 0.30700
Ni	Ni	0.32420 0.15570 0.90460 1.12500
Ni	Ni	0.38399 0.15298 0.96888 1.12200
O 	O 	0.49915 0.11155 0.97502 -0.38400
O 	O 	0.21385 0.18423 0.92513 -0.36200
O 	O 	0.25103 0.03580 0.96165 -0.36400
O 	O 	0.23041 0.03654 0.91511 -0.37400
O 	O 	0.26632 0.19214 0.96977 -0.38100
H 	H 	0.43497 0.12068 0.93072 0.14700
C 	C 	0.30011 0.06022 0.64421 0.31200
C 	C 	0.40203 0.15162 0.72494 0.32100
C 	C 	0.49150 0.27600 0.61521 0.28700
Ni	Ni	0.40306 0.22775 0.67147 1.11800
O 	O 	0.47677 0.32884 0.69895 -0.34500
O 	O 	0.29415 0.12891 0.64579 -0.36200
O 	O 	0.39979 0.06126 0.65010 -0.36400
O 	O 	0.34020 0.14420 0.70292 -0.35400
O 	O 	0.51134 0.21343 0.72777 -0.35700
O 	O 	0.44981 0.29803 0.63637 -0.36500
C 	C 	0.03805 0.93920 0.79636 0.30100
C 	C 	0.88554 0.87817 0.86745 0.29700
Ni	Ni	0.82324 0.93294 0.81711 1.12800
Ni	Ni	0.86431 0.77714 0.81772 1.12700
O 	O 	0.99611 0.96886 0.81475 -0.34800
O 	O 	0.94043 0.85029 0.85118 -0.34600
O 	O 	0.83901 0.92268 0.85746 -0.36100
O 	O 	0.98725 0.85846 0.79221 -0.35500
C 	C 	0.45144 0.83886 0.45326 0.28600
C 	C 	0.51460 0.64975 0.36453 0.31900
C 	C 	0.46678 0.68529 0.46276 0.29000
C 	C 	0.52876 0.86594 0.36047 0.29600
C 	C 	0.78458 0.74391 0.42090 0.30600
C 	C 	0.84818 0.97506 0.40978 0.29600
Ni	Ni	0.44045 0.73584 0.40526 1.11300
Ni	Ni	0.70312 0.81728 0.37951 1.12500
Ni	Ni	0.68060 0.83842 0.44424 1.11900
O 	O 	0.40920 0.81774 0.42812 -0.37000
O 	O 	0.56711 0.87621 0.45847 -0.36800
O 	O 	0.75141 0.73849 0.39525 -0.37600
O 	O 	0.45128 0.63910 0.38625 -0.36700
O 	O 	0.58320 0.72432 0.35548 -0.35800
O 	O 	0.79158 0.95670 0.43319 -0.35700
O 	O 	0.40191 0.66492 0.44032 -0.36700
O 	O 	0.58343 0.72518 0.46159 -0.38600
O 	O 	0.84931 0.91643 0.39462 -0.37200
O 	O 	0.44451 0.79070 0.36769 -0.34200
O 	O 	0.64291 0.88713 0.36107 -0.35600
O 	O 	0.80744 0.80954 0.43574 -0.38200
O 	O 	0.60390 0.80891 0.40954 -0.71300
H 	H 	0.60319 0.86152 0.40768 0.14900
C 	C 	0.47890 0.80248 0.22035 0.29600
C 	C 	0.30638 0.72244 0.10889 0.31000
C 	C 	0.42775 0.60104 0.18075 0.31000
C 	C 	0.36887 0.88869 0.15545 0.28200
C 	C 	0.63975 0.73921 0.12096 0.30100
C 	C 	0.74863 0.95067 0.16286 0.29400
Ni	Ni	0.33926 0.72031 0.16991 1.11800
Ni	Ni	0.54160 0.84876 0.12749 1.12000
Ni	Ni	0.61790 0.77442 0.17834 1.12600
O 	O 	0.39145 0.73204 0.21067 -0.33700
O 	O 	0.58929 0.82654 0.21250 -0.35400
O 	O 	0.66104 0.81522 0.11678 -0.38000
O 	O 	0.25359 0.69507 0.13226 -0.36100
O 	O 	0.41981 0.74888 0.10631 -0.38800
O 	O 	0.75415 0.88192 0.16577 -0.37500
O 	O 	0.35044 0.61191 0.16639 -0.36400
O 	O 	0.51004 0.66294 0.19499 -0.35100
O 	O 	0.67029 0.95318 0.14589 -0.36600
O 	O 	0.31398 0.82347 0.17155 -0.35100
O 	O 	0.41605 0.88384 0.13207 -0.38000
O 	O 	0.63448 0.71289 0.14604 -0.35700
O 	O 	0.49904 0.79194 0.16097 -0.70600
H 	H 	0.51243 0.84117 0.17141 0.13900
C 	C 	0.34781 0.04460 0.25539 0.29600
C 	C 	0.41428 0.35804 0.30415 0.31700
C 	C 	0.38580 0.08906 0.31601 0.31500
C 	C 	0.33748 0.30400 0.23085 0.30400
Ni	Ni	0.42305 0.21919 0.27399 1.11900
O 	O 	0.40138 0.12342 0.24780 -0.33800
O 	O 	0.23996 0.00869 0.26616 -0.36400
O 	O 	0.46354 0.31086 0.30367 -0.34100
O 	O 	0.33332 0.34682 0.28607 -0.38100
O 	O 	0.46394 0.15546 0.30324 -0.33300
O 	O 	0.27949 0.07704 0.32063 -0.36500
O 	O 	0.42728 0.29870 0.24267 -0.34900
O 	O 	0.22713 0.26172 0.23964 -0.35500
O 	O 	0.25725 0.16785 0.27618 -0.71600
H 	H 	0.24005 0.15080 0.25695 0.16300
C 	C 	0.48141 0.43159 0.20656 -0.02800
C 	C 	0.36453 0.36732 0.20960 -0.06300
C 	C 	0.27221 0.37267 0.19588 0.09700
C 	C 	0.29420 0.44823 0.18465 -0.02400
C 	C 	0.40914 0.51646 0.18514 -0.07400
C 	C 	0.50422 0.50510 0.19376 0.10300
N 	N 	0.62390 0.56758 0.18919 -0.02300
H 	H 	0.55451 0.42581 0.21489 0.07800
H 	H 	0.22151 0.45405 0.17607 0.07200
O 	O 	0.69350 0.60642 0.20973 -0.09100
O 	O 	0.66707 0.57821 0.16487 -0.09400
C 	C 	0.84517 0.02740 0.17489 -0.06800
C 	C 	0.81718 0.07393 0.19302 0.10000
N 	N 	0.74989 0.11168 0.18375 -0.02200
O 	O 	0.71137 0.14581 0.20112 -0.09500
O 	O 	0.74302 0.12315 0.15790 -0.09400
C 	C 	0.53751 0.94402 0.24024 -0.02500
C 	C 	0.44851 0.86365 0.23262 -0.06900
C 	C 	0.32899 0.84499 0.23350 0.10100
C 	C 	0.30244 0.90904 0.23553 -0.02800
C 	C 	0.38879 0.98833 0.24431 -0.06800
C 	C 	0.50703 0.00471 0.24806 0.09800
N 	N 	0.59177 0.07714 0.26271 -0.02300
H 	H 	0.62919 0.95859 0.24125 0.07400
H 	H 	0.21108 0.89459 0.23340 0.08800
N 	N 	0.23463 0.76090 0.23439 -0.02300
O 	O 	0.64284 0.06943 0.28447 -0.08700
O 	O 	0.62690 0.15035 0.25283 -0.09300
O 	O 	0.23344 0.71220 0.25343 -0.06400
O 	O 	0.14432 0.73559 0.21788 -0.10300
C 	C 	0.94029 0.06083 0.40476 -0.05200
N 	N 	0.81491 0.12603 0.39867 -0.02300
O 	O 	0.76404 0.09750 0.42184 -0.08600
O 	O 	0.78869 0.17475 0.38499 -0.08100
C 	C 	0.48618 0.50684 0.36269 -0.02100
C 	C 	0.50063 0.57704 0.34888 -0.07700
C 	C 	0.50530 0.57822 0.32025 0.10700
C 	C 	0.49652 0.50985 0.30596 -0.02400
C 	C 	0.47128 0.43688 0.31962 -0.06900
C 	C 	0.47278 0.43717 0.34827 0.10000
H 	H 	0.48418 0.50586 0.38466 0.06700
H 	H 	0.49750 0.51057 0.28393 0.07700
N 	N 	0.50405 0.64395 0.30553 -0.02000
O 	O 	0.59321 0.69150 0.29037 -0.07700
O 	O 	0.40808 0.64958 0.30462 -0.06200
C 	C 	0.53465 0.00166 0.36086 -0.02500
C 	C 	0.49425 0.92357 0.34870 -0.06700
C 	C 	0.41684 0.89972 0.32614 0.10800
C 	C 	0.37755 0.95284 0.31653 -0.03000
C 	C 	0.42211 0.03246 0.32782 -0.06800
C 	C 	0.50060 0.05689 0.35026 0.11900
N 	N 	0.54202 0.13620 0.36302 -0.01800
H 	H 	0.59093 0.01894 0.37880 0.08000
H 	H 	0.31416 0.93266 0.29989 0.06300
N 	N 	0.38326 0.82363 0.31202 -0.02100
O 	O 	0.51914 0.14080 0.38845 -0.06400
O 	O 	0.61443 0.20323 0.35028 -0.05600
O 	O 	0.27450 0.76343 0.31289 -0.07500
O 	O 	0.45910 0.81695 0.29659 -0.06600
C 	C 	0.37075 0.82871 0.47564 -0.08300
C 	C 	0.26069 0.82392 0.47060 0.01800
C 	C 	0.18741 0.81708 0.49234 -0.06800
C 	C 	0.22296 0.81357 0.51904 0.04100
C 	C 	0.32835 0.81216 0.52377 -0.06700
C 	C 	0.40320 0.82175 0.50234 0.02000
C 	C 	0.16740 0.82969 0.54157 -0.01800
C 	C 	0.13166 0.84458 0.56214 -0.01600
C 	C 	0.10788 0.87120 0.58762 0.03800
C 	C 	0.14722 0.85099 0.61148 -0.05900
C 	C 	0.19762 0.90973 0.63248 0.02100
C 	C 	0.20538 0.98758 0.62979 -0.07800
C 	C 	0.14053 0.99897 0.60888 0.01700
C 	C 	0.09091 0.94021 0.58787 -0.06200
H 	H 	0.23366 0.82816 0.45008 0.04400
H 	H 	0.10607 0.81847 0.48852 0.05100
H 	H 	0.35558 0.80832 0.54434 0.05500
H 	H 	0.48636 0.82324 0.50649 0.03400
H 	H 	0.15351 0.79485 0.61223 0.05800
H 	H 	0.24012 0.89769 0.64951 0.06700
H 	H 	0.13893 0.05669 0.60742 0.04700
H 	H 	0.05347 0.95385 0.57019 0.05200
C 	C 	0.09902 0.45707 0.60499 0.04000
C 	C 	0.02357 0.48454 0.61526 -0.07000
C 	C 	0.17060 0.49676 0.58143 -0.01600
C 	C 	0.22912 0.53153 0.56175 -0.01700
C 	C 	0.29124 0.57186 0.53720 0.04000
C 	C 	0.41205 0.59754 0.53431 -0.06600
C 	C 	0.47011 0.63433 0.51004 0.01500
C 	C 	0.40735 0.64554 0.48853 -0.08300
C 	C 	0.28641 0.61962 0.49167 0.01800
C 	C 	0.22919 0.58355 0.51587 -0.06600
H 	H 	0.02944 0.54141 0.60792 0.05400
H 	H 	0.46092 0.58900 0.55073 0.05100
H 	H 	0.56302 0.65324 0.50797 0.03900
H 	H 	0.23712 0.62900 0.47554 0.03800
H 	H 	0.13621 0.56455 0.51800 0.05100
C 	C 	0.77662 0.67139 0.43428 -0.08900
C 	C 	0.66727 0.59805 0.43457 0.03100
C 	C 	0.64337 0.54033 0.45497 -0.06300
C 	C 	0.72883 0.55574 0.47508 0.04800
C 	C 	0.84298 0.62363 0.47278 -0.06800
C 	C 	0.86706 0.68126 0.45229 0.02800
C 	C 	0.69372 0.51120 0.50000 -0.01500
C 	C 	0.66279 0.47323 0.52077 -0.01400
C 	C 	0.62447 0.42811 0.54555 0.04300
C 	C 	0.67887 0.38392 0.55495 -0.06400
C 	C 	0.54060 0.33183 0.59216 -0.08400
C 	C 	0.48842 0.37825 0.58318 0.02200
C 	C 	0.53002 0.42601 0.55983 -0.06700
H 	H 	0.59666 0.59031 0.42095 0.04200
H 	H 	0.55545 0.48708 0.45639 0.06500
H 	H 	0.91055 0.63476 0.48790 0.05400
H 	H 	0.95299 0.73669 0.45171 0.03600
H 	H 	0.41386 0.37558 0.59383 0.03800
H 	H 	0.48762 0.46018 0.55259 0.05200
C 	C 	0.29374 0.13560 0.76752 -0.01300
C 	C 	0.33874 0.10203 0.74858 -0.06400
C 	C 	0.29740 0.01614 0.74838 0.11400
C 	C 	0.20271 0.96376 0.76487 -0.02400
C 	C 	0.14888 0.99641 0.78190 -0.05400
C 	C 	0.19954 0.08388 0.78419 0.11800
N 	N 	0.15671 0.12051 0.80352 -0.01700
H 	H 	0.32766 0.20182 0.76835 0.09200
H 	H 	0.16953 0.89751 0.76390 0.08300
N 	N 	0.35003 0.98160 0.73103 -0.02400
O 	O 	0.20173 0.13805 0.82796 -0.08000
O 	O 	0.08242 0.14456 0.79585 -0.08800
O 	O 	0.41709 0.95469 0.74140 -0.08400
O 	O 	0.32079 0.96888 0.70541 -0.07700
N 	N 	0.43192 0.40125 0.74166 -0.01800
O 	O 	0.98615 0.65472 0.72946 -0.08600
O 	O 	0.41453 0.36007 0.76400 -0.08700
O 	O 	0.34167 0.39014 0.72686 -0.09300
C 	C 	0.23640 0.72295 0.08558 -0.09100
C 	C 	0.17048 0.76412 0.08787 0.02400
C 	C 	0.07681 0.74521 0.06985 -0.06300
C 	C 	0.04866 0.68500 0.04954 0.03600
C 	C 	0.12351 0.65147 0.04522 -0.06400
C 	C 	0.21737 0.67039 0.06326 0.02400
H 	H 	0.18648 0.80627 0.10474 0.03900
H 	H 	0.02087 0.77270 0.07297 0.05500
H 	H 	0.10372 0.60612 0.02912 0.05500
H 	H 	0.26952 0.63964 0.06100 0.03700
C 	C 	0.34963 0.95952 0.15939 -0.07200
C 	C 	0.44332 0.03211 0.17065 0.02900
C 	C 	0.48599 0.10631 0.15632 -0.04900
C 	C 	0.43488 0.10493 0.13101 0.04400
C 	C 	0.31808 0.04188 0.12611 -0.05500
C 	C 	0.27410 0.96842 0.14084 0.02400
C 	C 	0.51190 0.13625 0.10802 -0.00400
C 	C 	0.56914 0.15814 0.08753 -0.01300
C 	C 	0.63017 0.17273 0.06213 0.04500
C 	C 	0.63109 0.10606 0.04870 -0.06400
C 	C 	0.64711 0.10834 0.02062 0.02200
C 	C 	0.66252 0.17743 0.00597 -0.08500
C 	C 	0.66618 0.24695 0.04827 -0.06500
H 	H 	0.49449 0.02828 0.18746 0.05300
H 	H 	0.56827 0.16003 0.16259 0.08200
H 	H 	0.27017 0.04388 0.10827 0.05500
H 	H 	0.19179 0.91482 0.13448 0.04000
H 	H 	0.60825 0.04954 0.05954 0.05400
H 	H 	0.63442 0.05316 0.00995 0.04400
C 	C 	0.59730 0.67929 0.09798 -0.07900
C 	C 	0.50081 0.59927 0.10144 0.02600
C 	C 	0.44059 0.54996 0.07876 -0.06500
C 	C 	0.47718 0.57970 0.05248 0.04200
C 	C 	0.57805 0.65714 0.04897 -0.06500
C 	C 	0.63809 0.70673 0.07161 0.02100
C 	C 	0.41238 0.52982 0.02914 -0.01600
C 	C 	0.35651 0.48677 0.00999 -0.01300
C 	C 	0.29090 0.43131 0.98778 0.04200
C 	C 	0.34408 0.44129 0.96236 -0.06000
C 	C 	0.30661 0.37269 0.94484 0.01400
C 	C 	0.22139 0.29398 0.95350 -0.07100
C 	C 	0.15036 0.28897 0.97561 0.02300
C 	C 	0.18700 0.35719 0.99320 -0.06200
H 	H 	0.46881 0.57681 0.12159 0.05000
H 	H 	0.36418 0.48933 0.08165 0.05700
H 	H 	0.60899 0.67955 0.02873 0.05800
H 	H 	0.71367 0.76766 0.06863 0.04100
H 	H 	0.42047 0.49981 0.95719 0.06500
H 	H 	0.35447 0.37866 0.92641 0.04500
H 	H 	0.07770 0.22942 0.98142 0.05600
H 	H 	0.14122 0.34994 0.01216 0.05500
C 	C 	0.89973 0.94024 0.91339 -0.02300
C 	C 	0.90511 0.87940 0.89717 -0.05700
C 	C 	0.95952 0.83615 0.90835 0.11000
C 	C 	0.03562 0.87035 0.93088 -0.03000
C 	C 	0.06052 0.94841 0.94066 -0.08000
C 	C 	0.97390 0.97181 0.93641 0.10200
N 	N 	0.97361 0.03614 0.95279 -0.01600
H 	H 	0.84782 0.96822 0.90680 0.08700
H 	H 	0.08961 0.84386 0.93747 0.06900
N 	N 	0.94190 0.76043 0.89626 -0.01900
O 	O 	0.93810 0.08483 0.94255 -0.09300
O 	O 	0.00660 0.04489 0.97819 -0.10400
O 	O 	0.03248 0.75356 0.88863 -0.10100
O 	O 	0.83642 0.69615 0.89514 -0.08300
O 	O 	0.58371 0.61612 0.91020 -0.09200
C 	C 	0.61221 0.16446 0.97836 0.30600
O 	O 	0.43762 0.17442 0.93238 -0.71000
O 	O 	0.48052 0.20102 0.61356 -0.37400
C 	C 	0.90991 0.11261 0.38997 0.08800
O 	O 	0.54652 0.22615 0.66819 -0.71600
C 	C 	0.63690 0.33568 0.57810 0.01800
O 	O 	0.25952 0.00529 0.83886 -0.08300
O 	O 	0.50946 0.26663 0.98277 -0.38600
O 	O 	0.42117 0.12890 0.87755 -0.33000
H 	H 	0.08745 0.04506 0.41685 0.07400
H 	H 	0.98759 0.00710 0.16221 0.07100
O 	O 	0.59586 0.11973 0.70236 -0.37400
H 	H 	0.67047 0.30012 0.05867 0.05600
O 	O 	0.46715 0.26773 0.82415 -0.06800
C 	C 	0.68696 0.25016 0.02031 0.01900
C 	C 	0.05658 0.07554 0.40291 -0.03500
H 	H 	0.75252 0.38588 0.54407 0.05700
Ni	Ni	0.55873 0.15873 0.64042 1.12300
C 	C 	0.95557 0.03186 0.17801 -0.00600
C 	C 	0.59082 0.37995 0.70497 0.29900
C 	C 	0.54650 0.46953 0.73635 0.09900
Ni	Ni	0.63902 0.23902 0.69946 1.12300
O 	O 	0.39839 0.27466 0.89216 -0.37300
H 	H 	0.59574 0.28164 0.66058 0.15300
C 	C 	0.87144 0.09354 0.21897 -0.02500
O 	O 	0.38780 0.84027 0.69159 -0.08500
H 	H 	0.84242 0.12156 0.23433 0.08600
H 	H 	0.52372 0.55020 0.76425 0.06000
C 	C 	0.97620 0.15286 0.36686 -0.00700
C 	C 	0.62862 0.08245 0.68453 0.32900
C 	C 	0.09165 0.38405 0.61503 -0.05600
O 	O 	0.97655 0.99788 0.73099 -0.08000
C 	C 	0.49461 0.10096 0.88478 0.28500
H 	H 	0.67815 0.30041 0.58491 0.04000
H 	H 	0.15055 0.36277 0.60754 0.05100
C 	C 	0.55018 0.33579 0.96877 0.29400
O 	O 	0.67237 0.21856 0.95923 -0.35900
O 	O 	0.67331 0.35797 0.70160 -0.37300
H 	H 	0.94562 0.18404 0.35316 0.07600
C 	C 	0.62511 0.46047 0.71867 -0.06600
C 	C 	0.47662 0.02055 0.87371 -0.05500
N 	N 	0.36892 0.02776 0.83327 -0.01800
H 	H 	0.54269 0.99138 0.90994 0.07300
O 	O 	0.64048 0.10302 0.65880 -0.37300
C 	C 	0.58398 0.54424 0.75047 -0.02500
C 	C 	0.51630 0.97481 0.88886 -0.03000
C 	C 	0.12239 0.11340 0.37968 0.10800
C 	C 	0.42831 0.99182 0.84748 0.09700
H 	H 	0.70914 0.30643 0.00943 0.04500
C 	C 	0.01263 0.05271 0.20338 0.09000
N 	N 	0.48406 0.90037 0.68156 -0.01900
N 	N 	0.56388 0.33895 0.82591 -0.02100
C 	C 	0.96366 0.07665 0.22484 -0.05300
C 	C 	0.07618 0.14604 0.36024 -0.07900
Ni	Ni	0.60050 0.24419 0.92439 1.11500
H 	H 	0.51314 0.35628 0.02244 0.03800
C 	C 	0.67041 0.02675 0.69430 -0.07200
C 	C 	0.57949 0.41342 0.98351 -0.08500
O 	O 	0.59736 0.34171 0.94461 -0.37200
C 	C 	0.56914 0.41332 0.01190 0.02000
C 	C 	0.50661 0.31714 0.88326 0.32500
O 	O 	0.58841 0.14639 0.90076 -0.34700
C 	C 	0.58959 0.94213 0.69806 0.10700
C 	C 	0.43840 0.92704 0.83523 -0.02100
O 	O 	0.61881 0.89034 0.91545 -0.09800
H 	H 	0.64301 0.49237 0.94832 0.04700
C 	C 	0.52492 0.90907 0.87663 0.09700
C 	C 	0.64195 0.48982 0.97028 0.02200
H 	H 	0.41005 0.90991 0.81426 0.07400
O 	O 	0.72070 0.25165 0.63198 -0.38000
O 	O 	0.48734 0.91712 0.65585 -0.10000
C 	C 	0.64201 0.48519 0.02692 -0.06900
O 	O 	0.65475 0.35226 0.81138 -0.08200
N 	N 	0.23025 0.11224 0.37484 -0.02300
O 	O 	0.23773 0.04639 0.38033 -0.08700
H 	H 	0.64347 0.48260 0.04890 0.05700
C 	C 	0.49853 0.89188 0.84866 -0.06300
O 	O 	0.42254 0.08047 0.81403 -0.07500
C 	C 	0.56617 0.40523 0.84153 0.11100
H 	H 	0.61399 0.48764 0.80740 0.07200
O 	O 	0.11180 0.97599 0.20914 -0.09900
C 	C 	0.74036 0.52739 0.71551 -0.02900
C 	C 	0.71462 0.56152 0.98538 -0.06500
O 	O 	0.78823 0.27131 0.67695 -0.36600
H 	H 	0.85045 0.12392 0.70106 0.06700
N 	N 	0.56258 0.86110 0.89248 -0.02400
O 	O 	0.58303 0.29140 0.88731 -0.35500
C 	C 	0.78387 0.06121 0.70598 -0.02500
C 	C 	0.72460 0.55665 0.01355 0.04500
O 	O 	0.52634 0.78897 0.82409 -0.34200
N 	N 	0.11836 0.04807 0.20736 -0.02100
C 	C 	0.70034 0.60919 0.74828 -0.08100
H 	H 	0.77303 0.61827 0.97493 0.06600
C 	C 	0.59161 0.47967 0.82875 -0.02700
C 	C 	0.61291 0.89877 0.71824 -0.01900
C 	C 	0.54339 0.39656 0.86966 -0.07900
O 	O 	0.57261 0.64134 0.81388 -0.35600
O 	O 	0.62229 0.85113 0.77208 -0.36000
H 	H 	0.54754 0.83526 0.72254 0.07400
Ni	Ni	0.61186 0.75418 0.79506 1.11500
C 	C 	0.11077 0.15171 0.33154 0.32000
H 	H 	0.80067 0.52182 0.70165 0.07100
C 	C 	0.80232 0.29463 0.65090 0.28000
O 	O 	0.69649 0.73066 0.76363 -0.37300
C 	C 	0.00695 0.08264 0.25306 0.29300
O 	O 	0.32321 0.17860 0.36660 -0.05900
C 	C 	0.57079 0.86748 0.83218 0.30100
O 	O 	0.06722 0.08290 0.31696 -0.37400
O 	O 	0.02219 0.14505 0.26887 -0.36700
C 	C 	0.77867 0.60135 0.73041 0.10600
C 	C 	0.59004 0.54412 0.84357 -0.06300
C 	C 	0.93439 0.43560 0.63353 0.02300
C 	C 	0.74148 0.68161 0.76647 0.32300
C 	C 	0.71801 0.93896 0.73381 -0.06900
C 	C 	0.54415 0.46171 0.88442 -0.01900
C 	C 	0.80982 0.01626 0.72498 0.10600
O 	O 	0.53009 0.78509 0.88538 -0.07700
C 	C 	0.63921 0.62680 0.83152 0.30300
C 	C 	0.56076 0.53331 0.87128 0.10300
C 	C 	0.72179 0.90736 0.76124 0.31300
C 	C 	0.83692 0.60840 0.02652 -0.01700
H 	H 	0.52945 0.45610 0.90606 0.05700
O 	O 	0.46789 0.61508 0.87581 -0.07800
O 	O 	0.15806 0.22419 0.31951 -0.36900
O 	O 	0.03614 0.02787 0.26192 -0.35200
O 	O 	0.53594 0.34122 0.35940 -0.06000
O 	O 	0.22074 0.11378 0.20400 -0.09700
O 	O 	0.14814 0.23667 0.17898 -0.08900
O 	O 	0.66351 0.92724 0.81999 -0.36400
N 	N 	0.54094 0.59270 0.88572 -0.02000
O 	O 	0.06366 0.30233 0.19999 -0.09200
C 	C 	0.91945 0.35853 0.64156 -0.06000
O 	O 	0.99728 0.12353 0.73992 -0.08200
O 	O 	0.80875 0.68858 0.78764 -0.36300
H 	H 	0.99239 0.27597 0.63949 0.05300
N 	N 	0.89710 0.66823 0.72732 -0.02400
N 	N 	0.93005 0.04577 0.73343 -0.01800
H 	H 	0.71684 0.80034 0.83266 0.16200
O 	O 	0.75289 0.81520 0.81459 -0.71700
Ni	Ni	0.18596 0.23672 0.27911 1.12500
C 	C 	0.93261 0.64514 0.03739 -0.00200
O 	O 	0.38651 0.33863 0.38299 -0.08500
H 	H 	0.87133 0.45463 0.63977 0.03500
O 	O 	0.74269 0.68621 0.84094 -0.35400
Ni	Ni	0.16433 0.05943 0.29032 1.12500
O 	O 	0.81969 0.94458 0.77609 -0.34900
N 	N 	0.45985 0.36683 0.36286 -0.02200
N 	N 	0.15820 0.30086 0.19221 -0.01800
O 	O 	0.91548 0.74144 0.72073 -0.08200
C 	C 	0.00242 0.33508 0.63335 -0.00300
