data_crystal

_cell_length_a 18.14006
_cell_length_b 16.35858
_cell_length_c 46.12363
_cell_angle_alpha 90.78039
_cell_angle_beta  91.11506
_cell_angle_gamma 110.93326

_symmetry_space_group_name_	'P 1'
_symmetry_space_group_name_H-M	'P 1'

loop_
_symmetry_equiv_pos_as_xyz
  x,y,z

loop_
_atom_site_label
_atom_site_type_symbol
_atom_site_fract_x
_atom_site_fract_y
_atom_site_fract_z
_atom_site_charge
Ni	Ni	0.14299 0.00967 0.75331 1.11700
O 	O 	0.05673 0.00393 0.72377 -0.68400
O 	O 	0.22033 0.11428 0.73242 -0.31300
O 	O 	0.20069 0.03332 0.69014 -0.34400
O 	O 	0.10153 0.09171 0.77638 -0.33300
Ni	Ni	0.07808 0.97616 0.68446 1.09900
O 	O 	0.16784 0.89617 0.80867 -0.36200
O 	O 	0.08551 0.85775 0.69453 -0.36900
O 	O 	0.05791 0.89421 0.76291 -0.70000
O 	O 	0.22916 0.02503 0.78461 -0.30700
Ni	Ni	0.05262 0.88450 0.80517 1.10200
H 	H 	0.04462 0.05835 0.72401 0.21900
H 	H 	0.07387 0.84645 0.75521 0.18900
C 	C 	0.02190 0.78987 0.69957 0.37600
O 	O 	0.07697 0.01191 0.81737 -0.33900
C 	C 	0.23673 0.10711 0.70497 0.38000
C 	C 	0.06145 0.06693 0.80011 0.38700
C 	C 	0.22727 0.97114 0.80592 0.38400
Ni	Ni	0.35539 0.81718 0.41308 1.10100
O 	O 	0.34054 0.71573 0.38446 -0.70100
Ni	Ni	0.24050 0.70924 0.36303 1.10900
O 	O 	0.34455 0.64667 0.44345 -0.40800
Ni	Ni	0.32793 0.60174 0.40066 1.08300
O 	O 	0.20914 0.54963 0.40748 -0.37000
O 	O 	0.21194 0.59176 0.34028 -0.32000
O 	O 	0.26521 0.82075 0.38823 -0.70200
O 	O 	0.15248 0.73443 0.34040 -0.30800
O 	O 	0.23203 0.87449 0.33061 -0.35200
Ni	Ni	0.30199 0.93008 0.36723 1.08200
H 	H 	0.38408 0.73111 0.37058 0.19600
H 	H 	0.22043 0.81864 0.40052 0.16800
C 	C 	0.16773 0.59880 0.41317 0.28600
C 	C 	0.24187 0.53027 0.34585 0.39400
C 	C 	0.16098 0.81419 0.33233 0.36800
O 	O 	0.15829 0.65132 0.39342 -0.33800
O 	O 	0.30986 0.54875 0.36013 -0.37200
Ni	Ni	0.31671 0.64448 0.09882 1.10800
O 	O 	0.21929 0.60426 0.07129 -0.69600
Ni	Ni	0.15083 0.66047 0.09035 1.10800
O 	O 	0.26745 0.45283 0.07143 -0.36900
O 	O 	0.35477 0.74748 0.07161 -0.39200
Ni	Ni	0.16290 0.47855 0.06924 1.08000
O 	O 	0.15308 0.47364 0.11324 -0.39200
O 	O 	0.06233 0.62465 0.05967 -0.35200
O 	O 	0.24174 0.68641 0.12011 -0.69600
O 	O 	0.10642 0.74796 0.10868 -0.33400
O 	O 	0.22810 0.85336 0.10664 -0.38900
Ni	Ni	0.29915 0.80791 0.13245 1.10400
H 	H 	0.23191 0.62702 0.05150 0.16000
H 	H 	0.22446 0.65068 0.13756 0.20900
C 	C 	0.09978 0.49739 0.12617 0.39900
O 	O 	0.39414 0.85766 0.10581 -0.35300
C 	C 	0.33335 0.50698 0.06061 0.27600
C 	C 	0.03596 0.54342 0.04929 0.26700
C 	C 	0.40050 0.82627 0.07992 0.29400
C 	C 	0.15299 0.83027 0.11249 0.38200
O 	O 	0.08024 0.56237 0.11620 -0.33500
O 	O 	0.05166 0.48119 0.06334 -0.36200
Ni	Ni	0.00999 0.10045 0.23993 1.13000
O 	O 	0.09068 0.08736 0.21197 -0.28000
O 	O 	0.10058 0.18146 0.26611 -0.29400
O 	O 	0.04302 0.12164 0.30793 -0.35900
C 	C 	0.06793 0.06922 0.18444 0.37300
C 	C 	0.09362 0.18702 0.29428 0.39100
O 	O 	0.01284 0.09565 0.17306 -0.35900
C 	C 	0.98401 0.36716 0.13837 0.29100
C 	C 	0.04998 0.43936 0.14766 -0.19600
C 	C 	0.07369 0.44898 0.17700 0.29400
C 	C 	0.03657 0.38249 0.19635 0.28400
C 	C 	0.97727 0.30459 0.18620 -0.17400
C 	C 	0.94761 0.29997 0.15752 0.27700
F 	F 	0.95812 0.35964 0.11029 -0.39100
F 	F 	0.06105 0.39162 0.22462 -0.35800
F 	F 	0.13502 0.52085 0.18648 -0.37300
C 	C 	0.08677 0.92729 0.17694 0.25100
C 	C 	0.09707 0.01155 0.16718 -0.17400
C 	C 	0.12350 0.03489 0.13899 0.29300
C 	C 	0.13878 0.97431 0.12066 0.25900
C 	C 	0.12721 0.88966 0.13028 -0.20700
C 	C 	0.10144 0.86654 0.15854 0.27800
F 	F 	0.09246 0.78578 0.16841 -0.37700
F 	F 	0.05993 0.90332 0.20394 -0.36300
F 	F 	0.16489 0.99781 0.09353 -0.39000
F 	F 	0.13384 0.11619 0.12932 -0.37300
C 	C 	0.08883 0.30964 0.32594 0.28100
C 	C 	0.13316 0.27157 0.30951 -0.20400
C 	C 	0.21338 0.31910 0.30496 0.29400
C 	C 	0.24870 0.40422 0.31641 0.28300
C 	C 	0.20408 0.44258 0.33252 -0.18700
C 	C 	0.12414 0.39478 0.33734 0.27800
F 	F 	0.08090 0.43054 0.35339 -0.37500
F 	F 	0.01088 0.26520 0.33004 -0.45300
F 	F 	0.32594 0.44999 0.31143 -0.35700
F 	F 	0.25696 0.28290 0.28928 -0.35000
C 	C 	0.96692 0.88352 0.30229 -0.20000
C 	C 	0.03519 0.90403 0.28580 0.28600
C 	C 	0.09725 0.87787 0.29485 0.28200
C 	C 	0.09198 0.83183 0.32071 -0.18500
C 	C 	0.02222 0.80801 0.33653 0.26700
F 	F 	0.01610 0.76302 0.36145 -0.38400
F 	F 	0.16298 0.89831 0.27871 -0.35100
F 	F 	0.04328 0.95381 0.26195 -0.42600
C 	C 	0.11751 0.58139 0.43890 -0.05000
C 	C 	0.09095 0.64652 0.44964 0.01200
C 	C 	0.04361 0.63143 0.47394 -0.04100
C 	C 	0.02236 0.55111 0.48797 0.01800
C 	C 	0.04920 0.48534 0.47751 0.03000
C 	C 	0.09678 0.50075 0.45298 -0.01000
H 	H 	0.10750 0.70931 0.43924 0.04600
H 	H 	0.02357 0.68241 0.48187 0.05900
H 	H 	0.11694 0.45011 0.44478 0.06800
H 	H 	0.39618 0.55157 0.47444 0.04500
C 	C 	0.37697 0.25323 0.65233 0.29100
C 	C 	0.38289 0.18286 0.70698 0.28800
C 	C 	0.30948 0.17057 0.69344 -0.17700
C 	C 	0.30695 0.20915 0.66662 0.27700
F 	F 	0.23643 0.20031 0.65378 -0.37400
F 	F 	0.37362 0.28584 0.62562 -0.37400
F 	F 	0.38625 0.14748 0.73321 -0.35800
F 	F 	0.08312 0.77397 0.64372 -0.38800
C 	C 	0.86088 0.40753 0.00280 -0.03900
C 	C 	0.91257 0.43726 0.02667 0.00500
C 	C 	0.97507 0.51834 0.02600 -0.04500
H 	H 	0.81378 0.34413 0.00343 0.05700
H 	H 	0.90487 0.39654 0.04553 0.08500
C 	C 	0.45859 0.88128 0.05946 -0.02600
C 	C 	0.47465 0.84355 0.03383 -0.03600
H 	H 	0.50856 0.79003 0.98229 0.05500
H 	H 	0.44853 0.77335 0.03001 0.06000
H 	H 	0.36422 0.35926 0.05083 0.07300
F 	F 	0.93173 0.06105 0.76417 -0.42100
C 	C 	0.39579 0.10088 0.85560 0.26500
C 	C 	0.32117 0.06963 0.84202 0.31300
C 	C 	0.29728 0.99215 0.82515 -0.21500
C 	C 	0.34759 0.94417 0.82288 0.29900
F 	F 	0.32515 0.86922 0.80654 -0.36700
F 	F 	0.27276 0.11623 0.84446 -0.36200
Ni	Ni	0.62105 0.22037 0.91194 1.10200
O 	O 	0.62475 0.29162 0.87568 -0.70000
Ni	Ni	0.72728 0.29348 0.85863 1.10900
O 	O 	0.53614 0.25628 0.93101 -0.34500
O 	O 	0.60704 0.40177 0.92678 -0.40000
O 	O 	0.52874 0.11499 0.89512 -0.34500
Ni	Ni	0.62465 0.41042 0.88213 1.08600
O 	O 	0.61795 0.02913 0.91600 -0.37000
O 	O 	0.74153 0.47814 0.89127 -0.36900
O 	O 	0.74442 0.38692 0.82722 -0.31200
O 	O 	0.71339 0.20853 0.89210 -0.70300
O 	O 	0.62434 0.14555 0.94610 -0.37800
O 	O 	0.81977 0.26240 0.84297 -0.31200
O 	O 	0.74816 0.11526 0.84260 -0.35300
Ni	Ni	0.68414 0.08551 0.88062 1.08500
H 	H 	0.58096 0.26038 0.86190 0.20000
H 	H 	0.75991 0.22642 0.90554 0.17400
C 	C 	0.78784 0.43981 0.90189 0.28000
O 	O 	0.58667 0.07822 0.85631 -0.35300
C 	C 	0.54913 0.33792 0.93841 0.28400
C 	C 	0.71535 0.45060 0.82879 0.38800
C 	C 	0.52449 0.08609 0.86828 0.37200
C 	C 	0.81643 0.18056 0.84085 0.37600
C 	C 	0.62286 0.06471 0.94254 0.28200
O 	O 	0.80665 0.38389 0.88582 -0.33100
O 	O 	0.64514 0.43649 0.83965 -0.36100
Ni	Ni	0.64083 0.38872 0.60834 1.10600
O 	O 	0.72362 0.40672 0.57661 -0.69500
Ni	Ni	0.78634 0.33651 0.59309 1.10200
O 	O 	0.59876 0.48210 0.59408 -0.32700
O 	O 	0.70880 0.58293 0.57602 -0.37500
O 	O 	0.55722 0.30254 0.58094 -0.35400
Ni	Ni	0.79592 0.52846 0.57338 1.07800
O 	O 	0.52325 0.21377 0.62916 -0.37300
O 	O 	0.81223 0.53534 0.61722 -0.40200
O 	O 	0.86753 0.35945 0.56124 -0.35200
O 	O 	0.70029 0.31465 0.62318 -0.70200
O 	O 	0.55932 0.35987 0.64013 -0.33500
O 	O 	0.82983 0.24887 0.61184 -0.31700
O 	O 	0.70981 0.13890 0.61106 -0.36400
Ni	Ni	0.62534 0.19281 0.62057 1.09800
H 	H 	0.70062 0.38346 0.55727 0.15100
H 	H 	0.72142 0.33217 0.64318 0.20900
C 	C 	0.86154 0.50347 0.62960 0.39800
O 	O 	0.60712 0.19373 0.57692 -0.38900
C 	C 	0.63340 0.53519 0.57339 0.27600
C 	C 	0.90093 0.43921 0.55161 0.27800
C 	C 	0.57201 0.24309 0.56523 0.28300
C 	C 	0.78277 0.17264 0.62110 0.37600
C 	C 	0.51869 0.27758 0.64606 0.39700
O 	O 	0.86834 0.43049 0.61957 -0.33400
O 	O 	0.89807 0.50624 0.56706 -0.35900
Ni	Ni	0.96565 0.90449 0.73831 1.11900
O 	O 	0.88374 0.92212 0.71088 -0.28500
O 	O 	0.87657 0.81350 0.76038 -0.29600
O 	O 	0.93224 0.85870 0.80522 -0.36800
C 	C 	0.90587 0.94512 0.68409 0.34400
C 	C 	0.88430 0.79749 0.78790 0.38600
O 	O 	0.96127 0.80071 0.71183 -0.33300
O 	O 	0.96121 0.92109 0.67220 -0.34300
O 	O 	0.43145 0.78635 0.44070 -0.35400
O 	O 	0.45338 0.89655 0.39172 -0.35900
O 	O 	0.37461 0.00880 0.39923 -0.33800
O 	O 	0.36388 0.92164 0.43879 -0.36500
O 	O 	0.39246 0.90462 0.34861 -0.37700
C 	C 	0.41048 0.70859 0.45221 0.28000
C 	C 	0.45618 0.90952 0.36359 0.39500
C 	C 	0.36596 0.99615 0.42754 0.22600
O 	O 	0.37301 0.58167 0.07398 -0.33900
O 	O 	0.36346 0.75997 0.15871 -0.35300
O 	O 	0.41765 0.69462 0.12479 -0.34100
C 	C 	0.42375 0.74156 0.14903 0.39400
Ni	Ni	0.83176 0.99622 0.25050 1.10600
O 	O 	0.91739 0.00569 0.22161 -0.68000
O 	O 	0.75303 0.89924 0.22517 -0.32400
O 	O 	0.77371 0.99150 0.18688 -0.36400
O 	O 	0.86982 0.90635 0.27025 -0.33300
Ni	Ni	0.89623 0.04082 0.18326 1.10000
O 	O 	0.81081 0.09834 0.31002 -0.35400
O 	O 	0.89371 0.15792 0.19791 -0.35700
O 	O 	0.91899 0.10703 0.26486 -0.67600
O 	O 	0.74575 0.97675 0.28085 -0.34500
Ni	Ni	0.92467 0.10588 0.30735 1.12000
H 	H 	0.92828 0.95066 0.22009 0.21700
H 	H 	0.90449 0.15746 0.25908 0.19300
C 	C 	0.95957 0.22385 0.20309 0.38600
O 	O 	0.89352 0.97536 0.31433 -0.35900
C 	C 	0.73317 0.91657 0.19899 0.38100
C 	C 	0.90804 0.92337 0.29533 0.39600
C 	C 	0.74997 0.02540 0.30443 0.41600
O 	O 	0.01689 0.21264 0.21845 -0.32800
F 	F 	0.88710 0.22791 0.14764 -0.38600
C 	C 	0.59999 0.91418 0.18500 0.28100
C 	C 	0.65256 0.86932 0.18810 -0.18800
C 	C 	0.62872 0.78080 0.17954 0.28000
C 	C 	0.55337 0.73819 0.16710 0.28800
C 	C 	0.50162 0.78408 0.16323 -0.19300
C 	C 	0.52535 0.87223 0.17237 0.28200
F 	F 	0.47675 0.91803 0.16819 -0.39400
F 	F 	0.62174 0.99907 0.19407 -0.36700
F 	F 	0.53054 0.65246 0.15896 -0.36400
F 	F 	0.67900 0.73667 0.18278 -0.36700
C 	C 	0.65860 0.92660 0.33907 0.25300
C 	C 	0.68036 0.00303 0.32271 -0.16100
C 	C 	0.62950 0.05041 0.32065 0.27400
C 	C 	0.55624 0.01998 0.33403 0.31600
C 	C 	0.53345 0.94200 0.34967 -0.22400
C 	C 	0.58562 0.89643 0.35261 0.29600
F 	F 	0.56471 0.82161 0.36794 -0.39800
F 	F 	0.70749 0.88044 0.34125 -0.35900
F 	F 	0.50760 0.06645 0.33194 -0.37300
F 	F 	0.64995 0.12438 0.30490 -0.35400
C 	C 	0.96003 0.83398 0.32738 0.29600
F 	F 	0.89384 0.81286 0.34329 -0.35600
C 	C 	0.38824 0.07273 0.44710 -0.01700
C 	C 	0.33297 0.08121 0.46664 -0.00500
C 	C 	0.35844 0.13064 0.49232 -0.03700
C 	C 	0.43948 0.16987 0.49895 0.01700
C 	C 	0.49493 0.16835 0.47799 0.03400
C 	C 	0.46853 0.12258 0.45162 -0.02400
C 	C 	0.57592 0.20409 0.48499 -0.05400
C 	C 	0.60139 0.23292 0.51332 0.01200
C 	C 	0.54631 0.22909 0.53467 -0.07000
C 	C 	0.46581 0.20252 0.52708 -0.01000
H 	H 	0.27060 0.04454 0.46291 0.05000
H 	H 	0.31529 0.13347 0.50785 0.06600
H 	H 	0.51102 0.11762 0.43610 0.07800
H 	H 	0.61899 0.20500 0.46891 0.06700
H 	H 	0.66384 0.25537 0.51895 0.02400
H 	H 	0.42347 0.20128 0.54352 0.07300
C 	C 	0.02785 0.40501 0.49166 -0.04900
C 	C 	0.98001 0.38998 0.51593 0.02300
C 	C 	0.95298 0.45519 0.52637 -0.05500
C 	C 	0.97437 0.53568 0.51228 -0.00600
H 	H 	0.04819 0.35411 0.48387 0.06700
H 	H 	0.96427 0.32777 0.52665 0.07100
H 	H 	0.95299 0.58586 0.52004 0.04500
C 	C 	0.58444 0.55445 0.55065 -0.05800
C 	C 	0.52177 0.48558 0.53748 0.00800
C 	C 	0.47515 0.50236 0.51564 -0.04300
C 	C 	0.49040 0.58838 0.50675 0.02200
C 	C 	0.55322 0.65815 0.51997 0.02600
C 	C 	0.60026 0.64081 0.54185 -0.01500
C 	C 	0.56810 0.74421 0.51112 -0.04700
C 	C 	0.52124 0.76086 0.48922 0.01700
C 	C 	0.45899 0.69158 0.47586 -0.06200
C 	C 	0.44378 0.60538 0.48477 -0.01400
H 	H 	0.50972 0.41874 0.54399 0.05500
H 	H 	0.42723 0.44837 0.50559 0.05700
H 	H 	0.64838 0.69417 0.55213 0.06300
H 	H 	0.61595 0.79826 0.52116 0.06200
H 	H 	0.53337 0.82766 0.48269 0.05800
C 	C 	0.76789 0.05701 0.65766 0.27900
C 	C 	0.81568 0.11703 0.63801 -0.18800
C 	C 	0.89357 0.12128 0.63400 0.28800
C 	C 	0.92314 0.06609 0.64935 0.27200
C 	C 	0.87449 0.00406 0.66828 -0.16800
C 	C 	0.79678 0.00011 0.67241 0.30500
F 	F 	0.74881 0.94033 0.69039 -0.36000
F 	F 	0.69346 0.05423 0.66258 -0.38600
F 	F 	0.99964 0.07391 0.64618 -0.40600
F 	F 	0.94026 0.17772 0.61484 -0.36500
C 	C 	0.44993 0.25812 0.66460 -0.18700
C 	C 	0.45288 0.22631 0.69254 0.28300
F 	F 	0.52328 0.23253 0.70490 -0.36900
C 	C 	0.98539 0.63139 0.63774 0.28900
C 	C 	0.92360 0.56121 0.64919 -0.19300
C 	C 	0.91371 0.55685 0.67925 0.28700
C 	C 	0.95778 0.62796 0.69719 0.29000
C 	C 	0.00932 0.70509 0.68491 -0.18700
C 	C 	0.02844 0.70311 0.65557 0.27100
F 	F 	0.99944 0.63320 0.60891 -0.39200
F 	F 	0.94449 0.62555 0.72610 -0.36900
F 	F 	0.85751 0.48667 0.69081 -0.37300
C 	C 	0.83500 0.47644 0.92817 -0.05600
C 	C 	0.89343 0.56029 0.92815 0.02400
C 	C 	0.94167 0.59299 0.95280 -0.04600
C 	C 	0.93171 0.54193 0.97766 0.02800
C 	C 	0.87114 0.45848 0.97796 0.01900
C 	C 	0.82311 0.42619 0.95316 -0.01200
C 	C 	0.98309 0.57177 0.00183 -0.01800
H 	H 	0.90238 0.59948 0.90888 0.07800
H 	H 	0.98746 0.65734 0.95239 0.06600
H 	H 	0.77727 0.36167 0.95312 0.02000
H 	H 	0.03103 0.63467 0.00139 0.04900
C 	C 	0.60050 0.00625 0.96776 -0.04500
C 	C 	0.57136 0.91475 0.96365 -0.00400
C 	C 	0.53275 0.86031 0.98605 -0.05400
C 	C 	0.52205 0.89675 0.01267 0.04800
C 	C 	0.55609 0.98808 0.01762 -0.04200
C 	C 	0.59756 0.04206 0.99548 0.02400
C 	C 	0.54434 0.02476 0.04404 0.03500
C 	C 	0.49542 0.97180 0.06474 -0.05500
H 	H 	0.57585 0.88581 0.94281 0.05400
H 	H 	0.62351 0.11228 0.99928 0.04900
H 	H 	0.57107 0.09470 0.04819 0.05000
H 	H 	0.48483 0.00158 0.08458 0.10700
C 	C 	0.50761 0.35670 0.96326 -0.05700
C 	C 	0.48415 0.29679 0.98588 0.01900
C 	C 	0.44168 0.31219 0.00892 -0.04500
C 	C 	0.42246 0.38790 0.00972 0.02900
C 	C 	0.44623 0.44863 0.98708 0.02300
C 	C 	0.48875 0.43268 0.96395 -0.01000
C 	C 	0.42782 0.52484 0.98804 -0.04700
C 	C 	0.38796 0.54182 0.01161 0.00800
C 	C 	0.36543 0.48252 0.03436 -0.06500
C 	C 	0.38133 0.40480 0.03315 -0.01000
H 	H 	0.49914 0.23832 0.98566 0.05500
H 	H 	0.42410 0.26541 0.02621 0.07200
H 	H 	0.50638 0.47868 0.94642 0.04900
H 	H 	0.44541 0.57165 0.97076 0.05500
H 	H 	0.37565 0.60193 0.01246 0.03200
C 	C 	0.93908 0.09942 0.79089 0.28700
C 	C 	0.00487 0.10804 0.80893 -0.19900
C 	C 	0.01166 0.14776 0.83657 0.28500
C 	C 	0.95163 0.17541 0.84648 0.27700
C 	C 	0.88406 0.16267 0.82898 -0.18300
C 	C 	0.87882 0.12632 0.80091 0.28600
F 	F 	0.81451 0.11541 0.78357 -0.34800
F 	F 	0.95784 0.21174 0.87348 -0.39100
F 	F 	0.07583 0.15838 0.85396 -0.35700
C 	C 	0.42232 0.97506 0.83666 0.25400
C 	C 	0.44726 0.05441 0.85274 -0.15900
F 	F 	0.46999 0.92751 0.83464 -0.37000
F 	F 	0.41882 0.17745 0.87110 -0.39900
C 	C 	0.87975 0.66601 0.81578 0.28100
C 	C 	0.84026 0.70973 0.79910 -0.19500
C 	C 	0.76041 0.66632 0.79103 0.29200
C 	C 	0.72037 0.58035 0.79972 0.28200
C 	C 	0.75970 0.53690 0.81663 -0.18200
C 	C 	0.83975 0.58003 0.82444 0.27900
F 	F 	0.87832 0.53937 0.84104 -0.37700
F 	F 	0.95741 0.70616 0.82308 -0.43500
F 	F 	0.64342 0.53912 0.79159 -0.35500
F 	F 	0.72139 0.70774 0.77498 -0.35000
