data_crystal

_cell_length_a 20.00210
_cell_length_b 20.67961
_cell_length_c 41.27882
_cell_angle_alpha 60.63007
_cell_angle_beta  119.15082
_cell_angle_gamma 133.28826

_symmetry_space_group_name_	'P 1'
_symmetry_space_group_name_H-M	'P 1'

loop_
_symmetry_equiv_pos_as_xyz
  x,y,z

loop_
_atom_site_label
_atom_site_type_symbol
_atom_site_fract_x
_atom_site_fract_y
_atom_site_fract_z
_atom_site_charge
C 	C 	0.67834 0.29254 0.98535 0.05800
C 	C 	0.73058 0.37255 0.99738 -0.05500
C 	C 	0.68313 0.39667 0.00017 0.05200
C 	C 	0.58557 0.33672 0.99549 -0.06200
C 	C 	0.53519 0.25085 0.98996 0.07400
C 	C 	0.57913 0.23263 0.98083 -0.07800
H 	H 	0.80710 0.41417 0.00552 0.07200
H 	H 	0.55024 0.35305 0.00022 0.07500
H 	H 	0.53673 0.17080 0.97170 0.07200
C 	C 	0.73676 0.29009 0.50941 0.06700
C 	C 	0.65373 0.20887 0.52142 -0.07300
C 	C 	0.59763 0.21314 0.53007 0.06900
C 	C 	0.62856 0.29652 0.53101 -0.07800
C 	C 	0.71327 0.37706 0.52150 0.07200
C 	C 	0.76635 0.37494 0.50936 -0.07500
H 	H 	0.63265 0.14272 0.52385 0.07800
H 	H 	0.58594 0.29882 0.53894 0.07600
H 	H 	0.83026 0.43824 0.50046 0.07600
C 	C 	0.25974 0.65358 0.16004 0.06800
C 	C 	0.33944 0.73290 0.14489 -0.07700
C 	C 	0.38485 0.72477 0.13137 0.07700
C 	C 	0.34393 0.64050 0.12737 -0.08500
C 	C 	0.26464 0.56147 0.14129 0.07200
C 	C 	0.22417 0.56679 0.15911 -0.07700
H 	H 	0.36516 0.80047 0.14300 0.09900
H 	H 	0.37732 0.63567 0.11515 0.07900
H 	H 	0.16670 0.50433 0.17231 0.07400
C 	C 	0.31306 0.61718 0.68362 0.07100
C 	C 	0.27418 0.53146 0.68027 -0.07400
C 	C 	0.33408 0.51296 0.68410 0.07400
C 	C 	0.43153 0.57613 0.69466 -0.07700
C 	C 	0.46941 0.66534 0.69160 0.06600
C 	C 	0.41174 0.68363 0.68994 -0.06600
H 	H 	0.19820 0.48329 0.67144 0.07200
H 	H 	0.47747 0.56139 0.69793 0.07700
H 	H 	0.44174 0.75260 0.68851 0.08700
Co	Co	0.95784 0.84770 0.08847 1.19100
Co	Co	0.01933 0.11612 0.06356 1.18700
Co	Co	0.90485 0.93536 0.11334 1.19300
Co	Co	0.07541 0.02896 0.04042 1.17700
C 	C 	0.86457 0.72635 0.03467 0.31600
Co	Co	0.07199 0.86182 0.04788 1.17500
Co	Co	0.91495 0.10194 0.11042 1.17000
C 	C 	0.24853 0.03196 0.06861 0.29100
O 	O 	0.88448 0.99997 0.16030 -0.38500
O 	O 	0.94499 0.04638 0.09282 -0.76100
C 	C 	0.94165 0.97623 0.18311 0.32500
O 	O 	0.88729 0.81964 0.12128 -0.43900
O 	O 	0.09362 0.14498 0.03232 -0.44800
C 	C 	0.11939 0.23521 0.11794 0.31500
O 	O 	0.96230 0.97458 0.06596 -0.56000
C 	C 	0.73205 0.92835 0.09682 0.33600
C 	C 	0.06312 0.76621 0.12884 0.32400
C 	C 	0.06637 0.99607 0.97377 0.36400
O 	O 	0.96901 0.95332 0.16942 -0.36900
O 	O 	0.03435 0.75255 0.09538 -0.39800
O 	O 	0.05199 0.81825 0.13231 -0.37800
O 	O 	0.05459 0.17477 0.13764 -0.40000
O 	O 	0.13053 0.21022 0.09771 -0.36900
O 	O 	0.77815 0.01763 0.08293 -0.39700
O 	O 	0.76288 0.88388 0.10081 -0.34800
O 	O 	0.11611 0.96536 0.99971 -0.39400
O 	O 	0.04154 0.02845 0.98342 -0.38600
O 	O 	0.02691 0.91575 0.05757 -0.75000
C 	C 	0.91302 0.19834 0.02788 0.32000
O 	O 	0.94301 0.21057 0.06191 -0.39200
O 	O 	0.93847 0.16290 0.02090 -0.35700
O 	O 	0.93507 0.79087 0.01752 -0.37700
O 	O 	0.85642 0.73862 0.06129 -0.35800
O 	O 	0.20456 0.94265 0.07975 -0.35200
O 	O 	0.21358 0.06855 0.06826 -0.38400
Co	Co	0.98577 0.82863 0.59833 1.19000
Co	Co	0.06128 0.10303 0.57559 1.18600
Co	Co	0.96938 0.93170 0.63333 1.19100
Co	Co	0.08797 0.00309 0.54431 1.17800
C 	C 	0.84395 0.69941 0.54282 0.30600
Co	Co	0.04065 0.82261 0.53900 1.18800
Co	Co	0.97682 0.10180 0.62590 1.17100
C 	C 	0.23760 0.98404 0.55743 0.35900
O 	O 	0.06892 0.09316 0.67739 -0.38600
O 	O 	0.99806 0.03840 0.60872 -0.76400
C 	C 	0.05040 0.01344 0.69998 0.25700
O 	O 	0.95162 0.81523 0.64154 -0.44000
O 	O 	0.12607 0.12510 0.54195 -0.45000
C 	C 	0.17036 0.24667 0.61499 0.32800
O 	O 	0.99825 0.95863 0.57960 -0.56300
C 	C 	0.80791 0.90163 0.64171 0.32700
C 	C 	0.07084 0.73527 0.61937 0.32200
C 	C 	0.03925 0.96851 0.46924 0.34300
O 	O 	0.04225 0.95728 0.68868 -0.33600
O 	O 	0.01131 0.71546 0.58731 -0.37900
O 	O 	0.08217 0.79334 0.63026 -0.36600
O 	O 	0.08771 0.22972 0.60484 -0.39200
O 	O 	0.17737 0.19418 0.60937 -0.38100
O 	O 	0.86740 0.97995 0.65134 -0.38200
O 	O 	0.83149 0.87857 0.62637 -0.37200
O 	O 	0.07762 0.92479 0.48995 -0.39700
O 	O 	0.03347 0.00622 0.48532 -0.39300
O 	O 	0.02959 0.88856 0.55943 -0.75000
C 	C 	0.92420 0.15819 0.54138 0.30700
O 	O 	0.88899 0.10334 0.57193 -0.38800
O 	O 	0.98867 0.16322 0.53604 -0.35100
O 	O 	0.89865 0.76150 0.51841 -0.37700
O 	O 	0.85943 0.71860 0.57359 -0.34200
O 	O 	0.18356 0.89416 0.56415 -0.36100
O 	O 	0.21893 0.02638 0.56413 -0.40700
C 	C 	0.04351 0.99031 0.80294 0.04300
C 	C 	0.05596 0.06633 0.80263 -0.04600
C 	C 	0.05271 0.06980 0.83499 -0.05000
C 	C 	0.03666 0.99717 0.86793 0.05800
C 	C 	0.02291 0.92054 0.86806 -0.03000
C 	C 	0.02619 0.91709 0.83568 -0.02500
C 	C 	0.04463 0.00503 0.90313 0.04000
C 	C 	0.05079 0.00478 0.93402 -0.09600
C 	C 	0.04565 0.98711 0.76890 0.04500
C 	C 	0.04862 0.99286 0.73876 -0.02900
H 	H 	0.06861 0.12299 0.77741 0.06500
H 	H 	0.06432 0.12962 0.83457 0.06800
H 	H 	0.01111 0.86426 0.89340 0.06600
H 	H 	0.01561 0.85772 0.83622 0.06800
C 	C 	0.99525 0.98444 0.29059 0.02200
C 	C 	0.05647 0.97040 0.32456 -0.01900
C 	C 	0.06472 0.97760 0.35868 -0.02600
C 	C 	0.01182 0.99895 0.35915 0.03100
C 	C 	0.95152 0.01419 0.32505 -0.04500
C 	C 	0.94336 0.00710 0.29091 -0.03700
C 	C 	0.01340 0.99613 0.39555 0.06200
C 	C 	0.02181 0.98961 0.42807 -0.08000
C 	C 	0.98563 0.97688 0.25495 0.06000
C 	C 	0.97065 0.97328 0.22334 -0.07300
H 	H 	0.09724 0.95342 0.32472 0.06400
H 	H 	0.11118 0.96519 0.38487 0.06700
H 	H 	0.90986 0.03003 0.32499 0.05900
H 	H 	0.89617 0.01857 0.26480 0.05500
C 	C 	0.25528 0.29430 0.67534 -0.02300
C 	C 	0.25063 0.31706 0.63651 -0.09300
C 	C 	0.29132 0.40920 0.61627 0.14900
C 	C 	0.30977 0.47036 0.63056 -0.07400
C 	C 	0.29801 0.44258 0.66719 -0.01000
C 	C 	0.27456 0.35504 0.69029 0.09000
Br	Br	0.26752 0.31693 0.74197 -0.22100
H 	H 	0.23696 0.22703 0.69310 0.07400
H 	H 	0.33678 0.54041 0.61390 0.09000
Br	Br	0.32203 0.45199 0.56917 -0.18400
C 	C 	0.64174 0.74803 0.70581 -0.07800
C 	C 	0.55958 0.74034 0.67996 -0.00500
C 	C 	0.55895 0.78344 0.64069 0.08700
C 	C 	0.63850 0.83026 0.62786 -0.01200
C 	C 	0.71869 0.83399 0.65356 -0.09800
C 	C 	0.71915 0.79066 0.69260 0.14600
Br	Br	0.82260 0.78404 0.72790 -0.22300
H 	H 	0.64227 0.71376 0.73585 0.08400
H 	H 	0.63857 0.86533 0.59791 0.07000
Br	Br	0.44826 0.77472 0.60372 -0.21000
C 	C 	0.21027 0.66013 0.62909 -0.07600
C 	C 	0.25123 0.64715 0.66821 0.00100
C 	C 	0.24002 0.67047 0.69131 0.09100
C 	C 	0.18547 0.70424 0.67490 -0.00600
C 	C 	0.14229 0.71550 0.63549 -0.08600
C 	C 	0.15729 0.69443 0.61238 0.15600
Br	Br	0.10909 0.71268 0.55756 -0.28300
H 	H 	0.22103 0.64473 0.61116 0.09200
H 	H 	0.17467 0.71907 0.69303 0.07900
Br	Br	0.29513 0.65334 0.74532 -0.19000
C 	C 	0.18926 0.46474 0.09859 -0.07800
C 	C 	0.22398 0.47385 0.13612 -0.01100
C 	C 	0.24537 0.41349 0.16645 0.08700
C 	C 	0.22719 0.34258 0.15922 -0.01200
C 	C 	0.18550 0.32957 0.12202 -0.09600
C 	C 	0.17671 0.39717 0.09141 0.14000
Br	Br	0.15041 0.39979 0.03965 -0.22300
H 	H 	0.17865 0.51450 0.07474 0.08000
H 	H 	0.23807 0.29291 0.18299 0.07000
Br	Br	0.30102 0.42771 0.21784 -0.20500
C 	C 	0.57764 0.89840 0.08066 -0.01400
C 	C 	0.64231 0.87708 0.10621 -0.09400
C 	C 	0.62931 0.82157 0.14336 0.14300
C 	C 	0.55334 0.78945 0.15433 -0.07400
C 	C 	0.48200 0.79974 0.12709 -0.00400
C 	C 	0.49766 0.85980 0.09093 0.09200
Br	Br	0.40794 0.88605 0.05458 -0.21300
H 	H 	0.58951 0.94500 0.05283 0.08400
H 	H 	0.54279 0.74537 0.18269 0.09000
Br	Br	0.70866 0.78157 0.17849 -0.21100
C 	C 	0.10972 0.60107 0.16782 -0.07500
C 	C 	0.20889 0.66249 0.17344 -0.00200
C 	C 	0.25553 0.74250 0.18427 0.09100
C 	C 	0.20423 0.77454 0.17608 -0.01100
C 	C 	0.10582 0.72108 0.16182 -0.09300
C 	C 	0.05978 0.62825 0.16579 0.14500
Br	Br	0.92724 0.54145 0.16359 -0.20200
H 	H 	0.07108 0.53469 0.16342 0.07800
H 	H 	0.24126 0.84268 0.17835 0.08200
Br	Br	0.38136 0.79685 0.21633 -0.18300
C 	C 	0.80376 0.18241 0.49115 -0.01500
C 	C 	0.89612 0.22005 0.51426 -0.08700
C 	C 	0.94509 0.30420 0.52176 0.13600
C 	C 	0.89462 0.33297 0.51762 -0.07600
C 	C 	0.79712 0.28480 0.50084 -0.00300
C 	C 	0.75574 0.21785 0.48274 0.08700
Br	Br	0.63777 0.17894 0.44505 -0.19000
H 	H 	0.76741 0.12248 0.48179 0.06700
H 	H 	0.93054 0.39037 0.52861 0.07600
Br	Br	0.08002 0.38325 0.53465 -0.19600
C 	C 	0.78546 0.47291 0.56398 -0.07400
C 	C 	0.74793 0.46209 0.52664 -0.01000
C 	C 	0.71972 0.51766 0.49676 0.09000
C 	C 	0.73416 0.58627 0.50407 -0.01700
C 	C 	0.78120 0.60342 0.54066 -0.08800
C 	C 	0.79658 0.53937 0.57136 0.14300
Br	Br	0.82469 0.53616 0.62351 -0.20700
H 	H 	0.80016 0.42560 0.58764 0.07700
H 	H 	0.71710 0.63203 0.48050 0.07500
Br	Br	0.66126 0.50074 0.44574 -0.18900
C 	C 	0.48995 0.08157 0.57240 -0.07800
C 	C 	0.50269 0.13223 0.53512 -0.00500
C 	C 	0.42442 0.12353 0.50477 0.08700
C 	C 	0.33867 0.07704 0.51255 -0.00800
C 	C 	0.32908 0.03523 0.55032 -0.12200
C 	C 	0.40332 0.03301 0.58016 0.14100
Br	Br	0.38846 0.96619 0.63168 -0.18400
H 	H 	0.54937 0.08566 0.59575 0.07400
H 	H 	0.27951 0.07376 0.48923 0.05700
Br	Br	0.43626 0.18176 0.45275 -0.18700
C 	C 	0.87876 0.31221 0.98318 -0.01200
C 	C 	0.84660 0.22025 0.99829 -0.08600
C 	C 	0.74954 0.15218 0.99577 0.13900
C 	C 	0.69274 0.17421 0.99140 -0.07700
C 	C 	0.72834 0.26703 0.98143 -0.00100
C 	C 	0.81730 0.33503 0.97190 0.08800
Br	Br	0.84775 0.45200 0.93755 -0.20400
H 	H 	0.95145 0.36579 0.98086 0.08300
H 	H 	0.62249 0.11947 0.99629 0.07400
Br	Br	0.69269 0.03298 0.99334 -0.21800
C 	C 	0.73772 0.55712 0.97969 -0.07100
C 	C 	0.73507 0.48312 0.00949 -0.00800
C 	C 	0.75963 0.48424 0.04762 0.09000
C 	C 	0.78898 0.56002 0.05552 -0.01800
C 	C 	0.79751 0.63648 0.02585 -0.09500
C 	C 	0.76577 0.63209 0.98764 0.14700
Br	Br	0.75938 0.72781 0.94591 -0.19500
H 	H 	0.71392 0.55450 0.95021 0.08700
H 	H 	0.81018 0.56157 0.08489 0.08600
Br	Br	0.75273 0.38239 0.08921 -0.20500
C 	C 	0.45414 0.11626 0.03997 -0.06600
C 	C 	0.44814 0.17531 0.00384 -0.02200
C 	C 	0.37225 0.18172 0.98832 0.10400
C 	C 	0.31366 0.14265 0.01123 -0.03300
C 	C 	0.32309 0.08799 0.04830 -0.09200
C 	C 	0.39364 0.07440 0.06258 0.13900
Br	Br	0.41445 0.00617 0.11418 -0.21800
H 	H 	0.51170 0.10994 0.05199 0.08000
H 	H 	0.25859 0.15218 0.99969 0.06600
Br	Br	0.35057 0.24730 0.93631 -0.20900
