data_crystal

_cell_length_a 26.02487
_cell_length_b 26.36094
_cell_length_c 26.54586
_cell_angle_alpha 95.49948
_cell_angle_beta  95.49890
_cell_angle_gamma 125.84380

_symmetry_space_group_name_	'P 1'
_symmetry_space_group_name_H-M	'P 1'

loop_
_symmetry_equiv_pos_as_xyz
  x,y,z

loop_
_atom_site_label
_atom_site_type_symbol
_atom_site_fract_x
_atom_site_fract_y
_atom_site_fract_z
_atom_site_charge
C 	C 	0.96425 0.02206 0.98885 0.10000
N 	N 	0.93111 0.95880 0.98903 -0.02900
C 	C 	0.95949 0.92972 0.98096 0.17800
N 	N 	0.02045 0.96358 0.97133 0.00300
C 	C 	0.05275 0.02628 0.96902 0.12600
N 	N 	0.02471 0.05555 0.97815 -0.06100
C 	C 	0.94210 0.00699 0.44121 0.09800
N 	N 	0.00752 0.04326 0.44980 -0.04100
C 	C 	0.03783 0.01599 0.45746 0.14200
N 	N 	0.00264 0.95232 0.45617 -0.00600
C 	C 	0.93726 0.91603 0.44801 0.17400
N 	N 	0.90699 0.94348 0.44112 -0.03500
Cu	Cu	0.63502 0.23652 0.01236 0.94300
Cu	Cu	0.68838 0.23389 0.90626 0.89800
Cu	Cu	0.67035 0.33200 0.94169 0.91900
Cu	Cu	0.64572 0.36102 0.04381 0.92800
C 	C 	0.65679 0.28944 0.11847 0.29100
O 	O 	0.54343 0.20699 0.01068 -0.31900
C 	C 	0.66154 0.29136 0.83228 0.28700
O 	O 	0.69167 0.33522 0.01379 -0.63100
O 	O 	0.62736 0.23924 0.93833 -0.63700
O 	O 	0.66764 0.18475 0.01144 -0.31100
O 	O 	0.74443 0.24728 0.96596 -0.34900
O 	O 	0.62946 0.31593 0.10322 -0.33100
O 	O 	0.71836 0.42317 0.94721 -0.32900
C 	C 	0.71454 0.46151 0.97979 0.31200
C 	C 	0.52110 0.23448 0.98790 0.28400
O 	O 	0.56105 0.29470 0.98390 -0.29400
O 	O 	0.69421 0.44649 0.02365 -0.28700
O 	O 	0.65708 0.24879 0.08566 -0.30800
C 	C 	0.72286 0.20633 0.99721 0.28500
O 	O 	0.65533 0.32609 0.86691 -0.30000
O 	O 	0.65438 0.23950 0.84155 -0.35900
H 	H 	0.73850 0.36160 0.02804 0.21700
H 	H 	0.58290 0.21126 0.91797 0.23200
Cu	Cu	0.74607 0.35085 0.44370 0.94600
Cu	Cu	0.75324 0.30177 0.55103 0.90400
Cu	Cu	0.64699 0.30915 0.51371 0.91600
Cu	Cu	0.61728 0.33493 0.41255 0.92100
C 	C 	0.69016 0.32514 0.33742 0.29600
O 	O 	0.77418 0.44091 0.44432 -0.29300
C 	C 	0.69040 0.32210 0.62386 0.29000
O 	O 	0.64564 0.29104 0.44176 -0.63500
O 	O 	0.74212 0.35795 0.51767 -0.63200
O 	O 	0.80048 0.32075 0.44520 -0.30700
O 	O 	0.73972 0.24548 0.49207 -0.34700
O 	O 	0.66072 0.34973 0.35179 -0.33600
O 	O 	0.55406 0.25584 0.50673 -0.31400
C 	C 	0.51335 0.25403 0.47143 0.31500
C 	C 	0.74297 0.46041 0.46447 0.30100
O 	O 	0.68435 0.41833 0.47213 -0.34500
O 	O 	0.53308 0.29086 0.43643 -0.30900
O 	O 	0.73419 0.32913 0.37048 -0.29900
C 	C 	0.77964 0.26651 0.45957 0.30600
O 	O 	0.65098 0.32207 0.58844 -0.32400
O 	O 	0.74533 0.33462 0.61483 -0.35400
H 	H 	0.62051 0.24520 0.42660 0.24200
H 	H 	0.76741 0.40185 0.53773 0.24600
C 	C 	0.66392 0.30365 0.77929 -0.02700
C 	C 	0.61593 0.25533 0.73852 0.01400
C 	C 	0.62229 0.26241 0.68736 0.02200
C 	C 	0.67769 0.31810 0.67675 -0.03300
C 	C 	0.72383 0.36790 0.71748 0.01500
C 	C 	0.71696 0.36121 0.76864 0.02200
H 	H 	0.57435 0.21162 0.74665 0.09500
H 	H 	0.76574 0.41135 0.70935 0.10100
C 	C 	0.76546 0.41292 0.80999 0.13600
C 	C 	0.57279 0.21147 0.64601 0.12600
N 	N 	0.80425 0.45435 0.84311 -0.04900
N 	N 	0.53315 0.17070 0.61287 -0.05100
C 	C 	0.66929 0.29057 0.17386 -0.02800
C 	C 	0.72934 0.34070 0.20382 0.01000
C 	C 	0.73823 0.35035 0.25772 0.02700
C 	C 	0.68651 0.30905 0.28194 -0.02300
C 	C 	0.62792 0.25634 0.25191 0.01200
C 	C 	0.61901 0.24689 0.19804 0.03000
H 	H 	0.76833 0.37379 0.18518 0.08800
H 	H 	0.58845 0.22399 0.27050 0.09500
C 	C 	0.55743 0.19351 0.16783 0.14500
C 	C 	0.79955 0.40432 0.28780 0.14300
N 	N 	0.50812 0.15079 0.14359 -0.04200
N 	N 	0.84865 0.44756 0.31190 -0.04800
C 	C 	0.86902 0.74248 0.41434 0.05700
C 	C 	0.84034 0.71955 0.45693 0.08800
C 	C 	0.84012 0.76062 0.49541 -0.06900
C 	C 	0.87114 0.82476 0.49113 0.06200
C 	C 	0.89945 0.84740 0.44835 0.08200
C 	C 	0.89556 0.80521 0.40824 -0.07100
C 	C 	0.81259 0.65292 0.46160 0.10500
C 	C 	0.81142 0.73770 0.54293 0.78600
H 	H 	0.87495 0.85772 0.52177 0.14000
C 	C 	0.92211 0.82759 0.35994 0.78500
H 	H 	0.87047 0.71118 0.38591 0.12900
C 	C 	0.75120 0.60131 0.43280 -0.09800
C 	C 	0.72967 0.53867 0.43428 0.08600
C 	C 	0.76640 0.52683 0.46600 0.00500
C 	C 	0.82568 0.57836 0.49741 -0.04900
C 	C 	0.84965 0.64102 0.49286 0.03600
C 	C 	0.71074 0.61263 0.39740 0.79100
H 	H 	0.68475 0.49883 0.40992 0.08700
C 	C 	0.86337 0.56676 0.53562 0.77700
H 	H 	0.89721 0.68080 0.51364 0.14000
F 	F 	0.90365 0.86330 0.34201 -0.34700
F 	F 	0.89938 0.77661 0.32084 -0.35800
F 	F 	0.98873 0.86438 0.37091 -0.37600
F 	F 	0.85175 0.73172 0.57528 -0.37400
F 	F 	0.75117 0.67943 0.52933 -0.36000
F 	F 	0.80414 0.78011 0.56984 -0.35000
F 	F 	0.91316 0.62253 0.56878 -0.37000
F 	F 	0.88955 0.54176 0.50940 -0.40900
F 	F 	0.82305 0.52451 0.56517 -0.42000
F 	F 	0.64777 0.55812 0.38229 -0.37400
F 	F 	0.73704 0.63056 0.35377 -0.38800
F 	F 	0.70868 0.65994 0.42198 -0.35900
C 	C 	0.78283 0.13049 0.40713 0.04000
C 	C 	0.84576 0.15441 0.42952 0.09900
C 	C 	0.89075 0.21966 0.45261 -0.09500
C 	C 	0.86883 0.25710 0.45980 0.08200
C 	C 	0.80414 0.23117 0.44193 0.00800
C 	C 	0.76203 0.16906 0.41177 -0.05400
C 	C 	0.86344 0.11025 0.43005 0.09000
C 	C 	0.96177 0.24925 0.46939 0.79000
H 	H 	0.90134 0.30567 0.48100 0.10200
C 	C 	0.69406 0.14273 0.38661 0.77800
H 	H 	0.74950 0.08115 0.38767 0.13000
C 	C 	0.85469 0.07712 0.47125 -0.08100
C 	C 	0.87928 0.04183 0.47341 0.05300
C 	C 	0.90943 0.03695 0.43423 0.07500
C 	C 	0.91097 0.06362 0.39005 -0.06600
C 	C 	0.88935 0.10152 0.38907 0.04800
C 	C 	0.81795 0.07814 0.51206 0.78600
H 	H 	0.87634 0.01919 0.50611 0.11500
C 	C 	0.93817 0.05416 0.34498 0.70500
H 	H 	0.89397 0.12555 0.35699 0.13300
F 	F 	0.65495 0.12376 0.42312 -0.39400
F 	F 	0.66832 0.09079 0.34760 -0.39000
F 	F 	0.69409 0.18859 0.36519 -0.42800
F 	F 	0.98601 0.24130 0.42768 -0.39100
F 	F 	0.96932 0.22044 0.50730 -0.37500
F 	F 	0.99797 0.31391 0.48883 -0.38000
F 	F 	0.91989 0.06882 0.30127 -0.36500
F 	F 	0.91589 0.99138 0.33317 -0.29600
F 	F 	0.00482 0.09328 0.35751 -0.33600
F 	F 	0.81438 0.04259 0.54859 -0.38500
F 	F 	0.75565 0.05287 0.48910 -0.40200
F 	F 	0.84817 0.13997 0.53727 -0.38600
C 	C 	0.21317 0.09435 0.51246 0.05300
C 	C 	0.24251 0.12128 0.47115 0.08900
C 	C 	0.20455 0.11474 0.42541 -0.06900
C 	C 	0.13750 0.08040 0.42204 0.05900
C 	C 	0.10850 0.05472 0.46381 0.08600
C 	C 	0.14694 0.06408 0.51037 -0.07000
C 	C 	0.31287 0.15457 0.47564 0.10000
C 	C 	0.23457 0.14024 0.37893 0.78600
H 	H 	0.10738 0.07235 0.38649 0.15600
C 	C 	0.11726 0.03997 0.55722 0.73500
H 	H 	0.24231 0.09759 0.54645 0.12900
C 	C 	0.35777 0.21944 0.49987 -0.09100
C 	C 	0.42381 0.25041 0.49990 0.08500
C 	C 	0.44524 0.21788 0.47630 0.01200
C 	C 	0.40087 0.15220 0.45487 -0.05300
C 	C 	0.33486 0.12097 0.45525 0.03800
C 	C 	0.33567 0.25491 0.52727 0.79000
H 	H 	0.45877 0.30023 0.51760 0.11000
C 	C 	0.42381 0.11586 0.43085 0.77900
H 	H 	0.30011 0.07079 0.43856 0.13300
F 	F 	0.07512 0.05457 0.56496 -0.37600
F 	F 	0.16407 0.06756 0.60147 -0.36400
F 	F 	0.08417 0.97465 0.54994 -0.31900
F 	F 	0.25227 0.10405 0.35736 -0.38300
F 	F 	0.28851 0.20308 0.39323 -0.36300
F 	F 	0.19181 0.13784 0.34162 -0.34500
F 	F 	0.46859 0.11991 0.46706 -0.40900
F 	F 	0.45213 0.14173 0.38965 -0.40500
F 	F 	0.37354 0.05201 0.41311 -0.37900
F 	F 	0.38583 0.31896 0.54409 -0.36500
F 	F 	0.31163 0.22892 0.56971 -0.38200
F 	F 	0.28800 0.25042 0.49447 -0.35500
C 	C 	0.89430 0.76924 0.01689 0.06200
C 	C 	0.85192 0.72789 0.97104 0.08400
C 	C 	0.84365 0.75291 0.92863 -0.06900
C 	C 	0.87850 0.81930 0.93331 0.06700
C 	C 	0.92243 0.86059 0.97854 0.07400
C 	C 	0.93042 0.83566 0.02097 -0.04800
C 	C 	0.81525 0.65822 0.96841 0.10800
C 	C 	0.79517 0.70904 0.87956 0.78600
H 	H 	0.87168 0.83915 0.90168 0.14000
C 	C 	0.97837 0.87981 0.07009 0.75800
H 	H 	0.89936 0.74936 0.04922 0.13900
C 	C 	0.84462 0.62747 0.96040 -0.09900
C 	C 	0.81056 0.56288 0.96420 0.08500
C 	C 	0.74680 0.52785 0.97247 0.00800
C 	C 	0.71559 0.55727 0.97564 -0.04400
C 	C 	0.75162 0.62320 0.97691 0.03600
C 	C 	0.91386 0.66434 0.95189 0.79000
H 	H 	0.83414 0.54005 0.96199 0.10000
C 	C 	0.64467 0.51927 0.97927 0.77000
H 	H 	0.73020 0.64748 0.98442 0.14600
F 	F 	0.04031 0.91462 0.05989 -0.30300
F 	F 	0.97565 0.84647 0.10828 -0.34500
F 	F 	0.96532 0.92117 0.08876 -0.32600
F 	F 	0.73325 0.67986 0.88888 -0.37300
F 	F 	0.80272 0.66284 0.86280 -0.36500
F 	F 	0.80277 0.74227 0.84009 -0.35200
F 	F 	0.63769 0.50961 0.02920 -0.37900
F 	F 	0.60905 0.46093 0.94606 -0.37300
F 	F 	0.61953 0.55121 0.96605 -0.35000
F 	F 	0.92790 0.62366 0.93336 -0.38000
F 	F 	0.95563 0.70157 0.99804 -0.38600
F 	F 	0.92448 0.70304 0.91633 -0.36300
C 	C 	0.85775 0.19351 0.03477 0.05300
C 	C 	0.82661 0.12885 0.01517 0.08000
C 	C 	0.75857 0.08726 0.99991 -0.06500
C 	C 	0.72444 0.11328 0.99659 0.04500
C 	C 	0.75677 0.17907 0.01128 0.03200
C 	C 	0.82284 0.21871 0.03482 -0.06600
C 	C 	0.86592 0.10562 0.00924 0.10300
C 	C 	0.72257 0.01552 0.98731 0.62400
H 	H 	0.67320 0.08289 0.98073 0.09600
C 	C 	0.85691 0.28827 0.05802 0.78200
H 	H 	0.90953 0.22451 0.04847 0.13100
C 	C 	0.88950 0.10613 0.96320 -0.10000
C 	C 	0.92178 0.07854 0.95746 0.05500
C 	C 	0.93354 0.05370 0.99761 0.06100
C 	C 	0.91602 0.05948 0.04559 -0.06300
C 	C 	0.88058 0.08378 0.05032 0.03600
C 	C 	0.88247 0.13816 0.92117 0.78800
H 	H 	0.93747 0.07582 0.92159 0.11300
C 	C 	0.93235 0.03727 0.09103 0.73200
H 	H 	0.86351 0.08501 0.08576 0.13000
F 	F 	0.87444 0.32383 0.01940 -0.39500
F 	F 	0.91198 0.31161 0.09350 -0.38600
F 	F 	0.81701 0.29577 0.08332 -0.42700
F 	F 	0.73642 0.99505 0.02901 -0.30500
F 	F 	0.74092 0.99948 0.94508 -0.29400
F 	F 	0.65639 0.98333 0.97616 -0.30300
F 	F 	0.92698 0.06232 0.13678 -0.36500
F 	F 	0.99510 0.05658 0.09599 -0.37800
F 	F 	0.89034 0.97155 0.08379 -0.29500
F 	F 	0.90812 0.13300 0.87933 -0.38700
F 	F 	0.91461 0.20223 0.94045 -0.40400
F 	F 	0.81804 0.11046 0.90377 -0.40000
C 	C 	0.35645 0.18670 0.92787 0.03200
C 	C 	0.31800 0.14612 0.96011 0.11500
C 	C 	0.34412 0.12706 0.99622 -0.12200
C 	C 	0.41091 0.15750 0.00530 0.10700
C 	C 	0.45036 0.20050 0.97462 -0.00100
C 	C 	0.42168 0.21096 0.93255 -0.04900
C 	C 	0.25021 0.12338 0.95549 0.07200
C 	C 	0.30079 0.07333 0.02405 0.80600
H 	H 	0.43252 0.14833 0.03661 0.10100
C 	C 	0.45968 0.24768 0.89272 0.77600
H 	H 	0.33544 0.19938 0.89914 0.14100
C 	C 	0.23285 0.15339 0.98942 -0.06700
C 	C 	0.16756 0.12109 0.99317 0.04200
C 	C 	0.11953 0.06346 0.95949 0.11200
C 	C 	0.13662 0.04071 0.91865 -0.15300
C 	C 	0.20219 0.06910 0.91878 0.08800
C 	C 	0.28362 0.21946 0.02141 0.79500
H 	H 	0.15412 0.13981 0.02303 0.15100
C 	C 	0.08571 0.98559 0.87570 0.85200
H 	H 	0.21593 0.04803 0.89125 0.10900
F 	F 	0.49531 0.31238 0.91136 -0.36900
F 	F 	0.41877 0.23284 0.84727 -0.38200
F 	F 	0.50056 0.23275 0.88104 -0.44600
F 	F 	0.25249 0.01940 0.98856 -0.40200
F 	F 	0.27310 0.09102 0.05641 -0.36600
F 	F 	0.33478 0.05770 0.05343 -0.38500
F 	F 	0.11104 0.98793 0.83168 -0.33500
F 	F 	0.03425 0.98773 0.86296 -0.35600
F 	F 	0.06379 0.92857 0.89114 -0.34600
F 	F 	0.25582 0.24428 0.04533 -0.35800
F 	F 	0.32158 0.26049 0.99014 -0.38700
F 	F 	0.32237 0.21704 0.05898 -0.36500
