data_crystal

_cell_length_a 18.58728
_cell_length_b 15.72461
_cell_length_c 41.08349
_cell_angle_alpha 90.88725
_cell_angle_beta  91.26401
_cell_angle_gamma 111.20844

_symmetry_space_group_name_	'P 1'
_symmetry_space_group_name_H-M	'P 1'

loop_
_symmetry_equiv_pos_as_xyz
  x,y,z

loop_
_atom_site_label
_atom_site_type_symbol
_atom_site_fract_x
_atom_site_fract_y
_atom_site_fract_z
_atom_site_charge
Ni	Ni	0.71618 0.33181 0.89126 1.09900
O 	O 	0.62336 0.26572 0.86109 -0.70600
Ni	Ni	0.53712 0.27012 0.88809 1.10500
O 	O 	0.78899 0.31853 0.85665 -0.36000
O 	O 	0.72755 0.16295 0.85346 -0.39300
O 	O 	0.71439 0.44511 0.86848 -0.39600
Ni	Ni	0.60851 0.13916 0.85173 1.07000
O 	O 	0.74271 0.43041 0.96428 -0.41300
O 	O 	0.60295 0.10411 0.89974 -0.40500
O 	O 	0.45212 0.21433 0.85413 -0.36700
O 	O 	0.62895 0.32048 0.92047 -0.69900
O 	O 	0.81013 0.40807 0.92020 -0.37200
O 	O 	0.46236 0.30691 0.91609 -0.36200
O 	O 	0.55086 0.45027 0.91999 -0.40400
Ni	Ni	0.64951 0.44077 0.94110 1.07600
H 	H 	0.62456 0.29817 0.84052 0.17000
H 	H 	0.62708 0.27592 0.93748 0.15800
C 	C 	0.54285 0.09789 0.91715 0.28300
O 	O 	0.72057 0.53968 0.91194 -0.38900
C 	C 	0.78209 0.23869 0.84382 0.27600
C 	C 	0.44738 0.14027 0.83722 0.27800
C 	C 	0.74014 0.52621 0.88228 0.31000
C 	C 	0.48369 0.39071 0.92779 0.28100
C 	C 	0.80820 0.44361 0.94958 0.28800
O 	O 	0.49950 0.14543 0.90988 -0.36800
O 	O 	0.48969 0.09088 0.84569 -0.39100
Ni	Ni	0.59947 0.31624 0.57284 1.10100
O 	O 	0.68490 0.33849 0.53965 -0.69600
Ni	Ni	0.75629 0.28567 0.56175 1.09900
O 	O 	0.55417 0.40696 0.55395 -0.36000
O 	O 	0.67340 0.51478 0.55271 -0.40800
O 	O 	0.52419 0.21783 0.54171 -0.36600
Ni	Ni	0.74206 0.46286 0.52640 1.07600
O 	O 	0.49246 0.12949 0.59763 -0.39700
O 	O 	0.83193 0.51883 0.55967 -0.38300
O 	O 	0.85056 0.32707 0.53158 -0.37400
O 	O 	0.66474 0.25289 0.59272 -0.69900
O 	O 	0.51648 0.28232 0.60673 -0.37600
O 	O 	0.80486 0.20833 0.58810 -0.35300
O 	O 	0.69359 0.08296 0.58405 -0.40000
Ni	Ni	0.60030 0.12315 0.59171 1.07000
H 	H 	0.66396 0.30200 0.51947 0.15300
H 	H 	0.68106 0.27564 0.61531 0.16700
C 	C 	0.85877 0.47439 0.58067 0.29100
O 	O 	0.58612 0.11637 0.54252 -0.41100
C 	C 	0.59998 0.48735 0.54470 0.28100
C 	C 	0.86163 0.39004 0.50900 0.28900
C 	C 	0.54143 0.15228 0.52759 0.28500
C 	C 	0.76243 0.12565 0.59744 0.27500
C 	C 	0.47614 0.19590 0.61236 0.28500
O 	O 	0.81262 0.39600 0.59176 -0.38400
O 	O 	0.80386 0.41176 0.49766 -0.41800
Ni	Ni	0.98458 0.95704 0.75487 1.09100
O 	O 	0.00402 0.85738 0.72866 -0.69700
Ni	Ni	0.04803 0.92340 0.68853 1.10800
O 	O 	0.94016 0.86891 0.79183 -0.35900
O 	O 	0.84929 0.76971 0.75740 -0.40000
O 	O 	0.09163 0.99766 0.77935 -0.34400
Ni	Ni	0.90603 0.76150 0.71493 1.06500
O 	O 	0.07053 0.16524 0.76749 -0.36900
O 	O 	0.85769 0.84669 0.69376 -0.39800
O 	O 	0.06830 0.81659 0.66706 -0.36100
O 	O 	0.01677 0.02172 0.71215 -0.66200
O 	O 	0.95751 0.05263 0.77952 -0.36900
O 	O 	0.11666 0.00648 0.65445 -0.34500
O 	O 	0.14510 0.14993 0.67527 -0.37600
Ni	Ni	0.09979 0.13925 0.72145 1.08000
H 	H 	0.03992 0.83286 0.73977 0.17600
H 	H 	0.97306 0.03328 0.70165 0.13900
C 	C 	0.88672 0.89284 0.66771 0.28400
O 	O 	0.16236 0.06424 0.73569 -0.42400
C 	C 	0.88475 0.78948 0.78614 0.28100
C 	C 	0.01102 0.73642 0.66404 0.30400
C 	C 	0.15910 0.03502 0.76535 0.28800
C 	C 	0.16795 0.08696 0.66266 0.28400
C 	C 	0.99833 0.13921 0.77691 0.25100
O 	O 	0.95410 0.89647 0.65755 -0.37300
O 	O 	0.93978 0.72912 0.67093 -0.41300
Ni	Ni	0.24813 0.68310 0.39482 1.10100
O 	O 	0.34042 0.73478 0.36565 -0.70600
Ni	Ni	0.42660 0.73928 0.39598 1.10400
O 	O 	0.17718 0.68366 0.35643 -0.36200
O 	O 	0.23827 0.83763 0.35008 -0.39100
O 	O 	0.24634 0.56009 0.37782 -0.39700
Ni	Ni	0.35657 0.85710 0.35149 1.07000
O 	O 	0.21912 0.60968 0.47005 -0.40900
O 	O 	0.36397 0.91031 0.39788 -0.40000
O 	O 	0.51165 0.78099 0.36304 -0.36300
O 	O 	0.33540 0.70336 0.42679 -0.69800
O 	O 	0.15333 0.62157 0.42290 -0.36900
O 	O 	0.49859 0.70757 0.42820 -0.36600
O 	O 	0.40592 0.56696 0.43256 -0.40500
Ni	Ni	0.31312 0.59164 0.45180 1.07300
H 	H 	0.33776 0.69416 0.34663 0.16900
H 	H 	0.33861 0.75445 0.44182 0.15700
C 	C 	0.42360 0.92152 0.41754 0.27700
O 	O 	0.23864 0.48305 0.42485 -0.38700
C 	C 	0.18116 0.75959 0.34242 0.27800
C 	C 	0.51621 0.84792 0.34303 0.27300
C 	C 	0.21790 0.48555 0.39423 0.31200
C 	C 	0.47638 0.62417 0.43913 0.26900
C 	C 	0.15404 0.58985 0.45269 0.29200
O 	O 	0.46651 0.87156 0.41389 -0.36600
O 	O 	0.47507 0.90089 0.34799 -0.39000
Ni	Ni	0.37629 0.70199 0.06501 1.10300
O 	O 	0.28439 0.68716 0.03424 -0.69800
Ni	Ni	0.21829 0.73131 0.06284 1.10200
O 	O 	0.41126 0.60966 0.04067 -0.36600
O 	O 	0.28852 0.50569 0.03934 -0.40300
O 	O 	0.44654 0.80261 0.03583 -0.36400
Ni	Ni	0.22296 0.56848 0.01519 1.07400
O 	O 	0.48915 0.88371 0.09400 -0.39700
O 	O 	0.13248 0.51865 0.04631 -0.38800
O 	O 	0.11560 0.69120 0.03556 -0.35500
O 	O 	0.31843 0.76348 0.09051 -0.70200
O 	O 	0.46700 0.73007 0.09696 -0.37500
O 	O 	0.17744 0.80367 0.09496 -0.34600
O 	O 	0.28564 0.93092 0.08923 -0.39700
Ni	Ni	0.38160 0.89288 0.09188 1.07100
H 	H 	0.30083 0.72970 0.01606 0.15900
H 	H 	0.30925 0.73910 0.11274 0.16600
C 	C 	0.13677 0.53401 0.07794 0.29700
O 	O 	0.38531 0.90358 0.04268 -0.40700
C 	C 	0.36176 0.52791 0.03257 0.27300
C 	C 	0.10554 0.64849 0.00670 0.28500
C 	C 	0.42890 0.87161 0.02550 0.28200
C 	C 	0.22140 0.88752 0.10437 0.26900
C 	C 	0.50675 0.81558 0.10613 0.28100
O 	O 	0.17652 0.61601 0.09036 -0.37800
O 	O 	0.16385 0.63633 0.99240 -0.40600
Ni	Ni	0.97048 0.03414 0.26548 1.09100
O 	O 	0.96815 0.13917 0.23753 -0.72500
Ni	Ni	0.93356 0.07611 0.19460 1.09300
O 	O 	0.00985 0.12073 0.30500 -0.33800
O 	O 	0.11369 0.21011 0.27718 -0.39700
O 	O 	0.85908 0.00555 0.28184 -0.36700
Ni	Ni	0.07252 0.22749 0.23120 1.07500
O 	O 	0.87937 0.81968 0.26940 -0.39900
O 	O 	0.11781 0.13450 0.21436 -0.39900
O 	O 	0.93025 0.18823 0.17105 -0.36200
O 	O 	0.94786 0.97145 0.22089 -0.68800
O 	O 	0.98123 0.93368 0.29290 -0.37400
O 	O 	0.87092 0.99690 0.15621 -0.35300
O 	O 	0.82958 0.85224 0.17442 -0.38700
Ni	Ni	0.86093 0.85459 0.22319 1.07700
H 	H 	0.93246 0.16833 0.24543 0.17300
H 	H 	0.99345 0.95799 0.21427 0.15000
C 	C 	0.09666 0.09332 0.18582 0.28900
O 	O 	0.79237 0.92297 0.23693 -0.41100
C 	C 	0.07094 0.19548 0.30302 0.28000
C 	C 	0.99370 0.26239 0.16977 0.22900
C 	C 	0.79359 0.95212 0.26711 0.30100
C 	C 	0.81448 0.91957 0.16134 0.28900
C 	C 	0.94835 0.84827 0.28365 0.28800
O 	O 	0.03339 0.09247 0.17089 -0.35200
O 	O 	0.05882 0.26563 0.18466 -0.36800
C 	C 	0.00160 0.32423 0.14220 -0.02100
C 	C 	0.02383 0.29980 0.11200 -0.01200
C 	C 	0.07158 0.36789 0.09189 0.01300
C 	C 	0.08612 0.46126 0.09925 -0.06200
C 	C 	0.04910 0.48385 0.12609 0.00400
C 	C 	0.01022 0.41589 0.14839 0.01500
C 	C 	0.00092 0.20426 0.10247 0.14300
C 	C 	0.04623 0.57446 0.12957 0.10600
C 	C 	0.98031 0.44046 0.17791 0.04700
C 	C 	0.10877 0.34185 0.06482 0.09300
N 	N 	0.95647 0.46011 0.20150 -0.11100
N 	N 	0.13832 0.32078 0.04327 -0.11000
N 	N 	0.04367 0.64665 0.13237 -0.09300
N 	N 	0.98268 0.12802 0.09487 -0.12600
C 	C 	0.73872 0.90036 0.14506 -0.06900
C 	C 	0.71692 0.84166 0.11738 0.00800
C 	C 	0.64034 0.81188 0.10491 0.00200
C 	C 	0.58464 0.83786 0.12101 -0.05900
C 	C 	0.60692 0.89682 0.14865 -0.00300
C 	C 	0.68472 0.93206 0.15946 0.01000
C 	C 	0.77379 0.81376 0.10127 0.09500
C 	C 	0.54949 0.92035 0.16617 0.07100
C 	C 	0.70971 0.00299 0.18472 0.06200
C 	C 	0.61967 0.75757 0.07489 0.09700
N 	N 	0.72957 0.05980 0.20479 -0.11900
N 	N 	0.60326 0.71431 0.05094 -0.10700
N 	N 	0.50367 0.93909 0.18013 -0.12700
N 	N 	0.81917 0.79152 0.08843 -0.10600
C 	C 	0.19001 0.94080 0.12595 -0.04900
C 	C 	0.18362 0.02238 0.11478 -0.00700
C 	C 	0.16872 0.08259 0.13689 0.01400
C 	C 	0.14731 0.05502 0.16872 -0.07500
C 	C 	0.15846 0.97707 0.18067 0.01000
C 	C 	0.17860 0.91890 0.15915 -0.00700
C 	C 	0.18924 0.04245 0.08038 0.10200
C 	C 	0.15330 0.95968 0.21524 0.07400
C 	C 	0.18828 0.83735 0.17116 0.08500
C 	C 	0.17918 0.17467 0.12752 0.09400
N 	N 	0.19604 0.77224 0.18069 -0.10900
N 	N 	0.18802 0.24841 0.12016 -0.10700
N 	N 	0.14952 0.94641 0.24288 -0.11500
N 	N 	0.19368 0.05850 0.05294 -0.10400
C 	C 	0.58217 0.87826 0.32047 -0.05800
C 	C 	0.59611 0.81328 0.30000 0.00000
C 	C 	0.66624 0.83650 0.28352 0.00700
C 	C 	0.71934 0.92773 0.28450 -0.06200
C 	C 	0.70120 0.99509 0.30199 0.01400
C 	C 	0.63506 0.96975 0.32136 0.00600
C 	C 	0.53777 0.72264 0.29555 0.08000
C 	C 	0.74826 0.09072 0.29889 0.08500
C 	C 	0.62293 0.03732 0.34271 0.08900
C 	C 	0.68457 0.76583 0.26641 0.08000
N 	N 	0.61343 0.09151 0.35968 -0.11100
N 	N 	0.69904 0.70935 0.25277 -0.12800
N 	N 	0.78569 0.16707 0.29638 -0.10700
N 	N 	0.49122 0.65036 0.29201 -0.11600
C 	C 	0.09751 0.25734 0.33151 -0.05700
C 	C 	0.15963 0.25506 0.35131 0.00300
C 	C 	0.19677 0.32738 0.37368 0.00800
C 	C 	0.16996 0.40043 0.37683 -0.07100
C 	C 	0.10187 0.39632 0.35979 0.01200
C 	C 	0.06654 0.32561 0.33676 -0.01200
C 	C 	0.18577 0.17890 0.34834 0.09700
C 	C 	0.06889 0.46567 0.36536 0.09000
C 	C 	0.00069 0.32582 0.31714 0.10500
C 	C 	0.26445 0.32869 0.39228 0.09100
N 	N 	0.94838 0.32624 0.30144 -0.13800
N 	N 	0.31845 0.32976 0.40711 -0.10800
N 	N 	0.04158 0.52033 0.36932 -0.09700
N 	N 	0.20655 0.11808 0.34596 -0.10600
C 	C 	0.10988 0.76231 0.32674 -0.05700
C 	C 	0.09801 0.75005 0.29268 -0.00000
C 	C 	0.03102 0.75678 0.27794 0.02900
C 	C 	0.97989 0.78248 0.29697 -0.09000
C 	C 	0.98346 0.77509 0.33099 -0.00800
C 	C 	0.04979 0.76799 0.34609 0.03100
C 	C 	0.15469 0.73165 0.27296 0.08300
C 	C 	0.92120 0.78095 0.35040 0.09800
C 	C 	0.05683 0.76799 0.38133 0.09400
C 	C 	0.01664 0.74210 0.24312 0.06800
N 	N 	0.06245 0.76796 0.40944 -0.10300
N 	N 	0.00514 0.73042 0.21530 -0.11100
N 	N 	0.87143 0.78566 0.36587 -0.10500
N 	N 	0.19999 0.71693 0.25726 -0.11600
C 	C 	0.42786 0.06492 0.49213 0.00400
C 	C 	0.50738 0.11515 0.49555 -0.07400
C 	C 	0.55607 0.11370 0.47017 -0.00000
C 	C 	0.52711 0.05536 0.44316 -0.02000
C 	C 	0.44904 0.99829 0.44122 -0.04400
C 	C 	0.39870 0.00647 0.46499 -0.03000
H 	H 	0.38957 0.06642 0.51147 0.04700
H 	H 	0.61734 0.15348 0.47234 0.02900
H 	H 	0.56622 0.05067 0.42467 0.05800
H 	H 	0.33809 0.96357 0.46350 0.04900
C 	C 	0.93965 0.46917 0.46256 -0.03100
C 	C 	0.93658 0.42759 0.49278 -0.08100
C 	C 	0.00590 0.43661 0.50949 0.02400
C 	C 	0.07714 0.48961 0.49659 -0.00700
C 	C 	0.07943 0.53574 0.46726 -0.05900
C 	C 	0.00994 0.52567 0.45065 0.02500
H 	H 	0.88694 0.46144 0.44897 0.05000
H 	H 	0.00471 0.40563 0.53294 0.05400
H 	H 	0.13012 0.49569 0.50962 0.04600
H 	H 	0.01010 0.56295 0.42874 0.06200
C 	C 	0.55041 0.47346 0.48771 -0.01400
C 	C 	0.57656 0.52678 0.51624 -0.09100
C 	C 	0.58281 0.61834 0.51692 -0.00500
C 	C 	0.55697 0.65408 0.49005 -0.02100
C 	C 	0.52510 0.59831 0.46241 -0.06800
C 	C 	0.52545 0.50933 0.46083 -0.01400
H 	H 	0.54829 0.40367 0.48658 0.02900
H 	H 	0.60527 0.66081 0.53856 0.04000
H 	H 	0.55757 0.72320 0.49144 0.04300
H 	H 	0.50231 0.46631 0.43936 0.05000
C 	C 	0.79924 0.07130 0.61569 -0.06100
C 	C 	0.79469 0.06781 0.64991 -0.00500
C 	C 	0.81772 0.00439 0.66713 -0.00500
C 	C 	0.84506 0.94378 0.65003 -0.06600
C 	C 	0.84417 0.94326 0.61563 0.00800
C 	C 	0.82530 0.00991 0.59866 -0.00300
C 	C 	0.76460 0.12816 0.66732 0.07200
C 	C 	0.86048 0.87235 0.59770 0.09600
C 	C 	0.83234 0.01516 0.56359 0.09200
C 	C 	0.81276 0.00138 0.70232 0.06500
N 	N 	0.83795 0.01938 0.53560 -0.11000
N 	N 	0.80872 0.99909 0.73038 -0.11200
N 	N 	0.87353 0.81578 0.58343 -0.10400
N 	N 	0.74052 0.17625 0.68119 -0.11600
C 	C 	0.39853 0.17271 0.62626 -0.05800
C 	C 	0.37883 0.11720 0.65376 0.00100
C 	C 	0.30214 0.08469 0.66440 0.00100
C 	C 	0.24647 0.11433 0.64944 -0.05900
C 	C 	0.26633 0.17114 0.62227 0.00600
C 	C 	0.34166 0.19837 0.61016 0.00500
C 	C 	0.43768 0.09426 0.67129 0.07300
C 	C 	0.20867 0.19932 0.60616 0.10100
C 	C 	0.35960 0.24932 0.58037 0.09800
C 	C 	0.27993 0.01795 0.68984 0.07600
N 	N 	0.37376 0.28985 0.55659 -0.10100
N 	N 	0.26250 0.96438 0.71004 -0.11300
N 	N 	0.16266 0.22178 0.59330 -0.10000
N 	N 	0.48465 0.07601 0.68529 -0.12200
C 	C 	0.93324 0.52623 0.59860 -0.05900
C 	C 	0.94702 0.50366 0.63069 0.00200
C 	C 	0.99018 0.57397 0.65293 -0.01500
C 	C 	0.01951 0.66489 0.64258 -0.04700
C 	C 	0.02668 0.68029 0.60895 0.03400
C 	C 	0.98299 0.61060 0.58668 -0.02200
C 	C 	0.92358 0.40914 0.63979 0.09100
C 	C 	0.07382 0.76931 0.59751 0.10400
C 	C 	0.98850 0.62594 0.55199 0.08700
C 	C 	0.99916 0.55432 0.68677 0.03800
N 	N 	0.99297 0.63902 0.52434 -0.11900
N 	N 	0.00630 0.53862 0.71382 -0.08700
N 	N 	0.11144 0.84046 0.58839 -0.09400
N 	N 	0.90494 0.33354 0.64701 -0.10300
C 	C 	0.01247 0.50654 0.98081 0.03000
C 	C 	0.02709 0.59357 0.99476 -0.04000
C 	C 	0.96730 0.62788 0.99626 -0.02800
C 	C 	0.89440 0.57712 0.98256 -0.00400
C 	C 	0.88120 0.49198 0.96731 -0.05600
C 	C 	0.94012 0.45638 0.96702 -0.03700
H 	H 	0.05759 0.47815 0.98037 0.02400
H 	H 	0.97771 0.69453 0.00723 0.05000
H 	H 	0.84904 0.60512 0.98289 0.04000
H 	H 	0.93009 0.39015 0.95576 0.05500
C 	C 	0.56720 0.01285 0.96438 -0.01900
C 	C 	0.51549 0.02610 0.94139 -0.06400
C 	C 	0.43588 0.97793 0.94398 -0.00100
C 	C 	0.40788 0.92275 0.97058 -0.00600
C 	C 	0.45908 0.91439 0.99473 -0.06600
C 	C 	0.53902 0.95688 0.99098 0.00400
H 	H 	0.62878 0.04905 0.96252 0.04200
H 	H 	0.39548 0.98620 0.92604 0.06000
H 	H 	0.34614 0.88902 0.97302 0.03900
H 	H 	0.57907 0.95016 0.00943 0.04600
C 	C 	0.36955 0.40104 0.95555 0.00100
C 	C 	0.44702 0.40865 0.95692 -0.08200
C 	C 	0.49111 0.43933 0.98581 0.00400
C 	C 	0.46015 0.46993 0.01212 -0.01300
C 	C 	0.38509 0.47087 0.00967 -0.06900
C 	C 	0.33852 0.43198 0.98190 -0.00900
H 	H 	0.33456 0.37532 0.93358 0.04700
H 	H 	0.55029 0.44245 0.98744 -0.02000
H 	H 	0.49593 0.49764 0.03376 0.05000
H 	H 	0.28002 0.43107 0.97990 0.01200
C 	C 	0.96970 0.20478 0.79291 -0.05100
C 	C 	0.97316 0.21163 0.82718 -0.02800
C 	C 	0.91184 0.22338 0.84404 0.01700
C 	C 	0.84877 0.23181 0.82638 -0.06200
C 	C 	0.85277 0.24145 0.79230 0.00600
C 	C 	0.91502 0.23107 0.77576 -0.00500
C 	C 	0.03749 0.20116 0.84498 0.13900
C 	C 	0.79250 0.26037 0.77430 0.07500
C 	C 	0.92044 0.24176 0.74085 0.06700
C 	C 	0.91336 0.22618 0.87935 0.08300
N 	N 	0.92509 0.25021 0.71297 -0.11900
N 	N 	0.91454 0.22848 0.90753 -0.11500
N 	N 	0.74437 0.27546 0.75994 -0.11600
N 	N 	0.08890 0.19276 0.85917 -0.10500
C 	C 	0.23253 0.05976 0.78481 -0.06200
C 	C 	0.29272 0.14397 0.77937 0.01000
C 	C 	0.36807 0.15855 0.79066 0.00200
C 	C 	0.38085 0.10122 0.81415 -0.05900
C 	C 	0.32077 0.01773 0.82067 -0.00200
C 	C 	0.24729 0.99563 0.80508 0.01300
C 	C 	0.27613 0.21778 0.76415 0.07900
C 	C 	0.33416 0.95507 0.84341 0.10300
C 	C 	0.18755 0.90740 0.80988 0.09400
C 	C 	0.43256 0.23445 0.77890 0.07900
N 	N 	0.13989 0.83697 0.81377 -0.09900
N 	N 	0.48405 0.29498 0.76950 -0.11500
N 	N 	0.34476 0.90490 0.86153 -0.10900
N 	N 	0.26296 0.27668 0.75200 -0.12900
C 	C 	0.78468 0.60501 0.86273 -0.06700
C 	C 	0.85473 0.60796 0.84927 0.00200
C 	C 	0.88651 0.66704 0.82364 0.01100
C 	C 	0.85267 0.72967 0.81363 -0.06800
C 	C 	0.78732 0.73360 0.82947 0.00700
C 	C 	0.75235 0.67008 0.85360 0.00400
C 	C 	0.89474 0.55125 0.86210 0.09000
C 	C 	0.75577 0.80238 0.82074 0.09500
C 	C 	0.68207 0.66995 0.86829 0.09000
C 	C 	0.95161 0.66017 0.80645 0.04200
N 	N 	0.62598 0.66983 0.88001 -0.10600
N 	N 	0.00333 0.65440 0.79265 -0.08700
N 	N 	0.73068 0.85732 0.81375 -0.10600
N 	N 	0.92719 0.50642 0.87222 -0.10200
