data_crystal

_cell_length_a 28.14803
_cell_length_b 28.36750
_cell_length_c 30.24395
_cell_angle_alpha 61.08257
_cell_angle_beta  118.57147
_cell_angle_gamma 133.24229

_symmetry_space_group_name_	'P 1'
_symmetry_space_group_name_H-M	'P 1'

loop_
_symmetry_equiv_pos_as_xyz
  x,y,z

loop_
_atom_site_label
_atom_site_type_symbol
_atom_site_fract_x
_atom_site_fract_y
_atom_site_fract_z
_atom_site_charge
N 	N 	0.28933 0.62583 0.28242 -0.13900
N 	N 	0.25302 0.59245 0.77840 -0.13800
Co	Co	0.10500 0.99171 0.17766 1.17700
Co	Co	0.06090 0.05229 0.20731 1.18900
C 	C 	0.10283 0.86731 0.22651 0.28700
Co	Co	0.07927 0.90873 0.11288 1.16600
O 	O 	0.02429 0.15889 0.17339 -0.40000
C 	C 	0.08878 0.18516 0.19284 0.28500
O 	O 	0.13500 0.04550 0.22335 -0.44900
C 	C 	0.21268 0.03383 0.13955 0.32300
O 	O 	0.11392 0.15325 0.20374 -0.36900
O 	O 	0.18028 0.96976 0.14677 -0.42500
O 	O 	0.18990 0.05573 0.14838 -0.37900
O 	O 	0.03433 0.99641 0.27822 -0.42700
O 	O 	0.05580 0.95461 0.12792 -0.77300
O 	O 	0.06409 0.84434 0.18459 -0.39900
O 	O 	0.10447 0.91053 0.23475 -0.39000
O 	O 	0.08978 0.97818 0.04266 -0.38600
Co	Co	0.07278 0.95805 0.67940 1.17700
Co	Co	0.02420 0.01708 0.70586 1.18400
C 	C 	0.07163 0.83397 0.72943 0.28700
Co	Co	0.05229 0.87683 0.61623 1.16600
C 	C 	0.04727 0.14709 0.69118 0.26500
O 	O 	0.09996 0.01174 0.72388 -0.45500
C 	C 	0.18338 0.00209 0.64405 0.32100
O 	O 	0.07431 0.11791 0.70002 -0.37500
O 	O 	0.15224 0.93815 0.65206 -0.42400
O 	O 	0.15900 0.02329 0.65165 -0.38100
O 	O 	0.02584 0.92129 0.62951 -0.77300
O 	O 	0.03407 0.81164 0.68720 -0.40000
O 	O 	0.07317 0.87751 0.73715 -0.39000
O 	O 	0.06634 0.94766 0.54680 -0.40000
C 	C 	0.07693 0.02937 0.92678 0.13900
C 	C 	0.06837 0.02596 0.87858 -0.01300
H 	H 	0.10654 0.06706 0.85653 0.05400
Br	Br	0.15630 0.10722 0.95206 -0.24800
C 	C 	0.08432 0.03259 0.39200 0.15400
C 	C 	0.07839 0.02023 0.44047 -0.02300
H 	H 	0.12173 0.05140 0.46675 0.06300
Br	Br	0.16940 0.10421 0.37367 -0.25600
C 	C 	0.10291 0.37012 0.63781 -0.03900
C 	C 	0.16413 0.43344 0.70216 0.03300
C 	C 	0.17422 0.38479 0.73986 -0.02000
C 	C 	0.14831 0.32866 0.72636 -0.00300
C 	C 	0.11215 0.32111 0.67524 0.01200
C 	C 	0.15819 0.27986 0.76408 0.01700
C 	C 	0.19448 0.28790 0.81488 -0.03800
C 	C 	0.22091 0.34409 0.82813 -0.04500
C 	C 	0.21118 0.39284 0.79079 0.03300
C 	C 	0.23993 0.45065 0.80322 -0.05800
C 	C 	0.23224 0.50040 0.76512 0.00600
C 	C 	0.08412 0.26381 0.66254 -0.02700
C 	C 	0.09101 0.21355 0.70071 -0.05400
C 	C 	0.12996 0.22272 0.75091 -0.02700
H 	H 	0.20218 0.25062 0.84420 0.05300
H 	H 	0.24916 0.34977 0.86739 0.04600
H 	H 	0.27087 0.45849 0.84170 0.05000
H 	H 	0.05472 0.25696 0.62363 0.03800
H 	H 	0.13514 0.18381 0.78032 0.04900
C 	C 	0.08057 0.64596 0.80753 -0.03700
C 	C 	0.11094 0.62062 0.81047 -0.05200
C 	C 	0.17583 0.66416 0.80204 0.03400
C 	C 	0.21174 0.73346 0.79330 -0.02400
C 	C 	0.18144 0.75893 0.79108 -0.00100
C 	C 	0.11482 0.71515 0.79639 0.00900
C 	C 	0.21621 0.82841 0.78018 0.00900
C 	C 	0.28258 0.87170 0.77490 -0.03700
C 	C 	0.27669 0.77755 0.78444 0.03300
C 	C 	0.26755 0.68326 0.78882 0.00700
C 	C 	0.20416 0.63929 0.80048 -0.06200
C 	C 	0.08146 0.74128 0.78605 -0.02100
C 	C 	0.11302 0.81046 0.76775 -0.06600
C 	C 	0.18227 0.85381 0.77037 -0.02500
H 	H 	0.02970 0.61179 0.81245 0.03500
H 	H 	0.08328 0.56718 0.81801 0.04100
H 	H 	0.17638 0.58592 0.80738 0.05300
H 	H 	0.02873 0.70776 0.78631 0.03900
H 	H 	0.20766 0.90731 0.75893 0.03900
C 	C 	0.16320 0.45915 0.15691 -0.05100
C 	C 	0.13880 0.40488 0.14222 -0.03800
C 	C 	0.15191 0.35798 0.17792 0.01200
C 	C 	0.19127 0.36664 0.22836 -0.00300
C 	C 	0.21614 0.42147 0.24308 -0.02000
C 	C 	0.20191 0.46780 0.20724 0.03300
C 	C 	0.25600 0.43047 0.29337 0.03300
C 	C 	0.26997 0.38411 0.32884 -0.04700
C 	C 	0.24463 0.32922 0.31440 -0.03800
C 	C 	0.20512 0.32005 0.26429 0.01900
C 	C 	0.17719 0.26360 0.25027 -0.02800
C 	C 	0.13413 0.25254 0.20128 -0.05500
C 	C 	0.12416 0.30133 0.16441 -0.02500
C 	C 	0.22879 0.52361 0.22151 -0.05900
C 	C 	0.27149 0.53456 0.27057 0.00600
C 	C 	0.28329 0.48692 0.30696 -0.05900
H 	H 	0.15244 0.49474 0.12895 0.04000
H 	H 	0.10973 0.39940 0.10307 0.03400
H 	H 	0.30059 0.39061 0.36757 0.04400
H 	H 	0.25551 0.29369 0.34232 0.05000
H 	H 	0.18557 0.22637 0.27842 0.06500
H 	H 	0.09202 0.29340 0.12621 0.03900
H 	H 	0.21994 0.56059 0.19347 0.04900
C 	C 	0.11083 0.67853 0.30398 -0.03700
C 	C 	0.14175 0.65330 0.30776 -0.05200
C 	C 	0.20744 0.69689 0.30091 0.03400
C 	C 	0.24346 0.76609 0.29288 -0.02400
C 	C 	0.21251 0.79144 0.28966 -0.00100
C 	C 	0.14526 0.74766 0.29348 0.00900
C 	C 	0.24741 0.86088 0.27932 0.00900
C 	C 	0.30108 0.71630 0.29062 0.00700
C 	C 	0.23658 0.67221 0.30034 -0.06200
C 	C 	0.11163 0.77382 0.28238 -0.02100
C 	C 	0.14361 0.84310 0.26474 -0.06500
C 	C 	0.21310 0.88634 0.26840 -0.02500
H 	H 	0.05944 0.64436 0.30774 0.03500
H 	H 	0.11398 0.59993 0.31477 0.04100
H 	H 	0.20869 0.61894 0.30660 0.05300
H 	H 	0.05860 0.74037 0.28169 0.03900
H 	H 	0.23858 0.93987 0.25705 0.03800
C 	C 	0.25429 0.09360 0.58070 -0.01400
C 	C 	0.24827 0.04953 0.63014 -0.07000
H 	H 	0.27604 0.17638 0.48689 0.04800
H 	H 	0.21463 0.09985 0.55642 0.04500
H 	H 	0.29466 0.00752 0.69996 0.04400
C 	C 	0.29207 0.13504 0.08429 -0.01400
C 	C 	0.27872 0.08024 0.12751 -0.06600
H 	H 	0.25789 0.14884 0.06480 0.05800
C 	C 	0.03744 0.97623 0.00801 0.29800
O 	O 	0.03161 0.01786 0.13914 -0.57700
C 	C 	0.02702 0.01946 0.30153 0.37600
O 	O 	0.01959 0.06739 0.27521 -0.41400
C 	C 	0.01623 0.94845 0.51023 0.29800
C 	C 	0.02591 0.97806 0.95443 -0.11500
C 	C 	0.00807 0.97336 0.85627 -0.13300
C 	C 	0.02834 0.99314 0.35722 -0.15600
C 	C 	0.01743 0.96698 0.45579 -0.11200
H 	H 	0.07621 0.36538 0.59822 0.03400
C 	C 	0.12829 0.42567 0.65128 -0.05100
C 	C 	0.19232 0.49056 0.71527 -0.05900
C 	C 	0.27728 0.56746 0.77366 0.11100
H 	H 	0.12062 0.46296 0.62196 0.04000
H 	H 	0.18665 0.52919 0.68594 0.04900
C 	C 	0.29411 0.65671 0.78212 0.10700
C 	C 	0.29922 0.04099 0.66159 -0.01300
C 	C 	0.30433 0.75238 0.78205 -0.06200
C 	C 	0.30927 0.81023 0.28574 0.03300
O 	O 	0.99799 0.96257 0.77694 -0.39300
O 	O 	0.99820 0.98278 0.63888 -0.58800
C 	C 	0.31524 0.60143 0.27919 0.11000
C 	C 	0.31451 0.90415 0.27575 -0.03900
H 	H 	0.31288 0.02051 0.18668 0.04800
H 	H 	0.31066 0.92497 0.76843 0.03100
C 	C 	0.31240 0.84652 0.77650 -0.05300
H 	H 	0.36289 0.88081 0.77075 0.03800
H 	H 	0.35351 0.78656 0.77382 0.05100
C 	C 	0.98918 0.98519 0.79947 0.32000
H 	H 	0.32605 0.23726 0.00020 0.05100
O 	O 	0.98280 0.12031 0.67047 -0.37500
C 	C 	0.35855 0.22153 0.01924 -0.03300
H 	H 	0.31632 0.49556 0.34484 0.05000
H 	H 	0.34268 0.95735 0.26982 0.03100
C 	C 	0.30907 0.12589 0.56129 0.01200
C 	C 	0.34690 0.16902 0.06418 0.01800
C 	C 	0.32309 0.06250 0.15306 -0.01500
C 	C 	0.71528 0.31796 0.01272 0.11000
N 	N 	0.65005 0.27555 0.01574 -0.13700
C 	C 	0.62197 0.29791 0.01869 0.11200
N 	N 	0.65906 0.36257 0.01869 -0.13600
C 	C 	0.72466 0.40457 0.01780 0.11200
N 	N 	0.75306 0.38240 0.01489 -0.13600
C 	C 	0.68282 0.28116 0.51430 0.11000
N 	N 	0.71998 0.34580 0.51566 -0.13600
C 	C 	0.69139 0.36731 0.51932 0.11100
N 	N 	0.62620 0.32443 0.52163 -0.13500
C 	C 	0.58988 0.25962 0.52244 0.11200
N 	N 	0.61820 0.23789 0.51897 -0.13600
C 	C 	0.32927 0.69016 0.28563 0.10700
N 	N 	0.39464 0.73063 0.28322 -0.13800
C 	C 	0.42016 0.70600 0.27963 0.11000
N 	N 	0.38065 0.64135 0.27849 -0.13500
N 	N 	0.35911 0.69654 0.77891 -0.13700
C 	C 	0.38296 0.67129 0.77376 0.11000
N 	N 	0.34218 0.60673 0.77188 -0.13500
Co	Co	0.93315 0.99457 0.12995 1.17600
Co	Co	0.98251 0.94430 0.09406 1.18800
Co	Co	0.95155 0.06228 0.20405 1.18000
O 	O 	0.98552 0.03781 0.17595 -0.74200
O 	O 	0.90794 0.95021 0.07858 -0.47000
C 	C 	0.89049 0.08275 0.09083 0.29400
C 	C 	0.93177 0.80994 0.09941 0.29800
O 	O 	0.87836 0.05707 0.13673 -0.39700
O 	O 	0.91363 0.06421 0.07833 -0.37100
O 	O 	0.98112 0.84296 0.07813 -0.39900
O 	O 	0.92775 0.84111 0.11715 -0.39300
C 	C 	0.83936 0.92116 0.20068 0.28400
O 	O 	0.88428 0.96160 0.23204 -0.39700
O 	O 	0.85761 0.91512 0.17147 -0.38900
O 	O 	0.99596 0.97437 0.01988 -0.36800
Co	Co	0.89833 0.95856 0.62664 1.17700
Co	Co	0.95332 0.91169 0.59311 1.19000
Co	Co	0.91006 0.02267 0.69973 1.17600
O 	O 	0.94783 0.00012 0.67372 -0.74200
O 	O 	0.87750 0.91704 0.57506 -0.46400
C 	C 	0.85326 0.04483 0.58599 0.29400
C 	C 	0.90456 0.77790 0.59873 0.30100
O 	O 	0.83854 0.01718 0.63107 -0.40000
O 	O 	0.87983 0.02886 0.57469 -0.37100
O 	O 	0.97658 0.02943 0.77179 -0.38200
O 	O 	0.95557 0.81160 0.57915 -0.38800
O 	O 	0.89809 0.80840 0.61497 -0.38900
C 	C 	0.79989 0.88216 0.69429 0.28300
O 	O 	0.84353 0.92146 0.72653 -0.38300
O 	O 	0.81979 0.87773 0.66521 -0.38500
O 	O 	0.97233 0.94494 0.52043 -0.35700
C 	C 	0.96753 0.92315 0.93377 -0.02800
C 	C 	0.95872 0.92035 0.88517 0.13800
Br	Br	0.87820 0.84444 0.85828 -0.25100
H 	H 	0.92930 0.88214 0.95578 0.06200
C 	C 	0.96793 0.93857 0.37301 -0.01000
C 	C 	0.96218 0.92524 0.42201 0.12800
Br	Br	0.87888 0.84922 0.44216 -0.25300
H 	H 	0.92448 0.90812 0.34634 0.05700
C 	C 	0.58668 0.84627 0.64025 -0.03900
C 	C 	0.53329 0.82502 0.65506 -0.05000
C 	C 	0.52091 0.78309 0.70440 0.03300
C 	C 	0.56256 0.76238 0.73905 -0.02000
C 	C 	0.61581 0.78314 0.72391 -0.00300
C 	C 	0.62836 0.82582 0.67456 0.01400
C 	C 	0.65751 0.76253 0.75862 0.01800
C 	C 	0.64513 0.72055 0.80792 -0.03500
C 	C 	0.59209 0.69972 0.82287 -0.04800
C 	C 	0.55056 0.72037 0.78864 0.03400
C 	C 	0.49562 0.69736 0.80261 -0.05800
C 	C 	0.45137 0.71420 0.76687 0.00600
C 	C 	0.46585 0.75947 0.71876 -0.05900
C 	C 	0.68462 0.85045 0.66129 -0.03000
C 	C 	0.72952 0.83472 0.69767 -0.05400
C 	C 	0.71323 0.78711 0.74469 -0.02100
H 	H 	0.59592 0.87912 0.60225 0.03600
H 	H 	0.50153 0.84112 0.62809 0.04000
H 	H 	0.67701 0.70460 0.83495 0.04600
H 	H 	0.58321 0.66733 0.86104 0.04400
H 	H 	0.48459 0.66276 0.83988 0.05000
H 	H 	0.43177 0.77259 0.69126 0.04800
H 	H 	0.69668 0.88640 0.62461 0.03800
H 	H 	0.74695 0.77353 0.77210 0.06100
C 	C 	0.56547 0.85163 0.15809 -0.05100
C 	C 	0.61960 0.87300 0.14425 -0.03800
C 	C 	0.66492 0.85795 0.18096 0.01200
C 	C 	0.65532 0.82058 0.23180 -0.00200
C 	C 	0.60108 0.79942 0.24582 -0.02000
C 	C 	0.55586 0.81480 0.20877 0.03300
C 	C 	0.59167 0.76227 0.29671 0.03400
C 	C 	0.63695 0.74717 0.33341 -0.04600
C 	C 	0.69120 0.76875 0.31964 -0.03500
C 	C 	0.70088 0.80573 0.26899 0.01500
C 	C 	0.75744 0.83103 0.25586 -0.02000
C 	C 	0.77002 0.87295 0.20656 -0.06000
C 	C 	0.72166 0.88283 0.16828 -0.02700
C 	C 	0.50012 0.79087 0.22230 -0.05900
C 	C 	0.48830 0.75013 0.27196 0.00500
C 	C 	0.53566 0.73844 0.30969 -0.05800
H 	H 	0.53093 0.86358 0.12929 0.04000
H 	H 	0.62658 0.90179 0.10511 0.03500
H 	H 	0.63010 0.71855 0.37260 0.04500
H 	H 	0.72597 0.75715 0.34853 0.05000
H 	H 	0.79445 0.82271 0.28517 0.04900
H 	H 	0.73114 0.91466 0.13007 0.03700
H 	H 	0.46355 0.79996 0.19326 0.04800
H 	H 	0.52656 0.70722 0.34809 0.05000
C 	C 	0.34504 0.87907 0.27843 -0.05300
C 	C 	0.33783 0.78527 0.28451 -0.06200
H 	H 	0.39615 0.91336 0.27400 0.03700
H 	H 	0.38782 0.81952 0.27777 0.05100
C 	C 	0.90366 0.25670 0.55463 -0.03600
C 	C 	0.87812 0.28839 0.54873 -0.04800
C 	C 	0.80927 0.25960 0.52884 0.03500
C 	C 	0.76643 0.20022 0.51240 -0.02100
C 	C 	0.79210 0.16802 0.51879 -0.00000
C 	C 	0.86065 0.19559 0.54110 0.01600
C 	C 	0.74835 0.10589 0.50629 0.01500
C 	C 	0.68016 0.07887 0.48384 -0.03500
C 	C 	0.65489 0.11142 0.47660 -0.04800
C 	C 	0.69737 0.17110 0.49217 0.03600
C 	C 	0.67108 0.20029 0.48989 -0.06000
C 	C 	0.71285 0.25710 0.50937 0.00900
C 	C 	0.78231 0.28781 0.52734 -0.06000
C 	C 	0.88410 0.15894 0.55376 -0.02600
C 	C 	0.83872 0.09313 0.54819 -0.05700
C 	C 	0.77220 0.06906 0.52044 -0.02000
H 	H 	0.95648 0.27855 0.57138 0.04300
H 	H 	0.91170 0.33453 0.56073 0.04600
H 	H 	0.64629 0.03172 0.47327 0.04400
H 	H 	0.60188 0.08917 0.46024 0.04700
H 	H 	0.61791 0.17779 0.47435 0.05600
H 	H 	0.81486 0.33200 0.54183 0.05400
H 	H 	0.93613 0.17861 0.57319 0.04900
H 	H 	0.73755 0.01896 0.51475 0.04600
C 	C 	0.73341 0.62215 0.49054 -0.03300
C 	C 	0.71258 0.57025 0.47487 -0.04800
C 	C 	0.73484 0.52991 0.50772 0.03600
C 	C 	0.77792 0.54153 0.55681 -0.02000
C 	C 	0.79840 0.59340 0.57277 -0.00000
C 	C 	0.77685 0.63446 0.53921 0.01800
C 	C 	0.84243 0.60582 0.62148 0.01600
C 	C 	0.86406 0.56500 0.65459 -0.03600
C 	C 	0.84330 0.51313 0.63892 -0.04800
C 	C 	0.80050 0.50129 0.58999 0.03500
C 	C 	0.77821 0.44832 0.57454 -0.05800
C 	C 	0.73215 0.43424 0.52692 0.00800
C 	C 	0.71280 0.47677 0.49275 -0.05800
C 	C 	0.80275 0.69007 0.55323 -0.01800
C 	C 	0.85297 0.70712 0.59874 -0.05700
C 	C 	0.86802 0.66172 0.63486 -0.02400
H 	H 	0.71657 0.65341 0.46443 0.04500
H 	H 	0.67923 0.56154 0.43714 0.04500
H 	H 	0.89781 0.57404 0.69217 0.04200
H 	H 	0.86063 0.48227 0.66484 0.04500
H 	H 	0.79310 0.41545 0.60087 0.05200
H 	H 	0.67744 0.46596 0.45591 0.05200
H 	H 	0.78922 0.72388 0.52627 0.05500
H 	H 	0.90526 0.67388 0.67082 0.04700
C 	C 	0.45591 0.09031 0.65272 -0.04900
C 	C 	0.40260 0.06043 0.67257 -0.03200
C 	C 	0.35378 0.07234 0.64248 0.01100
C 	C 	0.35849 0.11448 0.59201 0.00400
C 	C 	0.41225 0.14472 0.57208 -0.02100
C 	C 	0.46131 0.13282 0.60265 0.03700
C 	C 	0.41761 0.18775 0.52194 0.03800
C 	C 	0.36808 0.19867 0.49148 -0.04500
C 	C 	0.31403 0.16775 0.51098 -0.03000
C 	C 	0.51647 0.16559 0.58358 -0.05900
C 	C 	0.52409 0.21176 0.53510 0.00800
C 	C 	0.47359 0.22108 0.50364 -0.05800
H 	H 	0.49329 0.08079 0.67647 0.04600
H 	H 	0.39917 0.02779 0.71128 0.04200
H 	H 	0.37150 0.23130 0.45276 0.05000
H 	H 	0.55552 0.15842 0.60769 0.05300
H 	H 	0.47949 0.25651 0.46603 0.05300
C 	C 	0.91155 0.32618 0.04819 -0.04900
C 	C 	0.93763 0.29453 0.05508 -0.03600
C 	C 	0.89492 0.23240 0.04327 0.01500
C 	C 	0.82607 0.20369 0.02161 0.00100
C 	C 	0.79984 0.23581 0.01425 -0.02200
C 	C 	0.84245 0.29631 0.02900 0.03500
C 	C 	0.73052 0.20561 0.99471 0.03700
C 	C 	0.68829 0.14487 0.98079 -0.04900
C 	C 	0.71416 0.11245 0.98894 -0.03400
C 	C 	0.78267 0.14063 0.01072 0.01300
C 	C 	0.80730 0.10424 0.02574 -0.01900
C 	C 	0.87429 0.12973 0.05273 -0.05700
C 	C 	0.91910 0.19607 0.05696 -0.02600
C 	C 	0.81511 0.32470 0.02650 -0.06000
C 	C 	0.74545 0.29306 0.00919 0.00800
C 	C 	0.70379 0.23494 0.99142 -0.05900
H 	H 	0.94495 0.37319 0.05886 0.04500
H 	H 	0.99070 0.31732 0.07122 0.04200
H 	H 	0.63508 0.12176 0.96496 0.04600
H 	H 	0.68053 0.06455 0.97961 0.04300
H 	H 	0.77304 0.05362 0.02120 0.04500
H 	H 	0.97136 0.21659 0.07611 0.04900
H 	H 	0.84759 0.36988 0.03963 0.05500
H 	H 	0.65044 0.21164 0.97636 0.05500
C 	C 	0.75185 0.61139 0.97004 -0.04400
C 	C 	0.77040 0.66237 0.98537 -0.03200
C 	C 	0.80795 0.67118 0.03586 0.01400
C 	C 	0.82566 0.62745 0.07152 0.00100
C 	C 	0.80757 0.57656 0.05594 -0.01900
C 	C 	0.77050 0.56848 0.00504 0.03200
C 	C 	0.82659 0.53378 0.09126 0.03400
C 	C 	0.86341 0.54210 0.14194 -0.04800
C 	C 	0.88186 0.59303 0.15729 -0.03600
C 	C 	0.86388 0.63642 0.12210 0.01400
C 	C 	0.88799 0.69169 0.13546 -0.02200
C 	C 	0.87789 0.74001 0.09768 -0.06200
C 	C 	0.83239 0.72613 0.04988 -0.01800
C 	C 	0.75055 0.51620 0.99033 -0.05400
C 	C 	0.76586 0.47099 0.02642 0.00500
C 	C 	0.80650 0.48175 0.07601 -0.05700
H 	H 	0.72308 0.60541 0.93090 0.04600
H 	H 	0.75650 0.69568 0.95766 0.04600
H 	H 	0.87792 0.50924 0.16949 0.04500
H 	H 	0.91112 0.59940 0.19628 0.04200
H 	H 	0.92125 0.70130 0.17310 0.04600
H 	H 	0.82273 0.76240 0.02135 0.04200
H 	H 	0.71943 0.50796 0.95197 0.05100
H 	H 	0.81837 0.44687 0.10380 0.05100
C 	C 	0.47351 0.10790 0.13633 -0.04800
C 	C 	0.42012 0.07576 0.15712 -0.03400
C 	C 	0.37791 0.09594 0.13338 0.01300
C 	C 	0.38940 0.14879 0.08840 0.00200
C 	C 	0.44298 0.18098 0.06735 -0.02000
C 	C 	0.48547 0.16074 0.09161 0.03600
C 	C 	0.45475 0.23410 0.02254 0.03500
C 	C 	0.41214 0.25387 0.99854 -0.04500
C 	C 	0.54083 0.19525 0.07204 -0.05900
C 	C 	0.55497 0.25078 0.02935 0.00800
C 	C 	0.51038 0.26834 0.00343 -0.05900
H 	H 	0.50581 0.09194 0.15522 0.04700
H 	H 	0.41147 0.03498 0.19159 0.04300
H 	H 	0.42069 0.29454 0.96401 0.04600
H 	H 	0.57514 0.18157 0.09184 0.05400
H 	H 	0.52094 0.31071 0.97000 0.05300
