data_crystal

_cell_length_a 14.78965
_cell_length_b 16.19355
_cell_length_c 49.30101
_cell_angle_alpha 89.54883
_cell_angle_beta  89.55301
_cell_angle_gamma 119.44526

_symmetry_space_group_name_	'P 1'
_symmetry_space_group_name_H-M	'P 1'

loop_
_symmetry_equiv_pos_as_xyz
  x,y,z

loop_
_atom_site_label
_atom_site_type_symbol
_atom_site_fract_x
_atom_site_fract_y
_atom_site_fract_z
_atom_site_charge
C 	C 	0.14892 0.64413 0.05543 0.32600
C 	C 	0.26055 0.51367 0.00047 0.30000
C 	C 	0.35067 0.83877 0.06238 0.31100
Ni	Ni	0.36025 0.67289 0.03886 1.12100
Ni	Ni	0.23840 0.77361 0.00856 1.12500
O 	O 	0.13885 0.70340 0.97907 -0.33500
O 	O 	0.21925 0.61889 0.06003 -0.33500
O 	O 	0.13300 0.66345 0.03092 -0.36800
O 	O 	0.31728 0.54414 0.02214 -0.35200
O 	O 	0.40977 0.79918 0.05912 -0.35200
O 	O 	0.30881 0.85817 0.04116 -0.36800
O 	O 	0.33648 0.72830 0.00708 -0.70300
C 	C 	0.18319 0.41182 0.00111 -0.07600
C 	C 	0.08867 0.38481 0.01496 0.14100
C 	C 	0.05834 0.31999 0.03673 -0.06500
C 	C 	0.12032 0.28037 0.04403 0.02300
C 	C 	0.19651 0.28702 0.02538 0.09600
C 	C 	0.22273 0.34871 0.00279 -0.01200
H 	H 	0.99171 0.30654 0.04919 0.08900
C 	C 	0.11818 0.24936 0.07267 0.02900
H 	H 	0.28690 0.35973 0.98971 0.08200
C 	C 	0.03504 0.16293 0.08198 -0.07100
C 	C 	0.02189 0.13977 0.10980 0.14800
C 	C 	0.19034 0.31190 0.09153 0.09900
H 	H 	0.97954 0.11430 0.06767 0.08400
Br	Br	0.26982 0.21857 0.03144 -0.18000
Br	Br	0.01250 0.44957 0.00845 -0.20600
Br	Br	0.91129 0.01875 0.12134 -0.19300
Br	Br	0.30610 0.43071 0.07996 -0.17800
C 	C 	0.66977 0.97813 0.16528 0.16300
C 	C 	0.60455 0.98003 0.14544 -0.04000
C 	C 	0.54646 0.02561 0.15023 -0.03900
H 	H 	0.58872 0.93589 0.12773 0.08800
C 	C 	0.45469 0.99914 0.13350 0.11000
C 	C 	0.37399 0.90556 0.13605 -0.11400
C 	C 	0.34042 0.84968 0.11296 0.16000
C 	C 	0.36567 0.89413 0.08709 -0.11400
C 	C 	0.42129 0.99372 0.08535 0.06700
C 	C 	0.46751 0.04653 0.10857 0.01400
H 	H 	0.35634 0.87117 0.15584 0.10700
H 	H 	0.43716 0.02915 0.06574 0.04800
Br	Br	0.69853 0.87442 0.16493 -0.16100
Br	Br	0.28835 0.71625 0.11735 -0.22300
Br	Br	0.56045 0.18029 0.10523 -0.16000
C 	C 	0.96940 0.68479 0.15064 0.01600
C 	C 	0.87663 0.68047 0.15953 0.09400
C 	C 	0.88097 0.75006 0.17692 0.00000
C 	C 	0.97624 0.65184 0.12348 0.03900
H 	H 	0.81041 0.75134 0.18217 0.09200
C 	C 	0.99358 0.57457 0.12096 -0.09200
C 	C 	0.04179 0.56516 0.09757 0.17200
C 	C 	0.07505 0.63536 0.07692 -0.09600
C 	C 	0.04310 0.70359 0.07786 0.00400
C 	C 	0.99347 0.71184 0.10091 0.07400
H 	H 	0.97560 0.52534 0.13781 0.09300
H 	H 	0.06322 0.75456 0.06136 0.06600
Br	Br	0.74525 0.58624 0.14590 -0.15900
Br	Br	0.05796 0.45528 0.09411 -0.19300
Br	Br	0.96120 0.81303 0.10242 -0.16100
C 	C 	0.09151 0.20402 0.12870 -0.08300
C 	C 	0.17662 0.28896 0.11931 -0.00600
H 	H 	0.23141 0.33815 0.13367 0.08500
C 	C 	0.56374 0.07932 0.17381 0.10700
Br	Br	0.47753 0.13311 0.18272 -0.17400
C 	C 	0.94024 0.16878 0.27088 0.30100
C 	C 	0.07726 0.18269 0.15828 0.32300
C 	C 	0.78807 0.06241 0.20406 0.30900
C 	C 	0.24095 0.31073 0.21999 0.31300
C 	C 	0.98503 0.90818 0.19753 0.32200
C 	C 	0.08284 0.97715 0.25628 0.32700
Ni	Ni	0.00576 0.21792 0.21223 1.11700
Ni	Ni	0.13735 0.10582 0.20614 1.12700
Ni	Ni	0.91445 0.00501 0.23711 1.12000
O 	O 	0.99645 0.24072 0.25378 -0.35100
O 	O 	0.87434 0.08324 0.26166 -0.35200
O 	O 	0.04364 0.99003 0.18538 -0.34500
O 	O 	0.99980 0.18459 0.17117 -0.35600
O 	O 	0.15464 0.18478 0.17195 -0.35400
O 	O 	0.00980 0.99670 0.26419 -0.35200
O 	O 	0.84435 0.14773 0.21378 -0.35800
O 	O 	0.81346 0.99677 0.20857 -0.32700
O 	O 	0.15413 0.03026 0.23746 -0.37000
O 	O 	0.16425 0.31510 0.20754 -0.36100
O 	O 	0.24178 0.22953 0.22320 -0.34600
O 	O 	0.91785 0.89900 0.21660 -0.34800
O 	O 	0.02943 0.11839 0.22305 -0.71900
H 	H 	0.06643 0.14443 0.24011 0.15300
C 	C 	0.69685 0.04084 0.18734 -0.10000
C 	C 	0.64225 0.09048 0.19160 -0.01500
H 	H 	0.65895 0.13570 0.20907 0.08500
C 	C 	0.97745 0.82231 0.18574 -0.08600
C 	C 	0.06723 0.81510 0.18091 0.15000
C 	C 	0.06219 0.74491 0.16379 -0.07400
H 	H 	0.13274 0.74377 0.15841 0.08900
Br	Br	0.19746 0.90105 0.19695 -0.21100
C 	C 	0.91780 0.15282 0.35662 0.02100
C 	C 	0.82971 0.13221 0.34126 -0.07300
C 	C 	0.83900 0.15207 0.31337 0.14800
C 	C 	0.93600 0.18690 0.30012 -0.08400
C 	C 	0.02548 0.21739 0.31582 -0.01100
C 	C 	0.01689 0.20207 0.34408 0.09300
H 	H 	0.75335 0.09705 0.35076 0.08700
H 	H 	0.10115 0.24838 0.30598 0.07700
Br	Br	0.71788 0.12963 0.29355 -0.18400
Br	Br	0.14076 0.24998 0.36515 -0.18400
C 	C 	0.33181 0.39978 0.22820 -0.08400
C 	C 	0.43320 0.41319 0.22568 0.15400
C 	C 	0.51245 0.48162 0.24146 -0.07200
C 	C 	0.49076 0.53781 0.25889 0.02500
C 	C 	0.39813 0.54085 0.25546 0.09000
C 	C 	0.31691 0.46905 0.24113 -0.00700
H 	H 	0.58777 0.48565 0.24187 0.09400
C 	C 	0.54456 0.56656 0.28495 0.02700
H 	H 	0.24148 0.46483 0.24102 0.07000
C 	C 	0.60959 0.66311 0.29006 -0.07300
C 	C 	0.62844 0.69507 0.31679 0.16100
C 	C 	0.57975 0.63001 0.33837 -0.09300
C 	C 	0.53252 0.53268 0.33326 -0.00100
C 	C 	0.51308 0.50049 0.30666 0.08700
H 	H 	0.63772 0.71395 0.27338 0.10100
Br	Br	0.38189 0.64204 0.27024 -0.18200
Br	Br	0.46675 0.34708 0.19893 -0.16600
Br	Br	0.71825 0.82756 0.32350 -0.18900
Br	Br	0.43129 0.36651 0.30062 -0.18700
C 	C 	0.09640 0.90532 0.27176 -0.08200
C 	C 	0.01048 0.81554 0.27846 0.15600
C 	C 	0.02507 0.75010 0.29372 -0.07400
C 	C 	0.12346 0.77343 0.30317 0.02600
C 	C 	0.20995 0.86086 0.29556 0.09100
C 	C 	0.19618 0.92611 0.27982 0.00000
H 	H 	0.95867 0.68237 0.29931 0.08800
C 	C 	0.13303 0.71256 0.32402 0.02600
H 	H 	0.26280 0.99391 0.27444 0.09400
C 	C 	0.16331 0.64614 0.31661 -0.07600
C 	C 	0.19685 0.60546 0.33653 0.15500
C 	C 	0.11984 0.72559 0.35167 0.08800
H 	H 	0.16368 0.62841 0.29548 0.09500
Br	Br	0.34702 0.89344 0.30719 -0.16200
Br	Br	0.87242 0.77967 0.26732 -0.23100
Br	Br	0.22095 0.50304 0.32716 -0.18300
Br	Br	0.06672 0.80707 0.36276 -0.16200
C 	C 	0.15308 0.68425 0.37135 -0.00700
C 	C 	0.20684 0.63699 0.36346 -0.08100
Br	Br	0.82262 0.22846 0.40379 -0.23900
C 	C 	0.90377 0.10859 0.38412 0.03100
C 	C 	0.84877 0.16250 0.50618 0.29700
C 	C 	0.68812 0.40647 0.46873 0.30200
C 	C 	0.00485 0.42597 0.49102 0.32100
C 	C 	0.56128 0.13446 0.48044 0.30000
C 	C 	0.76976 0.44959 0.55179 0.32800
Ni	Ni	0.78604 0.28255 0.47276 1.12100
Ni	Ni	0.63197 0.29314 0.51863 1.13300
Ni	Ni	0.85714 0.32443 0.53629 1.12600
O 	O 	0.80372 0.16497 0.48310 -0.34900
O 	O 	0.91019 0.24200 0.51902 -0.35500
O 	O 	0.72166 0.42854 0.52858 -0.36500
O 	O 	0.77361 0.40320 0.46273 -0.33600
O 	O 	0.61207 0.33637 0.48195 -0.35200
O 	O 	0.94796 0.36010 0.47351 -0.34700
O 	O 	0.96424 0.43663 0.51373 -0.36100
O 	O 	0.62531 0.24975 0.55742 -0.36600
O 	O 	0.62960 0.19832 0.46340 -0.34700
O 	O 	0.54312 0.15880 0.50470 -0.35700
O 	O 	0.83274 0.41664 0.55836 -0.35900
O 	O 	0.75138 0.28335 0.50965 -0.70700
H 	H 	0.71888 0.21527 0.51378 0.13900
C 	C 	0.30036 0.65705 0.37869 0.30400
C 	C 	0.70625 0.87285 0.42764 0.32200
C 	C 	0.55402 0.66112 0.36375 0.33700
C 	C 	0.47580 0.88030 0.44901 0.27900
C 	C 	0.57595 0.57662 0.44480 0.30600
C 	C 	0.29932 0.55823 0.46125 0.27500
Ni	Ni	0.51521 0.79554 0.39652 1.12200
Ni	Ni	0.51970 0.72319 0.45797 1.12600
Ni	Ni	0.41294 0.57338 0.41037 1.12700
O 	O 	0.36327 0.74666 0.38534 -0.35200
O 	O 	0.33165 0.59243 0.37953 -0.34300
O 	O 	0.60962 0.66209 0.45441 -0.35300
O 	O 	0.66267 0.82428 0.40609 -0.36200
O 	O 	0.65331 0.85108 0.45078 -0.35200
O 	O 	0.29184 0.52706 0.43608 -0.35100
O 	O 	0.52305 0.72414 0.36260 -0.34700
O 	O 	0.53826 0.61054 0.38592 -0.37400
O 	O 	0.39133 0.60469 0.47363 -0.33700
O 	O 	0.51882 0.89512 0.42427 -0.34700
O 	O 	0.44954 0.80189 0.46325 -0.35300
O 	O 	0.47903 0.52594 0.43723 -0.36200
O 	O 	0.46135 0.69857 0.42264 -0.72100
H 	H 	0.39491 0.69627 0.42676 0.16400
C 	C 	0.79973 0.96611 0.42362 -0.07400
C 	C 	0.88348 0.96986 0.40888 0.16700
C 	C 	0.93181 0.03816 0.38822 -0.09700
C 	C 	0.84063 0.11898 0.40392 0.08600
C 	C 	0.78815 0.04716 0.42356 -0.03700
H 	H 	0.98461 0.03188 0.37412 0.10000
H 	H 	0.72998 0.04937 0.43656 0.07200
Br	Br	0.92004 0.87246 0.41366 -0.16500
H 	H 	0.50090 0.48186 0.34990 0.07300
H 	H 	0.15099 0.70078 0.39253 0.07700
C 	C 	0.48851 0.96161 0.46319 0.02300
C 	C 	0.51376 0.03749 0.47289 -0.06400
C 	C 	0.20361 0.52205 0.47675 0.00200
C 	C 	0.11507 0.48282 0.48543 -0.01900
C 	C 	0.63288 0.52794 0.45076 -0.00900
C 	C 	0.66858 0.47816 0.45753 -0.01100
C 	C 	0.89050 0.06048 0.53595 0.12000
C 	C 	0.81760 0.07088 0.52015 -0.07800
C 	C 	0.71152 0.00476 0.52360 -0.04300
H 	H 	0.65472 0.00860 0.51071 0.06200
Br	Br	0.03628 0.13223 0.52757 -0.17000
C 	C 	0.66112 0.19369 0.56571 0.30000
O 	O 	0.76040 0.21749 0.56188 -0.36100
C 	C 	0.66839 0.90972 0.63721 0.15800
C 	C 	0.67054 0.92877 0.60938 -0.07600
C 	C 	0.71618 0.89385 0.59099 0.03400
C 	C 	0.74659 0.82880 0.60038 0.08900
C 	C 	0.74699 0.81188 0.62836 -0.00500
H 	H 	0.64299 0.97568 0.60228 0.09500
C 	C 	0.75048 0.93986 0.56375 0.01600
H 	H 	0.77805 0.76783 0.63565 0.08200
C 	C 	0.85695 0.99796 0.55825 -0.05000
C 	C 	0.67805 0.93784 0.54497 0.10200
H 	H 	0.91366 0.99706 0.57186 0.09200
Br	Br	0.78905 0.76396 0.57535 -0.18200
Br	Br	0.53468 0.84198 0.54754 -0.18900
C 	C 	0.59601 0.11719 0.58487 -0.08200
C 	C 	0.59836 0.13745 0.61266 0.13800
C 	C 	0.50971 0.08545 0.62896 -0.06000
C 	C 	0.41852 0.01259 0.61784 -0.02100
C 	C 	0.41982 0.98589 0.59079 0.13500
C 	C 	0.50916 0.03707 0.57464 -0.04600
H 	H 	0.50978 0.10539 0.64990 0.09000
C 	C 	0.31895 0.97828 0.63281 0.07200
H 	H 	0.50694 0.02082 0.55329 0.07500
C 	C 	0.27387 0.03670 0.63414 -0.10700
C 	C 	0.18772 0.01255 0.65102 0.14900
H 	H 	0.30845 0.10308 0.62280 0.09800
Br	Br	0.29707 0.88663 0.57465 -0.15800
Br	Br	0.71768 0.24330 0.62792 -0.20200
Br	Br	0.13804 0.10172 0.65440 -0.23300
C 	C 	0.73721 0.49247 0.57303 -0.09200
C 	C 	0.63246 0.44724 0.58177 0.15900
C 	C 	0.60880 0.45212 0.60894 -0.07500
C 	C 	0.68702 0.51177 0.62657 0.02800
C 	C 	0.78897 0.56993 0.61648 0.08800
C 	C 	0.81352 0.55946 0.58981 0.00600
H 	H 	0.52957 0.40987 0.61631 0.09900
H 	H 	0.89347 0.59858 0.58272 0.08100
Br	Br	0.89660 0.66168 0.63899 -0.19900
Br	Br	0.52060 0.38310 0.55685 -0.23600
Br	Br	0.52388 0.58304 0.64097 -0.17800
C 	C 	0.66313 0.51096 0.65559 0.02600
C 	C 	0.10300 0.04709 0.74880 0.29200
C 	C 	0.76285 0.66690 0.72480 0.33100
C 	C 	0.06118 0.90529 0.68690 0.34100
C 	C 	0.81627 0.82741 0.78867 0.30000
C 	C 	0.75704 0.87513 0.67461 0.32600
C 	C 	0.80187 0.03799 0.73708 0.29400
Ni	Ni	0.95844 0.83730 0.74235 1.12000
Ni	Ni	0.73796 0.83382 0.73358 1.12600
Ni	Ni	0.94469 0.99826 0.70501 1.13200
O 	O 	0.06280 0.96271 0.76106 -0.30900
O 	O 	0.08681 0.05564 0.72275 -0.35300
O 	O 	0.71598 0.80727 0.69331 -0.36800
O 	O 	0.86430 0.71379 0.72141 -0.34800
O 	O 	0.71680 0.70165 0.73994 -0.36500
O 	O 	0.89838 0.07565 0.72723 -0.36100
O 	O 	0.07146 0.87934 0.71157 -0.33600
O 	O 	0.98267 0.91841 0.68110 -0.37100
O 	O 	0.72822 0.95341 0.72940 -0.34800
O 	O 	0.86135 0.78344 0.77674 -0.33000
O 	O 	0.75142 0.84669 0.77482 -0.34700
O 	O 	0.82169 0.96289 0.68138 -0.35900
O 	O 	0.88590 0.90024 0.73165 -0.71600
H 	H 	0.89957 0.94098 0.74750 0.15900
C 	C 	0.71490 0.85776 0.64696 -0.08500
Br	Br	0.61154 0.96346 0.66203 -0.17800
C 	C 	0.14338 0.92689 0.66628 -0.07600
C 	C 	0.18551 0.86610 0.66383 0.00600
C 	C 	0.27335 0.89169 0.64738 0.08200
H 	H 	0.15136 0.79981 0.67520 0.08700
Br	Br	0.33012 0.80779 0.64530 -0.14600
C 	C 	0.71343 0.48275 0.67454 -0.07800
C 	C 	0.73393 0.52234 0.70036 0.15900
C 	C 	0.69983 0.58666 0.70724 -0.09700
C 	C 	0.62403 0.59054 0.69126 -0.00400
C 	C 	0.60922 0.55704 0.66480 0.08300
H 	H 	0.74656 0.43921 0.66823 0.10000
H 	H 	0.58547 0.62871 0.69824 0.07300
Br	Br	0.81101 0.49101 0.72553 -0.18700
C 	C 	0.77072 0.09644 0.75268 -0.08300
C 	C 	0.69963 0.11987 0.74122 -0.00800
H 	H 	0.68910 0.11646 0.71944 0.08500
C 	C 	0.34128 0.20705 0.78875 -0.07100
C 	C 	0.26972 0.12910 0.77409 0.15200
C 	C 	0.18352 0.13031 0.76256 -0.07200
C 	C 	0.17516 0.21276 0.76389 -0.00900
H 	H 	0.40440 0.20408 0.79880 0.08600
H 	H 	0.11146 0.21553 0.75400 0.08400
Br	Br	0.29028 0.02137 0.77046 -0.17200
H 	H 	0.40011 0.78992 0.00927 0.14100
C 	C 	0.57249 0.28578 0.87928 0.31300
C 	C 	0.54754 0.46343 0.88771 0.31800
O 	O 	0.49290 0.25968 0.89634 -0.37300
O 	O 	0.64979 0.50014 0.88535 -0.35000
O 	O 	0.50198 0.43756 0.91151 -0.38600
C 	C 	0.78656 0.10433 0.78080 0.14200
C 	C 	0.72146 0.12208 0.79754 -0.07600
C 	C 	0.64485 0.13873 0.78624 0.02300
C 	C 	0.63757 0.14198 0.75780 0.09100
H 	H 	0.73262 0.12613 0.81929 0.09400
C 	C 	0.58985 0.17306 0.80399 0.03500
C 	C 	0.62946 0.27064 0.80570 -0.08900
C 	C 	0.62250 0.31008 0.83004 0.14500
C 	C 	0.55597 0.25061 0.85121 -0.10000
C 	C 	0.49784 0.15248 0.84686 -0.00300
C 	C 	0.51842 0.11302 0.82395 0.06900
H 	H 	0.68120 0.31676 0.78982 0.10300
H 	H 	0.44564 0.10610 0.86261 0.07600
Br	Br	0.54599 0.17923 0.74115 -0.18600
Br	Br	0.89825 0.09291 0.79654 -0.22500
Br	Br	0.72626 0.43927 0.83614 -0.23100
Br	Br	0.45579 0.97782 0.82141 -0.14000
C 	C 	0.48111 0.43499 0.86344 -0.09800
C 	C 	0.51930 0.47661 0.83768 0.16200
C 	C 	0.46662 0.42836 0.81440 -0.08300
C 	C 	0.37184 0.34354 0.81685 0.03000
C 	C 	0.32614 0.31087 0.84260 0.08300
C 	C 	0.38028 0.35695 0.86569 -0.00500
H 	H 	0.49902 0.45687 0.79449 0.09700
C 	C 	0.32526 0.28442 0.79300 0.02100
H 	H 	0.34637 0.32836 0.88546 0.05900
C 	C 	0.24567 0.28980 0.77907 0.09600
Br	Br	0.19174 0.19995 0.84669 -0.17900
Br	Br	0.63124 0.60410 0.83402 -0.17700
Br	Br	0.22758 0.39881 0.78232 -0.16600
C 	C 	0.87176 0.83487 0.92256 -0.08400
C 	C 	0.78535 0.80227 0.90547 0.03200
C 	C 	0.69130 0.72360 0.91452 0.09200
C 	C 	0.69296 0.66616 0.93573 -0.01800
H 	H 	0.94190 0.90062 0.91766 0.09400
C 	C 	0.80466 0.82403 0.87587 0.02500
C 	C 	0.87234 0.80071 0.86211 -0.06700
C 	C 	0.88885 0.81614 0.83415 0.14200
C 	C 	0.82356 0.83927 0.81879 -0.06200
C 	C 	0.76013 0.86803 0.83269 -0.00400
C 	C 	0.75615 0.86637 0.86123 0.10200
H 	H 	0.91534 0.77383 0.87336 0.08900
H 	H 	0.71572 0.89339 0.82148 0.09100
Br	Br	0.56218 0.68882 0.89709 -0.17700
Br	Br	0.01218 0.82262 0.81878 -0.16100
Br	Br	0.69693 0.93303 0.87958 -0.16100
O 	O 	0.50840 0.70438 0.02627 -0.33500
H 	H 	0.62298 0.60084 0.94079 0.05700
C 	C 	0.80769 0.60159 0.94623 0.29500
C 	C 	0.54492 0.19447 0.96242 0.28300
C 	C 	0.88462 0.42989 0.93885 0.31900
C 	C 	0.52804 0.43761 0.98261 0.28100
Ni	Ni	0.70403 0.40230 0.97203 1.11500
Ni	Ni	0.49870 0.32863 0.93162 1.11900
Ni	Ni	0.73446 0.44977 0.90533 1.12700
O 	O 	0.79635 0.55194 0.96904 -0.34100
O 	O 	0.82939 0.57581 0.92282 -0.36200
O 	O 	0.62140 0.25473 0.97791 -0.33100
O 	O 	0.47273 0.21432 0.95451 -0.34900
O 	O 	0.82778 0.38516 0.95991 -0.34800
O 	O 	0.84322 0.41392 0.91495 -0.34900
O 	O 	0.59159 0.41416 0.99426 -0.34200
O 	O 	0.46020 0.38072 0.96480 -0.34900
O 	O 	0.66622 0.32331 0.88848 -0.36700
O 	O 	0.64654 0.40196 0.93749 -0.69200
H 	H 	0.64169 0.45945 0.94029 0.11800
C 	C 	0.52240 0.68080 0.00174 0.29500
C 	C 	0.41159 0.90869 0.97244 0.29600
Ni	Ni	0.36885 0.70545 0.97076 1.12200
O 	O 	0.50990 0.72370 0.98075 -0.35500
O 	O 	0.43771 0.84775 0.96135 -0.33300
O 	O 	0.24484 0.68474 0.94971 -0.35800
C 	C 	0.06579 0.57513 0.94956 0.02300
C 	C 	0.98535 0.50858 0.94289 -0.04800
C 	C 	0.47548 0.00947 0.96732 -0.03300
C 	C 	0.51432 0.09482 0.96464 -0.00400
C 	C 	0.52482 0.52104 0.99153 -0.01900
C 	C 	0.52458 0.59347 0.99745 -0.02700
C 	C 	0.78840 0.68248 0.94603 -0.09200
C 	C 	0.87388 0.77416 0.94276 0.15200
Br	Br	0.99905 0.81071 0.96229 -0.19600
C 	C 	0.15415 0.65250 0.96125 0.29600
O 	O 	0.29665 0.55917 0.97672 -0.34900
O 	O 	0.31646 0.88016 0.98172 -0.34600
