data_crystal

_cell_length_a 21.60072
_cell_length_b 17.96219
_cell_length_c 48.15064
_cell_angle_alpha 90.68213
_cell_angle_beta  90.77003
_cell_angle_gamma 112.85550

_symmetry_space_group_name_	'P 1'
_symmetry_space_group_name_H-M	'P 1'

loop_
_symmetry_equiv_pos_as_xyz
  x,y,z

loop_
_atom_site_label
_atom_site_type_symbol
_atom_site_fract_x
_atom_site_fract_y
_atom_site_fract_z
_atom_site_charge
C 	C 	0.49668 0.13574 0.00059 -0.05100
C 	C 	0.96226 0.52428 0.00712 0.00500
C 	C 	0.91707 0.44236 0.00464 0.00800
C 	C 	0.49854 0.05905 0.00522 0.00400
C 	C 	0.49144 0.52701 0.00236 0.00300
H 	H 	0.88176 0.32474 0.02340 0.03900
C 	C 	0.52331 0.91986 0.01736 -0.04100
H 	H 	0.47996 0.16624 0.01649 0.04000
H 	H 	0.53449 0.86746 0.02207 0.03700
C 	C 	0.44198 0.38619 0.01657 -0.04300
H 	H 	0.43042 0.32264 0.01250 0.03700
H 	H 	0.48485 0.67312 0.01517 0.03900
C 	C 	0.91563 0.38766 0.02540 -0.04200
C 	C 	0.00086 0.55185 0.03207 0.00200
H 	H 	0.02834 0.68059 0.02588 0.04000
C 	C 	0.47042 0.01362 0.02931 0.00500
C 	C 	0.46839 0.55044 0.02725 0.00500
C 	C 	0.47181 0.62990 0.03170 -0.05500
C 	C 	0.03603 0.63494 0.03823 -0.05400
C 	C 	0.48633 0.94635 0.03591 0.00700
H 	H 	0.40304 0.07357 0.03944 0.04000
C 	C 	0.42538 0.41013 0.04209 -0.04200
Ni	Ni	0.24868 0.74851 0.40532 1.10000
O 	O 	0.31949 0.77352 0.37464 -0.69900
Ni	Ni	0.38964 0.74543 0.39486 1.09800
O 	O 	0.19588 0.81580 0.39135 -0.36800
O 	O 	0.26580 0.88536 0.35682 -0.41500
O 	O 	0.18444 0.65062 0.38240 -0.37200
Ni	Ni	0.36030 0.88902 0.36731 1.06600
O 	O 	0.35901 0.91325 0.40891 -0.42400
O 	O 	0.46426 0.78693 0.36656 -0.39100
H 	H 	0.30326 0.74082 0.35738 0.16000
O 	O 	0.25201 0.57981 0.38301 -0.42500
C 	C 	0.21729 0.87724 0.37421 0.29500
C 	C 	0.48660 0.86240 0.35872 0.30400
C 	C 	0.20137 0.59302 0.37220 0.29500
O 	O 	0.46058 0.91186 0.36900 -0.41200
Ni	Ni	0.38410 0.74105 0.14003 1.09700
O 	O 	0.29813 0.70233 0.11581 -0.70100
Ni	Ni	0.23872 0.74130 0.13897 1.09700
O 	O 	0.43165 0.68513 0.11584 -0.36300
O 	O 	0.34298 0.56426 0.11317 -0.41200
O 	O 	0.42979 0.83805 0.11449 -0.37000
Ni	Ni	0.25461 0.58377 0.11335 1.06400
O 	O 	0.46710 0.91183 0.16350 -0.41100
O 	O 	0.25632 0.57494 0.15536 -0.42500
O 	O 	0.15670 0.69992 0.11300 -0.37900
O 	O 	0.32470 0.78008 0.16300 -0.70400
O 	O 	0.46619 0.78438 0.16577 -0.38400
O 	O 	0.19212 0.79885 0.16294 -0.36700
O 	O 	0.28069 0.92061 0.16458 -0.41300
Ni	Ni	0.36854 0.89896 0.16392 1.06200
H 	H 	0.30502 0.72637 0.09713 0.14900
H 	H 	0.31801 0.75706 0.18183 0.15300
C 	C 	0.20971 0.58491 0.17008 0.29400
O 	O 	0.36394 0.90872 0.12193 -0.41700
C 	C 	0.39803 0.61658 0.10265 0.27700
C 	C 	0.13761 0.62730 0.10161 0.27700
C 	C 	0.40132 0.88610 0.10537 0.27800
C 	C 	0.22345 0.87072 0.17455 0.27900
C 	C 	0.49049 0.86034 0.17426 0.30000
O 	O 	0.19077 0.64487 0.16477 -0.37000
O 	O 	0.15716 0.57316 0.11277 -0.41500
C 	C 	0.93511 0.08979 0.24352 -0.04200
H 	H 	0.93744 0.08472 0.22056 0.04500
C 	C 	0.92873 0.10132 0.29871 -0.04000
H 	H 	0.92584 0.10610 0.32167 0.04400
C 	C 	0.97475 0.04980 0.26017 0.00300
C 	C 	0.96199 0.17653 0.25546 0.00400
C 	C 	0.86417 0.05146 0.25538 -0.00600
C 	C 	0.97148 0.05575 0.28843 0.00200
C 	C 	0.95842 0.18232 0.28373 -0.00300
C 	C 	0.86099 0.05762 0.28364 -0.00700
C 	C 	0.08260 0.37635 0.21360 0.04200
C 	C 	0.05578 0.42884 0.20205 -0.07200
C 	C 	0.09783 0.49946 0.18916 0.01800
C 	C 	0.00350 0.24484 0.23930 -0.00600
C 	C 	0.19423 0.46656 0.20007 0.01400
C 	C 	0.15203 0.39602 0.21299 -0.07300
C 	C 	0.03924 0.30404 0.22716 -0.03000
C 	C 	0.16725 0.51807 0.18765 -0.09200
H 	H 	0.00227 0.41465 0.20282 0.04900
H 	H 	0.07611 0.53822 0.17957 0.04200
H 	H 	0.24766 0.48041 0.19931 0.02900
H 	H 	0.17330 0.35648 0.22236 0.04700
C 	C 	0.67700 0.95139 0.21089 -0.01200
C 	C 	0.71682 0.03408 0.20920 -0.02700
C 	C 	0.78004 0.06614 0.22236 -0.04800
C 	C 	0.55553 0.89204 0.18761 -0.10900
C 	C 	0.76480 0.93244 0.23812 -0.04600
C 	C 	0.70155 0.90044 0.22501 -0.02700
C 	C 	0.61076 0.91898 0.19834 0.04500
C 	C 	0.80354 0.01573 0.23742 0.02000
H 	H 	0.69838 0.07371 0.19811 0.03700
H 	H 	0.80963 0.13052 0.22175 0.04300
H 	H 	0.78270 0.89307 0.24965 0.04400
H 	H 	0.67127 0.83634 0.22620 0.03900
C 	C 	0.10227 0.96403 0.22190 0.04100
C 	C 	0.15473 0.01623 0.20604 -0.06900
C 	C 	0.19573 0.98646 0.19123 0.01000
C 	C 	0.01977 0.01907 0.24685 -0.00200
C 	C 	0.13294 0.85228 0.20873 0.01400
C 	C 	0.09201 0.88227 0.22352 -0.07000
C 	C 	0.05740 0.99379 0.23561 -0.03100
C 	C 	0.18436 0.90392 0.19212 -0.08800
H 	H 	0.16310 0.07962 0.20480 0.04700
H 	H 	0.23512 0.02716 0.17854 0.03300
H 	H 	0.12420 0.78880 0.20994 0.03500
H 	H 	0.05181 0.84171 0.23593 0.05000
C 	C 	0.67032 0.95953 0.32286 -0.01300
C 	C 	0.68874 0.03181 0.30829 -0.02600
C 	C 	0.75202 0.06550 0.29631 -0.04600
C 	C 	0.55075 0.89602 0.34571 -0.11100
C 	C 	0.77901 0.95517 0.31365 -0.04900
C 	C 	0.71577 0.92160 0.32569 -0.02600
C 	C 	0.60510 0.92479 0.33518 0.04600
C 	C 	0.79697 0.02661 0.29861 0.02100
H 	H 	0.65399 0.06169 0.30614 0.03400
H 	H 	0.76565 0.12089 0.28480 0.04300
H 	H 	0.81347 0.92481 0.31550 0.04300
H 	H 	0.70200 0.86592 0.33706 0.04000
C 	C 	0.07064 0.39516 0.32314 0.05000
C 	C 	0.13920 0.42974 0.31723 -0.07600
C 	C 	0.18157 0.49842 0.33197 0.02000
C 	C 	0.99563 0.25664 0.29871 0.00600
C 	C 	0.08604 0.50137 0.35723 0.02300
C 	C 	0.04378 0.43232 0.34258 -0.07900
C 	C 	0.02881 0.31971 0.31016 -0.03800
C 	C 	0.15552 0.53304 0.35266 -0.09600
H 	H 	0.15999 0.40207 0.30179 0.05000
H 	H 	0.23498 0.52304 0.32801 0.02400
H 	H 	0.06532 0.52771 0.37311 0.03900
H 	H 	0.99057 0.40645 0.34693 0.05400
C 	C 	0.08663 0.98107 0.34047 0.03900
C 	C 	0.15536 0.02833 0.34388 -0.06800
C 	C 	0.19752 0.99679 0.35724 0.01200
C 	C 	0.01162 0.02991 0.30731 -0.00600
C 	C 	0.10153 0.87249 0.36547 0.01900
C 	C 	0.05945 0.90419 0.35211 -0.07000
C 	C 	0.04549 0.00801 0.32270 -0.02700
C 	C 	0.17128 0.91741 0.36708 -0.08700
H 	H 	0.17660 0.08829 0.33526 0.04600
H 	H 	0.25103 0.03262 0.35875 0.02000
H 	H 	0.08037 0.81140 0.37313 0.04000
H 	H 	0.00620 0.86765 0.34985 0.04900
C 	C 	0.95894 0.41314 0.04843 -0.03800
C 	C 	0.00167 0.49471 0.05193 0.00300
C 	C 	0.07907 0.65953 0.06143 0.00000
C 	C 	0.08537 0.60213 0.07950 -0.07900
C 	C 	0.04469 0.52002 0.07529 -0.02100
H 	H 	0.95854 0.36945 0.06384 0.03700
H 	H 	0.10809 0.72336 0.06518 0.03400
H 	H 	0.04679 0.47588 0.09005 0.04000
C 	C 	0.42401 0.03075 0.04595 -0.05000
C 	C 	0.40092 0.98849 0.07043 -0.00500
C 	C 	0.42194 0.92682 0.07837 -0.07000
C 	C 	0.46360 0.90490 0.06073 -0.02200
H 	H 	0.36623 0.00353 0.08311 0.03900
H 	H 	0.47837 0.85576 0.06626 0.04700
C 	C 	0.43819 0.49164 0.04762 0.00500
C 	C 	0.45265 0.65206 0.05701 0.00000
C 	C 	0.42595 0.59475 0.07766 -0.08100
C 	C 	0.41871 0.51461 0.07294 -0.02000
H 	H 	0.40129 0.36482 0.05744 0.03600
H 	H 	0.45520 0.71302 0.06000 0.03000
H 	H 	0.39665 0.46983 0.08872 0.04000
O 	O 	0.31407 0.70859 0.42287 -0.70600
O 	O 	0.44551 0.69807 0.41802 -0.36700
O 	O 	0.35930 0.57434 0.41741 -0.41400
Ni	Ni	0.27088 0.59112 0.42457 1.06500
O 	O 	0.43212 0.85141 0.41773 -0.36600
O 	O 	0.17632 0.58391 0.43332 -0.40700
O 	O 	0.18175 0.71387 0.43684 -0.37400
C 	C 	0.39761 0.89364 0.42644 0.26300
C 	C 	0.41727 0.62469 0.42779 0.27500
H 	H 	0.42156 0.47830 0.43703 0.03200
H 	H 	0.32835 0.73260 0.44166 0.15300
C 	C 	0.16378 0.64061 0.44710 0.27300
H 	H 	0.40156 0.04114 0.44273 0.03300
C 	C 	0.41726 0.01034 0.45886 0.00700
C 	C 	0.41243 0.93098 0.45443 -0.07500
H 	H 	0.05950 0.68558 0.45628 0.04800
C 	C 	0.44061 0.52045 0.45438 -0.00100
C 	C 	0.44749 0.60091 0.45183 -0.08300
C 	C 	0.11593 0.61620 0.47004 -0.07300
C 	C 	0.42933 0.89024 0.47606 -0.01800
H 	H 	0.42284 0.82765 0.47307 0.02700
C 	C 	0.06287 0.64261 0.47127 -0.01400
H 	H 	0.96118 0.68874 0.47978 0.04000
C 	C 	0.45767 0.49379 0.47933 -0.05600
C 	C 	0.47649 0.65633 0.47370 -0.02400
H 	H 	0.45655 0.43317 0.48007 0.03900
H 	H 	0.48374 0.71920 0.47143 0.04000
C 	C 	0.44408 0.05115 0.48388 -0.05400
H 	H 	0.44305 0.11015 0.48750 0.04100
C 	C 	0.12130 0.56255 0.48993 0.00100
H 	H 	0.16377 0.54465 0.48983 0.01200
C 	C 	0.45653 0.93076 0.50119 0.00500
C 	C 	0.96256 0.64235 0.49368 -0.03700
C 	C 	0.01336 0.61239 0.49151 0.00500
C 	C 	0.49339 0.63002 0.49893 0.00600
C 	C 	0.47913 0.54685 0.50259 0.00200
C 	C 	0.46903 0.01382 0.50442 0.00900
C 	C 	0.01559 0.55271 0.51008 0.00300
C 	C 	0.07258 0.53244 0.51021 -0.05300
C 	C 	0.47098 0.88898 0.52313 -0.04000
H 	H 	0.53159 0.17769 0.51282 0.04000
H 	H 	0.45981 0.82491 0.52098 0.03400
C 	C 	0.91427 0.61429 0.51414 -0.04100
H 	H 	0.87651 0.63984 0.51594 0.03500
C 	C 	0.52478 0.68595 0.52041 -0.04300
H 	H 	0.42877 0.39208 0.52206 0.04000
H 	H 	0.53733 0.74985 0.51745 0.03800
C 	C 	0.52984 0.14143 0.53077 -0.05200
C 	C 	0.50357 0.05628 0.52876 0.00500
C 	C 	0.96215 0.51810 0.52901 0.00900
C 	C 	0.91349 0.55238 0.53179 0.00700
H 	H 	0.08115 0.49674 0.52658 0.04000
C 	C 	0.48991 0.51986 0.52916 0.00200
H 	H 	0.98404 0.41312 0.53962 0.04300
C 	C 	0.46426 0.43706 0.53576 -0.05400
C 	C 	0.51488 0.01229 0.55116 0.01000
C 	C 	0.49833 0.92897 0.54814 -0.04400
C 	C 	0.95418 0.44792 0.54409 -0.05300
C 	C 	0.86355 0.52316 0.55184 -0.01900
H 	H 	0.82733 0.55083 0.55440 0.02100
C 	C 	0.52469 0.57766 0.55008 0.00600
C 	C 	0.54177 0.66019 0.54551 -0.04300
C 	C 	0.55683 0.18057 0.55595 0.00200
H 	H 	0.57316 0.24561 0.55763 0.01600
H 	H 	0.50762 0.89522 0.56508 0.03700
C 	C 	0.85987 0.45804 0.56849 -0.07300
C 	C 	0.90430 0.41939 0.56405 0.00600
C 	C 	0.48219 0.41224 0.56090 -0.00200
H 	H 	0.46511 0.34827 0.56502 0.04000
H 	H 	0.56759 0.70454 0.56161 0.03500
C 	C 	0.56124 0.13610 0.57908 -0.07100
C 	C 	0.54287 0.05241 0.57634 -0.01600
H 	H 	0.90032 0.36714 0.57605 0.04500
C 	C 	0.52328 0.46951 0.58034 -0.08000
C 	C 	0.54175 0.55215 0.57542 -0.02500
H 	H 	0.64537 0.33772 0.59274 0.15300
C 	C 	0.81035 0.43219 0.59094 0.27200
H 	H 	0.54792 0.01820 0.59404 0.03900
H 	H 	0.57046 0.59654 0.59107 0.03800
Ni	Ni	0.69928 0.47871 0.61049 1.06500
O 	O 	0.79195 0.35863 0.60099 -0.37200
C 	C 	0.55297 0.44354 0.60417 0.27400
C 	C 	0.57455 0.17516 0.60674 0.26400
O 	O 	0.79538 0.48765 0.60432 -0.40500
O 	O 	0.65692 0.36124 0.61171 -0.70700
O 	O 	0.52413 0.36962 0.61346 -0.36700
O 	O 	0.60954 0.49387 0.61565 -0.41300
O 	O 	0.53884 0.21696 0.61448 -0.36600
Ni	Ni	0.72082 0.32213 0.63096 1.10000
O 	O 	0.61177 0.15603 0.62511 -0.42400
Ni	Ni	0.57777 0.32223 0.63797 1.09800
O 	O 	0.71224 0.48831 0.65253 -0.42600
O 	O 	0.77299 0.25587 0.64643 -0.36700
O 	O 	0.50519 0.15462 0.66275 -0.41100
O 	O 	0.64589 0.29439 0.65990 -0.69800
C 	C 	0.75074 0.19409 0.66337 0.31400
O 	O 	0.78101 0.41951 0.65523 -0.36900
O 	O 	0.49954 0.27857 0.66451 -0.38900
Ni	Ni	0.60542 0.17827 0.66636 1.06700
C 	C 	0.76207 0.47630 0.66455 0.31300
C 	C 	0.47787 0.20330 0.67254 0.30400
C 	C 	0.79781 0.16068 0.67269 -0.10500
O 	O 	0.69874 0.18234 0.67915 -0.41600
H 	H 	0.65951 0.32623 0.67745 0.16100
C 	C 	0.83708 0.13445 0.68221 0.04700
H 	H 	0.82638 0.98012 0.68331 0.03300
C 	C 	0.41370 0.16894 0.68549 -0.11100
C 	C 	0.80570 0.53742 0.68307 -0.11200
C 	C 	0.88343 0.10485 0.69516 -0.01100
C 	C 	0.86901 0.02173 0.69518 -0.02500
C 	C 	0.35954 0.13962 0.69615 0.04600
H 	H 	0.26242 0.19825 0.69560 0.04000
H 	H 	0.03916 0.95620 0.71409 0.04100
C 	C 	0.90820 0.99178 0.71135 -0.05200
C 	C 	0.93880 0.15815 0.71056 -0.02800
H 	H 	0.89593 0.92737 0.71166 0.04200
H 	H 	0.95038 0.22251 0.71062 0.04200
C 	C 	0.29476 0.10428 0.70881 -0.01200
C 	C 	0.24930 0.14245 0.70684 -0.02700
C 	C 	0.88375 0.66161 0.71381 -0.01100
C 	C 	0.95383 0.68721 0.71315 -0.02900
C 	C 	0.84185 0.59249 0.69758 0.05000
H 	H 	0.97650 0.65096 0.70248 0.04200
C 	C 	0.97790 0.12823 0.72676 -0.04200
C 	C 	0.96147 0.04471 0.72787 0.01900
C 	C 	0.27719 0.03185 0.72324 -0.02600
C 	C 	0.18705 0.10914 0.71970 -0.04800
H 	H 	0.31195 0.00181 0.72474 0.03400
H 	H 	0.15269 0.13980 0.71859 0.04200
C 	C 	0.85485 0.70928 0.72734 -0.02900
C 	C 	0.99482 0.76079 0.72570 -0.04400
H 	H 	0.80071 0.69016 0.72770 0.03700
H 	H 	0.04897 0.78033 0.72518 0.03800
C 	C 	0.03861 0.96389 0.73702 -0.04200
H 	H 	0.01980 0.16970 0.73903 0.03900
C 	C 	0.21491 0.99846 0.73605 -0.05000
C 	C 	0.17014 0.03776 0.73471 0.02100
C 	C 	0.89572 0.78292 0.73970 -0.04600
C 	C 	0.96584 0.80884 0.73895 0.01900
C 	C 	0.99819 0.01231 0.74727 -0.00600
C 	C 	0.10789 0.00771 0.75084 -0.00800
H 	H 	0.20205 0.94311 0.74753 0.04100
H 	H 	0.87301 0.81980 0.74995 0.04000
C 	C 	0.00886 0.88482 0.75313 -0.01100
C 	C 	0.99757 0.02151 0.77558 -0.00400
C 	C 	0.00898 0.89420 0.78147 -0.01000
C 	C 	0.10763 0.01749 0.77905 -0.00600
H 	H 	0.86116 0.96222 0.77444 0.03800
C 	C 	0.03801 0.98228 0.79215 -0.04300
C 	C 	0.88366 0.01729 0.78681 -0.04200
C 	C 	0.84242 0.04928 0.80037 -0.03200
C 	C 	0.95383 0.05590 0.78948 0.01400
H 	H 	0.78830 0.01883 0.79835 0.03500
C 	C 	0.20930 0.13580 0.79489 -0.04400
C 	C 	0.17002 0.05275 0.79597 0.01600
H 	H 	0.19117 0.17533 0.78357 0.04100
C 	C 	0.98975 0.75914 0.80128 -0.04100
C 	C 	0.97167 0.82615 0.79976 0.01900
H 	H 	0.03539 0.76089 0.79170 0.03800
C 	C 	0.98239 0.12644 0.80585 -0.04100
H 	H 	0.03651 0.15647 0.80806 0.03900
C 	C 	0.19382 0.00209 0.81072 -0.04500
C 	C 	0.27309 0.16744 0.80755 -0.02900
H 	H 	0.16382 0.93784 0.81158 0.03900
H 	H 	0.30360 0.23144 0.80622 0.03900
C 	C 	0.91274 0.82333 0.81246 -0.04800
C 	C 	0.94736 0.68843 0.81404 -0.02900
H 	H 	0.89840 0.87469 0.81151 0.04200
H 	H 	0.03805 0.99019 0.81508 0.04100
C 	C 	0.87105 0.11970 0.81680 -0.00800
C 	C 	0.94111 0.15839 0.81943 -0.03100
C 	C 	0.29768 0.11634 0.82156 -0.01000
C 	C 	0.25759 0.03378 0.82342 -0.02800
C 	C 	0.88710 0.68463 0.82566 -0.01000
C 	C 	0.87045 0.75268 0.82524 -0.02900
H 	H 	0.96110 0.63650 0.81464 0.04200
C 	C 	0.82861 0.15002 0.83207 0.04400
H 	H 	0.96358 0.21270 0.83218 0.04300
C 	C 	0.36377 0.14874 0.83426 0.04500
H 	H 	0.27607 0.99404 0.83442 0.03600
H 	H 	0.82443 0.75063 0.83456 0.03700
C 	C 	0.79359 0.17514 0.84532 -0.10600
C 	C 	0.41876 0.17593 0.84519 -0.10800
C 	C 	0.84339 0.61200 0.83895 0.04700
H 	H 	0.65736 0.31520 0.85364 0.15400
C 	C 	0.75277 0.20472 0.86176 0.29700
C 	C 	0.48339 0.20836 0.85888 0.30000
C 	C 	0.80663 0.55293 0.85087 -0.11000
O 	O 	0.64902 0.29099 0.87229 -0.70400
O 	O 	0.78277 0.27369 0.87530 -0.36500
O 	O 	0.69480 0.15235 0.87013 -0.41200
O 	O 	0.78311 0.42747 0.87279 -0.36800
Ni	Ni	0.60606 0.17216 0.87035 1.06200
O 	O 	0.50663 0.28417 0.86746 -0.38400
C 	C 	0.76315 0.48588 0.86656 0.31300
O 	O 	0.50706 0.15747 0.86989 -0.41100
O 	O 	0.71458 0.49444 0.88019 -0.42900
Ni	Ni	0.73266 0.32992 0.89781 1.09700
Ni	Ni	0.58662 0.32761 0.89432 1.09700
O 	O 	0.60813 0.16043 0.91250 -0.41400
O 	O 	0.80994 0.49821 0.92501 -0.41200
O 	O 	0.67041 0.36726 0.91973 -0.70100
O 	O 	0.81163 0.37192 0.92525 -0.37500
O 	O 	0.53611 0.38126 0.91791 -0.36400
O 	O 	0.62309 0.50366 0.91972 -0.41200
Ni	Ni	0.71213 0.48595 0.92204 1.06500
C 	C 	0.56981 0.18249 0.92875 0.27800
C 	C 	0.56744 0.45211 0.93008 0.27600
O 	O 	0.54058 0.22938 0.91929 -0.36900
H 	H 	0.66223 0.34338 0.93842 0.15000
C 	C 	0.82864 0.44412 0.93677 0.27700
H 	H 	0.93325 0.58844 0.94370 0.03800
H 	H 	0.58582 0.60485 0.94548 0.03300
C 	C 	0.87849 0.46927 0.95966 -0.07700
C 	C 	0.54910 0.14235 0.95577 -0.07100
H 	H 	0.58005 0.04423 0.94617 0.04400
C 	C 	0.53628 0.47727 0.95347 -0.07800
C 	C 	0.55388 0.55967 0.95940 -0.00200
C 	C 	0.92763 0.54812 0.96090 0.00100
C 	C 	0.52078 0.17613 0.97588 -0.00000
C 	C 	0.55637 0.06947 0.96124 -0.02100
H 	H 	0.51827 0.23444 0.97257 0.03200
H 	H 	0.57143 0.93637 0.97793 0.03800
C 	C 	0.49607 0.41949 0.97194 -0.02200
H 	H 	0.48362 0.35581 0.96769 0.04400
C 	C 	0.97029 0.57507 0.98412 -0.05100
C 	C 	0.87465 0.41579 0.98113 -0.02200
H 	H 	0.01111 0.63372 0.98352 0.03800
H 	H 	0.83789 0.35405 0.97978 0.03600
C 	C 	0.53278 0.02874 0.98611 0.01000
C 	C 	0.54452 0.95918 0.99232 -0.04400
C 	C 	0.53348 0.58461 0.98393 -0.05400
C 	C 	0.47536 0.44382 0.99674 0.00700
H 	H 	0.55419 0.64829 0.98922 0.03900
