data_crystal

_cell_length_a 30.60994
_cell_length_b 31.09385
_cell_length_c 31.72095
_cell_angle_alpha 95.60470
_cell_angle_beta  95.59083
_cell_angle_gamma 125.54069

_symmetry_space_group_name_	'P 1'
_symmetry_space_group_name_H-M	'P 1'

loop_
_symmetry_equiv_pos_as_xyz
  x,y,z

loop_
_atom_site_label
_atom_site_type_symbol
_atom_site_fract_x
_atom_site_fract_y
_atom_site_fract_z
_atom_site_charge
N 	N 	0.02490 0.97770 0.98594 -0.14000
C 	C 	0.05336 0.03067 0.98392 0.12000
N 	N 	0.02990 0.05630 0.98958 -0.14000
N 	N 	0.99859 0.02684 0.44212 -0.14000
C 	C 	0.02559 0.00447 0.44543 0.11900
H 	H 	0.99500 0.11065 0.95864 0.04100
C 	C 	0.08494 0.03726 0.44597 -0.02200
H 	H 	0.08164 0.97250 0.40952 0.04100
H 	H 	0.10236 0.10981 0.48253 0.04100
C 	C 	0.10768 0.01406 0.42629 -0.01800
H 	H 	0.01237 0.90196 0.03183 0.03900
N 	N 	0.99765 0.95156 0.44757 -0.14000
C 	C 	0.97783 0.02881 0.99684 0.11900
N 	N 	0.94946 0.97566 0.99868 -0.14100
C 	C 	0.97308 0.95014 0.99340 0.12000
C 	C 	0.94377 0.99645 0.44098 0.11900
C 	C 	0.94292 0.92093 0.44648 0.11900
N 	N 	0.91595 0.94343 0.44336 -0.14100
Cu	Cu	0.65078 0.25993 0.00316 0.92700
Cu	Cu	0.69783 0.25902 0.91458 0.87000
Cu	Cu	0.68681 0.34485 0.94630 0.89700
Cu	Cu	0.65142 0.36066 0.02769 0.89400
C 	C 	0.66359 0.30275 0.09158 0.30200
O 	O 	0.57067 0.22908 0.99864 -0.36200
C 	C 	0.67107 0.30518 0.85317 0.28700
O 	O 	0.69611 0.34371 0.00667 -0.64100
O 	O 	0.64741 0.26539 0.94145 -0.64000
O 	O 	0.68375 0.22035 0.00401 -0.37500
O 	O 	0.74676 0.27413 0.96505 -0.44200
O 	O 	0.63879 0.32354 0.07796 -0.38700
O 	O 	0.72875 0.42253 0.95537 -0.38300
C 	C 	0.72388 0.45230 0.98443 0.29200
C 	C 	0.55080 0.25222 0.98069 0.28300
O 	O 	0.58435 0.30210 0.97541 -0.39400
O 	O 	0.68477 0.43035 0.00745 -0.39600
O 	O 	0.66547 0.26876 0.06484 -0.36000
C 	C 	0.73055 0.23988 0.99143 0.29200
O 	O 	0.69015 0.34665 0.88455 -0.38800
O 	O 	0.66619 0.26184 0.86101 -0.42000
H 	H 	0.73465 0.36665 0.02208 0.16300
H 	H 	0.61011 0.24379 0.92373 0.17200
Cu	Cu	0.72975 0.33696 0.44580 0.92700
Cu	Cu	0.72583 0.28771 0.53341 0.87000
Cu	Cu	0.64316 0.30448 0.50177 0.89700
Cu	Cu	0.63154 0.34245 0.42093 0.89400
C 	C 	0.69230 0.33151 0.35716 0.28700
O 	O 	0.76522 0.41694 0.45108 -0.36300
C 	C 	0.67984 0.31478 0.59488 0.30500
O 	O 	0.64507 0.29577 0.44152 -0.64100
O 	O 	0.72341 0.34005 0.50734 -0.64100
O 	O 	0.76625 0.30061 0.44450 -0.37300
O 	O 	0.70874 0.23923 0.48256 -0.44200
O 	O 	0.67048 0.35520 0.37118 -0.38600
O 	O 	0.56462 0.26607 0.49191 -0.38100
C 	C 	0.53620 0.27330 0.46321 0.29000
C 	C 	0.74306 0.43865 0.46793 0.28300
O 	O 	0.69229 0.40733 0.47349 -0.39300
O 	O 	0.56049 0.31204 0.44054 -0.39500
O 	O 	0.72109 0.32304 0.38421 -0.36100
C 	C 	0.74385 0.25388 0.45656 0.28900
O 	O 	0.63958 0.30040 0.56332 -0.38700
O 	O 	0.72351 0.31900 0.58705 -0.42200
H 	H 	0.62062 0.25803 0.42567 0.16300
H 	H 	0.74644 0.37662 0.52540 0.17300
C 	C 	0.66018 0.31701 0.72017 0.01100
C 	C 	0.62271 0.26803 0.73255 -0.05800
C 	C 	0.62404 0.26482 0.77625 0.01000
C 	C 	0.67195 0.31724 0.63866 -0.10700
C 	C 	0.69802 0.36045 0.79550 0.00900
C 	C 	0.69671 0.36353 0.75173 -0.05800
C 	C 	0.66611 0.31786 0.67570 0.03700
C 	C 	0.66299 0.31062 0.80793 -0.08700
H 	H 	0.59400 0.23198 0.70832 0.04400
H 	H 	0.59599 0.22638 0.78543 0.03000
H 	H 	0.72796 0.39623 0.81958 0.03600
H 	H 	0.72559 0.40163 0.74240 0.04500
C 	C 	0.69335 0.31710 0.22212 0.01300
C 	C 	0.71328 0.36685 0.24708 -0.05800
C 	C 	0.71474 0.37201 0.29152 0.01300
C 	C 	0.67525 0.30586 0.13715 -0.10000
C 	C 	0.67909 0.27830 0.28676 0.00900
C 	C 	0.67722 0.27305 0.24213 -0.05600
C 	C 	0.68401 0.31007 0.17577 0.03700
C 	C 	0.69648 0.32746 0.31140 -0.08100
H 	H 	0.72607 0.40113 0.23186 0.04400
H 	H 	0.72911 0.41038 0.31038 0.03500
H 	H 	0.66532 0.24378 0.30188 0.03000
H 	H 	0.66188 0.23446 0.22305 0.04800
C 	C 	0.77116 0.49738 0.47278 -0.09100
C 	C 	0.81363 0.52806 0.45032 0.01500
C 	C 	0.83437 0.58156 0.44943 -0.07100
C 	C 	0.81312 0.60496 0.47104 0.04000
C 	C 	0.77272 0.57545 0.49521 -0.07100
C 	C 	0.75194 0.52193 0.49625 0.01300
C 	C 	0.83101 0.65834 0.46662 -0.02500
C 	C 	0.84692 0.70308 0.46219 -0.01600
C 	C 	0.86714 0.75649 0.45579 0.02600
C 	C 	0.85460 0.78651 0.48056 -0.05300
C 	C 	0.87727 0.83964 0.47609 -0.01600
C 	C 	0.91284 0.86305 0.44700 -0.02300
C 	C 	0.92373 0.83219 0.42123 -0.01600
C 	C 	0.90096 0.77917 0.42563 -0.05300
H 	H 	0.82926 0.51001 0.43232 0.03700
H 	H 	0.86604 0.60436 0.43104 0.04800
H 	H 	0.75660 0.59353 0.51247 0.04800
H 	H 	0.72003 0.49923 0.51446 0.03100
H 	H 	0.82816 0.76910 0.50377 0.04400
H 	H 	0.86859 0.86306 0.49618 0.03800
H 	H 	0.95066 0.84964 0.39835 0.03800
H 	H 	0.91041 0.75603 0.40609 0.04400
C 	C 	0.76236 0.22052 0.44486 -0.09800
C 	C 	0.72797 0.16487 0.44438 0.01600
C 	C 	0.74785 0.13437 0.43930 -0.07400
C 	C 	0.80211 0.15909 0.43446 0.04100
C 	C 	0.83583 0.21409 0.43296 -0.07300
C 	C 	0.81604 0.24472 0.43804 0.01600
C 	C 	0.82404 0.12872 0.43352 -0.02600
C 	C 	0.84236 0.10326 0.43274 -0.01600
C 	C 	0.86491 0.07344 0.43230 0.02500
C 	C 	0.90600 0.08636 0.40866 -0.05300
C 	C 	0.93070 0.06017 0.41057 -0.01700
C 	C 	0.91455 0.02083 0.43628 -0.02400
C 	C 	0.87230 0.00693 0.45907 -0.01800
C 	C 	0.84764 0.03323 0.45711 -0.05300
H 	H 	0.68620 0.14544 0.44882 0.02700
H 	H 	0.72139 0.09176 0.44005 0.04700
H 	H 	0.87773 0.23340 0.42889 0.04800
H 	H 	0.84301 0.28752 0.43818 0.03300
H 	H 	0.91935 0.11720 0.38925 0.04400
H 	H 	0.96268 0.07076 0.39234 0.04000
H 	H 	0.85950 0.97677 0.47909 0.03900
H 	H 	0.81580 0.02296 0.47543 0.04300
C 	C 	0.47668 0.24288 0.46116 -0.08900
C 	C 	0.44621 0.19044 0.46986 0.01700
C 	C 	0.38979 0.16153 0.46772 -0.07100
C 	C 	0.36341 0.18473 0.45689 0.04100
C 	C 	0.39362 0.23703 0.44828 -0.07200
C 	C 	0.45004 0.26604 0.45040 0.01700
C 	C 	0.30524 0.15467 0.45426 -0.02500
C 	C 	0.25652 0.12923 0.45214 -0.01600
C 	C 	0.19828 0.09836 0.44950 0.02600
C 	C 	0.17576 0.12186 0.46876 -0.05200
C 	C 	0.11927 0.09147 0.46699 -0.01700
C 	C 	0.16412 0.04452 0.42811 -0.05200
H 	H 	0.46610 0.17191 0.47788 0.03000
H 	H 	0.36661 0.12104 0.47433 0.04800
H 	H 	0.37346 0.25523 0.43996 0.04900
H 	H 	0.47303 0.30662 0.44401 0.03300
H 	H 	0.20198 0.16351 0.48534 0.04400
H 	H 	0.18129 0.02618 0.41301 0.04400
C 	C 	0.75665 0.51082 0.98620 -0.09000
C 	C 	0.76986 0.53196 0.94837 0.01900
C 	C 	0.79712 0.58714 0.94973 -0.07200
C 	C 	0.81146 0.62149 0.98886 0.04300
C 	C 	0.79944 0.60071 0.02676 -0.07400
C 	C 	0.77215 0.54561 0.02548 0.01600
C 	C 	0.83815 0.67801 0.99014 -0.02500
C 	C 	0.86052 0.72543 0.99169 -0.01600
C 	C 	0.88788 0.78221 0.99396 0.02700
C 	C 	0.94257 0.81890 0.01488 -0.05500
C 	C 	0.96992 0.87394 0.01582 -0.01700
C 	C 	0.94273 0.89272 0.99576 -0.02300
C 	C 	0.88746 0.85596 0.97572 -0.01700
C 	C 	0.86017 0.80084 0.97478 -0.05300
H 	H 	0.75792 0.50556 0.91781 0.03600
H 	H 	0.80655 0.60304 0.92033 0.04900
H 	H 	0.81084 0.62716 0.05717 0.04800
H 	H 	0.76271 0.52988 0.05494 0.02400
H 	H 	0.96407 0.80476 0.03008 0.04400
H 	H 	0.86608 0.86990 0.96000 0.04000
H 	H 	0.81776 0.77264 0.95872 0.04500
C 	C 	0.76197 0.21910 0.00302 -0.10000
C 	C 	0.73491 0.16584 0.00951 0.01700
C 	C 	0.76357 0.14376 0.01418 -0.07300
C 	C 	0.81941 0.17477 0.01261 0.04100
C 	C 	0.84707 0.22869 0.00840 -0.07400
C 	C 	0.81854 0.25084 0.00369 0.01500
C 	C 	0.84730 0.15019 0.01179 -0.02700
C 	C 	0.87117 0.13013 0.01108 -0.01600
C 	C 	0.89977 0.10632 0.00915 0.02400
C 	C 	0.93928 0.12293 0.98314 -0.05200
C 	C 	0.96521 0.09807 0.97945 -0.01600
C 	C 	0.95179 0.05632 0.00185 -0.02600
C 	C 	0.91268 0.04031 0.02843 -0.01700
C 	C 	0.88675 0.06520 0.03198 -0.05300
H 	H 	0.69137 0.14094 0.00928 0.03200
H 	H 	0.74200 0.10212 0.01775 0.04800
H 	H 	0.89037 0.25305 0.00760 0.04700
H 	H 	0.84015 0.29228 0.99957 0.02900
H 	H 	0.94948 0.15467 0.96535 0.04300
H 	H 	0.90240 0.00867 0.04633 0.04000
H 	H 	0.85629 0.05225 0.05223 0.04400
C 	C 	0.49111 0.22495 0.97188 -0.09100
C 	C 	0.45459 0.17075 0.97561 0.01700
C 	C 	0.39882 0.14702 0.97234 -0.07100
C 	C 	0.37907 0.17705 0.96510 0.04100
C 	C 	0.41485 0.23026 0.95946 -0.07100
C 	C 	0.47060 0.25413 0.96269 0.01400
C 	C 	0.32266 0.15419 0.96570 -0.02500
C 	C 	0.27536 0.13475 0.96624 -0.01600
C 	C 	0.21890 0.11103 0.96746 0.02500
C 	C 	0.20519 0.13732 0.99550 -0.05100
C 	C 	0.15069 0.11203 0.99964 -0.01600
C 	C 	0.10961 0.06014 0.97584 -0.02400
C 	C 	0.12331 0.03480 0.94661 -0.01800
C 	C 	0.17777 0.06016 0.94251 -0.05200
H 	H 	0.46945 0.14731 0.98182 0.03500
H 	H 	0.37119 0.10561 0.97627 0.04900
H 	H 	0.39971 0.25355 0.95348 0.04800
H 	H 	0.49796 0.29572 0.95919 0.03100
H 	H 	0.23684 0.17679 0.01479 0.04300
H 	H 	0.14068 0.13201 0.02231 0.03800
H 	H 	0.09188 0.99510 0.92759 0.04000
H 	H 	0.18807 0.03979 0.92056 0.04400
