data_crystal

_cell_length_a 17.86007
_cell_length_b 17.75597
_cell_length_c 14.78177
_cell_angle_alpha 89.99320
_cell_angle_beta  89.99104
_cell_angle_gamma 89.97774

_symmetry_space_group_name_	'P 1'
_symmetry_space_group_name_H-M	'P 1'

loop_
_symmetry_equiv_pos_as_xyz
  x,y,z

loop_
_atom_site_label
_atom_site_type_symbol
_atom_site_fract_x
_atom_site_fract_y
_atom_site_fract_z
_atom_site_charge
Co	Co	0.93927 0.94558 0.89422 1.19400
Co	Co	0.04483 0.04804 0.13410 1.17000
Co	Co	0.92844 0.93467 0.11374 1.19700
Co	Co	0.06152 0.05185 0.91379 1.16200
C 	C 	0.84499 0.97917 0.73152 0.30200
Co	Co	0.01406 0.00796 0.70927 1.14400
Co	Co	0.97082 0.98543 0.31888 1.18900
C 	C 	0.17040 0.00171 0.78173 0.24600
O 	O 	0.00891 0.87496 0.31315 -0.39800
O 	O 	0.97699 0.99529 0.17817 -0.74300
C 	C 	0.98302 0.82410 0.25583 0.31200
O 	O 	0.88779 0.89216 0.99686 -0.45500
O 	O 	0.10595 0.09078 0.03106 -0.44900
C 	C 	0.13660 0.00015 0.28963 0.24700
O 	O 	0.97274 0.01837 0.01340 -0.54900
C 	C 	0.81154 0.96860 0.25291 0.30900
C 	C 	0.00766 0.84323 0.75009 0.27500
C 	C 	0.01142 0.16964 0.77399 0.26100
O 	O 	0.97799 0.83911 0.16827 -0.37400
O 	O 	0.04795 0.89664 0.71221 -0.37100
O 	O 	0.98623 0.84928 0.83569 -0.35100
O 	O 	0.07968 0.02433 0.33813 -0.40300
O 	O 	0.12801 0.98966 0.20184 -0.35400
O 	O 	0.86066 0.94596 0.31359 -0.37900
O 	O 	0.82686 0.96541 0.16633 -0.37000
O 	O 	0.97960 0.11916 0.72024 -0.32500
O 	O 	0.06083 0.15036 0.83713 -0.37500
O 	O 	0.99921 0.00602 0.84939 -0.75300
C 	C 	0.97918 0.15125 0.28336 0.35300
O 	O 	0.93484 0.09585 0.30956 -0.37700
O 	O 	0.02318 0.14537 0.21073 -0.40900
O 	O 	0.90539 0.96977 0.68086 -0.36800
O 	O 	0.85049 0.98660 0.81998 -0.37400
O 	O 	0.12634 0.03844 0.72525 -0.37800
O 	O 	0.14839 0.98950 0.86507 -0.36500
C 	C 	0.01192 0.55502 0.46143 0.06200
C 	C 	0.00015 0.56801 0.55537 -0.07400
C 	C 	0.96377 0.51161 0.60568 0.04300
C 	C 	0.96219 0.43726 0.57392 -0.04700
C 	C 	0.97301 0.42422 0.47993 0.08100
C 	C 	0.00810 0.48099 0.42870 -0.11900
H 	H 	0.02530 0.46964 0.35976 0.06900
H 	H 	0.94565 0.52316 0.67422 0.04800
C 	C 	0.56204 0.97018 0.54946 0.02100
C 	C 	0.54607 0.95781 0.45632 0.01000
C 	C 	0.47133 0.95935 0.42700 -0.05200
C 	C 	0.41599 0.99468 0.47936 0.06100
C 	C 	0.43196 0.00782 0.57254 -0.04500
C 	C 	0.50665 0.00506 0.60230 -0.04200
H 	H 	0.51981 0.02317 0.67042 0.05300
H 	H 	0.45824 0.94127 0.35883 0.06900
C 	C 	0.34470 0.02244 0.43338 -0.00200
C 	C 	0.34384 0.03817 0.33919 -0.02400
C 	C 	0.27727 0.02500 0.28842 -0.01500
C 	C 	0.21247 0.99637 0.33299 -0.01700
C 	C 	0.21735 0.98289 0.42724 0.03100
C 	C 	0.27500 0.01685 0.47614 -0.05500
C 	C 	0.40688 0.07634 0.29791 0.09400
C 	C 	0.15813 0.94455 0.47531 0.09600
C 	C 	0.25342 0.07704 0.53611 0.09900
C 	C 	0.27584 0.04151 0.19246 0.09800
N 	N 	0.23519 0.12598 0.58279 -0.10200
N 	N 	0.27496 0.05476 0.11579 -0.09800
N 	N 	0.11070 0.91428 0.51419 -0.12000
N 	N 	0.45730 0.10677 0.26503 -0.10000
C 	C 	0.24926 0.99059 0.75781 -0.02000
C 	C 	0.29947 0.05108 0.76652 0.00100
C 	C 	0.35960 0.05775 0.70554 -0.06100
C 	C 	0.37304 0.99941 0.64244 0.07800
C 	C 	0.33405 0.93050 0.65137 -0.04500
C 	C 	0.27047 0.92691 0.70738 0.01300
C 	C 	0.28882 0.10617 0.83765 0.09500
C 	C 	0.35922 0.86403 0.60311 0.11200
C 	C 	0.22767 0.85786 0.71408 0.10000
C 	C 	0.40269 0.12688 0.70196 0.11200
N 	N 	0.19392 0.80241 0.71933 -0.09800
N 	N 	0.43705 0.18207 0.69903 -0.10200
N 	N 	0.37934 0.81105 0.56453 -0.10100
N 	N 	0.28033 0.15002 0.89467 -0.10200
C 	C 	0.60463 0.96870 0.38666 0.04200
C 	C 	0.64440 0.03746 0.38181 -0.05200
C 	C 	0.71071 0.04106 0.33069 0.01300
C 	C 	0.73301 0.97793 0.27999 -0.06100
C 	C 	0.68138 0.91956 0.26439 0.03100
C 	C 	0.61946 0.91183 0.32220 -0.03900
C 	C 	0.61736 0.10347 0.42946 0.10600
C 	C 	0.68872 0.87190 0.18539 0.10500
C 	C 	0.57602 0.84288 0.32139 0.11100
C 	C 	0.75257 0.11076 0.32500 0.09300
N 	N 	0.54137 0.78782 0.32080 -0.09600
N 	N 	0.78537 0.16684 0.32056 -0.09500
N 	N 	0.69443 0.83397 0.12210 -0.08500
N 	N 	0.59573 0.15610 0.46755 -0.10200
C 	C 	0.76912 0.97275 0.68797 -0.07200
C 	C 	0.70583 0.94372 0.73594 0.02400
C 	C 	0.63776 0.93005 0.68842 -0.03800
C 	C 	0.63451 0.94394 0.59406 0.02900
C 	C 	0.70310 0.94741 0.54843 -0.04500
C 	C 	0.76202 0.98276 0.59340 0.04100
C 	C 	0.71046 0.92625 0.83154 0.09300
C 	C 	0.72277 0.88461 0.49157 0.11000
C 	C 	0.81521 0.02708 0.54258 0.07400
C 	C 	0.57611 0.89208 0.73293 0.10500
N 	N 	0.85787 0.06253 0.50191 -0.11100
N 	N 	0.52679 0.86180 0.76837 -0.10300
N 	N 	0.73916 0.83347 0.44736 -0.10200
N 	N 	0.71384 0.91219 0.90789 -0.09700
C 	C 	0.94357 0.35440 0.43270 0.01900
C 	C 	0.94614 0.28373 0.47487 -0.04600
C 	C 	0.98029 0.22538 0.42689 0.08100
C 	C 	0.97404 0.22412 0.33165 -0.08900
C 	C 	0.94683 0.28932 0.28693 0.03800
C 	C 	0.93056 0.35487 0.33818 -0.03300
C 	C 	0.88436 0.26310 0.53260 0.11800
C 	C 	0.93401 0.28850 0.19013 0.10300
C 	C 	0.89220 0.41800 0.29682 0.11200
C 	C 	0.01548 0.16415 0.47545 0.02200
N 	N 	0.86160 0.46849 0.26386 -0.09700
N 	N 	0.04368 0.11531 0.51456 -0.12600
N 	N 	0.92374 0.28784 0.11283 -0.08800
N 	N 	0.83422 0.24560 0.57754 -0.10400
C 	C 	0.00558 0.24967 0.74831 -0.13000
C 	C 	0.93625 0.28723 0.75456 0.08700
C 	C 	0.92368 0.35288 0.70284 -0.07500
C 	C 	0.97885 0.37699 0.64074 0.10300
C 	C 	0.05201 0.34724 0.64713 -0.10700
C 	C 	0.06566 0.28470 0.70313 0.05400
C 	C 	0.87775 0.25749 0.81237 0.07800
C 	C 	0.11314 0.38182 0.59761 0.11600
C 	C 	0.14154 0.25863 0.71751 0.08700
C 	C 	0.85271 0.39224 0.70891 0.12000
N 	N 	0.20235 0.23848 0.72928 -0.08900
N 	N 	0.79608 0.42368 0.71369 -0.10400
N 	N 	0.16185 0.40948 0.55810 -0.10700
N 	N 	0.83107 0.23368 0.85851 -0.09600
C 	C 	0.00144 0.61676 0.39454 -0.04100
C 	C 	0.93025 0.65020 0.38348 0.02300
C 	C 	0.92185 0.71207 0.32484 -0.00500
C 	C 	0.98523 0.74445 0.28423 -0.02300
C 	C 	0.05343 0.70436 0.28385 -0.01900
C 	C 	0.06050 0.63822 0.33629 -0.00600
C 	C 	0.86578 0.62025 0.43107 0.09900
C 	C 	0.11651 0.73232 0.23211 0.10900
C 	C 	0.12978 0.59562 0.33514 0.09600
C 	C 	0.84797 0.73750 0.29938 0.10200
N 	N 	0.18505 0.56161 0.33431 -0.09500
N 	N 	0.78868 0.75694 0.27855 -0.09700
N 	N 	0.16686 0.75474 0.19084 -0.09600
N 	N 	0.81438 0.59630 0.46908 -0.09500
C 	C 	0.00579 0.76847 0.70462 -0.12200
C 	C 	0.03129 0.70224 0.74950 0.04500
C 	C 	0.04376 0.63556 0.69834 -0.07000
C 	C 	0.03101 0.63667 0.60364 0.07000
C 	C 	0.03080 0.70731 0.56197 -0.10800
C 	C 	0.99697 0.76569 0.60968 0.11000
C 	C 	0.04694 0.70299 0.84568 0.08100
C 	C 	0.09507 0.72711 0.50796 0.12700
C 	C 	0.95779 0.82422 0.56104 0.07500
C 	C 	0.07926 0.57078 0.73973 0.10300
N 	N 	0.92643 0.87063 0.52123 -0.10600
N 	N 	0.10759 0.51900 0.77276 -0.11300
N 	N 	0.14730 0.74363 0.46607 -0.10800
N 	N 	0.05952 0.70346 0.92249 -0.10800
