data_crystal

_cell_length_a 28.18780
_cell_length_b 29.77138
_cell_length_c 43.87148
_cell_angle_alpha 60.85026
_cell_angle_beta  118.86145
_cell_angle_gamma 133.25475

_symmetry_space_group_name_	'P 1'
_symmetry_space_group_name_H-M	'P 1'

loop_
_symmetry_equiv_pos_as_xyz
  x,y,z

loop_
_atom_site_label
_atom_site_type_symbol
_atom_site_fract_x
_atom_site_fract_y
_atom_site_fract_z
_atom_site_charge
C 	C 	0.73539 0.31878 0.02491 0.06000
C 	C 	0.66970 0.27475 0.03012 -0.09800
C 	C 	0.64613 0.29085 0.04207 0.06100
C 	C 	0.68503 0.35317 0.04491 -0.09800
C 	C 	0.74787 0.39920 0.03641 0.06100
C 	C 	0.77394 0.38143 0.02757 -0.09800
H 	H 	0.63694 0.22833 0.02484 0.05200
H 	H 	0.66606 0.36602 0.05331 0.05700
C 	C 	0.74989 0.30541 0.54066 0.06000
C 	C 	0.68654 0.26012 0.54882 -0.10000
C 	C 	0.66134 0.27797 0.55825 0.06000
C 	C 	0.69880 0.34159 0.55851 -0.09900
C 	C 	0.76138 0.38722 0.54973 0.06100
C 	C 	0.78705 0.36895 0.54106 -0.10000
H 	H 	0.65699 0.21136 0.54772 0.05200
H 	H 	0.67912 0.35566 0.56536 0.05500
C 	C 	0.25927 0.62971 0.18676 0.06300
C 	C 	0.22807 0.56488 0.19264 -0.09900
C 	C 	0.25795 0.54581 0.18847 0.06200
C 	C 	0.31931 0.59196 0.17825 -0.09800
C 	C 	0.34968 0.65695 0.17105 0.06300
C 	C 	0.31977 0.67570 0.17545 -0.09800
H 	H 	0.18018 0.52935 0.20000 0.05400
H 	H 	0.34270 0.57735 0.17524 0.05500
H 	H 	0.34252 0.72589 0.16911 0.05700
C 	C 	0.28630 0.63702 0.70179 0.06400
C 	C 	0.35394 0.67120 0.70256 -0.10000
C 	C 	0.37581 0.64133 0.70190 0.06400
C 	C 	0.33088 0.57671 0.70210 -0.10100
C 	C 	0.26266 0.54384 0.69859 0.06400
C 	C 	0.24074 0.57339 0.69954 -0.10100
H 	H 	0.38853 0.72143 0.70194 0.05700
H 	H 	0.34842 0.55286 0.70317 0.05700
H 	H 	0.18801 0.54780 0.69717 0.05500
Co	Co	0.06110 0.02387 0.06618 1.17300
Co	Co	0.00464 0.06744 0.08822 1.18400
C 	C 	0.19895 0.04938 0.08887 0.29100
Co	Co	0.07764 0.92607 0.06802 1.17100
O 	O 	0.06039 0.09666 0.05734 -0.47800
C 	C 	0.06224 0.14746 0.13912 0.31200
C 	C 	0.07360 0.84985 0.14439 0.32300
O 	O 	0.09273 0.99865 0.02128 -0.35900
O 	O 	0.01017 0.10162 0.15407 -0.40000
O 	O 	0.06562 0.14510 0.11059 -0.38700
O 	O 	0.06122 0.84867 0.11176 -0.41100
O 	O 	0.04530 0.86454 0.15111 -0.38600
O 	O 	0.04446 0.95194 0.08598 -0.75200
O 	O 	0.17082 0.98806 0.09593 -0.36900
O 	O 	0.16306 0.07252 0.07203 -0.39300
Co	Co	0.06123 0.02016 0.56287 1.16900
C 	C 	0.20063 0.05391 0.57953 0.28700
Co	Co	0.08090 0.92545 0.56346 1.17100
O 	O 	0.05151 0.08761 0.55306 -0.47700
C 	C 	0.03727 0.15107 0.61669 0.33200
C 	C 	0.10358 0.86564 0.64224 0.32600
O 	O 	0.08137 0.98993 0.51406 -0.38300
O 	O 	0.06013 0.13542 0.60633 -0.39900
O 	O 	0.08028 0.85641 0.61016 -0.41100
O 	O 	0.08055 0.88274 0.65127 -0.38900
O 	O 	0.05222 0.95167 0.58433 -0.75800
O 	O 	0.17793 0.99516 0.58386 -0.36600
O 	O 	0.16092 0.07306 0.56161 -0.39600
C 	C 	0.04550 0.01866 0.79421 -0.08900
C 	C 	0.04670 0.01905 0.76252 -0.00700
H 	H 	0.08858 0.05689 0.80739 0.04600
H 	H 	0.08996 0.05847 0.75104 0.03100
C 	C 	0.17365 0.40456 0.66116 0.02500
C 	C 	0.14783 0.39620 0.62640 -0.05000
C 	C 	0.11405 0.33682 0.62139 -0.03400
C 	C 	0.10640 0.28536 0.65114 -0.00100
C 	C 	0.13118 0.29330 0.68588 -0.03500
C 	C 	0.16544 0.35279 0.69095 -0.04900
C 	C 	0.06715 0.22178 0.64594 0.01500
C 	C 	0.08272 0.21226 0.62615 -0.15900
C 	C 	0.21658 0.46921 0.66614 -0.04100
C 	C 	0.21363 0.48013 0.69133 -0.06400
H 	H 	0.15442 0.43591 0.60327 0.04200
H 	H 	0.09339 0.33067 0.59440 0.04000
H 	H 	0.12462 0.25354 0.70897 0.03600
H 	H 	0.18684 0.35897 0.71797 0.04100
H 	H 	0.02494 0.18223 0.65842 0.02600
H 	H 	0.12828 0.25022 0.61635 0.08100
H 	H 	0.25102 0.50873 0.64876 0.04000
H 	H 	0.17447 0.44245 0.70609 0.04500
C 	C 	0.65448 0.76443 0.67120 0.00200
C 	C 	0.63207 0.72292 0.70294 -0.03500
C 	C 	0.56732 0.69368 0.70388 -0.04900
C 	C 	0.52437 0.70586 0.67307 0.02600
C 	C 	0.54535 0.74463 0.64084 -0.04800
C 	C 	0.61033 0.77439 0.63994 -0.03200
C 	C 	0.45588 0.67492 0.67384 -0.04100
C 	C 	0.44480 0.67852 0.69889 -0.06400
C 	C 	0.72689 0.80632 0.67291 0.01500
H 	H 	0.66563 0.71494 0.72721 0.03700
H 	H 	0.55072 0.66195 0.72861 0.04200
H 	H 	0.51194 0.75312 0.61672 0.04400
H 	H 	0.62718 0.80721 0.61539 0.04300
H 	H 	0.41400 0.64955 0.65342 0.04000
H 	H 	0.48663 0.70908 0.71705 0.04700
H 	H 	0.71664 0.79994 0.62388 0.08200
C 	C 	0.22237 0.81940 0.68485 0.00500
C 	C 	0.18047 0.75288 0.69728 -0.03300
C 	C 	0.20497 0.71727 0.71056 -0.04800
C 	C 	0.27130 0.74774 0.71114 0.02600
C 	C 	0.31464 0.81434 0.70176 -0.04700
C 	C 	0.29016 0.85003 0.68842 -0.03400
C 	C 	0.29369 0.71022 0.71822 -0.04100
C 	C 	0.26086 0.66992 0.69798 -0.06200
C 	C 	0.19306 0.85508 0.66166 0.01500
C 	C 	0.14621 0.84533 0.67006 -0.15100
H 	H 	0.12801 0.72849 0.69469 0.04200
H 	H 	0.17161 0.66587 0.71880 0.04300
H 	H 	0.36634 0.83832 0.70292 0.04400
H 	H 	0.32308 0.90130 0.67919 0.04300
H 	H 	0.34019 0.71957 0.73787 0.04100
H 	H 	0.21411 0.66046 0.67855 0.04700
H 	H 	0.20711 0.88709 0.63623 0.03300
H 	H 	0.13700 0.81929 0.69685 0.08200
C 	C 	0.21896 0.38747 0.20183 0.02500
C 	C 	0.15471 0.33587 0.20810 -0.04900
C 	C 	0.12246 0.27761 0.20216 -0.03600
C 	C 	0.15411 0.27025 0.19001 0.00300
C 	C 	0.21975 0.32085 0.18551 -0.03500
C 	C 	0.25195 0.37923 0.19137 -0.04900
C 	C 	0.11836 0.20883 0.18279 0.00700
C 	C 	0.11472 0.20651 0.15177 -0.14800
C 	C 	0.25241 0.45018 0.20645 -0.04200
C 	C 	0.22086 0.47802 0.19056 -0.06200
H 	H 	0.12974 0.34094 0.21749 0.04000
H 	H 	0.07248 0.23837 0.20657 0.03500
H 	H 	0.24576 0.31500 0.17753 0.03800
H 	H 	0.30217 0.41830 0.18729 0.04000
H 	H 	0.08755 0.16521 0.20081 0.03500
H 	H 	0.14662 0.24975 0.13410 0.07800
H 	H 	0.30521 0.47642 0.21993 0.03900
H 	H 	0.16766 0.45130 0.17788 0.04600
C 	C 	0.49402 0.74596 0.12929 0.02600
C 	C 	0.53257 0.72530 0.13867 -0.04800
C 	C 	0.59748 0.76907 0.13316 -0.03300
C 	C 	0.62362 0.83372 0.11722 0.00500
C 	C 	0.58400 0.85381 0.10680 -0.03300
C 	C 	0.51949 0.81015 0.11277 -0.04700
C 	C 	0.69506 0.88193 0.11584 0.01300
C 	C 	0.42709 0.70019 0.13697 -0.04200
C 	C 	0.41461 0.70582 0.16044 -0.06200
H 	H 	0.51303 0.67569 0.15123 0.04100
H 	H 	0.62807 0.75308 0.14234 0.04000
H 	H 	0.60375 0.90355 0.09472 0.04200
H 	H 	0.48963 0.82633 0.10494 0.04500
H 	H 	0.69836 0.82865 0.09905 0.08000
H 	H 	0.38911 0.65972 0.12498 0.04100
H 	H 	0.45227 0.74742 0.17150 0.04800
C 	C 	0.17819 0.79274 0.18542 0.00700
C 	C 	0.14912 0.75641 0.16185 -0.03600
C 	C 	0.17312 0.72404 0.16735 -0.04600
C 	C 	0.22534 0.72604 0.19725 0.02400
C 	C 	0.25203 0.75986 0.22179 -0.04700
C 	C 	0.22892 0.79346 0.21574 -0.03500
C 	C 	0.25871 0.70078 0.20038 -0.04000
C 	C 	0.22439 0.64907 0.18867 -0.06200
C 	C 	0.16477 0.83913 0.17447 0.00900
C 	C 	0.10529 0.81945 0.17427 -0.14600
H 	H 	0.11051 0.75628 0.13808 0.04300
H 	H 	0.15339 0.70020 0.14742 0.04200
H 	H 	0.29244 0.76209 0.24483 0.04300
H 	H 	0.25211 0.82182 0.23394 0.04300
H 	H 	0.31213 0.72490 0.21245 0.04100
H 	H 	0.16997 0.61989 0.18110 0.04500
H 	H 	0.19760 0.88706 0.15965 0.03600
H 	H 	0.07483 0.77392 0.19153 0.08000
C 	C 	0.78258 0.23945 0.55179 -0.04300
C 	C 	0.77647 0.28710 0.53023 -0.06400
H 	H 	0.76804 0.21392 0.57726 0.03700
C 	C 	0.77540 0.56067 0.54742 -0.05100
H 	H 	0.72326 0.52419 0.54864 0.04100
C 	C 	0.51220 0.19148 0.59537 0.02300
C 	C 	0.49768 0.15671 0.62934 -0.05100
C 	C 	0.43356 0.12340 0.63322 -0.03900
C 	C 	0.38355 0.12541 0.60327 0.00100
C 	C 	0.39850 0.16148 0.56932 -0.03700
C 	C 	0.46261 0.19467 0.56543 -0.05000
C 	C 	0.31358 0.08180 0.60673 0.00400
C 	C 	0.26996 0.09983 0.58737 -0.15800
C 	C 	0.58135 0.22981 0.59200 -0.04400
C 	C 	0.59350 0.23088 0.56542 -0.06400
H 	H 	0.53595 0.15503 0.65272 0.03600
H 	H 	0.42243 0.09522 0.65946 0.03100
H 	H 	0.36008 0.16249 0.54581 0.03800
H 	H 	0.47379 0.22304 0.53923 0.04000
H 	H 	0.29512 0.03382 0.62365 0.02600
H 	H 	0.29032 0.14997 0.57674 0.08000
H 	H 	0.62290 0.25746 0.61156 0.03800
H 	H 	0.55297 0.19790 0.54837 0.04200
C 	C 	0.74381 0.24004 0.02607 -0.04300
C 	C 	0.76385 0.30063 0.01552 -0.06200
H 	H 	0.75904 0.14603 0.06822 0.03300
H 	H 	0.70751 0.20374 0.04261 0.03500
C 	C 	0.75735 0.49510 0.02333 -0.04300
H 	H 	0.76465 0.59593 0.97010 0.04100
H 	H 	0.70562 0.47194 0.00796 0.04000
C 	C 	0.37670 0.11612 0.10129 0.00100
C 	C 	0.42876 0.11263 0.12797 -0.03800
C 	C 	0.49171 0.15091 0.12096 -0.05100
C 	C 	0.50276 0.19205 0.08697 0.02300
C 	C 	0.45073 0.19579 0.06028 -0.05000
C 	C 	0.38787 0.15759 0.06728 -0.03700
C 	C 	0.57040 0.23486 0.08044 -0.04300
C 	C 	0.57920 0.24293 0.05016 -0.06400
C 	C 	0.30900 0.07207 0.10799 0.00300
C 	C 	0.26867 0.09245 0.09496 -0.16000
H 	H 	0.42045 0.08027 0.15414 0.03100
H 	H 	0.53180 0.14835 0.14189 0.03600
H 	H 	0.45912 0.22857 0.03421 0.04000
H 	H 	0.34764 0.15959 0.04613 0.03800
H 	H 	0.61360 0.25945 0.10081 0.03800
H 	H 	0.53703 0.21350 0.03151 0.04200
H 	H 	0.28996 0.02283 0.12235 0.02500
H 	H 	0.29144 0.14312 0.08627 0.08100
O 	O 	0.01769 0.98905 0.11153 -0.55700
C 	C 	0.04453 0.00538 0.00073 0.23700
O 	O 	0.01471 0.00770 0.01504 -0.39300
O 	O 	0.02962 0.98965 0.61209 -0.56000
C 	C 	0.02993 0.99250 0.49689 0.29000
C 	C 	0.01832 0.99958 0.96434 -0.04000
C 	C 	0.02470 0.03815 0.40010 -0.07500
C 	C 	0.03669 0.04451 0.43318 -0.03200
H 	H 	0.05498 0.07927 0.38126 0.04400
H 	H 	0.07702 0.09019 0.43981 0.03500
C 	C 	0.72558 0.87279 0.10579 -0.14600
H 	H 	0.89814 0.25057 0.58967 0.03800
C 	C 	0.77374 0.48471 0.53657 -0.04300
H 	H 	0.72161 0.46163 0.52177 0.04000
C 	C 	0.74982 0.82440 0.64540 -0.15500
H 	H 	0.01044 0.07635 0.87008 0.04400
H 	H 	0.00629 0.06722 0.81564 0.04200
H 	H 	0.72264 0.92660 0.12214 0.03400
H 	H 	0.77886 0.63189 0.55167 0.03800
C 	C 	0.77658 0.22254 0.02009 0.02200
C 	C 	0.77964 0.17165 0.04488 -0.05300
C 	C 	0.80175 0.45367 0.55151 -0.06300
C 	C 	0.78714 0.46592 0.03753 -0.06300
H 	H 	0.76211 0.82577 0.69634 0.03500
C 	C 	0.81522 0.22518 0.54324 0.02200
C 	C 	0.87384 0.23090 0.56685 -0.05000
C 	C 	0.79436 0.55965 0.02680 0.02600
C 	C 	0.79091 0.60609 0.99633 -0.05100
H 	H 	0.79535 0.29000 0.96850 0.03900
H 	H 	0.73913 0.19531 0.49521 0.03800
H 	H 	0.79572 0.31577 0.50611 0.04500
C 	C 	0.80719 0.62159 0.54960 -0.03000
H 	H 	0.80511 0.33816 0.00223 0.04300
C 	C 	0.78437 0.19985 0.51365 -0.05000
H 	H 	0.79647 0.06704 0.52147 0.07200
C 	C 	0.81017 0.54734 0.54266 0.02600
C 	C 	0.81090 0.15469 0.04027 -0.03400
C 	C 	0.80133 0.25359 0.98921 -0.04900
C 	C 	0.82205 0.66607 0.99952 -0.03000
H 	H 	0.82100 0.70227 0.97564 0.03800
H 	H 	0.84058 0.49141 0.04971 0.04400
H 	H 	0.82365 0.41630 0.02242 0.05200
H 	H 	0.83573 0.40402 0.53462 0.05300
C 	C 	0.79718 0.92133 0.10556 0.31500
C 	C 	0.81065 0.17819 0.50857 -0.03800
C 	C 	0.83420 0.23762 0.98508 -0.03700
H 	H 	0.81529 0.11706 0.06051 0.03100
H 	H 	0.82139 0.08662 0.00942 0.07500
C 	C 	0.82702 0.57291 0.06077 -0.05100
H 	H 	0.82839 0.53683 0.08464 0.04100
Co	Co	0.00849 0.89854 0.61645 1.19000
H 	H 	0.85406 0.47659 0.56591 0.04400
O 	O 	0.82220 0.98177 0.09740 -0.38100
O 	O 	0.83068 0.90500 0.10553 -0.39600
C 	C 	0.81848 0.88121 0.64268 0.33000
C 	C 	0.86778 0.18145 0.53318 0.00400
H 	H 	0.78595 0.15789 0.48597 0.03500
C 	C 	0.84007 0.18872 0.01086 0.00100
C 	C 	0.85572 0.67983 0.03332 -0.00700
H 	H 	0.84679 0.72698 0.06743 0.09300
O 	O 	0.85212 0.88492 0.62775 -0.40500
C 	C 	0.85009 0.08987 0.53105 -0.15400
H 	H 	0.86906 0.71521 0.58502 0.09200
H 	H 	0.85624 0.26410 0.96221 0.03600
C 	C 	0.85766 0.63281 0.06400 -0.03200
O 	O 	0.84851 0.01014 0.58509 -0.41200
O 	O 	0.84777 0.92602 0.65778 -0.40400
C 	C 	0.87741 0.59547 0.54050 -0.05100
C 	C 	0.87445 0.66964 0.54746 -0.00700
C 	C 	0.87214 0.04881 0.55615 0.31600
C 	C 	0.87268 0.12481 0.01877 -0.15700
C 	C 	0.88864 0.76288 0.05450 -0.19900
H 	H 	0.88437 0.64319 0.09019 0.03700
C 	C 	0.90048 0.20996 0.56157 -0.04100
H 	H 	0.88899 0.88195 0.80192 0.04700
C 	C 	0.89164 0.15177 0.53093 0.00700
C 	C 	0.90166 0.75241 0.56647 -0.20200
H 	H 	0.90422 0.58674 0.53548 0.04000
C 	C 	0.88822 0.18247 0.01127 0.01200
C 	C 	0.89868 0.74626 0.03557 0.03300
H 	H 	0.89136 0.88262 0.74614 0.03200
C 	C 	0.90590 0.73648 0.54419 0.03400
H 	H 	0.89772 0.87960 0.41047 0.04500
O 	O 	0.88765 0.97060 0.17222 -0.40000
C 	C 	0.90945 0.65596 0.54329 -0.03100
O 	O 	0.00427 0.99463 0.51414 -0.37300
H 	H 	0.92026 0.89056 0.46921 0.04400
C 	C 	0.91566 0.10736 0.04955 0.32400
O 	O 	0.91706 0.83785 0.07572 -0.40700
Co	Co	0.91290 0.02146 0.63494 1.16000
O 	O 	0.91404 0.05002 0.54927 -0.40400
Co	Co	0.91375 0.04359 0.12623 1.15500
C 	C 	0.00167 0.99276 0.93495 0.03100
Co	Co	0.92972 0.93964 0.13320 1.19200
C 	C 	0.93119 0.82249 0.05898 0.35200
O 	O 	0.92709 0.86567 0.13989 -0.46800
O 	O 	0.92952 0.07451 0.04795 -0.41400
C 	C 	0.92769 0.95446 0.19591 0.31900
O 	O 	0.93185 0.82770 0.58828 -0.41000
C 	C 	0.93647 0.92575 0.41662 -0.05300
O 	O 	0.93307 0.11765 0.08033 -0.41700
C 	C 	0.93504 0.92000 0.75983 0.01200
C 	C 	0.93345 0.91993 0.79132 -0.06500
H 	H 	0.93773 0.77337 0.52522 0.02700
H 	H 	0.93805 0.78198 0.02089 0.02800
C 	C 	0.00068 0.99106 0.45880 -0.02800
H 	H 	0.93748 0.02937 0.26801 0.03500
C 	C 	0.99817 0.03296 0.87012 -0.07100
C 	C 	0.99657 0.02805 0.83938 -0.06900
Co	Co	0.99895 0.05563 0.58693 1.17600
O 	O 	0.98312 0.03039 0.68325 -0.42200
C 	C 	0.99068 0.97076 0.74456 -0.06600
H 	H 	0.94522 0.21375 0.58035 0.04200
H 	H 	0.98094 0.89139 0.33024 0.04300
H 	H 	0.99012 0.90120 0.38606 0.04100
O 	O 	0.97264 0.11853 0.61258 -0.42200
C 	C 	0.97344 0.92366 0.32871 -0.03700
C 	C 	0.97817 0.92890 0.36035 -0.04100
C 	C 	0.98368 0.98137 0.70656 0.31800
C 	C 	0.97005 0.92243 0.87034 -0.03900
C 	C 	0.97103 0.92718 0.90091 -0.04000
H 	H 	0.96016 0.87991 0.87089 0.04000
H 	H 	0.96228 0.88841 0.92484 0.04100
C 	C 	0.94853 0.93221 0.44973 -0.01300
Co	Co	0.98778 0.89630 0.11147 1.18100
O 	O 	0.95738 0.01588 0.11835 -0.79100
O 	O 	0.94832 0.93516 0.18662 -0.38000
O 	O 	0.97992 0.86709 0.04180 -0.40500
Co	Co	0.95491 0.93747 0.64438 1.19400
C 	C 	0.94048 0.81346 0.56780 0.35400
O 	O 	0.96366 0.00618 0.62282 -0.78200
O 	O 	0.96341 0.86967 0.65336 -0.47000
O 	O 	0.98214 0.94396 0.69698 -0.37600
O 	O 	0.98015 0.85896 0.54537 -0.41300
C 	C 	0.98796 0.97026 0.80811 0.04600
C 	C 	0.98413 0.97334 0.83962 0.02700
C 	C 	0.98658 0.98300 0.90121 0.03000
C 	C 	0.97613 0.97828 0.39217 0.03700
C 	C 	0.96820 0.97041 0.35871 0.03000
C 	C 	0.95340 0.00641 0.32520 -0.06800
C 	C 	0.94902 0.00135 0.29371 -0.06500
C 	C 	0.95906 0.96006 0.29532 0.02700
C 	C 	0.95167 0.95367 0.26232 0.04100
C 	C 	0.94275 0.95173 0.23295 -0.09700
H 	H 	0.94541 0.03840 0.32355 0.03700
H 	H 	0.94540 0.17537 0.53836 0.03300
H 	H 	0.96101 0.69293 0.54102 0.03300
H 	H 	0.94063 0.22312 0.01426 0.03200
