data_crystal

_cell_length_a 26.09975
_cell_length_b 27.20921
_cell_length_c 37.21956
_cell_angle_alpha 61.00468
_cell_angle_beta  118.70261
_cell_angle_gamma 133.21576

_symmetry_space_group_name_	'P 1'
_symmetry_space_group_name_H-M	'P 1'

loop_
_symmetry_equiv_pos_as_xyz
  x,y,z

loop_
_atom_site_label
_atom_site_type_symbol
_atom_site_fract_x
_atom_site_fract_y
_atom_site_fract_z
_atom_site_charge
Co	Co	0.04883 0.99499 0.07773 1.20400
Co	Co	0.99802 0.04755 0.10799 1.16600
C 	C 	0.19465 0.04235 0.08782 0.23300
Co	Co	0.08164 0.89175 0.09020 1.17100
O 	O 	0.04550 0.07370 0.06566 -0.47200
C 	C 	0.08108 0.14518 0.16415 0.26300
C 	C 	0.11642 0.85645 0.18315 0.26400
O 	O 	0.03902 0.10041 0.19095 -0.37600
O 	O 	0.08623 0.12342 0.14171 -0.38200
O 	O 	0.14617 0.89621 0.15056 -0.36500
O 	O 	0.07529 0.86332 0.18870 -0.36300
O 	O 	0.03193 0.91658 0.10242 -0.75400
O 	O 	0.16018 0.99539 0.06752 -0.35300
O 	O 	0.15869 0.04545 0.10111 -0.39900
Co	Co	0.07490 0.02920 0.57080 1.17500
Co	Co	0.02408 0.08713 0.59732 1.18900
C 	C 	0.21375 0.04621 0.59233 0.22100
Co	Co	0.07855 0.90863 0.57550 1.17200
O 	O 	0.08236 0.11342 0.56168 -0.46400
C 	C 	0.09516 0.19571 0.63853 0.27300
C 	C 	0.09659 0.85018 0.66821 0.27200
O 	O 	0.09473 0.98119 0.51753 -0.35500
O 	O 	0.02930 0.17594 0.62998 -0.38700
O 	O 	0.10570 0.15824 0.63405 -0.38400
O 	O 	0.06873 0.83380 0.63226 -0.37500
O 	O 	0.08724 0.88909 0.67205 -0.37400
O 	O 	0.04417 0.94575 0.59025 -0.75100
C 	C 	0.01555 0.01483 0.73398 0.23000
O 	O 	0.18392 0.97919 0.60273 -0.34900
O 	O 	0.18357 0.06821 0.59492 -0.37400
C 	C 	0.03649 0.02285 0.83176 0.03600
C 	C 	0.07167 0.05271 0.86582 -0.05400
C 	C 	0.05668 0.00752 0.90534 -0.03400
N 	N 	0.06352 0.05303 0.79806 -0.14400
C 	C 	0.05621 0.02209 0.93598 -0.07600
H 	H 	0.10913 0.10857 0.86176 0.05100
H 	H 	0.09738 0.07025 0.94604 0.05400
H 	H 	0.09138 0.10616 0.78343 0.09800
C 	C 	0.20321 0.33240 0.68493 0.12000
C 	C 	0.18202 0.43341 0.65916 0.11700
C 	C 	0.18204 0.41663 0.62898 -0.08300
C 	C 	0.19460 0.36678 0.64293 0.01200
O 	O 	0.18213 0.26652 0.69137 -0.19000
C 	C 	0.15643 0.26281 0.64934 0.04300
C 	C 	0.16557 0.32323 0.62039 -0.05300
O 	O 	0.19809 0.49717 0.65240 -0.19700
H 	H 	0.17381 0.44238 0.59583 0.07200
H 	H 	0.13279 0.32501 0.58836 0.05700
C 	C 	0.14653 0.73859 0.73506 0.12200
C 	C 	0.13688 0.67974 0.73717 -0.08800
C 	C 	0.19833 0.68583 0.74333 0.02400
O 	O 	0.08998 0.74464 0.71697 -0.18000
C 	C 	0.12928 0.81717 0.70511 0.04800
C 	C 	0.20326 0.85137 0.71638 -0.05400
H 	H 	0.08314 0.63244 0.73163 0.07500
H 	H 	0.15033 0.59741 0.72278 0.06800
C 	C 	0.17555 0.29610 0.19320 0.12000
C 	C 	0.17553 0.31961 0.21943 -0.09000
C 	C 	0.13854 0.36452 0.13102 -0.08400
C 	C 	0.15887 0.31942 0.14993 0.01300
O 	O 	0.16411 0.23264 0.20637 -0.18800
C 	C 	0.13483 0.21769 0.16717 0.04500
C 	C 	0.13297 0.26997 0.13329 -0.05800
H 	H 	0.12498 0.38223 0.09699 0.07200
H 	H 	0.09530 0.26150 0.10285 0.05400
C 	C 	0.12752 0.71632 0.23313 0.12200
C 	C 	0.10914 0.65892 0.22626 -0.09000
C 	C 	0.16511 0.65472 0.23541 0.02300
O 	O 	0.08130 0.73580 0.21455 -0.18900
C 	C 	0.13210 0.80635 0.21463 0.04700
C 	C 	0.20242 0.82677 0.23258 -0.05200
H 	H 	0.05403 0.62124 0.21210 0.07200
O 	O 	0.02255 0.98969 0.01597 -0.34800
O 	O 	0.99581 0.93858 0.22753 -0.38100
C 	C 	0.05169 0.00032 0.49338 0.24000
O 	O 	0.03812 0.02499 0.50808 -0.37500
O 	O 	0.01888 0.07148 0.71003 -0.36900
O 	O 	0.01882 0.98155 0.71912 -0.33800
C 	C 	0.03035 0.00172 0.78005 -0.00600
C 	C 	0.04567 0.02194 0.39035 0.06600
C 	C 	0.08627 0.03562 0.36783 -0.12100
C 	C 	0.05720 0.98353 0.35004 0.06100
N 	N 	0.07590 0.04959 0.42298 -0.14800
C 	C 	0.00410 0.94034 0.29458 0.02200
C 	C 	0.06642 0.99651 0.31193 -0.01400
H 	H 	0.13855 0.08492 0.36430 0.06500
H 	H 	0.09980 0.04824 0.29331 0.03200
H 	H 	0.13162 0.08426 0.43379 0.09000
C 	C 	0.19127 0.39955 0.70105 0.02200
C 	C 	0.19809 0.64434 0.73331 -0.08500
C 	C 	0.15385 0.36350 0.20051 0.02300
C 	C 	0.13906 0.38830 0.15738 0.11700
O 	O 	0.15081 0.45192 0.14466 -0.19600
C 	C 	0.16173 0.61712 0.21961 -0.08500
H 	H 	0.11385 0.58129 0.20037 0.06800
C 	C 	0.19922 0.76965 0.24460 0.01300
C 	C 	0.01686 0.94629 0.00452 0.25400
C 	C 	0.20510 0.35066 0.71521 -0.09000
H 	H 	0.30583 0.02060 0.59992 0.04600
C 	C 	0.21396 0.80158 0.73544 0.01500
H 	H 	0.18879 0.30172 0.25347 0.06900
H 	H 	0.24970 0.87952 0.22520 0.06900
N 	N 	0.20456 0.56074 0.19815 -0.12400
N 	N 	0.24445 0.59209 0.71054 -0.12400
C 	C 	0.21974 0.49922 0.69441 0.10200
C 	C 	0.21576 0.44106 0.72362 -0.08500
H 	H 	0.21292 0.32474 0.74836 0.06900
H 	H 	0.24083 0.90376 0.70023 0.06400
C 	C 	0.17566 0.46375 0.18435 0.10200
C 	C 	0.17668 0.41074 0.21773 -0.08400
C 	C 	0.29004 0.09587 0.59014 0.05200
H 	H 	0.21193 0.41766 0.24889 0.06600
C 	C 	0.23669 0.71001 0.24410 0.11600
C 	C 	0.23210 0.65071 0.21966 0.10100
O 	O 	0.01129 0.88953 0.03143 -0.36900
C 	C 	0.97634 0.94876 0.24861 0.27000
C 	C 	0.98996 0.92039 0.35432 0.06300
C 	C 	0.95002 0.90645 0.37749 -0.07500
C 	C 	0.97825 0.95918 0.39427 0.03000
C 	C 	0.96688 0.94776 0.43112 -0.02100
N 	N 	0.95835 0.89413 0.32083 -0.15300
H 	H 	0.89779 0.85713 0.38113 0.05700
H 	H 	0.93256 0.89667 0.44982 0.04600
H 	H 	0.90242 0.85919 0.31075 0.09500
C 	C 	0.69508 0.29819 0.00596 0.09800
N 	N 	0.73701 0.36667 0.00467 -0.11000
C 	C 	0.70796 0.39487 0.00241 0.09900
N 	N 	0.63658 0.35437 0.00122 -0.12000
C 	C 	0.59482 0.28557 0.00353 0.09900
N 	N 	0.62403 0.25754 0.00572 -0.13100
C 	C 	0.71642 0.32811 0.49762 0.09800
N 	N 	0.64466 0.28856 0.49520 -0.12100
C 	C 	0.61658 0.31490 0.49652 0.09800
N 	N 	0.66044 0.38131 0.49998 -0.12500
C 	C 	0.73227 0.42085 0.50280 0.10000
N 	N 	0.76030 0.39418 0.50174 -0.11500
C 	C 	0.25385 0.62388 0.20766 0.10100
N 	N 	0.32469 0.66009 0.20931 -0.11700
C 	C 	0.34627 0.63386 0.20109 0.10100
N 	N 	0.29677 0.57179 0.19072 -0.11300
C 	C 	0.22613 0.53497 0.18942 0.10200
C 	C 	0.29103 0.65632 0.71832 0.10100
C 	C 	0.26980 0.56616 0.70557 0.10100
N 	N 	0.34134 0.60423 0.70841 -0.11400
C 	C 	0.38764 0.66852 0.71552 0.10100
N 	N 	0.36245 0.69459 0.72038 -0.11700
Co	Co	0.93140 0.91336 0.16964 1.18900
Co	Co	0.98871 0.86378 0.14210 1.18300
Co	Co	0.92916 0.03041 0.17069 1.14600
C 	C 	0.94089 0.75308 0.10968 0.26100
O 	O 	0.93220 0.10635 0.11526 -0.40400
O 	O 	0.95052 0.99283 0.14581 -0.73800
C 	C 	0.90657 0.09652 0.07732 0.27100
O 	O 	0.93148 0.83323 0.18008 -0.46000
C 	C 	0.79511 0.88889 0.16593 0.26000
O 	O 	0.96613 0.94398 0.11265 -0.57200
O 	O 	0.92533 0.07133 0.06721 -0.38900
O 	O 	0.82272 0.95535 0.14875 -0.34600
O 	O 	0.82351 0.86118 0.16798 -0.36400
O 	O 	0.92704 0.96039 0.22943 -0.37900
O 	O 	0.00991 0.78552 0.11405 -0.37700
O 	O 	0.91912 0.77861 0.11684 -0.36600
Co	Co	0.95884 0.95557 0.66052 1.19400
Co	Co	0.00281 0.89558 0.63022 1.19500
Co	Co	0.94749 0.07344 0.65219 1.15500
C 	C 	0.92024 0.79570 0.57371 0.26300
O 	O 	0.88168 0.07269 0.59212 -0.37900
O 	O 	0.97319 0.03297 0.63316 -0.79300
C 	C 	0.90838 0.11463 0.55816 0.26100
O 	O 	0.95858 0.87428 0.67268 -0.46300
C 	C 	0.82283 0.92314 0.66005 0.27600
O 	O 	0.99095 0.98257 0.60334 -0.56500
O 	O 	0.96139 0.12325 0.55285 -0.37700
O 	O 	0.86539 0.97519 0.67771 -0.36800
O 	O 	0.84959 0.90198 0.65335 -0.37100
O 	O 	0.96920 0.84248 0.55065 -0.38200
O 	O 	0.92770 0.80480 0.60859 -0.35900
C 	C 	0.00818 0.93588 0.91051 0.14900
C 	C 	0.97339 0.90616 0.87631 -0.11800
C 	C 	0.98763 0.95161 0.83668 0.06000
C 	C 	0.98476 0.93728 0.80448 -0.03600
N 	N 	0.97902 0.90621 0.94324 -0.17500
C 	C 	0.00920 0.95806 0.95969 0.06000
H 	H 	0.93552 0.85035 0.88018 0.07000
H 	H 	0.94110 0.88991 0.79366 0.05100
H 	H 	0.94951 0.85307 0.95772 0.10000
C 	C 	0.02811 0.00486 0.44790 -0.01300
H 	H 	0.24831 0.44055 0.75573 0.06500
C 	C 	0.55916 0.73692 0.71241 0.11600
C 	C 	0.59859 0.73391 0.69896 -0.08200
C 	C 	0.64159 0.79272 0.67068 0.01100
C 	C 	0.64870 0.85349 0.65818 0.12500
C 	C 	0.60914 0.85637 0.67161 -0.09000
C 	C 	0.56688 0.79790 0.70025 0.02700
O 	O 	0.49520 0.67792 0.72479 -0.19700
C 	C 	0.46491 0.70935 0.71829 0.10400
C 	C 	0.50719 0.78076 0.70370 -0.08400
O 	O 	0.71291 0.91266 0.64626 -0.18000
C 	C 	0.74454 0.88191 0.65385 0.04600
C 	C 	0.70234 0.81042 0.66822 -0.05000
H 	H 	0.59394 0.68663 0.70900 0.07100
H 	H 	0.61382 0.90366 0.66161 0.07900
H 	H 	0.48656 0.81171 0.68577 0.07300
H 	H 	0.72340 0.77986 0.68695 0.05900
C 	C 	0.26459 0.74960 0.74077 0.11700
C 	C 	0.27285 0.80956 0.73486 -0.08300
O 	O 	0.31065 0.75231 0.72983 -0.19600
C 	C 	0.26502 0.68437 0.72529 0.10200
H 	H 	0.32174 0.86072 0.72756 0.07600
C 	C 	0.65745 0.81141 0.21281 0.12300
C 	C 	0.60519 0.80836 0.21766 -0.09000
C 	C 	0.53984 0.74302 0.22485 0.02600
C 	C 	0.52205 0.68510 0.22034 0.11500
C 	C 	0.57236 0.68943 0.21212 -0.08100
C 	C 	0.64210 0.75213 0.21216 0.00900
O 	O 	0.71393 0.87281 0.19430 -0.18700
C 	C 	0.73043 0.84473 0.18209 0.04900
C 	C 	0.68840 0.77310 0.19270 -0.05400
O 	O 	0.44811 0.63448 0.20994 -0.19700
C 	C 	0.42355 0.66808 0.20817 0.10400
C 	C 	0.47753 0.73250 0.21705 -0.08500
H 	H 	0.61352 0.85550 0.21346 0.07700
H 	H 	0.55652 0.64701 0.20371 0.07200
H 	H 	0.68090 0.74176 0.17818 0.06300
H 	H 	0.47133 0.77288 0.20776 0.07300
C 	C 	0.25502 0.77021 0.24693 -0.08300
O 	O 	0.28301 0.71054 0.23509 -0.19700
H 	H 	0.31004 0.81697 0.24851 0.07600
C 	C 	0.82293 0.27994 0.51258 0.11300
C 	C 	0.88035 0.29027 0.50821 -0.08600
C 	C 	0.86692 0.23510 0.50174 0.00900
C 	C 	0.79952 0.17176 0.50066 0.11800
C 	C 	0.74162 0.16295 0.50320 -0.09300
C 	C 	0.75621 0.21693 0.51153 0.02100
O 	O 	0.82200 0.33439 0.50571 -0.19900
C 	C 	0.74750 0.29746 0.49959 0.10100
C 	C 	0.70803 0.22749 0.50302 -0.08700
O 	O 	0.80170 0.11587 0.51373 -0.19100
C 	C 	0.87652 0.15068 0.52466 0.04200
C 	C 	0.91563 0.22188 0.51670 -0.05800
H 	H 	0.93362 0.33925 0.51000 0.06700
H 	H 	0.68848 0.11376 0.50210 0.06700
H 	H 	0.65023 0.19323 0.49105 0.06600
H 	H 	0.97107 0.25470 0.53319 0.05100
C 	C 	0.81868 0.62576 0.56770 0.11900
C 	C 	0.82545 0.57226 0.58080 -0.09000
C 	C 	0.82511 0.55596 0.55023 0.02200
C 	C 	0.81115 0.58602 0.50790 0.11600
C 	C 	0.80318 0.63869 0.49457 -0.08600
C 	C 	0.80602 0.65697 0.52524 0.01100
O 	O 	0.85096 0.66726 0.59411 -0.18400
C 	C 	0.86066 0.72774 0.56369 0.04700
C 	C 	0.83255 0.72143 0.52261 -0.05700
O 	O 	0.78260 0.54586 0.48160 -0.20100
C 	C 	0.78043 0.48856 0.51238 0.10300
C 	C 	0.80544 0.49407 0.55334 -0.08600
H 	H 	0.83507 0.54721 0.61398 0.07100
H 	H 	0.79396 0.66388 0.46137 0.06800
H 	H 	0.85063 0.76486 0.49548 0.05700
H 	H 	0.78931 0.45013 0.58048 0.06300
C 	C 	0.45125 0.18198 0.52723 0.11300
C 	C 	0.41796 0.12597 0.55989 -0.08800
C 	C 	0.38487 0.12950 0.57825 0.01000
C 	C 	0.37965 0.18372 0.56266 0.11800
C 	C 	0.41438 0.24064 0.53060 -0.09200
C 	C 	0.44839 0.23750 0.51261 0.02200
O 	O 	0.50832 0.19767 0.51916 -0.20500
C 	C 	0.54139 0.26857 0.50010 0.10000
C 	C 	0.50589 0.29279 0.49585 -0.08700
O 	O 	0.32038 0.16611 0.56957 -0.19100
C 	C 	0.32859 0.07400 0.59573 -0.06600
H 	H 	0.41994 0.08215 0.57159 0.06200
H 	H 	0.41239 0.28445 0.51890 0.07100
H 	H 	0.53099 0.34641 0.49292 0.06800
C 	C 	0.78735 0.14194 0.02056 0.11900
C 	C 	0.72942 0.13208 0.02404 -0.09400
C 	C 	0.74216 0.18816 0.02847 0.02100
C 	C 	0.80670 0.25310 0.02531 0.11400
C 	C 	0.86383 0.26396 0.02021 -0.08500
C 	C 	0.85235 0.20733 0.01723 0.00700
O 	O 	0.79375 0.08804 0.03636 -0.19600
C 	C 	0.86872 0.12676 0.04391 0.03800
C 	C 	0.90376 0.19778 0.03195 -0.05400
O 	O 	0.80231 0.30676 0.01482 -0.19700
C 	C 	0.72818 0.26728 0.01123 0.10000
C 	C 	0.69192 0.19653 0.01940 -0.08800
H 	H 	0.67805 0.08128 0.02630 0.06500
H 	H 	0.91540 0.31467 0.01858 0.06800
H 	H 	0.95996 0.23474 0.04543 0.04900
H 	H 	0.63406 0.15913 0.00970 0.06100
C 	C 	0.81019 0.60574 0.06854 0.11900
C 	C 	0.76617 0.58225 0.03138 -0.08900
C 	C 	0.78043 0.55186 0.01925 0.01700
C 	C 	0.83354 0.54162 0.04401 0.11600
C 	C 	0.87639 0.56372 0.08159 -0.08600
C 	C 	0.86164 0.59333 0.09402 0.01100
O 	O 	0.82380 0.66117 0.07396 -0.18700
C 	C 	0.88925 0.68191 0.10425 0.04800
C 	C 	0.91144 0.64109 0.11676 -0.05700
O 	O 	0.82239 0.48833 0.03775 -0.19800
C 	C 	0.75582 0.46529 0.00848 0.09900
C 	C 	0.73067 0.50327 0.99695 -0.07800
H 	H 	0.72432 0.59005 0.01169 0.07100
H 	H 	0.91830 0.55599 0.10124 0.06700
H 	H 	0.96695 0.65795 0.13051 0.05900
H 	H 	0.67436 0.48396 0.98453 0.06900
C 	C 	0.43030 0.21452 0.01812 0.11100
C 	C 	0.39251 0.22436 0.02771 -0.08500
C 	C 	0.36393 0.17969 0.06378 0.01000
C 	C 	0.37090 0.12615 0.08872 0.12000
C 	C 	0.40995 0.11740 0.07939 -0.09500
C 	C 	0.43565 0.16012 0.04241 0.02000
O 	O 	0.48271 0.26801 0.99486 -0.19700
C 	C 	0.52048 0.24060 0.00797 0.09500
C 	C 	0.49273 0.17630 0.03627 -0.08700
O 	O 	0.31608 0.07056 0.10994 -0.20300
C 	C 	0.27295 0.09336 0.09345 0.05000
C 	C 	0.30213 0.15918 0.06681 -0.05900
H 	H 	0.38645 0.26597 0.00811 0.06800
H 	H 	0.41591 0.07570 0.09883 0.06300
H 	H 	0.52386 0.15613 0.05884 0.06000
H 	H 	0.27027 0.17772 0.04236 0.05200
