data_crystal

_cell_length_a 13.51954
_cell_length_b 13.68210
_cell_length_c 35.49191
_cell_angle_alpha 89.99896
_cell_angle_beta  90.00237
_cell_angle_gamma 119.37807

_symmetry_space_group_name_	'P 1'
_symmetry_space_group_name_H-M	'P 1'

loop_
_symmetry_equiv_pos_as_xyz
  x,y,z

loop_
_atom_site_label
_atom_site_type_symbol
_atom_site_fract_x
_atom_site_fract_y
_atom_site_fract_z
_atom_site_charge
C 	C 	0.41821 0.12866 0.87588 0.31900
C 	C 	0.80223 0.58553 0.88320 0.34900
C 	C 	0.71126 0.22160 0.83670 0.33900
C 	C 	0.50907 0.43891 0.92906 0.28000
C 	C 	0.87490 0.35306 0.94446 0.30600
C 	C 	0.60404 0.21878 0.99603 0.29000
Ni	Ni	0.60900 0.36409 0.86538 1.11600
Ni	Ni	0.71595 0.43143 0.94869 1.12500
Ni	Ni	0.64455 0.18689 0.91666 1.12000
O 	O 	0.44804 0.23009 0.86305 -0.37100
O 	O 	0.49612 0.09756 0.88488 -0.37600
O 	O 	0.85208 0.42731 0.93043 -0.38300
O 	O 	0.77194 0.49705 0.86219 -0.37600
O 	O 	0.76710 0.57367 0.91808 -0.38100
O 	O 	0.56240 0.15113 0.96639 -0.37800
O 	O 	0.65293 0.27245 0.82779 -0.36500
O 	O 	0.74579 0.22409 0.87119 -0.38100
O 	O 	0.68706 0.32433 0.99255 -0.38000
O 	O 	0.54843 0.46003 0.89374 -0.35900
O 	O 	0.57377 0.44008 0.95744 -0.36700
O 	O 	0.79361 0.24685 0.94611 -0.36200
O 	O 	0.62815 0.31613 0.91300 -0.71500
H 	H 	0.55116 0.28251 0.92366 0.16000
C 	C 	0.72981 0.14313 0.64618 0.30800
C 	C 	0.82265 0.60688 0.62689 0.35900
C 	C 	0.51965 0.26389 0.67899 0.33500
C 	C 	0.93290 0.41467 0.58921 0.27900
C 	C 	0.48874 0.35736 0.58366 0.29400
C 	C 	0.61364 0.21760 0.52468 0.29900
Ni	Ni	0.76628 0.37839 0.65516 1.11500
Ni	Ni	0.72486 0.42735 0.56986 1.12400
Ni	Ni	0.55454 0.18285 0.60595 1.12000
O 	O 	0.75223 0.22522 0.67023 -0.36400
O 	O 	0.63466 0.09762 0.62552 -0.36300
O 	O 	0.59321 0.43508 0.59141 -0.38700
O 	O 	0.77864 0.53588 0.65460 -0.37000
O 	O 	0.83742 0.57262 0.59443 -0.39600
O 	O 	0.58127 0.14586 0.55299 -0.38200
O 	O 	0.62333 0.34109 0.68788 -0.35900
O 	O 	0.50380 0.17591 0.65972 -0.38500
O 	O 	0.62767 0.31859 0.52952 -0.39600
O 	O 	0.92087 0.43990 0.62500 -0.35200
O 	O 	0.86528 0.41319 0.56116 -0.36100
O 	O 	0.45517 0.24829 0.58773 -0.37600
O 	O 	0.69408 0.32001 0.60886 -0.71300
H 	H 	0.73552 0.28306 0.59967 0.14500
C 	C 	0.94269 0.79397 0.69713 0.31700
C 	C 	0.17814 0.07312 0.82799 0.33200
C 	C 	0.86592 0.76554 0.80380 0.34100
C 	C 	0.24699 0.11283 0.72061 0.31500
C 	C 	0.84193 0.06449 0.79895 0.31900
C 	C 	0.92962 0.11500 0.69773 0.33300
Ni	Ni	0.08657 0.90955 0.76498 1.11400
Ni	Ni	0.07257 0.14069 0.76557 1.11500
Ni	Ni	0.85012 0.90794 0.74507 1.12800
O 	O 	0.98623 0.77930 0.72855 -0.36200
O 	O 	0.87262 0.83657 0.69777 -0.36200
O 	O 	0.93557 0.15005 0.78537 -0.36300
O 	O 	0.20561 0.02260 0.80217 -0.37500
O 	O 	0.10897 0.11325 0.81973 -0.38100
O 	O 	0.84315 0.03216 0.71599 -0.38700
O 	O 	0.97604 0.82675 0.80931 -0.36100
O 	O 	0.82192 0.76532 0.77097 -0.38200
O 	O 	0.03196 0.17434 0.71378 -0.39600
O 	O 	0.20394 0.00258 0.72369 -0.37800
O 	O 	0.23041 0.17194 0.74735 -0.37100
O 	O 	0.82205 0.96112 0.79449 -0.38100
O 	O 	0.01016 0.98807 0.75087 -0.71800
H 	H 	0.02924 0.99961 0.72391 0.14900
C 	C 	0.14304 0.76405 0.38823 0.31900
C 	C 	0.42413 0.61954 0.47697 0.30500
C 	C 	0.46451 0.93313 0.40928 0.32700
C 	C 	0.16235 0.49524 0.46922 0.28600
C 	C 	0.51206 0.68711 0.35012 0.34300
C 	C 	0.21030 0.49614 0.33088 0.31700
Ni	Ni	0.29220 0.72964 0.44674 1.11300
Ni	Ni	0.32806 0.53738 0.40373 1.12700
Ni	Ni	0.33410 0.74233 0.35703 1.12000
O 	O 	0.20612 0.80293 0.41929 -0.37300
O 	O 	0.18235 0.73780 0.35780 -0.37400
O 	O 	0.45142 0.58417 0.36354 -0.37500
O 	O 	0.37770 0.68139 0.48537 -0.36900
O 	O 	0.45152 0.61416 0.44217 -0.37400
O 	O 	0.27885 0.60455 0.32220 -0.38600
O 	O 	0.45024 0.85990 0.43486 -0.37300
O 	O 	0.40021 0.90166 0.37892 -0.36500
O 	O 	0.21018 0.45488 0.36467 -0.37600
O 	O 	0.14936 0.58071 0.45914 -0.38000
O 	O 	0.20959 0.45279 0.44588 -0.35600
O 	O 	0.49038 0.76590 0.36046 -0.39300
O 	O 	0.28976 0.65463 0.40201 -0.71000
H 	H 	0.20763 0.60906 0.39712 0.16200
C 	C 	0.63066 0.80067 0.12432 0.32100
C 	C 	0.18419 0.65785 0.04788 0.30000
C 	C 	0.46802 0.95464 0.11960 0.32800
C 	C 	0.33554 0.54385 0.04004 0.28400
C 	C 	0.18488 0.68563 0.17576 0.34500
C 	C 	0.29819 0.49469 0.18046 0.32500
Ni	Ni	0.43000 0.76857 0.07218 1.11700
Ni	Ni	0.21712 0.55639 0.11330 1.12300
Ni	Ni	0.41715 0.74857 0.16257 1.12200
O 	O 	0.59579 0.83962 0.09551 -0.36800
O 	O 	0.56311 0.74731 0.15325 -0.37700
O 	O 	0.14624 0.58599 0.15983 -0.38000
O 	O 	0.28895 0.72416 0.03703 -0.35700
O 	O 	0.16344 0.64596 0.08372 -0.37800
O 	O 	0.34475 0.60083 0.19312 -0.38400
O 	O 	0.39482 0.88430 0.09615 -0.36900
O 	O 	0.50486 0.91494 0.14665 -0.36700
O 	O 	0.26610 0.46797 0.14505 -0.38600
O 	O 	0.43199 0.63129 0.05015 -0.37000
O 	O 	0.24836 0.49174 0.06428 -0.36300
O 	O 	0.28246 0.76882 0.16586 -0.39400
O 	O 	0.37022 0.67572 0.11477 -0.71000
H 	H 	0.41042 0.63198 0.11448 0.17300
C 	C 	0.16254 0.20607 0.20943 0.32200
C 	C 	0.72730 0.87131 0.28604 0.34100
C 	C 	0.04623 0.21718 0.29751 0.33300
C 	C 	0.82232 0.84821 0.19015 0.31800
C 	C 	0.04660 0.90800 0.33757 0.34700
C 	C 	0.12605 0.85066 0.24155 0.32300
Ni	Ni	0.91227 0.05584 0.23840 1.10600
Ni	Ni	0.91083 0.82904 0.26698 1.12600
Ni	Ni	0.13675 0.06363 0.27443 1.11400
O 	O 	0.05899 0.19476 0.21468 -0.37100
O 	O 	0.19024 0.13273 0.22311 -0.39000
O 	O 	0.99581 0.82429 0.31352 -0.36500
O 	O 	0.74896 0.94222 0.25799 -0.36600
O 	O 	0.80837 0.85759 0.30058 -0.38000
O 	O 	0.17820 0.93952 0.26469 -0.37400
O 	O 	0.94529 0.13405 0.29019 -0.38200
O 	O 	0.13733 0.21119 0.28757 -0.37200
O 	O 	0.01483 0.79783 0.23622 -0.39500
O 	O 	0.86186 0.95872 0.18955 -0.35200
O 	O 	0.80072 0.79215 0.22261 -0.37600
O 	O 	0.08098 0.01148 0.32687 -0.40400
O 	O 	0.99279 0.98106 0.25107 -0.69000
H 	H 	0.01617 0.97078 0.22575 0.15300
C 	C 	0.24308 0.29731 0.19195 -0.10800
C 	C 	0.27270 0.41154 0.20516 -0.11600
H 	H 	0.30811 0.28964 0.17640 0.08900
H 	H 	0.28792 0.43070 0.23497 0.08400
C 	C 	0.78225 0.78889 0.15830 -0.10100
C 	C 	0.74099 0.83087 0.12688 -0.10800
H 	H 	0.75635 0.70010 0.15864 0.08400
H 	H 	0.80021 0.88377 0.10536 0.09100
C 	C 	0.12965 0.69937 0.20469 -0.12500
C 	C 	0.18544 0.80452 0.22764 -0.10400
H 	H 	0.04639 0.63179 0.21270 0.08900
H 	H 	0.27643 0.84506 0.23267 0.07500
C 	C 	0.62013 0.80618 0.29725 -0.11600
C 	C 	0.58762 0.70851 0.32267 -0.11800
H 	H 	0.55397 0.82162 0.28622 0.07200
H 	H 	0.61382 0.64717 0.31578 0.08200
C 	C 	0.15128 0.42390 0.30338 -0.10500
C 	C 	0.05563 0.31116 0.31275 -0.12700
H 	H 	0.16046 0.45364 0.27455 0.07800
H 	H 	0.98184 0.30719 0.32646 0.09400
C 	C 	0.05274 0.77828 0.38447 -0.11300
C 	C 	0.06985 0.88909 0.37266 -0.11800
H 	H 	0.97948 0.72786 0.40209 0.08800
H 	H 	0.10787 0.95824 0.39254 0.09900
C 	C 	0.59976 0.17418 0.48574 -0.06400
C 	C 	0.51864 0.17784 0.46178 -0.01200
C 	C 	0.48963 0.11793 0.42768 0.00700
C 	C 	0.53954 0.05194 0.41844 -0.08700
C 	C 	0.64206 0.07743 0.43637 0.00200
C 	C 	0.66530 0.12725 0.47219 0.00200
H 	H 	0.47504 0.22269 0.47032 0.04900
H 	H 	0.68971 0.03763 0.42652 0.05000
C 	C 	0.74465 0.11598 0.49649 0.08900
C 	C 	0.40469 0.11949 0.40352 0.08500
N 	N 	0.80720 0.10557 0.51608 -0.11200
N 	N 	0.33685 0.12109 0.38405 -0.11200
C 	C 	0.03854 0.41798 0.57844 -0.06600
C 	C 	0.03034 0.32894 0.55649 -0.02800
C 	C 	0.08452 0.35221 0.52123 0.01400
C 	C 	0.14871 0.46478 0.50954 -0.06700
C 	C 	0.17923 0.55036 0.53664 -0.00600
C 	C 	0.13244 0.52368 0.57259 0.00400
H 	H 	0.97104 0.24328 0.56442 0.05700
H 	H 	0.22843 0.63757 0.52870 0.03400
C 	C 	0.16525 0.61074 0.60056 0.08600
C 	C 	0.07252 0.26167 0.49737 0.08600
N 	N 	0.19162 0.68056 0.62298 -0.11200
N 	N 	0.06316 0.18914 0.47822 -0.10700
C 	C 	0.42416 0.54015 0.50567 -0.07300
C 	C 	0.42805 0.56757 0.54402 -0.00600
C 	C 	0.41941 0.49132 0.57185 0.00500
C 	C 	0.41941 0.39205 0.56158 -0.06700
C 	C 	0.39581 0.35612 0.52414 -0.01200
C 	C 	0.40411 0.43111 0.49577 0.01000
H 	H 	0.43677 0.64784 0.55218 0.05200
H 	H 	0.38404 0.27435 0.51658 0.04900
C 	C 	0.39555 0.39623 0.45693 0.06300
C 	C 	0.41829 0.51868 0.61108 0.08700
N 	N 	0.38869 0.36784 0.42587 -0.12900
N 	N 	0.41733 0.54054 0.64252 -0.10700
C 	C 	0.90921 0.15104 0.66495 -0.12000
C 	C 	0.79456 0.09375 0.64701 -0.10600
H 	H 	0.97681 0.22487 0.65139 0.08400
H 	H 	0.76878 0.01693 0.63124 0.08000
C 	C 	0.43120 0.26041 0.69751 -0.11400
C 	C 	0.31490 0.16516 0.69147 -0.10900
H 	H 	0.44514 0.32545 0.71780 0.09200
H 	H 	0.29768 0.11937 0.66504 0.07900
C 	C 	0.87922 0.71629 0.63430 -0.12300
C 	C 	0.96169 0.75520 0.66520 -0.08900
H 	H 	0.89372 0.77488 0.61153 0.08900
H 	H 	0.02725 0.73101 0.66475 0.06900
C 	C 	0.97268 0.39538 0.97009 -0.05700
C 	C 	0.95047 0.37918 0.00877 0.00500
C 	C 	0.01135 0.46686 0.03427 -0.02400
C 	C 	0.10419 0.56955 0.02125 -0.06800
C 	C 	0.13183 0.58014 0.98275 -0.00900
C 	C 	0.07429 0.48907 0.95835 -0.00600
H 	H 	0.87582 0.30475 0.01844 0.05300
H 	H 	0.19919 0.65867 0.97189 0.05400
C 	C 	0.11293 0.49717 0.91997 0.08800
C 	C 	0.97118 0.45320 0.07267 0.07900
N 	N 	0.14401 0.50365 0.88921 -0.11000
N 	N 	0.93832 0.44156 0.10336 -0.11600
C 	C 	0.58300 0.16834 0.03392 -0.05800
C 	C 	0.50783 0.17980 0.05845 -0.01300
C 	C 	0.48665 0.13053 0.09445 0.01500
C 	C 	0.54030 0.06884 0.10541 -0.09100
C 	C 	0.63701 0.08718 0.08537 -0.01100
C 	C 	0.64830 0.12102 0.04765 -0.00100
H 	H 	0.46279 0.22273 0.04909 0.04800
H 	H 	0.68986 0.05454 0.09633 0.04900
C 	C 	0.71241 0.09088 0.02225 0.07300
C 	C 	0.39822 0.12921 0.11754 0.07900
N 	N 	0.76354 0.06602 0.00203 -0.11000
N 	N 	0.32696 0.12756 0.13605 -0.10900
C 	C 	0.32545 0.50243 0.00105 -0.05900
C 	C 	0.28790 0.38832 0.99498 -0.00900
C 	C 	0.32767 0.35569 0.96357 0.00500
C 	C 	0.40373 0.43854 0.93846 -0.06100
C 	C 	0.40691 0.54171 0.93802 -0.00600
C 	C 	0.37882 0.57899 0.97079 0.00600
H 	H 	0.23963 0.32745 0.01663 0.05100
H 	H 	0.45295 0.60112 0.91573 0.05200
C 	C 	0.41937 0.69774 0.97496 0.07500
C 	C 	0.30727 0.24198 0.96108 0.07300
N 	N 	0.45307 0.79319 0.97786 -0.11900
N 	N 	0.29117 0.15088 0.95931 -0.11400
C 	C 	0.74642 0.17731 0.80953 -0.11500
C 	C 	0.76719 0.08246 0.81847 -0.10500
H 	H 	0.73990 0.19619 0.78018 0.09300
H 	H 	0.70614 0.01576 0.83646 0.07300
C 	C 	0.22050 0.08425 0.86312 -0.11200
C 	C 	0.30809 0.05039 0.87265 -0.11500
H 	H 	0.19725 0.12614 0.88449 0.08600
H 	H 	0.28120 0.96302 0.87860 0.09200
C 	C 	0.84347 0.68543 0.86692 -0.11700
C 	C 	0.79995 0.69259 0.82968 -0.11300
H 	H 	0.88446 0.76065 0.88417 0.09600
H 	H 	0.71103 0.63597 0.82315 0.07500
