data_crystal

_cell_length_a 26.83629
_cell_length_b 26.62204
_cell_length_c 40.25576
_cell_angle_alpha 95.51173
_cell_angle_beta  95.51312
_cell_angle_gamma 125.66092

_symmetry_space_group_name_	'P 1'
_symmetry_space_group_name_H-M	'P 1'

loop_
_symmetry_equiv_pos_as_xyz
  x,y,z

loop_
_atom_site_label
_atom_site_type_symbol
_atom_site_fract_x
_atom_site_fract_y
_atom_site_fract_z
_atom_site_charge
C 	C 	0.95576 0.00539 0.99455 0.12200
N 	N 	0.91947 0.94189 0.99208 -0.14400
C 	C 	0.94547 0.91084 0.99127 0.12800
N 	N 	0.00803 0.94341 0.99230 -0.13800
C 	C 	0.04438 0.00702 0.99468 0.13000
N 	N 	0.01822 0.03783 0.99638 -0.14200
C 	C 	0.96195 0.03309 0.48277 0.12400
N 	N 	0.02295 0.06543 0.47980 -0.14100
C 	C 	0.04960 0.03507 0.47711 0.13100
N 	N 	0.01506 0.97241 0.47716 -0.13900
C 	C 	0.95439 0.94021 0.48063 0.13000
N 	N 	0.92791 0.97059 0.48331 -0.14400
Cu	Cu	0.62066 0.21669 0.99995 0.92900
Cu	Cu	0.66277 0.20486 0.92734 0.86600
Cu	Cu	0.64735 0.30385 0.94915 0.89500
Cu	Cu	0.62340 0.33631 0.01620 0.89200
C 	C 	0.64729 0.27780 0.06903 0.28900
O 	O 	0.53136 0.18264 0.00144 -0.37100
C 	C 	0.62969 0.25414 0.87681 0.28300
O 	O 	0.66994 0.31242 0.99715 -0.64100
O 	O 	0.60680 0.21298 0.95023 -0.64100
O 	O 	0.65575 0.16835 0.00086 -0.38000
O 	O 	0.72172 0.22363 0.96565 -0.44800
O 	O 	0.61767 0.30091 0.05844 -0.38500
O 	O 	0.69291 0.39346 0.95039 -0.38900
C 	C 	0.69914 0.43391 0.97531 0.30700
C 	C 	0.50461 0.20461 0.98586 0.30300
O 	O 	0.53866 0.26247 0.98004 -0.39200
O 	O 	0.66016 0.41494 0.99697 -0.39600
O 	O 	0.64725 0.23609 0.04833 -0.36200
C 	C 	0.70475 0.18528 0.98738 0.31300
O 	O 	0.62926 0.29334 0.89947 -0.38100
O 	O 	0.62367 0.20419 0.88482 -0.42000
H 	H 	0.71544 0.34062 0.00622 0.16000
H 	H 	0.56277 0.18468 0.93820 0.17300
Cu	Cu	0.73671 0.35777 0.45521 0.92900
Cu	Cu	0.74507 0.30906 0.52584 0.86600
Cu	Cu	0.64548 0.32214 0.50367 0.89500
Cu	Cu	0.61282 0.34447 0.43669 0.89400
C 	C 	0.68383 0.33827 0.38549 0.29100
O 	O 	0.76310 0.44627 0.45569 -0.37000
C 	C 	0.69045 0.33530 0.57606 0.28400
O 	O 	0.64054 0.30089 0.45583 -0.64000
O 	O 	0.73657 0.36659 0.50451 -0.64200
O 	O 	0.79062 0.32914 0.45474 -0.37800
O 	O 	0.73394 0.25582 0.48649 -0.44700
O 	O 	0.65519 0.36167 0.39654 -0.38700
O 	O 	0.55608 0.27384 0.50094 -0.39400
C 	C 	0.51822 0.27939 0.48095 0.31300
C 	C 	0.73576 0.46713 0.47126 0.30200
O 	O 	0.67827 0.42724 0.47589 -0.40300
O 	O 	0.53032 0.29723 0.45134 -0.39900
O 	O 	0.72182 0.33473 0.40680 -0.36400
C 	C 	0.77524 0.27858 0.46654 0.31200
O 	O 	0.65274 0.33697 0.55321 -0.38100
O 	O 	0.74102 0.34264 0.56887 -0.42200
H 	H 	0.61519 0.25522 0.44654 0.16500
H 	H 	0.76297 0.41022 0.51762 0.17300
C 	C 	0.62838 0.26164 0.84082 -0.09000
C 	C 	0.61640 0.30273 0.82958 0.01600
C 	C 	0.62047 0.31365 0.79629 -0.07000
C 	C 	0.63634 0.28359 0.77396 0.03800
C 	C 	0.64667 0.24141 0.78475 -0.07200
C 	C 	0.64277 0.23045 0.81800 0.01300
C 	C 	0.64464 0.29790 0.74042 -0.02300
C 	C 	0.65194 0.30893 0.71221 -0.02300
C 	C 	0.66177 0.32148 0.67851 0.03800
C 	C 	0.72254 0.35769 0.67183 -0.07200
C 	C 	0.73214 0.36438 0.63852 0.01500
C 	C 	0.68086 0.33470 0.61157 -0.09000
C 	C 	0.62005 0.30052 0.61853 0.01300
C 	C 	0.61059 0.29383 0.65189 -0.07000
H 	H 	0.60454 0.32665 0.84666 0.03900
H 	H 	0.61207 0.34609 0.78803 0.04900
H 	H 	0.65879 0.21787 0.76757 0.04500
H 	H 	0.65236 0.19884 0.82620 0.02300
H 	H 	0.76235 0.37956 0.69234 0.04600
H 	H 	0.77934 0.39184 0.63364 0.03000
H 	H 	0.58008 0.27745 0.59802 0.03300
H 	H 	0.56346 0.26593 0.65689 0.04800
C 	C 	0.66601 0.28608 0.10591 -0.08700
C 	C 	0.69367 0.34468 0.12681 0.01600
C 	C 	0.70284 0.35064 0.16214 -0.07000
C 	C 	0.68440 0.29810 0.17689 0.04000
C 	C 	0.65972 0.24024 0.15617 -0.07000
C 	C 	0.65067 0.23421 0.12077 0.01900
C 	C 	0.68531 0.30232 0.21291 -0.02200
C 	C 	0.68677 0.30774 0.24314 -0.02200
C 	C 	0.68751 0.31606 0.27912 0.03900
C 	C 	0.69354 0.27868 0.29889 -0.07000
C 	C 	0.69255 0.28596 0.33370 0.01600
C 	C 	0.68531 0.33061 0.34887 -0.08700
C 	C 	0.67968 0.36819 0.32892 0.01700
C 	C 	0.68077 0.36088 0.29424 -0.07000
H 	H 	0.70648 0.38521 0.11565 0.02000
H 	H 	0.72245 0.39565 0.17802 0.04700
H 	H 	0.64568 0.19948 0.16740 0.04900
H 	H 	0.62942 0.18873 0.10496 0.03800
H 	H 	0.69866 0.24383 0.28733 0.04800
H 	H 	0.69677 0.25656 0.34874 0.03300
H 	H 	0.67494 0.40342 0.34032 0.03400
H 	H 	0.67621 0.39000 0.27910 0.04800
C 	C 	0.90396 0.77439 0.48405 0.02100
C 	C 	0.90215 0.74448 0.51124 -0.04800
C 	C 	0.87082 0.67929 0.50554 -0.03600
C 	C 	0.84168 0.64369 0.47251 0.00400
C 	C 	0.84364 0.67365 0.44535 -0.03700
C 	C 	0.87441 0.73865 0.45107 -0.04600
C 	C 	0.81413 0.57614 0.46570 0.00700
C 	C 	0.76744 0.53533 0.48079 -0.15100
C 	C 	0.94100 0.84362 0.48973 -0.03000
C 	C 	0.91583 0.87157 0.47858 -0.07600
H 	H 	0.92545 0.77177 0.53670 0.04000
H 	H 	0.87046 0.65670 0.52661 0.03700
H 	H 	0.82191 0.64663 0.41972 0.03800
H 	H 	0.87657 0.76145 0.42979 0.04200
H 	H 	0.82863 0.55899 0.44606 0.04000
H 	H 	0.75019 0.55212 0.49877 0.07400
H 	H 	0.98899 0.87191 0.50341 0.04200
H 	H 	0.86627 0.84343 0.46786 0.05500
C 	C 	0.91612 0.14299 0.47298 0.02100
C 	C 	0.88991 0.14839 0.44293 -0.04900
C 	C 	0.85395 0.17068 0.44422 -0.03500
C 	C 	0.84511 0.18904 0.47571 -0.00100
C 	C 	0.87283 0.18526 0.50577 -0.03700
C 	C 	0.90863 0.16289 0.50446 -0.04900
C 	C 	0.80339 0.20806 0.47739 0.00900
C 	C 	0.80966 0.25211 0.46052 -0.16200
C 	C 	0.94967 0.11460 0.47131 -0.03200
C 	C 	0.93303 0.06574 0.48670 -0.07500
H 	H 	0.89583 0.13358 0.41853 0.04000
H 	H 	0.83191 0.17235 0.42079 0.03800
H 	H 	0.86631 0.19932 0.53017 0.02900
H 	H 	0.92983 0.16021 0.52787 0.04000
H 	H 	0.77123 0.19010 0.49506 0.02300
H 	H 	0.84355 0.27177 0.44384 0.08000
H 	H 	0.98452 0.13030 0.45521 0.04100
H 	H 	0.89451 0.04688 0.50040 0.05300
C 	C 	0.22418 0.16204 0.48247 0.02200
C 	C 	0.25784 0.22201 0.47394 -0.04700
C 	C 	0.31984 0.25211 0.46996 -0.03600
C 	C 	0.34908 0.22296 0.47501 0.00300
C 	C 	0.31556 0.16317 0.48400 -0.03500
C 	C 	0.25389 0.13345 0.48834 -0.04700
C 	C 	0.41307 0.25312 0.46822 0.00900
C 	C 	0.45555 0.25272 0.48868 -0.14900
C 	C 	0.15815 0.12989 0.48585 -0.03000
C 	C 	0.11462 0.06874 0.47203 -0.07500
H 	H 	0.23567 0.24486 0.46984 0.04100
H 	H 	0.34507 0.29798 0.46279 0.03700
H 	H 	0.33692 0.13933 0.48712 0.03800
H 	H 	0.22907 0.08804 0.49603 0.04200
H 	H 	0.42597 0.27746 0.44687 0.03500
H 	H 	0.44389 0.23235 0.51141 0.07700
H 	H 	0.14487 0.15688 0.49891 0.04400
H 	H 	0.12788 0.04230 0.45832 0.05400
C 	C 	0.88487 0.74304 0.99985 0.02200
C 	C 	0.89852 0.70267 0.98643 -0.04800
C 	C 	0.85834 0.63821 0.98688 -0.03600
C 	C 	0.80406 0.61359 0.00077 0.00200
C 	C 	0.79161 0.65434 0.01522 -0.03600
C 	C 	0.83177 0.71873 0.01481 -0.04800
C 	C 	0.76181 0.54570 0.00200 0.00600
C 	C 	0.74130 0.50161 0.97420 -0.14800
C 	C 	0.92754 0.81120 0.99931 -0.03000
C 	C 	0.90506 0.84175 0.98837 -0.07500
H 	H 	0.94006 0.72113 0.97552 0.04000
H 	H 	0.86970 0.60759 0.97674 0.03600
H 	H 	0.75069 0.63609 0.02671 0.03700
H 	H 	0.82186 0.74976 0.02630 0.04200
H 	H 	0.74496 0.53181 0.02539 0.03000
H 	H 	0.75743 0.51561 0.95067 0.07800
H 	H 	0.97748 0.83613 0.00747 0.04200
H 	H 	0.85520 0.81587 0.97923 0.05500
C 	C 	0.79333 0.11531 0.97620 -0.00100
C 	C 	0.82897 0.12401 0.00711 -0.03500
C 	C 	0.85227 0.08907 0.01000 -0.05000
C 	C 	0.84097 0.04589 0.98185 0.02400
C 	C 	0.80474 0.03671 0.95117 -0.05100
C 	C 	0.78162 0.07176 0.94825 -0.03600
C 	C 	0.86668 0.00989 0.98434 -0.03900
C 	C 	0.92797 0.03958 0.99562 -0.07200
C 	C 	0.77029 0.15346 0.97245 0.01000
C 	C 	0.73672 0.15635 0.99425 -0.16200
H 	H 	0.83905 0.15817 0.02873 0.03800
H 	H 	0.87925 0.09570 0.03401 0.04200
H 	H 	0.79536 0.00313 0.92941 0.03900
H 	H 	0.75441 0.06494 0.92427 0.02900
H 	H 	0.83642 0.95970 0.97397 0.04900
H 	H 	0.95866 0.09044 0.00383 0.05100
H 	H 	0.77546 0.17404 0.94981 0.01700
H 	H 	0.72850 0.13254 0.01579 0.08000
C 	C 	0.33380 0.13862 0.97943 0.00100
C 	C 	0.29596 0.15570 0.96720 -0.03400
C 	C 	0.23166 0.11616 0.96663 -0.04900
C 	C 	0.20473 0.05954 0.97881 0.02700
C 	C 	0.24221 0.04166 0.99030 -0.05600
C 	C 	0.30657 0.08134 0.99107 -0.03100
C 	C 	0.13743 0.01941 0.98011 -0.03800
C 	C 	0.11238 0.04336 0.99662 -0.07100
C 	C 	0.40250 0.18352 0.98300 0.01100
C 	C 	0.43646 0.16373 0.97478 -0.14900
H 	H 	0.31644 0.19984 0.95837 0.03700
H 	H 	0.20289 0.12983 0.95709 0.04400
H 	H 	0.22179 0.99793 0.99956 0.04800
H 	H 	0.33541 0.06833 0.00149 0.03900
H 	H 	0.10863 0.97010 0.96795 0.05000
H 	H 	0.14203 0.09244 0.00930 0.05400
H 	H 	0.42559 0.23300 0.99318 0.03000
H 	H 	0.41327 0.11461 0.96373 0.07200
