data_crystal

_cell_length_a 18.50942
_cell_length_b 18.91370
_cell_length_c 44.66520
_cell_angle_alpha 95.41858
_cell_angle_beta  95.41722
_cell_angle_gamma 126.48765

_symmetry_space_group_name_	'P 1'
_symmetry_space_group_name_H-M	'P 1'

loop_
_symmetry_equiv_pos_as_xyz
  x,y,z

loop_
_atom_site_label
_atom_site_type_symbol
_atom_site_fract_x
_atom_site_fract_y
_atom_site_fract_z
_atom_site_charge
C 	C 	0.91456 0.99376 0.97214 0.02600
C 	C 	0.86647 0.90208 0.97312 -0.08000
C 	C 	0.91181 0.86316 0.97182 0.03200
C 	C 	0.00499 0.91635 0.97051 -0.08100
C 	C 	0.05277 0.00739 0.96981 0.03600
C 	C 	0.00708 0.04545 0.96977 -0.07600
H 	H 	0.79491 0.86172 0.97499 0.04800
H 	H 	0.04057 0.88698 0.97035 0.05100
H 	H 	0.04443 0.11616 0.96922 0.05000
C 	C 	0.93722 0.03784 0.49462 0.03600
C 	C 	0.87966 0.94499 0.49295 -0.08500
C 	C 	0.91660 0.89860 0.49485 0.03400
C 	C 	0.01148 0.94540 0.49851 -0.08200
C 	C 	0.06912 0.03800 0.49947 0.03800
C 	C 	0.03202 0.08442 0.49777 -0.08200
H 	H 	0.80625 0.90892 0.49018 0.05000
H 	H 	0.04036 0.90982 0.50046 0.04800
H 	H 	0.07654 0.15616 0.49865 0.04900
Cu	Cu	0.77504 0.34410 0.97186 0.92600
Cu	Cu	0.76676 0.29038 0.03998 0.86900
Cu	Cu	0.62308 0.29407 0.00759 0.89700
Cu	Cu	0.60001 0.32496 0.94404 0.89300
C 	C 	0.71020 0.29899 0.90683 0.28800
O 	O 	0.82215 0.47150 0.96814 -0.36200
C 	C 	0.68055 0.34324 0.07529 0.28800
O 	O 	0.63150 0.26475 0.96650 -0.63900
O 	O 	0.75871 0.36279 0.01425 -0.64300
O 	O 	0.84090 0.29120 0.97920 -0.37400
O 	O 	0.74322 0.20000 0.00887 -0.44200
O 	O 	0.66989 0.33699 0.91095 -0.38800
O 	O 	0.49122 0.21935 0.99887 -0.38700
C 	C 	0.44084 0.21565 0.97485 0.29800
C 	C 	0.77651 0.50164 0.97565 0.28700
O 	O 	0.69103 0.44509 0.97848 -0.39800
O 	O 	0.47794 0.27070 0.95536 -0.39900
O 	O 	0.76768 0.30730 0.92947 -0.36500
C 	C 	0.80352 0.21893 0.99148 0.29400
O 	O 	0.61371 0.30596 0.05116 -0.39100
O 	O 	0.75621 0.35217 0.07346 -0.42300
H 	H 	0.59555 0.19976 0.95850 0.16200
H 	H 	0.79270 0.42607 0.02433 0.16900
Cu	Cu	0.61342 0.20984 0.50596 0.92800
Cu	Cu	0.67047 0.22521 0.43862 0.86600
Cu	Cu	0.62917 0.34107 0.46811 0.89500
Cu	Cu	0.63337 0.38039 0.53497 0.89700
C 	C 	0.65350 0.26592 0.57112 0.29700
O 	O 	0.48621 0.16584 0.51210 -0.36500
C 	C 	0.59544 0.29053 0.40109 0.28200
O 	O 	0.68590 0.34789 0.50840 -0.63700
O 	O 	0.58518 0.21524 0.46318 -0.64500
O 	O 	0.66635 0.14596 0.49787 -0.37900
O 	O 	0.76162 0.24612 0.46981 -0.44400
O 	O 	0.61676 0.30705 0.56680 -0.39200
O 	O 	0.66224 0.46144 0.47367 -0.38500
C 	C 	0.70455 0.52318 0.49893 0.29900
C 	C 	0.45149 0.20674 0.50380 0.28300
O 	O 	0.50592 0.29236 0.50233 -0.40400
O 	O 	0.70649 0.50257 0.52621 -0.40300
O 	O 	0.66203 0.22495 0.54783 -0.37500
C 	C 	0.74146 0.18511 0.48640 0.29800
O 	O 	0.58659 0.33049 0.42484 -0.38100
O 	O 	0.60361 0.22645 0.40350 -0.42200
H 	H 	0.75360 0.38666 0.51220 0.16000
H 	H 	0.52013 0.17090 0.45315 0.16900
C 	C 	0.66262 0.24605 0.60164 -0.09400
C 	C 	0.74555 0.26652 0.61581 0.01700
C 	C 	0.75698 0.25697 0.64625 -0.07500
C 	C 	0.68519 0.22607 0.66245 0.04500
C 	C 	0.60098 0.20130 0.64775 -0.07600
C 	C 	0.58973 0.21138 0.61750 0.02200
C 	C 	0.69990 0.22744 0.69480 -0.03400
C 	C 	0.70755 0.22709 0.72187 -0.00400
C 	C 	0.71245 0.22788 0.75363 -0.00400
C 	C 	0.71353 0.22974 0.78073 -0.03300
C 	C 	0.71140 0.23357 0.81295 0.04400
C 	C 	0.79322 0.28241 0.83448 -0.07400
C 	C 	0.79246 0.29947 0.86559 0.02000
C 	C 	0.70983 0.26835 0.87526 -0.09100
C 	C 	0.62754 0.21539 0.85383 0.01600
C 	C 	0.62835 0.19791 0.82282 -0.07400
H 	H 	0.80195 0.29252 0.60364 0.02100
H 	H 	0.82218 0.27579 0.65742 0.04600
H 	H 	0.54498 0.17666 0.66005 0.04800
H 	H 	0.52487 0.19379 0.60656 0.03000
H 	H 	0.85770 0.30992 0.82704 0.04800
H 	H 	0.85643 0.34016 0.88193 0.03500
H 	H 	0.56327 0.19008 0.86109 0.01600
H 	H 	0.56475 0.15959 0.80632 0.04600
C 	C 	0.66471 0.36316 0.10571 -0.09400
C 	C 	0.57518 0.31600 0.11157 0.01500
C 	C 	0.56081 0.32382 0.14149 -0.07500
C 	C 	0.63556 0.37893 0.16574 0.04300
C 	C 	0.72462 0.43074 0.15971 -0.07500
C 	C 	0.73923 0.42316 0.12981 0.01500
C 	C 	0.62158 0.37365 0.19687 -0.03500
C 	C 	0.61006 0.36935 0.22294 -0.00600
C 	C 	0.59721 0.36116 0.25343 -0.00600
C 	C 	0.58692 0.35149 0.27937 -0.03500
C 	C 	0.57566 0.33675 0.31019 0.04300
C 	C 	0.52240 0.24911 0.31577 -0.07500
C 	C 	0.52437 0.23389 0.34574 0.01800
C 	C 	0.57958 0.30635 0.37038 -0.09200
C 	C 	0.62798 0.39420 0.36490 0.01400
C 	C 	0.62643 0.40934 0.33484 -0.07400
H 	H 	0.51687 0.27038 0.09321 0.03400
H 	H 	0.49168 0.28422 0.14596 0.04600
H 	H 	0.78273 0.47436 0.17831 0.04500
H 	H 	0.80854 0.46187 0.12554 0.02600
H 	H 	0.48226 0.19268 0.29683 0.04600
H 	H 	0.48526 0.16578 0.34974 0.02700
H 	H 	0.67023 0.45066 0.38376 0.02500
H 	H 	0.66733 0.47735 0.33072 0.04500
C 	C 	0.79789 0.65005 0.47221 -0.01800
C 	C 	0.75069 0.61774 0.49639 -0.11000
C 	C 	0.74978 0.67667 0.51814 0.09600
C 	C 	0.80627 0.76860 0.51774 -0.08800
C 	C 	0.85593 0.80122 0.49417 -0.01100
C 	C 	0.84729 0.74075 0.47021 0.02800
C 	C 	0.89195 0.77257 0.44285 -0.17300
H 	H 	0.79661 0.60464 0.45501 0.03300
H 	H 	0.81085 0.81484 0.53561 0.04800
C 	C 	0.68842 0.64242 0.54153 -0.19900
H 	H 	0.85991 0.71614 0.42318 0.05800
H 	H 	0.96571 0.80324 0.44882 0.05900
H 	H 	0.88433 0.82237 0.43518 0.06200
H 	H 	0.72086 0.63240 0.56116 0.07000
H 	H 	0.62042 0.57848 0.53123 0.06800
H 	H 	0.67638 0.69082 0.55038 0.06400
C 	C 	0.88260 0.11640 0.51949 -0.09000
C 	C 	0.89757 0.08592 0.49268 -0.00900
C 	C 	0.86621 0.09329 0.46396 0.02400
C 	C 	0.81563 0.12640 0.46237 -0.01400
C 	C 	0.79750 0.15369 0.48907 -0.12000
C 	C 	0.83406 0.15177 0.51799 0.10200
C 	C 	0.82029 0.18571 0.54718 -0.20800
H 	H 	0.90735 0.11105 0.54151 0.04900
H 	H 	0.78894 0.12951 0.44026 0.01500
C 	C 	0.88360 0.06283 0.43493 -0.16800
H 	H 	0.86664 0.19490 0.56748 0.06700
H 	H 	0.74865 0.13700 0.55029 0.09000
H 	H 	0.83522 0.25169 0.54647 0.07700
H 	H 	0.84447 0.98896 0.43079 0.05800
H 	H 	0.95769 0.09504 0.43687 0.06000
H 	H 	0.86247 0.08090 0.41473 0.05400
C 	C 	0.20468 0.10768 0.47444 -0.08400
C 	C 	0.16817 0.08573 0.50116 -0.01300
C 	C 	0.22506 0.10393 0.52880 0.03200
C 	C 	0.31681 0.14013 0.52893 -0.02000
C 	C 	0.35331 0.16186 0.50221 -0.10500
C 	C 	0.29703 0.14571 0.47472 0.09000
C 	C 	0.33459 0.16722 0.44559 -0.20100
H 	H 	0.16070 0.09371 0.45330 0.04700
H 	H 	0.36047 0.15310 0.55002 0.03900
C 	C 	0.18785 0.08326 0.55802 -0.17600
H 	H 	0.28061 0.14628 0.42578 0.06700
H 	H 	0.36378 0.13155 0.44021 0.06100
H 	H 	0.38871 0.24045 0.44823 0.07500
H 	H 	0.14277 0.00975 0.55701 0.06500
H 	H 	0.14819 0.10911 0.56134 0.06400
H 	H 	0.24368 0.11499 0.57835 0.06000
C 	C 	0.85735 0.73881 0.00042 -0.08600
C 	C 	0.86279 0.76672 0.97216 -0.01100
C 	C 	0.83942 0.70682 0.94503 0.03100
C 	C 	0.81788 0.62265 0.94682 -0.02100
C 	C 	0.81462 0.59557 0.97513 -0.10500
C 	C 	0.83398 0.65383 0.00216 0.08900
C 	C 	0.83023 0.62587 0.03285 -0.19800
H 	H 	0.87510 0.78475 0.02121 0.04700
H 	H 	0.80127 0.57718 0.92604 0.03800
C 	C 	0.84143 0.73394 0.91425 -0.17500
H 	H 	0.85699 0.68227 0.05201 0.06300
H 	H 	0.87240 0.60230 0.03613 0.06100
H 	H 	0.75837 0.57098 0.03411 0.06900
H 	H 	0.91332 0.77973 0.91096 0.06200
H 	H 	0.80956 0.76837 0.91269 0.06200
H 	H 	0.80280 0.67477 0.89531 0.06000
C 	C 	0.81959 0.11990 0.95671 -0.01700
C 	C 	0.83120 0.16029 0.98659 -0.10600
C 	C 	0.86300 0.13935 0.01178 0.08600
C 	C 	0.88026 0.07666 0.00664 -0.08600
C 	C 	0.87153 0.03850 0.97678 -0.00700
C 	C 	0.83856 0.05832 0.95161 0.02900
C 	C 	0.82706 0.01683 0.91931 -0.17100
H 	H 	0.79489 0.13565 0.93742 0.04100
H 	H 	0.90536 0.06117 0.02590 0.04700
C 	C 	0.87938 0.18401 0.04415 -0.19200
H 	H 	0.78630 0.02633 0.90266 0.06100
H 	H 	0.79075 0.94367 0.91732 0.06000
H 	H 	0.89527 0.04812 0.91301 0.06300
H 	H 	0.81300 0.15376 0.05177 0.04900
H 	H 	0.91575 0.25703 0.04561 0.04000
H 	H 	0.92241 0.17583 0.06025 0.05800
C 	C 	0.30808 0.16848 0.99946 -0.01600
C 	C 	0.34145 0.16188 0.97327 -0.10600
C 	C 	0.27958 0.10460 0.94579 0.09200
C 	C 	0.18540 0.05788 0.94468 -0.08500
C 	C 	0.15216 0.06394 0.97094 -0.01200
C 	C 	0.21378 0.11870 0.99868 0.03200
C 	C 	0.17931 0.12473 0.02740 -0.17600
H 	H 	0.35572 0.21262 0.02049 0.04100
H 	H 	0.13764 0.01512 0.92352 0.04800
C 	C 	0.31337 0.09316 0.91763 -0.19700
H 	H 	0.23555 0.16313 0.04775 0.06100
H 	H 	0.12798 0.05670 0.03201 0.06500
H 	H 	0.14750 0.15890 0.02472 0.06300
H 	H 	0.36598 0.08322 0.92366 0.06000
H 	H 	0.34307 0.15327 0.90693 0.06700
H 	H 	0.25694 0.03374 0.90040 0.06300
