data_crystal

_cell_length_a 25.95581
_cell_length_b 26.70026
_cell_length_c 40.17513
_cell_angle_alpha 95.49372
_cell_angle_beta  95.48858
_cell_angle_gamma 125.83647

_symmetry_space_group_name_	'P 1'
_symmetry_space_group_name_H-M	'P 1'

loop_
_symmetry_equiv_pos_as_xyz
  x,y,z

loop_
_atom_site_label
_atom_site_type_symbol
_atom_site_fract_x
_atom_site_fract_y
_atom_site_fract_z
_atom_site_charge
C 	C 	0.96601 0.03393 0.99146 0.09300
C 	C 	0.06029 0.03793 0.98462 0.09100
C 	C 	0.03209 0.06879 0.99021 -0.09200
H 	H 	0.06139 0.11964 0.99355 0.08200
C 	C 	0.99323 0.02279 0.46627 -0.05900
H 	H 	0.02110 0.07300 0.46686 0.07300
Cu	Cu	0.64560 0.25618 0.00725 0.93300
Cu	Cu	0.69533 0.25077 0.93588 0.88000
Cu	Cu	0.69085 0.35534 0.96260 0.90200
Cu	Cu	0.65942 0.37989 0.02908 0.90900
C 	C 	0.66138 0.30248 0.07791 0.29200
O 	O 	0.55365 0.22760 0.00587 -0.34800
C 	C 	0.66672 0.30837 0.88855 0.29100
O 	O 	0.70553 0.35404 0.01008 -0.63800
O 	O 	0.63979 0.26228 0.95865 -0.64000
O 	O 	0.67804 0.20463 0.00590 -0.35900
O 	O 	0.75333 0.26501 0.97463 -0.41200
O 	O 	0.63951 0.33369 0.06795 -0.36100
O 	O 	0.74420 0.44600 0.96948 -0.36100
C 	C 	0.73625 0.48230 0.98948 0.31200
C 	C 	0.53397 0.25838 0.99285 0.30300
O 	O 	0.57659 0.31614 0.98852 -0.37600
O 	O 	0.70708 0.46437 0.01587 -0.36300
O 	O 	0.66575 0.26598 0.05560 -0.34900
C 	C 	0.73283 0.22545 0.99579 0.30700
O 	O 	0.69057 0.35671 0.91357 -0.37500
O 	O 	0.65838 0.25646 0.89431 -0.40400
H 	H 	0.75164 0.37830 0.02094 0.18900
H 	H 	0.59531 0.23886 0.94541 0.17900
Cu	Cu	0.73643 0.33282 0.46119 0.93200
Cu	Cu	0.74431 0.29390 0.53568 0.88300
Cu	Cu	0.63413 0.29278 0.50582 0.90200
Cu	Cu	0.60903 0.31892 0.43762 0.90100
C 	C 	0.68317 0.30499 0.39001 0.29100
O 	O 	0.76691 0.42208 0.45925 -0.33600
C 	C 	0.68279 0.32287 0.58036 0.29100
O 	O 	0.63555 0.27563 0.45870 -0.63900
O 	O 	0.73021 0.34340 0.50972 -0.63700
O 	O 	0.78864 0.30005 0.46464 -0.34200
O 	O 	0.72867 0.23322 0.49924 -0.42500
O 	O 	0.65328 0.32977 0.39794 -0.37200
O 	O 	0.54059 0.23920 0.49883 -0.36100
C 	C 	0.50205 0.23982 0.47514 0.31500
C 	C 	0.73569 0.44297 0.47075 0.30400
O 	O 	0.67672 0.40275 0.47594 -0.38400
O 	O 	0.52501 0.27937 0.45366 -0.37800
O 	O 	0.72588 0.30892 0.41310 -0.34800
C 	C 	0.76867 0.24970 0.47783 0.30800
O 	O 	0.63272 0.29619 0.55503 -0.37400
O 	O 	0.73766 0.33367 0.57530 -0.40100
H 	H 	0.61047 0.23038 0.44872 0.18000
H 	H 	0.75365 0.38750 0.52152 0.19100
C 	C 	0.67417 0.33247 0.61561 -0.08000
C 	C 	0.72788 0.37834 0.64102 0.02200
C 	C 	0.72164 0.38114 0.67521 -0.06200
C 	C 	0.66172 0.33832 0.68424 0.04600
C 	C 	0.60730 0.29487 0.65884 -0.06200
C 	C 	0.61337 0.29199 0.62463 0.02100
C 	C 	0.65744 0.33484 0.71952 -0.01000
C 	C 	0.65382 0.33189 0.74906 -0.01000
C 	C 	0.65043 0.32726 0.78430 0.04600
C 	C 	0.60963 0.26823 0.79328 -0.06300
C 	C 	0.61278 0.26238 0.82749 0.02200
C 	C 	0.65704 0.31562 0.85301 -0.08100
C 	C 	0.69558 0.37518 0.84401 0.02100
C 	C 	0.69234 0.38087 0.80976 -0.06200
H 	H 	0.77476 0.41074 0.63438 0.04600
H 	H 	0.76381 0.41532 0.69472 0.06100
H 	H 	0.56071 0.26191 0.66564 0.06100
H 	H 	0.57139 0.25662 0.60533 0.04900
H 	H 	0.57674 0.22662 0.77371 0.06000
H 	H 	0.58183 0.21634 0.83409 0.04300
H 	H 	0.72971 0.41673 0.86338 0.05000
H 	H 	0.72382 0.42671 0.80300 0.06200
C 	C 	0.66586 0.29641 0.11400 -0.07100
C 	C 	0.62626 0.30069 0.13376 0.02300
C 	C 	0.63032 0.29497 0.16791 -0.05900
C 	C 	0.67383 0.28489 0.18270 0.04700
C 	C 	0.71327 0.28026 0.16312 -0.05800
C 	C 	0.70929 0.28594 0.12884 0.02100
C 	C 	0.67847 0.28043 0.21814 -0.00600
C 	C 	0.68015 0.27712 0.24789 -0.00700
C 	C 	0.68012 0.27438 0.28350 0.04800
C 	C 	0.73876 0.30600 0.30658 -0.06000
C 	C 	0.73954 0.31274 0.34164 0.02700
C 	C 	0.68163 0.28826 0.35377 -0.07500
C 	C 	0.62269 0.25361 0.33058 0.02300
C 	C 	0.62197 0.24663 0.29559 -0.06100
H 	H 	0.59191 0.30788 0.12259 0.05700
H 	H 	0.59961 0.29846 0.18290 0.06400
H 	H 	0.74713 0.27256 0.17443 0.06400
H 	H 	0.74026 0.28275 0.11394 0.05200
H 	H 	0.78391 0.32736 0.29742 0.06500
H 	H 	0.78536 0.33943 0.35928 0.05500
H 	H 	0.57765 0.23383 0.33966 0.03600
H 	H 	0.57641 0.22174 0.27788 0.06300
C 	C 	0.76073 0.50887 0.47081 -0.09700
C 	C 	0.82487 0.55927 0.48636 0.15000
C 	C 	0.71972 0.52145 0.45515 -0.00700
H 	H 	0.67030 0.48297 0.44326 0.05700
Br	Br	0.88071 0.54497 0.51122 -0.22000
C 	C 	0.78994 0.21074 0.46820 -0.09900
C 	C 	0.85602 0.23610 0.47497 0.14600
C 	C 	0.87437 0.19625 0.47071 -0.08400
C 	C 	0.82742 0.13113 0.46015 0.03000
C 	C 	0.76164 0.10605 0.45227 0.08300
C 	C 	0.74326 0.14589 0.45615 -0.00800
H 	H 	0.92508 0.21572 0.47663 0.09000
C 	C 	0.84719 0.08924 0.45991 0.01000
H 	H 	0.69244 0.12616 0.45071 0.06600
C 	C 	0.85391 0.06922 0.48998 -0.06100
C 	C 	0.87710 0.03335 0.49098 0.10900
C 	C 	0.89327 0.01668 0.46156 -0.01400
C 	C 	0.88463 0.03505 0.43120 -0.05400
C 	C 	0.86206 0.07149 0.43030 0.10500
H 	H 	0.84227 0.08260 0.51278 0.08200
H 	H 	0.89710 0.02240 0.40852 0.08200
Br	Br	0.69610 0.01731 0.43704 -0.18700
Br	Br	0.92167 0.32422 0.49229 -0.21800
Br	Br	0.85309 0.09766 0.38862 -0.18800
C 	C 	0.09529 0.03268 0.47098 -0.01300
C 	C 	0.13693 0.05522 0.50270 0.10800
C 	C 	0.20362 0.08867 0.50419 -0.06100
C 	C 	0.22925 0.10040 0.47428 0.00900
C 	C 	0.18763 0.07830 0.44259 0.10500
C 	C 	0.12095 0.04456 0.44108 -0.05500
H 	H 	0.23560 0.10593 0.52863 0.08300
C 	C 	0.29974 0.13651 0.47635 0.03000
H 	H 	0.08896 0.02721 0.41664 0.08200
C 	C 	0.32722 0.10455 0.47270 -0.08300
C 	C 	0.39346 0.13787 0.47259 0.14900
C 	C 	0.43290 0.20394 0.47663 -0.09600
C 	C 	0.40554 0.23591 0.48099 -0.00700
C 	C 	0.33930 0.20256 0.48087 0.08400
H 	H 	0.29681 0.05368 0.46922 0.08900
H 	H 	0.43577 0.28676 0.48429 0.07000
Br	Br	0.22111 0.09402 0.40114 -0.19300
Br	Br	0.42835 0.09205 0.46502 -0.22500
Br	Br	0.30344 0.24790 0.48632 -0.19100
C 	C 	0.76675 0.54715 0.98459 -0.09300
C 	C 	0.72782 0.56651 0.97687 -0.00900
H 	H 	0.67562 0.53295 0.97312 0.06700
Br	Br	0.88983 0.56714 0.00162 -0.20700
C 	C 	0.76646 0.19788 0.00418 -0.09800
C 	C 	0.83374 0.23674 0.01648 0.15000
C 	C 	0.86718 0.21050 0.01768 -0.08400
C 	C 	0.83392 0.14563 0.00704 0.03000
C 	C 	0.76602 0.10621 0.99750 0.08200
C 	C 	0.73262 0.13247 0.99610 -0.01300
H 	H 	0.91924 0.24072 0.02607 0.08900
C 	C 	0.87075 0.12003 0.00349 0.01300
H 	H 	0.68066 0.10222 0.98731 0.06400
C 	C 	0.88727 0.10098 0.03132 -0.06400
C 	C 	0.91985 0.07418 0.02789 0.11600
C 	C 	0.93589 0.06609 0.99630 -0.02900
C 	C 	0.92092 0.08673 0.96876 -0.04700
C 	C 	0.88864 0.11378 0.97222 0.10200
H 	H 	0.87430 0.10652 0.05553 0.08600
H 	H 	0.93370 0.08104 0.94451 0.08400
Br	Br	0.71847 0.01667 0.98512 -0.19200
Br	Br	0.88039 0.32537 0.03262 -0.21600
Br	Br	0.86881 0.14139 0.93391 -0.20200
C 	C 	0.46474 0.23081 0.98707 -0.10200
C 	C 	0.44257 0.26225 0.00331 0.15900
C 	C 	0.37616 0.23272 0.99986 -0.09000
C 	C 	0.33139 0.17104 0.98167 0.03200
C 	C 	0.35338 0.14005 0.96494 0.08100
C 	C 	0.41983 0.17017 0.96754 -0.00600
H 	H 	0.35927 0.25663 0.01273 0.09300
C 	C 	0.26207 0.13755 0.98264 0.00900
H 	H 	0.43658 0.14583 0.95500 0.05900
C 	C 	0.22088 0.13326 0.95536 -0.06200
C 	C 	0.15490 0.10117 0.95582 0.11400
C 	C 	0.13005 0.07443 0.98422 -0.02900
C 	C 	0.17151 0.07962 0.01172 -0.04800
C 	C 	0.23713 0.11051 0.01094 0.10300
H 	H 	0.23997 0.15405 0.93356 0.08500
H 	H 	0.15246 0.05876 0.03351 0.07800
Br	Br	0.29343 0.05571 0.93956 -0.19600
Br	Br	0.50161 0.34284 0.03293 -0.24200
Br	Br	0.09910 0.09225 0.91692 -0.19900
Br	Br	0.29169 0.11392 0.04835 -0.19500
C 	C 	0.84771 0.62123 0.48511 -0.08300
C 	C 	0.80667 0.63357 0.46925 0.03100
C 	C 	0.74223 0.58336 0.45449 0.08200
H 	H 	0.89719 0.65987 0.49678 0.09000
C 	C 	0.83198 0.69909 0.46747 0.01000
C 	C 	0.85145 0.72207 0.43759 -0.06100
C 	C 	0.87675 0.78434 0.43566 0.11000
C 	C 	0.88417 0.82471 0.46411 -0.01900
C 	C 	0.86278 0.80118 0.49362 -0.05200
C 	C 	0.83656 0.73859 0.49538 0.10300
H 	H 	0.84686 0.69147 0.41585 0.08500
H 	H 	0.86802 0.83196 0.51549 0.08500
Br	Br	0.68396 0.59850 0.43369 -0.19200
Br	Br	0.90044 0.81337 0.39386 -0.20500
Br	Br	0.80728 0.70786 0.53605 -0.19100
C 	C 	0.91843 0.86914 0.98112 -0.02900
C 	C 	0.89855 0.82767 0.95017 0.11300
C 	C 	0.86704 0.76354 0.94994 -0.06300
C 	C 	0.85445 0.74027 0.98032 0.01000
C 	C 	0.87272 0.78149 0.01110 0.10400
C 	C 	0.90458 0.84562 0.01137 -0.04700
H 	H 	0.85244 0.73177 0.92617 0.08400
C 	C 	0.82376 0.67309 0.97989 0.02900
H 	H 	0.91946 0.87741 0.03519 0.08200
C 	C 	0.86267 0.65344 0.98669 -0.08300
C 	C 	0.83459 0.59089 0.98937 0.15000
C 	C 	0.75597 0.62915 0.97445 0.08500
H 	H 	0.91489 0.68723 0.99086 0.08900
Br	Br	0.85477 0.75099 0.05304 -0.18700
Br	Br	0.91329 0.85768 0.90798 -0.19600
Br	Br	0.70120 0.65423 0.96449 -0.18900
Br	Br	0.10358 0.04131 0.54421 -0.19700
Br	Br	0.94273 0.04961 0.06668 -0.20300
C 	C 	0.92138 0.89292 0.46470 0.07200
H 	H 	0.83760 0.89273 0.45978 0.08100
H 	H 	0.01336 0.90818 0.47016 0.07400
C 	C 	0.88976 0.92114 0.46226 -0.07000
Br	Br	0.88889 0.00973 0.53312 -0.19500
C 	C 	0.98886 0.92987 0.46814 -0.06300
C 	C 	0.95667 0.93746 0.98243 0.09200
C 	C 	0.02473 0.99462 0.46871 0.05900
C 	C 	0.92581 0.98628 0.46329 0.06400
C 	C 	0.92826 0.96822 0.98732 -0.09200
C 	C 	0.02261 0.97234 0.98099 -0.09600
H 	H 	0.87717 0.94122 0.98832 0.08700
H 	H 	0.04469 0.94856 0.97741 0.08300
