data_crystal

_cell_length_a 28.20206
_cell_length_b 26.66504
_cell_length_c 47.63121
_cell_angle_alpha 103.77096
_cell_angle_beta  115.92242
_cell_angle_gamma 112.20240

_symmetry_space_group_name_	'P 1'
_symmetry_space_group_name_H-M	'P 1'

loop_
_symmetry_equiv_pos_as_xyz
  x,y,z

loop_
_atom_site_label
_atom_site_type_symbol
_atom_site_fract_x
_atom_site_fract_y
_atom_site_fract_z
_atom_site_charge
O 	O 	0.28407 0.14456 0.01202 -0.87800
Zn	Zn	0.30885 0.14664 0.05694 1.21600
O 	O 	0.33147 0.14724 0.10158 -0.88900
O 	O 	0.68588 0.85347 0.31041 -0.86800
Zn	Zn	0.71135 0.86019 0.35675 1.21700
O 	O 	0.73728 0.86663 0.40253 -0.90000
C 	C 	0.88529 0.87427 0.55444 -0.10000
C 	C 	0.84201 0.85392 0.51837 0.04000
C 	C 	0.01718 0.99028 0.69103 0.03400
C 	C 	0.06098 0.02032 0.72846 0.02600
N 	N 	0.14617 0.08027 0.80251 -0.17800
N 	N 	0.90384 0.94062 0.21849 -0.17800
C 	C 	0.00950 0.98479 0.21754 0.02800
C 	C 	0.06498 0.00908 0.21900 0.02600
C 	C 	0.30307 0.13091 0.21073 0.04500
C 	C 	0.85266 0.39454 0.01019 0.05300
C 	C 	0.88134 0.36201 0.00878 -0.08900
C 	C 	0.93173 0.38480 0.00596 0.05300
C 	C 	0.95230 0.43926 0.00355 -0.08900
C 	C 	0.92381 0.47197 0.00503 0.05300
C 	C 	0.87366 0.44939 0.00811 -0.08800
H 	H 	0.86615 0.32040 0.01131 0.05600
H 	H 	0.99219 0.45759 0.00209 0.05500
H 	H 	0.85241 0.47535 0.01000 0.05600
C 	C 	0.25540 0.11052 0.31370 0.05600
C 	C 	0.28220 0.16977 0.31709 -0.08600
C 	C 	0.33735 0.19617 0.31873 0.05200
C 	C 	0.36482 0.16280 0.31615 -0.08900
C 	C 	0.33757 0.10327 0.31224 0.05700
C 	C 	0.28250 0.07689 0.31066 -0.08200
H 	H 	0.26122 0.19585 0.31942 0.05900
H 	H 	0.40784 0.18350 0.31770 0.05500
H 	H 	0.26237 0.03143 0.30865 0.06200
C 	C 	0.77865 0.91006 0.11412 0.05800
C 	C 	0.74919 0.94237 0.11385 -0.08200
C 	C 	0.69448 0.91753 0.11280 0.05400
C 	C 	0.67020 0.86116 0.11299 -0.08500
C 	C 	0.69921 0.82854 0.11305 0.05200
C 	C 	0.75391 0.85333 0.11402 -0.08500
H 	H 	0.76738 0.98549 0.11308 0.05800
H 	H 	0.62743 0.84157 0.11174 0.05400
H 	H 	0.77610 0.82786 0.11375 0.05800
C 	C 	0.17376 0.61715 0.40906 0.05200
C 	C 	0.14297 0.64803 0.40872 -0.08800
C 	C 	0.08797 0.62132 0.40724 0.05200
C 	C 	0.06432 0.56421 0.40666 -0.08800
C 	C 	0.09479 0.53312 0.40685 0.05200
C 	C 	0.14973 0.55971 0.40822 -0.08800
H 	H 	0.16075 0.69182 0.40861 0.05500
H 	H 	0.02124 0.54315 0.40502 0.05500
H 	H 	0.17288 0.53527 0.40786 0.05600
Zn	Zn	0.45012 0.27300 0.09977 1.18300
Zn	Zn	0.33929 0.23204 0.02733 1.19400
O 	O 	0.32281 0.14090 0.96263 -0.47500
O 	O 	0.29838 0.21203 0.97522 -0.43800
O 	O 	0.34519 0.05939 0.00855 -0.49600
C 	C 	0.50242 0.24695 0.06401 0.32900
C 	C 	0.44997 0.36624 0.07650 0.33400
O 	O 	0.51696 0.27454 0.09597 -0.46700
O 	O 	0.44297 0.21205 0.03633 -0.37900
O 	O 	0.36482 0.23386 0.07529 -0.78000
O 	O 	0.39068 0.12889 0.06553 -0.46100
O 	O 	0.40111 0.32074 0.04384 -0.45300
O 	O 	0.47086 0.35602 0.10384 -0.46500
Zn	Zn	0.17129 0.03475 0.02242 1.17700
Zn	Zn	0.28136 0.05875 0.08541 1.18900
C 	C 	0.16551 0.93201 0.03940 0.33900
C 	C 	0.14181 0.07077 0.06953 0.33800
O 	O 	0.22894 0.16865 0.04975 -0.47100
Zn	Zn	0.29371 0.17464 0.11937 1.20100
O 	O 	0.22681 0.96834 0.06503 -0.46200
O 	O 	0.13603 0.94942 0.01772 -0.46400
O 	O 	0.12295 0.05534 0.03654 -0.47500
O 	O 	0.19785 0.08347 0.09290 -0.47500
C 	C 	0.30918 0.11070 0.15908 0.32000
O 	O 	0.25193 0.06001 0.03807 -0.79600
C 	C 	0.22977 0.20825 0.07293 0.34000
O 	O 	0.30876 0.07119 0.13591 -0.43400
O 	O 	0.32511 0.16587 0.16206 -0.47000
O 	O 	0.25845 0.21961 0.10611 -0.49600
Zn	Zn	0.30735 0.10030 0.99015 1.18600
C 	C 	0.29708 0.17117 0.95241 0.31000
C 	C 	0.38566 0.08376 0.04308 0.33700
H 	H 	0.37727 0.16713 0.11945 0.16200
H 	H 	0.23864 0.12847 0.99618 0.14800
Zn	Zn	0.85295 0.98470 0.40100 1.18600
Zn	Zn	0.74844 0.93857 0.32510 1.19400
O 	O 	0.71465 0.81908 0.25653 -0.47300
O 	O 	0.72622 0.91302 0.27503 -0.44600
O 	O 	0.73063 0.75398 0.31104 -0.49900
C 	C 	0.90855 0.95496 0.36882 0.32800
C 	C 	0.85672 0.07279 0.37405 0.33400
O 	O 	0.92173 0.98565 0.39997 -0.46400
O 	O 	0.84936 0.91573 0.34112 -0.37200
O 	O 	0.76760 0.94565 0.37312 -0.77900
O 	O 	0.79067 0.83904 0.36534 -0.45500
O 	O 	0.81680 0.02434 0.34168 -0.45800
O 	O 	0.87405 0.06606 0.40268 -0.46100
Zn	Zn	0.57606 0.75053 0.32749 1.17500
Zn	Zn	0.68965 0.78123 0.39069 1.18800
C 	C 	0.57496 0.65353 0.34904 0.34100
C 	C 	0.55076 0.78830 0.37647 0.33800
O 	O 	0.63280 0.88455 0.34957 -0.46800
Zn	Zn	0.69967 0.89292 0.42072 1.19800
O 	O 	0.63573 0.69271 0.37541 -0.45700
O 	O 	0.54420 0.66729 0.32536 -0.46800
O 	O 	0.53056 0.77284 0.34330 -0.48300
O 	O 	0.60780 0.80263 0.39960 -0.47700
C 	C 	0.75470 0.85328 0.47120 0.31800
O 	O 	0.65521 0.77491 0.34109 -0.80400
C 	C 	0.63142 0.92218 0.37247 0.33800
O 	O 	0.73632 0.80407 0.44395 -0.43300
O 	O 	0.74079 0.89399 0.46643 -0.46800
O 	O 	0.66031 0.93399 0.40577 -0.49500
Zn	Zn	0.69683 0.79397 0.28849 1.18600
C 	C 	0.73867 0.87560 0.26075 0.32200
C 	C 	0.77880 0.78667 0.34476 0.33500
H 	H 	0.78343 0.88760 0.42004 0.16100
H 	H 	0.64186 0.84226 0.29576 0.14600
C 	C 	0.87961 0.90445 0.58009 0.13700
H 	H 	0.92436 0.86846 0.56262 0.06600
H 	H 	0.84824 0.83285 0.49892 0.02200
C 	C 	0.79298 0.86399 0.50779 -0.10900
C 	C 	0.78550 0.89122 0.53334 0.04400
H 	H 	0.74727 0.89834 0.52545 0.02900
C 	C 	0.82868 0.91138 0.56933 -0.10100
H 	H 	0.82380 0.93415 0.58903 0.06600
N 	N 	0.92833 0.93231 0.61744 -0.17900
C 	C 	0.97899 0.99217 0.63495 0.19000
C 	C 	0.02411 0.02237 0.67215 -0.06400
C 	C 	0.96622 0.92837 0.67259 -0.06300
C 	C 	0.92202 0.89976 0.63537 0.19000
C 	C 	0.07539 0.08433 0.69074 -0.01200
C 	C 	0.11876 0.11410 0.72783 -0.01500
C 	C 	0.11162 0.08240 0.74694 -0.05900
C 	C 	0.05381 0.98836 0.74737 -0.05900
C 	C 	0.95969 0.89634 0.69163 -0.01300
C 	C 	0.00312 0.92609 0.72872 -0.01500
C 	C 	0.15419 0.11189 0.78436 0.18900
C 	C 	0.09737 0.01938 0.78475 0.18800
C 	C 	0.18942 0.11135 0.84075 0.13600
C 	C 	0.24316 0.10911 0.85684 -0.10100
C 	C 	0.28085 0.13228 0.89374 0.03900
C 	C 	0.26481 0.15763 0.91485 -0.11500
C 	C 	0.21300 0.16308 0.89887 0.03800
C 	C 	0.17543 0.13990 0.86195 -0.10200
O 	O 	0.87392 0.84174 0.61773 -0.20200
O 	O 	0.98485 0.02180 0.61691 -0.20400
O 	O 	0.20177 0.17018 0.80204 -0.20100
O 	O 	0.09115 0.98991 0.80282 -0.21000
H 	H 	0.13421 0.14214 0.84963 0.06400
H 	H 	0.20019 0.18276 0.91477 0.02200
H 	H 	0.25451 0.08768 0.84059 0.06600
H 	H 	0.32141 0.12893 0.90577 0.02900
H 	H 	0.92090 0.84851 0.67784 0.04800
H 	H 	0.99703 0.90063 0.74284 0.04700
H 	H 	0.08166 0.10968 0.67659 0.04700
H 	H 	0.15769 0.16186 0.74160 0.04900
C 	C 	0.85912 0.92671 0.22720 0.13400
C 	C 	0.87576 0.96856 0.25931 -0.10100
H 	H 	0.92128 0.01227 0.27694 0.06700
C 	C 	0.83452 0.95331 0.26920 0.04300
H 	H 	0.84884 0.98517 0.29461 0.03100
C 	C 	0.77656 0.89564 0.24731 -0.11200
C 	C 	0.75913 0.85442 0.21469 0.04600
H 	H 	0.71451 0.80977 0.19755 0.02400
C 	C 	0.80024 0.86999 0.20468 -0.09900
H 	H 	0.78765 0.83704 0.18024 0.07100
C 	C 	0.93231 0.90842 0.21997 0.18600
C 	C 	0.98724 0.93141 0.22098 -0.06400
C 	C 	0.97621 0.01375 0.21251 -0.06100
C 	C 	0.92193 0.98974 0.21215 0.18400
C 	C 	0.02116 0.90297 0.22643 -0.01400
C 	C 	0.07569 0.92658 0.22737 -0.01600
C 	C 	0.09708 0.97895 0.22284 -0.06000
C 	C 	0.08742 0.06260 0.21571 -0.06300
C 	C 	0.99890 0.06739 0.20924 -0.01300
C 	C 	0.05454 0.09212 0.21133 -0.01900
C 	C 	0.14867 0.00038 0.22068 0.18700
N 	N 	0.16615 0.04915 0.21401 -0.17800
C 	C 	0.14017 0.08345 0.21462 0.18800
C 	C 	0.20739 0.06058 0.20283 0.13600
C 	C 	0.26634 0.11687 0.22352 -0.10100
C 	C 	0.28073 0.08912 0.17682 -0.11200
C 	C 	0.22345 0.03116 0.15705 0.04500
C 	C 	0.18667 0.01726 0.16984 -0.10100
O 	O 	0.88926 0.01542 0.20657 -0.20100
O 	O 	0.90923 0.85679 0.22153 -0.20800
O 	O 	0.17911 0.97244 0.22406 -0.20400
O 	O 	0.16346 0.13505 0.21307 -0.20900
H 	H 	0.14093 0.97390 0.15353 0.06700
H 	H 	0.20540 0.99859 0.13073 0.03000
H 	H 	0.28147 0.15133 0.24823 0.07400
H 	H 	0.34719 0.17573 0.22628 0.02400
H 	H 	0.97380 0.09027 0.20528 0.04700
H 	H 	0.07110 0.13338 0.20869 0.04500
H 	H 	0.00555 0.86268 0.23002 0.04600
H 	H 	0.10079 0.90370 0.23130 0.04700
C 	C 	0.97122 0.29843 0.36023 -0.03500
H 	H 	0.96435 0.29550 0.33496 0.03900
C 	C 	0.00995 0.35862 0.39529 0.01700
C 	C 	0.04220 0.42095 0.39987 -0.01200
C 	C 	0.91797 0.27306 0.36532 -0.02500
H 	H 	0.86662 0.24812 0.34415 0.03400
C 	C 	0.95717 0.33415 0.40043 -0.03700
H 	H 	0.93869 0.36065 0.40827 0.03700
C 	C 	0.00279 0.27116 0.38155 -0.02600
H 	H 	0.02122 0.24460 0.37371 0.03600
C 	C 	0.95002 0.24675 0.38670 -0.00700
C 	C 	0.91638 0.18452 0.38196 0.04900
C 	C 	0.98875 0.30694 0.42175 -0.02400
H 	H 	0.99561 0.30988 0.44703 0.03400
C 	C 	0.04205 0.33236 0.41669 -0.03800
H 	H 	0.09341 0.35734 0.43786 0.03800
C 	C 	0.88886 0.13346 0.37822 -0.11800
C 	C 	0.06717 0.47215 0.40329 -0.03100
C 	C 	0.42492 0.74815 0.43093 -0.02300
H 	H 	0.47116 0.78017 0.45751 0.03600
C 	C 	0.41529 0.73118 0.39485 -0.00900
C 	C 	0.46536 0.75388 0.38968 0.05200
C 	C 	0.37815 0.67880 0.41695 -0.03800
H 	H 	0.38496 0.65324 0.43208 0.03900
C 	C 	0.36936 0.66224 0.38082 -0.02300
H 	H 	0.36988 0.62348 0.36615 0.03500
C 	C 	0.36916 0.75684 0.41633 -0.03800
H 	H 	0.36857 0.79555 0.43098 0.03800
C 	C 	0.32327 0.68788 0.40228 0.01900
C 	C 	0.27102 0.66306 0.40559 -0.01200
C 	C 	0.31376 0.67098 0.36624 -0.03800
H 	H 	0.26758 0.63898 0.33963 0.03800
C 	C 	0.36039 0.74024 0.38019 -0.02400
H 	H 	0.35353 0.76575 0.36503 0.03400
C 	C 	0.22715 0.64223 0.40755 -0.03000
C 	C 	0.50516 0.77074 0.38429 -0.12000
C 	C 	0.93248 0.72556 0.40904 -0.02400
H 	H 	0.92375 0.73442 0.42973 0.03200
C 	C 	0.90474 0.73489 0.37638 -0.01200
C 	C 	0.86119 0.75528 0.36681 0.05100
C 	C 	0.99795 0.75809 0.41571 -0.03900
H 	H 	0.04390 0.79328 0.44203 0.03800
C 	C 	0.96944 0.76778 0.38289 -0.02300
H 	H 	0.99113 0.81141 0.38209 0.03600
C 	C 	0.91568 0.66230 0.38463 -0.03900
H 	H 	0.89390 0.61864 0.38539 0.03700
C 	C 	0.98038 0.69514 0.39114 0.02000
C 	C 	0.02085 0.67111 0.39818 -0.01400
C 	C 	0.95259 0.70451 0.35851 -0.03800
H 	H 	0.96122 0.69564 0.33778 0.03900
C 	C 	0.88735 0.67199 0.35190 -0.02300
H 	H 	0.84145 0.63669 0.32555 0.03300
C 	C 	0.05238 0.64943 0.40286 -0.03000
C 	C 	0.82411 0.77040 0.35750 -0.13500
C 	C 	0.61602 0.60128 0.08594 -0.03700
H 	H 	0.64693 0.60425 0.07704 0.04000
C 	C 	0.61018 0.65434 0.10150 0.01900
C 	C 	0.64392 0.71664 0.10622 -0.01300
C 	C 	0.54305 0.55688 0.06209 -0.02300
H 	H 	0.51323 0.52227 0.03342 0.03800
C 	C 	0.53772 0.61085 0.07772 -0.03800
H 	H 	0.50411 0.62171 0.06201 0.03700
C 	C 	0.61998 0.58570 0.11593 -0.02400
H 	H 	0.65357 0.57481 0.13163 0.03500
C 	C 	0.54750 0.54224 0.09213 -0.00900
C 	C 	0.51224 0.47952 0.08660 0.04700
C 	C 	0.54170 0.59533 0.10770 -0.02600
H 	H 	0.51079 0.59239 0.11660 0.02700
C 	C 	0.61469 0.63977 0.13157 -0.04000
H 	H 	0.64455 0.67450 0.16023 0.03400
C 	C 	0.48347 0.42786 0.08196 -0.11700
C 	C 	0.67009 0.76768 0.10958 -0.03100
C 	C 	0.01786 0.04319 0.12445 -0.02700
H 	H 	0.06265 0.08549 0.14860 0.04900
C 	C 	0.00705 0.01303 0.08863 -0.00900
C 	C 	0.05539 0.03525 0.08207 0.05300
C 	C 	0.98387 0.97818 0.12074 -0.03400
H 	H 	0.99957 0.96520 0.14198 0.04400
C 	C 	0.97378 0.94836 0.08479 -0.02300
H 	H 	0.98245 0.91199 0.07670 0.03600
C 	C 	0.95383 0.03717 0.10432 -0.03400
H 	H 	0.94534 0.07364 0.11253 0.03900
C 	C 	0.92057 0.97254 0.10051 0.01900
C 	C 	0.87147 0.95016 0.10652 -0.00900
C 	C 	0.90975 0.94235 0.06464 -0.03900
H 	H 	0.86483 0.90055 0.04005 0.03900
C 	C 	0.94373 0.00731 0.06837 -0.02200
H 	H 	0.92760 0.01950 0.04677 0.03500
C 	C 	0.82989 0.93184 0.11053 -0.02500
C 	C 	0.09496 0.05240 0.07648 -0.11900
C 	C 	0.53975 0.02521 0.11040 -0.02500
H 	H 	0.53190 0.03682 0.13129 0.03000
C 	C 	0.51087 0.03104 0.07648 -0.01200
C 	C 	0.46733 0.05149 0.06597 0.04900
C 	C 	0.60464 0.05586 0.11628 -0.03900
H 	H 	0.65094 0.09232 0.14216 0.03800
C 	C 	0.57502 0.06204 0.08219 -0.02300
H 	H 	0.59621 0.10400 0.07986 0.03500
C 	C 	0.52259 0.96059 0.08760 -0.03900
H 	H 	0.50133 0.91860 0.08988 0.03600
C 	C 	0.58674 0.99154 0.09331 0.02000
C 	C 	0.62741 0.96763 0.10160 -0.01300
C 	C 	0.55782 0.99741 0.05941 -0.03800
H 	H 	0.56558 0.98578 0.03848 0.03800
C 	C 	0.49313 0.96677 0.05358 -0.02400
H 	H 	0.44688 0.93021 0.02769 0.03400
C 	C 	0.65902 0.94594 0.10730 -0.02800
C 	C 	0.43049 0.06688 0.05616 -0.13500
C 	C 	0.47961 0.98353 0.30540 -0.02500
H 	H 	0.48302 0.96757 0.28301 0.02900
C 	C 	0.51241 0.98126 0.34022 -0.01300
C 	C 	0.55405 0.95888 0.35004 0.05000
C 	C 	0.50065 0.05045 0.32751 -0.03900
H 	H 	0.52048 0.09003 0.32310 0.03600
C 	C 	0.53403 0.04773 0.36241 -0.02300
H 	H 	0.58222 0.08463 0.38691 0.03300
C 	C 	0.41784 0.95758 0.30307 -0.03900
H 	H 	0.36960 0.92080 0.27860 0.03900
C 	C 	0.43965 0.02411 0.32533 0.02100
C 	C 	0.40088 0.04987 0.31869 -0.01100
C 	C 	0.47252 0.02175 0.36012 -0.03800
H 	H 	0.46924 0.03769 0.38257 0.03900
C 	C 	0.45140 0.95491 0.33804 -0.02300
H 	H 	0.43160 0.91538 0.34249 0.03500
C 	C 	0.37093 0.07314 0.31490 -0.02600
C 	C 	0.58915 0.94165 0.35959 -0.13400
C 	C 	0.44665 0.46367 0.35416 -0.02300
H 	H 	0.44267 0.49595 0.37121 0.03600
C 	C 	0.48149 0.48064 0.33715 -0.01000
C 	C 	0.51481 0.54229 0.34132 0.05100
C 	C 	0.47795 0.42862 0.36573 -0.03800
H 	H 	0.49900 0.43075 0.39222 0.03900
C 	C 	0.51326 0.44654 0.34879 -0.02400
H 	H 	0.56406 0.46467 0.36140 0.03400
C 	C 	0.39055 0.40389 0.31819 -0.03800
H 	H 	0.33974 0.38569 0.30557 0.04000
C 	C 	0.42240 0.36986 0.32985 0.02000
C 	C 	0.39055 0.30814 0.32587 -0.01100
C 	C 	0.45723 0.38686 0.31284 -0.03900
H 	H 	0.46121 0.35458 0.29578 0.03400
C 	C 	0.42592 0.42189 0.30125 -0.02400
H 	H 	0.40489 0.41974 0.27476 0.03100
C 	C 	0.36559 0.25720 0.32265 -0.03000
C 	C 	0.54236 0.59306 0.34483 -0.12000
C 	C 	0.06855 0.07374 0.34836 -0.02400
H 	H 	0.05750 0.10885 0.35469 0.03500
C 	C 	0.04148 0.01248 0.34907 -0.00900
C 	C 	0.99584 0.99176 0.35739 0.05200
C 	C 	0.05564 0.03861 0.31224 -0.03700
H 	H 	0.03519 0.04578 0.28890 0.04300
C 	C 	0.02783 0.97702 0.31310 -0.02300
H 	H 	0.98315 0.93222 0.29102 0.05000
C 	C 	0.13495 0.08459 0.36855 -0.03700
H 	H 	0.17951 0.12917 0.39127 0.03800
C 	C 	0.12129 0.04910 0.33253 0.02000
C 	C 	0.16688 0.07007 0.32417 -0.00900
C 	C 	0.09420 0.98783 0.33324 -0.03400
H 	H 	0.10501 0.95258 0.32672 0.04000
C 	C 	0.10712 0.02298 0.36938 -0.02500
H 	H 	0.12779 0.01638 0.39297 0.03500
C 	C 	0.20621 0.08813 0.31862 -0.02700
C 	C 	0.95683 0.97475 0.36325 -0.11700
C 	C 	0.06742 0.30532 0.05758 -0.03800
H 	H 	0.06018 0.31815 0.07863 0.03700
C 	C 	0.03898 0.31096 0.02359 0.01800
C 	C 	0.99919 0.33557 0.01565 -0.01100
C 	C 	0.13185 0.33416 0.06309 -0.02300
H 	H 	0.17850 0.37028 0.08886 0.03100
C 	C 	0.10286 0.34016 0.02896 -0.04000
H 	H 	0.12478 0.38169 0.02645 0.03600
C 	C 	0.04855 0.23987 0.03486 -0.02300
H 	H 	0.02665 0.19838 0.03741 0.03500
C 	C 	0.11244 0.26906 0.04024 -0.01400
C 	C 	0.15396 0.24665 0.05067 0.05100
C 	C 	0.08406 0.27464 0.00621 -0.02200
H 	H 	0.09141 0.26178 0.98521 0.02700
C 	C 	0.01943 0.24583 0.00068 -0.03900
H 	H 	0.97274 0.20977 0.97492 0.03700
C 	C 	0.18852 0.22889 0.06034 -0.13600
C 	C 	0.96771 0.35725 0.01050 -0.03100
C 	C 	0.97496 0.67603 0.99904 -0.03900
H 	H 	0.92325 0.65539 0.98282 0.03700
C 	C 	0.00725 0.64445 0.01431 0.01800
C 	C 	0.97516 0.58249 0.01005 -0.01100
C 	C 	0.01806 0.69719 0.98670 -0.02900
H 	H 	0.00248 0.69521 0.96042 0.03400
C 	C 	0.04978 0.66458 0.00190 -0.03300
H 	H 	0.05957 0.63449 0.98800 0.03400
C 	C 	0.02515 0.73618 0.03554 -0.02300
H 	H 	0.01541 0.76632 0.04946 0.03500
C 	C 	0.06767 0.75629 0.02312 -0.00700
C 	C 	0.10212 0.81875 0.02849 0.05000
C 	C 	0.09986 0.72463 0.03837 -0.02600
H 	H 	0.15157 0.74520 0.05460 0.03500
C 	C 	0.05687 0.70359 0.05071 -0.03700
H 	H 	0.07250 0.70563 0.07700 0.03900
C 	C 	0.13097 0.87035 0.03330 -0.12000
C 	C 	0.95063 0.53187 0.00732 -0.03100
C 	C 	0.66570 0.26975 0.01272 -0.03500
H 	H 	0.65515 0.22953 0.99163 0.03600
C 	C 	0.72063 0.33718 0.03104 0.01900
C 	C 	0.76700 0.35767 0.02313 -0.01100
C 	C 	0.62096 0.29220 0.00860 -0.02100
H 	H 	0.57263 0.26997 0.98428 0.03600
C 	C 	0.67659 0.35992 0.02680 -0.03800
H 	H 	0.67500 0.39384 0.01730 0.04000
C 	C 	0.68150 0.27786 0.04967 -0.02500
H 	H 	0.68305 0.24393 0.05916 0.03500
C 	C 	0.63749 0.30063 0.04542 -0.00800
C 	C 	0.59055 0.28072 0.05297 0.05100
C 	C 	0.69241 0.36805 0.06373 -0.02400
H 	H 	0.70297 0.40829 0.08482 0.03600
C 	C 	0.73719 0.34563 0.06787 -0.03800
H 	H 	0.78553 0.36787 0.09218 0.03800
C 	C 	0.55093 0.26493 0.05849 -0.11500
C 	C 	0.80564 0.37454 0.01695 -0.03000
