data_crystal

_cell_length_a 18.56668
_cell_length_b 18.92246
_cell_length_c 34.76985
_cell_angle_alpha 95.42886
_cell_angle_beta  95.42878
_cell_angle_gamma 126.42486

_symmetry_space_group_name_	'P 1'
_symmetry_space_group_name_H-M	'P 1'

loop_
_symmetry_equiv_pos_as_xyz
  x,y,z

loop_
_atom_site_label
_atom_site_type_symbol
_atom_site_fract_x
_atom_site_fract_y
_atom_site_fract_z
_atom_site_charge
C 	C 	0.89292 0.97148 0.96445 0.02200
C 	C 	0.84470 0.87990 0.96581 -0.07800
C 	C 	0.89014 0.84110 0.96537 0.03200
C 	C 	0.98267 0.89359 0.96313 -0.06800
C 	C 	0.03076 0.98468 0.96258 0.01600
C 	C 	0.98544 0.02301 0.96201 -0.05800
H 	H 	0.77336 0.83991 0.96811 0.04900
H 	H 	0.01790 0.86398 0.96296 0.04700
H 	H 	0.02307 0.09377 0.96155 0.04700
C 	C 	0.95442 0.05410 0.48482 0.05600
C 	C 	0.90247 0.96191 0.48408 -0.09800
C 	C 	0.94549 0.92151 0.48790 0.05300
C 	C 	0.03967 0.97217 0.48955 -0.10200
C 	C 	0.09153 0.06380 0.48898 0.05400
C 	C 	0.04889 0.10490 0.48659 -0.09900
H 	H 	0.82939 0.92257 0.48247 0.05800
H 	H 	0.07299 0.94089 0.49237 0.05500
H 	H 	0.08919 0.17623 0.48710 0.05500
Cu	Cu	0.74399 0.31669 0.95928 0.92500
Cu	Cu	0.73162 0.25276 0.04426 0.86300
Cu	Cu	0.60220 0.27730 0.00900 0.89600
Cu	Cu	0.56638 0.29456 0.92521 0.89400
C 	C 	0.69407 0.29723 0.87622 0.30300
O 	O 	0.79333 0.44487 0.95502 -0.37100
C 	C 	0.65297 0.30834 0.09456 0.29000
O 	O 	0.60169 0.23913 0.95558 -0.63900
O 	O 	0.73490 0.33663 0.01475 -0.64300
O 	O 	0.80778 0.26136 0.96593 -0.37400
O 	O 	0.70734 0.16618 0.00185 -0.44400
O 	O 	0.61860 0.28925 0.87801 -0.39200
O 	O 	0.47167 0.20964 0.00246 -0.39200
C 	C 	0.41781 0.19571 0.97026 0.30200
C 	C 	0.74599 0.47446 0.96168 0.29300
O 	O 	0.66171 0.41908 0.96638 -0.39700
O 	O 	0.45016 0.24736 0.94377 -0.39400
O 	O 	0.73068 0.27960 0.90442 -0.37600
C 	C 	0.76825 0.18665 0.97979 0.29800
O 	O 	0.60948 0.31538 0.06457 -0.38100
O 	O 	0.72316 0.30841 0.09081 -0.42300
H 	H 	0.56524 0.17353 0.94719 0.16100
H 	H 	0.77378 0.39960 0.02877 0.17500
Cu	Cu	0.63582 0.23606 0.50810 0.92800
Cu	Cu	0.72568 0.28306 0.42971 0.86200
Cu	Cu	0.65834 0.37117 0.46059 0.88900
Cu	Cu	0.65009 0.40455 0.54561 0.89800
C 	C 	0.66863 0.29050 0.59190 0.30000
O 	O 	0.50596 0.19057 0.51075 -0.36200
C 	C 	0.62960 0.31915 0.37463 0.29400
O 	O 	0.70810 0.37488 0.51353 -0.63900
O 	O 	0.62092 0.24811 0.45302 -0.64800
O 	O 	0.68665 0.16946 0.49961 -0.36700
O 	O 	0.79644 0.27896 0.47125 -0.44000
O 	O 	0.62781 0.32712 0.58502 -0.39300
O 	O 	0.68564 0.48885 0.46943 -0.38000
C 	C 	0.73662 0.55007 0.50154 0.29500
C 	C 	0.47359 0.23335 0.49991 0.28500
O 	O 	0.52937 0.31976 0.50006 -0.40000
O 	O 	0.72524 0.52858 0.53660 -0.39700
O 	O 	0.67292 0.24389 0.56282 -0.36700
C 	C 	0.76195 0.20542 0.48541 0.30200
O 	O 	0.62459 0.36457 0.40434 -0.38600
O 	O 	0.66633 0.27787 0.38024 -0.42400
H 	H 	0.77551 0.41393 0.52011 0.15300
H 	H 	0.56025 0.20275 0.43616 0.17200
C 	C 	0.68303 0.27795 0.63234 -0.10900
C 	C 	0.77153 0.31743 0.65344 0.12000
C 	C 	0.78391 0.31664 0.69388 -0.09700
C 	C 	0.70980 0.27775 0.71347 -0.00000
C 	C 	0.62073 0.23439 0.69190 0.05800
C 	C 	0.60828 0.23390 0.65142 -0.02100
N 	N 	0.84488 0.35737 0.63533 -0.20500
H 	H 	0.85180 0.34856 0.71038 0.05400
C 	C 	0.72717 0.28990 0.75697 0.00100
N 	N 	0.54723 0.19468 0.70994 -0.19200
H 	H 	0.54032 0.20191 0.63496 0.04400
C 	C 	0.75229 0.36935 0.77946 -0.09800
C 	C 	0.75251 0.37674 0.82003 0.12400
C 	C 	0.72228 0.30172 0.83778 -0.11100
C 	C 	0.70596 0.22552 0.81617 -0.02100
C 	C 	0.70974 0.21952 0.77590 0.05600
H 	H 	0.76985 0.42484 0.76523 0.05400
N 	N 	0.78326 0.45623 0.84188 -0.20600
H 	H 	0.68656 0.16936 0.83025 0.04000
N 	N 	0.69471 0.14560 0.75548 -0.19200
H 	H 	0.80099 0.51018 0.82837 0.08300
H 	H 	0.79462 0.46658 0.87257 0.09300
H 	H 	0.67899 0.09269 0.76938 0.08000
H 	H 	0.70102 0.14101 0.72599 0.08700
H 	H 	0.48188 0.16299 0.69371 0.08000
H 	H 	0.55385 0.19489 0.74009 0.08700
H 	H 	0.83811 0.35852 0.60530 0.08600
H 	H 	0.91003 0.38723 0.65130 0.08100
C 	C 	0.63589 0.31985 0.13464 -0.11000
C 	C 	0.54608 0.27387 0.14242 0.12100
C 	C 	0.53366 0.28519 0.18116 -0.09800
C 	C 	0.60788 0.33151 0.21273 -0.00100
C 	C 	0.69744 0.37512 0.20506 0.05700
C 	C 	0.71053 0.37307 0.16600 -0.02600
N 	N 	0.47187 0.21520 0.11350 -0.20200
H 	H 	0.46524 0.25191 0.18707 0.05300
C 	C 	0.58996 0.32443 0.25347 -0.00100
N 	N 	0.77069 0.41658 0.23491 -0.19200
H 	H 	0.77924 0.40953 0.16012 0.04100
C 	C 	0.55028 0.24208 0.26553 -0.09900
C 	C 	0.54952 0.23688 0.30547 0.12500
C 	C 	0.59588 0.31637 0.33388 -0.11100
C 	C 	0.62498 0.39658 0.32157 -0.02800
C 	C 	0.61971 0.40059 0.28129 0.05700
H 	H 	0.52188 0.18238 0.24391 0.05300
N 	N 	0.50353 0.15568 0.31640 -0.20200
H 	H 	0.65591 0.45680 0.34328 0.04400
N 	N 	0.64533 0.47779 0.26963 -0.19200
H 	H 	0.47282 0.09742 0.29550 0.07900
H 	H 	0.49370 0.14937 0.34534 0.08300
H 	H 	0.67062 0.53476 0.29042 0.08000
H 	H 	0.63741 0.48104 0.23987 0.08500
H 	H 	0.83661 0.45170 0.22888 0.07700
H 	H 	0.76316 0.41107 0.26406 0.08400
H 	H 	0.47751 0.19051 0.08677 0.08900
H 	H 	0.40639 0.18766 0.11884 0.08100
C 	C 	0.88696 0.76560 0.46329 -0.08600
C 	C 	0.89264 0.82684 0.49199 -0.02300
C 	C 	0.85070 0.79779 0.52501 0.06600
C 	C 	0.79738 0.70662 0.52680 -0.02700
C 	C 	0.79327 0.64557 0.49854 -0.10800
C 	C 	0.84278 0.67650 0.46762 0.11800
N 	N 	0.85245 0.62280 0.44351 -0.19800
H 	H 	0.92097 0.78842 0.43851 0.05000
H 	H 	0.76068 0.68351 0.55082 0.04300
N 	N 	0.86360 0.85716 0.55555 -0.19400
H 	H 	0.88283 0.64385 0.41899 0.07700
H 	H 	0.83736 0.56358 0.45066 0.06300
H 	H 	0.91209 0.92602 0.55776 0.08200
H 	H 	0.82855 0.83452 0.57876 0.07900
C 	C 	0.87447 0.10428 0.44991 -0.08500
C 	C 	0.91009 0.09789 0.48562 -0.02300
C 	C 	0.89486 0.12483 0.52144 0.06700
C 	C 	0.84323 0.15681 0.52065 -0.02400
C 	C 	0.80736 0.16287 0.48489 -0.11200
C 	C 	0.82116 0.13430 0.44906 0.11400
N 	N 	0.78093 0.13259 0.41380 -0.20000
H 	H 	0.88530 0.08248 0.42255 0.05000
H 	H 	0.83258 0.17879 0.54803 0.04500
N 	N 	0.93006 0.12079 0.55659 -0.19400
H 	H 	0.79438 0.11476 0.38758 0.07500
H 	H 	0.73289 0.14479 0.41194 0.04700
H 	H 	0.97163 0.10064 0.55839 0.08300
H 	H 	0.91713 0.13936 0.58280 0.08100
C 	C 	0.23004 0.13901 0.45918 -0.08500
C 	C 	0.19137 0.11728 0.49299 -0.02400
C 	C 	0.24632 0.13562 0.52922 0.06700
C 	C 	0.33736 0.16949 0.53034 -0.02900
C 	C 	0.37563 0.18947 0.49641 -0.10500
C 	C 	0.32182 0.17475 0.46046 0.11700
N 	N 	0.35701 0.19262 0.42698 -0.20200
H 	H 	0.18777 0.12510 0.43149 0.05000
H 	H 	0.37941 0.18279 0.55802 0.04300
N 	N 	0.21238 0.12196 0.56305 -0.19400
H 	H 	0.31705 0.18260 0.40071 0.08200
H 	H 	0.42355 0.21504 0.42645 0.08000
H 	H 	0.14728 0.10356 0.56379 0.08300
H 	H 	0.25246 0.13281 0.58946 0.08000
C 	C 	0.78089 0.68066 0.93410 -0.08900
C 	C 	0.84168 0.74542 0.96747 -0.01500
C 	C 	0.86997 0.72026 0.99923 0.06200
C 	C 	0.84409 0.63304 0.99535 -0.02500
C 	C 	0.78513 0.56878 0.96155 -0.11000
C 	C 	0.75178 0.59236 0.93084 0.11800
N 	N 	0.69264 0.53097 0.89806 -0.20200
H 	H 	0.75885 0.69978 0.90987 0.05100
H 	H 	0.86679 0.61415 0.01945 0.03400
N 	N 	0.92075 0.77915 0.03366 -0.19300
H 	H 	0.66858 0.54904 0.87559 0.07900
H 	H 	0.67031 0.46510 0.89435 0.07000
H 	H 	0.93406 0.84153 0.03867 0.08200
H 	H 	0.94440 0.76147 0.05647 0.07800
C 	C 	0.83910 0.12200 0.00879 -0.02300
C 	C 	0.80009 0.13147 0.97503 -0.11800
C 	C 	0.78317 0.08074 0.93797 0.12600
C 	C 	0.80864 0.02387 0.93544 -0.08900
C 	C 	0.84940 0.01595 0.96917 -0.00900
C 	C 	0.86274 0.06385 0.00635 0.05900
N 	N 	0.89819 0.05435 0.03978 -0.19200
H 	H 	0.85007 0.15926 0.03725 0.01700
H 	H 	0.79866 0.98729 0.90698 0.04900
N 	N 	0.74209 0.08563 0.90488 -0.20500
H 	H 	0.91034 0.09191 0.06698 0.07500
H 	H 	0.91179 0.00811 0.03931 0.08300
H 	H 	0.71959 0.12473 0.90581 0.09900
H 	H 	0.73107 0.04886 0.87764 0.08300
C 	C 	0.28485 0.14325 0.00225 -0.02300
C 	C 	0.31879 0.13727 0.96872 -0.11200
C 	C 	0.25753 0.07971 0.93332 0.12000
C 	C 	0.16389 0.03506 0.93132 -0.08800
C 	C 	0.12997 0.04088 0.96481 -0.00900
C 	C 	0.19082 0.09409 0.00090 0.06100
N 	N 	0.15950 0.09753 0.03436 -0.19300
H 	H 	0.33181 0.18674 0.02945 0.04600
H 	H 	0.11682 0.99249 0.90400 0.04800
N 	N 	0.28778 0.06418 0.90183 -0.20200
H 	H 	0.20520 0.13802 0.06068 0.07900
H 	H 	0.08994 0.05908 0.03490 0.08300
H 	H 	0.35483 0.08616 0.90405 0.07300
H 	H 	0.24263 0.02508 0.87523 0.08000
