data_crystal

_cell_length_a 17.15440
_cell_length_b 15.91761
_cell_length_c 37.41596
_cell_angle_alpha 90.02561
_cell_angle_beta  90.02893
_cell_angle_gamma 119.35850

_symmetry_space_group_name_	'P 1'
_symmetry_space_group_name_H-M	'P 1'

loop_
_symmetry_equiv_pos_as_xyz
  x,y,z

loop_
_atom_site_label
_atom_site_type_symbol
_atom_site_fract_x
_atom_site_fract_y
_atom_site_fract_z
_atom_site_charge
C 	C 	0.23345 0.07143 0.79962 0.30200
C 	C 	0.15930 0.03755 0.70133 0.25300
Ni	Ni	0.07471 0.90658 0.76458 1.12300
Ni	Ni	0.11460 0.12876 0.76321 1.11800
O 	O 	0.20820 0.00189 0.77613 -0.37900
O 	O 	0.18802 0.11739 0.80355 -0.37300
O 	O 	0.11410 0.94551 0.71152 -0.33200
O 	O 	0.19038 0.10798 0.72554 -0.36100
C 	C 	0.16364 0.51927 0.45844 0.31300
O 	O 	0.18688 0.60818 0.46844 -0.36000
C 	C 	0.09119 0.48326 0.11040 0.28600
O 	O 	0.13633 0.46130 0.13447 -0.34800
O 	O 	0.13155 0.56144 0.09068 -0.37100
C 	C 	0.08693 0.12576 0.18467 0.28500
C 	C 	0.05912 0.22285 0.27182 0.34400
C 	C 	0.08432 0.98234 0.32806 0.32100
C 	C 	0.12753 0.90270 0.23621 0.28900
Ni	Ni	0.12484 0.08110 0.25835 1.11500
O 	O 	0.14026 0.10546 0.20467 -0.37500
O 	O 	0.04598 0.90059 0.31008 -0.36700
O 	O 	0.16564 0.98156 0.25606 -0.36800
O 	O 	0.12417 0.20891 0.26016 -0.37700
O 	O 	0.04101 0.84037 0.23932 -0.35500
O 	O 	0.10813 0.06551 0.31190 -0.38800
O 	O 	0.00259 0.99132 0.24801 -0.68600
H 	H 	0.00902 0.97058 0.22390 0.16200
C 	C 	0.11652 0.16384 0.14777 -0.06200
C 	C 	0.10152 0.25333 0.09783 -0.01800
C 	C 	0.06182 0.18416 0.12497 0.04400
H 	H 	0.06082 0.27341 0.08171 0.06500
C 	C 	0.18550 0.87089 0.21875 -0.05400
C 	C 	0.09422 0.82860 0.16337 0.09600
N 	N 	0.03730 0.82805 0.14658 -0.09100
C 	C 	0.07804 0.32310 0.27938 -0.08800
C 	C 	0.02932 0.33975 0.30586 0.05100
C 	C 	0.06384 0.43186 0.32109 -0.02700
C 	C 	0.01418 0.44803 0.34883 0.13500
C 	C 	0.12113 0.98105 0.36373 -0.03300
C 	C 	0.06551 0.90777 0.38761 0.02900
C 	C 	0.10065 0.86067 0.40844 -0.00500
C 	C 	0.04114 0.77713 0.42920 0.13300
C 	C 	0.00300 0.40432 0.48169 0.09800
C 	C 	0.07676 0.44627 0.46907 -0.09100
C 	C 	0.17420 0.20082 0.65711 0.08700
N 	N 	0.13717 0.24320 0.66365 -0.09700
C 	C 	0.00633 0.40980 0.09745 -0.02100
N 	N 	0.08674 0.67528 0.94651 -0.10800
O 	O 	0.06720 0.18934 0.79875 -0.35400
O 	O 	0.05110 0.88175 0.81930 -0.33500
O 	O 	0.04103 0.14607 0.72558 -0.35500
N 	N 	0.03612 0.36438 0.77345 -0.07700
H 	H 	0.07945 0.81659 0.87665 0.04300
O 	O 	0.02031 0.13458 0.19929 -0.34800
H 	H 	0.07327 0.30672 0.85521 0.03700
N 	N 	0.06539 0.49703 0.89771 -0.10800
N 	N 	0.19089 0.04965 0.89519 -0.10400
C 	C 	0.16532 0.82942 0.18438 0.00800
C 	C 	0.19271 0.89109 0.40686 -0.06700
C 	C 	0.19479 0.30255 0.09378 -0.06000
C 	C 	0.26070 0.87980 0.23704 -0.00800
H 	H 	0.27806 0.91427 0.26308 0.05500
C 	C 	0.21460 0.02429 0.36840 -0.05600
C 	C 	0.43180 0.19523 0.60753 0.28500
O 	O 	0.46733 0.19578 0.57543 -0.35700
O 	O 	0.03011 0.99396 0.76264 -0.69500
C 	C 	0.22410 0.82037 0.41135 0.29500
C 	C 	0.42433 0.63391 0.47021 0.33300
C 	C 	0.45114 0.89377 0.43038 0.34400
C 	C 	0.21110 0.56310 0.34146 0.28100
Ni	Ni	0.31053 0.72219 0.45753 1.11800
Ni	Ni	0.31240 0.56428 0.40507 1.12300
Ni	Ni	0.33944 0.76323 0.37269 1.12200
O 	O 	0.26155 0.81715 0.44248 -0.35200
O 	O 	0.23106 0.77738 0.38215 -0.37500
O 	O 	0.39809 0.60394 0.36294 -0.37200
O 	O 	0.35904 0.64306 0.48390 -0.36900
O 	O 	0.42246 0.61101 0.43653 -0.37300
O 	O 	0.27463 0.65499 0.33525 -0.36500
O 	O 	0.43881 0.81302 0.44203 -0.39200
O 	O 	0.40920 0.89180 0.40074 -0.36600
O 	O 	0.21218 0.51497 0.37021 -0.37500
O 	O 	0.22431 0.49585 0.44670 -0.36000
O 	O 	0.29573 0.67295 0.41121 -0.71700
H 	H 	0.23069 0.64435 0.40771 0.17300
C 	C 	0.32077 0.72749 0.17898 0.28400
C 	C 	0.24107 0.40759 0.08649 0.30200
C 	C 	0.30452 0.80758 0.06527 0.32200
Ni	Ni	0.27647 0.54039 0.14537 1.11900
Ni	Ni	0.24299 0.59062 0.06356 1.12400
Ni	Ni	0.40959 0.74768 0.10803 1.12200
O 	O 	0.26717 0.63329 0.18164 -0.35700
O 	O 	0.39891 0.76299 0.16207 -0.36300
O 	O 	0.35245 0.60451 0.03974 -0.38100
O 	O 	0.30394 0.46306 0.10851 -0.36700
O 	O 	0.20120 0.44476 0.06694 -0.36100
O 	O 	0.34007 0.81456 0.09705 -0.39100
O 	O 	0.40614 0.59381 0.16585 -0.35100
O 	O 	0.26381 0.72391 0.04734 -0.36500
O 	O 	0.29749 0.63245 0.10926 -0.70700
H 	H 	0.26041 0.65869 0.11864 0.16200
C 	C 	0.20525 0.19495 0.13727 -0.00500
C 	C 	0.24356 0.26191 0.10942 0.00300
H 	H 	0.24572 0.17139 0.15186 0.05200
C 	C 	0.33465 0.29365 0.09873 0.09300
N 	N 	0.40768 0.31910 0.09016 -0.10500
C 	C 	0.31158 0.84131 0.22250 0.00800
C 	C 	0.28635 0.79192 0.18966 -0.06200
C 	C 	0.21525 0.78940 0.17017 -0.00400
H 	H 	0.19649 0.75271 0.14459 0.04900
C 	C 	0.38881 0.85186 0.24170 0.08700
N 	N 	0.45076 0.86086 0.25721 -0.11100
C 	C 	0.15120 0.50467 0.31221 -0.03900
C 	C 	0.18971 0.49397 0.28069 -0.02000
C 	C 	0.15271 0.40353 0.26383 0.02200
H 	H 	0.25269 0.55287 0.27130 0.06000
C 	C 	0.18938 0.39477 0.23016 0.09200
N 	N 	0.21874 0.38780 0.20319 -0.13400
C 	C 	0.25001 0.97924 0.39018 0.05700
H 	H 	0.32176 0.00723 0.39111 0.01900
C 	C 	0.27457 0.11003 0.34880 0.09500
N 	N 	0.32269 0.17874 0.33308 -0.12000
C 	C 	0.33436 0.13772 0.61290 -0.05400
C 	C 	0.28858 0.18715 0.62223 -0.00700
C 	C 	0.22119 0.14925 0.64832 0.00200
C 	C 	0.19913 0.06048 0.66494 -0.04100
C 	C 	0.23102 0.00256 0.64972 -0.03300
C 	C 	0.29683 0.04006 0.62304 -0.01100
H 	H 	0.31167 0.25936 0.61205 0.05100
H 	H 	0.20885 0.93070 0.66004 0.07400
C 	C 	0.32672 0.97853 0.60698 0.12000
N 	N 	0.34934 0.92765 0.59433 -0.10300
C 	C 	0.36689 0.97341 0.03188 0.08800
C 	C 	0.33199 0.89577 0.04625 -0.09500
C 	C 	0.32177 0.10965 0.81660 -0.06700
C 	C 	0.39778 0.13942 0.79506 -0.00700
C 	C 	0.48311 0.18174 0.81045 0.00500
C 	C 	0.49277 0.19458 0.84776 -0.05900
C 	C 	0.41643 0.15886 0.86946 -0.01400
C 	C 	0.33099 0.11645 0.85408 0.01000
H 	H 	0.39057 0.13179 0.76624 0.05000
H 	H 	0.42376 0.16786 0.89822 0.05000
C 	C 	0.25322 0.07940 0.87693 0.08700
C 	C 	0.04113 0.70160 0.93369 0.15500
C 	C 	0.46305 0.96035 0.45817 -0.12300
C 	C 	0.41899 0.06396 0.01556 0.00500
C 	C 	0.47839 0.63805 0.14596 0.30300
O 	O 	0.48183 0.23262 0.63634 -0.37700
O 	O 	0.54387 0.11073 0.61280 -0.36400
C 	C 	0.46485 0.69240 0.35833 0.30500
O 	O 	0.45721 0.76711 0.36788 -0.37500
C 	C 	0.42323 0.68803 0.03367 0.32500
O 	O 	0.47327 0.67100 0.11463 -0.37900
O 	O 	0.44657 0.76137 0.05570 -0.37700
C 	C 	0.50863 0.57653 0.21804 0.09200
N 	N 	0.45054 0.51995 0.23525 -0.10700
H 	H 	0.49018 0.73158 0.28809 0.05300
C 	C 	0.47340 0.99347 0.48786 0.07700
C 	C 	0.49251 0.01965 0.52420 0.00100
C 	C 	0.52208 0.04886 0.55361 -0.09500
C 	C 	0.49355 0.63846 0.49282 -0.08400
N 	N 	0.53384 0.55883 0.66387 -0.10400
C 	C 	0.47077 0.13722 0.00054 -0.06300
C 	C 	0.48202 0.69349 0.00543 -0.08100
C 	C 	0.56064 0.21344 0.78774 0.08600
C 	C 	0.52350 0.68002 0.98229 0.04600
C 	C 	0.02073 0.42583 0.88259 0.15000
C 	C 	0.58018 0.26085 0.86340 0.28200
C 	C 	0.61378 0.52541 0.93263 0.30900
C 	C 	0.53798 0.21491 0.98004 0.30100
O 	O 	0.61146 0.35488 0.86004 -0.35900
O 	O 	0.55625 0.19210 0.94835 -0.38900
O 	O 	0.59407 0.45531 0.95571 -0.38200
C 	C 	0.57852 0.10791 0.58179 0.32600
O 	O 	0.58819 0.40331 0.55021 -0.37000
C 	C 	0.58138 0.64732 0.19672 0.00800
C 	C 	0.56852 0.66543 0.16070 -0.06100
C 	C 	0.54352 0.70965 0.33702 -0.06100
C 	C 	0.55037 0.74478 0.30220 -0.00600
C 	C 	0.54907 0.63331 0.51085 0.05600
C 	C 	0.59186 0.56661 0.68190 0.08900
C 	C 	0.58998 0.59672 0.94268 -0.08600
C 	C 	0.56316 0.64376 0.95827 0.04500
O 	O 	0.59393 0.29757 0.99669 -0.37000
Ni	Ni	0.60029 0.23803 0.64216 1.12300
H 	H 	0.61213 0.34536 0.92364 0.16500
Ni	Ni	0.60245 0.28461 0.55809 1.11500
H 	H 	0.60241 0.36218 0.60932 0.17300
N 	N 	0.62277 0.23884 0.76959 -0.11100
O 	O 	0.63058 0.22628 0.87702 -0.37100
C 	C 	0.60509 0.60919 0.53050 0.04600
O 	O 	0.66775 0.54025 0.90462 -0.36200
O 	O 	0.64334 0.34353 0.68121 -0.36300
O 	O 	0.64249 0.18718 0.57061 -0.38900
O 	O 	0.63849 0.33075 0.60438 -0.71700
H 	H 	0.63663 0.72845 0.11092 0.05500
C 	C 	0.65164 0.49140 0.55829 0.30500
C 	C 	0.64427 0.72169 0.13938 -0.01100
C 	C 	0.62108 0.72064 0.35422 0.00800
C 	C 	0.63433 0.80602 0.28716 0.00300
C 	C 	0.63822 0.85291 0.25361 0.09300
C 	C 	0.61504 0.67598 0.38844 0.08900
N 	N 	0.64105 0.89040 0.22676 -0.10500
N 	N 	0.61054 0.64020 0.41584 -0.10100
C 	C 	0.63818 0.56727 0.54517 -0.07600
C 	C 	0.66428 0.57625 0.70435 0.00600
O 	O 	0.67635 0.37035 0.92788 -0.71100
C 	C 	0.67077 0.43806 0.67689 0.28600
Ni	Ni	0.68766 0.42540 0.97391 1.12200
Ni	Ni	0.67971 0.25264 0.92837 1.12100
C 	C 	0.66717 0.69676 0.21180 -0.01200
C 	C 	0.68122 0.49848 0.70837 -0.05600
H 	H 	0.67696 0.68457 0.23957 0.04500
O 	O 	0.70994 0.22527 0.64405 -0.37900
H 	H 	0.71702 0.72885 0.71258 0.05700
C 	C 	0.72368 0.66634 0.71919 -0.00900
O 	O 	0.70646 0.48435 0.64665 -0.38100
C 	C 	0.01498 0.79715 0.88836 0.09200
Ni	Ni	0.72359 0.45278 0.88805 1.11500
O 	O 	0.72098 0.35922 0.52968 -0.37000
C 	C 	0.73943 0.50356 0.73569 -0.01300
O 	O 	0.72548 0.24671 0.97805 -0.38100
N 	N 	0.75114 0.99579 0.79945 -0.09700
C 	C 	0.71332 0.82363 0.30557 -0.06100
C 	C 	0.70534 0.77692 0.33842 -0.01000
H 	H 	0.74715 0.44129 0.74154 0.05600
O 	O 	0.73271 0.50939 0.56940 -0.36300
C 	C 	0.72912 0.77313 0.15487 0.00800
H 	H 	0.75134 0.19697 0.83388 0.06200
C 	C 	0.73916 0.76657 0.19193 -0.05700
Ni	Ni	0.75649 0.43491 0.60947 1.12200
H 	H 	0.01194 0.98582 0.73732 0.16800
O 	O 	0.77871 0.56803 0.96354 -0.36500
C 	C 	0.77972 0.32371 0.99671 0.33100
H 	H 	0.76480 0.78676 0.35227 0.05100
C 	C 	0.00274 0.28200 0.85094 0.09700
H 	H 	0.78756 0.73122 0.93274 0.06200
O 	O 	0.97719 0.15059 0.27424 -0.41000
H 	H 	0.96760 0.28047 0.31599 0.01700
N 	N 	0.97450 0.46106 0.37110 -0.14200
H 	H 	0.99368 0.87917 0.38645 0.01900
N 	N 	0.99348 0.71012 0.44583 -0.13400
C 	C 	0.84254 0.59637 0.93928 0.28900
C 	C 	0.82779 0.34709 0.87838 0.28700
O 	O 	0.79074 0.40842 0.98831 -0.39000
O 	O 	0.83997 0.53466 0.91595 -0.37000
O 	O 	0.78822 0.38832 0.86147 -0.35300
O 	O 	0.80795 0.32118 0.91170 -0.37500
C 	C 	0.79528 0.36637 0.54194 0.32300
C 	C 	0.78932 0.29728 0.65130 0.30800
O 	O 	0.80545 0.38722 0.64928 -0.38100
O 	O 	0.81508 0.38255 0.57586 -0.37800
C 	C 	0.87265 0.77402 0.74741 0.29300
C 	C 	0.97620 0.86534 0.83513 0.28400
C 	C 	0.99204 0.14238 0.81680 0.29100
C 	C 	0.95809 0.12876 0.73078 0.25400
Ni	Ni	0.91590 0.95875 0.78118 1.12400
O 	O 	0.95332 0.78256 0.75161 -0.37400
O 	O 	0.86186 0.85070 0.74503 -0.37800
O 	O 	0.89663 0.04981 0.74794 -0.37300
O 	O 	0.90830 0.85640 0.81584 -0.37200
O 	O 	0.95647 0.04996 0.82222 -0.40000
C 	C 	0.80403 0.88808 0.29036 0.29000
C 	C 	0.82235 0.83468 0.21054 0.28500
Ni	Ni	0.92639 0.04030 0.23667 1.09300
Ni	Ni	0.95896 0.86811 0.26936 1.10800
O 	O 	0.81678 0.96196 0.27039 -0.35300
O 	O 	0.87295 0.88195 0.30246 -0.38900
O 	O 	0.86404 0.92671 0.20074 -0.36400
O 	O 	0.85954 0.79836 0.23245 -0.38100
C 	C 	0.96562 0.13244 0.12835 0.04400
N 	N 	0.88851 0.09114 0.13103 -0.10900
C 	C 	0.80589 0.82856 0.13230 0.09500
N 	N 	0.86736 0.87285 0.11421 -0.10300
C 	C 	0.86050 0.36739 0.51787 -0.06900
C 	C 	0.92239 0.37693 0.49988 0.00200
C 	C 	0.92661 0.18185 0.70827 -0.05200
C 	C 	0.89384 0.14703 0.67402 -0.01000
C 	C 	0.86287 0.19580 0.65221 0.00900
C 	C 	0.85685 0.27508 0.66593 -0.06500
C 	C 	0.89802 0.31560 0.69866 -0.01000
C 	C 	0.93605 0.27128 0.71927 0.01000
H 	H 	0.89335 0.08259 0.66423 0.04500
H 	H 	0.89799 0.37962 0.70860 0.05000
C 	C 	0.99119 0.32221 0.74952 0.04700
C 	C 	0.83643 0.16373 0.61585 0.09100
N 	N 	0.81527 0.13814 0.58673 -0.10400
C 	C 	0.79564 0.59224 0.75235 0.00600
C 	C 	0.79495 0.67650 0.74066 -0.06000
C 	C 	0.85035 0.59533 0.78224 0.08200
N 	N 	0.89405 0.59778 0.80623 -0.11800
C 	C 	0.82704 0.31646 0.02714 -0.10800
C 	C 	0.87492 0.32809 0.05241 0.06800
C 	C 	0.94114 0.36279 0.07928 -0.02900
C 	C 	0.94981 0.19543 0.83251 -0.12300
C 	C 	0.96506 0.33699 0.86372 -0.08500
C 	C 	0.87367 0.30571 0.85782 -0.02700
C 	C 	0.82182 0.22140 0.83821 -0.04200
C 	C 	0.85798 0.16403 0.82691 0.04300
C 	C 	0.79903 0.07069 0.81154 0.04400
C 	C 	0.89614 0.69951 0.93013 -0.03300
C 	C 	0.85098 0.74940 0.92032 -0.03400
C 	C 	0.88235 0.81451 0.89158 0.03100
C 	C 	0.95973 0.82941 0.87275 -0.10700
C 	C 	0.98430 0.73462 0.91779 -0.08400
C 	C 	0.83714 0.86799 0.88268 0.08600
N 	N 	0.80073 0.91075 0.87566 -0.10100
