data_crystal

_cell_length_a 18.49692
_cell_length_b 18.83289
_cell_length_c 26.51972
_cell_angle_alpha 95.42420
_cell_angle_beta  95.42496
_cell_angle_gamma 126.43584

_symmetry_space_group_name_	'P 1'
_symmetry_space_group_name_H-M	'P 1'

loop_
_symmetry_equiv_pos_as_xyz
  x,y,z

loop_
_atom_site_label
_atom_site_type_symbol
_atom_site_fract_x
_atom_site_fract_y
_atom_site_fract_z
_atom_site_charge
C 	C 	0.95737 0.04208 0.99509 0.17100
N 	N 	0.90292 0.95241 0.99474 -0.10900
C 	C 	0.93775 0.90625 0.99164 0.18400
N 	N 	0.02711 0.94977 0.98875 -0.10600
C 	C 	0.08178 0.03916 0.98853 0.17100
N 	N 	0.04698 0.08559 0.99194 -0.11500
C 	C 	0.89833 0.98472 0.44809 0.21100
N 	N 	0.99017 0.03957 0.45029 -0.11800
C 	C 	0.03755 0.00570 0.45111 0.18200
N 	N 	0.99303 0.91664 0.44975 -0.12300
C 	C 	0.90152 0.86118 0.44817 0.18800
N 	N 	0.85375 0.89523 0.44785 -0.13600
Cu	Cu	0.62999 0.21595 0.01149 0.93200
Cu	Cu	0.71088 0.24221 0.90473 0.87600
Cu	Cu	0.65568 0.35024 0.94604 0.90200
Cu	Cu	0.63760 0.38288 0.05573 0.91800
C 	C 	0.65898 0.27457 0.12059 0.29200
O 	O 	0.49745 0.16630 0.01290 -0.34800
C 	C 	0.64494 0.30730 0.83452 0.28900
O 	O 	0.70075 0.35524 0.01685 -0.63000
O 	O 	0.61437 0.22485 0.93842 -0.64300
O 	O 	0.68902 0.15579 0.00413 -0.32600
O 	O 	0.79270 0.26263 0.96303 -0.43000
O 	O 	0.61569 0.30831 0.10933 -0.35600
O 	O 	0.68633 0.46972 0.95462 -0.34600
C 	C 	0.72582 0.53016 0.99768 0.33700
C 	C 	0.46419 0.20831 0.99789 0.32200
O 	O 	0.51993 0.29376 0.99494 -0.37100
O 	O 	0.70840 0.50669 0.04286 -0.36900
O 	O 	0.66642 0.22785 0.08411 -0.33400
C 	C 	0.76798 0.19766 0.98864 0.32900
O 	O 	0.62610 0.34297 0.87154 -0.35400
O 	O 	0.65450 0.24459 0.84122 -0.40300
H 	H 	0.76824 0.39559 0.02727 0.17900
H 	H 	0.55174 0.18004 0.91801 0.18200
Cu	Cu	0.75024 0.33210 0.44590 0.92800
Cu	Cu	0.73162 0.26095 0.55555 0.88700
Cu	Cu	0.61127 0.30230 0.51166 0.90600
Cu	Cu	0.58164 0.32725 0.40454 0.90500
C 	C 	0.68778 0.30266 0.33700 0.29600
O 	O 	0.80304 0.46345 0.44327 -0.35500
C 	C 	0.65978 0.32109 0.62377 0.28900
O 	O 	0.60820 0.26198 0.44106 -0.63600
O 	O 	0.74173 0.35012 0.51899 -0.63800
O 	O 	0.80855 0.27003 0.45278 -0.35700
O 	O 	0.70423 0.17487 0.49853 -0.39200
O 	O 	0.65257 0.34442 0.34853 -0.37300
O 	O 	0.48199 0.24771 0.50333 -0.34500
C 	C 	0.42667 0.22912 0.46032 0.34200
C 	C 	0.76158 0.49751 0.45854 0.32800
O 	O 	0.67628 0.44335 0.46441 -0.37100
O 	O 	0.45807 0.26945 0.42091 -0.38000
O 	O 	0.73590 0.29538 0.37321 -0.35500
C 	C 	0.76653 0.19439 0.47068 0.32500
O 	O 	0.61761 0.33246 0.58591 -0.34800
O 	O 	0.72844 0.31905 0.61754 -0.39500
H 	H 	0.56666 0.19597 0.42923 0.18000
H 	H 	0.78514 0.41271 0.53832 0.19300
C 	C 	0.71204 0.40321 0.71403 -0.03600
C 	C 	0.64235 0.32881 0.67640 -0.07800
C 	C 	0.56369 0.25567 0.69141 0.11400
C 	C 	0.56159 0.25364 0.74413 -0.03500
C 	C 	0.63609 0.32361 0.78179 -0.08200
C 	C 	0.70936 0.40162 0.76673 0.11700
N 	N 	0.77816 0.47421 0.80255 -0.20200
H 	H 	0.77062 0.46080 0.70239 0.06600
H 	H 	0.50379 0.19535 0.75580 0.06000
N 	N 	0.49111 0.18640 0.65558 -0.20100
H 	H 	0.83339 0.53057 0.79116 0.11700
H 	H 	0.77630 0.47645 0.84185 0.12800
H 	H 	0.48897 0.18742 0.61621 0.12200
H 	H 	0.43449 0.13142 0.66703 0.11100
C 	C 	0.61930 0.20600 0.25034 -0.03900
C 	C 	0.69376 0.28564 0.28275 -0.08200
C 	C 	0.76553 0.35434 0.26120 0.12700
C 	C 	0.75694 0.34540 0.20731 -0.04100
C 	C 	0.67800 0.26964 0.17484 -0.07300
C 	C 	0.61053 0.19721 0.19644 0.12800
N 	N 	0.53643 0.12005 0.16579 -0.19700
H 	H 	0.56566 0.15238 0.26701 0.05400
H 	H 	0.80976 0.39975 0.19065 0.05700
N 	N 	0.84171 0.42971 0.29188 -0.19900
H 	H 	0.48574 0.06792 0.18207 0.10900
H 	H 	0.52934 0.11013 0.12570 0.12400
H 	H 	0.85167 0.43714 0.33200 0.11600
H 	H 	0.89314 0.48124 0.27562 0.11100
C 	C 	0.81473 0.72618 0.48898 -0.11400
C 	C 	0.85524 0.76457 0.44734 -0.06100
C 	C 	0.86785 0.71591 0.41039 0.31800
C 	C 	0.84213 0.63084 0.41574 -0.07400
C 	C 	0.80250 0.59277 0.45768 -0.13200
C 	C 	0.78874 0.64092 0.49430 0.35200
F 	F 	0.75077 0.60535 0.53523 -0.43700
H 	H 	0.80626 0.76362 0.51822 0.11000
H 	H 	0.85092 0.59362 0.38653 0.09700
F 	F 	0.90630 0.75172 0.36961 -0.41800
C 	C 	0.80642 0.02156 0.48979 -0.13000
C 	C 	0.84855 0.02365 0.44813 -0.07000
C 	C 	0.85855 0.07774 0.41201 0.32400
C 	C 	0.83080 0.13242 0.41902 -0.07200
C 	C 	0.79274 0.13379 0.46215 -0.13200
C 	C 	0.77936 0.07671 0.49718 0.35300
F 	F 	0.74389 0.07746 0.53958 -0.45800
H 	H 	0.79900 0.98075 0.51805 0.12200
H 	H 	0.83964 0.17420 0.39111 0.10900
F 	F 	0.89760 0.07922 0.37088 -0.40300
C 	C 	0.19170 0.05023 0.48547 -0.14100
C 	C 	0.13752 0.06573 0.45527 -0.04800
C 	C 	0.17899 0.13659 0.42777 0.31600
C 	C 	0.27354 0.19088 0.43034 -0.06600
C 	C 	0.32755 0.17423 0.45972 -0.13700
C 	C 	0.28604 0.10360 0.48742 0.36500
F 	F 	0.33671 0.08514 0.51511 -0.45100
H 	H 	0.16050 0.99620 0.50714 0.13100
H 	H 	0.30476 0.24562 0.40920 0.10600
F 	F 	0.12744 0.15123 0.39739 -0.40000
C 	C 	0.76655 0.68126 0.02678 -0.06100
C 	C 	0.77655 0.62546 0.99428 -0.13900
C 	C 	0.83673 0.66162 0.95939 0.36100
C 	C 	0.88721 0.75290 0.95758 -0.11800
C 	C 	0.87883 0.80911 0.99090 -0.06000
C 	C 	0.81766 0.77273 0.02530 0.32300
F 	F 	0.80997 0.82648 0.05843 -0.41500
H 	H 	0.71957 0.65382 0.05345 0.10800
H 	H 	0.93381 0.78028 0.93071 0.12800
F 	F 	0.84849 0.60890 0.92845 -0.45500
C 	C 	0.86409 0.07956 0.03417 -0.11200
C 	C 	0.91836 0.09111 0.99738 -0.06000
C 	C 	0.92728 0.14205 0.95972 0.31300
C 	C 	0.87955 0.17809 0.95767 -0.07300
C 	C 	0.82247 0.16387 0.99329 -0.14600
C 	C 	0.81673 0.11612 0.03240 0.36700
F 	F 	0.76589 0.10558 0.06883 -0.42400
H 	H 	0.85771 0.04123 0.06376 0.12900
H 	H 	0.88507 0.21509 0.92748 0.08100
F 	F 	0.97891 0.15322 0.92366 -0.42700
C 	C 	0.30075 0.08389 0.96090 -0.06400
C 	C 	0.36642 0.16551 0.99479 -0.14200
C 	C 	0.33858 0.20812 0.02448 0.36700
C 	C 	0.24567 0.16864 0.02070 -0.11300
C 	C 	0.17964 0.08617 0.98742 -0.05200
C 	C 	0.20774 0.04463 0.95678 0.29800
F 	F 	0.14495 0.96654 0.92288 -0.40900
H 	H 	0.32177 0.05136 0.93731 0.08500
H 	H 	0.22491 0.20086 0.04481 0.11900
F 	F 	0.40155 0.28668 0.05797 -0.44600
