data_crystal

_cell_length_a 16.51570
_cell_length_b 15.53666
_cell_length_c 37.41957
_cell_angle_alpha 89.87760
_cell_angle_beta  89.88003
_cell_angle_gamma 119.40376

_symmetry_space_group_name_	'P 1'
_symmetry_space_group_name_H-M	'P 1'

loop_
_symmetry_equiv_pos_as_xyz
  x,y,z

loop_
_atom_site_label
_atom_site_type_symbol
_atom_site_fract_x
_atom_site_fract_y
_atom_site_fract_z
_atom_site_charge
Ni	Ni	0.07776 0.92494 0.74270 1.12600
Ni	Ni	0.14949 0.16362 0.75193 1.12300
O 	O 	0.00593 0.12656 0.20763 -0.35600
O 	O 	0.06491 0.18998 0.28357 -0.35600
O 	O 	0.00383 0.99187 0.25878 -0.69000
H 	H 	0.00283 0.97889 0.28462 0.16500
C 	C 	0.01787 0.27156 0.08369 0.15800
N 	N 	0.03997 0.46824 0.21432 -0.08700
C 	C 	0.01930 0.61601 0.45823 0.03500
C 	C 	0.00442 0.82343 0.63368 0.15100
C 	C 	0.02232 0.48271 0.97284 0.09200
C 	C 	0.05923 0.59410 0.02337 0.05500
H 	H 	0.04140 0.46659 0.94695 0.08700
N 	N 	0.16922 0.37410 0.85246 -0.04700
C 	C 	0.23744 0.05878 0.79189 0.24200
C 	C 	0.22830 0.07618 0.69791 0.26700
O 	O 	0.20791 0.99251 0.76617 -0.33000
O 	O 	0.22243 0.13629 0.79087 -0.33600
O 	O 	0.14640 0.99591 0.69619 -0.31700
O 	O 	0.23906 0.15514 0.71544 -0.33000
C 	C 	0.16898 0.40544 0.41937 0.31100
C 	C 	0.22433 0.62367 0.33679 0.30600
C 	C 	0.09976 0.63304 0.43654 0.29900
O 	O 	0.12213 0.56468 0.43731 -0.36800
O 	O 	0.19408 0.44369 0.45169 -0.34400
O 	O 	0.19151 0.63871 0.36575 -0.37500
O 	O 	0.16189 0.72204 0.42535 -0.31500
C 	C 	0.24146 0.64992 0.16121 0.30700
C 	C 	0.22154 0.41861 0.08638 0.30100
C 	C 	0.13425 0.62164 0.04940 0.29500
O 	O 	0.18305 0.71212 0.06220 -0.28400
O 	O 	0.20845 0.64955 0.13005 -0.36900
O 	O 	0.23709 0.47882 0.11243 -0.36700
O 	O 	0.25376 0.45393 0.05395 -0.33500
O 	O 	0.16343 0.55982 0.05433 -0.36500
C 	C 	0.09388 0.16272 0.19862 0.29300
C 	C 	0.11022 0.17111 0.30831 0.28600
C 	C 	0.08891 0.88113 0.20434 0.30200
C 	C 	0.07870 0.84382 0.28148 0.28300
Ni	Ni	0.13534 0.04683 0.25353 1.10500
O 	O 	0.14426 0.97645 0.20961 -0.35100
O 	O 	0.15494 0.16579 0.22250 -0.35600
O 	O 	0.13417 0.94053 0.28569 -0.34500
O 	O 	0.15918 0.12816 0.29914 -0.35900
C 	C 	0.12578 0.21556 0.16281 -0.05200
C 	C 	0.06524 0.23826 0.14271 0.03500
C 	C 	0.08646 0.26789 0.10668 0.00500
C 	C 	0.17896 0.31265 0.09546 -0.03800
C 	C 	0.23609 0.28076 0.11226 0.00400
C 	C 	0.21164 0.23538 0.14672 0.01200
C 	C 	0.12870 0.81566 0.19466 -0.05200
C 	C 	0.22130 0.85792 0.18301 -0.00700
C 	C 	0.22110 0.70285 0.18973 -0.06100
C 	C 	0.12849 0.65780 0.20205 0.00300
C 	C 	0.08048 0.71276 0.20310 0.01800
C 	C 	0.07924 0.55246 0.20893 0.10900
C 	C 	0.10969 0.20296 0.34663 -0.05500
C 	C 	0.18189 0.21800 0.37098 0.00700
C 	C 	0.18645 0.26143 0.40479 0.00900
C 	C 	0.12621 0.29866 0.41254 -0.05400
C 	C 	0.04155 0.25631 0.39432 0.03400
C 	C 	0.03661 0.21913 0.35940 0.02300
C 	C 	0.19749 0.65301 0.30308 -0.05700
C 	C 	0.10150 0.61075 0.29704 -0.00500
C 	C 	0.06114 0.67254 0.29400 0.02300
C 	C 	0.11902 0.77533 0.28689 -0.05600
C 	C 	0.21654 0.81192 0.28298 0.00200
C 	C 	0.25471 0.74960 0.29028 -0.00600
C 	C 	0.04298 0.50488 0.30051 0.13400
C 	C 	0.03014 0.61665 0.49555 -0.10500
C 	C 	0.08910 0.71133 0.51542 0.79000
F 	F 	0.03494 0.72499 0.54042 -0.42400
F 	F 	0.12656 0.79153 0.49245 -0.42700
F 	F 	0.15946 0.70582 0.53334 -0.44200
C 	C 	0.24547 0.04466 0.62149 0.14900
N 	N 	0.19069 0.04121 0.60145 -0.03500
N 	N 	0.08019 0.83854 0.63545 -0.07600
C 	C 	0.07724 0.57642 0.98779 -0.12600
C 	C 	0.14689 0.65813 0.96424 0.79000
F 	F 	0.10461 0.66040 0.93263 -0.42500
F 	F 	0.21916 0.64050 0.95618 -0.44300
F 	F 	0.18111 0.74899 0.98030 -0.39600
C 	C 	0.25625 0.12848 0.86613 0.14400
N 	N 	0.20141 0.14544 0.87858 -0.05300
O 	O 	0.05462 0.02883 0.75478 -0.72000
H 	H 	0.05795 0.02482 0.78096 0.14300
O 	O 	0.09132 0.21377 0.78948 -0.35800
O 	O 	0.09316 0.20333 0.71138 -0.35200
O 	O 	0.19670 0.46303 0.39192 -0.36900
C 	C 	0.27017 0.80697 0.18854 -0.00500
F 	F 	0.20726 0.33843 0.57128 -0.42600
N 	N 	0.11404 0.45617 0.75167 -0.09500
C 	C 	0.31441 0.04973 0.64644 0.02500
F 	F 	0.24451 0.89434 0.02203 -0.39100
N 	N 	0.08308 0.57643 0.84927 -0.06300
N 	N 	0.01564 0.78142 0.95335 -0.00900
C 	C 	0.26255 0.94675 0.16148 0.15800
F 	F 	0.30048 0.05421 0.00977 -0.42500
N 	N 	0.13282 0.89345 0.85723 -0.08100
C 	C 	0.10004 0.35565 0.83856 0.11400
C 	C 	0.05344 0.85974 0.86092 0.15200
F 	F 	0.26703 0.38060 0.94878 -0.42300
F 	F 	0.33992 0.00874 0.06102 -0.46200
C 	C 	0.25203 0.19168 0.36144 0.11700
C 	C 	0.27802 0.91318 0.27183 0.09800
N 	N 	0.30823 0.17080 0.35397 -0.08600
C 	C 	0.30940 0.06072 0.81693 -0.01900
C 	C 	0.25693 0.27393 0.43030 0.12200
C 	C 	0.33769 0.94221 0.78070 0.16500
N 	N 	0.31368 0.87912 0.76002 -0.10000
C 	C 	0.31211 0.07556 0.68271 -0.04400
Ni	Ni	0.23792 0.59189 0.46156 1.13300
Ni	Ni	0.27904 0.74413 0.39820 1.12900
O 	O 	0.29624 0.60866 0.33910 -0.34400
O 	O 	0.27269 0.73084 0.48141 -0.28500
O 	O 	0.30874 0.65215 0.42002 -0.72300
Ni	Ni	0.29485 0.75074 0.09567 1.13500
Ni	Ni	0.28979 0.59773 0.03858 1.13700
O 	O 	0.31436 0.63667 0.16318 -0.34600
O 	O 	0.31832 0.72972 0.01336 -0.28000
O 	O 	0.34075 0.66531 0.08159 -0.72000
C 	C 	0.32240 0.30045 0.09536 0.12300
C 	C 	0.27774 0.21773 0.16623 0.11200
N 	N 	0.33100 0.20446 0.18190 -0.09300
N 	N 	0.29570 0.01732 0.14396 -0.09300
C 	C 	0.35335 0.78741 0.28648 0.11100
N 	N 	0.32724 0.99396 0.26301 -0.09100
H 	H 	0.28038 0.93259 0.50168 0.13300
F 	F 	0.27962 0.08834 0.50493 -0.41400
H 	H 	0.27737 0.38281 0.50661 0.08900
C 	C 	0.28847 0.33434 0.57568 0.78200
F 	F 	0.31151 0.34738 0.61158 -0.42800
F 	F 	0.27330 0.24242 0.56520 -0.38900
C 	C 	0.39340 0.04588 0.63350 -0.02800
C 	C 	0.38602 0.98559 0.60320 0.19700
N 	N 	0.38013 0.93594 0.57927 -0.06900
C 	C 	0.32161 0.98658 0.02517 0.81900
H 	H 	0.34659 0.39148 0.01462 0.08900
C 	C 	0.33889 0.36045 0.94323 0.78200
F 	F 	0.31033 0.26476 0.95420 -0.41600
F 	F 	0.35847 0.36850 0.90699 -0.43400
C 	C 	0.32485 0.10716 0.85053 0.00400
C 	C 	0.36812 0.02114 0.80663 -0.04700
C 	C 	0.40643 0.12894 0.86942 0.02500
C 	C 	0.41506 0.15432 0.90679 0.12000
N 	N 	0.42095 0.17369 0.93682 -0.05500
N 	N 	0.31353 0.28330 0.45053 -0.03900
C 	C 	0.34066 0.81872 0.46917 0.31300
Ni	Ni	0.33202 0.57116 0.38933 1.12000
O 	O 	0.39616 0.79147 0.36465 -0.33900
O 	O 	0.35234 0.84070 0.43489 -0.34200
H 	H 	0.37001 0.69689 0.43037 0.21800
C 	C 	0.37019 0.82314 0.02559 0.31200
Ni	Ni	0.36619 0.59725 0.11755 1.12000
O 	O 	0.37545 0.84535 0.05961 -0.32700
O 	O 	0.40369 0.81562 0.13279 -0.33600
H 	H 	0.40298 0.71468 0.07322 0.19400
N 	N 	0.39142 0.31593 0.08188 -0.06500
C 	C 	0.36389 0.86158 0.20155 0.11200
C 	C 	0.35488 0.96342 0.50092 0.11500
C 	C 	0.37206 0.13118 0.51482 0.79900
F 	F 	0.37830 0.14587 0.55135 -0.43600
C 	C 	0.36497 0.41292 0.55308 -0.07900
C 	C 	0.34728 0.42547 0.51701 0.06800
C 	C 	0.38964 0.09647 0.70483 0.00400
C 	C 	0.41176 0.16290 0.73474 0.10400
N 	N 	0.43104 0.21769 0.75827 -0.09500
C 	C 	0.40681 0.99284 0.00717 -0.03300
C 	C 	0.38639 0.54581 0.46809 0.30900
O 	O 	0.37291 0.51348 0.43397 -0.31000
O 	O 	0.35544 0.60363 0.47989 -0.31500
O 	O 	0.42691 0.54171 0.07946 -0.32000
O 	O 	0.41821 0.62433 0.02946 -0.34400
N 	N 	0.41125 0.67655 0.22489 -0.09300
N 	N 	0.43866 0.90904 0.21222 -0.08900
N 	N 	0.43028 0.59581 0.29603 -0.09600
N 	N 	0.43264 0.81996 0.28313 -0.09500
C 	C 	0.41332 0.06630 0.50497 -0.15300
C 	C 	0.39240 0.90132 0.49348 0.01100
F 	F 	0.41988 0.22162 0.49770 -0.42400
C 	C 	0.46010 0.07985 0.69097 0.00100
C 	C 	0.47428 0.08626 0.65417 -0.03600
C 	C 	0.41543 0.90697 0.00078 0.01500
H 	H 	0.47744 0.15231 0.00631 0.11400
C 	C 	0.42237 0.43147 0.96479 -0.09100
C 	C 	0.41285 0.43935 0.00191 0.05900
C 	C 	0.45430 0.05451 0.82411 0.04400
C 	C 	0.03688 0.49799 0.83788 0.14500
C 	C 	0.44830 0.57039 0.04512 0.31300
C 	C 	0.41696 0.50021 0.49557 0.02500
C 	C 	0.48304 0.08698 0.00065 0.00300
C 	C 	0.47884 0.12294 0.85177 -0.06600
C 	C 	0.05757 0.40663 0.73139 0.11800
C 	C 	0.46796 0.77292 0.36808 0.30000
O 	O 	0.45849 0.69455 0.38506 -0.32700
C 	C 	0.48041 0.80565 0.13571 0.29900
O 	O 	0.48394 0.72927 0.12270 -0.34500
C 	C 	0.47614 0.73582 0.20988 0.10000
C 	C 	0.49027 0.66809 0.30752 0.10000
C 	C 	0.45627 0.46742 0.56641 0.01900
C 	C 	0.48149 0.52007 0.02103 0.01300
C 	C 	0.49816 0.41043 0.58131 0.30800
C 	C 	0.48965 0.94228 0.49400 -0.04500
F 	F 	0.47932 0.79032 0.51140 -0.41000
C 	C 	0.52362 0.06810 0.71410 0.10200
C 	C 	0.49437 0.91817 0.98292 0.11100
C 	C 	0.51025 0.48807 0.94853 0.01600
C 	C 	0.51421 0.01400 0.81548 0.06400
C 	C 	0.55200 0.18025 0.64131 0.28100
O 	O 	0.51559 0.35968 0.55792 -0.30800
O 	O 	0.54772 0.26070 0.64931 -0.34300
C 	C 	0.51077 0.10642 0.50284 0.06400
C 	C 	0.50586 0.55807 0.51054 -0.08000
H 	H 	0.50006 0.85311 0.97683 0.09600
O 	O 	0.01007 0.85222 0.78977 -0.32900
C 	C 	0.54631 0.43405 0.92755 0.30700
O 	O 	0.54385 0.43606 0.61281 -0.32200
C 	C 	0.51679 0.55363 0.54761 0.05500
N 	N 	0.53400 0.61489 0.63247 -0.07200
C 	C 	0.57002 0.21369 0.85010 0.28400
O 	O 	0.57054 0.29793 0.84471 -0.34600
O 	O 	0.56569 0.37568 0.94614 -0.35600
C 	C 	0.55171 0.86285 0.16225 -0.04800
C 	C 	0.54971 0.82091 0.34412 -0.03500
C 	C 	0.54600 0.04497 0.49208 0.00000
C 	C 	0.53301 0.87650 0.49235 0.78000
F 	F 	0.53942 0.85365 0.45713 -0.42100
C 	C 	0.56344 0.09742 0.98446 0.06100
C 	C 	0.55867 0.80953 0.19170 0.00900
C 	C 	0.56677 0.75780 0.32177 0.01200
N 	N 	0.57464 0.05761 0.73230 -0.09700
C 	C 	0.56842 0.57849 0.00438 -0.08600
N 	N 	0.56210 0.98131 0.80886 -0.03800
O 	O 	0.58367 0.46570 0.89469 -0.32600
C 	C 	0.57068 0.18847 0.52623 0.28700
H 	H 	0.57945 0.28329 0.58712 0.18700
C 	C 	0.57272 0.01218 0.97928 -0.13300
C 	C 	0.57648 0.57137 0.96721 0.05100
N 	N 	0.58631 0.66122 0.89081 -0.06900
H 	H 	0.57852 0.61017 0.56039 0.09200
N 	N 	0.59848 0.03601 0.39220 -0.09900
O 	O 	0.60337 0.16473 0.55440 -0.35200
F 	F 	0.57806 0.59113 0.45314 -0.41300
C 	C 	0.58772 0.62736 0.48755 0.78100
H 	H 	0.61276 0.30069 0.90728 0.17100
C 	C 	0.61085 0.98081 0.37555 0.18200
F 	F 	0.59365 0.71899 0.48634 -0.37300
C 	C 	0.61860 0.18543 0.96225 0.28800
O 	O 	0.60997 0.28160 0.51406 -0.26600
C 	C 	0.61413 0.65032 0.63261 0.10700
N 	N 	0.62170 0.06420 0.10331 -0.04800
C 	C 	0.01332 0.33261 0.82119 0.05600
O 	O 	0.63172 0.18588 0.62967 -0.34200
C 	C 	0.62686 0.01171 0.12404 0.08300
C 	C 	0.62629 0.91160 0.35477 0.01100
H 	H 	0.62032 0.07655 0.48814 0.11800
F 	F 	0.62109 0.92309 0.50713 -0.39200
O 	O 	0.63442 0.16986 0.92912 -0.33400
C 	C 	0.63320 0.94585 0.14994 0.04700
H 	H 	0.63925 0.62453 0.95388 0.09200
C 	C 	0.01116 0.19927 0.71316 0.32100
Ni	Ni	0.64560 0.39753 0.63185 1.11700
O 	O 	0.64382 0.33784 0.58765 -0.71800
O 	O 	0.64976 0.21174 0.85513 -0.34500
Ni	Ni	0.64716 0.40501 0.54493 1.14600
F 	F 	0.64458 0.74557 0.02271 -0.39800
C 	C 	0.64481 0.81847 0.20032 0.01900
C 	C 	0.64849 0.65883 0.02497 0.78000
F 	F 	0.64440 0.63231 0.06055 -0.41800
C 	C 	0.64922 0.73872 0.21868 0.09900
O 	O 	0.65920 0.27629 0.97683 -0.28000
N 	N 	0.65256 0.67435 0.23288 -0.09500
C 	C 	0.66428 0.68915 0.88528 0.11500
C 	C 	0.65732 0.77350 0.31804 0.01100
C 	C 	0.66536 0.02057 0.96927 0.76600
Ni	Ni	0.67432 0.42627 0.86577 1.11700
N 	N 	0.67433 0.76818 0.71842 -0.08700
F 	F 	0.66968 0.63775 0.50138 -0.42300
F 	F 	0.67018 0.01251 0.93264 -0.44700
O 	O 	0.67823 0.35197 0.90533 -0.71100
C 	C 	0.67256 0.68954 0.31506 0.12600
F 	F 	0.67469 0.94567 0.98543 -0.37100
O 	O 	0.68204 0.54268 0.56542 -0.32100
N 	N 	0.68470 0.62244 0.31281 -0.07700
C 	C 	0.00072 0.17388 0.79712 0.32400
N 	N 	0.69392 0.26195 0.75745 -0.09600
O 	O 	0.99903 0.84594 0.20329 -0.36100
C 	C 	0.99323 0.25018 0.16045 0.09400
H 	H 	0.99258 0.52662 0.54293 0.08000
C 	C 	0.96592 0.26789 0.40855 0.10200
C 	C 	0.97748 0.52902 0.51485 0.04600
C 	C 	0.96023 0.20420 0.33643 0.08000
N 	N 	0.92639 0.81595 0.53751 -0.02500
N 	N 	0.99613 0.42027 0.30329 -0.10400
O 	O 	0.98688 0.80652 0.27847 -0.36800
C 	C 	0.96303 0.63188 0.30175 0.09600
N 	N 	0.89908 0.19288 0.31830 -0.11000
N 	N 	0.90549 0.27710 0.41997 -0.04800
N 	N 	0.96314 0.27447 0.06524 -0.05800
C 	C 	0.78570 0.59932 0.90825 0.30700
C 	C 	0.83135 0.39480 0.83984 0.30000
C 	C 	0.85924 0.39329 0.95818 0.31800
Ni	Ni	0.69735 0.40949 0.95125 1.14100
Ni	Ni	0.73440 0.27128 0.89955 1.13300
O 	O 	0.83081 0.45459 0.95008 -0.35600
O 	O 	0.79221 0.54715 0.88283 -0.36600
O 	O 	0.73664 0.55476 0.93727 -0.32800
O 	O 	0.76009 0.40421 0.82897 -0.34200
O 	O 	0.83953 0.38264 0.87355 -0.36900
O 	O 	0.82296 0.30644 0.94225 -0.30000
C 	C 	0.81025 0.36422 0.64518 0.30300
C 	C 	0.73710 0.58345 0.59320 0.30600
C 	C 	0.81603 0.40819 0.52665 0.31700
Ni	Ni	0.70562 0.26291 0.58405 1.13100
O 	O 	0.78627 0.31743 0.53890 -0.32100
O 	O 	0.74112 0.36916 0.66122 -0.33900
O 	O 	0.81358 0.36781 0.61075 -0.36900
O 	O 	0.75398 0.52905 0.61493 -0.36300
O 	O 	0.78189 0.46127 0.53895 -0.34700
C 	C 	0.91454 0.86467 0.69388 0.30200
C 	C 	0.93373 0.85263 0.80060 0.26500
Ni	Ni	0.92942 0.00286 0.75162 1.11100
O 	O 	0.93761 0.12167 0.72651 -0.39100
O 	O 	0.95567 0.83179 0.71552 -0.36200
O 	O 	0.90853 0.94339 0.70198 -0.34100
O 	O 	0.94625 0.07699 0.79718 -0.39200
O 	O 	0.88354 0.87005 0.77700 -0.34500
C 	C 	0.81978 0.90348 0.30362 0.28600
C 	C 	0.81181 0.93297 0.20757 0.32000
Ni	Ni	0.95129 0.07595 0.25814 1.09500
Ni	Ni	0.92645 0.85943 0.24394 1.12200
O 	O 	0.88181 0.99951 0.30403 -0.34100
O 	O 	0.82402 0.84088 0.27981 -0.35100
O 	O 	0.82331 0.98782 0.23534 -0.35700
O 	O 	0.86272 0.89044 0.20326 -0.34800
N 	N 	0.93560 0.25967 0.17448 -0.08600
C 	C 	0.72077 0.95826 0.15988 0.05100
C 	C 	0.72622 0.89825 0.18699 -0.06000
C 	C 	0.80096 0.01604 0.13748 0.08300
N 	N 	0.86444 0.06080 0.11906 -0.07300
C 	C 	0.98130 0.66190 0.20997 0.08500
N 	N 	0.90205 0.62098 0.21539 -0.08900
C 	C 	0.71825 0.93051 0.34804 0.00500
C 	C 	0.73248 0.86720 0.32505 -0.03600
C 	C 	0.79102 0.99151 0.37270 0.18300
N 	N 	0.84849 0.03865 0.39300 -0.11800
N 	N 	0.88467 0.59895 0.30802 -0.07200
C 	C 	0.89296 0.45525 0.50102 0.00700
C 	C 	0.87207 0.46243 0.46460 -0.08700
C 	C 	0.93248 0.54730 0.44446 0.04500
H 	H 	0.91768 0.55249 0.41658 0.09200
C 	C 	0.78091 0.38602 0.44839 0.77900
F 	F 	0.71296 0.41084 0.45588 -0.42700
F 	F 	0.75415 0.29298 0.46206 -0.43500
F 	F 	0.78889 0.38211 0.41167 -0.42800
C 	C 	0.86405 0.32244 0.66385 -0.06000
C 	C 	0.92158 0.37211 0.69338 0.01500
C 	C 	0.98782 0.34544 0.70566 -0.01100
C 	C 	0.99219 0.26512 0.69016 -0.05500
C 	C 	0.94549 0.22643 0.65796 0.01500
C 	C 	0.87527 0.24694 0.64676 0.01800
C 	C 	0.91357 0.45068 0.71088 0.09700
C 	C 	0.96472 0.15884 0.63773 0.12600
C 	C 	0.81309 0.18785 0.61845 0.06900
N 	N 	0.76449 0.13970 0.59578 -0.12000
N 	N 	0.98008 0.10487 0.62166 -0.07600
N 	N 	0.90716 0.51339 0.72491 -0.09800
C 	C 	0.86194 0.80443 0.66282 -0.05000
C 	C 	0.90900 0.80183 0.63164 0.00400
C 	C 	0.85705 0.75549 0.60096 0.02100
C 	C 	0.76346 0.68465 0.60466 -0.04000
C 	C 	0.71428 0.69622 0.63351 0.00200
C 	C 	0.76377 0.75557 0.66295 0.01400
C 	C 	0.71399 0.76256 0.69380 0.10400
C 	C 	0.89599 0.78866 0.56580 0.16900
C 	C 	0.93177 0.42396 0.98524 -0.00400
C 	C 	0.91031 0.44243 0.02016 -0.08300
C 	C 	0.96933 0.53368 0.03668 0.03700
H 	H 	0.95105 0.54948 0.06276 0.09900
C 	C 	0.82079 0.37003 0.03848 0.77700
F 	F 	0.78851 0.27550 0.02548 -0.40300
F 	F 	0.75467 0.39867 0.03298 -0.44700
F 	F 	0.83489 0.36821 0.07486 -0.42500
F 	F 	0.73877 0.10965 0.98034 -0.40100
F 	F 	0.73252 0.67482 0.01105 -0.41400
C 	C 	0.88585 0.36914 0.81476 -0.04800
C 	C 	0.83849 0.28556 0.79316 -0.01100
C 	C 	0.86999 0.21598 0.79076 0.01900
C 	C 	0.95958 0.24011 0.80419 -0.09700
C 	C 	0.97893 0.39978 0.82365 -0.03200
C 	C 	0.75794 0.27170 0.77329 0.11200
C 	C 	0.80712 0.11789 0.77754 0.09000
N 	N 	0.75650 0.03965 0.76694 -0.11000
C 	C 	0.81701 0.70436 0.90032 -0.04400
C 	C 	0.91325 0.76737 0.89846 0.03400
C 	C 	0.95408 0.81597 0.86585 -0.00600
C 	C 	0.89616 0.81778 0.83799 -0.03400
C 	C 	0.80103 0.78352 0.84623 0.00600
C 	C 	0.76153 0.72608 0.87739 0.00900
C 	C 	0.97029 0.77506 0.92889 0.13800
C 	C 	0.74555 0.81248 0.82460 0.12200
N 	N 	0.70080 0.83531 0.80751 -0.08000
