data_crystal

_cell_length_a 18.36685
_cell_length_b 17.75719
_cell_length_c 49.00774
_cell_angle_alpha 89.63482
_cell_angle_beta  89.64030
_cell_angle_gamma 119.44024

_symmetry_space_group_name_	'P 1'
_symmetry_space_group_name_H-M	'P 1'

loop_
_symmetry_equiv_pos_as_xyz
  x,y,z

loop_
_atom_site_label
_atom_site_type_symbol
_atom_site_fract_x
_atom_site_fract_y
_atom_site_fract_z
_atom_site_charge
H 	H 	0.03864 0.53281 0.90383 0.05200
O 	O 	0.06605 0.81897 0.71027 -0.36000
H 	H 	0.99822 0.94480 0.74960 0.15000
O 	O 	0.08785 0.32303 0.23761 -0.34700
O 	O 	0.04734 0.15175 0.22996 -0.69900
H 	H 	0.06223 0.17781 0.24816 0.15700
N 	N 	0.05714 0.05415 0.06011 -0.10500
N 	N 	0.02323 0.37012 0.98007 -0.09600
H 	H 	0.03371 0.26601 0.03971 0.06300
H 	H 	0.06076 0.11071 0.12813 0.05600
H 	H 	0.99064 0.83683 0.11952 0.04000
C 	C 	0.01407 0.47810 0.45119 -0.01100
C 	C 	0.01456 0.35017 0.42863 -0.13300
H 	H 	0.00323 0.58350 0.46834 0.08400
H 	H 	0.04417 0.38748 0.40965 0.08300
N 	N 	0.99223 0.01055 0.55729 -0.13600
H 	H 	0.00004 0.00241 0.62825 0.05300
C 	C 	0.07083 0.72968 0.65960 0.00600
C 	C 	0.06675 0.67373 0.63886 -0.01200
C 	C 	0.05243 0.55756 0.92443 0.00900
C 	C 	0.06370 0.77502 0.90320 0.11700
N 	N 	0.05591 0.00479 0.87761 -0.10400
H 	H 	0.06506 0.95046 0.81003 0.04700
C 	C 	0.03318 0.88525 0.81840 -0.00300
C 	C 	0.03619 0.94568 0.86365 0.09500
O 	O 	0.09363 0.89624 0.76180 -0.35800
C 	C 	0.07101 0.99693 0.19979 0.32800
O 	O 	0.07771 0.27339 0.18239 -0.34900
O 	O 	0.07171 0.03350 0.26424 -0.36100
C 	C 	0.08794 0.17536 0.11950 0.01500
C 	C 	0.07664 0.11348 0.07395 0.10100
C 	C 	0.06969 0.36059 0.99352 0.08100
C 	C 	0.03255 0.85958 0.13677 -0.03900
C 	C 	0.02418 0.91219 0.15627 0.04400
N 	N 	0.11631 0.42777 0.35286 -0.11400
H 	H 	0.11739 0.39776 0.28307 0.05500
H 	H 	0.08766 0.07161 0.32403 0.04700
H 	H 	0.06324 0.35025 0.44193 0.08700
C 	C 	0.03818 0.03830 0.57528 0.12700
C 	C 	0.08651 0.62904 0.97658 -0.06300
H 	H 	0.09835 0.66016 0.99616 0.07000
O 	O 	0.04964 0.09671 0.74758 -0.36200
C 	C 	0.09132 0.04283 0.67405 0.30900
Ni	Ni	0.09945 0.94393 0.72251 1.11900
O 	O 	0.10091 0.97732 0.68173 -0.36300
O 	O 	0.06983 0.08356 0.69193 -0.36500
C 	C 	0.10666 0.52890 0.44892 0.28700
C 	C 	0.10471 0.23199 0.16674 0.30800
C 	C 	0.14367 0.10179 0.27190 0.29200
C 	C 	0.09879 0.29492 0.03346 -0.05700
C 	C 	0.11154 0.24640 0.13679 -0.07300
C 	C 	0.10093 0.18751 0.09121 -0.03500
C 	C 	0.07903 0.94223 0.17870 -0.08600
C 	C 	0.07456 0.56906 0.10265 0.08400
N 	N 	0.05220 0.49614 0.10555 -0.10200
H 	H 	0.05262 0.67031 0.13795 0.06300
C 	C 	0.14831 0.40786 0.33619 0.10100
N 	N 	0.11917 0.22968 0.43401 -0.10400
N 	N 	0.10991 0.02098 0.39131 -0.10800
C 	C 	0.06556 0.04844 0.62458 0.01900
C 	C 	0.13956 0.69660 0.62197 0.09600
H 	H 	0.12718 0.79154 0.66199 0.05000
C 	C 	0.13419 0.62126 0.93098 0.07400
N 	N 	0.02055 0.09189 0.81636 -0.10700
N 	N 	0.13440 0.79795 0.90134 -0.12000
C 	C 	0.02348 0.82956 0.77131 0.29500
C 	C 	0.08496 0.70413 0.11938 -0.05900
O 	O 	0.12691 0.17834 0.17736 -0.37700
C 	C 	0.12724 0.11026 0.75033 0.28600
O 	O 	0.15191 0.51184 0.46573 -0.36300
O 	O 	0.14183 0.59754 0.43315 -0.36600
C 	C 	0.16508 0.33622 0.24008 0.28600
Ni	Ni	0.15533 0.17770 0.21720 1.12500
O 	O 	0.13861 0.05827 0.21120 -0.38400
O 	O 	0.18647 0.16987 0.25568 -0.38000
O 	O 	0.19598 0.30667 0.22106 -0.36200
C 	C 	0.15628 0.28700 0.05029 0.02400
C 	C 	0.12770 0.34865 0.01023 0.03100
C 	C 	0.13817 0.27157 0.07996 0.02000
C 	C 	0.16010 0.34249 0.09708 -0.05100
C 	C 	0.14768 0.33062 0.12538 0.02500
C 	C 	0.17558 0.40548 0.14254 0.09000
H 	H 	0.18838 0.40723 0.08835 0.04600
C 	C 	0.11058 0.79225 0.11614 0.03000
C 	C 	0.10258 0.66011 0.09903 0.03800
C 	C 	0.09713 0.83941 0.13868 0.01800
C 	C 	0.14243 0.92020 0.18091 0.01700
C 	C 	0.18829 0.38303 0.31537 -0.03700
C 	C 	0.20633 0.36221 0.26721 -0.07700
C 	C 	0.16667 0.38325 0.28805 0.01200
C 	C 	0.16619 0.27654 0.41788 0.07900
H 	H 	0.16804 0.24659 0.36430 0.05900
C 	C 	0.18697 0.09274 0.29589 -0.07200
C 	C 	0.14757 0.07414 0.32157 0.00700
C 	C 	0.14301 0.03674 0.37021 0.09400
C 	C 	0.12050 0.08071 0.64666 -0.07800
C 	C 	0.09554 0.07288 0.59774 -0.04600
C 	C 	0.15231 0.65310 0.95793 -0.06700
H 	H 	0.17460 0.64997 0.88872 0.08200
C 	C 	0.08733 0.13097 0.80727 0.08000
N 	N 	0.19787 0.71494 0.60842 -0.11000
O 	O 	0.15864 0.07452 0.73356 -0.36000
N 	N 	0.19794 0.46549 0.15627 -0.09400
C 	C 	0.14960 0.83533 0.09158 -0.04400
C 	C 	0.14679 0.70482 0.07519 -0.09300
C 	C 	0.15230 0.86987 0.16092 -0.03800
C 	C 	0.18442 0.05651 0.34390 -0.03800
C 	C 	0.20155 0.65379 0.90924 -0.19200
H 	H 	0.18440 0.94264 0.19815 0.05100
C 	C 	0.21994 0.30787 0.37061 -0.05400
N 	N 	0.18817 0.69214 0.34662 -0.11200
O 	O 	0.21213 0.49948 0.41078 -0.37200
C 	C 	0.21439 0.39923 0.00556 -0.08500
C 	C 	0.16613 0.79112 0.07110 0.02400
C 	C 	0.17585 0.92591 0.08769 0.09700
C 	C 	0.22494 0.33459 0.39777 0.02700
H 	H 	0.19558 0.88628 0.33252 0.06100
C 	C 	0.18145 0.12964 0.59292 0.02700
N 	N 	0.17413 0.92739 0.57289 -0.10500
H 	H 	0.23271 0.61378 0.90935 0.08700
C 	C 	0.17072 0.18035 0.79608 0.02100
C 	C 	0.18558 0.66789 0.05706 0.31900
O 	O 	0.20047 0.69311 0.03165 -0.39700
C 	C 	0.18582 0.18139 0.76780 -0.06900
C 	C 	0.23858 0.69269 0.96842 0.30200
C 	C 	0.23818 0.31642 0.04028 -0.04200
N 	N 	0.19690 0.99846 0.08461 -0.10900
C 	C 	0.24953 0.36018 0.32227 0.02300
C 	C 	0.21792 0.76259 0.35424 0.06800
C 	C 	0.20524 0.14182 0.64189 0.03000
C 	C 	0.20378 0.99749 0.56451 0.09800
H 	H 	0.24883 0.72254 0.91262 0.09100
H 	H 	0.19863 0.82545 0.05262 0.02200
C 	C 	0.25919 0.46996 0.42201 0.27800
Ni	Ni	0.24247 0.62682 0.40887 1.12000
C 	C 	0.24941 0.49320 0.00242 0.30600
O 	O 	0.27100 0.76670 0.98145 -0.37900
O 	O 	0.22857 0.53187 0.02088 -0.37900
C 	C 	0.26597 0.37010 0.01703 0.01000
C 	C 	0.22044 0.85159 0.16307 0.09800
C 	C 	0.27579 0.35167 0.27395 0.02900
C 	C 	0.27660 0.36504 0.35103 0.02100
C 	C 	0.26820 0.10305 0.29335 0.02500
C 	C 	0.23805 0.90863 0.34965 -0.06000
C 	C 	0.21806 0.14388 0.56501 0.02300
H 	H 	0.22821 0.26944 0.55960 0.05600
O 	O 	0.24577 0.74068 0.40806 -0.37800
O 	O 	0.22582 0.63188 0.06806 -0.36400
O 	O 	0.28530 0.65874 0.96173 -0.38500
C 	C 	0.29263 0.34415 0.30141 -0.05300
C 	C 	0.25995 0.05505 0.34030 0.02000
C 	C 	0.23511 0.16619 0.61511 -0.05900
O 	O 	0.28372 0.48619 0.44801 -0.35700
C 	C 	0.28498 0.41946 0.40483 -0.07500
C 	C 	0.25512 0.85075 0.36370 0.02900
C 	C 	0.24095 0.08502 0.55409 -0.03800
C 	C 	0.24966 0.22572 0.55264 -0.05800
C 	C 	0.23755 0.22816 0.81360 -0.05400
H 	H 	0.22728 0.22247 0.83552 0.05800
C 	C 	0.26446 0.24172 0.75709 0.01100
H 	H 	0.27493 0.24725 0.73520 0.05600
Ni	Ni	0.28155 0.58622 0.47025 1.11100
C 	C 	0.27624 0.99553 0.35704 0.02800
C 	C 	0.31149 0.12386 0.26731 0.08400
C 	C 	0.26261 0.17754 0.66431 0.07800
N 	N 	0.27523 0.83728 0.16492 -0.11000
C 	C 	0.29512 0.29672 0.05473 0.09200
O 	O 	0.27371 0.68900 0.48858 -0.35900
C 	C 	0.30509 0.08682 0.31585 -0.05800
N 	N 	0.28108 0.67315 0.13487 -0.09800
H 	H 	0.26797 0.86880 0.47075 0.05800
C 	C 	0.01179 0.87202 0.84622 -0.01300
C 	C 	0.33398 0.35595 0.25322 0.08200
Ni	Ni	0.31692 0.78042 0.01954 1.12000
O 	O 	0.31747 0.53843 0.98734 -0.37400
H 	H 	0.34226 0.33029 0.30654 0.05900
C 	C 	0.30974 0.87918 0.38632 -0.08400
N 	N 	0.34617 0.14049 0.24647 -0.10600
H 	H 	0.30099 0.21092 0.61145 0.05700
C 	C 	0.01099 0.81451 0.80112 -0.05300
O 	O 	0.32077 0.65125 0.43709 -0.70700
C 	C 	0.31390 0.81495 0.40484 0.29200
O 	O 	0.32840 0.65832 0.37784 -0.37300
Ni	Ni	0.31690 0.61469 0.04773 1.11400
C 	C 	0.34905 0.43894 0.35998 -0.03500
H 	H 	0.29874 0.00758 0.45592 0.08200
C 	C 	0.31569 0.25462 0.53362 0.02700
C 	C 	0.30624 0.11406 0.53487 0.01200
N 	N 	0.30868 0.20613 0.68225 -0.10600
H 	H 	0.33062 0.39863 0.01049 0.04700
C 	C 	0.35342 0.46554 0.38712 0.00500
O 	O 	0.99341 0.93212 0.72996 -0.71900
O 	O 	0.99665 0.97545 0.20972 -0.39500
Ni	Ni	0.97116 0.02025 0.71817 1.10900
C 	C 	0.78821 0.56584 0.93252 0.28600
C 	C 	0.66499 0.20078 0.96984 0.30000
C 	C 	0.90170 0.46390 0.93608 0.33700
C 	C 	0.57298 0.37024 0.97824 0.28400
C 	C 	0.69477 0.22423 0.89761 0.29100
C 	C 	0.57514 0.34981 0.88114 0.31000
Ni	Ni	0.74587 0.39748 0.96733 1.10900
Ni	Ni	0.58237 0.26492 0.93186 1.12200
Ni	Ni	0.75009 0.41037 0.90103 1.12200
O 	O 	0.79076 0.53045 0.95677 -0.36900
O 	O 	0.74701 0.51858 0.91108 -0.38000
O 	O 	0.61714 0.20947 0.90202 -0.38300
O 	O 	0.71941 0.27437 0.98111 -0.36400
O 	O 	0.59400 0.19108 0.96093 -0.38100
O 	O 	0.65092 0.36326 0.87549 -0.38600
O 	O 	0.85267 0.40176 0.95239 -0.38800
O 	O 	0.87183 0.47865 0.91375 -0.38900
O 	O 	0.54013 0.31971 0.90509 -0.39600
O 	O 	0.64305 0.38289 0.98960 -0.37400
O 	O 	0.53006 0.30344 0.96189 -0.36200
O 	O 	0.75938 0.30369 0.89741 -0.37700
O 	O 	0.68739 0.36715 0.93464 -0.71600
H 	H 	0.66188 0.40421 0.93605 0.14500
C 	C 	0.78661 0.37447 0.56033 0.28100
C 	C 	0.44275 0.24199 0.52582 0.29900
C 	C 	0.59425 0.17486 0.58128 0.31300
C 	C 	0.61568 0.45642 0.50662 0.30500
C 	C 	0.52450 0.10462 0.49657 0.30500
C 	C 	0.76212 0.31565 0.47849 0.28400
Ni	Ni	0.60791 0.33484 0.55394 1.11500
Ni	Ni	0.58925 0.28983 0.48839 1.11800
Ni	Ni	0.67591 0.21198 0.52801 1.11900
O 	O 	0.73528 0.40755 0.56090 -0.36600
O 	O 	0.75769 0.28958 0.55738 -0.36900
O 	O 	0.51816 0.16304 0.48200 -0.39500
O 	O 	0.48295 0.24785 0.54848 -0.37300
O 	O 	0.48301 0.28590 0.50362 -0.37800
O 	O 	0.76437 0.26613 0.49853 -0.37900
O 	O 	0.61084 0.25484 0.58497 -0.36300
O 	O 	0.58796 0.14535 0.55664 -0.39700
O 	O 	0.68969 0.29875 0.46713 -0.37300
O 	O 	0.59747 0.43326 0.53276 -0.36600
O 	O 	0.64592 0.41905 0.49078 -0.40300
O 	O 	0.59936 0.11697 0.50274 -0.38200
O 	O 	0.63728 0.29222 0.52286 -0.71300
H 	H 	0.69151 0.34339 0.51885 0.14100
C 	C 	0.00083 0.77267 0.69500 0.32000
C 	C 	0.83092 0.88995 0.68828 0.31400
C 	C 	0.84791 0.92185 0.76424 0.28900
Ni	Ni	0.89851 0.81888 0.73017 1.12300
O 	O 	0.81239 0.83120 0.70764 -0.37100
O 	O 	0.93586 0.78477 0.69567 -0.38500
O 	O 	0.86711 0.97625 0.74291 -0.37800
O 	O 	0.85314 0.84999 0.76285 -0.37900
O 	O 	0.96327 0.77794 0.75438 -0.37400
O 	O 	0.90691 0.95445 0.68568 -0.39800
C 	C 	0.33670 0.76955 0.48704 0.29900
C 	C 	0.46760 0.65465 0.46957 0.30000
C 	C 	0.40534 0.72714 0.37724 0.28000
Ni	Ni	0.41881 0.76306 0.43661 1.12200
O 	O 	0.37386 0.84027 0.42310 -0.38700
O 	O 	0.40809 0.78617 0.47605 -0.38200
O 	O 	0.45332 0.75055 0.39897 -0.38400
O 	O 	0.40236 0.63638 0.48517 -0.37400
O 	O 	0.49005 0.71182 0.44947 -0.37000
H 	H 	0.35158 0.62477 0.42885 0.14100
C 	C 	0.46124 0.60049 0.01848 0.30200
C 	C 	0.40082 0.78958 0.07432 0.28700
C 	C 	0.48100 0.86617 0.99035 0.28800
Ni	Ni	0.38094 0.67157 0.98430 1.12000
O 	O 	0.40161 0.57035 0.03770 -0.37500
O 	O 	0.47588 0.66801 0.00327 -0.38900
O 	O 	0.45427 0.79894 0.97349 -0.37900
O 	O 	0.42812 0.87647 0.00650 -0.37800
O 	O 	0.39921 0.71402 0.07231 -0.36500
O 	O 	0.35043 0.80878 0.05982 -0.37100
O 	O 	0.35479 0.69880 0.01946 -0.71200
H 	H 	0.41249 0.73707 0.02543 0.15300
C 	C 	0.89115 0.11691 0.26738 0.29300
C 	C 	0.85962 0.04442 0.20146 0.31500
Ni	Ni	0.99942 0.21656 0.21629 1.10400
Ni	Ni	0.97886 0.03518 0.24162 1.11200
O 	O 	0.90765 0.17593 0.24771 -0.36400
O 	O 	0.94152 0.08476 0.27216 -0.39000
O 	O 	0.92161 0.11583 0.19151 -0.38400
O 	O 	0.86808 0.00812 0.22389 -0.38400
N 	N 	0.34076 0.28090 0.06631 -0.11500
C 	C 	0.57747 0.95947 0.11333 -0.03200
C 	C 	0.56018 0.92065 0.13954 0.01800
C 	C 	0.48066 0.85067 0.14540 -0.05100
C 	C 	0.42344 0.81110 0.12438 0.03000
C 	C 	0.44485 0.84416 0.09752 -0.07200
C 	C 	0.51835 0.92233 0.09272 0.00700
C 	C 	0.62779 0.94583 0.15962 0.03500
C 	C 	0.66369 0.02817 0.17117 -0.06600
C 	C 	0.73952 0.06131 0.18492 0.03500
C 	C 	0.77693 0.00905 0.18893 -0.09600
C 	C 	0.73623 0.92342 0.17994 0.03100
C 	C 	0.66311 0.89219 0.16469 -0.04600
C 	C 	0.77857 0.14899 0.19480 0.06300
C 	C 	0.62675 0.80654 0.15330 0.09700
C 	C 	0.65752 0.03415 0.10703 0.08000
C 	C 	0.34440 0.73450 0.13023 0.09000
N 	N 	0.80973 0.21921 0.20269 -0.11800
N 	N 	0.59761 0.73796 0.14416 -0.11400
N 	N 	0.72170 0.09393 0.10204 -0.11800
H 	H 	0.53198 0.95096 0.07249 0.03400
H 	H 	0.46571 0.82348 0.16589 0.06400
H 	H 	0.63509 0.06837 0.16800 0.06000
H 	H 	0.76357 0.88238 0.18376 0.04400
C 	C 	0.96234 0.93890 0.15219 0.05800
N 	N 	0.91287 0.96028 0.14875 -0.10400
C 	C 	0.65948 0.97165 0.27564 -0.03600
C 	C 	0.65182 0.95630 0.30405 0.02900
C 	C 	0.72091 0.00549 0.32079 -0.07100
C 	C 	0.79897 0.06360 0.30920 0.02700
C 	C 	0.80761 0.07484 0.28064 -0.07800
C 	C 	0.73635 0.03318 0.26431 0.00900
C 	C 	0.57603 0.88155 0.31614 0.01900
C 	C 	0.58240 0.81166 0.32675 -0.05400
C 	C 	0.52179 0.75323 0.34505 0.02600
C 	C 	0.44903 0.75933 0.35072 -0.06800
C 	C 	0.43654 0.82040 0.33621 0.00500
C 	C 	0.50123 0.88432 0.32014 -0.03600
C 	C 	0.54157 0.69752 0.36127 0.08800
C 	C 	0.49228 0.95520 0.30936 0.09600
C 	C 	0.59022 0.92145 0.25779 0.09700
C 	C 	0.86978 0.11126 0.32673 0.07200
N 	N 	0.55837 0.65394 0.37441 -0.11000
N 	N 	0.48502 0.01196 0.30074 -0.11600
N 	N 	0.92656 0.14946 0.34076 -0.11600
N 	N 	0.53483 0.88131 0.24345 -0.11000
H 	H 	0.74194 0.04438 0.24254 0.04700
H 	H 	0.71474 0.99549 0.34273 0.06000
H 	H 	0.63875 0.80783 0.32293 0.05600
H 	H 	0.38057 0.82442 0.33987 0.03900
C 	C 	0.41622 0.49010 0.34103 0.09500
N 	N 	0.46958 0.53023 0.32558 -0.11100
N 	N 	0.38075 0.35936 0.23666 -0.10600
H 	H 	0.40424 0.52761 0.39330 0.04100
C 	C 	0.35141 0.96748 0.39289 0.01400
C 	C 	0.33423 0.02565 0.37852 -0.04600
C 	C 	0.37481 0.11539 0.38631 0.08900
N 	N 	0.40725 0.18731 0.39257 -0.12000
H 	H 	0.36512 0.08955 0.31345 0.06100
H 	H 	0.39589 0.99058 0.40938 0.04000
C 	C 	0.31808 0.89593 0.48547 -0.04300
C 	C 	0.33402 0.84016 0.50143 -0.08400
C 	C 	0.38832 0.87618 0.52363 0.08700
C 	C 	0.44996 0.96393 0.52238 -0.03300
C 	C 	0.44903 0.01754 0.50127 -0.09400
C 	C 	0.37676 0.98500 0.48441 0.09400
C 	C 	0.36083 0.04320 0.46576 -0.20500
H 	H 	0.50023 0.98907 0.53700 0.05600
C 	C 	0.39204 0.81857 0.54554 -0.20000
H 	H 	0.40868 0.06974 0.44924 0.09100
H 	H 	0.36127 0.09665 0.47749 0.09000
H 	H 	0.44027 0.80058 0.54012 0.08300
H 	H 	0.33058 0.75878 0.54802 0.09100
H 	H 	0.40809 0.85252 0.56538 0.08300
C 	C 	0.88465 0.33937 0.45014 -0.00400
C 	C 	0.84216 0.37493 0.46428 -0.09900
C 	C 	0.88454 0.46469 0.46984 0.10200
C 	C 	0.97017 0.51545 0.46323 -0.10400
C 	C 	0.97023 0.39025 0.44349 0.01200
H 	H 	0.85212 0.27099 0.44547 0.04400
C 	C 	0.83889 0.50689 0.48245 -0.21200
H 	H 	0.97090 0.28228 0.42282 0.05600
H 	H 	0.88154 0.57651 0.48650 0.07700
H 	H 	0.81010 0.47520 0.50222 0.07600
H 	H 	0.79018 0.50224 0.46820 0.09000
C 	C 	0.59617 0.58477 0.51125 -0.03600
C 	C 	0.59376 0.51947 0.49462 -0.08400
C 	C 	0.56161 0.50959 0.46768 0.08400
C 	C 	0.52710 0.56056 0.45905 -0.03100
C 	C 	0.52202 0.61905 0.47677 -0.08800
C 	C 	0.56102 0.63514 0.50244 0.09000
C 	C 	0.56203 0.70304 0.52103 -0.20000
H 	H 	0.62317 0.59463 0.53141 0.05400
H 	H 	0.49974 0.55116 0.43894 0.05000
C 	C 	0.56185 0.44405 0.44821 -0.19100
H 	H 	0.61160 0.72282 0.53662 0.07700
H 	H 	0.50068 0.67703 0.53166 0.08700
H 	H 	0.57483 0.76194 0.50919 0.08500
H 	H 	0.52617 0.37789 0.45705 0.06100
H 	H 	0.62709 0.46011 0.44339 0.07700
H 	H 	0.53184 0.44359 0.42855 0.07700
C 	C 	0.66896 0.95674 0.67787 -0.04600
C 	C 	0.66807 0.96149 0.64921 0.03400
C 	C 	0.70856 0.92659 0.63362 -0.06200
C 	C 	0.75565 0.89412 0.64644 0.03100
C 	C 	0.76326 0.89767 0.67508 -0.08700
C 	C 	0.71899 0.92812 0.69055 0.01700
C 	C 	0.63787 0.01563 0.63563 0.00500
C 	C 	0.68254 0.10562 0.63884 -0.05000
C 	C 	0.66066 0.15899 0.62403 0.02500
C 	C 	0.59650 0.12244 0.60447 -0.08200
C 	C 	0.54628 0.03202 0.60350 0.00200
C 	C 	0.56686 0.97850 0.61889 -0.02600
C 	C 	0.70338 0.25065 0.62940 0.08900
C 	C 	0.51548 0.88573 0.61716 0.08400
C 	C 	0.62179 0.98512 0.69441 0.10600
C 	C 	0.79890 0.86082 0.63004 0.07400
N 	N 	0.73752 0.32403 0.63381 -0.10900
N 	N 	0.47437 0.81139 0.61580 -0.11400
N 	N 	0.83362 0.83420 0.61691 -0.10500
N 	N 	0.58401 0.00787 0.70766 -0.11600
H 	H 	0.73020 0.93759 0.71217 0.05000
H 	H 	0.70671 0.92859 0.61151 0.05600
H 	H 	0.73511 0.13410 0.65263 0.05200
H 	H 	0.49387 0.00344 0.58966 0.03900
C 	C 	0.35132 0.20203 0.52769 -0.08300
C 	C 	0.35180 0.34111 0.52239 0.07900
N 	N 	0.38070 0.41042 0.51338 -0.10900
H 	H 	0.32978 0.07135 0.52873 0.03600
C 	C 	0.95998 0.57794 0.58448 -0.03300
C 	C 	0.97712 0.54715 0.60889 0.02400
C 	C 	0.95781 0.46031 0.61056 -0.06000
C 	C 	0.90573 0.40122 0.59107 0.02600
C 	C 	0.87296 0.42992 0.56995 -0.07400
C 	C 	0.91070 0.51903 0.56458 0.00700
C 	C 	0.99132 0.59636 0.63446 0.00000
C 	C 	0.92464 0.57073 0.65303 -0.04500
C 	C 	0.92958 0.62521 0.67426 0.00900
C 	C 	0.00103 0.70753 0.67654 -0.05500
C 	C 	0.86181 0.59554 0.69391 0.08200
C 	C 	0.98478 0.66827 0.58103 0.07400
C 	C 	0.88599 0.31200 0.59305 0.08000
N 	N 	0.80757 0.57178 0.70966 -0.11000
N 	N 	0.87024 0.24049 0.59466 -0.11500
N 	N 	0.00447 0.74059 0.57827 -0.08800
H 	H 	0.89246 0.54197 0.54673 0.03600
H 	H 	0.97675 0.43746 0.62826 0.05300
H 	H 	0.86772 0.50957 0.65034 0.06000
C 	C 	0.98860 0.52530 0.94433 -0.14800
C 	C 	0.00686 0.55985 0.97108 0.14500
C 	C 	0.94439 0.52040 0.99426 -0.23300
H 	H 	0.97011 0.55456 0.01375 0.07700
H 	H 	0.92801 0.45195 0.99755 0.08500
H 	H 	0.88741 0.52447 0.99004 0.05700
C 	C 	0.60136 0.99878 0.00855 -0.02900
C 	C 	0.56610 0.94240 0.98648 -0.08500
C 	C 	0.60097 0.97255 0.96017 0.09700
C 	C 	0.65301 0.06196 0.95578 -0.05000
C 	C 	0.66689 0.12053 0.97686 -0.07900
C 	C 	0.65047 0.08845 0.00394 0.08200
C 	C 	0.67823 0.14920 0.02774 -0.19800
H 	H 	0.58354 0.97406 0.02915 0.04600
H 	H 	0.67587 0.08617 0.93554 0.04900
C 	C 	0.58364 0.91117 0.93690 -0.20400
H 	H 	0.67414 0.11457 0.04713 0.07800
H 	H 	0.63791 0.17933 0.02965 0.08900
H 	H 	0.74437 0.20044 0.02484 0.08700
H 	H 	0.52122 0.89183 0.92826 0.09100
H 	H 	0.58641 0.85306 0.94393 0.09000
H 	H 	0.63118 0.94187 0.92036 0.08200
C 	C 	0.53181 0.43226 0.01673 -0.03800
C 	C 	0.53377 0.42005 0.98848 -0.08200
C 	C 	0.51242 0.46792 0.97026 0.07800
C 	C 	0.49329 0.52972 0.98046 -0.02800
C 	C 	0.49299 0.54336 0.00863 -0.09400
C 	C 	0.51405 0.49535 0.02694 0.08600
C 	C 	0.51802 0.51094 0.05725 -0.20000
H 	H 	0.54723 0.39480 0.03074 0.05700
H 	H 	0.47635 0.56587 0.96642 0.04000
C 	C 	0.51049 0.45406 0.93991 -0.20200
H 	H 	0.55515 0.48546 0.06766 0.07800
H 	H 	0.45391 0.47800 0.06615 0.08800
H 	H 	0.54845 0.58127 0.06149 0.08500
H 	H 	0.46461 0.38591 0.93522 0.09500
H 	H 	0.57360 0.47013 0.93234 0.08400
H 	H 	0.49117 0.49570 0.92863 0.08500
C 	C 	0.80832 0.96011 0.83703 -0.04100
C 	C 	0.75006 0.98934 0.83311 0.03000
C 	C 	0.71342 0.98011 0.80739 -0.05800
C 	C 	0.73546 0.94365 0.78591 0.02900
C 	C 	0.80664 0.93381 0.78842 -0.07600
C 	C 	0.83850 0.93529 0.81446 0.01500
C 	C 	0.73450 0.03836 0.85469 0.01500
C 	C 	0.80245 0.11153 0.86583 -0.05700
C 	C 	0.78901 0.16521 0.88336 0.02300
C 	C 	0.70759 0.15403 0.88641 -0.08100
C 	C 	0.63910 0.07760 0.87691 0.00600
C 	C 	0.65231 0.01793 0.86216 -0.04800
C 	C 	0.85757 0.22676 0.89967 0.08100
C 	C 	0.58183 0.93496 0.85561 0.09200
C 	C 	0.83615 0.95434 0.86407 0.09100
C 	C 	0.67389 0.89644 0.76548 0.08100
N 	N 	0.91250 0.27593 0.91274 -0.10400
N 	N 	0.52536 0.86845 0.85038 -0.11400
N 	N 	0.62295 0.85733 0.74962 -0.10400
N 	N 	0.85825 0.95004 0.88580 -0.11400
H 	H 	0.88707 0.91803 0.81708 0.03900
H 	H 	0.66545 0.99807 0.80442 0.06200
H 	H 	0.86588 0.12663 0.86086 0.05500
H 	H 	0.57581 0.06441 0.88104 0.04300
C 	C 	0.42004 0.24135 0.82542 -0.04100
C 	C 	0.39066 0.30037 0.82109 0.02500
C 	C 	0.42882 0.38017 0.83440 -0.05900
C 	C 	0.49386 0.40000 0.85279 0.02800
C 	C 	0.51973 0.33875 0.85826 -0.08400
C 	C 	0.48441 0.26095 0.84389 0.01700
C 	C 	0.31886 0.27778 0.80302 0.02000
C 	C 	0.33112 0.28980 0.77459 -0.03500
C 	C 	0.41291 0.34760 0.76325 0.09700
C 	C 	0.38309 0.15971 0.81135 0.09500
C 	C 	0.53574 0.48431 0.86510 0.06800
N 	N 	0.47848 0.39391 0.75418 -0.10800
N 	N 	0.56944 0.55207 0.87485 -0.10800
N 	N 	0.35339 0.09436 0.80008 -0.11100
H 	H 	0.50514 0.21429 0.84785 0.04300
H 	H 	0.40774 0.42655 0.83051 0.05700
C 	C 	0.97563 0.74686 0.90548 -0.06500
C 	C 	0.93560 0.77042 0.88542 0.03600
C 	C 	0.85448 0.75585 0.89075 -0.06100
C 	C 	0.80881 0.70360 0.91301 0.03100
C 	C 	0.84157 0.65941 0.92798 -0.08200
C 	C 	0.92837 0.69251 0.92720 0.01900
C 	C 	0.96763 0.78723 0.85693 -0.00600
C 	C 	0.94977 0.71686 0.84003 -0.04200
C 	C 	0.97188 0.72999 0.81230 0.00100
C 	C 	0.95664 0.65676 0.79573 0.08600
C 	C 	0.72602 0.68960 0.91897 0.07900
N 	N 	0.94442 0.59809 0.78246 -0.10700
N 	N 	0.65974 0.67856 0.92385 -0.11200
H 	H 	0.95697 0.66795 0.94132 0.03500
H 	H 	0.82468 0.77845 0.87636 0.06100
H 	H 	0.91777 0.65168 0.84846 0.04700
