data_crystal

_cell_length_a 25.97963
_cell_length_b 26.35504
_cell_length_c 40.01148
_cell_angle_alpha 95.51671
_cell_angle_beta  95.51268
_cell_angle_gamma 125.70154

_symmetry_space_group_name_	'P 1'
_symmetry_space_group_name_H-M	'P 1'

loop_
_symmetry_equiv_pos_as_xyz
  x,y,z

loop_
_atom_site_label
_atom_site_type_symbol
_atom_site_fract_x
_atom_site_fract_y
_atom_site_fract_z
_atom_site_charge
C 	C 	0.96126 0.01789 0.99282 0.10100
N 	N 	0.02608 0.05059 0.99498 -0.13300
C 	C 	0.05231 0.01871 0.99236 0.10800
C 	C 	0.93849 0.00585 0.45970 0.10100
N 	N 	0.00371 0.04231 0.46263 -0.13400
C 	C 	0.03494 0.01529 0.46392 0.10900
Cu	Cu	0.63870 0.23559 0.00564 0.92600
Cu	Cu	0.67392 0.23177 0.92952 0.86700
Cu	Cu	0.66098 0.32975 0.95968 0.89700
Cu	Cu	0.64725 0.35721 0.03067 0.89300
C 	C 	0.67451 0.29051 0.07703 0.29000
O 	O 	0.54793 0.20223 0.01135 -0.36200
C 	C 	0.63309 0.28530 0.88499 0.28400
O 	O 	0.69108 0.33393 0.00622 -0.64300
O 	O 	0.61918 0.23714 0.95696 -0.64100
O 	O 	0.67529 0.18754 0.99984 -0.37200
O 	O 	0.73974 0.25001 0.96486 -0.44000
O 	O 	0.64407 0.31571 0.07039 -0.38600
O 	O 	0.70820 0.42073 0.96404 -0.38700
C 	C 	0.70878 0.45914 0.98817 0.28700
C 	C 	0.52121 0.22876 0.00025 0.26800
O 	O 	0.55786 0.28738 0.99490 -0.39100
O 	O 	0.68295 0.43989 0.01552 -0.39600
O 	O 	0.67114 0.24969 0.05330 -0.36400
C 	C 	0.72655 0.21028 0.98581 0.28000
O 	O 	0.63765 0.32440 0.91056 -0.38100
O 	O 	0.62839 0.23410 0.88999 -0.42100
H 	H 	0.73861 0.36151 0.01349 0.16400
H 	H 	0.57291 0.20946 0.94615 0.17500
Cu	Cu	0.74122 0.34656 0.46263 0.92700
Cu	Cu	0.73848 0.30192 0.53651 0.86900
Cu	Cu	0.63907 0.31471 0.50593 0.89700
Cu	Cu	0.62181 0.34426 0.43728 0.89400
C 	C 	0.69901 0.33039 0.39058 0.29100
O 	O 	0.77944 0.43907 0.46122 -0.36200
C 	C 	0.68153 0.33786 0.58120 0.28800
O 	O 	0.64105 0.29545 0.45887 -0.64100
O 	O 	0.73403 0.35834 0.51107 -0.64200
O 	O 	0.78631 0.30597 0.46661 -0.37200
O 	O 	0.71929 0.23936 0.49945 -0.44000
O 	O 	0.66840 0.35489 0.39839 -0.38700
O 	O 	0.54620 0.26678 0.49805 -0.38200
C 	C 	0.51057 0.26871 0.47303 0.28200
C 	C 	0.75127 0.46451 0.47161 0.27300
O 	O 	0.69150 0.42741 0.47630 -0.39200
O 	O 	0.53692 0.30848 0.45155 -0.39300
O 	O 	0.73094 0.32206 0.41444 -0.36500
C 	C 	0.76052 0.25328 0.47897 0.27800
O 	O 	0.63566 0.32101 0.55516 -0.38600
O 	O 	0.73435 0.34416 0.57641 -0.42200
H 	H 	0.61332 0.24950 0.44879 0.16500
H 	H 	0.76044 0.40304 0.52336 0.17300
C 	C 	0.67097 0.34467 0.61647 -0.09200
C 	C 	0.60804 0.30880 0.62340 0.01500
C 	C 	0.59844 0.30744 0.65720 -0.07100
C 	C 	0.65151 0.34205 0.68428 0.03800
C 	C 	0.71413 0.38080 0.67749 -0.07200
C 	C 	0.72389 0.38226 0.64372 0.01500
C 	C 	0.64216 0.33283 0.71869 -0.02300
C 	C 	0.63480 0.32542 0.74758 -0.02300
C 	C 	0.62694 0.31531 0.78203 0.03800
C 	C 	0.59091 0.25329 0.78863 -0.07200
C 	C 	0.59034 0.24329 0.82232 0.01500
C 	C 	0.62598 0.29539 0.84971 -0.09000
C 	C 	0.65943 0.35748 0.84299 0.01300
C 	C 	0.66004 0.36735 0.80924 -0.07000
H 	H 	0.56670 0.27992 0.60269 0.03600
H 	H 	0.54985 0.27775 0.66228 0.04800
H 	H 	0.75537 0.40825 0.69833 0.04600
H 	H 	0.77262 0.41128 0.63878 0.02900
H 	H 	0.56478 0.21282 0.76769 0.04700
H 	H 	0.56326 0.19512 0.82711 0.03100
H 	H 	0.68695 0.39811 0.86384 0.03300
H 	H 	0.68778 0.41545 0.80431 0.04800
C 	C 	0.69719 0.29478 0.11302 -0.08800
C 	C 	0.67513 0.23922 0.12614 0.02100
C 	C 	0.68590 0.24241 0.16150 -0.07000
C 	C 	0.71909 0.30111 0.18383 0.04000
C 	C 	0.74501 0.35699 0.17063 -0.07000
C 	C 	0.73400 0.35386 0.13536 0.01600
C 	C 	0.71953 0.30342 0.21997 -0.02200
C 	C 	0.72106 0.30773 0.25037 -0.02200
C 	C 	0.72187 0.31548 0.28658 0.03900
C 	C 	0.73431 0.37136 0.30395 -0.07100
C 	C 	0.72830 0.37673 0.33817 0.01900
C 	C 	0.70994 0.32625 0.35537 -0.08700
C 	C 	0.69982 0.27115 0.33835 0.01600
C 	C 	0.70543 0.26565 0.30393 -0.07000
H 	H 	0.64691 0.19334 0.10914 0.03600
H 	H 	0.66614 0.19902 0.17152 0.04900
H 	H 	0.77130 0.40262 0.18774 0.04700
H 	H 	0.75196 0.39710 0.12548 0.02000
H 	H 	0.74731 0.41016 0.29073 0.04800
H 	H 	0.73734 0.41992 0.35125 0.03300
H 	H 	0.68604 0.23207 0.35146 0.03000
H 	H 	0.69581 0.22230 0.29067 0.04800
C 	C 	0.88310 0.65452 0.42039 -0.03800
C 	C 	0.90524 0.71623 0.41707 -0.05100
C 	C 	0.88915 0.74910 0.43794 0.03300
C 	C 	0.84988 0.71943 0.46208 -0.02200
C 	C 	0.82760 0.65725 0.46544 -0.00200
C 	C 	0.84444 0.62478 0.44458 0.01100
C 	C 	0.78854 0.62761 0.48967 0.01100
C 	C 	0.77212 0.66037 0.51040 -0.03900
C 	C 	0.79457 0.72230 0.50719 -0.05100
C 	C 	0.83371 0.75227 0.48321 0.03300
C 	C 	0.85839 0.81527 0.48074 -0.06100
C 	C 	0.91332 0.81187 0.43561 -0.06100
C 	C 	0.82176 0.56271 0.44781 -0.02700
C 	C 	0.78170 0.53247 0.47145 -0.06300
C 	C 	0.76586 0.56535 0.49263 -0.02800
H 	H 	0.89611 0.62989 0.40415 0.03700
H 	H 	0.93529 0.73860 0.39840 0.04100
H 	H 	0.74202 0.63798 0.52905 0.03700
H 	H 	0.78175 0.74702 0.52351 0.04100
H 	H 	0.84781 0.84142 0.49768 0.04900
H 	H 	0.83356 0.53724 0.43126 0.04700
H 	H 	0.73534 0.54220 0.51103 0.04100
C 	C 	0.77308 0.02822 0.49231 -0.05400
C 	C 	0.74828 0.06315 0.49503 -0.03800
C 	C 	0.77504 0.11831 0.48082 0.00800
C 	C 	0.82611 0.13767 0.46307 -0.00200
C 	C 	0.85091 0.10232 0.46019 -0.02400
C 	C 	0.82483 0.04786 0.47526 0.03400
C 	C 	0.90271 0.12227 0.44292 0.03300
C 	C 	0.92852 0.17663 0.42806 -0.05100
C 	C 	0.90405 0.21184 0.43101 -0.03800
C 	C 	0.85333 0.19308 0.44879 0.01000
C 	C 	0.83045 0.22978 0.45308 -0.02600
C 	C 	0.78075 0.21165 0.47169 -0.06800
C 	C 	0.75220 0.15501 0.48480 -0.02800
C 	C 	0.85190 0.01470 0.47385 -0.06300
C 	C 	0.90495 0.03577 0.45761 0.00800
C 	C 	0.92912 0.08859 0.44144 -0.06200
H 	H 	0.75238 0.98622 0.50377 0.04100
H 	H 	0.70871 0.04764 0.50853 0.03400
H 	H 	0.96807 0.19212 0.41454 0.04000
H 	H 	0.92500 0.25405 0.41973 0.03800
H 	H 	0.85202 0.27283 0.44251 0.04800
H 	H 	0.71305 0.14012 0.49859 0.03700
H 	H 	0.83312 0.97392 0.48625 0.05100
H 	H 	0.96916 0.10406 0.42828 0.04900
C 	C 	0.24372 0.05484 0.50189 -0.05100
C 	C 	0.31015 0.08967 0.50264 -0.03700
C 	C 	0.34191 0.14304 0.48688 0.01100
C 	C 	0.30663 0.16163 0.47031 -0.00100
C 	C 	0.23969 0.12642 0.46945 -0.02300
C 	C 	0.20815 0.07279 0.48526 0.03500
C 	C 	0.20426 0.14464 0.45261 0.03400
C 	C 	0.23610 0.19822 0.43701 -0.05100
C 	C 	0.30265 0.23334 0.43798 -0.03700
C 	C 	0.33820 0.21526 0.45451 0.01100
C 	C 	0.40488 0.25016 0.45542 -0.02500
C 	C 	0.44022 0.23166 0.47187 -0.06100
C 	C 	0.40846 0.17792 0.48744 -0.02500
C 	C 	0.14140 0.03747 0.48402 -0.06200
C 	C 	0.10572 0.05483 0.46675 0.00700
C 	C 	0.13739 0.10873 0.45130 -0.06100
H 	H 	0.33686 0.07508 0.51549 0.03600
H 	H 	0.20935 0.21267 0.42405 0.04200
H 	H 	0.32648 0.27453 0.42580 0.03700
H 	H 	0.42927 0.29183 0.44361 0.04400
H 	H 	0.43544 0.16316 0.49982 0.04300
H 	H 	0.10987 0.12196 0.43782 0.05100
C 	C 	0.87243 0.65021 0.94584 -0.03800
C 	C 	0.90563 0.71502 0.94508 -0.05100
C 	C 	0.88863 0.75045 0.96259 0.03300
C 	C 	0.83695 0.72020 0.98039 -0.02200
C 	C 	0.80345 0.65495 0.98111 -0.00300
C 	C 	0.82171 0.62000 0.96406 0.01200
C 	C 	0.75251 0.62494 0.99940 0.01800
C 	C 	0.73467 0.66010 0.01634 -0.04200
C 	C 	0.76807 0.72497 0.01571 -0.05200
C 	C 	0.81964 0.75548 0.99808 0.03400
C 	C 	0.78984 0.55562 0.96594 -0.02600
C 	C 	0.73991 0.52592 0.98476 -0.05900
C 	C 	0.72072 0.56047 0.00099 -0.03200
H 	H 	0.88654 0.62367 0.93248 0.03500
H 	H 	0.94502 0.73776 0.93116 0.04000
H 	H 	0.69532 0.63737 0.03029 0.03800
H 	H 	0.75414 0.75158 0.02920 0.04000
H 	H 	0.80467 0.52901 0.95340 0.04200
H 	H 	0.68137 0.53727 0.01495 0.04400
C 	C 	0.75912 0.05835 0.02678 -0.03700
C 	C 	0.79217 0.03133 0.02773 -0.05300
C 	C 	0.84736 0.05677 0.01293 0.03300
C 	C 	0.87045 0.11077 0.99784 -0.02200
C 	C 	0.83726 0.13807 0.99696 0.00100
C 	C 	0.78090 0.11122 0.01107 0.00800
C 	C 	0.85958 0.19127 0.98125 0.00800
C 	C 	0.91572 0.21769 0.96722 -0.03900
C 	C 	0.94858 0.19046 0.96800 -0.05200
C 	C 	0.92583 0.13657 0.98289 0.03300
C 	C 	0.95677 0.10722 0.98229 -0.06300
C 	C 	0.93259 0.05221 0.99637 0.01000
C 	C 	0.87881 0.02800 0.01234 -0.06500
C 	C 	0.74609 0.13649 0.00853 -0.02700
C 	C 	0.76691 0.18810 0.99174 -0.06700
C 	C 	0.82467 0.21642 0.97898 -0.02800
H 	H 	0.71616 0.03768 0.03794 0.03700
H 	H 	0.93353 0.25887 0.95531 0.03400
H 	H 	0.99136 0.21094 0.95669 0.03900
H 	H 	0.99837 0.12599 0.97005 0.04900
H 	H 	0.70214 0.11510 0.01885 0.04800
H 	H 	0.84172 0.25717 0.96676 0.03700
C 	C 	0.25780 0.17984 0.95908 -0.05000
C 	C 	0.32297 0.20737 0.95900 -0.03800
C 	C 	0.35425 0.18723 0.97787 0.01300
C 	C 	0.31974 0.13907 0.99696 -0.00100
C 	C 	0.25419 0.11139 0.99707 -0.02000
C 	C 	0.22306 0.13176 0.97799 0.03300
C 	C 	0.21965 0.06302 0.01604 0.03300
C 	C 	0.25094 0.04300 0.03498 -0.05100
C 	C 	0.31607 0.07059 0.03495 -0.03800
C 	C 	0.35076 0.11858 0.01600 0.01100
C 	C 	0.41621 0.14676 0.01616 -0.03000
C 	C 	0.45109 0.19555 0.99761 -0.05600
C 	C 	0.41971 0.21504 0.97812 -0.03000
C 	C 	0.15733 0.10301 0.97761 -0.06100
C 	C 	0.12257 0.05374 0.99584 0.01000
C 	C 	0.15408 0.03462 0.01545 -0.06400
H 	H 	0.23435 0.19583 0.94434 0.04200
H 	H 	0.34908 0.24439 0.94427 0.03800
H 	H 	0.33951 0.05459 0.04969 0.03800
H 	H 	0.44033 0.13177 0.03127 0.04900
H 	H 	0.44633 0.25206 0.96342 0.04400
H 	H 	0.13285 0.11762 0.96244 0.05100
N 	N 	0.01370 0.95424 0.98755 -0.13300
C 	C 	0.94902 0.92143 0.98526 0.10500
N 	N 	0.92287 0.95333 0.98782 -0.13600
N 	N 	0.00083 0.95160 0.46232 -0.13300
C 	C 	0.93579 0.91486 0.45973 0.10300
N 	N 	0.90448 0.94198 0.45848 -0.13500
C 	C 	0.89961 0.84567 0.45762 0.00700
H 	H 	0.94455 0.83523 0.41751 0.05000
H 	H 	0.21992 0.01374 0.51414 0.04200
H 	H 	0.11716 0.99648 0.49639 0.05400
C 	C 	0.85508 0.82106 0.99861 -0.05800
C 	C 	0.90783 0.85165 0.98174 0.00600
C 	C 	0.92354 0.81597 0.96314 -0.06100
H 	H 	0.84293 0.84859 0.01294 0.04800
H 	H 	0.96345 0.83940 0.94955 0.05000
H 	H 	0.77434 0.99013 0.03962 0.04200
H 	H 	0.86102 0.98634 0.02386 0.05100
H 	H 	0.22479 0.00590 0.04967 0.04200
H 	H 	0.12726 0.99709 0.02984 0.05300
