data_crystal

_cell_length_a 26.55705
_cell_length_b 26.08813
_cell_length_c 43.36883
_cell_angle_alpha 95.54347
_cell_angle_beta  95.54280
_cell_angle_gamma 125.84176

_symmetry_space_group_name_	'P 1'
_symmetry_space_group_name_H-M	'P 1'

loop_
_symmetry_equiv_pos_as_xyz
  x,y,z

loop_
_atom_site_label
_atom_site_type_symbol
_atom_site_fract_x
_atom_site_fract_y
_atom_site_fract_z
_atom_site_charge
C 	C 	0.96971 0.03498 0.99645 0.03800
C 	C 	0.06071 0.03697 0.98982 0.03900
C 	C 	0.03252 0.06857 0.99196 -0.08400
C 	C 	0.00638 0.04227 0.47767 -0.08700
C 	C 	0.86802 0.08186 0.44342 -0.07400
C 	C 	0.90575 0.03028 0.47121 -0.03200
C 	C 	0.89015 0.04439 0.44277 0.05200
H 	H 	0.85724 0.09399 0.42177 0.04500
C 	C 	0.21288 0.12102 0.51577 0.04200
C 	C 	0.14675 0.08292 0.51206 -0.06300
C 	C 	0.10886 0.05811 0.48188 -0.03100
C 	C 	0.25302 0.14747 0.54841 -0.18000
H 	H 	0.12465 0.07211 0.53263 0.04100
C 	C 	0.29807 0.06558 0.48511 -0.16800
H 	H 	0.12657 0.06398 0.40384 0.06000
H 	H 	0.28144 0.12903 0.55103 0.06300
H 	H 	0.22372 0.13322 0.56700 0.05900
H 	H 	0.32763 0.04829 0.48649 0.05500
H 	H 	0.26571 0.04310 0.46179 0.06000
H 	H 	0.26971 0.04925 0.50403 0.06000
C 	C 	0.89135 0.10611 0.02840 0.04400
C 	C 	0.92594 0.08124 0.02680 -0.06700
C 	C 	0.93914 0.06742 0.99791 -0.02700
C 	C 	0.87382 0.11638 0.05925 -0.18100
H 	H 	0.94127 0.07106 0.04791 0.04200
H 	H 	0.74468 0.04628 0.99139 0.04900
H 	H 	0.82169 0.08299 0.05725 0.06400
H 	H 	0.89595 0.10736 0.07895 0.05900
H 	H 	0.63790 0.07696 0.96105 0.05500
H 	H 	0.64304 0.01836 0.97612 0.06000
C 	C 	0.12558 0.07099 0.98327 -0.02700
C 	C 	0.13712 0.04928 0.95554 0.04700
C 	C 	0.19929 0.07290 0.95321 -0.07300
H 	H 	0.20803 0.05291 0.93315 0.04300
H 	H 	0.25250 0.02435 0.99809 0.06400
H 	H 	0.05891 0.11866 0.98963 0.04800
H 	H 	0.03199 0.09403 0.48061 0.05000
O 	O 	0.53399 0.19310 0.99840 -0.36700
O 	O 	0.66511 0.18436 0.99908 -0.37700
C 	C 	0.71779 0.20768 0.98833 0.29400
H 	H 	0.57918 0.21765 0.94399 0.16700
H 	H 	0.58283 0.22962 0.46028 0.15800
H 	H 	0.67700 0.25879 0.66724 0.04100
H 	H 	0.68299 0.25102 0.61088 0.02400
H 	H 	0.56880 0.21001 0.84159 0.02600
H 	H 	0.57073 0.22630 0.78655 0.04200
H 	H 	0.60040 0.17154 0.25333 0.03600
H 	H 	0.59520 0.16307 0.19576 0.03600
C 	C 	0.86138 0.10527 0.47203 -0.01300
C 	C 	0.87419 0.08864 0.50024 0.04100
C 	C 	0.89597 0.05088 0.49954 -0.06300
C 	C 	0.84130 0.14761 0.47230 0.00800
C 	C 	0.86582 0.11202 0.53114 -0.17800
H 	H 	0.90746 0.03939 0.52126 0.04000
C 	C 	0.88604 0.21480 0.47470 0.01900
C 	C 	0.86600 0.25414 0.47641 -0.01400
C 	C 	0.80221 0.22736 0.47608 -0.11700
C 	C 	0.75760 0.16008 0.47410 0.09200
C 	C 	0.77736 0.12066 0.47124 -0.09600
C 	C 	0.95504 0.24464 0.47560 -0.16900
C 	C 	0.68916 0.13009 0.47529 -0.19500
H 	H 	0.74320 0.06900 0.46915 0.04900
H 	H 	0.81553 0.09265 0.52991 0.06000
H 	H 	0.89595 0.16547 0.53625 0.06000
H 	H 	0.87933 0.09617 0.55113 0.05700
H 	H 	0.96089 0.22535 0.45338 0.06100
H 	H 	0.97350 0.23349 0.49590 0.05900
H 	H 	0.66349 0.07967 0.47906 0.05900
H 	H 	0.66523 0.12955 0.45267 0.07400
H 	H 	0.68555 0.15744 0.49509 0.04400
C 	C 	0.20328 0.11044 0.45867 -0.07300
C 	C 	0.24113 0.13384 0.48880 -0.01400
C 	C 	0.13721 0.07257 0.45497 0.05200
C 	C 	0.31031 0.17034 0.49177 0.01000
C 	C 	0.09714 0.04702 0.42233 -0.18600
H 	H 	0.22534 0.12098 0.43809 0.04400
C 	C 	0.33800 0.13795 0.48905 0.01900
C 	C 	0.40291 0.17331 0.48878 -0.01400
C 	C 	0.44037 0.24035 0.49148 -0.11400
C 	C 	0.34819 0.23762 0.49566 -0.09900
H 	H 	0.42406 0.14849 0.48569 0.02600
H 	H 	0.32673 0.26227 0.49801 0.05000
H 	H 	0.06701 0.06360 0.42045 0.06300
H 	H 	0.28535 0.20089 0.55242 0.06400
C 	C 	0.88578 0.10663 0.97205 -0.07000
C 	C 	0.87124 0.11893 0.00078 -0.01700
C 	C 	0.91849 0.07973 0.97023 0.04800
C 	C 	0.83209 0.14220 0.00134 0.00600
C 	C 	0.93077 0.06385 0.93874 -0.18200
H 	H 	0.87037 0.11677 0.95095 0.04100
C 	C 	0.86036 0.20872 0.00629 0.01900
C 	C 	0.82191 0.22925 0.00387 -0.01700
C 	C 	0.75579 0.18434 0.99574 -0.11500
C 	C 	0.72750 0.11759 0.99128 0.09200
C 	C 	0.76605 0.09729 0.99478 -0.09400
C 	C 	0.65666 0.06784 0.98213 -0.19600
H 	H 	0.98217 0.09653 0.93850 0.06000
H 	H 	0.90545 0.06951 0.91903 0.05700
H 	H 	0.91422 0.01314 0.93426 0.06100
H 	H 	0.88997 0.16675 0.06539 0.06300
H 	H 	0.63403 0.06922 0.00209 0.07700
C 	C 	0.35042 0.18109 0.95636 -0.09700
C 	C 	0.31415 0.13933 0.97615 0.00700
C 	C 	0.33927 0.11553 0.99525 0.02300
C 	C 	0.40333 0.14129 0.99778 -0.01700
C 	C 	0.44118 0.18675 0.97962 -0.11200
C 	C 	0.41289 0.20250 0.95680 0.09400
C 	C 	0.25011 0.12120 0.97701 -0.01200
C 	C 	0.29846 0.06385 0.01347 -0.17400
H 	H 	0.42405 0.12708 0.01443 0.04100
H 	H 	0.33000 0.19687 0.94058 0.04900
C 	C 	0.23913 0.14955 0.00235 0.04200
C 	C 	0.17673 0.12253 0.00594 -0.06600
C 	C 	0.29358 0.20732 0.02596 -0.18000
H 	H 	0.16795 0.14077 0.02666 0.04200
H 	H 	0.28965 0.08450 0.03397 0.06000
H 	H 	0.32145 0.04233 0.02235 0.05900
H 	H 	0.31539 0.19229 0.04228 0.06100
H 	H 	0.10015 0.00303 0.90622 0.05700
H 	H 	0.04560 0.00578 0.92612 0.06000
H 	H 	0.27767 0.23132 0.04015 0.05900
H 	H 	0.98413 0.29787 0.47820 0.05600
C 	C 	0.41343 0.27315 0.49625 0.10300
H 	H 	0.95321 0.24976 0.03281 0.05900
H 	H 	0.41531 0.23160 0.91143 0.06300
H 	H 	0.47946 0.22920 0.92514 0.06500
O 	O 	0.73651 0.25132 0.97054 -0.44600
H 	H 	0.55695 0.30543 0.75032 0.03500
H 	H 	0.56676 0.30776 0.69432 0.03600
H 	H 	0.74891 0.27555 0.15776 0.04300
H 	H 	0.73342 0.27899 0.10107 0.02800
H 	H 	0.68581 0.22253 0.36363 0.03800
H 	H 	0.69925 0.21636 0.30823 0.04400
Cu	Cu	0.62667 0.23106 0.00107 0.92600
Cu	Cu	0.67977 0.23736 0.93498 0.86800
O 	O 	0.62244 0.24258 0.95670 -0.64200
C 	C 	0.51059 0.22129 0.98664 0.28800
O 	O 	0.64375 0.23686 0.04575 -0.36500
O 	O 	0.64293 0.24539 0.89758 -0.42400
Cu	Cu	0.75080 0.30981 0.53069 0.87000
O 	O 	0.61429 0.27710 0.46440 -0.63900
O 	O 	0.73489 0.25721 0.45942 -0.37800
O 	O 	0.54727 0.27986 0.51057 -0.38300
C 	C 	0.50678 0.27505 0.48811 0.29600
C 	C 	0.78314 0.27026 0.47950 0.29600
O 	O 	0.68757 0.28249 0.55710 -0.43600
C 	C 	0.67461 0.29075 0.65404 -0.07000
C 	C 	0.67802 0.28640 0.62205 0.01000
C 	C 	0.60124 0.32048 0.74350 -0.04000
C 	C 	0.60684 0.32192 0.71181 -0.04000
C 	C 	0.60089 0.25808 0.83684 0.01200
C 	C 	0.60169 0.26735 0.80563 -0.06900
C 	C 	0.70705 0.26974 0.14674 -0.06800
C 	C 	0.69820 0.27158 0.11463 0.01100
C 	C 	0.63436 0.21338 0.24395 -0.04000
C 	C 	0.63139 0.20859 0.21135 -0.04000
C 	C 	0.67864 0.24986 0.34895 0.01400
C 	C 	0.68611 0.24619 0.31751 -0.06700
C 	C 	0.93138 0.25780 0.01255 -0.17100
H 	H 	0.84354 0.28032 0.00737 0.03200
H 	H 	0.94996 0.25377 0.99131 0.06000
C 	C 	0.44849 0.24153 0.93286 -0.19900
H 	H 	0.32992 0.24340 0.01367 0.06300
H 	H 	0.87931 0.03120 0.39156 0.06000
H 	H 	0.95097 0.04781 0.41223 0.06100
O 	O 	0.67713 0.27472 0.41450 -0.36800
C 	C 	0.89963 0.02198 0.41198 -0.18600
C 	C 	0.67648 0.32158 0.57046 0.28800
O 	O 	0.52617 0.30862 0.46534 -0.40200
H 	H 	0.90015 0.30571 0.47820 0.03300
Cu	Cu	0.66765 0.33786 0.96310 0.89600
C 	C 	0.63714 0.27132 0.06704 0.28800
C 	C 	0.65016 0.29881 0.89399 0.28700
O 	O 	0.67854 0.33149 0.00656 -0.64100
O 	O 	0.61032 0.29877 0.05867 -0.39000
O 	O 	0.54873 0.28266 0.98524 -0.39700
O 	O 	0.67184 0.34570 0.91840 -0.39100
Cu	Cu	0.70678 0.31375 0.45820 0.92300
Cu	Cu	0.63379 0.31651 0.50766 0.90900
Cu	Cu	0.59081 0.31934 0.44088 0.89200
C 	C 	0.64990 0.28955 0.39385 0.29000
O 	O 	0.72145 0.34703 0.50386 -0.63300
O 	O 	0.80631 0.31308 0.50552 -0.43300
O 	O 	0.60205 0.29010 0.39948 -0.39000
O 	O 	0.65657 0.34649 0.55266 -0.38700
C 	C 	0.67431 0.32710 0.60453 -0.09700
C 	C 	0.66794 0.37271 0.61961 0.01400
C 	C 	0.66443 0.37687 0.65162 -0.07000
C 	C 	0.66762 0.33583 0.66892 0.02500
C 	C 	0.66350 0.33984 0.70261 -0.00200
C 	C 	0.71513 0.35826 0.72547 -0.04000
C 	C 	0.70954 0.35679 0.75713 -0.04000
C 	C 	0.65227 0.33696 0.76622 -0.00200
C 	C 	0.64444 0.32895 0.79904 0.02400
C 	C 	0.68377 0.38182 0.82396 -0.06900
C 	C 	0.68308 0.37260 0.85519 0.01100
C 	C 	0.64308 0.31032 0.86175 -0.09300
H 	H 	0.66578 0.40499 0.60659 0.03200
H 	H 	0.75919 0.37257 0.71860 0.03300
H 	H 	0.74917 0.36949 0.77448 0.03400
C 	C 	0.64477 0.26550 0.10030 -0.08700
C 	C 	0.59943 0.25572 0.11814 0.01300
C 	C 	0.60813 0.25358 0.15011 -0.06800
C 	C 	0.66222 0.26121 0.16463 0.02500
C 	C 	0.67306 0.26321 0.19883 -0.00200
C 	C 	0.72014 0.32175 0.21926 -0.04000
C 	C 	0.72313 0.32655 0.25187 -0.04000
C 	C 	0.67908 0.27282 0.26428 -0.00100
C 	C 	0.67572 0.28022 0.29799 0.02500
C 	C 	0.65882 0.31877 0.31027 -0.06700
C 	C 	0.65123 0.32240 0.34164 0.01200
C 	C 	0.66047 0.28749 0.36110 -0.08600
H 	H 	0.55752 0.24999 0.10724 0.03100
H 	H 	0.57329 0.24697 0.16376 0.04300
H 	H 	0.65053 0.34506 0.29533 0.04300
C 	C 	0.45357 0.34565 0.50127 -0.20400
H 	H 	0.42869 0.36406 0.51108 0.06400
H 	H 	0.46475 0.36151 0.47844 0.07400
H 	H 	0.49825 0.36755 0.51827 0.07600
H 	H 	0.94610 0.30774 0.01832 0.05500
H 	H 	0.47754 0.29367 0.94317 0.07200
H 	H 	0.65941 0.41210 0.66299 0.04300
H 	H 	0.63775 0.35200 0.35076 0.02300
Cu	Cu	0.62678 0.34896 0.02407 0.89200
H 	H 	0.72315 0.35834 0.01774 0.15900
O 	O 	0.67660 0.41162 0.46484 -0.39800
H 	H 	0.75133 0.39462 0.50911 0.15600
H 	H 	0.75270 0.36411 0.20981 0.03500
H 	H 	0.75828 0.37247 0.26742 0.03600
O 	O 	0.75152 0.40409 0.44884 -0.37100
H 	H 	0.71551 0.41346 0.87417 0.03300
H 	H 	0.71633 0.42971 0.81910 0.04300
H 	H 	0.66937 0.43607 0.39861 0.05900
C 	C 	0.72966 0.43743 0.45436 0.29100
H 	H 	0.63493 0.46076 0.42473 0.05700
O 	O 	0.71574 0.43067 0.97233 -0.38700
O 	O 	0.66648 0.43535 0.01241 -0.40200
C 	C 	0.67276 0.47786 0.41058 -0.20100
C 	C 	0.03955 0.01592 0.47859 0.04100
C 	C 	0.71179 0.46392 0.99570 0.29700
H 	H 	0.66472 0.49990 0.39187 0.06200
C 	C 	0.76591 0.50491 0.45018 -0.11300
H 	H 	0.83323 0.50975 0.02183 0.05800
H 	H 	0.84427 0.51652 0.98141 0.07100
C 	C 	0.73659 0.52576 0.43176 0.09600
H 	H 	0.85060 0.53401 0.48102 0.03000
H 	H 	0.66822 0.53424 0.99530 0.03700
C 	C 	0.74989 0.53444 0.99870 -0.10800
C 	C 	0.94013 0.00187 0.47222 0.03900
C 	C 	0.85105 0.54318 0.00487 -0.20000
C 	C 	0.82764 0.55014 0.46740 -0.01300
C 	C 	0.08344 0.99926 0.92900 -0.17700
H 	H 	0.06648 0.99355 0.41748 0.06500
C 	C 	0.93552 0.97006 0.99917 -0.08300
C 	C 	0.96387 0.93872 0.99744 0.03800
C 	C 	0.02690 0.97262 0.99361 -0.08200
H 	H 	0.88665 0.94372 0.00208 0.04800
H 	H 	0.04900 0.94846 0.99263 0.04900
C 	C 	0.00660 0.94917 0.47500 -0.08500
C 	C 	0.94033 0.90844 0.46952 0.04000
C 	C 	0.90698 0.93482 0.46793 -0.08700
H 	H 	0.03243 0.92887 0.47585 0.05000
H 	H 	0.85569 0.90344 0.46330 0.04900
C 	C 	0.76630 0.59185 0.43396 -0.09600
C 	C 	0.82666 0.63724 0.45249 0.00900
C 	C 	0.85881 0.61631 0.46825 0.01800
C 	C 	0.85470 0.70658 0.45636 -0.01400
C 	C 	0.92508 0.66431 0.48701 -0.16800
H 	H 	0.74225 0.60805 0.42140 0.04900
C 	C 	0.88265 0.74154 0.43247 0.04200
C 	C 	0.90696 0.80666 0.43637 -0.06300
C 	C 	0.90609 0.83792 0.46428 -0.03100
C 	C 	0.87856 0.80304 0.48830 0.05200
C 	C 	0.85191 0.73724 0.48383 -0.07300
C 	C 	0.88651 0.70962 0.40283 -0.18000
H 	H 	0.92822 0.83362 0.41803 0.04000
C 	C 	0.87775 0.83576 0.51869 -0.18400
H 	H 	0.82975 0.70998 0.50194 0.04400
H 	H 	0.92403 0.68906 0.50898 0.05900
H 	H 	0.95548 0.70062 0.47293 0.06000
H 	H 	0.94707 0.64051 0.49359 0.05500
H 	H 	0.91596 0.74511 0.38817 0.05800
H 	H 	0.83835 0.67355 0.38847 0.06300
H 	H 	0.90817 0.68529 0.40891 0.06300
H 	H 	0.84720 0.85124 0.51390 0.06300
H 	H 	0.92646 0.87845 0.52976 0.06400
H 	H 	0.85906 0.80309 0.53598 0.05900
H 	H 	0.87598 0.96936 0.40840 0.06500
C 	C 	0.85084 0.63905 0.00237 -0.09500
C 	C 	0.82005 0.66798 0.00095 0.00700
C 	C 	0.75392 0.63029 0.99916 0.02100
C 	C 	0.71925 0.56363 0.99770 -0.01400
C 	C 	0.81649 0.57274 0.00206 0.09300
C 	C 	0.85721 0.73758 0.00033 -0.01600
C 	C 	0.72001 0.66065 0.99791 -0.16800
H 	H 	0.90167 0.66829 0.00385 0.04900
C 	C 	0.88906 0.78388 0.02861 0.04300
C 	C 	0.92383 0.84959 0.02727 -0.06600
C 	C 	0.92655 0.86939 0.99818 -0.02800
C 	C 	0.89411 0.82305 0.96993 0.05000
C 	C 	0.86027 0.75744 0.97123 -0.07000
C 	C 	0.88648 0.76343 0.06014 -0.18000
H 	H 	0.94885 0.88542 0.04888 0.04200
C 	C 	0.89582 0.84342 0.93842 -0.18300
H 	H 	0.83576 0.72165 0.94961 0.04400
H 	H 	0.90262 0.58058 0.01361 0.06000
H 	H 	0.72184 0.67767 0.97526 0.06100
H 	H 	0.74260 0.70208 0.01780 0.05900
H 	H 	0.66956 0.62599 0.99972 0.05700
H 	H 	0.91092 0.80518 0.08004 0.05800
H 	H 	0.90981 0.73949 0.06186 0.06200
H 	H 	0.83653 0.72945 0.06287 0.06200
H 	H 	0.86559 0.80130 0.91873 0.05900
H 	H 	0.94501 0.87203 0.93409 0.06100
H 	H 	0.87835 0.87305 0.93809 0.06200
H 	H 	0.06346 0.95043 0.93387 0.06000
