data_crystal

_cell_length_a 21.02928
_cell_length_b 19.06969
_cell_length_c 42.78863
_cell_angle_alpha 90.73195
_cell_angle_beta  91.44147
_cell_angle_gamma 111.07674

_symmetry_space_group_name_	'P 1'
_symmetry_space_group_name_H-M	'P 1'

loop_
_symmetry_equiv_pos_as_xyz
  x,y,z

loop_
_atom_site_label
_atom_site_type_symbol
_atom_site_fract_x
_atom_site_fract_y
_atom_site_fract_z
_atom_site_charge
O 	O 	0.01970 0.86508 0.70609 -0.69200
Ni	Ni	0.05770 0.92288 0.66786 1.10600
O 	O 	0.08144 0.97720 0.75746 -0.33300
O 	O 	0.06494 0.11186 0.74472 -0.39000
O 	O 	0.08258 0.84054 0.64667 -0.38400
O 	O 	0.02570 0.99913 0.69066 -0.64000
O 	O 	0.10899 0.99681 0.63516 -0.34500
O 	O 	0.15268 0.11076 0.66016 -0.39000
Ni	Ni	0.09970 0.09468 0.70197 1.06500
H 	H 	0.05354 0.84904 0.71747 0.16100
O 	O 	0.15445 0.03471 0.71904 -0.43600
C 	C 	0.03569 0.77300 0.64215 0.31400
C 	C 	0.14383 0.00616 0.74694 0.26600
C 	C 	0.16158 0.05690 0.64318 0.25400
O 	O 	0.19186 0.68289 0.36762 -0.36700
O 	O 	0.24338 0.56658 0.38234 -0.38500
O 	O 	0.20864 0.59094 0.47366 -0.38100
O 	O 	0.15906 0.60987 0.42710 -0.37100
C 	C 	0.19881 0.75164 0.35982 0.27200
C 	C 	0.15426 0.57894 0.45501 0.33600
O 	O 	0.12017 0.63219 0.00476 -0.35000
O 	O 	0.17596 0.73279 0.05818 -0.35700
C 	C 	0.17216 0.53080 0.04371 0.31700
C 	C 	0.10491 0.58500 0.98024 0.33000
C 	C 	0.20209 0.80490 0.06577 0.26600
O 	O 	0.20991 0.60031 0.05137 -0.40000
O 	O 	0.15262 0.57796 0.96226 -0.40600
O 	O 	0.09160 0.17015 0.25735 -0.41100
Ni	Ni	0.05428 0.17891 0.21266 1.06900
O 	O 	0.09360 0.09952 0.19922 -0.41100
C 	C 	0.07289 0.05998 0.17318 0.29500
C 	C 	0.05502 0.16165 0.28247 0.28200
C 	C 	0.00065 0.28820 0.07492 0.03300
C 	C 	0.04524 0.36151 0.08274 -0.00300
C 	C 	0.05550 0.38571 0.11442 0.02700
C 	C 	0.02442 0.33501 0.13789 -0.00100
C 	C 	0.10044 0.45855 0.12240 -0.05600
C 	C 	0.13778 0.50578 0.09936 0.01500
C 	C 	0.13029 0.48117 0.06787 -0.05900
C 	C 	0.08231 0.40959 0.05951 0.01500
H 	H 	0.03461 0.35265 0.16229 0.02400
H 	H 	0.10792 0.47800 0.14660 0.04200
H 	H 	0.07458 0.39102 0.03518 0.06500
C 	C 	0.10960 0.01341 0.16116 -0.11400
C 	C 	0.18082 0.04316 0.15925 0.03300
C 	C 	0.21432 0.00461 0.14216 -0.09900
C 	C 	0.17669 0.93617 0.12675 0.05600
C 	C 	0.10549 0.90390 0.13034 -0.00700
C 	C 	0.07247 0.94233 0.14784 0.02300
C 	C 	0.06776 0.83559 0.11497 -0.03900
C 	C 	0.09975 0.80174 0.09472 0.00200
C 	C 	0.16989 0.83564 0.08976 -0.05800
C 	C 	0.20867 0.90149 0.10662 -0.03600
H 	H 	0.20988 0.09763 0.16980 0.02700
H 	H 	0.01750 0.91876 0.14983 0.03300
H 	H 	0.01327 0.80982 0.11798 0.05000
H 	H 	0.06958 0.75042 0.08212 0.05900
C 	C 	0.22049 0.43521 0.37819 -0.05700
C 	C 	0.17644 0.31493 0.33472 0.00700
C 	C 	0.13228 0.32089 0.35812 0.03100
C 	C 	0.15509 0.38036 0.38015 -0.01700
C 	C 	0.06479 0.26987 0.35805 -0.07200
C 	C 	0.04015 0.21603 0.33393 0.05200
C 	C 	0.08308 0.21184 0.30990 -0.08800
C 	C 	0.15196 0.25950 0.31109 -0.01300
H 	H 	0.12084 0.38640 0.39767 0.06900
H 	H 	0.03075 0.27341 0.37610 0.06700
C 	C 	0.13728 0.76619 0.35030 -0.07200
C 	C 	0.11285 0.80987 0.36984 0.02400
C 	C 	0.05612 0.82688 0.36052 -0.07000
C 	C 	0.02414 0.80188 0.33121 0.07500
C 	C 	0.04632 0.75466 0.31208 -0.01500
C 	C 	0.10234 0.73596 0.32201 -0.00200
C 	C 	0.01546 0.73173 0.28234 0.00100
H 	H 	0.13832 0.83121 0.39219 0.04800
H 	H 	0.03871 0.86199 0.37559 0.07100
H 	H 	0.12039 0.70078 0.30726 0.03400
H 	H 	0.03036 0.69361 0.26782 0.03400
C 	C 	0.03284 0.56286 0.46250 -0.06200
C 	C 	0.08574 0.53491 0.46625 -0.12100
C 	C 	0.07057 0.46067 0.47610 0.31700
F 	F 	0.12108 0.43257 0.47974 -0.44100
H 	H 	0.04399 0.62021 0.45528 0.09400
H 	H 	0.07630 0.80351 0.58222 0.05200
C 	C 	0.01210 0.54386 0.93935 -0.06500
C 	C 	0.03296 0.54589 0.97083 -0.09300
F 	F 	0.00504 0.50860 0.02355 -0.42400
H 	H 	0.04808 0.57455 0.92219 0.09600
C 	C 	0.00642 0.19087 0.79003 0.09800
H 	H 	0.05939 0.19963 0.79538 0.02800
H 	H 	0.16669 0.91582 0.79090 0.03800
Ni	Ni	0.56644 0.28291 0.90441 1.10100
O 	O 	0.47865 0.23694 0.87839 -0.37000
O 	O 	0.51899 0.33295 0.93402 -0.37400
C 	C 	0.55519 0.13139 0.92996 0.33100
C 	C 	0.46963 0.17766 0.86002 0.27100
C 	C 	0.54360 0.40631 0.93878 0.31500
O 	O 	0.53431 0.18873 0.93191 -0.36800
O 	O 	0.50034 0.12966 0.86677 -0.40900
O 	O 	0.58179 0.36250 0.48759 -0.37500
O 	O 	0.56738 0.20804 0.48652 -0.36600
O 	O 	0.53463 0.15049 0.54652 -0.40800
O 	O 	0.53828 0.27192 0.54256 -0.37400
C 	C 	0.58419 0.14843 0.48237 0.33500
C 	C 	0.51577 0.20628 0.55633 0.27100
Ni	Ni	0.24800 0.66457 0.40412 1.10200
O 	O 	0.33448 0.71090 0.37955 -0.70500
Ni	Ni	0.40515 0.70423 0.41006 1.10100
O 	O 	0.25341 0.80949 0.36935 -0.39500
Ni	Ni	0.35482 0.81471 0.36861 1.06800
O 	O 	0.36226 0.85009 0.41408 -0.39500
O 	O 	0.48471 0.74067 0.38075 -0.37500
O 	O 	0.32048 0.67284 0.43691 -0.70100
O 	O 	0.46230 0.66675 0.44073 -0.37300
O 	O 	0.37665 0.55217 0.44275 -0.38500
Ni	Ni	0.29444 0.57736 0.45858 1.09000
H 	H 	0.33402 0.68079 0.36047 0.15500
H 	H 	0.32294 0.71356 0.45201 0.17100
C 	C 	0.41826 0.86144 0.43060 0.34900
O 	O 	0.23219 0.50041 0.42709 -0.36100
C 	C 	0.49397 0.79934 0.36262 0.26800
C 	C 	0.23883 0.50480 0.39679 0.28900
C 	C 	0.44009 0.59616 0.44938 0.31600
O 	O 	0.44441 0.80833 0.43253 -0.37200
O 	O 	0.45934 0.84495 0.36700 -0.40000
Ni	Ni	0.36854 0.70427 0.01385 1.10000
O 	O 	0.27518 0.66656 0.99140 -0.70000
Ni	Ni	0.21696 0.68865 0.02352 1.10200
O 	O 	0.40832 0.64213 0.98641 -0.37400
O 	O 	0.31878 0.53432 0.99582 -0.38200
O 	O 	0.40560 0.79116 0.98273 -0.36800
Ni	Ni	0.23536 0.55962 0.97979 1.08500
O 	O 	0.44744 0.86434 0.04268 -0.40300
O 	O 	0.17753 0.50198 0.01620 -0.37700
O 	O 	0.31265 0.73804 0.04351 -0.70000
O 	O 	0.45842 0.74898 0.03843 -0.37700
O 	O 	0.24876 0.85153 0.04835 -0.39100
Ni	Ni	0.34583 0.84736 0.04499 1.06800
H 	H 	0.27557 0.69688 0.97274 0.17200
H 	H 	0.31598 0.71875 0.06462 0.15400
O 	O 	0.33708 0.85349 0.99799 -0.39100
C 	C 	0.38004 0.56836 0.98489 0.31600
C 	C 	0.38572 0.84916 0.98054 0.34500
C 	C 	0.47542 0.81590 0.05228 0.27200
H 	H 	0.17337 0.56119 0.10612 0.04000
C 	C 	0.53769 0.84397 0.07225 -0.06900
C 	C 	0.54428 0.89843 0.09575 0.00500
C 	C 	0.59101 0.81739 0.06764 -0.01600
H 	H 	0.50324 0.91904 0.09950 0.01700
H 	H 	0.58643 0.77607 0.04922 0.05700
H 	H 	0.26914 0.02920 0.14004 0.04500
H 	H 	0.26319 0.92664 0.10342 0.03000
C 	C 	0.55808 0.82847 0.34543 -0.06100
C 	C 	0.55901 0.86011 0.31584 -0.02300
H 	H 	0.51203 0.86111 0.30515 0.02700
H 	H 	0.57536 0.92042 0.25886 0.04100
C 	C 	0.26502 0.42752 0.35572 0.00400
C 	C 	0.24342 0.36714 0.33430 -0.05000
H 	H 	0.31582 0.46948 0.35434 0.02900
H 	H 	0.27797 0.36251 0.31670 0.04100
H 	H 	0.18584 0.25504 0.29311 0.04000
C 	C 	0.46912 0.05465 0.46878 -0.12800
C 	C 	0.53937 0.08394 0.46337 -0.11600
C 	C 	0.56826 0.04200 0.44515 0.30200
C 	C 	0.52857 0.96938 0.43459 -0.05300
C 	C 	0.45934 0.93828 0.44166 -0.15200
C 	C 	0.42920 0.98205 0.45799 0.36900
F 	F 	0.36197 0.95325 0.46450 -0.44600
H 	H 	0.44626 0.08637 0.48286 0.10600
H 	H 	0.55173 0.93710 0.42100 0.09500
C 	C 	0.55343 0.58138 0.44897 -0.08800
C 	C 	0.48866 0.56281 0.46175 -0.12700
C 	C 	0.46802 0.50701 0.48440 0.33600
C 	C 	0.50997 0.46728 0.49279 -0.08900
C 	C 	0.57318 0.48314 0.47886 -0.12400
C 	C 	0.59559 0.54173 0.45748 0.33400
H 	H 	0.57005 0.62453 0.43159 0.09600
H 	H 	0.49295 0.42345 0.50987 0.09700
F 	F 	0.40690 0.49069 0.49803 -0.46000
C 	C 	0.45546 0.18897 0.57603 -0.06700
C 	C 	0.44706 0.24586 0.59480 0.00300
C 	C 	0.38817 0.23132 0.61202 -0.05300
C 	C 	0.33687 0.15964 0.61071 0.01500
C 	C 	0.34551 0.10185 0.59229 0.02200
C 	C 	0.40480 0.11673 0.57507 -0.02400
C 	C 	0.29453 0.03012 0.59107 -0.07000
C 	C 	0.23508 0.01580 0.60773 -0.01800
C 	C 	0.22527 0.07324 0.62570 -0.05500
C 	C 	0.27680 0.14511 0.62740 -0.02300
H 	H 	0.48610 0.30155 0.59594 0.03500
H 	H 	0.38236 0.27598 0.62622 0.04600
H 	H 	0.41078 0.07272 0.56047 0.05000
H 	H 	0.30087 0.98526 0.57719 0.07200
H 	H 	0.19660 0.95977 0.60671 0.06400
H 	H 	0.27016 0.18952 0.64148 0.04600
C 	C 	0.05457 0.74441 0.58764 0.01800
C 	C 	0.44073 0.03454 0.93917 -0.12600
C 	C 	0.51210 0.05797 0.94224 -0.11500
C 	C 	0.54175 0.00963 0.95562 0.30100
C 	C 	0.50030 0.93953 0.96656 -0.05400
C 	C 	0.42884 0.91703 0.96431 -0.14800
C 	C 	0.39932 0.96448 0.95005 0.36800
F 	F 	0.33050 0.94280 0.94679 -0.44100
H 	H 	0.41729 0.07037 0.92806 0.10700
H 	H 	0.52375 0.90388 0.97781 0.09900
C 	C 	0.49048 0.54817 0.98284 -0.09000
C 	C 	0.42064 0.52369 0.97484 -0.12600
C 	C 	0.39050 0.45808 0.95627 0.33400
C 	C 	0.43038 0.41864 0.94517 -0.08900
C 	C 	0.50065 0.44445 0.95244 -0.12900
C 	C 	0.53027 0.50872 0.97182 0.33400
F 	F 	0.59755 0.53262 0.98017 -0.47000
H 	H 	0.51397 0.59786 0.99763 0.09600
H 	H 	0.40698 0.36918 0.93025 0.09900
F 	F 	0.32314 0.43402 0.94808 -0.46200
C 	C 	0.20201 0.02431 0.76918 -0.08800
C 	C 	0.20577 0.97147 0.79097 0.02800
C 	C 	0.26012 0.99034 0.81290 -0.03300
C 	C 	0.31063 0.06262 0.81345 -0.00400
C 	C 	0.30655 0.11599 0.79163 0.01700
C 	C 	0.25264 0.09632 0.76948 -0.01400
C 	C 	0.35594 0.18875 0.79256 -0.05800
C 	C 	0.40891 0.20863 0.81504 0.00400
C 	C 	0.41364 0.15583 0.83658 -0.07600
C 	C 	0.36462 0.08269 0.83574 -0.01100
H 	H 	0.26262 0.94900 0.82956 0.05600
H 	H 	0.24911 0.13752 0.75292 0.03100
H 	H 	0.35312 0.23008 0.77596 0.04200
H 	H 	0.44673 0.26508 0.81560 0.02500
H 	H 	0.36797 0.04212 0.85265 0.04800
O 	O 	0.01848 0.06065 0.15783 -0.36200
O 	O 	0.04080 0.20367 0.16713 -0.37800
C 	C 	0.04735 0.72234 0.61894 -0.08200
H 	H 	0.02417 0.62818 0.64948 0.02500
C 	C 	0.00269 0.41401 0.48074 -0.01200
C 	C 	0.02498 0.64558 0.62540 0.02100
C 	C 	0.02361 0.69171 0.56366 -0.02100
H 	H 	0.02378 0.71027 0.53981 0.06100
Ni	Ni	0.60382 0.15595 0.86637 1.06700
O 	O 	0.60708 0.13546 0.91283 -0.38900
O 	O 	0.60431 0.44655 0.92882 -0.38700
C 	C 	0.60346 0.92600 0.11467 -0.05500
H 	H 	0.60770 0.96781 0.13280 0.04400
F 	F 	0.61057 0.03132 0.95884 -0.44400
C 	C 	0.61350 0.43539 0.48527 0.31900
O 	O 	0.00013 0.10126 0.28523 -0.35300
C 	C 	0.99948 0.09053 0.75085 0.26400
H 	H 	0.99754 0.25506 0.83031 0.06000
H 	H 	0.99085 0.26952 0.05065 0.01300
C 	C 	0.97197 0.14421 0.76462 -0.13200
Ni	Ni	0.99224 0.94170 0.73026 1.08900
H 	H 	0.98836 0.00991 0.67982 0.11000
C 	C 	0.98709 0.25921 0.13016 -0.07600
C 	C 	0.97505 0.82939 0.31948 -0.06700
H 	H 	0.96003 0.86814 0.33363 0.06000
C 	C 	0.98554 0.50709 0.99299 0.27800
O 	O 	0.96230 0.01886 0.75184 -0.39300
Ni	Ni	0.72148 0.31850 0.89450 1.10200
O 	O 	0.62801 0.26327 0.87340 -0.70000
O 	O 	0.76982 0.28899 0.85850 -0.35600
O 	O 	0.70525 0.16434 0.86314 -0.39700
O 	O 	0.71838 0.40724 0.86888 -0.38800
O 	O 	0.77671 0.41328 0.96046 -0.41200
O 	O 	0.65844 0.32334 0.92811 -0.70200
O 	O 	0.81557 0.38189 0.91411 -0.34800
Ni	Ni	0.69058 0.42686 0.94448 1.08400
H 	H 	0.62309 0.28642 0.85334 0.15200
H 	H 	0.66036 0.28902 0.94497 0.16900
O 	O 	0.74679 0.49184 0.90984 -0.37800
C 	C 	0.75096 0.21895 0.84820 0.26400
C 	C 	0.73530 0.47631 0.87979 0.30600
C 	C 	0.82705 0.41699 0.94184 0.33400
Ni	Ni	0.62107 0.29993 0.51526 1.10100
O 	O 	0.70744 0.32241 0.49033 -0.69900
Ni	Ni	0.76850 0.29384 0.52051 1.10100
O 	O 	0.67836 0.46678 0.49387 -0.37900
Ni	Ni	0.75257 0.42723 0.47787 1.08900
O 	O 	0.81649 0.48471 0.51468 -0.35500
O 	O 	0.86116 0.33474 0.49848 -0.38100
O 	O 	0.67843 0.26190 0.54355 -0.69800
O 	O 	0.81098 0.24529 0.55370 -0.37000
O 	O 	0.72363 0.13232 0.54683 -0.40000
Ni	Ni	0.63345 0.15371 0.54671 1.06600
H 	H 	0.69821 0.28901 0.47154 0.17100
H 	H 	0.68386 0.28634 0.56451 0.15300
C 	C 	0.83562 0.45308 0.53849 0.29200
O 	O 	0.63227 0.13948 0.49979 -0.40200
C 	C 	0.87714 0.39079 0.47845 0.33400
C 	C 	0.77977 0.17500 0.56192 0.27300
O 	O 	0.79533 0.38797 0.54806 -0.40100
O 	O 	0.82970 0.40072 0.46014 -0.38100
O 	O 	0.95174 0.86794 0.76545 -0.36500
O 	O 	0.88326 0.77655 0.73189 -0.41200
Ni	Ni	0.93833 0.77985 0.69179 1.05700
O 	O 	0.88862 0.84498 0.67268 -0.40900
C 	C 	0.91322 0.88772 0.64878 0.27500
C 	C 	0.91166 0.79769 0.75988 0.27100
O 	O 	0.97317 0.89425 0.63853 -0.37500
O 	O 	0.97153 0.76033 0.64917 -0.43000
Ni	Ni	0.96337 0.02528 0.24880 1.08300
O 	O 	0.96163 0.10819 0.21964 -0.72800
Ni	Ni	0.92990 0.05070 0.17946 1.08400
O 	O 	0.86616 0.00743 0.26459 -0.39500
O 	O 	0.87359 0.85508 0.25787 -0.41100
O 	O 	0.92761 0.14005 0.15409 -0.37900
O 	O 	0.94123 0.96771 0.20739 -0.68600
O 	O 	0.97160 0.94424 0.27698 -0.37800
O 	O 	0.87668 0.98092 0.14336 -0.36200
O 	O 	0.83554 0.86525 0.16449 -0.40800
Ni	Ni	0.86093 0.87595 0.21193 1.06700
H 	H 	0.93062 0.13381 0.22630 0.15200
H 	H 	0.98003 0.95299 0.20177 0.14200
O 	O 	0.80479 0.93984 0.22186 -0.43000
C 	C 	0.98274 0.20210 0.15374 0.24200
C 	C 	0.80711 0.96814 0.25021 0.30700
C 	C 	0.82546 0.91827 0.14814 0.28400
C 	C 	0.93404 0.87342 0.27182 0.26800
C 	C 	0.97192 0.23718 0.09855 -0.04400
H 	H 	0.94211 0.17919 0.09225 0.05500
C 	C 	0.65666 0.89922 0.11036 0.01600
C 	C 	0.65043 0.84462 0.08663 0.02000
C 	C 	0.70347 0.81745 0.08246 -0.05700
C 	C 	0.76156 0.84303 0.10214 0.01500
C 	C 	0.76738 0.89636 0.12598 -0.07200
C 	C 	0.71551 0.92527 0.12977 -0.01900
H 	H 	0.69941 0.77590 0.06425 0.05500
H 	H 	0.80182 0.82086 0.09909 0.03800
H 	H 	0.72028 0.96650 0.14826 0.03400
C 	C 	0.61911 0.82753 0.35924 0.01000
C 	C 	0.68052 0.85775 0.34379 -0.04900
C 	C 	0.68180 0.88891 0.31418 0.01600
C 	C 	0.62066 0.88977 0.29999 0.01700
C 	C 	0.62187 0.91943 0.27001 -0.05800
C 	C 	0.68309 0.94682 0.25405 0.00700
C 	C 	0.74396 0.94617 0.26810 -0.07700
C 	C 	0.74328 0.91803 0.29833 -0.01300
H 	H 	0.61915 0.80439 0.38223 0.05400
H 	H 	0.72711 0.85678 0.35487 0.05500
H 	H 	0.68308 0.96812 0.23070 0.03100
H 	H 	0.79008 0.91652 0.30905 0.05500
H 	H 	0.98714 0.17903 0.33345 0.01000
C 	C 	0.96916 0.76276 0.27029 -0.05600
C 	C 	0.95314 0.81628 0.28800 -0.04700
H 	H 	0.95055 0.75029 0.24625 0.01600
F 	F 	0.63558 0.07058 0.43878 -0.44800
C 	C 	0.94940 0.44096 0.47538 -0.16900
C 	C 	0.96517 0.51639 0.46693 0.31200
H 	H 	0.99152 0.35642 0.48761 0.06000
F 	F 	0.91491 0.54472 0.46291 -0.46400
F 	F 	0.65681 0.55806 0.44396 -0.45600
C 	C 	0.81626 0.13839 0.58183 -0.08200
C 	C 	0.88758 0.16124 0.58122 0.01400
C 	C 	0.92091 0.11749 0.59510 -0.07300
C 	C 	0.88325 0.05034 0.60966 0.03600
C 	C 	0.81196 0.02921 0.61183 -0.02800
C 	C 	0.77890 0.07397 0.59828 -0.00600
C 	C 	0.77439 0.96226 0.62660 -0.01600
C 	C 	0.80726 0.91588 0.63860 -0.01600
C 	C 	0.87797 0.93589 0.63591 -0.04200
C 	C 	0.91581 0.00339 0.62149 -0.06700
H 	H 	0.91697 0.21120 0.56890 0.04200
H 	H 	0.97582 0.13485 0.59382 0.04400
H 	H 	0.72396 0.05725 0.59943 0.01500
H 	H 	0.71967 0.94572 0.62852 0.03800
H 	H 	0.77763 0.86408 0.64969 0.04600
H 	H 	0.97058 0.01956 0.61970 0.04100
C 	C 	0.89448 0.49816 0.55879 -0.06100
C 	C 	0.90562 0.47116 0.58810 -0.00200
C 	C 	0.95386 0.51813 0.60946 -0.04600
C 	C 	0.99108 0.59261 0.60184 -0.01800
C 	C 	0.98643 0.61690 0.57107 -0.00100
C 	C 	0.93855 0.56907 0.54948 -0.01800
H 	H 	0.87505 0.41477 0.59484 0.04100
H 	H 	0.95929 0.49795 0.63257 0.03000
H 	H 	0.93287 0.58866 0.52628 0.06900
C 	C 	0.91828 0.46503 0.98351 -0.07600
C 	C 	0.89772 0.46182 0.95189 -0.13100
C 	C 	0.94477 0.50257 0.92991 0.31000
H 	H 	0.88243 0.43413 0.00067 0.08100
F 	F 	0.92494 0.50323 0.89950 -0.44600
C 	C 	0.79114 0.19998 0.82421 -0.06000
C 	C 	0.75834 0.15883 0.79732 -0.00700
C 	C 	0.79613 0.14046 0.77436 -0.04600
C 	C 	0.86698 0.16114 0.77854 -0.01000
C 	C 	0.90051 0.20364 0.80537 0.04600
C 	C 	0.86244 0.22407 0.82787 -0.03000
C 	C 	0.97097 0.22122 0.81016 -0.11900
C 	C 	0.90382 0.13484 0.75755 0.00600
H 	H 	0.70348 0.14119 0.79417 0.01000
H 	H 	0.77002 0.10820 0.75377 0.03400
H 	H 	0.88779 0.25637 0.84861 0.05800
H 	H 	0.87783 0.10069 0.73731 0.02200
C 	C 	0.88573 0.74801 0.78657 -0.07000
C 	C 	0.92770 0.75425 0.81334 0.00400
C 	C 	0.90472 0.70508 0.83807 -0.05200
C 	C 	0.83955 0.64882 0.83629 0.02100
C 	C 	0.79653 0.64324 0.80971 0.01500
C 	C 	0.81968 0.69309 0.78505 -0.02200
C 	C 	0.73157 0.58665 0.80780 -0.05500
C 	C 	0.71050 0.53416 0.83147 0.00800
C 	C 	0.75371 0.53807 0.85749 -0.06200
C 	C 	0.81759 0.59657 0.86026 -0.01100
H 	H 	0.97866 0.79639 0.81476 0.03800
H 	H 	0.93805 0.71009 0.85838 0.05500
H 	H 	0.78663 0.68883 0.76468 0.04500
H 	H 	0.69790 0.58230 0.78768 0.04300
H 	H 	0.66099 0.48945 0.82929 0.02900
H 	H 	0.85108 0.59958 0.88035 0.07400
