data_crystal

_cell_length_a 18.76184
_cell_length_b 17.21066
_cell_length_c 49.96826
_cell_angle_alpha 89.63589
_cell_angle_beta  89.64157
_cell_angle_gamma 119.43278

_symmetry_space_group_name_	'P 1'
_symmetry_space_group_name_H-M	'P 1'

loop_
_symmetry_equiv_pos_as_xyz
  x,y,z

loop_
_atom_site_label
_atom_site_type_symbol
_atom_site_fract_x
_atom_site_fract_y
_atom_site_fract_z
_atom_site_charge
O 	O 	0.02229 0.97429 0.73653 -0.70100
H 	H 	0.03370 0.99616 0.75504 0.15500
O 	O 	0.00066 0.07959 0.22377 -0.70200
H 	H 	0.00125 0.08408 0.24337 0.15600
S 	S 	0.01316 0.14537 0.37759 -0.01300
H 	H 	0.02526 0.33448 0.35153 0.05200
C 	C 	0.00103 0.62709 0.47589 0.13000
H 	H 	0.05539 0.75226 0.58445 0.06200
C 	C 	0.06140 0.55698 0.91614 0.06000
C 	C 	0.05270 0.55543 0.88729 0.08300
N 	N 	0.04586 0.55433 0.86427 -0.10300
H 	H 	0.10471 0.80051 0.90908 0.05400
H 	H 	0.14570 0.00818 0.81736 0.04300
C 	C 	0.06598 0.88311 0.77959 0.28500
Ni	Ni	0.99637 0.05897 0.72189 1.10600
O 	O 	0.08373 0.84820 0.71982 -0.37100
O 	O 	0.04895 0.24153 0.24877 -0.35900
H 	H 	0.12521 0.26840 0.97746 0.04400
C 	C 	0.98090 0.75730 0.13503 -0.03000
C 	C 	0.07719 0.74579 0.66979 0.04100
C 	C 	0.06506 0.68336 0.64995 -0.02400
C 	C 	0.08380 0.53868 0.97096 -0.03400
C 	C 	0.09621 0.51511 0.99774 0.11100
N 	N 	0.10463 0.49491 0.01913 -0.10500
H 	H 	0.21556 0.03840 0.88233 0.04200
O 	O 	0.12989 0.94917 0.76701 -0.36800
C 	C 	0.02717 0.94547 0.18240 0.33600
C 	C 	0.04544 0.95219 0.25743 0.34000
O 	O 	0.07704 0.24698 0.19137 -0.36300
S 	S 	0.13152 0.33496 0.99385 -0.01500
H 	H 	0.09500 0.26342 0.04792 0.06100
C 	C 	0.08385 0.17299 0.12521 0.08700
H 	H 	0.09571 0.14185 0.08435 0.06300
C 	C 	0.03778 0.89344 0.16104 -0.07100
H 	H 	0.07264 0.46849 0.09622 0.04900
H 	H 	0.09461 0.34436 0.29016 0.04900
H 	H 	0.06911 0.25589 0.42440 0.05800
C 	C 	0.02810 0.85503 0.29660 0.04500
S 	S 	0.00491 0.76504 0.34405 0.00900
H 	H 	0.99504 0.81456 0.36359 0.01300
N 	N 	0.03846 0.70228 0.48071 -0.10400
H 	H 	0.02505 0.95636 0.63633 0.05200
S 	S 	0.02746 0.95932 0.57891 0.00900
Ni	Ni	0.12299 0.98212 0.72734 1.11300
O 	O 	0.08009 0.15012 0.74683 -0.36300
C 	C 	0.07849 0.54089 0.44704 0.32300
C 	C 	0.10287 0.20913 0.17385 0.31500
C 	C 	0.11658 0.23911 0.25498 0.28700
C 	C 	0.11562 0.23782 0.14549 -0.09500
C 	C 	0.11874 0.19295 0.09954 -0.08000
C 	C 	0.05638 0.78923 0.12160 0.04200
S 	S 	0.10756 0.37955 0.34606 -0.01800
C 	C 	0.11034 0.23156 0.38651 -0.00100
H 	H 	0.11339 0.69755 0.63549 0.05000
C 	C 	0.15093 0.59842 0.95499 -0.04100
C 	C 	0.13966 0.60749 0.92749 -0.02200
O 	O 	0.11415 0.00091 0.68660 -0.37300
O 	O 	0.08573 0.11351 0.69356 -0.37000
O 	O 	0.10520 0.53456 0.42310 -0.36200
Ni	Ni	0.10874 0.09888 0.21874 1.12300
O 	O 	0.08454 0.98408 0.20053 -0.38600
O 	O 	0.12843 0.15436 0.18179 -0.37800
O 	O 	0.09512 0.03847 0.25399 -0.40100
C 	C 	0.16072 0.29792 0.04477 -0.06700
C 	C 	0.08874 0.66988 0.11056 -0.07000
C 	C 	0.06887 0.73424 0.10175 0.01500
C 	C 	0.07546 0.75638 0.07437 -0.00800
S 	S 	0.03764 0.82489 0.06193 -0.00300
H 	H 	0.07863 0.64821 0.13133 0.06000
C 	C 	0.13267 0.31069 0.32690 -0.00500
C 	C 	0.12297 0.30888 0.29911 -0.00300
C 	C 	0.12145 0.27257 0.41152 0.00100
C 	C 	0.06587 0.83617 0.31789 -0.02600
C 	C 	0.07446 0.90337 0.27421 -0.10900
C 	C 	0.07104 0.02243 0.62971 0.00400
C 	C 	0.10217 0.06494 0.67724 0.31400
O 	O 	0.13001 0.57702 0.46680 -0.36600
O 	O 	0.15675 0.22096 0.23634 -0.36900
C 	C 	0.19467 0.34551 0.02094 0.05900
C 	C 	0.18185 0.27885 0.09315 0.01900
C 	C 	0.17513 0.32540 0.13874 0.00300
C 	C 	0.11432 0.72554 0.05695 0.00600
C 	C 	0.12540 0.63692 0.09296 0.06500
S 	S 	0.13933 0.54748 0.10326 -0.03800
C 	C 	0.11231 0.92695 0.14663 0.06300
C 	C 	0.14846 0.26065 0.28283 -0.08500
C 	C 	0.08782 0.04067 0.60236 -0.01200
S 	S 	0.16992 0.84763 0.66985 -0.03700
S 	S 	0.11103 0.17704 0.80870 -0.02800
H 	H 	0.07931 0.08734 0.80514 0.03900
C 	C 	0.11554 0.08818 0.64860 -0.09100
C 	C 	0.15577 0.16287 0.74906 0.28600
C 	C 	0.21281 0.29981 0.06512 0.01300
H 	H 	0.19891 0.37603 0.15406 0.04500
C 	C 	0.14632 0.67242 0.06676 -0.09600
H 	H 	0.12441 0.74768 0.03622 0.03700
C 	C 	0.12157 0.87388 0.12746 -0.07700
C 	C 	0.16439 0.25974 0.33903 0.01700
C 	C 	0.17724 0.26270 0.36846 0.01300
C 	C 	0.20846 0.66827 0.91085 0.09800
C 	C 	0.01717 0.79840 0.70621 0.32700
O 	O 	0.18323 0.12051 0.73347 -0.36900
C 	C 	0.19964 0.42979 0.42417 0.29200
O 	O 	0.17233 0.43957 0.44805 -0.35500
C 	C 	0.23356 0.64682 0.96666 0.29800
O 	O 	0.21719 0.68233 0.02571 -0.38900
C 	C 	0.20823 0.34650 0.11270 -0.00400
C 	C 	0.19157 0.22104 0.29475 0.06000
C 	C 	0.19770 0.34592 0.41749 -0.08100
H 	H 	0.22452 0.83984 0.68617 0.03900
O 	O 	0.21489 0.48716 0.40415 -0.36900
C 	C 	0.21230 0.66891 0.05157 0.32300
O 	O 	0.26491 0.73163 0.97278 -0.37700
H 	H 	0.25625 0.49154 0.08549 0.03500
C 	C 	0.19413 0.21571 0.32274 -0.07300
C 	C 	0.15189 0.87233 0.31762 0.02600
C 	C 	0.15698 0.92463 0.27216 0.07100
H 	H 	0.18735 0.68274 0.31133 0.03900
N 	N 	0.17405 0.83599 0.52103 -0.10300
C 	C 	0.15506 0.12217 0.59391 0.01900
S 	S 	0.17591 0.25437 0.54652 -0.01700
H 	H 	0.14376 0.85424 0.43239 0.05700
N 	N 	0.26326 0.71675 0.89752 -0.10400
Ni	Ni	0.22268 0.60685 0.40849 1.12300
O 	O 	0.27941 0.60884 0.96650 -0.37500
C 	C 	0.27922 0.40458 0.01942 -0.09000
S 	S 	0.19263 0.03670 0.15117 -0.03400
H 	H 	0.17936 0.89882 0.11679 0.06000
H 	H 	0.15554 0.93499 0.36750 0.05600
C 	C 	0.17479 0.17436 0.63984 0.05900
C 	C 	0.21540 0.23836 0.76487 -0.08200
H 	H 	0.22381 0.18178 0.33181 0.05500
C 	C 	0.01334 0.72833 0.68828 -0.05100
C 	C 	0.10874 0.94171 0.82566 -0.01100
C 	C 	0.20752 0.23778 0.79292 0.05000
Ni	Ni	0.22998 0.55729 0.47118 1.11400
O 	O 	0.21755 0.71784 0.41516 -0.38900
C 	C 	0.29648 0.33349 0.05896 -0.00400
C 	C 	0.19024 0.90010 0.36588 -0.06700
C 	C 	0.19552 0.86418 0.34121 0.00900
C 	C 	0.19688 0.91726 0.29463 -0.07900
S 	S 	0.20972 0.95737 0.24127 -0.03800
C 	C 	0.19320 0.19118 0.61252 -0.07200
C 	C 	0.20212 0.12482 0.56972 0.01700
H 	H 	0.20195 0.32336 0.56420 0.04400
O 	O 	0.28414 0.54122 0.03008 -0.37600
S 	S 	0.28368 0.45708 0.10507 -0.04300
H 	H 	0.24283 0.03712 0.17103 0.03800
S 	S 	0.25498 0.19378 0.27554 -0.05200
C 	C 	0.26658 0.35293 0.40390 0.05400
C 	C 	0.25648 0.31502 0.37849 -0.06500
C 	C 	0.23100 0.19736 0.55159 -0.00500
H 	H 	0.21415 0.01184 0.58209 0.05800
C 	C 	0.23939 0.07160 0.56968 -0.06700
C 	C 	0.07172 0.86805 0.80856 -0.07200
C 	C 	0.30596 0.49845 0.01339 0.31100
O 	O 	0.27440 0.67195 0.06445 -0.37400
C 	C 	0.32973 0.38633 0.03584 -0.00300
C 	C 	0.24691 0.82608 0.33885 -0.00300
C 	C 	0.22642 0.88712 0.38869 0.05700
S 	S 	0.24821 0.76996 0.30961 -0.03500
S 	S 	0.21086 0.92274 0.42004 -0.02300
H 	H 	0.24811 0.04823 0.23832 0.02500
C 	C 	0.24225 0.85637 0.51800 0.09100
S 	S 	0.23188 0.25922 0.66289 -0.02500
H 	H 	0.24336 0.25519 0.60608 0.05900
O 	O 	0.28174 0.65907 0.50054 -0.35000
O 	O 	0.28455 0.62081 0.43990 -0.71300
Ni	Ni	0.31896 0.78052 0.00823 1.12100
H 	H 	0.26267 0.94442 0.29401 0.05800
C 	C 	0.28808 0.30291 0.75249 -0.00200
H 	H 	0.29294 0.30705 0.73083 0.04600
C 	C 	0.27379 0.84451 0.38639 -0.09300
C 	C 	0.28076 0.79490 0.40925 0.31500
H 	H 	0.31321 0.58825 0.43462 0.16400
S 	S 	0.35873 0.30909 0.07959 -0.01800
H 	H 	0.30937 0.33277 0.36575 0.05400
C 	C 	0.29178 0.82520 0.36087 -0.00900
C 	C 	0.30623 0.22667 0.53836 0.00600
C 	C 	0.27664 0.28963 0.80840 -0.06700
H 	H 	0.05435 0.77540 0.97855 0.03800
S 	S 	0.14027 0.02370 0.87432 -0.03000
H 	H 	0.27231 0.28367 0.83003 0.05700
O 	O 	0.32330 0.66661 0.38303 -0.37800
O 	O 	0.32961 0.53940 0.47706 -0.37000
H 	H 	0.33081 0.26759 0.27271 0.04100
H 	H 	0.29824 0.25225 0.67090 0.03900
H 	H 	0.33151 0.28635 0.52592 0.04900
C 	C 	0.09587 0.93003 0.85341 0.00800
O 	O 	0.36454 0.54280 0.99556 -0.37200
C 	C 	0.30905 0.74388 0.49435 0.30400
O 	O 	0.31247 0.76672 0.46953 -0.38400
H 	H 	0.32363 0.77232 0.11479 0.04700
H 	H 	0.33395 0.79993 0.35862 0.05000
N 	N 	0.31299 0.51789 0.54274 -0.11300
C 	C 	0.31706 0.10417 0.55838 0.05900
C 	C 	0.32764 0.88213 0.51433 0.00300
H 	H 	0.39524 0.42150 0.03253 0.04800
S 	S 	0.36556 0.42502 0.41568 -0.03700
N 	N 	0.33515 0.07496 0.48765 -0.10700
C 	C 	0.35326 0.18545 0.54390 -0.08300
S 	S 	0.99870 0.06734 0.13151 -0.07700
O 	O 	0.35412 0.81277 0.41713 -0.37700
Ni	Ni	0.39327 0.66693 0.98106 1.12300
O 	O 	0.35973 0.84299 0.04443 -0.37100
O 	O 	0.37717 0.71752 0.01280 -0.71600
S 	S 	0.34361 0.85990 0.11168 -0.03500
C 	C 	0.35097 0.81647 0.51399 -0.06700
C 	C 	0.35808 0.02933 0.49679 0.09500
C 	C 	0.35191 0.34773 0.79597 0.01300
C 	C 	0.35576 0.35889 0.76793 -0.00500
H 	H 	0.39593 0.37419 0.09837 0.04400
N 	N 	0.44520 0.87096 0.89571 -0.10200
Ni	Ni	0.37618 0.73664 0.44365 1.12200
Ni	Ni	0.36926 0.66147 0.04585 1.11500
H 	H 	0.38966 0.37874 0.43228 0.04300
C 	C 	0.37077 0.52793 0.53129 0.09400
S 	S 	0.37380 0.05161 0.56666 -0.03800
S 	S 	0.03075 0.71045 0.95957 0.01400
C 	C 	0.40300 0.70500 0.38922 0.29900
O 	O 	0.41462 0.87831 0.98851 -0.37500
C 	C 	0.38604 0.97140 0.50814 0.00400
C 	C 	0.40579 0.60594 0.47814 0.28600
O 	O 	0.43213 0.78314 0.95992 -0.36400
H 	H 	0.42319 0.66178 0.33906 0.04300
C 	C 	0.03331 0.78112 0.81978 0.03700
O 	O 	0.42691 0.70414 0.41386 -0.38600
S 	S 	0.38285 0.50106 0.83457 -0.02300
C 	C 	0.04394 0.79258 0.91115 -0.03500
O 	O 	0.42439 0.69067 0.47316 -0.36500
H 	H 	0.43249 0.76897 0.01449 0.15900
H 	H 	0.41242 0.92615 0.59986 0.03800
H 	H 	0.41119 0.08402 0.59067 0.04600
C 	C 	0.44294 0.23801 0.54155 0.30500
C 	C 	0.42635 0.85436 0.05732 0.29300
C 	C 	0.45996 0.86301 0.97112 0.28500
C 	C 	0.43264 0.84326 0.52041 -0.00600
C 	C 	0.44330 0.54043 0.51693 0.00500
N 	N 	0.44492 0.41670 0.57295 -0.11500
C 	C 	0.47905 0.91772 0.91331 0.09500
C 	C 	0.42777 0.38539 0.81185 0.01600
C 	C 	0.04699 0.84370 0.86421 -0.00100
C 	C 	0.97215 0.80904 0.15482 -0.02000
H 	H 	0.00661 0.06474 0.38423 0.04300
O 	O 	0.97850 0.90694 0.24260 -0.40200
N 	N 	0.98713 0.34037 0.40554 -0.12500
H 	H 	0.95709 0.77283 0.05526 0.01900
C 	C 	0.98789 0.49372 0.45279 -0.08400
H 	H 	0.96308 0.97125 0.57175 0.02000
H 	H 	0.96363 0.83505 0.29792 0.01300
H 	H 	0.89604 0.95020 0.62645 0.03500
C 	C 	0.84733 0.62038 0.92964 0.27900
C 	C 	0.63515 0.22587 0.95039 0.29300
C 	C 	0.90781 0.46504 0.92174 0.33700
C 	C 	0.61835 0.44526 0.96953 0.28100
C 	C 	0.68507 0.27772 0.88414 0.28800
C 	C 	0.61190 0.44044 0.86961 0.31600
Ni	Ni	0.76271 0.42291 0.95348 1.11500
Ni	Ni	0.59678 0.34445 0.91873 1.12200
Ni	Ni	0.77682 0.47427 0.89003 1.12100
O 	O 	0.83876 0.56474 0.95025 -0.35900
O 	O 	0.80614 0.59233 0.90677 -0.36800
O 	O 	0.61579 0.27928 0.88826 -0.38200
O 	O 	0.70803 0.28436 0.95909 -0.34900
O 	O 	0.58102 0.25074 0.94607 -0.37700
O 	O 	0.69125 0.47499 0.86516 -0.38300
O 	O 	0.84801 0.40053 0.93446 -0.39100
O 	O 	0.89156 0.50579 0.90270 -0.39300
O 	O 	0.58203 0.42597 0.89393 -0.39000
O 	O 	0.67306 0.42384 0.97806 -0.36100
O 	O 	0.56832 0.40220 0.94949 -0.35500
O 	O 	0.75427 0.35238 0.87875 -0.37700
O 	O 	0.71019 0.42736 0.92239 -0.71500
H 	H 	0.70103 0.47720 0.92682 0.15800
C 	C 	0.78621 0.38373 0.57181 0.29100
C 	C 	0.59819 0.16978 0.59032 0.30500
C 	C 	0.59811 0.45793 0.52145 0.29100
C 	C 	0.53522 0.09896 0.50794 0.29500
C 	C 	0.75237 0.33002 0.48887 0.27700
Ni	Ni	0.61038 0.34023 0.56641 1.11500
Ni	Ni	0.57965 0.28856 0.50223 1.11900
Ni	Ni	0.68095 0.22129 0.53813 1.12000
O 	O 	0.73467 0.41554 0.57343 -0.36500
O 	O 	0.75942 0.29733 0.56772 -0.37700
O 	O 	0.51404 0.15521 0.49785 -0.37700
O 	O 	0.48461 0.26172 0.56394 -0.37300
O 	O 	0.47627 0.27986 0.51882 -0.38000
O 	O 	0.76499 0.28892 0.50940 -0.37400
O 	O 	0.61188 0.25127 0.59506 -0.37000
O 	O 	0.59644 0.14348 0.56572 -0.39000
O 	O 	0.67697 0.30259 0.47954 -0.36400
O 	O 	0.60882 0.44914 0.54736 -0.35400
O 	O 	0.62346 0.42176 0.50302 -0.37300
O 	O 	0.61335 0.12610 0.51152 -0.37500
O 	O 	0.63529 0.29820 0.53490 -0.71600
H 	H 	0.68564 0.35402 0.53035 0.14700
C 	C 	0.85042 0.91133 0.70022 0.31700
C 	C 	0.88818 0.98191 0.77101 0.30200
Ni	Ni	0.92993 0.85949 0.74273 1.11200
O 	O 	0.83881 0.86322 0.72211 -0.38300
O 	O 	0.95155 0.80644 0.70954 -0.40500
O 	O 	0.90130 0.02594 0.74782 -0.39600
O 	O 	0.89962 0.91181 0.77371 -0.39600
O 	O 	0.00016 0.82541 0.76610 -0.36000
O 	O 	0.92354 0.97618 0.69392 -0.40400
C 	C 	0.51870 0.66795 0.01584 0.29500
O 	O 	0.46760 0.63820 0.03694 -0.36400
O 	O 	0.50594 0.70879 0.99548 -0.37800
O 	O 	0.44282 0.78813 0.06058 -0.36900
C 	C 	0.84717 0.04066 0.25760 0.28500
C 	C 	0.84471 0.03457 0.18289 0.30900
Ni	Ni	0.97664 0.17081 0.21647 1.09700
Ni	Ni	0.91728 0.95852 0.22141 1.11900
O 	O 	0.86719 0.10578 0.23939 -0.37500
O 	O 	0.86920 0.97846 0.25507 -0.37800
O 	O 	0.91317 0.11055 0.18218 -0.39400
O 	O 	0.83006 0.97582 0.20214 -0.37100
O 	O 	0.95490 0.93885 0.18587 -0.41100
H 	H 	0.92867 0.06928 0.12513 0.04400
C 	C 	0.67523 0.94639 0.13190 -0.07000
C 	C 	0.65365 0.01379 0.13197 0.01000
C 	C 	0.69296 0.08618 0.14947 -0.00800
C 	C 	0.75428 0.09129 0.16636 0.00200
C 	C 	0.77688 0.02467 0.16600 -0.10200
C 	C 	0.73667 0.95151 0.14875 0.06300
C 	C 	0.59044 0.00794 0.11335 0.01200
S 	S 	0.66690 0.17145 0.15009 -0.03800
H 	H 	0.78475 0.14736 0.17974 0.03100
S 	S 	0.76408 0.86725 0.14751 -0.04300
H 	H 	0.64476 0.89049 0.11846 0.05800
C 	C 	0.61038 0.03313 0.08627 -0.00800
C 	C 	0.54901 0.99660 0.06698 0.01000
C 	C 	0.46953 0.93193 0.07454 -0.08500
C 	C 	0.44696 0.92361 0.10177 0.05800
C 	C 	0.50787 0.96018 0.12120 -0.06500
S 	S 	0.71232 0.10480 0.07617 -0.02300
H 	H 	0.56497 0.01059 0.04596 0.04100
H 	H 	0.49164 0.94577 0.14222 0.05500
H 	H 	0.82394 0.88863 0.12849 0.04200
H 	H 	0.74979 0.05528 0.07096 0.03900
H 	H 	0.71310 0.23538 0.13136 0.03900
S 	S 	0.89650 0.65361 0.12684 -0.04400
H 	H 	0.91436 0.78343 0.16552 0.04300
H 	H 	0.85465 0.66547 0.10629 0.03700
C 	C 	0.57520 0.90965 0.35513 -0.07600
C 	C 	0.58024 0.87526 0.33038 0.01800
C 	C 	0.52579 0.78466 0.32470 -0.00600
C 	C 	0.46637 0.73056 0.34374 -0.00100
C 	C 	0.46508 0.76368 0.36921 -0.09000
C 	C 	0.52235 0.85376 0.37512 0.06600
C 	C 	0.65105 0.93066 0.31261 0.01000
S 	S 	0.53398 0.73712 0.29454 -0.03000
S 	S 	0.53403 0.89603 0.40780 -0.05700
H 	H 	0.61733 0.97899 0.35957 0.05900
C 	C 	0.64122 0.96546 0.28814 0.00200
C 	C 	0.70874 0.01174 0.27091 -0.01200
C 	C 	0.78634 0.02632 0.27842 -0.08500
C 	C 	0.79773 0.00394 0.30457 0.05000
C 	C 	0.73002 0.95386 0.32121 -0.06300
S 	S 	0.54561 0.95299 0.27911 -0.03400
H 	H 	0.70009 0.03203 0.25116 0.04600
S 	S 	0.89676 0.03730 0.31640 -0.05900
H 	H 	0.73857 0.93231 0.34079 0.05500
H 	H 	0.58900 0.88019 0.42132 0.04800
H 	H 	0.53780 0.02204 0.28941 0.03400
H 	H 	0.93361 0.12569 0.32301 0.03300
H 	H 	0.48321 0.74237 0.27591 0.03900
C 	C 	0.47137 0.00025 0.51072 -0.06300
C 	C 	0.49380 0.93462 0.51804 0.00200
C 	C 	0.57829 0.95950 0.52317 0.09300
C 	C 	0.45271 0.77900 0.53166 0.09700
N 	N 	0.46980 0.72872 0.54096 -0.10800
N 	N 	0.64560 0.97885 0.52734 -0.11500
C 	C 	0.93575 0.40698 0.44271 0.00200
C 	C 	0.85440 0.35634 0.45245 -0.00000
C 	C 	0.82474 0.39146 0.47225 -0.05700
C 	C 	0.87313 0.48138 0.47985 0.00400
C 	C 	0.95409 0.53296 0.46977 -0.02400
C 	C 	0.96466 0.37008 0.42210 0.08200
C 	C 	0.84008 0.52046 0.49833 0.07400
C 	C 	0.80184 0.26704 0.44258 0.09100
N 	N 	0.75987 0.19578 0.43471 -0.11100
N 	N 	0.81372 0.55174 0.51307 -0.10700
C 	C 	0.46597 0.58788 0.49229 -0.05400
C 	C 	0.48950 0.50302 0.52737 0.00100
C 	C 	0.55863 0.51172 0.51308 -0.05800
C 	C 	0.58615 0.56713 0.48990 0.00100
C 	C 	0.53919 0.60409 0.47935 -0.00200
C 	C 	0.66372 0.58859 0.47740 0.09500
C 	C 	0.56500 0.65635 0.45477 0.08500
C 	C 	0.46489 0.45482 0.55270 0.09000
N 	N 	0.58565 0.69805 0.43515 -0.11000
N 	N 	0.72556 0.60588 0.46734 -0.10700
C 	C 	0.58397 0.97380 0.63009 -0.06300
C 	C 	0.64612 0.01877 0.64867 0.00300
C 	C 	0.68210 0.11226 0.65089 -0.00100
C 	C 	0.65853 0.15961 0.63355 -0.00800
C 	C 	0.60357 0.11573 0.61272 -0.08900
C 	C 	0.56362 0.02125 0.61175 0.04600
C 	C 	0.68337 0.97021 0.66175 0.02000
S 	S 	0.76096 0.17159 0.67389 -0.04900
H 	H 	0.68800 0.23164 0.63497 0.04800
S 	S 	0.48810 0.96098 0.58798 -0.02300
H 	H 	0.55472 0.90171 0.62886 0.05400
C 	C 	0.67484 0.95248 0.68951 -0.00700
C 	C 	0.72378 0.92263 0.70201 0.00000
C 	C 	0.77960 0.90844 0.68684 -0.09800
C 	C 	0.77767 0.91217 0.65870 0.06100
C 	C 	0.73081 0.94456 0.64632 -0.07600
S 	S 	0.60370 0.96758 0.70872 -0.03600
H 	H 	0.72209 0.91581 0.72362 0.04900
S 	S 	0.83380 0.87680 0.63881 -0.03800
H 	H 	0.73346 0.95282 0.62474 0.05700
H 	H 	0.52973 0.89048 0.70871 0.03900
H 	H 	0.72789 0.18084 0.69737 0.03700
C 	C 	0.95215 0.46855 0.62164 -0.07700
C 	C 	0.96845 0.55739 0.62150 0.02000
C 	C 	0.95067 0.59187 0.59837 -0.00200
C 	C 	0.90475 0.53387 0.57798 -0.00500
C 	C 	0.87039 0.44135 0.58163 -0.08400
C 	C 	0.90357 0.41020 0.60158 0.05800
C 	C 	0.98812 0.60735 0.64693 -0.02800
S 	S 	0.97885 0.70556 0.59576 -0.05600
H 	H 	0.88651 0.55949 0.56108 0.05200
S 	S 	0.89196 0.30251 0.60018 -0.04600
H 	H 	0.97234 0.44350 0.63821 0.05000
C 	C 	0.92643 0.58719 0.66638 0.01600
C 	C 	0.94031 0.64644 0.68728 -0.04300
S 	S 	0.82979 0.49069 0.66392 -0.03700
H 	H 	0.89229 0.63109 0.70198 0.04600
H 	H 	0.82501 0.24434 0.61495 0.04400
H 	H 	0.83189 0.42040 0.67617 0.03300
C 	C 	0.00414 0.49962 0.96072 0.09400
C 	C 	0.99226 0.50607 0.93289 -0.16100
C 	C 	0.93516 0.46014 0.97926 0.01700
N 	N 	0.88042 0.42887 0.99415 -0.12200
C 	C 	0.53165 0.94127 0.95930 -0.06100
C 	C 	0.59547 0.99769 0.97627 0.00600
C 	C 	0.63311 0.09142 0.97288 -0.00200
C 	C 	0.60705 0.12780 0.95190 -0.05600
C 	C 	0.54965 0.06841 0.93307 -0.00600
C 	C 	0.52181 0.97649 0.93524 0.01000
C 	C 	0.61980 0.95928 0.99783 0.08200
C 	C 	0.50881 0.09838 0.91458 0.08600
C 	C 	0.69379 0.14909 0.99193 0.09700
N 	N 	0.74222 0.19489 0.00717 -0.11000
N 	N 	0.47436 0.12030 0.89991 -0.11800
N 	N 	0.63915 0.92850 0.01504 -0.11000
C 	C 	0.57856 0.63601 0.01187 -0.06500
C 	C 	0.62609 0.66138 0.98825 0.00300
C 	C 	0.63105 0.59601 0.97301 -0.00300
C 	C 	0.60653 0.51147 0.98457 -0.06000
C 	C 	0.57835 0.49437 0.01146 0.00100
C 	C 	0.56734 0.55876 0.02548 0.00200
C 	C 	0.66871 0.75392 0.97961 0.09100
C 	C 	0.55708 0.40962 0.02413 0.09200
C 	C 	0.55155 0.54936 0.05405 0.08700
C 	C 	0.65201 0.61215 0.94480 0.07700
N 	N 	0.53895 0.54188 0.07688 -0.11700
N 	N 	0.66791 0.62509 0.92222 -0.10900
N 	N 	0.54004 0.34193 0.03425 -0.10700
N 	N 	0.70285 0.82780 0.97266 -0.11000
C 	C 	0.74306 0.09974 0.87281 -0.06700
C 	C 	0.71165 0.07374 0.84711 0.01300
C 	C 	0.65124 0.09324 0.83800 -0.00100
C 	C 	0.63375 0.15098 0.85268 -0.00200
C 	C 	0.67964 0.19323 0.87543 -0.08000
C 	C 	0.73139 0.16336 0.88637 0.04800
C 	C 	0.75731 0.04935 0.82796 0.01200
S 	S 	0.60178 0.05120 0.80739 -0.03100
H 	H 	0.58904 0.16812 0.84530 0.05100
S 	S 	0.78717 0.20985 0.91557 -0.02400
H 	H 	0.78558 0.07984 0.88061 0.05100
C 	C 	0.83255 0.11547 0.81703 -0.00900
C 	C 	0.87725 0.09120 0.79996 -0.00300
C 	C 	0.84631 0.00207 0.79257 -0.10100
C 	C 	0.77010 0.93585 0.80315 0.06500
C 	C 	0.72729 0.95975 0.82133 -0.07100
S 	S 	0.86996 0.22932 0.82383 -0.03600
H 	H 	0.93486 0.14235 0.79151 0.03400
S 	S 	0.72505 0.82428 0.79257 -0.04300
H 	H 	0.66955 0.90890 0.82978 0.05900
H 	H 	0.86578 0.27164 0.90853 0.04700
H 	H 	0.91493 0.25127 0.84681 0.03500
H 	H 	0.74993 0.77809 0.80891 0.04200
H 	H 	0.64778 0.10772 0.78703 0.03700
C 	C 	0.48199 0.35207 0.80829 -0.07300
C 	C 	0.44313 0.44894 0.83185 -0.00800
C 	C 	0.50767 0.47181 0.84964 0.00300
C 	C 	0.55833 0.43337 0.84726 -0.09500
C 	C 	0.54822 0.37743 0.82543 0.05700
H 	H 	0.51715 0.51762 0.86578 0.04900
S 	S 	0.61734 0.33788 0.81949 -0.04100
H 	H 	0.47158 0.30493 0.79247 0.05300
S 	S 	0.44509 0.44196 0.75202 -0.03400
H 	H 	0.68030 0.39766 0.80348 0.03800
H 	H 	0.49544 0.40780 0.74584 0.03400
H 	H 	0.41538 0.57549 0.81841 0.04100
C 	C 	0.01487 0.83016 0.89199 0.04000
C 	C 	0.94074 0.82993 0.89738 -0.02600
C 	C 	0.88958 0.77582 0.91819 -0.00500
C 	C 	0.90859 0.71583 0.93115 -0.07000
C 	C 	0.99144 0.73914 0.93183 0.00100
S 	S 	0.90740 0.88819 0.87646 -0.03300
H 	H 	0.82933 0.76878 0.92082 0.05100
C 	C 	0.01989 0.76952 0.84747 -0.02000
S 	S 	0.00893 0.68732 0.79990 0.01500
H 	H 	0.98631 0.70273 0.85594 0.02500
H 	H 	0.92945 0.65061 0.79166 0.01500
H 	H 	0.93654 0.97307 0.88579 0.03400
