data_crystal

_cell_length_a 30.74980
_cell_length_b 31.02255
_cell_length_c 34.94081
_cell_angle_alpha 95.52847
_cell_angle_beta  95.52765
_cell_angle_gamma 125.54894

_symmetry_space_group_name_	'P 1'
_symmetry_space_group_name_H-M	'P 1'

loop_
_symmetry_equiv_pos_as_xyz
  x,y,z

loop_
_atom_site_label
_atom_site_type_symbol
_atom_site_fract_x
_atom_site_fract_y
_atom_site_fract_z
_atom_site_charge
N 	N 	0.00082 0.02996 0.45154 -0.14000
N 	N 	0.00114 0.95627 0.46112 -0.13500
N 	N 	0.02662 0.97678 0.98559 -0.13500
C 	C 	0.02812 0.00827 0.45655 0.13000
N 	N 	0.03144 0.05549 0.98869 -0.13700
C 	C 	0.97893 0.02743 0.99385 0.11200
C 	C 	0.05521 0.03012 0.98455 0.13000
C 	C 	0.97428 0.94871 0.99075 0.12800
N 	N 	0.95042 0.97396 0.99488 -0.13900
C 	C 	0.94639 0.99963 0.45116 0.11900
N 	N 	0.91939 0.94741 0.45583 -0.14000
C 	C 	0.94687 0.92578 0.46074 0.12700
Cu	Cu	0.64944 0.25572 0.99887 0.92700
Cu	Cu	0.69623 0.25733 0.91778 0.87100
Cu	Cu	0.68542 0.34287 0.94919 0.89600
Cu	Cu	0.64782 0.35463 0.02297 0.89400
C 	C 	0.65604 0.29182 0.07976 0.27800
O 	O 	0.56946 0.22329 0.99490 -0.36500
C 	C 	0.67163 0.30702 0.86424 0.27900
O 	O 	0.69345 0.33954 0.00358 -0.64000
O 	O 	0.64629 0.26305 0.94316 -0.64100
O 	O 	0.68277 0.21650 0.99857 -0.37500
O 	O 	0.74487 0.27128 0.96312 -0.44400
O 	O 	0.63378 0.31521 0.06772 -0.38300
O 	O 	0.72673 0.42056 0.95916 -0.38400
C 	C 	0.71977 0.44900 0.98512 0.28700
C 	C 	0.54871 0.24606 0.97939 0.28200
O 	O 	0.58122 0.29651 0.97523 -0.39300
O 	O 	0.68059 0.42551 0.00582 -0.39200
O 	O 	0.66373 0.26315 0.05466 -0.35700
C 	C 	0.72878 0.23602 0.98630 0.31000
O 	O 	0.69089 0.34756 0.89361 -0.38700
O 	O 	0.66505 0.26239 0.87009 -0.41700
H 	H 	0.73157 0.36251 0.01798 0.16400
H 	H 	0.60920 0.24191 0.92717 0.17200
Cu	Cu	0.72761 0.33676 0.44741 0.92700
Cu	Cu	0.72851 0.29402 0.52988 0.87100
Cu	Cu	0.64162 0.30408 0.49881 0.89700
Cu	Cu	0.62676 0.33757 0.42372 0.89400
C 	C 	0.68366 0.32087 0.36661 0.27600
O 	O 	0.76027 0.41599 0.44967 -0.36300
C 	C 	0.68024 0.32028 0.58385 0.27800
O 	O 	0.64300 0.29357 0.44423 -0.64000
O 	O 	0.72199 0.34238 0.50345 -0.64000
O 	O 	0.76651 0.30285 0.44811 -0.37400
O 	O 	0.71236 0.24366 0.48534 -0.44400
O 	O 	0.66339 0.34664 0.37783 -0.38200
O 	O 	0.56318 0.26339 0.49016 -0.38300
C 	C 	0.53385 0.27002 0.46460 0.29000
C 	C 	0.73753 0.43711 0.46476 0.28200
O 	O 	0.68703 0.40532 0.46984 -0.39200
O 	O 	0.55672 0.30729 0.44258 -0.39600
O 	O 	0.71856 0.32037 0.39150 -0.35700
C 	C 	0.74675 0.25783 0.46135 0.30900
O 	O 	0.63884 0.30130 0.55493 -0.38500
O 	O 	0.72516 0.32712 0.57726 -0.41800
H 	H 	0.61945 0.25533 0.43078 0.16300
H 	H 	0.74383 0.37964 0.51868 0.17200
C 	C 	0.75513 0.41259 0.72162 -0.04300
C 	C 	0.75361 0.41087 0.76140 -0.04300
C 	C 	0.70906 0.36602 0.77295 0.01500
C 	C 	0.66476 0.32351 0.74431 -0.00900
C 	C 	0.66602 0.32553 0.70427 -0.00900
C 	C 	0.71196 0.36963 0.69290 0.01500
C 	C 	0.62235 0.28238 0.67561 0.01500
C 	C 	0.57709 0.23825 0.68719 -0.04300
C 	C 	0.57612 0.23598 0.72695 -0.04300
C 	C 	0.62022 0.27797 0.75564 0.01400
C 	C 	0.62132 0.27405 0.79538 -0.02700
C 	C 	0.66643 0.31535 0.82378 -0.06200
C 	C 	0.70932 0.36206 0.81266 -0.02700
C 	C 	0.71510 0.36920 0.65305 -0.02700
C 	C 	0.67265 0.32516 0.62459 -0.06200
C 	C 	0.62554 0.28278 0.63582 -0.02800
H 	H 	0.79030 0.44697 0.71319 0.03700
H 	H 	0.78760 0.44398 0.78319 0.03700
H 	H 	0.54310 0.20515 0.66540 0.03800
H 	H 	0.54140 0.20113 0.73537 0.03700
H 	H 	0.58793 0.23837 0.80413 0.03800
H 	H 	0.74398 0.39402 0.83468 0.04200
H 	H 	0.75108 0.40222 0.64424 0.03900
H 	H 	0.59270 0.24895 0.61376 0.04300
C 	C 	0.76259 0.33039 0.20955 -0.04300
C 	C 	0.76648 0.33418 0.25020 -0.04200
C 	C 	0.72001 0.31472 0.26696 0.01600
C 	C 	0.66896 0.28968 0.24256 -0.00800
C 	C 	0.66507 0.28598 0.20168 -0.00800
C 	C 	0.71220 0.30714 0.18516 0.01700
C 	C 	0.61436 0.26286 0.17747 0.01700
C 	C 	0.56762 0.24185 0.19410 -0.04200
C 	C 	0.57147 0.24547 0.23466 -0.04300
C 	C 	0.62213 0.27019 0.25912 0.01600
C 	C 	0.62684 0.27756 0.29994 -0.02800
C 	C 	0.67798 0.30481 0.32434 -0.05700
C 	C 	0.72426 0.32187 0.30785 -0.02400
C 	C 	0.70860 0.30645 0.14466 -0.02900
C 	C 	0.65853 0.28567 0.12090 -0.05500
C 	C 	0.61133 0.26270 0.13716 -0.02500
H 	H 	0.79895 0.34632 0.19714 0.03900
H 	H 	0.80580 0.35302 0.26865 0.04000
H 	H 	0.52838 0.22347 0.17568 0.03900
H 	H 	0.53517 0.22985 0.24709 0.03700
H 	H 	0.59110 0.26376 0.31279 0.03100
H 	H 	0.76371 0.34272 0.32674 0.05000
H 	H 	0.74487 0.32373 0.13189 0.03800
H 	H 	0.57259 0.24593 0.11854 0.04500
C 	C 	0.76624 0.49617 0.47162 -0.09000
C 	C 	0.74786 0.51968 0.49510 0.01100
C 	C 	0.77028 0.57430 0.49755 -0.06700
C 	C 	0.81156 0.60606 0.47684 0.02700
C 	C 	0.83156 0.58328 0.45469 -0.06600
C 	C 	0.80908 0.52862 0.45210 0.01300
C 	C 	0.83263 0.66269 0.47727 -0.00200
C 	C 	0.88696 0.70462 0.49423 -0.03500
C 	C 	0.90782 0.75809 0.49257 -0.04200
C 	C 	0.87455 0.77001 0.47392 0.01400
C 	C 	0.81996 0.72831 0.45766 -0.04200
C 	C 	0.79900 0.67478 0.45937 -0.03500
C 	C 	0.89756 0.82461 0.46930 0.00300
C 	C 	0.91877 0.87063 0.46537 -0.03900
H 	H 	0.71559 0.49548 0.51092 0.03100
H 	H 	0.75512 0.59176 0.51515 0.04600
H 	H 	0.86367 0.60762 0.43878 0.04700
H 	H 	0.82386 0.51124 0.43397 0.03800
H 	H 	0.91314 0.69571 0.50827 0.03800
H 	H 	0.95007 0.79014 0.50521 0.04300
H 	H 	0.79402 0.73720 0.44316 0.04300
H 	H 	0.75699 0.64267 0.44619 0.03900
C 	C 	0.91715 0.02386 0.44667 -0.02200
C 	C 	0.87795 0.01305 0.46958 -0.02400
C 	C 	0.85445 0.04040 0.46828 -0.04700
C 	C 	0.86979 0.07865 0.44400 0.01200
C 	C 	0.90741 0.08799 0.42003 -0.04800
C 	C 	0.93099 0.06075 0.42135 -0.02000
C 	C 	0.84919 0.11139 0.44557 0.00800
C 	C 	0.81605 0.10708 0.41256 -0.04400
C 	C 	0.79672 0.13832 0.41418 -0.03000
C 	C 	0.81059 0.17414 0.44874 -0.01200
C 	C 	0.84411 0.17884 0.48157 -0.03100
C 	C 	0.86335 0.14761 0.48001 -0.04400
C 	C 	0.78822 0.20403 0.45135 0.04700
C 	C 	0.76942 0.22885 0.45500 -0.12200
H 	H 	0.86690 0.98473 0.48924 0.04400
H 	H 	0.82514 0.03265 0.48670 0.04100
H 	H 	0.91933 0.11727 0.40107 0.04200
H 	H 	0.96057 0.06887 0.40310 0.04000
H 	H 	0.80500 0.07933 0.38581 0.04100
H 	H 	0.77067 0.13431 0.38873 0.03900
H 	H 	0.85490 0.20635 0.50840 0.03200
H 	H 	0.88927 0.15155 0.50553 0.04000
C 	C 	0.47508 0.24049 0.46455 -0.08800
C 	C 	0.44506 0.18873 0.47394 0.01400
C 	C 	0.38922 0.16050 0.47329 -0.06700
C 	C 	0.36291 0.18374 0.46329 0.02800
C 	C 	0.39288 0.23553 0.45416 -0.06700
C 	C 	0.44865 0.26379 0.45478 0.01500
C 	C 	0.30392 0.15375 0.46212 -0.00200
C 	C 	0.26871 0.13901 0.42669 -0.03500
C 	C 	0.21282 0.11090 0.42564 -0.04200
C 	C 	0.19179 0.09736 0.45996 0.01400
C 	C 	0.22688 0.11217 0.49539 -0.04200
C 	C 	0.28279 0.14031 0.49649 -0.03500
C 	C 	0.13405 0.06672 0.45860 0.00400
C 	C 	0.08567 0.04046 0.45757 -0.03900
H 	H 	0.46480 0.17012 0.48127 0.03100
H 	H 	0.36633 0.12043 0.48026 0.04600
H 	H 	0.37295 0.25393 0.44669 0.04700
H 	H 	0.47136 0.30392 0.44794 0.03300
H 	H 	0.28464 0.14913 0.40000 0.03800
H 	H 	0.18589 0.09940 0.39812 0.04300
H 	H 	0.21086 0.10172 0.52202 0.04300
H 	H 	0.30968 0.15177 0.52401 0.03900
C 	C 	0.75098 0.50772 0.98688 -0.08900
C 	C 	0.76089 0.54159 0.02152 0.01500
C 	C 	0.78866 0.59696 0.02282 -0.06500
C 	C 	0.80691 0.61903 0.98955 0.02600
C 	C 	0.79765 0.58540 0.95506 -0.06700
C 	C 	0.76983 0.53002 0.95370 0.01500
C 	C 	0.83535 0.67727 0.99073 -0.00400
C 	C 	0.81227 0.69540 0.96661 -0.03500
C 	C 	0.83963 0.75061 0.96733 -0.04200
C 	C 	0.89015 0.78800 0.99218 0.01200
C 	C 	0.91306 0.77002 0.01651 -0.04000
C 	C 	0.88576 0.71482 0.01581 -0.03300
C 	C 	0.91924 0.84471 0.99186 0.00400
C 	C 	0.94406 0.89219 0.99145 -0.04000
H 	H 	0.74708 0.52505 0.04744 0.02700
H 	H 	0.79570 0.62266 0.04959 0.04600
H 	H 	0.81186 0.60217 0.92929 0.04700
H 	H 	0.76225 0.50439 0.92671 0.03800
H 	H 	0.77322 0.66672 0.94731 0.03900
H 	H 	0.82170 0.76426 0.94843 0.04300
H 	H 	0.95216 0.79873 0.03575 0.04300
H 	H 	0.90393 0.70120 0.03449 0.03800
C 	C 	0.95252 0.05454 0.99737 -0.02300
C 	C 	0.91528 0.04049 0.02271 -0.01700
C 	C 	0.88785 0.06389 0.02433 -0.04900
C 	C 	0.89734 0.10146 0.00063 0.01500
C 	C 	0.93547 0.11650 0.97601 -0.05100
C 	C 	0.96299 0.09321 0.97440 -0.01900
C 	C 	0.86536 0.12292 0.00004 0.01100
C 	C 	0.82746 0.10859 0.96643 -0.04800
C 	C 	0.79825 0.13015 0.96533 -0.02900
C 	C 	0.80672 0.16618 0.99778 -0.01700
C 	C 	0.84397 0.17996 0.03163 -0.02600
C 	C 	0.87317 0.15830 0.03279 -0.04600
C 	C 	0.77921 0.19102 0.99546 0.04800
C 	C 	0.75615 0.21166 0.99211 -0.12500
H 	H 	0.90737 0.01126 0.04097 0.04000
H 	H 	0.85856 0.05216 0.04350 0.04300
H 	H 	0.94318 0.14566 0.95771 0.04100
H 	H 	0.99150 0.10432 0.95466 0.03900
H 	H 	0.82091 0.08103 0.94111 0.04000
H 	H 	0.76952 0.11934 0.93907 0.03200
H 	H 	0.85077 0.20784 0.05681 0.03800
H 	H 	0.90228 0.16950 0.05890 0.04100
C 	C 	0.48926 0.21804 0.97263 -0.09000
C 	C 	0.45661 0.17626 0.99268 0.01100
C 	C 	0.40172 0.15457 0.99040 -0.06900
C 	C 	0.37883 0.17422 0.96798 0.02800
C 	C 	0.41059 0.21410 0.94646 -0.06700
C 	C 	0.46558 0.23590 0.94871 0.01100
C 	C 	0.32252 0.15507 0.96881 -0.00500
C 	C 	0.28128 0.12113 0.93597 -0.03500
C 	C 	0.22710 0.09914 0.93803 -0.04200
C 	C 	0.21395 0.11110 0.97287 0.01200
C 	C 	0.25533 0.14642 0.00526 -0.04000
C 	C 	0.30946 0.16836 0.00325 -0.03300
C 	C 	0.15785 0.08370 0.97649 0.00400
C 	C 	0.11096 0.05982 0.97999 -0.04000
H 	H 	0.47411 0.16181 0.01108 0.04000
H 	H 	0.37725 0.12332 0.00676 0.04900
H 	H 	0.39303 0.22909 0.92874 0.04600
H 	H 	0.48995 0.26735 0.93248 0.03100
H 	H 	0.29103 0.11081 0.90922 0.03800
H 	H 	0.19529 0.07188 0.91286 0.04300
H 	H 	0.24547 0.15591 0.03226 0.04300
H 	H 	0.34113 0.19485 0.02866 0.03900
