data_crystal

_cell_length_a 26.37555
_cell_length_b 26.40885
_cell_length_c 34.64608
_cell_angle_alpha 95.48752
_cell_angle_beta  95.48577
_cell_angle_gamma 125.83872

_symmetry_space_group_name_	'P 1'
_symmetry_space_group_name_H-M	'P 1'

loop_
_symmetry_equiv_pos_as_xyz
  x,y,z

loop_
_atom_site_label
_atom_site_type_symbol
_atom_site_fract_x
_atom_site_fract_y
_atom_site_fract_z
_atom_site_charge
C 	C 	0.97160 0.03974 0.99296 0.07100
C 	C 	0.93565 0.97443 0.99340 -0.08600
C 	C 	0.96382 0.94313 0.99053 0.07500
C 	C 	0.02797 0.97711 0.98721 -0.08600
C 	C 	0.06392 0.04222 0.98613 0.06900
C 	C 	0.03567 0.07356 0.98908 -0.10200
H 	H 	0.88592 0.94806 0.99590 0.06800
H 	H 	0.04991 0.95296 0.98551 0.07200
H 	H 	0.06341 0.12397 0.98845 0.06000
C 	C 	0.93599 0.99384 0.45702 0.09000
C 	C 	0.90317 0.93063 0.46262 -0.09600
C 	C 	0.93344 0.90113 0.46226 0.07800
C 	C 	0.99693 0.93539 0.45716 -0.09600
C 	C 	0.03023 0.99889 0.45262 0.08800
C 	C 	0.99943 0.02768 0.45183 -0.11200
H 	H 	0.85467 0.90483 0.46766 0.07000
H 	H 	0.02070 0.91300 0.45742 0.07100
H 	H 	0.02522 0.07678 0.44811 0.06500
Cu	Cu	0.64134 0.24790 0.00670 0.92900
Cu	Cu	0.68395 0.24621 0.92085 0.87200
Cu	Cu	0.67951 0.35042 0.95691 0.89900
Cu	Cu	0.64870 0.36890 0.03587 0.89900
C 	C 	0.66802 0.29771 0.08944 0.28500
O 	O 	0.54983 0.21350 0.00796 -0.36400
C 	C 	0.65344 0.30689 0.87020 0.28700
O 	O 	0.69572 0.34721 0.01124 -0.64000
O 	O 	0.63134 0.25612 0.95083 -0.64100
O 	O 	0.67740 0.19955 0.00174 -0.37200
O 	O 	0.74578 0.26259 0.96328 -0.43800
O 	O 	0.63966 0.32423 0.08100 -0.37600
O 	O 	0.73059 0.44215 0.96676 -0.38100
C 	C 	0.72477 0.47727 0.99309 0.31200
C 	C 	0.52618 0.24205 0.99466 0.30100
O 	O 	0.56474 0.30168 0.99078 -0.37600
O 	O 	0.68652 0.45259 0.01890 -0.37600
O 	O 	0.66433 0.25624 0.06243 -0.35200
C 	C 	0.72996 0.22270 0.98767 0.31400
O 	O 	0.67860 0.35481 0.90017 -0.37800
O 	O 	0.64311 0.25297 0.87532 -0.41600
H 	H 	0.74145 0.37304 0.02332 0.17000
H 	H 	0.58676 0.23210 0.93677 0.17300
Cu	Cu	0.73104 0.32685 0.45646 0.92900
Cu	Cu	0.72076 0.27788 0.54091 0.87600
Cu	Cu	0.62365 0.28935 0.50204 0.89800
Cu	Cu	0.61503 0.32563 0.42360 0.89600
C 	C 	0.69261 0.31061 0.37285 0.28700
O 	O 	0.76980 0.41985 0.45681 -0.34800
C 	C 	0.65910 0.31015 0.58923 0.28800
O 	O 	0.63153 0.27516 0.44841 -0.64000
O 	O 	0.71794 0.33477 0.51142 -0.64000
O 	O 	0.77582 0.28693 0.46255 -0.36900
O 	O 	0.70553 0.21809 0.49780 -0.42500
O 	O 	0.66535 0.33831 0.38106 -0.38100
O 	O 	0.53206 0.24066 0.48915 -0.38200
C 	C 	0.50010 0.24637 0.46033 0.31100
C 	C 	0.74082 0.44430 0.46784 0.30100
O 	O 	0.68061 0.40646 0.47072 -0.39400
O 	O 	0.52920 0.28836 0.43717 -0.38100
O 	O 	0.72682 0.30642 0.40101 -0.35400
C 	C 	0.74985 0.23421 0.47679 0.30600
O 	O 	0.61387 0.28826 0.55801 -0.37900
O 	O 	0.71251 0.31801 0.58591 -0.41300
H 	H 	0.60510 0.22983 0.43547 0.16800
H 	H 	0.74241 0.37887 0.52632 0.17700
C 	C 	0.62569 0.27229 0.69212 -0.00000
C 	C 	0.59725 0.24665 0.72415 -0.05500
C 	C 	0.63242 0.28134 0.76209 0.01600
C 	C 	0.69108 0.34125 0.76700 -0.00100
C 	C 	0.71443 0.37082 0.73489 -0.05400
C 	C 	0.68187 0.33404 0.69700 0.01700
S 	S 	0.58979 0.24923 0.64524 0.02000
C 	C 	0.64495 0.31459 0.62877 -0.07200
C 	C 	0.69324 0.35798 0.66147 -0.02100
S 	S 	0.71053 0.37729 0.81358 0.02400
C 	C 	0.64770 0.31796 0.82985 -0.07300
C 	C 	0.60804 0.26768 0.79741 -0.02100
H 	H 	0.54969 0.20249 0.71979 0.04700
H 	H 	0.75524 0.42030 0.73915 0.04900
H 	H 	0.73674 0.40295 0.65914 0.04300
H 	H 	0.56535 0.22204 0.79971 0.04100
C 	C 	0.69946 0.34115 0.20259 0.00600
C 	C 	0.72769 0.37056 0.24214 -0.05400
C 	C 	0.70094 0.33317 0.27081 0.01800
C 	C 	0.65081 0.26832 0.25973 0.00400
C 	C 	0.63027 0.23706 0.22027 -0.05400
C 	C 	0.65398 0.27516 0.19150 0.01800
S 	S 	0.73113 0.36928 0.16370 0.01500
C 	C 	0.68742 0.30036 0.13104 -0.06500
C 	C 	0.64671 0.25198 0.15121 -0.01700
S 	S 	0.64259 0.23511 0.29923 0.01200
C 	C 	0.69991 0.30119 0.33203 -0.06400
C 	C 	0.72860 0.35198 0.31138 -0.01800
H 	H 	0.76932 0.41977 0.25018 0.05000
H 	H 	0.59850 0.18565 0.21239 0.05000
H 	H 	0.61042 0.20301 0.13682 0.04900
H 	H 	0.76441 0.40113 0.32567 0.04800
C 	C 	0.82120 0.72134 0.44200 -0.09800
C 	C 	0.84598 0.70774 0.47360 -0.01000
C 	C 	0.89583 0.75769 0.50331 0.14200
C 	C 	0.92206 0.82081 0.50047 -0.07800
C 	C 	0.89923 0.83460 0.46793 -0.04900
C 	C 	0.84803 0.78449 0.43885 0.15500
C 	C 	0.82243 0.64150 0.47409 0.01100
O 	O 	0.92123 0.74509 0.53398 -0.27500
H 	H 	0.96144 0.85915 0.52297 0.06600
O 	O 	0.82452 0.79716 0.40719 -0.28400
H 	H 	0.78228 0.68297 0.41929 0.06800
C 	C 	0.78183 0.60693 0.49995 0.11700
C 	C 	0.75816 0.54348 0.49923 -0.03500
C 	C 	0.77313 0.51342 0.47196 -0.12300
C 	C 	0.81392 0.54826 0.44607 0.19200
C 	C 	0.83904 0.61223 0.44768 -0.11500
O 	O 	0.76555 0.63517 0.52611 -0.27600
H 	H 	0.72703 0.51723 0.51933 0.05600
O 	O 	0.82862 0.51974 0.41885 -0.27900
H 	H 	0.87040 0.63875 0.42774 0.07800
H 	H 	0.84956 0.80040 0.38667 0.15400
H 	H 	0.72630 0.62707 0.51185 0.14600
H 	H 	0.79539 0.50223 0.39488 0.14900
H 	H 	0.89743 0.74162 0.55532 0.15800
C 	C 	0.82643 0.03946 0.43171 -0.09200
C 	C 	0.85288 0.09299 0.46133 -0.01000
C 	C 	0.90611 0.11335 0.48975 0.13700
C 	C 	0.93156 0.07944 0.48894 -0.07600
C 	C 	0.90551 0.02617 0.45918 -0.05600
C 	C 	0.85267 0.00616 0.43044 0.14900
C 	C 	0.82312 0.12605 0.46370 0.01000
O 	O 	0.93253 0.16571 0.51881 -0.28200
H 	H 	0.97216 0.09504 0.51117 0.06100
O 	O 	0.82835 0.95583 0.40020 -0.27400
H 	H 	0.78545 0.02357 0.40973 0.06700
C 	C 	0.82777 0.16299 0.43557 0.11300
C 	C 	0.80325 0.19770 0.43977 -0.03100
C 	C 	0.77427 0.19615 0.47209 -0.12800
C 	C 	0.76987 0.15906 0.50029 0.19100
C 	C 	0.79293 0.12324 0.49543 -0.11300
O 	O 	0.85857 0.16734 0.40489 -0.27100
H 	H 	0.80696 0.22592 0.41793 0.06600
O 	O 	0.74364 0.15820 0.53279 -0.30000
H 	H 	0.78901 0.09464 0.51706 0.07900
H 	H 	0.79374 0.91803 0.40949 0.15100
H 	H 	0.82487 0.13323 0.38289 0.14700
H 	H 	0.77973 0.19316 0.55343 0.13000
H 	H 	0.96533 0.20229 0.50776 0.15100
C 	C 	0.33507 0.20515 0.44906 -0.11700
C 	C 	0.29843 0.14086 0.45223 0.01100
C 	C 	0.32791 0.11101 0.45753 0.11900
C 	C 	0.39370 0.14554 0.45955 -0.03200
C 	C 	0.43062 0.21015 0.45688 -0.12200
C 	C 	0.40103 0.24011 0.45190 0.19500
C 	C 	0.22973 0.10575 0.45198 -0.01000
O 	O 	0.29235 0.04789 0.46019 -0.27300
H 	H 	0.41603 0.12209 0.46327 0.05500
O 	O 	0.43649 0.30352 0.44999 -0.28700
H 	H 	0.31253 0.22837 0.44519 0.07200
C 	C 	0.20837 0.11405 0.48601 0.13300
C 	C 	0.14307 0.07937 0.48590 -0.07400
C 	C 	0.09877 0.03674 0.45187 -0.05800
C 	C 	0.12010 0.02924 0.41759 0.14900
C 	C 	0.18547 0.06350 0.41782 -0.09000
O 	O 	0.25125 0.15428 0.51984 -0.27900
H 	H 	0.12682 0.08517 0.51239 0.06000
O 	O 	0.07715 0.98727 0.38423 -0.27300
H 	H 	0.20175 0.05708 0.39150 0.07400
H 	H 	0.44873 0.32604 0.47766 0.15000
H 	H 	0.26026 0.19605 0.51822 0.14500
H 	H 	0.06880 0.01238 0.36898 0.14400
H 	H 	0.29193 0.04718 0.48874 0.15200
C 	C 	0.88007 0.78685 0.02629 -0.09400
C 	C 	0.85918 0.74399 0.99087 -0.01200
C 	C 	0.87133 0.76646 0.95516 0.14300
C 	C 	0.90448 0.83153 0.95514 -0.07700
C 	C 	0.92598 0.87448 0.99062 -0.04800
C 	C 	0.91313 0.85191 0.02626 0.15500
C 	C 	0.82482 0.67565 0.99126 0.01200
O 	O 	0.84950 0.72472 0.92020 -0.27700
H 	H 	0.91392 0.84869 0.92758 0.06900
O 	O 	0.93487 0.89364 0.06122 -0.27900
H 	H 	0.87093 0.76972 0.05387 0.07100
C 	C 	0.85710 0.64813 0.99055 0.11500
C 	C 	0.82393 0.58305 0.99058 -0.03100
C 	C 	0.75881 0.54531 0.99207 -0.12200
C 	C 	0.72647 0.57290 0.99255 0.19600
C 	C 	0.75969 0.63795 0.99246 -0.11500
O 	O 	0.92076 0.68455 0.98905 -0.27600
H 	H 	0.84904 0.56210 0.99000 0.05500
O 	O 	0.66254 0.53641 0.99327 -0.28600
H 	H 	0.73469 0.65902 0.99302 0.07800
H 	H 	0.90000 0.89702 0.06473 0.15400
H 	H 	0.94309 0.70079 0.01699 0.14900
H 	H 	0.64101 0.52073 0.96516 0.15400
H 	H 	0.88460 0.72184 0.91642 0.15800
C 	C 	0.86988 0.21684 0.00631 -0.12100
C 	C 	0.83876 0.15110 0.00107 0.01600
C 	C 	0.77188 0.10924 0.99480 0.11400
C 	C 	0.73656 0.13322 0.99263 -0.03100
C 	C 	0.76755 0.19883 0.99579 -0.13300
C 	C 	0.83462 0.24084 0.00344 0.19800
C 	C 	0.87605 0.12600 0.99964 -0.01500
O 	O 	0.74099 0.04490 0.99083 -0.27100
H 	H 	0.68500 0.10059 0.98703 0.05300
O 	O 	0.86573 0.30536 0.00922 -0.29100
H 	H 	0.92144 0.24930 0.01175 0.07300
C 	C 	0.89537 0.11848 0.96441 0.13500
C 	C 	0.92781 0.09150 0.96264 -0.07800
C 	C 	0.94170 0.07246 0.99597 -0.05100
C 	C 	0.92415 0.08187 0.03157 0.15300
C 	C 	0.89106 0.10820 0.03321 -0.08900
O 	O 	0.88030 0.13509 0.93127 -0.28400
H 	H 	0.94124 0.08438 0.93516 0.06200
O 	O 	0.93762 0.06359 0.06440 -0.28300
H 	H 	0.87659 0.11426 0.06046 0.07500
H 	H 	0.87467 0.31695 0.98300 0.14700
H 	H 	0.91683 0.18004 0.93239 0.14300
H 	H 	0.98021 0.10131 0.07846 0.15000
H 	H 	0.73325 0.02922 0.96215 0.14800
C 	C 	0.21358 0.08783 0.94982 -0.09800
C 	C 	0.26054 0.13319 0.98216 -0.01100
C 	C 	0.24322 0.15318 0.01414 0.14400
C 	C 	0.17896 0.12543 0.01444 -0.07700
C 	C 	0.13170 0.07777 0.98295 -0.05000
C 	C 	0.14939 0.06062 0.94991 0.15100
C 	C 	0.32741 0.15762 0.98326 0.00800
O 	O 	0.28911 0.20052 0.04476 -0.27700
H 	H 	0.16576 0.13969 0.03964 0.06500
O 	O 	0.10380 0.01563 0.91831 -0.28900
H 	H 	0.22675 0.07291 0.92489 0.06600
C 	C 	0.35499 0.13747 0.00818 0.11700
C 	C 	0.41953 0.16393 0.01100 -0.03400
C 	C 	0.45671 0.20942 0.98827 -0.12400
C 	C 	0.42778 0.22617 0.96125 0.19000
C 	C 	0.36364 0.20101 0.95933 -0.11400
O 	O 	0.31938 0.09337 0.03073 -0.27700
H 	H 	0.44096 0.15007 0.03153 0.06300
O 	O 	0.46226 0.26768 0.93709 -0.28600
H 	H 	0.34214 0.21544 0.93935 0.07500
H 	H 	0.09817 0.03973 0.90034 0.14700
H 	H 	0.30089 0.05153 0.01411 0.14600
H 	H 	0.45722 0.24069 0.91286 0.14200
H 	H 	0.29386 0.17834 0.06472 0.15900
