data_crystal

_cell_length_a 20.30408
_cell_length_b 21.59326
_cell_length_c 31.30257
_cell_angle_alpha 61.05197
_cell_angle_beta  118.64463
_cell_angle_gamma 133.21755

_symmetry_space_group_name_	'P 1'
_symmetry_space_group_name_H-M	'P 1'

loop_
_symmetry_equiv_pos_as_xyz
  x,y,z

loop_
_atom_site_label
_atom_site_type_symbol
_atom_site_fract_x
_atom_site_fract_y
_atom_site_fract_z
_atom_site_charge
Co	Co	0.01460 0.09536 0.09849 1.19500
O 	O 	0.01570 0.88044 0.49929 -0.32400
C 	C 	0.01632 0.95146 0.97086 0.26600
O 	O 	0.00990 0.99663 0.98492 -0.33000
O 	O 	0.01589 0.93773 0.76094 -0.33900
C 	C 	0.02000 0.97480 0.91808 0.05700
O 	O 	0.02150 0.09537 0.53671 -0.46200
C 	C 	0.01910 0.99007 0.77481 0.33600
C 	C 	0.02349 0.02431 0.37838 0.05800
C 	C 	0.02393 0.02634 0.33254 -0.04800
N 	N 	0.00704 0.63001 0.20111 -0.13800
O 	O 	0.02355 0.98280 0.12546 -0.51500
Co	Co	0.03865 0.87244 0.64047 1.20100
O 	O 	0.03683 0.98537 0.62583 -0.51800
O 	O 	0.01219 0.05326 0.74138 -0.42600
O 	O 	0.06277 0.78529 0.59853 -0.35300
C 	C 	0.01758 0.97051 0.82751 0.01300
H 	H 	0.02905 0.10880 0.40014 0.07900
O 	O 	0.05226 0.92292 0.09019 -0.71200
Co	Co	0.06874 0.02008 0.05782 1.15000
O 	O 	0.06717 0.12113 0.04549 -0.47500
O 	O 	0.05794 0.15129 0.19809 -0.38100
Co	Co	0.05667 0.01801 0.55002 1.15700
C 	C 	0.04778 0.20424 0.63790 0.36900
O 	O 	0.07351 0.93911 0.58547 -0.71800
H 	H 	0.05969 0.08886 0.30644 0.04400
O 	O 	0.08040 0.81950 0.18919 -0.34900
O 	O 	0.07207 0.18309 0.61737 -0.38900
C 	C 	0.07571 0.10919 0.39087 -0.19300
H 	H 	0.06173 0.34913 0.57316 0.05000
H 	H 	0.07647 0.57719 0.18481 0.06300
H 	H 	0.08254 0.45381 0.05135 0.09700
O 	O 	0.00792 0.87905 0.00122 -0.35700
Co	Co	0.09882 0.88055 0.07038 1.18300
C 	C 	0.10176 0.00647 0.90953 -0.13400
C 	C 	0.10129 0.00493 0.86461 0.04200
C 	C 	0.09763 0.67545 0.20259 0.12200
H 	H 	0.08693 0.48519 0.55117 0.09500
H 	H 	0.10154 0.33951 0.08905 0.05900
H 	H 	0.10288 0.16643 0.35883 0.06700
C 	C 	0.09993 0.35674 0.61121 -0.00800
C 	C 	0.11455 0.21659 0.16775 0.30100
O 	O 	0.11881 0.20322 0.13171 -0.37100
Co	Co	0.12958 0.91577 0.55846 1.18300
C 	C 	0.11096 0.29145 0.64758 -0.12700
N 	N 	0.11422 0.47109 0.08548 -0.19300
H 	H 	0.11599 0.51929 0.08727 0.09500
O 	O 	0.00009 0.75020 0.09830 -0.35600
N 	N 	0.11887 0.49018 0.58841 -0.19200
H 	H 	0.13555 0.11821 0.42325 0.07500
C 	C 	0.13582 0.35806 0.12437 -0.02500
C 	C 	0.12721 0.63576 0.19887 -0.08000
C 	C 	0.13237 0.42889 0.62425 0.06800
H 	H 	0.13707 0.54160 0.59737 0.09200
H 	H 	0.98464 0.65623 0.20684 0.05000
H 	H 	0.15192 0.51054 0.21102 0.05700
H 	H 	0.14551 0.52970 0.68777 0.06200
C 	C 	0.24858 0.07446 0.05521 0.31900
C 	C 	0.14360 0.82642 0.18039 0.29900
O 	O 	0.18185 0.88538 0.14188 -0.37400
C 	C 	0.94590 0.95296 0.26394 0.29600
O 	O 	0.19873 0.00566 0.03810 -0.45300
O 	O 	0.21068 0.08892 0.07044 -0.41500
Co	Co	0.98178 0.06490 0.59695 1.14600
C 	C 	0.23926 0.10920 0.53098 0.31700
C 	C 	0.21719 0.89181 0.66365 0.29800
O 	O 	0.96236 0.15399 0.64258 -0.46300
O 	O 	0.23358 0.95194 0.62151 -0.37400
O 	O 	0.15431 0.86729 0.68298 -0.36200
O 	O 	0.19626 0.04181 0.51440 -0.44700
O 	O 	0.19412 0.11623 0.54563 -0.41000
C 	C 	0.19082 0.04268 0.85597 -0.27000
H 	H 	0.16557 0.03047 0.93837 0.05700
H 	H 	0.24750 0.05686 0.89057 0.07300
H 	H 	0.21275 0.10472 0.82622 0.07400
H 	H 	0.18116 0.99551 0.84416 0.13400
C 	C 	0.18410 0.36840 0.71118 -0.09000
C 	C 	0.17814 0.43649 0.67457 -0.01400
C 	C 	0.15841 0.30036 0.69737 0.13100
N 	N 	0.18145 0.24492 0.73173 -0.20400
H 	H 	0.21901 0.37397 0.74974 0.05400
H 	H 	0.21187 0.24836 0.76926 0.08200
H 	H 	0.17423 0.20144 0.72087 0.09000
C 	C 	0.24501 0.70519 0.73010 -0.08500
C 	C 	0.25533 0.75995 0.64324 0.07100
C 	C 	0.25114 0.82582 0.63717 -0.01800
C 	C 	0.23805 0.82961 0.67598 -0.10500
C 	C 	0.23822 0.77038 0.72364 0.13300
N 	N 	0.23920 0.77957 0.76397 -0.20200
H 	H 	0.25342 0.87196 0.60093 0.01800
N 	N 	0.25943 0.75397 0.60333 -0.19200
H 	H 	0.23335 0.73252 0.79808 0.09300
H 	H 	0.25321 0.83651 0.76308 0.10800
H 	H 	0.26256 0.79986 0.56891 0.08800
C 	C 	0.15985 0.30655 0.16782 -0.10600
C 	C 	0.20465 0.33112 0.21385 0.12100
C 	C 	0.21881 0.40305 0.21610 -0.08700
C 	C 	0.19386 0.45391 0.17270 -0.02000
H 	H 	0.25525 0.42313 0.25106 0.05200
N 	N 	0.23609 0.28708 0.25567 -0.20300
C 	C 	0.25700 0.79100 0.23145 -0.02600
C 	C 	0.16389 0.76095 0.21032 -0.09600
H 	H 	0.30791 0.85278 0.24225 0.05400
H 	H 	0.95957 0.56511 0.19817 0.04100
C 	C 	0.72659 0.31396 0.00670 0.03100
C 	C 	0.78400 0.39050 0.02443 -0.08500
C 	C 	0.74349 0.42382 0.02459 0.03800
C 	C 	0.64738 0.37865 0.01008 -0.08200
C 	C 	0.59065 0.29725 0.00004 0.03600
C 	C 	0.62941 0.26973 0.99286 -0.07900
H 	H 	0.85820 0.42252 0.03854 0.04200
H 	H 	0.61634 0.40214 0.01243 0.05600
H 	H 	0.58382 0.21068 0.97983 0.04400
C 	C 	0.73088 0.28345 0.54083 0.03800
C 	C 	0.63785 0.25472 0.52485 -0.08800
C 	C 	0.61417 0.29685 0.53119 0.04100
C 	C 	0.68353 0.37486 0.54639 -0.08500
C 	C 	0.77688 0.40925 0.55843 0.04100
C 	C 	0.80114 0.36144 0.55830 -0.08900
H 	H 	0.58327 0.19606 0.51080 0.04500
H 	H 	0.66469 0.40865 0.54958 0.05600
H 	H 	0.87298 0.38441 0.57143 0.04300
C 	C 	0.25670 0.65125 0.19231 0.04600
C 	C 	0.33445 0.71850 0.17082 -0.08700
C 	C 	0.36937 0.69790 0.15453 0.04700
C 	C 	0.31931 0.61220 0.15240 -0.08600
C 	C 	0.24045 0.54475 0.17203 0.04700
C 	C 	0.21033 0.56349 0.19350 -0.08600
H 	H 	0.37019 0.78631 0.16886 0.06100
H 	H 	0.34551 0.59690 0.13860 0.05800
C 	C 	0.28532 0.64725 0.70114 0.04400
C 	C 	0.21853 0.56241 0.69253 -0.08600
C 	C 	0.24603 0.52370 0.68560 0.04400
C 	C 	0.33968 0.56749 0.68980 -0.08600
C 	C 	0.40628 0.64969 0.70023 0.04500
C 	C 	0.37982 0.68873 0.70734 -0.08600
H 	H 	0.36064 0.53798 0.68400 0.05700
H 	H 	0.43156 0.75419 0.71356 0.05700
Co	Co	0.92340 0.92390 0.16996 1.18900
Co	Co	0.98960 0.85333 0.13492 1.15300
Co	Co	0.91786 0.07260 0.16814 1.13700
C 	C 	0.91294 0.71874 0.08707 0.24600
O 	O 	0.93825 0.17467 0.10482 -0.44200
O 	O 	0.96037 0.02869 0.14652 -0.82700
C 	C 	0.90197 0.16133 0.06016 0.31100
O 	O 	0.91469 0.81889 0.17838 -0.48600
C 	C 	0.74452 0.90289 0.14490 0.30000
O 	O 	0.91133 0.11478 0.05041 -0.43500
O 	O 	0.78303 0.98714 0.13409 -0.35800
O 	O 	0.78363 0.87564 0.14141 -0.39300
O 	O 	0.89050 0.97600 0.23426 -0.39500
O 	O 	0.97170 0.92948 0.24595 -0.38600
O 	O 	0.88983 0.75625 0.09490 -0.40200
Co	Co	0.96146 0.91766 0.68688 1.17900
Co	Co	0.89765 0.02382 0.68256 1.13500
C 	C 	0.97561 0.73527 0.60009 0.24500
O 	O 	0.78954 0.99077 0.62095 -0.33200
O 	O 	0.95729 0.00468 0.65496 -0.81400
C 	C 	0.80509 0.04458 0.57705 0.22500
O 	O 	0.98555 0.83323 0.69730 -0.50200
C 	C 	0.77986 0.83076 0.70168 0.31700
C 	C 	0.99750 0.93702 0.46667 0.22400
O 	O 	0.85729 0.05471 0.55672 -0.39900
O 	O 	0.98320 0.97502 0.48179 -0.36800
O 	O 	0.82688 0.89455 0.72261 -0.41100
O 	O 	0.81919 0.83191 0.67767 -0.40500
O 	O 	0.94500 0.76194 0.61181 -0.40700
C 	C 	0.93761 0.94476 0.87988 0.01100
C 	C 	0.93600 0.93899 0.83621 -0.09100
H 	H 	0.87194 0.91431 0.80772 0.05200
C 	C 	0.85120 0.91928 0.88504 -0.17200
H 	H 	0.86874 0.96771 0.89978 0.06800
H 	H 	0.81705 0.85361 0.91085 0.06000
H 	H 	0.80076 0.91723 0.84822 0.06500
C 	C 	0.92307 0.86524 0.39761 -0.05300
C 	C 	0.97408 0.94294 0.41196 -0.05800
C 	C 	0.97374 0.94849 0.31864 -0.08300
C 	C 	0.92708 0.86741 0.35298 0.07500
C 	C 	0.87965 0.78250 0.34224 -0.19500
H 	H 	0.88467 0.80246 0.42284 0.04400
H 	H 	0.88191 0.73366 0.37774 0.06000
H 	H 	0.91456 0.79134 0.31920 0.07300
H 	H 	0.80596 0.75563 0.32260 0.06600
C 	C 	0.56372 0.68772 0.74541 -0.09100
C 	C 	0.50312 0.69718 0.70006 -0.01800
C 	C 	0.52982 0.73688 0.65420 0.06600
C 	C 	0.61736 0.76734 0.65490 -0.02200
C 	C 	0.68068 0.76435 0.70053 -0.11800
C 	C 	0.65138 0.71891 0.74592 0.12600
N 	N 	0.70788 0.70614 0.79015 -0.20400
H 	H 	0.54150 0.65368 0.78028 0.05300
H 	H 	0.63937 0.80081 0.62000 0.04900
N 	N 	0.47255 0.74747 0.60960 -0.19300
H 	H 	0.68780 0.67596 0.82395 0.08000
H 	H 	0.77084 0.72355 0.79114 0.08600
H 	H 	0.41036 0.73216 0.60799 0.08800
H 	H 	0.49125 0.77374 0.57583 0.08600
C 	C 	0.25589 0.70105 0.69058 -0.01400
H 	H 	0.24712 0.66099 0.76669 0.05700
H 	H 	0.25644 0.70239 0.60543 0.08700
C 	C 	0.14773 0.42845 0.12693 0.07400
H 	H 	0.23503 0.23925 0.25398 0.09100
H 	H 	0.26544 0.30288 0.29007 0.08000
C 	C 	0.57842 0.83413 0.10284 -0.02000
C 	C 	0.64686 0.84046 0.14744 -0.10500
C 	C 	0.62379 0.80262 0.19400 0.12100
C 	C 	0.53550 0.76726 0.19508 -0.08500
C 	C 	0.46664 0.76026 0.15064 -0.01800
C 	C 	0.48873 0.79577 0.10391 0.07000
N 	N 	0.42469 0.79445 0.06010 -0.19300
H 	H 	0.59590 0.86190 0.06712 0.05000
H 	H 	0.51792 0.73858 0.23091 0.05300
N 	N 	0.68514 0.79735 0.23768 -0.20200
H 	H 	0.44077 0.81895 0.02574 0.09100
H 	H 	0.35956 0.77175 0.05967 0.09200
H 	H 	0.74494 0.81022 0.23771 0.08700
H 	H 	0.67033 0.77451 0.27218 0.08500
C 	C 	0.22242 0.67363 0.21182 -0.02000
C 	C 	0.28550 0.74423 0.23533 0.07200
N 	N 	0.37178 0.76570 0.26230 -0.19400
H 	H 	0.39056 0.72606 0.27016 0.08800
H 	H 	0.41922 0.81985 0.27788 0.09000
C 	C 	0.69034 0.13322 0.56675 -0.07500
C 	C 	0.75059 0.22357 0.54648 -0.02900
C 	C 	0.82174 0.25327 0.52755 0.06300
C 	C 	0.83685 0.19327 0.53483 -0.03900
C 	C 	0.77497 0.10288 0.55455 -0.08800
C 	C 	0.69575 0.07290 0.56526 0.05100
N 	N 	0.62462 0.98611 0.57409 -0.16600
H 	H 	0.63581 0.10922 0.58140 0.03100
H 	H 	0.89687 0.21723 0.52536 0.03400
N 	N 	0.87291 0.33723 0.50096 -0.19600
H 	H 	0.56859 0.96342 0.58487 0.09600
H 	H 	0.62170 0.94135 0.56731 0.10400
H 	H 	0.85324 0.37845 0.48718 0.07600
H 	H 	0.92922 0.35995 0.49044 0.06400
C 	C 	0.88566 0.50458 0.61836 -0.08700
C 	C 	0.84779 0.49789 0.56839 -0.02800
C 	C 	0.85103 0.56985 0.52962 0.06600
C 	C 	0.87827 0.64058 0.54158 -0.04300
C 	C 	0.91458 0.64701 0.59145 -0.09200
C 	C 	0.91896 0.57837 0.63031 0.10600
N 	N 	0.95478 0.58277 0.67908 -0.20200
H 	H 	0.88395 0.44995 0.64830 0.04200
H 	H 	0.87779 0.69419 0.51159 0.04100
N 	N 	0.82525 0.56995 0.48072 -0.19500
H 	H 	0.96100 0.53367 0.70742 0.07000
H 	H 	0.97502 0.63393 0.68942 0.08000
H 	H 	0.81129 0.52152 0.47087 0.07900
H 	H 	0.82160 0.62017 0.45202 0.07500
C 	C 	0.49233 0.21253 0.57600 -0.09300
C 	C 	0.51744 0.25241 0.53016 -0.02000
C 	C 	0.45461 0.26065 0.48484 0.06000
C 	C 	0.36553 0.22351 0.48627 -0.02000
C 	C 	0.33831 0.17783 0.53196 -0.12300
C 	C 	0.40473 0.17861 0.57737 0.12000
N 	N 	0.38442 0.14612 0.62235 -0.20300
H 	H 	0.54226 0.21014 0.61085 0.04700
H 	H 	0.31525 0.22510 0.45145 0.03500
N 	N 	0.47871 0.30287 0.43996 -0.19300
H 	H 	0.43224 0.14297 0.65586 0.07300
H 	H 	0.32273 0.12697 0.62450 0.08300
H 	H 	0.54388 0.33020 0.43750 0.08200
H 	H 	0.43173 0.30859 0.40674 0.07800
C 	C 	0.88953 0.28346 0.00282 -0.03200
C 	C 	0.84418 0.19255 0.02335 -0.12400
C 	C 	0.75189 0.14114 0.02669 0.11400
C 	C 	0.71760 0.18116 0.02499 -0.09500
C 	C 	0.76584 0.27300 0.00858 -0.02100
C 	C 	0.84856 0.32351 0.99270 0.05900
N 	N 	0.88607 0.40809 0.96577 -0.19500
H 	H 	0.95855 0.32371 0.99702 0.02200
H 	H 	0.65336 0.14061 0.03635 0.04200
N 	N 	0.69695 0.05309 0.03311 -0.20400
H 	H 	0.95011 0.44636 0.95724 0.06500
H 	H 	0.84881 0.43425 0.94962 0.07900
H 	H 	0.71934 0.02317 0.03124 0.07600
H 	H 	0.62951 0.01441 0.03742 0.06400
C 	C 	0.82011 0.55833 0.10388 -0.03500
C 	C 	0.84224 0.63812 0.06861 -0.09700
C 	C 	0.82935 0.64481 0.01852 0.10700
C 	C 	0.81576 0.58083 0.00696 -0.09200
C 	C 	0.79944 0.50284 0.04300 -0.02400
C 	C 	0.80405 0.49264 0.09248 0.06100
N 	N 	0.79225 0.41967 0.12899 -0.19500
H 	H 	0.82217 0.54978 0.14147 0.03600
H 	H 	0.80828 0.58769 0.96851 0.04900
N 	N 	0.82782 0.71158 0.98124 -0.20100
H 	H 	0.79265 0.41099 0.16497 0.07100
H 	H 	0.78576 0.37244 0.12248 0.07600
H 	H 	0.82682 0.75340 0.98838 0.08900
H 	H 	0.82274 0.71940 0.94436 0.08000
C 	C 	0.35075 0.20182 0.99853 -0.01800
C 	C 	0.34200 0.14442 0.04636 -0.12300
C 	C 	0.41456 0.13556 0.07787 0.11800
C 	C 	0.49010 0.17719 0.05926 -0.09200
C 	C 	0.49809 0.23319 0.01102 -0.02100
C 	C 	0.42658 0.24392 0.97987 0.06200
N 	N 	0.42953 0.29310 0.93177 -0.19400
H 	H 	0.29452 0.20794 0.97417 0.03600
H 	H 	0.54605 0.17063 0.08359 0.04500
N 	N 	0.41168 0.08671 0.12604 -0.20600
H 	H 	0.37764 0.30258 0.90926 0.08000
H 	H 	0.48153 0.31979 0.91579 0.08200
H 	H 	0.35974 0.06037 0.14194 0.08000
H 	H 	0.46360 0.07729 0.14868 0.06800
