data_crystal

_cell_length_a 20.19368
_cell_length_b 20.51673
_cell_length_c 45.31693
_cell_angle_alpha 95.46436
_cell_angle_beta  95.46420
_cell_angle_gamma 126.13645

_symmetry_space_group_name_	'P 1'
_symmetry_space_group_name_H-M	'P 1'

loop_
_symmetry_equiv_pos_as_xyz
  x,y,z

loop_
_atom_site_label
_atom_site_type_symbol
_atom_site_fract_x
_atom_site_fract_y
_atom_site_fract_z
_atom_site_charge
C 	C 	0.03273 0.00396 0.96950 0.13000
N 	N 	0.99233 0.03815 0.96879 -0.14300
C 	C 	0.95818 0.03959 0.49882 0.12200
C 	C 	0.07584 0.04270 0.49634 0.12600
N 	N 	0.04080 0.08247 0.49775 -0.13500
Cu	Cu	0.74421 0.33634 0.96682 0.92600
Cu	Cu	0.73971 0.27851 0.03220 0.87100
Cu	Cu	0.61032 0.29144 0.00474 0.89700
Cu	Cu	0.58600 0.32613 0.94337 0.89700
C 	C 	0.68287 0.30469 0.90305 0.28900
O 	O 	0.78961 0.45561 0.96562 -0.35600
C 	C 	0.66728 0.32639 0.07131 0.28800
O 	O 	0.61379 0.26661 0.96321 -0.63800
O 	O 	0.73336 0.35023 0.00946 -0.64200
O 	O 	0.80188 0.28356 0.97085 -0.36900
O 	O 	0.71387 0.19715 0.99964 -0.43900
O 	O 	0.64697 0.33985 0.90944 -0.38100
O 	O 	0.48998 0.22746 0.99764 -0.38100
C 	C 	0.44338 0.22624 0.97475 0.31300
C 	C 	0.74953 0.48429 0.97451 0.30100
O 	O 	0.67239 0.43316 0.97818 -0.39300
O 	O 	0.47616 0.27722 0.95568 -0.39200
O 	O 	0.73346 0.30572 0.92424 -0.35900
C 	C 	0.76670 0.21487 0.98147 0.30600
O 	O 	0.60596 0.29944 0.04834 -0.38200
O 	O 	0.73501 0.33365 0.06729 -0.41800
H 	H 	0.57940 0.20719 0.95458 0.16600
H 	H 	0.76667 0.40786 0.02030 0.17500
Cu	Cu	0.62858 0.22284 0.50517 0.92800
Cu	Cu	0.68554 0.22611 0.43957 0.87200
Cu	Cu	0.67216 0.35340 0.46702 0.89800
Cu	Cu	0.63853 0.37778 0.52848 0.89700
C 	C 	0.66141 0.28320 0.56890 0.28900
O 	O 	0.50860 0.17826 0.50689 -0.36100
C 	C 	0.63640 0.29722 0.40043 0.28800
O 	O 	0.69919 0.35097 0.50848 -0.63900
O 	O 	0.61301 0.23246 0.46247 -0.64100
O 	O 	0.67869 0.16363 0.50072 -0.37300
O 	O 	0.76735 0.24948 0.47202 -0.44100
O 	O 	0.62539 0.31825 0.56251 -0.38100
O 	O 	0.73642 0.47160 0.47394 -0.38300
C 	C 	0.73465 0.51743 0.49590 0.31600
C 	C 	0.47837 0.21599 0.49727 0.30400
O 	O 	0.52929 0.29234 0.49386 -0.39500
O 	O 	0.68723 0.48592 0.51633 -0.39300
O 	O 	0.66127 0.23419 0.54766 -0.35900
C 	C 	0.74793 0.19673 0.48998 0.31100
O 	O 	0.66245 0.35712 0.42340 -0.38100
O 	O 	0.62952 0.23082 0.40448 -0.41800
H 	H 	0.75972 0.38523 0.51690 0.16700
H 	H 	0.55432 0.19925 0.45172 0.17500
C 	C 	0.68262 0.28231 0.60086 -0.08400
C 	C 	0.71909 0.35328 0.62281 0.01800
C 	C 	0.72788 0.34984 0.65348 -0.07000
C 	C 	0.70030 0.27550 0.66249 0.04700
C 	C 	0.66755 0.20543 0.64066 -0.07000
C 	C 	0.65889 0.20879 0.60992 0.02200
C 	C 	0.69900 0.26965 0.69393 -0.02700
C 	C 	0.69861 0.26647 0.72037 0.00200
C 	C 	0.69666 0.26409 0.75137 0.00200
C 	C 	0.69374 0.26320 0.77782 -0.02800
C 	C 	0.68876 0.26355 0.80938 0.04700
C 	C 	0.61345 0.23648 0.81856 -0.07000
C 	C 	0.61070 0.24634 0.84927 0.01800
C 	C 	0.68333 0.28338 0.87108 -0.08400
C 	C 	0.75793 0.30700 0.86186 0.02200
C 	C 	0.76062 0.29732 0.83108 -0.07000
H 	H 	0.73864 0.41060 0.61611 0.02500
H 	H 	0.75391 0.40443 0.67023 0.05200
H 	H 	0.64650 0.14781 0.64745 0.05300
H 	H 	0.63075 0.15356 0.59325 0.04200
H 	H 	0.55753 0.20985 0.80192 0.05200
H 	H 	0.55257 0.22699 0.85610 0.02400
H 	H 	0.81447 0.33567 0.87842 0.04200
H 	H 	0.81903 0.31814 0.82416 0.05400
C 	C 	0.65595 0.34034 0.10243 -0.08900
C 	C 	0.72587 0.39651 0.12537 0.01800
C 	C 	0.71670 0.40069 0.15555 -0.07200
C 	C 	0.63767 0.34904 0.16306 0.04500
C 	C 	0.56721 0.29607 0.14013 -0.07100
C 	C 	0.57620 0.29182 0.10991 0.01700
C 	C 	0.62995 0.34513 0.19428 -0.03000
C 	C 	0.62424 0.34238 0.22047 -0.00100
C 	C 	0.61872 0.33786 0.25118 -0.00100
C 	C 	0.61499 0.33289 0.27738 -0.03000
C 	C 	0.61175 0.32560 0.30865 0.04500
C 	C 	0.55953 0.24793 0.31627 -0.07200
C 	C 	0.56440 0.23915 0.34647 0.01800
C 	C 	0.62184 0.30810 0.36931 -0.08900
C 	C 	0.67106 0.38646 0.36172 0.01700
C 	C 	0.66615 0.39506 0.33148 -0.07100
H 	H 	0.78755 0.43545 0.11990 0.03100
H 	H 	0.77137 0.44240 0.17314 0.05000
H 	H 	0.50581 0.25634 0.14575 0.05100
H 	H 	0.52163 0.24848 0.09248 0.03800
H 	H 	0.51681 0.19401 0.29876 0.05000
H 	H 	0.52497 0.17854 0.35202 0.03100
H 	H 	0.71544 0.44026 0.37907 0.03800
H 	H 	0.70644 0.45540 0.32577 0.05200
C 	C 	0.79596 0.16646 0.49412 -0.11900
C 	C 	0.83637 0.14084 0.49643 0.05900
C 	C 	0.88237 0.10926 0.49803 -0.01200
C 	C 	0.91909 0.07958 0.49868 -0.02400
C 	C 	0.16303 0.08665 0.49583 -0.02400
C 	C 	0.23554 0.11821 0.49557 -0.00800
C 	C 	0.31976 0.15154 0.49559 0.05800
C 	C 	0.39180 0.17976 0.49605 -0.11000
C 	C 	0.78327 0.56872 0.97432 -0.10500
C 	C 	0.79319 0.16372 0.97628 -0.11300
C 	C 	0.81466 0.11983 0.97336 0.05300
C 	C 	0.84159 0.06968 0.97116 -0.00600
C 	C 	0.86880 0.03060 0.96997 -0.03300
C 	C 	0.12081 0.05369 0.97051 -0.02600
C 	C 	0.19489 0.09397 0.97153 -0.00700
C 	C 	0.28148 0.13998 0.97279 0.05900
C 	C 	0.35547 0.17914 0.97379 -0.10700
C 	C 	0.77822 0.60294 0.49560 -0.10800
C 	C 	0.80777 0.63837 0.97381 0.05600
C 	C 	0.81475 0.67499 0.49566 0.06100
C 	C 	0.83631 0.71986 0.97290 -0.00500
C 	C 	0.90935 0.99166 0.96911 0.14000
N 	N 	0.86650 0.91018 0.97025 -0.13700
C 	C 	0.90761 0.87608 0.97078 0.13100
N 	N 	0.99043 0.92323 0.97045 -0.13600
N 	N 	0.91116 0.95754 0.49838 -0.13400
C 	C 	0.94644 0.91831 0.49691 0.13100
N 	N 	0.02853 0.96084 0.49589 -0.13200
C 	C 	0.89726 0.83195 0.49638 -0.02400
C 	C 	0.85832 0.75948 0.49598 -0.00700
C 	C 	0.86468 0.79038 0.97197 -0.02400
