data_crystal

_cell_length_a 16.19040
_cell_length_b 16.77333
_cell_length_c 61.63923
_cell_angle_alpha 90.03158
_cell_angle_beta  90.02302
_cell_angle_gamma 119.84927

_symmetry_space_group_name_	'P 1'
_symmetry_space_group_name_H-M	'P 1'

loop_
_symmetry_equiv_pos_as_xyz
  x,y,z

loop_
_atom_site_label
_atom_site_type_symbol
_atom_site_fract_x
_atom_site_fract_y
_atom_site_fract_z
_atom_site_charge
O 	O 	0.04187 0.17701 0.75286 -0.34000
O 	O 	0.05563 0.86487 0.79057 -0.35800
O 	O 	0.03024 0.15822 0.79843 -0.35400
H 	H 	0.12095 0.40873 0.77265 0.07400
C 	C 	0.01656 0.49330 0.51907 -0.02300
H 	H 	0.03205 0.49444 0.53622 0.06100
C 	C 	0.41794 0.86971 0.41222 0.35700
C 	C 	0.14800 0.56204 0.46574 0.30600
C 	C 	0.39826 0.84419 0.47017 0.30300
C 	C 	0.17581 0.57683 0.40157 0.32400
C 	C 	0.43084 0.58354 0.46826 0.30700
Ni	Ni	0.25432 0.72355 0.43662 1.11600
Ni	Ni	0.28420 0.54542 0.43583 1.12600
O 	O 	0.32722 0.80624 0.41076 -0.35800
O 	O 	0.33885 0.54891 0.46517 -0.38800
O 	O 	0.19410 0.65182 0.46492 -0.37400
O 	O 	0.15716 0.51354 0.45008 -0.36400
O 	O 	0.33702 0.84041 0.45564 -0.36700
O 	O 	0.39274 0.54116 0.42014 -0.36100
O 	O 	0.15286 0.61928 0.41663 -0.36400
O 	O 	0.21692 0.52841 0.40709 -0.32100
O 	O 	0.33628 0.67474 0.43319 -0.72000
H 	H 	0.34631 0.67992 0.41736 0.17300
C 	C 	0.20444 0.76203 0.67592 0.34400
C 	C 	0.32019 0.54332 0.61947 0.34900
C 	C 	0.08313 0.51931 0.65978 0.35300
C 	C 	0.30498 0.48132 0.68763 0.36200
Ni	Ni	0.24883 0.66388 0.63793 1.12200
Ni	Ni	0.41842 0.63984 0.65868 1.12900
Ni	Ni	0.25111 0.62138 0.68895 1.12500
O 	O 	0.18168 0.72446 0.65598 -0.31900
O 	O 	0.25368 0.74194 0.68977 -0.37400
O 	O 	0.39205 0.54470 0.68215 -0.34100
O 	O 	0.29931 0.60750 0.61448 -0.32300
O 	O 	0.33612 0.53181 0.63957 -0.36500
O 	O 	0.37426 0.67089 0.70707 -0.35600
O 	O 	0.14539 0.53207 0.64504 -0.37300
O 	O 	0.11227 0.56524 0.67818 -0.35100
O 	O 	0.36480 0.78758 0.62982 -0.34800
O 	O 	0.23405 0.49639 0.68514 -0.37900
O 	O 	0.31879 0.66695 0.66250 -0.71800
H 	H 	0.35577 0.73342 0.66547 0.17600
C 	C 	0.10471 0.17216 0.74019 0.36000
C 	C 	0.12483 0.20522 0.79834 0.29400
C 	C 	0.07334 0.90534 0.74042 0.34500
C 	C 	0.12504 0.92692 0.80311 0.26200
Ni	Ni	0.14459 0.06284 0.77035 1.12900
O 	O 	0.14319 0.95840 0.75369 -0.38700
O 	O 	0.11904 0.10259 0.74156 -0.38100
O 	O 	0.17351 0.01510 0.79753 -0.35000
O 	O 	0.17695 0.18707 0.78438 -0.33500
O 	O 	0.01550 0.00830 0.77889 -0.71200
C 	C 	0.26582 0.50333 0.85940 0.31200
C 	C 	0.19226 0.44639 0.91339 0.32700
C 	C 	0.27811 0.77467 0.86416 0.31800
C 	C 	0.24394 0.76523 0.92184 0.34100
Ni	Ni	0.39721 0.58662 0.89692 1.11900
Ni	Ni	0.20892 0.60803 0.89021 1.12300
Ni	Ni	0.41029 0.78580 0.89921 1.12400
O 	O 	0.24308 0.68551 0.86342 -0.38600
O 	O 	0.35508 0.55673 0.86484 -0.37100
O 	O 	0.19653 0.50381 0.87057 -0.36500
O 	O 	0.33373 0.78705 0.92424 -0.38900
O 	O 	0.18342 0.69667 0.90870 -0.35300
O 	O 	0.27903 0.46286 0.90762 -0.32500
O 	O 	0.16976 0.51269 0.91401 -0.37200
O 	O 	0.33373 0.82398 0.88023 -0.36200
O 	O 	0.33509 0.65524 0.90035 -0.71800
H 	H 	0.32093 0.64549 0.91598 0.16500
C 	C 	0.19773 0.08337 0.25746 0.37800
C 	C 	0.17854 0.10724 0.19944 0.30100
Ni	Ni	0.05446 0.93954 0.22895 1.10100
Ni	Ni	0.07155 0.13955 0.23409 1.12100
O 	O 	0.02583 0.12852 0.26483 -0.39000
O 	O 	0.12640 0.99870 0.25750 -0.40500
O 	O 	0.19310 0.14698 0.24589 -0.35800
O 	O 	0.17257 0.03798 0.21130 -0.33900
O 	O 	0.13257 0.15177 0.20475 -0.37200
C 	C 	0.10523 0.97221 0.96281 0.30800
C 	C 	0.13465 0.05262 0.03365 0.33300
Ni	Ni	0.08114 0.10490 0.99283 1.13000
O 	O 	0.01687 0.90282 0.96347 -0.36400
O 	O 	0.12573 0.05922 0.96637 -0.32800
O 	O 	0.16133 0.08086 0.01344 -0.32900
O 	O 	0.04914 0.03449 0.04116 -0.36500
O 	O 	0.05995 0.17659 0.01679 -0.37100
H 	H 	0.01906 0.95177 0.99977 0.17500
C 	C 	0.38296 0.10147 0.29732 0.34500
C 	C 	0.29529 0.06762 0.28674 -0.07600
C 	C 	0.29068 0.10362 0.26658 -0.13300
C 	C 	0.37592 0.16512 0.25591 0.34800
F 	F 	0.37437 0.18871 0.23494 -0.44800
H 	H 	0.23076 0.01632 0.29462 0.11800
F 	F 	0.38635 0.06678 0.31697 -0.42200
H 	H 	0.04813 0.20115 0.30248 0.09900
C 	C 	0.37734 0.11116 0.05434 -0.08100
C 	C 	0.37695 0.14813 0.07470 -0.11600
C 	C 	0.28986 0.13337 0.08341 0.34200
C 	C 	0.20729 0.09335 0.07068 -0.09000
C 	C 	0.21028 0.06621 0.04930 -0.10400
C 	C 	0.29409 0.06900 0.04181 0.34400
F 	F 	0.29614 0.03507 0.02196 -0.38200
H 	H 	0.44293 0.11876 0.04776 0.11800
H 	H 	0.14250 0.08823 0.07708 0.10600
F 	F 	0.28602 0.16103 0.10390 -0.44100
C 	C 	0.41659 0.20268 0.15704 -0.05600
C 	C 	0.41141 0.26291 0.17217 -0.01700
C 	C 	0.32885 0.23640 0.18421 0.06600
C 	C 	0.25196 0.14578 0.18254 -0.05900
C 	C 	0.25536 0.08592 0.16721 -0.00700
C 	C 	0.33660 0.11273 0.15454 0.04900
S 	S 	0.32164 0.31898 0.20058 -0.00900
S 	S 	0.33683 0.03103 0.13654 0.06100
H 	H 	0.37225 0.98232 0.14698 0.01300
H 	H 	0.36278 0.32559 0.22040 0.08000
H 	H 	0.19575 0.01646 0.16579 0.05700
C 	C 	0.04156 0.33539 0.93258 -0.09500
C 	C 	0.11961 0.35112 0.91965 -0.11000
C 	C 	0.12996 0.27553 0.91341 0.33800
C 	C 	0.07163 0.18877 0.92260 -0.08400
C 	C 	0.00218 0.17645 0.93789 -0.13200
H 	H 	0.02938 0.39150 0.93670 0.11400
H 	H 	0.08565 0.13324 0.91916 0.10400
F 	F 	0.19744 0.28630 0.89882 -0.43600
C 	C 	0.22855 0.84183 0.95475 -0.07700
C 	C 	0.21316 0.82467 0.93242 -0.12500
C 	C 	0.18869 0.87957 0.91981 0.34400
C 	C 	0.17255 0.94568 0.92977 -0.09200
C 	C 	0.17522 0.95376 0.95247 -0.10700
C 	C 	0.21121 0.90711 0.96468 0.33800
F 	F 	0.21786 0.91655 0.98657 -0.40800
H 	H 	0.25310 0.80388 0.96448 0.10700
H 	H 	0.14791 0.98357 0.92004 0.09400
F 	F 	0.18097 0.86930 0.89795 -0.44900
C 	C 	0.16566 0.89377 0.81993 -0.05300
C 	C 	0.26233 0.91885 0.81886 -0.02000
C 	C 	0.30015 0.88069 0.83328 0.04400
C 	C 	0.24100 0.81712 0.84905 -0.06200
C 	C 	0.14491 0.79302 0.85032 0.00400
C 	C 	0.10732 0.83195 0.83613 0.03600
S 	S 	0.42035 0.90986 0.83078 -0.01700
H 	H 	0.30748 0.96607 0.80640 0.05600
H 	H 	0.09955 0.74470 0.86258 0.06600
C 	C 	0.17287 0.29004 0.81150 -0.04100
C 	C 	0.24114 0.30006 0.82688 -0.01600
C 	C 	0.27560 0.37184 0.84208 0.05000
C 	C 	0.24159 0.43499 0.84185 -0.06400
C 	C 	0.17770 0.42803 0.82561 -0.01300
C 	C 	0.14413 0.35690 0.81031 0.04800
S 	S 	0.35853 0.37957 0.86167 0.02900
S 	S 	0.06796 0.35373 0.78948 0.01300
H 	H 	0.44898 0.43560 0.85409 0.04300
H 	H 	0.26482 0.24995 0.82758 0.06300
H 	H 	0.15334 0.47763 0.82500 0.05600
C 	C 	0.29362 0.41003 0.72309 -0.08900
C 	C 	0.28851 0.40143 0.70042 -0.10900
C 	C 	0.23401 0.31372 0.69117 0.34800
C 	C 	0.17356 0.23885 0.70421 -0.07400
C 	C 	0.16860 0.25088 0.72658 -0.13100
C 	C 	0.23261 0.33559 0.73613 0.34700
F 	F 	0.23530 0.34605 0.75798 -0.44600
H 	H 	0.33780 0.47679 0.73047 0.12400
H 	H 	0.12858 0.17225 0.69683 0.11400
F 	F 	0.23218 0.30315 0.66930 -0.41500
C 	C 	0.06663 0.74781 0.69595 -0.08400
C 	C 	0.15235 0.80480 0.68507 -0.09800
C 	C 	0.20256 0.89913 0.68998 0.34700
C 	C 	0.17450 0.93310 0.70758 -0.10100
C 	C 	0.09476 0.87335 0.72000 -0.11700
C 	C 	0.03794 0.78161 0.71333 0.35100
H 	H 	0.02907 0.67456 0.69294 0.14100
H 	H 	0.21660 0.00499 0.71200 0.12500
F 	F 	0.28394 0.95599 0.67914 -0.42400
C 	C 	0.14277 0.57246 0.37890 -0.11200
C 	C 	0.12757 0.49947 0.36497 0.35000
C 	C 	0.07711 0.48592 0.34557 -0.08600
H 	H 	0.06096 0.42729 0.33548 0.13900
F 	F 	0.15680 0.43929 0.37067 -0.40500
C 	C 	0.46584 0.05412 0.37117 -0.07100
C 	C 	0.44719 0.95965 0.40257 -0.14600
C 	C 	0.43573 0.96759 0.38026 0.34000
F 	F 	0.39994 0.89229 0.36726 -0.41700
H 	H 	0.46485 0.06082 0.35372 0.13500
C 	C 	0.31817 0.40349 0.60615 -0.08600
C 	C 	0.34317 0.49559 0.60255 -0.11900
H 	H 	0.25981 0.36116 0.61696 0.13100
C 	C 	0.40198 0.47496 0.49867 -0.01400
S 	S 	0.35061 0.36141 0.53359 0.00400
H 	H 	0.33086 0.41371 0.54739 0.04900
H 	H 	0.32953 0.46218 0.49951 0.05900
C 	C 	0.39502 0.93501 0.50203 0.01800
S 	S 	0.27048 0.86530 0.50408 -0.01300
H 	H 	0.24899 0.79075 0.51688 0.04800
H 	H 	0.40512 0.01234 0.53078 0.04700
C 	C 	0.06984 0.51655 0.48151 -0.07700
C 	C 	0.08982 0.51932 0.50385 0.04100
S 	S 	0.20571 0.55244 0.51290 -0.00900
H 	H 	0.25768 0.64614 0.51482 0.05600
O 	O 	0.42690 0.78412 0.46988 -0.37900
H 	H 	0.02525 0.01686 0.79469 0.16700
H 	H 	0.47136 0.33172 0.17426 0.06300
C 	C 	0.12168 0.63922 0.37124 -0.08300
C 	C 	0.07046 0.62397 0.35190 0.35400
H 	H 	0.14060 0.70033 0.38074 0.11000
C 	C 	0.41476 0.54737 0.58744 0.33600
C 	C 	0.37598 0.36976 0.59826 0.34700
F 	F 	0.35582 0.28352 0.60370 -0.41000
C 	C 	0.43229 0.43232 0.51366 0.03800
C 	C 	0.03432 0.53898 0.34121 -0.13400
F 	F 	0.04157 0.68395 0.34577 -0.42100
H 	H 	0.47534 0.98279 0.84409 0.04800
Ni	Ni	0.46481 0.74820 0.44205 1.12400
C 	C 	0.45231 0.80049 0.62941 0.33200
O 	O 	0.45204 0.62999 0.92798 -0.32100
C 	C 	0.46775 0.21150 0.08569 0.33000
C 	C 	0.46295 0.20240 0.26694 -0.09200
C 	C 	0.44425 0.00263 0.51775 0.01800
C 	C 	0.44545 0.92324 0.48489 -0.05900
H 	H 	0.49443 0.46349 0.42895 0.10200
F 	F 	0.48465 0.81249 0.58387 -0.40100
C 	C 	0.48050 0.61034 0.41609 0.33000
C 	C 	0.50814 0.13302 0.38427 -0.10200
O 	O 	0.47859 0.86190 0.42570 -0.37000
O 	O 	0.50189 0.69780 0.41667 -0.34000
O 	O 	0.49236 0.66574 0.46090 -0.37900
C 	C 	0.46339 0.73195 0.70085 0.33900
O 	O 	0.49166 0.73805 0.68046 -0.37300
O 	O 	0.46973 0.73132 0.63294 -0.33400
O 	O 	0.47912 0.78316 0.87226 -0.38300
C 	C 	0.50176 0.23943 0.14269 0.31500
O 	O 	0.47080 0.27930 0.09764 -0.33700
C 	C 	0.46584 0.17557 0.28836 -0.11100
C 	C 	0.50792 0.12320 0.40689 0.34100
C 	C 	0.47927 0.03705 0.41597 -0.05300
H 	H 	0.48348 0.03066 0.43338 0.10000
C 	C 	0.47222 0.51380 0.57932 -0.09000
C 	C 	0.45708 0.42713 0.58583 -0.12000
F 	F 	0.43405 0.63327 0.58206 -0.40000
C 	C 	0.46480 0.53604 0.48312 -0.06900
C 	C 	0.48850 0.71727 0.93391 0.32300
O 	O 	0.50323 0.32509 0.53703 -0.37000
O 	O 	0.50925 0.78212 0.91913 -0.37400
O 	O 	0.51275 0.18508 0.12904 -0.36400
H 	H 	0.49245 0.85562 0.95775 0.10300
O 	O 	0.50559 0.31189 0.58173 -0.33300
O 	O 	0.52126 0.24730 0.32298 -0.35400
H 	H 	0.52692 0.25555 0.25926 0.10100
H 	H 	0.51944 0.75394 0.82960 0.05800
C 	C 	0.51942 0.88972 0.59612 0.34600
O 	O 	0.53029 0.68919 0.88597 -0.35600
O 	O 	0.52472 0.14294 0.57642 -0.35300
O 	O 	0.53980 0.19420 0.08509 -0.36800
F 	F 	0.52662 0.62775 0.72420 -0.43200
C 	C 	0.52419 0.88423 0.61879 -0.10200
C 	C 	0.52715 0.44830 0.51275 -0.06600
H 	H 	0.52855 0.97451 0.56905 0.09900
C 	C 	0.52482 0.74521 0.95623 -0.12000
C 	C 	0.52829 0.39950 0.58014 0.32500
H 	H 	0.52990 0.55608 0.56835 0.10000
Ni	Ni	0.53468 0.24969 0.55749 1.12600
C 	C 	0.54069 0.75428 0.87251 0.30600
C 	C 	0.52967 0.82425 0.96534 -0.08300
C 	C 	0.54461 0.23763 0.30293 0.33000
C 	C 	0.53851 0.77347 0.71737 -0.12300
C 	C 	0.53784 0.97216 0.58641 -0.10100
F 	F 	0.54481 0.19856 0.41988 -0.40200
C 	C 	0.54474 0.97966 0.48369 -0.04400
C 	C 	0.54753 0.50527 0.41700 -0.08400
C 	C 	0.54348 0.05948 0.51647 -0.08400
H 	H 	0.05205 0.24624 0.06100 0.09300
C 	C 	0.55384 0.58731 0.40953 -0.11900
O 	O 	0.55816 0.28367 0.36928 -0.33000
O 	O 	0.55754 0.32841 0.14143 -0.37700
F 	F 	0.55819 0.62164 0.95971 -0.42500
C 	C 	0.55944 0.55165 0.48216 0.04100
O 	O 	0.56107 0.20020 0.53022 -0.37800
C 	C 	0.56339 0.40498 0.52830 0.30200
H 	H 	0.56246 0.91104 0.71271 0.10100
C 	C 	0.56713 0.70157 0.96729 0.34700
C 	C 	0.56647 0.96583 0.63095 -0.10600
C 	C 	0.56703 0.05103 0.59909 -0.09800
F 	F 	0.00416 0.26338 0.33704 -0.42600
C 	C 	0.57559 0.72069 0.72617 0.34500
H 	H 	0.57403 0.96318 0.64836 0.11100
O 	O 	0.99560 0.13364 0.97491 -0.34400
S 	S 	0.86500 0.27356 0.22149 -0.00300
H 	H 	0.77563 0.21800 0.22971 0.05400
C 	C 	0.98188 0.24796 0.94128 0.35700
F 	F 	0.98338 0.62148 0.65590 -0.43700
O 	O 	0.99671 0.01199 0.22723 -0.69600
C 	C 	0.97604 0.10627 0.95491 0.36400
C 	C 	0.98376 0.47952 0.65267 -0.12500
H 	H 	0.98648 0.86766 0.85390 0.05000
S 	S 	0.98870 0.80631 0.83957 -0.01000
O 	O 	0.98428 0.87024 0.74655 -0.35200
F 	F 	0.95947 0.72296 0.72485 -0.42800
O 	O 	0.95010 0.02059 0.94998 -0.34400
O 	O 	0.98159 0.98275 0.99756 -0.72600
F 	F 	0.59710 0.39371 0.41520 -0.40200
H 	H 	0.95793 0.34072 0.64972 0.11600
C 	C 	0.97589 0.48518 0.47468 -0.00600
H 	H 	0.96047 0.48442 0.45753 0.06000
C 	C 	0.95234 0.53989 0.64578 0.34500
C 	C 	0.83630 0.43096 0.59244 0.32900
C 	C 	0.59003 0.14039 0.53067 0.31200
C 	C 	0.84539 0.42448 0.52834 0.30200
C 	C 	0.59114 0.13819 0.58855 0.34200
Ni	Ni	0.74591 0.27369 0.56043 1.12200
Ni	Ni	0.71897 0.45342 0.55894 1.12300
O 	O 	0.85430 0.38375 0.57773 -0.33700
O 	O 	0.79483 0.47885 0.58671 -0.36300
O 	O 	0.65658 0.15000 0.54435 -0.36300
O 	O 	0.61672 0.46559 0.57545 -0.37200
O 	O 	0.79647 0.33520 0.53059 -0.36900
O 	O 	0.84109 0.47861 0.54324 -0.36700
O 	O 	0.68152 0.20261 0.58826 -0.32200
O 	O 	0.65584 0.43901 0.53019 -0.39000
O 	O 	0.66607 0.32501 0.56393 -0.71800
H 	H 	0.66077 0.32575 0.57985 0.17400
C 	C 	0.83761 0.92052 0.80884 0.28700
C 	C 	0.81027 0.90277 0.74962 0.34300
Ni	Ni	0.94871 0.07088 0.77369 1.12600
Ni	Ni	0.94761 0.87800 0.77719 1.12400
O 	O 	0.83867 0.98271 0.79502 -0.35700
O 	O 	0.89256 0.88307 0.80619 -0.37700
O 	O 	0.87206 0.99066 0.74729 -0.34400
O 	O 	0.82047 0.85575 0.76540 -0.37800
C 	C 	0.72758 0.51303 0.07808 0.32900
C 	C 	0.74337 0.52158 0.14151 0.30600
C 	C 	0.79334 0.28436 0.13993 0.30300
C 	C 	0.80096 0.29252 0.07901 0.33600
Ni	Ni	0.58911 0.39265 0.11170 1.11800
Ni	Ni	0.63077 0.22214 0.11043 1.12300
Ni	Ni	0.80387 0.42811 0.10977 1.12900
O 	O 	0.63578 0.46544 0.08306 -0.36500
O 	O 	0.79417 0.52910 0.09296 -0.34300
O 	O 	0.70026 0.24041 0.13851 -0.38100
O 	O 	0.82784 0.38023 0.08225 -0.33900
O 	O 	0.68343 0.51648 0.12659 -0.36900
O 	O 	0.78854 0.47523 0.13909 -0.37600
O 	O 	0.73787 0.22476 0.09185 -0.36500
O 	O 	0.84647 0.34923 0.12592 -0.35000
O 	O 	0.67146 0.34743 0.10540 -0.72200
H 	H 	0.66819 0.34517 0.08943 0.16700
C 	C 	0.88234 0.82262 0.20218 0.29900
C 	C 	0.88362 0.82053 0.25781 0.35500
C 	C 	0.93477 0.08882 0.26974 0.36400
C 	C 	0.90937 0.12179 0.20673 0.28600
Ni	Ni	0.86484 0.95897 0.23317 1.11500
O 	O 	0.97584 0.87616 0.20148 -0.37900
O 	O 	0.82629 0.84501 0.21365 -0.35800
O 	O 	0.85161 0.03171 0.20879 -0.35700
O 	O 	0.95238 0.82329 0.24584 -0.35100
O 	O 	0.87277 0.89225 0.25949 -0.37800
O 	O 	0.97350 0.17014 0.22192 -0.36300
O 	O 	0.87010 0.05338 0.25427 -0.34300
H 	H 	0.99248 0.01611 0.21138 0.16500
C 	C 	0.58019 0.21916 0.37460 0.33700
C 	C 	0.93276 0.49038 0.33554 0.37100
C 	C 	0.70315 0.47881 0.37689 0.35100
C 	C 	0.81038 0.23230 0.32996 0.32100
C 	C 	0.69786 0.49802 0.30657 0.36300
Ni	Ni	0.77929 0.35650 0.36266 1.12100
Ni	Ni	0.75914 0.36273 0.31052 1.12500
Ni	Ni	0.59896 0.35904 0.34091 1.12900
O 	O 	0.66972 0.23759 0.37544 -0.34500
O 	O 	0.77157 0.48663 0.30849 -0.37700
O 	O 	0.87387 0.48392 0.35057 -0.36100
O 	O 	0.90078 0.43126 0.31932 -0.36200
O 	O 	0.73145 0.42239 0.38389 -0.32300
O 	O 	0.68242 0.47824 0.35647 -0.35700
O 	O 	0.63037 0.29620 0.29443 -0.37300
O 	O 	0.84520 0.28977 0.34695 -0.32700
O 	O 	0.76541 0.24683 0.31377 -0.37300
O 	O 	0.61416 0.43673 0.31434 -0.36400
O 	O 	0.70056 0.33404 0.33832 -0.71700
H 	H 	0.66558 0.26637 0.33770 0.17100
C 	C 	0.74429 0.89988 0.99812 0.35900
C 	C 	0.86724 0.77863 0.01219 0.34000
C 	C 	0.97410 0.15754 0.02310 0.37000
Ni	Ni	0.90490 0.91722 0.97382 1.11400
Ni	Ni	0.92108 0.96557 0.02497 1.11800
O 	O 	0.90281 0.07372 0.02214 -0.35000
O 	O 	0.80275 0.94871 0.98293 -0.36500
O 	O 	0.77924 0.88774 0.01636 -0.33100
O 	O 	0.84321 0.79261 0.99221 -0.34800
O 	O 	0.92305 0.84733 0.02510 -0.37300
C 	C 	0.71505 0.57146 0.27111 -0.08500
C 	C 	0.70834 0.57568 0.29374 -0.12500
C 	C 	0.74555 0.66185 0.30383 0.35500
C 	C 	0.80155 0.74214 0.29196 -0.07400
C 	C 	0.81942 0.73669 0.26989 -0.12600
C 	C 	0.77181 0.65149 0.25925 0.34300
F 	F 	0.78164 0.64601 0.23753 -0.45000
H 	H 	0.68383 0.50532 0.26303 0.09200
H 	H 	0.83419 0.80817 0.30011 0.11900
F 	F 	0.73572 0.66726 0.32557 -0.41700
C 	C 	0.97254 0.16852 0.30581 -0.06200
C 	C 	0.90608 0.10035 0.29183 -0.13200
C 	C 	0.80997 0.05098 0.29824 0.38000
C 	C 	0.77878 0.08280 0.31566 -0.09300
C 	C 	0.84266 0.16572 0.32595 -0.10100
C 	C 	0.94046 0.19848 0.32343 0.34600
H 	H 	0.70324 0.05062 0.31906 0.12200
F 	F 	0.74635 0.97541 0.28705 -0.45400
C 	C 	0.86085 0.63976 0.02755 -0.08000
C 	C 	0.81293 0.68780 0.02234 -0.12000
C 	C 	0.72919 0.66717 0.03372 0.34200
C 	C 	0.70003 0.60722 0.05128 -0.08600
C 	C 	0.75463 0.56846 0.05814 -0.11700
C 	C 	0.83293 0.58148 0.04566 0.34200
F 	F 	0.88309 0.53956 0.05128 -0.42800
H 	H 	0.92479 0.65401 0.01880 0.11000
H 	H 	0.63809 0.59585 0.06049 0.10500
F 	F 	0.68411 0.71539 0.02994 -0.44200
C 	C 	0.83103 0.25928 0.04150 -0.07600
C 	C 	0.85633 0.27179 0.06346 -0.10800
C 	C 	0.94082 0.27458 0.07005 0.34100
C 	C 	0.99184 0.25196 0.05533 -0.07000
C 	C 	0.95874 0.22670 0.03400 -0.12200
C 	C 	0.88351 0.23905 0.02669 0.35800
F 	F 	0.85466 0.22110 0.00569 -0.38400
H 	H 	0.76966 0.26330 0.03597 0.11700
F 	F 	0.97304 0.29852 0.09068 -0.43300
C 	C 	0.83858 0.25402 0.15620 -0.05800
C 	C 	0.84581 0.28407 0.17771 -0.01800
C 	C 	0.86917 0.24198 0.19442 0.04100
C 	C 	0.88939 0.17109 0.18946 -0.06100
C 	C 	0.88566 0.14359 0.16783 -0.01400
C 	C 	0.85921 0.18363 0.15126 0.03600
S 	S 	0.84755 0.14172 0.12460 0.04600
H 	H 	0.75543 0.07364 0.12117 0.04000
H 	H 	0.82855 0.33715 0.18162 0.05500
H 	H 	0.90115 0.08932 0.16393 0.05700
C 	C 	0.76963 0.58845 0.15975 -0.06700
C 	C 	0.85440 0.61526 0.17125 -0.01900
C 	C 	0.88669 0.68546 0.18673 0.05400
C 	C 	0.83859 0.73579 0.18950 -0.04800
C 	C 	0.75036 0.70487 0.17927 -0.01600
C 	C 	0.71319 0.62850 0.16534 0.04500
S 	S 	0.98204 0.70380 0.20378 -0.02400
S 	S 	0.59257 0.57703 0.15762 -0.02400
H 	H 	0.58528 0.61611 0.13873 0.04600
H 	H 	0.94730 0.64913 0.22178 0.07400
H 	H 	0.89508 0.58096 0.16832 0.05900
H 	H 	0.70990 0.73930 0.18233 0.05700
C 	C 	0.62650 0.74490 0.98503 -0.09500
C 	C 	0.64632 0.83321 0.99147 -0.10200
C 	C 	0.58907 0.86729 0.98319 0.34400
H 	H 	0.66659 0.71529 0.99171 0.13800
F 	F 	0.60096 0.94880 0.99042 -0.41300
F 	F 	0.91004 0.23510 0.95478 -0.39300
C 	C 	0.76138 0.87987 0.82517 -0.06400
C 	C 	0.78534 0.88038 0.84706 -0.02100
C 	C 	0.71397 0.83633 0.86271 0.03800
C 	C 	0.61740 0.79030 0.85636 -0.07300
C 	C 	0.59368 0.78892 0.83448 -0.01600
C 	C 	0.66457 0.83355 0.81890 0.03600
S 	S 	0.74642 0.84219 0.89020 -0.00600
S 	S 	0.63075 0.82892 0.79158 0.00300
H 	H 	0.61936 0.74961 0.78244 0.05500
H 	H 	0.74822 0.91687 0.89973 0.04700
H 	H 	0.85951 0.91574 0.85195 0.04800
C 	C 	0.66616 0.76361 0.73558 -0.09100
C 	C 	0.71928 0.85988 0.73735 -0.11300
C 	C 	0.67968 0.91273 0.72968 0.32500
C 	C 	0.59012 0.86954 0.71958 -0.08000
H 	H 	0.69500 0.72180 0.74161 0.11200
F 	F 	0.72730 0.00549 0.73205 -0.41300
C 	C 	0.62709 0.64354 0.39510 0.35000
C 	C 	0.68721 0.61344 0.38675 -0.08500
C 	C 	0.67309 0.52623 0.39227 -0.11700
C 	C 	0.60786 0.47562 0.40868 0.33800
H 	H 	0.73952 0.65441 0.37457 0.13800
F 	F 	0.63635 0.72429 0.38808 -0.41300
C 	C 	0.90054 0.52228 0.62650 -0.08700
C 	C 	0.87563 0.44199 0.61463 -0.11400
C 	C 	0.88943 0.37316 0.62408 0.35000
C 	C 	0.94052 0.39104 0.64354 -0.07400
H 	H 	0.88460 0.57345 0.62023 0.11100
F 	F 	0.85667 0.29065 0.61412 -0.42100
C 	C 	0.58676 0.04898 0.62120 0.37600
F 	F 	0.62191 0.12657 0.63339 -0.40300
C 	C 	0.58905 0.50738 0.49679 -0.01600
S 	S 	0.64208 0.62493 0.46268 -0.00500
H 	H 	0.69193 0.71231 0.47090 0.04900
H 	H 	0.66107 0.51909 0.49568 0.06100
C 	C 	0.59398 0.04717 0.49942 0.07100
S 	S 	0.71864 0.11622 0.49746 -0.00400
H 	H 	0.74095 0.19164 0.48492 0.05300
H 	H 	0.58383 0.97003 0.47064 0.04900
C 	C 	0.90262 0.45940 0.48992 0.03100
C 	C 	0.92290 0.46321 0.51226 -0.06200
S 	S 	0.78700 0.42750 0.48088 0.00300
H 	H 	0.73509 0.33419 0.47816 0.06000
