data_crystal

_cell_length_a 46.10724
_cell_length_b 46.79001
_cell_length_c 29.65951
_cell_angle_alpha 89.57785
_cell_angle_beta  90.00000
_cell_angle_gamma 90.00004

_symmetry_space_group_name_	'P 1'
_symmetry_space_group_name_H-M	'P 1'

loop_
_symmetry_equiv_pos_as_xyz
  x,y,z

loop_
_atom_site_label
_atom_site_type_symbol
_atom_site_fract_x
_atom_site_fract_y
_atom_site_fract_z
_atom_site_charge
C 	C 	0.48700 0.56561 0.85420 0.10200
N 	N 	0.47689 0.54037 0.86953 -0.17400
C 	C 	0.44925 0.53833 0.85527 0.10200
C 	C 	0.42827 0.51798 0.87552 -0.07600
C 	C 	0.43756 0.48859 0.88687 0.09000
C 	C 	0.39764 0.52630 0.88228 0.04800
C 	C 	0.39056 0.54823 0.91234 -0.06200
C 	C 	0.36149 0.55417 0.92209 -0.01200
C 	C 	0.33930 0.53809 0.90199 -0.01600
C 	C 	0.37547 0.51087 0.86112 -0.06000
N 	N 	0.46088 0.47610 0.86793 -0.12800
C 	C 	0.42866 0.47387 0.92506 -0.05900
C 	C 	0.46638 0.45298 0.89387 0.09000
C 	C 	0.49242 0.43497 0.88860 -0.07700
C 	C 	0.49048 0.40411 0.89904 0.04900
C 	C 	0.46591 0.35874 0.88925 -0.01100
C 	C 	0.50646 0.39240 0.93492 -0.06200
C 	C 	0.50179 0.36407 0.94850 -0.01200
C 	C 	0.48100 0.34730 0.92633 -0.01500
N 	N 	0.52876 0.47359 0.87751 -0.17300
C 	C 	0.55661 0.47462 0.86383 0.10300
C 	C 	0.56481 0.44866 0.84553 -0.06000
C 	C 	0.54079 0.43108 0.84830 -0.06000
C 	C 	0.57724 0.49673 0.87957 -0.07600
C 	C 	0.60825 0.48976 0.88570 0.05000
C 	C 	0.65847 0.49628 0.86347 -0.01100
C 	C 	0.66758 0.47982 0.90068 -0.01600
C 	C 	0.64673 0.46786 0.92983 -0.01100
C 	C 	0.61719 0.47280 0.92230 -0.06200
N 	N 	0.54485 0.53780 0.86220 -0.12700
C 	C 	0.55820 0.56761 0.91786 -0.05900
C 	C 	0.53950 0.56306 0.88215 0.09100
C 	C 	0.51270 0.57971 0.87409 -0.07500
C 	C 	0.51199 0.61054 0.88492 0.04900
C 	C 	0.53327 0.62894 0.86735 -0.06000
C 	C 	0.53375 0.65768 0.87977 -0.01000
C 	C 	0.51277 0.66836 0.90949 -0.01600
C 	C 	0.49105 0.65013 0.92620 -0.01100
C 	C 	0.49077 0.62128 0.91419 -0.06100
C 	C 	0.46574 0.57983 0.82976 -0.06000
C 	C 	0.44157 0.56237 0.83047 -0.06100
C 	C 	0.34645 0.51671 0.87093 -0.01000
C 	C 	0.44715 0.45092 0.92945 -0.05900
C 	C 	0.51908 0.44713 0.86815 0.10300
C 	C 	0.57625 0.54419 0.91951 -0.05900
C 	C 	0.56757 0.52660 0.88482 0.09100
C 	C 	0.62896 0.50129 0.85614 -0.05900
H 	H 	0.48517 0.52961 0.89775 0.09400
H 	H 	0.51995 0.48672 0.90237 0.09400
H 	H 	0.55044 0.67164 0.86631 0.04900
H 	H 	0.47479 0.65814 0.94925 0.04700
H 	H 	0.54958 0.62090 0.84442 0.05500
H 	H 	0.47431 0.60721 0.92806 0.05000
H 	H 	0.35627 0.57071 0.94613 0.04800
H 	H 	0.38076 0.49405 0.83759 0.05600
H 	H 	0.32953 0.50448 0.85464 0.05000
H 	H 	0.40756 0.56022 0.92889 0.05100
H 	H 	0.51363 0.35547 0.97708 0.04900
H 	H 	0.52187 0.40548 0.95307 0.05200
C 	C 	0.47065 0.38699 0.87568 -0.05900
H 	H 	0.45022 0.34585 0.87134 0.05000
H 	H 	0.67423 0.50525 0.84027 0.04900
H 	H 	0.62219 0.51429 0.82765 0.05500
H 	H 	0.60129 0.46386 0.94531 0.05100
H 	H 	0.65339 0.45522 0.95876 0.04900
H 	H 	0.46513 0.60269 0.82388 0.05500
H 	H 	0.41957 0.56975 0.82516 0.05400
H 	H 	0.41643 0.48312 0.95249 0.05400
H 	H 	0.45123 0.43945 0.96064 0.05400
H 	H 	0.58693 0.44111 0.84281 0.05500
H 	H 	0.54165 0.40796 0.84801 0.05500
H 	H 	0.55373 0.58140 0.94618 0.05400
H 	H 	0.58794 0.53714 0.94924 0.05300
H 	H 	0.45843 0.39580 0.84764 0.05600
Co	Co	0.41364 0.09847 0.00736 1.18200
Co	Co	0.42257 0.03239 0.00759 1.09500
O 	O 	0.40696 0.14126 0.01202 -0.34500
O 	O 	0.45196 0.13098 0.01465 -0.28600
O 	O 	0.37482 0.08144 0.99940 -0.38600
O 	O 	0.41039 0.04568 0.94659 -0.45100
C 	C 	0.36591 0.05973 0.02430 0.28100
C 	C 	0.43287 0.15107 0.01615 0.27100
O 	O 	0.38459 0.04098 0.04032 -0.41400
O 	O 	0.42953 0.09062 0.94835 -0.42300
C 	C 	0.42287 0.06738 0.92611 0.31700
O 	O 	0.41966 0.08794 0.06947 -0.41900
O 	O 	0.45012 0.05307 0.04696 -0.47200
C 	C 	0.44010 0.06949 0.07907 0.32700
S 	S 	0.45710 0.01940 0.56053 0.00700
C 	C 	0.47465 0.01770 0.61145 -0.01500
C 	C 	0.49477 0.99492 0.61277 -0.01400
S 	S 	0.49513 0.97630 0.56329 0.00600
C 	C 	0.47014 0.99201 0.53018 -0.00700
C 	C 	0.47083 0.99134 0.48062 -0.00700
S 	S 	0.49253 0.96962 0.45090 0.00900
C 	C 	0.49818 0.98653 0.40033 -0.01500
C 	C 	0.48367 0.01310 0.39808 -0.01400
S 	S 	0.46539 0.02006 0.44721 0.00600
C 	C 	0.52193 0.95230 0.27336 0.02000
C 	C 	0.49456 0.94615 0.29159 -0.03100
C 	C 	0.48739 0.95558 0.33474 -0.03700
C 	C 	0.50765 0.97102 0.36005 0.02400
C 	C 	0.53574 0.97525 0.34318 -0.04000
C 	C 	0.54278 0.96619 0.29974 -0.03400
H 	H 	0.47851 0.93498 0.27169 0.05500
H 	H 	0.46567 0.95214 0.34761 0.05000
H 	H 	0.55156 0.98700 0.36267 0.04700
H 	H 	0.56405 0.97083 0.28602 0.05000
C 	C 	0.46401 0.04325 0.26552 0.01700
C 	C 	0.49269 0.04376 0.28124 -0.03600
C 	C 	0.49881 0.03642 0.32600 -0.03800
C 	C 	0.47646 0.02734 0.35489 0.02300
C 	C 	0.44761 0.02819 0.33976 -0.03900
C 	C 	0.44138 0.03665 0.29548 -0.03200
H 	H 	0.51026 0.04939 0.25860 0.04800
H 	H 	0.52106 0.03658 0.33770 0.04700
H 	H 	0.43014 0.02128 0.36169 0.04900
H 	H 	0.41908 0.03702 0.28396 0.05200
C 	C 	0.44652 0.04957 0.73836 0.01900
C 	C 	0.43510 0.02388 0.72193 -0.03300
C 	C 	0.44306 0.01415 0.67928 -0.03700
C 	C 	0.46218 0.03024 0.65247 0.02400
C 	C 	0.47167 0.05705 0.66731 -0.03900
C 	C 	0.46351 0.06690 0.70992 -0.03100
H 	H 	0.42067 0.01112 0.74268 0.05300
H 	H 	0.43526 0.99363 0.66774 0.04900
H 	H 	0.48613 0.06978 0.64655 0.04900
H 	H 	0.47136 0.08738 0.72154 0.05300
C 	C 	0.52242 0.96528 0.74211 0.01900
C 	C 	0.53332 0.99105 0.72458 -0.03200
C 	C 	0.52529 0.00020 0.68141 -0.03600
C 	C 	0.50692 0.98328 0.65503 0.02400
C 	C 	0.49811 0.95634 0.67105 -0.03900
C 	C 	0.50622 0.94718 0.71423 -0.03100
H 	H 	0.54742 0.00430 0.74481 0.05500
H 	H 	0.53268 0.02077 0.66896 0.05000
H 	H 	0.48409 0.94300 0.65080 0.04800
H 	H 	0.49882 0.92663 0.72675 0.05100
Co	Co	0.56776 0.91581 0.00624 1.18200
Co	Co	0.50129 0.92815 0.00155 1.09500
O 	O 	0.61072 0.90629 0.00373 -0.34700
O 	O 	0.60323 0.95113 0.99565 -0.28500
O 	O 	0.54780 0.87924 0.01778 -0.39600
O 	O 	0.51300 0.91834 0.06427 -0.45400
C 	C 	0.52653 0.87042 0.99178 0.28500
C 	C 	0.62223 0.93097 0.99706 0.27300
O 	O 	0.50829 0.88886 0.97369 -0.41200
O 	O 	0.55968 0.93439 0.06295 -0.42200
C 	C 	0.53495 0.93086 0.08421 0.31600
O 	O 	0.55857 0.91959 0.94323 -0.41900
O 	O 	0.52486 0.95260 0.96075 -0.47500
C 	C 	0.54172 0.94065 0.93064 0.32600
Co	Co	0.07894 0.58130 0.97166 1.18300
Co	Co	0.01306 0.56680 0.98071 1.09700
O 	O 	0.12156 0.59243 0.97049 -0.34400
O 	O 	0.11611 0.54752 0.98004 -0.28500
O 	O 	0.05738 0.61704 0.96037 -0.39100
O 	O 	0.02248 0.57634 0.91689 -0.44800
C 	C 	0.03642 0.62539 0.98732 0.28600
C 	C 	0.13434 0.56832 0.97684 0.27100
O 	O 	0.01957 0.60650 0.00737 -0.41400
O 	O 	0.06972 0.56166 0.91632 -0.42500
C 	C 	0.04469 0.56498 0.89581 0.31600
O 	O 	0.07169 0.57760 0.03535 -0.42000
O 	O 	0.03849 0.54352 0.02040 -0.47100
C 	C 	0.05560 0.55626 0.04930 0.32600
S 	S 	0.97464 0.47300 0.41404 0.01000
C 	C 	0.99326 0.47413 0.36423 -0.01500
C 	C 	0.01625 0.49407 0.36548 -0.01400
S 	S 	0.01838 0.51034 0.41707 0.00600
C 	C 	0.99077 0.49694 0.44769 -0.00700
C 	C 	0.99111 0.49440 0.49702 -0.00700
S 	S 	0.01025 0.51556 0.53148 0.00700
C 	C 	0.01491 0.49618 0.58023 -0.01400
C 	C 	0.00242 0.46862 0.57697 -0.01400
S 	S 	0.98659 0.46357 0.52538 0.00800
C 	C 	0.02998 0.52915 0.71202 0.01800
C 	C 	0.00161 0.52726 0.69526 -0.03700
C 	C 	0.99676 0.51812 0.65116 -0.03800
C 	C 	0.02022 0.51016 0.62381 0.02300
C 	C 	0.04863 0.51299 0.64000 -0.03900
C 	C 	0.05352 0.52278 0.68380 -0.03200
H 	H 	0.98333 0.53257 0.71658 0.04800
H 	H 	0.97475 0.51632 0.63871 0.04600
H 	H 	0.06686 0.50700 0.61905 0.04900
H 	H 	0.07553 0.52479 0.69617 0.05300
C 	C 	0.97866 0.43590 0.70507 0.02000
C 	C 	0.00733 0.43285 0.69010 -0.03100
C 	C 	0.01481 0.44099 0.64620 -0.03600
C 	C 	0.99359 0.45199 0.61697 0.02400
C 	C 	0.96440 0.45186 0.63038 -0.04000
C 	C 	0.95698 0.44397 0.67437 -0.03500
H 	H 	0.02403 0.42557 0.71313 0.05800
H 	H 	0.03735 0.44052 0.63589 0.05000
H 	H 	0.94778 0.46005 0.60793 0.04800
H 	H 	0.93468 0.44590 0.68545 0.05000
C 	C 	0.96396 0.44966 0.23413 0.01900
C 	C 	0.95153 0.47335 0.25541 -0.03100
C 	C 	0.95994 0.48053 0.29911 -0.03700
C 	C 	0.98052 0.46382 0.32200 0.02400
C 	C 	0.99143 0.43903 0.30189 -0.03900
C 	C 	0.98345 0.43215 0.25784 -0.03300
H 	H 	0.93609 0.48671 0.23752 0.05500
H 	H 	0.95134 0.49968 0.31449 0.05000
H 	H 	0.00718 0.42591 0.31953 0.04700
H 	H 	0.99300 0.41371 0.24170 0.05100
C 	C 	0.04121 0.52691 0.23697 0.01700
C 	C 	0.04843 0.49880 0.24925 -0.03600
C 	C 	0.04305 0.48895 0.29304 -0.03800
C 	C 	0.02907 0.50667 0.32424 0.02300
C 	C 	0.02356 0.53535 0.31282 -0.03900
C 	C 	0.03022 0.54559 0.26961 -0.03100
H 	H 	0.05761 0.48441 0.22460 0.04800
H 	H 	0.04837 0.46710 0.30204 0.04700
H 	H 	0.01299 0.54934 0.33666 0.04900
H 	H 	0.02556 0.56764 0.26087 0.05200
Co	Co	0.92136 0.41002 0.96649 1.18300
Co	Co	0.93493 0.47560 0.96543 1.10300
O 	O 	0.91106 0.36793 0.96161 -0.34600
O 	O 	0.95641 0.37489 0.95267 -0.28900
O 	O 	0.88467 0.42986 0.98006 -0.39200
O 	O 	0.92584 0.46209 0.02747 -0.45200
C 	C 	0.87577 0.45187 0.95588 0.28100
C 	C 	0.93576 0.35634 0.95332 0.26800
O 	O 	0.89460 0.46986 0.93810 -0.40600
O 	O 	0.94103 0.41583 0.02330 -0.42200
C 	C 	0.93884 0.43987 0.04559 0.31800
O 	O 	0.92464 0.42085 0.90407 -0.42400
O 	O 	0.95879 0.45334 0.92261 -0.46200
C 	C 	0.94590 0.43776 0.89200 0.32600
C 	C 	0.97872 0.93433 0.07080 0.10600
N 	N 	0.97019 0.95343 0.03936 -0.17300
C 	C 	0.94100 0.95450 0.04129 0.09900
C 	C 	0.92368 0.97768 0.02017 -0.07300
C 	C 	0.93785 0.00481 0.00690 0.08900
C 	C 	0.89208 0.97400 0.01410 0.04600
C 	C 	0.88142 0.95136 0.98820 -0.05800
C 	C 	0.85154 0.94700 0.98428 -0.00900
C 	C 	0.83204 0.96529 0.00624 -0.01700
C 	C 	0.87264 0.99245 0.03572 -0.06000
N 	N 	0.96053 0.01577 0.02945 -0.12700
C 	C 	0.92746 0.02388 0.97490 -0.05800
C 	C 	0.96503 0.04179 0.01113 0.08800
C 	C 	0.98551 0.06273 0.03058 -0.07400
C 	C 	0.98106 0.09363 0.02268 0.04700
C 	C 	0.95324 0.13684 0.03531 -0.01000
C 	C 	0.99954 0.10873 0.99354 -0.05900
C 	C 	0.99481 0.13780 0.98504 -0.00900
C 	C 	0.97152 0.15200 0.00572 -0.01900
N 	N 	0.02081 0.02647 0.05887 -0.17200
C 	C 	0.04457 0.02691 0.08519 0.10300
C 	C 	0.04805 0.05363 0.10437 -0.06000
C 	C 	0.02515 0.07015 0.08910 -0.06000
C 	C 	0.06795 0.00539 0.08148 -0.07600
C 	C 	0.09859 0.01458 0.07938 0.04900
C 	C 	0.14735 0.01339 0.11007 -0.01100
C 	C 	0.15765 0.02858 0.07228 -0.01600
C 	C 	0.13804 0.03741 0.03867 -0.01100
C 	C 	0.10864 0.03046 0.04227 -0.06100
N 	N 	0.03390 0.96443 0.08967 -0.12700
C 	C 	0.06062 0.92996 0.05705 -0.05900
C 	C 	0.03409 0.93706 0.07568 0.09100
C 	C 	0.00728 0.92019 0.06942 -0.07700
C 	C 	0.00898 0.88918 0.06086 0.05100
C 	C 	0.01980 0.87060 0.09414 -0.06100
C 	C 	0.02158 0.84127 0.08588 -0.01100
C 	C 	0.01275 0.83033 0.04411 -0.01500
C 	C 	0.00183 0.84896 0.01089 -0.01300
C 	C 	0.99984 0.87824 0.01932 -0.06100
C 	C 	0.95486 0.92304 0.09286 -0.06100
C 	C 	0.93073 0.93621 0.07453 -0.05900
C 	C 	0.84276 0.98817 0.03172 -0.01100
C 	C 	0.94494 0.04771 0.97762 -0.05700
C 	C 	0.00892 0.05272 0.06123 0.10200
C 	C 	0.07770 0.95398 0.06036 -0.05900
C 	C 	0.06073 0.97453 0.08085 0.09100
C 	C 	0.11797 0.00639 0.11352 -0.06100
H 	H 	0.98280 0.96053 0.01222 0.09400
H 	H 	0.01800 0.01251 0.03187 0.09800
H 	H 	0.03017 0.82712 0.11169 0.04800
H 	H 	0.99477 0.84074 0.97865 0.05000
H 	H 	0.02681 0.87889 0.12636 0.05400
H 	H 	0.99139 0.89247 0.99349 0.05400
H 	H 	0.84356 0.92946 0.96412 0.04900
H 	H 	0.88070 0.00987 0.05606 0.05400
H 	H 	0.82797 0.00231 0.04911 0.04900
H 	H 	0.89629 0.93706 0.97130 0.05300
H 	H 	0.00899 0.14916 0.96195 0.04900
H 	H 	0.01741 0.09791 0.97722 0.05200
C 	C 	0.95801 0.10779 0.04372 -0.06100
H 	H 	0.93543 0.14757 0.05194 0.04900
H 	H 	0.16211 0.00687 0.13664 0.04900
H 	H 	0.11030 0.99435 0.14250 0.05500
H 	H 	0.09377 0.03691 0.01581 0.05100
H 	H 	0.14565 0.04905 0.00927 0.04900
H 	H 	0.95527 0.90961 0.12271 0.05600
H 	H 	0.90966 0.93748 0.09048 0.05500
H 	H 	0.90595 0.02352 0.96030 0.05400
H 	H 	0.93908 0.06883 0.96560 0.05500
H 	H 	0.06839 0.06213 0.11664 0.05500
H 	H 	0.02509 0.09328 0.08813 0.05500
H 	H 	0.06398 0.91314 0.03271 0.05300
H 	H 	0.09621 0.95846 0.03898 0.05300
H 	H 	0.94372 0.09625 0.06644 0.05400
C 	C 	0.95622 0.23862 0.97964 0.10000
N 	N 	0.93371 0.22046 0.98692 -0.06700
N 	N 	0.93858 0.19283 0.99501 -0.07900
C 	C 	0.96613 0.18255 0.99613 0.11700
N 	N 	0.98864 0.20070 0.98867 -0.07900
N 	N 	0.98375 0.22834 0.98054 -0.06700
C 	C 	0.94102 0.32564 0.95903 0.05400
N 	N 	0.96847 0.31519 0.95782 -0.05400
N 	N 	0.97332 0.28736 0.96408 -0.06600
C 	C 	0.95084 0.26920 0.97163 0.10400
N 	N 	0.92336 0.27964 0.97246 -0.06600
N 	N 	0.91853 0.30747 0.96624 -0.05300
C 	C 	0.95666 0.43750 0.84524 -0.10100
C 	C 	0.96144 0.46323 0.82113 0.09800
C 	C 	0.96939 0.46227 0.77572 -0.07500
C 	C 	0.97235 0.43603 0.75371 0.01500
C 	C 	0.96810 0.41037 0.77780 0.02400
C 	C 	0.96044 0.41121 0.82343 0.00600
H 	H 	0.97278 0.48203 0.75717 0.06600
H 	H 	0.95700 0.39139 0.84182 0.06000
I 	I 	0.95497 0.50399 0.85083 -0.19200
I 	I 	0.97214 0.37009 0.74586 -0.08400
C 	C 	0.95875 0.44489 0.18586 0.01400
C 	C 	0.93448 0.42921 0.17129 0.02300
C 	C 	0.92863 0.42696 0.12517 0.00500
C 	C 	0.94666 0.44045 0.09346 -0.10000
C 	C 	0.97135 0.45550 0.10800 0.08900
C 	C 	0.97742 0.45740 0.15405 -0.07400
H 	H 	0.90975 0.41517 0.11400 0.05500
H 	H 	0.99642 0.46902 0.16522 0.06800
I 	I 	0.90628 0.40888 0.21818 -0.08900
I 	I 	0.99988 0.47548 0.06118 -0.17500
C 	C 	0.02426 0.71242 0.00963 0.10100
N 	N 	0.01090 0.69278 0.03641 -0.07000
N 	N 	0.01446 0.66494 0.02891 -0.05900
C 	C 	0.03166 0.65599 0.99464 0.04500
N 	N 	0.04499 0.67563 0.96786 -0.05200
N 	N 	0.04123 0.70345 0.97512 -0.06600
C 	C 	0.01536 0.79957 0.03490 0.11200
N 	N 	0.02668 0.79052 0.99523 -0.07800
N 	N 	0.02943 0.76268 0.98711 -0.06700
C 	C 	0.02073 0.74309 0.01829 0.09700
N 	N 	0.00923 0.75214 0.05785 -0.06900
N 	N 	0.00668 0.77999 0.06611 -0.07900
C 	C 	0.03499 0.53840 0.75885 0.01100
C 	C 	0.04280 0.51852 0.79269 0.02600
C 	C 	0.04598 0.52753 0.83727 -0.00200
C 	C 	0.04166 0.55624 0.84856 -0.09900
C 	C 	0.03456 0.57628 0.81460 0.08800
C 	C 	0.03101 0.56721 0.77006 -0.07400
H 	H 	0.05164 0.51212 0.86327 0.04900
H 	H 	0.02530 0.58260 0.74406 0.06500
I 	I 	0.05008 0.47481 0.77775 -0.10300
I 	I 	0.03083 0.62058 0.82888 -0.08300
C 	C 	0.04481 0.53658 0.18976 0.01300
C 	C 	0.02048 0.54158 0.16196 0.02200
C 	C 	0.02442 0.54871 0.11651 0.00600
C 	C 	0.05237 0.55031 0.09794 -0.10200
C 	C 	0.07672 0.54529 0.12573 0.09200
C 	C 	0.07279 0.53886 0.17151 -0.07500
H 	H 	0.00565 0.55265 0.09537 0.02400
H 	H 	0.09152 0.53485 0.19271 0.06600
I 	I 	0.97745 0.53751 0.18687 -0.12100
I 	I 	0.11955 0.54489 0.09935 -0.07500
C 	C 	0.71134 0.94553 0.99918 0.10700
N 	N 	0.70079 0.91849 0.00224 -0.06800
N 	N 	0.67228 0.91384 0.00173 -0.05400
C 	C 	0.65353 0.93610 0.99818 0.05600
N 	N 	0.66405 0.96313 0.99496 -0.05300
N 	N 	0.69256 0.96779 0.99554 -0.06600
C 	C 	0.80055 0.96013 0.00336 0.11500
N 	N 	0.78175 0.98244 0.00114 -0.08000
N 	N 	0.75326 0.97778 0.99953 -0.06500
C 	C 	0.74275 0.95067 0.00018 0.09600
N 	N 	0.76155 0.92836 0.00224 -0.06700
N 	N 	0.79004 0.93302 0.00378 -0.07900
C 	C 	0.52713 0.95785 0.79009 0.01500
C 	C 	0.50379 0.95740 0.82087 0.02300
C 	C 	0.50891 0.95138 0.86638 0.00200
C 	C 	0.53722 0.94690 0.88226 -0.10400
C 	C 	0.56072 0.94838 0.85175 0.09300
C 	C 	0.55543 0.95312 0.80580 -0.07500
H 	H 	0.49078 0.95041 0.88959 0.02000
H 	H 	0.57348 0.95403 0.78242 0.06600
I 	I 	0.46074 0.96731 0.80062 -0.12400
I 	I 	0.60452 0.94684 0.87400 -0.07200
C 	C 	0.52758 0.94710 0.22527 0.01300
C 	C 	0.53509 0.91966 0.21004 0.02400
C 	C 	0.53791 0.91467 0.16378 0.00300
C 	C 	0.53329 0.93685 0.13257 -0.10000
C 	C 	0.52630 0.96441 0.14785 0.08700
C 	C 	0.52382 0.96948 0.19409 -0.07200
H 	H 	0.54349 0.89348 0.15207 0.05400
H 	H 	0.51824 0.99067 0.20580 0.06700
I 	I 	0.54259 0.88548 0.25610 -0.09200
I 	I 	0.51816 0.99849 0.10184 -0.15100
C 	C 	0.27757 0.04819 0.04818 0.10200
N 	N 	0.29722 0.02944 0.06538 -0.07100
N 	N 	0.32546 0.03327 0.05800 -0.06100
C 	C 	0.33486 0.05592 0.03318 0.04400
N 	N 	0.31524 0.07475 0.01613 -0.05200
N 	N 	0.28698 0.07094 0.02354 -0.06700
C 	C 	0.18901 0.03420 0.06712 0.11400
N 	N 	0.19840 0.05795 0.04490 -0.07900
N 	N 	0.22670 0.06253 0.03912 -0.06800
C 	C 	0.24640 0.04354 0.05545 0.09800
N 	N 	0.23702 0.01991 0.07793 -0.07000
N 	N 	0.20875 0.01529 0.08362 -0.08000
C 	C 	0.42913 0.06578 0.87770 -0.10000
C 	C 	0.40673 0.06789 0.84560 0.08900
C 	C 	0.41292 0.06401 0.79982 -0.07500
C 	C 	0.44128 0.05779 0.78574 0.01200
C 	C 	0.46385 0.05664 0.81794 0.02700
C 	C 	0.45763 0.06082 0.86355 -0.00400
H 	H 	0.39555 0.06517 0.77526 0.06500
H 	H 	0.47492 0.05946 0.88823 0.04200
I 	I 	0.36344 0.07713 0.86524 -0.08100
I 	I 	0.50733 0.04757 0.79949 -0.10400
C 	C 	0.45771 0.04984 0.21774 0.01300
C 	C 	0.44896 0.02818 0.18785 0.02200
C 	C 	0.44367 0.03484 0.14254 0.00600
C 	C 	0.44712 0.06290 0.12646 -0.10300
C 	C 	0.45642 0.08446 0.15613 0.09200
C 	C 	0.46144 0.07785 0.20158 -0.07500
H 	H 	0.43661 0.01819 0.11983 0.02200
H 	H 	0.46855 0.09447 0.22432 0.06600
I 	I 	0.44378 0.98515 0.20976 -0.12300
I 	I 	0.46502 0.12668 0.13298 -0.07500
C 	C 	0.45343 0.23582 0.98632 0.10400
N 	N 	0.42529 0.22741 0.98912 -0.06600
N 	N 	0.41872 0.20042 0.99952 -0.05200
C 	C 	0.44010 0.18107 0.00726 0.05300
N 	N 	0.46823 0.18954 0.00509 -0.05400
N 	N 	0.47481 0.21655 0.99477 -0.06600
C 	C 	0.47385 0.31848 0.94330 0.11500
N 	N 	0.49519 0.30034 0.95681 -0.07800
N 	N 	0.48866 0.27401 0.97104 -0.06700
C 	C 	0.46061 0.26517 0.97237 0.09900
N 	N 	0.43928 0.28343 0.95931 -0.06700
N 	N 	0.44581 0.30968 0.94494 -0.07800
C 	C 	0.25262 0.55120 0.93733 0.09900
N 	N 	0.26295 0.52432 0.93145 -0.06700
N 	N 	0.29061 0.52017 0.92028 -0.07800
C 	C 	0.30877 0.54277 0.91477 0.11400
N 	N 	0.29850 0.56966 0.92091 -0.07900
N 	N 	0.27079 0.57383 0.93195 -0.06800
C 	C 	0.16522 0.56393 0.96751 0.05500
N 	N 	0.18287 0.58664 0.95957 -0.05300
N 	N 	0.21086 0.58261 0.95035 -0.06700
C 	C 	0.22196 0.55575 0.94877 0.10400
N 	N 	0.20432 0.53306 0.95701 -0.06600
N 	N 	0.17636 0.53711 0.96635 -0.05300
C 	C 	0.75612 0.46827 0.92568 0.09800
N 	N 	0.73675 0.44777 0.93793 -0.06800
N 	N 	0.70853 0.45143 0.92998 -0.07900
C 	C 	0.69886 0.47573 0.90964 0.11400
N 	N 	0.71824 0.49627 0.89755 -0.08000
N 	N 	0.74645 0.49257 0.90538 -0.06900
C 	C 	0.84461 0.45636 0.94862 0.04500
N 	N 	0.83507 0.47975 0.92571 -0.05900
N 	N 	0.80680 0.48362 0.91857 -0.07000
C 	C 	0.78727 0.46414 0.93399 0.10200
N 	N 	0.79682 0.44075 0.95694 -0.06700
N 	N 	0.82509 0.43693 0.96419 -0.05300
C 	C 	0.51714 0.75361 0.94926 0.09800
N 	N 	0.54112 0.73680 0.95090 -0.06800
N 	N 	0.53968 0.70956 0.93835 -0.07900
C 	C 	0.51416 0.69828 0.92417 0.11400
N 	N 	0.49010 0.71500 0.92294 -0.07900
N 	N 	0.49160 0.74233 0.93513 -0.06900
C 	C 	0.52351 0.83986 0.98224 0.04300
N 	N 	0.49972 0.82996 0.96035 -0.06000
N 	N 	0.49744 0.80230 0.95047 -0.07100
C 	C 	0.51899 0.78383 0.96191 0.10200
N 	N 	0.54271 0.79374 0.98394 -0.06700
N 	N 	0.54489 0.82135 0.99411 -0.05300
