data_crystal

_cell_length_a 18.46229
_cell_length_b 18.94068
_cell_length_c 35.11565
_cell_angle_alpha 95.42287
_cell_angle_beta  95.42344
_cell_angle_gamma 126.41373

_symmetry_space_group_name_	'P 1'
_symmetry_space_group_name_H-M	'P 1'

loop_
_symmetry_equiv_pos_as_xyz
  x,y,z

loop_
_atom_site_label
_atom_site_type_symbol
_atom_site_fract_x
_atom_site_fract_y
_atom_site_fract_z
_atom_site_charge
C 	C 	0.87035 0.96737 0.95783 0.16300
N 	N 	0.82639 0.88046 0.96192 -0.11900
C 	C 	0.87363 0.84589 0.96371 0.15600
N 	N 	0.96431 0.89875 0.96259 -0.12500
C 	C 	0.00791 0.98501 0.95891 0.16800
N 	N 	0.96082 0.01891 0.95607 -0.12600
C 	C 	0.98169 0.05700 0.49293 0.15200
N 	N 	0.07311 0.10072 0.49400 -0.12300
C 	C 	0.10714 0.05353 0.49199 0.15500
N 	N 	0.04996 0.96373 0.48931 -0.11500
C 	C 	0.95931 0.92062 0.48811 0.15800
N 	N 	0.92521 0.96707 0.48989 -0.12100
Cu	Cu	0.72470 0.32002 0.95694 0.93500
Cu	Cu	0.71894 0.24909 0.03927 0.90200
Cu	Cu	0.58089 0.26964 0.00793 0.90400
Cu	Cu	0.55371 0.31508 0.93095 0.91300
C 	C 	0.66323 0.30376 0.87551 0.40000
O 	O 	0.77821 0.45184 0.95792 -0.31800
C 	C 	0.64647 0.30174 0.09309 0.39600
O 	O 	0.58243 0.24653 0.95361 -0.63400
O 	O 	0.71542 0.33189 0.01261 -0.63800
O 	O 	0.78409 0.25790 0.95843 -0.32200
O 	O 	0.68660 0.16377 0.99523 -0.39200
O 	O 	0.61845 0.33473 0.88598 -0.34400
O 	O 	0.44891 0.20133 0.99992 -0.34000
C 	C 	0.39810 0.20085 0.97058 0.30300
C 	C 	0.73600 0.48394 0.97046 0.30100
O 	O 	0.65222 0.42876 0.97644 -0.36700
O 	O 	0.43496 0.26221 0.94853 -0.34900
O 	O 	0.70906 0.29070 0.90146 -0.33000
C 	C 	0.74622 0.18365 0.97262 0.30100
O 	O 	0.57869 0.27584 0.06444 -0.34300
O 	O 	0.71844 0.30720 0.08630 -0.36300
H 	H 	0.54301 0.18243 0.94143 0.19700
H 	H 	0.75358 0.39385 0.02753 0.20900
Cu	Cu	0.66831 0.25102 0.51396 0.93100
Cu	Cu	0.69624 0.21282 0.42435 0.91200
Cu	Cu	0.68136 0.36915 0.45733 0.92000
Cu	Cu	0.66127 0.41255 0.53889 0.91600
C 	C 	0.68737 0.31530 0.59470 0.41000
O 	O 	0.53419 0.18575 0.51943 -0.32400
C 	C 	0.67367 0.31791 0.37835 0.38500
O 	O 	0.72699 0.38553 0.51129 -0.63400
O 	O 	0.63506 0.24317 0.45730 -0.62500
O 	O 	0.75138 0.21469 0.51467 -0.33100
O 	O 	0.69285 0.13233 0.45306 -0.37400
O 	O 	0.68800 0.38386 0.58923 -0.34300
O 	O 	0.73633 0.49329 0.45826 -0.33400
C 	C 	0.73752 0.54483 0.48674 0.30700
C 	C 	0.49145 0.22041 0.51155 0.30300
O 	O 	0.53594 0.29936 0.50222 -0.36900
O 	O 	0.68416 0.51079 0.51264 -0.35600
O 	O 	0.71098 0.28040 0.56909 -0.33600
C 	C 	0.75005 0.16321 0.48619 0.30300
O 	O 	0.64058 0.34560 0.40179 -0.33100
O 	O 	0.73146 0.30407 0.39316 -0.36700
H 	H 	0.79447 0.42947 0.51894 0.19100
H 	H 	0.56796 0.20130 0.44786 0.17900
C 	C 	0.77531 0.34650 0.70084 0.23200
C 	C 	0.69322 0.28649 0.71371 0.00100
C 	C 	0.61107 0.22821 0.68639 0.23100
C 	C 	0.61025 0.23375 0.64689 0.31500
C 	C 	0.69101 0.29879 0.63460 -0.20900
C 	C 	0.77406 0.35318 0.66148 0.32100
C 	C 	0.69133 0.29298 0.75583 -0.00200
F 	F 	0.53154 0.16881 0.69837 -0.33700
F 	F 	0.85306 0.41442 0.64962 -0.37000
C 	C 	0.70416 0.36764 0.77680 0.23000
C 	C 	0.69868 0.37269 0.81624 0.31500
C 	C 	0.67812 0.30206 0.83500 -0.20600
C 	C 	0.66749 0.22825 0.81430 0.31400
C 	C 	0.67432 0.22385 0.77485 0.23400
F 	F 	0.72074 0.43485 0.75872 -0.34000
F 	F 	0.64822 0.15984 0.83210 -0.37600
F 	F 	0.71361 0.44644 0.83634 -0.37600
F 	F 	0.66343 0.15211 0.75500 -0.33500
F 	F 	0.85562 0.40091 0.72678 -0.33600
F 	F 	0.53064 0.17721 0.62070 -0.37800
C 	C 	0.55482 0.25349 0.18639 0.23300
C 	C 	0.63331 0.32139 0.21383 -0.00000
C 	C 	0.71142 0.38977 0.20111 0.23100
C 	C 	0.71316 0.38710 0.16128 0.31500
C 	C 	0.63708 0.31551 0.13383 -0.20600
C 	C 	0.55663 0.25046 0.14652 0.31300
C 	C 	0.63685 0.31627 0.25559 -0.00100
F 	F 	0.78693 0.45688 0.22742 -0.33800
F 	F 	0.48206 0.18155 0.12036 -0.37500
C 	C 	0.64892 0.25629 0.26965 0.23200
C 	C 	0.65847 0.25525 0.30954 0.31000
C 	C 	0.65723 0.31514 0.33592 -0.20600
C 	C 	0.64241 0.37348 0.32159 0.31500
C 	C 	0.63240 0.37398 0.28162 0.23400
F 	F 	0.65260 0.19974 0.24463 -0.34300
F 	F 	0.63925 0.43067 0.34637 -0.36500
F 	F 	0.66820 0.19551 0.32254 -0.39400
F 	F 	0.61948 0.43135 0.26819 -0.33700
F 	F 	0.47804 0.18849 0.19842 -0.33900
F 	F 	0.78983 0.45261 0.14934 -0.36900
C 	C 	0.85021 0.76505 0.45249 -0.04800
C 	C 	0.89958 0.82502 0.48790 -0.00800
C 	C 	0.89195 0.79310 0.52298 0.08900
C 	C 	0.83721 0.70126 0.52225 -0.01000
C 	C 	0.78961 0.64079 0.48675 -0.07400
C 	C 	0.79397 0.67299 0.45171 0.12900
N 	N 	0.73874 0.61272 0.41562 -0.02200
H 	H 	0.85457 0.78995 0.42558 0.09600
H 	H 	0.83309 0.67687 0.54929 0.07600
N 	N 	0.93919 0.85398 0.55946 -0.02100
O 	O 	0.64989 0.56016 0.41158 -0.02700
O 	O 	0.77669 0.61718 0.38565 -0.01700
O 	O 	0.89300 0.85696 0.58447 -0.04800
O 	O 	0.02793 0.90194 0.56875 -0.05100
C 	C 	0.93400 0.14131 0.46428 -0.04500
C 	C 	0.94347 0.10643 0.49622 -0.00900
C 	C 	0.89716 0.10010 0.52703 0.08800
C 	C 	0.83506 0.12009 0.52372 -0.00500
C 	C 	0.81996 0.14796 0.49028 -0.07300
C 	C 	0.87309 0.16278 0.46126 0.11500
N 	N 	0.86660 0.20104 0.42908 -0.03100
H 	H 	0.97108 0.14831 0.44096 0.09100
H 	H 	0.79753 0.11252 0.54692 0.09000
N 	N 	0.91091 0.07052 0.56119 -0.01800
O 	O 	0.88964 0.28132 0.43516 -0.11500
O 	O 	0.84486 0.15859 0.39362 -0.06400
O 	O 	0.99353 0.10691 0.57932 -0.05400
O 	O 	0.84083 0.00889 0.57476 -0.05300
C 	C 	0.26767 0.17134 0.52629 -0.04600
C 	C 	0.20656 0.09964 0.49545 -0.00400
C 	C 	0.23905 0.06310 0.47191 0.08400
C 	C 	0.33107 0.09650 0.48044 -0.00500
C 	C 	0.39250 0.16936 0.51077 -0.06800
C 	C 	0.36022 0.20638 0.53408 0.12700
N 	N 	0.42200 0.28128 0.56511 -0.03100
H 	H 	0.24294 0.19853 0.54495 0.09800
H 	H 	0.35601 0.06958 0.46175 0.07200
N 	N 	0.17949 0.99419 0.43849 -0.01700
O 	O 	0.42500 0.35195 0.56737 -0.07100
O 	O 	0.47158 0.27697 0.59224 -0.04300
O 	O 	0.13589 0.00627 0.41184 -0.06300
O 	O 	0.17311 0.92162 0.43357 -0.05900
C 	C 	0.73788 0.59486 0.93679 -0.00900
C 	C 	0.77283 0.57723 0.96872 -0.06000
C 	C 	0.83356 0.64671 0.00076 0.11500
C 	C 	0.86094 0.73340 0.00000 -0.05100
C 	C 	0.82787 0.75169 0.96763 -0.00200
C 	C 	0.76529 0.68155 0.93601 0.09200
N 	N 	0.73098 0.69836 0.90261 -0.01800
H 	H 	0.68957 0.54124 0.91242 0.08800
H 	H 	0.90961 0.78705 0.02431 0.09500
N 	N 	0.86795 0.62980 0.03410 -0.02600
O 	O 	0.78592 0.74731 0.88002 -0.04400
O 	O 	0.64359 0.65866 0.89300 -0.05000
O 	O 	0.95579 0.67341 0.04503 -0.05400
O 	O 	0.81214 0.57649 0.05537 -0.06500
C 	C 	0.82316 0.04409 0.99743 -0.02000
C 	C 	0.82402 0.00960 0.96051 -0.01800
C 	C 	0.80112 0.03417 0.92728 0.09700
C 	C 	0.77983 0.09439 0.93156 -0.01500
C 	C 	0.78109 0.13040 0.96866 -0.05500
C 	C 	0.80430 0.10585 0.00182 0.09400
N 	N 	0.81273 0.14650 0.04015 -0.02800
H 	H 	0.84305 0.02744 0.02311 0.08300
H 	H 	0.76032 0.11139 0.90592 0.10300
N 	N 	0.79984 0.99848 0.88916 -0.01900
O 	O 	0.76781 0.09684 0.06489 -0.07800
O 	O 	0.87070 0.23277 0.05127 -0.11200
O 	O 	0.75405 0.91270 0.87816 -0.04500
O 	O 	0.84060 0.05133 0.86476 -0.04400
C 	C 	0.26055 0.13426 0.00131 -0.02900
C 	C 	0.29796 0.14301 0.96752 -0.05500
C 	C 	0.23934 0.10040 0.93073 0.11400
C 	C 	0.14456 0.05199 0.92815 -0.03700
C 	C 	0.10748 0.04370 0.96191 -0.02000
C 	C 	0.16571 0.08499 0.99868 0.10800
N 	N 	0.12860 0.07630 0.03346 -0.02500
H 	H 	0.30525 0.16730 0.02963 0.10100
H 	H 	0.09954 0.01862 0.89991 0.09400
N 	N 	0.27563 0.10374 0.89608 -0.02300
O 	O 	0.14622 0.04345 0.06055 -0.04900
O 	O 	0.08258 0.10687 0.03920 -0.06600
O 	O 	0.32307 0.07398 0.89265 -0.07900
O 	O 	0.25539 0.13019 0.86684 -0.05800
