data_crystal

_cell_length_a 28.67839
_cell_length_b 28.22566
_cell_length_c 19.20132
_cell_angle_alpha 90.00000
_cell_angle_beta  90.00000
_cell_angle_gamma 120.58405

_symmetry_space_group_name_	'P 1'
_symmetry_space_group_name_H-M	'P 1'

loop_
_symmetry_equiv_pos_as_xyz
  x,y,z

loop_
_atom_site_label
_atom_site_type_symbol
_atom_site_fract_x
_atom_site_fract_y
_atom_site_fract_z
_atom_site_charge
C 	C 	0.39497 0.60547 0.82716 0.30100
C 	C 	0.21282 0.60067 0.67149 0.31000
C 	C 	0.39353 0.60561 0.67241 0.29100
C 	C 	0.21076 0.60011 0.82654 0.28200
C 	C 	0.38960 0.78239 0.67108 0.29200
C 	C 	0.39000 0.78472 0.82665 0.28100
Ni	Ni	0.29361 0.58339 0.75046 1.10900
Ni	Ni	0.29305 0.70084 0.74888 1.11600
Ni	Ni	0.40861 0.70410 0.75023 1.11600
O 	O 	0.34159 0.57530 0.82541 -0.37500
O 	O 	0.41992 0.65978 0.82491 -0.37900
O 	O 	0.33640 0.75401 0.67263 -0.38300
O 	O 	0.23749 0.57236 0.67437 -0.37200
O 	O 	0.24107 0.65461 0.67204 -0.37900
O 	O 	0.41756 0.75870 0.82467 -0.38300
O 	O 	0.34044 0.57641 0.67339 -0.37000
O 	O 	0.41848 0.65964 0.67437 -0.37700
O 	O 	0.33638 0.75714 0.82309 -0.38000
O 	O 	0.23743 0.57327 0.82624 -0.37300
O 	O 	0.23694 0.65457 0.82255 -0.37600
O 	O 	0.41723 0.75693 0.67414 -0.38100
O 	O 	0.33097 0.66123 0.75895 -0.70300
H 	H 	0.33081 0.66147 0.81044 0.13900
C 	C 	0.77519 0.38200 0.15579 0.30400
C 	C 	0.61882 0.39004 0.35181 0.32700
C 	C 	0.76848 0.38006 0.35497 0.30800
C 	C 	0.62302 0.39617 0.15402 0.28700
C 	C 	0.61228 0.23145 0.35131 0.32900
C 	C 	0.60708 0.22914 0.15216 0.30600
Ni	Ni	0.71038 0.41263 0.25482 1.11300
Ni	Ni	0.59326 0.30050 0.25220 1.12100
Ni	Ni	0.70039 0.29301 0.25204 1.12200
O 	O 	0.77729 0.41735 0.20337 -0.37100
O 	O 	0.74534 0.32780 0.16519 -0.37700
O 	O 	0.57916 0.23239 0.30464 -0.38500
O 	O 	0.65402 0.42531 0.30718 -0.37500
O 	O 	0.60065 0.33716 0.34575 -0.38500
O 	O 	0.64116 0.22764 0.19822 -0.37900
O 	O 	0.73766 0.40184 0.35021 -0.37800
O 	O 	0.76817 0.34792 0.30511 -0.37700
O 	O 	0.58276 0.25789 0.16382 -0.38400
O 	O 	0.67622 0.42329 0.16515 -0.37300
O 	O 	0.58849 0.36209 0.20193 -0.37500
O 	O 	0.66497 0.26295 0.34455 -0.39100
O 	O 	0.66896 0.33709 0.23668 -0.72100
H 	H 	0.66926 0.33754 0.18540 0.15700
C 	C 	0.15488 0.57153 0.85334 -0.08000
C 	C 	0.13966 0.53274 0.90718 0.01600
C 	C 	0.08680 0.50621 0.93314 -0.06400
C 	C 	0.04853 0.51792 0.90529 0.02600
C 	C 	0.06342 0.55593 0.85057 -0.06400
C 	C 	0.11645 0.58281 0.82492 0.01200
C 	C 	0.99395 0.49288 0.93636 0.00300
C 	C 	0.97705 0.52634 0.96839 -0.04100
C 	C 	0.92869 0.50253 0.00619 -0.03000
C 	C 	0.89693 0.44518 0.01236 -0.00300
C 	C 	0.91239 0.41162 0.97770 -0.03400
C 	C 	0.96068 0.43537 0.93961 -0.03900
C 	C 	0.85219 0.42127 0.06046 0.04500
C 	C 	0.81617 0.40252 0.10284 -0.09700
H 	H 	0.16900 0.52387 0.92979 0.04100
H 	H 	0.07584 0.47727 0.97576 0.04900
H 	H 	0.03408 0.56500 0.82841 0.04700
H 	H 	0.12762 0.61226 0.78289 0.03000
H 	H 	0.00234 0.57074 0.96611 0.04200
H 	H 	0.91690 0.52873 0.03269 0.04100
H 	H 	0.88793 0.36723 0.98200 0.04200
H 	H 	0.97303 0.40916 0.91439 0.04000
C 	C 	0.81165 0.40087 0.40823 -0.08600
C 	C 	0.83727 0.37101 0.42430 0.02000
C 	C 	0.88363 0.39451 0.46613 -0.06500
C 	C 	0.90462 0.44789 0.49255 0.02800
C 	C 	0.87710 0.47632 0.48030 -0.06600
C 	C 	0.83079 0.45295 0.43846 0.01800
C 	C 	0.95809 0.47608 0.52664 0.00200
C 	C 	0.00209 0.52095 0.49374 -0.03800
C 	C 	0.05334 0.54650 0.52452 -0.03100
C 	C 	0.06099 0.52741 0.58837 -0.00600
C 	C 	0.01700 0.48302 0.62183 -0.03200
C 	C 	0.96565 0.45731 0.59097 -0.03900
C 	C 	0.11423 0.55273 0.61869 0.04700
C 	C 	0.15916 0.57441 0.64307 -0.10400
H 	H 	0.82220 0.33026 0.40284 0.03500
H 	H 	0.90432 0.37202 0.47593 0.04900
H 	H 	0.89264 0.51730 0.50129 0.04800
H 	H 	0.81114 0.47626 0.42737 0.03400
H 	H 	0.99667 0.53558 0.44395 0.04200
H 	H 	0.08718 0.58084 0.49845 0.04400
H 	H 	0.02260 0.46823 0.67141 0.04000
H 	H 	0.93189 0.42278 0.61683 0.04100
C 	C 	0.41694 0.83921 0.64444 -0.08600
C 	C 	0.46830 0.87829 0.66984 0.01300
C 	C 	0.49482 0.93205 0.64392 -0.06300
C 	C 	0.47041 0.94710 0.59191 0.02400
C 	C 	0.41863 0.90833 0.56744 -0.06400
C 	C 	0.39193 0.85469 0.59372 0.01700
C 	C 	0.50033 0.00228 0.55997 0.00500
C 	C 	0.54888 0.01878 0.52406 -0.03600
C 	C 	0.57421 0.06845 0.48737 -0.03100
C 	C 	0.55121 0.10194 0.48621 -0.00600
C 	C 	0.50384 0.08657 0.52414 -0.03000
C 	C 	0.47852 0.03695 0.56107 -0.04000
C 	C 	0.57324 0.14908 0.44083 0.05200
C 	C 	0.59130 0.18739 0.40098 -0.10500
H 	H 	0.48756 0.86705 0.70986 0.02900
H 	H 	0.53454 0.96185 0.66368 0.04600
H 	H 	0.39955 0.91947 0.52708 0.04800
H 	H 	0.35233 0.82494 0.57362 0.04100
H 	H 	0.56606 0.99235 0.52289 0.04000
H 	H 	0.61087 0.08011 0.45821 0.04200
H 	H 	0.48590 0.11233 0.52363 0.04200
H 	H 	0.44135 0.02485 0.58919 0.04100
C 	C 	0.41738 0.84157 0.85327 -0.08100
C 	C 	0.40319 0.87909 0.82744 0.01100
C 	C 	0.42903 0.93307 0.85270 -0.06300
C 	C 	0.46899 0.94986 0.90440 0.02300
C 	C 	0.48369 0.91257 0.92951 -0.06300
C 	C 	0.45815 0.85875 0.90396 0.01400
C 	C 	0.49322 0.00537 0.93523 0.00500
C 	C 	0.54960 0.04110 0.93380 -0.03900
C 	C 	0.57318 0.09046 0.97128 -0.03400
C 	C 	0.54057 0.10451 0.01008 -0.00200
C 	C 	0.48412 0.07023 0.00868 -0.03000
C 	C 	0.46049 0.02081 0.97143 -0.03800
C 	C 	0.56507 0.15034 0.05760 0.04600
C 	C 	0.58478 0.18724 0.09955 -0.09500
H 	H 	0.37245 0.86655 0.78747 0.03000
H 	H 	0.41773 0.96168 0.83254 0.04600
H 	H 	0.51424 0.92502 0.96973 0.04700
H 	H 	0.46940 0.83019 0.92445 0.04100
H 	H 	0.57518 0.02988 0.90535 0.04100
H 	H 	0.61686 0.11685 0.97191 0.04100
H 	H 	0.45864 0.08090 0.03842 0.04300
H 	H 	0.41694 0.99361 0.97276 0.04000
C 	C 	0.60149 0.41519 0.09736 -0.07800
C 	C 	0.54638 0.38430 0.07928 0.01500
C 	C 	0.52381 0.40665 0.03500 -0.06400
C 	C 	0.55622 0.45978 0.00777 0.03000
C 	C 	0.61205 0.48883 0.02123 -0.06200
C 	C 	0.63465 0.46669 0.06572 0.01400
C 	C 	0.53087 0.48736 0.97231 -0.00300
C 	C 	0.53292 0.53353 0.00297 -0.03100
C 	C 	0.50656 0.55810 0.97155 -0.03600
C 	C 	0.47792 0.53672 0.90934 -0.00300
C 	C 	0.47646 0.49113 0.87796 -0.03400
C 	C 	0.50283 0.46644 0.90941 -0.03700
C 	C 	0.44865 0.56056 0.87909 0.04500
C 	C 	0.42413 0.58094 0.85500 -0.10100
H 	H 	0.52063 0.34376 0.10130 0.03500
H 	H 	0.48077 0.38358 0.02409 0.04900
H 	H 	0.63757 0.52947 0.99934 0.04500
H 	H 	0.67747 0.49057 0.07768 0.03900
H 	H 	0.55424 0.54981 0.05169 0.04100
H 	H 	0.50787 0.59336 0.99602 0.04400
H 	H 	0.45455 0.47454 0.82966 0.03900
H 	H 	0.50115 0.43091 0.88525 0.04000
C 	C 	0.42329 0.57934 0.64651 -0.08400
C 	C 	0.46308 0.60498 0.59477 0.01800
C 	C 	0.48935 0.57862 0.56806 -0.06400
C 	C 	0.47630 0.52656 0.59306 0.02700
C 	C 	0.43762 0.50161 0.64611 -0.06400
C 	C 	0.41111 0.52781 0.67257 0.01300
C 	C 	0.50094 0.49698 0.56093 0.00300
C 	C 	0.46843 0.44775 0.52452 -0.03900
C 	C 	0.49229 0.42281 0.48766 -0.03000
C 	C 	0.54874 0.44688 0.48696 -0.00700
C 	C 	0.58114 0.49489 0.52546 -0.03000
C 	C 	0.55733 0.51984 0.56244 -0.04000
C 	C 	0.57358 0.42559 0.44128 0.05100
C 	C 	0.59427 0.40874 0.40136 -0.10600
H 	H 	0.47278 0.64468 0.57412 0.04100
H 	H 	0.51904 0.59815 0.52697 0.04900
H 	H 	0.42768 0.46168 0.66625 0.04600
H 	H 	0.38101 0.50800 0.71316 0.02900
H 	H 	0.42486 0.42973 0.52309 0.04300
H 	H 	0.46698 0.38567 0.45805 0.04100
H 	H 	0.62482 0.51367 0.52528 0.04100
H 	H 	0.58274 0.55757 0.59090 0.04100
