data_crystal

_cell_length_a 26.60782
_cell_length_b 25.56725
_cell_length_c 34.06352
_cell_angle_alpha 95.47822
_cell_angle_beta  95.47730
_cell_angle_gamma 125.84873

_symmetry_space_group_name_	'P 1'
_symmetry_space_group_name_H-M	'P 1'

loop_
_symmetry_equiv_pos_as_xyz
  x,y,z

loop_
_atom_site_label
_atom_site_type_symbol
_atom_site_fract_x
_atom_site_fract_y
_atom_site_fract_z
_atom_site_charge
C 	C 	0.98315 0.02995 0.00054 0.11400
N 	N 	0.04029 0.05875 0.98946 -0.05300
C 	C 	0.06761 0.02751 0.98891 0.12500
N 	N 	0.03567 0.96562 0.99661 -0.02900
C 	C 	0.97854 0.93658 0.00760 0.18100
N 	N 	0.95211 0.96864 0.00920 -0.04000
C 	C 	0.95107 0.02824 0.46666 0.11000
N 	N 	0.92492 0.96668 0.47379 -0.04300
C 	C 	0.95660 0.94032 0.47057 0.17200
N 	N 	0.01448 0.97574 0.46030 -0.01700
C 	C 	0.04139 0.03803 0.45443 0.14500
N 	N 	0.00933 0.06389 0.45709 -0.03800
Cu	Cu	0.62795 0.21090 0.99281 0.94200
Cu	Cu	0.67284 0.21100 0.90619 0.90400
Cu	Cu	0.67635 0.32272 0.94577 0.91200
Cu	Cu	0.64268 0.33984 0.02625 0.93800
C 	C 	0.65541 0.25906 0.07802 0.32100
O 	O 	0.53723 0.17670 0.99227 -0.28100
C 	C 	0.64745 0.28048 0.85786 0.30800
O 	O 	0.68635 0.31395 0.00053 -0.62900
O 	O 	0.62264 0.22458 0.93692 -0.63100
O 	O 	0.66087 0.15849 0.98672 -0.32000
O 	O 	0.73224 0.22351 0.94914 -0.34700
O 	O 	0.63261 0.29226 0.07149 -0.29300
O 	O 	0.73284 0.41771 0.95843 -0.32300
C 	C 	0.73212 0.45269 0.98922 0.29900
C 	C 	0.51748 0.21196 0.98477 0.29600
O 	O 	0.55812 0.27319 0.98087 -0.34800
O 	O 	0.68352 0.42584 0.00783 -0.28000
O 	O 	0.64654 0.21424 0.04925 -0.29300
C 	C 	0.71457 0.18284 0.97448 0.30000
O 	O 	0.67901 0.33004 0.88878 -0.33900
O 	O 	0.63664 0.22371 0.86041 -0.36600
H 	H 	0.73086 0.33720 0.01372 0.24400
H 	H 	0.57925 0.20353 0.92236 0.19600
Cu	Cu	0.70743 0.33016 0.45406 0.93700
Cu	Cu	0.68899 0.28021 0.53973 0.93100
Cu	Cu	0.60042 0.31350 0.49173 0.93800
Cu	Cu	0.61621 0.35963 0.41289 0.92600
C 	C 	0.68205 0.31975 0.36868 0.31200
O 	O 	0.76275 0.42942 0.45827 -0.31900
C 	C 	0.59215 0.28053 0.56826 0.30700
O 	O 	0.61296 0.29614 0.43897 -0.63100
O 	O 	0.68753 0.33895 0.50779 -0.62100
O 	O 	0.72912 0.26781 0.45996 -0.30600
O 	O 	0.76440 0.29740 0.52758 -0.32700
O 	O 	0.66907 0.36206 0.37451 -0.32900
O 	O 	0.51460 0.28261 0.47467 -0.29300
C 	C 	0.49263 0.28616 0.43941 0.30600
C 	C 	0.74236 0.46412 0.46846 0.29100
O 	O 	0.68145 0.43513 0.46482 -0.30900
O 	O 	0.53041 0.33183 0.41938 -0.30900
O 	O 	0.71072 0.31181 0.39873 -0.32200
C 	C 	0.76424 0.27254 0.49208 0.30100
O 	O 	0.58840 0.31821 0.54657 -0.31000
O 	O 	0.60665 0.24285 0.55290 -0.34100
H 	H 	0.58160 0.25008 0.42478 0.23900
H 	H 	0.71682 0.38438 0.52314 0.22300
C 	C 	0.66895 0.32725 0.75586 -0.06300
C 	C 	0.60641 0.29795 0.73769 0.03500
C 	C 	0.55819 0.26860 0.76056 0.08000
C 	C 	0.57255 0.26540 0.80055 0.00600
C 	C 	0.63472 0.29252 0.81815 -0.07300
C 	C 	0.68338 0.32516 0.79600 0.14400
C 	C 	0.59103 0.29220 0.69388 0.03300
N 	N 	0.49454 0.24124 0.74309 -0.01900
H 	H 	0.53518 0.24110 0.81776 0.08800
N 	N 	0.74722 0.35402 0.81374 -0.03000
H 	H 	0.70621 0.35024 0.73847 0.10800
C 	C 	0.61520 0.34884 0.67685 0.08400
C 	C 	0.61170 0.34397 0.63519 -0.00000
C 	C 	0.58351 0.28294 0.61034 -0.07000
C 	C 	0.55359 0.22551 0.62706 0.14200
C 	C 	0.55850 0.23059 0.66877 -0.06200
N 	N 	0.64468 0.41159 0.70187 -0.01900
H 	H 	0.63295 0.38803 0.62235 0.11200
N 	N 	0.51776 0.16198 0.60174 -0.02500
H 	H 	0.53813 0.18670 0.68172 0.10800
O 	O 	0.77578 0.33091 0.79987 -0.03200
O 	O 	0.77843 0.40678 0.84138 -0.01700
O 	O 	0.44868 0.18146 0.74557 -0.02400
O 	O 	0.48205 0.27723 0.72664 -0.01400
O 	O 	0.52798 0.11962 0.60904 -0.01700
O 	O 	0.47235 0.14508 0.57290 -0.00300
O 	O 	0.70017 0.46176 0.69806 -0.01400
O 	O 	0.61478 0.41931 0.72710 -0.01200
C 	C 	0.72511 0.31815 0.18828 -0.05700
C 	C 	0.68578 0.26025 0.20302 0.03800
C 	C 	0.64438 0.19988 0.17593 0.08500
C 	C 	0.63817 0.19912 0.13449 0.01300
C 	C 	0.67357 0.25795 0.11991 -0.05100
C 	C 	0.71973 0.31718 0.14686 0.14700
C 	C 	0.68136 0.26462 0.24601 0.03700
N 	N 	0.60715 0.13958 0.19045 -0.01900
H 	H 	0.60388 0.15314 0.11376 0.11700
N 	N 	0.76068 0.37658 0.13224 -0.03000
H 	H 	0.75842 0.36435 0.20903 0.11800
C 	C 	0.73368 0.28686 0.27590 0.08100
C 	C 	0.73257 0.30213 0.31632 0.01000
C 	C 	0.67934 0.29447 0.32720 -0.06700
C 	C 	0.62535 0.26750 0.29757 0.14200
C 	C 	0.62695 0.25356 0.25717 -0.05900
N 	N 	0.78837 0.29503 0.26524 -0.01900
H 	H 	0.77370 0.32144 0.33909 0.10200
N 	N 	0.56874 0.25418 0.30848 -0.03100
H 	H 	0.58621 0.23527 0.23431 0.11800
O 	O 	0.76852 0.43007 0.14746 0.01900
O 	O 	0.79328 0.37824 0.10559 0.01400
O 	O 	0.54668 0.09853 0.17682 -0.01100
O 	O 	0.63410 0.12443 0.21600 -0.02400
O 	O 	0.54180 0.27714 0.29098 -0.02100
O 	O 	0.54198 0.21564 0.33397 -0.03000
O 	O 	0.84411 0.35009 0.27863 -0.01400
O 	O 	0.78279 0.24633 0.24385 -0.01800
C 	C 	0.93059 0.79184 0.50645 0.06600
C 	C 	0.87533 0.74070 0.47977 0.08500
C 	C 	0.84276 0.75517 0.45299 -0.07000
C 	C 	0.87009 0.82115 0.45071 0.05300
C 	C 	0.92686 0.87226 0.47623 0.08700
C 	C 	0.95531 0.85769 0.50618 -0.10500
C 	C 	0.85008 0.67193 0.48169 0.10200
C 	C 	0.77771 0.70073 0.42842 0.78500
H 	H 	0.84759 0.83300 0.42887 0.14700
C 	C 	0.01268 0.91196 0.53727 0.81600
H 	H 	0.95424 0.78011 0.52749 0.12700
C 	C 	0.86635 0.63817 0.45708 -0.09500
C 	C 	0.83281 0.56993 0.45463 0.08300
C 	C 	0.78718 0.53661 0.47853 0.01200
C 	C 	0.77998 0.57315 0.50844 -0.05800
C 	C 	0.80912 0.63997 0.50826 0.04100
C 	C 	0.91952 0.67476 0.43383 0.79000
H 	H 	0.84019 0.54223 0.43301 0.10700
C 	C 	0.74093 0.54143 0.54020 0.78000
H 	H 	0.79916 0.66702 0.52835 0.13400
F 	F 	0.06604 0.94038 0.52021 -0.34200
F 	F 	0.02118 0.88772 0.56989 -0.34900
F 	F 	0.00564 0.95946 0.55146 -0.33900
F 	F 	0.73583 0.66911 0.45390 -0.39100
F 	F 	0.78005 0.65562 0.40453 -0.37700
F 	F 	0.75465 0.72488 0.40360 -0.36100
F 	F 	0.75960 0.58795 0.57389 -0.38700
F 	F 	0.74830 0.49582 0.55226 -0.44800
F 	F 	0.67793 0.51091 0.52504 -0.40300
F 	F 	0.93035 0.63368 0.41357 -0.38200
F 	F 	0.97470 0.72430 0.46002 -0.39100
F 	F 	0.90482 0.70199 0.40599 -0.36800
C 	C 	0.78505 0.13845 0.49503 0.03700
C 	C 	0.84388 0.16790 0.48358 0.10100
C 	C 	0.87612 0.23145 0.47384 -0.09500
C 	C 	0.84884 0.26470 0.47666 0.08300
C 	C 	0.79089 0.23595 0.48927 0.00900
C 	C 	0.75788 0.17172 0.49790 -0.05700
C 	C 	0.86980 0.13018 0.48002 0.08700
C 	C 	0.93739 0.26206 0.45805 0.79000
H 	H 	0.87242 0.31294 0.46884 0.10200
C 	C 	0.69440 0.13919 0.51099 0.77500
H 	H 	0.76056 0.08943 0.50172 0.13100
C 	C 	0.90354 0.12850 0.51409 -0.07600
C 	C 	0.92718 0.09191 0.50928 0.05100
C 	C 	0.91795 0.05775 0.47140 0.08000
C 	C 	0.88133 0.05645 0.43786 -0.07800
C 	C 	0.85781 0.09315 0.44255 0.05100
C 	C 	0.91160 0.16281 0.55575 0.78500
H 	H 	0.95377 0.09072 0.53488 0.13200
C 	C 	0.86881 0.01743 0.39693 0.74000
H 	H 	0.83055 0.09357 0.41700 0.12800
F 	F 	0.70239 0.17244 0.54828 -0.44100
F 	F 	0.66692 0.07430 0.51373 -0.38900
F 	F 	0.65322 0.14014 0.48357 -0.43300
F 	F 	0.92510 0.22824 0.41996 -0.39400
F 	F 	0.97987 0.25958 0.48295 -0.36600
F 	F 	0.96574 0.32730 0.45588 -0.37900
F 	F 	0.84407 0.95327 0.39990 -0.33700
F 	F 	0.92467 0.04553 0.38272 -0.38600
F 	F 	0.82619 0.01601 0.36925 -0.38100
F 	F 	0.95287 0.16285 0.58380 -0.37300
F 	F 	0.85382 0.13076 0.56776 -0.39900
F 	F 	0.93535 0.22750 0.55562 -0.37100
C 	C 	0.21877 0.16161 0.46731 0.05400
C 	C 	0.22804 0.15089 0.42839 0.09000
C 	C 	0.17544 0.10451 0.39748 -0.07300
C 	C 	0.11477 0.06711 0.40698 0.05500
C 	C 	0.10563 0.07783 0.44590 0.08600
C 	C 	0.15787 0.12591 0.47641 -0.07300
C 	C 	0.29344 0.18370 0.42157 0.10400
C 	C 	0.18401 0.09117 0.35511 0.78600
H 	H 	0.07443 0.02922 0.38413 0.13200
C 	C 	0.14868 0.13955 0.51853 0.78600
H 	H 	0.25945 0.19703 0.49064 0.13200
C 	C 	0.33318 0.25183 0.42075 -0.09400
C 	C 	0.39864 0.28456 0.42501 0.08500
C 	C 	0.42399 0.24965 0.42724 0.01500
C 	C 	0.38315 0.18034 0.42202 -0.05800
C 	C 	0.31857 0.14845 0.42150 0.03900
C 	C 	0.30713 0.29107 0.41928 0.79100
H 	H 	0.43019 0.33761 0.42845 0.11800
C 	C 	0.40854 0.14051 0.41909 0.77800
H 	H 	0.28804 0.09650 0.42249 0.13500
F 	F 	0.11493 0.16497 0.51750 -0.36400
F 	F 	0.20569 0.18432 0.54466 -0.36800
F 	F 	0.11601 0.08209 0.53362 -0.37200
F 	F 	0.20334 0.05137 0.35376 -0.38600
F 	F 	0.22849 0.14906 0.34315 -0.35800
F 	F 	0.12809 0.05981 0.32782 -0.35800
F 	F 	0.43473 0.14337 0.45703 -0.41600
F 	F 	0.45401 0.16479 0.39524 -0.42700
F 	F 	0.36101 0.07534 0.40215 -0.37500
F 	F 	0.34745 0.34868 0.40552 -0.36100
F 	F 	0.30033 0.30690 0.45737 -0.38000
F 	F 	0.24920 0.25566 0.39369 -0.35400
C 	C 	0.94436 0.77883 0.03223 0.07000
C 	C 	0.88038 0.73394 0.01450 0.08200
C 	C 	0.84556 0.75729 0.00259 -0.06300
C 	C 	0.87835 0.82419 0.00058 0.07000
C 	C 	0.94358 0.86881 0.01560 0.08800
C 	C 	0.97512 0.84668 0.03575 -0.09900
C 	C 	0.85028 0.66269 0.00879 0.11900
C 	C 	0.77386 0.71168 0.99334 0.77600
H 	H 	0.85352 0.84141 0.98673 0.13100
C 	C 	0.04082 0.89443 0.06115 0.81200
H 	H 	0.97011 0.76087 0.04335 0.12500
C 	C 	0.84093 0.62674 0.97108 -0.10700
C 	C 	0.80143 0.55770 0.96489 0.09500
C 	C 	0.77910 0.52514 0.99718 0.00900
C 	C 	0.80010 0.56258 0.03658 -0.04200
C 	C 	0.83141 0.63068 0.04150 0.03600
C 	C 	0.87465 0.66172 0.93813 0.79400
H 	H 	0.78751 0.52930 0.93499 0.10900
C 	C 	0.78990 0.53081 0.07335 0.77400
H 	H 	0.84137 0.65893 0.07080 0.14000
F 	F 	0.08547 0.91122 0.03726 -0.35600
F 	F 	0.04986 0.86615 0.09108 -0.34200
F 	F 	0.04978 0.95066 0.07961 -0.32800
F 	F 	0.75118 0.67789 0.02437 -0.37800
F 	F 	0.75260 0.66707 0.95819 -0.36900
F 	F 	0.74911 0.74613 0.98898 -0.35900
F 	F 	0.83463 0.57595 0.10664 -0.37900
F 	F 	0.79513 0.48001 0.06752 -0.43200
F 	F 	0.73072 0.50689 0.08129 -0.40100
F 	F 	0.86726 0.61823 0.90639 -0.38500
F 	F 	0.93859 0.70752 0.95313 -0.39600
F 	F 	0.85101 0.69336 0.92359 -0.37400
C 	C 	0.85857 0.19204 0.01096 0.06100
C 	C 	0.83507 0.12642 0.99888 0.06000
C 	C 	0.76930 0.07741 0.98573 -0.06100
C 	C 	0.72976 0.09666 0.97920 0.05800
C 	C 	0.75431 0.16305 0.98823 0.00900
C 	C 	0.81810 0.21045 0.00744 -0.05900
C 	C 	0.87976 0.10953 0.00040 0.11300
C 	C 	0.74126 0.00494 0.97956 0.63600
H 	H 	0.68023 0.06037 0.96605 0.09600
C 	C 	0.84371 0.28093 0.02306 0.78600
H 	H 	0.90862 0.22886 0.02248 0.13100
C 	C 	0.90642 0.10805 0.96661 -0.09800
C 	C 	0.94172 0.08324 0.96755 0.05100
C 	C 	0.95426 0.06461 0.00240 0.08100
C 	C 	0.93564 0.07575 0.03798 -0.06400
C 	C 	0.89612 0.09541 0.03608 0.03600
C 	C 	0.89863 0.13436 0.93016 0.79000
H 	H 	0.95830 0.07695 0.94093 0.11300
C 	C 	0.95577 0.06467 0.07766 0.71300
H 	H 	0.87723 0.09887 0.06221 0.12900
F 	F 	0.85750 0.31487 0.99166 -0.40400
F 	F 	0.89823 0.31231 0.05170 -0.38500
F 	F 	0.80000 0.28291 0.04077 -0.43400
F 	F 	0.75606 0.99035 0.01492 -0.31500
F 	F 	0.76518 0.98997 0.94984 -0.30300
F 	F 	0.67615 0.96518 0.96838 -0.31100
F 	F 	0.95218 0.09923 0.10972 -0.37000
F 	F 	0.01754 0.08572 0.08202 -0.32300
F 	F 	0.91654 0.99856 0.07926 -0.31500
F 	F 	0.93015 0.13081 0.90116 -0.38700
F 	F 	0.92284 0.19950 0.94160 -0.39800
F 	F 	0.83547 0.09853 0.91305 -0.39500
C 	C 	0.34631 0.11300 0.99875 0.00300
C 	C 	0.32132 0.13271 0.97086 0.11700
C 	C 	0.36053 0.17805 0.94717 -0.10600
C 	C 	0.42366 0.20051 0.95091 0.08700
C 	C 	0.44938 0.18261 0.97988 -0.01100
C 	C 	0.41096 0.14097 0.00563 -0.03000
C 	C 	0.25570 0.11059 0.96990 0.07200
C 	C 	0.33714 0.20719 0.92080 0.79300
H 	H 	0.45356 0.23353 0.93203 0.09200
C 	C 	0.43831 0.12694 0.04080 0.77100
H 	H 	0.31559 0.07780 0.01640 0.14600
C 	C 	0.20368 0.04912 0.94698 -0.02800
C 	C 	0.14216 0.02570 0.95152 -0.04700
C 	C 	0.13195 0.06034 0.98007 0.10700
C 	C 	0.18429 0.12158 0.00336 -0.06800
C 	C 	0.24532 0.14742 0.99633 0.04600
C 	C 	0.21366 0.00513 0.92118 0.67900
H 	H 	0.10200 0.97861 0.93428 0.20200
C 	C 	0.17565 0.15907 0.03606 0.78500
H 	H 	0.28554 0.19493 0.01304 0.14400
F 	F 	0.44918 0.08245 0.02684 -0.39600
F 	F 	0.39731 0.10041 0.06750 -0.38700
F 	F 	0.49413 0.18417 0.06191 -0.42200
F 	F 	0.33105 0.24920 0.94484 -0.39000
F 	F 	0.27927 0.15827 0.89683 -0.37100
F 	F 	0.37862 0.24239 0.89578 -0.38800
F 	F 	0.23286 0.21083 0.05964 -0.36200
F 	F 	0.13890 0.11805 0.06113 -0.35300
F 	F 	0.14708 0.18445 0.01876 -0.36300
F 	F 	0.15837 0.95417 0.89553 -0.30600
F 	F 	0.23408 0.97851 0.94570 -0.31700
F 	F 	0.25814 0.04030 0.89784 -0.37200
