data_crystal

_cell_length_a 26.26424
_cell_length_b 26.46183
_cell_length_c 26.27897
_cell_angle_alpha 95.49568
_cell_angle_beta  95.49482
_cell_angle_gamma 125.83712

_symmetry_space_group_name_	'P 1'
_symmetry_space_group_name_H-M	'P 1'

loop_
_symmetry_equiv_pos_as_xyz
  x,y,z

loop_
_atom_site_label
_atom_site_type_symbol
_atom_site_fract_x
_atom_site_fract_y
_atom_site_fract_z
_atom_site_charge
C 	C 	0.96433 0.02914 0.97580 0.08900
C 	C 	0.93071 0.96461 0.97812 -0.08900
C 	C 	0.96257 0.93685 0.97971 0.08900
C 	C 	0.02828 0.97377 0.97951 -0.09100
C 	C 	0.06210 0.03828 0.97679 0.08700
C 	C 	0.02973 0.06564 0.97396 -0.08200
H 	H 	0.88000 0.93621 0.97904 0.08100
H 	H 	0.05303 0.95235 0.98140 0.08300
H 	H 	0.05549 0.11528 0.97115 0.09200
C 	C 	0.93863 0.00066 0.45578 0.08500
C 	C 	0.00363 0.03464 0.45311 -0.08400
C 	C 	0.03288 0.00423 0.45332 0.08000
C 	C 	0.99715 0.93975 0.45627 -0.07100
C 	C 	0.93258 0.90599 0.46063 0.08100
C 	C 	0.90306 0.93626 0.45947 -0.08000
H 	H 	0.03134 0.08458 0.45088 0.08100
H 	H 	0.01973 0.91613 0.45594 0.08400
H 	H 	0.85287 0.91002 0.46186 0.08400
Cu	Cu	0.63767 0.24114 0.00204 0.93500
Cu	Cu	0.67182 0.23873 0.88548 0.88400
Cu	Cu	0.67804 0.34664 0.94006 0.90200
Cu	Cu	0.66076 0.36842 0.04932 0.90800
C 	C 	0.67071 0.28608 0.11272 0.30700
O 	O 	0.54942 0.21456 0.00908 -0.33200
C 	C 	0.64593 0.30711 0.82459 0.30200
O 	O 	0.69899 0.34049 0.00999 -0.63700
O 	O 	0.62476 0.25211 0.92981 -0.63800
O 	O 	0.66543 0.18606 0.98931 -0.33900
O 	O 	0.73305 0.24727 0.93729 -0.42600
O 	O 	0.64795 0.31853 0.10541 -0.35800
O 	O 	0.73398 0.43819 0.95449 -0.36900
C 	C 	0.72998 0.47435 0.98955 0.31600
C 	C 	0.53021 0.24910 0.99823 0.30100
O 	O 	0.57203 0.30821 0.99311 -0.37600
O 	O 	0.70752 0.45547 0.03239 -0.35900
O 	O 	0.66404 0.24571 0.07402 -0.33600
C 	C 	0.71505 0.20488 0.96720 0.31100
O 	O 	0.67016 0.35294 0.86572 -0.36500
O 	O 	0.63156 0.25117 0.82913 -0.39000
H 	H 	0.74521 0.36266 0.02276 0.18500
H 	H 	0.57969 0.23098 0.91344 0.19100
Cu	Cu	0.73666 0.33604 0.43899 0.93300
Cu	Cu	0.73429 0.29563 0.55341 0.88400
Cu	Cu	0.62936 0.29567 0.49985 0.90500
Cu	Cu	0.61171 0.31970 0.39276 0.90700
C 	C 	0.69250 0.30752 0.32864 0.30500
O 	O 	0.76576 0.42509 0.43471 -0.34800
C 	C 	0.66780 0.32434 0.61521 0.30500
O 	O 	0.63638 0.27747 0.42970 -0.63800
O 	O 	0.72452 0.34630 0.51129 -0.63800
O 	O 	0.78954 0.30524 0.45018 -0.34000
O 	O 	0.72501 0.23604 0.49977 -0.42500
O 	O 	0.66250 0.33285 0.33698 -0.36200
O 	O 	0.53710 0.24179 0.48434 -0.36700
C 	C 	0.50155 0.24637 0.44881 0.31900
C 	C 	0.73378 0.44593 0.45002 0.29900
O 	O 	0.67288 0.40524 0.45189 -0.36000
O 	O 	0.52362 0.27467 0.40888 -0.35800
O 	O 	0.73275 0.31243 0.36662 -0.34000
C 	C 	0.76851 0.25440 0.47057 0.31100
O 	O 	0.62180 0.30043 0.57398 -0.36200
O 	O 	0.72282 0.33493 0.61118 -0.38900
H 	H 	0.61275 0.23174 0.41533 0.18600
H 	H 	0.74688 0.39068 0.52926 0.19600
C 	C 	0.59661 0.27990 0.67978 -0.02600
C 	C 	0.65389 0.33031 0.66759 -0.07000
C 	C 	0.70177 0.38091 0.70772 0.10400
C 	C 	0.69583 0.37596 0.75980 -0.02700
C 	C 	0.64226 0.32130 0.77206 -0.07100
C 	C 	0.59035 0.27535 0.73187 0.10400
N 	N 	0.53168 0.22356 0.74385 -0.02000
H 	H 	0.55817 0.24254 0.64893 0.07900
H 	H 	0.73444 0.41312 0.79067 0.07600
N 	N 	0.75692 0.43683 0.69572 -0.02100
O 	O 	0.50426 0.23435 0.77743 -0.07800
O 	O 	0.50425 0.16590 0.71956 -0.08300
O 	O 	0.75008 0.46639 0.66207 -0.07100
O 	O 	0.81381 0.45985 0.72018 -0.08600
C 	C 	0.63660 0.23148 0.18744 -0.01700
C 	C 	0.68539 0.28059 0.16627 -0.06200
C 	C 	0.74282 0.33122 0.19933 0.09900
C 	C 	0.74766 0.33612 0.25346 -0.01600
C 	C 	0.69556 0.29109 0.27465 -0.06600
C 	C 	0.64128 0.23656 0.24155 0.10200
N 	N 	0.58962 0.18760 0.26277 -0.02500
H 	H 	0.59332 0.19124 0.16194 0.08900
H 	H 	0.79048 0.37695 0.27896 0.08000
N 	N 	0.79523 0.37917 0.17807 -0.02500
O 	O 	0.53097 0.16500 0.24401 -0.08400
O 	O 	0.60101 0.16387 0.29943 -0.09500
O 	O 	0.82442 0.43889 0.19717 -0.08700
O 	O 	0.81530 0.36312 0.14093 -0.09100
C 	C 	0.89564 0.83849 0.46537 -0.01900
C 	C 	0.91297 0.82023 0.50849 0.11300
C 	C 	0.88456 0.75600 0.50824 -0.06200
C 	C 	0.83723 0.70951 0.46619 0.01300
C 	C 	0.81547 0.72740 0.42559 0.10600
C 	C 	0.84556 0.79175 0.42483 -0.04900
H 	H 	0.89980 0.74225 0.54048 0.08800
C 	C 	0.81303 0.64275 0.46370 0.03000
H 	H 	0.83078 0.80546 0.39228 0.08100
C 	C 	0.77122 0.60655 0.49636 -0.08100
C 	C 	0.74779 0.54319 0.49447 0.14800
C 	C 	0.76384 0.51462 0.45762 -0.09000
C 	C 	0.80744 0.55171 0.42625 -0.01000
C 	C 	0.83303 0.61573 0.42993 0.08800
H 	H 	0.75771 0.62796 0.52384 0.09300
H 	H 	0.82110 0.53063 0.39860 0.07900
Br	Br	0.74479 0.66463 0.37099 -0.18300
Br	Br	0.97356 0.88206 0.56874 -0.18600
Br	Br	0.69936 0.49896 0.54580 -0.19600
Br	Br	0.89634 0.66587 0.38934 -0.17700
C 	C 	0.90776 0.03257 0.45407 -0.02300
C 	C 	0.89450 0.05156 0.49976 0.11100
C 	C 	0.86943 0.08579 0.49805 -0.06300
C 	C 	0.85826 0.10215 0.45126 0.01200
C 	C 	0.87133 0.08304 0.40555 0.10400
C 	C 	0.89548 0.04795 0.40707 -0.05000
H 	H 	0.85960 0.10064 0.53331 0.08300
C 	C 	0.83547 0.14157 0.45104 0.03100
H 	H 	0.90588 0.03364 0.37189 0.08400
C 	C 	0.87956 0.20762 0.46658 -0.08300
C 	C 	0.85849 0.24538 0.47155 0.14800
C 	C 	0.79251 0.21697 0.45987 -0.09800
C 	C 	0.74862 0.15106 0.44263 -0.00600
C 	C 	0.76972 0.11328 0.43858 0.08400
H 	H 	0.93020 0.22946 0.47626 0.09100
H 	H 	0.69789 0.12898 0.43348 0.07100
Br	Br	0.85771 0.10552 0.34100 -0.17100
Br	Br	0.91287 0.03354 0.56524 -0.19100
Br	Br	0.92028 0.33482 0.49810 -0.21000
Br	Br	0.70793 0.02297 0.41731 -0.18000
C 	C 	0.43306 0.21170 0.44981 -0.09100
C 	C 	0.40541 0.24391 0.45338 0.15000
C 	C 	0.33989 0.20985 0.45341 -0.08000
C 	C 	0.30172 0.14393 0.45049 0.03100
C 	C 	0.32938 0.11177 0.44708 0.08600
C 	C 	0.39484 0.14576 0.44693 -0.00500
H 	H 	0.31874 0.23473 0.45632 0.09200
C 	C 	0.23297 0.10900 0.45149 0.01200
H 	H 	0.41594 0.12082 0.44418 0.07000
C 	C 	0.18905 0.08415 0.40459 -0.06100
C 	C 	0.12355 0.04985 0.40477 0.11200
C 	C 	0.10164 0.04051 0.45229 -0.02100
C 	C 	0.14559 0.06572 0.49921 -0.04900
C 	C 	0.21107 0.09999 0.49903 0.10400
H 	H 	0.20582 0.09110 0.36796 0.08800
H 	H 	0.12881 0.05860 0.53583 0.08700
Br	Br	0.27850 0.02149 0.44279 -0.17800
Br	Br	0.45678 0.33461 0.46068 -0.19200
Br	Br	0.06466 0.01553 0.33978 -0.19200
Br	Br	0.26988 0.13381 0.56402 -0.17400
C 	C 	0.76257 0.54140 0.98600 -0.09100
C 	C 	0.72926 0.56804 0.98595 0.15000
C 	C 	0.76176 0.63261 0.98473 -0.08100
C 	C 	0.82716 0.67080 0.98299 0.03100
C 	C 	0.86031 0.64405 0.98248 0.08500
C 	C 	0.82790 0.57955 0.98382 -0.00400
H 	H 	0.73607 0.65303 0.98474 0.09200
C 	C 	0.86063 0.73878 0.98192 0.01200
H 	H 	0.85369 0.55923 0.98384 0.07200
C 	C 	0.88937 0.78282 0.02887 -0.06100
C 	C 	0.92250 0.84764 0.02856 0.11500
C 	C 	0.92688 0.86876 0.98088 -0.02700
C 	C 	0.89751 0.82467 0.93396 -0.04800
C 	C 	0.86436 0.75985 0.93426 0.10300
H 	H 	0.88630 0.76666 0.06560 0.08800
H 	H 	0.90068 0.84083 0.89723 0.08100
Br	Br	0.94987 0.69497 0.98004 -0.18000
Br	Br	0.63893 0.51653 0.98533 -0.20300
Br	Br	0.96149 0.90670 0.09354 -0.18500
Br	Br	0.82488 0.70079 0.86928 -0.17900
C 	C 	0.75154 0.17963 0.97672 -0.09800
C 	C 	0.72135 0.11381 0.96511 0.14800
C 	C 	0.75811 0.09140 0.96890 -0.08300
C 	C 	0.82486 0.13399 0.98326 0.03100
C 	C 	0.85494 0.19959 0.99567 0.08400
C 	C 	0.81820 0.22203 0.99274 -0.00600
H 	H 	0.73489 0.04086 0.95929 0.09100
C 	C 	0.86304 0.10974 0.98211 0.01100
H 	H 	0.84162 0.27264 0.00183 0.07200
C 	C 	0.87828 0.09791 0.93487 -0.06300
C 	C 	0.91209 0.07234 0.93249 0.11300
C 	C 	0.93160 0.05910 0.97790 -0.02400
C 	C 	0.91707 0.07172 0.02528 -0.04600
C 	C 	0.88250 0.09645 0.02750 0.10500
H 	H 	0.86311 0.10787 0.89984 0.08300
H 	H 	0.93190 0.06141 0.06027 0.08800
Br	Br	0.94628 0.25931 0.01541 -0.17500
Br	Br	0.63069 0.05401 0.94033 -0.21000
Br	Br	0.92927 0.05382 0.86661 -0.19700
Br	Br	0.86141 0.11089 0.09263 -0.16900
C 	C 	0.13123 0.07666 0.97575 -0.02400
C 	C 	0.17646 0.12703 0.01710 0.11400
C 	C 	0.24181 0.15991 0.01693 -0.06300
C 	C 	0.26280 0.14083 0.97749 0.01300
C 	C 	0.21762 0.08994 0.93656 0.10400
C 	C 	0.15231 0.05949 0.93507 -0.04800
H 	H 	0.27642 0.19850 0.04883 0.08700
C 	C 	0.33150 0.16937 0.98276 0.02900
H 	H 	0.11776 0.02066 0.90331 0.08100
C 	C 	0.35983 0.15546 0.02132 -0.08200
C 	C 	0.42515 0.18334 0.02829 0.15000
C 	C 	0.46206 0.22232 0.99387 -0.09200
C 	C 	0.43381 0.23692 0.95571 -0.00900
C 	C 	0.36925 0.21201 0.95095 0.08900
H 	H 	0.33133 0.12432 0.04698 0.09100
H 	H 	0.46214 0.26806 0.92999 0.07500
Br	Br	0.24394 0.05860 0.88426 -0.17500
Br	Br	0.15030 0.14798 0.07639 -0.19100
Br	Br	0.46391 0.17336 0.08856 -0.19500
Br	Br	0.33416 0.23856 0.90222 -0.16900
