data_crystal

_cell_length_a 27.28592
_cell_length_b 28.04576
_cell_length_c 49.03591
_cell_angle_alpha 60.62007
_cell_angle_beta  119.09663
_cell_angle_gamma 133.29280

_symmetry_space_group_name_	'P 1'
_symmetry_space_group_name_H-M	'P 1'

loop_
_symmetry_equiv_pos_as_xyz
  x,y,z

loop_
_atom_site_label
_atom_site_type_symbol
_atom_site_fract_x
_atom_site_fract_y
_atom_site_fract_z
_atom_site_charge
Co	Co	0.98761 0.04224 0.07494 1.18600
Co	Co	0.08605 0.89295 0.07440 1.16600
O 	O 	0.02431 0.06587 0.15967 -0.39500
O 	O 	0.03128 0.97971 0.17277 -0.39700
O 	O 	0.10088 0.89026 0.14875 -0.39600
O 	O 	0.03750 0.91777 0.08256 -0.76000
Co	Co	0.00555 0.05333 0.58136 1.19000
Co	Co	0.05827 0.87840 0.56915 1.16600
O 	O 	0.05852 0.06170 0.67218 -0.39800
C 	C 	0.04744 0.00327 0.69058 0.31900
O 	O 	0.03214 0.96011 0.67850 -0.39600
O 	O 	0.06571 0.86139 0.64511 -0.39700
O 	O 	0.01916 0.91049 0.57909 -0.76000
C 	C 	0.97818 0.87638 0.91754 -0.03200
C 	C 	0.03358 0.96842 0.74850 0.05000
C 	C 	0.04112 0.98235 0.72265 -0.11800
C 	C 	0.96481 0.92145 0.31248 -0.04500
C 	C 	0.97053 0.92667 0.28412 -0.03100
H 	H 	0.98886 0.86346 0.43402 0.03700
H 	H 	0.99907 0.87163 0.38435 0.03800
H 	H 	0.91786 0.87878 0.32096 0.03900
H 	H 	0.98552 0.73215 0.66217 0.08600
N 	N 	0.05086 0.73980 0.17769 -0.20300
H 	H 	0.01103 0.28034 0.51673 0.08400
H 	H 	0.00542 0.20409 0.53709 0.09500
C 	C 	0.29486 0.62898 0.18325 0.12400
N 	N 	0.25500 0.57752 0.16894 -0.14600
C 	C 	0.28395 0.55371 0.16811 0.12500
C 	C 	0.27164 0.62488 0.66928 0.12500
C 	C 	0.28244 0.56435 0.65480 0.12600
N 	N 	0.24176 0.57243 0.65793 -0.14500
Co	Co	0.04090 0.98748 0.05789 1.18400
C 	C 	0.17915 0.04597 0.05537 0.31900
O 	O 	0.02580 0.05901 0.04229 -0.47000
C 	C 	0.05845 0.16572 0.09311 0.31900
C 	C 	0.13877 0.88272 0.14401 0.30800
O 	O 	0.15885 0.91525 0.11703 -0.39800
O 	O 	0.99604 0.13959 0.09290 -0.41500
O 	O 	0.07003 0.12918 0.09109 -0.40500
O 	O 	0.15109 0.99042 0.04882 -0.40900
O 	O 	0.14719 0.04740 0.06789 -0.41100
Co	Co	0.03710 0.98791 0.55847 1.18400
C 	C 	0.17280 0.02561 0.56509 0.32100
O 	O 	0.03548 0.06703 0.54626 -0.47000
C 	C 	0.10340 0.17380 0.60762 0.31900
C 	C 	0.09858 0.84835 0.64014 0.30900
O 	O 	0.12364 0.88306 0.61449 -0.40100
O 	O 	0.04791 0.15791 0.61023 -0.41700
O 	O 	0.09983 0.13116 0.60106 -0.40700
O 	O 	0.13631 0.97713 0.55084 -0.41200
O 	O 	0.14209 0.03433 0.57438 -0.41200
C 	C 	0.98161 0.87816 0.88947 -0.04400
C 	C 	0.05992 0.94253 0.83577 -0.04500
C 	C 	0.06771 0.94915 0.80763 -0.03000
H 	H 	0.96583 0.83180 0.93746 0.03600
H 	H 	0.97129 0.83476 0.88778 0.04000
H 	H 	0.09732 0.94167 0.85830 0.04100
H 	H 	0.11135 0.95385 0.80858 0.03800
H 	H 	0.92764 0.88836 0.27074 0.03500
C 	C 	0.25207 0.51609 0.63714 -0.05100
C 	C 	0.28398 0.53577 0.61425 0.10000
C 	C 	0.27298 0.48628 0.60687 -0.08600
C 	C 	0.22239 0.41765 0.61782 -0.00900
C 	C 	0.18235 0.39840 0.63660 0.07100
C 	C 	0.19937 0.44774 0.64708 -0.05400
N 	N 	0.32358 0.60182 0.59876 -0.19800
H 	H 	0.30222 0.50126 0.59171 0.05300
C 	C 	0.21494 0.36615 0.61146 0.00600
N 	N 	0.12768 0.33303 0.64449 -0.19500
H 	H 	0.17283 0.43265 0.66363 0.04800
C 	C 	0.23566 0.32587 0.63723 -0.10100
C 	C 	0.21082 0.26465 0.63438 0.13100
C 	C 	0.16483 0.24416 0.60556 -0.12200
C 	C 	0.16039 0.29264 0.57786 -0.01500
C 	C 	0.18070 0.35180 0.58075 0.05500
H 	H 	0.26665 0.33958 0.66010 0.05800
N 	N 	0.22755 0.22378 0.65994 -0.20600
H 	H 	0.13184 0.27985 0.55478 0.03400
N 	N 	0.16444 0.39245 0.55451 -0.19100
H 	H 	0.25928 0.23762 0.68178 0.08700
H 	H 	0.21061 0.17880 0.65795 0.10000
H 	H 	0.13988 0.38155 0.53199 0.07900
H 	H 	0.17512 0.43462 0.55612 0.08600
H 	H 	0.10018 0.31884 0.65938 0.08000
H 	H 	0.11008 0.29637 0.63485 0.08800
H 	H 	0.32435 0.63827 0.60021 0.08800
H 	H 	0.35033 0.61656 0.58333 0.08300
C 	C 	0.22842 0.63627 0.67134 -0.05000
C 	C 	0.20563 0.67439 0.64438 0.09800
C 	C 	0.18070 0.69969 0.64881 -0.08300
C 	C 	0.17794 0.68742 0.67958 -0.00900
C 	C 	0.19543 0.64477 0.70613 0.06900
C 	C 	0.22067 0.61965 0.70171 -0.05400
N 	N 	0.20854 0.68777 0.61431 -0.19900
H 	H 	0.16518 0.73067 0.62836 0.05100
C 	C 	0.16033 0.72271 0.68375 0.00400
N 	N 	0.18941 0.62884 0.73590 -0.19500
H 	H 	0.23711 0.58947 0.72225 0.04600
C 	C 	0.09050 0.69302 0.67912 -0.10000
C 	C 	0.06952 0.73317 0.67095 0.12600
C 	C 	0.11889 0.80409 0.66591 -0.11700
C 	C 	0.18956 0.83114 0.67683 -0.01800
C 	C 	0.21088 0.79097 0.68555 0.05600
H 	H 	0.05203 0.63956 0.67988 0.05600
N 	N 	0.00183 0.70380 0.66687 -0.20100
H 	H 	0.22791 0.88491 0.67532 0.04200
N 	N 	0.27959 0.81859 0.69458 -0.19200
H 	H 	0.96528 0.65152 0.66982 0.08200
H 	H 	0.31669 0.86976 0.69461 0.08100
H 	H 	0.29674 0.78909 0.70262 0.08700
H 	H 	0.20362 0.59829 0.75547 0.08200
H 	H 	0.16978 0.64576 0.73987 0.08600
H 	H 	0.22444 0.66776 0.60997 0.09000
H 	H 	0.19329 0.71746 0.59467 0.08100
C 	C 	0.24392 0.50383 0.14944 -0.05000
C 	C 	0.19674 0.43414 0.16231 0.09800
C 	C 	0.17564 0.38619 0.14923 -0.08300
C 	C 	0.20228 0.40653 0.12420 -0.01000
C 	C 	0.24709 0.47632 0.11043 0.07000
C 	C 	0.26499 0.52414 0.12235 -0.05300
N 	N 	0.17222 0.41287 0.18741 -0.20000
H 	H 	0.13954 0.33276 0.15904 0.05300
C 	C 	0.18103 0.35409 0.11203 0.00500
N 	N 	0.27516 0.49779 0.08668 -0.19500
H 	H 	0.30013 0.57761 0.11215 0.04700
C 	C 	0.13473 0.34381 0.08190 -0.10200
C 	C 	0.10381 0.28704 0.07238 0.13200
C 	C 	0.11427 0.23677 0.09451 -0.11900
C 	C 	0.16664 0.25089 0.12289 -0.01900
C 	C 	0.20112 0.30993 0.13166 0.05600
H 	H 	0.12185 0.37938 0.06609 0.05700
N 	N 	0.06302 0.28017 0.04224 -0.20400
H 	H 	0.17723 0.21381 0.13925 0.04600
N 	N 	0.25289 0.32370 0.15887 -0.19200
H 	H 	0.05241 0.31560 0.02642 0.08300
H 	H 	0.04435 0.24137 0.03381 0.09000
H 	H 	0.26565 0.28964 0.17386 0.08400
H 	H 	0.28268 0.36941 0.16470 0.08800
H 	H 	0.30665 0.54936 0.07609 0.08200
H 	H 	0.26813 0.46400 0.07925 0.08700
H 	H 	0.18491 0.44709 0.19697 0.09200
H 	H 	0.13875 0.36126 0.19726 0.08300
C 	C 	0.16384 0.84205 0.16985 -0.11700
C 	C 	0.11684 0.77069 0.17788 0.12700
C 	C 	0.13869 0.73139 0.18581 -0.10000
C 	C 	0.20788 0.76229 0.18831 0.00400
C 	C 	0.25741 0.83220 0.18703 0.05500
C 	C 	0.23484 0.87161 0.17785 -0.01800
H 	H 	0.10136 0.67710 0.18887 0.05700
C 	C 	0.22563 0.72393 0.18700 -0.01000
N 	N 	0.32623 0.86182 0.19396 -0.19200
H 	H 	0.27192 0.92607 0.17406 0.04300
C 	C 	0.23084 0.73311 0.15747 -0.08300
C 	C 	0.25102 0.70066 0.15539 0.09700
C 	C 	0.26462 0.65679 0.18337 -0.05000
C 	C 	0.25683 0.64559 0.21267 -0.05400
C 	C 	0.23799 0.67916 0.21487 0.07000
H 	H 	0.22050 0.76679 0.13610 0.05100
N 	N 	0.25839 0.71283 0.12664 -0.19900
H 	H 	0.26736 0.61207 0.23406 0.04600
N 	N 	0.23313 0.66909 0.24382 -0.19500
H 	H 	0.24824 0.74532 0.10617 0.08100
H 	H 	0.27444 0.69064 0.12425 0.09200
H 	H 	0.24222 0.63584 0.26423 0.08200
H 	H 	0.22080 0.69430 0.24648 0.08700
H 	H 	0.36238 0.91390 0.19187 0.08200
H 	H 	0.34460 0.83316 0.20253 0.08700
C 	C 	0.24797 0.07281 0.56865 -0.11900
C 	C 	0.27735 0.13473 0.54533 0.13200
C 	C 	0.34399 0.16811 0.54287 -0.10000
C 	C 	0.38122 0.14048 0.56321 0.00600
C 	C 	0.35510 0.08289 0.58889 0.05500
C 	C 	0.28856 0.04971 0.59143 -0.02100
N 	N 	0.24132 0.16150 0.52482 -0.20500
H 	H 	0.36561 0.21400 0.52410 0.05800
H 	H 	0.26671 0.00346 0.61002 0.04400
H 	H 	0.33323 0.06459 0.52899 0.08900
H 	H 	0.19283 0.13939 0.52689 0.09400
H 	H 	0.26260 0.20616 0.50698 0.08600
C 	C 	0.35407 0.18585 0.01787 0.00500
C 	C 	0.28895 0.16522 0.99656 -0.10100
C 	C 	0.23096 0.12908 0.00812 0.13300
C 	C 	0.23776 0.10950 0.04165 -0.12000
C 	C 	0.30408 0.13900 0.06215 -0.01900
C 	C 	0.36290 0.17873 0.05029 0.05700
H 	H 	0.28289 0.17482 0.97123 0.05700
N 	N 	0.16837 0.11113 0.98716 -0.20300
H 	H 	0.30968 0.12731 0.08766 0.04100
H 	H 	0.16268 0.12251 0.96253 0.08700
H 	H 	0.12557 0.08819 0.99504 0.09100
H 	H 	0.43314 0.20098 0.09431 0.08300
C 	C 	0.00204 0.91115 0.38553 -0.04100
O 	O 	0.00244 0.97585 0.51201 -0.38400
N 	N 	0.98199 0.22846 0.52733 -0.20600
C 	C 	0.02931 0.01661 0.18115 0.31500
C 	C 	0.02049 0.95191 0.77822 -0.01000
C 	C 	0.03133 0.99363 0.24064 0.04500
C 	C 	0.03221 0.00300 0.21403 -0.11000
N 	N 	0.37615 0.09574 0.51933 -0.19400
H 	H 	0.41384 0.29513 0.97099 0.05200
N 	N 	0.42718 0.20885 0.07007 -0.19100
C 	C 	0.69253 0.30769 0.99160 0.12500
N 	N 	0.62445 0.27184 0.99020 -0.14500
C 	C 	0.60126 0.30132 0.99079 0.12700
N 	N 	0.64638 0.36582 0.99357 -0.14400
C 	C 	0.71370 0.40279 0.99363 0.12600
N 	N 	0.73696 0.37370 0.99265 -0.14500
C 	C 	0.69830 0.31805 0.49594 0.12600
N 	N 	0.64327 0.27148 0.50965 -0.14500
C 	C 	0.61250 0.29073 0.51262 0.12800
N 	N 	0.63581 0.35632 0.50129 -0.14400
C 	C 	0.69132 0.40341 0.48794 0.12500
N 	N 	0.72271 0.38416 0.48533 -0.14600
N 	N 	0.35258 0.58231 0.18090 -0.14400
C 	C 	0.39272 0.63432 0.19464 0.12600
N 	N 	0.36366 0.65734 0.19600 -0.14500
N 	N 	0.34166 0.67063 0.67595 -0.14500
C 	C 	0.38201 0.66197 0.67312 0.12700
N 	N 	0.35228 0.60690 0.66425 -0.14300
Co	Co	0.00839 0.87598 0.11641 1.18400
Co	Co	0.95965 0.93391 0.13435 1.18500
C 	C 	0.95933 0.76233 0.09602 0.31200
Co	Co	0.93800 0.04495 0.12185 1.16700
O 	O 	0.95858 0.00088 0.10832 -0.76700
O 	O 	0.96793 0.85824 0.14836 -0.46900
O 	O 	0.97324 0.94409 0.08937 -0.58600
C 	C 	0.83859 0.89477 0.14812 0.31500
C 	C 	0.00808 0.92515 0.00911 0.31000
O 	O 	0.87957 0.95506 0.15329 -0.41000
O 	O 	0.85930 0.87661 0.13800 -0.39500
O 	O 	0.01110 0.87577 0.03205 -0.40100
O 	O 	0.00085 0.96201 0.01441 -0.38800
C 	C 	0.86465 0.04911 0.05280 0.30300
O 	O 	0.85506 0.01916 0.08234 -0.39600
O 	O 	0.90702 0.05285 0.04429 -0.38400
O 	O 	0.02507 0.79322 0.09910 -0.40800
O 	O 	0.94073 0.78277 0.10596 -0.39500
Co	Co	0.98306 0.86497 0.61092 1.18400
Co	Co	0.95835 0.93374 0.63560 1.18500
C 	C 	0.91997 0.75618 0.58218 0.31400
Co	Co	0.97889 0.06359 0.63516 1.16600
O 	O 	0.97810 0.01188 0.61514 -0.76700
O 	O 	0.94101 0.84646 0.64234 -0.47000
O 	O 	0.96889 0.94810 0.58868 -0.58500
C 	C 	0.85605 0.92036 0.65148 0.31600
C 	C 	0.00051 0.93517 0.50431 0.31600
O 	O 	0.90995 0.97401 0.66266 -0.41200
O 	O 	0.86278 0.89643 0.63711 -0.39400
O 	O 	0.99126 0.87852 0.52467 -0.40400
C 	C 	0.90963 0.09040 0.56575 0.30200
O 	O 	0.89972 0.05959 0.59529 -0.39500
O 	O 	0.93603 0.07938 0.55451 -0.38600
O 	O 	0.98377 0.77816 0.58744 -0.41100
O 	O 	0.90659 0.77885 0.59379 -0.39600
C 	C 	0.99249 0.93264 0.92022 -0.01000
C 	C 	0.99908 0.93613 0.86380 0.00600
C 	C 	0.01160 0.99179 0.86616 -0.04400
C 	C 	0.00845 0.99007 0.89433 -0.03300
C 	C 	0.00496 0.93889 0.83459 0.01100
C 	C 	0.96431 0.94596 0.77726 -0.03200
C 	C 	0.95663 0.93961 0.80532 -0.04600
C 	C 	0.99744 0.93358 0.95065 0.04100
C 	C 	0.00088 0.93119 0.97674 -0.10900
H 	H 	0.02486 0.03669 0.84641 0.04100
H 	H 	0.01985 0.03385 0.89625 0.03900
H 	H 	0.92756 0.94803 0.75463 0.03900
H 	H 	0.91371 0.93620 0.80422 0.04000
C 	C 	0.00105 0.95780 0.41574 -0.01100
C 	C 	0.99621 0.90652 0.41366 -0.03400
C 	C 	0.01246 0.96703 0.35913 0.00500
C 	C 	0.01638 0.01801 0.36106 -0.04100
C 	C 	0.01079 0.01341 0.38933 -0.03000
C 	C 	0.01902 0.97197 0.32945 0.00900
C 	C 	0.03034 0.98248 0.27245 -0.01000
C 	C 	0.08524 0.03206 0.28981 -0.02900
C 	C 	0.07969 0.02682 0.31823 -0.04300
C 	C 	0.00038 0.95489 0.44579 0.04700
C 	C 	0.99945 0.94814 0.47187 -0.11400
H 	H 	0.02387 0.06111 0.34073 0.04000
H 	H 	0.01474 0.05333 0.39075 0.03900
H 	H 	0.13148 0.07554 0.28087 0.03800
H 	H 	0.12221 0.06563 0.33134 0.04000
C 	C 	0.45400 0.71901 0.67133 -0.05200
C 	C 	0.50862 0.72776 0.69917 0.09900
C 	C 	0.57602 0.76619 0.69587 -0.08500
C 	C 	0.58918 0.79525 0.66526 -0.00900
C 	C 	0.53517 0.79030 0.63737 0.07100
C 	C 	0.46876 0.75471 0.64084 -0.05200
N 	N 	0.49660 0.69904 0.72905 -0.20000
H 	H 	0.61797 0.77196 0.71717 0.05200
C 	C 	0.65873 0.82792 0.66280 0.00600
N 	N 	0.54614 0.81763 0.60733 -0.19400
H 	H 	0.42694 0.74974 0.61957 0.04400
C 	C 	0.67809 0.78720 0.66981 -0.10200
C 	C 	0.74360 0.81634 0.66766 0.13300
C 	C 	0.78762 0.88710 0.65523 -0.11900
C 	C 	0.76782 0.92765 0.64796 -0.01900
C 	C 	0.70510 0.89904 0.65293 0.05400
H 	H 	0.64289 0.73277 0.67796 0.05800
N 	N 	0.76502 0.77675 0.67902 -0.20400
H 	H 	0.80206 0.98195 0.63897 0.03600
N 	N 	0.68968 0.93999 0.64813 -0.19100
H 	H 	0.73055 0.72419 0.68618 0.08600
H 	H 	0.81689 0.79761 0.68313 0.09600
H 	H 	0.72327 0.99234 0.63980 0.08000
H 	H 	0.64542 0.92066 0.65344 0.08600
H 	H 	0.50607 0.81450 0.58696 0.08100
H 	H 	0.59369 0.84082 0.60378 0.08800
H 	H 	0.44774 0.67329 0.73214 0.09000
H 	H 	0.53688 0.70401 0.74958 0.08300
C 	C 	0.77621 0.84272 0.16098 -0.11700
C 	C 	0.70933 0.81730 0.14010 0.12800
C 	C 	0.65222 0.78096 0.15247 -0.10000
C 	C 	0.66109 0.77110 0.18505 0.00600
C 	C 	0.72736 0.79311 0.20628 0.05400
C 	C 	0.78405 0.82754 0.19407 -0.01700
N 	N 	0.69977 0.82884 0.10812 -0.20500
H 	H 	0.60099 0.76234 0.13648 0.05700
C 	C 	0.60116 0.74060 0.19613 -0.01000
N 	N 	0.73733 0.78314 0.23812 -0.19100
H 	H 	0.83527 0.84606 0.21010 0.04100
C 	C 	0.56435 0.67192 0.21208 -0.08600
C 	C 	0.49957 0.63830 0.21684 0.10000
C 	C 	0.46880 0.67259 0.20291 -0.05100
C 	C 	0.50905 0.74292 0.19045 -0.05500
C 	C 	0.57568 0.77754 0.18740 0.07100
H 	H 	0.58562 0.64440 0.22031 0.05300
N 	N 	0.46727 0.57346 0.23487 -0.19900
H 	H 	0.48705 0.77015 0.18132 0.04900
N 	N 	0.61451 0.84585 0.17578 -0.19500
H 	H 	0.48873 0.54734 0.24394 0.08300
H 	H 	0.42253 0.54971 0.24139 0.09000
H 	H 	0.59437 0.87249 0.16829 0.08100
H 	H 	0.66577 0.87337 0.17517 0.08700
H 	H 	0.78657 0.79982 0.25354 0.08100
H 	H 	0.69673 0.75926 0.24789 0.08600
H 	H 	0.74076 0.85407 0.09827 0.09500
H 	H 	0.65044 0.81157 0.09273 0.08300
H 	H 	0.03458 0.76749 0.17394 0.08800
H 	H 	0.01632 0.68709 0.18334 0.08500
C 	C 	0.73907 0.29902 0.49844 -0.05100
C 	C 	0.73013 0.28311 0.47235 0.09800
C 	C 	0.75913 0.25212 0.47759 -0.08600
C 	C 	0.79598 0.23633 0.50840 -0.00900
C 	C 	0.80887 0.25655 0.53392 0.07100
C 	C 	0.78055 0.28814 0.52856 -0.05300
N 	N 	0.69342 0.29683 0.44241 -0.20000
H 	H 	0.75107 0.23826 0.45790 0.05200
C 	C 	0.81770 0.19557 0.51416 0.00400
N 	N 	0.84743 0.24491 0.56369 -0.19400
H 	H 	0.78852 0.30187 0.54828 0.04600
C 	C 	0.88507 0.22885 0.51276 -0.10000
C 	C 	0.91507 0.19412 0.52735 0.12400
C 	C 	0.87575 0.12431 0.54277 -0.11100
C 	C 	0.80547 0.08951 0.54029 -0.02100
C 	C 	0.77599 0.12456 0.52617 0.05700
H 	H 	0.91591 0.28290 0.50230 0.05600
H 	H 	0.77458 0.03552 0.55088 0.04500
N 	N 	0.70826 0.09008 0.52489 -0.19200
H 	H 	0.67846 0.03794 0.53483 0.08200
H 	H 	0.68405 0.11425 0.51333 0.08800
H 	H 	0.85574 0.25921 0.58245 0.08100
H 	H 	0.87013 0.22234 0.56850 0.08600
H 	H 	0.67324 0.32187 0.43750 0.09000
H 	H 	0.68585 0.28358 0.42345 0.08300
C 	C 	0.72515 0.47571 0.48259 -0.05200
C 	C 	0.68461 0.49803 0.47319 0.10100
C 	C 	0.71178 0.55147 0.48418 -0.08600
C 	C 	0.78075 0.58663 0.50165 -0.00900
C 	C 	0.82519 0.57396 0.50438 0.07100
C 	C 	0.79674 0.51769 0.49521 -0.05500
N 	N 	0.61955 0.46766 0.45409 -0.19900
H 	H 	0.67865 0.56401 0.48021 0.05300
C 	C 	0.80205 0.62609 0.52195 0.00500
N 	N 	0.89463 0.61463 0.51640 -0.19400
H 	H 	0.82939 0.50381 0.50020 0.05000
C 	C 	0.80971 0.59872 0.55536 -0.10000
C 	C 	0.84014 0.63847 0.57592 0.13200
C 	C 	0.86346 0.70650 0.56276 -0.11900
C 	C 	0.84583 0.73021 0.52931 -0.02200
C 	C 	0.81796 0.69176 0.50861 0.05800
H 	H 	0.79398 0.54710 0.56542 0.05700
N 	N 	0.84667 0.61115 0.60819 -0.20500
H 	H 	0.85867 0.78071 0.51932 0.04800
N 	N 	0.80913 0.71903 0.47624 -0.19200
H 	H 	0.83232 0.56169 0.61803 0.08200
H 	H 	0.86296 0.63772 0.62354 0.09200
H 	H 	0.82179 0.76785 0.46674 0.08600
H 	H 	0.79043 0.69264 0.46021 0.08600
H 	H 	0.92687 0.60349 0.51956 0.08100
H 	H 	0.91747 0.65900 0.52153 0.08600
H 	H 	0.60053 0.43151 0.44361 0.09000
H 	H 	0.58859 0.48231 0.44833 0.08400
C 	C 	0.44343 0.16807 0.55525 -0.00900
N 	N 	0.39275 0.05830 0.61058 -0.19200
C 	C 	0.50840 0.21925 0.56911 -0.08600
C 	C 	0.56665 0.25517 0.55778 0.10100
C 	C 	0.55857 0.24215 0.53086 -0.05100
C 	C 	0.49504 0.18721 0.51886 -0.05400
C 	C 	0.43732 0.14933 0.53109 0.07200
H 	H 	0.51340 0.23178 0.58845 0.05300
N 	N 	0.63018 0.30138 0.57298 -0.19900
H 	H 	0.48971 0.17562 0.49906 0.04700
H 	H 	0.63533 0.31292 0.59192 0.08300
H 	H 	0.67524 0.32372 0.56723 0.09100
H 	H 	0.37159 0.08352 0.50083 0.08200
H 	H 	0.37222 0.01470 0.62898 0.08100
H 	H 	0.44305 0.08277 0.60981 0.08600
C 	C 	0.71879 0.27374 0.99407 -0.05000
C 	C 	0.76359 0.26194 0.02278 0.09800
C 	C 	0.78560 0.22745 0.02451 -0.08400
C 	C 	0.76137 0.20197 0.99879 -0.00900
C 	C 	0.71699 0.21406 0.97003 0.07000
C 	C 	0.69615 0.24994 0.96797 -0.05400
N 	N 	0.78386 0.28157 0.04905 -0.19900
H 	H 	0.81981 0.21824 0.04645 0.05200
C 	C 	0.77948 0.15905 0.00320 0.00300
N 	N 	0.69465 0.19188 0.94430 -0.19500
H 	H 	0.66190 0.25907 0.94603 0.04700
C 	C 	0.73619 0.08910 0.01573 -0.10100
C 	C 	0.75976 0.04931 0.02792 0.12900
C 	C 	0.82875 0.08079 0.02889 -0.11500
C 	C 	0.86807 0.14865 0.01221 -0.02200
C 	C 	0.84412 0.18835 0.99942 0.05600
H 	H 	0.68506 0.06601 0.01701 0.05700
N 	N 	0.71603 0.98111 0.03839 -0.20300
H 	H 	0.91922 0.17175 0.01100 0.04100
N 	N 	0.88363 0.25447 0.98397 -0.19200
H 	H 	0.66612 0.95834 0.03902 0.08300
H 	H 	0.73006 0.94994 0.04447 0.09400
H 	H 	0.93218 0.27623 0.98205 0.07900
H 	H 	0.86569 0.28428 0.97287 0.08600
H 	H 	0.66113 0.20026 0.92332 0.08200
H 	H 	0.71105 0.16714 0.94464 0.08700
H 	H 	0.76386 0.30193 0.04972 0.09100
H 	H 	0.81854 0.27437 0.06974 0.08200
C 	C 	0.90646 0.70789 0.07907 -0.11800
C 	C 	0.89141 0.64285 0.09477 0.13100
C 	C 	0.86622 0.60113 0.07645 -0.10000
C 	C 	0.85868 0.62481 0.04286 0.00300
C 	C 	0.87074 0.68892 0.02726 0.05900
C 	C 	0.88663 0.72579 0.04543 -0.02300
N 	N 	0.89941 0.61971 0.12722 -0.20500
H 	H 	0.85319 0.55057 0.08833 0.05800
C 	C 	0.83124 0.57929 0.02406 -0.00800
N 	N 	0.87151 0.71698 0.99551 -0.19200
H 	H 	0.89011 0.77199 0.03338 0.05000
C 	C 	0.76894 0.56102 0.00040 -0.08700
C 	C 	0.73779 0.51220 0.98503 0.10200
C 	C 	0.76208 0.47258 0.99744 -0.05200
C 	C 	0.82693 0.49386 0.01929 -0.05400
C 	C 	0.86340 0.54925 0.03154 0.06900
H 	H 	0.74515 0.58537 0.99369 0.05500
N 	N 	0.68530 0.50397 0.95821 -0.19800
H 	H 	0.84799 0.46611 0.02760 0.04900
N 	N 	0.92912 0.57378 0.05000 -0.19500
H 	H 	0.66484 0.53057 0.95018 0.08300
H 	H 	0.66758 0.47451 0.94400 0.08800
H 	H 	0.95129 0.54949 0.05662 0.08200
H 	H 	0.96000 0.61906 0.05646 0.08600
H 	H 	0.87766 0.76299 0.98397 0.08800
H 	H 	0.87105 0.69607 0.98261 0.08500
H 	H 	0.91065 0.64679 0.14078 0.09200
H 	H 	0.89116 0.57274 0.13899 0.08300
C 	C 	0.52824 0.26240 0.99060 -0.05100
C 	C 	0.49354 0.29349 0.97315 0.10100
C 	C 	0.43721 0.26840 0.98261 -0.08500
C 	C 	0.41049 0.20865 0.00681 -0.01000
C 	C 	0.43752 0.17097 0.02008 0.07200
C 	C 	0.49793 0.19952 0.01273 -0.05500
N 	N 	0.51345 0.34655 0.94703 -0.19800
N 	N 	0.40554 0.10755 0.03952 -0.19400
H 	H 	0.52254 0.17386 0.02505 0.04900
H 	H 	0.47169 0.24249 0.06126 0.08800
H 	H 	0.42770 0.08152 0.05041 0.08200
H 	H 	0.35685 0.08216 0.04266 0.08900
H 	H 	0.54922 0.36062 0.93709 0.08800
H 	H 	0.49020 0.37172 0.93527 0.08200
