data_crystal

_cell_length_a 26.06761
_cell_length_b 26.42937
_cell_length_c 26.59856
_cell_angle_alpha 95.50548
_cell_angle_beta  95.50558
_cell_angle_gamma 125.83862

_symmetry_space_group_name_	'P 1'
_symmetry_space_group_name_H-M	'P 1'

loop_
_symmetry_equiv_pos_as_xyz
  x,y,z

loop_
_atom_site_label
_atom_site_type_symbol
_atom_site_fract_x
_atom_site_fract_y
_atom_site_fract_z
_atom_site_charge
C 	C 	0.96688 0.02716 0.98869 0.10500
N 	N 	0.93160 0.96448 0.99135 -0.13900
C 	C 	0.95672 0.93219 0.98405 0.10900
N 	N 	0.01725 0.96267 0.97415 -0.13300
C 	C 	0.05278 0.02527 0.97143 0.11300
N 	N 	0.02750 0.05753 0.97865 -0.13500
C 	C 	0.93576 0.99731 0.44289 0.11300
N 	N 	0.00077 0.03760 0.44694 -0.13700
C 	C 	0.03649 0.01584 0.45318 0.11500
N 	N 	0.00717 0.95382 0.45544 -0.13300
C 	C 	0.94217 0.91286 0.45028 0.10900
N 	N 	0.90633 0.93477 0.44438 -0.13900
Cu	Cu	0.63804 0.24028 0.00660 0.92800
Cu	Cu	0.69859 0.25139 0.90246 0.86400
Cu	Cu	0.67083 0.33965 0.94030 0.89400
Cu	Cu	0.63731 0.35681 0.04087 0.89400
C 	C 	0.65274 0.28570 0.11328 0.29300
O 	O 	0.54366 0.20296 0.00291 -0.36400
C 	C 	0.66588 0.30627 0.83006 0.28700
O 	O 	0.68964 0.33925 0.01181 -0.64000
O 	O 	0.63226 0.24759 0.93341 -0.64300
O 	O 	0.67779 0.19494 0.00459 -0.36900
O 	O 	0.75394 0.26542 0.96264 -0.44400
O 	O 	0.62248 0.30952 0.09864 -0.38700
O 	O 	0.71493 0.43047 0.94960 -0.39000
C 	C 	0.71185 0.46602 0.98590 0.29200
C 	C 	0.51931 0.22979 0.98242 0.27900
O 	O 	0.55780 0.28975 0.97822 -0.39800
O 	O 	0.67760 0.44211 0.02229 -0.39400
O 	O 	0.65763 0.24924 0.07974 -0.36400
C 	C 	0.73390 0.22119 0.99061 0.28200
O 	O 	0.65751 0.33780 0.86593 -0.38000
O 	O 	0.66420 0.25689 0.83810 -0.42300
H 	H 	0.73597 0.36767 0.02772 0.16300
H 	H 	0.58865 0.21910 0.91173 0.17400
Cu	Cu	0.73487 0.33490 0.43807 0.92600
Cu	Cu	0.73091 0.28371 0.54606 0.86400
Cu	Cu	0.64105 0.31186 0.50926 0.89500
Cu	Cu	0.61833 0.33905 0.40720 0.89400
C 	C 	0.68334 0.31582 0.33169 0.29300
O 	O 	0.77526 0.42804 0.43722 -0.36700
C 	C 	0.68064 0.32180 0.61921 0.28600
O 	O 	0.63576 0.28781 0.43744 -0.64100
O 	O 	0.73332 0.34688 0.51224 -0.64100
O 	O 	0.77824 0.29282 0.43973 -0.37300
O 	O 	0.71076 0.22379 0.48751 -0.44400
O 	O 	0.66064 0.34709 0.34651 -0.38800
O 	O 	0.54972 0.27106 0.50382 -0.38900
C 	C 	0.51252 0.27295 0.46776 0.29400
C 	C 	0.75079 0.45547 0.45678 0.28400
O 	O 	0.69194 0.42021 0.46578 -0.39700
O 	O 	0.53556 0.30602 0.43082 -0.39600
O 	O 	0.71969 0.30988 0.36494 -0.36500
C 	C 	0.75218 0.23925 0.45674 0.29000
O 	O 	0.64857 0.33064 0.58400 -0.37900
O 	O 	0.72999 0.32273 0.61007 -0.42200
H 	H 	0.60515 0.24162 0.42344 0.16200
H 	H 	0.76406 0.39099 0.53175 0.17300
C 	C 	0.61118 0.27023 0.73882 -0.04100
C 	C 	0.66368 0.31798 0.77711 -0.09300
C 	C 	0.71738 0.37227 0.76317 0.09800
C 	C 	0.71999 0.37477 0.71088 -0.04100
C 	C 	0.66996 0.32430 0.67253 -0.09300
C 	C 	0.61368 0.27278 0.68653 0.09800
N 	N 	0.56265 0.22497 0.65014 -0.20100
H 	H 	0.56925 0.22961 0.74968 0.04400
H 	H 	0.76218 0.41511 0.70003 0.04400
N 	N 	0.76706 0.42145 0.79961 -0.20100
H 	H 	0.52185 0.18663 0.66094 0.08000
H 	H 	0.56238 0.22565 0.61097 0.08300
H 	H 	0.76599 0.42197 0.83877 0.08200
H 	H 	0.80714 0.46065 0.78889 0.07900
C 	C 	0.72300 0.34033 0.19900 -0.04700
C 	C 	0.66610 0.28638 0.16846 -0.09200
C 	C 	0.61886 0.23785 0.19202 0.11200
C 	C 	0.62771 0.24646 0.24594 -0.04700
C 	C 	0.68242 0.30260 0.27647 -0.09100
C 	C 	0.73164 0.34916 0.25291 0.11000
N 	N 	0.78662 0.40284 0.28168 -0.20100
H 	H 	0.75962 0.37685 0.18080 0.03600
H 	H 	0.59067 0.21037 0.26415 0.03800
N 	N 	0.56455 0.18352 0.16325 -0.20000
H 	H 	0.82204 0.43754 0.26389 0.08200
H 	H 	0.79528 0.41034 0.32179 0.10000
H 	H 	0.55704 0.17493 0.12314 0.10200
H 	H 	0.52940 0.14856 0.18102 0.08400
C 	C 	0.82428 0.60982 0.40955 -0.06600
C 	C 	0.82925 0.64904 0.45234 0.02400
C 	C 	0.81092 0.62503 0.49748 -0.06600
C 	C 	0.78709 0.56224 0.49952 0.01300
C 	C 	0.78252 0.52329 0.45681 -0.09100
C 	C 	0.80171 0.54755 0.41199 0.01300
C 	C 	0.85695 0.71619 0.45068 0.00500
H 	H 	0.81536 0.65503 0.53099 0.04500
H 	H 	0.77197 0.54380 0.53419 0.02700
H 	H 	0.79733 0.51754 0.37850 0.03200
H 	H 	0.83778 0.62759 0.37437 0.04500
C 	C 	0.91672 0.75551 0.43579 -0.04500
C 	C 	0.94304 0.81872 0.43382 -0.02300
C 	C 	0.91081 0.84422 0.44808 -0.01900
C 	C 	0.85063 0.80477 0.46266 -0.02300
C 	C 	0.82366 0.74092 0.46366 -0.04500
H 	H 	0.94299 0.73711 0.42592 0.03900
H 	H 	0.98888 0.84807 0.42157 0.03800
H 	H 	0.82521 0.82362 0.47392 0.04100
H 	H 	0.77712 0.71082 0.47468 0.04000
C 	C 	0.83137 0.04794 0.47096 -0.04400
C 	C 	0.84101 0.08512 0.43337 0.00400
C 	C 	0.87658 0.08789 0.39588 -0.04500
C 	C 	0.90500 0.05656 0.39755 -0.02200
C 	C 	0.89752 0.02151 0.43634 -0.02200
C 	C 	0.85922 0.01597 0.47223 -0.02700
C 	C 	0.81714 0.12406 0.43510 0.02400
H 	H 	0.88341 0.11548 0.36616 0.04100
H 	H 	0.93403 0.06066 0.36938 0.03800
H 	H 	0.85315 0.98906 0.50234 0.04000
H 	H 	0.80393 0.04533 0.50005 0.03600
C 	C 	0.75172 0.09554 0.43508 -0.06800
C 	C 	0.73007 0.13297 0.44030 0.01400
C 	C 	0.77354 0.19928 0.44520 -0.09700
C 	C 	0.83852 0.22754 0.44329 0.01300
C 	C 	0.86029 0.19018 0.43857 -0.06800
H 	H 	0.71782 0.04451 0.43166 0.04400
H 	H 	0.67967 0.11050 0.44113 0.02700
H 	H 	0.87260 0.27862 0.44720 0.02900
H 	H 	0.91091 0.21276 0.43875 0.04400
C 	C 	0.20271 0.07385 0.43351 -0.04300
C 	C 	0.24088 0.13505 0.46374 0.00500
C 	C 	0.21152 0.15848 0.48833 -0.04400
C 	C 	0.14446 0.12027 0.48371 -0.02200
C 	C 	0.10641 0.05833 0.45455 -0.01800
C 	C 	0.13585 0.03569 0.42892 -0.02600
C 	C 	0.31155 0.17427 0.46977 0.02600
H 	H 	0.24066 0.20585 0.51154 0.04100
H 	H 	0.12231 0.13822 0.50373 0.04200
H 	H 	0.10691 0.98832 0.40570 0.04400
H 	H 	0.22495 0.05576 0.41381 0.04000
C 	C 	0.34535 0.15400 0.49339 -0.06700
C 	C 	0.41131 0.18714 0.49394 0.01500
C 	C 	0.44411 0.24095 0.47090 -0.08900
C 	C 	0.41063 0.26260 0.44907 0.01500
C 	C 	0.34465 0.22932 0.44847 -0.06700
H 	H 	0.32020 0.11176 0.51028 0.04500
H 	H 	0.43649 0.17003 0.51112 0.02900
H 	H 	0.43552 0.30478 0.43209 0.03300
H 	H 	0.31896 0.24546 0.43037 0.04700
C 	C 	0.75870 0.63266 0.00919 -0.06400
C 	C 	0.81173 0.66454 0.98457 0.02200
C 	C 	0.83102 0.63090 0.95933 -0.06700
C 	C 	0.79819 0.56607 0.95939 0.01500
C 	C 	0.74550 0.53415 0.98458 -0.09200
C 	C 	0.72562 0.56778 0.00912 0.01700
C 	C 	0.84808 0.73344 0.98629 0.00300
H 	H 	0.87172 0.65511 0.93995 0.04400
H 	H 	0.81423 0.54091 0.94041 0.02900
H 	H 	0.68457 0.54372 0.02812 0.03300
H 	H 	0.74347 0.65829 0.02876 0.04600
C 	C 	0.81779 0.75782 0.96397 -0.04500
C 	C 	0.85286 0.82299 0.96433 -0.02200
C 	C 	0.91856 0.86426 0.98681 -0.02200
C 	C 	0.94846 0.83991 0.00997 -0.02000
C 	C 	0.91335 0.77484 0.00976 -0.04300
H 	H 	0.76738 0.72617 0.94578 0.04100
H 	H 	0.82933 0.84117 0.94614 0.04000
H 	H 	0.99893 0.87140 0.02800 0.03800
H 	H 	0.93690 0.75651 0.02764 0.03900
C 	C 	0.87247 0.08088 0.03941 -0.04900
C 	C 	0.87740 0.11987 0.00491 0.01200
C 	C 	0.91471 0.13102 0.96678 -0.05300
C 	C 	0.94562 0.10232 0.96248 -0.02100
C 	C 	0.93904 0.06174 0.99597 -0.02500
C 	C 	0.90295 0.05177 0.03485 -0.01700
C 	C 	0.84113 0.14663 0.00712 0.01700
H 	H 	0.91864 0.16085 0.93983 0.03700
H 	H 	0.97318 0.11022 0.93224 0.03600
H 	H 	0.89820 0.02117 0.06133 0.03900
H 	H 	0.84442 0.07256 0.06934 0.04200
C 	C 	0.77374 0.10608 0.00155 -0.05500
C 	C 	0.73881 0.13082 0.99885 -0.00000
C 	C 	0.77092 0.19629 0.00117 -0.08600
C 	C 	0.83851 0.23710 0.00884 0.00800
C 	C 	0.87345 0.21241 0.01197 -0.06300
H 	H 	0.74830 0.05523 0.99785 0.03900
H 	H 	0.68670 0.09882 0.99295 0.03200
H 	H 	0.86389 0.28781 0.01146 0.02900
H 	H 	0.92552 0.24423 0.01714 0.04300
C 	C 	0.19971 0.05340 0.92817 -0.04300
C 	C 	0.24868 0.11398 0.95698 0.00500
C 	C 	0.23267 0.14797 0.98661 -0.04600
C 	C 	0.16825 0.12029 0.98937 -0.02600
C 	C 	0.11935 0.05835 0.96249 -0.01700
C 	C 	0.13532 0.02578 0.93073 -0.02800
C 	C 	0.31669 0.13983 0.95915 0.02400
H 	H 	0.27025 0.19497 0.00877 0.04400
H 	H 	0.15665 0.14602 0.01392 0.04500
H 	H 	0.09795 0.97847 0.90898 0.04600
H 	H 	0.21165 0.02717 0.90471 0.04000
C 	C 	0.34218 0.11363 0.98581 -0.06800
C 	C 	0.40786 0.14121 0.99151 0.00900
C 	C 	0.44874 0.19540 0.97057 -0.08800
C 	C 	0.42242 0.21973 0.94182 0.01000
C 	C 	0.35677 0.19226 0.93642 -0.06600
H 	H 	0.31137 0.07283 0.00318 0.04900
H 	H 	0.42719 0.12158 0.01350 0.03800
H 	H 	0.45299 0.26064 0.92450 0.03300
H 	H 	0.33725 0.21226 0.91521 0.04600
