data_crystal

_cell_length_a 26.91389
_cell_length_b 24.90301
_cell_length_c 38.17484
_cell_angle_alpha 104.10943
_cell_angle_beta  115.97159
_cell_angle_gamma 111.20155

_symmetry_space_group_name_	'P 1'
_symmetry_space_group_name_H-M	'P 1'

loop_
_symmetry_equiv_pos_as_xyz
  x,y,z

loop_
_atom_site_label
_atom_site_type_symbol
_atom_site_fract_x
_atom_site_fract_y
_atom_site_fract_z
_atom_site_charge
Zn	Zn	0.13832 0.01780 0.42743 1.18500
C 	C 	0.38232 0.02012 0.55875 0.07500
H 	H 	0.80807 0.01221 0.43565 0.04500
N 	N 	0.78843 0.02148 0.59364 -0.12000
C 	C 	0.09170 0.01534 0.72535 0.05600
N 	N 	0.09274 0.02470 0.26577 -0.07800
H 	H 	0.21006 0.00732 0.95661 0.04400
H 	H 	0.99328 0.01331 0.00359 0.14100
C 	C 	0.33614 0.03779 0.54340 -0.05600
O 	O 	0.07187 0.01722 0.90164 -0.35300
N 	N 	0.11565 0.03670 0.30744 -0.06500
C 	C 	0.72137 0.01132 0.86499 0.16300
C 	C 	0.78843 0.04084 0.42294 -0.03100
H 	H 	0.97815 0.03024 0.59935 0.02500
N 	N 	0.00203 0.02405 0.77429 -0.06000
S 	S 	0.75578 0.04407 0.61690 0.06700
C 	C 	0.13549 0.03988 0.67596 0.02100
H 	H 	0.06249 0.04652 0.43006 0.15200
Zn	Zn	0.90400 0.02522 0.99698 1.19000
C 	C 	0.67252 0.02591 0.85108 -0.13200
S 	S 	0.26055 0.03595 0.78849 0.10800
C 	C 	0.04034 0.04358 0.20305 0.08500
C 	C 	0.14115 0.04924 0.64111 0.29500
O 	O 	0.15986 0.05980 0.39411 -0.44500
O 	O 	0.22486 0.05828 0.52310 -0.44900
N 	N 	0.03834 0.04028 0.75916 -0.08900
Zn	Zn	0.95673 0.03322 0.87227 1.18500
H 	H 	0.92024 0.05619 0.44425 0.02700
O 	O 	0.44791 0.06625 0.58053 -0.19500
H 	H 	0.47344 0.06217 0.63968 0.04100
C 	C 	0.83175 0.04169 0.92636 0.31000
O 	O 	0.94705 0.04068 0.05810 -0.47500
C 	C 	0.06836 0.05889 0.24961 0.10000
O 	O 	0.11001 0.06541 0.45080 -0.87700
C 	C 	0.98595 0.01382 0.11695 -0.02900
H 	H 	0.27459 0.04436 0.01409 0.04800
H 	H 	0.29559 0.04703 0.97573 0.04100
C 	C 	0.26099 0.04936 0.98365 -0.02700
O 	O 	0.01768 0.00570 0.55060 -0.47700
Zn	Zn	0.13482 0.07139 0.50776 1.21400
N 	N 	0.24654 0.06122 0.82493 -0.10400
H 	H 	0.78649 0.07257 0.44786 0.04200
O 	O 	0.97866 0.05577 0.93460 -0.80100
O 	O 	0.15767 0.07607 0.56432 -0.89600
O 	O 	0.82481 0.07743 0.41046 -0.18300
N 	N 	0.99636 0.06795 0.14584 -0.06700
C 	C 	0.78519 0.05977 0.90350 -0.12900
C 	C 	0.13117 0.06753 0.93441 0.31500
C 	C 	0.11465 0.08308 0.33410 0.03500
O 	O 	0.86128 0.06311 0.96921 -0.49400
H 	H 	0.35250 0.08801 0.54993 0.05300
N 	N 	0.12261 0.07729 0.73181 -0.06500
C 	C 	0.13423 0.09179 0.37850 0.28000
O 	O 	0.04565 0.08830 0.49301 -0.48400
H 	H 	0.60848 0.07570 0.90054 0.04300
N 	N 	0.02296 0.08251 0.18824 -0.06100
N 	N 	0.14436 0.08941 0.70757 -0.05800
C 	C 	0.47673 0.09758 0.62645 -0.02500
H 	H 	0.20516 0.09868 0.58756 0.16800
H 	H 	0.10965 0.09301 0.86630 0.06200
C 	C 	0.68799 0.08956 0.87332 0.01800
N 	N 	0.33213 0.09494 0.80562 -0.11200
C 	C 	0.17909 0.09609 0.92502 -0.12100
O 	O 	0.14805 0.10295 0.63858 -0.44900
Zn	Zn	0.11376 0.10418 0.58245 1.20200
C 	C 	0.93471 0.10638 0.46183 0.01300
N 	N 	0.06842 0.10611 0.27651 -0.07100
C 	C 	0.60217 0.09837 0.87934 -0.04500
Zn	Zn	0.06768 0.09992 0.96990 1.19000
O 	O 	0.14210 0.10103 0.97212 -0.45400
C 	C 	0.15946 0.10563 0.88761 -0.02400
C 	C 	0.63594 0.10397 0.85948 -0.00200
S 	S 	0.49167 0.12035 0.39090 0.09200
N 	N 	0.09102 0.11786 0.31813 -0.05800
O 	O 	0.26573 0.11000 0.99204 -0.20200
H 	H 	0.45467 0.12465 0.63421 0.03500
C 	C 	0.88797 0.12356 0.44788 0.06500
C 	C 	0.24435 0.11409 0.95318 0.16800
C 	C 	0.22081 0.00761 0.49818 0.28500
O 	O 	0.02582 0.11799 0.88455 -0.44200
C 	C 	0.30235 0.12215 0.85437 0.04000
H 	H 	0.73731 0.00511 0.39309 0.04500
H 	H 	0.54161 0.12459 0.89241 0.04100
O 	O 	0.12772 0.13275 0.40278 -0.41300
H 	H 	0.52951 0.13419 0.64395 0.04300
C 	C 	0.04377 0.13179 0.51928 0.38800
C 	C 	0.56375 0.12611 0.87455 -0.01400
C 	C 	0.80153 0.12444 0.92365 -0.02100
O 	O 	0.27200 0.13912 0.48539 -0.37800
C 	C 	0.20430 0.13278 0.87807 0.09600
C 	C 	0.62552 0.13161 0.83127 0.03900
N 	N 	0.47478 0.14511 0.42561 -0.11100
C 	C 	0.28886 0.14005 0.94309 -0.10800
O 	O 	0.18389 0.14065 0.84064 -0.17200
C 	C 	0.34914 0.14043 0.84394 0.06300
O 	O 	0.07292 0.14756 0.56132 -0.48700
C 	C 	0.75303 0.13934 0.90938 0.08800
N 	N 	0.65592 0.13938 0.81052 -0.11100
H 	H 	0.51892 0.15153 0.55933 0.05000
C 	C 	0.26832 0.14676 0.90459 0.00600
H 	H 	0.95341 0.14219 0.79197 0.02400
C 	C 	0.99877 0.15281 0.49994 -0.22100
Zn	Zn	0.16361 0.15787 0.46775 1.19700
H 	H 	0.03036 0.14923 0.82263 0.05500
H 	H 	0.33893 0.15340 0.96462 0.06700
H 	H 	0.54278 0.16154 0.52211 0.04800
O 	O 	0.13569 0.00227 0.61141 -0.41800
O 	O 	0.18732 0.16336 0.52809 -0.77700
C 	C 	0.58561 0.15900 0.82576 0.06100
C 	C 	0.55742 0.15913 0.84914 -0.04300
H 	H 	0.85145 0.16278 0.95159 0.04300
C 	C 	0.31344 0.16669 0.89156 0.00600
C 	C 	0.06962 0.17430 0.92200 0.33800
O 	O 	0.08276 0.17749 0.96023 -0.45500
C 	C 	0.00657 0.17786 0.81816 0.00800
N 	N 	0.55855 0.18337 0.40529 -0.11000
C 	C 	0.33350 0.18336 0.51852 0.32500
N 	N 	0.47814 0.18035 0.85496 -0.14000
S 	S 	0.62972 0.17912 0.78683 0.08600
C 	C 	0.55409 0.18584 0.55558 -0.03000
H 	H 	0.72641 0.18473 0.96146 0.04000
C 	C 	0.90678 0.18886 0.47041 0.03600
N 	N 	0.58247 0.18928 0.80016 -0.11100
O 	O 	0.31019 0.19320 0.44041 -0.19000
H 	H 	0.84411 0.19654 0.50879 0.04300
H 	H 	0.60351 0.19764 0.58036 0.04700
C 	C 	0.53015 0.20055 0.85250 0.13600
C 	C 	0.38419 0.20183 0.51028 -0.12400
O 	O 	0.83763 0.99860 0.90304 -0.43200
C 	C 	0.05608 0.99970 0.74517 0.14800
C 	C 	0.95629 0.99788 0.07023 0.33800
O 	O 	0.93032 0.99096 0.80947 -0.43200
O 	O 	0.94552 0.98993 0.98078 -0.87900
H 	H 	0.62267 0.98773 0.82296 0.09100
C 	C 	0.45708 0.22114 0.86239 0.13700
N 	N 	0.48798 0.28200 0.86714 -0.14000
C 	C 	0.54024 0.30247 0.86513 0.13900
N 	N 	0.56163 0.26202 0.85826 -0.13800
C 	C 	0.37084 0.22989 0.91821 -0.04800
C 	C 	0.41694 0.24779 0.90810 -0.01100
C 	C 	0.40668 0.20285 0.87105 -0.04400
H 	H 	0.38024 0.26514 0.94710 0.04200
H 	H 	0.46121 0.29637 0.92963 0.04000
C 	C 	0.64935 0.50358 0.89514 0.00400
C 	C 	0.67734 0.48042 0.92364 -0.04800
C 	C 	0.64181 0.41444 0.91340 -0.01100
C 	C 	0.57738 0.37039 0.87466 -0.04500
C 	C 	0.54923 0.39296 0.84629 0.06300
C 	C 	0.58570 0.45988 0.85636 0.04000
H 	H 	0.72646 0.51358 0.95396 0.04400
H 	H 	0.66430 0.39788 0.93593 0.03800
N 	N 	0.48923 0.35310 0.80638 -0.11300
N 	N 	0.55614 0.47589 0.82487 -0.10600
S 	S 	0.48713 0.40512 0.78745 0.08000
N 	N 	0.69653 0.27774 0.44949 -0.13900
C 	C 	0.67335 0.31643 0.45621 0.13800
N 	N 	0.70028 0.37614 0.45852 -0.13700
C 	C 	0.74895 0.39624 0.45272 0.13700
N 	N 	0.77160 0.35695 0.44576 -0.13900
C 	C 	0.74600 0.29805 0.44466 0.13900
C 	C 	0.53122 0.25442 0.48587 0.00600
C 	C 	0.58305 0.32051 0.50933 -0.04200
C 	C 	0.62846 0.34098 0.49886 -0.01200
C 	C 	0.62279 0.29578 0.46453 -0.04400
C 	C 	0.57134 0.23005 0.44112 0.06300
C 	C 	0.52558 0.20922 0.45211 0.03200
H 	H 	0.58790 0.35633 0.53542 0.04700
H 	H 	0.66841 0.39193 0.51785 0.04200
C 	C 	0.85765 0.20688 0.45850 -0.00600
C 	C 	0.84157 0.22680 0.42609 0.04100
C 	C 	0.80197 0.25461 0.41988 0.06000
C 	C 	0.77925 0.26210 0.44632 -0.04400
C 	C 	0.79306 0.23871 0.47735 -0.01400
C 	C 	0.83211 0.21179 0.48352 -0.04200
N 	N 	0.86679 0.22741 0.40190 -0.11200
N 	N 	0.79389 0.27809 0.39029 -0.11000
C 	C 	0.84667 0.59200 0.46951 0.00600
C 	C 	0.87872 0.55787 0.47643 -0.04100
C 	C 	0.84685 0.49444 0.47114 -0.01200
C 	C 	0.78162 0.46311 0.45822 -0.04300
C 	C 	0.74961 0.49722 0.45156 0.06200
C 	C 	0.78292 0.56258 0.45804 0.03200
H 	H 	0.87325 0.46985 0.47727 0.04300
N 	N 	0.68504 0.46993 0.43536 -0.11000
N 	N 	0.74625 0.58979 0.44759 -0.11400
S 	S 	0.83688 0.26202 0.37467 0.08800
S 	S 	0.67569 0.52992 0.43112 0.08900
H 	H 	0.77574 0.24371 0.49805 0.04200
N 	N 	0.33744 0.74467 0.97027 -0.13700
C 	C 	0.37282 0.71801 0.96829 0.13900
N 	N 	0.35378 0.65716 0.96451 -0.13800
C 	C 	0.29999 0.62329 0.96322 0.13900
N 	N 	0.26530 0.65042 0.96582 -0.13700
C 	C 	0.28340 0.71073 0.96880 0.13900
C 	C 	0.53943 0.81799 0.96576 0.00600
C 	C 	0.48769 0.75296 0.93285 -0.04600
C 	C 	0.43337 0.72066 0.93373 -0.01100
C 	C 	0.42908 0.75300 0.96718 -0.04100
C 	C 	0.47957 0.81812 0.99939 0.06000
C 	C 	0.53521 0.85080 0.99869 0.03800
H 	H 	0.48983 0.72695 0.90682 0.04500
H 	H 	0.39459 0.67042 0.90825 0.04600
N 	N 	0.48275 0.85213 0.03507 -0.10900
N 	N 	0.58454 0.91206 0.03366 -0.10100
C 	C 	0.16440 0.79202 0.96451 0.00700
C 	C 	0.13469 0.72538 0.93684 0.03400
C 	C 	0.17401 0.69803 0.93842 0.06400
C 	C 	0.24245 0.73772 0.96801 -0.04100
C 	C 	0.27176 0.80430 0.99690 -0.01300
C 	C 	0.23316 0.83110 0.99523 -0.04100
N 	N 	0.06964 0.68556 0.90262 -0.10900
N 	N 	0.14147 0.63560 0.90543 -0.10900
C 	C 	0.22237 0.42444 0.94253 0.00700
C 	C 	0.23352 0.47391 0.97769 -0.03800
C 	C 	0.26103 0.53922 0.98530 -0.01500
C 	C 	0.27832 0.55664 0.95804 -0.04100
C 	C 	0.27002 0.50830 0.92420 0.06400
C 	C 	0.24170 0.44160 0.91638 0.03400
H 	H 	0.21924 0.46155 0.99849 0.05100
H 	H 	0.26776 0.57602 0.01199 0.05000
N 	N 	0.27936 0.51851 0.89345 -0.11100
N 	N 	0.22781 0.39653 0.87928 -0.11300
S 	S 	0.55428 0.91989 0.06221 0.11000
S 	S 	0.06695 0.62003 0.87767 0.10500
S 	S 	0.25221 0.44383 0.85972 0.09500
H 	H 	0.32456 0.83565 0.02048 0.05200
H 	H 	0.25700 0.88277 0.01708 0.05700
N 	N 	0.57520 0.86921 0.57089 -0.13600
C 	C 	0.60655 0.83700 0.57094 0.13600
N 	N 	0.58291 0.77796 0.57011 -0.14100
C 	C 	0.52830 0.75148 0.56934 0.13700
N 	N 	0.49806 0.78464 0.57023 -0.13800
C 	C 	0.52162 0.84365 0.57121 0.14000
C 	C 	0.76284 0.91189 0.55434 -0.00500
C 	C 	0.72379 0.84430 0.53917 -0.04200
C 	C 	0.67417 0.82026 0.54571 -0.01500
C 	C 	0.66279 0.86339 0.56805 -0.04000
C 	C 	0.70299 0.93096 0.58446 0.05800
C 	C 	0.75239 0.95509 0.57678 0.06300
H 	H 	0.73139 0.81006 0.52190 0.04200
H 	H 	0.64379 0.76784 0.53253 0.04600
N 	N 	0.69837 0.97742 0.60814 -0.09800
C 	C 	0.40771 0.93273 0.55754 0.00600
C 	C 	0.42304 0.91102 0.58903 0.03600
C 	C 	0.46234 0.88296 0.59455 0.06400
C 	C 	0.48563 0.87689 0.56839 -0.04100
C 	C 	0.47124 0.90040 0.53746 -0.00900
C 	C 	0.43257 0.92785 0.53203 -0.03600
N 	N 	0.40550 0.91804 0.61762 -0.10900
N 	N 	0.47783 0.86678 0.62789 -0.11300
C 	C 	0.42939 0.55553 0.55066 0.00700
C 	C 	0.44710 0.61001 0.58629 -0.04300
C 	C 	0.48162 0.67420 0.59330 -0.01200
C 	C 	0.49969 0.68539 0.56503 -0.04500
C 	C 	0.48429 0.63169 0.53048 0.06300
C 	C 	0.44856 0.56620 0.52314 0.03300
H 	H 	0.43310 0.60267 0.60818 0.04700
H 	H 	0.49334 0.71512 0.62037 0.04000
N 	N 	0.49407 0.63642 0.49888 -0.11300
N 	N 	0.42892 0.51656 0.48558 -0.11100
S 	S 	0.44074 0.88865 0.64720 0.09800
S 	S 	0.45797 0.55877 0.46504 0.09400
H 	H 	0.48866 0.89608 0.51678 0.04800
H 	H 	0.42088 0.94409 0.50726 0.05700
O 	O 	0.00299 0.94322 0.94003 -0.40700
O 	O 	0.73201 0.89384 0.90512 -0.46300
C 	C 	0.99028 0.88416 0.91936 0.28000
Zn	Zn	0.27604 0.20901 0.56121 1.18600
O 	O 	0.17866 0.97716 0.45485 -0.44500
C 	C 	0.27244 0.30192 0.52724 0.33200
O 	O 	0.34833 0.21573 0.55791 -0.46900
O 	O 	0.22433 0.25199 0.48673 -0.44100
O 	O 	0.28960 0.29367 0.56259 -0.46300
N 	N 	0.10834 0.97869 0.67149 -0.03900
N 	N 	0.00056 0.92644 0.76220 -0.04000
N 	N 	0.00329 0.97482 0.13172 -0.02500
N 	N 	0.03025 0.98958 0.17421 -0.05400
C 	C 	0.31212 0.36669 0.53271 -0.12700
C 	C 	0.28260 0.39121 0.50597 0.16900
C 	C 	0.32179 0.45136 0.51026 -0.10500
C 	C 	0.38985 0.48842 0.54216 0.00700
C 	C 	0.41950 0.46312 0.56792 0.09100
C 	C 	0.38045 0.40335 0.56396 -0.02500
H 	H 	0.29900 0.47005 0.48964 0.07400
H 	H 	0.40357 0.38471 0.58447 0.04900
O 	O 	0.21562 0.35504 0.47422 -0.19500
O 	O 	0.48654 0.49923 0.59945 -0.19200
C 	C 	0.18674 0.37641 0.49279 -0.02400
H 	H 	0.20028 0.37366 0.52407 0.03500
H 	H 	0.13270 0.34362 0.46880 0.04800
H 	H 	0.19993 0.42714 0.49873 0.04300
C 	C 	0.51515 0.47831 0.58038 -0.02600
H 	H 	0.49853 0.42591 0.57103 0.04000
H 	H 	0.56905 0.50799 0.60546 0.04200
H 	H 	0.50523 0.48630 0.55118 0.04600
C 	C 	0.84016 0.93095 0.49253 0.17500
C 	C 	0.79336 0.91549 0.50177 -0.11600
C 	C 	0.81284 0.93592 0.54563 0.02000
C 	C 	0.87997 0.97603 0.58087 0.07900
H 	H 	0.74170 0.88524 0.47460 0.07300
O 	O 	0.81955 0.90690 0.44883 -0.20000
C 	C 	0.80732 0.84285 0.43319 -0.02300
H 	H 	0.85112 0.84163 0.45402 0.04000
H 	H 	0.79510 0.82534 0.39918 0.03900
H 	H 	0.76459 0.80817 0.43103 0.03800
H 	H 	0.87108 0.90339 0.61642 0.04200
C 	C 	0.26901 0.99029 0.51831 -0.07900
C 	C 	0.24807 0.92520 0.51017 0.15900
C 	C 	0.29403 0.90712 0.52422 -0.10300
C 	C 	0.36095 0.95402 0.54776 0.02800
H 	H 	0.27746 0.85626 0.51586 0.07500
O 	O 	0.18202 0.87781 0.48497 -0.20000
C 	C 	0.16333 0.87340 0.51387 -0.01200
H 	H 	0.18978 0.85763 0.53660 0.04400
H 	H 	0.17077 0.92053 0.53322 0.00200
C 	C 	0.18586 0.35515 0.93150 0.00900
C 	C 	0.21646 0.33120 0.95807 0.08900
C 	C 	0.17822 0.27107 0.95412 -0.02300
C 	C 	0.11018 0.23269 0.92181 -0.12700
C 	C 	0.08112 0.25255 0.89115 0.17100
C 	C 	0.11858 0.31497 0.89734 -0.10700
H 	H 	0.20145 0.25454 0.97641 0.05200
H 	H 	0.09507 0.33254 0.87607 0.07600
O 	O 	0.28319 0.36924 0.99065 -0.18700
O 	O 	0.01487 0.21336 0.85738 -0.20400
C 	C 	0.31435 0.35106 0.97292 -0.02800
H 	H 	0.29922 0.29893 0.96346 0.03900
H 	H 	0.36800 0.38194 0.99887 0.04600
H 	H 	0.30523 0.35993 0.94410 0.04400
H 	H 	0.02534 0.21103 0.80607 0.04300
C 	C 	0.69848 0.89692 0.95417 -0.11900
C 	C 	0.64038 0.89472 0.92756 0.16800
C 	C 	0.59143 0.87483 0.93484 -0.10500
C 	C 	0.59660 0.85052 0.96487 0.01000
C 	C 	0.65415 0.85221 0.99121 0.09300
C 	C 	0.70580 0.87784 0.98700 -0.02800
H 	H 	0.54805 0.87561 0.91562 0.07100
O 	O 	0.63357 0.91683 0.89682 -0.18800
O 	O 	0.66190 0.83322 0.02343 -0.17700
C 	C 	0.58941 0.86202 0.85381 -0.02000
H 	H 	0.60474 0.82622 0.85015 0.04200
H 	H 	0.58802 0.87939 0.82948 0.05200
H 	H 	0.53874 0.83715 0.84486 0.03800
C 	C 	0.64672 0.76818 0.00632 -0.02400
H 	H 	0.59588 0.73361 0.97557 0.04000
H 	H 	0.65003 0.75195 0.03143 0.04900
H 	H 	0.68263 0.76516 0.00014 0.04200
C 	C 	0.12531 0.82257 0.95818 0.00900
C 	C 	0.12969 0.86323 0.93828 0.09500
C 	C 	0.08912 0.88821 0.92949 -0.03200
C 	C 	0.04142 0.86972 0.93781 -0.10300
C 	C 	0.03789 0.83036 0.95864 0.18900
C 	C 	0.07967 0.80666 0.96855 -0.10800
H 	H 	0.09223 0.91895 0.91379 0.06100
H 	H 	0.07537 0.77453 0.98320 0.08100
O 	O 	0.17622 0.88149 0.92958 -0.18700
O 	O 	0.98899 0.80919 0.96501 -0.25000
C 	C 	0.14671 0.83891 0.88488 -0.03000
H 	H 	0.12694 0.78686 0.87773 0.05200
H 	H 	0.18464 0.85264 0.87840 0.05600
H 	H 	0.10761 0.84400 0.86175 0.05200
C 	C 	0.01319 0.85426 0.00768 0.04100
H 	H 	0.05628 0.85743 0.03415 0.03900
H 	H 	0.02552 0.90373 0.01079 0.01000
C 	C 	0.11964 0.29528 0.54539 -0.01100
H 	H 	0.12209 0.25932 0.52328 0.02000
H 	H 	0.17042 0.33205 0.57539 0.03900
C 	C 	0.88004 0.65749 0.47393 0.00700
C 	C 	0.88285 0.66387 0.43908 0.09100
O 	O 	0.85510 0.60871 0.40069 -0.18900
C 	C 	0.79281 0.59365 0.36816 -0.02700
H 	H 	0.75953 0.58296 0.37881 0.04800
H 	H 	0.77019 0.54872 0.33764 0.04600
H 	H 	0.79652 0.63362 0.35922 0.03700
C 	C 	0.37097 0.20631 0.47136 0.16800
C 	C 	0.41859 0.22108 0.46299 -0.10400
C 	C 	0.48047 0.23483 0.49406 0.00700
C 	C 	0.49382 0.23019 0.53286 0.09100
C 	C 	0.44607 0.21512 0.54126 -0.02200
H 	H 	0.40784 0.22335 0.43269 0.07500
H 	H 	0.45679 0.21245 0.57144 0.05200
O 	O 	0.55516 0.24478 0.56409 -0.18900
C 	C 	0.31408 0.25331 0.44743 -0.03200
H 	H 	0.33488 0.28481 0.48255 0.04600
H 	H 	0.26385 0.24277 0.42647 0.06600
H 	H 	0.34328 0.28035 0.43720 0.04800
O 	O 	0.70522 0.94812 0.84321 -0.20800
C 	C 	0.70965 0.94140 0.80709 -0.01700
H 	H 	0.67193 0.94536 0.78164 0.04100
H 	H 	0.70009 0.89179 0.79106 0.00700
C 	C 	0.74382 0.59849 0.90888 -0.10800
C 	C 	0.68627 0.57323 0.90684 0.00800
C 	C 	0.66419 0.61457 0.91613 0.09200
C 	C 	0.69621 0.67871 0.92308 -0.02000
H 	H 	0.76249 0.56767 0.90358 0.06800
H 	H 	0.67732 0.70940 0.92815 0.04700
O 	O 	0.60805 0.59063 0.91486 -0.18500
H 	H 	0.79205 0.62044 0.85573 0.03500
C 	C 	0.62589 0.60108 0.95772 -0.02700
H 	H 	0.58147 0.58606 0.95739 0.04500
H 	H 	0.66222 0.65377 0.98312 0.03500
C 	C 	0.19289 0.20334 0.85214 -0.03100
H 	H 	0.16365 0.20914 0.86455 0.04600
H 	H 	0.17531 0.20909 0.82187 0.05900
H 	H 	0.24564 0.24293 0.87687 0.04300
H 	H 	0.64506 0.57046 0.96735 0.04200
H 	H 	0.11027 0.83549 0.49362 0.05100
Zn	Zn	0.10783 0.98356 0.54749 1.19800
N 	N 	0.08684 0.96660 0.69591 -0.05500
N 	N 	0.03609 0.94222 0.74646 -0.07400
H 	H 	0.10147 0.32196 0.52902 0.03800
C 	C 	0.75241 0.70324 0.92353 -0.12600
O 	O 	0.08092 0.97991 0.48718 -0.76900
O 	O 	0.08119 0.26491 0.55875 -0.21800
O 	O 	0.74804 0.78111 0.89748 -0.46500
H 	H 	0.75047 0.88021 0.00807 0.06400
C 	C 	0.74984 0.91534 0.94613 0.33600
C 	C 	0.77657 0.66307 0.91663 0.16900
H 	H 	0.75953 0.97770 0.81800 0.02700
O 	O 	0.77022 0.20371 0.92830 -0.18600
C 	C 	0.77334 0.21872 0.96759 -0.02500
H 	H 	0.78284 0.26887 0.98101 0.04400
Zn	Zn	0.78026 0.86210 0.89082 1.17800
C 	C 	0.78285 0.76889 0.92791 0.34000
H 	H 	0.79482 0.69710 0.86287 0.02700
O 	O 	0.89970 0.99861 0.62435 -0.16900
H 	H 	0.90064 0.81705 0.55968 0.03900
C 	C 	0.90770 0.97345 0.52788 -0.13700
H 	H 	0.91097 0.70877 0.54105 0.07000
C 	C 	0.91251 0.71364 0.51404 -0.10500
O 	O 	0.81012 0.93607 0.97809 -0.46500
H 	H 	0.81451 0.21881 0.99338 0.03700
C 	C 	0.82078 0.67432 0.87811 -0.01900
O 	O 	0.05170 0.88856 0.52560 -0.41500
C 	C 	0.91996 0.72633 0.44525 -0.02600
H 	H 	0.92396 0.73097 0.41896 0.04500
O 	O 	0.83491 0.68842 0.92065 -0.19800
H 	H 	0.91969 0.86250 0.53163 0.03900
C 	C 	0.91282 0.95552 0.63911 -0.03500
O 	O 	0.84466 0.81362 0.96150 -0.44600
H 	H 	0.92848 0.58037 0.48586 0.04700
H 	H 	0.84832 0.93470 0.84147 0.15300
C 	C 	0.92677 0.99711 0.57192 0.00900
H 	H 	0.92069 0.96900 0.67181 0.06000
H 	H 	0.86772 0.69558 0.88155 0.04900
O 	O 	0.86247 0.88407 0.90928 -0.79700
C 	C 	0.94054 0.85272 0.55994 -0.02400
O 	O 	0.94198 0.97231 0.47878 -0.46300
C 	C 	0.94781 0.77619 0.51968 0.16400
C 	C 	0.95247 0.78251 0.48537 -0.12200
O 	O 	0.89450 0.94851 0.86173 -0.86400
Zn	Zn	0.89711 0.90412 0.97369 1.18800
C 	C 	0.95882 0.98930 0.51947 0.33600
O 	O 	0.96213 0.86218 0.45958 -0.46600
Zn	Zn	0.90988 0.88256 0.84253 1.18400
H 	H 	0.95838 0.96070 0.64379 0.05000
H 	H 	0.96982 0.89975 0.59080 0.05200
C 	C 	0.97184 0.23614 0.50677 -0.16900
Zn	Zn	0.92041 0.96969 0.92164 1.21900
O 	O 	0.98226 0.83099 0.56013 -0.19700
O 	O 	0.93911 0.84427 0.87804 -0.48800
O 	O 	0.93907 0.94091 0.04117 -0.42500
H 	H 	0.98629 0.28635 0.52430 0.07800
C 	C 	0.98978 0.84775 0.49097 0.31000
C 	C 	0.95054 0.95347 0.79829 0.29300
O 	O 	0.94886 0.90861 0.81108 -0.46100
Zn	Zn	0.99607 0.95175 0.46434 1.17400
C 	C 	0.01813 0.21863 0.52129 0.25500
C 	C 	0.98278 0.96701 0.77616 0.00600
H 	H 	0.97425 0.83670 0.01302 0.02000
