data_crystal

_cell_length_a 26.25848
_cell_length_b 26.09756
_cell_length_c 20.29486
_cell_angle_alpha 90.00089
_cell_angle_beta  90.00143
_cell_angle_gamma 89.99886

_symmetry_space_group_name_	'P 1'
_symmetry_space_group_name_H-M	'P 1'

loop_
_symmetry_equiv_pos_as_xyz
  x,y,z

loop_
_atom_site_label
_atom_site_type_symbol
_atom_site_fract_x
_atom_site_fract_y
_atom_site_fract_z
_atom_site_charge
Co	Co	0.31171 0.58405 0.54981 1.18700
O 	O 	0.37294 0.59740 0.61308 -0.34500
Co	Co	0.23780 0.52804 0.43860 1.18600
O 	O 	0.29538 0.51098 0.52281 -0.44300
O 	O 	0.27239 0.58818 0.40038 -0.40200
O 	O 	0.30272 0.57373 0.65431 -0.30900
C 	C 	0.32167 0.59596 0.40457 0.31500
O 	O 	0.30024 0.47463 0.42899 -0.32500
C 	C 	0.15869 0.47693 0.40001 0.26300
C 	C 	0.21804 0.62207 0.52284 0.27700
O 	O 	0.18016 0.51460 0.36986 -0.33400
O 	O 	0.18190 0.46846 0.45525 -0.30500
O 	O 	0.25869 0.64568 0.54330 -0.32400
O 	O 	0.22577 0.57285 0.52034 -0.42700
O 	O 	0.34548 0.59589 0.46236 -0.51000
C 	C 	0.34946 0.58563 0.66659 0.26800
C 	C 	0.32264 0.48230 0.48526 0.27500
H 	H 	0.38365 0.60158 0.46369 0.18800
Co	Co	0.56388 0.33209 0.53088 1.18800
O 	O 	0.57742 0.39367 0.46762 -0.34300
Co	Co	0.50796 0.25769 0.64175 1.18700
O 	O 	0.49117 0.31571 0.55755 -0.44200
O 	O 	0.56774 0.29233 0.68022 -0.39900
O 	O 	0.55386 0.32303 0.42637 -0.30700
C 	C 	0.57566 0.34189 0.67614 0.31700
O 	O 	0.45498 0.32056 0.65132 -0.32400
C 	C 	0.45681 0.17825 0.68011 0.26500
C 	C 	0.60160 0.23785 0.55790 0.27800
O 	O 	0.49428 0.19970 0.71039 -0.33000
O 	O 	0.44865 0.20161 0.62482 -0.30400
O 	O 	0.62512 0.27877 0.53761 -0.32200
O 	O 	0.55267 0.24559 0.56018 -0.42600
O 	O 	0.57539 0.36598 0.61845 -0.51000
C 	C 	0.56581 0.37002 0.41408 0.26700
C 	C 	0.46260 0.34311 0.59506 0.27500
H 	H 	0.58095 0.40441 0.61726 0.18900
Co	Co	0.67201 0.43949 0.04981 1.18700
O 	O 	0.61077 0.42614 0.11308 -0.34400
Co	Co	0.74592 0.49550 0.93860 1.18800
O 	O 	0.68834 0.51256 0.02282 -0.44600
O 	O 	0.71132 0.43537 0.90039 -0.39900
O 	O 	0.68100 0.44980 0.15431 -0.30700
C 	C 	0.66204 0.42758 0.90457 0.31700
O 	O 	0.68348 0.54891 0.92900 -0.32500
C 	C 	0.82503 0.54661 0.90003 0.26500
C 	C 	0.76567 0.40147 0.02284 0.27700
O 	O 	0.80356 0.50894 0.86987 -0.33100
O 	O 	0.80182 0.55507 0.95526 -0.30300
O 	O 	0.72502 0.37785 0.04330 -0.32300
O 	O 	0.75795 0.45069 0.02034 -0.42800
O 	O 	0.63823 0.42765 0.96236 -0.50800
C 	C 	0.63426 0.43791 0.16659 0.26800
C 	C 	0.66108 0.54124 0.98527 0.28300
H 	H 	0.60006 0.42197 0.96369 0.19000
Co	Co	0.41983 0.69145 0.03088 1.18700
O 	O 	0.40629 0.62987 0.96762 -0.34100
Co	Co	0.47576 0.76585 0.14177 1.18600
O 	O 	0.49254 0.70783 0.05756 -0.44300
O 	O 	0.41598 0.73121 0.18023 -0.40100
O 	O 	0.42986 0.70051 0.92638 -0.30600
C 	C 	0.40805 0.68165 0.17615 0.31600
O 	O 	0.52874 0.70297 0.15134 -0.32400
C 	C 	0.52692 0.84528 0.18013 0.26300
C 	C 	0.38212 0.78570 0.05791 0.27700
O 	O 	0.48945 0.82384 0.21041 -0.33400
O 	O 	0.53507 0.82193 0.12484 -0.30700
O 	O 	0.35860 0.74478 0.03762 -0.32500
O 	O 	0.43105 0.77795 0.06019 -0.42800
O 	O 	0.40832 0.65756 0.11846 -0.51100
C 	C 	0.41791 0.65352 0.91409 0.26700
C 	C 	0.52112 0.68043 0.09508 0.27500
H 	H 	0.40276 0.61913 0.11726 0.18800
Co	Co	0.07007 0.19863 0.29921 1.18600
O 	O 	0.09239 0.13922 0.36145 -0.34400
Co	Co	0.00348 0.26307 0.18876 1.18000
O 	O 	0.99580 0.20229 0.27180 -0.43300
O 	O 	0.06864 0.23980 0.15042 -0.40300
O 	O 	0.05660 0.20434 0.40326 -0.31000
C 	C 	0.08514 0.19240 0.15415 0.31600
O 	O 	0.96160 0.19211 0.17773 -0.31700
C 	C 	0.94076 0.33436 0.15319 0.26500
C 	C 	0.09055 0.29884 0.27553 0.27900
O 	O 	0.98143 0.32034 0.12272 -0.32700
O 	O 	0.93564 0.30773 0.20654 -0.30200
O 	O 	0.12088 0.26264 0.29560 -0.32300
O 	O 	0.04410 0.28192 0.27158 -0.43300
O 	O 	0.08818 0.16810 0.21153 -0.51300
C 	C 	0.07560 0.15969 0.41477 0.26800
C 	C 	0.97199 0.17069 0.23410 0.27600
H 	H 	0.09978 0.13106 0.21247 0.19000
Co	Co	0.80443 0.93289 0.28017 1.18500
O 	O 	0.86349 0.91069 0.21788 -0.34600
Co	Co	0.74056 0.99964 0.39117 1.17600
O 	O 	0.80088 0.00752 0.30808 -0.42800
O 	O 	0.76385 0.93402 0.42913 -0.40400
O 	O 	0.79880 0.94681 0.17615 -0.31200
C 	C 	0.81102 0.91762 0.42522 0.31400
O 	O 	0.81111 0.04178 0.40223 -0.31400
C 	C 	0.66956 0.06243 0.42713 0.26500
C 	C 	0.70482 0.91237 0.30391 0.27900
O 	O 	0.68363 0.02146 0.45738 -0.32300
O 	O 	0.69605 0.06790 0.37385 -0.29900
O 	O 	0.74070 0.88187 0.28348 -0.32300
O 	O 	0.72174 0.95905 0.30814 -0.43600
O 	O 	0.83482 0.91411 0.36763 -0.51300
C 	C 	0.84321 0.92777 0.16463 0.26700
C 	C 	0.83236 0.03132 0.34582 0.27600
H 	H 	0.87150 0.90205 0.36643 0.18900
Co	Co	0.17930 0.09064 0.78016 1.18800
O 	O 	0.12024 0.11283 0.71786 -0.34300
Co	Co	0.24317 0.02390 0.89116 1.19100
O 	O 	0.18285 0.01601 0.80807 -0.42300
O 	O 	0.21988 0.08952 0.92911 -0.39800
O 	O 	0.18493 0.07671 0.67614 -0.30500
C 	C 	0.17271 0.10592 0.92520 0.31700
O 	O 	0.17262 0.98176 0.90222 -0.32700
C 	C 	0.31417 0.96111 0.92712 0.24400
C 	C 	0.27891 0.11116 0.80389 0.27900
O 	O 	0.30010 0.00208 0.95737 -0.31300
O 	O 	0.28768 0.95564 0.87385 -0.31000
O 	O 	0.24303 0.14166 0.78346 -0.32200
O 	O 	0.26199 0.06448 0.80812 -0.42700
O 	O 	0.14891 0.10943 0.86761 -0.51000
C 	C 	0.14051 0.09575 0.66461 0.26900
C 	C 	0.15137 0.99222 0.84582 0.25200
H 	H 	0.11224 0.12149 0.86640 0.19100
Co	Co	0.91365 0.82490 0.79923 1.18800
O 	O 	0.89134 0.88431 0.86147 -0.34500
Co	Co	0.98024 0.76046 0.68877 1.19100
O 	O 	0.98793 0.82124 0.77182 -0.43100
O 	O 	0.91508 0.78373 0.65044 -0.39800
O 	O 	0.92713 0.81919 0.90328 -0.30500
C 	C 	0.89858 0.83113 0.65417 0.31600
O 	O 	0.02211 0.83142 0.67774 -0.32600
C 	C 	0.04296 0.68917 0.65320 0.26500
C 	C 	0.89318 0.72469 0.77556 0.27900
O 	O 	0.00228 0.70318 0.62274 -0.33900
O 	O 	0.04808 0.71580 0.70655 -0.31000
O 	O 	0.86285 0.76089 0.79562 -0.32300
O 	O 	0.93962 0.74160 0.77160 -0.42700
O 	O 	0.89554 0.85543 0.71156 -0.51100
C 	C 	0.90814 0.86384 0.91479 0.26800
C 	C 	0.01173 0.85283 0.73412 0.26200
H 	H 	0.88394 0.89246 0.71249 0.18900
C 	C 	0.11201 0.95887 0.81707 0.04900
N 	N 	0.10716 0.95537 0.75048 -0.06000
N 	N 	0.07442 0.92225 0.72378 -0.05300
C 	C 	0.04509 0.89222 0.76293 0.04700
N 	N 	0.04886 0.89681 0.82953 -0.05800
N 	N 	0.08210 0.92942 0.85623 -0.05300
C 	C 	0.89020 0.87932 0.97963 0.06300
N 	N 	0.85391 0.91606 0.98546 -0.04900
N 	N 	0.83821 0.93102 0.04477 -0.05100
C 	C 	0.85878 0.91000 0.09974 0.05900
N 	N 	0.89524 0.87344 0.09390 -0.04900
N 	N 	0.91055 0.85809 0.03459 -0.05000
C 	C 	0.83484 0.89595 0.48487 0.03300
N 	N 	0.87119 0.85913 0.47987 -0.05800
N 	N 	0.89172 0.83876 0.53393 -0.05100
C 	C 	0.87666 0.85475 0.59452 0.03400
N 	N 	0.84007 0.89133 0.59953 -0.05900
N 	N 	0.81939 0.91156 0.54547 -0.05400
C 	C 	0.09353 0.14421 0.47961 0.06100
N 	N 	0.12982 0.10747 0.48544 -0.04800
N 	N 	0.14552 0.09250 0.54475 -0.04600
C 	C 	0.12495 0.11352 0.59972 0.06200
N 	N 	0.08849 0.15008 0.59388 -0.04900
N 	N 	0.07318 0.16544 0.53457 -0.04800
C 	C 	0.10706 0.16878 0.09451 0.03300
N 	N 	0.09200 0.18478 0.03391 -0.05400
N 	N 	0.11254 0.16440 0.97986 -0.05600
C 	C 	0.14889 0.12759 0.98485 0.03800
N 	N 	0.16433 0.11198 0.04545 -0.05300
N 	N 	0.14365 0.13220 0.09951 -0.05700
C 	C 	0.93864 0.13131 0.26292 0.05100
N 	N 	0.90930 0.10128 0.22378 -0.04700
N 	N 	0.87657 0.06816 0.25049 -0.05100
C 	C 	0.87171 0.06466 0.31708 0.05200
N 	N 	0.90163 0.09411 0.35623 -0.04700
N 	N 	0.93487 0.12672 0.32952 -0.05200
C 	C 	0.36221 0.83585 0.03792 0.05100
N 	N 	0.31322 0.83937 0.01693 -0.04900
N 	N 	0.29823 0.87899 0.98043 -0.05100
C 	C 	0.33162 0.91656 0.96440 0.06900
N 	N 	0.37958 0.91508 0.98923 -0.05300
N 	N 	0.39491 0.87491 0.02475 -0.05500
C 	C 	0.56896 0.86835 0.21740 0.06500
N 	N 	0.59659 0.90718 0.19115 -0.05200
N 	N 	0.63764 0.92481 0.22254 -0.04800
C 	C 	0.65283 0.90343 0.28040 0.05200
N 	N 	0.62455 0.86525 0.30721 -0.05400
N 	N 	0.58278 0.84849 0.27666 -0.05200
C 	C 	0.81555 0.38154 0.04290 0.05400
N 	N 	0.81896 0.33260 0.06522 -0.04500
N 	N 	0.85856 0.31792 0.10158 -0.05000
C 	C 	0.89623 0.35156 0.11612 0.06800
N 	N 	0.89479 0.39941 0.09000 -0.05100
N 	N 	0.85464 0.41446 0.05465 -0.05100
C 	C 	0.62547 0.57836 0.01355 0.03800
N 	N 	0.62101 0.58268 0.08005 -0.05400
N 	N 	0.58803 0.61569 0.10629 -0.05100
C 	C 	0.55819 0.64482 0.06673 0.04500
N 	N 	0.56223 0.64007 0.00023 -0.05700
N 	N 	0.59562 0.60747 0.97399 -0.04700
C 	C 	0.88406 0.67246 0.79922 0.05600
N 	N 	0.90494 0.65733 0.85738 -0.04500
N 	N 	0.88698 0.61632 0.88897 -0.04900
C 	C 	0.84833 0.58865 0.86264 0.06800
N 	N 	0.82902 0.60233 0.80308 -0.05000
N 	N 	0.84609 0.64409 0.77231 -0.05300
C 	C 	0.65211 0.10698 0.46440 0.06900
N 	N 	0.60414 0.10847 0.48921 -0.05000
N 	N 	0.58881 0.14864 0.52473 -0.05000
C 	C 	0.62152 0.18770 0.53791 0.05500
N 	N 	0.67051 0.18417 0.51694 -0.04500
N 	N 	0.68550 0.14455 0.48045 -0.04900
C 	C 	0.58459 0.38664 0.34975 0.06200
N 	N 	0.62095 0.42349 0.34558 -0.04900
N 	N 	0.63754 0.43926 0.28694 -0.04900
C 	C 	0.61762 0.41919 0.23095 0.06200
N 	N 	0.58102 0.38259 0.23513 -0.04900
N 	N 	0.56503 0.36621 0.29377 -0.04900
C 	C 	0.59351 0.36891 0.73539 0.03400
N 	N 	0.62985 0.40571 0.73063 -0.05600
N 	N 	0.65043 0.42578 0.78482 -0.05100
C 	C 	0.63499 0.40991 0.84531 0.03400
N 	N 	0.59802 0.37376 0.85007 -0.05600
N 	N 	0.57771 0.35340 0.79589 -0.05100
C 	C 	0.33090 0.12010 0.78037 0.05600
N 	N 	0.34608 0.09873 0.72250 -0.04400
N 	N 	0.38712 0.11637 0.69111 -0.04800
C 	C 	0.41476 0.15518 0.71738 0.06800
N 	N 	0.40096 0.17502 0.77665 -0.05000
N 	N 	0.35919 0.15827 0.80720 -0.05200
C 	C 	0.08748 0.67197 0.61612 0.06500
N 	N 	0.12514 0.70561 0.60157 -0.05100
N 	N 	0.16474 0.69093 0.56521 -0.04700
C 	C 	0.16816 0.64199 0.54290 0.05200
N 	N 	0.12908 0.60907 0.55465 -0.05200
N 	N 	0.08893 0.62412 0.59001 -0.05300
C 	C 	0.36609 0.60435 0.73095 0.06100
N 	N 	0.34617 0.58428 0.78694 -0.04900
N 	N 	0.36277 0.60005 0.84558 -0.04900
C 	C 	0.39913 0.63690 0.84976 0.06200
N 	N 	0.41869 0.65733 0.79378 -0.04900
N 	N 	0.40269 0.64095 0.73514 -0.05000
C 	C 	0.39020 0.65463 0.23540 0.03300
N 	N 	0.40599 0.67014 0.29589 -0.05200
N 	N 	0.38569 0.64979 0.35008 -0.05700
C 	C 	0.34872 0.61363 0.34531 0.03300
N 	N 	0.33328 0.59776 0.28481 -0.05200
N 	N 	0.35386 0.61783 0.23062 -0.05700
C 	C 	0.42552 0.37871 0.56672 0.04500
N 	N 	0.42148 0.38347 0.50022 -0.05500
N 	N 	0.38810 0.41607 0.47398 -0.05100
C 	C 	0.35825 0.44518 0.51354 0.04500
N 	N 	0.36271 0.44086 0.58004 -0.05500
N 	N 	0.39569 0.40785 0.60628 -0.05100
C 	C 	0.13539 0.43489 0.36263 0.06600
N 	N 	0.09673 0.40722 0.38894 -0.05100
N 	N 	0.07878 0.36621 0.35734 -0.04700
C 	C 	0.09967 0.35107 0.29919 0.05300
N 	N 	0.13765 0.37943 0.27230 -0.05400
N 	N 	0.15472 0.42119 0.30308 -0.05100
