data_crystal

_cell_length_a 24.18715
_cell_length_b 22.64943
_cell_length_c 30.22326
_cell_angle_alpha 90.00000
_cell_angle_beta  90.00000
_cell_angle_gamma 113.85090

_symmetry_space_group_name_	'P 1'
_symmetry_space_group_name_H-M	'P 1'

loop_
_symmetry_equiv_pos_as_xyz
  x,y,z

loop_
_atom_site_label
_atom_site_type_symbol
_atom_site_fract_x
_atom_site_fract_y
_atom_site_fract_z
_atom_site_charge
Zn	Zn	0.03874 0.00937 0.93812 1.19600
Zn	Zn	0.05756 0.06522 0.03247 1.22400
H 	H 	0.96944 0.04680 0.98234 0.18300
C 	C 	0.13339 0.99992 0.00374 0.27300
O 	O 	0.99372 0.02177 0.98933 -0.76600
O 	O 	0.98386 0.92014 0.91882 -0.48000
O 	O 	0.11636 0.08695 0.93150 -0.46200
O 	O 	0.10109 0.14432 0.98904 -0.41500
O 	O 	0.12820 0.04268 0.03111 -0.41700
O 	O 	0.06289 0.12964 0.07720 -0.43800
O 	O 	0.08848 0.96628 0.97722 -0.43100
C 	C 	0.97283 0.86797 0.94271 0.32400
C 	C 	0.13213 0.14099 0.95416 0.31200
Zn	Zn	0.05084 0.57298 0.96937 1.22100
C 	C 	0.98933 0.37137 0.05550 0.35500
Zn	Zn	0.04491 0.51429 0.06260 1.18700
O 	O 	0.11800 0.59777 0.06861 -0.46800
O 	O 	0.09039 0.65069 0.01432 -0.41900
O 	O 	0.12787 0.56121 0.96650 -0.43900
O 	O 	0.04711 0.63871 0.92855 -0.45500
O 	O 	0.09752 0.48115 0.01856 -0.43200
H 	H 	0.96607 0.54346 0.02413 0.17400
O 	O 	0.99284 0.52242 0.01455 -0.78300
O 	O 	0.99922 0.42165 0.08125 -0.46700
C 	C 	0.12809 0.65069 0.04561 0.31100
C 	C 	0.13934 0.52043 0.99205 0.31000
Zn	Zn	0.44686 0.92615 0.97119 1.21800
Zn	Zn	0.56249 0.99500 0.89713 1.17900
C 	C 	0.51910 0.13242 0.05294 0.32800
Zn	Zn	0.55256 0.06208 0.98141 1.22900
Zn	Zn	0.45523 0.99150 0.06239 1.18200
H 	H 	0.47891 0.03108 0.91897 0.17700
C 	C 	0.64201 0.00890 0.98024 0.33400
O 	O 	0.37702 0.91418 0.06818 -0.47600
O 	O 	0.39913 0.85198 0.01750 -0.41000
O 	O 	0.50079 0.00850 0.93448 -0.76600
O 	O 	0.52295 0.90078 0.88255 -0.47000
O 	O 	0.37426 0.94615 0.96521 -0.44100
O 	O 	0.44738 0.85501 0.93351 -0.44000
O 	O 	0.41138 0.02970 0.01424 -0.39300
O 	O 	0.63626 0.07843 0.89301 -0.45000
H 	H 	0.52933 0.95156 0.02800 0.17000
O 	O 	0.59814 0.13644 0.93545 -0.40600
O 	O 	0.50564 0.97520 0.01668 -0.81000
O 	O 	0.50721 0.08293 0.07971 -0.45800
O 	O 	0.63027 0.05726 0.99484 -0.44200
O 	O 	0.53400 0.12949 0.01135 -0.43600
O 	O 	0.60519 0.96715 0.95209 -0.46500
C 	C 	0.36294 0.85863 0.04766 0.31100
C 	C 	0.49347 0.85388 0.91058 0.31100
C 	C 	0.36736 0.99189 0.98857 0.27000
C 	C 	0.64104 0.13389 0.91000 0.30700
Zn	Zn	0.55087 0.56141 0.01842 1.22200
Zn	Zn	0.45609 0.48348 0.93776 1.19300
C 	C 	0.48164 0.36102 0.09355 0.30200
Zn	Zn	0.43930 0.43266 0.03358 1.22300
Zn	Zn	0.55856 0.49974 0.10626 1.19000
H 	H 	0.52355 0.44274 0.98153 0.17600
C 	C 	0.36812 0.50306 0.00482 0.30800
O 	O 	0.63191 0.58364 0.10934 -0.46500
O 	O 	0.59828 0.63986 0.06099 -0.40900
O 	O 	0.50185 0.47049 0.98836 -0.79300
O 	O 	0.51332 0.57052 0.91658 -0.47300
O 	O 	0.62808 0.55366 0.00671 -0.44400
O 	O 	0.53361 0.62500 0.98254 -0.43700
O 	O 	0.60312 0.46855 0.05406 -0.42900
O 	O 	0.37571 0.40870 0.93379 -0.47000
H 	H 	0.47935 0.54111 0.08148 0.17000
O 	O 	0.39010 0.35273 0.99252 -0.41600
O 	O 	0.49861 0.51479 0.06731 -0.79000
O 	O 	0.51980 0.40447 0.12038 -0.45000
O 	O 	0.37124 0.46029 0.03313 -0.44200
O 	O 	0.43369 0.36839 0.07880 -0.44100
O 	O 	0.41288 0.53289 0.97740 -0.42400
C 	C 	0.63886 0.63810 0.08932 0.30600
C 	C 	0.52515 0.62374 0.93940 0.32700
C 	C 	0.64022 0.50764 0.02491 0.30900
C 	C 	0.35892 0.35560 0.95766 0.31500
C 	C 	0.55711 0.79092 0.90132 0.02700
C 	C 	0.56499 0.73497 0.90788 0.03500
C 	C 	0.51556 0.67741 0.91872 -0.10000
C 	C 	0.45689 0.67564 0.91632 -0.00400
H 	H 	0.41796 0.63101 0.92248 0.03500
C 	C 	0.44885 0.73300 0.91018 -0.00600
H 	H 	0.40373 0.73205 0.91119 0.04300
C 	C 	0.49959 0.79192 0.90593 -0.09300
C 	C 	0.60965 0.82987 0.92978 -0.08300
H 	H 	0.61116 0.74998 0.97228 0.06100
H 	H 	0.59597 0.84721 0.96051 0.05300
H 	H 	0.66103 0.76744 0.92206 0.04400
H 	H 	0.64696 0.86686 0.91074 0.04200
C 	C 	0.61874 0.76629 0.93722 -0.09000
C 	C 	0.52645 0.22032 0.10597 0.03600
C 	C 	0.51827 0.27562 0.11542 0.03700
C 	C 	0.48674 0.29896 0.08581 -0.09300
C 	C 	0.45990 0.26231 0.04809 -0.01800
H 	H 	0.43428 0.27827 0.02539 0.04000
C 	C 	0.46921 0.20689 0.03813 0.00000
H 	H 	0.45164 0.18145 0.00747 0.03600
C 	C 	0.50375 0.18627 0.06649 -0.10200
C 	C 	0.59231 0.25009 0.11676 -0.08700
H 	H 	0.60792 0.35308 0.10443 0.05100
H 	H 	0.62214 0.25581 0.08758 0.04900
H 	H 	0.58896 0.32570 0.16324 0.04300
H 	H 	0.60340 0.22794 0.14641 0.04500
C 	C 	0.58308 0.31284 0.12754 -0.08500
C 	C 	0.72365 0.22225 0.86999 0.02900
C 	C 	0.69980 0.18918 0.90953 -0.08900
H 	H 	0.74436 0.14568 0.83963 0.05400
H 	H 	0.71134 0.18887 0.80180 0.04000
C 	C 	0.73962 0.19127 0.83130 -0.08400
C 	C 	0.28862 0.75424 0.07771 0.03200
C 	C 	0.23186 0.70511 0.07804 0.04100
C 	C 	0.18537 0.70825 0.05138 -0.09600
C 	C 	0.19769 0.76308 0.02469 -0.00700
H 	H 	0.16297 0.76660 0.00356 0.04300
C 	C 	0.25551 0.81288 0.02433 -0.00700
H 	H 	0.26500 0.85385 0.00274 0.04000
C 	C 	0.30118 0.80902 0.05118 -0.09300
C 	C 	0.29299 0.75796 0.12696 -0.08800
H 	H 	0.19381 0.71843 0.14115 0.03800
H 	H 	0.29416 0.80398 0.14082 0.03800
H 	H 	0.22740 0.65686 0.14119 0.03700
H 	H 	0.32815 0.74262 0.13991 0.03400
C 	C 	0.22836 0.70271 0.12740 -0.08600
C 	C 	0.69234 0.45015 0.98319 0.02800
C 	C 	0.69522 0.49950 0.01242 -0.09600
C 	C 	0.65531 0.38028 0.99199 -0.08200
H 	H 	0.61825 0.35855 0.96753 0.04100
H 	H 	0.64183 0.36921 0.02722 0.05300
C 	C 	0.71326 0.36937 0.98018 -0.08500
C 	C 	0.23843 0.54824 0.02968 0.03800
C 	C 	0.29266 0.54294 0.03320 0.03500
C 	C 	0.31167 0.51200 0.00003 -0.09400
C 	C 	0.27837 0.49402 0.96051 -0.00700
H 	H 	0.29507 0.47533 0.93299 0.02800
C 	C 	0.22222 0.49810 0.95725 -0.00500
H 	H 	0.19508 0.48105 0.92768 0.02400
C 	C 	0.20041 0.52172 0.99311 -0.09300
C 	C 	0.22065 0.52699 0.07624 -0.09000
H 	H 	0.27616 0.46916 0.08439 0.05300
H 	H 	0.18107 0.48017 0.07908 0.04300
H 	H 	0.31423 0.55543 0.10333 0.03800
H 	H 	0.21862 0.56623 0.09721 0.04300
C 	C 	0.28213 0.52018 0.08002 -0.08600
H 	H 	0.71711 0.68524 0.02168 0.03700
C 	C 	0.69784 0.69292 0.09081 -0.09100
H 	H 	0.69703 0.70488 0.19857 0.03200
C 	C 	0.29826 0.23758 0.95527 0.03900
C 	C 	0.24367 0.18588 0.95397 0.04000
C 	C 	0.19034 0.19421 0.94524 -0.09800
C 	C 	0.19333 0.25674 0.93835 -0.00800
H 	H 	0.15233 0.26445 0.93367 0.02700
C 	C 	0.24940 0.30969 0.93890 -0.00600
H 	H 	0.25127 0.35785 0.93451 0.03400
C 	C 	0.30243 0.30030 0.94733 -0.09900
C 	C 	0.32861 0.20588 0.92668 -0.08600
H 	H 	0.26659 0.10381 0.94218 0.05900
H 	H 	0.36361 0.19553 0.94493 0.04500
H 	H 	0.24587 0.13814 0.89135 0.05200
H 	H 	0.34288 0.22948 0.89388 0.04100
C 	C 	0.26621 0.14700 0.92502 -0.08800
C 	C 	0.69539 0.94131 0.00509 -0.03100
C 	C 	0.69727 0.00236 0.99427 -0.03800
H 	H 	0.65388 0.93482 0.07036 0.02200
H 	H 	0.62433 0.85874 0.03662 0.03400
C 	C 	0.66326 0.90443 0.04501 -0.06300
C 	C 	0.29063 0.01655 0.03066 0.06100
C 	C 	0.23383 0.01494 0.03570 0.07000
C 	C 	0.19077 0.99136 0.00162 -0.13000
C 	C 	0.20504 0.96363 0.96394 -0.00600
H 	H 	0.17219 0.94362 0.93775 0.02600
C 	C 	0.26327 0.96524 0.95891 -0.01300
H 	H 	0.27431 0.94519 0.92936 0.03000
C 	C 	0.30724 0.99389 0.99173 -0.12300
C 	C 	0.32131 0.08475 0.04607 -0.08800
H 	H 	0.24766 0.11677 0.03023 0.06400
H 	H 	0.34649 0.11876 0.01939 0.05600
H 	H 	0.24511 0.08512 0.08790 0.05300
H 	H 	0.34628 0.08914 0.07762 0.04900
C 	C 	0.25677 0.08277 0.05255 -0.09200
C 	C 	0.97567 0.81105 0.92154 -0.08400
C 	C 	0.03142 0.81326 0.90656 -0.01900
H 	H 	0.07051 0.85886 0.90490 0.02500
C 	C 	0.03803 0.75568 0.89799 -0.02000
H 	H 	0.08214 0.75726 0.88955 0.03700
H 	H 	0.83824 0.72056 0.95494 0.04500
H 	H 	0.84925 0.62087 0.93894 0.05300
C 	C 	0.05312 0.24710 0.06172 0.03100
C 	C 	0.04809 0.30412 0.05399 0.05400
C 	C 	0.00071 0.31661 0.07241 -0.14700
C 	C 	0.11891 0.27900 0.07246 -0.08000
H 	H 	0.13864 0.37054 0.03471 0.05600
H 	H 	0.14744 0.26869 0.04736 0.05900
H 	H 	0.11951 0.37303 0.09492 0.04400
H 	H 	0.12960 0.27285 0.10753 0.05200
C 	C 	0.11294 0.34404 0.06415 -0.09400
Zn	Zn	0.95172 0.93179 0.02184 1.22000
C 	C 	0.01515 0.13617 0.09323 0.28300
Zn	Zn	0.94349 0.99561 0.10835 1.18100
O 	O 	0.87304 0.90888 0.11342 -0.46800
O 	O 	0.91119 0.85508 0.06672 -0.41100
O 	O 	0.87139 0.93254 0.01173 -0.44600
O 	O 	0.97174 0.87029 0.98623 -0.43800
O 	O 	0.89496 0.02069 0.05599 -0.38700
H 	H 	0.02649 0.96012 0.08315 0.16600
O 	O 	0.00429 0.98333 0.06884 -0.82000
O 	O 	0.97792 0.09185 0.12015 -0.41700
C 	C 	0.86836 0.85502 0.09347 0.30800
C 	C 	0.85799 0.97873 0.02816 0.28300
Zn	Zn	0.93860 0.49440 0.89437 1.19400
Zn	Zn	0.95253 0.43349 0.98076 1.22600
H 	H 	0.02719 0.46779 0.91904 0.17000
C 	C 	0.85437 0.47431 0.97604 0.30900
O 	O 	0.00245 0.48804 0.93346 -0.80200
O 	O 	0.96963 0.58875 0.88000 -0.45600
O 	O 	0.87057 0.40672 0.88967 -0.46100
O 	O 	0.91193 0.35585 0.93601 -0.40400
O 	O 	0.87130 0.43083 0.99306 -0.44300
O 	O 	0.97898 0.37339 0.01287 -0.43800
O 	O 	0.88912 0.51680 0.94740 -0.43000
C 	C 	0.99840 0.63634 0.90771 0.32500
C 	C 	0.86830 0.35379 0.90934 0.31000
C 	C 	0.77809 0.27476 0.86983 0.03600
C 	C 	0.73029 0.21281 0.94950 -0.00800
H 	H 	0.71102 0.18987 0.98058 0.03900
C 	C 	0.78630 0.26553 0.94927 -0.00400
H 	H 	0.80977 0.28325 0.98022 0.03800
C 	C 	0.81133 0.29591 0.90915 -0.09300
C 	C 	0.80145 0.25109 0.83100 -0.08700
H 	H 	0.84022 0.23840 0.83904 0.04700
H 	H 	0.80769 0.28220 0.80136 0.04000
C 	C 	0.74328 0.44060 0.97296 0.03600
C 	C 	0.79929 0.47950 0.99188 -0.09700
C 	C 	0.80350 0.53142 0.01911 -0.00800
H 	H 	0.84682 0.56368 0.03239 0.02000
C 	C 	0.75150 0.54165 0.02917 -0.00900
H 	H 	0.75478 0.58129 0.05061 0.03400
H 	H 	0.70856 0.34175 0.94899 0.05300
H 	H 	0.73159 0.35218 0.00886 0.05400
C 	C 	0.71738 0.73038 0.12933 0.02500
C 	C 	0.77207 0.78258 0.13024 0.03400
C 	C 	0.80966 0.79917 0.09275 -0.09600
C 	C 	0.78863 0.76477 0.05316 -0.00500
H 	H 	0.81526 0.77923 0.02317 0.03400
C 	C 	0.73279 0.71191 0.05220 -0.01000
C 	C 	0.72838 0.70376 0.17202 -0.08500
H 	H 	0.82956 0.74938 0.17018 0.04100
H 	H 	0.73331 0.65722 0.16839 0.04600
H 	H 	0.79379 0.79761 0.20025 0.03300
C 	C 	0.79048 0.76320 0.17313 -0.08700
C 	C 	0.74735 0.93323 0.01399 0.07200
C 	C 	0.75348 0.05512 0.99091 -0.03800
H 	H 	0.75601 0.10198 0.98075 0.04800
C 	C 	0.80664 0.04711 0.00057 0.05700
H 	H 	0.84984 0.08821 0.99888 0.02300
C 	C 	0.80360 0.98619 0.01321 -0.15600
C 	C 	0.72215 0.89444 0.05482 -0.10500
H 	H 	0.74486 0.91853 0.08588 0.04900
H 	H 	0.71599 0.84336 0.05109 0.05800
C 	C 	0.93116 0.69553 0.91216 0.02900
C 	C 	0.92485 0.75176 0.92104 0.03300
C 	C 	0.98864 0.69612 0.90404 -0.07900
C 	C 	0.89209 0.66030 0.95007 -0.08100
H 	H 	0.90577 0.74561 0.99251 0.06400
H 	H 	0.91690 0.64702 0.97658 0.04700
C 	C 	0.88503 0.72436 0.96028 -0.08900
C 	C 	0.95681 0.26862 0.09807 0.02500
H 	H 	0.91815 0.27600 0.11066 0.02300
C 	C 	0.96196 0.20992 0.10621 0.00200
H 	H 	0.92754 0.17284 0.12550 0.03900
C 	C 	0.01122 0.19938 0.08871 -0.10600
