data_crystal

_cell_length_a 21.01355
_cell_length_b 18.65882
_cell_length_c 50.04085
_cell_angle_alpha 90.67104
_cell_angle_beta  91.49367
_cell_angle_gamma 111.07155

_symmetry_space_group_name_	'P 1'
_symmetry_space_group_name_H-M	'P 1'

loop_
_symmetry_equiv_pos_as_xyz
  x,y,z

loop_
_atom_site_label
_atom_site_type_symbol
_atom_site_fract_x
_atom_site_fract_y
_atom_site_fract_z
_atom_site_charge
Ni	Ni	0.72163 0.32151 0.89665 1.10000
O 	O 	0.63579 0.25052 0.87689 -0.70300
Ni	Ni	0.56341 0.26476 0.89904 1.10400
O 	O 	0.78102 0.29435 0.86960 -0.36100
O 	O 	0.73094 0.16619 0.87837 -0.40100
O 	O 	0.71247 0.40371 0.87168 -0.38200
Ni	Ni	0.62579 0.14319 0.87389 1.06600
O 	O 	0.75826 0.42558 0.95327 -0.38100
O 	O 	0.61319 0.12207 0.91365 -0.40800
O 	O 	0.48275 0.20257 0.87452 -0.35000
O 	O 	0.64957 0.32028 0.92220 -0.69700
O 	O 	0.80723 0.40075 0.91490 -0.37000
O 	O 	0.50201 0.30962 0.91963 -0.35100
O 	O 	0.58184 0.43044 0.91739 -0.39300
Ni	Ni	0.67069 0.42586 0.93500 1.09300
H 	H 	0.63217 0.26943 0.85872 0.15000
H 	H 	0.65242 0.28827 0.93749 0.16600
C 	C 	0.55525 0.11635 0.92438 0.30200
O 	O 	0.72733 0.49122 0.90552 -0.37000
C 	C 	0.77772 0.22300 0.86621 0.24500
C 	C 	0.48603 0.14451 0.85974 0.24500
C 	C 	0.71672 0.47218 0.88006 0.27200
C 	C 	0.52200 0.38387 0.92501 0.28800
C 	C 	0.81219 0.42502 0.94014 0.30000
O 	O 	0.53689 0.17649 0.92572 -0.35000
O 	O 	0.52186 0.10297 0.86830 -0.39600
Ni	Ni	0.61295 0.29408 0.49911 1.10100
O 	O 	0.69823 0.31783 0.47689 -0.70100
Ni	Ni	0.76100 0.28984 0.50232 1.10100
O 	O 	0.57288 0.36132 0.47744 -0.35800
O 	O 	0.67263 0.46414 0.48174 -0.40700
O 	O 	0.55672 0.20375 0.47366 -0.35600
Ni	Ni	0.74413 0.42375 0.46591 1.08300
O 	O 	0.52655 0.13804 0.52436 -0.39600
O 	O 	0.81061 0.47372 0.49741 -0.37100
O 	O 	0.85434 0.33557 0.48421 -0.36300
O 	O 	0.67060 0.25237 0.52184 -0.70100
O 	O 	0.53143 0.26337 0.52308 -0.37100
O 	O 	0.80366 0.23568 0.52887 -0.35800
O 	O 	0.71646 0.12080 0.52105 -0.39100
Ni	Ni	0.62559 0.14153 0.52282 1.06600
H 	H 	0.68844 0.28322 0.46095 0.17700
H 	H 	0.67560 0.27459 0.54018 0.15200
C 	C 	0.80025 0.45282 0.52233 0.26300
O 	O 	0.61999 0.12981 0.48247 -0.40300
C 	C 	0.60815 0.43434 0.47387 0.29200
C 	C 	0.86784 0.38577 0.46459 0.30100
C 	C 	0.57144 0.14212 0.46871 0.31000
C 	C 	0.77291 0.16254 0.53431 0.24600
C 	C 	0.50725 0.19420 0.53342 0.25000
O 	O 	0.78673 0.38098 0.52882 -0.38200
O 	O 	0.81822 0.39366 0.44963 -0.38500
Ni	Ni	0.01863 0.95786 0.73332 1.09400
O 	O 	0.02998 0.88129 0.70619 -0.71000
Ni	Ni	0.06758 0.95000 0.67558 1.09500
O 	O 	0.97816 0.87424 0.76081 -0.36400
O 	O 	0.89827 0.79594 0.73123 -0.40600
O 	O 	0.11320 0.97262 0.75044 -0.36400
Ni	Ni	0.94184 0.80557 0.69395 1.06300
O 	O 	0.11877 0.11506 0.75419 -0.39700
O 	O 	0.89987 0.88608 0.68496 -0.40700
O 	O 	0.07740 0.86698 0.65089 -0.37400
O 	O 	0.05022 0.02669 0.70183 -0.69300
O 	O 	0.00769 0.03760 0.75893 -0.38000
O 	O 	0.12550 0.03052 0.64991 -0.35700
O 	O 	0.16700 0.14033 0.67527 -0.39500
Ni	Ni	0.13291 0.11264 0.71384 1.06600
H 	H 	0.06168 0.85624 0.71255 0.15400
H 	H 	0.01462 0.04625 0.69556 0.15500
C 	C 	0.92285 0.93535 0.66580 0.25600
O 	O 	0.18358 0.03882 0.71777 -0.41600
C 	C 	0.93413 0.80591 0.75382 0.25100
C 	C 	0.02543 0.80182 0.64687 0.25600
C 	C 	0.16973 0.98836 0.73695 0.24600
C 	C 	0.17733 0.09040 0.65885 0.26000
C 	C 	0.05920 0.10092 0.76523 0.25900
O 	O 	0.98038 0.94275 0.65431 -0.36200
O 	O 	0.96426 0.79509 0.65500 -0.40100
Ni	Ni	0.24018 0.65020 0.39480 1.10100
O 	O 	0.32809 0.70457 0.37508 -0.70300
Ni	Ni	0.39828 0.69971 0.40183 1.10200
O 	O 	0.18331 0.66334 0.36284 -0.36200
O 	O 	0.24043 0.79345 0.36349 -0.39500
O 	O 	0.24273 0.55265 0.37691 -0.39600
Ni	Ni	0.34445 0.81105 0.36704 1.06600
O 	O 	0.20046 0.56368 0.45251 -0.39100
O 	O 	0.34544 0.84250 0.40623 -0.40000
O 	O 	0.48077 0.74684 0.37858 -0.36600
O 	O 	0.31116 0.65791 0.42315 -0.69900
O 	O 	0.15121 0.58796 0.41333 -0.37500
O 	O 	0.45590 0.66289 0.42820 -0.35600
O 	O 	0.37617 0.54168 0.42614 -0.40300
Ni	Ni	0.28877 0.55684 0.43930 1.08000
H 	H 	0.33043 0.67611 0.35853 0.15400
H 	H 	0.31021 0.69589 0.43697 0.17100
C 	C 	0.40059 0.85521 0.42128 0.30900
O 	O 	0.23173 0.47337 0.41219 -0.36800
C 	C 	0.19482 0.73090 0.35232 0.24700
C 	C 	0.48779 0.80823 0.36416 0.25000
C 	C 	0.21551 0.48522 0.38754 0.28200
C 	C 	0.43757 0.58943 0.43339 0.28700
C 	C 	0.14629 0.55300 0.43658 0.30500
O 	O 	0.42826 0.80226 0.42339 -0.36000
O 	O 	0.44917 0.84994 0.36834 -0.40300
Ni	Ni	0.36089 0.68543 0.99832 1.10100
O 	O 	0.26504 0.64736 0.98104 -0.70100
Ni	Ni	0.21143 0.67442 0.00961 1.09900
O 	O 	0.39592 0.61691 0.97508 -0.36000
O 	O 	0.30465 0.50967 0.98450 -0.39400
O 	O 	0.39556 0.76833 0.96956 -0.34500
Ni	Ni	0.22150 0.53812 0.97219 1.08600
O 	O 	0.44576 0.85100 0.01932 -0.39300
O 	O 	0.17056 0.49193 0.00606 -0.36800
O 	O 	0.11178 0.61393 0.99678 -0.36700
O 	O 	0.31011 0.72720 0.02383 -0.69700
O 	O 	0.45375 0.73156 0.01747 -0.35800
O 	O 	0.17564 0.72768 0.03870 -0.35400
O 	O 	0.25021 0.84596 0.02771 -0.39900
Ni	Ni	0.34574 0.83901 0.02288 1.06800
H 	H 	0.26387 0.67736 0.96497 0.16700
H 	H 	0.31631 0.71089 0.04217 0.15200
C 	C 	0.19131 0.51808 0.03043 0.26800
O 	O 	0.33235 0.83811 0.98273 -0.41600
C 	C 	0.36477 0.54186 0.97391 0.28900
C 	C 	0.09261 0.56678 0.97554 0.30000
C 	C 	0.37913 0.82989 0.96755 0.30100
C 	C 	0.20685 0.80138 0.04442 0.24900
C 	C 	0.47147 0.80077 0.02864 0.25400
O 	O 	0.20911 0.59152 0.03641 -0.38400
O 	O 	0.13762 0.55808 0.95905 -0.38900
Ni	Ni	0.99517 0.00286 0.23266 1.09200
O 	O 	0.99139 0.10703 0.22120 -0.70200
Ni	Ni	0.93344 0.07617 0.18711 1.09400
O 	O 	0.06803 0.04726 0.26277 -0.35500
O 	O 	0.13563 0.13846 0.23651 -0.40300
O 	O 	0.92648 0.99204 0.26275 -0.36000
Ni	Ni	0.08017 0.18733 0.21326 1.07000
O 	O 	0.87664 0.84749 0.23970 -0.40500
O 	O 	0.10871 0.13980 0.18058 -0.38400
O 	O 	0.93941 0.18230 0.17495 -0.37400
O 	O 	0.93504 0.97228 0.19928 -0.70300
O 	O 	0.99337 0.89616 0.24113 -0.37500
O 	O 	0.86478 0.02755 0.15610 -0.36600
O 	O 	0.78955 0.94195 0.18277 -0.40400
Ni	Ni	0.84526 0.90282 0.20990 1.06400
H 	H 	0.96762 0.12719 0.23450 0.15500
H 	H 	0.95457 0.94701 0.18601 0.14900
C 	C 	0.06611 0.08166 0.16662 0.24400
O 	O 	0.83576 0.98290 0.23548 -0.41600
C 	C 	0.11543 0.11505 0.26038 0.26500
C 	C 	0.99893 0.23797 0.17221 0.25700
C 	C 	0.86440 0.99267 0.25932 0.26700
C 	C 	0.81027 0.96561 0.15883 0.25700
C 	C 	0.93552 0.83676 0.24036 0.25200
O 	O 	0.00555 0.08138 0.15993 -0.36900
O 	O 	0.04413 0.25881 0.19238 -0.40000
C 	C 	0.06810 0.38529 0.12615 0.07300
C 	C 	0.13225 0.43677 0.11905 -0.07900
C 	C 	0.15650 0.42682 0.09398 0.01100
C 	C 	0.11688 0.36977 0.07605 0.08600
C 	C 	0.05281 0.31794 0.08318 -0.08700
C 	C 	0.02892 0.32728 0.10844 0.03000
N 	N 	0.05351 0.36387 0.15150 -0.15300
C 	C 	0.00618 0.29189 0.15029 0.02400
C 	C 	0.98946 0.26729 0.12380 -0.06400
N 	N 	0.13166 0.39206 0.05074 -0.15200
C 	C 	0.18026 0.46328 0.05235 0.01000
C 	C 	0.19719 0.48650 0.07894 -0.04600
H 	H 	0.16284 0.48203 0.13281 0.05100
H 	H 	0.02223 0.27272 0.06941 0.06600
H 	H 	0.97071 0.20753 0.11725 0.06200
H 	H 	0.21806 0.54590 0.08587 0.05100
H 	H 	0.08675 0.38701 0.16791 0.08800
H 	H 	0.09782 0.37101 0.03436 0.11200
C 	C 	0.57725 0.89918 0.08307 0.07100
C 	C 	0.63195 0.96080 0.09442 -0.07700
C 	C 	0.66852 0.94509 0.11588 0.00800
C 	C 	0.65826 0.87022 0.12294 0.07800
C 	C 	0.60962 0.80787 0.10915 -0.08400
C 	C 	0.56564 0.82412 0.09066 0.01300
N 	N 	0.55235 0.89957 0.05812 -0.15600
C 	C 	0.52584 0.82570 0.04933 0.01000
C 	C 	0.53261 0.77716 0.06915 -0.05700
N 	N 	0.71497 0.86671 0.13487 -0.15200
C 	C 	0.76107 0.93939 0.13634 -0.00100
C 	C 	0.73472 0.98902 0.12355 -0.03300
H 	H 	0.64794 0.01732 0.08581 0.05500
H 	H 	0.60878 0.74990 0.11152 0.05400
H 	H 	0.52855 0.71813 0.06598 0.05500
H 	H 	0.75388 0.05090 0.12629 0.05100
H 	H 	0.56507 0.94741 0.04588 0.09400
H 	H 	0.71652 0.82148 0.14668 0.07000
C 	C 	0.13768 0.85920 0.10144 0.07600
C 	C 	0.07982 0.87141 0.11063 -0.08300
C 	C 	0.08759 0.94544 0.11975 0.01500
C 	C 	0.15079 0.00483 0.12035 0.08100
C 	C 	0.20852 0.99317 0.11077 -0.08600
C 	C 	0.20091 0.91895 0.10171 0.01500
N 	N 	0.13446 0.80688 0.08219 -0.15000
C 	C 	0.19480 0.83338 0.06995 -0.00200
C 	C 	0.23743 0.90292 0.08139 -0.05800
N 	N 	0.15386 0.05615 0.13995 -0.15100
C 	C 	0.09263 0.03071 0.15163 0.00000
C 	C 	0.05085 0.96115 0.13995 -0.05100
H 	H 	0.03057 0.82515 0.11050 0.05500
H 	H 	0.25770 0.03953 0.11093 0.05500
H 	H 	0.27840 0.94564 0.07123 0.03500
H 	H 	0.99631 0.93409 0.14211 0.03300
H 	H 	0.08912 0.76897 0.07326 0.09800
H 	H 	0.19032 0.11166 0.14186 0.09300
C 	C 	0.65858 0.87761 0.34128 0.08300
C 	C 	0.71277 0.86210 0.32978 -0.08000
C 	C 	0.74107 0.90255 0.30694 0.00800
C 	C 	0.71853 0.95763 0.29646 0.07900
C 	C 	0.66587 0.97498 0.30818 -0.08100
C 	C 	0.63661 0.93431 0.33094 0.01800
N 	N 	0.60690 0.82372 0.35333 -0.14900
C 	C 	0.55183 0.84438 0.35009 0.00400
C 	C 	0.56855 0.91341 0.33685 -0.04200
N 	N 	0.76736 0.00747 0.28207 -0.15400
C 	C 	0.82093 0.98321 0.28251 0.00300
C 	C 	0.80721 0.91971 0.29894 -0.04000
H 	H 	0.73047 0.81864 0.33779 0.05900
H 	H 	0.64803 0.01797 0.29986 0.05500
H 	H 	0.53222 0.93347 0.32664 0.04000
H 	H 	0.83340 0.87920 0.29854 0.05400
H 	H 	0.60479 0.76806 0.35734 0.09700
H 	H 	0.75873 0.04393 0.26789 0.08600
C 	C 	0.09757 0.25844 0.30228 0.07100
C 	C 	0.10487 0.33412 0.30902 -0.07900
C 	C 	0.10984 0.35466 0.33625 0.01300
C 	C 	0.11829 0.30555 0.35570 0.08700
C 	C 	0.11885 0.23275 0.34845 -0.08000
C 	C 	0.10242 0.20802 0.32172 0.01600
N 	N 	0.11380 0.23760 0.27838 -0.14800
C 	C 	0.12686 0.17247 0.28204 -0.02200
C 	C 	0.12245 0.15385 0.30896 -0.03300
N 	N 	0.15361 0.34652 0.37711 -0.14700
C 	C 	0.16778 0.42116 0.37140 0.01000
C 	C 	0.14170 0.42871 0.34626 -0.04000
H 	H 	0.11131 0.37659 0.29374 0.05100
H 	H 	0.13564 0.19915 0.36258 0.06500
H 	H 	0.11829 0.09870 0.31694 0.05700
H 	H 	0.16128 0.47924 0.33413 0.05300
H 	H 	0.10173 0.25642 0.26000 0.02100
H 	H 	0.18182 0.32697 0.39079 0.10700
C 	C 	0.08269 0.69229 0.29689 0.07900
C 	C 	0.06549 0.69668 0.26991 -0.08500
C 	C 	0.00025 0.69715 0.26340 0.02400
C 	C 	0.95636 0.70096 0.28337 0.07400
C 	C 	0.97589 0.70168 0.31046 -0.08100
C 	C 	0.03814 0.69340 0.31673 0.02000
N 	N 	0.14740 0.72048 0.30661 -0.15400
C 	C 	0.14497 0.73834 0.33271 0.00500
C 	C 	0.07785 0.72452 0.33939 -0.03900
N 	N 	0.91720 0.73985 0.27469 -0.15000
C 	C 	0.93688 0.76336 0.24979 0.00300
C 	C 	0.98722 0.73626 0.24193 -0.06000
H 	H 	0.10381 0.70763 0.25486 0.05300
H 	H 	0.94719 0.71637 0.32591 0.06000
H 	H 	0.05922 0.71903 0.35953 0.05800
H 	H 	0.02456 0.76378 0.22715 0.04800
H 	H 	0.18854 0.71161 0.29774 0.07100
H 	H 	0.89500 0.76835 0.28747 0.09200
C 	C 	0.45488 0.04881 0.45744 -0.02500
C 	C 	0.52454 0.07931 0.45166 -0.07600
C 	C 	0.55086 0.04016 0.43330 0.09900
C 	C 	0.50937 0.96761 0.42315 -0.02800
C 	C 	0.44110 0.93438 0.43052 -0.07700
C 	C 	0.41313 0.97625 0.44713 0.09400
N 	N 	0.34337 0.94404 0.45457 -0.02000
H 	H 	0.43416 0.07902 0.47136 0.07500
H 	H 	0.53049 0.93677 0.40965 0.07700
N 	N 	0.62005 0.07369 0.42512 -0.02100
O 	O 	0.32228 0.88106 0.46806 -0.10800
O 	O 	0.30258 0.98126 0.44997 -0.09900
O 	O 	0.65871 0.03270 0.42468 -0.09800
O 	O 	0.64322 0.14387 0.41674 -0.10800
C 	C 	0.02950 0.54856 0.44594 -0.01600
C 	C 	0.07748 0.51233 0.44674 -0.07600
C 	C 	0.05682 0.43451 0.45389 0.10200
C 	C 	0.98827 0.39358 0.45958 -0.03100
C 	C 	0.93982 0.42937 0.45807 -0.06700
C 	C 	0.96101 0.50771 0.45132 0.08900
N 	N 	0.91334 0.54633 0.45013 -0.02400
H 	H 	0.04509 0.60840 0.44054 0.06500
H 	H 	0.97269 0.33365 0.46485 0.07200
N 	N 	0.10463 0.39601 0.45445 -0.02200
O 	O 	0.91523 0.59620 0.46879 -0.11500
O 	O 	0.87741 0.54248 0.42824 -0.12400
O 	O 	0.14971 0.40986 0.47400 -0.11500
O 	O 	0.09794 0.34084 0.43722 -0.10000
C 	C 	0.57167 0.54688 0.47515 -0.02400
C 	C 	0.57491 0.48276 0.46117 -0.08100
C 	C 	0.53960 0.46018 0.43635 0.09400
C 	C 	0.49686 0.49765 0.42693 -0.02600
C 	C 	0.48959 0.55812 0.44186 -0.07500
C 	C 	0.52873 0.58436 0.46573 0.09100
N 	N 	0.52281 0.64681 0.48104 -0.01800
H 	H 	0.59966 0.56512 0.49404 0.06200
H 	H 	0.46867 0.47915 0.40808 0.06400
N 	N 	0.54691 0.39890 0.42073 -0.01900
O 	O 	0.46529 0.63977 0.49185 -0.12200
O 	O 	0.57648 0.70792 0.48619 -0.09900
O 	O 	0.49306 0.34262 0.41177 -0.09700
O 	O 	0.60725 0.40145 0.41427 -0.13200
C 	C 	0.81845 0.03773 0.57704 0.08000
C 	C 	0.79040 0.98109 0.59596 -0.08500
C 	C 	0.81620 0.99562 0.62238 0.00800
C 	C 	0.86904 0.06394 0.62959 0.07700
C 	C 	0.89566 0.12147 0.61081 -0.08400
C 	C 	0.87068 0.10627 0.58433 0.01500
N 	N 	0.78217 0.04818 0.55593 -0.15200
C 	C 	0.81031 0.12324 0.54983 0.00800
C 	C 	0.86545 0.16130 0.56707 -0.04500
N 	N 	0.90757 0.05188 0.64964 -0.15300
C 	C 	0.88050 0.97635 0.65516 -0.00500
C 	C 	0.82325 0.93976 0.63880 -0.04000
H 	H 	0.74982 0.92755 0.59029 0.05500
H 	H 	0.93619 0.17508 0.61643 0.05300
H 	H 	0.88306 0.22222 0.57194 0.05400
H 	H 	0.80541 0.87920 0.63331 0.04700
H 	H 	0.73154 0.01344 0.55127 0.08400
H 	H 	0.95877 0.08609 0.65347 0.07400
C 	C 	0.32247 0.17322 0.61905 0.07600
C 	C 	0.34550 0.21896 0.59667 -0.08300
C 	C 	0.36544 0.18611 0.57456 0.01600
C 	C 	0.36486 0.11132 0.57506 0.08000
C 	C 	0.34169 0.06548 0.59739 -0.08200
C 	C 	0.32125 0.09813 0.61943 0.01100
N 	N 	0.27495 0.18103 0.63519 -0.15100
C 	C 	0.24297 0.11123 0.64564 -0.00000
C 	C 	0.26990 0.05807 0.63624 -0.04300
N 	N 	0.41254 0.10383 0.55891 -0.15100
C 	C 	0.44357 0.17350 0.54819 0.00900
C 	C 	0.41594 0.22622 0.55746 -0.04200
H 	H 	0.34674 0.27748 0.59631 0.05600
H 	H 	0.34044 0.00696 0.59773 0.05700
H 	H 	0.24240 0.99657 0.63503 0.04500
H 	H 	0.44269 0.28788 0.55838 0.05300
H 	H 	0.25316 0.22308 0.63316 0.09000
H 	H 	0.43470 0.06210 0.56093 0.08300
C 	C 	0.88755 0.61929 0.56237 0.08300
C 	C 	0.94809 0.68384 0.56413 -0.08100
C 	C 	0.99174 0.69233 0.58666 0.01500
C 	C 	0.97617 0.63717 0.60640 0.07400
C 	C 	0.91701 0.57089 0.60387 -0.08100
C 	C 	0.87171 0.56491 0.58221 0.01000
N 	N 	0.85683 0.58730 0.53897 -0.15200
C 	C 	0.82153 0.51239 0.54373 0.00800
C 	C 	0.82961 0.49639 0.57044 -0.04800
N 	N 	0.00077 0.67062 0.63033 -0.15000
C 	C 	0.02983 0.74702 0.62647 0.00100
C 	C 	0.02650 0.76226 0.59941 -0.03600
H 	H 	0.96018 0.72676 0.54879 0.06400
H 	H 	0.90487 0.52761 0.61909 0.04800
H 	H 	0.82479 0.44023 0.57769 0.05100
H 	H 	0.02660 0.81666 0.59198 0.05900
H 	H 	0.87408 0.60879 0.52024 0.11000
H 	H 	0.98086 0.64704 0.64852 0.06400
C 	C 	0.92416 0.41609 0.95224 -0.02100
C 	C 	0.88062 0.45798 0.95305 -0.07500
C 	C 	0.90590 0.53452 0.96294 0.10100
C 	C 	0.97480 0.56888 0.97107 -0.03300
C 	C 	0.01909 0.52803 0.96897 -0.06100
C 	C 	0.99298 0.45049 0.96018 0.08600
N 	N 	0.03598 0.40610 0.95969 -0.02100
H 	H 	0.90481 0.35698 0.94493 0.05800
H 	H 	0.99431 0.62825 0.97808 0.06800
N 	N 	0.86267 0.57867 0.96359 -0.02200
O 	O 	0.04581 0.37273 0.98124 -0.10700
O 	O 	0.05876 0.39184 0.93709 -0.10600
O 	O 	0.84647 0.60028 0.98641 -0.09900
O 	O 	0.84479 0.60325 0.94146 -0.10200
C 	C 	0.53572 0.98389 0.94055 -0.03600
C 	C 	0.50939 0.04138 0.93459 -0.07700
C 	C 	0.43841 0.02508 0.93679 0.09800
C 	C 	0.39556 0.95241 0.94463 -0.03700
C 	C 	0.42239 0.89664 0.95222 -0.07900
C 	C 	0.49293 0.91183 0.94923 0.09800
N 	N 	0.52140 0.85442 0.95484 -0.01800
H 	H 	0.58967 0.99503 0.93858 0.06400
H 	H 	0.34143 0.94085 0.94624 0.06500
N 	N 	0.40994 0.08305 0.93225 -0.01800
O 	O 	0.51331 0.79914 0.93749 -0.08900
O 	O 	0.56305 0.86335 0.97534 -0.09200
O 	O 	0.37664 0.08246 0.90994 -0.09700
O 	O 	0.40813 0.12857 0.95186 -0.08900
C 	C 	0.46793 0.50670 0.97322 -0.01900
C 	C 	0.40126 0.49354 0.96370 -0.07200
C 	C 	0.37167 0.43767 0.94329 0.09300
C 	C 	0.41026 0.39830 0.93182 -0.02000
C 	C 	0.47833 0.41494 0.94029 -0.07200
C 	C 	0.50627 0.46704 0.96189 0.09100
N 	N 	0.57335 0.47914 0.97256 -0.03100
H 	H 	0.49012 0.54792 0.98944 0.06900
H 	H 	0.38824 0.35745 0.91549 0.07200
N 	N 	0.30350 0.42299 0.93342 -0.02400
O 	O 	0.61830 0.54844 0.97511 -0.11800
O 	O 	0.58818 0.42135 0.98122 -0.16100
O 	O 	0.28868 0.47668 0.92138 -0.14200
O 	O 	0.25781 0.35415 0.93441 -0.10200
C 	C 	0.93888 0.24450 0.84017 0.08200
C 	C 	0.98582 0.26569 0.81960 -0.08800
C 	C 	0.02599 0.22092 0.81530 0.02100
C 	C 	0.01215 0.15113 0.82797 0.08800
C 	C 	0.95885 0.12518 0.84600 -0.08700
C 	C 	0.92654 0.17598 0.85345 0.01800
N 	N 	0.88392 0.26520 0.84100 -0.15000
C 	C 	0.83575 0.20976 0.85415 0.00100
C 	C 	0.86072 0.15391 0.86259 -0.04400
N 	N 	0.03124 0.10307 0.81268 -0.15000
C 	C 	0.05701 0.14129 0.79029 0.01000
C 	C 	0.05426 0.21456 0.79111 -0.05200
H 	H 	0.98781 0.31202 0.80641 0.05300
H 	H 	0.94054 0.06633 0.85260 0.05900
H 	H 	0.82967 0.09641 0.86834 0.05000
H 	H 	0.05111 0.24664 0.77353 0.03500
H 	H 	0.87443 0.30504 0.82853 0.08900
H 	H 	0.01080 0.04318 0.81383 0.10000
C 	C 	0.40936 0.05244 0.79993 0.06700
C 	C 	0.39223 0.04899 0.77260 -0.06900
C 	C 	0.33051 0.99268 0.76349 -0.00800
C 	C 	0.28394 0.94778 0.78152 0.08500
C 	C 	0.29936 0.95580 0.80913 -0.09000
C 	C 	0.36434 0.00549 0.81772 0.02400
N 	N 	0.45080 0.11696 0.81256 -0.15500
C 	C 	0.43411 0.11123 0.83856 0.01200
C 	C 	0.37885 0.04361 0.84222 -0.04200
N 	N 	0.21986 0.92979 0.77156 -0.15300
C 	C 	0.22451 0.96402 0.74765 -0.00800
C 	C 	0.29261 0.00239 0.74180 -0.03000
H 	H 	0.42238 0.09305 0.75939 0.04700
H 	H 	0.26008 0.93014 0.82339 0.06200
H 	H 	0.36420 0.01628 0.86120 0.06800
H 	H 	0.31015 0.05087 0.72863 0.04500
H 	H 	0.49717 0.15351 0.80530 0.06600
H 	H 	0.17690 0.91515 0.78339 0.09700
C 	C 	0.75459 0.58268 0.82183 0.07700
C 	C 	0.78475 0.58281 0.79713 -0.08300
C 	C 	0.84833 0.63993 0.79295 0.01300
C 	C 	0.87939 0.69725 0.81212 0.07900
C 	C 	0.84832 0.69862 0.83647 -0.08200
C 	C 	0.78520 0.64071 0.84092 0.01700
N 	N 	0.71753 0.51740 0.83382 -0.15200
C 	C 	0.72486 0.53266 0.86045 0.00800
C 	C 	0.76600 0.60893 0.86558 -0.04100
N 	N 	0.91997 0.76131 0.80041 -0.15000
C 	C 	0.91437 0.74552 0.77384 -0.00100
C 	C 	0.87021 0.67065 0.76839 -0.05400
H 	H 	0.76068 0.53836 0.78210 0.04900
H 	H 	0.87247 0.74318 0.85146 0.06000
H 	H 	0.79584 0.62953 0.88396 0.07000
H 	H 	0.84186 0.65108 0.74965 0.03700
H 	H 	0.70520 0.46255 0.82519 0.08800
H 	H 	0.93382 0.81660 0.80883 0.09500
