data_crystal

_cell_length_a 18.10363
_cell_length_b 19.44879
_cell_length_c 26.69747
_cell_angle_alpha 95.42291
_cell_angle_beta  95.42379
_cell_angle_gamma 126.41693

_symmetry_space_group_name_	'P 1'
_symmetry_space_group_name_H-M	'P 1'

loop_
_symmetry_equiv_pos_as_xyz
  x,y,z

loop_
_atom_site_label
_atom_site_type_symbol
_atom_site_fract_x
_atom_site_fract_y
_atom_site_fract_z
_atom_site_charge
C 	C 	0.97259 0.04845 0.98678 0.14900
N 	N 	0.91604 0.95997 0.97376 -0.09100
C 	C 	0.95397 0.91705 0.96950 0.17500
N 	N 	0.04827 0.96295 0.97780 -0.08000
C 	C 	0.10465 0.05099 0.98922 0.17800
N 	N 	0.06692 0.09364 0.99417 -0.10300
C 	C 	0.90534 0.99845 0.48395 0.23400
N 	N 	0.99634 0.04138 0.47935 -0.16200
C 	C 	0.03199 0.99704 0.47233 0.27400
N 	N 	0.97650 0.90978 0.47006 -0.13400
C 	C 	0.88575 0.86660 0.47457 0.20300
N 	N 	0.85016 0.91096 0.48185 -0.12500
Cu	Cu	0.68008 0.26625 0.01368 0.93100
Cu	Cu	0.74029 0.24940 0.90373 0.89700
Cu	Cu	0.70624 0.37889 0.93330 0.91000
Cu	Cu	0.67699 0.42689 0.03705 0.91300
C 	C 	0.69310 0.33567 0.11661 0.39200
O 	O 	0.54372 0.20668 0.01699 -0.31400
C 	C 	0.67764 0.30188 0.82477 0.39600
O 	O 	0.74610 0.39727 0.00578 -0.64000
O 	O 	0.65484 0.25614 0.93833 -0.62900
O 	O 	0.74259 0.20889 0.01757 -0.34700
O 	O 	0.83252 0.28407 0.96095 -0.38200
O 	O 	0.70097 0.40456 0.10594 -0.33800
O 	O 	0.76496 0.50134 0.93299 -0.35100
C 	C 	0.75548 0.55141 0.96446 0.33600
C 	C 	0.50070 0.23876 0.00198 0.30700
O 	O 	0.54804 0.31537 0.98901 -0.35000
O 	O 	0.70326 0.52098 0.99981 -0.32200
O 	O 	0.71785 0.29718 0.08676 -0.32000
C 	C 	0.81247 0.23225 0.99391 0.35200
O 	O 	0.68148 0.36021 0.85748 -0.34000
O 	O 	0.67424 0.23766 0.83976 -0.37700
H 	H 	0.81463 0.43907 0.01770 0.19100
H 	H 	0.58835 0.21311 0.92158 0.19900
Cu	Cu	0.60288 0.20437 0.50327 0.93500
Cu	Cu	0.70334 0.21933 0.40449 0.89300
Cu	Cu	0.65305 0.33519 0.43156 0.90700
Cu	Cu	0.58105 0.35291 0.52432 0.92300
C 	C 	0.60885 0.27188 0.60592 0.37400
O 	O 	0.46230 0.14036 0.49369 -0.33300
C 	C 	0.66157 0.28427 0.32472 0.39000
O 	O 	0.66836 0.33781 0.50404 -0.63600
O 	O 	0.60116 0.21040 0.42911 -0.63200
O 	O 	0.66907 0.15056 0.51066 -0.30800
O 	O 	0.77739 0.24662 0.46833 -0.41500
O 	O 	0.56151 0.29767 0.58592 -0.31500
O 	O 	0.71133 0.45861 0.43923 -0.32300
C 	C 	0.69162 0.50101 0.46985 0.33600
C 	C 	0.42255 0.17111 0.47135 0.33700
O 	O 	0.47490 0.25027 0.46215 -0.35200
O 	O 	0.62505 0.46049 0.49702 -0.35300
O 	O 	0.62258 0.22266 0.57695 -0.30800
C 	C 	0.74865 0.18468 0.49483 0.34500
O 	O 	0.65350 0.33442 0.35725 -0.32500
O 	O 	0.65592 0.21786 0.33755 -0.37600
H 	H 	0.73330 0.38103 0.52311 0.19300
H 	H 	0.53963 0.16854 0.40609 0.19600
C 	C 	0.72849 0.30984 0.74077 0.28300
C 	C 	0.66318 0.30107 0.76953 -0.19500
C 	C 	0.57996 0.28269 0.74455 0.28800
C 	C 	0.56134 0.27168 0.69112 0.27700
C 	C 	0.62680 0.28050 0.66219 -0.17800
C 	C 	0.71064 0.30002 0.68739 0.27700
F 	F 	0.77531 0.31049 0.66021 -0.37100
F 	F 	0.80926 0.32770 0.76463 -0.38500
F 	F 	0.47851 0.24983 0.66737 -0.35600
F 	F 	0.51557 0.27241 0.77190 -0.37100
C 	C 	0.74134 0.30472 0.25028 0.28100
C 	C 	0.67019 0.29881 0.27173 -0.18800
C 	C 	0.60496 0.30225 0.24158 0.29000
C 	C 	0.61086 0.31156 0.19041 0.28400
C 	C 	0.68252 0.31821 0.16906 -0.18200
C 	C 	0.74768 0.31463 0.19927 0.28400
F 	F 	0.81883 0.32340 0.17971 -0.36800
F 	F 	0.80535 0.30232 0.27923 -0.38900
F 	F 	0.54655 0.31350 0.16139 -0.37000
F 	F 	0.53466 0.29466 0.26150 -0.36600
C 	C 	0.81383 0.71837 0.42695 -0.10200
C 	C 	0.82641 0.77195 0.47121 -0.05600
C 	C 	0.79227 0.73602 0.51428 0.33000
C 	C 	0.74869 0.64776 0.51367 -0.06900
C 	C 	0.73786 0.59422 0.46980 -0.11600
C 	C 	0.76919 0.62979 0.42598 0.36500
F 	F 	0.75537 0.57859 0.38232 -0.40200
H 	H 	0.83980 0.74570 0.39348 0.13600
H 	H 	0.72466 0.62123 0.54763 0.11300
F 	F 	0.80463 0.78735 0.55745 -0.40600
C 	C 	0.81473 0.03866 0.52582 -0.13100
C 	C 	0.86493 0.04567 0.48702 -0.07600
C 	C 	0.87735 0.09866 0.45137 0.32700
C 	C 	0.84026 0.14431 0.45449 -0.07300
C 	C 	0.78999 0.13773 0.49326 -0.13500
C 	C 	0.77784 0.08488 0.52921 0.37400
F 	F 	0.73190 0.07936 0.56781 -0.40500
H 	H 	0.80531 0.99835 0.55372 0.15600
H 	H 	0.84941 0.18384 0.42615 0.08800
F 	F 	0.92371 0.10445 0.41291 -0.41600
C 	C 	0.19931 0.12605 0.50034 -0.09100
C 	C 	0.13172 0.04395 0.46936 -0.08300
C 	C 	0.16029 0.00485 0.43773 0.31600
C 	C 	0.25548 0.04633 0.43863 -0.06000
C 	C 	0.32267 0.12774 0.47009 -0.12300
C 	C 	0.29426 0.16781 0.50069 0.36700
F 	F 	0.35887 0.24632 0.53174 -0.42700
H 	H 	0.17840 0.15664 0.52508 0.13000
H 	H 	0.27691 0.01548 0.41456 0.10300
F 	F 	0.09594 0.92731 0.40574 -0.38300
C 	C 	0.87711 0.68753 0.93526 -0.05900
C 	C 	0.79638 0.64117 0.95674 -0.11900
C 	C 	0.75953 0.68346 0.97482 0.37100
C 	C 	0.80855 0.77283 0.97649 -0.11500
C 	C 	0.89336 0.82062 0.95881 -0.03400
C 	C 	0.92461 0.77640 0.93552 0.30300
F 	F 	0.00160 0.81971 0.91372 -0.37900
H 	H 	0.90470 0.65542 0.91966 0.11300
H 	H 	0.78194 0.80527 0.99303 0.15200
F 	F 	0.67663 0.63820 0.99110 -0.40200
C 	C 	0.98213 0.18095 0.98022 -0.14800
C 	C 	0.93208 0.09613 0.99058 -0.01300
C 	C 	0.84534 0.05872 0.00598 0.27900
C 	C 	0.80799 0.10451 0.00896 -0.06400
C 	C 	0.85716 0.18847 0.99726 -0.12800
C 	C 	0.94574 0.22726 0.98424 0.37700
F 	F 	0.99677 0.30997 0.97547 -0.41600
H 	H 	0.04930 0.21106 0.96877 0.16400
H 	H 	0.74007 0.07397 0.01949 0.11000
F 	F 	0.79782 0.97876 0.01878 -0.39100
C 	C 	0.34765 0.19966 0.96115 -0.07500
C 	C 	0.39841 0.18720 0.99730 -0.08700
C 	C 	0.35203 0.13028 0.03124 0.35200
C 	C 	0.25610 0.08641 0.02876 -0.11500
C 	C 	0.20602 0.10002 0.99312 -0.03700
C 	C 	0.25212 0.15673 0.95926 0.33300
F 	F 	0.20393 0.16890 0.92382 -0.40100
H 	H 	0.38233 0.24280 0.93455 0.12500
H 	H 	0.22082 0.04245 0.05490 0.12500
F 	F 	0.40024 0.11946 0.06757 -0.40200
