data_crystal

_cell_length_a 26.36103
_cell_length_b 25.97348
_cell_length_c 43.36295
_cell_angle_alpha 95.54347
_cell_angle_beta  95.54280
_cell_angle_gamma 125.84176

_symmetry_space_group_name_	'P 1'
_symmetry_space_group_name_H-M	'P 1'

loop_
_symmetry_equiv_pos_as_xyz
  x,y,z

loop_
_atom_site_label
_atom_site_type_symbol
_atom_site_fract_x
_atom_site_fract_y
_atom_site_fract_z
_atom_site_charge
C 	C 	0.00335 0.05247 0.99367 0.11000
C 	C 	0.08620 0.05018 0.97964 0.11900
N 	N 	0.06296 0.08373 0.98710 -0.14600
N 	N 	0.97496 0.02111 0.47624 -0.13900
C 	C 	0.83113 0.05443 0.44007 -0.07900
C 	C 	0.87517 0.00895 0.46895 -0.04600
C 	C 	0.85439 0.01768 0.44001 0.06800
H 	H 	0.81628 0.06240 0.41796 0.04700
C 	C 	0.18073 0.10863 0.51724 0.03800
C 	C 	0.11393 0.06919 0.51237 -0.05100
C 	C 	0.07754 0.03899 0.48183 -0.04300
C 	C 	0.21925 0.14063 0.55028 -0.17800
H 	H 	0.09017 0.06149 0.53238 0.04000
C 	C 	0.27337 0.05396 0.49517 -0.16900
H 	H 	0.10038 0.03498 0.40452 0.05900
H 	H 	0.24971 0.12494 0.55579 0.06300
H 	H 	0.18827 0.12795 0.56817 0.05800
H 	H 	0.30481 0.03906 0.49974 0.05600
H 	H 	0.24241 0.02732 0.47157 0.06000
H 	H 	0.24324 0.03981 0.51348 0.06100
C 	C 	0.92150 0.11361 0.03269 0.03900
C 	C 	0.95506 0.08787 0.02798 -0.05100
C 	C 	0.97602 0.08755 0.99947 -0.04000
C 	C 	0.89694 0.11085 0.06296 -0.17900
H 	H 	0.96363 0.06668 0.04624 0.04400
H 	H 	0.78113 0.06438 0.99516 0.04800
H 	H 	0.84417 0.07549 0.05813 0.06400
H 	H 	0.91658 0.09585 0.08078 0.06100
H 	H 	0.67626 0.09717 0.96593 0.05200
H 	H 	0.67859 0.03612 0.98044 0.06000
C 	C 	0.15233 0.08457 0.97425 -0.04700
C 	C 	0.16712 0.05889 0.94938 0.06400
C 	C 	0.23089 0.08395 0.94926 -0.07900
H 	H 	0.24219 0.06138 0.93167 0.04500
H 	H 	0.28399 0.04660 0.00077 0.06300
O 	O 	0.56721 0.21299 0.00345 -0.36700
O 	O 	0.69893 0.20279 0.00777 -0.37700
C 	C 	0.75302 0.22600 0.99811 0.29400
H 	H 	0.55025 0.21351 0.46268 0.15800
H 	H 	0.66544 0.24842 0.66879 0.04200
H 	H 	0.66021 0.23471 0.61133 0.02400
H 	H 	0.59881 0.22283 0.85093 0.02400
H 	H 	0.59066 0.23445 0.79528 0.04200
H 	H 	0.55345 0.19730 0.24646 0.03700
H 	H 	0.56851 0.20270 0.19125 0.03700
C 	C 	0.82867 0.08258 0.46859 -0.00800
C 	C 	0.84671 0.07133 0.49745 0.03700
C 	C 	0.86973 0.03441 0.49736 -0.04800
C 	C 	0.80776 0.12446 0.46812 0.00600
C 	C 	0.84264 0.09962 0.52834 -0.17600
H 	H 	0.88533 0.02713 0.51950 0.04000
C 	C 	0.85193 0.19135 0.46849 0.02100
C 	C 	0.76840 0.20451 0.47257 -0.11600
C 	C 	0.72414 0.13736 0.47201 0.09200
C 	C 	0.74396 0.09772 0.46891 -0.09500
C 	C 	0.92059 0.22079 0.46703 -0.17000
C 	C 	0.65609 0.10784 0.47510 -0.19600
H 	H 	0.71015 0.04620 0.46823 0.04900
H 	H 	0.79253 0.08088 0.52860 0.06000
H 	H 	0.85904 0.08680 0.54878 0.05800
H 	H 	0.92330 0.19751 0.44504 0.06300
H 	H 	0.94272 0.21379 0.48773 0.06200
H 	H 	0.63084 0.05744 0.47917 0.06000
H 	H 	0.62989 0.10676 0.45311 0.07500
H 	H 	0.65465 0.13612 0.49545 0.04500
C 	C 	0.17475 0.08872 0.46047 -0.07700
C 	C 	0.21118 0.11767 0.49107 -0.01000
C 	C 	0.10801 0.04950 0.45561 0.06300
C 	C 	0.28127 0.15625 0.49547 0.00800
C 	C 	0.06951 0.01818 0.42252 -0.18500
H 	H 	0.19846 0.09619 0.44047 0.04500
C 	C 	0.31144 0.12582 0.49612 0.01900
C 	C 	0.37704 0.16241 0.49627 -0.01500
C 	C 	0.41285 0.22889 0.49629 -0.11400
C 	C 	0.31758 0.22326 0.49705 -0.09800
H 	H 	0.39995 0.13879 0.49541 0.02700
H 	H 	0.29429 0.24652 0.49701 0.05000
H 	H 	0.03580 0.03032 0.41802 0.06500
H 	H 	0.24994 0.19402 0.55242 0.06300
C 	C 	0.93183 0.14131 0.98045 -0.07700
C 	C 	0.90888 0.13944 0.00848 -0.00900
C 	C 	0.96452 0.11472 0.97550 0.06100
C 	C 	0.86798 0.16069 0.01131 0.00600
C 	C 	0.98586 0.11439 0.94446 -0.17900
H 	H 	0.92261 0.16193 0.96210 0.04300
C 	C 	0.89509 0.22672 0.02076 0.02000
C 	C 	0.79016 0.20189 0.00660 -0.11400
C 	C 	0.76254 0.13521 0.99900 0.09000
C 	C 	0.80180 0.11522 0.00169 -0.09300
C 	C 	0.69177 0.08546 0.98715 -0.19800
H 	H 	0.03870 0.14721 0.94822 0.06400
H 	H 	0.96727 0.13110 0.92713 0.05800
H 	H 	0.96817 0.06466 0.93393 0.06600
H 	H 	0.91091 0.15920 0.07336 0.06400
H 	H 	0.66552 0.08433 0.00593 0.07800
C 	C 	0.38400 0.19651 0.95405 -0.09600
C 	C 	0.34583 0.15711 0.97424 0.00600
C 	C 	0.37068 0.13749 0.99662 0.02100
C 	C 	0.43564 0.16426 0.00118 -0.01600
C 	C 	0.47505 0.20693 0.98226 -0.11200
C 	C 	0.44782 0.21936 0.95698 0.09300
C 	C 	0.28005 0.13720 0.97212 -0.00900
C 	C 	0.32854 0.08927 0.01614 -0.17000
H 	H 	0.45582 0.15296 0.01994 0.04200
H 	H 	0.36405 0.20942 0.93605 0.04900
C 	C 	0.26574 0.16875 0.99401 0.03700
C 	C 	0.20184 0.14094 0.99560 -0.05100
H 	H 	0.19069 0.16213 0.01400 0.04400
H 	H 	0.31632 0.11205 0.03391 0.06100
H 	H 	0.35247 0.07149 0.02877 0.05900
H 	H 	0.87301 0.15319 0.53153 0.06100
H 	H 	0.57281 0.31385 0.76088 0.03500
H 	H 	0.57026 0.31035 0.70358 0.03600
H 	H 	0.61616 0.23588 0.94990 0.16700
C 	C 	0.31829 0.23066 0.01635 -0.17700
H 	H 	0.34074 0.22016 0.03520 0.06200
C 	C 	0.83180 0.23087 0.47069 -0.01400
H 	H 	0.94887 0.27354 0.46717 0.05800
H 	H 	0.45439 0.24533 0.91065 0.06200
H 	H 	0.51799 0.24373 0.92745 0.06300
H 	H 	0.64728 0.18496 0.15537 0.04400
H 	H 	0.69129 0.22753 0.31177 0.04500
C 	C 	0.85590 0.24680 0.01831 -0.01400
H 	H 	0.98418 0.26051 0.04982 0.06100
Cu	Cu	0.66053 0.25009 0.00778 0.92700
Cu	Cu	0.71790 0.25413 0.94307 0.86900
Cu	Cu	0.70604 0.35627 0.96905 0.89500
C 	C 	0.66981 0.29420 0.07301 0.28700
C 	C 	0.68892 0.31451 0.90064 0.28800
O 	O 	0.71389 0.35101 0.01262 -0.64100
O 	O 	0.65916 0.26054 0.96320 -0.64300
O 	O 	0.77317 0.26911 0.97985 -0.44500
O 	O 	0.64313 0.32147 0.06348 -0.38700
C 	C 	0.54479 0.24136 0.99050 0.28800
O 	O 	0.58397 0.30279 0.98878 -0.39900
O 	O 	0.67482 0.25677 0.05263 -0.36500
O 	O 	0.71337 0.36317 0.92456 -0.39900
O 	O 	0.68308 0.26168 0.90458 -0.42300
Cu	Cu	0.67411 0.29385 0.45821 0.92300
Cu	Cu	0.72269 0.29059 0.52982 0.87000
Cu	Cu	0.60663 0.30198 0.50972 0.90900
Cu	Cu	0.55962 0.30418 0.44325 0.89200
C 	C 	0.61340 0.26998 0.39477 0.28800
C 	C 	0.65336 0.30655 0.57171 0.28800
O 	O 	0.58297 0.26100 0.46636 -0.63800
O 	O 	0.69308 0.32913 0.50396 -0.63300
O 	O 	0.69967 0.23473 0.45856 -0.37900
O 	O 	0.77565 0.29146 0.50326 -0.43200
O 	O 	0.56594 0.27100 0.40135 -0.39000
O 	O 	0.52096 0.26848 0.51437 -0.38200
C 	C 	0.47957 0.26400 0.49243 0.29600
O 	O 	0.49830 0.29733 0.46948 -0.40200
O 	O 	0.64071 0.25379 0.41467 -0.36700
C 	C 	0.74988 0.24798 0.47724 0.29600
O 	O 	0.63299 0.33236 0.55475 -0.38600
O 	O 	0.66144 0.26546 0.55743 -0.43600
C 	C 	0.65617 0.31450 0.60624 -0.09700
C 	C 	0.65553 0.36377 0.62231 0.01300
C 	C 	0.65832 0.37127 0.65495 -0.07000
C 	C 	0.66210 0.32988 0.67185 0.02500
C 	C 	0.66279 0.28076 0.65590 -0.07000
C 	C 	0.65988 0.27307 0.62330 0.01100
C 	C 	0.66578 0.33812 0.70629 -0.00200
C 	C 	0.72083 0.35614 0.72642 -0.04000
C 	C 	0.72223 0.35796 0.75882 -0.04000
C 	C 	0.66860 0.34186 0.77137 -0.00200
C 	C 	0.61430 0.32599 0.75138 -0.04000
C 	C 	0.61291 0.32414 0.71895 -0.04000
C 	C 	0.66772 0.33690 0.80494 0.02500
C 	C 	0.71259 0.39119 0.82854 -0.07000
C 	C 	0.71763 0.38456 0.86009 0.01200
C 	C 	0.67776 0.32352 0.86829 -0.09500
C 	C 	0.63062 0.26994 0.84484 0.01200
C 	C 	0.62571 0.27658 0.81332 -0.07000
C 	C 	0.67856 0.29199 0.10682 -0.08700
C 	C 	0.69834 0.34561 0.12960 0.01200
C 	C 	0.69839 0.34093 0.16143 -0.06800
C 	C 	0.67877 0.28264 0.17081 0.02600
C 	C 	0.66195 0.22999 0.14829 -0.06800
C 	C 	0.66193 0.23463 0.11642 0.01500
C 	C 	0.67070 0.27513 0.20364 -0.00100
C 	C 	0.72346 0.31359 0.22851 -0.04000
C 	C 	0.71488 0.31066 0.25979 -0.04000
C 	C 	0.65348 0.26933 0.26641 -0.00100
C 	C 	0.60097 0.22962 0.24155 -0.04000
C 	C 	0.60954 0.23249 0.21029 -0.03900
C 	C 	0.64377 0.26987 0.29931 0.02500
C 	C 	0.61152 0.29379 0.31004 -0.06700
C 	C 	0.60156 0.29373 0.34111 0.01000
C 	C 	0.62359 0.26943 0.36179 -0.08500
C 	C 	0.65636 0.24588 0.35100 0.01200
C 	C 	0.66634 0.24612 0.31990 -0.06600
H 	H 	0.71220 0.39042 0.12254 0.02000
H 	H 	0.71178 0.38196 0.17868 0.04300
H 	H 	0.64676 0.19292 0.09913 0.03700
H 	H 	0.59433 0.31264 0.29433 0.04200
H 	H 	0.57706 0.31291 0.34913 0.02500
H 	H 	0.67382 0.22708 0.36657 0.04000
H 	H 	0.86566 0.28234 0.47127 0.03400
C 	C 	0.38360 0.26024 0.49834 0.10200
C 	C 	0.42205 0.33262 0.50124 -0.20300
H 	H 	0.39618 0.35074 0.51034 0.06400
H 	H 	0.43154 0.34569 0.47775 0.07400
H 	H 	0.46797 0.35749 0.51799 0.07600
C 	C 	0.96610 0.27631 0.03168 -0.17000
H 	H 	0.87691 0.29780 0.02443 0.03300
H 	H 	0.97873 0.32395 0.04239 0.05700
H 	H 	0.99043 0.28272 0.01131 0.06100
C 	C 	0.48609 0.25663 0.93312 -0.19800
H 	H 	0.51491 0.30935 0.94251 0.07000
H 	H 	0.29982 0.25527 0.02762 0.05900
H 	H 	0.35511 0.26474 0.00344 0.06400
Cu	Cu	0.66135 0.37027 0.02808 0.89200
H 	H 	0.76201 0.36742 0.71687 0.03400
H 	H 	0.76434 0.37022 0.77405 0.03500
H 	H 	0.75835 0.37782 0.02444 0.16400
H 	H 	0.72443 0.37685 0.50878 0.15600
H 	H 	0.65328 0.39650 0.60960 0.03200
H 	H 	0.65798 0.40948 0.66712 0.04300
H 	H 	0.91028 0.01417 0.40794 0.06900
O 	O 	0.75499 0.44906 0.97811 -0.39400
O 	O 	0.70289 0.45742 0.01597 -0.39800
O 	O 	0.72077 0.38414 0.44829 -0.37200
C 	C 	0.70111 0.41971 0.45414 0.29200
O 	O 	0.64880 0.39635 0.46545 -0.39700
H 	H 	0.74481 0.43809 0.82233 0.04200
H 	H 	0.75418 0.42632 0.87791 0.02700
H 	H 	0.77089 0.34647 0.22360 0.03600
H 	H 	0.75572 0.34139 0.27886 0.03700
H 	H 	0.66081 0.41925 0.39174 0.06600
H 	H 	0.61389 0.43519 0.41281 0.05400
C 	C 	0.73824 0.48107 0.99406 0.29500
C 	C 	0.65724 0.45754 0.40217 -0.20100
H 	H 	0.70490 0.47689 0.93090 0.07400
H 	H 	0.65217 0.47989 0.38266 0.06300
H 	H 	0.78582 0.50573 0.92869 0.08300
C 	C 	0.73959 0.48729 0.44985 -0.11200
C 	C 	0.75410 0.52024 0.93120 -0.20300
C 	C 	0.71546 0.50692 0.42708 0.09500
H 	H 	0.81552 0.51851 0.48834 0.02700
H 	H 	0.07707 0.00966 0.91690 0.06600
H 	H 	0.75195 0.54106 0.91034 0.06500
C 	C 	0.79653 0.53379 0.47124 -0.01300
C 	C 	0.11545 0.00439 0.92327 -0.18500
H 	H 	0.13472 0.00419 0.90161 0.05900
C 	C 	0.76749 0.54895 0.99087 -0.11100
C 	C 	0.77963 0.56880 0.96142 0.09800
C 	C 	0.74472 0.57300 0.42835 -0.09500
H 	H 	0.83717 0.99740 0.38860 0.06200
C 	C 	0.00784 0.99605 0.47750 0.10900
C 	C 	0.85936 0.99015 0.40918 -0.19300
H 	H 	0.04222 0.96485 0.41946 0.06400
C 	C 	0.91032 0.98125 0.47003 0.11800
N 	N 	0.96777 0.98805 0.99365 -0.14400
C 	C 	0.99013 0.95408 0.98543 0.12600
N 	N 	0.04983 0.98546 0.97906 -0.15000
N 	N 	0.97612 0.93108 0.47295 -0.14100
C 	C 	0.91145 0.89098 0.46695 0.12000
N 	N 	0.87845 0.91608 0.46517 -0.14600
C 	C 	0.79963 0.61958 0.45091 0.00700
C 	C 	0.82737 0.60002 0.47166 0.02000
C 	C 	0.82585 0.68854 0.45377 -0.00900
C 	C 	0.88800 0.64944 0.49521 -0.17000
H 	H 	0.72430 0.58823 0.41204 0.04900
C 	C 	0.86625 0.72677 0.43363 0.03700
C 	C 	0.89119 0.79227 0.43724 -0.04800
C 	C 	0.87752 0.82038 0.46112 -0.04700
C 	C 	0.83667 0.78193 0.48115 0.06600
C 	C 	0.81021 0.71594 0.47688 -0.07900
C 	C 	0.88310 0.69802 0.40840 -0.17800
H 	H 	0.92241 0.82186 0.42187 0.04100
C 	C 	0.82153 0.81095 0.50719 -0.18900
H 	H 	0.77840 0.68608 0.49198 0.04600
H 	H 	0.87814 0.67276 0.51406 0.06100
H 	H 	0.92449 0.68700 0.48337 0.06200
H 	H 	0.90836 0.62695 0.50635 0.05600
H 	H 	0.91829 0.73518 0.39592 0.05900
H 	H 	0.83961 0.66039 0.39068 0.06300
H 	H 	0.90427 0.67591 0.41910 0.06300
H 	H 	0.79188 0.82476 0.49685 0.07100
H 	H 	0.86618 0.85435 0.52214 0.06900
H 	H 	0.79476 0.77623 0.52280 0.06100
H 	H 	0.83456 0.93733 0.40724 0.07100
C 	C 	0.81608 0.63494 0.96029 -0.09700
C 	C 	0.83534 0.68076 0.98739 0.00600
C 	C 	0.81610 0.66018 0.01581 0.02100
C 	C 	0.78464 0.59480 0.01770 -0.01600
C 	C 	0.87577 0.75031 0.98575 -0.00600
C 	C 	0.82919 0.70767 0.04414 -0.17000
H 	H 	0.77389 0.57968 0.04011 0.03500
H 	H 	0.82911 0.65077 0.93823 0.05000
C 	C 	0.94235 0.78946 0.99660 0.03200
C 	C 	0.97877 0.85619 0.99698 -0.04000
C 	C 	0.95046 0.88341 0.98430 -0.05100
C 	C 	0.88483 0.84266 0.97030 0.06700
C 	C 	0.84757 0.77702 0.97251 -0.08100
C 	C 	0.97476 0.76026 0.00748 -0.16700
H 	H 	0.02929 0.88697 0.00702 0.03800
C 	C 	0.85434 0.86830 0.95270 -0.18900
H 	H 	0.79666 0.74636 0.96341 0.04600
H 	H 	0.81386 0.73732 0.03718 0.06300
H 	H 	0.88084 0.74003 0.05448 0.06000
H 	H 	0.80277 0.68256 0.06268 0.05700
H 	H 	0.02750 0.79579 0.01144 0.05300
H 	H 	0.96051 0.71860 0.98933 0.06200
H 	H 	0.96139 0.74353 0.02993 0.06000
H 	H 	0.80909 0.82845 0.93661 0.06000
H 	H 	0.88624 0.90189 0.93789 0.06800
H 	H 	0.84343 0.89372 0.96972 0.07000
H 	H 	0.09503 0.95735 0.93085 0.06700
