data_crystal

_cell_length_a 26.21535
_cell_length_b 26.31810
_cell_length_c 34.96113
_cell_angle_alpha 95.54071
_cell_angle_beta  95.54037
_cell_angle_gamma 125.67785

_symmetry_space_group_name_	'P 1'
_symmetry_space_group_name_H-M	'P 1'

loop_
_symmetry_equiv_pos_as_xyz
  x,y,z

loop_
_atom_site_label
_atom_site_type_symbol
_atom_site_fract_x
_atom_site_fract_y
_atom_site_fract_z
_atom_site_charge
C 	C 	0.97012 0.03029 0.00477 0.02500
C 	C 	0.03573 0.06084 0.00578 -0.07400
C 	C 	0.05919 0.02477 0.00153 0.02300
C 	C 	0.01703 0.95822 0.99672 -0.07300
C 	C 	0.95178 0.92767 0.99632 0.02600
C 	C 	0.92830 0.96365 0.00003 -0.07500
H 	H 	0.06826 0.11233 0.00966 0.04700
H 	H 	0.03502 0.93026 0.99339 0.04900
H 	H 	0.87752 0.93982 0.99877 0.05000
C 	C 	0.94209 0.01141 0.45595 0.02400
C 	C 	0.90519 0.94821 0.46204 -0.06900
C 	C 	0.93171 0.91476 0.46314 0.02200
C 	C 	0.99518 0.94473 0.45834 -0.06600
C 	C 	0.03247 0.00806 0.45307 0.02100
C 	C 	0.00546 0.04079 0.45090 -0.07000
H 	H 	0.85656 0.92560 0.46654 0.04700
H 	H 	0.01586 0.91912 0.45937 0.04700
H 	H 	0.03419 0.08959 0.44635 0.04800
Cu	Cu	0.63967 0.23802 0.00076 0.92700
Cu	Cu	0.68634 0.23760 0.91698 0.87100
Cu	Cu	0.66748 0.33371 0.94734 0.89700
Cu	Cu	0.63085 0.35059 0.02392 0.89300
C 	C 	0.65685 0.28784 0.08195 0.29100
O 	O 	0.54540 0.19425 0.00096 -0.36300
C 	C 	0.64694 0.28652 0.86231 0.29300
O 	O 	0.68482 0.33560 0.00222 -0.64000
O 	O 	0.62764 0.24100 0.94434 -0.63900
O 	O 	0.68595 0.19884 0.99987 -0.37000
O 	O 	0.75009 0.26344 0.96075 -0.44100
O 	O 	0.62558 0.31083 0.07076 -0.38800
O 	O 	0.71083 0.42467 0.95437 -0.38000
C 	C 	0.70478 0.45808 0.98180 0.28500
C 	C 	0.51601 0.21739 0.98714 0.28000
O 	O 	0.54978 0.27531 0.97981 -0.39000
O 	O 	0.66029 0.42993 0.00339 -0.39500
O 	O 	0.66321 0.25215 0.05649 -0.36000
C 	C 	0.73849 0.22490 0.98531 0.28500
O 	O 	0.66605 0.33460 0.89064 -0.38400
O 	O 	0.64186 0.23590 0.86998 -0.42100
H 	H 	0.73059 0.36559 0.01469 0.16300
H 	H 	0.58277 0.21272 0.93006 0.17300
Cu	Cu	0.73918 0.34934 0.45314 0.92800
Cu	Cu	0.73379 0.29876 0.53581 0.87000
Cu	Cu	0.62895 0.29970 0.49743 0.89700
Cu	Cu	0.61388 0.33318 0.41976 0.89300
C 	C 	0.70051 0.33214 0.37004 0.29300
O 	O 	0.76849 0.43991 0.45384 -0.36000
C 	C 	0.66484 0.32148 0.58386 0.29300
O 	O 	0.63888 0.28870 0.44447 -0.64200
O 	O 	0.72437 0.35313 0.50740 -0.64200
O 	O 	0.79187 0.31755 0.45942 -0.37100
O 	O 	0.72446 0.24236 0.49278 -0.44100
O 	O 	0.66571 0.35201 0.37762 -0.38800
O 	O 	0.53684 0.24299 0.48431 -0.38500
C 	C 	0.50092 0.24478 0.45601 0.28600
C 	C 	0.73402 0.45824 0.46466 0.28000
O 	O 	0.67389 0.41551 0.46662 -0.39100
O 	O 	0.52635 0.28730 0.43291 -0.39400
O 	O 	0.73731 0.33148 0.39834 -0.36000
C 	C 	0.76836 0.26313 0.47100 0.28500
O 	O 	0.61902 0.29716 0.55271 -0.38800
O 	O 	0.72030 0.33294 0.58098 -0.41700
H 	H 	0.61652 0.24381 0.43161 0.16400
H 	H 	0.74519 0.39641 0.52262 0.17300
C 	C 	0.68439 0.37624 0.69159 -0.07500
C 	C 	0.63580 0.31897 0.70164 0.01300
C 	C 	0.58999 0.26632 0.67184 -0.00600
C 	C 	0.59697 0.26942 0.63275 -0.00500
C 	C 	0.64952 0.32454 0.62311 -0.09500
C 	C 	0.69151 0.37931 0.65250 0.05800
C 	C 	0.63921 0.31152 0.74300 0.01200
S 	S 	0.52563 0.19528 0.68331 -0.04400
H 	H 	0.56346 0.22775 0.61010 0.03700
S 	S 	0.75245 0.45203 0.64068 -0.06000
H 	H 	0.71846 0.41748 0.71438 0.05100
C 	C 	0.67575 0.29238 0.75867 -0.00700
C 	C 	0.67771 0.28439 0.79759 -0.00400
C 	C 	0.64320 0.29484 0.82125 -0.09600
C 	C 	0.60611 0.31349 0.80549 0.05800
C 	C 	0.60482 0.32227 0.76656 -0.07400
S 	S 	0.71902 0.27797 0.72974 -0.05100
H 	H 	0.70646 0.27033 0.80961 0.02600
S 	S 	0.55872 0.32288 0.83338 -0.05100
H 	H 	0.57625 0.33644 0.75442 0.05300
H 	H 	0.72909 0.48546 0.63234 0.03600
H 	H 	0.77820 0.33391 0.73156 0.03300
H 	H 	0.49980 0.26555 0.82900 0.03400
H 	H 	0.54445 0.15782 0.69085 0.03400
C 	C 	0.73380 0.36803 0.26968 -0.07400
C 	C 	0.70642 0.30694 0.24863 0.01300
C 	C 	0.68648 0.25631 0.26884 -0.00400
C 	C 	0.68814 0.26587 0.30921 -0.00600
C 	C 	0.71034 0.32577 0.32964 -0.08900
C 	C 	0.73634 0.37782 0.31008 0.05700
C 	C 	0.69151 0.29504 0.20539 0.01200
S 	S 	0.65792 0.18055 0.24377 -0.04000
H 	H 	0.67004 0.22622 0.32442 0.03400
S 	S 	0.77299 0.45550 0.33593 -0.03900
H 	H 	0.75105 0.40748 0.25437 0.05100
C 	C 	0.63085 0.27366 0.18574 -0.00600
C 	C 	0.61950 0.26910 0.14523 -0.00400
C 	C 	0.66842 0.28688 0.12393 -0.08900
C 	C 	0.72870 0.30672 0.14341 0.05200
C 	C 	0.73978 0.31048 0.18399 -0.07200
S 	S 	0.56935 0.25440 0.21176 -0.04700
H 	H 	0.57279 0.25275 0.13029 0.04100
S 	S 	0.79141 0.32963 0.11777 -0.04900
H 	H 	0.78645 0.32693 0.19906 0.05300
H 	H 	0.72798 0.46634 0.33738 0.03800
H 	H 	0.57490 0.30851 0.22481 0.03300
H 	H 	0.82473 0.39317 0.11660 0.02900
H 	H 	0.59336 0.14553 0.23039 0.03600
C 	C 	0.89366 0.84862 0.46996 0.01300
C 	C 	0.91622 0.83309 0.50140 -0.04800
C 	C 	0.88728 0.76942 0.50402 -0.02800
C 	C 	0.83633 0.72020 0.47434 -0.01500
C 	C 	0.80835 0.73604 0.44573 0.03300
C 	C 	0.83815 0.80020 0.44309 -0.06900
C 	C 	0.75101 0.68774 0.42021 -0.05400
C 	C 	0.72204 0.62393 0.42217 -0.03300
C 	C 	0.75215 0.60709 0.44778 -0.00000
C 	C 	0.81110 0.65517 0.47307 0.01500
C 	C 	0.84578 0.63738 0.49371 -0.05800
C 	C 	0.81979 0.57307 0.49157 0.00800
C 	C 	0.75963 0.52562 0.46848 -0.07700
C 	C 	0.72574 0.54265 0.44681 -0.01200
H 	H 	0.95693 0.87048 0.52353 0.04000
H 	H 	0.90301 0.75887 0.52978 0.03400
H 	H 	0.81923 0.81232 0.41963 0.04600
H 	H 	0.72842 0.69965 0.39900 0.04000
H 	H 	0.67713 0.58731 0.40265 0.03400
H 	H 	0.89416 0.67281 0.50946 0.04300
H 	H 	0.84702 0.56017 0.50742 0.02800
H 	H 	0.68012 0.50583 0.42792 0.02800
C 	C 	0.91541 0.04787 0.45639 0.01300
C 	C 	0.85867 0.02454 0.43071 -0.04800
C 	C 	0.83487 0.06022 0.42977 -0.02900
C 	C 	0.86682 0.11939 0.45554 -0.01500
C 	C 	0.92671 0.14497 0.47910 0.03100
C 	C 	0.94917 0.10798 0.48066 -0.06800
C 	C 	0.96460 0.20797 0.49971 -0.05200
C 	C 	0.94363 0.24577 0.49737 -0.03500
C 	C 	0.88237 0.21987 0.47681 -0.00000
C 	C 	0.84215 0.15541 0.45704 0.01500
C 	C 	0.77723 0.12735 0.44224 -0.06000
C 	C 	0.75439 0.16384 0.44482 0.00900
C 	C 	0.79512 0.22826 0.46277 -0.08300
C 	C 	0.85931 0.25650 0.47799 -0.01500
H 	H 	0.83389 0.97948 0.41062 0.04000
H 	H 	0.79415 0.04344 0.40742 0.03500
H 	H 	0.99363 0.12652 0.50008 0.04600
H 	H 	0.01113 0.22822 0.51703 0.03800
H 	H 	0.97432 0.29482 0.51280 0.03400
H 	H 	0.74332 0.07672 0.43125 0.04200
H 	H 	0.70422 0.14132 0.43407 0.02800
H 	H 	0.89027 0.30594 0.49285 0.03000
C 	C 	0.10129 0.04178 0.45328 0.01300
C 	C 	0.14183 0.05181 0.48702 -0.04800
C 	C 	0.20714 0.08395 0.48772 -0.02800
C 	C 	0.23264 0.10446 0.45384 -0.01500
C 	C 	0.19240 0.09853 0.42079 0.03200
C 	C 	0.12665 0.06572 0.42035 -0.06900
C 	C 	0.21865 0.12745 0.38924 -0.05400
C 	C 	0.28443 0.16319 0.39046 -0.03500
C 	C 	0.32464 0.16729 0.42213 0.00100
C 	C 	0.29843 0.13463 0.45296 0.01400
C 	C 	0.33776 0.13043 0.48095 -0.05700
C 	C 	0.40339 0.16582 0.48164 0.00400
C 	C 	0.43065 0.20379 0.45345 -0.07400
C 	C 	0.39074 0.20272 0.42296 -0.01700
H 	H 	0.12284 0.03587 0.51312 0.04000
H 	H 	0.23786 0.09574 0.51517 0.03500
H 	H 	0.09541 0.05951 0.39466 0.04600
H 	H 	0.18819 0.12366 0.36410 0.04000
H 	H 	0.30406 0.18699 0.36639 0.03500
H 	H 	0.31759 0.09775 0.50101 0.04200
H 	H 	0.43297 0.16325 0.50404 0.04000
H 	H 	0.41094 0.22915 0.39989 0.03900
C 	C 	0.90821 0.85791 0.99253 0.01300
C 	C 	0.87707 0.83103 0.02324 -0.04800
C 	C 	0.84038 0.76525 0.02135 -0.03000
C 	C 	0.83690 0.72560 0.98928 -0.01400
C 	C 	0.86300 0.75220 0.95662 0.03200
C 	C 	0.89961 0.81837 0.95878 -0.06800
C 	C 	0.85143 0.71241 0.92203 -0.05300
C 	C 	0.81476 0.64661 0.91960 -0.03400
C 	C 	0.79237 0.61975 0.95247 0.00200
C 	C 	0.80574 0.65940 0.98821 0.01500
C 	C 	0.79154 0.63275 0.02233 -0.05900
C 	C 	0.75826 0.56718 0.01994 0.00300
C 	C 	0.74089 0.52736 0.98399 -0.07400
C 	C 	0.75860 0.55381 0.95036 -0.01500
H 	H 	0.88136 0.86120 0.04868 0.04000
H 	H 	0.81273 0.74540 0.04389 0.03400
H 	H 	0.92169 0.83914 0.93439 0.04700
H 	H 	0.87017 0.73244 0.89671 0.04100
H 	H 	0.80517 0.61653 0.89233 0.03700
H 	H 	0.80903 0.66262 0.05093 0.04100
H 	H 	0.74731 0.54746 0.04635 0.02600
H 	H 	0.74632 0.52322 0.92265 0.04700
C 	C 	0.94453 0.06764 0.00660 0.01000
C 	C 	0.90685 0.06125 0.03430 -0.04700
C 	C 	0.87543 0.08960 0.03296 -0.02900
C 	C 	0.88373 0.12769 0.00476 -0.01600
C 	C 	0.92118 0.13316 0.97642 0.03200
C 	C 	0.95246 0.10442 0.97815 -0.06700
C 	C 	0.92405 0.16410 0.94534 -0.05400
C 	C 	0.88796 0.18701 0.94088 -0.03500
C 	C 	0.85108 0.18273 0.96863 0.00000
C 	C 	0.85166 0.15660 0.00212 0.01300
C 	C 	0.82173 0.16158 0.03235 -0.05800
C 	C 	0.78468 0.18360 0.02676 0.00700
C 	C 	0.77955 0.20402 0.99196 -0.08300
C 	C 	0.81410 0.20501 0.96342 -0.01700
H 	H 	0.89979 0.03208 0.05601 0.04000
H 	H 	0.84188 0.07837 0.05224 0.03500
H 	H 	0.98063 0.10826 0.95627 0.04600
H 	H 	0.95273 0.16849 0.92372 0.04000
H 	H 	0.88897 0.20857 0.91579 0.03200
H 	H 	0.82959 0.15191 0.06079 0.04400
H 	H 	0.76114 0.18611 0.04991 0.04100
H 	H 	0.81168 0.22249 0.93695 0.02200
C 	C 	0.12786 0.05640 0.00169 0.01000
C 	C 	0.16263 0.04558 0.02822 -0.04700
C 	C 	0.22520 0.06856 0.02556 -0.03100
C 	C 	0.25580 0.10671 0.99770 -0.01300
C 	C 	0.21974 0.11563 0.97000 0.03000
C 	C 	0.15650 0.09157 0.97271 -0.06600
C 	C 	0.24617 0.14603 0.93894 -0.05300
C 	C 	0.30762 0.16712 0.93475 -0.03500
C 	C 	0.34526 0.16144 0.96271 0.00200
C 	C 	0.32070 0.13356 0.99540 0.01400
C 	C 	0.36240 0.13623 0.02578 -0.05800
C 	C 	0.42466 0.15989 0.02170 0.00300
C 	C 	0.44793 0.18490 0.98857 -0.07700
C 	C 	0.40828 0.18577 0.95917 -0.01700
H 	H 	0.14015 0.01694 0.04999 0.04000
H 	H 	0.24776 0.05314 0.04349 0.03500
H 	H 	0.12889 0.09831 0.95149 0.04500
H 	H 	0.21846 0.15222 0.91745 0.04000
H 	H 	0.32653 0.18917 0.91000 0.03600
H 	H 	0.34866 0.12420 0.05354 0.04200
H 	H 	0.45604 0.16192 0.04541 0.03800
H 	H 	0.42691 0.20667 0.93402 0.03600
