data_crystal

_cell_length_a 20.87122
_cell_length_b 21.75565
_cell_length_c 39.17687
_cell_angle_alpha 60.62016
_cell_angle_beta  119.00102
_cell_angle_gamma 133.29006

_symmetry_space_group_name_	'P 1'
_symmetry_space_group_name_H-M	'P 1'

loop_
_symmetry_equiv_pos_as_xyz
  x,y,z

loop_
_atom_site_label
_atom_site_type_symbol
_atom_site_fract_x
_atom_site_fract_y
_atom_site_fract_z
_atom_site_charge
H 	H 	0.15752 0.53447 0.14406 0.10200
Co	Co	0.01761 0.08563 0.08177 1.18300
Co	Co	0.07291 0.02454 0.04345 1.17300
Co	Co	0.09408 0.89074 0.04135 1.17500
O 	O 	0.07005 0.12109 0.03774 -0.44100
C 	C 	0.11986 0.21357 0.13355 0.32100
C 	C 	0.14264 0.81638 0.12876 0.33300
O 	O 	0.03975 0.95379 0.20091 -0.35900
O 	O 	0.09925 0.79854 0.09369 -0.39200
O 	O 	0.12766 0.85404 0.13969 -0.34900
O 	O 	0.07537 0.15331 0.16225 -0.37300
O 	O 	0.12570 0.19151 0.10918 -0.35200
O 	O 	0.05297 0.92518 0.06440 -0.74400
Co	Co	0.06359 0.03233 0.54055 1.17600
Co	Co	0.09962 0.90862 0.53896 1.18300
O 	O 	0.04982 0.12131 0.53557 -0.43400
C 	C 	0.04657 0.19248 0.61843 0.33600
C 	C 	0.15181 0.84454 0.62635 0.32600
O 	O 	0.18567 0.90464 0.59495 -0.36100
O 	O 	0.09828 0.84087 0.63778 -0.34800
O 	O 	0.07172 0.16201 0.60900 -0.37600
O 	O 	0.04655 0.93371 0.56028 -0.73800
O 	O 	0.19582 0.04042 0.51967 -0.41700
C 	C 	0.06145 0.98139 0.81522 0.15900
C 	C 	0.05752 0.97246 0.78075 0.00900
O 	O 	0.14320 0.02173 0.84173 -0.27900
H 	H 	0.11983 0.00599 0.77314 0.05400
H 	H 	0.17219 0.08510 0.82983 0.18500
C 	C 	0.13002 0.03974 0.39261 0.14500
C 	C 	0.12415 0.05145 0.42294 -0.02100
H 	H 	0.18248 0.07494 0.44755 0.07400
C 	C 	0.12319 0.03500 0.27706 0.17800
C 	C 	0.12474 0.05216 0.30784 -0.15100
O 	O 	0.19160 0.09665 0.25720 -0.26000
H 	H 	0.17760 0.11591 0.31409 0.12000
H 	H 	0.20357 0.00276 0.41071 0.15400
C 	C 	0.12360 0.41958 0.59395 0.07400
C 	C 	0.09724 0.34540 0.58815 0.11700
Br	Br	0.09615 0.49766 0.54939 -0.14300
C 	C 	0.13372 0.66404 0.62879 0.07500
C 	C 	0.10547 0.69790 0.63656 0.10300
C 	C 	0.16979 0.77741 0.64731 -0.10100
Br	Br	0.05440 0.59882 0.58837 -0.17100
C 	C 	0.18448 0.71664 0.18399 0.11800
Br	Br	0.12728 0.68425 0.22207 -0.12800
H 	H 	0.14238 0.51707 0.65470 0.10400
C 	C 	0.10858 0.28339 0.62132 -0.10900
C 	C 	0.17270 0.30736 0.13213 -0.10100
C 	C 	0.03209 0.99007 0.96674 0.35000
O 	O 	0.09623 0.97929 0.98635 -0.36900
C 	C 	0.02313 0.99060 0.46404 0.39300
O 	O 	0.03043 0.04002 0.47851 -0.38100
C 	C 	0.03082 0.04515 0.86047 0.09600
C 	C 	0.03615 0.05706 0.89431 -0.06000
O 	O 	0.07265 0.11639 0.83073 -0.25200
H 	H 	0.07952 0.12226 0.89822 0.09200
C 	C 	0.05442 0.00755 0.36054 -0.07300
C 	C 	0.04093 0.02328 0.42405 -0.17600
C 	C 	0.05710 0.98748 0.32985 0.09100
C 	C 	0.15560 0.36380 0.09694 0.11100
H 	H 	0.02636 0.12681 0.81118 0.16100
Br	Br	0.11476 0.34467 0.04511 -0.16500
C 	C 	0.04805 0.95785 0.26451 -0.08600
Br	Br	0.04306 0.32704 0.53477 -0.16100
C 	C 	0.17703 0.43927 0.09954 0.07400
Br	Br	0.15017 0.51419 0.05188 -0.15400
Co	Co	0.01414 0.85883 0.10669 1.18700
C 	C 	0.15499 0.30072 0.65970 0.11700
O 	O 	0.00777 0.00787 0.98437 -0.38900
Br	Br	0.17401 0.55708 0.22855 -0.13500
O 	O 	0.00738 0.77486 0.55623 -0.39100
C 	C 	0.18503 0.37709 0.66522 0.07200
C 	C 	0.17161 0.43802 0.63209 -0.03700
O 	O 	0.00835 0.91522 0.48624 -0.38600
Br	Br	0.17593 0.21886 0.70481 -0.17800
C 	C 	0.01173 0.96336 0.22079 0.31500
O 	O 	0.20306 0.09921 0.55745 -0.37700
C 	C 	0.20407 0.56178 0.64427 -0.07900
Co	Co	0.99436 0.85795 0.59848 1.19700
Br	Br	0.98873 0.62279 0.64710 -0.14100
C 	C 	0.20840 0.66517 0.18789 0.07900
O 	O 	0.20911 0.05786 0.39502 -0.26100
C 	C 	0.21064 0.79646 0.15427 -0.09200
C 	C 	0.21696 0.45916 0.13717 -0.03800
O 	O 	0.21250 0.09270 0.05441 -0.36700
C 	C 	0.22116 0.33319 0.16850 0.11600
O 	O 	0.97000 0.02163 0.68897 -0.40600
C 	C 	0.96962 0.95270 0.71104 0.35500
O 	O 	0.97615 0.91398 0.69591 -0.35200
O 	O 	0.96080 0.15064 0.61563 -0.36800
O 	O 	0.22597 0.99056 0.06061 -0.33000
Co	Co	0.97738 0.07074 0.57484 1.18100
H 	H 	0.23606 0.08261 0.27204 0.17200
C 	C 	0.98093 0.94527 0.82325 0.01300
C 	C 	0.27649 0.83086 0.13609 0.10500
Br	Br	0.36616 0.95348 0.12251 -0.11700
C 	C 	0.98284 0.96009 0.85747 0.06100
Br	Br	0.90994 0.27125 0.96794 -0.11200
C 	C 	0.25345 0.07208 0.04894 0.29100
C 	C 	0.24364 0.09577 0.54154 0.34400
C 	C 	0.97373 0.92632 0.75456 -0.10100
H 	H 	0.88779 0.82300 0.88209 0.10200
C 	C 	0.23227 0.40154 0.17198 0.07500
Br	Br	0.28838 0.28842 0.21006 -0.13600
Br	Br	0.26797 0.41586 0.22449 -0.14300
C 	C 	0.28449 0.77475 0.13323 0.08000
Br	Br	0.31622 0.80212 0.08660 -0.15100
Br	Br	0.26781 0.17136 0.95710 -0.17100
O 	O 	0.94434 0.96983 0.20263 -0.36300
C 	C 	0.25903 0.80212 0.66635 0.11800
C 	C 	0.73206 0.28512 0.02731 0.10500
C 	C 	0.79390 0.36968 0.03410 -0.08000
C 	C 	0.76199 0.40617 0.03743 0.10900
C 	C 	0.67080 0.35668 0.03656 -0.08700
C 	C 	0.60990 0.27303 0.03070 0.11200
C 	C 	0.63905 0.23937 0.02342 -0.08200
H 	H 	0.86558 0.40589 0.03726 0.10100
H 	H 	0.64713 0.38344 0.04078 0.09500
H 	H 	0.59055 0.17548 0.01732 0.09600
C 	C 	0.71100 0.29410 0.51611 0.11100
C 	C 	0.61842 0.24304 0.51528 -0.08300
C 	C 	0.58391 0.28021 0.51555 0.11300
C 	C 	0.63955 0.36875 0.51346 -0.08800
C 	C 	0.73236 0.41752 0.51818 0.11300
C 	C 	0.76813 0.38155 0.51804 -0.07900
H 	H 	0.57517 0.17416 0.51671 0.09100
H 	H 	0.61212 0.39765 0.51262 0.09500
H 	H 	0.84044 0.41937 0.52188 0.11100
C 	C 	0.28878 0.64492 0.16585 0.10900
C 	C 	0.23021 0.57240 0.14913 -0.08100
C 	C 	0.26727 0.55001 0.13890 0.11000
C 	C 	0.35957 0.60833 0.13920 -0.08400
C 	C 	0.41942 0.67110 0.16171 0.10800
C 	C 	0.38263 0.68391 0.17786 -0.08000
H 	H 	0.38581 0.59857 0.12570 0.09800
H 	H 	0.42637 0.72638 0.19802 0.10300
C 	C 	0.25678 0.65250 0.64004 0.10700
C 	C 	0.34160 0.70785 0.63037 -0.08300
C 	C 	0.37295 0.67236 0.62602 0.11300
C 	C 	0.31483 0.58543 0.62479 -0.08900
C 	C 	0.23120 0.52963 0.63425 0.11300
H 	H 	0.38373 0.77731 0.62734 0.10200
H 	H 	0.33719 0.55972 0.61880 0.09400
Co	Co	0.95835 0.91981 0.14577 1.19800
C 	C 	0.91505 0.73054 0.05526 0.32200
Co	Co	0.93998 0.05600 0.14724 1.17000
O 	O 	0.97172 0.01669 0.12210 -0.77300
O 	O 	0.96758 0.82622 0.15262 -0.41900
O 	O 	0.98886 0.95966 0.08716 -0.54200
C 	C 	0.78064 0.87364 0.14636 0.32400
O 	O 	0.80987 0.95527 0.12764 -0.33800
O 	O 	0.82515 0.84423 0.15204 -0.33900
C 	C 	0.89217 0.13228 0.05951 0.33200
O 	O 	0.93329 0.14811 0.09506 -0.38700
O 	O 	0.91291 0.10213 0.04708 -0.35700
O 	O 	0.95798 0.79512 0.02645 -0.36000
O 	O 	0.91411 0.74565 0.08433 -0.33600
Co	Co	0.91805 0.89984 0.63563 1.19100
C 	C 	0.92193 0.73723 0.55196 0.35200
Co	Co	0.87428 0.01666 0.63640 1.17900
O 	O 	0.92502 0.99325 0.61312 -0.72100
O 	O 	0.93297 0.81202 0.64117 -0.42100
O 	O 	0.96456 0.95474 0.57921 -0.54800
C 	C 	0.73672 0.82887 0.63840 0.34900
O 	O 	0.78406 0.88528 0.65946 -0.37500
O 	O 	0.77784 0.81996 0.62600 -0.35300
C 	C 	0.81639 0.07758 0.55143 0.32900
O 	O 	0.78635 0.00841 0.58078 -0.37200
O 	O 	0.88321 0.10358 0.53911 -0.33400
O 	O 	0.89951 0.76065 0.56745 -0.35400
C 	C 	0.89752 0.89140 0.79962 -0.09900
C 	C 	0.89372 0.88046 0.76608 0.20200
O 	O 	0.81118 0.82777 0.74353 -0.25800
H 	H 	0.83500 0.85997 0.80638 0.09300
C 	C 	0.99023 0.98467 0.92420 -0.06100
C 	C 	0.92856 0.90171 0.91659 0.19500
C 	C 	0.92921 0.88868 0.88507 -0.10800
O 	O 	0.87221 0.83201 0.94177 -0.26100
H 	H 	0.78427 0.86045 0.72867 0.17500
H 	H 	0.81714 0.83043 0.93022 0.18500
C 	C 	0.97514 0.99203 0.35839 -0.04200
C 	C 	0.96754 0.99790 0.39038 0.24800
O 	O 	0.88774 0.97701 0.38898 -0.26000
H 	H 	0.91820 0.97227 0.33271 0.08500
C 	C 	0.99213 0.90364 0.32250 0.11100
C 	C 	0.98827 0.88905 0.29006 -0.00800
O 	O 	0.93356 0.83572 0.34723 -0.23500
H 	H 	0.93315 0.82681 0.28240 0.07800
H 	H 	0.85045 0.91322 0.40079 0.18300
H 	H 	0.87729 0.83244 0.33359 0.16500
Br	Br	0.24580 0.39921 0.71802 -0.14100
C 	C 	0.60027 0.71561 0.66586 0.11900
C 	C 	0.63753 0.77068 0.63199 -0.11000
C 	C 	0.58471 0.79020 0.59506 0.12000
C 	C 	0.50219 0.76753 0.59389 0.07500
C 	C 	0.46999 0.72072 0.62927 -0.03600
C 	C 	0.52165 0.69803 0.66569 0.07200
Br	Br	0.48355 0.64155 0.71515 -0.13100
Br	Br	0.65180 0.65730 0.71057 -0.13300
Br	Br	0.43275 0.79957 0.54393 -0.13900
Br	Br	0.62106 0.83990 0.54588 -0.13500
C 	C 	0.28364 0.75282 0.66907 0.07300
C 	C 	0.22404 0.68966 0.64621 -0.03400
Br	Br	0.34429 0.89777 0.69135 -0.10500
Br	Br	0.38932 0.76116 0.70869 -0.13300
C 	C 	0.58062 0.81126 0.16493 0.07300
C 	C 	0.52015 0.71976 0.16958 -0.03000
C 	C 	0.55527 0.67617 0.17662 0.06800
C 	C 	0.63867 0.72422 0.16740 0.11900
C 	C 	0.69826 0.81574 0.16257 -0.10200
C 	C 	0.67231 0.85445 0.16849 0.12600
Br	Br	0.76239 0.95967 0.18710 -0.18200
Br	Br	0.53919 0.88055 0.14775 -0.11400
Br	Br	0.66650 0.66391 0.16010 -0.14600
Br	Br	0.49746 0.55464 0.20446 -0.13800
C 	C 	0.25656 0.69344 0.16126 -0.03600
C 	C 	0.79155 0.15225 0.57279 0.12300
C 	C 	0.79613 0.13977 0.54160 -0.10400
C 	C 	0.77527 0.18268 0.50117 0.12300
C 	C 	0.74918 0.23547 0.49240 0.07600
C 	C 	0.75131 0.25104 0.52410 -0.03500
C 	C 	0.78346 0.21755 0.56394 0.07500
Br	Br	0.81267 0.25807 0.60702 -0.13500
Br	Br	0.77398 0.06943 0.62477 -0.28900
Br	Br	0.71186 0.28700 0.43737 -0.13500
Br	Br	0.77437 0.16348 0.45781 -0.13600
C 	C 	0.79063 0.50243 0.56389 0.07400
C 	C 	0.79188 0.50173 0.52840 -0.03200
C 	C 	0.82497 0.57935 0.49788 0.07600
C 	C 	0.85185 0.65538 0.50206 0.12100
C 	C 	0.85301 0.65587 0.53824 -0.10900
C 	C 	0.80993 0.57621 0.56617 0.12700
Br	Br	0.76389 0.56469 0.60285 -0.13400
Br	Br	0.76189 0.40206 0.60912 -0.11900
Br	Br	0.87141 0.75288 0.45615 -0.17700
Br	Br	0.83067 0.58075 0.44979 -0.13800
C 	C 	0.42804 0.23994 0.49153 0.06700
C 	C 	0.49267 0.22612 0.52230 -0.04100
C 	C 	0.48068 0.18397 0.56216 0.07000
C 	C 	0.40565 0.15770 0.57081 0.11400
C 	C 	0.33860 0.16618 0.53944 -0.11600
C 	C 	0.35657 0.21773 0.50110 0.11700
Br	Br	0.28015 0.25408 0.46140 -0.16100
Br	Br	0.43750 0.28866 0.43635 -0.14900
Br	Br	0.39480 0.11138 0.62548 -0.15800
Br	Br	0.56631 0.16164 0.60468 -0.14100
C 	C 	0.84689 0.22956 0.00578 0.11000
C 	C 	0.82215 0.14869 0.03414 -0.10000
C 	C 	0.75091 0.10594 0.05090 0.08400
C 	C 	0.73519 0.15501 0.05483 0.07400
C 	C 	0.76481 0.23943 0.02929 -0.03500
C 	C 	0.81632 0.27447 0.00252 0.06700
Br	Br	0.83898 0.37851 0.96008 -0.12100
Br	Br	0.68967 0.11328 0.09978 -0.15800
Br	Br	0.66576 0.98176 0.06124 -0.11500
C 	C 	0.87211 0.51676 0.07800 0.07400
C 	C 	0.82151 0.49775 0.03990 -0.03600
C 	C 	0.79984 0.55468 0.00858 0.06200
C 	C 	0.80936 0.61606 0.01746 0.11000
C 	C 	0.86515 0.63975 0.05412 -0.10100
C 	C 	0.89155 0.58609 0.08549 0.11100
Br	Br	0.93890 0.59715 0.13969 -0.14300
Br	Br	0.91214 0.44625 0.12017 -0.15000
Br	Br	0.72761 0.64832 0.98541 -0.13700
Br	Br	0.74814 0.54198 0.95431 -0.13000
C 	C 	0.41961 0.15978 0.07643 0.12000
C 	C 	0.34602 0.14114 0.04278 -0.09800
C 	C 	0.36091 0.17264 0.00438 0.10100
C 	C 	0.44591 0.21045 0.00054 0.06600
C 	C 	0.51679 0.21890 0.03513 -0.03800
C 	C 	0.50297 0.19250 0.07327 0.07400
Br	Br	0.59750 0.19900 0.12117 -0.13200
Br	Br	0.40674 0.14361 0.12629 -0.15700
Br	Br	0.46611 0.25287 0.94791 -0.13300
