data_crystal

_cell_length_a 22.48057
_cell_length_b 22.94657
_cell_length_c 35.66818
_cell_angle_alpha 89.99724
_cell_angle_beta  89.99735
_cell_angle_gamma 120.39908

_symmetry_space_group_name_	'P 1'
_symmetry_space_group_name_H-M	'P 1'

loop_
_symmetry_equiv_pos_as_xyz
  x,y,z

loop_
_atom_site_label
_atom_site_type_symbol
_atom_site_fract_x
_atom_site_fract_y
_atom_site_fract_z
_atom_site_charge
C 	C 	0.72774 0.47577 0.79556 0.29400
C 	C 	0.73413 0.27518 0.69220 0.30800
C 	C 	0.72953 0.46157 0.69483 0.31100
C 	C 	0.75542 0.27488 0.79663 0.29200
C 	C 	0.52943 0.25824 0.70108 0.30900
C 	C 	0.54437 0.26244 0.80580 0.28600
Ni	Ni	0.76605 0.38544 0.74742 1.11300
Ni	Ni	0.62608 0.23868 0.74976 1.12000
Ni	Ni	0.61602 0.37266 0.74820 1.12000
O 	O 	0.77557 0.47110 0.77548 -0.37300
O 	O 	0.66125 0.42952 0.79391 -0.38700
O 	O 	0.53694 0.21733 0.72398 -0.38400
O 	O 	0.77837 0.31421 0.71779 -0.38000
O 	O 	0.66738 0.24691 0.69799 -0.38200
O 	O 	0.53755 0.30014 0.77956 -0.38300
O 	O 	0.74944 0.41728 0.69652 -0.38700
O 	O 	0.68145 0.45711 0.71778 -0.38200
O 	O 	0.57656 0.22828 0.79861 -0.38200
O 	O 	0.77921 0.34079 0.79480 -0.37700
O 	O 	0.70476 0.23095 0.77426 -0.37600
O 	O 	0.57562 0.32279 0.70032 -0.39200
O 	O 	0.67194 0.33400 0.75727 -0.71800
H 	H 	0.67380 0.33554 0.78486 0.16000
C 	C 	0.26784 0.52701 0.29558 0.29300
C 	C 	0.26152 0.72749 0.19209 0.30700
C 	C 	0.26602 0.54103 0.19490 0.31000
C 	C 	0.24024 0.72801 0.29652 0.29100
C 	C 	0.46619 0.74439 0.20102 0.30800
C 	C 	0.45126 0.74039 0.30574 0.28600
Ni	Ni	0.22955 0.61733 0.24740 1.11200
Ni	Ni	0.36957 0.76407 0.24966 1.12200
Ni	Ni	0.37957 0.63007 0.24821 1.12000
O 	O 	0.21999 0.53170 0.27554 -0.37300
O 	O 	0.33432 0.57330 0.29395 -0.38700
O 	O 	0.45869 0.78534 0.22389 -0.37900
O 	O 	0.21726 0.68851 0.21770 -0.38000
O 	O 	0.32826 0.75575 0.19788 -0.37900
O 	O 	0.45806 0.70262 0.27953 -0.38400
O 	O 	0.24613 0.58535 0.19654 -0.38700
O 	O 	0.31414 0.54555 0.21784 -0.38300
O 	O 	0.41907 0.77454 0.29852 -0.37700
O 	O 	0.21642 0.66208 0.29474 -0.37700
O 	O 	0.29090 0.77187 0.27412 -0.37200
O 	O 	0.41998 0.67983 0.20030 -0.39200
O 	O 	0.32368 0.66876 0.25723 -0.71800
H 	H 	0.32182 0.66728 0.28483 0.16100
C 	C 	0.18222 0.08409 0.98957 0.28900
C 	C 	0.91852 0.91824 0.07364 0.30800
C 	C 	0.07741 0.89687 0.00654 0.30500
C 	C 	0.02559 0.10694 0.05952 0.29600
C 	C 	0.90062 0.88253 0.95307 0.31100
C 	C 	0.98666 0.07187 0.93554 0.28300
Ni	Ni	0.06603 0.00253 0.04750 1.10300
Ni	Ni	0.93432 0.99500 0.00559 1.13400
Ni	Ni	0.04699 0.98358 0.95743 1.13500
O 	O 	0.16346 0.04696 0.02093 -0.38100
O 	O 	0.13892 0.07002 0.96103 -0.38900
O 	O 	0.88739 0.93046 0.96228 -0.37500
O 	O 	0.98202 0.96052 0.08448 -0.35900
O 	O 	0.90255 0.91257 0.03814 -0.38600
O 	O 	0.00399 0.02644 0.92482 -0.38800
O 	O 	0.04404 0.90623 0.03362 -0.37000
O 	O 	0.09826 0.93745 0.97731 -0.36400
O 	O 	0.96342 0.07174 0.96974 -0.40000
O 	O 	0.07627 0.09373 0.06351 -0.38000
O 	O 	0.96138 0.05818 0.05140 -0.39800
O 	O 	0.96274 0.89177 0.95671 -0.38800
O 	O 	0.02552 0.01081 0.00325 -0.73500
H 	H 	0.05125 0.06015 0.99974 0.16400
C 	C 	0.81346 0.91882 0.48951 0.28600
C 	C 	0.07715 0.08434 0.57362 0.30800
C 	C 	0.91839 0.10600 0.50658 0.30800
C 	C 	0.96994 0.89566 0.55940 0.28000
C 	C 	0.09516 0.12026 0.45307 0.31100
C 	C 	0.00897 0.93097 0.43544 0.29000
Ni	Ni	0.92964 0.00019 0.54746 1.09600
Ni	Ni	0.06131 0.00767 0.50553 1.10700
Ni	Ni	0.94875 0.01932 0.45740 1.10400
O 	O 	0.83223 0.95588 0.52089 -0.35400
O 	O 	0.85677 0.93292 0.46096 -0.37100
O 	O 	0.10832 0.07228 0.46225 -0.39700
O 	O 	0.01364 0.04207 0.58446 -0.37700
O 	O 	0.09314 0.09005 0.53812 -0.39500
O 	O 	0.99170 0.97646 0.42475 -0.36900
O 	O 	0.95173 0.09654 0.53364 -0.38700
O 	O 	0.89754 0.06548 0.47733 -0.39100
O 	O 	0.03216 0.93099 0.46964 -0.37900
O 	O 	0.91929 0.90892 0.56342 -0.36100
O 	O 	0.03417 0.94439 0.55130 -0.35900
O 	O 	0.03306 0.11109 0.45674 -0.39400
O 	O 	0.97014 0.99196 0.50320 -0.69300
H 	H 	0.94438 0.94262 0.49966 0.15700
C 	C 	0.11595 0.39775 0.14383 -0.06500
C 	C 	0.14547 0.36054 0.13079 0.02000
C 	C 	0.21503 0.38280 0.13855 -0.06400
C 	C 	0.25467 0.44184 0.15938 0.01800
C 	C 	0.22508 0.47915 0.17248 -0.09200
C 	C 	0.15544 0.45672 0.16454 0.01800
C 	C 	0.10330 0.29757 0.10961 0.02200
H 	H 	0.23817 0.35415 0.12865 0.04600
H 	H 	0.30828 0.45862 0.16515 0.03300
H 	H 	0.13163 0.48452 0.17482 0.02500
H 	H 	0.06232 0.38087 0.13802 0.04500
C 	C 	0.05057 0.24031 0.12766 -0.06800
C 	C 	0.01771 0.17795 0.10920 0.02600
C 	C 	0.03786 0.17245 0.07276 -0.09100
C 	C 	0.08557 0.23104 0.05352 0.01600
C 	C 	0.11849 0.29333 0.07194 -0.06400
H 	H 	0.03743 0.24344 0.15652 0.04600
H 	H 	0.98046 0.13311 0.12421 0.01900
H 	H 	0.10082 0.22744 0.02518 0.02600
H 	H 	0.15784 0.33769 0.05746 0.04600
C 	C 	0.78726 0.90362 0.14352 -0.06100
C 	C 	0.73582 0.83560 0.13886 0.02000
C 	C 	0.74998 0.79270 0.11743 -0.06300
C 	C 	0.81294 0.81870 0.09860 0.01600
C 	C 	0.86265 0.88761 0.10136 -0.08900
C 	C 	0.85062 0.92932 0.12512 0.01600
C 	C 	0.66624 0.81019 0.15495 0.02100
H 	H 	0.71142 0.73974 0.11444 0.04500
H 	H 	0.82187 0.78595 0.08050 0.03200
H 	H 	0.88858 0.98262 0.12743 0.04400
H 	H 	0.77720 0.93715 0.16021 0.05000
C 	C 	0.65864 0.81923 0.19320 -0.06300
C 	C 	0.59335 0.79830 0.20804 0.01600
C 	C 	0.53476 0.76717 0.18494 -0.08900
C 	C 	0.54197 0.75679 0.14687 0.01600
C 	C 	0.60752 0.77876 0.13183 -0.06200
H 	H 	0.70335 0.84263 0.21140 0.04700
H 	H 	0.58818 0.80568 0.23761 0.03900
H 	H 	0.49704 0.73256 0.12886 0.03400
H 	H 	0.61275 0.77198 0.10220 0.04700
C 	C 	0.20669 0.85536 0.04198 -0.06000
C 	C 	0.16247 0.79292 0.05904 0.02000
C 	C 	0.09258 0.75710 0.04876 -0.06100
C 	C 	0.06530 0.78813 0.02652 0.01600
C 	C 	0.10793 0.85474 0.01412 -0.08500
C 	C 	0.17950 0.88584 0.01922 0.01500
C 	C 	0.18576 0.77217 0.09255 0.02200
H 	H 	0.05842 0.70756 0.06051 0.04600
H 	H 	0.01018 0.76268 0.02168 0.03400
H 	H 	0.21321 0.93641 0.00873 0.04300
H 	H 	0.26115 0.88269 0.04876 0.05000
C 	C 	0.24381 0.76448 0.09076 -0.06200
C 	C 	0.26906 0.75050 0.12334 0.01800
C 	C 	0.23615 0.74369 0.15790 -0.08700
C 	C 	0.17776 0.75075 0.15956 0.01600
C 	C 	0.15289 0.76517 0.12713 -0.06300
H 	H 	0.26960 0.76983 0.06425 0.04800
H 	H 	0.31374 0.74443 0.12166 0.04000
H 	H 	0.15219 0.74601 0.18608 0.03400
H 	H 	0.10880 0.77217 0.12896 0.04800
C 	C 	0.18530 0.23365 0.37243 -0.06600
C 	C 	0.19979 0.29582 0.38776 0.02100
C 	C 	0.19459 0.30161 0.42660 -0.06400
C 	C 	0.16856 0.24431 0.44938 0.01900
C 	C 	0.14709 0.18078 0.43345 -0.09300
C 	C 	0.15948 0.17637 0.39530 0.01500
C 	C 	0.21563 0.35336 0.36298 0.01900
H 	H 	0.20769 0.34986 0.43888 0.04700
H 	H 	0.16018 0.24843 0.47895 0.03400
H 	H 	0.14382 0.12766 0.38278 0.02500
H 	H 	0.19068 0.22898 0.34257 0.04300
C 	C 	0.27535 0.38233 0.34088 -0.06300
C 	C 	0.29119 0.43779 0.31806 0.01500
C 	C 	0.24755 0.46506 0.31722 -0.08200
C 	C 	0.18685 0.43503 0.33862 0.01300
C 	C 	0.17097 0.37940 0.36145 -0.06200
H 	H 	0.30984 0.36230 0.34167 0.04400
H 	H 	0.33765 0.45989 0.30120 0.03000
H 	H 	0.15278 0.45555 0.33819 0.03300
H 	H 	0.12425 0.35679 0.37812 0.04700
C 	C 	0.50792 0.77575 0.40702 -0.06100
C 	C 	0.57533 0.78707 0.40454 0.02100
C 	C 	0.60167 0.78327 0.36951 -0.06100
C 	C 	0.56120 0.76824 0.33735 0.01400
C 	C 	0.49401 0.75731 0.33970 -0.07900
C 	C 	0.46748 0.76118 0.37467 0.01300
C 	C 	0.62055 0.80825 0.43788 0.02000
H 	H 	0.65406 0.79322 0.36714 0.04800
H 	H 	0.58244 0.76601 0.31047 0.03500
H 	H 	0.41549 0.75239 0.37682 0.03500
H 	H 	0.48711 0.77871 0.43388 0.04700
C 	C 	0.63766 0.86898 0.45610 -0.05800
C 	C 	0.69677 0.90123 0.47848 0.01500
C 	C 	0.73978 0.87368 0.48205 -0.07700
C 	C 	0.71706 0.80837 0.46846 0.01200
C 	C 	0.65724 0.77545 0.44667 -0.06000
H 	H 	0.60854 0.89388 0.45049 0.05000
H 	H 	0.71255 0.95061 0.48997 0.04300
H 	H 	0.74874 0.78558 0.47209 0.03000
H 	H 	0.64277 0.72711 0.43404 0.04500
C 	C 	0.09471 0.89423 0.35655 -0.05700
C 	C 	0.07803 0.82807 0.36560 0.01700
C 	C 	0.02789 0.79206 0.39306 -0.05400
C 	C 	0.99911 0.82383 0.41346 0.00300
C 	C 	0.02008 0.89181 0.40653 -0.07200
C 	C 	0.06540 0.92575 0.37673 0.01200
C 	C 	0.11617 0.79824 0.34800 0.02200
H 	H 	0.01315 0.74034 0.39955 0.04500
H 	H 	0.96351 0.79685 0.43610 0.03200
H 	H 	0.08181 0.97814 0.37100 0.04400
H 	H 	0.13267 0.92227 0.33507 0.04900
C 	C 	0.11914 0.79494 0.30882 -0.06200
C 	C 	0.15943 0.77159 0.29214 0.01500
C 	C 	0.19654 0.75055 0.31445 -0.08000
C 	C 	0.19224 0.75200 0.35360 0.01300
C 	C 	0.15254 0.77616 0.37036 -0.06100
H 	H 	0.09082 0.81116 0.29130 0.04700
H 	H 	0.16198 0.76999 0.26184 0.03700
H 	H 	0.22051 0.73560 0.37102 0.03100
H 	H 	0.15096 0.77880 0.40064 0.04800
C 	C 	0.84295 0.22657 0.87050 -0.06200
C 	C 	0.87952 0.20472 0.84815 0.01900
C 	C 	0.87677 0.20824 0.80897 -0.06300
C 	C 	0.83648 0.23159 0.79228 0.01300
C 	C 	0.79917 0.25240 0.81457 -0.08100
C 	C 	0.80325 0.25073 0.85373 0.01100
C 	C 	0.91765 0.17489 0.86575 0.01700
H 	H 	0.90524 0.19219 0.79146 0.04300
H 	H 	0.83410 0.23335 0.76198 0.03500
H 	H 	0.77481 0.26694 0.87114 0.02900
H 	H 	0.84436 0.22376 0.90078 0.04400
C 	C 	0.96766 0.21082 0.89328 -0.05900
C 	C 	0.99644 0.17903 0.91366 0.00400
C 	C 	0.97558 0.11110 0.90666 -0.08100
C 	C 	0.93039 0.07725 0.87681 0.01000
C 	C 	0.90109 0.10879 0.85664 -0.06300
H 	H 	0.98231 0.26249 0.89983 0.04400
H 	H 	0.03194 0.20595 0.93635 0.03700
H 	H 	0.91407 0.02490 0.87102 0.02800
H 	H 	0.86324 0.08081 0.83510 0.04100
C 	C 	0.72035 0.62047 0.84091 -0.06200
C 	C 	0.78007 0.64939 0.86301 0.02100
C 	C 	0.82468 0.62328 0.86147 -0.06200
C 	C 	0.80875 0.56765 0.83863 0.01400
C 	C 	0.74806 0.53769 0.81723 -0.08200
C 	C 	0.70447 0.56502 0.81808 0.01600
C 	C 	0.79597 0.70694 0.88779 0.02100
H 	H 	0.87140 0.64584 0.87813 0.04800
H 	H 	0.84279 0.54709 0.83819 0.03300
H 	H 	0.65801 0.54297 0.80122 0.03200
H 	H 	0.68590 0.64055 0.84171 0.04800
C 	C 	0.81043 0.76910 0.87246 -0.06100
C 	C 	0.83627 0.82638 0.89532 0.01700
C 	C 	0.84870 0.82198 0.93347 -0.08700
C 	C 	0.82727 0.75846 0.94940 0.01800
C 	C 	0.80123 0.70116 0.92663 -0.06200
H 	H 	0.80502 0.77376 0.84260 0.04900
H 	H 	0.85190 0.87509 0.88280 0.03800
H 	H 	0.83569 0.75435 0.97896 0.03400
H 	H 	0.78816 0.65292 0.93890 0.04700
C 	C 	0.48779 0.22730 0.90709 -0.06200
C 	C 	0.42036 0.21592 0.90462 0.01900
C 	C 	0.39399 0.21964 0.86958 -0.06200
C 	C 	0.43445 0.23463 0.83741 0.01300
C 	C 	0.50165 0.24559 0.83977 -0.08000
C 	C 	0.52821 0.24182 0.87474 0.01100
C 	C 	0.37514 0.19477 0.93796 0.01900
H 	H 	0.34159 0.20965 0.86721 0.04600
H 	H 	0.41318 0.23678 0.81053 0.03400
H 	H 	0.58021 0.25064 0.87690 0.03200
H 	H 	0.50862 0.22440 0.93396 0.04300
C 	C 	0.35809 0.13407 0.95621 -0.06400
C 	C 	0.29897 0.10180 0.97859 0.01300
C 	C 	0.25590 0.12928 0.98212 -0.08500
C 	C 	0.27857 0.19457 0.96851 0.01400
C 	C 	0.33840 0.22752 0.94673 -0.06200
H 	H 	0.38726 0.10921 0.95064 0.04200
H 	H 	0.28323 0.05245 0.99011 0.02600
H 	H 	0.24685 0.21732 0.97211 0.02900
H 	H 	0.35284 0.27583 0.93407 0.04600
C 	C 	0.75195 0.23829 0.59087 -0.06400
C 	C 	0.80999 0.23058 0.59267 0.01900
C 	C 	0.84279 0.23751 0.62726 -0.06400
C 	C 	0.81788 0.25189 0.65968 0.01400
C 	C 	0.75951 0.25898 0.65801 -0.08900
C 	C 	0.72666 0.25222 0.62345 0.01500
C 	C 	0.83333 0.20988 0.55916 0.01900
H 	H 	0.88688 0.23049 0.62910 0.04500
H 	H 	0.84341 0.25659 0.68621 0.03200
H 	H 	0.68199 0.25832 0.62176 0.03800
H 	H 	0.72620 0.23299 0.56435 0.04400
C 	C 	0.78911 0.14748 0.54206 -0.06600
C 	C 	0.81633 0.11704 0.51928 0.01400
C 	C 	0.88789 0.14814 0.51420 -0.09400
C 	C 	0.93053 0.21471 0.52665 0.01700
C 	C 	0.90323 0.24570 0.54891 -0.06500
H 	H 	0.73464 0.12015 0.54882 0.04200
H 	H 	0.78262 0.06650 0.50876 0.02500
H 	H 	0.98566 0.24015 0.52183 0.03100
H 	H 	0.93740 0.29521 0.56069 0.04600
C 	C 	0.94499 0.76211 0.62743 -0.05700
C 	C 	0.89212 0.70493 0.60940 0.01800
C 	C 	0.87679 0.70924 0.57178 -0.05900
C 	C 	0.90972 0.77156 0.55337 0.01000
C 	C 	0.95759 0.83009 0.57260 -0.07600
C 	C 	0.97786 0.82450 0.60899 0.01000
C 	C 	0.84996 0.64195 0.63059 0.02300
H 	H 	0.83733 0.66494 0.55731 0.04500
H 	H 	0.89438 0.77523 0.52507 0.02800
H 	H 	0.01523 0.86929 0.62399 0.04300
H 	H 	0.95823 0.75892 0.65626 0.04800
C 	C 	0.87941 0.60460 0.64350 -0.06600
C 	C 	0.83996 0.54565 0.66423 0.01900
C 	C 	0.77040 0.52337 0.67233 -0.09200
C 	C 	0.74086 0.56079 0.65934 0.01900
C 	C 	0.78048 0.61982 0.63849 -0.06400
H 	H 	0.93298 0.62137 0.63756 0.04700
H 	H 	0.86373 0.51776 0.67441 0.02600
H 	H 	0.68731 0.54413 0.66523 0.03400
H 	H 	0.75738 0.64857 0.62868 0.04900
C 	C 	0.20839 0.09886 0.64348 -0.06500
C 	C 	0.25981 0.16690 0.63886 0.02000
C 	C 	0.24564 0.20982 0.61747 -0.06400
C 	C 	0.18269 0.18385 0.59863 0.01700
C 	C 	0.13301 0.11492 0.60136 -0.09400
C 	C 	0.14504 0.07318 0.62508 0.01300
C 	C 	0.32939 0.19231 0.65497 0.01900
H 	H 	0.28419 0.26280 0.61450 0.04600
H 	H 	0.17376 0.21662 0.58055 0.03300
H 	H 	0.10710 0.01987 0.62736 0.03000
H 	H 	0.21845 0.06531 0.66016 0.04200
C 	C 	0.33695 0.18322 0.69321 -0.06400
C 	C 	0.40224 0.20418 0.70807 0.01400
C 	C 	0.46085 0.23539 0.68497 -0.09100
C 	C 	0.45367 0.24582 0.64691 0.01500
C 	C 	0.38813 0.22381 0.63186 -0.06400
H 	H 	0.29222 0.15976 0.71140 0.04400
H 	H 	0.40738 0.19677 0.73763 0.03700
H 	H 	0.49861 0.27011 0.62891 0.03200
H 	H 	0.38292 0.23063 0.60223 0.04500
