data_crystal

_cell_length_a 26.90717
_cell_length_b 26.88597
_cell_length_c 26.86540
_cell_angle_alpha 89.91408
_cell_angle_beta  89.90470
_cell_angle_gamma 89.90471

_symmetry_space_group_name_	'P 1'
_symmetry_space_group_name_H-M	'P 1'

loop_
_symmetry_equiv_pos_as_xyz
  x,y,z

loop_
_atom_site_label
_atom_site_type_symbol
_atom_site_fract_x
_atom_site_fract_y
_atom_site_fract_z
_atom_site_charge
Co	Co	0.97608 0.03299 0.44930 1.19000
Co	Co	0.04287 0.95447 0.57486 1.18700
Co	Co	0.97339 0.03740 0.57059 1.18900
Co	Co	0.04689 0.95098 0.45349 1.18800
C 	C 	0.00701 0.09546 0.36182 0.31000
Co	Co	0.01183 0.98532 0.34329 1.16500
Co	Co	0.00315 0.00002 0.68061 1.16700
C 	C 	0.01200 0.87928 0.37860 0.30900
O 	O 	0.93250 0.03149 0.67725 -0.40400
O 	O 	0.01158 0.00036 0.60302 -0.76500
C 	C 	0.89879 0.01375 0.64671 0.30600
O 	O 	0.94447 0.06744 0.50805 -0.46800
O 	O 	0.07168 0.91755 0.51613 -0.46700
C 	C 	0.99198 0.89326 0.65353 0.30200
O 	O 	0.02592 0.00771 0.51202 -0.57900
C 	C 	0.01398 0.10776 0.65219 0.29800
C 	C 	0.90478 0.99277 0.37237 0.29600
C 	C 	0.11954 0.97465 0.36748 0.29400
O 	O 	0.91051 0.00480 0.60000 -0.39800
O 	O 	0.93725 0.96615 0.34710 -0.39100
O 	O 	0.91168 0.00153 0.42025 -0.39100
O 	O 	0.97148 0.93008 0.67847 -0.39800
O 	O 	0.00093 0.89754 0.60532 -0.39800
O 	O 	0.03555 0.06968 0.67477 -0.39300
O 	O 	0.98542 0.10200 0.61209 -0.37800
O 	O 	0.08612 0.00404 0.34668 -0.38600
O 	O 	0.11344 0.95642 0.41322 -0.37900
O 	O 	0.01495 0.99350 0.42093 -0.77100
C 	C 	0.11069 0.97463 0.66179 0.30900
O 	O 	0.07211 0.96610 0.69068 -0.41100
O 	O 	0.10816 0.96716 0.61338 -0.38800
O 	O 	0.99070 0.05899 0.33367 -0.40400
O 	O 	0.00127 0.09417 0.41052 -0.38900
O 	O 	0.03133 0.91029 0.34604 -0.40600
O 	O 	0.00596 0.89304 0.42520 -0.40200
Co	Co	0.96670 0.42946 0.03804 1.19200
Co	Co	0.03089 0.56275 0.97317 1.18300
Co	Co	0.95536 0.54882 0.04990 1.18800
Co	Co	0.04473 0.44314 0.96400 1.18600
C 	C 	0.90129 0.35760 0.98348 0.30300
Co	Co	0.00901 0.32960 0.98309 1.16300
Co	Co	0.97392 0.66221 0.01321 1.17100
C 	C 	0.11690 0.35671 0.98560 0.28700
O 	O 	0.99897 0.65993 0.08575 -0.38900
O 	O 	0.99168 0.58607 0.01536 -0.76100
C 	C 	0.97435 0.63644 0.12119 0.29900
O 	O 	0.93089 0.48303 0.07634 -0.46500
O 	O 	0.07033 0.50904 0.93866 -0.47000
C 	C 	0.08459 0.65789 0.99828 0.28900
O 	O 	0.01508 0.49633 0.02231 -0.57400
C 	C 	0.87360 0.61520 0.02003 0.30700
C 	C 	0.99433 0.33580 0.09376 0.30700
C 	C 	0.01838 0.37508 0.88192 0.31200
O 	O 	0.96086 0.58907 0.11632 -0.37900
O 	O 	0.98199 0.31145 0.05328 -0.40000
O 	O 	0.98592 0.38400 0.09739 -0.38400
O 	O 	0.04349 0.68106 0.98552 -0.40800
O 	O 	0.08867 0.60923 0.99299 -0.39200
O 	O 	0.90171 0.65043 0.03860 -0.40300
O 	O 	0.89184 0.57040 0.01288 -0.39800
O 	O 	0.03559 0.34003 0.91125 -0.40900
O 	O 	0.01012 0.42001 0.89944 -0.40300
O 	O 	0.00995 0.40597 0.99998 -0.77600
C 	C 	0.97522 0.63322 0.90573 0.29900
O 	O 	0.94933 0.65655 0.94029 -0.39700
O 	O 	0.98924 0.58661 0.91256 -0.39700
O 	O 	0.93613 0.33394 0.95824 -0.39100
O 	O 	0.90737 0.40451 0.99631 -0.40600
O 	O 	0.08143 0.33204 0.00908 -0.37400
O 	O 	0.11131 0.40420 0.97246 -0.38300
Co	Co	0.57832 0.03391 0.03655 1.19100
Co	Co	0.44297 0.97087 0.97448 1.18200
Co	Co	0.45808 0.04786 0.04862 1.18700
Co	Co	0.56309 0.95584 0.96449 1.18300
C 	C 	0.66544 0.00294 0.10108 0.31100
Co	Co	0.67775 0.98191 0.99126 1.16000
Co	Co	0.34311 0.02072 0.01943 1.17200
C 	C 	0.63723 0.98024 0.88791 0.31200
O 	O 	0.35137 0.09259 0.99327 -0.40400
O 	O 	0.42027 0.00827 0.01854 -0.75900
C 	C 	0.38475 0.12378 0.01048 0.31000
O 	O 	0.52481 0.07536 0.06905 -0.46500
O 	O 	0.49677 0.93517 0.93610 -0.47200
C 	C 	0.36422 0.01266 0.91097 0.31600
O 	O 	0.51007 0.98719 0.02203 -0.57600
C 	C 	0.37734 0.03308 0.12533 0.30500
C 	C 	0.65720 0.09227 0.98190 0.29900
C 	C 	0.64281 0.87717 0.98911 0.28400
O 	O 	0.43212 0.11093 0.01223 -0.39400
O 	O 	0.68315 0.05429 0.96468 -0.39500
O 	O 	0.60900 0.08759 0.99017 -0.40300
O 	O 	0.33461 0.99672 0.94651 -0.41800
O 	O 	0.41265 0.01249 0.91774 -0.40500
O 	O 	0.34546 0.04852 0.09164 -0.40300
O 	O 	0.42569 0.03696 0.11777 -0.38600
O 	O 	0.66691 0.91011 0.01621 -0.37500
O 	O 	0.59713 0.88608 0.97228 -0.37900
O 	O 	0.60064 0.98679 0.00336 -0.76300
C 	C 	0.35401 0.91047 0.01457 0.31300
O 	O 	0.34122 0.94771 0.04391 -0.39400
O 	O 	0.39643 0.91032 0.98913 -0.39200
O 	O 	0.69431 0.00865 0.06188 -0.39600
O 	O 	0.61834 0.01679 0.09980 -0.39100
O 	O 	0.66825 0.95775 0.91819 -0.40900
O 	O 	0.59179 0.99062 0.90262 -0.40600
C 	C 	0.75007 0.67306 0.04191 -0.05200
C 	C 	0.73799 0.68608 0.99280 -0.00800
C 	C 	0.76204 0.66141 0.95318 0.00300
C 	C 	0.80354 0.63133 0.96280 -0.02200
C 	C 	0.82060 0.62526 0.01171 -0.07600
C 	C 	0.79086 0.64214 0.05146 0.05000
C 	C 	0.71044 0.73298 0.98369 0.02100
S 	S 	0.74194 0.66985 0.89145 -0.04100
H 	H 	0.82486 0.61619 0.93205 0.04500
S 	S 	0.80586 0.62672 0.11335 -0.04100
H 	H 	0.73013 0.68993 0.07267 0.05000
C 	C 	0.65987 0.73777 0.99676 -0.01700
C 	C 	0.63734 0.78489 0.99665 -0.01400
C 	C 	0.66467 0.82717 0.98279 -0.08900
C 	C 	0.71405 0.82156 0.96581 0.06000
C 	C 	0.73676 0.77483 0.96713 -0.07800
S 	S 	0.62433 0.68518 0.01266 -0.02000
H 	H 	0.59899 0.78876 0.00847 0.05400
S 	S 	0.74742 0.87238 0.94141 -0.08600
H 	H 	0.77541 0.77112 0.95622 0.05400
H 	H 	0.83764 0.66157 0.13237 0.04600
H 	H 	0.62768 0.67693 0.06289 0.03500
H 	H 	0.73837 0.87627 0.89137 0.04700
H 	H 	0.70637 0.63514 0.88058 0.03800
C 	C 	0.69193 0.22746 0.00414 -0.06200
C 	C 	0.73281 0.23225 0.97193 0.00500
C 	C 	0.74477 0.19281 0.93934 -0.00400
C 	C 	0.71564 0.14989 0.93908 -0.00100
C 	C 	0.67823 0.14281 0.97499 -0.09900
C 	C 	0.66609 0.18234 0.00759 0.06300
C 	C 	0.76767 0.27431 0.97896 0.00500
S 	S 	0.79888 0.19442 0.90227 -0.04100
H 	H 	0.72441 0.12044 0.91299 0.04300
S 	S 	0.62208 0.17473 0.05563 -0.04300
H 	H 	0.68260 0.25765 0.02920 0.05300
C 	C 	0.77837 0.30772 0.93983 -0.00600
C 	C 	0.82132 0.33707 0.94212 0.00500
C 	C 	0.85104 0.33635 0.98497 -0.10500
C 	C 	0.83465 0.31028 0.02736 0.06300
C 	C 	0.79424 0.27793 0.02367 -0.06300
S 	S 	0.73789 0.31385 0.88880 -0.03900
H 	H 	0.83183 0.35991 0.91056 0.04200
S 	S 	0.86278 0.31972 0.08557 -0.05300
H 	H 	0.78419 0.25471 0.05514 0.05200
H 	H 	0.64491 0.15456 0.09653 0.03700
H 	H 	0.70256 0.34903 0.89944 0.03600
H 	H 	0.84050 0.35914 0.10897 0.04300
H 	H 	0.78715 0.21090 0.85546 0.03800
C 	C 	0.28570 0.79262 0.04903 -0.07500
C 	C 	0.25345 0.78785 0.00834 0.02500
C 	C 	0.25640 0.82203 0.96855 -0.01400
C 	C 	0.29096 0.86075 0.97022 -0.01700
C 	C 	0.32162 0.86677 0.01186 -0.08300
C 	C 	0.31941 0.83216 0.05123 0.05900
C 	C 	0.21286 0.75101 0.01056 0.02300
S 	S 	0.21574 0.81784 0.91741 -0.04200
H 	H 	0.29294 0.88719 0.93974 0.04100
S 	S 	0.35789 0.83845 0.10378 -0.04400
H 	H 	0.28345 0.76642 0.07967 0.05400
C 	C 	0.21543 0.70636 0.98327 -0.01300
C 	C 	0.17388 0.67515 0.98095 -0.01900
C 	C 	0.12999 0.68760 0.00650 -0.06600
C 	C 	0.12902 0.73045 0.03695 0.05500
C 	C 	0.17017 0.76203 0.03828 -0.07200
S 	S 	0.27028 0.68929 0.95178 -0.04000
H 	H 	0.17527 0.64190 0.95820 0.04600
S 	S 	0.07744 0.74414 0.07494 -0.05800
H 	H 	0.16876 0.79569 0.06044 0.05300
H 	H 	0.33399 0.86699 0.13860 0.04100
H 	H 	0.30034 0.66301 0.98347 0.03400
H 	H 	0.08328 0.72191 0.12050 0.04600
H 	H 	0.23681 0.78857 0.88137 0.03900
C 	C 	0.33693 0.24398 0.96164 -0.09300
C 	C 	0.30475 0.25649 0.00087 0.04300
C 	C 	0.31099 0.23336 0.04764 -0.01000
C 	C 	0.34541 0.19464 0.05293 -0.00300
C 	C 	0.37141 0.17674 0.01146 -0.08500
C 	C 	0.37037 0.20427 0.96682 0.05600
C 	C 	0.25926 0.28566 0.99008 -0.01500
S 	S 	0.27313 0.24961 0.09864 -0.03400
H 	H 	0.34824 0.17517 0.08810 0.03600
S 	S 	0.40933 0.18809 0.91668 -0.04200
H 	H 	0.33375 0.26303 0.92619 0.05600
C 	C 	0.25408 0.33516 0.00662 0.00700
C 	C 	0.20771 0.35886 0.00356 0.00800
C 	C 	0.16683 0.33409 0.98272 -0.09900
C 	C 	0.17348 0.28643 0.96178 0.05600
C 	C 	0.21935 0.26228 0.96621 -0.06600
S 	S 	0.30523 0.36775 0.03094 -0.02900
H 	H 	0.20320 0.39609 0.01837 0.04300
S 	S 	0.12533 0.25742 0.92833 -0.07200
H 	H 	0.22378 0.22484 0.95188 0.04900
H 	H 	0.38791 0.15104 0.88918 0.04300
H 	H 	0.33008 0.39086 0.99286 0.02900
H 	H 	0.12693 0.27250 0.87959 0.04500
H 	H 	0.29567 0.28660 0.12534 0.03800
C 	C 	0.76158 0.02155 0.67590 -0.06400
C 	C 	0.75993 0.99434 0.72050 0.00600
C 	C 	0.80209 0.96710 0.73577 -0.00200
C 	C 	0.84610 0.96996 0.70822 -0.01100
C 	C 	0.84922 0.00084 0.66621 -0.08500
C 	C 	0.80615 0.02549 0.64900 0.05300
C 	C 	0.71605 0.99856 0.75363 0.01100
S 	S 	0.80109 0.93151 0.79091 -0.04400
H 	H 	0.87884 0.95022 0.72104 0.04100
S 	S 	0.80815 0.06347 0.59560 -0.03900
H 	H 	0.72892 0.04170 0.66352 0.05400
C 	C 	0.71174 0.03881 0.78703 -0.00300
C 	C 	0.67948 0.03533 0.82781 0.00400
C 	C 	0.65310 0.99133 0.83680 -0.10200
C 	C 	0.65310 0.95358 0.80046 0.06000
C 	C 	0.68375 0.95790 0.75846 -0.07300
S 	S 	0.74932 0.09198 0.78045 -0.03800
H 	H 	0.67799 0.06526 0.85474 0.04100
S 	S 	0.61769 0.89923 0.80900 -0.04700
H 	H 	0.68562 0.92770 0.73183 0.05500
H 	H 	0.82149 0.11074 0.60904 0.04000
H 	H 	0.79320 0.08455 0.80521 0.03500
H 	H 	0.64464 0.86563 0.83633 0.04200
H 	H 	0.81154 0.96163 0.83062 0.03200
C 	C 	0.27099 0.04593 0.81286 -0.08000
C 	C 	0.28527 0.01292 0.77523 0.02800
C 	C 	0.33238 0.99006 0.77733 -0.01300
C 	C 	0.36127 0.99459 0.82044 -0.00300
C 	C 	0.34352 0.02214 0.86114 -0.09400
C 	C 	0.29986 0.05086 0.85568 0.06200
C 	C 	0.24769 0.99680 0.73873 0.00100
S 	S 	0.35462 0.95440 0.72712 -0.03300
H 	H 	0.39586 0.97409 0.82353 0.04100
S 	S 	0.28031 0.09222 0.90253 -0.05900
H 	H 	0.23586 0.06556 0.81010 0.05400
C 	C 	0.21876 0.95403 0.74805 -0.00400
C 	C 	0.17536 0.94586 0.72079 -0.00000
C 	C 	0.15983 0.98037 0.68486 -0.10000
C 	C 	0.19000 0.02180 0.67373 0.06200
C 	C 	0.23413 0.02931 0.70019 -0.06500
S 	S 	0.23495 0.91202 0.79578 -0.04000
H 	H 	0.15274 0.91343 0.72867 0.04000
S 	S 	0.17118 0.06641 0.62947 -0.04600
H 	H 	0.25638 0.06211 0.69287 0.05300
H 	H 	0.29595 0.13944 0.89153 0.04100
H 	H 	0.21555 0.92829 0.84006 0.03600
H 	H 	0.14211 0.10163 0.65218 0.04200
H 	H 	0.33976 0.90601 0.73285 0.03900
C 	C 	0.30337 0.04521 0.24351 -0.06700
C 	C 	0.29977 0.99511 0.25763 0.00700
C 	C 	0.33059 0.95954 0.23442 -0.00300
C 	C 	0.35993 0.97336 0.19353 -0.01000
C 	C 	0.35897 0.02245 0.17586 -0.08700
C 	C 	0.33309 0.05910 0.20308 0.05700
C 	C 	0.25775 0.97937 0.28959 0.01700
S 	S 	0.33224 0.89769 0.25587 -0.04100
H 	H 	0.38148 0.94542 0.17396 0.03900
S 	S 	0.33722 0.12233 0.18664 -0.04500
H 	H 	0.28102 0.07300 0.26239 0.05200
C 	C 	0.25572 0.99291 0.34025 -0.01100
C 	C 	0.21098 0.98825 0.36669 -0.00500
C 	C 	0.16839 0.96965 0.34311 -0.09000
C 	C 	0.17194 0.95160 0.29395 0.05800
C 	C 	0.21634 0.95696 0.26741 -0.07400
S 	S 	0.30875 0.01587 0.37078 -0.02900
H 	H 	0.20884 0.00085 0.40496 0.04600
S 	S 	0.12121 0.92191 0.26534 -0.07000
H 	H 	0.21818 0.94531 0.22882 0.05400
H 	H 	0.29819 0.13430 0.15616 0.04000
H 	H 	0.31068 0.06650 0.36527 0.03600
H 	H 	0.12393 0.87174 0.27393 0.04300
H 	H 	0.36759 0.89334 0.29227 0.03900
C 	C 	0.80501 0.03936 0.28746 -0.06800
C 	C 	0.77529 0.99676 0.28378 0.01000
C 	C 	0.78199 0.95748 0.31796 -0.00700
C 	C 	0.82168 0.95896 0.35165 0.00100
C 	C 	0.85480 0.99919 0.35125 -0.09500
C 	C 	0.84395 0.04116 0.32177 0.05400
C 	C 	0.74142 0.99150 0.24077 0.01200
S 	S 	0.74113 0.90644 0.31884 -0.03900
H 	H 	0.82781 0.92810 0.37686 0.03900
S 	S 	0.87805 0.09645 0.32832 -0.04800
H 	H 	0.79866 0.07056 0.26263 0.05200
C 	C 	0.69891 0.02181 0.23634 -0.00600
C 	C 	0.67337 0.02413 0.19105 0.00400
C 	C 	0.68901 0.99531 0.15027 -0.09900
C 	C 	0.72871 0.96138 0.15640 0.06000
C 	C 	0.75520 0.96042 0.20118 -0.07300
S 	S 	0.67724 0.05687 0.28727 -0.03400
H 	H 	0.64208 0.04929 0.18719 0.04400
S 	S 	0.74430 0.91850 0.10937 -0.05400
H 	H 	0.78718 0.93611 0.20496 0.05500
H 	H 	0.85542 0.12562 0.36345 0.03700
H 	H 	0.69985 0.10250 0.28709 0.03500
H 	H 	0.71623 0.87637 0.11491 0.04700
H 	H 	0.70184 0.91690 0.34962 0.03800
C 	C 	0.97206 0.32036 0.76444 -0.07200
C 	C 	0.01705 0.30017 0.74723 0.01400
C 	C 	0.06217 0.32051 0.76417 -0.00500
C 	C 	0.06187 0.35399 0.80403 0.00100
C 	C 	0.01707 0.36581 0.82809 -0.09700
C 	C 	0.97188 0.35284 0.80520 0.05700
C 	C 	0.01663 0.25095 0.72263 0.01300
S 	S 	0.11932 0.30052 0.73925 -0.03900
H 	H 	0.09680 0.36625 0.81987 0.03800
S 	S 	0.91490 0.37350 0.82987 -0.04100
H 	H 	0.93717 0.30697 0.74948 0.05300
C 	C 	0.01211 0.20714 0.75119 -0.00600
C 	C 	0.01153 0.16083 0.72767 -0.00200
C 	C 	0.01697 0.15729 0.67584 -0.09200
C 	C 	0.02387 0.20106 0.64739 0.05700
C 	C 	0.02247 0.24765 0.67085 -0.07200
S 	S 	0.00806 0.20977 0.81662 -0.04400
H 	H 	0.00657 0.12741 0.74976 0.03200
S 	S 	0.03813 0.19801 0.58347 -0.04100
H 	H 	0.02720 0.28123 0.64898 0.05500
H 	H 	0.90212 0.41783 0.80814 0.04100
H 	H 	0.95940 0.21603 0.83038 0.03600
H 	H 	0.08852 0.19339 0.57761 0.03700
H 	H 	0.13497 0.25907 0.76453 0.03600
C 	C 	0.97081 0.75841 0.68890 -0.07300
C 	C 	0.99253 0.75759 0.73636 0.01400
C 	C 	0.01915 0.79941 0.75326 -0.00700
C 	C 	0.02195 0.84201 0.72363 -0.00600
C 	C 	0.99669 0.84449 0.67811 -0.09500
C 	C 	0.97147 0.80205 0.66026 0.06000
C 	C 	0.98301 0.71512 0.77016 0.01400
S 	S 	0.04666 0.80000 0.81275 -0.04100
H 	H 	0.04190 0.87430 0.73713 0.03500
S 	S 	0.93774 0.80392 0.60416 -0.03300
H 	H 	0.95091 0.72605 0.67556 0.05500
C 	C 	0.93768 0.71173 0.79636 -0.00700
C 	C 	0.93395 0.68034 0.83773 -0.00100
C 	C 	0.97572 0.65406 0.85486 -0.09100
C 	C 	0.01983 0.65434 0.82618 0.05600
C 	C 	0.02240 0.68336 0.78292 -0.07200
S 	S 	0.88646 0.74912 0.77987 -0.03800
H 	H 	0.89932 0.67861 0.85837 0.04400
S 	S 	0.07350 0.62264 0.84641 -0.05200
H 	H 	0.05677 0.68480 0.76185 0.05600
H 	H 	0.89037 0.82016 0.61362 0.04100
H 	H 	0.89040 0.79433 0.80300 0.03500
H 	H 	0.10018 0.65289 0.87745 0.03900
H 	H 	0.01193 0.81433 0.84723 0.03300
C 	C 	0.95767 0.73613 0.21856 -0.07400
C 	C 	0.97736 0.71243 0.26063 0.01400
C 	C 	0.98877 0.66127 0.25867 -0.00600
C 	C 	0.98546 0.63580 0.21328 -0.00000
C 	C 	0.96946 0.66070 0.17017 -0.09200
C 	C 	0.95292 0.71043 0.17366 0.05800
C 	C 	0.99006 0.74279 0.30468 0.01400
S 	S 	0.00716 0.62888 0.31258 -0.03300
H 	H 	0.99671 0.59712 0.21123 0.04400
S 	S 	0.92483 0.74047 0.12260 -0.06500
H 	H 	0.94717 0.77504 0.22049 0.05300
C 	C 	0.03853 0.76191 0.31022 -0.00600
C 	C 	0.04668 0.80271 0.34136 0.00000
C 	C 	0.00655 0.82662 0.36466 -0.09500
C 	C 	0.95930 0.80406 0.36378 0.05700
C 	C 	0.95155 0.76169 0.33447 -0.07300
S 	S 	0.08830 0.73826 0.27472 -0.04000
H 	H 	0.08360 0.81860 0.34394 0.04000
S 	S 	0.90862 0.83098 0.39525 -0.03900
H 	H 	0.91455 0.74605 0.33154 0.05400
H 	H 	0.96035 0.76470 0.09525 0.02900
H 	H 	0.08946 0.76184 0.22948 0.03500
H 	H 	0.88404 0.86130 0.36255 0.04200
H 	H 	0.05788 0.63018 0.31673 0.03800
C 	C 	0.05369 0.29121 0.21362 -0.07300
C 	C 	0.02293 0.25087 0.22556 0.01500
C 	C 	0.98269 0.23880 0.19435 -0.00600
C 	C 	0.97392 0.26671 0.15145 -0.00100
C 	C 	0.00443 0.30723 0.13942 -0.09100
C 	C 	0.04505 0.31911 0.17040 0.05900
C 	C 	0.03426 0.21976 0.26934 0.01300
S 	S 	0.94347 0.18818 0.20828 -0.03400
H 	H 	0.94351 0.25662 0.12713 0.04500
S 	S 	0.08722 0.36635 0.15374 -0.04500
H 	H 	0.08505 0.30007 0.23728 0.05400
C 	C 	0.06333 0.17653 0.26393 -0.00500
C 	C 	0.05834 0.13766 0.29816 -0.00300
C 	C 	0.02433 0.14150 0.33761 -0.09300
C 	C 	0.00124 0.18784 0.34720 0.05900
C 	C 	0.00688 0.22688 0.31316 -0.07100
S 	S 	0.10342 0.16936 0.21258 -0.03900
H 	H 	0.07840 0.10315 0.29225 0.04000
S 	S 	0.96441 0.19733 0.40061 -0.03500
H 	H 	0.98652 0.26128 0.31863 0.05400
H 	H 	0.12318 0.34696 0.12319 0.04400
H 	H 	0.14915 0.18843 0.22411 0.03600
H 	H 	0.91528 0.19158 0.38883 0.03700
H 	H 	0.96384 0.14543 0.18942 0.03800
