data_crystal

_cell_length_a 40.19245
_cell_length_b 45.96963
_cell_length_c 22.58583
_cell_angle_alpha 89.94847
_cell_angle_beta  89.95574
_cell_angle_gamma 89.84212

_symmetry_space_group_name_	'P 1'
_symmetry_space_group_name_H-M	'P 1'

loop_
_symmetry_equiv_pos_as_xyz
  x,y,z

loop_
_atom_site_label
_atom_site_type_symbol
_atom_site_fract_x
_atom_site_fract_y
_atom_site_fract_z
_atom_site_charge
C 	C 	0.51777 0.52624 0.92572 0.01500
C 	C 	0.53329 0.49839 0.92424 0.01500
C 	C 	0.48305 0.52861 0.91989 -0.05200
C 	C 	0.46347 0.50345 0.91522 0.01500
C 	C 	0.51378 0.47327 0.91781 -0.05200
C 	C 	0.47893 0.47557 0.91459 0.01700
H 	H 	0.52566 0.45219 0.91357 0.05600
H 	H 	0.47149 0.54988 0.91724 0.05600
C 	C 	0.45877 0.45061 0.90908 -0.01500
C 	C 	0.42386 0.45265 0.90923 0.01500
C 	C 	0.40797 0.42667 0.92849 -0.05700
C 	C 	0.43059 0.40504 0.94503 0.02300
S 	S 	0.46901 0.41760 0.93404 0.01200
H 	H 	0.38128 0.42368 0.92951 0.05500
C 	C 	0.42851 0.50520 0.90934 -0.01200
C 	C 	0.40868 0.48011 0.90898 0.01200
C 	C 	0.37516 0.48544 0.92619 -0.04900
C 	C 	0.36942 0.51447 0.94164 0.00900
S 	S 	0.40486 0.53291 0.93260 0.00800
H 	H 	0.35588 0.46905 0.92600 0.05400
C 	C 	0.57241 0.54897 0.93973 0.01200
C 	C 	0.53793 0.55120 0.93103 -0.01400
S 	S 	0.52548 0.58282 0.95979 0.01700
C 	C 	0.56241 0.59471 0.98296 -0.00300
C 	C 	0.58632 0.57378 0.96796 -0.04600
C 	C 	0.56838 0.49674 0.92735 -0.01300
C 	C 	0.58773 0.52159 0.93769 0.01200
C 	C 	0.61944 0.51522 0.96247 -0.04500
C 	C 	0.62418 0.48551 0.97298 0.00100
S 	S 	0.59012 0.46785 0.95053 0.01300
H 	H 	0.63838 0.53141 0.97063 0.05600
H 	H 	0.61268 0.57671 0.97549 0.05400
C 	C 	0.41140 0.31457 0.96953 0.10400
C 	C 	0.39469 0.33521 0.00431 -0.14600
C 	C 	0.40005 0.36489 0.99479 0.08600
C 	C 	0.42220 0.37406 0.95055 -0.02800
C 	C 	0.43754 0.35339 0.91378 0.00600
C 	C 	0.43216 0.32376 0.92329 -0.06600
H 	H 	0.37845 0.32826 0.03987 0.07700
H 	H 	0.38781 0.38071 0.02296 -0.00400
H 	H 	0.45399 0.36025 0.87844 0.04100
H 	H 	0.44490 0.30791 0.89589 0.06700
C 	C 	0.27209 0.55209 0.95665 0.02900
C 	C 	0.27963 0.52592 0.98564 -0.00300
C 	C 	0.31148 0.51386 0.98115 -0.00200
C 	C 	0.33608 0.52779 0.94733 0.01000
C 	C 	0.32852 0.55409 0.91845 -0.02700
C 	C 	0.29672 0.56627 0.92347 -0.02400
H 	H 	0.26080 0.51493 0.01165 0.02300
H 	H 	0.31708 0.49373 0.00411 0.01300
H 	H 	0.34706 0.56490 0.89154 0.05200
H 	H 	0.29113 0.58659 0.90120 0.06400
C 	C 	0.72152 0.44895 0.99519 0.13200
C 	C 	0.71086 0.47193 0.03133 -0.09300
C 	C 	0.67878 0.48330 0.02502 -0.05100
C 	C 	0.65709 0.47190 0.98226 0.04100
C 	C 	0.66759 0.44847 0.94684 -0.01900
C 	C 	0.69960 0.43692 0.95361 -0.05800
H 	H 	0.72756 0.48118 0.06385 0.06300
H 	H 	0.67086 0.50116 0.05300 0.04000
H 	H 	0.65131 0.43962 0.91323 0.05000
H 	H 	0.70759 0.41902 0.92581 0.07300
C 	C 	0.57763 0.68619 0.99858 0.06600
C 	C 	0.55804 0.67146 0.04025 -0.06000
C 	C 	0.55412 0.64134 0.03638 -0.06500
C 	C 	0.56982 0.62573 0.99093 0.05200
C 	C 	0.59040 0.64036 0.95045 -0.03700
C 	C 	0.59428 0.67050 0.95431 -0.03300
H 	H 	0.54509 0.68346 0.07454 0.05700
H 	H 	0.53827 0.63022 0.06790 0.04700
H 	H 	0.60248 0.62855 0.91491 0.05200
H 	H 	0.60940 0.68176 0.92189 0.06100
Zn	Zn	0.39756 0.13244 0.00454 1.21400
C 	C 	0.42013 0.19164 0.00063 0.32400
O 	O 	0.41287 0.13567 0.92247 -0.42000
O 	O 	0.44805 0.18160 0.97820 -0.40300
O 	O 	0.46523 0.12001 0.94297 -0.48400
C 	C 	0.43436 0.12854 0.11420 0.33900
O 	O 	0.41282 0.11573 0.07926 -0.47700
O 	O 	0.45454 0.14824 0.09266 -0.48700
C 	C 	0.44058 0.12313 0.90543 0.34500
O 	O 	0.37641 0.08573 0.98299 -0.30600
Zn	Zn	0.47061 0.14500 0.01195 1.16600
O 	O 	0.39877 0.17386 0.02570 -0.42400
C 	C 	0.34750 0.09834 0.98393 0.29600
O 	O 	0.34771 0.12586 0.99606 -0.33000
C 	C 	0.49872 0.98543 0.55853 0.01400
C 	C 	0.48812 0.01504 0.55998 0.01400
C 	C 	0.50373 0.97146 0.50399 -0.05200
C 	C 	0.49930 0.98689 0.45090 0.01300
C 	C 	0.48361 0.03046 0.50687 -0.05300
C 	C 	0.48885 0.01653 0.45232 0.01500
H 	H 	0.47732 0.05338 0.50803 0.05500
H 	H 	0.50996 0.94852 0.50286 0.05400
C 	C 	0.48598 0.03185 0.39829 -0.01600
C 	C 	0.49059 0.01790 0.34381 0.01300
C 	C 	0.47461 0.03222 0.29607 -0.05800
C 	C 	0.45680 0.05693 0.31369 0.01500
S 	S 	0.46195 0.06100 0.38662 0.00900
H 	H 	0.47555 0.02465 0.25071 0.04700
C 	C 	0.50321 0.97317 0.39540 -0.01200
C 	C 	0.49994 0.98870 0.34244 0.00900
C 	C 	0.51670 0.97560 0.29409 -0.05400
C 	C 	0.53370 0.95015 0.30979 0.02000
S 	S 	0.52701 0.94410 0.38183 -0.00100
H 	H 	0.51648 0.98434 0.24954 0.05200
C 	C 	0.49811 0.98430 0.66703 0.01300
C 	C 	0.50217 0.97024 0.61257 -0.01200
S 	S 	0.52646 0.94122 0.62374 0.00200
C 	C 	0.53250 0.94549 0.69642 0.02100
C 	C 	0.51481 0.97023 0.71431 -0.05600
C 	C 	0.48445 0.02881 0.61549 -0.01300
C 	C 	0.48839 0.01339 0.66847 0.01200
C 	C 	0.47167 0.02628 0.71710 -0.05300
C 	C 	0.45403 0.05141 0.70165 0.01900
S 	S 	0.46013 0.05752 0.62944 0.00100
H 	H 	0.47225 0.01754 0.76163 0.05400
H 	H 	0.51411 0.97782 0.75968 0.05300
Zn	Zn	0.59271 0.86973 0.00862 1.21500
C 	C 	0.56856 0.81055 0.00783 0.32800
O 	O 	0.57839 0.88739 0.93340 -0.44100
O 	O 	0.54073 0.82077 0.03020 -0.43400
O 	O 	0.53693 0.85481 0.91853 -0.44200
C 	C 	0.54841 0.87908 0.10544 0.35100
O 	O 	0.57610 0.86614 0.08931 -0.45500
O 	O 	0.52455 0.88313 0.06669 -0.50900
C 	C 	0.55665 0.87511 0.89805 0.32900
O 	O 	0.61494 0.91528 0.03693 -0.31400
Zn	Zn	0.51915 0.85815 0.99802 1.19300
O 	O 	0.59118 0.82836 0.98667 -0.38900
C 	C 	0.64369 0.90313 0.02789 0.31500
O 	O 	0.64272 0.87642 0.00980 -0.39200
Zn	Zn	0.08479 0.62527 0.00972 1.21500
C 	C 	0.05041 0.68040 0.01661 0.35600
O 	O 	0.07888 0.60464 0.08549 -0.46000
O 	O 	0.02249 0.66703 0.00365 -0.45600
O 	O 	0.03325 0.63066 0.11232 -0.48200
C 	C 	0.03673 0.61139 0.92134 0.34100
O 	O 	0.06308 0.62722 0.93259 -0.41900
O 	O 	0.01696 0.60327 0.96450 -0.48800
C 	C 	0.05790 0.61330 0.12646 0.33700
O 	O 	0.11416 0.58437 0.97315 -0.30400
Zn	Zn	0.01155 0.62622 0.03624 1.16900
O 	O 	0.07632 0.66549 0.03529 -0.42600
C 	C 	0.14041 0.60038 0.98001 0.29900
O 	O 	0.13508 0.62636 0.99994 -0.32300
C 	C 	0.99162 0.52016 0.56054 0.01000
C 	C 	0.97658 0.49220 0.55840 0.01700
C 	C 	0.01432 0.52849 0.51633 -0.05100
C 	C 	0.02219 0.50928 0.46996 0.01200
C 	C 	0.98455 0.47293 0.51215 -0.05600
C 	C 	0.00728 0.48126 0.46796 0.01600
H 	H 	0.97313 0.45164 0.51054 0.05600
H 	H 	0.02576 0.54978 0.51795 0.05400
C 	C 	0.01657 0.46196 0.42215 -0.01400
C 	C 	0.03786 0.47065 0.37623 0.01200
C 	C 	0.03453 0.45340 0.32420 -0.05900
C 	C 	0.01068 0.43143 0.33000 0.01800
S 	S 	0.99334 0.43460 0.39685 0.00900
H 	H 	0.04631 0.45851 0.28242 0.04500
C 	C 	0.04552 0.51692 0.42576 -0.01300
C 	C 	0.05227 0.49843 0.37781 0.01000
C 	C 	0.06474 0.51341 0.32720 -0.05700
C 	C 	0.06757 0.54348 0.33586 0.01700
S 	S 	0.05356 0.55084 0.40382 0.00700
H 	H 	0.06736 0.50352 0.28403 0.04500
C 	C 	0.96086 0.53091 0.65200 0.01100
C 	C 	0.98248 0.53945 0.60643 -0.01300
S 	S 	0.00640 0.56613 0.63268 0.00500
C 	C 	0.98921 0.56915 0.69965 0.01300
C 	C 	0.96450 0.54784 0.70441 -0.04800
C 	C 	0.95308 0.48464 0.60235 -0.01700
C 	C 	0.94622 0.50321 0.65020 0.01400
C 	C 	0.93367 0.48828 0.70083 -0.05400
C 	C 	0.93131 0.45818 0.69257 0.01300
S 	S 	0.94508 0.45071 0.62444 0.02000
H 	H 	0.93075 0.49827 0.74385 0.05300
H 	H 	0.95243 0.54275 0.74594 0.05400
Zn	Zn	0.91168 0.37722 0.01589 1.21400
C 	C 	0.94273 0.32063 0.00526 0.32000
O 	O 	0.93061 0.39558 0.08707 -0.45300
O 	O 	0.96682 0.33351 0.97594 -0.39000
O 	O 	0.97789 0.36841 0.08597 -0.48200
C 	C 	0.94328 0.39178 0.90652 0.34300
O 	O 	0.91997 0.37578 0.93081 -0.43800
O 	O 	0.97059 0.39747 0.93605 -0.48900
C 	C 	0.95723 0.38565 0.11415 0.33200
O 	O 	0.88125 0.42046 0.99795 -0.27800
Zn	Zn	0.98551 0.37328 0.00172 1.16600
O 	O 	0.92058 0.33612 0.03436 -0.42800
C 	C 	0.85573 0.40570 0.01619 0.27200
O 	O 	0.86172 0.37891 0.03038 -0.35800
C 	C 	0.01316 0.97354 0.04237 0.01400
C 	C 	0.03197 0.99968 0.03987 0.01000
C 	C 	0.97832 0.97486 0.04689 -0.05500
C 	C 	0.96198 0.00194 0.04719 0.01500
C 	C 	0.01567 0.02677 0.04136 -0.05000
C 	C 	0.98077 0.02807 0.04413 0.00900
H 	H 	0.03006 0.04665 0.04251 0.05300
H 	H 	0.96415 0.95502 0.05229 0.05500
C 	C 	0.96378 0.05501 0.04665 -0.00900
C 	C 	0.92889 0.05647 0.04684 0.00900
C 	C 	0.91625 0.08357 0.02596 -0.05600
C 	C 	0.94144 0.10266 0.00780 0.00800
S 	S 	0.97801 0.08631 0.01924 -0.01000
H 	H 	0.89009 0.08918 0.02516 0.04700
C 	C 	0.92708 0.00389 0.05307 -0.01400
C 	C 	0.91042 0.03070 0.05022 0.01200
C 	C 	0.87627 0.02809 0.03439 -0.05800
C 	C 	0.86690 0.99927 0.02325 0.00800
S 	S 	0.90017 0.97802 0.03409 -0.00000
H 	H 	0.85895 0.04616 0.03363 0.04500
C 	C 	0.06490 0.94512 0.03583 0.00600
C 	C 	0.03025 0.94662 0.04297 -0.01100
S 	S 	0.01438 0.91495 0.02084 0.00000
C 	C 	0.04997 0.89838 0.00279 0.00600
C 	C 	0.07614 0.91771 0.01418 -0.05300
C 	C 	0.06703 0.99774 0.03854 -0.00900
C 	C 	0.08341 0.97090 0.03370 0.02100
C 	C 	0.11629 0.97325 0.01074 -0.09700
C 	C 	0.12491 0.00191 0.99619 0.06300
S 	S 	0.09252 0.02330 0.01278 -0.03700
H 	H 	0.13356 0.95519 0.00791 0.05500
H 	H 	0.10208 0.91207 0.00815 0.04500
C 	C 	0.93578 0.19558 0.00352 0.01800
C 	C 	0.95205 0.18042 0.95805 -0.01000
C 	C 	0.95298 0.15001 0.95861 0.00600
C 	C 	0.93761 0.13451 0.00461 -0.02100
C 	C 	0.92078 0.14971 0.04958 -0.02400
C 	C 	0.91990 0.18013 0.04902 -0.03700
H 	H 	0.96436 0.19220 0.92276 0.05900
H 	H 	0.96604 0.13851 0.92374 0.05000
H 	H 	0.90914 0.13801 0.08570 0.04400
H 	H 	0.90737 0.19170 0.08439 0.05700
C 	C 	0.76817 0.96490 0.02760 0.01800
C 	C 	0.77621 0.98730 0.98788 -0.00600
C 	C 	0.80824 0.99914 0.98765 0.00500
C 	C 	0.83235 0.98878 0.02737 -0.01900
C 	C 	0.82373 0.96735 0.06903 -0.02300
C 	C 	0.79184 0.95538 0.06889 -0.04000
H 	H 	0.75790 0.99504 0.95637 0.06200
H 	H 	0.81452 0.01586 0.95574 0.05100
H 	H 	0.84179 0.95981 0.10116 0.04600
H 	H 	0.78565 0.93839 0.10028 0.05500
C 	C 	0.22342 0.03647 0.98947 0.07800
C 	C 	0.21188 0.01854 0.94369 -0.04200
C 	C 	0.18001 0.00646 0.94682 -0.02300
C 	C 	0.15944 0.01241 0.99553 0.03300
C 	C 	0.17142 0.02963 0.04216 -0.05000
C 	C 	0.20319 0.04175 0.03894 -0.06600
H 	H 	0.22742 0.01427 0.90544 0.06100
H 	H 	0.17106 0.99303 0.91084 0.05100
H 	H 	0.15597 0.03388 0.08053 0.05000
H 	H 	0.21199 0.05548 0.07458 0.06200
C 	C 	0.05536 0.80542 0.00415 0.01800
C 	C 	0.03595 0.81986 0.96171 -0.00700
C 	C 	0.03500 0.85026 0.96026 0.00600
C 	C 	0.05360 0.86648 0.00105 -0.01800
C 	C 	0.07367 0.85199 0.04268 -0.02400
C 	C 	0.07458 0.82157 0.04411 -0.03600
H 	H 	0.02112 0.80753 0.93058 0.06100
H 	H 	0.01946 0.86121 0.92796 0.05200
H 	H 	0.08786 0.86425 0.07484 0.04500
H 	H 	0.08966 0.81056 0.07700 0.05600
C 	C 	0.94076 0.28869 0.00610 -0.14100
C 	C 	0.96700 0.27188 0.02953 0.20400
C 	C 	0.96505 0.24149 0.02876 -0.09900
C 	C 	0.93699 0.22764 0.00521 -0.03400
C 	C 	0.91053 0.24443 0.98262 0.16200
C 	C 	0.91247 0.27484 0.98336 0.01100
H 	H 	0.98533 0.22862 0.04664 0.08000
H 	H 	0.89214 0.28769 0.96561 0.07400
Cl	Cl	0.00189 0.28860 0.06204 -0.35600
Cl	Cl	0.87501 0.22763 0.95263 -0.29700
C 	C 	0.93348 0.43744 0.74229 0.00300
C 	C 	0.96422 0.42484 0.75842 0.09400
C 	C 	0.96632 0.40747 0.80936 -0.01900
C 	C 	0.93862 0.40408 0.84657 -0.12300
C 	C 	0.90751 0.41548 0.82889 0.17100
C 	C 	0.90535 0.43268 0.77767 -0.10400
H 	H 	0.98992 0.39761 0.82118 0.05100
H 	H 	0.88182 0.44274 0.76604 0.07600
O 	O 	0.99178 0.42789 0.72230 -0.18500
O 	O 	0.87997 0.41254 0.86501 -0.18900
C 	C 	0.01138 0.45097 0.74385 -0.02800
H 	H 	0.99734 0.47186 0.74515 0.05000
H 	H 	0.03266 0.45408 0.71322 0.05000
H 	H 	0.02181 0.44584 0.78831 0.04500
C 	C 	0.86059 0.38922 0.84385 -0.03100
H 	H 	0.84957 0.39442 0.79988 0.05200
H 	H 	0.83971 0.38564 0.87515 0.06500
H 	H 	0.87508 0.36855 0.84163 0.06200
C 	C 	0.99332 0.41864 0.27901 -0.00300
C 	C 	0.99895 0.38942 0.26348 0.09400
C 	C 	0.98440 0.37802 0.21209 -0.02500
C 	C 	0.96567 0.39599 0.17434 -0.12300
C 	C 	0.95829 0.42480 0.19199 0.16300
C 	C 	0.97286 0.43614 0.24343 -0.10500
H 	H 	0.98877 0.35546 0.20046 0.06800
H 	H 	0.96857 0.45870 0.25522 0.06700
O 	O 	0.01712 0.37142 0.30045 -0.18000
O 	O 	0.93955 0.44282 0.15600 -0.20200
C 	C 	0.05040 0.37090 0.28061 -0.02900
H 	H 	0.05243 0.36114 0.23564 0.04400
H 	H 	0.06510 0.35702 0.31118 0.05300
H 	H 	0.06177 0.39296 0.28124 0.04200
C 	C 	0.90641 0.44272 0.17668 -0.02500
H 	H 	0.89576 0.42037 0.17774 0.06700
H 	H 	0.89098 0.45576 0.14571 0.05700
H 	H 	0.90448 0.45306 0.22111 0.04600
C 	C 	0.05444 0.77341 0.00837 -0.03300
C 	C 	0.02999 0.75949 0.04284 0.13500
C 	C 	0.02883 0.72909 0.04514 -0.01700
C 	C 	0.05202 0.71234 0.01351 -0.15000
C 	C 	0.07641 0.72628 0.97881 0.23300
C 	C 	0.07758 0.75671 0.97661 -0.06900
H 	H 	0.01001 0.71847 0.07184 0.06000
H 	H 	0.09626 0.76736 0.94966 0.08800
Cl	Cl	0.00066 0.77991 0.08337 -0.32500
Cl	Cl	0.10468 0.70593 0.93576 -0.30100
C 	C 	0.03006 0.60148 0.86079 -0.11700
C 	C 	0.01763 0.62101 0.81805 0.16800
C 	C 	0.00689 0.61047 0.76297 -0.09800
C 	C 	0.00736 0.58054 0.75126 -0.00000
C 	C 	0.02241 0.56138 0.79207 0.09600
C 	C 	0.03269 0.57181 0.84736 -0.02100
H 	H 	0.99683 0.62546 0.73048 0.07200
H 	H 	0.04239 0.55674 0.88005 0.05600
O 	O 	0.01785 0.65062 0.82871 -0.18200
O 	O 	0.02457 0.53198 0.77987 -0.19100
C 	C 	0.98638 0.65895 0.85068 -0.02500
H 	H 	0.96654 0.65552 0.81705 0.04500
H 	H 	0.98700 0.68254 0.86087 0.06400
H 	H 	0.98012 0.64739 0.89258 0.03800
C 	C 	0.05610 0.52633 0.75489 -0.02800
H 	H 	0.05987 0.53860 0.71291 0.04800
H 	H 	0.05769 0.50286 0.74399 0.04600
H 	H 	0.07645 0.53112 0.78683 0.05100
C 	C 	0.06471 0.56435 0.28672 -0.00000
C 	C 	0.09340 0.57690 0.26187 0.09500
C 	C 	0.09053 0.59535 0.21261 -0.01800
C 	C 	0.05944 0.60015 0.18605 -0.12700
C 	C 	0.03051 0.58879 0.21289 0.17100
C 	C 	0.03342 0.57037 0.26216 -0.10700
H 	H 	0.11271 0.60494 0.19358 0.07200
H 	H 	0.01132 0.56043 0.28076 0.06800
O 	O 	0.12410 0.57269 0.28813 -0.17700
O 	O 	0.99969 0.59310 0.18724 -0.23300
C 	C 	0.14071 0.54993 0.25834 -0.03300
H 	H 	0.12640 0.52924 0.26012 0.04300
H 	H 	0.16484 0.54594 0.28076 0.05700
H 	H 	0.14629 0.55592 0.21160 0.05800
C 	C 	0.98361 0.61616 0.21702 -0.01800
H 	H 	0.97764 0.61012 0.26357 0.04100
H 	H 	0.95972 0.62077 0.19425 0.02800
H 	H 	0.99854 0.63654 0.21583 0.04700
C 	C 	0.67480 0.92013 0.02670 -0.13400
C 	C 	0.68188 0.94081 0.07111 0.20000
C 	C 	0.71190 0.95614 0.06962 -0.09700
C 	C 	0.73532 0.95074 0.02491 -0.03500
C 	C 	0.72824 0.93022 0.98046 0.16300
C 	C 	0.69803 0.91520 0.98132 0.00600
H 	H 	0.71741 0.97175 0.10417 0.08100
H 	H 	0.69271 0.89951 0.94683 0.08000
Cl	Cl	0.65446 0.94654 0.13086 -0.33000
Cl	Cl	0.75746 0.92244 0.92445 -0.30100
C 	C 	0.55085 0.88751 0.83865 -0.11400
C 	C 	0.51816 0.89119 0.81685 0.16900
C 	C 	0.51285 0.90694 0.76456 -0.10000
C 	C 	0.53939 0.92115 0.73673 -0.00200
C 	C 	0.57214 0.91570 0.75557 0.09800
C 	C 	0.57774 0.89911 0.80673 -0.02000
H 	H 	0.48770 0.91003 0.74837 0.07200
H 	H 	0.60293 0.89617 0.82278 0.06600
O 	O 	0.49141 0.87870 0.84572 -0.20000
O 	O 	0.59853 0.92939 0.72808 -0.18000
C 	C 	0.47713 0.89960 0.88386 -0.02500
H 	H 	0.49532 0.90760 0.91725 0.00800
H 	H 	0.45647 0.88919 0.90853 0.03000
H 	H 	0.46638 0.91816 0.85851 0.04500
C 	C 	0.61144 0.91053 0.68451 -0.03100
H 	H 	0.62175 0.89030 0.70463 0.05200
H 	H 	0.63221 0.92171 0.66158 0.05600
H 	H 	0.59245 0.90515 0.65035 0.04800
C 	C 	0.54035 0.92684 0.26705 -0.00300
C 	C 	0.57055 0.92647 0.23563 0.09900
C 	C 	0.57345 0.90968 0.18417 -0.02100
C 	C 	0.54639 0.89333 0.16370 -0.12300
C 	C 	0.51682 0.89230 0.19732 0.17100
C 	C 	0.51457 0.90812 0.25029 -0.10300
H 	H 	0.59636 0.91022 0.15901 0.08200
H 	H 	0.49188 0.90731 0.27621 0.06900
O 	O 	0.59604 0.94500 0.25147 -0.16800
O 	O 	0.49119 0.87399 0.18090 -0.20500
C 	C 	0.61763 0.92995 0.29003 -0.03200
H 	H 	0.60465 0.92312 0.33135 0.04800
H 	H 	0.63800 0.94485 0.30308 0.06200
H 	H 	0.62930 0.91085 0.26780 0.06000
C 	C 	0.46523 0.89077 0.15608 -0.02000
H 	H 	0.45165 0.90297 0.19111 0.03900
H 	H 	0.44720 0.87582 0.13488 0.03400
H 	H 	0.47410 0.90605 0.12120 0.03600
C 	C 	0.25608 0.05080 0.98450 0.01100
C 	C 	0.28335 0.04100 0.01820 0.12000
C 	C 	0.31332 0.05639 0.01691 -0.07000
C 	C 	0.31641 0.08153 0.98206 -0.05700
C 	C 	0.28955 0.09063 0.94647 0.18900
C 	C 	0.25950 0.07534 0.94810 -0.09000
H 	H 	0.33405 0.04906 0.04380 0.07500
H 	H 	0.23870 0.08269 0.92143 0.08800
Cl	Cl	0.28030 0.00943 0.06210 -0.33400
Cl	Cl	0.29358 0.12045 0.89792 -0.29200
C 	C 	0.44689 0.07455 0.74455 -0.00200
C 	C 	0.41811 0.07296 0.77982 0.09800
C 	C 	0.41579 0.08967 0.83146 -0.01900
C 	C 	0.44187 0.10820 0.84789 -0.11600
C 	C 	0.46980 0.11113 0.81055 0.17100
C 	C 	0.47146 0.09513 0.75774 -0.10100
H 	H 	0.39418 0.08743 0.85981 0.07000
H 	H 	0.49294 0.09734 0.72908 0.07100
O 	O 	0.39376 0.05273 0.76728 -0.18000
O 	O 	0.49414 0.13140 0.82327 -0.19800
C 	C 	0.36955 0.06614 0.73121 -0.03400
H 	H 	0.35714 0.08456 0.75454 0.06200
H 	H 	0.35006 0.04989 0.72081 0.05900
H 	H 	0.38033 0.07355 0.68834 0.05200
C 	C 	0.52238 0.11679 0.84575 -0.02500
H 	H 	0.51620 0.10164 0.88266 0.04500
H 	H 	0.53984 0.13323 0.86360 0.04400
H 	H 	0.53559 0.10485 0.80990 0.04500
C 	C 	0.44986 0.08122 0.27332 0.00100
C 	C 	0.41733 0.08586 0.25235 0.09200
C 	C 	0.41189 0.10492 0.20481 -0.01700
C 	C 	0.43894 0.11762 0.17524 -0.13200
C 	C 	0.47106 0.11538 0.20026 0.17000
C 	C 	0.47639 0.09679 0.24856 -0.10800
H 	H 	0.38682 0.10822 0.18843 0.05700
H 	H 	0.50143 0.09351 0.26507 0.07000
O 	O 	0.39059 0.07284 0.28021 -0.18100
O 	O 	0.49792 0.12879 0.17365 -0.22500
C 	C 	0.38215 0.04735 0.24890 -0.03000
H 	H 	0.37324 0.05252 0.20341 0.04800
H 	H 	0.36142 0.03647 0.27251 0.05500
H 	H 	0.40324 0.03162 0.24712 0.04400
C 	C 	0.50339 0.15561 0.20230 -0.01700
H 	H 	0.48123 0.17015 0.19937 0.05000
H 	H 	0.52424 0.16685 0.17972 0.03600
H 	H 	0.51080 0.15235 0.24935 0.04200
C 	C 	0.41368 0.22301 0.00010 -0.15400
C 	C 	0.38985 0.23501 0.96146 0.24400
C 	C 	0.38799 0.26521 0.95401 -0.11000
C 	C 	0.40976 0.28350 0.98492 0.02000
C 	C 	0.43226 0.27154 0.02607 0.09900
C 	C 	0.43412 0.24140 0.03344 -0.00700
H 	H 	0.37040 0.27438 0.92274 0.09300
H 	H 	0.45223 0.23221 0.06376 0.05400
Cl	Cl	0.36331 0.21242 0.91997 -0.29400
Cl	Cl	0.45919 0.29406 0.06693 -0.33200
C 	C 	0.17419 0.58831 0.97424 -0.06000
C 	C 	0.19659 0.58901 0.02224 0.17100
C 	C 	0.22870 0.57763 0.01564 -0.13000
C 	C 	0.23852 0.56491 0.96197 0.03000
C 	C 	0.21589 0.56360 0.91446 0.13600
C 	C 	0.18392 0.57537 0.92074 -0.03400
H 	H 	0.24587 0.57826 0.05259 0.08400
H 	H 	0.16663 0.57443 0.88399 0.07900
Cl	Cl	0.18412 0.60235 0.09200 -0.32900
Cl	Cl	0.22696 0.54661 0.84737 -0.31300
C 	C 	0.82153 0.41726 0.01195 -0.11500
C 	C 	0.79768 0.41106 0.05603 0.18400
C 	C 	0.76496 0.42106 0.04958 -0.07000
C 	C 	0.75588 0.43782 0.00023 -0.09800
C 	C 	0.77993 0.44479 0.95716 0.18500
C 	C 	0.81253 0.43450 0.96315 -0.01800
H 	H 	0.74667 0.41617 0.08343 0.07200
H 	H 	0.83085 0.43985 0.92970 0.08400
Cl	Cl	0.80887 0.39253 0.12143 -0.31800
Cl	Cl	0.76973 0.46697 0.89613 -0.32100
C 	C 	0.57767 0.71819 0.99735 0.03500
C 	C 	0.59888 0.73413 0.03471 0.09500
C 	C 	0.59652 0.76450 0.03647 -0.00100
C 	C 	0.57299 0.77905 0.00145 -0.15700
C 	C 	0.55264 0.76316 0.96253 0.24800
C 	C 	0.55505 0.73285 0.96068 -0.11900
H 	H 	0.61249 0.77672 0.06599 0.06500
H 	H 	0.53897 0.72063 0.93137 0.09400
Cl	Cl	0.62828 0.71628 0.07981 -0.32100
Cl	Cl	0.52423 0.78099 0.91538 -0.33200
