data_crystal

_cell_length_a 24.19638
_cell_length_b 21.68990
_cell_length_c 49.80181
_cell_angle_alpha 90.60579
_cell_angle_beta  90.67889
_cell_angle_gamma 112.64826

_symmetry_space_group_name_	'P 1'
_symmetry_space_group_name_H-M	'P 1'

loop_
_symmetry_equiv_pos_as_xyz
  x,y,z

loop_
_atom_site_label
_atom_site_type_symbol
_atom_site_fract_x
_atom_site_fract_y
_atom_site_fract_z
_atom_site_charge
C 	C 	0.01777 0.96186 0.74607 -0.04200
H 	H 	0.02333 0.95068 0.72495 0.08400
C 	C 	0.00960 0.98336 0.79843 -0.04100
H 	H 	0.00496 0.99183 0.82014 0.07500
C 	C 	0.04537 0.23717 0.22670 0.10700
H 	H 	0.01851 0.40172 0.17847 0.09200
C 	C 	0.01690 0.01974 0.25600 0.01400
C 	C 	0.01835 0.92235 0.23182 0.12300
C 	C 	0.02725 0.31677 0.34067 -0.04500
C 	C 	0.01457 0.23295 0.30575 0.01700
H 	H 	0.00820 0.33826 0.35595 0.08200
C 	C 	0.04518 0.93504 0.33943 0.00900
C 	C 	0.04568 0.04579 0.33210 0.11600
Br	Br	0.07786 0.85473 0.29177 -0.19500
C 	C 	0.02665 0.61040 0.50111 0.05900
C 	C 	0.03664 0.66126 0.48239 -0.06900
H 	H 	0.00395 0.68359 0.47953 0.06400
H 	H 	0.04139 0.81043 0.75570 0.09300
Br	Br	0.00961 0.66452 0.74872 -0.17200
C 	C 	0.05046 0.62312 0.03653 0.04900
C 	C 	0.11096 0.65274 0.02956 -0.06900
C 	C 	0.00427 0.58820 0.01604 -0.04300
H 	H 	0.12355 0.65800 0.00865 0.05700
Br	Br	0.03186 0.17262 0.76581 -0.17500
C 	C 	0.05309 0.35172 0.22203 0.00600
Br	Br	0.06994 0.16800 0.21422 -0.20400
Br	Br	0.07167 0.47423 0.31206 -0.16600
C 	C 	0.07811 0.99954 0.76105 0.01900
C 	C 	0.07380 0.01077 0.78802 0.02400
C 	C 	0.07269 0.30058 0.21561 -0.05600
H 	H 	0.10922 0.31004 0.20178 0.08100
C 	C 	0.08396 0.41866 0.21040 0.03700
C 	C 	0.06190 0.43454 0.18642 -0.08600
C 	C 	0.09643 0.49144 0.17220 0.15500
Br	Br	0.06275 0.51366 0.14044 -0.21600
C 	C 	0.08014 0.04808 0.25593 0.10900
C 	C 	0.11148 0.01646 0.24173 -0.05300
C 	C 	0.08113 0.95377 0.22954 0.00900
C 	C 	0.11610 0.91981 0.21602 0.03800
C 	C 	0.11197 0.90910 0.18795 0.08300
Br	Br	0.06466 0.94279 0.16582 -0.19000
C 	C 	0.08839 0.34687 0.33517 0.00500
C 	C 	0.07604 0.26347 0.30036 -0.05900
C 	C 	0.11320 0.31862 0.31555 0.12000
H 	H 	0.09512 0.24380 0.28458 0.10100
C 	C 	0.09349 0.89251 0.37517 -0.08800
C 	C 	0.07809 0.89305 0.34794 0.03100
C 	C 	0.10354 0.86407 0.32867 0.08600
H 	H 	0.07315 0.91321 0.39018 0.08700
C 	C 	0.07232 0.00458 0.34299 -0.06500
Br	Br	0.07561 0.13801 0.34299 -0.20700
C 	C 	0.08863 0.68292 0.46707 0.02800
C 	C 	0.06986 0.58278 0.50502 -0.07200
H 	H 	0.09572 0.72188 0.45251 0.05700
H 	H 	0.06318 0.54451 0.51987 0.06000
Br	Br	0.10677 0.11602 0.71760 -0.18400
C 	C 	0.03463 0.62083 0.06360 -0.06000
Br	Br	0.09821 0.97853 0.85147 -0.20000
Br	Br	0.06480 0.83535 0.81356 -0.19300
Br	Br	0.12509 0.12878 0.27547 -0.19400
C 	C 	0.12540 0.40972 0.34912 0.03700
C 	C 	0.12153 0.47040 0.34176 0.07900
C 	C 	0.14789 0.84093 0.33646 -0.01400
H 	H 	0.11400 0.02660 0.35434 0.08100
C 	C 	0.12186 0.60460 0.48988 0.02800
C 	C 	0.13713 0.01851 0.74769 0.00200
C 	C 	0.07911 0.64010 0.08367 0.02500
C 	C 	0.12462 0.06066 0.80382 0.00500
H 	H 	0.13661 0.14192 0.77691 0.10200
C 	C 	0.13148 0.65460 0.47074 -0.08100
H 	H 	0.06639 0.63475 0.10455 0.06500
C 	C 	0.13949 0.46280 0.22108 0.08100
C 	C 	0.15806 0.90370 0.23103 -0.08600
C 	C 	0.14608 0.87756 0.17567 -0.00200
H 	H 	0.14270 0.86913 0.15412 0.06600
H 	H 	0.14933 0.57502 0.35097 0.07700
C 	C 	0.13739 0.86873 0.38297 0.15100
C 	C 	0.14865 0.04144 0.82669 0.10600
H 	H 	0.16843 0.82036 0.32148 0.06500
C 	C 	0.13959 0.66143 0.07671 -0.08000
C 	C 	0.15541 0.67161 0.04960 0.02100
O 	O 	0.18210 0.69143 0.42875 -0.36100
O 	O 	0.17874 0.67856 0.12220 -0.36500
C 	C 	0.15447 0.53219 0.18163 -0.09800
C 	C 	0.17452 0.51917 0.20665 -0.00500
Br	Br	0.16869 0.44618 0.25502 -0.17500
H 	H 	0.15986 0.03994 0.24076 0.08000
C 	C 	0.19217 0.87244 0.21874 0.15100
C 	C 	0.18622 0.85922 0.19097 -0.09700
H 	H 	0.16590 0.91788 0.25204 0.09500
C 	C 	0.16321 0.40862 0.37046 -0.08600
C 	C 	0.15403 0.52892 0.35626 -0.00300
H 	H 	0.16670 0.36201 0.37594 0.09600
C 	C 	0.16636 0.84514 0.36340 -0.09200
Br	Br	0.15743 0.86927 0.42043 -0.23800
H 	H 	0.15439 0.58209 0.49282 0.03300
C 	C 	0.15764 0.07312 0.73005 0.10300
C 	C 	0.17740 0.99034 0.75671 -0.06500
H 	H 	0.16220 0.94835 0.77016 0.08800
C 	C 	0.15643 0.12376 0.79290 -0.06500
C 	C 	0.18569 0.67597 0.45430 0.29800
C 	C 	0.18476 0.66258 0.09689 0.29000
C 	C 	0.19144 0.52797 0.37791 -0.09900
Br	Br	0.19813 0.35227 0.31026 -0.17300
C 	C 	0.19653 0.58294 0.16418 0.32600
C 	C 	0.19745 0.46753 0.38441 0.15400
H 	H 	0.20209 0.69096 0.04402 0.03300
O 	O 	0.20147 0.76172 0.37795 -0.35500
O 	O 	0.20344 0.56607 0.13941 -0.37900
O 	O 	0.20138 0.76777 0.16951 -0.35200
C 	C 	0.21543 0.82434 0.37106 0.29700
H 	H 	0.21835 0.55129 0.21440 0.06500
C 	C 	0.21778 0.10057 0.72291 -0.05500
C 	C 	0.20861 0.07705 0.83411 -0.05600
C 	C 	0.21591 0.16032 0.80070 0.10900
O 	O 	0.22236 0.58529 0.42040 -0.38200
C 	C 	0.22160 0.58941 0.39420 0.32400
C 	C 	0.22483 0.83088 0.17754 0.30300
O 	O 	0.22275 0.64499 0.17292 -0.38100
O 	O 	0.22556 0.63860 0.08989 -0.40500
H 	H 	0.22793 0.06066 0.85097 0.08400
O 	O 	0.23420 0.64753 0.38289 -0.38400
O 	O 	0.23575 0.67500 0.46494 -0.41100
Ni	Ni	0.25004 0.72573 0.14803 1.10100
Br	Br	0.24769 0.84938 0.24016 -0.27000
C 	C 	0.23809 0.01920 0.75002 0.10700
H 	H 	0.23331 0.14309 0.70971 0.08700
C 	C 	0.24290 0.13550 0.82071 0.00600
Ni	Ni	0.25423 0.73527 0.40400 1.10400
Br	Br	0.25503 0.46473 0.41076 -0.24000
C 	C 	0.25846 0.07517 0.73327 0.00700
Br	Br	0.25983 0.24318 0.78342 -0.18800
O 	O 	0.26783 0.87121 0.37829 -0.38800
Br	Br	0.26449 0.24567 0.86625 -0.18600
Ni	Ni	0.27721 0.61269 0.11614 1.07500
O 	O 	0.27593 0.87222 0.16765 -0.39500
Br	Br	0.29256 0.98250 0.76439 -0.19300
Ni	Ni	0.29240 0.64439 0.44426 1.07600
Br	Br	0.29218 0.00711 0.68293 -0.19100
C 	C 	0.30642 0.17126 0.82834 0.03200
O 	O 	0.32413 0.77144 0.37829 -0.70600
O 	O 	0.32150 0.73057 0.42653 -0.69800
H 	H 	0.31565 0.74731 0.36077 0.17400
O 	O 	0.31249 0.70509 0.12876 -0.70500
O 	O 	0.32198 0.76657 0.17384 -0.70400
H 	H 	0.31311 0.74968 0.19234 0.17700
C 	C 	0.32205 0.10691 0.72585 0.03300
H 	H 	0.32369 0.73344 0.11272 0.15600
C 	C 	0.32302 0.21951 0.84918 0.08400
C 	C 	0.00346 0.33824 0.23876 0.11600
O 	O 	0.33474 0.58678 0.14045 -0.41000
H 	H 	0.33187 0.76598 0.44057 0.15900
H 	H 	0.33746 0.11689 0.79978 0.09200
H 	H 	0.34407 0.18152 0.75753 0.09400
C 	C 	0.34225 0.08625 0.70238 0.08400
H 	H 	0.34263 0.87956 0.08141 0.03100
H 	H 	0.35137 0.47941 0.12539 0.03900
C 	C 	0.35015 0.15373 0.81595 -0.08600
Ni	Ni	0.35240 0.86681 0.37300 1.07200
O 	O 	0.35333 0.61660 0.42384 -0.39600
C 	C 	0.35977 0.16491 0.73969 -0.08300
Ni	Ni	0.35833 0.86363 0.17379 1.07500
O 	O 	0.36715 0.88985 0.41301 -0.40600
O 	O 	0.36708 0.86871 0.13326 -0.41100
Ni	Ni	0.38015 0.73438 0.15689 1.10500
H 	H 	0.38043 0.93931 0.03947 0.05400
H 	H 	0.38176 0.42486 0.08794 0.05500
C 	C 	0.38261 0.24792 0.85811 -0.00800
Ni	Ni	0.38743 0.75322 0.39846 1.10500
C 	C 	0.38946 0.50846 0.11345 0.01300
C 	C 	0.38960 0.89480 0.07672 0.01900
C 	C 	0.39263 0.61325 0.13591 0.27900
H 	H 	0.39376 0.52233 0.44138 0.05400
H 	H 	0.39459 0.28334 0.87480 0.07700
C 	C 	0.39893 0.12428 0.69260 -0.00800
C 	C 	0.40677 0.47745 0.09226 -0.07200
C 	C 	0.40737 0.85256 0.12097 0.28800
C 	C 	0.41069 0.64955 0.42875 0.28100
C 	C 	0.41105 0.92884 0.05298 -0.07300
C 	C 	0.41001 0.18268 0.82465 0.15100
H 	H 	0.98791 0.60034 0.06913 0.05800
H 	H 	0.96149 0.59373 0.01667 0.04800
C 	C 	0.99892 0.22504 0.24545 0.00600
C 	C 	0.99515 0.01802 0.31492 -0.00900
Ni	Ni	0.70934 0.34388 0.89501 1.10100
O 	O 	0.63177 0.31244 0.87272 -0.70500
Ni	Ni	0.57766 0.33373 0.89755 1.10500
O 	O 	0.75077 0.31500 0.86464 -0.36300
O 	O 	0.68005 0.20797 0.86516 -0.38300
O 	O 	0.72805 0.43447 0.87705 -0.38200
Ni	Ni	0.59692 0.21685 0.86571 1.08200
O 	O 	0.74793 0.39817 0.95644 -0.41700
O 	O 	0.59369 0.19102 0.90523 -0.40100
O 	O 	0.50742 0.30991 0.87147 -0.36900
O 	O 	0.65116 0.35086 0.92193 -0.69900
O 	O 	0.78902 0.38240 0.91652 -0.37200
O 	O 	0.53743 0.37872 0.92281 -0.36300
O 	O 	0.62505 0.46830 0.92720 -0.39700
Ni	Ni	0.68917 0.43527 0.94156 1.07600
H 	H 	0.63600 0.33731 0.85581 0.17700
H 	H 	0.64359 0.31451 0.93493 0.15600
C 	C 	0.55607 0.20064 0.92188 0.29000
O 	O 	0.75374 0.49432 0.91640 -0.38500
C 	C 	0.72974 0.25284 0.85542 0.30200
C 	C 	0.48638 0.25086 0.85912 0.30200
C 	C 	0.74898 0.49220 0.89010 0.32200
C 	C 	0.56925 0.43656 0.93432 0.28400
C 	C 	0.79400 0.39772 0.94256 0.29800
O 	O 	0.53251 0.24471 0.91656 -0.37100
O 	O 	0.50801 0.20466 0.86528 -0.37600
Ni	Ni	0.57672 0.32976 0.66256 1.10000
O 	O 	0.63993 0.36871 0.63388 -0.70600
Ni	Ni	0.70189 0.33567 0.64605 1.10400
O 	O 	0.52180 0.36894 0.64373 -0.35600
O 	O 	0.59685 0.47207 0.64586 -0.40300
O 	O 	0.54305 0.24502 0.63861 -0.36500
Ni	Ni	0.67612 0.46563 0.63332 1.06900
O 	O 	0.52532 0.18640 0.68438 -0.39700
O 	O 	0.70553 0.47380 0.67228 -0.41000
O 	O 	0.75396 0.36736 0.61321 -0.36300
O 	O 	0.64537 0.31083 0.67851 -0.69600
O 	O 	0.51286 0.28459 0.69048 -0.36300
O 	O 	0.75239 0.27934 0.65366 -0.35100
O 	O 	0.70366 0.22590 0.69101 -0.39000
Ni	Ni	0.61593 0.21500 0.68455 1.08200
H 	H 	0.62485 0.35108 0.61567 0.15400
H 	H 	0.66219 0.33774 0.69500 0.17500
C 	C 	0.75372 0.46306 0.67875 0.31300
O 	O 	0.61456 0.20038 0.64409 -0.40800
C 	C 	0.54495 0.43132 0.63570 0.28200
C 	C 	0.76745 0.42840 0.60404 0.28200
C 	C 	0.57727 0.21571 0.62847 0.26400
C 	C 	0.74172 0.23233 0.67170 0.32600
C 	C 	0.49686 0.22062 0.69567 0.31100
O 	O 	0.76414 0.41348 0.66762 -0.35100
O 	O 	0.75779 0.47442 0.61889 -0.39100
C 	C 	0.97998 0.00386 0.75270 0.03200
C 	C 	0.98789 0.89847 0.76249 0.01700
C 	C 	0.97770 0.01615 0.77999 0.01100
C 	C 	0.98436 0.90923 0.78937 0.01900
O 	O 	0.44981 0.78324 0.36938 -0.36200
O 	O 	0.43720 0.71002 0.41915 -0.35900
C 	C 	0.41297 0.88537 0.42593 0.29500
C 	C 	0.46866 0.84509 0.36035 0.30700
O 	O 	0.43535 0.84175 0.41828 -0.37400
O 	O 	0.44237 0.88668 0.36766 -0.39400
O 	O 	0.42287 0.67702 0.14140 -0.35500
O 	O 	0.42916 0.81172 0.13218 -0.36100
O 	O 	0.44755 0.87858 0.17927 -0.39300
O 	O 	0.44528 0.77206 0.18539 -0.36200
C 	C 	0.47018 0.83712 0.19009 0.30600
C 	C 	0.95110 0.09288 0.25203 -0.04200
H 	H 	0.95260 0.08671 0.22995 0.08000
C 	C 	0.94473 0.10439 0.30521 -0.04400
H 	H 	0.94181 0.10856 0.32735 0.07900
C 	C 	0.98223 0.05547 0.26870 0.01100
C 	C 	0.97988 0.16521 0.26320 0.02800
C 	C 	0.88715 0.06711 0.26303 0.02100
C 	C 	0.97831 0.06077 0.29599 0.02400
C 	C 	0.97684 0.17098 0.29068 0.02300
C 	C 	0.88393 0.07380 0.29034 0.02100
C 	C 	0.97622 0.27498 0.25012 -0.06000
H 	H 	0.93884 0.26542 0.26345 0.10000
Br	Br	0.97297 0.40584 0.24677 -0.17200
C 	C 	0.83400 0.02671 0.24618 -0.00100
C 	C 	0.80940 0.05775 0.22743 0.11100
C 	C 	0.75038 0.02449 0.21807 -0.05600
C 	C 	0.71585 0.96014 0.22697 0.00700
C 	C 	0.74248 0.92667 0.24355 0.10100
C 	C 	0.80213 0.95920 0.25217 -0.06300
H 	H 	0.73097 0.04918 0.20425 0.08400
C 	C 	0.65249 0.92732 0.21810 0.03000
H 	H 	0.82230 0.93356 0.26516 0.07300
C 	C 	0.63764 0.88274 0.19613 -0.08400
C 	C 	0.57833 0.85294 0.18678 0.15300
C 	C 	0.53258 0.86561 0.20025 -0.08900
C 	C 	0.54751 0.91025 0.22222 -0.01000
C 	C 	0.60724 0.94213 0.23084 0.08300
H 	H 	0.67251 0.87247 0.18588 0.08900
H 	H 	0.51285 0.92142 0.23224 0.05900
Br	Br	0.69727 0.83803 0.25576 -0.19600
Br	Br	0.85526 0.14526 0.21438 -0.20400
Br	Br	0.56200 0.80005 0.15425 -0.21600
Br	Br	0.62640 0.00859 0.25887 -0.21400
C 	C 	0.98639 0.95670 0.24400 -0.07200
H 	H 	0.93799 0.93348 0.24487 0.07900
Br	Br	0.97616 0.83119 0.22031 -0.17600
C 	C 	0.82673 0.04414 0.30498 0.00300
C 	C 	0.78200 0.07059 0.30246 0.11100
C 	C 	0.72575 0.03699 0.31363 -0.05300
C 	C 	0.71211 0.97502 0.32578 0.01100
C 	C 	0.75701 0.94925 0.32886 0.11000
C 	C 	0.81452 0.98490 0.31918 -0.06300
H 	H 	0.69220 0.05856 0.31247 0.09400
C 	C 	0.65070 0.93773 0.33532 0.03600
H 	H 	0.84883 0.96478 0.32151 0.07400
C 	C 	0.60708 0.89443 0.31758 -0.08000
C 	C 	0.54736 0.86351 0.32552 0.14900
C 	C 	0.53112 0.87555 0.35151 -0.08900
C 	C 	0.57502 0.91779 0.36938 -0.00700
C 	C 	0.63449 0.94896 0.36140 0.08300
H 	H 	0.61937 0.88574 0.29746 0.10300
H 	H 	0.56277 0.92671 0.38949 0.07100
Br	Br	0.74038 0.86507 0.34580 -0.18300
Br	Br	0.79587 0.15125 0.28318 -0.17400
Br	Br	0.48845 0.80728 0.30031 -0.22500
Br	Br	0.69292 0.00720 0.38634 -0.19500
C 	C 	0.99019 0.26028 0.32609 0.09600
Br	Br	0.90629 0.22429 0.33343 -0.19300
C 	C 	0.96483 0.94824 0.31352 -0.05900
C 	C 	0.98824 0.90680 0.32686 0.10500
H 	H 	0.92388 0.92626 0.30166 0.07200
Br	Br	0.94079 0.81289 0.32894 -0.17700
C 	C 	0.44410 0.93449 0.44713 -0.09000
C 	C 	0.47721 0.91807 0.46715 0.02700
C 	C 	0.51063 0.96607 0.48613 -0.07400
C 	C 	0.51053 0.03055 0.48557 0.05700
C 	C 	0.47813 0.04741 0.46537 -0.07100
C 	C 	0.44478 0.99948 0.44631 0.02700
C 	C 	0.54158 0.07881 0.50709 -0.05100
C 	C 	0.51116 0.10561 0.52244 -0.04800
C 	C 	0.53621 0.13863 0.54830 0.05100
C 	C 	0.52946 0.19780 0.55562 -0.07100
C 	C 	0.54521 0.22447 0.58152 0.01700
C 	C 	0.56737 0.19177 0.60044 -0.08300
C 	C 	0.57605 0.13373 0.59283 0.02300
C 	C 	0.56015 0.10699 0.56695 -0.06700
H 	H 	0.47703 0.86809 0.46800 0.03300
H 	H 	0.53560 0.95275 0.50166 0.05700
H 	H 	0.47861 0.09752 0.46454 0.05800
H 	H 	0.42038 0.01317 0.43065 0.04000
H 	H 	0.58705 0.08533 0.51276 0.05300
H 	H 	0.46622 0.10052 0.51646 0.05100
H 	H 	0.51079 0.22236 0.54141 0.05200
H 	H 	0.53895 0.26976 0.58705 0.02400
H 	H 	0.59282 0.10783 0.60724 0.05700
H 	H 	0.56427 0.06036 0.56171 0.05900
C 	C 	0.80855 0.45047 0.58126 -0.07700
C 	C 	0.84846 0.41928 0.57563 0.02900
C 	C 	0.88960 0.44261 0.55499 -0.06800
C 	C 	0.89176 0.49768 0.53992 0.05300
C 	C 	0.85062 0.52761 0.54491 -0.06900
C 	C 	0.80944 0.50434 0.56560 0.02100
C 	C 	0.93680 0.52287 0.51870 -0.04600
C 	C 	0.97219 0.58806 0.51749 -0.05200
H 	H 	0.84848 0.37783 0.58756 0.05600
H 	H 	0.92063 0.41866 0.55104 0.05900
H 	H 	0.85051 0.56875 0.53280 0.05600
H 	H 	0.77826 0.52814 0.56944 0.02200
H 	H 	0.94635 0.48690 0.50618 0.05200
H 	H 	0.96255 0.62467 0.52954 0.05400
C 	C 	0.43933 0.62755 0.45093 -0.09300
C 	C 	0.47597 0.67439 0.46988 0.01400
C 	C 	0.48985 0.65305 0.49453 -0.07300
C 	C 	0.46795 0.58475 0.50037 0.04700
C 	C 	0.43480 0.53770 0.48069 -0.07000
C 	C 	0.42119 0.55903 0.45600 0.01500
C 	C 	0.47339 0.56361 0.52809 -0.04900
C 	C 	0.49015 0.51232 0.53290 -0.05000
C 	C 	0.49615 0.49158 0.56069 0.04800
C 	C 	0.47751 0.42343 0.56642 -0.07400
C 	C 	0.48940 0.40328 0.59170 0.01700
C 	C 	0.52057 0.45124 0.61146 -0.09600
C 	C 	0.53638 0.51935 0.60615 0.01300
C 	C 	0.52521 0.53948 0.58080 -0.07400
H 	H 	0.49069 0.72742 0.46621 0.03900
H 	H 	0.51580 0.68974 0.50949 0.05300
H 	H 	0.41718 0.48483 0.48498 0.05700
H 	H 	0.46507 0.59149 0.54475 0.04800
H 	H 	0.49796 0.48415 0.51620 0.04800
H 	H 	0.45512 0.38606 0.55107 0.05400
H 	H 	0.47678 0.35055 0.59545 0.04000
H 	H 	0.55973 0.55688 0.62130 0.03800
H 	H 	0.54113 0.59229 0.57653 0.05300
C 	C 	0.93831 0.01597 0.73229 0.01400
C 	C 	0.95852 0.04257 0.70672 0.11600
C 	C 	0.93613 0.08748 0.69563 -0.05100
C 	C 	0.88384 0.09158 0.70567 0.00900
C 	C 	0.85499 0.05159 0.72734 0.10800
C 	C 	0.88182 0.01333 0.74033 -0.05700
H 	H 	0.95496 0.11283 0.67726 0.08600
C 	C 	0.85682 0.13341 0.69214 0.03100
H 	H 	0.85994 0.98389 0.75734 0.08900
C 	C 	0.81069 0.10412 0.67306 -0.08300
C 	C 	0.77477 0.13802 0.66482 0.14900
C 	C 	0.78578 0.20213 0.67536 -0.09700
C 	C 	0.83554 0.23389 0.69232 -0.00100
C 	C 	0.87107 0.19981 0.70077 0.08200
H 	H 	0.80065 0.05359 0.66582 0.08900
H 	H 	0.84499 0.28402 0.69990 0.07400
Br	Br	0.77930 0.04910 0.73964 -0.20800
Br	Br	0.98788 0.99503 0.68170 -0.20300
Br	Br	0.70941 0.09503 0.64007 -0.24000
Br	Br	0.93719 0.24362 0.72499 -0.18600
C 	C 	0.43645 0.18297 0.70613 -0.09200
C 	C 	0.41685 0.20287 0.73003 0.15100
H 	H 	0.41362 0.10854 0.67422 0.07500
Br	Br	0.46722 0.28104 0.74994 -0.20700
C 	C 	0.96148 0.83064 0.74979 0.00100
C 	C 	0.90171 0.80416 0.74004 0.10900
C 	C 	0.87619 0.73829 0.73077 -0.05800
C 	C 	0.90661 0.69550 0.73379 0.01000
C 	C 	0.96648 0.72151 0.74329 0.10500
C 	C 	0.99449 0.78973 0.74985 -0.06300
H 	H 	0.83124 0.71935 0.72219 0.08600
C 	C 	0.87653 0.62497 0.72489 0.03600
C 	C 	0.89601 0.60370 0.70146 -0.08600
C 	C 	0.85803 0.54701 0.68725 0.15000
C 	C 	0.79951 0.51116 0.69646 -0.10100
C 	C 	0.78258 0.52807 0.72136 -0.00700
C 	C 	0.82064 0.58458 0.73563 0.07900
H 	H 	0.93903 0.63403 0.69319 0.09300
H 	H 	0.73844 0.49930 0.72897 0.06200
Br	Br	0.85221 0.85427 0.74060 -0.22000
Br	Br	0.88599 0.52246 0.65446 -0.20500
Br	Br	0.79270 0.60962 0.76829 -0.18100
C 	C 	0.95923 0.49579 0.98411 0.05200
C 	C 	0.95618 0.50276 0.95627 -0.07000
C 	C 	0.90336 0.46608 0.94204 0.02800
C 	C 	0.85338 0.42220 0.95564 -0.08700
C 	C 	0.85855 0.41094 0.98308 0.02400
H 	H 	0.99365 0.53879 0.94589 0.06200
H 	H 	0.90013 0.47472 0.92079 0.05000
H 	H 	0.91400 0.44083 0.01869 0.05800
C 	C 	0.53769 0.15934 0.94606 -0.08800
C 	C 	0.48001 0.14295 0.95627 0.02300
C 	C 	0.46287 0.10477 0.97942 -0.07200
C 	C 	0.56095 0.09906 0.98249 -0.07100
C 	C 	0.57803 0.13698 0.95924 0.02000
C 	C 	0.48541 0.04567 0.01801 -0.04800
C 	C 	0.49552 0.98986 0.02260 -0.05100
C 	C 	0.47201 0.95015 0.04686 0.05100
C 	C 	0.51060 0.93357 0.06392 -0.07100
C 	C 	0.48914 0.89946 0.08775 0.02200
C 	C 	0.42878 0.88128 0.09454 -0.08800
H 	H 	0.44836 0.15959 0.94625 0.04700
H 	H 	0.62295 0.15008 0.95179 0.03600
H 	H 	0.45975 0.06168 0.03228 0.04900
H 	H 	0.52154 0.97369 0.00859 0.05100
H 	H 	0.55747 0.94862 0.05909 0.05800
H 	H 	0.51976 0.88894 0.10124 0.05300
C 	C 	0.54965 0.45446 0.96010 -0.09900
C 	C 	0.57623 0.52022 0.97020 0.01300
C 	C 	0.52818 0.48451 0.01293 0.04800
C 	C 	0.50005 0.41918 0.00263 -0.07400
C 	C 	0.51032 0.40431 0.97627 0.01700
C 	C 	0.51937 0.50022 0.04100 -0.05100
C 	C 	0.46401 0.48544 0.05039 -0.04900
C 	C 	0.45436 0.51489 0.07590 0.04800
C 	C 	0.41925 0.57747 0.11825 -0.09100
C 	C 	0.47005 0.61364 0.10327 0.01900
C 	C 	0.48688 0.58288 0.08195 -0.07000
H 	H 	0.60610 0.55952 0.95785 0.04900
H 	H 	0.58752 0.58565 0.00434 0.05600
H 	H 	0.47128 0.37967 0.01521 0.05400
H 	H 	0.48963 0.35327 0.96884 0.04100
H 	H 	0.55828 0.53007 0.05317 0.04900
H 	H 	0.42523 0.45371 0.03855 0.04800
H 	H 	0.49437 0.66659 0.10707 0.05500
H 	H 	0.52314 0.61279 0.06927 0.05500
C 	C 	0.77109 0.22866 0.84173 -0.09300
C 	C 	0.75310 0.18954 0.81806 0.15300
C 	C 	0.78872 0.15739 0.80782 -0.08500
C 	C 	0.84214 0.16372 0.82105 0.03600
C 	C 	0.86146 0.20520 0.84403 0.08200
C 	C 	0.82609 0.23775 0.85416 -0.00500
H 	H 	0.77432 0.12653 0.78985 0.10400
C 	C 	0.87725 0.12621 0.81092 0.01000
H 	H 	0.84021 0.26795 0.87236 0.06900
C 	C 	0.92592 0.15792 0.79428 -0.05400
C 	C 	0.96102 0.12397 0.78517 0.10400
C 	C 	0.94551 0.05619 0.79163 -0.00000
C 	C 	0.89820 0.02545 0.80921 -0.06300
C 	C 	0.86364 0.05979 0.81859 0.10900
H 	H 	0.93749 0.20971 0.78901 0.09500
H 	H 	0.88728 0.97422 0.81503 0.07500
Br	Br	0.93484 0.21589 0.86245 -0.19300
Br	Br	0.68049 0.18026 0.79927 -0.25000
Br	Br	0.79818 0.01529 0.84197 -0.19300
C 	C 	0.42618 0.22843 0.84651 -0.08700
Br	Br	0.46900 0.16055 0.80588 -0.23400
C 	C 	0.78123 0.55396 0.87509 -0.09700
C 	C 	0.77948 0.61564 0.88338 0.15200
C 	C 	0.81657 0.67483 0.87127 -0.08300
C 	C 	0.85240 0.67314 0.84954 0.03300
C 	C 	0.85430 0.61147 0.84124 0.08200
C 	C 	0.81856 0.55246 0.85393 -0.00500
H 	H 	0.81597 0.72212 0.87817 0.09200
C 	C 	0.88659 0.73597 0.83528 0.01000
H 	H 	0.82111 0.50556 0.84777 0.07500
C 	C 	0.94943 0.76107 0.83543 -0.05500
C 	C 	0.98192 0.81673 0.82012 0.10600
C 	C 	0.95225 0.85406 0.80784 0.00200
C 	C 	0.88994 0.83263 0.80994 -0.06100
C 	C 	0.85674 0.77207 0.82219 0.10600
H 	H 	0.97290 0.73509 0.84622 0.08800
H 	H 	0.86683 0.86088 0.80055 0.08500
Br	Br	0.90717 0.60662 0.81352 -0.17800
Br	Br	0.72375 0.61998 0.90976 -0.23400
Br	Br	0.77089 0.73744 0.81908 -0.17900
H 	H 	0.05296 0.53517 0.99911 0.05300
C 	C 	0.01067 0.54173 0.99974 -0.04800
C 	C 	0.91126 0.44773 0.99727 -0.07200
H 	H 	0.82079 0.37592 0.99365 0.03600
C 	C 	0.50301 0.08225 0.99256 0.05000
H 	H 	0.41835 0.09275 0.98719 0.05600
H 	H 	0.59307 0.08390 0.99294 0.05500
C 	C 	0.56593 0.53499 0.99657 -0.07300
