data_crystal

_cell_length_a 20.69744
_cell_length_b 21.61225
_cell_length_c 39.15733
_cell_angle_alpha 60.70581
_cell_angle_beta  119.02402
_cell_angle_gamma 133.23708

_symmetry_space_group_name_	'P 1'
_symmetry_space_group_name_H-M	'P 1'

loop_
_symmetry_equiv_pos_as_xyz
  x,y,z

loop_
_atom_site_label
_atom_site_type_symbol
_atom_site_fract_x
_atom_site_fract_y
_atom_site_fract_z
_atom_site_charge
Co	Co	0.10444 0.06612 0.04434 1.18700
Co	Co	0.14481 0.94136 0.04862 1.16600
O 	O 	0.02511 0.08803 0.18040 -0.38500
O 	O 	0.09090 0.15979 0.03309 -0.45200
C 	C 	0.10209 0.25321 0.11074 0.30500
C 	C 	0.13800 0.82961 0.13271 0.30500
O 	O 	0.12146 0.83281 0.09569 -0.40300
O 	O 	0.10987 0.85979 0.14100 -0.37900
O 	O 	0.12197 0.21597 0.10248 -0.38100
O 	O 	0.08196 0.96547 0.06464 -0.77400
Co	Co	0.05925 0.99959 0.54917 1.16600
Co	Co	0.04530 0.85397 0.53351 1.17200
C 	C 	0.22463 0.02276 0.54926 0.31000
O 	O 	0.07182 0.09723 0.55532 -0.45000
C 	C 	0.04818 0.14033 0.64589 0.26900
C 	C 	0.09130 0.76453 0.61630 0.30000
O 	O 	0.03732 0.74976 0.58134 -0.40500
O 	O 	0.09328 0.80898 0.63162 -0.37800
O 	O 	0.07370 0.11313 0.63417 -0.39000
O 	O 	0.02219 0.89410 0.56263 -0.77300
O 	O 	0.18296 0.93830 0.55649 -0.39200
O 	O 	0.19639 0.05182 0.55863 -0.37100
C 	C 	0.13116 0.08555 0.87312 -0.05600
C 	C 	0.14020 0.10834 0.90413 0.01800
H 	H 	0.17679 0.13499 0.85287 0.07000
C 	C 	0.03398 0.96718 0.31630 -0.05700
C 	C 	0.03825 0.96667 0.28136 -0.00200
C 	C 	0.06270 0.07561 0.40192 -0.02900
C 	C 	0.06050 0.06875 0.36724 -0.01000
C 	C 	0.13896 0.13506 0.34985 0.09800
C 	C 	0.09874 0.95060 0.28501 0.08900
N 	N 	0.20182 0.18817 0.33588 -0.09600
N 	N 	0.14727 0.93773 0.28795 -0.10300
H 	H 	0.07539 0.95458 0.34542 0.05800
H 	H 	0.12548 0.12684 0.41674 0.06000
C 	C 	0.11357 0.22987 0.65253 -0.06000
C 	C 	0.12075 0.30120 0.61965 0.00700
C 	C 	0.14509 0.37478 0.62586 -0.02000
C 	C 	0.10394 0.29931 0.57958 0.07400
C 	C 	0.13959 0.44212 0.59163 0.10100
N 	N 	0.13478 0.49566 0.56424 -0.10000
N 	N 	0.09076 0.29809 0.54754 -0.10400
C 	C 	0.20181 0.75760 0.60914 0.01700
C 	C 	0.15826 0.74190 0.63464 -0.06800
C 	C 	0.15961 0.68486 0.67357 0.01500
C 	C 	0.12105 0.67151 0.70110 0.09400
C 	C 	0.18816 0.80093 0.56670 0.07700
N 	N 	0.17735 0.83400 0.53258 -0.13100
N 	N 	0.09027 0.66084 0.72312 -0.09900
C 	C 	0.17267 0.33978 0.12038 -0.07100
C 	C 	0.19602 0.41705 0.15936 -0.02100
C 	C 	0.18387 0.34563 0.15748 0.01500
C 	C 	0.20193 0.41987 0.19707 0.10700
C 	C 	0.18542 0.27956 0.19385 0.09000
N 	N 	0.18723 0.22727 0.22309 -0.09200
N 	N 	0.20668 0.42217 0.22716 -0.10000
C 	C 	0.16429 0.76989 0.16406 -0.07300
C 	C 	0.10623 0.68237 0.16111 0.02600
C 	C 	0.14305 0.64352 0.16347 -0.02700
C 	C 	0.00830 0.63567 0.15157 0.06500
C 	C 	0.08478 0.55045 0.16648 0.10900
N 	N 	0.03802 0.47598 0.16901 -0.10300
N 	N 	0.19308 0.01098 0.45210 -0.09900
C 	C 	0.19588 0.63827 0.68517 -0.02200
C 	C 	0.19505 0.41445 0.08819 0.01800
N 	N 	0.13466 0.78078 0.04705 -0.11500
N 	N 	0.22230 0.59159 0.14496 -0.12600
N 	N 	0.20941 0.51587 0.66795 -0.12700
C 	C 	0.11128 0.05569 0.97205 0.29100
O 	O 	0.17478 0.04567 0.99824 -0.38600
O 	O 	0.06553 0.06000 0.98451 -0.36100
C 	C 	0.01036 0.98269 0.46550 0.21500
O 	O 	0.06091 0.95487 0.48272 -0.38900
C 	C 	0.08082 0.04504 0.93066 -0.03300
C 	C 	0.04062 0.98501 0.82814 -0.05500
C 	C 	0.04963 0.93042 0.78934 -0.02800
C 	C 	0.17393 0.38243 0.66538 -0.00200
C 	C 	0.14672 0.23945 0.69191 0.01700
C 	C 	0.19864 0.48190 0.08839 -0.02200
C 	C 	0.20507 0.48681 0.12479 0.00000
C 	C 	0.22079 0.42457 0.05647 0.09500
C 	C 	0.19780 0.54732 0.05147 0.10600
N 	N 	0.04139 0.37096 0.99185 -0.11100
C 	C 	0.05656 0.73289 0.04401 0.05600
Co	Co	0.01357 0.88622 0.09719 1.17600
C 	C 	0.06082 0.00103 0.86668 0.05400
N 	N 	0.19710 0.59957 0.02198 -0.10000
O 	O 	0.01565 0.85846 0.01846 -0.40600
C 	C 	0.16894 0.31170 0.69822 -0.02000
C 	C 	0.16776 0.18077 0.72539 0.09400
C 	C 	0.07339 0.94721 0.82607 -0.00100
H 	H 	0.07352 0.89995 0.78822 0.05700
N 	N 	0.18585 0.13477 0.75221 -0.10000
C 	C 	0.19018 0.57464 0.72365 0.10500
C 	C 	0.23844 0.65466 0.65935 0.00100
Co	Co	0.01976 0.11845 0.07052 1.18000
C 	C 	0.13039 0.92474 0.86129 0.08300
C 	C 	0.18942 0.31456 0.73867 0.10300
N 	N 	0.18565 0.52378 0.75439 -0.09800
N 	N 	0.00213 0.51784 0.07175 -0.12000
O 	O 	0.01724 0.21904 0.10548 -0.41100
N 	N 	0.17611 0.90673 0.88957 -0.10200
C 	C 	0.00899 0.01268 0.20472 0.28600
N 	N 	0.20573 0.31680 0.77097 -0.10200
C 	C 	0.23895 0.47118 0.67259 0.13100
C 	C 	0.20675 0.19838 0.90659 0.09200
C 	C 	0.00756 0.96167 0.92292 -0.06300
N 	N 	0.24187 0.43278 0.03123 -0.09400
C 	C 	0.23861 0.69351 0.16814 0.00500
O 	O 	0.24628 0.13203 0.06754 -0.37200
C 	C 	0.24879 0.72077 0.62333 -0.02400
O 	O 	0.99712 0.99388 0.07791 -0.57600
O 	O 	0.99599 0.95625 0.19194 -0.35700
C 	C 	0.25349 0.04478 0.47749 0.09100
O 	O 	0.99806 0.91996 0.70222 -0.36900
C 	C 	0.98751 0.00803 0.79345 0.03300
C 	C 	0.99187 0.94948 0.75478 -0.02900
H 	H 	0.96351 0.03820 0.79482 0.05200
C 	C 	0.95915 0.98714 0.75775 -0.01200
C 	C 	0.25556 0.57503 0.13002 0.13200
C 	C 	0.88980 0.99725 0.72592 0.06300
N 	N 	0.26010 0.27114 0.90779 -0.09000
O 	O 	0.99891 0.00582 0.48688 -0.31900
N 	N 	0.83355 0.00474 0.70083 -0.11500
Co	Co	0.98795 0.04489 0.59005 1.19300
C 	C 	0.30478 0.74879 0.59960 0.10500
N 	N 	0.34954 0.77164 0.58059 -0.10300
N 	N 	0.32167 0.30234 0.98543 -0.08800
O 	O 	0.26462 0.02598 0.08257 -0.37000
O 	O 	0.97407 0.08435 0.66030 -0.35200
C 	C 	0.95043 0.91484 0.71842 0.28900
C 	C 	0.97901 0.98715 0.31346 0.01500
C 	C 	0.98574 0.98452 0.24314 -0.03300
C 	C 	0.98234 0.99697 0.35010 0.01100
C 	C 	0.98884 0.00992 0.42064 0.02100
C 	C 	0.29654 0.10884 0.07253 0.29400
O 	O 	0.86855 0.89216 0.69829 -0.39600
C 	C 	0.25765 0.80660 0.18119 0.01400
N 	N 	0.93197 0.19038 0.64637 -0.09500
C 	C 	0.36008 0.27043 0.00518 0.08600
C 	C 	0.73901 0.32288 0.01666 0.12700
N 	N 	0.78988 0.41106 0.01232 -0.12800
C 	C 	0.76638 0.44212 0.02417 0.12800
N 	N 	0.69185 0.38567 0.03936 -0.13100
C 	C 	0.63796 0.29943 0.04131 0.13100
N 	N 	0.66269 0.26746 0.03117 -0.12900
C 	C 	0.71977 0.28668 0.51639 0.12900
N 	N 	0.75713 0.37029 0.51399 -0.12800
C 	C 	0.71070 0.38689 0.51955 0.13200
N 	N 	0.62554 0.32126 0.52537 -0.13300
C 	C 	0.58761 0.23804 0.52812 0.13100
N 	N 	0.63469 0.22009 0.52384 -0.12700
C 	C 	0.27749 0.66864 0.15608 0.12500
N 	N 	0.34122 0.63613 0.12471 -0.13300
C 	C 	0.39927 0.70726 0.13956 0.13000
N 	N 	0.36732 0.72508 0.15447 -0.12800
C 	C 	0.27115 0.60192 0.66948 0.12700
N 	N 	0.32884 0.51222 0.67856 -0.13200
C 	C 	0.38914 0.59897 0.67631 0.13100
N 	N 	0.36103 0.64366 0.67291 -0.13000
Co	Co	0.94217 0.94500 0.13073 1.17700
C 	C 	0.95412 0.78670 0.03901 0.31200
Co	Co	0.92726 0.08828 0.12917 1.18300
O 	O 	0.96409 0.04671 0.10796 -0.73400
O 	O 	0.94114 0.84505 0.13493 -0.43600
C 	C 	0.77324 0.90167 0.13508 0.30500
O 	O 	0.83273 0.96122 0.15535 -0.41100
O 	O 	0.80182 0.88240 0.12025 -0.37000
C 	C 	0.86550 0.14113 0.04129 0.28800
O 	O 	0.83610 0.08350 0.07410 -0.36800
O 	O 	0.92620 0.15157 0.03101 -0.34900
O 	O 	0.92959 0.79024 0.06394 -0.35600
Co	Co	0.98703 0.82542 0.60537 1.19300
Co	Co	0.92837 0.87631 0.64841 1.18000
C 	C 	0.86070 0.70631 0.54550 0.29100
Co	Co	0.85074 0.97060 0.64226 1.16900
O 	O 	0.91559 0.95862 0.62040 -0.75500
O 	O 	0.95914 0.79732 0.65657 -0.44900
O 	O 	0.96350 0.92580 0.58923 -0.56800
C 	C 	0.72641 0.78411 0.64302 0.30000
O 	O 	0.73831 0.85932 0.62283 -0.37600
O 	O 	0.79220 0.77524 0.65418 -0.36000
C 	C 	0.87165 0.10778 0.56548 0.28400
O 	O 	0.81409 0.03800 0.58723 -0.36700
O 	O 	0.91649 0.10272 0.55244 -0.35100
O 	O 	0.90558 0.77293 0.51740 -0.36900
O 	O 	0.87322 0.71812 0.57947 -0.35700
C 	C 	0.99811 0.93901 0.89166 -0.01200
C 	C 	0.92422 0.85172 0.88571 0.09800
N 	N 	0.86502 0.78173 0.88095 -0.09900
H 	H 	0.95960 0.91321 0.94207 0.08100
C 	C 	0.92433 0.00179 0.27554 0.01600
C 	C 	0.92707 0.99935 0.24108 -0.04400
C 	C 	0.90395 0.93887 0.36547 -0.03100
C 	C 	0.90590 0.94879 0.39912 -0.02300
C 	C 	0.82200 0.90030 0.40984 0.10100
C 	C 	0.86896 0.02466 0.27112 0.09300
N 	N 	0.75473 0.86239 0.41829 -0.09800
N 	N 	0.82462 0.04299 0.26759 -0.09100
H 	H 	0.88946 0.01705 0.21202 0.05900
H 	H 	0.84113 0.88747 0.35078 0.05600
C 	C 	0.47786 0.64651 0.66816 -0.00300
C 	C 	0.47958 0.65675 0.62999 -0.02100
C 	C 	0.55838 0.68330 0.62427 0.01900
C 	C 	0.63901 0.70987 0.65492 -0.07000
C 	C 	0.63451 0.69000 0.69413 0.01300
C 	C 	0.55515 0.66150 0.70050 -0.02200
C 	C 	0.40065 0.64078 0.59649 0.10600
C 	C 	0.71105 0.69822 0.72783 0.09800
C 	C 	0.55300 0.64755 0.74022 0.10300
C 	C 	0.55806 0.68745 0.58610 0.09400
N 	N 	0.55123 0.63640 0.77192 -0.09800
N 	N 	0.55785 0.69077 0.55564 -0.09800
N 	N 	0.77201 0.70451 0.75483 -0.09500
N 	N 	0.33808 0.62836 0.56954 -0.09800
C 	C 	0.67436 0.85137 0.13256 -0.07400
C 	C 	0.62240 0.75981 0.14875 0.02000
C 	C 	0.53859 0.71568 0.15706 -0.02300
C 	C 	0.49855 0.75957 0.14296 0.00100
C 	C 	0.54832 0.85007 0.12518 -0.02600
C 	C 	0.63878 0.89705 0.12354 0.02700
C 	C 	0.65698 0.71152 0.15884 0.09400
C 	C 	0.50713 0.89558 0.10882 0.10600
C 	C 	0.69765 0.99132 0.11780 0.05500
C 	C 	0.49460 0.62574 0.18099 0.10600
N 	N 	0.74328 0.06630 0.11373 -0.10200
N 	N 	0.45938 0.55399 0.20004 -0.10100
N 	N 	0.47437 0.93195 0.09578 -0.10900
N 	N 	0.68452 0.67293 0.16690 -0.09600
C 	C 	0.29624 0.77093 0.18190 -0.02400
C 	C 	0.39204 0.80807 0.20068 0.10800
C 	C 	0.31216 0.87650 0.20055 0.09000
N 	N 	0.35546 0.93172 0.21649 -0.09700
N 	N 	0.93006 0.59844 0.14384 -0.08300
N 	N 	0.46860 0.83790 0.21571 -0.10200
C 	C 	0.77897 0.26611 0.51967 0.00100
C 	C 	0.85813 0.28611 0.55080 -0.01900
C 	C 	0.88494 0.23058 0.56808 0.01200
C 	C 	0.85973 0.18002 0.54476 -0.05600
C 	C 	0.79595 0.17769 0.50699 0.01900
C 	C 	0.75031 0.21502 0.49600 -0.01900
C 	C 	0.90893 0.35999 0.56691 0.11200
C 	C 	0.77297 0.13235 0.48092 0.10700
C 	C 	0.67723 0.20350 0.46001 0.11000
C 	C 	0.91200 0.20724 0.61153 0.08000
N 	N 	0.61892 0.19434 0.43119 -0.09200
N 	N 	0.75460 0.09612 0.46009 -0.09000
N 	N 	0.95014 0.41927 0.57975 -0.09700
C 	C 	0.75694 0.47227 0.52575 -0.00200
C 	C 	0.73601 0.53050 0.49484 -0.02200
C 	C 	0.75396 0.59734 0.50380 0.01500
C 	C 	0.80708 0.61612 0.54186 -0.06700
C 	C 	0.82540 0.55613 0.57339 0.01800
C 	C 	0.80023 0.48433 0.56531 -0.02000
C 	C 	0.69374 0.52012 0.45394 0.10300
C 	C 	0.86621 0.56568 0.61438 0.10100
C 	C 	0.81426 0.42014 0.59812 0.11000
C 	C 	0.71057 0.64089 0.47542 0.09500
N 	N 	0.82530 0.36894 0.62439 -0.09400
N 	N 	0.67490 0.67474 0.45273 -0.09500
N 	N 	0.89853 0.57292 0.64716 -0.09700
N 	N 	0.66000 0.51178 0.42132 -0.10000
C 	C 	0.49598 0.16749 0.53694 -0.00100
C 	C 	0.41970 0.13088 0.50573 -0.02000
C 	C 	0.33122 0.08743 0.50876 0.01700
C 	C 	0.31855 0.08241 0.54286 -0.06700
C 	C 	0.39505 0.11614 0.57488 0.02000
C 	C 	0.48274 0.15513 0.57256 -0.02000
C 	C 	0.43227 0.13971 0.46982 0.10800
C 	C 	0.38332 0.10820 0.61079 0.09800
C 	C 	0.55963 0.18264 0.60688 0.10600
N 	N 	0.62089 0.20446 0.63431 -0.09600
N 	N 	0.37400 0.10185 0.63946 -0.10000
N 	N 	0.44215 0.14673 0.44115 -0.09300
C 	C 	0.76641 0.28578 0.00604 0.00200
C 	C 	0.70256 0.19882 0.00131 -0.02300
C 	C 	0.73375 0.15177 0.00777 0.01000
C 	C 	0.82799 0.19374 0.01535 -0.05500
C 	C 	0.88725 0.28581 0.00826 0.00200
C 	C 	0.85776 0.33220 0.00484 -0.02200
C 	C 	0.60593 0.16084 0.98640 0.11900
C 	C 	0.97323 0.33307 0.99947 0.12500
C 	C 	0.91703 0.42709 0.99476 0.11900
C 	C 	0.66920 0.06004 0.00722 0.12000
N 	N 	0.96458 0.50293 0.98645 -0.09300
N 	N 	0.61768 0.98675 0.00686 -0.11700
N 	N 	0.52877 0.13048 0.97449 -0.09700
C 	C 	0.81939 0.53763 0.01945 0.01000
C 	C 	0.91324 0.58651 0.03804 -0.03700
C 	C 	0.95872 0.67208 0.03978 0.04600
C 	C 	0.90741 0.70100 0.03197 -0.07800
C 	C 	0.81392 0.65302 0.01287 0.02900
C 	C 	0.77211 0.57523 0.00370 -0.03200
C 	C 	0.96255 0.54822 0.05674 0.13600
C 	C 	0.76170 0.68534 0.00103 0.08500
C 	C 	0.68186 0.53546 0.97715 0.11700
N 	N 	0.60986 0.50423 0.95585 -0.09800
N 	N 	0.72004 0.71116 0.99157 -0.09300
C 	C 	0.54725 0.24363 0.04924 0.00100
C 	C 	0.53690 0.19881 0.08922 -0.02200
C 	C 	0.46097 0.16870 0.09924 0.02200
C 	C 	0.39188 0.17672 0.06875 -0.07100
C 	C 	0.40848 0.23107 0.03059 0.02000
C 	C 	0.47983 0.25558 0.01947 -0.02900
C 	C 	0.60405 0.18363 0.11988 0.11100
C 	C 	0.48134 0.28856 0.97737 0.11900
C 	C 	0.45930 0.13977 0.14099 0.10000
N 	N 	0.48233 0.31449 0.94371 -0.09600
N 	N 	0.45863 0.11770 0.17441 -0.08800
N 	N 	0.65766 0.17147 0.14433 -0.09500
