data_crystal

_cell_length_a 20.73894
_cell_length_b 21.35881
_cell_length_c 39.04451
_cell_angle_alpha 60.72432
_cell_angle_beta  118.96820
_cell_angle_gamma 133.33603

_symmetry_space_group_name_	'P 1'
_symmetry_space_group_name_H-M	'P 1'

loop_
_symmetry_equiv_pos_as_xyz
  x,y,z

loop_
_atom_site_label
_atom_site_type_symbol
_atom_site_fract_x
_atom_site_fract_y
_atom_site_fract_z
_atom_site_charge
Co	Co	0.06266 0.99882 0.04649 1.18600
Co	Co	0.05981 0.84536 0.04463 1.17000
C 	C 	0.23448 0.02098 0.05854 0.30400
O 	O 	0.06909 0.10451 0.03887 -0.45300
C 	C 	0.07657 0.21083 0.10956 0.31200
C 	C 	0.09455 0.76620 0.13257 0.32100
O 	O 	0.05177 0.74712 0.09750 -0.39700
O 	O 	0.08568 0.81277 0.14092 -0.37300
O 	O 	0.09766 0.17023 0.10451 -0.37400
O 	O 	0.02564 0.89151 0.06509 -0.76400
O 	O 	0.19533 0.93525 0.06795 -0.37600
O 	O 	0.20042 0.05074 0.06308 -0.38100
Co	Co	0.08452 0.05416 0.53817 1.18500
Co	Co	0.12157 0.92867 0.53781 1.17500
C 	C 	0.27201 0.10998 0.54847 0.31400
O 	O 	0.03581 0.09005 0.67903 -0.38500
C 	C 	0.03124 0.02003 0.70555 0.28400
O 	O 	0.06649 0.14467 0.52814 -0.44000
C 	C 	0.07938 0.24451 0.60286 0.31500
C 	C 	0.15307 0.84089 0.62521 0.32300
O 	O 	0.02536 0.96555 0.69451 -0.35800
O 	O 	0.12154 0.83078 0.58888 -0.39800
O 	O 	0.13002 0.87399 0.63483 -0.36600
O 	O 	0.10282 0.20821 0.59605 -0.36800
O 	O 	0.06856 0.95486 0.55904 -0.75500
O 	O 	0.24853 0.02846 0.56182 -0.37000
O 	O 	0.22636 0.12920 0.55157 -0.36800
C 	C 	0.04983 0.04225 0.86769 -0.04400
C 	C 	0.04545 0.04793 0.90096 0.01000
C 	C 	0.11621 0.12063 0.84412 0.11500
C 	C 	0.01113 0.99182 0.74485 -0.06400
C 	C 	0.05346 0.95725 0.78160 0.03000
C 	C 	0.11112 0.94169 0.78136 0.10500
C 	C 	0.10131 0.13308 0.90969 0.11200
N 	N 	0.16912 0.18312 0.82525 -0.09100
N 	N 	0.14588 0.20110 0.91667 -0.08600
C 	C 	0.02320 0.92974 0.28326 0.02100
C 	C 	0.07559 0.08314 0.39313 0.04400
C 	C 	0.06312 0.05873 0.36157 -0.06500
C 	C 	0.14809 0.17306 0.39797 0.08700
C 	C 	0.12372 0.12335 0.33419 0.11400
N 	N 	0.20597 0.24484 0.40186 -0.08900
N 	N 	0.17196 0.17478 0.31230 -0.09700
C 	C 	0.21237 0.48545 0.59475 -0.05900
C 	C 	0.14798 0.32825 0.61597 -0.08200
C 	C 	0.18161 0.41002 0.58697 0.13900
Br	Br	0.19032 0.42107 0.53735 -0.18100
H 	H 	0.23904 0.54826 0.57229 0.08900
C 	C 	0.15948 0.71345 0.67062 -0.01800
C 	C 	0.20687 0.80612 0.65557 -0.08000
C 	C 	0.29768 0.85604 0.65406 0.13400
C 	C 	0.27584 0.72101 0.66356 -0.01300
C 	C 	0.19277 0.67031 0.67428 0.10200
Br	Br	0.12842 0.54467 0.69773 -0.17300
H 	H 	0.09370 0.67425 0.67668 0.08300
C 	C 	0.14718 0.29654 0.12102 -0.08100
C 	C 	0.17994 0.29658 0.16210 0.13400
C 	C 	0.20205 0.36301 0.17385 -0.06000
H 	H 	0.22781 0.36254 0.20559 0.08300
C 	C 	0.17356 0.62594 0.18199 -0.06000
C 	C 	0.24422 0.67842 0.16242 -0.01400
C 	C 	0.24622 0.80558 0.14642 -0.02400
C 	C 	0.16434 0.74919 0.15841 -0.08300
C 	C 	0.13538 0.66184 0.18089 0.13700
Br	Br	0.04630 0.59221 0.21126 -0.18400
H 	H 	0.14838 0.55757 0.19811 0.08300
H 	H 	0.27539 0.87546 0.13309 0.07800
Br	Br	0.26816 0.09553 0.97105 -0.20200
C 	C 	0.28132 0.63830 0.16215 0.15100
N 	N 	0.22401 0.55515 0.15572 -0.12600
C 	C 	0.25961 0.51886 0.15677 0.15200
C 	C 	0.30822 0.67871 0.66084 0.15100
C 	C 	0.27900 0.56636 0.64481 0.15500
N 	N 	0.24750 0.60067 0.64909 -0.11600
C 	C 	0.21625 0.48218 0.63255 -0.01500
C 	C 	0.18649 0.40121 0.66223 0.10200
C 	C 	0.15411 0.32554 0.65411 -0.02100
H 	H 	0.12856 0.26305 0.67678 0.07200
C 	C 	0.33033 0.81425 0.65598 -0.05900
C 	C 	0.15318 0.37193 0.09211 -0.02100
C 	C 	0.20089 0.43519 0.14477 -0.02100
C 	C 	0.17424 0.43806 0.10357 0.10400
H 	H 	0.13751 0.37734 0.06053 0.08400
C 	C 	0.28209 0.77015 0.14515 0.10200
C 	C 	0.35879 0.19201 0.49729 -0.02300
C 	C 	0.35721 0.18137 0.53538 -0.08600
H 	H 	0.29564 0.16371 0.47476 0.07100
C 	C 	0.33076 0.08103 0.05742 -0.08500
C 	C 	0.35429 0.10618 0.02221 0.13500
C 	C 	0.01792 0.96136 0.96973 0.29000
O 	O 	0.07399 0.93913 0.99022 -0.37300
O 	O 	0.00331 0.99023 0.98648 -0.36100
C 	C 	0.05854 0.02677 0.46298 0.31800
O 	O 	0.12734 0.02231 0.48385 -0.41200
O 	O 	0.02517 0.03722 0.47955 -0.37800
C 	C 	0.01923 0.01950 0.42077 -0.10800
C 	C 	0.07595 0.90820 0.28325 0.10900
N 	N 	0.11813 0.89100 0.28329 -0.08700
N 	N 	0.15720 0.92924 0.78121 -0.08600
Co	Co	0.01815 0.87987 0.59796 1.18400
C 	C 	0.02286 0.92668 0.32031 -0.04100
C 	C 	0.07486 0.90189 0.35810 0.11400
N 	N 	0.11635 0.88210 0.38832 -0.09700
Br	Br	0.19230 0.39318 0.71468 -0.17600
N 	N 	0.35072 0.56541 0.16382 -0.13000
C 	C 	0.04340 0.94242 0.81889 -0.04200
C 	C 	0.09210 0.91359 0.85671 0.11600
N 	N 	0.13096 0.89059 0.88694 -0.09000
Br	Br	0.16935 0.53371 0.06239 -0.17900
Br	Br	0.20638 0.21368 0.20195 -0.20000
O 	O 	0.00292 0.05513 0.18046 -0.39000
Co	Co	0.00248 0.10095 0.56920 1.18600
Co	Co	0.99676 0.06878 0.07418 1.18700
O 	O 	0.99105 0.17643 0.10298 -0.38500
C 	C 	0.99267 0.98259 0.20682 0.32200
C 	C 	0.98642 0.97052 0.92578 -0.03300
O 	O 	0.99476 0.20115 0.60245 -0.38200
Br	Br	0.37559 0.98231 0.64597 -0.17500
Br	Br	0.97581 0.30725 0.99984 -0.17300
N 	N 	0.90342 0.10208 0.68408 -0.14100
C 	C 	0.95507 0.00692 0.74616 0.02300
C 	C 	0.92641 0.05974 0.71145 0.06600
C 	C 	0.99163 0.97133 0.35661 0.05300
O 	O 	0.99028 0.92854 0.19731 -0.35300
C 	C 	0.97596 0.95840 0.24628 -0.05400
C 	C 	0.98948 0.95991 0.85743 0.04200
C 	C 	0.92234 0.97660 0.24732 0.04700
Br	Br	0.44130 0.21841 0.61414 -0.17800
C 	C 	0.93492 0.97880 0.78270 -0.01900
C 	C 	0.86440 0.97783 0.78286 0.11600
N 	N 	0.80817 0.97700 0.78303 -0.09200
C 	C 	0.91483 0.96356 0.28448 -0.03400
C 	C 	0.88318 0.01799 0.21078 0.06300
C 	C 	0.85157 0.97138 0.28549 0.11800
N 	N 	0.85210 0.05165 0.18197 -0.13300
N 	N 	0.80117 0.97758 0.28634 -0.09200
C 	C 	0.98635 0.95645 0.81925 0.03700
C 	C 	0.97261 0.94883 0.32046 0.03600
H 	H 	0.39733 0.85461 0.65078 0.09200
Br	Br	0.37326 0.84607 0.11475 -0.17300
C 	C 	0.43952 0.22061 0.56397 0.14800
H 	H 	0.37900 0.07213 0.12143 0.07100
C 	C 	0.71060 0.24889 0.03217 0.14500
N 	N 	0.76368 0.33429 0.03497 -0.12500
C 	C 	0.73701 0.35637 0.05062 0.14900
N 	N 	0.65843 0.29386 0.06319 -0.12700
C 	C 	0.60420 0.21030 0.05923 0.15300
N 	N 	0.63168 0.18714 0.04498 -0.12200
C 	C 	0.71731 0.29872 0.51564 0.15100
N 	N 	0.62901 0.26519 0.50889 -0.11500
C 	C 	0.60915 0.31137 0.51139 0.16000
N 	N 	0.67647 0.39467 0.51628 -0.13100
C 	C 	0.76436 0.42942 0.52265 0.15400
N 	N 	0.78557 0.38142 0.52276 -0.12800
C 	C 	0.40684 0.64953 0.16729 0.15400
N 	N 	0.37286 0.68480 0.16820 -0.11700
N 	N 	0.39919 0.72377 0.66564 -0.12800
C 	C 	0.42924 0.69072 0.65966 0.15500
N 	N 	0.36940 0.61143 0.65040 -0.12900
Co	Co	0.97857 0.82584 0.10514 1.19700
Co	Co	0.93025 0.90265 0.13937 1.18900
C 	C 	0.87323 0.69576 0.05254 0.30400
Co	Co	0.90191 0.04476 0.12919 1.17700
O 	O 	0.94152 0.99988 0.11163 -0.74200
O 	O 	0.93465 0.80179 0.14985 -0.42900
O 	O 	0.96829 0.93889 0.08387 -0.56800
C 	C 	0.75760 0.84803 0.14372 0.32800
O 	O 	0.81090 0.91680 0.15862 -0.38200
O 	O 	0.79142 0.82978 0.13176 -0.37000
C 	C 	0.83770 0.08660 0.04110 0.30100
O 	O 	0.80911 0.03059 0.07447 -0.38600
O 	O 	0.90304 0.10069 0.03274 -0.35000
O 	O 	0.92156 0.76105 0.02549 -0.38100
O 	O 	0.87279 0.71235 0.08139 -0.34000
Co	Co	0.95693 0.93775 0.63650 1.19300
C 	C 	0.93883 0.76310 0.54364 0.30700
Co	Co	0.92248 0.06957 0.63321 1.18000
O 	O 	0.95978 0.03119 0.61030 -0.75500
O 	O 	0.96593 0.84252 0.64292 -0.42600
O 	O 	0.99095 0.98031 0.57863 -0.56200
C 	C 	0.78855 0.87279 0.65013 0.32700
O 	O 	0.84414 0.94035 0.66608 -0.38000
O 	O 	0.81908 0.85815 0.63413 -0.36600
C 	C 	0.83535 0.09950 0.54704 0.30200
O 	O 	0.81743 0.04645 0.58266 -0.38400
O 	O 	0.89323 0.11293 0.53342 -0.34100
O 	O 	0.98791 0.83319 0.51754 -0.37700
O 	O 	0.92529 0.77163 0.57098 -0.34000
C 	C 	0.92131 0.88547 0.87902 -0.03000
C 	C 	0.91666 0.89298 0.91159 0.01400
C 	C 	0.83850 0.82299 0.92939 0.10100
C 	C 	0.85653 0.80155 0.86782 0.11300
N 	N 	0.77571 0.76738 0.94343 -0.09100
N 	N 	0.80484 0.73459 0.85886 -0.08500
C 	C 	0.92948 0.91059 0.38180 -0.04900
C 	C 	0.94057 0.93683 0.41230 0.05400
C 	C 	0.85420 0.82160 0.37619 0.11600
C 	C 	0.87098 0.87929 0.43474 0.09200
N 	N 	0.81528 0.83337 0.45261 -0.09000
N 	N 	0.79403 0.75065 0.37162 -0.08800
C 	C 	0.62935 0.82117 0.61698 -0.01700
C 	C 	0.69271 0.81241 0.65170 -0.09000
C 	C 	0.67013 0.76724 0.68952 0.14300
C 	C 	0.58637 0.73421 0.69240 -0.06000
C 	C 	0.52409 0.74505 0.65780 -0.01800
C 	C 	0.54636 0.78963 0.61997 0.10300
Br	Br	0.46438 0.80895 0.57206 -0.19100
H 	H 	0.64703 0.85759 0.58792 0.07400
H 	H 	0.56862 0.69782 0.72144 0.08800
Br	Br	0.75431 0.75229 0.73780 -0.19300
C 	C 	0.59435 0.78228 0.11593 -0.01500
C 	C 	0.66438 0.78217 0.14889 -0.09100
C 	C 	0.64944 0.73967 0.18817 0.14500
C 	C 	0.56750 0.70339 0.19431 -0.06200
C 	C 	0.49877 0.70660 0.16145 -0.01300
C 	C 	0.51225 0.74574 0.12200 0.10300
Br	Br	0.41855 0.74863 0.07592 -0.16300
H 	H 	0.60569 0.81548 0.08566 0.07200
H 	H 	0.55611 0.67014 0.22456 0.08600
Br	Br	0.74158 0.73263 0.23393 -0.19700
C 	C 	0.81652 0.28717 0.50327 -0.05700
C 	C 	0.73923 0.24458 0.51616 -0.01400
C 	C 	0.68318 0.15048 0.52899 0.10300
C 	C 	0.70499 0.10212 0.52817 -0.02100
C 	C 	0.79047 0.14525 0.52270 -0.07900
C 	C 	0.84249 0.23812 0.50659 0.13600
Br	Br	0.94541 0.29866 0.48664 -0.17300
H 	H 	0.85712 0.35848 0.49108 0.09300
H 	H 	0.66162 0.03025 0.53806 0.07900
Br	Br	0.58734 0.08669 0.55485 -0.18900
C 	C 	0.87418 0.66695 0.50123 -0.02100
C 	C 	0.89208 0.67415 0.53932 -0.08000
C 	C 	0.88458 0.60300 0.57344 0.13800
C 	C 	0.85820 0.52655 0.56869 -0.05800
C 	C 	0.83521 0.51814 0.53019 -0.01900
C 	C 	0.85078 0.59172 0.49712 0.10300
Br	Br	0.83266 0.58735 0.44504 -0.18100
H 	H 	0.88124 0.72131 0.47484 0.07600
H 	H 	0.84740 0.47030 0.59452 0.08700
Br	Br	0.90368 0.60501 0.62627 -0.20000
C 	C 	0.52115 0.26070 0.55620 -0.05600
C 	C 	0.52180 0.26490 0.51933 -0.01500
C 	C 	0.44059 0.23299 0.48924 0.10600
H 	H 	0.58431 0.28854 0.57887 0.08800
Br	Br	0.43982 0.24459 0.43710 -0.18300
C 	C 	0.70943 0.09927 0.00611 -0.01700
C 	C 	0.80351 0.14170 0.01540 -0.08200
C 	C 	0.86259 0.23256 0.01435 0.12900
C 	C 	0.83244 0.27076 0.01808 -0.06100
C 	C 	0.73975 0.22183 0.01656 -0.01200
C 	C 	0.67708 0.14046 0.00502 0.09400
Br	Br	0.54979 0.09111 0.98243 -0.16500
H 	H 	0.66165 0.03218 0.00230 0.07200
H 	H 	0.88062 0.33791 0.02181 0.09000
C 	C 	0.79981 0.58612 0.01548 -0.03700
C 	C 	0.82589 0.60317 0.05234 -0.07600
C 	C 	0.82823 0.53957 0.08862 0.13600
C 	C 	0.81494 0.46638 0.08782 -0.05700
C 	C 	0.78782 0.44900 0.05097 -0.01700
C 	C 	0.78179 0.51044 0.01467 0.09700
Br	Br	0.74526 0.49054 0.96337 -0.16900
H 	H 	0.79658 0.63351 0.98731 0.09100
H 	H 	0.81672 0.41796 0.11586 0.09000
Br	Br	0.83414 0.54236 0.13849 -0.17400
C 	C 	0.44212 0.14079 0.02404 -0.07000
C 	C 	0.50847 0.15368 0.06043 -0.00900
C 	C 	0.48553 0.12925 0.09567 0.10200
C 	C 	0.39719 0.09375 0.09395 -0.01400
H 	H 	0.46005 0.16163 0.99661 0.10700
Br	Br	0.57294 0.14050 0.14669 -0.18700
