data_crystal

_cell_length_a 18.62410
_cell_length_b 18.78479
_cell_length_c 26.38044
_cell_angle_alpha 95.44485
_cell_angle_beta  95.44411
_cell_angle_gamma 126.36542

_symmetry_space_group_name_	'P 1'
_symmetry_space_group_name_H-M	'P 1'

loop_
_symmetry_equiv_pos_as_xyz
  x,y,z

loop_
_atom_site_label
_atom_site_type_symbol
_atom_site_fract_x
_atom_site_fract_y
_atom_site_fract_z
_atom_site_charge
C 	C 	0.95466 0.04122 0.00087 0.09300
N 	N 	0.04538 0.08590 0.00235 -0.12600
C 	C 	0.07967 0.03894 0.99883 0.09100
N 	N 	0.02323 0.94800 0.99310 -0.12400
C 	C 	0.93299 0.90348 0.99110 0.10700
N 	N 	0.89889 0.95014 0.99517 -0.13200
C 	C 	0.92127 0.00609 0.45407 0.08700
N 	N 	0.00697 0.04868 0.44482 -0.13100
C 	C 	0.04567 0.00630 0.44373 0.10700
N 	N 	0.99754 0.91973 0.45016 -0.13600
C 	C 	0.91195 0.87587 0.45944 0.11100
N 	N 	0.87318 0.91898 0.46150 -0.12800
Cu	Cu	0.62169 0.20773 0.01044 0.92700
Cu	Cu	0.68548 0.21546 0.89834 0.86400
Cu	Cu	0.65103 0.34081 0.94191 0.89500
Cu	Cu	0.62971 0.37620 0.04919 0.89600
C 	C 	0.66000 0.27758 0.11920 0.29500
O 	O 	0.49088 0.15751 0.01531 -0.36100
C 	C 	0.62632 0.28758 0.82975 0.28600
O 	O 	0.69380 0.34707 0.01276 -0.63800
O 	O 	0.59952 0.21178 0.93660 -0.64400
O 	O 	0.67955 0.14620 0.00338 -0.36900
O 	O 	0.77467 0.24277 0.95457 -0.44200
O 	O 	0.61723 0.31179 0.10767 -0.38700
O 	O 	0.71063 0.46842 0.94802 -0.39000
C 	C 	0.72045 0.52368 0.98791 0.29000
C 	C 	0.45543 0.19675 0.99891 0.27700
O 	O 	0.50908 0.27985 0.99144 -0.40200
O 	O 	0.68471 0.49540 0.02939 -0.39200
O 	O 	0.66296 0.22599 0.08325 -0.36700
C 	C 	0.75503 0.18429 0.98477 0.28200
O 	O 	0.61554 0.33017 0.86751 -0.37800
O 	O 	0.62590 0.21861 0.83630 -0.42200
H 	H 	0.76065 0.38771 0.02399 0.16400
H 	H 	0.53548 0.16955 0.91832 0.17300
Cu	Cu	0.76211 0.34900 0.44717 0.92400
Cu	Cu	0.73188 0.26168 0.55194 0.86500
Cu	Cu	0.61061 0.29867 0.50653 0.89600
Cu	Cu	0.59127 0.33673 0.40105 0.89600
C 	C 	0.70725 0.32445 0.33761 0.29400
O 	O 	0.80911 0.48055 0.44974 -0.35800
C 	C 	0.64828 0.30847 0.61923 0.28800
O 	O 	0.61921 0.27081 0.43610 -0.63800
O 	O 	0.74240 0.35474 0.51898 -0.64300
O 	O 	0.82525 0.29200 0.45459 -0.36900
O 	O 	0.71588 0.18426 0.49291 -0.44300
O 	O 	0.66970 0.36394 0.34836 -0.38800
O 	O 	0.48057 0.23542 0.49291 -0.38700
C 	C 	0.42975 0.22216 0.44914 0.29400
C 	C 	0.76103 0.50775 0.46323 0.27800
O 	O 	0.67520 0.44803 0.46523 -0.39800
O 	O 	0.46499 0.27038 0.41284 -0.39600
O 	O 	0.75931 0.32308 0.37442 -0.36500
C 	C 	0.78267 0.21205 0.46767 0.28600
O 	O 	0.60605 0.31826 0.58042 -0.37800
O 	O 	0.71885 0.30970 0.61448 -0.42300
H 	H 	0.58213 0.20570 0.42142 0.16100
H 	H 	0.78071 0.41552 0.54107 0.17400
C 	C 	0.69467 0.38844 0.70996 -0.04100
C 	C 	0.62787 0.31392 0.67141 -0.09300
C 	C 	0.55039 0.23846 0.68541 0.09900
C 	C 	0.54701 0.23442 0.73812 -0.04100
C 	C 	0.61925 0.30456 0.77676 -0.09300
C 	C 	0.69128 0.38460 0.76267 0.09800
N 	N 	0.75856 0.45683 0.79937 -0.20100
H 	H 	0.75219 0.44774 0.69901 0.04400
H 	H 	0.48995 0.17469 0.74903 0.04400
N 	N 	0.48019 0.16894 0.64861 -0.20100
H 	H 	0.81255 0.51471 0.78851 0.08000
H 	H 	0.75723 0.45719 0.83883 0.08600
H 	H 	0.47886 0.17150 0.60921 0.08500
H 	H 	0.42454 0.11221 0.65931 0.07900
C 	C 	0.63446 0.22071 0.25292 -0.04800
C 	C 	0.70966 0.30266 0.28305 -0.09400
C 	C 	0.77739 0.36914 0.25864 0.11200
C 	C 	0.76363 0.35596 0.20423 -0.04700
C 	C 	0.68362 0.27797 0.17411 -0.09200
C 	C 	0.62027 0.20774 0.19853 0.11100
N 	N 	0.54475 0.12888 0.17015 -0.20000
H 	H 	0.58401 0.16878 0.27180 0.03600
H 	H 	0.81335 0.40853 0.18538 0.03800
N 	N 	0.85471 0.44630 0.28708 -0.20000
H 	H 	0.49734 0.07833 0.18859 0.08200
H 	H 	0.53299 0.11619 0.12970 0.10000
H 	H 	0.86859 0.45664 0.32748 0.10200
H 	H 	0.90317 0.49616 0.26873 0.08500
C 	C 	0.91154 0.76177 0.50065 -0.04500
C 	C 	0.86368 0.78297 0.46915 -0.00100
C 	C 	0.77945 0.71288 0.43811 -0.04600
C 	C 	0.74616 0.62313 0.43622 0.00800
C 	C 	0.79705 0.60260 0.46518 -0.08000
C 	C 	0.87901 0.67222 0.49810 0.00600
H 	H 	0.97628 0.81517 0.52522 0.04400
H 	H 	0.74193 0.72794 0.41348 0.04600
H 	H 	0.68190 0.56971 0.41125 0.02300
H 	H 	0.91770 0.65718 0.52162 0.02800
C 	C 	0.94409 0.15209 0.47408 -0.06800
C 	C 	0.88405 0.05746 0.45966 0.01400
C 	C 	0.79038 0.01412 0.44637 -0.07400
C 	C 	0.75744 0.06485 0.44741 0.01600
C 	C 	0.81792 0.15945 0.46105 -0.09500
C 	C 	0.91131 0.20257 0.47411 0.01300
H 	H 	0.01641 0.18671 0.48522 0.05800
H 	H 	0.74318 0.94159 0.43463 0.06100
H 	H 	0.68501 0.03060 0.43761 0.02500
H 	H 	0.95852 0.27515 0.48572 0.02600
C 	C 	0.28886 0.09054 0.47090 0.01500
C 	C 	0.33055 0.16323 0.44472 -0.08800
C 	C 	0.27733 0.18087 0.41563 0.01100
C 	C 	0.18384 0.12795 0.41403 -0.05100
C 	C 	0.14265 0.05709 0.44161 0.00600
C 	C 	0.19550 0.03788 0.46946 -0.06700
H 	H 	0.32895 0.07538 0.49282 0.02500
H 	H 	0.30858 0.23667 0.39513 0.03600
H 	H 	0.14360 0.14265 0.39182 0.05000
H 	H 	0.16461 0.98349 0.49102 0.06200
C 	C 	0.80186 0.76392 0.01420 -0.04200
C 	C 	0.87286 0.80510 0.98630 -0.00400
C 	C 	0.88958 0.75244 0.95615 -0.04800
C 	C 	0.83827 0.66014 0.95561 0.00800
C 	C 	0.76956 0.61949 0.98514 -0.08700
C 	C 	0.75038 0.67157 0.01359 0.01200
H 	H 	0.78808 0.80380 0.03746 0.04900
H 	H 	0.94318 0.78326 0.93371 0.04600
H 	H 	0.85338 0.62069 0.93319 0.03000
H 	H 	0.69628 0.64072 0.03567 0.03600
C 	C 	0.79594 0.09637 0.02812 0.01400
C 	C 	0.81475 0.15719 0.99482 -0.09500
C 	C 	0.88851 0.18897 0.96908 0.00600
C 	C 	0.93869 0.15579 0.97393 -0.06000
C 	C 	0.91592 0.09065 0.00454 0.00900
C 	C 	0.84627 0.06341 0.03297 -0.05300
H 	H 	0.74113 0.07299 0.04938 0.03900
H 	H 	0.90536 0.23729 0.94407 0.02300
H 	H 	0.99253 0.17777 0.95203 0.04200
H 	H 	0.82919 0.01442 0.05756 0.04600
C 	C 	0.22517 0.14684 0.96962 -0.05900
C 	C 	0.17794 0.08592 0.00234 0.01500
C 	C 	0.22162 0.06013 0.03321 -0.05500
C 	C 	0.31101 0.09374 0.03079 0.01400
C 	C 	0.35812 0.15398 0.99766 -0.09100
C 	C 	0.31466 0.18045 0.96711 0.00800
H 	H 	0.19185 0.16623 0.94507 0.04700
H 	H 	0.18581 0.01309 0.05863 0.04800
H 	H 	0.34400 0.07400 0.05532 0.03500
H 	H 	0.35013 0.22697 0.94139 0.03300
