data_crystal

_cell_length_a 26.04839
_cell_length_b 26.23564
_cell_length_c 34.53496
_cell_angle_alpha 95.50400
_cell_angle_beta  95.50114
_cell_angle_gamma 125.83013

_symmetry_space_group_name_	'P 1'
_symmetry_space_group_name_H-M	'P 1'

loop_
_symmetry_equiv_pos_as_xyz
  x,y,z

loop_
_atom_site_label
_atom_site_type_symbol
_atom_site_fract_x
_atom_site_fract_y
_atom_site_fract_z
_atom_site_charge
C 	C 	0.93232 0.99073 0.99649 0.12900
N 	N 	0.98902 0.02457 0.98324 -0.13800
C 	C 	0.01996 0.99816 0.97628 0.12100
N 	N 	0.99343 0.93746 0.98165 -0.13900
C 	C 	0.93591 0.90284 0.99358 0.12900
N 	N 	0.90554 0.92959 0.00115 -0.14400
C 	C 	0.97227 0.02733 0.46680 0.13200
N 	N 	0.03629 0.06727 0.46645 -0.14800
C 	C 	0.07428 0.04877 0.47528 0.12600
N 	N 	0.04737 0.98851 0.48176 -0.14700
C 	C 	0.98311 0.94787 0.48151 0.13200
N 	N 	0.94563 0.96761 0.47446 -0.14500
Cu	Cu	0.59718 0.20123 0.99442 0.92900
Cu	Cu	0.65760 0.21370 0.91397 0.87000
Cu	Cu	0.62660 0.29920 0.94220 0.89700
Cu	Cu	0.59616 0.31923 0.02063 0.90200
C 	C 	0.61909 0.25307 0.07609 0.31100
O 	O 	0.50309 0.16399 0.99258 -0.36200
C 	C 	0.62012 0.26529 0.85758 0.30400
O 	O 	0.64765 0.30077 0.99738 -0.63800
O 	O 	0.58983 0.20709 0.93780 -0.64100
O 	O 	0.63563 0.15423 0.99269 -0.36700
O 	O 	0.71154 0.22448 0.95991 -0.43200
O 	O 	0.58530 0.27373 0.06559 -0.37100
O 	O 	0.66925 0.39038 0.94795 -0.36900
C 	C 	0.67366 0.42767 0.97871 0.30300
C 	C 	0.47778 0.18975 0.97616 0.29200
O 	O 	0.51498 0.25048 0.97339 -0.39500
O 	O 	0.63589 0.40419 0.00509 -0.38400
O 	O 	0.61854 0.21167 0.05079 -0.35800
C 	C 	0.68993 0.17795 0.97996 0.30300
O 	O 	0.60809 0.29378 0.88503 -0.36400
O 	O 	0.62310 0.21819 0.86394 -0.41500
H 	H 	0.69430 0.32977 0.00891 0.17400
H 	H 	0.54619 0.17740 0.92120 0.17500
Cu	Cu	0.75687 0.35852 0.45175 0.92400
Cu	Cu	0.75967 0.31199 0.53613 0.88600
Cu	Cu	0.66105 0.34247 0.50278 0.91000
Cu	Cu	0.65496 0.38512 0.42718 0.90100
C 	C 	0.70929 0.34670 0.37024 0.31000
O 	O 	0.81083 0.45521 0.45526 -0.35800
C 	C 	0.67580 0.32005 0.57955 0.31400
O 	O 	0.65973 0.32384 0.44787 -0.64000
O 	O 	0.75104 0.36887 0.50857 -0.63300
O 	O 	0.78049 0.29766 0.44907 -0.36600
O 	O 	0.82877 0.32532 0.51387 -0.41500
O 	O 	0.69677 0.38729 0.38136 -0.36900
O 	O 	0.57212 0.30968 0.49558 -0.38300
C 	C 	0.54480 0.32752 0.47196 0.30300
C 	C 	0.79227 0.48847 0.47092 0.29100
O 	O 	0.73187 0.45933 0.47468 -0.39600
O 	O 	0.57312 0.36103 0.44438 -0.38400
O 	O 	0.74570 0.33979 0.39512 -0.35400
C 	C 	0.81773 0.29714 0.47746 0.29800
O 	O 	0.66474 0.35345 0.55923 -0.38300
O 	O 	0.68552 0.28089 0.56126 -0.40900
H 	H 	0.62537 0.27880 0.43495 0.17400
H 	H 	0.78280 0.41344 0.52309 0.16400
C 	C 	0.61680 0.27689 0.81679 -0.09900
C 	C 	0.65672 0.33935 0.80874 0.14100
C 	C 	0.66053 0.34828 0.76951 -0.08600
C 	C 	0.62601 0.29549 0.73817 0.02200
C 	C 	0.58412 0.23337 0.74608 0.08400
C 	C 	0.57902 0.22447 0.78520 -0.01500
H 	H 	0.69256 0.39618 0.76347 0.07900
C 	C 	0.63999 0.30497 0.69796 0.02200
H 	H 	0.54738 0.17644 0.79113 0.06100
C 	C 	0.69493 0.31258 0.68843 -0.08800
C 	C 	0.70817 0.31956 0.65020 0.14900
C 	C 	0.66503 0.31710 0.62067 -0.10800
C 	C 	0.61093 0.31122 0.63053 -0.00900
C 	C 	0.59867 0.30589 0.66909 0.08400
H 	H 	0.72760 0.31337 0.71087 0.07900
H 	H 	0.57804 0.31018 0.60814 0.06100
Br	Br	0.53593 0.15983 0.70399 -0.22200
Br	Br	0.71022 0.41275 0.85079 -0.24600
Br	Br	0.78753 0.33669 0.63975 -0.30000
Br	Br	0.52551 0.30016 0.68181 -0.22500
C 	C 	0.69772 0.32286 0.32758 -0.09800
C 	C 	0.63657 0.29257 0.30377 0.14600
C 	C 	0.62828 0.27722 0.26264 -0.08400
C 	C 	0.68003 0.29015 0.24497 0.02300
C 	C 	0.74009 0.31674 0.26894 0.08200
C 	C 	0.74880 0.33328 0.31004 -0.01000
H 	H 	0.58168 0.25576 0.24432 0.08300
C 	C 	0.67237 0.28089 0.20138 0.02300
H 	H 	0.79567 0.35555 0.32824 0.06800
C 	C 	0.69614 0.33391 0.18286 -0.08400
C 	C 	0.68254 0.32548 0.14162 0.14600
C 	C 	0.64331 0.26328 0.11852 -0.10100
C 	C 	0.62247 0.21046 0.13687 -0.01000
C 	C 	0.63706 0.21904 0.17815 0.08100
H 	H 	0.72447 0.38170 0.20061 0.08300
H 	H 	0.59328 0.16257 0.11921 0.06600
Br	Br	0.81065 0.33065 0.24604 -0.21800
Br	Br	0.56321 0.26952 0.32696 -0.27700
Br	Br	0.71939 0.39958 0.11727 -0.27500
Br	Br	0.60824 0.14587 0.20229 -0.22000
C 	C 	0.95376 0.88158 0.48717 -0.05200
C 	C 	0.98254 0.86880 0.51785 0.10800
C 	C 	0.96311 0.80615 0.51690 -0.08600
C 	C 	0.91175 0.75538 0.48796 -0.00700
C 	C 	0.87809 0.76718 0.45998 0.07300
C 	C 	0.90064 0.83049 0.45920 -0.05200
N 	N 	0.02689 0.91583 0.54895 -0.20200
H 	H 	0.98717 0.79669 0.53925 0.05700
C 	C 	0.89297 0.68990 0.48768 0.00400
N 	N 	0.82419 0.71817 0.43404 -0.19400
H 	H 	0.87743 0.84004 0.43633 0.05100
C 	C 	0.86119 0.65706 0.51723 -0.09800
C 	C 	0.83562 0.59243 0.51511 0.12700
C 	C 	0.83770 0.55902 0.48132 -0.11100
C 	C 	0.87488 0.59332 0.45382 -0.02400
C 	C 	0.90385 0.65903 0.45719 0.06100
H 	H 	0.85590 0.68171 0.54175 0.05900
N 	N 	0.81035 0.56305 0.54582 -0.20200
H 	H 	0.87893 0.56837 0.42880 0.05200
N 	N 	0.94135 0.69190 0.43098 -0.19200
H 	H 	0.80618 0.58702 0.56984 0.08800
H 	H 	0.79804 0.51764 0.54716 0.08500
H 	H 	0.94724 0.66826 0.40773 0.09000
H 	H 	0.96671 0.74142 0.43418 0.09200
H 	H 	0.80102 0.72753 0.41266 0.08700
H 	H 	0.80343 0.67045 0.43566 0.09000
H 	H 	0.03546 0.96033 0.55351 0.09300
H 	H 	0.05037 0.90684 0.57038 0.08700
C 	C 	0.83519 0.25331 0.47012 -0.11100
C 	C 	0.78736 0.18595 0.46099 0.12500
C 	C 	0.80618 0.14573 0.45603 -0.09600
C 	C 	0.87153 0.17113 0.46258 0.00500
C 	C 	0.91933 0.23836 0.47128 0.06100
C 	C 	0.90054 0.27879 0.47481 -0.01800
N 	N 	0.72368 0.15956 0.45841 -0.20100
H 	H 	0.76980 0.09423 0.44905 0.06000
C 	C 	0.88922 0.12679 0.46287 -0.00700
N 	N 	0.98313 0.26434 0.47652 -0.18800
H 	H 	0.93699 0.33028 0.48179 0.04600
C 	C 	0.89939 0.10545 0.42768 -0.08500
C 	C 	0.92121 0.06755 0.42757 0.10300
C 	C 	0.93374 0.05155 0.46346 -0.05100
C 	C 	0.91899 0.06887 0.49798 -0.05200
C 	C 	0.89711 0.10670 0.49817 0.07300
H 	H 	0.89132 0.11923 0.40044 0.05900
N 	N 	0.92962 0.04637 0.39297 -0.19900
H 	H 	0.92758 0.05554 0.52530 0.04900
N 	N 	0.88485 0.12438 0.53236 -0.19400
H 	H 	0.92219 0.05999 0.36678 0.08900
H 	H 	0.94148 0.01457 0.39147 0.09400
H 	H 	0.89150 0.10984 0.55833 0.08700
H 	H 	0.86824 0.15220 0.53356 0.09100
H 	H 	0.01804 0.31399 0.48343 0.08200
H 	H 	0.99880 0.23580 0.47345 0.09200
H 	H 	0.70817 0.18728 0.46596 0.07200
H 	H 	0.68883 0.11000 0.45029 0.08700
C 	C 	0.47852 0.30512 0.47436 -0.11000
C 	C 	0.45730 0.29726 0.51105 0.13500
C 	C 	0.39104 0.25727 0.51134 -0.10000
C 	C 	0.34596 0.23055 0.47590 0.00600
C 	C 	0.36750 0.24759 0.43991 0.06000
C 	C 	0.43368 0.28310 0.43926 -0.02200
N 	N 	0.50012 0.32967 0.54587 -0.20300
H 	H 	0.37451 0.24713 0.53920 0.06400
C 	C 	0.27671 0.18278 0.47669 -0.00800
N 	N 	0.32503 0.22959 0.40603 -0.19100
H 	H 	0.45000 0.29173 0.41125 0.05100
C 	C 	0.24450 0.20273 0.49574 -0.08400
C 	C 	0.17989 0.15831 0.49890 0.10200
C 	C 	0.14476 0.09428 0.47839 -0.05000
C 	C 	0.17703 0.07418 0.45951 -0.05400
C 	C 	0.24337 0.11723 0.45994 0.07500
H 	H 	0.27064 0.25252 0.50965 0.05600
N 	N 	0.15306 0.17645 0.52331 -0.19800
H 	H 	0.15056 0.02478 0.44467 0.05100
N 	N 	0.27481 0.09527 0.44480 -0.19400
H 	H 	0.17774 0.22460 0.53615 0.08600
H 	H 	0.11017 0.14269 0.53230 0.09300
H 	H 	0.24928 0.04736 0.43113 0.08800
H 	H 	0.32492 0.12456 0.44787 0.09400
H 	H 	0.34111 0.24023 0.37929 0.08900
H 	H 	0.27617 0.20710 0.40614 0.09000
H 	H 	0.54846 0.36690 0.54649 0.10100
H 	H 	0.48444 0.32077 0.57285 0.09900
C 	C 	0.90253 0.83403 0.99290 -0.04900
C 	C 	0.88227 0.80722 0.02702 0.10200
C 	C 	0.84521 0.74057 0.02404 -0.08500
C 	C 	0.83059 0.70079 0.98817 -0.00800
C 	C 	0.85300 0.72784 0.95445 0.07400
C 	C 	0.88859 0.79427 0.95717 -0.05300
N 	N 	0.89966 0.84513 0.06282 -0.19900
H 	H 	0.82854 0.71963 0.04990 0.05700
C 	C 	0.79087 0.63077 0.98612 0.00700
N 	N 	0.84047 0.69040 0.91946 -0.19500
H 	H 	0.90474 0.81505 0.93119 0.05000
C 	C 	0.72376 0.59455 0.97491 -0.09800
C 	C 	0.68458 0.52768 0.97086 0.13700
C 	C 	0.71321 0.49696 0.97966 -0.10300
C 	C 	0.78031 0.53314 0.99077 -0.01800
C 	C 	0.81961 0.59992 0.99416 0.06300
H 	H 	0.70207 0.61840 0.96848 0.06100
N 	N 	0.61992 0.49330 0.95773 -0.20300
H 	H 	0.80201 0.50930 0.99723 0.04200
N 	N 	0.88468 0.63399 0.00506 -0.19100
H 	H 	0.59911 0.51658 0.95228 0.09000
H 	H 	0.58998 0.44334 0.95165 0.10100
H 	H 	0.90538 0.61069 0.01079 0.09000
H 	H 	0.91534 0.68372 0.00802 0.09200
H 	H 	0.85696 0.71087 0.89470 0.08900
H 	H 	0.81477 0.64088 0.91646 0.09800
H 	H 	0.93220 0.89490 0.06691 0.09500
H 	H 	0.88261 0.82476 0.08752 0.08900
C 	C 	0.89623 0.01752 0.00159 -0.04900
C 	C 	0.92765 0.08194 0.02016 0.10100
C 	C 	0.89382 0.10836 0.01835 -0.08300
C 	C 	0.82775 0.06989 0.00211 -0.00900
C 	C 	0.79484 0.00384 0.98746 0.07400
C 	C 	0.82978 0.97875 0.98622 -0.05300
N 	N 	0.98890 0.11754 0.04125 -0.19200
H 	H 	0.91859 0.15862 0.03045 0.05700
C 	C 	0.79471 0.10015 0.99743 0.00500
N 	N 	0.72980 0.96432 0.97469 -0.19400
H 	H 	0.80521 0.92897 0.97292 0.05300
C 	C 	0.78098 0.10966 0.95971 -0.09500
C 	C 	0.74249 0.13022 0.95281 0.12100
C 	C 	0.72362 0.14868 0.98522 -0.11200
C 	C 	0.73871 0.14075 0.02320 -0.02000
C 	C 	0.77309 0.11547 0.02955 0.06100
H 	H 	0.79703 0.09722 0.93513 0.05900
N 	N 	0.72093 0.12873 0.91494 -0.19900
H 	H 	0.72362 0.15422 0.04791 0.05400
N 	N 	0.78455 0.10552 0.06633 -0.19200
H 	H 	0.73848 0.11917 0.89151 0.08100
H 	H 	0.68318 0.13198 0.90805 0.04300
H 	H 	0.76874 0.11739 0.08986 0.09400
H 	H 	0.80851 0.08537 0.07192 0.09200
H 	H 	0.70619 0.91605 0.96268 0.08600
H 	H 	0.70178 0.98041 0.97786 0.09100
H 	H 	0.01126 0.09650 0.04894 0.08700
H 	H 	0.01303 0.16608 0.05272 0.08200
C 	C 	0.40704 0.15354 0.96674 -0.11100
C 	C 	0.37702 0.16079 0.93354 0.12700
C 	C 	0.31308 0.13968 0.93109 -0.09900
C 	C 	0.27738 0.10725 0.95956 0.00400
C 	C 	0.30498 0.09300 0.98999 0.06100
C 	C 	0.37006 0.11752 0.99378 -0.02400
N 	N 	0.40846 0.18577 0.90340 -0.20200
H 	H 	0.29090 0.14803 0.90680 0.05900
C 	C 	0.21151 0.08922 0.95759 -0.00800
N 	N 	0.26939 0.05595 0.01558 -0.19200
H 	H 	0.39240 0.11007 0.01850 0.05200
C 	C 	0.16053 0.03539 0.93014 -0.08500
C 	C 	0.09641 0.00945 0.93266 0.10000
C 	C 	0.08345 0.03593 0.96447 -0.04900
C 	C 	0.13427 0.09385 0.98911 -0.05400
C 	C 	0.19842 0.12147 0.98551 0.07300
H 	H 	0.17073 0.01268 0.90744 0.05500
N 	N 	0.04760 0.95968 0.90437 -0.19800
H 	H 	0.12415 0.11582 0.01237 0.04800
N 	N 	0.24710 0.17819 0.00919 -0.19400
H 	H 	0.05729 0.93847 0.88195 0.08600
H 	H 	0.00006 0.94370 0.90328 0.09100
H 	H 	0.23719 0.20053 0.03070 0.08500
H 	H 	0.29487 0.20169 0.00558 0.09000
H 	H 	0.29079 0.04754 0.03877 0.08800
H 	H 	0.21990 0.03337 0.01199 0.09100
H 	H 	0.45230 0.19360 0.90170 0.08900
H 	H 	0.38721 0.19392 0.87996 0.09100
