data_crystal

_cell_length_a 19.14029
_cell_length_b 15.61978
_cell_length_c 48.69776
_cell_angle_alpha 89.61638
_cell_angle_beta  89.61898
_cell_angle_gamma 119.44796

_symmetry_space_group_name_	'P 1'
_symmetry_space_group_name_H-M	'P 1'

loop_
_symmetry_equiv_pos_as_xyz
  x,y,z

loop_
_atom_site_label
_atom_site_type_symbol
_atom_site_fract_x
_atom_site_fract_y
_atom_site_fract_z
_atom_site_charge
C 	C 	0.23561 0.21644 0.74861 0.28700
C 	C 	0.21433 0.09515 0.68127 0.30900
Ni	Ni	0.13244 0.00073 0.73306 1.11500
Ni	Ni	0.11685 0.18096 0.70495 1.12200
O 	O 	0.23613 0.13603 0.74006 -0.36600
O 	O 	0.19597 0.25356 0.73520 -0.37000
O 	O 	0.16037 0.01094 0.69174 -0.38100
O 	O 	0.21117 0.17581 0.68656 -0.36600
O 	O 	0.07386 0.06642 0.72802 -0.71100
H 	H 	0.08258 0.09790 0.74605 0.14900
C 	C 	0.19171 0.39631 0.40708 0.29300
C 	C 	0.30448 0.71720 0.48851 0.35500
C 	C 	0.09273 0.53820 0.43620 0.34600
C 	C 	0.29382 0.81176 0.40641 0.31700
C 	C 	0.40355 0.68206 0.37855 0.29100
Ni	Ni	0.22979 0.52360 0.45902 1.11800
Ni	Ni	0.23071 0.60284 0.39716 1.12300
O 	O 	0.16696 0.40402 0.43225 -0.33900
O 	O 	0.21905 0.47020 0.38896 -0.37000
O 	O 	0.28076 0.62296 0.49141 -0.35200
O 	O 	0.33225 0.67450 0.37328 -0.37700
O 	O 	0.14221 0.56438 0.45679 -0.36200
O 	O 	0.11556 0.52508 0.41179 -0.34700
O 	O 	0.32274 0.49368 0.46466 -0.36200
O 	O 	0.22837 0.72585 0.40663 -0.38000
O 	O 	0.28803 0.60256 0.42882 -0.71700
H 	H 	0.31371 0.56542 0.42198 0.15800
C 	C 	0.14087 0.63294 0.04851 0.31700
C 	C 	0.20578 0.44908 0.99980 0.30700
C 	C 	0.22523 0.71212 0.96645 0.35100
C 	C 	0.44997 0.87047 0.99378 0.31600
Ni	Ni	0.27064 0.57923 0.04701 1.11600
Ni	Ni	0.29054 0.78174 0.02130 1.12200
Ni	Ni	0.34017 0.65062 0.98445 1.12700
O 	O 	0.26605 0.79070 0.98150 -0.38100
O 	O 	0.18563 0.61014 0.06373 -0.37400
O 	O 	0.17129 0.68948 0.02676 -0.38300
O 	O 	0.41821 0.79648 0.97575 -0.32500
O 	O 	0.18699 0.49335 0.01854 -0.38000
O 	O 	0.27225 0.49924 0.98514 -0.36400
O 	O 	0.40546 0.88011 0.01332 -0.38200
O 	O 	0.31025 0.79558 0.06285 -0.36500
O 	O 	0.25040 0.64850 0.96301 -0.35200
O 	O 	0.31688 0.67943 0.02022 -0.71600
H 	H 	0.37206 0.71507 0.02719 0.15900
C 	C 	0.05537 0.14546 0.15772 0.30700
C 	C 	0.09153 0.24468 0.23418 0.28700
C 	C 	0.99928 0.86744 0.18852 0.29900
C 	C 	0.05860 0.96398 0.26282 0.29000
Ni	Ni	0.08558 0.06807 0.20966 1.12300
O 	O 	0.06342 0.93057 0.20184 -0.38100
O 	O 	0.02536 0.19006 0.17256 -0.36400
O 	O 	0.07228 0.08108 0.16883 -0.38100
O 	O 	0.98844 0.89303 0.25342 -0.37400
O 	O 	0.10303 0.04705 0.24899 -0.38100
O 	O 	0.12739 0.21441 0.21635 -0.36700
C 	C 	0.07330 0.20153 0.03374 -0.00300
C 	C 	0.02361 0.17123 0.05724 -0.04600
C 	C 	0.05325 0.15334 0.08159 0.01600
C 	C 	0.13047 0.16391 0.08208 0.00300
C 	C 	0.18283 0.20376 0.05957 -0.05500
C 	C 	0.15389 0.22350 0.03528 0.02500
S 	S 	0.07016 0.27708 0.01035 0.05300
C 	C 	0.16750 0.34160 0.00169 -0.07000
C 	C 	0.20558 0.29891 0.01655 -0.02300
S 	S 	0.16045 0.18123 0.11453 0.03900
C 	C 	0.07889 0.17578 0.12901 -0.07500
C 	C 	0.02350 0.15782 0.10810 -0.01500
H 	H 	0.96731 0.17203 0.05731 0.05400
H 	H 	0.24623 0.22851 0.06180 0.06100
H 	H 	0.27017 0.33429 0.01815 0.05900
C 	C 	0.97074 0.66191 0.08181 -0.00000
C 	C 	0.95848 0.73388 0.12379 0.02300
C 	C 	0.95923 0.65711 0.13879 0.00300
C 	C 	0.97321 0.58758 0.12573 -0.04900
C 	C 	0.98081 0.59161 0.09704 0.01900
S 	S 	0.02361 0.68364 0.05298 0.07100
C 	C 	0.06012 0.60751 0.05808 -0.07700
C 	C 	0.02940 0.55969 0.08335 -0.00700
S 	S 	0.99274 0.69909 0.16997 0.03200
C 	C 	0.00743 0.81285 0.16588 -0.06200
C 	C 	0.98387 0.82045 0.13927 -0.02200
H 	H 	0.98773 0.53971 0.13768 0.05100
H 	H 	0.05320 0.51814 0.09376 0.04900
C 	C 	0.16786 0.21251 0.30574 0.00700
C 	C 	0.21611 0.24005 0.32907 -0.05400
C 	C 	0.17911 0.22681 0.35500 0.02800
C 	C 	0.09506 0.18417 0.35719 -0.01300
C 	C 	0.04817 0.16523 0.33368 -0.04000
C 	C 	0.08575 0.18219 0.30790 0.01500
S 	S 	0.19965 0.26475 0.27482 0.03700
C 	C 	0.11268 0.25170 0.26340 -0.07700
C 	C 	0.05476 0.20354 0.28410 -0.01600
S 	S 	0.07582 0.22620 0.38581 0.08700
C 	C 	0.16926 0.29873 0.39651 -0.06600
C 	C 	0.22016 0.28812 0.37752 -0.01800
H 	H 	0.28090 0.28003 0.32699 0.05500
H 	H 	0.28420 0.33882 0.37678 0.05100
C 	C 	0.21948 0.99577 0.31497 0.00100
C 	C 	0.28204 0.98902 0.32752 -0.05300
C 	C 	0.27974 0.97804 0.35616 0.02200
C 	C 	0.21369 0.96925 0.37140 -0.00400
C 	C 	0.14655 0.96386 0.35827 -0.04800
C 	C 	0.15098 0.97972 0.32976 0.01900
S 	S 	0.19371 0.96867 0.28249 0.02900
C 	C 	0.09741 0.94048 0.28516 -0.06400
C 	C 	0.08260 0.95057 0.31294 -0.02200
S 	S 	0.20854 0.90957 0.40035 0.07000
C 	C 	0.28998 0.89728 0.39574 -0.07200
C 	C 	0.32313 0.93897 0.37002 -0.01500
H 	H 	0.32791 0.98522 0.31528 0.04900
H 	H 	0.09104 0.94125 0.36951 0.05500
H 	H 	0.02595 0.94129 0.32054 0.04500
H 	H 	0.36669 0.92496 0.35961 0.04800
C 	C 	0.98421 0.55676 0.45871 -0.09900
C 	C 	0.00710 0.50165 0.44201 -0.11500
H 	H 	0.02709 0.63240 0.46340 0.12100
C 	C 	0.37459 0.03735 0.66291 0.02500
C 	C 	0.42679 0.12074 0.67794 -0.00500
C 	C 	0.50977 0.16698 0.67379 -0.04700
S 	S 	0.37794 0.18085 0.68563 0.04100
C 	C 	0.29024 0.10483 0.67119 -0.07900
C 	C 	0.29695 0.02685 0.65985 -0.01300
H 	H 	0.24862 0.96643 0.64913 0.04400
C 	C 	0.09119 0.70011 0.96893 -0.09600
C 	C 	0.15034 0.69444 0.95323 -0.12100
C 	C 	0.13090 0.65183 0.92702 0.33800
H 	H 	0.10617 0.73765 0.98840 0.09700
F 	F 	0.18847 0.65123 0.91073 -0.43200
C 	C 	0.32493 0.36842 0.81007 0.02000
C 	C 	0.39216 0.42903 0.79348 0.00300
C 	C 	0.46731 0.48843 0.80510 -0.05200
S 	S 	0.37973 0.37462 0.76325 0.03400
C 	C 	0.29150 0.27502 0.76990 -0.06800
C 	C 	0.26728 0.28308 0.79643 -0.01900
H 	H 	0.52107 0.52091 0.79236 0.04900
H 	H 	0.21187 0.22774 0.80597 0.04300
O 	O 	0.09696 0.98040 0.77402 -0.37000
C 	C 	0.28052 0.84034 0.51171 0.33900
F 	F 	0.21090 0.81148 0.49810 -0.43300
H 	H 	0.30247 0.98827 0.51702 0.09800
C 	C 	0.40546 0.99369 0.64509 -0.06000
H 	H 	0.36607 0.93592 0.63136 0.05900
O 	O 	0.36434 0.81828 0.41047 -0.37500
H 	H 	0.54813 0.23965 0.68193 0.04700
H 	H 	0.44335 0.46190 0.42891 0.08800
C 	C 	0.39914 0.56299 0.46309 0.32600
Ni	Ni	0.38057 0.72521 0.43544 1.12300
O 	O 	0.32231 0.75881 0.46426 -0.37400
O 	O 	0.43351 0.69848 0.40370 -0.38100
C 	C 	0.40500 0.55220 0.01862 0.34600
C 	C 	0.35916 0.77105 0.07574 0.28500
O 	O 	0.34722 0.52132 0.03780 -0.36000
O 	O 	0.42473 0.63090 0.00315 -0.37600
O 	O 	0.34730 0.67998 0.07511 -0.35500
C 	C 	0.45813 0.69563 0.35555 -0.07100
C 	C 	0.46337 0.75107 0.33196 -0.01700
H 	H 	0.41732 0.76916 0.32650 0.04800
C 	C 	0.32425 0.93718 0.52099 -0.08200
C 	C 	0.40031 0.97069 0.53234 -0.13500
C 	C 	0.38202 0.80585 0.52909 -0.09600
C 	C 	0.31508 0.77902 0.51243 -0.12100
C 	C 	0.46827 0.47074 0.44928 -0.08900
C 	C 	0.48901 0.03584 0.64241 0.00200
C 	C 	0.54093 0.12447 0.65563 0.01500
C 	C 	0.53033 0.95728 0.98799 -0.11900
F 	F 	0.54145 0.89834 0.94363 -0.43300
C 	C 	0.43777 0.48813 0.01122 -0.13100
C 	C 	0.49197 0.47896 0.02850 0.34300
F 	F 	0.50699 0.51923 0.05387 -0.44000
C 	C 	0.33003 0.37470 0.83873 -0.04300
H 	H 	0.28114 0.32199 0.85162 0.05600
H 	H 	0.06574 0.88371 0.89288 0.05800
H 	H 	0.37605 0.44579 0.97245 0.09600
C 	C 	0.47258 0.49478 0.83380 0.02500
H 	H 	0.40668 0.75690 0.53138 0.11600
C 	C 	0.58963 0.39209 0.97799 0.33100
Ni	Ni	0.61589 0.32194 0.92313 1.12800
O 	O 	0.68104 0.25907 0.93461 -0.39000
O 	O 	0.55528 0.38614 0.90814 -0.34000
O 	O 	0.57308 0.31444 0.96247 -0.34300
C 	C 	0.54509 0.34081 0.49555 0.34500
C 	C 	0.46091 0.07535 0.52961 0.33700
Ni	Ni	0.56695 0.27738 0.55027 1.12200
O 	O 	0.64329 0.42273 0.54766 -0.38400
O 	O 	0.50754 0.29190 0.51789 -0.37500
O 	O 	0.61221 0.26686 0.58683 -0.38300
O 	O 	0.48683 0.11259 0.50460 -0.35600
O 	O 	0.48039 0.13296 0.55149 -0.36400
O 	O 	0.42019 0.65830 0.46318 -0.35000
C 	C 	0.51329 0.86932 0.13359 -0.00100
S 	S 	0.41676 0.82685 0.12741 0.04200
C 	C 	0.42213 0.84242 0.09328 -0.06500
C 	C 	0.50316 0.88184 0.08564 -0.01800
H 	H 	0.50888 0.81599 0.17511 0.05000
C 	C 	0.59719 0.78330 0.33447 0.00000
C 	C 	0.56846 0.88047 0.30196 -0.04900
C 	C 	0.54173 0.80022 0.32015 0.01700
S 	S 	0.54971 0.71051 0.36098 0.04600
H 	H 	0.52646 0.89134 0.28966 0.04700
C 	C 	0.42476 0.90194 0.53905 0.34200
F 	F 	0.49408 0.93078 0.55264 -0.46000
C 	C 	0.52723 0.48701 0.50252 -0.08700
C 	C 	0.52796 0.41717 0.48463 -0.11800
C 	C 	0.50180 0.41263 0.45751 0.34400
C 	C 	0.46018 0.53335 0.46807 -0.11900
C 	C 	0.49384 0.54517 0.49425 0.34300
F 	F 	0.48821 0.60695 0.51247 -0.43500
F 	F 	0.50345 0.34710 0.43972 -0.43600
S 	S 	0.53325 0.03593 0.61303 0.08000
C 	C 	0.61706 0.14435 0.61521 -0.08000
C 	C 	0.61380 0.18274 0.64088 -0.01300
H 	H 	0.65355 0.25920 0.64583 0.04500
C 	C 	0.56444 0.03313 0.00742 -0.08400
C 	C 	0.56707 0.97265 0.96193 0.33100
C 	C 	0.62886 0.06639 0.95431 -0.08300
C 	C 	0.65258 0.14637 0.97218 -0.12700
C 	C 	0.62414 0.12763 0.99948 0.34000
H 	H 	0.54104 0.02056 0.02826 0.09800
H 	H 	0.65432 0.07833 0.93377 0.09900
C 	C 	0.53480 0.43387 0.01886 -0.08600
C 	C 	0.52416 0.39888 0.99180 -0.11900
C 	C 	0.46170 0.39565 0.97616 0.33600
C 	C 	0.41995 0.44214 0.98556 -0.09200
H 	H 	0.58046 0.43267 0.03163 0.11000
F 	F 	0.44570 0.35432 0.95094 -0.44500
C 	C 	0.40332 0.44205 0.85031 -0.00600
S 	S 	0.43293 0.42463 0.88079 0.08900
C 	C 	0.53195 0.48391 0.87498 -0.06600
C 	C 	0.54475 0.51926 0.84780 -0.01800
H 	H 	0.60171 0.54589 0.83715 0.05000
F 	F 	0.65089 0.20156 0.01794 -0.43200
C 	C 	0.69125 0.24778 0.96050 0.34100
C 	C 	0.58567 0.45502 0.88863 0.29300
O 	O 	0.63919 0.29971 0.88417 -0.37400
O 	O 	0.66445 0.45761 0.98417 -0.35600
C 	C 	0.64445 0.20977 0.59124 0.29700
C 	C 	0.54175 0.83815 0.15580 -0.04800
H 	H 	0.52176 0.88185 0.06456 0.04800
O 	O 	0.02150 0.23708 0.22795 -0.36100
C 	C 	0.55406 0.89499 0.10815 0.02700
C 	C 	0.71328 0.46432 0.55986 0.32300
O 	O 	0.58990 0.31417 0.48130 -0.33100
O 	O 	0.63347 0.24074 0.53029 -0.71300
H 	H 	0.61486 0.17625 0.53912 0.15700
C 	C 	0.67883 0.85278 0.33425 -0.05200
C 	C 	0.65094 0.94742 0.30053 -0.00800
H 	H 	0.54892 0.49285 0.52329 0.09800
C 	C 	0.73730 0.55331 0.57560 -0.07500
H 	H 	0.70548 0.31817 0.81869 0.04500
C 	C 	0.05139 0.60668 0.91803 -0.07800
O 	O 	0.98056 0.04181 0.21904 -0.71500
C 	C 	0.71200 0.32429 0.87560 0.31100
O 	O 	0.72236 0.32501 0.97666 -0.32000
O 	O 	0.70411 0.44835 0.93007 -0.71500
H 	H 	0.67370 0.48205 0.93476 0.16500
Ni	Ni	0.60845 0.19834 0.49372 1.11800
C 	C 	0.61432 0.83758 0.15245 0.01900
H 	H 	0.72063 0.84159 0.34659 0.05400
S 	S 	0.83220 0.64506 0.57378 0.07100
C 	C 	0.72951 0.27607 0.82864 -0.01400
H 	H 	0.96448 0.14926 0.11173 0.04500
O 	O 	0.65659 0.48098 0.87699 -0.37800
C 	C 	0.72424 0.25985 0.85715 -0.07300
O 	O 	0.63723 0.08854 0.50394 -0.34100
O 	O 	0.70696 0.22017 0.57647 -0.37300
C 	C 	0.62747 0.89619 0.10508 -0.05000
H 	H 	0.64724 0.84267 0.19592 0.04800
C 	C 	0.70600 0.93374 0.31631 0.02500
S 	S 	0.69862 0.00891 0.27223 0.04400
S 	S 	0.66584 0.98805 0.56245 0.09500
H 	H 	0.69798 0.96300 0.62078 0.05300
C 	C 	0.71323 0.54490 0.60327 -0.01400
Ni	Ni	0.76248 0.47016 0.96266 1.12600
O 	O 	0.77333 0.41021 0.88152 -0.38300
O 	O 	0.75211 0.41556 0.56422 -0.37600
C 	C 	0.65426 0.86202 0.12698 0.00800
C 	C 	0.66421 0.84333 0.17461 -0.01600
H 	H 	0.66030 0.91779 0.08576 0.05900
C 	C 	0.77511 0.61037 0.62080 0.02200
C 	C 	0.84630 0.67457 0.60665 -0.00500
H 	H 	0.66012 0.48059 0.61117 0.04400
C 	C 	0.78647 0.25630 0.81563 0.02000
H 	H 	0.79198 0.32018 0.77548 0.04900
C 	C 	0.70318 0.11017 0.51800 0.29300
H 	H 	0.99125 0.06812 0.23772 0.14900
C 	C 	0.71164 0.03249 0.53215 -0.05900
Ni	Ni	0.74236 0.30290 0.54166 1.12400
C 	C 	0.73651 0.97492 0.57819 -0.01400
C 	C 	0.74796 0.98304 0.60675 -0.04700
S 	S 	0.78926 0.22151 0.86508 0.05100
C 	C 	0.80325 0.67607 0.93743 0.28800
Ni	Ni	0.75976 0.51862 0.89765 1.12200
O 	O 	0.81525 0.62555 0.95756 -0.31300
O 	O 	0.75768 0.63197 0.91607 -0.37700
O 	O 	0.76011 0.20245 0.52090 -0.37600
O 	O 	0.72257 0.27266 0.47563 -0.36300
C 	C 	0.74332 0.87292 0.16620 -0.07200
C 	C 	0.78999 0.02543 0.27922 -0.06500
C 	C 	0.78449 0.98064 0.30487 -0.02800
H 	H 	0.80452 0.99158 0.66112 0.04200
C 	C 	0.92095 0.71297 0.61937 -0.04700
H 	H 	0.97574 0.76063 0.60811 0.05500
C 	C 	0.82433 0.22262 0.83386 -0.00000
C 	C 	0.82207 0.29731 0.79015 -0.05100
S 	S 	0.82385 0.85067 0.91838 0.04700
H 	H 	0.84937 0.95582 0.86628 0.05100
C 	C 	0.78732 0.03819 0.53382 -0.01900
S 	S 	0.06368 0.92780 0.83461 0.04000
C 	C 	0.77719 0.58915 0.64870 -0.05200
O 	O 	0.77777 0.39235 0.50809 -0.34900
S 	S 	0.74931 0.89342 0.13223 0.03800
C 	C 	0.80202 0.00798 0.55976 0.03600
H 	H 	0.72243 0.54159 0.66000 0.04800
C 	C 	0.82615 0.01974 0.61646 0.02100
H 	H 	0.03648 0.57182 0.89814 0.09100
C 	C 	0.84626 0.01195 0.64399 -0.00800
O 	O 	0.85778 0.46982 0.94279 -0.36200
C 	C 	0.77972 0.35973 0.48340 0.34500
H 	H 	0.83106 0.96641 0.31237 0.04900
C 	C 	0.89853 0.31058 0.78440 0.00000
O 	O 	0.05066 0.11466 0.67174 -0.37600
C 	C 	0.96201 0.73531 0.09508 -0.04700
F 	F 	0.97082 0.35098 0.41875 -0.43900
H 	H 	0.96839 0.79852 0.08360 0.05400
O 	O 	0.92714 0.84516 0.19713 -0.38400
H 	H 	0.98584 0.88647 0.13122 0.04800
C 	C 	0.95016 0.40478 0.43530 0.33200
H 	H 	0.98636 0.14908 0.33542 0.05100
C 	C 	0.90623 0.54475 0.92742 0.35400
O 	O 	0.87717 0.58297 0.90974 -0.38300
C 	C 	0.98559 0.83137 0.70930 0.30500
C 	C 	0.02238 0.95287 0.78200 0.28600
C 	C 	0.97168 0.06457 0.67251 0.30500
C 	C 	0.00169 0.19358 0.74440 0.29000
Ni	Ni	0.95998 0.99278 0.72939 1.11800
O 	O 	0.93238 0.04735 0.69603 -0.37700
O 	O 	0.04179 0.85607 0.72775 -0.36800
O 	O 	0.95294 0.88647 0.70436 -0.38700
O 	O 	0.03752 0.22124 0.71989 -0.37200
O 	O 	0.95783 0.09928 0.75132 -0.38300
O 	O 	0.96265 0.91857 0.76401 -0.37500
C 	C 	0.84311 0.02466 0.25747 0.29200
C 	C 	0.81210 0.92737 0.18417 0.29900
Ni	Ni	0.94096 0.12079 0.20409 1.11300
Ni	Ni	0.90818 0.90988 0.22941 1.12100
O 	O 	0.84665 0.06841 0.23340 -0.36300
O 	O 	0.87357 0.96493 0.26076 -0.38800
O 	O 	0.86875 0.01482 0.17633 -0.37100
O 	O 	0.80968 0.89597 0.20950 -0.37500
H 	H 	0.99258 0.18509 0.28217 0.04200
C 	C 	0.87364 0.36063 0.44735 -0.08600
C 	C 	0.85322 0.41276 0.46623 -0.12600
C 	C 	0.90745 0.51292 0.47062 0.34600
H 	H 	0.83181 0.28423 0.44313 0.10300
F 	F 	0.88657 0.56716 0.48690 -0.43100
C 	C 	0.89066 0.05122 0.59817 0.00200
C 	C 	0.87995 0.04169 0.56977 -0.05300
S 	S 	0.97059 0.06599 0.61531 0.04500
C 	C 	0.92690 0.03528 0.64658 -0.07300
H 	H 	0.93088 0.06657 0.55589 0.05800
H 	H 	0.83522 0.08044 0.51917 0.05700
C 	C 	0.85190 0.62636 0.66127 0.00200
C 	C 	0.92294 0.69127 0.64724 0.02100
S 	S 	0.86648 0.65274 0.69430 0.02700
C 	C 	0.96144 0.74432 0.69269 -0.07200
C 	C 	0.98501 0.75552 0.66491 -0.02200
H 	H 	0.03804 0.82044 0.65724 0.05200
C 	C 	0.99087 0.60234 0.93529 -0.14600
C 	C 	0.01132 0.65063 0.96066 0.34700
F 	F 	0.95353 0.64669 0.97773 -0.46400
C 	C 	0.90150 0.23813 0.82847 -0.05000
C 	C 	0.93717 0.27877 0.80297 0.02200
S 	S 	0.93011 0.30435 0.75311 0.03800
C 	C 	0.99450 0.26537 0.76138 -0.07100
C 	C 	0.99274 0.25641 0.79011 -0.01900
H 	H 	0.93132 0.21481 0.84313 0.05300
H 	H 	0.01741 0.21599 0.80064 0.04500
C 	C 	0.90552 0.92229 0.89998 -0.00100
C 	C 	0.90199 0.95298 0.87309 -0.05100
C 	C 	0.96232 0.96617 0.85425 0.01400
C 	C 	0.02580 0.95117 0.86256 0.00200
C 	C 	0.02514 0.91169 0.88849 -0.04800
C 	C 	0.96366 0.89591 0.90717 0.02000
C 	C 	0.85563 0.78292 0.93538 -0.05400
C 	C 	0.93647 0.82065 0.92767 -0.01900
C 	C 	0.00296 0.93553 0.81147 -0.06600
C 	C 	0.95080 0.95979 0.82532 -0.02900
H 	H 	0.96861 0.78134 0.93202 0.06700
H 	H 	0.90477 0.96921 0.81519 0.04400
