data_crystal

_cell_length_a 18.44469
_cell_length_b 18.75128
_cell_length_c 34.42388
_cell_angle_alpha 95.43536
_cell_angle_beta  95.43545
_cell_angle_gamma 126.42343

_symmetry_space_group_name_	'P 1'
_symmetry_space_group_name_H-M	'P 1'

loop_
_symmetry_equiv_pos_as_xyz
  x,y,z

loop_
_atom_site_label
_atom_site_type_symbol
_atom_site_fract_x
_atom_site_fract_y
_atom_site_fract_z
_atom_site_charge
C 	C 	0.89144 0.00176 0.96970 0.12900
N 	N 	0.98133 0.05748 0.96709 -0.13500
C 	C 	0.02949 0.02470 0.96393 0.15200
N 	N 	0.98813 0.93607 0.96375 -0.12300
C 	C 	0.89837 0.87970 0.96658 0.15200
N 	N 	0.84948 0.91243 0.96942 -0.10900
C 	C 	0.97218 0.03451 0.50151 0.12200
N 	N 	0.91267 0.94620 0.50402 -0.11100
C 	C 	0.94149 0.89450 0.50436 0.14300
N 	N 	0.02951 0.93071 0.50187 -0.10800
C 	C 	0.08895 0.01854 0.49884 0.13300
N 	N 	0.06036 0.07071 0.49866 -0.11400
Cu	Cu	0.74722 0.34795 0.96090 0.93000
Cu	Cu	0.72800 0.29227 0.04893 0.87400
Cu	Cu	0.58994 0.29992 0.00290 0.90100
Cu	Cu	0.57584 0.33007 0.91962 0.90200
C 	C 	0.69630 0.30995 0.87594 0.30300
O 	O 	0.79596 0.47674 0.95577 -0.34200
C 	C 	0.63687 0.34505 0.09117 0.29600
O 	O 	0.60345 0.26920 0.95079 -0.63700
O 	O 	0.72540 0.36656 0.01460 -0.64200
O 	O 	0.80992 0.29240 0.97314 -0.35800
O 	O 	0.70601 0.20014 0.00968 -0.43200
O 	O 	0.65541 0.34808 0.88017 -0.36800
O 	O 	0.45850 0.22774 0.98875 -0.36800
C 	C 	0.41236 0.23460 0.95957 0.31300
C 	C 	0.74924 0.50747 0.96348 0.29300
O 	O 	0.66188 0.45062 0.96504 -0.38300
O 	O 	0.44718 0.26768 0.92812 -0.38000
O 	O 	0.74504 0.31054 0.90681 -0.35000
C 	C 	0.76740 0.21775 0.98786 0.30700
O 	O 	0.57396 0.31138 0.05854 -0.36900
O 	O 	0.71374 0.35504 0.09056 -0.41800
H 	H 	0.56754 0.20357 0.94076 0.17800
H 	H 	0.75955 0.43041 0.02763 0.17600
Cu	Cu	0.63923 0.19803 0.50369 0.93000
Cu	Cu	0.70699 0.21703 0.41813 0.88700
Cu	Cu	0.67768 0.34397 0.45698 0.90100
Cu	Cu	0.63011 0.35349 0.53717 0.90100
C 	C 	0.66607 0.25354 0.58764 0.30100
O 	O 	0.50443 0.13592 0.50496 -0.34300
C 	C 	0.64544 0.29209 0.36921 0.29600
O 	O 	0.70600 0.33772 0.51098 -0.63900
O 	O 	0.62193 0.21274 0.44832 -0.63900
O 	O 	0.70155 0.14141 0.49658 -0.36600
O 	O 	0.79742 0.24337 0.46068 -0.41300
O 	O 	0.61812 0.28337 0.57954 -0.36900
O 	O 	0.73864 0.47225 0.46889 -0.36600
C 	C 	0.73033 0.51523 0.49873 0.31000
C 	C 	0.46460 0.17208 0.49382 0.29600
O 	O 	0.51515 0.25683 0.49004 -0.38700
O 	O 	0.67521 0.47263 0.52378 -0.37900
O 	O 	0.67531 0.20842 0.55927 -0.36300
C 	C 	0.77792 0.18254 0.48248 0.30500
O 	O 	0.67251 0.35510 0.40039 -0.37500
O 	O 	0.64280 0.22131 0.37289 -0.40700
H 	H 	0.77208 0.37931 0.52306 0.17000
H 	H 	0.55763 0.17330 0.43376 0.17800
C 	C 	0.68797 0.18386 0.68551 -0.09300
C 	C 	0.71758 0.26144 0.71217 0.00700
C 	C 	0.74441 0.34031 0.69772 0.03300
C 	C 	0.73616 0.33851 0.65668 -0.01200
C 	C 	0.69596 0.25789 0.62976 -0.10400
C 	C 	0.67335 0.17997 0.64428 0.11700
C 	C 	0.71020 0.25664 0.75450 0.00900
C 	C 	0.77941 0.42572 0.72584 -0.18000
H 	H 	0.75627 0.39885 0.64552 0.03500
C 	C 	0.63134 0.09221 0.61636 -0.21800
H 	H 	0.67063 0.12453 0.69686 0.06200
C 	C 	0.62445 0.21598 0.76632 0.03400
C 	C 	0.62112 0.22728 0.80680 -0.01000
C 	C 	0.70211 0.28265 0.83542 -0.09800
C 	C 	0.78785 0.32041 0.82371 0.12300
C 	C 	0.79039 0.30307 0.78344 -0.09300
C 	C 	0.53670 0.16299 0.73585 -0.18000
H 	H 	0.55545 0.19672 0.81594 0.03700
C 	C 	0.87670 0.38256 0.85342 -0.22200
H 	H 	0.85571 0.33157 0.77428 0.06200
H 	H 	0.56835 0.07168 0.59650 0.10600
H 	H 	0.61135 0.03664 0.63274 0.08600
H 	H 	0.68162 0.09980 0.59836 0.10200
H 	H 	0.84562 0.45225 0.74483 0.07800
H 	H 	0.72879 0.41217 0.74492 0.08100
H 	H 	0.79107 0.47916 0.70963 0.07700
H 	H 	0.47614 0.13975 0.74986 0.07600
H 	H 	0.52557 0.10244 0.71938 0.07800
H 	H 	0.54026 0.20557 0.71461 0.08100
H 	H 	0.88239 0.34423 0.87455 0.11300
H 	H 	0.87987 0.43843 0.86998 0.10700
H 	H 	0.93721 0.41353 0.83866 0.08800
C 	C 	0.66947 0.43254 0.19899 -0.09100
C 	C 	0.60068 0.35217 0.21029 0.00600
C 	C 	0.52914 0.27844 0.18085 0.03300
C 	C 	0.53644 0.28066 0.14070 -0.01300
C 	C 	0.61350 0.35589 0.12992 -0.10200
C 	C 	0.67596 0.43523 0.15877 0.10700
C 	C 	0.61427 0.33953 0.25142 0.00800
C 	C 	0.44987 0.19420 0.19228 -0.17900
H 	H 	0.48584 0.22128 0.11821 0.04900
C 	C 	0.75297 0.52083 0.14725 -0.20900
H 	H 	0.72191 0.49072 0.22162 0.06200
C 	C 	0.66926 0.31267 0.26238 0.02900
C 	C 	0.67962 0.29893 0.30118 -0.01100
C 	C 	0.63391 0.30904 0.32892 -0.10600
C 	C 	0.57713 0.33401 0.31771 0.11400
C 	C 	0.57002 0.35167 0.27930 -0.09300
C 	C 	0.71741 0.29906 0.23283 -0.17500
H 	H 	0.72344 0.28024 0.30988 0.04000
C 	C 	0.52377 0.34139 0.34629 -0.21800
H 	H 	0.52817 0.37261 0.27076 0.06400
H 	H 	0.81160 0.51897 0.14538 0.08200
H 	H 	0.77675 0.58089 0.16953 0.08400
H 	H 	0.72997 0.52898 0.11813 0.08600
H 	H 	0.42154 0.21189 0.21507 0.07600
H 	H 	0.47338 0.15686 0.20437 0.07000
H 	H 	0.39335 0.14893 0.16632 0.07600
H 	H 	0.75383 0.27356 0.24546 0.06900
H 	H 	0.76880 0.36409 0.22393 0.07000
H 	H 	0.66687 0.24897 0.20608 0.06700
H 	H 	0.57115 0.40300 0.36949 0.11300
H 	H 	0.48753 0.28116 0.36055 0.08400
H 	H 	0.47108 0.34568 0.33092 0.09000
C 	C 	0.81067 0.73875 0.47194 -0.05500
C 	C 	0.87689 0.79864 0.50575 -0.01000
C 	C 	0.88889 0.76504 0.53867 0.07400
C 	C 	0.83855 0.67182 0.53645 -0.01200
C 	C 	0.77622 0.61201 0.50173 -0.08600
C 	C 	0.76002 0.64551 0.46977 0.11700
N 	N 	0.69190 0.58502 0.43519 -0.02200
H 	H 	0.80029 0.76465 0.44687 0.08000
H 	H 	0.84913 0.64596 0.56149 0.05500
N 	N 	0.95314 0.82558 0.57419 -0.02500
O 	O 	0.60681 0.52637 0.43845 -0.10200
O 	O 	0.71371 0.59305 0.40017 -0.10000
O 	O 	0.94803 0.88651 0.59190 -0.07500
O 	O 	0.01408 0.81710 0.58983 -0.07900
C 	C 	0.85240 0.13537 0.52565 -0.00900
C 	C 	0.83823 0.15570 0.48882 -0.09100
C 	C 	0.87875 0.14649 0.45779 0.10900
C 	C 	0.93078 0.11523 0.46375 -0.05800
C 	C 	0.93949 0.08912 0.49963 -0.00600
C 	C 	0.90278 0.10217 0.53124 0.06800
N 	N 	0.91556 0.08059 0.56889 -0.01700
H 	H 	0.82362 0.14466 0.54992 0.06200
H 	H 	0.95916 0.10542 0.43945 0.08000
N 	N 	0.86203 0.16281 0.41941 -0.02400
O 	O 	0.99751 0.11340 0.58687 -0.09200
O 	O 	0.84582 0.03174 0.58609 -0.09900
O 	O 	0.92991 0.22689 0.40520 -0.10900
O 	O 	0.78089 0.10795 0.39710 -0.14800
C 	C 	0.23551 0.04860 0.52647 -0.05800
C 	C 	0.18471 0.05729 0.49702 -0.00900
C 	C 	0.22386 0.09744 0.46476 0.07000
C 	C 	0.31428 0.13087 0.46299 -0.01200
C 	C 	0.36581 0.12381 0.49290 -0.09000
C 	C 	0.32558 0.08154 0.52463 0.11200
N 	N 	0.37723 0.07525 0.55589 -0.02100
H 	H 	0.20522 0.01683 0.55110 0.08100
H 	H 	0.34472 0.16298 0.43846 0.05700
N 	N 	0.17163 0.10320 0.43346 -0.01800
O 	O 	0.41905 0.13605 0.58830 -0.10100
O 	O 	0.37495 0.00430 0.55356 -0.09900
O 	O 	0.20159 0.18132 0.42483 -0.09300
O 	O 	0.09774 0.02998 0.41173 -0.09700
C 	C 	0.86171 0.73540 0.93337 -0.05500
C 	C 	0.85384 0.78259 0.96476 -0.01200
C 	C 	0.81441 0.74000 0.99654 0.07500
C 	C 	0.78203 0.65058 0.99621 -0.01200
C 	C 	0.79100 0.60391 0.96503 -0.08600
C 	C 	0.83087 0.64673 0.93340 0.11100
N 	N 	0.83800 0.59961 0.90070 -0.02200
H 	H 	0.89265 0.76795 0.90901 0.08400
H 	H 	0.75100 0.61788 0.02052 0.05600
N 	N 	0.81050 0.78833 0.02996 -0.01900
O 	O 	0.76750 0.54430 0.87224 -0.10200
O 	O 	0.91694 0.61793 0.89766 -0.09800
O 	O 	0.73167 0.75912 0.03923 -0.08300
O 	O 	0.88591 0.85590 0.05340 -0.08200
C 	C 	0.81664 0.13230 0.01594 -0.01300
C 	C 	0.79292 0.15668 0.98248 -0.09100
C 	C 	0.78836 0.11819 0.94420 0.11200
C 	C 	0.81317 0.06041 0.94007 -0.05900
C 	C 	0.84090 0.03933 0.97370 -0.00800
C 	C 	0.83992 0.07348 0.01172 0.06600
N 	N 	0.86542 0.05080 0.04629 -0.02900
H 	H 	0.81769 0.15959 0.04538 0.04100
H 	H 	0.81327 0.03389 0.91070 0.07500
N 	N 	0.75677 0.13592 0.90950 -0.02100
O 	O 	0.93559 0.11392 0.07343 -0.10400
O 	O 	0.81455 0.96806 0.05200 -0.05900
O 	O 	0.80673 0.16603 0.88228 -0.10400
O 	O 	0.67427 0.11309 0.90319 -0.10900
C 	C 	0.19057 0.15367 0.99310 -0.05100
C 	C 	0.12640 0.08509 0.96081 -0.01600
C 	C 	0.15600 0.07158 0.92653 0.07300
C 	C 	0.24984 0.12396 0.92567 -0.01200
C 	C 	0.31440 0.18975 0.95871 -0.08500
C 	C 	0.28444 0.20620 0.99224 0.11300
N 	N 	0.34927 0.27597 0.02552 -0.02200
H 	H 	0.16765 0.16519 0.01919 0.07800
H 	H 	0.27263 0.11189 0.89966 0.06000
N 	N 	0.09088 0.00426 0.89264 -0.02800
O 	O 	0.40645 0.35882 0.02059 -0.09800
O 	O 	0.34808 0.25743 0.06103 -0.09600
O 	O 	0.02709 0.00716 0.87531 -0.09300
O 	O 	0.09837 0.94293 0.87785 -0.07300
