data_crystal

_cell_length_a 19.27111
_cell_length_b 17.50274
_cell_length_c 33.62983
_cell_angle_alpha 88.28242
_cell_angle_beta  88.43902
_cell_angle_gamma 107.44312

_symmetry_space_group_name_	'P 1'
_symmetry_space_group_name_H-M	'P 1'

loop_
_symmetry_equiv_pos_as_xyz
  x,y,z

loop_
_atom_site_label
_atom_site_type_symbol
_atom_site_fract_x
_atom_site_fract_y
_atom_site_fract_z
_atom_site_charge
Zn	Zn	0.57545 0.31432 0.88991 1.22500
Zn	Zn	0.66863 0.45112 0.94668 1.20400
C 	C 	0.79283 0.23151 0.85874 0.27400
Zn	Zn	0.74546 0.36755 0.88809 1.22200
Zn	Zn	0.63317 0.19153 0.85471 1.19200
H 	H 	0.66861 0.30646 0.94977 0.19300
C 	C 	0.72711 0.52178 0.86258 0.33700
O 	O 	0.52703 0.14558 0.84405 -0.45800
O 	O 	0.49757 0.26314 0.84752 -0.38100
O 	O 	0.66527 0.34488 0.92825 -0.79200
O 	O 	0.56361 0.43949 0.95274 -0.45100
O 	O 	0.52208 0.22806 0.92731 -0.42400
O 	O 	0.53417 0.40374 0.88929 -0.41400
O 	O 	0.60542 0.16137 0.91831 -0.41400
O 	O 	0.77022 0.51790 0.94859 -0.43600
H 	H 	0.65256 0.33457 0.82784 0.17600
O 	O 	0.82523 0.42454 0.93006 -0.39000
O 	O 	0.65504 0.30973 0.85439 -0.79500
O 	O 	0.72932 0.17958 0.86920 -0.43800
O 	O 	0.76531 0.47135 0.85739 -0.44200
O 	O 	0.81233 0.30406 0.87328 -0.41600
O 	O 	0.66895 0.50194 0.88660 -0.39700
C 	C 	0.47934 0.18610 0.84067 0.34200
C 	C 	0.52201 0.43654 0.92226 0.31400
C 	C 	0.54638 0.16809 0.93647 0.35200
C 	C 	0.82684 0.49108 0.94795 0.28500
Zn	Zn	0.65239 0.42061 0.54831 1.22300
Zn	Zn	0.49642 0.29994 0.50957 1.19600
C 	C 	0.69106 0.17102 0.60867 0.30700
Zn	Zn	0.58915 0.23239 0.56359 1.22200
Zn	Zn	0.72977 0.34863 0.60911 1.19400
H 	H 	0.62681 0.30086 0.49680 0.17700
C 	C 	0.44663 0.22947 0.59371 0.34600
O 	O 	0.79650 0.45862 0.60068 -0.47200
O 	O 	0.71086 0.51834 0.58361 -0.37600
O 	O 	0.60002 0.31295 0.52013 -0.78700
O 	O 	0.49174 0.41072 0.51038 -0.44200
O 	O 	0.74292 0.43093 0.51742 -0.42200
O 	O 	0.60079 0.49459 0.52759 -0.39600
O 	O 	0.76605 0.32471 0.54973 -0.42000
O 	O 	0.44631 0.18326 0.50786 -0.46900
H 	H 	0.59819 0.35416 0.61507 0.19000
O 	O 	0.54188 0.13749 0.52475 -0.39700
O 	O 	0.62935 0.34191 0.59383 -0.78600
O 	O 	0.71784 0.23653 0.62839 -0.46400
O 	O 	0.49836 0.19538 0.59734 -0.41200
O 	O 	0.66136 0.17402 0.57405 -0.42200
O 	O 	0.45884 0.29501 0.57129 -0.41800
C 	C 	0.77591 0.52332 0.59657 0.34200
C 	C 	0.54815 0.47371 0.50220 0.27100
C 	C 	0.78155 0.38072 0.52079 0.33300
C 	C 	0.47845 0.12657 0.50824 0.34900
Zn	Zn	0.93087 0.91382 0.72234 1.21900
Zn	Zn	0.04299 0.92457 0.79725 1.19600
C 	C 	0.15052 0.08166 0.65006 0.28100
Zn	Zn	0.07843 0.04675 0.72799 1.23000
Zn	Zn	0.98802 0.00563 0.64297 1.19400
H 	H 	0.06908 0.89975 0.72368 0.18100
C 	C 	0.99643 0.08193 0.79501 0.30100
O 	O 	0.88370 0.95765 0.63197 -0.44900
O 	O 	0.83217 0.91803 0.69502 -0.38900
O 	O 	0.04069 0.92969 0.73805 -0.78600
O 	O 	0.95286 0.83410 0.81080 -0.46100
O 	O 	0.92647 0.81780 0.69419 -0.45000
O 	O 	0.87600 0.88281 0.77359 -0.43300
O 	O 	0.99507 0.88276 0.64047 -0.41700
O 	O 	0.13136 0.00831 0.81493 -0.42600
H 	H 	0.95140 0.05842 0.70722 0.17200
O 	O 	0.17975 0.05622 0.75322 -0.39600
O 	O 	0.97963 0.02110 0.70108 -0.80700
O 	O 	0.09724 0.03755 0.62886 -0.41100
O 	O 	0.05070 0.11236 0.76895 -0.39400
O 	O 	0.13621 0.11154 0.68351 -0.43000
O 	O 	0.97811 0.00577 0.80653 -0.40000
C 	C 	0.82952 0.94839 0.65856 0.32800
C 	C 	0.88751 0.82700 0.79753 0.29800
C 	C 	0.94666 0.81900 0.65682 0.30500
C 	C 	0.18812 0.04307 0.79107 0.29200
Zn	Zn	0.31803 0.70617 0.37883 1.22400
Zn	Zn	0.21310 0.55883 0.43668 1.19800
C 	C 	0.10326 0.79671 0.34596 0.34900
Zn	Zn	0.14803 0.65944 0.38114 1.22400
Zn	Zn	0.26464 0.82863 0.33619 1.19700
H 	H 	0.22295 0.70775 0.44112 0.19000
C 	C 	0.16299 0.50921 0.35200 0.28100
O 	O 	0.37255 0.87284 0.32580 -0.45200
O 	O 	0.39880 0.75398 0.33312 -0.39200
O 	O 	0.22593 0.67212 0.41925 -0.78600
O 	O 	0.31522 0.55820 0.44408 -0.45500
O 	O 	0.36697 0.79671 0.41119 -0.43000
O 	O 	0.35952 0.61772 0.38356 -0.44300
O 	O 	0.28084 0.85801 0.39863 -0.40100
O 	O 	0.10864 0.49745 0.43971 -0.45500
H 	H 	0.24327 0.68368 0.31857 0.18100
O 	O 	0.06381 0.60158 0.42501 -0.37700
O 	O 	0.24049 0.71103 0.34365 -0.79400
O 	O 	0.16895 0.84889 0.34549 -0.43600
O 	O 	0.12389 0.55959 0.35187 -0.42500
O 	O 	0.08680 0.73059 0.36900 -0.40700
O 	O 	0.21759 0.51863 0.37612 -0.40700
C 	C 	0.41821 0.83015 0.32152 0.28700
C 	C 	0.37026 0.59037 0.41882 0.35400
C 	C 	0.33884 0.85486 0.41745 0.27700
C 	C 	0.05548 0.52985 0.44138 0.31400
Zn	Zn	0.21040 0.71701 0.07595 1.22500
Zn	Zn	0.35958 0.82119 0.12488 1.19600
C 	C 	0.35950 0.60632 0.99474 0.30300
Zn	Zn	0.37480 0.73911 0.04909 1.22400
Zn	Zn	0.22766 0.64878 0.99472 1.20100
H 	H 	0.31706 0.67104 0.11347 0.18300
C 	C 	0.39470 0.90921 0.04134 0.28400
O 	O 	0.14459 0.68188 0.98018 -0.47800
O 	O 	0.10942 0.70161 0.04413 -0.37800
O 	O 	0.31450 0.71950 0.09837 -0.78100
O 	O 	0.27132 0.83881 0.14922 -0.45400
O 	O 	0.16984 0.60536 0.09701 -0.43800
O 	O 	0.18197 0.80287 0.10370 -0.42400
O 	O 	0.15025 0.55769 0.03443 -0.37500
O 	O 	0.46695 0.85773 0.11572 -0.45400
H 	H 	0.27157 0.78833 0.01504 0.17700
O 	O 	0.47441 0.75265 0.07882 -0.39200
O 	O 	0.27228 0.73723 0.02820 -0.79900
O 	O 	0.28990 0.58047 0.00423 -0.43700
O 	O 	0.41603 0.84937 0.02872 -0.43700
O 	O 	0.40383 0.66178 0.01553 -0.41600
O 	O 	0.35356 0.90105 0.07417 -0.41600
C 	C 	0.09354 0.68275 0.00676 0.35900
C 	C 	0.22052 0.85503 0.12839 0.35100
C 	C 	0.14533 0.54531 0.07339 0.35900
C 	C 	0.50613 0.81842 0.09747 0.29500
Zn	Zn	0.98986 0.13897 0.21263 1.21600
Zn	Zn	0.85548 0.11047 0.28130 1.19700
C 	C 	0.79926 0.96433 0.13072 0.31400
Zn	Zn	0.84457 0.99990 0.21240 1.21800
Zn	Zn	0.95910 0.05926 0.13240 1.19100
H 	H 	0.84975 0.14673 0.20631 0.19500
C 	C 	0.90864 0.95763 0.28394 0.24500
O 	O 	0.06375 0.12002 0.12773 -0.43000
O 	O 	0.09698 0.14152 0.19222 -0.35400
O 	O 	0.87523 0.11590 0.22239 -0.78000
O 	O 	0.93834 0.20172 0.29836 -0.46500
O 	O 	0.00130 0.23883 0.18181 -0.35600
O 	O 	0.02758 0.16259 0.26604 -0.42200
O 	O 	0.93858 0.17644 0.12968 -0.37500
O 	O 	0.76555 0.02013 0.29617 -0.42900
H 	H 	0.97844 0.99675 0.19884 0.15000
O 	O 	0.73555 0.98178 0.23305 -0.38900
O 	O 	0.95079 0.03369 0.19071 -0.78200
O 	O 	0.85607 0.01757 0.11261 -0.40800
O 	O 	0.86289 0.92999 0.25567 -0.41200
O 	O 	0.80273 0.93654 0.16709 -0.43700
O 	O 	0.92142 0.03192 0.29507 -0.38300
C 	C 	0.10720 0.11509 0.15671 0.28100
C 	C 	0.00740 0.21422 0.28777 0.39100
C 	C 	0.98040 0.24153 0.14534 0.21000
C 	C 	0.71697 0.98355 0.27074 0.31300
C 	C 	0.10009 0.46626 0.09031 -0.16200
C 	C 	0.10901 0.39449 0.07610 0.23600
C 	C 	0.06331 0.32014 0.09098 -0.12600
C 	C 	0.01013 0.31628 0.12092 0.09000
C 	C 	0.99945 0.38759 0.13388 -0.14100
C 	C 	0.04416 0.46209 0.11873 0.11100
H 	H 	0.07239 0.26544 0.08107 0.10500
H 	H 	0.03530 0.51652 0.12914 0.03100
Cl	Cl	0.18059 0.39648 0.04198 -0.32000
H 	H 	0.95800 0.38539 0.15666 0.09100
C 	C 	0.73352 0.92752 0.10847 -0.12300
C 	C 	0.68967 0.97415 0.09551 0.18000
C 	C 	0.61616 0.93712 0.08844 -0.07300
C 	C 	0.58586 0.85380 0.09442 -0.03100
C 	C 	0.63145 0.80673 0.10260 -0.02900
C 	C 	0.70517 0.84341 0.10926 0.03300
H 	H 	0.58181 0.97352 0.08025 0.07200
H 	H 	0.73891 0.80669 0.11811 0.03800
Cl	Cl	0.72442 0.07941 0.09111 -0.31400
H 	H 	0.60909 0.74219 0.10623 0.05600
C 	C 	0.19832 0.92607 0.13750 -0.12900
C 	C 	0.17156 0.93562 0.17588 0.17600
C 	C 	0.14866 0.00274 0.18338 -0.05700
C 	C 	0.15132 0.05998 0.15271 -0.05500
C 	C 	0.18261 0.05285 0.11537 0.00100
C 	C 	0.20539 0.98595 0.10773 -0.00900
H 	H 	0.12465 0.00770 0.21235 0.07700
H 	H 	0.22766 0.98010 0.07843 0.04000
Cl	Cl	0.16231 0.86187 0.21414 -0.37200
H 	H 	0.18597 0.09725 0.09166 0.05600
C 	C 	0.64134 0.94284 0.28475 -0.11900
C 	C 	0.60614 0.86305 0.27488 0.20000
C 	C 	0.53275 0.82726 0.28611 -0.08300
C 	C 	0.49408 0.86997 0.30753 -0.03700
C 	C 	0.52950 0.94894 0.31781 -0.02600
C 	C 	0.60273 0.98506 0.30655 -0.00900
H 	H 	0.50598 0.76601 0.27841 0.08200
H 	H 	0.62925 0.04626 0.31438 0.04500
Cl	Cl	0.65407 0.80590 0.25014 -0.32400
H 	H 	0.50067 0.98196 0.33504 0.04000
C 	C 	0.06079 0.29055 0.29700 -0.16000
C 	C 	0.05422 0.36332 0.28102 0.24200
C 	C 	0.09500 0.43598 0.29603 -0.09700
C 	C 	0.13953 0.43678 0.32841 -0.01600
C 	C 	0.15061 0.36480 0.34210 -0.04400
C 	C 	0.11168 0.29201 0.32622 0.05100
H 	H 	0.08846 0.49156 0.28415 0.09300
H 	H 	0.11782 0.23644 0.33835 0.03900
Cl	Cl	0.99114 0.36416 0.24425 -0.39400
H 	H 	0.18600 0.36459 0.36655 0.05400
C 	C 	0.04330 0.82616 0.33293 -0.15500
C 	C 	0.01730 0.87689 0.35705 0.25700
C 	C 	0.97038 0.91681 0.34150 -0.13800
C 	C 	0.94905 0.90658 0.30193 0.00900
C 	C 	0.97179 0.85250 0.27869 -0.09100
C 	C 	0.01846 0.81228 0.29421 0.08600
H 	H 	0.95173 0.95701 0.35995 0.09100
H 	H 	0.03740 0.77254 0.27562 0.03300
Cl	Cl	0.04449 0.89242 0.40650 -0.31400
H 	H 	0.95567 0.84394 0.24813 0.05700
C 	C 	0.37461 0.91885 0.44397 -0.00000
C 	C 	0.45079 0.94999 0.44272 -0.08900
C 	C 	0.48488 0.01538 0.46537 0.08200
C 	C 	0.44317 0.05037 0.48949 -0.17400
C 	C 	0.36685 0.01629 0.49244 0.24600
C 	C 	0.33293 0.95091 0.46956 -0.14500
H 	H 	0.54356 0.04073 0.46300 0.02600
H 	H 	0.27421 0.92550 0.47160 0.08800
H 	H 	0.48347 0.92522 0.42318 0.06200
O 	O 	0.32574 0.04494 0.51864 -0.28700
H 	H 	0.30794 0.08334 0.50268 0.15700
C 	C 	0.98503 0.48357 0.46015 -0.04300
C 	C 	0.98230 0.44691 0.49810 -0.07600
C 	C 	0.91527 0.40451 0.51652 0.04800
C 	C 	0.85034 0.39826 0.49711 -0.15000
C 	C 	0.85378 0.42818 0.45744 0.20400
C 	C 	0.92085 0.47220 0.43945 -0.08800
H 	H 	0.91361 0.38109 0.54683 0.01700
H 	H 	0.92286 0.49745 0.40946 0.07500
H 	H 	0.03191 0.45349 0.51387 0.06400
O 	O 	0.79116 0.41844 0.43709 -0.28800
H 	H 	0.78334 0.36732 0.42339 0.14100
C 	C 	0.53923 0.53341 0.47311 -0.01500
C 	C 	0.52467 0.51033 0.43384 -0.05300
C 	C 	0.47603 0.53899 0.41232 0.04800
C 	C 	0.44355 0.59195 0.42985 -0.16200
C 	C 	0.47176 0.62897 0.46497 0.20900
C 	C 	0.51978 0.59938 0.48667 -0.09100
H 	H 	0.45761 0.51332 0.38414 0.03100
H 	H 	0.53465 0.62119 0.51602 0.09300
H 	H 	0.54323 0.46255 0.42211 0.03000
O 	O 	0.44581 0.68717 0.48045 -0.30100
H 	H 	0.47863 0.73855 0.46893 0.15900
C 	C 	0.76930 0.98069 0.64874 -0.15600
C 	C 	0.74773 0.98273 0.60902 0.17900
C 	C 	0.71666 0.04163 0.59612 -0.05700
C 	C 	0.70422 0.09620 0.62311 -0.04000
C 	C 	0.71403 0.08455 0.66384 -0.03900
C 	C 	0.74647 0.02711 0.67658 0.04600
H 	H 	0.70513 0.04686 0.56498 0.09000
H 	H 	0.75965 0.02374 0.70758 0.02600
Cl	Cl	0.75897 0.91175 0.57537 -0.31500
H 	H 	0.70079 0.12343 0.68534 0.04200
C 	C 	0.37117 0.18593 0.60770 -0.13500
C 	C 	0.35588 0.14998 0.64632 0.21500
C 	C 	0.28369 0.11047 0.65889 -0.08800
C 	C 	0.22614 0.10761 0.63359 -0.01800
C 	C 	0.24162 0.14101 0.59478 -0.03600
C 	C 	0.31359 0.18033 0.58198 0.04500
H 	H 	0.27216 0.08430 0.68884 0.08600
H 	H 	0.32455 0.20709 0.55212 0.02300
Cl	Cl	0.42563 0.15860 0.68027 -0.34300
H 	H 	0.19779 0.13935 0.57501 0.05300
C 	C 	0.82528 0.60071 0.60895 -0.13600
C 	C 	0.83259 0.67353 0.58741 0.20900
C 	C 	0.87941 0.74556 0.60069 -0.08000
C 	C 	0.92001 0.74531 0.63474 -0.03600
C 	C 	0.91777 0.67204 0.65353 -0.03600
C 	C 	0.86989 0.60062 0.64128 0.02800
H 	H 	0.88152 0.80192 0.58566 0.09600
H 	H 	0.86638 0.54510 0.65752 0.01700
Cl	Cl	0.78614 0.67557 0.54316 -0.29600
H 	H 	0.94957 0.67102 0.67952 0.03800
C 	C 	0.89485 0.54107 0.96338 -0.02800
C 	C 	0.91889 0.51970 0.99976 -0.06000
C 	C 	0.97922 0.57188 0.01690 0.02600
C 	C 	0.01772 0.64457 0.99703 -0.10800
C 	C 	0.99102 0.66796 0.96163 0.14100
C 	C 	0.92942 0.61644 0.94510 -0.07800
H 	H 	0.99862 0.55369 0.04447 0.03000
H 	H 	0.90869 0.63492 0.91797 0.07300
H 	H 	0.89055 0.46292 0.01490 0.05700
O 	O 	0.02493 0.74133 0.94331 -0.26200
H 	H 	0.05971 0.73148 0.92328 0.14600
C 	C 	0.41945 0.98606 0.01893 -0.02800
C 	C 	0.39829 0.98995 0.97954 -0.08300
C 	C 	0.44043 0.04908 0.95261 0.08500
C 	C 	0.50402 0.10509 0.96483 -0.16900
C 	C 	0.52255 0.10505 0.00499 0.22600
C 	C 	0.47927 0.04651 0.03210 -0.07700
H 	H 	0.42444 0.05036 0.92201 0.03600
H 	H 	0.49484 0.04522 0.06277 0.07900
H 	H 	0.35171 0.94406 0.96915 0.04100
O 	O 	0.58227 0.16248 0.01787 -0.29900
H 	H 	0.62316 0.13933 0.01501 0.17200
C 	C 	0.46594 0.47602 0.92437 -0.02100
C 	C 	0.39973 0.43570 0.94421 -0.03400
C 	C 	0.36201 0.47881 0.96542 0.03700
C 	C 	0.38989 0.56255 0.96612 -0.15100
C 	C 	0.44962 0.60330 0.94075 0.20400
C 	C 	0.48664 0.55961 0.91926 -0.09700
H 	H 	0.31406 0.44690 0.98342 0.06300
H 	H 	0.53590 0.59092 0.90205 0.09000
H 	H 	0.38177 0.37079 0.94682 0.07500
O 	O 	0.47179 0.68546 0.93704 -0.30600
H 	H 	0.51086 0.70351 0.95634 0.16500
C 	C 	0.94913 0.12998 0.80708 -0.12200
C 	C 	0.97068 0.18805 0.83609 0.17400
C 	C 	0.92037 0.22383 0.85193 -0.07200
C 	C 	0.84851 0.20164 0.83905 -0.03900
C 	C 	0.82845 0.14657 0.80882 -0.03600
C 	C 	0.87842 0.11098 0.79297 0.02000
H 	H 	0.93654 0.26671 0.87507 0.08300
H 	H 	0.86147 0.06671 0.77050 0.02000
Cl	Cl	0.05948 0.21410 0.85397 -0.28100
H 	H 	0.77356 0.13004 0.79817 0.02200
C 	C 	0.40425 0.14398 0.83018 -0.13500
C 	C 	0.34431 0.14847 0.85415 0.20900
C 	C 	0.27327 0.11168 0.84235 -0.08200
C 	C 	0.26150 0.07046 0.80686 -0.02600
C 	C 	0.32114 0.06311 0.78408 -0.03400
C 	C 	0.39204 0.09946 0.79574 0.04000
H 	H 	0.22743 0.11719 0.86018 0.10300
H 	H 	0.43759 0.09467 0.77744 0.04200
Cl	Cl	0.35715 0.19860 0.89928 -0.32200
H 	H 	0.31254 0.03055 0.75685 0.05800
C 	C 	0.75162 0.60233 0.84252 -0.13600
C 	C 	0.75659 0.67202 0.86402 0.20600
C 	C 	0.79460 0.74762 0.84708 -0.08200
C 	C 	0.82774 0.75469 0.80903 -0.03400
C 	C 	0.81662 0.68647 0.78629 -0.04200
C 	C 	0.77898 0.61065 0.80298 0.03300
H 	H 	0.80218 0.80039 0.86454 0.08100
H 	H 	0.77403 0.55806 0.78576 0.02400
Cl	Cl	0.71972 0.66592 0.91298 -0.36000
H 	H 	0.84137 0.69153 0.75662 0.04300
