data_crystal

_cell_length_a 26.21906
_cell_length_b 26.49312
_cell_length_c 33.69355
_cell_angle_alpha 95.57625
_cell_angle_beta  95.57103
_cell_angle_gamma 125.58631

_symmetry_space_group_name_	'P 1'
_symmetry_space_group_name_H-M	'P 1'

loop_
_symmetry_equiv_pos_as_xyz
  x,y,z

loop_
_atom_site_label
_atom_site_type_symbol
_atom_site_fract_x
_atom_site_fract_y
_atom_site_fract_z
_atom_site_charge
C 	C 	0.96674 0.02721 0.97951 0.05900
C 	C 	0.03027 0.05804 0.97452 -0.09800
C 	C 	0.05740 0.02535 0.97396 0.05800
C 	C 	0.01954 0.96084 0.97568 -0.10000
C 	C 	0.95486 0.92900 0.97775 0.05700
C 	C 	0.92867 0.96235 0.98018 -0.10000
H 	H 	0.05927 0.10788 0.97301 0.05600
H 	H 	0.04025 0.93536 0.97514 0.05600
H 	H 	0.87916 0.93818 0.98319 0.05500
C 	C 	0.93273 0.00305 0.46623 0.05600
C 	C 	0.89959 0.93830 0.46677 -0.10100
C 	C 	0.93345 0.91294 0.47330 0.05400
C 	C 	0.00026 0.95222 0.47872 -0.10000
C 	C 	0.03342 0.01682 0.47810 0.05600
C 	C 	0.99963 0.04223 0.47206 -0.09600
H 	H 	0.84786 0.90787 0.46208 0.05500
H 	H 	0.02635 0.93244 0.48302 0.05600
H 	H 	0.02525 0.09219 0.47147 0.05400
Cu	Cu	0.64357 0.24426 0.00568 0.92600
Cu	Cu	0.70242 0.24414 0.92389 0.87000
Cu	Cu	0.68693 0.34412 0.95212 0.89700
Cu	Cu	0.63902 0.35953 0.02675 0.89300
C 	C 	0.64713 0.28871 0.08846 0.25900
O 	O 	0.54864 0.20300 0.99848 -0.36600
C 	C 	0.67568 0.29955 0.86519 0.26000
O 	O 	0.69396 0.34220 0.00901 -0.64200
O 	O 	0.64223 0.25101 0.94767 -0.64100
O 	O 	0.68501 0.20078 0.00880 -0.37800
O 	O 	0.75893 0.26413 0.97233 -0.44600
O 	O 	0.62185 0.31595 0.07424 -0.38600
O 	O 	0.73352 0.43501 0.96092 -0.38400
C 	C 	0.72316 0.46797 0.98638 0.30100
C 	C 	0.52421 0.23055 0.98412 0.29400
O 	O 	0.56224 0.28847 0.97781 -0.39600
O 	O 	0.67538 0.44007 0.00631 -0.40200
O 	O 	0.65741 0.25465 0.06392 -0.35600
C 	C 	0.74028 0.22465 0.99765 0.30200
O 	O 	0.69642 0.34777 0.89465 -0.38100
O 	O 	0.66678 0.24752 0.87308 -0.41300
H 	H 	0.73832 0.36988 0.02462 0.15900
H 	H 	0.59903 0.22537 0.93049 0.17200
Cu	Cu	0.72497 0.33575 0.44782 0.92600
Cu	Cu	0.74120 0.29328 0.53388 0.86900
Cu	Cu	0.63280 0.29887 0.50747 0.89600
Cu	Cu	0.60244 0.33133 0.42997 0.89200
C 	C 	0.66398 0.31293 0.36548 0.25900
O 	O 	0.76005 0.42750 0.44837 -0.36500
C 	C 	0.68889 0.32168 0.59425 0.26100
O 	O 	0.62701 0.28323 0.44996 -0.64100
O 	O 	0.72636 0.34598 0.50707 -0.64100
O 	O 	0.77263 0.29828 0.44565 -0.37700
O 	O 	0.71764 0.23148 0.48799 -0.44500
O 	O 	0.63845 0.34031 0.37932 -0.38200
O 	O 	0.54105 0.24920 0.50341 -0.38400
C 	C 	0.50245 0.25343 0.47810 0.29900
C 	C 	0.73334 0.45168 0.46462 0.29400
O 	O 	0.67719 0.41422 0.47442 -0.39300
O 	O 	0.52465 0.29630 0.45463 -0.40000
O 	O 	0.70671 0.31264 0.38962 -0.35400
C 	C 	0.75282 0.24654 0.45992 0.29900
O 	O 	0.63759 0.29925 0.56649 -0.38000
O 	O 	0.74163 0.33378 0.58397 -0.41400
H 	H 	0.59934 0.23790 0.43707 0.15900
H 	H 	0.75223 0.39034 0.52176 0.17100
C 	C 	0.65993 0.26951 0.75983 0.07400
C 	C 	0.62682 0.24426 0.71947 -0.08400
C 	C 	0.66135 0.27263 0.68913 0.00700
C 	C 	0.72247 0.32898 0.69873 0.07200
C 	C 	0.75187 0.35917 0.73934 -0.08300
C 	C 	0.72127 0.32553 0.76945 0.00600
N 	N 	0.63108 0.25987 0.79204 -0.15200
C 	C 	0.67424 0.30849 0.82290 -0.00200
C 	C 	0.72992 0.35183 0.80919 -0.04400
N 	N 	0.73530 0.35979 0.66745 -0.15200
C 	C 	0.68333 0.32267 0.63725 -0.00300
C 	C 	0.63526 0.26935 0.65052 -0.04600
H 	H 	0.57595 0.20669 0.71223 0.05100
H 	H 	0.79458 0.40757 0.74707 0.05000
H 	H 	0.77599 0.38748 0.82846 0.04100
H 	H 	0.59448 0.22638 0.63100 0.04300
H 	H 	0.59085 0.21623 0.79546 0.08100
H 	H 	0.78107 0.39625 0.66373 0.08200
C 	C 	0.69500 0.33277 0.26731 0.07500
C 	C 	0.72578 0.33688 0.23453 -0.08200
C 	C 	0.69365 0.32843 0.19579 0.00700
C 	C 	0.63027 0.30613 0.18927 0.07500
C 	C 	0.59681 0.29333 0.22137 -0.08500
C 	C 	0.63220 0.31226 0.26072 0.01200
N 	N 	0.71035 0.32332 0.30372 -0.15100
C 	C 	0.65813 0.29882 0.32124 0.00300
C 	C 	0.60768 0.28837 0.29423 -0.04900
N 	N 	0.60228 0.27706 0.15051 -0.15200
C 	C 	0.64796 0.28275 0.13133 0.00400
C 	C 	0.70489 0.31200 0.15918 -0.04700
H 	H 	0.77086 0.34336 0.23874 0.05300
H 	H 	0.54534 0.26718 0.21582 0.05000
H 	H 	0.56486 0.28038 0.30231 0.03900
H 	H 	0.75172 0.33417 0.15145 0.04100
H 	H 	0.75708 0.34660 0.31940 0.09200
H 	H 	0.55919 0.26676 0.13620 0.08400
C 	C 	0.76193 0.51925 0.46623 -0.11200
C 	C 	0.72662 0.53853 0.44756 0.12400
C 	C 	0.75375 0.60314 0.45238 -0.10000
C 	C 	0.81733 0.64886 0.47195 0.00500
C 	C 	0.85350 0.62978 0.48942 0.05400
C 	C 	0.82504 0.56500 0.48678 -0.02200
N 	N 	0.66819 0.49569 0.42342 -0.20000
H 	H 	0.72640 0.61799 0.43884 0.05500
C 	C 	0.84648 0.71644 0.47183 -0.01400
N 	N 	0.91543 0.67316 0.50848 -0.19200
H 	H 	0.85218 0.55021 0.50073 0.03500
C 	C 	0.84906 0.75346 0.50581 -0.08100
C 	C 	0.87602 0.81758 0.50669 0.08500
C 	C 	0.89894 0.84442 0.47228 -0.03900
C 	C 	0.89433 0.80676 0.43781 -0.06700
C 	C 	0.86942 0.74330 0.43746 0.07400
H 	H 	0.83086 0.73253 0.53190 0.05000
N 	N 	0.88034 0.85307 0.54071 -0.19800
H 	H 	0.91204 0.82751 0.41157 0.04500
N 	N 	0.86858 0.70882 0.40435 -0.19600
H 	H 	0.86323 0.83276 0.56590 0.07900
H 	H 	0.90083 0.90102 0.54268 0.08300
H 	H 	0.88475 0.72884 0.37892 0.08000
H 	H 	0.85308 0.66241 0.40371 0.08800
H 	H 	0.94166 0.65856 0.52127 0.07800
H 	H 	0.93827 0.72159 0.51070 0.08500
H 	H 	0.65114 0.44901 0.41357 0.06600
H 	H 	0.64099 0.50998 0.41187 0.07900
C 	C 	0.77672 0.20976 0.44844 -0.12100
C 	C 	0.73406 0.14333 0.43549 0.12800
C 	C 	0.75783 0.10756 0.43525 -0.10300
C 	C 	0.82349 0.13724 0.44645 0.00500
C 	C 	0.86669 0.20411 0.45537 0.05300
C 	C 	0.84275 0.23976 0.45637 -0.02500
N 	N 	0.67055 0.11385 0.42272 -0.20400
H 	H 	0.72504 0.05644 0.42697 0.05500
C 	C 	0.84605 0.09780 0.45116 -0.01400
N 	N 	0.93092 0.23426 0.46353 -0.19200
H 	H 	0.87551 0.29083 0.46515 0.03300
C 	C 	0.85937 0.07547 0.41722 -0.08100
C 	C 	0.88475 0.04147 0.42107 0.08600
C 	C 	0.89746 0.03020 0.45976 -0.03900
C 	C 	0.88156 0.05015 0.49334 -0.06700
C 	C 	0.85571 0.08371 0.48945 0.07300
H 	H 	0.85072 0.08529 0.38781 0.05100
N 	N 	0.89666 0.01978 0.38759 -0.19600
H 	H 	0.89062 0.04072 0.52281 0.04400
N 	N 	0.84071 0.10251 0.52255 -0.19500
H 	H 	0.88844 0.02950 0.35933 0.08000
H 	H 	0.91282 0.99199 0.38905 0.08200
H 	H 	0.84889 0.09267 0.55078 0.07700
H 	H 	0.82009 0.12626 0.52060 0.08200
H 	H 	0.96237 0.28358 0.47098 0.07700
H 	H 	0.95034 0.20931 0.46181 0.08500
H 	H 	0.65237 0.13958 0.41903 0.08600
H 	H 	0.63897 0.06459 0.41463 0.08000
C 	C 	0.10348 0.05716 0.48137 -0.03900
C 	C 	0.14472 0.07304 0.51836 0.08600
C 	C 	0.21028 0.10463 0.51899 -0.08100
C 	C 	0.23559 0.12300 0.48387 -0.01300
C 	C 	0.19471 0.10941 0.44728 0.07300
C 	C 	0.12893 0.07626 0.44639 -0.06700
N 	N 	0.12190 0.05909 0.55338 -0.19800
H 	H 	0.24190 0.11589 0.54706 0.05100
C 	C 	0.30504 0.15665 0.48583 0.00500
N 	N 	0.21822 0.12790 0.41297 -0.19500
H 	H 	0.09724 0.06443 0.41820 0.04500
C 	C 	0.32785 0.12165 0.47529 -0.09900
C 	C 	0.39238 0.15222 0.47275 0.12200
C 	C 	0.43511 0.21912 0.48227 -0.11100
C 	C 	0.41269 0.25393 0.49439 -0.02100
C 	C 	0.34799 0.22341 0.49618 0.05500
H 	H 	0.29481 0.07048 0.46773 0.05500
N 	N 	0.41246 0.11720 0.46016 -0.20400
H 	H 	0.44567 0.30510 0.50208 0.04100
N 	N 	0.32740 0.25845 0.50750 -0.19200
H 	H 	0.38065 0.06785 0.45373 0.07900
H 	H 	0.45922 0.13831 0.45588 0.08000
H 	H 	0.35942 0.30775 0.51471 0.08000
H 	H 	0.27974 0.23734 0.50952 0.08500
H 	H 	0.18755 0.11730 0.38608 0.07900
H 	H 	0.26694 0.15326 0.41261 0.08600
H 	H 	0.07439 0.03998 0.55463 0.08400
H 	H 	0.15237 0.06932 0.58027 0.08000
C 	C 	0.75628 0.53562 0.98576 -0.11200
C 	C 	0.82374 0.57911 0.99580 0.12400
C 	C 	0.85337 0.64282 0.99344 -0.09800
C 	C 	0.81683 0.66416 0.98299 0.00400
C 	C 	0.74937 0.62095 0.97375 0.05500
C 	C 	0.71982 0.55697 0.97495 -0.02100
N 	N 	0.86013 0.56051 0.00879 -0.20400
H 	H 	0.90504 0.67621 0.00063 0.05300
C 	C 	0.84984 0.73190 0.98175 -0.01200
N 	N 	0.71276 0.64057 0.96394 -0.19200
H 	H 	0.66817 0.52357 0.96733 0.04100
C 	C 	0.86375 0.75207 0.94475 -0.08200
C 	C 	0.89499 0.81593 0.94232 0.08600
C 	C 	0.91478 0.86064 0.97801 -0.03900
C 	C 	0.89998 0.84034 0.01489 -0.06800
C 	C 	0.86730 0.77623 0.01713 0.07100
H 	H 	0.84948 0.71778 0.91765 0.05100
N 	N 	0.90510 0.83386 0.90567 -0.19800
H 	H 	0.91475 0.87471 0.04207 0.04400
N 	N 	0.85286 0.75761 0.05320 -0.19500
H 	H 	0.89192 0.80079 0.87970 0.08000
H 	H 	0.92424 0.88013 0.90230 0.08400
H 	H 	0.86640 0.79081 0.07918 0.07900
H 	H 	0.82767 0.71019 0.05583 0.08500
H 	H 	0.66299 0.60817 0.95697 0.08000
H 	H 	0.73305 0.68797 0.96339 0.08500
H 	H 	0.83959 0.51488 0.01421 0.07900
H 	H 	0.90995 0.59264 0.01501 0.07900
C 	C 	0.77562 0.19859 0.00745 -0.12300
C 	C 	0.84309 0.23860 0.01827 0.12600
C 	C 	0.87655 0.21236 0.01611 -0.10200
C 	C 	0.84358 0.14681 0.00541 0.00000
C 	C 	0.77604 0.10638 0.99945 0.05800
C 	C 	0.74264 0.13278 0.00014 -0.03000
N 	N 	0.87574 0.30181 0.03158 -0.20400
H 	H 	0.92835 0.24306 0.02241 0.05400
C 	C 	0.88006 0.12129 0.99856 -0.01000
N 	N 	0.74310 0.04244 0.99259 -0.19200
H 	H 	0.69084 0.10202 0.99324 0.03900
C 	C 	0.90833 0.11255 0.03204 -0.08400
C 	C 	0.93949 0.08441 0.02656 0.08500
C 	C 	0.94120 0.06362 0.98669 -0.03900
C 	C 	0.91503 0.07449 0.95329 -0.06600
C 	C 	0.88507 0.10387 0.95882 0.07200
H 	H 	0.90547 0.12712 0.06246 0.05100
N 	N 	0.96773 0.07765 0.05960 -0.19800
H 	H 	0.91739 0.05942 0.92285 0.04500
N 	N 	0.86125 0.11517 0.92597 -0.19500
H 	H 	0.96505 0.09197 0.08886 0.08000
H 	H 	0.99371 0.05950 0.05672 0.08300
H 	H 	0.86395 0.10088 0.89670 0.07700
H 	H 	0.84111 0.13930 0.92909 0.08100
H 	H 	0.69318 0.01297 0.98711 0.07900
H 	H 	0.76654 0.02136 0.99365 0.08600
H 	H 	0.85196 0.32157 0.03778 0.08700
H 	H 	0.92567 0.33145 0.03788 0.07900
C 	C 	0.12561 0.05846 0.97152 -0.03700
C 	C 	0.17478 0.10918 0.00255 0.08100
C 	C 	0.23873 0.13944 0.99879 -0.07600
C 	C 	0.25473 0.11534 0.96742 -0.01600
C 	C 	0.20565 0.06300 0.93725 0.07300
C 	C 	0.14164 0.03694 0.93869 -0.06400
N 	N 	0.16117 0.12703 0.03680 -0.19700
H 	H 	0.27643 0.17941 0.02189 0.04700
C 	C 	0.32268 0.14128 0.96914 0.00800
N 	N 	0.21953 0.03720 0.90717 -0.19400
H 	H 	0.10399 0.99822 0.91492 0.04200
C 	C 	0.35265 0.13027 0.00020 -0.10500
C 	C 	0.41910 0.16311 0.00771 0.12700
C 	C 	0.45483 0.19943 0.97943 -0.11600
C 	C 	0.42427 0.20791 0.94703 -0.02400
C 	C 	0.35907 0.18154 0.94267 0.05300
H 	H 	0.32482 0.10008 0.02072 0.05600
N 	N 	0.44854 0.16365 0.04347 -0.20400
H 	H 	0.45161 0.23635 0.92567 0.03900
N 	N 	0.33198 0.19531 0.91330 -0.19200
H 	H 	0.42174 0.13202 0.06209 0.08400
H 	H 	0.49667 0.19965 0.05522 0.10000
H 	H 	0.35909 0.22428 0.89356 0.07900
H 	H 	0.28430 0.17846 0.91013 0.08500
H 	H 	0.18293 0.99912 0.88478 0.07700
H 	H 	0.26639 0.05379 0.90599 0.08600
H 	H 	0.11548 0.09978 0.04363 0.08300
H 	H 	0.19753 0.16668 0.05839 0.07900
