data_crystal

_cell_length_a 25.79379
_cell_length_b 23.03558
_cell_length_c 51.86065
_cell_angle_alpha 90.58051
_cell_angle_beta  91.37817
_cell_angle_gamma 110.74682

_symmetry_space_group_name_	'P 1'
_symmetry_space_group_name_H-M	'P 1'

loop_
_symmetry_equiv_pos_as_xyz
  x,y,z

loop_
_atom_site_label
_atom_site_type_symbol
_atom_site_fract_x
_atom_site_fract_y
_atom_site_fract_z
_atom_site_charge
Ni	Ni	0.71057 0.30943 0.88291 1.10200
O 	O 	0.63995 0.26707 0.86089 -0.70200
Ni	Ni	0.58557 0.29574 0.87892 1.10200
O 	O 	0.75433 0.26997 0.86040 -0.37000
O 	O 	0.69149 0.17294 0.86725 -0.41400
O 	O 	0.72498 0.38037 0.85724 -0.39500
Ni	Ni	0.61261 0.17708 0.86152 1.06400
O 	O 	0.73966 0.39353 0.93585 -0.41000
O 	O 	0.60700 0.17448 0.90063 -0.41100
O 	O 	0.52187 0.25889 0.85303 -0.38300
O 	O 	0.65274 0.32642 0.90383 -0.70100
O 	O 	0.78246 0.35838 0.90370 -0.37000
O 	O 	0.54355 0.34629 0.89597 -0.36600
O 	O 	0.62011 0.43375 0.89445 -0.41500
Ni	Ni	0.68141 0.41350 0.91487 1.07600
H 	H 	0.64375 0.28141 0.84286 0.15300
H 	H 	0.64625 0.30036 0.91932 0.16300
C 	C 	0.56537 0.18291 0.91195 0.29300
O 	O 	0.73966 0.45583 0.88832 -0.39800
C 	C 	0.73571 0.20951 0.85564 0.29100
C 	C 	0.50852 0.20078 0.84483 0.29700
C 	C 	0.73630 0.43886 0.86391 0.31600
C 	C 	0.56798 0.40625 0.90041 0.28200
C 	C 	0.78483 0.39064 0.92537 0.29800
O 	O 	0.54517 0.22429 0.90324 -0.36700
O 	O 	0.52960 0.16269 0.85662 -0.41500
Ni	Ni	0.62216 0.30183 0.55937 1.10100
O 	O 	0.68403 0.32055 0.53314 -0.69900
Ni	Ni	0.74397 0.30436 0.55390 1.09900
O 	O 	0.57798 0.34734 0.53990 -0.36300
O 	O 	0.65576 0.43323 0.53676 -0.41300
O 	O 	0.57551 0.22270 0.53873 -0.36200
Ni	Ni	0.71365 0.40407 0.51902 1.07200
O 	O 	0.56722 0.17812 0.58781 -0.41100
O 	O 	0.77444 0.45899 0.54439 -0.40000
O 	O 	0.81113 0.33748 0.53018 -0.37800
O 	O 	0.67906 0.27707 0.57848 -0.70200
O 	O 	0.56343 0.27650 0.58674 -0.38200
O 	O 	0.79071 0.27239 0.57856 -0.37700
O 	O 	0.72425 0.17526 0.57795 -0.41500
Ni	Ni	0.64860 0.18753 0.58263 1.06400
H 	H 	0.67261 0.29025 0.51855 0.15800
H 	H 	0.68852 0.29877 0.59547 0.15500
C 	C 	0.79672 0.43931 0.56397 0.32500
O 	O 	0.63523 0.17037 0.54412 -0.41900
C 	C 	0.60262 0.40420 0.53186 0.27700
C 	C 	0.81525 0.37596 0.51081 0.29200
C 	C 	0.59298 0.17768 0.53197 0.29300
C 	C 	0.77245 0.21487 0.58665 0.29700
C 	C 	0.54951 0.22124 0.59739 0.29600
O 	O 	0.76995 0.38600 0.57441 -0.40700
O 	O 	0.77078 0.38119 0.49941 -0.41200
Ni	Ni	0.01304 0.94996 0.73678 1.10100
O 	O 	0.02237 0.88087 0.71432 -0.70600
Ni	Ni	0.06154 0.92975 0.68440 1.09900
O 	O 	0.97273 0.88785 0.76438 -0.36400
O 	O 	0.91120 0.82349 0.73477 -0.41000
O 	O 	0.08737 0.95543 0.75358 -0.38500
Ni	Ni	0.95343 0.81890 0.70143 1.06700
O 	O 	0.04123 0.10347 0.72948 -0.42000
O 	O 	0.92424 0.88253 0.68558 -0.41400
O 	O 	0.07464 0.85853 0.66549 -0.37900
O 	O 	0.04150 0.99510 0.70441 -0.68900
O 	O 	0.01082 0.02372 0.75896 -0.38400
O 	O 	0.11647 0.99344 0.66132 -0.36900
O 	O 	0.16197 0.05140 0.69652 -0.42300
Ni	Ni	0.09918 0.07436 0.71349 1.06700
H 	H 	0.04593 0.86056 0.72294 0.15400
H 	H 	0.01085 0.00434 0.69575 0.13700
C 	C 	0.94671 0.91551 0.66556 0.30200
O 	O 	0.12467 0.06009 0.74959 -0.40400
C 	C 	0.93502 0.83328 0.75804 0.29200
C 	C 	0.03331 0.80475 0.66271 0.28300
C 	C 	0.12959 0.00762 0.75633 0.31200
C 	C 	0.16016 0.03759 0.67166 0.27100
C 	C 	0.01042 0.07690 0.74929 0.29700
O 	O 	0.99700 0.92094 0.65852 -0.36500
O 	O 	0.98166 0.80109 0.66673 -0.40500
Ni	Ni	0.24929 0.67601 0.38745 1.10000
O 	O 	0.31605 0.71335 0.36442 -0.70300
Ni	Ni	0.37662 0.70153 0.38588 1.10200
O 	O 	0.19848 0.69625 0.36082 -0.37400
O 	O 	0.25446 0.79883 0.36088 -0.41300
O 	O 	0.23873 0.59489 0.36762 -0.39800
Ni	Ni	0.33605 0.80161 0.35878 1.06400
O 	O 	0.23071 0.61765 0.44527 -0.40800
O 	O 	0.34389 0.82300 0.39727 -0.41500
O 	O 	0.43703 0.73203 0.35945 -0.37800
O 	O 	0.31238 0.67668 0.41091 -0.69900
O 	O 	0.18121 0.63181 0.40956 -0.37200
O 	O 	0.42532 0.66565 0.40773 -0.36200
O 	O 	0.35284 0.57425 0.40984 -0.41400
Ni	Ni	0.29120 0.59654 0.42771 1.07700
H 	H 	0.31156 0.69060 0.34773 0.15400
H 	H 	0.31810 0.70927 0.42436 0.16200
C 	C 	0.38766 0.82405 0.41086 0.29300
O 	O 	0.23128 0.53697 0.40376 -0.39800
C 	C 	0.21077 0.75268 0.35171 0.29100
C 	C 	0.44510 0.78516 0.34769 0.29300
C 	C 	0.22934 0.54111 0.37857 0.32200
C 	C 	0.40513 0.60756 0.41502 0.28100
C 	C 	0.18307 0.61099 0.43327 0.29500
O 	O 	0.41323 0.78536 0.40531 -0.36200
O 	O 	0.42032 0.82359 0.35574 -0.41000
Ni	Ni	0.36138 0.71037 0.05066 1.10200
O 	O 	0.28827 0.67563 0.02985 -0.70300
Ni	Ni	0.23444 0.68054 0.05607 1.10000
O 	O 	0.40366 0.66975 0.02787 -0.36300
O 	O 	0.33365 0.57586 0.03009 -0.41600
O 	O 	0.38777 0.78731 0.02745 -0.36000
Ni	Ni	0.26284 0.59028 0.01668 1.07300
O 	O 	0.41138 0.84113 0.07651 -0.41200
O 	O 	0.21302 0.53569 0.04435 -0.40100
O 	O 	0.16035 0.62723 0.03811 -0.37800
O 	O 	0.30867 0.72726 0.07463 -0.70300
O 	O 	0.43076 0.75119 0.07295 -0.38200
O 	O 	0.19220 0.70682 0.08428 -0.37400
O 	O 	0.24394 0.80916 0.07866 -0.41200
Ni	Ni	0.32667 0.81634 0.07721 1.06600
H 	H 	0.28754 0.70336 0.01550 0.16700
H 	H 	0.31154 0.71027 0.09185 0.15500
C 	C 	0.21565 0.54943 0.06915 0.32700
O 	O 	0.32046 0.82486 0.03849 -0.41500
C 	C 	0.38251 0.61026 0.02164 0.27300
C 	C 	0.15421 0.60759 0.01366 0.29600
C 	C 	0.36120 0.82609 0.02372 0.29700
C 	C 	0.20623 0.76562 0.09141 0.29300
C 	C 	0.43968 0.80585 0.08416 0.29400
O 	O 	0.23559 0.60711 0.07758 -0.40600
O 	O 	0.19622 0.60394 0.00039 -0.40900
Ni	Ni	0.93826 0.01955 0.25516 1.09400
O 	O 	0.95611 0.09477 0.23159 -0.70500
Ni	Ni	0.92789 0.05260 0.19763 1.09500
O 	O 	0.97197 0.07596 0.28687 -0.37200
O 	O 	0.05276 0.12271 0.26597 -0.41700
O 	O 	0.86257 0.02850 0.26089 -0.40600
Ni	Ni	0.03493 0.14054 0.22814 1.06300
O 	O 	0.88950 0.86350 0.24465 -0.41300
O 	O 	0.05337 0.06470 0.21730 -0.42500
O 	O 	0.94130 0.13101 0.17687 -0.38900
O 	O 	0.92178 0.97869 0.22032 -0.69700
O 	O 	0.91597 0.94048 0.27672 -0.37000
O 	O 	0.87820 0.99886 0.16844 -0.37500
O 	O 	0.81132 0.95056 0.19712 -0.42200
Ni	Ni	0.85235 0.90824 0.22120 1.07200
H 	H 	0.93616 0.12282 0.23631 0.15500
H 	H 	0.95120 0.96188 0.21663 0.15600
C 	C 	0.03852 0.03762 0.19457 0.30700
O 	O 	0.81486 0.92575 0.25296 -0.40100
C 	C 	0.01977 0.12223 0.28506 0.28700
C 	C 	0.99049 0.17609 0.17846 0.30900
C 	C 	0.81544 0.98097 0.25959 0.33200
C 	C 	0.82663 0.96430 0.17318 0.28900
C 	C 	0.91466 0.88614 0.26718 0.30300
O 	O 	0.99688 0.04397 0.18116 -0.37700
O 	O 	0.03298 0.16690 0.19051 -0.41800
C 	C 	0.07250 0.31806 0.14059 0.00700
C 	C 	0.12863 0.33345 0.13486 -0.04000
C 	C 	0.15224 0.37611 0.11566 -0.03800
C 	C 	0.12018 0.40480 0.10226 0.00600
C 	C 	0.06366 0.38832 0.10750 -0.03600
C 	C 	0.04000 0.34558 0.12678 -0.04600
C 	C 	0.14548 0.45175 0.08253 0.01200
C 	C 	0.19295 0.49960 0.08781 -0.15000
C 	C 	0.04971 0.27712 0.16255 0.01000
C 	C 	0.00272 0.22715 0.15990 -0.16000
H 	H 	0.15406 0.31250 0.14540 0.03800
H 	H 	0.19550 0.38712 0.11130 0.04000
H 	H 	0.03839 0.40964 0.09707 0.04200
H 	H 	0.99686 0.33490 0.13129 0.04600
H 	H 	0.12309 0.44967 0.06430 0.04000
H 	H 	0.21263 0.50469 0.10689 0.07500
H 	H 	0.07551 0.28315 0.17999 0.01900
H 	H 	0.97581 0.22157 0.14289 0.08700
C 	C 	0.68799 0.91891 0.13672 0.00800
C 	C 	0.65269 0.95180 0.13130 -0.03800
C 	C 	0.60530 0.92500 0.11556 -0.03800
C 	C 	0.59195 0.86419 0.10574 0.01000
C 	C 	0.62874 0.83256 0.11007 -0.04000
C 	C 	0.67645 0.85965 0.12561 -0.03800
C 	C 	0.53960 0.83336 0.09092 0.01000
C 	C 	0.49133 0.83529 0.09929 -0.14100
C 	C 	0.73216 0.94280 0.15672 0.00600
C 	C 	0.78454 0.94783 0.15213 -0.14700
H 	H 	0.66147 0.99771 0.13967 0.04200
H 	H 	0.57853 0.95104 0.11133 0.04300
H 	H 	0.61945 0.78621 0.10208 0.04300
H 	H 	0.70333 0.83370 0.12979 0.03800
H 	H 	0.54013 0.80638 0.07366 0.04900
H 	H 	0.49053 0.86182 0.11662 0.06200
H 	H 	0.72176 0.95681 0.17541 0.03600
H 	H 	0.79616 0.93953 0.13281 0.07900
C 	C 	0.08379 0.92502 0.15476 -0.01000
C 	C 	0.07169 0.86122 0.15794 -0.03200
C 	C 	0.10574 0.83222 0.14722 -0.04600
C 	C 	0.15132 0.86666 0.13264 0.01300
C 	C 	0.16284 0.93027 0.12923 -0.05000
C 	C 	0.12909 0.95925 0.14008 -0.01100
C 	C 	0.18908 0.83760 0.12196 0.00400
C 	C 	0.16948 0.78391 0.10835 -0.14600
C 	C 	0.04916 0.95604 0.16691 0.03600
C 	C 	0.07215 0.00486 0.18305 -0.17600
H 	H 	0.03669 0.83442 0.16919 0.03200
H 	H 	0.09722 0.78341 0.15057 0.03900
H 	H 	0.19800 0.95727 0.11811 0.04500
H 	H 	0.13826 0.00836 0.13720 0.02600
H 	H 	0.23331 0.86446 0.12229 0.01600
H 	H 	0.12564 0.75570 0.10838 0.08000
H 	H 	0.00451 0.93760 0.16335 0.02300
H 	H 	0.11600 0.01958 0.18838 0.07700
C 	C 	0.57454 0.89255 0.31493 0.01000
C 	C 	0.62791 0.91981 0.32612 -0.03700
C 	C 	0.67430 0.93999 0.31051 -0.03500
C 	C 	0.66753 0.93452 0.28346 0.01100
C 	C 	0.61375 0.91028 0.27236 -0.04000
C 	C 	0.56754 0.88925 0.28799 -0.04000
C 	C 	0.71564 0.94165 0.26700 0.00600
C 	C 	0.76578 0.98606 0.27161 -0.13100
C 	C 	0.52586 0.86924 0.33153 0.00500
C 	C 	0.49277 0.80899 0.33059 -0.13900
H 	H 	0.63364 0.92357 0.34691 0.05000
H 	H 	0.71542 0.95732 0.31947 0.05000
H 	H 	0.60790 0.90563 0.25158 0.03700
H 	H 	0.52638 0.86972 0.27915 0.03500
H 	H 	0.71034 0.90827 0.25127 0.03300
H 	H 	0.77048 0.02377 0.28528 0.06500
H 	H 	0.51897 0.90077 0.34565 0.04500
H 	H 	0.50257 0.77653 0.31800 0.07300
C 	C 	0.10534 0.26860 0.32373 0.00400
C 	C 	0.16295 0.29789 0.32713 -0.04000
C 	C 	0.18479 0.35021 0.34332 -0.04000
C 	C 	0.14920 0.37406 0.35617 0.00800
C 	C 	0.09163 0.34320 0.35377 -0.04000
C 	C 	0.06969 0.29109 0.33738 -0.04000
C 	C 	0.17207 0.43098 0.37238 0.01000
C 	C 	0.20691 0.48394 0.36259 -0.14600
C 	C 	0.08335 0.22144 0.30285 0.00300
C 	C 	0.04013 0.16849 0.30632 -0.15200
H 	H 	0.19081 0.28101 0.31667 0.03700
H 	H 	0.22935 0.37272 0.34560 0.04100
H 	H 	0.06386 0.36074 0.36395 0.04200
H 	H 	0.02515 0.26969 0.33459 0.03800
H 	H 	0.15788 0.43050 0.39198 0.04500
H 	H 	0.21724 0.48558 0.34235 0.07400
H 	H 	0.10442 0.22920 0.28460 0.01400
H 	H 	0.01922 0.16002 0.32459 0.07800
C 	C 	0.00769 0.83516 0.31248 0.00600
C 	C 	0.03296 0.80426 0.29633 -0.04000
C 	C 	0.06650 0.77399 0.30693 -0.03900
C 	C 	0.07592 0.77528 0.33372 0.00700
C 	C 	0.04939 0.80449 0.34989 -0.03500
C 	C 	0.01591 0.83495 0.33929 -0.04500
C 	C 	0.11559 0.74879 0.34486 0.00900
C 	C 	0.16812 0.76789 0.33701 -0.14200
C 	C 	0.97621 0.87171 0.30127 0.01100
C 	C 	0.93693 0.84692 0.28281 -0.14400
H 	H 	0.02761 0.80491 0.27556 0.03600
H 	H 	0.08609 0.75066 0.29430 0.03800
H 	H 	0.05608 0.80523 0.37062 0.04300
H 	H 	0.99677 0.85884 0.35189 0.05200
H 	H 	0.10372 0.71922 0.36154 0.04200
H 	H 	0.18101 0.80133 0.32166 0.06400
H 	H 	0.98638 0.91968 0.30763 0.04300
H 	H 	0.92534 0.79814 0.27739 0.07800
C 	C 	0.55976 0.06307 0.47618 -0.03600
C 	C 	0.50246 0.03128 0.47895 0.00500
C 	C 	0.47433 0.04998 0.49825 -0.05500
C 	C 	0.50300 0.09912 0.51521 0.02300
C 	C 	0.56067 0.13043 0.51274 -0.08100
C 	C 	0.58849 0.11250 0.49302 0.00700
C 	C 	0.47152 0.97810 0.46176 0.03700
C 	C 	0.46421 0.91762 0.46950 -0.06200
C 	C 	0.43555 0.86663 0.45336 0.02900
C 	C 	0.41432 0.87625 0.42907 -0.08200
C 	C 	0.42075 0.93677 0.42162 0.01200
C 	C 	0.44909 0.98760 0.43782 -0.02800
C 	C 	0.42687 0.80463 0.46213 0.07100
C 	C 	0.45540 0.04948 0.42968 0.07200
C 	C 	0.58940 0.04489 0.45623 0.08500
C 	C 	0.47329 0.11550 0.53565 0.08200
N 	N 	0.41991 0.75496 0.46914 -0.11900
N 	N 	0.46049 0.09906 0.42318 -0.11500
N 	N 	0.44936 0.12852 0.55198 -0.10700
N 	N 	0.61309 0.03029 0.44023 -0.11800
H 	H 	0.63272 0.13654 0.49104 0.03500
H 	H 	0.43015 0.02568 0.50023 0.04700
H 	H 	0.48086 0.91035 0.48809 0.05800
H 	H 	0.40455 0.94434 0.40295 0.03400
C 	C 	0.96566 0.47890 0.50627 -0.03500
C 	C 	0.97341 0.47829 0.47945 0.02400
C 	C 	0.92986 0.44162 0.46304 -0.06000
C 	C 	0.87853 0.40621 0.47308 0.02500
C 	C 	0.87027 0.40811 0.49987 -0.08100
C 	C 	0.91437 0.44358 0.51632 0.00600
C 	C 	0.02787 0.51379 0.46847 0.01800
C 	C 	0.06907 0.48730 0.46793 -0.05900
C 	C 	0.12021 0.51894 0.45691 0.02600
C 	C 	0.13056 0.57817 0.44626 -0.08100
C 	C 	0.08937 0.60484 0.44698 0.01400
C 	C 	0.03825 0.57311 0.45811 -0.04800
C 	C 	0.16109 0.48940 0.45593 0.06400
C 	C 	0.99675 0.60176 0.45892 0.09600
C 	C 	0.01012 0.51575 0.52357 0.07800
C 	C 	0.83552 0.36610 0.45591 0.07400
N 	N 	0.19376 0.46563 0.45520 -0.12700
N 	N 	0.96347 0.62468 0.45958 -0.11900
N 	N 	0.80109 0.33396 0.44214 -0.11300
N 	N 	0.04578 0.54527 0.53741 -0.11900
H 	H 	0.90851 0.44429 0.53694 0.04000
H 	H 	0.93617 0.44021 0.44247 0.05400
H 	H 	0.06105 0.44168 0.47591 0.05200
H 	H 	0.09712 0.65028 0.43888 0.03800
C 	C 	0.55231 0.52823 0.50629 -0.04100
C 	C 	0.52035 0.49803 0.48439 0.01900
C 	C 	0.51370 0.43618 0.47866 -0.06000
C 	C 	0.53913 0.40437 0.49438 0.02100
C 	C 	0.57130 0.43461 0.51633 -0.08900
C 	C 	0.57742 0.49636 0.52217 0.00900
C 	C 	0.49252 0.53032 0.46761 0.02400
C 	C 	0.51803 0.55826 0.44505 -0.06200
C 	C 	0.49054 0.58512 0.42795 0.03200
C 	C 	0.43695 0.58415 0.43350 -0.09100
C 	C 	0.41225 0.55782 0.45647 0.01700
C 	C 	0.43961 0.53078 0.47346 -0.04400
C 	C 	0.51685 0.61172 0.40441 0.07600
C 	C 	0.41291 0.50301 0.49676 0.09000
C 	C 	0.55969 0.59198 0.51252 0.09000
C 	C 	0.53371 0.34158 0.48731 0.06500
N 	N 	0.53793 0.63304 0.38555 -0.10700
N 	N 	0.39157 0.48075 0.51543 -0.11700
N 	N 	0.52937 0.29131 0.48165 -0.10900
N 	N 	0.56556 0.64305 0.51749 -0.11400
H 	H 	0.60222 0.51977 0.53896 0.04000
H 	H 	0.48895 0.41296 0.46182 0.05300
H 	H 	0.55889 0.55813 0.44064 0.05300
H 	H 	0.37139 0.55787 0.46096 -0.00100
C 	C 	0.90435 0.04207 0.63572 0.01200
C 	C 	0.91567 0.07527 0.61277 -0.04400
C 	C 	0.88138 0.10694 0.60422 -0.03600
C 	C 	0.83603 0.10647 0.61885 0.00300
C 	C 	0.82595 0.07503 0.64223 -0.03900
C 	C 	0.86029 0.04359 0.65080 -0.04600
C 	C 	0.79560 0.13293 0.60848 0.00800
C 	C 	0.81226 0.19081 0.59933 -0.15000
C 	C 	0.93877 0.00593 0.64404 -0.01800
C 	C 	0.91497 0.94661 0.65100 -0.12400
H 	H 	0.95009 0.07516 0.60122 0.04200
H 	H 	0.88912 0.13035 0.58593 0.04300
H 	H 	0.79113 0.07443 0.65364 0.03100
H 	H 	0.85229 0.01977 0.66900 0.03500
H 	H 	0.75165 0.10525 0.60895 0.02300
H 	H 	0.85582 0.22019 0.60079 0.08000
H 	H 	0.98363 0.02846 0.64521 0.02800
H 	H 	0.87020 0.92393 0.64912 0.07600
C 	C 	0.30529 0.13880 0.65029 0.00600
C 	C 	0.33039 0.10026 0.63880 -0.03900
C 	C 	0.38040 0.12631 0.62607 -0.03900
C 	C 	0.40638 0.19118 0.62511 0.01000
C 	C 	0.38105 0.22955 0.63638 -0.04100
C 	C 	0.33109 0.20352 0.64914 -0.04000
C 	C 	0.45800 0.21918 0.61067 0.00900
C 	C 	0.50170 0.20098 0.61451 -0.13700
C 	C 	0.25477 0.11197 0.66560 0.00100
C 	C 	0.21028 0.06473 0.65620 -0.14300
H 	H 	0.31157 0.05025 0.64001 0.03900
H 	H 	0.39876 0.09612 0.61685 0.04400
H 	H 	0.40026 0.27958 0.63542 0.04100
H 	H 	0.31244 0.23369 0.65815 0.03600
H 	H 	0.46022 0.25510 0.59685 0.05000
H 	H 	0.49963 0.16584 0.62868 0.06200
H 	H 	0.25309 0.13314 0.68424 0.02900
H 	H 	0.21066 0.04630 0.63685 0.07500
C 	C 	0.99545 0.68887 0.61013 0.03000
C 	C 	0.94919 0.64832 0.62263 -0.04500
C 	C 	0.91122 0.59757 0.60928 -0.03200
C 	C 	0.91954 0.58579 0.58334 0.00200
C 	C 	0.96681 0.62495 0.57114 -0.02100
C 	C 	0.00453 0.67629 0.58446 -0.05800
C 	C 	0.87564 0.53777 0.56793 0.01500
C 	C 	0.84461 0.48368 0.57832 -0.15200
C 	C 	0.02759 0.75004 0.62206 -0.00300
C 	C 	0.04140 0.75523 0.64729 -0.13100
H 	H 	0.94082 0.65827 0.64224 0.03900
H 	H 	0.87396 0.56935 0.61872 0.03700
H 	H 	0.97328 0.61690 0.55105 0.04600
H 	H 	0.03968 0.70757 0.57452 0.05000
H 	H 	0.86885 0.54673 0.54782 0.03900
H 	H 	0.85502 0.47174 0.59748 0.07900
H 	H 	0.03078 0.79152 0.61139 0.04700
H 	H 	0.04424 0.71522 0.65731 0.05700
C 	C 	0.92841 0.42472 0.95430 -0.03800
C 	C 	0.94130 0.48602 0.96375 0.01700
C 	C 	0.90361 0.51653 0.95978 -0.05700
C 	C 	0.85303 0.48646 0.94667 0.02700
C 	C 	0.83909 0.42424 0.93802 -0.08100
C 	C 	0.87724 0.39402 0.94166 0.01300
C 	C 	0.99494 0.51944 0.97719 0.03900
C 	C 	0.03657 0.56473 0.96403 -0.07300
C 	C 	0.08779 0.59682 0.97631 0.03100
C 	C 	0.09808 0.58240 0.00187 -0.08800
C 	C 	0.05558 0.53890 0.01537 0.01900
C 	C 	0.00400 0.50767 0.00322 -0.05900
C 	C 	0.12898 0.64564 0.96281 0.06900
C 	C 	0.96069 0.46336 0.01752 0.10000
C 	C 	0.96757 0.39322 0.95740 0.09100
C 	C 	0.81668 0.52059 0.94129 0.06400
N 	N 	0.16196 0.68475 0.95201 -0.11000
N 	N 	0.92599 0.42783 0.02895 -0.11900
N 	N 	0.78764 0.54801 0.93700 -0.12700
N 	N 	0.99897 0.36803 0.95990 -0.11600
H 	H 	0.86691 0.34648 0.93481 0.04300
H 	H 	0.91404 0.56406 0.96667 0.05400
H 	H 	0.02895 0.57502 0.94423 0.05500
H 	H 	0.06323 0.52809 0.03509 0.04000
C 	C 	0.43313 0.99140 0.00357 -0.02800
C 	C 	0.44147 0.98333 0.97721 0.03700
C 	C 	0.42023 0.92371 0.96579 -0.05900
C 	C 	0.39152 0.87217 0.98054 0.03100
C 	C 	0.38561 0.87997 0.00717 -0.08100
C 	C 	0.40566 0.93974 0.01842 0.01400
C 	C 	0.47280 0.03710 0.96144 0.00400
C 	C 	0.53069 0.06335 0.96457 -0.05300
C 	C 	0.56117 0.11380 0.94971 0.02000
C 	C 	0.53373 0.13708 0.93080 -0.08100
C 	C 	0.47560 0.11204 0.92830 0.00700
C 	C 	0.44508 0.06252 0.94359 -0.03700
C 	C 	0.62025 0.14264 0.95454 0.07100
C 	C 	0.38531 0.03806 0.94085 0.08300
C 	C 	0.45242 0.05259 0.01549 0.07100
C 	C 	0.36575 0.81217 0.96799 0.07500
N 	N 	0.66757 0.16575 0.95842 -0.11500
N 	N 	0.33743 0.01843 0.93867 -0.11800
N 	N 	0.34491 0.76412 0.95793 -0.11500
N 	N 	0.46789 0.10163 0.02501 -0.11600
H 	H 	0.40055 0.94587 0.03886 0.03000
H 	H 	0.42564 0.91762 0.94538 0.05900
H 	H 	0.55191 0.04470 0.97873 0.05000
H 	H 	0.45423 0.12998 0.91394 0.04900
C 	C 	0.54658 0.50022 0.95649 -0.04500
C 	C 	0.49065 0.49413 0.95249 0.02400
C 	C 	0.46072 0.46117 0.93077 -0.06300
C 	C 	0.48591 0.43367 0.91318 0.03200
C 	C 	0.54168 0.43886 0.91741 -0.09400
C 	C 	0.57179 0.47273 0.93896 0.01500
C 	C 	0.46359 0.52391 0.97054 0.01900
C 	C 	0.46715 0.58515 0.96644 -0.05900
C 	C 	0.44217 0.61456 0.98326 0.02100
C 	C 	0.41293 0.58218 0.00460 -0.08600
C 	C 	0.41001 0.52095 0.00879 0.00500
C 	C 	0.43511 0.49174 0.99190 -0.04100
C 	C 	0.44623 0.67756 0.97820 0.07500
C 	C 	0.43150 0.42875 0.99662 0.08700
C 	C 	0.57822 0.53417 0.97869 0.08900
C 	C 	0.45475 0.40174 0.89051 0.07600
N 	N 	0.44977 0.72810 0.97413 -0.10300
N 	N 	0.42865 0.37830 0.00038 -0.11600
N 	N 	0.42979 0.37616 0.87235 -0.10900
N 	N 	0.60352 0.56137 0.99647 -0.11700
H 	H 	0.61458 0.47661 0.94235 -0.00300
H 	H 	0.41787 0.45720 0.92753 0.05200
H 	H 	0.48942 0.60995 0.95007 0.05400
H 	H 	0.38805 0.49599 0.02519 0.04000
C 	C 	0.90728 0.11852 0.79042 0.00800
C 	C 	0.84923 0.09435 0.78839 -0.04200
C 	C 	0.81815 0.12609 0.79972 -0.04000
C 	C 	0.84487 0.18161 0.81380 0.00700
C 	C 	0.90296 0.20640 0.81546 -0.03900
C 	C 	0.93410 0.17475 0.80402 -0.03900
C 	C 	0.81203 0.21294 0.82740 0.00300
C 	C 	0.77155 0.18083 0.84307 -0.14600
C 	C 	0.93968 0.08389 0.77881 0.00400
C 	C 	0.98100 0.11198 0.76286 -0.13800
H 	H 	0.82820 0.05113 0.77789 0.03500
H 	H 	0.77332 0.10729 0.79777 0.03200
H 	H 	0.92395 0.24939 0.82612 0.04400
H 	H 	0.97893 0.19347 0.80599 0.04400
H 	H 	0.82219 0.26260 0.82522 0.04100
H 	H 	0.76304 0.13159 0.84577 0.07300
H 	H 	0.92664 0.03411 0.78163 0.03800
H 	H 	0.99125 0.16088 0.75869 0.07400
C 	C 	0.26516 0.06317 0.79588 0.00100
C 	C 	0.27811 0.09143 0.82041 -0.03600
C 	C 	0.33078 0.10411 0.83159 -0.03900
C 	C 	0.37120 0.08944 0.81814 0.00800
C 	C 	0.35735 0.05775 0.79432 -0.04300
C 	C 	0.30452 0.04487 0.78313 -0.03800
C 	C 	0.42905 0.11280 0.82781 0.00600
C 	C 	0.45778 0.17414 0.82864 -0.14800
C 	C 	0.21389 0.06121 0.78223 0.01800
C 	C 	0.17916 0.00840 0.77117 -0.16800
H 	H 	0.24792 0.10542 0.83043 0.04300
H 	H 	0.34097 0.12767 0.85023 0.04900
H 	H 	0.38821 0.04568 0.78397 0.03400
H 	H 	0.29503 0.02328 0.76410 0.03600
H 	H 	0.44687 0.08028 0.83568 0.03200
H 	H 	0.44009 0.20558 0.81959 0.08000
H 	H 	0.20353 0.10304 0.78201 0.03700
H 	H 	0.18735 0.96549 0.77318 0.09000
C 	C 	0.80790 0.59368 0.83066 0.01000
C 	C 	0.77547 0.59912 0.80930 -0.03900
C 	C 	0.79830 0.64436 0.79087 -0.03900
C 	C 	0.85342 0.68530 0.79380 0.00600
C 	C 	0.88577 0.68000 0.81524 -0.03800
C 	C 	0.86285 0.63492 0.83372 -0.03800
C 	C 	0.87825 0.72987 0.77316 0.00400
C 	C 	0.91016 0.78925 0.77873 -0.14600
C 	C 	0.78381 0.54688 0.85059 0.00800
C 	C 	0.75684 0.48670 0.84406 -0.14400
H 	H 	0.73259 0.56854 0.80704 0.04000
H 	H 	0.77312 0.64764 0.77432 0.03800
H 	H 	0.92884 0.71002 0.81737 0.04200
H 	H 	0.88807 0.63144 0.85022 0.04500
H 	H 	0.86841 0.71447 0.75316 0.01900
H 	H 	0.91908 0.80508 0.79871 0.08400
H 	H 	0.79176 0.56108 0.87079 0.04700
H 	H 	0.75179 0.47219 0.82386 0.07400
