data_crystal

_cell_length_a 34.88719
_cell_length_b 35.99476
_cell_length_c 35.31132
_cell_angle_alpha 95.56082
_cell_angle_beta  95.56184
_cell_angle_gamma 125.35899

_symmetry_space_group_name_	'P 1'
_symmetry_space_group_name_H-M	'P 1'

loop_
_symmetry_equiv_pos_as_xyz
  x,y,z

loop_
_atom_site_label
_atom_site_type_symbol
_atom_site_fract_x
_atom_site_fract_y
_atom_site_fract_z
_atom_site_charge
C 	C 	0.97945 0.04163 0.00123 0.11900
N 	N 	0.02657 0.06609 0.99896 -0.14000
C 	C 	0.04688 0.04378 0.99304 0.12100
N 	N 	0.01999 0.99697 0.98941 -0.14100
C 	C 	0.97295 0.97237 0.99170 0.12100
N 	N 	0.95271 0.99473 0.99763 -0.14000
C 	C 	0.94474 0.97556 0.44756 0.11900
N 	N 	0.99228 0.00012 0.44693 -0.14100
C 	C 	0.01544 0.98049 0.45219 0.11800
N 	N 	0.99095 0.93617 0.45816 -0.14100
C 	C 	0.94341 0.91134 0.45869 0.11900
N 	N 	0.92027 0.93105 0.45334 -0.14100
Cu	Cu	0.65786 0.28980 0.00177 0.92800
Cu	Cu	0.70610 0.29209 0.92580 0.87000
Cu	Cu	0.69499 0.36552 0.95287 0.89700
Cu	Cu	0.65786 0.37642 0.02284 0.89400
C 	C 	0.66172 0.32271 0.08083 0.32600
O 	O 	0.58760 0.26318 0.99406 -0.36300
C 	C 	0.68814 0.33495 0.86987 0.32800
O 	O 	0.69846 0.36222 0.00668 -0.64300
O 	O 	0.65971 0.29679 0.94692 -0.64100
O 	O 	0.68597 0.25497 0.00444 -0.37600
O 	O 	0.74509 0.30269 0.97289 -0.44200
O 	O 	0.64334 0.34348 0.06765 -0.39700
O 	O 	0.73218 0.43246 0.96272 -0.38400
C 	C 	0.72432 0.45721 0.98635 0.29300
C 	C 	0.57138 0.28383 0.97734 0.28500
O 	O 	0.60144 0.32727 0.97396 -0.39300
O 	O 	0.68879 0.43744 0.00578 -0.39700
O 	O 	0.66590 0.29500 0.05697 -0.37100
C 	C 	0.72817 0.27189 0.99552 0.29300
O 	O 	0.70272 0.36955 0.89845 -0.40000
O 	O 	0.68288 0.29697 0.87672 -0.42900
H 	H 	0.73134 0.38138 0.02217 0.16400
H 	H 	0.62810 0.27894 0.92946 0.17200
Cu	Cu	0.72624 0.32043 0.44319 0.92800
Cu	Cu	0.72564 0.28855 0.52721 0.87000
Cu	Cu	0.64729 0.29116 0.49049 0.89700
Cu	Cu	0.63335 0.31201 0.41231 0.89400
C 	C 	0.68967 0.29914 0.36142 0.32600
O 	O 	0.75052 0.38679 0.44155 -0.36300
C 	C 	0.67865 0.31118 0.57588 0.32700
O 	O 	0.65120 0.27918 0.43760 -0.64200
O 	O 	0.71847 0.32725 0.49761 -0.64200
O 	O 	0.76382 0.29494 0.44922 -0.37400
O 	O 	0.71531 0.24416 0.48575 -0.44200
O 	O 	0.66726 0.31802 0.36835 -0.39300
O 	O 	0.57809 0.25245 0.48008 -0.38400
C 	C 	0.55111 0.25447 0.45261 0.29100
C 	C 	0.72716 0.40294 0.45297 0.28300
O 	O 	0.68228 0.37398 0.45635 -0.39200
O 	O 	0.56990 0.28365 0.42833 -0.39600
O 	O 	0.72191 0.30425 0.38877 -0.37100
C 	C 	0.74628 0.25631 0.46256 0.28800
O 	O 	0.64320 0.29334 0.54596 -0.39800
O 	O 	0.71914 0.31751 0.57175 -0.42900
H 	H 	0.63284 0.24585 0.42605 0.16300
H 	H 	0.73572 0.35961 0.51152 0.17200
C 	C 	0.69327 0.33011 0.68511 0.00400
C 	C 	0.72656 0.36453 0.71707 -0.04100
C 	C 	0.71845 0.35805 0.75468 -0.03900
C 	C 	0.67671 0.31706 0.76071 0.00400
C 	C 	0.64291 0.28312 0.72872 -0.04100
C 	C 	0.65114 0.28948 0.69113 -0.03900
C 	C 	0.67109 0.30686 0.80021 0.01100
C 	C 	0.68389 0.34133 0.83168 -0.17300
C 	C 	0.70564 0.33417 0.64608 0.01000
C 	C 	0.67075 0.31866 0.61300 -0.17400
H 	H 	0.75940 0.39575 0.71281 0.03700
H 	H 	0.74546 0.38406 0.77911 0.03800
H 	H 	0.61087 0.25117 0.73303 0.03700
H 	H 	0.62568 0.26205 0.66683 0.03800
H 	H 	0.65637 0.27180 0.80456 0.03300
H 	H 	0.69232 0.37434 0.82640 0.08400
H 	H 	0.74247 0.34929 0.64328 0.03200
H 	H 	0.63593 0.30995 0.61633 0.08500
C 	C 	0.65392 0.27240 0.25300 0.00600
C 	C 	0.62602 0.28156 0.23037 -0.03900
C 	C 	0.63050 0.28613 0.19195 -0.03900
C 	C 	0.66403 0.28291 0.17591 0.00800
C 	C 	0.69022 0.27138 0.19781 -0.04000
C 	C 	0.68481 0.26557 0.23605 -0.03700
C 	C 	0.67041 0.28973 0.13565 0.01100
C 	C 	0.66723 0.32273 0.12053 -0.16600
C 	C 	0.64922 0.26898 0.29405 0.01200
C 	C 	0.68849 0.28442 0.32302 -0.16800
H 	H 	0.60089 0.28531 0.24265 0.03700
H 	H 	0.60771 0.29194 0.17464 0.04200
H 	H 	0.71479 0.26698 0.18524 0.04000
H 	H 	0.70399 0.25509 0.25208 0.03900
H 	H 	0.67755 0.26877 0.11786 0.04300
H 	H 	0.66497 0.34661 0.13976 0.07900
H 	H 	0.61633 0.26072 0.30255 0.02500
H 	H 	0.71817 0.28466 0.31583 0.08600
C 	C 	0.75020 0.45334 0.45943 -0.09200
C 	C 	0.78790 0.48230 0.44058 0.01700
C 	C 	0.80647 0.52910 0.44364 -0.07300
C 	C 	0.78765 0.54736 0.46559 0.04500
C 	C 	0.75107 0.51898 0.48537 -0.07300
C 	C 	0.73244 0.47218 0.48238 0.01500
C 	C 	0.80498 0.59491 0.46687 -0.03200
C 	C 	0.81977 0.63474 0.46773 0.00000
C 	C 	0.83749 0.68145 0.46842 -0.00500
C 	C 	0.85323 0.72147 0.46885 -0.02500
C 	C 	0.87309 0.76952 0.46926 0.03100
C 	C 	0.85072 0.78152 0.44327 -0.05500
C 	C 	0.87257 0.82814 0.44102 -0.01600
C 	C 	0.91710 0.86301 0.46464 -0.02400
C 	C 	0.93843 0.85093 0.49171 -0.01500
C 	C 	0.91651 0.80438 0.49396 -0.05500
H 	H 	0.80197 0.46835 0.42276 0.03700
H 	H 	0.83495 0.55093 0.42844 0.05000
H 	H 	0.73664 0.53299 0.50266 0.04900
H 	H 	0.70388 0.45049 0.49755 0.03000
H 	H 	0.81702 0.75474 0.42419 0.04600
H 	H 	0.85572 0.83698 0.42003 0.04000
H 	H 	0.97246 0.87755 0.51046 0.04000
H 	H 	0.93383 0.79538 0.51433 0.04600
C 	C 	0.92011 0.99756 0.44268 -0.02400
C 	C 	0.88546 0.98917 0.46488 -0.01600
C 	C 	0.86537 0.01331 0.46276 -0.05400
C 	C 	0.87965 0.04587 0.43839 0.03100
C 	C 	0.91314 0.05331 0.41536 -0.05500
C 	C 	0.93328 0.02925 0.41745 -0.01500
C 	C 	0.86149 0.07307 0.43827 -0.02500
C 	C 	0.84619 0.09576 0.43827 -0.00500
C 	C 	0.82852 0.12254 0.43881 -0.00000
C 	C 	0.81345 0.14543 0.43976 -0.03300
C 	C 	0.79525 0.17260 0.44163 0.04500
C 	C 	0.74793 0.15202 0.44625 -0.07500
C 	C 	0.73137 0.17907 0.45158 0.01800
C 	C 	0.76211 0.22707 0.45241 -0.09700
C 	C 	0.80903 0.24733 0.44630 0.01800
C 	C 	0.82555 0.22017 0.44103 -0.07400
H 	H 	0.87503 0.96494 0.48453 0.04000
H 	H 	0.83936 0.00728 0.48056 0.04500
H 	H 	0.92410 0.07820 0.39626 0.04600
H 	H 	0.95946 0.03559 0.39975 0.04000
H 	H 	0.72421 0.11520 0.44646 0.04800
H 	H 	0.69487 0.16284 0.45563 0.02700
H 	H 	0.83313 0.28427 0.44682 0.03200
H 	H 	0.86215 0.23629 0.43730 0.05000
C 	C 	0.49915 0.22765 0.45201 -0.09000
C 	C 	0.47494 0.18554 0.46553 0.01900
C 	C 	0.42583 0.16043 0.46530 -0.07300
C 	C 	0.40056 0.17717 0.45157 0.04600
C 	C 	0.42451 0.21903 0.43796 -0.07300
C 	C 	0.47359 0.24422 0.43817 0.01800
C 	C 	0.35007 0.15144 0.45155 -0.03200
C 	C 	0.30779 0.12987 0.45155 0.00100
C 	C 	0.25830 0.10469 0.45151 -0.00500
C 	C 	0.21602 0.08320 0.45142 -0.02500
C 	C 	0.16549 0.05749 0.45125 0.03100
C 	C 	0.13499 0.00974 0.43641 -0.05400
C 	C 	0.08596 0.98464 0.43644 -0.01700
C 	C 	0.06705 0.00718 0.45139 -0.02300
C 	C 	0.09774 0.05515 0.46605 -0.01600
C 	C 	0.14677 0.08016 0.46597 -0.05400
H 	H 	0.49405 0.17211 0.47598 0.03100
H 	H 	0.40746 0.12800 0.47579 0.04900
H 	H 	0.40517 0.23218 0.42734 0.05000
H 	H 	0.49180 0.27681 0.42797 0.03200
H 	H 	0.14923 0.99204 0.42486 0.04500
H 	H 	0.06267 0.94778 0.42466 0.04000
H 	H 	0.08374 0.07293 0.47793 0.04000
H 	H 	0.17019 0.11711 0.47748 0.04600
C 	C 	0.75135 0.50743 0.98696 -0.09000
C 	C 	0.75920 0.53727 0.02040 0.01800
C 	C 	0.78137 0.58429 0.02010 -0.07500
C 	C 	0.79594 0.60188 0.98646 0.04700
C 	C 	0.78925 0.57250 0.95333 -0.07300
C 	C 	0.76708 0.52543 0.95354 0.01900
C 	C 	0.81687 0.64987 0.98575 -0.03200
C 	C 	0.83436 0.69009 0.98541 0.00100
C 	C 	0.85498 0.73724 0.98514 -0.00400
C 	C 	0.87301 0.77759 0.98492 -0.02500
C 	C 	0.89530 0.82591 0.98460 0.03300
C 	C 	0.88635 0.85116 0.01019 -0.05600
C 	C 	0.91059 0.89884 0.01171 -0.01600
C 	C 	0.94409 0.92155 0.98770 -0.02400
C 	C 	0.95191 0.89583 0.96132 -0.01500
C 	C 	0.92762 0.84822 0.95983 -0.05500
H 	H 	0.74780 0.52397 0.04652 0.02600
H 	H 	0.78678 0.60692 0.04591 0.04900
H 	H 	0.80064 0.58596 0.92726 0.05000
H 	H 	0.76112 0.50282 0.92749 0.03700
H 	H 	0.86127 0.83406 0.02935 0.04600
H 	H 	0.90428 0.91827 0.03223 0.03900
H 	H 	0.97715 0.91282 0.94226 0.04000
H 	H 	0.93447 0.82882 0.93981 0.04600
C 	C 	0.75408 0.25261 0.00718 -0.10200
C 	C 	0.72875 0.20645 0.01273 0.01800
C 	C 	0.75257 0.18622 0.01831 -0.07600
C 	C 	0.80182 0.21197 0.01858 0.04600
C 	C 	0.82759 0.25867 0.01511 -0.07600
C 	C 	0.80388 0.27898 0.00950 0.01800
C 	C 	0.82511 0.18953 0.01903 -0.03400
C 	C 	0.84507 0.17119 0.01940 -0.00000
C 	C 	0.86859 0.14988 0.01875 -0.00600
C 	C 	0.88876 0.13178 0.01739 -0.02500
C 	C 	0.91292 0.11029 0.01488 0.03000
C 	C 	0.89744 0.07104 0.03136 -0.05500
C 	C 	0.91946 0.04887 0.02729 -0.01500
C 	C 	0.95711 0.06579 0.00659 -0.02500
C 	C 	0.97287 0.10550 0.99052 -0.01400
C 	C 	0.95084 0.12762 0.99469 -0.05400
H 	H 	0.69039 0.18574 0.01127 0.03100
H 	H 	0.73247 0.15015 0.02126 0.04900
H 	H 	0.86578 0.27892 0.01569 0.04800
H 	H 	0.82404 0.31488 0.00608 0.02700
H 	H 	0.86818 0.05751 0.04707 0.04600
H 	H 	0.90731 0.01863 0.04025 0.03900
H 	H 	0.00163 0.11878 0.97428 0.03900
H 	H 	0.96291 0.15791 0.98182 0.04500
C 	C 	0.51929 0.26051 0.96768 -0.09200
C 	C 	0.50148 0.28690 0.96608 0.01700
C 	C 	0.45247 0.26548 0.96324 -0.07300
C 	C 	0.42089 0.21761 0.96180 0.04600
C 	C 	0.43811 0.19079 0.96096 -0.07300
C 	C 	0.48709 0.21209 0.96377 0.01900
C 	C 	0.37182 0.19672 0.96486 -0.03200
C 	C 	0.33066 0.17887 0.96741 0.00000
C 	C 	0.28273 0.15769 0.97142 -0.00400
C 	C 	0.24194 0.13919 0.97553 -0.02500
C 	C 	0.19335 0.11638 0.98107 0.03300
C 	C 	0.16625 0.13084 0.96629 -0.05500
C 	C 	0.11866 0.10786 0.97095 -0.01500
C 	C 	0.09789 0.07016 0.99037 -0.02400
C 	C 	0.12551 0.05637 0.00573 -0.01600
C 	C 	0.17301 0.07939 0.00106 -0.05600
H 	H 	0.52572 0.32419 0.96860 0.02800
H 	H 	0.43930 0.28636 0.96350 0.05000
H 	H 	0.41376 0.15363 0.95934 0.05000
H 	H 	0.50011 0.19111 0.96397 0.03200
H 	H 	0.18185 0.15957 0.95092 0.04600
H 	H 	0.09771 0.11872 0.95881 0.03900
H 	H 	0.11012 0.02773 0.02118 0.04000
H 	H 	0.19391 0.06827 0.01279 0.04600
