data_crystal

_cell_length_a 26.10087
_cell_length_b 26.41509
_cell_length_c 28.59732
_cell_angle_alpha 95.49124
_cell_angle_beta  95.48443
_cell_angle_gamma 125.84563

_symmetry_space_group_name_	'P 1'
_symmetry_space_group_name_H-M	'P 1'

loop_
_symmetry_equiv_pos_as_xyz
  x,y,z

loop_
_atom_site_label
_atom_site_type_symbol
_atom_site_fract_x
_atom_site_fract_y
_atom_site_fract_z
_atom_site_charge
C 	C 	0.98096 0.03897 0.99085 0.11700
N 	N 	0.04613 0.07491 0.99685 -0.12600
C 	C 	0.07550 0.04630 0.99355 0.13100
N 	N 	0.03971 0.98194 0.98457 -0.12500
C 	C 	0.97464 0.94604 0.97825 0.12200
N 	N 	0.94530 0.97457 0.98173 -0.12800
C 	C 	0.92411 0.99041 0.45514 0.14200
N 	N 	0.98793 0.02516 0.45397 -0.14800
C 	C 	0.01982 0.99953 0.46059 0.15400
N 	N 	0.98793 0.93920 0.46863 -0.14200
C 	C 	0.92439 0.90456 0.47069 0.13000
N 	N 	0.89223 0.92994 0.46336 -0.13600
Cu	Cu	0.66579 0.27038 0.01595 0.92700
Cu	Cu	0.65999 0.21193 0.90403 0.88000
Cu	Cu	0.69729 0.35103 0.93862 0.90500
Cu	Cu	0.67267 0.39524 0.03278 0.89800
C 	C 	0.68441 0.33228 0.11096 0.30100
O 	O 	0.57435 0.23283 0.02365 -0.35600
C 	C 	0.65844 0.28630 0.83815 0.30500
O 	O 	0.71439 0.36449 0.00655 -0.64500
O 	O 	0.64194 0.25924 0.94538 -0.63500
O 	O 	0.71667 0.23590 0.02023 -0.35500
O 	O 	0.66369 0.16586 0.94926 -0.41300
O 	O 	0.69153 0.38295 0.09861 -0.37400
O 	O 	0.74917 0.44100 0.93830 -0.36700
C 	C 	0.74206 0.47986 0.96426 0.28700
C 	C 	0.54671 0.25913 0.01069 0.27900
O 	O 	0.57918 0.31238 0.99439 -0.36900
O 	O 	0.69542 0.45798 0.98931 -0.37800
O 	O 	0.69657 0.29849 0.08366 -0.35000
C 	C 	0.71070 0.19430 0.98645 0.28700
O 	O 	0.70026 0.33846 0.87027 -0.38500
O 	O 	0.62738 0.22986 0.85002 -0.40600
H 	H 	0.76110 0.39156 0.01986 0.16900
H 	H 	0.59616 0.24132 0.93563 0.17500
Cu	Cu	0.72101 0.32810 0.43921 0.92900
Cu	Cu	0.72145 0.26753 0.53399 0.87500
Cu	Cu	0.62243 0.28641 0.50510 0.89900
Cu	Cu	0.60320 0.33209 0.41724 0.89800
C 	C 	0.67138 0.32194 0.34236 0.30600
O 	O 	0.76241 0.42257 0.44717 -0.35200
C 	C 	0.67022 0.29565 0.60669 0.30400
O 	O 	0.62164 0.27785 0.43760 -0.64000
O 	O 	0.71663 0.32980 0.50805 -0.63900
O 	O 	0.76439 0.28616 0.43378 -0.36200
O 	O 	0.69904 0.21195 0.47608 -0.43100
O 	O 	0.64487 0.34781 0.35977 -0.37600
O 	O 	0.53000 0.23988 0.49704 -0.36800
C 	C 	0.49505 0.24789 0.46653 0.29200
C 	C 	0.73558 0.44691 0.46617 0.28400
O 	O 	0.67688 0.40900 0.47426 -0.38600
O 	O 	0.52205 0.29539 0.44284 -0.38600
O 	O 	0.70823 0.31381 0.37060 -0.35100
C 	C 	0.73915 0.23056 0.44619 0.29200
O 	O 	0.62181 0.28044 0.57366 -0.37600
O 	O 	0.72134 0.30257 0.59521 -0.41400
H 	H 	0.59286 0.23343 0.41977 0.17300
H 	H 	0.74408 0.37265 0.52852 0.17700
C 	C 	0.66330 0.29610 0.65592 -0.09100
C 	C 	0.65939 0.29520 0.69755 0.03900
C 	C 	0.65696 0.29295 0.74650 0.04000
C 	C 	0.65666 0.29023 0.78835 -0.09300
C 	C 	0.68190 0.32554 0.16009 -0.07800
C 	C 	0.67970 0.32157 0.20162 0.04300
C 	C 	0.67699 0.31908 0.25051 0.04500
C 	C 	0.67452 0.31907 0.29241 -0.07900
C 	C 	0.80479 0.72572 0.44979 -0.02500
C 	C 	0.83604 0.71055 0.48218 0.01300
C 	C 	0.89156 0.75945 0.51501 -0.04300
C 	C 	0.91782 0.82318 0.51428 0.00100
C 	C 	0.88996 0.83851 0.47891 -0.01700
C 	C 	0.83215 0.78952 0.44804 -0.01800
C 	C 	0.81346 0.64389 0.47973 0.02600
C 	C 	0.82121 0.61426 0.44061 -0.05900
C 	C 	0.79727 0.55039 0.43607 0.02600
C 	C 	0.76757 0.51613 0.47230 -0.08200
C 	C 	0.76218 0.54671 0.51239 0.01000
C 	C 	0.78415 0.60998 0.51599 -0.04100
C 	C 	0.80024 0.51963 0.39292 0.08300
C 	C 	0.77491 0.63919 0.55635 0.09300
C 	C 	0.74486 0.67610 0.41811 0.09000
C 	C 	0.97236 0.87243 0.55061 0.08200
N 	N 	0.80262 0.49507 0.35833 -0.10000
N 	N 	0.76753 0.66263 0.58867 -0.11000
N 	N 	0.01604 0.91188 0.57970 -0.09800
N 	N 	0.69685 0.63630 0.39274 -0.11000
H 	H 	0.80962 0.80101 0.42162 0.05200
H 	H 	0.91468 0.74784 0.54080 0.05400
H 	H 	0.84428 0.64053 0.41293 0.05800
H 	H 	0.73940 0.52070 0.54025 0.04000
C 	C 	0.85559 0.19026 0.44426 -0.04200
C 	C 	0.81305 0.12339 0.43101 0.02600
C 	C 	0.74704 0.09301 0.41645 -0.06200
C 	C 	0.72272 0.12831 0.41767 0.02900
C 	C 	0.76476 0.19478 0.43410 -0.08800
C 	C 	0.83129 0.22559 0.44544 0.01000
C 	C 	0.83675 0.08457 0.43524 0.01200
C 	C 	0.83508 0.06075 0.47730 -0.04600
C 	C 	0.86147 0.02791 0.48360 0.00300
C 	C 	0.88965 0.01842 0.44730 -0.02800
C 	C 	0.88951 0.04059 0.40463 -0.01500
C 	C 	0.86303 0.07335 0.39835 -0.02500
C 	C 	0.86142 0.00609 0.52804 0.07600
C 	C 	0.86368 0.09595 0.35422 0.09300
C 	C 	0.92403 0.22277 0.45784 0.09300
C 	C 	0.65468 0.09610 0.40174 0.07600
N 	N 	0.86139 0.98860 0.56364 -0.09800
N 	N 	0.86420 0.11409 0.31888 -0.10600
N 	N 	0.60017 0.07029 0.38897 -0.10700
N 	N 	0.97886 0.24877 0.46871 -0.11100
H 	H 	0.86388 0.27677 0.45739 0.03700
H 	H 	0.71449 0.04174 0.40506 0.05700
H 	H 	0.81442 0.06898 0.50554 0.05000
H 	H 	0.91085 0.03308 0.37657 0.05200
C 	C 	0.19681 0.08230 0.50432 -0.02600
C 	C 	0.22282 0.10752 0.46419 0.01400
C 	C 	0.18216 0.09829 0.42316 -0.04400
C 	C 	0.11581 0.06385 0.42173 0.00300
C 	C 	0.08970 0.03821 0.46180 -0.02800
C 	C 	0.13049 0.04771 0.50287 -0.01300
C 	C 	0.29275 0.14383 0.46486 0.02600
C 	C 	0.31847 0.11108 0.45386 -0.05800
C 	C 	0.38459 0.14452 0.45463 0.02700
C 	C 	0.42555 0.21155 0.46642 -0.07800
C 	C 	0.39971 0.24424 0.47736 0.01500
C 	C 	0.33366 0.21077 0.47676 -0.04000
C 	C 	0.40976 0.10981 0.44212 0.07100
C 	C 	0.30826 0.24539 0.48873 0.09700
C 	C 	0.23794 0.09199 0.54717 0.09300
C 	C 	0.07472 0.05375 0.37867 0.08700
N 	N 	0.42993 0.08202 0.43211 -0.11100
N 	N 	0.28785 0.27307 0.49832 -0.10800
N 	N 	0.04177 0.04566 0.34419 -0.10600
N 	N 	0.27095 0.09978 0.58148 -0.10700
H 	H 	0.11052 0.02817 0.53375 0.05500
H 	H 	0.20223 0.11778 0.39231 0.05400
H 	H 	0.28693 0.05956 0.44467 0.05700
H 	H 	0.43115 0.29577 0.48662 0.04500
C 	C 	0.86674 0.77773 0.99868 -0.00600
C 	C 	0.87199 0.74452 0.96013 0.00700
C 	C 	0.90762 0.77701 0.92584 -0.03800
C 	C 	0.93967 0.84266 0.93048 -0.00400
C 	C 	0.93625 0.87629 0.96997 -0.00400
C 	C 	0.89871 0.84333 0.00332 -0.03800
C 	C 	0.84129 0.67585 0.95598 0.02800
C 	C 	0.77700 0.63155 0.93282 -0.05900
C 	C 	0.74479 0.56673 0.93327 0.03000
C 	C 	0.77720 0.54595 0.95721 -0.07700
C 	C 	0.84254 0.58983 0.97794 0.00900
C 	C 	0.87472 0.65469 0.97758 -0.03400
C 	C 	0.67861 0.52181 0.90896 0.08100
C 	C 	0.94158 0.69942 0.00036 0.08500
C 	C 	0.82943 0.74492 0.03400 0.07900
C 	C 	0.97503 0.87500 0.89419 0.08500
N 	N 	0.62559 0.48582 0.88948 -0.10500
N 	N 	0.99514 0.73530 0.01860 -0.11100
N 	N 	0.00337 0.90094 0.86515 -0.09500
N 	N 	0.79952 0.71857 0.06227 -0.10800
H 	H 	0.89569 0.86907 0.03351 0.05500
H 	H 	0.91083 0.75123 0.89581 0.05400
H 	H 	0.75169 0.64776 0.91541 0.06000
H 	H 	0.86775 0.57371 0.99569 0.03700
C 	C 	0.76514 0.08975 0.98845 -0.03900
C 	C 	0.83264 0.13525 0.99762 0.03000
C 	C 	0.85999 0.20018 0.00543 -0.06500
C 	C 	0.82068 0.22014 0.00299 0.01900
C 	C 	0.75302 0.17458 0.99289 -0.08200
C 	C 	0.72575 0.10960 0.98616 0.01200
C 	C 	0.87506 0.11523 0.99710 0.01500
C 	C 	0.89345 0.10713 0.95416 -0.04200
C 	C 	0.93008 0.08428 0.95211 -0.00500
C 	C 	0.94881 0.06959 0.99346 -0.00800
C 	C 	0.93214 0.07957 0.03674 -0.02700
C 	C 	0.89545 0.10238 0.03880 -0.02700
C 	C 	0.94726 0.07492 0.90725 0.08900
C 	C 	0.87816 0.11164 0.08362 0.09000
C 	C 	0.73600 0.02260 0.98103 0.08800
C 	C 	0.85016 0.28732 0.00902 0.06300
N 	N 	0.96100 0.06737 0.87132 -0.10400
N 	N 	0.86426 0.11906 0.11950 -0.10700
N 	N 	0.87378 0.34113 0.01385 -0.11900
N 	N 	0.71271 0.96882 0.97510 -0.10100
H 	H 	0.67382 0.07449 0.97877 0.04600
H 	H 	0.91193 0.23515 0.01259 0.05600
H 	H 	0.87824 0.11757 0.92218 0.05000
H 	H 	0.94672 0.06843 0.06860 0.04900
C 	C 	0.24506 0.10698 0.04209 -0.02500
C 	C 	0.27851 0.14369 0.00829 0.00800
C 	C 	0.24599 0.15232 0.97177 -0.03700
C 	C 	0.18001 0.12303 0.96780 0.00600
C 	C 	0.14611 0.08472 0.00080 -0.02700
C 	C 	0.17916 0.07778 0.03820 -0.01600
C 	C 	0.34751 0.17259 0.01045 0.02300
C 	C 	0.36518 0.13835 0.98550 -0.05400
C 	C 	0.43023 0.16546 0.98611 0.03300
C 	C 	0.47823 0.22747 0.01218 -0.08600
C 	C 	0.46044 0.26127 0.03762 0.01400
C 	C 	0.39546 0.23420 0.03690 -0.04100
C 	C 	0.44716 0.13022 0.95864 0.07400
C 	C 	0.37831 0.26999 0.06327 0.09400
C 	C 	0.27796 0.09862 0.08060 0.09000
C 	C 	0.14712 0.13094 0.92895 0.09100
N 	N 	0.46074 0.10202 0.93663 -0.11400
N 	N 	0.36451 0.29861 0.08439 -0.11100
N 	N 	0.12079 0.13728 0.89782 -0.09900
N 	N 	0.30437 0.09197 0.11144 -0.11000
H 	H 	0.15320 0.04857 0.06373 0.04900
H 	H 	0.27195 0.18116 0.94606 0.05500
H 	H 	0.32821 0.09085 0.96525 0.05900
H 	H 	0.49731 0.30891 0.05772 0.03100
