data_crystal

_cell_length_a 38.65850
_cell_length_b 33.37177
_cell_length_c 14.24779
_cell_angle_alpha 88.87163
_cell_angle_beta  89.99932
_cell_angle_gamma 130.27572

_symmetry_space_group_name_	'P 1'
_symmetry_space_group_name_H-M	'P 1'

loop_
_symmetry_equiv_pos_as_xyz
  x,y,z

loop_
_atom_site_label
_atom_site_type_symbol
_atom_site_fract_x
_atom_site_fract_y
_atom_site_fract_z
_atom_site_charge
F 	F 	0.01399 0.30737 0.24830 -0.41300
C 	C 	0.01820 0.20150 0.42335 0.11300
F 	F 	0.02071 0.81984 0.24481 -0.41400
C 	C 	0.02666 0.71394 0.42664 0.11200
C 	C 	0.01690 0.31923 0.08310 -0.10500
C 	C 	0.02401 0.82865 0.07890 -0.10600
C 	C 	0.02099 0.34134 0.17830 0.79000
C 	C 	0.02719 0.85213 0.17183 0.79000
C 	C 	0.01312 0.28850 0.89891 0.06300
H 	H 	0.01155 0.27772 0.82685 0.07100
C 	C 	0.02141 0.20994 0.52038 -0.09200
C 	C 	0.02164 0.79461 0.89859 0.06300
H 	H 	0.02055 0.78248 0.82793 0.07000
C 	C 	0.02987 0.72338 0.52324 -0.09000
C 	C 	0.05279 0.31227 0.95080 -0.09100
C 	C 	0.05511 0.32954 0.04166 0.11800
F 	F 	0.06380 0.38965 0.18808 -0.40300
H 	H 	0.04856 0.21941 0.38121 0.07500
C 	C 	0.06150 0.82114 0.95098 -0.09200
C 	C 	0.06298 0.83977 0.03988 0.11900
F 	F 	0.06948 0.90122 0.18038 -0.39900
H 	H 	0.05705 0.73141 0.38489 0.07600
O 	O 	0.06856 0.25765 0.65354 -0.37700
C 	C 	0.06575 0.25142 0.56235 0.32200
H 	H 	0.08632 0.35051 0.08044 0.08800
O 	O 	0.07761 0.77024 0.65624 -0.37500
C 	C 	0.07431 0.76487 0.56478 0.32300
H 	H 	0.09417 0.86250 0.07902 0.09100
C 	C 	0.09172 0.31890 0.91005 0.31800
O 	O 	0.08533 0.29372 0.83310 -0.40400
C 	C 	0.10170 0.82969 0.91251 0.32200
O 	O 	0.09674 0.80374 0.83804 -0.40700
O 	O 	0.10108 0.28552 0.50769 -0.43300
O 	O 	0.10928 0.79963 0.50977 -0.43200
O 	O 	0.12654 0.33627 0.96392 -0.40700
O 	O 	0.13752 0.85140 0.96588 -0.40700
Zn	Zn	0.12629 0.32451 0.72177 1.22400
H 	H 	0.15294 0.27339 0.70484 0.20600
Zn	Zn	0.13631 0.83577 0.72475 1.22400
H 	H 	0.16074 0.78308 0.69895 0.20700
O 	O 	0.16485 0.30842 0.68130 -0.77700
O 	O 	0.12659 0.37378 0.63915 -0.41300
O 	O 	0.17362 0.81895 0.67862 -0.77500
O 	O 	0.13609 0.88623 0.64779 -0.41300
Zn	Zn	0.16285 0.31457 0.54065 1.20600
Zn	Zn	0.17119 0.82787 0.53888 1.20700
O 	O 	0.17961 0.30425 0.91067 -0.39000
H 	H 	0.17274 0.21183 0.97496 0.07100
O 	O 	0.18525 0.81173 0.91195 -0.38800
H 	H 	0.17325 0.71425 0.97190 0.07000
Zn	Zn	0.19085 0.37728 0.91872 1.20600
C 	C 	0.15774 0.40282 0.57254 0.31600
Zn	Zn	0.20103 0.88740 0.92012 1.20700
C 	C 	0.16656 0.91563 0.58034 0.31500
O 	O 	0.18830 0.38692 0.78168 -0.78700
O 	O 	0.18359 0.39237 0.54494 -0.39300
C 	C 	0.21316 0.30557 0.88525 0.32200
H 	H 	0.16089 0.42665 0.39000 0.08300
O 	O 	0.19950 0.89736 0.78258 -0.78500
O 	O 	0.19236 0.90562 0.55014 -0.39200
C 	C 	0.21716 0.80997 0.88714 0.31700
H 	H 	0.16376 0.93743 0.39972 0.08300
C 	C 	0.16645 0.44975 0.53270 -0.08900
C 	C 	0.17461 0.96245 0.54237 -0.08200
O 	O 	0.23605 0.33039 0.80703 -0.41400
H 	H 	0.19996 0.42265 0.76421 0.19200
C 	C 	0.17202 0.45869 0.43517 0.11200
H 	H 	0.17450 0.48381 0.66659 0.05500
F 	F 	0.17526 0.47298 0.24342 -0.41000
C 	C 	0.20796 0.24197 0.99332 0.04100
O 	O 	0.24071 0.83381 0.80900 -0.41500
H 	H 	0.21224 0.93345 0.76458 0.19500
C 	C 	0.17720 0.97030 0.44473 0.11300
H 	H 	0.18791 0.99845 0.67656 0.06800
F 	F 	0.17543 0.98288 0.25378 -0.40200
C 	C 	0.20831 0.74310 0.99245 0.03600
Zn	Zn	0.22830 0.37471 0.73323 1.22700
O 	O 	0.22574 0.35037 0.49609 -0.40700
C 	C 	0.17948 0.49054 0.59126 0.04900
C 	C 	0.23318 0.29290 0.95500 -0.08400
H 	H 	0.20924 0.18914 0.07892 0.09000
Zn	Zn	0.23758 0.88192 0.73468 1.22700
O 	O 	0.23409 0.86517 0.49338 -0.40000
C 	C 	0.19061 0.00431 0.60098 0.03600
C 	C 	0.23508 0.79485 0.95742 -0.08500
H 	H 	0.20670 0.68715 0.07467 0.09200
O 	O 	0.25499 0.41294 0.94385 -0.43800
C 	C 	0.20328 0.54147 0.55388 -0.03500
C 	C 	0.19581 0.50972 0.39650 -0.11700
C 	C 	0.20527 0.51906 0.29164 0.79000
F 	F 	0.20066 0.55452 0.25803 -0.43200
C 	C 	0.22866 0.22919 0.05258 -0.02700
O 	O 	0.26402 0.91877 0.94574 -0.43800
C 	C 	0.21453 0.05507 0.56264 -0.03000
C 	C 	0.20129 0.02117 0.40506 -0.12200
C 	C 	0.20800 0.02913 0.29944 0.78600
F 	F 	0.20464 0.06594 0.26808 -0.43600
C 	C 	0.22728 0.72781 0.05098 -0.02500
O 	O 	0.26330 0.40462 0.61710 -0.41800
C 	C 	0.25863 0.37255 0.55656 0.33800
C 	C 	0.21481 0.55224 0.45776 0.06400
H 	H 	0.21622 0.57340 0.60094 0.11100
F 	F 	0.25700 0.56823 0.87291 -0.45100
O 	O 	0.27435 0.91071 0.62036 -0.41300
C 	C 	0.26449 0.87781 0.55526 0.33600
C 	C 	0.22331 0.06458 0.46543 0.06200
H 	H 	0.22971 0.08773 0.60924 0.11600
F 	F 	0.26019 0.06811 0.86781 -0.45300
C 	C 	0.27877 0.33172 0.97943 0.09000
C 	C 	0.28047 0.83194 0.98453 0.08700
O 	O 	0.28625 0.44300 0.79735 -0.37500
C 	C 	0.28768 0.45068 0.88786 0.32100
O 	O 	0.25685 0.14662 0.38093 -0.34100
C 	C 	0.27459 0.26752 0.07562 0.04400
H 	H 	0.34602 0.41394 0.54460 0.06000
O 	O 	0.29676 0.94802 0.80075 -0.37300
C 	C 	0.29728 0.95631 0.89063 0.32700
O 	O 	0.24860 0.63492 0.37549 -0.33600
C 	C 	0.27302 0.76441 0.07669 0.04300
H 	H 	0.34419 0.90023 0.58925 0.05600
C 	C 	0.26283 0.11815 0.43197 0.30000
F 	F 	0.24881 0.53824 0.27352 -0.45900
H 	H 	0.28570 0.52559 0.83006 0.04600
C 	C 	0.29354 0.59904 0.93202 0.78300
F 	F 	0.27730 0.60283 0.01497 -0.48700
H 	H 	0.29835 0.37085 0.94831 0.07400
C 	C 	0.27669 0.34649 0.57943 -0.14500
C 	C 	0.32223 0.37205 0.56007 0.07000
C 	C 	0.25431 0.60655 0.42775 0.29800
F 	F 	0.25021 0.04565 0.27570 -0.46000
H 	H 	0.29109 0.02744 0.82944 0.03900
C 	C 	0.29632 0.10031 0.92727 0.78400
F 	F 	0.27912 0.10361 0.00920 -0.47800
H 	H 	0.30134 0.87165 0.95554 0.07600
C 	C 	0.27175 0.84055 0.57464 -0.15400
C 	C 	0.31580 0.85860 0.58350 0.07000
C 	C 	0.29662 0.25166 0.13052 0.29800
H 	H 	0.29235 0.13577 0.21155 0.27600
O 	O 	0.28391 0.23608 0.21905 -0.36200
C 	C 	0.31619 0.50428 0.92045 -0.10500
C 	C 	0.30592 0.53579 0.89208 0.09100
C 	C 	0.29917 0.32021 0.04349 -0.10800
C 	C 	0.29316 0.74604 0.13116 0.29900
H 	H 	0.28834 0.62851 0.20920 0.27900
O 	O 	0.27735 0.72629 0.21684 -0.35800
C 	C 	0.32418 0.01015 0.92118 -0.11600
C 	C 	0.31172 0.03932 0.89132 0.09200
C 	C 	0.29909 0.81791 0.04823 -0.10700
Zn	Zn	0.30692 0.21221 0.30994 1.23200
C 	C 	0.31597 0.57538 0.95018 -0.13900
F 	F 	0.32447 0.64830 0.88990 -0.47000
C 	C 	0.33593 0.34263 0.54988 -0.04700
C 	C 	0.24676 0.29290 0.60476 0.11200
H 	H 	0.37009 0.36192 0.52513 0.07600
H 	H 	0.21195 0.27371 0.62373 0.01600
Zn	Zn	0.29945 0.70213 0.30936 1.23300
C 	C 	0.32033 0.07875 0.94769 -0.14100
F 	F 	0.32633 0.14950 0.88438 -0.46100
C 	C 	0.32374 0.82356 0.57496 -0.04900
C 	C 	0.23498 0.78634 0.57320 0.12100
H 	H 	0.35833 0.83854 0.57203 0.07000
H 	H 	0.20068 0.77221 0.57080 -0.00300
O 	O 	0.30698 0.25971 0.40693 -0.34800
O 	O 	0.31820 0.17358 0.21837 -0.78800
O 	O 	0.30358 0.13819 0.45958 -0.37800
C 	C 	0.34477 0.51887 0.99647 0.03500
H 	H 	0.35343 0.49502 0.01793 0.09800
O 	O 	0.29622 0.74702 0.40637 -0.34100
O 	O 	0.31368 0.66628 0.21828 -0.78700
O 	O 	0.29468 0.62704 0.45875 -0.37800
C 	C 	0.35334 0.02702 0.99689 0.04200
H 	H 	0.36370 0.00501 0.01946 0.09100
Zn	Zn	0.34337 0.20999 0.09457 1.22700
O 	O 	0.31860 0.22865 0.53653 -0.39100
O 	O 	0.33315 0.26158 0.09571 -0.35200
C 	C 	0.31015 0.25753 0.49835 0.29600
C 	C 	0.36031 0.56269 0.04804 -0.03200
C 	C 	0.34519 0.59043 0.02751 0.06100
C 	C 	0.34730 0.36394 0.07499 0.78900
C 	C 	0.30388 0.28763 0.55763 0.04900
C 	C 	0.26073 0.26334 0.59736 -0.12900
Zn	Zn	0.34077 0.70501 0.09680 1.22800
O 	O 	0.30607 0.71499 0.53730 -0.40200
O 	O 	0.33032 0.75646 0.09905 -0.35200
C 	C 	0.29678 0.74288 0.49805 0.30000
C 	C 	0.36722 0.07063 0.04689 -0.03800
C 	C 	0.34986 0.09585 0.02513 0.06100
C 	C 	0.34688 0.85989 0.08337 0.78900
C 	C 	0.28766 0.77064 0.55648 0.05100
C 	C 	0.24272 0.75077 0.56783 -0.13300
O 	O 	0.36543 0.13521 0.17680 -0.29900
C 	C 	0.36109 0.13802 0.08527 0.27600
H 	H 	0.38279 0.57394 0.10626 0.11900
F 	F 	0.37709 0.36246 0.02495 -0.40100
F 	F 	0.35944 0.41275 0.05982 -0.42800
F 	F 	0.35139 0.35857 0.16997 -0.42400
F 	F 	0.20960 0.17653 0.54169 -0.43500
O 	O 	0.36229 0.62959 0.17996 -0.29400
C 	C 	0.35854 0.63331 0.08841 0.27400
H 	H 	0.39012 0.08363 0.10498 0.12100
F 	F 	0.37677 0.85856 0.03343 -0.40000
F 	F 	0.36024 0.90950 0.07191 -0.42400
F 	F 	0.34934 0.85197 0.17801 -0.42300
F 	F 	0.19308 0.67840 0.46992 -0.42800
Zn	Zn	0.37060 0.18673 0.27433 1.23400
Zn	Zn	0.36056 0.22148 0.47865 1.20700
O 	O 	0.36963 0.17978 0.04634 -0.37000
O 	O 	0.36868 0.24120 0.34384 -0.78300
O 	O 	0.36839 0.14340 0.37520 -0.34700
C 	C 	0.22814 0.20516 0.62258 0.79000
Zn	Zn	0.36530 0.67941 0.27845 1.23400
Zn	Zn	0.35018 0.71019 0.48261 1.20600
O 	O 	0.36823 0.67588 0.05049 -0.37000
O 	O 	0.36089 0.73192 0.34838 -0.78200
O 	O 	0.36182 0.63513 0.37929 -0.34400
C 	C 	0.20303 0.69243 0.56286 0.79200
H 	H 	0.39246 0.27911 0.32826 0.22500
C 	C 	0.39368 0.16443 0.45036 0.29700
F 	F 	0.19334 0.19214 0.68084 -0.44200
H 	H 	0.38447 0.77009 0.33474 0.22500
C 	C 	0.38554 0.65531 0.45664 0.29600
F 	F 	0.16504 0.67953 0.60737 -0.44100
H 	H 	0.39494 0.13268 0.62839 0.07400
H 	H 	0.38781 0.62616 0.63640 0.07400
O 	O 	0.40039 0.20393 0.49107 -0.42700
O 	O 	0.41317 0.27765 0.12984 -0.31600
F 	F 	0.25068 0.19146 0.66927 -0.42700
O 	O 	0.39061 0.69364 0.49821 -0.42800
O 	O 	0.40988 0.77217 0.13701 -0.31400
F 	F 	0.21333 0.66393 0.60650 -0.43100
C 	C 	0.42339 0.14731 0.58218 -0.04200
C 	C 	0.41876 0.14798 0.48462 0.05200
F 	F 	0.40037 0.09443 0.31787 -0.43000
C 	C 	0.41605 0.64017 0.59004 -0.04200
C 	C 	0.41099 0.63955 0.49242 0.05200
F 	F 	0.39180 0.58354 0.32853 -0.42700
O 	O 	0.43320 0.24317 0.23160 -0.37100
O 	O 	0.42860 0.73695 0.24040 -0.37200
C 	C 	0.44262 0.27253 0.15757 0.30100
C 	C 	0.43889 0.76667 0.16632 0.30100
C 	C 	0.48205 0.24832 0.07034 -0.04100
C 	C 	0.47957 0.28721 0.09327 0.05500
H 	H 	0.45575 0.20809 0.09415 0.10400
F 	F 	0.47777 0.37478 0.03890 -0.40000
C 	C 	0.46672 0.17614 0.61962 0.04200
C 	C 	0.45364 0.15838 0.42735 -0.13500
H 	H 	0.47102 0.18133 0.69475 0.05300
C 	C 	0.44492 0.13981 0.32771 0.79300
F 	F 	0.45391 0.17858 0.26763 -0.46900
C 	C 	0.47926 0.74245 0.08283 -0.04500
C 	C 	0.47631 0.78122 0.10343 0.05600
H 	H 	0.45327 0.70244 0.10802 0.10900
F 	F 	0.47395 0.86821 0.04278 -0.40000
C 	C 	0.45955 0.66945 0.62684 0.04200
C 	C 	0.44559 0.64911 0.43542 -0.13600
H 	H 	0.46419 0.67565 0.70169 0.05300
C 	C 	0.43641 0.62908 0.33682 0.79400
F 	F 	0.44516 0.66704 0.27481 -0.47000
C 	C 	0.51465 0.33995 0.06205 -0.12400
C 	C 	0.51317 0.38300 0.08557 0.79200
F 	F 	0.50700 0.38286 0.18127 -0.42200
C 	C 	0.49764 0.18901 0.46334 0.10600
F 	F 	0.47270 0.12895 0.30312 -0.43300
C 	C 	0.51078 0.83358 0.06949 -0.12500
C 	C 	0.50910 0.87667 0.09107 0.79300
F 	F 	0.50243 0.87696 0.18639 -0.41900
C 	C 	0.48974 0.68011 0.47069 0.10600
F 	F 	0.46408 0.61788 0.31359 -0.43300
C 	C 	0.51865 0.26102 0.01855 0.06600
H 	H 	0.51991 0.23041 0.00209 0.05500
C 	C 	0.50459 0.20168 0.55887 -0.10400
C 	C 	0.51560 0.75485 0.03031 0.06800
H 	H 	0.51712 0.72429 0.01541 0.05600
C 	C 	0.49713 0.69408 0.56557 -0.10400
C 	C 	0.55090 0.35190 0.00694 0.11700
C 	C 	0.54653 0.84506 0.01307 0.12000
C 	C 	0.55322 0.31262 0.98703 -0.11300
F 	F 	0.55300 0.43224 0.05915 -0.42100
H 	H 	0.52614 0.20381 0.41713 0.06800
C 	C 	0.54928 0.80593 0.99521 -0.11500
F 	F 	0.54907 0.92581 0.06476 -0.41800
H 	H 	0.51800 0.69415 0.42439 0.06700
O 	O 	0.55632 0.26024 0.67942 -0.38600
C 	C 	0.55071 0.24351 0.59356 0.31600
H 	H 	0.57724 0.39152 0.97980 0.05900
O 	O 	0.54963 0.75309 0.68484 -0.38600
C 	C 	0.54346 0.73627 0.59889 0.31600
H 	H 	0.57211 0.88421 0.98317 0.05900
C 	C 	0.59013 0.32465 0.92750 0.32400
O 	O 	0.58525 0.32289 0.83561 -0.41800
C 	C 	0.58537 0.81732 0.93334 0.32300
O 	O 	0.57956 0.81556 0.84175 -0.41700
O 	O 	0.58576 0.26673 0.53641 -0.44100
O 	O 	0.62079 0.32403 0.96631 -0.42900
O 	O 	0.57807 0.75973 0.54041 -0.44100
O 	O 	0.61624 0.81635 0.96976 -0.42800
Zn	Zn	0.62109 0.32362 0.73448 1.22300
H 	H 	0.62888 0.25344 0.75180 0.19500
Zn	Zn	0.61475 0.81671 0.73822 1.22300
H 	H 	0.62339 0.74712 0.75268 0.19600
Zn	Zn	0.64120 0.28054 0.57618 1.20500
O 	O 	0.64549 0.28701 0.71565 -0.78200
O 	O 	0.63478 0.37258 0.63000 -0.41600
Zn	Zn	0.63401 0.77397 0.57716 1.20500
O 	O 	0.63941 0.78059 0.71648 -0.78200
O 	O 	0.62747 0.86566 0.63463 -0.41500
O 	O 	0.66932 0.28964 0.93075 -0.39600
H 	H 	0.69207 0.20132 0.84957 0.07300
O 	O 	0.66606 0.78362 0.93001 -0.39500
H 	H 	0.69423 0.70015 0.84470 0.07400
Zn	Zn	0.68594 0.36628 0.92542 1.20100
C 	C 	0.66756 0.39116 0.56779 0.31100
Zn	Zn	0.68128 0.85952 0.92665 1.20200
C 	C 	0.65973 0.88434 0.57096 0.31100
O 	O 	0.68596 0.37720 0.78832 -0.79800
C 	C 	0.69698 0.28237 0.90036 0.33100
H 	H 	0.69538 0.41745 0.38768 0.07700
O 	O 	0.68000 0.87056 0.79008 -0.79800
C 	C 	0.69404 0.77733 0.89712 0.33100
H 	H 	0.68387 0.90983 0.38909 0.07800
H 	H 	0.70318 0.41448 0.76923 0.18700
O 	O 	0.68042 0.36417 0.54721 -0.39400
C 	C 	0.69050 0.44279 0.52077 -0.09400
C 	C 	0.70506 0.45070 0.42705 0.10600
F 	F 	0.73562 0.46305 0.24684 -0.45100
C 	C 	0.70721 0.21662 0.91752 0.05600
H 	H 	0.73005 0.17272 0.92715 0.09100
H 	H 	0.69683 0.90781 0.77149 0.18700
O 	O 	0.67252 0.85749 0.54849 -0.39400
C 	C 	0.68214 0.93592 0.52429 -0.09400
C 	C 	0.69486 0.94339 0.42931 0.10300
F 	F 	0.72108 0.95454 0.24571 -0.44600
C 	C 	0.70936 0.71602 0.91242 0.05500
H 	H 	0.73624 0.67641 0.92033 0.08900
Zn	Zn	0.71513 0.35007 0.74450 1.22500
O 	O 	0.69543 0.28978 0.54034 -0.42100
O 	O 	0.71995 0.30512 0.82217 -0.43100
C 	C 	0.70158 0.48522 0.57148 0.04700
H 	H 	0.69060 0.47954 0.64406 0.04300
F 	F 	0.72977 0.52529 0.22964 -0.47100
F 	F 	0.91238 0.61518 0.75495 -0.45600
C 	C 	0.70658 0.25389 0.95885 -0.10400
C 	C 	0.72939 0.20106 0.96087 -0.03800
Zn	Zn	0.70923 0.84415 0.74269 1.22500
O 	O 	0.68828 0.78374 0.53861 -0.42200
O 	O 	0.71539 0.79957 0.81731 -0.43200
C 	C 	0.69504 0.97880 0.57634 0.05200
H 	H 	0.68544 0.97344 0.64986 0.04200
F 	F 	0.71969 0.02045 0.23407 -0.46900
F 	F 	0.90338 0.11103 0.75183 -0.46100
C 	C 	0.70625 0.75117 0.95471 -0.10500
C 	C 	0.73391 0.70333 0.95456 -0.04100
O 	O 	0.74959 0.39819 0.94835 -0.43500
C 	C 	0.72849 0.53564 0.52994 -0.04200
C 	C 	0.73268 0.50132 0.38470 -0.12400
C 	C 	0.74856 0.50901 0.28370 0.78600
O 	O 	0.74540 0.89246 0.94621 -0.43500
C 	C 	0.72215 0.02926 0.53487 -0.04600
C 	C 	0.72259 0.99400 0.38689 -0.11100
C 	C 	0.73695 0.00129 0.28482 0.77500
C 	C 	0.73620 0.32536 0.57394 0.33500
C 	C 	0.74471 0.54437 0.43720 0.05900
H 	H 	0.73758 0.56825 0.57067 0.10900
H 	H 	0.83679 0.52159 0.78404 0.06500
C 	C 	0.89762 0.62469 0.83310 0.79500
C 	C 	0.72937 0.82011 0.57008 0.33500
C 	C 	0.73675 0.03756 0.44084 0.05100
H 	H 	0.73276 0.06222 0.57663 0.10700
H 	H 	0.82874 0.01631 0.78117 0.06200
C 	C 	0.88842 0.11934 0.83127 0.79700
F 	F 	0.00467 0.15704 0.25003 -0.42400
F 	F 	0.01398 0.66949 0.25405 -0.42000
O 	O 	0.77863 0.41711 0.79806 -0.36600
O 	O 	0.74583 0.36438 0.62319 -0.41500
C 	C 	0.78297 0.42988 0.88715 0.31000
O 	O 	0.75517 0.11081 0.34725 -0.35900
C 	C 	0.84335 0.52620 0.85870 0.09900
F 	F 	0.93548 0.66686 0.87848 -0.45000
F 	F 	0.87157 0.63738 0.80385 -0.46000
C 	C 	0.75123 0.22235 0.04657 0.05100
C 	C 	0.72567 0.27289 0.04736 0.11100
O 	O 	0.77302 0.91148 0.79460 -0.36600
O 	O 	0.73888 0.85893 0.61981 -0.41500
C 	C 	0.77807 0.92436 0.88377 0.31000
O 	O 	0.76158 0.61640 0.34232 -0.35900
C 	C 	0.83631 0.02089 0.85538 0.09500
F 	F 	0.92609 0.16206 0.87614 -0.45100
F 	F 	0.86099 0.13045 0.80428 -0.45800
C 	C 	0.75563 0.72534 0.04008 0.05200
C 	C 	0.72551 0.77102 0.04278 0.11200
F 	F 	0.79536 0.54616 0.27842 -0.47600
F 	F 	0.78376 0.03604 0.27748 -0.47600
H 	H 	0.80625 0.37066 0.45021 0.07600
H 	H 	0.80035 0.86863 0.44793 0.07500
O 	O 	0.76119 0.18177 0.17338 -0.35700
O 	O 	0.76623 0.68557 0.16719 -0.35900
C 	C 	0.97450 0.27612 0.94132 -0.03300
C 	C 	0.97488 0.28686 0.03615 0.06100
H 	H 	0.94322 0.25427 0.90261 0.10500
F 	F 	0.98968 0.34843 0.18913 -0.43300
C 	C 	0.98152 0.18149 0.57544 0.05000
C 	C 	0.93959 0.15334 0.53196 -0.03000
C 	C 	0.93787 0.15607 0.43402 0.05400
C 	C 	0.97565 0.17146 0.38052 -0.12000
H 	H 	0.90953 0.13668 0.57420 0.11100
H 	H 	0.98315 0.18434 0.65115 0.09500
C 	C 	0.97136 0.15881 0.27772 0.79100
F 	F 	0.97588 0.19698 0.22434 -0.42600
F 	F 	0.92969 0.11032 0.26118 -0.42700
C 	C 	0.98231 0.78149 0.93876 -0.03400
C 	C 	0.98215 0.79420 0.03193 0.06300
H 	H 	0.95107 0.75786 0.89985 0.10600
F 	F 	0.99502 0.85808 0.17876 -0.43100
C 	C 	0.99001 0.69571 0.57817 0.05300
C 	C 	0.94807 0.66701 0.53457 -0.02800
C 	C 	0.94627 0.66842 0.43638 0.05400
C 	C 	0.98414 0.68348 0.38363 -0.11800
H 	H 	0.91801 0.65073 0.57654 0.10900
H 	H 	0.99165 0.69951 0.65370 0.09300
C 	C 	0.97999 0.67019 0.28119 0.79100
F 	F 	0.98347 0.70735 0.22664 -0.42700
F 	F 	0.93879 0.62103 0.26558 -0.42200
Zn	Zn	0.87146 0.16912 0.22291 1.23900
Zn	Zn	0.86241 0.20808 0.42316 1.21100
C 	C 	0.77476 0.20524 0.08970 0.30300
Zn	Zn	0.79570 0.17471 0.26477 1.23400
Zn	Zn	0.82728 0.16859 0.04718 1.20800
H 	H 	0.87945 0.25464 0.26321 0.23500
C 	C 	0.76948 0.09207 0.40227 0.30500
O 	O 	0.85616 0.14103 0.99483 -0.38200
O 	O 	0.87389 0.12088 0.13305 -0.30200
O 	O 	0.86113 0.21781 0.28644 -0.78100
O 	O 	0.91112 0.20375 0.43142 -0.40600
O 	O 	0.92890 0.22969 0.16731 -0.34000
O 	O 	0.88072 0.13753 0.32747 -0.33800
O 	O 	0.89574 0.24548 0.05870 -0.35700
O 	O 	0.81788 0.20983 0.48515 -0.37800
H 	H 	0.79131 0.10191 0.17635 0.25800
O 	O 	0.78941 0.22002 0.35524 -0.30900
O 	O 	0.81266 0.14059 0.17674 -0.80200
O 	O 	0.80805 0.21259 0.04237 -0.39200
O 	O 	0.81243 0.12179 0.42606 -0.36300
C 	C 	0.86619 0.11501 0.04180 0.29700
C 	C 	0.90875 0.16599 0.39580 0.30600
C 	C 	0.93168 0.25349 0.09031 0.30900
C 	C 	0.80082 0.22906 0.44406 0.29400
C 	C 	0.82348 0.48178 0.91763 -0.10200
C 	C 	0.83543 0.48869 0.01248 0.05600
C 	C 	0.85867 0.53783 0.05199 -0.03200
C 	C 	0.87094 0.58059 0.99624 0.05400
C 	C 	0.86969 0.57646 0.89727 -0.13200
H 	H 	0.86323 0.54139 0.12727 0.13000
H 	H 	0.82286 0.45504 0.05749 0.08100
C 	C 	0.74967 0.25911 0.09059 -0.11900
H 	H 	0.72406 0.30072 0.07999 0.07000
C 	C 	0.77157 0.28196 0.18485 0.78700
F 	F 	0.81378 0.29555 0.18834 -0.45600
F 	F 	0.77762 0.32687 0.20138 -0.44100
F 	F 	0.74384 0.24528 0.25526 -0.43600
C 	C 	0.76848 0.31649 0.56710 -0.10500
C 	C 	0.79772 0.33699 0.48907 0.06500
C 	C 	0.81155 0.31046 0.45413 -0.03300
C 	C 	0.79587 0.26283 0.49642 0.05500
C 	C 	0.77123 0.24569 0.58283 -0.12200
C 	C 	0.75933 0.27438 0.61916 0.10100
H 	H 	0.83196 0.32501 0.39023 0.11100
H 	H 	0.73885 0.26077 0.68278 0.05300
C 	C 	0.75686 0.19671 0.63511 0.79100
F 	F 	0.79486 0.20483 0.66572 -0.44300
F 	F 	0.72983 0.18441 0.71285 -0.46000
F 	F 	0.73234 0.15406 0.57689 -0.43900
Zn	Zn	0.87927 0.67812 0.22070 1.23900
Zn	Zn	0.86772 0.71617 0.41978 1.21000
C 	C 	0.78002 0.70952 0.08398 0.30300
Zn	Zn	0.80138 0.68039 0.25988 1.23400
Zn	Zn	0.83429 0.67498 0.04329 1.20700
H 	H 	0.88448 0.76197 0.25899 0.23400
C 	C 	0.77660 0.59889 0.39847 0.30400
O 	O 	0.86356 0.64762 0.99279 -0.38600
O 	O 	0.88351 0.63076 0.13180 -0.29900
O 	O 	0.86685 0.72532 0.28268 -0.78100
O 	O 	0.91770 0.71414 0.42990 -0.40700
O 	O 	0.93629 0.73956 0.16550 -0.33900
O 	O 	0.88935 0.64798 0.32679 -0.33400
O 	O 	0.90271 0.75234 0.05221 -0.35500
O 	O 	0.82170 0.71591 0.48042 -0.38000
H 	H 	0.79959 0.60909 0.17367 0.25700
O 	O 	0.79299 0.72438 0.34879 -0.30900
O 	O 	0.82023 0.64776 0.17335 -0.80200
O 	O 	0.81402 0.71802 0.03751 -0.39300
O 	O 	0.81945 0.62985 0.42329 -0.36200
C 	C 	0.87411 0.62252 0.04129 0.30000
C 	C 	0.91653 0.67693 0.39591 0.30600
C 	C 	0.93880 0.76125 0.08573 0.30900
C 	C 	0.80307 0.73301 0.43825 0.29500
C 	C 	0.81843 0.97659 0.91310 -0.10100
C 	C 	0.83188 0.98365 0.00692 0.06500
C 	C 	0.85434 0.03237 0.04756 -0.04400
C 	C 	0.86429 0.07457 0.99384 0.05900
C 	C 	0.86195 0.07087 0.89480 -0.13500
H 	H 	0.86009 0.03586 0.12246 0.13200
H 	H 	0.82092 0.95022 0.05069 0.08000
C 	C 	0.75194 0.76030 0.08461 -0.12000
H 	H 	0.72209 0.79723 0.07617 0.06900
C 	C 	0.77402 0.78429 0.17821 0.78800
F 	F 	0.81663 0.79894 0.18201 -0.45600
F 	F 	0.77926 0.82884 0.19285 -0.44100
F 	F 	0.74678 0.74808 0.24955 -0.43600
C 	C 	0.76216 0.81203 0.56158 -0.10500
C 	C 	0.79248 0.83491 0.48518 0.06400
C 	C 	0.80882 0.81106 0.45018 -0.03200
C 	C 	0.79448 0.76360 0.49047 0.05500
C 	C 	0.76787 0.74349 0.57450 -0.12200
C 	C 	0.75347 0.76956 0.61120 0.10200
H 	H 	0.83039 0.82765 0.38783 0.11000
H 	H 	0.73184 0.75391 0.67338 0.05300
C 	C 	0.75406 0.69409 0.62382 0.79100
F 	F 	0.79211 0.70359 0.65856 -0.44600
F 	F 	0.72440 0.67825 0.69833 -0.45800
F 	F 	0.73265 0.65318 0.56186 -0.43900
