data_crystal

_cell_length_a 27.63686
_cell_length_b 28.15721
_cell_length_c 26.57167
_cell_angle_alpha 95.45211
_cell_angle_beta  95.45306
_cell_angle_gamma 125.62842

_symmetry_space_group_name_	'P 1'
_symmetry_space_group_name_H-M	'P 1'

loop_
_symmetry_equiv_pos_as_xyz
  x,y,z

loop_
_atom_site_label
_atom_site_type_symbol
_atom_site_fract_x
_atom_site_fract_y
_atom_site_fract_z
_atom_site_charge
C 	C 	0.05396 0.02931 0.98321 0.12700
N 	N 	0.02740 0.05706 0.98941 -0.13100
N 	N 	0.00248 0.03425 0.44089 -0.13200
Cu	Cu	0.64298 0.24834 0.00138 0.92300
Cu	Cu	0.69481 0.25297 0.89480 0.86900
Cu	Cu	0.67710 0.34216 0.93469 0.90000
Cu	Cu	0.64665 0.36016 0.03580 0.89300
C 	C 	0.65886 0.29167 0.10843 0.29000
O 	O 	0.55507 0.21583 0.99957 -0.35700
C 	C 	0.66701 0.30724 0.82346 0.28500
O 	O 	0.69391 0.34109 0.00617 -0.64600
O 	O 	0.63647 0.25498 0.92806 -0.63800
O 	O 	0.67831 0.20374 0.99858 -0.36900
O 	O 	0.74858 0.26646 0.95380 -0.44200
O 	O 	0.63273 0.31659 0.09428 -0.38400
O 	O 	0.72228 0.42772 0.94454 -0.38600
C 	C 	0.72048 0.46150 0.98120 0.32500
C 	C 	0.53321 0.24233 0.98011 0.30100
O 	O 	0.57024 0.29773 0.97447 -0.39000
O 	O 	0.68436 0.43910 0.01504 -0.40500
O 	O 	0.66235 0.25691 0.07441 -0.36100
C 	C 	0.73019 0.22656 0.98334 0.31600
O 	O 	0.66608 0.34172 0.86030 -0.37400
O 	O 	0.66106 0.25877 0.83164 -0.41800
H 	H 	0.73743 0.36636 0.02206 0.16400
H 	H 	0.59494 0.23000 0.90738 0.17600
Cu	Cu	0.73623 0.34069 0.43238 0.92700
Cu	Cu	0.73556 0.29450 0.54121 0.86800
Cu	Cu	0.64359 0.31084 0.50190 0.89700
Cu	Cu	0.62148 0.33721 0.39971 0.89600
C 	C 	0.68535 0.31816 0.32592 0.28800
O 	O 	0.76989 0.42714 0.43207 -0.36100
C 	C 	0.68273 0.32431 0.61296 0.28400
O 	O 	0.64204 0.29197 0.43016 -0.63900
O 	O 	0.73216 0.35011 0.50626 -0.64000
O 	O 	0.78011 0.30396 0.43487 -0.37200
O 	O 	0.71817 0.23875 0.48319 -0.44400
O 	O 	0.66233 0.34632 0.33959 -0.38000
O 	O 	0.55650 0.26683 0.49431 -0.38400
C 	C 	0.52094 0.26605 0.45680 0.31000
C 	C 	0.74352 0.44968 0.45096 0.30100
O 	O 	0.68776 0.41420 0.45853 -0.39400
O 	O 	0.54292 0.30235 0.42354 -0.39200
O 	O 	0.72474 0.31914 0.35918 -0.35800
C 	C 	0.75702 0.25409 0.45218 0.30900
O 	O 	0.64705 0.32505 0.57659 -0.37400
O 	O 	0.73197 0.33034 0.60403 -0.41800
H 	H 	0.61575 0.24893 0.41536 0.16500
H 	H 	0.75819 0.39147 0.52575 0.17600
C 	C 	0.66533 0.31802 0.77040 -0.07700
C 	C 	0.61682 0.27326 0.73167 -0.02200
C 	C 	0.62007 0.27681 0.67975 0.03500
C 	C 	0.67240 0.32578 0.66626 -0.07700
C 	C 	0.71868 0.37281 0.70504 -0.02200
C 	C 	0.71546 0.36921 0.75696 0.03400
S 	S 	0.55971 0.21822 0.63210 -0.06100
S 	S 	0.77581 0.42775 0.80464 -0.05900
H 	H 	0.76387 0.46736 0.81942 0.04900
H 	H 	0.51989 0.23083 0.61812 0.05000
H 	H 	0.57754 0.23450 0.74191 0.04400
H 	H 	0.75832 0.41121 0.69480 0.04400
C 	C 	0.68029 0.30057 0.27064 -0.07400
C 	C 	0.73182 0.33203 0.24797 -0.01900
C 	C 	0.72579 0.32636 0.19434 0.03600
C 	C 	0.66776 0.28865 0.16310 -0.07300
C 	C 	0.61694 0.25322 0.18558 -0.02000
C 	C 	0.62293 0.25888 0.23912 0.03700
S 	S 	0.79090 0.36814 0.16691 -0.06100
S 	S 	0.55828 0.21382 0.26628 -0.07000
H 	H 	0.55164 0.16269 0.27251 0.03700
H 	H 	0.81167 0.33522 0.15568 0.04200
H 	H 	0.77623 0.36318 0.27207 0.05100
H 	H 	0.57242 0.22282 0.16147 0.04800
C 	C 	0.81466 0.62464 0.45657 -0.00800
C 	C 	0.77570 0.63834 0.43807 -0.02800
C 	C 	0.79844 0.69751 0.43728 -0.04400
C 	C 	0.86019 0.74320 0.45503 0.01800
C 	C 	0.87620 0.67042 0.47509 -0.02800
C 	C 	0.79161 0.56348 0.45541 0.04700
C 	C 	0.77090 0.51187 0.45390 -0.10800
H 	H 	0.72801 0.60318 0.42382 0.04000
H 	H 	0.76822 0.70767 0.42229 0.04600
C 	C 	0.80529 0.06195 0.44130 -0.04600
C 	C 	0.78298 0.09563 0.44224 -0.02900
C 	C 	0.81711 0.15249 0.42959 -0.01200
C 	C 	0.79731 0.18975 0.43630 0.04700
C 	C 	0.77942 0.21973 0.44235 -0.11900
H 	H 	0.77925 0.01863 0.45223 0.04300
H 	H 	0.73987 0.07811 0.45395 0.03700
C 	C 	0.34003 0.17191 0.45778 -0.00900
C 	C 	0.31383 0.20178 0.46414 -0.02700
C 	C 	0.25134 0.16946 0.46214 -0.04300
C 	C 	0.21487 0.10719 0.45378 0.01800
C 	C 	0.24116 0.07738 0.44785 -0.04400
C 	C 	0.30361 0.10968 0.44984 -0.02800
C 	C 	0.15046 0.07380 0.45106 0.00400
C 	C 	0.09645 0.04501 0.44865 -0.03500
C 	C 	0.40393 0.20500 0.45773 0.04800
C 	C 	0.45743 0.23266 0.45768 -0.10700
H 	H 	0.34174 0.24991 0.47025 0.04200
H 	H 	0.23132 0.19279 0.46686 0.04600
H 	H 	0.21322 0.02924 0.44149 0.04500
H 	H 	0.32357 0.08632 0.44486 0.03800
C 	C 	0.87004 0.75994 0.98133 0.01200
C 	C 	0.87339 0.67709 0.99104 -0.03400
C 	C 	0.80999 0.63811 0.97926 -0.00600
C 	C 	0.77667 0.66010 0.96825 -0.02900
C 	C 	0.80665 0.72093 0.96928 -0.03900
C 	C 	0.77906 0.57584 0.97982 0.05200
C 	C 	0.75267 0.52360 0.98018 -0.10900
H 	H 	0.72761 0.63017 0.95916 0.04400
H 	H 	0.78063 0.73768 0.96083 0.04700
C 	C 	0.82384 0.15750 0.00570 -0.04200
C 	C 	0.79507 0.09964 0.01547 -0.01900
C 	C 	0.82568 0.07387 0.01603 -0.05300
C 	C 	0.88514 0.10590 0.00683 0.01700
C 	C 	0.88403 0.19025 0.99835 -0.00900
C 	C 	0.79009 0.18128 0.99866 0.07000
C 	C 	0.76253 0.20189 0.99263 -0.12900
H 	H 	0.74858 0.07410 0.02130 0.03400
H 	H 	0.80270 0.02863 0.02244 0.04400
C 	C 	0.35496 0.17095 0.97410 0.00300
C 	C 	0.31129 0.13585 0.92931 -0.02900
C 	C 	0.25033 0.11064 0.92991 -0.04500
C 	C 	0.23290 0.12046 0.97532 0.03000
C 	C 	0.27682 0.15682 0.01969 -0.05400
C 	C 	0.33771 0.18202 0.01908 -0.03800
C 	C 	0.16973 0.08902 0.97775 0.00300
C 	C 	0.11689 0.06281 0.98003 -0.03100
C 	C 	0.41732 0.19491 0.97432 0.04700
C 	C 	0.46996 0.21576 0.97604 -0.10500
H 	H 	0.32438 0.12745 0.89429 0.04100
H 	H 	0.21658 0.08251 0.89546 0.04700
H 	H 	0.26366 0.16454 0.05493 0.04500
H 	H 	0.37133 0.20943 0.05376 0.04000
C 	C 	0.96806 0.02506 0.99357 0.11200
C 	C 	0.89891 0.72954 0.47433 -0.04400
H 	H 	0.94672 0.76463 0.48810 0.04500
H 	H 	0.90655 0.66022 0.48957 0.04000
C 	C 	0.86182 0.08495 0.42768 0.01700
C 	C 	0.87274 0.17467 0.41437 -0.02800
C 	C 	0.89504 0.14098 0.41340 -0.04500
C 	C 	0.88772 0.05304 0.43165 -0.00000
C 	C 	0.91089 0.02769 0.43452 -0.03500
H 	H 	0.89936 0.21850 0.40446 0.03900
H 	H 	0.93870 0.15900 0.40267 0.04400
C 	C 	0.90336 0.73790 0.99207 -0.02700
H 	H 	0.89941 0.66038 0.99965 0.04300
C 	C 	0.91462 0.16450 0.99892 -0.04300
C 	C 	0.91457 0.07752 0.00239 -0.02100
C 	C 	0.93931 0.05386 0.99866 -0.01400
H 	H 	0.96069 0.18961 0.99202 0.04600
H 	H 	0.90661 0.23507 0.99089 0.03400
H 	H 	0.95241 0.76784 0.00133 0.03200
C 	C 	0.03213 0.00947 0.44583 0.12800
C 	C 	0.94160 0.00056 0.43846 0.11500
N 	N 	0.02132 0.96983 0.98128 -0.12700
N 	N 	0.00100 0.95104 0.44832 -0.12800
N 	N 	0.93545 0.96548 0.99157 -0.13100
C 	C 	0.96214 0.93791 0.98542 0.12900
C 	C 	0.94021 0.91715 0.44593 0.12600
N 	N 	0.91029 0.94185 0.44105 -0.13200
C 	C 	0.88474 0.80376 0.45099 0.00300
C 	C 	0.90803 0.85521 0.44858 -0.03400
C 	C 	0.90103 0.82254 0.98256 0.00900
C 	C 	0.92816 0.87516 0.98386 -0.03500
