data_crystal

_cell_length_a 18.51582
_cell_length_b 18.82938
_cell_length_c 26.42722
_cell_angle_alpha 95.44032
_cell_angle_beta  95.44076
_cell_angle_gamma 126.37812

_symmetry_space_group_name_	'P 1'
_symmetry_space_group_name_H-M	'P 1'

loop_
_symmetry_equiv_pos_as_xyz
  x,y,z

loop_
_atom_site_label
_atom_site_type_symbol
_atom_site_fract_x
_atom_site_fract_y
_atom_site_fract_z
_atom_site_charge
C 	C 	0.95330 0.04157 0.00069 0.12000
N 	N 	0.89716 0.95062 0.99433 -0.13000
C 	C 	0.93147 0.90421 0.98947 0.12800
N 	N 	0.02223 0.94883 0.99125 -0.12800
C 	C 	0.07892 0.03966 0.99772 0.12400
N 	N 	0.04444 0.08630 0.00213 -0.13300
C 	C 	0.90535 0.99260 0.44766 0.12800
N 	N 	0.99611 0.04477 0.44679 -0.13600
C 	C 	0.04291 0.01055 0.45098 0.12400
N 	N 	0.99878 0.92353 0.45534 -0.12900
C 	C 	0.90837 0.87053 0.45658 0.12300
N 	N 	0.86106 0.90500 0.45284 -0.13100
Cu	Cu	0.62289 0.21024 0.01041 0.93300
Cu	Cu	0.68370 0.21600 0.89761 0.88300
Cu	Cu	0.65563 0.34504 0.94289 0.90900
Cu	Cu	0.63675 0.38103 0.05072 0.91400
C 	C 	0.66601 0.28033 0.11943 0.31000
O 	O 	0.49322 0.16265 0.01653 -0.35100
C 	C 	0.62848 0.29247 0.83046 0.29500
O 	O 	0.69835 0.34954 0.01328 -0.63400
O 	O 	0.59979 0.21531 0.93688 -0.63600
O 	O 	0.67778 0.14650 0.00190 -0.35700
O 	O 	0.77375 0.24235 0.95312 -0.41200
O 	O 	0.62521 0.31706 0.10913 -0.34400
O 	O 	0.71962 0.47275 0.94995 -0.33000
C 	C 	0.72396 0.52680 0.98799 0.29500
C 	C 	0.45852 0.20292 0.00100 0.27800
O 	O 	0.51310 0.28618 0.99406 -0.38800
O 	O 	0.69427 0.50062 0.03121 -0.36100
O 	O 	0.66459 0.22644 0.08287 -0.33000
C 	C 	0.75371 0.18425 0.98349 0.29400
O 	O 	0.62108 0.33709 0.86873 -0.31800
O 	O 	0.62428 0.22144 0.83644 -0.38900
H 	H 	0.76561 0.38859 0.02426 0.21200
H 	H 	0.53509 0.17478 0.91901 0.18400
Cu	Cu	0.75871 0.34197 0.44566 0.93100
Cu	Cu	0.73703 0.26722 0.55462 0.88500
Cu	Cu	0.61412 0.30407 0.50862 0.90800
Cu	Cu	0.58607 0.32932 0.40104 0.91300
C 	C 	0.69807 0.31079 0.33598 0.31100
O 	O 	0.80713 0.47271 0.44451 -0.34200
C 	C 	0.65763 0.32021 0.62118 0.29700
O 	O 	0.61571 0.26683 0.43825 -0.63000
O 	O 	0.74558 0.35606 0.51829 -0.63700
O 	O 	0.81846 0.28130 0.45325 -0.34700
O 	O 	0.71218 0.18302 0.49709 -0.40900
O 	O 	0.66027 0.35031 0.34638 -0.35200
O 	O 	0.48420 0.24500 0.49851 -0.33300
C 	C 	0.42938 0.22838 0.45566 0.29400
C 	C 	0.76085 0.50240 0.45786 0.28000
O 	O 	0.67515 0.44502 0.46198 -0.39100
O 	O 	0.46072 0.26594 0.41529 -0.36300
O 	O 	0.75025 0.30956 0.37294 -0.32400
C 	C 	0.77524 0.20406 0.46953 0.29100
O 	O 	0.61626 0.33161 0.58277 -0.31900
O 	O 	0.72875 0.32182 0.61627 -0.38700
H 	H 	0.57671 0.20099 0.42603 0.21000
H 	H 	0.78658 0.41829 0.53833 0.18300
C 	C 	0.55181 0.24208 0.73836 0.05300
C 	C 	0.62336 0.31116 0.77774 0.00200
C 	C 	0.69652 0.39208 0.76493 -0.10100
C 	C 	0.70271 0.39700 0.71250 0.05300
C 	C 	0.63610 0.32385 0.67324 0.00300
C 	C 	0.55655 0.24838 0.68594 -0.10100
C 	C 	0.47847 0.17320 0.64372 0.77800
H 	H 	0.49449 0.18175 0.74865 0.07800
H 	H 	0.76151 0.45601 0.70214 0.07800
C 	C 	0.76832 0.47251 0.80698 0.77900
F 	F 	0.40441 0.10908 0.66384 -0.44700
F 	F 	0.50737 0.13142 0.61580 -0.47300
F 	F 	0.44944 0.20795 0.61076 -0.44800
F 	F 	0.81285 0.45025 0.83894 -0.47300
F 	F 	0.72691 0.49883 0.83600 -0.44600
F 	F 	0.83316 0.54511 0.78656 -0.44700
C 	C 	0.77324 0.36311 0.26078 0.05800
C 	C 	0.70426 0.29254 0.28180 0.00300
C 	C 	0.63352 0.21002 0.24894 -0.10000
C 	C 	0.62519 0.20461 0.19495 0.05700
C 	C 	0.68925 0.27854 0.17391 0.00300
C 	C 	0.76785 0.35571 0.20684 -0.09800
C 	C 	0.84251 0.43289 0.18464 0.77900
H 	H 	0.82841 0.42550 0.28634 0.08100
H 	H 	0.56619 0.14483 0.16935 0.07900
C 	C 	0.56286 0.13021 0.27124 0.77900
F 	F 	0.92237 0.48963 0.22110 -0.43500
F 	F 	0.81414 0.48174 0.16838 -0.46000
F 	F 	0.86177 0.40051 0.14299 -0.45000
F 	F 	0.50313 0.14428 0.28817 -0.46200
F 	F 	0.60515 0.11928 0.31248 -0.44900
F 	F 	0.51334 0.05152 0.23472 -0.43800
C 	C 	0.91101 0.75559 0.49465 -0.03500
C 	C 	0.86302 0.77625 0.46264 0.00800
C 	C 	0.78059 0.70617 0.42976 -0.03700
C 	C 	0.74831 0.61694 0.42755 0.01600
C 	C 	0.79843 0.59691 0.45799 -0.06800
C 	C 	0.87939 0.66655 0.49187 0.01500
H 	H 	0.97437 0.80891 0.52060 0.06400
H 	H 	0.74321 0.72085 0.40455 0.06200
H 	H 	0.68490 0.56346 0.40171 0.03700
H 	H 	0.91746 0.65182 0.51641 0.04600
C 	C 	0.87910 0.09701 0.41448 -0.03200
C 	C 	0.85719 0.03340 0.44628 0.00300
C 	C 	0.80267 0.02162 0.48293 -0.03900
C 	C 	0.77483 0.07619 0.48981 0.01000
C 	C 	0.80104 0.14331 0.45996 -0.06500
C 	C 	0.85151 0.15184 0.42141 0.01600
H 	H 	0.92020 0.10608 0.38554 0.06100
H 	H 	0.78539 0.97318 0.50780 0.06200
H 	H 	0.73501 0.06784 0.51935 0.04300
H 	H 	0.87029 0.20140 0.39715 0.06500
C 	C 	0.19722 0.05581 0.48517 -0.02300
C 	C 	0.14212 0.06860 0.45342 0.00400
C 	C 	0.18191 0.13526 0.42306 -0.03100
C 	C 	0.27578 0.18781 0.42391 0.01100
C 	C 	0.33067 0.17401 0.45509 -0.05100
C 	C 	0.29087 0.10795 0.48584 0.01700
H 	H 	0.16741 0.00531 0.50929 0.06900
H 	H 	0.14000 0.14556 0.39830 0.05900
H 	H 	0.30578 0.23933 0.40047 0.05500
H 	H 	0.33235 0.09638 0.50990 0.09200
C 	C 	0.75026 0.67262 0.01250 0.01000
C 	C 	0.77031 0.62147 0.98400 -0.04700
C 	C 	0.83803 0.66233 0.95363 0.01900
C 	C 	0.88803 0.75410 0.95371 -0.02300
C 	C 	0.87118 0.80608 0.98430 0.00500
C 	C 	0.80059 0.76454 0.01272 -0.03100
H 	H 	0.69674 0.64149 0.03514 0.05400
H 	H 	0.85379 0.62359 0.93114 0.09700
H 	H 	0.94112 0.78518 0.93077 0.07200
H 	H 	0.78656 0.80389 0.03622 0.05900
C 	C 	0.84344 0.06268 0.03196 -0.03400
C 	C 	0.91451 0.09074 0.00436 0.00300
C 	C 	0.93934 0.15731 0.97475 -0.03400
C 	C 	0.88938 0.19078 0.96976 0.00900
C 	C 	0.81383 0.15782 0.99433 -0.06700
C 	C 	0.79333 0.09596 0.02698 0.01200
H 	H 	0.82505 0.01279 0.05593 0.05900
H 	H 	0.99458 0.18011 0.95365 0.05700
H 	H 	0.90768 0.24016 0.94545 0.04900
H 	H 	0.73722 0.07188 0.04748 0.06100
C 	C 	0.22675 0.15243 0.97170 -0.03200
C 	C 	0.17771 0.08698 0.00171 0.00000
C 	C 	0.22097 0.05938 0.03120 -0.03200
C 	C 	0.31180 0.09554 0.02999 0.00800
C 	C 	0.36076 0.16022 0.99948 -0.06600
C 	C 	0.31779 0.18873 0.97044 0.00600
H 	H 	0.19376 0.17350 0.94834 0.05700
H 	H 	0.18383 0.00917 0.05471 0.06400
H 	H 	0.34437 0.07408 0.05333 0.06100
H 	H 	0.35469 0.23857 0.94670 0.04900
