data_crystal

_cell_length_a 43.48476
_cell_length_b 41.55939
_cell_length_c 21.94852
_cell_angle_alpha 89.96392
_cell_angle_beta  89.95264
_cell_angle_gamma 87.29877

_symmetry_space_group_name_	'P 1'
_symmetry_space_group_name_H-M	'P 1'

loop_
_symmetry_equiv_pos_as_xyz
  x,y,z

loop_
_atom_site_label
_atom_site_type_symbol
_atom_site_fract_x
_atom_site_fract_y
_atom_site_fract_z
_atom_site_charge
C 	C 	0.45987 0.53968 0.98446 -0.03700
C 	C 	0.48488 0.55747 0.00142 -0.03800
C 	C 	0.46212 0.50574 0.98490 0.01300
C 	C 	0.49045 0.48968 0.00056 -0.00800
C 	C 	0.51587 0.50774 0.01775 -0.00300
C 	C 	0.51309 0.54186 0.01807 0.00800
C 	C 	0.49336 0.45558 0.99945 0.01300
C 	C 	0.52140 0.43995 0.01709 -0.04100
C 	C 	0.54406 0.49167 0.03437 0.00800
C 	C 	0.53868 0.55971 0.03518 -0.00700
C 	C 	0.56626 0.54357 0.05240 -0.04500
C 	C 	0.56946 0.50994 0.05078 -0.00700
C 	C 	0.43656 0.48745 0.96953 -0.00900
C 	C 	0.44000 0.45387 0.96617 -0.04300
C 	C 	0.46793 0.43776 0.98125 -0.00900
C 	C 	0.53779 0.59526 0.03144 0.01500
C 	C 	0.54468 0.61027 0.97615 -0.04200
C 	C 	0.55016 0.64313 0.97479 -0.03100
C 	C 	0.54897 0.66122 0.02882 0.00200
C 	C 	0.54016 0.64667 0.08341 -0.02800
C 	C 	0.53469 0.61376 0.08475 -0.04400
C 	C 	0.60025 0.49447 0.06168 0.01600
C 	C 	0.61217 0.49263 0.12101 -0.04400
C 	C 	0.64305 0.48301 0.13045 -0.03200
C 	C 	0.61901 0.48525 0.01211 -0.04500
C 	C 	0.64984 0.47557 0.02151 -0.02900
C 	C 	0.66223 0.47532 0.08054 0.00300
C 	C 	0.40547 0.50281 0.96166 0.01900
C 	C 	0.38846 0.51325 0.01286 -0.04500
C 	C 	0.35767 0.52389 0.00658 -0.02800
C 	C 	0.34352 0.52376 0.94916 0.00500
C 	C 	0.36080 0.51428 0.89763 -0.03100
C 	C 	0.39168 0.50385 0.90388 -0.04300
C 	C 	0.46966 0.40215 0.97988 0.01900
C 	C 	0.48015 0.38586 0.92730 -0.04400
C 	C 	0.47679 0.35267 0.92173 -0.03000
C 	C 	0.46274 0.33563 0.96854 0.00300
C 	C 	0.45346 0.35170 0.02213 -0.02800
C 	C 	0.45701 0.38481 0.02787 -0.04500
C 	C 	0.54630 0.45773 0.03476 -0.03700
H 	H 	0.54697 0.59619 0.93472 0.04600
H 	H 	0.55636 0.65430 0.93217 0.04500
H 	H 	0.53884 0.66050 0.12523 0.04800
H 	H 	0.52927 0.60238 0.12762 0.04600
H 	H 	0.35018 0.51450 0.85299 0.04500
H 	H 	0.40467 0.49583 0.86411 0.04600
H 	H 	0.34455 0.53132 0.04657 0.05000
H 	H 	0.39891 0.51241 0.05766 0.04700
H 	H 	0.48994 0.39908 0.89002 0.04600
H 	H 	0.48409 0.34044 0.88023 0.04400
H 	H 	0.44889 0.39721 0.06864 0.04700
H 	H 	0.44274 0.33870 0.05864 0.04800
H 	H 	0.59778 0.49960 0.15955 0.04500
H 	H 	0.65224 0.48231 0.17632 0.04300
H 	H 	0.60995 0.48659 0.96616 0.04800
H 	H 	0.66439 0.46945 0.98273 0.05100
H 	H 	0.43879 0.55250 0.97051 0.04700
H 	H 	0.48212 0.58349 0.00157 0.04600
H 	H 	0.58586 0.55740 0.06485 0.04700
H 	H 	0.56728 0.44489 0.04919 0.04500
H 	H 	0.52403 0.41393 0.01771 0.04500
H 	H 	0.42043 0.44004 0.95358 0.04900
Zn	Zn	0.37554 0.11118 0.99627 1.22200
C 	C 	0.32212 0.07256 0.01098 0.31000
O 	O 	0.39664 0.11230 0.07575 -0.43800
O 	O 	0.34013 0.04662 0.00315 -0.42900
O 	O 	0.37415 0.06814 0.11263 -0.46900
C 	C 	0.39629 0.05966 0.91736 0.29800
O 	O 	0.37769 0.08541 0.92166 -0.42800
O 	O 	0.40776 0.04596 0.96672 -0.48700
C 	C 	0.38890 0.09444 0.12216 0.28800
O 	O 	0.41481 0.14230 0.95477 -0.29900
Zn	Zn	0.38353 0.04260 0.04060 1.17500
O 	O 	0.33405 0.10033 0.02331 -0.43000
C 	C 	0.39410 0.16585 0.95578 0.27000
O 	O 	0.36739 0.15853 0.97617 -0.37400
C 	C 	0.48482 0.03242 0.45663 0.01500
C 	C 	0.51009 0.01014 0.44646 0.01500
C 	C 	0.46380 0.02694 0.50378 -0.05300
C 	C 	0.46769 0.99948 0.54086 0.01500
C 	C 	0.51399 0.98267 0.48354 -0.05400
C 	C 	0.49299 0.97721 0.53074 0.01500
H 	H 	0.53324 0.96567 0.47575 0.05500
H 	H 	0.44455 0.04394 0.51156 0.05500
C 	C 	0.49625 0.94954 0.56798 -0.01600
C 	C 	0.47610 0.94456 0.61679 0.00900
C 	C 	0.48949 0.92432 0.66317 -0.03700
C 	C 	0.52017 0.91446 0.65143 -0.01700
S 	S 	0.52989 0.93080 0.58509 0.02400
H 	H 	0.47884 0.92071 0.70702 0.05200
C 	C 	0.44649 0.99313 0.58759 -0.01600
C 	C 	0.45098 0.96654 0.62660 0.01000
C 	C 	0.43563 0.97078 0.68366 -0.03700
C 	C 	0.41987 0.00084 0.68942 -0.01700
S 	S 	0.42556 0.02135 0.62534 0.02500
H 	H 	0.43822 0.95399 0.72115 0.05200
C 	C 	0.50168 0.06510 0.37062 0.00900
C 	C 	0.48156 0.06012 0.41946 -0.01600
S 	S 	0.44792 0.07885 0.40240 0.02400
C 	C 	0.45755 0.09513 0.33596 -0.01700
C 	C 	0.48824 0.08527 0.32417 -0.03700
C 	C 	0.53131 0.01653 0.39977 -0.01600
C 	C 	0.52685 0.04317 0.36088 0.01000
C 	C 	0.54238 0.03909 0.30399 -0.03700
C 	C 	0.55824 0.00909 0.29823 -0.01700
S 	S 	0.55239 0.98840 0.36208 0.02400
H 	H 	0.53991 0.05598 0.26663 0.05200
H 	H 	0.49882 0.08874 0.28021 0.05100
Zn	Zn	0.60066 0.89750 0.99152 1.22200
C 	C 	0.65657 0.93183 0.97693 0.30700
O 	O 	0.59991 0.92362 0.06657 -0.42400
O 	O 	0.64013 0.95869 0.98627 -0.42800
O 	O 	0.57313 0.96528 0.02060 -0.48600
C 	C 	0.58861 0.91463 0.86558 0.29100
O 	O 	0.57979 0.89769 0.91244 -0.44200
O 	O 	0.60475 0.94004 0.87437 -0.47000
C 	C 	0.58323 0.95075 0.07029 0.29700
O 	O 	0.55857 0.86899 0.02827 -0.31200
Zn	Zn	0.59758 0.96616 0.94649 1.17600
O 	O 	0.64284 0.90515 0.96379 -0.42900
C 	C 	0.57863 0.84516 0.03572 0.27000
O 	O 	0.60661 0.85117 0.02092 -0.36300
Zn	Zn	0.11629 0.59612 0.02480 1.22200
C 	C 	0.07031 0.64772 0.04331 0.31000
O 	O 	0.11886 0.56959 0.09951 -0.43700
O 	O 	0.04881 0.62770 0.03005 -0.43100
O 	O 	0.07244 0.58846 0.13486 -0.47100
C 	C 	0.07292 0.57571 0.93646 0.29900
O 	O 	0.09403 0.59653 0.94746 -0.42700
O 	O 	0.06085 0.55985 0.98156 -0.48600
C 	C 	0.09942 0.57412 0.14483 0.28800
O 	O 	0.15332 0.56052 0.97808 -0.29700
Zn	Zn	0.05141 0.58056 0.05904 1.17400
O 	O 	0.09808 0.63658 0.05844 -0.43000
C 	C 	0.17203 0.58360 0.98597 0.27300
O 	O 	0.16022 0.60926 0.01192 -0.37800
C 	C 	0.01086 0.46586 0.47096 0.01500
C 	C 	0.03698 0.48470 0.47908 0.01600
C 	C 	0.98535 0.47024 0.51011 -0.05300
C 	C 	0.98492 0.49450 0.55475 0.01600
C 	C 	0.03709 0.50788 0.52569 -0.05300
C 	C 	0.01088 0.51363 0.56220 0.01600
H 	H 	0.05713 0.52198 0.53240 0.05600
H 	H 	0.96564 0.45549 0.50476 0.05500
C 	C 	0.00918 0.53939 0.60413 -0.01600
C 	C 	0.98296 0.54561 0.64038 0.01000
C 	C 	0.98951 0.56228 0.69529 -0.03600
C 	C 	0.02077 0.56816 0.70251 -0.01800
S 	S 	0.03930 0.55277 0.64192 0.02600
H 	H 	0.97297 0.56638 0.73159 0.04900
C 	C 	0.95825 0.50182 0.58969 -0.01600
C 	C 	0.95712 0.52690 0.63255 0.00900
C 	C 	0.93406 0.52328 0.67789 -0.03600
C 	C 	0.91825 0.49490 0.67170 -0.01700
S 	S 	0.93306 0.47500 0.61157 0.02500
H 	H 	0.93155 0.53851 0.71766 0.04900
C 	C 	0.03468 0.44172 0.37924 0.01000
C 	C 	0.01079 0.44353 0.42242 -0.01500
S 	S 	0.97908 0.43157 0.38798 0.02300
C 	C 	0.99413 0.42225 0.32000 -0.01600
C 	C 	0.02528 0.42943 0.32183 -0.03600
C 	C 	0.06209 0.48050 0.43852 -0.01500
C 	C 	0.06052 0.46042 0.38727 0.01000
C 	C 	0.08022 0.46959 0.33878 -0.03600
C 	C 	0.09638 0.49719 0.35156 -0.01700
S 	S 	0.08616 0.50923 0.42144 0.02500
H 	H 	0.07946 0.45944 0.29350 0.05100
H 	H 	0.03957 0.42909 0.28148 0.05100
Zn	Zn	0.89547 0.40516 0.00446 1.22100
C 	C 	0.83770 0.43579 0.04369 0.30900
O 	O 	0.90530 0.42390 0.92454 -0.43800
O 	O 	0.85371 0.45888 0.06684 -0.42900
O 	O 	0.87508 0.46931 0.93938 -0.47100
C 	C 	0.92210 0.43530 0.10727 0.29800
O 	O 	0.90400 0.41253 0.09054 -0.43200
O 	O 	0.92417 0.46118 0.07359 -0.49100
C 	C 	0.88983 0.44918 0.90243 0.28800
O 	O 	0.94256 0.37418 0.00131 -0.31500
Zn	Zn	0.89067 0.47659 0.02078 1.17200
O 	O 	0.85084 0.41478 0.00592 -0.43100
C 	C 	0.92537 0.35017 0.99004 0.27300
O 	O 	0.89608 0.35705 0.98808 -0.36300
C 	C 	0.93546 0.01807 0.97133 -0.03800
C 	C 	0.95355 0.04486 0.96967 -0.03900
C 	C 	0.94907 0.98689 0.97889 0.00900
C 	C 	0.98155 0.98278 0.98223 -0.00600
C 	C 	0.99992 0.01002 0.98074 -0.00500
C 	C 	0.98579 0.04130 0.97600 0.00900
C 	C 	0.99567 0.95149 0.98695 0.00900
C 	C 	0.02801 0.94782 0.99048 -0.03800
C 	C 	0.03240 0.00594 0.98408 0.00900
C 	C 	0.00426 0.06848 0.97701 -0.00800
C 	C 	0.03633 0.06421 0.97934 -0.04400
C 	C 	0.05056 0.03336 0.98254 -0.00800
C 	C 	0.93084 0.95957 0.98238 -0.00800
C 	C 	0.94502 0.92875 0.98655 -0.04400
C 	C 	0.97709 0.92441 0.98825 -0.00800
C 	C 	0.99034 0.10158 0.97818 0.01900
C 	C 	0.99149 0.12113 0.92620 -0.04400
C 	C 	0.97934 0.15285 0.92798 -0.02700
C 	C 	0.96575 0.16514 0.98161 0.00400
C 	C 	0.96459 0.14558 0.03360 -0.03200
C 	C 	0.97701 0.11397 0.03200 -0.04500
C 	C 	0.08453 0.03029 0.98475 0.01900
C 	C 	0.09997 0.03593 0.03951 -0.04600
C 	C 	0.13209 0.03640 0.04042 -0.02800
C 	C 	0.10145 0.02442 0.93114 -0.04400
C 	C 	0.13359 0.02471 0.93208 -0.03100
C 	C 	0.14902 0.03107 0.98663 0.00300
C 	C 	0.89685 0.96282 0.98300 0.01800
C 	C 	0.88121 0.97096 0.03716 -0.04500
C 	C 	0.84905 0.97148 0.03907 -0.03200
C 	C 	0.83230 0.96367 0.98687 0.00300
C 	C 	0.84798 0.95579 0.93260 -0.02700
C 	C 	0.88012 0.95544 0.93064 -0.04500
C 	C 	0.99081 0.89128 0.99045 0.01800
C 	C 	0.99641 0.87416 0.93624 -0.04400
C 	C 	0.00626 0.84169 0.93828 -0.03200
C 	C 	0.01043 0.82608 0.99461 0.00400
C 	C 	0.00589 0.84354 0.04882 -0.02900
C 	C 	0.99596 0.87600 0.04674 -0.04600
C 	C 	0.04609 0.97464 0.98928 -0.03800
H 	H 	0.00192 0.11178 0.88459 0.04700
H 	H 	0.98039 0.16784 0.88769 0.04900
H 	H 	0.95432 0.15497 0.07534 0.04500
H 	H 	0.97628 0.09909 0.07248 0.04600
H 	H 	0.83526 0.94978 0.89206 0.04800
H 	H 	0.89206 0.94900 0.88873 0.04600
H 	H 	0.83718 0.97735 0.08132 0.04300
H 	H 	0.89399 0.97648 0.07789 0.04600
H 	H 	0.99257 0.88587 0.89261 0.04600
H 	H 	0.01018 0.82854 0.89617 0.04400
H 	H 	0.99171 0.88911 0.08880 0.04600
H 	H 	0.00923 0.83174 0.09251 0.04800
H 	H 	0.08705 0.04056 0.08106 0.04700
H 	H 	0.14379 0.04125 0.08276 0.04800
H 	H 	0.08967 0.02020 0.88862 0.04600
H 	H 	0.14644 0.02076 0.89023 0.04400
H 	H 	0.91080 0.02172 0.96600 0.04500
H 	H 	0.94233 0.06838 0.96275 0.04500
H 	H 	0.05035 0.08513 0.97934 0.05000
H 	H 	0.07083 0.97089 0.99271 0.04500
H 	H 	0.03936 0.92417 0.99451 0.04600
H 	H 	0.93093 0.90790 0.98854 0.04800
C 	C 	0.96142 0.25433 0.97974 0.09700
C 	C 	0.92975 0.26103 0.98835 0.09200
N 	N 	0.91863 0.29204 0.99120 -0.08800
C 	C 	0.93792 0.31679 0.98639 -0.01400
C 	C 	0.96963 0.31005 0.97784 0.04200
N 	N 	0.98072 0.27893 0.97458 -0.10900
N 	N 	0.97256 0.22329 0.97726 -0.11200
N 	N 	0.91049 0.23643 0.99436 -0.10200
H 	H 	0.98529 0.32941 0.97346 0.05000
C 	C 	0.95331 0.19860 0.98365 0.04900
C 	C 	0.92165 0.20534 0.99229 0.00300
H 	H 	0.90607 0.18593 0.99714 0.04200
C 	C 	0.89233 0.45725 0.83756 0.03200
N 	N 	0.91226 0.44006 0.80106 -0.05600
N 	N 	0.91862 0.45068 0.74532 -0.08000
C 	C 	0.90523 0.47876 0.72454 0.11700
N 	N 	0.88411 0.49500 0.75988 -0.08400
N 	N 	0.87769 0.48436 0.81550 -0.06300
C 	C 	0.97585 0.42485 0.26385 0.11700
N 	N 	0.98344 0.44581 0.21944 -0.08700
N 	N 	0.96624 0.44909 0.16944 -0.06500
C 	C 	0.94115 0.43127 0.16209 0.03300
N 	N 	0.93366 0.41012 0.20628 -0.05500
N 	N 	0.95065 0.40714 0.25673 -0.07900
C 	C 	0.03117 0.72606 0.00443 0.08700
C 	C 	0.05046 0.74790 0.03221 0.09700
N 	N 	0.04357 0.78004 0.02816 -0.11500
C 	C 	0.01823 0.79126 0.99689 0.05000
C 	C 	0.99900 0.76936 0.96905 0.00200
N 	N 	0.00586 0.73719 0.97339 -0.10400
N 	N 	0.03793 0.69394 0.00885 -0.09000
N 	N 	0.07583 0.73674 0.06309 -0.11200
H 	H 	0.97854 0.77790 0.94476 0.04100
C 	C 	0.06338 0.68263 0.03958 -0.03200
C 	C 	0.08273 0.70454 0.06728 0.04600
H 	H 	0.10295 0.69601 0.09231 0.04700
C 	C 	0.06084 0.57205 0.87465 0.03500
N 	N 	0.03575 0.55449 0.86535 -0.06500
N 	N 	0.02310 0.55311 0.81028 -0.08500
C 	C 	0.03525 0.56914 0.76278 0.11900
N 	N 	0.06074 0.58620 0.77168 -0.07900
N 	N 	0.07325 0.58782 0.82701 -0.05300
C 	C 	0.10366 0.52018 0.30349 0.11600
N 	N 	0.08998 0.55022 0.30372 -0.08200
N 	N 	0.09056 0.56861 0.25404 -0.06000
C 	C 	0.10519 0.55767 0.20297 0.03000
N 	N 	0.12055 0.52846 0.20401 -0.06000
N 	N 	0.11960 0.50987 0.25343 -0.08200
C 	C 	0.73545 0.96086 0.99315 0.08900
C 	C 	0.75360 0.93355 0.97575 0.09700
N 	N 	0.78473 0.93491 0.97410 -0.11400
C 	C 	0.79853 0.96249 0.98960 0.05000
C 	C 	0.78034 0.98977 0.00714 0.00000
N 	N 	0.74915 0.98840 0.00853 -0.10500
N 	N 	0.70431 0.95966 0.99385 -0.09100
N 	N 	0.73990 0.90603 0.96028 -0.11100
H 	H 	0.79096 0.01195 0.01906 0.04100
C 	C 	0.69044 0.93217 0.97800 -0.03000
C 	C 	0.70870 0.90474 0.96114 0.04600
H 	H 	0.69815 0.88266 0.94834 0.04900
C 	C 	0.54239 0.90857 0.70099 0.11600
N 	N 	0.56741 0.92679 0.70547 -0.08300
N 	N 	0.58362 0.92705 0.75695 -0.06200
C 	C 	0.57538 0.90897 0.80530 0.03000
N 	N 	0.55155 0.88924 0.79947 -0.05700
N 	N 	0.53522 0.88914 0.74813 -0.08200
C 	C 	0.57625 0.96539 0.12983 0.03400
N 	N 	0.56150 0.99484 0.13287 -0.06400
N 	N 	0.55586 0.00877 0.18658 -0.08600
C 	C 	0.56463 0.99359 0.23894 0.11700
N 	N 	0.57940 0.96407 0.23600 -0.08000
N 	N 	0.58520 0.95019 0.18214 -0.05500
C 	C 	0.24539 0.03922 0.98800 0.09000
C 	C 	0.22563 0.06502 0.00684 0.09600
N 	N 	0.19470 0.06192 0.00610 -0.11400
C 	C 	0.18262 0.03405 0.98679 0.05000
C 	C 	0.20241 0.00828 0.96782 0.00300
N 	N 	0.23342 0.01137 0.96886 -0.10400
N 	N 	0.27634 0.04222 0.98933 -0.08900
N 	N 	0.23759 0.09288 0.02584 -0.11100
H 	H 	0.19316 0.98589 0.95279 0.04100
C 	C 	0.28846 0.07010 0.00851 -0.03200
C 	C 	0.26858 0.09600 0.02698 0.04600
H 	H 	0.27772 0.11832 0.04262 0.04800
C 	C 	0.41405 0.01658 0.74865 0.11800
N 	N 	0.39762 0.04516 0.75192 -0.07900
N 	N 	0.39220 0.05921 0.80576 -0.05400
C 	C 	0.40326 0.04516 0.85770 0.03400
N 	N 	0.41978 0.01671 0.85431 -0.06400
N 	N 	0.42503 0.00259 0.80063 -0.08600
C 	C 	0.40209 0.10021 0.18242 0.03000
N 	N 	0.42568 0.12025 0.18825 -0.05700
N 	N 	0.44211 0.12042 0.23946 -0.08200
C 	C 	0.43524 0.10079 0.28651 0.11600
N 	N 	0.41045 0.08225 0.28204 -0.08300
N 	N 	0.39417 0.08188 0.23065 -0.06200
C 	C 	0.44039 0.23845 0.95041 0.09100
C 	C 	0.41723 0.26319 0.95023 0.09700
N 	N 	0.42496 0.29436 0.95491 -0.11300
C 	C 	0.45499 0.30191 0.95924 0.04900
C 	C 	0.47819 0.27723 0.95805 0.00300
N 	N 	0.47042 0.24595 0.95387 -0.10200
N 	N 	0.43254 0.20718 0.94976 -0.08900
N 	N 	0.38721 0.25573 0.94761 -0.10900
H 	H 	0.50218 0.28288 0.96157 0.04300
C 	C 	0.40238 0.19961 0.94892 -0.01300
C 	C 	0.37931 0.22447 0.94665 0.04100
H 	H 	0.35524 0.21893 0.94518 0.05000
C 	C 	0.24779 0.54471 0.94623 0.09200
C 	C 	0.26804 0.56781 0.96640 0.09700
N 	N 	0.29888 0.56106 0.96500 -0.11300
C 	C 	0.31039 0.53220 0.94364 0.04900
C 	C 	0.29013 0.50943 0.92206 0.00400
N 	N 	0.25922 0.51612 0.92394 -0.10100
N 	N 	0.21692 0.55058 0.95153 -0.08800
N 	N 	0.25662 0.59621 0.98951 -0.11000
H 	H 	0.29892 0.48623 0.90555 0.04400
C 	C 	0.20538 0.57876 0.97595 -0.01400
C 	C 	0.22571 0.60224 0.99441 0.04300
H 	H 	0.21699 0.62489 0.01348 0.04900
C 	C 	0.74115 0.43906 0.06354 0.09700
C 	C 	0.75877 0.46276 0.09026 0.08800
N 	N 	0.78993 0.46060 0.08540 -0.09200
C 	C 	0.80430 0.43565 0.05482 -0.03100
C 	C 	0.78665 0.41129 0.03017 0.04700
N 	N 	0.75544 0.41360 0.03480 -0.11100
N 	N 	0.70997 0.44276 0.06345 -0.11400
N 	N 	0.74447 0.48868 0.11754 -0.10600
H 	H 	0.79764 0.39099 0.00652 0.04800
C 	C 	0.69557 0.46916 0.08936 0.04800
C 	C 	0.71323 0.49233 0.11778 0.00200
H 	H 	0.70218 0.51366 0.13792 0.04000
C 	C 	0.57973 0.75608 0.02941 0.09100
C 	C 	0.54977 0.74987 0.04875 0.09600
N 	N 	0.54027 0.71917 0.04853 -0.11300
C 	C 	0.55950 0.69442 0.02919 0.04900
C 	C 	0.58956 0.70068 0.01052 0.00100
N 	N 	0.59905 0.73139 0.01095 -0.10300
N 	N 	0.58886 0.78685 0.02753 -0.08900
N 	N 	0.53028 0.77469 0.06610 -0.11000
H 	H 	0.60527 0.68119 0.99595 0.04300
C 	C 	0.56919 0.81187 0.04364 -0.01400
C 	C 	0.53937 0.80557 0.06397 0.04000
H 	H 	0.52349 0.82513 0.07746 0.04700
