data_crystal

_cell_length_a 15.17949
_cell_length_b 18.32562
_cell_length_c 43.77860
_cell_angle_alpha 90.34968
_cell_angle_beta  90.35805
_cell_angle_gamma 119.38018

_symmetry_space_group_name_	'P 1'
_symmetry_space_group_name_H-M	'P 1'

loop_
_symmetry_equiv_pos_as_xyz
  x,y,z

loop_
_atom_site_label
_atom_site_type_symbol
_atom_site_fract_x
_atom_site_fract_y
_atom_site_fract_z
_atom_site_charge
C 	C 	0.45132 0.25166 0.94071 0.32600
C 	C 	0.47019 0.06769 0.92286 0.30700
Ni	Ni	0.55483 0.18438 0.97495 1.12000
O 	O 	0.48213 0.25165 0.91273 -0.37800
O 	O 	0.49959 0.07485 0.95186 -0.37600
O 	O 	0.53256 0.11686 0.90157 -0.38500
O 	O 	0.43670 0.19105 0.95870 -0.40200
C 	C 	0.41813 0.13017 0.63897 0.33000
C 	C 	0.56726 0.25923 0.71715 0.29100
Ni	Ni	0.54594 0.31239 0.65495 1.11200
O 	O 	0.41462 0.19579 0.64944 -0.38300
O 	O 	0.48871 0.11615 0.64904 -0.39300
O 	O 	0.54562 0.31072 0.70226 -0.37000
O 	O 	0.66018 0.26981 0.71712 -0.36500
C 	C 	0.19406 0.99277 0.76043 0.27700
C 	C 	0.16397 0.92768 0.84138 0.28500
Ni	Ni	0.06171 0.00547 0.80415 1.09700
Ni	Ni	0.04553 0.83052 0.78810 1.08900
O 	O 	0.12428 0.01413 0.76350 -0.39600
O 	O 	0.11469 0.85198 0.82866 -0.41100
O 	O 	0.17333 0.99598 0.82737 -0.39800
O 	O 	0.17927 0.92093 0.77136 -0.38900
C 	C 	0.29848 0.57331 0.47151 0.30400
C 	C 	0.50406 0.76700 0.36382 0.29700
C 	C 	0.40818 0.81310 0.45200 0.32400
C 	C 	0.38483 0.53050 0.38522 0.28800
C 	C 	0.21975 0.75347 0.37832 0.30900
C 	C 	0.09754 0.51487 0.39844 0.28300
Ni	Ni	0.44826 0.68226 0.42497 1.11300
Ni	Ni	0.28745 0.62967 0.36730 1.11800
Ni	Ni	0.22293 0.66499 0.43361 1.12000
O 	O 	0.38854 0.63988 0.46825 -0.36600
O 	O 	0.21545 0.57515 0.46272 -0.37900
O 	O 	0.20104 0.68451 0.36332 -0.38800
O 	O 	0.52551 0.72526 0.38414 -0.36300
O 	O 	0.40902 0.74263 0.35592 -0.37500
O 	O 	0.10342 0.58474 0.40812 -0.39400
O 	O 	0.47492 0.80239 0.43646 -0.37200
O 	O 	0.32737 0.74862 0.46238 -0.38900
O 	O 	0.16149 0.51778 0.37712 -0.38100
O 	O 	0.42847 0.56507 0.41178 -0.36400
O 	O 	0.37659 0.57612 0.36333 -0.37700
O 	O 	0.23702 0.76046 0.40806 -0.38900
O 	O 	0.31667 0.64766 0.40987 -0.70100
H 	H 	0.28837 0.58825 0.41461 0.13800
C 	C 	0.38745 0.84105 0.21394 0.27400
C 	C 	0.20419 0.69670 0.09883 0.31300
C 	C 	0.29181 0.60876 0.19189 0.30400
C 	C 	0.34357 0.91388 0.12816 0.31100
C 	C 	0.48584 0.68076 0.11387 0.32500
C 	C 	0.62737 0.90842 0.14111 0.30000
Ni	Ni	0.25818 0.74407 0.16156 1.11000
Ni	Ni	0.42611 0.80647 0.10765 1.12300
Ni	Ni	0.47844 0.75952 0.17313 1.11900
O 	O 	0.29785 0.81221 0.20116 -0.37800
O 	O 	0.43602 0.79625 0.21309 -0.36900
O 	O 	0.41516 0.69482 0.10344 -0.39300
O 	O 	0.21032 0.66509 0.12451 -0.39200
O 	O 	0.28650 0.75778 0.08733 -0.37300
O 	O 	0.59227 0.87551 0.16809 -0.39600
O 	O 	0.23365 0.64366 0.19031 -0.37200
O 	O 	0.37399 0.63768 0.17588 -0.38600
O 	O 	0.57976 0.86999 0.11520 -0.38100
O 	O 	0.25952 0.84528 0.13733 -0.37300
O 	O 	0.41270 0.90926 0.11115 -0.38700
O 	O 	0.53707 0.71880 0.13914 -0.37700
O 	O 	0.39434 0.78911 0.15034 -0.71100
H 	H 	0.42353 0.84720 0.15772 0.15100
C 	C 	0.24708 0.03676 0.24553 0.30500
C 	C 	0.13520 0.22743 0.32648 0.31600
C 	C 	0.14227 0.98783 0.31371 0.27600
C 	C 	0.19077 0.29526 0.24927 0.28700
Ni	Ni	0.22064 0.15696 0.28424 1.11100
O 	O 	0.27582 0.11764 0.24834 -0.37800
O 	O 	0.14913 0.97859 0.24417 -0.40400
O 	O 	0.15635 0.16781 0.32379 -0.38900
O 	O 	0.07932 0.23587 0.30523 -0.39300
O 	O 	0.22347 0.05781 0.30641 -0.35700
O 	O 	0.05302 0.97262 0.30424 -0.40900
O 	O 	0.25103 0.27606 0.26633 -0.36300
O 	O 	0.09599 0.23959 0.24242 -0.40300
O 	O 	0.09492 0.10376 0.26419 -0.71800
H 	H 	0.11745 0.12044 0.24301 0.15600
C 	C 	0.25427 0.52590 0.20650 -0.07900
C 	C 	0.25335 0.52107 0.23846 -0.02600
C 	C 	0.24178 0.44861 0.25303 0.03000
C 	C 	0.23213 0.37975 0.23551 -0.07000
C 	C 	0.23419 0.38531 0.20351 -0.02700
C 	C 	0.24225 0.45646 0.18900 0.03600
S 	S 	0.23302 0.45642 0.14887 -0.02900
H 	H 	0.13388 0.42568 0.14043 0.02700
H 	H 	0.26432 0.57454 0.25210 0.03800
H 	H 	0.22361 0.33207 0.18980 0.04000
H 	H 	0.71165 0.07747 0.15211 0.03700
C 	C 	0.41758 0.91143 0.23558 -0.05900
C 	C 	0.45651 0.99170 0.22274 -0.07700
C 	C 	0.40932 0.04031 0.22875 0.06500
C 	C 	0.32397 0.00803 0.24780 -0.06000
C 	C 	0.30368 0.93858 0.26602 -0.03700
C 	C 	0.35767 0.89531 0.26170 0.03700
S 	S 	0.46339 0.14314 0.21509 -0.03800
S 	S 	0.33263 0.80972 0.28504 -0.03600
H 	H 	0.25116 0.73895 0.27350 0.03700
H 	H 	0.39942 0.14848 0.19418 0.04500
H 	H 	0.51389 0.01137 0.20530 0.06600
H 	H 	0.24211 0.91490 0.28192 0.04700
C 	C 	0.58826 0.83394 0.34630 -0.07300
C 	C 	0.58578 0.83069 0.31423 -0.01900
C 	C 	0.67688 0.89480 0.36145 0.03900
S 	S 	0.67813 0.91171 0.40109 -0.02800
H 	H 	0.64396 0.96714 0.40675 0.04400
H 	H 	0.51754 0.78562 0.30234 0.04800
C 	C 	0.20327 0.29960 0.34572 -0.09800
C 	C 	0.30782 0.33856 0.34051 -0.00700
C 	C 	0.37458 0.40855 0.35782 0.03300
C 	C 	0.33691 0.43983 0.38058 -0.07200
C 	C 	0.23637 0.39050 0.38987 -0.03400
C 	C 	0.16803 0.32247 0.37173 0.06000
S 	S 	0.50431 0.46031 0.34938 -0.02600
S 	S 	0.03962 0.26711 0.38173 -0.10400
H 	H 	0.52376 0.52011 0.32782 0.04700
H 	H 	0.33677 0.31599 0.32235 0.02400
H 	H 	0.20947 0.40963 0.40953 0.04900
C 	C 	0.15253 0.92691 0.33317 -0.05600
C 	C 	0.23552 0.95629 0.35338 -0.06100
C 	C 	0.26085 0.90055 0.36722 0.05300
C 	C 	0.19705 0.81369 0.36329 -0.09400
C 	C 	0.11089 0.78388 0.34457 -0.00100
C 	C 	0.09012 0.83942 0.32860 -0.02700
S 	S 	0.37733 0.94046 0.38687 -0.04100
H 	H 	0.44927 0.94351 0.36734 0.04300
H 	H 	0.28382 0.02306 0.35698 0.07300
H 	H 	0.06153 0.71700 0.34162 0.03200
C 	C 	0.43366 0.01490 0.49551 0.01400
C 	C 	0.34050 0.01221 0.50040 -0.01500
C 	C 	0.31826 0.03218 0.52928 -0.03600
C 	C 	0.38920 0.05452 0.55303 -0.00900
C 	C 	0.48549 0.06546 0.54699 -0.02000
C 	C 	0.50937 0.05095 0.51782 -0.03700
C 	C 	0.43601 0.95380 0.47562 0.02800
C 	C 	0.43065 0.89379 0.46277 -0.10100
C 	C 	0.36939 0.07370 0.58319 0.05700
C 	C 	0.37782 0.09724 0.60929 -0.13600
H 	H 	0.54075 0.08223 0.56523 0.04000
H 	H 	0.58279 0.05639 0.51387 0.05400
C 	C 	0.01502 0.35493 0.52401 -0.07600
C 	C 	0.03092 0.35378 0.49248 -0.12200
C 	C 	0.01612 0.40510 0.44192 -0.05700
C 	C 	0.05294 0.44638 0.41937 -0.07900
H 	H 	0.05985 0.34127 0.53992 0.03800
H 	H 	0.08917 0.34104 0.48436 0.06100
C 	C 	0.32107 0.36402 0.48540 -0.00500
C 	C 	0.26249 0.30114 0.50616 -0.03400
C 	C 	0.30139 0.25364 0.51958 -0.03400
C 	C 	0.40058 0.27167 0.51331 -0.00300
C 	C 	0.45188 0.32470 0.48901 -0.03100
C 	C 	0.41192 0.37068 0.47497 -0.03100
C 	C 	0.30162 0.43256 0.48056 0.04700
C 	C 	0.29413 0.49443 0.47677 -0.11200
C 	C 	0.45809 0.26052 0.53726 0.04700
H 	H 	0.19083 0.29368 0.51380 0.03400
H 	H 	0.52708 0.33681 0.48312 0.04600
H 	H 	0.45602 0.41698 0.45802 0.05000
C 	C 	0.48647 0.18893 0.73391 -0.07100
C 	C 	0.45232 0.10678 0.72342 -0.03300
C 	C 	0.35733 0.04168 0.73197 0.06000
C 	C 	0.29767 0.05811 0.75251 -0.06600
C 	C 	0.33688 0.13867 0.76542 -0.02000
C 	C 	0.43078 0.20388 0.75627 0.03600
S 	S 	0.31217 0.94158 0.71547 -0.06800
S 	S 	0.47897 0.30345 0.77351 -0.03600
H 	H 	0.44870 0.35058 0.75692 0.04100
H 	H 	0.33970 0.89533 0.73365 0.03600
H 	H 	0.49772 0.09412 0.70758 0.06500
H 	H 	0.29374 0.15081 0.78236 0.03300
C 	C 	0.02769 0.68477 0.08753 -0.05200
C 	C 	0.10977 0.69160 0.09140 -0.09000
H 	H 	0.95371 0.74315 0.04314 0.06900
C 	C 	0.47174 0.15938 0.13315 -0.02300
C 	C 	0.57256 0.18634 0.14178 -0.02200
C 	C 	0.65033 0.23327 0.12136 -0.03500
C 	C 	0.62694 0.25665 0.09339 -0.00000
C 	C 	0.53238 0.25223 0.08989 -0.03800
C 	C 	0.45416 0.20326 0.10997 -0.02400
C 	C 	0.40125 0.07143 0.13608 0.08400
C 	C 	0.36038 0.99619 0.13474 -0.14700
H 	H 	0.58855 0.15793 0.16112 0.04100
H 	H 	0.72510 0.24134 0.12544 0.04900
H 	H 	0.51550 0.27632 0.06944 0.04700
H 	H 	0.37761 0.18914 0.10457 0.03600
C 	C 	0.51872 0.53778 0.04949 -0.00300
C 	C 	0.46167 0.45056 0.05178 -0.03500
C 	C 	0.44064 0.39989 0.02576 -0.03000
C 	C 	0.47807 0.43573 0.99719 -0.00700
C 	C 	0.53589 0.52303 0.99480 -0.03200
C 	C 	0.55475 0.57403 0.02081 -0.03500
C 	C 	0.52276 0.58963 0.07504 0.04900
C 	C 	0.51455 0.63201 0.09484 -0.10500
C 	C 	0.47053 0.38158 0.97198 0.05900
C 	C 	0.46258 0.32702 0.95467 -0.11600
H 	H 	0.43198 0.42195 0.07365 0.04100
H 	H 	0.39771 0.33240 0.02796 0.04100
H 	H 	0.56722 0.55135 0.97303 0.04200
H 	H 	0.59728 0.64152 0.01866 0.04200
C 	C 	0.23139 0.93906 0.86705 -0.08200
C 	C 	0.21205 0.96165 0.89581 -0.02300
C 	C 	0.28444 0.98506 0.91915 0.01800
C 	C 	0.37893 0.99224 0.91269 -0.09000
C 	C 	0.38679 0.95013 0.88692 -0.02100
C 	C 	0.31622 0.92785 0.86318 0.03900
S 	S 	0.25679 0.00567 0.95606 -0.01000
S 	S 	0.34022 0.89454 0.82788 -0.04500
H 	H 	0.29528 0.80892 0.82734 0.02900
H 	H 	0.21561 0.93338 0.97264 0.01500
H 	H 	0.14224 0.96270 0.89978 0.02400
H 	H 	0.45565 0.94739 0.88324 0.04000
C 	C 	0.54728 0.26183 0.58905 0.30500
S 	S 	0.23880 0.44523 0.29309 -0.04000
H 	H 	0.24528 0.02738 0.53334 0.03900
C 	C 	0.50245 0.25766 0.55972 -0.09800
H 	H 	0.59671 0.08278 0.76326 0.04300
H 	H 	0.59869 0.99141 0.91882 0.02700
H 	H 	0.11462 0.20354 0.84390 0.03900
H 	H 	0.14137 0.41442 0.30277 0.03700
C 	C 	0.67813 0.25276 0.06636 0.06000
O 	O 	0.55471 0.32100 0.60792 -0.37500
O 	O 	0.65464 0.16182 0.99724 -0.38800
Ni	Ni	0.60784 0.24285 0.90416 1.11900
O 	O 	0.59141 0.28699 0.00223 -0.38000
Ni	Ni	0.63285 0.18417 0.63485 1.11800
O 	O 	0.65595 0.12516 0.67033 -0.37800
O 	O 	0.59620 0.21859 0.59378 -0.38100
O 	O 	0.65050 0.28379 0.65406 -0.70400
C 	C 	0.73400 0.97330 0.14018 -0.10400
C 	C 	0.76077 0.05037 0.15439 0.01700
H 	H 	0.74428 0.79154 0.12858 0.05000
H 	H 	0.28223 0.98726 0.48282 0.02200
H 	H 	0.25922 0.20999 0.53748 0.03800
S 	S 	0.69084 0.14857 0.75749 -0.02200
S 	S 	0.69638 0.04253 0.92821 0.00200
H 	H 	0.63758 0.94617 0.24938 0.04300
O 	O 	0.64863 0.44006 0.65548 -0.37200
H 	H 	0.63723 0.56926 0.67821 0.04700
O 	O 	0.65560 0.24228 0.94456 -0.70000
H 	H 	0.66818 0.19486 0.94222 0.14600
C 	C 	0.80724 0.94741 0.13923 0.05800
S 	S 	0.79296 0.86703 0.11408 -0.02500
C 	C 	0.67208 0.88384 0.29738 0.03300
C 	C 	0.70896 0.24199 0.04237 -0.11200
S 	S 	0.66184 0.88593 0.25731 -0.02500
C 	C 	0.72900 0.22325 0.01213 0.32700
C 	C 	0.66795 0.36427 0.99885 0.31700
C 	C 	0.73137 0.47646 0.67237 0.30400
C 	C 	0.73643 0.16093 0.68804 0.31300
O 	O 	0.75159 0.43306 0.69217 -0.38500
H 	H 	0.68485 0.32267 0.63735 0.14500
C 	C 	0.84205 0.08532 0.17525 0.02100
S 	S 	0.88136 0.18546 0.19089 -0.01100
C 	C 	0.76438 0.94493 0.34473 -0.02500
O 	O 	0.66649 0.36818 0.90169 -0.38100
Ni	Ni	0.76121 0.32882 0.68294 1.12000
C 	C 	0.76391 0.93804 0.31281 -0.06300
C 	C 	0.76292 0.11131 0.73858 0.04000
C 	C 	0.76558 0.10898 0.70638 -0.07500
C 	C 	0.71642 0.60193 0.68484 -0.01900
S 	S 	0.67745 0.72005 0.70994 -0.04600
H 	H 	0.69021 0.77525 0.68717 0.03700
C 	C 	0.68235 0.42688 0.02078 -0.11000
O 	O 	0.72084 0.38879 0.97360 -0.37800
O 	O 	0.73655 0.24725 0.88691 -0.36300
C 	C 	0.89554 0.04203 0.18161 -0.02300
C 	C 	0.88662 0.98014 0.16068 -0.05900
H 	H 	0.83318 0.98898 0.35666 0.06300
C 	C 	0.70402 0.48469 0.03788 0.06200
C 	C 	0.77528 0.07796 0.89616 0.01700
H 	H 	0.76191 0.95694 0.88719 0.02900
O 	O 	0.80172 0.24007 0.68488 -0.38300
C 	C 	0.79318 0.22157 0.90199 0.27000
Ni	Ni	0.79059 0.32769 0.95410 1.11300
O 	O 	0.80495 0.28196 0.99687 -0.36500
O 	O 	0.78157 0.23831 0.62421 -0.37100
C 	C 	0.81443 0.08015 0.75594 -0.02500
H 	H 	0.81182 0.08190 0.78069 0.05900
C 	C 	0.77840 0.56724 0.67775 -0.07200
C 	C 	0.75419 0.67457 0.70289 0.04100
H 	H 	0.70607 0.49427 0.09986 0.03900
C 	C 	0.76300 0.42065 0.90134 0.31200
C 	C 	0.81487 0.07046 0.69208 -0.01400
H 	H 	0.81794 0.06910 0.66736 0.05500
C 	C 	0.74364 0.55818 0.05671 -0.02100
C 	C 	0.81940 0.16235 0.88691 -0.04400
C 	C 	0.79864 0.02226 0.88071 0.01400
H 	H 	0.93615 0.95337 0.16250 0.06800
O 	O 	0.83822 0.25734 0.92841 -0.34500
C 	C 	0.84174 0.32047 0.62220 0.29600
O 	O 	0.85326 0.37217 0.64568 -0.36500
C 	C 	0.85987 0.98726 0.29596 0.28100
C 	C 	0.75828 0.55038 0.08783 -0.00900
S 	S 	0.75138 0.53598 0.79434 -0.01900
H 	H 	0.74037 0.42275 0.84065 0.04400
O 	O 	0.82642 0.40230 0.91506 -0.36400
O 	O 	0.82310 0.92405 0.82761 -0.36400
O 	O 	0.88182 0.95247 0.27296 -0.36100
H 	H 	0.82013 0.39725 0.52191 0.04800
H 	H 	0.78921 0.64565 0.01950 0.03800
C 	C 	0.77646 0.48509 0.85072 -0.01500
C 	C 	0.79387 0.55362 0.83266 0.03600
H 	H 	0.78735 0.58111 0.94989 0.04200
C 	C 	0.80056 0.49571 0.88202 -0.07400
O 	O 	0.91324 0.07907 0.23561 -0.34400
O 	O 	0.81993 0.75118 0.82839 -0.36400
O 	O 	0.82008 0.75144 0.76371 -0.36200
C 	C 	0.94054 0.04704 0.21241 0.27800
C 	C 	0.86487 0.04281 0.74169 -0.04500
C 	C 	0.86452 0.03743 0.70954 0.04700
C 	C 	0.80510 0.63532 0.04276 -0.00800
Ni	Ni	0.83893 0.84165 0.79639 1.11100
C 	C 	0.85409 0.71163 0.71436 -0.07200
C 	C 	0.88289 0.61439 0.68382 0.03600
H 	H 	0.82744 0.54326 0.77571 0.05000
O 	O 	0.85531 0.91675 0.75941 -0.37200
O 	O 	0.91837 0.06691 0.30264 -0.33000
C 	C 	0.88903 0.35252 0.59323 -0.07700
H 	H 	0.85151 0.39924 0.46661 0.06700
C 	C 	0.89269 0.19136 0.86411 -0.04300
C 	C 	0.87220 0.05124 0.85787 -0.06900
C 	C 	0.84019 0.63493 0.84562 -0.06200
C 	C 	0.84477 0.57671 0.89519 0.04200
H 	H 	0.95418 0.24489 0.17276 0.05500
H 	H 	0.90413 0.78659 0.31418 0.04600
C 	C 	0.88009 0.38627 0.51389 -0.02100
C 	C 	0.86520 0.64590 0.87688 -0.02200
H 	H 	0.86869 0.59368 0.12415 0.06400
C 	C 	0.85061 0.60652 0.10153 -0.06600
C 	C 	0.87031 0.70900 0.82619 0.28700
C 	C 	0.90357 0.99857 0.76055 0.27200
C 	C 	0.88523 0.76683 0.74160 0.29900
C 	C 	0.89673 0.99137 0.84207 0.26100
O 	O 	0.98418 0.00045 0.21765 -0.33100
C 	C 	0.89612 0.38515 0.48246 -0.06900
C 	C 	0.91744 0.36641 0.56706 0.04400
H 	H 	0.86785 0.90829 0.68781 0.04400
C 	C 	0.92026 0.68581 0.70246 -0.01800
C 	C 	0.92303 0.13773 0.85065 0.10400
H 	H 	0.92933 0.25674 0.85769 0.07200
S 	S 	0.87153 0.59203 0.93465 -0.02100
C 	C 	0.94137 0.37363 0.53484 0.05700
S 	S 	0.92979 0.99301 0.69091 -0.01900
H 	H 	0.90089 0.70822 0.88694 0.05400
S 	S 	0.96680 0.58310 0.66895 -0.01300
H 	H 	0.97685 0.53077 0.68915 0.03900
H 	H 	0.98916 0.30268 0.36770 0.10200
C 	C 	0.89839 0.69061 0.05612 -0.06500
O 	O 	0.92835 0.71876 0.80220 -0.35500
O 	O 	0.96676 0.03937 0.78313 -0.33000
H 	H 	0.97656 0.87731 0.82547 0.16800
O 	O 	0.97854 0.88829 0.80341 -0.69200
O 	O 	0.98170 0.81856 0.74641 -0.35500
S 	S 	0.02915 0.18133 0.82677 -0.15200
O 	O 	0.99095 0.00572 0.84286 -0.32800
H 	H 	0.99938 0.71811 0.70917 0.05600
C 	C 	0.97473 0.37277 0.47162 0.15300
C 	C 	0.92613 0.66900 0.08373 0.09000
S 	S 	0.99179 0.79822 0.30107 0.03100
Ni	Ni	0.00581 0.14857 0.27091 1.09700
Ni	Ni	0.02437 0.98466 0.25995 1.08900
