data_crystal

_cell_length_a 20.12479
_cell_length_b 20.77826
_cell_length_c 58.69669
_cell_angle_alpha 89.71463
_cell_angle_beta  89.71585
_cell_angle_gamma 119.85802

_symmetry_space_group_name_	'P 1'
_symmetry_space_group_name_H-M	'P 1'

loop_
_symmetry_equiv_pos_as_xyz
  x,y,z

loop_
_atom_site_label
_atom_site_type_symbol
_atom_site_fract_x
_atom_site_fract_y
_atom_site_fract_z
_atom_site_charge
Ni	Ni	0.06461 0.11000 0.74224 1.11900
O 	O 	0.05810 0.95828 0.77072 -0.36500
O 	O 	0.13084 0.08403 0.76255 -0.37200
O 	O 	0.11913 0.99469 0.72636 -0.36800
O 	O 	0.11073 0.09412 0.71355 -0.39400
C 	C 	0.06085 0.12477 0.20872 0.30800
C 	C 	0.03205 0.11543 0.26979 0.29100
C 	C 	0.06476 0.92616 0.20464 0.32600
C 	C 	0.02520 0.88646 0.27164 0.28900
Ni	Ni	0.07706 0.02408 0.24217 1.11000
O 	O 	0.10209 0.99443 0.21220 -0.37800
O 	O 	0.09801 0.12025 0.22648 -0.38100
O 	O 	0.08278 0.94213 0.26013 -0.36800
O 	O 	0.06161 0.07070 0.27047 -0.38800
O 	O 	0.01851 0.87124 0.21816 -0.39300
C 	C 	0.11828 0.25407 0.18763 0.04600
C 	C 	0.09192 0.19435 0.19687 -0.10400
H 	H 	0.03937 0.31874 0.17285 0.03900
C 	C 	0.05204 0.82170 0.12797 -0.03300
C 	C 	0.08546 0.90137 0.16178 0.05300
C 	C 	0.07572 0.91165 0.18143 -0.10000
H 	H 	0.04145 0.75042 0.10011 0.04100
H 	H 	0.00133 0.77928 0.13668 0.04100
C 	C 	0.09447 0.32733 0.32085 -0.03600
C 	C 	0.09793 0.23955 0.29344 0.04000
C 	C 	0.06731 0.18180 0.28318 -0.09500
H 	H 	0.03379 0.28985 0.32363 0.03900
H 	H 	0.10004 0.40603 0.34555 0.04000
C 	C 	0.06246 0.78338 0.32526 0.00000
C 	C 	0.05791 0.80177 0.34792 -0.03500
C 	C 	0.07128 0.76459 0.36570 -0.03200
C 	C 	0.05146 0.82321 0.30686 0.04100
C 	C 	0.04249 0.85515 0.29100 -0.08900
H 	H 	0.07174 0.78184 0.38312 0.04300
C 	C 	0.12333 0.57834 0.52458 0.02700
C 	C 	0.15802 0.53422 0.52529 -0.06100
C 	C 	0.22464 0.66507 0.49939 0.01400
C 	C 	0.15985 0.64636 0.51286 -0.05900
H 	H 	0.13144 0.48251 0.53485 0.04900
H 	H 	0.13474 0.68196 0.51273 0.05000
C 	C 	0.05303 0.50695 0.02625 -0.12400
C 	C 	0.10236 0.02783 0.77744 0.29200
C 	C 	0.14339 0.05318 0.71308 0.32100
O 	O 	0.02124 0.13473 0.76948 -0.40400
C 	C 	0.13441 0.55469 0.02793 0.31400
C 	C 	0.14932 0.32532 0.17659 -0.00400
C 	C 	0.12908 0.41520 0.15590 -0.03400
C 	C 	0.10024 0.35060 0.16915 -0.03300
H 	H 	0.09005 0.43202 0.14907 0.04100
C 	C 	0.14378 0.85771 0.09678 -0.00200
C 	C 	0.07434 0.80565 0.10710 -0.03400
C 	C 	0.09829 0.89043 0.13828 -0.00300
C 	C 	0.13580 0.30893 0.30550 -0.00100
C 	C 	0.13185 0.39354 0.33309 -0.03300
C 	C 	0.09010 0.70945 0.36086 -0.00500
C 	C 	0.08860 0.68727 0.33826 -0.03200
C 	C 	0.07518 0.72435 0.32050 -0.03400
C 	C 	0.13024 0.69125 0.37761 0.04800
C 	C 	0.16386 0.67592 0.39160 -0.10000
C 	C 	0.04422 0.54687 0.53145 0.00800
H 	H 	0.04803 0.31700 0.64846 0.05500
C 	C 	0.14815 0.05334 0.82024 0.04000
C 	C 	0.12732 0.04159 0.80070 -0.09600
O 	O 	0.16150 0.62625 0.02383 -0.37700
H 	H 	0.07662 0.70841 0.30303 0.04400
H 	H 	0.15766 0.16224 0.84721 0.04200
C 	C 	0.18412 0.83156 0.08272 0.04700
C 	C 	0.22263 0.55282 0.51174 0.01700
C 	C 	0.16197 0.94583 0.12645 -0.03100
C 	C 	0.20696 0.45432 0.14987 -0.00300
O 	O 	0.17980 0.52490 0.02700 -0.37500
H 	H 	0.24844 0.71456 0.48879 0.03300
C 	C 	0.17311 0.06704 0.84360 0.00200
H 	H 	0.10270 0.64452 0.33433 0.04300
O 	O 	0.20940 0.60320 0.41055 -0.37300
C 	C 	0.20879 0.07484 0.69856 -0.10700
C 	C 	0.18024 0.12955 0.85483 -0.03700
C 	C 	0.21607 0.66999 0.40680 0.31100
C 	C 	0.18427 0.92966 0.10562 -0.03200
H 	H 	0.19244 0.97387 0.84588 0.05200
C 	C 	0.22822 0.36800 0.17232 -0.03300
C 	C 	0.21808 0.80987 0.07096 -0.09700
C 	C 	0.25206 0.61508 0.49726 -0.07800
O 	O 	0.24360 0.58173 0.45803 -0.38000
H 	H 	0.24470 0.51481 0.51073 0.03500
C 	C 	0.19981 0.02361 0.85408 -0.04500
C 	C 	0.23098 0.50318 0.13041 0.04700
C 	C 	0.21081 0.44160 0.33008 -0.00600
H 	H 	0.19673 0.99996 0.13398 0.04800
C 	C 	0.21397 0.35853 0.30170 -0.03400
O 	O 	0.23209 0.54654 0.07468 -0.39100
C 	C 	0.25706 0.43263 0.15906 -0.03300
C 	C 	0.25037 0.54399 0.11409 -0.09800
C 	C 	0.22211 0.15343 0.87503 -0.03200
H 	H 	0.24883 0.65006 0.05423 0.15900
C 	C 	0.26380 0.09539 0.68620 0.05000
C 	C 	0.26297 0.78091 0.06107 0.30300
C 	C 	0.24164 0.04755 0.87426 -0.02800
H 	H 	0.26679 0.34966 0.17850 0.04300
H 	H 	0.23699 0.97097 0.09749 0.04600
H 	H 	0.23274 0.20516 0.88258 0.04000
C 	C 	0.28865 0.61384 0.47576 0.28500
C 	C 	0.25194 0.49991 0.34628 0.05100
H 	H 	0.24607 0.34522 0.28959 0.04400
C 	C 	0.25137 0.42473 0.31395 -0.03200
C 	C 	0.26991 0.58394 0.09293 0.31000
O 	O 	0.27468 0.78479 0.03855 -0.36700
O 	O 	0.27963 0.73208 0.41128 -0.38300
Ni	Ni	0.28485 0.57826 0.42723 1.12000
C 	C 	0.25828 0.11579 0.88374 -0.00600
H 	H 	0.26736 0.01676 0.88124 0.04000
Ni	Ni	0.27680 0.70064 0.01894 1.11300
O 	O 	0.30195 0.76258 0.07529 -0.37800
Ni	Ni	0.28177 0.56281 0.04404 1.12200
C 	C 	0.28430 0.54804 0.36019 -0.10900
O 	O 	0.27579 0.62594 0.99518 -0.37000
O 	O 	0.29451 0.66027 0.04522 -0.71500
H 	H 	0.31751 0.46300 0.15470 0.04300
H 	H 	0.28393 0.52118 0.95732 0.03400
H 	H 	0.04585 0.84591 0.35177 0.04300
H 	H 	0.27322 0.03303 0.64717 0.04000
H 	H 	0.33211 0.69698 0.43940 0.15900
C 	C 	0.33015 0.12087 0.67165 -0.00500
C 	C 	0.32063 0.59781 0.37879 0.32800
H 	H 	0.31240 0.46138 0.31154 0.04300
O 	O 	0.33672 0.52671 0.44220 -0.38300
O 	O 	0.33131 0.57079 0.39760 -0.39200
O 	O 	0.32904 0.66481 0.37845 -0.37100
O 	O 	0.33563 0.64889 0.09146 -0.37800
C 	C 	0.32474 0.08457 0.65110 -0.03200
C 	C 	0.32826 0.15696 0.89627 0.04700
O 	O 	0.36242 0.63217 0.47550 -0.37500
C 	C 	0.32714 0.60446 0.99572 0.30700
H 	H 	0.36162 0.43183 0.46907 0.03800
H 	H 	0.40227 0.21511 0.69263 0.04300
O 	O 	0.36093 0.67978 0.43009 -0.71600
O 	O 	0.34161 0.58043 0.01471 -0.37700
C 	C 	0.34523 0.55711 0.95901 0.01400
C 	C 	0.39737 0.18705 0.67669 -0.03200
Ni	Ni	0.37236 0.72538 0.06526 1.12200
Ni	Ni	0.38486 0.74219 0.40450 1.11400
C 	C 	0.38424 0.11687 0.63502 -0.03400
H 	H 	0.37211 0.49298 0.93595 0.04900
O 	O 	0.37624 0.57288 0.06011 -0.37700
C 	C 	0.37409 0.61277 0.97555 -0.08300
H 	H 	0.37823 0.09012 0.61876 0.04200
C 	C 	0.38747 0.18917 0.90661 -0.09800
O 	O 	0.39162 0.76516 0.01093 -0.38600
C 	C 	0.41269 0.44397 0.45945 0.01300
C 	C 	0.39531 0.54096 0.94695 -0.05500
C 	C 	0.41031 0.54913 0.43979 0.31000
O 	O 	0.42499 0.81954 0.04562 -0.37800
O 	O 	0.43423 0.78796 0.46154 -0.37900
C 	C 	0.43645 0.83913 0.44743 0.30600
H 	H 	0.44184 0.37981 0.48190 0.04500
Ni	Ni	0.43987 0.69830 0.45110 1.12200
C 	C 	0.45682 0.21936 0.66061 -0.03400
C 	C 	0.44928 0.18562 0.63944 -0.00200
C 	C 	0.43881 0.82006 0.02367 0.31300
C 	C 	0.43766 0.49541 0.44138 -0.08400
C 	C 	0.44767 0.90703 0.45722 -0.09500
O 	O 	0.44637 0.83657 0.42504 -0.36500
H 	H 	0.46862 0.97605 0.51236 0.05900
C 	C 	0.45892 0.96264 0.46690 0.05400
C 	C 	0.44164 0.63594 0.06119 0.33000
O 	O 	0.44527 0.69578 0.05297 -0.39900
C 	C 	0.45844 0.41472 0.46679 -0.05500
C 	C 	0.46483 0.23019 0.91450 0.30700
O 	O 	0.46134 0.61994 0.43966 -0.38900
C 	C 	0.45361 0.66067 0.97679 0.01600
C 	C 	0.47525 0.02777 0.47976 0.00500
C 	C 	0.48354 0.02738 0.50346 -0.06300
O 	O 	0.01693 0.15378 0.72177 -0.40500
C 	C 	0.01737 0.27510 0.63572 -0.09900
O 	O 	0.47975 0.22948 0.93665 -0.36900
H 	H 	0.00885 0.35167 0.61281 0.01500
H 	H 	0.49342 0.96227 0.03777 0.04200
C 	C 	0.47419 0.58069 0.95139 0.01700
H 	H 	0.48625 0.09492 0.45022 0.04600
H 	H 	0.47669 0.70449 0.98929 0.04200
O 	O 	0.48169 0.73671 0.39653 -0.37800
C 	C 	0.49336 0.09420 0.46849 -0.05200
C 	C 	0.50234 0.22627 0.62128 0.04600
C 	C 	0.49701 0.88890 0.01239 -0.08900
H 	H 	0.50715 0.27224 0.66422 0.04400
C 	C 	0.49404 0.64567 0.07909 -0.11300
C 	C 	0.51259 0.95804 0.02086 0.02900
C 	C 	0.51632 0.09398 0.51550 0.01300
C 	C 	0.50265 0.50840 0.42865 0.01600
H 	H 	0.49830 0.67102 0.13791 0.04500
H 	H 	0.52719 0.09368 0.53356 0.03200
O 	O 	0.51949 0.25521 0.89871 -0.38300
C 	C 	0.50359 0.64454 0.96475 -0.05400
H 	H 	0.51563 0.83285 0.98417 0.03700
C 	C 	0.52467 0.88525 0.99063 0.01500
C 	C 	0.52537 0.16081 0.48059 0.01100
H 	H 	0.52111 0.54600 0.41415 0.04100
C 	C 	0.51900 0.54479 0.94812 0.04000
C 	C 	0.52928 0.43689 0.45612 0.01200
C 	C 	0.54672 0.02076 0.00671 -0.06800
C 	C 	0.54052 0.16135 0.50395 -0.07600
H 	H 	0.55442 0.07306 0.01293 0.05000
O 	O 	0.53278 0.77072 0.43196 -0.37300
C 	C 	0.54686 0.26044 0.60610 -0.09600
O 	O 	0.53652 0.39037 0.95197 -0.37100
C 	C 	0.53818 0.66336 0.09473 0.05400
H 	H 	0.54340 0.21254 0.47152 0.04000
C 	C 	0.53983 0.75954 0.41024 0.32800
C 	C 	0.54881 0.47989 0.43617 -0.05400
C 	C 	0.56554 0.01475 0.98408 0.00500
C 	C 	0.55783 0.94782 0.97641 -0.04400
C 	C 	0.55187 0.50972 0.94681 -0.09000
O 	O 	0.56649 0.29416 0.56711 -0.38600
C 	C 	0.55925 0.69301 0.13536 -0.03200
H 	H 	0.56467 0.67716 0.96771 0.05200
C 	C 	0.58314 0.07425 0.96828 0.04600
Ni	Ni	0.57439 0.31453 0.95416 1.11300
H 	H 	0.57407 0.94324 0.95913 0.05000
O 	O 	0.57900 0.28462 0.51721 -0.37400
O 	O 	0.59003 0.19418 0.92442 -0.37900
C 	C 	0.58758 0.43042 0.46843 0.04500
C 	C 	0.59577 0.12700 0.95662 -0.10800
C 	C 	0.58315 0.46095 0.94652 0.30000
H 	H 	0.59029 0.36615 0.91912 0.15800
C 	C 	0.58725 0.68452 0.11431 -0.00600
C 	C 	0.59693 0.30240 0.58764 0.30800
H 	H 	0.58810 0.74282 0.16853 0.04600
Ni	Ni	0.00701 0.93434 0.73881 1.10700
C 	C 	0.59670 0.23095 0.51463 0.28700
H 	H 	0.60245 0.49580 0.42745 0.05100
C 	C 	0.60960 0.19435 0.94577 0.33100
H 	H 	0.61272 0.60075 0.84809 0.04500
C 	C 	0.61015 0.73449 0.15261 -0.03200
Ni	Ni	0.62036 0.36657 0.54158 1.12100
C 	C 	0.61306 0.78009 0.40045 -0.10200
Ni	Ni	0.62995 0.28873 0.90503 1.12200
O 	O 	0.62552 0.25074 0.95870 -0.38800
O 	O 	0.62672 0.35452 0.92664 -0.71500
C 	C 	0.63828 0.60213 0.83166 -0.03100
C 	C 	0.63433 0.42737 0.48049 -0.10700
O 	O 	0.63805 0.44936 0.56328 -0.38200
C 	C 	0.65066 0.54387 0.82531 -0.00200
H 	H 	0.64551 0.60476 0.63268 0.04400
C 	C 	0.65231 0.49598 0.84277 0.04900
C 	C 	0.65289 0.46005 0.85884 -0.09500
C 	C 	0.65964 0.42884 0.87988 0.30600
H 	H 	0.66272 0.71321 0.82398 0.04500
O 	O 	0.65592 0.38877 0.97673 -0.36900
O 	O 	0.66543 0.36737 0.87953 -0.37800
C 	C 	0.66688 0.66601 0.81806 -0.03300
O 	O 	0.65906 0.48962 0.94633 -0.36800
O 	O 	0.66501 0.36056 0.59256 -0.38000
C 	C 	0.66619 0.71288 0.11129 -0.03100
O 	O 	0.66855 0.24468 0.51569 -0.36800
C 	C 	0.68124 0.54513 0.80373 -0.03200
C 	C 	0.66767 0.79416 0.38858 0.05500
O 	O 	0.67975 0.47264 0.89792 -0.38400
O 	O 	0.67946 0.44506 0.51792 -0.38800
H 	H 	0.00227 0.25057 0.84055 0.02300
H 	H 	0.67978 0.30139 0.55113 0.16300
H 	H 	0.68936 0.49963 0.79840 0.04400
C 	C 	0.68461 0.42502 0.49734 0.32800
H 	H 	0.67100 0.68691 0.36392 0.04500
H 	H 	0.68842 0.70645 0.09513 0.04500
C 	C 	0.68928 0.76720 0.14897 -0.00200
H 	H 	0.69405 0.69549 0.66392 0.04500
C 	C 	0.69567 0.65877 0.62983 -0.03100
C 	C 	0.70666 0.67110 0.79790 -0.00100
C 	C 	0.70640 0.50450 0.56842 0.33100
C 	C 	0.70932 0.60877 0.79003 -0.03200
O 	O 	0.70650 0.35383 0.54626 -0.71500
C 	C 	0.71291 0.56468 0.58189 -0.10500
O 	O 	0.71467 0.38225 0.49415 -0.36500
C 	C 	0.71209 0.74315 0.35870 -0.03000
Ni	Ni	0.71661 0.45057 0.92681 1.12300
C 	C 	0.71713 0.75432 0.12856 -0.03200
C 	C 	0.72342 0.71000 0.64758 -0.03200
C 	C 	0.72365 0.61485 0.59433 0.05400
H 	H 	0.72318 0.71085 0.32474 0.04600
C 	C 	0.72685 0.80280 0.37295 -0.00300
C 	C 	0.72885 0.40959 0.97438 0.30600
O 	O 	0.73561 0.31476 0.91385 -0.39800
C 	C 	0.73642 0.67472 0.60920 -0.00400
H 	H 	0.73816 0.61157 0.77410 0.04600
C 	C 	0.74117 0.75671 0.33642 -0.03100
O 	O 	0.98161 0.10936 0.25400 -0.35400
O 	O 	0.98917 0.07431 0.20527 -0.36800
C 	C 	0.98458 0.47304 0.02358 0.07400
O 	O 	0.98405 0.01045 0.74407 -0.71200
H 	H 	0.97673 0.00597 0.76071 0.15500
O 	O 	0.95615 0.84668 0.26274 -0.36900
C 	C 	0.79293 0.37467 0.90534 0.32900
O 	O 	0.76259 0.42889 0.95435 -0.37500
O 	O 	0.79419 0.43837 0.90750 -0.37300
C 	C 	0.81136 0.29224 0.56322 0.31400
C 	C 	0.89616 0.47859 0.54111 0.31400
Ni	Ni	0.76140 0.34961 0.52080 1.11400
Ni	Ni	0.76201 0.40070 0.57293 1.12200
O 	O 	0.82178 0.31098 0.54107 -0.36400
O 	O 	0.76847 0.30774 0.57675 -0.38500
O 	O 	0.84832 0.45864 0.52411 -0.36900
O 	O 	0.87245 0.44761 0.56129 -0.37400
O 	O 	0.76687 0.49718 0.56613 -0.38900
C 	C 	0.89488 0.89948 0.70117 0.32200
C 	C 	0.85321 0.86297 0.76498 0.30900
C 	C 	0.97365 0.11689 0.70447 0.34400
C 	C 	0.94960 0.12130 0.77120 0.32800
Ni	Ni	0.88534 0.99488 0.73689 1.12600
O 	O 	0.91092 0.05290 0.70768 -0.39100
O 	O 	0.96591 0.91738 0.70567 -0.36500
O 	O 	0.85108 0.90393 0.71704 -0.37400
O 	O 	0.89632 0.08249 0.75564 -0.37800
O 	O 	0.89895 0.85307 0.75078 -0.36300
O 	O 	0.84394 0.92199 0.76347 -0.37300
C 	C 	0.81562 0.88818 0.26146 0.30400
C 	C 	0.84295 0.89750 0.19698 0.32900
Ni	Ni	0.91498 0.01963 0.23223 1.10700
Ni	Ni	0.92617 0.86846 0.23249 1.12500
O 	O 	0.83453 0.95797 0.25728 -0.35800
O 	O 	0.82225 0.84705 0.24532 -0.37400
O 	O 	0.83299 0.94413 0.20963 -0.36100
O 	O 	0.89958 0.88544 0.20080 -0.38600
O 	O 	0.96838 0.96988 0.24032 -0.70200
H 	H 	0.95762 0.96389 0.25679 0.15700
C 	C 	0.74200 0.81419 0.16610 0.05300
C 	C 	0.78721 0.85371 0.18019 -0.10200
H 	H 	0.77823 0.77809 0.12581 0.04700
C 	C 	0.78689 0.82983 0.32867 -0.00100
C 	C 	0.81288 0.88828 0.34425 -0.03100
C 	C 	0.78344 0.87459 0.36650 -0.03000
C 	C 	0.79480 0.84587 0.30459 0.05400
C 	C 	0.80310 0.86258 0.28466 -0.10100
H 	H 	0.85082 0.94489 0.33863 0.05000
H 	H 	0.79787 0.92088 0.37774 0.04800
C 	C 	0.97693 0.51751 0.53622 -0.06300
C 	C 	0.99304 0.20044 0.64041 0.03900
C 	C 	0.99529 0.29474 0.61548 0.03400
C 	C 	0.94807 0.23960 0.60006 -0.03000
C 	C 	0.93348 0.16683 0.60326 -0.01100
C 	C 	0.95589 0.14722 0.62345 -0.05300
C 	C 	0.89907 0.25309 0.58542 0.06200
C 	C 	0.86000 0.26917 0.57391 -0.10300
C 	C 	0.99056 0.17637 0.66360 0.04500
C 	C 	0.98619 0.15216 0.68258 -0.09400
H 	H 	0.89885 0.12414 0.59113 0.03900
H 	H 	0.93881 0.08960 0.62667 0.05100
C 	C 	0.79183 0.77751 0.64471 -0.00100
C 	C 	0.82832 0.79650 0.62335 -0.03200
C 	C 	0.80049 0.74526 0.60559 -0.03000
C 	C 	0.82949 0.82215 0.66427 0.05100
C 	C 	0.85985 0.85852 0.68091 -0.09600
H 	H 	0.88046 0.84922 0.62087 0.04700
H 	H 	0.83174 0.75852 0.58957 0.04700
C 	C 	0.90393 0.43886 0.01874 0.00400
C 	C 	0.86944 0.37546 0.00512 -0.04600
C 	C 	0.80359 0.35891 0.99278 0.01300
C 	C 	0.80039 0.46295 0.01002 0.01100
C 	C 	0.86600 0.47919 0.02249 -0.04700
C 	C 	0.77250 0.40619 0.99385 -0.07900
H 	H 	0.89712 0.34269 0.00256 0.05100
H 	H 	0.78106 0.31348 0.98080 0.04600
H 	H 	0.77569 0.49870 0.01143 0.03800
H 	H 	0.89110 0.52719 0.03348 0.05100
C 	C 	0.91625 0.24757 0.81798 -0.01300
C 	C 	0.96001 0.26764 0.83791 -0.00500
C 	C 	0.94739 0.30765 0.85485 -0.04200
C 	C 	0.89076 0.32749 0.85197 0.00200
C 	C 	0.85057 0.31150 0.83140 -0.03600
C 	C 	0.86313 0.27146 0.81447 -0.02600
C 	C 	0.86223 0.34844 0.87148 0.05100
C 	C 	0.83531 0.36557 0.88713 -0.10800
C 	C 	0.92550 0.20193 0.80125 0.05700
C 	C 	0.93432 0.16372 0.78752 -0.09900
H 	H 	0.97882 0.31979 0.87066 0.05000
H 	H 	0.80679 0.32673 0.82899 0.04600
H 	H 	0.83012 0.25740 0.79893 0.04400
C 	C 	0.75573 0.74242 0.78755 0.04800
C 	C 	0.79866 0.79964 0.77784 -0.09200
