data_crystal

_cell_length_a 25.83119
_cell_length_b 26.10760
_cell_length_c 57.06911
_cell_angle_alpha 89.96664
_cell_angle_beta  90.03357
_cell_angle_gamma 119.99342

_symmetry_space_group_name_	'P 1'
_symmetry_space_group_name_H-M	'P 1'

loop_
_symmetry_equiv_pos_as_xyz
  x,y,z

loop_
_atom_site_label
_atom_site_type_symbol
_atom_site_fract_x
_atom_site_fract_y
_atom_site_fract_z
_atom_site_charge
C 	C 	0.00467 0.40913 0.81393 -0.11300
O 	O 	0.01719 0.30567 0.85430 -0.27300
H 	H 	0.97445 0.41691 0.87801 0.15400
Cu	Cu	0.69681 0.41640 0.56762 0.92800
Cu	Cu	0.77312 0.42751 0.61514 0.87600
Cu	Cu	0.83055 0.45963 0.56743 0.89900
Cu	Cu	0.77675 0.47163 0.52250 0.89800
C 	C 	0.66500 0.47299 0.53200 0.30900
O 	O 	0.67095 0.34812 0.54499 -0.36200
C 	C 	0.88001 0.42517 0.60665 0.30300
O 	O 	0.77877 0.48614 0.55508 -0.63800
O 	O 	0.75506 0.39912 0.58297 -0.63900
O 	O 	0.65349 0.41755 0.59623 -0.37200
O 	O 	0.73956 0.47762 0.61567 -0.42400
O 	O 	0.69571 0.46087 0.51675 -0.37200
O 	O 	0.90168 0.52238 0.55299 -0.37200
C 	C 	0.90887 0.53233 0.53023 0.31200
C 	C 	0.70987 0.33960 0.53327 0.30200
O 	O 	0.76400 0.38408 0.52938 -0.38100
O 	O 	0.86405 0.52493 0.51667 -0.38800
O 	O 	0.65231 0.44817 0.55292 -0.36200
C 	C 	0.68176 0.45511 0.61322 0.31200
O 	O 	0.88384 0.43871 0.58417 -0.37000
O 	O 	0.82806 0.39899 0.61747 -0.40000
H 	H 	0.79010 0.52715 0.55944 0.16800
H 	H 	0.74713 0.35815 0.58097 0.17600
Cu	Cu	0.40888 0.71676 0.43279 0.93000
Cu	Cu	0.41039 0.78217 0.38379 0.87700
Cu	Cu	0.44301 0.84698 0.43016 0.89800
Cu	Cu	0.45703 0.80092 0.47649 0.89800
C 	C 	0.46810 0.69361 0.47033 0.30800
O 	O 	0.33857 0.68756 0.45496 -0.34800
C 	C 	0.39815 0.88246 0.38907 0.30200
O 	O 	0.47427 0.80143 0.44436 -0.64000
O 	O 	0.38510 0.76822 0.41624 -0.63800
O 	O 	0.41615 0.67465 0.40504 -0.35800
O 	O 	0.46963 0.75968 0.38460 -0.44000
O 	O 	0.45314 0.72435 0.48436 -0.36800
O 	O 	0.50384 0.92108 0.44347 -0.38400
C 	C 	0.51826 0.93157 0.46589 0.31100
C 	C 	0.32463 0.72441 0.46499 0.30300
O 	O 	0.36611 0.77974 0.46850 -0.39100
O 	O 	0.50315 0.88849 0.48137 -0.37500
O 	O 	0.44639 0.67979 0.44889 -0.35600
C 	C 	0.45396 0.70423 0.38819 0.31100
O 	O 	0.41961 0.89495 0.41070 -0.37800
O 	O 	0.37245 0.82805 0.38106 -0.40200
H 	H 	0.51666 0.81514 0.44064 0.16700
H 	H 	0.34278 0.75738 0.41835 0.17700
Cu	Cu	0.51017 0.26780 0.23584 0.93100
Cu	Cu	0.50057 0.33053 0.28393 0.87200
Cu	Cu	0.47384 0.36242 0.23661 0.89800
Cu	Cu	0.46051 0.29980 0.19108 0.89600
C 	C 	0.45284 0.18412 0.19886 0.31100
O 	O 	0.58050 0.30965 0.21379 -0.35000
C 	C 	0.51335 0.44385 0.27685 0.30300
O 	O 	0.44338 0.28490 0.22340 -0.63800
O 	O 	0.53097 0.34237 0.25206 -0.63900
O 	O 	0.50506 0.22062 0.26396 -0.36900
O 	O 	0.44615 0.24787 0.28343 -0.42900
O 	O 	0.46824 0.22885 0.18438 -0.38500
O 	O 	0.41383 0.37595 0.22220 -0.37800
C 	C 	0.40199 0.37251 0.19954 0.31100
C 	C 	0.59294 0.35955 0.20342 0.30300
O 	O 	0.55006 0.37148 0.19907 -0.39500
O 	O 	0.40998 0.33665 0.18551 -0.37800
O 	O 	0.47515 0.19304 0.22023 -0.34900
C 	C 	0.46624 0.21109 0.28059 0.31800
O 	O 	0.49865 0.43563 0.25439 -0.36700
O 	O 	0.53532 0.41392 0.28732 -0.41900
H 	H 	0.40114 0.25651 0.22727 0.16900
H 	H 	0.57329 0.37398 0.25066 0.17700
Cu	Cu	0.21901 0.68386 0.09935 0.92900
Cu	Cu	0.14150 0.61787 0.05252 0.87500
Cu	Cu	0.08801 0.58703 0.10038 0.89900
Cu	Cu	0.13966 0.65455 0.14485 0.89800
C 	C 	0.24760 0.76997 0.13548 0.31000
O 	O 	0.24933 0.64388 0.12150 -0.36000
C 	C 	0.04297 0.50280 0.06118 0.30400
O 	O 	0.13526 0.66622 0.11240 -0.63700
O 	O 	0.16435 0.60807 0.08395 -0.64000
O 	O 	0.25825 0.73003 0.07058 -0.37100
O 	O 	0.16923 0.70025 0.05273 -0.42200
O 	O 	0.21915 0.72623 0.15049 -0.38100
O 	O 	0.01451 0.57186 0.11547 -0.36800
C 	C 	0.00795 0.57810 0.13806 0.31100
C 	C 	0.21251 0.59557 0.13314 0.30600
O 	O 	0.15735 0.58318 0.13730 -0.39200
O 	O 	0.05232 0.61844 0.15087 -0.39200
O 	O 	0.25978 0.75972 0.11416 -0.35000
C 	C 	0.22662 0.73793 0.05449 0.31200
O 	O 	0.03988 0.51161 0.08385 -0.36600
O 	O 	0.09316 0.53412 0.04948 -0.41500
H 	H 	0.12042 0.69340 0.10816 0.17000
H 	H 	0.17583 0.57721 0.08518 0.17400
Cu	Cu	0.25291 0.52082 0.76626 0.92600
Cu	Cu	0.33770 0.55864 0.71901 0.87900
Cu	Cu	0.35848 0.49913 0.76710 0.90400
Cu	Cu	0.29298 0.48621 0.81292 0.89900
C 	C 	0.16716 0.45644 0.80293 0.30700
O 	O 	0.27830 0.59280 0.78693 -0.35900
C 	C 	0.43534 0.53859 0.72603 0.29900
O 	O 	0.28151 0.46600 0.78107 -0.64600
O 	O 	0.33522 0.55597 0.75307 -0.63400
O 	O 	0.20436 0.49356 0.73690 -0.37800
O 	O 	0.27111 0.56933 0.71405 -0.40800
O 	O 	0.21149 0.47514 0.81825 -0.38200
O 	O 	0.37463 0.44208 0.78199 -0.36500
C 	C 	0.36828 0.43017 0.80468 0.30700
C 	C 	0.32507 0.61206 0.80081 0.30300
O 	O 	0.34941 0.57913 0.80469 -0.37200
O 	O 	0.35143 0.45858 0.81926 -0.38900
O 	O 	0.17642 0.47565 0.78100 -0.35000
C 	C 	0.21654 0.52639 0.71804 0.31100
O 	O 	0.42976 0.52207 0.74813 -0.36500
O 	O 	0.41925 0.57676 0.71935 -0.40400
H 	H 	0.25583 0.42310 0.77810 0.16200
H 	H 	0.36214 0.59647 0.75891 0.17200
Cu	Cu	0.66478 0.23216 0.90434 0.92900
Cu	Cu	0.59430 0.16557 0.95261 0.86900
Cu	Cu	0.56256 0.10431 0.90531 0.89700
Cu	Cu	0.63151 0.14800 0.86048 0.90000
C 	C 	0.75082 0.25222 0.86865 0.31000
O 	O 	0.62789 0.26232 0.88065 -0.34900
C 	C 	0.47869 0.06720 0.94461 0.30700
O 	O 	0.64282 0.14658 0.89320 -0.63700
O 	O 	0.58705 0.18286 0.91997 -0.64000
O 	O 	0.71190 0.27546 0.93244 -0.35600
O 	O 	0.67718 0.19146 0.95391 -0.44200
O 	O 	0.70606 0.22414 0.85388 -0.36700
O 	O 	0.54390 0.02899 0.89166 -0.38500
C 	C 	0.54842 0.01980 0.86919 0.30800
C 	C 	0.57796 0.22640 0.86957 0.30300
O 	O 	0.56233 0.17062 0.86653 -0.39500
O 	O 	0.59074 0.06086 0.85589 -0.37400
O 	O 	0.74161 0.26711 0.88967 -0.35700
C 	C 	0.71659 0.24745 0.95069 0.30900
O 	O 	0.48640 0.06090 0.92212 -0.37700
O 	O 	0.50931 0.11891 0.95500 -0.41500
H 	H 	0.66874 0.13059 0.89810 0.16700
H 	H 	0.55748 0.19596 0.91753 0.17500
C 	C 	0.39774 0.73628 0.84484 -0.11500
C 	C 	0.41012 0.78532 0.83091 0.00700
C 	C 	0.39115 0.77706 0.80741 0.12100
C 	C 	0.36200 0.72010 0.79775 -0.03200
C 	C 	0.35133 0.67117 0.81149 -0.12300
C 	C 	0.36802 0.67931 0.83530 0.19500
C 	C 	0.44536 0.84540 0.84069 0.00600
O 	O 	0.40302 0.82479 0.79364 -0.27100
H 	H 	0.34897 0.71417 0.77946 0.05700
O 	O 	0.35630 0.63172 0.84914 -0.29700
H 	H 	0.41172 0.74242 0.86302 0.07400
C 	C 	0.41753 0.86978 0.85423 0.11900
C 	C 	0.45162 0.92653 0.86375 -0.03500
C 	C 	0.51357 0.95908 0.86000 -0.11600
C 	C 	0.54160 0.93385 0.84697 0.19300
C 	C 	0.50733 0.87751 0.83718 -0.10900
O 	O 	0.35683 0.83894 0.85759 -0.27200
H 	H 	0.42976 0.94553 0.87381 0.06300
O 	O 	0.60237 0.96425 0.84374 -0.28100
H 	H 	0.52902 0.85851 0.82702 0.08000
H 	H 	0.31624 0.61837 0.85597 0.14700
H 	H 	0.35066 0.81595 0.87219 0.14800
H 	H 	0.61895 0.95277 0.85712 0.14800
H 	H 	0.36796 0.83033 0.79557 0.15500
C 	C 	0.88684 0.27713 0.83434 -0.10900
C 	C 	0.92886 0.33492 0.84105 0.00400
C 	C 	0.91303 0.36491 0.85746 0.12400
C 	C 	0.85492 0.33767 0.86651 -0.03100
C 	C 	0.81250 0.28001 0.85959 -0.11600
C 	C 	0.82909 0.24931 0.84376 0.18900
C 	C 	0.98915 0.36435 0.83061 0.01000
O 	O 	0.95384 0.42147 0.86417 -0.27100
H 	H 	0.84269 0.36169 0.87868 0.07400
O 	O 	0.78873 0.19240 0.83728 -0.29400
H 	H 	0.89899 0.25373 0.82181 0.07300
C 	C 	0.03152 0.34858 0.83763 0.11300
C 	C 	0.08933 0.37833 0.82826 -0.03300
C 	C 	0.10526 0.42375 0.81179 -0.12100
C 	C 	0.06261 0.43939 0.80473 0.19700
H 	H 	0.12187 0.36622 0.83388 0.04800
O 	O 	0.07755 0.48442 0.78899 -0.28100
H 	H 	0.97204 0.42123 0.80841 0.08500
H 	H 	0.79395 0.16689 0.84882 0.14300
H 	H 	0.00216 0.26822 0.84543 0.14300
H 	H 	0.09236 0.52069 0.79863 0.15700
C 	C 	0.53838 0.32555 0.83509 -0.10900
C 	C 	0.47731 0.30010 0.84006 0.00600
C 	C 	0.44859 0.24861 0.85386 0.11700
C 	C 	0.48133 0.22348 0.86286 -0.03400
C 	C 	0.54290 0.25018 0.85855 -0.12300
C 	C 	0.57117 0.30069 0.84417 0.19400
C 	C 	0.44463 0.32979 0.83212 0.00500
O 	O 	0.38856 0.22267 0.85844 -0.27300
H 	H 	0.45915 0.18415 0.87368 0.05400
O 	O 	0.63108 0.32643 0.83934 -0.27600
H 	H 	0.56062 0.36513 0.82442 0.08300
C 	C 	0.44894 0.37789 0.84481 0.11700
C 	C 	0.42315 0.40993 0.83595 -0.03400
C 	C 	0.39209 0.39377 0.81455 -0.11900
C 	C 	0.38529 0.34371 0.80243 0.19100
C 	C 	0.41213 0.31237 0.81113 -0.10900
O 	O 	0.48044 0.39510 0.86543 -0.27000
H 	H 	0.42844 0.44815 0.84548 0.06400
O 	O 	0.35332 0.32595 0.78193 -0.28500
H 	H 	0.40821 0.27492 0.80142 0.07900
H 	H 	0.63357 0.30678 0.82485 0.15200
H 	H 	0.45081 0.37253 0.87784 0.14300
H 	H 	0.31164 0.29767 0.78671 0.14300
H 	H 	0.38565 0.24136 0.87313 0.14400
C 	C 	0.88687 0.39657 0.03979 -0.11500
C 	C 	0.89929 0.37120 0.02051 0.00300
C 	C 	0.95790 0.38245 0.01685 0.12600
C 	C 	0.00420 0.42199 0.03149 -0.04100
C 	C 	0.99265 0.45128 0.04964 -0.11700
C 	C 	0.93319 0.43656 0.05433 0.18800
C 	C 	0.85265 0.33925 0.00265 0.00700
O 	O 	0.97074 0.35812 0.99800 -0.27100
H 	H 	0.04951 0.43174 0.02810 0.06100
O 	O 	0.92081 0.46454 0.07195 -0.28800
H 	H 	0.84161 0.38737 0.04287 0.07200
C 	C 	0.82654 0.27770 0.99998 0.11800
C 	C 	0.78334 0.24827 0.98259 -0.03600
C 	C 	0.76433 0.27959 0.96827 -0.12800
C 	C 	0.78946 0.34115 0.97149 0.19100
C 	C 	0.83410 0.37067 0.98832 -0.11300
O 	O 	0.84385 0.24636 0.01408 -0.27700
H 	H 	0.76443 0.20102 0.98033 0.05600
O 	O 	0.77043 0.37253 0.95828 -0.27600
H 	H 	0.85389 0.41808 0.99041 0.07800
H 	H 	0.91117 0.43832 0.08579 0.17200
H 	H 	0.81670 0.23426 0.02780 0.14300
H 	H 	0.73722 0.37165 0.96734 0.14200
H 	H 	0.96779 0.32108 0.00398 0.15700
C 	C 	0.26828 0.82639 0.99809 -0.10800
C 	C 	0.31797 0.87956 0.00532 0.00400
C 	C 	0.33593 0.88718 0.02895 0.11700
C 	C 	0.30460 0.84148 0.04508 -0.03000
C 	C 	0.25615 0.78738 0.03771 -0.12500
C 	C 	0.23795 0.78001 0.01403 0.19100
C 	C 	0.35394 0.92534 0.98782 0.00400
O 	O 	0.38398 0.93936 0.03632 -0.27300
H 	H 	0.31847 0.84787 0.06328 0.07300
O 	O 	0.19103 0.72736 0.00639 -0.29800
H 	H 	0.25426 0.82036 0.97991 0.08100
C 	C 	0.39069 0.91654 0.97209 0.11400
C 	C 	0.42835 0.96193 0.95682 -0.03400
C 	C 	0.43120 0.01699 0.95764 -0.12900
C 	C 	0.39273 0.02505 0.97277 0.19100
C 	C 	0.35391 0.97904 0.98763 -0.10700
O 	O 	0.39005 0.86368 0.97171 -0.27500
H 	H 	0.45734 0.95518 0.94506 0.05300
O 	O 	0.39166 0.07707 0.97252 -0.28500
H 	H 	0.32474 0.98557 0.99937 0.08000
H 	H 	0.20917 0.70349 0.00133 0.13400
H 	H 	0.42099 0.86827 0.98316 0.14100
H 	H 	0.41907 0.10136 0.98527 0.15000
H 	H 	0.41916 0.93402 0.03437 0.14300
C 	C 	0.76155 0.44319 0.19972 -0.11500
C 	C 	0.77034 0.46446 0.17668 0.00500
C 	C 	0.72109 0.45564 0.16311 0.12200
C 	C 	0.66319 0.42322 0.17227 -0.03300
C 	C 	0.65411 0.39974 0.19501 -0.12300
C 	C 	0.70377 0.41137 0.20900 0.19200
C 	C 	0.83089 0.49392 0.16650 0.00600
O 	O 	0.72927 0.47656 0.14057 -0.27200
H 	H 	0.62527 0.41481 0.16143 0.05500
O 	O 	0.69581 0.39054 0.23156 -0.29200
H 	H 	0.79951 0.45072 0.21036 0.07200
C 	C 	0.86904 0.55514 0.16932 0.11600
C 	C 	0.92679 0.58254 0.15988 -0.03200
C 	C 	0.94707 0.54903 0.14784 -0.11900
C 	C 	0.90906 0.48762 0.14530 0.19200
C 	C 	0.85102 0.46043 0.15443 -0.11000
O 	O 	0.84941 0.58846 0.18076 -0.27400
H 	H 	0.95566 0.62989 0.16181 0.05800
O 	O 	0.92855 0.45416 0.13387 -0.28900
H 	H 	0.82182 0.41318 0.15232 0.07800
H 	H 	0.69679 0.42234 0.24139 0.13900
H 	H 	0.86022 0.58844 0.19744 0.14500
H 	H 	0.94660 0.44122 0.14621 0.14500
H 	H 	0.73467 0.51683 0.14188 0.15400
C 	C 	0.29149 0.40095 0.16658 -0.11300
C 	C 	0.31331 0.46082 0.17167 0.00500
C 	C 	0.36322 0.49118 0.18644 0.12400
C 	C 	0.39109 0.46164 0.19593 -0.03400
C 	C 	0.37015 0.40206 0.19045 -0.11800
C 	C 	0.31933 0.37134 0.17604 0.19200
C 	C 	0.28437 0.49192 0.16124 0.00600
O 	O 	0.38430 0.54950 0.19186 -0.26800
H 	H 	0.42970 0.48538 0.20721 0.06700
O 	O 	0.29702 0.31256 0.17111 -0.28800
H 	H 	0.25287 0.37734 0.15529 0.07100
C 	C 	0.29760 0.51316 0.13811 0.11500
C 	C 	0.27279 0.54577 0.12883 -0.03200
C 	C 	0.23418 0.55690 0.14242 -0.12400
C 	C 	0.21960 0.53407 0.16538 0.19400
C 	C 	0.24490 0.50191 0.17469 -0.11100
O 	O 	0.33670 0.50419 0.12488 -0.27300
H 	H 	0.28398 0.56285 0.11112 0.05200
O 	O 	0.18351 0.54606 0.17920 -0.29400
H 	H 	0.23455 0.48554 0.19252 0.07900
H 	H 	0.26744 0.29086 0.18364 0.14700
H 	H 	0.31150 0.46653 0.11643 0.14400
H 	H 	0.14256 0.51213 0.17691 0.14900
H 	H 	0.41432 0.57228 0.17960 0.15400
C 	C 	0.30459 0.93394 0.14089 -0.11100
C 	C 	0.33761 0.94737 0.16175 0.00800
C 	C 	0.34190 0.90256 0.17377 0.12000
C 	C 	0.31213 0.84457 0.16519 -0.03200
C 	C 	0.27902 0.83109 0.14434 -0.12000
C 	C 	0.27550 0.87611 0.13212 0.18900
C 	C 	0.36708 0.00824 0.17112 0.00300
O 	O 	0.37429 0.91518 0.19413 -0.27100
H 	H 	0.31534 0.81022 0.17462 0.06600
O 	O 	0.24405 0.86376 0.11152 -0.28600
H 	H 	0.30120 0.96830 0.13154 0.07200
C 	C 	0.41669 0.05417 0.15953 0.11600
C 	C 	0.44453 0.11163 0.16865 -0.03100
C 	C 	0.42321 0.12369 0.18933 -0.12100
C 	C 	0.37354 0.07777 0.20089 0.19100
C 	C 	0.34567 0.02033 0.19175 -0.11200
O 	O 	0.43944 0.04251 0.13983 -0.27100
H 	H 	0.48315 0.14665 0.15980 0.06200
O 	O 	0.35270 0.08879 0.22128 -0.28900
H 	H 	0.30742 0.98514 0.20072 0.08100
H 	H 	0.20279 0.85291 0.11615 0.14100
H 	H 	0.41920 0.04960 0.12648 0.14500
H 	H 	0.32240 0.09934 0.21633 0.13900
H 	H 	0.41538 0.92624 0.18917 0.15500
C 	C 	0.41228 0.97437 0.33557 -0.11100
C 	C 	0.41334 0.02361 0.34577 0.00100
C 	C 	0.40639 0.02538 0.37015 0.11900
C 	C 	0.39928 0.97821 0.38419 -0.02900
C 	C 	0.40030 0.92966 0.37406 -0.12300
C 	C 	0.40697 0.92806 0.34956 0.19000
C 	C 	0.42688 0.07521 0.33106 0.00800
O 	O 	0.40603 0.07287 0.38024 -0.27200
H 	H 	0.39371 0.97976 0.40295 0.06400
O 	O 	0.40927 0.88171 0.33931 -0.29800
H 	H 	0.41778 0.97299 0.31679 0.07500
C 	C 	0.48650 0.11644 0.32541 0.11400
C 	C 	0.49905 0.16104 0.30904 -0.03100
C 	C 	0.45237 0.16470 0.29811 -0.13200
C 	C 	0.39269 0.12403 0.30403 0.19900
C 	C 	0.38018 0.07967 0.32058 -0.11400
O 	O 	0.53258 0.11350 0.33607 -0.27800
H 	H 	0.54512 0.19277 0.30482 0.05200
O 	O 	0.34661 0.12744 0.29362 -0.29200
H 	H 	0.33415 0.04782 0.32481 0.08000
H 	H 	0.45222 0.89353 0.33916 0.13200
H 	H 	0.54111 0.08803 0.32576 0.14500
H 	H 	0.33639 0.10235 0.27941 0.15700
H 	H 	0.44834 0.10102 0.38425 0.15200
C 	C 	0.48951 0.59247 0.36158 -0.11400
C 	C 	0.49702 0.60932 0.33792 0.00500
C 	C 	0.49424 0.65961 0.33107 0.11800
C 	C 	0.48114 0.69098 0.34763 -0.03400
C 	C 	0.47182 0.67318 0.37123 -0.13000
C 	C 	0.47797 0.62473 0.37829 0.19400
C 	C 	0.50441 0.57231 0.32020 0.00500
O 	O 	0.50222 0.67691 0.30802 -0.27200
H 	H 	0.47704 0.72845 0.34201 0.04400
O 	O 	0.47179 0.60829 0.40142 -0.27700
H 	H 	0.49208 0.55399 0.36698 0.07200
C 	C 	0.55721 0.56923 0.31938 0.11500
C 	C 	0.56151 0.52981 0.30398 -0.03300
C 	C 	0.51311 0.49287 0.28948 -0.12200
C 	C 	0.46144 0.49812 0.28950 0.18700
C 	C 	0.45735 0.53783 0.30480 -0.10700
O 	O 	0.60497 0.60540 0.33334 -0.27300
H 	H 	0.60193 0.52693 0.30372 0.05800
O 	O 	0.41453 0.46380 0.27486 -0.27900
H 	H 	0.41690 0.54066 0.30513 0.08100
H 	H 	0.51253 0.63106 0.40819 0.15300
H 	H 	0.59994 0.58224 0.34779 0.14400
H 	H 	0.38827 0.42750 0.28395 0.13800
H 	H 	0.54572 0.70476 0.30634 0.15200
C 	C 	0.68352 0.21804 0.49050 -0.11300
C 	C 	0.64412 0.16763 0.50334 0.00700
C 	C 	0.62977 0.17363 0.52657 0.12100
C 	C 	0.65389 0.22987 0.53663 -0.03300
C 	C 	0.69146 0.28059 0.52351 -0.12100
C 	C 	0.70666 0.27446 0.50036 0.19400
C 	C 	0.61538 0.10887 0.49206 0.00100
O 	O 	0.59234 0.12453 0.53949 -0.27200
H 	H 	0.64241 0.23411 0.55451 0.05400
O 	O 	0.74344 0.32345 0.48725 -0.29300
H 	H 	0.69497 0.21360 0.47263 0.07200
C 	C 	0.56758 0.09236 0.47636 0.11900
C 	C 	0.53708 0.03479 0.46734 -0.04000
C 	C 	0.55401 0.99340 0.47384 -0.11100
C 	C 	0.60357 0.01076 0.48875 0.18300
C 	C 	0.63374 0.06821 0.49791 -0.10500
O 	O 	0.54877 0.13154 0.47071 -0.27400
H 	H 	0.49924 0.02190 0.45577 0.06100
O 	O 	0.62190 0.97139 0.49470 -0.28200
H 	H 	0.67095 0.08093 0.50979 0.07800
H 	H 	0.71636 0.33422 0.47903 0.14700
H 	H 	0.57157 0.15223 0.45644 0.14500
H 	H 	0.65163 0.97642 0.48260 0.14600
H 	H 	0.55156 0.11778 0.53650 0.15300
C 	C 	0.15600 0.63704 0.46932 -0.11300
C 	C 	0.14691 0.65323 0.49170 0.00600
C 	C 	0.19588 0.69606 0.50460 0.12100
C 	C 	0.25380 0.72049 0.49549 -0.03200
C 	C 	0.26320 0.70279 0.47343 -0.12200
C 	C 	0.21377 0.66208 0.46005 0.19200
C 	C 	0.08640 0.62348 0.50197 0.00600
O 	O 	0.18744 0.71247 0.52646 -0.26900
H 	H 	0.29150 0.75208 0.50585 0.05800
O 	O 	0.22194 0.64593 0.43809 -0.28900
H 	H 	0.11829 0.60460 0.45921 0.07200
C 	C 	0.04418 0.63950 0.49500 0.11500
C 	C 	0.98645 0.61007 0.50447 -0.03100
C 	C 	0.97020 0.56405 0.52072 -0.11700
C 	C 	0.01255 0.54796 0.52760 0.18800
C 	C 	0.07046 0.57796 0.51834 -0.10700
O 	O 	0.05980 0.68504 0.47947 -0.27300
H 	H 	0.95445 0.62326 0.49927 0.06000
O 	O 	0.99754 0.50317 0.54347 -0.27700
H 	H 	0.10286 0.56542 0.52371 0.08200
H 	H 	0.21988 0.67458 0.42725 0.14000
H 	H 	0.04978 0.66623 0.46377 0.14400
H 	H 	0.98219 0.46666 0.53394 0.14900
H 	H 	0.18102 0.74643 0.52377 0.15300
C 	C 	0.50022 0.59570 0.50941 -0.11200
C 	C 	0.55058 0.59969 0.49836 0.00600
C 	C 	0.57445 0.63549 0.47836 0.12000
C 	C 	0.54723 0.66610 0.46932 -0.03400
C 	C 	0.49703 0.66236 0.48041 -0.11800
C 	C 	0.47325 0.62666 0.50048 0.19600
C 	C 	0.57778 0.56567 0.50755 0.00500
O 	O 	0.62357 0.63958 0.46734 -0.27400
H 	H 	0.56533 0.69295 0.45371 0.05100
O 	O 	0.42364 0.62188 0.51135 -0.28200
H 	H 	0.48160 0.56808 0.52480 0.07400
C 	C 	0.61056 0.58259 0.52860 0.11600
C 	C 	0.63809 0.55140 0.53669 -0.03500
C 	C 	0.63326 0.50336 0.52388 -0.12200
C 	C 	0.59891 0.48530 0.50320 0.19500
C 	C 	0.57162 0.51668 0.49506 -0.11000
O 	O 	0.61780 0.63107 0.54075 -0.27400
H 	H 	0.66411 0.56524 0.55271 0.05200
O 	O 	0.59251 0.43747 0.49079 -0.28400
H 	H 	0.54583 0.50305 0.47898 0.08100
H 	H 	0.38908 0.58783 0.50370 0.15700
H 	H 	0.58452 0.61540 0.55223 0.14700
H 	H 	0.55632 0.40292 0.49734 0.15500
H 	H 	0.65848 0.67338 0.47493 0.15000
C 	C 	0.97982 0.40577 0.64980 -0.11100
C 	C 	0.03030 0.46260 0.64956 0.00400
C 	C 	0.03389 0.50467 0.63324 0.12100
C 	C 	0.98617 0.49044 0.61795 -0.03500
C 	C 	0.93396 0.43498 0.61929 -0.12100
C 	C 	0.93177 0.39175 0.63470 0.19300
C 	C 	0.07799 0.47887 0.66714 0.00500
O 	O 	0.08382 0.55981 0.63231 -0.26800
H 	H 	0.98864 0.52358 0.60583 0.06400
O 	O 	0.88219 0.33635 0.63545 -0.28600
H 	H 	0.97735 0.37282 0.66202 0.07200
C 	C 	0.06802 0.48687 0.69076 0.11700
C 	C 	0.11377 0.50318 0.70726 -0.02900
C 	C 	0.16964 0.51168 0.70037 -0.12600
C 	C 	0.17949 0.50337 0.67674 0.19300
C 	C 	0.13379 0.48728 0.66024 -0.11000
O 	O 	0.01431 0.48080 0.69759 -0.27200
H 	H 	0.10586 0.50943 0.72541 0.06700
O 	O 	0.23375 0.51106 0.66975 -0.30300
H 	H 	0.14167 0.48113 0.64207 0.08100
H 	H 	0.88995 0.31270 0.62385 0.15200
H 	H 	0.98961 0.43891 0.70250 0.15000
H 	H 	0.23024 0.47162 0.67143 0.13200
H 	H 	0.07586 0.58438 0.64337 0.15200
C 	C 	0.55903 0.56455 0.68377 -0.11400
C 	C 	0.54546 0.50636 0.67930 0.00500
C 	C 	0.49733 0.45907 0.69095 0.12200
C 	C 	0.46279 0.47018 0.70681 -0.03800
C 	C 	0.47510 0.52823 0.71075 -0.12200
C 	C 	0.52394 0.57569 0.69934 0.19400
C 	C 	0.58147 0.49499 0.66229 0.00600
O 	O 	0.48456 0.40205 0.68711 -0.27200
H 	H 	0.42561 0.43352 0.71566 0.05200
O 	O 	0.53896 0.63298 0.70413 -0.28000
H 	H 	0.59661 0.60115 0.67507 0.07400
C 	C 	0.56960 0.49298 0.63815 0.11500
C 	C 	0.60271 0.48018 0.62218 -0.02900
C 	C 	0.64817 0.46994 0.63013 -0.12900
C 	C 	0.66008 0.47215 0.65434 0.19400
C 	C 	0.62709 0.48518 0.67026 -0.11100
O 	O 	0.52442 0.50165 0.63021 -0.27600
H 	H 	0.59316 0.47844 0.60360 0.06200
O 	O 	0.70377 0.46141 0.66246 -0.30300
H 	H 	0.63643 0.48683 0.68885 0.08200
H 	H 	0.51891 0.64373 0.69184 0.15100
H 	H 	0.54348 0.54474 0.62718 0.14400
H 	H 	0.68331 0.41819 0.66537 0.13800
H 	H 	0.45588 0.38761 0.67385 0.15000
