data_crystal

_cell_length_a 36.29572
_cell_length_b 41.65187
_cell_length_c 22.58968
_cell_angle_alpha 89.82101
_cell_angle_beta  89.99939
_cell_angle_gamma 89.99993

_symmetry_space_group_name_	'P 1'
_symmetry_space_group_name_H-M	'P 1'

loop_
_symmetry_equiv_pos_as_xyz
  x,y,z

loop_
_atom_site_label
_atom_site_type_symbol
_atom_site_fract_x
_atom_site_fract_y
_atom_site_fract_z
_atom_site_charge
C 	C 	0.47822 0.57258 0.90300 0.09900
N 	N 	0.46530 0.54432 0.92336 -0.17200
C 	C 	0.42867 0.54452 0.91403 0.10600
C 	C 	0.40325 0.52267 0.94580 -0.08200
C 	C 	0.41112 0.48788 0.94755 0.08600
C 	C 	0.36855 0.53509 0.97148 0.07700
C 	C 	0.36942 0.56005 0.01308 -0.10000
C 	C 	0.33653 0.57269 0.03533 -0.00200
C 	C 	0.30259 0.56030 0.01649 -0.06100
C 	C 	0.33456 0.52243 0.95331 -0.08200
N 	N 	0.43449 0.47356 0.90949 -0.12800
C 	C 	0.40394 0.46838 0.99585 -0.04800
C 	C 	0.44141 0.44445 0.93314 0.08400
C 	C 	0.47112 0.42329 0.91170 -0.07400
C 	C 	0.46420 0.38845 0.90782 0.04600
C 	C 	0.44347 0.34233 0.85160 -0.02200
C 	C 	0.46968 0.36874 0.95742 -0.06100
C 	C 	0.46124 0.33604 0.95462 -0.02100
C 	C 	0.44796 0.32267 0.90172 -0.01900
N 	N 	0.52029 0.46472 0.90543 -0.17200
C 	C 	0.55524 0.46516 0.88536 0.09800
C 	C 	0.56246 0.43791 0.85235 -0.06300
C 	C 	0.53039 0.42008 0.85242 -0.06400
C 	C 	0.58413 0.48561 0.91201 -0.06900
C 	C 	0.62120 0.47235 0.92329 0.03300
C 	C 	0.68506 0.46599 0.89395 -0.03900
C 	C 	0.69216 0.44869 0.94610 0.01000
C 	C 	0.66355 0.44304 0.98662 -0.02400
C 	C 	0.62809 0.45460 0.97496 -0.03800
N 	N 	0.54858 0.53582 0.89621 -0.12700
C 	C 	0.57400 0.56670 0.96703 -0.04600
C 	C 	0.54696 0.56434 0.92415 0.08200
C 	C 	0.51451 0.58565 0.92086 -0.06900
C 	C 	0.51942 0.62055 0.92839 0.03300
C 	C 	0.53192 0.63934 0.88089 -0.05200
C 	C 	0.53601 0.67248 0.88758 -0.04000
C 	C 	0.52791 0.68701 0.94196 0.01300
C 	C 	0.51585 0.66815 0.98975 -0.02600
C 	C 	0.51130 0.63503 0.98280 -0.03700
C 	C 	0.44966 0.59101 0.88034 -0.06200
C 	C 	0.41798 0.57303 0.88735 -0.06600
C 	C 	0.30172 0.53495 0.97581 0.01500
C 	C 	0.42338 0.44045 0.98654 -0.04500
C 	C 	0.50503 0.43731 0.88549 0.09900
C 	C 	0.59356 0.53839 0.96479 -0.04600
C 	C 	0.57741 0.52027 0.92063 0.08200
C 	C 	0.64975 0.47788 0.88271 -0.05300
H 	H 	0.47836 0.53047 0.95583 0.09400
H 	H 	0.51134 0.47706 0.94300 0.09400
H 	H 	0.54550 0.68687 0.85057 0.03900
H 	H 	0.50976 0.67918 0.03200 0.02100
H 	H 	0.53820 0.62829 0.83873 0.04400
H 	H 	0.50163 0.62063 0.01967 0.02400
H 	H 	0.33742 0.59227 0.06676 0.02500
H 	H 	0.33359 0.50321 0.92113 0.05300
H 	H 	0.27559 0.52531 0.96097 0.03000
H 	H 	0.39554 0.56984 0.02766 0.04700
H 	H 	0.46456 0.32118 0.99371 0.03600
H 	H 	0.48000 0.37883 0.99833 0.04700
C 	C 	0.45114 0.37515 0.85489 -0.06200
H 	H 	0.43370 0.33224 0.81035 0.03400
H 	H 	0.70703 0.47057 0.86257 0.03800
H 	H 	0.64457 0.49148 0.84261 0.04300
H 	H 	0.60613 0.45019 0.00644 0.02400
H 	H 	0.66885 0.42990 0.02719 0.02200
H 	H 	0.45012 0.61689 0.87584 0.04600
H 	H 	0.39044 0.58298 0.88884 0.04900
H 	H 	0.39527 0.47692 0.03887 0.03000
H 	H 	0.43194 0.42412 0.02127 0.02600
H 	H 	0.58962 0.42802 0.84462 0.04700
H 	H 	0.52937 0.39444 0.84496 0.04800
H 	H 	0.57248 0.58208 0.00550 0.02700
H 	H 	0.60947 0.52867 0.00121 0.02700
H 	H 	0.44697 0.39024 0.81632 0.04700
Co	Co	0.38600 0.13012 0.91829 1.18000
Co	Co	0.40141 0.05676 0.92304 1.09500
O 	O 	0.37762 0.17820 0.92340 -0.38400
O 	O 	0.42598 0.16723 0.87372 -0.32600
O 	O 	0.34407 0.11088 0.96098 -0.41700
O 	O 	0.41964 0.07826 0.85022 -0.48500
C 	C 	0.32780 0.08455 0.94243 0.29000
C 	C 	0.40480 0.18958 0.89361 0.31600
O 	O 	0.34620 0.06354 0.91074 -0.44000
O 	O 	0.37511 0.11567 0.83930 -0.43500
C 	C 	0.39658 0.09390 0.81595 0.31700
O 	O 	0.42314 0.12400 0.97826 -0.43400
O 	O 	0.40609 0.07319 0.00501 -0.47700
C 	C 	0.42073 0.10114 0.01825 0.29600
C 	C 	0.47884 0.02026 0.45388 0.00700
C 	C 	0.49961 0.99130 0.45426 0.00900
C 	C 	0.48653 0.04417 0.41161 -0.05600
C 	C 	0.51314 0.03872 0.36747 0.00800
C 	C 	0.52652 0.98603 0.41068 -0.05600
C 	C 	0.53267 0.00912 0.36628 0.00800
H 	H 	0.54212 0.96386 0.41070 0.04800
H 	H 	0.47153 0.06663 0.41247 0.04700
C 	C 	0.55783 0.00340 0.31981 -0.01400
C 	C 	0.56181 0.02524 0.27272 0.00500
C 	C 	0.57522 0.01068 0.21997 -0.05500
C 	C 	0.58027 0.97757 0.22541 -0.00200
S 	S 	0.56869 0.96701 0.29422 -0.01600
H 	H 	0.57815 0.02317 0.17822 0.03900
C 	C 	0.52017 0.06179 0.32283 -0.01300
C 	C 	0.54236 0.05440 0.27381 0.00400
C 	C 	0.53317 0.07248 0.22217 -0.05400
C 	C 	0.50405 0.09398 0.23093 -0.00300
S 	S 	0.49003 0.08962 0.30090 -0.01700
H 	H 	0.54266 0.06623 0.17841 0.03700
C 	C 	0.44403 0.00117 0.54028 0.00400
C 	C 	0.44993 0.02389 0.49523 -0.01300
S 	S 	0.43344 0.05906 0.51883 -0.01800
C 	C 	0.41745 0.04670 0.58433 -0.00300
C 	C 	0.42577 0.01411 0.59061 -0.05500
C 	C 	0.49136 0.96756 0.49699 -0.01500
C 	C 	0.46464 0.97267 0.54085 0.00500
C 	C 	0.46974 0.95298 0.59181 -0.05500
C 	C 	0.50092 0.93339 0.58804 -0.00300
S 	S 	0.52147 0.94078 0.52335 -0.01500
H 	H 	0.45333 0.95481 0.63159 0.03600
H 	H 	0.42260 0.00143 0.63213 0.03600
Co	Co	0.60225 0.87467 0.90888 1.17800
Co	Co	0.51812 0.88613 0.92448 1.09100
O 	O 	0.65728 0.86771 0.89794 -0.38600
O 	O 	0.64453 0.91696 0.91162 -0.32900
O 	O 	0.57935 0.83196 0.90339 -0.41900
O 	O 	0.54861 0.91735 0.96959 -0.46400
C 	C 	0.55330 0.82290 0.94031 0.29700
C 	C 	0.67031 0.89637 0.90191 0.31500
O 	O 	0.53243 0.84440 0.96664 -0.43300
O 	O 	0.59405 0.88248 0.99204 -0.42000
C 	C 	0.57362 0.90698 0.00697 0.27900
O 	O 	0.58796 0.89112 0.83221 -0.43700
O 	O 	0.52879 0.87321 0.84191 -0.47300
C 	C 	0.55482 0.88683 0.81024 0.30800
Co	Co	0.09222 0.62392 0.03635 1.17500
Co	Co	0.00856 0.61172 0.01206 1.08500
O 	O 	0.14574 0.63405 0.05506 -0.39200
O 	O 	0.13326 0.58500 0.07157 -0.33300
O 	O 	0.07089 0.66433 0.00587 -0.42800
O 	O 	0.03543 0.61831 0.93620 -0.45400
C 	C 	0.04037 0.67639 0.02818 0.29400
C 	C 	0.15847 0.60681 0.07281 0.31600
O 	O 	0.01314 0.65736 0.04394 -0.44100
O 	O 	0.09108 0.59851 0.96497 -0.43600
C 	C 	0.06594 0.60275 0.92404 0.30900
O 	O 	0.06979 0.62401 0.11334 -0.43700
O 	O 	0.02839 0.58746 0.08072 -0.49300
C 	C 	0.04408 0.60286 0.12464 0.31900
C 	C 	0.04345 0.49044 0.57603 0.00800
C 	C 	0.02628 0.45983 0.57835 0.00800
C 	C 	0.03419 0.51219 0.53071 -0.05600
C 	C 	0.00655 0.50446 0.48968 0.00600
C 	C 	0.99988 0.45148 0.53542 -0.05600
C 	C 	0.98921 0.47390 0.49207 0.00900
H 	H 	0.98709 0.42798 0.53665 0.04900
H 	H 	0.04777 0.53532 0.52831 0.04700
C 	C 	0.95974 0.46753 0.45305 -0.01400
C 	C 	0.94856 0.48995 0.41021 0.00500
C 	C 	0.92891 0.47575 0.36247 -0.05600
C 	C 	0.92564 0.44239 0.36749 -0.00300
S 	S 	0.94763 0.43116 0.42909 -0.01500
H 	H 	0.92116 0.48858 0.32269 0.03700
C 	C 	0.99416 0.52728 0.44785 -0.01200
C 	C 	0.96631 0.51987 0.40691 0.00300
C 	C 	0.96799 0.53904 0.35459 -0.05600
C 	C 	0.99748 0.56064 0.35460 -0.00300
S 	S 	0.02070 0.55563 0.41759 -0.01800
H 	H 	0.95179 0.53443 0.31537 0.03700
C 	C 	0.07601 0.47838 0.66886 0.00500
C 	C 	0.06885 0.49892 0.62062 -0.01300
S 	S 	0.07520 0.53645 0.64401 -0.01600
C 	C 	0.08834 0.52861 0.71306 -0.00200
C 	C 	0.08815 0.49524 0.72029 -0.05500
C 	C 	0.03533 0.43862 0.62501 -0.01400
C 	C 	0.05899 0.44800 0.67111 0.00500
C 	C 	0.05241 0.43086 0.72491 -0.05500
C 	C 	0.02285 0.40935 0.72169 -0.00300
S 	S 	0.00630 0.41152 0.65301 -0.01400
H 	H 	0.06512 0.43700 0.76663 0.04100
H 	H 	0.09152 0.48411 0.76321 0.04200
Co	Co	0.89903 0.36595 0.02409 1.17500
Co	Co	0.91459 0.43996 0.02843 1.08300
O 	O 	0.89001 0.31815 0.01308 -0.38200
O 	O 	0.94733 0.32880 0.01920 -0.32800
O 	O 	0.84993 0.38637 0.02794 -0.43200
O 	O 	0.89455 0.42428 0.10495 -0.47200
C 	C 	0.84203 0.41262 0.99770 0.32200
C 	C 	0.92293 0.30668 0.01187 0.27900
O 	O 	0.86842 0.43181 0.97906 -0.43700
O 	O 	0.91441 0.37242 0.10529 -0.43600
C 	C 	0.90902 0.39970 0.13287 0.30600
O 	O 	0.91194 0.37858 0.94478 -0.42600
O 	O 	0.95117 0.41584 0.98110 -0.47300
C 	C 	0.93994 0.39789 0.93709 0.31700
C 	C 	0.98061 0.92570 0.12857 0.09900
N 	N 	0.96550 0.95319 0.10859 -0.17300
C 	C 	0.92973 0.95248 0.12426 0.10300
C 	C 	0.90162 0.97215 0.09369 -0.08400
C 	C 	0.90665 0.00730 0.08864 0.08900
C 	C 	0.86890 0.95671 0.06707 0.06300
C 	C 	0.87323 0.93337 0.02294 -0.10500
C 	C 	0.84235 0.92090 0.99403 0.03900
C 	C 	0.80698 0.93171 0.00904 -0.07600
C 	C 	0.83343 0.96671 0.08338 -0.08200
N 	N 	0.93276 0.02332 0.11904 -0.12900
C 	C 	0.89360 0.02551 0.04179 -0.06600
C 	C 	0.93564 0.05216 0.09221 0.08600
C 	C 	0.96732 0.07382 0.10154 -0.07300
C 	C 	0.96335 0.10842 0.08842 0.03100
C 	C 	0.93251 0.15922 0.10554 -0.04800
C 	C 	0.98355 0.12243 0.04214 -0.04300
C 	C 	0.97788 0.15465 0.02709 -0.07100
C 	C 	0.95202 0.17303 0.05830 0.02700
N 	N 	0.01762 0.03362 0.10738 -0.17200
C 	C 	0.05323 0.03450 0.12403 0.09800
C 	C 	0.06071 0.06273 0.15401 -0.06400
C 	C 	0.02807 0.07977 0.15554 -0.06300
C 	C 	0.08176 0.01426 0.09585 -0.07400
C 	C 	0.11686 0.02859 0.07564 0.02900
C 	C 	0.18368 0.02803 0.07436 -0.05300
C 	C 	0.18365 0.05108 0.02904 0.03500
C 	C 	0.15017 0.06369 0.00845 -0.07600
C 	C 	0.11685 0.05240 0.03156 -0.04200
N 	N 	0.05006 0.96324 0.12111 -0.12900
C 	C 	0.07041 0.93233 0.04627 -0.06500
C 	C 	0.04719 0.93437 0.09465 0.08600
C 	C 	0.01549 0.91276 0.10437 -0.07600
C 	C 	0.01914 0.87816 0.09116 0.03600
C 	C 	0.04648 0.85985 0.11935 -0.05400
C 	C 	0.05033 0.82727 0.10629 -0.04200
C 	C 	0.02693 0.81276 0.06486 0.01400
C 	C 	0.99964 0.83104 0.03654 -0.04300
C 	C 	0.99584 0.86367 0.04948 -0.05600
C 	C 	0.95439 0.90727 0.15757 -0.06400
C 	C 	0.92183 0.92439 0.15472 -0.06500
C 	C 	0.80260 0.95431 0.05438 0.00100
C 	C 	0.91217 0.05429 0.04414 -0.06300
C 	C 	0.00220 0.06114 0.12638 0.09800
C 	C 	0.08887 0.96117 0.04340 -0.06400
C 	C 	0.07593 0.97930 0.09017 0.08600
C 	C 	0.15042 0.01686 0.09766 -0.04800
H 	H 	0.97578 0.96641 0.07281 0.09100
H 	H 	0.00773 0.02017 0.07176 0.09000
H 	H 	0.07135 0.81324 0.12852 0.03900
H 	H 	0.98139 0.81995 0.00465 0.03500
H 	H 	0.06460 0.87086 0.15154 0.04400
H 	H 	0.97482 0.87769 0.02721 0.03900
H 	H 	0.84593 0.90335 0.95919 0.02300
H 	H 	0.82982 0.98450 0.11779 0.05000
H 	H 	0.77533 0.96262 0.06645 0.02400
H 	H 	0.90053 0.92544 0.01018 0.05100
H 	H 	0.99326 0.16523 0.99084 0.06000
H 	H 	0.00320 0.10825 0.01732 0.03500
C 	C 	0.93801 0.12698 0.12033 -0.04900
H 	H 	0.91276 0.17336 0.13023 0.04200
H 	H 	0.20947 0.01841 0.09082 0.03800
H 	H 	0.15069 0.99868 0.13206 0.04100
H 	H 	0.09105 0.06164 0.01439 0.03500
H 	H 	0.14998 0.08170 0.97374 0.06100
H 	H 	0.95601 0.88154 0.16393 0.04600
H 	H 	0.89471 0.91372 0.15813 0.04600
H 	H 	0.88130 0.01575 0.00206 0.04300
H 	H 	0.91631 0.07004 0.00650 0.04200
H 	H 	0.08776 0.07343 0.15823 0.04600
H 	H 	0.02631 0.10552 0.16118 0.04700
H 	H 	0.06614 0.91660 0.00883 0.04100
H 	H 	0.10109 0.97095 0.00352 0.04100
H 	H 	0.92241 0.11635 0.15627 0.04300
C 	C 	0.93093 0.27231 0.02103 -0.05200
C 	C 	0.96402 0.26272 0.04788 -0.01500
C 	C 	0.97109 0.23025 0.05832 -0.03300
C 	C 	0.94537 0.20685 0.04163 -0.03800
C 	C 	0.91256 0.21621 0.01216 0.07400
C 	C 	0.90539 0.24903 0.00294 -0.07200
H 	H 	0.99635 0.22327 0.08045 0.03500
H 	H 	0.88016 0.25636 0.98103 0.07100
H 	H 	0.98403 0.28047 0.06174 0.04100
N 	N 	0.88824 0.19394 0.99191 -0.18900
H 	H 	0.89390 0.16940 0.99443 0.09300
H 	H 	0.86368 0.20111 0.97165 0.08700
C 	C 	0.99835 0.40433 0.77284 0.01500
C 	C 	0.00093 0.37628 0.80795 -0.00900
C 	C 	0.98111 0.37438 0.86127 0.00100
C 	C 	0.95841 0.39977 0.87928 -0.10400
C 	C 	0.95429 0.42710 0.84249 0.05500
C 	C 	0.97432 0.42906 0.78953 -0.07800
H 	H 	0.98386 0.35331 0.88927 0.04000
H 	H 	0.97173 0.45021 0.76167 0.04700
C 	C 	0.02572 0.34870 0.79021 -0.05100
C 	C 	0.92681 0.45330 0.85713 -0.06000
C 	C 	0.06427 0.35270 0.81615 -0.14500
H 	H 	0.02758 0.34662 0.74128 0.04000
H 	H 	0.01395 0.32563 0.80636 0.03900
H 	H 	0.07732 0.37506 0.79940 0.05900
H 	H 	0.08169 0.33200 0.80301 0.05600
H 	H 	0.06297 0.35355 0.86527 0.06000
C 	C 	0.88834 0.44448 0.83521 -0.14700
H 	H 	0.93523 0.47629 0.83591 0.02700
H 	H 	0.92592 0.45813 0.90537 0.00300
H 	H 	0.88839 0.44181 0.78628 0.05800
H 	H 	0.86864 0.46378 0.84726 0.05400
H 	H 	0.87889 0.42167 0.85575 0.07400
C 	C 	0.92279 0.42172 0.31499 0.01300
C 	C 	0.88792 0.41204 0.29383 -0.01000
C 	C 	0.88421 0.40235 0.23467 -0.00000
C 	C 	0.91491 0.40161 0.19708 -0.10700
C 	C 	0.95044 0.40747 0.22039 0.05100
C 	C 	0.95408 0.41713 0.27959 -0.07900
H 	H 	0.85713 0.39679 0.21719 0.03400
H 	H 	0.98108 0.42307 0.29697 0.04700
C 	C 	0.85419 0.41321 0.33317 -0.05200
C 	C 	0.98470 0.40295 0.18296 -0.06600
C 	C 	0.83296 0.44452 0.32453 -0.14300
H 	H 	0.86185 0.41049 0.38056 0.04000
H 	H 	0.83568 0.39274 0.32257 0.03600
H 	H 	0.85035 0.46545 0.33644 0.05600
H 	H 	0.80823 0.44448 0.35345 0.05100
H 	H 	0.82383 0.44701 0.27779 0.05300
C 	C 	0.99732 0.36800 0.18417 -0.14100
H 	H 	0.00745 0.41828 0.19986 0.03000
H 	H 	0.97998 0.41062 0.13644 0.01600
H 	H 	0.00393 0.36050 0.23020 0.05600
H 	H 	0.02245 0.36532 0.15661 0.05200
H 	H 	0.97557 0.35201 0.16618 0.07100
C 	C 	0.03675 0.71142 0.03622 -0.06200
C 	C 	0.01249 0.72358 0.07899 -0.01300
C 	C 	0.00913 0.75661 0.08725 -0.03900
C 	C 	0.02999 0.77806 0.05309 -0.03200
C 	C 	0.05439 0.76608 0.00937 0.06900
C 	C 	0.05758 0.73271 0.00141 -0.06800
H 	H 	0.99048 0.76561 0.12080 0.03600
H 	H 	0.07605 0.72342 0.96786 0.06900
H 	H 	0.99650 0.70741 0.10641 0.03400
N 	N 	0.07463 0.78634 0.97497 -0.18800
H 	H 	0.07250 0.81123 0.97907 0.09200
H 	H 	0.09271 0.77724 0.94315 0.08500
C 	C 	0.07040 0.58737 0.86571 -0.11300
C 	C 	0.10396 0.58942 0.83379 0.07100
C 	C 	0.10880 0.57058 0.78292 -0.08400
C 	C 	0.08046 0.55070 0.76236 0.01700
C 	C 	0.04576 0.55079 0.79146 -0.01300
C 	C 	0.04132 0.56895 0.84316 0.00000
H 	H 	0.13488 0.57124 0.75951 0.05000
H 	H 	0.01517 0.56840 0.86639 0.00800
C 	C 	0.13447 0.61219 0.85217 -0.07600
C 	C 	0.01243 0.53364 0.76596 -0.05100
C 	C 	0.16559 0.59436 0.88384 -0.13700
H 	H 	0.12416 0.63190 0.88070 0.05200
H 	H 	0.14600 0.62406 0.81208 0.04200
H 	H 	0.15531 0.58209 0.92426 0.07700
H 	H 	0.18727 0.61174 0.89695 0.05800
H 	H 	0.17818 0.57627 0.85401 0.05700
C 	C 	0.98946 0.55634 0.72775 -0.14300
H 	H 	0.99485 0.52452 0.80266 0.02700
H 	H 	0.01976 0.51223 0.73967 0.04100
H 	H 	0.97862 0.57643 0.75490 0.05100
H 	H 	0.96578 0.54304 0.70864 0.05200
H 	H 	0.00621 0.56631 0.69093 0.06000
C 	C 	0.03585 0.59369 0.18614 -0.11700
C 	C 	0.01604 0.61448 0.22399 0.07200
C 	C 	0.00589 0.60379 0.28066 -0.08800
C 	C 	0.01458 0.57267 0.29970 0.01600
C 	C 	0.03567 0.55227 0.26260 -0.01500
C 	C 	0.04626 0.56317 0.20625 0.00200
H 	H 	0.98961 0.61925 0.30901 0.04900
H 	H 	0.06235 0.54767 0.17769 0.02900
C 	C 	0.00243 0.64690 0.20260 -0.09700
C 	C 	0.04883 0.51954 0.28339 -0.04900
C 	C 	0.96507 0.64377 0.17212 -0.11100
H 	H 	0.02245 0.65840 0.17206 0.06100
H 	H 	0.99955 0.66356 0.24070 0.04600
H 	H 	0.96721 0.62811 0.13257 0.01800
H 	H 	0.95534 0.66782 0.15775 0.04000
H 	H 	0.94443 0.63347 0.20315 0.04000
C 	C 	0.08749 0.52164 0.30967 -0.14500
H 	H 	0.04949 0.50272 0.24527 0.03000
H 	H 	0.02999 0.50843 0.31617 0.04000
H 	H 	0.10747 0.52973 0.27548 0.05600
H 	H 	0.09607 0.49759 0.32594 0.05400
H 	H 	0.08810 0.53867 0.34736 0.06100
C 	C 	0.77472 0.92070 0.97539 0.08600
C 	C 	0.75848 0.89105 0.98859 -0.08100
C 	C 	0.72573 0.88199 0.96083 0.04200
C 	C 	0.70869 0.90263 0.91983 -0.14400
C 	C 	0.72661 0.93146 0.90292 0.15400
C 	C 	0.75920 0.94057 0.93190 -0.13600
H 	H 	0.71265 0.85960 0.97336 0.02900
H 	H 	0.77242 0.96313 0.92067 0.06900
H 	H 	0.77063 0.87545 0.02173 0.03600
N 	N 	0.71312 0.95004 0.85829 -0.20800
H 	H 	0.69122 0.94230 0.83199 0.09700
H 	H 	0.72566 0.97191 0.84769 0.08700
C 	C 	0.52075 0.92128 0.64047 0.01400
C 	C 	0.53752 0.94246 0.68151 -0.01000
C 	C 	0.55013 0.93034 0.73588 -0.00600
C 	C 	0.54671 0.89765 0.74954 -0.11500
C 	C 	0.53356 0.87607 0.70612 0.06800
C 	C 	0.52046 0.88821 0.65199 -0.08600
H 	H 	0.56189 0.94657 0.76823 0.02700
H 	H 	0.50943 0.87191 0.61911 0.04800
C 	C 	0.54307 0.97782 0.66769 -0.05600
C 	C 	0.53621 0.84003 0.71491 -0.08200
C 	C 	0.51613 0.99884 0.70213 -0.13900
H 	H 	0.54057 0.98328 0.61982 0.04400
H 	H 	0.57161 0.98475 0.68022 0.03800
H 	H 	0.48726 0.99330 0.68987 0.05100
H 	H 	0.52160 0.02444 0.69171 0.04900
H 	H 	0.51964 0.99529 0.75055 0.04400
C 	C 	0.57553 0.82821 0.70500 -0.13100
H 	H 	0.51773 0.82739 0.68338 0.04000
H 	H 	0.52682 0.83284 0.75974 0.05600
H 	H 	0.58494 0.83449 0.65961 0.05500
H 	H 	0.57646 0.80170 0.71017 0.05300
H 	H 	0.59459 0.83903 0.73784 0.06500
C 	C 	0.57744 0.95560 0.17455 0.01400
C 	C 	0.54330 0.94966 0.14600 -0.01100
C 	C 	0.54273 0.93151 0.09379 -0.00500
C 	C 	0.57556 0.92084 0.06745 -0.10500
C 	C 	0.60966 0.92622 0.09696 0.06500
C 	C 	0.60987 0.94266 0.15117 -0.08300
H 	H 	0.51659 0.92671 0.07231 0.00900
H 	H 	0.63576 0.94657 0.17404 0.04900
C 	C 	0.50732 0.96344 0.16904 -0.05500
C 	C 	0.64603 0.91446 0.07221 -0.08000
C 	C 	0.49573 0.99317 0.13388 -0.13700
H 	H 	0.50846 0.96953 0.21665 0.04300
H 	H 	0.48529 0.94502 0.16494 0.02900
H 	H 	0.51762 0.01173 0.13470 0.05300
H 	H 	0.47036 0.00353 0.15359 0.04700
H 	H 	0.48986 0.98670 0.08715 0.03700
C 	C 	0.65499 0.88074 0.09465 -0.13100
H 	H 	0.66862 0.93081 0.08621 0.04200
H 	H 	0.64653 0.91522 0.02338 0.05600
H 	H 	0.65790 0.88082 0.14361 0.05200
H 	H 	0.68140 0.87256 0.07508 0.04800
H 	H 	0.63303 0.86348 0.08220 0.06300
C 	C 	0.28962 0.07743 0.96113 -0.03800
C 	C 	0.27344 0.09473 0.00763 -0.04300
C 	C 	0.23829 0.08675 0.02787 -0.01900
C 	C 	0.21874 0.06136 0.00213 -0.06800
C 	C 	0.23426 0.04445 0.95379 0.10600
C 	C 	0.26970 0.05266 0.93376 -0.06700
H 	H 	0.22653 0.09984 0.06469 0.03000
H 	H 	0.28179 0.03958 0.89721 0.04800
H 	H 	0.28840 0.11398 0.02902 0.04300
N 	N 	0.21545 0.02036 0.92668 -0.20100
H 	H 	0.18877 0.01410 0.93957 0.09100
H 	H 	0.22734 0.00780 0.89155 0.07900
C 	C 	0.41115 0.06804 0.63528 0.01500
C 	C 	0.44100 0.08074 0.66825 -0.01300
C 	C 	0.43452 0.09299 0.72511 0.00100
C 	C 	0.39955 0.09074 0.75110 -0.11300
C 	C 	0.36923 0.08049 0.71639 0.06900
C 	C 	0.37535 0.07011 0.65812 -0.08600
H 	H 	0.45732 0.10254 0.75063 0.03500
H 	H 	0.35246 0.06097 0.63229 0.04900
C 	C 	0.47966 0.08229 0.64305 -0.04900
C 	C 	0.33093 0.07715 0.74242 -0.09200
C 	C 	0.48593 0.11380 0.60985 -0.14500
H 	H 	0.48577 0.06166 0.61374 0.03900
H 	H 	0.50014 0.08076 0.67955 0.03200
H 	H 	0.46526 0.11699 0.57410 0.06100
H 	H 	0.51384 0.11374 0.58972 0.05500
H 	H 	0.48398 0.13439 0.64084 0.05900
C 	C 	0.32492 0.04348 0.76746 -0.11900
H 	H 	0.31000 0.08160 0.70738 0.04600
H 	H 	0.32544 0.09528 0.77708 0.06500
H 	H 	0.32681 0.02535 0.73160 0.04400
H 	H 	0.29710 0.04194 0.78766 0.04800
H 	H 	0.34582 0.03784 0.80183 0.03700
C 	C 	0.47877 0.10302 0.18236 0.01300
C 	C 	0.49122 0.12216 0.13452 -0.01100
C 	C 	0.47096 0.12262 0.08158 -0.00700
C 	C 	0.43751 0.10591 0.07718 -0.10900
C 	C 	0.42182 0.09210 0.12877 0.06400
C 	C 	0.44347 0.08925 0.17997 -0.08400
H 	H 	0.48153 0.13566 0.04359 0.03100
H 	H 	0.43299 0.07594 0.21766 0.04900
C 	C 	0.52463 0.14375 0.14053 -0.05300
C 	C 	0.38118 0.08347 0.13181 -0.07900
C 	C 	0.55708 0.13168 0.10371 -0.14200
H 	H 	0.53348 0.14626 0.18736 0.03900
H 	H 	0.51725 0.16830 0.12510 0.03400
H 	H 	0.56534 0.10720 0.11778 0.05200
H 	H 	0.58098 0.14798 0.10983 0.04900
H 	H 	0.54989 0.13134 0.05593 0.04900
C 	C 	0.35682 0.11332 0.12843 -0.13100
H 	H 	0.37490 0.07087 0.17410 0.03800
H 	H 	0.37337 0.06641 0.09648 0.04900
H 	H 	0.36400 0.13029 0.16449 0.05400
H 	H 	0.32749 0.10623 0.13350 0.05000
H 	H 	0.36003 0.12561 0.08507 0.06000
C 	C 	0.43740 0.28839 0.89945 0.06000
C 	C 	0.40207 0.27961 0.88029 -0.09100
C 	C 	0.39175 0.24736 0.87889 0.04700
C 	C 	0.41626 0.22342 0.89778 -0.14200
C 	C 	0.45136 0.23222 0.92021 0.15300
C 	C 	0.46221 0.26461 0.91825 -0.12700
H 	H 	0.36461 0.24092 0.86285 0.02400
H 	H 	0.48947 0.27139 0.93335 0.06300
H 	H 	0.38253 0.29784 0.86656 0.05400
N 	N 	0.47375 0.21019 0.94650 -0.20800
H 	H 	0.46415 0.18742 0.95816 0.10500
H 	H 	0.50038 0.21655 0.95965 0.08700
C 	C 	0.26793 0.57479 0.03712 0.07800
C 	C 	0.25407 0.60223 0.00898 -0.12900
C 	C 	0.21938 0.61412 0.02405 0.05500
C 	C 	0.19793 0.59856 0.06730 -0.15200
C 	C 	0.21327 0.57252 0.09955 0.15300
C 	C 	0.24785 0.56026 0.08292 -0.14000
H 	H 	0.20844 0.63457 0.00010 0.01600
H 	H 	0.25915 0.53955 0.10577 0.06300
H 	H 	0.26972 0.61376 0.97404 0.07100
N 	N 	0.19553 0.55990 0.14728 -0.20900
H 	H 	0.17225 0.57097 0.16513 0.09500
H 	H 	0.20618 0.53978 0.16910 0.08200
C 	C 	0.80334 0.42122 0.98628 -0.08300
C 	C 	0.79210 0.45332 0.99042 0.02500
C 	C 	0.75578 0.46189 0.97787 -0.05400
C 	C 	0.73018 0.43858 0.96026 -0.02000
C 	C 	0.74133 0.40601 0.95566 0.07300
C 	C 	0.77786 0.39757 0.96966 -0.03400
H 	H 	0.74749 0.48679 0.98154 0.04200
H 	H 	0.78663 0.37277 0.96610 0.05100
H 	H 	0.81154 0.47168 0.00367 -0.00400
N 	N 	0.71749 0.38298 0.93686 -0.19400
H 	H 	0.69075 0.38862 0.92341 0.08700
H 	H 	0.72586 0.35901 0.93448 0.08500
C 	C 	0.54586 0.78851 0.94881 -0.06800
C 	C 	0.57518 0.76702 0.95634 -0.00200
C 	C 	0.56878 0.73399 0.95691 -0.03900
C 	C 	0.53303 0.72194 0.94914 -0.02600
C 	C 	0.50300 0.74355 0.94359 0.07400
C 	C 	0.50975 0.77680 0.94409 -0.04400
H 	H 	0.59183 0.71764 0.96163 0.04100
H 	H 	0.48705 0.79347 0.93853 0.03200
H 	H 	0.60310 0.77592 0.96067 0.03600
N 	N 	0.46792 0.73264 0.93672 -0.19500
H 	H 	0.46193 0.70814 0.93562 0.08600
H 	H 	0.44605 0.74880 0.93240 0.07800
