data_crystal

_cell_length_a 40.59913
_cell_length_b 46.78847
_cell_length_c 22.35196
_cell_angle_alpha 89.84408
_cell_angle_beta  90.00015
_cell_angle_gamma 89.99976

_symmetry_space_group_name_	'P 1'
_symmetry_space_group_name_H-M	'P 1'

loop_
_symmetry_equiv_pos_as_xyz
  x,y,z

loop_
_atom_site_label
_atom_site_type_symbol
_atom_site_fract_x
_atom_site_fract_y
_atom_site_fract_z
_atom_site_charge
C 	C 	0.49232 0.55671 0.90324 0.10000
N 	N 	0.47767 0.53178 0.91742 -0.17300
C 	C 	0.44629 0.53382 0.89838 0.09800
C 	C 	0.42011 0.51365 0.91743 -0.07300
C 	C 	0.42822 0.48321 0.92758 0.08600
C 	C 	0.38560 0.52342 0.92278 0.03300
C 	C 	0.37685 0.54327 0.96692 -0.04200
C 	C 	0.34401 0.55176 0.97325 -0.07100
C 	C 	0.31965 0.54029 0.93578 0.01300
C 	C 	0.36135 0.51227 0.88472 -0.05000
N 	N 	0.45406 0.47001 0.90171 -0.12700
C 	C 	0.41135 0.46498 0.96549 -0.06300
C 	C 	0.45315 0.44296 0.92265 0.08800
C 	C 	0.47950 0.42182 0.91132 -0.07300
C 	C 	0.47231 0.39102 0.91733 0.03400
C 	C 	0.44210 0.34910 0.88501 -0.03600
C 	C 	0.48522 0.37546 0.96560 -0.04000
C 	C 	0.47617 0.34691 0.97418 -0.06900
C 	C 	0.45414 0.33372 0.93446 0.01300
N 	N 	0.52685 0.45546 0.91207 -0.17200
C 	C 	0.55872 0.45410 0.89561 0.10000
C 	C 	0.56484 0.42921 0.86400 -0.06200
C 	C 	0.53518 0.41469 0.86144 -0.06200
C 	C 	0.58424 0.47397 0.91863 -0.07500
C 	C 	0.61955 0.46609 0.91666 0.04400
C 	C 	0.67531 0.47618 0.88369 -0.02700
C 	C 	0.68691 0.45228 0.91560 -0.00600
C 	C 	0.66461 0.43552 0.94856 -0.02200
C 	C 	0.63113 0.44255 0.94949 -0.06100
N 	N 	0.54996 0.51781 0.91134 -0.12800
C 	C 	0.57561 0.54568 0.97893 -0.06400
C 	C 	0.55095 0.54396 0.93639 0.08900
C 	C 	0.52469 0.56549 0.92788 -0.08100
C 	C 	0.53182 0.59600 0.93854 0.05000
C 	C 	0.55412 0.61059 0.90157 -0.05900
C 	C 	0.55979 0.63977 0.90992 -0.02900
C 	C 	0.54338 0.65452 0.95562 0.01100
C 	C 	0.52144 0.63980 0.99324 -0.06000
C 	C 	0.51568 0.61064 0.98469 -0.08400
C 	C 	0.47025 0.57490 0.87505 -0.06400
C 	C 	0.44073 0.56022 0.87193 -0.06100
C 	C 	0.32852 0.52070 0.89111 -0.03600
C 	C 	0.42743 0.43915 0.96245 -0.06200
C 	C 	0.51246 0.43154 0.89136 0.10000
C 	C 	0.59096 0.51944 0.97934 -0.06300
C 	C 	0.57451 0.50301 0.93759 0.08800
C 	C 	0.64176 0.48280 0.88360 -0.05800
H 	H 	0.48556 0.51816 0.95169 0.09300
H 	H 	0.51803 0.46747 0.94804 0.09400
H 	H 	0.57672 0.65096 0.88061 0.04400
H 	H 	0.50841 0.65106 0.02830 0.06800
H 	H 	0.56670 0.59940 0.86586 0.04900
H 	H 	0.49842 0.59950 0.01344 0.07700
H 	H 	0.33745 0.56697 0.00772 0.08200
H 	H 	0.36795 0.49704 0.85034 0.04800
H 	H 	0.31000 0.51206 0.86131 0.04200
H 	H 	0.39544 0.55195 0.99651 0.03700
H 	H 	0.48581 0.33520 0.01222 0.08300
H 	H 	0.50176 0.38563 0.99706 0.03800
C 	C 	0.45100 0.37768 0.87675 -0.05000
H 	H 	0.42577 0.33894 0.85318 0.04300
H 	H 	0.69232 0.48984 0.85962 0.03600
H 	H 	0.63307 0.50113 0.85844 0.04900
H 	H 	0.61420 0.42972 0.97567 0.04500
H 	H 	0.67322 0.41710 0.97353 0.04300
H 	H 	0.47261 0.59791 0.87249 0.05100
H 	H 	0.41685 0.57018 0.86652 0.05000
H 	H 	0.38718 0.46859 0.98442 0.04700
H 	H 	0.41844 0.41895 0.97962 0.04700
H 	H 	0.58879 0.41953 0.85771 0.05000
H 	H 	0.53276 0.39196 0.85373 0.05100
H 	H 	0.58508 0.56509 0.99875 0.04500
H 	H 	0.61515 0.51506 0.99754 0.04600
H 	H 	0.44110 0.38954 0.83913 0.04800
Co	Co	0.40551 0.11872 0.95820 1.17600
Co	Co	0.41145 0.05126 0.94825 1.08600
O 	O 	0.39910 0.16138 0.97077 -0.36300
O 	O 	0.44907 0.14904 0.98412 -0.32200
O 	O 	0.36193 0.10342 0.93543 -0.40900
O 	O 	0.40493 0.06980 0.86922 -0.46100
C 	C 	0.34842 0.08209 0.96508 0.30600
C 	C 	0.42824 0.16984 0.98482 0.28300
O 	O 	0.36644 0.06056 0.98426 -0.44600
O 	O 	0.42856 0.11337 0.88322 -0.42800
C 	C 	0.42455 0.09028 0.85074 0.30100
O 	O 	0.40618 0.10477 0.03925 -0.41100
O 	O 	0.43978 0.06893 0.00994 -0.46400
C 	C 	0.42617 0.08379 0.05306 0.31500
C 	C 	0.50661 0.01683 0.50591 0.01100
C 	C 	0.52171 0.98945 0.50878 0.01100
C 	C 	0.48402 0.02302 0.46007 -0.05500
C 	C 	0.47538 0.00192 0.41836 0.01200
C 	C 	0.51398 0.96864 0.46564 -0.05400
C 	C 	0.49054 0.97456 0.42099 0.01100
H 	H 	0.52570 0.94786 0.46742 0.05100
H 	H 	0.47277 0.04398 0.45750 0.05200
C 	C 	0.48033 0.95331 0.38024 -0.01400
C 	C 	0.45709 0.95912 0.33534 0.00700
C 	C 	0.45907 0.93987 0.28620 -0.05000
C 	C 	0.48413 0.91955 0.29250 -0.00900
S 	S 	0.50367 0.92622 0.35673 -0.00100
H 	H 	0.44560 0.94266 0.24487 0.04100
C 	C 	0.45070 0.00697 0.37514 -0.01500
C 	C 	0.44237 0.98627 0.33244 0.00700
C 	C 	0.42819 0.99820 0.27963 -0.04900
C 	C 	0.42596 0.02807 0.28111 -0.01000
S 	S 	0.44203 0.03890 0.34579 0.00200
H 	H 	0.42383 0.98613 0.23922 0.04100
C 	C 	0.53404 0.03022 0.59963 0.00700
C 	C 	0.51423 0.03726 0.55022 -0.01300
S 	S 	0.48865 0.06311 0.57191 -0.00100
C 	C 	0.50199 0.06719 0.64193 -0.00800
C 	C 	0.52724 0.04726 0.65106 -0.05000
C 	C 	0.54420 0.98369 0.55551 -0.01300
C 	C 	0.54952 0.00335 0.60185 0.00600
C 	C 	0.56153 0.99035 0.65534 -0.04900
C 	C 	0.56494 0.96065 0.65091 -0.00900
S 	S 	0.55249 0.95122 0.58260 -0.00400
H 	H 	0.56388 0.00148 0.69744 0.04200
H 	H 	0.53690 0.04262 0.69510 0.04100
Co	Co	0.57897 0.87373 0.97102 1.17300
Co	Co	0.50292 0.87223 0.95074 1.08400
O 	O 	0.62901 0.87450 0.97543 -0.37000
O 	O 	0.60896 0.91641 0.96598 -0.32800
O 	O 	0.56590 0.83327 0.97935 -0.40900
O 	O 	0.51392 0.86337 0.03548 -0.44300
C 	C 	0.54536 0.82121 0.94146 0.29600
C 	C 	0.63541 0.90130 0.96990 0.29000
O 	O 	0.52335 0.83670 0.91282 -0.43700
O 	O 	0.56188 0.88814 0.04591 -0.41300
C 	C 	0.53328 0.87989 0.06735 0.30000
O 	O 	0.57190 0.87789 0.88638 -0.43400
O 	O 	0.52489 0.90256 0.90326 -0.49000
C 	C 	0.54955 0.89604 0.86787 0.31500
Co	Co	0.08585 0.63104 0.96820 1.17200
Co	Co	0.00969 0.62659 0.98719 1.07900
O 	O 	0.13554 0.63586 0.96482 -0.38000
O 	O 	0.12195 0.59211 0.97652 -0.31700
O 	O 	0.06771 0.66977 0.95637 -0.40300
O 	O 	0.02055 0.63467 0.90206 -0.46700
C 	C 	0.04642 0.68093 0.99408 0.22100
C 	C 	0.14585 0.61011 0.97208 0.28300
O 	O 	0.02534 0.66447 0.02264 -0.38000
O 	O 	0.07105 0.61375 0.89436 -0.43400
C 	C 	0.04171 0.61903 0.87206 0.29800
O 	O 	0.07868 0.62763 0.05299 -0.41600
O 	O 	0.03456 0.59904 0.03733 -0.46700
C 	C 	0.05829 0.60802 0.07247 0.31200
C 	C 	0.01020 0.52074 0.51629 0.01000
C 	C 	0.99732 0.49248 0.51671 0.01300
C 	C 	0.03318 0.52886 0.47235 -0.05400
C 	C 	0.04262 0.50936 0.42769 0.01100
C 	C 	0.00807 0.47260 0.47402 -0.05600
C 	C 	0.03010 0.48098 0.42875 0.01200
H 	H 	0.99880 0.45090 0.47523 0.05200
H 	H 	0.04310 0.55035 0.47217 0.05100
C 	C 	0.03942 0.46186 0.38295 -0.01400
C 	C 	0.05819 0.47108 0.33375 0.00900
C 	C 	0.05261 0.45450 0.28117 -0.04900
C 	C 	0.02926 0.43278 0.28916 -0.00700
S 	S 	0.01619 0.43468 0.35974 -0.00000
H 	H 	0.06147 0.46057 0.23733 0.04500
C 	C 	0.06418 0.51746 0.38102 -0.01300
C 	C 	0.07104 0.49900 0.33320 0.00800
C 	C 	0.08136 0.51367 0.28042 -0.04900
C 	C 	0.08186 0.54343 0.28683 -0.00700
S 	S 	0.06906 0.55083 0.35603 -0.00200
H 	H 	0.08453 0.50342 0.23752 0.04600
C 	C 	0.97491 0.53276 0.60192 0.00600
C 	C 	0.99798 0.54066 0.55814 -0.01300
S 	S 	0.01877 0.56881 0.58397 -0.00300
C 	C 	0.99815 0.57329 0.64790 -0.01000
C 	C 	0.97495 0.55125 0.65245 -0.05000
C 	C 	0.97246 0.48542 0.55838 -0.01500
C 	C 	0.96206 0.50488 0.60204 0.00700
C 	C 	0.94739 0.49141 0.65270 -0.05000
C 	C 	0.94673 0.46154 0.64846 -0.01000
S 	S 	0.96500 0.45260 0.58432 -0.00000
H 	H 	0.94146 0.50251 0.69369 0.03800
H 	H 	0.96159 0.54691 0.69331 0.03800
Co	Co	0.92634 0.37900 0.98043 1.17100
Co	Co	0.93894 0.44582 0.97798 1.08400
O 	O 	0.91490 0.33680 0.97567 -0.36700
O 	O 	0.96541 0.34423 0.95490 -0.32000
O 	O 	0.88548 0.39811 0.00679 -0.37500
O 	O 	0.93380 0.43095 0.06069 -0.44700
C 	C 	0.87274 0.41967 0.97672 0.27000
C 	C 	0.94236 0.32539 0.95989 0.28500
O 	O 	0.89190 0.43821 0.94936 -0.42600
O 	O 	0.95292 0.38541 0.05109 -0.41000
C 	C 	0.95180 0.40965 0.08061 0.30000
O 	O 	0.92519 0.39008 0.89741 -0.42800
O 	O 	0.96341 0.42384 0.91700 -0.48900
C 	C 	0.94697 0.40856 0.87804 0.31600
C 	C 	0.97977 0.94473 0.12493 0.10000
N 	N 	0.96430 0.96838 0.10515 -0.17300
C 	C 	0.93404 0.96819 0.12976 0.10300
C 	C 	0.90632 0.98455 0.10382 -0.07700
C 	C 	0.91032 0.01537 0.09101 0.09600
C 	C 	0.87473 0.97016 0.09037 0.04600
C 	C 	0.87394 0.94683 0.05108 -0.05700
C 	C 	0.84394 0.93380 0.03695 -0.02500
C 	C 	0.81451 0.94394 0.06220 -0.00300
C 	C 	0.84538 0.98016 0.11592 -0.05700
N 	N 	0.93555 0.03084 0.11307 -0.12500
C 	C 	0.89581 0.02914 0.04287 -0.07800
C 	C 	0.93651 0.05486 0.07974 0.06900
C 	C 	0.96506 0.07441 0.07943 -0.04900
C 	C 	0.96013 0.10484 0.06401 -0.00200
C 	C 	0.93352 0.15032 0.08323 -0.06300
C 	C 	0.97574 0.11666 0.01373 0.05400
C 	C 	0.96997 0.14516 0.99782 -0.13500
C 	C 	0.94849 0.16202 0.03208 0.07000
N 	N 	0.01088 0.03932 0.08146 -0.17000
C 	C 	0.04338 0.04083 0.09310 0.09600
C 	C 	0.05107 0.06675 0.11952 -0.05700
C 	C 	0.02183 0.08169 0.12394 -0.05800
C 	C 	0.06778 0.02177 0.06424 -0.04900
C 	C 	0.10019 0.03302 0.04518 -0.00800
C 	C 	0.15982 0.03224 0.05210 -0.07400
C 	C 	0.16188 0.05356 0.00797 0.10900
C 	C 	0.13289 0.06477 0.98286 -0.15500
C 	C 	0.10215 0.05443 0.00124 0.06300
N 	N 	0.04093 0.97713 0.09926 -0.12400
C 	C 	0.05274 0.94837 0.02151 -0.03400
C 	C 	0.03604 0.95109 0.07516 0.08100
C 	C 	0.00848 0.93238 0.09342 -0.07000
C 	C 	0.01005 0.90133 0.08133 0.04400
C 	C 	0.03653 0.88508 0.10305 -0.05500
C 	C 	0.03771 0.85565 0.09269 -0.02100
C 	C 	0.01232 0.84221 0.06081 -0.00200
C 	C 	0.98604 0.85854 0.03837 -0.02500
C 	C 	0.98494 0.88799 0.04852 -0.05500
C 	C 	0.95938 0.92934 0.16290 -0.06200
C 	C 	0.93012 0.94433 0.16593 -0.06300
C 	C 	0.81539 0.96715 0.10181 -0.02000
C 	C 	0.91261 0.05449 0.03572 -0.01100
C 	C 	0.99767 0.06417 0.10006 0.09700
C 	C 	0.06913 0.97382 0.01277 -0.02900
C 	C 	0.06152 0.99071 0.06144 0.07400
C 	C 	0.12914 0.02204 0.07063 -0.01200
H 	H 	0.97018 0.97893 0.06527 0.09500
H 	H 	0.00047 0.02622 0.04870 0.09500
H 	H 	0.05814 0.84325 0.11005 0.04700
H 	H 	0.96655 0.84842 0.01295 0.04200
H 	H 	0.05603 0.89520 0.12842 0.05100
H 	H 	0.96455 0.90043 0.03109 0.04800
H 	H 	0.84352 0.91614 0.00572 0.04300
H 	H 	0.84579 0.99807 0.14653 0.05200
H 	H 	0.79284 0.97512 0.12160 0.04800
H 	H 	0.89649 0.93903 0.03099 0.04800
H 	H 	0.98182 0.15402 0.95849 0.06500
H 	H 	0.99205 0.10369 0.98668 -0.00100
C 	C 	0.93918 0.12182 0.09889 -0.01900
H 	H 	0.91753 0.16331 0.11084 0.05300
H 	H 	0.18201 0.02343 0.07174 0.06300
H 	H 	0.12785 0.00562 0.10481 0.04100
H 	H 	0.07991 0.06304 0.98139 -0.00400
H 	H 	0.13416 0.08152 0.94939 0.06600
H 	H 	0.96176 0.90673 0.17229 0.05000
H 	H 	0.90663 0.93491 0.17771 0.05100
H 	H 	0.88232 0.01850 0.00758 0.06100
H 	H 	0.91393 0.06638 0.99416 0.01300
H 	H 	0.07524 0.07651 0.11952 0.05400
H 	H 	0.02013 0.10471 0.12761 0.05500
H 	H 	0.04584 0.93389 0.98594 0.01900
H 	H 	0.07695 0.98186 0.96959 0.01900
H 	H 	0.92730 0.11292 0.13814 0.04300
C 	C 	0.92920 0.24820 0.98778 0.09200
C 	C 	0.96169 0.23792 0.98991 0.06600
N 	N 	0.96741 0.21003 0.00335 -0.08800
C 	C 	0.94187 0.19191 0.01466 0.02700
C 	C 	0.90934 0.20209 0.01081 0.04200
N 	N 	0.90368 0.23006 0.99778 -0.12700
N 	N 	0.92353 0.27634 0.97704 -0.09300
N 	N 	0.98719 0.25610 0.97991 -0.11300
H 	H 	0.88874 0.18783 0.01839 0.03800
C 	C 	0.94905 0.29473 0.96799 -0.02800
C 	C 	0.98154 0.28428 0.96869 0.03800
H 	H 	0.00215 0.29852 0.96119 0.04000
C 	C 	0.97747 0.43899 0.73237 -0.07200
C 	C 	0.94771 0.44311 0.70165 0.03600
C 	C 	0.91833 0.43238 0.72575 -0.07100
C 	C 	0.91840 0.41904 0.78180 0.02200
C 	C 	0.94786 0.41659 0.81438 -0.10500
C 	C 	0.97755 0.42577 0.78849 0.02000
H 	H 	0.00032 0.44710 0.71390 0.04900
H 	H 	0.89527 0.43537 0.70214 0.05300
H 	H 	0.89532 0.41200 0.80122 0.04200
H 	H 	0.00049 0.42365 0.81286 0.02800
C 	C 	0.01871 0.40426 0.19741 -0.06700
C 	C 	0.00744 0.42382 0.24017 0.03500
C 	C 	0.97662 0.43695 0.23264 -0.06800
C 	C 	0.95770 0.43123 0.18191 0.01700
C 	C 	0.96952 0.41252 0.13785 -0.09500
C 	C 	0.99977 0.39851 0.14655 0.01900
H 	H 	0.04250 0.39409 0.20277 0.05500
H 	H 	0.96782 0.45231 0.26512 0.05000
H 	H 	0.93419 0.44185 0.17621 0.03500
H 	H 	0.00917 0.38401 0.11293 0.04200
C 	C 	0.04231 0.77038 0.01718 0.11700
C 	C 	0.01610 0.75289 0.03578 0.08700
N 	N 	0.01798 0.72415 0.02813 -0.10300
C 	C 	0.04496 0.71212 0.00219 0.04200
C 	C 	0.07118 0.72969 0.98359 -0.01000
N 	N 	0.06931 0.75846 0.99154 -0.12700
N 	N 	0.04053 0.79910 0.02518 -0.11500
N 	N 	0.98908 0.76480 0.06139 -0.10600
H 	H 	0.09297 0.72052 0.96340 0.04800
C 	C 	0.01342 0.81112 0.05072 0.05100
C 	C 	0.98721 0.79358 0.06925 0.00100
H 	H 	0.96569 0.80277 0.09037 0.04000
C 	C 	0.00884 0.62333 0.77786 0.01400
C 	C 	0.03342 0.60927 0.81107 -0.10000
C 	C 	0.04850 0.58474 0.78736 0.01500
C 	C 	0.03806 0.57370 0.73244 -0.07000
C 	C 	0.01256 0.58713 0.70066 0.03300
C 	C 	0.99842 0.61223 0.72303 -0.07100
H 	H 	0.99741 0.64256 0.79496 0.03000
H 	H 	0.06751 0.57368 0.81234 0.03500
H 	H 	0.04902 0.55421 0.71556 0.04900
H 	H 	0.97877 0.62274 0.69867 0.04700
C 	C 	0.03765 0.58277 0.16342 0.02200
C 	C 	0.06423 0.59374 0.13036 -0.09500
C 	C 	0.09653 0.58981 0.15143 0.02700
C 	C 	0.10220 0.57424 0.20396 -0.06700
C 	C 	0.07568 0.56268 0.23603 0.03700
C 	C 	0.04336 0.56731 0.21600 -0.07100
H 	H 	0.01261 0.58592 0.14802 0.01800
H 	H 	0.11727 0.59808 0.12626 0.04700
H 	H 	0.12724 0.57063 0.21897 0.05700
H 	H 	0.02272 0.55831 0.24036 0.04800
C 	C 	0.72271 0.90759 0.01654 0.08600
C 	C 	0.72794 0.93717 0.01141 0.12300
N 	N 	0.75772 0.94840 0.02585 -0.11600
C 	C 	0.78265 0.93123 0.04515 0.05200
C 	C 	0.77738 0.90163 0.05032 0.00200
N 	N 	0.74751 0.89040 0.03583 -0.10000
N 	N 	0.69279 0.89641 0.00276 -0.06700
N 	N 	0.70312 0.95439 0.99248 -0.13600
H 	H 	0.79679 0.88773 0.06641 0.04200
C 	C 	0.66775 0.91367 0.98419 -0.05800
C 	C 	0.67315 0.94325 0.97867 0.04400
H 	H 	0.65363 0.95725 0.96340 0.03400
C 	C 	0.58886 0.93235 0.73451 -0.07100
C 	C 	0.56103 0.94183 0.70310 0.03700
C 	C 	0.52945 0.93534 0.72466 -0.07500
C 	C 	0.52571 0.91994 0.77790 0.02200
C 	C 	0.55355 0.91090 0.81008 -0.10300
C 	C 	0.58517 0.91686 0.78771 0.02600
H 	H 	0.61333 0.93744 0.71833 0.05200
H 	H 	0.50781 0.94274 0.70083 0.04600
H 	H 	0.50120 0.91522 0.79432 0.01100
H 	H 	0.60686 0.91013 0.81222 0.03800
C 	C 	0.52652 0.92107 0.21217 -0.06700
C 	C 	0.50049 0.90669 0.24050 0.03400
C 	C 	0.48714 0.88212 0.21427 -0.06900
C 	C 	0.49877 0.87261 0.15892 0.01600
C 	C 	0.52376 0.88778 0.12900 -0.09300
C 	C 	0.53815 0.91165 0.15673 0.01700
H 	H 	0.53684 0.94020 0.23193 0.05200
H 	H 	0.46705 0.87088 0.23589 0.05000
H 	H 	0.48788 0.85382 0.13879 0.03600
H 	H 	0.55751 0.92353 0.13445 0.04300
C 	C 	0.24887 0.07704 0.01484 0.13100
C 	C 	0.25791 0.07636 0.95416 0.05300
N 	N 	0.29006 0.07961 0.93855 -0.08600
C 	C 	0.31355 0.08334 0.98128 -0.07400
C 	C 	0.30433 0.08476 0.04172 0.08800
N 	N 	0.27216 0.08163 0.05730 -0.12100
N 	N 	0.21738 0.07107 0.03092 -0.09600
N 	N 	0.23487 0.07036 0.91196 -0.10800
H 	H 	0.32278 0.08763 0.07617 0.02900
C 	C 	0.19443 0.06425 0.98890 -0.02900
C 	C 	0.20331 0.06430 0.92808 0.02000
H 	H 	0.18549 0.05858 0.89411 0.02800
C 	C 	0.49092 0.09610 0.73287 -0.07000
C 	C 	0.48001 0.07608 0.69078 0.03500
C 	C 	0.44951 0.06247 0.69898 -0.07100
C 	C 	0.43059 0.06820 0.74974 0.01500
C 	C 	0.44213 0.08735 0.79325 -0.10100
C 	C 	0.47204 0.10181 0.78379 0.01700
H 	H 	0.51445 0.10667 0.72697 0.05100
H 	H 	0.44097 0.04674 0.66705 0.04800
H 	H 	0.40733 0.05722 0.75591 0.03000
H 	H 	0.48126 0.11668 0.81686 0.03700
C 	C 	0.40085 0.07599 0.15355 0.02400
C 	C 	0.42813 0.07337 0.11522 -0.09900
C 	C 	0.45595 0.05807 0.13444 0.01900
C 	C 	0.45578 0.04421 0.18987 -0.07100
C 	C 	0.42779 0.04553 0.22657 0.03700
C 	C 	0.40070 0.06207 0.20898 -0.06900
H 	H 	0.37926 0.08783 0.13945 0.04200
H 	H 	0.47738 0.05630 0.10579 0.03400
H 	H 	0.47703 0.03181 0.20362 0.05100
H 	H 	0.37913 0.06342 0.23739 0.05400
C 	C 	0.42430 0.24822 0.96233 0.08800
C 	C 	0.45774 0.25581 0.96517 0.09300
N 	N 	0.46684 0.28342 0.95623 -0.11700
C 	C 	0.44381 0.30386 0.94460 0.04000
C 	C 	0.41029 0.29630 0.94300 0.00300
N 	N 	0.40124 0.26861 0.95161 -0.10600
N 	N 	0.41527 0.22049 0.96963 -0.09100
N 	N 	0.48078 0.23544 0.97617 -0.11500
H 	H 	0.39159 0.31239 0.93523 0.03700
C 	C 	0.43836 0.19993 0.97980 -0.02700
C 	C 	0.47177 0.20766 0.98378 0.03900
H 	H 	0.49045 0.19166 0.99239 0.03900
C 	C 	0.22030 0.56490 0.95716 0.08500
C 	C 	0.24506 0.58556 0.94938 0.09200
N 	N 	0.27688 0.57723 0.94260 -0.11700
C 	C 	0.28499 0.54898 0.94301 0.03900
C 	C 	0.26019 0.52836 0.95112 0.00100
N 	N 	0.22834 0.53674 0.95797 -0.10900
N 	N 	0.18849 0.57324 0.96408 -0.09500
N 	N 	0.23703 0.61372 0.94878 -0.11600
H 	H 	0.26630 0.50583 0.95238 0.03600
C 	C 	0.18034 0.60148 0.96340 -0.03100
C 	C 	0.20518 0.62212 0.95566 0.03900
H 	H 	0.19920 0.64466 0.95539 0.03900
C 	C 	0.77006 0.43248 0.97126 0.07100
C 	C 	0.78919 0.43528 0.91921 0.08700
N 	N 	0.82223 0.43097 0.92184 -0.09300
C 	C 	0.83690 0.42330 0.97425 -0.06100
C 	C 	0.81763 0.41984 0.02598 0.07900
N 	N 	0.78461 0.42470 0.02354 -0.09800
N 	N 	0.73720 0.43781 0.96910 -0.11700
N 	N 	0.77453 0.44233 0.86662 -0.10900
H 	H 	0.82896 0.41389 0.06806 0.03700
C 	C 	0.72250 0.44549 0.91666 0.04700
C 	C 	0.74153 0.44717 0.86411 -0.00000
H 	H 	0.73011 0.45223 0.82162 0.03800
C 	C 	0.55361 0.74384 0.97339 0.06300
C 	C 	0.54286 0.73181 0.91928 0.09400
N 	N 	0.54014 0.70301 0.91425 -0.11300
C 	C 	0.54747 0.68565 0.96138 0.00900
C 	C 	0.55851 0.69768 0.01531 0.04200
N 	N 	0.56136 0.72656 0.02024 -0.09000
N 	N 	0.55516 0.77271 0.97912 -0.09200
N 	N 	0.53436 0.74908 0.87291 -0.11700
H 	H 	0.56472 0.68413 0.05301 0.03900
C 	C 	0.54601 0.79009 0.93306 -0.03800
C 	C 	0.53568 0.77798 0.87870 0.04100
H 	H 	0.52867 0.79148 0.84140 0.03400
