data_crystal

_cell_length_a 21.85483
_cell_length_b 20.94149
_cell_length_c 47.98036
_cell_angle_alpha 89.93945
_cell_angle_beta  89.93886
_cell_angle_gamma 119.50164

_symmetry_space_group_name_	'P 1'
_symmetry_space_group_name_H-M	'P 1'

loop_
_symmetry_equiv_pos_as_xyz
  x,y,z

loop_
_atom_site_label
_atom_site_type_symbol
_atom_site_fract_x
_atom_site_fract_y
_atom_site_fract_z
_atom_site_charge
C 	C 	0.55246 0.23649 0.88993 0.25800
C 	C 	0.77904 0.52522 0.92323 0.27900
C 	C 	0.75145 0.32230 0.88261 0.27900
C 	C 	0.58716 0.44913 0.93473 0.34900
C 	C 	0.77283 0.34709 0.97632 0.34700
C 	C 	0.57841 0.25460 0.98221 0.32300
Ni	Ni	0.66503 0.39362 0.89638 1.11200
Ni	Ni	0.68365 0.40833 0.96319 1.12000
Ni	Ni	0.66437 0.26321 0.93318 1.12100
O 	O 	0.56754 0.30574 0.88669 -0.36600
O 	O 	0.60066 0.21966 0.89884 -0.36600
O 	O 	0.77322 0.40565 0.96648 -0.40300
O 	O 	0.76688 0.47360 0.90520 -0.37300
O 	O 	0.73901 0.51031 0.94550 -0.37000
O 	O 	0.58233 0.21950 0.95968 -0.39100
O 	O 	0.70447 0.33834 0.87302 -0.37000
O 	O 	0.75228 0.30711 0.90911 -0.37300
O 	O 	0.63098 0.32061 0.98932 -0.39300
O 	O 	0.62489 0.46001 0.91156 -0.38900
O 	O 	0.59792 0.41947 0.95748 -0.39900
O 	O 	0.72791 0.28159 0.96661 -0.39000
O 	O 	0.65420 0.34833 0.93105 -0.71700
H 	H 	0.60291 0.32543 0.93340 0.15800
C 	C 	0.79742 0.46272 0.53713 0.32300
C 	C 	0.62429 0.16150 0.57642 0.37100
C 	C 	0.60225 0.33122 0.52782 0.34600
C 	C 	0.81566 0.27716 0.58671 0.26400
C 	C 	0.57915 0.31218 0.62180 0.28300
C 	C 	0.77320 0.45455 0.62664 0.26000
Ni	Ni	0.71759 0.29949 0.54529 1.11400
Ni	Ni	0.70089 0.29296 0.61260 1.12000
Ni	Ni	0.67818 0.40995 0.57815 1.12100
O 	O 	0.80074 0.40136 0.53375 -0.37700
O 	O 	0.73690 0.46006 0.54338 -0.38700
O 	O 	0.59935 0.26429 0.61597 -0.38700
O 	O 	0.62691 0.20285 0.55530 -0.39200
O 	O 	0.66807 0.19024 0.59742 -0.40000
O 	O 	0.75624 0.47730 0.60352 -0.37900
O 	O 	0.65757 0.32738 0.51937 -0.38000
O 	O 	0.59483 0.34213 0.55428 -0.39300
O 	O 	0.73464 0.38587 0.63600 -0.37500
O 	O 	0.78102 0.25944 0.56251 -0.36200
O 	O 	0.79912 0.30800 0.60743 -0.37700
O 	O 	0.61319 0.37934 0.61164 -0.37800
O 	O 	0.71539 0.34469 0.57874 -0.71700
H 	H 	0.76581 0.37994 0.58087 0.15600
C 	C 	0.99256 0.87403 0.72890 0.26300
C 	C 	0.15936 0.13053 0.80041 0.27900
C 	C 	0.97311 0.90980 0.80410 0.27500
C 	C 	0.17384 0.11624 0.72208 0.25900
C 	C 	0.94305 0.08822 0.78974 0.27700
C 	C 	0.96258 0.07532 0.70900 0.25900
Ni	Ni	0.09391 0.99655 0.76555 1.10800
Ni	Ni	0.06785 0.13428 0.75482 1.12100
Ni	Ni	0.93655 0.97021 0.75446 1.11500
O 	O 	0.05891 0.92639 0.73160 -0.37200
O 	O 	0.93923 0.87870 0.74054 -0.37100
O 	O 	0.01206 0.12827 0.78907 -0.37700
O 	O 	0.11947 0.05919 0.80149 -0.37300
O 	O 	0.15452 0.16778 0.77927 -0.36900
O 	O 	0.92899 0.00424 0.71569 -0.36900
O 	O 	0.02049 0.90679 0.78822 -0.37200
O 	O 	0.93592 0.93935 0.79484 -0.37800
O 	O 	0.99184 0.12665 0.72848 -0.37400
O 	O 	0.17953 0.08083 0.74414 -0.36700
O 	O 	0.13415 0.14821 0.72281 -0.36900
O 	O 	0.90900 0.04231 0.76941 -0.37500
O 	O 	0.03575 0.03158 0.75247 -0.71300
H 	H 	0.04132 0.02743 0.73232 0.15600
C 	C 	0.46941 0.74668 0.38611 0.26200
C 	C 	0.17324 0.51692 0.37892 0.28300
C 	C 	0.30881 0.74480 0.35155 0.27800
C 	C 	0.32140 0.51530 0.42019 0.33900
C 	C 	0.19934 0.70475 0.42847 0.35000
C 	C 	0.35169 0.71104 0.46879 0.32600
Ni	Ni	0.32600 0.61991 0.37356 1.11200
Ni	Ni	0.24200 0.59410 0.43158 1.12200
Ni	Ni	0.34660 0.75742 0.41135 1.12100
O 	O 	0.43360 0.67596 0.37966 -0.37100
O 	O 	0.43747 0.78667 0.38921 -0.36900
O 	O 	0.18362 0.63900 0.42002 -0.40300
O 	O 	0.21992 0.57360 0.36492 -0.37800
O 	O 	0.18405 0.50892 0.40529 -0.37200
O 	O 	0.38930 0.75626 0.44821 -0.39400
O 	O 	0.34246 0.70784 0.34793 -0.36500
O 	O 	0.29497 0.75906 0.37663 -0.37600
O 	O 	0.28405 0.66110 0.46537 -0.39200
O 	O 	0.31247 0.52303 0.39302 -0.38100
O 	O 	0.29476 0.53980 0.43980 -0.39200
O 	O 	0.26544 0.75482 0.43279 -0.39300
O 	O 	0.31855 0.65619 0.40814 -0.71900
H 	H 	0.35774 0.65568 0.41806 0.15900
C 	C 	0.34190 0.73056 0.15970 0.26100
C 	C 	0.24258 0.48071 0.08562 0.28100
C 	C 	0.44842 0.65761 0.12243 0.28200
C 	C 	0.13733 0.54660 0.11675 0.35000
C 	C 	0.37429 0.69072 0.04108 0.35200
C 	C 	0.28742 0.78457 0.07514 0.33300
Ni	Ni	0.29138 0.58594 0.13160 1.11300
Ni	Ni	0.24181 0.62066 0.07222 1.12200
Ni	Ni	0.38506 0.74136 0.09956 1.11900
O 	O 	0.29764 0.65910 0.16199 -0.36300
O 	O 	0.39565 0.75656 0.14190 -0.37100
O 	O 	0.31828 0.62796 0.04727 -0.39800
O 	O 	0.29772 0.52090 0.10085 -0.37600
O 	O 	0.20669 0.51001 0.07478 -0.37100
O 	O 	0.33139 0.79573 0.09606 -0.40200
O 	O 	0.39738 0.62504 0.14072 -0.36400
O 	O 	0.43876 0.68567 0.09958 -0.38100
O 	O 	0.25663 0.72163 0.06078 -0.39000
O 	O 	0.18003 0.52802 0.13015 -0.38500
O 	O 	0.16158 0.60066 0.09812 -0.39800
O 	O 	0.39603 0.74795 0.05762 -0.40100
O 	O 	0.29761 0.65477 0.10492 -0.71500
H 	H 	0.27218 0.67581 0.11481 0.16100
C 	C 	0.02645 0.07630 0.18696 0.26200
C 	C 	0.86498 0.92697 0.28562 0.27700
C 	C 	0.00439 0.13688 0.26208 0.28100
C 	C 	0.86114 0.84581 0.20982 0.26200
C 	C 	0.08050 0.97325 0.29314 0.27500
C 	C 	0.10858 0.93955 0.23254 0.26200
Ni	Ni	0.91415 0.00169 0.23027 1.11300
Ni	Ni	0.96313 0.88987 0.25669 1.11700
Ni	Ni	0.07945 0.05892 0.24340 1.11800
O 	O 	0.95788 0.03252 0.19077 -0.36900
O 	O 	0.06906 0.10976 0.20844 -0.36600
O 	O 	0.01184 0.93681 0.29213 -0.39200
O 	O 	0.87539 0.98402 0.27068 -0.37200
O 	O 	0.87170 0.87357 0.27424 -0.37300
O 	O 	0.11274 0.99991 0.22181 -0.38500
O 	O 	0.96818 0.11294 0.23909 -0.37000
O 	O 	0.04996 0.11605 0.26915 -0.37300
O 	O 	0.04778 0.88381 0.24171 -0.37500
O 	O 	0.84287 0.89316 0.21963 -0.36500
O 	O 	0.90542 0.83118 0.22355 -0.36900
O 	O 	0.11629 0.03331 0.27815 -0.37400
O 	O 	0.98600 0.97909 0.23820 -0.71300
H 	H 	0.99139 0.96295 0.21952 0.15000
C 	C 	0.13002 0.18105 0.13004 0.07700
C 	C 	0.19394 0.24597 0.12524 -0.08200
C 	C 	0.19042 0.30674 0.11522 0.00900
C 	C 	0.12766 0.30295 0.10861 0.07700
C 	C 	0.06384 0.23763 0.11160 -0.08200
C 	C 	0.06601 0.17643 0.12265 0.01200
N 	N 	0.12063 0.13638 0.15178 -0.15200
C 	C 	0.05171 0.10372 0.15863 0.00700
C 	C 	0.01608 0.12677 0.14086 -0.04100
N 	N 	0.13804 0.35849 0.09162 -0.15000
C 	C 	0.20877 0.40025 0.08825 -0.00200
C 	C 	0.24264 0.36670 0.10157 -0.04500
H 	H 	0.24376 0.25010 0.13084 0.05300
H 	H 	0.01435 0.23509 0.10663 0.05400
H 	H 	0.96827 0.12725 0.14650 0.04800
H 	H 	0.29782 0.39354 0.10706 0.05000
H 	H 	0.16050 0.14380 0.16565 0.08700
H 	H 	0.10196 0.37705 0.08889 0.09000
C 	C 	0.59957 0.68962 0.15970 0.08000
C 	C 	0.64089 0.66918 0.17556 -0.08200
C 	C 	0.71425 0.71005 0.17226 0.01200
C 	C 	0.74479 0.76902 0.15369 0.07800
C 	C 	0.70264 0.78680 0.13692 -0.08200
C 	C 	0.62989 0.74732 0.14101 0.01000
N 	N 	0.53271 0.64305 0.15244 -0.15100
C 	C 	0.51944 0.67153 0.12937 -0.00000
C 	C 	0.57987 0.73515 0.12110 -0.04200
N 	N 	0.80796 0.82022 0.16324 -0.15300
C 	C 	0.81805 0.79528 0.18783 0.00800
C 	C 	0.76121 0.72672 0.19397 -0.04300
H 	H 	0.61710 0.62412 0.19027 0.05400
H 	H 	0.72596 0.83203 0.12227 0.05300
H 	H 	0.58157 0.77633 0.10695 0.04300
H 	H 	0.74587 0.70558 0.21497 0.05000
H 	H 	0.49489 0.60284 0.16542 0.09100
H 	H 	0.83175 0.87583 0.15791 0.08500
C 	C 	0.26456 0.80096 0.20456 0.08000
C 	C 	0.23449 0.80756 0.22934 -0.08300
C 	C 	0.23192 0.87253 0.23353 0.01400
C 	C 	0.26060 0.92953 0.21392 0.07500
C 	C 	0.29445 0.92360 0.18991 -0.08100
C 	C 	0.29283 0.85695 0.18529 0.01300
N 	N 	0.29091 0.75568 0.20112 -0.15200
C 	C 	0.33443 0.78099 0.17873 0.00600
C 	C 	0.33948 0.84647 0.16925 -0.04900
N 	N 	0.22411 0.96581 0.21385 -0.15200
C 	C 	0.17184 0.93190 0.23269 0.00300
C 	C 	0.17523 0.87424 0.24546 -0.04400
H 	H 	0.21176 0.76307 0.24432 0.05700
H 	H 	0.31673 0.96730 0.17460 0.05300
H 	H 	0.35785 0.87024 0.14880 0.05000
H 	H 	0.13078 0.82727 0.25493 0.05300
H 	H 	0.26846 0.70249 0.20921 0.09400
H 	H 	0.22196 0.99601 0.19688 0.09000
C 	C 	0.63600 0.85697 0.35674 0.07800
C 	C 	0.69661 0.92243 0.34967 -0.08400
C 	C 	0.75829 0.91921 0.34413 0.01400
C 	C 	0.75890 0.85286 0.34588 0.07600
C 	C 	0.69868 0.78848 0.35462 -0.08200
C 	C 	0.63725 0.79208 0.35911 0.01300
N 	N 	0.58155 0.85343 0.37111 -0.15200
C 	C 	0.54625 0.78485 0.38210 0.00600
C 	C 	0.58203 0.74657 0.37610 -0.04600
N 	N 	0.80486 0.85211 0.32733 -0.15100
C 	C 	0.83318 0.91682 0.31355 0.00500
C 	C 	0.80604 0.96014 0.32360 -0.04700
H 	H 	0.69549 0.97337 0.34770 0.05400
H 	H 	0.69880 0.73695 0.35626 0.05300
H 	H 	0.56040 0.68774 0.37772 0.05200
H 	H 	0.80360 0.00274 0.31162 0.05700
H 	H 	0.56040 0.88801 0.36783 0.09200
H 	H 	0.80166 0.80420 0.31925 0.09000
C 	C 	0.07998 0.34513 0.34705 0.07800
C 	C 	0.03722 0.26893 0.34605 -0.07900
C 	C 	0.99959 0.23817 0.32139 0.00800
C 	C 	0.00391 0.28250 0.29881 0.08100
C 	C 	0.04447 0.35931 0.30066 -0.08400
C 	C 	0.08411 0.38888 0.32483 0.01100
N 	N 	0.09915 0.38421 0.37074 -0.15100
C 	C 	0.11820 0.45421 0.36360 -0.00100
C 	C 	0.10618 0.45812 0.33523 -0.04400
N 	N 	0.99595 0.24627 0.27474 -0.15400
C 	C 	0.98782 0.17997 0.28162 -0.00000
C 	C 	0.98933 0.17276 0.31036 -0.04300
H 	H 	0.03473 0.23465 0.36343 0.05600
H 	H 	0.04805 0.39414 0.28331 0.05400
H 	H 	0.12809 0.50783 0.32284 0.05100
H 	H 	0.00433 0.13650 0.32071 0.05800
H 	H 	0.11470 0.36844 0.38889 0.09500
H 	H 	0.01564 0.27203 0.25554 0.08900
C 	C 	0.20230 0.92020 0.31736 0.07700
C 	C 	0.26303 0.91757 0.30968 -0.08200
C 	C 	0.25912 0.84854 0.30838 0.01200
C 	C 	0.19614 0.78436 0.31353 0.07600
C 	C 	0.13492 0.78739 0.32015 -0.08300
C 	C 	0.14025 0.85647 0.32337 0.01100
N 	N 	0.18877 0.97346 0.30899 -0.15100
C 	C 	0.11796 0.94406 0.30983 -0.00300
C 	C 	0.08612 0.87121 0.31861 -0.04200
N 	N 	0.20918 0.73302 0.32444 -0.15100
C 	C 	0.27966 0.76413 0.32751 0.00300
C 	C 	0.31242 0.83567 0.31722 -0.04300
H 	H 	0.31182 0.96741 0.30532 0.05400
H 	H 	0.08577 0.73766 0.32419 0.05300
H 	H 	0.03307 0.82988 0.31316 0.03900
H 	H 	0.36319 0.87857 0.32435 0.04600
H 	H 	0.22223 0.01744 0.29621 0.09300
H 	H 	0.17297 0.68927 0.33669 0.09300
C 	C 	0.46381 0.84067 0.52157 0.01000
C 	C 	0.41682 0.86740 0.52615 -0.04100
C 	C 	0.44007 0.93524 0.53905 -0.03300
C 	C 	0.51016 0.97688 0.54761 -0.01100
C 	C 	0.55525 0.94712 0.54537 -0.03100
C 	C 	0.53203 0.87923 0.53248 -0.04400
C 	C 	0.53916 0.05572 0.55359 0.04500
C 	C 	0.58439 0.08817 0.57480 -0.20800
C 	C 	0.44727 0.78239 0.50074 0.01200
C 	C 	0.37789 0.72775 0.49588 -0.16500
H 	H 	0.36375 0.83820 0.51805 0.04400
H 	H 	0.40464 0.95732 0.54095 0.03700
H 	H 	0.60957 0.97865 0.55194 0.03700
H 	H 	0.56848 0.85883 0.52940 0.04000
H 	H 	0.52471 0.08773 0.53996 0.03500
H 	H 	0.59078 0.05426 0.59045 0.09600
H 	H 	0.48823 0.78883 0.48624 0.03800
H 	H 	0.34175 0.70491 0.51335 0.08300
C 	C 	0.09333 0.71576 0.48342 0.00500
C 	C 	0.02436 0.69679 0.47593 -0.03500
C 	C 	0.96741 0.64167 0.49053 -0.04100
C 	C 	0.97914 0.60658 0.51324 0.00500
C 	C 	0.04804 0.63148 0.52254 -0.03700
C 	C 	0.10492 0.68644 0.50784 -0.03900
C 	C 	0.92111 0.53770 0.52467 0.01200
C 	C 	0.85460 0.53006 0.52947 -0.16400
C 	C 	0.15077 0.75165 0.46292 0.01500
C 	C 	0.14526 0.71654 0.43750 -0.17300
H 	H 	0.01485 0.72075 0.45756 0.04100
H 	H 	0.91450 0.62333 0.48317 0.04300
H 	H 	0.05766 0.60579 0.54034 0.03900
H 	H 	0.15803 0.70191 0.51415 0.04100
H 	H 	0.93120 0.49324 0.52999 0.03800
H 	H 	0.84764 0.57789 0.52800 0.08200
H 	H 	0.20231 0.79267 0.47034 0.03900
H 	H 	0.09304 0.68106 0.42914 0.08800
C 	C 	0.45988 0.35946 0.49477 0.00800
C 	C 	0.38653 0.32643 0.49666 -0.04000
C 	C 	0.35041 0.35379 0.48109 -0.03500
C 	C 	0.38729 0.41485 0.46362 -0.00000
C 	C 	0.46009 0.44444 0.46009 -0.03500
C 	C 	0.49633 0.41705 0.47566 -0.04000
C 	C 	0.35310 0.45736 0.45490 0.02800
C 	C 	0.35092 0.47453 0.42785 -0.18900
C 	C 	0.49873 0.34130 0.51569 0.01200
C 	C 	0.55610 0.33263 0.50795 -0.17100
H 	H 	0.35779 0.28163 0.51113 0.04200
H 	H 	0.29418 0.33028 0.48388 0.04000
H 	H 	0.48924 0.49174 0.44674 0.04000
H 	H 	0.55305 0.44336 0.47406 0.04300
H 	H 	0.32735 0.47253 0.47091 0.03800
H 	H 	0.37296 0.45477 0.41192 0.09000
H 	H 	0.48174 0.33417 0.53732 0.03900
H 	H 	0.56694 0.33028 0.48597 0.08700
C 	C 	0.98352 0.17343 0.64572 0.07700
C 	C 	0.98980 0.23881 0.63490 -0.08600
C 	C 	0.94614 0.23325 0.61255 0.01400
C 	C 	0.89091 0.16558 0.60440 0.07600
C 	C 	0.87753 0.10108 0.61855 -0.08200
C 	C 	0.92832 0.10565 0.63759 0.01100
N 	N 	0.00580 0.16858 0.67133 -0.15000
C 	C 	0.96499 0.09836 0.67980 0.00400
C 	C 	0.91557 0.05746 0.65955 -0.04300
N 	N 	0.84026 0.17444 0.59209 -0.15100
C 	C 	0.86259 0.24721 0.59251 0.00800
C 	C 	0.92765 0.28566 0.60545 -0.04900
H 	H 	0.02472 0.29134 0.64437 0.05600
H 	H 	0.82841 0.05046 0.61577 0.05400
H 	H 	0.86545 0.00907 0.66377 0.05200
H 	H 	0.94691 0.33809 0.61576 0.04900
H 	H 	0.03328 0.21313 0.68471 0.08900
H 	H 	0.78750 0.13363 0.59074 0.09100
C 	C 	0.30275 0.19868 0.66912 0.07600
C 	C 	0.35799 0.26743 0.66084 -0.08200
C 	C 	0.42680 0.27901 0.66231 0.01000
C 	C 	0.43999 0.22339 0.67072 0.07800
C 	C 	0.38475 0.15418 0.67826 -0.08400
C 	C 	0.31593 0.14252 0.67696 0.01500
N 	N 	0.24435 0.19036 0.68189 -0.15100
C 	C 	0.22041 0.12963 0.69800 0.00700
C 	C 	0.26331 0.09829 0.69535 -0.04700
N 	N 	0.50011 0.23308 0.65926 -0.15200
C 	C 	0.52515 0.29413 0.64333 -0.00100
C 	C 	0.48099 0.32428 0.64455 -0.04000
H 	H 	0.34788 0.31089 0.65431 0.05300
H 	H 	0.39497 0.11079 0.68480 0.05400
H 	H 	0.26871 0.06427 0.71110 0.05000
H 	H 	0.47660 0.35772 0.62828 0.04800
H 	H 	0.23418 0.23340 0.68575 0.09200
H 	H 	0.51229 0.19112 0.65631 0.08900
C 	C 	0.96720 0.72138 0.68795 0.07300
C 	C 	0.95279 0.69315 0.66073 -0.08300
C 	C 	0.88963 0.62802 0.65621 0.01300
C 	C 	0.84399 0.59070 0.67785 0.07800
C 	C 	0.85840 0.61779 0.70511 -0.08300
C 	C 	0.92112 0.68362 0.70981 0.01300
N 	N 	0.00272 0.79384 0.69341 -0.15000
C 	C 	0.97903 0.80254 0.71833 0.00400
C 	C 	0.92840 0.73565 0.72917 -0.04500
N 	N 	0.80488 0.51909 0.67165 -0.15200
C 	C 	0.82373 0.51052 0.64562 0.00700
C 	C 	0.87852 0.57698 0.63588 -0.04700
H 	H 	0.98836 0.72194 0.64368 0.05200
H 	H 	0.82233 0.58889 0.72202 0.05400
H 	H 	0.88823 0.72892 0.74401 0.05300
H 	H 	0.89488 0.58981 0.61433 0.04900
H 	H 	0.02516 0.83484 0.67820 0.08700
H 	H 	0.75754 0.48291 0.68147 0.09200
C 	C 	0.96293 0.46910 0.09016 -0.00300
C 	C 	0.90204 0.47545 0.08935 -0.03600
C 	C 	0.85823 0.45130 0.06601 -0.04000
C 	C 	0.87456 0.41987 0.04343 0.00600
C 	C 	0.93017 0.40481 0.04579 -0.03900
C 	C 	0.97402 0.42894 0.06916 -0.03700
C 	C 	0.84312 0.41715 0.01598 0.01400
C 	C 	0.81231 0.35272 0.00003 -0.17400
C 	C 	0.02264 0.52120 0.10743 0.03500
C 	C 	0.06757 0.50203 0.11877 -0.19800
H 	H 	0.89195 0.50476 0.10569 0.03900
H 	H 	0.81431 0.46153 0.06468 0.03900
H 	H 	0.94271 0.37955 0.02866 0.04200
H 	H 	0.02021 0.42246 0.06966 0.04300
H 	H 	0.83877 0.46441 0.00936 0.03300
H 	H 	0.81324 0.30430 0.00764 0.08800
H 	H 	0.03707 0.57889 0.10652 0.03500
H 	H 	0.04757 0.44665 0.12677 0.09200
C 	C 	0.43005 0.09397 0.01935 0.00800
C 	C 	0.35774 0.04595 0.01605 -0.03500
C 	C 	0.32099 0.98982 0.03545 -0.04100
C 	C 	0.35678 0.98008 0.05794 0.00400
C 	C 	0.42808 0.03075 0.06213 -0.03400
C 	C 	0.46471 0.08707 0.04285 -0.03800
C 	C 	0.32168 0.91452 0.07613 0.01200
C 	C 	0.28280 0.84424 0.06449 -0.16400
C 	C 	0.47078 0.14452 0.99642 0.01200
C 	C 	0.52591 0.21548 0.00195 -0.16200
H 	H 	0.33031 0.05115 0.99815 0.04000
H 	H 	0.26517 0.95324 0.03270 0.04100
H 	H 	0.45593 0.02452 0.07966 0.03800
H 	H 	0.52064 0.12326 0.04555 0.04400
H 	H 	0.33792 0.91989 0.09781 0.03500
H 	H 	0.25595 0.83774 0.04478 0.08500
H 	H 	0.45850 0.12525 0.97503 0.03900
H 	H 	0.52984 0.23926 0.02245 0.08300
C 	C 	0.48709 0.52862 0.96587 0.00000
C 	C 	0.43394 0.53022 0.95008 -0.03500
C 	C 	0.40447 0.57281 0.95888 -0.04000
C 	C 	0.42767 0.61368 0.98359 0.00800
C 	C 	0.48444 0.61587 0.99823 -0.03600
C 	C 	0.51370 0.57335 0.98941 -0.03500
C 	C 	0.38388 0.64111 0.99671 0.02000
C 	C 	0.41168 0.69664 0.01680 -0.17500
C 	C 	0.50955 0.47452 0.95987 0.03200
C 	C 	0.54589 0.47981 0.93648 -0.19500
H 	H 	0.41340 0.49610 0.93173 0.04000
H 	H 	0.36115 0.57107 0.94729 0.04000
H 	H 	0.50312 0.64693 0.01736 0.04600
H 	H 	0.55530 0.57290 0.00153 0.04100
H 	H 	0.32728 0.61052 0.99358 0.03500
H 	H 	0.46505 0.74186 0.01449 0.08600
H 	H 	0.50475 0.43674 0.97642 0.03600
H 	H 	0.54562 0.51372 0.91933 0.09200
C 	C 	0.86860 0.27296 0.85121 0.07700
C 	C 	0.90548 0.23530 0.85680 -0.08300
C 	C 	0.88581 0.16989 0.84234 0.01300
C 	C 	0.83179 0.14322 0.82284 0.07800
C 	C 	0.79618 0.18190 0.81682 -0.08300
C 	C 	0.81682 0.24815 0.83078 0.01200
N 	N 	0.85597 0.31116 0.87074 -0.15100
C 	C 	0.79663 0.31125 0.86284 0.00100
C 	C 	0.77108 0.27302 0.83806 -0.04300
N 	N 	0.84187 0.10255 0.80367 -0.15100
C 	C 	0.90281 0.10446 0.81031 0.00500
C 	C 	0.93189 0.14593 0.83423 -0.04400
H 	H 	0.94702 0.25548 0.87220 0.05500
H 	H 	0.75458 0.16167 0.80144 0.05400
H 	H 	0.71628 0.24638 0.83194 0.05200
H 	H 	0.98742 0.17379 0.83922 0.05400
H 	H 	0.87395 0.31775 0.89129 0.09400
H 	H 	0.82084 0.09310 0.78355 0.09400
C 	C 	0.33070 0.19486 0.82617 0.07700
C 	C 	0.39049 0.18862 0.82059 -0.08300
C 	C 	0.41430 0.15865 0.84126 0.01200
C 	C 	0.37964 0.13622 0.86679 0.07800
C 	C 	0.31645 0.13692 0.87141 -0.08300
C 	C 	0.29392 0.16847 0.85094 0.01300
N 	N 	0.28762 0.19394 0.80604 -0.15100
C 	C 	0.22293 0.16533 0.81755 0.00100
C 	C 	0.22452 0.14809 0.84548 -0.04500
N 	N 	0.42632 0.14904 0.88731 -0.15300
C 	C 	0.49069 0.18017 0.87529 0.01000
C 	C 	0.48471 0.18489 0.84662 -0.04400
H 	H 	0.41851 0.20795 0.80102 0.05400
H 	H 	0.28810 0.11741 0.89089 0.05500
H 	H 	0.17997 0.10590 0.85680 0.05300
H 	H 	0.52659 0.22504 0.83357 0.05000
H 	H 	0.29670 0.19193 0.78473 0.09300
H 	H 	0.41785 0.15745 0.90812 0.08400
C 	C 	0.83446 0.68913 0.88689 0.07500
C 	C 	0.83543 0.75450 0.87971 -0.08200
C 	C 	0.89774 0.81134 0.86823 0.01000
C 	C 	0.95661 0.80288 0.86418 0.07700
C 	C 	0.95532 0.73744 0.87194 -0.08700
C 	C 	0.89227 0.68031 0.88246 0.01300
N 	N 	0.79290 0.64282 0.90680 -0.15200
C 	C 	0.82259 0.60194 0.91453 0.00000
C 	C 	0.88625 0.62616 0.90052 -0.04500
N 	N 	0.99476 0.84417 0.84250 -0.15300
C 	C 	0.96049 0.87819 0.83239 0.00100
C 	C 	0.89993 0.85921 0.84780 -0.04300
H 	H 	0.78956 0.76078 0.88273 0.05300
H 	H 	0.00073 0.73041 0.86878 0.05600
H 	H 	0.91369 0.59525 0.89821 0.05100
H 	H 	0.85408 0.86021 0.83977 0.05000
H 	H 	0.74006 0.62769 0.90971 0.09100
H 	H 	0.02933 0.83370 0.83086 0.09100
