data_crystal

_cell_length_a 29.85887
_cell_length_b 30.57320
_cell_length_c 34.85814
_cell_angle_alpha 95.52547
_cell_angle_beta  95.52650
_cell_angle_gamma 125.59378

_symmetry_space_group_name_	'P 1'
_symmetry_space_group_name_H-M	'P 1'

loop_
_symmetry_equiv_pos_as_xyz
  x,y,z

loop_
_atom_site_label
_atom_site_type_symbol
_atom_site_fract_x
_atom_site_fract_y
_atom_site_fract_z
_atom_site_charge
C 	C 	0.94366 0.99718 0.99823 0.12100
N 	N 	0.00012 0.03021 0.00007 -0.14100
C 	C 	0.02957 0.00920 0.00322 0.12000
N 	N 	0.00250 0.95531 0.00462 -0.13800
C 	C 	0.94613 0.92218 0.00246 0.11500
N 	N 	0.91683 0.94321 0.99928 -0.13900
C 	C 	0.96347 0.01932 0.44736 0.11400
N 	N 	0.93879 0.96528 0.44724 -0.13800
C 	C 	0.97098 0.94747 0.45263 0.11600
N 	N 	0.02769 0.98375 0.45859 -0.13500
C 	C 	0.05246 0.03775 0.45924 0.12100
N 	N 	0.02028 0.05541 0.45347 -0.13700
Cu	Cu	0.63172 0.24765 0.99504 0.92700
Cu	Cu	0.66264 0.23362 0.90978 0.88900
Cu	Cu	0.63652 0.32054 0.93912 0.91100
Cu	Cu	0.60665 0.33317 0.01673 0.89400
C 	C 	0.64507 0.29172 0.07594 0.30500
O 	O 	0.54831 0.20090 0.99668 -0.34700
C 	C 	0.65606 0.30286 0.86394 0.30600
O 	O 	0.65864 0.32820 0.99421 -0.63700
O 	O 	0.61567 0.24508 0.93789 -0.63000
O 	O 	0.68582 0.22852 0.99622 -0.36600
O 	O 	0.65292 0.17728 0.93466 -0.41000
O 	O 	0.61009 0.30320 0.06450 -0.37700
O 	O 	0.66233 0.39538 0.94207 -0.37300
C 	C 	0.65826 0.42336 0.97106 0.28900
C 	C 	0.51600 0.21380 0.98188 0.28100
O 	O 	0.53881 0.26294 0.97391 -0.39000
O 	O 	0.62314 0.39836 0.99518 -0.38800
O 	O 	0.65542 0.26463 0.05098 -0.34700
C 	C 	0.67896 0.18930 0.97086 0.28900
O 	O 	0.62551 0.31218 0.88265 -0.37500
O 	O 	0.69036 0.29557 0.88365 -0.40600
H 	H 	0.69852 0.35854 0.00500 0.15900
H 	H 	0.57574 0.21668 0.92588 0.16700
Cu	Cu	0.75565 0.36305 0.44875 0.93000
Cu	Cu	0.75573 0.31846 0.53055 0.87000
Cu	Cu	0.67378 0.33847 0.50409 0.89900
Cu	Cu	0.65007 0.36159 0.42689 0.89600
C 	C 	0.70715 0.34459 0.36816 0.30500
O 	O 	0.78740 0.44286 0.44904 -0.35000
C 	C 	0.71080 0.34844 0.58768 0.30000
O 	O 	0.66914 0.31937 0.44901 -0.64100
O 	O 	0.75481 0.37209 0.50557 -0.63900
O 	O 	0.79590 0.32890 0.44870 -0.36200
O 	O 	0.73895 0.26829 0.48517 -0.43600
O 	O 	0.68619 0.37032 0.38006 -0.37500
O 	O 	0.59380 0.30001 0.50081 -0.36700
C 	C 	0.55924 0.29777 0.47254 0.29200
C 	C 	0.76436 0.46442 0.46474 0.28300
O 	O 	0.71318 0.43218 0.47150 -0.39100
O 	O 	0.57804 0.32954 0.44599 -0.38900
O 	O 	0.74211 0.34251 0.39278 -0.34600
C 	C 	0.77519 0.28290 0.46168 0.28900
O 	O 	0.68136 0.35495 0.56113 -0.35900
O 	O 	0.75425 0.35029 0.58003 -0.41300
H 	H 	0.64391 0.27959 0.43810 0.16700
H 	H 	0.78040 0.41002 0.52072 0.17900
C 	C 	0.63848 0.31676 0.67553 -0.07300
C 	C 	0.68449 0.34200 0.70646 0.02700
C 	C 	0.73934 0.37287 0.69857 0.05500
C 	C 	0.74751 0.37672 0.65977 -0.00600
C 	C 	0.70142 0.34916 0.62856 -0.09000
C 	C 	0.64651 0.31935 0.63662 0.11400
C 	C 	0.67488 0.33077 0.74632 0.02400
N 	N 	0.78683 0.39881 0.72979 -0.01600
H 	H 	0.78981 0.40056 0.65390 0.06100
N 	N 	0.59879 0.28903 0.60533 -0.02100
H 	H 	0.59626 0.29286 0.68154 0.07900
C 	C 	0.66121 0.35904 0.77096 0.05800
C 	C 	0.65384 0.34877 0.80906 -0.00300
C 	C 	0.65916 0.30990 0.82264 -0.09200
C 	C 	0.66968 0.27945 0.79705 0.11300
C 	C 	0.67857 0.29086 0.75940 -0.07000
N 	N 	0.65434 0.39786 0.75732 -0.01600
H 	H 	0.64513 0.37190 0.82833 0.06700
N 	N 	0.66928 0.23557 0.80864 -0.02600
H 	H 	0.68744 0.26795 0.74003 0.07700
O 	O 	0.56381 0.30136 0.60163 -0.09600
O 	O 	0.58766 0.24615 0.58275 -0.12200
O 	O 	0.82357 0.38892 0.72836 -0.10600
O 	O 	0.79503 0.43466 0.75851 -0.09100
O 	O 	0.62415 0.19391 0.81753 -0.14800
O 	O 	0.71236 0.23510 0.80714 -0.11500
O 	O 	0.60754 0.39182 0.75775 -0.10100
O 	O 	0.69613 0.44123 0.74712 -0.08900
C 	C 	0.66242 0.25874 0.17590 -0.07300
C 	C 	0.68481 0.30884 0.20037 0.02600
C 	C 	0.69812 0.35433 0.18367 0.05500
C 	C 	0.68732 0.34879 0.14283 -0.00500
C 	C 	0.66227 0.29801 0.11838 -0.09000
C 	C 	0.65004 0.25274 0.13507 0.12300
C 	C 	0.69031 0.31242 0.24341 0.02600
N 	N 	0.72125 0.40585 0.20816 -0.01600
H 	H 	0.69693 0.38370 0.13014 0.04700
N 	N 	0.62247 0.20001 0.11087 -0.02200
H 	H 	0.65227 0.22374 0.18866 0.08000
C 	C 	0.64237 0.28818 0.26086 0.05600
C 	C 	0.64846 0.29653 0.30180 -0.00500
C 	C 	0.70195 0.32981 0.32563 -0.09000
C 	C 	0.74993 0.35285 0.30819 0.12300
C 	C 	0.74376 0.34318 0.26721 -0.07300
N 	N 	0.58746 0.25632 0.23707 -0.01600
H 	H 	0.61149 0.27860 0.31507 0.04700
N 	N 	0.80495 0.38821 0.33184 -0.02200
H 	H 	0.78069 0.36163 0.25388 0.07900
O 	O 	0.57096 0.17376 0.09257 -0.09400
O 	O 	0.64716 0.17631 0.10983 -0.10000
O 	O 	0.77007 0.44907 0.20532 -0.10600
O 	O 	0.69171 0.41045 0.23104 -0.09400
O 	O 	0.82266 0.43594 0.35072 -0.09400
O 	O 	0.83896 0.37469 0.33177 -0.10100
O 	O 	0.55127 0.20528 0.23954 -0.10500
O 	O 	0.57227 0.27941 0.21526 -0.09400
C 	C 	0.94476 0.88886 0.45115 -0.02300
C 	C 	0.96194 0.86312 0.42784 -0.01300
C 	C 	0.94413 0.81020 0.43085 -0.05700
C 	C 	0.90868 0.78227 0.45702 0.03600
C 	C 	0.89015 0.80742 0.47962 -0.05600
C 	C 	0.90775 0.86033 0.47640 -0.01300
C 	C 	0.89549 0.72894 0.46312 -0.04600
C 	C 	0.84285 0.68614 0.46403 -0.05200
C 	C 	0.82932 0.63199 0.46769 0.04800
C 	C 	0.79606 0.60311 0.49461 -0.07200
C 	C 	0.77780 0.54948 0.49535 0.01700
C 	C 	0.79188 0.52381 0.46870 -0.08500
C 	C 	0.82697 0.55348 0.44272 0.01900
C 	C 	0.84530 0.60716 0.44204 -0.07000
H 	H 	0.99029 0.88468 0.40811 0.04100
H 	H 	0.95872 0.79127 0.41335 0.04800
H 	H 	0.86371 0.78680 0.50055 0.04700
H 	H 	0.89454 0.87995 0.49473 0.04000
H 	H 	0.92859 0.72369 0.46444 0.04500
H 	H 	0.80966 0.69124 0.46289 0.04700
H 	H 	0.78356 0.62189 0.51453 0.05200
H 	H 	0.75142 0.52738 0.51592 0.03700
H 	H 	0.83805 0.53423 0.42189 0.05100
H 	H 	0.87028 0.62873 0.42070 0.05500
C 	C 	0.79594 0.24993 0.45266 -0.09300
C 	C 	0.83532 0.26532 0.42790 0.02100
C 	C 	0.85800 0.23652 0.42202 -0.07300
C 	C 	0.84113 0.19168 0.44038 0.04900
C 	C 	0.80106 0.17567 0.46454 -0.07500
C 	C 	0.77824 0.20423 0.47035 0.01600
C 	C 	0.87003 0.16553 0.43760 -0.05400
C 	C 	0.84122 0.11069 0.43192 -0.04600
C 	C 	0.87071 0.08505 0.43388 0.03500
C 	C 	0.85408 0.04367 0.45597 -0.05600
C 	C 	0.88314 0.02077 0.45935 -0.01500
C 	C 	0.92892 0.03887 0.44045 -0.02200
C 	C 	0.94392 0.07852 0.41690 -0.01400
C 	C 	0.91471 0.10118 0.41338 -0.05600
H 	H 	0.84905 0.30001 0.41368 0.04900
H 	H 	0.88920 0.24949 0.40355 0.05400
H 	H 	0.78875 0.14208 0.47975 0.04900
H 	H 	0.74779 0.19156 0.48938 0.02800
H 	H 	0.91538 0.19149 0.44034 0.04600
H 	H 	0.79582 0.08475 0.42878 0.04400
H 	H 	0.81946 0.03013 0.47125 0.04500
H 	H 	0.87101 0.99008 0.47748 0.04200
H 	H 	0.97844 0.09201 0.40152 0.03900
H 	H 	0.92642 0.13140 0.39488 0.04700
C 	C 	0.11412 0.07694 0.46581 -0.02400
C 	C 	0.13979 0.12125 0.44599 -0.01200
C 	C 	0.19823 0.15672 0.45073 -0.05700
C 	C 	0.23150 0.14794 0.47498 0.03700
C 	C 	0.20598 0.10483 0.49589 -0.05600
C 	C 	0.14759 0.06934 0.49117 -0.01200
C 	C 	0.29312 0.18459 0.47878 -0.04600
C 	C 	0.32206 0.16406 0.47395 -0.05200
C 	C 	0.38323 0.20045 0.47523 0.05000
C 	C 	0.41788 0.19048 0.49628 -0.06900
C 	C 	0.47532 0.22253 0.49578 0.02300
C 	C 	0.49871 0.26479 0.47395 -0.08100
C 	C 	0.46385 0.27464 0.45280 0.02000
C 	C 	0.40642 0.24238 0.45319 -0.07200
H 	H 	0.11450 0.12763 0.42636 0.04100
H 	H 	0.21760 0.19040 0.43496 0.04700
H 	H 	0.23136 0.09880 0.51576 0.04900
H 	H 	0.12838 0.03604 0.50729 0.04300
H 	H 	0.31450 0.22858 0.48307 0.04600
H 	H 	0.30069 0.12008 0.46989 0.04700
H 	H 	0.40024 0.15770 0.51292 0.05500
H 	H 	0.50142 0.21398 0.51192 0.05100
H 	H 	0.48109 0.30707 0.43587 0.03800
H 	H 	0.37983 0.24943 0.43586 0.05200
C 	C 	0.91656 0.86314 0.00214 -0.03000
C 	C 	0.93673 0.83561 0.98540 -0.00600
C 	C 	0.90784 0.77939 0.98409 -0.06000
C 	C 	0.85819 0.75000 0.99900 0.04200
C 	C 	0.83863 0.77762 0.01657 -0.06300
C 	C 	0.86756 0.83387 0.01800 -0.01000
C 	C 	0.82781 0.69057 0.99715 -0.04300
C 	C 	0.77273 0.65541 0.98196 -0.05300
C 	C 	0.74294 0.59578 0.97841 0.05000
C 	C 	0.69230 0.56440 0.99192 -0.06800
C 	C 	0.66419 0.50801 0.98913 0.02000
C 	C 	0.68627 0.48238 0.97239 -0.08500
C 	C 	0.73617 0.51366 0.95781 0.02100
C 	C 	0.76415 0.56998 0.96057 -0.07100
H 	H 	0.97434 0.85757 0.97292 0.04100
H 	H 	0.92361 0.75851 0.97095 0.04900
H 	H 	0.80121 0.75556 0.02924 0.04800
H 	H 	0.85208 0.85474 0.03166 0.04000
H 	H 	0.85135 0.67516 0.00597 0.04100
H 	H 	0.74908 0.67078 0.97334 0.04900
H 	H 	0.67508 0.58382 0.00503 0.04700
H 	H 	0.62526 0.48432 0.99990 0.03900
H 	H 	0.75363 0.49446 0.94477 0.03700
H 	H 	0.80233 0.59358 0.94891 0.05400
C 	C 	0.91126 0.01938 0.99455 -0.02500
C 	C 	0.85901 0.98896 0.96910 -0.00700
C 	C 	0.82487 0.00633 0.96893 -0.06300
C 	C 	0.84274 0.05456 0.99389 0.04200
C 	C 	0.89555 0.08573 0.01884 -0.06200
C 	C 	0.92983 0.06839 0.01894 -0.01500
C 	C 	0.80413 0.06986 0.99573 -0.04700
C 	C 	0.82123 0.12091 0.99350 -0.05300
C 	C 	0.78108 0.13457 0.99101 0.05400
C 	C 	0.79531 0.18248 0.01427 -0.07600
C 	C 	0.76040 0.19885 0.00926 0.01800
C 	C 	0.71121 0.16780 0.98041 -0.08300
C 	C 	0.69600 0.11876 0.95808 0.02000
C 	C 	0.73095 0.10247 0.96311 -0.07300
H 	H 	0.84443 0.95131 0.94991 0.04100
H 	H 	0.78421 0.98197 0.94965 0.05000
H 	H 	0.90937 0.12250 0.03884 0.04700
H 	H 	0.96985 0.09199 0.03893 0.04000
H 	H 	0.76023 0.03802 0.99584 0.04700
H 	H 	0.86519 0.15300 0.99379 0.04700
H 	H 	0.83393 0.20758 0.03580 0.05200
H 	H 	0.77268 0.23666 0.02683 0.04200
H 	H 	0.65786 0.09400 0.93611 0.03900
H 	H 	0.71988 0.06578 0.94454 0.05200
C 	C 	0.09029 0.04393 0.00341 -0.03000
C 	C 	0.11203 0.07820 0.97575 -0.00500
C 	C 	0.16800 0.10446 0.97186 -0.06100
C 	C 	0.20253 0.09637 0.99537 0.04300
C 	C 	0.18169 0.06468 0.02458 -0.06400
C 	C 	0.12578 0.03836 0.02842 -0.00800
C 	C 	0.26094 0.12241 0.98994 -0.04700
C 	C 	0.28175 0.09348 0.98725 -0.05200
C 	C 	0.34070 0.12003 0.98315 0.05300
C 	C 	0.37517 0.11378 0.00857 -0.07400
C 	C 	0.43201 0.14188 0.00669 0.01600
C 	C 	0.45471 0.17614 0.97910 -0.08200
C 	C 	0.41922 0.17930 0.95191 0.01700
C 	C 	0.36248 0.15130 0.95387 -0.07300
H 	H 	0.08513 0.08298 0.95637 0.04200
H 	H 	0.18410 0.12993 0.94989 0.04900
H 	H 	0.20864 0.06009 0.04407 0.05000
H 	H 	0.10976 0.01288 0.05038 0.04100
H 	H 	0.28646 0.16503 0.98663 0.04600
H 	H 	0.25617 0.05079 0.99039 0.04900
H 	H 	0.35838 0.08860 0.03062 0.05500
H 	H 	0.45877 0.13872 0.02768 0.05100
H 	H 	0.43589 0.20451 0.92985 0.03400
H 	H 	0.33566 0.15456 0.93302 0.05200
