data_crystal

_cell_length_a 16.82810
_cell_length_b 17.47224
_cell_length_c 37.33428
_cell_angle_alpha 60.64848
_cell_angle_beta  119.04409
_cell_angle_gamma 133.39040

_symmetry_space_group_name_	'P 1'
_symmetry_space_group_name_H-M	'P 1'

loop_
_symmetry_equiv_pos_as_xyz
  x,y,z

loop_
_atom_site_label
_atom_site_type_symbol
_atom_site_fract_x
_atom_site_fract_y
_atom_site_fract_z
_atom_site_charge
C 	C 	0.61821 0.21981 0.98405 0.12200
N 	N 	0.52383 0.15132 0.99872 -0.11400
C 	C 	0.47924 0.19107 0.00008 0.11400
N 	N 	0.52455 0.29785 0.98418 -0.11800
C 	C 	0.62534 0.36794 0.97426 0.12500
N 	N 	0.67057 0.32866 0.97271 -0.12300
C 	C 	0.74594 0.32302 0.52313 0.12200
N 	N 	0.64021 0.29570 0.50433 -0.12400
C 	C 	0.61420 0.35717 0.50139 0.12000
N 	N 	0.69457 0.44697 0.51667 -0.12400
C 	C 	0.80014 0.47438 0.53551 0.12700
N 	N 	0.82607 0.41260 0.53875 -0.12500
C 	C 	0.17904 0.48025 0.18354 0.11500
N 	N 	0.28449 0.53331 0.18044 -0.13100
C 	C 	0.31364 0.47850 0.17951 0.11600
N 	N 	0.24050 0.36938 0.18552 -0.12800
C 	C 	0.13248 0.31746 0.18449 0.13700
N 	N 	0.10302 0.37197 0.18539 -0.12900
C 	C 	0.40854 0.77908 0.63559 0.11500
N 	N 	0.33247 0.69162 0.61846 -0.13000
C 	C 	0.36402 0.63509 0.62077 0.11500
N 	N 	0.47109 0.66646 0.63978 -0.12400
C 	C 	0.54673 0.75327 0.65682 0.11400
N 	N 	0.51525 0.80910 0.65489 -0.13200
Co	Co	0.91311 0.72906 0.08862 1.19400
Co	Co	0.89295 0.98632 0.06891 1.16300
Co	Co	0.78441 0.76470 0.11724 1.18100
Co	Co	0.04356 0.95990 0.04898 1.14300
C 	C 	0.82926 0.64016 0.01341 0.27100
Co	Co	0.07453 0.80744 0.03775 1.15600
Co	Co	0.67478 0.88454 0.09573 1.15600
C 	C 	0.26288 0.98978 0.07629 0.17700
O 	O 	0.69816 0.80624 0.15958 -0.40900
O 	O 	0.77745 0.87125 0.08637 -0.76300
C 	C 	0.79610 0.82489 0.18329 0.29900
O 	O 	0.82467 0.66595 0.13004 -0.45300
O 	O 	0.03708 0.06834 0.05234 -0.44700
C 	C 	0.91191 0.06798 0.12781 0.29500
O 	O 	0.87625 0.84939 0.06623 -0.58000
C 	C 	0.53801 0.65123 0.10887 0.31600
C 	C 	0.05331 0.65391 0.12144 0.31700
C 	C 	0.07359 0.99290 0.96781 0.14400
O 	O 	0.85066 0.81287 0.17228 -0.39400
O 	O 	0.02901 0.66044 0.08167 -0.41400
O 	O 	0.03119 0.69790 0.13231 -0.39900
O 	O 	0.80853 0.03885 0.10729 -0.36900
O 	O 	0.95666 0.03727 0.12185 -0.36100
O 	O 	0.54344 0.73678 0.08171 -0.38900
O 	O 	0.61342 0.63823 0.11596 -0.36900
O 	O 	0.13175 0.95318 0.99204 -0.38000
O 	O 	0.02916 0.00410 0.98435 -0.29500
O 	O 	0.99781 0.83313 0.05641 -0.76200
C 	C 	0.72748 0.04632 0.01536 0.36000
O 	O 	0.64952 0.94802 0.03146 -0.43700
O 	O 	0.82752 0.07365 0.02100 -0.35800
O 	O 	0.91933 0.72831 0.99858 -0.35500
O 	O 	0.81604 0.62184 0.05020 -0.36000
O 	O 	0.21823 0.88851 0.08140 -0.37500
O 	O 	0.20928 0.01308 0.08148 -0.30700
Co	Co	0.12839 0.94128 0.59954 1.17700
Co	Co	0.02778 0.15026 0.56419 1.18500
Co	Co	0.06432 0.00715 0.64561 1.20200
Co	Co	0.09126 0.08488 0.51842 1.19800
C 	C 	0.04185 0.75243 0.57480 0.29200
Co	Co	0.17415 0.96448 0.51721 1.14800
Co	Co	0.98870 0.14074 0.64367 1.19200
C 	C 	0.28424 0.20050 0.48525 0.32100
O 	O 	0.15284 0.21298 0.67763 -0.38900
O 	O 	0.02227 0.09000 0.61521 -0.75400
C 	C 	0.19072 0.15440 0.70380 0.31100
O 	O 	0.11364 0.91882 0.65524 -0.48600
O 	O 	0.04985 0.17902 0.50919 -0.46300
C 	C 	0.12864 0.34709 0.58678 0.31700
O 	O 	0.03879 0.01556 0.57879 -0.55600
C 	C 	0.88164 0.90614 0.68348 0.32400
C 	C 	0.34052 0.99510 0.59762 0.24500
C 	C 	0.97659 0.95390 0.45368 0.26500
O 	O 	0.19552 0.10136 0.68962 -0.36500
O 	O 	0.33142 0.03936 0.55696 -0.31900
O 	O 	0.29681 0.99726 0.61829 -0.38100
O 	O 	0.03473 0.28620 0.59815 -0.41200
O 	O 	0.15146 0.30437 0.57544 -0.39200
O 	O 	0.94453 0.99984 0.69205 -0.42300
O 	O 	0.92188 0.88522 0.66954 -0.38700
O 	O 	0.01155 0.89365 0.48180 -0.41200
O 	O 	0.98489 0.02243 0.46418 -0.30800
O 	O 	0.12066 0.99299 0.54697 -0.79100
C 	C 	0.82042 0.11251 0.56338 0.31200
O 	O 	0.83073 0.06727 0.60419 -0.35700
O 	O 	0.86882 0.11873 0.54173 -0.34900
O 	O 	0.13344 0.81803 0.56117 -0.40300
O 	O 	0.02602 0.78260 0.59552 -0.38400
O 	O 	0.21992 0.11192 0.47261 -0.38900
O 	O 	0.25044 0.20669 0.50826 -0.38900
C 	C 	0.04059 0.02294 0.85709 0.13700
C 	C 	0.15497 0.10469 0.85520 -0.04100
C 	C 	0.22823 0.17059 0.88398 0.00900
C 	C 	0.19062 0.14811 0.91649 -0.05200
C 	C 	0.08528 0.05131 0.92394 0.12500
C 	C 	0.00744 0.99382 0.89238 -0.23500
C 	C 	0.19782 0.12391 0.82256 0.04600
C 	C 	0.25434 0.22821 0.79607 -0.07000
C 	C 	0.27768 0.24345 0.76093 0.03900
C 	C 	0.23213 0.15238 0.74918 -0.09700
C 	C 	0.19249 0.05169 0.77907 0.07800
C 	C 	0.17860 0.03800 0.81649 -0.00200
C 	C 	0.34409 0.35217 0.73596 0.08400
C 	C 	0.14615 0.93687 0.84847 0.03300
C 	C 	0.95684 0.97106 0.82267 0.01700
C 	C 	0.25908 0.22523 0.94163 0.11700
N 	N 	0.39734 0.43931 0.71596 -0.09800
N 	N 	0.12012 0.85584 0.87411 -0.10900
N 	N 	0.31338 0.28716 0.96171 -0.10600
N 	N 	0.88983 0.92955 0.79508 -0.09200
H 	H 	0.92331 0.92292 0.89645 0.11200
H 	H 	0.31405 0.23872 0.88117 0.04400
H 	H 	0.27725 0.29670 0.80208 0.06000
H 	H 	0.16488 0.98242 0.77190 -0.00800
C 	C 	0.84914 0.95625 0.25525 -0.12900
C 	C 	0.89765 0.91368 0.29467 0.07400
C 	C 	0.92453 0.85080 0.29684 -0.08700
C 	C 	0.89866 0.82620 0.26025 0.04500
C 	C 	0.84657 0.86618 0.22091 -0.10400
C 	C 	0.82478 0.93310 0.21884 0.04400
C 	C 	0.91255 0.92767 0.33420 -0.07800
C 	C 	0.83641 0.84071 0.36000 -0.02400
C 	C 	0.84825 0.85215 0.39729 0.00700
C 	C 	0.93711 0.95174 0.40905 -0.08100
C 	C 	0.00724 0.04126 0.38137 -0.02300
C 	C 	0.99760 0.02906 0.34471 0.09000
C 	C 	0.77069 0.76041 0.42396 0.08500
C 	C 	0.07725 0.11999 0.31872 0.05100
C 	C 	0.81997 0.02057 0.25208 0.18600
C 	C 	0.92163 0.75654 0.26385 0.07600
N 	N 	0.70865 0.68687 0.44536 -0.10400
N 	N 	0.14092 0.19278 0.29785 -0.09300
N 	N 	0.94007 0.70068 0.26678 -0.09800
N 	N 	0.79671 0.07214 0.24954 -0.11200
H 	H 	0.78330 0.96284 0.18896 0.00800
H 	H 	0.96260 0.81851 0.32716 0.06300
H 	H 	0.76859 0.76377 0.35125 0.04700
H 	H 	0.07479 0.11839 0.38999 0.05800
C 	C 	0.21470 0.45265 0.59555 -0.08000
C 	C 	0.28266 0.53761 0.60584 0.03400
C 	C 	0.66348 0.79893 0.66880 0.03900
C 	C 	0.76274 0.84347 0.67674 -0.09400
C 	C 	0.36450 0.91675 0.61549 -0.07800
C 	C 	0.38315 0.85196 0.62604 0.01800
C 	C 	0.98324 0.15018 0.15044 -0.01500
C 	C 	0.04763 0.22338 0.16768 -0.01300
C 	C 	0.39936 0.53620 0.15811 0.03300
C 	C 	0.46477 0.58504 0.13696 -0.08700
C 	C 	0.13777 0.54278 0.16981 0.03000
C 	C 	0.10012 0.59494 0.15198 -0.08400
C 	C 	0.78807 0.18348 0.54581 -0.07000
C 	C 	0.76700 0.24664 0.53404 0.04200
C 	C 	0.95494 0.65067 0.56383 -0.04500
C 	C 	0.88405 0.56868 0.55182 0.02800
C 	C 	0.49925 0.31251 0.49268 0.04500
C 	C 	0.40131 0.26681 0.48801 -0.08200
C 	C 	0.70897 0.12740 0.99921 -0.06800
C 	C 	0.67456 0.17815 0.99001 0.04700
C 	C 	0.69820 0.47162 0.98248 0.02700
C 	C 	0.75717 0.55162 0.99473 -0.04300
C 	C 	0.40530 0.12741 0.02740 0.00300
C 	C 	0.34282 0.07033 0.05057 0.00500
