data_crystal

_cell_length_a 27.70067
_cell_length_b 29.23648
_cell_length_c 33.15993
_cell_angle_alpha 89.93386
_cell_angle_beta  89.93093
_cell_angle_gamma 90.85417

_symmetry_space_group_name_	'P 1'
_symmetry_space_group_name_H-M	'P 1'

loop_
_symmetry_equiv_pos_as_xyz
  x,y,z

loop_
_atom_site_label
_atom_site_type_symbol
_atom_site_fract_x
_atom_site_fract_y
_atom_site_fract_z
_atom_site_charge
Zn	Zn	0.49812 0.50981 0.98824 1.22600
C 	C 	0.56933 0.43818 0.98500 0.33000
O 	O 	0.52333 0.55334 0.94847 -0.46600
O 	O 	0.54542 0.42296 0.95336 -0.37300
O 	O 	0.57277 0.50873 0.91271 -0.42800
C 	C 	0.43500 0.44136 0.95672 0.31600
O 	O 	0.45572 0.45668 0.98966 -0.42300
O 	O 	0.44998 0.45584 0.92118 -0.43900
C 	C 	0.56580 0.54662 0.93265 0.33700
O 	O 	0.42831 0.55391 0.99320 -0.30300
Zn	Zn	0.51910 0.46476 0.90896 1.19100
O 	O 	0.55795 0.47738 0.00199 -0.39400
C 	C 	0.44760 0.57099 0.02558 0.26900
O 	O 	0.48793 0.55247 0.03617 -0.37100
Zn	Zn	0.23591 0.23126 0.00878 1.22100
C 	C 	0.27451 0.22858 0.08968 0.34000
O 	O 	0.16526 0.22955 0.01484 -0.45600
O 	O 	0.26921 0.27313 0.09167 -0.44100
O 	O 	0.16421 0.25600 0.07915 -0.48600
C 	C 	0.28121 0.31964 0.00411 0.32100
O 	O 	0.28886 0.27548 0.00525 -0.45000
O 	O 	0.24235 0.33616 0.02114 -0.50000
C 	C 	0.14571 0.22973 0.05092 0.32800
O 	O 	0.22891 0.23833 0.93788 -0.30200
Zn	Zn	0.21034 0.30482 0.06625 1.17200
O 	O 	0.25331 0.20468 0.06105 -0.42700
C 	C 	0.24261 0.19608 0.93699 0.30100
O 	O 	0.25012 0.17773 0.97189 -0.34300
C 	C 	0.50903 0.98565 0.35468 0.13500
C 	C 	0.48189 0.01756 0.33305 -0.10000
H 	H 	0.46098 0.04276 0.34913 0.07700
C 	C 	0.48178 0.01675 0.29082 0.08800
C 	C 	0.50863 0.98400 0.27019 -0.11100
C 	C 	0.53563 0.95200 0.29162 0.07800
C 	C 	0.53598 0.95285 0.33390 -0.10900
H 	H 	0.55691 0.92820 0.35062 0.07800
N 	N 	0.50907 0.98655 0.39805 -0.18300
C 	C 	0.47764 0.95854 0.41895 0.18900
C 	C 	0.47496 0.96105 0.46131 -0.05700
C 	C 	0.50488 0.99241 0.48190 0.02400
C 	C 	0.53740 0.02035 0.46016 -0.04700
C 	C 	0.53929 0.01662 0.41784 0.19900
C 	C 	0.44259 0.93298 0.48327 -0.01000
C 	C 	0.44004 0.93634 0.52530 -0.01400
C 	C 	0.46982 0.96784 0.54608 -0.05100
C 	C 	0.50219 0.99592 0.52432 0.01800
C 	C 	0.53188 0.02750 0.54488 -0.04100
C 	C 	0.56721 0.05182 0.48094 -0.00900
C 	C 	0.56441 0.05542 0.52294 -0.01200
C 	C 	0.46792 0.97158 0.58840 0.17900
N 	N 	0.49742 0.00235 0.60812 -0.17200
C 	C 	0.52870 0.03049 0.58719 0.18900
C 	C 	0.49657 0.00420 0.65146 0.16200
C 	C 	0.46159 0.03020 0.67142 -0.11000
C 	C 	0.46077 0.03164 0.71368 0.07700
C 	C 	0.49493 0.00746 0.73586 -0.08100
C 	C 	0.52972 0.98148 0.71612 0.06700
C 	C 	0.53058 0.97975 0.67391 -0.12200
O 	O 	0.56996 0.04234 0.39711 -0.18900
O 	O 	0.44944 0.92956 0.39923 -0.19600
O 	O 	0.43801 0.94515 0.60921 -0.19300
O 	O 	0.55601 0.06030 0.60681 -0.18900
H 	H 	0.55734 0.95947 0.65850 0.07900
H 	H 	0.43524 0.04894 0.65410 0.08100
H 	H 	0.59249 0.07364 0.46467 0.05800
H 	H 	0.58764 0.07990 0.53829 0.05900
H 	H 	0.41930 0.90855 0.46792 0.05400
H 	H 	0.41487 0.91442 0.54158 0.05600
H 	H 	0.49420 0.00857 0.76858 0.06900
H 	H 	0.50839 0.98333 0.23746 0.06600
Zn	Zn	0.74821 0.74622 0.00132 1.22000
C 	C 	0.72461 0.73204 0.08494 0.33800
O 	O 	0.79755 0.78303 0.02927 -0.44300
O 	O 	0.76754 0.71525 0.09174 -0.43400
O 	O 	0.85021 0.72414 0.03377 -0.48600
C 	C 	0.72928 0.65050 0.99231 0.33700
O 	O 	0.74173 0.68802 0.97307 -0.41200
O 	O 	0.74642 0.64290 0.02853 -0.45400
C 	C 	0.84096 0.76794 0.03706 0.33500
O 	O 	0.77214 0.77830 0.93859 -0.28700
Zn	Zn	0.80254 0.67693 0.04877 1.18000
O 	O 	0.70694 0.73237 0.04821 -0.43500
C 	C 	0.73263 0.80136 0.94145 0.29700
O 	O 	0.70698 0.79339 0.97333 -0.35500
Zn	Zn	0.27095 0.77617 0.00119 1.22000
C 	C 	0.24954 0.78055 0.08623 0.34200
O 	O 	0.27148 0.83866 0.98025 -0.42200
O 	O 	0.29404 0.79394 0.09396 -0.43900
O 	O 	0.28125 0.87421 0.04019 -0.41900
C 	C 	0.36061 0.74227 0.03117 0.31500
O 	O 	0.31496 0.73257 0.02438 -0.44200
O 	O 	0.37543 0.78509 0.03388 -0.42400
C 	C 	0.26100 0.87235 0.00450 0.28900
O 	O 	0.29389 0.74871 0.93683 -0.27200
Zn	Zn	0.33386 0.83349 0.05430 1.18400
O 	O 	0.23154 0.78506 0.04981 -0.44500
C 	C 	0.24930 0.73482 0.93446 0.29100
O 	O 	0.22243 0.74333 0.96534 -0.37400
C 	C 	0.03117 0.51813 0.63918 0.15000
C 	C 	0.06209 0.54681 0.66163 -0.11000
H 	H 	0.08764 0.56922 0.64624 0.07900
C 	C 	0.05987 0.54626 0.70384 0.07800
C 	C 	0.02671 0.51737 0.72351 -0.09600
C 	C 	0.99588 0.48881 0.70122 0.08000
C 	C 	0.99811 0.48907 0.65906 -0.11100
H 	H 	0.97439 0.46684 0.64168 0.08000
N 	N 	0.03332 0.51842 0.59591 -0.17800
C 	C 	0.06627 0.49153 0.57656 0.19200
C 	C 	0.06638 0.48856 0.53420 -0.05700
C 	C 	0.03259 0.51360 0.51201 0.03200
C 	C 	0.99969 0.54165 0.53221 -0.05600
C 	C 	0.00095 0.54399 0.57458 0.19100
C 	C 	0.09940 0.46065 0.51379 -0.01000
C 	C 	0.09858 0.45773 0.47170 -0.01000
C 	C 	0.06473 0.48268 0.44933 -0.05800
C 	C 	0.03165 0.51053 0.46956 0.03300
C 	C 	0.99767 0.53535 0.44739 -0.05800
C 	C 	0.96579 0.56654 0.50985 -0.01000
C 	C 	0.96471 0.56333 0.46779 -0.01000
C 	C 	0.06370 0.48061 0.40693 0.19200
N 	N 	0.03088 0.50572 0.38566 -0.17900
C 	C 	0.99753 0.53211 0.40505 0.19200
C 	C 	0.03291 0.50606 0.34237 0.14800
C 	C 	0.05825 0.54117 0.32225 -0.11200
C 	C 	0.05976 0.54191 0.28008 0.07500
C 	C 	0.03630 0.50746 0.25800 -0.09800
C 	C 	0.01101 0.47234 0.27795 0.07500
C 	C 	0.00920 0.47160 0.32017 -0.11200
O 	O 	0.97061 0.57054 0.59391 -0.19000
O 	O 	0.09749 0.46791 0.59778 -0.19200
O 	O 	0.09480 0.45492 0.38755 -0.19600
O 	O 	0.96553 0.55486 0.38389 -0.19300
H 	H 	0.98942 0.44462 0.33576 0.07900
H 	H 	0.07648 0.56777 0.33946 0.07700
H 	H 	0.94012 0.58829 0.52492 0.05700
H 	H 	0.93830 0.58275 0.45118 0.05600
H 	H 	0.12573 0.44114 0.53040 0.05600
H 	H 	0.12433 0.43606 0.45662 0.05500
H 	H 	0.03751 0.50809 0.22528 0.06100
H 	H 	0.02503 0.51699 0.75622 0.06900
Zn	Zn	0.79040 0.24866 0.98696 1.23100
C 	C 	0.78538 0.27833 0.90421 0.34500
O 	O 	0.74738 0.30075 0.99109 -0.44100
O 	O 	0.73817 0.27387 0.90604 -0.42300
O 	O 	0.67985 0.25699 0.98179 -0.48700
C 	C 	0.78356 0.16014 0.95117 0.31600
O 	O 	0.78809 0.18223 0.98538 -0.42900
O 	O 	0.75214 0.17356 0.92430 -0.43700
C 	C 	0.70035 0.29571 0.99312 0.35400
O 	O 	0.79195 0.24309 0.05808 -0.30700
Zn	Zn	0.70550 0.22067 0.93722 1.17900
O 	O 	0.81282 0.25961 0.93174 -0.36800
C 	C 	0.83499 0.26086 0.05505 0.30800
O 	O 	0.84923 0.26984 0.01870 -0.33500
Zn	Zn	0.98879 0.99597 0.02597 1.21900
C 	C 	0.08594 0.96235 0.02717 0.33100
O 	O 	0.95014 0.94926 0.05410 -0.42500
O 	O 	0.08938 0.98205 0.06274 -0.44500
O 	O 	0.01035 0.91994 0.09185 -0.44900
C 	C 	0.02777 0.07138 0.07070 0.32200
O 	O 	0.02582 0.05177 0.03527 -0.39700
O 	O 	0.01965 0.04689 0.10331 -0.45400
C 	C 	0.96951 0.91450 0.07250 0.31500
O 	O 	0.91972 0.04122 0.02661 -0.25500
Zn	Zn	0.03426 0.98150 0.10447 1.17900
O 	O 	0.04378 0.95858 0.00890 -0.43500
C 	C 	0.91558 0.03050 0.98888 0.30800
O 	O 	0.94948 0.00520 0.97432 -0.34100
C 	C 	0.87903 0.05169 0.96347 -0.06500
C 	C 	0.83019 0.04465 0.97291 0.03000
C 	C 	0.79654 0.07802 0.96336 -0.02900
C 	C 	0.81160 0.11859 0.94434 0.02800
C 	C 	0.85877 0.12156 0.92776 -0.10900
C 	C 	0.89256 0.08810 0.93821 0.10200
H 	H 	0.75982 0.07437 0.97433 0.05500
H 	H 	0.93015 0.09259 0.92976 0.10500
H 	H 	0.81913 0.01555 0.99115 0.06100
C 	C 	0.87490 0.16264 0.90309 0.78700
F 	F 	0.88913 0.19753 0.92874 -0.42100
F 	F 	0.91347 0.15177 0.87848 -0.43000
F 	F 	0.83793 0.17756 0.87859 -0.44700
C 	C 	0.85126 0.41017 0.77400 -0.02900
H 	H 	0.82783 0.43507 0.75839 0.05800
C 	C 	0.90589 0.40548 0.76751 0.01800
C 	C 	0.93621 0.43426 0.74141 0.00700
C 	C 	0.85944 0.40732 0.82015 -0.02100
H 	H 	0.84215 0.42934 0.84311 0.07200
C 	C 	0.91440 0.40305 0.81323 -0.02700
H 	H 	0.94296 0.42212 0.82998 0.05600
C 	C 	0.84572 0.35730 0.77202 -0.02100
H 	H 	0.81712 0.33816 0.75541 0.05300
C 	C 	0.85439 0.35501 0.81773 0.00800
C 	C 	0.82753 0.32733 0.84714 0.07400
C 	C 	0.90901 0.35041 0.81117 -0.01900
H 	H 	0.93254 0.32558 0.82677 0.07000
C 	C 	0.90089 0.35316 0.76504 -0.02900
H 	H 	0.91826 0.33119 0.74209 0.05500
C 	C 	0.80729 0.30486 0.87264 -0.06300
C 	C 	0.96270 0.45872 0.72196 -0.02600
C 	C 	0.88966 0.32541 0.19411 -0.02300
H 	H 	0.86356 0.30116 0.20838 0.05000
C 	C 	0.90021 0.32890 0.14869 0.00700
C 	C 	0.87702 0.30230 0.11654 0.05500
C 	C 	0.88741 0.37834 0.19613 -0.03200
H 	H 	0.85988 0.39819 0.21270 0.04800
C 	C 	0.89758 0.38131 0.15030 -0.02400
H 	H 	0.87800 0.40314 0.12852 0.05100
C 	C 	0.94478 0.32780 0.20252 -0.03200
H 	H 	0.96444 0.30611 0.22434 0.04800
C 	C 	0.94203 0.38022 0.20400 0.01700
C 	C 	0.96582 0.41080 0.23297 -0.00200
C 	C 	0.95246 0.38357 0.15856 -0.03300
H 	H 	0.97850 0.40779 0.14415 0.04100
C 	C 	0.95484 0.33078 0.15655 -0.02400
H 	H 	0.98237 0.31098 0.13994 0.05000
C 	C 	0.98603 0.43792 0.25469 -0.03100
C 	C 	0.85791 0.28238 0.08895 -0.06100
C 	C 	0.12958 0.94395 0.00835 -0.12100
C 	C 	0.12982 0.89856 0.99494 0.05800
C 	C 	0.17359 0.87634 0.98921 -0.06000
C 	C 	0.21752 0.89943 0.99669 0.06100
C 	C 	0.21746 0.94721 0.00357 -0.14100
C 	C 	0.17324 0.96883 0.01080 0.09100
H 	H 	0.17328 0.84016 0.98214 0.06200
H 	H 	0.17288 0.00436 0.02009 0.07500
H 	H 	0.09621 0.87940 0.99208 0.03800
C 	C 	0.26420 0.97474 0.00547 0.76700
F 	F 	0.25633 0.02023 0.99629 -0.42600
F 	F 	0.28323 0.97213 0.04391 -0.46100
F 	F 	0.29741 0.95829 0.97806 -0.44300
C 	C 	0.14428 0.67645 0.78424 -0.03200
H 	H 	0.12583 0.70083 0.76395 0.04900
C 	C 	0.14354 0.62416 0.77977 0.02000
C 	C 	0.11603 0.59803 0.74975 0.00200
C 	C 	0.19949 0.67504 0.79205 -0.02300
H 	H 	0.22693 0.69874 0.77883 0.04900
C 	C 	0.19825 0.62223 0.78701 -0.03300
H 	H 	0.22414 0.60205 0.76898 0.04900
C 	C 	0.13463 0.67068 0.82999 -0.02300
H 	H 	0.10862 0.69078 0.84799 0.04900
C 	C 	0.18932 0.66885 0.83732 0.00400
C 	C 	0.21290 0.69298 0.87074 0.04900
C 	C 	0.18852 0.61656 0.83280 -0.02300
H 	H 	0.20689 0.59212 0.85309 0.04700
C 	C 	0.13354 0.61812 0.82508 -0.03300
H 	H 	0.10614 0.59448 0.83846 0.04800
C 	C 	0.23045 0.71227 0.89938 -0.07200
C 	C 	0.09139 0.57515 0.72742 -0.02700
C 	C 	0.17433 0.70375 0.21341 -0.02200
H 	H 	0.19118 0.73169 0.23143 0.04200
C 	C 	0.17664 0.69943 0.16728 -0.00700
C 	C 	0.20202 0.73042 0.13955 0.05600
C 	C 	0.18588 0.65216 0.21709 -0.03600
H 	H 	0.21174 0.63699 0.23868 0.04400
C 	C 	0.18860 0.64841 0.17057 -0.02300
H 	H 	0.21723 0.63078 0.15334 0.03800
C 	C 	0.11955 0.69193 0.21178 -0.03500
H 	H 	0.09087 0.70946 0.22903 0.04700
C 	C 	0.13160 0.64093 0.21499 0.01900
C 	C 	0.10640 0.60704 0.24010 -0.00300
C 	C 	0.13401 0.63674 0.16886 -0.03600
H 	H 	0.11722 0.60883 0.15074 0.04000
C 	C 	0.12237 0.68817 0.16520 -0.02200
H 	H 	0.09649 0.70329 0.14359 0.04200
C 	C 	0.08536 0.57791 0.25918 -0.03100
C 	C 	0.22339 0.75425 0.11566 -0.11200
C 	C 	0.87807 0.79980 0.05271 -0.11300
C 	C 	0.92454 0.80086 0.03596 0.03500
C 	C 	0.95706 0.83604 0.04617 -0.05000
C 	C 	0.94350 0.87026 0.07341 0.02800
C 	C 	0.89913 0.86575 0.09443 -0.13000
C 	C 	0.86591 0.83142 0.08270 0.09900
H 	H 	0.99154 0.83849 0.03078 0.05200
H 	H 	0.83027 0.82986 0.09623 0.06300
H 	H 	0.93457 0.77596 0.01340 0.03600
C 	C 	0.88566 0.89937 0.12720 0.78800
F 	F 	0.86815 0.93877 0.10977 -0.45100
F 	F 	0.85048 0.88102 0.15241 -0.45400
F 	F 	0.92550 0.91036 0.15060 -0.47100
C 	C 	0.61926 0.85840 0.79695 -0.02900
H 	H 	0.59860 0.83326 0.77847 0.05500
C 	C 	0.61941 0.91052 0.79104 0.01900
C 	C 	0.58986 0.93487 0.76165 0.00100
C 	C 	0.61346 0.86562 0.84293 -0.02100
H 	H 	0.58845 0.84602 0.86289 0.06600
C 	C 	0.61326 0.91801 0.83662 -0.03100
H 	H 	0.58758 0.94195 0.85084 0.05000
C 	C 	0.67498 0.86028 0.80157 -0.02300
H 	H 	0.70069 0.83627 0.78749 0.05400
C 	C 	0.66868 0.86790 0.84712 0.00700
C 	C 	0.69403 0.84428 0.87963 0.05500
C 	C 	0.66882 0.92002 0.84120 -0.02400
H 	H 	0.68942 0.94518 0.85972 0.04800
C 	C 	0.67465 0.91290 0.79512 -0.03300
H 	H 	0.69952 0.93258 0.77510 0.05000
C 	C 	0.71276 0.82481 0.90743 -0.06400
C 	C 	0.56346 0.95567 0.73961 -0.02600
C 	C 	0.66079 0.84053 0.22973 -0.02900
H 	H 	0.68359 0.84659 0.25678 0.05300
C 	C 	0.61040 0.86030 0.22273 0.01800
C 	C 	0.58477 0.89148 0.24961 0.00200
C 	C 	0.67461 0.85347 0.18583 -0.02100
H 	H 	0.70926 0.86969 0.17620 0.06900
C 	C 	0.62390 0.87365 0.17927 -0.03000
H 	H 	0.61637 0.90703 0.16474 0.05000
C 	C 	0.64177 0.79321 0.21502 -0.02300
H 	H 	0.64936 0.75979 0.22944 0.04600
C 	C 	0.65519 0.80671 0.17158 0.00100
C 	C 	0.67991 0.77824 0.14186 0.06500
C 	C 	0.60482 0.82653 0.16465 -0.02400
H 	H 	0.58196 0.82056 0.13762 0.05300
C 	C 	0.59094 0.81354 0.20850 -0.03300
H 	H 	0.55626 0.79738 0.21810 0.04600
C 	C 	0.70022 0.75631 0.11636 -0.09700
C 	C 	0.56286 0.91842 0.26986 -0.03000
C 	C 	0.10969 0.19437 0.06173 -0.10800
C 	C 	0.11965 0.16305 0.09254 0.03600
C 	C 	0.08950 0.12491 0.09854 -0.04300
C 	C 	0.04871 0.11797 0.07410 0.02900
C 	C 	0.03467 0.15314 0.04719 -0.12200
C 	C 	0.06691 0.18983 0.03951 0.09800
H 	H 	0.09975 0.09909 0.12025 0.05000
H 	H 	0.05885 0.21460 0.01620 0.06500
H 	H 	0.15227 0.16682 0.11031 0.04100
C 	C 	0.98627 0.15121 0.02593 0.78100
F 	F 	0.97139 0.19469 0.01564 -0.43100
F 	F 	0.99010 0.12554 0.99113 -0.43000
F 	F 	0.95128 0.13189 0.05071 -0.44200
C 	C 	0.36400 0.15353 0.83004 -0.02300
H 	H 	0.38514 0.18113 0.84516 0.06400
C 	C 	0.31155 0.13975 0.83993 0.01000
C 	C 	0.28417 0.16068 0.87278 0.06000
C 	C 	0.35177 0.15159 0.78448 -0.03000
H 	H 	0.36328 0.17719 0.76152 0.05200
C 	C 	0.29871 0.13817 0.79486 -0.02400
H 	H 	0.26605 0.15312 0.78102 0.05300
C 	C 	0.37726 0.10238 0.82934 -0.02600
H 	H 	0.40986 0.08750 0.84337 0.05700
C 	C 	0.36465 0.10066 0.78422 0.01800
C 	C 	0.39647 0.07764 0.75558 0.00500
C 	C 	0.31221 0.08680 0.79405 -0.02800
H 	H 	0.29118 0.05913 0.77893 0.05600
C 	C 	0.32452 0.08885 0.83958 -0.02100
H 	H 	0.31314 0.06317 0.86253 0.07300
C 	C 	0.42477 0.05738 0.73482 -0.02400
C 	C 	0.26395 0.17716 0.90139 -0.06000
C 	C 	0.35048 0.15970 0.21882 -0.02400
H 	H 	0.32772 0.18358 0.23627 0.04200
C 	C 	0.35308 0.15695 0.17259 -0.00300
C 	C 	0.32538 0.18441 0.14407 0.06000
C 	C 	0.40639 0.15754 0.22055 -0.03400
H 	H 	0.43012 0.17907 0.23997 0.04700
C 	C 	0.40847 0.15527 0.17387 -0.02100
H 	H 	0.43342 0.17549 0.15433 0.04800
C 	C 	0.34721 0.10674 0.22069 -0.03300
H 	H 	0.32227 0.08648 0.24020 0.04700
C 	C 	0.40260 0.10507 0.22196 0.01900
C 	C 	0.43039 0.07494 0.24820 0.00300
C 	C 	0.40511 0.10241 0.17572 -0.03000
H 	H 	0.42781 0.07855 0.15820 0.05300
C 	C 	0.34938 0.10447 0.17408 -0.02100
H 	H 	0.32571 0.08285 0.15469 0.05800
C 	C 	0.45359 0.04898 0.26840 -0.03000
C 	C 	0.30235 0.20545 0.11967 -0.10100
C 	C 	0.31793 0.35092 0.98594 -0.09500
C 	C 	0.31207 0.39850 0.98748 0.02900
C 	C 	0.34918 0.42796 0.97465 -0.04400
C 	C 	0.39267 0.41045 0.95998 0.02900
C 	C 	0.39742 0.36254 0.95507 -0.12700
C 	C 	0.36001 0.33312 0.96861 0.09200
H 	H 	0.34501 0.46458 0.97787 0.05900
H 	H 	0.36418 0.29642 0.96668 0.07600
H 	H 	0.27936 0.41278 0.99980 0.03800
C 	C 	0.44373 0.34256 0.93864 0.78800
F 	F 	0.47996 0.34752 0.96698 -0.46100
F 	F 	0.43823 0.29648 0.92986 -0.45300
F 	F 	0.45735 0.36473 0.90348 -0.48100
C 	C 	0.43732 0.61831 0.03675 -0.08000
C 	C 	0.40129 0.62727 0.06505 0.02100
C 	C 	0.38033 0.67037 0.06653 -0.04100
C 	C 	0.39425 0.70461 0.03890 0.02300
C 	C 	0.43478 0.69751 0.01357 -0.13000
C 	C 	0.45614 0.65405 0.01296 0.07100
H 	H 	0.35054 0.67608 0.08705 0.05300
H 	H 	0.48521 0.64703 0.99206 0.07800
H 	H 	0.38733 0.60003 0.08416 0.03400
C 	C 	0.45431 0.73547 0.98655 0.80400
F 	F 	0.49443 0.72185 0.96497 -0.44600
F 	F 	0.41929 0.74840 0.95928 -0.44500
F 	F 	0.46780 0.77276 0.00979 -0.45800
C 	C 	0.67029 0.33554 0.00269 -0.13600
C 	C 	0.62315 0.32922 0.01727 0.04900
C 	C 	0.59142 0.36590 0.01801 -0.04000
C 	C 	0.60612 0.40891 0.00324 0.02100
C 	C 	0.65573 0.41719 0.99515 -0.12300
C 	C 	0.68724 0.37991 0.99375 0.11800
H 	H 	0.55404 0.35983 0.02639 0.08800
H 	H 	0.72410 0.38502 0.98353 0.07200
H 	H 	0.61035 0.29549 0.02615 0.04300
C 	C 	0.67409 0.46445 0.98346 0.79600
F 	F 	0.72366 0.46815 0.98816 -0.43200
F 	F 	0.66298 0.47265 0.94353 -0.45000
F 	F 	0.65329 0.49741 0.00747 -0.45900
C 	C 	0.60757 0.57460 0.94651 -0.08200
C 	C 	0.60470 0.59871 0.98300 0.06700
C 	C 	0.64492 0.62222 0.99806 -0.01200
C 	C 	0.68882 0.62215 0.97705 0.03400
C 	C 	0.69262 0.59716 0.94054 -0.10100
C 	C 	0.65118 0.57479 0.92487 0.12300
H 	H 	0.64182 0.64110 0.02603 0.06100
H 	H 	0.65299 0.55710 0.89623 0.08700
H 	H 	0.57136 0.59878 0.00009 0.03600
C 	C 	0.74029 0.59482 0.91808 0.79100
F 	F 	0.77718 0.58443 0.94451 -0.43600
F 	F 	0.73910 0.56147 0.88848 -0.42700
F 	F 	0.75022 0.63655 0.90001 -0.44000
