data_crystal

_cell_length_a 18.54572
_cell_length_b 18.82114
_cell_length_c 26.24809
_cell_angle_alpha 95.43000
_cell_angle_beta  95.42991
_cell_angle_gamma 126.43451

_symmetry_space_group_name_	'P 1'
_symmetry_space_group_name_H-M	'P 1'

loop_
_symmetry_equiv_pos_as_xyz
  x,y,z

loop_
_atom_site_label
_atom_site_type_symbol
_atom_site_fract_x
_atom_site_fract_y
_atom_site_fract_z
_atom_site_charge
C 	C 	0.94599 0.03244 0.99413 0.10600
N 	N 	0.03671 0.07969 0.99384 -0.11900
C 	C 	0.07594 0.03752 0.99523 0.11900
N 	N 	0.02464 0.94867 0.99675 -0.11600
C 	C 	0.93418 0.90151 0.99660 0.11600
N 	N 	0.89490 0.94344 0.99561 -0.12100
C 	C 	0.91134 0.99924 0.45760 0.13200
N 	N 	0.00282 0.05184 0.45984 -0.13300
C 	C 	0.04720 0.01498 0.45906 0.12400
N 	N 	0.99954 0.92479 0.45510 -0.13300
C 	C 	0.90845 0.87194 0.45442 0.12400
N 	N 	0.86388 0.90904 0.45554 -0.13100
Cu	Cu	0.61551 0.20085 0.00727 0.92500
Cu	Cu	0.67321 0.20904 0.89267 0.87400
Cu	Cu	0.65374 0.34264 0.94314 0.90500
Cu	Cu	0.63118 0.37106 0.05202 0.89800
C 	C 	0.65983 0.26607 0.11760 0.30600
O 	O 	0.48636 0.15320 0.01450 -0.34000
C 	C 	0.62495 0.29459 0.82938 0.30000
O 	O 	0.69300 0.34127 0.01321 -0.64600
O 	O 	0.59311 0.21111 0.93422 -0.63400
O 	O 	0.66756 0.13489 0.99589 -0.34900
O 	O 	0.76324 0.23160 0.94695 -0.42600
O 	O 	0.62025 0.30451 0.10925 -0.36900
O 	O 	0.72200 0.47156 0.95378 -0.36500
C 	C 	0.73181 0.52369 0.99556 0.30800
C 	C 	0.45286 0.19491 0.00011 0.24800
O 	O 	0.50803 0.27874 0.99442 -0.36900
O 	O 	0.68473 0.49045 0.03294 -0.39300
O 	O 	0.65692 0.21295 0.07947 -0.34200
C 	C 	0.74240 0.17190 0.97645 0.28800
O 	O 	0.62267 0.34140 0.86921 -0.35600
O 	O 	0.61439 0.21982 0.83351 -0.40900
H 	H 	0.75997 0.37924 0.02501 0.17100
H 	H 	0.52833 0.17297 0.91658 0.18100
Cu	Cu	0.76241 0.34490 0.44460 0.93000
Cu	Cu	0.75267 0.28712 0.55883 0.87400
Cu	Cu	0.62087 0.31175 0.50910 0.90100
Cu	Cu	0.58432 0.32104 0.39849 0.90200
C 	C 	0.69691 0.30097 0.33424 0.30700
O 	O 	0.80491 0.47137 0.43681 -0.33800
C 	C 	0.67064 0.34004 0.62266 0.30000
O 	O 	0.62016 0.26690 0.43962 -0.63800
O 	O 	0.75323 0.36769 0.51759 -0.64000
O 	O 	0.82744 0.29067 0.45598 -0.35500
O 	O 	0.72668 0.19735 0.50419 -0.42900
O 	O 	0.65618 0.33798 0.34281 -0.36800
O 	O 	0.49037 0.24882 0.50067 -0.36600
C 	C 	0.43340 0.23283 0.45889 0.29500
C 	C 	0.75923 0.50158 0.45018 0.27700
O 	O 	0.67370 0.44482 0.45519 -0.39000
O 	O 	0.45907 0.25177 0.41364 -0.38000
O 	O 	0.75011 0.30336 0.37251 -0.34300
C 	C 	0.78721 0.21605 0.47498 0.28600
O 	O 	0.62581 0.34606 0.58317 -0.35600
O 	O 	0.74464 0.34687 0.61841 -0.40900
H 	H 	0.58271 0.20059 0.43024 0.17400
H 	H 	0.79342 0.43164 0.53512 0.17900
C 	C 	0.55459 0.25305 0.73592 -0.03400
C 	C 	0.62457 0.31808 0.77753 -0.08300
C 	C 	0.70124 0.39900 0.76747 0.11900
C 	C 	0.71191 0.40955 0.71599 -0.03200
C 	C 	0.64646 0.34018 0.67439 -0.08400
C 	C 	0.56508 0.26380 0.68445 0.12000
Br	Br	0.47057 0.17016 0.62852 -0.24900
H 	H 	0.49406 0.19191 0.74349 0.06900
H 	H 	0.77343 0.46972 0.70840 0.06900
Br	Br	0.79535 0.49315 0.82338 -0.24000
C 	C 	0.76268 0.34114 0.20361 -0.03700
C 	C 	0.68490 0.26305 0.17165 -0.07500
C 	C 	0.62266 0.18954 0.19421 0.13200
C 	C 	0.63227 0.19923 0.24850 -0.03700
C 	C 	0.70427 0.28130 0.28039 -0.07500
C 	C 	0.77298 0.35029 0.25787 0.13200
Br	Br	0.87871 0.45940 0.30061 -0.21000
H 	H 	0.81253 0.39678 0.18637 0.06200
H 	H 	0.58088 0.14471 0.26576 0.06100
Br	Br	0.52156 0.07713 0.15161 -0.21200
C 	C 	0.85916 0.77497 0.45398 0.00100
C 	C 	0.82485 0.71581 0.40611 -0.03800
C 	C 	0.79456 0.62714 0.40431 0.02000
C 	C 	0.79853 0.59685 0.45098 -0.06700
C 	C 	0.83058 0.65529 0.49894 0.00400
C 	C 	0.86092 0.74404 0.50068 -0.02100
H 	H 	0.82402 0.73956 0.37013 0.05600
H 	H 	0.83153 0.63160 0.53493 0.03900
C 	C 	0.89419 0.80313 0.55053 0.10000
C 	C 	0.75884 0.56761 0.35441 0.08300
N 	N 	0.92088 0.85054 0.59045 -0.09900
N 	N 	0.73021 0.52027 0.31430 -0.09700
C 	C 	0.81751 0.15879 0.46936 -0.07800
C 	C 	0.82914 0.12608 0.51292 0.00300
C 	C 	0.85205 0.06722 0.50845 -0.02200
C 	C 	0.86511 0.04138 0.46014 -0.01100
C 	C 	0.85108 0.07188 0.41623 -0.03900
C 	C 	0.82684 0.12986 0.42042 0.02000
H 	H 	0.82062 0.14678 0.55046 0.02400
H 	H 	0.86134 0.05228 0.37900 0.05100
C 	C 	0.81002 0.15755 0.37413 0.08500
C 	C 	0.86397 0.03510 0.55397 0.08800
N 	N 	0.79664 0.17939 0.33686 -0.09500
N 	N 	0.87354 0.00934 0.59041 -0.10700
C 	C 	0.14673 0.07276 0.46101 0.00300
C 	C 	0.18550 0.14205 0.43210 -0.04100
C 	C 	0.27955 0.19758 0.43301 0.02200
C 	C 	0.33543 0.18103 0.46111 -0.07000
C 	C 	0.29691 0.11292 0.49087 0.01100
C 	C 	0.20364 0.06040 0.49206 -0.03200
H 	H 	0.14236 0.15307 0.40907 0.05900
H 	H 	0.33964 0.10062 0.51305 0.05800
C 	C 	0.16785 0.99688 0.52697 0.12100
C 	C 	0.31849 0.27368 0.40701 0.08300
N 	N 	0.13928 0.94605 0.55495 -0.10000
N 	N 	0.34958 0.33462 0.38619 -0.10700
C 	C 	0.78394 0.62045 0.99608 -0.06100
C 	C 	0.76494 0.64974 0.95321 0.01300
C 	C 	0.81200 0.74159 0.95349 -0.02500
C 	C 	0.87891 0.80501 0.99708 0.01800
C 	C 	0.89791 0.77577 0.03991 -0.05500
C 	C 	0.85111 0.68397 0.03961 0.01200
H 	H 	0.71317 0.60090 0.91975 0.05800
H 	H 	0.95011 0.82472 0.07321 0.05700
C 	C 	0.87449 0.65556 0.08334 0.07300
C 	C 	0.79279 0.77032 0.90842 0.10500
N 	N 	0.89321 0.63280 0.11835 -0.11200
N 	N 	0.77746 0.79341 0.87235 -0.10100
C 	C 	0.79650 0.13821 0.98176 -0.06800
C 	C 	0.81658 0.11166 0.93685 0.00700
C 	C 	0.86889 0.08062 0.94067 -0.03000
C 	C 	0.90183 0.07605 0.98990 0.01900
C 	C 	0.88345 0.10420 0.03491 -0.05900
C 	C 	0.83135 0.13563 0.03120 0.01400
H 	H 	0.79061 0.11436 0.89884 0.02300
H 	H 	0.90883 0.10062 0.07281 0.05500
C 	C 	0.81622 0.16722 0.07831 0.08300
C 	C 	0.88717 0.05205 0.89380 0.09500
N 	N 	0.80441 0.19249 0.11621 -0.09700
N 	N 	0.90181 0.02912 0.85628 -0.10500
C 	C 	0.35603 0.15343 0.99903 -0.03800
C 	C 	0.29968 0.13233 0.95161 -0.00400
C 	C 	0.20902 0.09966 0.95025 -0.02100
C 	C 	0.17426 0.08805 0.99678 0.01400
C 	C 	0.23137 0.11163 0.04431 -0.05100
C 	C 	0.32194 0.14436 0.04575 0.00200
H 	H 	0.32653 0.14155 0.91582 0.04300
H 	H 	0.20453 0.10253 0.08012 0.05600
C 	C 	0.37992 0.17032 0.09547 0.08600
C 	C 	0.15174 0.07720 0.90091 0.09900
N 	N 	0.42604 0.19115 0.13541 -0.09600
N 	N 	0.10581 0.05918 0.86140 -0.09900
