data_crystal

_cell_length_a 24.44036
_cell_length_b 24.42147
_cell_length_c 26.42659
_cell_angle_alpha 95.54485
_cell_angle_beta  95.54388
_cell_angle_gamma 125.88072

_symmetry_space_group_name_	'P 1'
_symmetry_space_group_name_H-M	'P 1'

loop_
_symmetry_equiv_pos_as_xyz
  x,y,z

loop_
_atom_site_label
_atom_site_type_symbol
_atom_site_fract_x
_atom_site_fract_y
_atom_site_fract_z
_atom_site_charge
O 	O 	0.14401 0.01321 0.38438 -0.19400
H 	H 	0.74965 0.01159 0.46593 0.06800
C 	C 	0.05270 0.02497 0.00068 0.09800
C 	C 	0.11169 0.04428 0.39254 0.10500
H 	H 	0.26450 0.02995 0.38949 0.07300
C 	C 	0.15556 0.02514 0.01141 -0.09200
H 	H 	0.26271 0.01620 0.00700 0.07400
H 	H 	0.77526 0.05288 0.06981 0.07200
N 	N 	0.01681 0.04056 0.42060 -0.12400
C 	C 	0.20616 0.06963 0.37588 0.11700
N 	N 	0.03022 0.06284 0.01358 -0.11300
C 	C 	0.26652 0.07453 0.38427 -0.08400
C 	C 	0.12676 0.05915 0.00499 0.10400
C 	C 	0.79949 0.06103 0.47093 -0.08200
O 	O 	0.85895 0.00868 0.45974 -0.20100
C 	C 	0.85987 0.06576 0.47341 0.11100
C 	C 	0.15043 0.11289 0.38881 -0.08500
C 	C 	0.27454 0.06665 0.01652 -0.09400
C 	C 	0.22350 0.07433 0.02563 0.02800
C 	C 	0.81583 0.09449 0.05395 -0.08600
C 	C 	0.86262 0.08847 0.03250 0.11700
H 	H 	0.70294 0.09302 0.46412 0.05100
O 	O 	0.87455 0.04149 0.04343 -0.19700
C 	C 	0.21001 0.12856 0.37774 0.02300
H 	H 	0.71743 0.11682 0.04960 0.06200
C 	C 	0.32961 0.13967 0.38976 0.01400
H 	H 	0.40024 0.12285 0.42647 0.05900
C 	C 	0.80572 0.12208 0.47194 0.00200
H 	H 	0.14342 0.14978 0.40651 0.06600
C 	C 	0.34073 0.12652 0.01761 0.12700
O 	O 	0.17431 0.13090 0.01472 -0.19900
O 	O 	0.39135 0.12543 0.99892 -0.18600
C 	C 	0.75471 0.12637 0.45669 -0.05600
C 	C 	0.04469 0.00764 0.40883 0.09700
C 	C 	0.92557 0.04267 0.44949 0.10500
C 	C 	0.92151 0.12779 0.47215 0.02700
N 	N 	0.48105 0.12130 0.76145 -0.11100
N 	N 	0.49457 0.12114 0.61086 -0.11200
C 	C 	0.23428 0.13667 0.02686 0.11400
C 	C 	0.91295 0.14083 0.01159 0.02100
H 	H 	0.00748 0.14690 0.43968 0.07200
N 	N 	0.54429 0.13909 0.14449 -0.10300
C 	C 	0.39021 0.15763 0.41392 -0.06300
C 	C 	0.82301 0.15598 0.05419 0.01200
C 	C 	0.93779 0.07168 0.02739 0.10600
C 	C 	0.77030 0.15986 0.05021 -0.05300
C 	C 	0.95419 0.00593 0.43464 0.08800
N 	N 	0.58324 0.16490 0.29973 -0.11700
C 	C 	0.96245 0.03113 0.01379 0.08900
C 	C 	0.96298 0.11334 0.45661 -0.09700
C 	C 	0.96217 0.13243 0.01016 -0.09000
C 	C 	0.27345 0.19427 0.39113 -0.08900
C 	C 	0.52710 0.16902 0.74906 0.08900
C 	C 	0.86590 0.18237 0.46687 0.11800
C 	C 	0.92463 0.18553 0.46414 -0.09400
C 	C 	0.53600 0.16943 0.64182 0.08500
C 	C 	0.35237 0.18923 0.02176 0.00500
C 	C 	0.33367 0.19878 0.39466 0.11800
C 	C 	0.58829 0.19267 0.16896 0.09600
C 	C 	0.29879 0.19520 0.02250 -0.08100
C 	C 	0.43456 0.19389 0.99228 0.04000
C 	C 	0.78618 0.19191 0.44606 0.03400
O 	O 	0.68037 0.19517 0.01561 -0.35900
C 	C 	0.92127 0.20270 0.01234 -0.08700
O 	O 	0.53729 0.20254 0.01508 -0.33200
C 	C 	0.87293 0.20812 0.03194 0.11800
H 	H 	0.57379 0.20390 0.91925 0.18500
C 	C 	0.61539 0.21119 0.27946 0.07800
O 	O 	0.70284 0.20410 0.47481 -0.42700
C 	C 	0.78968 0.21434 0.02567 0.04100
H 	H 	0.00231 0.15706 0.98750 0.07100
C 	C 	0.73951 0.22279 0.00064 0.26000
C 	C 	0.42989 0.22745 0.43227 0.05000
C 	C 	0.50821 0.22836 0.99399 0.25000
C 	C 	0.40971 0.23108 0.00351 -0.05100
H 	H 	0.96996 0.23007 0.45439 0.07100
C 	C 	0.75408 0.22730 0.45003 0.26000
O 	O 	0.85752 0.22958 0.44989 -0.18700
C 	C 	0.58482 0.22884 0.73356 0.00300
H 	H 	0.27600 0.23985 0.40135 0.07300
O 	O 	0.64518 0.23024 0.83914 -0.40600
C 	C 	0.58792 0.22996 0.68062 0.00200
O 	O 	0.62192 0.23674 0.93821 -0.64400
H 	H 	0.30584 0.24223 0.01709 0.07000
Cu	Cu	0.68867 0.23461 0.90551 0.86900
H 	H 	0.96114 0.24347 0.99544 0.06600
Cu	Cu	0.63666 0.24238 0.01368 0.93200
O 	O 	0.85530 0.24828 0.01364 -0.18900
H 	H 	0.60917 0.25151 0.40895 0.17000
O 	O 	0.53008 0.25089 0.48435 -0.36000
O 	O 	0.39729 0.25756 0.42053 -0.18400
C 	C 	0.64344 0.25986 0.19962 0.00600
Cu	Cu	0.71763 0.25535 0.53973 0.87500
O 	O 	0.75540 0.26115 0.96515 -0.41400
O 	O 	0.66597 0.26458 0.08720 -0.35200
C 	C 	0.65573 0.26925 0.25410 -0.00200
C 	C 	0.50455 0.26893 0.44904 0.25400
O 	O 	0.61050 0.27335 0.57292 -0.37500
C 	C 	0.64350 0.28034 0.82651 0.28300
H 	H 	0.43960 0.28667 0.01022 0.05000
C 	C 	0.65616 0.28561 0.61251 0.28900
C 	C 	0.63754 0.28635 0.77141 -0.06300
O 	O 	0.70889 0.28584 0.60544 -0.40900
O 	O 	0.54657 0.28991 0.98232 -0.38400
O 	O 	0.78619 0.28949 0.43955 -0.34100
C 	C 	0.64278 0.28933 0.66558 -0.06500
Cu	Cu	0.62733 0.29325 0.50304 0.89800
O 	O 	0.64055 0.29656 0.43286 -0.63900
N 	N 	0.00685 0.95538 0.98631 -0.12200
Cu	Cu	0.66274 0.33449 0.93578 0.89800
Cu	Cu	0.63823 0.37218 0.03744 0.89700
C 	C 	0.66462 0.30907 0.11862 0.29000
O 	O 	0.68975 0.34680 0.00882 -0.64000
O 	O 	0.63219 0.33417 0.10218 -0.37400
O 	O 	0.67653 0.45788 0.00797 -0.37200
O 	O 	0.63743 0.31897 0.86059 -0.36800
Cu	Cu	0.63498 0.36633 0.41458 0.89700
C 	C 	0.70893 0.34805 0.34023 0.28400
O 	O 	0.68875 0.38468 0.35804 -0.37400
O 	O 	0.70936 0.43846 0.48337 -0.36000
O 	O 	0.54395 0.32869 0.43440 -0.36300
C 	C 	0.68786 0.34812 0.75603 -0.00100
C 	C 	0.69009 0.34967 0.70304 0.00300
C 	C 	0.70624 0.33541 0.28402 -0.06000
C 	C 	0.68317 0.31644 0.17504 -0.06100
H 	H 	0.13083 0.97136 0.99606 0.07200
H 	H 	0.66561 0.56189 0.99398 0.05800
O 	O 	0.74540 0.33677 0.37165 -0.34600
O 	O 	0.70915 0.43091 0.93621 -0.35800
C 	C 	0.69662 0.46959 0.96287 0.26000
Cu	Cu	0.74612 0.34112 0.44466 0.92900
O 	O 	0.72722 0.33263 0.51605 -0.63800
C 	C 	0.77492 0.47514 0.48118 0.25200
C 	C 	0.74922 0.39080 0.25947 0.00500
C 	C 	0.73774 0.38128 0.20495 0.00100
C 	C 	0.69127 0.56862 0.96135 -0.05900
H 	H 	0.70845 0.68971 0.99012 0.07200
C 	C 	0.73840 0.40942 0.79471 0.08300
C 	C 	0.74136 0.41309 0.68698 0.08300
H 	H 	0.77953 0.69062 0.50693 0.07300
H 	H 	0.74003 0.37857 0.02198 0.17700
H 	H 	0.75614 0.37610 0.54191 0.18100
O 	O 	0.78989 0.58457 0.50982 -0.18700
C 	C 	0.73786 0.68819 0.96261 -0.08400
C 	C 	0.72493 0.62595 0.94118 0.01300
C 	C 	0.71743 0.53394 0.94671 0.04800
O 	O 	0.80020 0.44490 0.46113 -0.34700
C 	C 	0.78183 0.43815 0.17960 0.07700
C 	C 	0.81679 0.69164 0.48709 -0.08900
C 	C 	0.81674 0.55075 0.49176 0.04600
N 	N 	0.78224 0.46367 0.67413 -0.11100
N 	N 	0.77870 0.45833 0.82557 -0.10300
C 	C 	0.80486 0.45762 0.29035 0.09600
C 	C 	0.83448 0.64731 0.49482 0.11900
C 	C 	0.77100 0.62478 0.91549 0.12000
O 	O 	0.76799 0.56632 0.91665 -0.17900
C 	C 	0.79380 0.74916 0.95100 0.11600
C 	C 	0.84532 0.73388 0.45038 0.02300
H 	H 	0.84309 0.81795 0.47958 0.07000
N 	N 	0.81696 0.48349 0.15933 -0.11500
C 	C 	0.85606 0.79464 0.45088 -0.08400
O 	O 	0.82284 0.81312 0.98114 -0.19600
C 	C 	0.87306 0.59026 0.46892 -0.05700
N 	N 	0.84921 0.51089 0.31504 -0.10800
C 	C 	0.89246 0.73537 0.42469 0.11800
C 	C 	0.88387 0.65099 0.47071 0.01400
H 	H 	0.88869 0.56945 0.44054 0.07000
C 	C 	0.83009 0.68648 0.90764 -0.08900
C 	C 	0.83758 0.74758 0.92257 0.02400
C 	C 	0.91184 0.69287 0.43377 -0.08300
C 	C 	0.90903 0.83074 0.42411 0.10500
H 	H 	0.87078 0.68734 0.89365 0.07400
C 	C 	0.88870 0.84893 0.96943 0.10400
N 	N 	0.91919 0.93790 0.43653 -0.11200
O 	O 	0.93417 0.79538 0.40587 -0.19500
C 	C 	0.89786 0.81070 0.93438 -0.08700
N 	N 	0.91714 0.96160 0.00081 -0.10100
H 	H 	0.94884 0.69371 0.41368 0.07600
C 	C 	0.94728 0.90497 0.42485 0.09700
C 	C 	0.93892 0.92374 0.98605 0.09400
H 	H 	0.94708 0.82329 0.92872 0.06500
N 	N 	0.00983 0.94001 0.41097 -0.09900
