data_crystal

_cell_length_a 21.12816
_cell_length_b 21.58745
_cell_length_c 31.20185
_cell_angle_alpha 60.88983
_cell_angle_beta  118.79187
_cell_angle_gamma 133.13468

_symmetry_space_group_name_	'P 1'
_symmetry_space_group_name_H-M	'P 1'

loop_
_symmetry_equiv_pos_as_xyz
  x,y,z

loop_
_atom_site_label
_atom_site_type_symbol
_atom_site_fract_x
_atom_site_fract_y
_atom_site_fract_z
_atom_site_charge
Co	Co	0.04032 0.02571 0.04261 1.17800
Co	Co	0.08019 0.90168 0.04721 1.18200
O 	O 	0.03441 0.12158 0.03473 -0.44700
C 	C 	0.08202 0.20849 0.16118 0.31100
C 	C 	0.15789 0.86860 0.15466 0.30900
O 	O 	0.03573 0.14343 0.19535 -0.37900
O 	O 	0.08836 0.19326 0.12688 -0.36400
O 	O 	0.17801 0.92507 0.11183 -0.38800
O 	O 	0.10267 0.85592 0.17271 -0.34700
O 	O 	0.02986 0.93050 0.07299 -0.72400
Co	Co	0.07668 0.02561 0.55093 1.17800
Co	Co	0.01003 0.08307 0.59484 1.18800
Co	Co	0.11362 0.89771 0.55581 1.17900
O 	O 	0.06021 0.11613 0.53907 -0.42800
C 	C 	0.07991 0.22260 0.63895 0.35200
C 	C 	0.19703 0.86721 0.66280 0.31200
O 	O 	0.10240 0.19617 0.62156 -0.36900
O 	O 	0.13826 0.84880 0.68092 -0.34800
O 	O 	0.07357 0.93419 0.58380 -0.73700
C 	C 	0.02108 0.99314 0.76978 0.32400
C 	C 	0.06828 0.03662 0.88894 0.05300
C 	C 	0.08614 0.03294 0.85220 -0.14000
C 	C 	0.18030 0.09559 0.84488 0.79100
H 	H 	0.12155 0.08569 0.91043 0.07200
C 	C 	0.04660 0.03280 0.33338 0.03100
C 	C 	0.04026 0.03387 0.37644 -0.10800
C 	C 	0.08278 0.12036 0.38449 0.78100
H 	H 	0.08596 0.09396 0.30812 0.07300
F 	F 	0.12131 0.19035 0.34535 -0.45000
F 	F 	0.14834 0.13407 0.42865 -0.45700
F 	F 	0.01859 0.11911 0.38737 -0.44300
C 	C 	0.14213 0.31160 0.64662 -0.11200
C 	C 	0.15831 0.32093 0.69308 -0.03300
H 	H 	0.14066 0.26478 0.72523 0.10300
C 	C 	0.18757 0.72825 0.70446 0.18800
O 	O 	0.10612 0.68164 0.71356 -0.27900
H 	H 	0.11832 0.67379 0.75009 0.16700
C 	C 	0.11817 0.35957 0.11583 0.18700
C 	C 	0.12554 0.29926 0.16114 -0.10700
O 	O 	0.08447 0.34109 0.07020 -0.27100
H 	H 	0.13712 0.36695 0.05961 0.15600
C 	C 	0.14348 0.72651 0.19749 0.18900
H 	H 	0.12881 0.60757 0.21509 0.07900
O 	O 	0.06358 0.68305 0.20731 -0.28300
H 	H 	0.07743 0.67692 0.24378 0.17000
H 	H 	0.13719 0.55512 0.16765 0.07000
O 	O 	0.16035 0.03052 0.00995 -0.42300
O 	O 	0.19112 0.02398 0.51520 -0.39800
C 	C 	0.16180 0.38421 0.60463 0.19300
H 	H 	0.17696 0.61244 0.72049 0.07900
C 	C 	0.14222 0.43777 0.11729 -0.09500
Co	Co	0.03586 0.86860 0.63766 1.19200
O 	O 	0.04705 0.98939 0.62421 -0.54500
O 	O 	0.00634 0.99406 0.47878 -0.28600
O 	O 	0.02474 0.06219 0.73692 -0.36900
O 	O 	0.03880 0.76697 0.59381 -0.37600
O 	O 	0.14368 0.37590 0.55844 -0.27900
H 	H 	0.14033 0.48546 0.08229 0.07700
C 	C 	0.15497 0.31767 0.20736 -0.03900
C 	C 	0.16951 0.67810 0.20119 -0.09700
H 	H 	0.15890 0.27109 0.24253 0.09600
C 	C 	0.01551 0.97266 0.82162 0.06000
O 	O 	0.01237 0.93733 0.75575 -0.31900
H 	H 	0.15357 0.39434 0.74431 0.15700
H 	H 	0.18337 0.57262 0.66450 0.06900
O 	O 	0.17773 0.09813 0.05631 -0.39600
F 	F 	0.19228 0.17104 0.80887 -0.45400
C 	C 	0.00509 0.94470 0.46341 0.31000
F 	F 	0.19637 0.05800 0.82950 -0.45200
H 	H 	0.19912 0.39134 0.55713 0.16600
C 	C 	0.19772 0.81893 0.18151 -0.10700
O 	O 	0.00684 0.87793 0.49570 -0.37200
C 	C 	0.17463 0.45722 0.16368 -0.02600
C 	C 	0.17683 0.39451 0.20869 0.13900
C 	C 	0.19576 0.46434 0.60924 -0.09400
C 	C 	0.19183 0.40075 0.69763 0.14000
O 	O 	0.21441 0.92298 0.61932 -0.39200
C 	C 	0.21161 0.09329 0.03284 0.33100
O 	O 	0.21248 0.10507 0.55394 -0.36500
C 	C 	0.20745 0.58823 0.17277 -0.07700
H 	H 	0.21282 0.52042 0.57701 0.07900
O 	O 	0.20890 0.40867 0.74371 -0.25600
C 	C 	0.21340 0.47389 0.65603 -0.02800
O 	O 	0.20383 0.40985 0.25436 -0.24200
O 	O 	0.00777 0.77039 0.08429 -0.37400
C 	C 	0.21652 0.68314 0.70744 -0.09400
O 	O 	0.99713 0.17768 0.64038 -0.42500
O 	O 	0.99096 0.01098 0.96711 -0.36000
O 	O 	0.99579 0.95059 0.24179 -0.33800
Co	Co	0.99360 0.86561 0.12757 1.17500
C 	C 	0.99449 0.95389 0.31956 0.01400
Co	Co	0.98474 0.08773 0.09110 1.17200
O 	O 	0.97579 0.88426 0.98550 -0.34700
C 	C 	0.96217 0.95719 0.26475 0.30400
C 	C 	0.23976 0.82062 0.68910 -0.10800
C 	C 	0.24476 0.08964 0.53600 0.34800
F 	F 	0.24215 0.11752 0.88950 -0.45400
C 	C 	0.68866 0.26900 0.03371 0.05800
C 	C 	0.75202 0.34987 0.04770 -0.08300
C 	C 	0.72332 0.38667 0.05465 0.06200
C 	C 	0.63288 0.34188 0.04947 -0.09600
C 	C 	0.56997 0.26163 0.03677 0.07100
C 	C 	0.59687 0.22701 0.02633 -0.07900
H 	H 	0.82263 0.38344 0.05336 0.06400
H 	H 	0.61115 0.36998 0.05525 0.06800
H 	H 	0.54695 0.16811 0.01263 0.07200
C 	C 	0.73282 0.26665 0.55293 0.06400
C 	C 	0.64490 0.21037 0.55980 -0.08900
C 	C 	0.61237 0.24243 0.56763 0.07000
C 	C 	0.67018 0.32617 0.57547 -0.08500
C 	C 	0.75698 0.38290 0.56916 0.06800
C 	C 	0.78660 0.35544 0.55448 -0.08000
H 	H 	0.60179 0.14246 0.55879 0.06000
H 	H 	0.64585 0.34917 0.58373 0.07300
H 	H 	0.84887 0.40322 0.54274 0.08300
C 	C 	0.27247 0.66993 0.18631 0.06400
C 	C 	0.23498 0.55029 0.16552 0.06500
C 	C 	0.32442 0.59741 0.16679 -0.09300
C 	C 	0.38863 0.67556 0.18188 0.07000
C 	C 	0.36355 0.70707 0.19632 -0.07400
H 	H 	0.34465 0.57118 0.15790 0.06300
H 	H 	0.41460 0.76189 0.21363 0.07300
C 	C 	0.31966 0.68086 0.68869 0.06800
C 	C 	0.41051 0.71608 0.69949 -0.07700
C 	C 	0.43434 0.68122 0.68680 0.07400
C 	C 	0.36872 0.60413 0.67064 -0.09000
C 	C 	0.27892 0.56252 0.66510 0.07400
C 	C 	0.25347 0.60219 0.67217 -0.08500
H 	H 	0.46223 0.77086 0.71688 0.09600
H 	H 	0.38780 0.57528 0.66320 0.06900
Co	Co	0.92355 0.92091 0.17041 1.19900
Co	Co	0.90143 0.05400 0.17179 1.16300
C 	C 	0.92473 0.72515 0.08525 0.30300
O 	O 	0.90607 0.15298 0.10881 -0.40700
O 	O 	0.93677 0.01691 0.14113 -0.78100
C 	C 	0.86616 0.13980 0.06378 0.32600
O 	O 	0.93829 0.82934 0.18176 -0.42700
C 	C 	0.74065 0.87518 0.15920 0.31400
O 	O 	0.96105 0.96275 0.09909 -0.56700
C 	C 	0.97910 0.95336 0.95264 0.33100
O 	O 	0.88275 0.10609 0.04793 -0.38100
O 	O 	0.77317 0.95910 0.14326 -0.36500
O 	O 	0.78828 0.84687 0.17004 -0.34400
O 	O 	0.89517 0.96208 0.23941 -0.36800
O 	O 	0.90087 0.75324 0.10027 -0.35900
Co	Co	0.96614 0.92405 0.68045 1.18700
Co	Co	0.92129 0.04580 0.67463 1.16400
C 	C 	0.95653 0.72524 0.59483 0.30100
O 	O 	0.82448 0.02774 0.60860 -0.38600
O 	O 	0.97361 0.01796 0.64937 -0.77300
C 	C 	0.84785 0.08358 0.56612 0.31400
O 	O 	0.98231 0.83328 0.69236 -0.45800
C 	C 	0.79161 0.85362 0.68768 0.33300
O 	O 	0.89964 0.08956 0.54919 -0.37600
O 	O 	0.84031 0.91598 0.71052 -0.39200
O 	O 	0.82842 0.84859 0.66631 -0.39000
O 	O 	0.93603 0.76047 0.60642 -0.38600
C 	C 	0.98420 0.97351 0.90069 -0.00400
C 	C 	0.91366 0.91250 0.87043 -0.08400
C 	C 	0.93129 0.90975 0.83314 0.00700
H 	H 	0.87793 0.86122 0.81128 0.07900
C 	C 	0.82004 0.84793 0.87885 0.77600
F 	F 	0.80180 0.88576 0.89236 -0.43400
F 	F 	0.81191 0.77530 0.91678 -0.44500
F 	F 	0.75717 0.82109 0.83537 -0.44700
C 	C 	0.94464 0.87445 0.35309 -0.10800
C 	C 	0.93195 0.87582 0.39297 0.05200
C 	C 	0.98583 0.95344 0.40837 -0.00200
H 	H 	0.88413 0.81516 0.41433 0.07700
C 	C 	0.89806 0.78764 0.34389 0.78300
F 	F 	0.94966 0.79363 0.32484 -0.45000
F 	F 	0.81695 0.76434 0.30978 -0.45700
F 	F 	0.88342 0.72246 0.38831 -0.45800
C 	C 	0.52770 0.72744 0.68756 -0.02200
C 	C 	0.55358 0.77177 0.64166 -0.09500
C 	C 	0.63618 0.80203 0.64022 0.19300
C 	C 	0.69559 0.79172 0.68522 -0.11900
C 	C 	0.66762 0.74315 0.73068 -0.02200
C 	C 	0.58429 0.71136 0.73201 0.14200
H 	H 	0.50876 0.78125 0.60688 0.08100
O 	O 	0.66128 0.84717 0.59522 -0.26400
H 	H 	0.71280 0.73456 0.76557 0.08800
O 	O 	0.55916 0.66630 0.77701 -0.23100
H 	H 	0.52804 0.60394 0.77974 0.15900
H 	H 	0.64125 0.80220 0.58125 0.15800
C 	C 	0.32443 0.86596 0.68225 -0.03700
C 	C 	0.34718 0.82198 0.67784 0.13200
C 	C 	0.29446 0.72930 0.69180 -0.02300
H 	H 	0.36696 0.93696 0.67246 0.07100
O 	O 	0.41722 0.86966 0.65667 -0.27200
H 	H 	0.39100 0.87495 0.61988 0.15200
H 	H 	0.26920 0.43937 0.26489 0.16100
C 	C 	0.48037 0.72882 0.17692 -0.02900
C 	C 	0.49799 0.77474 0.12874 -0.09400
C 	C 	0.58025 0.81401 0.12179 0.18600
C 	C 	0.64752 0.81118 0.16356 -0.09800
C 	C 	0.62908 0.76312 0.21158 -0.04600
C 	C 	0.54560 0.72145 0.21831 0.14200
H 	H 	0.44698 0.77828 0.09642 0.07900
O 	O 	0.59627 0.85851 0.07436 -0.27700
H 	H 	0.68064 0.76127 0.24402 0.11600
O 	O 	0.52876 0.67545 0.26553 -0.26100
H 	H 	0.50323 0.61466 0.26847 0.16000
H 	H 	0.57792 0.81461 0.06020 0.15800
C 	C 	0.24652 0.72105 0.18563 -0.01900
C 	C 	0.28094 0.86091 0.17417 -0.03900
C 	C 	0.30014 0.81374 0.16995 0.12900
H 	H 	0.32491 0.93185 0.16361 0.06700
O 	O 	0.36378 0.85763 0.14458 -0.27000
H 	H 	0.42199 0.88795 0.16835 0.15500
C 	C 	0.82464 0.14715 0.54093 -0.11000
C 	C 	0.88688 0.22942 0.55206 -0.04600
C 	C 	0.85875 0.26572 0.55982 0.13400
C 	C 	0.76723 0.23225 0.54332 -0.02600
C 	C 	0.70694 0.16115 0.52040 -0.09800
C 	C 	0.73433 0.11587 0.52185 0.18600
H 	H 	0.95735 0.26163 0.55912 0.07600
O 	O 	0.91973 0.32957 0.58599 -0.28000
H 	H 	0.63836 0.13901 0.50290 0.06900
O 	O 	0.67187 0.03867 0.50720 -0.28300
H 	H 	0.66839 0.05553 0.47077 0.15500
H 	H 	0.91992 0.29777 0.62203 0.14800
C 	C 	0.89063 0.63434 0.58903 -0.10600
C 	C 	0.88907 0.56638 0.63095 -0.03900
C 	C 	0.85191 0.48630 0.62444 0.13200
C 	C 	0.81463 0.47286 0.57560 -0.02500
C 	C 	0.81366 0.53967 0.53383 -0.09600
C 	C 	0.85170 0.62003 0.54031 0.18900
H 	H 	0.92034 0.57694 0.66858 0.06900
O 	O 	0.85332 0.42172 0.66588 -0.27400
H 	H 	0.78232 0.52904 0.49621 0.09500
O 	O 	0.85329 0.68554 0.49877 -0.27100
H 	H 	0.90693 0.71493 0.48779 0.17600
H 	H 	0.79759 0.38713 0.67641 0.15600
C 	C 	0.51553 0.19418 0.56030 -0.03000
C 	C 	0.46320 0.20068 0.51111 -0.09900
C 	C 	0.37711 0.17397 0.50273 0.18900
C 	C 	0.34182 0.13955 0.54381 -0.11200
C 	C 	0.39441 0.13360 0.59309 -0.03900
C 	C 	0.48042 0.15970 0.60147 0.12800
H 	H 	0.49051 0.22938 0.47916 0.07800
O 	O 	0.32808 0.18319 0.45421 -0.23800
H 	H 	0.36736 0.10548 0.62504 0.06300
O 	O 	0.53120 0.15427 0.64982 -0.27300
H 	H 	0.51828 0.09574 0.66100 0.14700
H 	H 	0.29672 0.12886 0.44484 0.16700
C 	C 	0.79812 0.15756 0.03336 -0.11100
C 	C 	0.71962 0.10255 0.05017 -0.04700
C 	C 	0.68349 0.13768 0.05087 0.12800
C 	C 	0.71870 0.22727 0.02817 -0.01500
C 	C 	0.78665 0.27838 0.00272 -0.12700
C 	C 	0.82649 0.24394 0.00541 0.17100
H 	H 	0.69410 0.03475 0.06944 0.06800
O 	O 	0.62060 0.08663 0.07820 -0.28000
H 	H 	0.81147 0.34591 0.98278 0.10300
O 	O 	0.89923 0.29778 0.98538 -0.25500
H 	H 	0.87460 0.29050 0.95060 0.16000
H 	H 	0.56301 0.05127 0.05573 0.14800
C 	C 	0.86150 0.63751 0.07531 -0.10000
C 	C 	0.85402 0.63031 0.03042 -0.03300
C 	C 	0.81713 0.54955 0.02529 0.11300
C 	C 	0.78660 0.47426 0.06516 -0.02400
C 	C 	0.79444 0.48145 0.11024 -0.10100
C 	C 	0.83006 0.56210 0.11503 0.18900
H 	H 	0.88008 0.68832 0.00004 0.08500
O 	O 	0.81046 0.54429 0.98104 -0.24500
H 	H 	0.76861 0.42342 0.14065 0.07500
O 	O 	0.83207 0.56647 0.15813 -0.27500
H 	H 	0.88814 0.57476 0.18210 0.16400
H 	H 	0.75177 0.53215 0.95935 0.17200
C 	C 	0.30750 0.15395 0.03428 -0.14400
C 	C 	0.33346 0.19215 0.98898 0.00200
C 	C 	0.41661 0.22097 0.98945 0.16500
C 	C 	0.47585 0.21375 0.03558 -0.05200
C 	C 	0.45216 0.18070 0.08097 -0.09800
C 	C 	0.36928 0.15275 0.08041 0.19300
H 	H 	0.28735 0.19592 0.95322 0.09800
O 	O 	0.43964 0.25578 0.94473 -0.23200
H 	H 	0.49945 0.17968 0.11670 0.07100
O 	O 	0.35012 0.12711 0.12487 -0.28500
H 	H 	0.32921 0.06525 0.13921 0.15100
H 	H 	0.46913 0.31943 0.93673 0.16400
