data_crystal

_cell_length_a 24.61939
_cell_length_b 25.60936
_cell_length_c 39.24572
_cell_angle_alpha 60.91414
_cell_angle_beta  118.79914
_cell_angle_gamma 133.37016

_symmetry_space_group_name_	'P 1'
_symmetry_space_group_name_H-M	'P 1'

loop_
_symmetry_equiv_pos_as_xyz
  x,y,z

loop_
_atom_site_label
_atom_site_type_symbol
_atom_site_fract_x
_atom_site_fract_y
_atom_site_fract_z
_atom_site_charge
C 	C 	0.71559 0.29623 0.02504 0.02300
C 	C 	0.76645 0.37126 0.02677 -0.06800
C 	C 	0.74274 0.40017 0.03480 0.02400
C 	C 	0.66675 0.35701 0.03696 -0.06900
C 	C 	0.61636 0.28308 0.03546 0.02200
C 	C 	0.64154 0.25172 0.03137 -0.06800
H 	H 	0.82343 0.40680 0.02178 0.04700
H 	H 	0.64699 0.38099 0.04024 0.05100
H 	H 	0.60333 0.19305 0.03276 0.04600
C 	C 	0.71698 0.29305 0.52249 0.02200
C 	C 	0.76020 0.36961 0.51863 -0.06800
C 	C 	0.73573 0.39515 0.52887 0.02300
C 	C 	0.66542 0.34546 0.53976 -0.06900
C 	C 	0.62097 0.26990 0.54261 0.02300
C 	C 	0.64768 0.24338 0.53512 -0.06800
H 	H 	0.81263 0.40885 0.50814 0.04700
H 	H 	0.64601 0.36557 0.54686 0.05000
H 	H 	0.61502 0.18432 0.53948 0.04500
C 	C 	0.26260 0.64392 0.18192 0.02300
C 	C 	0.34066 0.69544 0.18006 -0.06800
C 	C 	0.37799 0.67285 0.17882 0.02400
C 	C 	0.33714 0.59960 0.17834 -0.06800
C 	C 	0.25851 0.54959 0.17676 0.02300
C 	C 	0.22187 0.57038 0.18056 -0.06900
H 	H 	0.37170 0.75298 0.17869 0.04900
H 	H 	0.36581 0.58258 0.17688 0.05100
H 	H 	0.16189 0.53000 0.18170 0.04600
C 	C 	0.27282 0.64330 0.68984 0.02300
C 	C 	0.21944 0.57180 0.68264 -0.06900
C 	C 	0.24559 0.53951 0.67976 0.02300
C 	C 	0.32366 0.58046 0.68182 -0.06800
C 	C 	0.37584 0.65181 0.68791 0.02400
C 	C 	0.35156 0.67903 0.69654 -0.06900
H 	H 	0.15851 0.54278 0.67811 0.04700
H 	H 	0.34328 0.55774 0.67722 0.05000
H 	H 	0.39312 0.73292 0.70331 0.05000
Co	Co	0.05667 0.01471 0.06241 1.17700
Co	Co	0.94325 0.93093 0.15563 1.18900
Co	Co	0.00135 0.06947 0.09183 1.17700
Co	Co	0.00306 0.87765 0.12741 1.18100
C 	C 	0.20835 0.06817 0.06422 0.30700
Co	Co	0.09017 0.90623 0.07121 1.17200
Co	Co	0.92450 0.05098 0.14874 1.16500
C 	C 	0.94465 0.76074 0.09270 0.30600
O 	O 	0.84922 0.04523 0.09329 -0.39800
O 	O 	0.95499 0.01216 0.12962 -0.76600
C 	C 	0.87609 0.09275 0.06094 0.29100
O 	O 	0.05339 0.09806 0.05220 -0.47400
O 	O 	0.95113 0.84951 0.16721 -0.46100
C 	C 	0.79796 0.88849 0.16000 0.30200
C 	C 	0.07626 0.18673 0.13043 0.30100
C 	C 	0.13995 0.87147 0.15888 0.28800
O 	O 	0.92456 0.09707 0.05153 -0.37700
O 	O 	0.00869 0.89916 0.01815 -0.39500
O 	O 	0.84374 0.94505 0.17591 -0.40500
O 	O 	0.82633 0.87069 0.14964 -0.38500
O 	O 	0.00539 0.16085 0.12487 -0.41400
O 	O 	0.09001 0.15229 0.12276 -0.40100
O 	O 	0.16607 0.91657 0.12630 -0.38700
O 	O 	0.09560 0.87255 0.16838 -0.38200
O 	O 	0.04213 0.93236 0.08672 -0.75100
O 	O 	0.00565 0.05452 0.20167 -0.41400
O 	O 	0.16826 0.01579 0.04601 -0.42500
O 	O 	0.17430 0.07130 0.07997 -0.40900
O 	O 	0.01715 0.79464 0.09597 -0.41400
O 	O 	0.92452 0.78346 0.10547 -0.38600
Co	Co	0.06227 0.01777 0.56529 1.17500
Co	Co	0.93892 0.91830 0.65654 1.19100
Co	Co	0.00745 0.06597 0.60106 1.17700
Co	Co	0.98906 0.86920 0.61964 1.18700
C 	C 	0.21418 0.04571 0.58182 0.26800
Co	Co	0.07622 0.90047 0.56390 1.16800
Co	Co	0.91988 0.02805 0.66049 1.16300
C 	C 	0.91514 0.77084 0.56449 0.29000
O 	O 	0.92529 0.11463 0.61168 -0.40500
O 	O 	0.95383 0.00080 0.63562 -0.77000
C 	C 	0.91168 0.11953 0.57386 0.30000
O 	O 	0.06524 0.10165 0.56196 -0.47200
O 	O 	0.94036 0.83637 0.66215 -0.46800
C 	C 	0.78329 0.87816 0.64882 0.29200
C 	C 	0.08001 0.15806 0.65831 0.28900
C 	C 	0.09101 0.82432 0.65020 0.30100
O 	O 	0.93041 0.09258 0.56335 -0.38900
O 	O 	0.09346 0.98361 0.51138 -0.40600
O 	O 	0.81079 0.94882 0.63537 -0.38500
O 	O 	0.82234 0.85516 0.65411 -0.37800
O 	O 	0.03420 0.10367 0.68291 -0.39900
O 	O 	0.09386 0.14376 0.63611 -0.39300
O 	O 	0.06426 0.81469 0.61429 -0.41100
O 	O 	0.07791 0.85906 0.65797 -0.39500
O 	O 	0.03540 0.93034 0.58224 -0.75500
O 	O 	0.91520 0.94796 0.71364 -0.40100
O 	O 	0.18570 0.97535 0.59155 -0.37600
O 	O 	0.17991 0.06588 0.58527 -0.39400
O 	O 	0.96140 0.82774 0.54022 -0.39000
O 	O 	0.90712 0.78039 0.59199 -0.37700
C 	C 	0.96978 0.97245 0.88251 -0.06500
C 	C 	0.08692 0.98014 0.91741 -0.00200
C 	C 	0.08761 0.98573 0.95148 -0.00600
C 	C 	0.96887 0.97496 0.91730 0.05700
S 	S 	0.15889 0.97857 0.91953 -0.03500
H 	H 	0.13278 0.98974 0.97824 0.03500
S 	S 	0.89333 0.96970 0.91671 -0.03400
H 	H 	0.92445 0.96798 0.85572 0.05200
C 	C 	0.96375 0.88965 0.83799 -0.00700
C 	C 	0.95487 0.88118 0.80242 -0.00000
C 	C 	0.06811 0.00714 0.78900 0.03600
C 	C 	0.07453 0.01732 0.82325 -0.09500
S 	S 	0.90261 0.81262 0.87037 -0.04100
H 	H 	0.90678 0.82923 0.79376 0.03800
S 	S 	0.14220 0.07597 0.76319 -0.04000
H 	H 	0.12131 0.06998 0.83128 0.05200
H 	H 	0.83469 0.89695 0.92834 0.03700
H 	H 	0.83984 0.81060 0.86062 0.03500
H 	H 	0.19535 0.06189 0.77888 0.03400
H 	H 	0.13429 0.90666 0.93178 0.03400
C 	C 	0.03264 0.04944 0.37973 -0.09800
C 	C 	0.96490 0.91621 0.40577 -0.00500
C 	C 	0.96708 0.92199 0.44025 -0.00600
C 	C 	0.03976 0.05552 0.41571 0.04200
S 	S 	0.92720 0.82942 0.40323 -0.03700
H 	H 	0.94190 0.87244 0.46360 0.04200
S 	S 	0.08906 0.14356 0.42172 -0.05400
H 	H 	0.05648 0.09879 0.35595 0.05200
C 	C 	0.92793 0.94380 0.30890 -0.00300
C 	C 	0.92834 0.93861 0.27503 -0.01400
C 	C 	0.06652 0.00319 0.29685 0.03700
C 	C 	0.06551 0.00373 0.33227 -0.09500
S 	S 	0.84206 0.91535 0.31265 -0.04200
H 	H 	0.87509 0.91343 0.25302 0.04300
S 	S 	0.15447 0.04349 0.28926 -0.05500
H 	H 	0.11850 0.02751 0.35479 0.05200
H 	H 	0.03783 0.15881 0.40919 0.03800
H 	H 	0.83807 0.97410 0.29496 0.03800
H 	H 	0.18710 0.11681 0.26992 0.03700
H 	H 	0.84930 0.79070 0.38817 0.03700
C 	C 	0.11842 0.23556 0.65711 -0.07800
C 	C 	0.14703 0.29343 0.62374 0.01000
C 	C 	0.17041 0.36370 0.61927 -0.07000
C 	C 	0.16539 0.37696 0.64812 0.03700
C 	C 	0.13714 0.31928 0.68179 -0.00700
C 	C 	0.11530 0.24943 0.68656 -0.01300
C 	C 	0.13166 0.33230 0.71053 -0.03400
C 	C 	0.15909 0.40344 0.70733 -0.04600
C 	C 	0.19244 0.46242 0.67546 0.01200
C 	C 	0.19108 0.44794 0.64455 -0.07100
H 	H 	0.14894 0.28353 0.60059 0.03200
H 	H 	0.19194 0.40759 0.59325 0.04600
H 	H 	0.09441 0.20547 0.71274 0.03900
H 	H 	0.10840 0.28790 0.73604 0.03400
H 	H 	0.15898 0.41364 0.73104 0.04000
H 	H 	0.21520 0.49306 0.61938 0.04800
C 	C 	0.45034 0.70286 0.67711 0.01300
C 	C 	0.46653 0.76685 0.64576 -0.04400
C 	C 	0.53352 0.81208 0.63262 -0.03300
C 	C 	0.58507 0.79374 0.65053 -0.00500
C 	C 	0.56916 0.72940 0.68208 0.03800
C 	C 	0.50196 0.68443 0.69541 -0.07000
C 	C 	0.62085 0.71117 0.69992 -0.06900
C 	C 	0.68910 0.75783 0.68752 0.01300
C 	C 	0.70623 0.82306 0.65703 -0.07700
C 	C 	0.65294 0.83960 0.63779 -0.01100
H 	H 	0.42625 0.78069 0.63104 0.04100
H 	H 	0.54514 0.86123 0.60837 0.03900
H 	H 	0.48935 0.63491 0.71956 0.04800
H 	H 	0.60893 0.66162 0.72388 0.04700
H 	H 	0.72991 0.74460 0.70260 0.03700
H 	H 	0.66525 0.88909 0.61365 0.04500
C 	C 	0.14031 0.80076 0.68006 -0.07800
C 	C 	0.10673 0.73041 0.70671 0.01200
C 	C 	0.12972 0.68625 0.71691 -0.06700
C 	C 	0.18488 0.71161 0.69955 0.03600
C 	C 	0.22306 0.78485 0.67570 -0.00300
C 	C 	0.20607 0.83121 0.67003 -0.01100
C 	C 	0.27088 0.80801 0.65422 -0.03400
C 	C 	0.28012 0.75881 0.65588 -0.04400
C 	C 	0.24740 0.68759 0.68187 0.01200
C 	C 	0.19923 0.66375 0.70368 -0.06800
H 	H 	0.05777 0.70699 0.71619 0.02900
H 	H 	0.10093 0.63079 0.73596 0.04500
H 	H 	0.23537 0.88735 0.65161 0.04200
H 	H 	0.29884 0.86347 0.63503 0.03800
H 	H 	0.31539 0.77703 0.63802 0.04000
H 	H 	0.17312 0.60871 0.72349 0.04600
C 	C 	0.21314 0.48097 0.16424 0.01200
C 	C 	0.16889 0.47740 0.12474 -0.04700
C 	C 	0.14429 0.42478 0.10820 -0.03300
C 	C 	0.16165 0.37350 0.13133 -0.00900
C 	C 	0.20223 0.37378 0.17177 0.03800
C 	C 	0.22828 0.42787 0.18806 -0.07100
C 	C 	0.21553 0.31950 0.19540 -0.07000
C 	C 	0.18316 0.26199 0.17982 0.01300
C 	C 	0.13885 0.25928 0.14027 -0.08300
C 	C 	0.13547 0.31946 0.11513 -0.00600
H 	H 	0.15727 0.51819 0.10611 0.04000
H 	H 	0.11181 0.42404 0.07734 0.03400
H 	H 	0.26244 0.43041 0.21859 0.04800
H 	H 	0.24773 0.31973 0.22631 0.04600
H 	H 	0.18753 0.21668 0.19941 0.03100
H 	H 	0.10632 0.32051 0.08380 0.03300
C 	C 	0.71567 0.83822 0.15996 -0.08000
C 	C 	0.65967 0.80606 0.12751 0.01600
C 	C 	0.58217 0.77091 0.12340 -0.06900
C 	C 	0.55995 0.76768 0.15173 0.03900
C 	C 	0.61580 0.79820 0.18498 -0.00700
C 	C 	0.69311 0.83217 0.18929 -0.00800
C 	C 	0.59368 0.79478 0.21341 -0.03200
C 	C 	0.51620 0.75863 0.20972 -0.04500
C 	C 	0.46000 0.72583 0.17751 0.01400
C 	C 	0.48245 0.73308 0.14766 -0.07000
H 	H 	0.67641 0.81067 0.10466 0.03700
H 	H 	0.53966 0.74709 0.09793 0.04900
H 	H 	0.73604 0.85581 0.21480 0.04000
H 	H 	0.63629 0.81880 0.23881 0.03800
H 	H 	0.49951 0.75337 0.23283 0.04100
H 	H 	0.43919 0.70874 0.12241 0.04900
C 	C 	0.16046 0.81909 0.18452 -0.07400
C 	C 	0.23628 0.84666 0.20724 0.01300
C 	C 	0.26841 0.81130 0.21616 -0.06600
C 	C 	0.22611 0.75002 0.20081 0.03500
C 	C 	0.14862 0.71975 0.18003 -0.00100
C 	C 	0.11457 0.75069 0.17530 -0.01900
C 	C 	0.10825 0.66349 0.16120 -0.03600
C 	C 	0.14552 0.63990 0.16129 -0.04400
C 	C 	0.22229 0.66808 0.18284 0.01200
C 	C 	0.26155 0.72157 0.20385 -0.06700
H 	H 	0.27208 0.89834 0.21551 0.03600
H 	H 	0.32763 0.83449 0.23275 0.04800
H 	H 	0.05400 0.72490 0.16146 0.04500
H 	H 	0.04904 0.64069 0.14462 0.04000
H 	H 	0.11512 0.60104 0.14374 0.03800
H 	H 	0.31979 0.74221 0.22158 0.04700
C 	C 	0.74537 0.26405 0.51495 0.01300
C 	C 	0.69260 0.20068 0.49952 -0.04700
C 	C 	0.71620 0.16217 0.50193 -0.03300
C 	C 	0.79376 0.18941 0.51711 -0.00900
C 	C 	0.84868 0.25917 0.52638 0.04100
C 	C 	0.82426 0.29499 0.52678 -0.07100
C 	C 	0.92696 0.28967 0.53771 -0.07300
C 	C 	0.94949 0.24711 0.54485 0.02500
C 	C 	0.89400 0.17214 0.54369 -0.08300
C 	C 	0.81666 0.14570 0.52601 -0.00900
H 	H 	0.63273 0.17960 0.48708 0.03800
H 	H 	0.67393 0.11060 0.49266 0.03300
H 	H 	0.86592 0.34423 0.53822 0.04800
H 	H 	0.97016 0.34489 0.54279 0.05000
H 	H 	0.00978 0.26945 0.55625 0.02300
H 	H 	0.77371 0.08894 0.52317 0.03200
C 	C 	0.78497 0.47322 0.53040 0.01300
C 	C 	0.79830 0.52958 0.49484 -0.04500
C 	C 	0.82635 0.59953 0.49428 -0.03300
C 	C 	0.84012 0.61336 0.52918 -0.00600
C 	C 	0.82951 0.55767 0.56534 0.03800
C 	C 	0.80462 0.48884 0.56605 -0.07000
C 	C 	0.84131 0.57058 0.60001 -0.06900
C 	C 	0.86446 0.63862 0.59901 0.01500
C 	C 	0.87698 0.69506 0.56343 -0.07700
C 	C 	0.86368 0.68184 0.52834 -0.01200
H 	H 	0.78359 0.51820 0.46723 0.04200
H 	H 	0.83516 0.64214 0.46645 0.03800
H 	H 	0.79550 0.44566 0.59369 0.04800
H 	H 	0.83285 0.52800 0.62784 0.04700
H 	H 	0.87269 0.72500 0.50070 0.04100
C 	C 	0.29233 0.10219 0.57493 -0.07400
C 	C 	0.30830 0.16555 0.54321 0.00900
C 	C 	0.37543 0.21031 0.53006 -0.06800
C 	C 	0.42754 0.19235 0.54869 0.03700
C 	C 	0.41375 0.13088 0.58199 -0.00800
C 	C 	0.34656 0.08652 0.59522 -0.01400
C 	C 	0.46653 0.11367 0.60108 -0.03500
C 	C 	0.53291 0.15756 0.58743 -0.04700
C 	C 	0.54673 0.21850 0.55418 0.01200
C 	C 	0.49312 0.23492 0.53442 -0.07100
H 	H 	0.26685 0.17805 0.52740 0.03200
H 	H 	0.38605 0.25803 0.50487 0.04600
H 	H 	0.33503 0.03835 0.62026 0.03500
H 	H 	0.45652 0.06666 0.62669 0.03100
H 	H 	0.57438 0.14511 0.60322 0.03800
H 	H 	0.50334 0.28158 0.50852 0.04800
C 	C 	0.86335 0.15059 0.03938 -0.08000
C 	C 	0.92398 0.22267 0.04467 0.01000
C 	C 	0.90876 0.26839 0.04179 -0.06800
C 	C 	0.83274 0.24500 0.02957 0.03600
C 	C 	0.77311 0.17894 0.01639 -0.00300
C 	C 	0.78811 0.13045 0.02271 -0.01100
C 	C 	0.69906 0.16115 0.99857 -0.03800
C 	C 	0.68314 0.20540 0.99693 -0.05000
C 	C 	0.73902 0.26360 0.01667 0.01600
C 	C 	0.81503 0.28509 0.03166 -0.07000
H 	H 	0.98260 0.24119 0.05372 0.03900
H 	H 	0.95582 0.32123 0.04959 0.04600
H 	H 	0.74120 0.07602 0.01677 0.03600
H 	H 	0.65375 0.11309 0.98605 0.03400
H 	H 	0.62644 0.19264 0.98167 0.03800
H 	H 	0.85927 0.33034 0.04637 0.04600
C 	C 	0.88897 0.68766 0.08395 -0.08200
C 	C 	0.85700 0.62416 0.11467 0.01600
C 	C 	0.82824 0.55576 0.11260 -0.07100
C 	C 	0.83030 0.55005 0.07947 0.03900
C 	C 	0.85782 0.61274 0.04730 -0.00700
C 	C 	0.88584 0.68102 0.04942 -0.00800
C 	C 	0.85806 0.60654 0.01371 -0.02900
C 	C 	0.82739 0.53763 0.01122 -0.04200
C 	C 	0.79726 0.47458 0.04250 0.01200
C 	C 	0.80337 0.48207 0.07764 -0.07000
H 	H 	0.85925 0.62873 0.14143 0.03300
H 	H 	0.80588 0.50761 0.13713 0.04700
H 	H 	0.90996 0.73002 0.02548 0.03900
H 	H 	0.87995 0.65455 0.98904 0.03500
H 	H 	0.82327 0.53255 0.98408 0.03800
H 	H 	0.78145 0.43360 0.10217 0.04700
C 	C 	0.28893 0.12765 0.06229 -0.08800
C 	C 	0.34567 0.14807 0.09743 0.01600
C 	C 	0.42223 0.18406 0.09913 -0.07200
C 	C 	0.44211 0.19854 0.06589 0.03800
C 	C 	0.38572 0.18192 0.02980 -0.00600
C 	C 	0.31034 0.15003 0.02769 -0.00700
C 	C 	0.40451 0.19368 0.99700 -0.03600
C 	C 	0.47888 0.22212 0.99989 -0.05100
C 	C 	0.53559 0.24023 0.03533 0.01600
C 	C 	0.51698 0.22779 0.06847 -0.07200
H 	H 	0.32981 0.13195 0.12413 0.03100
H 	H 	0.46529 0.19776 0.12677 0.04500
H 	H 	0.26674 0.13646 0.00011 0.03900
H 	H 	0.36141 0.18050 0.96930 0.03400
H 	H 	0.49321 0.23241 0.97411 0.04000
H 	H 	0.56103 0.24213 0.09581 0.04700
O 	O 	0.97664 0.96119 0.10056 -0.57100
C 	C 	0.01606 0.95962 0.99229 0.30900
O 	O 	0.02303 0.00671 0.00295 -0.39000
C 	C 	0.00005 0.99379 0.22522 0.30900
O 	O 	0.00273 0.95596 0.21251 -0.38100
O 	O 	0.97620 0.95981 0.60064 -0.57000
C 	C 	0.04287 0.99763 0.48921 0.32400
O 	O 	0.02169 0.01586 0.50451 -0.40400
C 	C 	0.97302 0.94356 0.73291 0.30900
O 	O 	0.00060 0.93858 0.71374 -0.39000
C 	C 	0.02684 0.97191 0.88282 0.00600
C 	C 	0.02696 0.97947 0.95251 -0.09100
C 	C 	0.02130 0.95940 0.84739 0.03100
C 	C 	0.00379 0.94123 0.77633 -0.07800
C 	C 	0.99756 0.98029 0.37502 0.03400
C 	C 	0.00958 0.99165 0.44701 -0.07800
C 	C 	0.99679 0.97576 0.33813 0.03100
C 	C 	0.99776 0.97219 0.26739 -0.06600
H 	H 	0.87547 0.64838 0.62633 0.03600
