data_crystal

_cell_length_a 19.61950
_cell_length_b 17.58432
_cell_length_c 32.89342
_cell_angle_alpha 88.28284
_cell_angle_beta  88.41655
_cell_angle_gamma 107.45897

_symmetry_space_group_name_	'P 1'
_symmetry_space_group_name_H-M	'P 1'

loop_
_symmetry_equiv_pos_as_xyz
  x,y,z

loop_
_atom_site_label
_atom_site_type_symbol
_atom_site_fract_x
_atom_site_fract_y
_atom_site_fract_z
_atom_site_charge
Zn	Zn	0.57803 0.33004 0.88570 1.22400
Zn	Zn	0.68933 0.45401 0.94253 1.20100
C 	C 	0.78360 0.23768 0.83982 0.27800
Zn	Zn	0.74420 0.37608 0.87270 1.22100
Zn	Zn	0.62539 0.21143 0.83797 1.18800
H 	H 	0.67964 0.30795 0.93716 0.17800
C 	C 	0.73403 0.53703 0.85608 0.27500
O 	O 	0.52090 0.17357 0.82851 -0.46800
O 	O 	0.49240 0.28698 0.84593 -0.40000
O 	O 	0.67449 0.35068 0.91831 -0.79900
O 	O 	0.59042 0.44200 0.95742 -0.49200
O 	O 	0.52876 0.24083 0.92299 -0.44300
O 	O 	0.54129 0.42192 0.89532 -0.43300
O 	O 	0.59953 0.16787 0.90165 -0.41700
O 	O 	0.78890 0.51537 0.94226 -0.48700
H 	H 	0.64202 0.35650 0.81795 0.16800
O 	O 	0.83361 0.42535 0.91069 -0.40900
O 	O 	0.64817 0.32769 0.84324 -0.80200
O 	O 	0.71842 0.19027 0.84901 -0.46200
O 	O 	0.76160 0.48094 0.84461 -0.44600
O 	O 	0.80292 0.31378 0.84885 -0.44300
O 	O 	0.68383 0.52143 0.88558 -0.41000
C 	C 	0.47370 0.21356 0.83252 0.27800
C 	C 	0.54530 0.45329 0.93134 0.31700
C 	C 	0.54404 0.17370 0.92320 0.29600
C 	C 	0.84256 0.48937 0.93231 0.30300
Zn	Zn	0.65093 0.39763 0.55454 1.21900
Zn	Zn	0.53054 0.27947 0.49757 1.20200
C 	C 	0.70437 0.15365 0.60299 0.26700
Zn	Zn	0.58767 0.21069 0.57269 1.22100
Zn	Zn	0.74884 0.32877 0.59831 1.18800
H 	H 	0.65202 0.26978 0.50742 0.17700
C 	C 	0.44469 0.22569 0.58076 0.26900
O 	O 	0.80036 0.44453 0.60025 -0.46900
O 	O 	0.70686 0.49658 0.59056 -0.39100
O 	O 	0.61729 0.28456 0.52551 -0.79500
O 	O 	0.55388 0.39351 0.48361 -0.48800
O 	O 	0.72961 0.43863 0.51385 -0.43800
O 	O 	0.57380 0.44853 0.54544 -0.43400
O 	O 	0.77539 0.34051 0.53325 -0.42100
O 	O 	0.47275 0.17063 0.49317 -0.48800
H 	H 	0.62652 0.33318 0.62469 0.16600
O 	O 	0.53177 0.11056 0.53717 -0.40700
O 	O 	0.64580 0.31923 0.59878 -0.79300
O 	O 	0.74738 0.21939 0.58576 -0.46900
O 	O 	0.49663 0.20829 0.59989 -0.44600
O 	O 	0.63474 0.13595 0.59866 -0.43200
O 	O 	0.46045 0.28241 0.55135 -0.40100
C 	C 	0.77223 0.50382 0.60338 0.26900
C 	C 	0.54507 0.44463 0.50950 0.31500
C 	C 	0.77998 0.40477 0.51097 0.30300
C 	C 	0.47991 0.10663 0.51170 0.31000
Zn	Zn	0.93567 0.90694 0.72012 1.22400
Zn	Zn	0.04391 0.94542 0.80412 1.19400
C 	C 	0.15685 0.07674 0.64380 0.26300
Zn	Zn	0.07324 0.04939 0.72298 1.22400
H 	H 	0.07133 0.90706 0.73268 0.16100
C 	C 	0.99486 0.09790 0.78594 0.24900
O 	O 	0.90040 0.92607 0.62127 -0.45300
O 	O 	0.84242 0.89709 0.68431 -0.38200
O 	O 	0.04025 0.93712 0.74391 -0.78400
O 	O 	0.94268 0.89680 0.82539 -0.45000
O 	O 	0.94283 0.80613 0.70159 -0.45600
O 	O 	0.87382 0.89022 0.76994 -0.43800
O 	O 	0.00174 0.84997 0.64091 -0.39700
O 	O 	0.14665 0.99757 0.81237 -0.46300
H 	H 	0.95599 0.04127 0.69053 0.16900
O 	O 	0.16058 0.09526 0.76211 -0.40000
O 	O 	0.98476 0.00400 0.68986 -0.82200
O 	O 	0.11302 0.01123 0.62846 -0.44700
O 	O 	0.02342 0.11641 0.74906 -0.43400
O 	O 	0.13898 0.10583 0.67770 -0.44500
C 	C 	0.84692 0.92771 0.64646 0.26400
C 	C 	0.89038 0.85612 0.80301 0.26400
C 	C 	0.18757 0.05957 0.79053 0.28300
Zn	Zn	0.31741 0.69104 0.39590 1.22200
Zn	Zn	0.18385 0.54866 0.44029 1.19600
C 	C 	0.12965 0.79986 0.33866 0.28800
Zn	Zn	0.15920 0.65130 0.36854 1.22100
Zn	Zn	0.28896 0.82136 0.34621 1.18700
H 	H 	0.19621 0.69615 0.43891 0.17700
C 	C 	0.17265 0.49274 0.35193 0.27400
O 	O 	0.39495 0.86286 0.35112 -0.46600
O 	O 	0.41968 0.74484 0.36494 -0.39300
O 	O 	0.21029 0.66078 0.41971 -0.79300
O 	O 	0.27281 0.54201 0.46527 -0.46900
O 	O 	0.34788 0.77027 0.43654 -0.45200
O 	O 	0.34739 0.59800 0.41070 -0.44500
O 	O 	0.27670 0.83870 0.41132 -0.42700
O 	O 	0.08395 0.49691 0.42825 -0.48000
H 	H 	0.28166 0.68153 0.32311 0.17000
O 	O 	0.05592 0.60264 0.39926 -0.40400
O 	O 	0.26525 0.70347 0.34760 -0.80000
O 	O 	0.19537 0.84653 0.34389 -0.46100
O 	O 	0.14823 0.55143 0.33963 -0.43800
O 	O 	0.11475 0.72158 0.33834 -0.44700
O 	O 	0.21324 0.50140 0.38388 -0.41000
C 	C 	0.44116 0.82142 0.35313 0.27300
C 	C 	0.33743 0.56803 0.44833 0.31000
C 	C 	0.32327 0.83101 0.43778 0.30700
C 	C 	0.03751 0.53536 0.42128 0.30400
Zn	Zn	0.20508 0.73111 0.06232 1.22000
Zn	Zn	0.33780 0.85385 0.11363 1.19400
C 	C 	0.37249 0.60420 0.01052 0.29900
Zn	Zn	0.37114 0.74867 0.05184 1.22200
Zn	Zn	0.24143 0.63184 0.99408 1.19700
H 	H 	0.29954 0.70179 0.11698 0.16800
C 	C 	0.39115 0.91226 0.02514 0.31000
O 	O 	0.16507 0.65432 0.96614 -0.48200
O 	O 	0.11624 0.70191 0.02068 -0.37700
O 	O 	0.30078 0.74344 0.09580 -0.78600
O 	O 	0.24617 0.86907 0.12835 -0.48800
O 	O 	0.15683 0.62842 0.09295 -0.43700
O 	O 	0.17499 0.82898 0.07458 -0.42500
O 	O 	0.15946 0.55370 0.03721 -0.39400
O 	O 	0.44225 0.89535 0.11024 -0.47600
H 	H 	0.27906 0.77651 0.00035 0.17200
O 	O 	0.46192 0.78061 0.08985 -0.40700
O 	O 	0.27637 0.73241 0.02035 -0.80200
O 	O 	0.30336 0.57340 0.01589 -0.47100
O 	O 	0.41334 0.84933 0.02155 -0.45200
O 	O 	0.40803 0.66285 0.03281 -0.43900
O 	O 	0.34127 0.91266 0.05301 -0.42100
C 	C 	0.10945 0.66275 0.98632 0.29300
C 	C 	0.20314 0.88314 0.10155 0.29500
C 	C 	0.13963 0.55883 0.07549 0.28400
C 	C 	0.48593 0.85303 0.10373 0.28800
Zn	Zn	0.98835 0.14673 0.21582 1.21900
Zn	Zn	0.87388 0.09585 0.30478 1.18800
C 	C 	0.77171 0.99112 0.14946 0.27800
Zn	Zn	0.84942 0.00374 0.22527 1.21900
Zn	Zn	0.92475 0.08737 0.13295 1.19300
H 	H 	0.85116 0.14562 0.23372 0.15700
C 	C 	0.92182 0.94480 0.28675 0.27400
O 	O 	0.02586 0.13561 0.11603 -0.45200
O 	O 	0.08222 0.15376 0.17683 -0.37600
O 	O 	0.88217 0.11479 0.24416 -0.78200
O 	O 	0.97551 0.13587 0.32157 -0.46000
O 	O 	0.04731 0.15550 0.26391 -0.43700
O 	O 	0.92321 0.21200 0.13969 -0.40300
O 	O 	0.76976 0.04257 0.31633 -0.47100
H 	H 	0.96613 0.01499 0.19001 0.16800
O 	O 	0.75558 0.95272 0.26529 -0.39700
O 	O 	0.93850 0.05316 0.18893 -0.81900
O 	O 	0.81645 0.05603 0.13117 -0.46000
O 	O 	0.89726 0.93243 0.25013 -0.44300
O 	O 	0.79168 0.95380 0.18010 -0.45100
O 	O 	0.88994 0.97866 0.31312 -0.40000
C 	C 	0.07663 0.12604 0.13932 0.26000
C 	C 	0.02741 0.18268 0.29783 0.27100
C 	C 	0.97149 0.26758 0.15850 0.27300
C 	C 	0.72943 0.98123 0.29694 0.29100
C 	C 	0.01388 0.34625 0.13621 -0.02200
C 	C 	0.13532 0.42103 0.10152 -0.05400
C 	C 	0.09331 0.48302 0.09855 -0.03900
C 	C 	0.02366 0.44456 0.07558 -0.04100
H 	H 	0.96961 0.31578 0.07602 0.04000
H 	H 	0.92361 0.37009 0.10582 0.04000
H 	H 	0.18478 0.44585 0.11863 0.03500
H 	H 	0.15247 0.40840 0.07055 0.04600
H 	H 	0.03727 0.43217 0.04388 0.04400
H 	H 	0.99171 0.48711 0.07343 0.03000
C 	C 	0.07060 0.49777 0.14256 -0.05600
H 	H 	0.03925 0.54105 0.14171 0.04300
H 	H 	0.11887 0.52458 0.16030 0.03700
C 	C 	0.02472 0.41830 0.16448 -0.05300
H 	H 	0.05177 0.40797 0.19249 0.04300
H 	H 	0.97184 0.42403 0.17435 0.02900
C 	C 	0.08918 0.34176 0.12297 -0.06700
H 	H 	0.11727 0.32835 0.14996 0.04800
H 	H 	0.08389 0.29232 0.10182 0.05200
C 	C 	0.59688 0.96939 0.08999 -0.04300
C 	C 	0.56327 0.88814 0.11395 -0.04400
C 	C 	0.68859 0.87338 0.11607 -0.05900
C 	C 	0.69696 0.95598 0.13469 -0.03500
C 	C 	0.67497 0.00953 0.10245 -0.06800
H 	H 	0.59635 0.95969 0.05671 0.04000
H 	H 	0.56470 0.01070 0.09578 0.03700
H 	H 	0.70445 0.83325 0.13822 0.04200
H 	H 	0.72481 0.88095 0.08862 0.03100
H 	H 	0.71159 0.01969 0.07504 0.03800
H 	H 	0.67939 0.06890 0.11493 0.03900
C 	C 	0.64413 0.94296 0.17198 -0.05400
H 	H 	0.64878 0.00094 0.18616 0.02200
H 	H 	0.65787 0.90325 0.19510 0.04600
C 	C 	0.56648 0.90403 0.16004 -0.05500
H 	H 	0.54325 0.84707 0.17815 0.02600
H 	H 	0.53419 0.94418 0.16808 0.03100
C 	C 	0.61010 0.83322 0.10432 -0.05400
H 	H 	0.58849 0.77494 0.12145 0.04300
H 	H 	0.60884 0.82080 0.07132 0.04500
C 	C 	0.11403 0.05172 0.08124 -0.05500
C 	C 	0.11244 0.06332 0.12813 -0.05100
C 	C 	0.10358 0.91548 0.13853 -0.05800
C 	C 	0.17025 0.94903 0.10982 -0.03700
C 	C 	0.14755 0.98465 0.07059 -0.05300
H 	H 	0.05885 0.03566 0.06980 0.02600
H 	H 	0.14520 0.10860 0.06511 0.04000
H 	H 	0.11835 0.88979 0.16713 0.03800
H 	H 	0.06332 0.86627 0.12390 0.04000
H 	H 	0.10800 0.93718 0.05452 0.04600
H 	H 	0.19480 0.00935 0.04939 0.03800
C 	C 	0.22434 0.01901 0.13129 -0.06500
H 	H 	0.27293 0.04483 0.11119 0.03100
H 	H 	0.24211 0.99672 0.15991 0.03500
C 	C 	0.19050 0.08546 0.14199 -0.05200
H 	H 	0.19202 0.09352 0.17543 0.04100
H 	H 	0.22259 0.14311 0.12694 0.03700
C 	C 	0.07014 0.98175 0.14902 -0.05100
H 	H 	0.06965 0.98717 0.18256 0.02300
H 	H 	0.01401 0.96363 0.13901 0.00000
C 	C 	0.57204 0.82049 0.35673 -0.05800
C 	C 	0.51884 0.86239 0.33942 -0.03400
C 	C 	0.62078 0.99469 0.33729 -0.04000
C 	C 	0.65310 0.93834 0.31308 -0.04200
C 	C 	0.65044 0.86548 0.34178 -0.05600
H 	H 	0.56828 0.81824 0.39059 0.04300
H 	H 	0.55771 0.75780 0.34693 0.04700
H 	H 	0.62087 0.04726 0.31754 0.02100
H 	H 	0.65400 0.01764 0.36373 0.03000
H 	H 	0.68377 0.88578 0.36851 0.04000
H 	H 	0.67348 0.82366 0.32557 0.04300
C 	C 	0.60360 0.90685 0.27724 -0.05700
H 	H 	0.62360 0.86358 0.26031 0.04400
H 	H 	0.60419 0.95733 0.25592 0.03100
C 	C 	0.52569 0.86408 0.29239 -0.05800
H 	H 	0.48954 0.89541 0.27892 0.02200
H 	H 	0.50874 0.80210 0.28149 0.02800
C 	C 	0.54321 0.95040 0.35295 -0.06300
H 	H 	0.50704 0.98341 0.34120 0.04000
H 	H 	0.54003 0.95130 0.38673 0.04000
C 	C 	0.11930 0.41309 0.29118 -0.05600
C 	C 	0.13710 0.40965 0.33694 -0.03200
C 	C 	0.02592 0.28910 0.34715 -0.03900
C 	C 	0.06846 0.26492 0.31175 -0.05200
C 	C 	0.07926 0.32881 0.27657 -0.06200
H 	H 	0.08527 0.45280 0.28619 0.04500
H 	H 	0.16946 0.43872 0.27234 0.03400
H 	H 	0.01737 0.24511 0.37330 0.03300
H 	H 	0.11019 0.31439 0.25060 0.04000
C 	C 	0.14335 0.26766 0.32712 -0.05100
H 	H 	0.17564 0.25168 0.30230 0.04100
H 	H 	0.13746 0.22279 0.35260 0.03700
C 	C 	0.18365 0.35236 0.34180 -0.06100
H 	H 	0.19705 0.34738 0.37423 0.04100
H 	H 	0.23500 0.37688 0.32393 0.03800
C 	C 	0.06598 0.37252 0.36186 -0.06700
H 	H 	0.07709 0.36690 0.39462 0.04400
C 	C 	0.03265 0.90848 0.26609 -0.05500
C 	C 	0.97666 0.90587 0.30097 -0.04200
C 	C 	0.99668 0.77770 0.32896 -0.06100
C 	C 	0.07356 0.83784 0.32527 -0.03600
C 	C 	0.08882 0.86838 0.28019 -0.05600
H 	H 	0.06021 0.97158 0.25614 0.03200
H 	H 	0.98377 0.75499 0.36108 0.04200
H 	H 	0.99348 0.72527 0.31014 0.04600
H 	H 	0.08784 0.81783 0.26039 0.03200
H 	H 	0.14318 0.91213 0.27638 0.03000
C 	C 	0.07441 0.91003 0.35159 -0.05800
H 	H 	0.12815 0.95529 0.34934 0.04400
H 	H 	0.06344 0.89001 0.38419 0.03700
C 	C 	0.01781 0.94960 0.33751 -0.05000
H 	H 	0.04473 0.01342 0.32867 0.04600
C 	C 	0.94026 0.81749 0.31466 -0.05500
H 	H 	0.90034 0.81379 0.33994 0.04200
H 	H 	0.91081 0.78418 0.28907 0.04200
C 	C 	0.37447 0.02485 0.46924 -0.01600
H 	H 	0.35319 0.07503 0.46136 0.02900
C 	C 	0.33110 0.94614 0.49174 -0.01200
H 	H 	0.27402 0.93065 0.50199 0.02500
C 	C 	0.40533 0.97850 0.43837 -0.01000
H 	H 	0.40908 0.98980 0.40487 0.02500
C 	C 	0.36229 0.90058 0.46093 -0.07600
C 	C 	0.43797 0.02868 0.49657 -0.08300
C 	C 	0.46880 0.98272 0.46583 -0.00700
H 	H 	0.52594 0.99843 0.45570 0.02500
C 	C 	0.42545 0.90373 0.48833 -0.00900
H 	H 	0.44595 0.85283 0.49592 0.03600
C 	C 	0.39501 0.95100 0.51949 -0.00900
H 	H 	0.39163 0.94074 0.55305 0.02800
C 	C 	0.91737 0.43045 0.49498 -0.01400
H 	H 	0.92709 0.39451 0.52129 0.02100
C 	C 	0.95371 0.52067 0.48693 -0.01700
H 	H 	0.99409 0.55980 0.50628 0.01000
C 	C 	0.92952 0.41514 0.44980 -0.01100
H 	H 	0.94996 0.36692 0.43845 0.02300
C 	C 	0.96555 0.50523 0.44193 -0.08600
C 	C 	0.84517 0.44212 0.48469 -0.07200
C 	C 	0.85659 0.42659 0.43966 -0.01500
H 	H 	0.81599 0.38729 0.42051 0.01900
C 	C 	0.89360 0.51735 0.43135 -0.00800
H 	H 	0.88468 0.55361 0.40497 0.03000
C 	C 	0.88081 0.53227 0.47686 -0.01000
H 	H 	0.86004 0.58014 0.48828 0.03200
C 	C 	0.49379 0.51754 0.45464 -0.00900
H 	H 	0.53523 0.51876 0.43072 0.03200
C 	C 	0.47469 0.59156 0.46919 -0.01300
H 	H 	0.49905 0.65362 0.45688 0.03200
C 	C 	0.41398 0.47029 0.45312 -0.00900
H 	H 	0.38873 0.43283 0.42778 0.02800
C 	C 	0.39527 0.54366 0.46767 -0.07500
C 	C 	0.49338 0.48804 0.49934 -0.07800
C 	C 	0.41364 0.44108 0.49779 -0.01700
H 	H 	0.38841 0.37897 0.50983 0.02600
C 	C 	0.39444 0.51504 0.51245 -0.00900
H 	H 	0.35259 0.51414 0.53604 0.02800
C 	C 	0.47523 0.56192 0.51422 -0.00900
H 	H 	0.50078 0.59899 0.53959 0.03200
C 	C 	0.68758 0.02082 0.64369 -0.07000
C 	C 	0.73694 0.08932 0.61563 -0.03500
C 	C 	0.84419 0.06738 0.65068 -0.05600
C 	C 	0.80410 0.98378 0.63567 -0.04800
C 	C 	0.72702 0.95850 0.65533 -0.04700
H 	H 	0.67151 0.04578 0.67180 0.02900
H 	H 	0.63781 0.99049 0.62794 0.05200
H 	H 	0.89973 0.08787 0.63726 -0.00600
H 	H 	0.84741 0.06454 0.68435 0.01800
H 	H 	0.72912 0.95351 0.68905 0.04200
H 	H 	0.69630 0.89871 0.64494 0.03700
C 	C 	0.79767 0.99051 0.58870 -0.03800
H 	H 	0.76850 0.93114 0.57714 0.03600
H 	H 	0.85161 0.00976 0.57320 0.01900
C 	C 	0.75817 0.05158 0.57711 -0.06700
H 	H 	0.79342 0.09874 0.55606 0.04200
H 	H 	0.70954 0.02145 0.56031 0.04200
C 	C 	0.80571 0.12872 0.63897 -0.06100
H 	H 	0.84356 0.17765 0.62000 0.02500
H 	H 	0.79180 0.15590 0.66696 0.01200
C 	C 	0.36160 0.11155 0.62442 -0.05800
C 	C 	0.36698 0.18636 0.59613 -0.03200
C 	C 	0.23661 0.11687 0.57769 -0.05700
C 	C 	0.23254 0.11549 0.62503 -0.03600
C 	C 	0.28382 0.07021 0.64066 -0.05800
H 	H 	0.38131 0.06795 0.60746 0.04000
H 	H 	0.39632 0.12918 0.65089 0.04200
H 	H 	0.20075 0.14964 0.56532 0.02600
H 	H 	0.21752 0.05495 0.56686 0.03700
H 	H 	0.26608 0.00752 0.63079 0.03600
H 	H 	0.28228 0.06764 0.67452 0.03100
C 	C 	0.26199 0.20400 0.63806 -0.05700
H 	H 	0.26207 0.20634 0.67184 0.04700
H 	H 	0.22637 0.23857 0.62728 0.03600
C 	C 	0.33934 0.24502 0.62098 -0.05900
H 	H 	0.34034 0.29818 0.60145 0.04200
H 	H 	0.37511 0.26673 0.64660 0.03700
C 	C 	0.31500 0.15768 0.56087 -0.06200
H 	H 	0.31604 0.20916 0.54009 0.03800
H 	H 	0.33298 0.11467 0.54251 0.04000
C 	C 	0.86197 0.56705 0.65493 -0.05700
C 	C 	0.81935 0.58312 0.61809 -0.03500
C 	C 	0.82630 0.71794 0.64705 -0.06300
C 	C 	0.90612 0.71890 0.64494 -0.03700
C 	C 	0.91179 0.64562 0.67060 -0.05700
H 	H 	0.82425 0.53465 0.68006 0.02300
H 	H 	0.89511 0.52826 0.64612 0.03300
H 	H 	0.81977 0.76810 0.62781 0.05000
H 	H 	0.80963 0.72648 0.67877 0.04500
H 	H 	0.89699 0.65042 0.70311 0.04100
H 	H 	0.96803 0.64373 0.66943 0.03300
C 	C 	0.92588 0.70787 0.59989 -0.05600
H 	H 	0.92218 0.75938 0.58054 0.03800
C 	C 	0.87463 0.62900 0.58410 -0.05800
H 	H 	0.84601 0.64320 0.55755 0.04100
H 	H 	0.90678 0.59067 0.57314 0.04000
C 	C 	0.77577 0.63859 0.63209 -0.05500
H 	H 	0.74461 0.65186 0.60650 0.04800
H 	H 	0.73675 0.60834 0.65707 0.03600
H 	H 	0.92774 0.45385 0.00207 0.03000
C 	C 	0.96715 0.59573 0.99803 -0.02300
H 	H 	0.96058 0.61248 0.02985 0.03700
C 	C 	0.02148 0.53294 0.95799 0.00100
H 	H 	0.05984 0.49762 0.95720 0.02000
C 	C 	0.03763 0.61873 0.97273 -0.07200
C 	C 	0.91425 0.53382 0.94600 -0.07200
C 	C 	0.98474 0.55672 0.92072 -0.02200
H 	H 	0.99118 0.53983 0.88892 0.02900
H 	H 	0.02366 0.69852 0.91649 0.01900
C 	C 	0.93046 0.61960 0.96081 -0.01600
H 	H 	0.89252 0.65538 0.96202 0.02700
C 	C 	0.52521 0.08566 0.99325 -0.04700
H 	H 	0.57529 0.11848 0.00789 0.03700
C 	C 	0.50446 0.99708 0.98216 0.00900
H 	H 	0.53725 0.95650 0.98794 0.02600
C 	C 	0.44817 0.07321 0.01068 0.01900
H 	H 	0.43375 0.09529 0.03997 0.02100
C 	C 	0.42772 0.98531 0.99926 -0.09400
C 	C 	0.50223 0.10617 0.95108 -0.05800
C 	C 	0.42561 0.09494 0.96805 -0.02800
H 	H 	0.39342 0.13598 0.96187 0.03500
C 	C 	0.40477 0.00593 0.95708 -0.01100
H 	H 	0.35479 0.97303 0.94237 0.01900
C 	C 	0.48170 0.01830 0.93978 -0.02800
H 	H 	0.49600 0.99603 0.91051 0.03100
C 	C 	0.46729 0.60276 0.95160 -0.01000
H 	H 	0.47933 0.66579 0.94042 0.01500
C 	C 	0.43925 0.52803 0.92574 -0.01900
H 	H 	0.42896 0.52836 0.89273 0.02900
C 	C 	0.52100 0.56586 0.97130 -0.02500
H 	H 	0.57827 0.59807 0.97555 0.02300
C 	C 	0.49245 0.49155 0.94589 -0.07100
C 	C 	0.41257 0.56219 0.98588 -0.11100
C 	C 	0.46581 0.52566 0.00557 0.02900
H 	H 	0.47659 0.52508 0.03853 0.02600
C 	C 	0.43726 0.45132 0.98007 -0.02600
H 	H 	0.42513 0.38839 0.99146 0.03200
C 	C 	0.38312 0.48830 0.96041 -0.00600
H 	H 	0.32563 0.45686 0.95646 0.01700
C 	C 	0.93904 0.13519 0.80076 -0.02400
C 	C 	0.84454 0.13349 0.85631 -0.05000
C 	C 	0.84052 0.20099 0.82577 -0.04600
C 	C 	0.91609 0.26387 0.82183 -0.04700
H 	H 	0.01531 0.23358 0.83050 0.05100
H 	H 	0.00038 0.25620 0.77864 0.05200
H 	H 	0.79176 0.08666 0.85967 0.04100
H 	H 	0.85777 0.15801 0.88690 0.03500
H 	H 	0.93097 0.29111 0.85169 0.04300
H 	H 	0.91551 0.31290 0.79975 0.03500
C 	C 	0.82267 0.16436 0.78357 -0.05200
H 	H 	0.81947 0.21133 0.76088 0.01400
H 	H 	0.76948 0.11805 0.78528 0.02300
C 	C 	0.88031 0.12629 0.76888 -0.06600
H 	H 	0.85459 0.06201 0.76338 0.03000
H 	H 	0.90463 0.15568 0.73928 0.03300
C 	C 	0.90177 0.09483 0.84166 -0.06600
H 	H 	0.87611 0.02992 0.83781 0.04600
H 	H 	0.94192 0.10061 0.86555 0.04300
C 	C 	0.36769 0.09165 0.84574 -0.05800
C 	C 	0.39704 0.17341 0.82193 -0.03700
C 	C 	0.31500 0.11492 0.76450 -0.05900
C 	C 	0.26343 0.09953 0.80269 -0.03800
C 	C 	0.28975 0.04838 0.83444 -0.05800
H 	H 	0.40172 0.05276 0.83888 0.03900
H 	H 	0.36951 0.10086 0.87907 0.03900
H 	H 	0.29838 0.15210 0.74107 0.04300
H 	H 	0.31264 0.05730 0.75058 0.02800
H 	H 	0.28694 0.98943 0.82194 0.03500
H 	H 	0.25456 0.03686 0.86250 0.03900
C 	C 	0.26898 0.18118 0.82139 -0.05700
H 	H 	0.23320 0.17207 0.84913 0.04000
H 	H 	0.25085 0.21985 0.79945 0.04700
C 	C 	0.34698 0.22446 0.83255 -0.05700
H 	H 	0.36578 0.28334 0.81573 0.04500
H 	H 	0.34841 0.23617 0.86564 0.04500
C 	C 	0.39287 0.15803 0.77573 -0.05600
H 	H 	0.41298 0.21561 0.75782 0.03100
H 	H 	0.42759 0.12089 0.76706 0.03200
C 	C 	0.83997 0.65475 0.86684 -0.06400
C 	C 	0.77217 0.62298 0.84178 -0.03400
C 	C 	0.76934 0.76752 0.83241 -0.05400
C 	C 	0.84620 0.77181 0.81711 -0.04600
C 	C 	0.88300 0.74065 0.85256 -0.05100
H 	H 	0.82426 0.65426 0.89961 0.04400
H 	H 	0.87480 0.61538 0.86393 0.04500
H 	H 	0.74086 0.78816 0.80761 0.04300
H 	H 	0.77215 0.80826 0.85798 0.03800
H 	H 	0.88814 0.78019 0.87885 0.03600
H 	H 	0.93805 0.74183 0.84264 0.01500
C 	C 	0.83952 0.71372 0.78180 -0.06400
H 	H 	0.89375 0.71459 0.77051 0.02800
H 	H 	0.81269 0.73323 0.75586 0.04000
C 	C 	0.79634 0.62732 0.79602 -0.05500
H 	H 	0.74873 0.60586 0.77705 0.03300
H 	H 	0.83027 0.58766 0.79078 0.04100
C 	C 	0.72601 0.68054 0.84690 -0.05900
H 	H 	0.67696 0.65980 0.82903 0.04000
H 	H 	0.70838 0.68022 0.87937 0.04100
Zn	Zn	0.00211 0.97599 0.63385 1.19200
O 	O 	0.02423 0.06034 0.81212 -0.39000
C 	C 	0.95262 0.79514 0.66308 0.28000
O 	O 	0.98767 0.25304 0.19571 -0.45000
C 	C 	0.97745 0.36524 0.09745 -0.07500
H 	H 	0.97214 0.28886 0.33705 0.00100
H 	H 	0.02641 0.32894 0.26519 0.03000
H 	H 	0.03089 0.41167 0.35919 0.05100
H 	H 	0.00576 0.87744 0.23923 0.04100
H 	H 	0.97992 0.94824 0.36353 0.04200
H 	H 	0.98209 0.70630 0.59715 0.03600
C 	C 	0.94989 0.50956 0.98306 -0.03000
C 	C 	0.00196 0.64294 0.93566 -0.00500
C 	C 	0.97351 0.22528 0.80742 -0.07900
