data_crystal

_cell_length_a 15.87282
_cell_length_b 18.38132
_cell_length_c 45.42622
_cell_angle_alpha 90.39978
_cell_angle_beta  90.40783
_cell_angle_gamma 119.42208

_symmetry_space_group_name_	'P 1'
_symmetry_space_group_name_H-M	'P 1'

loop_
_symmetry_equiv_pos_as_xyz
  x,y,z

loop_
_atom_site_label
_atom_site_type_symbol
_atom_site_fract_x
_atom_site_fract_y
_atom_site_fract_z
_atom_site_charge
C 	C 	0.12950 0.12796 0.75057 0.30700
C 	C 	0.17667 0.14042 0.83008 0.28600
Ni	Ni	0.01286 0.14070 0.79918 1.12000
Ni	Ni	0.05107 0.98722 0.79067 1.11900
O 	O 	0.12546 0.17477 0.77187 -0.37500
O 	O 	0.17145 0.08227 0.81094 -0.36000
O 	O 	0.10798 0.16187 0.83194 -0.37500
O 	O 	0.07915 0.04625 0.75195 -0.37600
C 	C 	0.25216 0.68336 0.46796 0.28500
C 	C 	0.11371 0.39792 0.38606 0.30100
C 	C 	0.26172 0.52593 0.48030 0.30400
C 	C 	0.11865 0.61680 0.37560 0.28500
C 	C 	0.38844 0.50232 0.39766 0.30400
Ni	Ni	0.13889 0.52942 0.42979 1.11000
Ni	Ni	0.26488 0.56280 0.36963 1.12500
Ni	Ni	0.37785 0.63247 0.43236 1.12000
O 	O 	0.17371 0.64137 0.45112 -0.36900
O 	O 	0.34032 0.70300 0.45853 -0.37100
O 	O 	0.32919 0.49221 0.37552 -0.37600
O 	O 	0.10630 0.41090 0.41407 -0.36200
O 	O 	0.13431 0.45845 0.36787 -0.37000
O 	O 	0.17330 0.49512 0.46987 -0.37400
O 	O 	0.33306 0.54145 0.46263 -0.39200
O 	O 	0.38806 0.66732 0.35894 -0.36600
O 	O 	0.07148 0.55370 0.39400 -0.35300
O 	O 	0.19000 0.62175 0.35925 -0.35200
O 	O 	0.43888 0.57553 0.41061 -0.39300
O 	O 	0.25988 0.58833 0.41062 -0.71300
H 	H 	0.26284 0.64270 0.40803 0.15500
C 	C 	0.24089 0.67276 0.20010 0.28100
C 	C 	0.34623 0.52729 0.10036 0.31000
C 	C 	0.28132 0.47583 0.19581 0.30300
C 	C 	0.30073 0.71318 0.10757 0.29200
C 	C 	0.57269 0.63645 0.16954 0.31200
Ni	Ni	0.24543 0.56968 0.14834 1.11400
Ni	Ni	0.46785 0.69145 0.12890 1.12100
Ni	Ni	0.41917 0.65828 0.19721 1.12500
O 	O 	0.19473 0.59821 0.18689 -0.35500
O 	O 	0.33048 0.70249 0.21066 -0.35400
O 	O 	0.26767 0.53023 0.10740 -0.37100
O 	O 	0.42840 0.57443 0.11429 -0.38500
O 	O 	0.25739 0.47339 0.16798 -0.37000
O 	O 	0.31366 0.54552 0.21114 -0.36700
O 	O 	0.23065 0.65807 0.12433 -0.37200
O 	O 	0.37515 0.70280 0.09985 -0.37400
O 	O 	0.50142 0.60519 0.18853 -0.37800
O 	O 	0.37231 0.65305 0.15822 -0.72000
H 	H 	0.36326 0.70221 0.15920 0.15600
C 	C 	0.10779 0.89445 0.23944 0.29200
C 	C 	0.12124 0.10975 0.34138 0.30400
C 	C 	0.06625 0.86034 0.31860 0.29900
C 	C 	0.15646 0.17500 0.26322 0.28400
Ni	Ni	0.16612 0.02923 0.28934 1.11500
O 	O 	0.17816 0.95413 0.25601 -0.34800
O 	O 	0.02048 0.88701 0.23740 -0.36600
O 	O 	0.18999 0.11074 0.32492 -0.35000
O 	O 	0.03050 0.05715 0.33493 -0.37300
O 	O 	0.13735 0.93797 0.32079 -0.35400
O 	O 	0.02073 0.83247 0.29333 -0.36800
O 	O 	0.20450 0.13261 0.26185 -0.34600
O 	O 	0.10226 0.16592 0.28617 -0.37500
O 	O 	0.03565 0.99538 0.27981 -0.70600
H 	H 	0.04521 0.01278 0.25908 0.15400
C 	C 	0.24556 0.39605 0.21169 -0.06100
C 	C 	0.17499 0.37463 0.23358 0.00700
C 	C 	0.13438 0.29595 0.24680 0.00400
C 	C 	0.17614 0.24403 0.24210 -0.05500
C 	C 	0.23775 0.26043 0.21779 0.00400
C 	C 	0.27538 0.33800 0.20331 0.00400
C 	C 	0.14297 0.43311 0.24232 0.10600
C 	C 	0.24655 0.19319 0.20419 0.09800
C 	C 	0.34321 0.35727 0.17950 0.09500
C 	C 	0.04292 0.26455 0.26188 0.09900
N 	N 	0.39707 0.37248 0.16042 -0.11000
N 	N 	0.25293 0.13944 0.19301 -0.09900
N 	N 	0.11768 0.47976 0.24948 -0.09200
C 	C 	0.19311 0.72497 0.20275 -0.05700
C 	C 	0.24449 0.81012 0.19531 0.00300
C 	C 	0.21608 0.86610 0.20672 0.00500
C 	C 	0.12901 0.83557 0.22249 -0.05800
C 	C 	0.06760 0.74802 0.22465 0.01200
C 	C 	0.10030 0.69271 0.21512 -0.00100
C 	C 	0.32143 0.83908 0.17405 0.08500
C 	C 	0.03654 0.60327 0.21660 0.10800
C 	C 	0.27784 0.95503 0.20272 0.10400
N 	N 	0.32830 0.02586 0.19953 -0.09700
N 	N 	0.38275 0.86348 0.15698 -0.11000
C 	C 	0.11738 0.32172 0.37578 -0.06500
C 	C 	0.07199 0.24629 0.39195 0.00200
C 	C 	0.08611 0.17848 0.38370 0.00300
C 	C 	0.14335 0.18535 0.35914 -0.06700
C 	C 	0.19986 0.26439 0.34672 0.00600
C 	C 	0.17431 0.32628 0.35112 0.00700
C 	C 	0.00485 0.23562 0.41517 0.10300
C 	C 	0.28553 0.28297 0.33010 0.10800
C 	C 	0.19735 0.38837 0.32852 0.09100
C 	C 	0.04466 0.10300 0.40097 0.09800
N 	N 	0.21618 0.43793 0.31045 -0.11200
N 	N 	0.35407 0.29807 0.31682 -0.10000
C 	C 	0.08339 0.67641 0.37005 -0.06400
C 	C 	0.00019 0.65211 0.35240 0.02300
C 	C 	0.98489 0.71357 0.33880 -0.01300
C 	C 	0.05561 0.79890 0.34184 -0.04500
C 	C 	0.12454 0.82233 0.36488 0.00100
C 	C 	0.14274 0.76166 0.37760 0.00700
C 	C 	0.16873 0.90580 0.37754 0.10400
C 	C 	0.22585 0.78751 0.39694 0.08400
N 	N 	0.29268 0.80889 0.41224 -0.10300
N 	N 	0.20393 0.97241 0.38768 -0.10300
C 	C 	0.24596 0.73045 0.49323 -0.07900
C 	C 	0.18791 0.68829 0.51730 0.01600
C 	C 	0.18897 0.73306 0.54249 -0.07000
C 	C 	0.24585 0.82037 0.54337 0.04700
C 	C 	0.30273 0.86240 0.51904 -0.07100
C 	C 	0.30269 0.81765 0.49413 0.02300
C 	C 	0.25359 0.86727 0.57070 -0.04900
C 	C 	0.25057 0.93897 0.56954 -0.05300
C 	C 	0.31146 0.01027 0.58941 0.05400
C 	C 	0.40584 0.02787 0.59695 -0.06600
C 	C 	0.47268 0.10632 0.60823 0.02700
C 	C 	0.44670 0.16862 0.61178 -0.08400
C 	C 	0.35019 0.14875 0.60674 0.02600
C 	C 	0.28306 0.06999 0.59553 -0.07100
H 	H 	0.14426 0.62083 0.51684 0.03300
H 	H 	0.14621 0.69993 0.56133 0.05000
H 	H 	0.34888 0.92962 0.51975 0.05400
H 	H 	0.34786 0.85070 0.47567 0.04900
H 	H 	0.27552 0.84979 0.59097 0.04600
H 	H 	0.21477 0.94977 0.55093 0.05000
H 	H 	0.42925 0.98267 0.59241 0.05000
H 	H 	0.32801 0.19519 0.61031 0.04200
H 	H 	0.21028 0.05690 0.59016 0.05700
C 	C 	0.27960 0.53933 0.51225 -0.09900
C 	C 	0.20895 0.48567 0.53189 0.02700
C 	C 	0.21210 0.50967 0.56128 -0.07700
C 	C 	0.28651 0.58760 0.57144 0.05100
C 	C 	0.36100 0.63842 0.55232 -0.07600
C 	C 	0.35842 0.61376 0.52296 0.02400
C 	C 	0.27736 0.62180 0.60009 -0.05300
C 	C 	0.24310 0.57219 0.62364 -0.04500
C 	C 	0.17406 0.57830 0.64408 0.04400
C 	C 	0.15307 0.53485 0.67072 -0.06300
C 	C 	0.06361 0.50816 0.68410 0.01500
H 	H 	0.14873 0.42733 0.52402 0.03900
H 	H 	0.15361 0.46991 0.57569 0.05500
H 	H 	0.41860 0.69863 0.55984 0.05400
H 	H 	0.41409 0.65532 0.50809 0.02500
H 	H 	0.28646 0.68438 0.60086 0.04500
H 	H 	0.25222 0.51737 0.62493 0.05100
H 	H 	0.20188 0.51474 0.67948 0.06300
H 	H 	0.04397 0.46715 0.70288 0.04700
C 	C 	0.41971 0.44022 0.40216 -0.08100
C 	C 	0.35785 0.36546 0.41634 0.02300
C 	C 	0.39666 0.32567 0.43342 -0.06700
C 	C 	0.49748 0.36151 0.43681 0.05100
H 	H 	0.28077 0.34314 0.41673 0.03900
H 	H 	0.34876 0.27222 0.44644 0.05700
H 	H 	0.49004 0.32544 0.48362 0.05000
H 	H 	0.67957 0.28271 0.50609 0.05700
C 	C 	0.38191 0.27508 0.70070 -0.05900
C 	C 	0.35427 0.19049 0.70540 0.00700
C 	C 	0.26906 0.13916 0.72094 0.00500
C 	C 	0.20369 0.16842 0.72750 -0.05800
C 	C 	0.22075 0.24556 0.71598 0.00800
C 	C 	0.31131 0.30066 0.70372 0.00300
C 	C 	0.40780 0.15432 0.69188 0.09700
C 	C 	0.14544 0.26856 0.71707 0.09500
C 	C 	0.32960 0.38157 0.69340 0.10100
C 	C 	0.25140 0.05842 0.73121 0.10300
N 	N 	0.34354 0.44590 0.68509 -0.11000
N 	N 	0.23754 0.99402 0.73942 -0.11600
N 	N 	0.08554 0.28707 0.71794 -0.10800
N 	N 	0.04207 0.91370 0.69165 -0.10600
C 	C 	0.34457 0.47913 0.07401 -0.08900
C 	C 	0.25778 0.40915 0.06493 0.02700
C 	C 	0.24701 0.37865 0.03610 -0.07300
C 	C 	0.32334 0.41828 0.01599 0.05200
C 	C 	0.41450 0.47930 0.02659 -0.07200
C 	C 	0.42501 0.51017 0.05543 0.02400
C 	C 	0.30306 0.41271 0.98376 -0.05000
C 	C 	0.21938 0.35198 0.97231 -0.04600
C 	C 	0.15474 0.37274 0.95482 0.04500
C 	C 	0.08227 0.31086 0.93685 -0.06300
C 	C 	0.15155 0.44668 0.96092 -0.06400
H 	H 	0.19664 0.38167 0.07961 0.03700
H 	H 	0.17718 0.32853 0.02894 0.05400
H 	H 	0.47522 0.50781 0.01178 0.05200
H 	H 	0.49378 0.56203 0.06256 0.03200
H 	H 	0.34586 0.46806 0.97071 0.04600
H 	H 	0.18995 0.28877 0.98050 0.04800
H 	H 	0.08451 0.25432 0.93147 0.05700
H 	H 	0.20726 0.49584 0.97439 0.05300
C 	C 	0.28781 0.77943 0.09364 -0.08100
C 	C 	0.19642 0.77449 0.09347 0.02300
C 	C 	0.18645 0.84197 0.08389 -0.07100
C 	C 	0.26749 0.91516 0.07452 0.05300
C 	C 	0.35805 0.91878 0.07344 -0.07000
C 	C 	0.36819 0.85150 0.08310 0.02600
C 	C 	0.25596 0.98530 0.06350 -0.05100
C 	C 	0.32303 0.06481 0.06965 -0.04500
C 	C 	0.34340 0.13386 0.04904 0.05000
C 	C 	0.32113 0.11741 0.01877 -0.06800
C 	C 	0.37282 0.17930 0.99823 0.02300
C 	C 	0.44858 0.25682 0.00759 -0.08700
C 	C 	0.45934 0.27774 0.03764 0.02300
C 	C 	0.40621 0.21645 0.05834 -0.07200
H 	H 	0.13332 0.71879 0.10106 0.04000
H 	H 	0.11582 0.83757 0.08400 0.05500
H 	H 	0.42050 0.97366 0.06505 0.05600
H 	H 	0.43901 0.85632 0.08308 0.03900
H 	H 	0.19444 0.97186 0.04935 0.04900
H 	H 	0.37273 0.07746 0.08807 0.05200
H 	H 	0.26953 0.05543 0.01093 0.05700
H 	H 	0.35877 0.16489 0.97499 0.04500
H 	H 	0.51466 0.33908 0.04508 0.03900
H 	H 	0.42072 0.23122 0.08159 0.05800
C 	C 	0.73993 0.56144 0.14840 -0.06700
C 	C 	0.65419 0.55452 0.15931 0.02500
C 	C 	0.65556 0.62289 0.17353 -0.08300
H 	H 	0.73627 0.51121 0.13488 0.05500
H 	H 	0.58587 0.50009 0.15357 0.04500
C 	C 	0.44208 0.29305 0.87839 -0.06100
C 	C 	0.41433 0.32772 0.85517 0.00700
C 	C 	0.32825 0.27747 0.83901 0.00300
C 	C 	0.26926 0.19238 0.84616 -0.05200
C 	C 	0.29915 0.15694 0.86852 0.00100
C 	C 	0.38427 0.20745 0.88503 0.00800
C 	C 	0.47353 0.41544 0.84820 0.09800
C 	C 	0.24350 0.06809 0.87413 0.10100
C 	C 	0.41336 0.17060 0.90830 0.09600
C 	C 	0.30185 0.31286 0.81454 0.09400
N 	N 	0.28124 0.34149 0.79505 -0.10300
N 	N 	0.19942 0.99717 0.87856 -0.10600
O 	O 	0.49537 0.31068 0.62578 -0.37600
O 	O 	0.44556 0.72742 0.40456 -0.37400
O 	O 	0.57980 0.69147 0.14997 -0.38600
O 	O 	0.53372 0.77599 0.19457 -0.36900
O 	O 	0.52068 0.80769 0.14546 -0.37600
N 	N 	0.43593 0.14022 0.92672 -0.10100
N 	N 	0.44993 0.12479 0.68112 -0.10600
C 	C 	0.52805 0.30569 0.98747 0.30600
H 	H 	0.54577 0.11960 0.61323 0.04100
C 	C 	0.52181 0.25521 0.61894 0.30800
O 	O 	0.52021 0.36979 0.92293 -0.36700
C 	C 	0.53651 0.34569 0.46445 -0.04500
O 	O 	0.56139 0.38639 0.98518 -0.37100
C 	C 	0.48499 0.33659 0.69417 0.29500
N 	N 	0.52081 0.48541 0.84265 -0.10000
C 	C 	0.46090 0.71383 0.37702 0.29500
C 	C 	0.52991 0.34677 0.89634 0.30300
O 	O 	0.50542 0.40255 0.67833 -0.36200
H 	H 	0.72303 0.31623 0.55868 0.03300
C 	C 	0.56163 0.82914 0.17210 0.29700
N 	N 	0.50584 0.55731 0.73173 -0.09800
O 	O 	0.57276 0.27001 0.97475 -0.37400
C 	C 	0.51857 0.46568 0.40060 0.03000
N 	N 	0.51249 0.99121 0.20683 -0.10000
C 	C 	0.69157 0.34186 0.51506 -0.07400
C 	C 	0.55785 0.42749 0.41819 -0.06800
Ni	Ni	0.59053 0.43076 0.64127 1.11400
O 	O 	0.61099 0.27997 0.61091 -0.39000
O 	O 	0.55545 0.32678 0.70572 -0.36100
N 	N 	0.49166 0.56176 0.33320 -0.10200
C 	C 	0.71648 0.36102 0.54486 0.02400
Ni	Ni	0.63797 0.45326 0.94856 1.11400
O 	O 	0.61549 0.38130 0.88406 -0.36700
C 	C 	0.63086 0.36984 0.46809 -0.05200
H 	H 	0.56652 0.52100 0.38840 0.04500
C 	C 	0.11181 0.60739 0.63398 -0.05800
O 	O 	0.65931 0.46533 0.60036 -0.36400
C 	C 	0.57611 0.97841 0.20315 0.09500
C 	C 	0.55918 0.76089 0.36455 -0.06000
C 	C 	0.53379 0.63314 0.33749 0.09200
N 	N 	0.56637 0.92301 0.40919 -0.10200
C 	C 	0.67633 0.39672 0.49745 0.05200
N 	N 	0.52070 0.16481 0.75137 -0.10000
C 	C 	0.58545 0.60598 0.72702 0.10300
N 	N 	0.72316 0.07129 0.97084 -0.10900
O 	O 	0.01395 0.91320 0.82668 -0.36800
C 	C 	0.59054 0.88884 0.39266 0.10100
H 	H 	0.63556 0.45406 0.41917 0.05600
C 	C 	0.07151 0.45388 0.95212 0.01100
C 	C 	0.65192 0.90886 0.17607 -0.06000
O 	O 	0.63863 0.25301 0.90731 -0.39000
O 	O 	0.66687 0.55258 0.65803 -0.35800
C 	C 	0.58740 0.72277 0.34246 0.00400
H 	H 	0.67631 0.37881 0.44920 0.05000
H 	H 	0.12775 0.64366 0.61409 0.04800
C 	C 	0.58064 0.15311 0.74196 0.09700
C 	C 	0.74493 0.69095 0.18217 0.03200
O 	O 	0.69759 0.53394 0.91261 -0.35800
C 	C 	0.72032 0.44227 0.58937 0.29700
C 	C 	0.65625 0.96304 0.19878 0.00500
C 	C 	0.62100 0.84619 0.37191 0.00200
C 	C 	0.72476 0.43458 0.55724 -0.08700
C 	C 	0.73005 0.08902 0.94624 0.09600
N 	N 	0.57338 0.98827 0.78647 -0.11300
H 	H 	0.76731 0.62251 0.02750 0.04000
O 	O 	0.66457 0.24269 0.66499 -0.38600
O 	O 	0.68435 0.40859 0.65798 -0.71400
H 	H 	0.82669 0.67066 0.07788 0.05500
C 	C 	0.66769 0.20691 0.92099 0.31200
O 	O 	0.73593 0.41438 0.00254 -0.37400
O 	O 	0.67245 0.50708 0.70469 -0.36400
N 	N 	0.64797 0.75411 0.78586 -0.11700
C 	C 	0.82764 0.63727 0.15176 0.05200
Ni	Ni	0.71841 0.32960 0.97029 1.12200
O 	O 	0.74444 0.52904 0.97907 -0.36300
O 	O 	0.71423 0.40236 0.94139 -0.71600
C 	C 	0.69797 0.56860 0.68575 0.28700
C 	C 	0.74353 0.87706 0.13921 0.08600
N 	N 	0.74739 0.84866 0.11678 -0.11700
H 	H 	0.74713 0.74262 0.19447 0.04200
C 	C 	0.62370 0.03361 0.76882 0.11200
O 	O 	0.70437 0.22839 0.94776 -0.37500
Ni	Ni	0.72656 0.34136 0.63826 1.12100
Ni	Ni	0.69868 0.40987 0.69994 1.12300
C 	C 	0.73885 0.91261 0.16727 0.00300
C 	C 	0.68537 0.66705 0.72127 0.00400
C 	C 	0.65617 0.13854 0.73051 0.01000
C 	C 	0.69355 0.24702 0.69239 0.31200
C 	C 	0.69425 0.47395 0.50912 -0.07500
C 	C 	0.68601 0.74747 0.76519 0.08600
H 	H 	0.90137 0.54748 0.12385 0.04800
C 	C 	0.77787 0.49663 0.99906 0.28500
Ni	Ni	0.72868 0.37463 0.90241 1.12300
C 	C 	0.66834 0.77174 0.32527 0.01000
C 	C 	0.81800 0.60626 0.03746 0.02300
C 	C 	0.73873 0.11115 0.91543 0.00600
H 	H 	0.73976 0.46369 0.65354 0.14900
C 	C 	0.85188 0.63362 0.06615 -0.07200
C 	C 	0.68398 0.14594 0.90348 -0.06800
C 	C 	0.71810 0.49273 0.53891 0.02500
C 	C 	0.67778 0.74097 0.29666 0.09100
C 	C 	0.70504 0.17814 0.70455 -0.06500
C 	C 	0.73450 0.65407 0.69782 -0.05500
C 	C 	0.83088 0.69835 0.17115 -0.06900
N 	N 	0.74205 0.48540 0.82346 -0.10700
O 	O 	0.77916 0.42901 0.60658 -0.38100
O 	O 	0.72937 0.31738 0.70746 -0.37500
C 	C 	0.73548 0.99663 0.21860 0.00500
C 	C 	0.68652 0.09047 0.74670 0.00400
N 	N 	0.51697 0.13877 0.84993 -0.10100
C 	C 	0.71088 0.89120 0.35781 0.00800
N 	N 	0.68508 0.71656 0.27379 -0.11000
C 	C 	0.73341 0.73894 0.73924 0.00900
H 	H 	0.77900 0.45126 0.94420 0.15800
C 	C 	0.58461 0.14001 0.86018 0.09700
C 	C 	0.78039 0.55378 0.89912 0.28800
H 	H 	0.68465 0.51749 0.49546 0.05500
C 	C 	0.73541 0.04383 0.24429 0.10100
C 	C 	0.84085 0.55057 0.02306 -0.07800
C 	C 	0.91271 0.60446 0.11330 -0.05200
C 	C 	0.00249 0.31860 0.92786 0.00500
C 	C 	0.90473 0.66222 0.12941 -0.04900
N 	N 	0.73529 0.08144 0.26481 -0.10000
C 	C 	0.73449 0.85378 0.33436 -0.06700
C 	C 	0.66943 0.14139 0.87280 0.00100
C 	C 	0.90934 0.60554 0.08063 0.04600
C 	C 	0.79620 0.09196 0.89668 -0.00200
C 	C 	0.86158 0.06631 0.90915 0.08900
C 	C 	0.78033 0.54913 0.83575 0.09800
O 	O 	0.81065 0.49862 0.89509 -0.37000
C 	C 	0.77741 0.97670 0.36676 0.09300
H 	H 	0.72645 0.55053 0.54806 0.03800
N 	N 	0.91401 0.04622 0.91924 -0.10200
C 	C 	0.77898 0.16344 0.69392 0.00800
C 	C 	0.81854 0.94548 0.18696 -0.00000
C 	C 	0.82778 0.63226 0.88220 -0.05600
C 	C 	0.81198 0.97948 0.21419 -0.05500
C 	C 	0.77528 0.09424 0.73987 -0.05700
C 	C 	0.82577 0.71937 0.68944 -0.00000
H 	H 	0.93971 0.72626 0.12170 0.04800
C 	C 	0.82828 0.62906 0.85114 0.00700
C 	C 	0.90947 0.53281 0.03583 0.01800
O 	O 	0.78956 0.03297 0.78532 -0.36500
C 	C 	0.82174 0.19515 0.66550 0.08700
N 	N 	0.83014 0.04501 0.37386 -0.10500
C 	C 	0.94358 0.56022 0.06452 -0.07100
H 	H 	0.89857 0.75521 0.17531 0.06300
C 	C 	0.79595 0.10509 0.86604 -0.05400
C 	C 	0.73568 0.13470 0.85445 0.00200
C 	C 	0.82879 0.80096 0.73262 -0.06100
O 	O 	0.86108 0.38384 0.96303 -0.38500
O 	O 	0.84263 0.48476 0.69479 -0.36600
C 	C 	0.81420 0.12123 0.71168 0.00600
N 	N 	0.88207 0.71704 0.95432 -0.10800
O 	O 	0.84739 0.36233 0.91189 -0.37500
O 	O 	0.85358 0.39347 0.66129 -0.37100
H 	H 	0.06661 0.50837 0.95881 0.03700
C 	C 	0.87759 0.71409 0.92887 0.08500
N 	N 	0.85591 0.22046 0.64281 -0.11800
C 	C 	0.86950 0.71196 0.66252 0.09000
C 	C 	0.82602 0.90123 0.31854 0.31300
C 	C 	0.87202 0.71040 0.89696 0.00300
H 	H 	0.93058 0.49238 0.02443 0.03500
Ni	Ni	0.83396 0.95289 0.80207 1.11400
O 	O 	0.82779 0.00308 0.84253 -0.35600
C 	C 	0.83335 0.08182 0.76322 0.30600
O 	O 	0.84743 0.85243 0.81855 -0.35800
O 	O 	0.84131 0.91938 0.75901 -0.37500
O 	O 	0.84538 0.97207 0.30641 -0.37900
C 	C 	0.87336 0.79272 0.70699 0.00700
O 	O 	0.85070 0.90704 0.25129 -0.36700
N 	N 	0.90429 0.70634 0.64094 -0.11300
C 	C 	0.87185 0.70359 0.83500 0.00500
N 	N 	0.81968 0.66992 0.31290 -0.10600
H 	H 	0.99057 0.54062 0.07500 0.05200
C 	C 	0.89221 0.46720 0.67509 0.28200
C 	C 	0.87112 0.98033 0.23951 0.28300
C 	C 	0.75355 0.17223 0.82564 0.10000
C 	C 	0.89878 0.38248 0.93707 0.28800
C 	C 	0.85344 0.08328 0.84590 0.28800
C 	C 	0.90553 0.94248 0.17969 0.08100
C 	C 	0.88309 0.70038 0.80344 0.09900
C 	C 	0.88136 0.87408 0.75256 0.30900
C 	C 	0.88522 0.10076 0.70030 0.10300
O 	O 	0.87768 0.86536 0.31238 -0.38500
N 	N 	0.89207 0.69715 0.77829 -0.10100
C 	C 	0.91121 0.78496 0.88062 0.00200
C 	C 	0.90668 0.78128 0.84959 -0.05300
N 	N 	0.76851 0.20370 0.80287 -0.10600
N 	N 	0.89402 0.68801 0.24580 -0.11200
O 	O 	0.92471 0.05234 0.25379 -0.37000
C 	C 	0.92325 0.85545 0.83255 0.29100
N 	N 	0.87841 0.49410 0.34336 -0.09700
H 	H 	0.97090 0.59551 0.63744 0.04700
C 	C 	0.89324 0.68968 0.32435 0.10000
N 	N 	0.94181 0.08425 0.69125 -0.09900
O 	O 	0.92849 0.12605 0.76307 -0.36100
N 	N 	0.97505 0.94016 0.17389 -0.10900
O 	O 	0.91159 0.14139 0.82693 -0.35900
C 	C 	0.95695 0.86518 0.89570 0.09400
N 	N 	0.95114 0.22691 0.43370 -0.10800
Ni	Ni	0.94487 0.88140 0.27377 1.12100
O 	O 	0.95464 0.88098 0.76845 -0.36100
C 	C 	0.96722 0.85997 0.69847 0.09800
H 	H 	0.94394 0.26796 0.91566 0.04900
N 	N 	0.97001 0.23983 0.27391 -0.11300
N 	N 	0.01161 0.04266 0.41474 -0.10400
C 	C 	0.93246 0.56424 0.34737 0.08900
C 	C 	0.97117 0.71476 0.23648 0.07700
C 	C 	0.02280 0.58094 0.64748 0.00200
Ni	Ni	0.97875 0.05867 0.29443 1.12400
C 	C 	0.99517 0.52548 0.67104 -0.06100
O 	O 	0.96697 0.02505 0.80473 -0.71700
N 	N 	0.98499 0.53192 0.21767 -0.10600
N 	N 	0.99372 0.92916 0.90781 -0.10200
C 	C 	0.99411 0.38779 0.93708 -0.06400
H 	H 	0.97765 0.02419 0.82611 0.17200
