data_crystal

_cell_length_a 20.04339
_cell_length_b 20.39214
_cell_length_c 48.36201
_cell_angle_alpha 89.98442
_cell_angle_beta  89.98494
_cell_angle_gamma 119.49960

_symmetry_space_group_name_	'P 1'
_symmetry_space_group_name_H-M	'P 1'

loop_
_symmetry_equiv_pos_as_xyz
  x,y,z

loop_
_atom_site_label
_atom_site_type_symbol
_atom_site_fract_x
_atom_site_fract_y
_atom_site_fract_z
_atom_site_charge
C 	C 	0.50175 0.17926 0.87834 0.28700
C 	C 	0.71923 0.50114 0.88915 0.31000
C 	C 	0.69881 0.28484 0.85481 0.30100
C 	C 	0.51414 0.38652 0.91996 0.29100
C 	C 	0.79121 0.37663 0.93786 0.31900
C 	C 	0.60655 0.25321 0.96985 0.29600
Ni	Ni	0.59704 0.34646 0.87504 1.11300
Ni	Ni	0.66147 0.39908 0.93684 1.12400
Ni	Ni	0.65286 0.24982 0.91237 1.11900
O 	O 	0.50015 0.24315 0.87767 -0.37900
O 	O 	0.56361 0.17526 0.88690 -0.37100
O 	O 	0.76618 0.41895 0.92728 -0.39500
O 	O 	0.69959 0.44662 0.87125 -0.37500
O 	O 	0.68261 0.48847 0.91265 -0.38200
O 	O 	0.59124 0.21139 0.94717 -0.38900
O 	O 	0.63984 0.29380 0.84840 -0.37100
O 	O 	0.72446 0.29625 0.88011 -0.38700
O 	O 	0.64728 0.32857 0.96923 -0.38000
O 	O 	0.54192 0.40025 0.89418 -0.36200
O 	O 	0.55595 0.38638 0.94124 -0.37700
O 	O 	0.74823 0.30264 0.93668 -0.38300
O 	O 	0.61817 0.32117 0.91014 -0.71500
H 	H 	0.56656 0.29061 0.91807 0.16500
C 	C 	0.69147 0.16751 0.62459 0.28200
C 	C 	0.75660 0.47869 0.63679 0.30600
C 	C 	0.57409 0.24757 0.65679 0.30100
C 	C 	0.87399 0.39614 0.60006 0.28900
C 	C 	0.57816 0.36165 0.57884 0.31900
C 	C 	0.66849 0.26902 0.54214 0.29300
Ni	Ni	0.74144 0.32647 0.64128 1.11400
Ni	Ni	0.73552 0.40152 0.58309 1.12300
Ni	Ni	0.60168 0.23643 0.59793 1.12000
O 	O 	0.74876 0.23087 0.63444 -0.37500
O 	O 	0.62253 0.16055 0.61943 -0.37300
O 	O 	0.64050 0.40424 0.59247 -0.39600
O 	O 	0.72363 0.41559 0.65072 -0.37700
O 	O 	0.78836 0.48178 0.61272 -0.37600
O 	O 	0.63976 0.21796 0.56218 -0.39000
O 	O 	0.64140 0.25568 0.66341 -0.36900
O 	O 	0.56140 0.26313 0.63179 -0.38600
O 	O 	0.69412 0.34258 0.54671 -0.37700
O 	O 	0.85316 0.39732 0.62617 -0.36300
O 	O 	0.83776 0.40642 0.57897 -0.37500
O 	O 	0.55549 0.28946 0.57581 -0.38200
O 	O 	0.70396 0.31374 0.60486 -0.71400
H 	H 	0.73238 0.29192 0.59565 0.16000
C 	C 	0.93256 0.84225 0.72857 0.29200
C 	C 	0.14427 0.08668 0.79825 0.30100
C 	C 	0.92206 0.87573 0.80689 0.30400
C 	C 	0.16634 0.07879 0.72787 0.28600
C 	C 	0.91588 0.08815 0.78601 0.29900
C 	C 	0.91516 0.04449 0.71142 0.29800
Ni	Ni	0.05347 0.94923 0.76697 1.10800
Ni	Ni	0.04617 0.10257 0.75405 1.11700
Ni	Ni	0.89112 0.94584 0.75909 1.11800
O 	O 	0.00648 0.87368 0.73463 -0.37900
O 	O 	0.88366 0.84655 0.74616 -0.37600
O 	O 	0.98942 0.10992 0.78702 -0.38400
O 	O 	0.08822 0.01812 0.80102 -0.38300
O 	O 	0.13913 0.13149 0.77962 -0.37500
O 	O 	0.88280 0.97384 0.72027 -0.39700
O 	O 	0.96874 0.86476 0.79098 -0.37200
O 	O 	0.89874 0.92297 0.79936 -0.38500
O 	O 	0.96811 0.10263 0.72628 -0.37600
O 	O 	0.15432 0.02284 0.74520 -0.37100
O 	O 	0.11415 0.10000 0.72365 -0.38500
O 	O 	0.86861 0.02817 0.77157 -0.38000
O 	O 	0.99930 0.99612 0.75385 -0.71100
H 	H 	0.00204 0.98835 0.73387 0.15000
C 	C 	0.18995 0.73007 0.40143 0.28600
C 	C 	0.39471 0.65083 0.46577 0.31600
C 	C 	0.39724 0.84904 0.42203 0.30700
C 	C 	0.19653 0.53303 0.45323 0.29200
C 	C 	0.46120 0.70594 0.37844 0.30600
C 	C 	0.25165 0.56367 0.35938 0.28400
Ni	Ni	0.28498 0.70118 0.44587 1.11200
Ni	Ni	0.33284 0.59291 0.41241 1.12400
Ni	Ni	0.32615 0.72509 0.38047 1.12000
O 	O 	0.22319 0.74769 0.42637 -0.36900
O 	O 	0.21864 0.70916 0.38066 -0.38100
O 	O 	0.41465 0.63365 0.38266 -0.38300
O 	O 	0.34011 0.66454 0.47367 -0.37200
O 	O 	0.41355 0.65852 0.43981 -0.39000
O 	O 	0.29728 0.63691 0.35370 -0.37800
O 	O 	0.38796 0.79986 0.44111 -0.37700
O 	O 	0.35750 0.82679 0.39889 -0.37500
O 	O 	0.25586 0.53391 0.38327 -0.38100
O 	O 	0.19101 0.59532 0.45179 -0.37700
O 	O 	0.25819 0.53066 0.44378 -0.36800
O 	O 	0.43731 0.75471 0.38178 -0.39000
O 	O 	0.29521 0.66166 0.41205 -0.71800
H 	H 	0.24105 0.62714 0.40747 0.16400
C 	C 	0.54475 0.71414 0.11489 0.28700
C 	C 	0.25788 0.65620 0.05641 0.31500
C 	C 	0.46836 0.84604 0.09840 0.30900
C 	C 	0.32659 0.52828 0.06578 0.29200
C 	C 	0.26474 0.71504 0.14509 0.30300
C 	C 	0.32351 0.56154 0.15951 0.28300
Ni	Ni	0.41821 0.69612 0.07340 1.11300
Ni	Ni	0.26381 0.59570 0.10933 1.12300
Ni	Ni	0.41323 0.72141 0.13937 1.12100
O 	O 	0.52827 0.73469 0.09069 -0.37000
O 	O 	0.49838 0.69630 0.13657 -0.38300
O 	O 	0.23224 0.64197 0.14034 -0.38200
O 	O 	0.32391 0.66594 0.04734 -0.37300
O 	O 	0.24969 0.66365 0.08270 -0.38800
O 	O 	0.35280 0.63412 0.16605 -0.37900
O 	O 	0.42385 0.79901 0.07952 -0.37800
O 	O 	0.48694 0.82090 0.12049 -0.37800
O 	O 	0.27841 0.53227 0.13764 -0.37900
O 	O 	0.39684 0.58740 0.06656 -0.37800
O 	O 	0.26618 0.52951 0.07725 -0.36800
O 	O 	0.33807 0.75916 0.14040 -0.39100
O 	O 	0.37152 0.65881 0.10784 -0.71700
H 	H 	0.38761 0.62110 0.11142 0.16200
C 	C 	0.09920 0.17708 0.22899 0.28300
C 	C 	0.83279 0.92348 0.28639 0.30200
C 	C 	0.05151 0.16715 0.29136 0.29500
C 	C 	0.87383 0.93166 0.20952 0.27400
C 	C 	0.05460 0.94099 0.30606 0.29400
C 	C 	0.09403 0.93814 0.22811 0.28100
Ni	Ni	0.94039 0.05822 0.25070 1.11500
Ni	Ni	0.95209 0.90532 0.25777 1.11800
Ni	Ni	0.10354 0.06385 0.26563 1.12000
O 	O 	0.02378 0.14953 0.22816 -0.37200
O 	O 	0.12977 0.13251 0.23219 -0.38000
O 	O 	0.02182 0.89451 0.28526 -0.38800
O 	O 	0.83914 0.97660 0.26930 -0.37400
O 	O 	0.88969 0.90975 0.28992 -0.38900
O 	O 	0.13264 0.99044 0.24745 -0.38300
O 	O 	0.97958 0.11538 0.28781 -0.37800
O 	O 	0.10771 0.15259 0.28667 -0.37700
O 	O 	0.01780 0.89984 0.22755 -0.38900
O 	O 	0.89280 0.00281 0.21390 -0.36000
O 	O 	0.86634 0.88682 0.23061 -0.38100
O 	O 	0.08243 0.01372 0.30279 -0.37700
O 	O 	0.00098 0.01153 0.25227 -0.71200
H 	H 	0.01247 0.01371 0.23235 0.15400
C 	C 	0.32120 0.50896 0.18057 -0.06500
C 	C 	0.35470 0.46409 0.17473 0.00400
C 	C 	0.32512 0.39253 0.18668 -0.05400
C 	C 	0.26056 0.36481 0.20395 0.01400
C 	C 	0.23208 0.41321 0.21195 0.01600
C 	C 	0.26606 0.48677 0.20147 -0.01800
C 	C 	0.16448 0.38469 0.22736 -0.05800
C 	C 	0.12154 0.30779 0.23261 0.00600
C 	C 	0.14879 0.25884 0.22470 -0.07100
C 	C 	0.21974 0.28788 0.21111 -0.02000
H 	H 	0.39932 0.48199 0.15921 0.03100
H 	H 	0.34898 0.35693 0.18095 0.04400
H 	H 	0.24225 0.52283 0.20672 0.04600
H 	H 	0.14276 0.42148 0.23394 0.04600
H 	H 	0.06684 0.28603 0.24303 0.03500
H 	H 	0.24072 0.25033 0.20471 0.04600
C 	C 	0.62383 0.73162 0.12028 -0.06900
C 	C 	0.63610 0.68186 0.13679 0.00700
C 	C 	0.69835 0.70991 0.15497 -0.05700
C 	C 	0.74899 0.78773 0.15638 0.01800
C 	C 	0.74433 0.83567 0.13628 0.01100
C 	C 	0.68287 0.80647 0.11754 -0.01700
C 	C 	0.79530 0.91337 0.13746 -0.04900
C 	C 	0.84316 0.94429 0.16036 -0.00900
C 	C 	0.84008 0.89777 0.18240 -0.05900
C 	C 	0.79776 0.81904 0.17926 -0.02400
H 	H 	0.59286 0.62286 0.13782 0.03300
H 	H 	0.70368 0.67193 0.16933 0.04400
H 	H 	0.67559 0.84417 0.10359 0.04600
H 	H 	0.79477 0.95033 0.12145 0.04300
H 	H 	0.87977 0.00481 0.16161 0.05200
H 	H 	0.79866 0.78251 0.19538 0.04500
C 	C 	0.22071 0.74684 0.15881 -0.07300
C 	C 	0.14020 0.70883 0.15770 0.00900
C 	C 	0.09909 0.73993 0.17027 -0.05900
C 	C 	0.13805 0.80984 0.18384 0.01800
C 	C 	0.21891 0.84882 0.18462 0.01000
C 	C 	0.25975 0.81654 0.17261 -0.01700
C 	C 	0.25803 0.91945 0.19756 -0.05000
C 	C 	0.21727 0.95012 0.21052 -0.00900
C 	C 	0.13666 0.91016 0.21108 -0.05900
C 	C 	0.09714 0.84068 0.19702 -0.02400
H 	H 	0.10939 0.65543 0.14700 0.03600
H 	H 	0.03701 0.70967 0.16939 0.04400
H 	H 	0.32170 0.84519 0.17424 0.04400
H 	H 	0.32016 0.95050 0.19777 0.04100
H 	H 	0.24852 0.00449 0.22054 0.04800
H 	H 	0.03499 0.80997 0.19686 0.04800
C 	C 	0.53446 0.73051 0.36428 -0.07500
C 	C 	0.60077 0.74918 0.37966 0.00800
C 	C 	0.67303 0.78685 0.36706 -0.05700
C 	C 	0.67950 0.80675 0.33897 0.01500
C 	C 	0.61245 0.78527 0.32321 0.01300
C 	C 	0.54024 0.74653 0.33591 -0.01500
C 	C 	0.61859 0.80554 0.29524 -0.05700
C 	C 	0.69060 0.84924 0.28322 0.00700
C 	C 	0.75753 0.87293 0.29892 -0.07500
C 	C 	0.75201 0.85011 0.32665 -0.01900
H 	H 	0.59657 0.73686 0.40160 0.03500
H 	H 	0.72390 0.80228 0.37932 0.04500
H 	H 	0.48881 0.73185 0.32405 0.03800
H 	H 	0.56753 0.78856 0.28290 0.04400
H 	H 	0.69443 0.86514 0.26165 0.04100
H 	H 	0.80366 0.86785 0.33876 0.04500
C 	C 	0.21275 0.51106 0.33654 -0.06500
C 	C 	0.25705 0.50667 0.31490 0.00600
C 	C 	0.23219 0.43892 0.30066 -0.05600
C 	C 	0.16195 0.37560 0.30756 0.01500
C 	C 	0.11227 0.38299 0.32636 0.01600
C 	C 	0.13771 0.45127 0.34064 -0.01900
C 	C 	0.04015 0.32041 0.33209 -0.05600
C 	C 	0.01913 0.25024 0.32011 0.00500
C 	C 	0.07079 0.24166 0.30289 -0.07300
C 	C 	0.14265 0.30447 0.29702 -0.02000
H 	H 	0.31394 0.55336 0.31093 0.04000
H 	H 	0.26907 0.43477 0.28519 0.04600
H 	H 	0.10219 0.45557 0.35668 0.04100
H 	H 	0.00093 0.32568 0.34614 0.04500
H 	H 	0.96369 0.20231 0.32488 0.04200
H 	H 	0.18355 0.29787 0.28431 0.04600
C 	C 	0.13373 0.75364 0.39444 -0.06800
C 	C 	0.06643 0.70296 0.38049 0.00700
C 	C 	0.02966 0.72983 0.36301 -0.05800
C 	C 	0.06045 0.80765 0.35920 0.01700
C 	C 	0.12266 0.85849 0.37575 0.01200
C 	C 	0.15731 0.83082 0.39407 -0.01800
C 	C 	0.15412 0.93627 0.37179 -0.05100
C 	C 	0.12911 0.96335 0.34989 -0.00600
C 	C 	0.07167 0.91289 0.33184 -0.06500
C 	C 	0.03442 0.83521 0.33754 -0.02100
H 	H 	0.04634 0.64300 0.38139 0.03200
H 	H 	0.98025 0.69020 0.35116 0.04600
H 	H 	0.20798 0.86986 0.40555 0.04600
H 	H 	0.20045 0.97579 0.38486 0.04300
H 	H 	0.15653 0.02353 0.34634 0.05000
H 	H 	0.98780 0.79620 0.32443 0.04500
C 	C 	0.57774 0.19891 0.47260 -0.07200
C 	C 	0.59125 0.13797 0.46976 0.01500
C 	C 	0.64863 0.13599 0.48603 -0.00600
C 	C 	0.68408 0.18892 0.50721 -0.00400
C 	C 	0.65977 0.24114 0.51339 -0.08600
C 	C 	0.60970 0.24914 0.49481 0.05400
C 	C 	0.53499 0.06987 0.45439 0.00700
S 	S 	0.67221 0.06413 0.48158 -0.03400
H 	H 	0.72522 0.18473 0.52060 0.04000
S 	S 	0.58142 0.31725 0.50030 -0.03300
H 	H 	0.53646 0.20282 0.45921 0.05400
C 	C 	0.46242 0.02095 0.46594 0.00600
C 	C 	0.41371 0.95238 0.45301 -0.01400
C 	C 	0.43792 0.92961 0.42949 -0.08600
C 	C 	0.50852 0.98013 0.41701 0.04500
C 	C 	0.55604 0.05059 0.42925 -0.05800
S 	S 	0.43407 0.04237 0.49761 -0.03700
H 	H 	0.35883 0.91425 0.46236 0.03400
S 	S 	0.53970 0.95452 0.38694 -0.04400
H 	H 	0.61096 0.08874 0.41995 0.05300
H 	H 	0.62697 0.38009 0.48491 0.03600
H 	H 	0.46217 0.01885 0.51894 0.03800
H 	H 	0.57777 0.91671 0.39416 0.04700
H 	H 	0.62285 0.00251 0.49684 0.04000
C 	C 	0.13082 0.40608 0.51471 -0.07500
C 	C 	0.06755 0.41376 0.52216 0.01700
C 	C 	0.03367 0.43898 0.50234 -0.01000
C 	C 	0.07032 0.46708 0.47696 -0.00400
C 	C 	0.14113 0.47127 0.47140 -0.08500
C 	C 	0.16517 0.43085 0.48874 0.05800
C 	C 	0.04073 0.40136 0.55114 0.00500
S 	S 	0.94673 0.43756 0.50938 -0.02300
H 	H 	0.04699 0.49121 0.46252 0.04200
S 	S 	0.22675 0.39905 0.47647 -0.03500
H 	H 	0.15301 0.38050 0.52899 0.05200
C 	C 	0.98140 0.33040 0.55966 0.00200
C 	C 	0.93421 0.32593 0.58177 -0.01000
C 	C 	0.94347 0.39217 0.59409 -0.08100
C 	C 	0.01266 0.45960 0.58982 0.05000
C 	C 	0.06123 0.46411 0.56820 -0.06700
S 	S 	0.96160 0.24824 0.54136 -0.03700
H 	H 	0.88401 0.27251 0.58662 0.03500
S 	S 	0.03407 0.54068 0.60914 -0.04200
H 	H 	0.11038 0.51795 0.56292 0.05200
H 	H 	0.28938 0.42726 0.49333 0.04100
H 	H 	0.00327 0.21794 0.55248 0.03200
H 	H 	0.07510 0.54319 0.63215 0.03600
H 	H 	0.88655 0.36811 0.50287 0.03900
C 	C 	0.44738 0.50544 0.49113 -0.08200
C 	C 	0.44984 0.51680 0.51965 0.01500
C 	C 	0.43476 0.57221 0.53052 -0.00900
C 	C 	0.41837 0.61643 0.51265 0.00400
C 	C 	0.41618 0.60556 0.48391 -0.10400
C 	C 	0.42965 0.54806 0.47316 0.07200
C 	C 	0.48121 0.47961 0.53721 0.01600
S 	S 	0.43644 0.58686 0.56644 -0.03700
H 	H 	0.40737 0.65942 0.52112 0.04100
S 	S 	0.41946 0.52443 0.43773 -0.11200
H 	H 	0.45929 0.46282 0.48285 0.05700
C 	C 	0.43289 0.40849 0.54913 -0.00800
C 	C 	0.46485 0.36825 0.56159 0.00400
C 	C 	0.54456 0.39790 0.56184 -0.10300
C 	C 	0.59240 0.46796 0.54878 0.07300
C 	C 	0.56058 0.50938 0.53775 -0.07800
S 	S 	0.33263 0.36969 0.54874 -0.04400
H 	H 	0.42786 0.31476 0.57157 0.04000
S 	S 	0.69166 0.50260 0.54457 -0.09500
H 	H 	0.59750 0.56328 0.52800 0.05700
H 	H 	0.48814 0.56712 0.42455 0.05000
H 	H 	0.30357 0.32806 0.52514 0.03600
H 	H 	0.70587 0.48153 0.51935 0.04400
H 	H 	0.36511 0.54029 0.57717 0.03600
C 	C 	0.87819 0.06006 0.68805 -0.07400
C 	C 	0.92156 0.10184 0.66526 0.01100
C 	C 	0.88528 0.11277 0.64240 -0.05900
C 	C 	0.80551 0.08401 0.64258 0.02400
C 	C 	0.76147 0.04012 0.66516 0.00300
C 	C 	0.79791 0.02739 0.68759 0.00300
C 	C 	0.68257 0.01588 0.66612 -0.03700
C 	C 	0.65104 0.04570 0.64746 -0.00100
C 	C 	0.69857 0.09978 0.62805 -0.06300
C 	C 	0.77064 0.10680 0.62249 -0.02200
H 	H 	0.98324 0.12542 0.66517 0.03400
H 	H 	0.91954 0.14622 0.62510 0.04600
H 	H 	0.76431 0.99441 0.70512 0.03000
H 	H 	0.64725 0.97914 0.68260 0.03100
H 	H 	0.59288 0.03467 0.65057 0.04100
H 	H 	0.80467 0.14242 0.60553 0.04000
C 	C 	0.51183 0.22089 0.67737 -0.07400
C 	C 	0.49859 0.16187 0.69550 0.00600
C 	C 	0.42935 0.12416 0.71011 -0.05800
C 	C 	0.37224 0.14433 0.70632 0.01400
C 	C 	0.38701 0.20602 0.68914 0.01300
C 	C 	0.45759 0.24535 0.67545 -0.01800
C 	C 	0.32977 0.22547 0.68483 -0.05600
C 	C 	0.25767 0.18310 0.69695 0.00300
C 	C 	0.24193 0.12113 0.71396 -0.06800
C 	C 	0.29987 0.10232 0.71880 -0.02300
H 	H 	0.54026 0.14288 0.69731 0.03800
H 	H 	0.41920 0.07770 0.72361 0.04400
H 	H 	0.46866 0.29233 0.66203 0.04800
H 	H 	0.34071 0.27287 0.67172 0.04400
H 	H 	0.21411 0.19878 0.69317 0.03800
H 	H 	0.28870 0.05523 0.73213 0.04700
C 	C 	0.76865 0.54831 0.65032 -0.07200
C 	C 	0.71486 0.54508 0.66970 0.00900
C 	C 	0.73317 0.60591 0.68729 -0.05600
C 	C 	0.80542 0.67069 0.68565 0.01400
C 	C 	0.85716 0.67671 0.66460 0.01700
C 	C 	0.83814 0.61561 0.64682 -0.01800
C 	C 	0.92902 0.74188 0.66273 -0.06000
C 	C 	0.95167 0.79809 0.68278 0.01600
C 	C 	0.90292 0.78960 0.70504 -0.07200
C 	C 	0.82841 0.72751 0.70570 -0.01600
H 	H 	0.65997 0.49417 0.67187 0.04200
H 	H 	0.69218 0.60151 0.70283 0.04500
H 	H 	0.87920 0.61878 0.63151 0.05000
H 	H 	0.96832 0.74804 0.64623 0.04700
H 	H 	0.00815 0.84732 0.68148 0.03000
H 	H 	0.78987 0.72155 0.72248 0.04600
C 	C 	0.05805 0.51732 0.03058 -0.07700
C 	C 	0.06698 0.53151 0.00217 0.01200
C 	C 	0.13667 0.59005 0.99183 -0.00700
C 	C 	0.19727 0.63250 0.00997 0.00300
C 	C 	0.18918 0.61758 0.03850 -0.10100
C 	C 	0.11779 0.55978 0.04888 0.07100
C 	C 	0.99886 0.49329 0.98429 0.02000
S 	S 	0.14850 0.61125 0.95627 -0.04200
H 	H 	0.25116 0.67678 0.00184 0.04000
S 	S 	0.10252 0.53694 0.08436 -0.10400
H 	H 	0.00375 0.47323 0.03854 0.05500
C 	C 	0.98285 0.42747 0.96950 -0.00600
C 	C 	0.91343 0.38779 0.95511 0.00200
C 	C 	0.85878 0.41177 0.95616 -0.10300
C 	C 	0.87337 0.47505 0.97259 0.07200
C 	C 	0.94435 0.51700 0.98532 -0.07900
S 	S 	0.04878 0.39404 0.96902 -0.04300
H 	H 	0.90244 0.33899 0.94285 0.04100
S 	S 	0.80150 0.49913 0.97921 -0.09100
H 	H 	0.95579 0.56626 0.99741 0.05800
H 	H 	0.07647 0.58030 0.09691 0.04700
H 	H 	0.09752 0.42478 0.94701 0.03400
H 	H 	0.76428 0.46636 0.00336 0.04500
H 	H 	0.17871 0.57145 0.94374 0.03400
C 	C 	0.62865 0.18586 0.04054 -0.07400
C 	C 	0.55886 0.11852 0.04254 0.01600
C 	C 	0.50040 0.10309 0.02315 -0.00900
C 	C 	0.51469 0.15195 0.00082 -0.00300
C 	C 	0.58779 0.21448 0.99690 -0.08800
C 	C 	0.64499 0.23209 0.01727 0.05700
C 	C 	0.55244 0.05922 0.06176 0.00700
S 	S 	0.41072 0.02047 0.02564 -0.02600
H 	H 	0.47012 0.13898 0.98562 0.04100
S 	S 	0.73936 0.30623 0.01258 -0.03900
H 	H 	0.67300 0.19858 0.05581 0.05500
C 	C 	0.58567 0.01429 0.05502 0.00600
C 	C 	0.56647 0.94926 0.07035 -0.01500
C 	C 	0.51146 0.92640 0.09141 -0.08800
C 	C 	0.48485 0.97545 0.10007 0.04700
C 	C 	0.50621 0.04216 0.08539 -0.05800
S 	S 	0.64656 0.03557 0.02616 -0.03900
H 	H 	0.58910 0.91281 0.06428 0.03600
S 	S 	0.42198 0.95222 0.12834 -0.04900
H 	H 	0.48310 0.07829 0.09130 0.05200
H 	H 	0.78108 0.27987 0.99876 0.04500
H 	H 	0.60303 0.00471 0.00295 0.03800
H 	H 	0.34789 0.91051 0.11926 0.04700
H 	H 	0.41472 0.96250 0.01289 0.03000
C 	C 	0.26665 0.41495 0.00116 -0.07300
C 	C 	0.33314 0.41046 0.99628 0.01300
C 	C 	0.38410 0.42262 0.01830 -0.00600
C 	C 	0.37333 0.44886 0.04373 -0.00500
C 	C 	0.31357 0.46538 0.04709 -0.08500
C 	C 	0.25482 0.43880 0.02697 0.05500
C 	C 	0.35295 0.40012 0.96776 0.01300
S 	S 	0.46351 0.40876 0.01384 -0.03100
H 	H 	0.41556 0.46324 0.05998 0.04200
S 	S 	0.16341 0.42495 0.03503 -0.03000
H 	H 	0.22424 0.39993 0.98495 0.05300
C 	C 	0.33729 0.32845 0.95853 -0.00300
C 	C 	0.38185 0.32277 0.93734 -0.00500
C 	C 	0.44342 0.38817 0.92620 -0.08600
C 	C 	0.44744 0.45803 0.93127 0.05800
C 	C 	0.40239 0.46388 0.95222 -0.07100
S 	S 	0.26704 0.24626 0.97492 -0.03800
H 	H 	0.37489 0.26808 0.93203 0.03800
S 	S 	0.51468 0.53968 0.91373 -0.04400
H 	H 	0.41094 0.51879 0.95809 0.05300
H 	H 	0.11964 0.35452 0.04608 0.03900
H 	H 	0.29936 0.22978 0.99691 0.03600
H 	H 	0.58345 0.57069 0.92738 0.04400
H 	H 	0.44194 0.33496 0.01917 0.03700
C 	C 	0.73150 0.25398 0.83446 -0.07400
C 	C 	0.68326 0.19609 0.81631 0.00700
C 	C 	0.71047 0.15365 0.80226 -0.05700
C 	C 	0.78595 0.16800 0.80651 0.01500
C 	C 	0.83547 0.22812 0.82383 0.01400
C 	C 	0.80863 0.27203 0.83709 -0.01900
C 	C 	0.91028 0.24177 0.82863 -0.05500
C 	C 	0.93564 0.19547 0.81671 0.00400
C 	C 	0.88702 0.13529 0.79940 -0.06800
C 	C 	0.81201 0.12196 0.79418 -0.01900
H 	H 	0.62378 0.18156 0.81405 0.03700
H 	H 	0.67209 0.10821 0.78877 0.04500
H 	H 	0.84651 0.31762 0.85067 0.04800
H 	H 	0.94866 0.28775 0.84193 0.04600
H 	H 	0.99329 0.20650 0.82099 0.04400
H 	H 	0.77418 0.07614 0.78071 0.04800
C 	C 	0.43986 0.11589 0.86352 -0.06600
C 	C 	0.37393 0.06701 0.87855 0.00300
C 	C 	0.30118 0.04744 0.86808 -0.05400
C 	C 	0.29460 0.07612 0.84239 0.01300
C 	C 	0.36017 0.11483 0.82554 0.01700
C 	C 	0.43151 0.12739 0.83536 -0.02100
C 	C 	0.35522 0.14776 0.80068 -0.06000
C 	C 	0.28625 0.14430 0.79300 0.00900
C 	C 	0.22024 0.10477 0.80939 -0.07800
C 	C 	0.22473 0.07063 0.83414 -0.02000
H 	H 	0.37921 0.05271 0.89971 0.03300
H 	H 	0.25086 0.01469 0.88074 0.04500
H 	H 	0.48244 0.15942 0.82285 0.04100
H 	H 	0.40528 0.17776 0.78761 0.04500
H 	H 	0.28363 0.17050 0.77387 0.04000
H 	H 	0.17400 0.03992 0.84686 0.04500
C 	C 	0.77385 0.57825 0.88110 -0.07600
C 	C 	0.84981 0.59792 0.87506 0.01100
C 	C 	0.89930 0.66793 0.86336 -0.05600
C 	C 	0.87238 0.71786 0.85685 0.01500
C 	C 	0.79702 0.69981 0.86431 0.01400
C 	C 	0.74859 0.63053 0.87701 -0.01500
C 	C 	0.76932 0.74859 0.85697 -0.05800
C 	C 	0.81302 0.81056 0.83994 0.00800
C 	C 	0.88535 0.82491 0.83052 -0.07400
C 	C 	0.91718 0.78206 0.84088 -0.01500
H 	H 	0.86989 0.55812 0.87877 0.04100
H 	H 	0.95742 0.68183 0.85818 0.04600
H 	H 	0.69000 0.61538 0.88209 0.04300
H 	H 	0.71242 0.73640 0.86324 0.04400
H 	H 	0.78896 0.84497 0.83293 0.03500
H 	H 	0.97466 0.79549 0.83482 0.04300
