data_crystal

_cell_length_a 15.42401
_cell_length_b 15.13462
_cell_length_c 35.87381
_cell_angle_alpha 90.90563
_cell_angle_beta  91.17609
_cell_angle_gamma 111.10180

_symmetry_space_group_name_	'P 1'
_symmetry_space_group_name_H-M	'P 1'

loop_
_symmetry_equiv_pos_as_xyz
  x,y,z

loop_
_atom_site_label
_atom_site_type_symbol
_atom_site_fract_x
_atom_site_fract_y
_atom_site_fract_z
_atom_site_charge
Ni	Ni	0.52213 0.22857 0.88986 1.10100
O 	O 	0.57792 0.34656 0.85860 -0.69900
Ni	Ni	0.70137 0.33858 0.84637 1.10000
O 	O 	0.40700 0.26127 0.90033 -0.36600
O 	O 	0.49584 0.40758 0.92436 -0.39600
O 	O 	0.46001 0.16655 0.84085 -0.40200
Ni	Ni	0.59813 0.46476 0.88545 1.07000
O 	O 	0.58220 0.03956 0.91156 -0.39900
O 	O 	0.67753 0.43332 0.92467 -0.41200
O 	O 	0.74461 0.45292 0.81304 -0.39000
O 	O 	0.64901 0.22753 0.88145 -0.70600
O 	O 	0.46572 0.10255 0.91711 -0.37300
O 	O 	0.80781 0.29739 0.82874 -0.37000
O 	O 	0.70292 0.15029 0.81353 -0.41500
Ni	Ni	0.63330 0.10019 0.86248 1.07400
H 	H 	0.54110 0.34355 0.83537 0.15300
H 	H 	0.68429 0.24022 0.90552 0.16800
C 	C 	0.76462 0.44833 0.91934 0.30000
O 	O 	0.50502 0.03963 0.83530 -0.39000
C 	C 	0.41414 0.33988 0.91847 0.28000
C 	C 	0.73288 0.53229 0.82278 0.27700
C 	C 	0.44002 0.07701 0.83286 0.31300
C 	C 	0.78931 0.21152 0.81465 0.26400
C 	C 	0.51410 0.05229 0.93043 0.30000
O 	O 	0.79123 0.42022 0.88806 -0.36400
O 	O 	0.71315 0.54712 0.85762 -0.40200
Ni	Ni	0.66692 0.38637 0.61299 1.09600
O 	O 	0.76947 0.40679 0.57524 -0.70700
Ni	Ni	0.85407 0.35255 0.60194 1.10000
O 	O 	0.59695 0.45100 0.58055 -0.35500
O 	O 	0.72705 0.58108 0.57269 -0.40700
O 	O 	0.59179 0.26232 0.58397 -0.35800
Ni	Ni	0.83896 0.53866 0.56409 1.06800
O 	O 	0.54835 0.20191 0.65035 -0.39900
O 	O 	0.87721 0.56805 0.61864 -0.42000
O 	O 	0.94545 0.36957 0.55973 -0.36000
O 	O 	0.75576 0.34047 0.64184 -0.69600
O 	O 	0.56518 0.35804 0.65153 -0.38800
O 	O 	0.91533 0.26659 0.62648 -0.37000
O 	O 	0.80221 0.17658 0.66430 -0.40800
Ni	Ni	0.68335 0.20686 0.65252 1.06700
H 	H 	0.74323 0.37224 0.55177 0.16700
H 	H 	0.78108 0.37952 0.66471 0.15500
C 	C 	0.95160 0.55451 0.63068 0.25700
O 	O 	0.67744 0.17032 0.59728 -0.41200
C 	C 	0.64220 0.52726 0.56202 0.27600
C 	C 	0.97456 0.44756 0.54016 0.25700
C 	C 	0.62632 0.19785 0.57356 0.27100
C 	C 	0.86835 0.18375 0.64059 0.29800
C 	C 	0.52092 0.27071 0.66191 0.28600
O 	O 	0.95267 0.46773 0.63020 -0.36100
O 	O 	0.96335 0.52565 0.55253 -0.41200
Ni	Ni	0.99533 0.96979 0.76837 1.08000
O 	O 	0.02596 0.87982 0.73291 -0.69600
Ni	Ni	0.09724 0.96923 0.69433 1.09600
O 	O 	0.92282 0.85935 0.80163 -0.37300
O 	O 	0.82821 0.77831 0.75319 -0.41600
O 	O 	0.11028 0.99158 0.80377 -0.36900
Ni	Ni	0.91194 0.79281 0.70742 1.06000
O 	O 	0.09189 0.18199 0.79738 -0.40900
O 	O 	0.86626 0.89697 0.69007 -0.41300
O 	O 	0.12533 0.86784 0.66350 -0.37500
O 	O 	0.05719 0.06026 0.72711 -0.68000
O 	O 	0.95617 0.05695 0.80131 -0.40700
O 	O 	0.19304 0.07269 0.66477 -0.35100
O 	O 	0.24094 0.20532 0.70217 -0.38700
Ni	Ni	0.15682 0.17202 0.74885 1.07200
H 	H 	0.06308 0.84608 0.74489 0.16000
H 	H 	0.01094 0.08208 0.71475 0.16600
C 	C 	0.91035 0.95929 0.66545 0.26400
O 	O 	0.22574 0.08835 0.76732 -0.42200
C 	C 	0.86035 0.78088 0.78754 0.28200
C 	C 	0.05523 0.78764 0.65620 0.32200
C 	C 	0.19921 0.03088 0.79537 0.30500
C 	C 	0.26088 0.14296 0.68129 0.28600
C 	C 	0.00033 0.14818 0.80003 0.35000
O 	O 	0.99508 0.96796 0.65581 -0.37600
O 	O 	0.96997 0.78680 0.65762 -0.43000
Ni	Ni	0.40531 0.79002 0.40679 1.10500
O 	O 	0.35963 0.69869 0.36233 -0.70300
Ni	Ni	0.23471 0.70854 0.35140 1.09900
O 	O 	0.50080 0.73387 0.42504 -0.37300
O 	O 	0.39012 0.58618 0.42623 -0.40100
O 	O 	0.50788 0.88421 0.37634 -0.37400
Ni	Ni	0.34645 0.56714 0.37024 1.07300
O 	O 	0.43787 0.00556 0.41045 -0.37600
O 	O 	0.21304 0.51013 0.38804 -0.38700
O 	O 	0.17513 0.59537 0.31472 -0.37200
O 	O 	0.29159 0.81440 0.39077 -0.70400
O 	O 	0.44372 0.88722 0.44880 -0.35500
O 	O 	0.12689 0.75462 0.34032 -0.36000
O 	O 	0.22768 0.90511 0.33035 -0.41100
Ni	Ni	0.33178 0.94247 0.37187 1.06600
H 	H 	0.39948 0.72177 0.34065 0.15400
H 	H 	0.25055 0.80853 0.41218 0.16600
C 	C 	0.17621 0.55881 0.40856 0.28700
O 	O 	0.41807 0.92248 0.33301 -0.41600
C 	C 	0.47197 0.64726 0.43737 0.27700
C 	C 	0.20819 0.52696 0.30856 0.30200
C 	C 	0.49534 0.91012 0.34248 0.28900
C 	C 	0.14284 0.84535 0.33591 0.28300
C 	C 	0.44484 0.97371 0.44437 0.25300
O 	O 	0.16140 0.63216 0.39480 -0.37200
O 	O 	0.29544 0.53856 0.31721 -0.41700
Ni	Ni	0.34763 0.62836 0.09612 1.10000
O 	O 	0.23131 0.61515 0.06507 -0.70400
Ni	Ni	0.15997 0.66696 0.09926 1.10200
O 	O 	0.38767 0.54165 0.06112 -0.35900
O 	O 	0.24402 0.43248 0.06593 -0.41700
O 	O 	0.41957 0.74715 0.06568 -0.35300
Ni	Ni	0.15411 0.49189 0.04418 1.08100
O 	O 	0.48619 0.80574 0.13342 -0.40400
O 	O 	0.05700 0.43986 0.08422 -0.41100
O 	O 	0.03658 0.63516 0.06832 -0.35800
O 	O 	0.27998 0.68636 0.13052 -0.69100
O 	O 	0.46218 0.64885 0.12930 -0.37900
O 	O 	0.11850 0.75422 0.13276 -0.36600
O 	O 	0.25315 0.85949 0.15828 -0.40300
Ni	Ni	0.36054 0.81831 0.14045 1.07000
H 	H 	0.24890 0.65839 0.04396 0.17200
H 	H 	0.26722 0.65150 0.15412 0.15600
C 	C 	0.07464 0.46128 0.12196 0.47000
O 	O 	0.34869 0.84889 0.08601 -0.41200
C 	C 	0.32587 0.45849 0.05117 0.28300
C 	C 	0.01636 0.58126 0.03735 0.33000
C 	C 	0.39048 0.81861 0.05971 0.27100
C 	C 	0.17364 0.84232 0.14001 0.29100
C 	C 	0.50490 0.73242 0.14510 0.28300
O 	O 	0.10020 0.55551 0.13345 -0.40300
O 	O 	0.08067 0.56121 0.01958 -0.40600
Ni	Ni	0.83858 0.97629 0.23532 1.09400
O 	O 	0.95154 0.98901 0.20490 -0.72400
Ni	Ni	0.04310 0.10741 0.22788 1.11600
O 	O 	0.76345 0.85435 0.20606 -0.37400
O 	O 	0.79184 0.93402 0.15129 -0.40700
O 	O 	0.88841 0.90219 0.27312 -0.35300
Ni	Ni	0.93485 0.00870 0.15229 1.06900
O 	O 	0.82161 0.99362 0.31939 -0.41900
O 	O 	0.90779 0.12938 0.16208 -0.42700
O 	O 	0.15345 0.10070 0.19963 -0.36100
O 	O 	0.92306 0.10749 0.25207 -0.70600
O 	O 	0.72722 0.96248 0.26769 -0.39600
O 	O 	0.13449 0.20506 0.26370 -0.37100
O 	O 	0.04649 0.23667 0.30863 -0.37900
Ni	Ni	0.93448 0.10832 0.30656 1.06500
H 	H 	0.97271 0.93507 0.20819 0.15300
H 	H 	0.90064 0.15706 0.24293 0.15700
C 	C 	0.97501 0.21023 0.16982 0.34000
O 	O 	0.01125 0.02516 0.30061 -0.36800
C 	C 	0.75146 0.85540 0.16956 0.27600
C 	C 	0.13902 0.06972 0.16464 0.28700
C 	C 	0.97322 0.93580 0.28887 0.19000
C 	C 	0.11064 0.26609 0.28325 0.29900
C 	C 	0.73875 0.97479 0.30402 0.29300
O 	O 	0.04336 0.21455 0.19318 -0.37100
O 	O 	0.07254 0.08234 0.14400 -0.38100
C 	C 	0.98232 0.29274 0.14740 -0.31900
C 	C 	0.05337 0.37471 0.15316 0.33100
H 	H 	0.93378 0.28429 0.12409 0.13500
H 	H 	0.06428 0.41856 0.13766 -0.30100
C 	C 	0.58973 0.74939 0.16757 -0.08800
C 	C 	0.67210 0.78092 0.15119 -0.08000
H 	H 	0.58645 0.75757 0.19760 0.06100
H 	H 	0.67475 0.76941 0.12130 0.07400
C 	C 	0.13212 0.91583 0.14121 -0.10300
C 	C 	0.18390 0.00570 0.15121 -0.08200
H 	H 	0.05734 0.89518 0.13693 0.03800
H 	H 	0.25878 0.02703 0.15502 0.07500
C 	C 	0.65782 0.94017 0.32800 -0.09900
C 	C 	0.57353 0.93829 0.31671 -0.09400
H 	H 	0.66867 0.92054 0.35625 0.08200
H 	H 	0.56300 0.96045 0.28884 0.06300
C 	C 	0.17564 0.36445 0.28596 -0.08900
C 	C 	0.14478 0.43489 0.29354 -0.09100
H 	H 	0.24960 0.37902 0.28351 0.07200
H 	H 	0.07053 0.42114 0.29242 0.07700
C 	C 	0.06482 0.87808 0.33141 -0.10600
C 	C 	0.02055 0.87000 0.29824 -0.03000
H 	H 	0.05463 0.92388 0.35318 0.06500
H 	H 	0.02651 0.82081 0.27693 0.05800
C 	C 	0.58363 0.13693 0.54046 -0.05300
C 	C 	0.62435 0.15815 0.50518 0.00400
C 	C 	0.57590 0.10951 0.47287 0.00500
C 	C 	0.48506 0.04218 0.47541 -0.04400
C 	C 	0.44310 0.02434 0.51043 0.01900
C 	C 	0.49492 0.06595 0.54306 0.00700
C 	C 	0.71433 0.23194 0.50164 0.06800
C 	C 	0.34690 0.96160 0.51288 0.06700
C 	C 	0.45959 0.03144 0.57925 0.10200
C 	C 	0.62099 0.12647 0.43715 0.10200
N 	N 	0.43148 0.00321 0.60808 -0.10900
N 	N 	0.65699 0.13994 0.40870 -0.11400
N 	N 	0.27015 0.91155 0.51483 -0.10900
N 	N 	0.78576 0.29122 0.49789 -0.13400
C 	C 	0.13479 0.52041 0.44442 -0.06300
C 	C 	0.06309 0.43036 0.44559 -0.00100
C 	C 	0.02359 0.39582 0.47999 0.02400
C 	C 	0.04506 0.45709 0.51151 -0.03700
C 	C 	0.12647 0.53830 0.51184 -0.00100
C 	C 	0.17008 0.57165 0.47809 0.00300
C 	C 	0.02826 0.37478 0.41158 0.10400
C 	C 	0.17025 0.58133 0.54707 0.10600
C 	C 	0.25224 0.65679 0.47825 0.07100
C 	C 	0.97695 0.29506 0.48445 0.06000
N 	N 	0.31801 0.72475 0.47886 -0.13500
N 	N 	0.94034 0.21429 0.48797 -0.10400
N 	N 	0.20594 0.61556 0.57511 -0.10500
N 	N 	0.00042 0.33042 0.38442 -0.11500
C 	C 	0.52455 0.62155 0.46787 -0.06400
C 	C 	0.53066 0.53073 0.46730 0.00100
C 	C 	0.56051 0.49666 0.49950 -0.00500
C 	C 	0.59487 0.55703 0.53105 -0.07000
C 	C 	0.59179 0.64899 0.53139 0.00100
C 	C 	0.55903 0.68232 0.49959 0.00100
C 	C 	0.50937 0.47359 0.43309 0.06700
C 	C 	0.61932 0.70832 0.56497 0.09100
C 	C 	0.56519 0.78012 0.49921 0.09400
C 	C 	0.55236 0.39839 0.50059 0.07800
N 	N 	0.57147 0.85864 0.49949 -0.10000
N 	N 	0.54499 0.31968 0.50134 -0.11000
N 	N 	0.64128 0.75564 0.59174 -0.11300
N 	N 	0.49241 0.42802 0.40582 -0.13400
C 	C 	0.91438 0.11331 0.64271 -0.11000
C 	C 	0.86508 0.02223 0.64993 -0.05600
H 	H 	0.98962 0.13734 0.64116 0.07400
H 	H 	0.78961 0.99817 0.64991 0.04900
C 	C 	0.42755 0.24642 0.67815 -0.08500
C 	C 	0.35524 0.16966 0.66562 -0.08400
H 	H 	0.41707 0.29397 0.69909 0.06300
H 	H 	0.36569 0.12522 0.64344 0.09100
C 	C 	0.06868 0.69647 0.65845 -0.12200
C 	C 	0.04070 0.63536 0.62947 -0.04100
H 	H 	0.06967 0.66845 0.68608 0.05600
H 	H 	0.06281 0.66236 0.60203 0.07100
C 	C 	0.83121 0.48713 0.95053 -0.06700
C 	C 	0.85419 0.58292 0.96231 -0.00100
C 	C 	0.90136 0.61483 0.99699 0.01500
C 	C 	0.92349 0.55069 0.01977 -0.09800
C 	C 	0.88052 0.45358 0.01130 0.00200
C 	C 	0.85020 0.42397 0.97463 0.00100
C 	C 	0.83004 0.64818 0.93886 0.07900
C 	C 	0.86848 0.38482 0.04006 0.07200
C 	C 	0.84980 0.33381 0.96041 0.07300
C 	C 	0.93075 0.71373 0.00839 0.08000
N 	N 	0.85046 0.26231 0.94878 -0.12300
N 	N 	0.95428 0.79275 0.01752 -0.11800
N 	N 	0.85773 0.32912 0.06292 -0.11200
N 	N 	0.81077 0.70057 0.92029 -0.11900
C 	C 	0.48089 0.99475 0.96409 -0.09300
C 	C 	0.38906 0.92821 0.96499 0.01900
C 	C 	0.35786 0.87513 0.99730 -0.00400
C 	C 	0.42189 0.87729 0.02636 -0.04900
C 	C 	0.51476 0.94056 0.02473 -0.02000
C 	C 	0.54274 0.00273 0.99467 0.03700
C 	C 	0.32796 0.91141 0.93227 0.09400
C 	C 	0.58114 0.94325 0.05439 0.09300
C 	C 	0.63343 0.07757 0.99611 0.07200
C 	C 	0.25955 0.82207 0.00127 0.07800
N 	N 	0.70586 0.13729 0.99760 -0.10900
N 	N 	0.18092 0.78021 0.00434 -0.11300
N 	N 	0.63415 0.94542 0.07802 -0.11000
N 	N 	0.27918 0.89791 0.90616 -0.10600
C 	C 	0.33193 0.41759 0.01416 -0.08600
C 	C 	0.32569 0.32228 0.01084 0.00500
C 	C 	0.32616 0.28194 0.97516 0.00100
C 	C 	0.34037 0.33919 0.94369 -0.06000
C 	C 	0.32040 0.42217 0.94635 -0.00200
C 	C 	0.32591 0.46678 0.98147 -0.00800
C 	C 	0.32066 0.26688 0.04389 0.08700
C 	C 	0.30609 0.46730 0.91268 0.07000
C 	C 	0.33286 0.56475 0.98367 0.04800
C 	C 	0.31362 0.18286 0.97086 0.09400
N 	N 	0.33916 0.64325 0.98485 -0.11700
N 	N 	0.30316 0.10350 0.96753 -0.09700
N 	N 	0.29467 0.50333 0.88577 -0.11800
N 	N 	0.31660 0.22265 0.07027 -0.10600
C 	C 	0.86112 0.18823 0.79441 -0.07200
C 	C 	0.94859 0.21116 0.80849 -0.15300
H 	H 	0.83785 0.13652 0.77148 0.04700
H 	H 	0.97557 0.26660 0.82986 0.08200
C 	C 	0.27131 0.02619 0.82233 -0.08700
C 	C 	0.35409 0.02698 0.81056 -0.08400
H 	H 	0.26260 0.03753 0.85180 0.09100
H 	H 	0.36021 0.00505 0.78205 0.06600
C 	C 	0.76917 0.61382 0.79821 -0.09000
C 	C 	0.81477 0.70179 0.81230 -0.10200
H 	H 	0.76523 0.60067 0.76823 0.04400
H 	H 	0.82400 0.71408 0.84227 0.08600
