data_crystal

_cell_length_a 32.29329
_cell_length_b 28.36509
_cell_length_c 19.43708
_cell_angle_alpha 92.68559
_cell_angle_beta  85.31417
_cell_angle_gamma 124.33357

_symmetry_space_group_name_	'P 1'
_symmetry_space_group_name_H-M	'P 1'

loop_
_symmetry_equiv_pos_as_xyz
  x,y,z

loop_
_atom_site_label
_atom_site_type_symbol
_atom_site_fract_x
_atom_site_fract_y
_atom_site_fract_z
_atom_site_charge
C 	C 	0.15888 0.11916 0.13615 0.00600
C 	C 	0.12652 0.08580 0.19213 -0.02900
C 	C 	0.07468 0.05906 0.19062 -0.06700
C 	C 	0.05452 0.06548 0.13337 0.07800
C 	C 	0.08721 0.09982 0.07756 -0.06800
C 	C 	0.13902 0.12643 0.07915 -0.02800
H 	H 	0.14147 0.07967 0.23619 0.03800
H 	H 	0.04994 0.03200 0.23313 0.05200
H 	H 	0.07262 0.10442 0.03216 0.05200
H 	H 	0.16363 0.15150 0.03525 0.04100
H 	H 	0.03218 0.98292 0.03968 0.05400
H 	H 	0.86826 0.84643 0.16558 0.04100
N 	N 	0.00673 0.98168 0.38971 -0.13900
C 	C 	0.14984 0.06708 0.47397 0.00700
C 	C 	0.10797 0.02020 0.50896 -0.02900
C 	C 	0.06041 0.99305 0.48335 -0.06600
C 	C 	0.05434 0.01249 0.42179 0.07600
C 	C 	0.09598 0.06137 0.38927 -0.06600
C 	C 	0.14350 0.08823 0.41482 -0.02900
H 	H 	0.11246 0.00400 0.55517 0.04000
H 	H 	0.02869 0.95710 0.51124 0.05100
H 	H 	0.09149 0.07813 0.34372 0.05100
H 	H 	0.17555 0.12493 0.38799 0.04100
H 	H 	0.87535 0.83236 0.52129 0.04000
Co	Co	0.71563 0.33209 0.96956 1.18300
O 	O 	0.76937 0.32440 0.91206 -0.37600
Co	Co	0.61653 0.33913 0.01024 1.18600
O 	O 	0.64961 0.30467 0.92761 -0.46100
O 	O 	0.67645 0.41894 0.01957 -0.40300
O 	O 	0.70754 0.25178 0.96403 -0.34700
C 	C 	0.72398 0.43937 0.99874 0.32400
O 	O 	0.61485 0.34637 0.90124 -0.34800
C 	C 	0.52517 0.28534 0.06219 0.29600
C 	C 	0.68422 0.33258 0.10158 0.30300
O 	O 	0.55939 0.33884 0.07031 -0.36700
O 	O 	0.54220 0.26169 0.02196 -0.34300
O 	O 	0.72772 0.34427 0.07754 -0.34600
O 	O 	0.65190 0.30853 0.05474 -0.45900
O 	O 	0.73607 0.41154 0.95352 -0.52600
C 	C 	0.74795 0.27080 0.92461 0.29800
C 	C 	0.64252 0.32831 0.87871 0.31100
H 	H 	0.76528 0.43395 0.91818 0.17500
Co	Co	0.69670 0.28520 0.46896 1.18500
O 	O 	0.75274 0.28903 0.40217 -0.37700
Co	Co	0.59308 0.28015 0.52508 1.18600
O 	O 	0.63075 0.26205 0.42973 -0.45700
O 	O 	0.65356 0.35549 0.54710 -0.42100
O 	O 	0.69230 0.20856 0.44057 -0.34200
C 	C 	0.69184 0.38590 0.50151 0.33300
O 	O 	0.59308 0.30416 0.42187 -0.35300
C 	C 	0.50018 0.21924 0.57171 0.29600
C 	C 	0.66036 0.26098 0.60133 0.32400
O 	O 	0.53388 0.27070 0.59040 -0.36600
O 	O 	0.51938 0.20185 0.52497 -0.33600
O 	O 	0.70564 0.28030 0.57597 -0.35500
O 	O 	0.62979 0.24521 0.55285 -0.45400
O 	O 	0.71993 0.36738 0.47598 -0.52100
C 	C 	0.73322 0.23489 0.40122 0.30000
C 	C 	0.62297 0.29177 0.39117 0.31000
H 	H 	0.75496 0.39592 0.45467 0.17200
C 	C 	0.64377 0.31199 0.80620 -0.08900
C 	C 	0.67661 0.35335 0.75625 0.06200
C 	C 	0.68134 0.33636 0.68907 -0.01500
C 	C 	0.65105 0.27871 0.66983 -0.10700
C 	C 	0.61547 0.23784 0.71853 0.06700
C 	C 	0.61264 0.25449 0.78677 -0.02000
H 	H 	0.70887 0.36799 0.65188 0.05700
H 	H 	0.58634 0.22271 0.82473 0.05900
I 	I 	0.71866 0.44183 0.78008 -0.12500
I 	I 	0.56661 0.15056 0.69110 -0.09700
C 	C 	0.66862 0.32364 0.17616 -0.08600
C 	C 	0.70414 0.35282 0.22678 0.06900
C 	C 	0.68889 0.33919 0.29646 -0.02600
C 	C 	0.63814 0.30073 0.31726 -0.09700
C 	C 	0.60232 0.27321 0.26739 0.07600
C 	C 	0.61768 0.28451 0.19728 -0.02800
H 	H 	0.71645 0.36024 0.33482 0.03200
H 	H 	0.58999 0.26238 0.15919 0.05600
I 	I 	0.77962 0.42232 0.20204 -0.10600
I 	I 	0.52507 0.21223 0.29594 -0.08300
C 	C 	0.79807 0.62728 0.47159 0.05200
N 	N 	0.79395 0.65189 0.41627 -0.10600
C 	C 	0.82623 0.70882 0.40330 0.02200
C 	C 	0.86508 0.74363 0.44688 -0.01400
C 	C 	0.86995 0.71931 0.50397 -0.01900
C 	C 	0.83663 0.66094 0.51626 -0.05700
H 	H 	0.82192 0.72696 0.35885 0.03400
H 	H 	0.84155 0.64175 0.55900 0.04700
C 	C 	0.71210 0.44695 0.49409 -0.12900
C 	C 	0.71925 0.48087 0.55253 0.04700
C 	C 	0.74558 0.53994 0.54544 -0.08400
C 	C 	0.76530 0.56471 0.47980 0.07000
N 	N 	0.75530 0.53064 0.42316 -0.11700
C 	C 	0.72917 0.47286 0.42890 0.07300
H 	H 	0.70595 0.46179 0.60340 0.03700
H 	H 	0.75144 0.56632 0.59063 0.05700
H 	H 	0.72277 0.44718 0.38293 0.02100
C 	C 	0.84982 0.14035 0.37105 0.05400
N 	N 	0.83732 0.10052 0.41970 -0.10500
C 	C 	0.86367 0.07666 0.42316 0.02300
C 	C 	0.89005 0.15659 0.32204 -0.05800
H 	H 	0.85254 0.04494 0.46232 0.03500
H 	H 	0.89952 0.18701 0.28187 0.04700
C 	C 	0.76347 0.21116 0.38529 -0.10300
C 	C 	0.81566 0.24731 0.37203 0.03600
C 	C 	0.84420 0.22430 0.36471 -0.07900
C 	C 	0.82018 0.16502 0.36972 0.06900
N 	N 	0.76921 0.13044 0.38033 -0.11400
C 	C 	0.74065 0.15200 0.38753 0.07200
H 	H 	0.83425 0.29313 0.36950 0.03800
H 	H 	0.88476 0.25242 0.35759 0.05400
H 	H 	0.70027 0.12319 0.39641 0.04000
C 	C 	0.34627 0.15405 0.55925 0.06900
N 	N 	0.36254 0.11891 0.55228 -0.11400
C 	C 	0.41108 0.13834 0.56117 0.07200
C 	C 	0.44611 0.19601 0.57646 -0.10000
C 	C 	0.42954 0.23218 0.58748 0.03600
C 	C 	0.37949 0.21123 0.57863 -0.07800
H 	H 	0.42288 0.10940 0.55377 0.04000
H 	H 	0.45572 0.27685 0.59974 0.03900
H 	H 	0.36717 0.23979 0.58374 0.05400
C 	C 	0.20071 0.09132 0.49627 -0.01400
C 	C 	0.21498 0.11932 0.55986 -0.01800
C 	C 	0.26287 0.14060 0.58079 -0.05700
C 	C 	0.29611 0.13364 0.53768 0.05400
N 	N 	0.28132 0.10595 0.47617 -0.10500
C 	C 	0.23491 0.08517 0.45466 0.02400
H 	H 	0.18905 0.12434 0.59297 0.03700
H 	H 	0.27386 0.16167 0.63034 0.04700
H 	H 	0.22438 0.06328 0.40551 0.03600
C 	C 	0.85157 0.67761 0.05784 0.05300
N 	N 	0.84975 0.71153 0.01247 -0.10500
C 	C 	0.87388 0.76877 0.02285 0.03100
C 	C 	0.90153 0.79431 0.08105 -0.01700
C 	C 	0.88001 0.70204 0.11587 -0.05800
H 	H 	0.87136 0.79440 0.98601 0.02900
H 	H 	0.88314 0.67595 0.15123 0.04800
C 	C 	0.76246 0.49946 0.01581 -0.11000
C 	C 	0.76439 0.51850 0.08394 0.04400
C 	C 	0.79509 0.57661 0.09874 -0.08100
C 	C 	0.82385 0.61563 0.04497 0.07400
N 	N 	0.82174 0.59628 0.97898 -0.11800
C 	C 	0.79191 0.53971 0.96339 0.06600
H 	H 	0.74052 0.48857 0.12489 0.03400
H 	H 	0.79486 0.59139 0.15108 0.05800
H 	H 	0.78930 0.52646 0.90995 0.02700
C 	C 	0.86187 0.17679 0.95619 0.05200
C 	C 	0.87167 0.09904 0.96655 -0.02400
C 	C 	0.84597 0.12021 0.94152 -0.05600
H 	H 	0.85813 0.05468 0.95800 0.03700
H 	H 	0.81343 0.09261 0.91207 0.04600
C 	C 	0.77610 0.24397 0.92316 -0.10300
C 	C 	0.75130 0.18667 0.94217 0.03700
C 	C 	0.77892 0.16371 0.95082 -0.07900
C 	C 	0.83141 0.19792 0.93875 0.06800
N 	N 	0.85476 0.25302 0.91762 -0.11500
C 	C 	0.82843 0.27637 0.90908 0.07000
H 	H 	0.71088 0.16051 0.95254 0.04000
H 	H 	0.75986 0.12036 0.96939 0.05400
H 	H 	0.84838 0.32055 0.89340 0.03600
C 	C 	0.31531 0.18860 0.12033 0.05400
N 	N 	0.29871 0.22312 0.11655 -0.10500
C 	C 	0.24883 0.20193 0.12376 0.02300
C 	C 	0.21315 0.14339 0.13519 -0.01300
C 	C 	0.22964 0.10772 0.14213 -0.01800
C 	C 	0.28086 0.13039 0.13539 -0.05700
H 	H 	0.23685 0.23041 0.11959 0.03600
H 	H 	0.20282 0.06242 0.15132 0.03700
H 	H 	0.29369 0.10282 0.14069 0.04900
C 	C 	0.47101 0.26014 0.07627 -0.10100
C 	C 	0.43545 0.20801 0.04615 0.03700
C 	C 	0.38443 0.18422 0.06057 -0.07800
C 	C 	0.36911 0.21229 0.10606 0.07000
N 	N 	0.40420 0.26320 0.13456 -0.11300
C 	C 	0.45433 0.28730 0.12104 0.07100
H 	H 	0.44725 0.18616 0.01128 0.04300
H 	H 	0.35695 0.14460 0.03594 0.05600
H 	H 	0.48116 0.32741 0.14530 0.03900
C 	C 	0.90466 0.76055 0.12770 -0.01700
C 	C 	0.90428 0.87617 0.13867 -0.02900
H 	H 	0.90987 0.95006 0.18379 0.05000
C 	C 	0.90103 0.80495 0.43200 0.00600
C 	C 	0.90178 0.84575 0.47652 -0.02900
H 	H 	0.89998 0.74538 0.53797 0.03700
C 	C 	0.90468 0.09264 0.37595 -0.01400
N 	N 	0.90446 0.21172 0.99011 -0.10900
H 	H 	0.91624 0.03009 0.27646 0.03800
C 	C 	0.91774 0.13292 0.32494 -0.01800
C 	C 	0.91407 0.13489 0.00399 -0.01100
H 	H 	0.92618 0.77958 0.17278 0.03600
C 	C 	0.92687 0.85600 0.09301 0.00800
C 	C 	0.92797 0.93481 0.14930 -0.06600
C 	C 	0.93286 0.06621 0.37895 0.00700
C 	C 	0.93080 0.19225 0.01364 0.02800
C 	C 	0.93520 0.03503 0.32241 -0.02900
H 	H 	0.93721 0.14461 0.13757 0.04000
C 	C 	0.93948 0.11195 0.03543 0.01800
C 	C 	0.93552 0.82274 0.37429 -0.02900
C 	C 	0.93675 0.90391 0.46349 -0.06800
H 	H 	0.93514 0.79149 0.33958 0.03900
H 	H 	0.93742 0.93494 0.49876 0.04900
C 	C 	0.94797 0.12015 0.10608 -0.03400
H 	H 	0.94793 0.07407 0.94072 0.04200
H 	H 	0.94920 0.14580 0.28778 0.03400
C 	C 	0.95340 0.07982 0.99551 -0.04800
H 	H 	0.95420 0.09425 0.48328 0.03900
C 	C 	0.95592 0.07040 0.43924 -0.02900
C 	C 	0.96088 0.00890 0.32574 -0.06700
H 	H 	0.96213 0.98448 0.28224 0.05100
H 	H 	0.96431 0.22111 0.04076 0.03400
C 	C 	0.96963 0.09603 0.13652 -0.06100
C 	C 	0.97077 0.88092 0.36149 -0.06600
C 	C 	0.97304 0.89481 0.05744 -0.02800
C 	C 	0.97176 0.92182 0.40595 0.07500
C 	C 	0.97384 0.05448 0.02637 -0.04800
C 	C 	0.97502 0.97379 0.11578 0.07500
H 	H 	0.97677 0.10332 0.19069 0.04800
C 	C 	0.98063 0.04311 0.44313 -0.06700
C 	C 	0.98166 0.06209 0.09742 0.06800
H 	H 	0.98397 0.02941 0.99514 0.03900
C 	C 	0.98342 0.01236 0.38600 0.07400
H 	H 	0.99030 0.87953 0.02122 0.04000
H 	H 	0.99708 0.04530 0.49052 0.04800
N 	N 	0.00045 0.03405 0.13110 -0.13900
C 	C 	0.99700 0.95345 0.06840 -0.07100
H 	H 	0.99706 0.89434 0.31659 0.05100
