data_crystal

_cell_length_a 18.06665
_cell_length_b 15.40923
_cell_length_c 16.54225
_cell_angle_alpha 90.00000
_cell_angle_beta  90.00000
_cell_angle_gamma 90.03485

_symmetry_space_group_name_	'P 1'
_symmetry_space_group_name_H-M	'P 1'

loop_
_symmetry_equiv_pos_as_xyz
  x,y,z

loop_
_atom_site_label
_atom_site_type_symbol
_atom_site_fract_x
_atom_site_fract_y
_atom_site_fract_z
_atom_site_charge
Co	Co	0.93175 0.86780 0.99098 1.11600
Co	Co	0.11265 0.05264 0.99271 1.14600
Co	Co	0.11304 0.86793 0.99101 1.13900
Co	Co	0.93174 0.05192 0.99207 1.12200
C 	C 	0.81183 0.81110 0.10731 0.30800
Co	Co	0.77058 0.96304 0.00057 1.21300
Co	Co	0.27391 0.96465 0.00018 1.20900
C 	C 	0.81660 0.09155 0.87341 0.33100
O 	O 	0.28077 0.89534 0.89259 -0.42400
O 	O 	0.15754 0.96071 0.00972 -0.70000
C 	C 	0.22972 0.84068 0.86707 0.31200
O 	O 	0.02225 0.79340 0.97391 -0.45400
O 	O 	0.02216 0.12849 0.98041 -0.45600
C 	C 	0.22773 0.09542 0.87518 0.32200
O 	O 	0.02244 0.95963 0.03144 -0.46800
C 	C 	0.23351 0.81116 0.10742 0.29800
C 	C 	0.81588 0.84054 0.86644 0.31100
C 	C 	0.81671 0.10099 0.12045 0.30800
O 	O 	0.15907 0.85791 0.87773 -0.39700
O 	O 	0.76379 0.89297 0.89307 -0.40600
O 	O 	0.88620 0.85918 0.87731 -0.42100
O 	O 	0.27428 0.08091 0.93502 -0.42800
O 	O 	0.15894 0.06803 0.88044 -0.38900
O 	O 	0.28554 0.84746 0.06264 -0.33400
O 	O 	0.16739 0.79437 0.07703 -0.30500
O 	O 	0.77541 0.03130 0.10814 -0.34000
O 	O 	0.86630 0.12832 0.06699 -0.31800
O 	O 	0.88705 0.95940 0.00993 -0.70800
C 	C 	0.22820 0.10206 0.12101 0.30600
O 	O 	0.26790 0.03115 0.10894 -0.34500
O 	O 	0.17725 0.12908 0.06894 -0.29400
O 	O 	0.75900 0.84698 0.06360 -0.34900
O 	O 	0.87663 0.79241 0.07471 -0.33300
O 	O 	0.77066 0.07870 0.93412 -0.42100
O 	O 	0.88580 0.06573 0.87947 -0.41400
Co	Co	0.61540 0.55857 0.50928 1.19100
Co	Co	0.43407 0.37471 0.50664 1.19400
Co	Co	0.43413 0.55932 0.50869 1.19300
Co	Co	0.61504 0.37474 0.50694 1.19000
C 	C 	0.73092 0.58565 0.63318 0.31500
Co	Co	0.77626 0.46328 0.49920 1.17400
Co	Co	0.27305 0.46329 0.49897 1.17500
C 	C 	0.72993 0.32472 0.37964 0.31600
O 	O 	0.26135 0.57991 0.43610 -0.35700
O 	O 	0.38943 0.46679 0.48965 -0.77400
C 	C 	0.31373 0.61683 0.39224 0.30900
O 	O 	0.52513 0.63336 0.52636 -0.44100
O 	O 	0.52440 0.29872 0.51963 -0.44100
C 	C 	0.31860 0.32521 0.37920 0.31200
O 	O 	0.52449 0.46745 0.46792 -0.56700
C 	C 	0.31805 0.58640 0.63290 0.31700
C 	C 	0.73512 0.61564 0.39190 0.31500
C 	C 	0.72979 0.33613 0.62702 0.32300
O 	O 	0.37930 0.63423 0.42380 -0.35900
O 	O 	0.78843 0.57830 0.43386 -0.38100
O 	O 	0.67134 0.63525 0.42641 -0.36900
O 	O 	0.27822 0.39562 0.39125 -0.36700
O 	O 	0.36901 0.29821 0.43187 -0.35500
O 	O 	0.26628 0.53313 0.60659 -0.37300
O 	O 	0.38846 0.56813 0.62199 -0.39100
O 	O 	0.77611 0.34858 0.56659 -0.36600
O 	O 	0.66060 0.36188 0.62030 -0.38900
O 	O 	0.65985 0.46720 0.48915 -0.77200
C 	C 	0.31911 0.33318 0.62535 0.31500
O 	O 	0.27244 0.34739 0.56555 -0.36400
O 	O 	0.38795 0.36032 0.61968 -0.38500
O 	O 	0.78392 0.53541 0.60502 -0.36600
O 	O 	0.66092 0.56548 0.62240 -0.39100
O 	O 	0.77188 0.39384 0.39196 -0.36800
O 	O 	0.68052 0.29773 0.43340 -0.36200
C 	C 	0.23836 0.13454 0.26675 -0.03100
C 	C 	0.25010 0.16011 0.18657 -0.06100
C 	C 	0.28611 0.23922 0.16986 0.12600
C 	C 	0.30895 0.29244 0.23346 -0.02200
C 	C 	0.29714 0.26691 0.31364 -0.07600
C 	C 	0.26116 0.18777 0.33036 0.13500
Br	Br	0.23986 0.15302 0.43947 -0.16000
H 	H 	0.21105 0.07342 0.27965 0.08300
H 	H 	0.33624 0.35357 0.22055 0.07600
Br	Br	0.30726 0.27403 0.06072 -0.10100
C 	C 	0.30246 0.13007 0.75326 -0.02600
C 	C 	0.24908 0.15568 0.80996 -0.08200
C 	C 	0.22032 0.24072 0.80720 0.13300
C 	C 	0.24459 0.29866 0.74747 -0.03100
C 	C 	0.29795 0.27304 0.69073 -0.07400
C 	C 	0.32671 0.18800 0.69350 0.12900
Br	Br	0.39728 0.14872 0.61480 -0.18900
H 	H 	0.32503 0.06494 0.75540 0.07400
H 	H 	0.22201 0.36379 0.74532 0.07500
Br	Br	0.14965 0.27992 0.88583 -0.22200
C 	C 	0.23276 0.79092 0.25651 -0.03500
C 	C 	0.25634 0.76261 0.18017 -0.05800
C 	C 	0.29760 0.68520 0.17360 0.12800
C 	C 	0.31511 0.63748 0.24320 -0.02600
C 	C 	0.29144 0.66574 0.31951 -0.07000
C 	C 	0.25029 0.74321 0.32610 0.13600
Br	Br	0.21878 0.78597 0.42957 -0.16700
H 	H 	0.20075 0.85012 0.26186 0.07400
H 	H 	0.34709 0.57826 0.23785 0.07300
Br	Br	0.32923 0.64250 0.07016 -0.11100
C 	C 	0.73689 0.29116 0.23386 -0.02700
C 	C 	0.75027 0.26614 0.31388 -0.07900
C 	C 	0.78705 0.18745 0.33014 0.13300
C 	C 	0.80922 0.13423 0.26627 -0.03700
C 	C 	0.79591 0.15930 0.18625 -0.06600
C 	C 	0.75907 0.23795 0.16999 0.12400
Br	Br	0.73620 0.27229 0.06112 -0.11600
H 	H 	0.70895 0.35191 0.22128 0.08500
H 	H 	0.83719 0.07352 0.27885 0.08500
Br	Br	0.80995 0.15312 0.43900 -0.18900
C 	C 	0.76995 0.69423 0.83251 -0.03900
C 	C 	0.79591 0.77523 0.80644 -0.09200
C 	C 	0.79862 0.79448 0.72338 0.13600
C 	C 	0.77591 0.73231 0.66718 -0.03800
C 	C 	0.75009 0.65125 0.69322 -0.08200
C 	C 	0.74720 0.63207 0.77630 0.13100
Br	Br	0.71322 0.52105 0.81400 -0.22300
H 	H 	0.76735 0.67966 0.89657 0.04200
H 	H 	0.77856 0.74687 0.60312 0.06800
Br	Br	0.83244 0.90558 0.68569 -0.20500
C 	C 	0.84006 0.22446 0.79186 -0.02800
C 	C 	0.79536 0.15202 0.80811 -0.08300
C 	C 	0.72798 0.14161 0.76608 0.13600
C 	C 	0.70588 0.20377 0.70920 -0.03000
C 	C 	0.75066 0.27613 0.69283 -0.07100
C 	C 	0.81797 0.28661 0.73497 0.13100
Br	Br	0.87890 0.38731 0.71883 -0.22600
H 	H 	0.89128 0.23368 0.82490 0.06200
H 	H 	0.65467 0.19454 0.67614 0.08000
Br	Br	0.66702 0.04095 0.78224 -0.20700
C 	C 	0.25400 0.62635 0.76003 -0.02700
C 	C 	0.29789 0.65112 0.69400 -0.08000
C 	C 	0.31838 0.73871 0.68440 0.12500
C 	C 	0.29467 0.80045 0.74054 -0.02300
C 	C 	0.25065 0.77572 0.80647 -0.08600
C 	C 	0.23028 0.68810 0.81616 0.12800
Br	Br	0.17196 0.65090 0.90686 -0.25100
H 	H 	0.23838 0.55892 0.76780 0.07800
H 	H 	0.31024 0.86789 0.73271 0.07600
Br	Br	0.37665 0.77592 0.59368 -0.21000
C 	C 	0.80954 0.72955 0.32296 -0.02700
C 	C 	0.75581 0.66388 0.31842 -0.07900
C 	C 	0.71923 0.64816 0.24470 0.13000
C 	C 	0.73646 0.69813 0.17650 -0.02700
C 	C 	0.79035 0.76365 0.18099 -0.06900
C 	C 	0.82678 0.77952 0.25478 0.12500
Br	Br	0.89832 0.87118 0.26431 -0.25500
H 	H 	0.83709 0.74275 0.37986 0.07400
H 	H 	0.70896 0.68488 0.11959 0.09800
Br	Br	0.64759 0.55660 0.23527 -0.21300
