data_crystal

_cell_length_a 26.13599
_cell_length_b 26.38770
_cell_length_c 35.03541
_cell_angle_alpha 95.49220
_cell_angle_beta  95.48903
_cell_angle_gamma 125.82732

_symmetry_space_group_name_	'P 1'
_symmetry_space_group_name_H-M	'P 1'

loop_
_symmetry_equiv_pos_as_xyz
  x,y,z

loop_
_atom_site_label
_atom_site_type_symbol
_atom_site_fract_x
_atom_site_fract_y
_atom_site_fract_z
_atom_site_charge
C 	C 	0.99460 0.04236 0.99329 0.12700
N 	N 	0.05920 0.07695 0.99582 -0.14500
C 	C 	0.08692 0.04697 0.99146 0.12500
N 	N 	0.05010 0.98251 0.98491 -0.14700
C 	C 	0.98547 0.94785 0.98181 0.12600
N 	N 	0.95773 0.97780 0.98619 -0.14400
C 	C 	0.91108 0.98512 0.46214 0.12000
N 	N 	0.97399 0.01823 0.45927 -0.13900
C 	C 	0.00416 0.99050 0.46208 0.11400
N 	N 	0.97165 0.92994 0.46840 -0.14100
C 	C 	0.90925 0.89722 0.47238 0.12300
N 	N 	0.87855 0.92438 0.46844 -0.14300
Cu	Cu	0.67165 0.26375 0.00728 0.92900
Cu	Cu	0.69746 0.23697 0.92040 0.87400
Cu	Cu	0.70150 0.35013 0.94729 0.90300
Cu	Cu	0.68825 0.39260 0.02747 0.89500
C 	C 	0.69109 0.31845 0.08649 0.33800
O 	O 	0.58156 0.23154 0.01303 -0.36800
C 	C 	0.65900 0.28519 0.86434 0.33400
O 	O 	0.72658 0.36029 0.00224 -0.64000
O 	O 	0.65185 0.25780 0.95042 -0.64000
O 	O 	0.70619 0.21360 0.00685 -0.36700
O 	O 	0.76570 0.26115 0.96088 -0.44200
O 	O 	0.70159 0.37195 0.07935 -0.38600
O 	O 	0.75459 0.44082 0.94827 -0.36900
C 	C 	0.75542 0.48208 0.97331 0.29900
C 	C 	0.55787 0.26165 0.00331 0.29200
O 	O 	0.59442 0.31685 0.99272 -0.38300
O 	O 	0.71538 0.46324 0.99811 -0.39000
O 	O 	0.70204 0.28557 0.06236 -0.34200
C 	C 	0.75431 0.22902 0.98928 0.30300
O 	O 	0.69081 0.33942 0.88980 -0.35900
O 	O 	0.64958 0.23384 0.87440 -0.41900
H 	H 	0.77360 0.38548 0.01120 0.16700
H 	H 	0.60552 0.23324 0.93932 0.17800
Cu	Cu	0.70861 0.32427 0.44938 0.92900
Cu	Cu	0.70609 0.27087 0.53074 0.87600
Cu	Cu	0.60429 0.28213 0.49833 0.89800
Cu	Cu	0.58930 0.32247 0.42353 0.89700
C 	C 	0.66667 0.31509 0.36827 0.33900
O 	O 	0.74524 0.41720 0.45274 -0.35400
C 	C 	0.64673 0.30038 0.58344 0.33900
O 	O 	0.60857 0.27108 0.44421 -0.64200
O 	O 	0.69935 0.32849 0.50474 -0.64100
O 	O 	0.75625 0.28657 0.45052 -0.36900
O 	O 	0.69111 0.21408 0.48617 -0.43800
O 	O 	0.63743 0.33974 0.37947 -0.36000
O 	O 	0.51168 0.23272 0.48825 -0.38200
C 	C 	0.47717 0.23948 0.46211 0.29900
C 	C 	0.71723 0.44028 0.46814 0.29200
O 	O 	0.65655 0.40148 0.47105 -0.39300
O 	O 	0.50378 0.28228 0.43936 -0.39400
O 	O 	0.70064 0.30697 0.39391 -0.36200
C 	C 	0.73376 0.23337 0.46346 0.29700
O 	O 	0.59879 0.27825 0.55400 -0.39100
O 	O 	0.69964 0.30761 0.57786 -0.39100
H 	H 	0.58180 0.22620 0.43044 0.16700
H 	H 	0.72432 0.37197 0.52050 0.17900
C 	C 	0.62440 0.33220 0.77197 -0.15100
C 	C 	0.62790 0.29369 0.74353 0.01100
C 	C 	0.63684 0.24923 0.75451 0.29100
C 	C 	0.64447 0.24487 0.79378 -0.06400
C 	C 	0.64348 0.28505 0.82259 -0.14800
C 	C 	0.63173 0.32773 0.81134 0.36500
C 	C 	0.62721 0.30316 0.70275 0.00700
F 	F 	0.64032 0.21173 0.72721 -0.42900
H 	H 	0.65325 0.21165 0.80193 0.08100
F 	F 	0.62743 0.36478 0.83847 -0.45000
H 	H 	0.61687 0.36619 0.76363 0.10900
C 	C 	0.57415 0.25681 0.67350 0.29500
C 	C 	0.57883 0.25870 0.63414 -0.06300
C 	C 	0.63664 0.30674 0.62376 -0.15000
C 	C 	0.68769 0.35609 0.65302 0.36500
C 	C 	0.68294 0.35418 0.69235 -0.15100
F 	F 	0.51923 0.20825 0.68324 -0.42600
H 	H 	0.53875 0.22093 0.61182 0.08800
F 	F 	0.74268 0.40473 0.64338 -0.45500
H 	H 	0.72364 0.39080 0.71478 0.10700
C 	C 	0.72742 0.30143 0.18933 -0.14600
C 	C 	0.67783 0.29689 0.20512 0.01300
C 	C 	0.62954 0.29350 0.18088 0.28400
C 	C 	0.63263 0.29785 0.14162 -0.06100
C 	C 	0.68371 0.30524 0.12618 -0.14700
C 	C 	0.73041 0.30555 0.14996 0.36900
C 	C 	0.68025 0.30269 0.24761 0.01000
F 	F 	0.58074 0.28802 0.19572 -0.43300
H 	H 	0.59604 0.29683 0.12336 0.07400
F 	F 	0.78018 0.31276 0.13543 -0.44600
H 	H 	0.76476 0.30390 0.20785 0.11500
C 	C 	0.65877 0.24978 0.26547 0.28700
C 	C 	0.65627 0.25444 0.30531 -0.06100
C 	C 	0.67475 0.31177 0.32738 -0.14600
C 	C 	0.69842 0.36526 0.30975 0.36900
C 	C 	0.70112 0.36063 0.27005 -0.14400
F 	F 	0.63897 0.19360 0.24408 -0.43000
H 	H 	0.63851 0.21313 0.31878 0.08100
F 	F 	0.71876 0.42168 0.33111 -0.44900
H 	H 	0.71849 0.40184 0.25654 0.11100
C 	C 	0.76310 0.60276 0.50967 -0.09300
C 	C 	0.79946 0.63849 0.48288 0.00600
C 	C 	0.81592 0.61136 0.45446 0.03300
C 	C 	0.78980 0.54672 0.45055 -0.01700
C 	C 	0.75067 0.50987 0.47612 -0.10300
C 	C 	0.74066 0.53927 0.50749 0.09900
C 	C 	0.82073 0.70463 0.48496 -0.00700
C 	C 	0.86037 0.65082 0.42789 -0.17800
H 	H 	0.79885 0.52475 0.42706 0.06500
C 	C 	0.70620 0.50355 0.53858 -0.20500
H 	H 	0.75243 0.62444 0.53230 0.05400
C 	C 	0.78779 0.71892 0.45917 0.04100
C 	C 	0.81610 0.78261 0.45629 -0.04900
C 	C 	0.87480 0.83200 0.48047 -0.04500
C 	C 	0.90267 0.81771 0.51014 0.06800
C 	C 	0.87657 0.75400 0.51124 -0.07800
C 	C 	0.72376 0.66650 0.43380 -0.18200
H 	H 	0.79344 0.79359 0.43447 0.04600
C 	C 	0.96094 0.86991 0.54003 -0.18600
H 	H 	0.90042 0.74283 0.53205 0.05100
H 	H 	0.65347 0.47392 0.52810 0.07900
H 	H 	0.71863 0.53689 0.56581 0.07700
H 	H 	0.72013 0.47275 0.54623 0.08100
H 	H 	0.90485 0.69540 0.44531 0.07100
H 	H 	0.83614 0.66293 0.40702 0.07200
H 	H 	0.87489 0.62495 0.41087 0.07600
H 	H 	0.69930 0.68550 0.42068 0.06600
H 	H 	0.69156 0.63171 0.45139 0.07000
H 	H 	0.73064 0.64158 0.40984 0.07100
H 	H 	0.96420 0.85219 0.56700 0.06700
H 	H 	0.95845 0.90995 0.54859 0.07100
H 	H 	0.00513 0.88760 0.52792 0.06900
C 	C 	0.82447 0.05690 0.48432 -0.07900
C 	C 	0.82578 0.08208 0.45066 -0.00800
C 	C 	0.85192 0.07233 0.41983 0.04100
C 	C 	0.87788 0.03875 0.42362 -0.04800
C 	C 	0.87809 0.01491 0.45771 -0.04400
C 	C 	0.85123 0.02410 0.48840 0.07200
C 	C 	0.80285 0.12170 0.44893 0.00800
C 	C 	0.85423 0.09948 0.38351 -0.18200
H 	H 	0.89885 0.03196 0.40024 0.04400
C 	C 	0.85142 0.99963 0.52558 -0.19800
H 	H 	0.80378 0.06406 0.50774 0.04900
C 	C 	0.73702 0.09345 0.43695 0.02400
C 	C 	0.71566 0.13143 0.43989 -0.01100
C 	C 	0.75911 0.19708 0.45455 -0.11300
C 	C 	0.82546 0.22570 0.46505 0.09800
C 	C 	0.84675 0.18769 0.46178 -0.09400
C 	C 	0.68906 0.02256 0.42278 -0.17000
H 	H 	0.66487 0.10960 0.43179 0.03900
C 	C 	0.87351 0.29626 0.48056 -0.20300
H 	H 	0.89741 0.20922 0.47030 0.05400
H 	H 	0.81749 0.94686 0.51969 0.07500
H 	H 	0.83644 0.01791 0.54844 0.06900
H 	H 	0.90043 0.01516 0.53752 0.07500
H 	H 	0.88798 0.15224 0.39080 0.07100
H 	H 	0.80572 0.08456 0.37091 0.07100
H 	H 	0.87068 0.08281 0.36074 0.06700
H 	H 	0.64096 0.00890 0.41036 0.06500
H 	H 	0.68411 0.99751 0.44746 0.06400
H 	H 	0.70515 0.00633 0.39954 0.06600
H 	H 	0.85939 0.31052 0.50600 0.06000
H 	H 	0.87611 0.32302 0.45729 0.08600
H 	H 	0.92245 0.31003 0.49040 0.07000
C 	C 	0.16371 0.08776 0.42830 -0.07700
C 	C 	0.20562 0.09696 0.46098 -0.00900
C 	C 	0.18140 0.07168 0.49418 0.04200
C 	C 	0.11534 0.03718 0.49407 -0.05000
C 	C 	0.07328 0.02755 0.46131 -0.04200
C 	C 	0.09744 0.05227 0.42790 0.06700
C 	C 	0.27505 0.13345 0.46026 0.01000
C 	C 	0.22592 0.08205 0.52988 -0.18300
H 	H 	0.09656 0.01797 0.51959 0.04300
C 	C 	0.05302 0.04143 0.39197 -0.18800
H 	H 	0.18268 0.10766 0.40300 0.04900
C 	C 	0.30067 0.10282 0.44532 0.02400
C 	C 	0.36706 0.13827 0.44622 -0.01200
C 	C 	0.40786 0.20369 0.46157 -0.10800
C 	C 	0.38223 0.23429 0.47660 0.10500
C 	C 	0.31577 0.19897 0.47529 -0.09600
C 	C 	0.25740 0.03258 0.42831 -0.17300
H 	H 	0.38702 0.11501 0.43483 0.03300
C 	C 	0.42544 0.30443 0.49393 -0.20700
H 	H 	0.29574 0.22226 0.48651 0.05400
H 	H 	0.07774 0.05506 0.36662 0.06600
H 	H 	0.03556 0.07044 0.39774 0.07200
H 	H 	0.01134 0.99034 0.38366 0.06900
H 	H 	0.26039 0.13366 0.54243 0.07300
H 	H 	0.25294 0.06347 0.52200 0.07100
H 	H 	0.19920 0.05727 0.55282 0.06800
H 	H 	0.28497 0.01568 0.41835 0.06400
H 	H 	0.22205 0.02253 0.40279 0.06700
H 	H 	0.23134 0.00506 0.45060 0.06600
H 	H 	0.39907 0.31944 0.50833 0.07100
H 	H 	0.44531 0.33241 0.47057 0.07900
H 	H 	0.46555 0.31580 0.51632 0.07900
C 	C 	0.91377 0.77726 0.93917 -0.07900
C 	C 	0.88178 0.74617 0.96864 -0.00300
C 	C 	0.88005 0.78075 0.00122 0.03600
C 	C 	0.91240 0.84656 0.00441 -0.05000
C 	C 	0.94593 0.87799 0.97547 -0.04300
C 	C 	0.94463 0.84275 0.94185 0.06900
C 	C 	0.85125 0.67749 0.96561 0.00700
C 	C 	0.84563 0.74806 0.03317 -0.17800
H 	H 	0.91291 0.87367 0.02995 0.04300
C 	C 	0.97730 0.87489 0.90925 -0.18700
H 	H 	0.91454 0.75038 0.91409 0.05200
C 	C 	0.78699 0.63141 0.94622 0.02900
C 	C 	0.75696 0.56699 0.94758 -0.00900
C 	C 	0.79055 0.54817 0.96751 -0.10300
C 	C 	0.85598 0.59378 0.98473 0.10100
C 	C 	0.88584 0.65831 0.98376 -0.09200
C 	C 	0.74987 0.65092 0.92508 -0.17500
H 	H 	0.70693 0.53158 0.93392 0.05100
C 	C 	0.89323 0.57418 0.00558 -0.21300
H 	H 	0.93551 0.69385 0.99804 0.05500
H 	H 	0.96700 0.90872 0.90255 0.07100
H 	H 	0.96004 0.83969 0.88201 0.06700
H 	H 	0.03000 0.90099 0.91786 0.07000
H 	H 	0.87015 0.73057 0.04831 0.06700
H 	H 	0.79502 0.70723 0.02068 0.06500
H 	H 	0.84495 0.78077 0.05521 0.06300
H 	H 	0.70107 0.60901 0.91010 0.07100
H 	H 	0.77559 0.67816 0.90260 0.07000
H 	H 	0.74451 0.68102 0.94613 0.06600
H 	H 	0.88925 0.53586 0.98602 0.07700
H 	H 	0.87387 0.55658 0.03211 0.06700
H 	H 	0.94507 0.61455 0.01463 0.07100
C 	C 	0.89126 0.21858 0.01525 -0.09500
C 	C 	0.86016 0.15338 0.00258 0.00700
C 	C 	0.79288 0.11208 0.98956 0.02700
C 	C 	0.75828 0.13732 0.98727 -0.01300
C 	C 	0.78997 0.20301 0.99773 -0.11000
C 	C 	0.85653 0.24374 0.01322 0.10700
C 	C 	0.89878 0.12913 0.00121 -0.01100
C 	C 	0.75824 0.04149 0.97700 -0.16900
H 	H 	0.70695 0.10610 0.97606 0.03100
C 	C 	0.89099 0.31415 0.02648 -0.21100
H 	H 	0.94277 0.24994 0.02581 0.05500
C 	C 	0.92599 0.12963 0.96815 0.04400
C 	C 	0.95877 0.10250 0.96648 -0.04900
C 	C 	0.96436 0.07472 0.99720 -0.04100
C 	C 	0.93932 0.07638 0.03089 0.06500
C 	C 	0.90652 0.10351 0.03257 -0.07500
C 	C 	0.91933 0.15817 0.93445 -0.18100
H 	H 	0.97894 0.10190 0.94094 0.04300
C 	C 	0.94612 0.04801 0.06464 -0.18900
H 	H 	0.88595 0.10369 0.05800 0.05200
H 	H 	0.89633 0.33705 0.00067 0.07500
H 	H 	0.93959 0.33726 0.04402 0.07700
H 	H 	0.86359 0.32257 0.04507 0.09400
H 	H 	0.76677 0.02181 0.00137 0.06600
H 	H 	0.77585 0.03240 0.95152 0.06400
H 	H 	0.70553 0.01558 0.96847 0.06300
H 	H 	0.94320 0.15471 0.91081 0.06400
H 	H 	0.94176 0.20929 0.94464 0.06800
H 	H 	0.86774 0.13275 0.92188 0.06500
H 	H 	0.93149 0.06034 0.09059 0.06800
H 	H 	0.99694 0.06633 0.07336 0.07300
H 	H 	0.91537 0.99536 0.05604 0.07000
C 	C 	0.40407 0.23572 0.02101 -0.09900
C 	C 	0.35783 0.17452 0.99900 0.01500
C 	C 	0.37727 0.14169 0.97838 0.02300
C 	C 	0.44300 0.17084 0.98016 -0.00400
C 	C 	0.48931 0.23194 0.00238 -0.11300
C 	C 	0.46977 0.26415 0.02370 0.10600
C 	C 	0.28898 0.14452 0.99837 -0.00600
C 	C 	0.32813 0.07594 0.95430 -0.17200
H 	H 	0.45817 0.14617 0.96400 0.03600
C 	C 	0.51859 0.32887 0.04912 -0.20600
H 	H 	0.38881 0.26073 0.03666 0.05600
C 	C 	0.25839 0.11096 0.02785 0.04000
C 	C 	0.19253 0.08112 0.02583 -0.05100
C 	C 	0.15693 0.08409 0.99477 -0.04200
C 	C 	0.18771 0.11838 0.96554 0.06800
C 	C 	0.25384 0.14912 0.96791 -0.07700
C 	C 	0.29571 0.10659 0.06129 -0.18300
H 	H 	0.16865 0.05476 0.04819 0.04600
C 	C 	0.15019 0.12168 0.93164 -0.19100
H 	H 	0.27780 0.17561 0.94563 0.05100
H 	H 	0.55618 0.32949 0.06736 0.06700
H 	H 	0.49600 0.34186 0.06926 0.07500
H 	H 	0.54135 0.36545 0.03052 0.07000
H 	H 	0.29858 0.07778 0.93031 0.06800
H 	H 	0.29635 0.04320 0.97291 0.06700
H 	H 	0.35111 0.05589 0.94106 0.06500
H 	H 	0.26444 0.07729 0.08135 0.06900
H 	H 	0.33403 0.15490 0.07843 0.07500
H 	H 	0.31788 0.08441 0.04994 0.07100
H 	H 	0.13211 0.14838 0.94232 0.07400
H 	H 	0.10892 0.07294 0.91655 0.07000
H 	H 	0.18027 0.14615 0.90983 0.06700
