data_crystal

_cell_length_a 16.56656
_cell_length_b 15.79219
_cell_length_c 34.22449
_cell_angle_alpha 90.96508
_cell_angle_beta  91.06782
_cell_angle_gamma 113.28105

_symmetry_space_group_name_	'P 1'
_symmetry_space_group_name_H-M	'P 1'

loop_
_symmetry_equiv_pos_as_xyz
  x,y,z

loop_
_atom_site_label
_atom_site_type_symbol
_atom_site_fract_x
_atom_site_fract_y
_atom_site_fract_z
_atom_site_charge
Ni	Ni	0.79461 0.39812 0.88201 1.10900
O 	O 	0.67683 0.29100 0.86881 -0.68600
Ni	Ni	0.59975 0.31050 0.90879 1.10600
O 	O 	0.86890 0.33582 0.85548 -0.29100
O 	O 	0.79659 0.20814 0.89033 -0.31900
O 	O 	0.78630 0.45976 0.82990 -0.32400
Ni	Ni	0.66631 0.16356 0.87275 1.14800
O 	O 	0.83859 0.61418 0.90393 -0.32400
O 	O 	0.62509 0.11437 0.92742 -0.28400
O 	O 	0.49336 0.18943 0.90096 -0.32800
O 	O 	0.71186 0.42609 0.91720 -0.69900
O 	O 	0.90416 0.51197 0.89691 -0.32000
O 	O 	0.53330 0.36026 0.94594 -0.29100
O 	O 	0.56815 0.49053 0.91010 -0.33000
Ni	Ni	0.70535 0.54482 0.90643 1.09700
H 	H 	0.65475 0.29935 0.84269 0.20800
H 	H 	0.72995 0.42732 0.94487 0.18900
C 	C 	0.61099 0.16124 0.95664 0.32000
O 	O 	0.69865 0.53391 0.84699 -0.30500
C 	C 	0.85677 0.25123 0.86518 0.29400
C 	C 	0.47864 0.13917 0.86851 0.28800
C 	C 	0.76593 0.53241 0.82766 0.30100
C 	C 	0.52677 0.43913 0.93953 0.28100
C 	C 	0.89377 0.57886 0.91712 0.30400
O 	O 	0.63615 0.25128 0.95513 -0.32000
O 	O 	0.53974 0.11576 0.85285 -0.27500
Ni	Ni	0.63204 0.22849 0.64086 1.11200
O 	O 	0.73341 0.34854 0.65854 -0.69500
Ni	Ni	0.72599 0.43619 0.61896 1.11000
O 	O 	0.68383 0.14425 0.66793 -0.27100
O 	O 	0.80942 0.22219 0.63680 -0.33700
O 	O 	0.56603 0.23355 0.69130 -0.32400
Ni	Ni	0.85392 0.35567 0.65932 1.10800
O 	O 	0.43284 0.19303 0.61898 -0.32800
O 	O 	0.91400 0.41188 0.60811 -0.29000
O 	O 	0.84147 0.54387 0.63238 -0.33900
O 	O 	0.61491 0.32158 0.60555 -0.69600
O 	O 	0.52428 0.11701 0.62185 -0.30100
O 	O 	0.69089 0.51528 0.58104 -0.29200
O 	O 	0.55765 0.47412 0.60947 -0.31000
Ni	Ni	0.50240 0.33154 0.61441 1.10000
H 	H 	0.72093 0.36892 0.68441 0.19700
H 	H 	0.61761 0.30594 0.57774 0.19200
C 	C 	0.87476 0.42362 0.57617 0.31500
O 	O 	0.51975 0.34489 0.67322 -0.30900
C 	C 	0.76497 0.15552 0.66002 0.30500
C 	C 	0.88279 0.55387 0.66650 0.30600
C 	C 	0.50834 0.27198 0.69371 0.30500
C 	C 	0.61087 0.51326 0.58094 0.29200
C 	C 	0.46085 0.13278 0.60364 0.30600
O 	O 	0.78910 0.39995 0.57465 -0.32100
O 	O 	0.89216 0.48375 0.68394 -0.31200
C 	C 	0.07028 0.01075 0.72503 -0.03100
H 	H 	0.08006 0.02889 0.69389 0.16500
C 	C 	0.05259 0.97122 0.80051 -0.00700
H 	H 	0.04607 0.95249 0.83147 0.16600
C 	C 	0.00940 0.04809 0.74694 0.04100
C 	C 	0.02896 0.90647 0.73384 0.02100
C 	C 	0.15734 0.04822 0.74910 0.03900
C 	C 	0.00038 0.02724 0.78627 0.01700
C 	C 	0.01955 0.88555 0.77286 0.02800
C 	C 	0.14775 0.02985 0.78800 0.03800
Ni	Ni	0.29776 0.63804 0.41877 1.11800
O 	O 	0.35603 0.76750 0.44340 -0.70100
Ni	Ni	0.33536 0.84315 0.40116 1.11100
O 	O 	0.37155 0.58362 0.45028 -0.28800
O 	O 	0.49553 0.70420 0.43379 -0.35700
O 	O 	0.20559 0.59694 0.46255 -0.32000
Ni	Ni	0.48118 0.81907 0.45718 1.10200
O 	O 	0.10263 0.53979 0.39278 -0.34700
O 	O 	0.54178 0.90105 0.41173 -0.30900
O 	O 	0.41361 0.97038 0.42406 -0.27900
O 	O 	0.25956 0.71219 0.38144 -0.69600
O 	O 	0.22953 0.51379 0.39231 -0.26700
O 	O 	0.27873 0.89900 0.36045 -0.26400
O 	O 	0.14335 0.81250 0.38380 -0.30700
Ni	Ni	0.13373 0.67763 0.38751 1.12200
H 	H 	0.32308 0.77258 0.46653 0.20400
H 	H 	0.27311 0.70135 0.35424 0.24900
C 	C 	0.51890 0.88065 0.37488 0.31400
O 	O 	0.13845 0.69328 0.44668 -0.33200
C 	C 	0.45779 0.62488 0.45104 0.30800
C 	C 	0.43463 0.98289 0.46179 0.29700
C 	C 	0.14417 0.62883 0.46876 0.30700
C 	C 	0.19207 0.86933 0.35777 0.28600
C 	C 	0.14952 0.49614 0.37829 0.29500
O 	O 	0.43467 0.84688 0.36374 -0.29500
O 	O 	0.46744 0.93043 0.48081 -0.31900
Ni	Ni	0.37442 0.72055 0.11229 1.12000
O 	O 	0.25602 0.66865 0.08200 -0.69000
Ni	Ni	0.17787 0.68978 0.12165 1.10800
O 	O 	0.43245 0.64721 0.08172 -0.26100
O 	O 	0.30922 0.51601 0.08338 -0.31400
O 	O 	0.42860 0.82445 0.07237 -0.27700
Ni	Ni	0.20094 0.53934 0.06487 1.11500
O 	O 	0.46991 0.91907 0.14278 -0.29900
O 	O 	0.12136 0.47116 0.10960 -0.29500
O 	O 	0.05840 0.61271 0.09585 -0.31100
O 	O 	0.29944 0.76124 0.14655 -0.69500
O 	O 	0.48625 0.78223 0.14493 -0.30700
O 	O 	0.12119 0.74784 0.16102 -0.29600
O 	O 	0.21267 0.88935 0.14087 -0.30400
Ni	Ni	0.33961 0.89462 0.14262 1.13300
H 	H 	0.25785 0.70760 0.05941 0.22700
H 	H 	0.30342 0.74366 0.17393 0.22400
C 	C 	0.13370 0.49495 0.14693 0.31600
O 	O 	0.33631 0.89678 0.08335 -0.31700
C 	C 	0.38508 0.56397 0.06778 0.28800
C 	C 	0.04984 0.59501 0.05788 0.29200
C 	C 	0.39974 0.88872 0.06351 0.30200
C 	C 	0.15317 0.83850 0.16500 0.29800
C 	C 	0.50312 0.86536 0.15995 0.28200
O 	O 	0.16527 0.58277 0.15839 -0.32400
O 	O 	0.09960 0.55992 0.03945 -0.32000
C 	C 	0.91356 0.07930 0.22224 -0.03100
H 	H 	0.90421 0.07981 0.19024 0.13000
C 	C 	0.93173 0.08301 0.29962 -0.02500
H 	H 	0.94067 0.08512 0.33174 0.16400
C 	C 	0.98157 0.04308 0.23704 0.02000
C 	C 	0.94359 0.17657 0.24088 0.02900
C 	C 	0.83015 0.02010 0.24373 0.02900
C 	C 	0.99231 0.04575 0.27724 0.04600
C 	C 	0.95274 0.17852 0.28116 0.04700
C 	C 	0.83756 0.02278 0.28375 0.04300
C 	C 	0.06268 0.26307 0.19475 0.03200
C 	C 	0.98996 0.26004 0.21623 0.08500
C 	C 	0.96626 0.33768 0.21567 -0.11800
C 	C 	0.02089 0.41855 0.19671 0.09300
C 	C 	0.09433 0.42138 0.17601 0.02800
C 	C 	0.11857 0.34494 0.17724 -0.05200
C 	C 	0.20296 0.34924 0.15913 0.78100
H 	H 	0.07898 0.20317 0.19372 0.11000
H 	H 	0.00365 0.47801 0.19656 0.12200
C 	C 	0.88476 0.33740 0.23530 0.80000
F 	F 	0.23059 0.28506 0.17528 -0.37200
F 	F 	0.26962 0.43553 0.16554 -0.40100
F 	F 	0.18914 0.33102 0.11936 -0.40100
F 	F 	0.82154 0.24967 0.23929 -0.39100
F 	F 	0.84715 0.38565 0.21322 -0.35300
F 	F 	0.90805 0.38031 0.27171 -0.38600
C 	C 	0.71137 0.03504 0.20431 0.00100
C 	C 	0.74527 0.97708 0.22241 0.13600
C 	C 	0.69455 0.88044 0.22239 -0.11800
C 	C 	0.60766 0.84677 0.20797 0.08800
C 	C 	0.57511 0.90551 0.18926 0.02700
C 	C 	0.62291 0.00208 0.19309 -0.05700
C 	C 	0.57900 0.06977 0.18913 0.77700
H 	H 	0.75238 0.10738 0.20164 0.15000
H 	H 	0.56774 0.77336 0.20838 0.11100
C 	C 	0.73250 0.81125 0.23449 0.81000
F 	F 	0.62467 0.14981 0.21094 -0.33100
F 	F 	0.49419 0.03239 0.20272 -0.38700
F 	F 	0.57762 0.09315 0.15043 -0.38500
F 	F 	0.69790 0.77419 0.26969 -0.39100
F 	F 	0.82301 0.84863 0.23792 -0.40000
F 	F 	0.70890 0.74034 0.20669 -0.36500
C 	C 	0.01884 0.86143 0.18070 0.10500
C 	C 	0.10803 0.88331 0.18889 0.02300
C 	C 	0.15809 0.96630 0.20993 -0.05400
C 	C 	0.12086 0.03084 0.21701 -0.00100
C 	C 	0.03079 0.00633 0.20989 0.10100
C 	C 	0.98562 0.93019 0.18419 -0.10500
C 	C 	0.92626 0.93820 0.15138 0.80500
H 	H 	0.98013 0.79724 0.16520 0.12100
H 	H 	0.15984 0.09648 0.23113 0.15100
C 	C 	0.25160 0.98742 0.22395 0.78800
F 	F 	0.91864 0.87667 0.12079 -0.38000
F 	F 	0.96093 0.02592 0.13645 -0.40800
F 	F 	0.84308 0.91925 0.16460 -0.40300
F 	F 	0.30917 0.03262 0.19515 -0.41400
F 	F 	0.26238 0.90724 0.23278 -0.41700
F 	F 	0.27241 0.04326 0.25737 -0.38000
C 	C 	0.69070 0.02281 0.30333 -0.01900
C 	C 	0.75685 0.98867 0.30933 0.15500
C 	C 	0.73980 0.91355 0.33481 -0.10100
C 	C 	0.65539 0.87047 0.35084 0.10200
C 	C 	0.59057 0.90613 0.34574 0.00500
C 	C 	0.60813 0.98285 0.32139 -0.00300
C 	C 	0.53891 0.02183 0.31428 0.74900
H 	H 	0.70282 0.07922 0.28371 0.16600
H 	H 	0.64200 0.81267 0.36991 0.10800
C 	C 	0.81224 0.88325 0.34763 0.80400
F 	F 	0.56778 0.09572 0.28953 -0.33000
F 	F 	0.51784 0.05204 0.34929 -0.35900
F 	F 	0.46420 0.95426 0.29739 -0.37000
F 	F 	0.87331 0.95117 0.37119 -0.39200
F 	F 	0.85280 0.86596 0.31561 -0.40000
F 	F 	0.77990 0.80306 0.36866 -0.37400
C 	C 	0.02179 0.35043 0.36616 0.11400
C 	C 	0.10406 0.41275 0.35444 0.02300
C 	C 	0.13467 0.40208 0.31725 -0.04100
C 	C 	0.08472 0.32515 0.29386 0.04100
C 	C 	0.99970 0.26562 0.30440 0.12700
C 	C 	0.96556 0.28337 0.33987 -0.09700
C 	C 	0.86916 0.23516 0.34925 0.79800
H 	H 	0.99918 0.35843 0.39499 0.11800
H 	H 	0.11361 0.30952 0.26834 0.12800
C 	C 	0.22166 0.47107 0.30276 0.77600
F 	F 	0.84324 0.29067 0.37333 -0.35100
F 	F 	0.85488 0.15428 0.36830 -0.39600
F 	F 	0.81716 0.21627 0.31571 -0.38400
F 	F 	0.23401 0.45365 0.26401 -0.38500
F 	F 	0.29025 0.46629 0.32496 -0.36700
F 	F 	0.22393 0.55944 0.30549 -0.43900
C 	C 	0.17044 0.01011 0.34020 0.08300
C 	C 	0.15109 0.91691 0.33259 0.05700
C 	C 	0.08248 0.86654 0.30556 -0.06700
C 	C 	0.02786 0.90799 0.29033 0.05600
C 	C 	0.04700 0.00195 0.29777 0.09400
C 	C 	0.12298 0.05490 0.32118 -0.10400
C 	C 	0.15647 0.15864 0.32459 0.79800
H 	H 	0.22226 0.04774 0.36139 0.12700
H 	H 	0.97263 0.86823 0.27120 0.15200
C 	C 	0.06518 0.76753 0.29399 0.77900
F 	F 	0.24004 0.19725 0.34160 -0.35700
F 	F 	0.10121 0.18319 0.34753 -0.42600
F 	F 	0.16142 0.19432 0.28787 -0.43700
F 	F 	0.01961 0.70967 0.32311 -0.42800
F 	F 	0.14358 0.75762 0.28848 -0.41900
F 	F 	0.01592 0.74077 0.25945 -0.39200
C 	C 	0.35411 0.04483 0.50406 0.04900
C 	C 	0.42997 0.06122 0.48278 0.03200
C 	C 	0.50931 0.12854 0.49719 -0.08300
C 	C 	0.52076 0.14309 0.53752 0.06000
C 	C 	0.44738 0.11292 0.56151 -0.02400
C 	C 	0.36193 0.06727 0.54436 -0.05500
C 	C 	0.28049 0.03878 0.56899 0.75500
H 	H 	0.29064 0.00239 0.49087 0.10800
H 	H 	0.58652 0.17173 0.55033 0.05800
C 	C 	0.58708 0.16908 0.47107 0.78900
F 	F 	0.20535 0.98434 0.54774 -0.33900
F 	F 	0.26963 0.11647 0.58255 -0.38900
F 	F 	0.28896 0.98881 0.60048 -0.34000
F 	F 	0.55939 0.16911 0.43265 -0.34300
F 	F 	0.63810 0.11791 0.47322 -0.37600
F 	F 	0.63750 0.25920 0.48288 -0.37400
C 	C 	0.97271 0.57292 0.54844 0.06100
C 	C 	0.93027 0.47651 0.54398 0.03800
C 	C 	0.95489 0.43085 0.51340 -0.07600
C 	C 	0.02559 0.48197 0.48956 0.07600
C 	C 	0.07071 0.57792 0.49513 0.01700
C 	C 	0.04496 0.62393 0.52533 -0.05600
C 	C 	0.09386 0.72697 0.53309 0.78400
H 	H 	0.95201 0.60768 0.57126 0.12600
H 	H 	0.04609 0.44703 0.46673 0.10300
C 	C 	0.90924 0.32708 0.50748 0.78400
F 	F 	0.07220 0.75425 0.56867 -0.34600
F 	F 	0.07246 0.77468 0.50394 -0.37600
F 	F 	0.18374 0.75069 0.53394 -0.40200
F 	F 	0.81904 0.30036 0.50749 -0.36800
F 	F 	0.93420 0.28411 0.53744 -0.38400
F 	F 	0.93039 0.29767 0.47226 -0.37600
C 	C 	0.53075 0.47886 0.51736 0.06100
C 	C 	0.57731 0.54408 0.54655 0.01400
C 	C 	0.59386 0.63818 0.54197 -0.07000
C 	C 	0.55854 0.66439 0.50894 0.07100
C 	C 	0.50848 0.59838 0.48054 0.00500
C 	C 	0.49970 0.50587 0.48335 -0.06300
C 	C 	0.45496 0.43514 0.45087 0.78000
H 	H 	0.51919 0.40697 0.52114 0.06900
H 	H 	0.56682 0.73553 0.50597 0.05400
C 	C 	0.64846 0.71026 0.57240 0.78400
F 	F 	0.47967 0.36111 0.45278 -0.37300
F 	F 	0.47771 0.47378 0.41461 -0.36400
F 	F 	0.36480 0.40275 0.45431 -0.38300
F 	F 	0.73230 0.71140 0.57493 -0.36400
F 	F 	0.61005 0.68937 0.60846 -0.35700
F 	F 	0.65549 0.79788 0.56315 -0.36700
C 	C 	0.89209 0.19205 0.70554 0.10600
C 	C 	0.81608 0.12476 0.68816 0.00300
C 	C 	0.80019 0.03039 0.69208 -0.02800
C 	C 	0.86487 0.00656 0.71082 0.01100
C 	C 	0.94504 0.07530 0.72462 0.10700
C 	C 	0.96100 0.16905 0.71907 -0.13600
C 	C 	0.05267 0.24329 0.72342 0.80500
H 	H 	0.90078 0.26374 0.70509 0.01800
H 	H 	0.85219 0.93495 0.71569 0.12200
C 	C 	0.71408 0.95559 0.67742 0.79100
F 	F 	0.05735 0.32649 0.70900 -0.38500
F 	F 	0.11001 0.21704 0.70264 -0.41400
F 	F 	0.07793 0.25694 0.76237 -0.38200
F 	F 	0.70900 0.95614 0.63705 -0.34600
F 	F 	0.64411 0.97088 0.69262 -0.34500
F 	F 	0.70628 0.86890 0.68856 -0.33700
C 	C 	0.27631 0.20334 0.73429 0.01200
C 	C 	0.24539 0.10657 0.73183 0.12000
C 	C 	0.30211 0.06633 0.71716 -0.14600
C 	C 	0.39075 0.12209 0.71101 0.09200
C 	C 	0.42041 0.21825 0.71083 -0.00900
C 	C 	0.36312 0.26018 0.72370 -0.04500
C 	C 	0.39305 0.36444 0.72611 0.77700
H 	H 	0.23371 0.23446 0.74544 0.18500
H 	H 	0.43567 0.09014 0.70356 0.11300
C 	C 	0.26810 0.96560 0.70599 0.81600
F 	F 	0.33824 0.39060 0.74886 -0.33200
F 	F 	0.39201 0.39767 0.68907 -0.38700
F 	F 	0.47694 0.40505 0.74261 -0.37500
F 	F 	0.19404 0.94288 0.68219 -0.40100
F 	F 	0.24999 0.91527 0.73954 -0.41400
F 	F 	0.32876 0.94372 0.68540 -0.35100
C 	C 	0.88158 0.70569 0.68092 0.09600
C 	C 	0.92632 0.64667 0.68314 -0.01700
C 	C 	0.01740 0.68416 0.69268 -0.02300
C 	C 	0.05693 0.77650 0.70508 0.01200
C 	C 	0.01058 0.83391 0.70297 0.15200
C 	C 	0.92950 0.80084 0.68220 -0.15400
C 	C 	0.91457 0.85455 0.64865 0.80700
H 	H 	0.81320 0.67835 0.67109 0.10900
H 	H 	0.11993 0.80094 0.71956 0.19700
C 	C 	0.07200 0.62620 0.69109 0.77600
F 	F 	0.95911 0.94829 0.65387 -0.41100
F 	F 	0.82597 0.83544 0.64412 -0.35200
F 	F 	0.94290 0.82792 0.61461 -0.34300
F 	F 	0.05864 0.57886 0.65556 -0.39100
F 	F 	0.04924 0.56433 0.72115 -0.37600
F 	F 	0.16100 0.68063 0.69512 -0.33200
C 	C 	0.99325 0.68312 0.01601 0.04700
C 	C 	0.97670 0.60192 0.03628 0.03500
C 	C 	0.91055 0.51997 0.02182 -0.09100
C 	C 	0.89098 0.51126 0.98184 0.06400
C 	C 	0.91784 0.58993 0.95885 -0.02400
C 	C 	0.96612 0.67807 0.97649 -0.05400
C 	C 	0.99203 0.76531 0.95305 0.76900
H 	H 	0.03704 0.74837 0.02924 0.12200
H 	H 	0.85910 0.44324 0.96836 0.04900
C 	C 	0.87257 0.43691 0.04725 0.78800
F 	F 	0.04910 0.84190 0.97411 -0.33900
F 	F 	0.91779 0.78058 0.94297 -0.37900
F 	F 	0.03352 0.75656 0.91946 -0.34800
F 	F 	0.87782 0.46344 0.08630 -0.38100
F 	F 	0.91816 0.38085 0.04220 -0.38300
F 	F 	0.78496 0.38756 0.03702 -0.38200
C 	C 	0.54539 0.00145 0.04216 0.04000
C 	C 	0.45321 0.96475 0.03768 0.08100
C 	C 	0.41364 0.00163 0.00920 -0.08700
C 	C 	0.46738 0.07755 0.98742 0.08900
C 	C 	0.55949 0.10966 0.98995 0.02700
C 	C 	0.59900 0.07369 0.01867 -0.04200
C 	C 	0.69822 0.10665 0.02223 0.78000
H 	H 	0.57549 0.97284 0.06375 0.14800
H 	H 	0.43751 0.10773 0.96648 0.13400
C 	C 	0.31476 0.96040 0.00156 0.80500
F 	F 	0.72423 0.08493 0.05805 -0.36600
F 	F 	0.73777 0.20129 0.01885 -0.36400
F 	F 	0.72732 0.06513 0.99296 -0.37500
F 	F 	0.27423 0.98860 0.03101 -0.37000
F 	F 	0.28266 0.86506 0.00007 -0.39000
F 	F 	0.29272 0.98835 0.96624 -0.34100
C 	C 	0.49296 0.56386 0.97093 0.06200
C 	C 	0.47127 0.46930 0.96496 0.02900
C 	C 	0.40498 0.40557 0.98784 -0.07400
C 	C 	0.38086 0.43742 0.02242 0.06200
C 	C 	0.40739 0.53228 0.02997 0.00900
C 	C 	0.45411 0.59514 0.00093 -0.07500
C 	C 	0.45746 0.69242 0.99979 0.78000
H 	H 	0.54013 0.61315 0.95235 0.10200
H 	H 	0.34013 0.38836 0.04303 0.12700
C 	C 	0.35782 0.30496 0.97530 0.78800
F 	F 	0.47235 0.72588 0.96230 -0.37400
F 	F 	0.52507 0.75010 0.02413 -0.39900
F 	F 	0.37837 0.69405 0.01107 -0.45000
F 	F 	0.40025 0.25398 0.99185 -0.40000
F 	F 	0.35501 0.29403 0.93501 -0.38600
F 	F 	0.27195 0.27076 0.98767 -0.36200
C 	C 	0.97294 0.19330 0.85546 0.10100
C 	C 	0.89413 0.19723 0.84173 0.01400
C 	C 	0.83976 0.12799 0.81437 -0.07100
C 	C 	0.86637 0.05755 0.80228 0.00100
C 	C 	0.94911 0.06128 0.81374 0.11100
C 	C 	0.98902 0.11383 0.84781 -0.09000
C 	C 	0.01338 0.06782 0.88212 0.78900
H 	H 	0.01244 0.24289 0.87768 0.13100
H 	H 	0.82239 0.99956 0.78470 0.12100
C 	C 	0.74939 0.12178 0.80161 0.76100
F 	F 	0.95600 0.97614 0.88340 -0.37900
F 	F 	0.00825 0.10981 0.91732 -0.35400
F 	F 	0.09802 0.07298 0.87918 -0.37200
F 	F 	0.74601 0.20780 0.80032 -0.49300
F 	F 	0.68816 0.06713 0.82718 -0.49300
F 	F 	0.72692 0.08159 0.76469 -0.40800
C 	C 	0.25948 0.99059 0.82268 0.06800
C 	C 	0.22414 0.05618 0.81553 0.10700
C 	C 	0.27253 0.14953 0.82796 -0.11400
C 	C 	0.35841 0.17521 0.84234 0.08800
C 	C 	0.39241 0.10892 0.84971 0.01300
C 	C 	0.33994 0.01476 0.84268 -0.06200
C 	C 	0.37090 0.94000 0.85460 0.79700
H 	H 	0.22753 0.92249 0.81026 0.17900
H 	H 	0.39761 0.24708 0.84993 0.09300
C 	C 	0.23194 0.22009 0.83115 0.80000
F 	F 	0.30187 0.85416 0.85371 -0.32800
F 	F 	0.40632 0.95674 0.89229 -0.37200
F 	F 	0.43362 0.93730 0.82908 -0.35300
F 	F 	0.22037 0.23584 0.87008 -0.34400
F 	F 	0.15257 0.19336 0.81152 -0.41300
F 	F 	0.28816 0.30255 0.81614 -0.37700
C 	C 	0.91941 0.64134 0.81476 0.08100
C 	C 	0.82917 0.61863 0.80949 0.00100
C 	C 	0.80100 0.68008 0.78895 -0.06900
C 	C 	0.86378 0.76814 0.77908 0.01600
C 	C 	0.95434 0.79289 0.78638 0.08300
C 	C 	0.98201 0.72936 0.80580 -0.11800
C 	C 	0.07633 0.75643 0.81955 0.80300
H 	H 	0.94087 0.59137 0.82761 0.10800
H 	H 	0.84219 0.81717 0.76535 0.09700
C 	C 	0.70527 0.65239 0.77676 0.77400
F 	F 	0.08871 0.68591 0.83883 -0.35500
F 	F 	0.09988 0.83076 0.84541 -0.38500
F 	F 	0.13026 0.77772 0.78793 -0.40000
F 	F 	0.65954 0.66593 0.80797 -0.37600
F 	F 	0.66798 0.56073 0.76451 -0.39300
F 	F 	0.69698 0.70459 0.74603 -0.36900
