data_crystal

_cell_length_a 18.11969
_cell_length_b 17.06891
_cell_length_c 44.98832
_cell_angle_alpha 90.77336
_cell_angle_beta  91.05980
_cell_angle_gamma 110.89928

_symmetry_space_group_name_	'P 1'
_symmetry_space_group_name_H-M	'P 1'

loop_
_symmetry_equiv_pos_as_xyz
  x,y,z

loop_
_atom_site_label
_atom_site_type_symbol
_atom_site_fract_x
_atom_site_fract_y
_atom_site_fract_z
_atom_site_charge
O 	O 	0.07994 0.90394 0.75377 -0.69400
Ni	Ni	0.10648 0.01293 0.77658 1.08800
O 	O 	0.11853 0.79845 0.70872 -0.38100
Ni	Ni	0.17813 0.89792 0.73838 1.07600
O 	O 	0.17968 0.99311 0.71125 -0.39200
O 	O 	0.19054 0.99884 0.80436 -0.38000
O 	O 	0.02112 0.02126 0.74823 -0.72300
O 	O 	0.10497 0.11580 0.80063 -0.36300
H 	H 	0.05334 0.85682 0.76685 0.16500
H 	H 	0.03840 0.07451 0.73731 0.16700
C 	C 	0.20657 0.07151 0.72149 0.24300
C 	C 	0.04773 0.78387 0.69668 0.29500
C 	C 	0.25637 0.99506 0.79389 0.31300
C 	C 	0.03683 0.11719 0.80981 0.27400
O 	O 	0.19167 0.09031 0.74904 -0.36000
O 	O 	0.26228 0.98321 0.76513 -0.39700
Ni	Ni	0.34641 0.76202 0.40899 1.10000
O 	O 	0.33886 0.67382 0.37617 -0.69900
Ni	Ni	0.22878 0.65489 0.36048 1.09800
O 	O 	0.43779 0.74918 0.43373 -0.35800
O 	O 	0.43909 0.62343 0.41696 -0.40200
Ni	Ni	0.33654 0.56605 0.39165 1.06800
O 	O 	0.33456 0.93721 0.40066 -0.39800
O 	O 	0.26547 0.57569 0.42508 -0.42400
O 	O 	0.22000 0.56050 0.33103 -0.38000
O 	O 	0.24329 0.75111 0.38991 -0.71200
O 	O 	0.34656 0.85292 0.43850 -0.37300
O 	O 	0.12320 0.65930 0.34495 -0.35600
O 	O 	0.17920 0.79882 0.33526 -0.40700
Ni	Ni	0.25853 0.85673 0.37007 1.06600
H 	H 	0.37833 0.69418 0.36047 0.16500
H 	H 	0.20083 0.73837 0.40462 0.15600
C 	C 	0.19170 0.56877 0.41961 0.27100
O 	O 	0.35021 0.85334 0.34495 -0.40800
C 	C 	0.44333 0.67600 0.43910 0.28900
C 	C 	0.22582 0.49034 0.34019 0.28600
C 	C 	0.11593 0.73141 0.33908 0.27500
O 	O 	0.16614 0.57086 0.39193 -0.36600
O 	O 	0.24273 0.48251 0.36838 -0.40600
Ni	Ni	0.37875 0.66612 0.11724 1.10400
O 	O 	0.28613 0.62210 0.08696 -0.69900
Ni	Ni	0.20555 0.65952 0.10636 1.09900
O 	O 	0.43454 0.58557 0.10480 -0.36500
O 	O 	0.31853 0.47670 0.10433 -0.41700
O 	O 	0.44397 0.75055 0.08643 -0.36600
Ni	Ni	0.23609 0.50245 0.07788 1.07400
O 	O 	0.14517 0.45896 0.10722 -0.39400
O 	O 	0.10570 0.59239 0.08131 -0.37600
O 	O 	0.30421 0.71850 0.13261 -0.70000
O 	O 	0.14509 0.72493 0.12739 -0.36000
O 	O 	0.24317 0.85010 0.11840 -0.39800
Ni	Ni	0.35215 0.83869 0.12671 1.07700
H 	H 	0.29985 0.65139 0.06790 0.15600
H 	H 	0.29470 0.70643 0.15396 0.17300
C 	C 	0.14378 0.49085 0.13385 0.30000
O 	O 	0.36164 0.82476 0.08223 -0.41400
C 	C 	0.39263 0.50822 0.09664 0.30900
C 	C 	0.10627 0.55508 0.05525 0.28900
C 	C 	0.41762 0.80162 0.07150 0.29000
C 	C 	0.17980 0.80604 0.13287 0.27900
O 	O 	0.17501 0.57204 0.13909 -0.38400
O 	O 	0.16389 0.52837 0.04801 -0.41700
O 	O 	0.06793 0.16907 0.24797 -0.37600
O 	O 	0.10414 0.02551 0.23955 -0.40300
O 	O 	0.02528 0.04617 0.20227 -0.35900
O 	O 	0.98230 0.95328 0.31695 -0.39800
Ni	Ni	0.03964 0.99221 0.27728 1.07600
O 	O 	0.06960 0.11187 0.29336 -0.41900
C 	C 	0.08959 0.17710 0.27615 0.29400
C 	C 	0.07192 0.00749 0.21236 0.23900
C 	C 	0.99266 0.31633 0.19386 -0.06000
C 	C 	0.07351 0.35502 0.20095 -0.01200
C 	C 	0.12304 0.41553 0.18227 0.00700
C 	C 	0.09159 0.43722 0.15608 -0.06100
C 	C 	0.01000 0.40226 0.14995 -0.01400
C 	C 	0.96041 0.34220 0.16871 0.01200
H 	H 	0.98545 0.42022 0.13012 0.05500
C 	C 	0.87697 0.30532 0.16143 0.08200
C 	C 	0.20642 0.45282 0.18960 0.08000
N 	N 	0.81012 0.27577 0.15560 -0.11600
N 	N 	0.27324 0.48272 0.19546 -0.11400
C 	C 	0.09710 0.95274 0.19209 -0.03400
C 	C 	0.16683 0.93769 0.19896 -0.02600
C 	C 	0.19032 0.88362 0.18105 0.01200
C 	C 	0.14711 0.84844 0.15479 -0.07500
C 	C 	0.07622 0.86068 0.14828 0.00600
C 	C 	0.04965 0.91058 0.16715 -0.01800
H 	H 	0.20223 0.96702 0.21854 0.05700
H 	H 	0.04177 0.83154 0.12847 0.04500
C 	C 	0.97235 0.91465 0.16147 0.10600
C 	C 	0.25610 0.86046 0.19070 0.04500
N 	N 	0.30845 0.84145 0.19852 -0.13100
N 	N 	0.39793 0.76678 0.28359 -0.11200
C 	C 	0.19480 0.41437 0.32097 -0.06500
C 	C 	0.23441 0.35716 0.32082 -0.01500
C 	C 	0.20237 0.28069 0.30513 0.00700
C 	C 	0.13008 0.26118 0.28921 -0.07400
C 	C 	0.09283 0.32020 0.28788 -0.01200
C 	C 	0.12357 0.39578 0.30410 0.00600
H 	H 	0.28971 0.37180 0.33328 0.02700
H 	H 	0.03786 0.30567 0.27521 0.02700
C 	C 	0.07923 0.45135 0.30457 0.08800
C 	C 	0.24456 0.22308 0.30512 0.07000
N 	N 	0.04350 0.49562 0.30487 -0.10200
N 	N 	0.27834 0.17693 0.30511 -0.12700
C 	C 	0.03713 0.73440 0.33252 -0.07600
C 	C 	0.99262 0.74745 0.35598 -0.00300
C 	C 	0.93384 0.78135 0.35031 -0.00000
C 	C 	0.92239 0.80522 0.32126 -0.06900
C 	C 	0.95223 0.77214 0.29756 -0.02400
C 	C 	0.01222 0.73979 0.30301 -0.00300
H 	H 	0.00777 0.73747 0.37870 0.02000
H 	H 	0.93782 0.78337 0.27488 0.02300
C 	C 	0.05075 0.71689 0.27832 0.07700
C 	C 	0.89197 0.80024 0.37472 0.08200
N 	N 	0.08167 0.69859 0.25854 -0.10700
N 	N 	0.85839 0.81541 0.39430 -0.10800
C 	C 	0.02131 0.48613 0.48833 0.01000
C 	C 	0.00326 0.52121 0.46245 -0.06000
C 	C 	0.05916 0.54930 0.44027 0.00900
C 	C 	0.15188 0.50747 0.46982 0.00800
C 	C 	0.09580 0.47959 0.49202 -0.05400
C 	C 	0.13371 0.54216 0.44367 -0.08000
H 	H 	0.04451 0.57684 0.42050 0.03500
H 	H 	0.20901 0.50136 0.47285 0.03700
H 	H 	0.11040 0.45310 0.51206 0.04900
C 	C 	0.44746 0.68078 0.49444 0.01100
C 	C 	0.47600 0.66272 0.52162 -0.05000
C 	C 	0.47867 0.66481 0.46766 -0.08000
H 	H 	0.39945 0.70461 0.49415 0.03500
H 	H 	0.44972 0.67246 0.54212 0.05300
C 	C 	0.26653 0.13595 0.70407 -0.05200
C 	C 	0.25894 0.13200 0.67295 -0.02100
C 	C 	0.32400 0.17321 0.65545 0.00600
C 	C 	0.39806 0.21865 0.66913 -0.06100
C 	C 	0.40343 0.23082 0.70004 -0.01600
C 	C 	0.33793 0.19091 0.71760 -0.00300
H 	H 	0.20319 0.09375 0.66235 0.04200
H 	H 	0.45929 0.26921 0.71054 0.03700
C 	C 	0.34419 0.20875 0.74919 0.09300
N 	N 	0.34952 0.22380 0.77446 -0.11100
C 	C 	0.11122 0.70663 0.65010 0.09100
N 	N 	0.17608 0.73726 0.64292 -0.11000
C 	C 	0.01308 0.60258 0.02583 0.00400
C 	C 	0.00649 0.45855 0.02037 0.00800
C 	C 	0.95207 0.44561 0.99680 -0.04800
C 	C 	0.03881 0.53770 0.03448 -0.07800
H 	H 	0.03756 0.66386 0.03662 0.03600
H 	H 	0.02524 0.40774 0.02716 0.03200
C 	C 	0.54122 0.88030 0.04518 0.02400
C 	C 	0.41434 0.85387 0.02035 0.02200
C 	C 	0.45211 0.90647 0.99739 -0.07000
C 	C 	0.45845 0.84237 0.04477 -0.08900
H 	H 	0.35054 0.82427 0.01964 0.02900
H 	H 	0.41722 0.91695 0.97910 0.06300
C 	C 	0.41500 0.47591 0.07018 -0.14000
C 	C 	0.39344 0.00467 0.80964 -0.02700
C 	C 	0.32983 0.03372 0.81186 -0.08100
C 	C 	0.33946 0.10618 0.82892 -0.00200
C 	C 	0.41241 0.15228 0.84236 0.00600
H 	H 	0.29104 0.12926 0.83044 0.05400
C 	C 	0.42227 0.23154 0.85683 0.07400
C 	C 	0.38371 0.92720 0.79387 0.10100
N 	N 	0.42942 0.29498 0.86831 -0.11700
N 	N 	0.37594 0.86514 0.78124 -0.12800
N 	N 	0.02466 0.69535 0.76153 -0.13700
Ni	Ni	0.62355 0.28172 0.90927 1.09900
O 	O 	0.63114 0.35783 0.87330 -0.69600
Ni	Ni	0.73940 0.36813 0.85941 1.09700
O 	O 	0.53127 0.30337 0.92847 -0.36300
O 	O 	0.53788 0.43025 0.91139 -0.38700
O 	O 	0.54187 0.18186 0.88684 -0.36600
Ni	Ni	0.63546 0.47190 0.88413 1.07300
O 	O 	0.63165 0.10283 0.90922 -0.40600
O 	O 	0.71012 0.47831 0.91927 -0.41500
O 	O 	0.74833 0.45124 0.82629 -0.38400
O 	O 	0.72543 0.28443 0.89275 -0.71100
O 	O 	0.62260 0.20213 0.94262 -0.38200
O 	O 	0.84331 0.35569 0.84708 -0.36100
O 	O 	0.78556 0.21329 0.84299 -0.41300
Ni	Ni	0.70788 0.17082 0.87776 1.06500
H 	H 	0.59098 0.33253 0.85738 0.16300
H 	H 	0.76865 0.30260 0.90798 0.16100
C 	C 	0.77967 0.47240 0.91548 0.28900
O 	O 	0.61715 0.16504 0.84913 -0.41500
C 	C 	0.53304 0.37966 0.93371 0.28800
C 	C 	0.74070 0.52379 0.83172 0.28500
C 	C 	0.54852 0.16238 0.85898 0.28300
C 	C 	0.84952 0.28132 0.84534 0.27500
C 	C 	0.62693 0.12780 0.93696 0.29100
O 	O 	0.80393 0.46326 0.88861 -0.36600
O 	O 	0.72709 0.54367 0.85900 -0.39500
Ni	Ni	0.59286 0.36398 0.61610 1.10300
O 	O 	0.67866 0.38931 0.58463 -0.69700
Ni	Ni	0.75261 0.33849 0.60254 1.09900
O 	O 	0.54992 0.45498 0.60305 -0.36500
O 	O 	0.67461 0.54909 0.60178 -0.41300
O 	O 	0.51482 0.28078 0.58638 -0.36900
Ni	Ni	0.73924 0.50357 0.57354 1.07500
O 	O 	0.48486 0.18800 0.63470 -0.40200
O 	O 	0.83851 0.53719 0.60071 -0.39200
O 	O 	0.84883 0.38544 0.57503 -0.37000
O 	O 	0.65885 0.29996 0.63082 -0.70000
O 	O 	0.50799 0.32613 0.64730 -0.36900
O 	O 	0.80381 0.26278 0.62309 -0.35500
O 	O 	0.69078 0.14723 0.61761 -0.40800
Ni	Ni	0.59388 0.18135 0.62661 1.06600
H 	H 	0.65700 0.35826 0.56586 0.15300
H 	H 	0.67532 0.31521 0.65186 0.16400
C 	C 	0.84095 0.51026 0.62775 0.30000
O 	O 	0.57809 0.18714 0.58199 -0.41500
C 	C 	0.59896 0.52917 0.59564 0.30500
C 	C 	0.84902 0.42627 0.54997 0.30800
C 	C 	0.53319 0.22528 0.57056 0.29000
C 	C 	0.76085 0.18534 0.63031 0.26900
C 	C 	0.47096 0.24517 0.65175 0.27400
O 	O 	0.80514 0.43082 0.63396 -0.37900
O 	O 	0.79246 0.45519 0.54309 -0.41900
Ni	Ni	0.00844 0.92457 0.72095 1.10600
O 	O 	0.02567 0.84623 0.68949 -0.36800
O 	O 	0.91236 0.82799 0.73669 -0.36400
O 	O 	0.85194 0.95654 0.72933 -0.39100
O 	O 	0.93399 0.95086 0.69178 -0.35500
O 	O 	0.97329 0.04899 0.80789 -0.41700
Ni	Ni	0.91991 0.00073 0.76706 1.05700
O 	O 	0.90815 0.88520 0.78248 -0.39500
C 	C 	0.89436 0.81924 0.76498 0.28300
C 	C 	0.87919 0.97712 0.70229 0.30700
O 	O 	0.42864 0.85342 0.38525 -0.36500
C 	C 	0.42076 0.86782 0.35694 0.29800
C 	C 	0.33949 0.92316 0.42941 0.28100
O 	O 	0.46747 0.85023 0.13488 -0.38900
O 	O 	0.46691 0.72036 0.14767 -0.36900
C 	C 	0.48995 0.80192 0.15309 0.27400
Ni	Ni	0.96199 0.08457 0.23214 1.10200
O 	O 	0.90160 0.11641 0.26603 -0.70200
Ni	Ni	0.86044 0.00370 0.28527 1.08600
O 	O 	0.95232 0.16898 0.20184 -0.36600
O 	O 	0.88729 0.24214 0.22638 -0.39300
Ni	Ni	0.81194 0.14109 0.25004 1.07100
O 	O 	0.80512 0.04846 0.22002 -0.45200
O 	O 	0.77664 0.02238 0.31118 -0.38500
O 	O 	0.94080 0.98578 0.25773 -0.68700
O 	O 	0.85069 0.89445 0.30650 -0.34800
H 	H 	0.93467 0.16080 0.28000 0.16100
H 	H 	0.91798 0.93317 0.24577 0.16800
C 	C 	0.76603 0.96960 0.22666 0.31400
C 	C 	0.94598 0.24036 0.20974 0.29500
C 	C 	0.71552 0.03545 0.29908 0.24500
C 	C 	0.91637 0.88781 0.31723 0.27400
O 	O 	0.77450 0.94076 0.25340 -0.36100
O 	O 	0.71701 0.05861 0.27114 -0.41000
H 	H 	0.09840 0.33562 0.22038 0.04900
C 	C 	0.55778 0.84178 0.17382 -0.04900
C 	C 	0.61498 0.80448 0.17813 -0.01600
C 	C 	0.68298 0.84500 0.19573 0.01700
C 	C 	0.69451 0.92390 0.20889 -0.08100
C 	C 	0.63656 0.95989 0.20533 0.04100
C 	C 	0.56810 0.91915 0.18827 -0.01500
H 	H 	0.60742 0.74490 0.16727 0.06100
H 	H 	0.64486 0.01998 0.21596 0.00400
C 	C 	0.50874 0.95727 0.18588 0.08100
C 	C 	0.74121 0.80595 0.19969 0.08100
N 	N 	0.46162 0.98833 0.18395 -0.12700
N 	N 	0.78787 0.77470 0.20290 -0.11200
N 	N 	0.91042 0.91780 0.15687 -0.10800
C 	C 	0.63777 0.99780 0.31300 0.02500
C 	C 	0.57729 0.93288 0.29788 -0.04500
C 	C 	0.50500 0.89161 0.31151 0.03200
C 	C 	0.49231 0.91617 0.34049 -0.10100
C 	C 	0.55168 0.98355 0.35504 0.08800
C 	C 	0.62427 0.02396 0.34157 -0.09500
H 	H 	0.58736 0.91294 0.27580 0.06700
H 	H 	0.54170 0.00374 0.37710 0.01200
C 	C 	0.68419 0.09278 0.35709 0.10000
C 	C 	0.44555 0.82230 0.29602 0.06800
N 	N 	0.73219 0.14792 0.36954 -0.12700
C 	C 	0.43245 0.11892 0.48742 0.03600
C 	C 	0.38720 0.14578 0.50724 -0.06800
C 	C 	0.42239 0.18972 0.53332 0.01800
C 	C 	0.36655 0.99407 0.44928 -0.04000
C 	C 	0.54912 0.18646 0.51843 0.01700
C 	C 	0.51432 0.14426 0.49212 -0.06800
C 	C 	0.39428 0.05248 0.46633 -0.01600
C 	C 	0.50218 0.20429 0.54000 -0.09300
H 	H 	0.32413 0.12849 0.50333 0.04800
H 	H 	0.38679 0.20819 0.54898 0.04800
H 	H 	0.61166 0.20098 0.52280 0.02500
H 	H 	0.55005 0.12573 0.47642 0.05200
C 	C 	0.91328 0.44210 0.52989 -0.09800
C 	C 	0.96409 0.46032 0.51152 0.04600
H 	H 	0.94600 0.52720 0.45958 0.05200
C 	C 	0.53640 0.62947 0.52216 0.00800
C 	C 	0.56999 0.61706 0.49552 -0.05400
C 	C 	0.54116 0.63444 0.46836 0.01300
C 	C 	0.57627 0.56961 0.57128 -0.13000
C 	C 	0.55784 0.59912 0.54944 0.04300
H 	H 	0.61691 0.59161 0.49580 0.03600
H 	H 	0.56670 0.62331 0.44787 0.03900
C 	C 	0.79724 0.13554 0.64788 -0.06800
C 	C 	0.79313 0.05663 0.63689 -0.00800
C 	C 	0.81787 0.00338 0.65468 -0.02200
C 	C 	0.84785 0.02938 0.68377 -0.09800
C 	C 	0.85265 0.10852 0.69467 -0.00800
C 	C 	0.82789 0.16179 0.67689 -0.00500
H 	H 	0.76933 0.03610 0.61464 0.03900
H 	H 	0.87645 0.12898 0.71693 0.01000
C 	C 	0.83246 0.24244 0.68884 0.07100
C 	C 	0.80964 0.92107 0.64327 0.12500
N 	N 	0.83612 0.30705 0.69841 -0.11200
N 	N 	0.80304 0.85513 0.63414 -0.10900
C 	C 	0.31402 0.16876 0.62351 0.08900
N 	N 	0.30541 0.16488 0.59793 -0.11400
C 	C 	0.00237 0.70014 0.68383 -0.06300
C 	C 	0.92419 0.65955 0.69265 -0.00200
C 	C 	0.87231 0.59215 0.67582 0.00800
C 	C 	0.89820 0.56575 0.64950 -0.06300
C 	C 	0.97804 0.60145 0.64203 0.00400
C 	C 	0.03026 0.66839 0.65906 0.00200
H 	H 	0.90243 0.68351 0.71165 0.05300
H 	H 	0.99866 0.57945 0.62223 0.05200
C 	C 	0.79154 0.55317 0.68492 0.08200
N 	N 	0.72684 0.52194 0.69222 -0.11800
C 	C 	0.92936 0.51153 0.98722 0.01000
C 	C 	0.95859 0.58955 0.00216 -0.04400
C 	C 	0.83354 0.48772 0.94037 -0.10500
C 	C 	0.87749 0.49941 0.96168 0.04300
H 	H 	0.94045 0.64051 0.99506 0.05200
H 	H 	0.92879 0.38481 0.98559 0.04500
C 	C 	0.53421 0.94822 0.99869 0.06000
C 	C 	0.57895 0.93344 0.02225 -0.07000
C 	C 	0.59872 0.06462 0.95903 -0.08000
C 	C 	0.57117 0.01136 0.97722 -0.00800
H 	H 	0.64252 0.96502 0.02331 0.06200
H 	H 	0.57593 0.87192 0.06391 0.04600
C 	C 	0.45538 0.43187 0.01830 0.00500
C 	C 	0.43307 0.46375 0.99248 -0.05400
C 	C 	0.45868 0.44737 0.96477 0.01200
C 	C 	0.52862 0.36662 0.98867 0.01000
C 	C 	0.50302 0.38317 0.01634 -0.05000
C 	C 	0.43345 0.45380 0.04687 0.04300
C 	C 	0.50673 0.39878 0.96274 -0.07900
H 	H 	0.39642 0.50179 0.99391 0.03800
H 	H 	0.44065 0.47183 0.94494 0.04000
H 	H 	0.56601 0.32937 0.98739 0.03500
H 	H 	0.52091 0.35886 0.03624 0.04800
C 	C 	0.92630 0.27488 0.83877 -0.06900
C 	C 	0.95154 0.28227 0.80934 -0.00500
C 	C 	0.00405 0.24365 0.80016 -0.01200
C 	C 	0.02926 0.19550 0.82043 -0.06800
C 	C 	0.01745 0.20393 0.85085 -0.01300
C 	C 	0.96509 0.24263 0.86011 -0.00000
H 	H 	0.92541 0.31179 0.79313 0.04500
H 	H 	0.04150 0.17195 0.86689 0.04100
C 	C 	0.94780 0.24453 0.89127 0.05100
C 	C 	0.02529 0.24637 0.76931 0.05500
N 	N 	0.93388 0.24611 0.91623 -0.13200
N 	N 	0.04226 0.24858 0.74458 -0.12200
C 	C 	0.47600 0.12300 0.84053 -0.07200
C 	C 	0.46613 0.04951 0.82391 -0.00100
H 	H 	0.51422 0.02584 0.82283 0.03200
C 	C 	0.77346 0.59196 0.81032 -0.06100
C 	C 	0.84694 0.60395 0.79783 -0.00500
C 	C 	0.88528 0.67531 0.78124 -0.00200
C 	C 	0.84912 0.73527 0.77651 -0.06200
C 	C 	0.77293 0.71995 0.78715 -0.00600
C 	C 	0.73506 0.64889 0.80406 0.00300
H 	H 	0.87605 0.55948 0.80213 0.05500
H 	H 	0.74423 0.76492 0.78313 0.04300
C 	C 	0.65672 0.63469 0.81471 0.06400
C 	C 	0.96269 0.68726 0.77019 0.07300
N 	N 	0.59395 0.62330 0.82325 -0.12700
