data_crystal

_cell_length_a 17.86673
_cell_length_b 19.67532
_cell_length_c 26.29453
_cell_angle_alpha 95.42548
_cell_angle_beta  95.42467
_cell_angle_gamma 126.40630

_symmetry_space_group_name_	'P 1'
_symmetry_space_group_name_H-M	'P 1'

loop_
_symmetry_equiv_pos_as_xyz
  x,y,z

loop_
_atom_site_label
_atom_site_type_symbol
_atom_site_fract_x
_atom_site_fract_y
_atom_site_fract_z
_atom_site_charge
C 	C 	0.88689 0.98310 0.99405 0.12600
N 	N 	0.82699 0.89583 0.98604 -0.12100
C 	C 	0.86004 0.85008 0.97650 0.12600
N 	N 	0.95252 0.89122 0.97402 -0.12500
C 	C 	0.01249 0.97816 0.98141 0.12700
N 	N 	0.97993 0.02430 0.99188 -0.12700
C 	C 	0.97336 0.04613 0.47200 0.12200
N 	N 	0.06676 0.09456 0.46951 -0.12800
C 	C 	0.11324 0.05957 0.47134 0.12600
N 	N 	0.06536 0.97519 0.47424 -0.13100
C 	C 	0.97133 0.92584 0.47552 0.12300
N 	N 	0.92527 0.96143 0.47417 -0.12900
Cu	Cu	0.60339 0.21393 0.00283 0.91000
Cu	Cu	0.66291 0.18486 0.89317 0.89800
Cu	Cu	0.62888 0.33004 0.92549 0.91700
Cu	Cu	0.55892 0.34679 0.02188 0.88100
C 	C 	0.61670 0.28824 0.10716 0.32700
O 	O 	0.46090 0.13731 0.99879 -0.31800
C 	C 	0.67377 0.29936 0.83032 0.33300
O 	O 	0.65162 0.34015 0.99932 -0.59200
O 	O 	0.58652 0.21020 0.92624 -0.61600
O 	O 	0.69407 0.18479 0.01148 -0.38500
O 	O 	0.63899 0.10025 0.93150 -0.40200
O 	O 	0.56003 0.30589 0.08823 -0.37300
O 	O 	0.67716 0.44810 0.92897 -0.34800
C 	C 	0.65497 0.48664 0.96108 0.28200
C 	C 	0.40862 0.15803 0.97814 0.27700
O 	O 	0.44988 0.23367 0.96512 -0.37200
O 	O 	0.58558 0.44273 0.98690 -0.36100
O 	O 	0.63157 0.24024 0.07779 -0.34400
C 	C 	0.68604 0.12454 0.97910 0.32300
O 	O 	0.62353 0.31904 0.85108 -0.35500
O 	O 	0.72354 0.28371 0.85972 -0.39500
H 	H 	0.71749 0.38779 0.01672 0.14700
H 	H 	0.51956 0.16752 0.90871 0.17300
Cu	Cu	0.68960 0.26995 0.50874 0.93400
Cu	Cu	0.80713 0.31292 0.41395 0.87500
Cu	Cu	0.72649 0.39721 0.43909 0.89600
Cu	Cu	0.68297 0.42468 0.54293 0.90600
C 	C 	0.69336 0.32225 0.61530 0.33400
O 	O 	0.54998 0.21805 0.49996 -0.33700
C 	C 	0.72315 0.34387 0.32918 0.33100
O 	O 	0.75995 0.40269 0.51295 -0.63600
O 	O 	0.69035 0.27983 0.43510 -0.64300
O 	O 	0.74416 0.20612 0.50935 -0.34100
O 	O 	0.86734 0.30839 0.47547 -0.42000
O 	O 	0.64971 0.35300 0.59774 -0.36700
O 	O 	0.75131 0.50927 0.44307 -0.35900
C 	C 	0.78198 0.56708 0.48561 0.28800
C 	C 	0.51465 0.25418 0.47910 0.28200
O 	O 	0.57081 0.33652 0.47688 -0.38500
O 	O 	0.75935 0.54392 0.53054 -0.37400
O 	O 	0.71251 0.28131 0.58301 -0.33900
C 	C 	0.82477 0.23702 0.49400 0.29600
O 	O 	0.71140 0.38962 0.36316 -0.35800
O 	O 	0.75652 0.30282 0.34389 -0.39400
H 	H 	0.82862 0.44331 0.52758 0.17400
H 	H 	0.63107 0.23492 0.41015 0.19800
C 	C 	0.63008 0.23419 0.68432 0.10700
C 	C 	0.69751 0.31369 0.67034 -0.10300
C 	C 	0.76013 0.38761 0.70925 0.10100
C 	C 	0.75195 0.38316 0.76177 0.11000
C 	C 	0.68289 0.30422 0.77553 -0.11200
C 	C 	0.62350 0.22940 0.73696 0.10300
Br	Br	0.53213 0.12059 0.75635 -0.23400
Br	Br	0.54374 0.13273 0.63119 -0.16900
Br	Br	0.83412 0.48534 0.81482 -0.17200
Br	Br	0.85704 0.49485 0.69037 -0.20600
C 	C 	0.59927 0.27721 0.24912 0.10400
C 	C 	0.69524 0.33588 0.27320 -0.10500
C 	C 	0.76522 0.38025 0.24290 0.10400
C 	C 	0.73951 0.36396 0.18839 0.10100
C 	C 	0.64376 0.30340 0.16413 -0.10500
C 	C 	0.57353 0.26013 0.19460 0.10600
Br	Br	0.44251 0.17527 0.16162 -0.18300
Br	Br	0.50323 0.21922 0.29092 -0.19600
Br	Br	0.83516 0.42552 0.14690 -0.21200
Br	Br	0.89613 0.46408 0.27629 -0.19800
C 	C 	0.91895 0.83299 0.47660 0.00200
C 	C 	0.93778 0.78481 0.44525 -0.03700
C 	C 	0.89439 0.69842 0.44802 0.02100
C 	C 	0.82806 0.65804 0.48109 -0.06600
C 	C 	0.80773 0.70580 0.51162 0.00700
C 	C 	0.85406 0.79310 0.51043 -0.02100
H 	H 	0.98768 0.81513 0.41929 0.06100
H 	H 	0.75672 0.67523 0.53698 0.05100
C 	C 	0.83774 0.84192 0.54583 0.10100
C 	C 	0.92171 0.65314 0.41858 0.08500
N 	N 	0.82464 0.88095 0.57420 -0.10500
N 	N 	0.94366 0.61694 0.39500 -0.10200
C 	C 	0.85757 0.18362 0.48788 -0.08200
C 	C 	0.88452 0.17336 0.44100 0.01100
C 	C 	0.91846 0.12529 0.43454 -0.02600
C 	C 	0.92590 0.08684 0.47534 0.00500
C 	C 	0.89606 0.09454 0.52160 -0.04100
C 	C 	0.86250 0.14308 0.52825 0.02900
H 	H 	0.87887 0.20277 0.40945 0.01800
H 	H 	0.90190 0.06509 0.55306 0.06600
C 	C 	0.83690 0.15365 0.57727 0.09600
C 	C 	0.94455 0.11493 0.38565 0.09800
N 	N 	0.81637 0.16211 0.61653 -0.08700
N 	N 	0.96549 0.10663 0.34651 -0.10400
C 	C 	0.21580 0.11312 0.47037 0.00300
C 	C 	0.25036 0.08083 0.43797 -0.03400
C 	C 	0.34785 0.12796 0.43881 0.02400
C 	C 	0.41172 0.20905 0.47174 -0.06400
C 	C 	0.37701 0.24291 0.50250 0.01100
C 	C 	0.27994 0.19498 0.50283 -0.02100
H 	H 	0.20136 0.01855 0.41247 0.06200
H 	H 	0.42618 0.30503 0.52815 0.04000
C 	C 	0.24759 0.22824 0.53874 0.10200
C 	C 	0.38170 0.09267 0.40576 0.09100
N 	N 	0.22172 0.25489 0.56751 -0.10300
N 	N 	0.40881 0.06435 0.37932 -0.09700
C 	C 	0.79762 0.75665 0.97251 0.03700
C 	C 	0.76055 0.70352 0.92335 -0.04000
C 	C 	0.71198 0.61476 0.91882 0.02000
C 	C 	0.70128 0.57888 0.96412 -0.02900
C 	C 	0.73516 0.63182 0.01320 -0.03100
C 	C 	0.78340 0.72038 0.01762 -0.05000
H 	H 	0.77093 0.73155 0.88863 0.06400
H 	H 	0.72578 0.60417 0.04803 0.04200
C 	C 	0.82072 0.77405 0.06867 0.09700
C 	C 	0.67163 0.56098 0.86770 0.10400
N 	N 	0.85072 0.81706 0.10954 -0.10400
N 	N 	0.63936 0.51794 0.82675 -0.09000
C 	C 	0.75030 0.10230 0.99119 -0.04700
C 	C 	0.73062 0.04586 0.02559 -0.01700
C 	C 	0.78017 0.01137 0.03009 -0.05700
C 	C 	0.84885 0.03223 0.99894 0.04100
C 	C 	0.87412 0.09461 0.96808 -0.04500
C 	C 	0.82574 0.13011 0.96434 0.02700
H 	H 	0.67496 0.02689 0.04774 0.05000
H 	H 	0.92893 0.11303 0.94538 0.06800
C 	C 	0.85354 0.19474 0.93263 0.05900
C 	C 	0.76150 0.95615 0.06739 0.10300
N 	N 	0.87587 0.24651 0.90724 -0.11300
N 	N 	0.74646 0.91193 0.09728 -0.10600
C 	C 	0.30401 0.10003 0.97335 -0.03200
C 	C 	0.24953 0.11254 0.93910 -0.00000
C 	C 	0.15490 0.07452 0.94204 -0.02500
C 	C 	0.11305 0.02205 0.97908 0.03900
C 	C 	0.16513 0.00481 0.01097 -0.07400
C 	C 	0.25946 0.04184 0.00771 -0.00800
H 	H 	0.28171 0.15384 0.91098 0.05400
H 	H 	0.13168 0.96159 0.03803 0.06700
C 	C 	0.30775 0.01628 0.03784 0.09800
C 	C 	0.10087 0.08868 0.90633 0.10200
N 	N 	0.34604 0.99536 0.06192 -0.09200
N 	N 	0.05759 0.10001 0.87773 -0.10400
