data_crystal

_cell_length_a 18.52106
_cell_length_b 17.82190
_cell_length_c 92.48443
_cell_angle_alpha 90.20150
_cell_angle_beta  89.79303
_cell_angle_gamma 120.02145

_symmetry_space_group_name_	'P 1'
_symmetry_space_group_name_H-M	'P 1'

loop_
_symmetry_equiv_pos_as_xyz
  x,y,z

loop_
_atom_site_label
_atom_site_type_symbol
_atom_site_fract_x
_atom_site_fract_y
_atom_site_fract_z
_atom_site_charge
C 	C 	0.38419 0.26175 0.00692 0.04200
O 	O 	0.94511 0.97218 0.99621 -0.36500
C 	C 	0.83402 0.51272 0.00330 -0.07900
C 	C 	0.85862 0.03623 0.99854 -0.07800
C 	C 	0.30304 0.22427 0.00115 0.04600
C 	C 	0.45104 0.28594 0.01248 -0.08700
C 	C 	0.79228 0.46104 0.01577 0.32200
C 	C 	0.81524 0.05973 0.00444 0.04400
C 	C 	0.52700 0.30838 0.01993 0.32200
O 	O 	0.71770 0.44841 0.01890 -0.38000
O 	O 	0.55321 0.25226 0.02001 -0.36900
O 	O 	0.55466 0.37094 0.02958 -0.37100
O 	O 	0.63000 0.14593 0.02799 -0.36400
C 	C 	0.69954 0.18317 0.02049 0.32800
O 	O 	0.74452 0.26746 0.01987 -0.38500
O 	O 	0.83556 0.44564 0.02539 -0.37400
C 	C 	0.76886 0.09547 0.01041 0.05000
C 	C 	0.73409 0.13234 0.01507 -0.09300
Ni	Ni	0.58290 0.21443 0.03925 1.11300
Ni	Ni	0.66937 0.42530 0.03894 1.12200
O 	O 	0.61852 0.17401 0.05757 -0.37000
O 	O 	0.77977 0.50374 0.04898 -0.37900
O 	O 	0.51249 0.25610 0.05107 -0.36800
O 	O 	0.60529 0.39763 0.05786 -0.37600
O 	O 	0.67840 0.32433 0.04199 -0.70900
H 	H 	0.68135 0.32619 0.05260 0.14600
Ni	Ni	0.78562 0.33900 0.03806 1.12200
O 	O 	0.75594 0.23082 0.05018 -0.37200
C 	C 	0.69781 0.20005 0.06051 0.28400
C 	C 	0.54468 0.31794 0.06108 0.28600
C 	C 	0.81221 0.47495 0.05882 0.28900
O 	O 	0.83394 0.41666 0.05537 -0.37700
C 	C 	0.71930 0.18547 0.07513 -0.08400
C 	C 	0.50675 0.29987 0.07557 -0.08600
C 	C 	0.50279 0.36506 0.08352 0.02000
H 	H 	0.52787 0.42954 0.07907 0.03800
C 	C 	0.76873 0.14700 0.07711 0.02200
H 	H 	0.79513 0.13164 0.06787 0.04200
C 	C 	0.82752 0.51048 0.07365 -0.08300
C 	C 	0.83764 0.59280 0.07643 0.02100
H 	H 	0.83696 0.63241 0.06763 0.04100
C 	C 	0.68550 0.20498 0.08721 0.01700
H 	H 	0.64848 0.23605 0.08582 0.02900
C 	C 	0.47398 0.21668 0.08150 0.01600
C 	C 	0.46492 0.34650 0.09715 -0.07200
H 	H 	0.47800 0.16630 0.07559 0.03300
C 	C 	0.82893 0.46025 0.08522 0.02000
H 	H 	0.82019 0.39625 0.08327 0.03800
C 	C 	0.78175 0.12556 0.09105 -0.06800
H 	H 	0.81872 0.09447 0.09248 0.05800
C 	C 	0.84891 0.62428 0.09062 -0.06800
H 	H 	0.85647 0.68772 0.09268 0.05500
C 	C 	0.39054 0.24285 0.11677 -0.03100
C 	C 	0.43136 0.26301 0.10293 0.04500
C 	C 	0.43653 0.19844 0.09512 -0.07100
H 	H 	0.41122 0.13393 0.09959 0.05100
H 	H 	0.46127 0.39680 0.10317 0.05100
C 	C 	0.84004 0.49177 0.09936 -0.06800
H 	H 	0.84035 0.45214 0.10820 0.05500
C 	C 	0.75568 0.11738 0.11735 -0.02600
C 	C 	0.74585 0.14297 0.10305 0.04700
C 	C 	0.69878 0.18386 0.10110 -0.07000
H 	H 	0.67163 0.19839 0.11033 0.05200
C 	C 	0.85940 0.60482 0.11677 -0.02600
C 	C 	0.84992 0.57368 0.10211 0.04900
C 	C 	0.31446 0.19676 0.14171 -0.00100
C 	C 	0.35568 0.22302 0.12830 -0.00200
C 	C 	0.77073 0.07421 0.14374 0.00500
C 	C 	0.76278 0.09682 0.12945 0.00400
C 	C 	0.87425 0.65567 0.14373 0.00100
C 	C 	0.86665 0.62902 0.12915 0.00700
C 	C 	0.16668 0.15650 0.18763 0.01800
H 	H 	0.02848 0.80540 0.19775 0.00300
C 	C 	0.22861 0.06401 0.17256 -0.07500
C 	C 	0.23742 0.14061 0.16676 0.04600
C 	C 	0.20595 0.18651 0.17426 -0.07400
C 	C 	0.27918 0.17212 0.15314 -0.03200
H 	H 	0.25251 0.02803 0.16676 0.05100
H 	H 	0.21203 0.24547 0.16976 0.04900
C 	C 	0.78784 0.09101 0.18199 -0.06800
C 	C 	0.78689 0.03717 0.17083 0.05000
C 	C 	0.80179 0.96918 0.17396 -0.07000
C 	C 	0.82289 0.95868 0.18803 0.01400
C 	C 	0.77816 0.05666 0.15603 -0.02500
H 	H 	0.77539 0.14305 0.17969 0.05600
H 	H 	0.80027 0.92665 0.16542 0.05400
C 	C 	0.81320 0.68779 0.17861 -0.06600
C 	C 	0.88524 0.70310 0.17115 0.03400
C 	C 	0.96256 0.74424 0.17819 -0.03000
C 	C 	0.96810 0.77174 0.19254 0.05100
C 	C 	0.87982 0.67749 0.15622 -0.01500
H 	H 	0.75314 0.65546 0.17327 0.05100
H 	H 	0.01851 0.75600 0.17250 0.01500
H 	H 	0.14212 0.19223 0.19331 0.02800
C 	C 	0.15910 0.08050 0.19363 -0.08900
C 	C 	0.18955 0.03390 0.18593 0.02400
C 	C 	0.82949 0.01633 0.19901 -0.07700
C 	C 	0.80917 0.08070 0.19604 0.02300
H 	H 	0.83855 0.90880 0.19021 0.03300
C 	C 	0.89625 0.75858 0.19993 -0.09100
C 	C 	0.81856 0.71528 0.19294 0.02000
C 	C 	0.12050 0.05062 0.20798 0.28800
O 	O 	0.09553 0.96941 0.21191 -0.39300
O 	O 	0.95153 0.08509 0.21391 -0.35400
H 	H 	0.18400 0.97507 0.19036 0.03100
C 	C 	0.87353 0.02082 0.21240 0.28500
C 	C 	0.90354 0.79801 0.21431 0.29300
O 	O 	0.84718 0.81907 0.21837 -0.38300
H 	H 	0.81392 0.12541 0.20445 0.04100
H 	H 	0.76251 0.70403 0.19853 0.03900
O 	O 	0.12486 0.10901 0.21750 -0.37400
H 	H 	0.97109 0.96445 0.21924 0.14900
O 	O 	0.96273 0.80634 0.22336 -0.36100
O 	O 	0.83073 0.97108 0.22355 -0.37400
C 	C 	0.15687 0.08388 0.24862 0.32400
Ni	Ni	0.02661 0.09196 0.23108 1.09700
Ni	Ni	0.04952 0.92227 0.23182 1.11000
O 	O 	0.09709 0.10299 0.24919 -0.38300
O 	O 	0.15495 0.02839 0.23902 -0.37600
O 	O 	0.97915 0.97116 0.22976 -0.69500
C 	C 	0.37865 0.22498 0.26864 0.03900
C 	C 	0.30039 0.18062 0.26177 0.04400
C 	C 	0.23377 0.13816 0.25598 -0.09300
C 	C 	0.88509 0.04380 0.25262 0.32700
C 	C 	0.94202 0.83603 0.25697 0.35800
Ni	Ni	0.86638 0.89763 0.23533 1.12200
O 	O 	0.87931 0.81300 0.24797 -0.38400
O 	O 	0.93948 0.10381 0.24390 -0.35200
O 	O 	0.87825 0.96726 0.25332 -0.38300
O 	O 	0.01951 0.88422 0.25252 -0.41600
O 	O 	0.59008 0.34696 0.27928 -0.36500
C 	C 	0.44363 0.25667 0.27512 -0.08400
C 	C 	0.92645 0.78946 0.27036 -0.08800
C 	C 	0.72811 0.10815 0.27216 0.04700
C 	C 	0.77886 0.07801 0.26605 0.04900
C 	C 	0.82646 0.05976 0.26025 -0.08800
C 	C 	0.51579 0.28491 0.28402 0.31100
C 	C 	0.69250 0.14422 0.27678 -0.08100
C 	C 	0.90718 0.74397 0.28095 0.05500
C 	C 	0.66380 0.20159 0.28144 0.32400
Ni	Ni	0.70451 0.37892 0.28759 1.12400
O 	O 	0.71486 0.48577 0.29677 -0.38200
O 	O 	0.58930 0.17085 0.28729 -0.38300
O 	O 	0.50374 0.25727 0.29747 -0.38900
O 	O 	0.70564 0.28199 0.27705 -0.38000
C 	C 	0.77835 0.53413 0.30515 0.31200
O 	O 	0.83122 0.43015 0.29106 -0.35700
C 	C 	0.87480 0.68114 0.29205 0.04400
C 	C 	0.83665 0.61825 0.29962 -0.08100
Ni	Ni	0.57332 0.21407 0.30661 1.12000
O 	O 	0.66405 0.32902 0.30635 -0.70700
H 	H 	0.63291 0.35908 0.30845 0.16100
C 	C 	0.86215 0.39820 0.30050 0.29900
O 	O 	0.80093 0.49917 0.31576 -0.35600
O 	O 	0.81160 0.33814 0.30926 -0.37200
C 	C 	0.94569 0.45139 0.30569 -0.03300
C 	C 	0.11608 0.53854 0.33406 -0.10400
C 	C 	0.07043 0.51833 0.32372 0.06000
C 	C 	0.66431 0.17443 0.32756 0.33300
C 	C 	0.56735 0.31488 0.33263 0.29800
Ni	Ni	0.73851 0.36624 0.32231 1.11400
O 	O 	0.69833 0.25044 0.33388 -0.36100
O 	O 	0.64574 0.16839 0.31399 -0.39000
O 	O 	0.64741 0.37307 0.33415 -0.36100
O 	O 	0.54248 0.23613 0.32709 -0.36700
C 	C 	0.50758 0.33800 0.33755 -0.08100
C 	C 	0.46757 0.36999 0.34186 0.03900
C 	C 	0.00799 0.48691 0.31295 -0.02300
C 	C 	0.16356 0.55727 0.34719 0.32400
C 	C 	0.37672 0.51713 0.35824 0.32500
C 	C 	0.41135 0.79243 0.35726 0.32200
O 	O 	0.34553 0.79105 0.36307 -0.37600
O 	O 	0.14098 0.49552 0.35688 -0.37000
O 	O 	0.21772 0.63826 0.35038 -0.37800
O 	O 	0.30096 0.50087 0.35562 -0.37900
O 	O 	0.42213 0.57206 0.36848 -0.37100
O 	O 	0.42446 0.72692 0.35880 -0.38400
C 	C 	0.43054 0.41729 0.34714 0.04700
C 	C 	0.40443 0.46211 0.35196 -0.09200
C 	C 	0.47679 0.87322 0.35169 -0.08600
C 	C 	0.52824 0.94362 0.34726 0.03900
C 	C 	0.58329 0.02696 0.34170 0.05100
C 	C 	0.62446 0.09665 0.33602 -0.09700
Ni	Ni	0.22170 0.49166 0.37216 1.11300
Ni	Ni	0.24320 0.68527 0.37091 1.12100
Ni	Ni	0.40228 0.66475 0.37771 1.12200
O 	O 	0.29033 0.46584 0.38754 -0.36900
O 	O 	0.38921 0.60072 0.39642 -0.37700
O 	O 	0.41020 0.76751 0.38876 -0.37900
O 	O 	0.27518 0.74272 0.39041 -0.38200
O 	O 	0.13293 0.47941 0.38717 -0.37100
O 	O 	0.12681 0.59650 0.37823 -0.37700
O 	O 	0.28426 0.61037 0.37648 -0.71100
H 	H 	0.27186 0.60687 0.38688 0.14300
C 	C 	0.33147 0.51839 0.39855 0.28400
C 	C 	0.11476 0.54190 0.38894 0.29100
C 	C 	0.34798 0.76433 0.39648 0.28800
C 	C 	0.32994 0.40966 0.41571 0.02000
C 	C 	0.32184 0.48280 0.41322 -0.08500
C 	C 	0.31740 0.53008 0.42503 0.01600
H 	H 	0.33375 0.37281 0.40670 0.03900
H 	H 	0.31125 0.58670 0.42325 0.02800
C 	C 	0.32334 0.84086 0.41685 0.02100
C 	C 	0.36469 0.79904 0.41128 -0.08400
C 	C 	0.42297 0.79132 0.41987 0.01700
H 	H 	0.27772 0.84666 0.41038 0.03900
H 	H 	0.45370 0.75728 0.41583 0.03700
C 	C 	0.09079 0.55673 0.40345 -0.09900
C 	C 	0.03938 0.59334 0.40516 0.03700
C 	C 	0.11989 0.53406 0.41575 0.02800
H 	H 	0.01676 0.61152 0.39578 0.02800
H 	H 	0.15985 0.50625 0.41460 0.02900
C 	C 	0.01537 0.60445 0.41905 -0.11100
C 	C 	0.04344 0.57995 0.43125 0.07500
C 	C 	0.01342 0.58348 0.44551 -0.07400
H 	H 	0.97412 0.63076 0.42029 0.07900
C 	C 	0.36082 0.42408 0.45586 -0.02800
C 	C 	0.33813 0.43741 0.44158 0.04500
C 	C 	0.33852 0.38729 0.42987 -0.07000
C 	C 	0.32495 0.50712 0.43913 -0.07000
H 	H 	0.34838 0.33303 0.43168 0.05300
H 	H 	0.32408 0.54586 0.44812 0.05000
C 	C 	0.42817 0.91668 0.45259 -0.02400
C 	C 	0.40293 0.87230 0.43899 0.04400
C 	C 	0.34264 0.87755 0.43066 -0.07000
C 	C 	0.44206 0.82796 0.43367 -0.06900
H 	H 	0.31185 0.91140 0.43476 0.05100
H 	H 	0.48818 0.82302 0.44014 0.05300
C 	C 	0.09684 0.54621 0.42954 -0.08600
H 	H 	0.11918 0.52763 0.43892 0.05400
C 	C 	0.99151 0.58387 0.45780 0.04600
C 	C 	0.43606 0.41366 0.49390 -0.02900
C 	C 	0.40995 0.41362 0.48195 0.00100
C 	C 	0.38219 0.41727 0.46788 0.00100
H 	H 	0.58806 0.43764 0.49968 0.05200
C 	C 	0.52689 0.08614 0.50164 0.05000
C 	C 	0.49968 0.03934 0.48827 -0.03100
C 	C 	0.47681 0.00022 0.47705 0.01300
C 	C 	0.45027 0.95484 0.46390 -0.00900
H 	H 	0.47945 0.17181 0.49665 0.05300
C 	C 	0.96770 0.57951 0.47244 -0.01400
C 	C 	0.94867 0.57167 0.48507 -0.01500
C 	C 	0.92719 0.55724 0.50020 0.04100
H 	H 	0.84991 0.61643 0.49990 0.05200
C 	C 	0.54057 0.43154 0.53546 -0.08900
C 	C 	0.58684 0.43920 0.52293 0.01900
C 	C 	0.55141 0.43062 0.50927 -0.07300
C 	C 	0.46941 0.41418 0.50800 0.04600
C 	C 	0.42217 0.40414 0.52049 -0.07100
C 	C 	0.45753 0.41244 0.53419 0.02100
H 	H 	0.64988 0.45069 0.52378 0.02800
H 	H 	0.35864 0.39127 0.51959 0.05200
H 	H 	0.42092 0.40554 0.54378 0.03700
C 	C 	0.57435 0.17321 0.52821 -0.08200
C 	C 	0.53445 0.19698 0.51780 0.01900
C 	C 	0.51085 0.15355 0.50457 -0.07000
C 	C 	0.56805 0.06329 0.51186 -0.07000
C 	C 	0.59182 0.10666 0.52511 0.02200
H 	H 	0.52114 0.24856 0.52002 0.03700
H 	H 	0.58083 0.01132 0.50961 0.05600
H 	H 	0.62227 0.08737 0.53304 0.04200
C 	C 	0.87195 0.58099 0.50626 -0.06500
C 	C 	0.84272 0.55622 0.52043 0.01300
C 	C 	0.86740 0.50618 0.52847 -0.07900
C 	C 	0.92604 0.48655 0.52263 0.02200
C 	C 	0.95594 0.51218 0.50857 -0.06600
H 	H 	0.79849 0.57293 0.52493 0.03200
H 	H 	0.94650 0.44911 0.52882 0.04000
H 	H 	0.99928 0.49436 0.50402 0.05500
C 	C 	0.04312 0.94161 0.73464 0.27900
C 	C 	0.04268 0.87040 0.69514 0.28800
C 	C 	0.09802 0.19052 0.72252 0.31100
C 	C 	0.09956 0.13421 0.68118 0.29900
Ni	Ni	0.10688 0.04883 0.70809 1.12100
O 	O 	0.14267 0.17170 0.71375 -0.38700
O 	O 	0.09023 0.02050 0.72955 -0.37400
O 	O 	0.05635 0.16213 0.68883 -0.37600
O 	O 	0.13014 0.08831 0.68728 -0.37200
O 	O 	0.96163 0.84251 0.69629 -0.35400
O 	O 	0.09791 0.93176 0.70381 -0.37900
O 	O 	0.01949 0.16398 0.71965 -0.39800
C 	C 	0.05323 0.92235 0.74982 -0.11600
C 	C 	0.99287 0.84468 0.75632 0.08100
C 	C 	0.00411 0.82485 0.77046 -0.13700
C 	C 	0.07535 0.88250 0.77825 0.07800
C 	C 	0.12360 0.98103 0.75783 0.02200
C 	C 	0.08989 0.85925 0.79242 -0.04900
H 	H 	0.95785 0.76423 0.77528 0.08200
C 	C 	0.13732 0.24616 0.73520 -0.09300
C 	C 	0.10891 0.30137 0.74021 0.02400
C 	C 	0.13708 0.34447 0.75342 -0.07400
C 	C 	0.19372 0.33273 0.76172 0.04800
H 	H 	0.11310 0.38511 0.75737 0.05200
C 	C 	0.13483 0.17727 0.66770 -0.07600
C 	C 	0.06870 0.81807 0.68741 -0.08100
C 	C 	0.15634 0.63602 0.60378 -0.08900
C 	C 	0.08571 0.60401 0.59942 0.04800
C 	C 	0.60453 0.42157 0.59175 0.31900
C 	C 	0.57912 0.44229 0.54979 0.28800
C 	C 	0.62189 0.18639 0.58212 0.32700
C 	C 	0.59509 0.21594 0.54243 0.28900
Ni	Ni	0.73019 0.48833 0.56745 1.11300
Ni	Ni	0.56378 0.29641 0.56769 1.12300
Ni	Ni	0.74224 0.31403 0.56206 1.12200
O 	O 	0.56082 0.18883 0.57528 -0.37700
O 	O 	0.64228 0.48359 0.58213 -0.36700
O 	O 	0.57921 0.34048 0.58837 -0.37400
O 	O 	0.65326 0.21281 0.55043 -0.37900
O 	O 	0.54484 0.24174 0.54803 -0.38000
O 	O 	0.65833 0.50232 0.55163 -0.37000
O 	O 	0.53655 0.38765 0.56039 -0.37400
O 	O 	0.69969 0.24932 0.58075 -0.38200
O 	O 	0.67827 0.37016 0.56281 -0.71400
H 	H 	0.67221 0.37485 0.55235 0.14500
C 	C 	0.24229 0.43870 0.63466 0.31300
C 	C 	0.47211 0.80339 0.61380 0.32700
C 	C 	0.45627 0.57687 0.63955 0.32100
C 	C 	0.23853 0.65980 0.60865 0.30000
C 	C 	0.44291 0.76848 0.65980 0.32300
C 	C 	0.21429 0.68164 0.65753 0.31100
Ni	Ni	0.36258 0.61029 0.61825 1.11300
Ni	Ni	0.34016 0.75785 0.63488 1.12000
Ni	Ni	0.31523 0.59115 0.65300 1.12400
O 	O 	0.29899 0.47642 0.62415 -0.36200
O 	O 	0.22424 0.48460 0.64351 -0.38300
O 	O 	0.39708 0.79881 0.65426 -0.38400
O 	O 	0.43270 0.72821 0.60721 -0.36600
O 	O 	0.45741 0.80912 0.62735 -0.38900
O 	O 	0.22968 0.61940 0.66176 -0.36700
O 	O 	0.46282 0.63786 0.63112 -0.38200
O 	O 	0.39445 0.54273 0.64901 -0.36500
O 	O 	0.22863 0.71156 0.64420 -0.39000
O 	O 	0.26418 0.60313 0.60670 -0.36500
O 	O 	0.28828 0.73799 0.61447 -0.36800
O 	O 	0.40843 0.68746 0.66381 -0.38200
O 	O 	0.32261 0.64379 0.63455 -0.70700
H 	H 	0.26254 0.61300 0.63248 0.16000
C 	C 	0.13455 0.96101 0.77198 -0.10700
H 	H 	0.18968 0.00603 0.77797 0.07200
H 	H 	0.17046 0.04143 0.75306 0.04300
C 	C 	0.22494 0.28063 0.75647 -0.07300
C 	C 	0.19709 0.23769 0.74323 0.02500
C 	C 	0.21437 0.36840 0.77607 -0.03000
H 	H 	0.26895 0.27145 0.76283 0.05400
H 	H 	0.21955 0.19534 0.73948 0.03300
C 	C 	0.73883 0.02833 0.78256 -0.02900
C 	C 	0.72072 0.01691 0.75616 -0.05100
H 	H 	0.65570 0.99833 0.75746 0.03900
H 	H 	0.70792 0.98583 0.73347 0.02600
C 	C 	0.67579 0.89638 0.67562 0.03700
C 	C 	0.59592 0.86379 0.66947 0.04700
C 	C 	0.52601 0.82651 0.66472 -0.08500
C 	C 	0.16327 0.22284 0.65719 0.03800
C 	C 	0.19463 0.28782 0.64644 0.04500
C 	C 	0.21872 0.35291 0.63940 -0.08700
C 	C 	0.09572 0.77780 0.68119 0.03500
C 	C 	0.13272 0.73632 0.67375 0.04200
C 	C 	0.16826 0.70714 0.66683 -0.08700
C 	C 	0.57562 0.44030 0.60498 -0.08400
C 	C 	0.54980 0.46015 0.61545 0.04000
C 	C 	0.51781 0.49077 0.62643 0.04500
C 	C 	0.48950 0.52529 0.63394 -0.09700
C 	C 	0.60431 0.10606 0.58867 -0.09300
C 	C 	0.58198 0.03555 0.59377 0.06200
C 	C 	0.54866 0.95197 0.59981 0.02600
C 	C 	0.51554 0.88202 0.60561 -0.08900
O 	O 	0.99151 0.87848 0.72609 -0.35600
C 	C 	0.82441 0.46514 0.54205 0.28400
C 	C 	0.85514 0.45860 0.58232 0.31600
O 	O 	0.82882 0.51535 0.55312 -0.36600
O 	O 	0.79631 0.38077 0.54372 -0.37500
O 	O 	0.79513 0.47580 0.58451 -0.37400
O 	O 	0.84939 0.40425 0.57208 -0.36800
C 	C 	0.81754 0.93902 0.68878 0.29100
C 	C 	0.85802 0.99983 0.72796 0.27400
Ni	Ni	0.91418 0.89304 0.71148 1.11200
Ni	Ni	0.95993 0.08948 0.70252 1.12800
O 	O 	0.81685 0.88157 0.69813 -0.35900
O 	O 	0.88466 0.01539 0.68638 -0.36100
O 	O 	0.87037 0.93366 0.72875 -0.37200
O 	O 	0.85728 0.03318 0.71538 -0.36100
O 	O 	0.99131 0.00390 0.70466 -0.69500
H 	H 	0.98977 0.98820 0.69440 0.14100
H 	H 	0.93746 0.79952 0.75042 0.02500
H 	H 	0.06360 0.30936 0.73404 0.03500
C 	C 	0.77362 0.04224 0.76821 0.04700
C 	C 	0.75029 0.00984 0.74257 0.03100
C 	C 	0.83273 0.02762 0.74102 -0.06600
C 	C 	0.88724 0.05956 0.75284 0.01900
C 	C 	0.85779 0.06703 0.76639 -0.06300
H 	H 	0.95139 0.07462 0.75168 0.04600
H 	H 	0.89932 0.08756 0.77562 0.06000
C 	C 	0.74170 0.91781 0.68136 -0.07900
C 	C 	0.00353 0.55713 0.59400 0.01900
C 	C 	0.93481 0.51288 0.58896 -0.06500
C 	C 	0.17309 0.13536 0.94660 0.33000
C 	C 	0.16054 0.91366 0.97366 0.32500
C 	C 	0.15038 0.11759 0.99243 0.32700
Ni	Ni	0.04219 0.09420 0.96772 1.11200
Ni	Ni	0.02520 0.93677 0.98720 1.11000
O 	O 	0.09828 0.14013 0.98701 -0.39400
O 	O 	0.13424 0.05844 0.94053 -0.36400
O 	O 	0.15913 0.14426 0.96007 -0.38900
O 	O 	0.16683 0.97293 0.96485 -0.38600
O 	O 	0.10083 0.88388 0.98349 -0.37900
O 	O 	0.12451 0.03716 0.99604 -0.38300
C 	C 	0.21518 0.21194 0.93786 -0.09900
C 	C 	0.18949 0.85797 0.96820 -0.10700
C 	C 	0.28792 0.74330 0.92540 0.29800
C 	C 	0.50861 0.81160 0.87501 0.31000
C 	C 	0.26968 0.77021 0.88322 0.30800
C 	C 	0.55802 0.80256 0.91451 0.30800
C 	C 	0.30231 0.56926 0.87350 0.30800
C 	C 	0.32370 0.51302 0.91279 0.30400
Ni	Ni	0.42020 0.82164 0.90140 1.11400
Ni	Ni	0.44133 0.65556 0.89380 1.12200
Ni	Ni	0.25924 0.62658 0.90028 1.12200
O 	O 	0.32861 0.80894 0.91624 -0.36400
O 	O 	0.25119 0.66130 0.92092 -0.37200
O 	O 	0.35475 0.55885 0.88161 -0.38600
O 	O 	0.51784 0.85620 0.88687 -0.37700
O 	O 	0.47380 0.72678 0.87540 -0.38800
O 	O 	0.26129 0.51812 0.90658 -0.37400
O 	O 	0.34999 0.82416 0.88419 -0.37800
O 	O 	0.22952 0.71664 0.89385 -0.38000
O 	O 	0.40359 0.57112 0.91039 -0.37700
O 	O 	0.50260 0.82741 0.91701 -0.37400
O 	O 	0.54886 0.74711 0.90391 -0.36700
O 	O 	0.25322 0.59470 0.87930 -0.39200
O 	O 	0.37664 0.70146 0.90147 -0.72200
H 	H 	0.38396 0.69341 0.91178 0.15600
C 	C 	0.23256 0.18189 0.99682 -0.08900
C 	C 	0.78889 0.93588 0.93202 0.03800
C 	C 	0.70721 0.89181 0.92635 0.04400
C 	C 	0.63841 0.85108 0.92119 -0.08300
C 	C 	0.30365 0.43260 0.91962 -0.07900
C 	C 	0.28057 0.36275 0.92506 0.03500
C 	C 	0.24750 0.28046 0.93161 0.04800
C 	C 	0.21355 0.81919 0.96075 0.04400
C 	C 	0.24058 0.78396 0.94971 0.03000
C 	C 	0.26262 0.76173 0.93903 -0.08100
C 	C 	0.10289 0.84068 0.80428 0.00600
C 	C 	0.12043 0.81941 0.81803 -0.00700
C 	C 	0.13786 0.80197 0.82962 -0.02900
C 	C 	0.16219 0.78234 0.84325 0.04500
C 	C 	0.13163 0.79629 0.85628 -0.07300
C 	C 	0.16337 0.78750 0.86950 0.02200
C 	C 	0.22633 0.76558 0.86970 -0.09200
C 	C 	0.25416 0.74813 0.85667 0.02500
C 	C 	0.22193 0.75607 0.84351 -0.07300
H 	H 	0.08508 0.81615 0.85617 0.05000
H 	H 	0.14135 0.80091 0.87951 0.03200
H 	H 	0.30224 0.73048 0.85674 0.03400
H 	H 	0.24528 0.74437 0.83349 0.05100
C 	C 	0.23082 0.39886 0.78806 0.00100
C 	C 	0.24752 0.43309 0.80220 0.00100
C 	C 	0.25988 0.46108 0.81436 -0.02900
C 	C 	0.27261 0.49296 0.82898 0.04700
C 	C 	0.20982 0.50066 0.83611 -0.07300
C 	C 	0.21945 0.52578 0.85063 0.02100
C 	C 	0.29218 0.54336 0.85813 -0.09100
C 	C 	0.35596 0.53774 0.85081 0.02300
C 	C 	0.34600 0.51236 0.83630 -0.07300
H 	H 	0.15307 0.48616 0.83048 0.05100
H 	H 	0.17007 0.53074 0.85605 0.03700
H 	H 	0.41326 0.55318 0.85633 0.03600
H 	H 	0.39505 0.50709 0.83080 0.05400
C 	C 	0.53878 0.85658 0.86107 -0.09400
C 	C 	0.49719 0.81541 0.84825 0.02600
C 	C 	0.52977 0.85363 0.83487 -0.07500
C 	C 	0.60445 0.93298 0.83415 0.05200
C 	C 	0.64449 0.97608 0.84693 -0.09300
C 	C 	0.61160 0.93814 0.86038 0.03200
C 	C 	0.64401 0.96512 0.82035 -0.02200
C 	C 	0.67459 0.98922 0.80855 -0.02100
C 	C 	0.70949 0.01254 0.79457 0.03000
H 	H 	0.44060 0.75284 0.84863 0.03300
H 	H 	0.49830 0.82016 0.82504 0.05200
H 	H 	0.70222 0.03760 0.84646 0.07500
H 	H 	0.64420 0.97072 0.87018 0.03600
O 	O 	0.02658 0.98109 0.96826 -0.74700
C 	C 	0.94612 0.77778 0.97042 0.34800
C 	C 	0.93995 0.99009 0.94204 0.28100
C 	C 	0.91330 0.01763 0.99023 0.32500
Ni	Ni	0.06472 0.94329 0.95234 1.10500
O 	O 	0.00019 0.81149 0.95940 -0.39400
O 	O 	0.93115 0.82688 0.97912 -0.38000
O 	O 	0.92993 0.04688 0.97684 -0.37400
O 	O 	0.96519 0.93279 0.94069 -0.34600
O 	O 	0.99017 0.06956 0.94731 -0.33600
H 	H 	0.96625 0.94866 0.96642 0.18700
C 	C 	0.86504 0.56187 0.99328 0.04600
C 	C 	0.89733 0.62798 0.98275 0.05400
C 	C 	0.92164 0.69266 0.97561 -0.08700
C 	C 	0.85876 0.96656 0.93667 -0.07500
