data_crystal

_cell_length_a 18.63841
_cell_length_b 18.93362
_cell_length_c 33.77494
_cell_angle_alpha 95.45303
_cell_angle_beta  95.45391
_cell_angle_gamma 126.44971

_symmetry_space_group_name_	'P 1'
_symmetry_space_group_name_H-M	'P 1'

loop_
_symmetry_equiv_pos_as_xyz
  x,y,z

loop_
_atom_site_label
_atom_site_type_symbol
_atom_site_fract_x
_atom_site_fract_y
_atom_site_fract_z
_atom_site_charge
C 	C 	0.89946 0.97894 0.96222 0.03000
C 	C 	0.99455 0.03225 0.96818 -0.04000
C 	C 	0.03870 0.99305 0.97056 0.02000
C 	C 	0.98840 0.90064 0.96740 -0.05900
C 	C 	0.89360 0.84634 0.96160 0.04700
C 	C 	0.84853 0.88541 0.95919 -0.06700
H 	H 	0.03407 0.10412 0.97072 0.04600
H 	H 	0.02311 0.87072 0.96917 0.04800
H 	H 	0.77510 0.84376 0.95505 0.05400
C 	C 	0.95833 0.06040 0.50663 0.08500
C 	C 	0.05123 0.10528 0.50614 -0.10400
C 	C 	0.08595 0.05672 0.50277 0.08300
C 	C 	0.02775 0.96379 0.49944 -0.10700
C 	C 	0.93547 0.91915 0.49985 0.08200
C 	C 	0.90080 0.96732 0.50371 -0.10800
H 	H 	0.09583 0.17710 0.50793 0.06500
H 	H 	0.05431 0.92618 0.49646 0.06900
H 	H 	0.82897 0.93234 0.50362 0.05900
Cu	Cu	0.73347 0.31403 0.94904 0.92300
Cu	Cu	0.79125 0.29513 0.04406 0.88100
Cu	Cu	0.60485 0.25862 0.00975 0.90100
Cu	Cu	0.55918 0.30870 0.93187 0.89900
C 	C 	0.66087 0.30636 0.86827 0.26400
O 	O 	0.79096 0.44607 0.94837 -0.35900
C 	C 	0.68369 0.30342 0.09613 0.26000
O 	O 	0.59576 0.24412 0.95236 -0.64000
O 	O 	0.73881 0.33399 0.00872 -0.63500
O 	O 	0.77810 0.23921 0.94324 -0.35500
O 	O 	0.85576 0.28248 0.00787 -0.41400
O 	O 	0.58785 0.29641 0.87722 -0.37200
O 	O 	0.47449 0.18702 0.00557 -0.36500
C 	C 	0.42419 0.19947 0.98159 0.30500
C 	C 	0.75078 0.48076 0.96009 0.30300
O 	O 	0.67262 0.43035 0.97150 -0.38900
O 	O 	0.46194 0.27008 0.96419 -0.39600
O 	O 	0.70304 0.28333 0.89100 -0.35100
C 	C 	0.81299 0.22364 0.97395 0.29400
O 	O 	0.61215 0.24715 0.06708 -0.37800
O 	O 	0.76638 0.34195 0.08907 -0.40600
H 	H 	0.55673 0.18047 0.93884 0.16300
H 	H 	0.76695 0.39729 0.01957 0.16800
Cu	Cu	0.63073 0.23504 0.51192 0.92700
Cu	Cu	0.69959 0.23107 0.42615 0.87900
Cu	Cu	0.67124 0.36445 0.45362 0.89900
Cu	Cu	0.61648 0.39155 0.53105 0.89600
C 	C 	0.65186 0.31044 0.59433 0.26100
O 	O 	0.49580 0.17325 0.51068 -0.36200
C 	C 	0.64329 0.29247 0.36662 0.26200
O 	O 	0.69474 0.37118 0.51099 -0.63700
O 	O 	0.61499 0.23517 0.45287 -0.63800
O 	O 	0.69763 0.18200 0.51383 -0.37000
O 	O 	0.78795 0.27081 0.47260 -0.42700
O 	O 	0.60530 0.33776 0.58027 -0.37800
O 	O 	0.73206 0.49166 0.45892 -0.37600
C 	C 	0.72268 0.53878 0.48641 0.31400
C 	C 	0.45546 0.20432 0.49403 0.30300
O 	O 	0.50499 0.28408 0.48498 -0.38300
O 	O 	0.65776 0.49967 0.50785 -0.39300
O 	O 	0.66271 0.25956 0.57006 -0.35300
C 	C 	0.77051 0.21593 0.49753 0.30700
O 	O 	0.66986 0.36154 0.39461 -0.37000
O 	O 	0.63625 0.22329 0.37646 -0.40900
H 	H 	0.75951 0.41489 0.52415 0.16600
H 	H 	0.55154 0.19386 0.43778 0.17700
C 	C 	0.63413 0.33166 0.69614 0.08000
C 	C 	0.64609 0.37704 0.73441 -0.08300
C 	C 	0.63509 0.33314 0.76704 0.01600
C 	C 	0.62851 0.25591 0.76307 0.07800
C 	C 	0.62959 0.21735 0.72567 -0.07900
C 	C 	0.62404 0.25257 0.69174 0.01200
N 	N 	0.66428 0.37165 0.66444 -0.15200
C 	C 	0.66973 0.31661 0.63842 0.00500
C 	C 	0.64950 0.24377 0.65556 -0.04100
N 	N 	0.65609 0.24684 0.79920 -0.15100
C 	C 	0.67698 0.31637 0.82677 0.01400
C 	C 	0.66889 0.37368 0.80727 -0.04600
H 	H 	0.66708 0.44471 0.73882 0.05700
H 	H 	0.63814 0.16539 0.72343 0.05900
H 	H 	0.63063 0.18145 0.63899 0.05600
H 	H 	0.66352 0.42345 0.82183 0.05700
H 	H 	0.66170 0.42252 0.65695 0.08400
H 	H 	0.63933 0.18656 0.80599 0.09400
C 	C 	0.64432 0.24921 0.19206 0.07600
C 	C 	0.59151 0.20345 0.22055 -0.08100
C 	C 	0.62977 0.24324 0.26152 0.01100
C 	C 	0.70830 0.33024 0.27306 0.07500
C 	C 	0.75426 0.38071 0.24408 -0.08100
C 	C 	0.72488 0.33527 0.20376 0.01000
N 	N 	0.61037 0.23360 0.15262 -0.15100
C 	C 	0.67072 0.30817 0.13834 0.00200
C 	C 	0.74068 0.37431 0.16995 -0.04600
N 	N 	0.71219 0.36578 0.31032 -0.15100
C 	C 	0.63820 0.30017 0.32373 0.00400
C 	C 	0.58288 0.22445 0.29299 -0.04400
H 	H 	0.52280 0.14220 0.21122 0.05700
H 	H 	0.80748 0.45219 0.25223 0.05400
H 	H 	0.80550 0.43358 0.16651 0.04800
H 	H 	0.53014 0.15768 0.29738 0.04800
H 	H 	0.56206 0.17000 0.13484 0.09300
H 	H 	0.77186 0.42146 0.32899 0.08500
C 	C 	0.87530 0.82165 0.49632 -0.03700
C 	C 	0.83815 0.76643 0.45794 -0.10200
C 	C 	0.78926 0.67385 0.45429 0.18700
C 	C 	0.77692 0.63605 0.48936 -0.12200
C 	C 	0.81294 0.69145 0.52771 -0.04100
C 	C 	0.86155 0.78384 0.53127 0.13000
H 	H 	0.84825 0.79547 0.43093 0.06600
O 	O 	0.75030 0.62025 0.41658 -0.28400
H 	H 	0.80351 0.66279 0.55482 0.04800
O 	O 	0.89865 0.83753 0.56895 -0.27500
H 	H 	0.85165 0.84289 0.57641 0.14400
H 	H 	0.79773 0.61718 0.40766 0.15400
C 	C 	0.91914 0.10900 0.50580 -0.03500
C 	C 	0.90056 0.12900 0.46914 -0.10200
C 	C 	0.85041 0.16187 0.46601 0.18500
C 	C 	0.82122 0.17857 0.50035 -0.12800
C 	C 	0.84145 0.16024 0.53733 -0.03700
C 	C 	0.88955 0.12483 0.54007 0.12800
H 	H 	0.92204 0.11574 0.44254 0.06800
O 	O 	0.82905 0.17661 0.42923 -0.31600
H 	H 	0.81992 0.17332 0.56395 0.06200
O 	O 	0.90889 0.10720 0.57638 -0.27400
H 	H 	0.85627 0.04477 0.57656 0.14600
H 	H 	0.77009 0.11935 0.41585 0.12200
C 	C 	0.18295 0.10232 0.50194 -0.03800
C 	C 	0.21520 0.12767 0.46607 -0.10000
C 	C 	0.30261 0.15635 0.46246 0.18200
C 	C 	0.35909 0.16104 0.49516 -0.12100
C 	C 	0.32680 0.13587 0.53108 -0.04300
C 	C 	0.23956 0.10754 0.53471 0.13000
H 	H 	0.17156 0.12277 0.44055 0.06600
O 	O 	0.33324 0.18101 0.42717 -0.28900
H 	H 	0.37028 0.14066 0.55664 0.06400
O 	O 	0.20857 0.08221 0.56986 -0.27400
H 	H 	0.22530 0.13730 0.58697 0.14800
H 	H 	0.31586 0.12557 0.41012 0.14300
C 	C 	0.79306 0.57631 0.96097 -0.12400
C 	C 	0.79607 0.62691 0.99526 -0.04200
C 	C 	0.82000 0.71226 0.99431 0.12100
C 	C 	0.84282 0.74878 0.95907 -0.02500
C 	C 	0.83782 0.69743 0.92445 -0.10700
C 	C 	0.81387 0.61195 0.92538 0.18400
H 	H 	0.77867 0.59951 0.02260 0.05500
O 	O 	0.82589 0.76185 0.02860 -0.27800
H 	H 	0.85592 0.72521 0.89724 0.06900
O 	O 	0.80687 0.56193 0.89094 -0.29900
H 	H 	0.86803 0.57711 0.89211 0.15400
H 	H 	0.76498 0.74755 0.02666 0.14300
C 	C 	0.85444 0.02248 0.96059 -0.00900
C 	C 	0.82551 0.03726 0.99514 -0.11400
C 	C 	0.80866 0.10049 0.99904 0.18500
C 	C 	0.81932 0.14877 0.96784 -0.12500
C 	C 	0.84054 0.12829 0.93179 -0.03400
C 	C 	0.85854 0.06583 0.92816 0.12000
H 	H 	0.82071 0.00324 0.01997 0.07400
O 	O 	0.78024 0.11380 0.03306 -0.32400
H 	H 	0.84657 0.16313 0.90715 0.06400
O 	O 	0.88098 0.04790 0.89306 -0.27100
H 	H 	0.94779 0.09330 0.89658 0.15000
H 	H 	0.83668 0.15910 0.05314 0.13400
C 	C 	0.13756 0.04806 0.97371 -0.01100
C 	C 	0.19375 0.07556 0.01146 -0.11100
C 	C 	0.28762 0.12329 0.01433 0.19400
C 	C 	0.32541 0.14234 0.97907 -0.12700
C 	C 	0.26878 0.11395 0.94133 -0.03600
C 	C 	0.17523 0.06678 0.93855 0.11700
H 	H 	0.16463 0.05999 0.03856 0.07300
O 	O 	0.34211 0.15114 0.05152 -0.28300
H 	H 	0.29754 0.12903 0.91412 0.04500
O 	O 	0.12077 0.04040 0.90150 -0.27000
H 	H 	0.10187 0.97994 0.89074 0.13600
H 	H 	0.35963 0.21118 0.06196 0.14900
