data_crystal

_cell_length_a 20.83796
_cell_length_b 21.45482
_cell_length_c 38.63954
_cell_angle_alpha 60.71964
_cell_angle_beta  118.96243
_cell_angle_gamma 133.33223

_symmetry_space_group_name_	'P 1'
_symmetry_space_group_name_H-M	'P 1'

loop_
_symmetry_equiv_pos_as_xyz
  x,y,z

loop_
_atom_site_label
_atom_site_type_symbol
_atom_site_fract_x
_atom_site_fract_y
_atom_site_fract_z
_atom_site_charge
Co	Co	0.01640 0.01998 0.02660 1.16800
C 	C 	0.16655 0.02484 0.03218 0.25300
O 	O 	0.04071 0.12383 0.03310 -0.47400
C 	C 	0.06056 0.20978 0.11718 0.30300
C 	C 	0.06410 0.81257 0.08131 0.29800
O 	O 	0.00362 0.78812 0.04828 -0.41100
O 	O 	0.05929 0.84690 0.10023 -0.38000
O 	O 	0.07627 0.17156 0.10688 -0.39500
O 	O 	0.11107 0.98259 0.00224 -0.35400
O 	O 	0.13716 0.03660 0.05048 -0.41600
Co	Co	0.06767 0.01097 0.54333 1.16400
Co	Co	0.09181 0.87401 0.54522 1.17500
C 	C 	0.22489 0.06723 0.52470 0.30300
O 	O 	0.08212 0.09886 0.69470 -0.39300
C 	C 	0.09472 0.03823 0.72140 0.26400
O 	O 	0.05523 0.10529 0.53401 -0.47300
C 	C 	0.09900 0.23439 0.60866 0.30100
C 	C 	0.20280 0.86402 0.62843 0.29100
O 	O 	0.09190 0.98739 0.70941 -0.35000
O 	O 	0.20851 0.90706 0.59047 -0.38500
O 	O 	0.16392 0.86705 0.64627 -0.37200
O 	O 	0.11781 0.19727 0.59922 -0.39400
O 	O 	0.06207 0.91658 0.57018 -0.74100
O 	O 	0.16127 0.00006 0.50825 -0.42600
O 	O 	0.20340 0.08553 0.54388 -0.40500
C 	C 	0.12809 0.10328 0.88052 -0.06200
C 	C 	0.10350 0.11555 0.90351 0.01500
C 	C 	0.16352 0.11763 0.80689 -0.05800
C 	C 	0.18024 0.10758 0.77952 0.02700
C 	C 	0.11535 0.03001 0.76525 -0.11100
C 	C 	0.04929 0.95476 0.78745 0.03700
C 	C 	0.26442 0.17637 0.76662 0.07100
C 	C 	0.17073 0.18989 0.92149 0.07700
N 	N 	0.33251 0.23149 0.75673 -0.11200
N 	N 	0.22491 0.25118 0.93492 -0.11100
H 	H 	0.19846 0.13082 0.88606 0.04900
H 	H 	0.20788 0.18110 0.81399 0.05000
C 	C 	0.04238 0.91288 0.40163 -0.04000
C 	C 	0.03769 0.90941 0.43745 0.02000
C 	C 	0.01018 0.94783 0.25338 -0.06000
C 	C 	0.08583 0.01291 0.27489 -0.01500
C 	C 	0.08087 0.01382 0.30959 -0.07000
C 	C 	0.15574 0.08704 0.32841 0.08600
C 	C 	0.09197 0.88553 0.40437 0.09600
N 	N 	0.21571 0.14569 0.34351 -0.12000
N 	N 	0.13170 0.86368 0.40654 -0.11200
H 	H 	0.07025 0.88495 0.46662 0.00700
H 	H 	0.14564 0.06703 0.26259 0.04300
C 	C 	0.16411 0.32931 0.60933 -0.08700
C 	C 	0.13108 0.38088 0.58976 -0.00900
C 	C 	0.17708 0.45856 0.60075 0.00800
S 	S 	0.13425 0.52176 0.57410 -0.02900
H 	H 	0.17402 0.58468 0.54191 0.04100
H 	H 	0.06679 0.35805 0.56746 0.04100
C 	C 	0.30695 0.72542 0.65834 -0.01300
C 	C 	0.33632 0.86187 0.65233 0.04200
C 	C 	0.24514 0.81600 0.65148 -0.07700
C 	C 	0.18873 0.72307 0.65970 -0.01400
C 	C 	0.21946 0.67728 0.66402 0.01100
S 	S 	0.15094 0.56110 0.67992 -0.03100
H 	H 	0.17175 0.53545 0.72169 0.04000
H 	H 	0.41748 0.02318 0.61040 0.01800
H 	H 	0.11969 0.68644 0.66114 0.04300
C 	C 	0.17612 0.38539 0.16573 -0.05200
C 	C 	0.15323 0.30913 0.16309 0.04700
C 	C 	0.13257 0.29867 0.12490 -0.08500
S 	S 	0.15362 0.22845 0.20803 -0.03600
H 	H 	0.19071 0.39207 0.19523 0.05100
C 	C 	0.13105 0.79193 0.09850 -0.08300
C 	C 	0.14742 0.75011 0.14010 -0.00800
C 	C 	0.18759 0.70663 0.15402 0.01000
C 	C 	0.21184 0.70509 0.12611 -0.01000
C 	C 	0.19953 0.74996 0.08534 -0.05100
C 	C 	0.15929 0.79239 0.07119 0.04900
S 	S 	0.14425 0.84555 0.01874 -0.04100
H 	H 	0.06363 0.78599 0.99741 0.02900
H 	H 	0.12516 0.74754 0.16126 0.04800
H 	H 	0.22051 0.75103 0.06415 0.05700
H 	H 	0.29711 0.91596 0.55476 0.04100
H 	H 	0.31298 0.23266 0.06639 0.04000
C 	C 	0.25502 0.66123 0.13922 0.11800
N 	N 	0.20255 0.57712 0.13537 -0.13500
C 	C 	0.24242 0.54397 0.13803 0.12100
N 	N 	0.33332 0.59401 0.14462 -0.13900
N 	N 	0.34664 0.71192 0.14447 -0.13400
C 	C 	0.34093 0.68167 0.65833 0.11800
N 	N 	0.40689 0.62084 0.64670 -0.13800
C 	C 	0.31618 0.57371 0.64073 0.11900
N 	N 	0.28249 0.60477 0.64589 -0.13300
C 	C 	0.25645 0.48472 0.63261 -0.01200
C 	C 	0.29001 0.43368 0.65161 -0.05300
C 	C 	0.24710 0.35957 0.63862 0.04900
S 	S 	0.29962 0.30703 0.65846 -0.02400
H 	H 	0.35469 0.34468 0.63420 0.04000
H 	H 	0.35197 0.45388 0.67548 0.05800
C 	C 	0.36563 0.81767 0.65400 -0.05100
S 	S 	0.41420 0.97576 0.65010 0.01100
C 	C 	0.18809 0.45613 0.13137 -0.01300
C 	C 	0.15203 0.37204 0.09125 -0.00700
C 	C 	0.17638 0.44931 0.09386 0.01100
H 	H 	0.14105 0.36657 0.06214 0.04200
S 	S 	0.20542 0.65339 0.20600 -0.02900
H 	H 	0.29085 0.71097 0.22604 0.04400
C 	C 	0.35236 0.07806 0.52226 0.02900
C 	C 	0.32067 0.11800 0.52385 -0.08500
C 	C 	0.37999 0.20866 0.52195 -0.01100
S 	S 	0.27990 0.96796 0.51836 -0.02700
H 	H 	0.35525 0.24125 0.52023 0.04600
C 	C 	0.32248 0.16778 0.02963 0.04000
C 	C 	0.26566 0.07476 0.03940 -0.05700
C 	C 	0.30439 0.02945 0.05683 -0.06900
S 	S 	0.29055 0.22718 0.02780 -0.02300
H 	H 	0.26633 0.96063 0.07211 0.08000
O 	O 	0.00465 0.06738 0.96273 -0.37700
Co	Co	0.04481 0.86349 0.61778 1.18300
O 	O 	0.03137 0.74720 0.58217 -0.41100
C 	C 	0.01118 0.06931 0.90050 -0.08400
S 	S 	0.19229 0.53726 0.05000 -0.03000
C 	C 	0.00222 0.94456 0.32514 0.04800
C 	C 	0.08878 0.04613 0.82456 -0.01100
H 	H 	0.28209 0.59504 0.04905 0.04200
C 	C 	0.06278 0.06061 0.84862 0.01200
C 	C 	0.38535 0.67805 0.14692 0.12200
C 	C 	0.03775 0.96195 0.81806 -0.01500
H 	H 	0.07539 0.17820 0.22024 0.03600
O 	O 	0.01943 0.18887 0.61524 -0.40800
O 	O 	0.02059 0.84596 0.66798 -0.46100
C 	C 	0.39542 0.07488 0.05829 0.02900
Co	Co	0.01440 0.07801 0.58130 1.17500
C 	C 	0.41115 0.21314 0.02798 -0.04400
H 	H 	0.00561 0.27391 0.52311 0.03800
O 	O 	0.00635 0.95685 0.59496 -0.56600
H 	H 	0.00281 0.89248 0.77895 0.03600
Co	Co	0.00116 0.93570 0.65719 1.18900
O 	O 	0.99691 0.93772 0.18969 -0.37600
O 	O 	0.99459 0.04410 0.18869 -0.42000
C 	C 	0.99413 0.97372 0.20845 0.32700
H 	H 	0.43421 0.85563 0.65150 0.06000
N 	N 	0.43214 0.72518 0.66614 -0.13700
C 	C 	0.97889 0.02320 0.93840 0.27000
Co	Co	0.97274 0.87038 0.99902 1.16900
C 	C 	0.99792 0.94133 0.36347 0.02300
O 	O 	0.96108 0.91071 0.03404 -0.74000
C 	C 	0.46477 0.69570 0.65956 0.12300
Co	Co	0.97063 0.07847 0.07231 1.18100
O 	O 	0.97763 0.17376 0.11572 -0.40500
H 	H 	0.95367 0.33687 0.98626 0.04000
O 	O 	0.99406 0.97957 0.48523 -0.34200
S 	S 	0.94548 0.30426 0.02560 -0.02800
H 	H 	0.53049 0.86344 0.56853 0.04600
C 	C 	0.46970 0.25870 0.51974 0.01200
C 	C 	0.65989 0.25155 0.02563 0.11900
N 	N 	0.57509 0.19410 0.03255 -0.13500
C 	C 	0.54643 0.21924 0.04498 0.12400
N 	N 	0.60423 0.30023 0.05232 -0.13900
C 	C 	0.68519 0.36044 0.04215 0.12200
N 	N 	0.71356 0.33625 0.02889 -0.13800
C 	C 	0.72465 0.26388 0.54139 0.11800
N 	N 	0.63519 0.23108 0.52693 -0.13700
C 	C 	0.60304 0.26045 0.53414 0.12100
N 	N 	0.66100 0.32395 0.55478 -0.13700
C 	C 	0.75158 0.36719 0.56319 0.12000
N 	N 	0.78420 0.33579 0.55759 -0.13600
Co	Co	0.94500 0.84747 0.08123 1.18300
Co	Co	0.91219 0.90800 0.13273 1.19100
C 	C 	0.81924 0.70523 0.03447 0.30200
Co	Co	0.89104 0.04051 0.13961 1.16300
O 	O 	0.91910 0.00278 0.11080 -0.77800
O 	O 	0.92579 0.81996 0.13527 -0.45900
O 	O 	0.92697 0.95087 0.06902 -0.55300
C 	C 	0.74751 0.84783 0.14882 0.31100
O 	O 	0.80439 0.91063 0.16797 -0.39600
O 	O 	0.77770 0.82689 0.13603 -0.37500
O 	O 	0.92673 0.93752 0.94812 -0.36500
C 	C 	0.81786 0.09537 0.05174 0.28900
O 	O 	0.79388 0.03564 0.08600 -0.40200
O 	O 	0.87889 0.11339 0.03830 -0.37600
O 	O 	0.83980 0.76427 0.99990 -0.38000
O 	O 	0.83238 0.72747 0.06510 -0.37300
C 	C 	0.95499 0.70297 0.59142 0.30800
Co	Co	0.96049 0.06270 0.65294 1.16500
O 	O 	0.99114 0.02062 0.62792 -0.76900
C 	C 	0.84102 0.86700 0.68016 0.30800
C 	C 	0.97405 0.91507 0.47544 0.29100
O 	O 	0.89674 0.93929 0.69281 -0.38900
O 	O 	0.87026 0.84877 0.66534 -0.38000
O 	O 	0.97195 0.84787 0.50422 -0.38600
C 	C 	0.85097 0.07177 0.56942 0.28800
O 	O 	0.84500 0.02351 0.60701 -0.40600
O 	O 	0.90082 0.08407 0.55109 -0.37300
O 	O 	0.94215 0.73913 0.60494 -0.38200
C 	C 	0.97440 0.03645 0.83852 -0.02900
C 	C 	0.94818 0.03812 0.86528 0.00200
C 	C 	0.97582 0.88307 0.84325 0.09200
C 	C 	0.91233 0.01457 0.80011 0.04300
N 	N 	0.92621 0.81990 0.86346 -0.11800
N 	N 	0.86265 0.99734 0.76927 -0.09000
H 	H 	0.87770 0.00966 0.86024 0.03700
C 	C 	0.94954 0.96700 0.36174 -0.04700
C 	C 	0.94416 0.96288 0.39794 0.01300
C 	C 	0.98816 0.93338 0.43621 -0.06800
C 	C 	0.93213 0.87265 0.30709 -0.05900
C 	C 	0.93693 0.87316 0.27186 0.02400
C 	C 	0.86706 0.79662 0.25510 0.07200
C 	C 	0.89163 0.98667 0.39541 0.12100
N 	N 	0.81125 0.73508 0.24175 -0.11000
N 	N 	0.84951 0.00576 0.39337 -0.14300
H 	H 	0.91553 0.98936 0.33235 0.05600
H 	H 	0.87433 0.81623 0.32056 0.05400
C 	C 	0.74304 0.81559 0.67556 -0.08700
C 	C 	0.68676 0.81722 0.63621 -0.00300
C 	C 	0.59754 0.78433 0.63048 0.01200
C 	C 	0.56270 0.74660 0.66452 -0.01300
C 	C 	0.61860 0.74412 0.70392 -0.05200
C 	C 	0.70812 0.77746 0.70963 0.05300
S 	S 	0.53029 0.79176 0.58049 -0.01900
S 	S 	0.77418 0.76690 0.75955 -0.03200
H 	H 	0.82131 0.84090 0.77207 0.05400
H 	H 	0.71329 0.84649 0.60992 0.05400
H 	H 	0.59142 0.71327 0.73020 0.05600
C 	C 	0.48126 0.73442 0.14690 -0.01200
C 	C 	0.50318 0.76198 0.11052 -0.05000
C 	C 	0.58637 0.78778 0.11130 0.05300
C 	C 	0.65107 0.79129 0.14858 -0.08500
C 	C 	0.62860 0.76290 0.18496 -0.00400
C 	C 	0.54532 0.73662 0.18417 0.01000
S 	S 	0.60742 0.81274 0.06560 -0.03000
S 	S 	0.52134 0.70530 0.23024 -0.02500
H 	H 	0.47829 0.61594 0.24595 0.04100
H 	H 	0.64644 0.90056 0.04667 0.05400
H 	H 	0.45296 0.75783 0.08184 0.05400
H 	H 	0.67824 0.76608 0.21374 0.05100
C 	C 	0.75371 0.21305 0.54500 -0.01400
C 	C 	0.82536 0.25506 0.52813 -0.05300
C 	C 	0.84872 0.20597 0.52889 0.04700
C 	C 	0.80331 0.11479 0.54873 -0.08400
C 	C 	0.72525 0.07194 0.56086 -0.01600
C 	C 	0.70400 0.12050 0.56178 0.01000
S 	S 	0.92268 0.25549 0.49917 -0.02900
S 	S 	0.62144 0.06558 0.58796 -0.05200
H 	H 	0.66228 0.06827 0.62813 0.03400
H 	H 	0.86084 0.32499 0.51318 0.05400
H 	H 	0.68735 0.00138 0.57442 0.03500
C 	C 	0.81181 0.45630 0.57023 -0.01300
C 	C 	0.79260 0.51744 0.54165 -0.05100
C 	C 	0.82437 0.58979 0.55217 0.04700
C 	C 	0.88684 0.60959 0.58949 -0.08700
C 	C 	0.90580 0.54826 0.61844 -0.00500
C 	C 	0.86811 0.47161 0.60912 0.01000
S 	S 	0.78503 0.65514 0.51832 -0.02700
S 	S 	0.89199 0.39569 0.64633 -0.03200
H 	H 	0.96082 0.41092 0.63943 0.04300
H 	H 	0.70841 0.62131 0.52698 0.04200
H 	H 	0.74749 0.50518 0.51203 0.05400
H 	H 	0.95332 0.56230 0.64746 0.04000
C 	C 	0.50394 0.21593 0.52407 -0.01700
C 	C 	0.44365 0.12684 0.52341 -0.05000
S 	S 	0.53388 0.37494 0.50630 -0.03000
H 	H 	0.52106 0.40508 0.46470 0.03900
H 	H 	0.46810 0.09438 0.52472 0.04900
C 	C 	0.77676 0.14423 0.02850 -0.08500
C 	C 	0.68195 0.09613 0.01877 -0.01200
C 	C 	0.64173 0.13487 0.01159 0.01100
C 	C 	0.69722 0.22000 0.01835 -0.01400
C 	C 	0.79130 0.27172 0.02255 -0.05500
C 	C 	0.83043 0.23509 0.02600 0.04700
S 	S 	0.52499 0.08217 0.98846 -0.04000
H 	H 	0.51298 0.11042 0.94689 0.03600
H 	H 	0.63939 0.02808 0.01740 0.03300
H 	H 	0.83443 0.33992 0.02381 0.05800
C 	C 	0.73199 0.45425 0.03779 -0.01400
C 	C 	0.78990 0.48849 0.07239 -0.05300
C 	C 	0.81376 0.56699 0.07317 0.05300
C 	C 	0.78033 0.61323 0.03844 -0.08500
C 	C 	0.72274 0.57873 0.00381 -0.00600
C 	C 	0.70008 0.50101 0.00304 0.01200
S 	S 	0.88353 0.60472 0.11814 -0.03800
S 	S 	0.62990 0.46170 0.95849 -0.03000
H 	H 	0.68285 0.49482 0.93421 0.04100
H 	H 	0.83039 0.57021 0.14266 0.04600
H 	H 	0.81317 0.45184 0.09949 0.05300
H 	H 	0.69726 0.61377 0.97693 0.04900
C 	C 	0.44886 0.16750 0.04249 -0.02400
S 	S 	0.44274 0.01591 0.08293 -0.04800
H 	H 	0.47628 0.01422 0.12362 0.03400
H 	H 	0.45260 0.28465 0.01756 0.05800
