data_crystal

_cell_length_a 43.14725
_cell_length_b 44.59500
_cell_length_c 22.39187
_cell_angle_alpha 89.83502
_cell_angle_beta  90.00085
_cell_angle_gamma 90.00002

_symmetry_space_group_name_	'P 1'
_symmetry_space_group_name_H-M	'P 1'

loop_
_symmetry_equiv_pos_as_xyz
  x,y,z

loop_
_atom_site_label
_atom_site_type_symbol
_atom_site_fract_x
_atom_site_fract_y
_atom_site_fract_z
_atom_site_charge
C 	C 	0.48314 0.55420 0.91213 0.10100
N 	N 	0.47117 0.52973 0.93885 -0.17200
C 	C 	0.44035 0.53078 0.92965 0.10400
C 	C 	0.41812 0.51050 0.96004 -0.07900
C 	C 	0.42677 0.47890 0.97088 0.09800
C 	C 	0.38624 0.52069 0.97314 0.05700
C 	C 	0.38109 0.54319 0.01564 -0.07100
C 	C 	0.35082 0.55160 0.03044 -0.01500
C 	C 	0.32550 0.53747 0.00299 -0.01700
C 	C 	0.36097 0.50712 0.94457 -0.06500
N 	N 	0.45114 0.46576 0.94405 -0.13100
C 	C 	0.41581 0.46154 0.01761 -0.06900
C 	C 	0.45540 0.43972 0.97342 0.09500
C 	C 	0.47745 0.41659 0.95323 -0.07600
C 	C 	0.46792 0.38477 0.95340 0.04400
C 	C 	0.43350 0.34550 0.91870 -0.02500
C 	C 	0.48305 0.36404 0.99048 -0.05500
C 	C 	0.47346 0.33409 0.99164 -0.01600
C 	C 	0.44847 0.32475 0.95612 -0.00600
N 	N 	0.52014 0.45277 0.93258 -0.17300
C 	C 	0.54845 0.45128 0.90752 0.10100
C 	C 	0.55314 0.42327 0.88221 -0.06200
C 	C 	0.52629 0.40708 0.89224 -0.06200
C 	C 	0.57367 0.47243 0.92288 -0.07500
C 	C 	0.60577 0.46147 0.92943 0.04300
C 	C 	0.65815 0.45754 0.89099 -0.02000
C 	C 	0.66794 0.44469 0.94512 -0.00600
C 	C 	0.64627 0.43976 0.99100 -0.02000
C 	C 	0.61526 0.44792 0.98293 -0.05300
N 	N 	0.54120 0.51796 0.90717 -0.12700
C 	C 	0.56675 0.55043 0.96650 -0.05100
C 	C 	0.54127 0.54590 0.93018 0.08500
C 	C 	0.51415 0.56620 0.92745 -0.07300
C 	C 	0.51839 0.59877 0.93691 0.04200
C 	C 	0.53834 0.61518 0.89968 -0.05700
C 	C 	0.54118 0.64620 0.90666 -0.02100
C 	C 	0.52394 0.66106 0.95069 -0.00600
C 	C 	0.50461 0.64451 0.98898 -0.02100
C 	C 	0.50186 0.61348 0.98210 -0.05200
C 	C 	0.45978 0.57100 0.88558 -0.06100
C 	C 	0.43237 0.55593 0.89676 -0.06400
C 	C 	0.33074 0.51551 0.95930 -0.01300
C 	C 	0.43398 0.43615 0.01881 -0.06800
C 	C 	0.50663 0.42594 0.92341 0.10100
C 	C 	0.58344 0.52414 0.96519 -0.06400
C 	C 	0.56725 0.50493 0.92817 0.09000
C 	C 	0.62722 0.46598 0.88330 -0.05800
H 	H 	0.48179 0.51822 0.97406 0.09500
H 	H 	0.51423 0.46742 0.96710 0.09600
H 	H 	0.55623 0.65875 0.87701 0.04400
H 	H 	0.49154 0.65573 0.02367 0.03200
H 	H 	0.55124 0.60398 0.86472 0.05000
H 	H 	0.48663 0.60093 0.01141 0.04000
H 	H 	0.34704 0.56872 0.06389 0.04100
H 	H 	0.36477 0.48994 0.91126 0.05100
H 	H 	0.31138 0.50490 0.93693 0.03700
H 	H 	0.40051 0.55386 0.03772 0.04800
H 	H 	0.48524 0.31822 0.02048 0.03700
H 	H 	0.50216 0.37115 0.01845 0.04100
C 	C 	0.44317 0.37539 0.91744 -0.05700
H 	H 	0.41450 0.33843 0.89042 0.04000
H 	H 	0.67460 0.46134 0.85520 0.04500
H 	H 	0.61999 0.47635 0.84175 0.05000
H 	H 	0.59878 0.44442 0.01879 0.04000
H 	H 	0.65359 0.43034 0.03335 0.03200
H 	H 	0.46133 0.59465 0.87492 0.05000
H 	H 	0.40958 0.56606 0.89562 0.05200
H 	H 	0.39381 0.46432 0.04012 0.04900
H 	H 	0.42787 0.41516 0.04017 0.04800
H 	H 	0.57556 0.41335 0.87338 0.05100
H 	H 	0.52486 0.38285 0.89179 0.05200
H 	H 	0.56805 0.56687 0.00190 0.04200
H 	H 	0.59964 0.51713 0.99942 0.05200
H 	H 	0.43142 0.39126 0.88855 0.05000
Co	Co	0.39275 0.09945 0.93710 1.18300
Co	Co	0.39736 0.02964 0.95373 1.09400
O 	O 	0.39014 0.14494 0.93537 -0.35600
O 	O 	0.43694 0.12972 0.92845 -0.31600
O 	O 	0.34951 0.08509 0.94119 -0.39700
O 	O 	0.38062 0.04020 0.87382 -0.46600
C 	C 	0.34073 0.06430 0.97952 0.30200
C 	C 	0.41868 0.15258 0.92918 0.28400
O 	O 	0.36118 0.04580 0.00297 -0.44000
O 	O 	0.40280 0.08584 0.85738 -0.42300
C 	C 	0.39496 0.05907 0.83827 0.31200
O 	O 	0.40446 0.09238 0.01889 -0.42600
O 	O 	0.43216 0.05180 0.99070 -0.47800
C 	C 	0.42634 0.07281 0.03002 0.31800
C 	C 	0.52904 0.99960 0.39834 0.01100
C 	C 	0.50649 0.02277 0.39674 0.00900
C 	C 	0.52694 0.97680 0.44167 -0.05500
C 	C 	0.50183 0.97611 0.48158 0.01200
C 	C 	0.48222 0.02290 0.43870 -0.05500
C 	C 	0.47937 0.99939 0.48024 0.00900
H 	H 	0.46527 0.04082 0.43810 0.05000
H 	H 	0.54436 0.95932 0.44340 0.05100
C 	C 	0.45352 0.99749 0.51868 -0.01300
C 	C 	0.45030 0.97390 0.55988 0.00700
C 	C 	0.43091 0.98138 0.60918 -0.05500
C 	C 	0.41963 0.01075 0.60667 0.00800
S 	S 	0.43423 0.02693 0.54557 -0.01000
H 	H 	0.42835 0.96746 0.64848 0.04100
C 	C 	0.49749 0.95173 0.52103 -0.01400
C 	C 	0.47239 0.95074 0.56087 0.00800
C 	C 	0.47799 0.93195 0.61132 -0.05300
C 	C 	0.50772 0.91942 0.61191 0.00500
S 	S 	0.52611 0.93152 0.55087 -0.00000
H 	H 	0.46271 0.93066 0.64950 0.04000
C 	C 	0.55364 0.02068 0.30862 0.00800
C 	C 	0.55277 0.99938 0.35499 -0.01500
S 	S 	0.56903 0.96814 0.32895 -0.00500
C 	C 	0.57890 0.98005 0.26107 0.00900
C 	C 	0.56937 0.00999 0.25676 -0.05800
C 	C 	0.50833 0.04488 0.35166 -0.01300
C 	C 	0.53116 0.04361 0.30679 0.00600
C 	C 	0.52185 0.05824 0.25284 -0.05600
C 	C 	0.49145 0.06906 0.25445 0.00300
S 	S 	0.47741 0.06180 0.32214 -0.01100
H 	H 	0.53490 0.05720 0.21171 0.04300
H 	H 	0.56994 0.02203 0.21483 0.04400
Co	Co	0.59694 0.88547 0.93952 1.18100
Co	Co	0.52525 0.89093 0.96056 1.09800
O 	O 	0.64268 0.88003 0.92038 -0.36100
O 	O 	0.62681 0.92364 0.89653 -0.31500
O 	O 	0.58325 0.84745 0.97652 -0.41100
O 	O 	0.54827 0.89079 0.03734 -0.45500
C 	C 	0.55856 0.83298 0.95733 0.29600
C 	C 	0.65009 0.90552 0.89735 0.28300
O 	O 	0.53456 0.84778 0.93613 -0.42700
O 	O 	0.59409 0.91149 0.00836 -0.43700
C 	C 	0.57132 0.90933 0.04700 0.31300
O 	O 	0.57820 0.88006 0.86239 -0.43600
O 	O 	0.53994 0.91225 0.88814 -0.48400
C 	C 	0.55520 0.89753 0.84688 0.32000
Co	Co	0.10334 0.61770 0.02798 1.17800
Co	Co	0.03246 0.60406 0.01431 1.09000
O 	O 	0.14874 0.62824 0.04037 -0.37700
O 	O 	0.13966 0.58257 0.06167 -0.31500
O 	O 	0.08331 0.65453 0.99753 -0.39900
O 	O 	0.05218 0.60967 0.93474 -0.45700
C 	C 	0.05807 0.66529 0.02261 0.29200
C 	C 	0.16041 0.60332 0.05892 0.28200
O 	O 	0.03686 0.64707 0.04423 -0.43600
O 	O 	0.10039 0.59271 0.95790 -0.44100
C 	C 	0.07748 0.59517 0.91980 0.31400
O 	O 	0.08698 0.61845 0.10770 -0.43500
O 	O 	0.05266 0.58248 0.08133 -0.49000
C 	C 	0.06714 0.59763 0.12304 0.32100
C 	C 	0.98731 0.49622 0.48470 0.01000
C 	C 	0.00798 0.52103 0.48467 0.01100
C 	C 	0.99130 0.47289 0.52636 -0.05500
C 	C 	0.01485 0.47470 0.56971 0.01000
C 	C 	0.03223 0.52224 0.52641 -0.05500
C 	C 	0.03539 0.49959 0.56976 0.01200
H 	H 	0.04818 0.54099 0.52591 0.05100
H 	H 	0.97583 0.45376 0.52582 0.05000
C 	C 	0.05841 0.50141 0.61433 -0.01300
C 	C 	0.06022 0.48019 0.66067 0.00900
C 	C 	0.07496 0.49164 0.71289 -0.05000
C 	C 	0.08290 0.52202 0.70852 0.00500
S 	S 	0.07258 0.53355 0.64061 -0.00200
H 	H 	0.07665 0.47937 0.75444 0.04300
C 	C 	0.01799 0.45254 0.61454 -0.01200
C 	C 	0.03944 0.45584 0.66138 0.00800
C 	C 	0.03038 0.44046 0.71461 -0.05300
C 	C 	0.00173 0.42597 0.70991 0.00900
S 	S 	0.98857 0.43218 0.64088 -0.00900
H 	H 	0.04195 0.44322 0.75705 0.04500
C 	C 	0.95797 0.51954 0.40284 0.00600
C 	C 	0.96196 0.49647 0.44482 -0.01300
S 	S 	0.94389 0.46609 0.41888 -0.01100
C 	C 	0.92857 0.48137 0.35741 0.00100
C 	C 	0.93888 0.51106 0.35386 -0.05600
C 	C 	0.00284 0.54483 0.44412 -0.01400
C 	C 	0.97892 0.54365 0.40173 0.00700
C 	C 	0.98483 0.56173 0.35035 -0.05500
C 	C 	0.01338 0.57662 0.35260 0.00900
S 	S 	0.03067 0.56668 0.41625 -0.00600
H 	H 	0.97125 0.56057 0.30984 0.03900
H 	H 	0.93546 0.52477 0.31450 0.03900
Co	Co	0.89795 0.39996 0.02120 1.17900
Co	Co	0.90778 0.46924 0.00974 1.09000
O 	O 	0.89185 0.35476 0.02031 -0.35900
O 	O 	0.93982 0.36650 0.02258 -0.31900
O 	O 	0.85597 0.41762 0.02220 -0.40500
O 	O 	0.89177 0.45854 0.09016 -0.46800
C 	C 	0.84795 0.43951 0.98569 0.30400
C 	C 	0.91987 0.34501 0.02245 0.28400
O 	O 	0.86913 0.45738 0.96271 -0.43500
O 	O 	0.91134 0.41136 0.10053 -0.42700
C 	C 	0.90488 0.43776 0.12316 0.31500
O 	O 	0.90785 0.40755 0.93881 -0.42600
O 	O 	0.93944 0.44548 0.96663 -0.47900
C 	C 	0.93063 0.42588 0.92656 0.32200
C 	C 	0.98363 0.93988 0.01590 0.10000
N 	N 	0.96948 0.96449 0.99411 -0.16600
C 	C 	0.93906 0.96120 0.00586 0.08800
C 	C 	0.91480 0.98018 0.97797 -0.06600
C 	C 	0.92077 0.01249 0.96823 0.08700
C 	C 	0.88382 0.96758 0.96484 0.04000
C 	C 	0.88070 0.94378 0.92445 -0.05600
C 	C 	0.85144 0.93163 0.91273 -0.02600
C 	C 	0.82508 0.94334 0.94107 -0.00500
C 	C 	0.85745 0.97935 0.99296 -0.05200
N 	N 	0.94282 0.02789 0.99780 -0.12600
C 	C 	0.90726 0.02984 0.92404 -0.06000
C 	C 	0.94280 0.05543 0.97283 0.08900
C 	C 	0.96441 0.07951 0.99065 -0.07000
C 	C 	0.95416 0.11108 0.98802 0.04900
C 	C 	0.92156 0.15122 0.02514 -0.03200
C 	C 	0.96852 0.13125 0.94863 -0.05900
C 	C 	0.95961 0.16139 0.94781 -0.02200
C 	C 	0.93613 0.17154 0.98617 0.00200
N 	N 	0.01060 0.04667 0.00312 -0.17500
C 	C 	0.03955 0.05029 0.02444 0.10200
C 	C 	0.04246 0.07783 0.05239 -0.06500
C 	C 	0.01379 0.09154 0.04801 -0.06000
C 	C 	0.06585 0.03092 0.00646 -0.08300
C 	C 	0.09769 0.04299 0.00535 0.04200
C 	C 	0.14752 0.04966 0.05365 -0.01600
C 	C 	0.15999 0.06091 0.00018 -0.02100
C 	C 	0.14089 0.06375 0.94962 -0.01600
C 	C 	0.10980 0.05503 0.95240 -0.05700
N 	N 	0.03583 0.98344 0.01419 -0.13700
C 	C 	0.06647 0.95271 0.96046 -0.06500
C 	C 	0.03982 0.95518 0.99439 0.10300
C 	C 	0.01591 0.93160 0.00034 -0.09100
C 	C 	0.02484 0.89973 0.99582 0.06000
C 	C 	0.04296 0.88647 0.04066 -0.07000
C 	C 	0.05072 0.85610 0.03728 -0.02500
C 	C 	0.04066 0.83884 0.98873 -0.00200
C 	C 	0.02281 0.85221 0.94349 -0.02400
C 	C 	0.01489 0.88255 0.94711 -0.06400
C 	C 	0.96220 0.92064 0.04168 -0.06600
C 	C 	0.93363 0.93432 0.03529 -0.05900
C 	C 	0.82820 0.96738 0.98089 -0.01700
C 	C 	0.92138 0.05747 0.92709 -0.06100
C 	C 	0.99484 0.07170 0.01745 0.09300
C 	C 	0.07986 0.98072 0.96012 -0.06300
C 	C 	0.06047 0.99884 0.99344 0.10100
C 	C 	0.11652 0.04065 0.05613 -0.06200
H 	H 	0.97838 0.97792 0.95983 0.09500
H 	H 	0.00488 0.03257 0.96758 0.10000
H 	H 	0.06445 0.84595 0.07246 0.04300
H 	H 	0.01470 0.83899 0.90610 0.03800
H 	H 	0.05073 0.89962 0.07841 0.05100
H 	H 	0.00087 0.89266 0.91232 0.04900
H 	H 	0.84924 0.91324 0.88152 0.03900
H 	H 	0.85966 0.99769 0.02431 0.04300
H 	H 	0.80798 0.97657 0.00296 0.03800
H 	H 	0.90092 0.93466 0.90230 0.04700
H 	H 	0.97101 0.17687 0.91759 0.04500
H 	H 	0.98678 0.12363 0.91913 0.04800
C 	C 	0.93047 0.12111 0.02585 -0.06300
H 	H 	0.90374 0.15888 0.05560 0.04000
H 	H 	0.16197 0.04745 0.09299 0.04200
H 	H 	0.10726 0.03142 0.09723 0.05000
H 	H 	0.09537 0.05682 0.91295 0.04700
H 	H 	0.15032 0.07192 0.90779 0.03600
H 	H 	0.96560 0.89684 0.04870 0.05000
H 	H 	0.91160 0.92274 0.03697 0.04700
H 	H 	0.88618 0.02469 0.89996 0.05000
H 	H 	0.91313 0.07792 0.90639 0.05000
H 	H 	0.06408 0.08960 0.05947 0.05000
H 	H 	0.00997 0.11545 0.05157 0.04900
H 	H 	0.07766 0.93203 0.94731 0.05100
H 	H 	0.10364 0.98562 0.94821 0.05200
H 	H 	0.91930 0.10565 0.05645 0.04900
C 	C 	0.94377 0.25408 0.99921 0.09900
C 	C 	0.91265 0.26329 0.99681 0.09300
N 	N 	0.90546 0.29273 0.00359 -0.09300
C 	C 	0.92817 0.31346 0.01242 -0.02800
C 	C 	0.95933 0.30423 0.01399 0.03800
N 	N 	0.96648 0.27472 0.00745 -0.11800
N 	N 	0.95088 0.22452 0.99472 -0.11500
N 	N 	0.88992 0.24262 0.98894 -0.10400
H 	H 	0.97769 0.32039 0.02104 0.03900
C 	C 	0.92809 0.20367 0.98791 0.04800
C 	C 	0.89702 0.21300 0.98418 0.00200
H 	H 	0.87867 0.19676 0.97776 0.04100
C 	C 	0.98089 0.42287 0.76190 0.00700
C 	C 	0.98890 0.40358 0.80934 0.03500
C 	C 	0.97183 0.40435 0.86276 -0.01000
C 	C 	0.94674 0.42404 0.86895 -0.11500
C 	C 	0.93778 0.44239 0.82030 0.10500
C 	C 	0.95497 0.44173 0.76732 -0.08900
H 	H 	0.97837 0.38987 0.89963 0.04300
H 	H 	0.94876 0.45676 0.73115 0.05900
N 	N 	0.01476 0.38344 0.80339 -0.13400
N 	N 	0.91106 0.46168 0.82399 -0.15100
C 	C 	0.00405 0.35328 0.78828 -0.09300
H 	H 	0.98951 0.34379 0.82476 0.05500
H 	H 	0.02441 0.33843 0.78185 0.05300
H 	H 	0.99063 0.35366 0.74587 0.05800
C 	C 	0.91950 0.49139 0.84623 -0.07700
H 	H 	0.92981 0.48999 0.89158 0.00200
H 	H 	0.89841 0.50560 0.84865 0.03100
H 	H 	0.93615 0.50241 0.81529 0.03900
H 	H 	0.02785 0.38294 0.84275 0.07700
H 	H 	0.89315 0.45217 0.84919 0.09000
C 	C 	0.90963 0.44322 0.18728 -0.11300
C 	C 	0.93928 0.44002 0.21285 0.10200
C 	C 	0.94462 0.45012 0.27133 -0.09100
C 	C 	0.92078 0.46386 0.30388 0.00400
C 	C 	0.89052 0.46497 0.27975 0.03500
C 	C 	0.88521 0.45471 0.22162 -0.01100
H 	H 	0.96777 0.44884 0.29002 0.05500
H 	H 	0.86218 0.45645 0.20257 0.04700
N 	N 	0.96434 0.42770 0.17829 -0.14400
N 	N 	0.86501 0.47695 0.31362 -0.13600
C 	C 	0.98365 0.45163 0.15332 -0.08300
H 	H 	0.96955 0.46685 0.12478 0.01900
H 	H 	0.00199 0.44157 0.12498 0.04300
H 	H 	0.99500 0.46473 0.18944 0.04000
C 	C 	0.85381 0.45512 0.35747 -0.09300
H 	H 	0.84673 0.43399 0.33501 0.05600
H 	H 	0.83320 0.46442 0.38060 0.05100
H 	H 	0.87187 0.45021 0.39152 0.05300
H 	H 	0.97778 0.41323 0.20455 0.08200
H 	H 	0.87073 0.49730 0.33397 0.07700
C 	C 	0.05968 0.74608 0.98382 0.09300
C 	C 	0.04250 0.75851 0.03098 0.08600
N 	N 	0.03678 0.78843 0.03188 -0.12000
C 	C 	0.04727 0.80649 0.98714 0.05300
C 	C 	0.06448 0.79407 0.94003 -0.00100
N 	N 	0.07037 0.76409 0.93936 -0.10600
N 	N 	0.06494 0.71605 0.98242 -0.08800
N 	N 	0.03131 0.74047 0.07485 -0.11600
H 	H 	0.07317 0.80820 0.90438 0.03900
C 	C 	0.05336 0.69786 0.02597 -0.04000
C 	C 	0.03633 0.71039 0.07327 0.04100
H 	H 	0.02729 0.69628 0.10866 0.03100
C 	C 	0.07875 0.57888 0.86238 -0.12100
C 	C 	0.10690 0.57578 0.82995 0.11100
C 	C 	0.10775 0.55726 0.77945 -0.09100
C 	C 	0.08114 0.54209 0.76046 0.01100
C 	C 	0.05281 0.54649 0.79049 0.03200
C 	C 	0.05175 0.56498 0.84102 -0.01200
H 	H 	0.12923 0.55478 0.75481 0.06100
H 	H 	0.02996 0.56810 0.86425 0.01500
N 	N 	0.13414 0.59285 0.84537 -0.14300
N 	N 	0.02475 0.53332 0.76755 -0.13400
C 	C 	0.15648 0.57465 0.87884 -0.09300
H 	H 	0.14534 0.56266 0.91674 0.07100
H 	H 	0.17503 0.58932 0.89692 0.06100
H 	H 	0.16745 0.55799 0.84871 0.05600
C 	C 	0.01330 0.50942 0.80674 -0.08800
H 	H 	0.03210 0.49343 0.81855 0.04800
H 	H 	0.99495 0.49673 0.78303 0.04800
H 	H 	0.00319 0.51894 0.84822 0.03100
H 	H 	0.12910 0.61303 0.86696 0.09000
H 	H 	0.00776 0.54981 0.76169 0.07400
C 	C 	0.05814 0.59388 0.18584 -0.12300
C 	C 	0.06333 0.56643 0.21606 0.10500
C 	C 	0.04942 0.56141 0.27166 -0.09200
C 	C 	0.03100 0.58363 0.29813 0.00700
C 	C 	0.02748 0.61163 0.26988 0.03400
C 	C 	0.04140 0.61674 0.21406 -0.01600
H 	H 	0.05256 0.53999 0.29387 0.05900
H 	H 	0.03813 0.63810 0.19168 0.03700
N 	N 	0.08341 0.54381 0.19148 -0.14800
N 	N 	0.00966 0.63491 0.29806 -0.13500
C 	C 	0.11598 0.55109 0.20246 -0.09300
H 	H 	0.12240 0.57273 0.18104 0.06600
H 	H 	0.13086 0.53318 0.18347 0.05900
H 	H 	0.12057 0.55230 0.25125 0.05600
C 	C 	0.97906 0.63766 0.27039 -0.09000
H 	H 	0.98108 0.64522 0.22318 0.03900
H 	H 	0.96524 0.65450 0.29525 0.04800
H 	H 	0.96645 0.61594 0.27231 0.04500
H 	H 	0.07926 0.54024 0.14605 0.08500
H 	H 	0.02149 0.65538 0.29568 0.07900
C 	C 	0.74187 0.93797 0.90187 0.09400
C 	C 	0.73534 0.90799 0.91666 0.08700
N 	N 	0.70575 0.89772 0.91338 -0.09100
C 	C 	0.68233 0.91624 0.89578 -0.02600
C 	C 	0.68910 0.94598 0.87926 0.04000
N 	N 	0.71871 0.95627 0.88294 -0.11400
N 	N 	0.77109 0.94873 0.90857 -0.11600
N 	N 	0.75845 0.88979 0.93628 -0.10500
H 	H 	0.67086 0.96091 0.86442 0.04100
C 	C 	0.79423 0.93064 0.92898 0.05000
C 	C 	0.78780 0.90049 0.94258 -0.00000
H 	H 	0.80589 0.88589 0.95936 0.04000
C 	C 	0.52409 0.91320 0.66821 0.00900
C 	C 	0.53650 0.93686 0.70228 0.03500
C 	C 	0.54853 0.93100 0.75939 -0.01200
C 	C 	0.54749 0.90196 0.78342 -0.11900
C 	C 	0.53606 0.87801 0.74817 0.10200
C 	C 	0.52446 0.88392 0.69088 -0.09100
H 	H 	0.55789 0.94925 0.78570 0.03900
H 	H 	0.51496 0.86573 0.66459 0.05800
N 	N 	0.53690 0.96690 0.67853 -0.13400
N 	N 	0.53520 0.84772 0.77069 -0.14600
C 	C 	0.51316 0.98555 0.70672 -0.09000
H 	H 	0.48996 0.97483 0.70377 0.04700
H 	H 	0.51191 0.00742 0.68305 0.04800
H 	H 	0.51896 0.98976 0.75433 0.04100
C 	C 	0.56378 0.83164 0.75631 -0.09100
H 	H 	0.56604 0.82905 0.70715 0.05400
H 	H 	0.56299 0.80890 0.77660 0.05700
H 	H 	0.58447 0.84354 0.77389 0.06700
H 	H 	0.55883 0.97650 0.68416 0.07900
H 	H 	0.53012 0.84660 0.81627 0.08500
C 	C 	0.57687 0.96000 0.20920 0.00800
C 	C 	0.60373 0.94713 0.18475 0.03700
C 	C 	0.60160 0.92991 0.13239 -0.01200
C 	C 	0.57291 0.92603 0.10374 -0.11000
C 	C 	0.54602 0.93906 0.12838 0.10100
C 	C 	0.54807 0.95529 0.18179 -0.09000
H 	H 	0.62231 0.91983 0.11382 0.04600
H 	H 	0.52734 0.96514 0.20085 0.05300
N 	N 	0.63332 0.95180 0.21291 -0.13400
N 	N 	0.51673 0.93662 0.09796 -0.16000
C 	C 	0.65051 0.97564 0.18248 -0.09300
H 	H 	0.65592 0.96921 0.13566 0.05200
H 	H 	0.67267 0.97961 0.20639 0.05200
H 	H 	0.63707 0.99691 0.18281 0.05400
C 	C 	0.50964 0.96429 0.06543 -0.09500
H 	H 	0.50666 0.98341 0.09673 0.04600
H 	H 	0.48769 0.96131 0.04027 0.01300
H 	H 	0.52830 0.96952 0.03277 0.03200
H 	H 	0.64622 0.93192 0.21319 0.07900
H 	H 	0.49902 0.93170 0.12841 0.06900
C 	C 	0.25595 0.07765 0.98273 0.09400
C 	C 	0.24522 0.05164 0.01153 0.08600
N 	N 	0.21430 0.04690 0.01744 -0.12100
C 	C 	0.19352 0.06721 0.99588 0.06200
C 	C 	0.20432 0.09368 0.96863 -0.00300
N 	N 	0.23532 0.09827 0.96229 -0.10400
N 	N 	0.28684 0.08166 0.97414 -0.09000
N 	N 	0.26582 0.03099 0.03184 -0.11600
H 	H 	0.18815 0.11041 0.95252 0.04200
C 	C 	0.30757 0.06075 0.99357 -0.02800
C 	C 	0.29677 0.03504 0.02369 0.03200
H 	H 	0.31283 0.01814 0.03946 0.02600
C 	C 	0.39983 0.05109 0.77513 -0.11300
C 	C 	0.42881 0.05596 0.74765 0.10200
C 	C 	0.43456 0.04416 0.69059 -0.09200
C 	C 	0.41163 0.02762 0.66087 0.00600
C 	C 	0.38220 0.02417 0.68690 0.03400
C 	C 	0.37640 0.03596 0.74390 -0.01700
H 	H 	0.45726 0.04685 0.67054 0.05400
H 	H 	0.35386 0.03275 0.76434 0.04300
N 	N 	0.45273 0.07220 0.77859 -0.14100
N 	N 	0.35832 0.00801 0.65573 -0.13500
C 	C 	0.47468 0.05155 0.80678 -0.08300
H 	H 	0.46248 0.03602 0.83780 0.02600
H 	H 	0.49176 0.06461 0.83315 0.04900
H 	H 	0.48744 0.03847 0.77252 0.03800
C 	C 	0.33739 0.02881 0.62522 -0.09300
H 	H 	0.32517 0.04337 0.65789 0.05100
H 	H 	0.31979 0.01585 0.60000 0.05000
H 	H 	0.35043 0.04294 0.59281 0.05600
H 	H 	0.46433 0.08667 0.74926 0.08300
H 	H 	0.34591 0.99427 0.68523 0.07300
C 	C 	0.47164 0.06960 0.20076 0.00700
C 	C 	0.46260 0.04271 0.17162 0.03200
C 	C 	0.44821 0.04425 0.11568 -0.00900
C 	C 	0.44167 0.07203 0.08898 -0.11700
C 	C 	0.44982 0.09875 0.11864 0.11000
C 	C 	0.46441 0.09733 0.17471 -0.09300
H 	H 	0.44154 0.02367 0.09346 0.01800
H 	H 	0.47106 0.11789 0.19702 0.05600
N 	N 	0.46702 0.01371 0.19907 -0.14000
N 	N 	0.44404 0.12739 0.09098 -0.13700
C 	C 	0.43968 0.00460 0.23325 -0.09100
H 	H 	0.43317 0.02184 0.26665 0.05200
H 	H 	0.44466 0.98330 0.25718 0.04600
H 	H 	0.41983 0.00068 0.20264 0.04500
C 	C 	0.47238 0.13930 0.06400 -0.09200
H 	H 	0.49070 0.14269 0.09826 0.04800
H 	H 	0.46729 0.16132 0.04302 0.05900
H 	H 	0.48099 0.12392 0.02869 0.06100
H 	H 	0.48723 0.01193 0.22439 0.07900
H 	H 	0.43520 0.14254 0.12228 0.08400
C 	C 	0.41866 0.23464 0.95374 0.08800
C 	C 	0.44983 0.24193 0.94289 0.09400
N 	N 	0.45911 0.27100 0.94490 -0.11600
C 	C 	0.43841 0.29319 0.95718 0.05100
C 	C 	0.40734 0.28580 0.96908 0.00000
N 	N 	0.39808 0.25667 0.96698 -0.10400
N 	N 	0.40916 0.20570 0.94971 -0.08900
N 	N 	0.47033 0.21993 0.92897 -0.11400
H 	H 	0.39068 0.30316 0.97964 0.04100
C 	C 	0.42962 0.18361 0.93544 -0.02700
C 	C 	0.46086 0.19091 0.92499 0.03700
H 	H 	0.47743 0.17365 0.91346 0.03900
C 	C 	0.25460 0.58231 0.03108 0.09200
C 	C 	0.23325 0.55989 0.04698 0.08400
N 	N 	0.20321 0.56727 0.05734 -0.09500
C 	C 	0.19352 0.59623 0.05239 -0.03200
C 	C 	0.21508 0.61875 0.03785 0.03800
N 	N 	0.24517 0.61131 0.02731 -0.11500
N 	N 	0.28433 0.57474 0.01800 -0.11800
N 	N 	0.24257 0.53087 0.05023 -0.10800
H 	H 	0.20788 0.64194 0.03424 0.04100
C 	C 	0.29359 0.54555 0.02008 0.05100
C 	C 	0.27234 0.52325 0.03735 -0.00300
H 	H 	0.27948 0.50001 0.04022 0.03700
C 	C 	0.76303 0.42779 0.97564 0.08800
C 	C 	0.75325 0.45481 0.94939 0.09400
N 	N 	0.72261 0.45974 0.93983 -0.11700
C 	C 	0.70119 0.43866 0.95522 0.05100
C 	C 	0.71107 0.41135 0.98040 0.00100
N 	N 	0.74179 0.40654 0.99038 -0.10300
N 	N 	0.79364 0.42315 0.98647 -0.08700
N 	N 	0.77446 0.47596 0.93420 -0.11600
H 	H 	0.69444 0.39405 0.99164 0.04100
C 	C 	0.81500 0.44441 0.97162 -0.03500
C 	C 	0.80513 0.47131 0.94460 0.04200
H 	H 	0.82171 0.48854 0.93268 0.02600
C 	C 	0.52764 0.75555 0.95659 0.08500
C 	C 	0.55482 0.73844 0.96196 0.09400
N 	N 	0.55316 0.70803 0.96088 -0.11600
C 	C 	0.52527 0.69399 0.95513 0.05000
C 	C 	0.49809 0.71118 0.95018 -0.00100
N 	N 	0.49983 0.74161 0.95099 -0.10900
N 	N 	0.52937 0.78592 0.95596 -0.09700
N 	N 	0.58265 0.75243 0.96715 -0.11400
H 	H 	0.47580 0.70036 0.94472 0.03800
C 	C 	0.55722 0.80006 0.96092 -0.03500
C 	C 	0.58442 0.78291 0.96685 0.04300
H 	H 	0.60681 0.79372 0.97023 0.04100
