data_crystal

_cell_length_a 14.65043
_cell_length_b 16.16021
_cell_length_c 52.53138
_cell_angle_alpha 90.25104
_cell_angle_beta  90.25053
_cell_angle_gamma 119.39374

_symmetry_space_group_name_	'P 1'
_symmetry_space_group_name_H-M	'P 1'

loop_
_symmetry_equiv_pos_as_xyz
  x,y,z

loop_
_atom_site_label
_atom_site_type_symbol
_atom_site_fract_x
_atom_site_fract_y
_atom_site_fract_z
_atom_site_charge
C 	C 	0.30696 0.55390 0.07661 0.32000
O 	O 	0.35869 0.64669 0.07357 -0.34700
C 	C 	0.14850 0.34512 0.02217 0.02600
C 	C 	0.18645 0.32115 0.04409 0.07500
C 	C 	0.25854 0.39393 0.06005 0.00200
C 	C 	0.28859 0.48910 0.05485 -0.07500
C 	C 	0.26994 0.51232 0.03024 0.12900
C 	C 	0.19939 0.43984 0.01399 -0.06900
N 	N 	0.15210 0.22381 0.05031 -0.01500
N 	N 	0.32201 0.60869 0.02174 -0.02200
O 	O 	0.42384 0.65750 0.02204 -0.06400
O 	O 	0.26845 0.64388 0.01104 -0.07200
O 	O 	0.21862 0.20077 0.05982 -0.07800
N 	N 	0.12239 0.01189 0.00839 -0.03200
C 	C 	0.22719 0.97322 0.07479 -0.05400
O 	O 	0.05721 0.98761 0.02726 -0.04500
C 	C 	0.28254 0.06447 0.03456 0.01700
C 	C 	0.23238 0.07406 0.01266 0.07900
C 	C 	0.23843 0.97331 0.04827 0.04800
C 	C 	0.22895 0.81917 0.05084 0.00200
O 	O 	0.05282 0.16151 0.05006 -0.05700
C 	C 	0.38495 0.13552 0.04046 -0.06000
C 	C 	0.44364 0.20486 0.02252 0.12200
H 	H 	0.42145 0.13274 0.05819 0.09200
C 	C 	0.23222 0.89249 0.03616 0.06900
N 	N 	0.23863 0.88848 0.00906 -0.01500
H 	H 	0.23034 0.75988 0.04152 0.08600
N 	N 	0.54993 0.27434 0.02813 -0.02500
O 	O 	0.58231 0.36383 0.02408 -0.09600
O 	O 	0.61385 0.24834 0.03772 -0.08100
O 	O 	0.80913 0.38937 0.06206 -0.06200
C 	C 	0.79469 0.65906 0.03433 -0.06900
C 	C 	0.80658 0.60129 0.05241 0.03400
H 	H 	0.77896 0.71489 0.04052 0.09800
C 	C 	0.80561 0.56222 0.00021 -0.07200
C 	C 	0.79553 0.64064 0.00824 0.13800
C 	C 	0.83396 0.53322 0.04423 0.06800
N 	N 	0.85926 0.48171 0.06241 -0.01600
C 	C 	0.83250 0.51338 0.01812 -0.00100
H 	H 	0.84498 0.45561 0.01195 0.07000
H 	H 	0.79635 0.24760 0.02008 0.08000
C 	C 	0.04260 0.28036 0.01205 0.02700
C 	C 	0.86103 0.24482 0.01097 -0.00400
C 	C 	0.95402 0.27315 0.02463 0.07800
N 	N 	0.96084 0.30163 0.05072 -0.01300
O 	O 	0.90233 0.24009 0.06764 -0.04000
O 	O 	0.01670 0.39077 0.05707 -0.07800
H 	H 	0.28105 0.37592 0.07798 0.09600
C 	C 	0.23700 0.82778 0.07738 -0.07000
H 	H 	0.64782 0.45409 0.07720 0.10100
C 	C 	0.77109 0.60030 0.07889 0.02900
O 	O 	0.93193 0.52715 0.07945 -0.06600
O 	O 	0.99264 0.74351 0.08209 -0.06800
H 	H 	0.22542 0.03241 0.08410 0.09800
C 	C 	0.67836 0.52143 0.08719 -0.06300
C 	C 	0.27669 0.77365 0.09137 0.31100
C 	C 	0.22844 0.90155 0.08950 0.13700
N 	N 	0.91776 0.76114 0.08801 -0.01700
O 	O 	0.93656 0.84859 0.08908 -0.04000
O 	O 	0.21360 0.68047 0.09398 -0.33600
O 	O 	0.37997 0.81346 0.09459 -0.34100
C 	C 	0.81525 0.68451 0.09362 0.07800
O 	O 	0.25672 0.51771 0.09781 -0.34300
O 	O 	0.46243 0.38887 0.09798 -0.07100
Ni	Ni	0.45464 0.73814 0.10107 1.13000
O 	O 	0.51767 0.65316 0.10271 -0.37300
C 	C 	0.61999 0.53187 0.10683 0.13000
C 	C 	0.75611 0.69444 0.11319 -0.00700
N 	N 	0.22166 0.90415 0.11666 -0.02300
N 	N 	0.52312 0.45209 0.11463 -0.02400
C 	C 	0.65268 0.62274 0.11725 -0.06500
Ni	Ni	0.22177 0.59580 0.12325 1.12800
C 	C 	0.57287 0.65092 0.12210 0.32900
O 	O 	0.57444 0.84670 0.12148 -0.33400
H 	H 	0.78687 0.76087 0.12348 0.12800
O 	O 	0.36400 0.68439 0.12917 -0.72300
O 	O 	0.27534 0.98395 0.12898 0.00300
O 	O 	0.15519 0.82862 0.12883 -0.03600
H 	H 	0.35745 0.74008 0.13405 0.18300
F 	F 	0.78948 0.90719 0.13683 -0.37800
O 	O 	0.49785 0.44044 0.13857 -0.03800
O 	O 	0.56565 0.68312 0.14472 -0.34100
F 	F 	0.10804 0.28340 0.14875 -0.36700
C 	C 	0.57461 0.86779 0.14623 0.39500
O 	O 	0.18758 0.66358 0.15220 -0.33300
O 	O 	0.19524 0.49345 0.15074 -0.32600
O 	O 	0.36554 0.52989 0.15257 -0.35300
C 	C 	0.26752 0.47256 0.15787 0.41700
Ni	Ni	0.43009 0.67066 0.15864 1.14100
C 	C 	0.66995 0.94406 0.15810 -0.18700
C 	C 	0.76019 0.93478 0.15824 0.29600
O 	O 	0.49915 0.81138 0.16171 -0.34800
C 	C 	0.15930 0.30490 0.17150 0.29800
F 	F 	0.32576 0.88792 0.16943 -0.35800
C 	C 	0.24269 0.68972 0.17371 0.39000
C 	C 	0.24183 0.39679 0.17635 -0.19500
F 	F 	0.58045 0.01912 0.17673 -0.35000
O 	O 	0.30545 0.65495 0.18016 -0.31000
C 	C 	0.65718 0.99525 0.17812 0.32200
C 	C 	0.81377 0.94470 0.18121 0.28400
F 	F 	0.89443 0.92584 0.18198 -0.35200
C 	C 	0.12842 0.23542 0.19025 0.28400
F 	F 	0.04658 0.14723 0.18566 -0.36000
C 	C 	0.25330 0.84099 0.18765 0.29300
C 	C 	0.22010 0.74501 0.19238 -0.17900
F 	F 	0.23732 0.97882 0.19496 -0.34200
C 	C 	0.29764 0.41711 0.19948 0.29900
C 	C 	0.21004 0.88816 0.20118 0.29000
C 	C 	0.70981 0.00579 0.20124 0.25700
F 	F 	0.37862 0.50562 0.20425 -0.37700
C 	C 	0.78201 0.97224 0.20345 -0.14700
C 	C 	0.15024 0.69866 0.21226 0.30000
C 	C 	0.17868 0.25796 0.21416 -0.17000
C 	C 	0.26625 0.34791 0.21829 0.28900
C 	C 	0.13654 0.84080 0.22052 -0.16100
F 	F 	0.11923 0.60628 0.21730 -0.34500
F 	F 	0.68530 0.04221 0.22176 -0.34300
C 	C 	0.10932 0.74629 0.22645 0.29300
C 	C 	0.81951 0.96129 0.22879 0.38600
O 	O 	0.83925 0.89012 0.23266 -0.31900
C 	C 	0.09053 0.89050 0.23504 0.39000
C 	C 	0.12754 0.19543 0.23577 0.38500
O 	O 	0.14680 0.98413 0.23811 -0.30300
O 	O 	0.02784 0.16974 0.24006 -0.32600
H 	H 	0.00884 0.01554 0.24508 0.17200
F 	F 	0.31631 0.37040 0.24120 -0.33700
O 	O 	0.00007 0.83800 0.24722 -0.30800
F 	F 	0.04330 0.70052 0.24594 -0.33600
O 	O 	0.81942 0.01440 0.24815 -0.32200
O 	O 	0.18617 0.18276 0.25313 -0.30000
O 	O 	0.00348 0.01064 0.26374 -0.73000
Ni	Ni	0.90489 0.87927 0.26553 1.13900
Ni	Ni	0.14426 0.05326 0.27127 1.13000
Ni	Ni	0.94725 0.09269 0.27034 1.13900
O 	O 	0.06748 0.19376 0.29123 -0.33600
O 	O 	0.13258 0.93375 0.28911 -0.32100
F 	F 	0.16495 0.77764 0.29300 -0.33400
F 	F 	0.58271 0.83300 0.29665 -0.33800
O 	O 	0.78739 0.88375 0.28433 -0.33100
C 	C 	0.24896 0.46672 0.38564 0.39500
C 	C 	0.24441 0.47802 0.45675 0.32600
C 	C 	0.16761 0.70370 0.45461 0.32900
C 	C 	0.18735 0.72082 0.38275 0.40200
Ni	Ni	0.17335 0.56943 0.41860 1.13500
O 	O 	0.18811 0.50639 0.38683 -0.32500
O 	O 	0.22682 0.77400 0.43928 -0.33400
O 	O 	0.12811 0.65201 0.39892 -0.34200
O 	O 	0.18084 0.46318 0.43748 -0.34400
O 	O 	0.28598 0.78468 0.38830 -0.34100
O 	O 	0.16449 0.62157 0.45247 -0.36700
O 	O 	0.31791 0.65645 0.41483 -0.72500
H 	H 	0.32300 0.65811 0.39613 0.18600
C 	C 	0.11378 0.17442 0.30986 0.42100
C 	C 	0.05360 0.87588 0.30339 0.41100
O 	O 	0.14385 0.11075 0.30676 -0.32800
C 	C 	0.29075 0.37740 0.35306 0.29100
C 	C 	0.21679 0.38452 0.36850 -0.17800
C 	C 	0.11064 0.31462 0.36671 0.28900
C 	C 	0.07771 0.24255 0.34839 0.29300
C 	C 	0.15078 0.23794 0.33213 -0.18100
C 	C 	0.25784 0.30408 0.33498 0.29500
F 	F 	0.32922 0.30031 0.31933 -0.35100
F 	F 	0.97415 0.17906 0.34580 -0.34700
F 	F 	0.03917 0.31727 0.38258 -0.36900
C 	C 	0.16556 0.73952 0.33669 0.29100
C 	C 	0.13562 0.74186 0.36186 -0.18400
C 	C 	0.06667 0.77664 0.36719 0.29100
C 	C 	0.03418 0.81532 0.34772 0.28600
C 	C 	0.07067 0.81955 0.32281 -0.18100
C 	C 	0.13320 0.77810 0.31722 0.29600
F 	F 	0.22837 0.70209 0.33122 -0.33300
F 	F 	0.03604 0.77789 0.39149 -0.36400
C 	C 	0.05565 0.79744 0.50484 -0.07300
C 	C 	0.00002 0.62866 0.47829 -0.00500
C 	C 	0.09249 0.71161 0.47187 -0.06700
C 	C 	0.11758 0.79770 0.48447 0.14300
H 	H 	0.97678 0.56327 0.46782 0.08900
N 	N 	0.20681 0.88480 0.47714 -0.02600
H 	H 	0.07627 0.86321 0.51484 0.10100
N 	N 	0.09975 0.76648 0.55961 -0.02500
O 	O 	0.29126 0.92142 0.49113 -0.05400
O 	O 	0.19993 0.93222 0.45799 -0.03000
O 	O 	0.15477 0.85481 0.56674 -0.05700
O 	O 	0.14664 0.71943 0.55277 -0.05700
N 	N 	0.24847 0.15769 0.59507 -0.02400
H 	H 	0.16035 0.17708 0.55275 0.08800
C 	C 	0.23230 0.26106 0.48520 0.07500
C 	C 	0.22289 0.32007 0.46710 0.00500
C 	C 	0.21889 0.40130 0.47497 -0.07600
N 	N 	0.23607 0.17787 0.47714 -0.01400
H 	H 	0.22394 0.30547 0.44697 0.09100
O 	O 	0.18451 0.06667 0.59582 -0.05600
O 	O 	0.18326 0.09845 0.48934 -0.06800
O 	O 	0.28916 0.18058 0.45707 -0.04800
C 	C 	0.24415 0.20506 0.55108 -0.07100
C 	C 	0.24256 0.28658 0.51117 0.02800
O 	O 	0.25650 0.21071 0.61459 -0.04100
C 	C 	0.29613 0.25380 0.52904 0.03200
C 	C 	0.30141 0.20046 0.57193 0.13300
C 	C 	0.20791 0.41524 0.50101 0.13300
O 	O 	0.10607 0.49193 0.49736 -0.07100
C 	C 	0.22150 0.35853 0.51906 -0.06900
N 	N 	0.18041 0.48507 0.50909 -0.02400
H 	H 	0.22124 0.37358 0.53918 0.09400
Ni	Ni	0.35492 0.78494 0.42141 1.13300
O 	O 	0.41055 0.69232 0.51030 -0.05700
O 	O 	0.37426 0.80694 0.52219 -0.05300
Ni	Ni	0.41404 0.61555 0.42313 1.12600
O 	O 	0.32638 0.48750 0.40244 -0.32800
O 	O 	0.41342 0.78456 0.45628 -0.35500
O 	O 	0.33956 0.55090 0.45674 -0.34700
F 	F 	0.39371 0.44373 0.35481 -0.35500
N 	N 	0.43750 0.78181 0.51181 -0.02300
C 	C 	0.40451 0.28650 0.52660 0.07400
C 	C 	0.46084 0.27876 0.54714 0.00200
C 	C 	0.41130 0.24280 0.57041 -0.07400
N 	N 	0.45888 0.33363 0.50397 -0.01600
O 	O 	0.22038 0.53337 0.52997 -0.05600
O 	O 	0.46890 0.19918 0.60866 -0.33800
C 	C 	0.47542 0.26814 0.59364 0.29900
O 	O 	0.52240 0.35828 0.60137 -0.34500
C 	C 	0.50152 0.78339 0.45943 0.32600
C 	C 	0.51962 0.78052 0.38749 0.39300
O 	O 	0.52544 0.73162 0.44440 -0.33500
O 	O 	0.49944 0.69225 0.39191 -0.31900
O 	O 	0.49838 0.82952 0.40473 -0.33900
F 	F 	0.44781 0.75631 0.33667 -0.33800
C 	C 	0.57609 0.84434 0.47932 -0.07500
C 	C 	0.53889 0.85258 0.50338 0.13400
C 	C 	0.60208 0.92968 0.51929 -0.07000
H 	H 	0.57146 0.93858 0.53723 0.10000
H 	H 	0.54495 0.30820 0.54565 0.07200
O 	O 	0.47202 0.41723 0.49854 -0.06900
O 	O 	0.50490 0.29764 0.49033 -0.05100
O 	O 	0.59096 0.15723 0.50434 -0.07000
Ni	Ni	0.59329 0.20147 0.62695 1.13600
C 	C 	0.55177 0.81294 0.34127 0.29000
C 	C 	0.58988 0.83186 0.36638 -0.17900
Ni	Ni	0.60232 0.40119 0.63432 1.14000
O 	O 	0.65903 0.19604 0.59381 -0.35800
C 	C 	0.70393 0.99631 0.51198 0.04100
N 	N 	0.68092 0.16057 0.50162 -0.01900
C 	C 	0.68144 0.90558 0.47310 -0.00400
O 	O 	0.71977 0.16808 0.47900 -0.05400
O 	O 	0.61003 0.58699 0.58391 -0.05500
O 	O 	0.67500 0.33570 0.62505 -0.72100
H 	H 	0.67650 0.34375 0.60646 0.15900
C 	C 	0.69758 0.89042 0.37097 0.29600
C 	C 	0.62093 0.85062 0.32085 0.29700
F 	F 	0.73529 0.90851 0.39521 -0.36000
C 	C 	0.76181 0.08512 0.52697 0.01600
C 	C 	0.73863 0.15941 0.52356 0.07200
H 	H 	0.73568 0.27843 0.54126 0.07400
C 	C 	0.74621 0.98078 0.48957 0.08500
H 	H 	0.71190 0.89733 0.45507 0.11200
O 	O 	0.60120 0.51208 0.54703 -0.07400
C 	C 	0.76067 0.22572 0.54319 -0.00500
C 	C 	0.76176 0.24044 0.58984 0.29700
N 	N 	0.65664 0.56939 0.56536 -0.02600
O 	O 	0.71833 0.52582 0.61908 -0.32400
C 	C 	0.72927 0.90632 0.32538 -0.17600
C 	C 	0.81931 0.08610 0.54851 -0.06700
C 	C 	0.79866 0.21456 0.56673 -0.07100
C 	C 	0.76713 0.92704 0.35056 0.30200
C 	C 	0.83821 0.15089 0.56844 0.12500
H 	H 	0.84206 0.03199 0.55067 0.08600
O 	O 	0.85351 0.06734 0.60363 -0.05400
O 	O 	0.83066 0.29286 0.60796 -0.31900
N 	N 	0.85528 0.03844 0.48396 -0.02900
C 	C 	0.78730 0.53393 0.60134 0.29700
Ni	Ni	0.81898 0.39282 0.63189 1.13000
N 	N 	0.88982 0.14657 0.59118 -0.02500
C 	C 	0.76860 0.61944 0.56394 0.12200
O 	O 	0.83785 0.48467 0.60253 -0.34600
O 	O 	0.89529 0.12948 0.48081 -0.05800
H 	H 	0.77094 0.66409 0.52516 0.09400
C 	C 	0.80296 0.94063 0.30387 0.42200
O 	O 	0.77168 0.49589 0.49515 -0.06400
F 	F 	0.87164 0.97911 0.35523 -0.32100
O 	O 	0.91307 0.99891 0.48037 -0.04400
C 	C 	0.82985 0.61630 0.58426 -0.05900
C 	C 	0.81796 0.66702 0.54149 -0.05800
O 	O 	0.87390 0.03107 0.30282 -0.33300
N 	N 	0.85873 0.53837 0.50812 -0.01900
O 	O 	0.97657 0.22029 0.59860 -0.04100
O 	O 	0.87282 0.49619 0.52756 -0.07800
C 	C 	0.93877 0.67618 0.58376 -0.00200
C 	C 	0.92703 0.70698 0.53903 0.02100
H 	H 	0.98606 0.67976 0.60011 0.09700
C 	C 	0.94250 0.62712 0.49958 0.07600
F 	F 	0.97228 0.85361 0.35333 -0.34100
O 	O 	0.95927 0.86486 0.29991 -0.33200
C 	C 	0.97220 0.71148 0.51352 0.04100
C 	C 	0.98804 0.71934 0.56102 0.08500
O 	O 	0.70014 0.17237 0.64357 -0.33900
O 	O 	0.47349 0.29839 0.65156 -0.33100
O 	O 	0.84086 0.50521 0.65588 -0.32100
O 	O 	0.53666 0.19839 0.66172 -0.33100
C 	C 	0.75847 0.22041 0.66316 0.41100
O 	O 	0.80212 0.31309 0.66402 -0.32400
C 	C 	0.47447 0.23341 0.66645 0.40800
O 	O 	0.67127 0.43524 0.66901 -0.33100
F 	F 	0.35643 0.03414 0.67321 -0.35900
C 	C 	0.76955 0.50013 0.67195 0.40700
F 	F 	0.97000 0.27974 0.67540 -0.35200
F 	F 	0.65006 0.59214 0.68033 -0.36000
C 	C 	0.39534 0.19038 0.68650 -0.18200
C 	C 	0.78786 0.17184 0.68237 -0.18700
C 	C 	0.34016 0.09113 0.68946 0.30000
F 	F 	0.60738 0.05940 0.68955 -0.35300
C 	C 	0.79798 0.57403 0.69172 -0.18100
C 	C 	0.89381 0.20750 0.68887 0.29600
C 	C 	0.71001 0.09444 0.69570 0.29600
C 	C 	0.73467 0.61608 0.69556 0.29600
C 	C 	0.37551 0.24824 0.70298 0.29500
F 	F 	0.42992 0.34422 0.70069 -0.34300
C 	C 	0.88655 0.60108 0.70724 0.29800
F 	F 	0.94691 0.55949 0.70415 -0.33900
C 	C 	0.26634 0.05037 0.70883 0.27600
F 	F 	0.21247 0.95445 0.71130 -0.33400
C 	C 	0.75997 0.68467 0.71468 0.29400
F 	F 	0.02402 0.20465 0.71555 -0.36200
C 	C 	0.92140 0.16904 0.70931 0.29900
C 	C 	0.73761 0.05565 0.71611 0.27500
F 	F 	0.69978 0.72644 0.71773 -0.34200
C 	C 	0.30126 0.20738 0.72224 0.29700
C 	C 	0.84339 0.09399 0.72328 -0.17000
C 	C 	0.24627 0.10824 0.72521 -0.17500
F 	F 	0.66138 0.98331 0.72954 -0.32500
C 	C 	0.84905 0.71232 0.73005 -0.17100
C 	C 	0.91188 0.66974 0.72636 0.30000
F 	F 	0.28408 0.26417 0.73836 -0.34500
F 	F 	0.99683 0.69420 0.74150 -0.33700
C 	C 	0.16663 0.06544 0.74508 0.40500
O 	O 	0.09745 0.09391 0.74771 -0.33700
C 	C 	0.87224 0.05792 0.74577 0.38200
O 	O 	0.82878 0.96610 0.74925 -0.29400
C 	C 	0.88051 0.78975 0.74884 0.40700
O 	O 	0.97833 0.85763 0.74977 -0.31800
O 	O 	0.17490 0.00985 0.76213 -0.33400
O 	O 	0.81185 0.78773 0.76529 -0.30400
O 	O 	0.93005 0.11750 0.76378 -0.31200
Ni	Ni	0.04703 0.10758 0.78193 1.13700
Ni	Ni	0.05357 0.91381 0.78304 1.13800
Ni	Ni	0.82885 0.90851 0.78445 1.13900
O 	O 	0.97454 0.97610 0.78913 -0.71200
O 	O 	0.17970 0.12832 0.80017 -0.31600
O 	O 	0.81270 0.01605 0.80358 -0.31100
O 	O 	0.94681 0.79681 0.80281 -0.30300
H 	H 	0.97773 0.97876 0.80787 0.18200
O 	O 	0.13940 0.97814 0.81426 -0.30800
F 	F 	0.82716 0.60367 0.81237 -0.33600
O 	O 	0.98560 0.12603 0.81432 -0.29700
C 	C 	0.18308 0.07144 0.81800 0.36200
O 	O 	0.82306 0.83578 0.81738 -0.30200
C 	C 	0.88262 0.79583 0.82093 0.38100
C 	C 	0.88341 0.08379 0.81892 0.38200
F 	F 	0.95767 0.28186 0.82169 -0.33200
F 	F 	0.33158 0.01571 0.83245 -0.35200
C 	C 	0.82555 0.63236 0.83663 0.29200
C 	C 	0.25447 0.11461 0.83981 -0.16800
C 	C 	0.84690 0.12633 0.83844 -0.15600
C 	C 	0.85540 0.72771 0.84188 -0.16700
C 	C 	0.89000 0.22561 0.83979 0.29400
C 	C 	0.32656 0.08440 0.84635 0.28500
F 	F 	0.75879 0.47325 0.85072 -0.33800
C 	C 	0.25253 0.18791 0.85384 0.28000
F 	F 	0.18206 0.21659 0.84797 -0.36000
F 	F 	0.73338 0.97312 0.85594 -0.32700
C 	C 	0.77434 0.06887 0.85679 0.27200
C 	C 	0.79016 0.56563 0.85621 0.29700
C 	C 	0.86245 0.26699 0.85960 0.30500
F 	F 	0.90392 0.36280 0.86057 -0.33700
C 	C 	0.39553 0.12674 0.86683 0.29300
F 	F 	0.46526 0.09739 0.87287 -0.35800
C 	C 	0.85002 0.75575 0.86692 0.28800
C 	C 	0.32200 0.23066 0.87422 0.29500
C 	C 	0.74612 0.11029 0.87650 0.30900
C 	C 	0.79054 0.20962 0.87804 -0.18300
F 	F 	0.87907 0.84777 0.87223 -0.34700
C 	C 	0.39391 0.20033 0.88076 -0.19000
C 	C 	0.78456 0.59356 0.88128 -0.18200
F 	F 	0.31776 0.29996 0.88800 -0.36800
C 	C 	0.81503 0.68908 0.88656 0.29300
F 	F 	0.67710 0.05409 0.89438 -0.36200
C 	C 	0.75850 0.25281 0.89833 0.41900
C 	C 	0.46564 0.24385 0.90245 0.41100
O 	O 	0.65838 0.21932 0.90251 -0.32900
C 	C 	0.75095 0.52367 0.90202 0.40400
O 	O 	0.78507 0.46234 0.90262 -0.33100
O 	O 	0.51641 0.33658 0.90505 -0.32700
F 	F 	0.81261 0.71762 0.91077 -0.35400
O 	O 	0.83003 0.31650 0.91378 -0.34100
O 	O 	0.46673 0.18957 0.92083 -0.34600
O 	O 	0.68780 0.52369 0.91973 -0.32100
O 	O 	0.00519 0.23985 0.93153 -0.05300
Ni	Ni	0.80901 0.41014 0.93539 1.13200
Ni	Ni	0.58327 0.40213 0.93949 1.12700
Ni	Ni	0.60130 0.20929 0.93754 1.13800
O 	O 	0.85035 0.11020 0.93957 -0.02100
O 	O 	0.66450 0.34180 0.94323 -0.72000
N 	N 	0.93058 0.18901 0.94734 -0.02300
O 	O 	0.45963 0.29299 0.95984 -0.33700
O 	O 	0.71951 0.19539 0.95428 -0.33400
O 	O 	0.82387 0.52365 0.95650 -0.33300
H 	H 	0.66952 0.34168 0.96191 0.15900
O 	O 	0.83612 0.35229 0.96604 -0.37200
O 	O 	0.52535 0.19262 0.97081 -0.34700
O 	O 	0.65851 0.48128 0.97174 -0.33300
C 	C 	0.79758 0.25949 0.96883 0.30600
O 	O 	0.84281 0.73177 0.97050 -0.00900
C 	C 	0.93850 0.21789 0.97345 0.14300
H 	H 	0.09726 0.24460 0.97788 0.09500
H 	H 	0.25682 0.14473 0.97648 0.08400
O 	O 	0.08694 0.98212 0.98548 -0.03700
O 	O 	0.15822 0.82627 0.99604 -0.05300
C 	C 	0.46973 0.23531 0.97626 0.30200
C 	C 	0.76058 0.51636 0.97557 0.30200
N 	N 	0.78078 0.69868 0.98996 -0.02600
C 	C 	0.85773 0.22876 0.98469 -0.07500
C 	C 	0.03137 0.24465 0.98718 -0.08000
H 	H 	0.17744 0.45785 0.99597 0.09100
C 	C 	0.29232 0.14247 0.99443 -0.00500
O 	O 	0.70765 0.72117 0.99322 -0.04600
C 	C 	0.40036 0.20136 0.99834 -0.07200
O 	O 	0.32825 0.93829 0.99785 -0.05800
