data_crystal

_cell_length_a 26.07718
_cell_length_b 26.37822
_cell_length_c 33.65369
_cell_angle_alpha 95.57625
_cell_angle_beta  95.57103
_cell_angle_gamma 125.58631

_symmetry_space_group_name_	'P 1'
_symmetry_space_group_name_H-M	'P 1'

loop_
_symmetry_equiv_pos_as_xyz
  x,y,z

loop_
_atom_site_label
_atom_site_type_symbol
_atom_site_fract_x
_atom_site_fract_y
_atom_site_fract_z
_atom_site_charge
C 	C 	0.96815 0.02733 0.97890 0.11800
N 	N 	0.03016 0.05731 0.97444 -0.14300
C 	C 	0.05546 0.02457 0.97198 0.12100
N 	N 	0.01763 0.96124 0.97171 -0.14200
C 	C 	0.95486 0.93068 0.97413 0.12400
N 	N 	0.93041 0.96393 0.97848 -0.14100
C 	C 	0.93188 0.00120 0.46630 0.12100
N 	N 	0.89997 0.93861 0.46790 -0.14200
C 	C 	0.93338 0.91477 0.47576 0.12500
N 	N 	0.99844 0.95335 0.48141 -0.14300
C 	C 	0.03036 0.01592 0.48015 0.12400
N 	N 	0.99703 0.03973 0.47236 -0.14500
Cu	Cu	0.64442 0.24552 0.00681 0.92500
Cu	Cu	0.70554 0.24389 0.92610 0.87100
Cu	Cu	0.68879 0.34414 0.95188 0.89800
Cu	Cu	0.63844 0.36089 0.02497 0.89200
C 	C 	0.64633 0.29223 0.08868 0.25900
O 	O 	0.54878 0.20355 0.99862 -0.36300
C 	C 	0.67888 0.29751 0.86565 0.26100
O 	O 	0.69461 0.34359 0.00897 -0.64400
O 	O 	0.64410 0.25083 0.94852 -0.63900
O 	O 	0.68657 0.20247 0.01183 -0.37600
O 	O 	0.76146 0.26531 0.97540 -0.43900
O 	O 	0.62060 0.31862 0.07320 -0.38600
O 	O 	0.73540 0.43530 0.95972 -0.38400
C 	C 	0.72363 0.46858 0.98381 0.30600
C 	C 	0.52408 0.23031 0.98287 0.29100
O 	O 	0.56221 0.28815 0.97598 -0.39300
O 	O 	0.67495 0.44086 0.00326 -0.40500
O 	O 	0.65728 0.25753 0.06516 -0.35700
C 	C 	0.74231 0.22608 0.00102 0.29200
O 	O 	0.69964 0.34657 0.89455 -0.38100
O 	O 	0.67048 0.24585 0.87439 -0.41300
H 	H 	0.73895 0.37192 0.02497 0.15900
H 	H 	0.60091 0.22462 0.93098 0.17200
Cu	Cu	0.72438 0.33598 0.44774 0.92600
Cu	Cu	0.74120 0.29059 0.53256 0.86900
Cu	Cu	0.63202 0.29634 0.50779 0.89700
Cu	Cu	0.60096 0.33147 0.43166 0.89200
C 	C 	0.66274 0.31569 0.36591 0.26000
O 	O 	0.75935 0.42836 0.44977 -0.36400
C 	C 	0.68911 0.31752 0.59413 0.26100
O 	O 	0.62597 0.28260 0.45013 -0.64100
O 	O 	0.72607 0.34438 0.50712 -0.64000
O 	O 	0.77238 0.29856 0.44409 -0.37600
O 	O 	0.71719 0.22988 0.48569 -0.44500
O 	O 	0.63699 0.34252 0.38079 -0.38200
O 	O 	0.53983 0.24587 0.50390 -0.38400
C 	C 	0.50091 0.25122 0.47960 0.30000
C 	C 	0.73252 0.45197 0.46700 0.29500
O 	O 	0.67618 0.41370 0.47677 -0.39200
O 	O 	0.52297 0.29513 0.45674 -0.39900
O 	O 	0.70566 0.31448 0.38938 -0.35400
C 	C 	0.75268 0.24610 0.45764 0.29900
O 	O 	0.63713 0.29460 0.56663 -0.38000
O 	O 	0.74198 0.32982 0.58345 -0.41400
H 	H 	0.59819 0.23733 0.43663 0.15900
H 	H 	0.75198 0.38860 0.52239 0.17200
C 	C 	0.66374 0.26566 0.76020 0.07400
C 	C 	0.63037 0.23937 0.71984 -0.08300
C 	C 	0.66433 0.26835 0.68930 0.00700
C 	C 	0.72496 0.32600 0.69869 0.07200
C 	C 	0.75440 0.35690 0.73926 -0.08300
C 	C 	0.72463 0.32301 0.76961 0.00600
N 	N 	0.63467 0.25554 0.79245 -0.15200
C 	C 	0.67719 0.30526 0.82306 -0.00200
C 	C 	0.73265 0.34958 0.80922 -0.04400
N 	N 	0.73639 0.35664 0.66728 -0.15200
C 	C 	0.68406 0.31823 0.63723 -0.00200
C 	C 	0.63711 0.26409 0.65071 -0.04500
H 	H 	0.57953 0.20060 0.71275 0.05100
H 	H 	0.79636 0.40605 0.74680 0.05100
H 	H 	0.77863 0.38661 0.82843 0.04200
H 	H 	0.59665 0.22038 0.63130 0.04300
H 	H 	0.59497 0.21139 0.79610 0.08100
H 	H 	0.78185 0.39417 0.66336 0.08300
C 	C 	0.69636 0.33590 0.26792 0.07500
C 	C 	0.72542 0.33618 0.23478 -0.08200
C 	C 	0.69524 0.33173 0.19630 0.00700
C 	C 	0.63415 0.31670 0.19028 0.07500
C 	C 	0.60146 0.30754 0.22264 -0.08500
C 	C 	0.63602 0.32260 0.26181 0.01200
N 	N 	0.70836 0.32280 0.30383 -0.15100
C 	C 	0.65663 0.30305 0.32147 0.00300
C 	C 	0.60950 0.29939 0.29504 -0.04800
N 	N 	0.60449 0.28882 0.15151 -0.15200
C 	C 	0.64692 0.28790 0.13186 0.00300
C 	C 	0.70312 0.31181 0.15932 -0.04700
H 	H 	0.76740 0.33659 0.23846 0.05300
H 	H 	0.55065 0.28648 0.21734 0.05000
H 	H 	0.56866 0.29597 0.30341 0.04100
H 	H 	0.74902 0.32860 0.15122 0.04200
H 	H 	0.75418 0.34099 0.31931 0.09300
H 	H 	0.56322 0.28286 0.13762 0.08400
C 	C 	0.76077 0.51982 0.46936 -0.11100
C 	C 	0.72617 0.53918 0.44933 0.12500
C 	C 	0.75328 0.60402 0.45411 -0.09900
C 	C 	0.81588 0.64995 0.47580 0.00400
C 	C 	0.85095 0.63082 0.49534 0.05600
C 	C 	0.82282 0.56577 0.49201 -0.02200
N 	N 	0.66835 0.49617 0.42418 -0.20000
H 	H 	0.72672 0.61894 0.43914 0.05600
C 	C 	0.84568 0.71780 0.47536 -0.01000
N 	N 	0.91149 0.67445 0.51715 -0.19200
H 	H 	0.84929 0.55090 0.50718 0.03500
C 	C 	0.84067 0.75331 0.50643 -0.08500
C 	C 	0.86786 0.81763 0.50682 0.09700
C 	C 	0.89920 0.84627 0.47482 -0.04900
C 	C 	0.90281 0.81028 0.44327 -0.05400
C 	C 	0.87688 0.74643 0.44334 0.07100
H 	H 	0.81624 0.73102 0.53069 0.05200
N 	N 	0.86457 0.85165 0.53823 -0.19900
H 	H 	0.92702 0.83243 0.41890 0.04800
N 	N 	0.88261 0.71316 0.41285 -0.19500
H 	H 	0.84106 0.82991 0.56156 0.08200
H 	H 	0.88564 0.89988 0.54011 0.09000
H 	H 	0.90535 0.73465 0.38923 0.08200
H 	H 	0.86521 0.66605 0.41237 0.08900
H 	H 	0.93718 0.65986 0.53114 0.08000
H 	H 	0.93352 0.72309 0.52070 0.08700
H 	H 	0.65086 0.44900 0.41527 0.06700
H 	H 	0.64184 0.51062 0.41126 0.08000
C 	C 	0.77779 0.21032 0.44589 -0.12100
C 	C 	0.73544 0.14435 0.42993 0.12800
C 	C 	0.75896 0.10808 0.42953 -0.10200
C 	C 	0.82410 0.13688 0.44398 0.00400
C 	C 	0.86751 0.20376 0.45619 0.05400
C 	C 	0.84379 0.23988 0.45694 -0.02500
N 	N 	0.67247 0.11579 0.41464 -0.20400
H 	H 	0.72622 0.05713 0.41879 0.05500
C 	C 	0.84553 0.09623 0.44866 -0.01000
N 	N 	0.93162 0.23339 0.46784 -0.19200
H 	H 	0.87644 0.29074 0.46810 0.03100
C 	C 	0.86633 0.07999 0.41620 -0.08500
C 	C 	0.89139 0.04552 0.42056 0.09700
C 	C 	0.89607 0.02751 0.45827 -0.05000
C 	C 	0.87215 0.04083 0.48999 -0.05500
C 	C 	0.84693 0.07515 0.48564 0.06900
H 	H 	0.86386 0.09499 0.38764 0.05200
N 	N 	0.91036 0.02949 0.38843 -0.19900
H 	H 	0.87493 0.02611 0.51863 0.04400
N 	N 	0.82480 0.08818 0.51713 -0.19400
H 	H 	0.90832 0.04439 0.36103 0.08100
H 	H 	0.92559 0.00072 0.38989 0.08900
H 	H 	0.82674 0.07304 0.54444 0.07800
H 	H 	0.80498 0.11283 0.51480 0.08200
H 	H 	0.96308 0.28264 0.47758 0.07800
H 	H 	0.95103 0.20821 0.46672 0.08600
H 	H 	0.65479 0.14227 0.41151 0.08700
H 	H 	0.64096 0.06671 0.40418 0.08100
C 	C 	0.10073 0.05682 0.48426 -0.05000
C 	C 	0.14081 0.06417 0.51937 0.09800
C 	C 	0.20654 0.09529 0.51964 -0.08600
C 	C 	0.23331 0.12186 0.48640 -0.00900
C 	C 	0.19377 0.11723 0.45208 0.07000
C 	C 	0.12774 0.08463 0.45140 -0.05400
N 	N 	0.11690 0.04310 0.55320 -0.19900
H 	H 	0.23723 0.09992 0.54613 0.05200
C 	C 	0.30290 0.15467 0.48797 0.00400
N 	N 	0.21873 0.14359 0.41970 -0.19400
H 	H 	0.09701 0.07953 0.42474 0.04700
C 	C 	0.32408 0.11974 0.47293 -0.09900
C 	C 	0.38898 0.15013 0.47060 0.12200
C 	C 	0.43348 0.21664 0.48427 -0.11100
C 	C 	0.41264 0.25112 0.50075 -0.02100
C 	C 	0.34773 0.22081 0.50283 0.05600
H 	H 	0.28962 0.06895 0.46202 0.05500
N 	N 	0.40785 0.11543 0.45451 -0.20400
H 	H 	0.44701 0.30194 0.51161 0.04100
N 	N 	0.32876 0.25548 0.51880 -0.19200
H 	H 	0.37457 0.06635 0.44459 0.07900
H 	H 	0.45536 0.13659 0.45141 0.08000
H 	H 	0.36215 0.30443 0.52923 0.08100
H 	H 	0.28105 0.23436 0.52138 0.08700
H 	H 	0.18906 0.13974 0.39450 0.08000
H 	H 	0.26760 0.16825 0.41917 0.08600
H 	H 	0.06994 0.02581 0.55557 0.08900
H 	H 	0.14631 0.04655 0.57839 0.08200
C 	C 	0.75643 0.53610 0.98213 -0.11200
C 	C 	0.82359 0.58121 0.99577 0.12600
C 	C 	0.85299 0.64504 0.99312 -0.09200
C 	C 	0.81637 0.66469 0.97824 0.00100
C 	C 	0.74920 0.61966 0.96484 0.05800
C 	C 	0.71995 0.55572 0.96688 -0.02000
N 	N 	0.85979 0.56396 0.01223 -0.20600
H 	H 	0.90444 0.67978 0.00335 0.05000
C 	C 	0.84900 0.73260 0.97686 -0.00200
N 	N 	0.71257 0.63747 0.95015 -0.19200
H 	H 	0.66853 0.52101 0.95644 0.04200
C 	C 	0.87208 0.75463 0.94172 -0.08600
C 	C 	0.90326 0.81871 0.93921 0.09900
C 	C 	0.91394 0.86192 0.97326 -0.04500
C 	C 	0.88951 0.83964 0.00805 -0.05900
C 	C 	0.85701 0.77525 0.01023 0.06500
H 	H 	0.86484 0.72155 0.91600 0.05400
N 	N 	0.92141 0.83812 0.90380 -0.19900
H 	H 	0.89715 0.87278 0.03390 0.04700
N 	N 	0.83390 0.75481 0.04440 -0.19400
H 	H 	0.91547 0.80640 0.87933 0.08200
H 	H 	0.93904 0.88390 0.89958 0.09000
H 	H 	0.84029 0.78675 0.06890 0.08100
H 	H 	0.80919 0.70722 0.04699 0.08500
H 	H 	0.66300 0.60381 0.94037 0.08200
H 	H 	0.73266 0.68464 0.94831 0.08800
H 	H 	0.83905 0.51779 0.01697 0.07800
H 	H 	0.90949 0.59746 0.02148 0.07900
C 	C 	0.77718 0.19934 0.01112 -0.12000
C 	C 	0.84486 0.23923 0.02309 0.12500
C 	C 	0.87849 0.21286 0.02099 -0.10400
C 	C 	0.84538 0.14722 0.00885 0.00600
C 	C 	0.77740 0.10666 0.00165 0.05000
C 	C 	0.74390 0.13325 0.00263 -0.03200
N 	N 	0.87755 0.30249 0.03727 -0.20400
H 	H 	0.93055 0.24356 0.02820 0.05500
C 	C 	0.88221 0.12196 0.00129 -0.02000
N 	N 	0.74415 0.04244 0.99326 -0.18900
H 	H 	0.69187 0.10252 0.99484 0.04200
C 	C 	0.90732 0.10870 0.03399 -0.08000
C 	C 	0.93839 0.08036 0.02754 0.08800
C 	C 	0.94339 0.06420 0.98746 -0.04100
C 	C 	0.92070 0.07987 0.95499 -0.06000
C 	C 	0.89053 0.10913 0.96151 0.07800
H 	H 	0.90199 0.11980 0.06451 0.05000
N 	N 	0.96356 0.06915 0.05988 -0.19800
H 	H 	0.92563 0.06835 0.92443 0.04700
N 	N 	0.86956 0.12456 0.92953 -0.19500
H 	H 	0.95837 0.07996 0.08925 0.08000
H 	H 	0.98976 0.05111 0.05641 0.08500
H 	H 	0.87482 0.11377 0.90019 0.07800
H 	H 	0.84897 0.14835 0.93348 0.08200
H 	H 	0.69395 0.01294 0.98691 0.08000
H 	H 	0.76757 0.02111 0.99390 0.08800
H 	H 	0.85345 0.32227 0.04307 0.08700
H 	H 	0.92771 0.33211 0.04450 0.07900
C 	C 	0.12355 0.05719 0.96883 -0.04800
C 	C 	0.17339 0.11395 0.99612 0.10000
C 	C 	0.23720 0.14394 0.99126 -0.07900
C 	C 	0.25292 0.11434 0.96332 -0.01000
C 	C 	0.20335 0.05659 0.93685 0.07200
C 	C 	0.13906 0.02975 0.93903 -0.06000
N 	N 	0.16087 0.13763 0.02842 -0.20100
H 	H 	0.27534 0.18812 0.01151 0.04600
C 	C 	0.32125 0.14003 0.96591 -0.00100
N 	N 	0.21706 0.02652 0.90956 -0.19700
H 	H 	0.10093 0.98645 0.91805 0.05200
C 	C 	0.35167 0.13292 0.99923 -0.08400
C 	C 	0.41846 0.16577 0.00695 0.11100
C 	C 	0.45422 0.19864 0.97744 -0.10700
C 	C 	0.42322 0.20324 0.94299 -0.02900
C 	C 	0.35745 0.17618 0.93766 0.05800
H 	H 	0.32388 0.10570 0.02099 0.04900
N 	N 	0.44820 0.16938 0.04377 -0.20200
H 	H 	0.45058 0.22896 0.92062 0.04000
N 	N 	0.32954 0.18513 0.90551 -0.19300
H 	H 	0.42129 0.14029 0.06365 0.08400
H 	H 	0.49689 0.20527 0.05478 0.09900
H 	H 	0.35663 0.21152 0.88470 0.08000
H 	H 	0.28106 0.16655 0.90097 0.08600
H 	H 	0.18005 0.98397 0.89014 0.08400
H 	H 	0.26427 0.04472 0.90736 0.08700
H 	H 	0.11698 0.11045 0.03796 0.08900
H 	H 	0.19719 0.18187 0.04650 0.08100
