data_crystal

_cell_length_a 26.16350
_cell_length_b 26.43501
_cell_length_c 39.78555
_cell_angle_alpha 95.49470
_cell_angle_beta  95.49248
_cell_angle_gamma 125.85209

_symmetry_space_group_name_	'P 1'
_symmetry_space_group_name_H-M	'P 1'

loop_
_symmetry_equiv_pos_as_xyz
  x,y,z

loop_
_atom_site_label
_atom_site_type_symbol
_atom_site_fract_x
_atom_site_fract_y
_atom_site_fract_z
_atom_site_charge
C 	C 	0.96235 0.02749 0.99891 0.16900
C 	C 	0.05776 0.03628 0.00296 0.18300
N 	N 	0.02697 0.06344 0.00057 -0.12500
N 	N 	0.00511 0.03596 0.46182 -0.10900
Cu	Cu	0.63298 0.23761 0.00267 0.93700
Cu	Cu	0.66897 0.23870 0.92588 0.88500
Cu	Cu	0.66962 0.34281 0.96175 0.90500
Cu	Cu	0.64855 0.36073 0.03321 0.90500
C 	C 	0.66404 0.28196 0.07575 0.30700
O 	O 	0.54267 0.20700 0.00721 -0.32200
C 	C 	0.63514 0.30172 0.88564 0.29100
O 	O 	0.69100 0.33720 0.00800 -0.63800
O 	O 	0.61915 0.24829 0.95493 -0.63600
O 	O 	0.66633 0.18720 0.99423 -0.32700
O 	O 	0.73283 0.25227 0.96059 -0.42300
O 	O 	0.63841 0.31188 0.07063 -0.36400
O 	O 	0.72332 0.43462 0.97132 -0.34400
C 	C 	0.72254 0.47043 0.99656 0.34600
C 	C 	0.52099 0.23883 0.99824 0.33200
O 	O 	0.56162 0.29815 0.99492 -0.38800
O 	O 	0.68917 0.44648 0.02116 -0.37600
O 	O 	0.66029 0.24332 0.05029 -0.32100
C 	C 	0.71768 0.21025 0.98036 0.33800
O 	O 	0.66217 0.34873 0.91249 -0.36300
O 	O 	0.62545 0.24756 0.88840 -0.39800
H 	H 	0.73759 0.36142 0.01688 0.19000
H 	H 	0.57369 0.22543 0.94386 0.19500
Cu	Cu	0.74232 0.34174 0.46185 0.93300
Cu	Cu	0.73672 0.30036 0.53721 0.89600
Cu	Cu	0.63626 0.30706 0.50280 0.90500
Cu	Cu	0.61807 0.32725 0.43158 0.90300
C 	C 	0.69699 0.31174 0.38881 0.29200
O 	O 	0.77372 0.43187 0.45811 -0.32000
C 	C 	0.67150 0.32946 0.57874 0.30800
O 	O 	0.64146 0.28460 0.45659 -0.63800
O 	O 	0.73148 0.35434 0.50979 -0.63400
O 	O 	0.79248 0.30735 0.46938 -0.35200
O 	O 	0.72396 0.23954 0.50130 -0.39400
O 	O 	0.66760 0.33793 0.39426 -0.36800
O 	O 	0.54340 0.25510 0.49386 -0.34400
C 	C 	0.50678 0.25236 0.46733 0.34600
C 	C 	0.74110 0.45299 0.46689 0.33200
O 	O 	0.68135 0.41241 0.47039 -0.38800
O 	O 	0.53124 0.28672 0.44328 -0.37900
O 	O 	0.73660 0.31569 0.41405 -0.34700
C 	C 	0.76852 0.25601 0.48287 0.33600
O 	O 	0.63187 0.32135 0.55179 -0.35400
O 	O 	0.72650 0.33996 0.57582 -0.38700
H 	H 	0.61641 0.23837 0.44787 0.18500
H 	H 	0.75594 0.39909 0.52167 0.19900
C 	C 	0.62405 0.31316 0.85112 -0.07400
C 	C 	0.56863 0.26512 0.82717 0.02200
C 	C 	0.56393 0.27017 0.79252 -0.05600
C 	C 	0.61502 0.32289 0.78142 0.03400
C 	C 	0.66840 0.37302 0.80578 -0.05400
C 	C 	0.67270 0.36833 0.84051 0.02100
C 	C 	0.61640 0.32176 0.74428 0.01100
C 	C 	0.62647 0.37220 0.72927 -0.03000
C 	C 	0.63361 0.37362 0.69485 -0.02200
C 	C 	0.63033 0.32449 0.67523 0.00600
C 	C 	0.61839 0.27326 0.68989 -0.02300
C 	C 	0.61166 0.27195 0.72427 -0.03100
C 	C 	0.64368 0.32849 0.64087 0.06200
C 	C 	0.65583 0.32998 0.61233 -0.08000
H 	H 	0.53024 0.22284 0.83517 0.04900
H 	H 	0.52185 0.23184 0.77406 0.06400
H 	H 	0.70793 0.41417 0.79758 0.06400
H 	H 	0.71549 0.40597 0.85882 0.05500
H 	H 	0.62979 0.41069 0.74439 0.06000
H 	H 	0.64276 0.41337 0.68367 0.06200
H 	H 	0.61583 0.23514 0.67487 0.05700
H 	H 	0.60434 0.23301 0.73560 0.05500
C 	C 	0.69819 0.29270 0.35297 -0.07200
C 	C 	0.75572 0.30889 0.34348 0.02600
C 	C 	0.75884 0.29943 0.30873 -0.05400
C 	C 	0.70448 0.27358 0.28322 0.03600
C 	C 	0.64621 0.25428 0.29284 -0.05500
C 	C 	0.64306 0.26368 0.32752 0.02200
C 	C 	0.70989 0.27236 0.24656 0.01200
C 	C 	0.75012 0.32953 0.23489 -0.02800
C 	C 	0.74699 0.32985 0.19964 -0.02200
C 	C 	0.70365 0.27311 0.17580 0.01100
C 	C 	0.66619 0.21549 0.18739 -0.02100
C 	C 	0.66941 0.21505 0.22266 -0.02900
C 	C 	0.69149 0.27516 0.14003 0.06400
C 	C 	0.67981 0.27778 0.11044 -0.06600
H 	H 	0.79857 0.33101 0.36286 0.06100
H 	H 	0.80390 0.31387 0.30159 0.06900
H 	H 	0.60390 0.23407 0.27338 0.06400
H 	H 	0.59817 0.25006 0.33454 0.04200
H 	H 	0.78170 0.37401 0.25309 0.06000
H 	H 	0.77632 0.37456 0.19088 0.06200
H 	H 	0.63283 0.17137 0.16912 0.06600
H 	H 	0.63872 0.17056 0.23138 0.06000
C 	C 	0.72558 0.53511 0.45631 -0.05600
C 	C 	0.76727 0.52003 0.46689 -0.13900
H 	H 	0.67452 0.49787 0.44824 0.09500
F 	F 	0.87434 0.55573 0.48825 -0.43000
C 	C 	0.82981 0.04887 0.44735 -0.10800
C 	C 	0.86495 0.10831 0.46937 0.00100
C 	C 	0.92376 0.13156 0.48996 0.31500
C 	C 	0.94724 0.09579 0.48851 -0.09200
C 	C 	0.91270 0.03667 0.46618 -0.05800
C 	C 	0.85360 0.01319 0.44564 0.32400
C 	C 	0.83868 0.14480 0.47222 0.02400
F 	F 	0.95830 0.18906 0.51128 -0.40900
H 	H 	0.99270 0.11429 0.50454 0.13100
H 	H 	0.78416 0.03038 0.43155 0.12500
C 	C 	0.83571 0.17416 0.44522 0.29000
C 	C 	0.81368 0.21125 0.44886 -0.04900
C 	C 	0.79458 0.21938 0.47950 -0.14300
C 	C 	0.79825 0.19038 0.50660 0.37400
C 	C 	0.81960 0.15290 0.50278 -0.13800
F 	F 	0.85476 0.16729 0.41565 -0.40900
H 	H 	0.81087 0.23310 0.42776 0.10100
F 	F 	0.78241 0.19960 0.53691 -0.45300
H 	H 	0.82217 0.13079 0.52379 0.13100
C 	C 	0.21192 0.13181 0.48706 -0.11400
C 	C 	0.23499 0.11045 0.46352 0.00100
C 	C 	0.19158 0.05494 0.43875 0.32200
C 	C 	0.12556 0.02107 0.43760 -0.11200
C 	C 	0.10238 0.04253 0.46105 -0.06100
C 	C 	0.14591 0.09809 0.48587 0.34500
C 	C 	0.30456 0.14676 0.46455 0.02300
F 	F 	0.21341 0.03421 0.41564 -0.41200
F 	F 	0.12430 0.11853 0.50930 -0.41700
H 	H 	0.24522 0.17446 0.50633 0.12900
C 	C 	0.33857 0.20580 0.45410 0.29300
C 	C 	0.40459 0.24027 0.45520 -0.05200
C 	C 	0.43726 0.21600 0.46664 -0.13900
C 	C 	0.40309 0.15674 0.47702 0.37500
C 	C 	0.33704 0.12243 0.47605 -0.13800
F 	F 	0.30749 0.22957 0.44272 -0.40300
H 	H 	0.43047 0.28606 0.44734 0.10500
F 	F 	0.43358 0.13181 0.48733 -0.43300
H 	H 	0.31101 0.07682 0.48411 0.13100
C 	C 	0.75639 0.53854 0.99615 -0.13800
H 	H 	0.68211 0.54137 0.01358 0.10500
C 	C 	0.83556 0.05030 0.97231 -0.10800
C 	C 	0.86098 0.10874 0.99324 0.00100
C 	C 	0.92049 0.14122 0.01554 0.31400
C 	C 	0.95410 0.11515 0.01696 -0.09000
C 	C 	0.92853 0.05649 0.99610 -0.05900
C 	C 	0.86925 0.02443 0.97352 0.32600
C 	C 	0.82635 0.13695 0.99064 0.02500
F 	F 	0.94591 0.19818 0.03562 -0.41000
H 	H 	0.99959 0.14015 0.03456 0.11600
H 	H 	0.78989 0.02523 0.95486 0.12500
C 	C 	0.82108 0.15892 0.96072 0.28800
C 	C 	0.78536 0.18244 0.95744 -0.05300
C 	C 	0.75484 0.18474 0.98412 -0.14500
C 	C 	0.76096 0.16361 0.01436 0.37700
C 	C 	0.79639 0.13959 0.01748 -0.13900
F 	F 	0.85045 0.15723 0.93475 -0.41100
H 	H 	0.78097 0.19843 0.93400 0.08400
F 	F 	0.73365 0.16739 0.04090 -0.42400
H 	H 	0.80038 0.12281 0.04069 0.13300
C 	C 	0.23041 0.09845 0.02681 -0.12800
C 	C 	0.25656 0.13178 0.00033 0.00600
C 	C 	0.21858 0.13823 0.97639 0.32000
C 	C 	0.15426 0.10980 0.97838 -0.08300
C 	C 	0.12742 0.07443 0.00414 -0.07400
C 	C 	0.16619 0.06999 0.02880 0.34900
C 	C 	0.32365 0.15965 0.99771 0.02200
F 	F 	0.24360 0.17085 0.95080 -0.40200
H 	H 	0.12475 0.11343 0.95923 0.11800
H 	H 	0.25977 0.09417 0.04568 0.12300
C 	C 	0.37156 0.22515 0.00854 0.30000
C 	C 	0.43574 0.25092 0.00812 -0.05600
C 	C 	0.45274 0.21146 0.99697 -0.14100
C 	C 	0.40452 0.14597 0.98546 0.37400
C 	C 	0.34027 0.12025 0.98593 -0.14600
F 	F 	0.35602 0.26362 0.02015 -0.39900
H 	H 	0.47244 0.30142 0.01717 0.09500
F 	F 	0.41977 0.10742 0.97352 -0.43400
H 	H 	0.30341 0.06965 0.97735 0.12500
C 	C 	0.87208 0.73818 0.43470 -0.12700
C 	C 	0.84172 0.71266 0.46222 0.00900
C 	C 	0.83572 0.74991 0.48676 0.32000
C 	C 	0.86200 0.81301 0.48439 -0.07900
C 	C 	0.89473 0.83936 0.45762 -0.07000
C 	C 	0.89835 0.80115 0.43232 0.35400
C 	C 	0.81581 0.64672 0.46507 0.02100
F 	F 	0.80575 0.72546 0.51330 -0.40000
H 	H 	0.85907 0.84207 0.50406 0.11900
F 	F 	0.92839 0.82549 0.40578 -0.41200
H 	H 	0.87586 0.70936 0.41534 0.12500
C 	C 	0.74971 0.59804 0.45540 0.30200
C 	C 	0.83349 0.56900 0.47701 0.37400
C 	C 	0.85758 0.63204 0.47600 -0.14400
F 	F 	0.70894 0.61162 0.44452 -0.39800
H 	H 	0.90869 0.66945 0.48359 0.12700
C 	C 	0.84906 0.63919 0.98685 -0.13700
C 	C 	0.82166 0.66906 0.99728 0.02300
C 	C 	0.76132 0.63345 0.00688 0.29400
C 	C 	0.72882 0.56850 0.00625 -0.05200
C 	C 	0.81674 0.57423 0.98638 0.37600
C 	C 	0.85657 0.73777 0.99857 0.00700
F 	F 	0.73453 0.66200 0.01715 -0.40300
F 	F 	0.84477 0.54637 0.97729 -0.42900
H 	H 	0.89566 0.66647 0.97941 0.13400
C 	C 	0.91138 0.78144 0.02396 0.31400
C 	C 	0.94440 0.84662 0.02511 -0.08300
C 	C 	0.86763 0.82494 0.97574 0.35200
C 	C 	0.83477 0.75974 0.97454 -0.11600
F 	F 	0.93239 0.76064 0.04761 -0.40500
F 	F 	0.84697 0.84556 0.95180 -0.39100
H 	H 	0.79256 0.72624 0.95483 0.13200
F 	F 	0.14136 0.03749 0.05446 -0.42200
C 	C 	0.92276 0.86869 0.00103 -0.06700
H 	H 	0.98674 0.88003 0.04476 0.13100
C 	C 	0.93300 0.90841 0.45884 0.20100
N 	N 	0.90531 0.93872 0.46115 -0.10200
N 	N 	0.99673 0.94218 0.45845 -0.11800
C 	C 	0.95937 0.93724 0.00146 0.19700
F 	F 	0.82016 0.95681 0.42337 -0.38900
H 	H 	0.09236 0.97836 0.41834 0.15300
N 	N 	0.92877 0.96450 0.99958 -0.08700
N 	N 	0.02381 0.97323 0.00331 -0.10700
F 	F 	0.84484 0.96875 0.95232 -0.37400
C 	C 	0.03290 0.00592 0.46018 0.18400
C 	C 	0.94141 0.00264 0.46237 0.16800
