data_crystal

_cell_length_a 18.87633
_cell_length_b 27.81294
_cell_length_c 39.45965
_cell_angle_alpha 89.99768
_cell_angle_beta  76.96097
_cell_angle_gamma 90.00059

_symmetry_space_group_name_	'P 1'
_symmetry_space_group_name_H-M	'P 1'

loop_
_symmetry_equiv_pos_as_xyz
  x,y,z

loop_
_atom_site_label
_atom_site_type_symbol
_atom_site_fract_x
_atom_site_fract_y
_atom_site_fract_z
_atom_site_charge
Cu	Cu	0.56374 0.46034 0.16047 0.94400
Cu	Cu	0.68557 0.52270 0.18864 0.91200
Cu	Cu	0.53993 0.56270 0.18750 0.91500
Cu	Cu	0.40829 0.50885 0.17691 0.93400
C 	C 	0.43347 0.40370 0.17657 0.39400
O 	O 	0.54084 0.47231 0.11346 -0.30500
C 	C 	0.66762 0.62449 0.18269 0.39100
O 	O 	0.49002 0.50213 0.19686 -0.63400
O 	O 	0.61676 0.52154 0.15859 -0.63300
O 	O 	0.64113 0.41854 0.17094 -0.30100
O 	O 	0.65787 0.46584 0.21538 -0.36600
O 	O 	0.39855 0.43954 0.16569 -0.30700
O 	O 	0.46490 0.59969 0.21786 -0.31100
C 	C 	0.39685 0.60188 0.21477 0.39700
C 	C 	0.51267 0.51313 0.10585 0.39200
O 	O 	0.47696 0.54098 0.13085 -0.34100
O 	O 	0.36285 0.56318 0.20713 -0.30000
O 	O 	0.50505 0.40387 0.17103 -0.28500
C 	C 	0.66214 0.42359 0.20022 0.39600
O 	O 	0.59852 0.62138 0.18114 -0.30300
O 	O 	0.71211 0.58753 0.17469 -0.33300
H 	H 	0.47911 0.49224 0.22160 0.21500
H 	H 	0.63631 0.53455 0.13497 0.23200
Cu	Cu	0.42659 0.42923 0.80658 0.94400
Cu	Cu	0.29674 0.49134 0.78441 0.90800
Cu	Cu	0.44558 0.53205 0.78010 0.91900
Cu	Cu	0.58108 0.47841 0.78515 0.93000
C 	C 	0.55675 0.37310 0.78636 0.40100
O 	O 	0.45753 0.44093 0.85181 -0.29600
C 	C 	0.31682 0.59311 0.78890 0.39100
O 	O 	0.49507 0.47167 0.76848 -0.63300
O 	O 	0.37239 0.49019 0.81080 -0.63100
O 	O 	0.34659 0.38686 0.79960 -0.29700
O 	O 	0.31927 0.43422 0.75740 -0.36400
O 	O 	0.59315 0.40921 0.79590 -0.31100
O 	O 	0.51671 0.57008 0.74815 -0.30600
C 	C 	0.58638 0.57187 0.74848 0.39800
C 	C 	0.48663 0.48189 0.85852 0.38500
O 	O 	0.51845 0.51012 0.83286 -0.34100
O 	O 	0.62201 0.53278 0.75397 -0.30600
O 	O 	0.48503 0.37313 0.79365 -0.29900
C 	C 	0.31799 0.39200 0.77245 0.39100
O 	O 	0.38654 0.59027 0.78923 -0.29500
O 	O 	0.27259 0.55643 0.79872 -0.33600
H 	H 	0.50225 0.46221 0.74375 0.21800
H 	H 	0.35645 0.50276 0.83480 0.22400
Cu	Cu	0.97874 0.95933 0.29845 0.94400
Cu	Cu	0.86288 0.02184 0.26616 0.91700
Cu	Cu	0.00584 0.06204 0.27236 0.91600
Cu	Cu	0.13347 0.00801 0.28745 0.93400
C 	C 	0.10913 0.90287 0.28654 0.39600
O 	O 	0.99432 0.97099 0.34685 -0.31100
C 	C 	0.87910 0.12353 0.27291 0.39800
O 	O 	0.05636 0.00149 0.26433 -0.62700
O 	O 	0.92621 0.02055 0.29883 -0.63100
O 	O 	0.90437 0.91756 0.28515 -0.30600
O 	O 	0.89415 0.96523 0.23978 -0.36400
O 	O 	0.14143 0.93867 0.29900 -0.31000
O 	O 	0.08405 0.09931 0.24437 -0.30900
C 	C 	0.15084 0.10098 0.24934 0.39900
C 	C 	0.01975 0.01202 0.35579 0.39900
O 	O 	0.05928 0.03996 0.33194 -0.33700
O 	O 	0.18268 0.06214 0.25826 -0.30800
O 	O 	0.03815 0.90294 0.28948 -0.28800
C 	C 	0.88761 0.92290 0.25489 0.40000
O 	O 	0.94702 0.12066 0.27641 -0.31600
O 	O 	0.83455 0.08646 0.27978 -0.33300
H 	H 	0.07086 0.99181 0.23958 0.21300
H 	H 	0.90345 0.03331 0.32217 0.23300
Cu	Cu	0.01040 0.92669 0.66852 0.94400
Cu	Cu	0.12142 0.98877 0.70417 0.91000
Cu	Cu	0.98429 0.02992 0.69293 0.91800
Cu	Cu	0.85725 0.97697 0.67713 0.92600
C 	C 	0.87879 0.87158 0.67859 0.39900
O 	O 	0.99870 0.93851 0.61942 -0.29900
C 	C 	0.10953 0.09089 0.69454 0.38800
O 	O 	0.93224 0.96992 0.70144 -0.63600
O 	O 	0.06433 0.98721 0.66874 -0.63400
O 	O 	0.08203 0.88429 0.68345 -0.30700
O 	O 	0.08763 0.93181 0.72958 -0.36400
O 	O 	0.84856 0.90775 0.66546 -0.31100
O 	O 	0.90658 0.06921 0.71927 -0.30600
C 	C 	0.83972 0.07050 0.71435 0.40300
C 	C 	0.97417 0.97960 0.60999 0.38200
O 	O 	0.93480 0.00805 0.63351 -0.33300
O 	O 	0.80795 0.03137 0.70586 -0.31300
O 	O 	0.94937 0.87093 0.67684 -0.28600
C 	C 	0.09633 0.88965 0.71424 0.40100
O 	O 	0.04476 0.08761 0.68717 -0.30300
O 	O 	0.15331 0.05330 0.69145 -0.32600
H 	H 	0.91629 0.96103 0.72630 0.21600
H 	H 	0.09016 0.99938 0.64567 0.22200
C 	C 	0.06821 0.02796 0.44243 0.24600
C 	C 	0.99961 0.02301 0.46505 0.00700
C 	C 	0.93694 0.02210 0.45150 0.24600
C 	C 	0.94322 0.02195 0.41550 0.32700
C 	C 	0.01219 0.02319 0.39282 -0.19500
C 	C 	0.07448 0.02824 0.40641 0.33000
C 	C 	0.99416 0.01207 0.50212 0.01200
F 	F 	0.87017 0.01903 0.47324 -0.31000
F 	F 	0.14141 0.03024 0.38473 -0.34500
C 	C 	0.00242 0.04869 0.52540 0.24600
C 	C 	0.99702 0.03804 0.56058 0.32600
C 	C 	0.98288 0.99067 0.57273 -0.19800
C 	C 	0.97484 0.95408 0.54929 0.32700
C 	C 	0.98094 0.96471 0.51416 0.23700
F 	F 	0.01551 0.09457 0.51394 -0.30700
F 	F 	0.95917 0.90842 0.56076 -0.33200
F 	F 	0.00634 0.07358 0.58276 -0.35100
F 	F 	0.97360 0.92900 0.49173 -0.31200
F 	F 	0.12905 0.02984 0.45531 -0.30800
F 	F 	0.88247 0.01885 0.40262 -0.35700
C 	C 	0.73685 0.65387 0.70160 0.24700
C 	C 	0.71071 0.69891 0.71486 0.00800
C 	C 	0.64241 0.70239 0.73789 0.24700
C 	C 	0.60113 0.66098 0.74825 0.32700
C 	C 	0.62789 0.61568 0.73563 -0.18500
C 	C 	0.69555 0.61241 0.71182 0.32600
C 	C 	0.75535 0.74238 0.70504 0.00900
F 	F 	0.61643 0.74590 0.75053 -0.31200
F 	F 	0.72084 0.56918 0.69828 -0.33400
C 	C 	0.75469 0.76630 0.67380 0.24600
C 	C 	0.79561 0.80823 0.66490 0.32800
C 	C 	0.83721 0.82673 0.68734 -0.18600
C 	C 	0.83849 0.80240 0.71840 0.32900
C 	C 	0.79774 0.76038 0.72719 0.24600
F 	F 	0.71421 0.74893 0.65213 -0.30700
F 	F 	0.87794 0.82011 0.74042 -0.34200
F 	F 	0.79574 0.83047 0.63425 -0.32700
F 	F 	0.79896 0.73729 0.75738 -0.31100
F 	F 	0.80248 0.65031 0.67896 -0.30700
F 	F 	0.53597 0.66470 0.77126 -0.33600
C 	C 	0.70770 0.17275 0.71533 0.24600
C 	C 	0.71309 0.19715 0.74576 0.00900
C 	C 	0.75854 0.17919 0.76646 0.24700
C 	C 	0.79900 0.13734 0.75661 0.33400
C 	C 	0.79468 0.11330 0.72577 -0.18700
C 	C 	0.74838 0.13103 0.70533 0.32600
C 	C 	0.67209 0.24198 0.75566 0.00800
F 	F 	0.76370 0.20248 0.79605 -0.30500
F 	F 	0.74419 0.10844 0.67533 -0.34500
C 	C 	0.60755 0.24141 0.78159 0.24600
C 	C 	0.56949 0.28414 0.79156 0.33100
C 	C 	0.59555 0.32780 0.77544 -0.19000
C 	C 	0.65993 0.32822 0.74932 0.32300
C 	C 	0.69806 0.28549 0.73951 0.24600
F 	F 	0.58208 0.19944 0.79730 -0.30800
F 	F 	0.68515 0.37002 0.73325 -0.35600
F 	F 	0.50839 0.28332 0.81746 -0.32600
F 	F 	0.76050 0.28631 0.71441 -0.30900
F 	F 	0.66345 0.18976 0.69530 -0.30900
F 	F 	0.84160 0.11979 0.77725 -0.33000
C 	C 	0.22153 0.27341 0.76878 0.24400
C 	C 	0.22405 0.26936 0.73306 0.00600
C 	C 	0.25633 0.30603 0.71029 0.24500
C 	C 	0.28708 0.34605 0.72303 0.32100
C 	C 	0.28449 0.35022 0.75886 -0.19400
C 	C 	0.25070 0.31384 0.78169 0.32400
C 	C 	0.19382 0.22626 0.71953 0.00600
F 	F 	0.25830 0.30270 0.67576 -0.30700
F 	F 	0.24525 0.31798 0.81648 -0.33500
C 	C 	0.11868 0.21740 0.72855 0.24800
C 	C 	0.09088 0.17382 0.71951 0.32100
C 	C 	0.13791 0.13898 0.70064 -0.18300
C 	C 	0.21270 0.14924 0.68977 0.32300
C 	C 	0.24055 0.19238 0.69959 0.24500
F 	F 	0.07282 0.25057 0.74695 -0.30900
F 	F 	0.25837 0.11748 0.66968 -0.33500
F 	F 	0.01861 0.16467 0.73025 -0.33700
F 	F 	0.31322 0.20083 0.69040 -0.30800
F 	F 	0.19099 0.23795 0.79098 -0.31000
F 	F 	0.32081 0.38019 0.70046 -0.34700
C 	C 	0.28748 0.71108 0.74694 0.24500
C 	C 	0.22087 0.72600 0.76794 0.00600
C 	C 	0.18822 0.69890 0.79734 0.24600
C 	C 	0.22065 0.65620 0.80497 0.32700
C 	C 	0.28604 0.64030 0.78317 -0.18700
C 	C 	0.32008 0.66854 0.75458 0.32400
C 	C 	0.18341 0.76844 0.75793 0.00800
F 	F 	0.12462 0.71366 0.81824 -0.30800
F 	F 	0.38340 0.65375 0.73343 -0.34400
C 	C 	0.12498 0.76238 0.74176 0.24200
C 	C 	0.09465 0.80219 0.72866 0.33100
C 	C 	0.12294 0.84846 0.73137 -0.19600
C 	C 	0.17965 0.85467 0.74878 0.32400
C 	C 	0.20956 0.81481 0.76209 0.24500
F 	F 	0.09886 0.71769 0.73795 -0.31300
F 	F 	0.20772 0.89907 0.75156 -0.36300
F 	F 	0.03811 0.79580 0.71309 -0.33200
F 	F 	0.26531 0.82105 0.77820 -0.30800
F 	F 	0.31955 0.73718 0.71853 -0.31400
F 	F 	0.18879 0.63042 0.83357 -0.33600
C 	C 	0.24345 0.68330 0.25946 0.24700
C 	C 	0.27167 0.72866 0.24807 0.00800
C 	C 	0.34152 0.73239 0.22648 0.24600
C 	C 	0.38265 0.69100 0.21597 0.32700
C 	C 	0.35418 0.64544 0.22695 -0.18500
C 	C 	0.28456 0.64182 0.24905 0.32800
C 	C 	0.22797 0.77230 0.25859 0.00900
F 	F 	0.36931 0.77619 0.21551 -0.31300
F 	F 	0.25732 0.59824 0.26090 -0.33200
C 	C 	0.23078 0.79580 0.28973 0.24600
C 	C 	0.19146 0.83823 0.29910 0.32800
C 	C 	0.14924 0.85761 0.27725 -0.18700
C 	C 	0.14572 0.83368 0.24632 0.32900
C 	C 	0.18493 0.79118 0.23704 0.24700
F 	F 	0.27187 0.77755 0.31083 -0.30800
F 	F 	0.10563 0.85224 0.22488 -0.34200
F 	F 	0.19350 0.86014 0.32961 -0.33100
F 	F 	0.18178 0.76855 0.20693 -0.31000
F 	F 	0.17618 0.67948 0.28064 -0.30600
F 	F 	0.44962 0.69503 0.19451 -0.34200
C 	C 	0.85865 0.79533 0.22803 0.24300
C 	C 	0.79938 0.80106 0.21238 0.00800
C 	C 	0.77259 0.84731 0.20839 0.24500
C 	C 	0.80276 0.88737 0.22134 0.32400
C 	C 	0.86048 0.88149 0.23816 -0.19500
C 	C 	0.88933 0.83534 0.24070 0.33100
C 	C 	0.76212 0.75840 0.20254 0.00700
F 	F 	0.71606 0.85325 0.19276 -0.30900
F 	F 	0.94679 0.82925 0.25568 -0.33200
C 	C 	0.69527 0.74367 0.22345 0.24400
C 	C 	0.66307 0.70080 0.21611 0.32500
C 	C 	0.69782 0.67201 0.18799 -0.18800
C 	C 	0.76341 0.68768 0.16627 0.32700
C 	C 	0.79536 0.73076 0.17353 0.24600
F 	F 	0.66262 0.77024 0.25150 -0.31300
F 	F 	0.79599 0.66128 0.13812 -0.33500
F 	F 	0.59945 0.68625 0.23714 -0.34300
F 	F 	0.85913 0.74534 0.15267 -0.30700
F 	F 	0.88533 0.75077 0.23172 -0.31100
F 	F 	0.77406 0.93162 0.21876 -0.36100
C 	C 	0.78034 0.34637 0.24396 0.24500
C 	C 	0.75092 0.30055 0.24118 0.00700
C 	C 	0.68953 0.29565 0.22694 0.24300
C 	C 	0.65891 0.33606 0.21472 0.32600
C 	C 	0.69013 0.38174 0.21614 -0.19500
C 	C 	0.75036 0.38678 0.23134 0.32400
C 	C 	0.78695 0.25741 0.25120 0.00600
F 	F 	0.66043 0.25152 0.22434 -0.30900
F 	F 	0.78139 0.43055 0.23278 -0.35900
C 	C 	0.75351 0.23076 0.28072 0.24500
C 	C 	0.78456 0.18759 0.28845 0.32800
C 	C 	0.84956 0.17092 0.26681 -0.19200
C 	C 	0.88442 0.19860 0.23810 0.32100
C 	C 	0.85302 0.24150 0.23020 0.24500
F 	F 	0.69051 0.24645 0.30164 -0.30800
F 	F 	0.94743 0.18299 0.21711 -0.34200
F 	F 	0.75168 0.16204 0.31700 -0.33500
F 	F 	0.88575 0.26701 0.20161 -0.31000
F 	F 	0.83896 0.35154 0.25824 -0.30900
F 	F 	0.59885 0.33085 0.20153 -0.33800
C 	C 	0.28896 0.31650 0.22126 0.24700
C 	C 	0.31743 0.27259 0.20677 0.00900
C 	C 	0.38436 0.27164 0.18248 0.24800
C 	C 	0.42248 0.31438 0.17258 0.33600
C 	C 	0.39403 0.35845 0.18710 -0.18400
C 	C 	0.32711 0.35926 0.21151 0.32200
C 	C 	0.27694 0.22761 0.21693 0.00800
F 	F 	0.41221 0.22927 0.16834 -0.30500
F 	F 	0.29952 0.40146 0.22608 -0.35500
C 	C 	0.23274 0.20856 0.19601 0.24600
C 	C 	0.19245 0.16671 0.20620 0.33100
C 	C 	0.19577 0.14374 0.23757 -0.18700
C 	C 	0.24094 0.16250 0.25821 0.32400
C 	C 	0.28137 0.20425 0.24790 0.24700
F 	F 	0.22861 0.23078 0.16588 -0.30700
F 	F 	0.24424 0.14090 0.28868 -0.34200
F 	F 	0.15094 0.14815 0.18540 -0.32900
F 	F 	0.32436 0.22232 0.26817 -0.30800
F 	F 	0.22425 0.31769 0.24479 -0.31100
F 	F 	0.48614 0.31311 0.14829 -0.31900
C 	C 	0.44272 0.52986 0.02459 0.23900
C 	C 	0.50699 0.52415 0.99888 0.01300
C 	C 	0.57415 0.52201 0.00851 0.24000
C 	C 	0.57649 0.52155 0.04369 0.32800
C 	C 	0.51173 0.52376 0.06947 -0.19700
C 	C 	0.44508 0.52984 0.05977 0.32800
C 	C 	0.50312 0.51380 0.96268 0.00300
F 	F 	0.63684 0.51819 0.98377 -0.31100
F 	F 	0.38215 0.53265 0.08446 -0.35700
C 	C 	0.48742 0.55065 0.94117 0.24700
C 	C 	0.48156 0.54027 0.90718 0.32000
C 	C 	0.49183 0.49296 0.89441 -0.19400
C 	C 	0.50822 0.45625 0.91594 0.32300
C 	C 	0.51330 0.46660 0.94994 0.24300
F 	F 	0.47754 0.59642 0.95328 -0.30800
F 	F 	0.52066 0.41070 0.90365 -0.33400
F 	F 	0.46471 0.57596 0.88687 -0.35000
F 	F 	0.52796 0.43069 0.97066 -0.31200
F 	F 	0.37761 0.53277 0.01552 -0.31200
F 	F 	0.64146 0.51743 0.05277 -0.35600
