data_crystal

_cell_length_a 22.70180
_cell_length_b 22.25003
_cell_length_c 50.61416
_cell_angle_alpha 89.89106
_cell_angle_beta  89.89236
_cell_angle_gamma 119.77465

_symmetry_space_group_name_	'P 1'
_symmetry_space_group_name_H-M	'P 1'

loop_
_symmetry_equiv_pos_as_xyz
  x,y,z

loop_
_atom_site_label
_atom_site_type_symbol
_atom_site_fract_x
_atom_site_fract_y
_atom_site_fract_z
_atom_site_charge
C 	C 	0.81844 0.42381 0.91760 0.31000
C 	C 	0.54244 0.28263 0.86815 0.32700
C 	C 	0.70540 0.48954 0.89958 0.32300
C 	C 	0.66315 0.21370 0.87981 0.31100
C 	C 	0.54087 0.33082 0.95074 0.32600
C 	C 	0.64507 0.24854 0.96865 0.31700
Ni	Ni	0.69244 0.36059 0.88049 1.12900
Ni	Ni	0.57882 0.24442 0.91851 1.12800
Ni	Ni	0.68729 0.38957 0.94311 1.12500
O 	O 	0.79170 0.42769 0.89460 -0.33800
O 	O 	0.78207 0.40344 0.93980 -0.36400
O 	O 	0.53565 0.26946 0.94826 -0.36800
O 	O 	0.60340 0.30234 0.85871 -0.34300
O 	O 	0.53140 0.27757 0.89363 -0.37400
O 	O 	0.66012 0.31456 0.97171 -0.37200
O 	O 	0.66480 0.43477 0.88613 -0.36000
O 	O 	0.72592 0.48226 0.92310 -0.35600
O 	O 	0.62302 0.21535 0.94588 -0.36300
O 	O 	0.70976 0.27877 0.87485 -0.34600
O 	O 	0.60126 0.19716 0.88834 -0.34900
O 	O 	0.59795 0.38743 0.94485 -0.38200
O 	O 	0.66390 0.32604 0.91461 -0.72200
H 	H 	0.69452 0.30756 0.91827 0.17100
C 	C 	0.82423 0.50281 0.55968 0.31500
C 	C 	0.62646 0.21297 0.55855 0.33000
C 	C 	0.63124 0.41952 0.55145 0.33600
C 	C 	0.80087 0.28599 0.57221 0.31300
C 	C 	0.59737 0.32173 0.62806 0.33200
C 	C 	0.78712 0.41626 0.64155 0.31100
Ni	Ni	0.72188 0.35609 0.54839 1.12100
Ni	Ni	0.69892 0.28975 0.60753 1.12800
Ni	Ni	0.71054 0.43747 0.59939 1.12700
O 	O 	0.81135 0.44870 0.54490 -0.36300
O 	O 	0.77460 0.50767 0.57181 -0.36200
O 	O 	0.60637 0.27584 0.61511 -0.36300
O 	O 	0.62783 0.27037 0.55276 -0.35800
O 	O 	0.65470 0.20948 0.58079 -0.36200
O 	O 	0.78672 0.46116 0.62439 -0.36100
O 	O 	0.67596 0.41360 0.53680 -0.35500
O 	O 	0.62745 0.40733 0.57683 -0.38700
O 	O 	0.74115 0.34866 0.64073 -0.34400
O 	O 	0.77085 0.29587 0.55112 -0.36100
O 	O 	0.78712 0.29596 0.59679 -0.36600
O 	O 	0.64603 0.38676 0.62950 -0.36500
O 	O 	0.72749 0.36869 0.58514 -0.71600
H 	H 	0.77703 0.39160 0.58747 0.17200
C 	C 	0.91548 0.03190 0.68197 0.30500
C 	C 	0.92692 0.88973 0.77758 0.32900
C 	C 	0.88294 0.04763 0.75638 0.32300
C 	C 	0.96325 0.85147 0.71192 0.31300
C 	C 	0.10275 0.10570 0.77235 0.33200
C 	C 	0.13056 0.09553 0.70352 0.30700
Ni	Ni	0.89232 0.93617 0.72750 1.12500
Ni	Ni	0.04673 0.97814 0.74293 1.12600
Ni	Ni	0.01255 0.09660 0.72768 1.12600
O 	O 	0.88904 0.96565 0.68870 -0.34400
O 	O 	0.94009 0.08137 0.70023 -0.35300
O 	O 	0.06494 0.03848 0.77452 -0.37700
O 	O 	0.89393 0.91862 0.76760 -0.34700
O 	O 	0.98128 0.89584 0.76576 -0.35500
O 	O 	0.08125 0.11054 0.69986 -0.36600
O 	O 	0.85547 0.00212 0.73739 -0.33300
O 	O 	0.94931 0.08587 0.75806 -0.36100
O 	O 	0.12882 0.05295 0.72271 -0.37100
O 	O 	0.90582 0.85158 0.71772 -0.34400
O 	O 	0.02387 0.90770 0.71392 -0.36300
O 	O 	0.09069 0.13938 0.75365 -0.35700
O 	O 	0.98536 0.00060 0.72667 -0.71800
H 	H 	0.99508 0.99564 0.70807 0.16100
C 	C 	0.30856 0.80126 0.41009 0.30600
C 	C 	0.41424 0.67168 0.48566 0.34400
C 	C 	0.48559 0.84723 0.42823 0.33200
C 	C 	0.23851 0.62973 0.47592 0.31600
C 	C 	0.45153 0.64756 0.40342 0.33300
C 	C 	0.27186 0.57591 0.38752 0.31300
Ni	Ni	0.36372 0.75684 0.45816 1.11600
Ni	Ni	0.33411 0.60635 0.43931 1.12300
Ni	Ni	0.38285 0.72746 0.39678 1.12900
O 	O 	0.34392 0.82050 0.43266 -0.35900
O 	O 	0.31442 0.75939 0.39292 -0.35400
O 	O 	0.39375 0.59545 0.41195 -0.37100
O 	O 	0.38524 0.70926 0.48970 -0.36400
O 	O 	0.41786 0.65255 0.46177 -0.38500
O 	O 	0.32256 0.63506 0.37739 -0.33700
O 	O 	0.46464 0.80453 0.44804 -0.36600
O 	O 	0.45046 0.82893 0.40613 -0.34900
O 	O 	0.25880 0.56836 0.41313 -0.38000
O 	O 	0.26379 0.69529 0.46889 -0.37700
O 	O 	0.27083 0.59432 0.47086 -0.36400
O 	O 	0.46011 0.71002 0.40184 -0.37700
O 	O 	0.34277 0.69315 0.43059 -0.71600
H 	H 	0.29526 0.68002 0.42695 0.17400
C 	C 	0.45880 0.70769 0.09594 0.31700
C 	C 	0.24063 0.63239 0.01438 0.33000
C 	C 	0.39784 0.81502 0.06374 0.33000
C 	C 	0.30494 0.52260 0.04255 0.31000
C 	C 	0.19257 0.68049 0.09444 0.33700
C 	C 	0.23843 0.55317 0.12289 0.31100
Ni	Ni	0.37122 0.67770 0.04466 1.11700
Ni	Ni	0.21861 0.57764 0.06739 1.13100
Ni	Ni	0.32654 0.70022 0.10294 1.12500
O 	O 	0.45706 0.71897 0.06996 -0.35100
O 	O 	0.40412 0.68385 0.11115 -0.36900
O 	O 	0.16851 0.61437 0.08932 -0.35200
O 	O 	0.30326 0.64386 0.01253 -0.35800
O 	O 	0.21692 0.63606 0.03739 -0.36300
O 	O 	0.26077 0.62046 0.12682 -0.36200
O 	O 	0.37094 0.77067 0.04439 -0.37100
O 	O 	0.39891 0.79323 0.08783 -0.36600
O 	O 	0.21913 0.52447 0.09923 -0.37400
O 	O 	0.36390 0.58141 0.04218 -0.34800
O 	O 	0.24601 0.52236 0.04251 -0.37000
O 	O 	0.25710 0.72446 0.09127 -0.38300
O 	O 	0.31169 0.64153 0.07367 -0.71700
H 	H 	0.32584 0.60980 0.08116 0.16900
C 	C 	0.03393 0.12452 0.28977 0.30200
C 	C 	0.02237 0.91607 0.21248 0.33600
C 	C 	0.99773 0.11078 0.21979 0.33300
C 	C 	0.06957 0.94028 0.28457 0.30500
C 	C 	0.82920 0.89635 0.22805 0.32900
C 	C 	0.85320 0.89185 0.30205 0.31500
Ni	Ni	0.05978 0.04003 0.24734 1.12000
Ni	Ni	0.93378 0.88587 0.25819 1.13000
Ni	Ni	0.90923 0.01469 0.26315 1.12500
O 	O 	0.06880 0.12543 0.26840 -0.35300
O 	O 	0.96761 0.07945 0.29244 -0.35600
O 	O 	0.83983 0.85965 0.24579 -0.37700
O 	O 	0.07289 0.97091 0.22343 -0.34800
O 	O 	0.95999 0.89504 0.21976 -0.35900
O 	O 	0.84419 0.93932 0.28907 -0.35000
O 	O 	0.01995 0.06732 0.21595 -0.35400
O 	O 	0.95606 0.10096 0.23962 -0.36200
O 	O 	0.90161 0.87799 0.29545 -0.37700
O 	O 	0.09840 0.00645 0.27755 -0.34500
O 	O 	0.02258 0.89073 0.26953 -0.34400
O 	O 	0.85474 0.96346 0.23117 -0.35700
O 	O 	0.97327 0.98295 0.26188 -0.71400
H 	H 	0.98530 0.98759 0.28074 0.16400
C 	C 	0.03648 0.18106 0.20840 -0.09700
C 	C 	0.04934 0.19144 0.18104 0.14800
C 	C 	0.08947 0.25856 0.17108 -0.07900
C 	C 	0.11766 0.31565 0.18815 0.02500
C 	C 	0.10511 0.30537 0.21547 0.08500
C 	C 	0.06403 0.23851 0.22541 -0.00800
H 	H 	0.09833 0.26647 0.14998 0.08700
C 	C 	0.15641 0.38618 0.17701 0.02700
H 	H 	0.05447 0.23110 0.24647 0.07400
C 	C 	0.12418 0.42543 0.17353 -0.07900
C 	C 	0.15464 0.48571 0.15816 0.15000
C 	C 	0.21764 0.50664 0.14583 -0.08800
C 	C 	0.25267 0.47101 0.15140 -0.01000
C 	C 	0.22243 0.41102 0.16699 0.08600
H 	H 	0.07407 0.40742 0.18180 0.09300
H 	H 	0.30178 0.48769 0.14239 0.06900
Br	Br	0.14513 0.38178 0.23962 -0.18700
Br	Br	0.01028 0.11550 0.15678 -0.18300
Br	Br	0.10714 0.53594 0.15268 -0.19500
Br	Br	0.27109 0.36255 0.17376 -0.18900
C 	C 	0.78055 0.86073 0.20656 -0.09000
C 	C 	0.80084 0.87568 0.17991 0.15100
C 	C 	0.75260 0.84633 0.15981 -0.07900
C 	C 	0.68425 0.80146 0.16600 0.02600
C 	C 	0.66487 0.78227 0.19252 0.08800
C 	C 	0.71296 0.81225 0.21267 -0.00400
H 	H 	0.76796 0.85999 0.13938 0.08900
C 	C 	0.63241 0.78260 0.14526 0.02300
H 	H 	0.69743 0.79902 0.23310 0.07500
C 	C 	0.61468 0.72478 0.12917 -0.07700
C 	C 	0.56110 0.70285 0.11113 0.14500
C 	C 	0.52480 0.73881 0.10926 -0.08700
C 	C 	0.54469 0.79826 0.12458 -0.01100
C 	C 	0.59894 0.82101 0.14211 0.09000
H 	H 	0.64131 0.69590 0.13116 0.08900
H 	H 	0.51543 0.82461 0.12397 0.08100
Br	Br	0.57259 0.71669 0.20157 -0.18000
Br	Br	0.89427 0.93369 0.17045 -0.17800
Br	Br	0.53628 0.62212 0.09009 -0.19900
Br	Br	0.62507 0.90340 0.16233 -0.18400
C 	C 	0.03612 0.87653 0.19256 -0.08900
C 	C 	0.00438 0.80359 0.19412 0.15900
C 	C 	0.01881 0.76721 0.17515 -0.07900
C 	C 	0.06766 0.80278 0.15557 0.02600
C 	C 	0.09774 0.87525 0.15346 0.08800
C 	C 	0.08160 0.91171 0.17186 0.00100
H 	H 	0.99563 0.71142 0.17676 0.09700
C 	C 	0.09528 0.76566 0.14057 0.02800
H 	H 	0.10515 0.96752 0.17026 0.08000
C 	C 	0.07170 0.74186 0.11497 -0.07900
C 	C 	0.10054 0.71001 0.10005 0.15500
C 	C 	0.15281 0.70130 0.11095 -0.09400
C 	C 	0.17360 0.72177 0.13703 0.00200
C 	C 	0.14552 0.75420 0.15179 0.08500
H 	H 	0.03213 0.74952 0.10647 0.09100
H 	H 	0.21351 0.71462 0.14552 0.06600
Br	Br	0.16300 0.92544 0.12623 -0.18700
Br	Br	0.94693 0.75302 0.22343 -0.21700
Br	Br	0.06973 0.68103 0.06461 -0.19700
Br	Br	0.17835 0.78502 0.18694 -0.16800
C 	C 	0.79905 0.84275 0.31998 -0.08600
C 	C 	0.76812 0.86546 0.33860 0.14900
C 	C 	0.71319 0.81681 0.35370 -0.07600
C 	C 	0.69051 0.74570 0.35124 0.02500
C 	C 	0.72403 0.72343 0.33382 0.08600
C 	C 	0.77723 0.77166 0.31804 -0.00700
H 	H 	0.68808 0.83425 0.36739 0.09000
C 	C 	0.62831 0.69494 0.36532 0.02900
H 	H 	0.80120 0.75373 0.30402 0.07200
C 	C 	0.56736 0.65843 0.35129 -0.07900
C 	C 	0.50535 0.62669 0.36483 0.14900
C 	C 	0.50420 0.63534 0.39231 -0.09700
C 	C 	0.56485 0.65968 0.40649 -0.00500
C 	C 	0.62714 0.69037 0.39308 0.08400
H 	H 	0.56797 0.65825 0.32988 0.09500
H 	H 	0.56410 0.66211 0.42787 0.07200
Br	Br	0.69863 0.62740 0.33163 -0.17900
Br	Br	0.80281 0.96230 0.34511 -0.19400
Br	Br	0.42243 0.57926 0.34525 -0.19500
Br	Br	0.70986 0.72866 0.41292 -0.18000
C 	C 	0.06558 0.18557 0.30727 -0.08300
C 	C 	0.13513 0.21652 0.31349 0.14900
C 	C 	0.16957 0.28392 0.32346 -0.07200
C 	C 	0.13410 0.31854 0.33000 0.02700
C 	C 	0.06361 0.28590 0.32547 0.08900
C 	C 	0.02997 0.22023 0.31374 -0.00900
H 	H 	0.22346 0.30807 0.32747 0.09700
C 	C 	0.16973 0.38507 0.34444 0.03000
H 	H 	0.97650 0.19699 0.30909 0.07800
C 	C 	0.18378 0.44723 0.33185 -0.07300
C 	C 	0.21769 0.51050 0.34544 0.15400
C 	C 	0.24134 0.51210 0.37135 -0.08100
C 	C 	0.23026 0.45013 0.38321 -0.00300
C 	C 	0.19235 0.38685 0.37043 0.08400
H 	H 	0.16696 0.44621 0.31174 0.10200
H 	H 	0.24919 0.45090 0.40292 0.06500
Br	Br	0.01218 0.32943 0.33558 -0.18100
Br	Br	0.18268 0.16554 0.31053 -0.20000
Br	Br	0.22734 0.59252 0.32878 -0.17700
Br	Br	0.16881 0.30294 0.38941 -0.18000
C 	C 	0.09810 0.92104 0.30701 -0.08100
C 	C 	0.11960 0.87179 0.30416 0.14800
C 	C 	0.14724 0.85529 0.32578 -0.07800
C 	C 	0.15716 0.88998 0.34989 0.02600
C 	C 	0.13627 0.93952 0.35270 0.09200
C 	C 	0.10607 0.95413 0.33141 -0.00900
H 	H 	0.16431 0.81794 0.32345 0.09400
C 	C 	0.19793 0.88103 0.37058 0.02900
H 	H 	0.08975 0.99208 0.33371 0.08000
C 	C 	0.26851 0.91442 0.36757 -0.08000
C 	C 	0.30677 0.89251 0.38205 0.15000
C 	C 	0.27478 0.83920 0.40099 -0.08800
C 	C 	0.20531 0.81155 0.40617 -0.01000
C 	C 	0.16648 0.83119 0.39071 0.08800
H 	H 	0.29300 0.95373 0.35242 0.09400
H 	H 	0.18050 0.77100 0.42086 0.06600
Br	Br	0.15043 0.98922 0.38518 -0.16600
Br	Br	0.11878 0.83204 0.27036 -0.16400
Br	Br	0.40082 0.92985 0.37319 -0.20200
Br	Br	0.07017 0.78631 0.39620 -0.17800
C 	C 	0.61668 0.99361 0.46588 -0.10100
C 	C 	0.58013 0.02743 0.47180 0.00600
C 	C 	0.52353 0.01430 0.45638 0.12500
C 	C 	0.49974 0.96237 0.43719 -0.03300
C 	C 	0.52982 0.92082 0.43429 -0.11200
C 	C 	0.59236 0.94124 0.44677 0.19900
C 	C 	0.59992 0.07533 0.49443 0.01100
O 	O 	0.49004 0.05052 0.46065 -0.25700
H 	H 	0.45278 0.94864 0.42715 0.08800
O 	O 	0.62543 0.90457 0.44263 -0.26900
H 	H 	0.66223 0.00581 0.47684 0.08700
C 	C 	0.58381 0.04965 0.52048 0.12000
C 	C 	0.59335 0.09485 0.54144 -0.02300
C 	C 	0.61902 0.16567 0.53656 -0.12100
C 	C 	0.63826 0.19153 0.51047 0.20600
C 	C 	0.62847 0.14627 0.48972 -0.10800
O 	O 	0.55573 0.98006 0.52533 -0.26600
H 	H 	0.57952 0.07454 0.56135 0.07400
O 	O 	0.66468 0.26070 0.50509 -0.30500
H 	H 	0.64152 0.16628 0.46974 0.09400
H 	H 	0.65712 0.92851 0.42776 0.16900
H 	H 	0.59477 0.97285 0.52882 0.16500
H 	H 	0.71458 0.28036 0.50463 0.13600
H 	H 	0.45489 0.02344 0.47413 0.15800
C 	C 	0.06400 0.55514 0.50373 -0.10400
C 	C 	0.07829 0.59697 0.52624 0.00900
C 	C 	0.14557 0.63599 0.53508 0.12700
C 	C 	0.19819 0.63691 0.52035 -0.02700
C 	C 	0.18465 0.60300 0.49588 -0.11000
C 	C 	0.11705 0.55913 0.48826 0.19600
C 	C 	0.02272 0.59999 0.54028 0.01300
O 	O 	0.16015 0.67434 0.55778 -0.26100
H 	H 	0.25023 0.66928 0.52671 0.06800
O 	O 	0.10280 0.52177 0.46531 -0.27500
H 	H 	0.01192 0.52186 0.49762 0.08200
C 	C 	0.98143 0.62076 0.52686 0.12300
C 	C 	0.91717 0.60233 0.53702 -0.02300
C 	C 	0.89358 0.56109 0.55981 -0.11400
C 	C 	0.94095 0.55596 0.57610 0.20600
C 	C 	0.00461 0.57272 0.56588 -0.10400
O 	O 	0.00307 0.65739 0.50364 -0.26000
H 	H 	0.88268 0.61197 0.52537 0.07100
O 	O 	0.92161 0.52496 0.60038 -0.28500
H 	H 	0.03768 0.56009 0.57708 0.10600
H 	H 	0.10014 0.55188 0.45143 0.16200
H 	H 	0.98419 0.62224 0.48941 0.15700
H 	H 	0.93251 0.56342 0.61283 0.18100
H 	H 	0.16782 0.72037 0.55208 0.16200
C 	C 	0.48713 0.45496 0.54552 -0.10500
C 	C 	0.51732 0.51701 0.53100 0.01200
C 	C 	0.58173 0.54043 0.51936 0.12300
C 	C 	0.61774 0.50559 0.52454 -0.02500
C 	C 	0.58821 0.44498 0.53988 -0.11700
C 	C 	0.52056 0.41686 0.54842 0.20300
C 	C 	0.48014 0.55560 0.52693 0.01100
O 	O 	0.61015 0.59812 0.50347 -0.26000
H 	H 	0.66928 0.52690 0.51731 0.07400
O 	O 	0.48601 0.35071 0.55831 -0.26700
H 	H 	0.43753 0.43592 0.55440 0.08900
C 	C 	0.41467 0.52249 0.51579 0.12000
C 	C 	0.38566 0.56194 0.50752 -0.02600
C 	C 	0.42414 0.63447 0.50757 -0.12600
C 	C 	0.48500 0.66685 0.52195 0.20400
C 	C 	0.51238 0.62714 0.53199 -0.10500
O 	O 	0.38219 0.45294 0.51037 -0.26200
H 	H 	0.33694 0.53645 0.49765 0.05600
O 	O 	0.52125 0.73764 0.52381 -0.27400
H 	H 	0.56081 0.65258 0.54207 0.09500
H 	H 	0.48904 0.35586 0.57774 0.16900
H 	H 	0.34989 0.43049 0.52521 0.16000
H 	H 	0.50511 0.74875 0.54033 0.16500
H 	H 	0.59443 0.58066 0.48535 0.16500
C 	C 	0.89815 0.04872 0.65604 -0.08300
C 	C 	0.83876 0.05310 0.65304 0.14800
C 	C 	0.83015 0.08442 0.63051 -0.07700
C 	C 	0.88005 0.11100 0.61065 0.02500
C 	C 	0.93671 0.10131 0.61263 0.08800
C 	C 	0.94581 0.07078 0.63540 -0.01400
H 	H 	0.78600 0.09091 0.62899 0.09000
C 	C 	0.87747 0.15767 0.59031 0.02900
H 	H 	0.99106 0.06640 0.63740 0.07000
C 	C 	0.92065 0.22942 0.59274 -0.08000
C 	C 	0.90231 0.27539 0.58158 0.15000
C 	C 	0.83929 0.24942 0.56886 -0.09200
C 	C 	0.80374 0.17920 0.56182 -0.01100
C 	C 	0.82239 0.13302 0.57266 0.08200
H 	H 	0.96534 0.24922 0.60510 0.09400
H 	H 	0.75742 0.15928 0.55043 0.06500
Br	Br	0.00205 0.12954 0.58452 -0.18400
Br	Br	0.77031 0.01961 0.68013 -0.18000
Br	Br	0.95957 0.37314 0.58671 -0.20700
Br	Br	0.76956 0.03624 0.56468 -0.20000
C 	C 	0.19406 0.13536 0.68867 -0.09000
C 	C 	0.23723 0.20637 0.69382 0.14800
C 	C 	0.30362 0.23982 0.68409 -0.07400
C 	C 	0.32579 0.20483 0.66739 0.02800
C 	C 	0.28047 0.13571 0.66021 0.08600
C 	C 	0.21551 0.10083 0.67141 -0.00800
H 	H 	0.33804 0.29318 0.68946 0.09900
C 	C 	0.39761 0.23922 0.65901 0.03000
H 	H 	0.18190 0.04670 0.66687 0.07100
C 	C 	0.44012 0.21548 0.66892 -0.07600
C 	C 	0.50707 0.24448 0.65996 0.15800
C 	C 	0.53270 0.29963 0.64170 -0.09100
C 	C 	0.49268 0.32850 0.63426 -0.00400
C 	C 	0.42441 0.29667 0.64176 0.08300
H 	H 	0.42061 0.17338 0.68313 0.09900
H 	H 	0.51395 0.37421 0.62184 0.06000
Br	Br	0.30589 0.08869 0.63477 -0.18500
Br	Br	0.20645 0.25898 0.71373 -0.20100
Br	Br	0.56340 0.20982 0.67360 -0.18400
Br	Br	0.36772 0.32939 0.62682 -0.19800
C 	C 	0.82708 0.44519 0.66563 -0.07600
C 	C 	0.79696 0.46123 0.68677 0.14700
C 	C 	0.83293 0.52587 0.69907 -0.07400
C 	C 	0.89928 0.57287 0.69082 0.02200
C 	C 	0.93401 0.54900 0.67473 0.09100
C 	C 	0.89792 0.48359 0.66295 -0.01500
H 	H 	0.80732 0.54199 0.71306 0.09100
C 	C 	0.92504 0.64791 0.69383 0.02600
H 	H 	0.92317 0.46751 0.64879 0.08100
C 	C 	0.96627 0.68334 0.71537 -0.07800
C 	C 	0.98411 0.75228 0.72025 0.15300
C 	C 	0.95875 0.78568 0.70385 -0.08500
C 	C 	0.92055 0.75128 0.68150 -0.00900
C 	C 	0.90429 0.68302 0.67625 0.08800
H 	H 	0.98362 0.65700 0.72859 0.09500
H 	H 	0.90199 0.77701 0.66854 0.07200
Br	Br	0.02832 0.60751 0.66652 -0.19400
Br	Br	0.70368 0.40081 0.69596 -0.17100
Br	Br	0.04237 0.79918 0.74957 -0.21400
Br	Br	0.85276 0.63818 0.64518 -0.21200
C 	C 	0.07824 0.50953 0.97943 -0.11500
C 	C 	0.08697 0.54286 0.95507 0.01500
C 	C 	0.14988 0.60165 0.94895 0.12200
C 	C 	0.20212 0.62861 0.96784 -0.02200
C 	C 	0.19194 0.59688 0.99273 -0.12000
C 	C 	0.13043 0.53543 0.99802 0.20800
C 	C 	0.02766 0.52009 0.93744 0.00500
O 	O 	0.15938 0.63457 0.92509 -0.26000
H 	H 	0.24931 0.67556 0.96348 0.06900
O 	O 	0.11988 0.50261 0.02196 -0.31300
H 	H 	0.02996 0.46441 0.98431 0.08100
C 	C 	0.99453 0.45216 0.92730 0.13000
C 	C 	0.92704 0.42213 0.91876 -0.03300
C 	C 	0.89273 0.45982 0.91996 -0.10200
C 	C 	0.92839 0.53022 0.92698 0.19600
C 	C 	0.99555 0.56003 0.93582 -0.09500
O 	O 	0.02764 0.41474 0.92620 -0.26100
H 	H 	0.90054 0.36859 0.91240 0.07700
O 	O 	0.89610 0.56850 0.92714 -0.27300
H 	H 	0.02102 0.61274 0.94310 0.09300
H 	H 	0.12904 0.46402 0.01880 0.16000
H 	H 	0.01540 0.38740 0.94282 0.15300
H 	H 	0.90329 0.58900 0.90919 0.17200
H 	H 	0.17748 0.61223 0.91316 0.16300
C 	C 	0.54798 0.99629 0.05739 -0.10800
C 	C 	0.52264 0.02620 0.03963 0.00700
C 	C 	0.45426 0.98858 0.03168 0.13200
C 	C 	0.41279 0.92059 0.04066 -0.02800
C 	C 	0.43907 0.88945 0.05744 -0.11600
C 	C 	0.50710 0.92777 0.06585 0.19900
C 	C 	0.56984 0.09244 0.02654 0.01000
O 	O 	0.42922 0.01650 0.01376 -0.26200
H 	H 	0.36069 0.89141 0.03397 0.07600
O 	O 	0.53443 0.89765 0.08154 -0.27700
H 	H 	0.60053 0.02500 0.06359 0.08200
C 	C 	0.56401 0.15179 0.03066 0.12400
C 	C 	0.59731 0.20871 0.01359 -0.02900
C 	C 	0.63606 0.20635 0.99237 -0.11000
C 	C 	0.65029 0.15163 0.99102 0.19600
C 	C 	0.61635 0.09439 0.00781 -0.10700
O 	O 	0.52239 0.15248 0.05019 -0.27000
H 	H 	0.58883 0.25228 0.01566 0.06500
O 	O 	0.69287 0.15137 0.97182 -0.26500
H 	H 	0.62343 0.05001 0.00533 0.08400
H 	H 	0.55337 0.87704 0.06915 0.16000
H 	H 	0.55174 0.17108 0.06598 0.15800
H 	H 	0.73862 0.17439 0.97993 0.16200
H 	H 	0.40894 0.03884 0.02453 0.16900
C 	C 	0.39416 0.30082 0.99540 -0.11100
C 	C 	0.38917 0.35985 0.98982 0.01100
C 	C 	0.42935 0.40542 0.96958 0.12900
C 	C 	0.47633 0.39353 0.95604 -0.02900
C 	C 	0.48460 0.33692 0.96273 -0.11400
C 	C 	0.44220 0.28957 0.98225 0.19700
C 	C 	0.34976 0.37939 0.00758 0.00800
O 	O 	0.42613 0.46423 0.96430 -0.26100
H 	H 	0.50776 0.42955 0.94079 0.07500
O 	O 	0.44831 0.23307 0.98881 -0.27100
H 	H 	0.36293 0.26525 0.01080 0.08400
C 	C 	0.29477 0.38509 0.99777 0.12600
C 	C 	0.27309 0.42559 0.01128 -0.02900
C 	C 	0.30546 0.45932 0.03474 -0.11100
C 	C 	0.35177 0.44317 0.04673 0.19700
C 	C 	0.37447 0.40400 0.03297 -0.10400
O 	O 	0.26615 0.35614 0.97395 -0.26900
H 	H 	0.23521 0.43536 0.00241 0.06500
O 	O 	0.37963 0.47111 0.07076 -0.26700
H 	H 	0.41473 0.39705 0.04121 0.08700
H 	H 	0.48069 0.24843 0.00376 0.15800
H 	H 	0.22862 0.30907 0.97830 0.15700
H 	H 	0.34916 0.43683 0.08403 0.16100
H 	H 	0.39276 0.45138 0.94978 0.16700
C 	C 	0.83946 0.06062 0.77450 -0.08400
C 	C 	0.78217 0.00548 0.78696 0.15400
C 	C 	0.74649 0.01965 0.80618 -0.07500
C 	C 	0.76545 0.08807 0.81250 0.02700
C 	C 	0.82066 0.14308 0.79935 0.08800
C 	C 	0.85766 0.12917 0.78064 -0.00400
H 	H 	0.70345 0.97730 0.81607 0.09400
C 	C 	0.72721 0.10191 0.83283 0.02500
H 	H 	0.90065 0.17177 0.77084 0.07600
C 	C 	0.75479 0.12236 0.85816 -0.07600
C 	C 	0.72823 0.15168 0.87556 0.14900
C 	C 	0.67307 0.15967 0.86771 -0.08000
C 	C 	0.63980 0.13016 0.84390 -0.00700
C 	C 	0.66714 0.10219 0.82626 0.09000
H 	H 	0.79947 0.11955 0.86369 0.09100
H 	H 	0.59651 0.13497 0.83798 0.09100
Br	Br	0.84570 0.23758 0.80642 -0.18000
Br	Br	0.75099 0.91057 0.77817 -0.19100
Br	Br	0.77113 0.18565 0.90911 -0.21200
Br	Br	0.62506 0.07003 0.79244 -0.16900
C 	C 	0.16891 0.14056 0.78579 -0.09500
C 	C 	0.17317 0.14665 0.81349 0.15000
C 	C 	0.23673 0.17621 0.82582 -0.08000
C 	C 	0.29614 0.19952 0.81070 0.02600
C 	C 	0.29179 0.19454 0.78300 0.08900
C 	C 	0.22848 0.16510 0.77074 -0.00700
H 	H 	0.23985 0.17985 0.84717 0.08900
C 	C 	0.36155 0.22193 0.82408 0.02600
H 	H 	0.22549 0.15936 0.74951 0.07700
C 	C 	0.37848 0.17207 0.83199 -0.08000
C 	C 	0.43958 0.19178 0.84505 0.15100
C 	C 	0.48499 0.26233 0.85010 -0.09200
C 	C 	0.46900 0.31247 0.84145 -0.00500
C 	C 	0.40731 0.29258 0.82867 0.08800
H 	H 	0.34368 0.11773 0.82822 0.09000
H 	H 	0.50338 0.36673 0.84552 0.07300
Br	Br	0.37171 0.22575 0.76156 -0.18300
Br	Br	0.09301 0.11514 0.83476 -0.19300
Br	Br	0.45898 0.12126 0.85655 -0.21400
Br	Br	0.38567 0.36233 0.81823 -0.17800
C 	C 	0.74344 0.55653 0.88555 -0.09900
C 	C 	0.77643 0.56158 0.86115 0.15600
C 	C 	0.81427 0.62586 0.84892 -0.08700
C 	C 	0.81391 0.68425 0.85884 0.02800
C 	C 	0.78067 0.67963 0.88293 0.08500
C 	C 	0.74738 0.61630 0.89658 -0.00400
H 	H 	0.83982 0.62941 0.83038 0.09300
C 	C 	0.83817 0.74557 0.84155 0.02800
H 	H 	0.72259 0.61310 0.91526 0.07100
C 	C 	0.79913 0.74103 0.81943 -0.08100
C 	C 	0.82879 0.78525 0.79785 0.15600
C 	C 	0.89615 0.84029 0.79955 -0.08900
C 	C 	0.93399 0.84803 0.82245 -0.00400
C 	C 	0.90574 0.80019 0.84323 0.08900
H 	H 	0.74745 0.69852 0.81790 0.09300
H 	H 	0.98578 0.89030 0.82389 0.07900
Br	Br	0.77836 0.75844 0.89702 -0.18000
Br	Br	0.76621 0.48157 0.84264 -0.27000
Br	Br	0.78035 0.76252 0.76496 -0.20400
Br	Br	0.96109 0.80822 0.87311 -0.17900
