data_crystal

_cell_length_a 18.99820
_cell_length_b 18.41088
_cell_length_c 45.52296
_cell_angle_alpha 90.04959
_cell_angle_beta  90.05362
_cell_angle_gamma 119.41129

_symmetry_space_group_name_	'P 1'
_symmetry_space_group_name_H-M	'P 1'

loop_
_symmetry_equiv_pos_as_xyz
  x,y,z

loop_
_atom_site_label
_atom_site_type_symbol
_atom_site_fract_x
_atom_site_fract_y
_atom_site_fract_z
_atom_site_charge
C 	C 	0.52978 0.20712 0.87029 0.30200
C 	C 	0.82212 0.52146 0.89557 0.33300
C 	C 	0.74766 0.25711 0.85891 0.32900
C 	C 	0.60916 0.45539 0.91277 0.32700
C 	C 	0.81245 0.32083 0.94724 0.34200
C 	C 	0.59391 0.24355 0.97093 0.33400
Ni	Ni	0.68158 0.37385 0.87208 1.11900
Ni	Ni	0.71661 0.40383 0.94177 1.13500
Ni	Ni	0.65852 0.22298 0.91476 1.12800
O 	O 	0.56327 0.28708 0.86348 -0.35000
O 	O 	0.57314 0.17378 0.88133 -0.35100
O 	O 	0.81439 0.39148 0.94152 -0.36800
O 	O 	0.80236 0.45554 0.87956 -0.36100
O 	O 	0.78325 0.51396 0.92016 -0.34200
O 	O 	0.57568 0.19927 0.94627 -0.35600
O 	O 	0.71141 0.29592 0.84767 -0.35500
O 	O 	0.75086 0.24908 0.88723 -0.36500
O 	O 	0.66190 0.31602 0.97357 -0.34900
O 	O 	0.64890 0.46138 0.88782 -0.34400
O 	O 	0.62461 0.42759 0.93756 -0.35000
O 	O 	0.74376 0.24923 0.94634 -0.34500
O 	O 	0.66643 0.32854 0.90982 -0.72000
H 	H 	0.60923 0.31164 0.91313 0.16900
C 	C 	0.45187 0.18643 0.62189 0.31600
C 	C 	0.78406 0.28252 0.57768 0.34900
C 	C 	0.57879 0.09200 0.63545 0.34400
C 	C 	0.66877 0.38040 0.55984 0.32700
C 	C 	0.76295 0.29150 0.67117 0.32700
C 	C 	0.68670 0.44433 0.66258 0.31500
Ni	Ni	0.60575 0.21223 0.58798 1.12700
Ni	Ni	0.75014 0.37651 0.61866 1.13300
Ni	Ni	0.59797 0.25401 0.65772 1.12600
O 	O 	0.48298 0.15767 0.60157 -0.33000
O 	O 	0.49834 0.24740 0.63987 -0.36500
O 	O 	0.78850 0.36478 0.65887 -0.36000
O 	O 	0.71329 0.24401 0.56473 -0.32300
O 	O 	0.78452 0.29482 0.60554 -0.36800
O 	O 	0.63475 0.37082 0.67450 -0.35600
O 	O 	0.62605 0.13187 0.61342 -0.35100
O 	O 	0.54545 0.12751 0.65109 -0.35600
O 	O 	0.71206 0.45147 0.63524 -0.35800
O 	O 	0.60407 0.30594 0.56359 -0.34300
O 	O 	0.73662 0.40651 0.57576 -0.34300
O 	O 	0.68667 0.24470 0.67785 -0.37000
O 	O 	0.64210 0.29014 0.61931 -0.71600
H 	H 	0.61583 0.32315 0.61423 0.17500
C 	C 	0.88974 0.80523 0.73320 0.31300
C 	C 	0.19248 0.05533 0.79208 0.31200
C 	C 	0.95249 0.85776 0.81206 0.32700
C 	C 	0.14402 0.02683 0.70890 0.29200
C 	C 	0.94963 0.10104 0.72847 0.30500
Ni	Ni	0.05901 0.91450 0.75975 1.11900
Ni	Ni	0.08965 0.10351 0.75711 1.12200
Ni	Ni	0.90920 0.95075 0.76793 1.12800
O 	O 	0.95003 0.80790 0.74876 -0.36100
O 	O 	0.86779 0.86306 0.73583 -0.35600
O 	O 	0.03861 0.15117 0.78483 -0.36300
O 	O 	0.17661 0.99874 0.77196 -0.34900
O 	O 	0.15357 0.09793 0.79237 -0.35400
O 	O 	0.89331 0.03065 0.74108 -0.36400
O 	O 	0.02794 0.89881 0.80370 -0.36000
O 	O 	0.89496 0.85740 0.79575 -0.36000
O 	O 	0.02542 0.11760 0.72471 -0.37000
O 	O 	0.10120 0.94748 0.71703 -0.33900
O 	O 	0.16490 0.08860 0.72829 -0.35600
O 	O 	0.93900 0.02702 0.80240 -0.38200
O 	O 	0.01612 0.98659 0.75523 -0.71300
C 	C 	0.49289 0.79633 0.38154 0.30700
C 	C 	0.19640 0.48007 0.39575 0.33500
C 	C 	0.27599 0.74802 0.36308 0.32500
C 	C 	0.40376 0.54707 0.42226 0.32100
C 	C 	0.19746 0.68261 0.45092 0.34500
C 	C 	0.40485 0.74880 0.47889 0.33200
Ni	Ni	0.34110 0.63086 0.37798 1.11800
Ni	Ni	0.28560 0.59312 0.44581 1.13200
Ni	Ni	0.35546 0.77804 0.42105 1.12900
O 	O 	0.46041 0.71823 0.37254 -0.35000
O 	O 	0.44719 0.82911 0.39029 -0.35200
O 	O 	0.19383 0.61515 0.43998 -0.37100
O 	O 	0.21940 0.54816 0.38089 -0.36900
O 	O 	0.22355 0.48465 0.42253 -0.34500
O 	O 	0.43056 0.79534 0.45482 -0.35400
O 	O 	0.31549 0.71118 0.35286 -0.35300
O 	O 	0.26816 0.75439 0.39126 -0.36300
O 	O 	0.33478 0.67755 0.47923 -0.34800
O 	O 	0.37142 0.54285 0.39563 -0.34200
O 	O 	0.37536 0.56483 0.44633 -0.34500
O 	O 	0.26651 0.75357 0.45062 -0.34500
O 	O 	0.34720 0.67179 0.41604 -0.71800
H 	H 	0.40281 0.68645 0.42146 0.17000
C 	C 	0.51474 0.78119 0.13509 0.31400
C 	C 	0.24167 0.71759 0.05255 0.34200
C 	C 	0.40274 0.89665 0.12453 0.34100
C 	C 	0.34713 0.61024 0.05421 0.32900
C 	C 	0.18090 0.69354 0.14763 0.33500
C 	C 	0.26056 0.53982 0.15406 0.30600
Ni	Ni	0.40167 0.77166 0.08367 1.12900
Ni	Ni	0.22935 0.61235 0.10132 1.12700
Ni	Ni	0.34758 0.73059 0.15155 1.12500
O 	O 	0.50564 0.81563 0.11056 -0.32900
O 	O 	0.45213 0.72770 0.15088 -0.36800
O 	O 	0.16109 0.62266 0.13401 -0.35800
O 	O 	0.32002 0.74929 0.04891 -0.32600
O 	O 	0.21178 0.69598 0.07885 -0.36300
O 	O 	0.28092 0.61171 0.16798 -0.36600
O 	O 	0.37502 0.86028 0.09927 -0.34400
O 	O 	0.41689 0.85691 0.14573 -0.35200
O 	O 	0.24234 0.52931 0.12569 -0.35700
O 	O 	0.40916 0.67109 0.06789 -0.34600
O 	O 	0.27061 0.58051 0.06365 -0.34400
O 	O 	0.25564 0.75261 0.14919 -0.37600
O 	O 	0.33597 0.69380 0.11207 -0.71800
H 	H 	0.36031 0.65753 0.11383 0.17600
C 	C 	0.09368 0.18118 0.22820 0.31300
C 	C 	0.83174 0.94805 0.30810 0.32700
C 	C 	0.07673 0.14808 0.30947 0.32300
C 	C 	0.83233 0.94722 0.22355 0.31100
C 	C 	0.05989 0.89867 0.29727 0.31600
C 	C 	0.03139 0.88176 0.22666 0.30200
Ni	Ni	0.91461 0.88908 0.26729 1.12500
Ni	Ni	0.09611 0.04441 0.26239 1.12000
O 	O 	0.04168 0.18088 0.24762 -0.36500
O 	O 	0.11575 0.12300 0.22813 -0.36200
O 	O 	0.83536 0.99692 0.28676 -0.35900
O 	O 	0.87200 0.90694 0.30632 -0.35300
O 	O 	0.09440 0.95560 0.23452 -0.35500
O 	O 	0.99828 0.10413 0.30677 -0.36600
O 	O 	0.12484 0.14486 0.28919 -0.36200
O 	O 	0.87660 0.02912 0.22773 -0.35500
O 	O 	0.82305 0.89367 0.24489 -0.35600
O 	O 	0.09256 0.97989 0.29811 -0.37200
C 	C 	0.23622 0.46567 0.17125 -0.06000
C 	C 	0.21031 0.40021 0.18419 0.05400
C 	C 	0.17445 0.32206 0.19865 0.05800
C 	C 	0.13967 0.25619 0.21142 -0.06700
C 	C 	0.77439 0.91761 0.20015 -0.06200
C 	C 	0.72121 0.88898 0.18209 0.06400
C 	C 	0.65393 0.85237 0.16312 0.06400
C 	C 	0.59235 0.81982 0.14902 -0.05400
C 	C 	0.04657 0.82666 0.20875 -0.06100
C 	C 	0.06166 0.78199 0.19376 0.05700
C 	C 	0.08760 0.73595 0.17643 0.06800
C 	C 	0.12197 0.70742 0.16232 -0.06700
C 	C 	0.57460 0.85004 0.37254 -0.05100
C 	C 	0.64094 0.88187 0.36171 0.06200
C 	C 	0.71321 0.90788 0.34586 0.06900
C 	C 	0.76999 0.92591 0.32987 -0.06800
C 	C 	0.16955 0.40409 0.37972 -0.07500
C 	C 	0.15066 0.34292 0.36500 0.06400
C 	C 	0.12931 0.27377 0.34653 0.05800
C 	C 	0.10830 0.21591 0.32990 -0.07400
C 	C 	0.10534 0.86041 0.30829 -0.06900
C 	C 	0.14524 0.83072 0.31784 0.05800
C 	C 	0.19278 0.79855 0.33047 0.05900
C 	C 	0.23236 0.77366 0.34354 -0.06700
C 	C 	0.54848 0.00149 0.63754 -0.13400
C 	C 	0.46582 0.94687 0.63265 0.14100
C 	C 	0.44255 0.88362 0.61134 0.05700
C 	C 	0.50262 0.87399 0.59652 0.03000
C 	C 	0.58128 0.91176 0.60843 0.06000
C 	C 	0.60263 0.97278 0.63047 0.14700
C 	C 	0.48894 0.84491 0.56556 0.01200
C 	C 	0.46655 0.76181 0.55870 0.07800
C 	C 	0.44840 0.73354 0.52944 0.12500
C 	C 	0.44365 0.78550 0.50754 -0.09500
C 	C 	0.46484 0.86872 0.51478 0.12700
C 	C 	0.49358 0.89960 0.54309 0.08500
Br	Br	0.66099 0.88732 0.59229 -0.11300
Br	Br	0.38618 0.95714 0.65549 -0.15700
Br	Br	0.42968 0.62356 0.51945 -0.14000
Br	Br	0.53838 0.01702 0.55121 -0.19300
Br	Br	0.70932 0.02705 0.64726 -0.16600
Br	Br	0.33074 0.81555 0.60069 -0.11400
Br	Br	0.45752 0.68589 0.58952 -0.11600
Br	Br	0.44357 0.93694 0.48791 -0.14500
C 	C 	0.13387 0.67183 0.47143 -0.11200
C 	C 	0.14663 0.66297 0.50114 0.12300
C 	C 	0.09000 0.59214 0.51619 0.06300
C 	C 	0.01142 0.54463 0.50444 0.01700
C 	C 	0.05380 0.63328 0.46104 0.12800
C 	C 	0.92250 0.39072 0.51329 0.07100
C 	C 	0.87167 0.32507 0.53241 0.13500
C 	C 	0.85498 0.34424 0.56067 -0.11200
C 	C 	0.89585 0.42815 0.57000 0.10800
C 	C 	0.92643 0.49077 0.54899 0.07400
Br	Br	0.88046 0.52294 0.46581 -0.11900
Br	Br	0.23954 0.74827 0.52111 -0.12900
Br	Br	0.83137 0.21057 0.52109 -0.12200
Br	Br	0.94113 0.59937 0.55827 -0.13100
Br	Br	0.03165 0.66038 0.42258 -0.14300
Br	Br	0.12287 0.55518 0.55055 -0.12600
Br	Br	0.93099 0.45705 0.61006 -0.21200
C 	C 	0.45818 0.51232 0.42653 -0.10400
C 	C 	0.42965 0.43837 0.44282 0.12700
C 	C 	0.48218 0.42785 0.46189 0.06700
C 	C 	0.56526 0.48708 0.46203 0.01900
C 	C 	0.59597 0.55172 0.44110 0.07000
C 	C 	0.54213 0.56474 0.42345 0.12100
C 	C 	0.61958 0.48126 0.48423 0.02000
C 	C 	0.63428 0.52447 0.51111 0.07000
C 	C 	0.65973 0.49716 0.53577 0.12400
C 	C 	0.67138 0.42761 0.53329 -0.10000
C 	C 	0.66972 0.39397 0.50523 0.12600
C 	C 	0.64508 0.42197 0.48062 0.07400
Br	Br	0.71107 0.62246 0.43695 -0.11700
Br	Br	0.31733 0.35466 0.44033 -0.14900
Br	Br	0.67422 0.55172 0.57321 -0.13900
Br	Br	0.64153 0.37587 0.44224 -0.12300
Br	Br	0.58283 0.65504 0.39576 -0.17500
Br	Br	0.43980 0.33561 0.48904 -0.13400
Br	Br	0.62012 0.62080 0.51397 -0.11500
Br	Br	0.69608 0.30620 0.50077 -0.13900
C 	C 	0.92365 0.15379 0.71448 -0.06100
C 	C 	0.89704 0.19495 0.70350 0.06100
C 	C 	0.85905 0.23764 0.69144 0.06800
C 	C 	0.81953 0.26723 0.68180 -0.05900
C 	C 	0.36926 0.13616 0.63054 -0.05600
C 	C 	0.30554 0.10054 0.64320 0.06800
C 	C 	0.23993 0.06717 0.66292 0.06000
C 	C 	0.19193 0.04543 0.68277 -0.05500
C 	C 	0.71717 0.51882 0.67987 -0.06100
C 	C 	0.74971 0.58439 0.69281 0.06100
C 	C 	0.79418 0.66246 0.70679 0.06000
C 	C 	0.83621 0.72864 0.71856 -0.06400
C 	C 	0.88875 0.32435 0.95532 -0.10800
C 	C 	0.01489 0.45154 0.95039 0.07100
C 	C 	0.02406 0.45639 0.98128 0.01700
C 	C 	0.90365 0.31953 0.98532 0.12400
C 	C 	0.07956 0.53708 0.99581 0.01700
C 	C 	0.16334 0.57676 0.99041 0.06700
C 	C 	0.21346 0.65595 0.00231 0.12100
C 	C 	0.18658 0.68083 0.02697 -0.10900
C 	C 	0.10259 0.64794 0.03047 0.12000
C 	C 	0.04862 0.57742 0.01390 0.06700
Br	Br	0.29357 0.74015 0.97777 -0.11500
Br	Br	0.93434 0.53995 0.01442 -0.14400
Br	Br	0.82325 0.23156 0.00897 -0.12400
Br	Br	0.06554 0.55075 0.92652 -0.12900
Br	Br	0.20951 0.52277 0.96759 -0.13700
Br	Br	0.06246 0.70346 0.05570 -0.13000
C 	C 	0.42876 0.98581 0.12705 -0.09000
C 	C 	0.51138 0.04303 0.12368 0.11000
C 	C 	0.53538 0.10701 0.10266 0.06800
C 	C 	0.47585 0.11303 0.08599 0.01600
C 	C 	0.39527 0.07142 0.09600 0.07200
C 	C 	0.37318 0.01101 0.11824 0.10600
C 	C 	0.49352 0.14196 0.05508 0.01800
C 	C 	0.50983 0.22281 0.04745 0.07300
C 	C 	0.53182 0.25121 0.01840 0.12500
C 	C 	0.54852 0.20359 0.99807 -0.10300
C 	C 	0.53361 0.12303 0.00609 0.12900
C 	C 	0.49948 0.09012 0.03358 0.06600
Br	Br	0.31451 0.08909 0.07686 -0.12500
Br	Br	0.59035 0.02736 0.14495 -0.16600
Br	Br	0.53856 0.35491 0.00640 -0.14300
Br	Br	0.46127 0.97401 0.04181 -0.14600
Br	Br	0.26380 0.95121 0.13232 -0.14100
Br	Br	0.64803 0.18013 0.09448 -0.12900
Br	Br	0.50658 0.29613 0.07703 -0.12300
Br	Br	0.56993 0.06210 0.98161 -0.15000
C 	C 	0.36194 0.58417 0.02527 -0.10500
C 	C 	0.34092 0.50028 0.02019 0.12800
C 	C 	0.36771 0.47883 0.99439 0.07200
C 	C 	0.40847 0.53980 0.97258 0.02300
C 	C 	0.41462 0.61835 0.97559 0.07400
C 	C 	0.40443 0.64461 0.00327 0.13100
C 	C 	0.46245 0.53011 0.95152 0.01900
C 	C 	0.54699 0.57673 0.95543 0.06700
C 	C 	0.59753 0.56991 0.93468 0.12800
C 	C 	0.56550 0.50174 0.91547 -0.10800
C 	C 	0.48225 0.46114 0.90925 0.12300
C 	C 	0.43082 0.47859 0.92653 0.07000
Br	Br	0.44771 0.69356 0.94264 -0.11300
Br	Br	0.28127 0.41639 0.04936 -0.13600
Br	Br	0.71182 0.64687 0.93482 -0.14600
Br	Br	0.31923 0.43484 0.91561 -0.11600
Br	Br	0.46683 0.76195 0.01267 -0.15400
Br	Br	0.35134 0.36762 0.98947 -0.11400
Br	Br	0.59283 0.63965 0.99099 -0.12400
Br	Br	0.43869 0.37761 0.87891 -0.16800
C 	C 	0.79421 0.23276 0.84061 -0.06500
C 	C 	0.83558 0.20875 0.82850 0.06000
C 	C 	0.88438 0.17703 0.81705 0.06300
C 	C 	0.92461 0.14693 0.80849 -0.07700
C 	C 	0.45143 0.15394 0.85772 -0.05400
C 	C 	0.38764 0.12203 0.84476 0.05800
C 	C 	0.31666 0.09523 0.82769 0.06200
C 	C 	0.25891 0.07677 0.81198 -0.06600
C 	C 	0.85971 0.60072 0.88126 -0.06600
C 	C 	0.88570 0.66481 0.86773 0.06600
C 	C 	0.91120 0.73611 0.85012 0.06300
C 	C 	0.93054 0.79363 0.83355 -0.07100
Br	Br	0.00063 0.37818 0.03859 -0.14300
C 	C 	0.94853 0.47443 0.52150 0.01900
C 	C 	0.96928 0.10717 0.79854 0.32400
Ni	Ni	0.94277 0.07695 0.26619 1.11800
C 	C 	0.95529 0.37684 0.93798 0.12800
Br	Br	0.95263 0.35808 0.89643 -0.15300
Br	Br	0.95857 0.36654 0.47690 -0.13300
O 	O 	0.95526 0.86358 0.23030 -0.37100
C 	C 	0.97377 0.38516 0.99830 0.07100
H 	H 	0.00409 0.98026 0.73402 0.16500
O 	O 	0.98293 0.85143 0.29041 -0.36100
O 	O 	0.98384 0.00435 0.25899 -0.72000
H 	H 	0.98276 0.00338 0.23735 0.16000
C 	C 	0.99158 0.57064 0.47803 0.06900
