data_crystal

_cell_length_a 18.69765
_cell_length_b 18.76060
_cell_length_c 35.02104
_cell_angle_alpha 95.42793
_cell_angle_beta  95.42853
_cell_angle_gamma 126.45067

_symmetry_space_group_name_	'P 1'
_symmetry_space_group_name_H-M	'P 1'

loop_
_symmetry_equiv_pos_as_xyz
  x,y,z

loop_
_atom_site_label
_atom_site_type_symbol
_atom_site_fract_x
_atom_site_fract_y
_atom_site_fract_z
_atom_site_charge
C 	C 	0.90978 0.00157 0.96981 0.14200
N 	N 	0.00147 0.05628 0.97546 -0.10800
C 	C 	0.04712 0.02131 0.97860 0.16400
N 	N 	0.00136 0.93145 0.97663 -0.09800
C 	C 	0.90973 0.87580 0.97071 0.17200
N 	N 	0.86329 0.91061 0.96703 -0.10000
C 	C 	0.96360 0.04208 0.49665 0.15200
N 	N 	0.05339 0.09107 0.49533 -0.10300
C 	C 	0.09289 0.04930 0.49304 0.16900
N 	N 	0.04261 0.95910 0.49159 -0.09600
C 	C 	0.95351 0.91053 0.49321 0.17700
N 	N 	0.91410 0.95200 0.49592 -0.10200
Cu	Cu	0.72842 0.32725 0.95472 0.92700
Cu	Cu	0.77076 0.29153 0.04243 0.89700
Cu	Cu	0.61070 0.30727 0.01383 0.92000
Cu	Cu	0.56476 0.33596 0.93437 0.91300
C 	C 	0.65743 0.30999 0.87431 0.29400
O 	O 	0.79336 0.46121 0.95153 -0.34000
C 	C 	0.65942 0.30062 0.09090 0.28200
O 	O 	0.59295 0.26839 0.95887 -0.63600
O 	O 	0.73820 0.35444 0.01219 -0.62600
O 	O 	0.76308 0.24314 0.95064 -0.33600
O 	O 	0.85034 0.29716 0.01142 -0.38700
O 	O 	0.59349 0.31651 0.88253 -0.34900
O 	O 	0.48489 0.25126 0.01416 -0.34900
C 	C 	0.43132 0.24871 0.98583 0.33000
C 	C 	0.75946 0.50306 0.96254 0.32300
O 	O 	0.67977 0.45760 0.97232 -0.37300
O 	O 	0.46452 0.30665 0.96191 -0.35600
O 	O 	0.69616 0.28838 0.89918 -0.34100
C 	C 	0.81666 0.24228 0.97761 0.32300
O 	O 	0.63501 0.33957 0.06996 -0.34900
O 	O 	0.67631 0.24825 0.07343 -0.39300
H 	H 	0.54845 0.20224 0.94995 0.18600
H 	H 	0.78064 0.42003 0.02267 0.18400
Cu	Cu	0.62941 0.20971 0.50880 0.93200
Cu	Cu	0.68840 0.20521 0.42395 0.89400
Cu	Cu	0.67881 0.34819 0.45630 0.90500
Cu	Cu	0.64433 0.38311 0.53526 0.91000
C 	C 	0.66573 0.28135 0.59104 0.28900
O 	O 	0.49937 0.16119 0.51139 -0.33900
C 	C 	0.63473 0.27777 0.37090 0.28700
O 	O 	0.70761 0.34953 0.51049 -0.63800
O 	O 	0.61101 0.21539 0.45284 -0.63700
O 	O 	0.68351 0.14412 0.50498 -0.34200
O 	O 	0.77751 0.23533 0.46653 -0.41500
O 	O 	0.63469 0.32650 0.58204 -0.34900
O 	O 	0.75263 0.47796 0.46332 -0.35900
C 	C 	0.75109 0.53028 0.49069 0.33600
C 	C 	0.46690 0.20266 0.49906 0.32600
O 	O 	0.52222 0.28487 0.49265 -0.36800
O 	O 	0.69360 0.49667 0.51497 -0.35900
O 	O 	0.66620 0.22741 0.56402 -0.33600
C 	C 	0.75690 0.17782 0.48988 0.33400
O 	O 	0.66677 0.34708 0.39935 -0.35600
O 	O 	0.62650 0.20566 0.37784 -0.38900
H 	H 	0.77322 0.38683 0.52135 0.18600
H 	H 	0.54725 0.17905 0.43919 0.20000
C 	C 	0.66555 0.30002 0.83320 -0.04500
C 	C 	0.74431 0.36678 0.82085 0.01500
C 	C 	0.74975 0.36102 0.78126 -0.03400
C 	C 	0.67785 0.28456 0.75349 0.01600
C 	C 	0.59818 0.21704 0.76633 0.02400
C 	C 	0.59312 0.22494 0.80608 -0.00900
C 	C 	0.52290 0.14437 0.73918 -0.02800
C 	C 	0.52354 0.14000 0.69932 -0.02800
C 	C 	0.60075 0.20628 0.68582 0.02600
C 	C 	0.68055 0.27630 0.71275 0.01500
C 	C 	0.76041 0.33556 0.69818 -0.03500
C 	C 	0.75647 0.33473 0.65802 0.01100
C 	C 	0.67490 0.27116 0.63181 -0.04400
C 	C 	0.59866 0.20419 0.64554 -0.00800
H 	H 	0.80054 0.42493 0.84180 0.06500
H 	H 	0.80764 0.41812 0.77241 0.06300
H 	H 	0.53212 0.17339 0.81583 0.06100
H 	H 	0.46237 0.09233 0.74897 0.06200
H 	H 	0.46331 0.08502 0.67879 0.06500
H 	H 	0.82575 0.37955 0.71731 0.06100
H 	H 	0.81686 0.38394 0.64733 0.05400
H 	H 	0.53671 0.15251 0.62494 0.07100
C 	C 	0.64594 0.29721 0.13161 -0.05600
C 	C 	0.59750 0.21428 0.14413 0.01200
C 	C 	0.58638 0.21050 0.18294 -0.04000
C 	C 	0.62218 0.29017 0.20989 0.01400
C 	C 	0.67555 0.37441 0.19767 0.02200
C 	C 	0.68416 0.37710 0.15828 -0.01300
C 	C 	0.72388 0.45496 0.22530 -0.02900
C 	C 	0.72340 0.45275 0.26502 -0.03100
C 	C 	0.66973 0.37012 0.27756 0.02300
C 	C 	0.61313 0.28869 0.24976 0.01200
C 	C 	0.54817 0.20855 0.26244 -0.04000
C 	C 	0.55138 0.20653 0.30229 0.01100
C 	C 	0.61693 0.28485 0.33001 -0.05200
C 	C 	0.67256 0.36762 0.31766 -0.01400
H 	H 	0.56931 0.15249 0.12383 0.05700
H 	H 	0.55462 0.14637 0.19223 0.05700
H 	H 	0.72339 0.44142 0.14872 0.05900
H 	H 	0.76486 0.51953 0.21613 0.06200
H 	H 	0.76466 0.51555 0.28608 0.06500
H 	H 	0.49358 0.14878 0.24179 0.05900
H 	H 	0.50384 0.14355 0.31165 0.05800
H 	H 	0.72039 0.42914 0.33907 0.06800
C 	C 	0.78878 0.65825 0.45812 0.11900
C 	C 	0.80509 0.62735 0.49055 -0.11300
C 	C 	0.86943 0.68963 0.52391 0.11700
C 	C 	0.91468 0.78241 0.52549 0.08000
C 	C 	0.90031 0.81337 0.49271 -0.04100
C 	C 	0.83861 0.75134 0.45876 0.08000
Br	Br	0.82508 0.79406 0.41267 -0.12500
Br	Br	0.69525 0.57324 0.41363 -0.16400
Br	Br	0.99437 0.86714 0.57293 -0.12900
Br	Br	0.89792 0.64780 0.56682 -0.19300
C 	C 	0.86647 0.07111 0.45909 0.07700
C 	C 	0.91770 0.08422 0.49481 -0.03700
C 	C 	0.91436 0.12628 0.52941 0.07600
C 	C 	0.85946 0.15484 0.52818 0.11900
C 	C 	0.80541 0.13824 0.49256 -0.12000
C 	C 	0.80646 0.09305 0.45834 0.11900
Br	Br	0.72150 0.05594 0.41104 -0.25400
Br	Br	0.88127 0.02626 0.41100 -0.14800
Br	Br	0.85947 0.21790 0.57500 -0.17400
Br	Br	0.98457 0.14421 0.57838 -0.14700
C 	C 	0.31348 0.13492 0.46113 0.11700
C 	C 	0.37046 0.16223 0.49746 -0.11300
C 	C 	0.33825 0.16189 0.53233 0.11600
C 	C 	0.24901 0.13281 0.53080 0.07900
C 	C 	0.19098 0.10183 0.49454 -0.03900
C 	C 	0.22398 0.10525 0.45972 0.07900
Br	Br	0.14583 0.06818 0.41012 -0.13700
Br	Br	0.35750 0.13646 0.41334 -0.19600
Br	Br	0.20535 0.13398 0.57845 -0.12800
Br	Br	0.41645 0.20206 0.58220 -0.18800
C 	C 	0.83156 0.72132 0.93192 0.08000
C 	C 	0.86171 0.77795 0.96854 -0.04200
C 	C 	0.86514 0.74573 0.00287 0.08300
C 	C 	0.84245 0.65890 0.00059 0.12200
C 	C 	0.81010 0.60123 0.96405 -0.11500
C 	C 	0.80544 0.63305 0.92966 0.11400
Br	Br	0.76005 0.55459 0.87955 -0.19400
Br	Br	0.82739 0.76534 0.88480 -0.12900
Br	Br	0.85577 0.61875 0.04757 -0.19900
Br	Br	0.90069 0.82090 0.05311 -0.13200
C 	C 	0.87601 0.09238 0.93607 0.07400
C 	C 	0.86168 0.04166 0.96568 -0.03000
C 	C 	0.81999 0.04746 0.99605 0.05600
C 	C 	0.79894 0.10840 0.99818 0.11800
C 	C 	0.82681 0.16931 0.97199 -0.11800
C 	C 	0.86294 0.15925 0.94015 0.12000
Br	Br	0.89934 0.23999 0.90342 -0.16400
Br	Br	0.91435 0.07040 0.89012 -0.15100
Br	Br	0.72623 0.10350 0.03491 -0.26600
Br	Br	0.79624 0.97573 0.03591 -0.10200
C 	C 	0.29736 0.20063 0.01625 0.12400
C 	C 	0.33334 0.18999 0.98451 -0.11900
C 	C 	0.27509 0.12425 0.95086 0.12100
C 	C 	0.18103 0.07148 0.94835 0.06200
C 	C 	0.14521 0.07946 0.98065 -0.04000
C 	C 	0.20339 0.14318 0.01480 0.08100
Br	Br	0.15432 0.14978 0.05990 -0.13900
Br	Br	0.37612 0.29687 0.06070 -0.15100
Br	Br	0.10098 0.99118 0.90007 -0.08600
Br	Br	0.32450 0.10430 0.90878 -0.21700
