data_crystal

_cell_length_a 33.09755
_cell_length_b 32.83946
_cell_length_c 18.93966
_cell_angle_alpha 90.46000
_cell_angle_beta  89.67238
_cell_angle_gamma 90.01693

_symmetry_space_group_name_	'P 1'
_symmetry_space_group_name_H-M	'P 1'

loop_
_symmetry_equiv_pos_as_xyz
  x,y,z

loop_
_atom_site_label
_atom_site_type_symbol
_atom_site_fract_x
_atom_site_fract_y
_atom_site_fract_z
_atom_site_charge
Cd	Cd	0.92912 0.83164 0.24202 1.24600
Cd	Cd	0.97288 0.88527 0.38821 1.25100
O 	O 	0.86693 0.79351 0.26741 -0.30800
O 	O 	0.89367 0.79397 0.16144 -0.34100
C 	C 	0.86655 0.77857 0.20378 0.29100
O 	O 	0.97612 0.87137 0.19125 -0.34800
O 	O 	0.01299 0.87848 0.29248 -0.37600
C 	C 	0.00259 0.89182 0.22966 0.40000
C 	C 	0.89588 0.90778 0.28448 0.40800
O 	O 	0.95928 0.81755 0.36714 -0.41500
O 	O 	0.88066 0.89577 0.22414 -0.24100
O 	O 	0.91688 0.88075 0.31780 -0.50400
C 	C 	0.98401 0.79157 0.33775 0.37100
O 	O 	0.97710 0.78356 0.27132 -0.32500
Cd	Cd	0.00574 0.88951 0.99245 1.23900
Cd	Cd	0.01668 0.95577 0.84550 1.22300
O 	O 	0.97148 0.82600 0.96192 -0.32000
O 	O 	0.99937 0.83426 0.06594 -0.30400
C 	C 	0.97967 0.81043 0.02277 0.30400
O 	O 	0.04530 0.94151 0.03200 -0.32700
O 	O 	0.02146 0.98717 0.95080 -0.42600
C 	C 	0.04725 0.97759 0.00066 0.40500
C 	C 	0.06794 0.87334 0.89174 0.37900
O 	O 	0.96036 0.92733 0.90021 -0.39900
O 	O 	0.07297 0.85272 0.94951 -0.25300
O 	O 	0.03427 0.89356 0.88830 -0.50200
C 	C 	0.94001 0.94213 0.95380 0.35200
O 	O 	0.94914 0.92783 0.01565 -0.26400
C 	C 	0.96586 0.70563 0.95969 0.13900
N 	N 	0.94220 0.70624 0.90132 -0.13500
C 	C 	0.92403 0.67159 0.87801 0.13200
N 	N 	0.92993 0.63625 0.91322 -0.14700
C 	C 	0.95553 0.63497 0.96899 0.13900
N 	N 	0.97336 0.66984 0.99222 -0.14600
C 	C 	0.87920 0.67465 0.24575 0.12600
N 	N 	0.86630 0.68414 0.31231 -0.13600
C 	C 	0.87479 0.65905 0.36695 0.13300
N 	N 	0.89437 0.62345 0.35451 -0.14200
C 	C 	0.90784 0.61401 0.28860 0.13300
N 	N 	0.90015 0.63959 0.23423 -0.14200
Cd	Cd	0.92213 0.15322 0.77065 1.24800
Cd	Cd	0.97874 0.13005 0.92564 1.22200
O 	O 	0.87235 0.20796 0.78610 -0.30800
O 	O 	0.88057 0.17718 0.68430 -0.34400
C 	C 	0.85881 0.20211 0.72258 0.29500
O 	O 	0.97082 0.11019 0.73196 -0.33000
O 	O 	0.98419 0.08262 0.84023 -0.41400
C 	C 	0.99551 0.09084 0.77513 0.38600
C 	C 	0.98662 0.20464 0.81207 0.41300
O 	O 	0.91031 0.12708 0.90020 -0.41000
O 	O 	0.97555 0.21338 0.74776 -0.24700
O 	O 	0.96385 0.17918 0.84556 -0.51700
C 	C 	0.89062 0.09644 0.87282 0.37600
O 	O 	0.88348 0.09891 0.80541 -0.32600
Cd	Cd	0.90775 0.09357 0.56258 1.24700
Cd	Cd	0.96706 0.10919 0.40661 1.21300
O 	O 	0.84254 0.12908 0.56439 -0.30200
O 	O 	0.85648 0.08225 0.64205 -0.31200
C 	C 	0.82918 0.10598 0.61458 0.27800
O 	O 	0.95937 0.04828 0.57141 -0.31000
O 	O 	0.00229 0.08279 0.49705 -0.37500
C 	C 	0.99281 0.04956 0.53222 0.40200
C 	C 	0.88687 0.05149 0.43618 0.42700
O 	O 	0.94106 0.15296 0.49264 -0.43800
O 	O 	0.86848 0.03626 0.49088 -0.28200
O 	O 	0.90762 0.08421 0.44828 -0.52100
C 	C 	0.95921 0.16460 0.55020 0.39800
O 	O 	0.94842 0.14545 0.60744 -0.34800
C 	C 	0.73659 0.16209 0.89065 0.14300
N 	N 	0.76694 0.18080 0.85476 -0.13700
C 	C 	0.75916 0.20042 0.79332 0.12600
N 	N 	0.72100 0.20103 0.76734 -0.14100
C 	C 	0.69051 0.18251 0.80330 0.13000
N 	N 	0.69834 0.16372 0.86537 -0.14600
C 	C 	0.74374 0.07077 0.51557 0.13700
N 	N 	0.70419 0.06742 0.53440 -0.14000
C 	C 	0.67493 0.06986 0.48435 0.13100
N 	N 	0.68547 0.07536 0.41569 -0.14300
C 	C 	0.72473 0.07993 0.39703 0.14200
N 	N 	0.75397 0.07722 0.44682 -0.11900
Cd	Cd	0.10498 0.13415 0.24589 1.25100
Cd	Cd	0.12454 0.06383 0.38199 1.21200
O 	O 	0.14813 0.19465 0.24100 -0.29100
O 	O 	0.09880 0.18571 0.16638 -0.28500
C 	C 	0.12482 0.21092 0.19401 0.27300
O 	O 	0.06580 0.08098 0.21672 -0.34100
O 	O 	0.06480 0.05394 0.32775 -0.41400
C 	C 	0.06102 0.04947 0.25884 0.38600
C 	C 	0.17157 0.08054 0.23216 0.41700
O 	O 	0.10891 0.13322 0.38538 -0.39600
O 	O 	0.16412 0.09725 0.17134 -0.24600
O 	O 	0.15141 0.09469 0.28548 -0.52900
C 	C 	0.07348 0.15059 0.38628 0.34300
O 	O 	0.05765 0.15758 0.32469 -0.36100
Cd	Cd	0.19874 0.19834 0.03757 1.25200
Cd	Cd	0.17849 0.15811 0.86590 1.22700
O 	O 	0.23553 0.26300 0.03884 -0.29600
O 	O 	0.20834 0.23860 0.13513 -0.33400
C 	C 	0.22547 0.26958 0.10431 0.28700
O 	O 	0.15682 0.14439 0.05469 -0.34200
O 	O 	0.17424 0.11139 0.95130 -0.40700
C 	C 	0.15167 0.11396 0.00872 0.42200
C 	C 	0.13344 0.23125 0.95956 0.36000
O 	O 	0.23830 0.17459 0.92425 -0.42000
O 	O 	0.13351 0.24444 0.02454 -0.24100
O 	O 	0.16557 0.21109 0.94066 -0.51400
C 	C 	0.25954 0.15092 0.96492 0.34900
O 	O 	0.25351 0.15526 0.03262 -0.28800
C 	C 	0.18541 0.35553 0.03954 0.16100
N 	N 	0.17919 0.33980 0.97380 -0.15400
C 	C 	0.14778 0.35309 0.93420 0.13300
N 	N 	0.12321 0.38283 0.96005 -0.16200
C 	C 	0.12897 0.39815 0.02604 0.16200
N 	N 	0.16026 0.38469 0.06567 -0.14600
C 	C 	0.11268 0.30501 0.29750 0.14700
N 	N 	0.12125 0.30374 0.36753 -0.13100
C 	C 	0.10164 0.32872 0.41372 0.14700
N 	N 	0.07326 0.35495 0.38974 -0.13600
C 	C 	0.06565 0.35741 0.31947 0.14200
N 	N 	0.08530 0.33230 0.27330 -0.13600
Cd	Cd	0.22988 0.97431 0.67585 1.24700
Cd	Cd	0.19081 0.95291 0.84504 1.20700
O 	O 	0.29288 0.93959 0.64256 -0.30400
O 	O 	0.26384 0.98277 0.57203 -0.31100
C 	C 	0.29650 0.96252 0.58746 0.28600
O 	O 	0.16848 0.00368 0.67619 -0.31200
O 	O 	0.16412 0.00928 0.79684 -0.40500
C 	C 	0.14719 0.01169 0.73411 0.37800
C 	C 	0.18864 0.90003 0.69838 0.42200
O 	O 	0.25229 0.98065 0.80967 -0.42000
O 	O 	0.19242 0.90668 0.63071 -0.28700
O 	O 	0.20830 0.92468 0.73916 -0.54000
C 	C 	0.25996 0.01879 0.79622 0.39100
O 	O 	0.25580 0.03007 0.73104 -0.33300
Cd	Cd	0.19962 0.88251 0.46472 1.24900
Cd	Cd	0.13572 0.90120 0.31863 1.25400
O 	O 	0.26057 0.84424 0.43370 -0.29900
O 	O 	0.25459 0.87435 0.53648 -0.32200
C 	C 	0.27848 0.85629 0.49091 0.28700
O 	O 	0.15082 0.92555 0.50637 -0.31600
O 	O 	0.10382 0.90705 0.42313 -0.37500
C 	C 	0.11494 0.93056 0.47629 0.37400
C 	C 	0.22088 0.94529 0.36884 0.38900
O 	O 	0.15955 0.84147 0.36844 -0.39900
O 	O 	0.24140 0.94805 0.42706 -0.26700
O 	O 	0.19804 0.91330 0.36326 -0.50300
C 	C 	0.14289 0.82093 0.41957 0.38800
O 	O 	0.15733 0.82761 0.48261 -0.30400
C 	C 	0.37454 0.01881 0.66254 0.14600
N 	N 	0.40986 0.03902 0.65220 -0.14100
C 	C 	0.43488 0.04643 0.70753 0.13800
N 	N 	0.42504 0.03269 0.77275 -0.14200
C 	C 	0.38926 0.01356 0.78393 0.14300
N 	N 	0.36413 0.00632 0.72864 -0.12200
C 	C 	0.36660 0.89202 0.39254 0.13300
N 	N 	0.36174 0.89933 0.32245 -0.13400
C 	C 	0.38356 0.92909 0.29046 0.14000
N 	N 	0.41141 0.95035 0.32799 -0.13800
C 	C 	0.41686 0.94258 0.39764 0.13300
N 	N 	0.39413 0.91373 0.43008 -0.14100
C 	C 	0.37727 0.00178 0.85657 -0.02900
C 	C 	0.38242 0.02906 0.91430 0.11500
C 	C 	0.38046 0.01421 0.98358 -0.09400
C 	C 	0.37110 0.97329 0.99640 -0.03500
C 	C 	0.36108 0.94724 0.93908 0.10000
C 	C 	0.36480 0.96164 0.86950 -0.06100
N 	N 	0.38808 0.06959 0.90364 -0.20300
H 	H 	0.38621 0.03460 0.02770 0.09800
C 	C 	0.37291 0.95797 0.07009 0.04500
N 	N 	0.34835 0.90843 0.95034 -0.21400
H 	H 	0.35923 0.94116 0.82543 0.06500
C 	C 	0.34091 0.96681 0.11658 -0.09900
C 	C 	0.34350 0.95728 0.18870 0.13600
C 	C 	0.37834 0.93720 0.21426 -0.05300
C 	C 	0.40979 0.92715 0.16729 -0.03700
C 	C 	0.40768 0.93770 0.09553 0.06300
H 	H 	0.31436 0.98233 0.09699 0.11400
N 	N 	0.31303 0.96858 0.23314 -0.20000
H 	H 	0.43641 0.91178 0.18689 0.05300
N 	N 	0.43924 0.92869 0.05178 -0.17200
H 	H 	0.28788 0.98399 0.21371 0.12900
H 	H 	0.31417 0.96285 0.28720 0.13000
H 	H 	0.46472 0.91374 0.07107 0.09600
H 	H 	0.43895 0.93640 0.99844 0.07000
H 	H 	0.34183 0.88916 0.90772 0.10400
H 	H 	0.34396 0.89729 0.00128 0.13300
H 	H 	0.38494 0.08236 0.85369 0.12700
H 	H 	0.39327 0.08922 0.94634 0.10100
C 	C 	0.32150 0.86800 0.48650 -0.09900
C 	C 	0.34246 0.85998 0.42681 -0.02600
H 	H 	0.33290 0.89052 0.52360 0.08500
H 	H 	0.33387 0.83385 0.39464 0.07200
C 	C 	0.34448 0.01683 0.60559 -0.02000
C 	C 	0.33623 0.98098 0.57442 -0.09900
H 	H 	0.32152 0.04048 0.60519 0.09100
H 	H 	0.36117 0.96038 0.56318 0.07400
C 	C 	0.14272 0.33817 0.86052 -0.04400
C 	C 	0.10383 0.33031 0.83237 0.11700
C 	C 	0.09929 0.32531 0.75902 -0.07500
C 	C 	0.13305 0.32548 0.71394 0.00900
C 	C 	0.17227 0.32889 0.74294 0.08000
C 	C 	0.17669 0.33579 0.81588 -0.04300
N 	N 	0.07111 0.32617 0.87548 -0.20100
H 	H 	0.06938 0.32108 0.73703 0.07800
C 	C 	0.12680 0.32552 0.63620 -0.00700
N 	N 	0.20572 0.32557 0.70120 -0.19300
H 	H 	0.20660 0.34049 0.83753 0.05600
C 	C 	0.12892 0.36254 0.59996 -0.07900
C 	C 	0.12332 0.36385 0.52651 0.10400
C 	C 	0.11181 0.32793 0.48969 -0.03700
C 	C 	0.10955 0.29091 0.52600 -0.04800
C 	C 	0.11824 0.28911 0.59849 0.09900
H 	H 	0.13622 0.39026 0.62869 0.05800
N 	N 	0.13061 0.39914 0.49149 -0.19800
H 	H 	0.10153 0.26328 0.49761 0.08300
N 	N 	0.11933 0.25237 0.63096 -0.19400
H 	H 	0.13693 0.42594 0.51945 0.09300
H 	H 	0.13261 0.39985 0.43650 0.09900
H 	H 	0.11137 0.22583 0.60353 0.15100
H 	H 	0.12969 0.24956 0.68257 0.16000
H 	H 	0.23452 0.32926 0.72266 0.09700
H 	H 	0.20357 0.31810 0.64767 0.10000
H 	H 	0.07428 0.32359 0.93007 0.11100
H 	H 	0.04227 0.32240 0.85418 0.10700
C 	C 	0.29753 0.11626 0.86944 0.24500
C 	C 	0.27903 0.11437 0.93602 -0.20200
C 	C 	0.26991 0.07604 0.96462 0.24000
C 	C 	0.26954 0.04171 0.92053 0.28100
C 	C 	0.27873 0.04599 0.84851 -0.22300
C 	C 	0.29762 0.08196 0.82568 0.26900
F 	F 	0.31341 0.08445 0.75952 -0.40700
F 	F 	0.31184 0.15223 0.84479 -0.40700
F 	F 	0.25753 0.00521 0.94646 -0.41800
F 	F 	0.25797 0.07272 0.03303 -0.33900
C 	C 	0.22025 0.34184 0.08089 -0.03100
C 	C 	0.21518 0.31141 0.12679 -0.10000
H 	H 	0.24977 0.34516 0.05620 0.07000
H 	H 	0.19306 0.31524 0.16870 0.07900
C 	C 	0.22891 0.05036 0.29414 0.25700
C 	C 	0.20021 0.04719 0.24036 -0.22500
C 	C 	0.19027 0.00850 0.21382 0.30000
C 	C 	0.20075 0.97382 0.25201 0.25500
C 	C 	0.22119 0.97822 0.31644 -0.24700
C 	C 	0.23886 0.01608 0.33326 0.26400
F 	F 	0.26426 0.01995 0.38896 -0.39000
F 	F 	0.24294 0.08749 0.31438 -0.39300
F 	F 	0.18996 0.93641 0.22768 -0.43300
F 	F 	0.16604 0.00479 0.15675 -0.35700
C 	C 	0.11424 0.25445 0.20162 -0.08000
C 	C 	0.13443 0.27777 0.24830 -0.03200
H 	H 	0.08519 0.26466 0.18199 0.11200
H 	H 	0.16518 0.26944 0.26199 0.07600
C 	C 	0.63202 0.06298 0.50316 -0.04900
C 	C 	0.60091 0.08146 0.46368 0.10300
C 	C 	0.56256 0.06343 0.46199 -0.08500
C 	C 	0.55367 0.02989 0.50472 -0.00600
C 	C 	0.58268 0.01633 0.55389 0.08200
C 	C 	0.62198 0.03248 0.55175 -0.05300
N 	N 	0.60743 0.11704 0.42918 -0.19900
H 	H 	0.53981 0.07506 0.42646 0.06100
C 	C 	0.51734 0.00506 0.48879 0.00300
N 	N 	0.57317 0.98737 0.60210 -0.19900
H 	H 	0.64512 0.01992 0.58549 0.06000
C 	C 	0.52263 0.96598 0.45972 -0.09200
C 	C 	0.48966 0.94396 0.43329 0.10500
C 	C 	0.45069 0.96165 0.43528 -0.04200
C 	C 	0.44494 0.99971 0.46779 -0.07200
C 	C 	0.47794 0.02172 0.49459 0.08900
H 	H 	0.55276 0.95316 0.45572 0.06100
N 	N 	0.49569 0.90612 0.40531 -0.19900
H 	H 	0.41485 0.01272 0.47064 0.07600
N 	N 	0.47172 0.05896 0.52468 -0.19600
H 	H 	0.52474 0.89368 0.40280 0.09400
H 	H 	0.47171 0.88838 0.38700 0.10000
H 	H 	0.44289 0.07194 0.52540 0.10300
H 	H 	0.49514 0.07498 0.54895 0.09300
H 	H 	0.59530 0.97578 0.63557 0.08500
H 	H 	0.54344 0.97739 0.60881 0.08700
H 	H 	0.63364 0.13406 0.43764 0.09300
H 	H 	0.58500 0.12942 0.39721 0.09200
C 	C 	0.47163 0.07113 0.69800 -0.05300
C 	C 	0.46937 0.11379 0.68745 0.10700
C 	C 	0.50490 0.13718 0.68976 -0.08900
C 	C 	0.54206 0.11918 0.70597 -0.00400
C 	C 	0.54452 0.07638 0.71391 0.07200
C 	C 	0.50931 0.05276 0.70850 -0.05100
N 	N 	0.43327 0.13262 0.67714 -0.20200
H 	H 	0.50325 0.16988 0.68268 0.06000
C 	C 	0.57673 0.14579 0.72408 -0.00400
N 	N 	0.58025 0.05796 0.72898 -0.19400
H 	H 	0.51100 0.02006 0.71557 0.05000
C 	C 	0.57912 0.16237 0.79233 -0.08500
C 	C 	0.61494 0.18080 0.81566 0.10300
C 	C 	0.64979 0.17931 0.77208 -0.05000
C 	C 	0.64595 0.16717 0.70117 -0.05200
C 	C 	0.60912 0.15157 0.67617 0.07300
H 	H 	0.55332 0.16033 0.82768 0.05800
N 	N 	0.61558 0.20045 0.87909 -0.19800
H 	H 	0.67204 0.16802 0.66633 0.05500
N 	N 	0.60517 0.14194 0.60670 -0.19300
H 	H 	0.59038 0.19976 0.91257 0.08600
H 	H 	0.64018 0.21848 0.89381 0.09300
H 	H 	0.62945 0.14580 0.57190 0.08900
H 	H 	0.57756 0.13218 0.58617 0.09100
H 	H 	0.58132 0.02669 0.73853 0.08900
H 	H 	0.60728 0.07425 0.73103 0.09300
H 	H 	0.40604 0.11664 0.67841 0.12300
H 	H 	0.43210 0.16401 0.66868 0.10300
C 	C 	0.73523 0.08977 0.32331 -0.03900
C 	C 	0.74275 0.05861 0.27277 0.14200
C 	C 	0.74907 0.06899 0.20169 -0.08100
C 	C 	0.74402 0.10928 0.17902 0.00600
C 	C 	0.73391 0.14005 0.22911 0.07500
C 	C 	0.73190 0.13027 0.30117 -0.04500
N 	N 	0.74289 0.01870 0.29164 -0.18600
H 	H 	0.75645 0.04537 0.16340 0.08700
C 	C 	0.74704 0.11826 0.10212 0.00000
N 	N 	0.72474 0.17852 0.20834 -0.19300
H 	H 	0.72514 0.15394 0.33973 0.05300
C 	C 	0.71927 0.10026 0.05566 -0.04900
C 	C 	0.71999 0.10964 0.98348 0.08800
C 	C 	0.74467 0.14201 0.95936 -0.08500
C 	C 	0.77423 0.15818 0.00471 0.03100
C 	C 	0.77693 0.14496 0.07504 0.07200
H 	H 	0.69784 0.07802 0.07534 0.06200
N 	N 	0.69897 0.08603 0.93723 -0.19500
H 	H 	0.79478 0.18141 0.98574 0.02700
N 	N 	0.80807 0.15794 0.11602 -0.18800
H 	H 	0.67871 0.06406 0.95564 0.08800
H 	H 	0.70514 0.08682 0.88312 0.10600
H 	H 	0.82908 0.17884 0.09649 0.11600
H 	H 	0.81273 0.14613 0.16633 0.11500
H 	H 	0.71916 0.20137 0.24586 0.09400
H 	H 	0.72101 0.18569 0.15521 0.09700
H 	H 	0.73857 0.00988 0.34397 0.13600
H 	H 	0.74773 0.99591 0.25370 0.13300
C 	C 	0.03299 0.16345 0.56536 0.28500
C 	C 	0.99843 0.18511 0.54496 -0.21700
C 	C 	0.00307 0.21362 0.49072 0.26300
C 	C 	0.03331 0.20715 0.44007 0.24400
C 	C 	0.06015 0.17435 0.44847 -0.21600
C 	C 	0.06427 0.15791 0.51611 0.25900
F 	F 	0.09760 0.13618 0.53308 -0.37500
F 	F 	0.03337 0.14282 0.62706 -0.35000
F 	F 	0.03458 0.23027 0.38098 -0.40300
F 	F 	0.97367 0.24149 0.47883 -0.40200
C 	C 	0.09482 0.99781 0.52975 0.23700
C 	C 	0.08424 0.95802 0.50934 -0.16000
C 	C 	0.04306 0.94673 0.50972 0.28300
C 	C 	0.01287 0.97603 0.52254 0.27400
C 	C 	0.02350 0.01659 0.53750 -0.15900
C 	C 	0.06461 0.02659 0.54536 0.26400
F 	F 	0.07528 0.06405 0.56903 -0.36900
F 	F 	0.13422 0.00923 0.53121 -0.42300
F 	F 	0.97338 0.96537 0.51679 -0.40700
F 	F 	0.03223 0.90765 0.49543 -0.42300
C 	C 	0.78656 0.09348 0.61275 -0.08400
C 	C 	0.77572 0.06365 0.56783 -0.02600
H 	H 	0.76406 0.11582 0.62902 0.07000
H 	H 	0.79705 0.03929 0.55665 0.08800
C 	C 	0.03507 0.03230 0.72628 0.24700
C 	C 	0.03363 0.07326 0.74800 -0.18000
C 	C 	0.06985 0.09495 0.75677 0.27700
C 	C 	0.10714 0.07561 0.74618 0.28700
C 	C 	0.10866 0.03407 0.72827 -0.18100
C 	C 	0.07244 0.01274 0.71672 0.24600
F 	F 	0.07338 0.97289 0.69791 -0.40800
F 	F 	0.00032 0.01093 0.71748 -0.42800
F 	F 	0.14187 0.09669 0.75724 -0.44900
F 	F 	0.06897 0.13397 0.78040 -0.41400
C 	C 	0.05989 0.22181 0.80798 0.28800
C 	C 	0.02290 0.22181 0.84475 -0.23700
C 	C 	0.02226 0.23052 0.91722 0.24900
C 	C 	0.05820 0.23342 0.95456 0.23200
C 	C 	0.09557 0.22950 0.91910 -0.22300
C 	C 	0.09624 0.22508 0.84521 0.24800
F 	F 	0.13194 0.22386 0.80968 -0.47200
F 	F 	0.06070 0.21608 0.73694 -0.37600
F 	F 	0.05666 0.23880 0.02570 -0.37100
F 	F 	0.98649 0.23393 0.95227 -0.43500
C 	C 	0.79146 0.22375 0.75873 -0.02300
C 	C 	0.81500 0.20552 0.70999 -0.10800
H 	H 	0.80343 0.24981 0.78751 0.06000
H 	H 	0.80129 0.18466 0.67236 0.08200
C 	C 	0.93498 0.57878 0.27804 -0.05200
C 	C 	0.96944 0.57351 0.32099 0.10600
C 	C 	0.98982 0.53607 0.31992 -0.08800
C 	C 	0.97944 0.50563 0.27093 -0.00600
C 	C 	0.94727 0.51240 0.22325 0.07300
C 	C 	0.92490 0.54872 0.22817 -0.05200
N 	N 	0.98392 0.60468 0.36129 -0.19900
H 	H 	0.01468 0.53105 0.35587 0.06100
C 	C 	0.00052 0.46574 0.27374 -0.00100
N 	N 	0.93783 0.48439 0.17267 -0.19400
H 	H 	0.89930 0.55335 0.19367 0.05600
C 	C 	0.97998 0.43214 0.30195 -0.08800
C 	C 	0.99984 0.39480 0.31107 0.11300
C 	C 	0.04120 0.39133 0.29297 -0.05000
C 	C 	0.06092 0.42388 0.26014 -0.04900
C 	C 	0.04152 0.46156 0.25243 0.07200
H 	H 	0.94853 0.43520 0.31746 0.06300
N 	N 	0.97901 0.36234 0.33668 -0.20100
H 	H 	0.09240 0.42075 0.24479 0.05400
N 	N 	0.06272 0.49370 0.22655 -0.19400
H 	H 	0.94878 0.36542 0.35202 0.10700
H 	H 	0.99218 0.33350 0.33930 0.13000
H 	H 	0.09252 0.48989 0.20919 0.09300
H 	H 	0.05045 0.52286 0.22502 0.09200
H 	H 	0.91439 0.48990 0.13727 0.09500
H 	H 	0.95382 0.45716 0.16741 0.09200
H 	H 	0.97335 0.63440 0.35536 0.10600
H 	H 	0.00795 0.59989 0.39582 0.10000
C 	C 	0.97057 0.59522 0.99377 -0.10100
C 	C 	0.98117 0.58948 0.06527 0.15800
C 	C 	0.00522 0.55610 0.08367 -0.11400
C 	C 	0.01808 0.52797 0.03222 0.04900
C 	C 	0.00421 0.53153 0.96197 0.02300
C 	C 	0.98027 0.56500 0.94360 -0.02300
N 	N 	0.96842 0.61590 0.11628 -0.20500
H 	H 	0.01467 0.55258 0.13778 0.06600
C 	C 	0.04830 0.49674 0.05112 -0.01600
N 	N 	0.01446 0.50350 0.91164 -0.18600
H 	H 	0.97118 0.56871 0.88912 0.04500
C 	C 	0.03507 0.45738 0.06775 -0.07600
C 	C 	0.06255 0.42487 0.06944 0.11000
C 	C 	0.10346 0.43179 0.05162 -0.05400
C 	C 	0.11744 0.47177 0.04377 -0.05000
C 	C 	0.09018 0.50450 0.04339 0.08600
H 	H 	0.00315 0.45168 0.07564 0.05900
N 	N 	0.04955 0.38714 0.08801 -0.19900
H 	H 	0.14923 0.47718 0.03329 0.06000
N 	N 	0.10424 0.54301 0.03386 -0.19500
H 	H 	0.01910 0.38203 0.09998 0.10600
H 	H 	0.06983 0.36305 0.09386 0.11500
H 	H 	0.13510 0.54828 0.02633 0.10500
H 	H 	0.08494 0.56813 0.03543 0.10900
H 	H 	0.00450 0.50677 0.85972 0.08700
H 	H 	0.03200 0.47807 0.92340 0.08400
H 	H 	0.94494 0.63637 0.10701 0.11300
H 	H 	0.98079 0.61494 0.16686 0.10500
C 	C 	0.90538 0.67048 0.80711 -0.04700
C 	C 	0.87815 0.70114 0.78525 0.11100
C 	C 	0.86762 0.70372 0.71357 -0.08200
C 	C 	0.88162 0.67466 0.66455 -0.00200
C 	C 	0.90604 0.64200 0.68764 0.07600
C 	C 	0.91793 0.64046 0.75856 -0.04800
N 	N 	0.86101 0.72717 0.83292 -0.19800
H 	H 	0.84816 0.72815 0.69605 0.06700
C 	C 	0.87313 0.68030 0.58843 0.00200
N 	N 	0.91855 0.61233 0.64191 -0.19300
H 	H 	0.93813 0.61649 0.77550 0.05300
C 	C 	0.90175 0.70052 0.54664 -0.08500
C 	C 	0.90067 0.69725 0.47271 0.11700
C 	C 	0.86997 0.67366 0.44025 -0.04900
C 	C 	0.83880 0.65738 0.48182 -0.04800
C 	C 	0.83996 0.66065 0.55585 0.07300
H 	H 	0.92628 0.71690 0.57182 0.08100
N 	N 	0.92980 0.71578 0.43343 -0.20200
H 	H 	0.81466 0.64034 0.45676 0.05300
N 	N 	0.80975 0.64407 0.59522 -0.19300
H 	H 	0.95310 0.73192 0.45801 0.12900
H 	H 	0.92923 0.71512 0.37836 0.11000
H 	H 	0.78599 0.62851 0.57086 0.09100
H 	H 	0.80898 0.64736 0.65009 0.09200
H 	H 	0.93714 0.58875 0.65925 0.09000
H 	H 	0.90955 0.61191 0.58919 0.09500
H 	H 	0.86401 0.72274 0.88716 0.10000
H 	H 	0.84245 0.75088 0.81601 0.10200
C 	C 	0.05961 0.04880 0.04301 0.27000
C 	C 	0.07492 0.00965 0.02730 -0.19300
C 	C 	0.11677 0.00454 0.01921 0.28500
C 	C 	0.14249 0.03854 0.01911 0.28900
C 	C 	0.12671 0.07809 0.02831 -0.19000
C 	C 	0.08541 0.08282 0.04354 0.25600
F 	F 	0.06967 0.12061 0.05365 -0.42000
F 	F 	0.01931 0.05429 0.05259 -0.37000
F 	F 	0.18262 0.03312 0.00783 -0.34600
F 	F 	0.13226 0.96696 0.00590 -0.41600
C 	C 	0.92317 0.01272 0.99167 0.25900
C 	C 	0.91600 0.97923 0.94687 -0.20400
C 	C 	0.88991 0.98349 0.88941 0.25600
C 	C 	0.87598 0.02201 0.87093 0.28500
C 	C 	0.88966 0.05661 0.90809 -0.21100
C 	C 	0.90969 0.05133 0.97267 0.23700
F 	F 	0.91771 0.08376 0.01525 -0.39900
F 	F 	0.94548 0.00833 0.05098 -0.31300
F 	F 	0.85092 0.02595 0.81488 -0.38200
F 	F 	0.87954 0.95053 0.84971 -0.38600
C 	C 	0.08571 0.88362 0.76392 0.25800
C 	C 	0.09578 0.86854 0.83094 -0.23100
C 	C 	0.13375 0.84997 0.84028 0.25200
C 	C 	0.16314 0.85275 0.78757 0.25300
C 	C 	0.15558 0.87570 0.72713 -0.24300
C 	C 	0.11561 0.88648 0.71157 0.28600
F 	F 	0.10643 0.90233 0.64770 -0.34700
F 	F 	0.04732 0.89531 0.74952 -0.42200
F 	F 	0.20076 0.83785 0.79932 -0.40600
F 	F 	0.14291 0.83116 0.90173 -0.38700
C 	C 	0.97797 0.76613 0.03212 -0.04500
C 	C 	0.98948 0.74187 0.97828 -0.06300
H 	H 	0.96015 0.75384 0.07535 0.07700
H 	H 	0.00995 0.75383 0.93840 0.08700
C 	C 	0.06181 0.93704 0.21608 0.26900
C 	C 	0.02080 0.93000 0.20328 -0.19400
C 	C 	0.99590 0.96356 0.18838 0.28500
C 	C 	0.00978 0.00337 0.20222 0.31700
C 	C 	0.04883 0.00947 0.22944 -0.18800
C 	C 	0.07500 0.97606 0.23519 0.26000
F 	F 	0.11154 0.98077 0.26596 -0.49500
F 	F 	0.08804 0.90536 0.21626 -0.48000
F 	F 	0.98427 0.03540 0.19493 -0.36000
F 	F 	0.95693 0.95753 0.16903 -0.36200
C 	C 	0.85947 0.97309 0.30612 0.27000
C 	C 	0.89570 0.95093 0.30605 -0.20500
C 	C 	0.93124 0.96979 0.33042 0.27200
C 	C 	0.92966 0.00864 0.36005 0.30000
C 	C 	0.89227 0.02716 0.37226 -0.25700
C 	C 	0.85784 0.01130 0.33910 0.30500
F 	F 	0.82189 0.03066 0.34643 -0.41400
F 	F 	0.82525 0.95631 0.27945 -0.39600
F 	F 	0.96400 0.02610 0.38463 -0.48200
F 	F 	0.96695 0.95006 0.32792 -0.51100
C 	C 	0.07218 0.80657 0.45758 0.27900
C 	C 	0.10400 0.80028 0.40927 -0.21100
C 	C 	0.09639 0.77990 0.34530 0.26600
C 	C 	0.05668 0.77175 0.32503 0.27600
C 	C 	0.02435 0.78460 0.36837 -0.21700
C 	C 	0.03250 0.79810 0.43756 0.25100
F 	F 	0.00182 0.80521 0.48394 -0.41000
F 	F 	0.07936 0.82352 0.52194 -0.35400
F 	F 	0.04965 0.75302 0.26213 -0.38300
F 	F 	0.12738 0.76991 0.30118 -0.38200
C 	C 	0.87919 0.70634 0.19078 -0.02700
C 	C 	0.85208 0.73670 0.19337 -0.10400
H 	H 	0.90650 0.71017 0.15936 0.05900
H 	H 	0.82174 0.72990 0.21212 0.08400
