data_crystal

_cell_length_a 30.64120
_cell_length_b 31.07754
_cell_length_c 34.98948
_cell_angle_alpha 95.51641
_cell_angle_beta  95.51494
_cell_angle_gamma 125.54956

_symmetry_space_group_name_	'P 1'
_symmetry_space_group_name_H-M	'P 1'

loop_
_symmetry_equiv_pos_as_xyz
  x,y,z

loop_
_atom_site_label
_atom_site_type_symbol
_atom_site_fract_x
_atom_site_fract_y
_atom_site_fract_z
_atom_site_charge
N 	N 	0.01957 0.97146 0.97945 -0.13800
C 	C 	0.02760 0.00542 0.45422 0.11700
N 	N 	0.00242 0.02967 0.45225 -0.13900
N 	N 	0.02527 0.05056 0.98370 -0.14000
C 	C 	0.97302 0.02299 0.98987 0.11200
C 	C 	0.04845 0.02472 0.97847 0.12800
C 	C 	0.96752 0.94388 0.98561 0.13000
N 	N 	0.94422 0.96956 0.99083 -0.13800
C 	C 	0.94819 0.00125 0.45295 0.11100
N 	N 	0.91906 0.94826 0.45553 -0.13800
C 	C 	0.94427 0.92402 0.45750 0.13100
N 	N 	0.99839 0.95259 0.45687 -0.14000
Cu	Cu	0.64553 0.25288 0.99913 0.92700
Cu	Cu	0.69133 0.25542 0.91775 0.87000
Cu	Cu	0.68057 0.34006 0.94979 0.89600
Cu	Cu	0.64797 0.35385 0.02549 0.89400
C 	C 	0.66069 0.29279 0.08059 0.28700
O 	O 	0.56597 0.22254 0.99678 -0.36500
C 	C 	0.66472 0.30430 0.86443 0.28700
O 	O 	0.69137 0.33694 0.00395 -0.64000
O 	O 	0.64113 0.26044 0.94366 -0.64200
O 	O 	0.67744 0.21238 0.99709 -0.37600
O 	O 	0.74038 0.26778 0.96230 -0.44400
O 	O 	0.63687 0.31537 0.07031 -0.38400
O 	O 	0.72300 0.41774 0.95949 -0.38500
C 	C 	0.71798 0.44709 0.98609 0.28800
C 	C 	0.54594 0.24636 0.98205 0.28200
O 	O 	0.57918 0.29698 0.97862 -0.39400
O 	O 	0.68117 0.42485 0.00881 -0.39300
O 	O 	0.66132 0.25938 0.05463 -0.36000
C 	C 	0.72394 0.23230 0.98525 0.30900
O 	O 	0.68185 0.34404 0.89384 -0.38900
O 	O 	0.65962 0.26040 0.87032 -0.42100
H 	H 	0.73009 0.35926 0.01725 0.16400
H 	H 	0.60373 0.23934 0.92798 0.17200
Cu	Cu	0.73078 0.33832 0.44921 0.92700
Cu	Cu	0.73140 0.29825 0.53251 0.87000
Cu	Cu	0.64489 0.30777 0.50043 0.89700
Cu	Cu	0.62786 0.33531 0.42307 0.89400
C 	C 	0.68765 0.31952 0.36762 0.28700
O 	O 	0.76174 0.41657 0.44924 -0.36300
C 	C 	0.68415 0.32727 0.58591 0.28600
O 	O 	0.64585 0.29393 0.44604 -0.64000
O 	O 	0.72541 0.34612 0.50502 -0.64100
O 	O 	0.77058 0.30544 0.45182 -0.37600
O 	O 	0.71562 0.24681 0.48903 -0.44400
O 	O 	0.66496 0.34339 0.37748 -0.38500
O 	O 	0.56610 0.26628 0.49229 -0.38400
C 	C 	0.53551 0.26789 0.46405 0.30800
C 	C 	0.73788 0.43719 0.46308 0.28200
O 	O 	0.68719 0.40507 0.46808 -0.39200
O 	O 	0.55708 0.30408 0.44128 -0.39600
O 	O 	0.72191 0.31958 0.39373 -0.36100
C 	C 	0.74991 0.26034 0.46495 0.30900
O 	O 	0.64326 0.31023 0.55694 -0.38600
O 	O 	0.72857 0.33257 0.57934 -0.42100
H 	H 	0.62287 0.25529 0.43384 0.16300
H 	H 	0.74735 0.38362 0.51965 0.17300
C 	C 	0.68386 0.37130 0.77647 -0.06300
C 	C 	0.65709 0.32668 0.74577 0.01800
C 	C 	0.62776 0.27454 0.75421 -0.06400
C 	C 	0.62765 0.26716 0.79298 0.01000
C 	C 	0.65747 0.31188 0.82381 -0.08800
C 	C 	0.68416 0.36399 0.81531 0.01000
C 	C 	0.66424 0.33456 0.70522 0.01800
H 	H 	0.60664 0.23979 0.73075 0.04300
H 	H 	0.60564 0.22669 0.79902 0.03000
H 	H 	0.70675 0.39890 0.83870 0.03700
H 	H 	0.70588 0.41169 0.77027 0.04400
C 	C 	0.61849 0.30870 0.67500 -0.06200
C 	C 	0.62503 0.30871 0.63597 0.00900
C 	C 	0.67749 0.33481 0.62680 -0.08700
C 	C 	0.72340 0.36392 0.65720 0.01000
C 	C 	0.71678 0.36349 0.69616 -0.06300
H 	H 	0.57779 0.28706 0.68170 0.04500
H 	H 	0.58921 0.28672 0.61294 0.03900
H 	H 	0.76417 0.38553 0.65066 0.03100
H 	H 	0.75242 0.38398 0.71925 0.04300
C 	C 	0.66049 0.24601 0.17625 -0.06200
C 	C 	0.68546 0.29418 0.20309 0.02000
C 	C 	0.70654 0.34251 0.18950 -0.06200
C 	C 	0.70047 0.34233 0.14937 0.01100
C 	C 	0.67356 0.29386 0.12246 -0.08300
C 	C 	0.65475 0.24585 0.13607 0.01600
C 	C 	0.68496 0.29340 0.24509 0.02000
H 	H 	0.72602 0.37992 0.21003 0.04500
H 	H 	0.71559 0.37967 0.13920 0.02100
H 	H 	0.63389 0.20817 0.11559 0.04000
H 	H 	0.64427 0.20853 0.18651 0.04700
C 	C 	0.63609 0.27250 0.25892 -0.06200
C 	C 	0.63664 0.27876 0.29910 0.01100
C 	C 	0.68604 0.30573 0.32581 -0.08300
C 	C 	0.73455 0.32416 0.31197 0.01600
C 	C 	0.73402 0.31819 0.27174 -0.06300
H 	H 	0.59798 0.25310 0.23854 0.04600
H 	H 	0.59890 0.26392 0.30946 0.02200
H 	H 	0.77295 0.34501 0.33229 0.03900
H 	H 	0.77192 0.33423 0.26130 0.04600
C 	C 	0.76538 0.49580 0.46837 -0.09000
C 	C 	0.74874 0.51989 0.49315 0.01100
C 	C 	0.76934 0.57373 0.49416 -0.06700
C 	C 	0.80693 0.60408 0.47056 0.02700
C 	C 	0.82537 0.58080 0.44707 -0.06600
C 	C 	0.80478 0.52695 0.44600 0.01300
C 	C 	0.82552 0.65960 0.46938 -0.00200
C 	C 	0.81328 0.67244 0.43448 -0.03500
C 	C 	0.83301 0.72554 0.43284 -0.04200
C 	C 	0.86496 0.76608 0.46608 0.01300
C 	C 	0.87603 0.75309 0.50124 -0.04200
C 	C 	0.85635 0.70000 0.50291 -0.03500
C 	C 	0.89075 0.82160 0.46314 0.00400
C 	C 	0.91404 0.86826 0.46057 -0.04100
H 	H 	0.71908 0.49664 0.51106 0.03100
H 	H 	0.75524 0.59152 0.51266 0.04600
H 	H 	0.85495 0.60416 0.42914 0.04700
H 	H 	0.81814 0.50905 0.42683 0.03700
H 	H 	0.78903 0.64143 0.40855 0.03900
H 	H 	0.82436 0.73529 0.40555 0.04200
H 	H 	0.90085 0.78426 0.52703 0.04200
H 	H 	0.86586 0.69046 0.53002 0.03800
C 	C 	0.92146 0.02829 0.45177 -0.01800
C 	C 	0.86861 0.00162 0.42990 -0.02700
C 	C 	0.84451 0.02837 0.42734 -0.04500
C 	C 	0.87297 0.08192 0.44670 0.01100
C 	C 	0.92549 0.10833 0.46891 -0.04700
C 	C 	0.94963 0.08171 0.47141 -0.02200
C 	C 	0.84748 0.11013 0.44437 0.00800
C 	C 	0.87275 0.15793 0.42934 -0.04400
C 	C 	0.85136 0.18731 0.43048 -0.03100
C 	C 	0.80449 0.16898 0.44646 -0.01200
C 	C 	0.77822 0.12038 0.46031 -0.03100
C 	C 	0.79963 0.09105 0.45929 -0.04400
C 	C 	0.78565 0.20185 0.45140 0.04600
C 	C 	0.76960 0.22894 0.45680 -0.12100
H 	H 	0.84658 0.96056 0.41438 0.04600
H 	H 	0.80392 0.00762 0.41013 0.04100
H 	H 	0.94750 0.14943 0.48437 0.04100
H 	H 	0.99018 0.10256 0.48871 0.03900
H 	H 	0.90944 0.17277 0.41745 0.04100
H 	H 	0.87183 0.22477 0.41964 0.03900
H 	H 	0.74194 0.10594 0.47268 0.03500
H 	H 	0.77983 0.05425 0.47098 0.03900
C 	C 	0.08660 0.03648 0.45400 -0.01900
C 	C 	0.12244 0.09063 0.47295 -0.02000
C 	C 	0.17858 0.11942 0.47388 -0.04700
C 	C 	0.19939 0.09439 0.45588 0.01200
C 	C 	0.16361 0.04050 0.43661 -0.04600
C 	C 	0.10749 0.01168 0.43563 -0.02500
C 	C 	0.25867 0.12446 0.45744 0.00800
C 	C 	0.27985 0.13419 0.42286 -0.04300
C 	C 	0.33603 0.16240 0.42434 -0.03100
C 	C 	0.37135 0.18103 0.46036 -0.00900
C 	C 	0.35029 0.17128 0.49492 -0.03100
C 	C 	0.29411 0.14305 0.49348 -0.04300
C 	C 	0.42929 0.21118 0.46191 0.04600
C 	C 	0.47781 0.23680 0.46301 -0.10900
H 	H 	0.10694 0.11016 0.48744 0.04000
H 	H 	0.20592 0.16111 0.48868 0.04200
H 	H 	0.17934 0.02088 0.42261 0.04100
H 	H 	0.08026 0.97013 0.42055 0.04600
H 	H 	0.25283 0.12009 0.39492 0.04100
H 	H 	0.35209 0.16992 0.39752 0.03700
H 	H 	0.37740 0.18565 0.52287 0.03900
H 	H 	0.27809 0.13549 0.52031 0.04100
C 	C 	0.74903 0.50550 0.98694 -0.09000
C 	C 	0.76435 0.52635 0.95274 0.01500
C 	C 	0.79154 0.58139 0.95327 -0.06700
C 	C 	0.80366 0.61609 0.98793 0.02600
C 	C 	0.78902 0.59546 0.02221 -0.06600
C 	C 	0.76191 0.54047 0.02175 0.01600
C 	C 	0.83145 0.67397 0.98831 -0.00400
C 	C 	0.88340 0.71214 0.01147 -0.03300
C 	C 	0.90987 0.76700 0.01165 -0.04000
C 	C 	0.88461 0.78403 0.98867 0.01100
C 	C 	0.83261 0.74602 0.96570 -0.04200
C 	C 	0.80605 0.69113 0.96552 -0.03500
C 	C 	0.91289 0.84037 0.98770 0.00400
C 	C 	0.93733 0.88761 0.98680 -0.04000
H 	H 	0.75444 0.49986 0.92563 0.03600
H 	H 	0.80299 0.59705 0.92671 0.04600
H 	H 	0.79832 0.62200 0.04912 0.04600
H 	H 	0.75085 0.52504 0.04842 0.02700
H 	H 	0.90336 0.69927 0.02911 0.03800
H 	H 	0.95015 0.79620 0.02941 0.04300
H 	H 	0.81288 0.75893 0.94784 0.04200
H 	H 	0.76582 0.66197 0.94772 0.03900
C 	C 	0.94739 0.05073 0.99506 -0.02300
C 	C 	0.95788 0.09024 0.97306 -0.01900
C 	C 	0.93131 0.11443 0.97648 -0.05200
C 	C 	0.89413 0.09948 0.00199 0.01600
C 	C 	0.88452 0.06088 0.02461 -0.05000
C 	C 	0.91098 0.03660 0.02116 -0.01700
C 	C 	0.86354 0.12252 0.00372 0.00800
C 	C 	0.80646 0.08903 0.99227 -0.04500
C 	C 	0.77776 0.11122 0.99151 -0.03500
C 	C 	0.80587 0.16700 0.00217 -0.00600
C 	C 	0.86271 0.20040 0.01452 -0.03200
C 	C 	0.89149 0.17825 0.01536 -0.04300
C 	C 	0.77695 0.19026 0.99749 0.04300
C 	C 	0.75270 0.20954 0.99253 -0.12100
H 	H 	0.98566 0.10134 0.95270 0.03900
H 	H 	0.93886 0.14406 0.95879 0.04100
H 	H 	0.85622 0.04941 0.04461 0.04300
H 	H 	0.90311 0.00675 0.03871 0.04000
H 	H 	0.78451 0.04598 0.98321 0.04000
H 	H 	0.73382 0.08517 0.98188 0.03700
H 	H 	0.88472 0.24357 0.02280 0.03800
H 	H 	0.93549 0.20440 0.02452 0.04000
C 	C 	0.48618 0.21799 0.97297 -0.08900
C 	C 	0.45095 0.17066 0.98726 0.00900
C 	C 	0.39517 0.14720 0.98241 -0.06500
C 	C 	0.37397 0.17066 0.96318 0.02600
C 	C 	0.40860 0.21665 0.94757 -0.06600
C 	C 	0.46440 0.24012 0.95229 0.01000
C 	C 	0.31609 0.14858 0.96117 -0.00200
C 	C 	0.30203 0.17834 0.98210 -0.03400
C 	C 	0.24724 0.15538 0.98333 -0.04600
C 	C 	0.20624 0.10263 0.96360 0.01500
C 	C 	0.22009 0.07352 0.94162 -0.04300
C 	C 	0.27484 0.09641 0.94040 -0.03500
C 	C 	0.15058 0.07677 0.96848 0.00200
C 	C 	0.10396 0.05383 0.97292 -0.03900
H 	H 	0.46692 0.15284 0.00305 0.04000
H 	H 	0.36864 0.11153 0.99443 0.04600
H 	H 	0.39243 0.23465 0.93227 0.04600
H 	H 	0.49076 0.27595 0.94040 0.03200
H 	H 	0.33360 0.21867 0.99821 0.03800
H 	H 	0.23683 0.17812 0.00036 0.04500
H 	H 	0.18857 0.03274 0.92623 0.04300
H 	H 	0.28529 0.07326 0.92397 0.03800
