data_crystal

_cell_length_a 18.85083
_cell_length_b 19.00251
_cell_length_c 18.84964
_cell_angle_alpha 89.92126
_cell_angle_beta  89.90207
_cell_angle_gamma 89.90208

_symmetry_space_group_name_	'P 1'
_symmetry_space_group_name_H-M	'P 1'

loop_
_symmetry_equiv_pos_as_xyz
  x,y,z

loop_
_atom_site_label
_atom_site_type_symbol
_atom_site_fract_x
_atom_site_fract_y
_atom_site_fract_z
_atom_site_charge
Co	Co	0.94747 0.04241 0.41786 1.16000
Co	Co	0.05230 0.94518 0.60097 1.18900
Co	Co	0.94706 0.05958 0.59010 1.16200
Co	Co	0.06283 0.93822 0.42729 1.19100
C 	C 	0.97220 0.13117 0.28942 0.29900
Co	Co	0.01054 0.98026 0.27063 1.19700
Co	Co	0.99365 0.01395 0.74739 1.12900
C 	C 	0.03679 0.83419 0.31661 0.30300
O 	O 	0.89563 0.06364 0.74192 -0.42300
O 	O 	0.00225 0.00833 0.63785 -0.71100
C 	C 	0.84476 0.03638 0.70378 0.30600
O 	O 	0.90006 0.09250 0.49960 -0.47500
O 	O 	0.10009 0.89552 0.51865 -0.45000
C 	C 	0.97950 0.86106 0.72008 0.20000
O 	O 	0.02104 0.01456 0.50844 -0.54300
C 	C 	0.01038 0.16288 0.69971 0.37600
C 	C 	0.85861 0.96646 0.30533 0.29000
C 	C 	0.16184 0.00001 0.31045 0.29100
O 	O 	0.85805 0.01787 0.63808 -0.40300
O 	O 	0.91294 0.93165 0.27874 -0.41800
O 	O 	0.85999 0.99112 0.37145 -0.38600
O 	O 	0.94657 0.91628 0.74685 -0.38800
O 	O 	0.00220 0.86057 0.65294 -0.30500
O 	O 	0.04234 0.10962 0.73146 -0.37700
O 	O 	0.96971 0.15453 0.64241 -0.44000
O 	O 	0.10660 0.03044 0.28025 -0.36100
O 	O 	0.15609 0.96148 0.36975 -0.35900
O 	O 	0.00912 0.99113 0.38001 -0.72600
C 	C 	0.14654 0.97766 0.72514 0.30000
O 	O 	0.09034 0.96359 0.76345 -0.37800
O 	O 	0.14383 0.97488 0.65535 -0.36800
O 	O 	0.95695 0.07381 0.25453 -0.43100
O 	O 	0.97406 0.13099 0.35917 -0.40000
O 	O 	0.06233 0.88429 0.27669 -0.38800
O 	O 	0.02116 0.84750 0.38324 -0.36600
Co	Co	0.95272 0.40540 0.04889 1.17800
Co	Co	0.05143 0.59057 0.95198 1.18500
Co	Co	0.94763 0.57654 0.06849 1.16300
Co	Co	0.06937 0.41930 0.94568 1.18500
C 	C 	0.86889 0.29016 0.97176 0.29100
Co	Co	0.02249 0.26214 0.98673 1.18100
Co	Co	0.98984 0.73384 0.02250 1.14800
C 	C 	0.17234 0.30729 0.00685 0.33600
O 	O 	0.04044 0.71888 0.11788 -0.36400
O 	O 	0.00091 0.62554 0.01619 -0.68300
C 	C 	0.00910 0.68771 0.17212 0.37200
O 	O 	0.90305 0.48486 0.10034 -0.46600
O 	O 	0.10179 0.51096 0.90140 -0.45300
C 	C 	0.14178 0.71684 0.98045 0.29600
O 	O 	0.02351 0.49790 0.02213 -0.51700
C 	C 	0.84294 0.68666 0.04619 0.30800
C 	C 	0.98100 0.27828 0.13921 0.29500
C 	C 	0.04685 0.30985 0.84031 0.30400
O 	O 	0.96981 0.62961 0.16441 -0.43400
O 	O 	0.96932 0.24286 0.08101 -0.41200
O 	O 	0.98027 0.34755 0.13877 -0.39000
O 	O 	0.08362 0.75265 0.96908 -0.39000
O 	O 	0.14119 0.64755 0.97935 -0.38100
O 	O 	0.89316 0.72481 0.07407 -0.41800
O 	O 	0.85693 0.62179 0.02709 -0.38700
O 	O 	0.07434 0.27116 0.89048 -0.40200
O 	O 	0.02798 0.37480 0.85449 -0.36800
O 	O 	0.01688 0.37031 0.99849 -0.75200
C 	C 	0.97405 0.70680 0.86845 0.28900
O 	O 	0.94066 0.73177 0.92459 -0.42200
O 	O 	0.99871 0.64094 0.86707 -0.42300
O 	O 	0.92479 0.26499 0.93806 -0.42900
O 	O 	0.86782 0.35595 0.99653 -0.41000
O 	O 	0.11800 0.27583 0.03765 -0.35400
O 	O 	0.16468 0.36538 0.96733 -0.40000
Co	Co	0.60226 0.05070 0.05123 1.18800
Co	Co	0.41985 0.95341 0.94590 1.17100
Co	Co	0.42846 0.05691 0.06195 1.19000
Co	Co	0.59211 0.93736 0.94545 1.17300
C 	C 	0.72655 0.01892 0.14493 0.30100
Co	Co	0.74917 0.98303 0.99252 1.14300
Co	Co	0.27227 0.01506 0.00904 1.18600
C 	C 	0.70551 0.96103 0.84341 0.30500
O 	O 	0.27753 0.11069 0.06081 -0.39200
O 	O 	0.38162 0.00395 0.00796 -0.74200
C 	C 	0.31728 0.16099 0.03543 0.30300
O 	O 	0.51959 0.09989 0.09895 -0.45300
O 	O 	0.50196 0.90362 0.89866 -0.46900
C 	C 	0.30679 0.02879 0.85739 0.28900
O 	O 	0.50995 0.98136 0.01978 -0.55800
C 	C 	0.31182 0.99475 0.16064 0.29100
C 	C 	0.72073 0.13616 0.97791 0.23700
C 	C 	0.70228 0.83414 0.00917 0.34100
O 	O 	0.38397 0.14786 0.01992 -0.37400
O 	O 	0.74758 0.08102 0.94495 -0.38600
O 	O 	0.65385 0.13637 0.00142 -0.33400
O 	O 	0.27991 0.06347 0.91160 -0.40200
O 	O 	0.37315 0.00455 0.85880 -0.38100
O 	O 	0.28176 0.96453 0.10533 -0.36700
O 	O 	0.37114 0.03309 0.15502 -0.36100
O 	O 	0.73371 0.88739 0.04112 -0.38300
O 	O 	0.64535 0.84250 0.96795 -0.40900
O 	O 	0.63957 0.98846 0.00054 -0.73200
C 	C 	0.29174 0.86375 0.97110 0.30000
O 	O 	0.25649 0.92104 0.95577 -0.41600
O 	O 	0.36152 0.86406 0.97252 -0.38800
O 	O 	0.76465 0.03344 0.08869 -0.39400
O 	O 	0.65674 0.02070 0.14214 -0.37300
O 	O 	0.74383 0.93366 0.89425 -0.41500
O 	O 	0.63969 0.97929 0.85672 -0.39900
C 	C 	0.77951 0.72178 0.02490 -0.02900
C 	C 	0.73662 0.76726 0.01378 -0.03300
C 	C 	0.76233 0.19998 0.97860 -0.03100
C 	C 	0.80667 0.24606 0.97672 -0.06100
C 	C 	0.25274 0.79929 0.97648 -0.04500
C 	C 	0.20740 0.75479 0.97932 -0.03800
C 	C 	0.23902 0.27096 0.00910 -0.02500
C 	C 	0.28365 0.22633 0.01771 -0.02100
C 	C 	0.78403 0.00977 0.74027 -0.04300
C 	C 	0.74180 0.98777 0.78259 -0.04300
C 	C 	0.21168 0.99436 0.76111 -0.04200
C 	C 	0.25969 0.00949 0.80063 -0.02900
C 	C 	0.22617 0.99782 0.27008 -0.02900
C 	C 	0.27137 0.99680 0.22492 -0.02800
C 	C 	0.80213 0.98613 0.25793 -0.03400
C 	C 	0.76270 0.00166 0.20989 -0.04500
C 	C 	0.01473 0.22982 0.73379 -0.03500
C 	C 	0.02567 0.27523 0.77667 -0.01200
C 	C 	0.98031 0.79727 0.76187 -0.02900
C 	C 	0.97862 0.75113 0.80627 -0.07200
C 	C 	0.01088 0.72412 0.23871 -0.02900
C 	C 	0.01922 0.76878 0.28324 -0.00900
C 	C 	0.97740 0.19550 0.25012 -0.05300
C 	C 	0.98007 0.24005 0.20472 -0.04800
