data_crystal

_cell_length_a 30.29133
_cell_length_b 30.42743
_cell_length_c 33.18406
_cell_angle_alpha 95.52497
_cell_angle_beta  95.52514
_cell_angle_gamma 125.60110

_symmetry_space_group_name_	'P 1'
_symmetry_space_group_name_H-M	'P 1'

loop_
_symmetry_equiv_pos_as_xyz
  x,y,z

loop_
_atom_site_label
_atom_site_type_symbol
_atom_site_fract_x
_atom_site_fract_y
_atom_site_fract_z
_atom_site_charge
C 	C 	0.99481 0.03812 0.98658 0.03800
C 	C 	0.05072 0.06568 0.98392 -0.08400
C 	C 	0.07215 0.03586 0.97722 0.03600
C 	C 	0.03744 0.97838 0.97294 -0.08400
C 	C 	0.98171 0.95079 0.97601 0.03700
C 	C 	0.96041 0.98067 0.98274 -0.08300
H 	H 	0.07747 0.11013 0.98722 0.05000
H 	H 	0.05392 0.95525 0.96778 0.05000
H 	H 	0.91729 0.95935 0.98513 0.05000
C 	C 	0.92601 0.99578 0.44466 0.02900
C 	C 	0.89758 0.93901 0.44372 -0.07400
C 	C 	0.92666 0.91614 0.44545 0.03000
C 	C 	0.98404 0.94998 0.44726 -0.07000
C 	C 	0.01256 0.00659 0.44848 0.02600
C 	C 	0.98362 0.02947 0.44737 -0.06900
H 	H 	0.85317 0.91289 0.44197 0.04800
H 	H 	0.00647 0.93230 0.44776 0.04700
H 	H 	0.00592 0.07345 0.44902 0.04600
Cu	Cu	0.67008 0.26730 0.01018 0.92800
Cu	Cu	0.70624 0.26040 0.92108 0.87100
Cu	Cu	0.70453 0.35379 0.95586 0.89700
Cu	Cu	0.67785 0.37446 0.03897 0.89500
C 	C 	0.66987 0.29801 0.09342 0.25700
O 	O 	0.59008 0.23556 0.01032 -0.37000
C 	C 	0.68113 0.31208 0.86617 0.25500
O 	O 	0.71695 0.35286 0.01334 -0.63700
O 	O 	0.66169 0.27218 0.95136 -0.64200
O 	O 	0.70195 0.22557 0.00871 -0.37500
O 	O 	0.75970 0.27578 0.96619 -0.44100
O 	O 	0.67937 0.34589 0.09078 -0.36500
O 	O 	0.74974 0.43320 0.96459 -0.38000
C 	C 	0.74624 0.46426 0.99281 0.28900
C 	C 	0.56952 0.26186 0.00066 0.28800
O 	O 	0.60225 0.31269 0.99489 -0.39000
O 	O 	0.70673 0.44226 0.01493 -0.39200
O 	O 	0.68735 0.27713 0.06854 -0.35700
C 	C 	0.74586 0.24212 0.99239 0.28900
O 	O 	0.70580 0.35520 0.89648 -0.37000
O 	O 	0.67116 0.26529 0.87269 -0.41000
H 	H 	0.75654 0.37447 0.02609 0.16500
H 	H 	0.62292 0.25188 0.93692 0.17100
Cu	Cu	0.70493 0.32755 0.44019 0.92700
Cu	Cu	0.72039 0.29687 0.53019 0.87100
Cu	Cu	0.62500 0.29843 0.50042 0.89700
Cu	Cu	0.59792 0.32222 0.41891 0.89300
C 	C 	0.64837 0.29780 0.35671 0.25200
O 	O 	0.73451 0.40656 0.43779 -0.36200
C 	C 	0.67466 0.32454 0.58901 0.25500
O 	O 	0.62010 0.28243 0.44227 -0.63900
O 	O 	0.70605 0.33975 0.50011 -0.64000
O 	O 	0.74614 0.29482 0.44056 -0.37300
O 	O 	0.69939 0.24032 0.48579 -0.44100
O 	O 	0.62782 0.32444 0.36750 -0.37700
O 	O 	0.54553 0.25462 0.49614 -0.37900
C 	C 	0.51176 0.25502 0.46802 0.28800
C 	C 	0.71206 0.42858 0.45402 0.28300
O 	O 	0.66228 0.39666 0.46242 -0.39000
O 	O 	0.53094 0.29265 0.44438 -0.39500
O 	O 	0.68937 0.30433 0.38155 -0.33800
C 	C 	0.72907 0.25097 0.45687 0.28900
O 	O 	0.62946 0.30101 0.56065 -0.36800
O 	O 	0.72060 0.33510 0.57916 -0.41100
H 	H 	0.59659 0.24261 0.43034 0.16300
H 	H 	0.72800 0.37887 0.51373 0.17200
C 	C 	0.70717 0.33825 0.76820 0.11400
C 	C 	0.73239 0.36774 0.73731 -0.09000
C 	C 	0.70644 0.34115 0.69627 0.00500
C 	C 	0.65413 0.29255 0.68639 0.11400
C 	C 	0.62656 0.26568 0.71752 -0.09000
C 	C 	0.65659 0.28759 0.75809 0.00600
O 	O 	0.72220 0.36219 0.80960 -0.19400
C 	C 	0.67601 0.32002 0.82355 0.03800
C 	C 	0.63541 0.27685 0.79245 -0.05900
O 	O 	0.62758 0.28149 0.64626 -0.19500
C 	C 	0.67009 0.32777 0.63264 0.03800
C 	C 	0.71601 0.36504 0.66320 -0.05900
H 	H 	0.76952 0.40978 0.74493 0.06200
H 	H 	0.58348 0.23032 0.71058 0.06200
H 	H 	0.60172 0.23649 0.79681 0.04800
H 	H 	0.75652 0.39767 0.65810 0.04900
C 	C 	0.63969 0.23946 0.25590 0.11200
C 	C 	0.66610 0.23902 0.22353 -0.08600
C 	C 	0.64436 0.23800 0.18382 0.00600
C 	C 	0.60422 0.24638 0.17759 0.11800
C 	C 	0.58051 0.25072 0.21054 -0.09200
C 	C 	0.59603 0.24271 0.24877 0.01100
O 	O 	0.66597 0.25654 0.29699 -0.18600
C 	C 	0.63446 0.27108 0.31346 0.04300
C 	C 	0.59283 0.26298 0.28517 -0.06600
O 	O 	0.60486 0.26896 0.14300 -0.19800
C 	C 	0.64921 0.27339 0.12933 0.04500
C 	C 	0.67305 0.25519 0.15322 -0.05500
H 	H 	0.70414 0.24291 0.22955 0.06500
H 	H 	0.55381 0.26349 0.20719 0.06200
H 	H 	0.57381 0.28383 0.28905 0.05100
H 	H 	0.71489 0.26785 0.15442 0.05500
C 	C 	0.89729 0.85681 0.44592 -0.00600
C 	C 	0.91528 0.83983 0.47733 -0.03200
C 	C 	0.89138 0.78403 0.47566 -0.05200
C 	C 	0.84790 0.74432 0.44319 0.02700
C 	C 	0.82925 0.76127 0.41223 -0.05200
C 	C 	0.85381 0.81722 0.41356 -0.03100
C 	C 	0.82467 0.68536 0.43951 -0.04500
C 	C 	0.81540 0.66126 0.47280 -0.05700
C 	C 	0.79041 0.60192 0.46877 0.04600
C 	C 	0.74902 0.56965 0.49100 -0.07700
C 	C 	0.72469 0.51348 0.48721 0.01600
C 	C 	0.74165 0.48892 0.46118 -0.09300
C 	C 	0.78474 0.52175 0.44021 0.01700
C 	C 	0.80925 0.57802 0.44421 -0.07600
H 	H 	0.94871 0.87002 0.50252 0.03600
H 	H 	0.90755 0.77184 0.49904 0.04100
H 	H 	0.79617 0.73112 0.38683 0.04100
H 	H 	0.83986 0.82984 0.38898 0.03600
H 	H 	0.81227 0.66073 0.40897 0.04000
H 	H 	0.82245 0.68440 0.50281 0.04200
H 	H 	0.73515 0.58794 0.51082 0.04700
H 	H 	0.69234 0.48900 0.50426 0.03000
H 	H 	0.79867 0.50361 0.42031 0.03700
H 	H 	0.84277 0.60297 0.42820 0.04800
C 	C 	0.74520 0.21490 0.44417 -0.09700
C 	C 	0.78753 0.23236 0.42122 0.02000
C 	C 	0.80606 0.20030 0.41271 -0.07700
C 	C 	0.78296 0.15094 0.42741 0.04800
C 	C 	0.73911 0.13228 0.44872 -0.07800
C 	C 	0.72025 0.16396 0.45700 0.01600
C 	C 	0.80515 0.11911 0.42087 -0.05800
C 	C 	0.82576 0.10868 0.45323 -0.04500
C 	C 	0.84663 0.07529 0.44766 0.02600
C 	C 	0.83799 0.03969 0.47500 -0.05200
C 	C 	0.86254 0.01251 0.47327 -0.03100
C 	C 	0.89579 0.02036 0.44396 -0.00500
C 	C 	0.90323 0.05478 0.41581 -0.03200
C 	C 	0.87962 0.08285 0.41809 -0.05100
H 	H 	0.80686 0.27117 0.41070 0.03800
H 	H 	0.83932 0.21453 0.39560 0.04900
H 	H 	0.72002 0.09348 0.45926 0.04700
H 	H 	0.68669 0.14919 0.47383 0.02700
H 	H 	0.80543 0.10504 0.38961 0.04400
H 	H 	0.82468 0.12265 0.48431 0.03800
H 	H 	0.81312 0.03395 0.49819 0.03900
H 	H 	0.85685 0.98646 0.49538 0.03500
H 	H 	0.92854 0.06091 0.39289 0.03600
H 	H 	0.88834 0.11162 0.39770 0.04100
C 	C 	0.07294 0.04200 0.45110 -0.00600
C 	C 	0.09562 0.06667 0.41774 -0.03200
C 	C 	0.15279 0.09874 0.41967 -0.05200
C 	C 	0.18771 0.10606 0.45483 0.02700
C 	C 	0.16507 0.08254 0.48869 -0.05100
C 	C 	0.10789 0.05031 0.48667 -0.03200
C 	C 	0.24812 0.14042 0.45659 -0.04500
C 	C 	0.27815 0.12315 0.46936 -0.05700
C 	C 	0.33794 0.15624 0.46877 0.04800
C 	C 	0.37534 0.16853 0.50411 -0.07600
C 	C 	0.43207 0.20025 0.50387 0.01900
C 	C 	0.45180 0.21945 0.46803 -0.09000
C 	C 	0.41405 0.20556 0.43227 0.01800
C 	C 	0.35744 0.17401 0.43260 -0.07700
H 	H 	0.06893 0.06060 0.39021 0.03600
H 	H 	0.16991 0.11743 0.39367 0.04000
H 	H 	0.19175 0.08951 0.51658 0.04100
H 	H 	0.09073 0.03189 0.51275 0.03600
H 	H 	0.26766 0.17857 0.44481 0.04000
H 	H 	0.25888 0.08511 0.48125 0.04300
H 	H 	0.36056 0.15422 0.53195 0.04800
H 	H 	0.46061 0.21053 0.53169 0.04000
H 	H 	0.42855 0.21907 0.40417 0.02400
H 	H 	0.32873 0.16322 0.40473 0.04700
C 	C 	0.77997 0.52415 0.99411 -0.09000
C 	C 	0.79360 0.56003 0.03088 0.01900
C 	C 	0.82332 0.61657 0.03175 -0.07700
C 	C 	0.83924 0.63775 0.99585 0.04800
C 	C 	0.82711 0.60216 0.95935 -0.07500
C 	C 	0.79739 0.54560 0.95843 0.02000
C 	C 	0.87037 0.69753 0.99710 -0.05700
C 	C 	0.85467 0.71709 0.96891 -0.04600
C 	C 	0.88554 0.77689 0.97051 0.02800
C 	C 	0.90319 0.79884 0.93513 -0.05300
C 	C 	0.93369 0.85558 0.93668 -0.02900
C 	C 	0.94617 0.89072 0.97351 -0.01000
C 	C 	0.92685 0.86860 0.00852 -0.03000
C 	C 	0.89643 0.81189 0.00699 -0.05200
H 	H 	0.78117 0.54413 0.05877 0.02400
H 	H 	0.83343 0.64386 0.06024 0.04700
H 	H 	0.84071 0.61830 0.93174 0.04900
H 	H 	0.78730 0.51847 0.92986 0.04000
H 	H 	0.90465 0.72584 0.02253 0.04300
H 	H 	0.82043 0.68884 0.94344 0.04100
H 	H 	0.89413 0.77204 0.90666 0.04100
H 	H 	0.94809 0.87231 0.90942 0.03600
H 	H 	0.93606 0.89542 0.03702 0.03600
H 	H 	0.88154 0.79517 0.03415 0.04100
C 	C 	0.77648 0.21877 0.00031 -0.09900
C 	C 	0.82671 0.24062 0.98664 0.01500
C 	C 	0.85211 0.21440 0.98928 -0.07900
C 	C 	0.82826 0.16665 0.00647 0.04700
C 	C 	0.77935 0.14610 0.02166 -0.07800
C 	C 	0.75369 0.17211 0.01881 0.01900
C 	C 	0.85050 0.13440 0.00420 -0.05700
C 	C 	0.90518 0.15915 0.01275 -0.04700
C 	C 	0.92734 0.12726 0.00623 0.02900
C 	C 	0.96890 0.13617 0.03637 -0.05500
C 	C 	0.99102 0.10712 0.02996 -0.02600
C 	C 	0.97214 0.06937 0.99314 -0.01200
C 	C 	0.93127 0.06115 0.96268 -0.02900
C 	C 	0.90917 0.09016 0.96906 -0.05400
H 	H 	0.84536 0.27708 0.97295 0.02600
H 	H 	0.88930 0.23016 0.97670 0.04600
H 	H 	0.76053 0.10923 0.03487 0.04800
H 	H 	0.71529 0.15497 0.02987 0.03500
H 	H 	0.82176 0.08978 0.99578 0.04200
H 	H 	0.93369 0.20296 0.02550 0.04000
H 	H 	0.98379 0.16529 0.06486 0.04200
H 	H 	0.02264 0.11378 0.05362 0.03300
H 	H 	0.91688 0.03252 0.93398 0.03500
H 	H 	0.87837 0.08424 0.94499 0.04100
C 	C 	0.13135 0.06488 0.97591 -0.01000
C 	C 	0.15429 0.09665 0.94558 -0.03000
C 	C 	0.20998 0.12255 0.94353 -0.05300
C 	C 	0.24325 0.11723 0.97194 0.02700
C 	C 	0.22006 0.08490 0.00200 -0.05200
C 	C 	0.16457 0.05939 0.00424 -0.03000
C 	C 	0.30152 0.14300 0.96858 -0.04600
C 	C 	0.34186 0.17035 0.00220 -0.05600
C 	C 	0.39904 0.19101 0.99954 0.04700
C 	C 	0.42659 0.17761 0.02610 -0.07600
C 	C 	0.48175 0.19937 0.02553 0.02100
C 	C 	0.51016 0.23541 0.99871 -0.09600
C 	C 	0.48248 0.24860 0.97189 0.01800
C 	C 	0.42717 0.22658 0.97236 -0.07700
H 	H 	0.12884 0.10074 0.92335 0.03500
H 	H 	0.22726 0.14674 0.91987 0.04000
H 	H 	0.24482 0.07896 0.02327 0.04100
H 	H 	0.14720 0.03486 0.02771 0.03500
H 	H 	0.31160 0.14018 0.93831 0.04000
H 	H 	0.33188 0.17396 0.03238 0.04300
H 	H 	0.40533 0.15056 0.04741 0.04800
H 	H 	0.50282 0.18939 0.04671 0.03800
H 	H 	0.50389 0.27624 0.95098 0.02900
H 	H 	0.40651 0.23789 0.95216 0.04800
