data_crystal

_cell_length_a 13.25840
_cell_length_b 14.14620
_cell_length_c 40.16787
_cell_angle_alpha 90.36093
_cell_angle_beta  90.36049
_cell_angle_gamma 119.37079

_symmetry_space_group_name_	'P 1'
_symmetry_space_group_name_H-M	'P 1'

loop_
_symmetry_equiv_pos_as_xyz
  x,y,z

loop_
_atom_site_label
_atom_site_type_symbol
_atom_site_fract_x
_atom_site_fract_y
_atom_site_fract_z
_atom_site_charge
C 	C 	0.51811 0.12571 0.83600 0.32800
C 	C 	0.13460 0.86992 0.71988 0.34400
C 	C 	0.21983 0.94883 0.80913 0.31500
Ni	Ni	0.08130 0.00670 0.76124 1.11300
Ni	Ni	0.00994 0.76684 0.78175 1.10300
O 	O 	0.07914 0.92495 0.72012 -0.42300
O 	O 	0.13463 0.85001 0.81523 -0.41000
O 	O 	0.22017 0.00216 0.78171 -0.37400
O 	O 	0.13327 0.81497 0.74638 -0.39700
C 	C 	0.49084 0.74014 0.48429 0.29600
C 	C 	0.30262 0.52007 0.38022 0.32600
C 	C 	0.26922 0.91635 0.39733 0.35000
C 	C 	0.18782 0.71036 0.46122 0.28700
Ni	Ni	0.51311 0.71967 0.41087 1.11300
Ni	Ni	0.25281 0.69962 0.38971 1.11500
Ni	Ni	0.42251 0.87853 0.44179 1.11800
O 	O 	0.49894 0.67931 0.46032 -0.37800
O 	O 	0.50568 0.83872 0.47810 -0.38600
O 	O 	0.23141 0.82795 0.37902 -0.39500
O 	O 	0.35350 0.73225 0.34784 -0.37600
O 	O 	0.26973 0.81251 0.46537 -0.40000
O 	O 	0.56239 0.95352 0.41344 -0.39900
O 	O 	0.14939 0.66740 0.43079 -0.38000
O 	O 	0.40652 0.55844 0.39425 -0.37200
O 	O 	0.22893 0.54785 0.39226 -0.39300
O 	O 	0.37110 0.95861 0.41151 -0.40200
O 	O 	0.38675 0.74936 0.41795 -0.70100
H 	H 	0.34816 0.69445 0.43516 0.14100
C 	C 	0.27010 0.41904 0.19192 0.31800
C 	C 	0.34060 0.60921 0.09367 0.28900
C 	C 	0.19754 0.79613 0.20248 0.33200
C 	C 	0.02905 0.52713 0.15405 0.26000
Ni	Ni	0.43340 0.64042 0.16625 1.11200
Ni	Ni	0.25792 0.72440 0.14027 1.11700
Ni	Ni	0.20069 0.58889 0.20785 1.12100
O 	O 	0.35611 0.47383 0.17104 -0.38900
O 	O 	0.24371 0.46968 0.21562 -0.36500
O 	O 	0.26987 0.82789 0.17718 -0.39300
O 	O 	0.05880 0.49108 0.18078 -0.38400
O 	O 	0.33190 0.69593 0.23803 -0.38100
O 	O 	0.08390 0.63179 0.14623 -0.38700
O 	O 	0.43204 0.63911 0.11381 -0.37400
O 	O 	0.25747 0.63413 0.10030 -0.38500
O 	O 	0.13731 0.69251 0.20991 -0.39100
O 	O 	0.28732 0.63016 0.16735 -0.71200
H 	H 	0.24413 0.56186 0.15461 0.14500
C 	C 	0.07183 0.90184 0.26498 0.29900
C 	C 	0.09773 0.29356 0.32574 0.33100
C 	C 	0.07285 0.97541 0.35555 0.27800
C 	C 	0.06902 0.21061 0.23303 0.28000
Ni	Ni	0.13298 0.11953 0.29446 1.10700
O 	O 	0.14035 0.00813 0.26167 -0.36800
O 	O 	0.00368 0.86220 0.29140 -0.39600
O 	O 	0.13475 0.22425 0.33104 -0.38400
O 	O 	0.15131 0.02810 0.33255 -0.34500
O 	O 	0.14854 0.22919 0.25664 -0.36000
C 	C 	0.10181 0.24424 0.20195 -0.10600
C 	C 	0.22389 0.31145 0.19298 -0.11700
H 	H 	0.03619 0.22823 0.18303 0.06300
H 	H 	0.26403 0.27312 0.17889 0.07300
C 	C 	0.17680 0.86852 0.21881 -0.12400
C 	C 	0.08648 0.83214 0.24529 -0.10900
H 	H 	0.22491 0.95374 0.21224 0.08300
H 	H 	0.03228 0.74572 0.24955 0.07700
C 	C 	0.26226 0.43222 0.35997 -0.11300
C 	C 	0.14916 0.39061 0.34162 -0.11700
H 	H 	0.31696 0.39662 0.35474 0.08400
H 	H 	0.11296 0.44437 0.33850 0.07100
C 	C 	0.10051 0.93575 0.38211 -0.09100
C 	C 	0.22219 0.98039 0.39301 -0.14400
H 	H 	0.03238 0.87889 0.39819 0.05700
H 	H 	0.26947 0.06451 0.40137 0.09400
C 	C 	0.39104 0.02531 0.54019 0.13400
H 	H 	0.44457 0.97589 0.49567 0.00900
N 	N 	0.30318 0.92471 0.54699 -0.21100
H 	H 	0.28522 0.85913 0.53130 0.09500
H 	H 	0.25097 0.91170 0.56774 0.08800
C 	C 	0.13219 0.64662 0.49140 -0.11700
C 	C 	0.16992 0.55987 0.53840 0.05200
C 	C 	0.17413 0.58037 0.50409 -0.02500
N 	N 	0.23685 0.52098 0.55120 -0.19100
H 	H 	0.22462 0.55755 0.48815 0.03700
H 	H 	0.14281 0.74542 0.60435 0.08300
H 	H 	0.24969 0.46463 0.53766 0.08000
H 	H 	0.27243 0.54331 0.57515 0.08900
C 	C 	0.49973 0.71019 0.51871 -0.11200
C 	C 	0.52621 0.58058 0.55094 0.06100
C 	C 	0.47351 0.60319 0.52452 -0.02200
N 	N 	0.48362 0.47711 0.56139 -0.19500
H 	H 	0.41756 0.53887 0.50738 0.04400
H 	H 	0.41531 0.41298 0.54853 0.08000
H 	H 	0.51171 0.46084 0.58382 0.09800
C 	C 	0.33541 0.93172 0.70730 -0.12400
C 	C 	0.21426 0.89219 0.69670 -0.12900
H 	H 	0.35939 0.87536 0.71824 0.08600
H 	H 	0.20001 0.91661 0.67228 0.07400
C 	C 	0.91860 0.45657 0.13741 -0.06300
H 	H 	0.05362 0.37284 0.12410 0.06500
H 	H 	0.83313 0.62636 0.07260 0.09000
C 	C 	0.36914 0.36460 0.91585 0.12800
C 	C 	0.33991 0.40665 0.94374 -0.09700
N 	N 	0.28402 0.28551 0.89685 -0.20300
H 	H 	0.25012 0.37152 0.95103 0.04800
C 	C 	0.34414 0.56702 0.05995 -0.10500
C 	C 	0.33474 0.62047 0.03171 -0.02700
C 	C 	0.35836 0.59513 0.99970 0.05300
H 	H 	0.31235 0.68417 0.03467 0.03900
N 	N 	0.34454 0.64533 0.97269 -0.19300
H 	H 	0.31080 0.69794 0.97538 0.07300
H 	H 	0.36592 0.63202 0.94881 0.08500
H 	H 	0.30336 0.25757 0.87498 0.10200
H 	H 	0.19708 0.25417 0.90314 0.08000
C 	C 	0.31570 0.98676 0.82763 -0.12500
C 	C 	0.42570 0.07818 0.81606 -0.11000
H 	H 	0.31487 0.94369 0.85006 0.08100
H 	H 	0.43117 0.10907 0.79101 0.09700
O 	O 	0.37681 0.10913 0.62134 -0.38600
O 	O 	0.97124 0.04537 0.73767 -0.35700
C 	C 	0.42013 0.11187 0.56256 -0.12200
C 	C 	0.42631 0.49108 0.96293 -0.00200
C 	C 	0.39608 0.51760 0.99612 0.00200
C 	C 	0.37150 0.48258 0.05584 0.12000
H 	H 	0.87451 0.67232 0.03077 0.08500
C 	C 	0.45946 0.04297 0.51176 -0.07000
N 	N 	0.82680 0.60891 0.04713 -0.19200
H 	H 	0.47287 0.87239 0.53823 0.10000
N 	N 	0.99572 0.36361 0.10494 -0.17900
C 	C 	0.91672 0.39765 0.10881 0.11900
H 	H 	0.99703 0.32379 0.08307 0.09600
O 	O 	0.51698 0.08254 0.86536 -0.38200
C 	C 	0.09955 0.58390 0.55943 0.01600
C 	C 	0.40152 0.46167 0.02418 -0.09900
H 	H 	0.10170 0.28571 0.62430 0.07600
H 	H 	0.06560 0.38542 0.58020 0.05100
N 	N 	0.06065 0.31244 0.64101 -0.19700
H 	H 	0.04368 0.28059 0.66502 0.08200
N 	N 	0.54211 0.87073 0.54993 -0.20300
H 	H 	0.65064 0.24509 0.44660 0.06100
O 	O 	0.42007 0.83595 0.12479 -0.38600
H 	H 	0.76335 0.26168 0.39672 0.09700
C 	C 	0.68205 0.19286 0.45626 -0.10400
N 	N 	0.77137 0.19518 0.40438 -0.20500
H 	H 	0.81217 0.16552 0.38869 0.11700
C 	C 	0.52256 0.33018 0.89218 0.30100
Ni	Ni	0.59413 0.17055 0.90699 1.11900
O 	O 	0.55849 0.34622 0.86100 -0.37700
O 	O 	0.61516 0.20292 0.82366 -0.39900
O 	O 	0.49132 0.23657 0.90620 -0.39900
C 	C 	0.43679 0.09547 0.59799 0.32200
C 	C 	0.41202 0.03807 0.70695 0.33300
Ni	Ni	0.45921 0.21956 0.66017 1.10900
O 	O 	0.50996 0.06323 0.60594 -0.38900
O 	O 	0.37698 0.10678 0.69741 -0.37600
O 	O 	0.51185 0.07368 0.72310 -0.37000
O 	O 	0.54695 0.33400 0.62320 -0.38000
C 	C 	0.46773 0.79803 0.34824 0.32400
C 	C 	0.65692 0.95883 0.42375 0.31600
O 	O 	0.53592 0.76715 0.36223 -0.36400
O 	O 	0.65820 0.86734 0.42672 -0.36300
C 	C 	0.51767 0.85678 0.13965 0.33000
C 	C 	0.43819 0.71446 0.23444 0.34300
O 	O 	0.51519 0.80696 0.16683 -0.39300
O 	O 	0.45660 0.64616 0.21709 -0.38200
C 	C 	0.52735 0.81174 0.24277 -0.12300
H 	H 	0.51170 0.87072 0.25583 0.09200
C 	C 	0.51492 0.88816 0.33003 -0.10400
C 	C 	0.73485 0.05552 0.44389 -0.11300
C 	C 	0.73632 0.15253 0.43501 0.14200
C 	C 	0.65817 0.15514 0.48910 0.00500
C 	C 	0.71035 0.09518 0.50113 0.06200
C 	C 	0.74504 0.04118 0.47805 -0.00300
C 	C 	0.55427 0.14631 0.50612 -0.01400
N 	N 	0.73069 0.09293 0.53414 -0.18700
H 	H 	0.76510 0.97953 0.48642 0.04400
C 	C 	0.48397 0.21708 0.55002 -0.02700
C 	C 	0.55686 0.23606 0.52256 0.07100
H 	H 	0.48552 0.28430 0.56323 0.04800
N 	N 	0.62106 0.33809 0.51082 -0.19500
H 	H 	0.60606 0.40010 0.51916 0.09000
H 	H 	0.70774 0.13490 0.55126 0.08200
C 	C 	0.56600 0.79026 0.54286 0.13200
C 	C 	0.63864 0.77192 0.56423 -0.10100
C 	C 	0.62302 0.66701 0.56674 0.00300
H 	H 	0.70340 0.83740 0.57946 0.05500
H 	H 	0.76866 0.68067 0.51639 0.09100
H 	H 	0.58239 0.92321 0.57012 0.08800
H 	H 	0.42103 0.16688 0.01430 0.07900
C 	C 	0.64794 0.96480 0.97474 0.11200
C 	C 	0.64752 0.91071 0.00382 -0.09000
N 	N 	0.54590 0.95138 0.96249 -0.20000
H 	H 	0.56550 0.85323 0.01469 0.05700
C 	C 	0.62614 0.91212 0.12077 -0.13100
H 	H 	0.53944 0.01676 0.95316 0.07200
H 	H 	0.46869 0.88144 0.96811 0.07900
C 	C 	0.48702 0.40356 0.90824 -0.10500
C 	C 	0.54254 0.54152 0.95206 0.06500
C 	C 	0.57187 0.49691 0.92476 -0.02800
H 	H 	0.42598 0.39942 0.02124 0.05800
N 	N 	0.36452 0.41859 0.08183 -0.20500
H 	H 	0.38845 0.35878 0.07893 0.08100
H 	H 	0.32891 0.42318 0.10448 0.08800
H 	H 	0.45869 0.90367 0.31391 0.07700
H 	H 	0.46074 0.21947 0.97303 0.09300
H 	H 	0.60661 0.66844 0.98744 0.09100
O 	O 	0.01656 0.27343 0.30301 -0.40000
O 	O 	0.96506 0.95352 0.35137 -0.35500
O 	O 	0.95841 0.17237 0.24026 -0.34900
O 	O 	0.97232 0.88074 0.78317 -0.69600
C 	C 	0.71625 0.64980 0.57995 0.00000
N 	N 	0.77559 0.61643 0.52671 -0.19400
C 	C 	0.68324 0.85436 0.11059 0.13600
N 	N 	0.68948 0.78074 0.13081 -0.20800
H 	H 	0.61455 0.05692 0.11323 0.04300
H 	H 	0.71956 0.72981 0.12168 0.08400
N 	N 	0.62619 0.63176 0.96777 -0.19200
O 	O 	0.97174 0.04477 0.28909 -0.69600
N 	N 	0.07897 0.69438 0.62084 -0.18900
H 	H 	0.05241 0.72960 0.63929 0.07500
H 	H 	0.96992 0.02568 0.26542 0.16300
H 	H 	0.82325 0.51455 0.16639 0.05700
H 	H 	0.99422 0.90486 0.80641 0.16600
C 	C 	0.82523 0.47467 0.14345 -0.03100
H 	H 	0.65020 0.51033 0.14658 0.08100
H 	H 	0.03274 0.76434 0.47641 0.09100
C 	C 	0.06810 0.67766 0.51259 0.13800
C 	C 	0.04752 0.64150 0.54585 -0.15700
N 	N 	0.03033 0.74576 0.50162 -0.22900
H 	H 	0.99375 0.66115 0.56122 0.10100
C 	C 	0.06734 0.53505 0.59402 -0.00500
C 	C 	0.98251 0.52383 0.64912 0.01000
C 	C 	0.04023 0.58598 0.62071 0.02300
H 	H 	0.95078 0.55731 0.66798 0.04900
H 	H 	0.99726 0.78032 0.51834 0.11300
H 	H 	0.70894 0.69683 0.63059 0.05900
C 	C 	0.74231 0.45361 0.11839 0.06500
N 	N 	0.65558 0.47676 0.12385 -0.19400
H 	H 	0.59164 0.45983 0.10586 0.08600
C 	C 	0.76417 0.11920 0.93529 0.31000
C 	C 	0.88472 0.55223 0.87817 0.32300
C 	C 	0.70097 0.34130 0.95904 0.30400
C 	C 	0.90394 0.30146 0.83772 0.31300
Ni	Ni	0.87165 0.35254 0.90812 1.11400
Ni	Ni	0.70517 0.34603 0.84687 1.12100
O 	O 	0.84627 0.22216 0.93841 -0.36900
O 	O 	0.68202 0.08873 0.91261 -0.38200
O 	O 	0.94301 0.50175 0.88449 -0.37200
O 	O 	0.78206 0.50074 0.86415 -0.37500
O 	O 	0.79927 0.40673 0.94416 -0.37700
O 	O 	0.64966 0.23605 0.95312 -0.38900
O 	O 	0.94238 0.30841 0.86883 -0.35600
O 	O 	0.85700 0.36193 0.82795 -0.37000
O 	O 	0.72701 0.28016 0.88534 -0.71200
H 	H 	0.73758 0.22502 0.87343 0.14500
C 	C 	0.58267 0.37376 0.71814 0.32000
C 	C 	0.65393 0.36301 0.61324 0.28200
C 	C 	0.68989 0.02740 0.68018 0.36300
C 	C 	0.86161 0.33014 0.66600 0.28800
Ni	Ni	0.65606 0.15933 0.63164 1.11900
Ni	Ni	0.66145 0.20746 0.70965 1.11800
O 	O 	0.50055 0.34160 0.69530 -0.38700
O 	O 	0.60690 0.30335 0.73263 -0.38500
O 	O 	0.62389 0.02335 0.65526 -0.39900
O 	O 	0.81650 0.33568 0.69511 -0.37600
O 	O 	0.81832 0.23718 0.64967 -0.38400
O 	O 	0.68239 0.28910 0.60346 -0.38100
O 	O 	0.73098 0.10979 0.70142 -0.38200
O 	O 	0.59548 0.20854 0.66686 -0.69500
H 	H 	0.64685 0.28666 0.66578 0.11800
C 	C 	0.86244 0.73757 0.84103 0.32800
C 	C 	0.87977 0.97502 0.72080 0.30600
C 	C 	0.78242 0.63668 0.75338 0.33100
C 	C 	0.97045 0.09188 0.80739 0.34200
Ni	Ni	0.81627 0.84873 0.78411 1.11100
O 	O 	0.81220 0.79586 0.83282 -0.37300
O 	O 	0.89033 0.68749 0.81776 -0.36700
O 	O 	0.80370 0.88384 0.73456 -0.36500
O 	O 	0.73195 0.68257 0.77024 -0.36200
O 	O 	0.89130 0.69318 0.74582 -0.38300
O 	O 	0.86491 0.01182 0.79807 -0.35400
O 	O 	0.06648 0.08816 0.80071 -0.42400
C 	C 	0.73190 0.98875 0.33445 0.32500
C 	C 	0.73565 0.90308 0.25255 0.32200
Ni	Ni	0.89125 0.12372 0.28578 1.13000
Ni	Ni	0.88252 0.90318 0.30701 1.12400
O 	O 	0.82288 0.08429 0.33086 -0.39000
O 	O 	0.80126 0.86252 0.26300 -0.39200
O 	O 	0.74588 0.99567 0.26493 -0.38500
O 	O 	0.73804 0.90094 0.32628 -0.36400
C 	C 	0.64669 0.84115 0.23280 -0.10300
H 	H 	0.65774 0.78804 0.21535 0.07200
C 	C 	0.62860 0.98317 0.34011 -0.12800
H 	H 	0.62824 0.05752 0.34682 0.09000
H 	H 	0.68485 0.35648 0.49306 0.09000
H 	H 	0.77332 0.05223 0.54285 0.08900
C 	C 	0.05890 0.43349 0.60022 -0.09100
C 	C 	0.03593 0.39150 0.63230 0.08500
C 	C 	0.97145 0.42054 0.65349 -0.06800
C 	C 	0.72542 0.64427 0.61446 -0.09500
C 	C 	0.73425 0.55746 0.62786 0.12800
C 	C 	0.73214 0.47781 0.60607 -0.10900
C 	C 	0.76574 0.50720 0.57317 -0.02400
C 	C 	0.75807 0.59477 0.55969 0.06200
N 	N 	0.73894 0.54772 0.66125 -0.20400
H 	H 	0.78473 0.45577 0.55734 0.05400
H 	H 	0.73939 0.60640 0.67727 0.09900
H 	H 	0.74846 0.48477 0.67134 0.08500
H 	H 	0.79941 0.57105 0.51129 0.09100
C 	C 	0.73623 0.96207 0.67968 -0.15800
C 	C 	0.85654 0.00422 0.69149 -0.07100
H 	H 	0.69761 0.88995 0.66389 0.08400
H 	H 	0.92406 0.07582 0.67948 0.07900
C 	C 	0.61570 0.46947 0.73332 -0.11600
C 	C 	0.73020 0.52886 0.74969 -0.12800
H 	H 	0.56939 0.51322 0.72762 0.08100
H 	H 	0.78429 0.49072 0.74980 0.07600
C 	C 	0.66803 0.38134 0.98898 -0.10800
C 	C 	0.58171 0.30767 0.01053 0.12700
C 	C 	0.59781 0.32567 0.04502 -0.10200
C 	C 	0.69334 0.42044 0.05728 0.00100
C 	C 	0.75369 0.50753 0.03529 0.06400
C 	C 	0.74270 0.48674 0.00090 -0.02400
N 	N 	0.48209 0.22380 0.99827 -0.20200
H 	H 	0.54192 0.26297 0.06209 0.05200
C 	C 	0.75349 0.41282 0.08726 -0.00200
H 	H 	0.79867 0.54954 0.98387 0.04900
C 	C 	0.83619 0.37908 0.08343 -0.08800
H 	H 	0.84304 0.34552 0.05976 0.06000
C 	C 	0.75612 0.04173 0.96102 -0.09200
C 	C 	0.74865 0.95032 0.02305 -0.01400
C 	C 	0.85622 0.01324 0.00761 0.07400
C 	C 	0.85899 0.05625 0.97603 -0.02600
C 	C 	0.73848 0.95690 0.05939 -0.00400
N 	N 	0.95656 0.03630 0.02351 -0.17200
H 	H 	0.94154 0.10824 0.96445 0.05600
C 	C 	0.73433 0.87407 0.07914 -0.09800
C 	C 	0.64979 0.00701 0.10401 -0.00100
C 	C 	0.70461 0.02962 0.07306 0.07000
H 	H 	0.76633 0.82207 0.06947 0.05600
N 	N 	0.71613 0.11595 0.05541 -0.19300
H 	H 	0.67637 0.78114 0.15633 0.07300
H 	H 	0.67604 0.15972 0.06338 0.08800
H 	H 	0.76658 0.14155 0.03403 0.09600
H 	H 	0.03638 0.08665 0.01252 0.05000
H 	H 	0.95591 0.00194 0.04650 0.09400
H 	H 	0.66200 0.52982 0.91815 0.05000
H 	H 	0.71191 0.66798 0.95979 0.08600
C 	C 	0.98121 0.17904 0.82417 -0.06400
C 	C 	0.90801 0.22941 0.81641 -0.11900
H 	H 	0.06000 0.22703 0.83869 0.04400
H 	H 	0.86487 0.21430 0.79229 0.08400
C 	C 	0.87580 0.72152 0.87326 -0.12500
C 	C 	0.93457 0.65958 0.88341 -0.06600
H 	H 	0.85259 0.76202 0.89233 0.08000
H 	H 	0.01829 0.70220 0.89589 0.02900
