data_crystal

_cell_length_a 23.08351
_cell_length_b 22.08158
_cell_length_c 26.93593
_cell_angle_alpha 90.00185
_cell_angle_beta  90.00495
_cell_angle_gamma 92.71702

_symmetry_space_group_name_	'P 1'
_symmetry_space_group_name_H-M	'P 1'

loop_
_symmetry_equiv_pos_as_xyz
  x,y,z

loop_
_atom_site_label
_atom_site_type_symbol
_atom_site_fract_x
_atom_site_fract_y
_atom_site_fract_z
_atom_site_charge
C 	C 	0.86682 0.97094 0.02123 -0.03700
C 	C 	0.87484 0.03263 0.01094 -0.03300
C 	C 	0.91462 0.93380 0.02430 0.01100
C 	C 	0.97145 0.96023 0.01877 -0.00400
C 	C 	0.97967 0.02317 0.00929 0.00100
C 	C 	0.93109 0.05951 0.00500 0.00600
C 	C 	0.02000 0.92378 0.02245 0.01300
C 	C 	0.07631 0.95094 0.01788 -0.03600
C 	C 	0.03651 0.04966 0.00402 0.00700
C 	C 	0.93969 0.12224 0.99489 0.00200
C 	C 	0.99584 0.14792 0.98938 -0.04500
C 	C 	0.04421 0.11264 0.99425 0.00200
C 	C 	0.90684 0.87056 0.03299 -0.00100
C 	C 	0.95523 0.83500 0.03660 -0.04400
C 	C 	0.01135 0.86065 0.03065 -0.00100
C 	C 	0.89033 0.16178 0.99045 0.01500
C 	C 	0.86859 0.17590 0.94348 -0.02600
C 	C 	0.82069 0.21188 0.93933 -0.03700
C 	C 	0.79428 0.23389 0.98215 0.05100
C 	C 	0.81647 0.22027 0.02912 -0.03300
C 	C 	0.86471 0.18483 0.03322 -0.02700
C 	C 	0.10260 0.14289 0.99045 0.01500
C 	C 	0.13030 0.16610 0.03322 -0.02700
C 	C 	0.18183 0.20167 0.02918 -0.03500
C 	C 	0.12741 0.15455 0.94365 -0.02700
C 	C 	0.17901 0.19013 0.93961 -0.03300
C 	C 	0.20591 0.21451 0.98232 0.04900
C 	C 	0.84832 0.84013 0.03562 0.01300
C 	C 	0.82730 0.81677 0.08099 -0.02600
C 	C 	0.77586 0.78061 0.08241 -0.03100
C 	C 	0.74475 0.76808 0.03855 0.05000
C 	C 	0.76490 0.79291 0.99343 -0.03700
C 	C 	0.81665 0.82844 0.99191 -0.02600
C 	C 	0.06043 0.82035 0.03028 0.01400
C 	C 	0.08206 0.79963 0.98503 -0.02700
C 	C 	0.13090 0.76472 0.98440 -0.03400
C 	C 	0.15821 0.75010 0.02901 0.04600
C 	C 	0.13550 0.76921 0.07437 -0.03100
C 	C 	0.08673 0.80431 0.07499 -0.02800
C 	C 	0.08441 0.01286 0.00851 -0.03100
H 	H 	0.88844 0.15846 0.91030 0.05400
H 	H 	0.80373 0.22217 0.90294 0.06900
H 	H 	0.79604 0.23682 0.06236 0.06800
H 	H 	0.88154 0.17430 0.06960 0.05400
H 	H 	0.74115 0.78349 0.95938 0.06600
H 	H 	0.83276 0.84588 0.95668 0.05300
H 	H 	0.76075 0.76146 0.11738 0.08000
H 	H 	0.85164 0.82526 0.11487 0.05500
H 	H 	0.06168 0.81161 0.95039 0.05400
H 	H 	0.14808 0.74982 0.94926 0.06400
H 	H 	0.07000 0.81992 0.11008 0.05400
H 	H 	0.15624 0.75775 0.10898 0.06800
H 	H 	0.11126 0.15760 0.06947 0.05400
H 	H 	0.20262 0.21994 0.06237 0.06700
H 	H 	0.10612 0.13708 0.91042 0.05400
H 	H 	0.19759 0.19944 0.90332 0.06800
H 	H 	0.82311 0.95230 0.02687 0.05600
H 	H 	0.83694 0.05938 0.00776 0.05100
H 	H 	0.00198 0.19608 0.98184 0.06500
H 	H 	0.12824 0.03194 0.00470 0.05400
H 	H 	0.11422 0.92430 0.02174 0.06100
H 	H 	0.94907 0.78654 0.04269 0.05700
C 	C 	0.91630 0.99044 0.50132 -0.03100
C 	C 	0.92420 0.05209 0.49063 -0.03500
C 	C 	0.96376 0.95271 0.50150 0.00900
C 	C 	0.01999 0.97805 0.49097 0.00100
C 	C 	0.02805 0.04065 0.48016 -0.00300
C 	C 	0.98003 0.07804 0.48054 0.01300
C 	C 	0.06814 0.94084 0.49101 0.00900
C 	C 	0.12254 0.96520 0.47489 -0.03200
C 	C 	0.08424 0.06574 0.46909 0.01200
C 	C 	0.98875 0.14087 0.47091 -0.00100
C 	C 	0.04459 0.16564 0.46150 -0.04400
C 	C 	0.09252 0.12911 0.46143 -0.00100
C 	C 	0.95637 0.89005 0.51265 0.00200
C 	C 	0.00498 0.85488 0.51677 -0.04500
C 	C 	0.06068 0.87959 0.50645 0.00200
C 	C 	0.94001 0.18157 0.47208 0.01500
C 	C 	0.91005 0.19404 0.42826 -0.02900
C 	C 	0.86066 0.22812 0.43003 -0.03100
C 	C 	0.84087 0.24967 0.47567 0.04600
C 	C 	0.87196 0.23891 0.51925 -0.03600
C 	C 	0.92153 0.20512 0.51743 -0.02900
C 	C 	0.15136 0.15872 0.45737 0.01400
C 	C 	0.18630 0.16585 0.49982 -0.02700
C 	C 	0.23785 0.20174 0.49795 -0.03700
C 	C 	0.16936 0.18635 0.41264 -0.02700
C 	C 	0.22078 0.22258 0.41086 -0.03200
C 	C 	0.25475 0.23115 0.45371 0.05100
C 	C 	0.89798 0.85968 0.51736 0.01500
C 	C 	0.87746 0.84036 0.56410 -0.02700
C 	C 	0.82633 0.80392 0.56786 -0.03400
C 	C 	0.79547 0.78645 0.52491 0.04700
C 	C 	0.81492 0.80746 0.47836 -0.03200
C 	C 	0.86608 0.84373 0.47459 -0.02700
C 	C 	0.11078 0.84093 0.51249 0.01500
C 	C 	0.11533 0.78912 0.48291 -0.02600
C 	C 	0.16370 0.75388 0.48713 -0.03800
C 	C 	0.20871 0.77107 0.52002 0.05000
C 	C 	0.20370 0.82239 0.55019 -0.03200
C 	C 	0.15406 0.85601 0.54758 -0.02700
C 	C 	0.13065 0.02698 0.46474 -0.03600
H 	H 	0.92433 0.17623 0.39308 0.05300
H 	H 	0.83714 0.23683 0.39616 0.06700
H 	H 	0.85715 0.25587 0.55456 0.06300
H 	H 	0.94471 0.19588 0.55136 0.05300
H 	H 	0.79110 0.79454 0.44506 0.06700
H 	H 	0.88170 0.85820 0.43835 0.05400
H 	H 	0.81141 0.78824 0.60397 0.06600
H 	H 	0.90189 0.85228 0.59731 0.05400
H 	H 	0.08173 0.77665 0.45622 0.05500
H 	H 	0.16699 0.71411 0.46392 0.06700
H 	H 	0.15025 0.89520 0.57136 0.05400
H 	H 	0.23854 0.83658 0.57518 0.07300
H 	H 	0.17267 0.14498 0.53457 0.05300
H 	H 	0.26390 0.20798 0.53118 0.06600
H 	H 	0.14264 0.18124 0.37970 0.05400
H 	H 	0.23353 0.24503 0.37653 0.07800
H 	H 	0.87306 0.97241 0.51000 0.05400
H 	H 	0.88658 0.07952 0.49044 0.06000
H 	H 	0.05098 0.21407 0.45540 0.05600
H 	H 	0.17297 0.04424 0.45255 0.05700
H 	H 	0.15854 0.93630 0.46931 0.05200
H 	H 	0.99932 0.80752 0.52726 0.06200
Ni	Ni	0.44612 0.52513 0.04515 1.10600
O 	O 	0.51569 0.47342 0.03135 -0.69900
Ni	Ni	0.50510 0.45742 0.95776 1.11100
O 	O 	0.45746 0.52697 0.12082 -0.30800
O 	O 	0.47168 0.42635 0.12998 -0.37200
O 	O 	0.49861 0.60338 0.04552 -0.32800
Ni	Ni	0.50822 0.39453 0.06513 1.08600
O 	O 	0.40932 0.63987 0.99030 -0.39100
O 	O 	0.42525 0.37783 0.04094 -0.39100
O 	O 	0.57471 0.40569 0.94845 -0.30100
O 	O 	0.43698 0.51011 0.97155 -0.70200
O 	O 	0.37651 0.57717 0.05269 -0.34200
O 	O 	0.48955 0.45565 0.88271 -0.30400
O 	O 	0.49289 0.55894 0.87573 -0.35300
Ni	Ni	0.44854 0.58886 0.93784 1.07700
H 	H 	0.55350 0.49442 0.03875 0.21200
H 	H 	0.39888 0.49014 0.96336 0.17300
C 	C 	0.41303 0.36692 0.99426 0.31300
O 	O 	0.52955 0.60697 0.96544 -0.37400
C 	C 	0.47915 0.48233 0.14595 0.29900
C 	C 	0.58492 0.36340 0.98108 0.31000
C 	C 	0.53974 0.61507 0.01279 0.31400
C 	C 	0.48628 0.50484 0.85557 0.28500
C 	C 	0.36664 0.61857 0.01901 0.31200
O 	O 	0.45176 0.37950 0.95948 -0.33700
O 	O 	0.54327 0.34281 0.01103 -0.36000
Ni	Ni	0.49395 0.54312 0.54083 1.11100
O 	O 	0.56086 0.48808 0.52886 -0.70300
Ni	Ni	0.55479 0.47460 0.45484 1.10600
O 	O 	0.50529 0.54316 0.61643 -0.30600
O 	O 	0.49956 0.43983 0.62197 -0.35300
O 	O 	0.55013 0.61902 0.54208 -0.33800
Ni	Ni	0.54600 0.40915 0.56132 1.07600
O 	O 	0.46374 0.66031 0.48805 -0.34900
O 	O 	0.46573 0.39390 0.53054 -0.37500
O 	O 	0.62316 0.42055 0.44883 -0.34200
O 	O 	0.48649 0.52873 0.46673 -0.69600
O 	O 	0.42587 0.59744 0.54787 -0.31400
O 	O 	0.54742 0.47492 0.37877 -0.30900
O 	O 	0.53628 0.57616 0.36996 -0.36500
Ni	Ni	0.49906 0.60825 0.43436 1.09700
H 	H 	0.59909 0.50674 0.53841 0.17400
H 	H 	0.44840 0.50935 0.45778 0.22100
C 	C 	0.45763 0.38605 0.48288 0.31600
O 	O 	0.58081 0.62018 0.46162 -0.39700
C 	C 	0.50739 0.49333 0.64292 0.28500
C 	C 	0.63086 0.37895 0.48281 0.31200
C 	C 	0.59076 0.63102 0.50870 0.31100
C 	C 	0.52745 0.52049 0.35362 0.29900
C 	C 	0.41924 0.64083 0.51529 0.31100
O 	O 	0.50017 0.39790 0.45148 -0.32500
O 	O 	0.58652 0.35797 0.50981 -0.39300
C 	C 	0.44433 0.51330 0.77160 0.04800
C 	C 	0.49177 0.49974 0.80134 0.00900
C 	C 	0.54514 0.48580 0.77899 -0.08700
C 	C 	0.54899 0.48373 0.72690 0.04800
C 	C 	0.50162 0.49747 0.69718 0.00800
C 	C 	0.44824 0.51138 0.71952 -0.08700
C 	C 	0.39618 0.52650 0.68802 0.77900
H 	H 	0.40440 0.52570 0.78924 0.07100
H 	H 	0.58891 0.47129 0.70926 0.06900
C 	C 	0.59731 0.47095 0.81046 0.77800
F 	F 	0.34647 0.53016 0.71642 -0.43300
F 	F 	0.38544 0.48223 0.65241 -0.43100
F 	F 	0.40697 0.58179 0.66490 -0.43400
F 	F 	0.58680 0.41561 0.83357 -0.42500
F 	F 	0.60791 0.51527 0.84606 -0.43100
F 	F 	0.64702 0.46756 0.78202 -0.43400
C 	C 	0.45630 0.46347 0.23460 0.05700
C 	C 	0.49233 0.49211 0.19888 0.00400
C 	C 	0.54020 0.53013 0.21397 -0.09600
C 	C 	0.54988 0.54017 0.26493 0.05700
C 	C 	0.51391 0.51139 0.30066 0.00600
C 	C 	0.46574 0.47378 0.28553 -0.09500
C 	C 	0.42547 0.44307 0.32353 0.77900
H 	H 	0.42047 0.43355 0.22252 0.08800
H 	H 	0.58584 0.56988 0.27702 0.08800
C 	C 	0.58003 0.56130 0.17587 0.77900
F 	F 	0.37530 0.41877 0.30167 -0.43800
F 	F 	0.40936 0.48436 0.35901 -0.46600
F 	F 	0.45349 0.39667 0.34641 -0.44000
F 	F 	0.55099 0.60640 0.15220 -0.43900
F 	F 	0.59745 0.51987 0.14101 -0.47300
F 	F 	0.62945 0.58740 0.19772 -0.43900
C 	C 	0.26310 0.73852 0.51947 -0.00700
C 	C 	0.28285 0.70944 0.56240 0.15200
C 	C 	0.33493 0.67966 0.56109 -0.02400
C 	C 	0.36618 0.67560 0.51653 -0.08000
C 	C 	0.34477 0.70230 0.47298 0.20100
C 	C 	0.29469 0.73528 0.47517 -0.08500
H 	H 	0.35054 0.65869 0.59459 0.13400
H 	H 	0.27928 0.75699 0.44190 0.09200
Cl	Cl	0.24120 0.70688 0.61727 -0.26900
Cl	Cl	0.37698 0.69051 0.41461 -0.33500
C 	C 	0.74378 0.74455 0.52840 -0.00700
C 	C 	0.74803 0.68220 0.51882 0.14600
C 	C 	0.69771 0.64437 0.51583 -0.02900
C 	C 	0.64296 0.66810 0.52253 -0.09500
C 	C 	0.63896 0.72982 0.53489 0.20000
C 	C 	0.68932 0.76766 0.53784 -0.08900
H 	H 	0.70108 0.59686 0.50668 0.08200
H 	H 	0.68593 0.81545 0.54589 0.09200
Cl	Cl	0.81607 0.65119 0.50940 -0.28500
Cl	Cl	0.57098 0.76113 0.54408 -0.27800
C 	C 	0.68459 0.34592 0.48218 -0.10500
C 	C 	0.73899 0.37749 0.48522 0.19800
C 	C 	0.78981 0.34564 0.48279 -0.09100
C 	C 	0.78694 0.28240 0.47799 -0.00700
C 	C 	0.73262 0.25069 0.47608 0.14200
C 	C 	0.68176 0.28253 0.47799 -0.02300
H 	H 	0.83160 0.37004 0.48493 0.09400
H 	H 	0.64002 0.25802 0.47583 0.08800
Cl	Cl	0.74409 0.45665 0.49421 -0.32000
Cl	Cl	0.72774 0.17097 0.47198 -0.30200
C 	C 	0.30561 0.27445 0.45341 -0.00300
C 	C 	0.36008 0.25654 0.43683 0.15100
C 	C 	0.40928 0.29555 0.44288 -0.00900
C 	C 	0.40471 0.35213 0.46598 -0.07300
C 	C 	0.34960 0.37155 0.47944 0.20800
C 	C 	0.30043 0.33271 0.47315 -0.08000
H 	H 	0.45144 0.28063 0.43182 0.10200
H 	H 	0.25836 0.34724 0.48485 0.09700
Cl	Cl	0.36767 0.18445 0.41032 -0.28300
Cl	Cl	0.34159 0.44433 0.50464 -0.28300
C 	C 	0.21166 0.71649 0.02807 -0.00700
C 	C 	0.26628 0.74747 0.03071 0.14200
C 	C 	0.31675 0.71509 0.02797 -0.02300
C 	C 	0.31324 0.65187 0.02235 -0.10200
C 	C 	0.25854 0.62091 0.01956 0.19700
C 	C 	0.20809 0.65331 0.02266 -0.09000
H 	H 	0.35873 0.73908 0.03028 0.08900
H 	H 	0.16605 0.62946 0.02021 0.09500
Cl	Cl	0.27201 0.82699 0.03669 -0.29900
Cl	Cl	0.25261 0.54189 0.00991 -0.31600
C 	C 	0.59337 0.64889 0.02798 -0.07600
C 	C 	0.64787 0.62915 0.01307 0.20700
C 	C 	0.69750 0.66737 0.01883 -0.08000
C 	C 	0.69338 0.72551 0.03911 -0.00200
C 	C 	0.63948 0.74393 0.05666 0.15100
C 	C 	0.58988 0.70535 0.05146 -0.00800
H 	H 	0.73913 0.65250 0.00630 0.09800
H 	H 	0.54817 0.72055 0.06347 0.10200
Cl	Cl	0.65453 0.55679 0.98665 -0.29200
Cl	Cl	0.63294 0.81630 0.08298 -0.28200
C 	C 	0.74160 0.26848 0.97797 -0.00800
C 	C 	0.74297 0.33079 0.98924 0.15200
C 	C 	0.69154 0.36171 0.98917 -0.02900
C 	C 	0.63873 0.33110 0.97750 -0.08200
C 	C 	0.63786 0.26967 0.96342 0.20300
C 	C 	0.68913 0.23849 0.96427 -0.08600
H 	H 	0.69250 0.40942 0.99882 0.09800
H 	H 	0.68818 0.19083 0.95450 0.09100
Cl	Cl	0.80892 0.37075 0.00286 -0.28100
Cl	Cl	0.57351 0.23205 0.94240 -0.24500
C 	C 	0.36176 0.32756 0.98249 -0.09300
C 	C 	0.36441 0.26406 0.98559 0.20200
C 	C 	0.31344 0.22728 0.98313 -0.08900
C 	C 	0.25955 0.25328 0.97815 -0.00600
C 	C 	0.25704 0.31660 0.97299 0.14600
C 	C 	0.30812 0.35341 0.97507 -0.02700
H 	H 	0.31558 0.17854 0.98670 0.09400
H 	H 	0.30585 0.40224 0.97266 0.07500
Cl	Cl	0.43104 0.23018 0.99500 -0.26900
Cl	Cl	0.19004 0.35049 0.96556 -0.28100
