data_crystal

_cell_length_a 26.18784
_cell_length_b 26.57131
_cell_length_c 40.01718
_cell_angle_alpha 95.50137
_cell_angle_beta  95.49441
_cell_angle_gamma 125.73996

_symmetry_space_group_name_	'P 1'
_symmetry_space_group_name_H-M	'P 1'

loop_
_symmetry_equiv_pos_as_xyz
  x,y,z

loop_
_atom_site_label
_atom_site_type_symbol
_atom_site_fract_x
_atom_site_fract_y
_atom_site_fract_z
_atom_site_charge
C 	C 	0.99256 0.05731 0.99059 0.23500
C 	C 	0.05715 0.09099 0.98758 -0.12600
C 	C 	0.08599 0.06016 0.98567 0.23800
H 	H 	0.08497 0.14104 0.98704 0.15800
C 	C 	0.97059 0.00166 0.46452 -0.15600
H 	H 	0.99673 0.05146 0.46362 0.15900
Cu	Cu	0.67177 0.27682 0.00933 0.94000
Cu	Cu	0.71310 0.27235 0.93479 0.90000
Cu	Cu	0.70466 0.37402 0.96384 0.91400
Cu	Cu	0.67646 0.39583 0.03237 0.91700
C 	C 	0.69742 0.32794 0.08076 0.29700
O 	O 	0.57966 0.24149 0.01105 -0.31000
C 	C 	0.67391 0.32498 0.88928 0.29900
O 	O 	0.72431 0.37466 0.01125 -0.63800
O 	O 	0.65911 0.28114 0.96046 -0.63200
O 	O 	0.70880 0.22941 0.00605 -0.31900
O 	O 	0.77589 0.29021 0.97167 -0.38700
O 	O 	0.66887 0.35401 0.07249 -0.34000
O 	O 	0.75380 0.46487 0.97029 -0.33500
C 	C 	0.74983 0.50076 0.99350 0.40300
C 	C 	0.55417 0.26792 0.99880 0.37900
O 	O 	0.59145 0.32652 0.99427 -0.34200
O 	O 	0.71183 0.47712 0.01611 -0.33100
O 	O 	0.69738 0.28882 0.05765 -0.32300
C 	C 	0.76046 0.25085 0.99289 0.39500
O 	O 	0.69944 0.37420 0.91425 -0.34300
O 	O 	0.66951 0.27444 0.89456 -0.37500
H 	H 	0.77065 0.40157 0.02113 0.20500
H 	H 	0.61391 0.25559 0.94856 0.20600
Cu	Cu	0.70410 0.30184 0.45768 0.93800
Cu	Cu	0.71040 0.26339 0.53265 0.90000
Cu	Cu	0.60444 0.26729 0.50290 0.91400
Cu	Cu	0.57917 0.29075 0.43242 0.91800
C 	C 	0.66577 0.29410 0.38701 0.30000
O 	O 	0.74071 0.39285 0.45569 -0.32100
C 	C 	0.65494 0.30045 0.57742 0.29800
O 	O 	0.60445 0.24817 0.45556 -0.63500
O 	O 	0.69905 0.31452 0.50636 -0.63300
O 	O 	0.75155 0.26438 0.46073 -0.32000
O 	O 	0.69130 0.20008 0.49627 -0.38600
O 	O 	0.61071 0.28438 0.38969 -0.34100
O 	O 	0.51200 0.21639 0.49629 -0.33300
C 	C 	0.47552 0.21943 0.47266 0.40200
C 	C 	0.70989 0.41628 0.46317 0.38100
O 	O 	0.65060 0.37883 0.46770 -0.34200
O 	O 	0.50045 0.26054 0.45197 -0.32900
O 	O 	0.69270 0.27885 0.40940 -0.32700
C 	C 	0.72989 0.21389 0.47436 0.39400
O 	O 	0.60439 0.27256 0.55249 -0.34400
O 	O 	0.70720 0.30651 0.57241 -0.37500
H 	H 	0.57908 0.20242 0.44623 0.20900
H 	H 	0.72360 0.35923 0.51776 0.20600
C 	C 	0.65869 0.33018 0.85390 -0.05800
C 	C 	0.61028 0.27580 0.82998 0.03400
C 	C 	0.60290 0.27855 0.79529 -0.04600
C 	C 	0.64370 0.33561 0.78424 0.06000
C 	C 	0.68939 0.39076 0.80825 -0.04500
C 	C 	0.69681 0.38815 0.84299 0.03400
C 	C 	0.64358 0.33603 0.74827 0.01400
C 	C 	0.64294 0.33569 0.71808 0.01400
C 	C 	0.64341 0.33394 0.68203 0.06000
C 	C 	0.58781 0.28731 0.65822 -0.04500
C 	C 	0.59067 0.27857 0.62360 0.03300
C 	C 	0.64940 0.31626 0.61261 -0.05800
C 	C 	0.70421 0.36533 0.63627 0.03400
C 	C 	0.70119 0.37403 0.67085 -0.04600
H 	H 	0.57965 0.23105 0.83813 0.07100
H 	H 	0.56699 0.23584 0.77689 0.08600
H 	H 	0.72079 0.43517 0.79991 0.08900
H 	H 	0.73404 0.43059 0.86116 0.07800
H 	H 	0.54287 0.25633 0.66666 0.08900
H 	H 	0.54789 0.24079 0.60563 0.07700
H 	H 	0.74952 0.39558 0.62804 0.07000
H 	H 	0.74428 0.41054 0.68908 0.08600
C 	C 	0.71429 0.32962 0.11727 -0.05300
C 	C 	0.74079 0.38492 0.14124 0.03400
C 	C 	0.74709 0.38401 0.17622 -0.04400
C 	C 	0.72699 0.32790 0.18751 0.06200
C 	C 	0.70405 0.27357 0.16374 -0.04300
C 	C 	0.69782 0.27439 0.12871 0.03900
C 	C 	0.72311 0.32433 0.22296 0.01800
C 	C 	0.72021 0.32228 0.25275 0.01800
C 	C 	0.71460 0.32018 0.28812 0.06200
C 	C 	0.71373 0.27450 0.30349 -0.04300
C 	C 	0.70051 0.26760 0.33652 0.03800
C 	C 	0.68764 0.30614 0.35422 -0.05000
C 	C 	0.69096 0.35337 0.33924 0.04000
C 	C 	0.70447 0.36039 0.30634 -0.04100
H 	H 	0.75467 0.42808 0.13275 0.06300
H 	H 	0.76543 0.42637 0.19447 0.08900
H 	H 	0.68881 0.23011 0.17230 0.09200
H 	H 	0.67760 0.23144 0.11052 0.08500
H 	H 	0.72165 0.24331 0.28957 0.09100
H 	H 	0.69813 0.23099 0.34782 0.07900
H 	H 	0.68187 0.38384 0.35285 0.07900
H 	H 	0.70538 0.39601 0.29468 0.09300
C 	C 	0.78336 0.51979 0.44508 0.31400
C 	C 	0.74223 0.48493 0.46724 -0.20600
C 	C 	0.72789 0.51486 0.49144 0.31500
F 	F 	0.69051 0.48274 0.51402 -0.36900
F 	F 	0.79703 0.49152 0.42124 -0.37300
C 	C 	0.83416 0.04472 0.43131 0.25700
C 	C 	0.81896 0.06126 0.46114 -0.01000
C 	C 	0.82813 0.04250 0.49141 0.25400
C 	C 	0.85390 0.00889 0.49208 0.27900
C 	C 	0.85995 0.01110 0.43198 0.28100
C 	C 	0.79543 0.10001 0.46103 0.00700
F 	F 	0.81324 0.05799 0.52033 -0.33400
C 	C 	0.72974 0.07135 0.45833 0.23400
C 	C 	0.70796 0.10848 0.46112 0.31800
C 	C 	0.75179 0.17468 0.46672 -0.21000
C 	C 	0.81732 0.20318 0.46806 0.31600
C 	C 	0.83901 0.16596 0.46525 0.23300
F 	F 	0.68713 0.00753 0.45356 -0.32600
F 	F 	0.86029 0.26703 0.47356 -0.36400
F 	F 	0.64430 0.08019 0.45863 -0.36300
F 	F 	0.90260 0.19404 0.46759 -0.32800
F 	F 	0.82472 0.06197 0.40183 -0.32700
C 	C 	0.31309 0.18293 0.47375 0.23600
C 	C 	0.27481 0.11743 0.47226 0.00600
C 	C 	0.30282 0.08571 0.47188 0.23600
C 	C 	0.36864 0.11919 0.47257 0.31800
C 	C 	0.40684 0.18462 0.47350 -0.20300
C 	C 	0.37885 0.21645 0.47442 0.32100
C 	C 	0.20532 0.08202 0.47089 -0.00400
F 	F 	0.26609 0.02234 0.47051 -0.32700
F 	F 	0.41556 0.27998 0.47641 -0.35200
C 	C 	0.16425 0.06387 0.43966 0.24800
C 	C 	0.09823 0.02989 0.43832 0.30000
C 	C 	0.07286 0.01378 0.46818 -0.17100
C 	C 	0.11403 0.03257 0.49947 0.30000
C 	C 	0.18004 0.06660 0.50082 0.24800
F 	F 	0.18837 0.07877 0.41061 -0.32500
F 	F 	0.08991 0.01744 0.52850 -0.34100
F 	F 	0.05874 0.01175 0.40795 -0.34200
F 	F 	0.21950 0.08451 0.53116 -0.32800
F 	F 	0.28647 0.21406 0.47460 -0.32300
F 	F 	0.39507 0.08789 0.47154 -0.36500
C 	C 	0.84873 0.60610 0.99052 0.31900
C 	C 	0.78312 0.56784 0.99175 -0.20400
C 	C 	0.74955 0.59412 0.99167 0.32200
F 	F 	0.68576 0.55728 0.99193 -0.35300
F 	F 	0.88179 0.58140 0.99089 -0.36600
C 	C 	0.89812 0.23985 0.00479 0.23300
C 	C 	0.86537 0.17433 0.00088 0.00800
C 	C 	0.79842 0.13445 0.99721 0.23100
C 	C 	0.76416 0.15965 0.99607 0.31600
C 	C 	0.79671 0.22509 0.99861 -0.21300
C 	C 	0.86398 0.26518 0.00372 0.31900
C 	C 	0.90073 0.14718 0.99867 -0.00800
F 	F 	0.76645 0.07104 0.99374 -0.32800
F 	F 	0.89615 0.32864 0.00734 -0.36300
C 	C 	0.91834 0.13101 0.02768 0.25300
C 	C 	0.94927 0.10253 0.02516 0.29600
C 	C 	0.96273 0.08999 0.99359 -0.15800
C 	C 	0.94598 0.10705 0.96470 0.29300
C 	C 	0.91508 0.13555 0.96723 0.24900
F 	F 	0.90498 0.14248 0.05822 -0.32500
F 	F 	0.96591 0.08678 0.05331 -0.33800
F 	F 	0.89825 0.15111 0.93906 -0.33500
F 	F 	0.96300 0.27882 0.00901 -0.32500
F 	F 	0.69920 0.12026 0.99096 -0.36500
C 	C 	0.38897 0.21984 0.96458 0.23700
C 	C 	0.35281 0.17882 0.98625 0.00400
C 	C 	0.38183 0.16351 0.01037 0.23500
C 	C 	0.44720 0.19128 0.01393 0.31700
C 	C 	0.48402 0.23374 0.99285 -0.20300
C 	C 	0.45409 0.24659 0.96755 0.31400
C 	C 	0.28496 0.15316 0.98439 -0.00700
F 	F 	0.34677 0.12252 0.03080 -0.32600
F 	F 	0.48813 0.28500 0.94587 -0.37000
C 	C 	0.23858 0.10712 0.95635 0.25100
C 	C 	0.17371 0.07906 0.95594 0.29300
C 	C 	0.15460 0.09586 0.98393 -0.15700
C 	C 	0.20119 0.14339 0.01148 0.29500
C 	C 	0.26613 0.17236 0.01153 0.25100
F 	F 	0.25633 0.08850 0.92989 -0.32500
F 	F 	0.18336 0.15993 0.03870 -0.34500
F 	F 	0.12921 0.03458 0.92870 -0.34200
F 	F 	0.31079 0.21810 0.03832 -0.32500
F 	F 	0.36116 0.23446 0.94096 -0.32300
F 	F 	0.47519 0.17865 0.03870 -0.35900
C 	C 	0.75203 0.57796 0.49241 0.23500
C 	C 	0.79210 0.61233 0.46984 0.00500
C 	C 	0.80863 0.58333 0.44661 0.23300
C 	C 	0.81673 0.67872 0.47049 -0.00700
F 	F 	0.84862 0.61661 0.42525 -0.32900
C 	C 	0.86168 0.72572 0.49863 0.25000
C 	C 	0.88702 0.78889 0.49862 0.29500
C 	C 	0.82253 0.75863 0.44238 0.29500
C 	C 	0.79615 0.69526 0.44271 0.25000
F 	F 	0.88175 0.71028 0.52567 -0.32300
F 	F 	0.80462 0.77437 0.41466 -0.34700
F 	F 	0.75135 0.64998 0.41581 -0.32800
F 	F 	0.73594 0.60558 0.51505 -0.32200
C 	C 	0.78152 0.65820 0.99077 0.23600
C 	C 	0.84718 0.69649 0.98990 0.00700
C 	C 	0.88065 0.67023 0.98965 0.23500
C 	C 	0.88098 0.76418 0.98946 -0.00600
F 	F 	0.94424 0.70705 0.98887 -0.32700
C 	C 	0.90143 0.80697 0.02001 0.25100
C 	C 	0.89301 0.78609 0.95851 0.25000
F 	F 	0.88987 0.78612 0.05003 -0.32400
F 	F 	0.87286 0.74491 0.92882 -0.32800
F 	F 	0.74870 0.68315 0.99064 -0.32200
F 	F 	0.95873 0.09502 0.93407 -0.34900
C 	C 	0.86888 0.80586 0.47010 -0.15900
F 	F 	0.93043 0.83392 0.52598 -0.33900
C 	C 	0.93434 0.87137 0.01966 0.29700
C 	C 	0.92601 0.85049 0.95818 0.29700
F 	F 	0.93789 0.87138 0.92818 -0.34000
C 	C 	0.94710 0.89338 0.98878 -0.16100
F 	F 	0.95472 0.91258 0.04938 -0.33800
C 	C 	0.90345 0.87319 0.46775 0.25100
H 	H 	0.82001 0.87205 0.46621 0.16200
H 	H 	0.99448 0.88920 0.46867 0.15900
C 	C 	0.87095 0.90049 0.46601 -0.13500
C 	C 	0.98501 0.96150 0.98869 0.24500
C 	C 	0.96936 0.91025 0.46757 -0.14400
H 	H 	0.90634 0.96626 0.99292 0.15600
H 	H 	0.07217 0.97162 0.98528 0.15700
C 	C 	0.90447 0.96471 0.46415 0.25500
C 	C 	0.00307 0.97454 0.46644 0.26900
C 	C 	0.95645 0.99247 0.99092 -0.12500
F 	F 	0.87544 0.99617 0.40314 -0.33100
C 	C 	0.87073 0.99381 0.46249 -0.14300
F 	F 	0.86420 0.99248 0.52170 -0.34000
C 	C 	0.04984 0.99545 0.98638 -0.12700
