data_crystal

_cell_length_a 38.67867
_cell_length_b 44.43839
_cell_length_c 32.94680
_cell_angle_alpha 89.98914
_cell_angle_beta  91.80098
_cell_angle_gamma 90.00030

_symmetry_space_group_name_	'P 1'
_symmetry_space_group_name_H-M	'P 1'

loop_
_symmetry_equiv_pos_as_xyz
  x,y,z

loop_
_atom_site_label
_atom_site_type_symbol
_atom_site_fract_x
_atom_site_fract_y
_atom_site_fract_z
_atom_site_charge
C 	C 	0.84155 0.16073 0.89424 -0.00200
C 	C 	0.85561 0.17582 0.92830 -0.02700
C 	C 	0.83493 0.18222 0.96124 -0.07000
C 	C 	0.79992 0.17339 0.96045 0.07900
C 	C 	0.78572 0.15922 0.92580 -0.06800
C 	C 	0.80640 0.15290 0.89283 -0.02600
N 	N 	0.77904 0.17684 0.99573 -0.14200
C 	C 	0.72061 0.25774 0.00264 -0.00300
C 	C 	0.70639 0.23015 0.01433 -0.02400
C 	C 	0.72591 0.20378 0.01235 -0.07100
C 	C 	0.75988 0.20464 0.99879 0.08200
C 	C 	0.77448 0.23249 0.98801 -0.07200
C 	C 	0.75483 0.25884 0.98979 -0.02200
C 	C 	0.82743 0.14249 0.10373 -0.00000
C 	C 	0.82913 0.17339 0.09528 -0.02600
C 	C 	0.81282 0.18498 0.06019 -0.07000
C 	C 	0.79472 0.16565 0.03310 0.07700
C 	C 	0.79281 0.13485 0.04191 -0.06800
C 	C 	0.80905 0.12331 0.07704 -0.02600
H 	H 	0.88265 0.18222 0.92946 0.03700
H 	H 	0.84615 0.19372 0.98741 0.04900
H 	H 	0.75881 0.15245 0.92488 0.05100
H 	H 	0.79532 0.14131 0.86659 0.03800
H 	H 	0.68010 0.22912 0.02470 0.03700
H 	H 	0.71458 0.18254 0.02102 0.05100
H 	H 	0.80098 0.23382 0.97873 0.04900
H 	H 	0.76611 0.28008 0.98093 0.03700
H 	H 	0.84325 0.18836 0.11577 0.03700
H 	H 	0.81495 0.20874 0.05360 0.04800
H 	H 	0.77897 0.11984 0.02124 0.05000
H 	H 	0.80764 0.09942 0.08334 0.03700
C 	C 	0.36117 0.82155 0.00862 -0.00200
C 	C 	0.32856 0.82738 0.99047 -0.02400
C 	C 	0.31440 0.85627 0.99197 -0.06800
C 	C 	0.33288 0.87974 0.01158 0.07700
C 	C 	0.36559 0.87389 0.02931 -0.06800
C 	C 	0.37967 0.84494 0.02795 -0.02600
N 	N 	0.31868 0.90975 0.01378 -0.14300
C 	C 	0.26168 0.92992 0.11886 -0.00100
C 	C 	0.28533 0.95074 0.10380 -0.02600
C 	C 	0.30395 0.94390 0.06930 -0.06800
C 	C 	0.29921 0.91620 0.04955 0.07800
C 	C 	0.27547 0.89526 0.06480 -0.07100
C 	C 	0.25687 0.90215 0.09927 -0.02600
C 	C 	0.27722 0.94273 0.90107 -0.00100
C 	C 	0.25494 0.93117 0.93003 -0.02500
C 	C 	0.26827 0.92030 0.96711 -0.07100
C 	C 	0.30418 0.92121 0.97584 0.08000
C 	C 	0.32633 0.93294 0.94691 -0.06800
C 	C 	0.31298 0.94357 0.90968 -0.02600
H 	H 	0.31413 0.80949 0.97537 0.03700
H 	H 	0.28898 0.86031 0.97844 0.04800
H 	H 	0.37999 0.89179 0.04438 0.05100
H 	H 	0.40481 0.84063 0.04219 0.03700
H 	H 	0.28911 0.97228 0.11867 0.03800
H 	H 	0.32208 0.96013 0.05780 0.05100
H 	H 	0.27076 0.87409 0.04950 0.04800
H 	H 	0.23859 0.88597 0.11066 0.03700
H 	H 	0.22729 0.93048 0.92371 0.03700
H 	H 	0.25081 0.91066 0.98855 0.05000
H 	H 	0.35395 0.93363 0.95326 0.05200
H 	H 	0.33042 0.95227 0.88742 0.03700
Zn	Zn	0.47182 0.50589 0.01026 1.20300
Zn	Zn	0.51929 0.53688 0.94731 1.21900
Zn	Zn	0.52840 0.52594 0.07459 1.21900
P 	P 	0.49393 0.56852 0.01903 0.30700
P 	P 	0.54452 0.48965 0.00273 0.30600
C 	C 	0.57398 0.55771 0.12662 0.28400
C 	C 	0.46462 0.49304 0.09406 0.30500
C 	C 	0.45320 0.50649 0.92614 0.30600
O 	O 	0.46257 0.54870 0.00223 -0.44100
O 	O 	0.50922 0.47684 0.01876 -0.44100
O 	O 	0.52786 0.56256 0.99387 -0.43200
O 	O 	0.55701 0.51825 0.02861 -0.43200
O 	O 	0.50033 0.56165 0.06631 -0.41200
O 	O 	0.53976 0.49746 0.95549 -0.41000
O 	O 	0.55344 0.53417 0.12497 -0.41800
O 	O 	0.59224 0.54232 0.92613 -0.24900
O 	O 	0.57747 0.57438 0.09406 -0.25000
O 	O 	0.49877 0.49173 0.09378 -0.44000
O 	O 	0.46975 0.53253 0.92717 -0.43800
O 	O 	0.44684 0.50000 0.06058 -0.43700
O 	O 	0.45190 0.48987 0.95919 -0.43500
C 	C 	0.57279 0.55157 0.89518 0.28500
O 	O 	0.53896 0.55088 0.89754 -0.41800
C 	C 	0.19869 0.32927 0.51407 -0.00000
C 	C 	0.23399 0.33114 0.52496 -0.02600
C 	C 	0.25172 0.35829 0.52076 -0.07000
C 	C 	0.23430 0.38390 0.50530 0.07900
C 	C 	0.19904 0.38195 0.49452 -0.06800
C 	C 	0.18128 0.35479 0.49889 -0.02600
N 	N 	0.25201 0.41231 0.50107 -0.14300
C 	C 	0.29924 0.42916 0.38824 -0.00100
C 	C 	0.28148 0.45210 0.40813 -0.02600
C 	C 	0.26587 0.44628 0.44501 -0.06800
C 	C 	0.26787 0.41755 0.46250 0.07800
C 	C 	0.28570 0.39449 0.44244 -0.07100
C 	C 	0.30114 0.40032 0.40547 -0.02600
C 	C 	0.30991 0.43910 0.60693 -0.00000
C 	C 	0.32666 0.42472 0.57515 -0.02600
C 	C 	0.30793 0.41603 0.54013 -0.07000
C 	C 	0.27209 0.42166 0.53659 0.07900
C 	C 	0.25550 0.43614 0.56837 -0.06800
C 	C 	0.27428 0.44483 0.60337 -0.02600
H 	H 	0.24773 0.31149 0.53638 0.03700
H 	H 	0.27900 0.35930 0.52889 0.04800
H 	H 	0.18541 0.40155 0.48281 0.05100
H 	H 	0.15400 0.35359 0.49053 0.03700
H 	H 	0.28003 0.47449 0.39517 0.03800
H 	H 	0.25232 0.46415 0.46021 0.05100
H 	H 	0.28834 0.37239 0.45579 0.04900
H 	H 	0.31481 0.38247 0.39034 0.03700
H 	H 	0.35413 0.42001 0.57776 0.03700
H 	H 	0.32106 0.40435 0.51629 0.04900
H 	H 	0.22798 0.44054 0.56593 0.05100
H 	H 	0.26115 0.45602 0.62770 0.03800
C 	C 	0.74457 0.65247 0.62696 -0.00000
C 	C 	0.72645 0.66944 0.59734 -0.02500
C 	C 	0.74352 0.68047 0.56368 -0.07000
C 	C 	0.77890 0.67422 0.55901 0.07900
C 	C 	0.79724 0.65843 0.58954 -0.06800
C 	C 	0.78023 0.64769 0.62343 -0.02600
N 	N 	0.79585 0.68158 0.52183 -0.14300
C 	C 	0.84651 0.76652 0.51725 -0.00000
C 	C 	0.86124 0.74096 0.49976 -0.02600
C 	C 	0.84439 0.71320 0.50143 -0.06800
C 	C 	0.81260 0.71064 0.52041 0.07800
C 	C 	0.79757 0.73642 0.53753 -0.07000
C 	C 	0.81457 0.76415 0.53606 -0.02600
C 	C 	0.73574 0.65283 0.41876 -0.00000
C 	C 	0.73560 0.68327 0.43006 -0.02600
C 	C 	0.75600 0.69312 0.46320 -0.07000
C 	C 	0.77697 0.67254 0.48530 0.07900
C 	C 	0.77780 0.64233 0.47312 -0.06800
C 	C 	0.75722 0.63248 0.44014 -0.02600
H 	H 	0.69898 0.67346 0.59990 0.03700
H 	H 	0.72917 0.69332 0.54092 0.04800
H 	H 	0.82450 0.65378 0.58639 0.05100
H 	H 	0.79458 0.63505 0.64649 0.03700
H 	H 	0.88574 0.74262 0.48486 0.03800
H 	H 	0.85604 0.69357 0.48798 0.05100
H 	H 	0.77263 0.73517 0.55129 0.04900
H 	H 	0.80295 0.78378 0.54957 0.03700
H 	H 	0.71927 0.69920 0.41355 0.03700
H 	H 	0.75462 0.71643 0.47246 0.04900
H 	H 	0.79385 0.62636 0.48991 0.05100
H 	H 	0.75750 0.60893 0.43165 0.03800
Zn	Zn	0.10697 0.01455 0.50826 1.20400
Zn	Zn	0.05425 0.04115 0.56935 1.21900
Zn	Zn	0.04904 0.02743 0.44204 1.21900
P 	P 	0.07613 0.07421 0.49693 0.30700
P 	P 	0.03675 0.99093 0.51492 0.30800
C 	C 	0.99322 0.04403 0.39003 0.28200
C 	C 	0.11744 0.00136 0.42529 0.30400
C 	C 	0.12317 0.01739 0.59265 0.30600
O 	O 	0.10975 0.05813 0.51514 -0.43900
O 	O 	0.07393 0.98168 0.50025 -0.43900
O 	O 	0.04290 0.06516 0.52180 -0.43300
O 	O 	0.02094 0.01760 0.48773 -0.42700
O 	O 	0.07150 0.06603 0.44977 -0.41800
O 	O 	0.03923 0.99984 0.56199 -0.41100
O 	O 	0.02412 0.03175 0.39061 -0.41800
O 	O 	0.98093 0.03860 0.59205 -0.24800
O 	O 	0.97927 0.05169 0.42438 -0.24600
O 	O 	0.08374 0.99635 0.42489 -0.43700
O 	O 	0.10379 0.04184 0.59024 -0.43900
O 	O 	0.13345 0.01082 0.45878 -0.43700
O 	O 	0.12838 0.00123 0.55991 -0.43600
C 	C 	0.99931 0.05072 0.62201 0.28500
O 	O 	0.03288 0.05383 0.61875 -0.41900
C 	C 	0.96733 0.90713 0.50308 0.09600
C 	C 	0.99370 0.91190 0.47563 -0.07700
C 	C 	0.01408 0.93785 0.47840 0.00500
C 	C 	0.00862 0.95897 0.50915 -0.04000
C 	C 	0.98173 0.95458 0.53610 0.01000
C 	C 	0.96130 0.92866 0.53329 -0.07500
H 	H 	0.99861 0.89533 0.45242 0.06000
H 	H 	0.03441 0.94129 0.45701 0.04200
H 	H 	0.97699 0.97097 0.55961 0.05300
H 	H 	0.94131 0.92500 0.55505 0.06300
N 	N 	0.94903 0.87950 0.50230 -0.08600
N 	N 	0.91776 0.87860 0.51037 -0.08500
C 	C 	0.86472 0.79570 0.51619 0.00000
C 	C 	0.84900 0.82065 0.49705 -0.02500
C 	C 	0.86661 0.84809 0.49531 -0.06700
C 	C 	0.90019 0.85069 0.51210 0.08600
C 	C 	0.91571 0.82591 0.53187 -0.06400
C 	C 	0.89808 0.79852 0.53384 -0.02500
H 	H 	0.82327 0.81871 0.48333 0.03700
H 	H 	0.85433 0.86725 0.48054 0.05500
H 	H 	0.94133 0.82794 0.54584 0.05700
H 	H 	0.91027 0.77952 0.54912 0.03800
C 	C 	0.09895 0.17551 0.50624 0.09600
C 	C 	0.10604 0.15657 0.53971 -0.07500
C 	C 	0.09785 0.12596 0.53739 0.00600
C 	C 	0.08240 0.11410 0.50181 -0.04300
C 	C 	0.07353 0.13332 0.46936 0.01200
C 	C 	0.08176 0.16392 0.47164 -0.07900
H 	H 	0.11820 0.16547 0.56722 0.06200
H 	H 	0.10404 0.11140 0.56298 0.03700
H 	H 	0.06078 0.12454 0.44214 0.04600
H 	H 	0.07555 0.17851 0.44610 0.05900
N 	N 	0.10956 0.20607 0.50679 -0.08700
N 	N 	0.13539 0.21421 0.52760 -0.08500
C 	C 	0.18016 0.30042 0.51790 0.00000
C 	C 	0.17831 0.28632 0.55590 -0.02500
C 	C 	0.16264 0.25810 0.55912 -0.06700
C 	C 	0.14831 0.24393 0.52457 0.08500
C 	C 	0.14974 0.25821 0.48658 -0.06400
C 	C 	0.16552 0.28637 0.48331 -0.02600
H 	H 	0.18941 0.29705 0.58282 0.03800
H 	H 	0.16196 0.24707 0.58840 0.05400
H 	H 	0.13939 0.24716 0.45954 0.05700
H 	H 	0.16703 0.29696 0.45380 0.03800
C 	C 	0.34917 0.44816 0.27679 0.08400
C 	C 	0.31329 0.45150 0.27926 -0.06700
C 	C 	0.29695 0.44528 0.31559 -0.02500
C 	C 	0.31642 0.43550 0.34978 0.00100
C 	C 	0.35232 0.43179 0.34723 -0.02600
C 	C 	0.36862 0.43788 0.31086 -0.06300
H 	H 	0.29809 0.45903 0.25301 0.05300
H 	H 	0.26919 0.44797 0.31716 0.03700
H 	H 	0.36756 0.42421 0.37342 0.03700
H 	H 	0.39626 0.43449 0.30911 0.05700
N 	N 	0.36530 0.45431 0.23958 -0.08500
N 	N 	0.39648 0.46141 0.23907 -0.08900
C 	C 	0.44631 0.48347 0.13063 -0.09700
C 	C 	0.46403 0.46758 0.16179 0.03200
C 	C 	0.44722 0.45994 0.19729 -0.09300
C 	C 	0.41252 0.46773 0.20193 0.10400
C 	C 	0.39465 0.48351 0.17082 -0.08900
C 	C 	0.41142 0.49125 0.13530 0.03100
H 	H 	0.49087 0.46128 0.15865 0.03700
H 	H 	0.46122 0.44805 0.22133 0.06100
H 	H 	0.36801 0.49022 0.17448 0.06400
H 	H 	0.39749 0.50379 0.11182 0.03700
C 	C 	0.39445 0.48108 0.81901 0.10400
C 	C 	0.38573 0.46958 0.85690 -0.09300
C 	C 	0.40484 0.47779 0.89191 0.03500
C 	C 	0.43279 0.49785 0.88932 -0.09600
C 	C 	0.44129 0.50963 0.85132 0.03100
C 	C 	0.42211 0.50145 0.81640 -0.08800
H 	H 	0.36414 0.45422 0.85920 0.06100
H 	H 	0.39772 0.46874 0.92101 0.03600
H 	H 	0.46285 0.52502 0.84879 0.03400
H 	H 	0.42861 0.51104 0.78740 0.06500
N 	N 	0.37440 0.47298 0.78391 -0.08800
N 	N 	0.38760 0.47229 0.74985 -0.08500
C 	C 	0.32963 0.44792 0.64410 0.00000
C 	C 	0.35643 0.46910 0.64207 -0.02500
C 	C 	0.37537 0.47721 0.67722 -0.06700
C 	C 	0.36750 0.46449 0.71470 0.08500
C 	C 	0.34086 0.44305 0.71672 -0.06300
C 	C 	0.32193 0.43492 0.68157 -0.02600
H 	H 	0.36257 0.47925 0.61327 0.03800
H 	H 	0.39614 0.49346 0.67538 0.05400
H 	H 	0.33510 0.43251 0.74536 0.05700
H 	H 	0.30151 0.41832 0.68337 0.03800
C 	C 	0.62988 0.58122 0.23635 0.10300
C 	C 	0.62079 0.55119 0.22875 -0.09000
C 	C 	0.60195 0.54351 0.19330 0.02900
C 	C 	0.59246 0.56583 0.16488 -0.08600
C 	C 	0.60159 0.59594 0.17258 0.02800
C 	C 	0.62033 0.60357 0.20801 -0.08700
H 	H 	0.62845 0.53381 0.25024 0.06100
H 	H 	0.59532 0.52017 0.18762 0.03600
H 	H 	0.59426 0.61342 0.15106 0.03800
H 	H 	0.62782 0.62677 0.21321 0.06400
N 	N 	0.65038 0.58855 0.27135 -0.08800
N 	N 	0.64581 0.61271 0.28965 -0.08600
C 	C 	0.71251 0.64208 0.38546 0.00000
C 	C 	0.67657 0.64559 0.38793 -0.02500
C 	C 	0.65455 0.63544 0.35637 -0.06700
C 	C 	0.66819 0.62132 0.32244 0.08500
C 	C 	0.70416 0.61786 0.31985 -0.06400
C 	C 	0.72622 0.62814 0.35129 -0.02600
H 	H 	0.66572 0.65619 0.41427 0.03700
H 	H 	0.62688 0.63855 0.35826 0.05400
H 	H 	0.71499 0.60762 0.29326 0.05700
H 	H 	0.75394 0.62552 0.34895 0.03800
C 	C 	0.68880 0.61066 0.72208 0.08600
C 	C 	0.70891 0.59320 0.69650 -0.06700
C 	C 	0.72711 0.60683 0.66547 -0.02500
C 	C 	0.72584 0.63818 0.66027 0.00000
C 	C 	0.70608 0.65574 0.68634 -0.02600
C 	C 	0.68761 0.64202 0.71712 -0.06400
H 	H 	0.71026 0.56904 0.70055 0.05400
H 	H 	0.74207 0.59303 0.64535 0.03700
H 	H 	0.70514 0.67997 0.68282 0.03700
H 	H 	0.67269 0.65573 0.73736 0.05700
N 	N 	0.67153 0.59674 0.75430 -0.08600
N 	N 	0.64042 0.60220 0.75999 -0.08700
C 	C 	0.58897 0.56314 0.85844 -0.08600
C 	C 	0.57401 0.58732 0.83681 0.02900
C 	C 	0.59100 0.59992 0.80400 -0.09000
C 	C 	0.62298 0.58848 0.79250 0.10200
C 	C 	0.63732 0.56347 0.81319 -0.08600
C 	C 	0.62047 0.55103 0.84611 0.02800
H 	H 	0.54968 0.59683 0.84598 0.03500
H 	H 	0.57956 0.61888 0.78788 0.06100
H 	H 	0.66150 0.55377 0.80394 0.06500
H 	H 	0.63196 0.53202 0.86212 0.03700
C 	C 	0.17628 0.97804 0.32171 0.10400
C 	C 	0.19232 0.97918 0.36036 -0.09300
C 	C 	0.17313 0.98648 0.39426 0.03400
C 	C 	0.13765 0.99302 0.38970 -0.09500
C 	C 	0.12165 0.99214 0.35082 0.03000
C 	C 	0.14089 0.98480 0.31699 -0.08800
H 	H 	0.21967 0.97433 0.36413 0.06100
H 	H 	0.18583 0.98696 0.42402 0.03600
H 	H 	0.09446 0.99758 0.34671 0.03400
H 	H 	0.12842 0.98474 0.28709 0.06400
N 	N 	0.19630 0.97154 0.28748 -0.08900
N 	N 	0.18355 0.95732 0.25800 -0.08500
C 	C 	0.24165 0.93732 0.15488 0.00000
C 	C 	0.20560 0.94055 0.15134 -0.02500
C 	C 	0.18656 0.94732 0.18554 -0.06700
C 	C 	0.20336 0.95115 0.22345 0.08400
C 	C 	0.23947 0.94761 0.22712 -0.06300
C 	C 	0.25853 0.94088 0.19290 -0.02600
H 	H 	0.19236 0.93782 0.12210 0.03700
H 	H 	0.15872 0.94967 0.18258 0.05300
H 	H 	0.25269 0.94978 0.25643 0.05700
H 	H 	0.28632 0.93817 0.19598 0.03800
C 	C 	0.17312 0.99222 0.70540 0.10700
C 	C 	0.14078 0.00635 0.70503 -0.09400
C 	C 	0.12482 0.01516 0.66827 0.03300
C 	C 	0.14090 0.00944 0.63142 -0.10000
C 	C 	0.17336 0.99524 0.63179 0.03700
C 	C 	0.18939 0.98664 0.66863 -0.09200
H 	H 	0.12793 0.01036 0.73326 0.06300
H 	H 	0.09964 0.02584 0.66839 0.03100
H 	H 	0.18612 0.99080 0.60360 0.03500
H 	H 	0.21414 0.97524 0.66861 0.06500
N 	N 	0.18803 0.98177 0.74257 -0.08800
N 	N 	0.21924 0.98619 0.75110 -0.08500
C 	C 	0.26312 0.95368 0.86159 0.00100
C 	C 	0.26890 0.98352 0.84947 -0.02500
C 	C 	0.25468 0.99409 0.81260 -0.06600
C 	C 	0.23417 0.97513 0.78793 0.08500
C 	C 	0.22894 0.94512 0.79958 -0.06400
C 	C 	0.24336 0.93444 0.83626 -0.02600
H 	H 	0.28412 0.99855 0.86877 0.03800
H 	H 	0.25914 0.01715 0.80350 0.05400
H 	H 	0.21373 0.93014 0.78022 0.05700
H 	H 	0.23914 0.91126 0.84504 0.03800
C 	C 	0.46011 0.66750 0.00984 0.09400
C 	C 	0.48630 0.65898 0.03781 -0.07800
C 	C 	0.49739 0.62904 0.03977 0.01100
C 	C 	0.48248 0.60750 0.01351 -0.04400
C 	C 	0.45759 0.61634 0.98401 0.00500
C 	C 	0.44641 0.64624 0.98217 -0.07300
H 	H 	0.49746 0.67541 0.05866 0.06000
H 	H 	0.51717 0.62254 0.06207 0.05000
H 	H 	0.44661 0.60005 0.96284 0.04400
H 	H 	0.42694 0.65284 0.95956 0.06100
N 	N 	0.44750 0.69743 0.00982 -0.08700
N 	N 	0.41588 0.70250 0.00565 -0.08500
C 	C 	0.37564 0.79082 0.00810 -0.00100
C 	C 	0.35788 0.76702 0.02616 -0.02500
C 	C 	0.37140 0.73787 0.02539 -0.06700
C 	C 	0.40297 0.73230 0.00712 0.08300
C 	C 	0.42068 0.75606 0.98876 -0.06200
C 	C 	0.40710 0.78522 0.98936 -0.02400
H 	H 	0.33362 0.77112 0.04077 0.03700
H 	H 	0.35744 0.71959 0.03916 0.05500
H 	H 	0.44470 0.75186 0.97372 0.05700
H 	H 	0.42084 0.80339 0.97500 0.03800
C 	C 	0.94046 0.06930 0.27909 0.10200
C 	C 	0.97654 0.06663 0.28057 -0.09000
C 	C 	0.99382 0.05747 0.31642 0.02800
C 	C 	0.97502 0.05075 0.35108 -0.08500
C 	C 	0.93873 0.05216 0.34901 0.02700
C 	C 	0.92151 0.06123 0.31315 -0.08600
H 	H 	0.99125 0.07228 0.25419 0.06000
H 	H 	0.02181 0.05635 0.31751 0.03600
H 	H 	0.92387 0.04640 0.37524 0.03900
H 	H 	0.89352 0.06218 0.31191 0.06400
N 	N 	0.92339 0.07999 0.24319 -0.08800
N 	N 	0.89577 0.09435 0.24496 -0.08500
C 	C 	0.84522 0.13015 0.14026 0.00000
C 	C 	0.82597 0.11817 0.17183 -0.02500
C 	C 	0.84285 0.10610 0.20626 -0.06700
C 	C 	0.87904 0.10558 0.20922 0.08500
C 	C 	0.89836 0.11786 0.17780 -0.06400
C 	C 	0.88148 0.13000 0.14339 -0.02600
H 	H 	0.79796 0.11833 0.16973 0.03800
H 	H 	0.82783 0.09710 0.23065 0.05400
H 	H 	0.92634 0.11823 0.18023 0.05600
H 	H 	0.89655 0.13925 0.11919 0.03700
C 	C 	0.90391 0.13173 0.79669 0.08500
C 	C 	0.87929 0.15447 0.79026 -0.06700
C 	C 	0.85921 0.16430 0.82225 -0.02500
C 	C 	0.86399 0.15167 0.86106 0.00000
C 	C 	0.88945 0.12957 0.86782 -0.02600
C 	C 	0.90942 0.11970 0.83580 -0.06400
H 	H 	0.87528 0.16413 0.76030 0.05500
H 	H 	0.83979 0.18153 0.81683 0.03800
H 	H 	0.89343 0.11981 0.89773 0.03800
H 	H 	0.92900 0.10263 0.84128 0.05700
N 	N 	0.92314 0.12111 0.76372 -0.08500
N 	N 	0.92940 0.09374 0.76007 -0.08800
C 	C 	0.98220 0.06121 0.65875 -0.08700
C 	C 	0.95273 0.04624 0.67230 0.02900
C 	C 	0.93554 0.05697 0.70607 -0.09000
C 	C 	0.94728 0.08293 0.72619 0.10400
C 	C 	0.97721 0.09755 0.71333 -0.08800
C 	C 	0.99460 0.08673 0.67972 0.02800
H 	H 	0.94319 0.02629 0.65674 0.03700
H 	H 	0.91282 0.04532 0.71632 0.06200
H 	H 	0.98691 0.11725 0.72933 0.06400
H 	H 	0.01734 0.09846 0.66964 0.03500
C 	C 	0.62444 0.41318 0.01036 0.09400
C 	C 	0.62994 0.43800 0.98521 -0.07600
C 	C 	0.60626 0.46180 0.98394 0.01200
C 	C 	0.57707 0.46098 0.00811 -0.04300
C 	C 	0.57261 0.43692 0.03502 0.00300
C 	C 	0.59619 0.41307 0.03612 -0.07500
H 	H 	0.65206 0.43848 0.96586 0.06100
H 	H 	0.61028 0.48057 0.96365 0.05200
H 	H 	0.55067 0.43646 0.05464 0.04400
H 	H 	0.59232 0.39437 0.05657 0.06100
N 	N 	0.64705 0.38814 0.00914 -0.08700
N 	N 	0.63520 0.36205 0.00782 -0.08500
C 	C 	0.69934 0.28532 0.00288 -0.00100
C 	C 	0.66862 0.28690 0.97913 -0.02300
C 	C 	0.64772 0.31251 0.98052 -0.06500
C 	C 	0.65753 0.33692 0.00513 0.08300
C 	C 	0.68835 0.33547 0.02882 -0.06400
C 	C 	0.70921 0.30978 0.02760 -0.02600
H 	H 	0.66083 0.26820 0.95983 0.03800
H 	H 	0.62383 0.31339 0.96252 0.05500
H 	H 	0.69580 0.35399 0.04858 0.05700
H 	H 	0.73273 0.30870 0.04628 0.03700
