data_crystal

_cell_length_a 18.50662
_cell_length_b 18.82819
_cell_length_c 26.61106
_cell_angle_alpha 95.42206
_cell_angle_beta  95.42278
_cell_angle_gamma 126.41641

_symmetry_space_group_name_	'P 1'
_symmetry_space_group_name_H-M	'P 1'

loop_
_symmetry_equiv_pos_as_xyz
  x,y,z

loop_
_atom_site_label
_atom_site_type_symbol
_atom_site_fract_x
_atom_site_fract_y
_atom_site_fract_z
_atom_site_charge
C 	C 	0.98492 0.06405 0.99827 0.14600
N 	N 	0.07548 0.10566 0.99923 -0.11900
C 	C 	0.10681 0.05609 0.99543 0.15200
N 	N 	0.04796 0.96584 0.99152 -0.12700
C 	C 	0.95829 0.92469 0.99163 0.15900
N 	N 	0.92668 0.97368 0.99512 -0.12000
C 	C 	0.88550 0.97711 0.46261 0.17100
N 	N 	0.84064 0.88724 0.46042 -0.12100
C 	C 	0.88834 0.85321 0.46016 0.15600
N 	N 	0.97952 0.90848 0.46050 -0.13300
C 	C 	0.02389 0.99778 0.46258 0.17100
N 	N 	0.97726 0.03220 0.46529 -0.13300
Cu	Cu	0.65933 0.23862 0.01409 0.93500
Cu	Cu	0.71311 0.23419 0.90043 0.88200
Cu	Cu	0.69279 0.37085 0.94305 0.90000
Cu	Cu	0.66608 0.40776 0.05170 0.91500
C 	C 	0.67693 0.29805 0.12110 0.33900
O 	O 	0.52616 0.17755 0.01814 -0.33000
C 	C 	0.64788 0.29867 0.83084 0.33400
O 	O 	0.72835 0.37711 0.01448 -0.62900
O 	O 	0.63463 0.24058 0.94027 -0.64200
O 	O 	0.72294 0.18253 0.00932 -0.33200
O 	O 	0.80896 0.27156 0.95506 -0.42300
O 	O 	0.69313 0.37524 0.11609 -0.34600
O 	O 	0.75752 0.49909 0.95051 -0.36500
C 	C 	0.75549 0.54799 0.98843 0.30200
C 	C 	0.48807 0.21726 0.01044 0.30800
O 	O 	0.53755 0.29977 0.00224 -0.37000
O 	O 	0.69537 0.51013 0.01876 -0.35200
O 	O 	0.69564 0.25768 0.08729 -0.33800
C 	C 	0.79528 0.21840 0.98758 0.30000
O 	O 	0.67692 0.36698 0.86796 -0.37400
O 	O 	0.64396 0.22916 0.84045 -0.38000
H 	H 	0.79539 0.41657 0.02670 0.18800
H 	H 	0.56918 0.20085 0.92380 0.19100
Cu	Cu	0.72515 0.31513 0.43929 0.93300
Cu	Cu	0.69768 0.23145 0.54442 0.89300
Cu	Cu	0.59211 0.29174 0.50767 0.90200
Cu	Cu	0.55661 0.31397 0.39979 0.90800
C 	C 	0.65944 0.28905 0.33176 0.33100
O 	O 	0.77922 0.44765 0.43991 -0.32000
C 	C 	0.63935 0.29903 0.61804 0.33200
O 	O 	0.58430 0.24931 0.43615 -0.63300
O 	O 	0.71858 0.32923 0.51283 -0.63600
O 	O 	0.78282 0.25221 0.44342 -0.32700
O 	O 	0.67463 0.15197 0.48524 -0.41100
O 	O 	0.63047 0.33553 0.34578 -0.36500
O 	O 	0.47143 0.26400 0.50087 -0.34800
C 	C 	0.40892 0.22303 0.45840 0.30800
C 	C 	0.73800 0.48231 0.45483 0.29200
O 	O 	0.65201 0.42908 0.46005 -0.38200
O 	O 	0.43132 0.24447 0.41369 -0.37600
O 	O 	0.70931 0.28084 0.36595 -0.31500
C 	C 	0.74086 0.17559 0.46006 0.30800
O 	O 	0.60076 0.31737 0.58243 -0.34600
O 	O 	0.70104 0.28776 0.60904 -0.37900
H 	H 	0.54180 0.18314 0.42515 0.17500
H 	H 	0.76565 0.39004 0.53361 0.19900
C 	C 	0.69517 0.38537 0.75977 -0.08600
C 	C 	0.63146 0.30587 0.77689 -0.12200
C 	C 	0.55960 0.22975 0.74091 0.34600
C 	C 	0.55690 0.23070 0.68825 -0.08900
C 	C 	0.62600 0.30730 0.67117 -0.11500
C 	C 	0.69278 0.38598 0.70709 0.34700
F 	F 	0.75872 0.46132 0.69100 -0.42600
H 	H 	0.74987 0.44504 0.78717 0.10500
H 	H 	0.50413 0.17016 0.66073 0.10300
F 	F 	0.49454 0.15381 0.75690 -0.43000
C 	C 	0.73354 0.28251 0.20501 -0.07800
C 	C 	0.66268 0.27140 0.17157 -0.11200
C 	C 	0.58500 0.25100 0.18993 0.34700
C 	C 	0.57941 0.24458 0.24143 -0.08500
C 	C 	0.65428 0.26564 0.27623 -0.11400
C 	C 	0.73009 0.28080 0.25738 0.35000
F 	F 	0.80262 0.29942 0.29002 -0.41400
H 	H 	0.79386 0.29833 0.19118 0.12000
H 	H 	0.51975 0.23070 0.25524 0.09400
F 	F 	0.51872 0.24576 0.15902 -0.43600
C 	C 	0.78539 0.62915 0.50091 -0.02200
C 	C 	0.78252 0.57910 0.45704 -0.07800
C 	C 	0.80881 0.61811 0.41300 0.13300
C 	C 	0.83783 0.70597 0.41350 -0.05600
C 	C 	0.84140 0.75613 0.45747 -0.01800
C 	C 	0.81492 0.71727 0.50137 0.10500
Br	Br	0.82061 0.78409 0.56278 -0.17700
H 	H 	0.76387 0.59928 0.53458 0.07800
H 	H 	0.85933 0.73594 0.37985 0.08900
Br	Br	0.80360 0.55236 0.35120 -0.18000
C 	C 	0.76517 0.07111 0.41509 -0.01100
C 	C 	0.77991 0.12627 0.46035 -0.08800
C 	C 	0.82236 0.12560 0.50700 0.14000
C 	C 	0.84855 0.06952 0.50805 -0.05600
C 	C 	0.83573 0.01578 0.46271 -0.02300
C 	C 	0.79323 0.01631 0.41602 0.10100
Br	Br	0.77543 0.94472 0.35294 -0.16400
H 	H 	0.73146 0.07031 0.37921 0.07900
H 	H 	0.88300 0.07098 0.54387 0.08700
Br	Br	0.85032 0.20486 0.56918 -0.27400
C 	C 	0.18154 0.05055 0.49511 -0.05700
C 	C 	0.12260 0.05722 0.46235 -0.02800
C 	C 	0.15843 0.11949 0.42896 0.10500
C 	C 	0.25256 0.17674 0.43040 -0.01800
C 	C 	0.31146 0.16881 0.46226 -0.08500
C 	C 	0.27524 0.10440 0.49446 0.14100
Br	Br	0.35069 0.08378 0.53492 -0.23800
H 	H 	0.15423 0.00221 0.52050 0.08700
H 	H 	0.27972 0.22570 0.40538 0.07700
Br	Br	0.07977 0.12167 0.37753 -0.17900
C 	C 	0.79228 0.67461 0.94613 -0.01400
C 	C 	0.80594 0.64443 0.98964 -0.09600
C 	C 	0.86454 0.70669 0.03494 0.14700
C 	C 	0.90946 0.79825 0.03618 -0.04600
C 	C 	0.89766 0.82864 0.99235 -0.03100
C 	C 	0.83786 0.76640 0.94731 0.10400
Br	Br	0.81971 0.80575 0.88664 -0.16600
H 	H 	0.74611 0.62671 0.91142 0.07800
H 	H 	0.95624 0.84623 0.07074 0.08400
Br	Br	0.88847 0.66840 0.09453 -0.21800
C 	C 	0.86468 0.15465 0.94592 -0.01500
C 	C 	0.84993 0.18501 0.99120 -0.10500
C 	C 	0.88812 0.18376 0.03924 0.15200
C 	C 	0.93667 0.14830 0.04131 -0.05100
C 	C 	0.94838 0.11500 0.99590 -0.02400
C 	C 	0.91357 0.11981 0.94808 0.10000
Br	Br	0.92995 0.07663 0.88515 -0.17100
H 	H 	0.83655 0.15650 0.90888 0.04700
H 	H 	0.96382 0.14512 0.07823 0.08500
Br	Br	0.87797 0.23313 0.10232 -0.18700
C 	C 	0.34475 0.18426 0.96525 -0.03900
C 	C 	0.38763 0.16533 0.00222 -0.06500
C 	C 	0.33641 0.10828 0.03595 0.13500
C 	C 	0.24684 0.07852 0.03562 -0.03900
C 	C 	0.20515 0.10000 0.99981 -0.03500
C 	C 	0.25400 0.15159 0.96372 0.11100
Br	Br	0.19719 0.17506 0.91056 -0.17300
H 	H 	0.38253 0.22553 0.93802 0.07600
H 	H 	0.20837 0.03600 0.06223 0.08100
Br	Br	0.38404 0.06458 0.08022 -0.15800
