data_crystal

_cell_length_a 28.74721
_cell_length_b 27.67922
_cell_length_c 25.42189
_cell_angle_alpha 89.92671
_cell_angle_beta  89.92358
_cell_angle_gamma 90.92295

_symmetry_space_group_name_	'P 1'
_symmetry_space_group_name_H-M	'P 1'

loop_
_symmetry_equiv_pos_as_xyz
  x,y,z

loop_
_atom_site_label
_atom_site_type_symbol
_atom_site_fract_x
_atom_site_fract_y
_atom_site_fract_z
_atom_site_charge
Zn	Zn	0.48750 0.48715 0.99455 1.21800
C 	C 	0.54350 0.57453 0.98698 0.27200
O 	O 	0.51634 0.45370 0.05342 -0.46600
O 	O 	0.51530 0.59120 0.02314 -0.42600
O 	O 	0.55689 0.51538 0.08959 -0.47800
C 	C 	0.41521 0.54803 0.02800 0.32000
O 	O 	0.43855 0.53388 0.98651 -0.46000
O 	O 	0.43272 0.54203 0.07535 -0.50000
C 	C 	0.55538 0.47070 0.07274 0.29700
O 	O 	0.42782 0.42844 0.99423 -0.32700
Zn	Zn	0.49921 0.55184 0.08962 1.17100
O 	O 	0.54038 0.52895 0.97229 -0.42700
C 	C 	0.44950 0.40952 0.95473 0.25700
O 	O 	0.48591 0.43374 0.93897 -0.37900
Zn	Zn	0.35443 0.13498 0.01139 1.22700
C 	C 	0.39724 0.12392 0.11272 0.31200
O 	O 	0.28622 0.13453 0.01798 -0.44200
O 	O 	0.39159 0.16973 0.12375 -0.44300
O 	O 	0.28934 0.15039 0.10583 -0.48400
C 	C 	0.39234 0.23017 0.01266 0.37400
O 	O 	0.40341 0.18443 0.01052 -0.45800
O 	O 	0.35797 0.24411 0.04281 -0.51000
C 	C 	0.26618 0.13485 0.06454 0.28600
O 	O 	0.35258 0.14636 0.91874 -0.31500
Zn	Zn	0.33245 0.20484 0.09959 1.17300
O 	O 	0.37071 0.10274 0.07746 -0.43700
C 	C 	0.36711 0.10218 0.91670 0.27300
O 	O 	0.36869 0.08050 0.96169 -0.39800
C 	C 	0.54828 0.97603 0.31084 0.12900
C 	C 	0.52043 0.00829 0.28299 -0.09500
H 	H 	0.49885 0.03328 0.30436 0.06600
C 	C 	0.52027 0.00799 0.22786 0.05300
C 	C 	0.54669 0.97385 0.20072 -0.09000
C 	C 	0.57331 0.94023 0.22851 0.04600
C 	C 	0.57506 0.94232 0.28361 -0.10000
H 	H 	0.59684 0.91776 0.30534 0.06600
N 	N 	0.54909 0.97742 0.36734 -0.18100
C 	C 	0.52051 0.94664 0.39539 0.18800
C 	C 	0.51750 0.95060 0.45051 -0.06100
C 	C 	0.54429 0.98617 0.47639 0.02500
C 	C 	0.57421 0.01665 0.44725 -0.05500
C 	C 	0.57657 0.01129 0.39226 0.19400
C 	C 	0.48776 0.91997 0.47994 -0.01300
C 	C 	0.48469 0.92499 0.53458 -0.01600
C 	C 	0.51131 0.96071 0.56069 -0.05700
C 	C 	0.54104 0.99137 0.53149 0.02200
C 	C 	0.56754 0.02720 0.55731 -0.05200
C 	C 	0.60085 0.05236 0.47335 -0.01300
C 	C 	0.59746 0.05767 0.52791 -0.01500
C 	C 	0.50902 0.96605 0.61571 0.18200
N 	N 	0.53570 0.00072 0.64046 -0.17500
C 	C 	0.56399 0.03170 0.61230 0.18900
C 	C 	0.53579 0.00316 0.69691 0.14400
C 	C 	0.50139 0.02924 0.72347 -0.10100
C 	C 	0.50328 0.03371 0.77834 0.04600
C 	C 	0.54088 0.01449 0.80587 -0.07400
C 	C 	0.57261 0.98471 0.78035 0.03800
C 	C 	0.57049 0.97962 0.72559 -0.10700
O 	O 	0.60490 0.03929 0.36450 -0.20100
O 	O 	0.49519 0.91376 0.37054 -0.20600
O 	O 	0.48161 0.93724 0.64365 -0.20300
O 	O 	0.58827 0.06554 0.63695 -0.20000
H 	H 	0.59533 0.95730 0.70524 0.06700
H 	H 	0.47343 0.04551 0.70151 0.07000
H 	H 	0.62409 0.07619 0.45152 0.05000
H 	H 	0.61822 0.08544 0.54717 0.05100
H 	H 	0.46692 0.89228 0.46066 0.04800
H 	H 	0.46159 0.90103 0.55644 0.04900
H 	H 	0.54298 0.01904 0.84817 0.04900
H 	H 	0.54605 0.97303 0.15812 0.05100
Zn	Zn	0.69547 0.81393 0.99940 1.21600
C 	C 	0.67520 0.80709 0.10901 0.31000
O 	O 	0.74033 0.85972 0.03129 -0.43600
O 	O 	0.71729 0.79360 0.12143 -0.44200
O 	O 	0.79467 0.80158 0.04270 -0.49500
C 	C 	0.68846 0.71091 0.99601 0.32500
O 	O 	0.69618 0.74990 0.96758 -0.47400
O 	O 	0.70327 0.70912 0.04488 -0.46300
C 	C 	0.78288 0.84721 0.04348 0.31000
O 	O 	0.71054 0.84734 0.91449 -0.32300
Zn	Zn	0.75405 0.75053 0.06999 1.17400
O 	O 	0.65884 0.79754 0.06209 -0.43800
C 	C 	0.67010 0.86681 0.92070 0.27500
O 	O 	0.64864 0.85627 0.96391 -0.40100
Zn	Zn	0.15697 0.68466 0.97016 1.22000
C 	C 	0.15257 0.67748 0.08227 0.31300
O 	O 	0.14864 0.75187 0.94741 -0.45100
O 	O 	0.19451 0.69538 0.08996 -0.43900
O 	O 	0.16411 0.78292 0.02864 -0.46200
C 	C 	0.25113 0.65882 0.99339 0.33000
O 	O 	0.20841 0.64202 0.98777 -0.45000
O 	O 	0.25913 0.70555 0.99550 -0.52400
C 	C 	0.14459 0.78668 0.98212 0.26900
O 	O 	0.16339 0.65816 0.88131 -0.31700
Zn	Zn	0.22111 0.74714 0.03854 1.17600
O 	O 	0.12930 0.68961 0.04022 -0.43500
C 	C 	0.12201 0.64012 0.88949 0.27600
O 	O 	0.10463 0.64753 0.93552 -0.39700
C 	C 	0.02732 0.50078 0.28249 0.13700
C 	C 	0.99914 0.47019 0.25167 -0.10200
H 	H 	0.97303 0.44738 0.27043 0.06700
C 	C 	0.00367 0.47045 0.19676 0.04700
C 	C 	0.03704 0.50080 0.17300 -0.08300
C 	C 	0.06367 0.53317 0.20333 0.04500
C 	C 	0.05927 0.53263 0.25827 -0.10100
H 	H 	0.07954 0.55757 0.28209 0.06700
N 	N 	0.02169 0.50125 0.33868 -0.17900
C 	C 	0.04513 0.46846 0.36880 0.19000
C 	C 	0.03837 0.46686 0.42365 -0.06100
C 	C 	0.00778 0.49951 0.44720 0.03100
C 	C 	0.98444 0.53325 0.41593 -0.06200
C 	C 	0.99195 0.53361 0.36118 0.19000
C 	C 	0.06156 0.43302 0.45516 -0.01300
C 	C 	0.05431 0.43190 0.50957 -0.01300
C 	C 	0.02386 0.46469 0.53340 -0.06000
C 	C 	0.00055 0.49846 0.50213 0.03100
C 	C 	0.97014 0.53127 0.52572 -0.06100
C 	C 	0.95386 0.56592 0.43973 -0.01300
C 	C 	0.94675 0.56493 0.49417 -0.01400
C 	C 	0.01663 0.46459 0.58820 0.19000
N 	N 	0.98768 0.49762 0.61082 -0.17800
C 	C 	0.96397 0.53019 0.58067 0.19000
C 	C 	0.98366 0.49948 0.66714 0.13600
C 	C 	0.94740 0.47419 0.69278 -0.09900
C 	C 	0.94366 0.47605 0.74775 0.04600
C 	C 	0.97703 0.50186 0.77688 -0.08300
C 	C 	0.01250 0.52815 0.75147 0.04700
C 	C 	0.01595 0.52678 0.69652 -0.10000
O 	O 	0.97008 0.56491 0.33135 -0.20500
O 	O 	0.07394 0.43822 0.34623 -0.20300
O 	O 	0.03810 0.43294 0.61798 -0.20000
O 	O 	0.93573 0.56095 0.60334 -0.20200
H 	H 	0.04341 0.54678 0.67651 0.06700
H 	H 	0.92242 0.45339 0.66994 0.06800
H 	H 	0.93553 0.59215 0.41624 0.04800
H 	H 	0.92312 0.59044 0.51166 0.04900
H 	H 	0.08519 0.40750 0.43768 0.04900
H 	H 	0.07254 0.40559 0.53306 0.05000
H 	H 	0.97480 0.50238 0.81947 0.05000
H 	H 	0.03976 0.50192 0.13046 0.05300
Zn	Zn	0.81576 0.36639 0.98205 1.21500
C 	C 	0.80589 0.38568 0.87258 0.31300
O 	O 	0.75640 0.37135 0.01952 -0.44100
O 	O 	0.78756 0.34301 0.86248 -0.43900
O 	O 	0.71338 0.36396 0.94469 -0.47400
C 	C 	0.83642 0.27119 0.94534 0.30500
O 	O 	0.85156 0.31619 0.94768 -0.46000
O 	O 	0.79149 0.26169 0.94405 -0.50200
C 	C 	0.71724 0.37749 0.99408 0.30000
O 	O 	0.85396 0.34530 0.06148 -0.31500
Zn	Zn	0.74649 0.30793 0.91815 1.17200
O 	O 	0.80106 0.40445 0.91949 -0.44800
C 	C 	0.87184 0.38857 0.05840 0.27200
O 	O 	0.85869 0.41415 0.01875 -0.38100
Zn	Zn	0.99198 0.03731 0.03270 1.22500
C 	C 	0.04151 0.94853 0.02105 0.36600
O 	O 	0.93844 0.01939 0.07726 -0.46600
O 	O 	0.06162 0.95982 0.06599 -0.45100
O 	O 	0.96985 0.95421 0.11659 -0.48200
C 	C 	0.07648 0.06855 0.08157 0.35900
O 	O 	0.05628 0.05909 0.03655 -0.44700
O 	O 	0.05689 0.05375 0.12549 -0.49800
C 	C 	0.93374 0.97555 0.09625 0.33800
O 	O 	0.97274 0.11908 0.04117 -0.31500
Zn	Zn	0.02738 0.98992 0.12880 1.17200
O 	O 	0.00584 0.97325 0.00360 -0.43200
C 	C 	0.95674 0.11524 0.99369 0.28300
O 	O 	0.96038 0.07295 0.97224 -0.37500
C 	C 	0.86978 0.23114 0.94848 -0.04100
C 	C 	0.91602 0.24031 0.96373 -0.03500
C 	C 	0.94567 0.20202 0.97421 0.02200
C 	C 	0.92953 0.15409 0.96982 -0.12900
C 	C 	0.88422 0.14472 0.95099 0.18900
C 	C 	0.85471 0.18321 0.93983 -0.09200
H 	H 	0.98066 0.20961 0.98806 0.02900
H 	H 	0.81968 0.17566 0.92611 0.06500
H 	H 	0.92856 0.27704 0.96946 0.04900
O 	O 	0.86836 0.09807 0.94462 -0.28300
H 	H 	0.85381 0.08904 0.97873 0.14400
C 	C 	0.83162 0.45137 0.79912 0.00800
H 	H 	0.79779 0.46954 0.79392 0.03100
C 	C 	0.85976 0.42632 0.75496 -0.04600
H 	H 	0.84921 0.42400 0.71304 0.04200
C 	C 	0.87685 0.47560 0.81984 -0.04500
H 	H 	0.88068 0.51415 0.83133 0.04000
C 	C 	0.90464 0.45033 0.77625 0.00700
C 	C 	0.84030 0.40800 0.83540 -0.08200
C 	C 	0.88520 0.43203 0.85635 0.00500
H 	H 	0.89568 0.43434 0.89831 0.02800
C 	C 	0.91308 0.40686 0.81258 -0.04700
H 	H 	0.94688 0.38867 0.81800 0.04300
C 	C 	0.86782 0.38248 0.79188 0.01000
H 	H 	0.86381 0.34388 0.78068 0.03500
C 	C 	0.98024 0.41748 0.11234 -0.04400
H 	H 	0.01595 0.41026 0.09798 0.04200
C 	C 	0.94305 0.44627 0.08234 0.00100
H 	H 	0.94772 0.46267 0.04276 0.04000
C 	C 	0.94322 0.37837 0.12684 0.00200
H 	H 	0.94790 0.33873 0.12387 0.04000
C 	C 	0.90642 0.40751 0.09724 -0.06200
C 	C 	0.96806 0.44527 0.16282 0.00400
C 	C 	0.93147 0.40638 0.17791 -0.04100
H 	H 	0.92669 0.38973 0.21733 0.04200
C 	C 	0.89411 0.43514 0.14764 0.00100
H 	H 	0.85834 0.44229 0.16182 0.03400
C 	C 	0.93110 0.47413 0.13306 -0.04100
H 	H 	0.92633 0.51378 0.13581 0.04200
C 	C 	0.11403 0.82730 0.97148 -0.02900
C 	C 	0.06629 0.82264 0.98208 -0.03600
C 	C 	0.03979 0.86385 0.99062 0.01300
C 	C 	0.06110 0.90977 0.98922 -0.16400
C 	C 	0.10719 0.91451 0.97094 0.20400
C 	C 	0.13355 0.87320 0.96212 -0.10400
H 	H 	0.00395 0.85984 0.00338 0.04700
H 	H 	0.17004 0.87698 0.95187 0.05400
H 	H 	0.05061 0.78718 0.98798 0.04100
O 	O 	0.12718 0.95947 0.96429 -0.29600
H 	H 	0.14242 0.96724 0.99832 0.14900
C 	C 	0.02600 0.59780 0.82110 -0.04200
H 	H 	0.98893 0.60795 0.82484 0.04000
C 	C 	0.06633 0.63235 0.80482 0.00200
H 	H 	0.06298 0.67136 0.79562 0.03500
C 	C 	0.05609 0.57702 0.86567 0.00100
H 	H 	0.04407 0.57021 0.90659 0.03400
C 	C 	0.09617 0.61131 0.84914 -0.06400
C 	C 	0.04497 0.55915 0.78365 0.00500
C 	C 	0.07500 0.53828 0.82801 -0.04400
H 	H 	0.07835 0.49931 0.83742 0.04100
C 	C 	0.11549 0.57284 0.81180 0.00300
H 	H 	0.15261 0.56284 0.80837 0.04000
C 	C 	0.08509 0.59339 0.76675 -0.04100
H 	H 	0.09713 0.60020 0.72587 0.04200
C 	C 	0.12238 0.61326 0.19835 -0.04700
H 	H 	0.13137 0.61884 0.24037 0.04000
C 	C 	0.09723 0.65028 0.16282 0.00800
H 	H 	0.08550 0.68653 0.17529 0.03000
C 	C 	0.15799 0.60399 0.15353 0.00900
H 	H 	0.19630 0.60215 0.15832 0.03300
C 	C 	0.13236 0.64037 0.11868 -0.08000
C 	C 	0.09078 0.57273 0.17600 0.00600
C 	C 	0.12607 0.56300 0.13183 -0.04600
H 	H 	0.13780 0.52681 0.11915 0.04400
C 	C 	0.10083 0.59975 0.09670 0.00600
H 	H 	0.09194 0.59416 0.05461 0.03800
C 	C 	0.06551 0.60936 0.14103 -0.04300
H 	H 	0.02724 0.61137 0.13589 0.04300
C 	C 	0.81692 0.88402 0.06061 -0.04700
C 	C 	0.82732 0.92395 0.02849 -0.00600
C 	C 	0.86387 0.95561 0.04175 0.02100
C 	C 	0.89010 0.94778 0.08756 -0.14800
C 	C 	0.87708 0.90988 0.12192 0.19500
C 	C 	0.84111 0.87776 0.10791 -0.09000
H 	H 	0.87302 0.98498 0.01529 0.04100
H 	H 	0.83231 0.84769 0.13362 0.05400
H 	H 	0.80834 0.92941 0.99222 0.02800
O 	O 	0.90023 0.90345 0.16851 -0.29700
H 	H 	0.88301 0.92279 0.19472 0.14000
C 	C 	0.63975 0.91570 0.79692 -0.04400
H 	H 	0.65162 0.90810 0.75625 0.04200
C 	C 	0.61702 0.87822 0.83493 0.00400
H 	H 	0.61021 0.83951 0.82592 0.03300
C 	C 	0.67138 0.93437 0.84238 0.00500
H 	H 	0.70935 0.94190 0.83951 0.03400
C 	C 	0.64811 0.89741 0.87963 -0.06800
C 	C 	0.60268 0.95251 0.81297 0.00900
C 	C 	0.63396 0.97154 0.85771 -0.05600
H 	H 	0.64076 0.01021 0.86692 0.04500
C 	C 	0.61111 0.93426 0.89528 0.00400
H 	H 	0.59924 0.94194 0.93597 0.03000
C 	C 	0.57982 0.91532 0.85037 -0.04500
H 	H 	0.54188 0.90761 0.85359 0.04000
C 	C 	0.60131 0.83028 0.16757 0.00800
H 	H 	0.58177 0.79549 0.16428 0.02800
C 	C 	0.58453 0.87973 0.14732 -0.04400
H 	H 	0.55076 0.88588 0.12746 0.04000
C 	C 	0.61754 0.85414 0.21969 -0.04800
H 	H 	0.61099 0.83913 0.25957 0.04000
C 	C 	0.60105 0.90336 0.19900 0.00600
C 	C 	0.64950 0.84104 0.14366 -0.08100
C 	C 	0.66621 0.86443 0.19526 0.00800
H 	H 	0.70006 0.85784 0.21476 0.03200
C 	C 	0.64930 0.91402 0.17504 -0.04500
H 	H 	0.66886 0.94880 0.17821 0.04400
C 	C 	0.63299 0.89017 0.12311 0.00600
H 	H 	0.63956 0.90481 0.08303 0.03500
C 	C 	0.21742 0.11914 0.07029 -0.03000
C 	C 	0.18364 0.13642 0.03569 -0.04600
C 	C 	0.13708 0.12231 0.04175 0.04400
C 	C 	0.12385 0.08993 0.08188 -0.15900
C 	C 	0.15772 0.07343 0.11753 0.20400
C 	C 	0.20425 0.08825 0.11165 -0.10200
H 	H 	0.11138 0.13566 0.01444 0.03900
H 	H 	0.23024 0.07496 0.13868 0.07300
H 	H 	0.19340 0.16102 0.00422 0.05200
O 	O 	0.14600 0.04066 0.15604 -0.31500
H 	H 	0.13882 0.06035 0.18751 0.14400
C 	C 	0.46879 0.10046 0.84245 -0.04200
H 	H 	0.49982 0.12485 0.84316 0.04000
C 	C 	0.44904 0.07233 0.89010 -0.00200
H 	H 	0.46362 0.07366 0.93052 0.03100
C 	C 	0.41891 0.11531 0.82668 0.00200
H 	H 	0.40831 0.15211 0.81474 0.04300
C 	C 	0.39953 0.08682 0.87414 -0.06100
C 	C 	0.46356 0.05449 0.80894 0.00300
C 	C 	0.41411 0.06893 0.79239 -0.04100
H 	H 	0.39983 0.06746 0.75187 0.04300
C 	C 	0.39408 0.04094 0.84061 -0.00100
H 	H 	0.36307 0.01651 0.84013 0.03600
C 	C 	0.44373 0.02635 0.85648 -0.03200
H 	H 	0.45401 0.98955 0.86893 0.03100
C 	C 	0.49926 0.06341 0.14406 -0.04500
H 	H 	0.53237 0.05991 0.12195 0.04200
C 	C 	0.47856 0.11162 0.16328 0.00600
H 	H 	0.49414 0.14809 0.15670 0.03300
C 	C 	0.45071 0.04673 0.12434 0.00400
H 	H 	0.44343 0.02968 0.08564 0.03900
C 	C 	0.43039 0.09454 0.14399 -0.07800
C 	C 	0.48826 0.04059 0.19803 0.00300
C 	C 	0.44004 0.02370 0.17859 -0.03400
H 	H 	0.42440 0.98724 0.18507 0.03400
C 	C 	0.41936 0.07188 0.19787 0.00400
H 	H 	0.38618 0.07562 0.21977 0.02900
C 	C 	0.46798 0.08854 0.21766 -0.04500
H 	H 	0.47520 0.10608 0.25610 0.04000
C 	C 	0.44521 0.35743 0.94548 -0.01400
C 	C 	0.47611 0.32650 0.97114 -0.04500
C 	C 	0.46080 0.28070 0.98772 0.02000
C 	C 	0.41498 0.26545 0.97748 -0.17400
C 	C 	0.38760 0.29257 0.94274 0.21000
C 	C 	0.40292 0.33855 0.92667 -0.10700
H 	H 	0.48296 0.25921 0.01266 0.04300
H 	H 	0.37989 0.36125 0.90413 0.07100
H 	H 	0.50995 0.33992 0.98350 0.04500
O 	O 	0.34506 0.27511 0.92646 -0.29700
H 	H 	0.32221 0.28809 0.95185 0.14300
C 	C 	0.37019 0.57226 0.02150 -0.02100
C 	C 	0.35504 0.60510 0.05965 -0.04200
C 	C 	0.31481 0.63160 0.05133 0.02600
C 	C 	0.28916 0.62565 0.00485 -0.12000
C 	C 	0.30296 0.59123 0.96753 0.17900
C 	C 	0.34331 0.56448 0.97603 -0.10900
H 	H 	0.30414 0.65770 0.08052 0.01100
H 	H 	0.35398 0.53828 0.94695 0.07900
H 	H 	0.37519 0.61121 0.09507 0.03200
O 	O 	0.27726 0.58380 0.92274 -0.28500
H 	H 	0.29064 0.60648 0.89631 0.14800
C 	C 	0.59883 0.44412 0.06331 -0.03800
C 	C 	0.64196 0.46879 0.06189 -0.03600
C 	C 	0.68106 0.44638 0.04072 0.03000
C 	C 	0.67745 0.39914 0.02104 -0.12800
C 	C 	0.63533 0.37308 0.02628 0.19500
C 	C 	0.59640 0.39538 0.04789 -0.09500
H 	H 	0.71372 0.46633 0.03799 0.03700
H 	H 	0.56388 0.37526 0.05101 0.07400
H 	H 	0.64483 0.50589 0.07513 0.05400
O 	O 	0.63172 0.32631 0.00874 -0.30600
H 	H 	0.64001 0.30600 0.03940 0.14000
C 	C 	0.58305 0.60487 0.96984 -0.02600
C 	C 	0.57540 0.65306 0.95553 -0.04900
C 	C 	0.61153 0.68730 0.95894 0.03500
C 	C 	0.65548 0.67364 0.97709 -0.15600
C 	C 	0.66467 0.62432 0.98481 0.19900
C 	C 	0.62849 0.59000 0.98056 -0.10600
H 	H 	0.60438 0.72500 0.95142 0.02400
H 	H 	0.63509 0.55247 0.98950 0.07000
H 	H 	0.54066 0.66468 0.94570 0.04600
O 	O 	0.70817 0.60998 0.99973 -0.31400
H 	H 	0.72480 0.60319 0.96641 0.14400
