data_crystal

_cell_length_a 26.58469
_cell_length_b 28.11218
_cell_length_c 38.43038
_cell_angle_alpha 60.81235
_cell_angle_beta  118.87420
_cell_angle_gamma 133.24447

_symmetry_space_group_name_	'P 1'
_symmetry_space_group_name_H-M	'P 1'

loop_
_symmetry_equiv_pos_as_xyz
  x,y,z

loop_
_atom_site_label
_atom_site_type_symbol
_atom_site_fract_x
_atom_site_fract_y
_atom_site_fract_z
_atom_site_charge
Co	Co	0.00339 0.05456 0.60378 1.18400
C 	C 	0.00559 0.95081 0.30302 0.10500
O 	O 	0.03574 0.01626 0.01966 -0.35900
C 	C 	0.01261 0.95792 0.80169 0.11500
C 	C 	0.02243 0.95715 0.84147 0.05900
C 	C 	0.02327 0.98847 0.96429 -0.14000
O 	O 	0.05110 0.15165 0.16870 -0.36900
Co	Co	0.02590 0.09123 0.09867 1.18300
C 	C 	0.03156 0.04828 0.32605 0.07700
Br	Br	0.04456 0.11260 0.34151 -0.16500
C 	C 	0.02888 0.99215 0.35597 0.00400
C 	C 	0.01804 0.94446 0.34467 0.07200
O 	O 	0.03619 0.94171 0.10055 -0.77100
C 	C 	0.04456 0.98561 0.00811 0.33500
O 	O 	0.01311 0.00031 0.21349 -0.38600
C 	C 	0.00880 0.00759 0.27283 -0.11500
C 	C 	0.02375 0.05720 0.28489 0.12200
C 	C 	0.03740 0.98349 0.39939 0.00100
O 	O 	0.04600 0.99766 0.53132 -0.37400
C 	C 	0.05428 0.98169 0.47829 -0.14500
O 	O 	0.02554 0.91155 0.60832 -0.76600
Co	Co	0.07005 0.02349 0.07953 1.19400
O 	O 	0.05784 0.83114 0.14806 -0.40600
C 	C 	0.05827 0.03471 0.90077 0.06500
Br	Br	0.01969 0.87019 0.38627 -0.17900
H 	H 	0.09336 0.30034 0.09838 0.04000
O 	O 	0.08290 0.10939 0.06739 -0.45500
O 	O 	0.08413 0.96421 0.03336 -0.40000
Co	Co	0.06822 0.89913 0.09107 1.16700
C 	C 	0.06356 0.15516 0.64404 0.29400
C 	C 	0.06340 0.97199 0.52181 0.35000
O 	O 	0.03832 0.79544 0.65494 -0.40900
O 	O 	0.04191 0.84524 0.68905 -0.39100
C 	C 	0.07280 0.04028 0.93961 0.14000
Br	Br	0.03394 0.13781 0.24542 -0.21700
C 	C 	0.09827 0.19049 0.14673 0.29400
C 	C 	0.08477 0.85074 0.18137 0.30400
O 	O 	0.07566 0.89090 0.18189 -0.39400
Co	Co	0.06266 0.99427 0.59111 1.18500
Co	Co	0.06586 0.87317 0.60265 1.16800
O 	O 	0.07326 0.07879 0.57951 -0.45300
C 	C 	0.05455 0.80725 0.68923 0.30400
O 	O 	0.07425 0.11586 0.64404 -0.38900
H 	H 	0.03613 0.59370 0.74647 0.04900
O 	O 	0.10798 0.16368 0.13231 -0.38600
C 	C 	0.05639 0.70881 0.73781 -0.01600
Br	Br	0.11922 0.11029 0.86381 -0.16500
Br	Br	0.08001 0.96340 0.79051 -0.19400
H 	H 	0.10174 0.28542 0.59855 0.04400
O 	O 	0.09929 0.94783 0.55010 -0.39800
C 	C 	0.10591 0.01857 0.42433 0.07300
H 	H 	0.11346 0.40233 0.10546 0.04900
S 	S 	0.08478 0.74296 0.23652 0.03200
Br	Br	0.08907 0.94135 0.88685 -0.17700
Br	Br	0.16063 0.11810 0.95925 -0.18900
C 	C 	0.11436 0.01992 0.46299 0.13900
C 	C 	0.08705 0.77793 0.72733 -0.07300
H 	H 	0.10018 0.64021 0.25110 0.05000
C 	C 	0.13702 0.30852 0.12525 -0.02200
C 	C 	0.09078 0.63610 0.75409 -0.05200
C 	C 	0.12409 0.21980 0.65486 -0.07300
C 	C 	0.10705 0.69462 0.75541 0.01800
C 	C 	0.14516 0.39432 0.13576 -0.05300
C 	C 	0.12318 0.82590 0.21800 -0.07100
C 	C 	0.13155 0.28029 0.63006 -0.01700
C 	C 	0.15265 0.26116 0.14858 -0.07100
H 	H 	0.14408 0.39807 0.60581 0.04900
S 	S 	0.13835 0.58562 0.74275 0.01600
C 	C 	0.15872 0.41706 0.16670 0.00500
O 	O 	0.17329 0.96842 0.11518 -0.40200
O 	O 	0.17470 0.05614 0.10617 -0.38900
O 	O 	0.16415 0.93476 0.63678 -0.38500
O 	O 	0.16425 0.02274 0.62586 -0.37000
S 	S 	0.16089 0.22619 0.70357 0.05800
C 	C 	0.14686 0.63641 0.75919 0.00100
C 	C 	0.17039 0.35760 0.14579 0.02300
S 	S 	0.16250 0.48302 0.15869 0.01300
C 	C 	0.14969 0.69032 0.25020 -0.05600
C 	C 	0.16639 0.38308 0.63779 -0.05200
C 	C 	0.15454 0.74330 0.25028 0.00200
H 	H 	0.16187 0.60891 0.23595 0.05300
C 	C 	0.16924 0.32814 0.65256 0.01900
S 	S 	0.17511 0.81813 0.74084 0.03600
Br	Br	0.18816 0.06496 0.40532 -0.16100
S 	S 	0.18212 0.47355 0.65855 0.01300
C 	C 	0.17769 0.75240 0.75999 0.00200
C 	C 	0.20192 0.03331 0.10301 0.31400
C 	C 	0.19543 0.99997 0.62716 0.27600
C 	C 	0.19114 0.30504 0.69487 0.00100
C 	C 	0.19162 0.41648 0.66623 0.00200
C 	C 	0.20153 0.40901 0.20562 0.03100
C 	C 	0.19481 0.85700 0.22221 -0.01900
Br	Br	0.20797 0.07708 0.49400 -0.19500
C 	C 	0.20542 0.33251 0.72350 -0.05200
C 	C 	0.20242 0.47120 0.70793 -0.01600
S 	S 	0.20659 0.28173 0.19342 0.06700
C 	C 	0.20439 0.66224 0.23278 -0.04600
C 	C 	0.20811 0.39071 0.70827 0.03000
C 	C 	0.21440 0.42115 0.73202 -0.04400
H 	H 	0.21216 0.30861 0.75599 0.06400
C 	C 	0.21339 0.34964 0.18476 -0.00100
C 	C 	0.21424 0.50165 0.20422 -0.01700
C 	C 	0.20839 0.70543 0.24492 0.02600
C 	C 	0.21215 0.81077 0.23960 0.01900
N 	N 	0.21408 0.55316 0.72424 -0.13500
C 	C 	0.21614 0.69623 0.75945 0.02700
C 	C 	0.22076 0.63625 0.73611 -0.01800
C 	C 	0.22740 0.37295 0.21557 -0.04600
H 	H 	0.22893 0.90860 0.20605 0.04700
H 	H 	0.23376 0.41207 0.76503 0.05800
C 	C 	0.23196 0.75542 0.75907 -0.05600
C 	C 	0.23252 0.45621 0.22690 -0.04200
N 	N 	0.23951 0.59928 0.21087 -0.13600
C 	C 	0.24553 0.53362 0.72034 0.12600
H 	H 	0.00073 0.67234 0.72588 0.04400
O 	O 	0.99991 0.14153 0.62854 -0.38600
Br	Br	0.97808 0.87888 0.28731 -0.18300
O 	O 	0.96362 0.03217 0.70245 -0.35500
C 	C 	0.98652 0.01053 0.22847 0.36300
C 	C 	0.95300 0.97422 0.72635 0.31300
C 	C 	0.75218 0.32815 0.02929 0.13000
N 	N 	0.69181 0.27949 0.04334 -0.13800
C 	C 	0.67744 0.29149 0.06645 0.12900
N 	N 	0.72403 0.35198 0.07592 -0.13900
C 	C 	0.78374 0.40115 0.06137 0.12900
N 	N 	0.79752 0.38937 0.03780 -0.13500
C 	C 	0.70779 0.29028 0.50898 0.12800
N 	N 	0.64281 0.24548 0.51780 -0.13400
C 	C 	0.62450 0.26158 0.53569 0.13000
N 	N 	0.67130 0.32193 0.54519 -0.13900
C 	C 	0.73592 0.36687 0.53637 0.12900
N 	N 	0.75401 0.35148 0.51780 -0.13600
C 	C 	0.28508 0.66478 0.21293 0.12500
N 	N 	0.35341 0.70215 0.21116 -0.13700
C 	C 	0.37708 0.67422 0.20858 0.12800
N 	N 	0.33223 0.60863 0.20752 -0.13700
C 	C 	0.26334 0.57118 0.20829 0.12500
C 	C 	0.25427 0.61422 0.73207 0.12600
N 	N 	0.31664 0.57533 0.72378 -0.13800
C 	C 	0.35651 0.63689 0.73038 0.12800
N 	N 	0.32532 0.65626 0.73457 -0.13700
Co	Co	0.95478 0.96766 0.15976 1.18700
Co	Co	0.99431 0.89807 0.13851 1.19200
Co	Co	0.94442 0.08350 0.14586 1.17800
C 	C 	0.91544 0.79066 0.09268 0.29700
O 	O 	0.95486 0.15480 0.09005 -0.39600
O 	O 	0.97175 0.04246 0.13086 -0.75400
C 	C 	0.93575 0.14210 0.05535 0.30100
O 	O 	0.95129 0.88520 0.17664 -0.44900
C 	C 	0.81255 0.94663 0.13138 0.27500
O 	O 	0.98729 0.98606 0.10748 -0.58100
O 	O 	0.96286 0.12041 0.05095 -0.37100
O 	O 	0.84103 0.01165 0.12117 -0.36500
O 	O 	0.85059 0.92267 0.15711 -0.37300
O 	O 	0.93603 0.01880 0.20446 -0.37200
O 	O 	0.96045 0.83496 0.06856 -0.36900
O 	O 	0.91650 0.80752 0.12017 -0.36700
Co	Co	0.91735 0.92401 0.65655 1.18700
Co	Co	0.97005 0.86128 0.63966 1.19300
Co	Co	0.90964 0.04368 0.64158 1.17600
C 	C 	0.90971 0.76857 0.58787 0.29800
O 	O 	0.86188 0.05235 0.57981 -0.38200
O 	O 	0.94115 0.00227 0.63081 -0.75200
C 	C 	0.89913 0.09412 0.55148 0.29400
O 	O 	0.91178 0.84097 0.67119 -0.45200
C 	C 	0.77986 0.89938 0.64145 0.30700
O 	O 	0.96767 0.95187 0.60993 -0.57600
O 	O 	0.95489 0.09960 0.55429 -0.36100
O 	O 	0.81802 0.95025 0.65759 -0.38900
O 	O 	0.81018 0.88164 0.63632 -0.38400
O 	O 	0.95803 0.93967 0.71529 -0.36500
O 	O 	0.96333 0.81667 0.56980 -0.36900
O 	O 	0.89947 0.77849 0.61384 -0.36500
C 	C 	0.95582 0.95855 0.76992 -0.10100
C 	C 	0.98281 0.96728 0.84805 0.02300
C 	C 	0.92787 0.96993 0.81602 0.06700
C 	C 	0.90973 0.95796 0.77885 0.11500
C 	C 	0.99805 0.97417 0.88867 0.01600
C 	C 	0.94925 0.92232 0.91384 0.06300
C 	C 	0.95857 0.93289 0.94928 0.13200
Br	Br	0.88017 0.99384 0.82211 -0.16900
Br	Br	0.88029 0.87623 0.97436 -0.19800
Br	Br	0.81927 0.93541 0.74187 -0.21000
Br	Br	0.87196 0.83596 0.90095 -0.16900
C 	C 	0.98564 0.94568 0.45360 0.13300
C 	C 	0.97722 0.94705 0.41407 0.07100
Br	Br	0.90318 0.89354 0.47420 -0.19800
Br	Br	0.88337 0.89967 0.37974 -0.16700
C 	C 	0.53724 0.77868 0.69821 0.00700
C 	C 	0.57276 0.82882 0.66672 -0.04800
C 	C 	0.60522 0.81864 0.65374 0.02100
C 	C 	0.59680 0.75731 0.66968 0.00200
C 	C 	0.56129 0.70719 0.70119 -0.05000
C 	C 	0.52915 0.71751 0.71431 0.03100
S 	S 	0.47105 0.76524 0.70524 0.01800
C 	C 	0.43244 0.68394 0.73054 -0.01700
C 	C 	0.47043 0.66418 0.73272 -0.04200
S 	S 	0.66347 0.77099 0.66313 0.05000
C 	C 	0.70308 0.85259 0.63847 -0.07300
C 	C 	0.66468 0.87218 0.63594 -0.01100
H 	H 	0.57722 0.87519 0.65380 0.05200
H 	H 	0.55697 0.66089 0.71418 0.05600
H 	H 	0.45047 0.61195 0.74140 0.05700
H 	H 	0.68530 0.92447 0.62800 0.04500
C 	C 	0.25824 0.69575 0.74712 -0.04600
H 	H 	0.28312 0.80318 0.75511 0.05100
H 	H 	0.31240 0.73810 0.74460 0.05400
H 	H 	0.25871 0.36462 0.24596 0.06100
H 	H 	0.27546 0.46417 0.25415 0.05700
C 	C 	0.61486 0.85286 0.12511 0.00200
C 	C 	0.57136 0.85126 0.13696 -0.05500
C 	C 	0.54164 0.79969 0.17023 0.02800
C 	C 	0.55630 0.75198 0.19132 0.00400
C 	C 	0.59850 0.75245 0.17925 -0.05000
C 	C 	0.63165 0.80624 0.14741 0.02100
S 	S 	0.68271 0.92350 0.10483 0.02600
C 	C 	0.73460 0.89889 0.12198 -0.06400
C 	C 	0.69861 0.83194 0.14532 -0.02000
S 	S 	0.49409 0.68490 0.21712 0.02300
C 	C 	0.45020 0.71586 0.20514 -0.01900
C 	C 	0.48190 0.77967 0.17807 -0.04300
H 	H 	0.56147 0.88921 0.12099 0.05000
H 	H 	0.60916 0.71503 0.19581 0.05600
H 	H 	0.72454 0.80725 0.16566 0.05800
H 	H 	0.45723 0.80580 0.16044 0.05200
C 	C 	0.26876 0.77239 0.23821 0.00200
C 	C 	0.26951 0.82586 0.23270 -0.05300
S 	S 	0.31325 0.77764 0.21606 0.01300
C 	C 	0.26030 0.69671 0.21504 -0.01900
H 	H 	0.31063 0.87731 0.22047 0.05000
C 	C 	0.86229 0.22843 0.48347 0.00300
C 	C 	0.86533 0.27963 0.48436 -0.05500
C 	C 	0.80109 0.26894 0.47591 0.02800
C 	C 	0.73601 0.20701 0.46888 0.00100
C 	C 	0.73375 0.15262 0.47433 -0.05000
C 	C 	0.79772 0.16430 0.48076 0.02100
S 	S 	0.92698 0.21849 0.50875 0.03600
C 	C 	0.87786 0.13523 0.51555 -0.06500
C 	C 	0.80648 0.11199 0.49872 -0.01700
S 	S 	0.67475 0.19928 0.47736 0.02500
C 	C 	0.72613 0.27418 0.48757 -0.01700
C 	C 	0.79568 0.30685 0.48660 -0.04400
H 	H 	0.91573 0.32428 0.49386 0.05400
H 	H 	0.68473 0.10214 0.47621 0.05400
H 	H 	0.76264 0.05914 0.50520 0.05300
H 	H 	0.84149 0.35093 0.49847 0.05600
C 	C 	0.84630 0.59625 0.59220 0.00000
C 	C 	0.81881 0.52834 0.60322 -0.05300
C 	C 	0.79691 0.50073 0.57229 0.02700
C 	C 	0.79707 0.53845 0.53158 0.00300
C 	C 	0.82466 0.60641 0.52058 -0.05100
C 	C 	0.84670 0.63405 0.55154 0.02400
S 	S 	0.85430 0.63456 0.61832 0.03500
C 	C 	0.86172 0.70172 0.58009 -0.06400
C 	C 	0.85535 0.69334 0.54452 -0.02000
S 	S 	0.78984 0.50045 0.50560 0.02700
C 	C 	0.78327 0.43372 0.54394 -0.02000
C 	C 	0.78915 0.44188 0.57942 -0.04300
H 	H 	0.81723 0.49909 0.63470 0.05300
H 	H 	0.82646 0.63575 0.48913 0.06300
H 	H 	0.86182 0.73091 0.51555 0.06800
H 	H 	0.78259 0.40424 0.60835 0.05400
C 	C 	0.36222 0.13398 0.58327 0.01500
C 	C 	0.42128 0.19427 0.56813 -0.05100
C 	C 	0.47370 0.19199 0.57009 0.03200
C 	C 	0.46952 0.13256 0.59007 0.00100
C 	C 	0.41015 0.07228 0.60519 -0.04300
C 	C 	0.35755 0.07462 0.60280 0.01900
S 	S 	0.30492 0.12624 0.59580 0.05100
C 	C 	0.27015 0.04694 0.62511 -0.06000
C 	C 	0.30568 0.02530 0.62623 -0.00100
S 	S 	0.52214 0.13835 0.57429 0.02700
C 	C 	0.55310 0.21566 0.54281 -0.01700
C 	C 	0.52111 0.23897 0.54385 -0.04100
H 	H 	0.42456 0.24015 0.55346 0.06000
H 	H 	0.40588 0.02592 0.61908 0.05500
H 	H 	0.29220 0.97499 0.64167 0.03600
H 	H 	0.53292 0.28850 0.52708 0.05700
C 	C 	0.80404 0.18842 0.98720 0.00700
C 	C 	0.75139 0.18702 0.98865 -0.05300
C 	C 	0.76677 0.24820 0.98407 0.02600
C 	C 	0.83444 0.30871 0.97968 0.00200
C 	C 	0.88968 0.30859 0.98393 -0.05000
C 	C 	0.87362 0.24780 0.98696 0.02300
S 	S 	0.80937 0.12395 0.01019 0.03300
C 	C 	0.89709 0.16676 0.01897 -0.06800
C 	C 	0.92574 0.23556 0.00455 -0.01800
S 	S 	0.84625 0.36394 0.99350 0.02900
C 	C 	0.76653 0.31588 0.00308 -0.02700
C 	C 	0.72847 0.25218 0.99726 -0.03300
H 	H 	0.70220 0.13951 0.99625 0.05600
H 	H 	0.94418 0.35296 0.98794 0.05400
H 	H 	0.98194 0.27450 0.01317 0.04800
H 	H 	0.68021 0.20828 0.00768 0.05100
C 	C 	0.85031 0.57885 0.05242 0.00400
C 	C 	0.83453 0.62525 0.03496 -0.05300
C 	C 	0.82716 0.64112 0.06085 0.02600
C 	C 	0.82893 0.60620 0.10239 -0.00000
C 	C 	0.84237 0.55799 0.11951 -0.05400
C 	C 	0.85068 0.54300 0.09360 0.02600
S 	S 	0.83270 0.53346 0.02706 0.02700
C 	C 	0.82823 0.46912 0.06670 -0.02000
C 	C 	0.83823 0.48114 0.10178 -0.04300
S 	S 	0.85470 0.65603 0.12780 0.03800
C 	C 	0.86147 0.72121 0.08815 -0.06300
C 	C 	0.84403 0.70497 0.05277 -0.02100
H 	H 	0.83200 0.65100 0.00274 0.06400
H 	H 	0.84535 0.53242 0.15176 0.05300
H 	H 	0.82575 0.44253 0.13007 0.05300
H 	H 	0.85604 0.74227 0.02407 0.07300
C 	C 	0.47620 0.17153 0.06426 0.00500
C 	C 	0.40611 0.11415 0.06370 -0.04900
C 	C 	0.36966 0.10346 0.08653 0.02200
C 	C 	0.40498 0.14580 0.11202 0.00100
C 	C 	0.47543 0.20302 0.11274 -0.05200
C 	C 	0.51157 0.21390 0.08958 0.02800
S 	S 	0.53656 0.18209 0.05285 0.02300
C 	C 	0.60907 0.24132 0.07831 -0.02000
C 	C 	0.58642 0.25401 0.09712 -0.04200
S 	S 	0.34413 0.13773 0.12127 0.04800
C 	C 	0.27223 0.08075 0.09430 -0.07400
C 	C 	0.29493 0.06593 0.07719 -0.01100
H 	H 	0.37983 0.08092 0.04468 0.05800
H 	H 	0.50165 0.23668 0.13143 0.05300
H 	H 	0.62234 0.29074 0.11529 0.05400
H 	H 	0.25900 0.03026 0.05829 0.05300
