data_crystal

_cell_length_a 30.62615
_cell_length_b 31.08308
_cell_length_c 26.50809
_cell_angle_alpha 95.53997
_cell_angle_beta  95.53431
_cell_angle_gamma 125.52719

_symmetry_space_group_name_	'P 1'
_symmetry_space_group_name_H-M	'P 1'

loop_
_symmetry_equiv_pos_as_xyz
  x,y,z

loop_
_atom_site_label
_atom_site_type_symbol
_atom_site_fract_x
_atom_site_fract_y
_atom_site_fract_z
_atom_site_charge
C 	C 	0.97646 0.03080 0.00536 0.11900
N 	N 	0.03078 0.05993 0.00446 -0.14100
C 	C 	0.05532 0.03505 0.00130 0.11600
N 	N 	0.99448 0.02463 0.42970 -0.14100
C 	C 	0.73086 0.24354 0.98972 0.29300
H 	H 	0.62495 0.22127 0.16246 0.04800
C 	C 	0.62943 0.21873 0.26322 0.07300
N 	N 	0.60787 0.18056 0.28147 -0.12000
C 	C 	0.90966 0.01718 0.41929 -0.02300
C 	C 	0.84131 0.02797 0.44282 -0.05200
C 	C 	0.85978 0.06957 0.41468 0.02600
C 	C 	0.90211 0.08390 0.38765 -0.05200
C 	C 	0.92696 0.05783 0.38989 -0.01600
C 	C 	0.83722 0.09939 0.41574 -0.01600
C 	C 	0.81823 0.12425 0.41674 -0.02500
C 	C 	0.79605 0.15440 0.41897 0.04100
C 	C 	0.82820 0.20845 0.41355 -0.07100
C 	C 	0.80866 0.23922 0.42051 0.01700
C 	C 	0.75677 0.21612 0.43318 -0.09500
C 	C 	0.72379 0.16128 0.43645 0.01600
C 	C 	0.74347 0.13066 0.42954 -0.07200
H 	H 	0.80848 0.01658 0.46370 0.04400
H 	H 	0.91639 0.11580 0.36557 0.04500
H 	H 	0.96000 0.06959 0.36921 0.04000
H 	H 	0.86880 0.22699 0.40508 0.05000
H 	H 	0.68331 0.14261 0.44525 0.03000
H 	H 	0.71820 0.08876 0.43338 0.04800
C 	C 	0.08195 0.03702 0.44010 -0.02300
C 	C 	0.11323 0.02713 0.47228 -0.01800
C 	C 	0.16973 0.05760 0.47514 -0.05200
C 	C 	0.19544 0.09818 0.44595 0.02600
C 	C 	0.16456 0.10881 0.41447 -0.05200
C 	C 	0.10801 0.07840 0.41156 -0.01700
C 	C 	0.25329 0.12800 0.44731 -0.01500
C 	C 	0.30173 0.15300 0.44842 -0.02400
C 	C 	0.35954 0.18247 0.44972 0.04200
C 	C 	0.44242 0.18848 0.46543 0.01800
C 	C 	0.38622 0.15985 0.46383 -0.07000
H 	H 	0.19342 0.04936 0.49975 0.04500
H 	H 	0.18424 0.14021 0.39186 0.04500
H 	H 	0.08439 0.08633 0.38643 0.03900
H 	H 	0.46254 0.17042 0.47607 0.03200
H 	H 	0.36347 0.12010 0.47356 0.05000
C 	C 	0.94958 0.05763 0.00834 -0.02500
C 	C 	0.97785 0.11011 0.03686 -0.01600
C 	C 	0.95210 0.13528 0.03979 -0.05300
C 	C 	0.89802 0.10823 0.01432 0.02500
C 	C 	0.86970 0.05591 0.98595 -0.05100
C 	C 	0.89532 0.03068 0.98291 -0.01600
C 	C 	0.87186 0.13449 0.01624 -0.01600
C 	C 	0.84910 0.15564 0.01729 -0.02600
C 	C 	0.82120 0.18019 0.01717 0.04100
C 	C 	0.76592 0.14975 0.02100 -0.07300
C 	C 	0.73687 0.17129 0.01443 0.01800
C 	C 	0.76295 0.22346 0.00371 -0.09900
C 	C 	0.81906 0.25477 0.00239 0.01600
C 	C 	0.84798 0.23310 0.00895 -0.07300
H 	H 	0.01952 0.13120 0.05707 0.03900
H 	H 	0.97424 0.17578 0.06179 0.04500
H 	H 	0.82792 0.03487 0.96600 0.04400
H 	H 	0.74504 0.10888 0.02764 0.05000
H 	H 	0.69372 0.14673 0.01588 0.03400
C 	C 	0.11392 0.06616 0.99981 -0.02100
C 	C 	0.14647 0.05537 0.02834 -0.01800
C 	C 	0.20022 0.07937 0.02181 -0.05300
C 	C 	0.22187 0.11434 0.98677 0.02800
C 	C 	0.19024 0.12685 0.95965 -0.05200
C 	C 	0.13640 0.10292 0.96623 -0.01700
C 	C 	0.27593 0.13594 0.97761 -0.01600
C 	C 	0.32133 0.15332 0.97087 -0.02300
C 	C 	0.37582 0.17370 0.96422 0.04100
C 	C 	0.45184 0.16824 0.97631 0.01800
C 	C 	0.39675 0.14528 0.97598 -0.07000
H 	H 	0.12976 0.02757 0.05484 0.04000
H 	H 	0.22471 0.07002 0.04332 0.04500
H 	H 	0.20693 0.15423 0.93279 0.04500
H 	H 	0.11166 0.11154 0.94398 0.04000
H 	H 	0.46777 0.14634 0.98670 0.03800
H 	H 	0.37073 0.10605 0.98634 0.05000
O 	O 	0.56749 0.22605 0.99531 -0.36200
O 	O 	0.68320 0.22221 0.00342 -0.37500
O 	O 	0.70430 0.23613 0.47895 -0.44000
H 	H 	0.61567 0.25446 0.40994 0.16800
C 	C 	0.38917 0.23378 0.43700 -0.07100
C 	C 	0.47241 0.24007 0.45292 -0.08800
H 	H 	0.89086 0.25702 0.00638 0.04800
C 	C 	0.40939 0.22391 0.94998 -0.07000
C 	C 	0.48660 0.22016 0.96526 -0.08900
H 	H 	0.60965 0.24516 0.90699 0.17600
C 	C 	0.73883 0.25005 0.44726 0.29000
H 	H 	0.39323 0.24576 0.94015 0.04900
C 	C 	0.46450 0.24698 0.95018 0.01500
H 	H 	0.36875 0.25149 0.42605 0.04900
C 	C 	0.54642 0.24842 0.97450 0.28500
Cu	Cu	0.64826 0.25980 0.00226 0.92800
Cu	Cu	0.69930 0.26389 0.89796 0.87100
C 	C 	0.65051 0.26104 0.18663 -0.00700
C 	C 	0.44540 0.26254 0.43859 0.01800
C 	C 	0.65638 0.26639 0.24048 -0.00100
O 	O 	0.64652 0.26720 0.92893 -0.64000
O 	O 	0.66874 0.26747 0.83376 -0.41300
O 	O 	0.66106 0.26679 0.07585 -0.35700
O 	O 	0.56039 0.26339 0.48935 -0.38100
C 	C 	0.53185 0.27044 0.45500 0.29000
N 	N 	0.53428 0.19768 0.76046 -0.12000
C 	C 	0.57314 0.23287 0.74853 0.07300
H 	H 	0.58938 0.24541 0.65226 0.04300
C 	C 	0.02200 0.00290 0.43500 0.11800
C 	C 	0.62166 0.27682 0.73367 0.00200
C 	C 	0.86607 0.00176 0.44507 -0.01700
C 	C 	0.62334 0.27841 0.68121 -0.01400
O 	O 	0.74724 0.27865 0.95897 -0.44100
H 	H 	0.83454 0.28135 0.41765 0.03500
Cu	Cu	0.72193 0.28563 0.53909 0.87100
H 	H 	0.49030 0.28642 0.94026 0.03300
H 	H 	0.85234 0.97056 0.46793 0.04000
C 	C 	0.93927 0.99324 0.42543 0.11900
N 	N 	0.02546 0.98105 0.99865 -0.14000
C 	C 	0.97116 0.95172 0.99900 0.12100
N 	N 	0.94674 0.97667 0.00259 -0.14100
N 	N 	0.91157 0.93986 0.42663 -0.14000
C 	C 	0.93906 0.91798 0.43154 0.11900
N 	N 	0.99417 0.94959 0.43570 -0.14000
Cu	Cu	0.68378 0.34649 0.93634 0.89800
Cu	Cu	0.64411 0.35762 0.03247 0.89600
C 	C 	0.65945 0.30095 0.10788 0.28400
C 	C 	0.67248 0.31046 0.82511 0.28500
O 	O 	0.69124 0.34365 0.00815 -0.64000
O 	O 	0.63260 0.31992 0.09207 -0.37900
O 	O 	0.72352 0.42389 0.94889 -0.38100
C 	C 	0.71470 0.45159 0.98188 0.29400
O 	O 	0.57887 0.29871 0.96892 -0.39200
O 	O 	0.67543 0.42760 0.00911 -0.39300
O 	O 	0.68985 0.35082 0.86321 -0.38500
H 	H 	0.72937 0.36721 0.02747 0.16800
Cu	Cu	0.72476 0.33305 0.43304 0.92800
Cu	Cu	0.63880 0.30170 0.50060 0.89700
Cu	Cu	0.62655 0.33873 0.40333 0.89500
C 	C 	0.68513 0.32475 0.32697 0.28500
O 	O 	0.76042 0.41297 0.43825 -0.36200
C 	C 	0.67700 0.31503 0.61202 0.28500
O 	O 	0.64022 0.29232 0.42850 -0.64100
O 	O 	0.71893 0.33716 0.50677 -0.64100
O 	O 	0.76095 0.29638 0.43193 -0.37000
O 	O 	0.66463 0.34986 0.34341 -0.38300
C 	C 	0.73854 0.43517 0.45797 0.28400
O 	O 	0.68797 0.40428 0.46523 -0.39100
O 	O 	0.55598 0.30900 0.42759 -0.39400
O 	O 	0.71572 0.31838 0.35939 -0.35500
O 	O 	0.63573 0.29792 0.57427 -0.38500
O 	O 	0.72020 0.31810 0.60290 -0.41300
H 	H 	0.74197 0.37396 0.52783 0.17600
C 	C 	0.67010 0.32075 0.66599 -0.06900
C 	C 	0.66723 0.31791 0.77135 -0.06900
C 	C 	0.71134 0.36312 0.75617 -0.01400
C 	C 	0.71295 0.36480 0.70371 0.00200
H 	H 	0.74559 0.39579 0.78514 0.04200
C 	C 	0.75867 0.41176 0.68890 0.07300
N 	N 	0.79528 0.44938 0.67703 -0.12000
C 	C 	0.67505 0.30689 0.16381 -0.06500
C 	C 	0.68701 0.31804 0.27174 -0.06300
C 	C 	0.71507 0.36378 0.24907 -0.00900
C 	C 	0.70942 0.35848 0.19536 0.00100
H 	H 	0.74002 0.40356 0.27324 0.04500
C 	C 	0.73879 0.40617 0.17284 0.06200
N 	N 	0.76228 0.44434 0.15475 -0.12700
C 	C 	0.76672 0.49382 0.46271 -0.08900
C 	C 	0.74884 0.51926 0.49161 0.01400
C 	C 	0.76977 0.57274 0.48978 -0.07000
C 	C 	0.80895 0.60130 0.45941 0.04100
C 	C 	0.82876 0.57695 0.43252 -0.07000
C 	C 	0.80788 0.52350 0.43420 0.01600
C 	C 	0.82726 0.65482 0.45402 -0.02300
C 	C 	0.84340 0.69964 0.44872 -0.01500
C 	C 	0.86383 0.75321 0.44131 0.02700
C 	C 	0.90067 0.77747 0.40786 -0.05200
C 	C 	0.92334 0.83058 0.40291 -0.01600
C 	C 	0.90936 0.85996 0.43143 -0.02300
C 	C 	0.87088 0.83496 0.46353 -0.01600
C 	C 	0.84828 0.78174 0.46854 -0.05200
H 	H 	0.71791 0.49731 0.51458 0.03300
H 	H 	0.75476 0.59155 0.51120 0.04900
H 	H 	0.85947 0.59901 0.40937 0.05000
H 	H 	0.82238 0.50471 0.41190 0.03900
H 	H 	0.91247 0.75549 0.38633 0.04500
H 	H 	0.95255 0.84925 0.37760 0.04000
H 	H 	0.85982 0.85722 0.48579 0.03900
H 	H 	0.81951 0.76310 0.49423 0.04500
H 	H 	0.09376 0.99581 0.49500 0.04200
H 	H 	0.46797 0.30243 0.42922 0.03400
C 	C 	0.93871 0.89284 0.99421 -0.02300
C 	C 	0.89620 0.86571 0.02192 -0.01700
C 	C 	0.86741 0.81022 0.01929 -0.05300
C 	C 	0.88082 0.78151 0.98896 0.02800
C 	C 	0.92256 0.80826 0.96063 -0.05200
C 	C 	0.95138 0.86369 0.96315 -0.01600
C 	C 	0.85237 0.72476 0.98760 -0.01500
C 	C 	0.82848 0.67723 0.98651 -0.02300
C 	C 	0.79988 0.62050 0.98531 0.04200
C 	C 	0.82496 0.59580 0.97355 -0.07000
C 	C 	0.79718 0.54062 0.97233 0.02000
C 	C 	0.74402 0.50976 0.98290 -0.08800
C 	C 	0.71903 0.53475 0.99465 0.02000
C 	C 	0.74692 0.58991 0.99586 -0.07000
H 	H 	0.88616 0.88771 0.04619 0.04100
H 	H 	0.83506 0.78968 0.04122 0.04500
H 	H 	0.93292 0.78621 0.93688 0.04600
H 	H 	0.98358 0.88399 0.94105 0.04100
H 	H 	0.86599 0.61931 0.96543 0.05000
H 	H 	0.81712 0.52200 0.96362 0.03300
H 	H 	0.67787 0.51143 0.00240 0.03300
H 	H 	0.72728 0.60879 0.00490 0.04900
H 	H 	0.87317 0.99042 0.96039 0.04100
H 	H 	0.84000 0.29545 0.99522 0.03000
