data_crystal

_cell_length_a 20.31179
_cell_length_b 20.60643
_cell_length_c 35.14569
_cell_angle_alpha 95.46242
_cell_angle_beta  95.46334
_cell_angle_gamma 126.13044

_symmetry_space_group_name_	'P 1'
_symmetry_space_group_name_H-M	'P 1'

loop_
_symmetry_equiv_pos_as_xyz
  x,y,z

loop_
_atom_site_label
_atom_site_type_symbol
_atom_site_fract_x
_atom_site_fract_y
_atom_site_fract_z
_atom_site_charge
C 	C 	0.04078 0.98428 0.99638 -0.08900
C 	C 	0.08944 0.06824 0.99647 0.05300
C 	C 	0.05390 0.10958 0.99863 -0.09100
H 	H 	0.06827 0.95239 0.99464 0.05800
H 	H 	0.09140 0.17466 0.99845 0.05700
C 	C 	0.97638 0.88982 0.46139 -0.06900
C 	C 	0.02112 0.97395 0.46318 0.03100
C 	C 	0.97975 0.00912 0.46064 -0.06700
H 	H 	0.00891 0.86291 0.46321 0.05100
H 	H 	0.01490 0.07461 0.46203 0.05100
Cu	Cu	0.63965 0.24832 0.00667 0.92800
Cu	Cu	0.70396 0.25380 0.92398 0.87200
Cu	Cu	0.68588 0.37867 0.95721 0.89700
Cu	Cu	0.64303 0.39946 0.03455 0.89700
C 	C 	0.66104 0.30436 0.08843 0.29200
O 	O 	0.51852 0.20068 0.00621 -0.35900
C 	C 	0.65637 0.32295 0.87182 0.29200
O 	O 	0.70773 0.37564 0.01115 -0.63800
O 	O 	0.62844 0.25843 0.95140 -0.64200
O 	O 	0.69245 0.19171 0.00330 -0.36800
O 	O 	0.78289 0.27838 0.96743 -0.44200
O 	O 	0.62625 0.33953 0.07861 -0.38400
O 	O 	0.74783 0.49624 0.96639 -0.38300
C 	C 	0.74353 0.54035 0.99444 0.31100
C 	C 	0.48789 0.23720 0.99298 0.30100
O 	O 	0.53823 0.31309 0.98842 -0.39700
O 	O 	0.69086 0.50670 0.01843 -0.39200
O 	O 	0.66779 0.25968 0.06185 -0.35600
C 	C 	0.76251 0.22548 0.99046 0.30700
O 	O 	0.68291 0.38345 0.90104 -0.38300
O 	O 	0.65072 0.25766 0.87753 -0.41500
H 	H 	0.76727 0.41059 0.02337 0.16700
H 	H 	0.57082 0.22484 0.93658 0.17500
Cu	Cu	0.72145 0.29889 0.45031 0.92500
Cu	Cu	0.73411 0.25179 0.53595 0.87100
Cu	Cu	0.59811 0.25875 0.50499 0.89800
Cu	Cu	0.55813 0.28286 0.42385 0.89800
C 	C 	0.66441 0.28337 0.36983 0.29400
O 	O 	0.76839 0.41718 0.44699 -0.36700
C 	C 	0.66831 0.30028 0.58970 0.29100
O 	O 	0.59308 0.23022 0.45056 -0.63600
O 	O 	0.71977 0.31828 0.50638 -0.64100
O 	O 	0.77849 0.24553 0.45263 -0.36900
O 	O 	0.70135 0.16650 0.49458 -0.44100
O 	O 	0.59350 0.26995 0.37421 -0.38100
O 	O 	0.47873 0.19422 0.49982 -0.37900
C 	C 	0.42998 0.19370 0.47196 0.31300
C 	C 	0.72732 0.44616 0.45503 0.30400
O 	O 	0.65276 0.39782 0.46254 -0.39200
O 	O 	0.46049 0.24707 0.44855 -0.39300
O 	O 	0.70220 0.26635 0.39509 -0.36300
C 	C 	0.74839 0.18041 0.46870 0.30700
O 	O 	0.60268 0.26935 0.56208 -0.37900
O 	O 	0.73559 0.31061 0.58162 -0.41800
H 	H 	0.55956 0.17057 0.44081 0.16700
H 	H 	0.75329 0.37663 0.51895 0.17400
C 	C 	0.62818 0.36351 0.68465 -0.07300
C 	C 	0.64805 0.32607 0.70981 0.01300
C 	C 	0.67422 0.28019 0.69538 -0.00500
C 	C 	0.68037 0.27228 0.65617 -0.00400
C 	C 	0.66092 0.30990 0.63092 -0.09200
C 	C 	0.63512 0.35630 0.64538 0.05700
C 	C 	0.64327 0.33660 0.75149 0.01300
S 	S 	0.70050 0.23318 0.72629 -0.04400
H 	H 	0.70005 0.23648 0.64520 0.02800
S 	S 	0.61554 0.40899 0.61533 -0.04500
H 	H 	0.60872 0.39940 0.69578 0.05300
C 	C 	0.71335 0.40121 0.77893 -0.00600
C 	C 	0.71422 0.40010 0.81876 -0.00500
C 	C 	0.64609 0.33455 0.83151 -0.09300
C 	C 	0.57315 0.27420 0.80424 0.05700
C 	C 	0.57207 0.27564 0.76442 -0.07300
S 	S 	0.80154 0.48186 0.76369 -0.04300
H 	H 	0.76968 0.44784 0.83970 0.03900
S 	S 	0.48280 0.19705 0.81962 -0.05500
H 	H 	0.51714 0.22727 0.74340 0.05400
H 	H 	0.68785 0.48524 0.61679 0.03500
H 	H 	0.43641 0.22370 0.82656 0.03700
H 	H 	0.78233 0.28797 0.74385 0.03400
C 	C 	0.71084 0.36308 0.27602 -0.07200
C 	C 	0.69863 0.29705 0.25206 0.01400
C 	C 	0.68715 0.23198 0.26846 -0.00500
C 	C 	0.68143 0.23055 0.30784 -0.00100
C 	C 	0.68706 0.29356 0.33106 -0.08700
C 	C 	0.70492 0.36160 0.31534 0.05500
C 	C 	0.68787 0.29198 0.20934 0.01300
S 	S 	0.67692 0.15071 0.23967 -0.03100
H 	H 	0.66916 0.17878 0.31999 0.04600
S 	S 	0.71969 0.44510 0.34457 -0.05600
H 	H 	0.72161 0.41411 0.26366 0.05300
C 	C 	0.60881 0.25518 0.18682 -0.00500
C 	C 	0.60059 0.25734 0.14708 -0.00200
C 	C 	0.67049 0.29585 0.12936 -0.08600
C 	C 	0.74925 0.33028 0.15156 0.05200
C 	C 	0.75755 0.32838 0.19145 -0.07000
S 	S 	0.51984 0.20738 0.20822 -0.03600
H 	H 	0.53982 0.22999 0.12999 0.04500
H 	H 	0.81834 0.35633 0.20867 0.05400
H 	H 	0.80124 0.49951 0.36259 0.04400
H 	H 	0.50996 0.26455 0.22291 0.03700
H 	H 	0.87136 0.45889 0.13193 0.03100
H 	H 	0.59524 0.09234 0.22267 0.03900
C 	C 	0.76281 0.53067 0.45484 -0.11600
C 	C 	0.34320 0.14695 0.47248 -0.11400
C 	C 	0.26983 0.10850 0.47166 0.06400
C 	C 	0.18365 0.06348 0.46949 -0.03000
C 	C 	0.10968 0.02381 0.46688 -0.01000
C 	C 	0.78770 0.62596 0.99502 -0.11300
C 	C 	0.80943 0.19439 0.99584 -0.12000
C 	C 	0.17591 0.11112 0.99464 -0.02000
C 	C 	0.24752 0.14169 0.99334 -0.02500
C 	C 	0.33075 0.17400 0.99232 0.05800
C 	C 	0.40203 0.20153 0.99213 -0.11400
C 	C 	0.96938 0.06610 0.00074 0.05700
C 	C 	0.92115 0.98194 0.00075 -0.08400
C 	C 	0.95689 0.94118 0.99844 0.05100
H 	H 	0.85579 0.94816 0.00212 0.05900
C 	C 	0.89315 0.96016 0.45664 0.03900
C 	C 	0.84773 0.87501 0.45495 -0.07600
C 	C 	0.89000 0.84002 0.45724 0.04000
H 	H 	0.78078 0.83677 0.45208 0.05400
H 	H 	0.79290 0.54197 0.75926 0.03600
S 	S 	0.83811 0.37810 0.13012 -0.04600
C 	C 	0.84625 0.75326 0.45580 -0.01400
C 	C 	0.81739 0.68231 0.45513 -0.02700
C 	C 	0.78821 0.60051 0.45482 0.05800
C 	C 	0.85243 0.99887 0.45594 -0.01500
C 	C 	0.82483 0.03734 0.45640 -0.02600
C 	C 	0.79722 0.08665 0.45846 0.05800
C 	C 	0.77521 0.12986 0.46192 -0.11900
C 	C 	0.82459 0.69802 0.99575 0.06100
C 	C 	0.86844 0.78242 0.99675 -0.02500
C 	C 	0.90751 0.85475 0.99759 -0.01800
C 	C 	0.93060 0.10635 0.00098 -0.02000
C 	C 	0.89437 0.13624 0.00045 -0.02000
C 	C 	0.84908 0.16825 0.99869 0.05500
