data_crystal

_cell_length_a 20.61162
_cell_length_b 26.02535
_cell_length_c 26.46930
_cell_angle_alpha 90.00071
_cell_angle_beta  90.02098
_cell_angle_gamma 92.64742

_symmetry_space_group_name_	'P 1'
_symmetry_space_group_name_H-M	'P 1'

loop_
_symmetry_equiv_pos_as_xyz
  x,y,z

loop_
_atom_site_label
_atom_site_type_symbol
_atom_site_fract_x
_atom_site_fract_y
_atom_site_fract_z
_atom_site_charge
C 	C 	0.96461 0.92123 0.94408 0.10300
N 	N 	0.02570 0.93833 0.95441 -0.17600
C 	C 	0.06505 0.91130 0.92511 0.10000
C 	C 	0.13383 0.90509 0.93842 -0.07600
C 	C 	0.17613 0.95120 0.94920 0.08500
C 	C 	0.15791 0.85338 0.94826 0.04100
C 	C 	0.12466 0.81987 0.98201 -0.06200
C 	C 	0.15254 0.77445 0.99729 -0.02800
C 	C 	0.21389 0.76242 0.97915 -0.00600
C 	C 	0.21814 0.84019 0.92869 -0.06100
N 	N 	0.16209 0.99838 0.93267 -0.12800
C 	C 	0.21936 0.95446 0.98926 -0.05600
C 	C 	0.19781 0.03163 0.96150 0.08400
C 	C 	0.18566 0.08697 0.96406 -0.07700
C 	C 	0.24022 0.12420 0.97515 0.04300
C 	C 	0.34388 0.16483 0.95093 -0.03500
C 	C 	0.23459 0.16057 0.01386 -0.06300
C 	C 	0.28236 0.20000 0.01988 -0.03700
C 	C 	0.33588 0.20332 0.98717 0.00200
N 	N 	0.06494 0.08299 0.96269 -0.17300
C 	C 	0.01947 0.11789 0.95536 0.09200
C 	C 	0.04765 0.16310 0.93584 -0.06400
C 	C 	0.11297 0.15503 0.93068 -0.06600
C 	C 	0.95335 0.11333 0.97813 -0.07500
C 	C 	0.90919 0.15637 0.97464 0.04600
C 	C 	0.85850 0.22188 0.92498 -0.03500
C 	C 	0.83182 0.24192 0.96910 0.00200
C 	C 	0.83993 0.21675 0.01534 -0.03700
C 	C 	0.87992 0.17499 0.01838 -0.06200
N 	N 	0.90820 0.02426 0.96868 -0.13200
C 	C 	0.92223 0.99558 0.04785 -0.06300
C 	C 	0.90370 0.98261 0.99903 0.09200
C 	C 	0.90982 0.93040 0.97862 -0.07900
C 	C 	0.86306 0.88795 0.99422 0.05300
C 	C 	0.79732 0.89778 0.00200 -0.06900
C 	C 	0.75245 0.85739 0.01298 -0.02900
C 	C 	0.77220 0.80651 0.01430 -0.00400
C 	C 	0.83800 0.79677 0.00753 -0.02900
C 	C 	0.88365 0.83753 0.00025 -0.07100
C 	C 	0.96440 0.88361 0.90706 -0.06300
C 	C 	0.02882 0.87697 0.89514 -0.06800
C 	C 	0.24654 0.79543 0.94481 -0.03100
C 	C 	0.23329 0.00608 0.99705 -0.06500
C 	C 	0.12198 0.10556 0.94781 0.09800
C 	C 	0.93777 0.04767 0.04743 -0.07300
C 	C 	0.92783 0.06379 0.99853 0.09400
C 	C 	0.89566 0.17842 0.92757 -0.05900
H 	H 	0.04000 0.95576 0.98848 0.08800
H 	H 	0.06060 0.05247 0.98829 0.09000
H 	H 	0.70173 0.86535 0.01809 0.03300
H 	H 	0.85344 0.75765 0.00615 0.03100
H 	H 	0.78064 0.93645 0.99828 0.05000
H 	H 	0.93466 0.82963 0.99745 0.04600
H 	H 	0.12721 0.74924 0.02405 0.02900
H 	H 	0.24407 0.86568 0.90250 0.04300
H 	H 	0.29450 0.78684 0.93140 0.03100
H 	H 	0.07836 0.82986 0.99770 0.04300
H 	H 	0.27678 0.22884 0.04888 0.03400
H 	H 	0.19226 0.15922 0.03817 0.04100
C 	C 	0.29590 0.12568 0.94459 -0.05900
H 	H 	0.38595 0.16649 0.92636 0.03300
H 	H 	0.85050 0.24000 0.88881 0.03500
H 	H 	0.91527 0.16266 0.89322 0.04600
H 	H 	0.88832 0.15726 0.05467 0.04200
H 	H 	0.81555 0.22971 0.04891 0.03200
H 	H 	0.92511 0.85549 0.90004 0.04600
H 	H 	0.04686 0.84218 0.87899 0.04500
H 	H 	0.22361 0.92519 0.01800 0.04000
H 	H 	0.25021 0.02252 0.03252 0.04100
H 	H 	0.02804 0.20073 0.93992 0.04300
H 	H 	0.15045 0.18549 0.92873 0.04400
H 	H 	0.94192 0.96898 0.07464 0.04300
H 	H 	0.97037 0.06707 0.07407 0.04300
H 	H 	0.30100 0.09748 0.91492 0.04400
C 	C 	0.90310 0.89274 0.49971 0.09800
N 	N 	0.96062 0.91825 0.50675 -0.17200
C 	C 	0.00306 0.89665 0.47548 0.09500
C 	C 	0.07375 0.89966 0.48507 -0.07500
C 	C 	0.11058 0.94933 0.47920 0.08600
C 	C 	0.10795 0.85268 0.49816 0.03900
C 	C 	0.08192 0.81838 0.53465 -0.05900
C 	C 	0.11170 0.77222 0.54432 -0.03500
C 	C 	0.16751 0.75996 0.51748 -0.00100
C 	C 	0.16523 0.84116 0.47272 -0.05900
N 	N 	0.08987 0.98694 0.44915 -0.12800
C 	C 	0.15424 0.96890 0.51470 -0.06000
C 	C 	0.12137 0.03065 0.46478 0.08500
C 	C 	0.09516 0.08151 0.45504 -0.07500
C 	C 	0.13855 0.12833 0.45604 0.03900
C 	C 	0.22253 0.18328 0.41681 -0.03500
C 	C 	0.13785 0.16173 0.49758 -0.05900
C 	C 	0.18029 0.20525 0.49921 -0.03500
C 	C 	0.22246 0.21649 0.45862 -0.00100
N 	N 	0.97887 0.06398 0.47479 -0.17100
C 	C 	0.92332 0.08642 0.46300 0.10000
C 	C 	0.93418 0.12169 0.42418 -0.06700
C 	C 	0.99948 0.12103 0.41259 -0.05600
C 	C 	0.86877 0.08858 0.49928 -0.07600
C 	C 	0.83675 0.13753 0.50818 0.04000
C 	C 	0.73999 0.18693 0.50385 -0.03500
C 	C 	0.77775 0.23251 0.51153 -0.00100
C 	C 	0.84516 0.23037 0.51777 -0.03500
C 	C 	0.87422 0.18292 0.51787 -0.06000
N 	N 	0.84081 0.99502 0.49878 -0.12700
C 	C 	0.82491 0.98203 0.58199 -0.06000
C 	C 	0.82901 0.95934 0.53494 0.08600
C 	C 	0.84325 0.90480 0.52744 -0.07400
C 	C 	0.79445 0.86320 0.54242 0.03900
C 	C 	0.72793 0.87311 0.54432 -0.05600
C 	C 	0.68176 0.83307 0.55311 -0.03400
C 	C 	0.70100 0.78224 0.55779 -0.00000
C 	C 	0.76746 0.77257 0.55822 -0.03400
C 	C 	0.81398 0.81314 0.55273 -0.05800
C 	C 	0.90760 0.85586 0.46248 -0.06600
C 	C 	0.97193 0.85774 0.44743 -0.05800
C 	C 	0.19524 0.79525 0.48275 -0.03400
C 	C 	0.16119 0.02102 0.50549 -0.06600
C 	C 	0.02521 0.08515 0.44448 0.09200
C 	C 	0.83319 0.03432 0.57412 -0.06800
C 	C 	0.84207 0.04068 0.52273 0.08500
C 	C 	0.76928 0.13968 0.50232 -0.05900
H 	H 	0.97331 0.93973 0.53893 0.08800
H 	H 	0.98797 0.04672 0.50960 0.09000
H 	H 	0.63063 0.84107 0.55319 0.03300
H 	H 	0.78304 0.73353 0.56164 0.03400
H 	H 	0.71168 0.91143 0.53732 0.04400
H 	H 	0.86505 0.80527 0.55466 0.04100
H 	H 	0.09087 0.74568 0.57205 0.03200
H 	H 	0.18576 0.86728 0.44449 0.04400
H 	H 	0.23907 0.78641 0.46257 0.03400
H 	H 	0.03832 0.82726 0.55512 0.04200
H 	H 	0.18072 0.23007 0.53208 0.03500
H 	H 	0.10526 0.15350 0.52895 0.04100
C 	C 	0.18076 0.13937 0.41555 -0.05800
H 	H 	0.25568 0.19107 0.38570 0.03300
H 	H 	0.68810 0.18833 0.49777 0.03200
H 	H 	0.73987 0.10497 0.49470 0.04300
H 	H 	0.92624 0.18161 0.52323 0.04300
H 	H 	0.87496 0.26545 0.52234 0.03300
H 	H 	0.87297 0.82405 0.45586 0.04600
H 	H 	0.99587 0.82608 0.43003 0.04400
H 	H 	0.16293 0.95129 0.55099 0.04400
H 	H 	0.17571 0.04925 0.53385 0.04400
H 	H 	0.90373 0.15338 0.41577 0.04700
H 	H 	0.02705 0.15243 0.39471 0.04000
H 	H 	0.83504 0.96305 0.61733 0.04400
H 	H 	0.85025 0.06165 0.60254 0.04400
H 	H 	0.18141 0.11384 0.38325 0.04200
Ni	Ni	0.49753 0.54852 0.05048 1.09900
O 	O 	0.57777 0.50809 0.03483 -0.70400
Ni	Ni	0.55752 0.48204 0.96497 1.09800
O 	O 	0.51130 0.54874 0.12733 -0.36500
O 	O 	0.51907 0.46167 0.12844 -0.40000
O 	O 	0.55182 0.61767 0.04801 -0.37400
Ni	Ni	0.59468 0.44960 0.07844 1.06700
O 	O 	0.44591 0.63809 0.98893 -0.41300
O 	O 	0.54207 0.38608 0.05180 -0.40300
O 	O 	0.62929 0.43077 0.95360 -0.39000
O 	O 	0.48289 0.52953 0.97779 -0.69900
O 	O 	0.41694 0.58980 0.05848 -0.38500
O 	O 	0.52906 0.47167 0.89105 -0.36400
O 	O 	0.53535 0.55827 0.87696 -0.40100
Ni	Ni	0.49008 0.59223 0.93774 1.06500
H 	H 	0.61718 0.53125 0.03348 0.15500
H 	H 	0.43970 0.51189 0.97317 0.15600
C 	C 	0.50768 0.38266 0.00996 0.29600
O 	O 	0.57984 0.61054 0.96537 -0.42300
C 	C 	0.51444 0.50545 0.15262 0.24400
C 	C 	0.66443 0.40988 0.98945 0.29900
C 	C 	0.58598 0.63416 0.00869 0.29500
C 	C 	0.51927 0.51136 0.86157 0.24700
C 	C 	0.40134 0.62102 0.02161 0.28200
O 	O 	0.49239 0.42433 0.98562 -0.40000
O 	O 	0.67095 0.43155 0.03456 -0.42800
Ni	Ni	0.42821 0.51900 0.55306 1.09700
O 	O 	0.51165 0.48013 0.54407 -0.70100
Ni	Ni	0.51073 0.46777 0.46850 1.09700
O 	O 	0.43088 0.51819 0.63073 -0.35800
O 	O 	0.45240 0.43372 0.63856 -0.39700
O 	O 	0.48043 0.58884 0.56121 -0.37600
Ni	Ni	0.50503 0.41185 0.57605 1.06400
O 	O 	0.38403 0.61482 0.49704 -0.42100
O 	O 	0.41795 0.39320 0.54260 -0.42000
O 	O 	0.59500 0.42989 0.46527 -0.39000
O 	O 	0.42726 0.50643 0.47751 -0.70200
O 	O 	0.34450 0.55720 0.55583 -0.39200
O 	O 	0.50556 0.46769 0.39067 -0.35800
O 	O 	0.49419 0.55402 0.38590 -0.39800
Ni	Ni	0.43561 0.57449 0.44554 1.06300
H 	H 	0.55121 0.50023 0.55485 0.15400
H 	H 	0.38759 0.48664 0.46647 0.15300
C 	C 	0.41430 0.38044 0.49486 0.29500
O 	O 	0.52063 0.59063 0.48159 -0.42900
C 	C 	0.45548 0.48064 0.65661 0.25100
C 	C 	0.60433 0.39248 0.49746 0.29000
C 	C 	0.52019 0.60936 0.52711 0.30200
C 	C 	0.49141 0.50864 0.36446 0.25100
C 	C 	0.33543 0.59555 0.52466 0.29000
O 	O 	0.45865 0.39792 0.46258 -0.37600
O 	O 	0.55508 0.37235 0.52356 -0.42200
C 	C 	0.46959 0.48835 0.71040 0.03300
N 	N 	0.47394 0.53654 0.73002 -0.07200
N 	N 	0.48971 0.54377 0.77837 -0.07800
C 	C 	0.50163 0.50303 0.80848 0.03300
N 	N 	0.49685 0.45478 0.78899 -0.07200
N 	N 	0.48139 0.44756 0.74053 -0.07600
C 	C 	0.50439 0.50526 0.20746 0.03600
N 	N 	0.51078 0.46145 0.23460 -0.07500
N 	N 	0.50472 0.46200 0.28476 -0.07100
C 	C 	0.49202 0.50635 0.30908 0.03600
N 	N 	0.48434 0.54982 0.28178 -0.07400
N 	N 	0.49055 0.54930 0.23172 -0.06700
C 	C 	0.19698 0.71003 0.52540 0.00700
C 	C 	0.19387 0.67160 0.48750 0.00200
C 	C 	0.23538 0.63049 0.49053 -0.01300
C 	C 	0.27823 0.62652 0.53126 -0.10800
C 	C 	0.27358 0.66038 0.57289 0.07900
C 	C 	0.23441 0.70288 0.56882 -0.08900
H 	H 	0.23635 0.60278 0.45996 0.01400
H 	H 	0.23447 0.73119 0.59890 0.04800
C 	C 	0.14510 0.67285 0.44453 -0.09500
C 	C 	0.30959 0.65156 0.62187 -0.12300
C 	C 	0.08611 0.63577 0.45371 -0.02100
H 	H 	0.10231 0.59656 0.46233 0.02600
H 	H 	0.05682 0.63311 0.41846 0.02300
C 	C 	0.37739 0.67848 0.62151 -0.01300
H 	H 	0.37322 0.72050 0.61559 0.02600
H 	H 	0.40654 0.66320 0.59029 0.05100
H 	H 	0.12822 0.71198 0.43700 0.04900
H 	H 	0.31313 0.60981 0.62931 0.07400
C 	C 	0.04266 0.65365 0.49641 -0.16000
C 	C 	0.41347 0.66983 0.67093 -0.16300
H 	H 	0.02669 0.69310 0.48881 0.05800
H 	H 	0.99891 0.62728 0.49924 0.05600
H 	H 	0.06878 0.65308 0.53309 0.06100
H 	H 	0.16930 0.66111 0.40909 0.03900
H 	H 	0.38655 0.68583 0.70323 0.05600
H 	H 	0.46241 0.68944 0.66910 0.06100
H 	H 	0.41942 0.62810 0.67714 0.07900
H 	H 	0.28129 0.66671 0.65396 0.05000
C 	C 	0.55856 0.65757 0.53843 -0.10300
C 	C 	0.56507 0.69775 0.50228 0.07300
C 	C 	0.61580 0.73510 0.50753 -0.08300
C 	C 	0.65185 0.73907 0.55236 0.00600
C 	C 	0.63841 0.70353 0.59206 0.00200
C 	C 	0.59342 0.66191 0.58391 -0.01200
H 	H 	0.62411 0.76362 0.47807 0.04900
H 	H 	0.58543 0.63308 0.61310 0.03500
C 	C 	0.51248 0.70652 0.46331 -0.10600
C 	C 	0.66624 0.71235 0.64450 -0.09500
C 	C 	0.45358 0.73207 0.48635 -0.02500
H 	H 	0.43373 0.70867 0.51818 0.04200
H 	H 	0.41494 0.73342 0.45714 0.02400
C 	C 	0.62612 0.75046 0.67403 -0.02400
H 	H 	0.57490 0.73537 0.67680 0.02800
H 	H 	0.62669 0.78802 0.65400 0.03100
H 	H 	0.53235 0.73109 0.43203 0.04700
H 	H 	0.71775 0.72657 0.64268 0.04800
C 	C 	0.46955 0.78683 0.50493 -0.15500
C 	C 	0.65286 0.75920 0.72729 -0.15800
H 	H 	0.49334 0.81039 0.47459 0.05600
H 	H 	0.42398 0.80495 0.51609 0.05400
H 	H 	0.50187 0.78641 0.53849 0.05900
H 	H 	0.49554 0.67033 0.44467 0.02600
H 	H 	0.65146 0.72246 0.74872 0.05600
H 	H 	0.62277 0.78688 0.74755 0.05300
H 	H 	0.70368 0.77532 0.72567 0.05700
H 	H 	0.66612 0.67524 0.66538 0.04500
C 	C 	0.74758 0.28260 0.50639 0.00800
C 	C 	0.73417 0.31312 0.54913 0.00100
C 	C 	0.69449 0.35513 0.54348 -0.01100
C 	C 	0.66546 0.36540 0.49688 -0.11300
C 	C 	0.68567 0.33909 0.45318 0.08000
C 	C 	0.72598 0.29745 0.45855 -0.08900
H 	H 	0.68192 0.37737 0.57643 0.01000
H 	H 	0.73862 0.27527 0.42558 0.04900
C 	C 	0.76097 0.30143 0.60116 -0.09600
C 	C 	0.66473 0.35465 0.40068 -0.12300
C 	C 	0.70894 0.27754 0.63678 -0.02100
H 	H 	0.66469 0.30041 0.63633 0.01800
H 	H 	0.72839 0.27874 0.67595 0.02300
C 	C 	0.59950 0.32797 0.38592 -0.01100
H 	H 	0.56058 0.34060 0.41133 0.04700
H 	H 	0.60243 0.28557 0.38955 0.02500
H 	H 	0.80333 0.27679 0.59990 0.04800
H 	H 	0.70229 0.34398 0.37286 0.05000
C 	C 	0.69037 0.22167 0.62366 -0.15900
C 	C 	0.58087 0.34079 0.33171 -0.16500
H 	H 	0.73413 0.19833 0.62253 0.06000
H 	H 	0.65662 0.20528 0.65276 0.05200
H 	H 	0.66534 0.21946 0.58662 0.05900
H 	H 	0.77977 0.33823 0.61823 0.04100
H 	H 	0.57779 0.38302 0.32708 0.07900
H 	H 	0.53275 0.32210 0.32268 0.06400
H 	H 	0.61730 0.32652 0.30483 0.05700
H 	H 	0.66234 0.39705 0.39775 0.07200
C 	C 	0.27207 0.25935 0.46264 0.00800
C 	C 	0.25506 0.31149 0.46032 0.00300
C 	C 	0.30288 0.35072 0.46962 -0.00800
C 	C 	0.36736 0.33888 0.47929 -0.10400
C 	C 	0.38507 0.28690 0.47802 0.08000
C 	C 	0.33695 0.24770 0.47066 -0.08800
H 	H 	0.28969 0.39059 0.46941 0.02100
H 	H 	0.34997 0.20780 0.47190 0.04900
C 	C 	0.18719 0.32622 0.44554 -0.09500
C 	C 	0.45458 0.27229 0.48626 -0.13200
C 	C 	0.18396 0.34421 0.39034 -0.02200
H 	H 	0.22132 0.37557 0.38325 0.02700
H 	H 	0.13564 0.36023 0.38365 0.02300
C 	C 	0.46787 0.26222 0.54235 0.00100
H 	H 	0.43201 0.23267 0.55706 0.02300
H 	H 	0.46280 0.29812 0.56441 0.01200
H 	H 	0.14985 0.29487 0.45203 0.04800
H 	H 	0.48928 0.30236 0.47155 0.07600
C 	C 	0.19289 0.30057 0.35272 -0.15700
C 	C 	0.53606 0.24317 0.55046 -0.17200
H 	H 	0.15695 0.26828 0.35997 0.05800
H 	H 	0.18543 0.31491 0.31374 0.05400
H 	H 	0.24282 0.28649 0.35530 0.06200
H 	H 	0.17289 0.35838 0.47020 0.04200
H 	H 	0.54117 0.20558 0.53134 0.05700
H 	H 	0.54470 0.23809 0.59153 0.05200
H 	H 	0.57338 0.27127 0.53546 0.06900
H 	H 	0.46371 0.23697 0.46416 0.05300
C 	C 	0.33880 0.64553 0.02271 -0.11500
C 	C 	0.32817 0.68647 0.05638 0.08400
C 	C 	0.28229 0.72257 0.04379 -0.09600
C 	C 	0.24636 0.71743 0.99897 0.01500
C 	C 	0.24957 0.67201 0.96999 -0.00300
C 	C 	0.29601 0.63634 0.98224 -0.00800
H 	H 	0.27681 0.75599 0.06762 0.04900
H 	H 	0.30187 0.60321 0.95809 0.01000
C 	C 	0.36387 0.69125 0.10643 -0.12100
C 	C 	0.20516 0.66177 0.92513 -0.09400
C 	C 	0.43062 0.71981 0.10220 -0.01600
H 	H 	0.46237 0.69954 0.07577 0.05000
H 	H 	0.45438 0.71937 0.13988 0.03200
C 	C 	0.24054 0.67382 0.87518 -0.02400
H 	H 	0.28265 0.64892 0.87121 0.01900
H 	H 	0.25912 0.71453 0.87469 0.02800
H 	H 	0.33386 0.71143 0.13443 0.05000
H 	H 	0.16076 0.68428 0.92784 0.04800
C 	C 	0.42611 0.77580 0.08559 -0.15800
C 	C 	0.19555 0.66475 0.82992 -0.15800
H 	H 	0.39355 0.79646 0.11124 0.05600
H 	H 	0.47518 0.79525 0.08681 0.05500
H 	H 	0.40764 0.77792 0.04629 0.05900
H 	H 	0.37030 0.65244 0.12262 0.07100
H 	H 	0.17704 0.62400 0.82876 0.05400
H 	H 	0.22272 0.67344 0.79448 0.05200
H 	H 	0.15389 0.69027 0.83208 0.05500
H 	H 	0.18827 0.62054 0.92544 0.04200
C 	C 	0.72270 0.76338 0.01511 0.00300
C 	C 	0.71553 0.72967 0.05716 0.00500
C 	C 	0.66891 0.68841 0.05495 -0.01200
C 	C 	0.62835 0.68148 0.01268 -0.10400
C 	C 	0.63019 0.71915 0.97389 0.07100
C 	C 	0.68020 0.75751 0.97394 -0.07900
H 	H 	0.66331 0.66220 0.08661 0.03600
H 	H 	0.68381 0.78485 0.94303 0.04800
C 	C 	0.75104 0.74078 0.10671 -0.09700
C 	C 	0.57337 0.72476 0.93799 -0.10500
C 	C 	0.79173 0.69615 0.12478 -0.02300
H 	H 	0.76099 0.66024 0.12900 0.02600
H 	H 	0.81149 0.70594 0.16284 0.02600
C 	C 	0.51925 0.75387 0.96353 -0.03000
H 	H 	0.53779 0.79330 0.97382 0.03100
H 	H 	0.50374 0.73368 0.99868 0.04400
H 	H 	0.78273 0.77638 0.10545 0.05000
H 	H 	0.55377 0.68724 0.92373 0.02700
C 	C 	0.84861 0.68615 0.08977 -0.15600
C 	C 	0.46023 0.75788 0.92908 -0.15000
H 	H 	0.88184 0.72088 0.08734 0.05600
H 	H 	0.87633 0.65407 0.10512 0.05200
H 	H 	0.83090 0.67511 0.05149 0.05800
H 	H 	0.71394 0.74778 0.13608 0.04600
H 	H 	0.47399 0.77898 0.89392 0.05000
H 	H 	0.42224 0.77911 0.94886 0.05400
H 	H 	0.43963 0.71899 0.91916 0.04400
H 	H 	0.58999 0.74647 0.90379 0.04400
C 	C 	0.79338 0.28824 0.96658 0.00700
C 	C 	0.81741 0.33591 0.98656 0.00200
C 	C 	0.77533 0.37666 0.99046 -0.00400
C 	C 	0.71037 0.37050 0.97487 -0.10600
C 	C 	0.68935 0.32507 0.94877 0.07000
C 	C 	0.73110 0.28419 0.94546 -0.08600
H 	H 	0.79322 0.41344 0.00531 0.03100
H 	H 	0.71481 0.24882 0.92675 0.04600
C 	C 	0.88932 0.34585 0.99794 -0.09100
C 	C 	0.62480 0.32080 0.92129 -0.12000
C 	C 	0.90290 0.36351 0.05259 -0.02700
H 	H 	0.87755 0.39922 0.06111 0.02600
H 	H 	0.95582 0.37292 0.05644 0.02400
C 	C 	0.63093 0.34232 0.86745 -0.01100
H 	H 	0.66476 0.31904 0.84530 0.02500
H 	H 	0.65097 0.38269 0.86829 0.04600
H 	H 	0.91862 0.31210 0.98981 0.04900
H 	H 	0.58695 0.34041 0.94231 0.06300
C 	C 	0.88360 0.32246 0.09166 -0.15500
C 	C 	0.56512 0.34100 0.84084 -0.16400
H 	H 	0.90981 0.28684 0.08454 0.05600
H 	H 	0.89680 0.33680 0.12998 0.05100
H 	H 	0.83036 0.31379 0.09074 0.05600
H 	H 	0.90817 0.37672 0.97210 0.04300
H 	H 	0.54471 0.30083 0.83813 0.05800
H 	H 	0.57108 0.35680 0.80207 0.06600
H 	H 	0.53055 0.36464 0.86181 0.07800
H 	H 	0.60731 0.27981 0.91905 0.04800
C 	C 	0.47149 0.33311 0.99777 -0.09700
C 	C 	0.48324 0.28661 0.02391 0.07100
C 	C 	0.43429 0.24705 0.02398 -0.08800
C 	C 	0.38259 0.24795 0.98975 0.00800
C 	C 	0.37698 0.29065 0.95721 0.00400
C 	C 	0.42076 0.33323 0.96218 -0.01400
H 	H 	0.43684 0.21501 0.04978 0.05000
H 	H 	0.41414 0.36703 0.93915 0.04200
C 	C 	0.54721 0.27944 0.05173 -0.12100
C 	C 	0.32190 0.29290 0.91937 -0.09500
C 	C 	0.56946 0.22381 0.05595 -0.01200
H 	H 	0.53429 0.19927 0.07795 0.02300
H 	H 	0.61559 0.22471 0.07779 0.02200
C 	C 	0.26241 0.31673 0.94315 -0.02400
H 	H 	0.27518 0.35702 0.95472 0.02900
H 	H 	0.24672 0.29475 0.97732 0.03200
H 	H 	0.58723 0.30202 0.03270 0.05800
H 	H 	0.30839 0.25416 0.90407 0.04900
C 	C 	0.58228 0.19915 0.00473 -0.17100
C 	C 	0.20560 0.31682 0.90613 -0.15700
H 	H 	0.62397 0.21963 0.98598 0.06200
H 	H 	0.59472 0.15851 0.01043 0.05700
H 	H 	0.53904 0.19973 0.97980 0.06400
H 	H 	0.54242 0.29473 0.09068 0.05800
H 	H 	0.21925 0.33957 0.87193 0.05600
H 	H 	0.16352 0.33440 0.92443 0.05300
H 	H 	0.19084 0.27686 0.89483 0.05600
H 	H 	0.33823 0.31653 0.88631 0.04600
