data_crystal

_cell_length_a 31.04326
_cell_length_b 25.23362
_cell_length_c 29.16477
_cell_angle_alpha 89.93250
_cell_angle_beta  89.92690
_cell_angle_gamma 90.89884

_symmetry_space_group_name_	'P 1'
_symmetry_space_group_name_H-M	'P 1'

loop_
_symmetry_equiv_pos_as_xyz
  x,y,z

loop_
_atom_site_label
_atom_site_type_symbol
_atom_site_fract_x
_atom_site_fract_y
_atom_site_fract_z
_atom_site_charge
Zn	Zn	0.49593 0.50131 0.97307 1.23200
C 	C 	0.53706 0.59860 0.94522 0.31100
O 	O 	0.54623 0.46402 0.99635 -0.39500
O 	O 	0.52454 0.61428 0.98593 -0.43700
O 	O 	0.58825 0.53471 0.01548 -0.48000
C 	C 	0.44730 0.56135 0.03648 0.32200
O 	O 	0.45291 0.55059 0.99303 -0.43300
O 	O 	0.47990 0.55920 0.06506 -0.49600
C 	C 	0.58418 0.48721 0.99753 0.31600
O 	O 	0.45264 0.43532 0.00696 -0.31300
Zn	Zn	0.53904 0.57044 0.04329 1.16800
O 	O 	0.52626 0.55066 0.93088 -0.35800
C 	C 	0.44717 0.41733 0.96579 0.28100
O 	O 	0.46594 0.44439 0.93330 -0.27900
Zn	Zn	0.32568 0.13232 0.01518 1.21900
C 	C 	0.36719 0.12345 0.10258 0.29000
O 	O 	0.26285 0.12193 0.02049 -0.45200
O 	O 	0.35711 0.17220 0.11368 -0.43200
O 	O 	0.26452 0.13873 0.09722 -0.48500
C 	C 	0.35138 0.24082 0.01847 0.32000
O 	O 	0.36570 0.19223 0.01661 -0.46700
O 	O 	0.31871 0.25189 0.04524 -0.48900
C 	C 	0.24410 0.12047 0.06100 0.31800
O 	O 	0.32285 0.14791 0.93486 -0.30300
Zn	Zn	0.29890 0.20373 0.09338 1.17600
O 	O 	0.34397 0.09771 0.07204 -0.44000
C 	C 	0.34386 0.10380 0.93169 0.25500
O 	O 	0.34669 0.07813 0.97004 -0.38000
C 	C 	0.51833 0.06025 0.73426 0.13600
C 	C 	0.55516 0.04177 0.75668 -0.09000
H 	H 	0.58095 0.02549 0.73645 0.06700
C 	C 	0.55819 0.04435 0.80478 0.02700
C 	C 	0.52590 0.07120 0.82898 -0.06400
C 	C 	0.48636 0.08306 0.80797 0.03200
C 	C 	0.48351 0.07957 0.75980 -0.08900
H 	H 	0.45478 0.09165 0.74199 0.06900
N 	N 	0.51555 0.05696 0.68511 -0.17900
C 	C 	0.49632 0.01336 0.66529 0.20400
C 	C 	0.49871 0.00581 0.61750 -0.06400
C 	C 	0.52143 0.04295 0.59049 0.05500
C 	C 	0.53789 0.08941 0.61087 -0.07200
C 	C 	0.53458 0.09582 0.65873 0.19700
C 	C 	0.47792 0.96250 0.59639 -0.00400
C 	C 	0.48135 0.95494 0.54913 -0.04700
C 	C 	0.50867 0.98813 0.52237 0.00300
C 	C 	0.52687 0.03416 0.54285 -0.01100
C 	C 	0.54898 0.07252 0.51580 0.01300
C 	C 	0.55649 0.12918 0.58320 0.01000
C 	C 	0.56049 0.12171 0.53598 -0.05100
C 	C 	0.51647 0.97776 0.47511 0.01400
C 	C 	0.53871 0.01608 0.44812 -0.02400
C 	C 	0.55710 0.06192 0.46869 0.02100
O 	O 	0.55069 0.13878 0.67837 -0.18700
O 	O 	0.47652 0.97771 0.69122 -0.21100
H 	H 	0.56683 0.16664 0.59796 0.05300
H 	H 	0.57043 0.15518 0.51517 0.05000
H 	H 	0.45791 0.93544 0.61628 0.04900
H 	H 	0.46096 0.92506 0.53340 0.04600
C 	C 	0.58494 0.09471 0.44218 -0.05700
C 	C 	0.58868 0.08705 0.39495 0.01600
C 	C 	0.56744 0.04420 0.37365 -0.08300
C 	C 	0.54407 0.00746 0.40046 0.07500
C 	C 	0.50439 0.92890 0.45466 -0.05900
C 	C 	0.50790 0.92189 0.40733 0.01500
C 	C 	0.52681 0.96158 0.37983 -0.09300
C 	C 	0.56992 0.03675 0.32585 0.20800
N 	N 	0.54952 0.99415 0.30574 -0.18500
C 	C 	0.52965 0.95568 0.33189 0.20000
C 	C 	0.54627 0.99176 0.25658 0.12400
C 	C 	0.51374 0.01955 0.23427 -0.08700
C 	C 	0.50989 0.01805 0.18622 0.03900
C 	C 	0.53974 0.98799 0.16090 -0.08200
C 	C 	0.57147 0.95771 0.18320 0.03000
C 	C 	0.57501 0.96094 0.23135 -0.09200
O 	O 	0.59101 0.07154 0.30020 -0.19300
O 	O 	0.51208 0.91377 0.31193 -0.20700
H 	H 	0.49115 0.04177 0.25462 0.06200
H 	H 	0.59966 0.93973 0.24952 0.06700
H 	H 	0.60542 0.12436 0.45811 0.05300
H 	H 	0.60913 0.11379 0.37523 0.05000
H 	H 	0.49441 0.89531 0.47527 0.04900
H 	H 	0.49705 0.88474 0.39237 0.04300
H 	H 	0.53805 0.98699 0.12408 0.04200
H 	H 	0.52874 0.07511 0.86560 0.04800
Zn	Zn	0.68976 0.84220 0.97368 1.22900
C 	C 	0.66892 0.82072 0.06706 0.29000
O 	O 	0.73698 0.88008 0.00628 -0.44000
O 	O 	0.70651 0.80093 0.07706 -0.42700
O 	O 	0.77910 0.80678 0.00792 -0.48000
C 	C 	0.67426 0.73263 0.95472 0.31300
O 	O 	0.68450 0.77868 0.93626 -0.43300
O 	O 	0.68492 0.72246 0.99753 -0.42400
C 	C 	0.77448 0.85795 0.01376 0.33000
O 	O 	0.70093 0.89090 0.90396 -0.29200
Zn	Zn	0.73559 0.75510 0.02664 1.18500
O 	O 	0.65487 0.81676 0.02505 -0.45900
C 	C 	0.66533 0.91381 0.91591 0.25700
O 	O 	0.64944 0.89896 0.95479 -0.39200
Zn	Zn	0.19755 0.64861 0.02100 1.22700
C 	C 	0.16941 0.64772 0.11398 0.28400
O 	O 	0.14873 0.69710 0.02127 -0.45900
O 	O 	0.17512 0.69913 0.11843 -0.43500
O 	O 	0.19166 0.76899 0.03597 -0.51000
C 	C 	0.28272 0.65437 0.05635 0.30600
O 	O 	0.26012 0.65296 0.01830 -0.42100
O 	O 	0.26909 0.68181 0.09162 -0.46900
C 	C 	0.15457 0.74870 0.02244 0.33900
O 	O 	0.19518 0.64661 0.93976 -0.29800
Zn	Zn	0.22576 0.73654 0.08456 1.17100
O 	O 	0.19220 0.62215 0.08360 -0.39800
C 	C 	0.17831 0.59948 0.94514 0.26700
O 	O 	0.17499 0.58408 0.98735 -0.33700
C 	C 	0.98670 0.50080 0.26125 0.13900
C 	C 	0.95848 0.47435 0.23131 -0.09300
H 	H 	0.93377 0.44867 0.24561 0.06800
C 	C 	0.96272 0.48112 0.18350 0.03100
C 	C 	0.99563 0.51507 0.16667 -0.06700
C 	C 	0.02494 0.54060 0.19650 0.02900
C 	C 	0.01942 0.53403 0.24410 -0.09800
H 	H 	0.04037 0.55413 0.26819 0.06500
N 	N 	0.98307 0.49261 0.30983 -0.18000
C 	C 	0.00419 0.45121 0.32977 0.19800
C 	C 	0.00922 0.44927 0.37768 -0.08500
C 	C 	0.99229 0.49003 0.40466 0.07200
C 	C 	0.96665 0.52874 0.38408 -0.08200
C 	C 	0.96214 0.52920 0.33607 0.20000
C 	C 	0.03047 0.40714 0.39887 0.01500
C 	C 	0.03702 0.40723 0.44620 -0.05800
C 	C 	0.02547 0.45162 0.47289 0.02100
C 	C 	0.00055 0.49171 0.45234 -0.03600
C 	C 	0.98262 0.53246 0.47931 0.02300
C 	C 	0.94572 0.56595 0.41163 0.01500
C 	C 	0.95231 0.56655 0.45896 -0.05800
C 	C 	0.03653 0.45564 0.52007 0.01700
C 	C 	0.01874 0.49654 0.54700 -0.03000
C 	C 	0.99382 0.53662 0.52643 0.02000
O 	O 	0.93905 0.56608 0.31613 -0.19600
O 	O 	0.02134 0.41431 0.30383 -0.19800
H 	H 	0.92348 0.59373 0.39667 0.04800
H 	H 	0.93225 0.59169 0.47965 0.05200
H 	H 	0.04102 0.37352 0.37896 0.04700
H 	H 	0.04906 0.37169 0.46201 0.05100
C 	C 	0.98255 0.58124 0.55296 -0.05600
C 	C 	0.98951 0.58170 0.60022 0.01800
C 	C 	0.01077 0.53962 0.62150 -0.08300
C 	C 	0.02720 0.49842 0.59464 0.06400
C 	C 	0.06663 0.42132 0.54050 -0.05500
C 	C 	0.07320 0.42197 0.58783 0.01300
C 	C 	0.05260 0.45953 0.61530 -0.07900
C 	C 	0.01635 0.53822 0.66935 0.19900
N 	N 	0.03722 0.49671 0.68942 -0.18000
C 	C 	0.05733 0.45933 0.66328 0.19800
C 	C 	0.03438 0.48947 0.73816 0.13400
C 	C 	0.06661 0.51024 0.76673 -0.09300
C 	C 	0.06369 0.50373 0.81469 0.03200
C 	C 	0.02886 0.47380 0.83290 -0.07300
C 	C 	0.99514 0.45500 0.80443 0.03400
C 	C 	0.99870 0.46275 0.75684 -0.09300
O 	O 	0.00012 0.57589 0.69514 -0.19700
O 	O 	0.07984 0.42197 0.68331 -0.19600
H 	H 	0.09353 0.53120 0.75129 0.06800
H 	H 	0.97333 0.44909 0.73415 0.06500
H 	H 	0.97040 0.61666 0.53705 0.05200
H 	H 	0.97924 0.61555 0.62001 0.05000
H 	H 	0.08658 0.39599 0.51988 0.05000
H 	H 	0.09527 0.39402 0.60284 0.04900
H 	H 	0.02799 0.46625 0.86919 0.04600
H 	H 	0.99913 0.52054 0.13016 0.04500
Zn	Zn	0.82242 0.34968 0.97149 1.22800
C 	C 	0.83802 0.36581 0.87647 0.29100
O 	O 	0.76114 0.35197 0.98658 -0.44900
O 	O 	0.82230 0.32019 0.86224 -0.42600
O 	O 	0.73951 0.34577 0.91226 -0.45800
C 	C 	0.85115 0.24715 0.94237 0.33700
O 	O 	0.86352 0.29510 0.95494 -0.45000
O 	O 	0.81013 0.23642 0.93520 -0.49100
C 	C 	0.73275 0.36191 0.95453 0.32200
O 	O 	0.84052 0.33519 0.04974 -0.30900
Zn	Zn	0.77385 0.28324 0.89976 1.18100
O 	O 	0.82147 0.38760 0.91302 -0.42700
C 	C 	0.85327 0.38455 0.04871 0.25400
O 	O 	0.84959 0.40769 0.00941 -0.39100
Zn	Zn	0.99579 0.01134 0.02272 1.22800
C 	C 	0.03369 0.90844 0.03611 0.31700
O 	O 	0.94064 0.00782 0.05530 -0.39000
O 	O 	0.04650 0.92600 0.07637 -0.42200
O 	O 	0.95549 0.93978 0.10242 -0.39900
C 	C 	0.06870 0.04868 0.07287 0.32100
O 	O 	0.05541 0.03043 0.03326 -0.41000
O 	O 	0.04602 0.03918 0.11021 -0.45800
C 	C 	0.92821 0.96447 0.07615 0.31300
O 	O 	0.98364 0.10188 0.01156 -0.24300
Zn	Zn	0.01047 0.97444 0.11726 1.18100
O 	O 	0.00579 0.93531 0.01154 -0.40200
C 	C 	0.97239 0.08892 0.97025 0.27800
O 	O 	0.97659 0.03919 0.96028 -0.28200
C 	C 	0.88310 0.20458 0.93839 -0.11600
C 	C 	0.92720 0.21701 0.93534 0.05300
C 	C 	0.95754 0.17680 0.93766 -0.05500
C 	C 	0.94416 0.12385 0.94366 0.07100
C 	C 	0.89992 0.11049 0.93787 -0.13600
C 	C 	0.86950 0.15124 0.93776 0.10800
H 	H 	0.99149 0.18728 0.93932 0.10300
H 	H 	0.83540 0.14148 0.93827 0.06600
H 	H 	0.93811 0.25792 0.93299 0.04000
C 	C 	0.88495 0.05323 0.93334 0.79300
F 	F 	0.84308 0.04969 0.91720 -0.44700
F 	F 	0.91094 0.02681 0.90264 -0.43300
F 	F 	0.88652 0.02855 0.97562 -0.44000
C 	C 	0.94423 0.37412 0.80384 -0.08800
C 	C 	0.95340 0.43012 0.82467 0.03500
C 	C 	0.87163 0.44166 0.83258 -0.05000
C 	C 	0.87976 0.38811 0.85693 -0.04100
C 	C 	0.90113 0.35009 0.82207 -0.04600
H 	H 	0.94244 0.37595 0.76585 0.05400
H 	H 	0.97111 0.34721 0.81248 0.05800
H 	H 	0.85694 0.47011 0.85697 0.06800
H 	H 	0.84832 0.43570 0.80400 0.05600
H 	H 	0.87893 0.34247 0.79278 0.05300
H 	H 	0.90740 0.31120 0.83865 0.05100
C 	C 	0.91239 0.39809 0.89636 -0.05600
H 	H 	0.91967 0.36013 0.91396 0.04800
H 	H 	0.89853 0.42495 0.92260 0.05300
C 	C 	0.95465 0.42312 0.87789 -0.08300
H 	H 	0.95947 0.46230 0.89479 0.05200
H 	H 	0.98189 0.39731 0.88777 0.05300
C 	C 	0.91426 0.46587 0.81353 -0.08600
H 	H 	0.91964 0.50600 0.82847 0.06200
H 	H 	0.91085 0.47121 0.77587 0.05700
C 	C 	0.95824 0.41899 0.11490 -0.08500
C 	C 	0.93197 0.45327 0.14926 0.03400
C 	C 	0.87781 0.46994 0.08492 -0.05300
C 	C 	0.88117 0.40854 0.08591 -0.02800
C 	C 	0.92878 0.39364 0.07789 -0.05400
H 	H 	0.98349 0.44298 0.09713 0.05000
H 	H 	0.97516 0.38724 0.13394 0.06000
H 	H 	0.84384 0.48170 0.09094 0.05100
H 	H 	0.88736 0.48558 0.05061 0.05800
H 	H 	0.93945 0.40728 0.04330 0.04700
H 	H 	0.93214 0.34978 0.07870 0.05900
C 	C 	0.86789 0.38929 0.13451 -0.05400
H 	H 	0.87044 0.34543 0.13688 0.06300
H 	H 	0.83366 0.39920 0.14130 0.05000
C 	C 	0.89726 0.41558 0.17151 -0.08600
H 	H 	0.87662 0.43825 0.19550 0.05200
H 	H 	0.91325 0.38389 0.19152 0.05700
C 	C 	0.90714 0.49582 0.12161 -0.08600
H 	H 	0.88725 0.51980 0.14537 0.05600
H 	H 	0.92975 0.52383 0.10413 0.05400
C 	C 	0.11820 0.78394 0.01331 -0.13900
C 	C 	0.12529 0.83245 0.99090 0.05400
C 	C 	0.09376 0.87133 0.99191 -0.03900
C 	C 	0.05531 0.86250 0.01623 0.02200
C 	C 	0.04530 0.81086 0.03248 -0.13700
C 	C 	0.07746 0.77211 0.03188 0.10200
H 	H 	0.10098 0.91017 0.97770 0.06300
H 	H 	0.07163 0.73404 0.04813 0.04900
H 	H 	0.15612 0.84117 0.97491 0.03300
C 	C 	0.00210 0.79858 0.05458 0.78600
F 	F 	0.99348 0.74457 0.05490 -0.45700
F 	F 	0.00225 0.81680 0.09927 -0.46600
F 	F 	0.96946 0.82289 0.03058 -0.45300
C 	C 	0.13256 0.56435 0.82381 -0.08500
C 	C 	0.09627 0.53047 0.84772 0.03300
C 	C 	0.14993 0.51355 0.91273 -0.05700
C 	C 	0.14956 0.57493 0.90893 -0.02200
C 	C 	0.16354 0.59020 0.85951 -0.05500
H 	H 	0.15172 0.53895 0.80051 0.05400
H 	H 	0.11801 0.59625 0.80279 0.05400
H 	H 	0.13976 0.50079 0.94772 0.07100
H 	H 	0.18321 0.49896 0.90734 0.07200
H 	H 	0.19706 0.57704 0.85306 0.06000
H 	H 	0.16340 0.63403 0.85519 0.05900
C 	C 	0.10280 0.59387 0.91623 -0.05700
H 	H 	0.10159 0.63782 0.91322 0.05700
H 	H 	0.09159 0.58340 0.95144 0.05600
C 	C 	0.07194 0.56836 0.88072 -0.08300
H 	H 	0.04595 0.54688 0.89967 0.05100
H 	H 	0.05617 0.60005 0.86049 0.05800
C 	C 	0.11928 0.48772 0.87706 -0.08400
H 	H 	0.09563 0.46218 0.89569 0.05400
H 	H 	0.13793 0.46119 0.85423 0.06000
C 	C 	0.08870 0.64336 0.11982 -0.05000
C 	C 	0.13164 0.62000 0.13709 -0.03800
C 	C 	0.09456 0.59745 0.21280 -0.08700
C 	C 	0.06434 0.57064 0.17634 0.03400
C 	C 	0.04963 0.61540 0.14311 -0.08600
H 	H 	0.08774 0.68661 0.12715 0.06300
H 	H 	0.08630 0.63863 0.08194 0.05200
H 	H 	0.10732 0.56702 0.23664 0.05100
H 	H 	0.07615 0.62646 0.23346 0.05200
H 	H 	0.03068 0.64505 0.16248 0.06900
H 	H 	0.02824 0.59960 0.11572 0.05900
C 	C 	0.09233 0.53113 0.14882 -0.08500
H 	H 	0.07312 0.51130 0.12145 0.05000
H 	H 	0.10392 0.49935 0.17204 0.05700
C 	C 	0.13132 0.55960 0.12627 -0.05200
H 	H 	0.16161 0.54149 0.13877 0.07400
H 	H 	0.12991 0.55318 0.08851 0.06100
C 	C 	0.13338 0.62665 0.18983 -0.04800
H 	H 	0.16405 0.61054 0.20333 0.04600
H 	H 	0.13282 0.66945 0.19901 0.04700
C 	C 	0.81207 0.89056 0.02703 -0.09500
C 	C 	0.85120 0.88425 0.00391 0.04300
C 	C 	0.88890 0.90768 0.02077 -0.01200
C 	C 	0.88825 0.93751 0.06125 0.05900
C 	C 	0.84866 0.94555 0.08432 -0.11700
C 	C 	0.81060 0.92194 0.06667 0.10100
H 	H 	0.91876 0.90307 0.00204 0.10400
H 	H 	0.78020 0.92652 0.08441 0.06000
H 	H 	0.85251 0.86037 0.97309 0.07800
C 	C 	0.84703 0.97936 0.12725 0.78100
F 	F 	0.85978 0.03074 0.11682 -0.42800
F 	F 	0.80598 0.98062 0.14580 -0.45100
F 	F 	0.87446 0.95912 0.16002 -0.45100
C 	C 	0.62387 0.97965 0.80216 -0.10800
C 	C 	0.58959 0.00913 0.83177 0.05300
C 	C 	0.59137 0.93003 0.88654 -0.04800
C 	C 	0.63946 0.94798 0.88371 -0.03700
C 	C 	0.65353 0.94484 0.83269 -0.04700
H 	H 	0.60754 0.95350 0.77664 0.05600
H 	H 	0.64408 0.00895 0.78294 0.06500
H 	H 	0.57965 0.93143 0.92262 0.05000
H 	H 	0.58781 0.88819 0.87486 0.04500
H 	H 	0.65188 0.90299 0.82072 0.05600
H 	H 	0.68758 0.95866 0.82897 0.06000
C 	C 	0.64315 0.00664 0.89888 -0.04400
H 	H 	0.67736 0.02041 0.89716 0.06000
H 	H 	0.63262 0.01059 0.93523 0.05500
C 	C 	0.61522 0.04242 0.86807 -0.09100
H 	H 	0.59358 0.06504 0.89081 0.05600
H 	H 	0.63623 0.07207 0.85025 0.05900
C 	C 	0.56261 0.96568 0.85715 -0.09700
H 	H 	0.53823 0.98375 0.88001 0.04300
H 	H 	0.54461 0.94093 0.83181 0.05300
C 	C 	0.65181 0.91461 0.08644 -0.05200
C 	C 	0.64506 0.85574 0.10047 -0.04600
C 	C 	0.63307 0.88709 0.18269 -0.08800
C 	C 	0.59961 0.91981 0.15461 0.03500
C 	C 	0.62575 0.95176 0.11787 -0.08500
H 	H 	0.68664 0.92560 0.08835 0.05900
H 	H 	0.64163 0.92057 0.05023 0.04400
H 	H 	0.61614 0.86249 0.20901 0.05100
H 	H 	0.65575 0.91441 0.20087 0.06100
H 	H 	0.64813 0.98020 0.13519 0.06300
H 	H 	0.60424 0.97562 0.09587 0.04700
C 	C 	0.56991 0.87885 0.12958 -0.08700
H 	H 	0.54549 0.89900 0.10819 0.04200
H 	H 	0.55185 0.85458 0.15530 0.04600
C 	C 	0.59613 0.84206 0.09821 -0.04600
H 	H 	0.59039 0.80008 0.10863 0.03400
H 	H 	0.58412 0.84607 0.06243 0.04500
C 	C 	0.65956 0.84986 0.15108 -0.04500
H 	H 	0.65509 0.80801 0.16245 0.04300
H 	H 	0.69447 0.85990 0.15429 0.06200
C 	C 	0.19881 0.10347 0.06516 -0.11600
C 	C 	0.18683 0.06459 0.09725 0.03200
C 	C 	0.14356 0.04955 0.10232 -0.04900
C 	C 	0.11167 0.07408 0.07608 0.02500
C 	C 	0.12321 0.11726 0.04713 -0.12600
C 	C 	0.16709 0.12951 0.03999 0.09100
H 	H 	0.13502 0.01723 0.12524 0.04400
H 	H 	0.17652 0.16015 0.01573 0.05400
H 	H 	0.21116 0.04512 0.11755 0.03000
C 	C 	0.08913 0.14990 0.02354 0.77600
F 	F 	0.10526 0.19944 0.01142 -0.45800
F 	F 	0.07538 0.12418 0.98425 -0.44100
F 	F 	0.05440 0.15738 0.05247 -0.45200
C 	C 	0.40323 0.10214 0.81253 -0.08700
C 	C 	0.44607 0.08999 0.83854 0.03700
C 	C 	0.41570 0.14022 0.90760 -0.04800
C 	C 	0.37975 0.09875 0.89665 -0.03000
C 	C 	0.36475 0.10819 0.84660 -0.05300
H 	H 	0.40713 0.13928 0.79223 0.05900
H 	H 	0.39534 0.06950 0.78818 0.05500
H 	H 	0.42781 0.13414 0.94313 0.05600
H 	H 	0.40254 0.18098 0.90614 0.07000
H 	H 	0.35121 0.14858 0.84318 0.06100
H 	H 	0.33861 0.07937 0.83762 0.05100
C 	C 	0.39942 0.04256 0.89905 -0.05200
H 	H 	0.37445 0.01207 0.89037 0.05000
H 	H 	0.41071 0.03389 0.93446 0.05400
C 	C 	0.43796 0.03773 0.86594 -0.08700
H 	H 	0.46676 0.02721 0.88642 0.04700
H 	H 	0.43184 0.00437 0.84175 0.05400
C 	C 	0.45353 0.13621 0.87332 -0.08900
H 	H 	0.48344 0.13124 0.89350 0.07300
H 	H 	0.45732 0.17428 0.85431 0.09000
C 	C 	0.47298 0.10705 0.17422 -0.08600
C 	C 	0.47208 0.04672 0.16252 0.02700
C 	C 	0.38955 0.05169 0.15729 -0.05100
C 	C 	0.40533 0.09659 0.12470 -0.04200
C 	C 	0.43399 0.13582 0.15275 -0.04700
H 	H 	0.47227 0.11343 0.21189 0.05100
H 	H 	0.50350 0.12547 0.16137 0.05600
H 	H 	0.36942 0.02239 0.13805 0.04700
H 	H 	0.36884 0.06846 0.18470 0.04000
H 	H 	0.41463 0.15413 0.18052 0.04600
H 	H 	0.44592 0.16854 0.13022 0.05200
C 	C 	0.43407 0.07166 0.08723 -0.05400
H 	H 	0.44644 0.10307 0.06357 0.04300
H 	H 	0.41491 0.04315 0.06609 0.04600
C 	C 	0.47238 0.04234 0.10902 -0.07100
H 	H 	0.47028 0.99997 0.09854 0.03200
H 	H 	0.50290 0.05954 0.09500 0.04600
C 	C 	0.42818 0.02293 0.17939 -0.07300
H 	H 	0.42631 0.97997 0.17087 0.03700
H 	H 	0.42536 0.02612 0.21728 0.04700
C 	C 	0.37279 0.28341 0.99164 -0.10100
C 	C 	0.35217 0.33188 0.98472 0.04500
C 	C 	0.37523 0.37534 0.96717 -0.05100
C 	C 	0.41920 0.37095 0.95705 0.06100
C 	C 	0.43731 0.31988 0.95501 -0.13700
C 	C 	0.41468 0.27673 0.97463 0.09800
H 	H 	0.36020 0.41380 0.96624 0.08800
H 	H 	0.43017 0.23877 0.97817 0.05900
H 	H 	0.31895 0.33672 0.99512 0.06000
C 	C 	0.48179 0.31207 0.93523 0.79500
F 	F 	0.51245 0.32704 0.96724 -0.42200
F 	F 	0.48808 0.25956 0.92357 -0.45900
F 	F 	0.48698 0.34227 0.89595 -0.40100
C 	C 	0.40520 0.57965 0.05206 -0.11200
C 	C 	0.40135 0.63052 0.07054 0.03200
C 	C 	0.36094 0.65378 0.07381 -0.05100
C 	C 	0.32385 0.62606 0.05929 0.02400
C 	C 	0.32704 0.57211 0.04600 -0.12800
C 	C 	0.36811 0.55017 0.04071 0.09700
H 	H 	0.35866 0.69431 0.08569 0.03700
H 	H 	0.37137 0.51077 0.02643 0.05600
H 	H 	0.42991 0.65336 0.07966 0.01800
C 	C 	0.28723 0.53819 0.03648 0.77600
F 	F 	0.27151 0.54970 0.99334 -0.45100
F 	F 	0.29661 0.48475 0.03809 -0.46200
F 	F 	0.25572 0.54736 0.06893 -0.46600
C 	C 	0.69473 0.39409 0.96520 -0.08200
C 	C 	0.69400 0.42581 0.00467 0.02800
C 	C 	0.65823 0.45677 0.01434 -0.04300
C 	C 	0.62296 0.45740 0.98430 0.04700
C 	C 	0.62473 0.42793 0.94269 -0.11100
C 	C 	0.65967 0.39427 0.93505 0.10200
H 	H 	0.65769 0.47984 0.04564 0.05700
H 	H 	0.65986 0.36861 0.90531 0.07200
H 	H 	0.72112 0.42645 0.02801 0.04500
C 	C 	0.59067 0.43343 0.90574 0.79000
F 	F 	0.60292 0.40938 0.86521 -0.42300
F 	F 	0.55262 0.40991 0.92002 -0.40600
F 	F 	0.58398 0.48613 0.89615 -0.45000
C 	C 	0.57251 0.62801 0.92301 -0.08200
C 	C 	0.56757 0.68228 0.91465 0.02600
C 	C 	0.60286 0.71695 0.91903 -0.04100
C 	C 	0.64332 0.69728 0.93109 0.02600
C 	C 	0.65014 0.64202 0.92897 -0.12200
C 	C 	0.61424 0.60757 0.92564 0.09000
H 	H 	0.59782 0.75933 0.91769 0.05000
H 	H 	0.61844 0.56548 0.93026 0.09900
H 	H 	0.53565 0.69828 0.91028 0.04100
C 	C 	0.69480 0.61942 0.93413 0.78600
F 	F 	0.70407 0.61313 0.98015 -0.47300
F 	F 	0.69720 0.57056 0.91279 -0.43500
F 	F 	0.72546 0.65270 0.91435 -0.45700
