data_crystal

_cell_length_a 25.10031
_cell_length_b 24.34453
_cell_length_c 26.35635
_cell_angle_alpha 95.53282
_cell_angle_beta  95.53190
_cell_angle_gamma 125.85861

_symmetry_space_group_name_	'P 1'
_symmetry_space_group_name_H-M	'P 1'

loop_
_symmetry_equiv_pos_as_xyz
  x,y,z

loop_
_atom_site_label
_atom_site_type_symbol
_atom_site_fract_x
_atom_site_fract_y
_atom_site_fract_z
_atom_site_charge
C 	C 	0.06699 0.03701 0.45891 0.00000
H 	H 	0.16930 0.04852 0.52859 0.05100
C 	C 	0.04122 0.02430 0.97711 -0.00800
C 	C 	0.01512 0.06185 0.97457 -0.05000
C 	C 	0.02634 0.05764 0.44751 -0.05400
C 	C 	0.14044 0.08894 0.46953 0.07200
C 	C 	0.18395 0.08901 0.50649 -0.08900
C 	C 	0.14774 0.04420 0.02040 -0.07200
H 	H 	0.75926 0.04373 0.87570 0.05500
H 	H 	0.82488 0.08053 0.52889 0.05000
H 	H 	0.04867 0.11777 0.98116 0.04200
H 	H 	0.04921 0.11163 0.44717 0.04400
C 	C 	0.29677 0.12266 0.50304 -0.09100
C 	C 	0.24640 0.13127 0.49371 0.02600
N 	N 	0.17362 0.12930 0.43540 -0.16900
H 	H 	0.30273 0.10378 0.53709 0.05400
H 	H 	0.15128 0.12339 0.39768 0.08200
C 	C 	0.26767 0.09330 0.03590 -0.10000
C 	C 	0.21503 0.09896 0.02783 0.04300
C 	C 	0.11464 0.06116 0.98773 0.05800
H 	H 	0.26026 0.04868 0.04866 0.05900
H 	H 	0.68824 0.09343 0.89809 0.06200
C 	C 	0.85153 0.10983 0.50013 -0.08000
C 	C 	0.79672 0.08586 0.90699 -0.10700
H 	H 	0.88946 0.02198 0.51059 0.08300
N 	N 	0.89017 0.04178 0.47697 -0.16800
C 	C 	0.87075 0.05026 0.91332 -0.09200
C 	C 	0.89152 0.09754 0.47539 0.06900
C 	C 	0.85834 0.09815 0.92323 0.03900
C 	C 	0.34008 0.14045 0.46754 0.07800
C 	C 	0.23816 0.15487 0.44972 0.06900
C 	C 	0.21962 0.14699 0.99994 0.04600
N 	N 	0.15835 0.12404 0.97618 -0.16400
N 	N 	0.37592 0.13695 0.01434 -0.14900
H 	H 	0.14873 0.14153 0.94437 0.08000
H 	H 	0.39121 0.11389 0.03701 0.09200
H 	H 	0.77166 0.15672 0.52495 0.02900
N 	N 	0.72316 0.11285 0.93251 -0.15200
C 	C 	0.84377 0.15817 0.48353 0.00300
C 	C 	0.78408 0.12777 0.93487 0.09700
C 	C 	0.32876 0.14503 0.02311 0.10100
C 	C 	0.91488 0.03429 0.43553 0.07100
C 	C 	0.91426 0.12448 0.43173 0.02400
C 	C 	0.89962 0.14142 0.97041 0.03800
C 	C 	0.79152 0.16105 0.48963 -0.04600
S 	S 	0.52067 0.15177 0.15599 -0.03300
C 	C 	0.28158 0.17283 0.41431 -0.08200
C 	C 	0.33185 0.16407 0.42356 0.00900
N 	N 	0.40452 0.16562 0.48168 -0.15300
H 	H 	0.42685 0.17127 0.51933 0.09300
C 	C 	0.72658 0.15099 0.97553 -0.03600
C 	C 	0.86589 0.18471 0.43935 0.07800
C 	C 	0.89725 0.16398 0.41017 -0.08900
H 	H 	0.90494 0.17510 0.37161 0.05700
O 	O 	0.63834 0.15936 0.99151 -0.37100
C 	C 	0.91926 0.06688 0.95493 0.07500
C 	C 	0.92659 0.08277 0.40484 -0.08500
H 	H 	0.48061 0.17232 0.14763 0.03800
C 	C 	0.82603 0.17248 0.98053 -0.05000
C 	C 	0.88126 0.17552 0.00188 -0.02600
O 	O 	0.50708 0.17914 0.00121 -0.33800
H 	H 	0.27560 0.19170 0.38026 0.05100
C 	C 	0.27812 0.19280 0.98119 -0.06800
C 	C 	0.33395 0.19435 0.99707 -0.02000
C 	C 	0.41287 0.18249 0.98404 -0.01400
C 	C 	0.69253 0.18330 0.97192 0.27100
C 	C 	0.78613 0.19273 0.45024 -0.00800
N 	N 	0.83016 0.20485 0.41885 -0.15100
C 	C 	0.78914 0.18554 0.00782 0.01400
C 	C 	0.94580 0.02738 0.96263 -0.00300
N 	N 	0.93695 0.12226 0.98941 -0.17200
C 	C 	0.95641 0.00972 0.43936 0.00500
H 	H 	0.54525 0.19904 0.90660 0.17300
H 	H 	0.57600 0.20177 0.26472 0.03200
H 	H 	0.95771 0.09755 0.37561 0.05300
C 	C 	0.43764 0.20573 0.44736 -0.00200
C 	C 	0.39427 0.20610 0.41065 -0.04800
H 	H 	0.90699 0.20063 0.04166 0.04200
C 	C 	0.48399 0.21254 0.98591 0.24200
C 	C 	0.38624 0.21699 0.97089 -0.03800
H 	H 	0.27877 0.22270 0.95303 0.04500
Cu	Cu	0.60259 0.21420 0.99848 0.91900
Cu	Cu	0.64650 0.21162 0.88573 0.87300
O 	O 	0.72026 0.22087 0.48886 -0.43600
H 	H 	0.95859 0.13369 0.02848 0.09400
C 	C 	0.60082 0.22273 0.18949 0.04000
O 	O 	0.59207 0.22428 0.92500 -0.63900
O 	O 	0.60837 0.22469 0.82701 -0.41600
C 	C 	0.76001 0.23313 0.45577 0.26200
H 	H 	0.84396 0.23721 0.39164 0.09300
O 	O 	0.62734 0.22282 0.07159 -0.35100
C 	C 	0.61485 0.23508 0.24380 -0.02700
H 	H 	0.60945 0.23852 0.41585 0.16200
O 	O 	0.71008 0.22861 0.94181 -0.43800
H 	H 	0.81079 0.22998 0.03838 0.03400
H 	H 	0.40921 0.24739 0.38935 0.04700
C 	C 	0.51092 0.25675 0.45707 0.25900
O 	O 	0.54701 0.25664 0.49692 -0.37000
H 	H 	0.41122 0.26361 0.95475 0.04200
C 	C 	0.63149 0.26755 0.10761 0.28500
C 	C 	0.65002 0.26830 0.16233 -0.07200
O 	O 	0.52592 0.27644 0.97947 -0.38900
O 	O 	0.64046 0.28788 0.43264 -0.63700
O 	O 	0.78502 0.28832 0.43474 -0.36300
C 	C 	0.63120 0.28730 0.82071 0.28800
C 	C 	0.67754 0.29252 0.27131 -0.07400
Cu	Cu	0.74827 0.29056 0.54629 0.87200
S 	S 	0.75339 0.29368 0.80118 -0.11600
O 	O 	0.60328 0.29795 0.09693 -0.38300
Cu	Cu	0.64269 0.30482 0.50580 0.89700
O 	O 	0.64208 0.30301 0.58085 -0.38300
O 	O 	0.53834 0.30744 0.43058 -0.38800
C 	C 	0.70619 0.30736 0.75763 0.04400
O 	O 	0.72675 0.31082 0.35987 -0.35700
C 	C 	0.65479 0.30930 0.77242 -0.08700
C 	C 	0.68564 0.31401 0.32723 0.28600
H 	H 	0.75847 0.31261 0.69631 0.03900
C 	C 	0.72099 0.31743 0.70813 -0.03100
O 	O 	0.66218 0.32224 0.00498 -0.62900
C 	C 	0.71444 0.32224 0.18966 -0.02800
Cu	Cu	0.64501 0.32737 0.93364 0.89400
C 	C 	0.69453 0.32928 0.61823 0.28500
C 	C 	0.62357 0.32851 0.73941 -0.01800
C 	C 	0.68610 0.33117 0.67318 -0.07700
H 	H 	0.58620 0.33322 0.75172 0.04300
O 	O 	0.63932 0.33258 0.85887 -0.37700
C 	C 	0.72845 0.33474 0.24399 0.04000
Cu	Cu	0.74265 0.33694 0.43380 0.92700
O 	O 	0.74962 0.33987 0.60745 -0.41900
C 	C 	0.63997 0.34099 0.69028 0.03500
Cu	Cu	0.62317 0.34521 0.40399 0.89300
Cu	Cu	0.61492 0.34811 0.03853 0.89600
H 	H 	0.71023 0.34899 0.02059 0.16500
O 	O 	0.66509 0.35100 0.34211 -0.38400
O 	O 	0.74047 0.35025 0.50887 -0.64000
H 	H 	0.80700 0.35585 0.83015 0.03600
H 	H 	0.75271 0.35665 0.16877 0.03400
H 	H 	0.12787 0.99259 0.02643 0.04800
H 	H 	0.01702 0.92253 0.97094 0.03000
H 	H 	0.06923 0.95151 0.46905 0.04300
S 	S 	0.60686 0.37421 0.65284 -0.03700
C 	C 	0.03767 0.96758 0.46085 -0.05800
H 	H 	0.64918 0.44488 0.66471 0.03400
O 	O 	0.65845 0.43931 0.01664 -0.37600
O 	O 	0.70149 0.43383 0.46294 -0.38000
H 	H 	0.70569 0.57358 0.03973 0.04700
O 	O 	0.70192 0.42736 0.94704 -0.37300
C 	C 	0.70564 0.46570 0.98829 0.24800
O 	O 	0.78599 0.43808 0.43353 -0.35700
C 	C 	0.76410 0.46958 0.45676 0.25300
H 	H 	0.76948 0.39884 0.52744 0.17300
C 	C 	0.75696 0.54107 0.99776 -0.01600
C 	C 	0.75066 0.58765 0.02591 -0.03200
H 	H 	0.74342 0.56138 0.50347 0.08500
S 	S 	0.80878 0.40545 0.27735 -0.03400
H 	H 	0.80978 0.46229 0.28801 0.03900
C 	C 	0.84596 0.64607 0.51277 0.07600
C 	C 	0.83986 0.70010 0.51577 -0.09000
N 	N 	0.79303 0.57907 0.50550 -0.15300
C 	C 	0.81175 0.54280 0.48173 -0.00400
H 	H 	0.79416 0.69200 0.52289 0.05300
C 	C 	0.81191 0.74316 0.97314 0.05400
C 	C 	0.78655 0.70175 0.01074 -0.06600
C 	C 	0.79595 0.65054 0.01234 0.01700
C 	C 	0.82778 0.63957 0.97670 0.06400
N 	N 	0.80397 0.57285 0.96804 -0.15000
H 	H 	0.76099 0.70957 0.03808 0.05000
H 	H 	0.80563 0.54781 0.93438 0.08900
H 	H 	0.83651 0.99999 0.88833 0.05000
H 	H 	0.89623 0.57405 0.44277 0.05000
H 	H 	0.84851 0.92852 0.94696 0.04000
H 	H 	0.87305 0.90354 0.43647 0.04300
C 	C 	0.89298 0.76321 0.50524 0.02400
C 	C 	0.88755 0.81230 0.48887 -0.08700
C 	C 	0.87680 0.58649 0.47320 -0.04700
H 	H 	0.86153 0.83044 0.50564 0.05000
C 	C 	0.85415 0.68177 0.93961 -0.09000
C 	C 	0.84460 0.73288 0.93798 0.02800
N 	N 	0.83374 0.80918 0.98074 -0.17500
H 	H 	0.83115 0.83426 0.01386 0.09400
C 	C 	0.90221 0.95521 0.95520 -0.04700
C 	C 	0.92707 0.94041 0.44209 -0.05500
C 	C 	0.89871 0.65251 0.49335 0.00900
C 	C 	0.88081 0.84140 0.95125 0.07600
C 	C 	0.88918 0.79586 0.92411 -0.09200
H 	H 	0.87973 0.67398 0.91226 0.05300
C 	C 	0.93728 0.84715 0.45962 0.07100
C 	C 	0.92766 0.91725 0.95806 -0.01200
C 	C 	0.94392 0.76848 0.48393 0.07000
C 	C 	0.94511 0.71158 0.47427 -0.08200
H 	H 	0.93412 0.81078 0.90985 0.05200
C 	C 	0.96765 0.91916 0.45323 0.00400
N 	N 	0.97083 0.81957 0.45654 -0.16600
H 	H 	0.97832 0.71202 0.45064 0.05200
H 	H 	0.00012 0.82574 0.42881 0.07700
C 	C 	0.99726 0.95181 0.96884 -0.03900
