data_crystal

_cell_length_a 26.26549
_cell_length_b 26.30759
_cell_length_c 34.65822
_cell_angle_alpha 95.48752
_cell_angle_beta  95.48577
_cell_angle_gamma 125.83872

_symmetry_space_group_name_	'P 1'
_symmetry_space_group_name_H-M	'P 1'

loop_
_symmetry_equiv_pos_as_xyz
  x,y,z

loop_
_atom_site_label
_atom_site_type_symbol
_atom_site_fract_x
_atom_site_fract_y
_atom_site_fract_z
_atom_site_charge
C 	C 	0.97686 0.04041 0.98987 0.13200
N 	N 	0.94274 0.97701 0.99042 -0.12700
C 	C 	0.97059 0.94713 0.98687 0.14200
N 	N 	0.03248 0.98054 0.98240 -0.11500
C 	C 	0.06656 0.04373 0.98124 0.14100
N 	N 	0.03875 0.07373 0.98511 -0.13700
C 	C 	0.93369 0.99298 0.46653 0.16100
N 	N 	0.89973 0.93067 0.47016 -0.12900
C 	C 	0.92910 0.90207 0.47267 0.14700
N 	N 	0.99249 0.93604 0.47183 -0.14400
C 	C 	0.02647 0.99828 0.46829 0.17600
N 	N 	0.99705 0.02670 0.46566 -0.16300
Cu	Cu	0.64402 0.24769 0.00447 0.92900
Cu	Cu	0.68490 0.24563 0.91822 0.87200
Cu	Cu	0.68334 0.35143 0.95546 0.89900
Cu	Cu	0.65790 0.37220 0.03578 0.89900
C 	C 	0.67185 0.29551 0.08754 0.28700
O 	O 	0.55369 0.21754 0.00704 -0.36400
C 	C 	0.65577 0.30859 0.86848 0.28800
O 	O 	0.70165 0.34752 0.00945 -0.63900
O 	O 	0.63345 0.25667 0.94895 -0.64100
O 	O 	0.67713 0.19647 0.99800 -0.37300
O 	O 	0.74664 0.25977 0.95995 -0.43900
O 	O 	0.64554 0.32434 0.07967 -0.37700
O 	O 	0.73598 0.44354 0.96536 -0.38300
C 	C 	0.73045 0.47965 0.99118 0.31300
C 	C 	0.53196 0.24822 0.99421 0.30100
O 	O 	0.57232 0.30822 0.99086 -0.37800
O 	O 	0.70215 0.45886 0.02174 -0.37500
O 	O 	0.66812 0.25479 0.05981 -0.35300
C 	C 	0.72987 0.21916 0.98401 0.31600
O 	O 	0.67991 0.35604 0.89872 -0.37700
O 	O 	0.64420 0.25387 0.87332 -0.41600
H 	H 	0.74777 0.37206 0.02062 0.17200
H 	H 	0.58862 0.23334 0.93522 0.17400
Cu	Cu	0.72841 0.32733 0.45288 0.93000
Cu	Cu	0.73012 0.28713 0.53944 0.87500
Cu	Cu	0.62312 0.28623 0.50093 0.89800
Cu	Cu	0.60308 0.31150 0.42039 0.89700
C 	C 	0.68344 0.30159 0.36942 0.28800
O 	O 	0.75790 0.41724 0.45020 -0.34900
C 	C 	0.66462 0.31430 0.58806 0.28700
O 	O 	0.62837 0.26861 0.44714 -0.64000
O 	O 	0.71823 0.33746 0.50816 -0.64100
O 	O 	0.78088 0.29564 0.45993 -0.36600
O 	O 	0.71781 0.22613 0.49807 -0.44000
O 	O 	0.65256 0.32577 0.37708 -0.37900
O 	O 	0.53085 0.23262 0.49027 -0.38500
C 	C 	0.49486 0.23827 0.46442 0.31200
C 	C 	0.72573 0.43801 0.46168 0.30100
O 	O 	0.66592 0.39704 0.46532 -0.39400
O 	O 	0.51570 0.26606 0.43371 -0.37800
O 	O 	0.72238 0.30361 0.39769 -0.35400
C 	C 	0.75928 0.24365 0.47451 0.31500
O 	O 	0.61731 0.28896 0.55749 -0.38000
O 	O 	0.72008 0.32698 0.58383 -0.41400
H 	H 	0.60450 0.22268 0.43593 0.16900
H 	H 	0.74072 0.38214 0.52175 0.17700
C 	C 	0.63038 0.27458 0.69076 -0.00100
C 	C 	0.60071 0.24960 0.72260 -0.05400
C 	C 	0.63609 0.28351 0.76063 0.01600
C 	C 	0.69637 0.34233 0.76587 -0.00100
C 	C 	0.72131 0.37176 0.73396 -0.05400
C 	C 	0.68841 0.33555 0.69595 0.01600
S 	S 	0.59446 0.25347 0.64399 0.02000
C 	C 	0.65166 0.31854 0.62799 -0.07300
C 	C 	0.70091 0.36031 0.66070 -0.02100
S 	S 	0.71616 0.37862 0.81241 0.02300
C 	C 	0.65141 0.32064 0.82830 -0.07300
C 	C 	0.61078 0.27076 0.79570 -0.02100
H 	H 	0.55199 0.20662 0.71800 0.04700
H 	H 	0.76351 0.42087 0.73846 0.04800
H 	H 	0.74537 0.40493 0.65865 0.04300
H 	H 	0.56669 0.22580 0.79776 0.04200
C 	C 	0.70320 0.33675 0.20057 0.00500
C 	C 	0.73202 0.36333 0.24036 -0.05400
C 	C 	0.69937 0.32696 0.26833 0.01900
C 	C 	0.64244 0.26517 0.25631 0.00500
C 	C 	0.62003 0.23493 0.21660 -0.05400
C 	C 	0.65026 0.27268 0.18857 0.01900
S 	S 	0.73867 0.36172 0.16229 0.01600
C 	C 	0.68778 0.29410 0.12882 -0.06500
C 	C 	0.64119 0.24852 0.14823 -0.01600
S 	S 	0.62669 0.22918 0.29494 0.01400
C 	C 	0.68923 0.29035 0.32850 -0.06400
C 	C 	0.72574 0.34147 0.30888 -0.01800
H 	H 	0.77836 0.40938 0.24909 0.05100
H 	H 	0.58197 0.18422 0.20798 0.05100
H 	H 	0.59996 0.20155 0.13319 0.04900
H 	H 	0.76676 0.38859 0.32388 0.05100
C 	C 	0.80448 0.72270 0.45007 -0.10000
C 	C 	0.83163 0.70397 0.47654 -0.00600
C 	C 	0.88776 0.75057 0.50406 0.13900
C 	C 	0.91793 0.81539 0.50372 -0.06400
C 	C 	0.89243 0.83425 0.47606 -0.05400
C 	C 	0.83490 0.78753 0.44946 0.16500
C 	C 	0.80453 0.63589 0.47300 0.01100
O 	O 	0.91501 0.73282 0.52991 -0.27300
H 	H 	0.96195 0.85102 0.52446 0.07000
O 	O 	0.80890 0.80504 0.42246 -0.27500
H 	H 	0.76088 0.68691 0.42906 0.07100
C 	C 	0.76685 0.59981 0.49968 0.11700
C 	C 	0.74233 0.53550 0.49636 -0.03400
C 	C 	0.75430 0.50652 0.46608 -0.12300
C 	C 	0.79105 0.54251 0.43891 0.19300
C 	C 	0.81656 0.60706 0.44279 -0.11400
O 	O 	0.75505 0.62765 0.52949 -0.27500
H 	H 	0.71393 0.50815 0.51728 0.05500
O 	O 	0.80196 0.51468 0.40853 -0.28000
H 	H 	0.84536 0.63466 0.42207 0.07800
H 	H 	0.82785 0.80659 0.39878 0.15100
H 	H 	0.71509 0.62130 0.51831 0.14800
H 	H 	0.76602 0.49785 0.38636 0.14900
H 	H 	0.89642 0.72996 0.55393 0.15800
C 	C 	0.84394 0.05967 0.49085 -0.09500
C 	C 	0.85034 0.09189 0.45954 -0.00800
C 	C 	0.88116 0.08865 0.42942 0.13400
C 	C 	0.90724 0.05515 0.43148 -0.06200
C 	C 	0.90193 0.02390 0.46318 -0.06600
C 	C 	0.86974 0.02590 0.49283 0.15600
C 	C 	0.82694 0.13103 0.45923 0.01200
O 	O 	0.88747 0.11973 0.39857 -0.27800
H 	H 	0.93192 0.05376 0.40853 0.06300
O 	O 	0.86375 0.99520 0.52386 -0.26300
H 	H 	0.81999 0.06181 0.51405 0.06500
C 	C 	0.76094 0.10174 0.45158 0.11100
C 	C 	0.73913 0.13915 0.45464 -0.02900
C 	C 	0.78281 0.20583 0.46549 -0.13300
C 	C 	0.84892 0.23529 0.47146 0.19500
C 	C 	0.87069 0.19781 0.46857 -0.11600
O 	O 	0.71774 0.03665 0.44052 -0.27100
H 	H 	0.68818 0.11622 0.44933 0.05300
O 	O 	0.89225 0.30035 0.48253 -0.30100
H 	H 	0.92160 0.22060 0.47443 0.08000
H 	H 	0.90201 0.02713 0.54444 0.13900
H 	H 	0.70663 0.02056 0.46545 0.14500
H 	H 	0.90242 0.31646 0.45753 0.16200
H 	H 	0.84886 0.08828 0.37811 0.15300
C 	C 	0.32999 0.19859 0.45655 -0.11400
C 	C 	0.29601 0.13946 0.46869 0.01000
C 	C 	0.32783 0.11377 0.48072 0.11800
C 	C 	0.39281 0.14634 0.47942 -0.03200
C 	C 	0.42684 0.20527 0.46685 -0.12100
C 	C 	0.39535 0.23202 0.45618 0.19300
C 	C 	0.22687 0.10406 0.46823 -0.00400
O 	O 	0.29508 0.05601 0.49276 -0.27200
H 	H 	0.41653 0.12536 0.48774 0.06000
O 	O 	0.42823 0.29052 0.44507 -0.28800
H 	H 	0.30573 0.21874 0.44748 0.07300
C 	C 	0.20480 0.12513 0.49644 0.12800
C 	C 	0.13913 0.09059 0.49612 -0.05700
C 	C 	0.09519 0.03504 0.46775 -0.07300
C 	C 	0.11723 0.01453 0.43918 0.16200
C 	C 	0.18289 0.04893 0.43959 -0.09400
O 	O 	0.24743 0.17802 0.52524 -0.27600
H 	H 	0.12243 0.10652 0.51826 0.06400
O 	O 	0.07473 0.96043 0.41116 -0.26900
H 	H 	0.19966 0.03273 0.41767 0.07700
H 	H 	0.44438 0.32198 0.46981 0.14800
H 	H 	0.25340 0.21433 0.51437 0.14600
H 	H 	0.06398 0.97521 0.38865 0.15300
H 	H 	0.29895 0.06634 0.52166 0.15200
C 	C 	0.92009 0.79132 0.01600 -0.09100
C 	C 	0.86517 0.74721 0.98720 -0.00800
C 	C 	0.84425 0.76900 0.95869 0.13800
C 	C 	0.87816 0.83456 0.95926 -0.06500
C 	C 	0.93371 0.87861 0.98764 -0.04900
C 	C 	0.95435 0.85683 0.01633 0.15500
C 	C 	0.82977 0.67822 0.98692 0.01200
O 	O 	0.79024 0.72632 0.93061 -0.27600
H 	H 	0.86188 0.85110 0.93722 0.07100
O 	O 	0.00843 0.89947 0.04438 -0.26000
H 	H 	0.93623 0.77478 0.03812 0.06800
C 	C 	0.85575 0.64651 0.97533 0.11300
C 	C 	0.82261 0.58142 0.97615 -0.03100
C 	C 	0.76352 0.54753 0.98863 -0.12100
C 	C 	0.73674 0.57903 0.99917 0.19400
C 	C 	0.77032 0.64429 0.99878 -0.11300
O 	O 	0.91271 0.67867 0.96219 -0.27100
H 	H 	0.84337 0.55756 0.96763 0.05900
O 	O 	0.67802 0.54624 0.01010 -0.28500
H 	H 	0.75001 0.66849 0.00757 0.08400
H 	H 	0.99346 0.91015 0.06681 0.14600
H 	H 	0.94598 0.69465 0.98594 0.14600
H 	H 	0.64667 0.53014 0.98527 0.15400
H 	H 	0.80535 0.71598 0.90812 0.15400
C 	C 	0.87031 0.21434 0.00710 -0.11700
C 	C 	0.84009 0.14854 0.99790 0.01100
C 	C 	0.77300 0.10572 0.98750 0.11600
C 	C 	0.73682 0.12903 0.98531 -0.03200
C 	C 	0.76728 0.19501 0.99242 -0.13200
C 	C 	0.83429 0.23774 0.00400 0.19700
C 	C 	0.87892 0.12476 0.99726 -0.00800
O 	O 	0.74276 0.04113 0.97943 -0.27000
H 	H 	0.68525 0.09584 0.97660 0.05200
O 	O 	0.86445 0.30224 0.01326 -0.29200
H 	H 	0.92189 0.24745 0.01581 0.07200
C 	C 	0.91182 0.13147 0.96609 0.13000
C 	C 	0.94536 0.10537 0.96443 -0.06700
C 	C 	0.94641 0.07260 0.99375 -0.05800
C 	C 	0.91536 0.06788 0.02567 0.16300
C 	C 	0.88153 0.09366 0.02720 -0.09300
O 	O 	0.90876 0.16089 0.93629 -0.28200
H 	H 	0.96919 0.10923 0.93981 0.06300
O 	O 	0.91690 0.03690 0.05493 -0.27900
H 	H 	0.85679 0.08893 0.05147 0.07800
H 	H 	0.87702 0.31829 0.98850 0.14800
H 	H 	0.94605 0.20643 0.94464 0.14300
H 	H 	0.95528 0.07031 0.07499 0.14800
H 	H 	0.73979 0.03056 0.95067 0.14800
C 	C 	0.21853 0.08518 0.94977 -0.10000
C 	C 	0.26487 0.14009 0.97790 -0.00700
C 	C 	0.24588 0.16686 0.00466 0.14000
C 	C 	0.18076 0.13704 0.00423 -0.06500
C 	C 	0.13432 0.08007 0.97750 -0.05600
C 	C 	0.15345 0.05540 0.94925 0.16400
C 	C 	0.33285 0.16643 0.98132 0.00900
O 	O 	0.29087 0.22230 0.03110 -0.27400
H 	H 	0.16646 0.15695 0.02562 0.06900
O 	O 	0.10860 0.00122 0.92185 -0.27800
H 	H 	0.23297 0.06478 0.92883 0.06900
C 	C 	0.36118 0.15148 0.01007 0.11700
C 	C 	0.42596 0.17755 0.01372 -0.03400
C 	C 	0.46278 0.21785 0.98836 -0.12300
C 	C 	0.43369 0.23076 0.95853 0.19000
C 	C 	0.36908 0.20555 0.95539 -0.11300
O 	O 	0.32601 0.11284 0.03539 -0.27500
H 	H 	0.44783 0.16728 0.03674 0.06300
O 	O 	0.46838 0.26843 0.93269 -0.28600
H 	H 	0.34716 0.21636 0.93279 0.07700
H 	H 	0.09965 0.01647 0.89891 0.14900
H 	H 	0.30751 0.06886 0.02210 0.14900
H 	H 	0.46360 0.23862 0.91027 0.14200
H 	H 	0.29900 0.20859 0.05515 0.15900
