data_crystal

_cell_length_a 24.81568
_cell_length_b 24.97360
_cell_length_c 28.52803
_cell_angle_alpha 95.48974
_cell_angle_beta  95.48460
_cell_angle_gamma 125.81229

_symmetry_space_group_name_	'P 1'
_symmetry_space_group_name_H-M	'P 1'

loop_
_symmetry_equiv_pos_as_xyz
  x,y,z

loop_
_atom_site_label
_atom_site_type_symbol
_atom_site_fract_x
_atom_site_fract_y
_atom_site_fract_z
_atom_site_charge
C 	C 	0.02622 0.06154 0.99077 -0.03200
C 	C 	0.06074 0.03288 0.99231 -0.00600
C 	C 	0.02453 0.96335 0.98971 -0.04000
H 	H 	0.05419 0.11514 0.99181 0.06300
H 	H 	0.05093 0.94085 0.98951 0.05000
C 	C 	0.04550 0.02945 0.46280 -0.00600
C 	C 	0.00625 0.05108 0.44956 -0.03500
H 	H 	0.04442 0.94642 0.47890 0.05300
H 	H 	0.03090 0.10308 0.44618 0.05500
O 	O 	0.53040 0.19212 0.00129 -0.32700
C 	C 	0.50372 0.22012 0.98361 0.24400
O 	O 	0.54360 0.28180 0.97597 -0.38300
O 	O 	0.53868 0.25987 0.49975 -0.36900
C 	C 	0.50054 0.26062 0.46453 0.25700
O 	O 	0.52715 0.30683 0.43743 -0.36800
H 	H 	0.60157 0.24056 0.42408 0.16800
C 	C 	0.21272 0.08781 0.47692 0.11400
C 	C 	0.27575 0.10635 0.49888 -0.08600
C 	C 	0.32829 0.13568 0.47262 0.00800
C 	C 	0.32224 0.15671 0.43066 0.11900
C 	C 	0.26066 0.14370 0.41120 -0.09400
C 	C 	0.20530 0.10411 0.43344 0.02500
O 	O 	0.16052 0.06978 0.50145 -0.21400
C 	C 	0.11959 0.07477 0.46746 0.11900
C 	C 	0.14849 0.09951 0.42818 -0.10200
O 	O 	0.38364 0.20805 0.42017 -0.19200
C 	C 	0.42675 0.21608 0.46011 0.04400
C 	C 	0.39442 0.17332 0.49147 -0.05800
H 	H 	0.28406 0.10022 0.53532 0.06800
H 	H 	0.25702 0.16601 0.38146 0.07000
H 	H 	0.12120 0.09482 0.39415 0.06400
H 	H 	0.41567 0.18139 0.52870 0.06100
C 	C 	0.35141 0.16065 0.02176 0.13600
C 	C 	0.29391 0.11815 0.04116 -0.10200
C 	C 	0.23897 0.12044 0.03060 0.04200
C 	C 	0.23649 0.15451 0.99602 0.09700
C 	C 	0.29224 0.19264 0.97362 -0.07500
C 	C 	0.35115 0.19899 0.99030 -0.01100
O 	O 	0.40177 0.15216 0.02021 -0.18100
C 	C 	0.43256 0.19015 0.98522 0.03200
C 	C 	0.40057 0.21550 0.96570 -0.05100
O 	O 	0.17116 0.12937 0.97484 -0.21000
C 	C 	0.13517 0.07623 0.99929 0.11400
C 	C 	0.17494 0.07086 0.03267 -0.09800
H 	H 	0.29081 0.08236 0.06162 0.07500
H 	H 	0.28846 0.21317 0.94276 0.06400
H 	H 	0.42122 0.25425 0.94408 0.05200
H 	H 	0.15860 0.02646 0.04765 0.06500
C 	C 	0.01386 0.96263 0.46788 -0.03800
H 	H 	0.57863 0.21257 0.91679 0.17800
Cu	Cu	0.61296 0.34359 0.41328 0.89700
Cu	Cu	0.62996 0.23383 0.00529 0.93100
Cu	Cu	0.62717 0.35717 0.03296 0.89800
C 	C 	0.64503 0.28612 0.10393 0.30100
C 	C 	0.65962 0.29455 0.83822 0.30300
O 	O 	0.62478 0.24069 0.93647 -0.64200
O 	O 	0.61354 0.31118 0.08896 -0.37600
O 	O 	0.64910 0.24536 0.07395 -0.35100
O 	O 	0.65125 0.23988 0.84771 -0.41700
Cu	Cu	0.63564 0.30716 0.50671 0.89700
O 	O 	0.63253 0.28881 0.43909 -0.63800
O 	O 	0.65693 0.35408 0.35635 -0.37900
O 	O 	0.63732 0.31190 0.57664 -0.37900
C 	C 	0.66102 0.30524 0.78965 -0.09700
C 	C 	0.65769 0.28824 0.15448 -0.08400
C 	C 	0.66410 0.31245 0.74855 0.03500
Cu	Cu	0.68984 0.23676 0.90733 0.87300
Cu	Cu	0.67141 0.33964 0.94166 0.89400
O 	O 	0.68356 0.33813 0.00889 -0.63400
O 	O 	0.67217 0.18599 0.00586 -0.33800
O 	O 	0.66695 0.44379 0.01000 -0.35900
O 	O 	0.67368 0.34273 0.87270 -0.38200
C 	C 	0.68065 0.32137 0.34131 0.30300
C 	C 	0.68545 0.32320 0.61013 0.30300
O 	O 	0.69052 0.42829 0.46836 -0.38200
C 	C 	0.66973 0.31869 0.70025 0.03500
C 	C 	0.67611 0.32197 0.65901 -0.09700
C 	C 	0.67770 0.30799 0.29069 -0.08600
C 	C 	0.67338 0.29938 0.24777 0.04000
C 	C 	0.66605 0.29216 0.19737 0.03900
O 	O 	0.71345 0.22288 0.48592 -0.41700
O 	O 	0.72169 0.43652 0.95179 -0.36900
C 	C 	0.71788 0.47227 0.98673 0.24700
O 	O 	0.72127 0.31667 0.37110 -0.35500
H 	H 	0.72002 0.55378 0.49839 0.05500
C 	C 	0.72998 0.21177 0.99155 0.25200
H 	H 	0.73131 0.36761 0.02580 0.16700
Cu	Cu	0.73674 0.33993 0.43976 0.92700
Cu	Cu	0.73889 0.28759 0.54058 0.87300
O 	O 	0.73415 0.35018 0.50912 -0.63900
O 	O 	0.73975 0.33099 0.59945 -0.41700
O 	O 	0.73009 0.11241 0.97370 -0.19900
H 	H 	0.73596 0.00781 0.94786 0.06900
O 	O 	0.74464 0.13296 0.46027 -0.19500
H 	H 	0.73891 0.02102 0.46819 0.06800
O 	O 	0.74975 0.25644 0.96380 -0.43100
C 	C 	0.75213 0.46671 0.45970 0.25000
C 	C 	0.75459 0.23771 0.45563 0.25500
C 	C 	0.75468 0.56854 0.47353 -0.06100
H 	H 	0.75506 0.68018 0.49571 0.06600
C 	C 	0.95598 0.02144 0.98915 -0.00100
C 	C 	0.95471 0.92308 0.98884 -0.00600
C 	C 	0.92055 0.95223 0.98924 -0.04500
H 	H 	0.86692 0.92131 0.99001 0.04100
C 	C 	0.93523 0.00548 0.44042 -0.00400
C 	C 	0.90377 0.93749 0.44352 -0.03700
C 	C 	0.94320 0.91590 0.45662 -0.00800
H 	H 	0.84916 0.90134 0.43445 0.05100
O 	O 	0.77893 0.43900 0.44121 -0.33500
O 	O 	0.78127 0.29394 0.43909 -0.35800
H 	H 	0.76415 0.39697 0.52727 0.17700
C 	C 	0.85371 0.74872 0.47749 0.11200
C 	C 	0.79557 0.68520 0.48011 -0.08600
C 	C 	0.79035 0.62838 0.46001 0.00900
C 	C 	0.84193 0.63397 0.44080 0.11900
C 	C 	0.89995 0.69740 0.43817 -0.09500
C 	C 	0.90534 0.75418 0.45839 0.02900
O 	O 	0.85453 0.80508 0.47836 -0.21400
C 	C 	0.91088 0.84399 0.45693 0.12100
C 	C 	0.94117 0.81391 0.44493 -0.10600
O 	O 	0.84144 0.57790 0.44001 -0.18600
C 	C 	0.78544 0.53887 0.46169 0.04100
H 	H 	0.94046 0.70241 0.42257 0.07000
H 	H 	0.97536 0.82826 0.41974 0.06300
C 	C 	0.79217 0.12185 0.45311 0.11900
C 	C 	0.77911 0.05899 0.45199 -0.09500
C 	C 	0.81863 0.04624 0.42827 0.02600
C 	C 	0.87130 0.09498 0.40875 0.11300
C 	C 	0.88370 0.15771 0.40950 -0.08300
C 	C 	0.84435 0.17029 0.43356 0.00400
C 	C 	0.77338 0.19294 0.44274 0.03700
C 	C 	0.83166 0.21423 0.42521 -0.05400
O 	O 	0.92132 0.08629 0.40524 -0.21400
C 	C 	0.89420 0.02843 0.42532 0.11900
C 	C 	0.83313 0.00437 0.43924 -0.09700
H 	H 	0.92438 0.19613 0.39387 0.06700
H 	H 	0.86758 0.26359 0.41718 0.05800
H 	H 	0.81403 0.97402 0.46666 0.05800
C 	C 	0.91042 0.76168 0.98988 0.09800
C 	C 	0.89684 0.69996 0.97169 -0.07700
C 	C 	0.85506 0.64526 0.99375 -0.00900
C 	C 	0.81932 0.64842 0.02678 0.13300
C 	C 	0.82844 0.70884 0.04177 -0.10100
C 	C 	0.87843 0.76604 0.02528 0.03800
O 	O 	0.93712 0.81423 0.96476 -0.21100
C 	C 	0.91792 0.85059 0.98852 0.11000
C 	C 	0.88057 0.82059 0.02327 -0.09700
O 	O 	0.76091 0.58626 0.02965 -0.18700
C 	C 	0.76452 0.54595 0.99455 0.03500
C 	C 	0.82037 0.58044 0.97317 -0.05300
H 	H 	0.91537 0.69405 0.94019 0.06400
H 	H 	0.79520 0.71019 0.06303 0.07200
H 	H 	0.87103 0.84497 0.05121 0.06300
H 	H 	0.82497 0.56210 0.93892 0.05700
C 	C 	0.90579 0.12749 0.98211 0.10500
C 	C 	0.90716 0.18372 0.99622 -0.08700
C 	C 	0.84695 0.17677 0.98431 -0.01200
C 	C 	0.78620 0.11507 0.96679 0.12200
C 	C 	0.78382 0.05755 0.95665 -0.09800
C 	C 	0.84565 0.06661 0.96094 0.02600
O 	O 	0.95618 0.12264 0.00099 -0.19900
C 	C 	0.92045 0.05281 0.98901 0.11000
C 	C 	0.85385 0.01905 0.96663 -0.09500
C 	C 	0.76332 0.17928 0.99632 0.02300
C 	C 	0.83309 0.21678 0.00487 -0.03000
H 	H 	0.95230 0.22977 0.01744 0.07400
H 	H 	0.82076 0.96755 0.94739 0.05500
H 	H 	0.86807 0.27116 0.01355 0.04800
