data_crystal

_cell_length_a 28.58208
_cell_length_b 29.55365
_cell_length_c 15.36545
_cell_angle_alpha 98.66500
_cell_angle_beta  81.40550
_cell_angle_gamma 113.93945

_symmetry_space_group_name_	'P 1'
_symmetry_space_group_name_H-M	'P 1'

loop_
_symmetry_equiv_pos_as_xyz
  x,y,z

loop_
_atom_site_label
_atom_site_type_symbol
_atom_site_fract_x
_atom_site_fract_y
_atom_site_fract_z
_atom_site_charge
Cl	Cl	0.00471 0.38098 0.88400 -0.30100
Cl	Cl	0.00471 0.88098 0.88400 -0.30000
C 	C 	0.00744 0.35007 0.97117 0.22100
C 	C 	0.00744 0.85007 0.97117 0.22100
C 	C 	0.01132 0.30153 0.11071 -0.03600
C 	C 	0.01132 0.80153 0.11071 -0.03600
H 	H 	0.01343 0.28468 0.16715 0.04200
H 	H 	0.01343 0.78468 0.16715 0.04200
C 	C 	0.01882 0.29339 0.56713 -0.01100
C 	C 	0.01882 0.79339 0.56713 -0.01100
O 	O 	0.04776 0.28604 0.70355 -0.37400
C 	C 	0.05368 0.34707 0.98332 -0.10600
C 	C 	0.02681 0.29219 0.47437 -0.04700
O 	O 	0.04776 0.78604 0.70355 -0.37400
C 	C 	0.05368 0.84708 0.98332 -0.10600
C 	C 	0.02681 0.79219 0.47437 -0.04700
O 	O 	0.05777 0.28013 0.88377 -0.37900
C 	C 	0.05877 0.29254 0.61805 0.25100
C 	C 	0.05661 0.33213 0.06434 0.01100
H 	H 	0.06223 0.29105 0.43951 0.05800
O 	O 	0.05777 0.78013 0.88377 -0.37900
C 	C 	0.05877 0.79254 0.61805 0.25100
C 	C 	0.05661 0.83213 0.06434 0.01100
H 	H 	0.06223 0.79105 0.43951 0.05800
Ni	Ni	0.07213 0.24263 0.76789 1.07900
C 	C 	0.07904 0.32843 0.90581 0.33900
Ni	Ni	0.07213 0.74264 0.76789 1.07900
C 	C 	0.07904 0.82843 0.90581 0.33900
H 	H 	0.99396 0.28671 0.35421 0.02400
H 	H 	0.99396 0.78672 0.35421 0.02500
O 	O 	0.10666 0.30621 0.58091 -0.36200
H 	H 	0.09344 0.33579 0.08170 0.04100
O 	O 	0.10666 0.80621 0.58091 -0.36200
H 	H 	0.09344 0.83579 0.08170 0.04100
O 	O 	0.12787 0.35452 0.88020 -0.37300
O 	O 	0.12787 0.85452 0.88020 -0.37200
O 	O 	0.09635 0.20371 0.84134 -0.36600
O 	O 	0.14334 0.28221 0.73346 -0.70300
O 	O 	0.13646 0.27310 0.93262 -0.36500
C 	C 	0.12334 0.22565 0.91101 0.26300
H 	H 	0.10068 0.17075 0.05120 0.05300
O 	O 	0.09635 0.70371 0.84134 -0.36600
O 	O 	0.14334 0.78221 0.73346 -0.70300
O 	O 	0.13646 0.77310 0.93262 -0.36500
C 	C 	0.12334 0.72565 0.91101 0.26300
H 	H 	0.10068 0.67075 0.05120 0.05300
C 	C 	0.14097 0.18693 0.02675 -0.06900
C 	C 	0.14097 0.68693 0.02675 -0.06900
Ni	Ni	0.16924 0.33851 0.65305 1.10800
O 	O 	0.20419 0.39628 0.57656 -0.34700
Ni	Ni	0.16924 0.83851 0.65305 1.10800
O 	O 	0.20419 0.89628 0.57656 -0.34600
H 	H 	0.15833 0.25736 0.71301 0.16700
H 	H 	0.15833 0.75736 0.71301 0.16700
Ni	Ni	0.17806 0.32005 0.84069 1.10400
O 	O 	0.21590 0.36851 0.74773 -0.70200
H 	H 	0.21848 0.40276 0.76834 0.20300
O 	O 	0.20467 0.30127 0.56392 -0.38000
C 	C 	0.15511 0.20401 0.94224 0.01500
C 	C 	0.17865 0.19677 0.08435 0.04500
H 	H 	0.16707 0.18464 0.15018 0.02000
C 	C 	0.19105 0.13523 0.52103 -0.07900
H 	H 	0.18514 0.10199 0.55048 0.09500
Ni	Ni	0.17806 0.82005 0.84069 1.10400
O 	O 	0.21590 0.86851 0.74773 -0.70200
H 	H 	0.21848 0.90276 0.76834 0.20300
O 	O 	0.20467 0.80127 0.56392 -0.38000
C 	C 	0.15511 0.70401 0.94224 0.01500
C 	C 	0.17865 0.69677 0.08435 0.04500
H 	H 	0.16707 0.68464 0.15018 0.02000
C 	C 	0.19105 0.63523 0.52103 -0.07900
H 	H 	0.18514 0.60199 0.55048 0.09500
C 	C 	0.19737 0.13458 0.42844 -0.03100
C 	C 	0.19737 0.63458 0.42844 -0.03000
H 	H 	0.18994 0.17185 0.32456 0.03500
H 	H 	0.18994 0.67185 0.32456 0.03500
Cl	Cl	0.20789 0.18215 0.68731 -0.32400
Cl	Cl	0.20789 0.68215 0.68731 -0.32300
O 	O 	0.22965 0.09137 0.30177 -0.40300
C 	C 	0.20503 0.18109 0.57382 0.20100
O 	O 	0.22965 0.59137 0.30177 -0.40300
C 	C 	0.20503 0.68109 0.57382 0.20100
C 	C 	0.19479 0.17445 0.39398 -0.05000
C 	C 	0.19479 0.67446 0.39398 -0.05000
O 	O 	0.23003 0.36361 0.92735 -0.35500
O 	O 	0.23003 0.86361 0.92735 -0.35500
C 	C 	0.25548 0.41374 0.56666 0.31400
C 	C 	0.25548 0.91374 0.56666 0.31400
Cl	Cl	0.24413 0.50687 0.67188 -0.31200
Cl	Cl	0.24413 0.00687 0.67188 -0.31400
C 	C 	0.22557 0.27372 0.58737 0.30500
C 	C 	0.23466 0.11460 0.38211 0.27800
C 	C 	0.22557 0.77372 0.58737 0.30500
C 	C 	0.23466 0.61460 0.38211 0.27800
C 	C 	0.98825 0.29042 0.42584 0.03200
C 	C 	0.98825 0.79042 0.42584 0.03200
O 	O 	0.29604 0.36053 0.82567 -0.34900
Ni	Ni	0.28209 0.36619 0.69877 1.10300
O 	O 	0.25496 0.29069 0.65390 -0.35500
C 	C 	0.27884 0.38328 0.89640 0.30200
O 	O 	0.27938 0.38522 0.57798 -0.38300
Ni	Ni	0.34608 0.16614 0.33945 1.10200
O 	O 	0.31333 0.19686 0.26941 -0.70900
Ni	Ni	0.32462 0.16584 0.14821 1.10100
O 	O 	0.36035 0.22415 0.43596 -0.36400
O 	O 	0.39696 0.28634 0.34359 -0.39900
O 	O 	0.27886 0.13086 0.41334 -0.35800
Ni	Ni	0.33338 0.26778 0.27064 1.07600
O 	O 	0.30081 0.05599 0.36552 -0.38700
O 	O 	0.38171 0.28183 0.15728 -0.37600
O 	O 	0.30484 0.20760 0.07846 -0.36000
O 	O 	0.34185 0.12484 0.22458 -0.71100
O 	O 	0.37220 0.12709 0.40288 -0.36500
O 	O 	0.32635 0.11572 0.04050 -0.35700
O 	O 	0.26204 0.05795 0.11872 -0.40700
Ni	Ni	0.28326 0.06260 0.24461 1.06700
H 	H 	0.27586 0.18350 0.28230 0.15500
H 	H 	0.37422 0.12022 0.20333 0.16500
C 	C 	0.41548 0.26191 0.13135 0.27500
C 	C 	0.39523 0.26803 0.41869 0.30900
C 	C 	0.27081 0.22659 0.11281 0.31700
C 	C 	0.29750 0.06854 0.05082 0.27400
C 	C 	0.34581 0.07801 0.40049 0.25600
O 	O 	0.40110 0.21297 0.12651 -0.37400
O 	O 	0.27505 0.25331 0.19214 -0.39600
C 	C 	0.96176 0.31996 0.01678 -0.10400
C 	C 	0.96358 0.29229 0.08230 -0.01200
H 	H 	0.92511 0.31728 0.00024 0.11200
C 	C 	0.94078 0.28877 0.46902 -0.13300
C 	C 	0.93431 0.29416 0.56233 0.21300
C 	C 	0.97305 0.29611 0.61094 -0.08900
H 	H 	0.96725 0.29934 0.68255 0.11200
Cl	Cl	0.87728 0.29738 0.61909 -0.31400
C 	C 	0.28641 0.46126 0.53030 -0.12700
C 	C 	0.28731 0.50638 0.57739 0.21200
C 	C 	0.32300 0.55162 0.54815 -0.07900
C 	C 	0.35251 0.55145 0.46649 -0.01300
C 	C 	0.36084 0.50827 0.43464 -0.04700
C 	C 	0.32550 0.46272 0.46180 0.03700
H 	H 	0.32106 0.58621 0.58001 0.10300
H 	H 	0.32838 0.42856 0.42968 0.02900
H 	H 	0.38837 0.50868 0.37770 0.04000
C 	C 	0.30975 0.43546 0.92750 -0.09200
C 	C 	0.31878 0.47390 0.87452 0.18700
C 	C 	0.31918 0.52006 0.91455 -0.03800
C 	C 	0.31469 0.52911 0.00699 -0.07400
C 	C 	0.31694 0.49450 0.05804 -0.01000
C 	C 	0.31427 0.44780 0.01845 -0.00800
H 	H 	0.32098 0.54783 0.87402 0.09600
H 	H 	0.31035 0.41956 0.05977 0.04300
Cl	Cl	0.33178 0.46554 0.75916 -0.41700
H 	H 	0.31649 0.50222 0.12931 -0.02200
C 	C 	0.23096 0.22243 0.05702 -0.15700
C 	C 	0.24527 0.23490 0.96921 0.23900
C 	C 	0.20760 0.22323 0.91138 -0.09800
H 	H 	0.21920 0.23817 0.84793 0.08800
Cl	Cl	0.31003 0.26954 0.93290 -0.28200
C 	C 	0.21766 0.22525 0.53398 -0.12000
C 	C 	0.20983 0.22090 0.44383 0.01100
H 	H 	0.21504 0.25341 0.41275 0.02700
O 	O 	0.29604 0.86053 0.82567 -0.34800
Ni	Ni	0.28209 0.86619 0.69877 1.10300
O 	O 	0.25496 0.79069 0.65390 -0.35500
C 	C 	0.27884 0.88328 0.89640 0.30200
O 	O 	0.27938 0.88522 0.57798 -0.38300
Ni	Ni	0.34608 0.66614 0.33945 1.10200
O 	O 	0.31332 0.69686 0.26941 -0.70900
Ni	Ni	0.32462 0.66585 0.14821 1.10100
O 	O 	0.36035 0.72415 0.43596 -0.36400
O 	O 	0.39696 0.78634 0.34359 -0.39900
O 	O 	0.27886 0.63086 0.41334 -0.35800
Ni	Ni	0.33338 0.76778 0.27064 1.07600
O 	O 	0.30081 0.55599 0.36552 -0.38700
O 	O 	0.38171 0.78183 0.15728 -0.37500
O 	O 	0.30484 0.70760 0.07846 -0.36000
O 	O 	0.34185 0.62484 0.22458 -0.71100
O 	O 	0.37220 0.62709 0.40288 -0.36500
O 	O 	0.32635 0.61572 0.04050 -0.35600
O 	O 	0.26204 0.55795 0.11872 -0.40600
Ni	Ni	0.28326 0.56260 0.24461 1.06800
H 	H 	0.27586 0.68350 0.28230 0.15500
H 	H 	0.37422 0.62022 0.20333 0.16500
C 	C 	0.41548 0.76191 0.13135 0.27500
C 	C 	0.39523 0.76803 0.41869 0.30900
C 	C 	0.27081 0.72659 0.11281 0.31800
C 	C 	0.29750 0.56854 0.05082 0.27300
C 	C 	0.34581 0.57801 0.40049 0.25600
O 	O 	0.40110 0.71297 0.12651 -0.37400
O 	O 	0.27505 0.75331 0.19214 -0.39600
C 	C 	0.96176 0.81996 0.01678 -0.10300
C 	C 	0.96358 0.79229 0.08230 -0.01200
H 	H 	0.92511 0.81728 0.00024 0.11200
C 	C 	0.94078 0.78877 0.46902 -0.13300
C 	C 	0.93431 0.79416 0.56233 0.21300
C 	C 	0.97305 0.79611 0.61094 -0.08900
H 	H 	0.96725 0.79934 0.68255 0.11200
Cl	Cl	0.87728 0.79738 0.61909 -0.31400
C 	C 	0.28641 0.96126 0.53030 -0.12400
C 	C 	0.28731 0.00638 0.57739 0.20900
C 	C 	0.32300 0.05162 0.54815 -0.07900
C 	C 	0.35251 0.05145 0.46649 -0.01200
C 	C 	0.36084 0.00827 0.43464 -0.05100
C 	C 	0.32550 0.96272 0.46180 0.04000
H 	H 	0.32106 0.08621 0.58001 0.10300
H 	H 	0.32838 0.92856 0.42968 0.02900
H 	H 	0.38837 0.00868 0.37770 0.04000
C 	C 	0.30975 0.93546 0.92750 -0.09200
C 	C 	0.31878 0.97390 0.87452 0.19000
C 	C 	0.31918 0.02006 0.91455 -0.04100
C 	C 	0.31469 0.02911 0.00699 -0.07800
C 	C 	0.31695 0.99450 0.05804 -0.00200
C 	C 	0.31427 0.94780 0.01845 -0.01000
H 	H 	0.32098 0.04783 0.87402 0.09600
H 	H 	0.31035 0.91956 0.05977 0.04400
Cl	Cl	0.33178 0.96554 0.75916 -0.41600
H 	H 	0.31648 0.00222 0.12931 -0.02600
C 	C 	0.23096 0.72243 0.05702 -0.15700
C 	C 	0.24527 0.73490 0.96921 0.23900
C 	C 	0.20760 0.72323 0.91138 -0.09800
H 	H 	0.21920 0.73817 0.84793 0.08800
Cl	Cl	0.31003 0.76954 0.93290 -0.28200
C 	C 	0.21766 0.72525 0.53398 -0.12000
C 	C 	0.20983 0.72090 0.44383 0.01100
H 	H 	0.21504 0.75341 0.41275 0.02700
Ni	Ni	0.67806 0.32005 0.84069 1.10400
O 	O 	0.71590 0.36851 0.74773 -0.70200
Ni	Ni	0.66924 0.33851 0.65305 1.10800
O 	O 	0.73003 0.36361 0.92735 -0.35500
O 	O 	0.79604 0.36053 0.82567 -0.34800
O 	O 	0.62787 0.35452 0.88020 -0.37300
Ni	Ni	0.78210 0.36619 0.69877 1.10300
O 	O 	0.59635 0.20371 0.84134 -0.36600
O 	O 	0.75496 0.29069 0.65390 -0.35500
O 	O 	0.70419 0.39628 0.57656 -0.34700
O 	O 	0.64334 0.28221 0.73346 -0.70300
O 	O 	0.63646 0.27310 0.93262 -0.36500
O 	O 	0.60666 0.30621 0.58091 -0.36200
O 	O 	0.54776 0.28604 0.70355 -0.37400
Ni	Ni	0.57213 0.24263 0.76789 1.07900
H 	H 	0.71848 0.40276 0.76834 0.20300
H 	H 	0.65833 0.25736 0.71301 0.16700
C 	C 	0.72557 0.27372 0.58737 0.30500
O 	O 	0.55777 0.28013 0.88377 -0.37900
C 	C 	0.77884 0.38328 0.89640 0.30200
C 	C 	0.75548 0.41374 0.56666 0.31400
C 	C 	0.57904 0.32843 0.90581 0.33900
C 	C 	0.55878 0.29254 0.61805 0.25100
C 	C 	0.62334 0.22565 0.91101 0.26300
O 	O 	0.70468 0.30127 0.56392 -0.38000
O 	O 	0.77938 0.38522 0.57798 -0.38300
Ni	Ni	0.84608 0.16614 0.33945 1.10200
O 	O 	0.81333 0.19686 0.26941 -0.70900
Ni	Ni	0.82462 0.16584 0.14821 1.10100
O 	O 	0.86035 0.22415 0.43596 -0.36400
O 	O 	0.89696 0.28634 0.34359 -0.39900
O 	O 	0.77886 0.13086 0.41334 -0.35800
Ni	Ni	0.83338 0.26778 0.27064 1.07600
O 	O 	0.80081 0.05599 0.36552 -0.38700
O 	O 	0.88171 0.28183 0.15728 -0.37500
O 	O 	0.80484 0.20760 0.07846 -0.36000
O 	O 	0.84185 0.12484 0.22458 -0.71100
O 	O 	0.87220 0.12709 0.40288 -0.36500
O 	O 	0.82635 0.11572 0.04050 -0.35600
O 	O 	0.76204 0.05795 0.11872 -0.40700
Ni	Ni	0.78327 0.06260 0.24461 1.06700
H 	H 	0.77586 0.18350 0.28230 0.15500
H 	H 	0.87422 0.12022 0.20333 0.16500
C 	C 	0.91548 0.26191 0.13135 0.27500
O 	O 	0.72965 0.09137 0.30177 -0.40300
C 	C 	0.89523 0.26803 0.41869 0.30900
C 	C 	0.77081 0.22659 0.11281 0.31700
C 	C 	0.73466 0.11460 0.38211 0.27800
C 	C 	0.79750 0.06854 0.05082 0.27400
C 	C 	0.84582 0.07801 0.40049 0.25600
O 	O 	0.90111 0.21297 0.12651 -0.37300
O 	O 	0.77506 0.25331 0.19214 -0.39600
C 	C 	0.55368 0.34707 0.98332 -0.10600
C 	C 	0.50744 0.35007 0.97117 0.22200
C 	C 	0.46176 0.31996 0.01678 -0.10500
C 	C 	0.46358 0.29229 0.08230 -0.01400
C 	C 	0.51132 0.30153 0.11071 -0.03500
C 	C 	0.55661 0.33213 0.06434 0.01100
H 	H 	0.42511 0.31728 0.00024 0.11200
H 	H 	0.59344 0.33579 0.08170 0.04100
Cl	Cl	0.50470 0.38098 0.88400 -0.30100
H 	H 	0.51343 0.28468 0.16715 0.04100
C 	C 	0.44078 0.28877 0.46902 -0.13300
C 	C 	0.43431 0.29416 0.56233 0.21300
C 	C 	0.47305 0.29611 0.61094 -0.09000
C 	C 	0.51882 0.29339 0.56713 -0.01000
C 	C 	0.52681 0.29219 0.47437 -0.04600
C 	C 	0.48825 0.29042 0.42584 0.03000
H 	H 	0.46725 0.29934 0.68255 0.11200
H 	H 	0.49396 0.28671 0.35421 0.02400
Cl	Cl	0.37728 0.29738 0.61909 -0.31400
H 	H 	0.56223 0.29105 0.43951 0.05700
C 	C 	0.78641 0.46126 0.53030 -0.12700
C 	C 	0.78731 0.50638 0.57739 0.21200
C 	C 	0.82300 0.55162 0.54815 -0.07900
C 	C 	0.85251 0.55145 0.46649 -0.01200
C 	C 	0.86084 0.50827 0.43464 -0.04700
C 	C 	0.82551 0.46272 0.46180 0.03700
H 	H 	0.82106 0.58621 0.58001 0.10300
H 	H 	0.82838 0.42856 0.42968 0.02900
Cl	Cl	0.74413 0.50687 0.67188 -0.31200
H 	H 	0.88837 0.50868 0.37770 0.04000
C 	C 	0.80975 0.43546 0.92750 -0.09200
C 	C 	0.81878 0.47390 0.87452 0.18700
C 	C 	0.81918 0.52006 0.91455 -0.03800
C 	C 	0.81469 0.52911 0.00699 -0.07400
C 	C 	0.81695 0.49450 0.05804 -0.01000
C 	C 	0.81427 0.44780 0.01845 -0.00800
H 	H 	0.82098 0.54783 0.87402 0.09600
H 	H 	0.81035 0.41956 0.05977 0.04300
Cl	Cl	0.83178 0.46554 0.75916 -0.41700
H 	H 	0.81648 0.50222 0.12931 -0.02200
C 	C 	0.73096 0.22243 0.05702 -0.15700
C 	C 	0.74527 0.23490 0.96921 0.23900
C 	C 	0.70761 0.22323 0.91138 -0.09800
C 	C 	0.65511 0.20401 0.94224 0.01500
C 	C 	0.64097 0.18693 0.02675 -0.06900
C 	C 	0.67865 0.19677 0.08435 0.04500
H 	H 	0.71920 0.23817 0.84793 0.08800
H 	H 	0.66707 0.18464 0.15018 0.02000
Cl	Cl	0.81003 0.26954 0.93290 -0.28200
H 	H 	0.60068 0.17075 0.05120 0.05300
C 	C 	0.71766 0.22525 0.53398 -0.12000
C 	C 	0.70503 0.18109 0.57382 0.20100
C 	C 	0.69105 0.13523 0.52103 -0.07900
C 	C 	0.69737 0.13458 0.42844 -0.03000
C 	C 	0.69479 0.17445 0.39398 -0.05000
C 	C 	0.70983 0.22090 0.44383 0.01100
H 	H 	0.68514 0.10199 0.55048 0.09500
H 	H 	0.71504 0.25341 0.41275 0.02700
Cl	Cl	0.70789 0.18215 0.68731 -0.32400
H 	H 	0.68994 0.17185 0.32456 0.03500
Ni	Ni	0.67806 0.82005 0.84069 1.10400
O 	O 	0.71590 0.86851 0.74773 -0.70200
Ni	Ni	0.66924 0.83851 0.65305 1.10800
O 	O 	0.73003 0.86361 0.92735 -0.35500
O 	O 	0.79604 0.86053 0.82567 -0.34800
O 	O 	0.62787 0.85452 0.88020 -0.37200
Ni	Ni	0.78210 0.86619 0.69877 1.10300
O 	O 	0.59635 0.70371 0.84134 -0.36600
O 	O 	0.75496 0.79069 0.65390 -0.35500
O 	O 	0.70419 0.89628 0.57656 -0.34600
O 	O 	0.64334 0.78221 0.73346 -0.70300
O 	O 	0.63646 0.77310 0.93262 -0.36500
O 	O 	0.60666 0.80621 0.58091 -0.36200
O 	O 	0.54776 0.78604 0.70355 -0.37400
Ni	Ni	0.57213 0.74264 0.76789 1.07900
H 	H 	0.71848 0.90276 0.76834 0.20300
H 	H 	0.65833 0.75736 0.71301 0.16700
C 	C 	0.72557 0.77372 0.58737 0.30500
O 	O 	0.55777 0.78013 0.88377 -0.37900
C 	C 	0.77884 0.88328 0.89640 0.30200
C 	C 	0.75548 0.91374 0.56666 0.31400
C 	C 	0.57904 0.82843 0.90581 0.33900
C 	C 	0.55878 0.79254 0.61805 0.25100
C 	C 	0.62334 0.72565 0.91101 0.26300
O 	O 	0.70468 0.80127 0.56392 -0.38000
O 	O 	0.77938 0.88522 0.57798 -0.38300
Ni	Ni	0.84608 0.66614 0.33945 1.10200
O 	O 	0.81333 0.69686 0.26941 -0.70900
Ni	Ni	0.82462 0.66585 0.14821 1.10100
O 	O 	0.86035 0.72415 0.43596 -0.36400
O 	O 	0.89696 0.78634 0.34359 -0.39900
O 	O 	0.77886 0.63086 0.41334 -0.35800
Ni	Ni	0.83338 0.76778 0.27064 1.07600
O 	O 	0.80081 0.55599 0.36552 -0.38700
O 	O 	0.88171 0.78183 0.15728 -0.37500
O 	O 	0.80484 0.70760 0.07846 -0.36000
O 	O 	0.84185 0.62484 0.22458 -0.71100
O 	O 	0.87220 0.62709 0.40288 -0.36500
O 	O 	0.82635 0.61572 0.04050 -0.35600
O 	O 	0.76204 0.55795 0.11872 -0.40600
Ni	Ni	0.78327 0.56260 0.24461 1.06800
H 	H 	0.77586 0.68350 0.28230 0.15500
H 	H 	0.87422 0.62022 0.20333 0.16500
C 	C 	0.91548 0.76191 0.13135 0.27500
O 	O 	0.72965 0.59137 0.30177 -0.40300
C 	C 	0.89523 0.76803 0.41869 0.30900
C 	C 	0.77081 0.72659 0.11281 0.31800
C 	C 	0.73466 0.61460 0.38211 0.27800
C 	C 	0.79750 0.56854 0.05082 0.27300
C 	C 	0.84581 0.57801 0.40049 0.25600
O 	O 	0.90111 0.71297 0.12651 -0.37300
O 	O 	0.77506 0.75331 0.19214 -0.39600
C 	C 	0.55368 0.84708 0.98332 -0.10600
C 	C 	0.50744 0.85007 0.97117 0.22200
C 	C 	0.46176 0.81996 0.01678 -0.10500
C 	C 	0.46358 0.79229 0.08230 -0.01400
C 	C 	0.51132 0.80153 0.11071 -0.03500
C 	C 	0.55661 0.83213 0.06434 0.01100
H 	H 	0.42511 0.81728 0.00024 0.11200
H 	H 	0.59344 0.83579 0.08170 0.04200
Cl	Cl	0.50470 0.88098 0.88400 -0.30000
H 	H 	0.51343 0.78468 0.16715 0.04100
C 	C 	0.44078 0.78877 0.46902 -0.13300
C 	C 	0.43431 0.79416 0.56233 0.21300
C 	C 	0.47305 0.79611 0.61094 -0.09000
C 	C 	0.51882 0.79339 0.56713 -0.01000
C 	C 	0.52681 0.79219 0.47437 -0.04500
C 	C 	0.48825 0.79042 0.42584 0.03000
H 	H 	0.46725 0.79934 0.68255 0.11200
H 	H 	0.49396 0.78672 0.35421 0.02400
Cl	Cl	0.37728 0.79738 0.61909 -0.31400
H 	H 	0.56223 0.79105 0.43951 0.05800
C 	C 	0.78641 0.96126 0.53030 -0.12400
C 	C 	0.78731 0.00638 0.57739 0.20900
C 	C 	0.82300 0.05162 0.54815 -0.07800
C 	C 	0.85251 0.05145 0.46649 -0.01200
C 	C 	0.86084 0.00827 0.43464 -0.05100
C 	C 	0.82551 0.96272 0.46180 0.04000
H 	H 	0.82106 0.08621 0.58001 0.10300
H 	H 	0.82838 0.92856 0.42968 0.02900
Cl	Cl	0.74413 0.00687 0.67188 -0.31400
H 	H 	0.88837 0.00868 0.37770 0.04000
C 	C 	0.80975 0.93546 0.92750 -0.09200
C 	C 	0.81878 0.97390 0.87452 0.19000
C 	C 	0.81918 0.02006 0.91455 -0.04100
C 	C 	0.81469 0.02911 0.00699 -0.07800
C 	C 	0.81695 0.99450 0.05804 -0.00200
C 	C 	0.81427 0.94780 0.01845 -0.01000
H 	H 	0.82098 0.04783 0.87402 0.09600
H 	H 	0.81035 0.91956 0.05977 0.04400
Cl	Cl	0.83178 0.96554 0.75916 -0.41600
H 	H 	0.81648 0.00222 0.12931 -0.02600
C 	C 	0.73096 0.72243 0.05702 -0.15700
C 	C 	0.74527 0.73490 0.96921 0.23900
C 	C 	0.70761 0.72323 0.91138 -0.09800
C 	C 	0.65511 0.70401 0.94224 0.01500
C 	C 	0.64097 0.68693 0.02675 -0.06900
C 	C 	0.67865 0.69677 0.08435 0.04500
H 	H 	0.71920 0.73817 0.84793 0.08800
H 	H 	0.66707 0.68464 0.15018 0.02000
Cl	Cl	0.81003 0.76954 0.93290 -0.28100
H 	H 	0.60068 0.67075 0.05120 0.05300
C 	C 	0.71766 0.72525 0.53398 -0.12000
C 	C 	0.70503 0.68109 0.57382 0.20100
C 	C 	0.69105 0.63523 0.52103 -0.07800
C 	C 	0.69737 0.63458 0.42844 -0.03000
C 	C 	0.69479 0.67446 0.39398 -0.05000
C 	C 	0.70983 0.72090 0.44383 0.01100
H 	H 	0.68514 0.60199 0.55048 0.09600
H 	H 	0.71504 0.75341 0.41275 0.02700
Cl	Cl	0.70789 0.68215 0.68731 -0.32300
H 	H 	0.68994 0.67185 0.32456 0.03500
