data_crystal

_cell_length_a 26.15746
_cell_length_b 26.31831
_cell_length_c 33.15669
_cell_angle_alpha 95.48935
_cell_angle_beta  95.48647
_cell_angle_gamma 125.82944

_symmetry_space_group_name_	'P 1'
_symmetry_space_group_name_H-M	'P 1'

loop_
_symmetry_equiv_pos_as_xyz
  x,y,z

loop_
_atom_site_label
_atom_site_type_symbol
_atom_site_fract_x
_atom_site_fract_y
_atom_site_fract_z
_atom_site_charge
C 	C 	0.95663 0.02721 0.98567 0.14500
N 	N 	0.01814 0.05922 0.97964 -0.12500
C 	C 	0.04509 0.02829 0.97562 0.15000
N 	N 	0.01052 0.96551 0.97799 -0.11100
C 	C 	0.94859 0.93316 0.98288 0.15800
N 	N 	0.92169 0.96402 0.98686 -0.11300
C 	C 	0.94149 0.99880 0.45924 0.17400
N 	N 	0.90602 0.93512 0.45923 -0.12300
C 	C 	0.93518 0.90621 0.46173 0.16100
N 	N 	0.99973 0.94104 0.46435 -0.12200
C 	C 	0.03496 0.00434 0.46366 0.15700
N 	N 	0.00586 0.03319 0.46112 -0.13200
Cu	Cu	0.62989 0.24151 0.01132 0.93100
Cu	Cu	0.66424 0.23195 0.91966 0.88200
Cu	Cu	0.66227 0.33934 0.95574 0.90700
Cu	Cu	0.64006 0.36518 0.04062 0.90500
C 	C 	0.66968 0.30116 0.09643 0.25800
O 	O 	0.53919 0.20874 0.01602 -0.35400
C 	C 	0.63203 0.29009 0.86539 0.26400
O 	O 	0.68405 0.34063 0.01278 -0.63700
O 	O 	0.61452 0.24515 0.95244 -0.63700
O 	O 	0.66448 0.19158 0.00564 -0.36300
O 	O 	0.72965 0.25053 0.96245 -0.41100
O 	O 	0.63911 0.32626 0.08952 -0.34800
O 	O 	0.71330 0.43135 0.96302 -0.35200
C 	C 	0.71340 0.46896 0.99252 0.31500
C 	C 	0.51410 0.23579 0.00127 0.30200
O 	O 	0.55161 0.29552 0.99683 -0.36300
O 	O 	0.67445 0.44579 0.01934 -0.37100
O 	O 	0.65852 0.25404 0.06931 -0.33700
C 	C 	0.71582 0.21293 0.98940 0.31400
O 	O 	0.65569 0.33909 0.89569 -0.34200
O 	O 	0.61965 0.23596 0.87271 -0.39300
H 	H 	0.73081 0.36677 0.02355 0.18700
H 	H 	0.56877 0.22009 0.93920 0.19000
Cu	Cu	0.74221 0.33989 0.45388 0.93300
Cu	Cu	0.74335 0.29561 0.54304 0.88500
Cu	Cu	0.63311 0.29004 0.50188 0.90200
Cu	Cu	0.61491 0.31983 0.41856 0.90300
C 	C 	0.70617 0.32581 0.36667 0.26500
O 	O 	0.76757 0.42906 0.45314 -0.33700
C 	C 	0.67155 0.31475 0.59299 0.26000
O 	O 	0.64191 0.27755 0.44570 -0.63800
O 	O 	0.72894 0.34511 0.51125 -0.63900
O 	O 	0.79786 0.31129 0.46069 -0.34000
O 	O 	0.73515 0.23823 0.49903 -0.42500
O 	O 	0.66893 0.34270 0.37475 -0.36200
O 	O 	0.54050 0.23438 0.48871 -0.36800
C 	C 	0.50515 0.24198 0.46254 0.31500
C 	C 	0.73283 0.44624 0.46623 0.30000
O 	O 	0.67252 0.40231 0.46813 -0.37700
O 	O 	0.52538 0.26796 0.42977 -0.36400
O 	O 	0.73872 0.31980 0.39629 -0.33400
C 	C 	0.77790 0.25893 0.47505 0.31000
O 	O 	0.62452 0.28725 0.56048 -0.35000
O 	O 	0.72882 0.33090 0.58947 -0.38900
H 	H 	0.62014 0.23246 0.43282 0.17900
H 	H 	0.74919 0.38881 0.52634 0.19400
C 	C 	0.63125 0.27401 0.68759 0.12100
C 	C 	0.59479 0.23943 0.71633 -0.07900
C 	C 	0.62165 0.26647 0.75824 0.01400
C 	C 	0.67557 0.32826 0.77092 0.12200
C 	C 	0.70854 0.36512 0.74191 -0.08000
C 	C 	0.68774 0.33418 0.70049 0.01600
O 	O 	0.60725 0.25888 0.64559 -0.17800
C 	C 	0.65629 0.31566 0.63437 0.05200
C 	C 	0.70241 0.36210 0.66752 -0.05200
O 	O 	0.68388 0.35378 0.81169 -0.17700
C 	C 	0.63029 0.30002 0.82260 0.05200
C 	C 	0.59093 0.24904 0.78998 -0.05000
H 	H 	0.54745 0.19449 0.70651 0.08100
H 	H 	0.74754 0.41556 0.75106 0.08200
H 	H 	0.74951 0.40386 0.66554 0.06900
H 	H 	0.55455 0.20019 0.79274 0.06800
C 	C 	0.75346 0.36371 0.19962 0.12700
C 	C 	0.76345 0.39728 0.23855 -0.08200
C 	C 	0.76295 0.37026 0.27309 0.02200
C 	C 	0.74387 0.30842 0.26897 0.12400
C 	C 	0.72870 0.27279 0.22961 -0.07900
C 	C 	0.73895 0.30362 0.19565 0.01800
O 	O 	0.73439 0.37593 0.16357 -0.18300
C 	C 	0.70665 0.31744 0.13782 0.05400
C 	C 	0.70879 0.27394 0.15651 -0.04800
O 	O 	0.71946 0.27963 0.30238 -0.17800
C 	C 	0.72393 0.32945 0.32595 0.05600
C 	C 	0.74998 0.38347 0.30905 -0.05200
H 	H 	0.76713 0.44072 0.24150 0.08200
H 	H 	0.70619 0.22213 0.22538 0.08200
H 	H 	0.67606 0.22265 0.14621 0.07300
H 	H 	0.74430 0.42055 0.31722 0.07000
C 	C 	0.75721 0.51354 0.47056 -0.09400
C 	C 	0.81895 0.56304 0.49325 0.15100
C 	C 	0.84394 0.62676 0.49285 -0.08200
C 	C 	0.80742 0.64169 0.47068 0.03100
C 	C 	0.74460 0.59236 0.44973 0.08300
C 	C 	0.71981 0.52868 0.44974 -0.00700
H 	H 	0.89193 0.66470 0.50962 0.09300
C 	C 	0.83673 0.70875 0.46743 0.01600
H 	H 	0.67202 0.49089 0.43262 0.06400
C 	C 	0.86537 0.73210 0.43341 -0.06400
C 	C 	0.89502 0.79592 0.43029 0.12300
C 	C 	0.89713 0.83736 0.46183 -0.02800
C 	C 	0.86683 0.81356 0.49525 -0.03600
C 	C 	0.83674 0.74953 0.49821 0.10100
H 	H 	0.86449 0.70055 0.40934 0.08700
H 	H 	0.86789 0.84514 0.51941 0.08900
Br	Br	0.69216 0.61110 0.42061 -0.17700
Br	Br	0.86860 0.54487 0.52655 -0.21900
Br	Br	0.93048 0.82509 0.38209 -0.16900
Br	Br	0.79611 0.71866 0.54450 -0.17600
C 	C 	0.91026 0.03040 0.45620 -0.04300
C 	C 	0.88242 0.03695 0.48874 0.11700
C 	C 	0.85912 0.07308 0.48721 -0.06500
C 	C 	0.86364 0.10315 0.45359 0.01500
C 	C 	0.89023 0.09552 0.42068 0.09900
C 	C 	0.91331 0.05920 0.42210 -0.03300
H 	H 	0.83856 0.07879 0.51255 0.08200
C 	C 	0.84315 0.14488 0.45405 0.02900
H 	H 	0.93461 0.05422 0.39698 0.08400
C 	C 	0.88739 0.20976 0.47188 -0.08200
C 	C 	0.86730 0.24859 0.47685 0.14700
C 	C 	0.80228 0.22244 0.46367 -0.09800
C 	C 	0.75870 0.15822 0.44414 -0.00600
C 	C 	0.77878 0.11939 0.43934 0.08300
H 	H 	0.93710 0.22962 0.48294 0.09000
H 	H 	0.70874 0.13799 0.43368 0.06500
Br	Br	0.89599 0.13490 0.37378 -0.18000
Br	Br	0.87888 0.99988 0.53653 -0.18100
Br	Br	0.92858 0.33606 0.50404 -0.21600
Br	Br	0.71740 0.03137 0.41337 -0.18600
C 	C 	0.10410 0.04106 0.46421 -0.03100
C 	C 	0.12782 0.05129 0.42715 0.12500
C 	C 	0.19381 0.08526 0.42814 -0.06500
C 	C 	0.23643 0.10896 0.46586 0.01600
C 	C 	0.21274 0.09936 0.50296 0.10000
C 	C 	0.14673 0.06530 0.50195 -0.03700
H 	H 	0.21195 0.09276 0.39955 0.08800
C 	C 	0.30563 0.14308 0.46617 0.03000
H 	H 	0.12855 0.05757 0.53053 0.08000
C 	C 	0.34494 0.20927 0.46808 -0.08000
C 	C 	0.41047 0.24223 0.46759 0.14900
C 	C 	0.43701 0.20867 0.46484 -0.09200
C 	C 	0.39776 0.14254 0.46338 -0.00500
C 	C 	0.33228 0.10963 0.46389 0.08500
H 	H 	0.32458 0.23515 0.47009 0.09200
H 	H 	0.41799 0.11654 0.46128 0.07000
Br	Br	0.26981 0.13199 0.55520 -0.18400
Br	Br	0.07070 0.01842 0.37490 -0.17500
Br	Br	0.46334 0.33330 0.47230 -0.20600
Br	Br	0.27986 0.01898 0.46124 -0.18500
C 	C 	0.91087 0.86490 0.98388 -0.02700
C 	C 	0.88245 0.81955 0.94701 0.12500
C 	C 	0.85049 0.75492 0.94852 -0.06400
C 	C 	0.84589 0.73499 0.98659 0.01700
C 	C 	0.87342 0.78028 0.02348 0.10100
C 	C 	0.90574 0.84497 0.02195 -0.03600
H 	H 	0.82882 0.72007 0.92009 0.08900
C 	C 	0.81166 0.66664 0.98757 0.03000
H 	H 	0.92743 0.87983 0.05038 0.08900
C 	C 	0.84610 0.64128 0.99048 -0.08000
C 	C 	0.81451 0.57669 0.99213 0.15000
C 	C 	0.74760 0.53675 0.99026 -0.09100
C 	C 	0.71317 0.56213 0.98700 -0.00500
C 	C 	0.74484 0.62675 0.98568 0.08500
H 	H 	0.89760 0.67200 0.99204 0.09300
H 	H 	0.66166 0.53154 0.98547 0.07500
Br	Br	0.86713 0.75455 0.07616 -0.17500
Br	Br	0.88566 0.84491 0.89436 -0.17000
Br	Br	0.86402 0.54477 0.99906 -0.20800
Br	Br	0.69620 0.65991 0.98176 -0.17300
C 	C 	0.92758 0.06065 0.99034 -0.02900
C 	C 	0.90944 0.06834 0.02779 0.12200
C 	C 	0.87676 0.09532 0.03057 -0.06400
C 	C 	0.86205 0.11485 0.99627 0.01400
C 	C 	0.88231 0.10936 0.95931 0.10100
C 	C 	0.91498 0.08238 0.95653 -0.03900
H 	H 	0.86210 0.10042 0.05924 0.08800
C 	C 	0.82376 0.13913 0.99884 0.03000
H 	H 	0.92940 0.07707 0.92779 0.08200
C 	C 	0.85496 0.20479 0.01080 -0.08400
C 	C 	0.81968 0.22920 0.00991 0.15200
C 	C 	0.75253 0.18764 0.99674 -0.10300
C 	C 	0.72107 0.12164 0.98700 -0.00900
C 	C 	0.75634 0.09725 0.98794 0.08300
H 	H 	0.90675 0.23696 0.02016 0.09100
H 	H 	0.66933 0.08941 0.97735 0.06200
Br	Br	0.86461 0.13731 0.91209 -0.19800
Br	Br	0.93029 0.04371 0.07573 -0.19300
Br	Br	0.86372 0.31905 0.02809 -0.20900
Br	Br	0.71182 0.00680 0.97307 -0.18900
C 	C 	0.11334 0.06393 0.97253 -0.02500
C 	C 	0.13340 0.03889 0.94390 0.11200
C 	C 	0.19870 0.06667 0.94678 -0.06300
C 	C 	0.24450 0.12081 0.97689 0.01300
C 	C 	0.22491 0.14955 0.00275 0.10400
C 	C 	0.15949 0.12051 0.00090 -0.04000
H 	H 	0.21386 0.04603 0.92567 0.08200
C 	C 	0.31263 0.14635 0.98164 0.03000
H 	H 	0.14451 0.14101 0.02228 0.08600
C 	C 	0.34866 0.18065 0.95274 -0.08500
C 	C 	0.41369 0.20644 0.95726 0.14900
C 	C 	0.44387 0.20036 0.99211 -0.09600
C 	C 	0.40697 0.16335 0.01989 -0.00900
C 	C 	0.34141 0.13553 0.01443 0.08600
H 	H 	0.32596 0.18677 0.92652 0.09000
H 	H 	0.42947 0.15714 0.04618 0.07400
Br	Br	0.28679 0.22831 0.04076 -0.18300
Br	Br	0.07294 0.96961 0.89910 -0.15900
Br	Br	0.45872 0.24482 0.91379 -0.23200
Br	Br	0.29181 0.08236 0.05179 -0.18500
