data_crystal

_cell_length_a 22.25957
_cell_length_b 20.95888
_cell_length_c 45.12284
_cell_angle_alpha 89.89219
_cell_angle_beta  89.89395
_cell_angle_gamma 119.42757

_symmetry_space_group_name_	'P 1'
_symmetry_space_group_name_H-M	'P 1'

loop_
_symmetry_equiv_pos_as_xyz
  x,y,z

loop_
_atom_site_label
_atom_site_type_symbol
_atom_site_fract_x
_atom_site_fract_y
_atom_site_fract_z
_atom_site_charge
C 	C 	0.62687 0.25654 0.87423 0.28200
C 	C 	0.77411 0.53060 0.93836 0.30600
C 	C 	0.81068 0.34762 0.89954 0.30700
C 	C 	0.58988 0.43022 0.91314 0.29600
C 	C 	0.73846 0.34379 0.99394 0.31600
C 	C 	0.55425 0.23122 0.96520 0.29800
Ni	Ni	0.71413 0.41089 0.89503 1.11200
Ni	Ni	0.65573 0.39307 0.96208 1.12000
Ni	Ni	0.68588 0.27012 0.93566 1.11900
O 	O 	0.64578 0.32601 0.86844 -0.37400
O 	O 	0.66392 0.23836 0.89206 -0.37400
O 	O 	0.73765 0.40123 0.98311 -0.40000
O 	O 	0.78889 0.48902 0.92190 -0.38200
O 	O 	0.71403 0.50207 0.95197 -0.38000
O 	O 	0.58663 0.20815 0.94713 -0.39100
O 	O 	0.78384 0.37672 0.88179 -0.37200
O 	O 	0.78789 0.32948 0.92675 -0.38800
O 	O 	0.58852 0.29370 0.98024 -0.39500
O 	O 	0.65041 0.45903 0.89896 -0.37500
O 	O 	0.58012 0.39688 0.93919 -0.38900
O 	O 	0.70989 0.28093 0.97955 -0.38500
O 	O 	0.67002 0.34983 0.92774 -0.71300
H 	H 	0.62224 0.32265 0.92051 0.15300
C 	C 	0.87845 0.52758 0.53947 0.29200
C 	C 	0.66832 0.24861 0.49332 0.31200
C 	C 	0.73424 0.48749 0.48632 0.31400
C 	C 	0.82098 0.29481 0.54740 0.28600
C 	C 	0.58274 0.33394 0.55859 0.31000
C 	C 	0.73434 0.40018 0.60793 0.28700
Ni	Ni	0.79398 0.39180 0.50455 1.11100
Ni	Ni	0.68818 0.29248 0.55682 1.11900
Ni	Ni	0.72547 0.45952 0.54977 1.12000
O 	O 	0.88162 0.47727 0.52281 -0.38000
O 	O 	0.82412 0.53814 0.53852 -0.38200
O 	O 	0.60370 0.29475 0.54398 -0.40300
O 	O 	0.70313 0.31677 0.48439 -0.38200
O 	O 	0.67807 0.23074 0.52019 -0.38300
O 	O 	0.75426 0.46006 0.59164 -0.39000
O 	O 	0.78646 0.47567 0.48265 -0.37500
O 	O 	0.69092 0.45593 0.50818 -0.39100
O 	O 	0.68832 0.33358 0.59813 -0.38300
O 	O 	0.81657 0.31015 0.51906 -0.37200
O 	O 	0.77103 0.28156 0.56667 -0.38100
O 	O 	0.62585 0.40371 0.56402 -0.38400
O 	O 	0.74970 0.38617 0.54102 -0.71200
H 	H 	0.78811 0.39993 0.55493 0.15200
C 	C 	0.95602 0.83681 0.70757 0.28300
C 	C 	0.18438 0.07186 0.77334 0.31300
C 	C 	0.97512 0.88805 0.78654 0.29700
C 	C 	0.17720 0.05859 0.69138 0.29000
C 	C 	0.99817 0.09981 0.77378 0.30400
C 	C 	0.98431 0.07203 0.68871 0.27800
Ni	Ni	0.08397 0.94463 0.73901 1.10100
Ni	Ni	0.09955 0.10533 0.73123 1.12100
Ni	Ni	0.94915 0.96580 0.73738 1.10700
O 	O 	0.02421 0.87502 0.70555 -0.37800
O 	O 	0.91909 0.86196 0.72184 -0.37900
O 	O 	0.06300 0.11666 0.77044 -0.38200
O 	O 	0.13123 0.00645 0.77602 -0.37600
O 	O 	0.18537 0.11638 0.75248 -0.38100
O 	O 	0.94048 0.00382 0.69746 -0.36900
O 	O 	0.00770 0.86938 0.76710 -0.37800
O 	O 	0.95515 0.93573 0.77962 -0.39500
O 	O 	0.02996 0.12078 0.70745 -0.37100
O 	O 	0.17110 0.00969 0.71204 -0.36400
O 	O 	0.14575 0.09830 0.69385 -0.38100
O 	O 	0.95105 0.05534 0.75497 -0.37900
O 	O 	0.04418 0.00160 0.72895 -0.68800
H 	H 	0.04143 0.99459 0.70731 0.13600
C 	C 	0.24595 0.77199 0.45465 0.29400
C 	C 	0.47200 0.69957 0.47369 0.32500
C 	C 	0.40054 0.80532 0.40862 0.31600
C 	C 	0.30443 0.64364 0.51904 0.29000
C 	C 	0.35268 0.60820 0.39714 0.30300
C 	C 	0.18930 0.50879 0.43564 0.29200
Ni	Ni	0.37297 0.75723 0.47149 1.11000
Ni	Ni	0.32756 0.58681 0.46079 1.11700
Ni	Ni	0.26625 0.66725 0.41779 1.12100
O 	O 	0.31315 0.80632 0.46040 -0.38300
O 	O 	0.21526 0.70750 0.44138 -0.38400
O 	O 	0.33385 0.55950 0.41862 -0.39100
O 	O 	0.44782 0.73554 0.48850 -0.39100
O 	O 	0.43161 0.64404 0.45705 -0.39500
O 	O 	0.18531 0.56462 0.42363 -0.37800
O 	O 	0.42597 0.78912 0.43179 -0.39200
O 	O 	0.33321 0.77209 0.40441 -0.38900
O 	O 	0.22546 0.51745 0.46008 -0.39400
O 	O 	0.32330 0.71219 0.51119 -0.37800
O 	O 	0.33051 0.60552 0.50575 -0.38000
O 	O 	0.31096 0.63199 0.38858 -0.39200
O 	O 	0.31159 0.66683 0.45381 -0.71200
H 	H 	0.27062 0.65085 0.46651 0.15200
C 	C 	0.31056 0.55905 0.02188 0.29200
C 	C 	0.25434 0.62942 0.14334 0.31100
C 	C 	0.15685 0.45355 0.07446 0.30800
C 	C 	0.40845 0.72169 0.10457 0.29300
C 	C 	0.11925 0.63076 0.07892 0.32600
C 	C 	0.26934 0.75350 0.02715 0.29800
Ni	Ni	0.29599 0.57411 0.08963 1.11000
Ni	Ni	0.26863 0.71286 0.08965 1.11900
Ni	Ni	0.19953 0.58989 0.03996 1.12100
O 	O 	0.30434 0.52922 0.04879 -0.37300
O 	O 	0.27296 0.58965 0.01391 -0.38500
O 	O 	0.17378 0.69650 0.07931 -0.39700
O 	O 	0.29522 0.60485 0.13402 -0.37700
O 	O 	0.22119 0.64730 0.12444 -0.40200
O 	O 	0.21435 0.68734 0.02319 -0.38600
O 	O 	0.19595 0.49140 0.09645 -0.38300
O 	O 	0.16856 0.48186 0.04766 -0.38000
O 	O 	0.30392 0.77275 0.05254 -0.39100
O 	O 	0.39274 0.66472 0.08746 -0.39000
O 	O 	0.36647 0.75042 0.10738 -0.37800
O 	O 	0.12178 0.57598 0.06623 -0.40000
O 	O 	0.26972 0.63454 0.06914 -0.71600
H 	H 	0.31022 0.66301 0.05634 0.16400
C 	C 	0.81455 0.85136 0.29799 0.28900
C 	C 	0.01601 0.06580 0.21262 0.31200
C 	C 	0.83830 0.84840 0.21768 0.30800
C 	C 	0.99977 0.08890 0.29817 0.26900
C 	C 	0.05535 0.87656 0.23603 0.31400
C 	C 	0.03430 0.90905 0.31505 0.28000
Ni	Ni	0.90095 0.98004 0.25496 1.10400
Ni	Ni	0.05662 0.00707 0.26406 1.13100
Ni	Ni	0.92839 0.84323 0.26642 1.11800
O 	O 	0.81454 0.89471 0.27630 -0.38200
O 	O 	0.86133 0.82949 0.29942 -0.38800
O 	O 	0.09216 0.94040 0.24923 -0.39000
O 	O 	0.97215 0.07006 0.23083 -0.37400
O 	O 	0.05236 0.03495 0.22113 -0.36800
O 	O 	0.00113 0.85313 0.29636 -0.38100
O 	O 	0.87998 0.91892 0.21683 -0.39600
O 	O 	0.84559 0.80796 0.23832 -0.37900
O 	O 	0.06755 0.97810 0.30539 -0.39300
O 	O 	0.93336 0.04963 0.29136 -0.36200
O 	O 	0.04793 0.09423 0.27922 -0.36400
O 	O 	0.98856 0.84881 0.23235 -0.40300
O 	O 	0.95916 0.94503 0.26795 -0.72400
H 	H 	0.95393 0.94905 0.28941 0.14500
C 	C 	0.10494 0.25840 0.08653 -0.06000
C 	C 	0.05824 0.24254 0.11005 0.01500
C 	C 	0.02993 0.28848 0.11507 -0.05000
C 	C 	0.05507 0.35444 0.09949 0.01200
C 	C 	0.10918 0.37533 0.07907 -0.08900
C 	C 	0.13000 0.32450 0.07094 0.01300
C 	C 	0.04817 0.18613 0.13229 0.03000
H 	H 	0.99249 0.27596 0.13264 0.03800
H 	H 	0.03743 0.39258 0.10547 0.02900
H 	H 	0.17054 0.33925 0.05462 0.03400
H 	H 	0.12536 0.22207 0.08171 0.04600
C 	C 	0.98127 0.13277 0.14064 -0.07000
C 	C 	0.97100 0.09022 0.16604 0.01200
C 	C 	0.02758 0.10014 0.18315 -0.07700
C 	C 	0.09470 0.14926 0.17350 0.01800
C 	C 	0.10499 0.19230 0.14823 -0.06300
H 	H 	0.93711 0.12657 0.12822 0.04700
H 	H 	0.91897 0.05123 0.17295 0.03600
H 	H 	0.13876 0.15687 0.18638 0.03400
H 	H 	0.15692 0.23306 0.14195 0.04700
C 	C 	0.53002 0.70475 0.15751 -0.06400
C 	C 	0.58559 0.77651 0.15780 0.01800
C 	C 	0.57974 0.83232 0.14292 -0.06400
C 	C 	0.51990 0.81554 0.12681 0.01100
C 	C 	0.46564 0.74304 0.12561 -0.08700
C 	C 	0.47033 0.68827 0.14173 0.01500
C 	C 	0.65057 0.79245 0.17287 0.01800
H 	H 	0.62189 0.88823 0.14339 0.04000
H 	H 	0.51684 0.85829 0.11452 0.02700
H 	H 	0.42860 0.63216 0.14109 0.02500
H 	H 	0.53379 0.66127 0.16887 0.04500
C 	C 	0.64924 0.77059 0.20244 -0.06500
C 	C 	0.71011 0.78283 0.21634 0.01400
C 	C 	0.77325 0.81857 0.20106 -0.09400
C 	C 	0.77431 0.83868 0.17127 0.01300
C 	C 	0.71326 0.82533 0.15720 -0.06600
H 	H 	0.60117 0.74486 0.21475 0.04500
H 	H 	0.70864 0.76783 0.23943 0.03800
H 	H 	0.82276 0.86659 0.15929 0.02800
H 	H 	0.71475 0.84087 0.13418 0.04200
C 	C 	0.17265 0.79388 0.24258 -0.06400
C 	C 	0.15208 0.74653 0.21817 0.01800
C 	C 	0.09814 0.74036 0.20002 -0.06300
C 	C 	0.06606 0.78219 0.20593 0.01300
C 	C 	0.08785 0.83092 0.22993 -0.09200
C 	C 	0.14074 0.83578 0.24846 0.01500
C 	C 	0.19074 0.70822 0.21003 0.01800
H 	H 	0.08213 0.70442 0.18098 0.04400
H 	H 	0.02524 0.77764 0.19154 0.03600
H 	H 	0.15702 0.87187 0.26747 0.03600
H 	H 	0.21388 0.79885 0.25681 0.04300
C 	C 	0.26043 0.74882 0.20163 -0.06300
C 	C 	0.29040 0.71556 0.18480 0.01000
C 	C 	0.24940 0.64345 0.17478 -0.09300
C 	C 	0.18611 0.59928 0.18912 0.01500
C 	C 	0.15570 0.63198 0.20601 -0.06500
H 	H 	0.28943 0.80713 0.20589 0.04200
H 	H 	0.34172 0.74905 0.17573 0.03100
H 	H 	0.15585 0.54188 0.18338 0.02900
H 	H 	0.10309 0.59914 0.21379 0.04400
C 	C 	0.50603 0.72196 0.34782 -0.06300
C 	C 	0.55442 0.70315 0.35845 0.01800
C 	C 	0.53443 0.64776 0.37997 -0.06300
C 	C 	0.46743 0.61380 0.39163 0.01800
C 	C 	0.41980 0.63496 0.38186 -0.08700
C 	C 	0.43927 0.68816 0.35938 0.01500
C 	C 	0.62573 0.74114 0.34673 0.01700
H 	H 	0.57084 0.63148 0.38784 0.04100
H 	H 	0.45317 0.57222 0.40862 0.03800
H 	H 	0.40316 0.70470 0.35132 0.03700
H 	H 	0.52036 0.76331 0.33071 0.04400
C 	C 	0.65362 0.70089 0.33349 -0.06500
C 	C 	0.71704 0.73715 0.31872 0.01300
C 	C 	0.75286 0.81395 0.31686 -0.08500
C 	C 	0.72646 0.85430 0.33115 0.01000
C 	C 	0.66347 0.81811 0.34625 -0.06600
H 	H 	0.62504 0.64156 0.33370 0.04400
H 	H 	0.73697 0.70547 0.30772 0.03000
H 	H 	0.75415 0.91362 0.33015 0.02300
H 	H 	0.64314 0.84978 0.35696 0.03800
C 	C 	0.11103 0.23586 0.35310 -0.05900
C 	C 	0.06123 0.24268 0.36978 0.02500
C 	C 	0.99095 0.19540 0.36428 -0.06600
C 	C 	0.97069 0.14398 0.34142 -0.00000
C 	C 	0.02065 0.13934 0.32381 -0.06100
C 	C 	0.09092 0.18417 0.33043 0.00700
C 	C 	0.08289 0.30346 0.39111 0.02000
H 	H 	0.95206 0.19949 0.37732 0.04400
H 	H 	0.91626 0.10867 0.33715 0.04100
H 	H 	0.13011 0.17998 0.31768 0.03800
H 	H 	0.16543 0.27197 0.35719 0.04700
C 	C 	0.13066 0.31361 0.41341 -0.06100
C 	C 	0.16199 0.37879 0.42960 0.01400
C 	C 	0.14541 0.43425 0.42379 -0.08300
C 	C 	0.09294 0.42104 0.40336 0.01400
C 	C 	0.06222 0.35622 0.38698 -0.06100
H 	H 	0.14580 0.27244 0.41726 0.04600
H 	H 	0.20154 0.38754 0.44559 0.02900
H 	H 	0.07789 0.46218 0.39928 0.03700
H 	H 	0.02468 0.34854 0.37011 0.04700
C 	C 	0.20105 0.90988 0.42858 -0.06600
C 	C 	0.12922 0.86455 0.42681 0.02000
C 	C 	0.09717 0.80196 0.44492 -0.06600
C 	C 	0.13718 0.77660 0.45916 0.01200
C 	C 	0.20909 0.81408 0.45533 -0.08800
C 	C 	0.24092 0.88508 0.44331 0.01000
C 	C 	0.09201 0.87089 0.40091 0.01200
H 	H 	0.04146 0.76880 0.44528 0.04500
H 	H 	0.11201 0.72388 0.47026 0.03000
H 	H 	0.29665 0.91728 0.44224 0.02800
H 	H 	0.22640 0.96045 0.41598 0.04000
C 	C 	0.09289 0.93704 0.39488 -0.05000
C 	C 	0.07088 0.94830 0.36731 -0.02100
C 	C 	0.04820 0.89357 0.34546 -0.06900
C 	C 	0.04292 0.82561 0.35232 0.00500
C 	C 	0.06473 0.81440 0.37985 -0.05600
H 	H 	0.11294 0.98063 0.41112 0.03500
H 	H 	0.07313 0.00018 0.36268 0.05900
H 	H 	0.02463 0.78244 0.33593 0.03900
H 	H 	0.06378 0.76307 0.38425 0.04500
C 	C 	0.46726 0.99816 0.39571 -0.17000
C 	C 	0.53349 0.01957 0.40663 0.07000
C 	C 	0.56134 0.97224 0.40275 -0.01600
C 	C 	0.51737 0.89960 0.39400 0.00500
C 	C 	0.44614 0.87355 0.39236 -0.13500
C 	C 	0.42412 0.92521 0.38719 0.13300
C 	C 	0.56450 0.08012 0.42822 -0.01500
C 	C 	0.63397 0.99498 0.41226 -0.18300
H 	H 	0.53644 0.86088 0.39371 0.03300
C 	C 	0.35507 0.90292 0.37346 -0.22100
H 	H 	0.44775 0.03646 0.39593 0.08400
C 	C 	0.61402 0.15135 0.41935 0.03300
C 	C 	0.64831 0.20527 0.44095 -0.01800
C 	C 	0.62958 0.19066 0.47107 -0.10600
C 	C 	0.57378 0.12150 0.47932 0.10000
C 	C 	0.54419 0.06582 0.45803 -0.08100
C 	C 	0.62989 0.17030 0.38697 -0.17700
H 	H 	0.68956 0.25871 0.43429 0.03900
C 	C 	0.54444 0.10690 0.51033 -0.20500
H 	H 	0.50447 0.01139 0.46458 0.05300
H 	H 	0.34081 0.85726 0.35760 0.08200
H 	H 	0.35642 0.94941 0.36103 0.06700
H 	H 	0.31501 0.88536 0.39096 0.08500
H 	H 	0.63557 0.99000 0.43671 0.06000
H 	H 	0.66995 0.05238 0.40562 0.07600
H 	H 	0.65254 0.95985 0.40181 0.05700
H 	H 	0.66509 0.22990 0.38360 0.06100
H 	H 	0.58153 0.15512 0.37469 0.06700
H 	H 	0.65484 0.14037 0.37740 0.06400
H 	H 	0.53976 0.15411 0.51862 0.07900
H 	H 	0.57797 0.09616 0.52533 0.07800
H 	H 	0.49190 0.05833 0.51098 0.07000
C 	C 	0.06271 0.64820 0.54885 -0.08100
C 	C 	0.07237 0.60654 0.57077 -0.00000
C 	C 	0.01783 0.56424 0.59049 0.03600
C 	C 	0.95090 0.54951 0.58327 -0.03100
C 	C 	0.93930 0.57677 0.55676 -0.10400
C 	C 	0.99593 0.63458 0.54215 0.09100
C 	C 	0.13145 0.59327 0.56790 0.00300
C 	C 	0.02924 0.52787 0.61703 -0.16600
H 	H 	0.90733 0.50929 0.59597 0.03700
C 	C 	0.98491 0.67416 0.51669 -0.21300
H 	H 	0.10585 0.68536 0.53507 0.05300
C 	C 	0.12827 0.53998 0.54776 0.03300
C 	C 	0.18966 0.54811 0.53553 -0.02300
C 	C 	0.25281 0.60936 0.54270 -0.10600
C 	C 	0.25635 0.65064 0.56800 0.10100
C 	C 	0.19526 0.64406 0.57988 -0.09300
C 	C 	0.05991 0.48039 0.53643 -0.17900
H 	H 	0.18742 0.51208 0.51785 0.04600
C 	C 	0.32491 0.70697 0.58030 -0.20200
H 	H 	0.19766 0.68188 0.59681 0.05000
H 	H 	0.97711 0.64270 0.49592 0.07600
H 	H 	0.03015 0.72976 0.51382 0.07400
H 	H 	0.93907 0.68077 0.52083 0.07700
H 	H 	0.07879 0.56586 0.62794 0.06300
H 	H 	0.03053 0.47782 0.61002 0.06200
H 	H 	0.98743 0.51219 0.63365 0.05400
H 	H 	0.06544 0.43602 0.52557 0.07100
H 	H 	0.03868 0.50364 0.52006 0.07800
H 	H 	0.02269 0.45519 0.55494 0.07200
H 	H 	0.34060 0.76118 0.57009 0.07300
H 	H 	0.36523 0.69158 0.57580 0.07400
H 	H 	0.32141 0.71140 0.60470 0.06400
C 	C 	0.62269 0.68223 0.49840 -0.09500
C 	C 	0.65879 0.69752 0.47147 0.00400
C 	C 	0.64611 0.73686 0.44931 0.02200
C 	C 	0.58775 0.74574 0.45169 -0.01100
C 	C 	0.54460 0.71893 0.47666 -0.12000
C 	C 	0.56604 0.69383 0.50133 0.10200
C 	C 	0.69576 0.65715 0.46421 0.00500
C 	C 	0.69253 0.76603 0.42258 -0.17100
H 	H 	0.57323 0.76871 0.43330 0.03800
C 	C 	0.52451 0.67205 0.52964 -0.20800
H 	H 	0.63499 0.65558 0.51613 0.05100
C 	C 	0.75845 0.67472 0.47838 0.02200
C 	C 	0.77734 0.62031 0.48167 -0.01600
C 	C 	0.73412 0.54929 0.47105 -0.11600
C 	C 	0.67951 0.53675 0.45188 0.10400
C 	C 	0.66033 0.59091 0.44869 -0.09400
C 	C 	0.80132 0.74837 0.49269 -0.17000
H 	H 	0.82202 0.63127 0.49486 0.03900
C 	C 	0.63719 0.46330 0.43733 -0.20800
H 	H 	0.61421 0.57901 0.43636 0.05300
H 	H 	0.55407 0.66603 0.54821 0.06700
H 	H 	0.47644 0.61901 0.52649 0.07800
H 	H 	0.51103 0.71458 0.53609 0.08000
H 	H 	0.68280 0.72050 0.40734 0.06600
H 	H 	0.74742 0.79350 0.42950 0.06100
H 	H 	0.68390 0.80696 0.41043 0.06100
H 	H 	0.85574 0.76106 0.49520 0.05600
H 	H 	0.78000 0.74843 0.51494 0.05900
H 	H 	0.80146 0.79244 0.47894 0.05900
H 	H 	0.59765 0.42484 0.45315 0.08300
H 	H 	0.67061 0.44042 0.43030 0.07800
H 	H 	0.61082 0.46815 0.41726 0.06900
C 	C 	0.89780 0.17558 0.56298 -0.06400
C 	C 	0.93398 0.20834 0.58909 0.02200
C 	C 	0.94666 0.27881 0.59664 -0.06400
C 	C 	0.91634 0.31220 0.58030 0.01000
C 	C 	0.87343 0.27560 0.55623 -0.08500
C 	C 	0.86794 0.20938 0.54649 0.01500
C 	C 	0.94832 0.16478 0.61083 0.01000
H 	H 	0.97572 0.30534 0.61641 0.04200
H 	H 	0.92145 0.36369 0.58785 0.02100
H 	H 	0.83572 0.18111 0.52766 0.03500
H 	H 	0.88918 0.12198 0.55651 0.04700
C 	C 	0.89333 0.10384 0.62459 -0.05800
C 	C 	0.90536 0.07085 0.64913 0.01300
C 	C 	0.97255 0.09859 0.66017 -0.08300
C 	C 	0.02803 0.15643 0.64518 0.01600
C 	C 	0.01594 0.18948 0.62067 -0.05200
H 	H 	0.84092 0.08420 0.61713 0.04800
H 	H 	0.86212 0.02590 0.66029 0.04000
H 	H 	0.08032 0.17712 0.65302 0.03300
H 	H 	0.05883 0.23586 0.60998 0.04400
C 	C 	0.40486 0.18568 0.58068 -0.06500
C 	C 	0.40027 0.20659 0.60975 0.02100
C 	C 	0.45209 0.27410 0.62057 -0.06500
C 	C 	0.50962 0.31862 0.60301 0.01700
C 	C 	0.51596 0.29604 0.57441 -0.09500
C 	C 	0.46220 0.23033 0.56304 0.01400
C 	C 	0.34116 0.15792 0.62887 0.01800
H 	H 	0.44836 0.29148 0.64277 0.04600
H 	H 	0.55057 0.36906 0.61212 0.03500
H 	H 	0.46590 0.21267 0.54089 0.03100
H 	H 	0.36474 0.13415 0.57196 0.04700
C 	C 	0.27378 0.13894 0.62047 -0.06000
C 	C 	0.21873 0.09991 0.63999 0.01200
C 	C 	0.23055 0.08004 0.66824 -0.07800
C 	C 	0.29726 0.09455 0.67582 0.01200
C 	C 	0.35235 0.13338 0.65622 -0.06000
H 	H 	0.26439 0.15674 0.59927 0.04600
H 	H 	0.16736 0.08831 0.63375 0.03600
H 	H 	0.30714 0.07944 0.69750 0.03800
H 	H 	0.40398 0.14636 0.66266 0.04600
C 	C 	0.90244 0.63574 0.70710 -0.06400
C 	C 	0.84719 0.60798 0.68706 0.02000
C 	C 	0.82906 0.65634 0.67320 -0.06200
C 	C 	0.86544 0.73133 0.67949 0.01100
C 	C 	0.92121 0.75904 0.69915 -0.08200
C 	C 	0.93956 0.71096 0.71295 0.01300
C 	C 	0.81228 0.52963 0.67842 0.01800
H 	H 	0.78744 0.63597 0.65725 0.04500
H 	H 	0.85044 0.76786 0.66896 0.02700
H 	H 	0.98171 0.73168 0.72866 0.02400
H 	H 	0.91684 0.59916 0.71801 0.04200
C 	C 	0.85098 0.49928 0.66649 -0.05900
C 	C 	0.81896 0.43802 0.64798 0.00900
C 	C 	0.75007 0.41137 0.63959 -0.08100
C 	C 	0.70872 0.42941 0.65731 0.01300
C 	C 	0.73997 0.48971 0.67637 -0.06100
H 	H 	0.90642 0.52681 0.66927 0.03900
H 	H 	0.85017 0.41913 0.63658 0.02300
H 	H 	0.65396 0.40463 0.65292 0.03100
H 	H 	0.70875 0.50943 0.68718 0.04400
C 	C 	0.79566 0.41807 0.06876 -0.09100
C 	C 	0.86604 0.44332 0.06484 0.00000
C 	C 	0.88775 0.40954 0.04347 0.02900
C 	C 	0.84049 0.36346 0.02219 -0.01300
C 	C 	0.77260 0.35084 0.02248 -0.11100
C 	C 	0.74830 0.37078 0.04785 0.09700
C 	C 	0.91640 0.51323 0.07850 0.01500
C 	C 	0.96236 0.42868 0.04129 -0.17500
H 	H 	0.85840 0.34432 0.00366 0.04000
C 	C 	0.67240 0.34237 0.05245 -0.20200
H 	H 	0.77839 0.43947 0.08672 0.05000
C 	C 	0.94488 0.57867 0.06168 0.00900
C 	C 	0.01326 0.63285 0.06704 0.00400
C 	C 	0.05196 0.61995 0.08821 -0.12800
C 	C 	0.01616 0.56765 0.11056 0.12300
C 	C 	0.94856 0.51202 0.10497 -0.11300
C 	C 	0.90655 0.58623 0.03564 -0.16800
H 	H 	0.03902 0.67851 0.05179 0.03000
C 	C 	0.05347 0.56324 0.13752 -0.22000
H 	H 	0.92425 0.46456 0.11943 0.05400
H 	H 	0.65000 0.35659 0.03330 0.06300
H 	H 	0.66215 0.36584 0.07263 0.06500
H 	H 	0.64633 0.28212 0.05529 0.07200
H 	H 	0.98414 0.43171 0.06367 0.07200
H 	H 	0.99253 0.48233 0.02993 0.06600
H 	H 	0.96800 0.38652 0.02861 0.06500
H 	H 	0.92711 0.64473 0.02958 0.05800
H 	H 	0.85100 0.56303 0.04108 0.06700
H 	H 	0.91192 0.55688 0.01623 0.06800
H 	H 	0.01729 0.53890 0.15650 0.07300
H 	H 	0.09407 0.61887 0.14414 0.08700
H 	H 	0.07756 0.52888 0.13268 0.09000
C 	C 	0.41653 0.07245 0.00631 -0.10400
C 	C 	0.37374 0.03514 0.98239 0.03600
C 	C 	0.37744 0.07401 0.95629 0.01800
C 	C 	0.43295 0.14525 0.95237 -0.01000
C 	C 	0.48359 0.17755 0.97438 -0.11200
C 	C 	0.47146 0.14386 0.00258 0.11000
C 	C 	0.33470 0.95426 0.98320 -0.02700
C 	C 	0.32611 0.03787 0.93170 -0.17000
H 	H 	0.43989 0.17294 0.93129 0.02900
C 	C 	0.52015 0.18096 0.02788 -0.21000
H 	H 	0.41054 0.04374 0.02708 0.06400
C 	C 	0.36860 0.91368 0.97711 0.03200
C 	C 	0.34232 0.84308 0.98908 -0.02000
C 	C 	0.28167 0.81206 0.00599 -0.10400
C 	C 	0.24169 0.84755 0.00738 0.09500
C 	C 	0.26923 0.91922 0.99638 -0.08600
C 	C 	0.43642 0.94824 0.96066 -0.17600
H 	H 	0.37155 0.81445 0.98698 0.03600
C 	C 	0.17263 0.81196 0.02283 -0.20500
H 	H 	0.24192 0.94947 0.99992 0.04200
H 	H 	0.57046 0.18402 0.02312 0.08300
H 	H 	0.49982 0.15065 0.04905 0.07100
H 	H 	0.52744 0.23683 0.03102 0.08000
H 	H 	0.27333 0.00403 0.94088 0.07100
H 	H 	0.34025 0.00245 0.91856 0.06800
H 	H 	0.32490 0.07937 0.91672 0.06200
H 	H 	0.44909 0.90612 0.95268 0.05800
H 	H 	0.47835 0.98645 0.97554 0.06100
H 	H 	0.43419 0.97882 0.94097 0.05700
H 	H 	0.18013 0.81321 0.04717 0.08100
H 	H 	0.14092 0.75436 0.01542 0.08400
H 	H 	0.14325 0.84078 0.01769 0.06600
C 	C 	0.42492 0.42425 0.92029 -0.09200
C 	C 	0.45040 0.49823 0.92741 0.00400
C 	C 	0.51561 0.55102 0.91635 0.02400
C 	C 	0.56025 0.52765 0.90488 -0.01400
C 	C 	0.53953 0.45274 0.90444 -0.10800
C 	C 	0.46866 0.40175 0.90729 0.10200
C 	C 	0.41596 0.51758 0.95105 0.00300
C 	C 	0.54016 0.63166 0.91937 -0.17200
H 	H 	0.61318 0.56760 0.89962 0.04000
C 	C 	0.44192 0.32180 0.90089 -0.20600
H 	H 	0.37316 0.38374 0.92695 0.05300
C 	C 	0.35136 0.51290 0.94618 0.02500
C 	C 	0.31601 0.52225 0.97005 -0.01500
C 	C 	0.34674 0.54239 0.99818 -0.10100
C 	C 	0.41343 0.55153 0.00258 0.09400
C 	C 	0.44628 0.53631 0.97924 -0.09000
C 	C 	0.31925 0.49655 0.91578 -0.17300
H 	H 	0.26480 0.51496 0.96662 0.04200
C 	C 	0.45003 0.57788 0.03183 -0.20400
H 	H 	0.49583 0.53954 0.98293 0.05200
H 	H 	0.47398 0.31454 0.88375 0.07400
H 	H 	0.38818 0.29613 0.89249 0.07000
H 	H 	0.44262 0.29320 0.92151 0.07700
H 	H 	0.56325 0.65070 0.94161 0.06200
H 	H 	0.49666 0.64286 0.91645 0.06200
H 	H 	0.57961 0.66360 0.90224 0.05900
H 	H 	0.27736 0.51072 0.91422 0.06200
H 	H 	0.29709 0.43734 0.91090 0.06400
H 	H 	0.35837 0.52917 0.89864 0.06300
H 	H 	0.42532 0.53398 0.04877 0.07400
H 	H 	0.44836 0.62747 0.03924 0.07800
H 	H 	0.50522 0.59287 0.03009 0.06700
C 	C 	0.91419 0.20294 0.80606 -0.07000
C 	C 	0.94605 0.22338 0.83386 0.03000
C 	C 	0.99559 0.20356 0.84192 -0.09000
C 	C 	0.01304 0.16351 0.82227 0.04100
C 	C 	0.98070 0.14264 0.79451 -0.10000
C 	C 	0.93139 0.16286 0.78650 0.02200
C 	C 	0.92543 0.26321 0.85481 0.01500
H 	H 	0.02033 0.21894 0.86338 0.05700
H 	H 	0.05099 0.14805 0.82875 0.03400
H 	H 	0.90664 0.14790 0.76503 0.03800
H 	H 	0.87564 0.21765 0.79972 0.05000
C 	C 	0.93489 0.33248 0.84713 -0.06300
C 	C 	0.90159 0.36304 0.86326 0.01700
C 	C 	0.85854 0.32459 0.88724 -0.09000
C 	C 	0.85414 0.25833 0.89650 0.01600
C 	C 	0.88733 0.22771 0.88029 -0.06200
H 	H 	0.96532 0.36099 0.82781 0.04300
H 	H 	0.90691 0.41510 0.85634 0.03100
H 	H 	0.82182 0.22844 0.91519 0.02500
H 	H 	0.88033 0.17458 0.88661 0.04700
C 	C 	0.36316 0.17815 0.80605 -0.07100
C 	C 	0.37440 0.12112 0.81572 0.02800
C 	C 	0.32202 0.04827 0.81273 -0.07900
C 	C 	0.25942 0.03232 0.79960 0.05200
C 	C 	0.24858 0.08925 0.78923 -0.10300
C 	C 	0.30061 0.16230 0.79281 0.02400
C 	C 	0.44108 0.13798 0.82895 0.01400
H 	H 	0.33013 0.00395 0.82025 0.05300
H 	H 	0.21993 0.97564 0.79692 0.00000
H 	H 	0.29274 0.20675 0.78526 0.03100
H 	H 	0.40299 0.23471 0.80874 0.04700
C 	C 	0.50219 0.17730 0.81262 -0.05900
C 	C 	0.56589 0.20758 0.82692 0.01400
C 	C 	0.56873 0.19956 0.85770 -0.08000
C 	C 	0.50838 0.15128 0.87306 0.00300
C 	C 	0.44450 0.12135 0.85883 -0.05800
H 	H 	0.50018 0.18797 0.78924 0.04600
H 	H 	0.61254 0.24266 0.81460 0.03500
H 	H 	0.51032 0.14201 0.89656 0.03500
H 	H 	0.39764 0.08874 0.87138 0.04100
C 	C 	0.92124 0.70596 0.91304 -0.06600
C 	C 	0.88468 0.73426 0.89768 0.01700
C 	C 	0.81498 0.70839 0.90462 -0.06500
C 	C 	0.77976 0.64694 0.92291 0.01200
C 	C 	0.81375 0.61018 0.93361 -0.09400
C 	C 	0.88581 0.64405 0.93105 0.01300
C 	C 	0.91398 0.77697 0.87026 0.01800
H 	H 	0.78672 0.73167 0.89380 0.04200
H 	H 	0.72469 0.62355 0.92610 0.03500
H 	H 	0.91326 0.61819 0.94049 0.03000
H 	H 	0.97584 0.72770 0.90890 0.04100
C 	C 	0.92023 0.84652 0.86693 -0.06600
C 	C 	0.94120 0.88338 0.83974 0.01100
C 	C 	0.95572 0.85069 0.81560 -0.08900
C 	C 	0.95078 0.78171 0.81922 0.01100
C 	C 	0.93005 0.74513 0.84637 -0.06500
H 	H 	0.90800 0.87157 0.88524 0.04000
H 	H 	0.94586 0.93709 0.83743 0.03100
H 	H 	0.96152 0.75565 0.80083 0.03200
H 	H 	0.92465 0.69107 0.84863 0.04300
