data_crystal

_cell_length_a 30.38811
_cell_length_b 23.86847
_cell_length_c 23.17500
_cell_angle_alpha 90.89845
_cell_angle_beta  90.00038
_cell_angle_gamma 130.21895

_symmetry_space_group_name_	'P 1'
_symmetry_space_group_name_H-M	'P 1'

loop_
_symmetry_equiv_pos_as_xyz
  x,y,z

loop_
_atom_site_label
_atom_site_type_symbol
_atom_site_fract_x
_atom_site_fract_y
_atom_site_fract_z
_atom_site_charge
Zn	Zn	0.28708 0.65870 0.73865 1.22400
Zn	Zn	0.27737 0.56709 0.84900 1.19400
C 	C 	0.42037 0.62915 0.64605 0.30200
Zn	Zn	0.37192 0.62877 0.75931 1.22200
Zn	Zn	0.35354 0.68054 0.63309 1.19100
H 	H 	0.26448 0.52698 0.74308 0.18100
C 	C 	0.39986 0.72380 0.85879 0.30300
O 	O 	0.31560 0.71973 0.60769 -0.46700
O 	O 	0.29766 0.74540 0.69656 -0.39500
O 	O 	0.28849 0.57451 0.76454 -0.79100
O 	O 	0.21933 0.58055 0.85675 -0.47000
O 	O 	0.21891 0.58934 0.68958 -0.44200
O 	O 	0.26948 0.68885 0.80868 -0.43500
O 	O 	0.26835 0.57107 0.63043 -0.41800
O 	O 	0.32841 0.55285 0.88569 -0.46500
H 	H 	0.39372 0.75197 0.72803 0.17200
O 	O 	0.36571 0.54597 0.80306 -0.40700
O 	O 	0.36458 0.69928 0.71724 -0.80100
O 	O 	0.38032 0.62403 0.61738 -0.46000
O 	O 	0.41935 0.70086 0.82311 -0.44000
O 	O 	0.41907 0.62462 0.70291 -0.43400
O 	O 	0.34407 0.68456 0.86619 -0.41800
C 	C 	0.30558 0.75623 0.64046 0.30400
C 	C 	0.23009 0.64236 0.84617 0.32700
C 	C 	0.22058 0.55828 0.64365 0.31400
C 	C 	0.35235 0.53039 0.85774 0.30800
Zn	Zn	0.64571 0.37747 0.26311 1.22300
Zn	Zn	0.72896 0.47422 0.15413 1.19400
Zn	Zn	0.76417 0.41572 0.24317 1.22200
Zn	Zn	0.69092 0.35684 0.36840 1.19100
H 	H 	0.75472 0.51263 0.26046 0.18100
C 	C 	0.70056 0.32286 0.14098 0.30500
O 	O 	0.61209 0.31387 0.39304 -0.46700
O 	O 	0.56890 0.28733 0.30367 -0.39500
O 	O 	0.73208 0.46555 0.23846 -0.79100
O 	O 	0.65541 0.45624 0.14584 -0.47000
O 	O 	0.64448 0.44319 0.31343 -0.44200
O 	O 	0.59805 0.34680 0.19264 -0.43300
O 	O 	0.71391 0.46473 0.37239 -0.41700
H 	H 	0.66242 0.28849 0.27222 0.17200
O 	O 	0.68501 0.34063 0.28397 -0.80100
O 	O 	0.74205 0.34593 0.17857 -0.43900
O 	O 	0.68057 0.35778 0.13572 -0.41800
C 	C 	0.56541 0.27608 0.35970 0.30400
C 	C 	0.60421 0.39326 0.15636 0.32700
C 	C 	0.67795 0.47562 0.35908 0.31300
C 	C 	0.20176 0.66256 0.88072 -0.10300
C 	C 	0.21036 0.67148 0.94072 0.02700
C 	C 	0.17420 0.67428 0.97542 -0.07700
C 	C 	0.12908 0.66770 0.95029 0.04400
C 	C 	0.12343 0.66476 0.89005 -0.07500
C 	C 	0.15984 0.66243 0.85529 0.02600
C 	C 	0.08365 0.65191 0.98585 -0.02600
C 	C 	0.04556 0.63867 0.01560 -0.02000
H 	H 	0.24335 0.67289 0.96060 0.02200
H 	H 	0.17936 0.67761 0.02194 0.04900
H 	H 	0.08898 0.66041 0.87030 0.04900
H 	H 	0.15338 0.65644 0.80889 0.02800
H 	H 	0.03047 0.60380 0.12733 0.04800
C 	C 	0.98948 0.44118 0.47655 -0.02200
C 	C 	0.02838 0.45058 0.50227 -0.02500
C 	C 	0.07511 0.46390 0.53432 0.04200
C 	C 	0.06715 0.44251 0.59192 -0.07400
C 	C 	0.11463 0.46786 0.62670 0.02500
C 	C 	0.17047 0.51494 0.60412 -0.10000
C 	C 	0.17778 0.53129 0.54517 0.02400
C 	C 	0.13024 0.50614 0.51046 -0.07400
H 	H 	0.02455 0.40908 0.61050 0.04700
H 	H 	0.10834 0.45402 0.67194 0.02500
H 	H 	0.22062 0.56741 0.52716 0.02300
H 	H 	0.13669 0.52234 0.46579 0.04800
C 	C 	0.30293 0.80940 0.61361 -0.09600
C 	C 	0.28249 0.79739 0.55660 0.02000
C 	C 	0.29453 0.85536 0.52533 -0.07400
C 	C 	0.32702 0.92549 0.55084 0.03900
C 	C 	0.34106 0.93523 0.60980 -0.07300
C 	C 	0.32903 0.87726 0.64120 0.01700
C 	C 	0.35664 0.98841 0.51461 -0.02500
C 	C 	0.38139 0.04099 0.48412 -0.02400
C 	C 	0.41504 0.10383 0.44775 0.03900
C 	C 	0.45207 0.17422 0.47309 -0.07300
C 	C 	0.49884 0.23285 0.44226 0.02000
C 	C 	0.50874 0.22127 0.38586 -0.09600
C 	C 	0.46767 0.15280 0.35831 0.01700
C 	C 	0.42093 0.09417 0.38926 -0.07300
H 	H 	0.26025 0.74434 0.53551 0.03100
H 	H 	0.28231 0.84697 0.48009 0.04700
H 	H 	0.36507 0.98899 0.63022 0.04700
H 	H 	0.34369 0.88669 0.68566 0.03000
H 	H 	0.44710 0.18248 0.51795 0.04700
H 	H 	0.52914 0.28624 0.46329 0.03200
H 	H 	0.47409 0.14361 0.31431 0.03100
H 	H 	0.39181 0.04012 0.36900 0.04700
C 	C 	0.44052 0.79596 0.88860 -0.09500
C 	C 	0.49662 0.82452 0.90323 0.01700
C 	C 	0.53390 0.89134 0.93396 -0.07300
C 	C 	0.51540 0.93001 0.95012 0.03900
C 	C 	0.45978 0.90204 0.93499 -0.07100
C 	C 	0.42251 0.83544 0.90438 0.01500
C 	C 	0.55339 0.99864 0.98203 -0.02600
C 	C 	0.58357 0.05624 0.00871 -0.02000
C 	C 	0.61799 0.12556 0.03994 0.03900
C 	C 	0.62543 0.18514 0.01712 -0.07000
C 	C 	0.65386 0.25026 0.04949 0.02200
C 	C 	0.67520 0.25642 0.10511 -0.09300
C 	C 	0.66925 0.19739 0.12727 0.01900
C 	C 	0.64057 0.13208 0.09481 -0.07200
H 	H 	0.51103 0.79456 0.89166 0.03400
H 	H 	0.57693 0.91274 0.94537 0.04700
H 	H 	0.44531 0.93184 0.94704 0.04800
H 	H 	0.37963 0.81455 0.89290 0.03900
H 	H 	0.60822 0.18058 0.97471 0.04600
H 	H 	0.65872 0.29562 0.03159 0.03000
H 	H 	0.68535 0.20128 0.17014 0.02300
H 	H 	0.63495 0.08621 0.11278 0.04600
C 	C 	0.55436 0.37239 0.12352 -0.10100
C 	C 	0.51623 0.37929 0.14912 0.02500
C 	C 	0.47820 0.37875 0.11466 -0.07200
C 	C 	0.47807 0.37106 0.05457 0.04000
C 	C 	0.51228 0.35718 0.02962 -0.07200
C 	C 	0.55048 0.35804 0.06402 0.02600
C 	C 	0.45098 0.38980 0.01848 -0.02000
C 	C 	0.42827 0.40552 0.98828 -0.02600
C 	C 	0.40379 0.42801 0.95234 0.04200
C 	C 	0.36071 0.42796 0.97390 -0.07600
C 	C 	0.34273 0.45959 0.94233 0.02000
C 	C 	0.36810 0.49205 0.88906 -0.09900
C 	C 	0.40983 0.48957 0.86669 0.02200
C 	C 	0.42754 0.45768 0.89827 -0.07400
H 	H 	0.51852 0.38956 0.19518 0.02700
H 	H 	0.45133 0.38859 0.13433 0.04900
H 	H 	0.51175 0.35003 0.98326 0.04600
H 	H 	0.57924 0.35156 0.04404 0.02400
H 	H 	0.34210 0.40498 0.01569 0.04800
H 	H 	0.30966 0.45968 0.95964 0.02300
H 	H 	0.42964 0.51398 0.82559 0.03800
H 	H 	0.46094 0.45795 0.88142 0.04800
C 	C 	0.45934 0.62327 0.61381 -0.09800
C 	C 	0.44476 0.59279 0.55757 0.01700
C 	C 	0.48071 0.58489 0.52814 -0.07300
C 	C 	0.53150 0.60734 0.55449 0.03900
C 	C 	0.54668 0.63876 0.61015 -0.07300
C 	C 	0.51085 0.64685 0.63971 0.01700
C 	C 	0.56702 0.59600 0.52495 -0.02300
C 	C 	0.59584 0.58576 0.49912 -0.02300
C 	C 	0.62845 0.57152 0.46698 0.04100
C 	C 	0.64171 0.53061 0.49153 -0.07400
C 	C 	0.66346 0.50484 0.45714 0.02400
C 	C 	0.67150 0.51926 0.39785 -0.09900
C 	C 	0.66229 0.56491 0.37442 0.02400
C 	C 	0.64080 0.59087 0.40888 -0.07400
H 	H 	0.40520 0.57413 0.53697 0.03100
H 	H 	0.46874 0.56058 0.48506 0.04700
H 	H 	0.58599 0.65647 0.63072 0.04700
H 	H 	0.52310 0.67131 0.68271 0.03000
H 	H 	0.63278 0.51598 0.53658 0.04800
H 	H 	0.67052 0.46983 0.47579 0.02300
H 	H 	0.66907 0.57725 0.32889 0.02400
H 	H 	0.63133 0.62324 0.38974 0.04700
O 	O 	0.77497 0.41515 0.38548 -0.46000
O 	O 	0.79660 0.49378 0.11760 -0.46600
C 	C 	0.81114 0.41300 0.35622 0.30000
O 	O 	0.81705 0.42358 0.29994 -0.43200
C 	C 	0.99527 0.59819 0.10807 -0.07000
H 	H 	0.86806 0.57499 0.03826 0.02600
O 	O 	0.84134 0.50224 0.20043 -0.40700
C 	C 	0.84364 0.51763 0.14572 0.30900
C 	C 	0.85545 0.41734 0.38821 -0.09800
H 	H 	0.87338 0.37532 0.31686 0.03000
H 	H 	0.84806 0.46003 0.46742 0.03100
C 	C 	0.90328 0.58108 0.05802 0.01800
C 	C 	0.88444 0.39656 0.36086 0.01700
C 	C 	0.89846 0.55680 0.11441 -0.09600
C 	C 	0.86981 0.44360 0.44569 0.01700
H 	H 	0.95564 0.62788 0.98230 0.04500
C 	C 	0.95314 0.61169 0.02641 -0.07100
C 	C 	0.92798 0.40337 0.39024 -0.07200
C 	C 	0.91329 0.45024 0.47494 -0.07300
H 	H 	0.95046 0.38794 0.36856 0.04700
C 	C 	0.94543 0.56732 0.13975 0.01900
H 	H 	0.94282 0.54981 0.18336 0.03900
C 	C 	0.94275 0.43070 0.44716 0.03800
H 	H 	0.92449 0.47138 0.51898 0.04700
C 	C 	0.99873 0.61894 0.05098 0.03900
