data_crystal

_cell_length_a 24.03137
_cell_length_b 23.10931
_cell_length_c 31.18220
_cell_angle_alpha 104.01506
_cell_angle_beta  115.95363
_cell_angle_gamma 111.51979

_symmetry_space_group_name_	'P 1'
_symmetry_space_group_name_H-M	'P 1'

loop_
_symmetry_equiv_pos_as_xyz
  x,y,z

loop_
_atom_site_label
_atom_site_type_symbol
_atom_site_fract_x
_atom_site_fract_y
_atom_site_fract_z
_atom_site_charge
C 	C 	0.87662 0.57786 0.04702 -0.04400
C 	C 	0.86430 0.52238 0.05957 -0.06200
C 	C 	0.79684 0.45691 0.02382 0.06100
C 	C 	0.74033 0.44832 0.97615 -0.05600
C 	C 	0.75291 0.50378 0.96347 -0.03700
N 	N 	0.78772 0.39866 0.03549 -0.13900
C 	C 	0.59584 0.28746 0.02850 -0.00700
C 	C 	0.59570 0.26196 0.98282 -0.01800
C 	C 	0.65811 0.29866 0.98443 -0.06200
C 	C 	0.72172 0.36118 0.03218 0.06700
C 	C 	0.72215 0.38552 0.07813 -0.06900
C 	C 	0.65962 0.34879 0.07640 -0.02500
C 	C 	0.84873 0.26549 0.97537 0.01500
C 	C 	0.87092 0.29126 0.02932 -0.04800
C 	C 	0.85175 0.33599 0.04893 -0.06200
C 	C 	0.80976 0.35511 0.01484 0.06000
C 	C 	0.78798 0.32974 0.96069 -0.05500
C 	C 	0.80686 0.28452 0.94101 -0.04000
H 	H 	0.90782 0.52958 0.09650 0.04100
H 	H 	0.68775 0.39828 0.94825 0.04300
H 	H 	0.71009 0.49597 0.92581 0.03300
H 	H 	0.54629 0.21518 0.94543 0.03400
H 	H 	0.65640 0.27948 0.94836 0.04500
H 	H 	0.77102 0.43313 0.11516 0.04300
H 	H 	0.65993 0.36918 0.11172 0.03200
H 	H 	0.90272 0.27619 0.05593 0.03400
H 	H 	0.86873 0.35526 0.09056 0.04200
H 	H 	0.75452 0.34287 0.93344 0.04200
H 	H 	0.78840 0.26380 0.89900 0.03300
C 	C 	0.71412 0.48223 0.46412 -0.02800
C 	C 	0.68937 0.41693 0.46345 -0.07200
C 	C 	0.63763 0.35374 0.41388 0.07700
C 	C 	0.60799 0.35641 0.36476 -0.07200
C 	C 	0.63242 0.42179 0.36549 -0.02700
N 	N 	0.61990 0.28704 0.41379 -0.14300
C 	C 	0.44748 0.20465 0.43250 -0.00200
C 	C 	0.51121 0.20475 0.46249 -0.02900
C 	C 	0.56697 0.23022 0.45509 -0.07100
C 	C 	0.55879 0.25438 0.41692 0.07700
C 	C 	0.49248 0.24948 0.38414 -0.07300
C 	C 	0.43746 0.22536 0.39236 -0.02900
C 	C 	0.66011 0.14517 0.33918 0.00300
C 	C 	0.71369 0.21814 0.36923 -0.02600
C 	C 	0.69847 0.26608 0.39025 -0.07100
C 	C 	0.62860 0.24167 0.37951 0.07600
C 	C 	0.57119 0.17037 0.34051 -0.07100
C 	C 	0.58711 0.12233 0.32039 -0.02900
H 	H 	0.71215 0.41519 0.50138 0.04500
H 	H 	0.56785 0.30786 0.32620 0.04400
H 	H 	0.61090 0.42347 0.32749 0.03300
H 	H 	0.51821 0.18655 0.49229 0.03200
H 	H 	0.61720 0.23247 0.47970 0.04700
H 	H 	0.48367 0.26442 0.35259 0.04400
H 	H 	0.38756 0.22379 0.36817 0.03000
H 	H 	0.76957 0.23677 0.38189 0.03300
H 	H 	0.74249 0.32131 0.41839 0.04600
H 	H 	0.51532 0.15149 0.32775 0.04700
H 	H 	0.54428 0.06637 0.29465 0.03500
H 	H 	0.15599 0.48687 0.36676 0.03600
Zn	Zn	0.22767 0.18612 0.03021 1.18300
Zn	Zn	0.10748 0.12098 0.90776 1.19600
O 	O 	0.06934 0.08956 0.82840 -0.44100
C 	C 	0.32186 0.16834 0.00522 0.30100
C 	C 	0.22761 0.27762 0.97816 0.33400
O 	O 	0.31977 0.19558 0.04617 -0.46500
O 	O 	0.26043 0.12747 0.95590 -0.32800
O 	O 	0.12840 0.13256 0.98135 -0.77800
O 	O 	0.18302 0.21961 0.93013 -0.44500
O 	O 	0.24611 0.27411 0.02358 -0.47400
O 	O 	0.96952 0.05441 0.94090 -0.46900
Zn	Zn	0.04727 0.07280 0.05216 1.20500
C 	C 	0.96521 0.09882 0.97312 0.33700
O 	O 	0.09400 0.07969 0.12332 -0.46300
O 	O 	0.99469 0.11285 0.02388 -0.51200
O 	O 	0.09815 0.04547 0.03040 -0.89700
H 	H 	0.15204 0.07350 0.05846 0.15500
Zn	Zn	0.10382 0.13136 0.46855 1.18500
Zn	Zn	0.97999 0.05329 0.34738 1.19000
O 	O 	0.95717 0.01459 0.27181 -0.44500
C 	C 	0.19671 0.12305 0.43767 0.30600
C 	C 	0.08581 0.21279 0.40996 0.32500
O 	O 	0.19675 0.14847 0.48021 -0.46700
O 	O 	0.13456 0.08495 0.38877 -0.33100
O 	O 	0.00417 0.07188 0.42283 -0.77000
O 	O 	0.04580 0.15247 0.36422 -0.44000
O 	O 	0.10949 0.21410 0.45734 -0.46200
O 	O 	0.84392 0.99017 0.38214 -0.46500
Zn	Zn	0.92186 0.01670 0.49574 1.19900
C 	C 	0.83375 0.03122 0.41183 0.32700
O 	O 	0.96694 0.02895 0.56926 -0.47300
O 	O 	0.87288 0.05730 0.46461 -0.50900
O 	O 	0.97712 0.99261 0.47809 -0.91900
H 	H 	0.03083 0.02306 0.50690 0.18000
C 	C 	0.08113 0.08490 0.73563 0.16200
C 	C 	0.06300 0.07019 0.68330 -0.07500
H 	H 	0.08469 0.11360 0.67568 0.05500
O 	O 	0.13047 0.15401 0.77773 -0.20000
C 	C 	0.09252 0.18874 0.77581 -0.01900
H 	H 	0.07610 0.19834 0.74020 0.03100
H 	H 	0.13030 0.24125 0.81302 0.04500
H 	H 	0.04344 0.15913 0.77519 0.04300
C 	C 	0.09946 0.06674 0.21542 0.15700
C 	C 	0.06694 0.05733 0.24308 -0.06600
H 	H 	0.08912 0.10172 0.28050 0.07000
O 	O 	0.15778 0.13316 0.23512 -0.20500
C 	C 	0.22391 0.13759 0.26795 -0.01900
H 	H 	0.22784 0.12805 0.30222 0.03200
H 	H 	0.27061 0.19209 0.28597 0.03200
H 	H 	0.23044 0.10027 0.24340 0.03400
C 	C 	0.11175 0.28068 0.40897 -0.11300
C 	C 	0.14913 0.29644 0.38484 0.10700
C 	C 	0.18500 0.36573 0.39283 -0.09500
C 	C 	0.18518 0.41944 0.42558 0.00600
C 	C 	0.14394 0.40275 0.44672 0.03400
C 	C 	0.10676 0.33315 0.43781 -0.01500
H 	H 	0.21529 0.37829 0.37544 0.05200
H 	H 	0.07570 0.32049 0.45464 0.03300
N 	N 	0.15412 0.24292 0.35476 -0.13900
N 	N 	0.13853 0.45642 0.47624 -0.13500
C 	C 	0.22689 0.25425 0.38734 -0.08900
H 	H 	0.26893 0.30002 0.39028 0.04400
H 	H 	0.22519 0.20611 0.36777 0.05600
H 	H 	0.24310 0.26379 0.42887 0.05400
H 	H 	0.15870 0.43576 0.54278 0.04100
H 	H 	0.14301 0.24279 0.31830 0.08200
N 	N 	0.20558 0.00404 0.48878 -0.14600
C 	C 	0.21456 0.03919 0.53929 -0.08500
H 	H 	0.16060 0.01808 0.53333 0.03000
H 	H 	0.24070 0.09695 0.55311 0.03400
H 	H 	0.25116 0.03198 0.57175 0.04600
H 	H 	0.17755 0.01543 0.45905 0.08400
C 	C 	0.33338 0.48738 0.99912 0.03300
C 	C 	0.37584 0.46199 0.02495 0.01700
C 	C 	0.34065 0.39243 0.01658 -0.02100
C 	C 	0.26363 0.34755 0.98175 -0.10500
C 	C 	0.22137 0.37163 0.95352 0.10600
C 	C 	0.25653 0.44170 0.96257 -0.10200
H 	H 	0.37329 0.37375 0.03788 0.03300
H 	H 	0.22391 0.46077 0.94181 0.05500
N 	N 	0.45511 0.50705 0.05962 -0.13400
N 	N 	0.14249 0.32504 0.91609 -0.14700
C 	C 	0.48494 0.50431 0.02757 -0.10500
H 	H 	0.45512 0.44956 0.99444 0.05400
H 	H 	0.54405 0.52338 0.05440 0.03900
H 	H 	0.48109 0.53973 0.00948 0.04800
C 	C 	0.10723 0.33823 0.94210 -0.09300
H 	H 	0.12642 0.33025 0.97843 0.04700
H 	H 	0.04675 0.29999 0.91293 0.04900
H 	H 	0.11880 0.39293 0.95415 0.04800
H 	H 	0.47787 0.49310 0.08943 0.06700
H 	H 	0.12314 0.33122 0.88130 0.07300
C 	C 	0.68451 0.09583 0.34441 0.00700
C 	C 	0.72018 0.08381 0.32088 0.02800
C 	C 	0.76469 0.05740 0.34066 -0.01300
C 	C 	0.77611 0.04588 0.38523 -0.12900
C 	C 	0.73594 0.05407 0.40639 0.10700
C 	C 	0.68709 0.07432 0.38308 -0.09300
H 	H 	0.79341 0.04962 0.32325 0.01600
H 	H 	0.65690 0.08075 0.39947 0.05800
N 	N 	0.71269 0.10031 0.27779 -0.13700
N 	N 	0.74450 0.04256 0.45175 -0.14600
C 	C 	0.65532 0.03656 0.22478 -0.08500
H 	H 	0.67010 0.99620 0.22053 0.03400
H 	H 	0.64907 0.05083 0.19213 0.04200
H 	H 	0.60154 0.01362 0.21919 0.04800
H 	H 	0.84705 0.14267 0.50896 0.04800
H 	H 	0.76280 0.12290 0.28235 0.06600
H 	H 	0.75819 0.00516 0.45476 0.07800
H 	H 	0.80467 0.54335 0.41370 0.05000
C 	C 	0.39068 0.18230 0.44264 0.00100
C 	C 	0.38841 0.23295 0.47687 0.03400
C 	C 	0.32716 0.21140 0.47852 -0.01700
C 	C 	0.26655 0.14104 0.44442 -0.10800
C 	C 	0.27122 0.08962 0.41358 0.10100
C 	C 	0.33406 0.11054 0.41370 -0.09200
H 	H 	0.32514 0.25041 0.50426 0.04000
H 	H 	0.33764 0.07121 0.38979 0.05200
N 	N 	0.44755 0.30669 0.50960 -0.13900
N 	N 	0.21364 0.01567 0.38437 -0.13800
C 	C 	0.50514 0.32044 0.56210 -0.08900
H 	H 	0.48222 0.30601 0.58480 0.04600
H 	H 	0.54877 0.37790 0.58685 0.04100
H 	H 	0.53059 0.29033 0.55670 0.04500
C 	C 	0.17368 0.98834 0.32549 -0.10300
H 	H 	0.15481 0.02255 0.31338 0.07400
H 	H 	0.20876 0.98505 0.31200 0.04600
H 	H 	0.46922 0.32474 0.48946 0.07600
C 	C 	0.92154 0.12806 0.95111 -0.12300
C 	C 	0.85167 0.10071 0.94096 0.10500
C 	C 	0.82331 0.14394 0.94221 -0.09000
C 	C 	0.86470 0.21420 0.95410 -0.00500
C 	C 	0.92938 0.23757 0.95594 0.03800
C 	C 	0.95671 0.19363 0.95359 -0.03500
H 	H 	0.77179 0.12463 0.93806 0.05100
H 	H 	0.00864 0.21310 0.95834 0.03700
N 	N 	0.96790 0.30589 0.96042 -0.14600
C 	C 	0.02646 0.36030 0.01724 -0.08600
H 	H 	0.00338 0.36965 0.04027 0.05000
H 	H 	0.05785 0.41083 0.01871 0.04100
H 	H 	0.06549 0.34479 0.03704 0.04200
H 	H 	0.93224 0.32107 0.94098 0.07300
C 	C 	0.39241 0.19860 0.01217 -0.10100
C 	C 	0.43478 0.16853 0.02567 0.09500
C 	C 	0.50135 0.19759 0.03061 -0.09200
C 	C 	0.52619 0.25711 0.02334 0.00300
C 	C 	0.48423 0.28754 0.01064 0.03700
C 	C 	0.41723 0.25778 0.00470 -0.03200
H 	H 	0.53371 0.17408 0.04036 0.04900
H 	H 	0.38440 0.28065 0.99407 0.04900
N 	N 	0.40970 0.10798 0.03380 -0.14500
N 	N 	0.51127 0.35040 0.00555 -0.14100
C 	C 	0.44764 0.12976 0.09186 -0.08900
H 	H 	0.50791 0.15452 0.11249 0.04300
H 	H 	0.42628 0.08247 0.09705 0.04700
H 	H 	0.43720 0.16758 0.11145 0.05100
C 	C 	0.47189 0.33357 0.94841 -0.08400
H 	H 	0.47579 0.29271 0.92465 0.05100
H 	H 	0.49744 0.38215 0.94565 0.04400
H 	H 	0.41305 0.31456 0.93037 0.04800
H 	H 	0.41801 0.07090 0.01522 0.07400
H 	H 	0.50691 0.38806 0.02795 0.06800
C 	C 	0.82127 0.56858 0.99871 0.01000
C 	C 	0.68663 0.48478 0.41513 0.00300
C 	C 	0.36934 0.56228 0.01132 -0.02600
H 	H 	0.35215 0.53832 0.93350 0.03000
Zn	Zn	0.06916 0.03448 0.95954 1.22000
C 	C 	0.08703 0.02298 0.12823 0.34200
Zn	Zn	0.94857 0.97530 0.40629 1.21400
C 	C 	0.06954 0.00960 0.16589 -0.12300
H 	H 	0.08340 0.43740 0.46106 0.07400
C 	C 	0.79433 0.10951 0.50287 -0.08600
H 	H 	0.80666 0.09824 0.53749 0.03900
H 	H 	0.76762 0.13982 0.50312 0.04400
C 	C 	0.07590 0.04228 0.80118 0.33200
C 	C 	0.98409 0.97878 0.25870 0.28900
C 	C 	0.05568 0.02847 0.74624 -0.13200
C 	C 	0.00901 0.99004 0.22445 -0.07000
C 	C 	0.98599 0.98680 0.58429 0.29100
C 	C 	0.01544 0.00002 0.64059 -0.04900
H 	H 	0.29370 0.03912 0.92038 0.07300
H 	H 	0.88947 0.08371 0.05054 0.05200
C 	C 	0.18221 0.47939 0.53454 -0.08900
C 	C 	0.23300 0.49381 0.44104 0.00400
H 	H 	0.24037 0.49750 0.55069 0.04700
H 	H 	0.75612 0.53075 0.50260 0.03100
C 	C 	0.37679 0.57982 0.97329 -0.01300
C 	C 	0.20904 0.52091 0.40599 -0.02600
H 	H 	0.86227 0.57312 0.93160 0.05600
C 	C 	0.90478 0.08327 0.08956 -0.09500
H 	H 	0.96083 0.13092 0.12227 0.04200
H 	H 	0.86585 0.08651 0.09870 0.04300
H 	H 	0.70066 0.59876 0.97587 0.05500
H 	H 	0.32217 0.51675 0.51785 0.03200
C 	C 	0.71958 0.55265 0.41558 0.00600
H 	H 	0.80609 0.59115 0.83176 0.04300
H 	H 	0.92971 0.62763 0.07430 0.03500
H 	H 	0.82431 0.56642 0.33981 0.03900
C 	C 	0.40178 0.61645 0.06283 -0.01800
H 	H 	0.39634 0.60336 0.09245 0.03000
C 	C 	0.30252 0.53783 0.49118 -0.02700
H 	H 	0.18179 0.52471 0.55648 0.04500
C 	C 	0.78129 0.57546 0.41439 -0.09600
N 	N 	0.62738 0.57220 0.41973 -0.13600
C 	C 	0.83784 0.62401 0.98240 0.01500
C 	C 	0.86187 0.61964 0.94875 -0.09700
N 	N 	0.90551 0.01962 0.08725 -0.14300
H 	H 	0.92245 0.02050 0.12470 0.08000
C 	C 	0.41816 0.65095 0.98721 -0.06600
C 	C 	0.68932 0.59434 0.41673 0.03300
H 	H 	0.60300 0.59372 0.47674 0.04300
H 	H 	0.58900 0.58018 0.39334 0.07200
C 	C 	0.85397 0.64412 0.84794 -0.08700
H 	H 	0.87440 0.63841 0.82238 0.03300
C 	C 	0.72945 0.65634 0.00315 -0.11500
H 	H 	0.83606 0.68183 0.84477 0.04100
H 	H 	0.42344 0.66389 0.95752 0.04700
C 	C 	0.34626 0.60946 0.50745 -0.07000
C 	C 	0.25332 0.59225 0.42177 -0.07000
H 	H 	0.23468 0.61245 0.39417 0.04700
H 	H 	0.02488 0.61034 0.36125 0.04700
C 	C 	0.85064 0.62455 0.35477 -0.08800
C 	C 	0.65166 0.61083 0.47552 -0.09100
H 	H 	0.68889 0.59899 0.50309 0.04600
C 	C 	0.88776 0.67588 0.93851 0.11300
N 	N 	0.91284 0.66996 0.90426 -0.15100
H 	H 	0.82491 0.66917 0.06355 0.07400
H 	H 	0.53055 0.70856 0.84741 0.04200
H 	H 	0.71056 0.66264 0.02971 0.04300
H 	H 	0.75175 0.87480 0.58301 0.04100
H 	H 	0.23571 0.98616 0.39604 0.07200
H 	H 	0.12446 0.93423 0.30445 0.05800
H 	H 	0.27636 0.93796 0.50460 0.05500
C 	C 	0.27801 0.87070 0.08673 -0.09000
H 	H 	0.22739 0.87099 0.07555 0.04000
H 	H 	0.30194 0.87058 0.12626 0.04400
C 	C 	0.44256 0.68756 0.07662 -0.07400
C 	C 	0.45108 0.70536 0.03907 0.06700
N 	N 	0.49085 0.77929 0.05338 -0.14000
C 	C 	0.65274 0.84335 0.02154 -0.00400
C 	C 	0.58751 0.84053 0.99029 -0.01800
C 	C 	0.53253 0.81634 0.99864 -0.06100
C 	C 	0.54400 0.79831 0.04058 0.06200
C 	C 	0.60938 0.80133 0.07174 -0.06900
C 	C 	0.66310 0.82302 0.06194 -0.03300
C 	C 	0.36683 0.87547 0.02117 -0.00500
C 	C 	0.44028 0.91480 0.06691 -0.02700
C 	C 	0.48018 0.88243 0.07772 -0.06800
C 	C 	0.44758 0.81094 0.04242 0.06300
C 	C 	0.37388 0.77182 0.99623 -0.06000
C 	C 	0.33368 0.80373 0.98633 -0.02200
H 	H 	0.46741 0.72903 0.11647 0.04400
H 	H 	0.57953 0.85739 0.95973 0.03300
H 	H 	0.48144 0.81191 0.97273 0.04600
H 	H 	0.61865 0.78722 0.10382 0.03500
H 	H 	0.71285 0.82437 0.08593 0.02500
H 	H 	0.46661 0.97048 0.09376 0.03300
H 	H 	0.53686 0.91309 0.11302 0.04200
H 	H 	0.34818 0.71746 0.96743 0.04700
H 	H 	0.27700 0.77302 0.95086 0.03400
C 	C 	0.32160 0.63741 0.47337 0.07700
N 	N 	0.36482 0.71275 0.49276 -0.14300
C 	C 	0.52664 0.78528 0.46159 -0.00100
C 	C 	0.53134 0.83216 0.50305 -0.03000
C 	C 	0.47801 0.80793 0.51294 -0.07100
C 	C 	0.41771 0.73718 0.48011 0.07400
C 	C 	0.41130 0.69100 0.43661 -0.07200
C 	C 	0.46585 0.71502 0.42783 -0.03000
C 	C 	0.23447 0.80162 0.47431 0.00400
C 	C 	0.26258 0.78908 0.51853 -0.02600
C 	C 	0.30687 0.76145 0.52507 -0.06900
C 	C 	0.32310 0.74574 0.48733 0.07700
C 	C 	0.29525 0.75894 0.44315 -0.07100
C 	C 	0.25160 0.78720 0.43700 -0.02800
H 	H 	0.39897 0.64358 0.54687 0.04500
H 	H 	0.57695 0.88713 0.52819 0.03100
H 	H 	0.48348 0.84404 0.54624 0.04600
H 	H 	0.36443 0.63694 0.40956 0.04700
H 	H 	0.46098 0.67895 0.39485 0.03200
H 	H 	0.24981 0.80040 0.54763 0.03600
H 	H 	0.32782 0.75122 0.55903 0.04700
H 	H 	0.30592 0.74570 0.41301 0.04700
H 	H 	0.23004 0.79681 0.40274 0.03400
O 	O 	0.09946 0.00632 0.82231 -0.48200
O 	O 	0.10786 0.92195 0.89795 -0.49600
O 	O 	0.04013 0.02334 0.88837 -0.85800
O 	O 	0.17021 0.01982 0.97897 -0.44300
Zn	Zn	0.91488 0.90139 0.91444 1.17100
Zn	Zn	0.05065 0.94742 0.01516 1.18800
C 	C 	0.92490 0.80095 0.95835 0.33400
C 	C 	0.87715 0.94222 0.98424 0.33800
O 	O 	0.99681 0.84588 0.99340 -0.46900
O 	O 	0.88498 0.80996 0.91840 -0.47300
O 	O 	0.85589 0.92343 0.93388 -0.48600
O 	O 	0.94570 0.96579 0.02202 -0.48400
O 	O 	0.01000 0.93618 0.93828 -0.79000
O 	O 	0.08586 0.97362 0.09490 -0.43900
Zn	Zn	0.06472 0.96313 0.86001 1.18200
C 	C 	0.16418 0.96348 0.94916 0.31400
H 	H 	0.98755 0.00626 0.86374 0.13500
O 	O 	0.00137 0.94322 0.28358 -0.46000
O 	O 	0.99084 0.85834 0.35598 -0.51700
O 	O 	0.92079 0.95665 0.33384 -0.87700
O 	O 	0.05121 0.96179 0.43230 -0.45600
Zn	Zn	0.79768 0.83958 0.36105 1.17700
Zn	Zn	0.93290 0.89742 0.46796 1.18900
C 	C 	0.81319 0.74706 0.41266 0.33400
C 	C 	0.74954 0.88045 0.42248 0.31900
O 	O 	0.88274 0.79795 0.45193 -0.45600
O 	O 	0.77308 0.75223 0.37013 -0.46800
O 	O 	0.73187 0.85734 0.37289 -0.49000
O 	O 	0.81833 0.90870 0.46363 -0.47700
O 	O 	0.89387 0.87906 0.38976 -0.80700
O 	O 	0.97943 0.93340 0.55003 -0.42500
Zn	Zn	0.95227 0.89805 0.31348 1.18100
C 	C 	0.04342 0.90123 0.40796 0.33000
H 	H 	0.86724 0.93480 0.30778 0.14100
C 	C 	0.99006 0.94365 0.65130 0.08300
C 	C 	0.01213 0.95815 0.70436 -0.00100
H 	H 	0.99378 0.91456 0.71263 0.00600
O 	O 	0.94720 0.87406 0.61055 -0.18700
C 	C 	0.87252 0.84950 0.58775 -0.02300
H 	H 	0.85949 0.84436 0.61729 0.02300
H 	H 	0.83796 0.79594 0.55201 0.04100
H 	H 	0.85715 0.88430 0.57310 0.03600
C 	C 	0.98204 0.93192 0.17683 0.09600
C 	C 	0.01307 0.94174 0.14819 -0.00600
H 	H 	0.99063 0.89716 0.11072 0.04000
O 	O 	0.92803 0.86453 0.15994 -0.21100
C 	C 	0.85896 0.85202 0.12266 -0.02000
H 	H 	0.84983 0.89239 0.14080 0.02600
H 	H 	0.81539 0.79967 0.11152 0.02700
H 	H 	0.85240 0.84979 0.08457 0.03900
C 	C 	0.58431 0.81028 0.45233 0.00100
C 	C 	0.64594 0.80471 0.47801 0.03200
C 	C 	0.69800 0.82607 0.46655 -0.01200
C 	C 	0.69025 0.85355 0.43025 -0.12100
C 	C 	0.62587 0.85474 0.40187 0.10400
C 	C 	0.57533 0.83593 0.41498 -0.09000
H 	H 	0.74388 0.81982 0.48515 0.03800
H 	H 	0.52715 0.83849 0.39424 0.05500
N 	N 	0.65571 0.77619 0.51517 -0.14100
N 	N 	0.60880 0.87072 0.35752 -0.14700
C 	C 	0.69840 0.83209 0.57119 -0.08800
H 	H 	0.71049 0.80919 0.59902 0.03300
H 	H 	0.66717 0.85513 0.57639 0.04100
C 	C 	0.56244 0.80591 0.30530 -0.08400
H 	H 	0.58864 0.77504 0.30519 0.04600
H 	H 	0.55355 0.82014 0.27234 0.03900
H 	H 	0.50778 0.77227 0.29643 0.04400
H 	H 	0.60597 0.73505 0.50392 0.07400
H 	H 	0.65523 0.90787 0.36251 0.08700
C 	C 	0.09446 0.88177 0.43817 -0.13000
C 	C 	0.17204 0.92899 0.46954 0.10200
C 	C 	0.21743 0.90238 0.48274 -0.09200
C 	C 	0.18723 0.83014 0.46701 0.00500
C 	C 	0.11129 0.78458 0.44103 0.03400
C 	C 	0.06540 0.81090 0.42739 -0.01200
H 	H 	0.00657 0.77520 0.40579 0.03700
N 	N 	0.08056 0.71103 0.42756 -0.13500
C 	C 	0.04774 0.66660 0.37041 -0.09100
H 	H 	0.00230 0.67088 0.34299 0.04500
H 	H 	0.09007 0.68194 0.36218 0.05100
H 	H 	0.04124 0.69435 0.43571 0.07600
C 	C 	0.82079 0.91665 0.99477 -0.10500
C 	C 	0.83418 0.95640 0.04425 0.08800
C 	C 	0.77850 0.93231 0.05233 -0.08900
C 	C 	0.71052 0.86808 0.01218 -0.00900
C 	C 	0.69827 0.82701 0.96369 0.04400
C 	C 	0.75370 0.85125 0.95547 -0.01900
H 	H 	0.78866 0.96312 0.09023 0.04700
H 	H 	0.74485 0.81853 0.91881 0.03600
N 	N 	0.63086 0.75860 0.92412 -0.13700
C 	C 	0.58578 0.75854 0.87383 -0.08900
H 	H 	0.57831 0.80365 0.88245 0.04500
H 	H 	0.61113 0.76142 0.85130 0.03800
H 	H 	0.64254 0.71957 0.91586 0.07100
C 	C 	0.32542 0.90996 0.00774 -0.00800
C 	C 	0.30448 0.93345 0.04068 0.03600
C 	C 	0.25511 0.95541 0.02265 -0.03000
C 	C 	0.22476 0.95174 0.97134 -0.10400
C 	C 	0.24906 0.93212 0.93985 0.10000
C 	C 	0.29952 0.91168 0.95844 -0.08000
H 	H 	0.23792 0.97217 0.04754 0.01700
H 	H 	0.31626 0.89435 0.93337 0.04800
N 	N 	0.33225 0.93350 0.09202 -0.13700
N 	N 	0.21913 0.92914 0.88743 -0.14500
H 	H 	0.26355 0.82143 0.05565 0.04900
C 	C 	0.27348 0.98711 0.88884 -0.10600
H 	H 	0.24719 0.98580 0.84887 0.05400
H 	H 	0.32073 0.98172 0.89693 0.04700
H 	H 	0.34640 0.97976 0.12177 0.06700
H 	H 	0.20064 0.88014 0.85789 0.07300
C 	C 	0.78162 0.68049 0.41384 -0.11600
C 	C 	0.81247 0.63924 0.41340 0.10800
C 	C 	0.71999 0.65775 0.41512 -0.01400
H 	H 	0.69630 0.68961 0.41547 0.03500
N 	N 	0.87467 0.66157 0.41070 -0.14500
H 	H 	0.89911 0.64437 0.35342 0.03400
H 	H 	0.81152 0.63508 0.32745 0.04100
H 	H 	0.68051 0.66901 0.49037 0.04700
H 	H 	0.91256 0.65263 0.43649 0.07100
N 	N 	0.81150 0.03028 0.93258 -0.14100
C 	C 	0.75485 0.98029 0.87457 -0.08600
H 	H 	0.71397 0.99482 0.85704 0.03800
H 	H 	0.72543 0.92622 0.86909 0.04400
H 	H 	0.78035 0.97889 0.85227 0.03400
H 	H 	0.78752 0.02952 0.95369 0.07900
C 	C 	0.83637 0.68438 0.00408 0.00900
C 	C 	0.86193 0.74044 0.99359 0.02000
C 	C 	0.88928 0.73746 0.96215 -0.13100
H 	H 	0.86194 0.78718 0.01095 0.02400
N 	N 	0.80927 0.68951 0.03701 -0.13100
H 	H 	0.71443 0.68268 0.97853 0.05800
H 	H 	0.96014 0.71746 0.91886 0.07700
