data_crystal

_cell_length_a 26.12953
_cell_length_b 26.46934
_cell_length_c 26.50695
_cell_angle_alpha 95.49613
_cell_angle_beta  95.49607
_cell_angle_gamma 125.84132

_symmetry_space_group_name_	'P 1'
_symmetry_space_group_name_H-M	'P 1'

loop_
_symmetry_equiv_pos_as_xyz
  x,y,z

loop_
_atom_site_label
_atom_site_type_symbol
_atom_site_fract_x
_atom_site_fract_y
_atom_site_fract_z
_atom_site_charge
C 	C 	0.96960 0.03534 0.98397 0.05600
C 	C 	0.03505 0.06998 0.98140 -0.10400
C 	C 	0.06234 0.03827 0.97208 0.05300
C 	C 	0.02436 0.97204 0.96642 -0.10500
C 	C 	0.95937 0.93754 0.97020 0.05700
C 	C 	0.93166 0.96903 0.97771 -0.10100
H 	H 	0.06461 0.12131 0.98678 0.05100
H 	H 	0.04571 0.94758 0.96039 0.05100
H 	H 	0.88114 0.94221 0.97998 0.05100
C 	C 	0.93263 0.99283 0.45427 0.03300
C 	C 	0.99782 0.02896 0.45064 -0.06900
C 	C 	0.03097 0.00243 0.45438 0.02400
C 	C 	0.99882 0.93956 0.46138 -0.07000
C 	C 	0.93458 0.90430 0.46784 0.03500
C 	C 	0.90133 0.93088 0.46384 -0.08300
H 	H 	0.02261 0.07750 0.44485 0.04000
H 	H 	0.02410 0.91857 0.46290 0.04100
H 	H 	0.85134 0.90343 0.46788 0.04700
Cu	Cu	0.64059 0.24725 0.00527 0.92800
Cu	Cu	0.68970 0.24270 0.89696 0.86600
Cu	Cu	0.68722 0.34874 0.93878 0.89400
Cu	Cu	0.66005 0.37496 0.04193 0.89200
C 	C 	0.66247 0.29540 0.11300 0.29100
O 	O 	0.55054 0.22190 0.00427 -0.36400
C 	C 	0.66254 0.30258 0.82610 0.28900
O 	O 	0.70257 0.34623 0.01061 -0.63700
O 	O 	0.63507 0.25475 0.93196 -0.64500
O 	O 	0.67047 0.19327 0.00134 -0.37600
O 	O 	0.74664 0.25481 0.95516 -0.44800
O 	O 	0.63994 0.32665 0.09966 -0.39000
O 	O 	0.74097 0.44026 0.94988 -0.39000
C 	C 	0.73248 0.47632 0.98021 0.29500
C 	C 	0.53296 0.25517 0.98595 0.28700
O 	O 	0.57679 0.31364 0.98054 -0.40400
O 	O 	0.71167 0.46116 0.02389 -0.39700
O 	O 	0.66075 0.25495 0.07830 -0.36500
C 	C 	0.72534 0.21444 0.98683 0.29000
O 	O 	0.68552 0.35077 0.86439 -0.39100
O 	O 	0.65392 0.24992 0.83430 -0.42600
H 	H 	0.74840 0.36907 0.02628 0.16100
H 	H 	0.59095 0.23194 0.91198 0.16800
Cu	Cu	0.73338 0.33214 0.43765 0.92600
Cu	Cu	0.72526 0.27392 0.54308 0.86700
Cu	Cu	0.62849 0.29257 0.50175 0.89500
Cu	Cu	0.61752 0.33681 0.40347 0.89200
C 	C 	0.68742 0.31876 0.33088 0.28700
O 	O 	0.77410 0.42594 0.44389 -0.36800
C 	C 	0.66955 0.30739 0.61376 0.28800
O 	O 	0.63328 0.28271 0.43017 -0.64000
O 	O 	0.72296 0.33498 0.51056 -0.64200
O 	O 	0.77700 0.29057 0.43870 -0.37800
O 	O 	0.70776 0.21710 0.48307 -0.44900
O 	O 	0.66455 0.34991 0.34527 -0.38800
O 	O 	0.53613 0.24690 0.48821 -0.38700
C 	C 	0.50342 0.25272 0.45101 0.29500
C 	C 	0.74763 0.45067 0.46430 0.28800
O 	O 	0.68642 0.41376 0.46708 -0.39700
O 	O 	0.53259 0.29918 0.42466 -0.40100
O 	O 	0.72681 0.31665 0.36422 -0.36200
C 	C 	0.74981 0.23508 0.45253 0.29600
O 	O 	0.62207 0.28708 0.57497 -0.39200
O 	O 	0.72045 0.31052 0.60634 -0.42600
H 	H 	0.60528 0.23818 0.41137 0.15600
H 	H 	0.74937 0.37797 0.53223 0.16600
C 	C 	0.70761 0.36530 0.75730 -0.04100
C 	C 	0.65591 0.31159 0.77240 -0.09400
C 	C 	0.60183 0.26333 0.73467 0.07200
C 	C 	0.60494 0.26454 0.68217 -0.04100
C 	C 	0.65996 0.31483 0.66713 -0.09300
C 	C 	0.70924 0.36797 0.70478 0.07100
C 	C 	0.76501 0.42628 0.68937 -0.18800
H 	H 	0.74794 0.40373 0.78630 0.04200
H 	H 	0.56579 0.22492 0.65316 0.04100
C 	C 	0.54194 0.20919 0.74996 -0.18900
H 	H 	0.78793 0.46864 0.72039 0.06000
H 	H 	0.74863 0.43647 0.65416 0.06100
H 	H 	0.80156 0.41903 0.68189 0.06400
H 	H 	0.53233 0.22591 0.78534 0.06400
H 	H 	0.54763 0.17192 0.75702 0.06400
H 	H 	0.49925 0.18783 0.71900 0.06000
C 	C 	0.61709 0.25217 0.18935 -0.03300
C 	C 	0.67133 0.29144 0.16769 -0.08800
C 	C 	0.73274 0.33180 0.19963 0.06900
C 	C 	0.73812 0.33719 0.25346 -0.03400
C 	C 	0.68309 0.30174 0.27534 -0.08600
C 	C 	0.62268 0.25618 0.24301 0.06600
C 	C 	0.56356 0.21428 0.26564 -0.18500
H 	H 	0.57016 0.22005 0.16454 0.04400
H 	H 	0.78471 0.37111 0.27836 0.04600
C 	C 	0.79206 0.37181 0.17673 -0.18900
H 	H 	0.52394 0.17277 0.23627 0.06000
H 	H 	0.54679 0.24184 0.28055 0.05200
H 	H 	0.57430 0.19574 0.29764 0.05300
H 	H 	0.79280 0.41014 0.16213 0.05600
H 	H 	0.79235 0.34207 0.14439 0.06500
H 	H 	0.83666 0.39390 0.20571 0.06200
C 	C 	0.90171 0.76396 0.52429 -0.07200
C 	C 	0.85249 0.71343 0.48564 -0.01400
C 	C 	0.82301 0.72509 0.44565 0.04300
C 	C 	0.84955 0.78790 0.44074 -0.06500
C 	C 	0.90168 0.83881 0.47759 -0.02700
C 	C 	0.92478 0.82650 0.52169 0.04800
C 	C 	0.83412 0.64888 0.48597 0.00800
C 	C 	0.76439 0.67093 0.40758 -0.18000
H 	H 	0.83035 0.79720 0.40781 0.04100
C 	C 	0.97545 0.87970 0.56511 -0.17600
H 	H 	0.92264 0.75469 0.55604 0.04300
C 	C 	0.85578 0.62323 0.45261 0.02100
C 	C 	0.82876 0.55851 0.44705 -0.01800
C 	C 	0.78426 0.52048 0.47736 -0.11200
C 	C 	0.77111 0.54915 0.51678 0.09400
C 	C 	0.79367 0.61239 0.51906 -0.09700
C 	C 	0.90640 0.66415 0.42201 -0.17000
H 	H 	0.84112 0.53745 0.41823 0.04200
C 	C 	0.73352 0.51306 0.55647 -0.19800
H 	H 	0.77965 0.63316 0.54651 0.04900
H 	H 	0.02387 0.89969 0.55633 0.05400
H 	H 	0.97222 0.86224 0.60201 0.05700
H 	H 	0.96931 0.91785 0.57103 0.06200
H 	H 	0.72920 0.63417 0.42799 0.06300
H 	H 	0.77843 0.64932 0.37954 0.06100
H 	H 	0.73983 0.68730 0.38583 0.05800
H 	H 	0.92692 0.64069 0.40608 0.05800
H 	H 	0.94664 0.70992 0.44702 0.06200
H 	H 	0.88519 0.67366 0.38942 0.06000
H 	H 	0.74585 0.54601 0.59263 0.06100
H 	H 	0.74477 0.48042 0.56675 0.06100
H 	H 	0.68125 0.48550 0.54124 0.07100
C 	C 	0.85478 0.06319 0.39613 -0.07300
C 	C 	0.84329 0.08571 0.44037 -0.01400
C 	C 	0.85524 0.07215 0.48850 0.04200
C 	C 	0.88325 0.04045 0.49227 -0.06500
C 	C 	0.89727 0.02024 0.44838 -0.02700
C 	C 	0.88051 0.02936 0.39956 0.05000
C 	C 	0.81999 0.12471 0.43620 0.00900
C 	C 	0.83926 0.09235 0.53595 -0.17800
H 	H 	0.89509 0.03232 0.52951 0.04100
C 	C 	0.89190 0.00500 0.35138 -0.18200
H 	H 	0.84443 0.07271 0.35911 0.04400
C 	C 	0.86354 0.19164 0.44613 0.01800
C 	C 	0.83985 0.22749 0.44899 -0.01600
C 	C 	0.77341 0.19734 0.44023 -0.11900
C 	C 	0.73014 0.13060 0.42439 0.09800
C 	C 	0.75377 0.09470 0.42394 -0.09900
C 	C 	0.93511 0.22489 0.45534 -0.16900
H 	H 	0.87312 0.27876 0.45975 0.03200
C 	C 	0.65887 0.09731 0.40904 -0.20000
H 	H 	0.72056 0.04331 0.41475 0.04900
H 	H 	0.94395 0.03571 0.34997 0.06300
H 	H 	0.86520 0.00482 0.31604 0.05900
H 	H 	0.87526 0.95550 0.35078 0.06300
H 	H 	0.78814 0.07416 0.52853 0.05900
H 	H 	0.87047 0.14491 0.54650 0.05700
H 	H 	0.84652 0.07361 0.56948 0.05600
H 	H 	0.96231 0.27681 0.45702 0.05600
H 	H 	0.94781 0.20619 0.42350 0.06200
H 	H 	0.95064 0.21720 0.49245 0.05700
H 	H 	0.63485 0.04993 0.38445 0.06200
H 	H 	0.64935 0.12513 0.38643 0.06900
H 	H 	0.63716 0.09071 0.44411 0.06600
C 	C 	0.21221 0.10563 0.49476 -0.07200
C 	C 	0.23112 0.11081 0.44665 -0.01400
C 	C 	0.18425 0.08137 0.40088 0.04200
C 	C 	0.11889 0.04633 0.40405 -0.06600
C 	C 	0.10002 0.04109 0.45218 -0.02500
C 	C 	0.14699 0.07182 0.49793 0.04800
C 	C 	0.30033 0.14725 0.44461 0.00900
C 	C 	0.20368 0.08647 0.34875 -0.17900
H 	H 	0.08262 0.02284 0.36906 0.04000
C 	C 	0.12770 0.06771 0.55010 -0.18200
H 	H 	0.24842 0.12834 0.52975 0.04400
C 	C 	0.33928 0.21396 0.44996 0.01900
C 	C 	0.40560 0.24775 0.45153 -0.01400
C 	C 	0.43320 0.21571 0.44672 -0.11000
C 	C 	0.39363 0.14868 0.43874 0.09300
C 	C 	0.32767 0.11510 0.43900 -0.09500
C 	C 	0.31064 0.24937 0.45551 -0.16800
H 	H 	0.43598 0.29913 0.45730 0.03600
C 	C 	0.42150 0.11283 0.43070 -0.19800
H 	H 	0.29746 0.06384 0.43469 0.04800
H 	H 	0.17011 0.09954 0.58174 0.05700
H 	H 	0.10241 0.01836 0.55682 0.06000
H 	H 	0.09542 0.08195 0.55207 0.06100
H 	H 	0.22619 0.06199 0.34308 0.06100
H 	H 	0.23850 0.13711 0.34599 0.06100
H 	H 	0.16172 0.06444 0.31690 0.05600
H 	H 	0.34604 0.30036 0.45401 0.05500
H 	H 	0.29439 0.24605 0.49306 0.06000
H 	H 	0.26904 0.22889 0.42370 0.05900
H 	H 	0.38323 0.06157 0.41523 0.05900
H 	H 	0.44844 0.11739 0.46801 0.06800
H 	H 	0.45428 0.13160 0.40251 0.05700
C 	C 	0.75630 0.62987 0.96811 -0.09700
C 	C 	0.82163 0.66940 0.96523 0.00900
C 	C 	0.85678 0.64442 0.96396 0.01800
C 	C 	0.82649 0.58065 0.96772 -0.01200
C 	C 	0.76154 0.54148 0.97202 -0.11000
C 	C 	0.72553 0.56564 0.97045 0.09500
C 	C 	0.85380 0.73776 0.96631 -0.01600
C 	C 	0.92709 0.68617 0.96065 -0.16800
H 	H 	0.85387 0.56185 0.96852 0.03400
C 	C 	0.65482 0.52365 0.97243 -0.20400
H 	H 	0.72948 0.64925 0.96880 0.04800
C 	C 	0.85432 0.76075 0.92027 0.04100
C 	C 	0.88835 0.82630 0.92225 -0.06100
C 	C 	0.92132 0.86879 0.96949 -0.03800
C 	C 	0.91928 0.84564 0.01566 0.05400
C 	C 	0.88535 0.78016 0.01367 -0.07100
C 	C 	0.81913 0.71565 0.86911 -0.17900
H 	H 	0.88970 0.84436 0.88698 0.04000
C 	C 	0.95389 0.89064 0.06693 -0.17700
H 	H 	0.88428 0.76213 0.04892 0.04400
H 	H 	0.63137 0.54583 0.96081 0.06200
H 	H 	0.64838 0.51508 0.01231 0.06900
H 	H 	0.62986 0.47753 0.94561 0.06400
H 	H 	0.95533 0.72189 0.99685 0.06000
H 	H 	0.93444 0.71096 0.92753 0.05900
H 	H 	0.94598 0.65822 0.95496 0.05500
H 	H 	0.82425 0.74113 0.83678 0.05800
H 	H 	0.76710 0.68195 0.86987 0.06200
H 	H 	0.83859 0.68861 0.86120 0.06200
H 	H 	0.94660 0.86495 0.09946 0.05800
H 	H 	0.93568 0.91902 0.07374 0.06100
H 	H 	0.00632 0.92311 0.06720 0.05700
C 	C 	0.86216 0.20605 0.02711 -0.09700
C 	C 	0.83236 0.14155 0.00923 0.01000
C 	C 	0.76495 0.09926 0.99282 0.01700
C 	C 	0.72943 0.12341 0.98876 -0.02000
C 	C 	0.76023 0.18879 0.00223 -0.11200
C 	C 	0.82626 0.22985 0.02482 0.09800
C 	C 	0.87250 0.11951 0.00402 -0.00800
C 	C 	0.73131 0.02895 0.97717 -0.17200
H 	H 	0.67833 0.09169 0.97296 0.02900
C 	C 	0.85914 0.29932 0.04463 -0.20000
H 	H 	0.91364 0.23805 0.04130 0.05000
C 	C 	0.89366 0.11749 0.95728 0.03500
C 	C 	0.92685 0.09122 0.95176 -0.05700
C 	C 	0.94043 0.06844 0.99261 -0.04100
C 	C 	0.92322 0.07458 0.04056 0.05900
C 	C 	0.88842 0.09921 0.04559 -0.07700
C 	C 	0.87981 0.14211 0.91296 -0.17500
H 	H 	0.94119 0.08746 0.91536 0.03900
C 	C 	0.93952 0.05264 0.08570 -0.18700
H 	H 	0.87287 0.10172 0.08163 0.04600
H 	H 	0.87141 0.32520 0.01195 0.06700
H 	H 	0.90410 0.32046 0.07286 0.06300
H 	H 	0.82749 0.30604 0.06462 0.06700
H 	H 	0.74598 0.01148 0.00764 0.06400
H 	H 	0.74386 0.01919 0.94048 0.05700
H 	H 	0.67823 0.00175 0.97147 0.05500
H 	H 	0.90305 0.14079 0.88040 0.05500
H 	H 	0.89845 0.19212 0.92586 0.05900
H 	H 	0.82720 0.11270 0.89844 0.05600
H 	H 	0.93482 0.07222 0.12246 0.06100
H 	H 	0.98992 0.06875 0.08986 0.06600
H 	H 	0.90650 0.00006 0.07978 0.06200
C 	C 	0.37684 0.23314 0.99314 -0.10000
C 	C 	0.33189 0.17017 0.96731 0.01000
C 	C 	0.35304 0.13730 0.94325 0.01800
C 	C 	0.41920 0.16703 0.94773 -0.01500
C 	C 	0.46434 0.22875 0.97627 -0.11100
C 	C 	0.44298 0.26230 0.99911 0.09400
C 	C 	0.26302 0.13742 0.96916 -0.01700
C 	C 	0.30531 0.07001 0.91410 -0.16700
H 	H 	0.43563 0.14161 0.92993 0.02800
C 	C 	0.49011 0.32838 0.03083 -0.19600
H 	H 	0.36019 0.25850 0.01065 0.05100
C 	C 	0.23794 0.11019 0.01217 0.04400
C 	C 	0.17258 0.07971 0.01316 -0.05900
C 	C 	0.13171 0.07462 0.97132 -0.03800
C 	C 	0.15664 0.10130 0.92804 0.05200
C 	C 	0.22251 0.13367 0.92782 -0.07400
C 	C 	0.28076 0.11382 0.05711 -0.18000
H 	H 	0.15319 0.05910 0.04624 0.03900
C 	C 	0.11337 0.09556 0.88224 -0.18400
H 	H 	0.24214 0.15511 0.89510 0.04200
H 	H 	0.52405 0.32975 0.06061 0.05600
H 	H 	0.46534 0.34431 0.05129 0.06000
H 	H 	0.51729 0.36243 0.00532 0.06400
H 	H 	0.27267 0.06790 0.88244 0.05800
H 	H 	0.27648 0.03863 0.94064 0.05800
H 	H 	0.32951 0.05139 0.89663 0.05400
H 	H 	0.25300 0.08657 0.08604 0.05800
H 	H 	0.31731 0.16402 0.07662 0.06400
H 	H 	0.30538 0.09382 0.04341 0.06500
H 	H 	0.09621 0.12401 0.89331 0.06100
H 	H 	0.07139 0.04514 0.86842 0.06200
H 	H 	0.13882 0.11296 0.84953 0.05700
