data_crystal

_cell_length_a 15.64903
_cell_length_b 16.19521
_cell_length_c 49.25930
_cell_angle_alpha 90.20785
_cell_angle_beta  90.21795
_cell_angle_gamma 119.39181

_symmetry_space_group_name_	'P 1'
_symmetry_space_group_name_H-M	'P 1'

loop_
_symmetry_equiv_pos_as_xyz
  x,y,z

loop_
_atom_site_label
_atom_site_type_symbol
_atom_site_fract_x
_atom_site_fract_y
_atom_site_fract_z
_atom_site_charge
O 	O 	0.47674 0.16072 0.93568 -0.35200
O 	O 	0.48750 0.21173 0.59642 -0.35900
C 	C 	0.13545 0.00827 0.73995 0.31700
C 	C 	0.18413 0.02892 0.81266 0.29100
Ni	Ni	0.05961 0.09079 0.77759 1.11600
Ni	Ni	0.01527 0.87857 0.78454 1.11500
O 	O 	0.07904 0.04540 0.74198 -0.39900
O 	O 	0.10959 0.94192 0.81472 -0.39200
O 	O 	0.18075 0.09515 0.79672 -0.37100
O 	O 	0.13010 0.94620 0.75816 -0.38500
C 	C 	0.22133 0.57132 0.47732 0.33600
C 	C 	0.34761 0.81976 0.38294 0.31000
C 	C 	0.19981 0.50973 0.40143 0.30500
C 	C 	0.39744 0.87805 0.45917 0.33600
Ni	Ni	0.25034 0.69502 0.42934 1.11600
Ni	Ni	0.48695 0.80331 0.42130 1.12600
Ni	Ni	0.37311 0.58331 0.43641 1.12400
O 	O 	0.20696 0.63946 0.46752 -0.37200
O 	O 	0.25145 0.52343 0.46143 -0.36200
O 	O 	0.48129 0.72648 0.38928 -0.39200
O 	O 	0.28376 0.73338 0.38931 -0.37800
O 	O 	0.42811 0.86633 0.39746 -0.36000
O 	O 	0.46618 0.64144 0.46723 -0.36900
O 	O 	0.16347 0.55483 0.41540 -0.35400
O 	O 	0.29328 0.53820 0.40220 -0.38200
O 	O 	0.31496 0.83639 0.44420 -0.35300
O 	O 	0.48146 0.88885 0.44980 -0.35200
O 	O 	0.48995 0.61028 0.41221 -0.37100
O 	O 	0.37087 0.69990 0.43606 -0.71400
H 	H 	0.37955 0.71607 0.45550 0.17000
C 	C 	0.25513 0.49915 0.08848 0.35800
C 	C 	0.22593 0.48791 0.16800 0.28700
C 	C 	0.23449 0.74670 0.08500 0.36600
C 	C 	0.23385 0.76970 0.16392 0.28300
Ni	Ni	0.40496 0.60900 0.13094 1.11800
Ni	Ni	0.19521 0.60452 0.12676 1.13000
Ni	Ni	0.39187 0.80284 0.12606 1.12800
O 	O 	0.51713 0.82792 0.14674 -0.35800
O 	O 	0.19707 0.65633 0.09008 -0.34200
O 	O 	0.34833 0.54210 0.09458 -0.38100
O 	O 	0.18927 0.49060 0.10662 -0.35200
O 	O 	0.32913 0.82165 0.15894 -0.37600
O 	O 	0.44234 0.78277 0.09076 -0.38000
O 	O 	0.17238 0.70434 0.14614 -0.35400
O 	O 	0.29705 0.49070 0.15231 -0.35600
O 	O 	0.17781 0.53353 0.16157 -0.37300
O 	O 	0.28842 0.81139 0.10322 -0.36000
O 	O 	0.33140 0.67160 0.13400 -0.72000
H 	H 	0.32953 0.67478 0.15396 0.15300
C 	C 	0.10046 0.94099 0.24343 0.27800
C 	C 	0.08631 0.20938 0.32601 0.30200
C 	C 	0.13130 0.94865 0.31955 0.29600
C 	C 	0.06982 0.20683 0.25008 0.28400
Ni	Ni	0.14262 0.10285 0.28505 1.11500
O 	O 	0.16537 0.00830 0.26019 -0.35500
O 	O 	0.15435 0.21581 0.30906 -0.35900
O 	O 	0.00082 0.13261 0.32657 -0.37900
O 	O 	0.15034 0.03675 0.31996 -0.36700
O 	O 	0.07088 0.88921 0.30117 -0.37300
O 	O 	0.13748 0.18062 0.25270 -0.36800
O 	O 	0.01010 0.19831 0.27064 -0.36600
O 	O 	0.00650 0.02676 0.28105 -0.70500
H 	H 	0.99960 0.02859 0.26121 0.14900
C 	C 	0.18293 0.41478 0.18919 -0.06400
C 	C 	0.15359 0.32036 0.18248 -0.01700
C 	C 	0.10130 0.24788 0.20110 0.04000
C 	C 	0.08116 0.26985 0.22720 -0.06500
C 	C 	0.10019 0.36224 0.23268 -0.02000
C 	C 	0.15510 0.43558 0.21448 0.04000
S 	S 	0.06017 0.12962 0.19144 -0.01800
S 	S 	0.19419 0.55345 0.22439 -0.03900
H 	H 	0.12690 0.57904 0.21599 0.05000
H 	H 	0.13124 0.10636 0.19752 0.05000
H 	H 	0.16934 0.30295 0.16251 0.06300
H 	H 	0.07719 0.37808 0.25173 0.05100
C 	C 	0.19291 0.80331 0.18547 -0.06100
C 	C 	0.11338 0.81726 0.17939 -0.02200
C 	C 	0.08539 0.86641 0.19746 0.04400
C 	C 	0.13738 0.90222 0.22218 -0.06900
C 	C 	0.21592 0.88688 0.22840 -0.02100
C 	C 	0.24257 0.83620 0.21057 0.03700
S 	S 	0.98695 0.88459 0.18843 -0.02800
S 	S 	0.33553 0.81116 0.22046 -0.04400
H 	H 	0.42466 0.88407 0.21268 0.04700
H 	H 	0.07535 0.79290 0.16009 0.07600
H 	H 	0.25387 0.91099 0.24772 0.05000
C 	C 	0.13953 0.43629 0.38146 -0.06800
C 	C 	0.16488 0.45604 0.35406 -0.01700
C 	C 	0.15236 0.38388 0.33601 0.03700
C 	C 	0.10604 0.28868 0.34488 -0.07200
C 	C 	0.06983 0.26797 0.37153 -0.01600
C 	C 	0.08587 0.34117 0.38973 0.03200
S 	S 	0.19747 0.41500 0.30280 -0.01900
S 	S 	0.04287 0.31314 0.42324 0.01600
H 	H 	0.11459 0.31349 0.43936 0.05200
H 	H 	0.15331 0.46093 0.29100 0.03500
H 	H 	0.20383 0.52914 0.34743 0.04900
C 	C 	0.31553 0.87200 0.36523 -0.07500
C 	C 	0.28065 0.92821 0.37727 -0.01900
C 	C 	0.21805 0.95130 0.36290 0.03000
C 	C 	0.19418 0.92230 0.33553 -0.07100
C 	C 	0.23580 0.87268 0.32284 -0.02300
C 	C 	0.29628 0.84757 0.33754 0.04100
S 	S 	0.16433 0.00993 0.38006 0.00700
S 	S 	0.34774 0.78565 0.32109 -0.03500
H 	H 	0.28543 0.69011 0.32319 0.04200
H 	H 	0.22174 0.10589 0.37699 0.05400
H 	H 	0.29602 0.94769 0.39854 0.06600
H 	H 	0.22116 0.85366 0.30153 0.05100
C 	C 	0.53520 0.96573 0.52950 -0.01600
C 	C 	0.47599 0.86760 0.52533 0.31200
C 	C 	0.40017 0.83431 0.50607 -0.07000
C 	C 	0.39453 0.89803 0.48800 -0.13100
C 	C 	0.43722 0.99336 0.49608 0.35600
C 	C 	0.50829 0.02755 0.51680 -0.10300
H 	H 	0.36088 0.75973 0.50131 0.10900
F 	F 	0.42223 0.05528 0.48108 -0.41500
H 	H 	0.54666 0.10254 0.52169 0.12700
C 	C 	0.04374 0.62301 0.59019 0.27900
C 	C 	0.07333 0.56648 0.54478 0.01800
F 	F 	0.12815 0.63096 0.60036 -0.42900
C 	C 	0.02424 0.48975 0.52641 0.28200
C 	C 	0.07702 0.47518 0.50569 -0.04800
C 	C 	0.17903 0.53393 0.50408 -0.13300
C 	C 	0.22789 0.58912 0.52687 0.36400
C 	C 	0.17672 0.61463 0.54528 -0.13500
H 	H 	0.03777 0.42502 0.48952 0.10300
F 	F 	0.32602 0.62503 0.52977 -0.41200
H 	H 	0.21738 0.67356 0.55901 0.14800
C 	C 	0.49389 0.40232 0.52372 -0.14000
C 	C 	0.46155 0.33297 0.54390 0.38400
F 	F 	0.37097 0.30028 0.55467 -0.42100
H 	H 	0.44590 0.42845 0.51667 0.12900
H 	H 	0.04610 0.21649 0.68652 0.03600
C 	C 	0.35233 0.15880 0.67974 -0.06100
C 	C 	0.28234 0.06268 0.67569 -0.01900
C 	C 	0.21776 0.00965 0.69647 0.04800
C 	C 	0.21935 0.05350 0.72130 -0.08400
C 	C 	0.28588 0.15065 0.72486 -0.01500
C 	C 	0.35254 0.20308 0.70445 0.03300
S 	S 	0.13399 0.88877 0.69089 -0.02100
S 	S 	0.43496 0.32408 0.71018 -0.02000
H 	H 	0.04748 0.87930 0.68114 0.05100
H 	H 	0.28114 0.02801 0.65670 0.06200
H 	H 	0.28358 0.18627 0.74330 0.03600
C 	C 	0.12449 0.68150 0.01022 0.02500
H 	H 	0.14246 0.67210 0.95558 0.13800
C 	C 	0.22740 0.73205 0.01231 0.30200
C 	C 	0.27157 0.77909 0.03664 -0.03900
C 	C 	0.21244 0.77380 0.05866 -0.12000
C 	C 	0.11445 0.74899 0.05331 0.38300
C 	C 	0.06955 0.70042 0.02924 -0.12600
F 	F 	0.28352 0.72726 0.99214 -0.40700
H 	H 	0.34913 0.80516 0.03981 0.11600
F 	F 	0.05870 0.75569 0.07330 -0.42600
C 	C 	0.49164 0.98629 0.00956 0.28200
C 	C 	0.47496 0.04561 0.99227 -0.05100
C 	C 	0.49044 0.04476 0.96428 -0.13600
F 	F 	0.48284 0.99238 0.03680 -0.42600
H 	H 	0.46044 0.09906 0.00093 0.10300
F 	F 	0.45589 0.72354 0.99641 -0.41100
C 	C 	0.32807 0.46488 0.01439 0.02800
F 	F 	0.31900 0.49231 0.95733 -0.41800
C 	C 	0.30622 0.39064 0.03270 0.27900
C 	C 	0.25205 0.38253 0.05613 -0.04800
C 	C 	0.22584 0.45215 0.06190 -0.14300
C 	C 	0.22285 0.50641 0.04022 0.38600
C 	C 	0.27759 0.51610 0.01683 -0.15500
F 	F 	0.34414 0.33194 0.02898 -0.41600
H 	H 	0.24524 0.33259 0.07169 0.09600
F 	F 	0.18364 0.56341 0.04392 -0.42300
C 	C 	0.43788 0.07501 0.85881 -0.05800
C 	C 	0.44532 0.08870 0.83060 -0.02300
C 	C 	0.36481 0.07989 0.81544 0.04100
C 	C 	0.27414 0.05163 0.82844 -0.06900
C 	C 	0.26354 0.02168 0.85558 -0.01400
C 	C 	0.34341 0.02686 0.86999 0.02800
S 	S 	0.37858 0.10238 0.78041 -0.03200
S 	S 	0.32526 0.97774 0.90258 0.02500
H 	H 	0.30808 0.88641 0.90069 0.07000
H 	H 	0.35406 0.02007 0.76658 0.04800
H 	H 	0.51662 0.11793 0.82108 0.05100
H 	H 	0.19230 0.99132 0.86519 0.05100
H 	H 	0.03091 0.19502 0.37830 0.05900
H 	H 	0.56614 0.90606 0.57912 0.15400
F 	F 	0.49770 0.80547 0.53775 -0.37900
C 	C 	0.01655 0.59730 0.56274 0.00600
C 	C 	0.09063 0.60458 0.96429 -0.13400
C 	C 	0.52241 0.92446 0.99878 0.01900
C 	C 	0.50352 0.97120 0.95336 0.36400
F 	F 	0.51221 0.96497 0.92614 -0.44700
H 	H 	0.10501 0.42639 0.89200 0.07500
C 	C 	0.43795 0.20227 0.66141 0.30400
F 	F 	0.03963 0.54140 0.91990 -0.44800
C 	C 	0.07507 0.59638 0.99237 0.02400
H 	H 	0.28637 0.56792 0.00172 0.18400
C 	C 	0.51181 0.76063 0.08906 0.36100
C 	C 	0.51256 0.77579 0.01755 0.28800
C 	C 	0.52280 0.91353 0.97055 -0.12700
H 	H 	0.47435 0.65435 0.04265 0.08800
H 	H 	0.43129 0.62393 0.32805 0.04500
H 	H 	0.51519 0.33351 0.72415 0.04800
C 	C 	0.52787 0.30887 0.55585 -0.13100
C 	C 	0.55772 0.70663 0.46277 0.35400
O 	O 	0.48146 0.68260 0.16502 -0.36800
C 	C 	0.53409 0.13529 0.94969 0.34500
C 	C 	0.59818 0.44575 0.87277 0.30800
C 	C 	0.51608 0.14913 0.87545 0.30200
C 	C 	0.60055 0.46426 0.94675 0.34700
Ni	Ni	0.52080 0.28905 0.91371 1.11700
Ni	Ni	0.69387 0.23468 0.91157 1.12600
O 	O 	0.63009 0.18002 0.94701 -0.37400
O 	O 	0.53022 0.40417 0.89136 -0.35900
O 	O 	0.67230 0.43086 0.87273 -0.38400
O 	O 	0.51832 0.22983 0.87681 -0.37400
O 	O 	0.56834 0.12979 0.89284 -0.33100
O 	O 	0.54300 0.37151 0.94747 -0.36300
O 	O 	0.65405 0.32596 0.91831 -0.71800
H 	H 	0.66094 0.33157 0.93821 0.18500
C 	C 	0.74247 0.19198 0.59875 0.34800
C 	C 	0.66621 0.14080 0.66909 0.30300
C 	C 	0.52522 0.29760 0.58539 0.34100
Ni	Ni	0.60155 0.38114 0.63868 1.12500
Ni	Ni	0.56432 0.17440 0.62260 1.12600
O 	O 	0.65867 0.18903 0.59328 -0.39000
O 	O 	0.46175 0.28293 0.64885 -0.35700
O 	O 	0.63472 0.38542 0.67820 -0.39000
O 	O 	0.62483 0.10890 0.64512 -0.33500
O 	O 	0.55436 0.37427 0.60062 -0.35300
O 	O 	0.47796 0.15075 0.65459 -0.37900
O 	O 	0.65677 0.30321 0.63035 -0.71700
H 	H 	0.67893 0.32593 0.61185 0.16600
C 	C 	0.51636 0.66901 0.39147 0.30800
O 	O 	0.58119 0.77439 0.44395 -0.36300
C 	C 	0.52258 0.77589 0.16698 0.28400
O 	O 	0.52323 0.70955 0.10805 -0.35300
C 	C 	0.59453 0.82285 0.18888 -0.06100
C 	C 	0.56345 0.80003 0.21579 -0.02800
C 	C 	0.63130 0.83286 0.23714 0.04300
C 	C 	0.69578 0.87626 0.18328 0.02800
S 	S 	0.58825 0.81507 0.27074 -0.03100
S 	S 	0.73872 0.90103 0.14966 0.03400
H 	H 	0.57686 0.89006 0.27887 0.04300
H 	H 	0.48634 0.75483 0.22009 0.04700
C 	C 	0.67933 0.75872 0.33301 -0.02100
C 	C 	0.60376 0.68822 0.34837 0.04100
C 	C 	0.60745 0.69459 0.37690 -0.07400
C 	C 	0.69601 0.76026 0.38942 -0.02700
S 	S 	0.50079 0.59677 0.33177 -0.02300
H 	H 	0.67711 0.75311 0.31110 0.05000
H 	H 	0.70285 0.76147 0.41128 0.06000
C 	C 	0.62748 0.97143 0.57204 -0.15800
C 	C 	0.62786 0.00435 0.54559 0.05000
C 	C 	0.71317 0.08593 0.53675 0.28500
C 	C 	0.78284 0.14521 0.55602 -0.04900
C 	C 	0.76181 0.12528 0.58364 -0.14200
C 	C 	0.70194 0.02962 0.59031 0.38200
F 	F 	0.72404 0.11154 0.51024 -0.40100
F 	F 	0.69905 0.00077 0.61626 -0.43800
C 	C 	0.59129 0.44463 0.51474 0.02300
C 	C 	0.64982 0.40504 0.52240 0.32600
C 	C 	0.61722 0.33577 0.54267 -0.05400
C 	C 	0.63517 0.53789 0.50123 0.02800
F 	F 	0.74091 0.43884 0.51191 -0.38300
H 	H 	0.66685 0.31285 0.55057 0.10600
C 	C 	0.64651 0.54388 0.47295 0.29400
C 	C 	0.65022 0.62120 0.45921 -0.06600
C 	C 	0.63360 0.68726 0.47354 -0.13800
C 	C 	0.64830 0.69370 0.50175 0.38200
C 	C 	0.64607 0.61745 0.51574 -0.14000
F 	F 	0.64389 0.47091 0.45863 -0.40400
H 	H 	0.64907 0.62058 0.43726 0.09300
F 	F 	0.64690 0.76504 0.51592 -0.40000
H 	H 	0.64341 0.61626 0.53771 0.15500
C 	C 	0.67713 0.06509 0.71125 0.03500
S 	S 	0.55925 0.03986 0.72169 -0.01900
H 	H 	0.56127 0.12214 0.72947 0.04400
H 	H 	0.71866 0.04264 0.75102 0.03900
C 	C 	0.55894 0.87535 0.01702 0.01000
H 	H 	0.54336 0.86425 0.96188 0.13900
C 	C 	0.52007 0.73036 0.04088 -0.05400
C 	C 	0.56836 0.78465 0.06396 -0.14000
C 	C 	0.63729 0.88058 0.06010 0.37500
C 	C 	0.63006 0.92703 0.03698 -0.13500
F 	F 	0.69688 0.93223 0.08091 -0.44000
H 	H 	0.67341 0.00349 0.03568 0.13100
C 	C 	0.50649 0.51998 0.00707 -0.12700
C 	C 	0.41462 0.49922 0.99630 0.01600
C 	C 	0.40522 0.50685 0.96817 0.30500
C 	C 	0.48276 0.52206 0.95097 -0.05800
C 	C 	0.56555 0.52050 0.96156 -0.13500
C 	C 	0.58232 0.53185 0.98968 0.37400
H 	H 	0.47197 0.52012 0.92919 0.09300
H 	H 	0.51717 0.52126 0.02884 0.12500
C 	C 	0.61064 0.53076 0.85883 -0.07800
C 	C 	0.62926 0.53725 0.83078 0.04400
S 	S 	0.56541 0.43736 0.80961 -0.02900
H 	H 	0.61316 0.38553 0.80942 0.04800
H 	H 	0.72494 0.62292 0.79890 0.05700
C 	C 	0.03302 0.52783 0.94714 0.36400
O 	O 	0.67060 0.50613 0.92778 -0.35900
O 	O 	0.73956 0.27863 0.87429 -0.38900
O 	O 	0.69828 0.22897 0.67544 -0.38000
C 	C 	0.70691 0.09062 0.68427 -0.05300
F 	F 	0.66646 0.54039 0.00030 -0.42800
C 	C 	0.70608 0.62054 0.82011 -0.02300
H 	H 	0.74469 0.98467 0.14170 0.06800
C 	C 	0.74253 0.06322 0.73029 -0.01300
O 	O 	0.79297 0.23262 0.62151 -0.35100
O 	O 	0.73610 0.50000 0.62982 -0.35300
C 	C 	0.73245 0.88356 0.23152 -0.07300
H 	H 	0.84099 0.21421 0.54992 0.11700
O 	O 	0.00583 0.89182 0.24932 -0.37800
Ni	Ni	0.74759 0.45019 0.90728 1.12700
C 	C 	0.76383 0.90713 0.20465 -0.01800
C 	C 	0.75860 0.83560 0.34594 -0.07800
C 	C 	0.76975 0.83333 0.37425 0.04000
H 	H 	0.84038 0.48996 0.73045 0.04900
C 	C 	0.72376 0.44103 0.68652 0.31100
Ni	Ni	0.77614 0.32998 0.64707 1.11800
S 	S 	0.91363 0.62973 0.77244 -0.03500
O 	O 	0.02092 0.13889 0.81035 -0.39100
C 	C 	0.00976 0.50690 0.00333 0.29300
F 	F 	0.99559 0.49606 0.03054 -0.39100
F 	F 	0.76682 0.56318 0.56388 -0.43800
C 	C 	0.80799 0.53513 0.72757 -0.01400
C 	C 	0.64913 0.61514 0.87402 -0.02200
C 	C 	0.83224 0.61094 0.74536 0.03600
C 	C 	0.82352 0.35383 0.87058 0.30500
O 	O 	0.82955 0.31740 0.93006 -0.36100
C 	C 	0.81059 0.50134 0.61577 0.33300
C 	C 	0.74324 0.51791 0.70591 -0.08200
H 	H 	0.83789 0.36208 0.81557 0.05000
C 	C 	0.75908 0.70031 0.83683 -0.06500
O 	O 	0.82039 0.45394 0.94052 -0.36900
O 	O 	0.79688 0.43630 0.67507 -0.36300
O 	O 	0.84034 0.43864 0.61998 -0.36300
O 	O 	0.78361 0.78725 0.77075 -0.37100
C 	C 	0.80486 0.92425 0.25355 0.28300
H 	H 	0.84128 0.95051 0.20041 0.04300
C 	C 	0.79785 0.10190 0.67600 -0.01800
H 	H 	0.62793 0.61284 0.89504 0.06200
S 	S 	0.85584 0.23835 0.77733 -0.02600
O 	O 	0.82663 0.86240 0.82347 -0.37300
O 	O 	0.81935 0.86635 0.26984 -0.38000
C 	C 	0.83712 0.08342 0.72257 -0.08000
C 	C 	0.79135 0.67089 0.74149 -0.07800
O 	O 	0.84762 0.43113 0.88507 -0.34200
Ni	Ni	0.83641 0.92466 0.78653 1.11300
O 	O 	0.85210 0.05475 0.80194 -0.36200
C 	C 	0.83732 0.90846 0.32938 0.30800
O 	O 	0.82107 0.96902 0.31536 -0.37700
C 	C 	0.69807 0.57488 0.70293 0.04800
H 	H 	0.00768 0.69065 0.76442 0.01900
C 	C 	0.72665 0.69911 0.86364 0.03400
C 	C 	0.86195 0.40067 0.94335 0.34200
H 	H 	0.82059 0.11948 0.65510 0.08700
C 	C 	0.72073 0.64926 0.72119 -0.01900
C 	C 	0.87411 0.32828 0.82574 -0.02000
C 	C 	0.83925 0.78769 0.82498 0.28900
O 	O 	0.83770 0.01437 0.25997 -0.37800
S 	S 	0.87374 0.92285 0.39105 -0.01400
C 	C 	0.88542 0.25802 0.81204 0.04000
C 	C 	0.83571 0.76452 0.75464 0.31000
O 	O 	0.85350 0.96693 0.74689 -0.37600
C 	C 	0.85792 0.58468 0.57240 0.37400
C 	C 	0.87763 0.58522 0.60019 -0.13400
C 	C 	0.86396 0.10102 0.69509 0.04200
H 	H 	0.68855 0.69462 0.71835 0.05600
C 	C 	0.89560 0.34456 0.85356 -0.06100
S 	S 	0.61975 0.55955 0.67526 -0.05600
C 	C 	0.89205 0.05582 0.74106 0.31600
C 	C 	0.93206 0.12892 0.81279 0.30000
O 	O 	0.91341 0.89869 0.32418 -0.39600
H 	H 	0.94224 0.89400 0.39370 0.04900
H 	H 	0.91029 0.58335 0.53200 0.15500
F 	F 	0.92612 0.43060 0.52836 -0.39900
H 	H 	0.89802 0.36389 0.99461 0.10000
C 	C 	0.92281 0.20644 0.82612 -0.06900
H 	H 	0.93748 0.29406 0.76227 0.04700
O 	O 	0.90935 0.78151 0.81073 -0.35700
C 	C 	0.95246 0.30832 0.86544 0.03200
H 	H 	0.90088 0.81061 0.19759 0.04900
C 	C 	0.92771 0.59048 0.55348 -0.12400
Ni	Ni	0.92389 0.07570 0.29221 1.11800
C 	C 	0.96180 0.23632 0.85225 -0.01700
O 	O 	0.92907 0.82215 0.75179 -0.37800
C 	C 	0.95586 0.44386 0.95793 -0.12900
S 	S 	0.78650 0.79931 0.88494 -0.00600
H 	H 	0.67339 0.61825 0.65457 0.06500
H 	H 	0.74279 0.85431 0.88221 0.05400
Ni	Ni	0.95181 0.89443 0.28603 1.11800
C 	C 	0.95352 0.43008 0.98603 -0.05100
O 	O 	0.96377 0.11963 0.75630 -0.37200
C 	C 	0.97666 0.62799 0.60797 -0.04900
H 	H 	0.99094 0.66950 0.02668 0.14100
O 	O 	0.97125 0.96768 0.79053 -0.71200
H 	H 	0.99604 0.64279 0.62927 0.09200
H 	H 	0.99953 0.20384 0.86232 0.05600
H 	H 	0.98101 0.97829 0.81031 0.17800
S 	S 	0.01260 0.35270 0.89658 0.02600
S 	S 	0.98000 0.12172 0.68432 0.01500
