data_crystal

_cell_length_a 24.73871
_cell_length_b 26.02283
_cell_length_c 37.62040
_cell_angle_alpha 60.79410
_cell_angle_beta  118.91777
_cell_angle_gamma 133.25788

_symmetry_space_group_name_	'P 1'
_symmetry_space_group_name_H-M	'P 1'

loop_
_symmetry_equiv_pos_as_xyz
  x,y,z

loop_
_atom_site_label
_atom_site_type_symbol
_atom_site_fract_x
_atom_site_fract_y
_atom_site_fract_z
_atom_site_charge
C 	C 	0.73239 0.30481 0.02249 0.13000
N 	N 	0.65828 0.25444 0.02523 -0.13900
C 	C 	0.62004 0.27504 0.02462 0.12300
N 	N 	0.65589 0.34567 0.02129 -0.13700
C 	C 	0.73055 0.39553 0.02039 0.12000
N 	N 	0.76924 0.37517 0.02115 -0.13600
C 	C 	0.70972 0.31639 0.50846 0.11800
N 	N 	0.75764 0.38471 0.51456 -0.13700
C 	C 	0.72821 0.41561 0.51214 0.13200
N 	N 	0.65185 0.37865 0.50359 -0.14000
C 	C 	0.60456 0.30852 0.50173 0.12100
N 	N 	0.63325 0.27765 0.50335 -0.14100
C 	C 	0.26955 0.62305 0.20848 0.11600
N 	N 	0.34036 0.67418 0.20037 -0.13900
C 	C 	0.36817 0.65715 0.18766 0.13200
N 	N 	0.32571 0.58951 0.18295 -0.13900
C 	C 	0.25597 0.53782 0.19161 0.11800
N 	N 	0.22769 0.55418 0.20467 -0.14100
C 	C 	0.25901 0.65978 0.66531 0.12800
N 	N 	0.33130 0.70390 0.66038 -0.13800
C 	C 	0.35276 0.68156 0.64699 0.13300
N 	N 	0.30226 0.61555 0.63847 -0.13900
C 	C 	0.23092 0.57018 0.64454 0.11800
N 	N 	0.20896 0.59209 0.65813 -0.14100
Co	Co	0.07612 0.01139 0.07580 1.17000
Co	Co	0.94470 0.91933 0.16553 1.19400
Co	Co	0.03601 0.06868 0.11527 1.16300
Co	Co	0.98434 0.86219 0.12588 1.20000
C 	C 	0.21446 0.01735 0.09468 0.28100
Co	Co	0.06790 0.88631 0.06836 1.16400
Co	Co	0.95203 0.04064 0.17529 1.16600
C 	C 	0.90314 0.77462 0.06110 0.31500
O 	O 	0.97686 0.13412 0.12712 -0.39700
O 	O 	0.97608 0.00635 0.14828 -0.76500
C 	C 	0.95444 0.13417 0.08763 0.31100
O 	O 	0.09413 0.09991 0.07630 -0.47800
O 	O 	0.93203 0.83209 0.16773 -0.45600
C 	C 	0.80208 0.90752 0.15156 0.29400
O 	O 	0.98899 0.96094 0.10979 -0.54800
C 	C 	0.11646 0.14961 0.18235 0.31400
C 	C 	0.05813 0.99949 0.99345 0.33200
C 	C 	0.07002 0.80153 0.15659 0.32500
O 	O 	0.97217 0.10933 0.07479 -0.37500
O 	O 	0.09846 0.97384 0.01638 -0.40200
O 	O 	0.04175 0.01984 0.01089 -0.41200
O 	O 	0.84175 0.97902 0.14270 -0.37900
O 	O 	0.83047 0.87495 0.15625 -0.37400
O 	O 	0.06596 0.09599 0.20503 -0.42400
O 	O 	0.12606 0.13700 0.15626 -0.39800
O 	O 	0.04246 0.79553 0.11816 -0.42300
O 	O 	0.06190 0.83724 0.16697 -0.40500
O 	O 	0.03687 0.92232 0.08941 -0.76700
C 	C 	0.97262 0.93282 0.24845 0.27100
O 	O 	0.92667 0.95235 0.22710 -0.38200
O 	O 	0.99759 0.92489 0.22852 -0.36200
O 	O 	0.17803 0.94710 0.10148 -0.36900
O 	O 	0.18820 0.04270 0.10042 -0.39600
O 	O 	0.95402 0.83087 0.03881 -0.37500
O 	O 	0.89816 0.78046 0.09264 -0.36500
Co	Co	0.04492 0.01536 0.56107 1.16200
Co	Co	0.95634 0.93741 0.66877 1.19900
Co	Co	0.00923 0.07354 0.60220 1.16200
Co	Co	0.00330 0.88432 0.63179 1.16800
C 	C 	0.19091 0.07152 0.55283 0.33000
Co	Co	0.08027 0.91171 0.56785 1.16800
Co	Co	0.95459 0.05593 0.67404 1.16800
C 	C 	0.94511 0.76729 0.59801 0.34300
O 	O 	0.95469 0.13612 0.62070 -0.39700
O 	O 	0.97135 0.01817 0.64492 -0.76700
C 	C 	0.91745 0.12407 0.58329 0.31700
O 	O 	0.04230 0.09673 0.55302 -0.48600
O 	O 	0.95620 0.85467 0.67629 -0.44800
C 	C 	0.80768 0.91258 0.65595 0.28800
O 	O 	0.97674 0.96543 0.60706 -0.55000
C 	C 	0.10754 0.17691 0.65893 0.31300
C 	C 	0.99037 0.95229 0.48783 0.24300
C 	C 	0.14471 0.88920 0.65859 0.29700
O 	O 	0.92758 0.09453 0.56897 -0.38100
O 	O 	0.99191 0.89669 0.51520 -0.35900
O 	O 	0.99800 0.99843 0.49977 -0.32500
O 	O 	0.83932 0.97994 0.65480 -0.37100
O 	O 	0.84779 0.88528 0.67443 -0.37500
O 	O 	0.07210 0.12623 0.68927 -0.41500
O 	O 	0.10698 0.15913 0.63094 -0.39700
O 	O 	0.16374 0.93151 0.62253 -0.38500
O 	O 	0.10091 0.88712 0.67087 -0.39000
O 	O 	0.03540 0.93671 0.58703 -0.76300
C 	C 	0.00781 0.97239 0.74894 0.23700
O 	O 	0.95381 0.98147 0.73107 -0.35000
O 	O 	0.02859 0.96430 0.72654 -0.38000
O 	O 	0.14829 0.01753 0.53564 -0.43900
O 	O 	0.16212 0.07581 0.57208 -0.41500
O 	O 	0.01665 0.80324 0.59899 -0.44300
O 	O 	0.92477 0.79023 0.61051 -0.38300
C 	C 	0.05881 0.03390 0.89032 0.01100
C 	C 	0.10644 0.05702 0.86747 -0.06900
C 	C 	0.08444 0.00677 0.84950 -0.00800
C 	C 	0.01784 0.93669 0.85401 0.04800
C 	C 	0.97040 0.91375 0.87695 -0.05100
C 	C 	0.99129 0.96454 0.89389 0.05500
N 	N 	0.08473 0.06012 0.92285 -0.13000
C 	C 	0.03371 0.00787 0.94748 -0.09600
C 	C 	0.97493 0.94734 0.93030 0.02700
N 	N 	0.99073 0.91051 0.82127 -0.12200
C 	C 	0.03848 0.96379 0.79490 0.01500
C 	C 	0.09785 0.02469 0.81179 -0.07300
H 	H 	0.15859 0.11173 0.86395 0.04700
H 	H 	0.91822 0.85905 0.88049 0.05300
H 	H 	0.94155 0.89221 0.94853 0.04100
H 	H 	0.12879 0.07995 0.79306 0.04900
H 	H 	0.14217 0.09988 0.93377 0.07800
H 	H 	0.93334 0.86921 0.81158 0.09500
C 	C 	0.94035 0.91850 0.39176 0.09100
C 	C 	0.92097 0.86753 0.37564 -0.08500
C 	C 	0.96981 0.89061 0.35367 0.04400
C 	C 	0.03453 0.96172 0.34747 0.08000
C 	C 	0.05458 0.01236 0.36429 -0.15700
C 	C 	0.00508 0.98947 0.38571 0.07100
N 	N 	0.92089 0.90014 0.42623 -0.16400
C 	C 	0.97290 0.95931 0.44255 0.09500
C 	C 	0.02695 0.01588 0.41830 -0.17200
N 	N 	0.05152 0.98085 0.31182 -0.15500
C 	C 	0.99770 0.92256 0.29462 0.04100
C 	C 	0.94585 0.86532 0.32009 -0.05700
H 	H 	0.87003 0.81213 0.38008 0.05800
H 	H 	0.10544 0.06780 0.35984 0.06500
H 	H 	0.08508 0.05839 0.43027 0.06900
H 	H 	0.88711 0.82302 0.30860 0.05400
H 	H 	0.88869 0.84663 0.44353 0.09400
H 	H 	0.08256 0.03464 0.29453 0.06900
C 	C 	0.14979 0.36675 0.64370 -0.00500
C 	C 	0.15567 0.37543 0.67967 -0.04000
C 	C 	0.17118 0.43897 0.67853 -0.02500
C 	C 	0.12815 0.24801 0.65020 -0.12000
C 	C 	0.16802 0.48230 0.60456 -0.02400
C 	C 	0.15261 0.41879 0.60572 -0.03900
C 	C 	0.13958 0.30365 0.64593 0.04700
C 	C 	0.18219 0.49474 0.64158 -0.01900
H 	H 	0.15086 0.33416 0.70888 0.03700
H 	H 	0.18091 0.44733 0.70719 0.04000
H 	H 	0.17497 0.52438 0.57561 0.03900
H 	H 	0.14539 0.41130 0.57741 0.04000
C 	C 	0.57169 0.78922 0.64539 0.03500
C 	C 	0.60443 0.84892 0.61267 -0.06100
C 	C 	0.68028 0.88500 0.61379 0.01700
C 	C 	0.43076 0.72364 0.64627 -0.03300
C 	C 	0.68920 0.79871 0.67896 0.01800
C 	C 	0.61328 0.76262 0.67776 -0.06300
C 	C 	0.49532 0.75486 0.64571 0.00100
C 	C 	0.72409 0.86202 0.64792 -0.07900
H 	H 	0.57187 0.86859 0.58696 0.05400
H 	H 	0.70631 0.93326 0.58934 0.04000
H 	H 	0.72217 0.78011 0.70535 0.04100
H 	H 	0.58757 0.71528 0.70264 0.05300
C 	C 	0.20331 0.75186 0.69161 0.03300
C 	C 	0.12847 0.72089 0.68979 -0.06700
C 	C 	0.11097 0.76421 0.68684 0.01600
C 	C 	0.23481 0.68672 0.67588 -0.03400
C 	C 	0.24377 0.86757 0.69105 0.02000
C 	C 	0.26160 0.82406 0.69490 -0.06600
C 	C 	0.21861 0.71404 0.68378 -0.00500
C 	C 	0.16738 0.83938 0.68343 -0.09100
H 	H 	0.08320 0.66456 0.68837 0.04300
H 	H 	0.05230 0.74082 0.68312 0.02500
H 	H 	0.28839 0.92494 0.68996 0.04000
H 	H 	0.32003 0.84796 0.69756 0.05500
C 	C 	0.18554 0.34290 0.18310 -0.00500
C 	C 	0.20824 0.35333 0.22252 -0.04000
C 	C 	0.22196 0.41309 0.22558 -0.02400
C 	C 	0.14867 0.22248 0.17981 -0.12100
C 	C 	0.18621 0.45003 0.14990 -0.02400
C 	C 	0.17209 0.39002 0.14684 -0.03900
C 	C 	0.16799 0.27923 0.18027 0.04600
C 	C 	0.21406 0.46345 0.18924 -0.02000
H 	H 	0.21621 0.31570 0.25079 0.04000
H 	H 	0.24342 0.42274 0.25612 0.03900
H 	H 	0.17974 0.48841 0.12158 0.03800
H 	H 	0.15176 0.38085 0.11630 0.03900
C 	C 	0.58201 0.78814 0.17027 0.03600
C 	C 	0.60840 0.85206 0.13827 -0.06300
C 	C 	0.67876 0.88928 0.13059 0.01900
C 	C 	0.44427 0.70871 0.18168 -0.03400
C 	C 	0.69561 0.79761 0.18628 0.01800
C 	C 	0.62538 0.76063 0.19396 -0.06400
C 	C 	0.50751 0.74706 0.17644 0.00100
C 	C 	0.72318 0.86266 0.15493 -0.08300
H 	H 	0.57444 0.87287 0.11931 0.05500
H 	H 	0.69918 0.93922 0.10612 0.04200
H 	H 	0.72964 0.77692 0.20555 0.03800
H 	H 	0.60467 0.71055 0.21833 0.05300
C 	C 	0.17158 0.69877 0.22038 -0.00300
C 	C 	0.25113 0.73770 0.23022 -0.03600
C 	C 	0.28350 0.71030 0.22962 -0.02300
C 	C 	0.10855 0.76819 0.18649 -0.11000
C 	C 	0.15701 0.60157 0.21316 -0.02600
C 	C 	0.12495 0.62873 0.21436 -0.03900
C 	C 	0.13857 0.73715 0.20493 0.04800
C 	C 	0.23641 0.64393 0.21859 -0.01600
H 	H 	0.28787 0.79132 0.23561 0.04800
H 	H 	0.34502 0.74226 0.23590 0.04800
H 	H 	0.11973 0.54938 0.20586 0.04000
H 	H 	0.06338 0.59762 0.20736 0.03700
C 	C 	0.80354 0.21589 0.52088 0.00000
C 	C 	0.84673 0.29199 0.51126 -0.03500
C 	C 	0.81561 0.32508 0.50593 -0.02100
C 	C 	0.87499 0.15412 0.55608 -0.10400
C 	C 	0.69634 0.20606 0.51762 -0.02400
C 	C 	0.72752 0.17330 0.52268 -0.03800
C 	C 	0.84154 0.18178 0.53795 0.04800
C 	C 	0.74092 0.28217 0.51043 -0.01500
H 	H 	0.90558 0.32545 0.50977 0.05100
H 	H 	0.85014 0.38384 0.49915 0.05100
H 	H 	0.63839 0.17198 0.52068 0.04100
H 	H 	0.69370 0.11447 0.53016 0.03800
C 	C 	0.83695 0.58764 0.55606 0.04100
C 	C 	0.82475 0.64130 0.52953 -0.06700
C 	C 	0.85037 0.69550 0.54510 0.02500
C 	C 	0.77594 0.47926 0.52726 -0.03100
C 	C 	0.89552 0.63959 0.61437 0.03200
C 	C 	0.86985 0.58536 0.59882 -0.06700
C 	C 	0.80703 0.52990 0.54040 0.00100
C 	C 	0.88965 0.69717 0.58711 -0.10100
H 	H 	0.79654 0.64177 0.49672 0.05300
H 	H 	0.84499 0.73934 0.52378 0.03200
H 	H 	0.92501 0.63980 0.64700 0.03500
H 	H 	0.87666 0.54231 0.61990 0.05800
C 	C 	0.40256 0.20331 0.53447 -0.00500
C 	C 	0.41974 0.25842 0.49752 -0.03700
C 	C 	0.48176 0.28786 0.48418 -0.02300
C 	C 	0.26851 0.12560 0.54963 -0.12100
C 	C 	0.50849 0.20572 0.54405 -0.02400
C 	C 	0.44656 0.17645 0.55741 -0.03800
C 	C 	0.33130 0.16416 0.54385 0.05100
C 	C 	0.52768 0.26295 0.50794 -0.01900
H 	H 	0.38450 0.27785 0.47884 0.04200
H 	H 	0.49605 0.33211 0.45627 0.04200
H 	H 	0.54381 0.18640 0.56290 0.04000
H 	H 	0.43218 0.13221 0.58532 0.03900
C 	C 	0.84429 0.23547 0.02909 0.04800
C 	C 	0.80235 0.16308 0.02845 -0.07500
C 	C 	0.83998 0.13175 0.04219 0.02600
C 	C 	0.77291 0.28258 0.02361 -0.02900
C 	C 	0.96183 0.24707 0.05314 0.07600
C 	C 	0.92423 0.27838 0.03942 -0.08600
C 	C 	0.80572 0.26199 0.02538 -0.00500
C 	C 	0.91962 0.17242 0.05713 -0.10600
H 	H 	0.74051 0.12982 0.01976 0.05000
H 	H 	0.80677 0.07427 0.04470 0.02500
H 	H 	0.02345 0.27932 0.06408 -0.00500
H 	H 	0.95721 0.33477 0.03927 0.06600
C 	C 	0.81262 0.58541 0.04261 -0.00500
C 	C 	0.76190 0.56684 0.00461 -0.01900
C 	C 	0.74125 0.50895 0.99511 -0.03700
C 	C 	0.86399 0.70404 0.05651 -0.10100
C 	C 	0.82484 0.49007 0.06068 -0.02400
C 	C 	0.84555 0.54811 0.07015 -0.03000
C 	C 	0.83813 0.64838 0.05087 0.05500
C 	C 	0.77068 0.46872 0.02372 -0.00500
H 	H 	0.73807 0.59693 0.98254 0.03800
H 	H 	0.69949 0.49306 0.96643 0.04500
H 	H 	0.84776 0.45932 0.08309 0.04800
H 	H 	0.88672 0.56366 0.09901 0.05000
C 	C 	0.41355 0.14353 0.06087 0.00200
C 	C 	0.46829 0.12938 0.08523 -0.04200
C 	C 	0.53316 0.16757 0.07133 -0.02100
C 	C 	0.28711 0.06608 0.08469 -0.10400
C 	C 	0.48657 0.23126 0.00769 -0.01400
C 	C 	0.42184 0.19311 0.02161 -0.04300
C 	C 	0.34581 0.10281 0.07451 0.03900
C 	C 	0.54378 0.22045 0.03310 -0.02200
H 	H 	0.46115 0.08958 0.11515 0.04100
H 	H 	0.57698 0.15885 0.09126 0.04000
H 	H 	0.49400 0.27168 0.97801 0.03500
H 	H 	0.37860 0.20274 0.00208 0.04400
