data_crystal

_cell_length_a 22.93014
_cell_length_b 24.43463
_cell_length_c 26.82001
_cell_angle_alpha 90.00021
_cell_angle_beta  90.01786
_cell_angle_gamma 92.64540

_symmetry_space_group_name_	'P 1'
_symmetry_space_group_name_H-M	'P 1'

loop_
_symmetry_equiv_pos_as_xyz
  x,y,z

loop_
_atom_site_label
_atom_site_type_symbol
_atom_site_fract_x
_atom_site_fract_y
_atom_site_fract_z
_atom_site_charge
C 	C 	0.02410 0.09325 0.93398 0.10400
N 	N 	0.97657 0.06673 0.95339 -0.17000
C 	C 	0.92988 0.09041 0.93386 0.10500
C 	C 	0.87107 0.08469 0.95678 -0.07400
C 	C 	0.84899 0.03083 0.97562 0.10200
C 	C 	0.83254 0.13158 0.95782 0.04800
C 	C 	0.85111 0.18081 0.98106 -0.05400
C 	C 	0.81359 0.22419 0.98390 -0.01400
C 	C 	0.75686 0.21827 0.96435 0.03000
C 	C 	0.77617 0.12606 0.93754 -0.04700
N 	N 	0.86557 0.98281 0.95696 -0.12900
C 	C 	0.81439 0.02316 0.01741 -0.06800
C 	C 	0.84044 0.94412 0.98687 0.10400
C 	C 	0.85811 0.88682 0.98717 -0.07900
C 	C 	0.81362 0.84227 0.99673 0.06400
C 	C 	0.72296 0.79343 0.97393 -0.00900
C 	C 	0.81843 0.80817 0.03850 -0.06900
C 	C 	0.77547 0.76690 0.04803 -0.01500
C 	C 	0.72763 0.75937 0.01569 0.01700
N 	N 	0.96525 0.90638 0.98078 -0.16500
C 	C 	0.01180 0.87666 0.97060 0.09100
C 	C 	0.99384 0.82492 0.95367 -0.04500
C 	C 	0.93352 0.82325 0.95368 -0.06500
C 	C 	0.07112 0.89138 0.98980 -0.05700
C 	C 	0.11187 0.84810 0.00139 0.01900
C 	C 	0.20030 0.80151 0.98261 -0.02000
C 	C 	0.18883 0.76532 0.02233 0.02700
C 	C 	0.13883 0.77068 0.05169 -0.03100
C 	C 	0.10051 0.81210 0.04135 -0.04100
N 	N 	0.07524 0.98683 0.95743 -0.12900
C 	C 	0.13615 0.02717 0.01387 -0.06600
C 	C 	0.10227 0.03444 0.97185 0.10000
C 	C 	0.08348 0.08834 0.95475 -0.07300
C 	C 	0.12556 0.13613 0.95539 0.04100
C 	C 	0.17689 0.13532 0.92700 -0.04400
C 	C 	0.21974 0.17760 0.93168 -0.02900
C 	C 	0.21168 0.22098 0.96486 0.03500
C 	C 	0.15948 0.22276 0.99201 -0.01700
C 	C 	0.11646 0.18055 0.98715 -0.03800
C 	C 	0.00801 0.13409 0.90168 -0.06300
C 	C 	0.94766 0.13225 0.90152 -0.05500
C 	C 	0.73826 0.16892 0.94138 -0.01900
C 	C 	0.80906 0.96738 0.02479 -0.07100
C 	C 	0.91761 0.87398 0.97061 0.10900
C 	C 	0.13035 0.97225 0.02537 -0.06700
C 	C 	0.09284 0.94920 0.99014 0.09800
C 	C 	0.16199 0.84274 0.97218 -0.02900
H 	H 	0.97622 0.04535 0.98716 0.09800
H 	H 	0.96586 0.93962 0.00534 0.08500
H 	H 	0.25988 0.17592 0.91054 0.05800
H 	H 	0.15291 0.25606 0.01778 0.04800
H 	H 	0.18412 0.10134 0.90215 0.05400
H 	H 	0.07688 0.18157 0.00911 0.03900
H 	H 	0.82820 0.26204 0.00196 0.04100
H 	H 	0.76149 0.08826 0.91942 0.05800
H 	H 	0.69425 0.16368 0.92686 0.06400
H 	H 	0.89437 0.18527 0.99725 0.05400
H 	H 	0.77939 0.74078 0.08038 0.05300
H 	H 	0.85522 0.81380 0.06363 0.05300
C 	C 	0.76573 0.83473 0.96451 -0.05700
H 	H 	0.68619 0.78783 0.94876 0.05200
H 	H 	0.23880 0.79750 0.95973 0.05700
H 	H 	0.17098 0.87031 0.94120 0.05200
H 	H 	0.06194 0.81608 0.06414 0.04600
H 	H 	0.12969 0.74279 0.08240 0.05500
H 	H 	0.03538 0.16952 0.89123 0.06100
H 	H 	0.92147 0.16600 0.89061 0.06000
H 	H 	0.80816 0.05370 0.04592 0.05300
H 	H 	0.79893 0.94797 0.06023 0.05400
H 	H 	0.01993 0.78914 0.95470 0.05300
H 	H 	0.90609 0.78601 0.95478 0.06500
H 	H 	0.14859 0.05910 0.04030 0.05400
H 	H 	0.13881 0.95486 0.06164 0.05900
H 	H 	0.76172 0.86081 0.93214 0.05800
C 	C 	0.97954 0.90256 0.47499 0.11200
N 	N 	0.01836 0.92727 0.50624 -0.17400
C 	C 	0.06501 0.89578 0.50731 0.10000
C 	C 	0.12101 0.91248 0.53196 -0.06900
C 	C 	0.13277 0.97045 0.54634 0.09000
C 	C 	0.16768 0.87301 0.53592 0.04200
C 	C 	0.15973 0.82625 0.56595 -0.04600
C 	C 	0.20192 0.78675 0.56658 -0.03100
C 	C 	0.25236 0.79389 0.53730 0.03800
C 	C 	0.21872 0.88064 0.50746 -0.04400
N 	N 	0.11042 0.01209 0.52099 -0.12700
C 	C 	0.17764 0.98909 0.57741 -0.05800
C 	C 	0.13982 0.05774 0.53684 0.09100
C 	C 	0.13700 0.11086 0.51038 -0.07000
C 	C 	0.18616 0.15191 0.51439 0.04100
C 	C 	0.27585 0.19373 0.48101 -0.02600
C 	C 	0.19193 0.18529 0.55680 -0.04700
C 	C 	0.24006 0.22217 0.56170 -0.03400
C 	C 	0.28239 0.22632 0.52393 0.03700
N 	N 	0.03558 0.09324 0.47817 -0.17100
C 	C 	0.00058 0.11796 0.44569 0.09900
C 	C 	0.03080 0.16097 0.42197 -0.05900
C 	C 	0.08702 0.16213 0.44072 -0.06100
C 	C 	0.93617 0.11186 0.44834 -0.06900
C 	C 	0.90081 0.16074 0.44657 0.04100
C 	C 	0.82945 0.21429 0.40410 -0.02600
C 	C 	0.82173 0.24480 0.44772 0.03600
C 	C 	0.85605 0.23511 0.48985 -0.03200
C 	C 	0.89563 0.19334 0.48919 -0.04600
N 	N 	0.93512 0.01001 0.44706 -0.12400
C 	C 	0.84746 0.99109 0.48267 -0.05800
C 	C 	0.89828 0.96992 0.46471 0.09100
C 	C 	0.91695 0.91400 0.47569 -0.07400
C 	C 	0.87297 0.86925 0.48591 0.04300
C 	C 	0.82981 0.85548 0.45042 -0.04500
C 	C 	0.78772 0.81376 0.46037 -0.03000
C 	C 	0.78854 0.78542 0.50581 0.03900
C 	C 	0.83188 0.79888 0.54120 -0.02800
C 	C 	0.87411 0.84056 0.53122 -0.04500
C 	C 	0.00169 0.85533 0.45535 -0.06600
C 	C 	0.05687 0.85152 0.47546 -0.05400
C 	C 	0.26108 0.84140 0.50841 -0.02600
C 	C 	0.18228 0.04516 0.57126 -0.05700
C 	C 	0.08826 0.11988 0.47508 0.10100
C 	C 	0.85290 0.04679 0.47498 -0.05300
C 	C 	0.90682 0.05678 0.45278 0.09200
C 	C 	0.86850 0.17203 0.40368 -0.04400
H 	H 	0.00772 0.95495 0.53416 0.09500
H 	H 	0.02035 0.07174 0.50961 0.09800
H 	H 	0.75439 0.80352 0.43284 0.05500
H 	H 	0.83276 0.77715 0.57638 0.05800
H 	H 	0.82890 0.87711 0.41519 0.05400
H 	H 	0.90736 0.85089 0.55879 0.05100
H 	H 	0.19505 0.75028 0.58919 0.05300
H 	H 	0.22511 0.91658 0.48408 0.05600
H 	H 	0.30016 0.84736 0.48599 0.06100
H 	H 	0.12044 0.82010 0.58806 0.05000
H 	H 	0.24452 0.24744 0.59480 0.05200
H 	H 	0.15954 0.18215 0.58618 0.05000
C 	C 	0.22838 0.15611 0.47661 -0.04600
H 	H 	0.30780 0.19729 0.45130 0.06200
H 	H 	0.80369 0.22203 0.37118 0.05700
H 	H 	0.87266 0.14725 0.37049 0.05300
H 	H 	0.92076 0.18504 0.52234 0.05100
H 	H 	0.85074 0.25884 0.52353 0.05400
H 	H 	0.97566 0.82120 0.44012 0.06700
H 	H 	0.08162 0.81487 0.47597 0.06400
H 	H 	0.21216 0.96447 0.59134 0.05600
H 	H 	0.22121 0.07033 0.57933 0.06100
H 	H 	0.01081 0.19566 0.40498 0.05200
H 	H 	0.11681 0.19780 0.44018 0.05300
H 	H 	0.81926 0.97153 0.51041 0.05700
H 	H 	0.82941 0.07667 0.49582 0.06300
H 	H 	0.22429 0.13033 0.44382 0.05500
Ni	Ni	0.44205 0.52176 0.05328 1.09700
O 	O 	0.50963 0.47237 0.03922 -0.70700
Ni	Ni	0.49672 0.45632 0.96592 1.10000
O 	O 	0.45784 0.52566 0.12859 -0.36800
O 	O 	0.46176 0.43330 0.13878 -0.39000
O 	O 	0.49713 0.59112 0.05158 -0.35200
Ni	Ni	0.49905 0.40222 0.07463 1.08400
O 	O 	0.40731 0.62484 0.99699 -0.37500
O 	O 	0.41531 0.38939 0.05004 -0.39200
O 	O 	0.56531 0.40752 0.95687 -0.38400
O 	O 	0.42966 0.50577 0.97996 -0.70000
O 	O 	0.37373 0.57098 0.06133 -0.37300
O 	O 	0.47860 0.45318 0.89102 -0.36900
O 	O 	0.48447 0.54637 0.88130 -0.40500
Ni	Ni	0.44232 0.57556 0.94420 1.07400
H 	H 	0.54857 0.49019 0.04560 0.16200
H 	H 	0.39065 0.48834 0.97310 0.17400
C 	C 	0.40367 0.37549 0.00391 0.29300
O 	O 	0.52491 0.58828 0.97030 -0.40900
C 	C 	0.47212 0.48332 0.15540 0.28200
C 	C 	0.57493 0.36956 0.99029 0.32100
C 	C 	0.53574 0.60236 0.01644 0.30500
C 	C 	0.47828 0.49680 0.86240 0.28600
C 	C 	0.36482 0.60876 0.02764 0.30700
O 	O 	0.44183 0.38683 0.96842 -0.34600
O 	O 	0.53268 0.35313 0.02107 -0.37000
Ni	Ni	0.50389 0.54758 0.55112 1.10600
O 	O 	0.56905 0.49628 0.53546 -0.70300
Ni	Ni	0.54584 0.47060 0.46715 1.10300
O 	O 	0.51466 0.54280 0.62688 -0.36200
O 	O 	0.50901 0.44925 0.62417 -0.40400
O 	O 	0.56279 0.61419 0.55004 -0.34200
Ni	Ni	0.57829 0.43218 0.57735 1.07500
O 	O 	0.47388 0.65112 0.49219 -0.38000
O 	O 	0.52812 0.37214 0.54227 -0.39400
O 	O 	0.59915 0.40556 0.45897 -0.37500
O 	O 	0.48902 0.53130 0.47904 -0.70300
O 	O 	0.43947 0.60092 0.55945 -0.35500
O 	O 	0.52150 0.46444 0.39374 -0.36300
O 	O 	0.54089 0.55613 0.38075 -0.40100
Ni	Ni	0.50631 0.59770 0.44112 1.07200
H 	H 	0.60719 0.51674 0.53317 0.16700
H 	H 	0.44784 0.51852 0.47398 0.17800
C 	C 	0.47843 0.38173 0.52059 0.32600
O 	O 	0.58886 0.60696 0.46821 -0.41100
C 	C 	0.50844 0.49526 0.64971 0.27300
C 	C 	0.64419 0.39546 0.48817 0.32200
C 	C 	0.59932 0.62572 0.51321 0.31700
C 	C 	0.51977 0.50806 0.36497 0.27500
C 	C 	0.43175 0.63822 0.52470 0.30900
O 	O 	0.47650 0.41872 0.48533 -0.36700
O 	O 	0.64780 0.41295 0.53499 -0.39500
C 	C 	0.48430 0.49030 0.80814 -0.07700
C 	C 	0.53696 0.47318 0.78650 0.06300
C 	C 	0.54312 0.47396 0.73443 -0.03000
C 	C 	0.49906 0.49335 0.70390 -0.07900
C 	C 	0.44653 0.51035 0.72541 0.06600
C 	C 	0.43929 0.50754 0.77733 -0.03100
H 	H 	0.58307 0.46049 0.71768 0.02900
H 	H 	0.39892 0.52009 0.79397 0.04000
C 	C 	0.58762 0.45483 0.81806 -0.11900
C 	C 	0.39698 0.52972 0.69339 -0.12200
C 	C 	0.63787 0.49858 0.82112 -0.01100
H 	H 	0.65105 0.51243 0.78311 0.03700
H 	H 	0.67620 0.47978 0.83841 0.04200
C 	C 	0.35974 0.48107 0.67279 -0.01000
H 	H 	0.34177 0.45579 0.70417 0.04100
H 	H 	0.38697 0.45488 0.64925 0.05200
H 	H 	0.57457 0.44178 0.85610 0.07500
H 	H 	0.41394 0.55597 0.66237 0.08500
C 	C 	0.62251 0.54813 0.85242 -0.16400
C 	C 	0.30912 0.50044 0.64136 -0.16800
H 	H 	0.60757 0.53502 0.89016 0.07100
H 	H 	0.66179 0.57606 0.85663 0.08100
H 	H 	0.58799 0.57108 0.83376 0.08400
H 	H 	0.60491 0.41760 0.80062 0.06600
H 	H 	0.28011 0.52552 0.66429 0.07500
H 	H 	0.28315 0.46438 0.62690 0.08700
H 	H 	0.32586 0.52519 0.60922 0.08800
H 	H 	0.36874 0.55610 0.71592 0.06600
C 	C 	0.48387 0.49118 0.20890 -0.07900
C 	C 	0.44009 0.50825 0.24214 0.06400
C 	C 	0.45256 0.51205 0.29331 -0.03500
C 	C 	0.50785 0.50065 0.31156 -0.07900
C 	C 	0.55170 0.48415 0.27842 0.06100
C 	C 	0.53890 0.47879 0.22743 -0.03300
H 	H 	0.41896 0.52401 0.31905 0.03300
H 	H 	0.57195 0.46490 0.20205 0.03700
C 	C 	0.37927 0.52110 0.22420 -0.11700
C 	C 	0.61171 0.47029 0.29712 -0.11300
C 	C 	0.36698 0.58223 0.22953 -0.00300
H 	H 	0.37504 0.59610 0.26849 0.03000
H 	H 	0.32004 0.58761 0.22144 0.03900
C 	C 	0.61359 0.40924 0.31032 -0.01400
H 	H 	0.60673 0.38419 0.27602 0.04200
H 	H 	0.57825 0.39750 0.33710 0.05600
H 	H 	0.37004 0.50756 0.18542 0.07300
H 	H 	0.62475 0.49592 0.32985 0.06900
C 	C 	0.40334 0.61886 0.19403 -0.17400
C 	C 	0.67207 0.39593 0.33358 -0.16700
H 	H 	0.39238 0.60855 0.15476 0.10000
H 	H 	0.39338 0.66233 0.20049 0.08500
H 	H 	0.45073 0.61443 0.20045 0.09100
H 	H 	0.34700 0.49734 0.24752 0.06200
H 	H 	0.70823 0.40516 0.30688 0.07600
H 	H 	0.67173 0.35174 0.34331 0.08000
H 	H 	0.67983 0.42022 0.36815 0.08600
H 	H 	0.64483 0.48021 0.26777 0.06100
C 	C 	0.29538 0.75100 0.53581 -0.00700
C 	C 	0.29848 0.71602 0.49428 0.13800
C 	C 	0.34271 0.67865 0.49145 -0.03300
C 	C 	0.38351 0.67520 0.53009 -0.10400
C 	C 	0.37933 0.70902 0.57242 0.20300
C 	C 	0.33530 0.74670 0.57505 -0.09700
H 	H 	0.34552 0.65238 0.45904 0.05100
H 	H 	0.33282 0.77339 0.60719 0.08600
Cl	Cl	0.24695 0.71844 0.44568 -0.32100
Cl	Cl	0.43014 0.70612 0.62155 -0.28900
C 	C 	0.64981 0.66397 0.52138 -0.10600
C 	C 	0.64176 0.71847 0.53624 0.19500
C 	C 	0.68852 0.75725 0.53401 -0.09500
C 	C 	0.74318 0.74239 0.51656 -0.00900
C 	C 	0.75213 0.68734 0.50457 0.14000
C 	C 	0.70555 0.64840 0.50716 -0.03100
H 	H 	0.68171 0.79951 0.54385 0.08600
H 	H 	0.71215 0.60640 0.49628 0.07400
Cl	Cl	0.57250 0.73972 0.55439 -0.28600
Cl	Cl	0.82095 0.66708 0.48433 -0.30800
C 	C 	0.77489 0.28403 0.45064 -0.00900
C 	C 	0.71614 0.26523 0.45560 0.13600
C 	C 	0.67302 0.30260 0.46471 -0.02900
C 	C 	0.68809 0.35850 0.47009 -0.11300
C 	C 	0.74628 0.37762 0.46277 0.19400
C 	C 	0.78938 0.34038 0.45292 -0.09900
H 	H 	0.62809 0.28786 0.46980 0.07700
H 	H 	0.83438 0.35508 0.44834 0.08500
Cl	Cl	0.69643 0.19471 0.45337 -0.31400
Cl	Cl	0.76567 0.44815 0.46574 -0.33400
C 	C 	0.33263 0.26604 0.52854 -0.00600
C 	C 	0.39000 0.24804 0.53189 0.13600
C 	C 	0.43742 0.28616 0.53056 -0.02400
C 	C 	0.42817 0.34245 0.52709 -0.11200
C 	C 	0.37063 0.36056 0.52748 0.20300
C 	C 	0.32329 0.32234 0.52750 -0.10100
H 	H 	0.48148 0.27191 0.53133 0.08000
H 	H 	0.27917 0.33642 0.52626 0.08200
Cl	Cl	0.40305 0.17794 0.53873 -0.31100
Cl	Cl	0.35712 0.43094 0.52975 -0.37300
C 	C 	0.31548 0.64399 0.03408 -0.10700
C 	C 	0.26242 0.63184 0.00928 0.18600
C 	C 	0.21923 0.67041 0.00852 -0.11000
C 	C 	0.22871 0.72115 0.03228 -0.00400
C 	C 	0.28010 0.73164 0.06008 0.13600
C 	C 	0.32324 0.69303 0.06088 -0.02600
H 	H 	0.17929 0.66187 0.98774 0.09400
H 	H 	0.36362 0.70194 0.08094 0.08800
Cl	Cl	0.25048 0.56930 0.97739 -0.34600
Cl	Cl	0.29168 0.79375 0.09270 -0.31200
C 	C 	0.68222 0.71586 0.02537 -0.00200
C 	C 	0.68940 0.66202 0.00855 0.12900
C 	C 	0.64223 0.62359 0.00984 -0.04400
C 	C 	0.58745 0.63852 0.02721 -0.10700
C 	C 	0.58129 0.69152 0.04692 0.19700
C 	C 	0.62878 0.72968 0.04619 -0.10100
H 	H 	0.64743 0.58279 0.99509 0.06800
H 	H 	0.62331 0.77093 0.05974 0.08500
Cl	Cl	0.75642 0.64298 0.98331 -0.31300
Cl	Cl	0.51342 0.71209 0.06932 -0.31600
C 	C 	0.71555 0.26221 0.97101 0.01000
C 	C 	0.69174 0.28845 0.92945 0.13400
C 	C 	0.64650 0.32420 0.93608 -0.02200
C 	C 	0.62580 0.33538 0.98415 -0.10000
C 	C 	0.65313 0.31266 0.02596 0.19600
C 	C 	0.69699 0.27548 0.01915 -0.11000
H 	H 	0.62695 0.34273 0.90378 0.07600
H 	H 	0.71632 0.25649 0.05132 0.08600
Cl	Cl	0.71902 0.27780 0.86899 -0.31800
Cl	Cl	0.63506 0.33242 0.08705 -0.37800
C 	C 	0.26029 0.26120 0.97504 0.00500
C 	C 	0.26134 0.31395 0.95375 0.14000
C 	C 	0.30849 0.35108 0.96324 -0.03300
C 	C 	0.35466 0.33599 0.99389 -0.08000
C 	C 	0.35390 0.28294 0.01459 0.19000
C 	C 	0.30667 0.24606 0.00537 -0.10600
H 	H 	0.30912 0.39168 0.94690 0.06900
H 	H 	0.30627 0.20533 0.02143 0.08600
Cl	Cl	0.20432 0.33375 0.91464 -0.31100
Cl	Cl	0.41294 0.26134 0.05055 -0.32500
