data_crystal

_cell_length_a 26.78617
_cell_length_b 27.92582
_cell_length_c 40.05017
_cell_angle_alpha 60.81725
_cell_angle_beta  118.88171
_cell_angle_gamma 133.31640

_symmetry_space_group_name_	'P 1'
_symmetry_space_group_name_H-M	'P 1'

loop_
_symmetry_equiv_pos_as_xyz
  x,y,z

loop_
_atom_site_label
_atom_site_type_symbol
_atom_site_fract_x
_atom_site_fract_y
_atom_site_fract_z
_atom_site_charge
C 	C 	0.69804 0.32634 0.98820 0.12200
N 	N 	0.73729 0.38589 0.99777 -0.13500
C 	C 	0.70536 0.40368 0.00254 0.12100
N 	N 	0.63417 0.36225 0.99721 -0.13800
C 	C 	0.59500 0.30228 0.98842 0.12300
N 	N 	0.62696 0.28429 0.98399 -0.14100
C 	C 	0.71738 0.29435 0.50136 0.12000
N 	N 	0.65263 0.25023 0.50943 -0.13800
C 	C 	0.63472 0.26792 0.52573 0.12200
N 	N 	0.68175 0.32905 0.53453 -0.14000
C 	C 	0.74643 0.37307 0.52678 0.12300
N 	N 	0.76407 0.35616 0.50974 -0.14000
C 	C 	0.26711 0.64650 0.20458 0.12400
N 	N 	0.33644 0.68660 0.20464 -0.13900
C 	C 	0.36339 0.66196 0.20185 0.12500
N 	N 	0.32094 0.59714 0.19884 -0.13800
C 	C 	0.25131 0.55731 0.19784 0.12500
N 	N 	0.22425 0.58208 0.20050 -0.13600
C 	C 	0.28146 0.63485 0.71794 0.12400
N 	N 	0.23479 0.57237 0.71039 -0.13700
C 	C 	0.25369 0.55282 0.69603 0.12400
N 	N 	0.31971 0.59501 0.69020 -0.14000
C 	C 	0.36664 0.65698 0.69812 0.12500
N 	N 	0.34727 0.67703 0.71166 -0.13600
Co	Co	0.05095 0.00779 0.07098 1.17300
Co	Co	0.93862 0.94444 0.15222 1.19300
Co	Co	0.00143 0.06828 0.09108 1.19000
Co	Co	0.99352 0.88649 0.13478 1.17700
C 	C 	0.19270 0.05045 0.08288 0.30400
Co	Co	0.08178 0.90160 0.09118 1.17500
Co	Co	0.92952 0.06009 0.14218 1.15400
C 	C 	0.94459 0.76923 0.11271 0.28000
O 	O 	0.93595 0.13223 0.08896 -0.41600
O 	O 	0.95368 0.01930 0.12508 -0.79800
C 	C 	0.91412 0.12076 0.05469 0.30100
O 	O 	0.04922 0.08746 0.05498 -0.47000
O 	O 	0.93931 0.86421 0.16815 -0.47200
C 	C 	0.79704 0.92068 0.13104 0.29200
O 	O 	0.97041 0.96456 0.10127 -0.57700
C 	C 	0.08012 0.16962 0.13838 0.29500
C 	C 	0.01899 0.94866 0.00901 0.30500
C 	C 	0.11815 0.87922 0.17718 0.29400
O 	O 	0.93174 0.09155 0.04922 -0.40000
O 	O 	0.01268 0.89442 0.03649 -0.37800
O 	O 	0.02380 0.99411 0.01581 -0.35200
O 	O 	0.82575 0.98647 0.12041 -0.37000
O 	O 	0.83563 0.89679 0.15243 -0.37800
O 	O 	0.03653 0.12987 0.16176 -0.38800
O 	O 	0.08633 0.14353 0.12161 -0.39100
O 	O 	0.14589 0.91237 0.14674 -0.37900
O 	O 	0.07902 0.89004 0.17947 -0.37600
O 	O 	0.03423 0.93181 0.09770 -0.74200
C 	C 	0.97713 0.98879 0.21933 0.28400
O 	O 	0.92564 0.99532 0.19824 -0.38700
O 	O 	0.00055 0.97744 0.20368 -0.35800
O 	O 	0.15858 0.00056 0.06716 -0.42600
O 	O 	0.15809 0.05699 0.09302 -0.41100
O 	O 	0.01151 0.79950 0.11651 -0.38600
O 	O 	0.92469 0.79841 0.11613 -0.39000
Co	Co	0.08980 0.01311 0.58605 1.17700
Co	Co	0.93408 0.92703 0.64620 1.19500
Co	Co	0.02569 0.06459 0.60222 1.19000
Co	Co	0.99647 0.87500 0.62906 1.17900
C 	C 	0.22399 0.02292 0.62177 0.25600
Co	Co	0.10065 0.89716 0.59518 1.17100
Co	Co	0.92148 0.03911 0.63928 1.15200
C 	C 	0.94629 0.78923 0.57738 0.27000
O 	O 	0.94569 0.12209 0.59091 -0.41200
O 	O 	0.95842 0.00665 0.62494 -0.79000
C 	C 	0.94055 0.12108 0.55688 0.30100
O 	O 	0.09755 0.09511 0.57810 -0.46400
O 	O 	0.93216 0.84665 0.65804 -0.46800
C 	C 	0.79283 0.90773 0.61884 0.29400
O 	O 	0.99144 0.96445 0.60259 -0.57400
C 	C 	0.07805 0.14291 0.65757 0.29600
C 	C 	0.09846 0.99889 0.51929 0.40600
C 	C 	0.08234 0.82262 0.67704 0.30400
O 	O 	0.97491 0.10529 0.55439 -0.39600
O 	O 	0.13601 0.97681 0.54641 -0.40900
O 	O 	0.07858 0.02241 0.52833 -0.42400
O 	O 	0.82597 0.97416 0.60676 -0.37800
O 	O 	0.82549 0.87960 0.63097 -0.37200
O 	O 	0.02133 0.10036 0.67166 -0.38900
O 	O 	0.09431 0.12081 0.64442 -0.39200
O 	O 	0.07159 0.81536 0.64374 -0.39900
O 	O 	0.06626 0.85774 0.67721 -0.38200
O 	O 	0.05496 0.93021 0.60074 -0.74100
C 	C 	0.94392 0.94841 0.71517 0.32300
O 	O 	0.89771 0.96114 0.69026 -0.39900
O 	O 	0.97455 0.94052 0.70254 -0.39500
O 	O 	0.19472 0.95786 0.63031 -0.35900
O 	O 	0.19061 0.04328 0.62052 -0.39300
O 	O 	0.00123 0.84004 0.56148 -0.36600
O 	O 	0.93099 0.79614 0.60122 -0.37600
C 	C 	0.99210 0.95415 0.82726 -0.00700
C 	C 	0.00508 0.00949 0.83101 -0.02400
C 	C 	0.01113 0.01062 0.86741 -0.09400
C 	C 	0.00429 0.95647 0.90025 0.08000
C 	C 	0.99303 0.90191 0.89673 -0.08100
C 	C 	0.98690 0.90073 0.86032 -0.01200
C 	C 	0.00930 0.95682 0.93772 0.03200
C 	C 	0.01310 0.95465 0.96969 -0.07100
C 	C 	0.97641 0.94896 0.78873 0.05500
C 	C 	0.96361 0.94757 0.75573 -0.10500
H 	H 	0.00897 0.05092 0.80558 0.03600
H 	H 	0.02042 0.05323 0.86992 0.05200
H 	H 	0.98825 0.86008 0.92205 0.05100
H 	H 	0.97660 0.85766 0.85768 0.03800
C 	C 	0.07048 0.00856 0.40703 -0.05100
C 	C 	0.05900 0.05369 0.37363 -0.03000
C 	C 	0.04713 0.05157 0.33612 -0.01600
C 	C 	0.04663 0.00426 0.33181 -0.08100
C 	C 	0.06006 0.96039 0.36528 0.01600
C 	C 	0.07199 0.96256 0.40280 0.00200
C 	C 	0.02455 0.99593 0.29308 0.10100
C 	C 	0.00541 0.99190 0.25979 -0.08600
C 	C 	0.07958 0.00840 0.44570 0.08000
C 	C 	0.08754 0.00580 0.47877 -0.17200
H 	H 	0.05823 0.08969 0.37663 0.04100
H 	H 	0.03664 0.08557 0.31040 0.03300
H 	H 	0.05956 0.92356 0.36225 0.03900
H 	H 	0.08131 0.92778 0.42851 0.04400
C 	C 	0.15837 0.36630 0.69839 0.00100
C 	C 	0.15735 0.30836 0.71596 -0.05300
C 	C 	0.16664 0.28907 0.69410 0.01500
C 	C 	0.18258 0.33036 0.65717 0.00400
C 	C 	0.18413 0.38864 0.63976 -0.05800
C 	C 	0.17425 0.40755 0.66151 0.02700
S 	S 	0.17827 0.41362 0.72271 0.00800
C 	C 	0.20325 0.48590 0.68728 -0.01800
C 	C 	0.19954 0.47494 0.65513 -0.04600
S 	S 	0.15980 0.28211 0.63239 0.02400
C 	C 	0.13300 0.20923 0.66734 -0.07200
C 	C 	0.13914 0.22106 0.69998 -0.01800
H 	H 	0.14682 0.27782 0.74492 0.04700
H 	H 	0.19436 0.41907 0.61074 0.05100
H 	H 	0.22406 0.51592 0.63108 0.05200
H 	H 	0.11441 0.18038 0.72404 0.04500
C 	C 	0.54511 0.79240 0.66495 0.00200
C 	C 	0.58483 0.84416 0.63674 -0.05300
C 	C 	0.61711 0.83285 0.62511 0.01900
C 	C 	0.60408 0.76898 0.63892 0.00000
C 	C 	0.56320 0.71685 0.66665 -0.05600
C 	C 	0.53194 0.72868 0.67864 0.02600
S 	S 	0.48239 0.78334 0.67195 0.01600
C 	C 	0.43954 0.70048 0.69447 -0.02000
C 	C 	0.47217 0.67652 0.69519 -0.04500
S 	S 	0.67083 0.77995 0.63541 0.03400
C 	C 	0.71606 0.86348 0.61460 -0.07000
C 	C 	0.67985 0.88598 0.61117 -0.02000
H 	H 	0.59326 0.89266 0.62570 0.05200
H 	H 	0.55525 0.66852 0.67806 0.05000
H 	H 	0.44903 0.62310 0.70273 0.05100
H 	H 	0.70332 0.93916 0.60509 0.04600
C 	C 	0.25415 0.72375 0.75323 0.00200
C 	C 	0.25470 0.77761 0.74777 -0.05300
C 	C 	0.19131 0.76318 0.74486 0.02000
C 	C 	0.12887 0.69676 0.74568 0.00100
C 	C 	0.12654 0.64561 0.74475 -0.05500
C 	C 	0.19045 0.65924 0.74963 0.02600
S 	S 	0.31344 0.73257 0.74269 0.01600
C 	C 	0.26291 0.65509 0.73561 -0.01900
C 	C 	0.19510 0.62038 0.73944 -0.04600
S 	S 	0.06193 0.70253 0.72407 0.03700
C 	C 	0.10711 0.78685 0.71392 -0.07000
C 	C 	0.17912 0.81356 0.72747 -0.02000
H 	H 	0.30157 0.82946 0.74341 0.05300
H 	H 	0.07651 0.59858 0.73806 0.05200
H 	H 	0.14964 0.57311 0.73095 0.05300
H 	H 	0.22018 0.86702 0.71837 0.05100
C 	C 	0.14739 0.40159 0.15781 0.00100
C 	C 	0.12978 0.37674 0.12786 -0.05400
C 	C 	0.15397 0.33967 0.13629 0.01900
C 	C 	0.20002 0.33375 0.17257 0.00100
C 	C 	0.21854 0.35975 0.20225 -0.05700
C 	C 	0.19330 0.39573 0.19398 0.02500
S 	S 	0.15025 0.46715 0.15077 0.01300
C 	C 	0.20543 0.48786 0.19360 -0.01900
C 	C 	0.22612 0.44421 0.21424 -0.04600
S 	S 	0.19194 0.26462 0.18091 0.02800
C 	C 	0.13387 0.24128 0.13910 -0.07100
C 	C 	0.11747 0.28824 0.11728 -0.02500
H 	H 	0.09555 0.38301 0.09966 0.05000
H 	H 	0.25228 0.35309 0.23059 0.04800
H 	H 	0.27069 0.45381 0.23939 0.05000
H 	H 	0.07193 0.27846 0.09274 0.04400
C 	C 	0.60282 0.83080 0.12790 0.00000
C 	C 	0.55918 0.83319 0.13591 -0.05500
C 	C 	0.53020 0.78617 0.16879 0.02600
C 	C 	0.54733 0.74031 0.19373 0.00200
C 	C 	0.59020 0.73722 0.18562 -0.05300
C 	C 	0.62106 0.78562 0.15343 0.01800
S 	S 	0.66799 0.89785 0.10547 0.03700
C 	C 	0.71982 0.87231 0.12533 -0.07100
C 	C 	0.68659 0.80871 0.15180 -0.02000
S 	S 	0.48537 0.67591 0.21889 0.01000
C 	C 	0.43804 0.70564 0.20156 -0.01900
C 	C 	0.46867 0.76693 0.17322 -0.04500
H 	H 	0.54766 0.86996 0.11698 0.05200
H 	H 	0.60214 0.70082 0.20484 0.04900
H 	H 	0.71370 0.78595 0.17365 0.04900
H 	H 	0.44202 0.79062 0.15266 0.05200
C 	C 	0.16752 0.67725 0.23008 0.00200
C 	C 	0.11685 0.68484 0.22382 -0.05400
C 	C 	0.14028 0.74306 0.23061 0.02100
C 	C 	0.21292 0.79333 0.24158 -0.00100
C 	C 	0.26323 0.79003 0.24214 -0.05400
C 	C 	0.23987 0.73069 0.23699 0.02600
S 	S 	0.15483 0.62904 0.20957 0.01400
C 	C 	0.23891 0.67287 0.20917 -0.01900
C 	C 	0.28031 0.72765 0.22580 -0.04600
S 	S 	0.22352 0.86547 0.22893 0.04400
C 	C 	0.13885 0.83698 0.21097 -0.07100
C 	C 	0.09871 0.76736 0.21396 -0.02400
H 	H 	0.06168 0.64924 0.21147 0.05100
H 	H 	0.31786 0.83398 0.24358 0.05200
H 	H 	0.33672 0.76511 0.22845 0.05300
H 	H 	0.04400 0.73881 0.19825 0.04800
C 	C 	0.75220 0.20666 0.47126 -0.00000
C 	C 	0.75645 0.15388 0.48117 -0.05700
C 	C 	0.82220 0.17069 0.48645 0.01400
C 	C 	0.88230 0.23854 0.48367 0.00100
C 	C 	0.87967 0.28948 0.47976 -0.06000
C 	C 	0.81341 0.27331 0.47248 0.02400
S 	S 	0.69012 0.19691 0.47944 -0.00000
C 	C 	0.73588 0.27603 0.48244 -0.01800
C 	C 	0.80434 0.31243 0.47889 -0.04900
S 	S 	0.95260 0.23781 0.50804 0.01800
C 	C 	0.91135 0.15391 0.52090 -0.07600
C 	C 	0.83855 0.12312 0.50740 -0.02400
H 	H 	0.71133 0.10134 0.48710 0.04200
H 	H 	0.92773 0.33859 0.48474 0.04600
H 	H 	0.84796 0.36115 0.48603 0.04900
H 	H 	0.79953 0.06950 0.51790 0.03400
C 	C 	0.87207 0.61009 0.58173 -0.00100
C 	C 	0.83288 0.53955 0.58982 -0.05800
C 	C 	0.81452 0.51247 0.56078 0.02400
C 	C 	0.82966 0.55422 0.52393 0.00200
C 	C 	0.86920 0.62481 0.51581 -0.05600
C 	C 	0.88773 0.65210 0.54487 0.01600
S 	S 	0.87624 0.65103 0.60321 0.02000
C 	C 	0.90016 0.72360 0.56796 -0.06600
C 	C 	0.90428 0.71620 0.53721 -0.02700
S 	S 	0.82154 0.51193 0.50138 0.00300
C 	C 	0.79653 0.43895 0.53649 -0.02100
C 	C 	0.79563 0.44760 0.56795 -0.04700
H 	H 	0.81922 0.50732 0.61799 0.04700
H 	H 	0.88215 0.65686 0.48747 0.04600
H 	H 	0.92045 0.75614 0.51091 0.04400
H 	H 	0.77812 0.40737 0.59393 0.04700
C 	C 	0.49195 0.15198 0.58388 0.00100
C 	C 	0.43918 0.09490 0.60428 -0.05700
C 	C 	0.38387 0.09536 0.59904 0.01300
C 	C 	0.37911 0.14844 0.57207 0.00300
C 	C 	0.43167 0.20563 0.55170 -0.05900
C 	C 	0.48701 0.20527 0.55670 0.02500
S 	S 	0.54479 0.15303 0.57261 -0.00400
C 	C 	0.56510 0.22112 0.53423 -0.01900
C 	C 	0.52850 0.24449 0.52902 -0.04700
S 	S 	0.32063 0.14354 0.58036 0.01700
C 	C 	0.29684 0.07278 0.61725 -0.06800
C 	C 	0.33773 0.05250 0.62449 -0.02900
H 	H 	0.44195 0.05273 0.62406 0.04100
H 	H 	0.42779 0.24694 0.53125 0.05000
H 	H 	0.53399 0.28969 0.50715 0.04900
H 	H 	0.33119 0.00642 0.64558 0.03500
C 	C 	0.82106 0.28566 0.00156 -0.00500
C 	C 	0.87626 0.29166 0.00010 -0.05500
C 	C 	0.86103 0.23470 0.99681 0.01400
C 	C 	0.79086 0.17639 0.99111 0.00500
C 	C 	0.73547 0.17164 0.99150 -0.06300
C 	C 	0.75144 0.22810 0.99570 0.02600
S 	S 	0.82047 0.34940 0.99387 0.00600
C 	C 	0.73254 0.30626 0.98370 -0.01900
C 	C 	0.70115 0.23899 0.98616 -0.05000
S 	S 	0.79355 0.11077 0.00759 0.00500
C 	C 	0.88114 0.15216 0.02067 -0.07700
C 	C 	0.91159 0.22115 0.01287 -0.02000
H 	H 	0.92987 0.33708 0.00415 0.04300
H 	H 	0.68206 0.12564 0.98873 0.04400
H 	H 	0.64480 0.19962 0.98166 0.04800
H 	H 	0.96663 0.25726 0.02510 0.03500
C 	C 	0.81174 0.51431 0.07570 0.00000
C 	C 	0.86696 0.55904 0.10003 -0.05600
C 	C 	0.85680 0.59773 0.10536 0.01400
C 	C 	0.79504 0.59461 0.08445 0.00100
C 	C 	0.74575 0.55840 0.05528 -0.05900
C 	C 	0.75379 0.51635 0.05203 0.02600
S 	S 	0.81873 0.47930 0.05600 0.00300
C 	C 	0.74798 0.46308 0.01803 -0.01800
C 	C 	0.71765 0.48743 0.01970 -0.04900
S 	S 	0.81110 0.66378 0.08428 0.02600
C 	C 	0.89344 0.69728 0.11223 -0.07400
C 	C 	0.91242 0.65573 0.12091 -0.02400
H 	H 	0.91674 0.56543 0.11306 0.04400
H 	H 	0.70475 0.56504 0.03480 0.04900
H 	H 	0.66978 0.48190 0.99936 0.05200
H 	H 	0.96612 0.67089 0.13340 0.03600
C 	C 	0.37952 0.14460 0.07439 0.00400
C 	C 	0.41931 0.13887 0.06529 -0.06100
C 	C 	0.43775 0.17688 0.02888 0.02400
C 	C 	0.41312 0.21629 0.00160 -0.00100
C 	C 	0.37351 0.22222 0.01067 -0.05500
C 	C 	0.35387 0.18315 0.04678 0.01500
S 	S 	0.32422 0.08314 0.10368 0.00800
C 	C 	0.26795 0.10328 0.08432 -0.07600
C 	C 	0.29158 0.16037 0.05259 -0.01700
S 	S 	0.46718 0.27634 0.97144 0.00800
C 	C 	0.52051 0.25295 0.98970 -0.02000
C 	C 	0.49767 0.19692 0.02197 -0.05000
H 	H 	0.43668 0.10703 0.08623 0.04300
H 	H 	0.35598 0.25390 0.98965 0.04900
H 	H 	0.25839 0.17637 0.03039 0.04000
H 	H 	0.53003 0.17963 0.04352 0.04500
