data_crystal

_cell_length_a 25.01821
_cell_length_b 25.92967
_cell_length_c 27.91619
_cell_angle_alpha 61.15963
_cell_angle_beta  118.59705
_cell_angle_gamma 133.14145

_symmetry_space_group_name_	'P 1'
_symmetry_space_group_name_H-M	'P 1'

loop_
_symmetry_equiv_pos_as_xyz
  x,y,z

loop_
_atom_site_label
_atom_site_type_symbol
_atom_site_fract_x
_atom_site_fract_y
_atom_site_fract_z
_atom_site_charge
C 	C 	0.73949 0.30899 0.04404 0.11900
N 	N 	0.66980 0.25988 0.05522 -0.13600
C 	C 	0.64714 0.27817 0.07622 0.13400
N 	N 	0.69356 0.34484 0.08605 -0.13900
C 	C 	0.76138 0.39510 0.07284 0.12200
N 	N 	0.78469 0.37748 0.05162 -0.13800
C 	C 	0.74011 0.30818 0.54999 0.11800
N 	N 	0.78189 0.37676 0.55611 -0.13700
C 	C 	0.75712 0.39134 0.57883 0.12000
N 	N 	0.69155 0.33779 0.59545 -0.13800
C 	C 	0.64826 0.27069 0.58715 0.12100
N 	N 	0.67223 0.25576 0.56419 -0.13700
C 	C 	0.28625 0.65447 0.27331 0.11400
N 	N 	0.35728 0.69405 0.26735 -0.14000
C 	C 	0.37898 0.66156 0.26204 0.11900
N 	N 	0.33023 0.58991 0.26293 -0.13900
C 	C 	0.25906 0.55053 0.26716 0.11900
N 	N 	0.23654 0.58270 0.27200 -0.13900
C 	C 	0.28473 0.65532 0.77284 0.11500
N 	N 	0.23808 0.58480 0.76881 -0.14000
C 	C 	0.26563 0.55725 0.76402 0.13100
N 	N 	0.33870 0.59962 0.76311 -0.13900
C 	C 	0.38431 0.67021 0.76439 0.12000
N 	N 	0.35757 0.69835 0.76922 -0.14100
Co	Co	0.09629 0.98026 0.16723 1.16700
Co	Co	0.89524 0.97144 0.11783 1.16600
Co	Co	0.03688 0.03580 0.20469 1.18500
Co	Co	0.96376 0.93605 0.07060 1.18200
C 	C 	0.09885 0.84865 0.20705 0.31300
Co	Co	0.08014 0.90992 0.08513 1.16600
Co	Co	0.90362 0.03561 0.19835 1.18200
C 	C 	0.03276 0.98526 0.97438 0.25400
O 	O 	0.98035 0.14231 0.16352 -0.37100
O 	O 	0.94905 0.01320 0.17124 -0.73100
C 	C 	0.05322 0.17437 0.18590 0.28600
O 	O 	0.12206 0.03008 0.22159 -0.44300
O 	O 	0.87430 0.93263 0.05791 -0.47400
C 	C 	0.83696 0.05761 0.07720 0.32500
O 	O 	0.00879 0.00177 0.12961 -0.56800
C 	C 	0.99947 0.00691 0.30729 0.41500
C 	C 	0.22442 0.04254 0.12448 0.34600
C 	C 	0.91659 0.79781 0.06621 0.32700
O 	O 	0.08765 0.14620 0.19516 -0.37000
O 	O 	0.19113 0.97491 0.12684 -0.44000
O 	O 	0.19563 0.05883 0.13943 -0.37800
O 	O 	0.81961 0.02196 0.12572 -0.39800
O 	O 	0.87437 0.04921 0.06431 -0.36700
O 	O 	0.98176 0.05203 0.27444 -0.40600
O 	O 	0.01437 0.98285 0.28583 -0.44800
O 	O 	0.97269 0.84150 0.04225 -0.40500
O 	O 	0.90732 0.82382 0.08990 -0.39400
O 	O 	0.04756 0.94994 0.10741 -0.76900
C 	C 	0.78612 0.88133 0.19528 0.30800
O 	O 	0.83565 0.92505 0.22974 -0.40900
O 	O 	0.80643 0.88065 0.15915 -0.39000
O 	O 	0.05727 0.83123 0.15871 -0.40300
O 	O 	0.10094 0.89145 0.22251 -0.39700
O 	O 	0.09299 0.99013 0.01175 -0.39400
O 	O 	0.98277 0.97771 0.98861 -0.35900
Co	Co	0.09261 0.97688 0.66688 1.16800
Co	Co	0.89611 0.97481 0.61756 1.16700
Co	Co	0.03838 0.03740 0.70419 1.18400
Co	Co	0.96027 0.93539 0.56994 1.18200
C 	C 	0.08722 0.84032 0.70735 0.31400
Co	Co	0.07095 0.90189 0.58558 1.16600
Co	Co	0.90840 0.04076 0.69886 1.18200
C 	C 	0.02878 0.98112 0.47463 0.24700
O 	O 	0.98504 0.14686 0.66319 -0.36900
O 	O 	0.95125 0.01645 0.67105 -0.73200
C 	C 	0.05827 0.17886 0.68398 0.26900
O 	O 	0.12165 0.02917 0.72075 -0.44400
O 	O 	0.87322 0.93573 0.55694 -0.47400
C 	C 	0.84019 0.06267 0.57812 0.32500
O 	O 	0.00822 0.00242 0.62894 -0.56900
C 	C 	0.00382 0.01111 0.80713 0.34600
C 	C 	0.21926 0.03129 0.62685 0.36400
C 	C 	0.90680 0.79463 0.56527 0.32700
O 	O 	0.09105 0.14837 0.69453 -0.37000
O 	O 	0.18224 0.96299 0.62855 -0.44000
O 	O 	0.19225 0.05138 0.63962 -0.37800
O 	O 	0.82353 0.02725 0.62687 -0.39900
O 	O 	0.87676 0.05379 0.56471 -0.36700
O 	O 	0.98776 0.05743 0.77433 -0.38600
O 	O 	0.01662 0.98536 0.78553 -0.42600
O 	O 	0.96285 0.83651 0.54166 -0.40500
O 	O 	0.89999 0.82253 0.58908 -0.39400
O 	O 	0.04255 0.94622 0.60720 -0.77000
C 	C 	0.78911 0.88649 0.69650 0.30800
O 	O 	0.84009 0.93044 0.73074 -0.40700
O 	O 	0.80732 0.88521 0.65924 -0.39000
O 	O 	0.04513 0.82332 0.65889 -0.40200
O 	O 	0.09273 0.88569 0.72247 -0.39600
O 	O 	0.08738 0.98300 0.51255 -0.38800
O 	O 	0.97996 0.97589 0.48837 -0.35700
C 	C 	0.02182 0.98957 0.91632 -0.02300
C 	C 	0.01462 0.99544 0.86770 -0.09800
C 	C 	0.01816 0.98583 0.41653 -0.00400
C 	C 	0.01086 0.99169 0.36789 -0.13100
C 	C 	0.15269 0.36664 0.72723 0.03200
C 	C 	0.11393 0.35955 0.67182 -0.06400
C 	C 	0.09033 0.30213 0.65573 0.01100
C 	C 	0.21672 0.48671 0.75290 -0.03600
C 	C 	0.14651 0.25983 0.74990 0.01200
C 	C 	0.17040 0.31756 0.76590 -0.06100
C 	C 	0.18436 0.43045 0.74188 -0.00100
C 	C 	0.10435 0.25051 0.69515 -0.07600
H 	H 	0.10204 0.39850 0.64115 0.04700
H 	H 	0.05792 0.29569 0.61330 0.03300
H 	H 	0.15727 0.22020 0.78088 0.04100
H 	H 	0.20244 0.32394 0.80839 0.05300
C 	C 	0.58333 0.77104 0.72225 -0.00000
C 	C 	0.53592 0.79293 0.68645 -0.04000
C 	C 	0.47457 0.76608 0.70298 -0.02200
C 	C 	0.71248 0.83910 0.70054 -0.10700
C 	C 	0.51000 0.69825 0.79218 -0.02100
C 	C 	0.57099 0.72477 0.77556 -0.03800
C 	C 	0.65167 0.80569 0.70853 0.04500
C 	C 	0.46004 0.71688 0.75531 -0.02000
H 	H 	0.54653 0.83068 0.64587 0.04000
H 	H 	0.43619 0.78056 0.67397 0.03800
H 	H 	0.49932 0.66022 0.83266 0.04300
H 	H 	0.60884 0.70953 0.80427 0.04600
C 	C 	0.19765 0.74790 0.78053 -0.00300
C 	C 	0.27336 0.79088 0.77949 -0.03900
C 	C 	0.30242 0.76035 0.77890 -0.02600
C 	C 	0.12981 0.81070 0.74258 -0.11200
C 	C 	0.18128 0.64211 0.78415 -0.02600
C 	C 	0.15251 0.67292 0.78481 -0.03800
C 	C 	0.16224 0.78275 0.76344 0.04300
C 	C 	0.25584 0.68610 0.77922 -0.01600
H 	H 	0.30882 0.84882 0.77619 0.03900
H 	H 	0.36050 0.79504 0.77651 0.04200
H 	H 	0.14489 0.58452 0.78601 0.04400
H 	H 	0.09391 0.63909 0.78569 0.04100
C 	C 	0.14959 0.35390 0.23198 0.00400
C 	C 	0.12869 0.40075 0.19416 -0.04000
C 	C 	0.15615 0.46093 0.20896 -0.02100
C 	C 	0.09508 0.24000 0.20248 -0.09300
C 	C 	0.22027 0.42417 0.30104 -0.02000
C 	C 	0.19293 0.36408 0.28621 -0.03900
C 	C 	0.12244 0.29275 0.21617 0.04000
C 	C 	0.20551 0.47519 0.26138 -0.01900
H 	H 	0.09277 0.39168 0.15282 0.04100
H 	H 	0.14371 0.49944 0.17811 0.03900
H 	H 	0.25762 0.43406 0.34190 0.04200
H 	H 	0.20706 0.32661 0.31645 0.04800
C 	C 	0.57731 0.76106 0.21800 -0.00000
C 	C 	0.53485 0.78896 0.18648 -0.04000
C 	C 	0.47319 0.76061 0.20354 -0.02300
C 	C 	0.70899 0.83258 0.19854 -0.10700
C 	C 	0.49760 0.67783 0.28453 -0.02100
C 	C 	0.55888 0.70594 0.26733 -0.03800
C 	C 	0.64724 0.79770 0.20559 0.04500
C 	C 	0.45354 0.70405 0.25220 -0.01900
H 	H 	0.54993 0.83298 0.14906 0.03900
H 	H 	0.43916 0.78074 0.17786 0.03800
H 	H 	0.48280 0.63397 0.32206 0.04300
H 	H 	0.59262 0.68544 0.29280 0.04600
C 	C 	0.21139 0.75837 0.28093 -0.00300
C 	C 	0.28195 0.80027 0.26986 -0.04000
C 	C 	0.30738 0.76654 0.26898 -0.02600
C 	C 	0.14214 0.81983 0.24279 -0.11200
C 	C 	0.19420 0.64804 0.29458 -0.02500
C 	C 	0.16885 0.68208 0.29516 -0.03800
C 	C 	0.17524 0.79251 0.26385 0.04200
C 	C 	0.26252 0.69009 0.27951 -0.01600
H 	H 	0.31534 0.85921 0.25877 0.03700
H 	H 	0.36077 0.80009 0.25827 0.04100
H 	H 	0.15978 0.58914 0.30455 0.04400
H 	H 	0.11428 0.64905 0.30388 0.04100
C 	C 	0.81581 0.22384 0.51852 0.00200
C 	C 	0.74390 0.20785 0.49012 -0.03500
C 	C 	0.72098 0.24017 0.49657 -0.02100
C 	C 	0.83582 0.12349 0.54778 -0.10000
C 	C 	0.84470 0.31126 0.55451 -0.02200
C 	C 	0.86750 0.27878 0.54804 -0.03600
C 	C 	0.82837 0.17136 0.53086 0.05200
C 	C 	0.77002 0.28918 0.53129 -0.01400
H 	H 	0.70377 0.16632 0.46652 0.04900
H 	H 	0.66386 0.22421 0.47698 0.04600
H 	H 	0.88365 0.34991 0.58060 0.04700
H 	H 	0.92353 0.29227 0.56969 0.04700
C 	C 	0.81751 0.58814 0.57945 0.00000
C 	C 	0.79546 0.57356 0.52830 -0.03700
C 	C 	0.78488 0.51336 0.52784 -0.02100
C 	C 	0.86524 0.71751 0.57533 -0.10600
C 	C 	0.82044 0.48300 0.62968 -0.02000
C 	C 	0.83160 0.54358 0.63010 -0.03600
C 	C 	0.83981 0.65633 0.57914 0.05200
C 	C 	0.79484 0.46631 0.57856 -0.01600
H 	H 	0.78700 0.60918 0.48881 0.04600
H 	H 	0.76467 0.50092 0.48813 0.04400
H 	H 	0.82806 0.44695 0.66918 0.04400
H 	H 	0.85138 0.55589 0.66978 0.04700
C 	C 	0.43124 0.15295 0.60906 -0.00100
C 	C 	0.49299 0.17046 0.65534 -0.03400
C 	C 	0.56327 0.20237 0.64968 -0.01900
C 	C 	0.29533 0.08084 0.62114 -0.11100
C 	C 	0.50949 0.19602 0.55208 -0.02000
C 	C 	0.43917 0.16410 0.55779 -0.03400
C 	C 	0.35800 0.11610 0.61576 0.06200
C 	C 	0.57242 0.21749 0.59751 -0.01500
H 	H 	0.48675 0.15992 0.69559 0.04800
H 	H 	0.61144 0.21849 0.68511 0.04500
H 	H 	0.51585 0.20757 0.51157 0.04500
H 	H 	0.39107 0.14866 0.52224 0.04900
C 	C 	0.81142 0.21831 0.01583 0.00400
C 	C 	0.73904 0.20145 0.98846 -0.03700
C 	C 	0.71707 0.23517 0.99411 -0.02200
C 	C 	0.83193 0.11799 0.04638 -0.09900
C 	C 	0.84231 0.30876 0.04943 -0.02100
C 	C 	0.86416 0.27497 0.04368 -0.03700
C 	C 	0.82409 0.16569 0.02889 0.05300
C 	C 	0.76747 0.28635 0.02710 -0.01200
H 	H 	0.69805 0.15851 0.96617 0.04900
H 	H 	0.65985 0.21901 0.97502 0.04700
H 	H 	0.88232 0.34905 0.07415 0.04700
H 	H 	0.92050 0.28904 0.06456 0.04900
C 	C 	0.82993 0.59325 0.07718 0.00000
C 	C 	0.84055 0.54625 0.12745 -0.03600
C 	C 	0.82778 0.48524 0.12611 -0.02000
C 	C 	0.87619 0.72109 0.07528 -0.10600
C 	C 	0.79858 0.52058 0.02428 -0.01900
C 	C 	0.81082 0.58125 0.02562 -0.03600
C 	C 	0.85159 0.66056 0.07814 0.05300
C 	C 	0.80370 0.47045 0.07444 -0.01700
H 	H 	0.85835 0.55668 0.16754 0.04800
H 	H 	0.83218 0.44709 0.16520 0.04400
H 	H 	0.78011 0.50993 0.98413 0.04300
H 	H 	0.80543 0.61893 0.98653 0.04600
C 	C 	0.43840 0.16131 0.09815 0.04100
C 	C 	0.43094 0.14034 0.15243 -0.06600
C 	C 	0.36219 0.10877 0.16069 0.03200
C 	C 	0.57173 0.23054 0.08290 -0.03100
C 	C 	0.30949 0.12286 0.06016 0.02600
C 	C 	0.37823 0.15444 0.05190 -0.06500
C 	C 	0.51009 0.19672 0.08952 0.00200
C 	C 	0.30037 0.09753 0.11476 -0.09800
H 	H 	0.47803 0.14758 0.18827 0.05700
H 	H 	0.35572 0.08920 0.20306 0.03700
H 	H 	0.26205 0.11435 0.02438 0.04000
H 	H 	0.38432 0.17264 0.00964 0.05600
