data_crystal

_cell_length_a 26.03772
_cell_length_b 26.76319
_cell_length_c 37.21833
_cell_angle_alpha 60.86664
_cell_angle_beta  118.83690
_cell_angle_gamma 133.34902

_symmetry_space_group_name_	'P 1'
_symmetry_space_group_name_H-M	'P 1'

loop_
_symmetry_equiv_pos_as_xyz
  x,y,z

loop_
_atom_site_label
_atom_site_type_symbol
_atom_site_fract_x
_atom_site_fract_y
_atom_site_fract_z
_atom_site_charge
Co	Co	0.06603 0.01053 0.07649 1.18700
Co	Co	0.10635 0.90641 0.09913 1.17200
O 	O 	0.05546 0.08918 0.05457 -0.45800
C 	C 	0.06257 0.17750 0.12352 0.34200
C 	C 	0.12624 0.87477 0.19148 0.29900
O 	O 	0.07473 0.13769 0.12304 -0.39400
O 	O 	0.08838 0.89301 0.18861 -0.38100
O 	O 	0.04607 0.93002 0.10207 -0.75000
C 	C 	0.99419 0.00634 0.22287 0.23200
Co	Co	0.06623 0.01914 0.57303 1.18600
Co	Co	0.10866 0.91813 0.59326 1.17200
O 	O 	0.05483 0.09668 0.55270 -0.45900
C 	C 	0.07022 0.18410 0.62658 0.30300
C 	C 	0.13614 0.88901 0.68656 0.29600
O 	O 	0.00373 0.16346 0.61774 -0.38000
O 	O 	0.08094 0.14448 0.62433 -0.38900
O 	O 	0.09360 0.90036 0.68576 -0.38400
O 	O 	0.04892 0.93970 0.59872 -0.75700
C 	C 	0.00375 0.01089 0.72581 0.28200
C 	C 	0.99582 0.99529 0.88766 -0.04100
C 	C 	0.02598 0.04301 0.85238 -0.01500
C 	C 	0.03790 0.02067 0.83190 -0.02900
C 	C 	0.04209 0.05072 0.78902 -0.00200
S 	S 	0.00930 0.01946 0.92656 0.06400
H 	H 	0.04374 0.09779 0.77025 0.03900
C 	C 	0.98916 0.99941 0.38326 -0.04500
C 	C 	0.01885 0.04534 0.34770 -0.01100
C 	C 	0.02879 0.02046 0.32778 -0.03300
C 	C 	0.03291 0.04902 0.28494 -0.01800
S 	S 	0.00540 0.02618 0.42180 0.06600
H 	H 	0.03255 0.09822 0.33550 0.03800
H 	H 	0.03577 0.09659 0.26558 0.04800
S 	S 	0.07443 0.73618 0.23225 0.03400
H 	H 	0.06925 0.61134 0.25501 0.05300
O 	O 	0.06242 0.00778 0.02035 -0.40100
O 	O 	0.99052 0.05963 0.19645 -0.39800
O 	O 	0.99855 0.97156 0.20977 -0.37000
O 	O 	0.05822 0.01551 0.51577 -0.40000
O 	O 	0.00123 0.06507 0.70021 -0.38200
O 	O 	0.00615 0.97585 0.71159 -0.36100
C 	C 	0.01917 0.00267 0.26832 -0.02100
H 	H 	0.09120 0.64786 0.76917 0.05300
H 	H 	0.06851 0.74591 0.72975 0.04600
C 	C 	0.02944 0.00613 0.77145 -0.08900
H 	H 	0.03829 0.09525 0.84070 0.03800
S 	S 	0.13027 0.31835 0.11011 0.04000
O 	O 	0.16110 0.90611 0.16223 -0.38100
O 	O 	0.16777 0.92308 0.65517 -0.38100
S 	S 	0.14708 0.32685 0.61323 0.03200
C 	C 	0.13136 0.24808 0.64219 -0.07400
C 	C 	0.12266 0.24290 0.13779 -0.08500
O 	O 	0.18923 0.01292 0.08068 -0.40400
O 	O 	0.17322 0.05996 0.10827 -0.40400
O 	O 	0.18851 0.02507 0.57269 -0.40400
O 	O 	0.17449 0.07103 0.60240 -0.40500
C 	C 	0.14997 0.24676 0.68478 -0.02100
H 	H 	0.13310 0.19817 0.70957 0.04800
C 	C 	0.14833 0.69040 0.77704 -0.05600
C 	C 	0.16497 0.85587 0.72707 -0.06900
C 	C 	0.12594 0.78201 0.74258 -0.02300
C 	C 	0.14764 0.24246 0.18083 -0.01400
H 	H 	0.13639 0.19478 0.20587 0.04900
C 	C 	0.12025 0.65319 0.26981 -0.05800
C 	C 	0.13399 0.82315 0.22913 -0.07600
C 	C 	0.02849 0.95789 0.50572 0.34500
O 	O 	0.03575 0.80969 0.61598 -0.37500
C 	C 	0.01254 0.95255 0.34447 0.10100
C 	C 	0.17376 0.31324 0.72615 -0.05600
H 	H 	0.17294 0.27481 0.75602 0.04700
C 	C 	0.17554 0.30618 0.22593 -0.05500
H 	H 	0.18166 0.27006 0.25542 0.04800
C 	C 	0.17590 0.31025 0.69031 0.01700
C 	C 	0.16697 0.35335 0.22457 0.00300
C 	C 	0.17157 0.30410 0.18765 0.01600
C 	C 	0.12880 0.71244 0.26723 0.00500
H 	H 	0.15129 0.43609 0.11923 0.05100
H 	H 	0.14082 0.56691 0.26572 0.04900
H 	H 	0.17937 0.50571 0.27340 0.05500
H 	H 	0.18509 0.53364 0.75781 0.05800
C 	C 	0.21656 0.05984 0.09967 0.30200
C 	C 	0.21682 0.07190 0.59208 0.30300
C 	C 	0.16827 0.36462 0.72158 0.00300
C 	C 	0.17913 0.36174 0.65216 0.00100
C 	C 	0.17460 0.41371 0.64783 -0.05800
C 	C 	0.17150 0.41603 0.68352 0.02800
S 	S 	0.19589 0.39745 0.76049 -0.00500
C 	C 	0.20141 0.67924 0.79249 0.00600
C 	C 	0.17152 0.75947 0.76896 0.02200
S 	S 	0.18741 0.61132 0.78834 -0.00500
C 	C 	0.16635 0.35306 0.14997 -0.00000
C 	C 	0.15801 0.40033 0.14874 -0.05700
C 	C 	0.16042 0.40135 0.18683 0.02800
S 	S 	0.19987 0.38670 0.26455 -0.00700
O 	O 	0.04425 0.91217 0.53194 -0.38100
C 	C 	0.02302 0.95339 0.84779 0.06100
C 	C 	0.23372 0.54292 0.26822 -0.07600
C 	C 	0.20876 0.47504 0.73119 -0.00500
C 	C 	0.19401 0.47813 0.68879 -0.05800
H 	H 	0.17492 0.45189 0.61791 0.05100
C 	C 	0.20247 0.45961 0.23638 -0.00500
C 	C 	0.17992 0.46098 0.19337 -0.05800
H 	H 	0.18912 0.50812 0.16831 0.05000
C 	C 	0.18120 0.65239 0.28904 0.02900
C 	C 	0.19824 0.77434 0.27658 0.01700
C 	C 	0.20145 0.83689 0.25467 -0.01300
C 	C 	0.18605 0.60726 0.28313 -0.05800
H 	H 	0.28378 0.20358 0.53539 0.04300
H 	H 	0.28179 0.19011 0.04180 0.04300
O 	O 	0.03011 0.79812 0.11969 -0.37100
C 	C 	0.03220 0.95009 0.01020 0.34500
O 	O 	0.04651 0.90340 0.03672 -0.38000
C 	C 	0.29324 0.11985 0.10328 -0.07300
C 	C 	0.25542 0.52489 0.25124 0.03900
C 	C 	0.26348 0.53883 0.74768 0.04000
C 	C 	0.24223 0.56230 0.76071 -0.07500
H 	H 	0.21072 0.52704 0.66426 0.05000
C 	C 	0.24593 0.81585 0.77404 -0.00100
C 	C 	0.27310 0.64984 0.78999 -0.00400
S 	S 	0.25340 0.89036 0.74487 0.03900
C 	C 	0.25799 0.63019 0.29396 -0.00300
H 	H 	0.25206 0.88966 0.25268 0.04800
C 	C 	0.29372 0.13122 0.59604 -0.07400
C 	C 	0.31930 0.19123 0.56240 -0.01700
C 	C 	0.31793 0.17876 0.06894 -0.01700
C 	C 	0.28219 0.60896 0.27834 0.03800
C 	C 	0.29489 0.62289 0.77718 0.03900
C 	C 	0.29765 0.80601 0.78311 -0.05600
C 	C 	0.27495 0.73658 0.79346 0.02700
C 	C 	0.24904 0.71087 0.30380 0.00500
C 	C 	0.25963 0.77446 0.29437 -0.05400
C 	C 	0.31532 0.72036 0.79182 -0.05800
S 	S 	0.35859 0.11855 0.62335 0.01400
S 	S 	0.35878 0.10809 0.13078 0.01400
C 	C 	0.32667 0.57094 0.24640 -0.07700
S 	S 	0.31244 0.70627 0.30847 -0.00800
C 	C 	0.33700 0.57642 0.75017 -0.07600
H 	H 	0.31387 0.82318 0.29830 0.05100
H 	H 	0.35257 0.85102 0.77964 0.05000
C 	C 	0.39078 0.22331 0.56221 0.01600
H 	H 	0.34275 0.55736 0.23251 0.05400
C 	C 	0.38909 0.21057 0.06832 0.01600
C 	C 	0.35415 0.65427 0.27409 -0.07500
C 	C 	0.36890 0.65756 0.78190 -0.07700
H 	H 	0.35283 0.55988 0.73832 0.05600
H 	H 	0.36911 0.76085 0.78572 0.04600
H 	H 	0.39158 0.28905 0.49797 0.04900
H 	H 	0.38794 0.27353 0.00337 0.04900
C 	C 	0.37651 0.63514 0.25847 0.03900
C 	C 	0.38978 0.63609 0.76701 0.03900
C 	C 	0.41867 0.26755 0.52581 -0.05500
C 	C 	0.42108 0.18851 0.59594 0.00300
C 	C 	0.41572 0.25303 0.03146 -0.05500
C 	C 	0.42025 0.17690 0.10250 0.00300
H 	H 	0.39286 0.70441 0.28276 0.05600
H 	H 	0.41037 0.70147 0.79687 0.05200
C 	C 	0.47958 0.27899 0.52553 0.00300
C 	C 	0.47462 0.19175 0.59250 -0.06100
C 	C 	0.47642 0.26410 0.03118 0.00300
C 	C 	0.47351 0.17953 0.09919 -0.06100
O 	O 	0.99562 0.15668 0.11318 -0.43100
C 	C 	0.46600 0.68052 0.76523 -0.00500
C 	C 	0.45155 0.68405 0.25331 -0.00500
H 	H 	0.47242 0.60765 0.27012 0.04700
H 	H 	0.48837 0.14418 0.12229 0.04400
H 	H 	0.48879 0.15567 0.61504 0.04400
H 	H 	0.47376 0.77571 0.72059 0.04800
C 	C 	0.50501 0.23908 0.55719 0.02600
C 	C 	0.50279 0.22536 0.06341 0.02600
S 	S 	0.50529 0.30746 0.48237 -0.01000
S 	S 	0.50146 0.29102 0.98810 -0.00900
C 	C 	0.49028 0.66209 0.25720 -0.05900
S 	S 	0.01116 0.93068 0.80855 0.04700
S 	S 	0.50870 0.64744 0.77473 -0.01000
C 	C 	0.49858 0.74800 0.73765 -0.06000
S 	S 	0.48680 0.76674 0.22274 -0.00700
C 	C 	0.54574 0.23621 0.54419 -0.06000
C 	C 	0.54375 0.22209 0.05088 -0.06000
C 	C 	0.55120 0.27318 0.50201 -0.00700
C 	C 	0.54862 0.25780 0.00848 -0.00700
C 	C 	0.54734 0.71557 0.23571 0.02700
C 	C 	0.55714 0.76833 0.72708 0.02800
H 	H 	0.57044 0.21367 0.96899 0.05000
H 	H 	0.57217 0.22511 0.46495 0.05100
C 	C 	0.57061 0.71714 0.74681 0.00300
H 	H 	0.57308 0.21123 0.56527 0.04400
H 	H 	0.57215 0.19830 0.07248 0.04400
C 	C 	0.55313 0.77878 0.21557 0.00300
H 	H 	0.57708 0.65409 0.24006 0.04800
S 	S 	0.99978 0.92758 0.30606 -0.03600
C 	C 	0.57957 0.70182 0.22399 -0.05900
H 	H 	0.57448 0.86165 0.67621 0.04900
C 	C 	0.58314 0.82093 0.69112 -0.06000
C 	C 	0.61666 0.30993 0.48869 0.03800
H 	H 	0.61103 0.16076 0.47558 0.04300
C 	C 	0.61469 0.29553 0.99542 0.03800
C 	C 	0.62012 0.27616 0.47151 -0.07700
C 	C 	0.60609 0.71430 0.72991 -0.05500
H 	H 	0.60820 0.15186 0.97447 0.04300
C 	C 	0.61833 0.26405 0.97650 -0.07700
Co	Co	0.00353 0.88782 0.63722 1.20000
Co	Co	0.99899 0.87941 0.13961 1.17400
Co	Co	0.99855 0.06957 0.58965 1.17100
Co	Co	0.99482 0.06251 0.08843 1.17300
C 	C 	0.99796 0.94764 0.96545 -0.11900
C 	C 	0.68370 0.29801 0.96703 0.03500
C 	C 	0.74422 0.36533 0.97510 -0.07600
C 	C 	0.73944 0.39757 0.99266 0.03700
C 	C 	0.67518 0.36213 0.00342 -0.07800
H 	H 	0.79486 0.39259 0.96791 0.05200
H 	H 	0.67242 0.38622 0.01830 0.05500
C 	C 	0.68542 0.30836 0.46280 0.03500
C 	C 	0.74613 0.37643 0.46964 -0.07600
C 	C 	0.74153 0.41108 0.48536 0.03600
C 	C 	0.67727 0.37723 0.49553 -0.07700
H 	H 	0.79679 0.40227 0.46308 0.05200
H 	H 	0.67479 0.40289 0.50936 0.05500
Co	Co	0.93404 0.93451 0.15493 1.19300
Co	Co	0.91567 0.05315 0.13875 1.16100
C 	C 	0.96022 0.76792 0.11028 0.26400
O 	O 	0.84489 0.04335 0.07969 -0.39400
O 	O 	0.94373 0.00969 0.12374 -0.79000
C 	C 	0.86358 0.06875 0.04392 0.29000
O 	O 	0.93871 0.85302 0.17350 -0.47100
C 	C 	0.79537 0.89702 0.15448 0.30600
O 	O 	0.97058 0.95724 0.10121 -0.58500
O 	O 	0.92925 0.09552 0.04326 -0.39100
O 	O 	0.83656 0.95423 0.16809 -0.39600
O 	O 	0.82430 0.87730 0.14822 -0.38400
O 	O 	0.93568 0.78685 0.12146 -0.38800
Co	Co	0.93973 0.94049 0.65619 1.18800
Co	Co	0.92439 0.05975 0.64360 1.15100
C 	C 	0.96557 0.77772 0.60724 0.26500
O 	O 	0.85124 0.05136 0.58523 -0.39600
O 	O 	0.94958 0.01631 0.62613 -0.79500
C 	C 	0.86722 0.07473 0.54883 0.28900
O 	O 	0.94394 0.85937 0.67251 -0.48000
C 	C 	0.80354 0.90437 0.65842 0.30500
O 	O 	0.97357 0.96457 0.60077 -0.58800
O 	O 	0.93259 0.10292 0.54689 -0.39500
O 	O 	0.84647 0.96054 0.67336 -0.40200
O 	O 	0.83059 0.88335 0.65153 -0.38800
O 	O 	0.94017 0.79635 0.61789 -0.39400
C 	C 	0.99357 0.90577 0.88338 -0.10600
C 	C 	0.98369 0.92902 0.90460 0.03700
C 	C 	0.98483 0.90203 0.94843 -0.01800
H 	H 	0.98170 0.85372 0.89517 0.05200
H 	H 	0.98718 0.85731 0.96781 0.03900
C 	C 	0.98299 0.90651 0.38009 -0.12100
C 	C 	0.97500 0.93217 0.40076 0.04500
C 	C 	0.99270 0.95441 0.46118 -0.11800
C 	C 	0.97676 0.90663 0.44461 -0.02000
H 	H 	0.96985 0.85385 0.39242 0.06000
H 	H 	0.97763 0.86112 0.46433 0.04000
C 	C 	0.63300 0.76757 0.69425 0.01500
C 	C 	0.61849 0.81810 0.67414 0.00300
S 	S 	0.68103 0.88836 0.64692 0.02500
C 	C 	0.72609 0.85734 0.65739 -0.07600
C 	C 	0.69340 0.78947 0.68468 -0.01600
H 	H 	0.61491 0.67370 0.74491 0.04700
H 	H 	0.71938 0.76284 0.70255 0.04200
C 	C 	0.61312 0.75048 0.18999 0.00100
C 	C 	0.58636 0.82729 0.18151 -0.05500
C 	C 	0.61935 0.81402 0.17007 0.01700
S 	S 	0.68111 0.76361 0.18403 0.02900
C 	C 	0.71822 0.84718 0.15478 -0.07500
C 	C 	0.67839 0.86842 0.15014 -0.01700
H 	H 	0.58907 0.87514 0.16559 0.04900
H 	H 	0.69781 0.92330 0.13894 0.04200
C 	C 	0.71714 0.10091 0.47057 0.00100
C 	C 	0.66815 0.10905 0.46873 -0.06200
C 	C 	0.68165 0.17582 0.44922 0.02500
C 	C 	0.74378 0.23310 0.43281 0.00300
C 	C 	0.79771 0.22722 0.44017 -0.05800
C 	C 	0.78344 0.16000 0.45878 0.01200
S 	S 	0.73011 0.04066 0.50771 0.01100
C 	C 	0.81710 0.08417 0.50955 -0.07700
C 	C 	0.83945 0.15038 0.48051 -0.02200
S 	S 	0.76055 0.30734 0.42923 -0.01900
C 	C 	0.68961 0.27091 0.44616 -0.00300
C 	C 	0.65129 0.19695 0.45693 -0.06100
H 	H 	0.62431 0.06641 0.48492 0.04400
H 	H 	0.85098 0.27409 0.43468 0.04300
H 	H 	0.89614 0.19401 0.48066 0.04000
C 	C 	0.88626 0.56543 0.54058 0.00100
C 	C 	0.90938 0.58309 0.57799 -0.05900
C 	C 	0.89171 0.62264 0.57727 0.01300
C 	C 	0.84917 0.64079 0.54067 0.00300
C 	C 	0.82837 0.62576 0.50286 -0.06300
C 	C 	0.84394 0.58425 0.50368 0.02500
S 	S 	0.86472 0.49164 0.53948 -0.02000
C 	C 	0.80478 0.48184 0.49271 -0.00500
C 	C 	0.79922 0.53803 0.47650 -0.06100
S 	S 	0.86025 0.70715 0.54441 0.01200
C 	C 	0.91489 0.71240 0.59299 -0.06900
C 	C 	0.92918 0.66306 0.60684 -0.02600
H 	H 	0.93998 0.56652 0.60664 0.04100
H 	H 	0.79702 0.64176 0.47446 0.04700
H 	H 	0.75501 0.53762 0.45067 0.04700
H 	H 	0.97220 0.66341 0.63386 0.03500
C 	C 	0.71581 0.09754 0.96521 0.00100
C 	C 	0.66620 0.10420 0.96415 -0.06200
C 	C 	0.68040 0.17125 0.94700 0.02500
C 	C 	0.74352 0.23005 0.93180 0.00300
C 	C 	0.79787 0.22511 0.93860 -0.05800
C 	C 	0.78322 0.15782 0.95518 0.01200
S 	S 	0.72749 0.03569 0.00059 0.01000
C 	C 	0.81541 0.08012 0.00406 -0.07700
C 	C 	0.83900 0.14785 0.97681 -0.02200
S 	S 	0.76003 0.30253 0.93101 -0.01900
C 	C 	0.68806 0.26367 0.94790 -0.00300
C 	C 	0.64937 0.18997 0.95631 -0.06100
H 	H 	0.62129 0.05997 0.97937 0.04400
H 	H 	0.85168 0.27248 0.93441 0.04300
H 	H 	0.89600 0.19168 0.97847 0.04000
C 	C 	0.84377 0.62888 0.04532 0.00400
C 	C 	0.82463 0.61323 0.00812 -0.06300
C 	C 	0.84018 0.57066 0.01049 0.02500
C 	C 	0.88084 0.55121 0.04836 0.00100
C 	C 	0.90190 0.56899 0.08525 -0.05800
C 	C 	0.88436 0.60974 0.08299 0.01300
S 	S 	0.85605 0.69704 0.04752 0.01100
C 	C 	0.90869 0.70203 0.09658 -0.06700
C 	C 	0.92125 0.65097 0.11197 -0.02500
S 	S 	0.85974 0.47709 0.04817 -0.02100
C 	C 	0.80216 0.46798 0.00063 -0.00600
C 	C 	0.79690 0.52454 0.98344 -0.06100
H 	H 	0.79477 0.62989 0.97891 0.04700
H 	H 	0.93116 0.55190 0.11464 0.04000
H 	H 	0.96311 0.65063 0.13976 0.03600
H 	H 	0.75369 0.52457 0.95676 0.04700
