data_crystal

_cell_length_a 26.17070
_cell_length_b 26.38420
_cell_length_c 34.65460
_cell_angle_alpha 95.53224
_cell_angle_beta  95.53392
_cell_angle_gamma 125.70012

_symmetry_space_group_name_	'P 1'
_symmetry_space_group_name_H-M	'P 1'

loop_
_symmetry_equiv_pos_as_xyz
  x,y,z

loop_
_atom_site_label
_atom_site_type_symbol
_atom_site_fract_x
_atom_site_fract_y
_atom_site_fract_z
_atom_site_charge
C 	C 	0.99844 0.04864 0.99949 0.14300
N 	N 	0.06321 0.08464 0.00308 -0.12800
C 	C 	0.09392 0.05756 0.00733 0.15600
N 	N 	0.05974 0.99430 0.00709 -0.11500
C 	C 	0.99500 0.95802 0.00273 0.14400
N 	N 	0.96457 0.98548 0.99993 -0.11800
C 	C 	0.91733 0.98691 0.46361 0.16800
N 	N 	0.97996 0.01998 0.46041 -0.13200
C 	C 	0.00733 0.98970 0.45601 0.17800
N 	N 	0.97192 0.92609 0.45472 -0.13900
C 	C 	0.90935 0.89272 0.45794 0.15700
N 	N 	0.88188 0.92308 0.46225 -0.12900
Cu	Cu	0.66901 0.25964 0.00055 0.93100
Cu	Cu	0.70372 0.25915 0.91243 0.87500
Cu	Cu	0.69624 0.35888 0.95026 0.90200
Cu	Cu	0.68810 0.38633 0.03557 0.90300
C 	C 	0.68639 0.29731 0.08359 0.29700
O 	O 	0.57888 0.22575 0.00726 -0.35100
C 	C 	0.66701 0.31824 0.86374 0.29600
O 	O 	0.72489 0.35902 0.00343 -0.63700
O 	O 	0.65090 0.26542 0.94514 -0.63900
O 	O 	0.70459 0.21102 0.99236 -0.34600
O 	O 	0.76870 0.27512 0.95262 -0.42700
O 	O 	0.70099 0.35434 0.08277 -0.36700
O 	O 	0.74719 0.45041 0.95701 -0.37300
C 	C 	0.75451 0.48836 0.98831 0.31700
C 	C 	0.55657 0.25873 0.00274 0.29800
O 	O 	0.59466 0.31774 0.99789 -0.37600
O 	O 	0.71817 0.46578 0.01519 -0.36800
O 	O 	0.69703 0.26889 0.05549 -0.34400
C 	C 	0.75520 0.23408 0.97582 0.30900
O 	O 	0.67174 0.35609 0.89418 -0.36900
O 	O 	0.66011 0.26551 0.86785 -0.40200
H 	H 	0.77194 0.38332 0.01107 0.18400
H 	H 	0.60502 0.24003 0.93284 0.19800
Cu	Cu	0.71412 0.32231 0.45003 0.93100
Cu	Cu	0.70193 0.27988 0.53622 0.87400
Cu	Cu	0.60530 0.28743 0.49358 0.90100
Cu	Cu	0.58926 0.30325 0.41052 0.90700
C 	C 	0.67529 0.29275 0.36560 0.29800
O 	O 	0.74314 0.41129 0.44463 -0.34800
C 	C 	0.63551 0.31264 0.58083 0.29600
O 	O 	0.61337 0.26334 0.44170 -0.63900
O 	O 	0.70008 0.33489 0.50396 -0.64100
O 	O 	0.76489 0.28941 0.46169 -0.35000
O 	O 	0.69283 0.21977 0.49594 -0.43000
O 	O 	0.64319 0.31648 0.37000 -0.36300
O 	O 	0.51290 0.23524 0.48181 -0.36800
C 	C 	0.47769 0.23610 0.45226 0.31600
C 	C 	0.70849 0.43095 0.45271 0.29800
O 	O 	0.64800 0.38947 0.45486 -0.37200
O 	O 	0.49967 0.25698 0.42003 -0.37300
O 	O 	0.71241 0.29635 0.39605 -0.34100
C 	C 	0.73907 0.23700 0.47616 0.30700
O 	O 	0.59938 0.30664 0.54860 -0.36100
O 	O 	0.68929 0.31930 0.57955 -0.41000
H 	H 	0.58963 0.21702 0.43261 0.17500
H 	H 	0.72378 0.37956 0.51762 0.18300
C 	C 	0.66000 0.33028 0.82364 -0.10000
C 	C 	0.70347 0.33903 0.79888 0.12800
C 	C 	0.69075 0.34167 0.75917 -0.09000
C 	C 	0.63684 0.33814 0.74416 0.00300
C 	C 	0.59561 0.33359 0.76955 0.07000
C 	C 	0.60733 0.32909 0.80907 -0.01700
N 	N 	0.75791 0.34591 0.81316 -0.20100
H 	H 	0.72284 0.34630 0.73979 0.06400
C 	C 	0.62235 0.33545 0.70129 0.00400
N 	N 	0.54521 0.33399 0.75632 -0.19200
H 	H 	0.57477 0.32361 0.82832 0.05900
C 	C 	0.57753 0.27610 0.67657 -0.09200
C 	C 	0.57575 0.26893 0.63566 0.13400
C 	C 	0.62079 0.32184 0.61964 -0.09900
C 	C 	0.66027 0.38238 0.64372 -0.01600
C 	C 	0.66072 0.38982 0.68445 0.06800
H 	H 	0.54613 0.23487 0.68938 0.06800
N 	N 	0.53173 0.21106 0.61212 -0.20400
H 	H 	0.69279 0.42339 0.63106 0.05300
N 	N 	0.69848 0.44897 0.70727 -0.19200
H 	H 	0.50003 0.17172 0.62435 0.10400
H 	H 	0.52705 0.20500 0.58145 0.10400
H 	H 	0.72848 0.48878 0.69491 0.10100
H 	H 	0.69668 0.45617 0.73713 0.10200
H 	H 	0.51423 0.32926 0.77504 0.10500
H 	H 	0.53714 0.34053 0.72775 0.10400
H 	H 	0.77150 0.34935 0.84318 0.07700
H 	H 	0.78865 0.35029 0.79435 0.09500
C 	C 	0.68525 0.28072 0.32573 -0.09100
C 	C 	0.64274 0.22013 0.30111 0.13400
C 	C 	0.64385 0.21371 0.26053 -0.09100
C 	C 	0.68688 0.26665 0.24440 0.00500
C 	C 	0.73284 0.32622 0.26966 0.07400
C 	C 	0.73184 0.33240 0.31021 -0.01500
N 	N 	0.60060 0.16819 0.31614 -0.20200
H 	H 	0.60980 0.16781 0.24127 0.06900
C 	C 	0.67830 0.26098 0.20093 0.00300
N 	N 	0.77700 0.37785 0.25512 -0.19100
H 	H 	0.76545 0.37843 0.32943 0.06300
C 	C 	0.63308 0.26696 0.18149 -0.08900
C 	C 	0.63057 0.27219 0.14156 0.13200
C 	C 	0.67623 0.27456 0.12137 -0.09200
C 	C 	0.71770 0.26298 0.13982 -0.02100
C 	C 	0.71836 0.25503 0.17934 0.07400
H 	H 	0.60054 0.26873 0.19769 0.06900
N 	N 	0.58388 0.27413 0.12264 -0.20200
H 	H 	0.75126 0.26267 0.12398 0.07800
N 	N 	0.75828 0.24302 0.19654 -0.19200
H 	H 	0.55185 0.27485 0.13809 0.10500
H 	H 	0.57709 0.27199 0.09218 0.09400
H 	H 	0.78902 0.24051 0.18072 0.10900
H 	H 	0.75803 0.23444 0.22533 0.10500
H 	H 	0.81015 0.42173 0.27397 0.10600
H 	H 	0.77938 0.37504 0.22518 0.10400
H 	H 	0.60068 0.17093 0.34641 0.10000
H 	H 	0.56824 0.12385 0.29760 0.10300
C 	C 	0.81793 0.73274 0.48929 -0.05700
C 	C 	0.81507 0.69459 0.45674 0.01900
C 	C 	0.83876 0.72068 0.42339 0.07400
C 	C 	0.86639 0.78485 0.42333 -0.02900
C 	C 	0.87157 0.82368 0.45645 -0.02800
C 	C 	0.84660 0.79729 0.48950 0.10100
C 	C 	0.78670 0.62713 0.45748 0.03100
N 	N 	0.83566 0.68233 0.38973 -0.01800
H 	H 	0.88553 0.80497 0.39788 0.07800
N 	N 	0.85194 0.83622 0.52374 -0.02100
H 	H 	0.79920 0.71265 0.51483 0.08400
C 	C 	0.82112 0.61039 0.47961 0.05900
C 	C 	0.79500 0.54611 0.47803 -0.00100
C 	C 	0.73509 0.49834 0.45432 -0.08700
C 	C 	0.70078 0.51525 0.43216 0.12400
C 	C 	0.72627 0.57938 0.43443 -0.07100
N 	N 	0.88278 0.65852 0.50347 -0.01600
H 	H 	0.82153 0.53341 0.49512 0.05900
N 	N 	0.64136 0.46756 0.40600 -0.02600
H 	H 	0.69992 0.59214 0.41721 0.08900
O 	O 	0.80061 0.82235 0.53615 -0.07600
O 	O 	0.90812 0.88228 0.54431 -0.07300
O 	O 	0.80610 0.67604 0.35520 -0.08300
O 	O 	0.86627 0.65752 0.39306 -0.07800
O 	O 	0.58946 0.46128 0.41104 -0.09000
O 	O 	0.64027 0.43443 0.37517 -0.10700
O 	O 	0.89274 0.65953 0.54113 -0.09000
O 	O 	0.93015 0.69837 0.48712 -0.07700
C 	C 	0.89709 0.11519 0.49347 -0.06000
C 	C 	0.83825 0.09059 0.46948 0.02200
C 	C 	0.80345 0.02995 0.44516 0.06600
C 	C 	0.82881 0.99552 0.44425 -0.01300
C 	C 	0.88791 0.02033 0.46809 -0.03800
C 	C 	0.92120 0.07974 0.49376 0.10800
C 	C 	0.81235 0.12775 0.47102 0.03200
N 	N 	0.74226 0.00308 0.42150 -0.02200
H 	H 	0.80278 0.94975 0.42468 0.07600
N 	N 	0.97851 0.10334 0.52098 -0.02500
H 	H 	0.92338 0.16127 0.51271 0.08500
C 	C 	0.79344 0.13901 0.50560 0.05400
C 	C 	0.77182 0.17662 0.50730 0.00000
C 	C 	0.76641 0.20132 0.47430 -0.09800
C 	C 	0.78406 0.18894 0.43938 0.12700
C 	C 	0.80822 0.15341 0.43823 -0.07400
N 	N 	0.79536 0.11159 0.53891 -0.01700
H 	H 	0.75812 0.18573 0.53417 0.04400
N 	N 	0.77441 0.20941 0.40448 -0.02200
H 	H 	0.82245 0.14462 0.41153 0.08800
O 	O 	0.97759 0.07005 0.54664 -0.07400
O 	O 	0.03056 0.15979 0.52175 -0.07000
O 	O 	0.73231 0.98520 0.38354 -0.08100
O 	O 	0.69525 0.99245 0.43818 -0.07300
O 	O 	0.82337 0.25078 0.38982 -0.08500
O 	O 	0.71662 0.18229 0.38533 -0.09400
O 	O 	0.82744 0.14783 0.57332 -0.09400
O 	O 	0.76158 0.05016 0.53541 -0.07900
C 	C 	0.17017 0.10819 0.43119 -0.05700
C 	C 	0.20814 0.09672 0.45433 0.02000
C 	C 	0.18003 0.04989 0.47791 0.07600
C 	C 	0.11445 0.01544 0.47836 -0.02900
C 	C 	0.07618 0.02623 0.45481 -0.03100
C 	C 	0.10420 0.07243 0.43070 0.10600
C 	C 	0.27722 0.13336 0.45337 0.03200
N 	N 	0.21791 0.03690 0.50126 -0.01900
H 	H 	0.09320 0.98007 0.49697 0.08700
N 	N 	0.06551 0.08165 0.40472 -0.02100
H 	H 	0.19166 0.14390 0.41282 0.08700
C 	C 	0.29810 0.12309 0.41948 0.05900
C 	C 	0.36372 0.15843 0.41899 0.00100
C 	C 	0.40893 0.20313 0.45230 -0.08800
C 	C 	0.38801 0.21387 0.48608 0.12500
C 	C 	0.32230 0.17893 0.48640 -0.07100
N 	N 	0.25276 0.07604 0.38573 -0.01700
H 	H 	0.37956 0.14966 0.39307 0.06500
N 	N 	0.43332 0.26092 0.51985 -0.02300
H 	H 	0.30629 0.18744 0.51231 0.08900
O 	O 	0.07814 0.13754 0.40733 -0.07500
O 	O 	0.02069 0.03539 0.37664 -0.07600
O 	O 	0.22017 0.04130 0.53918 -0.08300
O 	O 	0.24651 0.01646 0.48428 -0.07900
O 	O 	0.47250 0.32015 0.51658 -0.08800
O 	O 	0.43276 0.24516 0.55431 -0.08700
O 	O 	0.25276 0.09199 0.35137 -0.08300
O 	O 	0.21460 0.01661 0.38880 -0.07600
C 	C 	0.93509 0.78817 0.96996 -0.05400
C 	C 	0.88957 0.75675 0.99389 0.02000
C 	C 	0.87731 0.79130 0.01996 0.07500
C 	C 	0.91180 0.85708 0.02248 -0.03400
C 	C 	0.95761 0.88858 0.99870 -0.01300
C 	C 	0.96816 0.85357 0.97159 0.09500
C 	C 	0.85563 0.68782 0.99196 0.03500
N 	N 	0.82977 0.75967 0.04386 -0.01900
H 	H 	0.90300 0.88370 0.04298 0.08100
N 	N 	0.01096 0.88396 0.94486 -0.01700
H 	H 	0.94401 0.76154 0.94956 0.08300
C 	C 	0.81046 0.64389 0.95812 0.05800
C 	C 	0.77992 0.57882 0.95644 0.00200
C 	C 	0.79287 0.55697 0.98858 -0.08500
C 	C 	0.83877 0.60096 0.02218 0.12000
C 	C 	0.86989 0.66610 0.02366 -0.07400
N 	N 	0.79470 0.66517 0.92569 -0.01700
H 	H 	0.74435 0.54509 0.93067 0.06900
N 	N 	0.85443 0.57963 0.05464 -0.02600
H 	H 	0.90549 0.69991 0.04940 0.08900
O 	O 	0.05803 0.87993 0.94374 -0.07600
O 	O 	0.00022 0.91183 0.91978 -0.06500
O 	O 	0.84501 0.77851 0.08198 -0.08100
O 	O 	0.77044 0.71484 0.02734 -0.07400
O 	O 	0.87435 0.54492 0.04888 -0.10800
O 	O 	0.85297 0.59853 0.09033 -0.08700
O 	O 	0.80007 0.64959 0.89036 -0.08800
O 	O 	0.77077 0.69627 0.93100 -0.07200
C 	C 	0.84030 0.16958 0.01927 -0.07800
C 	C 	0.86406 0.16047 0.98678 0.03700
C 	C 	0.85338 0.17711 0.95103 0.05400
C 	C 	0.81711 0.20031 0.94769 -0.00000
C 	C 	0.79349 0.20969 0.98020 -0.09400
C 	C 	0.80687 0.19594 0.01655 0.12600
C 	C 	0.89899 0.13227 0.99006 0.01700
N 	N 	0.87992 0.17113 0.91815 -0.01600
H 	H 	0.80772 0.21152 0.91982 0.04600
N 	N 	0.79061 0.21276 0.05131 -0.02200
H 	H 	0.84928 0.15776 0.04699 0.08800
C 	C 	0.95923 0.16538 0.01522 0.07600
C 	C 	0.99128 0.13763 0.01810 -0.04800
C 	C 	0.96494 0.07805 0.99505 -0.01600
C 	C 	0.90585 0.04618 0.96865 0.09400
C 	C 	0.87237 0.07249 0.96731 -0.05300
N 	N 	0.98834 0.22752 0.03752 -0.02700
H 	H 	0.03683 0.16260 0.03821 0.08900
N 	N 	0.88111 0.98857 0.94196 -0.01800
H 	H 	0.82643 0.04729 0.94758 0.08400
O 	O 	0.81821 0.27226 0.06572 -0.09300
O 	O 	0.75315 0.16920 0.07065 -0.09200
O 	O 	0.84277 0.13796 0.88408 -0.09300
O 	O 	0.94162 0.20222 0.92160 -0.07900
O 	O 	0.91368 0.98834 0.91595 -0.06900
O 	O 	0.82399 0.93761 0.94169 -0.07500
O 	O 	0.00528 0.23883 0.07569 -0.07600
O 	O 	0.00198 0.27381 0.01946 -0.06900
C 	C 	0.37526 0.14698 0.98259 -0.07000
C 	C 	0.36133 0.18036 0.00794 0.03000
C 	C 	0.41169 0.23867 0.03231 0.05700
C 	C 	0.47531 0.26340 0.03063 -0.00200
C 	C 	0.48930 0.23060 0.00480 -0.09700
C 	C 	0.43893 0.17200 0.98068 0.12900
C 	C 	0.29390 0.15360 0.00921 0.01600
N 	N 	0.39836 0.27284 0.05887 -0.01600
H 	H 	0.51394 0.30837 0.04934 0.05000
N 	N 	0.45216 0.13887 0.95325 -0.02400
H 	H 	0.33659 0.10202 0.96390 0.08900
C 	C 	0.25573 0.15463 0.97813 0.07900
C 	C 	0.19086 0.12573 0.97875 -0.02500
C 	C 	0.16374 0.09590 0.01010 -0.02800
C 	C 	0.20259 0.09723 0.04197 0.10100
C 	C 	0.26728 0.12554 0.04116 -0.05600
N 	N 	0.28245 0.18405 0.94559 -0.01900
H 	H 	0.16120 0.12513 0.95432 0.08200
N 	N 	0.17651 0.07005 0.07528 -0.02100
H 	H 	0.29688 0.12572 0.06541 0.08300
O 	O 	0.47350 0.16112 0.92193 -0.10400
O 	O 	0.43706 0.08352 0.95758 -0.08700
O 	O 	0.42188 0.28757 0.09641 -0.09300
O 	O 	0.36665 0.29315 0.04521 -0.07500
O 	O 	0.14838 0.08869 0.09473 -0.07800
O 	O 	0.18416 0.02941 0.08752 -0.08100
O 	O 	0.25649 0.15172 0.90971 -0.08000
O 	O 	0.33018 0.24414 0.95162 -0.07400
