data_crystal

_cell_length_a 23.36272
_cell_length_b 20.75503
_cell_length_c 32.90546
_cell_angle_alpha 90.00333
_cell_angle_beta  89.99871
_cell_angle_gamma 100.91283

_symmetry_space_group_name_	'P 1'
_symmetry_space_group_name_H-M	'P 1'

loop_
_symmetry_equiv_pos_as_xyz
  x,y,z

loop_
_atom_site_label
_atom_site_type_symbol
_atom_site_fract_x
_atom_site_fract_y
_atom_site_fract_z
_atom_site_charge
Ni	Ni	0.35404 0.66246 0.78794 1.09900
O 	O 	0.33327 0.73515 0.75213 -0.70300
Ni	Ni	0.30352 0.68562 0.70163 1.09900
O 	O 	0.40558 0.72537 0.82702 -0.37700
O 	O 	0.45794 0.77955 0.77459 -0.42000
O 	O 	0.28514 0.67078 0.82530 -0.38400
Ni	Ni	0.39464 0.80959 0.73849 1.06900
O 	O 	0.29035 0.50429 0.80148 -0.41700
O 	O 	0.43128 0.77915 0.68697 -0.40000
O 	O 	0.29479 0.76084 0.66257 -0.37500
O 	O 	0.31807 0.61218 0.73964 -0.70200
O 	O 	0.36758 0.58476 0.82180 -0.38700
O 	O 	0.26097 0.61983 0.65997 -0.37000
O 	O 	0.19828 0.57018 0.70864 -0.41200
Ni	Ni	0.25045 0.54671 0.75563 1.06800
H 	H 	0.30046 0.75217 0.76448 0.15500
H 	H 	0.34728 0.58885 0.72770 0.15300
C 	C 	0.43022 0.71779 0.67693 0.30600
O 	O 	0.21144 0.60342 0.79283 -0.41200
C 	C 	0.44971 0.76921 0.81379 0.29300
C 	C 	0.32288 0.82219 0.66655 0.31600
C 	C 	0.23566 0.62865 0.82643 0.31200
C 	C 	0.21592 0.57490 0.67061 0.29100
C 	C 	0.32528 0.53465 0.83035 0.30700
O 	O 	0.38060 0.67570 0.67473 -0.38500
O 	O 	0.33881 0.84744 0.70257 -0.42100
Ni	Ni	0.68122 0.33181 0.28892 1.09900
O 	O 	0.70080 0.26030 0.25169 -0.70400
Ni	Ni	0.73092 0.31212 0.20206 1.10000
O 	O 	0.62767 0.26818 0.32650 -0.37700
O 	O 	0.57555 0.21802 0.27274 -0.42000
O 	O 	0.74876 0.31972 0.32670 -0.38300
Ni	Ni	0.63858 0.18773 0.23650 1.06900
O 	O 	0.75060 0.48634 0.30764 -0.41700
O 	O 	0.60369 0.22127 0.18519 -0.40000
O 	O 	0.73736 0.23872 0.16093 -0.37400
O 	O 	0.71855 0.38419 0.24186 -0.70200
O 	O 	0.66901 0.40850 0.32397 -0.38900
O 	O 	0.77409 0.37965 0.16168 -0.37000
O 	O 	0.83836 0.42468 0.21077 -0.41200
Ni	Ni	0.78763 0.44613 0.25925 1.06800
H 	H 	0.73329 0.24203 0.26350 0.15600
H 	H 	0.69032 0.40957 0.23066 0.15300
C 	C 	0.60462 0.28324 0.17689 0.30900
O 	O 	0.82403 0.38317 0.29335 -0.41500
C 	C 	0.58312 0.22607 0.31216 0.29400
C 	C 	0.71137 0.17648 0.16479 0.31500
C 	C 	0.80025 0.35819 0.32709 0.31300
C 	C 	0.82026 0.42261 0.17282 0.29000
C 	C 	0.71274 0.45551 0.33482 0.30700
O 	O 	0.65399 0.32585 0.17666 -0.38700
O 	O 	0.69493 0.15073 0.20060 -0.42100
C 	C 	0.13545 0.61148 0.92869 -0.01000
C 	C 	0.14599 0.56841 0.95939 -0.03000
C 	C 	0.10728 0.55439 0.99199 -0.04300
C 	C 	0.05779 0.58348 0.99411 0.00900
C 	C 	0.04868 0.62880 0.96425 -0.04400
C 	C 	0.08740 0.64268 0.93161 -0.03000
C 	C 	0.01337 0.56262 0.02571 0.00800
C 	C 	0.02811 0.57098 0.06698 -0.04400
C 	C 	0.89218 0.48064 0.11633 0.04400
C 	C 	0.85902 0.45460 0.14209 -0.10700
C 	C 	0.17075 0.61886 0.89255 0.04800
C 	C 	0.20073 0.62450 0.86249 -0.11000
H 	H 	0.18320 0.54431 0.95739 0.03800
H 	H 	0.11476 0.51942 0.01490 0.04100
H 	H 	0.07915 0.67629 0.90808 0.03900
H 	H 	0.07126 0.59609 0.07583 0.04000
H 	H 	0.87370 0.47929 0.03573 0.04100
C 	C 	0.88859 0.40937 0.46134 -0.03000
C 	C 	0.99395 0.36369 0.46060 -0.04400
C 	C 	0.02613 0.42695 0.52371 0.00800
C 	C 	0.01451 0.41307 0.56497 -0.04400
C 	C 	0.05464 0.44078 0.59460 -0.03200
C 	C 	0.10660 0.48240 0.58316 -0.00800
C 	C 	0.11904 0.49479 0.54194 -0.03100
C 	C 	0.07895 0.46721 0.51229 -0.04300
C 	C 	0.14563 0.51503 0.61378 0.04400
C 	C 	0.17808 0.54216 0.63961 -0.10800
C 	C 	0.86643 0.36590 0.39251 0.04900
C 	C 	0.83580 0.36084 0.36278 -0.11200
H 	H 	0.84828 0.42802 0.46148 0.04000
H 	H 	0.03483 0.34629 0.45999 0.04000
H 	H 	0.04486 0.43080 0.62643 0.03700
H 	H 	0.15921 0.52678 0.53289 0.04100
H 	H 	0.08825 0.47838 0.48053 0.04100
C 	C 	0.47069 0.12434 0.39474 -0.00900
C 	C 	0.44435 0.05874 0.38808 -0.03200
C 	C 	0.41540 0.02126 0.41987 -0.04200
C 	C 	0.41292 0.04917 0.45857 0.00800
C 	C 	0.43626 0.11595 0.46445 -0.04300
C 	C 	0.46501 0.15340 0.43261 -0.03000
C 	C 	0.39237 0.00700 0.49378 0.01000
C 	C 	0.42151 0.95638 0.50483 -0.04500
C 	C 	0.40500 0.91936 0.53979 -0.03000
C 	C 	0.35937 0.93267 0.56407 -0.00800
C 	C 	0.32956 0.98253 0.55286 -0.03200
C 	C 	0.34599 0.01964 0.51777 -0.04200
C 	C 	0.34406 0.89564 0.60079 0.04800
C 	C 	0.33323 0.86306 0.63114 -0.10700
C 	C 	0.50934 0.15930 0.36463 0.04400
C 	C 	0.54193 0.18963 0.33996 -0.11300
H 	H 	0.44815 0.03607 0.35878 0.03500
H 	H 	0.39685 0.96996 0.41485 0.03900
H 	H 	0.43436 0.13809 0.49412 0.04100
H 	H 	0.48492 0.20425 0.43789 0.04100
H 	H 	0.45762 0.94655 0.48672 0.04100
H 	H 	0.42814 0.88078 0.54825 0.04100
H 	H 	0.29408 0.99293 0.57141 0.03800
H 	H 	0.32315 0.05852 0.50948 0.04000
C 	C 	0.55898 0.86603 0.89986 -0.00900
C 	C 	0.54477 0.85095 0.94056 -0.03100
C 	C 	0.57604 0.88758 0.97171 -0.04300
C 	C 	0.62199 0.93953 0.96238 0.00900
C 	C 	0.63778 0.95280 0.92159 -0.04400
C 	C 	0.60623 0.91620 0.89042 -0.03200
C 	C 	0.64967 0.98361 0.99500 0.00700
C 	C 	0.67498 0.95797 0.02859 -0.04300
C 	C 	0.69282 0.99767 0.06238 -0.03400
C 	C 	0.68577 0.06324 0.06268 -0.00500
C 	C 	0.66344 0.08981 0.02833 -0.03200
C 	C 	0.64536 0.05017 0.99463 -0.04000
C 	C 	0.69615 0.10151 0.09938 0.04700
C 	C 	0.70427 0.13513 0.12949 -0.10600
C 	C 	0.52232 0.83315 0.86802 0.04400
C 	C 	0.49028 0.80425 0.84252 -0.11300
H 	H 	0.50843 0.81203 0.94807 0.04100
H 	H 	0.56336 0.87700 0.00303 0.04000
H 	H 	0.67348 0.99241 0.91405 0.04000
H 	H 	0.61769 0.92789 0.85901 0.03700
H 	H 	0.67912 0.90686 0.02902 0.04000
H 	H 	0.71045 0.97690 0.08873 0.03800
H 	H 	0.65820 0.14059 0.02826 0.04300
H 	H 	0.62596 0.07052 0.96888 0.04000
C 	C 	0.34248 0.43803 0.93624 -0.00800
C 	C 	0.37140 0.38475 0.93621 -0.03000
C 	C 	0.38795 0.35976 0.97291 -0.04200
C 	C 	0.37548 0.38780 0.00995 0.00900
C 	C 	0.34289 0.43815 0.00997 -0.04400
C 	C 	0.32659 0.46329 0.97319 -0.03000
C 	C 	0.40302 0.37049 0.04782 0.00900
C 	C 	0.39594 0.30463 0.06009 -0.04400
C 	C 	0.43148 0.28652 0.09062 -0.03000
C 	C 	0.47393 0.33417 0.10922 -0.00900
C 	C 	0.47782 0.40048 0.09926 -0.03000
C 	C 	0.44260 0.41863 0.06863 -0.04300
C 	C 	0.51874 0.31453 0.13371 0.04700
C 	C 	0.55685 0.29956 0.15429 -0.10500
C 	C 	0.33563 0.47168 0.89882 0.04600
C 	C 	0.32988 0.49988 0.86750 -0.10300
H 	H 	0.38335 0.36456 0.90775 0.03900
H 	H 	0.41289 0.32074 0.97250 0.04100
H 	H 	0.33226 0.45952 0.03838 0.04000
H 	H 	0.30363 0.50403 0.97343 0.03800
H 	H 	0.36481 0.26720 0.04473 0.04000
H 	H 	0.42777 0.23519 0.09847 0.03900
H 	H 	0.51017 0.43767 0.11380 0.03800
H 	H 	0.44822 0.46965 0.05963 0.04100
C 	C 	0.69265 0.53877 0.44482 -0.00800
C 	C 	0.65434 0.50158 0.47245 -0.03100
C 	C 	0.63746 0.53076 0.50760 -0.04300
C 	C 	0.65901 0.59743 0.51550 0.00900
C 	C 	0.70033 0.63352 0.48909 -0.04400
C 	C 	0.71691 0.60428 0.45374 -0.03200
C 	C 	0.63272 0.63105 0.54820 0.00900
C 	C 	0.62987 0.60637 0.58807 -0.04400
C 	C 	0.59443 0.62906 0.61695 -0.03100
C 	C 	0.56210 0.67690 0.60625 -0.00800
C 	C 	0.56847 0.70516 0.56745 -0.03000
C 	C 	0.60352 0.68227 0.53849 -0.04300
C 	C 	0.51678 0.69048 0.63272 0.04600
C 	C 	0.47832 0.70326 0.65389 -0.10400
C 	C 	0.70190 0.51168 0.40562 0.04600
C 	C 	0.70827 0.48690 0.37321 -0.10300
H 	H 	0.63579 0.45074 0.46589 0.04200
H 	H 	0.60562 0.50237 0.52775 0.04100
H 	H 	0.71788 0.68476 0.49515 0.04000
H 	H 	0.74700 0.63319 0.43269 0.03800
H 	H 	0.65303 0.56763 0.59612 0.04000
H 	H 	0.59022 0.60748 0.64704 0.03700
H 	H 	0.54405 0.74265 0.55910 0.04000
H 	H 	0.60559 0.70197 0.50792 0.04100
C 	C 	0.91661 0.50520 0.04457 -0.03100
C 	C 	0.90241 0.37252 0.42832 -0.01000
C 	C 	0.93200 0.51185 0.08572 -0.00800
H 	H 	0.91784 0.45526 0.51816 0.04100
C 	C 	0.95715 0.53045 0.01464 -0.04300
H 	H 	0.94538 0.52363 0.98287 0.04200
C 	C 	0.92797 0.42478 0.49345 -0.04300
C 	C 	0.95452 0.34839 0.42847 -0.03000
C 	C 	0.98752 0.54561 0.09688 -0.03100
H 	H 	0.01092 0.65199 0.96583 0.04100
H 	H 	0.96536 0.31959 0.40312 0.03900
H 	H 	0.97402 0.38178 0.57409 0.04000
H 	H 	0.99962 0.55111 0.12866 0.03700
C 	C 	0.98145 0.40333 0.49273 0.00900
