data_crystal

_cell_length_a 28.92669
_cell_length_b 30.52941
_cell_length_c 32.55483
_cell_angle_alpha 89.99953
_cell_angle_beta  90.00041
_cell_angle_gamma 101.67099

_symmetry_space_group_name_	'P 1'
_symmetry_space_group_name_H-M	'P 1'

loop_
_symmetry_equiv_pos_as_xyz
  x,y,z

loop_
_atom_site_label
_atom_site_type_symbol
_atom_site_fract_x
_atom_site_fract_y
_atom_site_fract_z
_atom_site_charge
Co	Co	0.30276 0.62321 0.98457 1.18300
O 	O 	0.25776 0.57555 0.94932 -0.38300
Co	Co	0.38730 0.71185 0.00777 1.18200
O 	O 	0.32975 0.68390 0.95881 -0.46000
O 	O 	0.41687 0.65866 0.01564 -0.41600
O 	O 	0.22901 0.62511 0.98007 -0.34800
C 	C 	0.39964 0.61732 0.00275 0.33500
O 	O 	0.40040 0.71640 0.94285 -0.35600
C 	C 	0.40919 0.79224 0.03641 0.28900
C 	C 	0.32212 0.64820 0.06276 0.30700
O 	O 	0.43190 0.76059 0.04242 -0.37200
O 	O 	0.37325 0.77858 0.01285 -0.34500
O 	O 	0.30104 0.60919 0.04926 -0.36600
O 	O 	0.32623 0.67836 0.03432 -0.46300
O 	O 	0.36579 0.60902 0.97485 -0.53600
C 	C 	0.22006 0.59090 0.95585 0.29100
C 	C 	0.36093 0.69226 0.92985 0.31000
H 	H 	0.36809 0.58717 0.95185 0.17300
Co	Co	0.29341 0.62881 0.48288 1.18300
O 	O 	0.24834 0.58304 0.44576 -0.38100
Co	Co	0.37748 0.71618 0.51000 1.18400
O 	O 	0.32183 0.69015 0.45902 -0.46000
O 	O 	0.40593 0.66232 0.51764 -0.41500
O 	O 	0.22037 0.63262 0.47723 -0.34800
C 	C 	0.39005 0.62171 0.50230 0.33700
O 	O 	0.39327 0.72275 0.44560 -0.35900
C 	C 	0.39780 0.79516 0.54161 0.29000
C 	C 	0.31033 0.65116 0.56189 0.30900
O 	O 	0.42033 0.76337 0.54744 -0.37100
O 	O 	0.36332 0.78273 0.51628 -0.34400
O 	O 	0.28950 0.61264 0.54720 -0.36400
O 	O 	0.31551 0.68222 0.53428 -0.46300
O 	O 	0.35659 0.61434 0.47389 -0.53600
C 	C 	0.21115 0.59932 0.45206 0.29200
C 	C 	0.35423 0.69923 0.43113 0.31000
H 	H 	0.35942 0.59350 0.45019 0.17200
Co	Co	0.73934 0.33973 0.98580 1.18400
O 	O 	0.78245 0.38810 0.94976 -0.38200
Co	Co	0.65720 0.25020 0.01159 1.18300
O 	O 	0.71166 0.27897 0.96045 -0.46000
O 	O 	0.62754 0.30292 0.02166 -0.41600
O 	O 	0.81285 0.33842 0.97841 -0.34800
C 	C 	0.64306 0.34434 0.00813 0.33500
O 	O 	0.64041 0.24582 0.94735 -0.35700
C 	C 	0.63781 0.16950 0.03981 0.28900
C 	C 	0.72452 0.31434 0.06433 0.30800
O 	O 	0.61506 0.20080 0.04739 -0.37200
O 	O 	0.67240 0.18381 0.01499 -0.34500
O 	O 	0.74430 0.35355 0.05046 -0.36600
O 	O 	0.71932 0.28423 0.03580 -0.46400
O 	O 	0.67548 0.35318 0.97897 -0.53500
C 	C 	0.82066 0.37308 0.95471 0.29100
C 	C 	0.67887 0.27039 0.93287 0.31000
H 	H 	0.67157 0.37481 0.95621 0.17300
Co	Co	0.73515 0.33929 0.48638 1.18300
O 	O 	0.78463 0.38481 0.45269 -0.38200
Co	Co	0.64684 0.25367 0.50823 1.18400
O 	O 	0.70673 0.27898 0.46060 -0.46000
O 	O 	0.62000 0.30867 0.51461 -0.41600
O 	O 	0.80769 0.33305 0.48513 -0.34900
C 	C 	0.63803 0.34917 0.49994 0.33700
O 	O 	0.63584 0.24889 0.44315 -0.35900
C 	C 	0.62116 0.17355 0.53683 0.28900
C 	C 	0.71159 0.31603 0.56426 0.30800
O 	O 	0.59940 0.20610 0.54182 -0.37200
O 	O 	0.65837 0.18632 0.51458 -0.34500
O 	O 	0.73452 0.35433 0.55074 -0.36500
O 	O 	0.70750 0.28540 0.53626 -0.46300
O 	O 	0.67379 0.35602 0.47370 -0.53700
C 	C 	0.82037 0.36707 0.46119 0.29100
C 	C 	0.67639 0.27146 0.43091 0.31000
H 	H 	0.67366 0.37750 0.44997 0.17200
C 	C 	0.69756 0.28521 0.69265 0.10700
C 	C 	0.68821 0.25087 0.66348 -0.09300
C 	C 	0.69312 0.26079 0.62158 0.03600
C 	C 	0.70726 0.30536 0.60847 -0.11100
C 	C 	0.71593 0.33986 0.63774 0.03900
C 	C 	0.71100 0.32987 0.67960 -0.09200
H 	H 	0.67705 0.21646 0.67331 0.06500
H 	H 	0.68584 0.23385 0.59940 0.02500
H 	H 	0.72600 0.37443 0.62808 0.03500
H 	H 	0.71699 0.35681 0.70183 0.06700
N 	N 	0.69055 0.27478 0.73491 -0.08700
N 	N 	0.71467 0.29822 0.76167 -0.08700
C 	C 	0.68846 0.27587 0.88846 -0.11300
C 	C 	0.65146 0.26433 0.86004 0.03800
C 	C 	0.66006 0.27113 0.81807 -0.09200
C 	C 	0.70589 0.28929 0.80401 0.10700
C 	C 	0.74271 0.30113 0.83233 -0.09400
C 	C 	0.73416 0.29436 0.87436 0.03400
H 	H 	0.61591 0.25067 0.87048 0.03600
H 	H 	0.63104 0.26294 0.79656 0.06700
H 	H 	0.77795 0.31573 0.82176 0.06500
H 	H 	0.76301 0.30366 0.89590 0.02400
C 	C 	0.71447 0.28200 0.19248 0.10700
C 	C 	0.70758 0.24786 0.16306 -0.09300
C 	C 	0.71183 0.25829 0.12124 0.03600
C 	C 	0.72279 0.30316 0.10844 -0.11200
C 	C 	0.72983 0.33741 0.13797 0.03900
C 	C 	0.72555 0.32691 0.17976 -0.09200
H 	H 	0.69836 0.21321 0.17262 0.06500
H 	H 	0.70616 0.23151 0.09885 0.02500
H 	H 	0.73769 0.37216 0.12856 0.03500
H 	H 	0.72979 0.35364 0.20217 0.06700
N 	N 	0.70595 0.27101 0.23447 -0.08700
N 	N 	0.72727 0.29539 0.26206 -0.08700
C 	C 	0.69001 0.27570 0.38721 -0.11400
C 	C 	0.73702 0.29317 0.37589 0.03500
C 	C 	0.74929 0.29898 0.33439 -0.09400
C 	C 	0.71492 0.28709 0.30389 0.10700
C 	C 	0.66786 0.26984 0.31516 -0.09300
C 	C 	0.65554 0.26405 0.35657 0.03900
H 	H 	0.76397 0.30249 0.39914 0.02300
H 	H 	0.78548 0.31291 0.32593 0.06400
H 	H 	0.64074 0.26164 0.29189 0.06700
H 	H 	0.61905 0.25112 0.36481 0.03600
C 	C 	0.54637 0.03728 0.53863 0.10300
C 	C 	0.59059 0.04856 0.51965 -0.09000
C 	C 	0.61584 0.09273 0.52030 0.03100
C 	C 	0.59658 0.12627 0.53936 -0.09300
C 	C 	0.55270 0.11473 0.55928 0.02900
C 	C 	0.52755 0.07050 0.55867 -0.08700
H 	H 	0.60518 0.02313 0.50401 0.06400
H 	H 	0.64989 0.10097 0.50526 0.04100
H 	H 	0.53768 0.14010 0.57460 0.03800
H 	H 	0.49311 0.06222 0.57300 0.06600
N 	N 	0.51956 0.99320 0.53480 -0.08500
N 	N 	0.49472 0.97506 0.56380 -0.08700
C 	C 	0.41954 0.84242 0.54897 -0.09400
C 	C 	0.44870 0.85427 0.58335 0.03200
C 	C 	0.47257 0.89851 0.58874 -0.09100
C 	C 	0.46804 0.93105 0.55958 0.10700
C 	C 	0.43753 0.91968 0.52601 -0.08800
C 	C 	0.41329 0.87553 0.52074 0.03200
H 	H 	0.45325 0.82913 0.60564 0.03400
H 	H 	0.49550 0.90729 0.61504 0.06500
H 	H 	0.43312 0.94492 0.50379 0.06700
H 	H 	0.39063 0.86693 0.49424 0.04000
C 	C 	0.07275 0.51902 0.43629 0.10600
C 	C 	0.10934 0.51378 0.40979 -0.09100
C 	C 	0.15441 0.54044 0.41457 0.03200
C 	C 	0.16303 0.57297 0.44567 -0.09500
C 	C 	0.12577 0.57940 0.47117 0.03200
C 	C 	0.08084 0.55251 0.46651 -0.08800
H 	H 	0.10306 0.48850 0.38598 0.06400
H 	H 	0.18263 0.53566 0.39424 0.03400
H 	H 	0.13173 0.60469 0.49499 0.04100
H 	H 	0.05241 0.55746 0.48650 0.06700
N 	N 	0.02778 0.49061 0.43241 -0.08700
N 	N 	0.00696 0.47222 0.46333 -0.08500
C 	C 	0.86945 0.39265 0.45940 -0.09500
C 	C 	0.90485 0.37935 0.48307 0.03100
C 	C 	0.95056 0.40533 0.48355 -0.09000
C 	C 	0.96165 0.44429 0.45986 0.10300
C 	C 	0.92665 0.45717 0.43543 -0.08800
C 	C 	0.88082 0.43133 0.43502 0.02900
H 	H 	0.89679 0.34939 0.50172 0.04100
H 	H 	0.97733 0.39541 0.50265 0.06400
H 	H 	0.93473 0.48760 0.41744 0.06500
H 	H 	0.85405 0.44171 0.41623 0.03500
C 	C 	0.56089 0.45419 0.51315 0.10800
C 	C 	0.61025 0.46373 0.51531 -0.09700
C 	C 	0.63541 0.42931 0.51209 0.03800
C 	C 	0.61133 0.38500 0.50627 -0.12300
C 	C 	0.56180 0.37528 0.50481 0.04400
C 	C 	0.53668 0.40971 0.50799 -0.09500
H 	H 	0.62914 0.49795 0.51895 0.06300
H 	H 	0.67362 0.43713 0.51363 0.01900
H 	H 	0.54283 0.34125 0.50005 0.03200
H 	H 	0.49857 0.40199 0.50545 0.06700
N 	N 	0.53620 0.48983 0.51252 -0.08800
N 	N 	0.49505 0.48459 0.52594 -0.08800
C 	C 	0.41715 0.58657 0.51074 -0.12300
C 	C 	0.39388 0.54161 0.51354 0.03700
C 	C 	0.41980 0.50808 0.51934 -0.09700
C 	C 	0.46907 0.51913 0.52224 0.10800
C 	C 	0.49226 0.56429 0.52118 -0.09500
C 	C 	0.46642 0.59780 0.51524 0.04400
H 	H 	0.35579 0.53263 0.51097 0.01900
H 	H 	0.40166 0.47342 0.52087 0.06300
H 	H 	0.53023 0.57335 0.52461 0.06700
H 	H 	0.48479 0.63238 0.51342 0.03300
C 	C 	0.47826 0.93009 0.04441 0.10500
C 	C 	0.49716 0.89714 0.06480 -0.08800
C 	C 	0.47408 0.85230 0.06288 0.03000
C 	C 	0.43180 0.83994 0.04064 -0.09300
C 	C 	0.41197 0.87320 0.02172 0.03100
C 	C 	0.43512 0.91806 0.02371 -0.09000
H 	H 	0.52968 0.90627 0.08208 0.06600
H 	H 	0.48922 0.82717 0.07847 0.03800
H 	H 	0.37897 0.86432 0.00509 0.04100
H 	H 	0.41986 0.94344 0.00867 0.06400
N 	N 	0.50182 0.97557 0.04542 -0.08600
N 	N 	0.54582 0.98586 0.04563 -0.08500
C 	C 	0.61559 0.12164 0.04353 -0.09300
C 	C 	0.57352 0.10860 0.06593 0.02900
C 	C 	0.55054 0.06369 0.06700 -0.08700
C 	C 	0.56938 0.03135 0.04561 0.10300
C 	C 	0.61240 0.04399 0.02486 -0.09000
C 	C 	0.63544 0.08893 0.02370 0.03000
H 	H 	0.55840 0.13327 0.08224 0.03800
H 	H 	0.51813 0.05404 0.08434 0.06500
H 	H 	0.62764 0.01906 0.00909 0.06300
H 	H 	0.66833 0.09830 0.00698 0.04000
C 	C 	0.08272 0.50692 0.94436 0.10500
C 	C 	0.12115 0.49662 0.92306 -0.09100
C 	C 	0.16565 0.52468 0.92593 0.03100
C 	C 	0.17231 0.56309 0.95077 -0.09500
C 	C 	0.13356 0.57388 0.97161 0.03100
C 	C 	0.08903 0.54576 0.96866 -0.08800
H 	H 	0.11658 0.46662 0.90448 0.06400
H 	H 	0.19505 0.51626 0.90924 0.03600
H 	H 	0.13803 0.60352 0.99068 0.04200
H 	H 	0.05970 0.55368 0.98581 0.06800
N 	N 	0.03870 0.47641 0.94353 -0.08600
N 	N 	0.00091 0.49008 0.94474 -0.08500
C 	C 	0.86797 0.40189 0.94999 -0.09400
C 	C 	0.87328 0.44287 0.92906 0.03000
C 	C 	0.91748 0.47161 0.92695 -0.09100
C 	C 	0.95692 0.45947 0.94507 0.10300
C 	C 	0.95191 0.41815 0.96542 -0.08700
C 	C 	0.90773 0.38936 0.96758 0.03000
H 	H 	0.84309 0.45274 0.91487 0.03600
H 	H 	0.92105 0.50348 0.91139 0.06300
H 	H 	0.98203 0.40870 0.98011 0.06600
H 	H 	0.90433 0.35773 0.98352 0.04100
C 	C 	0.47467 0.51234 0.02457 0.10800
C 	C 	0.42529 0.50355 0.02602 -0.09700
C 	C 	0.40082 0.53815 0.02039 0.03700
C 	C 	0.42562 0.58188 0.01292 -0.12400
C 	C 	0.47516 0.59103 0.01272 0.04400
C 	C 	0.49962 0.55639 0.01827 -0.09500
H 	H 	0.40585 0.46967 0.03061 0.06300
H 	H 	0.36258 0.53083 0.02105 0.01900
H 	H 	0.49469 0.62464 0.00685 0.03200
H 	H 	0.53778 0.56353 0.01641 0.06600
N 	N 	0.49861 0.47617 0.02495 -0.08800
N 	N 	0.53964 0.48105 0.03855 -0.08800
C 	C 	0.61656 0.37909 0.01951 -0.12300
C 	C 	0.64016 0.42384 0.02345 0.03700
C 	C 	0.61463 0.45731 0.03099 -0.09700
C 	C 	0.56541 0.44641 0.03452 0.10700
C 	C 	0.54199 0.40134 0.03279 -0.09500
C 	C 	0.56744 0.36788 0.02511 0.04300
H 	H 	0.67818 0.43275 0.02015 0.01900
H 	H 	0.63297 0.49187 0.03308 0.06200
H 	H 	0.50408 0.39235 0.03679 0.06700
H 	H 	0.54885 0.33343 0.02257 0.03300
C 	C 	0.32656 0.67295 0.80216 0.10700
C 	C 	0.37317 0.69100 0.81428 -0.09200
C 	C 	0.38419 0.69794 0.85589 0.03800
C 	C 	0.34883 0.68666 0.88585 -0.11300
C 	C 	0.30234 0.66826 0.87366 0.03400
C 	C 	0.29140 0.66128 0.83201 -0.09300
H 	H 	0.40091 0.69906 0.79154 0.06700
H 	H 	0.42031 0.71152 0.86482 0.03700
H 	H 	0.27472 0.65922 0.89638 0.02400
H 	H 	0.25555 0.64679 0.82292 0.06500
N 	N 	0.31530 0.66427 0.76015 -0.08700
N 	N 	0.33672 0.68889 0.73274 -0.08700
C 	C 	0.31427 0.66079 0.60632 -0.11200
C 	C 	0.30882 0.62558 0.63484 0.03900
C 	C 	0.31528 0.63471 0.67678 -0.09200
C 	C 	0.32699 0.67920 0.69065 0.10700
C 	C 	0.33247 0.71427 0.66223 -0.09300
C 	C 	0.32596 0.70522 0.62030 0.03500
H 	H 	0.30046 0.59116 0.62449 0.03500
H 	H 	0.31209 0.60728 0.69837 0.06700
H 	H 	0.34210 0.74860 0.67265 0.06500
H 	H 	0.33035 0.73274 0.59872 0.02600
C 	C 	0.33436 0.68077 0.19095 0.10700
C 	C 	0.34263 0.71478 0.16142 -0.09300
C 	C 	0.33798 0.70429 0.11961 0.03600
C 	C 	0.32528 0.65945 0.10692 -0.11000
C 	C 	0.31742 0.62529 0.13656 0.03800
C 	C 	0.32203 0.63587 0.17835 -0.09200
H 	H 	0.35286 0.74940 0.17089 0.06500
H 	H 	0.34448 0.73100 0.09716 0.02500
H 	H 	0.30837 0.59054 0.12725 0.03500
H 	H 	0.31680 0.60921 0.20086 0.06700
N 	N 	0.34167 0.69182 0.23308 -0.08700
N 	N 	0.31783 0.66873 0.26022 -0.08700
C 	C 	0.34446 0.69339 0.38673 -0.11400
C 	C 	0.38150 0.70382 0.35821 0.03800
C 	C 	0.37275 0.69628 0.31631 -0.09200
C 	C 	0.32676 0.67850 0.30243 0.10700
C 	C 	0.28987 0.66790 0.33086 -0.09400
C 	C 	0.29854 0.67547 0.37280 0.03400
H 	H 	0.41718 0.71711 0.36851 0.03600
H 	H 	0.40179 0.70357 0.29474 0.06700
H 	H 	0.25446 0.65365 0.32044 0.06400
H 	H 	0.26962 0.66721 0.39439 0.02400
