data_crystal

_cell_length_a 26.19686
_cell_length_b 26.51324
_cell_length_c 26.47896
_cell_angle_alpha 95.48741
_cell_angle_beta  95.48704
_cell_angle_gamma 125.83519

_symmetry_space_group_name_	'P 1'
_symmetry_space_group_name_H-M	'P 1'

loop_
_symmetry_equiv_pos_as_xyz
  x,y,z

loop_
_atom_site_label
_atom_site_type_symbol
_atom_site_fract_x
_atom_site_fract_y
_atom_site_fract_z
_atom_site_charge
C 	C 	0.96233 0.02436 0.98415 0.02600
C 	C 	0.92510 0.95865 0.98174 -0.07000
C 	C 	0.95251 0.92682 0.97537 0.02500
C 	C 	0.01720 0.96060 0.97137 -0.07000
C 	C 	0.05474 0.02631 0.97380 0.02600
C 	C 	0.02721 0.05818 0.98015 -0.07000
H 	H 	0.87490 0.93236 0.98457 0.05000
H 	H 	0.03850 0.93594 0.96702 0.04900
H 	H 	0.05612 0.10899 0.98205 0.04900
C 	C 	0.94328 0.00759 0.45784 0.02500
C 	C 	0.90695 0.94244 0.45858 -0.07300
C 	C 	0.93704 0.91272 0.46105 0.02600
C 	C 	0.00307 0.94792 0.46170 -0.07100
C 	C 	0.03957 0.01304 0.46148 0.02700
C 	C 	0.00959 0.04279 0.45964 -0.07100
H 	H 	0.85583 0.91526 0.45787 0.04800
H 	H 	0.02600 0.92464 0.46243 0.04900
H 	H 	0.03776 0.09321 0.45965 0.04900
Cu	Cu	0.63578 0.23733 0.00345 0.92600
Cu	Cu	0.68321 0.23902 0.89320 0.86600
Cu	Cu	0.66943 0.33644 0.93678 0.89800
Cu	Cu	0.64795 0.36052 0.04157 0.89200
C 	C 	0.66131 0.28609 0.11158 0.28800
O 	O 	0.54478 0.20716 0.00573 -0.36800
C 	C 	0.65433 0.29970 0.82496 0.28300
O 	O 	0.69243 0.33616 0.00774 -0.64200
O 	O 	0.62502 0.24348 0.93000 -0.64000
O 	O 	0.66996 0.18727 0.99733 -0.37100
O 	O 	0.74214 0.25256 0.95027 -0.44200
O 	O 	0.63421 0.31350 0.09950 -0.38600
O 	O 	0.71876 0.42747 0.94576 -0.38900
C 	C 	0.71540 0.46431 0.98036 0.30000
C 	C 	0.52285 0.23694 0.98743 0.28600
O 	O 	0.56332 0.29612 0.98215 -0.39800
O 	O 	0.69283 0.44619 0.02302 -0.40100
O 	O 	0.66044 0.24682 0.07625 -0.36000
C 	C 	0.72365 0.21043 0.98020 0.28800
O 	O 	0.65177 0.33436 0.86256 -0.37700
O 	O 	0.64637 0.24697 0.83140 -0.42000
H 	H 	0.73911 0.36196 0.02115 0.16400
H 	H 	0.58028 0.21734 0.91078 0.17300
Cu	Cu	0.74151 0.34325 0.43745 0.92700
Cu	Cu	0.74337 0.30046 0.54917 0.86600
Cu	Cu	0.64230 0.31084 0.50531 0.89700
Cu	Cu	0.61478 0.32750 0.39946 0.89400
C 	C 	0.69030 0.31482 0.32923 0.28800
O 	O 	0.77030 0.43254 0.43343 -0.36300
C 	C 	0.68220 0.32920 0.61719 0.28300
O 	O 	0.64160 0.28602 0.43447 -0.64000
O 	O 	0.73649 0.35576 0.51099 -0.64100
O 	O 	0.79285 0.31002 0.44409 -0.37300
O 	O 	0.72842 0.24056 0.49304 -0.44300
O 	O 	0.66128 0.34035 0.34091 -0.38700
O 	O 	0.55003 0.26087 0.49794 -0.38700
C 	C 	0.50958 0.25353 0.45873 0.29500
C 	C 	0.73882 0.45327 0.45053 0.28100
O 	O 	0.67980 0.41252 0.45735 -0.39900
O 	O 	0.52910 0.28351 0.41957 -0.39600
O 	O 	0.73082 0.31703 0.36477 -0.35900
C 	C 	0.77000 0.25765 0.46226 0.28900
O 	O 	0.64609 0.33051 0.57963 -0.37500
O 	O 	0.73600 0.33824 0.61046 -0.42000
H 	H 	0.61611 0.23974 0.42209 0.16300
H 	H 	0.76265 0.40035 0.52931 0.17300
C 	C 	0.66784 0.32818 0.66967 -0.07900
C 	C 	0.71476 0.37709 0.71040 -0.02400
C 	C 	0.70856 0.37040 0.76175 0.03400
C 	C 	0.65488 0.31409 0.77259 -0.07900
C 	C 	0.60533 0.26771 0.73191 -0.02300
C 	C 	0.61143 0.27448 0.68057 0.03300
S 	S 	0.76984 0.43149 0.81197 -0.06800
S 	S 	0.54954 0.21396 0.63037 -0.06700
H 	H 	0.50772 0.22749 0.61615 0.04500
H 	H 	0.75514 0.47165 0.82752 0.04600
H 	H 	0.75736 0.41926 0.70214 0.04200
H 	H 	0.56311 0.22518 0.74017 0.04200
C 	C 	0.67600 0.28545 0.16636 -0.07400
C 	C 	0.73244 0.33905 0.19737 -0.02700
C 	C 	0.74033 0.34683 0.25129 0.04000
C 	C 	0.69130 0.30038 0.27453 -0.07400
C 	C 	0.63743 0.24431 0.24351 -0.02800
C 	C 	0.62945 0.23662 0.18959 0.04000
S 	S 	0.81018 0.41642 0.28920 -0.03800
S 	S 	0.55948 0.16715 0.15167 -0.03900
H 	H 	0.51377 0.17666 0.14121 0.03900
H 	H 	0.79957 0.46083 0.29984 0.04000
H 	H 	0.76883 0.37618 0.17957 0.03200
H 	H 	0.60015 0.20803 0.26131 0.03200
C 	C 	0.82825 0.73494 0.41970 -0.03900
C 	C 	0.84436 0.71644 0.46269 -0.00100
C 	C 	0.88651 0.76209 0.50680 -0.03900
C 	C 	0.91405 0.82600 0.50732 -0.03900
C 	C 	0.89987 0.84484 0.46362 -0.00200
C 	C 	0.85592 0.79892 0.42017 -0.03900
C 	C 	0.81778 0.64941 0.46121 0.02500
H 	H 	0.89858 0.74815 0.54040 0.03700
H 	H 	0.94776 0.86110 0.54111 0.03700
H 	H 	0.84479 0.81300 0.38622 0.03700
H 	H 	0.79538 0.69994 0.38559 0.03700
C 	C 	0.75185 0.60382 0.45838 -0.06700
C 	C 	0.72633 0.54011 0.45581 0.01200
C 	C 	0.76656 0.52119 0.45591 -0.08900
C 	C 	0.83279 0.56711 0.45944 0.01200
C 	C 	0.85825 0.63092 0.46208 -0.06700
H 	H 	0.72032 0.61773 0.45794 0.04500
H 	H 	0.67514 0.50537 0.45295 0.02900
H 	H 	0.86453 0.55346 0.46001 0.03200
H 	H 	0.90930 0.66590 0.46437 0.04400
C 	C 	0.84568 0.06086 0.40703 -0.03800
C 	C 	0.86404 0.10968 0.44768 -0.00200
C 	C 	0.90555 0.12234 0.49279 -0.03900
C 	C 	0.92951 0.08735 0.49684 -0.04000
C 	C 	0.91227 0.03943 0.45579 -0.00100
C 	C 	0.86975 0.02588 0.41106 -0.04000
C 	C 	0.83848 0.14645 0.44373 0.02600
H 	H 	0.91929 0.15933 0.52466 0.03500
H 	H 	0.96219 0.09806 0.53156 0.03700
H 	H 	0.85640 0.98918 0.37907 0.03800
H 	H 	0.81333 0.05046 0.37219 0.03800
C 	C 	0.88025 0.21206 0.44543 -0.06900
C 	C 	0.85718 0.24817 0.44825 0.01300
C 	C 	0.79222 0.21896 0.44967 -0.09600
C 	C 	0.74992 0.15284 0.44507 0.01400
C 	C 	0.77296 0.11680 0.44215 -0.06900
H 	H 	0.93083 0.23528 0.44603 0.04500
H 	H 	0.89027 0.29907 0.45153 0.02900
H 	H 	0.69948 0.12960 0.44525 0.02700
H 	H 	0.74025 0.06612 0.44037 0.04400
C 	C 	0.21359 0.08070 0.50234 -0.03900
C 	C 	0.24110 0.11617 0.46388 -0.00100
C 	C 	0.20256 0.11918 0.42550 -0.03900
C 	C 	0.13691 0.08584 0.42486 -0.03800
C 	C 	0.10933 0.05006 0.46314 -0.00100
C 	C 	0.14815 0.04828 0.50224 -0.03900
C 	C 	0.31003 0.14947 0.46337 0.02700
H 	H 	0.22344 0.14702 0.39599 0.03800
H 	H 	0.10737 0.08732 0.39439 0.03800
H 	H 	0.12747 0.02134 0.53227 0.03700
H 	H 	0.24283 0.07788 0.53204 0.03700
C 	C 	0.35606 0.19236 0.50727 -0.06800
C 	C 	0.42132 0.22501 0.50627 0.01600
C 	C 	0.44112 0.21581 0.46112 -0.09100
C 	C 	0.39517 0.17244 0.41745 0.01500
C 	C 	0.32992 0.13901 0.41869 -0.06800
H 	H 	0.34128 0.20098 0.54189 0.04600
H 	H 	0.45647 0.25859 0.54014 0.03300
H 	H 	0.41002 0.16465 0.38256 0.02400
H 	H 	0.29481 0.10528 0.38488 0.04400
C 	C 	0.86914 0.76980 0.01906 -0.04400
C 	C 	0.84340 0.72755 0.97164 0.00400
C 	C 	0.85256 0.75093 0.92537 -0.04000
C 	C 	0.88779 0.81608 0.92658 -0.03900
C 	C 	0.91379 0.85822 0.97400 0.00300
C 	C 	0.90406 0.83487 0.02021 -0.04300
C 	C 	0.80800 0.65902 0.97057 0.02500
H 	H 	0.83259 0.71867 0.88857 0.03800
H 	H 	0.89509 0.83384 0.89073 0.03800
H 	H 	0.92411 0.86721 0.05697 0.03700
H 	H 	0.86262 0.75223 0.05499 0.03700
C 	C 	0.83059 0.62672 0.94918 -0.06700
C 	C 	0.79946 0.56271 0.95118 0.01600
C 	C 	0.74564 0.53052 0.97493 -0.09100
C 	C 	0.72213 0.56251 0.99512 0.02000
C 	C 	0.75310 0.62641 0.99286 -0.06300
H 	H 	0.87297 0.65152 0.93190 0.04500
H 	H 	0.81810 0.53863 0.93541 0.03100
H 	H 	0.68005 0.53794 0.01276 0.02400
H 	H 	0.73486 0.65077 0.00891 0.04100
C 	C 	0.86394 0.20387 0.99980 -0.05000
C 	C 	0.83288 0.13930 0.00013 0.00400
C 	C 	0.76664 0.09947 0.99937 -0.05500
C 	C 	0.73124 0.12343 0.99570 0.00700
C 	C 	0.76181 0.18735 0.99249 -0.09000
C 	C 	0.82861 0.22780 0.99600 0.00600
C 	C 	0.86877 0.11257 0.99732 0.01400
H 	H 	0.74229 0.04958 0.99991 0.04200
H 	H 	0.67979 0.09176 0.99324 0.03300
H 	H 	0.85294 0.27749 0.99459 0.03000
H 	H 	0.91522 0.23517 0.00119 0.03600
C 	C 	0.89610 0.11411 0.95386 -0.04500
C 	C 	0.92805 0.08670 0.95016 -0.03700
C 	C 	0.93292 0.05746 0.98986 0.00100
C 	C 	0.90658 0.05690 0.03376 -0.04100
C 	C 	0.87457 0.08430 0.03744 -0.04800
H 	H 	0.89173 0.13572 0.92264 0.03700
H 	H 	0.94798 0.08713 0.91604 0.03600
H 	H 	0.91035 0.03467 0.06471 0.03600
H 	H 	0.85397 0.08322 0.07127 0.04000
C 	C 	0.36576 0.21537 0.97242 -0.06600
C 	C 	0.32185 0.14995 0.97001 0.02500
C 	C 	0.34351 0.11250 0.97020 -0.06600
C 	C 	0.40889 0.14054 0.97432 0.01300
C 	C 	0.45327 0.20642 0.97840 -0.09000
C 	C 	0.43111 0.24351 0.97652 0.01200
C 	C 	0.25364 0.12109 0.96966 0.00400
H 	H 	0.30984 0.06185 0.96812 0.04500
H 	H 	0.42503 0.11115 0.97492 0.03300
H 	H 	0.46458 0.29430 0.97942 0.03000
H 	H 	0.34936 0.24456 0.97188 0.04500
C 	C 	0.23508 0.13667 0.01291 -0.04300
C 	C 	0.17019 0.10714 0.01363 -0.04300
C 	C 	0.12333 0.06184 0.97108 0.00300
C 	C 	0.14201 0.04744 0.92731 -0.03900
C 	C 	0.20691 0.07687 0.92664 -0.04000
H 	H 	0.27086 0.17081 0.04628 0.03700
H 	H 	0.15624 0.11840 0.04767 0.03700
H 	H 	0.10619 0.01278 0.89416 0.03700
H 	H 	0.22084 0.06493 0.89293 0.03800
