data_crystal

_cell_length_a 26.19308
_cell_length_b 26.38804
_cell_length_c 26.28263
_cell_angle_alpha 95.50588
_cell_angle_beta  95.50727
_cell_angle_gamma 125.78604

_symmetry_space_group_name_	'P 1'
_symmetry_space_group_name_H-M	'P 1'

loop_
_symmetry_equiv_pos_as_xyz
  x,y,z

loop_
_atom_site_label
_atom_site_type_symbol
_atom_site_fract_x
_atom_site_fract_y
_atom_site_fract_z
_atom_site_charge
C 	C 	0.95010 0.02808 0.45643 0.02700
C 	C 	0.04095 0.02600 0.45021 0.02700
C 	C 	0.86593 0.04107 0.42469 -0.06300
H 	H 	0.79721 0.01620 0.08470 0.04800
H 	H 	0.87975 0.00887 0.05797 0.04800
C 	C 	0.95931 0.01876 0.99423 0.03100
C 	C 	0.05108 0.01741 0.99101 0.03100
C 	C 	0.78278 0.05216 0.39414 -0.04400
C 	C 	0.01343 0.05824 0.44899 -0.06900
H 	H 	0.71048 0.06543 0.37398 0.06200
H 	H 	0.13372 0.05328 0.52717 0.05200
C 	C 	0.88970 0.04217 0.03224 -0.05600
H 	H 	0.13815 0.02894 0.06439 0.05200
C 	C 	0.92296 0.06399 0.45840 0.01500
C 	C 	0.10960 0.06018 0.44869 0.01500
C 	C 	0.80932 0.05147 0.06059 -0.04500
H 	H 	0.73386 0.05719 0.07678 0.05100
H 	H 	0.23727 0.04508 0.09868 0.05100
C 	C 	0.02551 0.05139 0.99632 -0.07700
C 	C 	0.84297 0.07770 0.42383 0.03500
C 	C 	0.15185 0.07054 0.49240 -0.06400
C 	C 	0.93175 0.05423 0.99779 0.00500
C 	C 	0.11997 0.05109 0.99114 0.00800
C 	C 	0.15841 0.05045 0.03157 -0.05900
H 	H 	0.10095 0.07877 0.37134 0.04700
C 	C 	0.75815 0.08693 0.39550 -0.02800
C 	C 	0.13315 0.08473 0.40453 -0.04300
C 	C 	0.77352 0.07496 0.05630 -0.02900
C 	C 	0.85837 0.07085 0.03192 0.03100
C 	C 	0.25793 0.06810 0.06658 -0.04600
C 	C 	0.14515 0.07669 0.94781 -0.04200
C 	C 	0.22195 0.07488 0.02866 0.03700
H 	H 	0.11475 0.07480 0.91547 0.04500
H 	H 	0.34633 0.08216 0.09178 0.05400
C 	C 	0.31993 0.08926 0.06271 -0.03200
C 	C 	0.21756 0.10459 0.49191 0.03500
H 	H 	0.24257 0.10416 0.57259 0.05200
C 	C 	0.94395 0.09666 0.96411 -0.03900
H 	H 	0.04172 0.10723 0.44354 0.05300
C 	C 	0.20839 0.10143 0.94451 -0.02700
H 	H 	0.75411 0.00447 0.37114 0.05100
H 	H 	0.05688 0.10289 0.00193 0.05900
H 	H 	0.97439 0.10435 0.93603 0.04300
C 	C 	0.24868 0.10379 0.98612 -0.01200
C 	C 	0.19845 0.11844 0.40343 -0.02500
C 	C 	0.26025 0.11969 0.53732 -0.04400
H 	H 	0.22409 0.11455 0.90831 0.04300
C 	C 	0.87367 0.11666 0.00020 -0.00400
C 	C 	0.95577 0.12260 0.49257 -0.04300
C 	C 	0.34870 0.12126 0.02269 0.01600
C 	C 	0.78922 0.12169 0.02632 0.00700
H 	H 	0.70932 0.12298 0.03774 0.05700
C 	C 	0.24100 0.12582 0.44607 -0.00800
C 	C 	0.91493 0.12730 0.96486 -0.03300
C 	C 	0.91908 0.95205 0.98717 -0.07400
C 	C 	0.94491 0.91827 0.98301 0.02900
C 	C 	0.01075 0.95097 0.98457 -0.07200
H 	H 	0.86786 0.92651 0.98478 0.05300
H 	H 	0.03065 0.92477 0.98101 0.05500
C 	C 	0.91385 0.96476 0.46408 -0.07000
C 	C 	0.94094 0.93186 0.46412 0.02600
C 	C 	0.00431 0.96254 0.45672 -0.06800
H 	H 	0.86532 0.94163 0.47081 0.05300
H 	H 	0.02538 0.93733 0.45679 0.05500
Cu	Cu	0.63485 0.23346 0.00493 0.93300
Cu	Cu	0.66834 0.21770 0.88958 0.87900
Cu	Cu	0.66421 0.32514 0.92929 0.90900
Cu	Cu	0.63389 0.35148 0.03265 0.91600
C 	C 	0.66472 0.29464 0.11136 0.30400
O 	O 	0.54204 0.19482 0.00884 -0.34900
C 	C 	0.63173 0.26839 0.81726 0.29100
O 	O 	0.68327 0.33064 0.00280 -0.63200
O 	O 	0.61873 0.23215 0.92943 -0.63800
O 	O 	0.67716 0.19032 0.00331 -0.35400
O 	O 	0.73650 0.24524 0.94446 -0.42700
O 	O 	0.63232 0.31654 0.09713 -0.34000
O 	O 	0.71138 0.41634 0.93536 -0.33800
C 	C 	0.70884 0.45264 0.97178 0.28700
C 	C 	0.51391 0.21848 0.98902 0.27400
O 	O 	0.54880 0.27548 0.97760 -0.37000
O 	O 	0.66402 0.42766 0.00057 -0.35400
O 	O 	0.66278 0.25172 0.07894 -0.33400
C 	C 	0.72719 0.21157 0.98089 0.28600
O 	O 	0.66217 0.32080 0.85319 -0.32200
O 	O 	0.62038 0.21581 0.82930 -0.39700
H 	H 	0.72960 0.35938 0.01807 0.20800
H 	H 	0.57288 0.20589 0.91291 0.18600
Cu	Cu	0.74833 0.36598 0.44100 0.93300
Cu	Cu	0.74221 0.31023 0.54799 0.90200
Cu	Cu	0.63909 0.31852 0.50157 0.90900
Cu	Cu	0.62206 0.34999 0.39808 0.90800
C 	C 	0.70389 0.34367 0.33127 0.30700
O 	O 	0.77721 0.45652 0.44350 -0.35200
C 	C 	0.66715 0.31935 0.61290 0.29900
O 	O 	0.64729 0.30539 0.43071 -0.63400
O 	O 	0.73458 0.36815 0.51365 -0.63300
O 	O 	0.80245 0.33566 0.44728 -0.35100
O 	O 	0.73439 0.25734 0.48884 -0.38900
O 	O 	0.67301 0.36771 0.34168 -0.35600
O 	O 	0.54655 0.26430 0.48641 -0.35100
C 	C 	0.50987 0.26525 0.44886 0.29200
C 	C 	0.74270 0.47443 0.45877 0.28100
O 	O 	0.68233 0.43148 0.46101 -0.38700
O 	O 	0.53404 0.30325 0.41463 -0.37100
O 	O 	0.74617 0.34945 0.36782 -0.31900
C 	C 	0.77942 0.28055 0.46090 0.29200
O 	O 	0.63211 0.32284 0.57574 -0.34500
O 	O 	0.72524 0.33790 0.60934 -0.36800
H 	H 	0.62410 0.26025 0.41416 0.22000
H 	H 	0.75751 0.41115 0.53506 0.17700
C 	C 	0.62520 0.23116 0.72445 0.05100
C 	C 	0.62368 0.27239 0.76128 0.00000
C 	C 	0.62095 0.32055 0.74458 -0.10000
C 	C 	0.63502 0.33557 0.69537 0.05500
C 	C 	0.64237 0.29763 0.66043 -0.00300
C 	C 	0.63109 0.24150 0.67326 -0.10300
C 	C 	0.62925 0.19451 0.63348 0.77600
H 	H 	0.62430 0.19243 0.73617 0.07100
H 	H 	0.64088 0.37707 0.68453 0.07200
C 	C 	0.60223 0.35523 0.77798 0.78200
F 	F 	0.59886 0.13561 0.64792 -0.44700
F 	F 	0.69110 0.21700 0.62927 -0.48600
F 	F 	0.59604 0.18608 0.58533 -0.47100
F 	F 	0.65626 0.40796 0.81068 -0.45500
F 	F 	0.55852 0.31585 0.80731 -0.45700
F 	F 	0.57395 0.37538 0.74712 -0.44800
C 	C 	0.74440 0.37722 0.25038 0.05800
C 	C 	0.70532 0.32781 0.27649 0.00100
C 	C 	0.66206 0.26466 0.24847 -0.10200
C 	C 	0.65214 0.25358 0.19373 0.05500
C 	C 	0.68721 0.30407 0.16736 0.00300
C 	C 	0.73740 0.36539 0.19592 -0.10200
C 	C 	0.78079 0.41917 0.16831 0.77900
H 	H 	0.77842 0.42530 0.27233 0.07700
H 	H 	0.61477 0.20640 0.17152 0.07800
C 	C 	0.62322 0.20985 0.27659 0.77800
F 	F 	0.83661 0.46834 0.20198 -0.44600
F 	F 	0.74918 0.44256 0.14857 -0.47400
F 	F 	0.79777 0.39769 0.12793 -0.46300
F 	F 	0.57719 0.21274 0.29523 -0.47200
F 	F 	0.66286 0.21341 0.31789 -0.45800
F 	F 	0.59287 0.15161 0.24395 -0.44700
C 	C 	0.90354 0.86548 0.47263 0.01600
C 	C 	0.92805 0.84935 0.51253 -0.04500
C 	C 	0.89929 0.78559 0.51511 -0.02500
C 	C 	0.84637 0.73685 0.47668 -0.01100
C 	C 	0.81668 0.75328 0.44092 0.03700
C 	C 	0.84641 0.81752 0.43815 -0.06500
C 	C 	0.75766 0.70549 0.40859 -0.04800
C 	C 	0.72862 0.64161 0.41048 -0.02800
C 	C 	0.76021 0.62416 0.44200 0.00700
C 	C 	0.82079 0.67170 0.47392 0.01800
C 	C 	0.85648 0.65329 0.49846 -0.05200
C 	C 	0.83019 0.58889 0.49445 0.01100
C 	C 	0.76867 0.54194 0.46543 -0.06900
C 	C 	0.73356 0.55962 0.43964 -0.00900
H 	H 	0.97007 0.88635 0.54116 0.04500
H 	H 	0.91673 0.77459 0.54803 0.04000
H 	H 	0.82606 0.83006 0.40850 0.05100
H 	H 	0.73382 0.71785 0.38223 0.04900
H 	H 	0.68243 0.60541 0.38585 0.04500
H 	H 	0.90572 0.68831 0.51792 0.05000
H 	H 	0.85825 0.57554 0.51324 0.03700
H 	H 	0.68671 0.52324 0.41588 0.03800
C 	C 	0.80872 0.24822 0.45017 -0.05600
C 	C 	0.87350 0.27858 0.47062 0.00600
C 	C 	0.89849 0.24405 0.47014 -0.04700
C 	C 	0.85812 0.17793 0.45028 0.01600
C 	C 	0.79517 0.14951 0.42358 0.01800
C 	C 	0.77019 0.18432 0.42504 -0.00600
C 	C 	0.87976 0.13975 0.45442 -0.00700
C 	C 	0.93426 0.16006 0.49104 -0.02500
H 	H 	0.90418 0.32864 0.48818 0.03800
H 	H 	0.94934 0.26928 0.48351 0.04900
H 	H 	0.72067 0.16154 0.40742 0.07900
H 	H 	0.95824 0.20301 0.52000 0.04200
H 	H 	0.99810 0.13916 0.52048 0.04600
H 	H 	0.83957 0.99498 0.39923 0.05000
C 	C 	0.32597 0.15649 0.53811 -0.02900
C 	C 	0.34997 0.17553 0.49265 0.01600
C 	C 	0.30736 0.15742 0.44546 0.01500
C 	C 	0.33162 0.16848 0.39875 -0.04700
C 	C 	0.39757 0.20384 0.40009 0.00800
C 	C 	0.44016 0.22635 0.44750 -0.05500
C 	C 	0.41613 0.21120 0.49359 -0.01300
H 	H 	0.21587 0.14151 0.37075 0.04100
H 	H 	0.35832 0.16929 0.57406 0.06000
H 	H 	0.29983 0.14714 0.36130 0.05100
H 	H 	0.41543 0.21249 0.36397 0.05200
H 	H 	0.44885 0.22725 0.53017 0.06900
C 	C 	0.90348 0.84877 0.97908 0.00800
C 	C 	0.87537 0.82235 0.02124 -0.03700
C 	C 	0.84215 0.75725 0.02022 -0.02200
C 	C 	0.83901 0.71797 0.97758 -0.00900
C 	C 	0.86152 0.74364 0.93286 0.03300
C 	C 	0.89497 0.80921 0.93434 -0.06300
C 	C 	0.84941 0.70341 0.88700 -0.04300
C 	C 	0.81519 0.63805 0.88509 -0.03300
C 	C 	0.79616 0.61237 0.92993 0.02300
C 	C 	0.81111 0.65279 0.97737 0.00800
C 	C 	0.80131 0.62795 0.02367 -0.03600
C 	C 	0.76915 0.56285 0.02162 0.00700
C 	C 	0.74848 0.52181 0.97387 -0.04900
C 	C 	0.76357 0.54682 0.92823 -0.01800
H 	H 	0.87958 0.85242 0.05504 0.04500
H 	H 	0.81688 0.73743 0.05148 0.04300
H 	H 	0.91475 0.82952 0.90097 0.05100
H 	H 	0.86551 0.72266 0.85239 0.04900
H 	H 	0.80470 0.60748 0.84889 0.06000
H 	H 	0.82096 0.65891 0.06135 0.05300
H 	H 	0.76070 0.54426 0.05739 0.06400
H 	H 	0.74941 0.51539 0.89147 0.09300
C 	C 	0.77046 0.19387 0.99364 -0.07600
C 	C 	0.82857 0.22414 0.97546 0.01100
C 	C 	0.86493 0.20130 0.97991 -0.05900
C 	C 	0.84265 0.14641 0.00137 0.02100
C 	C 	0.75237 0.14443 0.02119 -0.00500
H 	H 	0.84552 0.26535 0.95759 0.04300
H 	H 	0.91132 0.22791 0.96862 0.05000
H 	H 	0.92150 0.15583 0.93570 0.04200
C 	C 	0.31428 0.13128 0.98519 0.01000
C 	C 	0.34724 0.17155 0.95000 -0.04700
C 	C 	0.41102 0.19638 0.94927 0.00400
C 	C 	0.44428 0.18450 0.98517 -0.06700
C 	C 	0.41275 0.14625 0.02137 -0.01200
H 	H 	0.32541 0.18717 0.92554 0.05200
H 	H 	0.43538 0.22695 0.92187 0.05800
H 	H 	0.43890 0.13843 0.05009 0.05800
