data_crystal

_cell_length_a 23.60233
_cell_length_b 24.62137
_cell_length_c 44.53838
_cell_angle_alpha 95.49406
_cell_angle_beta  95.49350
_cell_angle_gamma 125.81857

_symmetry_space_group_name_	'P 1'
_symmetry_space_group_name_H-M	'P 1'

loop_
_symmetry_equiv_pos_as_xyz
  x,y,z

loop_
_atom_site_label
_atom_site_type_symbol
_atom_site_fract_x
_atom_site_fract_y
_atom_site_fract_z
_atom_site_charge
H 	H 	0.01426 0.08853 0.42320 0.04100
C 	C 	0.05061 0.03042 0.43627 -0.01400
C 	C 	0.00280 0.04675 0.43428 -0.03400
H 	H 	0.98042 0.04755 0.96129 0.05000
C 	C 	0.97144 0.00580 0.97178 -0.02000
Cu	Cu	0.59940 0.20449 0.00610 0.92700
Cu	Cu	0.65780 0.21629 0.94086 0.87200
Cu	Cu	0.66529 0.33059 0.97592 0.89700
Cu	Cu	0.62299 0.33897 0.03712 0.89600
C 	C 	0.62450 0.24301 0.07146 0.28700
O 	O 	0.49992 0.17814 0.00485 -0.35100
C 	C 	0.64100 0.30126 0.90800 0.29000
O 	O 	0.67122 0.31183 0.01641 -0.63900
O 	O 	0.60079 0.22853 0.96477 -0.64000
O 	O 	0.62707 0.14212 0.99873 -0.34700
O 	O 	0.71335 0.21337 0.97324 -0.43000
O 	O 	0.59935 0.27817 0.06770 -0.37900
O 	O 	0.73222 0.42858 0.98957 -0.36900
C 	C 	0.73392 0.46269 0.01490 0.25300
C 	C 	0.48357 0.21794 0.99648 0.24900
O 	O 	0.53350 0.28352 0.99897 -0.36600
O 	O 	0.68025 0.43458 0.02978 -0.36700
O 	O 	0.61402 0.19817 0.04845 -0.35300
C 	C 	0.68348 0.16059 0.98691 0.25700
O 	O 	0.67389 0.34790 0.93357 -0.38700
O 	O 	0.62513 0.24011 0.90739 -0.41700
H 	H 	0.72023 0.33243 0.02699 0.16300
H 	H 	0.55362 0.21015 0.95276 0.17200
Cu	Cu	0.76780 0.36999 0.47880 0.92700
Cu	Cu	0.74582 0.30611 0.54208 0.87200
Cu	Cu	0.64704 0.33293 0.51331 0.89800
Cu	Cu	0.65115 0.38878 0.45529 0.89500
C 	C 	0.72889 0.36276 0.41450 0.28600
O 	O 	0.82213 0.47297 0.48287 -0.33600
C 	C 	0.68395 0.34864 0.58044 0.28800
O 	O 	0.65836 0.32462 0.47143 -0.63800
O 	O 	0.75071 0.37368 0.52133 -0.64000
O 	O 	0.80490 0.31502 0.48076 -0.35000
O 	O 	0.72211 0.24125 0.50714 -0.42900
O 	O 	0.70662 0.39962 0.42221 -0.38200
O 	O 	0.54604 0.28920 0.50208 -0.36500
C 	C 	0.51846 0.30051 0.47847 0.25400
C 	C 	0.79462 0.50331 0.49277 0.24900
O 	O 	0.72704 0.46643 0.49446 -0.38200
O 	O 	0.55795 0.35572 0.46672 -0.37300
O 	O 	0.76488 0.35374 0.43545 -0.35300
C 	C 	0.76752 0.25495 0.48885 0.25400
O 	O 	0.63326 0.32533 0.55621 -0.38600
O 	O 	0.73957 0.34916 0.57822 -0.41600
H 	H 	0.62587 0.27753 0.45941 0.16300
H 	H 	0.78057 0.41993 0.53419 0.17500
C 	C 	0.63250 0.32116 0.87869 -0.09000
C 	C 	0.68656 0.38526 0.87280 0.01900
C 	C 	0.68482 0.39915 0.84311 -0.07200
C 	C 	0.62893 0.34926 0.81923 0.04600
C 	C 	0.57249 0.28715 0.82555 -0.07200
C 	C 	0.57421 0.27311 0.85516 0.02000
C 	C 	0.63387 0.35818 0.78786 -0.02900
C 	C 	0.63723 0.36485 0.76147 0.00000
C 	C 	0.64205 0.37067 0.73044 0.00000
C 	C 	0.64707 0.37407 0.70389 -0.02900
C 	C 	0.65430 0.37638 0.67219 0.04600
C 	C 	0.72196 0.41880 0.66483 -0.07200
C 	C 	0.73109 0.41241 0.63447 0.01900
C 	C 	0.67253 0.36338 0.61123 -0.09000
C 	C 	0.60410 0.32388 0.61838 0.01800
C 	C 	0.59512 0.33026 0.64880 -0.07100
H 	H 	0.73158 0.42304 0.89079 0.03600
H 	H 	0.72837 0.44755 0.83845 0.05200
H 	H 	0.52868 0.24863 0.80727 0.05100
H 	H 	0.53146 0.22399 0.85956 0.03000
H 	H 	0.76789 0.45497 0.68277 0.05100
H 	H 	0.78395 0.44413 0.62916 0.03100
H 	H 	0.55836 0.28616 0.60067 0.03800
H 	H 	0.54255 0.29753 0.65430 0.05200
C 	C 	0.72909 0.34624 0.38182 -0.08200
C 	C 	0.71921 0.28555 0.37024 0.01600
C 	C 	0.71455 0.26777 0.33879 -0.06800
C 	C 	0.72011 0.31069 0.31883 0.04600
C 	C 	0.73183 0.37205 0.33046 -0.07000
C 	C 	0.73633 0.38982 0.36179 0.01900
C 	C 	0.71123 0.29098 0.28623 -0.02800
C 	C 	0.70423 0.27715 0.25878 0.00100
C 	C 	0.69582 0.26383 0.22650 0.00200
C 	C 	0.68861 0.25505 0.19889 -0.02800
C 	C 	0.68009 0.24790 0.16596 0.04700
C 	C 	0.62260 0.18646 0.14717 -0.07000
C 	C 	0.60696 0.18334 0.11564 0.02500
C 	C 	0.64845 0.24184 0.10286 -0.08500
C 	C 	0.70809 0.30213 0.12143 0.01800
C 	C 	0.72401 0.30506 0.15284 -0.07000
H 	H 	0.71364 0.25153 0.38544 0.03900
H 	H 	0.70570 0.22031 0.32995 0.05300
H 	H 	0.73665 0.40568 0.31517 0.05200
H 	H 	0.74518 0.43733 0.37047 0.03900
H 	H 	0.58851 0.14195 0.15712 0.05400
H 	H 	0.56082 0.13648 0.10147 0.03900
H 	H 	0.74065 0.34743 0.11172 0.01900
H 	H 	0.76876 0.35261 0.16718 0.05200
C 	C 	0.83530 0.57776 0.49607 0.03900
C 	C 	0.80551 0.61073 0.50340 -0.06000
H 	H 	0.75376 0.58750 0.50963 0.05400
C 	C 	0.80476 0.14934 0.45063 0.11800
C 	C 	0.85027 0.14294 0.43524 -0.09600
C 	C 	0.87702 0.11052 0.44793 0.02800
C 	C 	0.85627 0.08127 0.47326 0.11200
C 	C 	0.80865 0.08520 0.48808 -0.08600
C 	C 	0.78199 0.11823 0.47566 0.00600
O 	O 	0.80077 0.20334 0.44956 -0.18700
C 	C 	0.77403 0.20179 0.47638 0.03600
C 	C 	0.76262 0.15149 0.49204 -0.05800
C 	C 	0.90235 0.08172 0.43305 -0.10600
H 	H 	0.86762 0.16606 0.41532 0.06900
H 	H 	0.79251 0.06298 0.50831 0.06400
H 	H 	0.76081 0.15295 0.51631 0.04100
H 	H 	0.90869 0.08196 0.40928 0.06100
C 	C 	0.22018 0.10474 0.41781 0.11200
C 	C 	0.28317 0.11123 0.42548 -0.08600
C 	C 	0.34679 0.17683 0.43576 0.00500
C 	C 	0.34745 0.23312 0.44163 0.11900
C 	C 	0.28391 0.22613 0.43616 -0.09600
C 	C 	0.22132 0.16178 0.42236 0.02700
O 	O 	0.15417 0.04421 0.41756 -0.21800
C 	C 	0.11659 0.07026 0.42373 0.12300
C 	C 	0.15604 0.14014 0.42634 -0.10600
O 	O 	0.40695 0.28743 0.46230 -0.18900
C 	C 	0.44136 0.25788 0.46864 0.04300
C 	C 	0.40437 0.19119 0.45379 -0.06100
H 	H 	0.28161 0.06645 0.42592 0.06500
H 	H 	0.28241 0.26806 0.44437 0.06900
H 	H 	0.14499 0.17150 0.43928 0.06200
H 	H 	0.42645 0.16331 0.45083 0.04400
C 	C 	0.70925 0.03284 0.98813 0.11900
C 	C 	0.76819 0.03637 0.94574 -0.08700
C 	C 	0.72541 0.04918 0.95983 0.00700
O 	O 	0.69337 0.07205 0.00442 -0.18600
C 	C 	0.70408 0.11478 0.98354 0.03500
C 	C 	0.72281 0.10136 0.95700 -0.06700
H 	H 	0.79095 0.05957 0.92648 0.06300
H 	H 	0.74688 0.13580 0.94107 0.03700
C 	C 	0.18004 0.06008 0.94433 0.11300
C 	C 	0.23854 0.05877 0.94370 -0.08600
C 	C 	0.30698 0.12053 0.95268 0.00800
C 	C 	0.31744 0.17958 0.96583 0.11900
C 	C 	0.25879 0.17952 0.96883 -0.09600
C 	C 	0.19051 0.12008 0.95582 0.02700
C 	C 	0.08484 0.03229 0.95889 0.12800
C 	C 	0.13053 0.10262 0.96535 -0.10800
O 	O 	0.38352 0.22649 0.98482 -0.19200
C 	C 	0.41025 0.18876 0.98261 0.04300
C 	C 	0.36560 0.12608 0.96342 -0.06400
H 	H 	0.26584 0.22256 0.98254 0.06900
H 	H 	0.12797 0.13413 0.98307 0.06200
H 	H 	0.36889 0.08403 0.96368 0.05300
O 	O 	0.89448 0.61527 0.48200 -0.18700
C 	C 	0.79003 0.53651 0.02351 0.04400
O 	O 	0.78418 0.57834 0.04439 -0.19100
H 	H 	0.85348 0.55112 0.98813 0.05900
C 	C 	0.84880 0.57084 0.00982 -0.06200
C 	C 	0.84158 0.66828 0.49220 0.00600
C 	C 	0.89483 0.67158 0.48039 0.11900
C 	C 	0.84456 0.64131 0.04168 0.11800
C 	C 	0.88349 0.63719 0.02152 0.00900
H 	H 	0.80236 0.72297 0.51030 0.06600
C 	C 	0.84492 0.72649 0.50101 -0.08500
C 	C 	0.95380 0.73385 0.47555 -0.09600
H 	H 	0.99553 0.73677 0.46572 0.07000
H 	H 	0.81468 0.70295 0.06147 0.06800
C 	C 	0.89845 0.03632 0.45047 0.12100
C 	C 	0.85095 0.70165 0.04879 -0.09400
C 	C 	0.92565 0.69052 0.00601 -0.08700
H 	H 	0.94559 0.68277 0.98639 0.06800
O 	O 	0.86879 0.03332 0.47668 -0.21400
C 	C 	0.90333 0.78897 0.49568 0.11200
C 	C 	0.95751 0.79244 0.48417 0.02700
C 	C 	0.90147 0.75830 0.03679 0.02600
C 	C 	0.93612 0.75240 0.01486 0.11300
H 	H 	0.23089 0.01076 0.93851 0.06600
O 	O 	0.11301 0.00183 0.94514 -0.21500
C 	C 	0.94187 0.01108 0.44766 -0.01300
O 	O 	0.95808 0.80004 0.99579 -0.21300
C 	C 	0.89860 0.80989 0.03239 -0.10600
H 	H 	0.86257 0.81869 0.04084 0.06000
C 	C 	0.02205 0.99279 0.97337 -0.02300
C 	C 	0.03621 0.97651 0.45054 -0.02900
C 	C 	0.00992 0.93826 0.98653 -0.01800
H 	H 	0.01875 0.85246 0.45226 0.06100
H 	H 	0.04932 0.92858 0.98797 0.06100
H 	H 	0.07543 0.96685 0.45364 0.05200
C 	C 	0.73196 0.99867 0.00255 -0.09800
C 	C 	0.78467 0.99639 0.95864 0.11200
O 	O 	0.84023 0.99522 0.95183 -0.21700
H 	H 	0.72754 0.99290 0.02621 0.06900
C 	C 	0.76455 0.97612 0.98597 0.02800
C 	C 	0.85179 0.97290 0.97782 0.12500
C 	C 	0.80742 0.96178 0.99838 -0.10700
H 	H 	0.81878 0.96173 0.02254 0.06100
C 	C 	0.90806 0.96341 0.98270 -0.01900
C 	C 	0.89560 0.90789 0.99532 -0.02700
C 	C 	0.94664 0.89530 0.99726 -0.01600
H 	H 	0.84513 0.87290 0.00219 0.03900
C 	C 	0.97246 0.93644 0.46161 -0.01400
C 	C 	0.92598 0.95483 0.46072 -0.02200
H 	H 	0.87809 0.92599 0.47030 0.06300
O 	O 	0.89944 0.84188 0.49091 -0.21500
C 	C 	0.95550 0.87641 0.47493 0.12300
C 	C 	0.99000 0.84699 0.47070 -0.10300
C 	C 	0.93170 0.83383 0.00783 0.12400
