data_crystal

_cell_length_a 26.04368
_cell_length_b 27.33667
_cell_length_c 38.48559
_cell_angle_alpha 60.64045
_cell_angle_beta  119.05807
_cell_angle_gamma 133.27977

_symmetry_space_group_name_	'P 1'
_symmetry_space_group_name_H-M	'P 1'

loop_
_symmetry_equiv_pos_as_xyz
  x,y,z

loop_
_atom_site_label
_atom_site_type_symbol
_atom_site_fract_x
_atom_site_fract_y
_atom_site_fract_z
_atom_site_charge
C 	C 	0.68203 0.25649 0.04949 0.10100
N 	N 	0.61432 0.20992 0.05627 -0.11000
C 	C 	0.59613 0.21958 0.07881 0.10000
N 	N 	0.64554 0.27643 0.09416 -0.11700
C 	C 	0.71248 0.32440 0.08628 0.10100
N 	N 	0.73086 0.31429 0.06405 -0.12900
C 	C 	0.77953 0.34986 0.52081 0.10000
N 	N 	0.82634 0.41450 0.52750 -0.12400
C 	C 	0.80162 0.43940 0.53391 0.10100
N 	N 	0.73047 0.40018 0.53316 -0.12600
C 	C 	0.68397 0.33566 0.52692 0.10000
N 	N 	0.70870 0.31035 0.52115 -0.10900
C 	C 	0.20600 0.60532 0.19388 0.09900
N 	N 	0.27510 0.64481 0.19046 -0.12100
C 	C 	0.29703 0.61823 0.18344 0.10000
N 	N 	0.24955 0.55243 0.17909 -0.12500
C 	C 	0.18008 0.51319 0.18158 0.09900
N 	N 	0.15831 0.53936 0.18933 -0.11400
C 	C 	0.33668 0.67692 0.72322 0.09900
N 	N 	0.29153 0.61208 0.71738 -0.12600
C 	C 	0.31800 0.58741 0.71259 0.09900
N 	N 	0.38934 0.62774 0.71323 -0.11400
C 	C 	0.43423 0.69279 0.71839 0.09900
N 	N 	0.40792 0.71715 0.72362 -0.11800
Co	Co	0.00376 0.97501 0.07523 1.17900
Co	Co	0.88423 0.89125 0.16303 1.19100
Co	Co	0.94862 0.02447 0.10323 1.18800
Co	Co	0.94305 0.84305 0.13746 1.18700
C 	C 	0.15180 0.02653 0.08531 0.28100
Co	Co	0.04108 0.87480 0.08882 1.16200
Co	Co	0.87333 0.00253 0.16204 1.16700
C 	C 	0.89798 0.73803 0.10281 0.27100
O 	O 	0.87875 0.08100 0.10910 -0.38000
O 	O 	0.89992 0.96873 0.13903 -0.76700
C 	C 	0.85894 0.07626 0.07163 0.27100
O 	O 	0.99884 0.05266 0.06310 -0.45600
O 	O 	0.88444 0.81139 0.17369 -0.46000
C 	C 	0.73883 0.86486 0.14231 0.25900
O 	O 	0.91852 0.92205 0.10771 -0.57900
C 	C 	0.02709 0.11882 0.15841 0.25600
C 	C 	0.98061 0.93160 0.00537 0.29300
C 	C 	0.07241 0.83730 0.17893 0.26100
O 	O 	0.87475 0.04709 0.06330 -0.37500
O 	O 	0.97263 0.87392 0.03119 -0.37800
O 	O 	0.98063 0.97194 0.01539 -0.36500
O 	O 	0.76652 0.92969 0.13787 -0.37700
O 	O 	0.77845 0.84042 0.16433 -0.35800
O 	O 	0.98300 0.07243 0.18340 -0.37800
O 	O 	0.03467 0.09930 0.13672 -0.37400
O 	O 	0.10365 0.87844 0.14793 -0.37000
O 	O 	0.02960 0.84274 0.18372 -0.38300
O 	O 	0.98743 0.89685 0.09923 -0.75300
C 	C 	0.92598 0.92600 0.23789 0.30100
O 	O 	0.87161 0.93122 0.21853 -0.39100
O 	O 	0.94873 0.91789 0.21848 -0.38700
O 	O 	0.12023 0.97860 0.06737 -0.40200
O 	O 	0.11370 0.02502 0.09942 -0.38900
O 	O 	0.96762 0.76870 0.10999 -0.38200
O 	O 	0.87489 0.75748 0.11397 -0.37700
Co	Co	0.10793 0.04559 0.57674 1.18700
Co	Co	0.98225 0.97499 0.65697 1.19400
Co	Co	0.05966 0.10837 0.60013 1.18600
Co	Co	0.03663 0.91448 0.63699 1.18300
C 	C 	0.24682 0.07594 0.58324 0.27300
Co	Co	0.12080 0.92601 0.59038 1.16700
Co	Co	0.97938 0.09749 0.64919 1.17100
C 	C 	0.97055 0.80539 0.59956 0.28800
O 	O 	0.99372 0.17316 0.59444 -0.38500
O 	O 	0.01509 0.05886 0.63765 -0.77200
C 	C 	0.96771 0.15768 0.55967 0.27200
O 	O 	0.10764 0.12756 0.56197 -0.46100
O 	O 	0.97374 0.88954 0.66777 -0.45500
C 	C 	0.84346 0.96145 0.63124 0.26500
O 	O 	0.06967 0.01985 0.62894 -0.58300
C 	C 	0.13755 0.21003 0.65216 0.26300
C 	C 	0.05955 0.98594 0.50834 0.29100
C 	C 	0.15234 0.88478 0.68134 0.26400
O 	O 	0.97807 0.11903 0.55672 -0.38000
O 	O 	0.05223 0.92807 0.53296 -0.39800
O 	O 	0.05482 0.02145 0.51955 -0.38600
O 	O 	0.87388 0.02835 0.62148 -0.37200
O 	O 	0.87451 0.93945 0.62977 -0.38500
O 	O 	0.08863 0.16222 0.67448 -0.37500
O 	O 	0.13711 0.19795 0.62226 -0.36400
O 	O 	0.18266 0.92678 0.64972 -0.38300
O 	O 	0.09776 0.87749 0.68365 -0.35900
O 	O 	0.09149 0.96766 0.60453 -0.76600
C 	C 	0.99947 0.00294 0.73037 0.33300
O 	O 	0.95892 0.02484 0.70505 -0.40700
O 	O 	0.01453 0.97797 0.71762 -0.39900
O 	O 	0.20533 0.02351 0.56680 -0.39900
O 	O 	0.21840 0.09711 0.58800 -0.36500
O 	O 	0.03704 0.82428 0.61094 -0.39400
O 	O 	0.95798 0.84305 0.60160 -0.38100
C 	C 	0.06047 0.03784 0.83142 -0.06900
C 	C 	0.00743 0.97386 0.85148 0.00600
C 	C 	0.95951 0.91636 0.83435 0.00000
C 	C 	0.96174 0.92482 0.79599 0.02300
C 	C 	0.01193 0.99001 0.77472 -0.11900
C 	C 	0.06396 0.04577 0.79368 0.05900
C 	C 	0.00324 0.96745 0.89071 -0.00500
S 	S 	0.89684 0.83371 0.86064 -0.02400
H 	H 	0.92237 0.88142 0.78190 0.03900
S 	S 	0.13453 0.12528 0.77093 -0.02500
H 	H 	0.09908 0.08151 0.84523 0.05600
C 	C 	0.05394 0.96357 0.92741 0.00300
C 	C 	0.04904 0.95736 0.96416 -0.02600
C 	C 	0.99252 0.95258 0.96515 -0.06800
C 	C 	0.94255 0.95787 0.92828 0.04800
C 	C 	0.94874 0.96614 0.89122 -0.04800
S 	S 	0.12180 0.96321 0.92811 -0.03500
H 	H 	0.08765 0.95345 0.99240 0.03600
S 	S 	0.87049 0.95147 0.92823 -0.02400
H 	H 	0.91023 0.97003 0.86291 0.05500
H 	H 	0.11669 0.17102 0.75096 0.04700
H 	H 	0.09460 0.89657 0.93309 0.03700
H 	H 	0.81200 0.88323 0.93438 0.04300
H 	H 	0.92934 0.80058 0.88660 0.04200
C 	C 	0.05570 0.00598 0.32710 -0.05400
C 	C 	0.01022 0.96464 0.35416 -0.00800
C 	C 	0.94221 0.90186 0.34634 0.01500
C 	C 	0.91698 0.88580 0.30933 -0.01200
C 	C 	0.96077 0.92952 0.28112 -0.06600
C 	C 	0.03304 0.98583 0.29222 0.03100
C 	C 	0.03419 0.98704 0.39071 0.00500
S 	S 	0.88921 0.84221 0.38299 -0.03000
H 	H 	0.86244 0.84042 0.30189 0.05000
S 	S 	0.09752 0.02545 0.26597 -0.02400
H 	H 	0.10934 0.05269 0.33378 0.05300
C 	C 	0.09238 0.98869 0.42333 -0.00500
C 	C 	0.10761 0.00082 0.45964 -0.00600
C 	C 	0.06099 0.00397 0.46566 -0.08200
C 	C 	0.00579 0.00708 0.43212 0.04000
C 	C 	0.99456 0.00113 0.39443 -0.04900
S 	S 	0.14220 0.96922 0.42071 -0.03300
H 	H 	0.15161 0.00076 0.48487 0.03800
S 	S 	0.94812 0.01473 0.43725 -0.01900
H 	H 	0.95166 0.00270 0.36884 0.05300
H 	H 	0.11087 0.08726 0.23954 0.04500
H 	H 	0.10724 0.89886 0.43321 0.03700
H 	H 	0.88974 0.94991 0.45025 0.04500
H 	H 	0.91030 0.79953 0.40993 0.04200
C 	C 	0.24494 0.34949 0.69484 0.12000
C 	C 	0.25033 0.36996 0.72420 -0.09200
C 	C 	0.23745 0.41943 0.71037 0.02200
C 	C 	0.22566 0.45166 0.66943 0.11500
C 	C 	0.22166 0.43226 0.64007 -0.08500
C 	C 	0.23355 0.38201 0.65377 0.01200
O 	O 	0.22333 0.28338 0.70200 -0.19000
C 	C 	0.19533 0.27804 0.66150 0.04700
C 	C 	0.20232 0.33703 0.63260 -0.05700
O 	O 	0.24358 0.51628 0.66219 -0.20100
C 	C 	0.26860 0.52022 0.70278 0.10200
C 	C 	0.26529 0.46278 0.73169 -0.08700
H 	H 	0.26018 0.34535 0.75655 0.06900
H 	H 	0.21137 0.45665 0.60772 0.07000
H 	H 	0.16736 0.33720 0.60197 0.06100
H 	H 	0.29981 0.46333 0.76246 0.06500
C 	C 	0.67049 0.87772 0.64048 0.12100
C 	C 	0.63192 0.88049 0.65436 -0.09100
C 	C 	0.60099 0.82759 0.68758 0.02400
C 	C 	0.60214 0.77075 0.70397 0.11500
C 	C 	0.64106 0.76800 0.69035 -0.08400
C 	C 	0.67353 0.82179 0.65768 0.01100
O 	O 	0.72711 0.93732 0.62200 -0.18600
C 	C 	0.76611 0.91288 0.63116 0.04500
C 	C 	0.73440 0.84396 0.65221 -0.05500
O 	O 	0.54517 0.71148 0.72244 -0.19800
C 	C 	0.50972 0.73840 0.71534 0.10300
C 	C 	0.54261 0.80747 0.69464 -0.08500
H 	H 	0.62911 0.92410 0.64100 0.07200
H 	H 	0.64395 0.72443 0.70381 0.07100
H 	H 	0.76387 0.82125 0.67189 0.05600
H 	H 	0.51472 0.83187 0.67632 0.06900
C 	C 	0.29973 0.77955 0.72331 0.11500
C 	C 	0.31415 0.83028 0.73441 -0.08700
C 	C 	0.25574 0.81951 0.73819 0.01200
C 	C 	0.18563 0.76073 0.73086 0.11700
C 	C 	0.17239 0.70840 0.72184 -0.09000
C 	C 	0.23027 0.72150 0.71594 0.01900
O 	O 	0.35298 0.77380 0.72994 -0.20000
C 	C 	0.30810 0.70567 0.72638 0.09900
C 	C 	0.23475 0.67405 0.71808 -0.08500
O 	O 	0.13271 0.77103 0.71688 -0.18700
C 	C 	0.17712 0.84219 0.71372 0.04500
C 	C 	0.25034 0.87072 0.72773 -0.05700
H 	H 	0.36864 0.87709 0.73926 0.07000
H 	H 	0.11786 0.66207 0.71612 0.06900
H 	H 	0.19238 0.61879 0.72239 0.06500
H 	H 	0.29271 0.92526 0.71817 0.05900
C 	C 	0.10809 0.29183 0.14664 0.12000
C 	C 	0.09475 0.34228 0.12655 -0.09100
C 	C 	0.09057 0.36501 0.15026 0.02100
C 	C 	0.10375 0.34225 0.19237 0.11500
C 	C 	0.11804 0.29258 0.21247 -0.08600
C 	C 	0.12220 0.26975 0.18884 0.01100
O 	O 	0.08248 0.24473 0.12731 -0.18800
C 	C 	0.07961 0.19103 0.16180 0.04600
C 	C 	0.10436 0.20624 0.19857 -0.05800
O 	O 	0.12734 0.38806 0.21189 -0.20100
C 	C 	0.12979 0.44177 0.17759 0.10200
C 	C 	0.10741 0.42814 0.14070 -0.08700
H 	H 	0.08476 0.36086 0.09345 0.07100
H 	H 	0.12778 0.27387 0.24556 0.06800
H 	H 	0.08829 0.16753 0.22669 0.05500
H 	H 	0.12434 0.46780 0.11297 0.06400
C 	C 	0.55840 0.72951 0.14859 0.11900
C 	C 	0.51507 0.67784 0.17709 -0.09000
C 	C 	0.47174 0.68656 0.18164 0.02300
C 	C 	0.46596 0.74042 0.15661 0.11600
C 	C 	0.50622 0.79015 0.12666 -0.08500
C 	C 	0.55142 0.78284 0.12269 0.01200
O 	O 	0.62550 0.74592 0.15499 -0.18400
C 	C 	0.65935 0.81490 0.13215 0.04600
C 	C 	0.61484 0.83651 0.11194 -0.05800
O 	O 	0.40330 0.72827 0.15441 -0.20100
C 	C 	0.37155 0.66111 0.17980 0.10100
C 	C 	0.41163 0.63560 0.19605 -0.08700
H 	H 	0.51905 0.63512 0.19702 0.07200
H 	H 	0.50247 0.83307 0.10704 0.07000
H 	H 	0.63418 0.89020 0.10189 0.06000
H 	H 	0.38980 0.58113 0.20693 0.06700
C 	C 	0.11781 0.65760 0.19901 0.11500
C 	C 	0.06356 0.64887 0.20595 -0.09000
C 	C 	0.08417 0.69902 0.22127 0.02000
C 	C 	0.15586 0.75551 0.22917 0.11600
C 	C 	0.21012 0.76143 0.22428 -0.08900
C 	C 	0.18844 0.71389 0.20662 0.02100
O 	O 	0.10928 0.60427 0.19500 -0.19900
C 	C 	0.18270 0.63464 0.20162 0.10100
C 	C 	0.23008 0.69986 0.20868 -0.08500
O 	O 	0.16383 0.81386 0.22467 -0.18300
C 	C 	0.09110 0.78963 0.21025 0.04900
C 	C 	0.04331 0.72028 0.21002 -0.08000
H 	H 	0.00722 0.60577 0.19873 0.06900
H 	H 	0.26638 0.80530 0.23040 0.07200
H 	H 	0.28776 0.72610 0.22245 0.06800
H 	H 	0.98865 0.69685 0.19078 0.07000
C 	C 	0.80236 0.25843 0.49490 0.11500
C 	C 	0.79280 0.19889 0.49884 -0.08300
C 	C 	0.85057 0.20702 0.49637 0.01200
C 	C 	0.91837 0.26955 0.49649 0.12100
C 	C 	0.92955 0.32785 0.49638 -0.08900
C 	C 	0.86887 0.32188 0.49223 0.02400
O 	O 	0.75778 0.25514 0.50731 -0.19600
C 	C 	0.80450 0.32243 0.51250 0.10200
C 	C 	0.87080 0.36261 0.50363 -0.08500
O 	O 	0.97457 0.26305 0.51217 -0.18500
C 	C 	0.93490 0.19063 0.52342 0.04500
C 	C 	0.86073 0.15705 0.51332 -0.05600
H 	H 	0.74388 0.14781 0.50603 0.07300
H 	H 	0.98389 0.37460 0.50171 0.07400
H 	H 	0.91945 0.40897 0.51400 0.06900
H 	H 	0.82336 0.10460 0.52901 0.06200
C 	C 	0.88147 0.60390 0.53896 0.11500
C 	C 	0.87319 0.65704 0.52383 -0.08400
C 	C 	0.86764 0.67253 0.55125 0.01000
C 	C 	0.87317 0.63880 0.59228 0.12100
C 	C 	0.88094 0.58536 0.60723 -0.08900
C 	C 	0.88835 0.57123 0.58005 0.02400
O 	O 	0.85918 0.56593 0.51411 -0.20000
C 	C 	0.85214 0.50660 0.54427 0.10000
C 	C 	0.86963 0.50961 0.58366 -0.08500
O 	O 	0.89775 0.67736 0.61743 -0.18000
C 	C 	0.91052 0.73910 0.58808 0.04100
C 	C 	0.89114 0.73590 0.54839 -0.05400
H 	H 	0.86953 0.68428 0.49169 0.06700
H 	H 	0.88492 0.55826 0.63939 0.07300
H 	H 	0.84856 0.46448 0.60879 0.06500
H 	H 	0.91451 0.78093 0.52369 0.05800
C 	C 	0.42725 0.20585 0.57358 0.12000
C 	C 	0.47311 0.26691 0.54821 -0.09100
C 	C 	0.51085 0.26502 0.53299 0.02400
C 	C 	0.50757 0.20672 0.54462 0.11400
C 	C 	0.46266 0.14602 0.57050 -0.08400
C 	C 	0.42460 0.14767 0.58564 0.01000
O 	O 	0.36602 0.19160 0.57550 -0.18200
C 	C 	0.32570 0.11932 0.58873 0.04100
C 	C 	0.36040 0.09286 0.59512 -0.05500
O 	O 	0.56723 0.22030 0.54114 -0.19700
C 	C 	0.60732 0.29253 0.52736 0.10300
C 	C 	0.57419 0.31966 0.52239 -0.08600
H 	H 	0.47660 0.31324 0.53911 0.07300
H 	H 	0.45905 0.09966 0.57946 0.06900
H 	H 	0.33301 0.04054 0.59442 0.05100
H 	H 	0.60224 0.37233 0.52276 0.06800
C 	C 	0.82240 0.19901 0.01178 0.12200
C 	C 	0.83290 0.25557 0.01338 -0.09000
C 	C 	0.77156 0.25100 0.00598 0.02400
C 	C 	0.70285 0.18961 0.00241 0.11500
C 	C 	0.69280 0.13169 0.00324 -0.08400
C 	C 	0.75316 0.13918 0.00530 0.01000
O 	O 	0.87624 0.18854 0.03168 -0.18200
C 	C 	0.83301 0.11674 0.03777 0.04500
C 	C 	0.75979 0.08703 0.02190 -0.05600
O 	O 	0.65472 0.18272 0.01383 -0.19800
C 	C 	0.70144 0.24480 0.02557 0.10200
C 	C 	0.77100 0.28590 0.02091 -0.08600
H 	H 	0.88698 0.29908 0.02348 0.07300
H 	H 	0.64109 0.08123 0.00564 0.06900
H 	H 	0.71754 0.03340 0.03316 0.05200
H 	H 	0.81866 0.32456 0.03789 0.06700
C 	C 	0.81911 0.59609 0.07045 0.12300
C 	C 	0.83466 0.56481 0.06081 -0.09100
C 	C 	0.82152 0.50075 0.08633 0.02500
C 	C 	0.78936 0.46650 0.11843 0.11600
C 	C 	0.77419 0.49796 0.12824 -0.08300
C 	C 	0.78739 0.56210 0.10272 0.00900
O 	O 	0.85647 0.66747 0.05992 -0.19000
C 	C 	0.84625 0.67346 0.08972 0.04300
C 	C 	0.80467 0.61087 0.11517 -0.05200
O 	O 	0.75149 0.39502 0.12863 -0.19800
C 	C 	0.76237 0.38947 0.09890 0.10100
C 	C 	0.80462 0.45229 0.07383 -0.08400
H 	H 	0.85882 0.59081 0.03522 0.07200
H 	H 	0.75010 0.47200 0.15385 0.07100
H 	H 	0.80803 0.60478 0.14608 0.05700
H 	H 	0.80230 0.45887 0.04304 0.06600
C 	C 	0.33914 0.13248 0.10180 0.12100
C 	C 	0.39919 0.13016 0.12481 -0.09000
C 	C 	0.43264 0.13142 0.10449 0.02500
C 	C 	0.41175 0.14037 0.06267 0.11500
C 	C 	0.35437 0.14648 0.03934 -0.08400
C 	C 	0.31974 0.14398 0.05961 0.01100
O 	O 	0.28236 0.09827 0.11878 -0.18300
C 	C 	0.22643 0.08748 0.08321 0.04000
C 	C 	0.24892 0.11652 0.04782 -0.05400
O 	O 	0.46497 0.16637 0.04572 -0.19800
C 	C 	0.52060 0.17444 0.08127 0.10500
C 	C 	0.50194 0.15387 0.11649 -0.08700
H 	H 	0.41603 0.12287 0.15777 0.07400
H 	H 	0.33745 0.15336 0.00641 0.07000
H 	H 	0.21336 0.09904 0.01980 0.05700
H 	H 	0.54015 0.17289 0.14379 0.07000
