data_crystal

_cell_length_a 19.48787
_cell_length_b 17.69709
_cell_length_c 32.25793
_cell_angle_alpha 88.28930
_cell_angle_beta  88.43537
_cell_angle_gamma 107.45066

_symmetry_space_group_name_	'P 1'
_symmetry_space_group_name_H-M	'P 1'

loop_
_symmetry_equiv_pos_as_xyz
  x,y,z

loop_
_atom_site_label
_atom_site_type_symbol
_atom_site_fract_x
_atom_site_fract_y
_atom_site_fract_z
_atom_site_charge
Zn	Zn	0.57929 0.32062 0.88963 1.22500
Zn	Zn	0.69328 0.46063 0.93765 1.20300
C 	C 	0.78508 0.22830 0.84046 0.26800
Zn	Zn	0.74611 0.36881 0.87162 1.22100
Zn	Zn	0.62462 0.19720 0.84416 1.19100
H 	H 	0.68710 0.31407 0.94204 0.19600
C 	C 	0.72285 0.51926 0.84647 0.27500
O 	O 	0.51739 0.15569 0.83951 -0.44800
O 	O 	0.49059 0.27167 0.85165 -0.38300
O 	O 	0.67910 0.35109 0.92042 -0.78700
O 	O 	0.59493 0.45375 0.95647 -0.45300
O 	O 	0.53453 0.23517 0.93085 -0.42400
O 	O 	0.54053 0.41072 0.89605 -0.42100
O 	O 	0.60840 0.16434 0.91069 -0.41000
O 	O 	0.79329 0.52460 0.92684 -0.45300
H 	H 	0.63787 0.33823 0.81901 0.17600
O 	O 	0.83830 0.42560 0.90735 -0.38700
O 	O 	0.64695 0.31360 0.84544 -0.79800
O 	O 	0.72116 0.18066 0.85289 -0.44000
O 	O 	0.75936 0.46909 0.83871 -0.42400
O 	O 	0.80519 0.30430 0.84895 -0.41600
O 	O 	0.67292 0.50274 0.87650 -0.40600
C 	C 	0.47126 0.19760 0.83992 0.27300
C 	C 	0.54143 0.44550 0.93157 0.31600
C 	C 	0.55433 0.17108 0.93399 0.33700
C 	C 	0.84613 0.49351 0.92524 0.29800
Zn	Zn	0.64733 0.40778 0.55068 1.22300
Zn	Zn	0.51899 0.31145 0.48943 1.20400
C 	C 	0.69286 0.15487 0.58916 0.36400
Zn	Zn	0.58162 0.22274 0.55629 1.22600
Zn	Zn	0.74591 0.33021 0.58992 1.19300
H 	H 	0.64226 0.29681 0.49215 0.19500
C 	C 	0.44021 0.24051 0.57390 0.37400
O 	O 	0.80056 0.44394 0.59748 -0.44600
O 	O 	0.70628 0.49613 0.59131 -0.38300
O 	O 	0.60890 0.30711 0.51337 -0.79500
O 	O 	0.53790 0.42813 0.48529 -0.45400
O 	O 	0.72587 0.45198 0.50987 -0.44400
O 	O 	0.57225 0.46159 0.55100 -0.42200
O 	O 	0.77261 0.35087 0.52315 -0.39400
O 	O 	0.45857 0.20321 0.47934 -0.44100
H 	H 	0.62110 0.32792 0.61733 0.17800
O 	O 	0.52559 0.13599 0.51377 -0.38600
O 	O 	0.64190 0.32034 0.58999 -0.79300
O 	O 	0.74554 0.21974 0.57873 -0.44700
O 	O 	0.48996 0.21022 0.58732 -0.44600
O 	O 	0.62888 0.14204 0.57316 -0.40600
O 	O 	0.45800 0.30395 0.54855 -0.39400
C 	C 	0.77451 0.50480 0.59913 0.27000
C 	C 	0.53794 0.47115 0.51767 0.31100
C 	C 	0.77356 0.41553 0.50157 0.33100
C 	C 	0.47214 0.13670 0.48949 0.33000
Zn	Zn	0.93549 0.90794 0.71212 1.22700
Zn	Zn	0.04479 0.92319 0.79097 1.20500
C 	C 	0.14983 0.08458 0.63486 0.27000
Zn	Zn	0.07841 0.04343 0.71759 1.22700
Zn	Zn	0.99193 0.99401 0.62857 1.19600
H 	H 	0.07368 0.89885 0.71463 0.19700
C 	C 	0.99195 0.07519 0.78629 0.35300
O 	O 	0.88865 0.94753 0.61708 -0.43600
O 	O 	0.83773 0.90844 0.68280 -0.36500
O 	O 	0.04447 0.92775 0.72918 -0.78300
O 	O 	0.95573 0.83221 0.80436 -0.43400
O 	O 	0.93300 0.81074 0.68530 -0.44300
O 	O 	0.88087 0.88123 0.76528 -0.43200
O 	O 	0.99640 0.87062 0.62701 -0.40500
O 	O 	0.12963 0.00865 0.81041 -0.42500
H 	H 	0.95257 0.04876 0.69356 0.20200
O 	O 	0.17797 0.05897 0.74639 -0.41200
O 	O 	0.98180 0.01265 0.68837 -0.80800
O 	O 	0.10111 0.02675 0.61700 -0.42200
O 	O 	0.04526 0.10694 0.75901 -0.40400
O 	O 	0.13630 0.10945 0.67136 -0.41700
O 	O 	0.97802 0.00094 0.79970 -0.40600
C 	C 	0.83607 0.94052 0.64521 0.25800
C 	C 	0.89105 0.82645 0.79087 0.39400
C 	C 	0.94936 0.80893 0.64602 0.38800
C 	C 	0.18496 0.04932 0.78637 0.38100
Zn	Zn	0.31839 0.69166 0.38731 1.22500
Zn	Zn	0.17817 0.57850 0.44026 1.20200
C 	C 	0.14925 0.78370 0.30619 0.28100
Zn	Zn	0.16363 0.64601 0.35407 1.22400
Zn	Zn	0.30622 0.79465 0.31411 1.19200
H 	H 	0.19758 0.72355 0.41863 0.18800
C 	C 	0.18253 0.48897 0.35950 0.27200
O 	O 	0.41169 0.83201 0.32171 -0.45700
O 	O 	0.42324 0.72258 0.35777 -0.38300
O 	O 	0.20993 0.67842 0.40642 -0.79300
O 	O 	0.26512 0.58795 0.47294 -0.44200
O 	O 	0.35010 0.79035 0.41581 -0.44000
O 	O 	0.34304 0.60531 0.41676 -0.43400
O 	O 	0.29264 0.85215 0.37199 -0.41200
O 	O 	0.07984 0.51772 0.42606 -0.44700
H 	H 	0.28780 0.64630 0.31610 0.17800
O 	O 	0.05745 0.61118 0.38272 -0.39000
O 	O 	0.27216 0.68260 0.33429 -0.79900
O 	O 	0.21765 0.82012 0.29590 -0.44700
O 	O 	0.15213 0.53598 0.33968 -0.42200
O 	O 	0.12604 0.70627 0.31309 -0.43000
O 	O 	0.21592 0.51057 0.39422 -0.39400
C 	C 	0.45221 0.79112 0.33736 0.27400
C 	C 	0.32783 0.58881 0.45663 0.34900
C 	C 	0.33364 0.85380 0.40397 0.29800
C 	C 	0.03446 0.55006 0.40917 0.29800
Zn	Zn	0.20214 0.73248 0.07677 1.21900
Zn	Zn	0.33855 0.84904 0.12707 1.19400
C 	C 	0.37004 0.59385 0.02044 0.31900
Zn	Zn	0.36584 0.74055 0.06101 1.22200
Zn	Zn	0.22340 0.59987 0.02531 1.20200
H 	H 	0.29797 0.69739 0.13015 0.18200
C 	C 	0.38355 0.90462 0.03466 0.29300
O 	O 	0.11989 0.58284 0.02309 -0.46600
O 	O 	0.11383 0.70773 0.03544 -0.37200
O 	O 	0.29943 0.73900 0.10865 -0.78400
O 	O 	0.24737 0.86948 0.14371 -0.46700
O 	O 	0.14147 0.64210 0.11370 -0.41200
O 	O 	0.18503 0.83769 0.08429 -0.41100
O 	O 	0.20762 0.56593 0.09063 -0.39700
O 	O 	0.44503 0.88858 0.12206 -0.45800
H 	H 	0.26535 0.74668 0.00681 0.18600
O 	O 	0.46098 0.77582 0.09647 -0.38900
O 	O 	0.26622 0.71449 0.03231 -0.79000
O 	O 	0.30329 0.55603 0.03155 -0.44200
O 	O 	0.40231 0.84033 0.02820 -0.43700
O 	O 	0.40586 0.65742 0.03982 -0.41600
O 	O 	0.33822 0.90641 0.06564 -0.40500
C 	C 	0.08964 0.63919 0.01731 0.32300
C 	C 	0.20129 0.88129 0.11729 0.29400
C 	C 	0.15116 0.57205 0.11140 0.27300
C 	C 	0.48784 0.84825 0.10946 0.28200
Zn	Zn	0.98870 0.14778 0.22129 1.22600
Zn	Zn	0.87816 0.09095 0.30444 1.20200
C 	C 	0.78301 0.99075 0.14282 0.36900
Zn	Zn	0.85163 0.00302 0.22342 1.22700
Zn	Zn	0.93761 0.09322 0.13445 1.19900
H 	H 	0.84731 0.14304 0.23372 0.18900
C 	C 	0.94263 0.95331 0.28125 0.35900
O 	O 	0.04042 0.14945 0.12195 -0.42200
O 	O 	0.08863 0.16828 0.18604 -0.36900
O 	O 	0.87882 0.11194 0.24339 -0.78400
O 	O 	0.96396 0.17971 0.31973 -0.42500
O 	O 	0.98523 0.25247 0.20346 -0.42700
O 	O 	0.04265 0.15390 0.27200 -0.40300
O 	O 	0.92455 0.21146 0.14493 -0.40900
O 	O 	0.79793 0.99337 0.32157 -0.44800
H 	H 	0.97851 0.01762 0.19157 0.18300
O 	O 	0.75183 0.96586 0.25737 -0.39800
O 	O 	0.94772 0.05306 0.19119 -0.80400
O 	O 	0.82918 0.05754 0.12733 -0.45000
O 	O 	0.88979 0.92877 0.25557 -0.42600
O 	O 	0.79751 0.95354 0.17582 -0.41300
O 	O 	0.95017 0.01815 0.30189 -0.37500
C 	C 	0.08876 0.14108 0.14817 0.35300
C 	C 	0.03002 0.19298 0.30399 0.40400
C 	C 	0.96700 0.26823 0.16629 0.38300
C 	C 	0.74514 0.95655 0.29793 0.38700
C 	C 	0.09132 0.49916 0.12247 0.01200
C 	C 	0.07466 0.43607 0.09524 -0.06200
C 	C 	0.02664 0.36235 0.10794 0.07700
C 	C 	0.99574 0.35013 0.14830 -0.21100
C 	C 	0.00741 0.41528 0.17427 0.39900
C 	C 	0.05514 0.48942 0.16135 -0.16200
H 	H 	0.01769 0.31322 0.08742 0.03200
H 	H 	0.06624 0.53801 0.18229 0.11000
H 	H 	0.10120 0.44309 0.06481 0.05400
F 	F 	0.97512 0.40582 0.21270 -0.45300
C 	C 	0.56668 0.88532 0.10989 0.01000
C 	C 	0.59566 0.96844 0.10870 -0.06500
C 	C 	0.66875 0.00382 0.11546 0.06800
C 	C 	0.71362 0.95655 0.12322 -0.20400
C 	C 	0.68617 0.87378 0.12006 0.39700
C 	C 	0.61291 0.83836 0.11377 -0.16000
H 	H 	0.68944 0.06769 0.11704 0.02900
H 	H 	0.59180 0.77436 0.11346 0.12200
H 	H 	0.56116 0.00561 0.10385 0.06500
F 	F 	0.72992 0.82746 0.12502 -0.44300
C 	C 	0.16891 0.94536 0.12455 0.00200
C 	C 	0.15216 0.96139 0.16533 -0.06500
C 	C 	0.13080 0.02834 0.17329 0.05600
C 	C 	0.12445 0.07958 0.14047 -0.21200
C 	C 	0.14217 0.06414 0.09960 0.38500
C 	C 	0.16395 0.99710 0.09173 -0.15900
H 	H 	0.11681 0.03881 0.20488 0.03800
H 	H 	0.17860 0.98653 0.06027 0.12000
H 	H 	0.15606 0.92208 0.19097 0.06000
F 	F 	0.13859 0.11419 0.06758 -0.44500
C 	C 	0.53067 0.82740 0.33591 0.01100
C 	C 	0.55966 0.90677 0.34647 -0.06900
C 	C 	0.63222 0.94692 0.33768 0.07500
C 	C 	0.67595 0.90899 0.31702 -0.21000
C 	C 	0.64820 0.82820 0.30862 0.39900
C 	C 	0.57585 0.78733 0.31846 -0.16400
H 	H 	0.65319 0.00910 0.34440 0.01600
H 	H 	0.55409 0.72593 0.31043 0.11100
H 	H 	0.52510 0.93862 0.35938 0.05700
F 	F 	0.69048 0.79037 0.28930 -0.44300
C 	C 	0.16719 0.40685 0.34692 0.01800
C 	C 	0.16912 0.39128 0.30459 -0.06100
C 	C 	0.12990 0.31736 0.29068 0.08100
C 	C 	0.08829 0.25879 0.31904 -0.20100
C 	C 	0.09413 0.27093 0.36180 0.40700
C 	C 	0.13399 0.34469 0.37568 -0.16000
H 	H 	0.12725 0.30790 0.25765 0.03600
H 	H 	0.13388 0.35548 0.40858 0.11900
H 	H 	0.19636 0.43829 0.28219 0.05900
F 	F 	0.05765 0.21293 0.38973 -0.43700
C 	C 	0.09628 0.82659 0.29866 0.00400
C 	C 	0.02483 0.78550 0.28965 -0.06200
C 	C 	0.97490 0.82696 0.28326 0.06600
C 	C 	0.99583 0.90972 0.28597 -0.20300
C 	C 	0.06770 0.95071 0.29431 0.38600
C 	C 	0.11725 0.90929 0.30077 -0.16400
H 	H 	0.91981 0.79463 0.27686 0.04900
H 	H 	0.17205 0.94162 0.30782 0.11200
H 	H 	0.00793 0.72164 0.28753 0.07400
F 	F 	0.08971 0.03079 0.29600 -0.44000
C 	C 	0.36882 0.92877 0.42351 -0.04500
C 	C 	0.44012 0.94416 0.43558 -0.02500
C 	C 	0.47295 0.01149 0.45724 0.01900
C 	C 	0.43455 0.06383 0.46825 -0.11200
C 	C 	0.36173 0.04743 0.45712 0.14000
C 	C 	0.32989 0.98078 0.43405 -0.06000
H 	H 	0.52867 0.02320 0.46533 0.05700
H 	H 	0.27412 0.96789 0.42582 0.07500
H 	H 	0.47000 0.90315 0.42853 0.05400
Br	Br	0.30278 0.11029 0.47596 -0.22000
C 	C 	0.95826 0.52006 0.42199 -0.04200
C 	C 	0.92699 0.56806 0.44483 -0.03000
C 	C 	0.86459 0.53390 0.46932 0.02400
C 	C 	0.83206 0.45142 0.47058 -0.11700
C 	C 	0.85865 0.40433 0.44377 0.14500
C 	C 	0.92218 0.43877 0.41999 -0.05600
H 	H 	0.84361 0.57107 0.48900 0.04100
H 	H 	0.94505 0.40183 0.40125 0.08300
H 	H 	0.95403 0.63107 0.44611 0.04400
Br	Br	0.80744 0.29444 0.43744 -0.23300
C 	C 	0.48899 0.51901 0.51892 -0.03200
C 	C 	0.50751 0.59088 0.49577 -0.02600
C 	C 	0.45384 0.61698 0.47793 0.03200
C 	C 	0.38145 0.57105 0.48308 -0.12400
C 	C 	0.36256 0.50438 0.51097 0.16000
C 	C 	0.41671 0.48123 0.53020 -0.07200
H 	H 	0.46877 0.67017 0.45796 0.04000
H 	H 	0.40249 0.42747 0.54954 0.11900
H 	H 	0.56355 0.62230 0.48822 0.05300
Br	Br	0.26482 0.43733 0.51871 -0.22000
C 	C 	0.77962 0.97729 0.63599 0.01200
C 	C 	0.76782 0.03388 0.66258 -0.07700
C 	C 	0.73481 0.08911 0.64805 0.06900
C 	C 	0.71188 0.08700 0.60717 -0.21300
C 	C 	0.71662 0.02516 0.58206 0.40200
C 	C 	0.75039 0.97047 0.59647 -0.16700
H 	H 	0.73033 0.13590 0.66788 -0.00500
H 	H 	0.75791 0.92594 0.57598 0.11400
H 	H 	0.78945 0.03922 0.69333 0.05700
F 	F 	0.69299 0.02127 0.54274 -0.44500
C 	C 	0.21962 0.12526 0.61301 0.01800
C 	C 	0.26236 0.08116 0.59674 -0.06300
C 	C 	0.33420 0.11902 0.58391 0.08000
C 	C 	0.36378 0.20158 0.58664 -0.20200
C 	C 	0.32049 0.24599 0.60198 0.39900
C 	C 	0.24868 0.20809 0.61470 -0.15800
H 	H 	0.36691 0.08411 0.57194 0.03300
H 	H 	0.21637 0.24280 0.62739 0.12100
H 	H 	0.24095 0.01731 0.59547 0.06700
F 	F 	0.34903 0.32491 0.60704 -0.45200
C 	C 	0.82391 0.58426 0.60784 0.01200
C 	C 	0.81287 0.65345 0.59069 -0.06800
C 	C 	0.86032 0.72817 0.59878 0.06800
C 	C 	0.91879 0.73462 0.62446 -0.20900
C 	C 	0.93255 0.66520 0.63915 0.39300
C 	C 	0.88523 0.59061 0.63109 -0.16600
H 	H 	0.84894 0.78113 0.58726 0.02700
H 	H 	0.89543 0.53781 0.64380 0.10800
H 	H 	0.76732 0.64959 0.57146 0.06600
F 	F 	0.98928 0.67013 0.66355 -0.45500
C 	C 	0.91025 0.52994 0.94830 -0.05000
C 	C 	0.90799 0.51592 0.99133 -0.01400
C 	C 	0.96249 0.56142 0.01530 0.00900
C 	C 	0.02149 0.61940 0.99634 -0.09800
C 	C 	0.02154 0.63703 0.95348 0.13500
C 	C 	0.96610 0.59203 0.92959 -0.05000
H 	H 	0.96164 0.54761 0.04831 0.04500
H 	H 	0.96596 0.60602 0.89666 0.07500
H 	H 	0.86330 0.47035 0.00631 0.02600
Br	Br	0.09858 0.72012 0.92688 -0.24000
C 	C 	0.41755 0.97640 0.00837 -0.03900
C 	C 	0.42913 0.96914 0.96573 -0.01900
C 	C 	0.47593 0.03187 0.94203 0.02500
C 	C 	0.51095 0.10329 0.96043 -0.11100
C 	C 	0.49785 0.11181 0.00303 0.14300
C 	C 	0.45109 0.04845 0.02675 -0.05600
H 	H 	0.48449 0.02516 0.90919 0.03400
H 	H 	0.44360 0.05406 0.05981 0.07000
H 	H 	0.40347 0.91387 0.95117 0.05200
Br	Br	0.54666 0.20743 0.02991 -0.24700
C 	C 	0.48077 0.47111 0.94522 -0.04600
C 	C 	0.47906 0.54699 0.93281 -0.02000
C 	C 	0.44407 0.58769 0.95805 0.01400
C 	C 	0.40999 0.55239 0.99563 -0.11000
C 	C 	0.40764 0.47392 0.00669 0.14000
C 	C 	0.44027 0.43267 0.98042 -0.05100
H 	H 	0.44429 0.64709 0.94870 0.03000
H 	H 	0.44094 0.37354 0.98979 0.08200
H 	H 	0.50952 0.57676 0.90527 0.05100
Br	Br	0.36791 0.42545 0.05967 -0.20000
C 	C 	0.84099 0.19279 0.82723 0.00700
C 	C 	0.86064 0.13984 0.85413 -0.05900
C 	C 	0.91308 0.10520 0.84151 0.07100
C 	C 	0.94574 0.12210 0.80151 -0.19400
C 	C 	0.92716 0.17675 0.77483 0.38100
C 	C 	0.87536 0.21235 0.78787 -0.16300
H 	H 	0.92731 0.06391 0.86256 0.04500
H 	H 	0.86083 0.25374 0.76702 0.09200
H 	H 	0.83521 0.12538 0.88483 0.06700
F 	F 	0.95702 0.19304 0.73582 -0.47200
C 	C 	0.39639 0.16030 0.82818 0.01200
C 	C 	0.35980 0.20473 0.80602 -0.06700
C 	C 	0.28933 0.16921 0.79416 0.07700
C 	C 	0.25438 0.08901 0.80457 -0.20400
C 	C 	0.28997 0.04512 0.82805 0.39400
C 	C 	0.36083 0.08060 0.83967 -0.16000
H 	H 	0.26232 0.20364 0.77612 0.03600
H 	H 	0.38805 0.04615 0.85749 0.10900
H 	H 	0.38645 0.26637 0.79722 0.06600
F 	F 	0.25695 0.96746 0.83829 -0.46000
C 	C 	0.74903 0.60056 0.82809 0.01100
C 	C 	0.77960 0.61381 0.78762 -0.06200
C 	C 	0.82075 0.69006 0.77385 0.07100
C 	C 	0.83214 0.75348 0.80055 -0.21100
C 	C 	0.79652 0.74158 0.83966 0.40000
C 	C 	0.75458 0.66549 0.85325 -0.15900
H 	H 	0.84735 0.69888 0.74338 0.03200
H 	H 	0.73039 0.65628 0.88435 0.10700
H 	H 	0.77446 0.56453 0.76756 0.05800
F 	F 	0.80592 0.80282 0.86545 -0.44900
