data_crystal

_cell_length_a 18.59366
_cell_length_b 19.02118
_cell_length_c 43.41795
_cell_angle_alpha 95.43201
_cell_angle_beta  95.43106
_cell_angle_gamma 126.43758

_symmetry_space_group_name_	'P 1'
_symmetry_space_group_name_H-M	'P 1'

loop_
_symmetry_equiv_pos_as_xyz
  x,y,z

loop_
_atom_site_label
_atom_site_type_symbol
_atom_site_fract_x
_atom_site_fract_y
_atom_site_fract_z
_atom_site_charge
C 	C 	0.93096 0.02128 0.97212 0.03000
C 	C 	0.88457 0.93037 0.97330 -0.05200
C 	C 	0.93277 0.89464 0.97459 0.03500
C 	C 	0.02666 0.95005 0.97533 -0.05400
C 	C 	0.07221 0.03974 0.97360 0.03100
C 	C 	0.02420 0.07487 0.97142 -0.05900
H 	H 	0.81230 0.88834 0.97362 0.06000
H 	H 	0.06416 0.92307 0.97694 0.06000
H 	H 	0.06003 0.14473 0.97042 0.06000
C 	C 	0.92008 0.00528 0.49580 0.03500
C 	C 	0.01356 0.04688 0.49746 -0.07200
C 	C 	0.04433 0.99486 0.49495 0.05300
C 	C 	0.98224 0.90238 0.49153 -0.06900
C 	C 	0.88991 0.86155 0.49077 0.04100
C 	C 	0.85871 0.91263 0.49235 -0.06000
H 	H 	0.06158 0.11865 0.50038 0.06200
H 	H 	0.00602 0.86232 0.48996 0.06200
H 	H 	0.78677 0.88041 0.49135 0.06100
Cu	Cu	0.78388 0.36874 0.96854 0.92700
Cu	Cu	0.77887 0.30500 0.03641 0.87900
Cu	Cu	0.64225 0.32395 0.00971 0.89900
Cu	Cu	0.61333 0.36206 0.94618 0.89900
C 	C 	0.71100 0.33237 0.90244 0.29200
O 	O 	0.83733 0.49857 0.96714 -0.34900
C 	C 	0.70479 0.35748 0.07893 0.28800
O 	O 	0.64245 0.29609 0.96613 -0.63800
O 	O 	0.77578 0.38577 0.01352 -0.63900
O 	O 	0.84388 0.30901 0.97168 -0.35900
O 	O 	0.74670 0.21721 0.00174 -0.43000
O 	O 	0.67443 0.37233 0.90966 -0.37400
O 	O 	0.51147 0.25534 0.00335 -0.37500
C 	C 	0.46079 0.25622 0.98016 0.29500
C 	C 	0.79630 0.53208 0.97655 0.28400
O 	O 	0.71302 0.47885 0.98155 -0.38400
O 	O 	0.49723 0.31428 0.96122 -0.38300
O 	O 	0.76782 0.33413 0.92392 -0.35300
C 	C 	0.80517 0.23542 0.98328 0.29100
O 	O 	0.64090 0.33739 0.05538 -0.37300
O 	O 	0.77749 0.36486 0.07373 -0.40800
H 	H 	0.60309 0.23163 0.95714 0.17100
H 	H 	0.81389 0.44820 0.02494 0.18400
Cu	Cu	0.60481 0.19676 0.50679 0.92600
Cu	Cu	0.64650 0.16697 0.43624 0.88300
Cu	Cu	0.61736 0.31456 0.46135 0.91400
Cu	Cu	0.57379 0.34117 0.52394 0.90000
C 	C 	0.62976 0.27112 0.57191 0.29200
O 	O 	0.46896 0.12408 0.50832 -0.34900
C 	C 	0.63459 0.27841 0.39928 0.28700
O 	O 	0.65398 0.32836 0.50562 -0.63900
O 	O 	0.57798 0.19117 0.46074 -0.63000
O 	O 	0.69471 0.16973 0.50853 -0.36100
O 	O 	0.63912 0.08472 0.45939 -0.41200
O 	O 	0.57724 0.29362 0.56271 -0.37400
O 	O 	0.66498 0.43662 0.46312 -0.37100
C 	C 	0.66104 0.48361 0.48631 0.29300
C 	C 	0.42069 0.14917 0.49703 0.28300
O 	O 	0.46198 0.22837 0.48993 -0.38800
O 	O 	0.60232 0.44481 0.50528 -0.38100
O 	O 	0.64312 0.22501 0.55175 -0.35400
C 	C 	0.69232 0.11442 0.48698 0.29100
O 	O 	0.59067 0.29666 0.41606 -0.37100
O 	O 	0.68942 0.26407 0.41340 -0.41300
H 	H 	0.71944 0.37652 0.51393 0.16800
H 	H 	0.51236 0.14682 0.45166 0.16700
C 	C 	0.70709 0.30665 0.86882 -0.07400
C 	C 	0.62811 0.27198 0.84678 0.01700
C 	C 	0.62826 0.26050 0.81453 -0.06000
C 	C 	0.70721 0.28293 0.80394 0.03100
C 	C 	0.78478 0.31317 0.82592 -0.06000
C 	C 	0.78477 0.32501 0.85824 0.02300
C 	C 	0.71047 0.28076 0.77000 0.00400
C 	C 	0.64656 0.20165 0.74810 -0.03500
C 	C 	0.64185 0.20216 0.71579 -0.03500
C 	C 	0.70147 0.28167 0.70507 0.00400
C 	C 	0.76801 0.35993 0.72695 -0.03500
C 	C 	0.77230 0.35955 0.75926 -0.03400
C 	C 	0.69044 0.28409 0.67111 0.02900
C 	C 	0.67107 0.33947 0.66034 -0.06000
C 	C 	0.65437 0.33742 0.62807 0.01700
C 	C 	0.65579 0.27914 0.60612 -0.07400
C 	C 	0.67805 0.22572 0.61702 0.01600
C 	C 	0.69528 0.22827 0.64933 -0.05900
H 	H 	0.56733 0.25627 0.85465 0.03400
H 	H 	0.56789 0.23672 0.79778 0.05300
H 	H 	0.84571 0.32959 0.81799 0.05400
H 	H 	0.84610 0.35143 0.87496 0.04900
H 	H 	0.59906 0.14031 0.75613 0.04600
H 	H 	0.59036 0.14133 0.69912 0.04700
H 	H 	0.81502 0.42142 0.71893 0.04600
H 	H 	0.82189 0.42099 0.77594 0.04700
H 	H 	0.66738 0.38297 0.67696 0.05300
H 	H 	0.63919 0.38035 0.62014 0.03900
H 	H 	0.68027 0.18097 0.60052 0.05500
H 	H 	0.71118 0.18599 0.65742 0.05500
C 	C 	0.63550 0.28996 0.36601 -0.08400
C 	C 	0.67369 0.26136 0.34685 0.01300
C 	C 	0.67546 0.27305 0.31555 -0.06300
C 	C 	0.63851 0.31283 0.30293 0.02900
C 	C 	0.59982 0.34094 0.32191 -0.06100
C 	C 	0.59832 0.32967 0.35328 0.01800
C 	C 	0.64049 0.32507 0.26983 0.00300
C 	C 	0.68745 0.41086 0.26278 -0.03500
C 	C 	0.69362 0.42276 0.23157 -0.03500
C 	C 	0.65327 0.34901 0.20716 0.00300
C 	C 	0.60460 0.26309 0.21416 -0.03600
C 	C 	0.59800 0.25117 0.24533 -0.03600
C 	C 	0.66688 0.36197 0.17458 0.02800
C 	C 	0.75506 0.41146 0.16785 -0.06200
C 	C 	0.76770 0.41452 0.13664 0.01600
C 	C 	0.69217 0.36731 0.11176 -0.08000
C 	C 	0.60409 0.32195 0.11861 0.01400
C 	C 	0.59157 0.31937 0.14987 -0.06100
H 	H 	0.70187 0.22991 0.35616 0.03200
H 	H 	0.70576 0.25138 0.30111 0.05000
H 	H 	0.57076 0.37137 0.31234 0.05400
H 	H 	0.56865 0.35219 0.36766 0.05200
H 	H 	0.72042 0.46834 0.28151 0.04600
H 	H 	0.73088 0.48930 0.22640 0.04600
H 	H 	0.57347 0.20573 0.19553 0.04300
H 	H 	0.56091 0.18463 0.25050 0.04300
H 	H 	0.81371 0.44523 0.18676 0.05100
H 	H 	0.83612 0.45155 0.13178 0.04100
H 	H 	0.54516 0.28581 0.09974 0.04800
H 	H 	0.52326 0.28215 0.15485 0.05300
C 	C 	0.82623 0.76511 0.49013 0.01000
C 	C 	0.76664 0.70664 0.46191 -0.03800
C 	C 	0.70805 0.61438 0.46115 0.02200
C 	C 	0.71316 0.58027 0.48810 -0.07900
C 	C 	0.77140 0.63906 0.51652 0.01800
C 	C 	0.82592 0.73146 0.51772 -0.03700
C 	C 	0.76669 0.74150 0.43359 0.09600
C 	C 	0.77736 0.60431 0.54422 0.06900
C 	C 	0.88160 0.79217 0.54735 0.09700
C 	C 	0.64105 0.55476 0.43297 0.08900
N 	N 	0.92603 0.84069 0.57095 -0.10300
N 	N 	0.58764 0.50722 0.41048 -0.10600
N 	N 	0.78208 0.57656 0.56629 -0.12100
N 	N 	0.76682 0.76942 0.41103 -0.10800
C 	C 	0.88508 0.05801 0.49768 0.01200
C 	C 	0.87671 0.09230 0.47131 -0.03900
C 	C 	0.81821 0.11658 0.46884 0.02100
C 	C 	0.76303 0.10052 0.49166 -0.08500
C 	C 	0.77726 0.07325 0.51927 0.02200
C 	C 	0.84190 0.05672 0.52290 -0.04000
C 	C 	0.92589 0.09983 0.44624 0.09500
C 	C 	0.72269 0.05823 0.54321 0.08500
C 	C 	0.86213 0.03565 0.55217 0.09500
C 	C 	0.81723 0.16073 0.44351 0.04700
N 	N 	0.87833 0.01876 0.57551 -0.10800
N 	N 	0.81670 0.19600 0.42328 -0.13600
N 	N 	0.67911 0.04611 0.56232 -0.10700
N 	N 	0.96514 0.10580 0.42625 -0.10800
C 	C 	0.14195 0.03664 0.49565 0.00100
C 	C 	0.19903 0.05745 0.52434 -0.03400
C 	C 	0.28819 0.08471 0.52450 0.01400
C 	C 	0.32145 0.09388 0.49607 -0.07800
C 	C 	0.26265 0.06838 0.46727 0.01600
C 	C 	0.17383 0.04183 0.46710 -0.03400
C 	C 	0.16595 0.05092 0.55368 0.09300
C 	C 	0.29397 0.06997 0.43780 0.07500
C 	C 	0.11501 0.01968 0.43755 0.09400
C 	C 	0.34620 0.10478 0.55398 0.08300
N 	N 	0.06798 0.00195 0.41399 -0.10700
N 	N 	0.39237 0.12070 0.57752 -0.10200
N 	N 	0.31901 0.07129 0.41430 -0.11800
N 	N 	0.13944 0.04568 0.57706 -0.10600
C 	C 	0.83713 0.62691 0.97640 -0.07800
C 	C 	0.84569 0.65736 0.94754 0.01600
C 	C 	0.86708 0.74175 0.94648 -0.03700
C 	C 	0.88535 0.79832 0.97449 0.01100
C 	C 	0.87612 0.76775 0.00330 -0.03700
C 	C 	0.85279 0.68253 0.00431 0.01800
C 	C 	0.83276 0.60210 0.91890 0.08200
C 	C 	0.89187 0.82453 0.03197 0.09700
C 	C 	0.84622 0.65254 0.03413 0.07700
C 	C 	0.87124 0.77095 0.91658 0.09700
N 	N 	0.84093 0.62852 0.05791 -0.11200
N 	N 	0.87460 0.79437 0.89275 -0.10400
N 	N 	0.90448 0.86991 0.05484 -0.10500
N 	N 	0.82272 0.55832 0.89601 -0.10200
C 	C 	0.83813 0.18088 0.98006 -0.08400
C 	C 	0.82528 0.13423 0.95020 0.02000
C 	C 	0.84899 0.07589 0.94767 -0.03700
C 	C 	0.88487 0.06354 0.97498 0.01100
C 	C 	0.89301 0.10649 0.00486 -0.03900
C 	C 	0.87354 0.16786 0.00734 0.02100
C 	C 	0.78709 0.14560 0.92214 0.08300
C 	C 	0.92279 0.08839 0.03307 0.09600
C 	C 	0.89306 0.22000 0.03788 0.05100
C 	C 	0.83710 0.02904 0.91700 0.08700
N 	N 	0.90869 0.26159 0.06224 -0.13700
N 	N 	0.82768 0.99160 0.89254 -0.10000
N 	N 	0.94651 0.07386 0.05557 -0.10500
N 	N 	0.75661 0.15466 0.89975 -0.10600
C 	C 	0.17165 0.09787 0.97494 0.01100
C 	C 	0.20718 0.09180 0.94839 -0.03600
C 	C 	0.30195 0.14183 0.95042 0.01700
C 	C 	0.36149 0.20121 0.97857 -0.07900
C 	C 	0.32589 0.20970 0.00479 0.02200
C 	C 	0.23105 0.15659 0.00318 -0.03800
C 	C 	0.14603 0.03428 0.91895 0.08700
C 	C 	0.38674 0.27460 0.03312 0.08600
C 	C 	0.19445 0.16143 0.03069 0.09400
C 	C 	0.33828 0.13089 0.92378 0.07000
N 	N 	0.16522 0.16527 0.05262 -0.10700
N 	N 	0.36732 0.12221 0.90255 -0.11900
N 	N 	0.43526 0.32634 0.05571 -0.10500
N 	N 	0.09718 0.98836 0.89549 -0.09900
