data_crystal

_cell_length_a 18.59347
_cell_length_b 16.78611
_cell_length_c 49.38195
_cell_angle_alpha 89.62394
_cell_angle_beta  89.63437
_cell_angle_gamma 119.46775

_symmetry_space_group_name_	'P 1'
_symmetry_space_group_name_H-M	'P 1'

loop_
_symmetry_equiv_pos_as_xyz
  x,y,z

loop_
_atom_site_label
_atom_site_type_symbol
_atom_site_fract_x
_atom_site_fract_y
_atom_site_fract_z
_atom_site_charge
C 	C 	0.17253 0.12147 0.76993 0.25400
C 	C 	0.20061 0.12126 0.69184 0.27400
Ni	Ni	0.07251 0.97647 0.72749 1.10400
Ni	Ni	0.10711 0.18666 0.72524 1.12200
O 	O 	0.17260 0.06140 0.75236 -0.34900
O 	O 	0.15205 0.18389 0.76236 -0.35000
O 	O 	0.14036 0.03634 0.69253 -0.34800
O 	O 	0.20616 0.17926 0.71059 -0.36700
O 	O 	0.07904 0.20009 0.68674 -0.36900
O 	O 	0.03208 0.05888 0.72974 -0.71300
C 	C 	0.19049 0.45541 0.41534 0.25200
C 	C 	0.16285 0.64540 0.44769 0.30800
Ni	Ni	0.23891 0.64123 0.39491 1.12400
O 	O 	0.20226 0.48908 0.44047 -0.34000
O 	O 	0.19719 0.50609 0.39372 -0.35700
O 	O 	0.23556 0.67775 0.45849 -0.36800
O 	O 	0.14899 0.60827 0.42364 -0.36700
C 	C 	0.23453 0.61495 0.09420 0.27600
C 	C 	0.23823 0.42522 0.03330 0.27700
C 	C 	0.09674 0.55104 0.01749 0.30900
O 	O 	0.13356 0.63892 0.02330 -0.37200
O 	O 	0.19206 0.60898 0.07263 -0.37600
O 	O 	0.26272 0.47537 0.05505 -0.35700
O 	O 	0.26069 0.46270 0.00904 -0.35300
O 	O 	0.14063 0.51101 0.01308 -0.38800
C 	C 	0.05281 0.18352 0.18356 0.26900
C 	C 	0.07725 0.17699 0.26494 0.25100
C 	C 	0.03334 0.92512 0.17832 0.25400
C 	C 	0.03949 0.90357 0.25514 0.24700
Ni	Ni	0.08844 0.06798 0.21942 1.12200
O 	O 	0.07157 0.01391 0.18229 -0.36600
O 	O 	0.10579 0.18469 0.20123 -0.36500
O 	O 	0.09226 0.95952 0.23636 -0.37800
O 	O 	0.03048 0.19701 0.24918 -0.35300
O 	O 	0.11831 0.13733 0.25494 -0.34400
O 	O 	0.97986 0.86780 0.19619 -0.35100
H 	H 	0.97828 0.01487 0.24782 0.15600
C 	C 	0.07412 0.24331 0.11424 0.12700
C 	C 	0.04353 0.24107 0.08832 -0.09100
C 	C 	0.09021 0.23957 0.06590 0.02300
C 	C 	0.16155 0.23347 0.06958 0.12100
C 	C 	0.18530 0.22433 0.09593 -0.07800
C 	C 	0.14439 0.23813 0.11767 0.01200
O 	O 	0.02857 0.23021 0.13783 -0.17900
C 	C 	0.07986 0.21692 0.15582 0.04900
C 	C 	0.14872 0.22011 0.14386 -0.05000
O 	O 	0.22108 0.27940 0.04967 -0.18100
C 	C 	0.18640 0.32641 0.03671 0.05400
C 	C 	0.10495 0.29437 0.04413 -0.05500
H 	H 	0.18218 0.18753 0.15179 0.06000
H 	H 	0.07342 0.33350 0.04093 0.06700
C 	C 	0.20318 0.74419 0.14164 0.11400
C 	C 	0.21763 0.83417 0.14400 -0.08200
C 	C 	0.15048 0.84973 0.14129 0.00800
C 	C 	0.07106 0.77851 0.13887 0.12700
C 	C 	0.05607 0.68833 0.13748 -0.09500
C 	C 	0.12337 0.67256 0.13939 0.02000
C 	C 	0.21077 0.63987 0.11975 0.04300
C 	C 	0.12822 0.60608 0.12598 -0.05700
O 	O 	0.01107 0.79892 0.14768 -0.18400
C 	C 	0.06210 0.88805 0.15671 0.04900
C 	C 	0.14542 0.91933 0.15260 -0.05600
H 	H 	0.99377 0.63201 0.13525 0.08600
H 	H 	0.07806 0.55445 0.11421 0.06600
H 	H 	0.19400 0.97225 0.16453 0.04900
C 	C 	0.07926 0.26149 0.38101 0.12400
C 	C 	0.03402 0.24724 0.35703 -0.09100
C 	C 	0.07337 0.25088 0.33244 0.02300
C 	C 	0.14775 0.25329 0.33137 0.11800
C 	C 	0.19100 0.26050 0.35517 -0.08300
C 	C 	0.15603 0.26644 0.38005 0.01900
O 	O 	0.07105 0.31059 0.40218 -0.18100
C 	C 	0.15250 0.35665 0.41128 0.05900
C 	C 	0.20099 0.32407 0.39984 -0.06000
O 	O 	0.16597 0.22859 0.30649 -0.17800
C 	C 	0.09419 0.21214 0.29275 0.05600
C 	C 	0.03802 0.22414 0.30820 -0.06800
H 	H 	0.97459 0.24447 0.35742 0.08100
C 	C 	0.16857 0.85635 0.29675 0.01300
C 	C 	0.12032 0.86984 0.31533 0.12100
C 	C 	0.15117 0.90353 0.34106 -0.08600
O 	O 	0.05585 0.87767 0.30394 -0.18900
C 	C 	0.07141 0.86937 0.27664 0.05500
C 	C 	0.13829 0.85633 0.27224 -0.05700
H 	H 	0.11297 0.91236 0.35606 0.07500
H 	H 	0.21939 0.89418 0.38930 0.07000
H 	H 	0.17381 0.87315 0.25352 0.06200
N 	N 	0.27988 0.81639 0.50901 -0.10500
C 	C 	0.08080 0.59081 0.49085 0.01000
C 	C 	0.09235 0.63193 0.46496 -0.06300
C 	C 	0.03723 0.66143 0.45594 -0.00300
C 	C 	0.05205 0.70978 0.43027 0.09100
C 	C 	0.13278 0.55356 0.49959 0.08900
N 	N 	0.17413 0.52379 0.50659 -0.11900
N 	N 	0.06377 0.74826 0.40977 -0.11300
H 	H 	0.08204 0.36531 0.58831 0.08000
H 	H 	0.10189 0.30264 0.63830 0.07000
O 	O 	0.26651 0.08551 0.65318 -0.17900
C 	C 	0.26856 0.14723 0.67245 0.04500
C 	C 	0.00488 0.49730 0.01414 -0.08100
C 	C 	0.96940 0.42305 0.99576 0.02500
C 	C 	0.02103 0.40540 0.97738 0.08000
N 	N 	0.06200 0.39116 0.96266 -0.10600
N 	N 	0.00907 0.62847 0.07066 -0.11800
N 	N 	0.17608 0.90053 0.98254 -0.10700
C 	C 	0.27018 0.18704 0.83378 0.12000
O 	O 	0.22783 0.20475 0.81363 -0.18100
C 	C 	0.21187 0.13179 0.79648 0.05200
C 	C 	0.24205 0.07593 0.80554 -0.05500
H 	H 	0.22102 0.00639 0.79910 0.06200
C 	C 	0.01583 0.58121 0.50768 -0.00100
C 	C 	0.27932 0.11212 0.82903 0.01600
Ni	Ni	0.24287 0.70487 0.04316 1.12200
O 	O 	0.95799 0.86460 0.25199 -0.34900
O 	O 	0.97492 0.02073 0.22810 -0.70900
O 	O 	0.26244 0.72587 0.13073 -0.17500
C 	C 	0.01564 0.55939 0.53615 0.10600
H 	H 	0.27987 0.89071 0.14613 0.07100
C 	C 	0.25124 0.88261 0.30195 -0.08400
C 	C 	0.23303 0.92627 0.34681 0.01600
Ni	Ni	0.30524 0.61392 0.45281 1.11600
O 	O 	0.30365 0.66288 0.35948 -0.35300
O 	O 	0.27102 0.77280 0.39888 -0.37600
O 	O 	0.32710 0.65034 0.41643 -0.71800
C 	C 	0.28872 0.76928 0.98692 0.28000
Ni	Ni	0.25599 0.57768 0.99821 1.12400
O 	O 	0.30945 0.62678 0.09145 -0.34300
O 	O 	0.24618 0.68150 0.97962 -0.36500
O 	O 	0.28645 0.79440 0.01223 -0.37100
O 	O 	0.30228 0.64819 0.02962 -0.71800
H 	H 	0.24076 0.21982 0.09913 0.07400
H 	H 	0.25168 0.26644 0.35434 0.07700
H 	H 	0.26790 0.36313 0.39921 0.06200
C 	C 	0.28179 0.91403 0.32790 0.11600
C 	C 	0.25821 0.91520 0.37127 -0.05700
H 	H 	0.28901 0.87310 0.28694 0.07200
C 	C 	0.34898 0.86383 0.50372 0.09600
N 	N 	0.40292 0.06949 0.54027 -0.11100
C 	C 	0.34889 0.13192 0.64521 0.12200
C 	C 	0.34518 0.22361 0.67565 -0.05400
H 	H 	0.36544 0.26449 0.69381 0.06400
C 	C 	0.23940 0.90908 0.97599 0.09700
N 	N 	0.31683 0.48055 0.93838 -0.11000
C 	C 	0.28197 0.22401 0.85981 -0.08100
C 	C 	0.30201 0.18124 0.88079 0.01600
C 	C 	0.31094 0.10548 0.87591 0.12400
C 	C 	0.29473 0.06615 0.85003 -0.08400
H 	H 	0.27707 0.28468 0.86355 0.07700
H 	H 	0.30117 0.00662 0.84598 0.07400
H 	H 	0.02381 0.05733 0.74947 0.15200
C 	C 	0.03611 0.25849 0.63565 -0.08000
H 	H 	0.98905 0.24787 0.08553 0.08300
C 	C 	0.98358 0.57878 0.05263 0.10100
C 	C 	0.83137 0.33622 0.90806 0.24600
C 	C 	0.48012 0.22818 0.91650 0.25100
C 	C 	0.74960 0.41863 0.87180 0.27400
C 	C 	0.53401 0.10971 0.94702 0.28800
C 	C 	0.62971 0.48886 0.95236 0.31200
C 	C 	0.76533 0.39821 0.98730 0.28400
Ni	Ni	0.64501 0.24369 0.90347 1.11300
Ni	Ni	0.59727 0.30140 0.96383 1.12100
Ni	Ni	0.75539 0.44796 0.93037 1.12000
O 	O 	0.76116 0.25671 0.90919 -0.33700
O 	O 	0.84227 0.40924 0.92214 -0.36600
O 	O 	0.61645 0.42776 0.97115 -0.38000
O 	O 	0.53710 0.24849 0.89764 -0.34500
O 	O 	0.49829 0.27412 0.93961 -0.35300
O 	O 	0.78149 0.46578 0.97019 -0.37100
O 	O 	0.69895 0.33096 0.87017 -0.35100
O 	O 	0.73958 0.46442 0.89105 -0.36900
O 	O 	0.68892 0.32844 0.99069 -0.35500
O 	O 	0.58343 0.12286 0.92623 -0.35800
O 	O 	0.56079 0.16663 0.96737 -0.36700
O 	O 	0.68607 0.50879 0.93355 -0.36800
O 	O 	0.67164 0.32264 0.93390 -0.70300
H 	H 	0.70341 0.29908 0.94368 0.14800
C 	C 	0.84582 0.33598 0.53478 0.25200
C 	C 	0.61008 0.41995 0.48092 0.29900
C 	C 	0.86907 0.54982 0.50928 0.31000
C 	C 	0.59854 0.17618 0.49927 0.28300
C 	C 	0.63443 0.48421 0.56414 0.27600
C 	C 	0.62424 0.26763 0.58486 0.25900
Ni	Ni	0.73994 0.36805 0.49306 1.11400
Ni	Ni	0.57935 0.31380 0.53250 1.12300
Ni	Ni	0.76128 0.43575 0.55592 1.12300
O 	O 	0.84254 0.36434 0.50973 -0.34800
O 	O 	0.82582 0.36784 0.55649 -0.35500
O 	O 	0.57583 0.39851 0.56117 -0.36200
O 	O 	0.64709 0.37573 0.47163 -0.35700
O 	O 	0.57177 0.39826 0.50456 -0.36500
O 	O 	0.68366 0.35494 0.58622 -0.36100
O 	O 	0.80509 0.50856 0.49362 -0.37500
O 	O 	0.86034 0.53770 0.53565 -0.35800
O 	O 	0.58036 0.23379 0.56258 -0.37600
O 	O 	0.67340 0.22712 0.48872 -0.35900
O 	O 	0.55135 0.21358 0.50439 -0.36000
O 	O 	0.70731 0.51263 0.55327 -0.36500
O 	O 	0.69513 0.35740 0.52781 -0.71200
H 	H 	0.69544 0.30126 0.53346 0.14500
C 	C 	0.94048 0.88796 0.68493 0.27600
C 	C 	0.91691 0.88550 0.76114 0.25500
C 	C 	0.00238 0.16611 0.67851 0.25900
C 	C 	0.96459 0.16670 0.75824 0.26300
Ni	Ni	0.92192 0.01964 0.71902 1.12700
O 	O 	0.94042 0.12711 0.69584 -0.35100
O 	O 	0.98105 0.87278 0.70416 -0.34500
O 	O 	0.93486 0.96270 0.68472 -0.37900
O 	O 	0.02513 0.22099 0.74129 -0.35800
O 	O 	0.90683 0.08352 0.75102 -0.36300
O 	O 	0.99578 0.90721 0.75999 -0.35200
O 	O 	0.87951 0.89850 0.74000 -0.36700
C 	C 	0.43087 0.81178 0.46280 0.30200
C 	C 	0.46310 0.61536 0.43840 0.28300
C 	C 	0.33440 0.83560 0.38524 0.27800
C 	C 	0.37132 0.65547 0.35571 0.26000
Ni	Ni	0.43106 0.75235 0.40710 1.12300
O 	O 	0.40133 0.82818 0.38219 -0.35400
O 	O 	0.40238 0.72721 0.47171 -0.35300
O 	O 	0.42346 0.82798 0.43738 -0.37500
O 	O 	0.42895 0.68054 0.37460 -0.37100
O 	O 	0.38747 0.56497 0.44853 -0.36300
O 	O 	0.49142 0.70251 0.43086 -0.36100
H 	H 	0.33427 0.60021 0.40912 0.16300
C 	C 	0.42742 0.61101 0.99732 0.29100
C 	C 	0.41979 0.80840 0.06581 0.25700
Ni	Ni	0.35563 0.60983 0.05442 1.11700
O 	O 	0.41824 0.58310 0.02313 -0.35400
O 	O 	0.37360 0.62906 0.98523 -0.37100
O 	O 	0.44034 0.74740 0.05722 -0.35800
O 	O 	0.34069 0.78883 0.06777 -0.34300
H 	H 	0.35023 0.70182 0.02145 0.16400
C 	C 	0.81933 0.93969 0.26451 0.24800
C 	C 	0.81376 0.96192 0.18777 0.25800
Ni	Ni	0.92815 0.09798 0.22815 1.11500
Ni	Ni	0.90696 0.89494 0.22034 1.12000
O 	O 	0.86455 0.03012 0.26307 -0.35300
O 	O 	0.81219 0.88784 0.24335 -0.35700
O 	O 	0.97799 0.16237 0.19134 -0.33800
O 	O 	0.81820 0.01370 0.20827 -0.34400
O 	O 	0.86088 0.92368 0.18667 -0.35400
C 	C 	0.54823 0.93328 0.11782 0.11500
C 	C 	0.56348 0.91809 0.14468 -0.08200
C 	C 	0.63324 0.90905 0.14963 0.01300
C 	C 	0.69056 0.92418 0.12975 0.12100
C 	C 	0.67863 0.94549 0.10327 -0.08600
C 	C 	0.60660 0.95033 0.09776 0.01800
O 	O 	0.46818 0.89671 0.10817 -0.17900
C 	C 	0.48247 0.88679 0.08089 0.05600
C 	C 	0.56526 0.92270 0.07440 -0.06000
O 	O 	0.76741 0.94322 0.13948 -0.18000
C 	C 	0.75013 0.93950 0.16723 0.05100
C 	C 	0.67057 0.91985 0.17351 -0.05700
H 	H 	0.51880 0.90576 0.16062 0.07100
H 	H 	0.72297 0.95618 0.08736 0.07700
H 	H 	0.58768 0.90223 0.05693 0.07000
H 	H 	0.65083 0.93560 0.19245 0.06000
C 	C 	0.65063 0.78764 0.30328 0.12400
C 	C 	0.58937 0.69634 0.30680 -0.08800
C 	C 	0.50623 0.67465 0.30534 0.02000
C 	C 	0.48512 0.74112 0.29895 0.11700
C 	C 	0.54748 0.83117 0.29355 -0.08200
C 	C 	0.62940 0.85385 0.29831 0.01100
O 	O 	0.73104 0.81260 0.29583 -0.18500
C 	C 	0.75563 0.90009 0.28546 0.05200
C 	C 	0.69549 0.92540 0.28715 -0.05600
O 	O 	0.41091 0.72455 0.31051 -0.17900
C 	C 	0.39661 0.65235 0.32788 0.05500
C 	C 	0.44851 0.61697 0.32299 -0.05900
H 	H 	0.60571 0.64419 0.31155 0.07600
H 	H 	0.53184 0.88380 0.28868 0.07100
H 	H 	0.69233 0.97510 0.27378 0.05600
H 	H 	0.45996 0.57641 0.33773 0.06800
H 	H 	0.97249 0.19344 0.30427 0.06700
O 	O 	0.34206 0.89865 0.33923 -0.17800
C 	C 	0.32101 0.89526 0.36658 0.04500
C 	C 	0.56062 0.07350 0.49863 -0.06500
C 	C 	0.47688 0.01493 0.50617 0.02500
C 	C 	0.43555 0.92327 0.49709 -0.01600
C 	C 	0.47794 0.89052 0.48079 -0.05000
C 	C 	0.56409 0.94509 0.47696 -0.01500
C 	C 	0.60612 0.03333 0.48799 0.02500
C 	C 	0.43586 0.04540 0.52513 0.09000
C 	C 	0.60849 0.91368 0.45979 0.09200
C 	C 	0.69527 0.07903 0.49028 0.09400
N 	N 	0.76646 0.11519 0.49196 -0.10100
N 	N 	0.64422 0.88915 0.44603 -0.10800
C 	C 	0.95341 0.59693 0.49701 -0.06000
C 	C 	0.96758 0.64372 0.47196 0.01000
C 	C 	0.91227 0.67631 0.46313 0.09800
N 	N 	0.86821 0.70236 0.45603 -0.10000
N 	N 	0.01590 0.54220 0.55888 -0.10400
C 	C 	0.60081 0.48640 0.46334 -0.05900
C 	C 	0.55308 0.45677 0.43961 0.00600
C 	C 	0.51678 0.50730 0.42909 0.00000
C 	C 	0.52332 0.58318 0.44340 -0.05300
C 	C 	0.57694 0.61670 0.46573 0.00500
C 	C 	0.62116 0.57265 0.47391 0.00700
C 	C 	0.53911 0.37333 0.42658 0.09800
C 	C 	0.57858 0.68840 0.48236 0.10500
C 	C 	0.68603 0.61485 0.49374 0.10100
C 	C 	0.47161 0.48040 0.40394 0.08500
N 	N 	0.73796 0.64918 0.50951 -0.09000
N 	N 	0.43567 0.45899 0.38382 -0.11600
N 	N 	0.57972 0.74499 0.49590 -0.10100
N 	N 	0.52793 0.30668 0.41617 -0.09900
C 	C 	0.91899 0.17482 0.61531 0.11300
C 	C 	0.87006 0.13969 0.59235 -0.07800
C 	C 	0.89780 0.18986 0.56790 0.01200
C 	C 	0.97208 0.27137 0.56644 0.13600
C 	C 	0.02375 0.30192 0.58916 -0.10500
C 	C 	0.99262 0.25474 0.61371 0.04300
O 	O 	0.90921 0.12307 0.63850 -0.18500
C 	C 	0.98585 0.17983 0.65035 0.06900
O 	O 	0.97238 0.33291 0.54744 -0.17700
C 	C 	0.88989 0.28520 0.53939 0.05900
C 	C 	0.84682 0.19807 0.55037 -0.05100
H 	H 	0.81092 0.07742 0.59364 0.07300
H 	H 	0.78003 0.16052 0.55251 0.05700
C 	C 	0.38733 0.08884 0.63223 -0.08600
C 	C 	0.47405 0.13199 0.63236 0.01900
C 	C 	0.52060 0.21413 0.64564 0.11800
C 	C 	0.48088 0.25279 0.66042 -0.08300
C 	C 	0.39520 0.21353 0.65811 0.01200
O 	O 	0.59744 0.26921 0.63378 -0.18700
C 	C 	0.58932 0.21867 0.61054 0.05200
C 	C 	0.51872 0.13391 0.61066 -0.05900
H 	H 	0.35115 0.02534 0.62154 0.07800
H 	H 	0.51651 0.31676 0.67094 0.06900
H 	H 	0.49179 0.09403 0.59262 0.07000
C 	C 	0.69403 0.66569 0.60636 0.11800
C 	C 	0.76526 0.75150 0.60884 -0.08300
C 	C 	0.82280 0.76137 0.62854 0.01400
C 	C 	0.80642 0.69399 0.64738 0.11900
C 	C 	0.73298 0.60999 0.64613 -0.08800
C 	C 	0.67710 0.59719 0.62525 0.01500
O 	O 	0.65955 0.63304 0.58122 -0.17900
C 	C 	0.62718 0.53924 0.58572 0.04800
C 	C 	0.63316 0.51735 0.61235 -0.06100
O 	O 	0.85267 0.72528 0.67084 -0.18300
C 	C 	0.89757 0.81858 0.66419 0.04500
C 	C 	0.87971 0.84068 0.63905 -0.05400
H 	H 	0.77878 0.80584 0.59432 0.07400
H 	H 	0.72035 0.55572 0.66058 0.07300
H 	H 	0.63170 0.45445 0.61853 0.07100
H 	H 	0.88892 0.90747 0.63321 0.06700
C 	C 	0.95156 0.51658 0.03003 0.01600
C 	C 	0.86606 0.47249 0.02430 0.00100
C 	C 	0.83337 0.40521 0.00410 -0.05000
C 	C 	0.88294 0.37130 0.99350 -0.00900
C 	C 	0.84522 0.28601 0.97882 0.09500
C 	C 	0.81229 0.49831 0.03848 0.10300
N 	N 	0.76930 0.51890 0.04979 -0.09900
N 	N 	0.81505 0.21776 0.96716 -0.09400
C 	C 	0.46094 0.01666 0.95170 -0.04400
C 	C 	0.38640 0.00754 0.96264 0.01700
C 	C 	0.31868 0.91973 0.96780 -0.00900
C 	C 	0.32875 0.84230 0.96602 -0.05400
C 	C 	0.39613 0.84930 0.95105 -0.00100
C 	C 	0.46495 0.93628 0.94553 -0.01000
C 	C 	0.38144 0.08739 0.97090 0.08700
C 	C 	0.39172 0.76833 0.93933 0.09200
C 	C 	0.54129 0.94245 0.93581 0.10000
N 	N 	0.60216 0.94713 0.92808 -0.10400
N 	N 	0.38832 0.70400 0.92965 -0.10300
N 	N 	0.37655 0.15032 0.97781 -0.10600
C 	C 	0.49040 0.60494 0.98046 -0.05400
C 	C 	0.46762 0.55387 0.95619 0.00700
C 	C 	0.52458 0.53451 0.94318 0.00500
C 	C 	0.59668 0.55114 0.95660 -0.06400
C 	C 	0.62426 0.61160 0.97860 0.01200
C 	C 	0.57181 0.64102 0.99003 0.00200
C 	C 	0.38377 0.51323 0.94630 0.09800
C 	C 	0.70532 0.64124 0.98980 0.09800
C 	C 	0.60101 0.70742 0.01164 0.09400
C 	C 	0.50996 0.49895 0.91592 0.09400
N 	N 	0.62426 0.76040 0.02889 -0.10800
N 	N 	0.49885 0.47121 0.89407 -0.10300
N 	N 	0.77003 0.66483 0.99872 -0.09800
C 	C 	0.94510 0.26539 0.87084 0.12300
C 	C 	0.92484 0.19032 0.85405 -0.08300
C 	C 	0.92375 0.20331 0.82614 0.01900
C 	C 	0.95452 0.28870 0.81477 0.11700
C 	C 	0.98038 0.36537 0.83121 -0.07400
C 	C 	0.97390 0.35190 0.85951 0.01300
O 	O 	0.90514 0.25354 0.89553 -0.17400
C 	C 	0.90405 0.33595 0.89671 0.05800
C 	C 	0.94912 0.39681 0.87623 -0.05700
O 	O 	0.97702 0.29404 0.78764 -0.17700
C 	C 	0.95595 0.20242 0.78420 0.05000
C 	C 	0.92460 0.14802 0.80700 -0.05400
H 	H 	0.90180 0.12240 0.86263 0.08000
H 	H 	0.00164 0.43261 0.82237 0.06400
H 	H 	0.93969 0.45265 0.86973 0.05300
H 	H 	0.92387 0.08383 0.81055 0.06500
O 	O 	0.36582 0.09783 0.89324 -0.19100
C 	C 	0.39374 0.17894 0.90774 0.05600
C 	C 	0.35333 0.22684 0.90117 -0.05000
H 	H 	0.37836 0.29930 0.90457 0.07100
C 	C 	0.79798 0.55151 0.81403 0.11800
C 	C 	0.76427 0.59246 0.79735 -0.08100
C 	C 	0.79560 0.68725 0.79922 0.01300
C 	C 	0.86015 0.74009 0.81613 0.12400
C 	C 	0.89602 0.69951 0.83184 -0.08600
C 	C 	0.86603 0.60520 0.82958 0.01800
O 	O 	0.75071 0.46258 0.82383 -0.17500
C 	C 	0.79423 0.46925 0.84746 0.04200
C 	C 	0.86504 0.55261 0.85020 -0.06000
O 	O 	0.90489 0.83096 0.80815 -0.19000
C 	C 	0.86697 0.82634 0.78347 0.04800
C 	C 	0.79969 0.74145 0.77844 -0.05400
H 	H 	0.71280 0.55126 0.78429 0.07300
H 	H 	0.94754 0.74079 0.84489 0.07100
H 	H 	0.89448 0.57958 0.86945 0.05100
H 	H 	0.77708 0.71644 0.75833 0.06500
