data_crystal

_cell_length_a 24.16996
_cell_length_b 20.95811
_cell_length_c 46.99812
_cell_angle_alpha 90.63385
_cell_angle_beta  90.72740
_cell_angle_gamma 112.97749

_symmetry_space_group_name_	'P 1'
_symmetry_space_group_name_H-M	'P 1'

loop_
_symmetry_equiv_pos_as_xyz
  x,y,z

loop_
_atom_site_label
_atom_site_type_symbol
_atom_site_fract_x
_atom_site_fract_y
_atom_site_fract_z
_atom_site_charge
Ni	Ni	0.72206 0.36054 0.90033 1.10000
O 	O 	0.65077 0.30130 0.87492 -0.70500
Ni	Ni	0.58322 0.31453 0.89446 1.10200
O 	O 	0.77992 0.33501 0.87542 -0.36900
O 	O 	0.72466 0.21934 0.88152 -0.41400
O 	O 	0.72868 0.44039 0.87395 -0.39800
Ni	Ni	0.63438 0.20307 0.87533 1.06200
O 	O 	0.73679 0.44778 0.96054 -0.42000
O 	O 	0.62713 0.19651 0.91856 -0.41700
O 	O 	0.51874 0.26206 0.86525 -0.38200
O 	O 	0.65262 0.36116 0.92278 -0.70300
O 	O 	0.79308 0.42667 0.92475 -0.38000
O 	O 	0.52640 0.35419 0.91291 -0.37200
O 	O 	0.60027 0.46210 0.91227 -0.41900
Ni	Ni	0.67117 0.45606 0.93566 1.07100
H 	H 	0.65424 0.31819 0.85517 0.15400
H 	H 	0.64853 0.33219 0.93971 0.15600
C 	C 	0.57915 0.19616 0.93138 0.28300
O 	O 	0.73511 0.51986 0.90906 -0.40200
C 	C 	0.76965 0.26958 0.86955 0.27200
C 	C 	0.51182 0.19886 0.85693 0.27700
C 	C 	0.74568 0.50496 0.88293 0.30700
C 	C 	0.54508 0.42102 0.91858 0.27000
C 	C 	0.78865 0.45078 0.95052 0.28900
O 	O 	0.54811 0.22994 0.92058 -0.37200
O 	O 	0.54252 0.16620 0.86971 -0.41100
Ni	Ni	0.59405 0.33620 0.62298 1.10000
O 	O 	0.66233 0.35570 0.59467 -0.70200
Ni	Ni	0.72890 0.35578 0.62043 1.09900
O 	O 	0.54540 0.37569 0.59774 -0.37600
O 	O 	0.62910 0.47391 0.59272 -0.42200
O 	O 	0.54875 0.24006 0.60432 -0.37300
Ni	Ni	0.69094 0.44183 0.57369 1.06900
O 	O 	0.53711 0.20431 0.65928 -0.40500
O 	O 	0.76004 0.50874 0.59857 -0.40300
O 	O 	0.80271 0.39699 0.59435 -0.37400
O 	O 	0.65675 0.32225 0.64694 -0.70400
O 	O 	0.52932 0.30968 0.65288 -0.38500
O 	O 	0.78096 0.33397 0.65046 -0.37100
O 	O 	0.71293 0.22177 0.65401 -0.41000
Ni	Ni	0.62747 0.22441 0.65578 1.06300
H 	H 	0.65307 0.31715 0.58070 0.15400
H 	H 	0.66416 0.35059 0.66466 0.15400
C 	C 	0.76127 0.50833 0.62647 0.30200
O 	O 	0.61689 0.19240 0.61433 -0.41600
C 	C 	0.57147 0.43864 0.58776 0.27100
C 	C 	0.80113 0.41439 0.56725 0.28700
C 	C 	0.57423 0.19670 0.59791 0.28400
C 	C 	0.76314 0.27291 0.66264 0.27300
C 	C 	0.51271 0.24953 0.66595 0.27700
O 	O 	0.74842 0.45002 0.64005 -0.39300
O 	O 	0.75047 0.40990 0.55461 -0.42100
C 	C 	0.04118 0.00069 0.73288 -0.04200
H 	H 	0.04275 0.00562 0.70934 0.04000
C 	C 	0.03748 0.98833 0.78939 -0.03600
H 	H 	0.03639 0.98350 0.81293 0.04000
C 	C 	0.01989 0.05114 0.74874 -0.00800
C 	C 	0.99926 0.92935 0.74367 -0.00500
C 	C 	0.10175 0.01315 0.74740 -0.00800
C 	C 	0.01774 0.04466 0.77779 -0.01300
C 	C 	0.99749 0.92293 0.77267 -0.00700
C 	C 	0.09951 0.00593 0.77633 -0.00900
Ni	Ni	0.24735 0.71656 0.40375 1.09900
O 	O 	0.32095 0.75996 0.37856 -0.70400
Ni	Ni	0.38291 0.73964 0.40063 1.10100
O 	O 	0.19605 0.74673 0.37620 -0.37200
O 	O 	0.26331 0.85979 0.37838 -0.41000
O 	O 	0.23045 0.62974 0.37901 -0.39600
Ni	Ni	0.34941 0.85968 0.37523 1.06300
O 	O 	0.22281 0.64172 0.46620 -0.41900
O 	O 	0.35669 0.87598 0.41819 -0.41700
O 	O 	0.44985 0.77711 0.37191 -0.38100
O 	O 	0.31275 0.70935 0.42830 -0.70000
O 	O 	0.17239 0.66504 0.42795 -0.37400
O 	O 	0.43066 0.69249 0.42228 -0.37300
O 	O 	0.34706 0.59279 0.42269 -0.42200
Ni	Ni	0.28307 0.61660 0.44410 1.07000
H 	H 	0.31492 0.73764 0.35946 0.15300
H 	H 	0.32080 0.74300 0.44430 0.15500
C 	C 	0.40087 0.87080 0.43311 0.28700
O 	O 	0.21564 0.55766 0.41668 -0.40300
C 	C 	0.21412 0.81117 0.36741 0.27400
C 	C 	0.46573 0.84088 0.36230 0.27500
C 	C 	0.21536 0.56723 0.38915 0.30400
C 	C 	0.40415 0.62698 0.42930 0.27000
C 	C 	0.17334 0.64333 0.45442 0.28600
O 	O 	0.42613 0.82839 0.42490 -0.37200
O 	O 	0.44018 0.88239 0.37230 -0.41000
Ni	Ni	0.37549 0.72158 0.11456 1.10100
O 	O 	0.30145 0.70058 0.08888 -0.70600
Ni	Ni	0.24357 0.70998 0.11690 1.09900
O 	O 	0.41505 0.67260 0.08858 -0.37500
O 	O 	0.32776 0.57673 0.08566 -0.42000
O 	O 	0.42066 0.81199 0.09303 -0.37200
Ni	Ni	0.26328 0.61032 0.07011 1.07000
O 	O 	0.44434 0.85887 0.14727 -0.40600
O 	O 	0.19868 0.55153 0.09782 -0.39900
O 	O 	0.16456 0.66646 0.09373 -0.38000
O 	O 	0.32151 0.74590 0.14032 -0.70700
O 	O 	0.44649 0.75028 0.14197 -0.38500
O 	O 	0.20118 0.74272 0.14783 -0.37300
O 	O 	0.27174 0.85416 0.14613 -0.41100
Ni	Ni	0.35529 0.84566 0.14602 1.06300
H 	H 	0.30875 0.73661 0.07435 0.15500
H 	H 	0.31769 0.72211 0.15872 0.15500
C 	C 	0.20343 0.55765 0.12569 0.30100
O 	O 	0.35842 0.86698 0.10376 -0.41700
C 	C 	0.38426 0.60949 0.07856 0.26900
C 	C 	0.16118 0.65578 0.06575 0.28500
C 	C 	0.39841 0.85865 0.08715 0.28200
C 	C 	0.22193 0.80794 0.15673 0.27300
C 	C 	0.46575 0.81170 0.15490 0.27700
O 	O 	0.22574 0.61923 0.13806 -0.39500
O 	O 	0.20368 0.64406 0.05174 -0.41800
C 	C 	0.93607 0.07141 0.23024 -0.03900
H 	H 	0.93745 0.06867 0.20664 0.04000
C 	C 	0.93202 0.07770 0.28692 -0.03900
H 	H 	0.93028 0.08035 0.31052 0.04000
C 	C 	0.96130 0.02467 0.24605 -0.01100
C 	C 	0.97120 0.14339 0.24360 -0.00600
C 	C 	0.87287 0.05069 0.24240 -0.00700
C 	C 	0.95874 0.02752 0.27513 -0.01100
C 	C 	0.96937 0.14653 0.27271 -0.00700
C 	C 	0.87081 0.05434 0.27149 -0.00700
C 	C 	0.10670 0.37379 0.14669 -0.06700
C 	C 	0.10916 0.37970 0.17648 0.02700
C 	C 	0.14441 0.44334 0.18964 -0.06800
C 	C 	0.17619 0.50095 0.17316 0.01500
C 	C 	0.17275 0.49562 0.14325 -0.08800
C 	C 	0.13837 0.43127 0.13015 0.01500
C 	C 	0.07414 0.31942 0.19386 -0.00200
H 	H 	0.14708 0.44822 0.21265 0.04500
H 	H 	0.20311 0.54971 0.18367 0.03200
H 	H 	0.13551 0.42584 0.10718 0.03300
H 	H 	0.07970 0.32483 0.13633 0.04500
C 	C 	0.02775 0.32159 0.21102 -0.03800
C 	C 	0.99372 0.26395 0.22697 -0.03900
C 	C 	0.00625 0.20394 0.22617 0.01200
C 	C 	0.05222 0.20155 0.20882 -0.04500
C 	C 	0.08618 0.25911 0.19282 -0.03600
H 	H 	0.01775 0.36766 0.21179 0.03800
H 	H 	0.95769 0.26593 0.23996 0.04000
H 	H 	0.06186 0.15531 0.20783 0.03900
H 	H 	0.12183 0.25687 0.17962 0.03600
C 	C 	0.73052 0.01010 0.19985 -0.03800
C 	C 	0.70336 0.93786 0.20259 0.00100
C 	C 	0.73557 0.90224 0.21520 -0.03700
C 	C 	0.79346 0.93892 0.22613 -0.03900
C 	C 	0.81896 0.01150 0.22505 0.01200
C 	C 	0.78823 0.04676 0.21103 -0.04300
C 	C 	0.64106 0.89979 0.19258 0.02700
H 	H 	0.71516 0.84642 0.21716 0.03700
H 	H 	0.81726 0.91137 0.23681 0.03800
H 	H 	0.80792 0.10280 0.20997 0.03900
H 	H 	0.70640 0.03785 0.18961 0.03700
C 	C 	0.59449 0.91594 0.20382 -0.06800
C 	C 	0.53625 0.88436 0.19246 0.01100
C 	C 	0.52409 0.83601 0.16996 -0.08600
C 	C 	0.57012 0.81717 0.15980 0.01700
C 	C 	0.62838 0.84914 0.17100 -0.06700
H 	H 	0.60371 0.95398 0.22092 0.04300
H 	H 	0.50091 0.89866 0.20068 0.01100
H 	H 	0.56135 0.77997 0.14240 0.04000
H 	H 	0.66403 0.83604 0.16235 0.04600
C 	C 	0.00547 0.89387 0.20702 -0.03600
C 	C 	0.06851 0.92626 0.20830 -0.00500
C 	C 	0.09609 0.99236 0.22105 -0.02800
C 	C 	0.06103 0.02526 0.23270 -0.05300
C 	C 	0.99813 0.99274 0.23146 0.02200
C 	C 	0.97047 0.92730 0.21835 -0.04600
C 	C 	0.10562 0.89184 0.19562 0.02800
H 	H 	0.14463 0.01818 0.22193 0.03100
H 	H 	0.08271 0.07546 0.24314 0.04000
H 	H 	0.92191 0.90164 0.21755 0.03900
H 	H 	0.98367 0.84272 0.19739 0.03800
C 	C 	0.15153 0.88333 0.21179 -0.06700
C 	C 	0.18899 0.85470 0.19922 0.01000
C 	C 	0.18014 0.83321 0.17058 -0.08500
C 	C 	0.13332 0.83990 0.15463 0.01800
C 	C 	0.09647 0.86949 0.16702 -0.06800
H 	H 	0.15853 0.89955 0.23398 0.04200
H 	H 	0.22505 0.84966 0.21168 0.01100
H 	H 	0.12634 0.82360 0.13245 0.03000
H 	H 	0.06148 0.87612 0.15428 0.04600
C 	C 	0.71454 0.02646 0.29569 -0.04000
C 	C 	0.69862 0.96433 0.31064 0.00200
C 	C 	0.74073 0.93385 0.31402 -0.03700
C 	C 	0.79789 0.96478 0.30225 -0.04100
C 	C 	0.81342 0.02641 0.28703 0.01200
C 	C 	0.77183 0.05765 0.28419 -0.04100
C 	C 	0.63859 0.93262 0.32360 0.02300
H 	H 	0.72919 0.88629 0.32574 0.03900
H 	H 	0.82952 0.93999 0.30437 0.04000
H 	H 	0.78342 0.10522 0.27248 0.03800
H 	H 	0.68245 0.05040 0.29289 0.03500
C 	C 	0.62014 0.97070 0.34334 -0.06200
C 	C 	0.56340 0.94125 0.35550 0.01000
C 	C 	0.52442 0.87305 0.34821 -0.08200
C 	C 	0.54283 0.83487 0.32843 0.00800
C 	C 	0.59959 0.86462 0.31610 -0.06400
H 	H 	0.64997 0.02300 0.34944 0.04200
H 	H 	0.55025 0.97104 0.37102 0.03700
H 	H 	0.51324 0.78233 0.32256 0.02800
H 	H 	0.61314 0.83493 0.30069 0.04400
C 	C 	0.10723 0.28849 0.30476 -0.03700
C 	C 	0.08121 0.32605 0.32078 -0.00200
C 	C 	0.01843 0.30371 0.32143 -0.04000
C 	C 	0.98197 0.24464 0.30595 -0.04100
C 	C 	0.00800 0.20781 0.28959 0.01100
C 	C 	0.07073 0.22941 0.28929 -0.04200
C 	C 	0.11955 0.38874 0.33686 0.02700
H 	H 	0.99797 0.33214 0.33392 0.04000
H 	H 	0.93354 0.22792 0.30642 0.03800
H 	H 	0.09112 0.20066 0.27693 0.03800
H 	H 	0.15566 0.30530 0.30420 0.03600
C 	C 	0.15409 0.38353 0.36024 -0.06800
C 	C 	0.18702 0.44231 0.37678 0.01600
C 	C 	0.18556 0.50680 0.37010 -0.09200
C 	C 	0.15252 0.51229 0.34609 0.01700
C 	C 	0.11967 0.45349 0.32958 -0.06800
H 	H 	0.15450 0.33374 0.36590 0.04500
H 	H 	0.21303 0.43757 0.39498 0.02700
H 	H 	0.15094 0.56166 0.34067 0.03600
H 	H 	0.09351 0.45802 0.31139 0.04500
C 	C 	0.15172 0.90950 0.31897 -0.07000
C 	C 	0.09350 0.89064 0.32951 0.03000
C 	C 	0.07318 0.84042 0.35065 -0.06900
C 	C 	0.11161 0.81136 0.36197 0.01800
C 	C 	0.17084 0.83279 0.35240 -0.08800
C 	C 	0.19035 0.88103 0.33051 0.01200
C 	C 	0.05461 0.92502 0.31901 -0.00900
H 	H 	0.02817 0.82520 0.35879 0.04600
H 	H 	0.09612 0.77428 0.37894 0.03600
H 	H 	0.23582 0.89747 0.32283 0.00700
H 	H 	0.16735 0.94713 0.30221 0.04200
C 	C 	0.07384 0.99735 0.32142 -0.02600
C 	C 	0.03998 0.03070 0.30886 -0.05600
C 	C 	0.98677 0.99202 0.29379 0.02400
C 	C 	0.96529 0.91940 0.29318 -0.04800
C 	C 	0.99941 0.88603 0.30548 -0.02900
H 	H 	0.11581 0.02778 0.33235 0.03200
H 	H 	0.05653 0.08673 0.30969 0.04200
H 	H 	0.92371 0.88913 0.28192 0.04000
H 	H 	0.98388 0.83013 0.30375 0.03700
C 	C 	0.42613 0.91764 0.45766 -0.07900
C 	C 	0.44758 0.89460 0.48160 0.00500
C 	C 	0.47158 0.93902 0.50497 -0.05300
C 	C 	0.47720 0.00871 0.50411 0.00500
C 	C 	0.45164 0.03023 0.48068 0.00200
C 	C 	0.42763 0.98515 0.45736 -0.00900
C 	C 	0.44869 0.09571 0.48116 -0.04000
C 	C 	0.47005 0.13975 0.50476 -0.04300
C 	C 	0.49803 0.12087 0.52759 0.00700
C 	C 	0.50475 0.05665 0.52678 0.00400
C 	C 	0.54122 0.04366 0.54776 -0.05400
C 	C 	0.56346 0.08912 0.57096 0.00300
C 	C 	0.55234 0.14990 0.57295 -0.07700
C 	C 	0.52082 0.16638 0.55090 -0.02000
H 	H 	0.44411 0.84151 0.48245 0.02700
H 	H 	0.48247 0.91787 0.52410 0.04000
H 	H 	0.40998 0.00254 0.43901 0.03200
H 	H 	0.42850 0.11198 0.46342 0.03400
H 	H 	0.46577 0.18935 0.50508 0.03500
H 	H 	0.55500 0.00065 0.54558 0.04000
H 	H 	0.58983 0.07724 0.58729 0.03400
H 	H 	0.51468 0.21497 0.55172 0.03900
C 	C 	0.85752 0.44108 0.55096 -0.07100
C 	C 	0.91314 0.47392 0.56513 0.00200
C 	C 	0.96557 0.50692 0.54972 -0.05000
C 	C 	0.96272 0.51030 0.51972 0.00500
C 	C 	0.90759 0.47158 0.50540 0.00800
C 	C 	0.85526 0.43813 0.52107 -0.02100
C 	C 	0.90540 0.46572 0.47560 -0.04200
C 	C 	0.95724 0.49766 0.45986 -0.03900
C 	C 	0.01160 0.53923 0.47344 0.00700
C 	C 	0.01425 0.54865 0.50344 0.00300
C 	C 	0.06702 0.59845 0.51612 -0.05300
C 	C 	0.11829 0.63071 0.49988 0.00100
C 	C 	0.11712 0.61661 0.47059 -0.07200
C 	C 	0.06331 0.57240 0.45729 -0.01800
H 	H 	0.91585 0.47443 0.58817 0.04300
H 	H 	0.00816 0.52694 0.56113 0.04000
H 	H 	0.81282 0.41011 0.51001 0.03900
H 	H 	0.86350 0.43532 0.46459 0.03600
H 	H 	0.95483 0.49101 0.43690 0.03900
H 	H 	0.06797 0.61471 0.53807 0.04000
H 	H 	0.15898 0.66713 0.51010 0.03100
H 	H 	0.06200 0.56262 0.43452 0.04700
C 	C 	0.54048 0.46300 0.56601 -0.08600
C 	C 	0.50696 0.41758 0.54426 -0.00300
C 	C 	0.48671 0.44270 0.52065 -0.05600
C 	C 	0.49677 0.51375 0.51919 0.00300
C 	C 	0.53229 0.55979 0.54083 0.00400
C 	C 	0.55230 0.53381 0.56444 -0.02200
C 	C 	0.55004 0.63151 0.53797 -0.04300
C 	C 	0.53363 0.65825 0.51379 -0.04400
C 	C 	0.49600 0.61374 0.49280 0.00500
C 	C 	0.47511 0.54088 0.49585 0.00200
C 	C 	0.43071 0.49740 0.47654 -0.05600
C 	C 	0.41155 0.52559 0.45354 -0.00600
C 	C 	0.43321 0.59759 0.45024 -0.08500
C 	C 	0.47641 0.64142 0.46956 -0.02400
H 	H 	0.49975 0.36322 0.54477 0.02900
H 	H 	0.46731 0.40768 0.50286 0.03800
H 	H 	0.57917 0.56907 0.58107 0.03800
H 	H 	0.57790 0.66687 0.55428 0.03600
H 	H 	0.54906 0.71396 0.51170 0.03700
H 	H 	0.40791 0.44259 0.48018 0.03800
H 	H 	0.37752 0.49136 0.43897 0.03000
H 	H 	0.49241 0.69720 0.46740 0.04400
C 	C 	0.90326 0.09229 0.70792 -0.03300
C 	C 	0.92298 0.16390 0.71306 -0.00500
C 	C 	0.97799 0.19952 0.72735 -0.03200
C 	C 	0.01193 0.16328 0.73733 -0.04700
C 	C 	0.99050 0.09107 0.73352 0.01900
C 	C 	0.93695 0.05607 0.71806 -0.04800
C 	C 	0.88572 0.20120 0.70360 0.02800
H 	H 	0.99384 0.25492 0.73118 0.03700
H 	H 	0.05366 0.19082 0.74896 0.04000
H 	H 	0.92029 0.00046 0.71485 0.04000
H 	H 	0.86134 0.06459 0.69645 0.03600
C 	C 	0.90591 0.25033 0.68205 -0.06700
C 	C 	0.86696 0.27756 0.66987 0.01600
C 	C 	0.80737 0.25547 0.67905 -0.08700
C 	C 	0.78849 0.20976 0.70185 0.01100
C 	C 	0.82760 0.18297 0.71417 -0.06900
H 	H 	0.95092 0.26521 0.67395 0.04700
H 	H 	0.88219 0.31313 0.65238 0.03800
H 	H 	0.74292 0.19328 0.70941 0.00700
H 	H 	0.81210 0.14618 0.73123 0.04100
C 	C 	0.24504 0.15847 0.72538 -0.03500
C 	C 	0.27664 0.12139 0.71334 -0.00300
C 	C 	0.24872 0.04886 0.71063 -0.03400
C 	C 	0.19022 0.01373 0.72036 -0.04700
C 	C 	0.15924 0.05073 0.73293 0.01600
C 	C 	0.18647 0.12332 0.73495 -0.04300
C 	C 	0.33841 0.15865 0.70292 0.02600
H 	H 	0.27240 0.01975 0.70111 0.03600
H 	H 	0.16966 0.95767 0.71886 0.04000
H 	H 	0.16299 0.15227 0.74482 0.04000
H 	H 	0.26607 0.21439 0.72759 0.03600
C 	C 	0.34922 0.20802 0.68151 -0.06600
C 	C 	0.40682 0.24035 0.67044 0.01500
C 	C 	0.45428 0.22328 0.68051 -0.08200
C 	C 	0.44386 0.17552 0.70259 0.01000
C 	C 	0.38625 0.14358 0.71382 -0.06700
H 	H 	0.31270 0.22021 0.67299 0.04600
H 	H 	0.41399 0.27676 0.65332 0.04100
H 	H 	0.48011 0.16233 0.71075 0.01400
H 	H 	0.37867 0.10654 0.73074 0.04300
C 	C 	0.86331 0.79412 0.70728 -0.03600
C 	C 	0.89032 0.76013 0.68985 -0.00300
C 	C 	0.95323 0.78430 0.68901 -0.03600
C 	C 	0.98878 0.84099 0.70596 -0.04300
C 	C 	0.96174 0.87343 0.72406 0.01300
C 	C 	0.89892 0.85070 0.72428 -0.04300
C 	C 	0.85291 0.69768 0.67335 0.02900
H 	H 	0.97447 0.75833 0.67563 0.03800
H 	H 	0.03729 0.85857 0.70560 0.03700
H 	H 	0.87776 0.87609 0.73801 0.03900
H 	H 	0.81481 0.77620 0.70788 0.03600
C 	C 	0.81529 0.63819 0.68742 -0.06900
C 	C 	0.78374 0.57703 0.67201 0.01700
C 	C 	0.78999 0.57460 0.64238 -0.09100
C 	C 	0.82601 0.63506 0.62821 0.01700
C 	C 	0.85723 0.69625 0.64365 -0.06900
H 	H 	0.81150 0.63895 0.71036 0.04500
H 	H 	0.75516 0.53131 0.68317 0.02800
H 	H 	0.83099 0.63432 0.60536 0.03400
H 	H 	0.88567 0.74222 0.63259 0.04600
C 	C 	0.10536 0.64727 0.05041 -0.07300
C 	C 	0.05028 0.62119 0.06444 0.00200
C 	C 	0.99645 0.59700 0.04878 -0.05100
C 	C 	0.99740 0.59549 0.01877 0.00500
C 	C 	0.05225 0.63208 0.00503 0.00700
C 	C 	0.10610 0.65740 0.02095 -0.02000
C 	C 	0.05278 0.64125 0.97553 -0.04400
C 	C 	0.99989 0.61133 0.95939 -0.03700
C 	C 	0.94644 0.56837 0.97223 0.00600
C 	C 	0.94512 0.55840 0.00206 0.00600
C 	C 	0.89368 0.50729 0.01394 -0.05500
C 	C 	0.84290 0.47208 0.99698 0.00400
C 	C 	0.84321 0.48506 0.96783 -0.07600
C 	C 	0.89499 0.53280 0.95545 -0.01500
H 	H 	0.04914 0.61764 0.08742 0.04300
H 	H 	0.95456 0.58128 0.06001 0.04100
H 	H 	0.14861 0.68227 0.01032 0.03800
H 	H 	0.09435 0.67137 0.96505 0.03700
H 	H 	0.00100 0.61936 0.93662 0.03600
H 	H 	0.89374 0.49199 0.03582 0.04100
H 	H 	0.80350 0.43358 0.00644 0.03000
H 	H 	0.89523 0.54217 0.93277 0.04500
C 	C 	0.55581 0.15102 0.95618 -0.07500
C 	C 	0.51068 0.15803 0.97288 0.00200
C 	C 	0.48510 0.11196 0.99488 -0.05400
C 	C 	0.50287 0.05626 0.99989 0.00600
C 	C 	0.55238 0.05345 0.98489 0.00600
C 	C 	0.57757 0.09971 0.96273 -0.02000
C 	C 	0.57706 0.00550 0.99256 -0.04300
C 	C 	0.55331 0.96046 0.01496 -0.04100
C 	C 	0.50211 0.95949 0.02896 0.01200
C 	C 	0.47458 0.00511 0.02062 -0.00300
C 	C 	0.41802 0.99570 0.03188 -0.04600
C 	C 	0.39325 0.94779 0.05337 -0.00500
C 	C 	0.42321 0.90674 0.06335 -0.07200
C 	C 	0.47712 0.91191 0.05072 -0.02200
H 	H 	0.49582 0.19978 0.96907 0.03600
H 	H 	0.45393 0.12200 0.00871 0.04000
H 	H 	0.61382 0.09546 0.95054 0.03900
H 	H 	0.61556 0.00395 0.98145 0.03600
H 	H 	0.57403 0.92503 0.02102 0.03800
H 	H 	0.39159 0.02241 0.02314 0.03700
H 	H 	0.35013 0.94182 0.06192 0.03500
H 	H 	0.49963 0.87894 0.05775 0.04900
C 	C 	0.51055 0.44670 0.93804 -0.08500
C 	C 	0.52122 0.51747 0.93892 -0.00600
C 	C 	0.49820 0.54472 0.96089 -0.05600
C 	C 	0.46591 0.50169 0.98300 0.00100
C 	C 	0.44849 0.42911 0.98000 0.00500
C 	C 	0.47176 0.40208 0.95783 -0.02400
C 	C 	0.40809 0.38443 0.99915 -0.04300
C 	C 	0.38554 0.41112 0.02145 -0.04400
C 	C 	0.40592 0.48298 0.02608 0.00600
C 	C 	0.44859 0.52893 0.00763 0.00100
C 	C 	0.47590 0.59990 0.01531 -0.05500
C 	C 	0.45572 0.62561 0.03876 -0.00200
C 	C 	0.40946 0.58093 0.05555 -0.08400
C 	C 	0.38553 0.50942 0.04951 -0.02600
H 	H 	0.54798 0.55162 0.92271 0.03200
H 	H 	0.50371 0.59839 0.95999 0.03900
H 	H 	0.46131 0.34686 0.95655 0.04400
H 	H 	0.39354 0.32876 0.99658 0.03700
H 	H 	0.35333 0.37573 0.03565 0.03600
H 	H 	0.51439 0.63478 0.00408 0.03900
H 	H 	0.47599 0.68059 0.04378 0.03800
H 	H 	0.35151 0.47439 0.06313 0.03700
C 	C 	0.89180 0.08898 0.80619 -0.03300
C 	C 	0.92403 0.15185 0.82063 -0.00600
C 	C 	0.98680 0.17560 0.82343 -0.03000
C 	C 	0.01723 0.13795 0.81101 -0.05100
C 	C 	0.98515 0.07657 0.79561 0.02000
C 	C 	0.92221 0.05135 0.79386 -0.04700
C 	C 	0.89186 0.19234 0.83302 0.02800
H 	H 	0.01204 0.22380 0.83474 0.03500
H 	H 	0.06584 0.15792 0.81235 0.03900
H 	H 	0.89712 0.00427 0.78180 0.03900
H 	H 	0.84328 0.06977 0.80422 0.03300
C 	C 	0.85820 0.21800 0.81538 -0.06800
C 	C 	0.82121 0.24809 0.82736 0.00700
C 	C 	0.81767 0.25272 0.85702 -0.08600
C 	C 	0.85393 0.23069 0.87459 0.01700
C 	C 	0.89092 0.20066 0.86264 -0.06800
H 	H 	0.85924 0.21264 0.79245 0.04400
H 	H 	0.79346 0.26508 0.81363 0.01500
H 	H 	0.85160 0.23426 0.89753 0.03100
H 	H 	0.91706 0.18149 0.87643 0.04600
C 	C 	0.37785 0.15305 0.80788 -0.06800
C 	C 	0.33769 0.09305 0.82075 0.02800
C 	C 	0.35828 0.06195 0.84241 -0.06800
C 	C 	0.41737 0.09358 0.85265 0.01500
C 	C 	0.45610 0.15695 0.84148 -0.08800
C 	C 	0.43681 0.18510 0.81831 0.01200
C 	C 	0.27336 0.06621 0.81318 -0.00400
H 	H 	0.32778 0.01498 0.85215 0.04500
H 	H 	0.43190 0.07105 0.87041 0.03500
H 	H 	0.46670 0.23331 0.80919 0.02300
H 	H 	0.36271 0.17622 0.79052 0.04600
C 	C 	0.24055 0.10780 0.81747 -0.03400
C 	C 	0.18092 0.08487 0.80794 -0.04400
C 	C 	0.15394 0.02053 0.79392 0.01400
C 	C 	0.18513 0.97660 0.79178 -0.04200
C 	C 	0.24490 0.99965 0.80112 -0.03300
H 	H 	0.26184 0.15866 0.82741 0.03900
H 	H 	0.15696 0.11890 0.80981 0.03800
H 	H 	0.16428 0.92649 0.78118 0.03900
H 	H 	0.26965 0.96678 0.79813 0.03500
C 	C 	0.87866 0.79840 0.81945 -0.03500
C 	C 	0.88789 0.73693 0.81515 -0.00300
C 	C 	0.93261 0.73623 0.79654 -0.03600
C 	C 	0.96851 0.79688 0.78273 -0.04100
C 	C 	0.95931 0.85841 0.78709 0.01500
C 	C 	0.91432 0.85889 0.80555 -0.04600
C 	C 	0.85411 0.67510 0.83193 0.02800
H 	H 	0.94038 0.68918 0.79325 0.03900
H 	H 	0.00369 0.79619 0.76883 0.03900
H 	H 	0.90716 0.90614 0.80923 0.04000
H 	H 	0.84443 0.79952 0.83388 0.03700
C 	C 	0.86642 0.67470 0.86114 -0.06800
C 	C 	0.83203 0.61832 0.87756 0.01800
C 	C 	0.78467 0.56170 0.86497 -0.09000
C 	C 	0.77347 0.56108 0.83554 0.01700
C 	C 	0.80807 0.61768 0.81908 -0.06800
H 	H 	0.90227 0.71845 0.87118 0.04700
H 	H 	0.84197 0.61882 0.90013 0.03300
H 	H 	0.73724 0.51767 0.82554 0.02700
H 	H 	0.79841 0.61742 0.79649 0.04400
