data_crystal

_cell_length_a 18.52943
_cell_length_b 18.77277
_cell_length_c 26.37010
_cell_angle_alpha 95.42489
_cell_angle_beta  95.42512
_cell_angle_gamma 126.43622

_symmetry_space_group_name_	'P 1'
_symmetry_space_group_name_H-M	'P 1'

loop_
_symmetry_equiv_pos_as_xyz
  x,y,z

loop_
_atom_site_label
_atom_site_type_symbol
_atom_site_fract_x
_atom_site_fract_y
_atom_site_fract_z
_atom_site_charge
C 	C 	0.95252 0.03854 0.00300 0.24500
N 	N 	0.89678 0.94934 0.00474 -0.09700
C 	C 	0.93051 0.90208 0.00513 0.26600
N 	N 	0.01991 0.94386 0.00387 -0.08700
C 	C 	0.07588 0.03279 0.00191 0.26200
N 	N 	0.04218 0.08033 0.00120 -0.09400
C 	C 	0.90966 0.99708 0.44722 0.29500
N 	N 	0.00021 0.05123 0.44591 -0.11100
C 	C 	0.04721 0.01700 0.44563 0.26300
N 	N 	0.00373 0.92840 0.44633 -0.08900
C 	C 	0.91339 0.87367 0.44782 0.26100
N 	N 	0.86603 0.90805 0.44867 -0.10500
Cu	Cu	0.61952 0.20333 0.00819 0.93900
Cu	Cu	0.69284 0.22560 0.89839 0.90300
Cu	Cu	0.65363 0.34480 0.94474 0.91300
Cu	Cu	0.61922 0.36493 0.05128 0.92200
C 	C 	0.65182 0.26393 0.11792 0.32800
O 	O 	0.48640 0.14690 0.01066 -0.31300
C 	C 	0.63466 0.30080 0.83147 0.32100
O 	O 	0.68975 0.34355 0.01539 -0.63600
O 	O 	0.60208 0.21520 0.93524 -0.63300
O 	O 	0.67925 0.14418 0.99951 -0.31800
O 	O 	0.77889 0.24857 0.95535 -0.38300
O 	O 	0.60671 0.29644 0.10762 -0.32900
O 	O 	0.71311 0.47288 0.95614 -0.33300
C 	C 	0.71874 0.52194 0.99796 0.40700
C 	C 	0.44947 0.18538 0.99555 0.38700
O 	O 	0.50224 0.27003 0.99061 -0.35700
O 	O 	0.66992 0.48513 0.03404 -0.33300
O 	O 	0.65587 0.21445 0.08098 -0.30000
C 	C 	0.75678 0.18575 0.98262 0.38900
O 	O 	0.62660 0.34393 0.87054 -0.31100
O 	O 	0.63552 0.23214 0.83672 -0.36500
H 	H 	0.75640 0.38477 0.02894 0.20500
H 	H 	0.53868 0.17379 0.91538 0.21500
Cu	Cu	0.76014 0.34284 0.44545 0.93800
Cu	Cu	0.73925 0.27144 0.55572 0.90300
Cu	Cu	0.61581 0.30628 0.50892 0.91300
Cu	Cu	0.59231 0.33738 0.40188 0.92200
C 	C 	0.69795 0.30970 0.33565 0.32800
O 	O 	0.81372 0.47430 0.44276 -0.31000
C 	C 	0.66192 0.32773 0.62231 0.32100
O 	O 	0.61764 0.27075 0.43831 -0.63500
O 	O 	0.74776 0.35963 0.51836 -0.63400
O 	O 	0.81983 0.28270 0.45395 -0.31500
O 	O 	0.71453 0.18560 0.49887 -0.38400
O 	O 	0.66294 0.35226 0.34584 -0.32800
O 	O 	0.48551 0.24513 0.49784 -0.33200
C 	C 	0.43403 0.23481 0.45522 0.40400
C 	C 	0.77185 0.50828 0.45708 0.38300
O 	O 	0.68637 0.45396 0.46229 -0.35800
O 	O 	0.46939 0.28272 0.41876 -0.33200
O 	O 	0.74934 0.30739 0.37266 -0.30100
C 	C 	0.77754 0.20634 0.47130 0.38500
O 	O 	0.61703 0.33401 0.58306 -0.31200
O 	O 	0.73231 0.32824 0.61714 -0.36500
H 	H 	0.57723 0.20487 0.42515 0.20500
H 	H 	0.78873 0.42239 0.53802 0.21400
C 	C 	0.55415 0.25350 0.73955 0.11300
C 	C 	0.62823 0.32043 0.77910 -0.08000
C 	C 	0.70278 0.40026 0.76655 0.10800
C 	C 	0.70904 0.40722 0.71418 0.11300
C 	C 	0.64177 0.33371 0.67465 -0.08000
C 	C 	0.56126 0.25962 0.68719 0.10800
Br	Br	0.46285 0.16479 0.63277 -0.10700
Br	Br	0.44325 0.15409 0.75731 -0.08500
Br	Br	0.80904 0.51713 0.69640 -0.08500
Br	Br	0.79802 0.49806 0.82097 -0.10600
C 	C 	0.61223 0.19250 0.19603 0.11700
C 	C 	0.67663 0.26312 0.17246 -0.07500
C 	C 	0.75833 0.33987 0.20315 0.11000
C 	C 	0.77017 0.35119 0.25761 0.11700
C 	C 	0.69970 0.28612 0.28115 -0.07600
C 	C 	0.62357 0.20428 0.25049 0.11000
Br	Br	0.53370 0.10985 0.28324 -0.10400
Br	Br	0.50762 0.08098 0.15369 -0.04300
Br	Br	0.88152 0.45651 0.29998 -0.04500
Br	Br	0.85232 0.43056 0.17042 -0.10600
C 	C 	0.84430 0.63930 0.41163 0.29600
C 	C 	0.81312 0.60374 0.45613 -0.19300
C 	C 	0.80808 0.65498 0.49614 0.29600
C 	C 	0.83502 0.74123 0.49193 0.26600
C 	C 	0.86739 0.77715 0.44774 -0.12300
C 	C 	0.87105 0.72535 0.40743 0.26400
F 	F 	0.90164 0.75902 0.36434 -0.33300
F 	F 	0.84578 0.58926 0.37167 -0.36100
F 	F 	0.83256 0.79105 0.53155 -0.33100
F 	F 	0.77736 0.62125 0.53919 -0.36200
C 	C 	0.83310 0.04644 0.49588 0.27300
C 	C 	0.86061 0.03645 0.44966 -0.14800
C 	C 	0.85674 0.07900 0.40948 0.27100
C 	C 	0.82904 0.13388 0.41626 0.29600
C 	C 	0.80543 0.14719 0.46346 -0.19200
C 	C 	0.80636 0.10200 0.50299 0.29100
F 	F 	0.78476 0.11466 0.54907 -0.38700
F 	F 	0.83704 0.00621 0.53509 -0.34300
F 	F 	0.82477 0.17366 0.37688 -0.35700
F 	F 	0.88197 0.06883 0.36429 -0.34800
C 	C 	0.20509 0.14462 0.48997 0.26500
C 	C 	0.14567 0.07628 0.44667 -0.12000
C 	C 	0.18118 0.06100 0.40593 0.25100
C 	C 	0.27556 0.11314 0.40869 0.30500
C 	C 	0.33507 0.18039 0.45241 -0.19800
C 	C 	0.29950 0.19634 0.49293 0.30600
F 	F 	0.35648 0.26253 0.53490 -0.35000
F 	F 	0.17123 0.15945 0.52968 -0.34000
F 	F 	0.30936 0.09729 0.36932 -0.36600
F 	F 	0.12408 0.99533 0.36378 -0.30200
C 	C 	0.88525 0.77228 0.04735 0.27000
C 	C 	0.87015 0.80544 0.00541 -0.12600
C 	C 	0.80309 0.74523 0.96162 0.26800
C 	C 	0.75332 0.65237 0.95914 0.30500
C 	C 	0.76992 0.61920 0.00064 -0.19700
C 	C 	0.83507 0.67947 0.04507 0.30000
F 	F 	0.85128 0.64797 0.08547 -0.36300
F 	F 	0.94957 0.83020 0.09001 -0.32600
F 	F 	0.68869 0.59455 0.91656 -0.35000
F 	F 	0.78818 0.77688 0.92086 -0.34000
C 	C 	0.87362 0.09456 0.04163 0.26300
C 	C 	0.91471 0.08852 0.00102 -0.12400
C 	C 	0.90902 0.12008 0.95581 0.26600
C 	C 	0.85878 0.15323 0.95009 0.29400
C 	C 	0.81463 0.15620 0.98997 -0.19600
C 	C 	0.82418 0.12866 0.03627 0.29900
F 	F 	0.78563 0.13499 0.07606 -0.35800
F 	F 	0.88047 0.06598 0.08600 -0.34400
F 	F 	0.84970 0.17877 0.90491 -0.38800
F 	F 	0.94846 0.11447 0.91632 -0.33900
C 	C 	0.29981 0.14575 0.95562 0.29600
C 	C 	0.35209 0.14096 0.99541 -0.19500
C 	C 	0.31441 0.10447 0.03845 0.29500
C 	C 	0.22543 0.07295 0.04161 0.26500
C 	C 	0.17308 0.07741 0.00178 -0.12700
C 	C 	0.21071 0.11425 0.95886 0.26900
F 	F 	0.16009 0.11730 0.91965 -0.33000
F 	F 	0.33537 0.18071 0.91376 -0.36100
F 	F 	0.18994 0.03817 0.08353 -0.33300
F 	F 	0.36525 0.10266 0.07815 -0.36000
