data_crystal

_cell_length_a 38.76188
_cell_length_b 38.80745
_cell_length_c 29.02781
_cell_angle_alpha 88.37982
_cell_angle_beta  91.75182
_cell_angle_gamma 90.01280

_symmetry_space_group_name_	'P 1'
_symmetry_space_group_name_H-M	'P 1'

loop_
_symmetry_equiv_pos_as_xyz
  x,y,z

loop_
_atom_site_label
_atom_site_type_symbol
_atom_site_fract_x
_atom_site_fract_y
_atom_site_fract_z
_atom_site_charge
C 	C 	0.83247 0.17880 0.12014 -0.00600
C 	C 	0.81041 0.16074 0.09007 -0.02200
C 	C 	0.80021 0.17552 0.04731 -0.07200
C 	C 	0.81152 0.20883 0.03459 0.08200
C 	C 	0.83289 0.22706 0.06507 -0.07000
C 	C 	0.84350 0.21211 0.10748 -0.02100
N 	N 	0.80287 0.22386 0.98974 -0.14400
C 	C 	0.71273 0.28629 0.98364 -0.00700
C 	C 	0.74270 0.29716 0.96161 -0.02200
C 	C 	0.77182 0.27594 0.96247 -0.06900
C 	C 	0.77140 0.24374 0.98549 0.08100
C 	C 	0.74083 0.23222 0.00603 -0.07200
C 	C 	0.71171 0.25354 0.00527 -0.02200
C 	C 	0.82846 0.16423 0.87502 -0.00700
C 	C 	0.79446 0.16409 0.89028 -0.02200
C 	C 	0.78583 0.18333 0.92834 -0.07100
C 	C 	0.81121 0.20313 0.95116 0.08100
C 	C 	0.84516 0.20295 0.93595 -0.06900
C 	C 	0.85376 0.18364 0.89811 -0.02200
C 	C 	0.63482 0.36371 0.98903 -0.01300
C 	C 	0.65035 0.35024 0.03002 -0.01900
C 	C 	0.67446 0.32351 0.02853 -0.04700
C 	C 	0.68316 0.31000 0.98608 0.01900
C 	C 	0.66604 0.32194 0.94546 -0.04800
C 	C 	0.64196 0.34866 0.94691 -0.01900
C 	C 	0.87653 0.13447 0.24525 -0.01300
C 	C 	0.85831 0.16566 0.24602 -0.01900
C 	C 	0.84254 0.17936 0.20558 -0.04800
C 	C 	0.84540 0.16228 0.16384 0.01900
C 	C 	0.86276 0.13054 0.16342 -0.04700
C 	C 	0.87804 0.11659 0.20401 -0.01800
C 	C 	0.86723 0.11638 0.75690 -0.01300
C 	C 	0.87556 0.10280 0.80119 -0.01900
C 	C 	0.86084 0.11679 0.83983 -0.04800
C 	C 	0.83769 0.14449 0.83454 0.01900
C 	C 	0.82726 0.15625 0.79012 -0.04800
C 	C 	0.84193 0.14219 0.75140 -0.01900
H 	H 	0.80150 0.13513 0.09962 0.03700
H 	H 	0.78374 0.16111 0.02406 0.04900
H 	H 	0.84182 0.25263 0.05540 0.05300
H 	H 	0.86079 0.22617 0.13018 0.03800
H 	H 	0.74369 0.32239 0.94473 0.03800
H 	H 	0.79511 0.28487 0.94627 0.05300
H 	H 	0.73954 0.20691 0.02235 0.05000
H 	H 	0.68850 0.24475 0.02182 0.03800
H 	H 	0.77480 0.14901 0.87278 0.03700
H 	H 	0.75967 0.18260 0.94027 0.05000
H 	H 	0.86482 0.21802 0.95339 0.05300
H 	H 	0.88006 0.18396 0.88648 0.03900
H 	H 	0.64497 0.36148 0.06278 0.04800
H 	H 	0.68742 0.31431 0.06012 0.04600
H 	H 	0.67223 0.31131 0.91260 0.04500
H 	H 	0.62959 0.35833 0.91515 0.04600
H 	H 	0.85672 0.17949 0.27780 0.04400
H 	H 	0.82875 0.20360 0.20647 0.04500
H 	H 	0.86525 0.11718 0.13142 0.04500
H 	H 	0.89209 0.09250 0.20306 0.04700
H 	H 	0.89452 0.08239 0.80580 0.04600
H 	H 	0.86863 0.10719 0.87399 0.04600
H 	H 	0.80914 0.17742 0.78569 0.04500
H 	H 	0.83506 0.15269 0.71737 0.04500
C 	C 	0.15524 0.94543 0.85952 -0.00600
C 	C 	0.13258 0.92668 0.88743 -0.02200
C 	C 	0.14429 0.91230 0.92970 -0.06900
C 	C 	0.17870 0.91653 0.94457 0.08100
C 	C 	0.20139 0.93570 0.91684 -0.07200
C 	C 	0.18964 0.95008 0.87450 -0.02200
N 	N 	0.19052 0.90028 0.98747 -0.14400
C 	C 	0.27963 0.83674 0.98380 -0.00700
C 	C 	0.28280 0.87064 0.99894 -0.02200
C 	C 	0.25378 0.89205 0.99928 -0.07200
C 	C 	0.22121 0.87948 0.98488 0.08100
C 	C 	0.21839 0.84594 0.96856 -0.06900
C 	C 	0.24740 0.82466 0.96800 -0.02200
C 	C 	0.17284 0.95924 0.10559 -0.00800
C 	C 	0.16650 0.92364 0.10627 -0.02100
C 	C 	0.17373 0.90421 0.06796 -0.07000
C 	C 	0.18721 0.92009 0.02849 0.08100
C 	C 	0.19533 0.95550 0.02872 -0.07200
C 	C 	0.18801 0.97496 0.06707 -0.02100
C 	C 	0.35781 0.75928 0.99523 -0.01300
C 	C 	0.34686 0.77226 0.95157 -0.01900
C 	C 	0.32265 0.79899 0.94775 -0.04800
C 	C 	0.30935 0.81304 0.98755 0.01900
C 	C 	0.32187 0.80150 0.03113 -0.04700
C 	C 	0.34597 0.77472 0.03497 -0.01900
C 	C 	0.11266 0.98802 0.73264 -0.01100
C 	C 	0.11569 0.95214 0.73920 -0.02000
C 	C 	0.13073 0.93826 0.77998 -0.04700
C 	C 	0.14286 0.96010 0.81461 0.01800
C 	C 	0.14106 0.99596 0.80739 -0.04500
C 	C 	0.12605 0.00988 0.76657 -0.02200
C 	C 	0.12846 0.01170 0.21676 -0.01500
C 	C 	0.11773 0.01973 0.17108 -0.01800
C 	C 	0.13369 0.00415 0.13450 -0.04900
C 	C 	0.16055 0.98041 0.14323 0.02000
C 	C 	0.17284 0.97414 0.18868 -0.04900
C 	C 	0.15689 0.98976 0.22532 -0.01800
H 	H 	0.10590 0.92321 0.87631 0.03900
H 	H 	0.12670 0.89762 0.95086 0.05300
H 	H 	0.22798 0.93939 0.92805 0.05000
H 	H 	0.20730 0.96461 0.85323 0.03800
H 	H 	0.30765 0.88027 0.01087 0.03800
H 	H 	0.25660 0.91824 0.01062 0.05000
H 	H 	0.19350 0.83619 0.95706 0.05300
H 	H 	0.24471 0.79850 0.95630 0.03900
H 	H 	0.15488 0.91125 0.13590 0.03800
H 	H 	0.16780 0.87693 0.06828 0.05300
H 	H 	0.20714 0.96791 0.99937 0.05000
H 	H 	0.19349 0.00234 0.06650 0.03600
H 	H 	0.35594 0.76068 0.92064 0.04700
H 	H 	0.31333 0.80796 0.91394 0.04600
H 	H 	0.31191 0.81235 0.06204 0.04500
H 	H 	0.35469 0.76531 0.06884 0.04600
H 	H 	0.10599 0.93501 0.71298 0.04600
H 	H 	0.13238 0.91054 0.78505 0.04500
H 	H 	0.15041 0.01302 0.83391 0.04400
H 	H 	0.12386 0.03760 0.76199 0.04800
H 	H 	0.09622 0.03711 0.16401 0.04600
H 	H 	0.12419 0.00938 0.09951 0.04600
H 	H 	0.19386 0.95617 0.19573 0.04500
H 	H 	0.16557 0.98351 0.26040 0.04500
Zn	Zn	0.48959 0.59187 0.96963 1.22200
Zn	Zn	0.44668 0.57088 0.06311 1.19900
C 	C 	0.56653 0.49129 0.99928 0.29900
Zn	Zn	0.51577 0.53753 0.04501 1.22300
Zn	Zn	0.55623 0.55721 0.94706 1.19900
H 	H 	0.46044 0.53117 0.99881 0.18500
C 	C 	0.51666 0.59615 0.10485 0.27300
O 	O 	0.54557 0.58503 0.89022 -0.44100
O 	O 	0.51497 0.62719 0.92396 -0.37700
O 	O 	0.47245 0.55090 0.01304 -0.79300
O 	O 	0.42072 0.60880 0.02996 -0.44800
O 	O 	0.47298 0.56607 0.91543 -0.41400
O 	O 	0.46423 0.63346 0.98824 -0.41400
O 	O 	0.51319 0.52340 0.92874 -0.40300
O 	O 	0.45645 0.54401 0.12094 -0.44000
H 	H 	0.54610 0.59638 0.01307 0.18400
O 	O 	0.49016 0.50250 0.09098 -0.37500
O 	O 	0.53321 0.57695 0.99942 -0.79300
O 	O 	0.58085 0.51771 0.97791 -0.44800
O 	O 	0.52980 0.56536 0.09824 -0.41400
O 	O 	0.54352 0.49578 0.03126 -0.40600
O 	O 	0.48808 0.60636 0.08251 -0.39800
C 	C 	0.53329 0.61661 0.88970 0.28000
C 	C 	0.43379 0.63526 0.00716 0.30300
C 	C 	0.48484 0.53505 0.90726 0.27400
C 	C 	0.46863 0.51242 0.12213 0.28000
C 	C 	0.27332 0.28360 0.51497 -0.00700
C 	C 	0.26151 0.31506 0.49539 -0.02200
C 	C 	0.28223 0.34442 0.49760 -0.07000
C 	C 	0.31492 0.34274 0.51941 0.08100
C 	C 	0.32689 0.31119 0.53901 -0.07200
C 	C 	0.30615 0.28174 0.53671 -0.02200
N 	N 	0.33571 0.37348 0.52150 -0.14400
C 	C 	0.37767 0.40710 0.64916 -0.00700
C 	C 	0.39816 0.38762 0.62051 -0.02200
C 	C 	0.38408 0.37483 0.57948 -0.07100
C 	C 	0.34939 0.38179 0.56659 0.08100
C 	C 	0.32853 0.39943 0.59667 -0.07000
C 	C 	0.34257 0.41204 0.63775 -0.02200
C 	C 	0.39503 0.39450 0.40333 -0.00700
C 	C 	0.37860 0.42129 0.42552 -0.02200
C 	C 	0.36011 0.41431 0.46524 -0.06900
C 	C 	0.35785 0.38053 0.48322 0.08100
C 	C 	0.37593 0.35390 0.46231 -0.07200
C 	C 	0.39416 0.36089 0.42227 -0.02200
C 	C 	0.42217 0.45926 0.76470 -0.01300
C 	C 	0.42188 0.42305 0.76449 -0.01900
C 	C 	0.40760 0.40596 0.72661 -0.04800
C 	C 	0.39355 0.42493 0.68867 0.01900
C 	C 	0.39420 0.46106 0.68866 -0.04700
C 	C 	0.40839 0.47815 0.72645 -0.01900
C 	C 	0.19817 0.20317 0.51259 -0.01300
C 	C 	0.21249 0.21393 0.55487 -0.01900
C 	C 	0.23852 0.23886 0.55567 -0.04700
C 	C 	0.25066 0.25306 0.51426 0.01900
C 	C 	0.23816 0.24052 0.47207 -0.04800
C 	C 	0.21199 0.21573 0.47120 -0.01900
C 	C 	0.43361 0.42720 0.27357 -0.01400
C 	C 	0.40211 0.40949 0.27557 -0.01900
C 	C 	0.39062 0.39646 0.31776 -0.04800
C 	C 	0.41043 0.40125 0.35829 0.01900
C 	C 	0.44298 0.41688 0.35587 -0.04800
C 	C 	0.45463 0.42966 0.31357 -0.01800
H 	H 	0.23608 0.31682 0.47890 0.03800
H 	H 	0.27286 0.36862 0.48251 0.05300
H 	H 	0.35223 0.30947 0.55564 0.04900
H 	H 	0.31551 0.25756 0.55189 0.03700
H 	H 	0.42520 0.38329 0.62934 0.03800
H 	H 	0.40018 0.36014 0.55740 0.05000
H 	H 	0.30171 0.40445 0.58731 0.05300
H 	H 	0.32642 0.42659 0.66002 0.03800
H 	H 	0.37932 0.44736 0.41120 0.03900
H 	H 	0.34669 0.43500 0.48143 0.05300
H 	H 	0.37581 0.32797 0.47686 0.05000
H 	H 	0.40714 0.34013 0.40559 0.03800
H 	H 	0.43229 0.40816 0.79384 0.04600
H 	H 	0.40718 0.37804 0.72692 0.04500
H 	H 	0.38369 0.47591 0.65933 0.04600
H 	H 	0.40892 0.50607 0.72585 0.04800
H 	H 	0.20270 0.20380 0.58708 0.04600
H 	H 	0.24827 0.24811 0.58844 0.04500
H 	H 	0.24777 0.25096 0.43991 0.04500
H 	H 	0.20146 0.20747 0.43833 0.04800
H 	H 	0.38588 0.40708 0.24476 0.04400
H 	H 	0.36557 0.38416 0.31929 0.04600
H 	H 	0.45855 0.42046 0.38700 0.04600
H 	H 	0.47909 0.44312 0.31235 0.04700
C 	C 	0.73263 0.83957 0.48265 -0.00700
C 	C 	0.69784 0.84495 0.49235 -0.02200
C 	C 	0.67517 0.81697 0.49513 -0.07200
C 	C 	0.68727 0.78331 0.48843 0.08100
C 	C 	0.72194 0.77814 0.47832 -0.07000
C 	C 	0.74452 0.80608 0.47543 -0.02200
N 	N 	0.66485 0.75388 0.49328 -0.14400
C 	C 	0.61739 0.71968 0.36880 -0.00700
C 	C 	0.63257 0.69603 0.40070 -0.02200
C 	C 	0.64738 0.70743 0.44199 -0.06900
C 	C 	0.64732 0.74256 0.45181 0.08100
C 	C 	0.63128 0.76626 0.42030 -0.07200
C 	C 	0.61640 0.75479 0.37896 -0.02200
C 	C 	0.60740 0.74176 0.61494 -0.00700
C 	C 	0.59180 0.75713 0.57520 -0.02200
C 	C 	0.61081 0.76228 0.53539 -0.07100
C 	C 	0.64562 0.75191 0.53502 0.08100
C 	C 	0.66149 0.73810 0.57541 -0.06900
C 	C 	0.64252 0.73296 0.61513 -0.02100
C 	C 	0.57609 0.67727 0.24444 -0.01300
C 	C 	0.61197 0.67965 0.25196 -0.01900
C 	C 	0.62546 0.69474 0.29176 -0.04800
C 	C 	0.60324 0.70768 0.32438 0.01900
C 	C 	0.56743 0.70671 0.31599 -0.04800
C 	C 	0.55388 0.69158 0.27618 -0.01900
C 	C 	0.81107 0.91671 0.47967 -0.01300
C 	C 	0.79954 0.90157 0.43862 -0.01900
C 	C 	0.77254 0.87773 0.43915 -0.04800
C 	C 	0.75683 0.86880 0.48069 0.01900
C 	C 	0.76699 0.88537 0.52125 -0.04700
C 	C 	0.79399 0.90928 0.52075 -0.01900
C 	C 	0.55663 0.70064 0.73242 -0.01300
C 	C 	0.58049 0.72759 0.73762 -0.01900
C 	C 	0.59530 0.74300 0.69882 -0.04800
C 	C 	0.58635 0.73156 0.65457 0.01900
C 	C 	0.56035 0.70671 0.64925 -0.04700
C 	C 	0.54551 0.69137 0.68799 -0.01900
H 	H 	0.68841 0.87076 0.49778 0.03800
H 	H 	0.64837 0.82139 0.50256 0.04900
H 	H 	0.73141 0.75233 0.47315 0.05300
H 	H 	0.77137 0.80170 0.46802 0.03900
H 	H 	0.63315 0.66883 0.39329 0.03900
H 	H 	0.65945 0.68903 0.46616 0.05300
H 	H 	0.63009 0.79333 0.42789 0.05000
H 	H 	0.60442 0.77319 0.35469 0.03800
H 	H 	0.56480 0.76439 0.57487 0.03700
H 	H 	0.59849 0.77408 0.50495 0.05000
H 	H 	0.68835 0.73041 0.57553 0.05300
H 	H 	0.65480 0.72106 0.64561 0.03800
H 	H 	0.62940 0.66930 0.22735 0.04500
H 	H 	0.65316 0.69572 0.29777 0.04500
H 	H 	0.55009 0.71675 0.34095 0.04500
H 	H 	0.52615 0.68994 0.27084 0.04700
H 	H 	0.81206 0.90764 0.40653 0.04600
H 	H 	0.76456 0.86537 0.40756 0.04500
H 	H 	0.75488 0.87874 0.55346 0.04600
H 	H 	0.80254 0.92091 0.55261 0.04700
H 	H 	0.58900 0.73527 0.77171 0.04600
H 	H 	0.61492 0.76262 0.70325 0.04500
H 	H 	0.55294 0.69799 0.61522 0.04600
H 	H 	0.52651 0.67115 0.68353 0.04600
Zn	Zn	0.02429 0.08394 0.44907 1.22300
Zn	Zn	0.00696 0.12067 0.54974 1.19700
C 	C 	0.93311 0.99596 0.48266 0.30200
Zn	Zn	0.97434 0.05343 0.52307 1.22200
Zn	Zn	0.99468 0.01325 0.42873 1.19900
H 	H 	0.96551 0.11058 0.48252 0.18400
C 	C 	0.03260 0.04942 0.58734 0.27600
O 	O 	0.01730 0.02612 0.37062 -0.44100
O 	O 	0.05855 0.06104 0.40197 -0.37700
O 	O 	0.98611 0.09830 0.49559 -0.79100
O 	O 	0.04528 0.14689 0.52155 -0.44600
O 	O 	0.99257 0.09688 0.39652 -0.41200
O 	O 	0.06439 0.11443 0.46252 -0.40900
O 	O 	0.95542 0.05218 0.41145 -0.39800
O 	O 	0.98071 0.10762 0.60526 -0.44000
H 	H 	0.03585 0.02861 0.49389 0.18400
O 	O 	0.93897 0.07599 0.56883 -0.37600
O 	O 	0.01486 0.03949 0.47969 -0.79300
O 	O 	0.96019 0.98446 0.46162 -0.44800
O 	O 	0.00196 0.03645 0.57718 -0.41600
O 	O 	0.93338 0.02638 0.50181 -0.41000
O 	O 	0.04270 0.07853 0.56739 -0.40400
C 	C 	0.04774 0.04087 0.36889 0.28000
C 	C 	0.07069 0.13394 0.49843 0.29600
C 	C 	0.96248 0.08159 0.38976 0.27300
C 	C 	0.94950 0.09433 0.60396 0.27900
C 	C 	0.84275 0.93769 0.48031 0.11200
N 	N 	0.84484 0.96664 0.50548 -0.08100
N 	N 	0.87378 0.98523 0.50648 -0.05400
C 	C 	0.90150 0.97520 0.48265 0.03600
N 	N 	0.89942 0.94619 0.45771 -0.06200
N 	N 	0.87047 0.92772 0.45651 -0.08400
C 	C 	0.10512 0.14922 0.50436 0.03800
N 	N 	0.11209 0.17001 0.54027 -0.06300
N 	N 	0.14234 0.18613 0.54387 -0.08400
C 	C 	0.16657 0.18190 0.51169 0.11200
N 	N 	0.15995 0.16034 0.47641 -0.08200
N 	N 	0.12967 0.14417 0.47285 -0.05500
C 	C 	0.44186 0.44744 0.23184 0.11200
N 	N 	0.47287 0.44379 0.21197 -0.08100
N 	N 	0.48108 0.46387 0.17589 -0.05600
C 	C 	0.45874 0.48849 0.15929 0.03900
N 	N 	0.42775 0.49203 0.17911 -0.06700
N 	N 	0.41933 0.47164 0.21466 -0.08400
C 	C 	0.46680 0.51370 0.87331 0.03900
N 	N 	0.43749 0.52543 0.85141 -0.06000
N 	N 	0.42270 0.50754 0.81766 -0.08400
C 	C 	0.43684 0.47743 0.80473 0.11100
N 	N 	0.46579 0.46534 0.82727 -0.08300
N 	N 	0.48057 0.48324 0.86108 -0.06100
C 	C 	0.56190 0.65764 0.20538 0.11100
N 	N 	0.53182 0.66748 0.18362 -0.08300
N 	N 	0.51786 0.64837 0.15045 -0.06000
C 	C 	0.53355 0.61887 0.13819 0.04000
N 	N 	0.56386 0.60933 0.15944 -0.06100
N 	N 	0.57787 0.62846 0.19249 -0.08300
C 	C 	0.54742 0.67890 0.77258 0.11100
N 	N 	0.54005 0.69333 0.81325 -0.08200
N 	N 	0.53459 0.67342 0.85053 -0.06000
C 	C 	0.53681 0.63859 0.84826 0.04000
N 	N 	0.54386 0.62422 0.80754 -0.05900
N 	N 	0.54894 0.64406 0.77021 -0.08300
C 	C 	0.06860 0.03656 0.32817 0.03900
N 	N 	0.10343 0.04035 0.33100 -0.06000
N 	N 	0.12257 0.03327 0.29503 -0.08300
C 	C 	0.10735 0.02258 0.25514 0.11100
N 	N 	0.07248 0.01956 0.25208 -0.08400
N 	N 	0.05341 0.02629 0.28814 -0.06000
C 	C 	0.09350 0.00254 0.69192 0.11000
N 	N 	0.06439 0.98684 0.67590 -0.08200
N 	N 	0.04549 0.00132 0.64147 -0.06000
C 	C 	0.05521 0.03184 0.62194 0.03900
N 	N 	0.08469 0.04722 0.63729 -0.06100
N 	N 	0.10356 0.03279 0.67182 -0.08300
C 	C 	0.41459 0.66785 0.00451 0.03500
N 	N 	0.42374 0.69356 0.97461 -0.05500
N 	N 	0.40586 0.72295 0.97193 -0.08100
C 	C 	0.37861 0.72754 0.99945 0.11200
N 	N 	0.36970 0.70192 0.02959 -0.08400
N 	N 	0.38738 0.67248 0.03199 -0.06200
C 	C 	0.93740 0.09650 0.35606 0.04200
N 	N 	0.94060 0.12976 0.34110 -0.06200
N 	N 	0.92009 0.14233 0.30698 -0.08300
C 	C 	0.89608 0.12187 0.28651 0.11200
N 	N 	0.89251 0.08875 0.30194 -0.08200
N 	N 	0.91274 0.07630 0.33645 -0.06000
C 	C 	0.88842 0.10731 0.71777 0.11100
N 	N 	0.92335 0.10731 0.72261 -0.08300
N 	N 	0.94280 0.10241 0.68636 -0.05900
C 	C 	0.92792 0.09697 0.64428 0.04000
N 	N 	0.89297 0.09621 0.63953 -0.06000
N 	N 	0.87346 0.10155 0.67574 -0.08300
C 	C 	0.58199 0.45709 0.99486 0.03700
N 	N 	0.60273 0.45093 0.95919 -0.06300
N 	N 	0.61861 0.42066 0.95651 -0.08400
C 	C 	0.61430 0.39568 0.98951 0.11200
N 	N 	0.59306 0.40161 0.02482 -0.08200
N 	N 	0.57700 0.43186 0.02735 -0.05500
