data_crystal

_cell_length_a 25.66052
_cell_length_b 27.60243
_cell_length_c 42.48715
_cell_angle_alpha 60.77584
_cell_angle_beta  118.92987
_cell_angle_gamma 133.22998

_symmetry_space_group_name_	'P 1'
_symmetry_space_group_name_H-M	'P 1'

loop_
_symmetry_equiv_pos_as_xyz
  x,y,z

loop_
_atom_site_label
_atom_site_type_symbol
_atom_site_fract_x
_atom_site_fract_y
_atom_site_fract_z
_atom_site_charge
C 	C 	0.61664 0.29451 0.00558 0.03700
H 	H 	0.57459 0.21895 0.98055 0.05000
H 	H 	0.63744 0.25261 0.50118 0.05300
C 	C 	0.23235 0.57991 0.23069 0.03800
C 	C 	0.30169 0.62802 0.22195 -0.07600
C 	C 	0.32716 0.60840 0.21095 0.03800
C 	C 	0.28173 0.54197 0.20632 -0.07600
C 	C 	0.21193 0.49423 0.21397 0.03800
C 	C 	0.18767 0.51283 0.22661 -0.07500
H 	H 	0.33581 0.68047 0.22357 0.05200
H 	H 	0.30034 0.52764 0.19642 0.05500
H 	H 	0.13446 0.47504 0.23346 0.05400
C 	C 	0.25504 0.62563 0.71003 0.03700
C 	C 	0.21400 0.56186 0.70283 -0.07600
C 	C 	0.24390 0.54991 0.68952 0.03900
C 	C 	0.31538 0.60131 0.68387 -0.07700
C 	C 	0.35698 0.66488 0.69130 0.03900
C 	C 	0.32591 0.67774 0.70316 -0.07600
H 	H 	0.15944 0.52127 0.70813 0.05400
H 	H 	0.33852 0.59181 0.67376 0.05400
H 	H 	0.35728 0.72783 0.70748 0.05400
Co	Co	0.06127 0.00238 0.07270 1.17600
Co	Co	0.97630 0.03988 0.08411 1.17300
C 	C 	0.21491 0.03922 0.10745 0.25800
Co	Co	0.10326 0.90138 0.09098 1.16900
O 	O 	0.05107 0.07698 0.05902 -0.47200
C 	C 	0.02600 0.12529 0.13045 0.29900
C 	C 	0.09477 0.83893 0.17043 0.30500
O 	O 	0.12701 0.97409 0.04102 -0.40000
O 	O 	0.96976 0.08225 0.14595 -0.40100
O 	O 	0.04587 0.10201 0.12086 -0.40300
O 	O 	0.08785 0.82809 0.14131 -0.39800
O 	O 	0.07034 0.87142 0.16615 -0.39100
O 	O 	0.03989 0.92322 0.09167 -0.75800
O 	O 	0.19711 0.97679 0.11840 -0.35800
O 	O 	0.16841 0.04869 0.10429 -0.39600
Co	Co	0.10613 0.03686 0.57224 1.17700
Co	Co	0.02580 0.08581 0.57644 1.18200
C 	C 	0.26038 0.08508 0.60193 0.30400
Co	Co	0.15381 0.93755 0.60027 1.17400
O 	O 	0.09518 0.11341 0.55116 -0.47200
C 	C 	0.08745 0.18055 0.62058 0.29500
C 	C 	0.15040 0.89828 0.67807 0.29800
O 	O 	0.03374 0.14011 0.63754 -0.39300
O 	O 	0.10254 0.15428 0.61004 -0.39800
O 	O 	0.19525 0.93697 0.65597 -0.37900
O 	O 	0.10252 0.90802 0.67232 -0.38600
O 	O 	0.08542 0.95893 0.59573 -0.75700
O 	O 	0.23937 0.04077 0.58678 -0.41400
O 	O 	0.21102 0.08415 0.60492 -0.40800
C 	C 	0.05402 0.02996 0.94554 -0.00900
C 	C 	0.04324 0.02929 0.91009 -0.09500
C 	C 	0.07399 0.03675 0.81237 -0.06600
C 	C 	0.08337 0.03706 0.84759 -0.06500
H 	H 	0.05717 0.06863 0.94867 0.03800
H 	H 	0.03725 0.06691 0.88611 0.04900
H 	H 	0.11436 0.08130 0.79623 0.04300
H 	H 	0.13148 0.08142 0.85865 0.04100
C 	C 	0.07861 0.03355 0.41654 -0.10300
C 	C 	0.09546 0.03766 0.45217 -0.00600
C 	C 	0.98363 0.99687 0.33938 -0.00700
C 	C 	0.96817 0.99170 0.30432 0.00200
H 	H 	0.10513 0.08010 0.39567 0.05100
H 	H 	0.13550 0.08732 0.45857 0.04000
H 	H 	0.97135 0.02516 0.34193 0.01100
H 	H 	0.94408 0.01608 0.28003 0.01000
C 	C 	0.20710 0.33832 0.65912 -0.00000
C 	C 	0.22054 0.35962 0.68781 -0.06000
C 	C 	0.19320 0.39533 0.67970 0.02500
C 	C 	0.15051 0.40600 0.64437 0.00200
C 	C 	0.13861 0.38650 0.61542 -0.05700
C 	C 	0.16420 0.34913 0.62363 0.01800
S 	S 	0.19799 0.26869 0.66565 0.02600
C 	C 	0.14358 0.25121 0.62430 -0.07200
C 	C 	0.12929 0.30068 0.60395 -0.02500
S 	S 	0.15103 0.46996 0.63918 -0.00800
C 	C 	0.20042 0.48338 0.68172 -0.00600
C 	C 	0.22163 0.43895 0.70087 -0.06000
H 	H 	0.25155 0.34910 0.71540 0.04600
H 	H 	0.10685 0.39647 0.58798 0.04800
H 	H 	0.08503 0.29431 0.57926 0.04100
H 	H 	0.26435 0.44513 0.72626 0.04600
C 	C 	0.55015 0.81721 0.66671 0.00500
C 	C 	0.59542 0.86855 0.64160 -0.05500
C 	C 	0.55051 0.75926 0.68854 0.02700
S 	S 	0.46908 0.79650 0.66194 -0.00500
C 	C 	0.43448 0.71656 0.68889 -0.00600
C 	C 	0.48506 0.70224 0.70102 -0.05900
H 	H 	0.58709 0.90719 0.62079 0.05200
H 	H 	0.47248 0.65148 0.71498 0.04600
C 	C 	0.20721 0.77631 0.74641 -0.00100
C 	C 	0.25438 0.75996 0.75499 -0.05700
C 	C 	0.22400 0.69904 0.74840 0.02600
C 	C 	0.14891 0.65815 0.73146 0.00500
C 	C 	0.10392 0.67896 0.71880 -0.05700
C 	C 	0.13309 0.73751 0.72757 0.02000
S 	S 	0.23405 0.85586 0.73568 0.03800
C 	C 	0.15391 0.84408 0.70941 -0.07700
C 	C 	0.10289 0.77531 0.70741 -0.02200
S 	S 	0.13765 0.61105 0.71191 -0.01300
C 	C 	0.22462 0.63649 0.72611 -0.00400
C 	C 	0.26666 0.68649 0.74568 -0.05900
H 	H 	0.31339 0.79586 0.76391 0.05000
H 	H 	0.04999 0.65353 0.70047 0.04900
H 	H 	0.05061 0.75673 0.68717 0.04300
H 	H 	0.32608 0.71675 0.75474 0.04700
C 	C 	0.14969 0.28026 0.17279 0.00000
C 	C 	0.17261 0.30190 0.20370 -0.06000
C 	C 	0.14742 0.33601 0.20091 0.02500
C 	C 	0.09653 0.34336 0.16900 0.00200
C 	C 	0.07426 0.32249 0.13796 -0.05700
C 	C 	0.09912 0.28810 0.14074 0.01800
S 	S 	0.14222 0.21404 0.17497 0.02600
C 	C 	0.07927 0.19539 0.13514 -0.07400
C 	C 	0.05981 0.24066 0.11945 -0.02400
S 	S 	0.10099 0.40738 0.16747 -0.00900
C 	C 	0.16311 0.42543 0.20755 -0.00600
C 	C 	0.18506 0.38215 0.22271 -0.06000
H 	H 	0.21009 0.29397 0.22868 0.04600
H 	H 	0.03655 0.33024 0.11306 0.04700
H 	H 	0.01097 0.23203 0.09749 0.04000
H 	H 	0.23366 0.39096 0.24490 0.04600
C 	C 	0.48412 0.73125 0.16614 0.02700
C 	C 	0.51434 0.69583 0.19355 0.00400
S 	S 	0.46162 0.63739 0.22382 -0.01000
C 	C 	0.40208 0.65722 0.20502 -0.00500
C 	C 	0.42067 0.70954 0.17248 -0.05900
H 	H 	0.38418 0.72369 0.15168 0.04900
C 	C 	0.18294 0.74878 0.24926 0.00200
C 	C 	0.23420 0.73735 0.25750 -0.05800
C 	C 	0.20782 0.67200 0.25909 0.02700
C 	C 	0.13172 0.62085 0.25071 0.00400
C 	C 	0.08087 0.63492 0.23818 -0.05500
C 	C 	0.10700 0.69913 0.23839 0.01700
S 	S 	0.19814 0.82508 0.22885 0.03200
C 	C 	0.11148 0.79971 0.20730 -0.07400
C 	C 	0.06690 0.72767 0.21555 -0.01700
S 	S 	0.11840 0.56408 0.23809 -0.01200
C 	C 	0.20682 0.59869 0.24499 -0.00300
C 	C 	0.25033 0.65939 0.25618 -0.05900
H 	H 	0.29218 0.77931 0.25971 0.05000
H 	H 	0.02369 0.59926 0.22597 0.04800
H 	H 	0.01072 0.69839 0.19989 0.04500
H 	H 	0.30942 0.69526 0.25978 0.04700
C 	C 	0.55948 0.24244 0.58773 0.00300
C 	C 	0.51125 0.18869 0.61115 -0.05600
C 	C 	0.45907 0.19215 0.61108 0.01300
C 	C 	0.45407 0.24692 0.58681 0.00200
C 	C 	0.49486 0.29460 0.55960 -0.06000
C 	C 	0.54881 0.29251 0.56074 0.02700
S 	S 	0.60428 0.23665 0.57316 -0.01800
C 	C 	0.61304 0.29702 0.53321 -0.00400
C 	C 	0.57945 0.32369 0.53025 -0.06100
S 	S 	0.37009 0.22087 0.58098 0.02500
C 	C 	0.33818 0.14239 0.60938 -0.07900
C 	C 	0.39411 0.13362 0.62387 -0.01800
H 	H 	0.51107 0.14371 0.62702 0.04200
H 	H 	0.48151 0.32880 0.53685 0.04800
H 	H 	0.57815 0.36463 0.50729 0.04600
H 	H 	0.38399 0.08376 0.63761 0.03200
C 	C 	0.50435 0.19725 0.07794 0.00300
C 	C 	0.46037 0.14472 0.10338 -0.05900
C 	C 	0.40984 0.14797 0.10537 0.01400
C 	C 	0.40139 0.20064 0.08077 0.00300
C 	C 	0.43757 0.24672 0.05169 -0.06200
C 	C 	0.49092 0.24558 0.05115 0.02600
S 	S 	0.54717 0.19169 0.06192 -0.02100
C 	C 	0.55315 0.25111 0.02169 -0.00500
C 	C 	0.51882 0.27640 0.01965 -0.06200
S 	S 	0.31882 0.17367 0.07840 0.01400
C 	C 	0.29259 0.09773 0.10915 -0.06500
C 	C 	0.34881 0.09024 0.12139 -0.02800
H 	H 	0.46239 0.10097 0.11955 0.04100
H 	H 	0.42161 0.27921 0.02915 0.04800
H 	H 	0.51702 0.31749 0.99714 0.04700
H 	H 	0.34137 0.04166 0.13653 0.03700
C 	C 	0.07845 0.98454 0.01451 0.33100
O 	O 	0.05099 0.00535 0.02024 -0.41700
O 	O 	0.95056 0.93058 0.18333 -0.39600
C 	C 	0.08995 0.98063 0.51879 0.32000
O 	O 	0.11360 0.03567 0.52581 -0.41000
C 	C 	0.06242 0.98176 0.97684 -0.06400
C 	C 	0.04055 0.98032 0.90569 0.05500
C 	C 	0.03057 0.98025 0.86842 0.03000
C 	C 	0.06332 0.97756 0.47985 -0.06300
C 	C 	0.02921 0.96939 0.40820 0.07500
C 	C 	0.01401 0.96485 0.37109 -0.01000
C 	C 	0.98277 0.95437 0.30068 -0.01800
C 	C 	0.96266 0.94604 0.26466 0.06300
C 	C 	0.94336 0.94009 0.23386 -0.10500
C 	C 	0.50297 0.76839 0.13173 -0.05800
H 	H 	0.48194 0.79785 0.11082 0.05000
O 	O 	0.10544 0.93689 0.54448 -0.38300
C 	C 	0.60095 0.75447 0.68786 -0.05800
H 	H 	0.59763 0.70775 0.70173 0.04800
C 	C 	0.67488 0.33759 0.51627 0.03600
H 	H 	0.67164 0.38036 0.02636 0.05400
C 	C 	0.62206 0.26757 0.98752 -0.07500
C 	C 	0.67604 0.35929 0.01263 -0.07700
C 	C 	0.67942 0.30664 0.50044 -0.07500
H 	H 	0.72791 0.43037 0.52982 0.05400
C 	C 	0.64943 0.86604 0.64319 0.01900
C 	C 	0.65385 0.81127 0.66733 0.00100
C 	C 	0.54872 0.76529 0.12487 -0.00000
C 	C 	0.55877 0.69146 0.18653 -0.05600
C 	C 	0.57853 0.72928 0.15229 0.01700
H 	H 	0.58014 0.66237 0.20761 0.04800
H 	H 	0.61147 0.16262 0.98214 0.04200
C 	C 	0.01371 0.92283 0.33225 -0.02300
C 	C 	0.72929 0.40718 0.51597 -0.07700
S 	S 	0.60558 0.82752 0.09677 0.03200
S 	S 	0.68715 0.22841 0.46967 -0.02100
H 	H 	0.62475 0.07426 0.98562 0.04200
O 	O 	0.07484 0.83222 0.61562 -0.40500
C 	C 	0.02945 0.92815 0.36737 -0.03200
H 	H 	0.02507 0.89383 0.32966 0.04400
H 	H 	0.05342 0.90367 0.39165 0.04400
C 	C 	0.68886 0.30292 0.97897 0.03500
C 	C 	0.74234 0.39561 0.00367 0.03700
C 	C 	0.73741 0.34582 0.48322 0.03500
S 	S 	0.70439 0.81093 0.65385 0.03000
C 	C 	0.69004 0.90578 0.61578 -0.02200
H 	H 	0.69573 0.95200 0.59593 0.04700
C 	C 	0.64462 0.75377 0.14730 -0.02100
C 	C 	0.74222 0.31296 0.46626 -0.00200
H 	H 	0.69188 0.11763 0.48069 0.04100
C 	C 	0.65539 0.20054 0.96764 -0.06100
C 	C 	0.78576 0.44702 0.49801 0.03800
C 	C 	0.72542 0.88106 0.61833 -0.07000
C 	C 	0.66685 0.80958 0.11634 -0.07100
H 	H 	0.68079 0.73964 0.16874 0.04700
C 	C 	0.73687 0.16799 0.46964 -0.05900
C 	C 	0.67195 0.11761 0.97363 -0.06400
C 	C 	0.69586 0.27164 0.96217 -0.00400
C 	C 	0.73785 0.22563 0.45781 0.00400
H 	H 	0.77205 0.55363 0.47044 0.04600
C 	C 	0.74875 0.36780 0.98669 -0.07500
C 	C 	0.78910 0.41686 0.48106 -0.07500
C 	C 	0.68809 0.18322 0.95986 0.02500
C 	C 	0.80594 0.46153 0.01355 -0.00600
C 	C 	0.80561 0.34146 0.45698 -0.06000
H 	H 	0.77718 0.07875 0.50684 0.03300
C 	C 	0.82542 0.56476 0.48746 -0.05900
H 	H 	0.81021 0.65131 0.49213 0.04700
S 	S 	0.82418 0.53620 0.98315 -0.00900
C 	C 	0.82707 0.46955 0.04895 -0.06000
H 	H 	0.80949 0.42623 0.07270 0.04600
C 	C 	0.79867 0.17812 0.46992 0.01400
C 	C 	0.80272 0.29230 0.45203 0.02600
C 	C 	0.84326 0.51976 0.49847 -0.00600
C 	C 	0.72211 0.11075 0.97480 0.00500
H 	H 	0.83113 0.44888 0.46590 0.05100
C 	C 	0.79624 0.92688 0.60829 0.29600
C 	C 	0.81473 0.12926 0.49156 -0.02400
C 	C 	0.85353 0.64624 0.51274 -0.06000
S 	S 	0.73043 0.04784 0.00419 0.00100
H 	H 	0.85569 0.39229 0.45905 0.04500
C 	C 	0.74448 0.86217 0.11463 0.29400
C 	C 	0.87442 0.61467 0.50842 0.02500
S 	S 	0.77146 0.30992 0.94953 -0.01400
C 	C 	0.75422 0.24048 0.94866 0.00300
H 	H 	0.80048 0.39610 0.98019 0.05400
C 	C 	0.85559 0.64715 0.03101 0.01600
C 	C 	0.84855 0.60114 0.06605 0.00000
C 	C 	0.85323 0.54771 0.07599 -0.06000
H 	H 	0.85069 0.51410 0.10367 0.04600
C 	C 	0.01195 0.97962 0.79779 0.03500
C 	C 	0.86000 0.58038 0.01274 0.00300
C 	C 	0.85577 0.53570 0.04841 0.02500
C 	C 	0.99803 0.98234 0.75997 0.05000
O 	O 	0.99343 0.97859 0.67701 -0.40000
Co	Co	0.02490 0.90524 0.62267 1.18800
C 	C 	0.98428 0.98521 0.72789 -0.10400
C 	C 	0.91685 0.93465 0.19641 0.32700
C 	C 	0.96486 0.98978 0.68916 0.36100
Co	Co	0.90094 0.90430 0.13331 1.18800
Co	Co	0.98532 0.86701 0.12131 1.18800
Co	Co	0.86659 0.00535 0.12261 1.14900
C 	C 	0.94353 0.77929 0.07699 0.29000
O 	O 	0.87255 0.07844 0.07269 -0.41000
O 	O 	0.91158 0.97867 0.10894 -0.74400
C 	C 	0.86532 0.07249 0.04172 0.29700
O 	O 	0.91466 0.83125 0.14870 -0.46800
O 	O 	0.95652 0.94272 0.08991 -0.56800
O 	O 	0.91138 0.06843 0.03911 -0.39400
O 	O 	0.76819 0.92681 0.09902 -0.37600
O 	O 	0.78689 0.84243 0.12554 -0.37700
O 	O 	0.86057 0.93704 0.17479 -0.39800
O 	O 	0.00334 0.82843 0.06357 -0.38500
O 	O 	0.93616 0.78101 0.10532 -0.38100
Co	Co	0.94335 0.95305 0.62669 1.19700
Co	Co	0.92660 0.06815 0.61418 1.15800
C 	C 	0.00382 0.80268 0.60147 0.30500
O 	O 	0.93840 0.14131 0.56383 -0.41000
O 	O 	0.96308 0.03101 0.60238 -0.78600
C 	C 	0.92596 0.13139 0.53292 0.29900
O 	O 	0.94713 0.87322 0.64352 -0.46500
O 	O 	0.00074 0.98398 0.58644 -0.56300
O 	O 	0.96085 0.11384 0.53105 -0.39300
O 	O 	0.82316 0.99199 0.59153 -0.37300
O 	O 	0.82992 0.90108 0.61446 -0.37200
O 	O 	0.91468 0.00063 0.66657 -0.44700
O 	O 	0.97068 0.82200 0.60333 -0.39300
C 	C 	0.04761 0.93146 0.93691 -0.06700
C 	C 	0.05836 0.93209 0.97227 0.01700
C 	C 	0.96898 0.92274 0.85395 -0.04000
C 	C 	0.95977 0.92246 0.81878 -0.04000
H 	H 	0.04538 0.89334 0.93380 0.05100
H 	H 	0.06380 0.89409 0.99616 0.02900
H 	H 	0.92799 0.87859 0.86982 0.04300
H 	H 	0.91140 0.87831 0.80759 0.04600
C 	C 	0.01186 0.91358 0.47106 0.02700
C 	C 	0.99487 0.90954 0.43542 -0.08300
H 	H 	0.98624 0.86689 0.49208 0.03000
H 	H 	0.95573 0.85985 0.42909 0.05300
C 	C 	0.86051 0.24483 0.45984 0.00100
C 	C 	0.86542 0.30243 0.45365 -0.06100
S 	S 	0.93228 0.24190 0.47863 0.02000
C 	C 	0.88907 0.15782 0.49842 -0.07700
H 	H 	0.91761 0.35277 0.45277 0.04700
C 	C 	0.88545 0.66518 0.54595 -0.00000
C 	C 	0.93215 0.61009 0.53506 0.00500
C 	C 	0.96603 0.63185 0.56766 -0.06200
C 	C 	0.94280 0.66076 0.57244 0.01800
S 	S 	0.88850 0.72192 0.55229 0.02200
C 	C 	0.95877 0.73954 0.58984 -0.07900
C 	C 	0.98464 0.70284 0.59725 -0.02500
S 	S 	0.91887 0.54371 0.53306 -0.01100
H 	H 	0.00854 0.62592 0.58867 0.05100
H 	H 	0.03622 0.71244 0.61647 0.04600
C 	C 	0.80889 0.23469 0.95506 -0.05600
C 	C 	0.79170 0.16875 0.96765 0.01200
C 	C 	0.81913 0.08886 0.00768 -0.07600
C 	C 	0.84621 0.15638 0.98608 -0.01700
H 	H 	0.86438 0.27998 0.95293 0.04600
H 	H 	0.90453 0.19741 0.98879 0.04000
C 	C 	0.85872 0.63585 0.00339 -0.05700
S 	S 	0.87352 0.64046 0.09546 0.02400
C 	C 	0.89068 0.71504 0.06531 -0.07200
C 	C 	0.87968 0.71159 0.03046 -0.02200
H 	H 	0.86077 0.66935 0.97569 0.04700
H 	H 	0.89886 0.75633 0.00750 0.04400
