data_crystal

_cell_length_a 26.20759
_cell_length_b 26.50035
_cell_length_c 35.04302
_cell_angle_alpha 95.50173
_cell_angle_beta  95.49877
_cell_angle_gamma 125.82133

_symmetry_space_group_name_	'P 1'
_symmetry_space_group_name_H-M	'P 1'

loop_
_symmetry_equiv_pos_as_xyz
  x,y,z

loop_
_atom_site_label
_atom_site_type_symbol
_atom_site_fract_x
_atom_site_fract_y
_atom_site_fract_z
_atom_site_charge
C 	C 	0.97013 0.04705 0.01249 0.05000
C 	C 	0.03394 0.08264 0.00684 -0.08600
C 	C 	0.06543 0.05442 0.00457 0.04900
C 	C 	0.03249 0.99021 0.00646 -0.09300
C 	C 	0.96847 0.95422 0.01093 0.05000
C 	C 	0.93805 0.98308 0.01534 -0.08900
H 	H 	0.05863 0.13169 0.00376 0.05800
H 	H 	0.05622 0.96791 0.00354 0.05500
H 	H 	0.88855 0.95511 0.01914 0.05500
C 	C 	0.92918 0.98091 0.45806 0.03000
C 	C 	0.99629 0.01867 0.46405 -0.06300
C 	C 	0.02789 0.99064 0.46648 0.02700
C 	C 	0.99253 0.92503 0.46413 -0.07200
C 	C 	0.92549 0.88709 0.45852 0.03800
C 	C 	0.89374 0.91502 0.45517 -0.07600
H 	H 	0.02372 0.06953 0.46605 0.05100
H 	H 	0.01706 0.90341 0.46614 0.05000
H 	H 	0.84184 0.88570 0.45038 0.05000
Cu	Cu	0.63653 0.25336 0.99785 0.92700
Cu	Cu	0.69222 0.26578 0.91707 0.86900
Cu	Cu	0.67550 0.35854 0.95126 0.89500
Cu	Cu	0.64607 0.37387 0.02938 0.89600
C 	C 	0.65539 0.29440 0.08032 0.29500
O 	O 	0.54419 0.22035 0.99777 -0.36200
C 	C 	0.66253 0.32649 0.86592 0.29300
O 	O 	0.69353 0.35297 0.00450 -0.63900
O 	O 	0.62995 0.26503 0.94313 -0.64100
O 	O 	0.67177 0.20426 0.99245 -0.37400
O 	O 	0.74719 0.27586 0.96121 -0.43800
O 	O 	0.63022 0.32393 0.07186 -0.38500
O 	O 	0.72586 0.44998 0.96144 -0.38500
C 	C 	0.72632 0.48503 0.99116 0.29600
C 	C 	0.52351 0.25250 0.98678 0.29200
O 	O 	0.56486 0.31107 0.98243 -0.39800
O 	O 	0.68757 0.45960 0.01633 -0.39400
O 	O 	0.65709 0.25811 0.05268 -0.36400
C 	C 	0.72621 0.22907 0.98023 0.29500
O 	O 	0.66365 0.36241 0.89551 -0.38300
O 	O 	0.65735 0.27490 0.87020 -0.42100
H 	H 	0.73961 0.37835 0.01621 0.16300
H 	H 	0.58617 0.23995 0.92730 0.17600
Cu	Cu	0.72417 0.31449 0.44491 0.92600
Cu	Cu	0.74048 0.28574 0.53223 0.86600
Cu	Cu	0.63209 0.28716 0.50091 0.89700
Cu	Cu	0.59356 0.29377 0.41867 0.89400
C 	C 	0.67513 0.29316 0.36400 0.29700
O 	O 	0.75492 0.40269 0.43785 -0.37400
C 	C 	0.68427 0.31843 0.58536 0.29100
O 	O 	0.62556 0.25814 0.44722 -0.63900
O 	O 	0.72578 0.33418 0.50101 -0.64200
O 	O 	0.77597 0.28186 0.44899 -0.37400
O 	O 	0.72116 0.22015 0.49214 -0.44200
O 	O 	0.62030 0.28263 0.36873 -0.38800
O 	O 	0.54041 0.23503 0.49832 -0.38500
C 	C 	0.49896 0.23221 0.47189 0.29900
C 	C 	0.72211 0.42421 0.44547 0.29000
O 	O 	0.66557 0.38657 0.45458 -0.39200
O 	O 	0.51689 0.26422 0.44306 -0.39400
O 	O 	0.70691 0.28372 0.39023 -0.36700
C 	C 	0.75723 0.23288 0.46570 0.29600
O 	O 	0.64071 0.31014 0.55754 -0.38000
O 	O 	0.73784 0.32938 0.57773 -0.42000
H 	H 	0.60104 0.21162 0.43964 0.16600
H 	H 	0.75125 0.37985 0.51242 0.17400
C 	C 	0.67501 0.29419 0.69003 -0.09000
C 	C 	0.66445 0.33767 0.70496 0.00200
C 	C 	0.65961 0.37457 0.68046 0.02500
C 	C 	0.66626 0.36783 0.64133 -0.01400
C 	C 	0.67683 0.32426 0.62640 -0.10500
C 	C 	0.67977 0.28608 0.65072 0.09000
C 	C 	0.65875 0.34416 0.74650 0.00300
C 	C 	0.64830 0.42164 0.69600 -0.17300
H 	H 	0.66367 0.39682 0.62258 0.04100
C 	C 	0.68840 0.23697 0.63504 -0.19600
H 	H 	0.67880 0.26608 0.70901 0.05000
C 	C 	0.60158 0.29850 0.75877 0.02400
C 	C 	0.60216 0.29586 0.79862 -0.01300
C 	C 	0.65839 0.33951 0.82629 -0.10800
C 	C 	0.71330 0.38970 0.81437 0.09500
C 	C 	0.71333 0.39111 0.77440 -0.09200
C 	C 	0.54119 0.24985 0.72936 -0.17300
H 	H 	0.55959 0.25822 0.80794 0.03600
C 	C 	0.77315 0.43938 0.84389 -0.20400
H 	H 	0.75667 0.42711 0.76491 0.05000
H 	H 	0.67863 0.20411 0.65555 0.06200
H 	H 	0.73841 0.26071 0.63053 0.05700
H 	H 	0.65474 0.20788 0.60694 0.05100
H 	H 	0.69027 0.46013 0.71837 0.06400
H 	H 	0.60482 0.39775 0.70936 0.06500
H 	H 	0.64105 0.44338 0.67253 0.06300
H 	H 	0.49842 0.22640 0.74342 0.06100
H 	H 	0.54486 0.21307 0.71516 0.06400
H 	H 	0.53358 0.27257 0.70673 0.06500
H 	H 	0.79434 0.41762 0.85714 0.06000
H 	H 	0.76159 0.46059 0.86719 0.08200
H 	H 	0.80968 0.47839 0.83032 0.06800
C 	C 	0.73303 0.30746 0.18140 -0.09100
C 	C 	0.68213 0.28635 0.20145 0.00200
C 	C 	0.62102 0.26271 0.18086 0.02700
C 	C 	0.61262 0.26368 0.14088 -0.01400
C 	C 	0.66410 0.28724 0.12111 -0.10400
C 	C 	0.72442 0.30776 0.14122 0.09300
C 	C 	0.69412 0.29344 0.24448 0.00400
C 	C 	0.56537 0.23897 0.20175 -0.17300
H 	H 	0.56616 0.24710 0.12521 0.04400
C 	C 	0.77974 0.33073 0.12015 -0.20200
H 	H 	0.77960 0.32469 0.19724 0.05100
C 	C 	0.68472 0.24353 0.26208 0.02500
C 	C 	0.68219 0.24555 0.30203 -0.01300
C 	C 	0.69046 0.29739 0.32455 -0.10400
C 	C 	0.70679 0.35025 0.30778 0.09700
C 	C 	0.70798 0.34762 0.26771 -0.09200
C 	C 	0.67380 0.18661 0.23801 -0.17300
H 	H 	0.67121 0.20568 0.31522 0.04200
C 	C 	0.71994 0.40820 0.33204 -0.20800
H 	H 	0.71687 0.38658 0.25424 0.05200
H 	H 	0.82425 0.34748 0.14035 0.06700
H 	H 	0.78958 0.37083 0.10630 0.06300
H 	H 	0.76810 0.29156 0.09734 0.08000
H 	H 	0.57405 0.27907 0.22216 0.06600
H 	H 	0.55933 0.20280 0.21842 0.06500
H 	H 	0.51968 0.21663 0.18099 0.06300
H 	H 	0.67505 0.15564 0.25671 0.06300
H 	H 	0.71178 0.20203 0.22031 0.06600
H 	H 	0.62634 0.15833 0.21825 0.06500
H 	H 	0.74226 0.44890 0.31655 0.07100
H 	H 	0.75345 0.42291 0.35980 0.08100
H 	H 	0.67434 0.39758 0.33857 0.07400
C 	C 	0.74090 0.57406 0.43125 -0.08000
C 	C 	0.80459 0.62073 0.44989 0.01900
C 	C 	0.84162 0.60279 0.46641 -0.01000
C 	C 	0.81435 0.53850 0.46451 -0.00100
C 	C 	0.75042 0.49165 0.44606 -0.10100
C 	C 	0.71390 0.50977 0.42863 0.06200
C 	C 	0.83258 0.68832 0.45110 -0.00300
S 	S 	0.92235 0.66033 0.48901 -0.04300
H 	H 	0.84275 0.52493 0.47770 0.03400
S 	S 	0.63571 0.45277 0.40167 -0.08700
H 	H 	0.71270 0.58785 0.41807 0.05200
C 	C 	0.85742 0.71755 0.41922 0.01200
C 	C 	0.88479 0.78185 0.42125 -0.05000
C 	C 	0.88867 0.81775 0.45507 -0.01500
C 	C 	0.86290 0.78826 0.48674 0.01600
C 	C 	0.83446 0.72365 0.48442 -0.05400
S 	S 	0.85586 0.67450 0.37701 -0.05100
H 	H 	0.90465 0.80443 0.39689 0.04400
S 	S 	0.86749 0.83202 0.52978 -0.05100
H 	H 	0.81485 0.70108 0.50882 0.04800
H 	H 	0.59245 0.43553 0.42605 0.03800
H 	H 	0.79885 0.64582 0.35185 0.03400
H 	H 	0.81528 0.83253 0.52614 0.03400
H 	H 	0.96027 0.67506 0.46141 0.03600
C 	C 	0.86284 0.06396 0.41894 -0.05400
C 	C 	0.84582 0.07956 0.45238 -0.00400
C 	C 	0.85179 0.05851 0.48684 0.01400
C 	C 	0.87687 0.02421 0.48791 -0.05200
C 	C 	0.89615 0.01066 0.45492 -0.00900
C 	C 	0.88805 0.02976 0.42004 0.01400
C 	C 	0.82394 0.11988 0.45151 0.01900
S 	S 	0.82935 0.07600 0.52902 -0.05200
H 	H 	0.88268 0.00922 0.51468 0.04600
S 	S 	0.90930 0.01114 0.37764 -0.04300
H 	H 	0.85753 0.07943 0.39228 0.04700
C 	C 	0.86804 0.18638 0.46232 -0.01000
C 	C 	0.84586 0.22330 0.46474 -0.00400
C 	C 	0.77996 0.19451 0.45672 -0.10200
C 	C 	0.73613 0.12832 0.44375 0.06100
C 	C 	0.75833 0.09141 0.44134 -0.07900
S 	S 	0.95095 0.22375 0.47370 -0.04700
H 	H 	0.87976 0.27425 0.47417 0.03000
S 	S 	0.65367 0.09138 0.42950 -0.05900
H 	H 	0.72447 0.04041 0.43217 0.05300
H 	H 	0.85837 0.95272 0.35720 0.03200
H 	H 	0.97571 0.23568 0.44019 0.03600
H 	H 	0.62461 0.07411 0.46122 0.03500
H 	H 	0.88013 0.13387 0.55020 0.03400
C 	C 	0.19215 0.07811 0.43954 -0.05400
C 	C 	0.23121 0.09756 0.47617 -0.00400
C 	C 	0.20355 0.08371 0.50983 0.01400
C 	C 	0.13715 0.04982 0.50642 -0.05200
C 	C 	0.09800 0.02964 0.46971 -0.00800
C 	C 	0.12578 0.04415 0.43611 0.01400
C 	C 	0.30101 0.13215 0.47888 0.01900
S 	S 	0.25141 0.10757 0.55622 -0.04600
H 	H 	0.11581 0.03854 0.53227 0.04700
S 	S 	0.07782 0.01911 0.38959 -0.04400
H 	H 	0.21342 0.08891 0.41365 0.04600
C 	C 	0.32760 0.09915 0.47398 -0.01000
C 	C 	0.39303 0.13262 0.47327 -0.00200
C 	C 	0.43223 0.19877 0.47731 -0.09500
C 	C 	0.40617 0.23197 0.48409 0.06000
C 	C 	0.34069 0.19847 0.48452 -0.07700
S 	S 	0.27932 0.01600 0.46825 -0.04200
H 	H 	0.41314 0.10707 0.46862 0.03100
S 	S 	0.45527 0.31541 0.49308 -0.05100
H 	H 	0.32046 0.22394 0.48896 0.05300
H 	H 	0.05688 0.95903 0.37442 0.03200
H 	H 	0.25309 0.98973 0.42955 0.03000
H 	H 	0.45831 0.33604 0.45839 0.03800
H 	H 	0.25882 0.06193 0.56297 0.03700
C 	C 	0.87385 0.78015 0.96765 -0.06000
C 	C 	0.86629 0.75407 0.00147 0.00500
C 	C 	0.89168 0.79382 0.03849 0.00900
C 	C 	0.92417 0.85912 0.04126 -0.04800
C 	C 	0.93166 0.88516 0.00744 -0.01800
C 	C 	0.90597 0.84534 0.97042 0.01700
C 	C 	0.83000 0.68488 0.99780 0.01400
S 	S 	0.88271 0.76230 0.08146 -0.04800
H 	H 	0.94398 0.88976 0.06973 0.04400
S 	S 	0.91327 0.87659 0.92741 -0.05200
H 	H 	0.85405 0.74952 0.93919 0.04900
C 	C 	0.76310 0.64594 0.99543 -0.00800
C 	C 	0.72969 0.58059 0.99271 -0.00100
C 	C 	0.76234 0.55349 0.99230 -0.09500
C 	C 	0.82928 0.59244 0.99437 0.05800
C 	C 	0.86263 0.65783 0.99688 -0.07600
S 	S 	0.72082 0.67860 0.99633 -0.04600
H 	H 	0.67821 0.55073 0.99100 0.03800
S 	S 	0.87222 0.56044 0.99555 -0.06900
H 	H 	0.91413 0.68786 0.99869 0.05200
H 	H 	0.97046 0.89601 0.91711 0.03400
H 	H 	0.72016 0.69599 0.03427 0.03500
H 	H 	0.88980 0.55962 0.03346 0.03300
H 	H 	0.82609 0.74506 0.09166 0.03400
C 	C 	0.92059 0.15434 0.03426 -0.05500
C 	C 	0.86478 0.12432 0.00587 -0.00000
C 	C 	0.84266 0.06788 0.98063 0.01000
C 	C 	0.87854 0.04447 0.98233 -0.05000
C 	C 	0.93431 0.07427 0.01075 -0.01500
C 	C 	0.95411 0.12838 0.03777 0.01900
C 	C 	0.83230 0.15456 0.00084 0.02400
S 	S 	0.76897 0.02494 0.94772 -0.04600
H 	H 	0.86258 0.00240 0.96186 0.04700
S 	S 	0.01803 0.16166 0.07739 -0.05500
H 	H 	0.93740 0.19741 0.05396 0.04700
C 	C 	0.79641 0.15509 0.02821 -0.01300
C 	C 	0.76315 0.18076 0.02153 0.00500
C 	C 	0.76258 0.20310 0.98683 -0.10900
C 	C 	0.79664 0.20012 0.95875 0.06800
C 	C 	0.83394 0.17928 0.96701 -0.08400
S 	S 	0.79110 0.12209 0.07027 -0.04000
H 	H 	0.73710 0.18269 0.04315 0.04200
S 	S 	0.78742 0.21516 0.91163 -0.10400
H 	H 	0.86125 0.17858 0.94586 0.05600
H 	H 	0.99506 0.13190 0.10814 0.03700
H 	H 	0.84041 0.16764 0.09982 0.03200
H 	H 	0.73606 0.16039 0.88789 0.02700
H 	H 	0.72068 0.98407 0.96613 0.03300
C 	C 	0.37547 0.23824 0.00471 -0.07700
C 	C 	0.32692 0.17499 0.98723 0.01800
C 	C 	0.34286 0.13799 0.96818 -0.00900
C 	C 	0.40714 0.16440 0.96734 0.00000
C 	C 	0.45599 0.22694 0.98626 -0.10100
C 	C 	0.43983 0.26361 0.00587 0.06800
C 	C 	0.26033 0.14645 0.99220 -0.00600
S 	S 	0.28306 0.05802 0.94648 -0.04400
H 	H 	0.41922 0.13595 0.95247 0.03500
S 	S 	0.49919 0.33856 0.03522 -0.08700
H 	H 	0.36321 0.26657 0.01953 0.05400
C 	C 	0.24185 0.13109 0.02833 0.01400
C 	C 	0.17906 0.10539 0.03275 -0.04900
C 	C 	0.13348 0.09215 0.00104 -0.01500
C 	C 	0.15191 0.10753 0.96488 0.01400
C 	C 	0.21547 0.13569 0.96090 -0.05300
S 	S 	0.29618 0.14141 0.06773 -0.04600
H 	H 	0.16487 0.09321 0.06049 0.04500
S 	S 	0.09534 0.08919 0.92401 -0.05000
H 	H 	0.22973 0.14791 0.93319 0.04800
H 	H 	0.51802 0.38457 0.01315 0.03900
H 	H 	0.32957 0.20153 0.08907 0.03500
H 	H 	0.06578 0.02815 0.90535 0.03600
H 	H 	0.27157 0.02092 0.97399 0.03600
