data_crystal

_cell_length_a 15.21191
_cell_length_b 20.55488
_cell_length_c 28.64547
_cell_angle_alpha 89.99831
_cell_angle_beta  76.67811
_cell_angle_gamma 90.00014

_symmetry_space_group_name_	'P 1'
_symmetry_space_group_name_H-M	'P 1'

loop_
_symmetry_equiv_pos_as_xyz
  x,y,z

loop_
_atom_site_label
_atom_site_type_symbol
_atom_site_fract_x
_atom_site_fract_y
_atom_site_fract_z
_atom_site_charge
Cu	Cu	0.54815 0.41866 0.16023 0.93700
Cu	Cu	0.72210 0.48772 0.18993 0.90200
Cu	Cu	0.53843 0.55417 0.20556 0.90800
Cu	Cu	0.36388 0.49658 0.18565 0.91600
C 	C 	0.37799 0.35314 0.18291 0.32800
O 	O 	0.52065 0.44127 0.09615 -0.32700
C 	C 	0.71402 0.62479 0.19015 0.32500
O 	O 	0.46353 0.47741 0.21241 -0.63000
O 	O 	0.62273 0.49704 0.15925 -0.63700
O 	O 	0.63796 0.35354 0.17148 -0.33500
O 	O 	0.68150 0.41384 0.22872 -0.39700
O 	O 	0.33989 0.40505 0.16900 -0.34200
O 	O 	0.44862 0.60838 0.24714 -0.33900
C 	C 	0.36696 0.61845 0.24003 0.32600
C 	C 	0.49191 0.49930 0.08717 0.31800
O 	O 	0.45453 0.53799 0.12275 -0.35100
O 	O 	0.31784 0.56970 0.23008 -0.34300
O 	O 	0.46656 0.34698 0.17315 -0.33000
C 	C 	0.67431 0.35731 0.20873 0.33300
O 	O 	0.62667 0.62300 0.21100 -0.34800
O 	O 	0.75622 0.57349 0.16838 -0.36700
H 	H 	0.44730 0.46012 0.24555 0.19700
H 	H 	0.64127 0.51744 0.12725 0.20400
Cu	Cu	0.43015 0.43317 0.81214 0.93800
Cu	Cu	0.27822 0.51196 0.76987 0.89000
Cu	Cu	0.45065 0.57367 0.77880 0.90800
Cu	Cu	0.61796 0.50682 0.79246 0.91600
C 	C 	0.59806 0.36424 0.78998 0.32900
O 	O 	0.45387 0.45047 0.87792 -0.32700
C 	C 	0.28951 0.65051 0.78126 0.32200
O 	O 	0.51902 0.49430 0.76369 -0.63400
O 	O 	0.35736 0.51280 0.81464 -0.63600
O 	O 	0.33985 0.37204 0.79683 -0.33500
O 	O 	0.31767 0.43441 0.73508 -0.40000
O 	O 	0.63629 0.41370 0.80683 -0.34200
O 	O 	0.54065 0.63056 0.74043 -0.34200
C 	C 	0.62552 0.63395 0.74380 0.33200
C 	C 	0.48473 0.50674 0.88931 0.32100
O 	O 	0.52584 0.54662 0.85539 -0.36200
O 	O 	0.67015 0.58138 0.75120 -0.34900
O 	O 	0.50948 0.36003 0.79763 -0.33000
C 	C 	0.31116 0.37819 0.75727 0.33400
O 	O 	0.37055 0.64874 0.79054 -0.34200
O 	O 	0.23665 0.59879 0.78773 -0.37300
H 	H 	0.53462 0.48296 0.72917 0.19800
H 	H 	0.32786 0.52844 0.84712 0.20900
Cu	Cu	0.98520 0.91421 0.30250 0.94200
Cu	Cu	0.85075 0.98599 0.24445 0.89900
Cu	Cu	0.00597 0.05311 0.26572 0.89800
Cu	Cu	0.16684 0.99374 0.29340 0.92200
C 	C 	0.15627 0.85042 0.29256 0.32700
O 	O 	0.98974 0.93607 0.37096 -0.31900
C 	C 	0.84596 0.12524 0.25655 0.32400
O 	O 	0.07961 0.97569 0.25758 -0.63300
O 	O 	0.91070 0.99128 0.29757 -0.61700
O 	O 	0.90608 0.84955 0.28092 -0.33100
O 	O 	0.90390 0.90855 0.21426 -0.38900
O 	O 	0.18718 0.90199 0.31092 -0.33900
O 	O 	0.09860 0.11026 0.23064 -0.35000
C 	C 	0.17869 0.11795 0.24011 0.33400
C 	C 	0.01422 0.99388 0.38321 0.34100
O 	O 	0.06038 0.03321 0.35037 -0.37700
O 	O 	0.22272 0.06833 0.25309 -0.35200
O 	O 	0.06899 0.84319 0.29565 -0.32500
C 	C 	0.89079 0.85336 0.23777 0.33100
O 	O 	0.92286 0.12628 0.27052 -0.34300
O 	O 	0.79858 0.07115 0.25797 -0.37500
H 	H 	0.10379 0.96283 0.22375 0.19900
H 	H 	0.87239 0.00801 0.32788 0.19600
Cu	Cu	0.00589 0.93136 0.66856 0.93600
Cu	Cu	0.14859 0.01028 0.71788 0.88500
Cu	Cu	0.98232 0.07231 0.70077 0.90700
Cu	Cu	0.82108 0.00653 0.67838 0.90800
C 	C 	0.83709 0.86381 0.68393 0.32600
O 	O 	0.99489 0.94741 0.60031 -0.30600
C 	C 	0.14146 0.14871 0.70493 0.32200
O 	O 	0.91187 0.99365 0.71286 -0.62200
O 	O 	0.07847 0.01076 0.66885 -0.64500
O 	O 	0.09027 0.86988 0.68888 -0.33500
O 	O 	0.10336 0.93337 0.75178 -0.39500
O 	O 	0.80315 0.91309 0.66449 -0.33400
O 	O 	0.88883 0.12918 0.73582 -0.34500
C 	C 	0.80666 0.13379 0.72842 0.33300
C 	C 	0.96867 0.00372 0.58635 0.30100
O 	O 	0.92223 0.04441 0.61806 -0.35700
O 	O 	0.76413 0.08241 0.71681 -0.35400
O 	O 	0.92484 0.85887 0.68003 -0.32400
C 	C 	0.11376 0.87696 0.72984 0.33400
O 	O 	0.06294 0.14731 0.69267 -0.34500
O 	O 	0.19330 0.09656 0.70079 -0.37500
H 	H 	0.89010 0.98268 0.74724 0.20200
H 	H 	0.11270 0.02611 0.63716 0.20900
C 	C 	0.91438 0.01272 0.46432 0.12100
C 	C 	0.00194 0.01018 0.43443 -0.12000
C 	C 	0.07784 0.01642 0.45459 0.12100
C 	C 	0.06588 0.02194 0.50460 0.09600
C 	C 	0.97891 0.01624 0.53472 -0.08100
C 	C 	0.90279 0.01365 0.51449 0.10500
Br	Br	0.78304 0.00713 0.55540 -0.16900
Br	Br	0.81051 0.01597 0.43650 -0.16800
Br	Br	0.16837 0.03845 0.53180 -0.16600
Br	Br	0.19836 0.01250 0.41420 -0.17600
C 	C 	0.70760 0.70766 0.67902 0.11200
C 	C 	0.67670 0.69383 0.72825 -0.09500
C 	C 	0.69673 0.73654 0.76278 0.10600
C 	C 	0.74816 0.79287 0.74816 0.10500
C 	C 	0.78031 0.80623 0.69899 -0.09400
C 	C 	0.75977 0.76375 0.66437 0.10900
Br	Br	0.80491 0.78171 0.59697 -0.11700
Br	Br	0.67975 0.64916 0.63177 -0.13200
Br	Br	0.77393 0.85228 0.79541 -0.15900
Br	Br	0.65356 0.71760 0.83017 -0.14900
C 	C 	0.68736 0.29436 0.72525 0.10500
C 	C 	0.65222 0.30572 0.77446 -0.09600
C 	C 	0.66846 0.26090 0.80870 0.11000
C 	C 	0.71926 0.20439 0.79365 0.11100
C 	C 	0.75406 0.19290 0.74436 -0.09600
C 	C 	0.73801 0.23783 0.71019 0.10600
Br	Br	0.78601 0.22188 0.64273 -0.14900
Br	Br	0.66686 0.35679 0.67861 -0.16700
Br	Br	0.73972 0.14205 0.84039 -0.14100
Br	Br	0.62068 0.27695 0.87617 -0.12500
C 	C 	0.13767 0.24700 0.75637 0.10100
C 	C 	0.17894 0.21199 0.71479 -0.09800
C 	C 	0.25897 0.23570 0.68443 0.10600
C 	C 	0.30247 0.29049 0.69819 0.10700
C 	C 	0.26288 0.32398 0.74074 -0.10800
C 	C 	0.17852 0.30389 0.76863 0.10700
Br	Br	0.11804 0.35526 0.82296 -0.17800
Br	Br	0.02724 0.21546 0.79769 -0.16800
Br	Br	0.41800 0.31797 0.65995 -0.14200
Br	Br	0.30630 0.19517 0.62303 -0.13200
C 	C 	0.12748 0.79184 0.78994 0.10800
C 	C 	0.16495 0.82501 0.74693 -0.10900
C 	C 	0.24936 0.80578 0.71866 0.10800
C 	C 	0.29090 0.74883 0.73013 0.10100
C 	C 	0.25151 0.71385 0.77206 -0.09700
C 	C 	0.17260 0.73766 0.80337 0.10600
Br	Br	0.12926 0.69827 0.86556 -0.13400
Br	Br	0.01264 0.81878 0.82925 -0.14100
Br	Br	0.39870 0.71664 0.68688 -0.16100
Br	Br	0.30925 0.85867 0.66505 -0.17300
C 	C 	0.31446 0.72703 0.21920 0.10600
C 	C 	0.32194 0.68109 0.25454 -0.09200
C 	C 	0.27884 0.69248 0.30291 0.11100
C 	C 	0.22574 0.74871 0.31562 0.11200
C 	C 	0.21584 0.79351 0.27994 -0.09200
C 	C 	0.26152 0.78323 0.23190 0.11000
Br	Br	0.25041 0.84584 0.18342 -0.16800
Br	Br	0.37552 0.71209 0.15319 -0.14800
Br	Br	0.16569 0.76412 0.38170 -0.12400
Br	Br	0.29119 0.63043 0.35151 -0.13500
C 	C 	0.89493 0.73527 0.21781 0.12000
C 	C 	0.85422 0.79659 0.21702 -0.10400
C 	C 	0.77312 0.80178 0.20117 0.11200
C 	C 	0.73352 0.74561 0.18684 0.10800
C 	C 	0.76663 0.68369 0.19523 -0.09500
C 	C 	0.84729 0.67872 0.21153 0.10700
Br	Br	0.88694 0.59593 0.23109 -0.18100
Br	Br	0.01792 0.72888 0.22438 -0.15100
Br	Br	0.63741 0.75368 0.15347 -0.13400
Br	Br	0.71183 0.88428 0.20297 -0.20200
C 	C 	0.80479 0.28078 0.19428 0.10900
C 	C 	0.72064 0.30027 0.22276 -0.10500
C 	C 	0.68042 0.26466 0.26416 0.10900
C 	C 	0.72395 0.20913 0.27680 0.10700
C 	C 	0.80540 0.18734 0.24663 -0.09500
C 	C 	0.84641 0.22377 0.20573 0.10200
Br	Br	0.95824 0.19435 0.16451 -0.15600
Br	Br	0.86355 0.33287 0.13997 -0.17600
Br	Br	0.67457 0.16488 0.33648 -0.13400
Br	Br	0.56447 0.29090 0.30263 -0.14400
C 	C 	0.30773 0.25099 0.16216 0.11000
C 	C 	0.32260 0.29495 0.19724 -0.09600
C 	C 	0.28876 0.28137 0.24623 0.10600
C 	C 	0.24159 0.22316 0.26024 0.10600
C 	C 	0.22814 0.17859 0.22524 -0.09700
C 	C 	0.26117 0.19249 0.17615 0.11200
Br	Br	0.24522 0.13040 0.12825 -0.14100
Br	Br	0.35138 0.27104 0.09499 -0.12500
Br	Br	0.19476 0.20439 0.32740 -0.15200
Br	Br	0.30712 0.34273 0.29405 -0.16900
C 	C 	0.57174 0.52049 0.00228 0.10900
C 	C 	0.49022 0.51682 0.03748 -0.09400
C 	C 	0.40707 0.52094 0.02378 0.11200
C 	C 	0.40584 0.52428 0.97486 0.11100
C 	C 	0.48714 0.51959 0.93961 -0.09600
C 	C 	0.57040 0.51963 0.95336 0.11500
Br	Br	0.68249 0.51374 0.90543 -0.16700
Br	Br	0.68512 0.52738 0.02111 -0.16400
Br	Br	0.29304 0.53602 0.95610 -0.16200
Br	Br	0.29478 0.51755 0.07169 -0.16700
