data_crystal

_cell_length_a 30.18878
_cell_length_b 30.33033
_cell_length_c 34.88464
_cell_angle_alpha 95.48754
_cell_angle_beta  95.48536
_cell_angle_gamma 125.61887

_symmetry_space_group_name_	'P 1'
_symmetry_space_group_name_H-M	'P 1'

loop_
_symmetry_equiv_pos_as_xyz
  x,y,z

loop_
_atom_site_label
_atom_site_type_symbol
_atom_site_fract_x
_atom_site_fract_y
_atom_site_fract_z
_atom_site_charge
C 	C 	0.95956 0.01562 0.00804 0.11400
N 	N 	0.01523 0.04674 0.00891 -0.13400
C 	C 	0.04083 0.02197 0.00616 0.12000
N 	N 	0.01082 0.96634 0.00217 -0.13300
C 	C 	0.95523 0.93512 0.00068 0.11800
N 	N 	0.92969 0.95985 0.00380 -0.13600
C 	C 	0.96505 0.01679 0.43877 0.11400
N 	N 	0.02119 0.04997 0.44264 -0.13600
C 	C 	0.05031 0.02932 0.44890 0.12100
N 	N 	0.02315 0.97540 0.45174 -0.13400
C 	C 	0.96708 0.94193 0.44808 0.11800
N 	N 	0.93799 0.96267 0.44150 -0.13600
Cu	Cu	0.63405 0.24501 0.99666 0.92500
Cu	Cu	0.66302 0.22934 0.91069 0.89100
Cu	Cu	0.65090 0.32630 0.94390 0.91200
Cu	Cu	0.62179 0.33985 0.02102 0.90300
C 	C 	0.64959 0.28853 0.07816 0.34200
O 	O 	0.55157 0.20458 0.99723 -0.35500
C 	C 	0.66762 0.30733 0.86786 0.33900
O 	O 	0.66973 0.32928 0.99844 -0.63800
O 	O 	0.62166 0.24706 0.94007 -0.63000
O 	O 	0.68153 0.21840 0.99700 -0.36600
O 	O 	0.64709 0.16957 0.93453 -0.41100
O 	O 	0.61930 0.30532 0.06753 -0.36200
O 	O 	0.68437 0.40407 0.94932 -0.37400
C 	C 	0.67853 0.43286 0.97654 0.29500
C 	C 	0.52485 0.22344 0.98306 0.28400
O 	O 	0.55285 0.27412 0.97651 -0.39200
O 	O 	0.64510 0.40913 0.00175 -0.38300
O 	O 	0.65482 0.25745 0.05257 -0.36200
C 	C 	0.67296 0.17924 0.97016 0.28800
O 	O 	0.64139 0.32120 0.88772 -0.38100
O 	O 	0.69701 0.29373 0.88609 -0.39800
H 	H 	0.70962 0.35687 0.00990 0.17300
H 	H 	0.58197 0.22202 0.92761 0.16500
Cu	Cu	0.74557 0.34848 0.44865 0.92900
Cu	Cu	0.74970 0.31156 0.53345 0.87300
Cu	Cu	0.66688 0.32950 0.50496 0.90000
Cu	Cu	0.64332 0.35013 0.42642 0.90300
C 	C 	0.69556 0.32556 0.36781 0.34300
O 	O 	0.77961 0.42870 0.44578 -0.35900
C 	C 	0.70779 0.34580 0.58941 0.33300
O 	O 	0.66070 0.30750 0.45015 -0.63900
O 	O 	0.74677 0.36231 0.50552 -0.63900
O 	O 	0.78273 0.31139 0.45010 -0.36600
O 	O 	0.72847 0.25605 0.49026 -0.43500
O 	O 	0.67577 0.35291 0.37860 -0.36300
O 	O 	0.58799 0.29188 0.50178 -0.36100
C 	C 	0.55492 0.29285 0.47471 0.29300
C 	C 	0.75881 0.45331 0.46013 0.28500
O 	O 	0.70878 0.42334 0.46835 -0.39000
O 	O 	0.57424 0.32362 0.44750 -0.38100
O 	O 	0.73015 0.32414 0.39300 -0.36200
C 	C 	0.76156 0.26643 0.46513 0.29100
O 	O 	0.67385 0.34557 0.56221 -0.34900
O 	O 	0.75135 0.34930 0.58120 -0.41800
H 	H 	0.63477 0.26720 0.44015 0.17700
H 	H 	0.77248 0.40138 0.51902 0.17800
C 	C 	0.67684 0.28728 0.76104 -0.14900
C 	C 	0.68135 0.33257 0.74951 0.01100
C 	C 	0.68047 0.36917 0.77669 0.29300
C 	C 	0.67551 0.36066 0.81527 -0.05700
C 	C 	0.67157 0.31560 0.82698 -0.15200
C 	C 	0.67195 0.27873 0.79956 0.36500
C 	C 	0.68759 0.34178 0.70902 0.01200
F 	F 	0.68464 0.41305 0.76578 -0.42000
H 	H 	0.67548 0.38948 0.83616 0.09400
F 	F 	0.66670 0.23417 0.81009 -0.47300
H 	H 	0.67723 0.25875 0.74013 0.10900
C 	C 	0.74060 0.37716 0.70007 0.29200
C 	C 	0.74695 0.38056 0.66102 -0.06200
C 	C 	0.70038 0.34854 0.63057 -0.14600
C 	C 	0.64709 0.31504 0.63974 0.36300
C 	C 	0.64084 0.31171 0.67882 -0.14800
F 	F 	0.78608 0.40694 0.72913 -0.42300
H 	H 	0.78816 0.40720 0.65438 0.08900
F 	F 	0.60160 0.28365 0.61073 -0.44800
H 	H 	0.59978 0.28452 0.68557 0.11200
C 	C 	0.69756 0.34330 0.18712 -0.14300
C 	C 	0.68198 0.29546 0.20148 0.01300
C 	C 	0.65992 0.24638 0.17512 0.28700
C 	C 	0.65165 0.24476 0.13469 -0.05700
C 	C 	0.66503 0.29207 0.12032 -0.14500
C 	C 	0.68912 0.34169 0.14674 0.36500
C 	C 	0.68455 0.29581 0.24395 0.01400
F 	F 	0.64529 0.19999 0.18869 -0.42400
H 	H 	0.63314 0.20630 0.11459 0.09400
F 	F 	0.70368 0.38814 0.13327 -0.45700
H 	H 	0.71494 0.38141 0.20730 0.11600
C 	C 	0.73580 0.32198 0.26913 0.28700
C 	C 	0.73894 0.32872 0.30979 -0.05600
C 	C 	0.69096 0.30972 0.32557 -0.14500
C 	C 	0.63934 0.28105 0.30029 0.36500
C 	C 	0.63622 0.27412 0.25968 -0.14300
F 	F 	0.78273 0.34234 0.25421 -0.42500
H 	H 	0.77895 0.35072 0.32900 0.09300
F 	F 	0.59239 0.26109 0.31512 -0.45700
H 	H 	0.59645 0.25340 0.24041 0.11700
C 	C 	0.78781 0.51325 0.46119 -0.08700
C 	C 	0.83991 0.54514 0.45004 0.02100
C 	C 	0.86381 0.59976 0.44598 -0.07200
C 	C 	0.83642 0.62345 0.45355 0.05000
C 	C 	0.78531 0.59233 0.46604 -0.07200
C 	C 	0.76141 0.53777 0.47021 0.01800
C 	C 	0.85888 0.67881 0.44460 -0.05300
C 	C 	0.86279 0.71760 0.47020 -0.04500
C 	C 	0.88761 0.77378 0.46191 0.03500
C 	C 	0.86326 0.80029 0.47096 -0.05500
C 	C 	0.88823 0.85462 0.46546 -0.01400
C 	C 	0.93807 0.88311 0.45105 -0.02000
C 	C 	0.96201 0.85623 0.44158 -0.02000
C 	C 	0.93741 0.80227 0.44750 -0.05300
H 	H 	0.86134 0.52732 0.44359 0.04100
H 	H 	0.90326 0.62342 0.43633 0.05400
H 	H 	0.76326 0.60980 0.47136 0.05300
H 	H 	0.72156 0.51413 0.47929 0.03700
H 	H 	0.87459 0.68867 0.41751 0.04800
H 	H 	0.84654 0.70757 0.49709 0.04500
H 	H 	0.82522 0.77896 0.48253 0.04800
H 	H 	0.86948 0.87487 0.47324 0.04200
H 	H 	0.00017 0.87741 0.43014 0.04900
H 	H 	0.95765 0.78302 0.44158 0.04700
C 	C 	0.93374 0.03963 0.43154 -0.02000
C 	C 	0.95356 0.08300 0.41053 -0.01400
C 	C 	0.92684 0.10797 0.40652 -0.05600
C 	C 	0.88022 0.09017 0.42361 0.03500
C 	C 	0.85870 0.04504 0.44300 -0.05400
C 	C 	0.88557 0.02017 0.44720 -0.02000
C 	C 	0.85375 0.11858 0.42056 -0.04500
C 	C 	0.84016 0.13382 0.45215 -0.05400
C 	C 	0.81624 0.16452 0.44960 0.05000
C 	C 	0.76588 0.14412 0.46198 -0.07500
C 	C 	0.74649 0.17617 0.46486 0.02000
C 	C 	0.77792 0.22962 0.45618 -0.09300
C 	C 	0.82735 0.24920 0.44224 0.02200
C 	C 	0.84645 0.21680 0.43903 -0.07300
H 	H 	0.98993 0.09764 0.39753 0.04100
H 	H 	0.94300 0.14187 0.39073 0.04800
H 	H 	0.82142 0.02947 0.45500 0.04600
H 	H 	0.86953 0.98653 0.46323 0.04600
H 	H 	0.84901 0.13061 0.39296 0.04800
H 	H 	0.84529 0.12232 0.47990 0.04600
H 	H 	0.74222 0.10378 0.47009 0.05200
H 	H 	0.70769 0.15995 0.47481 0.03400
H 	H 	0.85196 0.29015 0.43521 0.04100
H 	H 	0.88563 0.23311 0.42966 0.05400
C 	C 	0.49605 0.26434 0.47788 -0.07800
C 	C 	0.46939 0.21840 0.49646 0.02600
C 	C 	0.41341 0.19083 0.49880 -0.06900
C 	C 	0.38335 0.20840 0.48220 0.05200
C 	C 	0.41020 0.25504 0.46441 -0.07100
C 	C 	0.46617 0.28273 0.46212 0.02300
C 	C 	0.32405 0.17857 0.48438 -0.05200
C 	C 	0.28592 0.16106 0.45199 -0.04500
C 	C 	0.22623 0.12951 0.45364 0.03700
C 	C 	0.19377 0.14180 0.43287 -0.05700
C 	C 	0.13658 0.10985 0.43191 -0.01200
C 	C 	0.11116 0.06495 0.45158 -0.02300
C 	C 	0.14382 0.05293 0.47263 -0.01300
C 	C 	0.20090 0.08463 0.47330 -0.05600
H 	H 	0.49182 0.20368 0.50871 0.05000
H 	H 	0.39319 0.15530 0.51303 0.05700
H 	H 	0.38778 0.26996 0.45253 0.05400
H 	H 	0.48636 0.31871 0.44837 0.04100
H 	H 	0.31120 0.16841 0.51226 0.05000
H 	H 	0.29898 0.17159 0.42421 0.04600
H 	H 	0.21280 0.17588 0.41719 0.04800
H 	H 	0.11195 0.11936 0.41523 0.04200
H 	H 	0.12496 0.01871 0.48817 0.04300
H 	H 	0.22522 0.07366 0.48847 0.04800
C 	C 	0.70432 0.49159 0.97555 -0.08400
C 	C 	0.68234 0.51737 0.99213 0.02500
C 	C 	0.70769 0.57331 0.99208 -0.07100
C 	C 	0.75542 0.60415 0.97579 0.05200
C 	C 	0.77642 0.57808 0.95808 -0.07000
C 	C 	0.75129 0.52223 0.95825 0.02400
C 	C 	0.78271 0.66356 0.97680 -0.05100
C 	C 	0.83770 0.70074 0.98913 -0.04600
C 	C 	0.86515 0.76005 0.98993 0.03900
C 	C 	0.91135 0.78990 0.97199 -0.05600
C 	C 	0.93981 0.84676 0.97459 -0.01200
C 	C 	0.92284 0.87455 0.99577 -0.02000
C 	C 	0.87623 0.84452 0.01352 -0.01400
C 	C 	0.84761 0.78755 0.01070 -0.05700
H 	H 	0.64556 0.49412 0.00494 0.03900
H 	H 	0.69062 0.59285 0.00516 0.05200
H 	H 	0.81224 0.60112 0.94427 0.05700
H 	H 	0.76861 0.50294 0.94523 0.04300
H 	H 	0.75731 0.67726 0.96929 0.04900
H 	H 	0.86307 0.68710 0.99692 0.04700
H 	H 	0.92529 0.76903 0.95607 0.05000
H 	H 	0.97523 0.86925 0.96032 0.04400
H 	H 	0.86296 0.86544 0.03025 0.04300
H 	H 	0.81256 0.76499 0.02531 0.04900
C 	C 	0.93166 0.04212 0.01251 -0.02200
C 	C 	0.89342 0.02564 0.03786 -0.01800
C 	C 	0.86268 0.04654 0.03933 -0.05500
C 	C 	0.86922 0.08346 0.01507 0.03500
C 	C 	0.90891 0.10154 0.99071 -0.05500
C 	C 	0.94000 0.08093 0.98944 -0.01300
C 	C 	0.83506 0.10378 0.01586 -0.04700
C 	C 	0.80567 0.10000 0.98256 -0.05100
C 	C 	0.76897 0.11748 0.98320 0.05100
C 	C 	0.78774 0.16816 0.00584 -0.07300
C 	C 	0.75496 0.18686 0.00326 0.02000
C 	C 	0.70350 0.15565 0.97743 -0.08800
C 	C 	0.68414 0.10430 0.95564 0.02100
C 	C 	0.71682 0.08548 0.95840 -0.07300
H 	H 	0.88712 0.99620 0.05613 0.04500
H 	H 	0.83294 0.03317 0.05875 0.04800
H 	H 	0.91538 0.13122 0.97262 0.04800
H 	H 	0.96950 0.09408 0.96986 0.04100
H 	H 	0.83049 0.11786 0.04404 0.04800
H 	H 	0.80634 0.08107 0.95473 0.04700
H 	H 	0.82842 0.19390 0.02445 0.05500
H 	H 	0.77063 0.22667 0.02012 0.04200
H 	H 	0.64430 0.07951 0.93595 0.03800
H 	H 	0.70197 0.04637 0.94078 0.05300
C 	C 	0.46448 0.19143 0.98026 -0.08700
C 	C 	0.43231 0.19048 0.94791 0.02100
C 	C 	0.37812 0.17251 0.94916 -0.07300
C 	C 	0.35542 0.15503 0.98267 0.05100
C 	C 	0.38667 0.15333 0.01432 -0.07300
C 	C 	0.44071 0.17082 0.01287 0.01900
C 	C 	0.30166 0.14458 0.98608 -0.05100
C 	C 	0.26298 0.10101 0.00053 -0.04700
C 	C 	0.20957 0.09104 0.00436 0.03600
C 	C 	0.18865 0.07654 0.03888 -0.05600
C 	C 	0.13468 0.05879 0.04076 -0.01100
C 	C 	0.10096 0.05495 0.00804 -0.02400
C 	C 	0.12290 0.07252 0.97429 -0.01100
C 	C 	0.17684 0.09010 0.97229 -0.05500
H 	H 	0.45013 0.20597 0.92247 0.03100
H 	H 	0.35438 0.17379 0.92455 0.05200
H 	H 	0.37011 0.14087 0.04069 0.05400
H 	H 	0.46523 0.17161 0.03810 0.04200
H 	H 	0.29298 0.17184 0.97546 0.04700
H 	H 	0.27148 0.07356 0.01100 0.04600
H 	H 	0.21357 0.07731 0.06381 0.04900
H 	H 	0.11809 0.04530 0.06697 0.04100
H 	H 	0.09708 0.06944 0.94880 0.04000
H 	H 	0.19220 0.10054 0.94527 0.04800
