data_crystal

_cell_length_a 26.25303
_cell_length_b 26.23727
_cell_length_c 26.63210
_cell_angle_alpha 95.49662
_cell_angle_beta  95.49661
_cell_angle_gamma 125.83958

_symmetry_space_group_name_	'P 1'
_symmetry_space_group_name_H-M	'P 1'

loop_
_symmetry_equiv_pos_as_xyz
  x,y,z

loop_
_atom_site_label
_atom_site_type_symbol
_atom_site_fract_x
_atom_site_fract_y
_atom_site_fract_z
_atom_site_charge
C 	C 	0.98600 0.04932 0.99333 0.13200
N 	N 	0.04917 0.07837 0.99379 -0.14500
C 	C 	0.07046 0.04248 0.98564 0.12300
N 	N 	0.02868 0.97770 0.97779 -0.14400
C 	C 	0.96560 0.94864 0.97731 0.13100
N 	N 	0.94430 0.98446 0.98525 -0.14300
C 	C 	0.93069 0.98992 0.44017 0.13500
N 	N 	0.98970 0.02314 0.42762 -0.14500
C 	C 	0.02323 0.99881 0.42891 0.12600
N 	N 	0.99742 0.94092 0.44238 -0.14100
C 	C 	0.93700 0.90577 0.45192 0.12700
N 	N 	0.90339 0.93021 0.45062 -0.14500
Cu	Cu	0.65721 0.26109 0.01414 0.92900
Cu	Cu	0.69325 0.25155 0.90104 0.87100
Cu	Cu	0.67717 0.34931 0.93910 0.90000
Cu	Cu	0.66608 0.38515 0.04636 0.89600
C 	C 	0.67724 0.31070 0.12082 0.33400
O 	O 	0.56636 0.22353 0.02198 -0.35400
C 	C 	0.65045 0.29935 0.82899 0.32400
O 	O 	0.70754 0.35882 0.01020 -0.64200
O 	O 	0.63718 0.25725 0.93986 -0.64000
O 	O 	0.69529 0.21431 0.01046 -0.36800
O 	O 	0.75866 0.27321 0.95583 -0.43700
O 	O 	0.67992 0.36127 0.11283 -0.37500
O 	O 	0.72308 0.44008 0.94078 -0.36800
C 	C 	0.72659 0.48023 0.97739 0.30500
C 	C 	0.53974 0.25135 0.01020 0.29800
O 	O 	0.57410 0.30861 0.99884 -0.38600
O 	O 	0.69083 0.45967 0.01296 -0.39300
O 	O 	0.68842 0.28045 0.08631 -0.35100
C 	C 	0.74586 0.23577 0.98945 0.30500
O 	O 	0.64901 0.33646 0.86520 -0.35900
O 	O 	0.64885 0.25013 0.83883 -0.40200
H 	H 	0.75473 0.38655 0.02055 0.17000
H 	H 	0.59125 0.22820 0.92374 0.18400
Cu	Cu	0.72270 0.32340 0.44161 0.93100
Cu	Cu	0.70608 0.26135 0.54513 0.87100
Cu	Cu	0.61902 0.28643 0.50528 0.89900
Cu	Cu	0.60705 0.32685 0.40609 0.89800
C 	C 	0.67986 0.31098 0.33441 0.33100
O 	O 	0.76385 0.41832 0.44540 -0.34700
C 	C 	0.65349 0.29869 0.61679 0.32800
O 	O 	0.62318 0.27339 0.43416 -0.64000
O 	O 	0.71261 0.32841 0.51429 -0.64000
O 	O 	0.76398 0.27917 0.44426 -0.36400
O 	O 	0.68834 0.20547 0.48434 -0.43800
O 	O 	0.65422 0.33978 0.34816 -0.37500
O 	O 	0.52714 0.23958 0.49257 -0.37100
C 	C 	0.49465 0.24217 0.45315 0.29800
C 	C 	0.73564 0.44317 0.46162 0.29500
O 	O 	0.67638 0.40522 0.46836 -0.38500
O 	O 	0.52330 0.29016 0.42807 -0.38600
O 	O 	0.71496 0.30483 0.36871 -0.35000
C 	C 	0.73328 0.22252 0.45729 0.30000
O 	O 	0.61787 0.29989 0.57887 -0.36200
O 	O 	0.70128 0.29671 0.60909 -0.40500
H 	H 	0.59521 0.22805 0.41642 0.17400
H 	H 	0.73962 0.37146 0.53643 0.19000
C 	C 	0.69406 0.36077 0.75888 0.09600
C 	C 	0.64341 0.30681 0.77521 -0.11100
C 	C 	0.58934 0.25685 0.73887 0.10400
C 	C 	0.59015 0.25636 0.68605 0.09800
C 	C 	0.64429 0.30684 0.66982 -0.11100
C 	C 	0.69385 0.36118 0.70608 0.10500
Br	Br	0.76101 0.43607 0.68320 -0.21100
Br	Br	0.76518 0.43251 0.80874 -0.21800
Br	Br	0.51847 0.18541 0.63607 -0.22200
Br	Br	0.51403 0.19009 0.76156 -0.21000
C 	C 	0.62526 0.25504 0.24413 0.10100
C 	C 	0.68239 0.30018 0.27971 -0.11200
C 	C 	0.73990 0.34117 0.26199 0.10300
C 	C 	0.73905 0.33998 0.20897 0.10400
C 	C 	0.68051 0.30027 0.17395 -0.10800
C 	C 	0.62401 0.25588 0.19129 0.09800
Br	Br	0.54461 0.19808 0.14286 -0.21200
Br	Br	0.54862 0.19280 0.26811 -0.24500
Br	Br	0.81782 0.39339 0.18416 -0.21000
Br	Br	0.81893 0.40202 0.31031 -0.19400
C 	C 	0.76584 0.51180 0.46267 -0.10200
C 	C 	0.73275 0.53179 0.43617 0.12800
C 	C 	0.76014 0.59718 0.44242 -0.09500
C 	C 	0.82271 0.64324 0.46947 0.00500
C 	C 	0.85670 0.62359 0.49487 0.06300
C 	C 	0.82753 0.55787 0.49160 -0.02000
N 	N 	0.67665 0.48898 0.40254 -0.19800
H 	H 	0.73442 0.61246 0.42290 0.05900
C 	C 	0.85438 0.71129 0.46584 -0.00800
N 	N 	0.91716 0.66733 0.52218 -0.19100
H 	H 	0.85292 0.54263 0.51172 0.04800
C 	C 	0.85483 0.75153 0.50487 -0.08400
C 	C 	0.88187 0.81555 0.50146 0.10100
C 	C 	0.90547 0.83834 0.45663 -0.04900
C 	C 	0.90363 0.79750 0.41718 -0.05200
C 	C 	0.87982 0.73474 0.42184 0.07400
H 	H 	0.83513 0.73332 0.53844 0.05700
N 	N 	0.88643 0.85497 0.54173 -0.19900
H 	H 	0.92220 0.81517 0.38310 0.04900
N 	N 	0.88209 0.69752 0.38422 -0.19400
H 	H 	0.86724 0.83713 0.57395 0.08700
H 	H 	0.91082 0.90388 0.54240 0.09500
H 	H 	0.89966 0.71481 0.35137 0.08900
H 	H 	0.86805 0.65186 0.38765 0.09700
H 	H 	0.94208 0.65236 0.54033 0.09100
H 	H 	0.93989 0.71644 0.52600 0.09300
H 	H 	0.66124 0.44255 0.38916 0.06800
H 	H 	0.65040 0.50350 0.38612 0.08500
C 	C 	0.75753 0.18400 0.45121 -0.12000
C 	C 	0.77755 0.17559 0.40552 0.13800
C 	C 	0.80539 0.14329 0.40355 -0.10100
C 	C 	0.80771 0.11396 0.44421 0.00600
C 	C 	0.78331 0.11832 0.48824 0.05500
C 	C 	0.76041 0.15497 0.49196 -0.01900
N 	N 	0.76749 0.19549 0.36287 -0.20400
H 	H 	0.82335 0.13913 0.36957 0.06200
C 	C 	0.83899 0.08181 0.44161 -0.00500
N 	N 	0.78129 0.08709 0.52687 -0.19100
H 	H 	0.74441 0.16063 0.52671 0.02200
C 	C 	0.90075 0.11336 0.47018 -0.08600
C 	C 	0.92900 0.08178 0.47401 0.10300
C 	C 	0.89755 0.01975 0.44439 -0.06000
C 	C 	0.83599 0.98832 0.41533 -0.04100
C 	C 	0.80586 0.01834 0.41425 0.06300
H 	H 	0.92552 0.16151 0.49177 0.05700
N 	N 	0.98478 0.11000 0.50778 -0.19400
H 	H 	0.81169 0.94061 0.39303 0.04800
N 	N 	0.74525 0.98593 0.38721 -0.19000
H 	H 	0.00948 0.15712 0.52731 0.08100
H 	H 	0.00194 0.08433 0.51745 0.08600
H 	H 	0.72140 0.93928 0.36696 0.08600
H 	H 	0.72096 0.00625 0.38631 0.08800
H 	H 	0.76496 0.09217 0.55991 0.08000
H 	H 	0.79383 0.05596 0.52389 0.08800
H 	H 	0.73744 0.20930 0.35990 0.11600
H 	H 	0.78603 0.19274 0.33054 0.09900
C 	C 	0.08924 0.03695 0.41911 -0.05300
C 	C 	0.11195 0.00742 0.39172 0.09900
C 	C 	0.17805 0.03971 0.39575 -0.08500
C 	C 	0.22126 0.10307 0.42236 -0.00800
C 	C 	0.19785 0.13588 0.44272 0.07200
C 	C 	0.13207 0.10183 0.44243 -0.05400
N 	N 	0.07062 0.94932 0.36018 -0.19700
H 	H 	0.19590 0.01566 0.37785 0.05500
C 	C 	0.29071 0.13360 0.43033 0.00300
N 	N 	0.23815 0.19965 0.46268 -0.19400
H 	H 	0.11447 0.12544 0.46156 0.04900
C 	C 	0.32135 0.14809 0.38794 -0.09700
C 	C 	0.38716 0.17752 0.39415 0.12700
C 	C 	0.42402 0.19920 0.44432 -0.10400
C 	C 	0.39305 0.18279 0.48658 -0.02400
C 	C 	0.32632 0.14785 0.47977 0.06500
H 	H 	0.29358 0.13482 0.34983 0.05800
N 	N 	0.41401 0.18212 0.35199 -0.20200
H 	H 	0.42088 0.19745 0.52490 0.06500
N 	N 	0.29680 0.12773 0.52057 -0.19200
H 	H 	0.38738 0.16949 0.31522 0.09400
H 	H 	0.45974 0.19369 0.35502 0.09100
H 	H 	0.32374 0.14066 0.55724 0.09600
H 	H 	0.24703 0.09698 0.51604 0.09200
H 	H 	0.22078 0.22291 0.47946 0.08600
H 	H 	0.28645 0.22721 0.45994 0.09200
H 	H 	0.02199 0.92867 0.35036 0.09100
H 	H 	0.08758 0.92621 0.34237 0.08600
C 	C 	0.92122 0.87863 0.97167 -0.04800
C 	C 	0.91020 0.83800 0.92633 0.10400
C 	C 	0.87651 0.77211 0.92548 -0.08500
C 	C 	0.85200 0.74606 0.96841 -0.00300
C 	C 	0.86010 0.78628 0.01282 0.06900
C 	C 	0.89450 0.85227 0.01385 -0.05500
N 	N 	0.93077 0.86172 0.88334 -0.19900
H 	H 	0.86912 0.74094 0.89122 0.06100
C 	C 	0.81952 0.67692 0.96690 0.00500
N 	N 	0.83560 0.76201 0.05464 -0.19400
H 	H 	0.90227 0.88349 0.04825 0.04900
C 	C 	0.85636 0.65611 0.98114 -0.09400
C 	C 	0.82702 0.59156 0.98366 0.13000
C 	C 	0.75948 0.54723 0.97165 -0.10400
C 	C 	0.72277 0.56769 0.95583 -0.01600
C 	C 	0.75214 0.63213 0.95293 0.06200
H 	H 	0.90803 0.69051 0.99115 0.06200
N 	N 	0.86384 0.57274 0.99825 -0.19900
H 	H 	0.67108 0.53337 0.94602 0.04800
N 	N 	0.71547 0.65067 0.93707 -0.19100
H 	H 	0.91366 0.60596 0.00724 0.08800
H 	H 	0.84365 0.52520 0.00073 0.08400
H 	H 	0.66569 0.61737 0.92756 0.08800
H 	H 	0.73583 0.69793 0.93341 0.09100
H 	H 	0.84209 0.79218 0.08727 0.08500
H 	H 	0.80977 0.71321 0.05525 0.08900
H 	H 	0.95118 0.90943 0.88131 0.09400
H 	H 	0.92427 0.83172 0.85058 0.09000
C 	C 	0.78358 0.21157 0.99867 -0.11300
C 	C 	0.84894 0.25325 0.02251 0.13100
C 	C 	0.88557 0.23016 0.02435 -0.09900
C 	C 	0.85778 0.16620 0.00354 0.00200
C 	C 	0.79163 0.12376 0.98202 0.06200
C 	C 	0.75518 0.14698 0.97996 -0.02300
N 	N 	0.87644 0.31493 0.04444 -0.20300
H 	H 	0.93594 0.26215 0.04174 0.06100
C 	C 	0.89864 0.14444 0.00370 -0.01000
N 	N 	0.76304 0.06100 0.96287 -0.19200
H 	H 	0.70484 0.11500 0.96242 0.03500
C 	C 	0.90495 0.11831 0.04524 -0.08500
C 	C 	0.93698 0.09032 0.04403 0.10200
C 	C 	0.96237 0.08790 0.00007 -0.05600
C 	C 	0.95965 0.11767 0.96000 -0.04900
C 	C 	0.92799 0.14604 0.96133 0.07300
H 	H 	0.88378 0.11863 0.07819 0.05700
N 	N 	0.94372 0.06649 0.08525 -0.20000
H 	H 	0.98044 0.11695 0.92690 0.04700
N 	N 	0.92528 0.17393 0.92165 -0.19400
H 	H 	0.92317 0.06675 0.11692 0.08700
H 	H 	0.97102 0.04942 0.08704 0.09200
H 	H 	0.94616 0.17389 0.89016 0.08400
H 	H 	0.90332 0.19664 0.92188 0.08800
H 	H 	0.71430 0.03025 0.94670 0.08400
H 	H 	0.78852 0.04195 0.96405 0.09000
H 	H 	0.84954 0.33229 0.04694 0.10100
H 	H 	0.92512 0.34581 0.06080 0.09300
C 	C 	0.13937 0.07363 0.98963 -0.04600
C 	C 	0.17423 0.11239 0.95442 0.10000
C 	C 	0.23984 0.14084 0.95962 -0.08600
C 	C 	0.27032 0.12881 0.99762 -0.00100
C 	C 	0.23520 0.08908 0.03218 0.06900
C 	C 	0.17019 0.06251 0.02815 -0.05600
N 	N 	0.14485 0.12108 0.91487 -0.19900
H 	H 	0.26697 0.17128 0.93323 0.05800
C 	C 	0.33929 0.15884 0.00127 -0.00200
N 	N 	0.26337 0.07584 0.06892 -0.19400
H 	H 	0.14327 0.03253 0.05486 0.04900
C 	C 	0.38387 0.21630 0.03617 -0.09400
C 	C 	0.44956 0.24530 0.04186 0.13200
C 	C 	0.47109 0.21822 0.00968 -0.10600
C 	C 	0.42654 0.16040 0.97515 -0.01500
C 	C 	0.36063 0.13003 0.97084 0.06600
H 	H 	0.36723 0.23762 0.05996 0.05900
N 	N 	0.49141 0.29781 0.07927 -0.20000
H 	H 	0.44320 0.13934 0.95107 0.04400
N 	N 	0.31828 0.07337 0.93763 -0.19200
H 	H 	0.47530 0.31875 0.10161 0.08800
H 	H 	0.53959 0.31655 0.08816 0.08400
H 	H 	0.33457 0.05279 0.91509 0.09000
H 	H 	0.26896 0.04888 0.93414 0.09200
H 	H 	0.23712 0.04691 0.09453 0.08700
H 	H 	0.31115 0.09333 0.07216 0.09700
H 	H 	0.09537 0.09662 0.90729 0.09000
H 	H 	0.17141 0.15119 0.89000 0.08600
