data_crystal

_cell_length_a 10.41571
_cell_length_b 16.96502
_cell_length_c 56.32404
_cell_angle_alpha 90.61344
_cell_angle_beta  90.60821
_cell_angle_gamma 119.33111

_symmetry_space_group_name_	'P 1'
_symmetry_space_group_name_H-M	'P 1'

loop_
_symmetry_equiv_pos_as_xyz
  x,y,z

loop_
_atom_site_label
_atom_site_type_symbol
_atom_site_fract_x
_atom_site_fract_y
_atom_site_fract_z
_atom_site_charge
C 	C 	0.25266 0.31835 0.25941 0.30200
C 	C 	0.93905 0.26321 0.63619 -0.01400
C 	C 	0.84498 0.16917 0.63408 -0.07700
H 	H 	0.18205 0.06330 0.34764 0.06700
H 	H 	0.06897 0.38744 0.61766 0.04500
C 	C 	0.00139 0.31468 0.61591 -0.03100
C 	C 	0.81929 0.12717 0.61149 0.00300
C 	C 	0.28763 0.27775 0.21822 0.16600
O 	O 	0.29423 0.39471 0.27165 -0.37800
C 	C 	0.12400 0.51453 0.49346 0.04600
C 	C 	0.10151 0.46318 0.51489 -0.02700
C 	C 	0.13532 0.85760 0.12676 0.06900
C 	C 	0.07924 0.42069 0.53296 0.00600
C 	C 	0.01316 0.32691 0.57217 -0.00400
C 	C 	0.97050 0.27276 0.59336 0.00600
C 	C 	0.17881 0.63157 0.45517 -0.08900
C 	C 	0.04728 0.37052 0.55418 -0.01100
C 	C 	0.88126 0.17876 0.59129 -0.05600
H 	H 	0.37095 0.87868 0.26883 0.16000
H 	H 	0.25960 0.47145 0.37369 0.15400
C 	C 	0.21570 0.01228 0.38056 0.15100
Ni	Ni	0.31595 0.21370 0.29603 1.12100
C 	C 	0.25838 0.93968 0.17052 -0.11900
C 	C 	0.25859 0.07443 0.36215 -0.04800
C 	C 	0.22103 0.71087 0.44010 0.28700
H 	H 	0.85660 0.14576 0.57397 0.04200
O 	O 	0.40471 0.26745 0.22537 -0.28400
C 	C 	0.12703 0.81513 0.10416 -0.02600
O 	O 	0.21720 0.78199 0.44915 -0.37800
C 	C 	0.21378 0.95218 0.12881 -0.08700
O 	O 	0.27297 0.71322 0.41844 -0.37700
Ni	Ni	0.35290 0.40906 0.30630 1.12100
O 	O 	0.24879 0.86913 0.40686 -0.37600
O 	O 	0.37095 0.91583 0.20530 -0.37800
C 	C 	0.27377 0.99348 0.15082 0.09000
H 	H 	0.42788 0.04370 0.29036 0.06700
O 	O 	0.45683 0.90227 0.27995 -0.28600
O 	O 	0.31879 0.45455 0.38424 -0.26400
H 	H 	0.41264 0.54661 0.20856 0.15800
C 	C 	0.25936 0.55175 0.48188 -0.06800
C 	C 	0.13163 0.78504 0.08493 0.01000
C 	C 	0.28662 0.60993 0.46277 0.02200
H 	H 	0.23926 0.99314 0.11310 0.06700
C 	C 	0.38102 0.97052 0.18809 0.34100
C 	C 	0.28585 0.95010 0.41526 0.34300
H 	H 	0.34606 0.64600 0.14782 0.04300
O 	O 	0.40987 0.16879 0.32005 -0.39300
H 	H 	0.34581 0.06600 0.15190 -0.00500
C 	C 	0.31791 0.02285 0.39853 -0.13200
O 	O 	0.40209 0.42534 0.34170 -0.36600
H 	H 	0.49318 0.32174 0.21963 0.14900
O 	O 	0.38011 0.78736 0.16966 -0.37500
O 	O 	0.46430 0.21438 0.27312 -0.37400
H 	H 	0.29685 0.55268 0.11149 0.05400
O 	O 	0.44712 0.33787 0.30163 -0.71100
C 	C 	0.40074 0.14999 0.36229 -0.10300
H 	H 	0.39028 0.59728 0.41117 0.06300
H 	H 	0.95962 0.29700 0.65336 0.04400
C 	C 	0.15053 0.75820 0.06209 0.00200
O 	O 	0.33069 0.97140 0.43752 -0.38200
Ni	Ni	0.47337 0.83673 0.20292 1.10900
H 	H 	0.47766 0.35275 0.28508 0.14800
H 	H 	0.34525 0.53820 0.48815 0.05400
C 	C 	0.52508 0.05914 0.28024 -0.11800
C 	C 	0.37475 0.67833 0.13073 0.02100
Ni	Ni	0.40287 0.83224 0.40214 1.12200
H 	H 	0.39459 0.64250 0.45488 0.02800
C 	C 	0.45307 0.20678 0.34117 0.32300
C 	C 	0.55024 0.98886 0.27287 0.25100
O 	O 	0.51389 0.55968 0.20475 -0.28500
C 	C 	0.16609 0.51939 0.03007 -0.00400
O 	O 	0.54545 0.86308 0.23807 -0.37600
C 	C 	0.34954 0.62560 0.11022 -0.07100
H 	H 	0.07187 0.90652 0.61467 0.01500
C 	C 	0.44727 0.82749 0.15018 0.29400
C 	C 	0.09300 0.97535 0.61288 0.14000
C 	C 	0.45538 0.52975 0.38542 0.17000
Ni	Ni	0.40308 0.90028 0.45627 1.12600
H 	H 	0.12054 0.15321 0.64539 0.02800
H 	H 	0.53846 0.46908 0.24043 0.05900
H 	H 	0.12378 0.97567 0.57519 0.10200
C 	C 	0.12269 0.01465 0.59048 -0.18400
C 	C 	0.12120 0.11405 0.63013 0.06500
H 	H 	0.25139 0.35903 0.02453 0.05200
C 	C 	0.10907 0.02854 0.63316 -0.15500
O 	O 	0.52993 0.73543 0.20408 -0.37400
O 	O 	0.51199 0.03748 0.18254 -0.41100
C 	C 	0.17767 0.74403 0.04229 -0.02100
O 	O 	0.48894 0.91319 0.14748 -0.37900
C 	C 	0.25162 0.56929 0.04969 0.00500
C 	C 	0.43258 0.77220 0.12902 -0.08900
C 	C 	0.16009 0.15532 0.60800 -0.09900
C 	C 	0.16872 0.10697 0.58836 0.09800
C 	C 	0.48105 0.60067 0.40117 -0.06300
C 	C 	0.45888 0.09862 0.39866 -0.05000
H 	H 	0.19520 0.22664 0.60664 0.06800
C 	C 	0.31077 0.61302 0.06726 -0.03000
O 	O 	0.54722 0.52292 0.29961 -0.36600
C 	C 	0.38210 0.66634 0.08798 0.04900
C 	C 	0.49615 0.16544 0.38180 0.17100
C 	C 	0.15452 0.00667 0.65608 0.29200
C 	C 	0.58988 0.22106 0.28082 0.30100
C 	C 	0.53817 0.47416 0.35002 0.32000
H 	H 	0.49920 0.82489 0.43710 0.13300
O 	O 	0.47881 0.83937 0.47891 -0.37300
O 	O 	0.17081 0.05629 0.67494 -0.36700
O 	O 	0.56113 0.29048 0.34335 -0.36500
O 	O 	0.52007 0.94762 0.38318 -0.36700
C 	C 	0.59591 0.59756 0.22510 0.17700
O 	O 	0.50945 0.88191 0.43123 -0.70300
C 	C 	0.25776 0.15510 0.56854 -0.05100
H 	H 	0.74914 0.05472 0.60949 0.03400
C 	C 	0.15029 0.84771 0.16942 0.04800
C 	C 	0.09361 0.80588 0.14733 -0.07100
C 	C 	0.67271 0.93359 0.24424 0.34000
C 	C 	0.66081 0.75219 0.21129 0.32600
C 	C 	0.83647 0.93438 0.14787 0.28500
C 	C 	0.95285 0.13924 0.18859 0.29900
Ni	Ni	0.66000 0.01165 0.16593 1.09900
Ni	Ni	0.84029 0.94429 0.20021 1.12200
O 	O 	0.79782 0.94205 0.23585 -0.37200
O 	O 	0.79315 0.99378 0.14371 -0.37600
O 	O 	0.95213 0.07919 0.20342 -0.40700
O 	O 	0.77697 0.81126 0.20024 -0.38900
O 	O 	0.82864 0.12898 0.17888 -0.38900
O 	O 	0.91466 0.94271 0.16725 -0.37100
O 	O 	0.65442 0.93629 0.19189 -0.69500
H 	H 	0.66037 0.98137 0.20365 0.13900
C 	C 	0.64639 0.52389 0.28487 0.30700
Ni	Ni	0.63722 0.37827 0.31512 1.11500
O 	O 	0.68185 0.28835 0.29529 -0.35300
O 	O 	0.64947 0.47978 0.33784 -0.36400
O 	O 	0.71710 0.47859 0.28963 -0.36300
C 	C 	0.68283 0.57970 0.26378 -0.10300
C 	C 	0.60253 0.54180 0.24265 -0.06100
C 	C 	0.67600 0.69209 0.22826 -0.10900
C 	C 	0.76928 0.72971 0.24821 -0.05600
C 	C 	0.77212 0.67386 0.26603 0.17300
H 	H 	0.83532 0.80243 0.25034 0.06900
O 	O 	0.85455 0.71165 0.28635 -0.27100
H 	H 	0.95172 0.71656 0.28322 0.15100
C 	C 	0.07614 0.23169 0.19215 -0.09500
C 	C 	0.21528 0.23989 0.19650 -0.05600
C 	C 	0.22925 0.31768 0.23358 -0.09700
C 	C 	0.12305 0.33806 0.22455 -0.05800
C 	C 	0.04690 0.29560 0.20339 0.17700
H 	H 	0.25104 0.20110 0.18575 0.05900
H 	H 	0.09205 0.38055 0.23469 0.07300
O 	O 	0.93911 0.31216 0.19465 -0.28800
H 	H 	0.84796 0.27004 0.20297 0.15500
C 	C 	0.62407 0.14873 0.27451 -0.07500
C 	C 	0.67270 0.00745 0.25870 -0.17900
C 	C 	0.77881 0.09815 0.25484 -0.03700
C 	C 	0.75526 0.16867 0.26293 0.15100
H 	H 	0.87745 0.11408 0.24513 0.06500
O 	O 	0.86109 0.25674 0.25974 -0.27100
H 	H 	0.82926 0.27575 0.24527 0.14500
C 	C 	0.95343 0.19181 0.33517 -0.11000
C 	C 	0.83648 0.11043 0.32609 -0.04700
C 	C 	0.72843 0.04925 0.34133 0.15300
H 	H 	0.83534 0.09158 0.30763 0.06200
O 	O 	0.62000 0.96769 0.33250 -0.25100
H 	H 	0.53541 0.97736 0.32887 0.16700
O 	O 	0.62164 0.24732 0.38510 -0.27700
H 	H 	0.69851 0.24313 0.37589 0.15100
C 	C 	0.45360 0.76052 0.08653 -0.07000
C 	C 	0.47786 0.81332 0.10689 0.02400
H 	H 	0.48362 0.79267 0.06946 0.05200
H 	H 	0.52924 0.88606 0.10537 0.04100
C 	C 	0.36888 0.76449 0.01439 -0.06300
H 	H 	0.44411 0.76835 0.02832 0.05100
H 	H 	0.02650 0.73296 0.14606 0.06200
H 	H 	0.12499 0.80654 0.18508 0.03000
C 	C 	0.51992 0.50445 0.02013 -0.03000
C 	C 	0.58187 0.56216 0.03552 -0.00100
C 	C 	0.64965 0.62805 0.05418 -0.00200
C 	C 	0.70261 0.68300 0.07042 -0.02700
C 	C 	0.75981 0.74788 0.09017 0.04200
C 	C 	0.82498 0.84091 0.08593 -0.06900
C 	C 	0.85817 0.90265 0.10492 0.01600
C 	C 	0.82686 0.87194 0.12837 -0.07900
C 	C 	0.76747 0.77916 0.13265 0.00900
C 	C 	0.73468 0.71751 0.11365 -0.06400
H 	H 	0.84526 0.86524 0.06791 0.05200
H 	H 	0.90460 0.97397 0.10132 0.04100
H 	H 	0.74151 0.75431 0.15057 0.04200
H 	H 	0.68423 0.64589 0.11716 0.05200
C 	C 	0.09292 0.23635 0.32218 0.33800
O 	O 	0.13981 0.31779 0.31347 -0.37400
O 	O 	0.20246 0.23936 0.27031 -0.37100
O 	O 	0.17448 0.19732 0.32172 -0.39700
C 	C 	0.21873 0.72950 0.01905 0.04400
H 	H 	0.80410 0.61415 0.36456 0.07600
C 	C 	0.95158 0.21594 0.35903 0.16300
C 	C 	0.74012 0.06821 0.36590 -0.12400
H 	H 	0.01400 0.33854 0.36599 0.14700
C 	C 	0.56937 0.53696 0.37070 -0.09500
C 	C 	0.71274 0.61004 0.37453 -0.05400
O 	O 	0.05735 0.29825 0.36776 -0.26500
C 	C 	0.84870 0.15311 0.37446 -0.05900
C 	C 	0.66559 0.99454 0.38288 0.34400
H 	H 	0.54243 0.10290 0.41094 0.05400
C 	C 	0.73694 0.68116 0.39015 0.17200
O 	O 	0.74615 0.97039 0.39564 -0.36900
H 	H 	0.85633 0.16937 0.39327 0.06000
O 	O 	0.87513 0.75463 0.39253 -0.26400
O 	O 	0.54778 0.79140 0.39179 -0.36500
O 	O 	0.07619 0.93944 0.38040 -0.24300
C 	C 	0.61736 0.68044 0.40164 -0.09900
H 	H 	0.92149 0.74107 0.40620 0.15900
C 	C 	0.61957 0.76626 0.40670 0.30300
H 	H 	0.01633 0.95981 0.38948 0.16400
O 	O 	0.71286 0.82387 0.42300 -0.36300
Ni	Ni	0.71653 0.94565 0.43167 1.11600
O 	O 	0.73086 0.07175 0.43810 -0.38700
C 	C 	0.65823 0.08486 0.45538 0.29900
H 	H 	0.55511 0.19745 0.43938 0.03900
O 	O 	0.57222 0.01779 0.46903 -0.39300
O 	O 	0.72153 0.92731 0.46816 -0.36200
C 	C 	0.69919 0.17723 0.46337 -0.08600
C 	C 	0.60741 0.21261 0.45666 0.01700
H 	H 	0.86175 0.18949 0.48943 0.03100
H 	H 	0.84666 0.82727 0.46973 0.03500
C 	C 	0.61741 0.85575 0.47886 0.28900
C 	C 	0.78095 0.20955 0.48466 0.02300
H 	H 	0.95682 0.60679 0.46042 0.02700
C 	C 	0.04072 0.59043 0.46603 0.03100
C 	C 	0.56369 0.25476 0.47372 -0.06600
H 	H 	0.47659 0.26996 0.46940 0.05500
C 	C 	0.77943 0.78744 0.48422 0.02000
C 	C 	0.65698 0.79513 0.49139 -0.08900
C 	C 	0.73706 0.25156 0.50180 -0.06900
H 	H 	0.90857 0.72170 0.48995 0.05200
C 	C 	0.61451 0.26293 0.49718 0.04100
C 	C 	0.01331 0.53192 0.48503 -0.06100
C 	C 	0.81399 0.72726 0.49554 -0.07200
H 	H 	0.78441 0.26329 0.51956 0.04800
H 	H 	0.90761 0.50244 0.49364 0.04800
C 	C 	0.56927 0.74166 0.50984 0.02200
H 	H 	0.47418 0.74651 0.51545 0.04000
C 	C 	0.51340 0.24758 0.51608 -0.02500
C 	C 	0.72644 0.67450 0.51399 0.04700
C 	C 	0.60386 0.68151 0.52105 -0.07300
C 	C 	0.42755 0.22513 0.53213 -0.00800
C 	C 	0.76235 0.61408 0.52612 -0.03100
H 	H 	0.53531 0.64024 0.53526 0.05400
C 	C 	0.78090 0.56136 0.53763 -0.00000
C 	C 	0.33182 0.19018 0.55147 0.01200
C 	C 	0.78660 0.49806 0.55271 -0.00000
H 	H 	0.68203 0.26572 0.55965 0.05100
C 	C 	0.77643 0.44297 0.56681 -0.02900
C 	C 	0.67644 0.28539 0.57777 -0.07100
C 	C 	0.74665 0.37682 0.58452 0.04600
H 	H 	0.53457 0.14899 0.58847 0.03500
C 	C 	0.59351 0.21935 0.59413 0.02300
C 	C 	0.74934 0.40118 0.60842 -0.07100
H 	H 	0.80686 0.47178 0.61392 0.05200
C 	C 	0.58215 0.24468 0.61746 -0.08800
C 	C 	0.66667 0.33532 0.62486 0.01800
O 	O 	0.44674 0.09103 0.63043 -0.39000
C 	C 	0.48336 0.17704 0.63410 0.28200
H 	H 	0.66512 0.35501 0.64317 0.03600
O 	O 	0.41267 0.20061 0.64975 -0.37200
O 	O 	0.21436 0.95460 0.65611 -0.34100
Ni	Ni	0.43608 0.00620 0.65652 1.10500
O 	O 	0.64618 0.03429 0.65115 -0.38900
C 	C 	0.76008 0.11617 0.65479 0.27800
H 	H 	0.56763 0.15179 0.67166 0.12300
O 	O 	0.39500 0.90416 0.67853 -0.36800
O 	O 	0.49260 0.10086 0.68043 -0.70300
Ni	Ni	0.37823 0.15887 0.68507 1.10900
H 	H 	0.60232 0.77299 0.68124 0.15100
O 	O 	0.79453 0.15201 0.67663 -0.37500
O 	O 	0.55809 0.27867 0.69640 -0.38600
C 	C 	0.48319 0.91246 0.69634 0.32100
O 	O 	0.65000 0.82034 0.69383 -0.26500
O 	O 	0.61354 0.98442 0.69850 -0.35500
Ni	Ni	0.64206 0.10983 0.70266 1.11100
H 	H 	0.10375 0.87753 0.70720 0.15300
C 	C 	0.44984 0.83349 0.71081 -0.10200
C 	C 	0.54610 0.79754 0.71105 0.17300
C 	C 	0.63747 0.28026 0.71478 0.31700
O 	O 	0.71911 0.24083 0.71347 -0.37500
O 	O 	0.07666 0.92068 0.71450 -0.24200
H 	H 	0.81796 0.48383 0.70364 0.15100
O 	O 	0.86452 0.46554 0.71629 -0.28500
O 	O 	0.33997 0.11993 0.72025 -0.35900
H 	H 	0.25943 0.82872 0.72689 0.06100
C 	C 	0.33843 0.80497 0.72765 -0.05300
C 	C 	0.36424 0.05668 0.72919 0.23200
O 	O 	0.49968 0.06811 0.73022 -0.37600
C 	C 	0.54397 0.74431 0.72998 -0.05400
C 	C 	0.65826 0.34150 0.73495 -0.10400
H 	H 	0.62553 0.72227 0.73100 0.06600
C 	C 	0.11642 0.92700 0.73804 0.11100
C 	C 	0.76430 0.43385 0.73421 0.17000
H 	H 	0.47960 0.23853 0.75474 0.06900
H 	H 	0.90692 0.81633 0.74811 0.04700
C 	C 	0.55964 0.30968 0.75378 -0.06600
C 	C 	0.25670 0.99434 0.74602 0.03100
C 	C 	0.33753 0.75280 0.74681 0.17000
C 	C 	0.44792 0.72810 0.74889 -0.10300
C 	C 	0.01470 0.86821 0.75434 0.00600
C 	C 	0.76810 0.49380 0.75197 -0.05700
H 	H 	0.84904 0.56498 0.75123 0.05800
H 	H 	0.15222 0.67583 0.76019 0.15900
C 	C 	0.55886 0.37000 0.77083 0.17400
O 	O 	0.23905 0.73463 0.76471 -0.26600
H 	H 	0.36918 0.34214 0.78125 0.14900
C 	C 	0.66356 0.46245 0.77002 -0.10800
C 	C 	0.29153 0.00485 0.77034 -0.19400
C 	C 	0.48857 0.70949 0.77233 0.32500
C 	C 	0.04981 0.87868 0.77869 -0.12700
O 	O 	0.45432 0.33863 0.78810 -0.28800
H 	H 	0.39778 0.05835 0.77665 0.09400
O 	O 	0.54728 0.54610 0.78331 -0.37800
O 	O 	0.62077 0.76460 0.78103 -0.38100
O 	O 	0.38936 0.64396 0.78523 -0.35600
C 	C 	0.65403 0.52700 0.78656 0.32400
C 	C 	0.18833 0.94812 0.78669 0.26600
C 	C 	0.93707 0.82252 0.79578 0.33200
O 	O 	0.89737 0.73649 0.79758 -0.38800
O 	O 	0.73074 0.54862 0.80662 -0.38200
Ni	Ni	0.44496 0.57616 0.81065 1.11300
O 	O 	0.87758 0.85909 0.80923 -0.37600
H 	H 	0.06578 0.70103 0.82157 0.12200
O 	O 	0.22086 0.96307 0.81050 -0.28100
C 	C 	0.30249 0.35990 0.00781 -0.07100
O 	O 	0.16013 0.75878 0.82149 -0.26000
H 	H 	0.28553 0.93671 0.81382 0.17300
Ni	Ni	0.66061 0.79555 0.81602 1.12500
O 	O 	0.62000 0.67478 0.82207 -0.71300
O 	O 	0.44636 0.75995 0.82094 -0.36300
Ni	Ni	0.79156 0.66413 0.82616 1.12000
H 	H 	0.54299 0.34475 0.83159 0.08500
O 	O 	0.46441 0.48333 0.83343 -0.36100
O 	O 	0.33231 0.61443 0.83484 -0.36300
C 	C 	0.36238 0.70013 0.83666 0.30300
H 	H 	0.58893 0.66953 0.83866 0.15300
C 	C 	0.20996 0.77245 0.84457 0.16100
H 	H 	0.65259 0.22143 0.84655 0.14500
O 	O 	0.55126 0.20698 0.85076 -0.27800
H 	H 	0.16086 0.88035 0.85118 0.09500
C 	C 	0.57061 0.50006 0.84964 0.30700
C 	C 	0.55672 0.34979 0.85071 -0.06600
O 	O 	0.87724 0.77044 0.84962 -0.37500
C 	C 	0.28155 0.72647 0.85334 -0.10000
O 	O 	0.68570 0.58122 0.85299 -0.36700
O 	O 	0.71384 0.82536 0.85062 -0.37500
C 	C 	0.20179 0.83839 0.85873 -0.06000
C 	C 	0.56637 0.42470 0.86304 -0.09200
C 	C 	0.56743 0.28183 0.86296 0.17600
C 	C 	0.79277 0.79457 0.86183 0.30100
C 	C 	0.07840 0.47580 0.01476 -0.01500
C 	C 	0.31420 0.73199 0.87766 -0.05900
C 	C 	0.25281 0.85274 0.88231 -0.09100
C 	C 	0.59792 0.43429 0.88767 0.16300
C 	C 	0.58218 0.28671 0.88791 -0.11400
H 	H 	0.36308 0.69368 0.88494 0.06200
H 	H 	0.97840 0.70958 0.88470 0.14500
C 	C 	0.78969 0.78994 0.88811 -0.09600
C 	C 	0.28882 0.93853 0.89470 0.29300
O 	O 	0.38398 0.13861 0.89454 -0.38700
C 	C 	0.29698 0.79359 0.89228 0.15900
C 	C 	0.44012 0.43312 0.00241 0.04300
O 	O 	0.88124 0.68479 0.89216 -0.27300
O 	O 	0.18332 0.96060 0.89847 -0.34000
O 	O 	0.42960 0.99760 0.89896 -0.32900
H 	H 	0.63855 0.84224 0.89251 0.07800
O 	O 	0.61344 0.50876 0.89998 -0.26700
C 	C 	0.61293 0.36723 0.89971 -0.05300
C 	C 	0.51476 0.20214 0.90119 0.32500
C 	C 	0.87192 0.75780 0.90067 0.17500
H 	H 	0.51329 0.49185 0.90553 0.14700
C 	C 	0.71676 0.82675 0.90115 -0.05800
O 	O 	0.32793 0.79785 0.91607 -0.28300
O 	O 	0.58938 0.18683 0.91782 -0.38200
H 	H 	0.63914 0.37538 0.91851 0.06000
Ni	Ni	0.22021 0.07407 0.91762 1.11300
H 	H 	0.23353 0.75446 0.92337 0.14600
C 	C 	0.92093 0.79017 0.92389 -0.07200
C 	C 	0.75329 0.84930 0.92517 0.17700
Ni	Ni	0.51086 0.05804 0.93227 1.10100
H 	H 	0.00465 0.77909 0.93210 0.06500
O 	O 	0.02892 0.00819 0.93502 -0.40700
O 	O 	0.27460 0.19350 0.93467 -0.37900
C 	C 	0.87727 0.84792 0.93478 -0.11100
O 	O 	0.32443 0.04192 0.94012 -0.74800
H 	H 	0.26908 0.97604 0.93773 0.17500
O 	O 	0.68696 0.88858 0.93776 -0.27400
O 	O 	0.45509 0.93473 0.94815 -0.32900
C 	C 	0.99132 0.93190 0.94601 0.32400
H 	H 	0.48483 0.36016 0.94808 0.03600
H 	H 	0.60485 0.83786 0.94600 0.16100
H 	H 	0.86935 0.24819 0.95952 0.03000
C 	C 	0.24444 0.19614 0.95741 0.29800
H 	H 	0.10343 0.75749 0.96511 0.03200
H 	H 	0.80275 0.44576 0.01784 0.04900
O 	O 	0.61114 0.11580 0.96439 -0.38600
O 	O 	0.07033 0.93044 0.96453 -0.36400
C 	C 	0.43230 0.36011 0.96447 0.01800
C 	C 	0.85414 0.29055 0.97244 0.02900
C 	C 	0.37568 0.90791 0.96768 0.28100
H 	H 	0.08601 0.38431 0.97582 0.06600
O 	O 	0.17762 0.12066 0.96928 -0.38800
C 	C 	0.29902 0.28389 0.97057 -0.08500
C 	C 	0.58733 0.17669 0.97474 0.30700
C 	C 	0.97682 0.36802 0.98147 -0.08900
Ni	Ni	0.26828 0.04063 0.97244 1.10600
C 	C 	0.17834 0.75799 0.97855 0.01200
C 	C 	0.71313 0.26560 0.98102 -0.09700
C 	C 	0.33006 0.81789 0.97688 -0.07600
H 	H 	0.60834 0.49112 0.97583 0.05300
O 	O 	0.45544 0.15480 0.98257 -0.38700
O 	O 	0.36546 0.96691 0.98197 -0.35000
C 	C 	0.50275 0.43443 0.98034 -0.07100
C 	C 	0.69472 0.32469 0.99643 0.02200
C 	C 	0.95890 0.42073 0.99896 0.03900
C 	C 	0.23188 0.28611 0.99196 0.01500
H 	H 	0.58660 0.30778 0.00276 0.03800
H 	H 	0.12712 0.22920 0.99669 0.03700
H 	H 	0.54316 0.84806 0.99094 0.04200
C 	C 	0.42502 0.80880 0.99304 0.01900
C 	C 	0.81724 0.40302 0.00493 -0.07300
H 	H 	0.00413 0.67983 0.00264 0.05500
C 	C 	0.12198 0.71414 0.99993 -0.06200
