data_crystal

_cell_length_a 21.13240
_cell_length_b 18.57779
_cell_length_c 46.44204
_cell_angle_alpha 90.69877
_cell_angle_beta  91.45065
_cell_angle_gamma 111.00055

_symmetry_space_group_name_	'P 1'
_symmetry_space_group_name_H-M	'P 1'

loop_
_symmetry_equiv_pos_as_xyz
  x,y,z

loop_
_atom_site_label
_atom_site_type_symbol
_atom_site_fract_x
_atom_site_fract_y
_atom_site_fract_z
_atom_site_charge
O 	O 	0.02128 0.85848 0.70796 -0.70600
Ni	Ni	0.07115 0.91677 0.67459 1.10000
O 	O 	0.08164 0.97041 0.75529 -0.36100
O 	O 	0.07756 0.11021 0.74579 -0.42100
O 	O 	0.09408 0.82770 0.65743 -0.37600
O 	O 	0.03873 0.99879 0.69298 -0.67500
O 	O 	0.13694 0.98949 0.64668 -0.35000
O 	O 	0.15954 0.10883 0.66692 -0.40500
Ni	Ni	0.11165 0.09346 0.70620 1.06300
H 	H 	0.04979 0.83774 0.72003 0.15700
H 	H 	0.00504 0.01230 0.68132 0.14000
O 	O 	0.16194 0.02750 0.72215 -0.44800
C 	C 	0.04481 0.76047 0.65206 0.28300
C 	C 	0.14507 0.99272 0.74678 0.28200
C 	C 	0.18068 0.05807 0.65433 0.28100
C 	C 	0.01300 0.09485 0.75108 0.31300
O 	O 	0.19475 0.67502 0.36964 -0.37100
O 	O 	0.25459 0.56390 0.38485 -0.40500
O 	O 	0.21008 0.57523 0.46630 -0.40700
O 	O 	0.16241 0.59969 0.42382 -0.38100
C 	C 	0.20645 0.74323 0.35857 0.27400
C 	C 	0.23041 0.49591 0.39634 0.32600
C 	C 	0.15685 0.56367 0.44866 0.31000
Ni	Ni	0.21268 0.68801 0.01520 1.09900
O 	O 	0.16009 0.49411 0.00576 -0.39400
O 	O 	0.11460 0.64302 0.99824 -0.37100
O 	O 	0.17983 0.73846 0.04849 -0.36800
C 	C 	0.15450 0.52394 0.03104 0.30100
C 	C 	0.09382 0.59310 0.97618 0.30300
C 	C 	0.21320 0.81098 0.05617 0.28800
O 	O 	0.19665 0.59237 0.03922 -0.40300
O 	O 	0.13717 0.58147 0.95831 -0.41200
O 	O 	0.08852 0.15211 0.25123 -0.41600
Ni	Ni	0.05668 0.17320 0.21030 1.06500
O 	O 	0.08304 0.08422 0.19493 -0.41800
C 	C 	0.06110 0.05196 0.16953 0.29700
C 	C 	0.05191 0.14613 0.27433 0.28300
O 	O 	0.04452 0.20729 0.16918 -0.40200
C 	C 	0.03490 0.37349 0.09458 0.00200
C 	C 	0.07459 0.44994 0.10212 -0.05100
C 	C 	0.11169 0.49997 0.08125 0.00800
C 	C 	0.06565 0.39877 0.04468 0.00600
C 	C 	0.02872 0.34885 0.06565 -0.03700
C 	C 	0.01209 0.31738 0.11684 0.05400
C 	C 	0.10965 0.47373 0.05256 -0.08000
H 	H 	0.07923 0.46966 0.12441 0.04100
H 	H 	0.14344 0.55832 0.08759 0.03900
H 	H 	0.06123 0.37846 0.02250 0.04300
C 	C 	0.14788 0.92740 0.11623 0.04900
C 	C 	0.12042 0.89656 0.14246 -0.08000
C 	C 	0.09674 0.94004 0.16126 0.04600
C 	C 	0.18726 0.84685 0.07806 -0.09700
C 	C 	0.13060 0.04620 0.12814 0.03700
C 	C 	0.15449 0.00296 0.10947 -0.09600
C 	C 	0.16835 0.88157 0.09590 0.02600
C 	C 	0.10012 0.01426 0.15376 -0.12300
H 	H 	0.11600 0.83849 0.14800 0.05000
H 	H 	0.07311 0.91482 0.18099 0.01300
H 	H 	0.17659 0.02753 0.08940 0.05300
C 	C 	0.14066 0.30997 0.34262 0.01500
C 	C 	0.07002 0.27953 0.33838 -0.06200
C 	C 	0.04053 0.22284 0.31698 0.02200
C 	C 	0.19828 0.42969 0.37792 -0.10500
C 	C 	0.15219 0.22479 0.30485 0.01100
C 	C 	0.18150 0.28123 0.32627 -0.06000
C 	C 	0.17161 0.37463 0.36210 0.04300
C 	C 	0.08167 0.19673 0.29959 -0.09300
H 	H 	0.03810 0.30120 0.35109 0.05300
H 	H 	0.18440 0.20402 0.29196 0.03100
C 	C 	0.06831 0.77543 0.29594 -0.00100
C 	C 	0.04551 0.71528 0.31540 -0.03700
C 	C 	0.09095 0.70333 0.33544 0.00600
C 	C 	0.18277 0.80972 0.31574 0.00600
C 	C 	0.13731 0.82127 0.29564 -0.04900
C 	C 	0.02020 0.79825 0.27976 0.06400
C 	C 	0.15953 0.75189 0.33618 -0.08000
H 	H 	0.07244 0.65808 0.35097 0.04500
H 	H 	0.15527 0.86780 0.28056 0.04400
C 	C 	0.06831 0.51351 0.48626 0.16100
C 	C 	0.08825 0.51383 0.45748 -0.10100
C 	C 	0.04077 0.46983 0.43639 -0.05100
O 	O 	0.11323 0.55713 0.50715 -0.27900
H 	H 	0.05601 0.46769 0.41437 0.06600
H 	H 	0.13354 0.52182 0.51603 0.14700
H 	H 	0.09044 0.78260 0.59735 0.05000
C 	C 	0.02086 0.55947 0.96877 -0.07700
O 	O 	0.03718 0.62840 0.92429 -0.27200
H 	H 	0.05555 0.59897 0.91104 0.14900
C 	C 	0.19225 0.01516 0.79718 -0.02800
C 	C 	0.19955 0.99856 0.76811 -0.03000
H 	H 	0.14343 0.01228 0.80485 0.05000
Ni	Ni	0.72219 0.32526 0.89530 1.10000
O 	O 	0.63462 0.25857 0.87402 -0.70300
Ni	Ni	0.56518 0.27197 0.89965 1.10200
O 	O 	0.72533 0.17066 0.87046 -0.41200
Ni	Ni	0.62118 0.15034 0.86865 1.06500
O 	O 	0.61451 0.12702 0.91145 -0.41700
O 	O 	0.48278 0.21417 0.87375 -0.37300
O 	O 	0.65255 0.32365 0.92387 -0.70200
O 	O 	0.50708 0.31632 0.92394 -0.36900
O 	O 	0.58607 0.43784 0.92127 -0.40200
Ni	Ni	0.67493 0.42934 0.93835 1.07600
H 	H 	0.63035 0.28007 0.85498 0.15100
H 	H 	0.65549 0.29038 0.93994 0.16000
C 	C 	0.55858 0.12033 0.92465 0.31700
C 	C 	0.48054 0.15371 0.85772 0.28900
C 	C 	0.52637 0.39095 0.92932 0.28900
O 	O 	0.53846 0.17944 0.92673 -0.36300
O 	O 	0.51737 0.11158 0.86500 -0.41500
Ni	Ni	0.62635 0.30694 0.51574 1.09900
O 	O 	0.71120 0.33043 0.49182 -0.70000
O 	O 	0.58737 0.37465 0.49207 -0.37800
O 	O 	0.68549 0.47931 0.49718 -0.40500
O 	O 	0.57018 0.21723 0.48795 -0.36900
Ni	Ni	0.75829 0.43831 0.48155 1.07200
O 	O 	0.53919 0.15062 0.54157 -0.41100
O 	O 	0.68302 0.26285 0.53989 -0.69900
O 	O 	0.54474 0.27626 0.54154 -0.38000
O 	O 	0.72483 0.12775 0.53885 -0.41300
Ni	Ni	0.63627 0.15134 0.54031 1.06500
H 	H 	0.70069 0.29783 0.47405 0.16000
H 	H 	0.68950 0.28507 0.55971 0.15400
O 	O 	0.63277 0.14243 0.49681 -0.41100
C 	C 	0.62094 0.44874 0.48917 0.29500
C 	C 	0.58506 0.15578 0.48200 0.30700
C 	C 	0.52265 0.20703 0.55291 0.27600
Ni	Ni	0.25129 0.66173 0.40413 1.10000
O 	O 	0.33864 0.71618 0.38283 -0.70200
Ni	Ni	0.40880 0.71130 0.41153 1.10100
O 	O 	0.25152 0.80541 0.37101 -0.40400
Ni	Ni	0.35468 0.82305 0.37393 1.06700
O 	O 	0.35722 0.85557 0.41609 -0.40700
O 	O 	0.49041 0.75748 0.38602 -0.37300
O 	O 	0.32216 0.67047 0.43477 -0.69900
O 	O 	0.46697 0.67569 0.44012 -0.37100
O 	O 	0.38698 0.55437 0.43995 -0.40800
Ni	Ni	0.29903 0.56973 0.45277 1.07400
H 	H 	0.34082 0.68749 0.36501 0.15400
H 	H 	0.32137 0.70930 0.44940 0.16100
C 	C 	0.41259 0.86858 0.43188 0.31700
O 	O 	0.24381 0.48565 0.42343 -0.39700
C 	C 	0.49367 0.81518 0.36890 0.28800
C 	C 	0.44744 0.60330 0.44794 0.29200
O 	O 	0.43958 0.81497 0.43433 -0.37100
O 	O 	0.45838 0.85981 0.37432 -0.41200
Ni	Ni	0.35749 0.68475 0.00412 1.10000
O 	O 	0.26472 0.65982 0.98426 -0.70200
O 	O 	0.38794 0.61884 0.97602 -0.37500
O 	O 	0.29408 0.51193 0.98312 -0.39900
O 	O 	0.40161 0.77540 0.97690 -0.35500
Ni	Ni	0.21653 0.55243 0.97191 1.07200
O 	O 	0.45038 0.84060 0.03281 -0.41500
O 	O 	0.30902 0.72511 0.03304 -0.70000
O 	O 	0.44788 0.71694 0.02619 -0.37800
O 	O 	0.26197 0.85489 0.04023 -0.40900
Ni	Ni	0.35279 0.83674 0.03606 1.06700
H 	H 	0.26794 0.69382 0.96768 0.16200
H 	H 	0.31060 0.70196 0.05201 0.15300
O 	O 	0.34427 0.84989 0.99313 -0.41700
C 	C 	0.35620 0.54390 0.97376 0.28800
C 	C 	0.38852 0.83948 0.97602 0.30900
C 	C 	0.47126 0.78398 0.04019 0.29400
C 	C 	0.64340 0.84442 0.09031 0.01800
C 	C 	0.64687 0.80087 0.11427 -0.06400
C 	C 	0.70034 0.82973 0.13452 0.01300
C 	C 	0.53227 0.80273 0.05736 -0.10700
C 	C 	0.69516 0.91542 0.08595 -0.06700
C 	C 	0.58329 0.82071 0.07214 0.03500
H 	H 	0.60713 0.74568 0.11766 0.04200
H 	H 	0.70206 0.79608 0.15321 0.01300
H 	H 	0.69279 0.94926 0.06739 0.05400
C 	C 	0.64626 0.90103 0.31238 0.01600
C 	C 	0.63025 0.88969 0.28282 -0.05900
C 	C 	0.68158 0.91496 0.26284 0.01500
C 	C 	0.54900 0.84317 0.34966 -0.10000
C 	C 	0.71319 0.94249 0.32181 -0.05600
C 	C 	0.59401 0.86918 0.33296 0.03500
H 	H 	0.57837 0.85921 0.27533 0.04100
H 	H 	0.72575 0.95294 0.34462 0.05500
H 	H 	0.23611 0.30401 0.32964 0.04500
H 	H 	0.23582 0.84644 0.31572 0.01400
C 	C 	0.45365 0.94828 0.44111 -0.12300
C 	C 	0.52191 0.97974 0.43357 -0.02600
C 	C 	0.56377 0.05210 0.44452 0.13800
C 	C 	0.53799 0.09305 0.46373 -0.09400
C 	C 	0.46845 0.06438 0.46950 -0.09100
C 	C 	0.42635 0.99188 0.45843 0.19500
H 	H 	0.54297 0.94729 0.41969 0.07100
O 	O 	0.63091 0.08079 0.43770 -0.27900
H 	H 	0.44789 0.09604 0.48398 0.07700
O 	O 	0.35907 0.96334 0.46502 -0.28300
H 	H 	0.35702 0.93484 0.48311 0.14900
H 	H 	0.63282 0.11171 0.42026 0.13900
C 	C 	0.49682 0.57400 0.46158 -0.10400
C 	C 	0.56051 0.58952 0.44953 -0.05700
C 	C 	0.60365 0.55242 0.45973 0.16800
C 	C 	0.58293 0.49922 0.48206 -0.10500
C 	C 	0.52142 0.48806 0.49542 -0.05600
C 	C 	0.47820 0.52470 0.48515 0.16800
H 	H 	0.57545 0.62790 0.43151 0.06800
O 	O 	0.66382 0.56428 0.44655 -0.30800
H 	H 	0.50611 0.44900 0.51322 0.06400
O 	O 	0.41825 0.51329 0.49848 -0.31100
H 	H 	0.38484 0.46643 0.48901 0.13800
H 	H 	0.69772 0.60847 0.45723 0.14800
C 	C 	0.35368 0.13975 0.60856 0.01500
C 	C 	0.40201 0.10437 0.61046 -0.06100
C 	C 	0.45817 0.12795 0.59285 0.00800
C 	C 	0.24221 0.08710 0.63870 -0.09600
C 	C 	0.41881 0.22399 0.57181 0.01400
C 	C 	0.36260 0.20023 0.58946 -0.05900
C 	C 	0.29326 0.11141 0.62515 0.03100
C 	C 	0.46641 0.18712 0.57311 -0.08700
H 	H 	0.39560 0.05783 0.62528 0.04000
H 	H 	0.49491 0.09968 0.59433 0.00900
H 	H 	0.42435 0.26959 0.55667 0.04100
H 	H 	0.32546 0.22796 0.58791 0.04800
C 	C 	0.43141 0.90480 0.95908 -0.10300
C 	C 	0.40243 0.95393 0.94620 -0.04600
C 	C 	0.44341 0.02296 0.93410 0.15700
C 	C 	0.51470 0.04450 0.93531 -0.13300
C 	C 	0.54361 0.99350 0.94683 -0.01700
C 	C 	0.50245 0.92412 0.95887 0.15600
H 	H 	0.34791 0.93912 0.94590 0.06500
O 	O 	0.41370 0.06992 0.92154 -0.27300
H 	H 	0.59815 0.00856 0.94727 0.04100
O 	O 	0.53180 0.87575 0.97058 -0.26700
H 	H 	0.54492 0.89491 0.99069 0.15800
H 	H 	0.40182 0.04975 0.90148 0.15300
C 	C 	0.39494 0.49519 0.96565 -0.09900
C 	C 	0.46090 0.51268 0.97721 -0.05900
C 	C 	0.50319 0.47667 0.96611 0.17000
C 	C 	0.47978 0.42275 0.94313 -0.10700
C 	C 	0.41241 0.40149 0.93277 -0.05400
C 	C 	0.37013 0.43801 0.94378 0.16300
H 	H 	0.48001 0.55572 0.99438 0.06800
O 	O 	0.56807 0.49581 0.97722 -0.31300
H 	H 	0.39356 0.35876 0.91549 0.06600
O 	O 	0.30509 0.41856 0.93283 -0.29400
H 	H 	0.30843 0.45322 0.91640 0.13400
H 	H 	0.56472 0.45913 0.99297 0.13100
C 	C 	0.31325 0.05036 0.80582 -0.00800
C 	C 	0.31987 0.02786 0.77752 -0.03200
C 	C 	0.26315 0.00159 0.75874 -0.05300
C 	C 	0.42211 0.11831 0.83917 -0.11000
C 	C 	0.24903 0.04129 0.81592 -0.03700
C 	C 	0.37262 0.08726 0.82391 0.04000
H 	H 	0.36926 0.03321 0.76976 0.03000
H 	H 	0.26921 0.98720 0.73655 0.05500
H 	H 	0.24343 0.05722 0.83797 0.04400
C 	C 	0.72106 0.53431 0.83093 0.01600
H 	H 	0.67786 0.48276 0.82529 0.02800
H 	H 	0.72724 0.57901 0.78817 0.04400
O 	O 	0.71293 0.41131 0.87048 -0.39900
C 	C 	0.72728 0.48252 0.87971 0.30700
O 	O 	0.00683 0.05790 0.15704 -0.37400
H 	H 	0.13340 0.10346 0.12218 0.02900
C 	C 	0.03188 0.62659 0.64003 -0.00800
C 	C 	0.06725 0.72294 0.60345 0.00700
C 	C 	0.05724 0.70461 0.63263 -0.07000
H 	H 	0.02758 0.61103 0.66250 0.02000
H 	H 	0.03573 0.11626 0.80871 0.03000
O 	O 	0.73145 0.49961 0.90740 -0.39600
H 	H 	0.66915 0.90228 0.24011 0.02700
H 	H 	0.00758 0.02429 0.62302 0.04900
C 	C 	0.03639 0.66638 0.58214 -0.03000
C 	C 	0.75063 0.90261 0.13095 -0.09600
H 	H 	0.03711 0.68267 0.55979 0.05300
C 	C 	0.77026 0.22866 0.85729 0.28600
Ni	Ni	0.77185 0.29628 0.51802 1.09900
C 	C 	0.74870 0.94448 0.10617 0.03900
C 	C 	0.74942 0.95145 0.27228 -0.08900
H 	H 	0.75993 0.97080 0.61803 0.03700
C 	C 	0.74894 0.58888 0.80990 -0.05900
C 	C 	0.75012 0.54517 0.85892 -0.08600
C 	C 	0.76463 0.96800 0.30180 0.02100
O 	O 	0.77877 0.30038 0.86432 -0.37200
O 	O 	0.76253 0.42631 0.95633 -0.41200
C 	C 	0.77993 0.16905 0.55356 0.29700
O 	O 	0.80357 0.39038 0.54513 -0.40100
O 	O 	0.78888 0.91819 0.18077 -0.41600
H 	H 	0.78737 0.00056 0.10305 0.02100
O 	O 	0.80462 0.88755 0.24279 -0.39700
C 	C 	0.80299 0.93626 0.15371 0.27300
H 	H 	0.80339 0.88156 0.64369 0.04200
O 	O 	0.81010 0.40027 0.91485 -0.38000
O 	O 	0.82158 0.49294 0.51601 -0.39500
O 	O 	0.81366 0.24079 0.54658 -0.36900
C 	C 	0.80370 0.95350 0.25280 0.32300
C 	C 	0.81061 0.13055 0.57265 -0.11800
C 	C 	0.81404 0.98276 0.61935 -0.02300
C 	C 	0.80596 0.65470 0.81670 0.01500
C 	C 	0.80544 0.61292 0.86600 0.01700
H 	H 	0.81676 0.99619 0.30938 0.04400
C 	C 	0.81613 0.43214 0.94099 0.31500
C 	C 	0.81993 0.21450 0.83990 -0.10200
O 	O 	0.83436 0.41211 0.46368 -0.41400
H 	H 	0.82847 0.62198 0.88749 0.04000
C 	C 	0.84233 0.45847 0.53676 0.31900
C 	C 	0.83862 0.93209 0.63381 -0.01000
C 	C 	0.83341 0.09406 0.58822 0.04600
C 	C 	0.83331 0.66739 0.84491 -0.05700
C 	C 	0.83930 0.70611 0.79428 0.03600
Ni	Ni	0.84839 0.87306 0.20551 1.07200
H 	H 	0.84673 0.44328 0.00953 0.14600
O 	O 	0.86146 0.98926 0.14731 -0.36800
C 	C 	0.85910 0.04757 0.60600 -0.02600
O 	O 	0.86293 0.33710 0.49719 -0.37600
O 	O 	0.85729 0.01715 0.25117 -0.41100
C 	C 	0.86233 0.20496 0.82502 0.02900
C 	C 	0.00181 0.14295 0.79984 0.05100
O 	O 	0.86723 0.41440 0.99704 -0.29000
C 	C 	0.86765 0.74818 0.77533 -0.10400
H 	H 	0.87725 0.71836 0.85034 0.05200
H 	H 	0.87350 0.22935 0.76818 0.04200
C 	C 	0.88060 0.39540 0.47913 0.30900
O 	O 	0.87851 0.77958 0.72597 -0.41400
C 	C 	0.88428 0.48087 0.95198 -0.11200
C 	C 	0.89811 0.50389 0.55531 -0.11000
C 	C 	0.90180 0.79739 0.75264 0.29400
O 	O 	0.90270 0.85096 0.67084 -0.41000
O 	O 	0.90480 0.82453 0.22900 -0.41200
C 	C 	0.00098 0.47183 0.49335 -0.03700
C 	C 	0.90844 0.94597 0.63485 -0.05700
H 	H 	0.90917 0.42330 0.41325 0.14700
C 	C 	0.90865 0.46835 0.97924 0.17400
H 	H 	0.90862 0.54729 0.91324 0.06200
C 	C 	0.90962 0.20581 0.77714 -0.07000
C 	C 	0.91245 0.19403 0.80680 0.02500
C 	C 	0.00100 0.56989 0.61879 -0.02200
Ni	Ni	0.92385 0.05806 0.17919 1.09300
O 	O 	0.99452 0.08714 0.27673 -0.38100
C 	C 	0.99801 0.27004 0.13548 -0.11600
H 	H 	0.99587 0.49618 0.00819 0.05900
C 	C 	0.99566 0.57458 0.94211 0.14300
H 	H 	0.98606 0.20142 0.31322 0.02300
C 	C 	0.99382 0.14696 0.76987 -0.12200
H 	H 	0.99764 0.29001 0.05958 0.03900
C 	C 	0.98869 0.21348 0.15734 0.28800
Ni	Ni	0.99609 0.94145 0.72833 1.09700
O 	O 	0.96871 0.02512 0.74649 -0.40900
H 	H 	0.99218 0.67967 0.31576 0.03600
C 	C 	0.97681 0.50773 0.98754 -0.07600
H 	H 	0.94447 0.18696 0.73564 0.00900
O 	O 	0.94535 0.86664 0.75931 -0.36700
Ni	Ni	0.93990 0.77708 0.69185 1.06100
C 	C 	0.93516 0.89246 0.64947 0.27900
O 	O 	0.99576 0.89394 0.64347 -0.37000
O 	O 	0.98066 0.75337 0.65509 -0.41000
Ni	Ni	0.95163 0.01698 0.24162 1.09200
O 	O 	0.96272 0.11037 0.21666 -0.71400
O 	O 	0.92989 0.15501 0.15770 -0.38600
O 	O 	0.92757 0.96719 0.20265 -0.69500
O 	O 	0.93418 0.91932 0.26485 -0.37400
H 	H 	0.93694 0.14194 0.22367 0.15500
H 	H 	0.96527 0.95124 0.19678 0.15200
C 	C 	0.93882 0.85629 0.25317 0.30900
C 	C 	0.98162 0.82195 0.26710 -0.12800
C 	C 	0.95277 0.43171 0.47190 -0.11500
C 	C 	0.97319 0.42983 0.44338 0.16400
H 	H 	0.98600 0.47222 0.51545 0.05100
O 	O 	0.92779 0.38695 0.42250 -0.28500
C 	C 	0.92876 0.06250 0.60764 -0.03300
C 	C 	0.95342 0.01201 0.62193 -0.04200
H 	H 	0.96378 0.11250 0.59735 0.03800
C 	C 	0.99798 0.59112 0.59009 -0.01800
C 	C 	0.94458 0.54280 0.57092 0.05300
H 	H 	0.97412 0.51099 0.62502 0.02900
C 	C 	0.92751 0.53588 0.93395 -0.04700
C 	C 	0.95043 0.18266 0.75873 0.02200
C 	C 	0.96078 0.16587 0.81826 -0.08100
H 	H 	0.96440 0.15829 0.84127 0.05200
