data_crystal

_cell_length_a 17.77544
_cell_length_b 17.13269
_cell_length_c 48.19218
_cell_angle_alpha 90.74407
_cell_angle_beta  91.04736
_cell_angle_gamma 110.86732

_symmetry_space_group_name_	'P 1'
_symmetry_space_group_name_H-M	'P 1'

loop_
_symmetry_equiv_pos_as_xyz
  x,y,z

loop_
_atom_site_label
_atom_site_type_symbol
_atom_site_fract_x
_atom_site_fract_y
_atom_site_fract_z
_atom_site_charge
O 	O 	0.10301 0.86783 0.75731 -0.70000
Ni	Ni	0.11151 0.97018 0.77995 1.09400
O 	O 	0.16798 0.77128 0.72132 -0.40700
Ni	Ni	0.21134 0.86863 0.75097 1.06500
O 	O 	0.22191 0.96592 0.72549 -0.42900
O 	O 	0.18389 0.95687 0.81156 -0.39900
O 	O 	0.04157 0.98179 0.74756 -0.72000
O 	O 	0.08844 0.06343 0.80160 -0.36700
H 	H 	0.06943 0.81605 0.76642 0.15200
H 	H 	0.06269 0.03781 0.73927 0.15600
C 	C 	0.23802 0.04217 0.73593 0.26700
C 	C 	0.11042 0.76449 0.70276 0.29100
C 	C 	0.25593 0.95538 0.80664 0.28100
C 	C 	0.01290 0.05702 0.80501 0.24800
O 	O 	0.21043 0.05439 0.76058 -0.36700
O 	O 	0.27811 0.95138 0.78084 -0.41600
Ni	Ni	0.35224 0.75433 0.40357 1.09800
O 	O 	0.33706 0.68657 0.36682 -0.69600
Ni	Ni	0.22458 0.68076 0.35566 1.09500
O 	O 	0.44726 0.72633 0.41874 -0.37400
O 	O 	0.43291 0.60176 0.39847 -0.40900
O 	O 	0.43399 0.85928 0.38641 -0.37100
Ni	Ni	0.33083 0.57036 0.37264 1.06400
O 	O 	0.33773 0.92781 0.41468 -0.41600
O 	O 	0.25994 0.56195 0.40606 -0.43100
O 	O 	0.20706 0.60313 0.32165 -0.39000
O 	O 	0.24605 0.75648 0.39023 -0.70900
O 	O 	0.35886 0.82290 0.43875 -0.38400
O 	O 	0.11843 0.69885 0.34661 -0.36900
O 	O 	0.18065 0.84033 0.34837 -0.41800
Ni	Ni	0.26098 0.87254 0.38205 1.06300
H 	H 	0.37674 0.71458 0.35265 0.15300
H 	H 	0.20487 0.73508 0.40449 0.15000
C 	C 	0.18649 0.56302 0.40357 0.28300
O 	O 	0.35070 0.88720 0.35467 -0.42000
C 	C 	0.44141 0.64854 0.42094 0.29900
C 	C 	0.21770 0.53136 0.32376 0.27900
C 	C 	0.42274 0.89029 0.36255 0.28100
C 	C 	0.11435 0.77395 0.34819 0.26600
C 	C 	0.33901 0.88987 0.43835 0.29000
O 	O 	0.15942 0.58136 0.37973 -0.37100
O 	O 	0.23278 0.50658 0.34827 -0.41400
Ni	Ni	0.35888 0.66732 0.12490 1.09900
O 	O 	0.25460 0.63450 0.10109 -0.69400
Ni	Ni	0.19086 0.68984 0.12248 1.09900
O 	O 	0.40734 0.60388 0.09835 -0.37100
O 	O 	0.29635 0.48600 0.10081 -0.41400
O 	O 	0.39895 0.76739 0.09925 -0.39100
Ni	Ni	0.19289 0.51520 0.09760 1.06900
O 	O 	0.41923 0.76812 0.18376 -0.42400
O 	O 	0.17979 0.50482 0.13938 -0.41600
O 	O 	0.09855 0.66557 0.09433 -0.38300
O 	O 	0.28638 0.70549 0.14898 -0.70000
O 	O 	0.46650 0.71019 0.14748 -0.37500
O 	O 	0.15054 0.77226 0.14327 -0.37900
O 	O 	0.27552 0.87289 0.14303 -0.42100
Ni	Ni	0.34732 0.81799 0.16335 1.06700
H 	H 	0.26499 0.65859 0.08236 0.15400
H 	H 	0.26938 0.66715 0.16474 0.15700
C 	C 	0.12290 0.52399 0.15126 0.28600
O 	O 	0.43355 0.86439 0.13437 -0.40900
C 	C 	0.36166 0.53063 0.08788 0.29300
C 	C 	0.07509 0.59361 0.08056 0.29400
C 	C 	0.41996 0.84521 0.10790 0.30300
C 	C 	0.19844 0.84989 0.14819 0.27000
O 	O 	0.11550 0.59659 0.14671 -0.36800
O 	O 	0.08327 0.52705 0.09184 -0.41900
O 	O 	0.03723 0.21341 0.23764 -0.37500
O 	O 	0.09871 0.08703 0.23299 -0.40900
O 	O 	0.00308 0.07710 0.19906 -0.37500
Ni	Ni	0.04047 0.05206 0.26962 1.06200
O 	O 	0.05462 0.17113 0.28131 -0.42100
C 	C 	0.06546 0.23072 0.26330 0.28500
C 	C 	0.06475 0.05832 0.20837 0.26800
C 	C 	0.03232 0.46449 0.19069 -0.02300
C 	C 	0.05550 0.45695 0.16341 -0.06100
C 	C 	0.01403 0.38463 0.14757 -0.02200
C 	C 	0.95345 0.31820 0.15942 0.00800
C 	C 	0.93451 0.32275 0.18740 -0.07700
H 	H 	0.06279 0.52089 0.20290 0.03500
H 	H 	0.02985 0.37924 0.12620 0.02300
H 	H 	0.92391 0.26149 0.14725 0.03900
C 	C 	0.18384 0.02621 0.19283 -0.01700
C 	C 	0.10145 0.01310 0.19007 -0.06400
C 	C 	0.05270 0.95112 0.17148 -0.03500
C 	C 	0.08503 0.89976 0.15698 -0.00500
C 	C 	0.16651 0.91009 0.16083 -0.07900
C 	C 	0.21624 0.97507 0.17825 -0.01900
H 	H 	0.22247 0.07489 0.20669 0.03500
H 	H 	0.98912 0.94069 0.16904 0.04500
H 	H 	0.04638 0.85097 0.14316 0.04000
H 	H 	0.27940 0.98422 0.18123 0.01400
C 	C 	0.23002 0.41420 0.29579 -0.01600
C 	C 	0.18829 0.46832 0.30124 -0.07100
C 	C 	0.11102 0.45059 0.28939 -0.01100
C 	C 	0.07279 0.37515 0.27477 -0.01200
C 	C 	0.11175 0.31737 0.27184 -0.07200
C 	C 	0.19176 0.33886 0.28127 -0.00800
H 	H 	0.29027 0.42801 0.30435 0.01400
H 	H 	0.07840 0.49224 0.29317 0.04100
H 	H 	0.22284 0.29523 0.27865 0.02700
C 	C 	0.01163 0.83233 0.36185 -0.03600
C 	C 	0.03733 0.78485 0.34288 -0.06400
C 	C 	0.00218 0.76903 0.31614 -0.02700
C 	C 	0.95342 0.81261 0.30701 -0.00800
C 	C 	0.94079 0.87262 0.32454 -0.07900
C 	C 	0.96322 0.87610 0.35269 0.00500
H 	H 	0.03583 0.84218 0.38294 0.01200
H 	H 	0.01919 0.72988 0.30157 0.03600
H 	H 	0.93351 0.80693 0.28545 0.01700
C 	C 	0.30536 0.10092 0.55273 -0.17100
C 	C 	0.34072 0.93438 0.46478 -0.11800
C 	C 	0.29318 0.89235 0.48700 0.09300
C 	C 	0.31266 0.92520 0.51410 -0.09900
C 	C 	0.22487 0.81005 0.48217 -0.19700
H 	H 	0.27989 0.89047 0.53145 0.04900
H 	H 	0.25464 0.04288 0.54660 0.06200
H 	H 	0.32319 0.14182 0.53449 0.05900
H 	H 	0.28333 0.13390 0.56886 0.06000
H 	H 	0.18104 0.79748 0.49919 0.05900
H 	H 	0.24892 0.75853 0.48117 0.06700
H 	H 	0.19151 0.81050 0.46249 0.04600
C 	C 	0.04680 0.48422 0.47601 0.00700
H 	H 	0.11386 0.52811 0.52688 0.04600
C 	C 	0.05464 0.56142 0.46400 0.01900
C 	C 	0.09612 0.58410 0.43916 -0.01800
C 	C 	0.13038 0.53118 0.42637 -0.11300
C 	C 	0.11752 0.45144 0.43738 0.10000
C 	C 	0.07783 0.42967 0.46257 -0.10000
H 	H 	0.10355 0.64392 0.43019 0.01500
C 	C 	0.14793 0.39036 0.42285 -0.20400
H 	H 	0.07084 0.37005 0.47172 0.05000
H 	H 	0.11512 0.32542 0.42951 0.06300
H 	H 	0.21299 0.40646 0.42784 0.06800
H 	H 	0.13881 0.39145 0.40001 0.07700
C 	C 	0.43685 0.58956 0.49642 -0.09200
C 	C 	0.46282 0.62034 0.44761 -0.11200
C 	C 	0.41230 0.61065 0.47071 0.09400
C 	C 	0.32874 0.61368 0.46756 -0.19600
H 	H 	0.39736 0.57964 0.51396 0.05000
H 	H 	0.30715 0.62829 0.48778 0.06500
H 	H 	0.28667 0.55179 0.46006 0.07400
H 	H 	0.32671 0.66251 0.45304 0.05100
H 	H 	0.52944 0.71522 0.54062 0.06500
C 	C 	0.37598 0.17282 0.68248 -0.00700
C 	C 	0.44609 0.21239 0.69870 -0.07200
C 	C 	0.44302 0.20615 0.72770 -0.01100
C 	C 	0.37197 0.15636 0.74020 -0.01700
C 	C 	0.30379 0.11127 0.72377 -0.06100
C 	C 	0.30530 0.12203 0.69495 -0.01800
H 	H 	0.37749 0.17753 0.66007 0.04200
H 	H 	0.37152 0.14876 0.76249 0.04700
H 	H 	0.25290 0.08808 0.68208 0.03400
H 	H 	0.05054 0.61097 0.72595 0.03000
C 	C 	0.08200 0.61484 0.00305 0.02300
C 	C 	0.10461 0.62483 0.03126 -0.01900
C 	C 	0.04775 0.58936 0.05159 -0.13700
C 	C 	0.96665 0.54508 0.04380 0.11200
C 	C 	0.14423 0.65221 0.98141 -0.17200
H 	H 	0.16691 0.65865 0.03742 0.01300
C 	C 	0.90464 0.50678 0.06542 -0.21100
H 	H 	0.91670 0.45393 0.07520 0.08000
H 	H 	0.12986 0.70168 0.97027 0.05900
H 	H 	0.14506 0.60315 0.96626 0.05700
H 	H 	0.20574 0.68057 0.99082 0.05400
C 	C 	0.48970 0.01594 0.04124 0.01000
H 	H 	0.48895 0.94509 0.99126 0.04400
C 	C 	0.40769 0.97900 0.04793 0.01800
C 	C 	0.38603 0.92650 0.07083 -0.01300
C 	C 	0.44514 0.91179 0.08736 -0.11400
C 	C 	0.52745 0.95327 0.08175 0.10100
C 	C 	0.34299 0.99168 0.02986 -0.17500
H 	H 	0.32293 0.89494 0.07531 0.02500
H 	H 	0.28380 0.96982 0.04011 0.05900
H 	H 	0.33677 0.95623 0.00997 0.06000
H 	H 	0.35846 0.05901 0.02548 0.06600
H 	H 	0.58592 0.87342 0.09880 0.08200
C 	C 	0.31787 0.48923 0.01101 0.01100
C 	C 	0.30928 0.50455 0.03926 -0.00500
C 	C 	0.37089 0.50997 0.05867 -0.13200
C 	C 	0.44135 0.49782 0.04990 0.11000
C 	C 	0.25109 0.48407 0.99047 -0.16500
H 	H 	0.25515 0.51368 0.04610 -0.02500
H 	H 	0.33732 0.33488 0.97238 0.04900
H 	H 	0.48216 0.46071 0.08832 0.07600
H 	H 	0.22884 0.42173 0.97993 0.05600
H 	H 	0.27346 0.53313 0.97469 0.05600
H 	H 	0.19929 0.49321 0.00075 0.04900
H 	H 	0.35899 0.29354 0.89773 0.08100
C 	C 	0.45807 0.00936 0.84269 0.00200
C 	C 	0.45849 0.07589 0.86007 -0.07800
C 	C 	0.38673 0.09106 0.86381 -0.01000
C 	C 	0.31745 0.04591 0.84817 -0.00700
C 	C 	0.31943 0.98527 0.82856 -0.07300
C 	C 	0.38877 0.96418 0.82701 -0.02400
H 	H 	0.38579 0.14080 0.87777 0.03600
H 	H 	0.26396 0.06179 0.85006 0.04400
H 	H 	0.39042 0.91589 0.81254 0.02200
Ni	Ni	0.61075 0.30913 0.89424 1.09800
O 	O 	0.64751 0.37876 0.85984 -0.70500
Ni	Ni	0.74923 0.35925 0.85167 1.10000
O 	O 	0.51336 0.34587 0.89581 -0.38800
O 	O 	0.59065 0.48546 0.89866 -0.41400
O 	O 	0.54979 0.21637 0.86658 -0.40300
Ni	Ni	0.67285 0.49732 0.86682 1.06300
O 	O 	0.67497 0.18503 0.93175 -0.42700
O 	O 	0.75412 0.50433 0.89812 -0.42000
O 	O 	0.77304 0.42365 0.81582 -0.38100
O 	O 	0.71914 0.30137 0.88892 -0.70400
O 	O 	0.56749 0.23094 0.92704 -0.39300
O 	O 	0.83877 0.31250 0.84409 -0.37300
O 	O 	0.75442 0.17978 0.85273 -0.41700
Ni	Ni	0.70823 0.18425 0.89175 1.06800
H 	H 	0.60851 0.35906 0.84406 0.15700
H 	H 	0.75568 0.33331 0.90412 0.15300
C 	C 	0.82372 0.49666 0.89373 0.30100
O 	O 	0.59312 0.11084 0.87905 -0.40600
C 	C 	0.52132 0.42334 0.90234 0.28400
C 	C 	0.76614 0.49788 0.81485 0.26900
C 	C 	0.53528 0.13712 0.87077 0.30100
C 	C 	0.82615 0.23242 0.84634 0.26500
C 	C 	0.60336 0.18400 0.93923 0.30100
O 	O 	0.83570 0.46052 0.87091 -0.37400
O 	O 	0.76194 0.53822 0.83818 -0.40600
Ni	Ni	0.62422 0.34005 0.63688 1.09900
O 	O 	0.71482 0.37091 0.60843 -0.69600
Ni	Ni	0.78654 0.31428 0.62411 1.09900
O 	O 	0.56442 0.40498 0.61597 -0.37100
O 	O 	0.67715 0.52129 0.61314 -0.41400
O 	O 	0.57050 0.24141 0.61018 -0.40300
Ni	Ni	0.77682 0.48935 0.60496 1.06600
O 	O 	0.58642 0.23190 0.69384 -0.42200
O 	O 	0.80860 0.49992 0.64599 -0.41700
O 	O 	0.86412 0.33770 0.59209 -0.38000
O 	O 	0.70539 0.29900 0.65499 -0.70300
O 	O 	0.52889 0.29955 0.66360 -0.37500
O 	O 	0.83374 0.23020 0.63961 -0.38000
O 	O 	0.70842 0.13058 0.64154 -0.42500
Ni	Ni	0.64851 0.18549 0.66759 1.06600
H 	H 	0.69491 0.34644 0.58981 0.14700
H 	H 	0.73055 0.33574 0.67119 0.15700
C 	C 	0.86929 0.47947 0.65455 0.29200
O 	O 	0.54672 0.14032 0.64274 -0.40700
C 	C 	0.60525 0.47451 0.60348 0.28500
C 	C 	0.88623 0.41098 0.58010 0.28100
C 	C 	0.54141 0.16272 0.61705 0.30800
C 	C 	0.78725 0.15206 0.64315 0.26700
C 	C 	0.52403 0.25060 0.68515 0.29000
O 	O 	0.87382 0.40704 0.64706 -0.37000
O 	O 	0.88250 0.47719 0.59362 -0.41600
Ni	Ni	0.05191 0.89545 0.72168 1.10000
O 	O 	0.09620 0.83062 0.69479 -0.38000
O 	O 	0.95033 0.79092 0.72706 -0.36600
O 	O 	0.88486 0.90931 0.71685 -0.41100
O 	O 	0.99341 0.92598 0.68930 -0.36800
O 	O 	0.95362 0.98786 0.79746 -0.40800
Ni	Ni	0.92816 0.95044 0.75609 1.06600
O 	O 	0.91575 0.83376 0.76837 -0.41700
C 	C 	0.91180 0.77403 0.75054 0.28800
C 	C 	0.92574 0.93874 0.69420 0.27400
C 	C 	0.47824 0.75243 0.17147 0.29000
Ni	Ni	0.93567 0.11226 0.22667 1.10600
O 	O 	0.87334 0.14412 0.25787 -0.70000
Ni	Ni	0.85272 0.04262 0.28113 1.09900
O 	O 	0.90633 0.17828 0.19613 -0.37600
O 	O 	0.82659 0.24042 0.21640 -0.40500
Ni	Ni	0.76963 0.14453 0.24395 1.06600
O 	O 	0.76597 0.04530 0.21921 -0.41800
O 	O 	0.76950 0.05970 0.30668 -0.39400
O 	O 	0.93231 0.02584 0.25405 -0.70300
O 	O 	0.86042 0.94665 0.30473 -0.36900
O 	O 	0.99677 0.01342 0.30883 -0.40800
H 	H 	0.90403 0.19621 0.26831 0.15900
H 	H 	0.91226 0.96946 0.24520 0.15300
C 	C 	0.74811 0.96973 0.22964 0.25400
C 	C 	0.89026 0.24534 0.20186 0.29800
C 	C 	0.69948 0.05744 0.29663 0.28200
C 	C 	0.93204 0.94648 0.31215 0.26800
O 	O 	0.76187 0.96006 0.25640 -0.37000
O 	O 	0.68909 0.06367 0.26963 -0.41200
C 	C 	0.97184 0.39750 0.20267 0.00600
H 	H 	0.95690 0.40226 0.22415 0.02800
C 	C 	0.63487 0.83219 0.22761 -0.02000
C 	C 	0.69262 0.89727 0.21366 -0.05900
C 	C 	0.68885 0.89860 0.18454 -0.02300
C 	C 	0.62269 0.84190 0.16994 -0.00800
C 	C 	0.55916 0.78524 0.18440 -0.07400
C 	C 	0.56829 0.77667 0.21302 -0.00900
H 	H 	0.63831 0.82831 0.24998 0.04800
H 	H 	0.73483 0.94606 0.17336 0.03800
H 	H 	0.61805 0.84620 0.14764 0.03600
H 	H 	0.52085 0.73110 0.22429 0.03200
C 	C 	0.56892 0.97676 0.35877 -0.01600
C 	C 	0.49293 0.93708 0.34590 -0.07100
C 	C 	0.48404 0.94249 0.31708 -0.01700
C 	C 	0.55066 0.98493 0.30117 -0.01900
C 	C 	0.62737 0.02229 0.31388 -0.06500
C 	C 	0.63567 0.01940 0.34287 -0.00900
H 	H 	0.57635 0.97470 0.38108 0.04700
H 	H 	0.42578 0.91242 0.30689 0.03000
H 	H 	0.54289 0.98670 0.27888 0.03600
H 	H 	0.69395 0.04916 0.35307 0.04100
H 	H 	0.01110 0.35926 0.26741 0.01900
H 	H 	0.95089 0.91975 0.36673 0.03000
C 	C 	0.46792 0.00411 0.55890 -0.08500
C 	C 	0.40531 0.02682 0.54787 0.00000
C 	C 	0.37612 0.08005 0.56334 0.02400
C 	C 	0.41683 0.11813 0.58796 -0.01200
C 	C 	0.48543 0.10284 0.59732 -0.11100
C 	C 	0.50785 0.04120 0.58375 0.09000
C 	C 	0.37634 0.00110 0.51903 0.01000
H 	H 	0.39814 0.16356 0.59894 0.03800
C 	C 	0.57796 0.01945 0.59445 -0.19700
H 	H 	0.48818 0.96073 0.54741 0.04700
C 	C 	0.41748 0.04788 0.49643 0.01900
C 	C 	0.39953 0.01382 0.46941 -0.00700
C 	C 	0.48440 0.13115 0.50121 -0.16800
H 	H 	0.43466 0.04690 0.45223 0.04000
H 	H 	0.57987 0.96176 0.58418 0.06300
H 	H 	0.57282 0.00808 0.61709 0.07500
H 	H 	0.63518 0.07144 0.59039 0.06900
H 	H 	0.50286 0.16468 0.48147 0.05600
H 	H 	0.53764 0.12161 0.51081 0.06200
H 	H 	0.46443 0.17173 0.51512 0.05800
C 	C 	0.05057 0.48953 0.52761 -0.08600
C 	C 	0.00653 0.46021 0.50279 -0.01500
C 	C 	0.92433 0.40911 0.50358 0.04000
C 	C 	0.88680 0.39027 0.52926 -0.03100
C 	C 	0.92990 0.42265 0.55400 -0.09800
C 	C 	0.01302 0.47061 0.55330 0.08400
C 	C 	0.87632 0.37573 0.47712 -0.17900
H 	H 	0.82330 0.35239 0.52997 0.02300
C 	C 	0.06125 0.50391 0.57974 -0.19900
C 	C 	0.02132 0.62087 0.47809 -0.18000
H 	H 	0.04701 0.55777 0.58794 0.07300
H 	H 	0.12701 0.52513 0.57616 0.06600
H 	H 	0.04719 0.45457 0.59559 0.08100
H 	H 	0.90204 0.33440 0.46590 0.06800
H 	H 	0.87778 0.42825 0.46361 0.06400
H 	H 	0.81227 0.33884 0.48125 0.05800
H 	H 	0.02713 0.67565 0.46506 0.05200
H 	H 	0.05455 0.64416 0.49803 0.05800
H 	H 	0.95639 0.58865 0.48220 0.06700
C 	C 	0.51126 0.57966 0.49962 0.00400
C 	C 	0.56206 0.58990 0.47670 0.02100
C 	C 	0.53698 0.60942 0.45075 -0.01000
C 	C 	0.53299 0.55296 0.52667 0.00100
C 	C 	0.64224 0.57881 0.47974 -0.16800
H 	H 	0.57574 0.61742 0.43307 0.03800
C 	C 	0.56843 0.61173 0.54826 0.02200
C 	C 	0.58687 0.58421 0.57391 -0.02100
C 	C 	0.57205 0.49911 0.57808 -0.11900
C 	C 	0.53421 0.43996 0.55654 0.08900
C 	C 	0.51453 0.46774 0.53114 -0.09500
C 	C 	0.58650 0.70367 0.54403 -0.17200
H 	H 	0.61448 0.62931 0.59050 0.03700
C 	C 	0.51582 0.34765 0.56016 -0.20200
H 	H 	0.48557 0.42292 0.51461 0.04800
H 	H 	0.63260 0.51246 0.48402 0.05600
H 	H 	0.67825 0.61891 0.49709 0.05700
H 	H 	0.67790 0.59640 0.46062 0.05700
H 	H 	0.61879 0.74198 0.56231 0.05800
H 	H 	0.62510 0.72497 0.52574 0.06200
H 	H 	0.47105 0.32363 0.57664 0.08800
H 	H 	0.57183 0.33602 0.56540 0.06400
H 	H 	0.48983 0.31118 0.54085 0.06200
C 	C 	0.77432 0.00810 0.65732 -0.01300
C 	C 	0.82345 0.08881 0.64969 -0.07400
C 	C 	0.90766 0.11120 0.65106 -0.02200
C 	C 	0.94194 0.05735 0.66298 0.00300
C 	C 	0.89242 0.98101 0.67370 -0.08300
C 	C 	0.80872 0.95451 0.66928 -0.02000
H 	H 	0.70939 0.98831 0.65528 0.02200
H 	H 	0.94658 0.17176 0.64412 0.05000
H 	H 	0.00678 0.07759 0.66567 0.01900
H 	H 	0.77002 0.89430 0.67659 0.03700
H 	H 	0.49639 0.23739 0.74047 0.03300
C 	C 	0.98242 0.61379 0.64912 0.01400
C 	C 	0.94192 0.54558 0.66565 -0.08000
C 	C 	0.96902 0.54314 0.69303 0.01300
C 	C 	0.03205 0.61183 0.70446 -0.03300
C 	C 	0.06692 0.68372 0.68871 -0.06000
C 	C 	0.04506 0.68219 0.66052 -0.03000
H 	H 	0.96344 0.61512 0.62770 0.02100
H 	H 	0.93940 0.48972 0.70575 0.02700
H 	H 	0.07334 0.73618 0.64787 0.04400
C 	C 	0.94392 0.53551 0.01561 -0.08500
C 	C 	0.00102 0.56983 0.99524 -0.01800
C 	C 	0.97476 0.55948 0.96581 0.02200
H 	H 	0.88177 0.50106 0.00944 0.04800
C 	C 	0.96373 0.48416 0.95116 0.01100
C 	C 	0.91951 0.46698 0.92601 -0.00900
C 	C 	0.88749 0.52456 0.91533 -0.11900
C 	C 	0.90898 0.60469 0.92792 0.10800
C 	C 	0.95083 0.62082 0.95351 -0.10300
C 	C 	0.99349 0.41942 0.96329 -0.15200
H 	H 	0.90614 0.40691 0.91558 0.02100
C 	C 	0.88442 0.67178 0.91486 -0.20700
H 	H 	0.96211 0.67988 0.96437 0.05500
H 	H 	0.84262 0.48272 0.05625 0.06700
H 	H 	0.90688 0.55422 0.08166 0.08400
H 	H 	0.99391 0.37217 0.94734 0.05200
H 	H 	0.95369 0.38691 0.98027 0.05600
H 	H 	0.05603 0.44920 0.97165 0.04800
H 	H 	0.92490 0.73492 0.92205 0.06600
H 	H 	0.82188 0.66346 0.92061 0.07000
H 	H 	0.88800 0.66926 0.89189 0.07400
C 	C 	0.51121 0.01274 0.99050 -0.08300
C 	C 	0.51356 0.05971 0.01475 -0.00100
C 	C 	0.54133 0.14780 0.01384 0.02400
C 	C 	0.56934 0.18765 0.98879 -0.01400
C 	C 	0.56895 0.14065 0.96471 -0.10900
C 	C 	0.53770 0.05253 0.96535 0.09000
C 	C 	0.54333 0.19940 0.03962 -0.17200
H 	H 	0.59259 0.25533 0.98812 0.03300
C 	C 	0.53163 0.00085 0.93925 -0.19300
C 	C 	0.54903 0.00498 0.05865 -0.09200
C 	C 	0.59216 0.94025 0.09969 -0.20700
H 	H 	0.61199 0.03472 0.05369 0.05100
H 	H 	0.50165 0.93300 0.94294 0.05800
H 	H 	0.59274 0.01122 0.93145 0.06100
H 	H 	0.49569 0.01860 0.92310 0.07400
H 	H 	0.58940 0.19416 0.05461 0.06300
H 	H 	0.48355 0.17721 0.04945 0.06300
H 	H 	0.55838 0.26646 0.03486 0.05800
H 	H 	0.65345 0.97795 0.09273 0.06700
H 	H 	0.58701 0.95926 0.12147 0.08000
C 	C 	0.45026 0.48331 0.02162 -0.10100
C 	C 	0.38942 0.47965 0.00213 0.00900
C 	C 	0.40238 0.46780 0.97234 0.00100
C 	C 	0.50750 0.50139 0.07048 -0.21000
H 	H 	0.50492 0.47555 0.01468 0.05300
C 	C 	0.44781 0.53611 0.95630 0.02300
C 	C 	0.47675 0.52111 0.93062 -0.01800
C 	C 	0.46212 0.43883 0.92117 -0.11000
C 	C 	0.40256 0.37234 0.93450 0.09900
C 	C 	0.37666 0.38678 0.96079 -0.09500
C 	C 	0.47127 0.62445 0.96745 -0.17100
H 	H 	0.51558 0.57328 0.91902 0.03200
C 	C 	0.36383 0.28771 0.92057 -0.20500
H 	H 	0.53830 0.56669 0.07812 0.08400
H 	H 	0.55315 0.47947 0.06099 0.06700
H 	H 	0.49361 0.67061 0.95076 0.05500
H 	H 	0.51963 0.63643 0.98360 0.06300
H 	H 	0.41863 0.63469 0.97663 0.06000
H 	H 	0.30167 0.25621 0.92800 0.06500
H 	H 	0.39931 0.24761 0.92547 0.08600
C 	C 	0.93988 0.23157 0.81680 -0.01400
C 	C 	0.89061 0.20058 0.83957 -0.07500
C 	C 	0.90054 0.13602 0.85504 -0.01300
C 	C 	0.95295 0.09694 0.84608 -0.01700
C 	C 	0.99388 0.12037 0.82115 -0.05800
C 	C 	0.99176 0.19178 0.80772 -0.01300
H 	H 	0.93465 0.28319 0.80518 0.04000
H 	H 	0.86535 0.11390 0.87335 0.00800
H 	H 	0.95591 0.04332 0.85709 0.03700
H 	H 	0.02446 0.21167 0.78877 0.01400
H 	H 	0.51264 0.99590 0.84003 0.02600
C 	C 	0.87055 0.56373 0.78038 -0.01200
C 	C 	0.79239 0.54752 0.78994 -0.06500
C 	C 	0.74775 0.59466 0.77999 -0.01900
C 	C 	0.78457 0.66434 0.76378 -0.00700
C 	C 	0.86629 0.68738 0.75755 -0.07200
C 	C 	0.90765 0.63398 0.76438 -0.01000
H 	H 	0.90511 0.52665 0.78748 0.04300
H 	H 	0.68660 0.58131 0.78664 0.01500
H 	H 	0.75151 0.70417 0.75797 0.02600
H 	H 	0.97073 0.65119 0.75966 0.02500
