data_crystal

_cell_length_a 21.15692
_cell_length_b 17.95629
_cell_length_c 68.60007
_cell_angle_alpha 90.52372
_cell_angle_beta  91.66276
_cell_angle_gamma 111.08507

_symmetry_space_group_name_	'P 1'
_symmetry_space_group_name_H-M	'P 1'

loop_
_symmetry_equiv_pos_as_xyz
  x,y,z

loop_
_atom_site_label
_atom_site_type_symbol
_atom_site_fract_x
_atom_site_fract_y
_atom_site_fract_z
_atom_site_charge
O 	O 	0.24480 0.58681 0.00138 -0.40400
Ni	Ni	0.41209 0.82971 0.00192 1.07300
O 	O 	0.24026 0.74050 0.01184 -0.36900
O 	O 	0.32688 0.85817 0.00681 -0.40200
H 	H 	0.36300 0.68652 0.00870 0.15300
C 	C 	0.15748 0.46617 0.01045 -0.08900
C 	C 	0.15172 0.38584 0.01123 0.01800
C 	C 	0.27724 0.81405 0.01755 0.27200
C 	C 	0.56488 0.74908 0.01571 -0.09200
H 	H 	0.61882 0.87657 0.01886 0.03800
H 	H 	0.52228 0.61997 0.01626 0.02800
C 	C 	0.61236 0.81827 0.02453 0.01100
C 	C 	0.55849 0.67387 0.02298 0.01000
H 	H 	0.30568 0.97243 0.02421 0.04500
C 	C 	0.13038 0.49867 0.02530 0.01500
C 	C 	0.12256 0.33992 0.02728 -0.06600
H 	H 	0.13370 0.56026 0.02472 0.03600
H 	H 	0.11997 0.27865 0.02801 0.04700
C 	C 	0.59622 0.66821 0.03956 -0.06700
C 	C 	0.25608 0.85167 0.03412 -0.07800
C 	C 	0.27726 0.93533 0.03568 -0.00300
C 	C 	0.10143 0.45292 0.04134 -0.06400
C 	C 	0.09886 0.37394 0.04265 0.02700
C 	C 	0.65024 0.81245 0.04107 -0.06600
H 	H 	0.58915 0.61011 0.04547 0.04500
C 	C 	0.64093 0.73753 0.04894 0.02600
H 	H 	0.68512 0.86630 0.04818 0.05000
C 	C 	0.21838 0.80469 0.04904 0.00300
C 	C 	0.26243 0.97151 0.05214 -0.03300
H 	H 	0.20189 0.74019 0.04809 0.03700
H 	H 	0.08296 0.47966 0.05304 0.04700
H 	H 	0.77406 0.76859 0.05714 0.04300
H 	H 	0.27988 0.03604 0.05329 0.02700
C 	C 	0.07569 0.32896 0.06068 0.00200
H 	H 	0.97593 0.33653 0.05893 0.04000
C 	C 	0.20318 0.84104 0.06546 -0.05400
C 	C 	0.12022 0.30297 0.07185 -0.04000
C 	C 	0.01085 0.31714 0.06747 -0.04000
H 	H 	0.17047 0.31207 0.06681 0.03900
C 	C 	0.67272 0.73250 0.06796 0.00200
C 	C 	0.74332 0.75525 0.06993 -0.03900
C 	C 	0.22575 0.92464 0.06716 0.00600
H 	H 	0.15619 0.02526 0.06841 0.04600
H 	H 	0.17416 0.80431 0.07690 0.04400
C 	C 	0.99142 0.28154 0.08549 -0.03300
C 	C 	0.77461 0.76521 0.08847 -0.03100
C 	C 	0.63329 0.71395 0.08458 -0.04000
H 	H 	0.57863 0.69548 0.08316 0.03700
C 	C 	0.21063 0.96312 0.08460 0.03900
C 	C 	0.17312 0.01333 0.08270 -0.07500
C 	C 	0.10059 0.26706 0.08982 -0.03400
H 	H 	0.94157 0.27349 0.09071 0.03900
H 	H 	0.82944 0.78671 0.08991 0.04300
C 	C 	0.03651 0.25720 0.09679 -0.00700
H 	H 	0.13549 0.24774 0.09840 0.03700
C 	C 	0.15550 0.04613 0.09930 -0.01100
H 	H 	0.12448 0.08253 0.09773 0.03300
C 	C 	0.73550 0.75290 0.10511 -0.00700
C 	C 	0.66467 0.72427 0.10312 -0.03300
C 	C 	0.23286 0.94887 0.10318 -0.06200
H 	H 	0.26291 0.91140 0.10479 0.04500
C 	C 	0.01712 0.22230 0.11558 0.04300
H 	H 	0.63408 0.71406 0.11592 0.03800
C 	C 	0.76791 0.78331 0.12369 0.04500
C 	C 	0.17485 0.02860 0.11790 -0.04200
C 	C 	0.21487 0.98139 0.11978 0.00300
C 	C 	0.00115 0.19250 0.13125 -0.10700
C 	C 	0.79649 0.81327 0.13878 -0.10600
C 	C 	0.14412 0.04715 0.13478 0.05800
H 	H 	0.23000 0.96753 0.13411 0.03500
O 	O 	0.93925 0.08053 0.14980 -0.38700
O 	O 	0.89301 0.90874 0.15408 -0.37000
C 	C 	0.98236 0.15538 0.14975 0.30600
C 	C 	0.11456 0.05860 0.14856 -0.12000
C 	C 	0.83270 0.85400 0.15599 0.29200
C 	C 	0.07418 0.06649 0.16427 0.32300
O 	O 	0.02370 0.00357 0.16933 -0.40700
O 	O 	0.99579 0.20117 0.16573 -0.42000
Ni	Ni	0.92895 0.00497 0.17287 1.09300
O 	O 	0.09652 0.12985 0.17583 -0.40200
O 	O 	0.79940 0.85136 0.17206 -0.41100
Ni	Ni	0.03437 0.17376 0.19107 1.06700
O 	O 	0.95044 0.08288 0.19535 -0.70300
O 	O 	0.92575 0.93349 0.19604 -0.69300
Ni	Ni	0.84051 0.84495 0.19975 1.06900
H 	H 	0.91277 0.10300 0.19633 0.15300
H 	H 	0.96189 0.91080 0.19520 0.15800
O 	O 	0.78309 0.90382 0.21093 -0.40900
Ni	Ni	0.95028 0.01172 0.21843 1.09400
O 	O 	0.08311 0.16189 0.21715 -0.41500
O 	O 	0.85802 0.01530 0.22583 -0.40400
O 	O 	0.87027 0.81558 0.22637 -0.41600
C 	C 	0.80301 0.95125 0.22625 0.32900
C 	C 	0.05548 0.15906 0.23424 0.28900
O 	O 	0.99498 0.10643 0.23731 -0.38300
O 	O 	0.94357 0.93378 0.24044 -0.37600
C 	C 	0.89286 0.86444 0.24179 0.28700
C 	C 	0.75819 0.94073 0.24215 -0.11700
C 	C 	0.09648 0.20157 0.25069 -0.11000
C 	C 	0.72106 0.92853 0.25573 0.05200
H 	H 	0.58545 0.85745 0.25435 0.03900
C 	C 	0.87929 0.83028 0.26126 -0.08400
H 	H 	0.90029 0.72440 0.25386 0.03000
C 	C 	0.60720 0.87124 0.26903 -0.03100
C 	C 	0.12826 0.23522 0.26511 0.04100
H 	H 	0.20844 0.38957 0.27021 0.03500
C 	C 	0.89127 0.76015 0.26551 0.01600
C 	C 	0.67717 0.91100 0.27208 -0.00900
C 	C 	0.86619 0.87494 0.27645 0.01400
H 	H 	0.85609 0.92869 0.27332 0.03600
C 	C 	0.56521 0.84771 0.28496 -0.04100
H 	H 	0.51127 0.81622 0.28247 0.03900
C 	C 	0.16296 0.27353 0.28292 -0.00800
C 	C 	0.19989 0.35585 0.28352 -0.03400
C 	C 	0.89830 0.74028 0.28488 -0.06500
H 	H 	0.91321 0.68976 0.28799 0.04500
C 	C 	0.70495 0.92787 0.29113 -0.02900
H 	H 	0.75907 0.95811 0.29359 0.04100
C 	C 	0.87160 0.85400 0.29582 -0.06300
C 	C 	0.59296 0.86397 0.30406 0.00400
C 	C 	0.15283 0.23031 0.30019 -0.03300
C 	C 	0.22309 0.39554 0.30144 -0.04100
H 	H 	0.12474 0.16652 0.29983 0.03700
H 	H 	0.24957 0.45964 0.30184 0.03700
C 	C 	0.89261 0.79000 0.30013 0.02600
C 	C 	0.66300 0.90464 0.30707 -0.04000
H 	H 	0.48667 0.90739 0.31270 0.04700
H 	H 	0.86460 0.89111 0.30749 0.04800
C 	C 	0.49541 0.86714 0.32321 -0.06500
C 	C 	0.54862 0.83896 0.32089 0.02700
H 	H 	0.68488 0.91804 0.32175 0.04500
C 	C 	0.20881 0.35315 0.31888 0.00200
C 	C 	0.17560 0.26994 0.31812 -0.04100
C 	C 	0.92188 0.78518 0.31969 0.00300
H 	H 	0.86173 0.66045 0.32342 0.03900
H 	H 	0.98965 0.90873 0.32056 0.04400
H 	H 	0.15667 0.46368 0.32980 0.04400
H 	H 	0.16456 0.23654 0.33147 0.03900
C 	C 	0.90408 0.71150 0.32903 -0.04000
C 	C 	0.97565 0.85137 0.32751 -0.03900
C 	C 	0.45359 0.84390 0.33916 0.01200
C 	C 	0.55943 0.78689 0.33462 -0.06400
H 	H 	0.41252 0.86588 0.34071 0.01700
H 	H 	0.60011 0.76438 0.33289 0.04800
C 	C 	0.18726 0.45074 0.34127 -0.06500
C 	C 	0.21998 0.39669 0.33780 0.02400
C 	C 	0.51781 0.76388 0.35066 0.01700
H 	H 	0.28482 0.33867 0.35027 0.04500
C 	C 	0.94394 0.70228 0.34477 -0.03200
C 	C 	0.00103 0.76692 0.35144 -0.00700
C 	C 	0.01491 0.84219 0.34335 -0.03200
H 	H 	0.93231 0.64409 0.35117 0.04100
H 	H 	0.05846 0.89267 0.34862 0.04100
C 	C 	0.46480 0.79263 0.35308 -0.08300
H 	H 	0.52739 0.72465 0.36129 0.04500
C 	C 	0.19236 0.48662 0.35967 0.00600
C 	C 	0.25915 0.38011 0.35283 -0.06500
H 	H 	0.16664 0.52811 0.36210 0.02900
C 	C 	0.42223 0.77136 0.37036 0.27900
C 	C 	0.26421 0.41593 0.37132 0.01000
C 	C 	0.05065 0.75372 0.36429 0.04500
O 	O 	0.42164 0.70959 0.38084 -0.37200
H 	H 	0.26718 0.65392 0.37868 0.15200
O 	O 	0.39815 0.82426 0.37753 -0.40500
C 	C 	0.22998 0.46859 0.37492 -0.08800
C 	C 	0.09411 0.74366 0.37446 -0.11000
O 	O 	0.27954 0.68672 0.39085 -0.70800
O 	O 	0.13609 0.66357 0.39442 -0.37100
O 	O 	0.20215 0.79455 0.39067 -0.41100
Ni	Ni	0.29950 0.79837 0.38486 1.06600
C 	C 	0.14730 0.73240 0.38600 0.29400
C 	C 	0.23261 0.50439 0.39457 0.26500
H 	H 	0.29378 0.40173 0.38286 0.03500
Ni	Ni	0.36096 0.67632 0.40423 1.10100
O 	O 	0.18575 0.53370 0.39920 -0.37000
N 	N 	0.55812 0.89507 0.40036 -0.10100
N 	N 	0.52417 0.31652 0.41445 -0.11900
Ni	Ni	0.20959 0.64575 0.41176 1.09800
O 	O 	0.32808 0.83576 0.41295 -0.41600
O 	O 	0.27847 0.50214 0.40780 -0.42300
C 	C 	0.53293 0.92121 0.41200 0.08900
H 	H 	0.44501 0.45616 0.41275 0.03600
C 	C 	0.52380 0.37371 0.42228 0.07100
O 	O 	0.29372 0.64840 0.42667 -0.69700
O 	O 	0.43398 0.63708 0.41626 -0.35600
C 	C 	0.38855 0.84356 0.41985 0.29600
O 	O 	0.41338 0.78700 0.41689 -0.36000
C 	C 	0.43129 0.91918 0.42979 -0.08200
C 	C 	0.50161 0.95400 0.42654 0.03300
H 	H 	0.04279 0.38705 0.42612 0.05100
N 	N 	0.88128 0.24063 0.42515 -0.11700
C 	C 	0.48004 0.48279 0.42493 -0.01600
C 	C 	0.52332 0.44509 0.43207 0.00300
O 	O 	0.17115 0.49014 0.43506 -0.40500
O 	O 	0.14134 0.59999 0.43292 -0.38300
Ni	Ni	0.27492 0.53955 0.43574 1.06900
H 	H 	0.30618 0.68846 0.43749 0.16700
C 	C 	0.42374 0.58091 0.42935 0.28900
C 	C 	0.40116 0.95836 0.44217 0.01700
C 	C 	0.54133 0.02337 0.43694 -0.04200
H 	H 	0.59562 0.04827 0.43498 0.04500
C 	C 	0.02284 0.41113 0.43803 -0.00900
C 	C 	0.91434 0.29912 0.43325 0.08000
C 	C 	0.47950 0.55267 0.43402 -0.06300
H 	H 	0.67640 0.27068 0.45665 0.15800
O 	O 	0.81202 0.38408 0.45051 -0.41300
O 	O 	0.37727 0.57012 0.44240 -0.40200
C 	C 	0.13091 0.52864 0.43979 0.28600
C 	C 	0.44052 0.02944 0.45196 -0.02600
C 	C 	0.51155 0.06071 0.44990 -0.05200
H 	H 	0.34698 0.93318 0.44430 0.04100
C 	C 	0.06363 0.48285 0.44745 -0.06500
C 	C 	0.95559 0.37212 0.44337 0.00400
C 	C 	0.56581 0.47696 0.44871 -0.06900
C 	C 	0.52710 0.58909 0.44929 0.00600
O 	O 	0.68503 0.30771 0.46803 -0.69900
O 	O 	0.56171 0.35514 0.46387 -0.36500
O 	O 	0.66092 0.46212 0.46650 -0.40900
O 	O 	0.54341 0.19235 0.46464 -0.35900
Ni	Ni	0.73585 0.41711 0.45984 1.07000
C 	C 	0.59854 0.42856 0.45932 0.27000
C 	C 	0.85610 0.37050 0.46263 0.28700
C 	C 	0.55558 0.12567 0.46292 0.28500
C 	C 	0.40745 0.06966 0.46407 0.09300
N 	N 	0.38055 0.10167 0.47368 -0.10900
C 	C 	0.92871 0.40472 0.45837 -0.06400
C 	C 	0.03762 0.51336 0.46308 0.00400
C 	C 	0.56987 0.55096 0.45660 -0.01300
C 	C 	0.53142 0.66479 0.45777 0.08700
Ni	Ni	0.59738 0.28935 0.48249 1.10000
O 	O 	0.83603 0.31603 0.47632 -0.37600
O 	O 	0.60054 0.11223 0.47438 -0.41600
C 	C 	0.97041 0.47412 0.46845 -0.01600
C 	C 	0.07969 0.58432 0.47381 0.07200
H 	H 	0.60399 0.57699 0.46900 0.04700
N 	N 	0.53485 0.72544 0.46454 -0.11000
Ni	Ni	0.74129 0.27690 0.48832 1.09900
O 	O 	0.79576 0.47911 0.48339 -0.39700
H 	H 	0.95011 0.49857 0.48020 0.04300
N 	N 	0.11338 0.64117 0.48241 -0.11700
O 	O 	0.50596 0.13500 0.50267 -0.40600
O 	O 	0.64937 0.24609 0.50123 -0.69700
O 	O 	0.51316 0.26432 0.49858 -0.37400
Ni	Ni	0.60152 0.13147 0.50353 1.06700
C 	C 	0.80755 0.44694 0.49960 0.32300
O 	O 	0.77866 0.22666 0.51055 -0.36800
O 	O 	0.69062 0.10836 0.50603 -0.41100
H 	H 	0.65341 0.27255 0.51418 0.15600
C 	C 	0.49247 0.19789 0.50861 0.28100
O 	O 	0.76546 0.37801 0.50499 -0.40500
H 	H 	0.41308 0.28509 0.51596 0.04100
C 	C 	0.85554 0.49590 0.51394 -0.10900
C 	C 	0.74251 0.15521 0.51669 0.28400
C 	C 	0.44717 0.19012 0.52504 -0.09100
C 	C 	0.41101 0.24177 0.52704 0.01800
C 	C 	0.75549 0.13074 0.53633 -0.10400
H 	H 	0.86465 0.18047 0.53473 0.03500
C 	C 	0.44304 0.13363 0.53945 0.01200
C 	C 	0.37228 0.23780 0.54347 -0.06700
H 	H 	0.47092 0.09376 0.53818 0.00800
H 	H 	0.34495 0.27816 0.54498 0.04700
C 	C 	0.89379 0.53150 0.52710 0.05100
C 	C 	0.70083 0.08916 0.54794 0.02000
C 	C 	0.82210 0.14808 0.54353 0.02500
H 	H 	0.64919 0.07687 0.54268 -0.01300
C 	C 	0.93544 0.64046 0.55160 -0.03000
C 	C 	0.93655 0.56851 0.54385 -0.00700
H 	H 	0.91025 0.67413 0.54356 0.04300
H 	H 	0.97088 0.47006 0.54843 0.04100
C 	C 	0.83388 0.12158 0.56190 -0.07500
C 	C 	0.40448 0.12987 0.55582 -0.06900
C 	C 	0.36958 0.18244 0.55800 0.02700
H 	H 	0.40214 0.08649 0.56692 0.04400
H 	H 	0.23296 0.12598 0.56055 0.04000
C 	C 	0.96952 0.52560 0.55436 -0.03000
C 	C 	0.71259 0.06332 0.56635 -0.07900
C 	C 	0.77908 0.07823 0.57329 0.03700
H 	H 	0.67002 0.03069 0.57511 0.04200
H 	H 	0.88544 0.13319 0.56712 0.04800
C 	C 	0.33045 0.17925 0.57557 0.00100
C 	C 	0.25957 0.14324 0.57455 -0.04000
C 	C 	0.96315 0.66663 0.57029 -0.03800
C 	C 	0.99690 0.55145 0.57310 -0.04200
H 	H 	0.95951 0.72056 0.57651 0.04400
C 	C 	0.79120 0.04369 0.59180 -0.02800
C 	C 	0.76555 0.96060 0.59403 -0.00800
H 	H 	0.73433 0.92183 0.58251 0.03800
C 	C 	0.22333 0.12486 0.59169 -0.03400
C 	C 	0.36430 0.20204 0.59378 -0.04100
H 	H 	0.16892 0.09360 0.59080 0.03800
H 	H 	0.41898 0.23065 0.59469 0.03700
C 	C 	0.99187 0.62070 0.58138 -0.00000
H 	H 	0.01964 0.51608 0.58146 0.04100
C 	C 	0.00959 0.64043 0.60221 0.03300
H 	H 	0.09571 0.74719 0.59693 0.05200
C 	C 	0.83112 0.09324 0.60690 -0.02400
C 	C 	0.78261 0.92721 0.61075 -0.04900
H 	H 	0.85024 0.15752 0.60546 0.03200
H 	H 	0.76484 0.86286 0.61198 0.04600
C 	C 	0.25777 0.14254 0.60989 -0.00700
C 	C 	0.32804 0.18362 0.61089 -0.03400
C 	C 	0.06261 0.71134 0.60778 -0.06500
H 	H 	0.92782 0.53783 0.61236 0.04600
C 	C 	0.84838 0.05969 0.62360 -0.06400
C 	C 	0.82566 0.97652 0.62531 0.02200
C 	C 	0.22290 0.10841 0.62721 0.03800
H 	H 	0.35495 0.19805 0.62492 0.03700
C 	C 	0.96816 0.59348 0.61647 -0.06900
C 	C 	0.07037 0.73870 0.62717 0.01800
C 	C 	0.85563 0.94202 0.64005 0.03700
H 	H 	0.88162 0.09822 0.63482 0.03700
C 	C 	0.19395 0.07684 0.64149 -0.10700
C 	C 	0.02444 0.69578 0.64111 -0.08100
C 	C 	0.97568 0.62093 0.63586 0.01200
H 	H 	0.10912 0.79588 0.63103 0.04600
O 	O 	0.11785 0.96152 0.65554 -0.35400
C 	C 	0.15946 0.03580 0.65812 0.27900
O 	O 	0.97895 0.87779 0.65853 -0.37400
C 	C 	0.88355 0.91299 0.65159 -0.10200
H 	H 	0.94108 0.58619 0.64655 0.02200
O 	O 	0.07162 0.79561 0.66625 -0.39500
C 	C 	0.92056 0.87898 0.66419 0.29500
C 	C 	0.01840 0.73584 0.65948 0.29500
O 	O 	0.95664 0.72799 0.66492 -0.40800
Ni	Ni	0.06083 0.89535 0.67732 1.09900
O 	O 	0.89033 0.83562 0.67886 -0.41100
O 	O 	0.18533 0.06250 0.67560 -0.41300
H 	H 	0.01698 0.01292 0.68106 0.13900
Ni	Ni	0.92857 0.75741 0.69156 1.06300
O 	O 	0.04401 0.99037 0.68952 -0.68800
Ni	Ni	0.12835 0.07341 0.69899 1.05900
Ni	Ni	0.99359 0.93869 0.71305 1.09900
O 	O 	0.01186 0.84367 0.70110 -0.70300
H 	H 	0.04040 0.82333 0.70960 0.15500
O 	O 	0.15829 0.99205 0.71300 -0.41900
O 	O 	0.92944 0.87383 0.73370 -0.36200
O 	O 	0.87405 0.75888 0.71632 -0.40500
O 	O 	0.07073 0.95523 0.73374 -0.36600
O 	O 	0.09642 0.10741 0.72444 -0.41700
O 	O 	0.98156 0.03879 0.72342 -0.39800
C 	C 	0.90065 0.79562 0.73293 0.29600
C 	C 	0.13370 0.96473 0.72986 0.30700
C 	C 	0.03415 0.10353 0.72803 0.30800
C 	C 	0.01859 0.19227 0.75690 0.04500
C 	C 	0.02619 0.15445 0.74318 -0.10700
C 	C 	0.18020 0.96862 0.74577 -0.10300
C 	C 	0.87500 0.75600 0.75071 -0.10300
C 	C 	0.94697 0.24395 0.77620 -0.03900
C 	C 	0.00811 0.23134 0.77422 -0.00300
H 	H 	0.91293 0.23738 0.76365 0.03700
C 	C 	0.22006 0.97661 0.75924 0.04800
H 	H 	0.35562 0.03503 0.75733 0.03700
C 	C 	0.85346 0.72422 0.76580 0.04200
H 	H 	0.75800 0.57901 0.77036 0.03600
C 	C 	0.05209 0.24086 0.79051 -0.03500
H 	H 	0.09978 0.23196 0.78907 0.04100
C 	C 	0.33774 0.02615 0.77208 -0.04800
C 	C 	0.26825 0.99091 0.77535 0.00200
C 	C 	0.82813 0.68734 0.78399 -0.00600
C 	C 	0.77860 0.61043 0.78400 -0.03400
C 	C 	0.92717 0.25889 0.79464 -0.03800
C 	C 	0.03219 0.25539 0.80896 -0.03500
H 	H 	0.87823 0.26442 0.79620 0.03500
C 	C 	0.38413 0.05295 0.78784 -0.04200
C 	C 	0.24559 0.97980 0.79448 -0.00700
H 	H 	0.43765 0.08143 0.78519 0.03600
H 	H 	0.19192 0.95277 0.79712 0.03900
H 	H 	0.71930 0.51301 0.80155 0.03700
C 	C 	0.96845 0.26114 0.81117 -0.00400
H 	H 	0.06483 0.25829 0.82164 0.04100
C 	C 	0.36125 0.04464 0.80698 0.00900
C 	C 	0.29195 0.00651 0.81026 -0.07900
H 	H 	0.43425 0.20051 0.81513 0.04600
C 	C 	0.85391 0.72785 0.80171 -0.03200
C 	C 	0.75649 0.57317 0.80167 -0.04000
H 	H 	0.89183 0.78757 0.80181 0.04400
C 	C 	0.91563 0.18655 0.84045 -0.06900
C 	C 	0.94144 0.25917 0.83073 0.02600
H 	H 	0.91877 0.13269 0.83403 0.04500
H 	H 	0.95766 0.38496 0.83179 0.04600
C 	C 	0.40956 0.07775 0.82352 0.02700
C 	C 	0.44368 0.16056 0.82559 -0.06700
H 	H 	0.27389 0.99936 0.82499 0.06300
C 	C 	0.78393 0.61260 0.81945 0.00200
C 	C 	0.83189 0.69065 0.81939 -0.03900
H 	H 	0.81238 0.48247 0.82939 0.04300
C 	C 	0.93761 0.32863 0.83919 -0.06800
C 	C 	0.42169 0.02662 0.83722 -0.08600
C 	C 	0.49021 0.19194 0.84116 0.01200
H 	H 	0.39536 0.96265 0.83577 0.06400
H 	H 	0.51692 0.25587 0.84249 0.02900
C 	C 	0.78844 0.50336 0.84089 -0.06600
C 	C 	0.76857 0.56900 0.83792 0.02600
H 	H 	0.85359 0.72151 0.83301 0.04300
C 	C 	0.87799 0.25185 0.86639 -0.09600
C 	C 	0.88392 0.18282 0.85819 0.00900
C 	C 	0.90639 0.32516 0.85699 0.01000
H 	H 	0.86318 0.12615 0.86540 0.03000
H 	H 	0.90250 0.37898 0.86319 0.03600
C 	C 	0.50313 0.14071 0.85473 -0.08800
C 	C 	0.46820 0.05787 0.85276 0.02100
C 	C 	0.77950 0.46601 0.85889 0.00900
C 	C 	0.73765 0.59555 0.85296 -0.06500
H 	H 	0.79631 0.41633 0.86106 0.01900
H 	H 	0.72184 0.64602 0.85076 0.04900
H 	H 	0.71178 0.30727 0.87840 0.15100
C 	C 	0.83771 0.24669 0.88383 0.27900
C 	C 	0.55449 0.17332 0.87059 0.28000
O 	O 	0.58549 0.12731 0.87801 -0.40600
H 	H 	0.47697 0.01771 0.86329 0.03800
C 	C 	0.75045 0.49378 0.87419 -0.09000
C 	C 	0.72839 0.55789 0.87102 0.01500
O 	O 	0.70341 0.27592 0.89046 -0.70700
O 	O 	0.85067 0.30969 0.89533 -0.36700
O 	O 	0.78913 0.17911 0.88795 -0.41000
Ni	Ni	0.68732 0.16422 0.88420 1.06600
O 	O 	0.55671 0.23850 0.88012 -0.37600
C 	C 	0.74826 0.45933 0.89375 0.26900
N 	N 	0.57975 0.95587 0.88598 -0.12400
H 	H 	0.70592 0.58000 0.88266 0.03500
Ni	Ni	0.77649 0.32334 0.91192 1.09700
Ni	Ni	0.62187 0.28086 0.90358 1.09900
O 	O 	0.79653 0.43293 0.89933 -0.37000
O 	O 	0.67147 0.13144 0.91256 -0.41500
O 	O 	0.70240 0.46159 0.90615 -0.42200
C 	C 	0.56708 0.96446 0.90195 0.07600
H 	H 	0.53065 0.49088 0.90615 0.03700
C 	C 	0.44974 0.57325 0.91206 0.07500
N 	N 	0.44681 0.62564 0.90284 -0.11600
O 	O 	0.69345 0.31933 0.92614 -0.69800
O 	O 	0.54713 0.31217 0.91601 -0.35900
C 	C 	0.61361 0.12265 0.92051 0.28900
O 	O 	0.58040 0.17004 0.91595 -0.36300
H 	H 	0.93721 0.58933 0.92824 0.05300
C 	C 	0.06714 0.67899 0.93548 0.08100
N 	N 	0.09782 0.73699 0.92764 -0.11200
C 	C 	0.50741 0.90917 0.93169 -0.01100
C 	C 	0.55122 0.97482 0.92190 0.02300
C 	C 	0.57881 0.05011 0.93150 -0.07800
H 	H 	0.48486 0.85198 0.92409 0.05200
C 	C 	0.49731 0.46905 0.91822 -0.01700
C 	C 	0.45341 0.50787 0.92357 0.00400
O 	O 	0.81299 0.48201 0.93505 -0.40400
O 	O 	0.84626 0.37456 0.93381 -0.38400
O 	O 	0.60740 0.40095 0.93980 -0.40100
Ni	Ni	0.70935 0.42999 0.93442 1.06800
H 	H 	0.68477 0.28263 0.93725 0.16300
C 	C 	0.55818 0.37797 0.92641 0.28500
C 	C 	0.85497 0.44625 0.94066 0.28500
O 	O 	0.42000 0.61138 0.95250 -0.37000
H 	H 	0.30801 0.70147 0.95329 0.16300
C 	C 	0.38264 0.53586 0.94935 0.27000
O 	O 	0.17123 0.59338 0.94884 -0.41100
C 	C 	0.92241 0.49548 0.94906 -0.06300
C 	C 	0.96030 0.56677 0.93999 -0.01400
C 	C 	0.02884 0.60659 0.94526 0.00900
C 	C 	0.49177 0.91723 0.95115 -0.06300
C 	C 	0.50081 0.40469 0.92899 -0.06200
C 	C 	0.41355 0.48306 0.94015 -0.06600
O 	O 	0.30526 0.66258 0.96367 -0.70200
O 	O 	0.32341 0.50476 0.95750 -0.41100
O 	O 	0.44523 0.77568 0.95767 -0.36300
Ni	Ni	0.24875 0.55487 0.95435 1.07000
C 	C 	0.13417 0.60591 0.96277 0.28900
C 	C 	0.44406 0.84742 0.96106 0.29500
C 	C 	0.05995 0.57527 0.95983 -0.06600
C 	C 	0.95225 0.46765 0.96466 -0.00100
C 	C 	0.56533 0.05758 0.95112 -0.02000
C 	C 	0.52326 0.99152 0.96113 0.01600
H 	H 	0.58723 0.11517 0.95858 0.03700
C 	C 	0.41191 0.41347 0.94961 -0.01500
C 	C 	0.45524 0.37411 0.94409 0.00600
C 	C 	0.45416 0.30382 0.95437 0.08500
Ni	Ni	0.39982 0.67660 0.97450 1.10000
Ni	Ni	0.26268 0.69077 0.98704 1.09900
O 	O 	0.19844 0.49069 0.97777 -0.39700
O 	O 	0.16218 0.65570 0.97769 -0.37500
O 	O 	0.40331 0.85788 0.97378 -0.40700
C 	C 	0.02078 0.50779 0.96999 -0.01000
H 	H 	0.04426 0.48479 0.98155 0.04100
C 	C 	0.91297 0.39812 0.97529 0.07100
C 	C 	0.51482 0.99997 0.98177 0.08400
H 	H 	0.37968 0.39248 0.96194 0.04500
N 	N 	0.45332 0.24752 0.96260 -0.11400
O 	O 	0.50548 0.82234 0.99826 -0.40100
O 	O 	0.36076 0.71678 0.99687 -0.69700
O 	O 	0.49231 0.69640 0.98725 -0.37400
C 	C 	0.19874 0.51897 0.99559 0.30400
C 	C 	0.51749 0.75518 0.00021 0.27600
H 	H 	0.17218 0.35992 0.99983 0.03500
N 	N 	0.88152 0.34241 0.98381 -0.12100
N 	N 	0.50815 0.00691 0.99829 -0.16100
