data_crystal

_cell_length_a 18.55143
_cell_length_b 18.88206
_cell_length_c 34.48401
_cell_angle_alpha 95.42479
_cell_angle_beta  95.42546
_cell_angle_gamma 126.41499

_symmetry_space_group_name_	'P 1'
_symmetry_space_group_name_H-M	'P 1'

loop_
_symmetry_equiv_pos_as_xyz
  x,y,z

loop_
_atom_site_label
_atom_site_type_symbol
_atom_site_fract_x
_atom_site_fract_y
_atom_site_fract_z
_atom_site_charge
C 	C 	0.91423 0.98410 0.95827 0.04900
C 	C 	0.00837 0.03886 0.95894 -0.06800
C 	C 	0.05566 0.00255 0.95997 0.09000
C 	C 	0.00926 0.91136 0.96019 -0.10100
C 	C 	0.91513 0.85556 0.95908 0.07700
C 	C 	0.86727 0.89198 0.95846 -0.07400
H 	H 	0.04508 0.11006 0.95953 0.07200
H 	H 	0.04655 0.88380 0.96148 0.07100
H 	H 	0.79465 0.84942 0.95845 0.08100
C 	C 	0.93431 0.04730 0.49924 0.10000
C 	C 	0.02705 0.09634 0.49677 -0.10200
C 	C 	0.07021 0.05546 0.49881 0.10300
C 	C 	0.02068 0.96605 0.50370 -0.10400
C 	C 	0.92801 0.91685 0.50559 0.09300
C 	C 	0.88510 0.95763 0.50366 -0.10300
H 	H 	0.06497 0.16533 0.49275 0.07900
H 	H 	0.05381 0.93432 0.50531 0.09100
H 	H 	0.81300 0.91904 0.50461 0.08800
Cu	Cu	0.76876 0.33209 0.95889 0.93600
Cu	Cu	0.76571 0.27359 0.04593 0.89000
Cu	Cu	0.62402 0.28566 0.00917 0.91200
Cu	Cu	0.59861 0.32476 0.92897 0.91300
C 	C 	0.70134 0.29857 0.87537 0.30800
O 	O 	0.82092 0.46208 0.95661 -0.34100
C 	C 	0.68837 0.32843 0.09629 0.30900
O 	O 	0.62679 0.25830 0.95457 -0.63300
O 	O 	0.75836 0.34975 0.01505 -0.63700
O 	O 	0.82915 0.27253 0.96415 -0.34000
O 	O 	0.73377 0.18309 0.00350 -0.40400
O 	O 	0.66429 0.33853 0.88425 -0.35300
O 	O 	0.49298 0.21633 0.99998 -0.34600
C 	C 	0.44289 0.21709 0.97037 0.32200
C 	C 	0.77953 0.49531 0.96874 0.31000
O 	O 	0.69572 0.44095 0.97449 -0.36800
O 	O 	0.47985 0.27395 0.94585 -0.35900
O 	O 	0.75512 0.29746 0.90293 -0.30400
C 	C 	0.79144 0.19992 0.97992 0.32000
O 	O 	0.61917 0.29238 0.06639 -0.32400
O 	O 	0.76231 0.33650 0.09135 -0.37100
H 	H 	0.58794 0.19348 0.94313 0.21200
H 	H 	0.79508 0.41297 0.02881 0.20700
Cu	Cu	0.59978 0.20814 0.50145 0.93700
Cu	Cu	0.66135 0.22769 0.41461 0.89900
Cu	Cu	0.66423 0.36846 0.46181 0.90600
Cu	Cu	0.63106 0.38060 0.54486 0.91400
C 	C 	0.62650 0.24539 0.58674 0.30300
O 	O 	0.47258 0.16862 0.50556 -0.30700
C 	C 	0.62398 0.32954 0.37353 0.30600
O 	O 	0.68841 0.34853 0.51344 -0.63800
O 	O 	0.58813 0.23533 0.44834 -0.63700
O 	O 	0.64442 0.13673 0.48854 -0.34300
O 	O 	0.74627 0.23733 0.45417 -0.41400
O 	O 	0.60355 0.29923 0.58371 -0.30300
O 	O 	0.74383 0.49679 0.47802 -0.35500
C 	C 	0.73533 0.54171 0.50653 0.31300
C 	C 	0.44780 0.21946 0.49859 0.31400
O 	O 	0.50996 0.30510 0.49893 -0.37300
O 	O 	0.70287 0.50828 0.53816 -0.36300
O 	O 	0.63116 0.20364 0.55523 -0.32900
C 	C 	0.71982 0.17265 0.47416 0.31400
O 	O 	0.65900 0.38935 0.40680 -0.34600
O 	O 	0.60728 0.25119 0.37313 -0.33000
H 	H 	0.75367 0.37876 0.52395 0.18700
H 	H 	0.52498 0.20675 0.43478 0.21000
C 	C 	0.65825 0.17555 0.77220 0.03000
C 	C 	0.68812 0.24443 0.75045 0.09900
C 	C 	0.72987 0.33292 0.77045 -0.11000
C 	C 	0.74022 0.35000 0.81195 0.07800
C 	C 	0.70511 0.28015 0.83338 -0.00100
C 	C 	0.66461 0.19203 0.81354 -0.06900
C 	C 	0.66294 0.22072 0.70657 0.09000
C 	C 	0.75406 0.40694 0.74743 0.78900
H 	H 	0.77148 0.41718 0.82759 0.08500
C 	C 	0.62569 0.11525 0.83616 0.77900
H 	H 	0.62634 0.10827 0.75652 0.12400
C 	C 	0.72479 0.22840 0.68294 -0.10000
C 	C 	0.71008 0.23201 0.64257 0.08000
C 	C 	0.63042 0.21881 0.62528 0.00600
C 	C 	0.55972 0.19043 0.64720 -0.06200
C 	C 	0.57861 0.19638 0.68826 0.03900
C 	C 	0.80580 0.23291 0.70064 0.79000
H 	H 	0.76190 0.24866 0.62507 0.08100
C 	C 	0.46552 0.15727 0.62753 0.77700
H 	H 	0.52909 0.18535 0.70623 0.10900
F 	F 	0.69467 0.13066 0.86387 -0.43600
F 	F 	0.58548 0.03400 0.81129 -0.41300
F 	F 	0.56013 0.10835 0.85534 -0.45200
F 	F 	0.67498 0.38917 0.72768 -0.42700
F 	F 	0.80649 0.41269 0.72016 -0.40500
F 	F 	0.80329 0.48981 0.77225 -0.42100
F 	F 	0.40028 0.09883 0.64821 -0.41700
F 	F 	0.44249 0.11187 0.58912 -0.42800
F 	F 	0.46356 0.22922 0.62697 -0.41500
F 	F 	0.84987 0.22721 0.67165 -0.42300
F 	F 	0.77666 0.16241 0.72034 -0.42000
F 	F 	0.86773 0.31270 0.72713 -0.39500
C 	C 	0.54673 0.30643 0.26562 0.04100
C 	C 	0.63089 0.37184 0.25584 0.08800
C 	C 	0.70378 0.44076 0.28621 -0.10200
C 	C 	0.69754 0.43100 0.32598 0.08000
C 	C 	0.61803 0.35664 0.33535 0.00700
C 	C 	0.53883 0.29993 0.30549 -0.06300
C 	C 	0.64575 0.36038 0.21492 0.09600
C 	C 	0.78980 0.52148 0.27622 0.78900
H 	H 	0.75652 0.47732 0.34932 0.08900
C 	C 	0.44743 0.22883 0.31560 0.77800
H 	H 	0.48924 0.25700 0.24216 0.11000
C 	C 	0.67251 0.30624 0.20345 -0.10900
C 	C 	0.68605 0.29715 0.16442 0.07900
C 	C 	0.67504 0.34197 0.13709 -0.00400
C 	C 	0.65014 0.39755 0.14880 -0.06000
C 	C 	0.63116 0.40232 0.18713 0.03300
C 	C 	0.68113 0.25371 0.23194 0.78900
H 	H 	0.70383 0.25388 0.15491 0.07800
C 	C 	0.64154 0.45002 0.12039 0.77500
H 	H 	0.60647 0.43995 0.19570 0.11900
F 	F 	0.43965 0.15163 0.31685 -0.41100
F 	F 	0.37673 0.20898 0.28732 -0.41600
F 	F 	0.43860 0.25801 0.35194 -0.44200
F 	F 	0.76742 0.55980 0.25018 -0.41700
F 	F 	0.83683 0.49545 0.25891 -0.39900
F 	F 	0.84690 0.58630 0.30973 -0.41800
F 	F 	0.63943 0.51589 0.14020 -0.41100
F 	F 	0.56180 0.39251 0.09265 -0.43500
F 	F 	0.71505 0.49172 0.10115 -0.43900
F 	F 	0.71482 0.21101 0.21614 -0.42100
F 	F 	0.59640 0.18917 0.24016 -0.42400
F 	F 	0.73998 0.31028 0.26692 -0.41300
C 	C 	0.77971 0.63725 0.50693 -0.10200
C 	C 	0.83453 0.70042 0.54197 -0.03200
C 	C 	0.88225 0.79197 0.54184 0.14300
C 	C 	0.87437 0.82076 0.50664 -0.02800
C 	C 	0.81776 0.75766 0.47191 -0.08700
C 	C 	0.77003 0.66615 0.47198 0.19300
H 	H 	0.84185 0.67872 0.56907 0.08600
O 	O 	0.93522 0.85311 0.57629 -0.25100
H 	H 	0.81144 0.77969 0.44475 0.09100
O 	O 	0.71535 0.60513 0.43768 -0.25800
H 	H 	0.65421 0.58970 0.43817 0.16700
H 	H 	0.99644 0.86806 0.57686 0.17100
C 	C 	0.88649 0.08716 0.49389 -0.03000
C 	C 	0.86676 0.09993 0.45612 -0.09000
C 	C 	0.81173 0.12708 0.44941 0.19500
C 	C 	0.77539 0.14126 0.48070 -0.10800
C 	C 	0.79581 0.12927 0.51862 -0.02800
C 	C 	0.85183 0.10312 0.52538 0.14300
H 	H 	0.89224 0.08658 0.43166 0.08900
O 	O 	0.78956 0.13509 0.41182 -0.27800
H 	H 	0.76909 0.14114 0.54295 0.08800
O 	O 	0.87039 0.09054 0.56247 -0.24600
H 	H 	0.92718 0.14936 0.57616 0.18000
H 	H 	0.83952 0.19729 0.40950 0.16800
C 	C 	0.35208 0.18373 0.49658 -0.08700
C 	C 	0.28504 0.11515 0.46521 -0.02800
C 	C 	0.19301 0.07714 0.46433 0.15000
C 	C 	0.16733 0.10588 0.49572 -0.03000
C 	C 	0.23476 0.17662 0.52638 -0.07800
C 	C 	0.32694 0.21604 0.52677 0.19900
H 	H 	0.30416 0.09089 0.44160 0.09000
O 	O 	0.12793 0.00952 0.43361 -0.25100
H 	H 	0.21553 0.19917 0.55060 0.09500
O 	O 	0.39189 0.28258 0.55783 -0.23400
H 	H 	0.41016 0.33931 0.54973 0.15800
H 	H 	0.12005 0.03989 0.41356 0.17800
C 	C 	0.86808 0.75952 0.95972 -0.02400
C 	C 	0.84714 0.72864 0.99547 -0.08600
C 	C 	0.82159 0.64356 0.99912 0.19500
C 	C 	0.81788 0.58891 0.96695 -0.10500
C 	C 	0.83702 0.61904 0.93096 -0.03500
C 	C 	0.86164 0.70369 0.92719 0.13900
H 	H 	0.85352 0.77175 0.02087 0.08700
O 	O 	0.80364 0.61532 0.03461 -0.25300
H 	H 	0.83100 0.57608 0.90559 0.08300
O 	O 	0.87841 0.73145 0.89155 -0.24500
H 	H 	0.94400 0.76024 0.89216 0.16300
H 	H 	0.73771 0.58569 0.03339 0.19900
C 	C 	0.86740 0.02557 0.96127 -0.00500
C 	C 	0.84764 0.04107 0.99792 -0.08400
C 	C 	0.82505 0.09946 0.00447 0.18400
C 	C 	0.81859 0.14064 0.97360 -0.09500
C 	C 	0.83514 0.12256 0.93643 -0.02600
C 	C 	0.85939 0.06528 0.93017 0.14200
H 	H 	0.85456 0.01154 0.02209 0.08600
O 	O 	0.81075 0.11729 0.04127 -0.27800
H 	H 	0.82987 0.15327 0.91244 0.12400
O 	O 	0.87461 0.04765 0.89357 -0.23000
H 	H 	0.93996 0.09605 0.89398 0.16800
H 	H 	0.87149 0.16980 0.05615 0.15000
C 	C 	0.34402 0.16245 0.96799 -0.09300
C 	C 	0.28579 0.10996 0.93154 -0.03500
C 	C 	0.19135 0.05850 0.92861 0.14300
C 	C 	0.15467 0.06060 0.96214 -0.03100
C 	C 	0.21278 0.11430 0.99842 -0.07500
C 	C 	0.30725 0.16482 0.00155 0.18100
H 	H 	0.31384 0.10860 0.90554 0.08200
O 	O 	0.13496 0.00784 0.89273 -0.23900
H 	H 	0.18459 0.11618 0.02430 0.08300
O 	O 	0.36359 0.21965 0.03686 -0.23700
H 	H 	0.37148 0.18168 0.05186 0.18300
H 	H 	0.12230 0.94870 0.89189 0.15100
