data_crystal

_cell_length_a 22.70979
_cell_length_b 22.56033
_cell_length_c 26.74216
_cell_angle_alpha 95.47778
_cell_angle_beta  95.47718
_cell_angle_gamma 126.00801

_symmetry_space_group_name_	'P 1'
_symmetry_space_group_name_H-M	'P 1'

loop_
_symmetry_equiv_pos_as_xyz
  x,y,z

loop_
_atom_site_label
_atom_site_type_symbol
_atom_site_fract_x
_atom_site_fract_y
_atom_site_fract_z
_atom_site_charge
C 	C 	0.98159 0.05459 0.98251 0.11700
N 	N 	0.05390 0.08980 0.97919 -0.14000
C 	C 	0.08337 0.05200 0.97910 0.11400
N 	N 	0.99310 0.03211 0.44892 -0.13600
Cu	Cu	0.65278 0.25228 0.01538 0.92700
Cu	Cu	0.68787 0.23076 0.90157 0.86600
O 	O 	0.54874 0.20939 0.02478 -0.37300
O 	O 	0.62659 0.24293 0.94077 -0.64000
O 	O 	0.69634 0.19727 0.01413 -0.37400
O 	O 	0.76505 0.25871 0.95561 -0.44100
C 	C 	0.51412 0.23637 0.00870 0.27700
O 	O 	0.69105 0.27966 0.08717 -0.36300
C 	C 	0.75142 0.21697 0.99026 0.28900
O 	O 	0.63562 0.22788 0.83972 -0.41800
H 	H 	0.57295 0.20869 0.92594 0.17400
Cu	Cu	0.72832 0.26901 0.54646 0.86600
O 	O 	0.60941 0.26067 0.43706 -0.64300
O 	O 	0.70887 0.20024 0.48881 -0.44200
O 	O 	0.50717 0.22892 0.50250 -0.38300
C 	C 	0.46160 0.22248 0.46393 0.28500
O 	O 	0.48655 0.26892 0.43124 -0.39300
C 	C 	0.75690 0.22148 0.45823 0.28800
H 	H 	0.57755 0.20649 0.42287 0.16400
C 	C 	0.61670 0.23848 0.24033 -0.02400
C 	C 	0.61827 0.24134 0.18834 0.03400
S 	S 	0.54184 0.16781 0.14231 -0.04400
H 	H 	0.49213 0.18300 0.13236 0.03600
H 	H 	0.56830 0.19163 0.25166 0.03500
C 	C 	0.78980 0.18201 0.44941 -0.08700
C 	C 	0.83073 0.19508 0.41014 0.01300
C 	C 	0.86528 0.16087 0.40361 -0.06700
C 	C 	0.85905 0.11290 0.43611 0.03200
C 	C 	0.81692 0.09855 0.47508 -0.00400
C 	C 	0.78249 0.13309 0.48152 -0.01500
C 	C 	0.81010 0.05013 0.50732 -0.04100
C 	C 	0.84474 0.01610 0.50094 -0.02900
C 	C 	0.88688 0.03032 0.46243 -0.00600
C 	C 	0.89423 0.07896 0.43013 -0.05500
H 	H 	0.83598 0.23192 0.38473 0.04200
H 	H 	0.89700 0.17184 0.37335 0.04700
H 	H 	0.75104 0.12279 0.51191 0.02600
H 	H 	0.77794 0.03878 0.53735 0.03400
H 	H 	0.92634 0.08948 0.40011 0.04900
C 	C 	0.10402 0.04121 0.43805 -0.00600
C 	C 	0.20782 0.14333 0.40696 -0.04000
C 	C 	0.25605 0.13316 0.43449 -0.00000
C 	C 	0.22769 0.07538 0.46313 0.03000
C 	C 	0.15164 0.02936 0.46455 -0.05300
C 	C 	0.27593 0.06527 0.49069 -0.06600
C 	C 	0.35189 0.11277 0.49051 0.00800
C 	C 	0.38077 0.17122 0.46282 -0.07600
C 	C 	0.33241 0.18072 0.43437 -0.01500
H 	H 	0.25472 0.02086 0.51253 0.04400
H 	H 	0.35416 0.22555 0.41285 0.04200
C 	C 	0.94937 0.09534 0.98107 -0.00700
C 	C 	0.97024 0.14745 0.94871 -0.02700
C 	C 	0.93786 0.18419 0.94577 -0.04300
C 	C 	0.88410 0.16920 0.97511 0.00100
C 	C 	0.86394 0.11798 0.00852 0.02700
C 	C 	0.89676 0.08131 0.01139 -0.05500
C 	C 	0.81047 0.10331 0.03805 -0.06500
C 	C 	0.77554 0.13741 0.03332 0.00600
C 	C 	0.79354 0.18661 0.99890 -0.08200
C 	C 	0.84921 0.20366 0.97072 -0.01900
H 	H 	0.01069 0.15857 0.92514 0.03900
H 	H 	0.95400 0.22366 0.92021 0.03600
H 	H 	0.88136 0.04191 0.03699 0.04900
H 	H 	0.79522 0.06477 0.06424 0.04500
H 	H 	0.73367 0.12464 0.05592 0.04200
H 	H 	0.86435 0.24250 0.94474 0.03300
C 	C 	0.16276 0.09131 0.97656 -0.00800
C 	C 	0.20046 0.15596 0.95496 -0.02900
C 	C 	0.27661 0.19649 0.95589 -0.04000
C 	C 	0.31606 0.17267 0.97803 -0.00200
C 	C 	0.27813 0.10647 0.99830 0.03300
C 	C 	0.20172 0.06618 0.99758 -0.05200
C 	C 	0.31723 0.08189 0.01961 -0.07000
C 	C 	0.39362 0.12334 0.02182 0.00700
C 	C 	0.43238 0.19064 0.00327 -0.08200
C 	C 	0.39310 0.21461 0.98068 -0.01300
H 	H 	0.17084 0.17511 0.93766 0.04200
H 	H 	0.30491 0.24666 0.93965 0.03900
H 	H 	0.17308 0.01640 0.01429 0.04700
H 	H 	0.28856 0.03076 0.03476 0.04500
H 	H 	0.42277 0.10336 0.03844 0.03600
C 	C 	0.58402 0.23893 0.73664 -0.02300
C 	C 	0.58805 0.24245 0.68495 0.03500
S 	S 	0.51569 0.16674 0.63774 -0.06900
H 	H 	0.46521 0.17931 0.62241 0.04700
H 	H 	0.53686 0.18966 0.74702 0.04400
H 	H 	0.42228 0.26573 0.96550 0.04100
C 	C 	0.13232 0.09772 0.40880 -0.02900
H 	H 	0.22886 0.18705 0.38452 0.03800
O 	O 	0.78088 0.28216 0.43967 -0.37300
H 	H 	0.38833 0.10406 0.51194 0.03300
Cu	Cu	0.61339 0.28591 0.50852 0.89600
O 	O 	0.72367 0.31284 0.60926 -0.42000
C 	C 	0.67670 0.31482 0.12027 0.29100
C 	C 	0.64311 0.28735 0.82856 0.28200
O 	O 	0.55194 0.30367 0.99768 -0.38400
C 	C 	0.66621 0.30123 0.33131 0.29100
C 	C 	0.66312 0.30384 0.61837 0.28400
O 	O 	0.70632 0.29328 0.36515 -0.36200
O 	O 	0.61983 0.30562 0.58275 -0.37600
C 	C 	0.65083 0.30510 0.67137 -0.07800
C 	C 	0.64189 0.29752 0.77500 -0.07900
C 	C 	0.67950 0.30401 0.17359 -0.07200
C 	C 	0.67571 0.29754 0.27780 -0.07400
H 	H 	0.09581 0.10663 0.38772 0.04100
Cu	Cu	0.72348 0.32289 0.43765 0.92900
Cu	Cu	0.58249 0.31540 0.40655 0.89200
O 	O 	0.64053 0.33160 0.86286 -0.37600
O 	O 	0.63050 0.32795 0.34535 -0.38500
O 	O 	0.72161 0.33690 0.51155 -0.64100
H 	H 	0.12994 0.98587 0.48727 0.04700
H 	H 	0.83913 0.97887 0.52613 0.04000
C 	C 	0.92152 0.99272 0.45514 0.11200
C 	C 	0.02560 0.99764 0.44334 0.10800
N 	N 	0.04007 0.97853 0.98253 -0.14100
C 	C 	0.96777 0.94323 0.98633 0.11400
N 	N 	0.93870 0.98139 0.98618 -0.14000
N 	N 	0.88222 0.91867 0.45545 -0.14000
C 	C 	0.91405 0.88367 0.44934 0.11300
N 	N 	0.98597 0.92331 0.44352 -0.13800
Cu	Cu	0.67259 0.34956 0.93691 0.89600
Cu	Cu	0.66048 0.39601 0.04298 0.89200
O 	O 	0.70876 0.36447 0.00820 -0.64200
O 	O 	0.67861 0.37245 0.11062 -0.38400
O 	O 	0.72559 0.45467 0.93588 -0.38300
C 	C 	0.73477 0.50374 0.97319 0.28700
O 	O 	0.69140 0.48191 0.00763 -0.39400
H 	H 	0.76348 0.39764 0.01819 0.16400
O 	O 	0.76321 0.42939 0.43582 -0.36500
C 	C 	0.73351 0.45881 0.45640 0.28000
O 	O 	0.66462 0.41545 0.46331 -0.38900
H 	H 	0.75347 0.38910 0.53043 0.17400
C 	C 	0.70625 0.36576 0.70964 -0.02300
C 	C 	0.70214 0.36239 0.76130 0.03500
S 	S 	0.77460 0.43822 0.80842 -0.07000
H 	H 	0.75757 0.48596 0.82166 0.04900
H 	H 	0.75385 0.41464 0.69926 0.04300
C 	C 	0.74055 0.36076 0.21100 -0.02100
C 	C 	0.73896 0.35795 0.26295 0.03900
S 	S 	0.81500 0.43209 0.30905 -0.03400
H 	H 	0.80291 0.48352 0.32336 0.04300
H 	H 	0.78827 0.40843 0.19973 0.04400
C 	C 	0.77446 0.54015 0.46576 -0.08000
C 	C 	0.84960 0.58678 0.48919 0.01200
C 	C 	0.89182 0.66388 0.49169 -0.06700
C 	C 	0.85952 0.69507 0.47013 0.03200
C 	C 	0.78349 0.64843 0.44737 -0.00200
C 	C 	0.74110 0.57125 0.44592 -0.01100
C 	C 	0.75137 0.67934 0.42516 -0.03900
C 	C 	0.79434 0.75583 0.42522 -0.03000
C 	C 	0.86992 0.80258 0.44782 -0.00700
C 	C 	0.90240 0.77206 0.47036 -0.05400
H 	H 	0.87560 0.56308 0.50473 0.02600
H 	H 	0.94991 0.69910 0.50956 0.04500
H 	H 	0.68313 0.53514 0.42753 0.03300
H 	H 	0.69320 0.64407 0.40748 0.03700
H 	H 	0.76892 0.77879 0.40743 0.04300
H 	H 	0.96054 0.80811 0.48829 0.04800
C 	C 	0.92102 0.86391 0.99120 -0.00500
C 	C 	0.86760 0.83859 0.02262 -0.03200
C 	C 	0.82070 0.76302 0.02557 -0.04200
C 	C 	0.82654 0.71170 0.99713 0.00100
C 	C 	0.88070 0.73686 0.96590 0.03100
C 	C 	0.92788 0.81297 0.96318 -0.05400
C 	C 	0.88659 0.68556 0.93752 -0.06600
C 	C 	0.83905 0.60982 0.93994 0.00800
C 	C 	0.78458 0.58415 0.97061 -0.07700
C 	C 	0.77871 0.63549 0.99934 -0.01200
H 	H 	0.86243 0.87755 0.04483 0.04100
H 	H 	0.77965 0.74442 0.04986 0.03800
H 	H 	0.96879 0.83225 0.93869 0.04900
H 	H 	0.92808 0.70427 0.91358 0.04500
H 	H 	0.84498 0.57116 0.91820 0.03300
H 	H 	0.73689 0.61625 0.02307 0.03900
