data_crystal

_cell_length_a 18.53252
_cell_length_b 18.92083
_cell_length_c 34.86880
_cell_angle_alpha 95.44115
_cell_angle_beta  95.44134
_cell_angle_gamma 126.41089

_symmetry_space_group_name_	'P 1'
_symmetry_space_group_name_H-M	'P 1'

loop_
_symmetry_equiv_pos_as_xyz
  x,y,z

loop_
_atom_site_label
_atom_site_type_symbol
_atom_site_fract_x
_atom_site_fract_y
_atom_site_fract_z
_atom_site_charge
C 	C 	0.87130 0.94997 0.95771 0.03000
C 	C 	0.96398 0.00105 0.95532 -0.03700
C 	C 	0.00890 0.96223 0.95589 0.00500
C 	C 	0.96014 0.87099 0.95635 -0.06400
C 	C 	0.86675 0.81841 0.95727 0.03800
C 	C 	0.82208 0.85800 0.95827 -0.07700
H 	H 	0.00222 0.07201 0.95521 0.05200
H 	H 	0.99519 0.84112 0.95668 0.05900
H 	H 	0.75043 0.81817 0.96023 0.05900
C 	C 	0.97678 0.07819 0.48607 0.06600
C 	C 	0.92610 0.98511 0.48179 -0.09800
C 	C 	0.97101 0.94656 0.48620 0.04000
C 	C 	0.06612 0.00006 0.49073 -0.06300
C 	C 	0.11719 0.09271 0.49362 0.04500
C 	C 	0.07262 0.13222 0.49197 -0.09400
H 	H 	0.85220 0.94339 0.47738 0.06400
H 	H 	0.10081 0.97006 0.49364 0.04700
H 	H 	0.11210 0.20426 0.49555 0.06300
Cu	Cu	0.72775 0.29985 0.95851 0.93100
Cu	Cu	0.72296 0.23955 0.04398 0.88300
Cu	Cu	0.57933 0.24811 0.00657 0.90200
Cu	Cu	0.55497 0.28632 0.92665 0.90100
C 	C 	0.66837 0.27101 0.87520 0.33700
O 	O 	0.77704 0.42867 0.95626 -0.34200
C 	C 	0.63919 0.28724 0.09321 0.33500
O 	O 	0.58534 0.22248 0.95285 -0.63800
O 	O 	0.71433 0.31524 0.01361 -0.64000
O 	O 	0.79126 0.24392 0.96471 -0.35900
O 	O 	0.69465 0.15028 0.00215 -0.42700
O 	O 	0.62335 0.30321 0.88284 -0.36900
O 	O 	0.44785 0.17559 0.99637 -0.36800
C 	C 	0.39752 0.17276 0.96587 0.30200
C 	C 	0.73306 0.45964 0.96731 0.29000
O 	O 	0.64841 0.40361 0.97184 -0.38400
O 	O 	0.43430 0.23169 0.94250 -0.38100
O 	O 	0.71725 0.26624 0.90352 -0.35200
C 	C 	0.75210 0.16908 0.97843 0.29700
O 	O 	0.57218 0.25519 0.06299 -0.36400
O 	O 	0.71526 0.29915 0.08870 -0.39500
H 	H 	0.54861 0.15799 0.94146 0.17700
H 	H 	0.74937 0.37797 0.02745 0.18000
Cu	Cu	0.65504 0.25557 0.51224 0.92800
Cu	Cu	0.68865 0.24845 0.42183 0.87900
Cu	Cu	0.67833 0.38850 0.46104 0.90100
Cu	Cu	0.69774 0.43940 0.54926 0.90700
C 	C 	0.70328 0.32025 0.59572 0.32600
O 	O 	0.53069 0.21166 0.52286 -0.36400
C 	C 	0.63051 0.32821 0.37556 0.33000
O 	O 	0.73524 0.39516 0.51196 -0.63500
O 	O 	0.61946 0.25847 0.45745 -0.63800
O 	O 	0.70065 0.18414 0.50169 -0.35500
O 	O 	0.78411 0.26965 0.45893 -0.42500
O 	O 	0.73681 0.40305 0.59317 -0.36200
O 	O 	0.74491 0.51647 0.46506 -0.36600
C 	C 	0.77360 0.57453 0.49777 0.29900
C 	C 	0.50113 0.25977 0.52132 0.30200
O 	O 	0.55673 0.34406 0.51813 -0.38100
O 	O 	0.73553 0.54847 0.52876 -0.38200
O 	O 	0.69963 0.26766 0.56653 -0.34300
C 	C 	0.76589 0.21114 0.48128 0.29900
O 	O 	0.63286 0.37768 0.40585 -0.35700
O 	O 	0.62115 0.25463 0.37912 -0.39400
H 	H 	0.80213 0.42815 0.51524 0.17200
H 	H 	0.55283 0.21988 0.44732 0.18300
C 	C 	0.68353 0.26282 0.83488 -0.11900
C 	C 	0.75571 0.33834 0.82233 0.12700
C 	C 	0.75939 0.33617 0.78217 0.06300
C 	C 	0.69149 0.25803 0.75460 0.01800
C 	C 	0.62476 0.17978 0.76761 0.06700
C 	C 	0.62061 0.18233 0.80780 0.12100
C 	C 	0.68455 0.26134 0.71215 0.01700
C 	C 	0.63366 0.28733 0.69521 0.06500
C 	C 	0.63948 0.30603 0.65707 0.11900
C 	C 	0.69381 0.29557 0.63503 -0.11600
C 	C 	0.74433 0.26870 0.65201 0.12800
C 	C 	0.73668 0.24831 0.68994 0.06600
Br	Br	0.53760 0.07034 0.73019 -0.15800
Br	Br	0.84840 0.44522 0.86016 -0.19000
Br	Br	0.57841 0.35258 0.63626 -0.23200
Br	Br	0.79924 0.20440 0.71196 -0.15700
Br	Br	0.52827 0.07628 0.82583 -0.21400
Br	Br	0.85510 0.44127 0.76464 -0.16100
Br	Br	0.55763 0.29956 0.72488 -0.17100
Br	Br	0.83303 0.27143 0.62592 -0.18800
C 	C 	0.62390 0.34759 0.33607 -0.12000
C 	C 	0.53833 0.29912 0.31094 0.12900
C 	C 	0.53367 0.29882 0.27037 0.06500
C 	C 	0.61465 0.34551 0.25503 0.01800
C 	C 	0.69981 0.40223 0.28077 0.06500
C 	C 	0.70418 0.40419 0.32139 0.12100
C 	C 	0.61097 0.32532 0.21240 0.01700
C 	C 	0.60831 0.25201 0.19704 0.06400
C 	C 	0.61198 0.23661 0.15729 0.12600
C 	C 	0.62303 0.29697 0.13327 -0.12100
C 	C 	0.62274 0.36863 0.14821 0.12600
C 	C 	0.61482 0.38172 0.18760 0.06700
Br	Br	0.81044 0.47308 0.26012 -0.16300
Br	Br	0.42804 0.23196 0.33209 -0.19100
Br	Br	0.59952 0.13151 0.13537 -0.21600
Br	Br	0.60999 0.47703 0.20776 -0.15700
Br	Br	0.82023 0.48183 0.35695 -0.22800
Br	Br	0.41692 0.23164 0.23555 -0.15700
Br	Br	0.60230 0.17426 0.23085 -0.16600
Br	Br	0.63641 0.45046 0.11513 -0.20800
C 	C 	0.92503 0.79458 0.46302 -0.08600
C 	C 	0.91948 0.85138 0.48934 -0.01300
C 	C 	0.87167 0.81866 0.52050 0.07100
C 	C 	0.82234 0.72767 0.52202 -0.02400
C 	C 	0.82966 0.67120 0.49627 -0.10100
C 	C 	0.88755 0.70732 0.46847 0.13500
N 	N 	0.91316 0.66172 0.44940 -0.19800
H 	H 	0.96431 0.82046 0.44000 0.06400
H 	H 	0.78020 0.70143 0.54409 0.05700
N 	N 	0.87565 0.87458 0.54975 -0.19300
H 	H 	0.94917 0.68533 0.42658 0.10900
H 	H 	0.90617 0.60824 0.45964 0.10000
H 	H 	0.92312 0.94391 0.55331 0.09100
H 	H 	0.83530 0.84880 0.57110 0.09400
C 	C 	0.88712 0.11643 0.44917 -0.07800
C 	C 	0.92898 0.11884 0.48543 -0.02300
C 	C 	0.91476 0.14913 0.52062 0.08300
C 	C 	0.85940 0.17713 0.51864 -0.02600
C 	C 	0.81654 0.17348 0.48234 -0.09800
C 	C 	0.82773 0.13955 0.44725 0.12200
N 	N 	0.77837 0.12484 0.41191 -0.19700
H 	H 	0.89673 0.09160 0.42232 0.06200
H 	H 	0.85044 0.20263 0.54545 0.07300
N 	N 	0.95357 0.15120 0.55628 -0.19500
H 	H 	0.79069 0.10453 0.38602 0.09500
H 	H 	0.72355 0.12756 0.40993 0.05900
H 	H 	0.99529 0.13123 0.55890 0.09800
H 	H 	0.94222 0.17321 0.58203 0.11000
C 	C 	0.26080 0.15228 0.53844 -0.08600
C 	C 	0.21789 0.14833 0.50204 -0.01400
C 	C 	0.26878 0.18113 0.47175 0.07600
C 	C 	0.36099 0.21555 0.47842 -0.02100
C 	C 	0.40216 0.21470 0.51409 -0.10500
C 	C 	0.35058 0.17981 0.54392 0.13700
N 	N 	0.38539 0.16944 0.57716 -0.20300
H 	H 	0.22161 0.12679 0.56153 0.06300
H 	H 	0.40073 0.24263 0.45562 0.04800
N 	N 	0.22956 0.17907 0.43621 -0.19400
H 	H 	0.34862 0.14808 0.59990 0.11100
H 	H 	0.44650 0.17747 0.57990 0.12100
H 	H 	0.16157 0.15493 0.43032 0.09800
H 	H 	0.26750 0.20246 0.41394 0.10500
C 	C 	0.77936 0.57920 0.92897 -0.02800
C 	C 	0.77009 0.55286 0.96556 -0.09700
C 	C 	0.78234 0.61093 0.99871 0.13000
C 	C 	0.80462 0.69467 0.99455 -0.08000
C 	C 	0.81703 0.72217 0.95820 -0.01600
C 	C 	0.80067 0.66242 0.92479 0.07900
N 	N 	0.80460 0.68435 0.88860 -0.19400
H 	H 	0.76641 0.53332 0.90332 0.06700
H 	H 	0.81722 0.74050 0.02015 0.05700
N 	N 	0.77542 0.58791 0.03473 -0.20200
H 	H 	0.79568 0.64141 0.86423 0.10600
H 	H 	0.81336 0.74260 0.88410 0.09700
H 	H 	0.76569 0.52934 0.03941 0.10100
H 	H 	0.78229 0.63012 0.05885 0.10700
C 	C 	0.78655 0.00396 0.93108 -0.05200
C 	C 	0.82911 0.99542 0.96386 -0.03700
C 	C 	0.84538 0.04349 0.00139 0.08600
C 	C 	0.82339 0.10288 0.00506 -0.03200
C 	C 	0.78247 0.11289 0.97225 -0.09700
C 	C 	0.76212 0.06164 0.93491 0.12500
N 	N 	0.71863 0.06668 0.90281 -0.20100
H 	H 	0.77418 0.96714 0.90235 0.04800
H 	H 	0.83691 0.14050 0.03377 0.03500
N 	N 	0.88200 0.03286 0.03400 -0.18900
H 	H 	0.70495 0.02939 0.87534 0.11200
H 	H 	0.69672 0.10630 0.90477 0.11700
H 	H 	0.89383 0.98527 0.03268 0.08400
H 	H 	0.89659 0.07074 0.06143 0.09500
C 	C 	0.14347 0.01468 0.92519 -0.07600
C 	C 	0.10848 0.01827 0.95861 0.00300
C 	C 	0.16866 0.07078 0.99483 0.07200
C 	C 	0.26302 0.12058 0.99655 -0.01500
C 	C 	0.29805 0.11641 0.96321 -0.10100
C 	C 	0.23765 0.06104 0.92738 0.12800
N 	N 	0.26923 0.04958 0.89551 -0.20000
H 	H 	0.09695 0.97318 0.89768 0.05200
H 	H 	0.30944 0.16290 0.02397 0.05900
N 	N 	0.13637 0.07296 0.02807 -0.19300
H 	H 	0.22446 0.01140 0.86879 0.10300
H 	H 	0.33730 0.07461 0.89734 0.09300
H 	H 	0.06655 0.03393 0.02832 0.09500
H 	H 	0.18157 0.11311 0.05448 0.10100
