data_crystal

_cell_length_a 18.64163
_cell_length_b 18.91382
_cell_length_c 40.09561
_cell_angle_alpha 95.43206
_cell_angle_beta  95.43214
_cell_angle_gamma 126.41421

_symmetry_space_group_name_	'P 1'
_symmetry_space_group_name_H-M	'P 1'

loop_
_symmetry_equiv_pos_as_xyz
  x,y,z

loop_
_atom_site_label
_atom_site_type_symbol
_atom_site_fract_x
_atom_site_fract_y
_atom_site_fract_z
_atom_site_charge
C 	C 	0.95150 0.02613 0.97574 0.04600
C 	C 	0.90219 0.93315 0.97419 -0.09100
C 	C 	0.94857 0.89562 0.97686 0.04700
C 	C 	0.04326 0.95085 0.98114 -0.09500
C 	C 	0.09195 0.04273 0.98225 0.04300
C 	C 	0.04653 0.08067 0.98055 -0.09400
H 	H 	0.82877 0.89055 0.97066 0.05000
H 	H 	0.07891 0.92186 0.98265 0.05200
H 	H 	0.08485 0.15227 0.98199 0.05200
C 	C 	0.90496 0.01114 0.49920 0.02900
C 	C 	0.99750 0.05929 0.49774 -0.06500
C 	C 	0.03732 0.01544 0.49701 0.01700
C 	C 	0.98434 0.92360 0.49694 -0.06500
C 	C 	0.89217 0.87557 0.49815 0.02900
C 	C 	0.85285 0.91957 0.49998 -0.07800
H 	H 	0.03799 0.13009 0.49700 0.04000
H 	H 	0.01478 0.88941 0.49571 0.04300
H 	H 	0.78119 0.88209 0.50080 0.04900
Cu	Cu	0.79100 0.36366 0.96174 0.92300
Cu	Cu	0.82944 0.33163 0.04195 0.86700
Cu	Cu	0.65616 0.30900 0.00993 0.89500
Cu	Cu	0.61947 0.36018 0.94481 0.89500
C 	C 	0.70462 0.32895 0.89196 0.28600
O 	O 	0.84523 0.49492 0.96149 -0.35800
C 	C 	0.71560 0.34133 0.08314 0.27700
O 	O 	0.65189 0.29192 0.96202 -0.64500
O 	O 	0.79062 0.38187 0.01176 -0.64000
O 	O 	0.83969 0.29255 0.95838 -0.35900
O 	O 	0.90022 0.32151 0.01429 -0.41900
O 	O 	0.66986 0.36926 0.90231 -0.38700
O 	O 	0.52588 0.23660 0.00453 -0.39500
C 	C 	0.47514 0.24848 0.98432 0.30000
C 	C 	0.80728 0.52956 0.97415 0.28500
O 	O 	0.72665 0.47698 0.98182 -0.39000
O 	O 	0.51115 0.31368 0.96663 -0.39900
O 	O 	0.76681 0.33258 0.91275 -0.36100
C 	C 	0.86286 0.26815 0.98448 0.27800
O 	O 	0.66227 0.33976 0.05844 -0.38600
O 	O 	0.79885 0.37201 0.08014 -0.41600
H 	H 	0.61238 0.22821 0.95067 0.15400
H 	H 	0.82104 0.44508 0.02203 0.17000
Cu	Cu	0.57403 0.18059 0.50245 0.92700
Cu	Cu	0.64231 0.18477 0.42968 0.87100
Cu	Cu	0.62088 0.31957 0.45775 0.89600
Cu	Cu	0.57459 0.34383 0.52531 0.89300
C 	C 	0.59627 0.24345 0.57373 0.28900
O 	O 	0.44183 0.12649 0.50267 -0.36500
C 	C 	0.59125 0.25848 0.38302 0.28700
O 	O 	0.64651 0.31905 0.50524 -0.63900
O 	O 	0.55925 0.18852 0.45363 -0.64000
O 	O 	0.63192 0.11953 0.50012 -0.37300
O 	O 	0.72862 0.21322 0.46787 -0.44200
O 	O 	0.55753 0.28054 0.56450 -0.39100
O 	O 	0.68800 0.44789 0.46489 -0.38600
C 	C 	0.68631 0.49626 0.49036 0.29800
C 	C 	0.40639 0.16383 0.49050 0.29100
O 	O 	0.46004 0.24600 0.48538 -0.40000
O 	O 	0.62443 0.45881 0.50978 -0.40000
O 	O 	0.60697 0.19675 0.55089 -0.36400
C 	C 	0.70662 0.15467 0.48768 0.29900
O 	O 	0.61347 0.32240 0.40836 -0.38700
O 	O 	0.58322 0.18689 0.38884 -0.42300
H 	H 	0.71177 0.35876 0.51579 0.16100
H 	H 	0.49598 0.15051 0.44083 0.17100
C 	C 	0.69110 0.29990 0.85498 -0.08800
C 	C 	0.60561 0.25730 0.83440 0.01400
C 	C 	0.59467 0.23905 0.79892 -0.07200
C 	C 	0.66902 0.26329 0.78370 0.03800
C 	C 	0.75369 0.30257 0.80418 -0.07100
C 	C 	0.76476 0.32068 0.83974 0.01800
C 	C 	0.65978 0.25442 0.74715 -0.02400
C 	C 	0.64893 0.24581 0.71649 -0.02400
C 	C 	0.63269 0.23655 0.67992 0.03800
C 	C 	0.70031 0.25449 0.66147 -0.07100
C 	C 	0.68724 0.25360 0.62639 0.01500
C 	C 	0.60684 0.23567 0.60974 -0.08800
C 	C 	0.53817 0.21488 0.62811 0.01800
C 	C 	0.55110 0.21529 0.66303 -0.07200
H 	H 	0.54805 0.23993 0.84587 0.01800
H 	H 	0.52887 0.20814 0.78324 0.04400
H 	H 	0.81144 0.32122 0.79258 0.04700
H 	H 	0.83112 0.35354 0.85530 0.03700
H 	H 	0.76351 0.27073 0.67435 0.04600
H 	H 	0.74047 0.26924 0.61242 0.02700
H 	H 	0.47519 0.19942 0.61540 0.03000
H 	H 	0.49834 0.20083 0.67709 0.04500
C 	C 	0.58297 0.27108 0.34746 -0.09300
C 	C 	0.63869 0.35702 0.33957 0.01300
C 	C 	0.64416 0.36730 0.30559 -0.07200
C 	C 	0.59369 0.29197 0.27928 0.03700
C 	C 	0.53316 0.20680 0.28691 -0.07300
C 	C 	0.52761 0.19632 0.32086 0.01500
C 	C 	0.61219 0.30083 0.24522 -0.02500
C 	C 	0.62739 0.30783 0.21665 -0.02500
C 	C 	0.64832 0.31542 0.18288 0.03700
C 	C 	0.71178 0.30337 0.17406 -0.07300
C 	C 	0.73324 0.31141 0.14151 0.01200
C 	C 	0.69163 0.33203 0.11742 -0.09200
C 	C 	0.62720 0.34327 0.12624 0.01500
C 	C 	0.60580 0.33507 0.15890 -0.07300
H 	H 	0.68111 0.41541 0.35978 0.03200
H 	H 	0.69046 0.43350 0.29985 0.04600
H 	H 	0.49302 0.14833 0.26667 0.04400
H 	H 	0.48266 0.12984 0.32652 0.02700
H 	H 	0.74456 0.28773 0.19245 0.04400
H 	H 	0.78192 0.30119 0.13495 0.01700
H 	H 	0.59443 0.35918 0.10802 0.03200
H 	H 	0.55646 0.34427 0.16553 0.04500
C 	C 	0.84103 0.74488 0.52536 -0.08600
C 	C 	0.83618 0.77830 0.49622 -0.00900
C 	C 	0.78389 0.71910 0.46482 0.03000
C 	C 	0.73591 0.62687 0.46324 -0.01600
C 	C 	0.74090 0.59338 0.49239 -0.10700
C 	C 	0.79547 0.65291 0.52356 0.09100
C 	C 	0.80488 0.61880 0.55495 -0.19700
H 	H 	0.88195 0.79084 0.54933 0.04800
H 	H 	0.69391 0.58093 0.43938 0.04200
C 	C 	0.77886 0.75403 0.43305 -0.17400
H 	H 	0.86285 0.67383 0.57491 0.06300
H 	H 	0.81736 0.56896 0.54858 0.05800
H 	H 	0.74199 0.58737 0.56574 0.06400
H 	H 	0.84816 0.80335 0.42804 0.06400
H 	H 	0.74569 0.78664 0.43632 0.06200
H 	H 	0.73908 0.69952 0.41025 0.06000
C 	C 	0.81239 0.04153 0.46443 -0.08400
C 	C 	0.86012 0.05398 0.49633 -0.00900
C 	C 	0.85652 0.09868 0.52565 0.03000
C 	C 	0.80434 0.12973 0.52255 -0.01500
C 	C 	0.75609 0.11665 0.49063 -0.11100
C 	C 	0.75850 0.07043 0.46143 0.08700
C 	C 	0.70420 0.05212 0.42701 -0.19100
H 	H 	0.81513 0.00682 0.44204 0.04700
H 	H 	0.80189 0.16476 0.54491 0.03700
C 	C 	0.90717 0.11232 0.56022 -0.17400
H 	H 	0.69902 0.00080 0.40862 0.05900
H 	H 	0.73746 0.11454 0.41646 0.03500
H 	H 	0.63396 0.02651 0.42920 0.03500
H 	H 	0.98061 0.14972 0.55971 0.06300
H 	H 	0.88043 0.04649 0.56721 0.06400
H 	H 	0.89993 0.15105 0.58038 0.06100
C 	C 	0.16221 0.07434 0.46446 -0.08900
C 	C 	0.13456 0.06505 0.49611 -0.00600
C 	C 	0.19693 0.08943 0.52597 0.02700
C 	C 	0.28421 0.11696 0.52341 -0.01900
C 	C 	0.31126 0.12426 0.49167 -0.11000
C 	C 	0.25004 0.10312 0.46194 0.09300
C 	C 	0.27797 0.11096 0.42756 -0.20100
H 	H 	0.11417 0.05595 0.44162 0.04700
H 	H 	0.33193 0.13461 0.54625 0.03900
C 	C 	0.16948 0.08280 0.56041 -0.17200
H 	H 	0.21908 0.08061 0.40646 0.06400
H 	H 	0.30837 0.07584 0.42342 0.06300
H 	H 	0.32842 0.18257 0.42623 0.07200
H 	H 	0.12402 0.01150 0.56295 0.06200
H 	H 	0.13350 0.11262 0.56343 0.06000
H 	H 	0.22948 0.11923 0.58147 0.05800
C 	C 	0.85882 0.65767 0.94482 -0.02300
C 	C 	0.84892 0.62516 0.97541 -0.10400
C 	C 	0.86447 0.67980 0.00608 0.09100
C 	C 	0.88722 0.76503 0.00546 -0.08300
C 	C 	0.89885 0.79823 0.97500 -0.01600
C 	C 	0.88197 0.74311 0.94425 0.03300
C 	C 	0.89264 0.77667 0.91106 -0.17600
H 	H 	0.84593 0.61542 0.92123 0.04100
H 	H 	0.90032 0.80740 0.02903 0.04800
C 	C 	0.85660 0.64752 0.03951 -0.19900
H 	H 	0.85992 0.72096 0.88880 0.06100
H 	H 	0.96584 0.82482 0.91022 0.06300
H 	H 	0.86033 0.81031 0.90851 0.06200
H 	H 	0.89111 0.61599 0.04197 0.06500
H 	H 	0.78394 0.59806 0.04088 0.07500
H 	H 	0.88890 0.70361 0.06159 0.06600
C 	C 	0.86643 0.07517 0.00018 -0.07700
C 	C 	0.90446 0.06750 0.97282 -0.01700
C 	C 	0.91241 0.11370 0.94591 0.03300
C 	C 	0.89657 0.17784 0.94954 -0.02000
C 	C 	0.86654 0.19162 0.97854 -0.10200
C 	C 	0.84438 0.13463 0.00264 0.07600
C 	C 	0.79957 0.13833 0.03146 -0.18300
H 	H 	0.85727 0.03749 0.02027 0.04600
H 	H 	0.90996 0.21851 0.93022 0.04700
C 	C 	0.94296 0.09893 0.91425 -0.16900
H 	H 	0.76446 0.07522 0.04164 0.05500
H 	H 	0.74761 0.14725 0.02257 0.01400
H 	H 	0.85152 0.19449 0.05250 0.03600
H 	H 	0.91653 0.02808 0.90746 0.06100
H 	H 	0.01824 0.14301 0.91852 0.05600
H 	H 	0.91736 0.11444 0.89214 0.06100
C 	C 	0.25086 0.14342 0.01386 -0.08800
C 	C 	0.19008 0.09823 0.98262 -0.01300
C 	C 	0.22302 0.10289 0.95199 0.02800
C 	C 	0.31644 0.15019 0.95323 -0.01700
C 	C 	0.37744 0.19508 0.98444 -0.11300
C 	C 	0.34470 0.19345 0.01502 0.09900
C 	C 	0.40906 0.24414 0.04886 -0.20400
H 	H 	0.22501 0.13955 0.03728 0.04800
H 	H 	0.34194 0.15251 0.92982 0.02600
C 	C 	0.15860 0.05562 0.91806 -0.17100
H 	H 	0.37398 0.24765 0.06913 0.06600
H 	H 	0.46469 0.31395 0.04694 0.07800
H 	H 	0.43827 0.21020 0.05687 0.08100
H 	H 	0.11210 0.07406 0.91528 0.05900
H 	H 	0.11811 0.98214 0.91627 0.05700
H 	H 	0.19544 0.07398 0.89639 0.05600
