data_crystal

_cell_length_a 18.61133
_cell_length_b 18.86754
_cell_length_c 28.58051
_cell_angle_alpha 95.42357
_cell_angle_beta  95.42543
_cell_angle_gamma 126.40420

_symmetry_space_group_name_	'P 1'
_symmetry_space_group_name_H-M	'P 1'

loop_
_symmetry_equiv_pos_as_xyz
  x,y,z

loop_
_atom_site_label
_atom_site_type_symbol
_atom_site_fract_x
_atom_site_fract_y
_atom_site_fract_z
_atom_site_charge
C 	C 	0.91134 0.99836 0.95542 0.13900
N 	N 	0.86554 0.90977 0.95743 -0.12400
C 	C 	0.91119 0.87404 0.95974 0.11500
N 	N 	0.00196 0.92691 0.96074 -0.10700
C 	C 	0.04732 0.01480 0.95862 0.11900
N 	N 	0.00199 0.05033 0.95568 -0.12200
C 	C 	0.95046 0.03551 0.50077 0.10000
N 	N 	0.04002 0.08088 0.49872 -0.11300
C 	C 	0.07627 0.03616 0.49571 0.12100
N 	N 	0.02309 0.94659 0.49443 -0.10700
C 	C 	0.93405 0.90151 0.49672 0.11600
N 	N 	0.89775 0.94593 0.50002 -0.11700
Cu	Cu	0.75534 0.34185 0.94767 0.92900
Cu	Cu	0.75362 0.27659 0.05022 0.87900
Cu	Cu	0.61665 0.29810 0.01232 0.89700
Cu	Cu	0.58577 0.33722 0.91637 0.90200
C 	C 	0.68290 0.31055 0.84766 0.30700
O 	O 	0.80924 0.47294 0.94635 -0.34400
C 	C 	0.67911 0.32446 0.11667 0.30400
O 	O 	0.61460 0.26962 0.94558 -0.63500
O 	O 	0.74959 0.35867 0.01653 -0.64200
O 	O 	0.81591 0.28210 0.95076 -0.35200
O 	O 	0.72071 0.18921 0.99684 -0.42100
O 	O 	0.64603 0.34967 0.86031 -0.37000
O 	O 	0.48622 0.23087 0.00403 -0.37800
C 	C 	0.43483 0.23033 0.96859 0.30400
C 	C 	0.76952 0.50739 0.96181 0.28200
O 	O 	0.68677 0.45424 0.97010 -0.37700
O 	O 	0.47028 0.28870 0.93970 -0.37700
O 	O 	0.73698 0.30744 0.87944 -0.34700
C 	C 	0.77894 0.20832 0.96861 0.28800
O 	O 	0.61768 0.31173 0.08213 -0.36500
O 	O 	0.75276 0.33545 0.10766 -0.40300
H 	H 	0.57450 0.20467 0.93185 0.17500
H 	H 	0.78874 0.42152 0.03403 0.18400
Cu	Cu	0.62094 0.20842 0.51268 0.93000
Cu	Cu	0.68666 0.20994 0.41006 0.88200
Cu	Cu	0.66148 0.34309 0.44731 0.90000
Cu	Cu	0.62171 0.37291 0.54313 0.90200
C 	C 	0.65229 0.28012 0.61253 0.30700
O 	O 	0.48863 0.15329 0.51440 -0.34800
C 	C 	0.63707 0.28243 0.34328 0.30300
O 	O 	0.69210 0.34676 0.51410 -0.63800
O 	O 	0.60254 0.21254 0.44362 -0.63600
O 	O 	0.67979 0.14789 0.50962 -0.35600
O 	O 	0.77437 0.24124 0.46357 -0.42900
O 	O 	0.61132 0.31514 0.59968 -0.37000
O 	O 	0.72718 0.47127 0.45507 -0.37100
C 	C 	0.72566 0.52124 0.48996 0.29500
C 	C 	0.45172 0.18977 0.49780 0.28600
O 	O 	0.50380 0.27152 0.48951 -0.38200
O 	O 	0.66722 0.48545 0.51916 -0.37700
O 	O 	0.65704 0.22787 0.58087 -0.34600
C 	C 	0.75397 0.18318 0.49154 0.29500
O 	O 	0.64522 0.34059 0.37747 -0.36300
O 	O 	0.62716 0.21036 0.35234 -0.40100
H 	H 	0.75801 0.38751 0.52768 0.17400
H 	H 	0.53879 0.17271 0.42616 0.18700
C 	C 	0.68482 0.29507 0.79773 -0.07000
C 	C 	0.68321 0.28627 0.75517 0.05000
C 	C 	0.67724 0.28033 0.70507 0.05000
C 	C 	0.66824 0.27858 0.66249 -0.07100
C 	C 	0.63913 0.29790 0.29496 -0.08100
C 	C 	0.64399 0.30830 0.25403 0.04500
C 	C 	0.65304 0.31735 0.20594 0.04600
C 	C 	0.66349 0.32227 0.16501 -0.08300
C 	C 	0.87712 0.80442 0.49596 -0.00200
C 	C 	0.89277 0.77170 0.53492 -0.01500
C 	C 	0.84518 0.67885 0.53221 0.01300
C 	C 	0.77925 0.61840 0.49131 -0.07100
C 	C 	0.76141 0.65102 0.45295 0.01900
C 	C 	0.81107 0.74404 0.45506 -0.02300
C 	C 	0.95702 0.83368 0.57805 0.07900
C 	C 	0.69087 0.58883 0.41172 0.09500
C 	C 	0.79522 0.77773 0.41490 0.10500
C 	C 	0.86501 0.64539 0.57118 0.07700
N 	N 	0.78250 0.80450 0.38284 -0.09700
N 	N 	0.88078 0.61865 0.60223 -0.11200
N 	N 	0.63462 0.53922 0.37885 -0.09600
N 	N 	0.00824 0.88309 0.61245 -0.07100
C 	C 	0.90801 0.08105 0.49838 0.00400
C 	C 	0.90227 0.12061 0.54087 -0.02900
C 	C 	0.85055 0.15293 0.53883 0.02200
C 	C 	0.80353 0.14443 0.49434 -0.08300
C 	C 	0.80868 0.10383 0.45195 0.02000
C 	C 	0.86393 0.07577 0.45387 -0.02900
C 	C 	0.94954 0.12796 0.58658 0.10000
C 	C 	0.75438 0.08776 0.40663 0.04900
C 	C 	0.87615 0.04208 0.40996 0.10000
C 	C 	0.84632 0.19547 0.58238 0.08800
N 	N 	0.88605 0.01535 0.37495 -0.10400
N 	N 	0.84290 0.22941 0.61711 -0.09800
N 	N 	0.71108 0.07481 0.37045 -0.13600
N 	N 	0.98730 0.13377 0.62302 -0.10500
C 	C 	0.17432 0.08512 0.49674 0.00100
C 	C 	0.20714 0.09534 0.45348 -0.02300
C 	C 	0.29694 0.12543 0.45349 0.01700
C 	C 	0.35428 0.14608 0.49687 -0.07300
C 	C 	0.32128 0.13614 0.54019 0.01600
C 	C 	0.23236 0.10834 0.54021 -0.02300
C 	C 	0.14822 0.07436 0.40896 0.10600
C 	C 	0.37857 0.15412 0.58472 0.08900
C 	C 	0.20048 0.10395 0.58503 0.10600
C 	C 	0.32995 0.13368 0.40880 0.08300
N 	N 	0.17502 0.10054 0.62077 -0.09500
N 	N 	0.35637 0.14031 0.37318 -0.10500
N 	N 	0.42383 0.16812 0.62036 -0.09600
N 	N 	0.10112 0.05758 0.37346 -0.09500
C 	C 	0.86235 0.77714 0.95935 0.01100
C 	C 	0.84318 0.72004 0.91669 -0.02600
C 	C 	0.82032 0.63437 0.91803 0.01300
C 	C 	0.81075 0.60309 0.96176 -0.06200
C 	C 	0.82697 0.65922 0.00426 0.00700
C 	C 	0.85212 0.74584 0.00298 -0.03300
C 	C 	0.84702 0.74963 0.87133 0.10300
C 	C 	0.81940 0.62840 0.04944 0.08200
C 	C 	0.86849 0.80322 0.04664 0.10300
C 	C 	0.80729 0.57884 0.87444 0.08900
N 	N 	0.88159 0.84905 0.08147 -0.09900
N 	N 	0.79724 0.53496 0.83955 -0.09700
N 	N 	0.81333 0.60374 0.08546 -0.10700
N 	N 	0.85002 0.77329 0.83517 -0.09900
C 	C 	0.86560 0.04101 0.95876 -0.01000
C 	C 	0.87303 0.08499 0.00369 -0.02800
C 	C 	0.85206 0.14568 0.00649 0.00600
C 	C 	0.81502 0.15614 0.96457 -0.06600
C 	C 	0.80346 0.10881 0.91964 0.01300
C 	C 	0.82939 0.05180 0.91673 -0.01600
C 	C 	0.90237 0.06773 0.04711 0.09500
C 	C 	0.76433 0.11814 0.87652 0.09200
C 	C 	0.81905 0.00442 0.87056 0.08100
C 	C 	0.87170 0.19979 0.05232 0.05200
N 	N 	0.81084 0.96655 0.83373 -0.08500
N 	N 	0.88747 0.24295 0.08890 -0.13700
N 	N 	0.73311 0.12561 0.84213 -0.09900
N 	N 	0.92566 0.05384 0.08175 -0.10400
C 	C 	0.14628 0.07203 0.96059 0.01600
C 	C 	0.20564 0.13790 0.00164 -0.03500
C 	C 	0.30036 0.18989 0.00436 0.01500
C 	C 	0.33584 0.17450 0.96653 -0.06700
C 	C 	0.27645 0.10827 0.92563 0.02300
C 	C 	0.18177 0.05812 0.92233 -0.04200
C 	C 	0.16920 0.15116 0.04137 0.10700
C 	C 	0.31291 0.09092 0.88727 0.07400
C 	C 	0.12076 0.99306 0.87928 0.13200
C 	C 	0.36131 0.26034 0.04563 0.09500
N 	N 	0.07212 0.94119 0.84495 -0.09300
N 	N 	0.40994 0.31651 0.07855 -0.09600
N 	N 	0.34205 0.07713 0.85670 -0.11000
N 	N 	0.14024 0.16182 0.07308 -0.09600
