data_crystal

_cell_length_a 17.91376
_cell_length_b 17.46224
_cell_length_c 47.23229
_cell_angle_alpha 90.71197
_cell_angle_beta  91.00319
_cell_angle_gamma 110.78362

_symmetry_space_group_name_	'P 1'
_symmetry_space_group_name_H-M	'P 1'

loop_
_symmetry_equiv_pos_as_xyz
  x,y,z

loop_
_atom_site_label
_atom_site_type_symbol
_atom_site_fract_x
_atom_site_fract_y
_atom_site_fract_z
_atom_site_charge
O 	O 	0.04830 0.88577 0.75299 -0.69300
Ni	Ni	0.06776 0.99679 0.77170 1.10300
O 	O 	0.11602 0.81406 0.70678 -0.37900
Ni	Ni	0.15069 0.87126 0.74604 1.07700
O 	O 	0.20606 0.97984 0.72636 -0.38300
O 	O 	0.14857 0.99789 0.80287 -0.35700
O 	O 	0.99087 0.99625 0.73919 -0.70800
O 	O 	0.06047 0.10282 0.78920 -0.33300
H 	H 	0.01739 0.84214 0.76576 0.17100
H 	H 	0.01347 0.04417 0.72694 0.19400
C 	C 	0.21912 0.05209 0.73812 0.29400
C 	C 	0.04295 0.76325 0.70185 0.30000
C 	C 	0.21184 0.97879 0.79770 0.29900
C 	C 	0.99089 0.11074 0.79295 0.28200
O 	O 	0.15923 0.07127 0.74773 -0.36100
O 	O 	0.20394 0.90883 0.78478 -0.38500
Ni	Ni	0.37349 0.75962 0.41103 1.10000
O 	O 	0.35704 0.68496 0.37552 -0.69600
Ni	Ni	0.24477 0.67606 0.36404 1.10100
O 	O 	0.46935 0.73680 0.42782 -0.36100
O 	O 	0.45653 0.61210 0.40942 -0.39000
O 	O 	0.45286 0.85817 0.39079 -0.36400
Ni	Ni	0.35176 0.57323 0.38493 1.07300
O 	O 	0.35876 0.93141 0.41695 -0.39400
O 	O 	0.28507 0.57399 0.41947 -0.41900
O 	O 	0.22602 0.59113 0.33202 -0.36000
O 	O 	0.26722 0.75833 0.39702 -0.70400
O 	O 	0.38120 0.83491 0.44483 -0.37200
O 	O 	0.13797 0.69009 0.35415 -0.35200
O 	O 	0.19761 0.82886 0.35190 -0.39100
Ni	Ni	0.28077 0.86930 0.38513 1.08000
H 	H 	0.39561 0.70890 0.36045 0.18100
H 	H 	0.22699 0.74074 0.41199 0.16600
C 	C 	0.21265 0.57655 0.41680 0.26700
O 	O 	0.36845 0.87709 0.35714 -0.39400
C 	C 	0.46648 0.66164 0.43143 0.28500
C 	C 	0.23237 0.51981 0.33694 0.30500
C 	C 	0.44050 0.88277 0.36551 0.30100
C 	C 	0.13271 0.76336 0.35382 0.29600
C 	C 	0.36184 0.90060 0.44227 0.27800
O 	O 	0.18365 0.58568 0.39166 -0.36000
O 	O 	0.25194 0.50358 0.36257 -0.40000
Ni	Ni	0.37928 0.66194 0.13642 1.10400
O 	O 	0.28545 0.63443 0.10771 -0.69900
Ni	Ni	0.21408 0.68312 0.12716 1.10100
O 	O 	0.41989 0.57184 0.12283 -0.36000
O 	O 	0.29368 0.47956 0.12189 -0.40500
O 	O 	0.45216 0.74016 0.10745 -0.36500
Ni	Ni	0.22174 0.52190 0.09670 1.07500
O 	O 	0.48972 0.83517 0.15452 -0.40000
O 	O 	0.12726 0.49023 0.12368 -0.38400
O 	O 	0.11268 0.63388 0.10177 -0.35700
O 	O 	0.31536 0.72457 0.15255 -0.70100
O 	O 	0.47172 0.70170 0.16511 -0.35700
O 	O 	0.16559 0.75749 0.14817 -0.33700
O 	O 	0.27685 0.86964 0.14063 -0.40300
Ni	Ni	0.37795 0.84024 0.14818 1.07400
H 	H 	0.30300 0.66468 0.09003 0.15400
H 	H 	0.30429 0.71142 0.17273 0.18400
C 	C 	0.13200 0.51627 0.15002 0.31500
O 	O 	0.38495 0.82927 0.10559 -0.41300
C 	C 	0.36894 0.49929 0.11506 0.28000
C 	C 	0.11356 0.60572 0.07557 0.27700
C 	C 	0.43453 0.79811 0.09445 0.28500
C 	C 	0.21012 0.83432 0.15417 0.29000
C 	C 	0.50672 0.78117 0.17042 0.29700
O 	O 	0.16871 0.59407 0.15676 -0.36200
O 	O 	0.15982 0.56403 0.06857 -0.40600
O 	O 	0.07366 0.19200 0.25578 -0.35300
O 	O 	0.13025 0.06350 0.25206 -0.38400
O 	O 	0.04723 0.06392 0.21448 -0.33000
Ni	Ni	0.06169 0.02969 0.28721 1.07500
O 	O 	0.08087 0.14684 0.30049 -0.38600
C 	C 	0.08858 0.20685 0.28303 0.29600
C 	C 	0.10210 0.03919 0.22605 0.28700
C 	C 	0.12432 0.40408 0.18216 -0.02500
C 	C 	0.08941 0.45817 0.17174 -0.07500
C 	C 	0.00812 0.44355 0.17686 0.12100
C 	C 	0.96226 0.37293 0.19134 -0.03700
C 	C 	0.99569 0.31450 0.19946 -0.07500
C 	C 	0.07755 0.33011 0.19412 0.10700
N 	N 	0.11092 0.26758 0.19732 -0.02200
H 	H 	0.18660 0.41495 0.17804 0.06600
N 	N 	0.97109 0.49839 0.16641 -0.03200
O 	O 	0.09431 0.20926 0.17824 -0.06100
O 	O 	0.17260 0.28095 0.21416 -0.07900
O 	O 	0.90492 0.47003 0.15149 -0.09900
O 	O 	0.00146 0.57611 0.17290 -0.06000
O 	O 	0.50361 0.70394 0.24816 -0.07700
O 	O 	0.44521 0.78664 0.22910 -0.10900
C 	C 	0.19351 0.96655 0.16493 -0.02000
C 	C 	0.17936 0.88506 0.17230 -0.07800
C 	C 	0.14516 0.85645 0.19860 0.10300
C 	C 	0.12319 0.90877 0.21663 -0.03300
C 	C 	0.13683 0.98989 0.20907 -0.06100
C 	C 	0.17526 0.01984 0.18361 0.09300
N 	N 	0.20110 0.10542 0.17762 -0.01700
H 	H 	0.22188 0.98954 0.14513 0.07000
H 	H 	0.09546 0.88626 0.23655 0.05600
N 	N 	0.13513 0.77538 0.20749 -0.02000
O 	O 	0.24390 0.15900 0.19634 -0.07700
O 	O 	0.19208 0.12881 0.15214 -0.08600
O 	O 	0.19738 0.75498 0.21203 -0.10500
O 	O 	0.06476 0.72538 0.21420 -0.06800
N 	N 	0.44494 0.85734 0.30492 -0.01900
O 	O 	0.40333 0.87990 0.28614 -0.09200
O 	O 	0.43126 0.77984 0.30846 -0.10800
C 	C 	0.19300 0.34627 0.28419 -0.02300
C 	C 	0.11995 0.29208 0.29389 -0.07400
C 	C 	0.07921 0.31885 0.31493 0.09100
C 	C 	0.11255 0.39839 0.32624 -0.01800
C 	C 	0.18843 0.45008 0.31825 -0.07100
C 	C 	0.22762 0.42515 0.29634 0.09300
N 	N 	0.30365 0.47875 0.28697 -0.02700
H 	H 	0.22440 0.32621 0.26798 0.08100
H 	H 	0.08196 0.41787 0.34291 0.07700
N 	N 	0.00516 0.26480 0.32553 -0.02500
O 	O 	0.36251 0.45208 0.28461 -0.10000
O 	O 	0.31276 0.55277 0.27931 -0.08200
O 	O 	0.94117 0.28316 0.32260 -0.12800
C 	C 	0.96903 0.84578 0.36466 -0.03700
C 	C 	0.94663 0.84966 0.33628 -0.06500
C 	C 	0.96241 0.79732 0.31618 0.06400
C 	C 	0.01801 0.75992 0.32296 -0.00900
C 	C 	0.05433 0.77170 0.35000 -0.08200
C 	C 	0.02442 0.80856 0.37156 0.09600
N 	N 	0.05275 0.81156 0.40022 -0.01900
H 	H 	0.03666 0.72647 0.30675 0.07300
N 	N 	0.92738 0.78778 0.28822 -0.02700
O 	O 	0.12593 0.85685 0.40708 -0.18200
O 	O 	0.00272 0.77773 0.41998 -0.11100
O 	O 	0.97003 0.78717 0.26627 -0.12200
O 	O 	0.85183 0.77586 0.28479 -0.08800
C 	C 	0.48530 0.16739 0.54517 -0.05300
C 	C 	0.39992 0.04298 0.51871 -0.00200
C 	C 	0.41069 0.08239 0.49233 -0.04200
C 	C 	0.39488 0.03603 0.46714 -0.00300
C 	C 	0.36396 0.95023 0.46791 -0.05800
C 	C 	0.34148 0.91137 0.49386 -0.02100
H 	H 	0.55520 0.27077 0.57086 0.01500
H 	H 	0.51221 0.19662 0.52598 0.04500
H 	H 	0.42851 0.14821 0.49115 0.04300
H 	H 	0.40802 0.06690 0.44709 0.04400
C 	C 	0.15933 0.55623 0.44118 -0.06500
C 	C 	0.17129 0.50701 0.46276 0.00500
C 	C 	0.12012 0.48637 0.48564 -0.04800
C 	C 	0.05402 0.51239 0.48678 0.01100
C 	C 	0.04626 0.56787 0.46630 0.02800
C 	C 	0.09744 0.58748 0.44319 -0.02400
H 	H 	0.22073 0.48508 0.46194 0.04000
H 	H 	0.13463 0.45393 0.50298 0.04900
H 	H 	0.09014 0.62829 0.42711 0.05100
H 	H 	0.02180 0.37920 0.52085 0.05800
C 	C 	0.50585 0.49484 0.55270 -0.05100
C 	C 	0.55140 0.67733 0.50593 0.01100
C 	C 	0.51340 0.59623 0.51539 0.00700
C 	C 	0.45831 0.53815 0.49692 -0.05100
C 	C 	0.44758 0.55833 0.46898 0.00400
C 	C 	0.48803 0.63757 0.45933 -0.07100
C 	C 	0.54038 0.69671 0.47777 -0.01300
H 	H 	0.48145 0.44397 0.53792 0.04300
H 	H 	0.41974 0.47960 0.50446 0.04500
H 	H 	0.40427 0.51343 0.45526 0.02800
H 	H 	0.57071 0.75847 0.47047 0.05800
C 	C 	0.36842 0.22874 0.70029 -0.02600
C 	C 	0.44007 0.23253 0.71388 -0.06700
C 	C 	0.43689 0.18571 0.73832 0.10100
C 	C 	0.36443 0.12600 0.74576 -0.03000
C 	C 	0.29346 0.11902 0.73124 -0.07000
C 	C 	0.29517 0.17228 0.70886 0.10700
N 	N 	0.22338 0.16567 0.69362 -0.02100
H 	H 	0.36992 0.26563 0.68187 0.07800
H 	H 	0.36371 0.08414 0.76250 0.05800
N 	N 	0.50682 0.19963 0.75586 -0.01900
O 	O 	0.19877 0.22734 0.69339 -0.07800
O 	O 	0.18699 0.10117 0.67783 -0.08500
O 	O 	0.55000 0.27368 0.76422 -0.07600
O 	O 	0.52412 0.13789 0.76509 -0.10400
N 	N 	0.09854 0.70419 0.65093 -0.02100
O 	O 	0.17243 0.73573 0.65990 -0.08700
O 	O 	0.07947 0.71829 0.62533 -0.09700
C 	C 	0.05563 0.61209 0.05433 -0.04700
C 	C 	0.08354 0.64894 0.02857 -0.00500
C 	C 	0.03367 0.63123 0.00450 -0.03100
C 	C 	0.92404 0.54431 0.03265 0.02400
C 	C 	0.97489 0.56392 0.05675 -0.03100
H 	H 	0.14610 0.68615 0.02661 0.03500
H 	H 	0.95345 0.53555 0.07679 0.06100
H 	H 	0.82452 0.45956 0.05458 0.04900
C 	C 	0.47971 0.83713 0.06972 -0.06800
C 	C 	0.46400 0.79669 0.04330 0.00600
C 	C 	0.49439 0.83961 0.01874 -0.04800
C 	C 	0.53775 0.92490 0.02036 0.00500
C 	C 	0.56227 0.96241 0.04738 0.01900
C 	C 	0.53205 0.91859 0.07188 -0.01300
C 	C 	0.61542 0.04358 0.04964 -0.04400
C 	C 	0.55726 0.97412 0.99577 0.01400
C 	C 	0.51973 0.94558 0.96911 -0.05100
C 	C 	0.53675 0.99713 0.94583 0.01200
H 	H 	0.42697 0.73238 0.04171 0.02600
H 	H 	0.48657 0.80581 0.99892 0.04500
H 	H 	0.54698 0.94861 0.09255 0.04300
H 	H 	0.47364 0.88587 0.96661 0.04900
H 	H 	0.50592 0.97485 0.92577 0.04800
C 	C 	0.44207 0.41924 0.00614 0.00700
C 	C 	0.56647 0.48701 0.04664 -0.03700
C 	C 	0.48681 0.46261 0.05497 0.01000
C 	C 	0.42407 0.42328 0.03521 0.00600
C 	C 	0.34562 0.38784 0.04516 -0.05400
C 	C 	0.32815 0.40573 0.07262 -0.01000
C 	C 	0.38902 0.45678 0.09073 -0.08200
C 	C 	0.46888 0.47886 0.08269 -0.01100
H 	H 	0.32090 0.39016 0.98926 0.04600
H 	H 	0.61473 0.51522 0.06188 0.04800
H 	H 	0.29867 0.34504 0.03214 0.04600
H 	H 	0.26683 0.38235 0.07941 0.01000
H 	H 	0.51664 0.51276 0.09743 0.05600
N 	N 	0.01806 0.15079 0.85351 -0.01400
O 	O 	0.09247 0.15886 0.85040 -0.07700
O 	O 	0.97769 0.10650 0.87388 -0.10900
C 	C 	0.42035 0.03698 0.83032 -0.02100
C 	C 	0.44083 0.12166 0.83434 -0.07000
C 	C 	0.38502 0.15865 0.82722 0.10400
C 	C 	0.30935 0.11085 0.81640 -0.02800
C 	C 	0.28827 0.02585 0.81256 -0.07300
C 	C 	0.34368 0.98843 0.82044 0.10000
N 	N 	0.32045 0.90111 0.82060 -0.01900
H 	H 	0.46223 0.00794 0.83666 0.06200
H 	H 	0.26772 0.14033 0.81019 0.07900
N 	N 	0.40519 0.24504 0.83084 -0.02800
O 	O 	0.36052 0.86525 0.80627 -0.10400
O 	O 	0.26430 0.85834 0.83719 -0.08600
O 	O 	0.43239 0.29313 0.80966 -0.10100
O 	O 	0.38890 0.27465 0.85436 -0.09700
Ni	Ni	0.58991 0.28393 0.89898 1.10100
O 	O 	0.60300 0.36065 0.86497 -0.69500
Ni	Ni	0.71395 0.36957 0.85346 1.10100
O 	O 	0.49697 0.30719 0.91697 -0.35100
O 	O 	0.50616 0.43094 0.89981 -0.38000
O 	O 	0.50616 0.18871 0.87711 -0.35600
Ni	Ni	0.60893 0.47194 0.87603 1.07600
O 	O 	0.59814 0.10934 0.89905 -0.40000
O 	O 	0.67774 0.46930 0.91053 -0.41900
O 	O 	0.73069 0.45561 0.82298 -0.35300
O 	O 	0.69336 0.28412 0.88417 -0.71000
O 	O 	0.58462 0.20450 0.93061 -0.37300
O 	O 	0.81818 0.35330 0.84276 -0.34700
O 	O 	0.75248 0.21609 0.83546 -0.39400
Ni	Ni	0.67440 0.17418 0.86872 1.06800
H 	H 	0.56373 0.33752 0.84932 0.18700
H 	H 	0.73550 0.29917 0.89922 0.15600
C 	C 	0.75025 0.46776 0.90812 0.26800
O 	O 	0.58336 0.17147 0.84163 -0.39600
C 	C 	0.49983 0.38226 0.92129 0.28600
C 	C 	0.72442 0.52666 0.82897 0.30200
C 	C 	0.51353 0.16776 0.85086 0.30400
C 	C 	0.81974 0.27940 0.83806 0.28600
C 	C 	0.59767 0.13584 0.92547 0.27700
O 	O 	0.77793 0.45813 0.88303 -0.36400
O 	O 	0.70716 0.54258 0.85488 -0.40200
Ni	Ni	0.60650 0.37440 0.65165 1.10200
O 	O 	0.67991 0.40081 0.61710 -0.69600
Ni	Ni	0.74622 0.33087 0.62386 1.09900
O 	O 	0.55298 0.45611 0.63993 -0.34700
O 	O 	0.67065 0.55858 0.63295 -0.39500
O 	O 	0.52429 0.29228 0.62531 -0.37600
Ni	Ni	0.75302 0.51428 0.61550 1.07000
O 	O 	0.57391 0.24108 0.70290 -0.38600
O 	O 	0.79534 0.50805 0.65532 -0.40400
O 	O 	0.80795 0.35670 0.58738 -0.37800
O 	O 	0.68156 0.31360 0.66004 -0.69900
O 	O 	0.52844 0.33874 0.68473 -0.35200
O 	O 	0.79024 0.23874 0.63123 -0.36800
O 	O 	0.66524 0.14766 0.63786 -0.39600
Ni	Ni	0.62104 0.19999 0.67006 1.07700
H 	H 	0.64945 0.38448 0.59897 0.15100
H 	H 	0.71659 0.34100 0.67638 0.17800
C 	C 	0.85001 0.47562 0.65949 0.30700
O 	O 	0.51854 0.17479 0.64645 -0.38600
C 	C 	0.59443 0.52289 0.62664 0.28300
C 	C 	0.84134 0.43317 0.57929 0.27700
C 	C 	0.51614 0.21498 0.62345 0.28000
C 	C 	0.74218 0.16346 0.63589 0.28700
C 	C 	0.51644 0.27105 0.69930 0.30600
O 	O 	0.84696 0.40940 0.64514 -0.35900
O 	O 	0.84757 0.49471 0.59701 -0.40200
Ni	Ni	0.98013 0.89247 0.71801 1.10200
O 	O 	0.98572 0.79171 0.69685 -0.35800
O 	O 	0.87849 0.81158 0.73548 -0.36600
O 	O 	0.82254 0.92846 0.71638 -0.39500
O 	O 	0.91083 0.90784 0.68552 -0.34900
O 	O 	0.92482 0.04673 0.79042 -0.39100
Ni	Ni	0.88410 0.98731 0.75187 1.07400
O 	O 	0.86108 0.88233 0.77393 -0.38300
C 	C 	0.86159 0.81415 0.76230 0.29200
C 	C 	0.85522 0.93845 0.69121 0.29200
Ni	Ni	0.97449 0.09875 0.23999 1.10700
O 	O 	0.90539 0.12960 0.26925 -0.70100
Ni	Ni	0.87463 0.02736 0.29218 1.10300
O 	O 	0.95904 0.16984 0.20806 -0.34900
O 	O 	0.87808 0.23334 0.22551 -0.38500
Ni	Ni	0.80958 0.13814 0.25166 1.07600
O 	O 	0.80718 0.04018 0.22708 -0.41000
O 	O 	0.78766 0.04648 0.31531 -0.36400
O 	O 	0.95956 0.01021 0.26757 -0.71600
O 	O 	0.87239 0.92946 0.31651 -0.33500
O 	O 	0.00606 0.99179 0.32544 -0.38200
H 	H 	0.93411 0.17915 0.28073 0.18200
H 	H 	0.94025 0.95594 0.25782 0.18700
C 	C 	0.77888 0.96495 0.23714 0.29200
C 	C 	0.94511 0.23711 0.21320 0.30200
C 	C 	0.72285 0.05057 0.30295 0.30700
C 	C 	0.94051 0.92682 0.32664 0.27600
O 	O 	0.78906 0.95090 0.26435 -0.35600
O 	O 	0.72019 0.06031 0.27527 -0.40600
H 	H 	0.90001 0.36234 0.19529 0.07300
C 	C 	0.65356 0.85153 0.17438 -0.02200
C 	C 	0.58106 0.81002 0.18757 -0.07200
C 	C 	0.57874 0.80715 0.21731 0.09400
C 	C 	0.64699 0.85151 0.23353 -0.02500
C 	C 	0.71707 0.90067 0.22031 -0.06700
C 	C 	0.72182 0.89636 0.19060 0.09500
N 	N 	0.79567 0.93749 0.17686 -0.01800
H 	H 	0.65628 0.85103 0.15146 0.07100
H 	H 	0.64363 0.85221 0.25642 0.07800
N 	N 	0.50609 0.76278 0.23117 -0.02200
O 	O 	0.86071 0.92688 0.18540 -0.10100
O 	O 	0.79721 0.98266 0.15503 -0.09500
C 	C 	0.57913 0.96135 0.30413 -0.01800
C 	C 	0.64662 0.01782 0.31807 -0.07800
C 	C 	0.64347 0.03464 0.34723 0.09000
C 	C 	0.57564 0.99042 0.36246 -0.00900
C 	C 	0.50990 0.93085 0.34879 -0.07800
C 	C 	0.51121 0.91751 0.31933 0.09500
H 	H 	0.58062 0.94857 0.28167 0.07000
H 	H 	0.57377 0.00312 0.38491 0.06500
N 	N 	0.70850 0.09742 0.36137 -0.01800
O 	O 	0.73428 0.17143 0.35165 -0.09900
O 	O 	0.73867 0.08181 0.38489 -0.09300
O 	O 	0.00475 0.20627 0.34236 -0.10300
H 	H 	0.95185 0.88074 0.38075 0.07000
C 	C 	0.48602 0.17009 0.59658 -0.07100
C 	C 	0.51212 0.20885 0.57090 0.00800
C 	C 	0.42870 0.08683 0.54463 0.01600
C 	C 	0.40522 0.04631 0.57064 0.00800
C 	C 	0.43274 0.08877 0.59643 -0.00400
C 	C 	0.35761 0.96291 0.57060 -0.02300
C 	C 	0.33639 0.91832 0.54517 -0.04000
C 	C 	0.35873 0.95730 0.51927 0.02500
H 	H 	0.41330 0.05832 0.61630 0.05800
H 	H 	0.33934 0.93177 0.59040 0.05600
H 	H 	0.30261 0.85312 0.54563 0.05200
H 	H 	0.31298 0.84522 0.49430 0.04600
C 	C 	0.98937 0.60530 0.46967 -0.05200
C 	C 	0.94113 0.58936 0.49335 -0.03000
C 	C 	0.94486 0.53123 0.51300 0.00800
C 	C 	0.99806 0.48855 0.50891 0.00800
C 	C 	0.99089 0.42050 0.52593 -0.05800
C 	C 	0.93944 0.40242 0.54876 0.01400
C 	C 	0.89223 0.44974 0.55436 -0.06900
C 	C 	0.89416 0.51333 0.53626 -0.01500
H 	H 	0.98370 0.64834 0.45422 0.06100
H 	H 	0.89940 0.62099 0.49606 0.04300
H 	H 	0.93632 0.35144 0.56212 0.05000
H 	H 	0.85545 0.54795 0.54003 0.02600
C 	C 	0.56345 0.54176 0.59954 -0.08500
C 	C 	0.52143 0.47801 0.58056 -0.00400
C 	C 	0.52870 0.57674 0.54365 0.00400
C 	C 	0.57273 0.64089 0.56274 0.01000
C 	C 	0.58748 0.62310 0.59074 -0.02200
C 	C 	0.60552 0.72151 0.55327 -0.03900
C 	C 	0.59712 0.73906 0.52496 -0.03600
H 	H 	0.50520 0.41482 0.58685 0.04100
H 	H 	0.62099 0.67231 0.60533 0.04900
H 	H 	0.63969 0.77057 0.56775 0.05100
H 	H 	0.62502 0.80143 0.51792 0.05100
C 	C 	0.75373 0.96189 0.65957 -0.02100
C 	C 	0.83254 0.98797 0.67013 -0.08400
C 	C 	0.88563 0.06715 0.66401 0.08200
C 	C 	0.85698 0.12259 0.65058 -0.03000
C 	C 	0.77590 0.09931 0.64267 -0.07900
C 	C 	0.72585 0.01626 0.64497 0.08000
N 	N 	0.64809 0.98639 0.63168 -0.01700
H 	H 	0.71379 0.89965 0.66297 0.06600
H 	H 	0.89733 0.18472 0.64734 0.07700
N 	N 	0.96811 0.09255 0.67240 -0.03400
O 	O 	0.64003 0.99520 0.60462 -0.09700
O 	O 	0.58611 0.94543 0.64624 -0.11000
O 	O 	0.01369 0.05774 0.66089 -0.08800
O 	O 	0.99961 0.15683 0.68880 -0.11800
C 	C 	0.97661 0.61892 0.71416 -0.03200
C 	C 	0.02737 0.67623 0.69602 -0.07800
C 	C 	0.03924 0.65048 0.66864 0.11300
C 	C 	0.98797 0.57441 0.65787 -0.03900
C 	C 	0.92463 0.52543 0.67414 -0.07000
C 	C 	0.92405 0.54364 0.70324 0.10000
N 	N 	0.86650 0.48848 0.72123 -0.02200
H 	H 	0.97182 0.63637 0.73598 0.05400
H 	H 	0.99221 0.55757 0.63594 0.07300
O 	O 	0.84802 0.40976 0.71805 -0.09400
O 	O 	0.83400 0.51696 0.74125 -0.08300
C 	C 	0.95298 0.57868 0.00613 -0.00800
C 	C 	0.84711 0.48527 0.03433 -0.04500
C 	C 	0.80072 0.45551 0.00987 -0.03700
C 	C 	0.82815 0.48798 0.98344 0.00600
C 	C 	0.90227 0.55352 0.98152 0.01300
C 	C 	0.92292 0.59286 0.95527 -0.05300
C 	C 	0.87601 0.56095 0.93098 0.01000
C 	C 	0.80525 0.49302 0.93269 -0.07200
C 	C 	0.78122 0.45695 0.95891 -0.02100
H 	H 	0.06011 0.65322 0.98446 0.04600
H 	H 	0.74292 0.40713 0.01152 0.03900
H 	H 	0.97155 0.65079 0.95383 0.05000
H 	H 	0.89254 0.59189 0.91105 0.04900
H 	H 	0.72524 0.40568 0.96030 0.02600
C 	C 	0.64081 0.08954 0.02543 -0.03300
C 	C 	0.60999 0.05677 0.99864 0.00600
C 	C 	0.58911 0.07850 0.94881 -0.07200
C 	C 	0.62705 0.10749 0.97499 -0.01500
H 	H 	0.63673 0.07147 0.07026 0.04700
H 	H 	0.68190 0.15229 0.02764 0.04100
H 	H 	0.66733 0.17066 0.97724 0.03500
C 	C 	0.48092 0.40603 0.94926 -0.07000
C 	C 	0.40138 0.38946 0.95649 0.01300
C 	C 	0.38191 0.39763 0.98461 -0.04900
C 	C 	0.52302 0.44276 0.99829 0.01300
C 	C 	0.54171 0.43477 0.96997 -0.02200
C 	C 	0.58441 0.47539 0.01869 -0.04000
H 	H 	0.35440 0.36934 0.94034 0.04900
H 	H 	0.60344 0.44940 0.96412 0.03700
H 	H 	0.64636 0.49410 0.01269 0.04300
C 	C 	0.93418 0.23412 0.84645 -0.03100
C 	C 	0.89365 0.27015 0.82840 -0.07500
C 	C 	0.91180 0.27709 0.79944 0.10300
C 	C 	0.95965 0.23622 0.78821 -0.03900
C 	C 	0.98683 0.18639 0.80550 -0.06600
C 	C 	0.98146 0.19261 0.83511 0.09300
H 	H 	0.92409 0.23283 0.86903 0.04600
H 	H 	0.96771 0.23555 0.76552 0.05700
N 	N 	0.87496 0.31815 0.78091 -0.02100
O 	O 	0.88748 0.39558 0.78494 -0.07000
O 	O 	0.82942 0.27825 0.75985 -0.09900
C 	C 	0.83094 0.66067 0.82083 -0.01900
C 	C 	0.76356 0.59612 0.81051 -0.07100
C 	C 	0.73129 0.60108 0.78346 0.10000
C 	C 	0.76553 0.67156 0.76737 -0.02000
C 	C 	0.83096 0.73759 0.77825 -0.07700
C 	C 	0.86429 0.73150 0.80504 0.08900
N 	N 	0.93251 0.79685 0.81621 -0.03400
H 	H 	0.85661 0.65656 0.84146 0.07100
H 	H 	0.73990 0.67570 0.74674 0.07500
N 	N 	0.66173 0.53643 0.77277 -0.02600
O 	O 	0.92355 0.86085 0.82784 -0.10200
O 	O 	0.00065 0.78644 0.81889 -0.11300
O 	O 	0.59643 0.55065 0.76740 -0.09700
O 	O 	0.66564 0.46548 0.76612 -0.07200
