data_crystal

_cell_length_a 15.64348
_cell_length_b 16.01819
_cell_length_c 35.07646
_cell_angle_alpha 95.41403
_cell_angle_beta  95.41545
_cell_angle_gamma 126.69812

_symmetry_space_group_name_	'P 1'
_symmetry_space_group_name_H-M	'P 1'

loop_
_symmetry_equiv_pos_as_xyz
  x,y,z

loop_
_atom_site_label
_atom_site_type_symbol
_atom_site_fract_x
_atom_site_fract_y
_atom_site_fract_z
_atom_site_charge
C 	C 	0.04550 0.99725 0.96015 -0.00200
H 	H 	0.03208 0.12273 0.95789 0.04600
H 	H 	0.03721 0.85906 0.96212 0.04500
C 	C 	0.05490 0.11924 0.49907 -0.05900
C 	C 	0.03497 0.95653 0.49791 -0.05800
H 	H 	0.06984 0.91484 0.49702 0.05000
C 	C 	0.10048 0.06525 0.49806 0.01300
H 	H 	0.10504 0.20349 0.49875 0.04700
C 	C 	0.98930 0.03956 0.95934 -0.04300
C 	C 	0.87971 0.97702 0.96218 0.00700
C 	C 	0.99232 0.89085 0.96187 -0.04300
C 	C 	0.88294 0.82563 0.96453 0.00800
C 	C 	0.82506 0.86850 0.96503 -0.05200
H 	H 	0.74044 0.81920 0.96777 0.04700
C 	C 	0.94347 0.06274 0.50028 0.01200
C 	C 	0.92507 0.90127 0.49915 0.01400
C 	C 	0.87949 0.95409 0.50061 -0.05600
H 	H 	0.79374 0.91034 0.50141 0.04900
Cu	Cu	0.75712 0.32575 0.95912 0.92300
Cu	Cu	0.73863 0.23554 0.04084 0.86800
Cu	Cu	0.58581 0.27265 0.00857 0.89700
Cu	Cu	0.55601 0.31989 0.92909 0.90000
C 	C 	0.68153 0.29556 0.87715 0.29300
O 	O 	0.81766 0.48377 0.96035 -0.35000
C 	C 	0.65500 0.30140 0.09426 0.29000
O 	O 	0.58797 0.24020 0.95429 -0.63200
O 	O 	0.74297 0.33818 0.01427 -0.64500
O 	O 	0.81990 0.24463 0.96192 -0.36200
O 	O 	0.69781 0.13165 0.99705 -0.43600
O 	O 	0.64159 0.34561 0.88693 -0.38000
O 	O 	0.43125 0.20118 0.00009 -0.38800
C 	C 	0.37078 0.18819 0.96776 0.31900
C 	C 	0.76386 0.51901 0.97174 0.29000
O 	O 	0.66400 0.45100 0.97634 -0.39500
O 	O 	0.41189 0.25254 0.94272 -0.39500
O 	O 	0.74383 0.29106 0.90367 -0.36200
C 	C 	0.76661 0.15259 0.97394 0.29500
O 	O 	0.58101 0.28186 0.06516 -0.37700
O 	O 	0.73925 0.30615 0.08774 -0.42000
H 	H 	0.54102 0.16349 0.94301 0.16300
H 	H 	0.79070 0.41152 0.02948 0.17200
Cu	Cu	0.61394 0.20682 0.51007 0.92600
Cu	Cu	0.69405 0.21923 0.42619 0.87100
Cu	Cu	0.67193 0.37718 0.46226 0.89800
Cu	Cu	0.63079 0.40721 0.54237 0.89800
C 	C 	0.65351 0.27987 0.59258 0.29300
O 	O 	0.45746 0.15187 0.51142 -0.35800
C 	C 	0.63016 0.30982 0.37595 0.29200
O 	O 	0.70719 0.37217 0.51563 -0.63700
O 	O 	0.59643 0.22186 0.45523 -0.64200
O 	O 	0.68382 0.13560 0.50402 -0.37200
O 	O 	0.80048 0.25222 0.46855 -0.44100
O 	O 	0.60553 0.32296 0.58430 -0.37900
O 	O 	0.75453 0.52898 0.47200 -0.38700
C 	C 	0.74865 0.58690 0.49939 0.31500
C 	C 	0.42124 0.20358 0.49990 0.29500
O 	O 	0.49017 0.30287 0.49659 -0.39800
O 	O 	0.70664 0.55171 0.53048 -0.39400
O 	O 	0.65413 0.21818 0.56499 -0.36000
C 	C 	0.77626 0.18368 0.49134 0.30400
O 	O 	0.65989 0.38446 0.40598 -0.38100
O 	O 	0.62188 0.22484 0.38079 -0.41600
H 	H 	0.78595 0.41580 0.52626 0.16900
H 	H 	0.52054 0.17855 0.44090 0.17400
C 	C 	0.74109 0.36337 0.70228 -0.07200
C 	C 	0.69480 0.26515 0.71360 0.01400
C 	C 	0.64712 0.17369 0.68490 -0.00500
C 	C 	0.63908 0.18007 0.64528 -0.00100
C 	C 	0.67983 0.27744 0.63392 -0.08800
C 	C 	0.73591 0.37034 0.66274 0.05700
C 	C 	0.68902 0.25777 0.75527 0.01400
S 	S 	0.59818 0.05119 0.69821 -0.03700
H 	H 	0.59819 0.10872 0.62333 0.04800
S 	S 	0.80346 0.49609 0.64974 -0.07000
H 	H 	0.78031 0.43432 0.72429 0.05400
C 	C 	0.78324 0.30088 0.78316 -0.00700
C 	C 	0.77908 0.30807 0.82301 -0.00000
C 	C 	0.68107 0.27071 0.83537 -0.08900
C 	C 	0.58508 0.21920 0.80727 0.05800
C 	C 	0.58996 0.21493 0.76753 -0.07200
S 	S 	0.90653 0.34566 0.76856 -0.03500
H 	H 	0.85274 0.34558 0.84439 0.04700
S 	S 	0.45790 0.15647 0.82136 -0.07300
H 	H 	0.51681 0.17926 0.74612 0.05600
H 	H 	0.90725 0.53481 0.64656 0.03700
H 	H 	0.96258 0.44998 0.76531 0.03600
H 	H 	0.41520 0.05392 0.82378 0.03600
H 	H 	0.68094 0.04342 0.70342 0.03900
C 	C 	0.60817 0.38279 0.19071 -0.07400
C 	C 	0.61675 0.32006 0.21368 0.01300
C 	C 	0.63302 0.24826 0.19682 -0.00600
C 	C 	0.64207 0.24098 0.15756 -0.00500
C 	C 	0.63655 0.30562 0.13475 -0.09300
C 	C 	0.61924 0.37695 0.15148 0.05700
C 	C 	0.61414 0.33355 0.25588 0.01200
S 	S 	0.64538 0.16922 0.22490 -0.04700
H 	H 	0.65486 0.18577 0.14481 0.02600
S 	S 	0.61730 0.46328 0.12451 -0.04700
H 	H 	0.59599 0.43830 0.20364 0.05100
C 	C 	0.71003 0.41117 0.28321 -0.00700
C 	C 	0.71162 0.40859 0.32308 -0.00600
C 	C 	0.61900 0.32802 0.33596 -0.09300
C 	C 	0.52083 0.25589 0.30895 0.05700
C 	C 	0.51871 0.25955 0.26912 -0.07300
S 	S 	0.82974 0.50886 0.26775 -0.04500
H 	H 	0.78667 0.46569 0.34386 0.03500
S 	S 	0.40033 0.16076 0.32463 -0.05700
H 	H 	0.44409 0.20159 0.24826 0.05200
H 	H 	0.72095 0.55480 0.12829 0.03400
H 	H 	0.83116 0.59429 0.26463 0.03500
H 	H 	0.34836 0.20296 0.33339 0.03600
H 	H 	0.75147 0.22496 0.24298 0.03400
C 	C 	0.85929 0.79002 0.49897 0.04300
C 	C 	0.80709 0.69690 0.49898 -0.10600
C 	C 	0.89180 0.11314 0.49861 0.03800
C 	C 	0.84059 0.14711 0.49615 -0.11200
C 	C 	0.30894 0.15873 0.49852 -0.10300
C 	C 	0.21468 0.12018 0.49806 0.03600
C 	C 	0.83337 0.71568 0.96745 0.03500
C 	C 	0.80295 0.62652 0.96955 -0.09800
C 	C 	0.82828 0.02880 0.96499 0.03500
C 	C 	0.79827 0.08371 0.96809 -0.10500
C 	C 	0.25646 0.12120 0.96482 -0.11200
C 	C 	0.16007 0.06504 0.96239 0.05000
