data_crystal

_cell_length_a 18.64398
_cell_length_b 17.94141
_cell_length_c 46.97800
_cell_angle_alpha 89.63287
_cell_angle_beta  89.63929
_cell_angle_gamma 119.41442

_symmetry_space_group_name_	'P 1'
_symmetry_space_group_name_H-M	'P 1'

loop_
_symmetry_equiv_pos_as_xyz
  x,y,z

loop_
_atom_site_label
_atom_site_type_symbol
_atom_site_fract_x
_atom_site_fract_y
_atom_site_fract_z
_atom_site_charge
C 	C 	0.03306 0.82990 0.70815 0.32200
C 	C 	0.01815 0.57558 0.93194 0.26300
C 	C 	0.03214 0.75385 0.69624 -0.13000
F 	F 	0.01273 0.55141 0.90435 -0.38700
H 	H 	0.03106 0.48530 0.38101 0.19900
C 	C 	0.00687 0.70677 0.25517 -0.04800
C 	C 	0.04533 0.91036 0.81296 -0.11700
C 	C 	0.03861 0.96714 0.83191 0.20200
C 	C 	0.04957 0.92618 0.78200 0.29500
Ni	Ni	0.00130 0.07944 0.70746 1.11900
O 	O 	0.02305 0.00352 0.72910 -0.72200
H 	H 	0.02652 0.02799 0.74808 0.15700
C 	C 	0.03393 0.12346 0.17517 0.32900
C 	C 	0.02124 0.84987 0.24527 0.29100
O 	O 	0.03967 0.16025 0.19990 -0.37100
O 	O 	0.01739 0.04358 0.17405 -0.38700
C 	C 	0.03436 0.17213 0.09702 -0.12200
C 	C 	0.00496 0.13500 0.12392 0.19600
H 	H 	0.99954 0.14042 0.07824 0.10300
H 	H 	0.01616 0.28495 0.05641 0.08900
C 	C 	0.00405 0.58552 0.07903 -0.03600
H 	H 	0.00018 0.56243 0.05755 0.10900
C 	C 	0.06608 0.59714 0.33462 -0.10800
O 	O 	0.06535 0.54838 0.38223 -0.25600
C 	C 	0.02684 0.65305 0.27086 0.11400
C 	C 	0.04624 0.79496 0.26070 -0.10500
C 	C 	0.08193 0.59202 0.49091 0.25400
C 	C 	0.05521 0.49411 0.45178 0.25100
C 	C 	0.08798 0.69395 0.66212 -0.10100
H 	H 	0.07260 0.69869 0.59528 0.17400
C 	C 	0.03050 0.62963 0.98838 0.25100
F 	F 	0.03493 0.66141 0.01480 -0.40900
O 	O 	0.05754 0.81733 0.92009 -0.26400
O 	O 	0.05259 0.04568 0.82249 -0.27800
H 	H 	0.06698 0.77588 0.90909 0.19000
O 	O 	0.08786 0.14018 0.25540 -0.37400
O 	O 	0.09638 0.88482 0.72297 -0.36100
Ni	Ni	0.05264 0.98856 0.20453 1.11800
C 	C 	0.05155 0.17340 0.14837 -0.11900
O 	O 	0.06147 0.39473 0.01356 -0.26400
H 	H 	0.05652 0.43757 0.02544 0.17100
C 	C 	0.01089 0.63599 0.13556 -0.12200
C 	C 	0.08747 0.68763 0.29187 0.01100
F 	F 	0.08189 0.45940 0.43160 -0.39700
H 	H 	0.07184 0.13493 0.62367 0.06800
C 	C 	0.09844 0.76187 0.67943 0.20100
H 	H 	0.01447 0.65693 0.15735 0.08800
C 	C 	0.03187 0.83075 0.82306 -0.01100
H 	H 	0.03772 0.78699 0.80867 0.06600
C 	C 	0.10330 0.57407 0.35613 0.19800
O 	O 	0.07427 0.17311 0.73470 -0.37500
O 	O 	0.07938 0.92163 0.23297 -0.36200
C 	C 	0.08043 0.31257 0.05030 -0.10500
C 	C 	0.10826 0.63201 0.30892 0.00500
C 	C 	0.10709 0.82944 0.28171 0.19000
H 	H 	0.11341 0.92297 0.30222 0.15700
C 	C 	0.11165 0.55684 0.47030 -0.17100
C 	C 	0.09483 0.63445 0.94293 0.27500
C 	C 	0.10197 0.65825 0.97168 -0.19100
O 	O 	0.11780 0.98972 0.77044 -0.34800
H 	H 	0.09436 0.14315 0.56111 0.15800
C 	C 	0.10678 0.25133 0.09442 0.01700
C 	C 	0.12130 0.25484 0.14606 -0.02800
C 	C 	0.11247 0.37342 0.02820 0.20200
C 	C 	0.07936 0.62235 0.09342 -0.11000
C 	C 	0.08037 0.63975 0.12266 0.20000
C 	C 	0.12784 0.77585 0.29706 -0.10400
F 	F 	0.13476 0.65452 0.50843 -0.37600
H 	H 	0.13753 0.70203 0.64799 0.08200
H 	H 	0.00781 0.59486 0.33884 0.08400
Ni	Ni	0.12796 0.01319 0.72655 1.11700
O 	O 	0.13332 0.02178 0.68227 -0.35900
O 	O 	0.10152 0.12941 0.68095 -0.37300
C 	C 	0.15251 0.14271 0.24247 0.31600
O 	O 	0.14598 0.10571 0.21733 -0.36700
C 	C 	0.13325 0.29334 0.06597 0.00900
O 	O 	0.14674 0.91553 0.28713 -0.26800
H 	H 	0.08614 0.24505 0.79895 0.15700
H 	H 	0.00716 0.99176 0.24925 0.14700
C 	C 	0.12877 0.08290 0.66821 0.32900
C 	C 	0.14774 0.29497 0.11930 0.12000
H 	H 	0.15572 0.28668 0.16489 0.06300
H 	H 	0.18768 0.10984 0.30179 0.16500
H 	H 	0.18658 0.37916 0.29685 0.15200
H 	H 	0.17479 0.80268 0.31325 0.09000
C 	C 	0.12915 0.13581 0.61877 -0.02500
O 	O 	0.13110 0.19410 0.57243 -0.26500
O 	O 	0.17074 0.83820 0.67796 -0.28600
F 	F 	0.16297 0.66562 0.92600 -0.37300
O 	O 	0.11931 0.21557 0.79901 -0.27800
C 	C 	0.15006 0.18980 0.74118 0.31700
C 	C 	0.15718 0.65523 0.07706 0.32700
O 	O 	0.16352 0.69024 0.05189 -0.34700
H 	H 	0.14673 0.61340 0.14632 0.15800
C 	C 	0.18106 0.62979 0.30297 0.12800
C 	C 	0.18379 0.58785 0.35200 -0.10200
C 	C 	0.16576 0.10799 0.63927 -0.11300
C 	C 	0.01093 0.61931 0.66084 -0.01300
O 	O 	0.20712 0.35479 0.31163 -0.26600
O 	O 	0.18400 0.14690 0.72951 -0.36200
C 	C 	0.20055 0.58182 0.46871 0.35900
C 	C 	0.18221 0.69163 0.98568 0.40200
O 	O 	0.15074 0.66641 0.13812 -0.28000
H 	H 	0.19803 0.60635 0.26510 0.15500
C 	C 	0.16665 0.16545 0.59196 0.12400
H 	H 	0.20619 0.83403 0.69282 0.16100
O 	O 	0.22184 0.55312 0.39712 -0.33200
O 	O 	0.20919 0.37874 0.11771 -0.27500
C 	C 	0.19826 0.42062 0.02381 -0.10500
C 	C 	0.21886 0.60802 0.32457 -0.04400
C 	C 	0.01432 0.94215 0.86032 -0.13400
O 	O 	0.22109 0.52569 0.45910 -0.34200
O 	O 	0.21602 0.76677 0.99814 -0.35400
C 	C 	0.21401 0.32257 0.05563 0.13100
C 	C 	0.23422 0.20889 0.25158 -0.10900
O 	O 	0.23653 0.12089 0.29012 -0.27200
O 	O 	0.22002 0.65810 0.27710 -0.26700
C 	C 	0.20357 0.26824 0.75670 -0.11700
C 	C 	0.19262 0.27185 0.78615 0.19800
O 	O 	0.01828 0.68194 0.60415 -0.27100
C 	C 	0.23922 0.61116 0.37636 0.29300
O 	O 	0.22201 0.65838 0.08899 -0.36000
O 	O 	0.22086 0.54984 0.04466 -0.38300
O 	O 	0.22425 0.65173 0.98148 -0.35300
H 	H 	0.24636 0.46640 0.35230 0.06300
H 	H 	0.24980 0.29657 0.21731 0.06400
C 	C 	0.23583 0.51401 0.02315 0.32400
C 	C 	0.26417 0.20036 0.27809 0.19900
O 	O 	0.25697 0.65457 0.48024 -0.31600
C 	C 	0.24604 0.38563 0.03408 -0.02700
C 	C 	0.26983 0.28974 0.23831 -0.02900
C 	C 	0.24181 0.16835 0.58558 0.01500
H 	H 	0.24957 0.08606 0.53810 0.09500
C 	C 	0.23976 0.10838 0.63243 0.20300
O 	O 	0.25996 0.28748 0.06564 -0.25200
H 	H 	0.26134 0.37714 0.11959 0.15400
C 	C 	0.28553 0.41848 0.31736 0.12600
H 	H 	0.27999 0.61688 0.32092 0.05900
H 	H 	0.25789 0.02242 0.64879 0.17100
O 	O 	0.28737 0.69411 0.38068 -0.35700
Ni	Ni	0.27074 0.78838 0.03660 1.12900
C 	C 	0.25917 0.32813 0.80277 -0.10600
H 	H 	0.25309 0.32460 0.82577 0.09900
C 	C 	0.29824 0.47539 0.33931 -0.03700
C 	C 	0.27739 0.13872 0.60575 -0.10900
O 	O 	0.27796 0.08397 0.65233 -0.28700
C 	C 	0.27546 0.33203 0.74346 -0.02600
H 	H 	0.28235 0.33304 0.72051 0.06800
Ni	Ni	0.30202 0.55149 0.42672 1.12700
H 	H 	0.30383 0.67840 0.43010 0.14400
O 	O 	0.29355 0.56072 0.00418 -0.33800
C 	C 	0.29197 0.15435 0.53762 -0.10100
C 	C 	0.28641 0.20695 0.55850 0.00600
H 	H 	0.29263 0.36659 0.56591 0.17800
H 	H 	0.29898 0.32930 0.07933 0.16700
H 	H 	0.30135 0.79297 0.14610 0.16800
C 	C 	0.31876 0.27363 0.29303 -0.10200
C 	C 	0.32242 0.36307 0.25363 0.12100
H 	H 	0.31063 0.41482 0.02824 0.08200
Ni	Ni	0.31352 0.65089 0.06567 1.11900
O 	O 	0.31378 0.82588 0.07720 -0.34600
H 	H 	0.33632 0.26704 0.31445 0.09200
H 	H 	0.96663 0.89647 0.11957 0.15700
O 	O 	0.98319 0.87636 0.18468 -0.37600
O 	O 	0.98855 0.56721 0.26513 -0.25600
C 	C 	0.94040 0.61513 0.11946 0.02500
H 	H 	0.91734 0.73695 0.09313 0.09100
H 	H 	0.00679 0.98519 0.87454 0.09100
O 	O 	0.90594 0.86089 0.11807 -0.28100
C 	C 	0.89398 0.72215 0.11481 -0.10700
H 	H 	0.99835 0.03648 0.81595 0.16400
C 	C 	0.88677 0.78404 0.13057 0.20600
C 	C 	0.93480 0.58317 0.09180 0.14400
C 	C 	0.77887 0.60050 0.93334 0.29400
C 	C 	0.59832 0.22671 0.96324 0.38400
C 	C 	0.86617 0.48063 0.93770 0.40900
C 	C 	0.54652 0.42091 0.97538 0.37600
C 	C 	0.64686 0.26187 0.88954 0.32500
C 	C 	0.57094 0.42393 0.87258 0.33100
Ni	Ni	0.70704 0.42146 0.96603 1.13100
Ni	Ni	0.54844 0.32202 0.92422 1.13300
Ni	Ni	0.72928 0.44824 0.89734 1.12500
O 	O 	0.76705 0.55707 0.95831 -0.31300
O 	O 	0.74340 0.56257 0.90895 -0.37200
O 	O 	0.57472 0.25927 0.89338 -0.33900
O 	O 	0.66440 0.29079 0.97461 -0.30500
O 	O 	0.53800 0.23831 0.95479 -0.35500
O 	O 	0.63933 0.42072 0.86849 -0.38300
O 	O 	0.81145 0.41911 0.95330 -0.34500
O 	O 	0.84609 0.49697 0.91280 -0.35900
O 	O 	0.52751 0.39317 0.89606 -0.35600
O 	O 	0.60547 0.41234 0.98774 -0.32400
O 	O 	0.50292 0.36998 0.95430 -0.32900
O 	O 	0.71769 0.33193 0.89425 -0.36300
O 	O 	0.65849 0.40978 0.93054 -0.71900
H 	H 	0.64215 0.45391 0.93232 0.16400
C 	C 	0.80960 0.39859 0.57898 0.31200
C 	C 	0.50611 0.29392 0.51755 0.33300
C 	C 	0.62789 0.17886 0.57005 0.34100
C 	C 	0.65832 0.50512 0.52287 0.38000
C 	C 	0.64733 0.20799 0.47806 0.41700
C 	C 	0.85872 0.43163 0.48976 0.38900
Ni	Ni	0.63980 0.35134 0.55956 1.11800
Ni	Ni	0.67657 0.37973 0.49059 1.14100
Ni	Ni	0.75221 0.28435 0.52764 1.12700
O 	O 	0.75070 0.41985 0.58048 -0.35300
O 	O 	0.79546 0.32430 0.56798 -0.36100
O 	O 	0.62798 0.26669 0.47140 -0.35300
O 	O 	0.53538 0.26786 0.53809 -0.34800
O 	O 	0.55611 0.35061 0.49844 -0.33800
O 	O 	0.85572 0.37926 0.51045 -0.36800
O 	O 	0.63171 0.24664 0.58206 -0.36200
O 	O 	0.64990 0.18240 0.54339 -0.34800
O 	O 	0.79209 0.41623 0.47467 -0.32400
O 	O 	0.63098 0.46055 0.54715 -0.34200
O 	O 	0.71084 0.49582 0.50657 -0.34000
O 	O 	0.71934 0.22910 0.48915 -0.35600
O 	O 	0.70231 0.35429 0.52734 -0.71300
H 	H 	0.75180 0.40985 0.53055 0.16200
C 	C 	0.86587 0.92925 0.68181 0.33400
C 	C 	0.87807 0.01355 0.75618 0.30700
Ni	Ni	0.93003 0.89298 0.73480 1.12600
O 	O 	0.84691 0.88916 0.70661 -0.38000
O 	O 	0.96879 0.84041 0.70465 -0.36900
O 	O 	0.89697 0.05002 0.73033 -0.37300
O 	O 	0.88483 0.94481 0.76246 -0.37100
O 	O 	0.99159 0.86718 0.76578 -0.36300
O 	O 	0.93966 0.99442 0.67710 -0.37300
C 	C 	0.54187 0.78267 0.43816 0.29700
C 	C 	0.39020 0.58922 0.37194 0.32000
C 	C 	0.41290 0.87260 0.44181 0.38400
C 	C 	0.41394 0.57156 0.47389 0.38100
Ni	Ni	0.40329 0.74780 0.39856 1.11900
Ni	Ni	0.37852 0.71154 0.46953 1.12800
O 	O 	0.38456 0.61389 0.48756 -0.35300
O 	O 	0.51980 0.80884 0.41534 -0.33500
O 	O 	0.50416 0.77502 0.46306 -0.34600
O 	O 	0.43126 0.67307 0.37158 -0.36500
O 	O 	0.37588 0.54787 0.39598 -0.35400
O 	O 	0.39165 0.84825 0.41543 -0.33600
O 	O 	0.37350 0.81959 0.46278 -0.34000
O 	O 	0.37451 0.52527 0.45181 -0.34000
O 	O 	0.35424 0.67364 0.43067 -0.70600
C 	C 	0.44803 0.64863 0.02662 0.37800
C 	C 	0.38112 0.82859 0.08800 0.31100
C 	C 	0.41360 0.88329 0.99741 0.37100
Ni	Ni	0.33623 0.68943 0.99704 1.14000
O 	O 	0.40554 0.62297 0.05108 -0.33800
O 	O 	0.44563 0.70803 0.01072 -0.34000
O 	O 	0.38468 0.81233 0.98170 -0.31500
O 	O 	0.37083 0.88876 0.01934 -0.35000
O 	O 	0.39341 0.76176 0.08663 -0.35800
O 	O 	0.32398 0.72175 0.03445 -0.72100
H 	H 	0.38113 0.76732 0.03726 0.16700
C 	C 	0.90063 0.97951 0.29077 0.31000
C 	C 	0.79823 0.98389 0.21998 0.33400
C 	C 	0.90423 0.84317 0.17907 0.33000
Ni	Ni	0.97401 0.09202 0.23635 1.12000
Ni	Ni	0.88027 0.88481 0.23693 1.12400
O 	O 	0.90635 0.04451 0.27486 -0.35600
O 	O 	0.89280 0.90848 0.27913 -0.37500
O 	O 	0.94184 0.81759 0.23902 -0.36900
O 	O 	0.86749 0.05262 0.21326 -0.36800
O 	O 	0.79721 0.92740 0.23814 -0.37500
O 	O 	0.85607 0.85899 0.19548 -0.37400
O 	O 	0.97814 0.99079 0.23169 -0.70600
O 	O 	0.92833 0.06435 0.12648 -0.26700
H 	H 	0.93711 0.01495 0.12335 0.17700
C 	C 	0.59171 0.89181 0.18474 -0.11300
C 	C 	0.58994 0.96699 0.17769 0.00300
C 	C 	0.64870 0.04527 0.18921 0.13400
C 	C 	0.71315 0.04915 0.20540 -0.02200
C 	C 	0.72030 0.97545 0.20960 -0.12200
C 	C 	0.65685 0.89574 0.20047 0.20100
C 	C 	0.53778 0.96544 0.15410 0.01000
O 	O 	0.64404 0.11822 0.18426 -0.26200
H 	H 	0.75972 0.11019 0.21354 0.06700
O 	O 	0.66195 0.82279 0.20478 -0.28200
H 	H 	0.54565 0.83103 0.17626 0.08200
C 	C 	0.56934 0.97959 0.12612 0.13000
C 	C 	0.51566 0.94496 0.10327 -0.02800
C 	C 	0.43068 0.89588 0.10822 -0.09400
C 	C 	0.39891 0.89397 0.13565 0.19500
C 	C 	0.45272 0.92923 0.15853 -0.10500
O 	O 	0.65284 0.02199 0.12127 -0.24700
H 	H 	0.54061 0.94806 0.08217 0.11100
O 	O 	0.31549 0.85203 0.14047 -0.27000
H 	H 	0.42807 0.92133 0.17997 0.08500
H 	H 	0.63215 0.79803 0.22298 0.15500
H 	H 	0.66920 0.97706 0.12145 0.16200
H 	H 	0.67782 0.14455 0.16686 0.17200
C 	C 	0.88566 0.64858 0.12850 0.01300
C 	C 	0.84795 0.62662 0.15560 0.12600
C 	C 	0.83864 0.68772 0.17121 -0.02400
C 	C 	0.86731 0.77015 0.15977 -0.11600
O 	O 	0.83060 0.55039 0.16824 -0.26600
H 	H 	0.81892 0.67459 0.19331 0.06000
O 	O 	0.86238 0.55101 0.07713 -0.24100
H 	H 	0.86712 0.59939 0.06538 0.18400
H 	H 	0.77289 0.50987 0.16303 0.16600
C 	C 	0.75903 0.92197 0.42544 -0.09500
C 	C 	0.76590 0.87710 0.40216 0.01100
C 	C 	0.71268 0.78815 0.40076 0.14300
C 	C 	0.64505 0.74854 0.41949 -0.03600
C 	C 	0.62699 0.79856 0.43789 -0.08800
C 	C 	0.69037 0.88192 0.44382 0.21000
C 	C 	0.81444 0.92461 0.37663 0.01200
O 	O 	0.72329 0.74105 0.37993 -0.25200
H 	H 	0.59946 0.68229 0.41617 0.10800
O 	O 	0.68172 0.92684 0.46583 -0.26700
H 	H 	0.80286 0.98931 0.42791 0.09800
C 	C 	0.78354 0.96397 0.35808 0.12200
C 	C 	0.81767 0.99011 0.33071 -0.02900
C 	C 	0.88231 0.97687 0.32155 -0.10900
C 	C 	0.91812 0.94496 0.34106 0.19900
C 	C 	0.88437 0.91943 0.36853 -0.10400
O 	O 	0.71573 0.97045 0.36580 -0.25400
H 	H 	0.79018 0.01538 0.31600 0.07500
O 	O 	0.98582 0.93833 0.33327 -0.28400
H 	H 	0.90998 0.89150 0.38298 0.09600
H 	H 	0.65564 0.95841 0.45745 0.18600
H 	H 	0.73796 0.02700 0.37503 0.18800
H 	H 	0.96371 0.87897 0.32637 0.16200
H 	H 	0.69046 0.74234 0.36358 0.16300
C 	C 	0.43281 0.48991 0.30794 -0.10700
C 	C 	0.35312 0.42315 0.30240 0.01000
C 	C 	0.37771 0.54125 0.34545 -0.11800
C 	C 	0.44527 0.54959 0.32927 0.20200
C 	C 	0.33985 0.35503 0.28219 0.00800
O 	O 	0.52375 0.61189 0.33559 -0.27100
H 	H 	0.48511 0.49437 0.29626 0.08300
O 	O 	0.34807 0.44250 0.24189 -0.27400
H 	H 	0.53423 0.66163 0.32339 0.15600
H 	H 	0.40215 0.45910 0.23286 0.15300
H 	H 	0.96074 0.67989 0.23872 0.08200
H 	H 	0.93924 0.54081 0.27777 0.15700
C 	C 	0.54251 0.01075 0.43324 0.26300
C 	C 	0.46768 0.96360 0.44827 -0.19200
C 	C 	0.45359 0.99792 0.47314 0.27200
C 	C 	0.51595 0.07386 0.48426 0.27900
C 	C 	0.59145 0.11964 0.46980 -0.20500
C 	C 	0.60428 0.08835 0.44406 0.27800
F 	F 	0.67604 0.13375 0.42933 -0.38300
F 	F 	0.55612 0.98060 0.40855 -0.40100
F 	F 	0.50223 0.10453 0.50882 -0.39200
F 	F 	0.37942 0.95692 0.48673 -0.37600
C 	C 	0.97059 0.46310 0.45514 0.29800
C 	C 	0.94078 0.49060 0.47790 -0.19500
C 	C 	0.99684 0.55925 0.49450 0.29400
F 	F 	0.96870 0.59010 0.51551 -0.40100
F 	F 	0.91708 0.39937 0.43811 -0.37600
C 	C 	0.59801 0.53764 0.48019 0.27000
C 	C 	0.61007 0.54201 0.50990 -0.19400
C 	C 	0.56392 0.56676 0.52727 0.26800
C 	C 	0.49947 0.57577 0.51572 0.26800
C 	C 	0.48233 0.56292 0.48637 -0.19700
C 	C 	0.53328 0.54566 0.46868 0.26800
F 	F 	0.51924 0.53513 0.44028 -0.39300
F 	F 	0.64645 0.52131 0.46252 -0.40500
F 	F 	0.45163 0.59330 0.53326 -0.38700
F 	F 	0.57885 0.57803 0.55561 -0.39000
C 	C 	0.61293 0.96885 0.59109 -0.11100
C 	C 	0.65042 0.99001 0.61782 0.01300
C 	C 	0.66350 0.06574 0.63110 0.12500
C 	C 	0.64775 0.12390 0.61634 -0.02900
C 	C 	0.61963 0.10756 0.58820 -0.11700
C 	C 	0.59658 0.02691 0.57637 0.19900
C 	C 	0.68961 0.94234 0.62937 0.01100
O 	O 	0.69921 0.08682 0.65741 -0.26500
H 	H 	0.66319 0.18450 0.62607 0.07900
O 	O 	0.56232 0.00667 0.54983 -0.25900
H 	H 	0.60042 0.90941 0.58112 0.09500
C 	C 	0.66434 0.90077 0.65597 0.12700
C 	C 	0.71958 0.88728 0.67227 -0.02600
C 	C 	0.79936 0.91355 0.66176 -0.12000
C 	C 	0.81807 0.93963 0.63305 0.20200
C 	C 	0.76348 0.95486 0.61704 -0.10700
O 	O 	0.58892 0.88109 0.66721 -0.27200
H 	H 	0.70253 0.86245 0.69381 0.06900
O 	O 	0.89198 0.95596 0.62127 -0.27800
H 	H 	0.78146 0.98274 0.59589 0.08900
H 	H 	0.50203 0.97924 0.55316 0.18800
H 	H 	0.55092 0.82200 0.66087 0.16000
H 	H 	0.88162 0.90095 0.61294 0.17000
H 	H 	0.65259 0.06476 0.67119 0.16200
C 	C 	0.33801 0.29611 0.55623 0.13500
C 	C 	0.40375 0.32975 0.53660 -0.03700
C 	C 	0.41999 0.27445 0.52022 -0.10200
C 	C 	0.35758 0.18860 0.51791 0.19900
O 	O 	0.33001 0.34944 0.57520 -0.25300
H 	H 	0.44855 0.39706 0.53722 0.08600
O 	O 	0.36653 0.13553 0.49912 -0.22600
H 	H 	0.33538 0.14098 0.60097 0.08800
H 	H 	0.33893 0.13846 0.48152 0.17100
C 	C 	0.94820 0.60801 0.68019 0.13700
C 	C 	0.95965 0.67471 0.69810 -0.01500
C 	C 	0.98991 0.56369 0.63564 0.01700
O 	O 	0.87416 0.53333 0.68058 -0.27000
H 	H 	0.90982 0.66680 0.71207 0.05700
C 	C 	0.98262 0.59543 0.60895 0.14500
C 	C 	0.93067 0.53890 0.58849 -0.03100
C 	C 	0.88611 0.45097 0.59442 -0.10200
C 	C 	0.90419 0.41843 0.61904 0.19700
C 	C 	0.95722 0.47509 0.63942 -0.10400
H 	H 	0.91892 0.56412 0.56914 0.10900
O 	O 	0.86351 0.33210 0.62464 -0.27700
H 	H 	0.96596 0.45011 0.65938 0.09100
H 	H 	0.89896 0.31071 0.61635 0.16400
H 	H 	0.83920 0.54245 0.66671 0.16000
C 	C 	0.94773 0.53983 0.94960 -0.19900
C 	C 	0.95427 0.56774 0.97791 0.28100
F 	F 	0.88624 0.53787 0.99485 -0.41700
C 	C 	0.58595 0.11153 0.99670 0.27400
C 	C 	0.57854 0.13712 0.96902 -0.18600
C 	C 	0.53182 0.07368 0.94899 0.26600
C 	C 	0.48426 0.98789 0.95751 0.27600
C 	C 	0.48303 0.96432 0.98613 -0.18600
C 	C 	0.53856 0.02545 0.00517 0.28300
F 	F 	0.54265 0.00247 0.03240 -0.39900
F 	F 	0.63372 0.17073 0.01607 -0.36900
F 	F 	0.43407 0.92922 0.93842 -0.36900
F 	F 	0.52581 0.09641 0.92190 -0.40300
C 	C 	0.50225 0.53053 0.97140 0.27400
C 	C 	0.51890 0.47689 0.98861 -0.19400
C 	C 	0.51630 0.48262 0.01843 0.27700
C 	C 	0.49788 0.54205 0.03087 0.26800
C 	C 	0.47941 0.59475 0.01363 -0.18900
C 	C 	0.48236 0.58880 0.98370 0.27000
F 	F 	0.46415 0.63813 0.96646 -0.39700
F 	F 	0.50701 0.52746 0.94261 -0.39400
F 	F 	0.49789 0.54826 0.05966 -0.39000
F 	F 	0.53075 0.42992 0.03539 -0.37500
C 	C 	0.72864 0.12050 0.86449 -0.10100
C 	C 	0.70339 0.10954 0.83607 0.01000
C 	C 	0.64434 0.13201 0.82743 0.13500
C 	C 	0.61655 0.17209 0.84659 -0.02700
C 	C 	0.64957 0.19242 0.87403 -0.07900
C 	C 	0.70184 0.16165 0.88350 0.20900
C 	C 	0.74666 0.08540 0.81480 0.01000
O 	O 	0.61548 0.11701 0.80009 -0.26300
H 	H 	0.57454 0.19353 0.83936 0.08600
O 	O 	0.73245 0.17842 0.91060 -0.26300
H 	H 	0.77268 0.10145 0.87142 0.08700
C 	C 	0.82405 0.14718 0.80397 0.12000
C 	C 	0.86620 0.12345 0.78450 -0.03200
C 	C 	0.83210 0.03811 0.77599 -0.11600
C 	C 	0.75383 0.97662 0.78637 0.20000
C 	C 	0.71181 0.00035 0.80592 -0.11000
O 	O 	0.85767 0.23110 0.81192 -0.26500
H 	H 	0.92593 0.17123 0.77633 0.06400
O 	O 	0.71862 0.89332 0.77758 -0.28200
H 	H 	0.65214 0.95263 0.81414 0.09300
H 	H 	0.69453 0.12730 0.92206 0.18300
H 	H 	0.89163 0.23675 0.82879 0.16200
H 	H 	0.68678 0.89052 0.76039 0.16000
H 	H 	0.65324 0.16945 0.78914 0.15800
C 	C 	0.46267 0.37802 0.80248 -0.10900
C 	C 	0.41141 0.41375 0.80686 0.00600
C 	C 	0.42517 0.46761 0.83024 0.12800
C 	C 	0.48366 0.47753 0.85064 -0.03000
C 	C 	0.52929 0.43477 0.84764 -0.11300
C 	C 	0.52188 0.38889 0.82256 0.19600
C 	C 	0.33578 0.38269 0.78987 0.01500
O 	O 	0.37789 0.50601 0.83415 -0.25300
H 	H 	0.49046 0.51477 0.86952 0.09400
O 	O 	0.56674 0.34768 0.81895 -0.27900
H 	H 	0.45286 0.33691 0.78442 0.07700
C 	C 	0.34141 0.38984 0.75998 0.11800
O 	O 	0.41204 0.45157 0.74696 -0.26400
H 	H 	0.61696 0.38881 0.80827 0.15600
H 	H 	0.44511 0.42339 0.74260 0.15000
H 	H 	0.40822 0.56213 0.82419 0.16400
C 	C 	0.86476 0.80861 0.89833 -0.09500
C 	C 	0.94647 0.82506 0.89667 -0.01100
C 	C 	0.97502 0.79019 0.91779 0.16200
C 	C 	0.91826 0.72591 0.93615 -0.04100
C 	C 	0.83360 0.69387 0.93235 -0.08200
C 	C 	0.80840 0.74384 0.91657 0.18800
C 	C 	0.99357 0.85943 0.86970 0.05700
H 	H 	0.93949 0.69526 0.95108 0.08800
O 	O 	0.72755 0.72484 0.91721 -0.25500
H 	H 	0.84324 0.84006 0.88367 0.07900
C 	C 	0.00408 0.80422 0.85101 0.08200
O 	O 	0.98385 0.72294 0.85966 -0.23000
H 	H 	0.70119 0.68625 0.90091 0.17100
H 	H 	0.92474 0.68683 0.85506 0.14800
