data_crystal

_cell_length_a 26.13428
_cell_length_b 26.38154
_cell_length_c 34.93808
_cell_angle_alpha 95.50643
_cell_angle_beta  95.50350
_cell_angle_gamma 125.84338

_symmetry_space_group_name_	'P 1'
_symmetry_space_group_name_H-M	'P 1'

loop_
_symmetry_equiv_pos_as_xyz
  x,y,z

loop_
_atom_site_label
_atom_site_type_symbol
_atom_site_fract_x
_atom_site_fract_y
_atom_site_fract_z
_atom_site_charge
C 	C 	0.00272 0.05348 0.98413 0.12000
N 	N 	0.06321 0.08517 0.97652 -0.13800
C 	C 	0.08910 0.05380 0.96982 0.12900
N 	N 	0.05418 0.99061 0.97071 -0.14200
C 	C 	0.99343 0.95869 0.97792 0.13200
N 	N 	0.96865 0.99075 0.98591 -0.13700
C 	C 	0.90260 0.97388 0.46471 0.12300
N 	N 	0.86829 0.91056 0.46515 -0.13600
C 	C 	0.89817 0.88229 0.46576 0.12800
N 	N 	0.96250 0.91776 0.46696 -0.13800
C 	C 	0.99699 0.98118 0.46743 0.13000
N 	N 	0.96693 0.00909 0.46578 -0.13200
Cu	Cu	0.67422 0.26753 0.00842 0.93700
Cu	Cu	0.73199 0.28039 0.92706 0.88700
Cu	Cu	0.71550 0.37222 0.96178 0.90300
Cu	Cu	0.67826 0.38620 0.03772 0.90600
C 	C 	0.68268 0.30420 0.09045 0.29900
O 	O 	0.58112 0.23251 0.00596 -0.31500
C 	C 	0.69813 0.34153 0.87668 0.30900
O 	O 	0.72892 0.36679 0.01539 -0.64200
O 	O 	0.66943 0.27863 0.95343 -0.64100
O 	O 	0.71075 0.21922 0.00480 -0.34100
O 	O 	0.78574 0.28776 0.97124 -0.41400
O 	O 	0.66063 0.33642 0.08097 -0.31700
O 	O 	0.76491 0.46349 0.97245 -0.35800
C 	C 	0.75105 0.49553 0.99481 0.29100
C 	C 	0.55826 0.26100 0.99113 0.28500
O 	O 	0.59756 0.32188 0.98984 -0.37400
O 	O 	0.72079 0.47323 0.02432 -0.36800
O 	O 	0.69226 0.27314 0.06366 -0.32100
C 	C 	0.76375 0.24130 0.99100 0.28900
O 	O 	0.69505 0.37335 0.90688 -0.35500
O 	O 	0.69883 0.29238 0.87991 -0.36500
H 	H 	0.77458 0.39289 0.02851 0.18400
H 	H 	0.62594 0.25407 0.93706 0.18300
Cu	Cu	0.69848 0.30891 0.45326 0.93300
Cu	Cu	0.71040 0.28070 0.54163 0.89200
Cu	Cu	0.60266 0.28078 0.50704 0.90700
Cu	Cu	0.56628 0.28354 0.42249 0.90300
C 	C 	0.65032 0.28176 0.37068 0.29400
O 	O 	0.72926 0.39688 0.44548 -0.35500
C 	C 	0.65088 0.31387 0.59220 0.30700
O 	O 	0.59898 0.25095 0.45395 -0.63600
O 	O 	0.69708 0.32893 0.50895 -0.63600
O 	O 	0.75201 0.27828 0.45975 -0.33100
O 	O 	0.69492 0.21589 0.50229 -0.40700
O 	O 	0.59323 0.26673 0.37425 -0.34800
O 	O 	0.51039 0.22735 0.50302 -0.33800
C 	C 	0.46949 0.22097 0.47410 0.29300
C 	C 	0.69499 0.41778 0.45018 0.28800
O 	O 	0.63631 0.37917 0.45658 -0.38200
O 	O 	0.48941 0.25560 0.44650 -0.37700
O 	O 	0.68549 0.27848 0.39867 -0.29500
C 	C 	0.73393 0.23013 0.47743 0.29700
O 	O 	0.60924 0.30631 0.56311 -0.33100
O 	O 	0.70495 0.32393 0.58631 -0.37300
H 	H 	0.57570 0.20431 0.44707 0.19200
H 	H 	0.72186 0.37481 0.52021 0.18400
C 	C 	0.72563 0.37886 0.77588 0.02900
C 	C 	0.66341 0.35445 0.75742 0.09500
C 	C 	0.61437 0.33399 0.77987 -0.11600
C 	C 	0.62722 0.33188 0.81949 0.07600
C 	C 	0.68874 0.35356 0.83734 -0.01200
C 	C 	0.73951 0.38153 0.81619 -0.07100
C 	C 	0.64851 0.34298 0.71405 0.09500
C 	C 	0.54691 0.30902 0.76110 0.79000
H 	H 	0.58877 0.31117 0.83611 0.06800
C 	C 	0.80778 0.41105 0.83603 0.77400
H 	H 	0.76267 0.39375 0.75848 0.11200
C 	C 	0.67132 0.39420 0.69364 -0.11300
C 	C 	0.66971 0.38334 0.65317 0.07800
C 	C 	0.64204 0.32198 0.63267 -0.00600
C 	C 	0.61249 0.26981 0.65226 -0.07100
C 	C 	0.61833 0.28122 0.69312 0.03000
C 	C 	0.70264 0.46142 0.71521 0.79000
H 	H 	0.69206 0.42299 0.63782 0.07500
C 	C 	0.57847 0.20246 0.63001 0.77400
H 	H 	0.60167 0.24249 0.70898 0.11300
F 	F 	0.85175 0.44838 0.81334 -0.42000
F 	F 	0.81338 0.36339 0.84227 -0.45500
F 	F 	0.82319 0.44942 0.87159 -0.44900
F 	F 	0.51356 0.24641 0.74248 -0.43100
F 	F 	0.54850 0.34481 0.73413 -0.40200
F 	F 	0.51388 0.31163 0.78900 -0.43200
F 	F 	0.62334 0.19523 0.61844 -0.46400
F 	F 	0.53611 0.19048 0.59723 -0.44000
F 	F 	0.54367 0.15767 0.65279 -0.42000
F 	F 	0.70172 0.49835 0.68995 -0.42800
F 	F 	0.76585 0.48919 0.73146 -0.43100
F 	F 	0.67066 0.46125 0.74459 -0.40500
C 	C 	0.62738 0.25194 0.18459 0.03500
C 	C 	0.68638 0.28758 0.21075 0.08800
C 	C 	0.74453 0.31978 0.19623 -0.10400
C 	C 	0.74234 0.32276 0.15613 0.07300
C 	C 	0.68328 0.29151 0.13053 0.00400
C 	C 	0.62520 0.25188 0.14426 -0.06500
C 	C 	0.68640 0.29220 0.25338 0.09900
C 	C 	0.80838 0.34959 0.22319 0.78900
H 	H 	0.78647 0.35064 0.14489 0.07700
C 	C 	0.56079 0.21166 0.11632 0.77600
H 	H 	0.58316 0.22575 0.19592 0.10700
C 	C 	0.68010 0.33664 0.27403 -0.11700
C 	C 	0.67032 0.33315 0.31284 0.07100
C 	C 	0.66698 0.28671 0.33134 -0.00400
C 	C 	0.67287 0.24190 0.31058 -0.06400
C 	C 	0.68435 0.24648 0.27206 0.02500
C 	C 	0.67749 0.38375 0.25366 0.79000
H 	H 	0.66270 0.36508 0.32836 0.06100
C 	C 	0.66712 0.18935 0.32919 0.77600
H 	H 	0.68945 0.21298 0.25592 0.11900
F 	F 	0.54419 0.25010 0.10568 -0.43900
F 	F 	0.51273 0.16524 0.13342 -0.43400
F 	F 	0.56397 0.18125 0.08312 -0.44600
F 	F 	0.80724 0.30298 0.23906 -0.43100
F 	F 	0.81944 0.39501 0.25317 -0.40600
F 	F 	0.85928 0.37877 0.20344 -0.42900
F 	F 	0.66211 0.14429 0.30186 -0.42900
F 	F 	0.61286 0.15813 0.34593 -0.44100
F 	F 	0.72105 0.21528 0.35761 -0.42600
F 	F 	0.68284 0.42980 0.28023 -0.44400
F 	F 	0.61954 0.35169 0.22790 -0.43500
F 	F 	0.72719 0.41467 0.23323 -0.41300
C 	C 	0.77976 0.70256 0.43851 -0.05600
C 	C 	0.80542 0.68458 0.46650 0.00900
C 	C 	0.85866 0.73160 0.49582 0.00700
C 	C 	0.88577 0.79586 0.49672 -0.02700
C 	C 	0.86197 0.81417 0.46773 -0.02700
C 	C 	0.80818 0.76698 0.43857 0.03100
C 	C 	0.77860 0.61672 0.46338 0.02000
S 	S 	0.89314 0.71076 0.53076 -0.00600
H 	H 	0.92683 0.83190 0.51928 0.05300
S 	S 	0.77839 0.78776 0.40065 -0.01200
H 	H 	0.73878 0.66638 0.41595 0.06200
C 	C 	0.73497 0.57879 0.48698 -0.00500
C 	C 	0.70991 0.51459 0.48331 0.00100
C 	C 	0.72585 0.48682 0.45514 -0.08300
C 	C 	0.76853 0.52472 0.43084 0.05400
C 	C 	0.79558 0.58956 0.43575 -0.06400
S 	S 	0.71015 0.61071 0.52055 -0.00300
H 	H 	0.67730 0.48596 0.50208 0.05100
S 	S 	0.78494 0.49110 0.39238 0.01900
H 	H 	0.82864 0.61864 0.41731 0.06900
H 	H 	0.81088 0.79617 0.37048 0.04900
H 	H 	0.65813 0.60531 0.50193 0.04700
H 	H 	0.74598 0.47875 0.35819 0.08000
H 	H 	0.86413 0.70078 0.56273 0.05200
C 	C 	0.82080 0.04765 0.49388 -0.05700
C 	C 	0.81984 0.07365 0.46088 0.01000
C 	C 	0.84251 0.06336 0.42822 0.00500
C 	C 	0.86751 0.02879 0.42932 -0.02700
C 	C 	0.87019 0.00433 0.46275 -0.02300
C 	C 	0.84598 0.01324 0.49505 0.03400
C 	C 	0.79805 0.11428 0.46165 0.02300
S 	S 	0.83983 0.09351 0.38586 0.01700
H 	H 	0.88572 0.02164 0.40436 0.05500
S 	S 	0.84897 0.98355 0.53759 -0.01600
H 	H 	0.80299 0.05521 0.51893 0.06000
C 	C 	0.73244 0.08735 0.45079 -0.00100
C 	C 	0.71230 0.12614 0.45471 0.01800
C 	C 	0.75705 0.19173 0.46932 -0.06800
C 	C 	0.82297 0.21893 0.47909 0.05900
C 	C 	0.84303 0.18010 0.47514 -0.06000
S 	S 	0.67510 0.00515 0.43258 0.01500
H 	H 	0.66167 0.10516 0.44693 0.06800
S 	S 	0.88048 0.30091 0.49805 -0.00400
H 	H 	0.89357 0.20089 0.48331 0.06500
H 	H 	0.79435 0.92257 0.53385 0.04800
H 	H 	0.65436 0.97404 0.46328 0.04300
H 	H 	0.88670 0.31139 0.53796 0.03700
H 	H 	0.78139 0.05020 0.36163 0.06100
C 	C 	0.29411 0.08687 0.46850 -0.06300
C 	C 	0.26998 0.12108 0.47774 0.02200
C 	C 	0.31233 0.18799 0.48826 -0.00200
C 	C 	0.37783 0.22007 0.48793 0.00900
C 	C 	0.40170 0.18600 0.47759 -0.07100
C 	C 	0.35973 0.11897 0.46840 0.05800
C 	C 	0.20007 0.08656 0.47518 0.00900
S 	S 	0.28374 0.23208 0.50133 0.00400
H 	H 	0.41018 0.27163 0.49530 0.05500
S 	S 	0.38844 0.07487 0.45573 0.00100
H 	H 	0.26162 0.03535 0.46075 0.06400
C 	C 	0.16087 0.07708 0.44044 0.00600
C 	C 	0.09469 0.04405 0.43860 -0.02800
C 	C 	0.06708 0.01982 0.47097 -0.02800
C 	C 	0.10642 0.03005 0.50588 0.03200
C 	C 	0.17259 0.06311 0.50773 -0.05400
S 	S 	0.19401 0.10571 0.39901 -0.01900
H 	H 	0.06449 0.03625 0.41175 0.05300
S 	S 	0.07357 0.00277 0.54765 -0.00700
H 	H 	0.20280 0.07083 0.53454 0.06900
H 	H 	0.38684 0.06751 0.41617 0.04700
H 	H 	0.19582 0.06101 0.37712 0.04700
H 	H 	0.05394 0.94166 0.54636 0.04400
H 	H 	0.26500 0.24563 0.46827 0.04500
C 	C 	0.82366 0.64661 0.95293 -0.05900
C 	C 	0.84670 0.69209 0.98702 0.01700
C 	C 	0.83254 0.67220 0.02307 -0.00000
C 	C 	0.80092 0.60794 0.02524 -0.00000
C 	C 	0.77986 0.56242 0.99132 -0.07200
C 	C 	0.78843 0.58183 0.95460 0.05000
C 	C 	0.88476 0.76039 0.98449 0.01200
S 	S 	0.85255 0.72691 0.06541 -0.00600
H 	H 	0.79306 0.59344 0.05340 0.05800
S 	S 	0.75081 0.52569 0.91043 0.06100
H 	H 	0.83222 0.66160 0.92493 0.07200
C 	C 	0.95170 0.80171 0.99854 0.00400
C 	C 	0.98636 0.86639 0.99673 -0.02100
C 	C 	0.95571 0.88990 0.97893 -0.02900
C 	C 	0.88951 0.84732 0.96211 0.03400
C 	C 	0.85420 0.78348 0.96619 -0.05600
S 	S 	0.99300 0.77262 0.01702 -0.00300
H 	H 	0.03737 0.89840 0.00894 0.05200
S 	S 	0.85163 0.87155 0.93285 -0.01500
H 	H 	0.80313 0.75127 0.95414 0.06200
H 	H 	0.69001 0.50820 0.89930 0.05600
H 	H 	0.01030 0.75227 0.98676 0.05000
H 	H 	0.85982 0.86478 0.89503 0.04900
H 	H 	0.91213 0.75061 0.08558 0.04900
C 	C 	0.92664 0.13549 0.96189 -0.05400
C 	C 	0.90773 0.14037 0.99745 0.00400
C 	C 	0.92227 0.11876 0.02910 0.00900
C 	C 	0.95511 0.09219 0.02477 -0.02900
C 	C 	0.97310 0.08636 0.98899 -0.02000
C 	C 	0.95866 0.10814 0.95736 0.02900
C 	C 	0.87000 0.16531 0.00051 0.02400
S 	S 	0.89913 0.12422 0.07411 -0.00000
H 	H 	0.96595 0.07527 0.04908 0.05700
S 	S 	0.97726 0.09833 0.91136 -0.01000
H 	H 	0.91522 0.15187 0.93748 0.05800
C 	C 	0.90074 0.23066 0.01375 -0.00700
C 	C 	0.86487 0.25442 0.01229 0.00900
C 	C 	0.79854 0.21372 0.99734 -0.08400
C 	C 	0.76752 0.14793 0.98506 0.05600
C 	C 	0.80334 0.12415 0.98711 -0.06800
S 	S 	0.98426 0.28338 0.03135 0.00300
H 	H 	0.88882 0.30489 0.02197 0.05500
S 	S 	0.68484 0.09548 0.96471 -0.00800
H 	H 	0.77967 0.07383 0.97702 0.06400
H 	H 	0.92808 0.03933 0.89012 0.04600
H 	H 	0.01518 0.30486 0.00058 0.04300
H 	H 	0.67637 0.09379 0.92517 0.03700
H 	H 	0.94653 0.18216 0.09724 0.05300
C 	C 	0.39394 0.21079 0.94500 -0.06100
C 	C 	0.35622 0.17252 0.97058 0.01600
C 	C 	0.38370 0.15835 0.00040 0.00700
C 	C 	0.44939 0.18636 0.00620 0.00100
C 	C 	0.48803 0.22724 0.98186 -0.06800
C 	C 	0.45938 0.23722 0.94996 0.05100
C 	C 	0.28824 0.14825 0.96641 0.01000
S 	S 	0.33629 0.10547 0.03059 0.02600
H 	H 	0.47067 0.17710 0.03008 0.11300
S 	S 	0.50348 0.27868 0.91461 -0.00100
H 	H 	0.37232 0.21990 0.92120 0.06700
C 	C 	0.26940 0.17592 0.99252 0.00400
C 	C 	0.20407 0.14602 0.99238 -0.02800
C 	C 	0.15710 0.08952 0.96564 -0.02700
C 	C 	0.17612 0.06561 0.93688 0.03200
C 	C 	0.24151 0.09443 0.93789 -0.05500
S 	S 	0.32716 0.24771 0.02564 -0.00100
H 	H 	0.18980 0.16576 0.01378 0.05700
S 	S 	0.11903 0.00224 0.89824 -0.00800
H 	H 	0.25604 0.07452 0.91681 0.06400
H 	H 	0.50122 0.23726 0.88637 0.05500
H 	H 	0.34277 0.29796 0.00796 0.04900
H 	H 	0.10779 0.02599 0.86803 0.04900
H 	H 	0.33517 0.13885 0.06263 0.06200
