data_crystal

_cell_length_a 20.84546
_cell_length_b 19.65225
_cell_length_c 43.37713
_cell_angle_alpha 90.72013
_cell_angle_beta  90.82585
_cell_angle_gamma 113.67933

_symmetry_space_group_name_	'P 1'
_symmetry_space_group_name_H-M	'P 1'

loop_
_symmetry_equiv_pos_as_xyz
  x,y,z

loop_
_atom_site_label
_atom_site_type_symbol
_atom_site_fract_x
_atom_site_fract_y
_atom_site_fract_z
_atom_site_charge
C 	C 	0.04804 0.98511 0.69598 -0.04400
H 	H 	0.05501 0.98457 0.67062 0.04000
C 	C 	0.03073 0.98581 0.75656 -0.04700
H 	H 	0.02393 0.98650 0.78192 0.04100
C 	C 	0.02462 0.90842 0.71097 -0.00500
C 	C 	0.11416 0.03355 0.71453 -0.00200
C 	C 	0.10566 0.03209 0.74591 0.00000
Ni	Ni	0.21100 0.65800 0.41854 1.09900
O 	O 	0.15638 0.68417 0.38442 -0.38200
O 	O 	0.18550 0.55313 0.39970 -0.37300
O 	O 	0.14374 0.51459 0.45553 -0.40800
O 	O 	0.12365 0.61824 0.44456 -0.38900
C 	C 	0.17893 0.75327 0.37539 0.28400
C 	C 	0.23060 0.52132 0.39860 0.28700
C 	C 	0.10330 0.55237 0.45704 0.27300
O 	O 	0.15856 0.63840 0.01233 -0.38600
O 	O 	0.18126 0.74099 0.06390 -0.38100
C 	C 	0.21722 0.56280 0.05910 0.31900
C 	C 	0.15849 0.61173 0.98409 0.28200
O 	O 	0.21412 0.60431 0.97276 -0.42100
C 	C 	0.01184 0.16714 0.24322 0.00400
C 	C 	0.09417 0.28082 0.14738 -0.07000
C 	C 	0.07721 0.34259 0.14978 -0.01500
C 	C 	0.03113 0.34541 0.17287 0.04200
C 	C 	0.02026 0.22397 0.19098 -0.01000
C 	C 	0.06809 0.22274 0.16834 0.04700
C 	C 	0.10981 0.40502 0.12837 0.01100
C 	C 	0.09161 0.16016 0.16625 -0.18500
H 	H 	0.12934 0.27881 0.12954 0.04400
C 	C 	0.17873 0.45842 0.13402 0.01700
C 	C 	0.21342 0.50870 0.11091 -0.01000
C 	C 	0.17974 0.50761 0.08254 -0.11600
C 	C 	0.10930 0.45691 0.07756 0.10600
C 	C 	0.07537 0.40521 0.10037 -0.10000
C 	C 	0.21662 0.45975 0.16407 -0.16800
C 	C 	0.07004 0.45769 0.04815 -0.21100
H 	H 	0.02243 0.36427 0.09614 0.05100
H 	H 	0.13914 0.17483 0.15209 0.06000
H 	H 	0.04922 0.11127 0.15521 0.07000
H 	H 	0.10552 0.14737 0.18955 0.06600
H 	H 	0.05947 0.46276 0.18004 0.06100
H 	H 	0.18275 0.45775 0.18387 0.05900
H 	H 	0.09217 0.43835 0.02844 0.08300
H 	H 	0.07369 0.51467 0.04382 0.09000
H 	H 	0.01353 0.42066 0.04940 0.07000
C 	C 	0.02779 0.91308 0.14420 -0.01300
C 	C 	0.07627 0.96074 0.16603 0.04400
C 	C 	0.05294 0.99454 0.18926 -0.07000
C 	C 	0.05059 0.87281 0.12084 0.00900
C 	C 	0.15322 0.97626 0.16450 -0.18200
H 	H 	0.09043 0.03085 0.20600 0.04500
C 	C 	0.06296 0.80984 0.12905 0.01900
C 	C 	0.10790 0.78906 0.11123 -0.01900
C 	C 	0.13601 0.82691 0.08415 -0.11400
C 	C 	0.11248 0.88061 0.07306 0.09600
C 	C 	0.07179 0.90496 0.09209 -0.09900
C 	C 	0.03268 0.76828 0.15797 -0.16600
H 	H 	0.12271 0.74498 0.11893 0.03600
C 	C 	0.13047 0.91223 0.04129 -0.20000
H 	H 	0.05920 0.95107 0.08513 0.04900
H 	H 	0.17281 0.99435 0.14104 0.05900
H 	H 	0.16160 0.92550 0.17018 0.05800
H 	H 	0.18515 0.02119 0.18102 0.05700
H 	H 	0.03270 0.71176 0.15728 0.05700
H 	H 	0.06406 0.79908 0.17841 0.05800
H 	H 	0.09228 0.93465 0.03299 0.06300
H 	H 	0.12882 0.86859 0.02439 0.07500
H 	H 	0.18344 0.95814 0.04186 0.07100
C 	C 	0.09321 0.33893 0.29398 -0.07200
C 	C 	0.16446 0.35434 0.29106 -0.01300
C 	C 	0.18604 0.31447 0.26926 0.04200
C 	C 	0.13527 0.25501 0.25267 -0.06700
C 	C 	0.06376 0.23647 0.25719 -0.01400
C 	C 	0.04254 0.28013 0.27736 0.05100
C 	C 	0.21427 0.40538 0.31377 0.00900
H 	H 	0.15131 0.22138 0.23716 0.04100
H 	H 	0.07709 0.37038 0.31061 0.04900
C 	C 	0.22703 0.48130 0.31349 0.01800
C 	C 	0.23567 0.52026 0.34150 -0.01400
C 	C 	0.23827 0.48601 0.36946 -0.11700
C 	C 	0.23972 0.41453 0.36889 0.09900
C 	C 	0.22898 0.37529 0.34071 -0.09800
C 	C 	0.22132 0.51788 0.28386 -0.16700
H 	H 	0.23565 0.57535 0.34161 0.01700
C 	C 	0.24850 0.37819 0.39817 -0.20100
H 	H 	0.22399 0.31819 0.34035 0.04800
H 	H 	0.25360 0.57866 0.28530 0.05000
H 	H 	0.16584 0.50860 0.27931 0.05900
H 	H 	0.24033 0.49481 0.26421 0.05700
H 	H 	0.24571 0.32130 0.39362 0.06000
H 	H 	0.20633 0.37344 0.41444 0.06800
C 	C 	0.11673 0.80417 0.30093 -0.09200
C 	C 	0.08214 0.84727 0.31208 0.00600
C 	C 	0.06963 0.84920 0.34392 0.02100
C 	C 	0.09814 0.81384 0.36447 -0.01200
C 	C 	0.13716 0.77528 0.35350 -0.11100
C 	C 	0.14380 0.76734 0.32146 0.08400
C 	C 	0.06133 0.89237 0.29047 -0.00900
C 	C 	0.02820 0.89115 0.35610 -0.16600
H 	H 	0.09210 0.81850 0.38910 0.03300
H 	H 	0.12439 0.80120 0.27636 0.04600
C 	C 	0.10555 0.96750 0.28578 0.03600
C 	C 	0.07959 0.01287 0.26977 -0.06500
C 	C 	0.01093 0.98368 0.25767 -0.01500
C 	C 	0.17946 0.00004 0.29878 -0.17200
H 	H 	0.11259 0.07125 0.26693 0.04100
H 	H 	0.05724 0.95159 0.35244 0.05800
H 	H 	0.01859 0.88252 0.38116 0.05700
H 	H 	0.20960 0.05690 0.29021 0.05500
H 	H 	0.20752 0.96491 0.29186 0.05600
H 	H 	0.17853 0.00320 0.32433 0.06000
C 	C 	0.02776 0.51231 0.46433 -0.05600
H 	H 	0.02219 0.40366 0.45070 0.04200
C 	C 	0.04258 0.14148 0.66337 -0.17900
H 	H 	0.07861 0.11276 0.66267 0.06600
H 	H 	0.05445 0.17882 0.68391 0.05800
H 	H 	0.05323 0.17657 0.64260 0.05600
C 	C 	0.20679 0.02628 0.68082 -0.07100
C 	C 	0.18298 0.07060 0.69910 -0.01300
C 	C 	0.21750 0.14928 0.69754 0.04500
H 	H 	0.18005 0.96635 0.68152 0.04000
C 	C 	0.19179 0.20038 0.71467 -0.18300
H 	H 	0.19591 0.24769 0.69990 0.05600
H 	H 	0.13628 0.17288 0.72118 0.06500
H 	H 	0.24177 0.95058 0.63892 0.05600
H 	H 	0.22472 0.15904 0.60949 0.06000
C 	C 	0.09827 0.80600 0.71341 -0.18100
H 	H 	0.13315 0.78124 0.70360 0.05700
H 	H 	0.08050 0.78071 0.73610 0.06500
H 	H 	0.13027 0.86620 0.71643 0.06100
C 	C 	0.04588 0.61410 0.96719 -0.00800
C 	C 	0.09156 0.57772 0.96735 -0.07500
C 	C 	0.06700 0.50308 0.95752 -0.01000
H 	H 	0.06475 0.67221 0.97404 0.02800
H 	H 	0.10205 0.47465 0.95725 0.02800
H 	H 	0.01823 0.16180 0.73532 0.04200
C 	C 	0.19438 0.17565 0.80829 0.04500
C 	C 	0.14841 0.13510 0.78448 -0.07400
C 	C 	0.16019 0.07929 0.76809 -0.01200
C 	C 	0.21772 0.06201 0.77645 0.05000
H 	H 	0.10303 0.14658 0.77875 0.04500
C 	C 	0.22951 0.99886 0.76112 -0.18900
H 	H 	0.18051 0.09877 0.87031 0.06000
H 	H 	0.13306 0.24127 0.81670 0.05800
H 	H 	0.26178 0.01906 0.74042 0.06800
H 	H 	0.17945 0.95243 0.75464 0.06400
C 	C 	0.03201 0.83880 0.78631 -0.07100
C 	C 	0.05235 0.79189 0.83778 -0.18200
H 	H 	0.08591 0.87898 0.78749 0.04100
H 	H 	0.05992 0.73918 0.83881 0.06300
H 	H 	0.10474 0.83837 0.83616 0.05700
C 	C 	0.01318 0.90850 0.74215 0.00000
O 	O 	0.22308 0.54055 0.03098 -0.40100
H 	H 	0.07031 0.73537 0.60989 0.05800
C 	C 	0.01168 0.41124 0.17569 -0.17300
C 	C 	0.18098 0.23565 0.82552 -0.18100
H 	H 	0.17394 0.22238 0.85038 0.06200
C 	C 	0.26267 0.33230 0.26489 -0.17900
H 	H 	0.22500 0.22311 0.73566 0.06500
O 	O 	0.30116 0.69245 0.39427 -0.70900
O 	O 	0.24166 0.80152 0.38398 -0.42800
Ni	Ni	0.32941 0.78373 0.37148 1.07000
O 	O 	0.28004 0.65873 0.45114 -0.69600
O 	O 	0.34935 0.57223 0.48342 -0.40300
Ni	Ni	0.25043 0.55624 0.46494 1.06300
H 	H 	0.30077 0.65412 0.37935 0.15300
H 	H 	0.28009 0.69181 0.46855 0.15400
O 	O 	0.27041 0.52364 0.42279 -0.43000
O 	O 	0.32067 0.70860 0.00933 -0.70100
Ni	Ni	0.24494 0.71267 0.03585 1.09800
O 	O 	0.37780 0.60011 0.02494 -0.41600
Ni	Ni	0.29469 0.60344 0.99915 1.06600
O 	O 	0.33183 0.77938 0.06055 -0.70100
O 	O 	0.24269 0.86493 0.05508 -0.42100
H 	H 	0.32272 0.73666 0.99032 0.15400
H 	H 	0.33103 0.76212 0.08195 0.15200
C 	C 	0.19052 0.81071 0.06825 0.28300
O 	O 	0.24224 0.63349 0.06646 -0.40600
H 	H 	0.26693 0.54846 0.11492 0.03100
H 	H 	0.26524 0.51119 0.16686 0.05500
H 	H 	0.23104 0.41120 0.16483 0.06000
H 	H 	0.28313 0.31051 0.28447 0.05900
H 	H 	0.29289 0.39333 0.26369 0.06000
H 	H 	0.27126 0.30704 0.24312 0.05700
H 	H 	0.30048 0.41132 0.40908 0.07000
C 	C 	0.18287 0.72297 0.30921 -0.19000
H 	H 	0.23963 0.75241 0.31488 0.01900
H 	H 	0.17636 0.71484 0.28378 0.05700
H 	H 	0.16282 0.66710 0.31963 0.06500
H 	H 	0.35231 0.97464 0.42275 0.03100
C 	C 	0.27708 0.18103 0.67928 -0.07100
C 	C 	0.29693 0.13667 0.65928 -0.01700
C 	C 	0.26140 0.05849 0.66004 0.04400
C 	C 	0.35194 0.17268 0.63612 0.01000
C 	C 	0.28083 0.00911 0.63857 -0.17800
H 	H 	0.30538 0.24093 0.67920 0.04200
C 	C 	0.33814 0.20829 0.61031 0.01800
C 	C 	0.26844 0.21401 0.60626 -0.16700
H 	H 	0.33256 0.01005 0.64564 0.06200
H 	H 	0.28309 0.02819 0.61446 0.06600
H 	H 	0.26198 0.23269 0.58279 0.05400
H 	H 	0.26448 0.25473 0.62328 0.05700
C 	C 	0.29885 0.19670 0.84240 0.00800
C 	C 	0.29311 0.15957 0.87053 0.01800
C 	C 	0.25233 0.15921 0.81609 -0.01600
C 	C 	0.22859 0.09108 0.87729 -0.16900
C 	C 	0.26497 0.10454 0.79945 -0.07100
H 	H 	0.31033 0.09303 0.80535 0.04100
H 	H 	0.23016 0.04250 0.86451 0.05900
H 	H 	0.22515 0.07913 0.90233 0.05700
H 	H 	0.22596 0.28994 0.82291 0.06100
H 	H 	0.25769 0.97592 0.77705 0.05700
O 	O 	0.35734 0.88933 0.01501 -0.42500
C 	C 	0.03589 0.79138 0.69232 0.04300
H 	H 	0.34841 0.15168 0.91180 0.03700
H 	H 	0.02853 0.80002 0.85951 0.06300
H 	H 	0.01426 0.61163 0.47854 0.04000
Ni	Ni	0.34814 0.88363 0.06130 1.06500
Ni	Ni	0.37188 0.70013 0.42680 1.09800
O 	O 	0.39397 0.86245 0.40210 -0.40800
O 	O 	0.42739 0.67899 0.46190 -0.37300
C 	C 	0.38974 0.85956 0.43225 0.28500
C 	C 	0.41162 0.61100 0.47164 0.27200
O 	O 	0.38542 0.79978 0.44700 -0.38900
O 	O 	0.41303 0.76586 0.35704 -0.42600
Ni	Ni	0.40672 0.76262 0.03713 1.10100
C 	C 	0.41754 0.90033 0.00286 0.29200
C 	C 	0.41423 0.93017 0.44961 -0.06900
C 	C 	0.39263 0.98606 0.44049 -0.02100
H 	H 	0.40682 0.09989 0.44662 0.03200
C 	C 	0.38994 0.23887 0.58812 -0.01200
C 	C 	0.41689 0.16752 0.63908 -0.09900
H 	H 	0.38026 0.26880 0.56902 0.03500
H 	H 	0.42788 0.14156 0.65922 0.04800
H 	H 	0.36954 0.99934 0.97949 0.02900
H 	H 	0.39601 0.50627 0.98671 0.01200
C 	C 	0.35685 0.26315 0.83749 -0.09600
C 	C 	0.35038 0.18312 0.89120 -0.01200
H 	H 	0.35985 0.29284 0.81629 0.04600
C 	C 	0.44248 0.63950 0.01666 0.26200
O 	O 	0.46403 0.74959 0.40250 -0.38000
O 	O 	0.46654 0.71275 0.01711 -0.37700
O 	O 	0.44561 0.85147 0.00715 -0.37000
C 	C 	0.42409 0.05726 0.45378 -0.00700
C 	C 	0.46984 0.59056 0.48074 -0.06500
H 	H 	0.45541 0.59914 0.52965 0.03500
C 	C 	0.45272 0.22821 0.58958 -0.11200
C 	C 	0.46566 0.19061 0.61521 0.10100
C 	C 	0.45964 0.97428 0.98976 -0.08600
C 	C 	0.42620 0.02042 0.98034 -0.00900
H 	H 	0.43893 0.12843 0.96463 0.04600
C 	C 	0.45216 0.53005 0.99089 -0.01800
H 	H 	0.46454 0.43522 0.97140 0.04300
C 	C 	0.41165 0.24482 0.88457 -0.11500
C 	C 	0.41338 0.28801 0.85858 0.08600
H 	H 	0.05007 0.71546 0.56962 0.05500
C 	C 	0.47549 0.25879 0.90264 0.28700
O 	O 	0.47372 0.24871 0.53495 -0.39900
C 	C 	0.46901 0.78025 0.37489 0.30000
O 	O 	0.45456 0.92116 0.06795 -0.41400
O 	O 	0.48649 0.82179 0.06650 -0.38700
H 	H 	0.45426 0.91477 0.13673 0.00700
H 	H 	0.46806 0.94716 0.18977 0.04900
C 	C 	0.47766 0.07316 0.47622 -0.07400
C 	C 	0.46641 0.94559 0.47261 -0.01800
H 	H 	0.48438 0.90324 0.47945 0.04200
C 	C 	0.48316 0.58300 0.51202 -0.01100
C 	C 	0.50783 0.57167 0.45821 -0.01800
H 	H 	0.49889 0.57854 0.43400 0.02600
C 	C 	0.46564 0.09419 0.97229 -0.02000
C 	C 	0.49103 0.48947 0.98235 -0.01600
C 	C 	0.48537 0.60082 0.00491 -0.07100
C 	C 	0.47733 0.35742 0.85212 -0.19700
H 	H 	0.46838 0.38747 0.83210 0.06000
C 	C 	0.48628 0.88158 0.08071 0.28600
H 	H 	0.03681 0.68911 0.67410 0.04000
O 	O 	0.49965 0.31668 0.92164 -0.38600
O 	O 	0.49922 0.20567 0.90449 -0.41700
C 	C 	0.50051 0.25061 0.56276 0.31500
C 	C 	0.50934 0.92563 0.13491 -0.01500
C 	C 	0.49825 0.01671 0.48568 -0.00900
C 	C 	0.52948 0.55085 0.52060 -0.01400
C 	C 	0.52860 0.17104 0.61664 -0.20600
H 	H 	0.52580 0.13400 0.63618 0.06600
H 	H 	0.49093 0.39598 0.87241 0.06500
O 	O 	0.50684 0.20543 0.47634 -0.41700
O 	O 	0.54691 0.40692 0.51859 -0.41800
Ni	Ni	0.52848 0.30516 0.49760 1.06700
C 	C 	0.51098 0.14776 0.49052 0.28300
C 	C 	0.53534 0.91423 0.10657 -0.12100
C 	C 	0.52572 0.96425 0.19106 -0.16800
H 	H 	0.53726 0.93269 0.20984 0.05500
C 	C 	0.53899 0.82199 0.36173 -0.11200
H 	H 	0.51261 0.75777 0.31920 0.03400
H 	H 	0.53348 0.91524 0.41256 0.08600
H 	H 	0.57457 0.85433 0.42526 0.08900
H 	H 	0.53980 0.02829 0.50283 0.03500
C 	C 	0.55414 0.53921 0.46682 -0.02000
C 	C 	0.56250 0.52536 0.49799 -0.06800
H 	H 	0.53622 0.54136 0.54476 0.03400
H 	H 	0.53102 0.14073 0.59522 0.09000
C 	C 	0.53910 0.12263 0.97285 -0.06800
C 	C 	0.53329 0.00291 0.99048 -0.00100
C 	C 	0.55838 0.63130 0.00961 -0.01300
H 	H 	0.52223 0.34264 0.84696 0.04200
O 	O 	0.53824 0.15429 0.51871 -0.38600
H 	H 	0.55054 0.02453 0.19697 0.05900
C 	C 	0.02887 0.72485 0.59187 -0.16500
H 	H 	0.57970 0.52027 0.44914 0.02600
C 	C 	0.56384 0.51927 0.98740 -0.07000
C 	C 	0.55377 0.94958 0.16098 0.01300
C 	C 	0.55049 0.80658 0.33106 -0.01500
H 	H 	0.56011 0.96879 0.99811 0.03700
H 	H 	0.01687 0.77481 0.58988 0.06000
O 	O 	0.57489 0.40427 0.97502 -0.38300
O 	O 	0.56358 0.25260 0.96435 -0.36800
O 	O 	0.56778 0.26828 0.56662 -0.40800
C 	C 	0.58943 0.46910 0.50614 0.26000
C 	C 	0.58025 0.90219 0.41058 -0.21300
H 	H 	0.57727 0.22213 0.61995 0.07800
C 	C 	0.57272 0.07649 0.98190 -0.02100
H 	H 	0.58467 0.68557 0.02055 0.03900
C 	C 	0.01219 0.72828 0.67286 -0.06600
Ni	Ni	0.59834 0.34990 0.93906 1.09900
C 	C 	0.57985 0.19518 0.95874 0.28400
C 	C 	0.60511 0.47735 0.97717 0.26200
C 	C 	0.58945 0.88491 0.37738 0.10200
H 	H 	0.57440 0.78843 0.27287 0.05400
C 	C 	0.59749 0.59072 0.00085 -0.01300
Ni	Ni	0.59862 0.21970 0.89284 1.06300
C 	C 	0.00110 0.84019 0.69148 -0.00500
C 	C 	0.60737 0.93028 0.10379 0.10900
H 	H 	0.00250 0.27483 0.73862 0.05800
C 	C 	0.00540 0.78915 0.81058 0.04700
H 	H 	0.59758 0.84583 0.20355 0.06000
H 	H 	0.61578 0.94858 0.05455 0.08300
C 	C 	0.60883 0.85531 0.31520 0.01700
H 	H 	0.62662 0.86612 0.06720 0.08300
H 	H 	0.62610 0.95100 0.41974 0.06800
O 	O 	0.62153 0.19747 0.93628 -0.42200
Ni	Ni	0.62557 0.24358 0.53392 1.09700
O 	O 	0.62639 0.31880 0.50321 -0.70300
C 	C 	0.62482 0.96141 0.15852 0.01400
C 	C 	0.61863 0.83888 0.28197 -0.16900
H 	H 	0.62189 0.88628 0.26748 0.05900
H 	H 	0.62121 0.01054 0.28579 0.06200
H 	H 	0.62938 0.09737 0.98204 0.03400
H 	H 	0.63387 0.35349 0.88334 0.15300
C 	C 	0.63797 0.92510 0.07295 -0.20800
O 	O 	0.64072 0.32621 0.90125 -0.70200
O 	O 	0.65634 0.48250 0.50299 -0.37200
H 	H 	0.64471 0.30867 0.48354 0.15600
C 	C 	0.64811 0.93323 0.36150 -0.10000
H 	H 	0.64838 0.06113 0.32215 0.06300
H 	H 	0.65372 0.61452 0.00477 0.02700
C 	C 	0.65098 0.95113 0.13007 -0.10400
O 	O 	0.64912 0.17743 0.56411 -0.38700
C 	C 	0.00324 0.28614 0.19340 -0.06600
C 	C 	0.65751 0.91951 0.33045 0.01000
C 	C 	0.65445 0.86099 0.20061 -0.18300
O 	O 	0.66627 0.51335 0.96439 -0.41400
C 	C 	0.66524 0.05460 0.29853 -0.18100
H 	H 	0.66292 0.84046 0.17771 0.06200
C 	C 	0.67411 0.99158 0.18470 -0.02300
H 	H 	0.66760 0.82975 0.27978 0.05900
H 	H 	0.67217 0.83230 0.21860 0.05600
H 	H 	0.67780 0.10778 0.28643 0.05900
O 	O 	0.69081 0.21027 0.87957 -0.41800
H 	H 	0.68661 0.98167 0.37333 0.05000
H 	H 	0.68243 0.04343 0.53495 0.07300
H 	H 	0.69571 0.95697 0.07327 0.06500
Ni	Ni	0.69674 0.41412 0.52408 1.10000
H 	H 	0.69461 0.10492 0.17393 0.04200
C 	C 	0.69415 0.94416 0.20296 0.04700
H 	H 	0.69712 0.20424 0.80739 0.01700
O 	O 	0.69898 0.37826 0.95357 -0.70400
H 	H 	0.69984 0.34594 0.57229 0.14900
H 	H 	0.70148 0.34308 0.96921 0.15600
H 	H 	0.70595 0.96137 0.12831 0.05000
O 	O 	0.70720 0.33605 0.55048 -0.70100
H 	H 	0.70577 0.16581 0.75573 0.05200
C 	C 	0.71177 0.06856 0.18715 -0.06500
C 	C 	0.71272 0.17904 0.56533 0.28500
H 	H 	0.71526 0.95970 0.67193 0.06000
H 	H 	0.71919 0.19297 0.62686 0.02000
C 	C 	0.72264 0.96842 0.31509 -0.01800
H 	H 	0.73190 0.46603 0.61204 0.05500
C 	C 	0.72741 0.03393 0.30022 0.04900
C 	C 	0.72942 0.13175 0.58704 -0.12100
H 	H 	0.72964 0.08800 0.76082 0.05800
H 	H 	0.73316 0.91098 0.63971 0.06200
C 	C 	0.74110 0.26083 0.86406 0.29000
C 	C 	0.73466 0.04759 0.54312 -0.20200
H 	H 	0.73536 0.99162 0.54030 0.06300
C 	C 	0.73593 0.15057 0.61852 -0.01900
Ni	Ni	0.74338 0.36354 0.91483 1.09800
H 	H 	0.74160 0.88436 0.67849 0.05600
C 	C 	0.74887 0.20681 0.81312 -0.01500
Ni	Ni	0.74948 0.48058 0.96913 1.06700
C 	C 	0.74789 0.07409 0.57630 0.10200
H 	H 	0.74636 0.17329 0.67881 0.05200
C 	C 	0.74999 0.14960 0.76096 -0.16700
C 	C 	0.74950 0.93256 0.66361 -0.18000
O 	O 	0.75485 0.46091 0.89439 -0.40300
C 	C 	0.75577 0.97447 0.22097 -0.07600
O 	O 	0.76039 0.21937 0.54585 -0.42500
O 	O 	0.76824 0.33056 0.87350 -0.39200
O 	O 	0.76750 0.43149 0.48860 -0.36800
H 	H 	0.77090 0.46363 0.64904 0.05800
H 	H 	0.76778 0.09597 0.68751 0.06000
O 	O 	0.77133 0.50231 0.54663 -0.37800
C 	C 	0.76878 0.11911 0.63883 0.01600
H 	H 	0.77189 0.93850 0.23486 0.04200
C 	C 	0.77544 0.09823 0.20364 0.04100
H 	H 	0.77582 0.08701 0.52850 0.07300
C 	C 	0.77951 0.46586 0.62379 -0.19300
C 	C 	0.78006 0.23619 0.84181 -0.11500
H 	H 	0.77938 0.90429 0.33040 0.04400
C 	C 	0.78036 0.14431 0.67221 -0.16800
C 	C 	0.78175 0.95177 0.31724 -0.07300
C 	C 	0.78212 0.04377 0.59643 -0.10100
C 	C 	0.78399 0.18043 0.79186 0.01700
H 	H 	0.78690 0.41500 0.61676 0.03300
H 	H 	0.78656 0.21179 0.19769 0.05800
H 	H 	0.78860 0.17131 0.74235 0.05700
C 	C 	0.79022 0.07858 0.28585 -0.06800
H 	H 	0.79209 0.65803 0.89540 0.03700
H 	H 	0.79351 0.12742 0.27351 0.04200
O 	O 	0.79491 0.33395 0.49993 -0.41900
C 	C 	0.79569 0.06863 0.62721 0.01000
C 	C 	0.99388 0.01497 0.70638 -0.00500
H 	H 	0.97755 0.76167 0.16051 0.05900
C 	C 	0.99426 0.86205 0.27692 -0.07700
H 	H 	0.99221 0.28713 0.77922 0.06000
C 	C 	0.98270 0.98609 0.18983 -0.01700
C 	C 	0.99341 0.43513 0.45908 -0.02500
H 	H 	0.96129 0.80374 0.27996 0.04500
C 	C 	0.96744 0.90751 0.26158 0.04700
C 	C 	0.95740 0.90297 0.14488 -0.07500
O 	O 	0.83472 0.45713 0.97512 -0.42200
O 	O 	0.84725 0.40715 0.92827 -0.39500
O 	O 	0.79855 0.54784 0.93305 -0.40300
C 	C 	0.79980 0.52611 0.90429 0.31000
C 	C 	0.87371 0.45434 0.95180 0.28900
Ni	Ni	0.79951 0.33504 0.54670 1.06500
C 	C 	0.80993 0.39681 0.48596 0.28800
C 	C 	0.82492 0.49352 0.56003 0.28300
O 	O 	0.85107 0.44829 0.54778 -0.41600
C 	C 	0.98480 0.01505 0.73759 -0.00100
C 	C 	0.93151 0.08639 0.20391 -0.04200
H 	H 	0.91332 0.08289 0.17955 0.03800
C 	C 	0.97523 0.09746 0.26251 -0.04900
H 	H 	0.99703 0.10525 0.28628 0.03800
C 	C 	0.96162 0.02928 0.21324 -0.00100
C 	C 	0.98990 0.16166 0.21317 -0.00900
C 	C 	0.87454 0.07535 0.22820 -0.00500
C 	C 	0.98346 0.03512 0.24352 -0.00100
C 	C 	0.89671 0.07979 0.25861 -0.00200
H 	H 	0.96869 0.28867 0.21134 0.03900
H 	H 	0.98529 0.41694 0.15406 0.05900
H 	H 	0.97542 0.40517 0.19499 0.05500
C 	C 	0.79997 0.04985 0.21876 -0.00600
C 	C 	0.81937 0.18038 0.20271 -0.18100
H 	H 	0.84610 0.20119 0.22525 0.06000
H 	H 	0.85859 0.19153 0.18436 0.06500
C 	C 	0.93395 0.93806 0.16783 0.04400
C 	C 	0.85714 0.92275 0.16884 -0.18400
H 	H 	0.92054 0.86669 0.12783 0.04200
H 	H 	0.82478 0.86915 0.15699 0.05800
H 	H 	0.84697 0.96743 0.15717 0.06300
H 	H 	0.83948 0.91816 0.19290 0.06500
C 	C 	0.84658 0.05653 0.28515 -0.01400
C 	C 	0.84607 0.00104 0.30593 0.04700
C 	C 	0.91181 0.00782 0.32303 -0.17900
H 	H 	0.89963 0.97364 0.34410 0.05700
H 	H 	0.94212 0.06617 0.33089 0.06100
H 	H 	0.94389 0.98780 0.30862 0.06400
C 	C 	0.96620 0.25997 0.28368 -0.18600
H 	H 	0.95771 0.30870 0.29283 0.06100
H 	H 	0.94804 0.21541 0.30098 0.06600
H 	H 	0.93383 0.24091 0.26235 0.06300
C 	C 	0.89221 0.87455 0.25034 -0.18500
H 	H 	0.97643 0.87180 0.34401 0.05800
H 	H 	0.88963 0.85482 0.22612 0.06400
H 	H 	0.86785 0.91512 0.25217 0.06600
H 	H 	0.86033 0.82637 0.26447 0.05900
C 	C 	0.92139 0.39824 0.46431 -0.01400
C 	C 	0.88260 0.43782 0.47499 -0.07500
C 	C 	0.91667 0.51526 0.47962 -0.00400
C 	C 	0.98873 0.55216 0.47443 -0.02500
H 	H 	0.89602 0.33864 0.46054 0.03200
H 	H 	0.88803 0.54660 0.48829 0.04700
C 	C 	0.84676 0.05086 0.64559 -0.01500
H 	H 	0.80103 0.00327 0.58784 0.05100
C 	C 	0.82488 0.98773 0.66425 0.04300
C 	C 	0.87375 0.97663 0.68378 -0.07400
C 	C 	0.94449 0.02631 0.68414 -0.00600
C 	C 	0.96712 0.08679 0.66377 0.04100
C 	C 	0.91765 0.09910 0.64504 -0.06800
H 	H 	0.85681 0.92925 0.69866 0.04000
H 	H 	0.93409 0.14719 0.63038 0.03900
H 	H 	0.83589 0.18305 0.67624 0.05700
C 	C 	0.95859 0.71681 0.65102 -0.02200
C 	C 	0.92624 0.76736 0.64917 0.05100
C 	C 	0.94877 0.82933 0.66899 -0.08200
C 	C 	0.93642 0.65189 0.63003 0.01100
C 	C 	0.86738 0.75515 0.62617 -0.18500
H 	H 	0.92471 0.86877 0.66729 0.04700
C 	C 	0.96354 0.65873 0.60006 0.01400
C 	C 	0.92655 0.60600 0.57724 -0.01000
C 	C 	0.86486 0.54549 0.58445 -0.11400
C 	C 	0.84270 0.53400 0.61524 0.08400
C 	C 	0.87907 0.58739 0.63792 -0.09500
H 	H 	0.94488 0.61281 0.55373 0.03500
H 	H 	0.86006 0.58127 0.66130 0.04700
H 	H 	0.82309 0.70119 0.63032 0.06700
H 	H 	0.88607 0.75513 0.60233 0.06700
H 	H 	0.84719 0.79945 0.62799 0.06100
C 	C 	0.99582 0.46323 0.95076 -0.01700
C 	C 	0.94916 0.49792 0.95386 -0.07600
C 	C 	0.97482 0.57420 0.96065 -0.01700
H 	H 	0.97653 0.40464 0.94468 0.03200
H 	H 	0.93927 0.60194 0.96195 0.02900
C 	C 	0.88247 0.21328 0.82816 -0.09900
C 	C 	0.84989 0.18074 0.80009 0.01100
C 	C 	0.84798 0.24073 0.84924 0.10200
C 	C 	0.88048 0.13813 0.78162 -0.01700
C 	C 	0.88392 0.27486 0.87951 -0.20500
H 	H 	0.93375 0.21471 0.83404 0.04900
C 	C 	0.93798 0.17444 0.76252 0.04500
C 	C 	0.97181 0.13350 0.74860 -0.07200
C 	C 	0.94703 0.05639 0.75235 -0.01100
C 	C 	0.88805 0.01984 0.77085 0.04800
C 	C 	0.85534 0.06122 0.78525 -0.07000
C 	C 	0.96500 0.25709 0.75784 -0.18300
C 	C 	0.85771 0.93674 0.77426 -0.18600
H 	H 	0.81060 0.03365 0.79971 0.04300
H 	H 	0.93203 0.26465 0.88356 0.06400
H 	H 	0.84858 0.25059 0.89904 0.07200
H 	H 	0.89926 0.33588 0.87942 0.08000
H 	H 	0.92101 0.27322 0.75205 0.06100
H 	H 	0.81547 0.91816 0.79148 0.05800
H 	H 	0.89832 0.91788 0.78235 0.06600
H 	H 	0.83449 0.90962 0.75192 0.06100
C 	C 	0.89233 0.73592 0.78389 -0.07100
C 	C 	0.93465 0.73814 0.80953 -0.01900
C 	C 	0.98839 0.84077 0.76161 -0.01800
C 	C 	0.91738 0.78827 0.76047 0.04600
C 	C 	0.90403 0.68682 0.83535 0.01100
C 	C 	0.86805 0.78538 0.73431 -0.18500
H 	H 	0.83867 0.69491 0.78268 0.04300
C 	C 	0.86088 0.70130 0.85705 0.01700
C 	C 	0.82742 0.64838 0.87953 -0.01100
C 	C 	0.83854 0.58262 0.88134 -0.11300
C 	C 	0.88560 0.57080 0.86085 0.10400
C 	C 	0.91595 0.62179 0.83740 -0.10000
C 	C 	0.84880 0.77192 0.85579 -0.16800
C 	C 	0.90460 0.50496 0.86407 -0.21900
H 	H 	0.94946 0.61115 0.82084 0.04900
H 	H 	0.81395 0.76882 0.74283 0.05700
H 	H 	0.86735 0.74329 0.71688 0.06700
H 	H 	0.88218 0.83976 0.72342 0.06600
H 	H 	0.82228 0.77983 0.87673 0.05600
H 	H 	0.81544 0.76996 0.83533 0.05800
H 	H 	0.89955 0.82081 0.85429 0.05900
H 	H 	0.94855 0.50916 0.84895 0.06900
H 	H 	0.85898 0.45346 0.85744 0.09200
H 	H 	0.92178 0.50186 0.88809 0.08400
