data_crystal

_cell_length_a 22.67840
_cell_length_b 22.55619
_cell_length_c 34.53006
_cell_angle_alpha 95.47750
_cell_angle_beta  95.47684
_cell_angle_gamma 125.99668

_symmetry_space_group_name_	'P 1'
_symmetry_space_group_name_H-M	'P 1'

loop_
_symmetry_equiv_pos_as_xyz
  x,y,z

loop_
_atom_site_label
_atom_site_type_symbol
_atom_site_fract_x
_atom_site_fract_y
_atom_site_fract_z
_atom_site_charge
C 	C 	0.03706 0.08562 0.98725 0.02000
C 	C 	0.99314 0.00971 0.98959 -0.06200
C 	C 	0.02479 0.97195 0.99121 0.01600
C 	C 	0.10035 0.00998 0.99017 -0.06400
C 	C 	0.14480 0.08617 0.98840 0.02100
C 	C 	0.11302 0.12395 0.98702 -0.06800
H 	H 	0.93442 0.97999 0.98980 0.04400
H 	H 	0.12463 0.98051 0.99107 0.04400
H 	H 	0.14726 0.18293 0.98586 0.04600
C 	C 	0.85836 0.95307 0.45664 0.02300
C 	C 	0.82223 0.88100 0.46552 -0.07000
C 	C 	0.85799 0.84703 0.46594 0.02300
C 	C 	0.93038 0.88577 0.45844 -0.07000
C 	C 	0.96707 0.95794 0.45039 0.02200
C 	C 	0.93042 0.99069 0.44837 -0.07200
H 	H 	0.76700 0.85186 0.47238 0.04600
H 	H 	0.95830 0.85988 0.45907 0.04900
H 	H 	0.95840 0.04588 0.44111 0.04900
Cu	Cu	0.71058 0.28394 0.01630 0.92800
Cu	Cu	0.72606 0.24719 0.92522 0.86900
Cu	Cu	0.72957 0.37842 0.95378 0.89500
Cu	Cu	0.72550 0.43250 0.03738 0.89300
C 	C 	0.74204 0.35211 0.09655 0.29900
O 	O 	0.60889 0.24442 0.02739 -0.37200
C 	C 	0.66688 0.29504 0.87104 0.29700
O 	O 	0.76762 0.39540 0.00886 -0.63700
O 	O 	0.67755 0.27170 0.95910 -0.64400
O 	O 	0.75418 0.22892 0.01345 -0.37100
O 	O 	0.81141 0.28140 0.96282 -0.44100
O 	O 	0.75165 0.41375 0.08962 -0.38900
O 	O 	0.78677 0.48375 0.95240 -0.38100
C 	C 	0.79238 0.53324 0.97945 0.27900
C 	C 	0.57653 0.27500 0.01765 0.28100
O 	O 	0.61429 0.33969 0.00631 -0.38900
O 	O 	0.74914 0.51178 0.00618 -0.39100
O 	O 	0.75397 0.31435 0.07117 -0.37000
C 	C 	0.80541 0.24631 0.99214 0.28300
O 	O 	0.70756 0.36066 0.89530 -0.39200
O 	O 	0.66191 0.23747 0.88098 -0.42300
H 	H 	0.82247 0.42673 0.01555 0.16500
H 	H 	0.62308 0.24104 0.95028 0.17000
Cu	Cu	0.67723 0.29605 0.45270 0.92700
Cu	Cu	0.68124 0.25419 0.54043 0.86900
Cu	Cu	0.55264 0.24117 0.49956 0.89600
Cu	Cu	0.52178 0.25472 0.41459 0.89400
C 	C 	0.63860 0.27887 0.36928 0.30000
O 	O 	0.70419 0.39773 0.44747 -0.37000
C 	C 	0.60140 0.28464 0.58699 0.29800
O 	O 	0.56115 0.21827 0.44655 -0.63900
O 	O 	0.66313 0.30850 0.50748 -0.64500
O 	O 	0.74461 0.26714 0.46201 -0.37200
O 	O 	0.67322 0.18475 0.50030 -0.44100
O 	O 	0.56938 0.25525 0.36848 -0.38800
O 	O 	0.44612 0.17014 0.48871 -0.38800
C 	C 	0.40104 0.17172 0.46241 0.28900
C 	C 	0.65812 0.41426 0.45164 0.28000
O 	O 	0.58941 0.36224 0.45458 -0.39400
O 	O 	0.42273 0.20342 0.43109 -0.39200
O 	O 	0.67335 0.26927 0.39796 -0.36900
C 	C 	0.72300 0.20798 0.47754 0.28600
O 	O 	0.54583 0.24962 0.55619 -0.39200
O 	O 	0.66600 0.29889 0.58412 -0.42300
H 	H 	0.53938 0.16513 0.43762 0.16700
H 	H 	0.68540 0.36038 0.52013 0.17000
C 	C 	0.58738 0.29709 0.62667 -0.11500
C 	C 	0.64066 0.36448 0.65377 0.12500
C 	C 	0.64183 0.36555 0.69456 -0.09900
C 	C 	0.58923 0.30105 0.70830 -0.00000
C 	C 	0.52851 0.23807 0.68096 0.05600
C 	C 	0.52837 0.23646 0.64019 -0.02600
N 	N 	0.69057 0.42799 0.64078 -0.20300
H 	H 	0.68597 0.41534 0.71563 0.05500
C 	C 	0.60553 0.29536 0.74975 0.00100
N 	N 	0.47164 0.17839 0.69368 -0.19200
H 	H 	0.48500 0.18613 0.61919 0.04100
C 	C 	0.58356 0.32105 0.77955 -0.10000
C 	C 	0.59904 0.31725 0.81926 0.12600
C 	C 	0.64045 0.29056 0.82937 -0.11400
C 	C 	0.66101 0.26350 0.79941 -0.02200
C 	C 	0.64424 0.26580 0.75969 0.05600
H 	H 	0.55317 0.34281 0.77174 0.05400
N 	N 	0.57201 0.33690 0.84716 -0.20300
H 	H 	0.69217 0.24251 0.80716 0.03100
N 	N 	0.66632 0.24050 0.73139 -0.19200
H 	H 	0.54401 0.35923 0.83971 0.08200
H 	H 	0.57534 0.32700 0.87592 0.08300
H 	H 	0.69455 0.21851 0.73909 0.07500
H 	H 	0.65624 0.24264 0.70163 0.08400
H 	H 	0.42832 0.13093 0.67336 0.07900
H 	H 	0.46870 0.17949 0.72371 0.08500
H 	H 	0.68690 0.43016 0.61063 0.08400
H 	H 	0.73169 0.47691 0.66096 0.08000
C 	C 	0.73575 0.33608 0.13683 -0.11000
C 	C 	0.79677 0.38125 0.16873 0.13000
C 	C 	0.78568 0.37102 0.20758 -0.10000
C 	C 	0.71527 0.31573 0.21493 0.00100
C 	C 	0.65509 0.26809 0.18280 0.05900
C 	C 	0.66622 0.27859 0.14400 -0.02600
N 	N 	0.86603 0.43383 0.16226 -0.20400
H 	H 	0.83186 0.40659 0.23223 0.05600
C 	C 	0.70418 0.31155 0.25642 0.00000
N 	N 	0.58653 0.21286 0.18899 -0.19200
H 	H 	0.61999 0.24321 0.11937 0.04000
C 	C 	0.68894 0.35741 0.27565 -0.09600
C 	C 	0.67262 0.35124 0.31389 0.12400
C 	C 	0.66849 0.29593 0.33248 -0.10700
C 	C 	0.68738 0.25258 0.31406 -0.02200
C 	C 	0.70603 0.26040 0.27629 0.05800
H 	H 	0.68961 0.39794 0.26073 0.05500
N 	N 	0.66251 0.39946 0.33288 -0.20400
H 	H 	0.68568 0.21126 0.32869 0.04800
N 	N 	0.72468 0.21816 0.25913 -0.19200
H 	H 	0.66308 0.43842 0.31844 0.08200
H 	H 	0.65719 0.40094 0.36257 0.08600
H 	H 	0.72451 0.17955 0.27373 0.08300
H 	H 	0.74065 0.22395 0.23155 0.08800
H 	H 	0.54238 0.17851 0.16508 0.08100
H 	H 	0.57631 0.20308 0.21740 0.08700
H 	H 	0.87704 0.43967 0.13364 0.09500
H 	H 	0.91036 0.46823 0.18608 0.08300
C 	C 	0.81955 0.77028 0.47354 0.01200
C 	C 	0.85104 0.75648 0.50513 -0.04700
C 	C 	0.82433 0.68348 0.50783 -0.03300
C 	C 	0.76534 0.62336 0.47915 -0.01000
C 	C 	0.73048 0.63662 0.44867 0.03900
C 	C 	0.75773 0.71014 0.44607 -0.07100
C 	C 	0.67036 0.57635 0.42051 -0.07300
C 	C 	0.64617 0.50370 0.42200 0.01300
C 	C 	0.68248 0.49059 0.45123 -0.08500
C 	C 	0.74160 0.55030 0.48002 -0.00700
H 	H 	0.89814 0.80263 0.52675 0.03800
H 	H 	0.85056 0.67390 0.53176 0.03300
H 	H 	0.73307 0.72074 0.42182 0.04600
H 	H 	0.64270 0.58573 0.39727 0.04400
H 	H 	0.59987 0.45762 0.40000 0.01700
H 	H 	0.76890 0.53993 0.50295 0.02900
C 	C 	0.82172 0.99012 0.45698 0.00900
C 	C 	0.74858 0.95217 0.43647 -0.04500
C 	C 	0.71467 0.98770 0.43596 -0.03600
C 	C 	0.75411 0.06224 0.45511 -0.00700
C 	C 	0.82826 0.10128 0.47495 0.03600
C 	C 	0.86106 0.06451 0.47664 -0.06800
C 	C 	0.86867 0.17666 0.49279 -0.07200
C 	C 	0.83519 0.21252 0.49176 0.01000
C 	C 	0.76070 0.17319 0.47349 -0.08700
C 	C 	0.72033 0.09822 0.45489 -0.00800
H 	H 	0.71819 0.89532 0.42065 0.03800
H 	H 	0.65799 0.95741 0.42035 0.03400
H 	H 	0.91712 0.09370 0.49300 0.04500
H 	H 	0.92585 0.20739 0.50769 0.04300
H 	H 	0.86652 0.27035 0.50624 0.01900
H 	H 	0.66275 0.06792 0.44070 0.03300
C 	C 	0.04549 0.00083 0.44643 0.01300
C 	C 	0.06546 0.01706 0.40953 -0.04700
C 	C 	0.13939 0.05415 0.40527 -0.03300
C 	C 	0.19408 0.07543 0.43796 -0.00800
C 	C 	0.17426 0.06009 0.47530 0.03700
C 	C 	0.09999 0.02295 0.47935 -0.07100
C 	C 	0.22885 0.08162 0.50802 -0.07000
C 	C 	0.30262 0.11787 0.50375 0.01000
C 	C 	0.32275 0.13280 0.46664 -0.07900
C 	C 	0.26820 0.11149 0.43376 -0.01200
H 	H 	0.02351 0.00007 0.38404 0.04000
H 	H 	0.15400 0.06589 0.37653 0.03400
H 	H 	0.08439 0.01061 0.50790 0.04600
H 	H 	0.21424 0.07038 0.53681 0.04400
H 	H 	0.34425 0.13488 0.52942 0.03800
H 	H 	0.28325 0.12244 0.40500 0.03800
C 	C 	0.97910 0.89283 0.99479 0.00900
C 	C 	0.95237 0.87208 0.02985 -0.04100
C 	C 	0.91070 0.79735 0.03387 -0.03700
C 	C 	0.89515 0.74251 0.00276 -0.00300
C 	C 	0.92154 0.76309 0.96727 0.03100
C 	C 	0.96356 0.83833 0.96348 -0.06900
C 	C 	0.90564 0.70820 0.93610 -0.06900
C 	C 	0.86370 0.63336 0.94004 0.00900
C 	C 	0.83725 0.61246 0.97529 -0.08200
C 	C 	0.85359 0.66744 0.00669 -0.01100
H 	H 	0.96441 0.91405 0.05413 0.03800
H 	H 	0.89063 0.78217 0.06119 0.03400
H 	H 	0.98419 0.85453 0.93637 0.04600
H 	H 	0.92558 0.72338 0.90875 0.04300
H 	H 	0.85139 0.59163 0.91556 0.03800
H 	H 	0.83424 0.65185 0.03415 0.03400
C 	C 	0.00295 0.12434 0.98382 0.00900
C 	C 	0.00062 0.15120 0.94913 -0.04900
C 	C 	0.96394 0.18338 0.94455 -0.03100
C 	C 	0.92892 0.18881 0.97459 -0.01700
C 	C 	0.93252 0.16338 0.00997 0.04300
C 	C 	0.96981 0.13144 0.01446 -0.06800
C 	C 	0.89757 0.16893 0.04001 -0.07500
C 	C 	0.85766 0.19766 0.03459 0.01900
C 	C 	0.85213 0.22114 0.99903 -0.09400
C 	C 	0.88901 0.21782 0.96936 -0.01000
H 	H 	0.02621 0.14594 0.92542 0.03800
H 	H 	0.96192 0.20315 0.91741 0.03000
H 	H 	0.97217 0.11116 0.04140 0.04700
H 	H 	0.90063 0.15030 0.06742 0.04700
H 	H 	0.83065 0.20121 0.05798 0.03800
H 	H 	0.88521 0.23611 0.94191 0.02500
C 	C 	0.49670 0.23467 0.01727 -0.08100
C 	C 	0.46510 0.19495 0.04748 0.01100
C 	C 	0.38989 0.15885 0.04816 -0.07200
C 	C 	0.34525 0.16150 0.01840 0.04000
C 	C 	0.37653 0.20048 0.98758 -0.01200
C 	C 	0.45228 0.23724 0.98728 -0.01500
C 	C 	0.33155 0.20198 0.95743 -0.03400
C 	C 	0.25606 0.16488 0.95779 -0.04700
C 	C 	0.22487 0.12655 0.98851 0.00900
C 	C 	0.26972 0.12540 0.01894 -0.06700
H 	H 	0.49911 0.19298 0.07080 0.02900
H 	H 	0.36642 0.12891 0.07185 0.04400
H 	H 	0.47652 0.26729 0.96370 0.03300
H 	H 	0.35489 0.23149 0.93359 0.03300
H 	H 	0.22164 0.16547 0.93405 0.03800
H 	H 	0.24573 0.09625 0.04282 0.04700
