data_crystal

_cell_length_a 17.37692
_cell_length_b 15.93609
_cell_length_c 34.38573
_cell_angle_alpha 90.90653
_cell_angle_beta  90.99375
_cell_angle_gamma 112.95680

_symmetry_space_group_name_	'P 1'
_symmetry_space_group_name_H-M	'P 1'

loop_
_symmetry_equiv_pos_as_xyz
  x,y,z

loop_
_atom_site_label
_atom_site_type_symbol
_atom_site_fract_x
_atom_site_fract_y
_atom_site_fract_z
_atom_site_charge
Ni	Ni	0.78502 0.39640 0.89876 1.11500
O 	O 	0.67493 0.31045 0.87262 -0.69600
Ni	Ni	0.59336 0.31871 0.91085 1.10500
O 	O 	0.85557 0.33779 0.87176 -0.29400
O 	O 	0.76735 0.19657 0.89043 -0.31000
O 	O 	0.80936 0.48586 0.85340 -0.28800
Ni	Ni	0.65170 0.18020 0.86660 1.11400
O 	O 	0.83739 0.60083 0.93550 -0.35200
O 	O 	0.59050 0.11578 0.91579 -0.30800
O 	O 	0.48781 0.20861 0.89349 -0.34300
O 	O 	0.70105 0.42043 0.93109 -0.69600
O 	O 	0.88794 0.48836 0.92664 -0.29700
O 	O 	0.52370 0.35940 0.94788 -0.33000
O 	O 	0.58032 0.50362 0.92426 -0.36200
Ni	Ni	0.70991 0.54561 0.92772 1.08900
H 	H 	0.66513 0.33481 0.84755 0.18500
H 	H 	0.71159 0.40983 0.95860 0.17900
C 	C 	0.59342 0.15571 0.94991 0.33300
O 	O 	0.71730 0.54875 0.86895 -0.37500
C 	C 	0.83692 0.24997 0.87421 0.29200
C 	C 	0.47636 0.16546 0.85933 0.29400
C 	C 	0.78698 0.55549 0.85260 0.28800
C 	C 	0.53152 0.44468 0.94877 0.30400
C 	C 	0.88026 0.55345 0.94837 0.29200
O 	O 	0.61810 0.24404 0.95314 -0.36900
O 	O 	0.53945 0.15835 0.84043 -0.30700
Ni	Ni	0.62703 0.20573 0.65203 1.11000
O 	O 	0.69364 0.32718 0.68116 -0.69000
Ni	Ni	0.68227 0.41781 0.64397 1.10400
O 	O 	0.68911 0.13382 0.67883 -0.26300
O 	O 	0.81187 0.24564 0.66244 -0.36400
O 	O 	0.53490 0.16540 0.69406 -0.27000
Ni	Ni	0.81381 0.36195 0.69041 1.11200
O 	O 	0.44336 0.13451 0.61365 -0.34700
O 	O 	0.87533 0.43801 0.64413 -0.30200
O 	O 	0.77107 0.53992 0.66574 -0.33400
O 	O 	0.60137 0.29588 0.61982 -0.69300
O 	O 	0.55542 0.09279 0.61997 -0.30800
O 	O 	0.64173 0.49000 0.60550 -0.32800
O 	O 	0.50629 0.41080 0.62191 -0.36400
Ni	Ni	0.48260 0.27247 0.61909 1.08700
H 	H 	0.66651 0.33126 0.70580 0.18800
H 	H 	0.61708 0.28957 0.59273 0.16900
C 	C 	0.84336 0.43598 0.60911 0.33600
O 	O 	0.47284 0.26237 0.67743 -0.37000
C 	C 	0.77151 0.16632 0.67787 0.27700
C 	C 	0.82344 0.55008 0.69580 0.31400
C 	C 	0.46873 0.18718 0.69396 0.28600
C 	C 	0.56135 0.46819 0.59911 0.30400
C 	C 	0.49050 0.09382 0.59966 0.31200
O 	O 	0.76264 0.40818 0.60302 -0.37300
O 	O 	0.82125 0.47970 0.71617 -0.31300
C 	C 	0.05645 0.00396 0.74186 0.00600
H 	H 	0.05878 0.99976 0.70983 0.11300
C 	C 	0.05307 0.00396 0.81916 -0.06200
H 	H 	0.05182 0.99867 0.85089 0.13500
C 	C 	0.01820 0.06943 0.75936 0.05700
C 	C 	0.00135 0.91175 0.75941 -0.06500
C 	C 	0.14387 0.03324 0.76308 0.01300
C 	C 	0.02262 0.07432 0.79988 0.06900
C 	C 	0.99919 0.91192 0.79913 0.09000
C 	C 	0.14047 0.02875 0.80281 0.04300
Ni	Ni	0.20258 0.70588 0.39976 1.10800
O 	O 	0.29143 0.73502 0.35707 -0.69200
Ni	Ni	0.38162 0.71043 0.38634 1.11000
O 	O 	0.13584 0.78109 0.37946 -0.27700
O 	O 	0.22099 0.85383 0.32995 -0.30800
O 	O 	0.12161 0.59284 0.36843 -0.27500
Ni	Ni	0.33945 0.86525 0.34635 1.11000
O 	O 	0.12118 0.52342 0.44460 -0.36600
O 	O 	0.33152 0.89189 0.40408 -0.38400
O 	O 	0.47656 0.76415 0.34793 -0.33700
O 	O 	0.28677 0.66544 0.42501 -0.69800
O 	O 	0.12018 0.66732 0.44424 -0.32100
O 	O 	0.45413 0.66239 0.41971 -0.32400
O 	O 	0.35016 0.52062 0.41874 -0.34800
Ni	Ni	0.23830 0.53367 0.43027 1.08500
H 	H 	0.27205 0.69630 0.33320 0.23100
H 	H 	0.30395 0.69484 0.45107 0.16900
C 	C 	0.37954 0.87316 0.42973 0.28700
O 	O 	0.20564 0.51481 0.37308 -0.35400
C 	C 	0.16243 0.84834 0.35447 0.29600
C 	C 	0.50516 0.85165 0.34018 0.29700
C 	C 	0.13433 0.51754 0.36210 0.31600
C 	C 	0.42147 0.57963 0.43337 0.30800
C 	C 	0.10457 0.58912 0.46180 0.29500
O 	O 	0.42686 0.82969 0.41895 -0.34500
O 	O 	0.46533 0.90123 0.35321 -0.31100
Ni	Ni	0.36714 0.74624 0.14283 1.10800
O 	O 	0.24283 0.67974 0.12804 -0.69300
Ni	Ni	0.18983 0.73001 0.16872 1.10800
O 	O 	0.40140 0.68330 0.09825 -0.33200
O 	O 	0.31382 0.54221 0.11725 -0.35300
O 	O 	0.36174 0.83960 0.10417 -0.37700
Ni	Ni	0.19845 0.54728 0.12847 1.08700
O 	O 	0.47351 0.90106 0.20901 -0.30900
O 	O 	0.22232 0.54747 0.18653 -0.34900
O 	O 	0.07050 0.67077 0.14738 -0.33100
O 	O 	0.31248 0.78273 0.18692 -0.69600
O 	O 	0.49243 0.82252 0.15528 -0.32700
O 	O 	0.15722 0.81623 0.20345 -0.30400
O 	O 	0.26078 0.93703 0.17737 -0.33200
Ni	Ni	0.36742 0.91578 0.19264 1.12500
H 	H 	0.23030 0.69840 0.10215 0.17200
H 	H 	0.32047 0.75345 0.21099 0.19600
C 	C 	0.16999 0.55744 0.21119 0.30400
O 	O 	0.42160 0.96987 0.14104 -0.28800
C 	C 	0.36421 0.59517 0.09158 0.30100
C 	C 	0.04910 0.59471 0.12657 0.32900
C 	C 	0.40963 0.92591 0.10738 0.33100
C 	C 	0.19414 0.90467 0.19871 0.29100
C 	C 	0.52280 0.88395 0.18412 0.30400
O 	O 	0.15675 0.63370 0.21216 -0.29700
O 	O 	0.07737 0.53186 0.13646 -0.37600
C 	C 	0.93328 0.11988 0.23765 -0.01600
H 	H 	0.93415 0.13515 0.20642 0.14000
C 	C 	0.92670 0.08723 0.31333 -0.03200
H 	H 	0.92477 0.07234 0.34452 0.16100
C 	C 	0.00016 0.08719 0.25262 -0.00900
C 	C 	0.94754 0.20428 0.26390 0.03800
C 	C 	0.85074 0.04452 0.25091 0.02300
C 	C 	0.99753 0.07028 0.29193 0.07000
C 	C 	0.93980 0.18602 0.30310 0.02400
C 	C 	0.84637 0.02934 0.29016 0.03900
C 	C 	0.02620 0.44416 0.22185 0.06100
C 	C 	0.11194 0.47586 0.23107 0.02200
C 	C 	0.14259 0.42069 0.25304 -0.07800
C 	C 	0.08936 0.32997 0.26014 0.02000
C 	C 	0.00358 0.29712 0.25045 0.05300
C 	C 	0.97143 0.35484 0.23075 -0.08600
C 	C 	0.88280 0.31860 0.21412 0.78400
H 	H 	0.00283 0.48754 0.20575 0.12000
H 	H 	0.11450 0.28497 0.27361 0.11800
C 	C 	0.23249 0.45696 0.26804 0.77900
F 	F 	0.85800 0.38902 0.20544 -0.36400
F 	F 	0.82652 0.26370 0.24010 -0.42900
F 	F 	0.87962 0.26971 0.18016 -0.40600
F 	F 	0.25895 0.54774 0.27947 -0.45000
F 	F 	0.28328 0.44835 0.23906 -0.40700
F 	F 	0.24086 0.40896 0.29995 -0.40000
C 	C 	0.64977 0.86627 0.20908 0.09200
C 	C 	0.61331 0.92207 0.19269 0.00600
C 	C 	0.66254 0.01550 0.18740 -0.03500
C 	C 	0.74387 0.05339 0.20374 -0.00300
C 	C 	0.77763 0.99913 0.22350 0.14600
C 	C 	0.73388 0.90282 0.22156 -0.13700
C 	C 	0.77737 0.83812 0.22728 0.81900
H 	H 	0.61341 0.79365 0.21107 0.08800
H 	H 	0.77977 0.12523 0.20219 0.16700
C 	C 	0.62912 0.07434 0.16400 0.77700
F 	F 	0.74516 0.78500 0.25910 -0.38600
F 	F 	0.86242 0.88292 0.23242 -0.40900
F 	F 	0.76302 0.78141 0.19472 -0.38100
F 	F 	0.56489 0.08571 0.18355 -0.38800
F 	F 	0.59993 0.03299 0.12809 -0.42300
F 	F 	0.69035 0.15973 0.15778 -0.36400
C 	C 	0.14510 0.10020 0.23964 -0.00000
C 	C 	0.06185 0.07269 0.22640 0.10800
C 	C 	0.03405 0.00821 0.19528 -0.12900
C 	C 	0.07156 0.94528 0.19129 0.08700
C 	C 	0.15010 0.96377 0.20871 -0.00000
C 	C 	0.18989 0.04510 0.23149 -0.06200
C 	C 	0.27907 0.07278 0.24695 0.77200
H 	H 	0.17143 0.15871 0.25927 0.13300
H 	H 	0.04390 0.88690 0.17157 0.09900
C 	C 	0.98522 0.02300 0.16095 0.80100
F 	F 	0.30230 0.14707 0.27237 -0.36700
F 	F 	0.33355 0.09624 0.21639 -0.41500
F 	F 	0.28707 0.00136 0.26657 -0.45900
F 	F 	0.90100 0.98877 0.16838 -0.40000
F 	F 	0.99622 0.97938 0.12762 -0.38700
F 	F 	0.01268 0.11496 0.15331 -0.42900
C 	C 	0.70703 0.03254 0.30355 -0.00600
C 	C 	0.76369 0.99075 0.30956 0.11100
C 	C 	0.73718 0.90688 0.32917 -0.10600
C 	C 	0.65183 0.86126 0.33744 0.08400
C 	C 	0.59315 0.89861 0.32748 0.00200
C 	C 	0.62102 0.98466 0.30913 -0.05600
C 	C 	0.56091 0.02834 0.29688 0.77000
H 	H 	0.72946 0.10050 0.29188 0.12100
H 	H 	0.63132 0.79799 0.35297 0.11000
C 	C 	0.80010 0.87151 0.34566 0.79900
F 	F 	0.59442 0.09046 0.26786 -0.38300
F 	F 	0.54592 0.07406 0.32847 -0.40100
F 	F 	0.48607 0.96402 0.28245 -0.46600
F 	F 	0.84482 0.92774 0.37621 -0.39600
F 	F 	0.85430 0.86863 0.31748 -0.39200
F 	F 	0.76138 0.78409 0.35939 -0.37800
C 	C 	0.05983 0.35168 0.37499 0.10200
C 	C 	0.06122 0.42964 0.35551 -0.01800
C 	C 	0.99103 0.42159 0.33122 -0.04500
C 	C 	0.93025 0.33370 0.32252 -0.00300
C 	C 	0.94547 0.25737 0.33348 0.11900
C 	C 	0.99395 0.26697 0.36755 -0.10500
C 	C 	0.95932 0.20352 0.40100 0.79900
H 	H 	0.10525 0.35841 0.39809 0.06800
H 	H 	0.87552 0.32467 0.30487 0.14900
C 	C 	0.97613 0.50435 0.31821 0.78600
F 	F 	0.87509 0.15050 0.39488 -0.41600
F 	F 	0.96785 0.25335 0.43532 -0.40800
F 	F 	0.00216 0.14721 0.40530 -0.39500
F 	F 	0.04561 0.56443 0.29997 -0.40400
F 	F 	0.95870 0.54607 0.35046 -0.35900
F 	F 	0.90896 0.48103 0.29217 -0.36800
C 	C 	0.02055 0.92546 0.29492 -0.00600
C 	C 	0.04081 0.01419 0.30964 0.10300
C 	C 	0.10060 0.04730 0.34100 -0.11200
C 	C 	0.13007 0.98640 0.35925 0.09000
C 	C 	0.10803 0.89720 0.34462 0.01200
C 	C 	0.04911 0.86508 0.31348 -0.03200
C 	C 	0.01634 0.76612 0.30009 0.75300
H 	H 	0.98220 0.90331 0.26891 0.17500
H 	H 	0.17714 0.01158 0.38243 0.09100
C 	C 	0.14796 0.14840 0.34982 0.79700
F 	F 	0.94961 0.74453 0.27387 -0.33700
F 	F 	0.98903 0.71162 0.33189 -0.33100
F 	F 	0.07907 0.74772 0.28240 -0.39600
F 	F 	0.11034 0.20231 0.33437 -0.45300
F 	F 	0.22715 0.17565 0.33504 -0.38700
F 	F 	0.15609 0.16389 0.38965 -0.39500
C 	C 	0.46356 0.03997 0.56487 -0.04600
C 	C 	0.44010 0.99890 0.53457 0.08000
C 	C 	0.41422 0.95443 0.49835 0.07200
C 	C 	0.39555 0.91751 0.46696 -0.05400
C 	C 	0.04795 0.56495 0.49357 -0.02100
C 	C 	0.00048 0.53905 0.52012 0.06300
C 	C 	0.94524 0.50443 0.55107 0.12300
C 	C 	0.89850 0.47321 0.57748 -0.02600
C 	C 	0.45561 0.55874 0.46844 -0.06000
C 	C 	0.48165 0.54034 0.49847 0.07300
C 	C 	0.51005 0.51737 0.53387 0.07300
C 	C 	0.53348 0.49608 0.56393 -0.06100
C 	C 	0.87386 0.07270 0.75418 0.02100
C 	C 	0.95134 0.08914 0.73665 0.13700
C 	C 	0.96086 0.11679 0.69706 -0.08800
C 	C 	0.89146 0.11997 0.67636 0.09300
C 	C 	0.82033 0.11783 0.69572 0.01700
C 	C 	0.81062 0.09222 0.73511 -0.05500
C 	C 	0.73306 0.08508 0.75699 0.77400
H 	H 	0.86352 0.04650 0.78310 0.15100
H 	H 	0.89663 0.13451 0.64557 0.10300
C 	C 	0.04287 0.14427 0.67585 0.78600
F 	F 	0.72623 0.16873 0.75815 -0.48000
F 	F 	0.73569 0.05870 0.79501 -0.41700
F 	F 	0.66276 0.02094 0.73868 -0.35900
F 	F 	0.03937 0.07380 0.65096 -0.42100
F 	F 	0.11180 0.16681 0.70036 -0.38700
F 	F 	0.05437 0.21999 0.65381 -0.39300
C 	C 	0.25423 0.01944 0.72030 0.00800
C 	C 	0.22645 0.07642 0.74254 0.11700
C 	C 	0.28526 0.16661 0.75272 -0.13900
C 	C 	0.37012 0.19216 0.74396 0.07300
C 	C 	0.39598 0.13855 0.71919 0.01800
C 	C 	0.33956 0.04723 0.71071 -0.06300
C 	C 	0.36933 0.97725 0.69358 0.78000
H 	H 	0.21051 0.95099 0.71259 0.10600
H 	H 	0.41441 0.26009 0.75213 0.08400
C 	C 	0.25787 0.24173 0.76554 0.81600
F 	F 	0.32060 0.89095 0.70613 -0.37200
F 	F 	0.45097 0.99488 0.70487 -0.36300
F 	F 	0.36277 0.97674 0.65354 -0.41600
F 	F 	0.18469 0.20905 0.78508 -0.39200
F 	F 	0.24830 0.28771 0.73329 -0.35300
F 	F 	0.31765 0.30357 0.79024 -0.41200
C 	C 	0.00226 0.77624 0.72222 -0.06900
C 	C 	0.95707 0.82715 0.73505 0.17400
C 	C 	0.86854 0.78784 0.73176 -0.16900
C 	C 	0.82774 0.69387 0.72487 0.10400
C 	C 	0.87174 0.64294 0.71146 -0.02000
C 	C 	0.96029 0.68461 0.70928 0.01300
C 	C 	0.00934 0.63420 0.69107 0.73000
H 	H 	0.06993 0.80698 0.72367 0.12400
H 	H 	0.76040 0.66128 0.72714 0.08000
C 	C 	0.81861 0.84661 0.73019 0.81000
F 	F 	0.09474 0.68343 0.69494 -0.37300
F 	F 	0.98878 0.61949 0.65184 -0.40400
F 	F 	0.99111 0.55150 0.70870 -0.37400
F 	F 	0.85383 0.91483 0.70395 -0.43300
F 	F 	0.81759 0.88277 0.76664 -0.42000
F 	F 	0.73660 0.79752 0.71796 -0.40100
C 	C 	0.00924 0.58827 0.08929 -0.10500
C 	C 	0.97856 0.58411 0.05734 0.12500
C 	C 	0.94457 0.57821 0.01948 0.05400
C 	C 	0.91572 0.56983 0.98694 -0.03300
C 	C 	0.55506 0.10147 0.98275 -0.01700
C 	C 	0.52174 0.05967 0.01099 0.09200
C 	C 	0.48216 0.01319 0.04452 0.09500
C 	C 	0.44862 0.97396 0.07324 -0.00300
C 	C 	0.48987 0.47434 0.97781 -0.04000
C 	C 	0.45653 0.49824 0.00340 0.07700
C 	C 	0.42052 0.52736 0.03413 0.08500
C 	C 	0.39285 0.55563 0.06061 -0.04900
C 	C 	0.98149 0.12595 0.86323 0.08000
C 	C 	0.00404 0.14457 0.82416 0.11400
C 	C 	0.99075 0.21878 0.80726 -0.10900
C 	C 	0.92354 0.23761 0.82059 0.07700
C 	C 	0.89349 0.21177 0.85787 0.02500
C 	C 	0.92769 0.16111 0.88074 -0.04700
C 	C 	0.90468 0.14117 0.92305 0.78500
H 	H 	0.00516 0.08460 0.87997 0.14800
H 	H 	0.90055 0.28044 0.80378 0.10000
C 	C 	0.06136 0.29499 0.78821 0.79200
F 	F 	0.95812 0.10879 0.94202 -0.36400
F 	F 	0.82422 0.07585 0.92479 -0.38000
F 	F 	0.90962 0.21952 0.94280 -0.40800
F 	F 	0.03973 0.36824 0.78062 -0.38100
F 	F 	0.08101 0.26620 0.75332 -0.36700
F 	F 	0.13097 0.32618 0.81286 -0.33200
C 	C 	0.33964 0.17394 0.84954 0.08300
C 	C 	0.39058 0.12605 0.84245 -0.00400
C 	C 	0.35298 0.03404 0.82830 -0.06700
C 	C 	0.26579 0.99565 0.82005 0.00900
C 	C 	0.21638 0.04557 0.82806 0.08900
C 	C 	0.25315 0.12765 0.85009 -0.10600
C 	C 	0.20468 0.15586 0.88009 0.79600
H 	H 	0.36770 0.24424 0.85998 0.10200
H 	H 	0.23752 0.93038 0.80478 0.10600
C 	C 	0.40507 0.97853 0.82025 0.77800
F 	F 	0.25785 0.21316 0.90844 -0.40200
F 	F 	0.15000 0.08068 0.89876 -0.42300
F 	F 	0.16204 0.20232 0.86251 -0.39000
F 	F 	0.44955 0.97494 0.85350 -0.40600
F 	F 	0.45991 0.01782 0.79082 -0.38300
F 	F 	0.35568 0.88983 0.80867 -0.37500
C 	C 	0.81866 0.71920 0.84027 0.06100
C 	C 	0.84369 0.64560 0.83671 0.00300
C 	C 	0.92624 0.66307 0.82349 -0.08300
C 	C 	0.98184 0.75429 0.81763 0.04300
C 	C 	0.95504 0.82641 0.82132 0.06800
C 	C 	0.87699 0.80944 0.83824 -0.09900
C 	C 	0.86265 0.88343 0.86133 0.79600
H 	H 	0.75498 0.70648 0.84798 0.09900
H 	H 	0.04443 0.76876 0.80766 0.08400
C 	C 	0.95458 0.58643 0.81353 0.79400
F 	F 	0.78615 0.85066 0.87929 -0.39600
F 	F 	0.86392 0.95194 0.83729 -0.41800
F 	F 	0.92421 0.91804 0.89004 -0.41100
F 	F 	0.89399 0.51911 0.79126 -0.42200
F 	F 	0.97137 0.55016 0.84734 -0.39800
F 	F 	0.02676 0.61734 0.79216 -0.39300
