data_crystal

_cell_length_a 21.48873
_cell_length_b 21.18663
_cell_length_c 49.21820
_cell_angle_alpha 89.93626
_cell_angle_beta  89.93449
_cell_angle_gamma 119.87015

_symmetry_space_group_name_	'P 1'
_symmetry_space_group_name_H-M	'P 1'

loop_
_symmetry_equiv_pos_as_xyz
  x,y,z

loop_
_atom_site_label
_atom_site_type_symbol
_atom_site_fract_x
_atom_site_fract_y
_atom_site_fract_z
_atom_site_charge
C 	C 	0.80657 0.40909 0.92753 0.32700
C 	C 	0.59281 0.36349 0.83997 0.27300
C 	C 	0.74287 0.53182 0.90229 0.27800
C 	C 	0.66158 0.24064 0.86225 0.25300
C 	C 	0.52233 0.37483 0.92279 0.35000
C 	C 	0.57400 0.23370 0.94483 0.32900
Ni	Ni	0.72460 0.40015 0.87378 1.11300
Ni	Ni	0.56018 0.28119 0.89020 1.12200
Ni	Ni	0.66332 0.39480 0.93422 1.12200
O 	O 	0.80950 0.43392 0.90219 -0.37400
O 	O 	0.74605 0.37801 0.94191 -0.39100
O 	O 	0.50111 0.30769 0.91494 -0.39000
O 	O 	0.65951 0.37680 0.83911 -0.34700
O 	O 	0.56041 0.35304 0.86331 -0.37400
O 	O 	0.59079 0.30036 0.95293 -0.39400
O 	O 	0.72093 0.49524 0.87954 -0.36000
O 	O 	0.74073 0.49830 0.92500 -0.37000
O 	O 	0.55604 0.21279 0.91920 -0.39200
O 	O 	0.72228 0.30355 0.86480 -0.35000
O 	O 	0.59792 0.23749 0.86152 -0.35700
O 	O 	0.59081 0.42308 0.92371 -0.39800
O 	O 	0.65615 0.34762 0.90076 -0.71700
H 	H 	0.67158 0.31291 0.90638 0.16300
C 	C 	0.82553 0.41910 0.57886 0.32800
C 	C 	0.53464 0.17690 0.57418 0.36900
C 	C 	0.65782 0.41185 0.54921 0.35000
C 	C 	0.69750 0.18517 0.60488 0.25400
C 	C 	0.55286 0.34597 0.63160 0.27900
C 	C 	0.71915 0.37746 0.66131 0.26100
Ni	Ni	0.68357 0.28990 0.56547 1.11300
Ni	Ni	0.61152 0.24942 0.62577 1.12100
Ni	Ni	0.69856 0.41561 0.60641 1.12200
O 	O 	0.79389 0.35179 0.56908 -0.38300
O 	O 	0.78862 0.45360 0.58258 -0.38500
O 	O 	0.54094 0.28398 0.62138 -0.37200
O 	O 	0.57359 0.24045 0.56279 -0.39400
O 	O 	0.54899 0.16665 0.59933 -0.37900
O 	O 	0.75228 0.41597 0.63945 -0.38100
O 	O 	0.69208 0.37711 0.54287 -0.38400
O 	O 	0.63812 0.41259 0.57440 -0.39000
O 	O 	0.65859 0.31248 0.65980 -0.36000
O 	O 	0.67810 0.19402 0.58013 -0.36100
O 	O 	0.67434 0.20304 0.62708 -0.35700
O 	O 	0.61773 0.40360 0.63122 -0.36700
O 	O 	0.67945 0.31880 0.60112 -0.71400
H 	H 	0.72320 0.32193 0.60877 0.16000
C 	C 	0.89967 0.99932 0.70025 0.26400
C 	C 	0.95873 0.91133 0.80443 0.27200
C 	C 	0.90855 0.07252 0.77195 0.27500
C 	C 	0.93109 0.81840 0.73374 0.25900
C 	C 	0.14790 0.10422 0.77326 0.27100
C 	C 	0.13608 0.06390 0.71087 0.25600
Ni	Ni	0.89129 0.92955 0.75413 1.11300
Ni	Ni	0.05437 0.95457 0.75571 1.12100
Ni	Ni	0.02666 0.08547 0.73739 1.11900
O 	O 	0.86778 0.93630 0.71364 -0.36200
O 	O 	0.94004 0.06203 0.71317 -0.35200
O 	O 	0.10838 0.03674 0.78163 -0.38100
O 	O 	0.91860 0.93690 0.79479 -0.36600
O 	O 	0.99535 0.89286 0.78790 -0.35000
O 	O 	0.08212 0.07599 0.70646 -0.37700
O 	O 	0.86567 0.01125 0.75969 -0.35700
O 	O 	0.97838 0.10099 0.77024 -0.36500
O 	O 	0.12775 0.00660 0.72527 -0.36100
O 	O 	0.89037 0.83072 0.75066 -0.36300
O 	O 	0.00184 0.86234 0.73291 -0.34900
O 	O 	0.11960 0.13631 0.75890 -0.35700
O 	O 	0.98871 0.98414 0.74380 -0.71100
H 	H 	0.98561 0.96706 0.72498 0.15600
C 	C 	0.24381 0.78183 0.41813 0.25600
C 	C 	0.45118 0.69036 0.45507 0.35000
C 	C 	0.44117 0.87503 0.41211 0.35000
C 	C 	0.25008 0.60022 0.46475 0.35000
C 	C 	0.42554 0.68752 0.36566 0.27700
C 	C 	0.22572 0.58059 0.37347 0.26100
Ni	Ni	0.35370 0.75351 0.44796 1.11500
Ni	Ni	0.33754 0.61487 0.41460 1.12200
Ni	Ni	0.33117 0.74265 0.38255 1.12100
O 	O 	0.29816 0.80729 0.43570 -0.36400
O 	O 	0.24579 0.75157 0.39469 -0.35600
O 	O 	0.38135 0.62495 0.37734 -0.36600
O 	O 	0.41262 0.71349 0.46777 -0.38100
O 	O 	0.43856 0.67084 0.42948 -0.39000
O 	O 	0.26827 0.64648 0.36259 -0.36900
O 	O 	0.44543 0.82886 0.42839 -0.39000
O 	O 	0.39152 0.85051 0.39310 -0.38100
O 	O 	0.24085 0.56029 0.39696 -0.36500
O 	O 	0.26602 0.66922 0.46706 -0.38500
O 	O 	0.29550 0.58303 0.45294 -0.38900
O 	O 	0.42248 0.74656 0.37116 -0.37600
O 	O 	0.32339 0.69621 0.41652 -0.71600
H 	H 	0.27094 0.67115 0.41895 0.16200
C 	C 	0.33664 0.76048 0.13639 0.25300
C 	C 	0.27567 0.47156 0.10119 0.27800
C 	C 	0.41943 0.64866 0.15894 0.27600
C 	C 	0.19138 0.57793 0.07495 0.32600
C 	C 	0.48501 0.63724 0.07489 0.35200
C 	C 	0.41620 0.76347 0.05279 0.32700
Ni	Ni	0.28236 0.60127 0.12741 1.11300
Ni	Ni	0.33832 0.60319 0.06629 1.12200
Ni	Ni	0.44133 0.72606 0.10770 1.12200
O 	O 	0.27812 0.69520 0.13499 -0.35800
O 	O 	0.40215 0.76802 0.13646 -0.34800
O 	O 	0.41811 0.58490 0.07603 -0.40000
O 	O 	0.29506 0.51092 0.12332 -0.35800
O 	O 	0.26904 0.49914 0.07822 -0.37200
O 	O 	0.43591 0.78785 0.07801 -0.39200
O 	O 	0.35252 0.63424 0.16074 -0.34600
O 	O 	0.45075 0.66078 0.13524 -0.37200
O 	O 	0.40275 0.69718 0.04551 -0.39300
O 	O 	0.19359 0.55689 0.10048 -0.37500
O 	O 	0.24971 0.61041 0.05939 -0.39300
O 	O 	0.50247 0.70370 0.08240 -0.39000
O 	O 	0.34588 0.65334 0.09901 -0.71600
H 	H 	0.32626 0.68437 0.09313 0.16000
C 	C 	0.09721 0.91030 0.24288 0.26000
C 	C 	0.06224 0.14968 0.28933 0.28100
C 	C 	0.05242 0.94637 0.31761 0.27900
C 	C 	0.08439 0.10434 0.21715 0.25500
C 	C 	0.84814 0.90823 0.28903 0.26900
C 	C 	0.86171 0.89335 0.22733 0.25400
Ni	Ni	0.10839 0.04478 0.26922 1.11000
Ni	Ni	0.95485 0.03180 0.25510 1.11400
Ni	Ni	0.96191 0.88554 0.26874 1.11800
O 	O 	0.13105 0.96121 0.26146 -0.35800
O 	O 	0.02650 0.86818 0.24346 -0.34800
O 	O 	0.86640 0.97198 0.27818 -0.35900
O 	O 	0.11382 0.14381 0.27757 -0.35300
O 	O 	0.99584 0.09598 0.28838 -0.37500
O 	O 	0.88711 0.85351 0.23866 -0.35600
O 	O 	0.08819 0.01493 0.30993 -0.35700
O 	O 	0.02879 0.89404 0.29942 -0.36800
O 	O 	0.90267 0.96480 0.22391 -0.36900
O 	O 	0.12545 0.08228 0.22943 -0.36200
O 	O 	0.03319 0.10981 0.23059 -0.34900
O 	O 	0.89705 0.89188 0.29628 -0.38700
O 	O 	0.01105 0.98579 0.25909 -0.70700
H 	H 	0.01639 0.97765 0.23973 0.15600
C 	C 	0.11983 0.21752 0.16054 0.12000
C 	C 	0.10665 0.24785 0.13752 -0.08800
C 	C 	0.16427 0.28855 0.11964 0.01100
C 	C 	0.23247 0.29999 0.12497 0.11800
C 	C 	0.24386 0.26573 0.14731 -0.08500
C 	C 	0.18666 0.22730 0.16524 0.01200
O 	O 	0.06609 0.16335 0.17629 -0.18700
C 	C 	0.10828 0.14146 0.19084 0.05100
C 	C 	0.17999 0.17753 0.18341 -0.05600
O 	O 	0.28715 0.36511 0.11462 -0.18700
C 	C 	0.24605 0.39299 0.10348 0.04200
C 	C 	0.17296 0.34715 0.10588 -0.05500
H 	H 	0.05416 0.24168 0.13398 0.06800
H 	H 	0.29673 0.27378 0.15165 0.06800
H 	H 	0.22363 0.17967 0.19515 0.06100
H 	H 	0.13406 0.36558 0.10581 0.05500
C 	C 	0.69353 0.76784 0.19956 0.11800
C 	C 	0.63484 0.69710 0.19791 -0.08600
C 	C 	0.56548 0.68738 0.20099 0.01300
C 	C 	0.55494 0.74587 0.20533 0.11600
C 	C 	0.61437 0.81623 0.20832 -0.08500
C 	C 	0.68296 0.82588 0.20359 0.01400
O 	O 	0.76269 0.78234 0.20531 -0.18400
C 	C 	0.79256 0.85523 0.21315 0.05400
C 	C 	0.74516 0.88146 0.21254 -0.05700
O 	O 	0.48959 0.73494 0.19560 -0.18400
C 	C 	0.46382 0.66673 0.18346 0.04400
C 	C 	0.50782 0.63725 0.18736 -0.05600
H 	H 	0.64274 0.65124 0.19407 0.07000
H 	H 	0.60691 0.86245 0.21194 0.07000
H 	H 	0.75004 0.92628 0.22473 0.06200
H 	H 	0.50867 0.59690 0.17406 0.06100
C 	C 	0.30714 0.87781 0.17661 0.11600
C 	C 	0.29240 0.88691 0.20368 -0.08300
C 	C 	0.22244 0.87062 0.21019 0.01200
C 	C 	0.17091 0.85293 0.19059 0.12000
C 	C 	0.18657 0.84802 0.16333 -0.08700
C 	C 	0.25596 0.86185 0.15671 0.01600
O 	O 	0.35637 0.85567 0.17017 -0.18200
C 	C 	0.32806 0.82176 0.14528 0.05200
C 	C 	0.26971 0.82729 0.13681 -0.06200
O 	O 	0.11459 0.86340 0.19850 -0.18400
C 	C 	0.13898 0.89117 0.22450 0.04900
C 	C 	0.20314 0.89570 0.23170 -0.05600
H 	H 	0.33238 0.90060 0.21938 0.07000
H 	H 	0.14603 0.83340 0.14779 0.07100
H 	H 	0.22962 0.79003 0.12265 0.05800
H 	H 	0.23873 0.92987 0.24763 0.06000
C 	C 	0.55927 0.68971 0.32353 0.11800
C 	C 	0.62948 0.70162 0.32215 -0.08600
C 	C 	0.67723 0.75343 0.30357 0.01200
C 	C 	0.65932 0.79865 0.28952 0.11800
C 	C 	0.59032 0.78930 0.29196 -0.08600
C 	C 	0.53977 0.73133 0.30787 0.01400
O 	O 	0.51667 0.65962 0.34646 -0.18700
C 	C 	0.47156 0.68890 0.34346 0.04500
C 	C 	0.48455 0.73123 0.32061 -0.05600
O 	O 	0.71794 0.86533 0.28243 -0.18900
C 	C 	0.77220 0.85657 0.29422 0.04100
C 	C 	0.74879 0.79001 0.30645 -0.05800
H 	H 	0.64783 0.67587 0.33661 0.06800
H 	H 	0.57826 0.82934 0.28361 0.07000
H 	H 	0.46969 0.77292 0.31831 0.05600
H 	H 	0.77857 0.77833 0.32146 0.05700
C 	C 	0.13497 0.33325 0.30891 0.11900
C 	C 	0.16147 0.40762 0.30437 -0.08600
C 	C 	0.14306 0.44595 0.32300 0.01300
C 	C 	0.10233 0.41229 0.34583 0.11700
C 	C 	0.07295 0.33693 0.34954 -0.08500
C 	C 	0.09311 0.29957 0.33127 0.01100
O 	O 	0.12932 0.28569 0.28840 -0.18200
C 	C 	0.07797 0.22032 0.30040 0.04100
C 	C 	0.05630 0.22799 0.32599 -0.05400
O 	O 	0.11654 0.45912 0.36764 -0.18600
C 	C 	0.17111 0.52348 0.35614 0.05100
C 	C 	0.18616 0.51626 0.32940 -0.05700
H 	H 	0.19519 0.43473 0.28695 0.07100
H 	H 	0.03995 0.30969 0.36710 0.06800
H 	H 	0.00852 0.18784 0.33652 0.06100
H 	H 	0.23735 0.55118 0.31962 0.06300
C 	C 	0.09721 0.80845 0.40915 0.11900
C 	C 	0.04238 0.79665 0.39094 -0.08500
C 	C 	0.04079 0.85732 0.38032 0.01100
C 	C 	0.09644 0.92720 0.38484 0.11800
C 	C 	0.15276 0.93887 0.40228 -0.08500
C 	C 	0.14937 0.87859 0.41564 0.01000
O 	O 	0.11868 0.75710 0.41285 -0.18900
C 	C 	0.18892 0.80288 0.42158 0.04900
C 	C 	0.20738 0.87506 0.42359 -0.05600
O 	O 	0.10583 0.97589 0.36412 -0.18200
C 	C 	0.05206 0.92828 0.34647 0.04500
C 	C 	0.01265 0.85795 0.35606 -0.05000
H 	H 	0.00627 0.74243 0.38337 0.06900
H 	H 	0.20051 0.99203 0.40349 0.06900
H 	H 	0.26198 0.92014 0.42227 0.05600
H 	H 	0.98309 0.81040 0.34334 0.05400
C 	C 	0.50906 0.01574 0.46467 0.00200
C 	C 	0.44360 0.01497 0.46838 -0.04800
C 	C 	0.43365 0.04894 0.49106 -0.03300
C 	C 	0.48784 0.08195 0.51064 -0.00300
C 	C 	0.55274 0.08213 0.50706 -0.03400
C 	C 	0.56338 0.04965 0.48418 -0.04100
C 	C 	0.48196 0.12735 0.53211 0.03400
C 	C 	0.49463 0.11882 0.55834 -0.20500
C 	C 	0.51781 0.97233 0.44285 0.01900
C 	C 	0.47266 0.94778 0.42007 -0.17600
H 	H 	0.40004 0.98716 0.45408 0.05000
H 	H 	0.38386 0.04966 0.49336 0.04000
H 	H 	0.59572 0.10915 0.52168 0.03900
H 	H 	0.61370 0.05003 0.48177 0.04100
H 	H 	0.48028 0.17580 0.52591 0.03600
H 	H 	0.48019 0.06482 0.56574 0.10300
H 	H 	0.55348 0.95062 0.44656 0.04100
H 	H 	0.45451 0.98251 0.41094 0.09200
C 	C 	0.09012 0.51190 0.50851 0.00100
C 	C 	0.01783 0.49004 0.50412 -0.03300
C 	C 	0.96838 0.45929 0.52523 -0.03900
C 	C 	0.99108 0.45093 0.55104 0.01100
C 	C 	0.06212 0.46733 0.55490 -0.04000
C 	C 	0.11171 0.49802 0.53370 -0.03200
C 	C 	0.94040 0.42543 0.57388 0.01600
C 	C 	0.90006 0.45922 0.57923 -0.16700
C 	C 	0.14409 0.56241 0.48923 0.03600
C 	C 	0.19397 0.54879 0.47863 -0.19400
H 	H 	0.00062 0.49995 0.48468 0.04500
H 	H 	0.91280 0.44390 0.52179 0.05100
H 	H 	0.07954 0.45906 0.57457 0.04400
H 	H 	0.16754 0.51467 0.53727 0.04600
H 	H 	0.92352 0.37188 0.58235 0.03600
H 	H 	0.92657 0.51830 0.57942 0.08900
H 	H 	0.14271 0.61141 0.48359 0.04000
H 	H 	0.18873 0.49536 0.48132 0.09600
C 	C 	0.56414 0.60916 0.47615 0.00900
C 	C 	0.60816 0.64683 0.49830 -0.03600
C 	C 	0.62689 0.60999 0.51725 -0.03700
C 	C 	0.60338 0.53577 0.51384 0.00800
C 	C 	0.56254 0.49907 0.49091 -0.03500
C 	C 	0.54353 0.53584 0.47204 -0.03700
C 	C 	0.61679 0.49558 0.53537 0.01800
C 	C 	0.64395 0.44943 0.52900 -0.17100
C 	C 	0.53489 0.64434 0.45843 0.01500
C 	C 	0.50049 0.67956 0.46983 -0.17000
H 	H 	0.62644 0.70413 0.50118 0.04400
H 	H 	0.65894 0.63891 0.53475 0.04300
H 	H 	0.54360 0.44159 0.48817 0.04400
H 	H 	0.51028 0.50656 0.45483 0.04200
H 	H 	0.60976 0.50599 0.55646 0.04200
H 	H 	0.65712 0.44482 0.50803 0.08800
H 	H 	0.53073 0.63314 0.43676 0.04400
H 	H 	0.50681 0.69239 0.49138 0.09000
C 	C 	0.74253 0.04875 0.61779 0.11100
C 	C 	0.73674 0.99194 0.63420 -0.07900
C 	C 	0.80007 0.99275 0.64184 0.01100
C 	C 	0.86663 0.05276 0.63689 0.11600
C 	C 	0.87222 0.11159 0.62181 -0.08800
C 	C 	0.80939 0.10564 0.61073 0.01400
O 	O 	0.68792 0.06571 0.61625 -0.18600
C 	C 	0.72863 0.13805 0.60788 0.05200
C 	C 	0.80061 0.16245 0.60451 -0.06400
O 	O 	0.91875 0.06142 0.65553 -0.18800
C 	C 	0.87709 0.00187 0.67237 0.04200
C 	C 	0.80654 0.96050 0.66432 -0.04900
H 	H 	0.68522 0.95169 0.64240 0.06900
H 	H 	0.92283 0.16216 0.62051 0.06800
H 	H 	0.84248 0.21910 0.60513 0.05200
H 	H 	0.76251 0.92686 0.67790 0.05900
C 	C 	0.30875 0.20873 0.69963 0.12000
C 	C 	0.38356 0.25149 0.70189 -0.08700
C 	C 	0.42068 0.30397 0.68158 0.01300
C 	C 	0.38673 0.30567 0.65800 0.11800
C 	C 	0.31266 0.25871 0.65495 -0.08500
C 	C 	0.27441 0.21457 0.67706 0.01100
O 	O 	0.26853 0.14477 0.71433 -0.19200
C 	C 	0.20612 0.11322 0.69847 0.04900
C 	C 	0.21113 0.15308 0.67549 -0.05700
O 	O 	0.43231 0.33360 0.63574 -0.18600
C 	C 	0.49651 0.34711 0.64790 0.04500
C 	C 	0.49009 0.33012 0.67525 -0.05500
H 	H 	0.41207 0.24175 0.71801 0.07000
H 	H 	0.28692 0.25324 0.63550 0.07000
H 	H 	0.16655 0.14553 0.66293 0.06300
H 	H 	0.52560 0.31641 0.68616 0.06100
C 	C 	0.75701 0.50856 0.70952 0.11800
C 	C 	0.75236 0.57233 0.71119 -0.08600
C 	C 	0.81553 0.63948 0.70802 0.01300
C 	C 	0.88165 0.64462 0.70673 0.11600
C 	C 	0.88716 0.58138 0.70619 -0.08500
C 	C 	0.82345 0.51333 0.70764 0.01300
O 	O 	0.70152 0.44487 0.69858 -0.18900
C 	C 	0.74103 0.41481 0.68762 0.04900
C 	C 	0.81328 0.45376 0.69412 -0.05700
O 	O 	0.93840 0.71271 0.71392 -0.18200
C 	C 	0.89900 0.74753 0.71974 0.05000
C 	C 	0.82567 0.70399 0.71647 -0.05900
H 	H 	0.70066 0.56935 0.71264 0.06900
H 	H 	0.93900 0.58483 0.70435 0.06900
H 	H 	0.85490 0.45166 0.68233 0.05800
H 	H 	0.78534 0.71258 0.72630 0.05700
C 	C 	0.05513 0.52643 0.01921 0.01200
C 	C 	0.06341 0.50438 0.99320 -0.03900
C 	C 	0.00370 0.46522 0.97647 -0.03500
C 	C 	0.93524 0.44899 0.98540 0.00800
C 	C 	0.92680 0.47014 0.01156 -0.03700
C 	C 	0.98652 0.50917 0.02832 -0.04000
C 	C 	0.87148 0.40744 0.96799 0.01100
C 	C 	0.87103 0.42740 0.94075 -0.15800
C 	C 	0.11936 0.57239 0.03577 0.00900
C 	C 	0.12441 0.55432 0.06287 -0.15900
H 	H 	0.11618 0.51754 0.98597 0.04200
H 	H 	0.01067 0.44717 0.95670 0.04300
H 	H 	0.87408 0.45726 0.01874 0.04100
H 	H 	0.97958 0.52711 0.04812 0.04300
H 	H 	0.82170 0.36736 0.97760 0.04100
H 	H 	0.92147 0.46263 0.93046 0.08500
H 	H 	0.16665 0.61483 0.02554 0.04200
H 	H 	0.07603 0.51713 0.07395 0.08500
C 	C 	0.51475 0.05154 0.97826 -0.00100
C 	C 	0.45121 0.98528 0.97418 -0.02600
C 	C 	0.42743 0.93042 0.99383 -0.04400
C 	C 	0.46774 0.94101 0.01752 0.02100
C 	C 	0.53153 0.00704 0.02151 -0.05000
C 	C 	0.55542 0.06179 0.00183 -0.03000
C 	C 	0.44216 0.88455 0.03878 0.00800
C 	C 	0.42361 0.81273 0.03246 -0.16000
C 	C 	0.53930 0.10901 0.95737 0.01600
C 	C 	0.56168 0.18132 0.96454 -0.16300
H 	H 	0.41976 0.97669 0.95595 0.04200
H 	H 	0.37737 0.88014 0.99079 0.04500
H 	H 	0.56292 0.01567 0.03976 0.04500
H 	H 	0.60569 0.11187 0.00483 0.04100
H 	H 	0.44549 0.90116 0.05987 0.04600
H 	H 	0.41777 0.79581 0.01133 0.08400
H 	H 	0.53359 0.09330 0.93611 0.04400
H 	H 	0.56760 0.19661 0.98585 0.08400
C 	C 	0.51705 0.53510 0.02463 0.00900
C 	C 	0.52125 0.47284 0.01827 -0.03800
C 	C 	0.51090 0.44715 0.99158 -0.03600
C 	C 	0.49574 0.48334 0.97087 0.00900
C 	C 	0.49191 0.54581 0.97719 -0.03800
C 	C 	0.50209 0.57142 0.00389 -0.03700
C 	C 	0.49492 0.46303 0.94208 0.01800
C 	C 	0.47334 0.39125 0.93474 -0.17500
C 	C 	0.51695 0.55466 0.05348 0.01800
C 	C 	0.53475 0.62537 0.06101 -0.17500
H 	H 	0.53190 0.44389 0.03409 0.04200
H 	H 	0.51621 0.40009 0.98695 0.04300
H 	H 	0.48133 0.57479 0.96136 0.04300
H 	H 	0.49669 0.61843 0.00852 0.04500
H 	H 	0.52458 0.50625 0.92741 0.04400
H 	H 	0.42223 0.34733 0.94200 0.09100
H 	H 	0.49014 0.51089 0.06820 0.04400
H 	H 	0.58267 0.67147 0.05264 0.09200
C 	C 	0.79893 0.14151 0.79446 0.11900
C 	C 	0.73063 0.13469 0.79519 -0.08600
C 	C 	0.69884 0.12973 0.82067 0.01200
C 	C 	0.73428 0.13313 0.84451 0.11800
C 	C 	0.80171 0.13759 0.84360 -0.08600
C 	C 	0.83451 0.14596 0.81819 0.01100
O 	O 	0.82413 0.12112 0.77207 -0.18400
C 	C 	0.87834 0.11364 0.78478 0.04300
C 	C 	0.88457 0.12776 0.81231 -0.05400
O 	O 	0.71419 0.16057 0.86630 -0.19200
C 	C 	0.66689 0.17775 0.85312 0.05200
C 	C 	0.65588 0.15746 0.82610 -0.05700
H 	H 	0.70299 0.13290 0.77657 0.07100
H 	H 	0.82979 0.13987 0.86216 0.06800
H 	H 	0.90643 0.10537 0.82678 0.05800
H 	H 	0.63885 0.18286 0.81094 0.06500
C 	C 	0.45797 0.25753 0.79438 0.11500
C 	C 	0.39799 0.18703 0.79285 -0.08700
C 	C 	0.32962 0.17946 0.79555 0.01100
C 	C 	0.31986 0.23863 0.79624 0.11800
C 	C 	0.37919 0.30925 0.79679 -0.08600
C 	C 	0.44835 0.31734 0.79575 0.01200
O 	O 	0.52263 0.26983 0.80539 -0.18900
C 	C 	0.54890 0.34057 0.81521 0.04200
C 	C 	0.50568 0.36976 0.80891 -0.05500
O 	O 	0.25115 0.22340 0.78903 -0.18100
C 	C 	0.22077 0.14860 0.78425 0.04800
C 	C 	0.26735 0.12203 0.78775 -0.05400
H 	H 	0.40473 0.13971 0.79188 0.06700
H 	H 	0.37195 0.35619 0.79826 0.06900
H 	H 	0.50480 0.41293 0.82042 0.05900
H 	H 	0.26162 0.07317 0.77836 0.05500
C 	C 	0.94583 0.82286 0.86633 0.11800
C 	C 	0.94387 0.76187 0.87834 -0.08500
C 	C 	0.88352 0.71506 0.89392 0.01000
C 	C 	0.82295 0.72209 0.89425 0.11800
C 	C 	0.82372 0.78129 0.88122 -0.08600
C 	C 	0.88797 0.83400 0.86905 0.01100
O 	O 	0.98869 0.85718 0.84383 -0.18400
C 	C 	0.95049 0.88871 0.83303 0.04700
C 	C 	0.89100 0.87583 0.84804 -0.05500
O 	O 	0.75951 0.65702 0.89881 -0.18800
C 	C 	0.78810 0.61086 0.90111 0.04300
C 	C 	0.86141 0.64449 0.89820 -0.05400
H 	H 	0.98514 0.74823 0.87384 0.06900
H 	H 	0.77454 0.78310 0.87874 0.06800
H 	H 	0.84489 0.87722 0.83984 0.05800
H 	H 	0.89053 0.61724 0.89208 0.05300
