data_crystal

_cell_length_a 25.73436
_cell_length_b 24.05981
_cell_length_c 31.57100
_cell_angle_alpha 103.92904
_cell_angle_beta  115.88652
_cell_angle_gamma 111.76701

_symmetry_space_group_name_	'P 1'
_symmetry_space_group_name_H-M	'P 1'

loop_
_symmetry_equiv_pos_as_xyz
  x,y,z

loop_
_atom_site_label
_atom_site_type_symbol
_atom_site_fract_x
_atom_site_fract_y
_atom_site_fract_z
_atom_site_charge
C 	C 	0.60436 0.26959 0.89758 0.05900
C 	C 	0.62569 0.33142 0.89612 -0.08800
C 	C 	0.67870 0.35799 0.88974 0.05900
C 	C 	0.70969 0.32230 0.88417 -0.08800
C 	C 	0.68890 0.26093 0.88620 0.06000
C 	C 	0.63557 0.23412 0.89214 -0.08800
H 	H 	0.60251 0.35964 0.90142 0.05900
H 	H 	0.75193 0.34375 0.88063 0.06100
H 	H 	0.62025 0.18715 0.89463 0.06200
C 	C 	0.51486 0.23795 0.35888 0.05600
C 	C 	0.53722 0.30021 0.35809 -0.09200
C 	C 	0.59014 0.32623 0.35153 0.05600
C 	C 	0.61977 0.28941 0.34484 -0.09000
C 	C 	0.59788 0.22754 0.34608 0.05800
C 	C 	0.54475 0.20136 0.35234 -0.09000
H 	H 	0.51496 0.32918 0.36410 0.05500
H 	H 	0.66189 0.31038 0.34111 0.06000
H 	H 	0.52862 0.15403 0.35427 0.06100
C 	C 	0.52001 0.77970 0.01368 0.05500
C 	C 	0.48589 0.81336 0.01475 -0.09200
C 	C 	0.42658 0.78289 0.01334 0.05300
C 	C 	0.40198 0.71927 0.01168 -0.09200
C 	C 	0.43566 0.68531 0.01033 0.05800
C 	C 	0.49495 0.71565 0.01159 -0.09400
H 	H 	0.50440 0.86221 0.01527 0.05500
H 	H 	0.35556 0.69534 0.00991 0.05500
H 	H 	0.52068 0.68909 0.00997 0.05400
C 	C 	0.42978 0.74698 0.47569 0.05400
C 	C 	0.39566 0.78037 0.47770 -0.09000
C 	C 	0.33660 0.74920 0.47649 0.05500
C 	C 	0.31224 0.68513 0.47407 -0.09000
C 	C 	0.34590 0.65143 0.47175 0.05500
C 	C 	0.40491 0.68245 0.47279 -0.09000
H 	H 	0.41400 0.82960 0.47883 0.05600
H 	H 	0.26603 0.66067 0.47248 0.05600
H 	H 	0.43061 0.65609 0.47042 0.05600
Zn	Zn	0.21485 0.15461 0.01447 1.18500
Zn	Zn	0.09804 0.10336 0.90111 1.19400
O 	O 	0.08050 0.98740 0.81219 -0.49300
O 	O 	0.06066 0.07335 0.82236 -0.44300
O 	O 	0.08209 0.90226 0.88484 -0.50800
C 	C 	0.27568 0.11859 0.96610 0.33400
O 	O 	0.03163 0.01088 0.88175 -0.87400
C 	C 	0.21793 0.25044 0.97156 0.34100
O 	O 	0.28939 0.15280 0.01278 -0.46400
O 	O 	0.21137 0.07584 0.92411 -0.35500
O 	O 	0.12185 0.11378 0.97480 -0.77900
O 	O 	0.14306 0.99317 0.96741 -0.46900
O 	O 	0.17153 0.19657 0.92305 -0.45600
O 	O 	0.23852 0.24389 0.01522 -0.46600
Zn	Zn	0.90704 0.90683 0.90580 1.17500
Zn	Zn	0.02444 0.93503 0.00207 1.17800
Zn	Zn	0.05779 0.02077 0.95161 1.21700
C 	C 	0.89672 0.79640 0.93637 0.34400
C 	C 	0.87758 0.95562 0.97682 0.34600
O 	O 	0.97377 0.05248 0.93674 -0.45900
Zn	Zn	0.04311 0.06704 0.04537 1.20000
O 	O 	0.96274 0.83728 0.97676 -0.44900
O 	O 	0.86550 0.81509 0.90246 -0.46300
O 	O 	0.85825 0.93793 0.92730 -0.48300
O 	O 	0.93925 0.97175 0.01339 -0.47900
C 	C 	0.06588 0.01086 0.11642 0.33000
O 	O 	0.99309 0.92812 0.92803 -0.79100
C 	C 	0.97371 0.09844 0.96943 0.37900
O 	O 	0.05502 0.95815 0.08011 -0.45400
O 	O 	0.08077 0.06806 0.11402 -0.46800
O 	O 	0.00549 0.11539 0.02039 -0.52200
O 	O 	0.08211 0.02940 0.02087 -0.89300
Zn	Zn	0.04924 0.94911 0.85143 1.18100
C 	C 	0.06307 0.02577 0.79371 0.32200
C 	C 	0.13194 0.93634 0.93627 0.34200
H 	H 	0.13175 0.05010 0.04799 0.16700
H 	H 	0.98321 0.99695 0.85803 0.14900
Zn	Zn	0.12825 0.12342 0.47839 1.18500
Zn	Zn	0.01382 0.06878 0.36335 1.19100
O 	O 	0.00525 0.94901 0.28308 -0.49600
O 	O 	0.98621 0.03525 0.28674 -0.41800
O 	O 	0.98872 0.86425 0.35239 -0.47900
C 	C 	0.19137 0.08647 0.43279 0.32500
O 	O 	0.94580 0.97709 0.34417 -0.87000
C 	C 	0.13192 0.21643 0.43326 0.33700
O 	O 	0.20447 0.12338 0.47849 -0.45900
O 	O 	0.12753 0.03853 0.39213 -0.34700
O 	O 	0.03496 0.08154 0.43685 -0.78400
O 	O 	0.05461 0.96028 0.43261 -0.46500
O 	O 	0.08859 0.16137 0.38542 -0.46100
O 	O 	0.15080 0.21161 0.47756 -0.46300
Zn	Zn	0.81901 0.87529 0.36933 1.17400
Zn	Zn	0.93687 0.90710 0.46714 1.18500
Zn	Zn	0.97012 0.98928 0.41441 1.21500
C 	C 	0.81045 0.76662 0.40152 0.34500
C 	C 	0.78803 0.92228 0.43966 0.34100
O 	O 	0.88610 0.02175 0.39716 -0.45400
Zn	Zn	0.95175 0.03510 0.50646 1.20300
O 	O 	0.87481 0.81024 0.44450 -0.45500
O 	O 	0.77916 0.78369 0.36620 -0.46500
O 	O 	0.76899 0.90468 0.39022 -0.48800
O 	O 	0.84993 0.93922 0.47662 -0.48500
C 	C 	0.99255 0.98977 0.58511 0.31900
O 	O 	0.90523 0.89737 0.39220 -0.80100
C 	C 	0.88189 0.06456 0.42865 0.34300
O 	O 	0.97664 0.93466 0.54721 -0.43100
O 	O 	0.99232 0.04093 0.57695 -0.44400
O 	O 	0.91140 0.08049 0.47936 -0.48600
O 	O 	0.99356 0.00014 0.48374 -0.85900
Zn	Zn	0.96142 0.91140 0.31622 1.19000
C 	C 	0.99915 0.99236 0.26579 0.34000
C 	C 	0.04070 0.90071 0.40324 0.31500
H 	H 	0.04318 0.02176 0.51156 0.14500
H 	H 	0.89776 0.96387 0.31993 0.14400
C 	C 	0.04735 0.01597 0.74079 -0.08300
C 	C 	0.08840 0.06824 0.73562 0.01300
C 	C 	0.07189 0.05758 0.68460 0.01400
H 	H 	0.10345 0.09793 0.68070 0.02500
C 	C 	0.01407 0.99578 0.63847 -0.14300
C 	C 	0.97341 0.94321 0.64380 0.05500
C 	C 	0.99108 0.95333 0.69499 -0.02900
H 	H 	0.95974 0.91300 0.69903 0.02100
C 	C 	0.91011 0.87901 0.59612 0.00400
C 	C 	0.84740 0.87491 0.57088 -0.03900
C 	C 	0.78647 0.81255 0.52861 -0.02200
C 	C 	0.78797 0.75437 0.51111 -0.03200
C 	C 	0.85053 0.75853 0.53546 -0.01900
C 	C 	0.91153 0.82065 0.57807 -0.03500
C 	C 	0.14886 0.13420 0.78328 0.02000
C 	C 	0.14369 0.19092 0.79715 -0.04500
C 	C 	0.20198 0.25441 0.84035 -0.01500
C 	C 	0.26554 0.26155 0.86965 -0.03300
C 	C 	0.27078 0.20507 0.85616 -0.01600
C 	C 	0.21254 0.14135 0.81324 -0.04600
H 	H 	0.19796 0.29815 0.85098 0.03400
H 	H 	0.31078 0.31088 0.90272 0.04200
H 	H 	0.32015 0.21092 0.87846 0.03800
H 	H 	0.21703 0.09786 0.80280 0.05100
H 	H 	0.09470 0.18584 0.77428 0.04300
H 	H 	0.84581 0.91971 0.58455 0.04200
H 	H 	0.73795 0.80905 0.50997 0.03800
H 	H 	0.95970 0.82335 0.59730 0.04500
H 	H 	0.85165 0.71352 0.52158 0.03900
H 	H 	0.74063 0.70600 0.47879 0.04000
C 	C 	0.05153 0.00218 0.15543 -0.07400
C 	C 	0.10171 0.04730 0.21109 0.00900
C 	C 	0.08337 0.04486 0.24674 0.02700
H 	H 	0.12215 0.07861 0.28961 0.03600
C 	C 	0.01548 0.99846 0.22740 -0.15200
C 	C 	0.96536 0.95354 0.17182 0.06100
C 	C 	0.98403 0.95480 0.13633 -0.03000
H 	H 	0.94517 0.92094 0.09348 0.05200
C 	C 	0.89275 0.90657 0.15026 -0.00700
C 	C 	0.85242 0.93248 0.15156 -0.04600
C 	C 	0.78397 0.88803 0.13167 -0.03300
C 	C 	0.75513 0.81760 0.10948 -0.04200
C 	C 	0.79486 0.79152 0.10751 -0.03200
C 	C 	0.86360 0.83584 0.12793 -0.04800
C 	C 	0.17344 0.09715 0.23232 0.02300
C 	C 	0.19949 0.16731 0.25469 -0.04900
C 	C 	0.26645 0.21424 0.27284 -0.02100
C 	C 	0.30753 0.19139 0.26870 -0.04100
C 	C 	0.28215 0.12164 0.24717 -0.02100
C 	C 	0.21537 0.07453 0.22925 -0.04900
H 	H 	0.28636 0.26829 0.28986 0.03100
H 	H 	0.35917 0.22777 0.28242 0.03600
H 	H 	0.31429 0.10411 0.24449 0.03300
H 	H 	0.19598 0.02055 0.21254 0.04900
H 	H 	0.16764 0.18530 0.25743 0.04500
H 	H 	0.87420 0.98694 0.16813 0.04200
H 	H 	0.75309 0.90811 0.13303 0.02900
H 	H 	0.89420 0.81533 0.12653 0.04300
H 	H 	0.77241 0.73698 0.09023 0.03100
H 	H 	0.70193 0.78322 0.09364 0.03200
C 	C 	0.31748 0.58351 0.46551 -0.03400
C 	C 	0.29136 0.52663 0.45994 -0.00300
C 	C 	0.25876 0.46016 0.45330 0.00500
C 	C 	0.22988 0.40368 0.44781 -0.04200
C 	C 	0.19542 0.33793 0.44185 0.07000
C 	C 	0.16609 0.28220 0.43744 -0.12800
C 	C 	0.48772 0.77710 0.47326 -0.03400
C 	C 	0.53551 0.80224 0.47046 -0.00500
C 	C 	0.59070 0.83112 0.46620 0.00400
C 	C 	0.63711 0.85481 0.46168 -0.04600
C 	C 	0.69066 0.88087 0.45527 0.07000
C 	C 	0.73563 0.90109 0.44879 -0.13200
C 	C 	0.09098 0.88339 0.42284 -0.14300
C 	C 	0.13240 0.86745 0.43667 0.06600
C 	C 	0.17954 0.84694 0.44998 -0.04800
C 	C 	0.21834 0.82766 0.45907 0.00400
C 	C 	0.26180 0.80286 0.46725 -0.00500
C 	C 	0.29703 0.77962 0.47238 -0.03400
C 	C 	0.40680 0.61766 0.00462 -0.04600
C 	C 	0.38019 0.56100 0.99940 0.00700
C 	C 	0.34695 0.49476 0.99305 0.00000
C 	C 	0.31753 0.43843 0.98767 -0.04100
C 	C 	0.28247 0.37272 0.98162 0.06700
C 	C 	0.25266 0.31678 0.97674 -0.12700
C 	C 	0.82526 0.93363 0.98600 -0.12800
C 	C 	0.78051 0.91273 0.99266 0.07100
C 	C 	0.72710 0.88614 0.99914 -0.02900
C 	C 	0.68071 0.86229 0.00366 -0.00600
C 	C 	0.62561 0.83357 0.00805 -0.00100
C 	C 	0.57792 0.80890 0.01106 -0.04000
C 	C 	0.38706 0.81354 0.00829 -0.03100
C 	C 	0.35199 0.83706 0.00245 -0.01500
C 	C 	0.30877 0.86226 0.99354 0.01500
C 	C 	0.27023 0.88189 0.98394 -0.05300
C 	C 	0.22338 0.90278 0.97018 0.07500
C 	C 	0.18214 0.91894 0.95608 -0.15100
C 	C 	0.63663 0.19645 0.34906 -0.03000
C 	C 	0.67092 0.17217 0.35401 0.00200
C 	C 	0.71298 0.14574 0.36289 0.01200
C 	C 	0.75034 0.12480 0.37334 -0.03900
C 	C 	0.79543 0.10214 0.38904 0.07900
C 	C 	0.83472 0.08425 0.40548 -0.13200
C 	C 	0.77387 0.69845 0.39252 -0.12700
C 	C 	0.74319 0.64120 0.38509 0.07100
C 	C 	0.70776 0.57431 0.37676 -0.04300
C 	C 	0.67835 0.51724 0.37001 0.00600
C 	C 	0.64538 0.45051 0.36268 -0.00200
C 	C 	0.61899 0.39370 0.35711 -0.03300
C 	C 	0.46515 0.21421 0.37059 -0.03500
C 	C 	0.42398 0.19418 0.38077 0.00100
C 	C 	0.37579 0.17068 0.39270 0.00900
C 	C 	0.33453 0.15077 0.40281 -0.03500
C 	C 	0.28584 0.12782 0.41435 0.07200
C 	C 	0.24344 0.10865 0.42348 -0.11500
C 	C 	0.72871 0.23096 0.89009 -0.02800
C 	C 	0.76361 0.20734 0.89572 0.00200
C 	C 	0.80606 0.18138 0.90522 0.01600
C 	C 	0.84349 0.16056 0.91594 -0.04200
C 	C 	0.88834 0.13767 0.93156 0.08800
C 	C 	0.92722 0.11924 0.94750 -0.14200
C 	C 	0.85888 0.72850 0.92739 -0.12400
C 	C 	0.82771 0.67147 0.92015 0.07500
C 	C 	0.79234 0.60475 0.91212 -0.03900
C 	C 	0.76343 0.54786 0.90579 0.00900
C 	C 	0.73149 0.48144 0.89917 0.00100
C 	C 	0.70617 0.42496 0.89434 -0.03100
C 	C 	0.32925 0.13932 0.95835 -0.11800
C 	C 	0.37295 0.15779 0.95048 0.07200
C 	C 	0.42272 0.18049 0.93997 -0.03800
C 	C 	0.46440 0.20056 0.93029 0.00800
C 	C 	0.51276 0.22452 0.91860 0.00100
C 	C 	0.55420 0.24512 0.90875 -0.03100
