data_crystal

_cell_length_a 30.50213
_cell_length_b 25.40186
_cell_length_c 25.45419
_cell_angle_alpha 89.92919
_cell_angle_beta  89.92359
_cell_angle_gamma 90.91800

_symmetry_space_group_name_	'P 1'
_symmetry_space_group_name_H-M	'P 1'

loop_
_symmetry_equiv_pos_as_xyz
  x,y,z

loop_
_atom_site_label
_atom_site_type_symbol
_atom_site_fract_x
_atom_site_fract_y
_atom_site_fract_z
_atom_site_charge
Zn	Zn	0.50451 0.49640 0.05430 1.21700
C 	C 	0.49875 0.61520 0.01301 0.29200
O 	O 	0.57781 0.47371 0.05097 -0.31400
O 	O 	0.49225 0.63293 0.06136 -0.36700
O 	O 	0.62029 0.54156 0.09621 -0.18500
C 	C 	0.45215 0.56450 0.13036 0.29700
O 	O 	0.46080 0.51685 0.11164 -0.39600
O 	O 	0.48066 0.58912 0.16174 -0.42000
C 	C 	0.61729 0.49533 0.06775 0.23100
O 	O 	0.49707 0.41284 0.09289 -0.31900
Zn	Zn	0.53573 0.61899 0.13119 1.19700
O 	O 	0.48916 0.56388 0.00269 -0.36000
C 	C 	0.48029 0.39816 0.04848 0.27300
O 	O 	0.47647 0.43518 0.01373 -0.38800
Zn	Zn	0.32672 0.12131 0.00377 1.22600
C 	C 	0.35683 0.08138 0.10309 0.36200
O 	O 	0.26237 0.12311 0.00915 -0.46200
O 	O 	0.35495 0.12948 0.12174 -0.44200
O 	O 	0.26058 0.12311 0.09859 -0.49600
C 	C 	0.37118 0.21548 0.03504 0.32300
O 	O 	0.37697 0.16757 0.01764 -0.42700
O 	O 	0.33415 0.22784 0.05759 -0.50600
C 	C 	0.24233 0.11141 0.05350 0.31400
O 	O 	0.32545 0.15866 0.91836 -0.32300
Zn	Zn	0.30396 0.17865 0.10390 1.17500
O 	O 	0.33762 0.06911 0.05860 -0.43500
C 	C 	0.33545 0.11172 0.90255 0.26700
O 	O 	0.33848 0.07685 0.93939 -0.37900
C 	C 	0.48921 0.90495 0.29931 0.14500
C 	C 	0.45790 0.93253 0.27053 -0.10200
H 	H 	0.43677 0.95995 0.29057 0.07000
C 	C 	0.45616 0.92789 0.21569 0.04500
C 	C 	0.48421 0.89301 0.19006 -0.08700
C 	C 	0.51690 0.86709 0.21828 0.10000
C 	C 	0.51869 0.87213 0.27319 -0.11400
H 	H 	0.54433 0.85295 0.29517 0.07900
N 	N 	0.49432 0.91527 0.35452 -0.17600
C 	C 	0.46998 0.88662 0.39017 0.18700
C 	C 	0.46879 0.90194 0.44334 -0.05000
C 	C 	0.49341 0.94623 0.45953 0.01400
C 	C 	0.51981 0.97361 0.42304 -0.02800
C 	C 	0.52040 0.95683 0.37035 0.18100
C 	C 	0.44266 0.87439 0.48018 -0.01600
C 	C 	0.44076 0.89130 0.53243 -0.00600
C 	C 	0.46497 0.93604 0.54871 -0.06500
C 	C 	0.49134 0.96345 0.51219 0.06100
C 	C 	0.51550 0.00817 0.52817 -0.08800
C 	C 	0.54440 0.01800 0.43943 -0.04700
C 	C 	0.54216 0.03523 0.49152 0.00400
C 	C 	0.46348 0.95370 0.60112 0.19400
N 	N 	0.48760 0.99718 0.61628 -0.15900
C 	C 	0.51281 0.02494 0.58077 0.18200
C 	C 	0.48836 0.01224 0.67073 0.10600
C 	C 	0.45410 0.04181 0.69194 -0.08900
C 	C 	0.45455 0.05536 0.74539 0.08500
C 	C 	0.49081 0.04262 0.77639 -0.07600
C 	C 	0.52337 0.00982 0.75640 0.05000
C 	C 	0.52256 0.99556 0.70321 -0.05300
O 	O 	0.54519 0.98203 0.33575 -0.19300
O 	O 	0.44679 0.84539 0.37433 -0.19600
O 	O 	0.43928 0.92798 0.63593 -0.17000
O 	O 	0.53483 0.06727 0.59609 -0.20400
H 	H 	0.54776 0.97049 0.68737 0.06600
H 	H 	0.42649 0.05223 0.66751 0.07700
H 	H 	0.56505 0.03949 0.41187 0.05300
H 	H 	0.56121 0.06960 0.50321 0.04400
H 	H 	0.42361 0.84002 0.46848 0.05500
H 	H 	0.42035 0.86959 0.56007 0.05600
H 	H 	0.49163 0.05414 0.81740 0.07400
H 	H 	0.48295 0.88936 0.14763 0.07300
Zn	Zn	0.67156 0.84787 0.96599 1.22400
C 	C 	0.64732 0.81049 0.06955 0.30700
O 	O 	0.73587 0.85772 0.96577 -0.46200
O 	O 	0.65877 0.76261 0.05633 -0.44100
O 	O 	0.74756 0.80467 0.03639 -0.49000
C 	C 	0.63970 0.74528 0.94113 0.32700
O 	O 	0.62779 0.79360 0.95048 -0.44400
O 	O 	0.68137 0.73425 0.94347 -0.51200
C 	C 	0.75998 0.84399 0.00623 0.31900
O 	O 	0.66794 0.87072 0.87618 -0.31500
Zn	Zn	0.71216 0.74782 0.00869 1.17600
O 	O 	0.66130 0.85139 0.04213 -0.43000
C 	C 	0.64931 0.91333 0.89242 0.26400
O 	O 	0.64703 0.91796 0.94300 -0.37500
Zn	Zn	0.22008 0.66161 0.99615 1.21900
C 	C 	0.17465 0.66768 0.09446 0.30300
O 	O 	0.17136 0.70830 0.98045 -0.44400
O 	O 	0.17932 0.71927 0.09352 -0.44400
O 	O 	0.20872 0.78360 0.99969 -0.50200
C 	C 	0.29933 0.67390 0.05617 0.31400
O 	O 	0.28327 0.66311 0.00940 -0.45700
O 	O 	0.27794 0.70474 0.08828 -0.48500
C 	C 	0.17537 0.75957 0.97703 0.33100
O 	O 	0.23565 0.65761 0.90534 -0.29700
Zn	Zn	0.23528 0.75516 0.06325 1.17200
O 	O 	0.20052 0.63842 0.06577 -0.43600
C 	C 	0.21289 0.61395 0.90635 0.31100
O 	O 	0.20148 0.59820 0.95286 -0.38900
C 	C 	0.00399 0.54325 0.29550 0.13700
C 	C 	0.97190 0.51184 0.27088 -0.09100
H 	H 	0.94927 0.48844 0.29445 0.07300
C 	C 	0.97045 0.50876 0.21595 0.05900
C 	C 	0.00042 0.53834 0.18563 -0.10900
C 	C 	0.03292 0.56921 0.21026 0.10300
C 	C 	0.03419 0.57220 0.26516 -0.11500
H 	H 	0.05970 0.59527 0.28437 0.07800
N 	N 	0.00848 0.54208 0.35164 -0.18200
C 	C 	0.03050 0.50146 0.37474 0.18700
C 	C 	0.03795 0.50142 0.42925 -0.05300
C 	C 	0.02262 0.54339 0.45971 0.01300
C 	C 	0.99981 0.58449 0.43558 -0.04200
C 	C 	0.99259 0.58285 0.38100 0.19500
C 	C 	0.06071 0.46027 0.45363 -0.01700
C 	C 	0.06784 0.46093 0.50785 -0.00900
C 	C 	0.05231 0.50273 0.53861 -0.06600
C 	C 	0.03000 0.54418 0.51440 0.04200
C 	C 	0.01478 0.58622 0.54486 -0.07900
C 	C 	0.98482 0.62667 0.46624 -0.02200
C 	C 	0.99236 0.62761 0.52042 0.00900
C 	C 	0.05796 0.50326 0.59343 0.19200
N 	N 	0.04142 0.54358 0.62291 -0.18000
C 	C 	0.02150 0.58561 0.59955 0.19600
C 	C 	0.04195 0.53964 0.67919 0.13500
C 	C 	0.00460 0.52125 0.70588 -0.10300
C 	C 	0.00610 0.51189 0.76017 0.01600
C 	C 	0.04501 0.52293 0.78795 -0.06500
C 	C 	0.08185 0.54392 0.76161 0.02600
C 	C 	0.08036 0.55164 0.70709 -0.09100
O 	O 	0.97072 0.62078 0.35792 -0.19800
O 	O 	0.04526 0.46267 0.34559 -0.19300
O 	O 	0.07819 0.46417 0.61676 -0.20200
O 	O 	0.00792 0.62510 0.62858 -0.20300
H 	H 	0.10897 0.56677 0.68637 0.07300
H 	H 	0.97466 0.51345 0.68414 0.07500
H 	H 	0.96736 0.65882 0.44826 0.05500
H 	H 	0.98047 0.66038 0.54327 0.05000
H 	H 	0.07286 0.42767 0.43073 0.05200
H 	H 	0.08529 0.42878 0.52583 0.04900
H 	H 	0.04654 0.51566 0.82990 0.04600
H 	H 	0.99976 0.53539 0.14313 0.08600
Zn	Zn	0.85323 0.36441 0.97729 1.22500
C 	C 	0.86793 0.40997 0.87577 0.36900
O 	O 	0.80614 0.41587 0.97443 -0.42500
O 	O 	0.82698 0.40046 0.86256 -0.45100
O 	O 	0.75625 0.35926 0.93801 -0.50600
C 	C 	0.86521 0.26583 0.92565 0.31600
O 	O 	0.85869 0.28841 0.97141 -0.46900
O 	O 	0.84724 0.28492 0.88299 -0.49100
C 	C 	0.76530 0.40056 0.96730 0.32000
O 	O 	0.84147 0.35420 0.06921 -0.30700
Zn	Zn	0.79675 0.33085 0.88621 1.17000
O 	O 	0.88562 0.38357 0.91416 -0.44200
C 	C 	0.87808 0.38077 0.07323 0.31800
O 	O 	0.89594 0.39500 0.02945 -0.37000
Zn	Zn	0.00094 0.00006 0.99319 1.21200
C 	C 	0.03998 0.89986 0.97302 0.30200
O 	O 	0.94783 0.95590 0.99240 -0.43900
O 	O 	0.01496 0.88339 0.01205 -0.44200
O 	O 	0.95132 0.94185 0.08039 -0.49300
C 	C 	0.07482 0.00610 0.06287 0.29700
O 	O 	0.04103 0.03112 0.04401 -0.47200
O 	O 	0.07059 0.95663 0.07689 -0.48200
C 	C 	0.92919 0.94046 0.03629 0.33000
O 	O 	0.95797 0.07460 0.00806 -0.31700
Zn	Zn	0.01312 0.92348 0.08242 1.17200
O 	O 	0.04141 0.95022 0.96080 -0.42700
C 	C 	0.96704 0.08679 0.95977 0.26800
O 	O 	0.99073 0.05346 0.93435 -0.37900
C 	C 	0.89571 0.22181 0.92165 -0.08800
C 	C 	0.93949 0.22774 0.93864 0.02900
C 	C 	0.96506 0.18298 0.94596 -0.02500
H 	H 	0.99795 0.18700 0.96163 0.04200
C 	C 	0.94780 0.13287 0.93448 -0.05900
C 	C 	0.90704 0.12824 0.90874 0.01200
C 	C 	0.88057 0.17262 0.90369 -0.01200
H 	H 	0.84804 0.16865 0.88688 0.02600
C 	C 	0.89349 0.07812 0.88383 0.02100
C 	C 	0.87687 0.03640 0.91450 -0.06800
C 	C 	0.86800 0.98743 0.89142 0.00100
C 	C 	0.87428 0.98047 0.83749 -0.01700
C 	C 	0.88988 0.02229 0.80660 -0.04000
C 	C 	0.89963 0.07101 0.82967 -0.04300
C 	C 	0.95944 0.28066 0.94568 0.01700
C 	C 	0.96681 0.30068 0.99631 -0.06700
C 	C 	0.98614 0.35055 0.00274 0.00500
C 	C 	0.99692 0.38122 0.95877 -0.02400
C 	C 	0.98919 0.36164 0.90825 -0.00900
C 	C 	0.97072 0.31134 0.90162 -0.04200
H 	H 	0.99195 0.36587 0.04182 0.04500
H 	H 	0.01105 0.42024 0.96384 0.04200
H 	H 	0.99719 0.38561 0.87426 0.04300
H 	H 	0.96471 0.29645 0.86237 0.05000
H 	H 	0.95707 0.27793 0.03053 0.05600
H 	H 	0.87173 0.04167 0.95622 0.04700
H 	H 	0.85642 0.95482 0.91531 0.03900
H 	H 	0.91248 0.10297 0.80567 0.04400
H 	H 	0.89478 0.01683 0.76485 0.03600
H 	H 	0.86718 0.94263 0.81967 0.04100
C 	C 	0.89630 0.44277 0.84218 -0.16700
C 	C 	0.91885 0.48657 0.86364 0.22700
C 	C 	0.95339 0.51045 0.83576 -0.14200
C 	C 	0.96720 0.48933 0.78766 0.06800
C 	C 	0.94418 0.44619 0.76602 -0.09800
C 	C 	0.90836 0.42387 0.79262 0.06200
H 	H 	0.97017 0.54459 0.85213 0.09000
H 	H 	0.89175 0.38965 0.77621 0.01300
Cl	Cl	0.90584 0.50989 0.92683 -0.34400
H 	H 	0.95473 0.42908 0.72925 0.06000
C 	C 	0.89251 0.40449 0.12281 -0.13700
C 	C 	0.87538 0.45320 0.13856 0.22300
C 	C 	0.89980 0.48623 0.17191 -0.12800
C 	C 	0.94085 0.47047 0.19026 0.04900
C 	C 	0.95554 0.41968 0.17918 -0.07900
C 	C 	0.93134 0.38673 0.14579 0.05100
H 	H 	0.88777 0.52495 0.18161 0.08900
H 	H 	0.94456 0.34904 0.13446 0.02300
Cl	Cl	0.82497 0.47492 0.11354 -0.33200
H 	H 	0.98687 0.40686 0.19410 0.07000
C 	C 	0.07042 0.86251 0.94796 -0.07900
C 	C 	0.11323 0.87872 0.93318 0.02200
C 	C 	0.14782 0.84317 0.93836 -0.01500
H 	H 	0.18128 0.85631 0.93103 0.05100
C 	C 	0.13924 0.79100 0.95438 -0.07600
C 	C 	0.09508 0.77243 0.95553 0.02500
C 	C 	0.06101 0.80853 0.95177 -0.02300
H 	H 	0.02731 0.79500 0.95537 0.04200
C 	C 	0.08398 0.71581 0.96013 0.02200
C 	C 	0.07485 0.69365 0.00953 -0.03900
C 	C 	0.06373 0.64018 0.01375 -0.00900
C 	C 	0.06162 0.60875 0.96874 -0.04000
C 	C 	0.07012 0.63086 0.91936 -0.01000
C 	C 	0.08102 0.68438 0.91495 -0.04100
C 	C 	0.12137 0.93080 0.90858 0.02800
C 	C 	0.09795 0.94546 0.86349 -0.05100
C 	C 	0.10260 0.99646 0.84327 0.03600
C 	C 	0.13091 0.03276 0.86752 -0.06400
C 	C 	0.15524 0.01785 0.91142 -0.02900
C 	C 	0.15121 0.96663 0.93127 -0.02700
H 	H 	0.08399 0.00796 0.80907 0.01300
H 	H 	0.13409 0.07240 0.85219 0.04700
H 	H 	0.17707 0.04605 0.93015 0.03900
H 	H 	0.17107 0.95479 0.96422 0.04100
H 	H 	0.07549 0.91777 0.84494 0.05800
H 	H 	0.07664 0.71778 0.04450 0.04100
H 	H 	0.05658 0.62313 0.05185 0.03900
H 	H 	0.08681 0.70148 0.87652 0.06600
H 	H 	0.06788 0.60664 0.88451 0.03700
H 	H 	0.05307 0.56736 0.97207 0.04700
C 	C 	0.18772 0.59583 0.85998 -0.13500
C 	C 	0.16610 0.63218 0.82698 0.21500
C 	C 	0.13292 0.61446 0.79313 -0.13300
C 	C 	0.12089 0.56103 0.79165 0.05200
C 	C 	0.14439 0.52460 0.82135 -0.08500
C 	C 	0.17781 0.54186 0.85502 0.04700
H 	H 	0.11524 0.64262 0.76956 0.09000
H 	H 	0.19443 0.51349 0.87943 0.02900
Cl	Cl	0.17842 0.70023 0.82900 -0.32600
H 	H 	0.13586 0.48307 0.81960 0.05500
C 	C 	0.06839 0.59393 0.17896 -0.07000
C 	C 	0.10260 0.56333 0.15871 0.16700
C 	C 	0.13753 0.58766 0.13200 -0.06900
C 	C 	0.13893 0.64261 0.12547 -0.04800
C 	C 	0.10501 0.67307 0.14635 -0.02200
C 	C 	0.06982 0.64879 0.17258 -0.01800
H 	H 	0.16366 0.56376 0.11653 0.08600
H 	H 	0.04375 0.67265 0.18825 0.03100
Cl	Cl	0.10266 0.49453 0.16772 -0.33700
H 	H 	0.10547 0.71544 0.14154 0.03600
C 	C 	0.88541 0.91583 0.03494 -0.08400
C 	C 	0.88046 0.86050 0.03461 0.02600
C 	C 	0.83949 0.83774 0.02335 -0.01400
H 	H 	0.83587 0.79520 0.02197 0.02800
C 	C 	0.80292 0.86937 0.01511 -0.08700
C 	C 	0.80713 0.92459 0.01959 0.02800
C 	C 	0.84849 0.94752 0.02911 -0.01500
H 	H 	0.85191 0.98994 0.03220 0.04500
C 	C 	0.76813 0.95828 0.01725 0.01600
C 	C 	0.73905 0.95993 0.06001 -0.04700
C 	C 	0.70070 0.98914 0.05653 0.00100
C 	C 	0.69142 0.01714 0.01065 -0.03900
C 	C 	0.72040 0.01582 0.96808 -0.04400
C 	C 	0.75868 0.98642 0.97126 -0.02600
C 	C 	0.91723 0.82602 0.04902 0.00800
C 	C 	0.93178 0.82400 0.10131 -0.06500
C 	C 	0.96353 0.78775 0.11609 -0.04500
C 	C 	0.97998 0.75244 0.07922 -0.02400
C 	C 	0.96520 0.75381 0.02728 -0.02100
C 	C 	0.93431 0.79092 0.01195 -0.03500
H 	H 	0.97481 0.78643 0.15636 0.02600
H 	H 	0.00376 0.72360 0.09106 0.02400
H 	H 	0.97758 0.72600 0.99893 0.03800
H 	H 	0.92302 0.79175 0.97163 0.04100
H 	H 	0.91802 0.84993 0.13056 0.04100
H 	H 	0.74584 0.93791 0.09548 0.05100
H 	H 	0.67805 0.98984 0.08928 0.04100
H 	H 	0.78044 0.98464 0.93774 0.04400
H 	H 	0.71294 0.03707 0.93239 0.03500
H 	H 	0.66162 0.03953 0.00793 0.04600
C 	C 	0.55556 0.98600 0.79232 -0.04000
C 	C 	0.54157 0.95204 0.83320 0.16100
C 	C 	0.57247 0.92933 0.86636 -0.06800
C 	C 	0.61732 0.93969 0.85900 -0.02800
C 	C 	0.63133 0.97298 0.81820 -0.02800
C 	C 	0.60057 0.99629 0.78513 0.00300
H 	H 	0.56165 0.90277 0.89731 0.08000
H 	H 	0.61168 0.02219 0.75382 0.02000
Cl	Cl	0.48554 0.93656 0.84260 -0.30600
H 	H 	0.66599 0.98082 0.81209 0.04500
C 	C 	0.55410 0.84435 0.18946 -0.06200
C 	C 	0.54782 0.79978 0.15717 0.16000
C 	C 	0.57966 0.78691 0.11979 -0.07300
C 	C 	0.61764 0.81839 0.11428 -0.05100
C 	C 	0.62519 0.86037 0.14896 -0.01300
C 	C 	0.59377 0.87299 0.18662 -0.01700
H 	H 	0.57394 0.75392 0.09356 0.05800
H 	H 	0.59909 0.90705 0.21154 0.04500
Cl	Cl	0.49964 0.76090 0.16198 -0.39000
H 	H 	0.65480 0.88430 0.14561 0.04500
C 	C 	0.11806 0.03304 0.06606 -0.07800
C 	C 	0.12140 0.08856 0.06980 0.01800
C 	C 	0.16195 0.11375 0.06131 -0.01600
H 	H 	0.16452 0.15632 0.06387 0.02700
C 	C 	0.19969 0.08435 0.05297 -0.08600
C 	C 	0.19708 0.02889 0.05342 0.01500
C 	C 	0.15632 0.00357 0.06039 -0.04200
H 	H 	0.15427 0.96091 0.05966 0.05300
C 	C 	0.23700 0.99703 0.04749 0.02400
C 	C 	0.25365 0.96934 0.09066 -0.04600
C 	C 	0.29162 0.93968 0.08513 -0.02800
C 	C 	0.31315 0.93771 0.03666 -0.02000
C 	C 	0.29659 0.96503 0.99353 -0.02800
C 	C 	0.25866 0.99475 0.99885 -0.02800
C 	C 	0.08374 0.12024 0.08714 0.02400
C 	C 	0.06730 0.15980 0.05440 -0.04900
C 	C 	0.03318 0.19144 0.07189 -0.01000
C 	C 	0.01463 0.18298 0.12148 -0.05200
C 	C 	0.03069 0.14342 0.15411 -0.01500
C 	C 	0.06544 0.11238 0.13728 -0.05100
H 	H 	0.02147 0.22285 0.04725 0.02900
H 	H 	0.98803 0.20734 0.13477 0.05200
H 	H 	0.01644 0.13710 0.19261 0.02600
H 	H 	0.07818 0.08235 0.16309 0.03400
H 	H 	0.08120 0.16627 0.01569 0.04500
H 	H 	0.23736 0.97111 0.12845 0.04100
H 	H 	0.30451 0.91850 0.11848 0.02600
H 	H 	0.24647 0.01644 0.96545 0.03200
H 	H 	0.31334 0.96353 0.95606 0.06100
H 	H 	0.34274 0.91522 0.03254 0.04100
C 	C 	0.41454 0.07465 0.77114 -0.05300
C 	C 	0.38201 0.03845 0.78821 0.15500
C 	C 	0.35270 0.05268 0.82789 -0.06200
C 	C 	0.35562 0.10281 0.85077 -0.03400
C 	C 	0.38438 0.14077 0.82917 -0.01800
C 	C 	0.41372 0.12671 0.78948 -0.01700
H 	H 	0.32951 0.02371 0.84316 0.07600
H 	H 	0.43804 0.15517 0.77591 0.03800
Cl	Cl	0.38010 0.97369 0.76349 -0.27600
H 	H 	0.38630 0.18001 0.84572 0.04800
C 	C 	0.38209 0.04165 0.13089 -0.14900
C 	C 	0.42631 0.03359 0.11806 0.19900
C 	C 	0.45031 0.99620 0.14561 -0.10600
C 	C 	0.42998 0.96521 0.18469 0.03400
C 	C 	0.38536 0.97193 0.19590 -0.06200
C 	C 	0.36169 0.01046 0.16955 0.02300
H 	H 	0.48482 0.99151 0.13697 0.08700
H 	H 	0.32738 0.01583 0.17891 0.01700
Cl	Cl	0.45189 0.06967 0.06709 -0.34100
H 	H 	0.36917 0.94763 0.22532 0.04700
C 	C 	0.45991 0.34528 0.04210 -0.05700
C 	C 	0.44587 0.32638 0.99248 0.00900
C 	C 	0.41872 0.28131 0.98989 -0.01900
H 	H 	0.40548 0.26854 0.95239 0.04200
C 	C 	0.40786 0.25340 0.03572 -0.07600
C 	C 	0.42751 0.26778 0.08372 0.02500
C 	C 	0.45262 0.31407 0.08691 -0.02900
H 	H 	0.46546 0.32653 0.12468 0.05300
C 	C 	0.42247 0.23413 0.13069 0.01400
C 	C 	0.45086 0.19196 0.13868 -0.03500
C 	C 	0.44655 0.16052 0.18359 -0.00900
C 	C 	0.41411 0.17126 0.22076 -0.03300
C 	C 	0.38607 0.21365 0.21321 -0.03100
C 	C 	0.39029 0.24520 0.16836 -0.06900
C 	C 	0.46166 0.35113 0.94328 0.02500
C 	C 	0.50620 0.34892 0.92956 -0.04500
C 	C 	0.52133 0.37367 0.88377 -0.01900
C 	C 	0.49206 0.40022 0.85128 -0.03700
C 	C 	0.44759 0.40198 0.86447 -0.01700
C 	C 	0.43231 0.37739 0.91030 -0.04400
H 	H 	0.55573 0.37230 0.87347 0.03000
H 	H 	0.50384 0.41938 0.81585 0.03900
H 	H 	0.42498 0.42246 0.83922 0.03700
H 	H 	0.39785 0.37900 0.92033 0.04300
H 	H 	0.52903 0.32840 0.95454 0.04100
H 	H 	0.47621 0.18364 0.11016 0.06500
H 	H 	0.46819 0.12768 0.18945 0.04500
H 	H 	0.36850 0.27799 0.16276 0.02600
H 	H 	0.36101 0.22194 0.24204 0.02000
H 	H 	0.41061 0.14666 0.25530 0.03700
C 	C 	0.33841 0.64605 0.07518 -0.08100
C 	C 	0.37277 0.67352 0.10093 0.03200
C 	C 	0.40760 0.64563 0.12270 -0.01600
H 	H 	0.43397 0.66719 0.14194 0.05600
C 	C 	0.41027 0.59076 0.11657 -0.07000
C 	C 	0.37483 0.56297 0.09262 0.02000
C 	C 	0.33970 0.59103 0.07132 -0.00900
H 	H 	0.31253 0.56974 0.05328 0.04400
C 	C 	0.37221 0.50475 0.09311 0.02400
C 	C 	0.36663 0.47749 0.14076 -0.03900
C 	C 	0.36146 0.42267 0.14078 -0.01500
C 	C 	0.36092 0.39502 0.09333 -0.03700
C 	C 	0.36642 0.42198 0.04582 -0.01000
C 	C 	0.37242 0.47667 0.04561 -0.05100
C 	C 	0.37440 0.73172 0.10213 0.01600
C 	C 	0.36905 0.75848 0.14991 -0.04300
C 	C 	0.37567 0.81305 0.15224 -0.01800
C 	C 	0.38762 0.84107 0.10701 -0.03800
C 	C 	0.39262 0.81467 0.05926 -0.02000
C 	C 	0.38608 0.76010 0.05673 -0.04800
H 	H 	0.37199 0.83355 0.18920 0.03800
H 	H 	0.39307 0.88322 0.10896 0.04500
H 	H 	0.40195 0.83643 0.02430 0.04500
H 	H 	0.39092 0.73976 0.01984 0.05200
H 	H 	0.36053 0.73687 0.18530 0.05100
H 	H 	0.36612 0.49878 0.17760 0.05200
H 	H 	0.35741 0.40167 0.17754 0.03300
H 	H 	0.37683 0.49727 0.00864 0.05200
H 	H 	0.36602 0.40049 0.00916 0.03900
H 	H 	0.35619 0.35271 0.09335 0.04000
C 	C 	0.65810 0.47146 0.04882 -0.04200
C 	C 	0.66317 0.41627 0.04940 0.00900
C 	C 	0.69918 0.39395 0.02401 0.00200
H 	H 	0.70310 0.35158 0.02469 0.03900
C 	C 	0.72977 0.42578 0.99703 -0.08500
C 	C 	0.72520 0.48108 0.99729 0.03000
C 	C 	0.68990 0.50352 0.02416 -0.02300
H 	H 	0.68585 0.54587 0.02329 0.04400
C 	C 	0.75556 0.51563 0.96709 0.02700
C 	C 	0.75598 0.51375 0.91193 -0.04300
C 	C 	0.78424 0.54703 0.88350 -0.01100
C 	C 	0.81150 0.58299 0.90986 -0.03000
C 	C 	0.81090 0.58535 0.96474 -0.00700
C 	C 	0.78302 0.55178 0.99338 -0.05100
C 	C 	0.63055 0.38142 0.07572 0.02800
C 	C 	0.60393 0.34723 0.04583 -0.04600
C 	C 	0.57302 0.31443 0.07070 -0.01500
C 	C 	0.56836 0.31584 0.12532 -0.03000
C 	C 	0.59456 0.35010 0.15520 -0.01300
C 	C 	0.62577 0.38269 0.13057 -0.04400
H 	H 	0.55251 0.28813 0.04762 0.03800
H 	H 	0.54438 0.29047 0.14449 0.04100
H 	H 	0.59075 0.35132 0.19746 0.03800
H 	H 	0.64604 0.40904 0.15397 0.05500
H 	H 	0.60706 0.34632 0.00344 0.04400
H 	H 	0.73453 0.48646 0.89122 0.04000
H 	H 	0.78492 0.54506 0.84104 0.03700
H 	H 	0.78255 0.55404 0.03586 0.07100
H 	H 	0.83212 0.61312 0.98508 0.03400
H 	H 	0.83331 0.60877 0.88778 0.04700
C 	C 	0.60759 0.70264 0.95021 -0.09500
C 	C 	0.56785 0.69984 0.92151 0.03100
C 	C 	0.53331 0.66690 0.93944 -0.01600
H 	H 	0.50267 0.66482 0.91794 0.04200
C 	C 	0.53763 0.63916 0.98667 -0.09400
C 	C 	0.57735 0.64335 0.01554 0.03600
C 	C 	0.61309 0.67057 0.99431 -0.02200
H 	H 	0.64457 0.66949 0.01392 0.00900
C 	C 	0.58126 0.61452 0.06597 -0.05400
C 	C 	0.55387 0.56644 0.07261 -0.24200
C 	C 	0.55026 0.53802 0.12673 -0.17100
C 	C 	0.57618 0.55995 0.17107 -0.11100
C 	C 	0.60408 0.60762 0.16293 -0.12200
C 	C 	0.60650 0.63478 0.11133 -0.15400
C 	C 	0.56198 0.73172 0.87336 0.01400
C 	C 	0.52789 0.76811 0.87036 -0.03400
C 	C 	0.52251 0.79829 0.82493 -0.02000
C 	C 	0.55177 0.79346 0.78297 -0.02500
C 	C 	0.58579 0.75734 0.78577 -0.01800
C 	C 	0.59067 0.72607 0.83057 -0.03900
H 	H 	0.49544 0.82507 0.82206 0.07100
H 	H 	0.54788 0.81742 0.74815 0.05000
H 	H 	0.60824 0.75338 0.75310 0.04000
H 	H 	0.61683 0.69777 0.83221 0.04600
H 	H 	0.50559 0.77290 0.90311 0.05200
H 	H 	0.55109 0.54694 0.03651 0.01800
H 	H 	0.53619 0.49902 0.13073 0.02500
H 	H 	0.62593 0.67058 0.10758 0.06000
H 	H 	0.62293 0.62319 0.19552 0.05400
H 	H 	0.57593 0.54017 0.20872 0.06000
