data_crystal

_cell_length_a 20.85866
_cell_length_b 21.75007
_cell_length_c 39.52318
_cell_angle_alpha 60.75353
_cell_angle_beta  118.98368
_cell_angle_gamma 133.26566

_symmetry_space_group_name_	'P 1'
_symmetry_space_group_name_H-M	'P 1'

loop_
_symmetry_equiv_pos_as_xyz
  x,y,z

loop_
_atom_site_label
_atom_site_type_symbol
_atom_site_fract_x
_atom_site_fract_y
_atom_site_fract_z
_atom_site_charge
C 	C 	0.68925 0.33938 0.96027 0.13500
N 	N 	0.60395 0.28547 0.96574 -0.13400
C 	C 	0.56569 0.31951 0.96305 0.13500
N 	N 	0.60972 0.40670 0.95127 -0.13500
C 	C 	0.69926 0.45946 0.95308 0.13600
N 	N 	0.73818 0.42640 0.95543 -0.13300
C 	C 	0.68794 0.33828 0.46039 0.13500
N 	N 	0.73678 0.42528 0.45554 -0.13300
C 	C 	0.69777 0.45823 0.45322 0.13600
N 	N 	0.60823 0.40537 0.45144 -0.13500
C 	C 	0.56431 0.31820 0.46323 0.13500
N 	N 	0.60267 0.28427 0.46590 -0.13400
C 	C 	0.29932 0.58662 0.22847 0.13100
N 	N 	0.38760 0.63007 0.22988 -0.13500
C 	C 	0.41592 0.58742 0.23187 0.13400
N 	N 	0.35724 0.50055 0.23529 -0.13500
C 	C 	0.26761 0.45918 0.22900 0.13300
N 	N 	0.23857 0.50185 0.22636 -0.13600
C 	C 	0.29770 0.58534 0.72846 0.13100
N 	N 	0.23695 0.50053 0.72640 -0.13600
C 	C 	0.26596 0.45790 0.72895 0.13300
N 	N 	0.35555 0.49937 0.73509 -0.13500
C 	C 	0.41420 0.58625 0.73165 0.13400
N 	N 	0.38591 0.62884 0.72974 -0.13500
Co	Co	0.01658 0.86769 0.10436 1.17900
Co	Co	0.99004 0.07225 0.07877 1.19400
Co	Co	0.91420 0.89973 0.13048 1.18200
Co	Co	0.10616 0.04829 0.05756 1.18700
C 	C 	0.95109 0.78169 0.03961 0.34000
Co	Co	0.14792 0.92773 0.05760 1.16700
Co	Co	0.82538 0.99535 0.11126 1.16500
C 	C 	0.29187 0.08919 0.08323 0.32100
O 	O 	0.85696 0.94377 0.17247 -0.40300
O 	O 	0.90359 0.98198 0.10013 -0.75700
C 	C 	0.93699 0.95922 0.19271 0.31100
O 	O 	0.94769 0.82051 0.14369 -0.45100
O 	O 	0.09564 0.13617 0.05577 -0.46600
C 	C 	0.01589 0.14862 0.13367 0.29800
O 	O 	0.97865 0.95988 0.07983 -0.56700
C 	C 	0.71951 0.80661 0.12929 0.32500
C 	C 	0.14331 0.82025 0.14053 0.32400
C 	C 	0.11844 0.04974 0.98417 0.32100
O 	O 	0.97596 0.94610 0.18098 -0.39100
O 	O 	0.12454 0.81883 0.10420 -0.40800
O 	O 	0.11963 0.85549 0.14718 -0.39400
O 	O 	0.93184 0.12291 0.11580 -0.38900
O 	O 	0.05359 0.12909 0.12535 -0.40100
O 	O 	0.71838 0.87236 0.10320 -0.38800
O 	O 	0.77897 0.79711 0.13319 -0.37400
O 	O 	0.17861 0.03449 0.00897 -0.39800
O 	O 	0.08242 0.06396 0.99689 -0.37900
O 	O 	0.07987 0.94773 0.07157 -0.78100
C 	C 	0.84992 0.11236 0.03116 0.31900
O 	O 	0.79046 0.03743 0.05035 -0.37600
O 	O 	0.92438 0.12860 0.03182 -0.36500
O 	O 	0.02269 0.85007 0.02453 -0.41200
O 	O 	0.94294 0.77171 0.07399 -0.36800
O 	O 	0.26367 0.00838 0.09364 -0.38000
O 	O 	0.24396 0.10660 0.08505 -0.38300
Co	Co	0.01513 0.86653 0.60446 1.17900
Co	Co	0.98864 0.07118 0.57876 1.19400
Co	Co	0.91261 0.89864 0.63043 1.18200
Co	Co	0.10490 0.04714 0.55769 1.18700
C 	C 	0.94958 0.78049 0.53972 0.34000
Co	Co	0.14646 0.92638 0.55775 1.16700
Co	Co	0.82355 0.99421 0.61097 1.16500
C 	C 	0.29050 0.08778 0.58343 0.32100
O 	O 	0.85474 0.94246 0.67218 -0.40300
O 	O 	0.90203 0.98090 0.60002 -0.75700
C 	C 	0.93479 0.95806 0.69251 0.31000
O 	O 	0.94620 0.81944 0.64376 -0.45100
O 	O 	0.09446 0.13508 0.55591 -0.46600
C 	C 	0.01405 0.14735 0.63361 0.29800
O 	O 	0.97728 0.95880 0.57986 -0.56700
C 	C 	0.71770 0.80547 0.62896 0.32500
C 	C 	0.14169 0.81889 0.64067 0.32400
C 	C 	0.11730 0.04859 0.48432 0.32000
O 	O 	0.97398 0.94491 0.68094 -0.39100
O 	O 	0.12291 0.81744 0.60435 -0.40800
O 	O 	0.11809 0.85421 0.64730 -0.39400
O 	O 	0.93004 0.12173 0.61563 -0.38800
O 	O 	0.05188 0.12786 0.62536 -0.40100
O 	O 	0.71665 0.87126 0.60284 -0.38800
O 	O 	0.77729 0.79601 0.63297 -0.37400
O 	O 	0.17733 0.03317 0.50914 -0.39800
O 	O 	0.08139 0.06299 0.49702 -0.37900
O 	O 	0.07847 0.94652 0.57168 -0.78100
C 	C 	0.84861 0.11141 0.53095 0.31900
O 	O 	0.78903 0.03641 0.55005 -0.37600
O 	O 	0.92324 0.12775 0.53175 -0.36400
O 	O 	0.02121 0.84882 0.52465 -0.41200
O 	O 	0.94144 0.77052 0.57410 -0.36800
O 	O 	0.26223 0.00696 0.59382 -0.38000
O 	O 	0.24263 0.10525 0.58526 -0.38300
C 	C 	0.05052 0.02896 0.87223 0.01000
C 	C 	0.06744 0.09757 0.83767 -0.02900
C 	C 	0.05256 0.08569 0.80196 -0.03800
C 	C 	0.02089 0.00515 0.80066 0.02300
C 	C 	0.00469 0.93693 0.83531 -0.08000
C 	C 	0.01949 0.94878 0.87092 -0.03500
C 	C 	0.99400 0.98900 0.76276 0.04800
C 	C 	0.97151 0.97542 0.73114 -0.09000
C 	C 	0.07339 0.04280 0.91012 0.05000
C 	C 	0.09110 0.04864 0.94300 -0.09700
H 	H 	0.09257 0.16013 0.83843 0.04700
H 	H 	0.06447 0.13864 0.77529 0.04800
H 	H 	0.97930 0.87425 0.83457 0.07300
H 	H 	0.00725 0.89568 0.89753 0.03900
C 	C 	0.02445 0.00880 0.30034 0.00900
C 	C 	0.02401 0.07342 0.30004 -0.03000
C 	C 	0.03934 0.08452 0.33606 -0.03500
C 	C 	0.05513 0.03102 0.37257 0.01700
C 	C 	0.05694 0.96740 0.37284 -0.04900
C 	C 	0.04161 0.95631 0.33690 -0.04500
C 	C 	0.07387 0.04347 0.41011 0.04700
C 	C 	0.09072 0.04845 0.44306 -0.09500
C 	C 	0.99718 0.99000 0.26313 0.05700
C 	C 	0.97397 0.97637 0.23142 -0.09300
H 	H 	0.01045 0.11414 0.27197 0.04500
H 	H 	0.03875 0.13446 0.33547 0.04800
H 	H 	0.06991 0.92626 0.40089 0.04400
H 	H 	0.04150 0.90587 0.33752 0.04300
C 	C 	0.06830 0.20798 0.65770 -0.10000
C 	C 	0.10995 0.26012 0.67673 0.05700
C 	C 	0.15843 0.32415 0.69725 -0.00400
C 	C 	0.20368 0.38273 0.71295 -0.02300
C 	C 	0.49136 0.63430 0.71648 -0.01900
C 	C 	0.54979 0.67053 0.70043 -0.00500
C 	C 	0.61212 0.71212 0.67827 0.06800
C 	C 	0.66175 0.75106 0.65685 -0.11100
C 	C 	0.26538 0.63400 0.71981 -0.02100
C 	C 	0.23828 0.67652 0.70958 -0.00400
C 	C 	0.20564 0.72768 0.69270 0.06100
C 	C 	0.17671 0.77099 0.67262 -0.10400
C 	C 	0.20547 0.38409 0.21295 -0.02300
C 	C 	0.16032 0.32556 0.19724 -0.00300
C 	C 	0.11193 0.26154 0.17673 0.05700
C 	C 	0.07028 0.20935 0.15772 -0.10000
C 	C 	0.66362 0.75214 0.15721 -0.11100
C 	C 	0.61401 0.71320 0.17864 0.06800
C 	C 	0.55165 0.67164 0.20077 -0.00400
C 	C 	0.49317 0.63545 0.21678 -0.01900
C 	C 	0.26701 0.63533 0.21976 -0.02100
C 	C 	0.23991 0.67788 0.20948 -0.00400
C 	C 	0.20726 0.72904 0.19257 0.06100
C 	C 	0.17833 0.77234 0.17247 -0.10400
C 	C 	0.83000 0.17517 0.50831 -0.09600
C 	C 	0.80512 0.22129 0.49283 0.06700
C 	C 	0.76831 0.26750 0.47849 0.00200
C 	C 	0.73286 0.30180 0.46898 -0.01700
C 	C 	0.88671 0.70915 0.52156 -0.10300
C 	C 	0.84173 0.65336 0.50440 0.07200
C 	C 	0.79419 0.58981 0.48411 -0.00100
C 	C 	0.75274 0.53278 0.46830 -0.01800
C 	C 	0.49972 0.26877 0.48627 -0.01800
C 	C 	0.45122 0.23250 0.50770 -0.00400
C 	C 	0.39761 0.19041 0.53422 0.07400
C 	C 	0.35064 0.14885 0.55718 -0.11600
C 	C 	0.73408 0.30277 0.96893 -0.01700
C 	C 	0.76948 0.26838 0.97849 0.00100
C 	C 	0.80626 0.22212 0.99290 0.06700
C 	C 	0.83118 0.17602 0.00844 -0.09700
C 	C 	0.75427 0.53401 0.96818 -0.01800
C 	C 	0.79574 0.59104 0.98399 -0.00100
C 	C 	0.84329 0.65457 0.00428 0.07100
C 	C 	0.88825 0.71036 0.02145 -0.10300
C 	C 	0.35198 0.15027 0.05696 -0.11600
C 	C 	0.39894 0.19182 0.03400 0.07400
C 	C 	0.45255 0.23389 0.00748 -0.00500
C 	C 	0.50106 0.27014 0.98606 -0.01800
