data_crystal

_cell_length_a 18.57997
_cell_length_b 18.96105
_cell_length_c 26.51344
_cell_angle_alpha 95.42803
_cell_angle_beta  95.42844
_cell_angle_gamma 126.42956

_symmetry_space_group_name_	'P 1'
_symmetry_space_group_name_H-M	'P 1'

loop_
_symmetry_equiv_pos_as_xyz
  x,y,z

loop_
_atom_site_label
_atom_site_type_symbol
_atom_site_fract_x
_atom_site_fract_y
_atom_site_fract_z
_atom_site_charge
C 	C 	0.92676 0.02569 0.00175 0.04000
C 	C 	0.02002 0.07162 0.00163 -0.06800
C 	C 	0.05631 0.02458 0.99867 0.02800
C 	C 	0.99982 0.93234 0.99646 -0.06800
C 	C 	0.90751 0.88701 0.99806 0.02800
C 	C 	0.87089 0.93355 0.00066 -0.06800
H 	H 	0.06347 0.14297 0.00252 0.05400
H 	H 	0.02789 0.89597 0.99398 0.05100
H 	H 	0.79884 0.89797 0.00087 0.05500
C 	C 	0.92253 0.00852 0.44573 0.03600
C 	C 	0.01602 0.06012 0.44512 -0.07600
C 	C 	0.06122 0.02186 0.44809 0.03700
C 	C 	0.01244 0.93087 0.44888 -0.07800
C 	C 	0.91856 0.87774 0.44784 0.03800
C 	C 	0.87326 0.91665 0.44678 -0.07500
H 	H 	0.05433 0.13092 0.44486 0.05400
H 	H 	0.04773 0.90146 0.45086 0.05500
H 	H 	0.80109 0.87642 0.44764 0.05300
Cu	Cu	0.60007 0.19754 0.00959 0.92900
Cu	Cu	0.66063 0.19746 0.89761 0.87500
Cu	Cu	0.63946 0.33426 0.94130 0.89800
Cu	Cu	0.60118 0.36054 0.04605 0.89700
C 	C 	0.64011 0.27037 0.11768 0.28200
O 	O 	0.46813 0.14170 0.01324 -0.35400
C 	C 	0.62248 0.28039 0.82964 0.28200
O 	O 	0.67093 0.33575 0.01268 -0.63600
O 	O 	0.58006 0.20369 0.93574 -0.63900
O 	O 	0.65784 0.13684 0.00381 -0.36400
O 	O 	0.75149 0.22942 0.95376 -0.43500
O 	O 	0.59622 0.30349 0.10651 -0.38000
O 	O 	0.70516 0.46183 0.95159 -0.38300
C 	C 	0.69944 0.50954 0.98831 0.29400
C 	C 	0.43052 0.17836 0.99726 0.28500
O 	O 	0.48188 0.26000 0.98880 -0.39500
O 	O 	0.64329 0.47238 0.02089 -0.38900
O 	O 	0.63839 0.21486 0.08249 -0.35300
C 	C 	0.73307 0.17390 0.98518 0.28900
O 	O 	0.62579 0.33535 0.86624 -0.37300
O 	O 	0.60160 0.20350 0.83770 -0.41200
H 	H 	0.73709 0.37601 0.02701 0.16600
H 	H 	0.51564 0.16466 0.91778 0.17400
Cu	Cu	0.77170 0.35469 0.44362 0.92600
Cu	Cu	0.78081 0.29978 0.55655 0.87300
Cu	Cu	0.63164 0.30630 0.51355 0.89800
Cu	Cu	0.60006 0.34726 0.40979 0.89700
C 	C 	0.69815 0.32118 0.33588 0.28400
O 	O 	0.82310 0.48444 0.44103 -0.35300
C 	C 	0.70113 0.34187 0.62641 0.28000
O 	O 	0.63067 0.28135 0.44131 -0.63600
O 	O 	0.76591 0.37229 0.51757 -0.64000
O 	O 	0.83347 0.29606 0.44754 -0.36700
O 	O 	0.74499 0.20795 0.50128 -0.43900
O 	O 	0.66050 0.35969 0.34910 -0.38000
O 	O 	0.50044 0.23700 0.50386 -0.37600
C 	C 	0.44934 0.23560 0.46494 0.29400
C 	C 	0.78300 0.51796 0.45839 0.28400
O 	O 	0.70047 0.46421 0.46762 -0.38900
O 	O 	0.48512 0.29752 0.43613 -0.38900
O 	O 	0.75303 0.31938 0.37039 -0.35800
C 	C 	0.79830 0.22382 0.46796 0.29100
O 	O 	0.63075 0.30927 0.58883 -0.37500
O 	O 	0.77845 0.36221 0.61583 -0.41600
H 	H 	0.59184 0.21699 0.42592 0.16400
H 	H 	0.80239 0.43546 0.53506 0.17700
C 	C 	0.65022 0.30862 0.78054 -0.07400
C 	C 	0.60116 0.32650 0.74786 -0.00800
C 	C 	0.62022 0.34273 0.69834 0.00000
C 	C 	0.68780 0.33883 0.68090 -0.06700
C 	C 	0.74058 0.32686 0.71524 -0.01800
C 	C 	0.72277 0.31268 0.76481 0.00300
H 	H 	0.54742 0.32656 0.76062 0.04200
H 	H 	0.79434 0.32638 0.70293 0.03500
C 	C 	0.77989 0.30291 0.79956 0.04400
C 	C 	0.57295 0.36683 0.66687 0.08300
N 	N 	0.82560 0.29508 0.82738 -0.13800
N 	N 	0.53501 0.38611 0.64169 -0.11600
C 	C 	0.67064 0.27724 0.17251 -0.06300
C 	C 	0.74178 0.36139 0.20189 -0.01600
C 	C 	0.75697 0.37486 0.25589 0.00500
C 	C 	0.69975 0.30368 0.28087 -0.06300
C 	C 	0.63444 0.21773 0.25159 -0.01600
C 	C 	0.61989 0.20399 0.19751 0.00500
H 	H 	0.78275 0.41729 0.18274 0.03100
H 	H 	0.59222 0.16230 0.27081 0.03500
C 	C 	0.55118 0.11514 0.16806 0.08300
C 	C 	0.83009 0.46236 0.28541 0.08000
N 	N 	0.49623 0.04391 0.14447 -0.11300
N 	N 	0.88874 0.53244 0.30904 -0.11400
C 	C 	0.82110 0.61150 0.45639 -0.08800
C 	C 	0.82663 0.63784 0.40833 -0.00900
C 	C 	0.84967 0.72194 0.40434 0.00000
C 	C 	0.86898 0.78158 0.44897 -0.00100
C 	C 	0.86071 0.75416 0.49683 -0.06700
C 	C 	0.83752 0.66993 0.50083 0.05300
S 	S 	0.85472 0.75218 0.34328 -0.03900
S 	S 	0.83272 0.63985 0.56195 -0.05800
H 	H 	0.74550 0.59542 0.57075 0.04200
H 	H 	0.94182 0.79560 0.33442 0.03800
H 	H 	0.81057 0.59192 0.37378 0.04800
H 	H 	0.87650 0.80002 0.53135 0.05200
C 	C 	0.87951 0.05357 0.45140 0.00100
C 	C 	0.84635 0.06898 0.40727 -0.07000
C 	C 	0.82153 0.12610 0.41188 0.05500
C 	C 	0.83123 0.16954 0.46119 -0.09800
C 	C 	0.86317 0.15293 0.50520 -0.00500
C 	C 	0.88655 0.09499 0.50060 -0.00500
S 	S 	0.77627 0.14050 0.35585 -0.04200
S 	S 	0.92559 0.07553 0.55683 -0.04700
H 	H 	0.85339 0.00143 0.57117 0.03400
H 	H 	0.84514 0.21320 0.33871 0.04900
H 	H 	0.84149 0.03791 0.36932 0.05200
H 	H 	0.86936 0.18487 0.54322 0.01500
C 	C 	0.35012 0.17735 0.46111 -0.09100
C 	C 	0.31314 0.18004 0.50432 -0.00300
C 	C 	0.21884 0.13034 0.50037 -0.00200
C 	C 	0.16071 0.07788 0.45259 0.00100
C 	C 	0.19757 0.07427 0.40959 -0.06900
C 	C 	0.29177 0.12304 0.41366 0.05600
S 	S 	0.17428 0.13348 0.55559 -0.03600
S 	S 	0.33558 0.11255 0.35975 -0.07100
H 	H 	0.34284 0.04488 0.36093 0.03500
H 	H 	0.16200 0.19806 0.55718 0.03600
H 	H 	0.35786 0.22173 0.54085 0.04900
H 	H 	0.15273 0.03244 0.37312 0.05100
C 	C 	0.84916 0.79045 0.99671 -0.00100
C 	C 	0.79263 0.73209 0.95024 -0.07100
C 	C 	0.74260 0.63989 0.94690 0.05800
C 	C 	0.75073 0.60577 0.99035 -0.09900
C 	C 	0.80552 0.66421 0.03713 0.00100
C 	C 	0.85419 0.75616 0.04063 0.00100
S 	S 	0.66713 0.56813 0.88899 -0.04200
S 	S 	0.92015 0.82772 0.10037 -0.04100
H 	H 	0.86850 0.84229 0.12638 0.03700
H 	H 	0.71124 0.54942 0.85826 0.04800
H 	H 	0.78803 0.75857 0.91660 0.05200
H 	H 	0.81028 0.63795 0.07084 0.03100
C 	C 	0.88573 0.07212 0.99814 -0.01000
C 	C 	0.86677 0.09934 0.04273 -0.06200
C 	C 	0.81751 0.13342 0.03925 0.05800
C 	C 	0.78620 0.13969 0.99049 -0.10300
C 	C 	0.80759 0.11479 0.94615 -0.00500
C 	C 	0.85701 0.08113 0.94972 -0.00100
S 	S 	0.79816 0.17047 0.09619 -0.02600
S 	S 	0.88113 0.04890 0.89313 -0.04700
H 	H 	0.96500 0.11888 0.88579 0.03700
H 	H 	0.86664 0.25976 0.11321 0.03700
H 	H 	0.88930 0.09281 0.08005 0.05000
H 	H 	0.78451 0.12041 0.90868 0.02000
C 	C 	0.15382 0.07160 0.99868 -0.00300
C 	C 	0.21163 0.09162 0.04460 -0.06400
C 	C 	0.30119 0.12287 0.04434 0.05700
C 	C 	0.33379 0.13466 0.99752 -0.09900
C 	C 	0.27631 0.11593 0.95168 -0.00500
C 	C 	0.18663 0.08454 0.95202 -0.00300
S 	S 	0.37207 0.14830 0.10300 -0.04200
S 	S 	0.11590 0.06123 0.89381 -0.04500
H 	H 	0.06755 0.97291 0.87204 0.03600
H 	H 	0.36253 0.07326 0.11150 0.05100
H 	H 	0.18612 0.08094 0.08044 0.05100
H 	H 	0.30176 0.12669 0.91583 0.03400
