data_crystal

_cell_length_a 18.45807
_cell_length_b 18.86022
_cell_length_c 44.81465
_cell_angle_alpha 95.43461
_cell_angle_beta  95.43294
_cell_angle_gamma 126.41204

_symmetry_space_group_name_	'P 1'
_symmetry_space_group_name_H-M	'P 1'

loop_
_symmetry_equiv_pos_as_xyz
  x,y,z

loop_
_atom_site_label
_atom_site_type_symbol
_atom_site_fract_x
_atom_site_fract_y
_atom_site_fract_z
_atom_site_charge
C 	C 	0.91005 0.98731 0.96988 0.12000
N 	N 	0.00067 0.03998 0.96876 -0.13400
C 	C 	0.04709 0.00507 0.96895 0.11800
N 	N 	0.00253 0.91682 0.96947 -0.12300
C 	C 	0.91170 0.86316 0.97012 0.11100
N 	N 	0.86521 0.89851 0.97071 -0.13500
C 	C 	0.92646 0.02707 0.50144 0.10300
N 	N 	0.01723 0.07197 0.50117 -0.12800
C 	C 	0.05421 0.02764 0.50172 0.11600
N 	N 	0.00068 0.93894 0.50253 -0.12600
C 	C 	0.91016 0.89409 0.50263 0.11000
N 	N 	0.87307 0.93821 0.50230 -0.12900
Cu	Cu	0.76612 0.33823 0.96937 0.92600
Cu	Cu	0.75592 0.27442 0.03539 0.87000
Cu	Cu	0.61793 0.29161 0.00666 0.89800
Cu	Cu	0.59517 0.32959 0.94436 0.89600
C 	C 	0.70225 0.30446 0.90481 0.30600
O 	O 	0.81837 0.46870 0.96779 -0.35600
C 	C 	0.67845 0.33105 0.07391 0.30800
O 	O 	0.62296 0.26376 0.96492 -0.63800
O 	O 	0.75268 0.35404 0.01217 -0.64300
O 	O 	0.82695 0.27886 0.97420 -0.36700
O 	O 	0.72674 0.18497 0.00261 -0.43900
O 	O 	0.66404 0.34392 0.91073 -0.38700
O 	O 	0.48605 0.22304 0.99898 -0.37900
C 	C 	0.43604 0.21980 0.97497 0.29600
C 	C 	0.77550 0.50140 0.97636 0.28300
O 	O 	0.69010 0.44640 0.97968 -0.39200
O 	O 	0.47358 0.27639 0.95601 -0.39100
O 	O 	0.75572 0.30444 0.92657 -0.36300
C 	C 	0.78562 0.20325 0.98468 0.28800
O 	O 	0.61168 0.30099 0.05051 -0.38600
O 	O 	0.75115 0.33559 0.07059 -0.42100
H 	H 	0.58443 0.19879 0.95628 0.16600
H 	H 	0.78997 0.41702 0.02312 0.17500
Cu	Cu	0.59809 0.19717 0.50497 0.92900
Cu	Cu	0.65822 0.20600 0.43830 0.86900
Cu	Cu	0.63691 0.33852 0.46709 0.89800
Cu	Cu	0.60614 0.36288 0.53045 0.89600
C 	C 	0.64083 0.26299 0.56965 0.30700
O 	O 	0.46671 0.14374 0.50828 -0.35900
C 	C 	0.60427 0.28507 0.39989 0.30400
O 	O 	0.67241 0.33689 0.50856 -0.64000
O 	O 	0.57666 0.20741 0.46209 -0.64100
O 	O 	0.65337 0.13435 0.49894 -0.37100
O 	O 	0.74956 0.23118 0.47039 -0.44100
O 	O 	0.59964 0.29999 0.56468 -0.38800
O 	O 	0.70414 0.46717 0.47402 -0.38300
C 	C 	0.70767 0.51605 0.49809 0.29800
C 	C 	0.43064 0.18350 0.50038 0.28800
O 	O 	0.48378 0.26682 0.49662 -0.39400
O 	O 	0.65284 0.47901 0.51784 -0.39200
O 	O 	0.63804 0.20960 0.54748 -0.36100
C 	C 	0.72960 0.17293 0.48817 0.29500
O 	O 	0.61397 0.34017 0.42334 -0.38100
O 	O 	0.59641 0.21238 0.40334 -0.42200
H 	H 	0.73940 0.37582 0.51628 0.16400
H 	H 	0.51174 0.16905 0.45158 0.17600
C 	C 	0.70649 0.25772 0.65849 -0.00800
C 	C 	0.74893 0.33589 0.68043 -0.03100
C 	C 	0.75821 0.33259 0.71148 -0.04300
C 	C 	0.72523 0.25099 0.72080 0.00900
C 	C 	0.68689 0.17367 0.69877 -0.04300
C 	C 	0.67747 0.17706 0.66770 -0.03000
C 	C 	0.72289 0.24496 0.75335 0.00900
C 	C 	0.80417 0.29991 0.77526 -0.04300
C 	C 	0.80050 0.30470 0.80636 -0.03000
C 	C 	0.71569 0.25443 0.81574 -0.00800
C 	C 	0.63489 0.19571 0.79394 -0.03100
C 	C 	0.63840 0.19101 0.76284 -0.04300
C 	C 	0.71082 0.27088 0.84726 0.04600
C 	C 	0.70697 0.28480 0.87366 -0.10400
C 	C 	0.68388 0.25835 0.62692 0.04600
C 	C 	0.66555 0.26023 0.60060 -0.10400
H 	H 	0.77184 0.39856 0.67347 0.03800
H 	H 	0.78795 0.39268 0.72828 0.04100
H 	H 	0.66206 0.11055 0.70572 0.04100
H 	H 	0.64504 0.11643 0.65084 0.04200
H 	H 	0.86982 0.34105 0.76819 0.04000
H 	H 	0.86332 0.34984 0.82310 0.04100
H 	H 	0.56909 0.15628 0.80103 0.03800
H 	H 	0.57526 0.14821 0.74614 0.04200
C 	C 	0.58675 0.33077 0.31327 -0.00900
C 	C 	0.64706 0.41759 0.30737 -0.03100
C 	C 	0.65331 0.43114 0.27729 -0.04400
C 	C 	0.59950 0.35775 0.25291 0.00900
C 	C 	0.53553 0.27152 0.25886 -0.04300
C 	C 	0.52914 0.25816 0.28894 -0.03100
C 	C 	0.61705 0.36949 0.22161 0.00900
C 	C 	0.70351 0.40131 0.21520 -0.04400
C 	C 	0.71701 0.40110 0.18504 -0.03100
C 	C 	0.64424 0.36891 0.16106 -0.00900
C 	C 	0.55898 0.34092 0.16745 -0.03000
C 	C 	0.54541 0.34135 0.19765 -0.04300
C 	C 	0.65454 0.35598 0.13000 0.04600
C 	C 	0.66503 0.34585 0.10422 -0.11100
C 	C 	0.59184 0.31488 0.34393 0.04500
C 	C 	0.59617 0.30165 0.36961 -0.11100
H 	H 	0.69142 0.47414 0.32608 0.03900
H 	H 	0.70211 0.49813 0.27295 0.04000
H 	H 	0.49349 0.21442 0.24022 0.04100
H 	H 	0.48196 0.19089 0.29333 0.03800
H 	H 	0.75927 0.42315 0.23350 0.03900
H 	H 	0.78319 0.42312 0.18027 0.03700
H 	H 	0.50251 0.31633 0.14903 0.04000
H 	H 	0.47867 0.31750 0.20236 0.04100
C 	C 	0.85232 0.79751 0.50223 -0.01000
C 	C 	0.86793 0.76610 0.52729 -0.05700
C 	C 	0.82255 0.67434 0.52597 0.05300
C 	C 	0.75941 0.61287 0.49945 -0.08900
C 	C 	0.74307 0.64424 0.47448 -0.00500
C 	C 	0.78930 0.73613 0.47569 0.00700
S 	S 	0.84881 0.63764 0.55702 -0.06900
S 	S 	0.77001 0.77368 0.44351 -0.02900
H 	H 	0.83403 0.79310 0.42582 0.03500
H 	H 	0.79031 0.61996 0.57685 0.03600
H 	H 	0.91734 0.81343 0.54755 0.05200
H 	H 	0.69412 0.59701 0.45413 0.04600
C 	C 	0.88440 0.07242 0.49813 -0.01000
C 	C 	0.86936 0.10581 0.52415 -0.05800
C 	C 	0.82027 0.14042 0.52130 0.05200
C 	C 	0.78513 0.14098 0.49202 -0.09600
C 	C 	0.80284 0.11017 0.46606 -0.00800
C 	C 	0.85193 0.07568 0.46896 0.00600
S 	S 	0.80605 0.18544 0.55449 -0.03000
S 	S 	0.87094 0.03530 0.43587 -0.04700
H 	H 	0.95252 0.10341 0.42903 0.03400
H 	H 	0.87629 0.27551 0.56247 0.03300
H 	H 	0.89497 0.10389 0.54662 0.05000
H 	H 	0.77683 0.11144 0.44354 0.01800
C 	C 	0.15211 0.07530 0.50184 -0.01300
C 	C 	0.20887 0.08907 0.52837 -0.05300
C 	C 	0.29917 0.12141 0.52795 0.04700
C 	C 	0.33347 0.14032 0.50060 -0.08800
C 	C 	0.27703 0.12774 0.47416 -0.01000
C 	C 	0.18658 0.09520 0.47461 0.01100
S 	S 	0.36909 0.14003 0.56199 -0.03100
S 	S 	0.11665 0.07802 0.44085 -0.04000
H 	H 	0.06819 0.99095 0.42596 0.04500
H 	H 	0.41354 0.22606 0.57727 0.03600
H 	H 	0.18213 0.07313 0.54927 0.05200
H 	H 	0.30373 0.14369 0.45325 0.03700
C 	C 	0.86457 0.76694 0.97035 -0.01300
C 	C 	0.84487 0.73594 0.99791 -0.05200
C 	C 	0.82090 0.65124 0.00071 0.04600
C 	C 	0.81519 0.59597 0.97553 -0.08400
C 	C 	0.83346 0.62646 0.94785 -0.01300
C 	C 	0.85709 0.71091 0.94505 0.01000
S 	S 	0.80220 0.61691 0.03619 -0.05800
S 	S 	0.87552 0.74515 0.90954 -0.03600
H 	H 	0.79467 0.71976 0.89307 0.03700
H 	H 	0.71096 0.56988 0.03736 0.04100
H 	H 	0.85194 0.77922 0.01758 0.05100
H 	H 	0.82665 0.58333 0.92818 0.04500
C 	C 	0.86327 0.02881 0.97299 -0.02000
C 	C 	0.84062 0.05442 0.94743 -0.05300
C 	C 	0.81593 0.11193 0.95084 0.04700
C 	C 	0.81482 0.14529 0.98024 -0.09000
C 	C 	0.83465 0.11723 0.00564 -0.01400
C 	C 	0.85832 0.05912 0.00215 0.00800
S 	S 	0.78440 0.13936 0.91808 -0.03000
S 	S 	0.88378 0.02651 0.03463 -0.04800
H 	H 	0.97546 0.08699 0.04673 0.03200
H 	H 	0.69141 0.07956 0.90821 0.03500
H 	H 	0.84449 0.03145 0.92495 0.04800
H 	H 	0.83225 0.14116 0.02822 0.01900
C 	C 	0.33646 0.16551 0.97305 -0.08700
C 	C 	0.30164 0.17864 0.99770 -0.00400
C 	C 	0.20705 0.12770 0.99641 0.01000
C 	C 	0.14632 0.06341 0.97004 -0.01200
C 	C 	0.18108 0.05061 0.94533 -0.05500
C 	C 	0.27571 0.10098 0.94673 0.05200
S 	S 	0.16561 0.14280 0.02835 -0.03400
S 	S 	0.31715 0.08006 0.91591 -0.06500
H 	H 	0.33033 0.13542 0.89583 0.03700
H 	H 	0.14874 0.20351 0.02500 0.03900
H 	H 	0.34828 0.22838 0.01793 0.04400
H 	H 	0.13437 0.00047 0.92518 0.05400
