data_crystal

_cell_length_a 33.64310
_cell_length_b 34.06936
_cell_length_c 26.47558
_cell_angle_alpha 95.44477
_cell_angle_beta  95.44008
_cell_angle_gamma 125.39525

_symmetry_space_group_name_	'P 1'
_symmetry_space_group_name_H-M	'P 1'

loop_
_symmetry_equiv_pos_as_xyz
  x,y,z

loop_
_atom_site_label
_atom_site_type_symbol
_atom_site_fract_x
_atom_site_fract_y
_atom_site_fract_z
_atom_site_charge
C 	C 	0.05201 0.03211 0.96683 0.03500
C 	C 	0.02433 0.00393 0.44291 0.02800
C 	C 	0.07794 0.03315 0.44192 -0.00200
C 	C 	0.09560 0.01753 0.40498 -0.03400
H 	H 	0.08582 0.01764 0.88326 0.03700
C 	C 	0.11531 0.04597 0.91421 -0.03500
H 	H 	0.17309 0.05654 0.87510 0.04000
H 	H 	0.15983 0.03153 0.37696 0.04000
C 	C 	0.14653 0.04423 0.40522 -0.04200
C 	C 	0.03031 0.05653 0.97484 -0.08200
H 	H 	0.01850 0.06238 0.43104 0.04800
C 	C 	0.11161 0.07608 0.47866 -0.03600
C 	C 	0.10396 0.05942 0.95939 -0.00400
C 	C 	0.16473 0.06809 0.90952 -0.04300
C 	C 	0.99886 0.02483 0.43698 -0.07000
C 	C 	0.98105 0.03050 0.98256 0.03900
C 	C 	0.92199 0.02023 0.43486 -0.00200
C 	C 	0.88338 0.00269 0.39308 -0.03500
H 	H 	0.94469 0.03972 0.06645 0.03600
H 	H 	0.83016 0.01181 0.35605 0.04000
C 	C 	0.94009 0.05654 0.03589 -0.02400
C 	C 	0.95794 0.05596 0.99020 -0.01600
C 	C 	0.85994 0.02559 0.38841 -0.04200
C 	C 	0.93672 0.06060 0.47209 -0.03600
C 	C 	0.87495 0.06620 0.42548 0.00700
H 	H 	0.96640 0.07432 0.50453 0.03800
H 	H 	0.82200 0.07383 0.49157 0.03900
C 	C 	0.91571 0.07830 0.04193 -0.04800
C 	C 	0.95210 0.07818 0.95106 -0.02900
H 	H 	0.82263 0.06914 0.94294 0.03900
H 	H 	0.90138 0.07791 0.07699 0.04200
H 	H 	0.96570 0.07787 0.91564 0.03600
C 	C 	0.18022 0.08695 0.44222 0.00800
H 	H 	0.09835 0.08837 0.50742 0.03700
H 	H 	0.05163 0.09557 0.97506 0.05000
C 	C 	0.14247 0.09653 0.99897 -0.04000
H 	H 	0.26652 0.09813 0.01398 0.04600
C 	C 	0.20321 0.10405 0.94984 0.00900
C 	C 	0.16252 0.10293 0.47873 -0.04200
H 	H 	0.25046 0.10583 0.52054 0.04000
H 	H 	0.13409 0.10720 0.03395 0.04300
C 	C 	0.28311 0.11823 0.98361 -0.04500
C 	C 	0.19189 0.11885 0.99416 -0.04800
C 	C 	0.25516 0.12438 0.94683 0.00700
H 	H 	0.40153 0.12142 0.93519 0.04900
C 	C 	0.23406 0.11454 0.44319 0.00700
C 	C 	0.26553 0.12104 0.48716 -0.04100
C 	C 	0.33263 0.13832 0.98151 -0.04200
H 	H 	0.35417 0.13422 0.01072 0.04800
H 	H 	0.39252 0.13356 0.45809 0.04800
H 	H 	0.23003 0.12947 0.36602 0.04000
H 	H 	0.22138 0.14697 0.02524 0.04500
H 	H 	0.06989 0.98458 0.37630 0.03700
H 	H 	0.18821 0.13602 0.50724 0.04000
C 	C 	0.27688 0.14993 0.90727 -0.04100
H 	H 	0.25556 0.15477 0.87862 0.03900
C 	C 	0.02442 0.98167 0.96676 -0.08200
H 	H 	0.04136 0.96288 0.96130 0.05100
H 	H 	0.01846 0.93913 0.45516 0.04800
C 	C 	0.25399 0.13415 0.40007 -0.04100
C 	C 	0.30492 0.15993 0.40087 -0.03600
C 	C 	0.33641 0.16656 0.44489 -0.00100
C 	C 	0.31649 0.14705 0.48806 -0.03600
C 	C 	0.39025 0.19415 0.44591 0.02800
C 	C 	0.41817 0.24322 0.43960 -0.06600
C 	C 	0.46922 0.26948 0.44091 0.01600
C 	C 	0.49290 0.24696 0.44879 -0.08600
C 	C 	0.46491 0.19783 0.45508 0.01600
C 	C 	0.41382 0.17153 0.45352 -0.06500
H 	H 	0.31992 0.17470 0.36728 0.03900
H 	H 	0.34052 0.15216 0.52231 0.04100
H 	H 	0.40037 0.26110 0.43404 0.04700
H 	H 	0.49041 0.30748 0.43649 0.03500
H 	H 	0.48265 0.17992 0.46076 0.03200
C 	C 	0.51060 0.23585 0.95456 -0.08300
C 	C 	0.49160 0.26330 0.95417 0.01500
C 	C 	0.44052 0.23982 0.94833 -0.06400
C 	C 	0.40784 0.18866 0.94249 0.02700
C 	C 	0.42654 0.16101 0.94042 -0.06300
C 	C 	0.47769 0.18448 0.94648 0.01900
C 	C 	0.35459 0.16448 0.94240 0.00200
C 	C 	0.32637 0.16981 0.90499 -0.03700
H 	H 	0.51646 0.30293 0.96016 0.03000
H 	H 	0.42643 0.26148 0.94991 0.04600
H 	H 	0.49173 0.16278 0.94570 0.03800
H 	H 	0.34294 0.18980 0.87454 0.04000
C 	C 	0.91337 0.08352 0.46738 -0.04200
C 	C 	0.99880 0.95530 0.45034 -0.07100
C 	C 	0.85035 0.09049 0.42064 0.00700
C 	C 	0.82504 0.09195 0.45911 -0.04200
C 	C 	0.94807 0.99735 0.43884 0.02800
C 	C 	0.92787 0.10007 0.95716 -0.05300
C 	C 	0.90911 0.09976 0.00239 0.01700
C 	C 	0.83709 0.10062 0.97280 -0.04500
H 	H 	0.77848 0.10679 0.94820 0.03700
H 	H 	0.92325 0.11686 0.92658 0.04100
C 	C 	0.81191 0.12175 0.97599 -0.04500
C 	C 	0.88122 0.12053 0.00758 0.00900
H 	H 	0.71225 0.10765 0.41001 0.04600
H 	H 	0.92527 0.11489 0.49613 0.03900
C 	C 	0.85378 0.11386 0.37861 -0.04100
H 	H 	0.87331 0.11301 0.34875 0.04000
C 	C 	0.80415 0.11731 0.45614 -0.03700
H 	H 	0.78541 0.11889 0.48650 0.03600
C 	C 	0.89929 0.16097 0.04647 -0.04000
H 	H 	0.87185 0.97164 0.36406 0.03700
C 	C 	0.95351 0.97996 0.98210 -0.08300
C 	C 	0.97515 0.95552 0.97419 0.03700
H 	H 	0.91526 0.95966 0.98743 0.05000
C 	C 	0.92257 0.94853 0.44585 -0.07400
C 	C 	0.94794 0.92751 0.45168 0.02900
H 	H 	0.88334 0.92721 0.44737 0.05000
Cu	Cu	0.65492 0.26762 0.99690 0.92800
Cu	Cu	0.70214 0.26921 0.89354 0.87200
Cu	Cu	0.69034 0.34642 0.93022 0.89800
Cu	Cu	0.65484 0.35923 0.02571 0.89600
C 	C 	0.66323 0.30473 0.10230 0.30200
O 	O 	0.58209 0.23954 0.98920 -0.35300
C 	C 	0.67908 0.31194 0.81944 0.30600
O 	O 	0.69629 0.34404 0.00221 -0.63700
O 	O 	0.65456 0.27400 0.92343 -0.64200
O 	O 	0.68471 0.23138 0.99925 -0.36800
O 	O 	0.74433 0.28166 0.95524 -0.43900
O 	O 	0.64153 0.32446 0.08556 -0.37500
O 	O 	0.72858 0.41704 0.94192 -0.38100
C 	C 	0.72227 0.44378 0.97498 0.28600
C 	C 	0.56466 0.26098 0.96715 0.28500
O 	O 	0.59534 0.30679 0.96191 -0.39100
O 	O 	0.68637 0.42349 0.00230 -0.38700
O 	O 	0.66568 0.27419 0.07047 -0.34400
C 	C 	0.72813 0.24962 0.98612 0.27900
O 	O 	0.69605 0.34940 0.85702 -0.38600
O 	O 	0.67597 0.27294 0.82853 -0.40400
H 	H 	0.73083 0.36458 0.02162 0.16600
H 	H 	0.62132 0.25465 0.90114 0.18300
Cu	Cu	0.72198 0.33233 0.42671 0.93000
Cu	Cu	0.71877 0.28603 0.53076 0.87300
Cu	Cu	0.64391 0.30233 0.49499 0.89800
Cu	Cu	0.63283 0.33843 0.39937 0.89500
C 	C 	0.68450 0.32518 0.32151 0.30200
O 	O 	0.75434 0.40513 0.43356 -0.35100
C 	C 	0.67913 0.31288 0.60559 0.30600
O 	O 	0.64518 0.29535 0.42275 -0.64100
O 	O 	0.71664 0.33438 0.50056 -0.64100
O 	O 	0.75497 0.29900 0.42379 -0.36600
O 	O 	0.70292 0.24250 0.46929 -0.44000
O 	O 	0.66663 0.34867 0.33865 -0.37500
O 	O 	0.57271 0.26757 0.48432 -0.37900
C 	C 	0.54685 0.27473 0.45074 0.29000
C 	C 	0.73495 0.42508 0.45537 0.28400
O 	O 	0.68873 0.39707 0.46195 -0.38800
O 	O 	0.56884 0.31086 0.42443 -0.39200
O 	O 	0.71391 0.32059 0.35302 -0.34800
C 	C 	0.73464 0.25617 0.43775 0.28900
O 	O 	0.64133 0.29748 0.56843 -0.38500
O 	O 	0.71752 0.31417 0.59580 -0.40400
H 	H 	0.62282 0.26116 0.40359 0.16400
H 	H 	0.73769 0.36746 0.52241 0.18300
C 	C 	0.71274 0.35867 0.74908 -0.04000
C 	C 	0.67329 0.31793 0.76555 -0.08900
C 	C 	0.63143 0.28016 0.72895 0.12300
C 	C 	0.63191 0.28067 0.67623 -0.04000
C 	C 	0.67374 0.31888 0.65970 -0.08800
C 	C 	0.71301 0.35941 0.69636 0.12300
Br	Br	0.76695 0.41624 0.67514 -0.25800
H 	H 	0.74424 0.38879 0.77716 0.06300
H 	H 	0.60070 0.25025 0.64815 0.06400
Br	Br	0.57315 0.22793 0.75025 -0.25700
C 	C 	0.64198 0.27357 0.23462 -0.04100
C 	C 	0.68325 0.31678 0.26588 -0.08300
C 	C 	0.72034 0.35392 0.24305 0.12800
C 	C 	0.71471 0.34844 0.18925 -0.04200
C 	C 	0.67227 0.30624 0.15797 -0.08300
C 	C 	0.63623 0.26817 0.18081 0.12700
Br	Br	0.57773 0.20964 0.13921 -0.23200
H 	H 	0.61350 0.24483 0.25212 0.05300
H 	H 	0.74263 0.37768 0.17177 0.05200
Br	Br	0.77789 0.41324 0.28472 -0.23900
C 	C 	0.92136 0.87630 0.45906 -0.00300
C 	C 	0.93165 0.86591 0.50654 -0.03600
C 	C 	0.91058 0.81747 0.51194 -0.04200
C 	C 	0.87920 0.77904 0.46983 0.00800
C 	C 	0.86777 0.78936 0.42278 -0.04200
C 	C 	0.88870 0.83780 0.41746 -0.03600
C 	C 	0.86016 0.72830 0.47425 0.00700
C 	C 	0.89333 0.71658 0.48572 -0.04100
C 	C 	0.87537 0.66812 0.48736 -0.03600
C 	C 	0.82408 0.63091 0.47730 0.00100
C 	C 	0.79090 0.64276 0.46671 -0.03600
C 	C 	0.80886 0.69125 0.46531 -0.04100
C 	C 	0.80514 0.57926 0.47532 0.02600
C 	C 	0.77280 0.55143 0.50799 -0.06200
C 	C 	0.75150 0.50145 0.50302 0.01200
C 	C 	0.76240 0.47883 0.46534 -0.08200
C 	C 	0.79641 0.50720 0.43415 0.01200
C 	C 	0.81754 0.55711 0.43903 -0.06100
H 	H 	0.95669 0.89543 0.53892 0.03800
H 	H 	0.91923 0.80986 0.54857 0.04000
H 	H 	0.84360 0.75997 0.39003 0.04000
H 	H 	0.88059 0.84551 0.38066 0.03800
H 	H 	0.93300 0.74488 0.49259 0.04000
H 	H 	0.90127 0.65940 0.49583 0.04100
H 	H 	0.75125 0.61428 0.45874 0.03900
H 	H 	0.78296 0.69996 0.45675 0.04000
H 	H 	0.76354 0.56835 0.53662 0.04800
H 	H 	0.72594 0.48018 0.52788 0.03700
H 	H 	0.80514 0.49027 0.40488 0.05300
H 	H 	0.84253 0.57829 0.41368 0.05000
C 	C 	0.80818 0.14131 0.41452 -0.00200
C 	C 	0.83275 0.13916 0.37555 -0.03600
C 	C 	0.78799 0.16991 0.41275 0.02700
C 	C 	0.81996 0.22079 0.41520 -0.06700
C 	C 	0.80194 0.24880 0.42034 0.01400
C 	C 	0.75186 0.22619 0.42342 -0.09400
C 	C 	0.71941 0.17499 0.41814 0.01500
C 	C 	0.73738 0.14700 0.41276 -0.06800
H 	H 	0.83586 0.15737 0.34316 0.04000
H 	H 	0.85905 0.23881 0.41496 0.04700
H 	H 	0.82736 0.28824 0.42415 0.03500
H 	H 	0.68050 0.15700 0.41949 0.03000
C 	C 	0.94628 0.90246 0.97371 -0.01200
C 	C 	0.93626 0.87039 0.92886 -0.03300
C 	C 	0.91135 0.82042 0.92921 -0.04300
C 	C 	0.89619 0.80213 0.97439 0.00400
C 	C 	0.90546 0.83407 0.01900 -0.03800
C 	C 	0.93043 0.88406 0.01866 -0.02800
C 	C 	0.87154 0.74974 0.97527 0.00200
C 	C 	0.82536 0.71424 0.94343 -0.04100
C 	C 	0.80239 0.66452 0.94362 -0.03600
C 	C 	0.82543 0.64992 0.97566 -0.00600
C 	C 	0.87156 0.68542 0.00758 -0.03100
C 	C 	0.89453 0.73514 0.00738 -0.03600
C 	C 	0.80101 0.59750 0.97612 0.02300
C 	C 	0.79239 0.56603 0.93143 -0.06500
C 	C 	0.76755 0.51598 0.93127 0.01600
C 	C 	0.75106 0.49694 0.97587 -0.09100
C 	C 	0.76060 0.52870 0.02087 0.01900
C 	C 	0.78542 0.57873 0.02095 -0.06100
H 	H 	0.94820 0.88427 0.89392 0.03700
H 	H 	0.90435 0.79602 0.89460 0.04000
H 	H 	0.89362 0.82020 0.05397 0.04000
H 	H 	0.93806 0.90858 0.05348 0.03700
H 	H 	0.80728 0.72519 0.91864 0.03900
H 	H 	0.76664 0.63735 0.91908 0.03900
H 	H 	0.88965 0.67446 0.03234 0.03900
H 	H 	0.93032 0.76230 0.03188 0.04000
H 	H 	0.80458 0.58030 0.89673 0.04900
H 	H 	0.76030 0.49192 0.89622 0.04200
H 	H 	0.74862 0.51461 0.05570 0.02900
H 	H 	0.79204 0.60281 0.05567 0.04700
C 	C 	0.75602 0.23009 0.00101 -0.07500
C 	C 	0.73121 0.18283 0.01286 0.00700
C 	C 	0.75621 0.16171 0.01963 -0.05900
C 	C 	0.80619 0.18758 0.01463 0.01900
C 	C 	0.83172 0.23576 0.00568 -0.05200
C 	C 	0.80683 0.25700 0.99911 -0.00800
C 	C 	0.83051 0.16286 0.01416 0.00800
C 	C 	0.87400 0.18203 0.04978 -0.03900
H 	H 	0.69217 0.16179 0.01500 0.04300
H 	H 	0.73638 0.12472 0.02726 0.04700
H 	H 	0.87042 0.25618 0.00215 0.04300
H 	H 	0.82676 0.29390 0.99123 0.03400
H 	H 	0.88853 0.21362 0.07952 0.04100
H 	H 	0.93328 0.17651 0.07358 0.04000
