data_crystal

_cell_length_a 27.61026
_cell_length_b 28.37052
_cell_length_c 33.68617
_cell_angle_alpha 95.53228
_cell_angle_beta  95.51932
_cell_angle_gamma 125.67158

_symmetry_space_group_name_	'P 1'
_symmetry_space_group_name_H-M	'P 1'

loop_
_symmetry_equiv_pos_as_xyz
  x,y,z

loop_
_atom_site_label
_atom_site_type_symbol
_atom_site_fract_x
_atom_site_fract_y
_atom_site_fract_z
_atom_site_charge
C 	C 	0.96786 0.02910 0.99543 0.05200
C 	C 	0.02875 0.06042 0.99100 -0.08900
C 	C 	0.05445 0.03044 0.98508 0.05400
C 	C 	0.01942 0.96942 0.98357 -0.09100
C 	C 	0.95879 0.93815 0.98808 0.05600
C 	C 	0.93291 0.96792 0.99401 -0.08800
H 	H 	0.05589 0.10776 0.99215 0.05500
H 	H 	0.03945 0.94630 0.97912 0.05600
H 	H 	0.88583 0.94364 0.99743 0.05500
C 	C 	0.93450 0.99298 0.44965 0.04900
C 	C 	0.99726 0.02711 0.45072 -0.08000
C 	C 	0.02762 0.00138 0.45390 0.04400
C 	C 	0.99533 0.94142 0.45577 -0.07900
C 	C 	0.93263 0.90694 0.45466 0.04800
C 	C 	0.90199 0.93268 0.45162 -0.08400
H 	H 	0.02246 0.07372 0.44946 0.05300
H 	H 	0.01901 0.92159 0.45824 0.05300
H 	H 	0.85348 0.90618 0.45099 0.05500
Cu	Cu	0.64885 0.25801 0.00513 0.92800
Cu	Cu	0.69935 0.25495 0.92108 0.87100
Cu	Cu	0.68558 0.34881 0.94961 0.89700
Cu	Cu	0.64444 0.36571 0.02561 0.89500
C 	C 	0.66275 0.30707 0.08773 0.25800
O 	O 	0.55932 0.22120 0.00125 -0.36000
C 	C 	0.67032 0.30440 0.86242 0.26100
O 	O 	0.69604 0.34934 0.00670 -0.63800
O 	O 	0.64373 0.26200 0.94659 -0.64100
O 	O 	0.68785 0.21694 0.00707 -0.37000
O 	O 	0.75518 0.27458 0.96844 -0.44300
O 	O 	0.63320 0.32754 0.07406 -0.37600
O 	O 	0.72952 0.43371 0.95704 -0.38200
C 	C 	0.72116 0.46521 0.98298 0.30500
C 	C 	0.53514 0.24413 0.98363 0.29900
O 	O 	0.57019 0.29839 0.97743 -0.39400
O 	O 	0.67753 0.44018 0.00440 -0.39300
O 	O 	0.66593 0.26991 0.06336 -0.35000
C 	C 	0.73886 0.23811 0.99396 0.30300
O 	O 	0.69065 0.35008 0.89146 -0.37900
O 	O 	0.66250 0.25626 0.87080 -0.41200
H 	H 	0.73877 0.37593 0.02125 0.16400
H 	H 	0.60204 0.23727 0.93033 0.17200
Cu	Cu	0.73415 0.33711 0.44833 0.92700
Cu	Cu	0.73738 0.29023 0.53341 0.87100
Cu	Cu	0.63992 0.30060 0.50309 0.89700
Cu	Cu	0.62144 0.33766 0.42608 0.89500
C 	C 	0.68904 0.32794 0.36504 0.26100
O 	O 	0.77016 0.42420 0.45136 -0.36000
C 	C 	0.68550 0.31851 0.59086 0.26100
O 	O 	0.64017 0.28943 0.44608 -0.63900
O 	O 	0.72943 0.34310 0.50674 -0.64000
O 	O 	0.77583 0.29809 0.44736 -0.37100
O 	O 	0.71586 0.23446 0.48671 -0.44400
O 	O 	0.66338 0.35215 0.37859 -0.37700
O 	O 	0.55242 0.25559 0.49521 -0.38200
C 	C 	0.51889 0.26047 0.46771 0.30800
C 	C 	0.74428 0.44647 0.46732 0.30000
O 	O 	0.68905 0.41085 0.47416 -0.39400
O 	O 	0.54347 0.30268 0.44601 -0.39500
O 	O 	0.72207 0.31953 0.39018 -0.35200
C 	C 	0.75308 0.24869 0.46117 0.30700
O 	O 	0.63852 0.29757 0.56152 -0.37800
O 	O 	0.73557 0.32710 0.58292 -0.41200
H 	H 	0.61376 0.24765 0.43193 0.16500
H 	H 	0.75399 0.38388 0.52261 0.17400
C 	C 	0.65727 0.27566 0.75735 0.07400
C 	C 	0.62673 0.24971 0.71692 -0.08300
C 	C 	0.65909 0.27717 0.68658 0.00700
C 	C 	0.71478 0.33232 0.69599 0.07400
C 	C 	0.74095 0.36231 0.73639 -0.08300
C 	C 	0.71330 0.33055 0.76678 0.00700
N 	N 	0.62912 0.26477 0.78931 -0.15200
C 	C 	0.66770 0.31167 0.81988 -0.00100
C 	C 	0.71933 0.35479 0.80610 -0.04400
N 	N 	0.72535 0.35947 0.66393 -0.15200
C 	C 	0.67755 0.32109 0.63329 -0.00000
C 	C 	0.63396 0.27053 0.64715 -0.04400
H 	H 	0.57938 0.21181 0.70956 0.05200
H 	H 	0.77911 0.40870 0.74371 0.05200
H 	H 	0.76212 0.39053 0.82535 0.04400
H 	H 	0.59800 0.22849 0.62795 0.04400
H 	H 	0.59305 0.22285 0.79301 0.08400
H 	H 	0.76813 0.39514 0.66026 0.08400
C 	C 	0.67457 0.34369 0.26421 0.07800
C 	C 	0.68886 0.37430 0.23186 -0.08400
C 	C 	0.66799 0.34061 0.19263 0.01400
C 	C 	0.64338 0.28115 0.18627 0.07700
C 	C 	0.63710 0.25233 0.21921 -0.08100
C 	C 	0.64815 0.28379 0.25796 0.00900
N 	N 	0.70387 0.36916 0.30275 -0.15200
C 	C 	0.69440 0.32557 0.32211 0.00900
C 	C 	0.66222 0.27215 0.29452 -0.04700
N 	N 	0.65003 0.26439 0.14970 -0.15000
C 	C 	0.67688 0.31256 0.13185 0.00600
C 	C 	0.69141 0.36142 0.15877 -0.04900
H 	H 	0.71742 0.42214 0.23711 0.05400
H 	H 	0.62683 0.20884 0.21510 0.05500
H 	H 	0.63774 0.22879 0.30256 0.04300
H 	H 	0.70223 0.40206 0.15044 0.04000
H 	H 	0.71720 0.41046 0.31698 0.09100
H 	H 	0.62433 0.22067 0.13419 0.09400
C 	C 	0.80987 0.61747 0.46447 -0.01000
C 	C 	0.81973 0.65559 0.49924 -0.02800
C 	C 	0.83960 0.71316 0.49697 -0.04700
C 	C 	0.84960 0.73282 0.45990 0.02100
C 	C 	0.83879 0.69435 0.42503 -0.04700
C 	C 	0.81897 0.63684 0.42730 -0.02800
C 	C 	0.87725 0.79411 0.45853 -0.01300
C 	C 	0.90040 0.84522 0.45676 -0.02800
C 	C 	0.78784 0.55761 0.46646 0.04500
C 	C 	0.76940 0.50737 0.46745 -0.11000
H 	H 	0.81223 0.64077 0.52801 0.03800
H 	H 	0.84820 0.74271 0.52413 0.04300
H 	H 	0.84677 0.70929 0.39632 0.04300
H 	H 	0.81089 0.60748 0.40021 0.03900
C 	C 	0.81511 0.14899 0.44907 -0.01300
C 	C 	0.82681 0.13230 0.41277 -0.02700
C 	C 	0.84704 0.09700 0.41182 -0.04800
C 	C 	0.85555 0.07822 0.44717 0.02100
C 	C 	0.84296 0.09424 0.48325 -0.04900
C 	C 	0.82281 0.12948 0.48420 -0.02800
C 	C 	0.88214 0.04698 0.44739 -0.01300
C 	C 	0.90438 0.02083 0.44808 -0.02800
C 	C 	0.79400 0.18512 0.45040 0.04700
C 	C 	0.77618 0.21510 0.45390 -0.12100
H 	H 	0.82058 0.14682 0.38541 0.04000
H 	H 	0.85692 0.08503 0.38383 0.04400
H 	H 	0.84969 0.08019 0.51072 0.04200
H 	H 	0.81351 0.14189 0.51231 0.03200
C 	C 	0.21091 0.09938 0.46011 0.02100
C 	C 	0.24657 0.16111 0.46522 -0.04700
C 	C 	0.30933 0.19388 0.46739 -0.02700
C 	C 	0.33660 0.16501 0.46445 -0.01000
C 	C 	0.30094 0.10332 0.45948 -0.02800
C 	C 	0.23822 0.07056 0.45732 -0.04800
C 	C 	0.40095 0.19855 0.46576 0.04700
C 	C 	0.45484 0.22660 0.46685 -0.10800
C 	C 	0.14635 0.06559 0.45790 -0.01400
C 	C 	0.09224 0.03671 0.45599 -0.02700
H 	H 	0.22574 0.18367 0.46746 0.04300
H 	H 	0.33663 0.24158 0.47119 0.03900
H 	H 	0.32174 0.08073 0.45714 0.03700
H 	H 	0.21090 0.02285 0.45341 0.04200
C 	C 	0.80759 0.64061 0.98334 -0.01400
C 	C 	0.84264 0.68127 0.01968 -0.02500
C 	C 	0.87069 0.74139 0.02081 -0.04400
C 	C 	0.86378 0.76111 0.98562 0.01700
C 	C 	0.82839 0.72042 0.94933 -0.04700
C 	C 	0.80031 0.66024 0.94820 -0.02700
C 	C 	0.89621 0.82334 0.98616 -0.01100
C 	C 	0.92364 0.87559 0.98704 -0.03200
C 	C 	0.77738 0.57860 0.98255 0.04700
C 	C 	0.75235 0.52680 0.98235 -0.10900
H 	H 	0.84815 0.66632 0.04701 0.03700
H 	H 	0.89823 0.77267 0.04891 0.04300
H 	H 	0.82309 0.73541 0.92196 0.04300
H 	H 	0.77297 0.62898 0.92006 0.04000
C 	C 	0.82988 0.16663 0.01049 -0.01200
C 	C 	0.79928 0.10786 0.01563 -0.02800
C 	C 	0.82884 0.08124 0.01500 -0.04800
C 	C 	0.88911 0.11329 0.00925 0.02200
C 	C 	0.92042 0.17271 0.00565 -0.04800
C 	C 	0.89086 0.19933 0.00628 -0.02800
C 	C 	0.91748 0.08419 0.00452 -0.01300
C 	C 	0.94084 0.05943 0.00060 -0.02500
C 	C 	0.79720 0.19143 0.00542 0.04600
C 	C 	0.77046 0.21282 0.00110 -0.11700
H 	H 	0.75216 0.08232 0.01896 0.03800
H 	H 	0.80446 0.03536 0.01802 0.04300
H 	H 	0.96713 0.19786 0.00141 0.04300
H 	H 	0.91485 0.24482 0.00235 0.03700
C 	C 	0.23141 0.11178 0.97528 0.02000
C 	C 	0.27001 0.17047 0.97003 -0.04700
C 	C 	0.33109 0.19624 0.96903 -0.02800
C 	C 	0.35367 0.16334 0.97328 -0.01100
C 	C 	0.31467 0.10425 0.97754 -0.02800
C 	C 	0.25369 0.07853 0.97853 -0.04700
C 	C 	0.41757 0.19139 0.97642 0.04600
C 	C 	0.47108 0.21484 0.97905 -0.11200
C 	C 	0.16940 0.08593 0.97850 -0.01200
C 	C 	0.11714 0.06207 0.98140 -0.03100
H 	H 	0.25301 0.19635 0.96730 0.04200
H 	H 	0.36102 0.24198 0.96571 0.03700
H 	H 	0.33183 0.07860 0.98088 0.03800
H 	H 	0.22398 0.03303 0.98242 0.04200
