data_crystal

_cell_length_a 22.91194
_cell_length_b 23.21124
_cell_length_c 17.71147
_cell_angle_alpha 95.49067
_cell_angle_beta  95.49166
_cell_angle_gamma 125.93273

_symmetry_space_group_name_	'P 1'
_symmetry_space_group_name_H-M	'P 1'

loop_
_symmetry_equiv_pos_as_xyz
  x,y,z

loop_
_atom_site_label
_atom_site_type_symbol
_atom_site_fract_x
_atom_site_fract_y
_atom_site_fract_z
_atom_site_charge
N 	N 	0.01661 0.95713 0.94851 -0.12000
C 	C 	0.06409 0.03043 0.96129 0.12400
N 	N 	0.04036 0.07062 0.98042 -0.12500
N 	N 	0.00778 0.94717 0.44201 -0.12100
C 	C 	0.04280 0.01912 0.44598 0.12800
N 	N 	0.00366 0.04471 0.43097 -0.13300
C 	C 	0.12139 0.06751 0.46222 -0.03000
C 	C 	0.14012 0.06490 0.95861 -0.03700
C 	C 	0.96885 0.03694 0.98640 0.08000
N 	N 	0.92163 0.96348 0.97378 -0.13000
C 	C 	0.94552 0.92364 0.95471 0.11400
C 	C 	0.92927 0.99832 0.41257 0.13200
N 	N 	0.89393 0.92599 0.40918 -0.13600
C 	C 	0.93347 0.90039 0.42363 0.10600
Cu	Cu	0.64955 0.24843 0.02417 0.93100
Cu	Cu	0.75542 0.28770 0.89874 0.85300
Cu	Cu	0.67254 0.34092 0.90296 0.88400
Cu	Cu	0.61944 0.36547 0.04082 0.90100
C 	C 	0.64277 0.30593 0.17133 0.19700
O 	O 	0.53781 0.19015 0.00003 -0.34300
C 	C 	0.69934 0.30161 0.75416 0.19200
O 	O 	0.69195 0.35631 0.01508 -0.63000
O 	O 	0.65637 0.24851 0.91420 -0.65300
O 	O 	0.70681 0.21036 0.04718 -0.35900
O 	O 	0.80099 0.30087 0.00032 -0.43300
O 	O 	0.60077 0.31952 0.13393 -0.35200
O 	O 	0.69553 0.43488 0.89400 -0.38200
C 	C 	0.69840 0.48035 0.94810 0.26800
C 	C 	0.50437 0.21184 0.96058 0.26600
O 	O 	0.54305 0.27767 0.94575 -0.40800
O 	O 	0.66031 0.45774 0.00404 -0.37100
O 	O 	0.66008 0.26727 0.13452 -0.32100
C 	C 	0.77429 0.24508 0.03474 0.29500
O 	O 	0.66579 0.32379 0.79029 -0.34200
O 	O 	0.72784 0.27348 0.78956 -0.39700
H 	H 	0.74320 0.39647 0.04005 0.16200
H 	H 	0.61542 0.20572 0.87601 0.17600
Cu	Cu	0.72876 0.32879 0.39658 0.92600
Cu	Cu	0.72699 0.25205 0.54205 0.86400
Cu	Cu	0.63953 0.30440 0.52455 0.89300
Cu	Cu	0.60489 0.34995 0.38533 0.89500
C 	C 	0.65698 0.32055 0.24856 0.19700
O 	O 	0.78356 0.43812 0.40680 -0.36200
C 	C 	0.69922 0.30150 0.67863 0.19100
O 	O 	0.62057 0.28302 0.41316 -0.63800
O 	O 	0.73902 0.33566 0.51012 -0.64000
O 	O 	0.76757 0.27193 0.37540 -0.36700
O 	O 	0.69178 0.19042 0.44492 -0.44500
O 	O 	0.63938 0.35944 0.28455 -0.35300
O 	O 	0.53939 0.26606 0.53265 -0.38200
C 	C 	0.49540 0.27165 0.48528 0.29200
C 	C 	0.76288 0.47213 0.44623 0.30200
O 	O 	0.70031 0.43436 0.46987 -0.39800
O 	O 	0.52108 0.31900 0.43860 -0.39300
O 	O 	0.69932 0.30723 0.28627 -0.32200
C 	C 	0.73616 0.20835 0.39561 0.29300
O 	O 	0.66046 0.31772 0.63840 -0.34000
O 	O 	0.74396 0.29233 0.64757 -0.39300
H 	H 	0.58111 0.23163 0.38968 0.16500
H 	H 	0.77999 0.38313 0.54208 0.17500
C 	C 	0.84532 0.68058 0.43092 -0.00200
C 	C 	0.89821 0.71905 0.38570 -0.03800
C 	C 	0.92365 0.78949 0.37934 -0.02500
C 	C 	0.79571 0.54662 0.44246 -0.11100
C 	C 	0.84149 0.78252 0.46132 -0.02500
C 	C 	0.81605 0.71194 0.46764 -0.03800
C 	C 	0.81942 0.60805 0.43776 0.04300
C 	C 	0.89651 0.82217 0.41839 -0.01200
H 	H 	0.92020 0.69475 0.35610 0.04200
H 	H 	0.96579 0.81938 0.34560 0.04300
H 	H 	0.82034 0.80718 0.49199 0.04300
H 	H 	0.77432 0.68209 0.50182 0.04200
C 	C 	0.82255 0.08816 0.37429 0.03600
C 	C 	0.74924 0.05307 0.38187 -0.08300
C 	C 	0.71910 0.09092 0.38274 0.01900
C 	C 	0.88834 0.02628 0.39731 -0.04500
C 	C 	0.83441 0.19814 0.36407 0.01600
C 	C 	0.86433 0.16005 0.36294 -0.07100
C 	C 	0.85713 0.05314 0.38586 -0.00600
C 	C 	0.76245 0.16460 0.37701 -0.10000
H 	H 	0.71625 0.99723 0.38961 0.05900
H 	H 	0.66295 0.06375 0.39083 0.02700
H 	H 	0.86834 0.25456 0.35856 0.03300
H 	H 	0.92083 0.18731 0.35608 0.04900
C 	C 	0.26633 0.15139 0.48816 0.03600
C 	C 	0.30591 0.22300 0.47655 -0.06700
C 	C 	0.38156 0.26370 0.47937 0.01900
C 	C 	0.37883 0.16224 0.50893 0.01600
C 	C 	0.30315 0.12164 0.50611 -0.06700
C 	C 	0.18748 0.10646 0.47486 -0.00300
C 	C 	0.41811 0.23281 0.49347 -0.08800
H 	H 	0.27784 0.24653 0.46333 0.05300
H 	H 	0.41146 0.31868 0.46904 0.03600
H 	H 	0.40636 0.13787 0.52021 0.02800
H 	H 	0.27284 0.06636 0.51559 0.05000
C 	C 	0.81358 0.70410 0.93416 0.03300
C 	C 	0.83794 0.66523 0.90420 -0.06800
C 	C 	0.79896 0.59148 0.90637 0.01200
C 	C 	0.89709 0.84635 0.94628 -0.03400
C 	C 	0.70961 0.59475 0.96606 0.01300
C 	C 	0.74872 0.66847 0.96387 -0.06700
C 	C 	0.85821 0.78143 0.94010 -0.00800
C 	C 	0.73537 0.55615 0.93876 -0.08300
H 	H 	0.88803 0.69249 0.88097 0.04600
H 	H 	0.81939 0.56240 0.88499 0.02500
H 	H 	0.65984 0.56790 0.98981 0.03100
H 	H 	0.72937 0.69816 0.98672 0.04800
C 	C 	0.88474 0.14719 0.03575 0.04300
C 	C 	0.81129 0.10690 0.04479 -0.07100
C 	C 	0.77622 0.13986 0.04965 0.01900
C 	C 	0.94258 0.07865 0.00512 0.00000
C 	C 	0.88943 0.25472 0.04117 0.01500
C 	C 	0.92424 0.22153 0.03603 -0.07300
C 	C 	0.91748 0.11096 0.01985 -0.02000
C 	C 	0.81437 0.21349 0.04506 -0.09800
H 	H 	0.78062 0.04954 0.04559 0.05400
H 	H 	0.71872 0.10742 0.05380 0.03800
H 	H 	0.92021 0.31194 0.03963 0.02800
H 	H 	0.98133 0.25327 0.03015 0.04900
C 	C 	0.27771 0.11664 0.95396 0.01100
C 	C 	0.31425 0.10194 0.00755 -0.04500
C 	C 	0.38696 0.12868 0.00638 0.03000
C 	C 	0.38585 0.18237 0.89568 0.01200
C 	C 	0.31311 0.15559 0.89703 -0.06200
C 	C 	0.20312 0.08984 0.95623 -0.00100
C 	C 	0.42393 0.17078 0.95169 -0.10400
H 	H 	0.28674 0.07072 0.05088 0.05100
H 	H 	0.41536 0.11912 0.04992 0.03800
H 	H 	0.41324 0.21384 0.85248 0.03400
H 	H 	0.28469 0.16590 0.85442 0.04900
