data_crystal

_cell_length_a 27.22488
_cell_length_b 28.17146
_cell_length_c 17.56538
_cell_angle_alpha 95.47211
_cell_angle_beta  95.47425
_cell_angle_gamma 125.64446

_symmetry_space_group_name_	'P 1'
_symmetry_space_group_name_H-M	'P 1'

loop_
_symmetry_equiv_pos_as_xyz
  x,y,z

loop_
_atom_site_label
_atom_site_type_symbol
_atom_site_fract_x
_atom_site_fract_y
_atom_site_fract_z
_atom_site_charge
C 	C 	0.03213 0.00896 0.41035 0.05000
H 	H 	0.02243 0.07795 0.39190 0.05100
H 	H 	0.02770 0.93176 0.42625 0.05500
C 	C 	0.01433 0.96334 0.96473 -0.05200
C 	C 	0.03094 0.05788 0.99721 0.02400
H 	H 	0.03166 0.93829 0.94835 0.04800
H 	H 	0.06098 0.10604 0.00548 0.00700
C 	C 	0.05314 0.02541 0.97578 0.00700
C 	C 	0.09819 0.04751 0.42213 -0.02900
C 	C 	0.00150 0.94889 0.41426 -0.09100
C 	C 	0.11595 0.05543 0.96589 -0.00300
C 	C 	0.15350 0.07805 0.43175 -0.01300
C 	C 	0.99854 0.03124 0.39469 -0.07400
C 	C 	0.96972 0.02799 0.00747 -0.06300
C 	C 	0.93410 0.99341 0.38345 0.03900
Cu	Cu	0.65615 0.26223 0.01762 0.91600
Cu	Cu	0.74344 0.28744 0.89069 0.86600
Cu	Cu	0.68191 0.34086 0.89650 0.89700
Cu	Cu	0.63212 0.35943 0.03111 0.88200
C 	C 	0.65381 0.31355 0.16457 0.19600
O 	O 	0.56298 0.21533 0.99346 -0.34500
C 	C 	0.70137 0.30542 0.74615 0.19400
O 	O 	0.69375 0.35145 0.00871 -0.65600
O 	O 	0.66224 0.26206 0.90681 -0.63300
O 	O 	0.70178 0.22877 0.04205 -0.36800
O 	O 	0.78237 0.30027 0.99386 -0.40800
O 	O 	0.61821 0.32480 0.12753 -0.36300
O 	O 	0.70802 0.42079 0.89023 -0.37800
C 	C 	0.70401 0.45516 0.94181 0.31100
C 	C 	0.53579 0.23281 0.95125 0.30400
O 	O 	0.56849 0.28658 0.93587 -0.39100
O 	O 	0.66358 0.43288 0.98839 -0.38000
O 	O 	0.66443 0.27807 0.12826 -0.32600
C 	C 	0.75881 0.25638 0.03227 0.28300
O 	O 	0.67634 0.32709 0.78336 -0.33900
O 	O 	0.72186 0.27888 0.78082 -0.38800
H 	H 	0.73619 0.38371 0.03623 0.15600
H 	H 	0.62678 0.22815 0.86822 0.18000
Cu	Cu	0.73116 0.33562 0.38934 0.92700
Cu	Cu	0.72403 0.26590 0.53009 0.86600
Cu	Cu	0.65375 0.31168 0.51636 0.89300
Cu	Cu	0.62706 0.35413 0.37891 0.89400
C 	C 	0.66997 0.32942 0.24192 0.19400
O 	O 	0.77762 0.42570 0.40402 -0.36200
C 	C 	0.70129 0.30541 0.67012 0.19400
O 	O 	0.63984 0.29795 0.40409 -0.63700
O 	O 	0.73747 0.33744 0.50301 -0.64000
O 	O 	0.76321 0.28847 0.36564 -0.36800
O 	O 	0.69593 0.21888 0.42970 -0.44700
O 	O 	0.65697 0.36302 0.27817 -0.35800
O 	O 	0.56941 0.28015 0.52337 -0.38100
C 	C 	0.53308 0.28358 0.47261 0.30800
C 	C 	0.75930 0.45276 0.44406 0.30300
O 	O 	0.70631 0.42096 0.46651 -0.39700
O 	O 	0.55568 0.32619 0.43134 -0.39500
O 	O 	0.70845 0.32117 0.27842 -0.32300
C 	C 	0.73461 0.23487 0.38183 0.31500
O 	O 	0.67066 0.32121 0.63049 -0.33900
O 	O 	0.73678 0.29501 0.63792 -0.38900
H 	H 	0.60709 0.25622 0.37844 0.16300
H 	H 	0.77163 0.37526 0.53742 0.17800
C 	C 	0.82659 0.62408 0.43165 -0.01100
C 	C 	0.84678 0.66629 0.49911 -0.02800
C 	C 	0.84044 0.69561 0.35234 -0.04900
C 	C 	0.82315 0.63879 0.35826 -0.03000
C 	C 	0.80471 0.56427 0.43761 0.04500
C 	C 	0.78619 0.51400 0.44140 -0.11300
H 	H 	0.84890 0.65507 0.55605 0.03900
H 	H 	0.80690 0.60619 0.30584 0.03400
C 	C 	0.84285 0.06738 0.35502 0.02200
C 	C 	0.80550 0.06260 0.40798 -0.05000
C 	C 	0.78175 0.09519 0.40689 -0.02800
C 	C 	0.79521 0.13286 0.35287 -0.01500
C 	C 	0.83072 0.13607 0.29791 -0.02700
C 	C 	0.85446 0.10331 0.29891 -0.04900
C 	C 	0.77561 0.17073 0.35756 0.04900
C 	C 	0.75752 0.20082 0.36569 -0.12500
C 	C 	0.87427 0.04045 0.36366 -0.01600
C 	C 	0.90024 0.01766 0.37161 -0.02200
H 	H 	0.79630 0.03497 0.45146 0.04300
H 	H 	0.75414 0.09228 0.44935 0.03200
H 	H 	0.84114 0.16488 0.25574 0.04100
H 	H 	0.88316 0.10714 0.25757 0.04500
C 	C 	0.21940 0.11373 0.44141 0.02100
C 	C 	0.25634 0.15688 0.50884 -0.04700
C 	C 	0.32044 0.19036 0.51889 -0.02700
C 	C 	0.34770 0.18070 0.46156 -0.01200
C 	C 	0.31069 0.13725 0.39448 -0.02900
C 	C 	0.24671 0.10385 0.38443 -0.04900
C 	C 	0.41350 0.21768 0.46894 0.04700
C 	C 	0.46838 0.24765 0.47272 -0.11100
H 	H 	0.23548 0.16447 0.55337 0.04400
H 	H 	0.34880 0.22406 0.57077 0.04100
H 	H 	0.33149 0.12973 0.34980 0.03400
H 	H 	0.21839 0.07031 0.33239 0.04000
C 	C 	0.78987 0.63010 0.93192 -0.01000
C 	C 	0.75870 0.65502 0.94503 -0.02400
C 	C 	0.85131 0.66639 0.92256 -0.02500
C 	C 	0.76033 0.56828 0.93419 0.05100
C 	C 	0.73490 0.51643 0.93627 -0.10400
H 	H 	0.71114 0.62717 0.95222 0.04300
H 	H 	0.87566 0.64743 0.91238 0.04000
C 	C 	0.90165 0.12156 0.05718 0.03000
C 	C 	0.84201 0.09224 0.07312 -0.05600
C 	C 	0.81483 0.12172 0.07752 -0.02900
C 	C 	0.84725 0.18066 0.06605 -0.01600
C 	C 	0.90822 0.21104 0.05485 -0.02900
C 	C 	0.93536 0.18156 0.05039 -0.05600
C 	C 	0.81572 0.20723 0.05569 0.04000
C 	C 	0.78991 0.23004 0.04687 -0.12100
C 	C 	0.92584 0.08868 0.04024 -0.04200
C 	C 	0.94604 0.06111 0.02608 0.00900
H 	H 	0.81597 0.04609 0.07955 0.04100
H 	H 	0.76792 0.09811 0.08713 0.03600
H 	H 	0.93374 0.25674 0.04650 0.03000
H 	H 	0.98174 0.20473 0.03887 0.03900
C 	C 	0.35232 0.15178 0.93634 -0.01000
C 	C 	0.33363 0.18868 0.94589 -0.02400
C 	C 	0.27256 0.16427 0.95113 -0.04800
C 	C 	0.22995 0.10290 0.94675 0.02900
C 	C 	0.24822 0.06580 0.93494 -0.04800
C 	C 	0.30931 0.09021 0.92977 -0.02400
C 	C 	0.16814 0.07807 0.95733 -0.02000
C 	C 	0.41644 0.17771 0.93997 0.05100
C 	C 	0.47059 0.20138 0.94340 -0.10600
H 	H 	0.36668 0.23635 0.95099 0.04000
H 	H 	0.25869 0.19317 0.95989 0.04800
H 	H 	0.21539 0.01823 0.93114 0.04600
H 	H 	0.32341 0.06142 0.92239 0.04200
C 	C 	0.93092 0.96567 0.99650 0.02300
C 	C 	0.95336 0.93342 0.97507 0.00700
H 	H 	0.88354 0.94245 0.00423 0.00700
C 	C 	0.90326 0.93295 0.38763 -0.08400
C 	C 	0.93724 0.91079 0.40308 0.05200
H 	H 	0.85345 0.90362 0.37954 0.05300
C 	C 	0.86403 0.72313 0.49318 -0.04700
C 	C 	0.86115 0.73802 0.41975 0.01900
C 	C 	0.88609 0.79853 0.41356 -0.01300
C 	C 	0.90695 0.84917 0.40831 -0.03100
H 	H 	0.88048 0.75580 0.54560 0.04400
H 	H 	0.83859 0.70690 0.29538 0.03900
C 	C 	0.78944 0.71630 0.95097 -0.04800
C 	C 	0.85140 0.75278 0.94379 0.02900
C 	C 	0.88201 0.72761 0.92847 -0.04800
C 	C 	0.88453 0.81625 0.95535 -0.02000
C 	C 	0.91443 0.86961 0.96452 -0.00300
H 	H 	0.76542 0.73544 0.96247 0.04800
H 	H 	0.92987 0.75557 0.92253 0.04600
