data_crystal

_cell_length_a 18.62232
_cell_length_b 18.78674
_cell_length_c 34.62617
_cell_angle_alpha 95.42528
_cell_angle_beta  95.42541
_cell_angle_gamma 126.44138

_symmetry_space_group_name_	'P 1'
_symmetry_space_group_name_H-M	'P 1'

loop_
_symmetry_equiv_pos_as_xyz
  x,y,z

loop_
_atom_site_label
_atom_site_type_symbol
_atom_site_fract_x
_atom_site_fract_y
_atom_site_fract_z
_atom_site_charge
C 	C 	0.90537 0.99344 0.96407 0.01800
C 	C 	0.85659 0.89982 0.96073 -0.07700
C 	C 	0.90218 0.86139 0.95832 0.03400
C 	C 	0.99616 0.91681 0.95906 -0.07100
C 	C 	0.04532 0.01062 0.96432 0.02700
C 	C 	0.99958 0.04846 0.96638 -0.05200
H 	H 	0.78401 0.85735 0.96023 0.05300
H 	H 	0.03135 0.88728 0.95688 0.05000
H 	H 	0.03750 0.12099 0.97040 0.04700
C 	C 	0.94123 0.03872 0.49975 0.07100
C 	C 	0.03368 0.09291 0.49698 -0.10800
C 	C 	0.08153 0.05675 0.49819 0.06800
C 	C 	0.03698 0.96690 0.50216 -0.11300
C 	C 	0.94472 0.91260 0.50428 0.06700
C 	C 	0.89740 0.94902 0.50405 -0.10900
H 	H 	0.06762 0.16207 0.49328 0.06100
H 	H 	0.07362 0.93865 0.50264 0.06500
H 	H 	0.82567 0.90661 0.50544 0.06300
Cu	Cu	0.75845 0.33769 0.95791 0.92900
Cu	Cu	0.75508 0.28852 0.04618 0.87300
Cu	Cu	0.61690 0.30272 0.00693 0.89900
Cu	Cu	0.57844 0.30702 0.92210 0.89900
C 	C 	0.69586 0.29328 0.87394 0.31600
O 	O 	0.79646 0.46132 0.95013 -0.35800
C 	C 	0.67148 0.34035 0.09369 0.30600
O 	O 	0.61729 0.25691 0.95454 -0.63700
O 	O 	0.74974 0.36331 0.01310 -0.64000
O 	O 	0.82822 0.28954 0.96783 -0.36400
O 	O 	0.73216 0.19795 0.00622 -0.43200
O 	O 	0.65140 0.32641 0.88011 -0.38400
O 	O 	0.48627 0.23634 0.00012 -0.37800
C 	C 	0.43103 0.22475 0.96896 0.30100
C 	C 	0.75065 0.49090 0.96052 0.28700
O 	O 	0.66519 0.43329 0.96402 -0.39800
O 	O 	0.45388 0.23357 0.93375 -0.38900
O 	O 	0.74577 0.29315 0.90356 -0.35100
C 	C 	0.79294 0.21790 0.98422 0.30000
O 	O 	0.61982 0.33615 0.06312 -0.36300
O 	O 	0.74675 0.35067 0.09012 -0.40800
H 	H 	0.58182 0.19060 0.94798 0.17800
H 	H 	0.78813 0.42791 0.02546 0.17700
Cu	Cu	0.60345 0.19743 0.50314 0.92900
Cu	Cu	0.65422 0.20179 0.41459 0.87700
Cu	Cu	0.67280 0.35517 0.46033 0.90000
Cu	Cu	0.64244 0.37724 0.54258 0.89600
C 	C 	0.64309 0.24879 0.58801 0.31100
O 	O 	0.47876 0.16214 0.50865 -0.34900
C 	C 	0.62527 0.30789 0.37262 0.31200
O 	O 	0.69582 0.33850 0.51239 -0.64200
O 	O 	0.58966 0.22060 0.44940 -0.64100
O 	O 	0.64185 0.11976 0.49121 -0.36600
O 	O 	0.74009 0.21136 0.45325 -0.43400
O 	O 	0.61981 0.30237 0.58404 -0.37300
O 	O 	0.75968 0.48430 0.47434 -0.38200
C 	C 	0.76083 0.53548 0.50369 0.30200
C 	C 	0.45587 0.21410 0.50073 0.29500
O 	O 	0.51880 0.29822 0.49850 -0.39000
O 	O 	0.70813 0.50108 0.53022 -0.39000
O 	O 	0.63745 0.19744 0.55713 -0.35600
C 	C 	0.71375 0.14952 0.47505 0.29800
O 	O 	0.66854 0.37164 0.40477 -0.38200
O 	O 	0.60099 0.22645 0.37346 -0.39700
H 	H 	0.76048 0.36736 0.52290 0.16900
H 	H 	0.52682 0.19454 0.43688 0.18200
C 	C 	0.65382 0.23000 0.62751 -0.09600
C 	C 	0.58173 0.19300 0.64849 0.14900
C 	C 	0.59815 0.19405 0.68885 -0.08600
C 	C 	0.68580 0.23076 0.70845 0.02100
C 	C 	0.75531 0.25811 0.68654 0.08800
C 	C 	0.73925 0.25833 0.64620 -0.01500
H 	H 	0.54361 0.16983 0.70535 0.07900
C 	C 	0.70661 0.25167 0.75207 0.02300
H 	H 	0.79410 0.28383 0.62981 0.05500
C 	C 	0.67934 0.18211 0.77332 -0.08600
C 	C 	0.68104 0.19645 0.81398 0.14400
C 	C 	0.71071 0.28125 0.83362 -0.09900
C 	C 	0.74452 0.35247 0.81291 -0.01100
C 	C 	0.74160 0.33791 0.77229 0.08400
H 	H 	0.65323 0.11589 0.75795 0.08200
H 	H 	0.76928 0.41838 0.82811 0.06300
Br	Br	0.87312 0.29825 0.71151 -0.21800
Br	Br	0.46042 0.14052 0.62245 -0.23200
Br	Br	0.63796 0.09821 0.84162 -0.25000
Br	Br	0.77988 0.43516 0.74445 -0.22400
C 	C 	0.62090 0.33314 0.33401 -0.10100
C 	C 	0.53797 0.28435 0.30698 0.14900
C 	C 	0.53795 0.29416 0.26738 -0.08300
C 	C 	0.62027 0.35120 0.25442 0.02100
C 	C 	0.70219 0.40635 0.28223 0.08300
C 	C 	0.70201 0.39761 0.32190 -0.01400
H 	H 	0.47442 0.25365 0.24628 0.08100
C 	C 	0.62186 0.34213 0.21172 0.02200
H 	H 	0.76577 0.43706 0.34283 0.05900
C 	C 	0.62966 0.40639 0.19096 -0.08400
C 	C 	0.64363 0.40546 0.15188 0.15200
C 	C 	0.64730 0.33806 0.13303 -0.10200
C 	C 	0.63506 0.27147 0.15325 -0.01400
C 	C 	0.62302 0.27348 0.19244 0.08300
H 	H 	0.62854 0.45916 0.20569 0.08200
H 	H 	0.63733 0.21927 0.13878 0.04500
Br	Br	0.81577 0.48929 0.26608 -0.22300
Br	Br	0.42441 0.20378 0.32357 -0.24400
Br	Br	0.66375 0.50014 0.12591 -0.23900
Br	Br	0.61258 0.18424 0.21976 -0.22900
C 	C 	0.90668 0.78797 0.53873 -0.08300
C 	C 	0.89625 0.81580 0.50387 -0.02400
C 	C 	0.84517 0.75173 0.46834 0.07400
C 	C 	0.80280 0.66047 0.46882 -0.02500
C 	C 	0.81297 0.63252 0.50372 -0.10400
C 	C 	0.86830 0.69727 0.53870 0.12600
N 	N 	0.88794 0.67350 0.57172 -0.20100
H 	H 	0.94766 0.83763 0.56565 0.05800
H 	H 	0.76102 0.61083 0.44197 0.05300
N 	N 	0.83711 0.77738 0.43370 -0.19400
H 	H 	0.92530 0.72096 0.59791 0.09200
H 	H 	0.87102 0.60950 0.57115 0.09000
H 	H 	0.87020 0.84497 0.43189 0.08900
H 	H 	0.79825 0.72928 0.40778 0.09100
C 	C 	0.84480 0.05917 0.45554 -0.08000
C 	C 	0.88756 0.07249 0.49393 -0.02600
C 	C 	0.86933 0.10707 0.52652 0.07600
C 	C 	0.80800 0.12717 0.51993 -0.02500
C 	C 	0.76553 0.11408 0.48147 -0.10400
C 	C 	0.78189 0.07706 0.44904 0.12000
N 	N 	0.73521 0.05575 0.41185 -0.20000
H 	H 	0.85761 0.03106 0.43073 0.05500
H 	H 	0.79544 0.15559 0.54473 0.05200
N 	N 	0.91114 0.12216 0.56404 -0.19400
H 	H 	0.75027 0.03185 0.38787 0.08700
H 	H 	0.68087 0.05853 0.40659 0.06400
H 	H 	0.95989 0.11164 0.56983 0.09500
H 	H 	0.89618 0.14634 0.58796 0.09600
C 	C 	0.24351 0.17149 0.52932 -0.08100
C 	C 	0.17867 0.11256 0.49538 -0.02500
C 	C 	0.20681 0.09414 0.46175 0.07600
C 	C 	0.29776 0.12733 0.46421 -0.02500
C 	C 	0.36144 0.18140 0.49907 -0.10000
C 	C 	0.33479 0.20595 0.53165 0.12900
N 	N 	0.39581 0.26085 0.56545 -0.19800
H 	H 	0.22202 0.18678 0.55480 0.05700
H 	H 	0.31904 0.11132 0.43884 0.04600
N 	N 	0.14688 0.04483 0.42713 -0.19400
H 	H 	0.37520 0.27789 0.58938 0.09600
H 	H 	0.46398 0.28708 0.56843 0.09200
H 	H 	0.08058 0.02471 0.42362 0.09100
H 	H 	0.16726 0.02880 0.40280 0.09500
C 	C 	0.82941 0.72985 0.99207 -0.08900
C 	C 	0.85276 0.76361 0.95716 -0.01400
C 	C 	0.84024 0.70669 0.92307 0.07000
C 	C 	0.81040 0.61901 0.92534 -0.02600
C 	C 	0.78899 0.58583 0.96049 -0.10400
C 	C 	0.79818 0.64160 0.99422 0.12300
N 	N 	0.77981 0.61201 0.02898 -0.20100
H 	H 	0.83897 0.77356 0.01814 0.05800
H 	H 	0.80145 0.57557 0.89932 0.05000
N 	N 	0.85524 0.73524 0.88799 -0.19300
H 	H 	0.78510 0.65304 0.05345 0.10100
H 	H 	0.76223 0.54919 0.03240 0.09500
H 	H 	0.87025 0.79711 0.88453 0.09100
H 	H 	0.84872 0.69394 0.86326 0.09300
C 	C 	0.81582 0.12255 0.94088 -0.02200
C 	C 	0.82329 0.16135 0.97912 -0.10700
C 	C 	0.84926 0.13709 0.01219 0.12400
C 	C 	0.86243 0.07099 0.00624 -0.08800
C 	C 	0.85962 0.03566 0.96816 -0.00400
C 	C 	0.83333 0.05948 0.93504 0.07200
N 	N 	0.82444 0.02181 0.89767 -0.18800
H 	H 	0.79468 0.14013 0.91557 0.06600
H 	H 	0.88282 0.05280 0.03154 0.06000
N 	N 	0.86624 0.18027 0.04955 -0.19900
H 	H 	0.80729 0.04137 0.87335 0.10200
H 	H 	0.83195 0.97112 0.89237 0.08600
H 	H 	0.87091 0.23866 0.05479 0.05600
H 	H 	0.88070 0.15884 0.07386 0.08600
C 	C 	0.29585 0.12284 0.99880 -0.02400
C 	C 	0.33466 0.18048 0.97157 -0.10400
C 	C 	0.27889 0.18899 0.94482 0.12800
C 	C 	0.18425 0.12867 0.94112 -0.09000
C 	C 	0.14524 0.06993 0.96784 -0.00900
C 	C 	0.20223 0.07129 0.99857 0.06700
N 	N 	0.16815 0.02586 0.02848 -0.18800
H 	H 	0.33852 0.11848 0.02043 0.05500
H 	H 	0.14098 0.13035 0.91856 0.05700
N 	N 	0.31583 0.25799 0.92457 -0.20100
H 	H 	0.20989 0.02325 0.04975 0.09100
H 	H 	0.10194 0.99772 0.03241 0.08300
H 	H 	0.38434 0.31359 0.93243 0.09000
H 	H 	0.27447 0.26031 0.90295 0.08900
