data_crystal

_cell_length_a 23.02953
_cell_length_b 20.49300
_cell_length_c 52.69680
_cell_angle_alpha 89.82300
_cell_angle_beta  89.82964
_cell_angle_gamma 119.77791

_symmetry_space_group_name_	'P 1'
_symmetry_space_group_name_H-M	'P 1'

loop_
_symmetry_equiv_pos_as_xyz
  x,y,z

loop_
_atom_site_label
_atom_site_type_symbol
_atom_site_fract_x
_atom_site_fract_y
_atom_site_fract_z
_atom_site_charge
Ni	Ni	0.06719 0.95091 0.75151 1.11700
Ni	Ni	0.04050 0.08641 0.73506 1.11400
O 	O 	0.01059 0.99210 0.75085 -0.69200
H 	H 	0.01547 0.00843 0.76864 0.12600
O 	O 	0.95777 0.10340 0.21417 -0.39500
O 	O 	0.02157 0.88994 0.25863 -0.39500
O 	O 	0.95471 0.09236 0.26730 -0.39300
O 	O 	0.96663 0.87639 0.20731 -0.39700
H 	H 	0.04172 0.11338 0.10435 0.03800
H 	H 	0.97311 0.17154 0.17292 0.09600
H 	H 	0.95568 0.78407 0.17374 0.04200
H 	H 	0.01837 0.18797 0.30082 0.09100
H 	H 	0.01365 0.78493 0.34920 0.04100
H 	H 	0.01285 0.82124 0.30032 0.03500
C 	C 	0.02313 0.39808 0.48893 0.01700
C 	C 	0.04046 0.39578 0.46337 -0.04000
C 	C 	0.08825 0.64048 0.97553 0.02200
C 	C 	0.06754 0.60740 0.99958 -0.05900
N 	N 	0.03426 0.77966 0.96929 -0.11200
C 	C 	0.84986 0.49031 0.91984 0.29400
C 	C 	0.58201 0.38331 0.87111 0.37400
C 	C 	0.72870 0.54712 0.92993 0.34900
C 	C 	0.71272 0.32600 0.85829 0.32700
C 	C 	0.57179 0.31660 0.95174 0.31200
C 	C 	0.67067 0.23013 0.93922 0.29600
Ni	Ni	0.72758 0.45997 0.88616 1.11400
Ni	Ni	0.61703 0.28951 0.90193 1.12300
Ni	Ni	0.71716 0.39869 0.94425 1.12200
O 	O 	0.82323 0.51661 0.90292 -0.37200
O 	O 	0.81257 0.43072 0.93444 -0.37500
O 	O 	0.56711 0.26558 0.93547 -0.38200
O 	O 	0.64372 0.42585 0.86307 -0.38500
O 	O 	0.57066 0.34781 0.89283 -0.40200
O 	O 	0.69544 0.29122 0.95403 -0.36900
O 	O 	0.69298 0.51232 0.91013 -0.38800
O 	O 	0.74965 0.51200 0.94514 -0.38100
O 	O 	0.66222 0.23424 0.91463 -0.38600
O 	O 	0.75218 0.39946 0.86132 -0.37800
O 	O 	0.64866 0.29212 0.86527 -0.38500
O 	O 	0.62652 0.38210 0.95353 -0.38200
O 	O 	0.69851 0.37872 0.90903 -0.71200
H 	H 	0.73079 0.36193 0.90502 0.16300
C 	C 	0.65156 0.50932 0.57821 0.28700
C 	C 	0.71799 0.27658 0.61297 0.37100
C 	C 	0.81850 0.51512 0.59225 0.35200
C 	C 	0.54698 0.26002 0.60085 0.32300
C 	C 	0.78231 0.35408 0.53520 0.31300
C 	C 	0.61588 0.32112 0.51794 0.29700
Ni	Ni	0.68100 0.39815 0.60794 1.11400
Ni	Ni	0.65518 0.27511 0.56447 1.12200
Ni	Ni	0.72497 0.44814 0.54932 1.12300
O 	O 	0.67595 0.49625 0.59945 -0.35800
O 	O 	0.66341 0.49033 0.55543 -0.37300
O 	O 	0.72160 0.29520 0.53605 -0.38400
O 	O 	0.68639 0.30768 0.62409 -0.38400
O 	O 	0.72592 0.28076 0.58833 -0.39900
O 	O 	0.67190 0.38828 0.51835 -0.37700
O 	O 	0.78465 0.45626 0.60692 -0.38600
O 	O 	0.78838 0.52906 0.57366 -0.38900
O 	O 	0.59337 0.27697 0.53827 -0.38800
O 	O 	0.57812 0.32894 0.61050 -0.37300
O 	O 	0.58146 0.22854 0.59184 -0.38400
O 	O 	0.79500 0.41812 0.54539 -0.39100
O 	O 	0.67249 0.37261 0.57341 -0.71900
H 	H 	0.62857 0.36784 0.56991 0.16300
C 	C 	0.14695 0.11205 0.77221 0.32700
C 	C 	0.95573 0.82850 0.72257 0.37000
C 	C 	0.12210 0.03995 0.70354 0.31900
C 	C 	0.97045 0.88367 0.79497 0.34800
C 	C 	0.91924 0.01857 0.70533 0.31400
C 	C 	0.93458 0.06627 0.77334 0.30200
Ni	Ni	0.91608 0.92653 0.75005 1.12400
O 	O 	0.14972 0.05502 0.76127 -0.39000
O 	O 	0.10437 0.13395 0.76442 -0.39200
O 	O 	0.88335 0.97420 0.72423 -0.36500
O 	O 	0.99735 0.84187 0.74143 -0.38600
O 	O 	0.91969 0.86205 0.72159 -0.38900
O 	O 	0.96882 0.10158 0.75240 -0.39000
O 	O 	0.09203 0.97197 0.71330 -0.36700
O 	O 	0.12099 0.09577 0.71550 -0.38600
O 	O 	0.90735 0.99224 0.77625 -0.37200
O 	O 	0.03492 0.91669 0.78873 -0.37800
O 	O 	0.92378 0.85920 0.77701 -0.38500
O 	O 	0.98395 0.04416 0.70411 -0.40100
C 	C 	0.24940 0.74053 0.40725 0.32700
C 	C 	0.39314 0.66777 0.48791 0.31000
C 	C 	0.42070 0.85717 0.43437 0.31900
C 	C 	0.21901 0.55005 0.46367 0.28600
C 	C 	0.47910 0.69564 0.41109 0.35200
C 	C 	0.30319 0.56052 0.38629 0.32800
Ni	Ni	0.31004 0.71665 0.45702 1.11500
Ni	Ni	0.35292 0.59501 0.43862 1.12400
Ni	Ni	0.36948 0.72403 0.40070 1.12200
O 	O 	0.26747 0.76076 0.43137 -0.37100
O 	O 	0.27919 0.71250 0.39276 -0.39100
O 	O 	0.43454 0.62534 0.41646 -0.38900
O 	O 	0.34411 0.68328 0.48879 -0.35900
O 	O 	0.41581 0.65970 0.46607 -0.37900
O 	O 	0.35033 0.63059 0.38061 -0.39200
O 	O 	0.40215 0.81437 0.45471 -0.37200
O 	O 	0.39363 0.82898 0.41232 -0.38300
O 	O 	0.29685 0.53274 0.40963 -0.39200
O 	O 	0.22152 0.61616 0.46240 -0.36400
O 	O 	0.27460 0.54512 0.46400 -0.36400
O 	O 	0.46172 0.74766 0.41059 -0.39800
O 	O 	0.32835 0.66834 0.43057 -0.71800
H 	H 	0.28275 0.63516 0.42426 0.15900
C 	C 	0.36388 0.49304 0.06432 0.29200
C 	C 	0.20007 0.61984 0.10836 0.37500
C 	C 	0.18856 0.44098 0.05636 0.35000
C 	C 	0.38437 0.68268 0.11923 0.34500
C 	C 	0.23282 0.65368 0.02754 0.31200
C 	C 	0.41660 0.74623 0.03483 0.29500
Ni	Ni	0.27660 0.53927 0.09692 1.11500
Ni	Ni	0.31458 0.70255 0.07405 1.12400
Ni	Ni	0.31079 0.57796 0.03682 1.12300
O 	O 	0.31790 0.47480 0.08264 -0.36300
O 	O 	0.37838 0.54831 0.04782 -0.37700
O 	O 	0.28020 0.71155 0.03970 -0.38300
O 	O 	0.22859 0.58417 0.11840 -0.38800
O 	O 	0.21827 0.65041 0.08578 -0.39900
O 	O 	0.38307 0.68050 0.02255 -0.37100
O 	O 	0.18968 0.47894 0.07644 -0.38600
O 	O 	0.24185 0.46626 0.04165 -0.38300
O 	O 	0.40671 0.75261 0.05921 -0.38500
O 	O 	0.35921 0.60853 0.11866 -0.38300
O 	O 	0.34946 0.71387 0.11049 -0.38600
O 	O 	0.23413 0.59065 0.02544 -0.38600
O 	O 	0.31539 0.61107 0.07080 -0.71700
H 	H 	0.36304 0.62892 0.07400 0.16200
C 	C 	0.85284 0.89622 0.28214 0.32600
C 	C 	0.99403 0.10099 0.19527 0.37300
C 	C 	0.82798 0.87159 0.21035 0.34800
C 	C 	0.02100 0.13380 0.26751 0.34200
C 	C 	0.03037 0.91029 0.20106 0.34700
C 	C 	0.06338 0.94871 0.27263 0.35200
Ni	Ni	0.90433 0.01393 0.23911 1.10200
Ni	Ni	0.05543 0.04291 0.23186 1.11300
Ni	Ni	0.93572 0.87653 0.24288 1.12300
O 	O 	0.83664 0.93037 0.26418 -0.37200
O 	O 	0.89375 0.86934 0.27735 -0.38800
O 	O 	0.07484 0.96876 0.21394 -0.38200
O 	O 	0.02699 0.06401 0.19770 -0.40800
O 	O 	0.86080 0.94504 0.20815 -0.38000
O 	O 	0.84202 0.83838 0.22880 -0.38800
O 	O 	0.08888 0.01874 0.26389 -0.41900
O 	O 	0.05741 0.13539 0.24751 -0.39100
O 	O 	0.96631 0.98113 0.24371 -0.70400
H 	H 	0.97385 0.98951 0.26207 0.15900
C 	C 	0.05006 0.19462 0.13231 -0.00400
C 	C 	0.06260 0.26838 0.13612 -0.03200
C 	C 	0.07169 0.31511 0.11536 -0.04300
C 	C 	0.07038 0.28966 0.09059 0.01600
C 	C 	0.06000 0.21690 0.08671 -0.03700
C 	C 	0.05006 0.16960 0.10752 -0.03100
C 	C 	0.07940 0.33961 0.06889 0.01500
C 	C 	0.13678 0.36694 0.05374 -0.16700
C 	C 	0.03943 0.14434 0.15430 0.03900
C 	C 	0.00004 0.14051 0.17400 -0.21200
H 	H 	0.06567 0.28963 0.15515 0.04000
H 	H 	0.08062 0.37159 0.11854 0.04600
H 	H 	0.05920 0.19685 0.06764 0.04500
H 	H 	0.05426 0.37257 0.06987 0.04400
H 	H 	0.14455 0.32808 0.04221 0.09300
H 	H 	0.06279 0.10944 0.15401 0.03200
C 	C 	0.54527 0.74574 0.15190 0.00100
C 	C 	0.55899 0.73407 0.17685 -0.03400
C 	C 	0.62429 0.77313 0.18603 -0.03900
C 	C 	0.67691 0.82268 0.17003 0.01000
C 	C 	0.66287 0.83600 0.14530 -0.03800
C 	C 	0.59734 0.79745 0.13621 -0.03200
C 	C 	0.74619 0.86408 0.17955 0.01500
C 	C 	0.77089 0.82932 0.19582 -0.16900
C 	C 	0.47835 0.69686 0.14134 0.03300
C 	C 	0.44290 0.72626 0.13090 -0.19200
H 	H 	0.51906 0.69428 0.18907 0.04100
H 	H 	0.63394 0.76497 0.20555 0.04400
H 	H 	0.70286 0.87528 0.13298 0.04800
H 	H 	0.58730 0.80627 0.11680 0.04800
H 	H 	0.77795 0.92239 0.17384 0.04500
H 	H 	0.74232 0.76880 0.19871 0.08700
H 	H 	0.45751 0.63631 0.14272 0.03800
H 	H 	0.46287 0.78678 0.13133 0.09600
C 	C 	0.03662 0.76719 0.15795 0.01200
C 	C 	0.00752 0.73217 0.13496 -0.04300
C 	C 	0.03520 0.69643 0.12091 -0.03100
C 	C 	0.09162 0.69450 0.12991 -0.00100
C 	C 	0.11904 0.72700 0.15347 -0.03200
C 	C 	0.09109 0.76217 0.16757 -0.04000
C 	C 	0.12734 0.66866 0.11298 0.04000
C 	C 	0.15563 0.62937 0.12212 -0.20400
C 	C 	0.00958 0.80846 0.17203 0.01100
C 	C 	0.05277 0.87859 0.18284 -0.16700
H 	H 	0.96461 0.73438 0.12765 0.04800
H 	H 	0.01378 0.67180 0.10273 0.04400
H 	H 	0.16333 0.72724 0.16047 0.04300
H 	H 	0.11245 0.78660 0.18577 0.04600
H 	H 	0.13171 0.68360 0.09296 0.04100
H 	H 	0.14459 0.60770 0.14145 0.09700
H 	H 	0.10593 0.90626 0.17843 0.09100
C 	C 	0.72170 0.85755 0.33220 0.01000
C 	C 	0.74703 0.88565 0.35635 -0.03600
C 	C 	0.70489 0.85959 0.37762 -0.03600
C 	C 	0.63746 0.80444 0.37491 0.00900
C 	C 	0.61279 0.77474 0.35079 -0.03600
C 	C 	0.65467 0.80160 0.32953 -0.03800
C 	C 	0.59080 0.78660 0.39644 0.01800
C 	C 	0.54169 0.71225 0.40170 -0.17000
C 	C 	0.76420 0.88927 0.30951 0.01300
C 	C 	0.81797 0.87690 0.30519 -0.16000
H 	H 	0.79880 0.92902 0.35857 0.04900
H 	H 	0.72425 0.88343 0.39609 0.04900
H 	H 	0.56055 0.73309 0.34838 0.04400
H 	H 	0.63477 0.77968 0.31092 0.04300
H 	H 	0.59074 0.83254 0.40669 0.04800
H 	H 	0.55028 0.66656 0.39633 0.09200
H 	H 	0.74907 0.91557 0.29502 0.04300
H 	H 	0.83064 0.84788 0.31955 0.08700
C 	C 	0.14661 0.28143 0.30872 -0.00200
C 	C 	0.18749 0.27321 0.32658 -0.03400
C 	C 	0.21360 0.32310 0.34687 -0.04100
C 	C 	0.20032 0.38260 0.34908 0.01100
C 	C 	0.16013 0.39148 0.33101 -0.04100
C 	C 	0.13343 0.34111 0.31087 -0.03400
C 	C 	0.22747 0.43446 0.37063 0.01100
C 	C 	0.26882 0.51177 0.36643 -0.16200
C 	C 	0.11690 0.22691 0.28799 0.03300
C 	C 	0.04996 0.18362 0.28629 -0.19600
H 	H 	0.19809 0.22744 0.32497 0.03800
H 	H 	0.24447 0.31581 0.36080 0.04400
H 	H 	0.14915 0.43693 0.33270 0.04300
H 	H 	0.10226 0.34815 0.29702 0.04200
H 	H 	0.22042 0.41112 0.38967 0.04400
H 	H 	0.27686 0.53386 0.34717 0.08400
H 	H 	0.14998 0.21930 0.27507 0.03100
C 	C 	0.09980 0.84706 0.32482 0.00700
C 	C 	0.06545 0.80101 0.34568 -0.03600
C 	C 	0.09709 0.77322 0.36148 -0.03800
C 	C 	0.16309 0.79067 0.35636 0.01100
C 	C 	0.19819 0.83888 0.33609 -0.03700
C 	C 	0.16684 0.86713 0.32042 -0.03400
C 	C 	0.19238 0.75065 0.36973 0.01100
C 	C 	0.20543 0.76037 0.39587 -0.15800
C 	C 	0.06274 0.86484 0.30570 0.01900
C 	C 	0.09096 0.93640 0.29447 -0.17200
H 	H 	0.06941 0.73567 0.37700 0.04600
H 	H 	0.24911 0.85246 0.33195 0.04400
H 	H 	0.19369 0.90172 0.30420 0.04700
H 	H 	0.21091 0.72046 0.35845 0.04200
H 	H 	0.18508 0.78882 0.40709 0.08900
H 	H 	0.13492 0.98316 0.30289 0.09400
C 	C 	0.46819 0.06145 0.42948 -0.08400
C 	C 	0.51771 0.09359 0.44831 0.04500
C 	C 	0.54163 0.04989 0.45997 -0.10300
C 	C 	0.51330 0.97342 0.45432 0.06900
C 	C 	0.45926 0.93962 0.43727 -0.10600
C 	C 	0.43887 0.98464 0.42418 0.05700
C 	C 	0.53840 0.16934 0.45841 0.01100
C 	C 	0.49365 0.17922 0.47385 -0.05400
C 	C 	0.51781 0.23896 0.49099 0.02300
C 	C 	0.58733 0.28753 0.49322 -0.07800
C 	C 	0.63005 0.28604 0.47445 0.01000
C 	C 	0.60583 0.22682 0.45705 -0.03700
C 	C 	0.47150 0.24769 0.50722 0.07600
C 	C 	0.65096 0.22333 0.43875 0.08800
C 	C 	0.44678 0.10679 0.41571 0.09400
C 	C 	0.54059 0.93036 0.46579 0.07500
N 	N 	0.43442 0.25469 0.52024 -0.11200
N 	N 	0.68711 0.22048 0.42407 -0.11600
N 	N 	0.56239 0.89582 0.47498 -0.09600
N 	N 	0.42964 0.14316 0.40469 -0.12300
H 	H 	0.39860 0.95936 0.41050 0.03900
H 	H 	0.58094 0.07503 0.47404 0.06100
H 	H 	0.44086 0.13744 0.47383 0.05000
H 	H 	0.68318 0.32645 0.47499 0.04500
C 	C 	0.92489 0.41979 0.48904 -0.04200
C 	C 	0.95323 0.37519 0.49620 0.02700
C 	C 	0.91884 0.31556 0.51342 -0.06200
C 	C 	0.85965 0.30422 0.52511 0.02900
C 	C 	0.83405 0.35230 0.51920 -0.08600
C 	C 	0.86492 0.40702 0.50018 0.01700
C 	C 	0.07403 0.43462 0.50687 -0.05700
C 	C 	0.14075 0.47776 0.49896 0.02600
C 	C 	0.15650 0.48552 0.47286 -0.07100
C 	C 	0.10700 0.44075 0.45535 0.00800
C 	C 	0.19245 0.51661 0.51761 0.08100
C 	C 	0.98988 0.35003 0.44516 0.09300
C 	C 	0.95908 0.48167 0.47140 0.09500
C 	C 	0.82730 0.24541 0.54392 0.07400
N 	N 	0.23394 0.54773 0.53252 -0.10600
N 	N 	0.94930 0.31338 0.43057 -0.11600
N 	N 	0.80141 0.19829 0.55898 -0.11200
N 	N 	0.98651 0.53122 0.45727 -0.11400
H 	H 	0.84417 0.44260 0.49509 0.03400
H 	H 	0.93992 0.28042 0.51865 0.05400
H 	H 	0.06123 0.43338 0.52676 0.05200
H 	H 	0.11959 0.44401 0.43535 0.03600
C 	C 	0.48949 0.69516 0.54840 -0.03800
C 	C 	0.49069 0.62699 0.54956 0.02400
C 	C 	0.44896 0.56776 0.53355 -0.05900
C 	C 	0.41246 0.57857 0.51448 0.03100
C 	C 	0.41691 0.64949 0.51145 -0.07800
C 	C 	0.45281 0.70623 0.52925 0.01800
C 	C 	0.54242 0.62055 0.56437 0.02200
C 	C 	0.52228 0.56871 0.58455 -0.05700
C 	C 	0.56270 0.53864 0.59209 0.02100
C 	C 	0.62323 0.56007 0.57913 -0.07200
C 	C 	0.64825 0.62123 0.56222 0.01300
C 	C 	0.60798 0.65108 0.55458 -0.03800
C 	C 	0.54174 0.48612 0.61303 0.07100
C 	C 	0.63231 0.70894 0.53525 0.09600
C 	C 	0.52689 0.75440 0.56635 0.09700
C 	C 	0.37228 0.51712 0.49762 0.06600
N 	N 	0.52507 0.44436 0.62992 -0.11300
N 	N 	0.65176 0.75528 0.51976 -0.10800
N 	N 	0.34042 0.46742 0.48422 -0.11700
N 	N 	0.55691 0.80189 0.58074 -0.11100
H 	H 	0.45483 0.76007 0.52748 0.04600
H 	H 	0.44800 0.51439 0.53501 0.05600
H 	H 	0.47332 0.54800 0.59314 0.05300
H 	H 	0.69690 0.64134 0.55342 0.04400
C 	C 	0.80250 0.08626 0.68248 0.03300
C 	C 	0.73519 0.05548 0.67549 -0.08200
C 	C 	0.71125 0.10204 0.66658 -0.01500
C 	C 	0.75435 0.17985 0.66456 -0.01300
C 	C 	0.82122 0.21108 0.67216 -0.02500
C 	C 	0.84513 0.16463 0.68128 -0.05200
C 	C 	0.73167 0.22708 0.65159 0.04300
C 	C 	0.74262 0.24013 0.62650 -0.20800
C 	C 	0.82576 0.03688 0.69368 -0.02700
C 	C 	0.89082 0.04952 0.68928 -0.14900
H 	H 	0.70145 0.99540 0.67689 0.07100
H 	H 	0.65958 0.07745 0.66067 0.03500
H 	H 	0.85485 0.27116 0.67069 0.03900
H 	H 	0.89640 0.18964 0.68768 0.04500
H 	H 	0.70303 0.24702 0.66220 0.03300
H 	H 	0.77025 0.21762 0.61651 0.10400
H 	H 	0.79148 0.99034 0.70574 0.06800
H 	H 	0.92178 0.08942 0.67470 0.07800
C 	C 	0.25647 0.14613 0.65388 0.00700
C 	C 	0.26485 0.19326 0.63320 -0.03700
C 	C 	0.32218 0.22132 0.61795 -0.03800
C 	C 	0.37208 0.20303 0.62331 0.01100
C 	C 	0.36229 0.15300 0.64334 -0.03800
C 	C 	0.30479 0.12473 0.65855 -0.03700
C 	C 	0.43866 0.24705 0.61114 0.01300
C 	C 	0.47826 0.21475 0.60513 -0.15800
C 	C 	0.20189 0.12760 0.67240 0.01200
C 	C 	0.16448 0.05492 0.68260 -0.16200
H 	H 	0.22792 0.21009 0.62941 0.04100
H 	H 	0.32917 0.25991 0.60260 0.04500
H 	H 	0.40075 0.13925 0.64800 0.04400
H 	H 	0.29946 0.08922 0.67467 0.04000
H 	H 	0.45716 0.30607 0.60690 0.04700
H 	H 	0.45536 0.15403 0.60372 0.08300
H 	H 	0.19047 0.17118 0.67780 0.03900
H 	H 	0.17027 0.00955 0.67467 0.07700
C 	C 	0.94915 0.60556 0.63926 0.01200
C 	C 	0.98356 0.68395 0.63576 -0.03800
C 	C 	0.99985 0.73136 0.65672 -0.02700
C 	C 	0.98300 0.70078 0.68129 -0.00300
C 	C 	0.95524 0.62320 0.68489 -0.03100
C 	C 	0.93835 0.57569 0.66394 -0.04000
C 	C 	0.98859 0.74885 0.70290 0.04500
C 	C 	0.95011 0.78137 0.70388 -0.20400
C 	C 	0.91821 0.55437 0.61759 0.01800
C 	C 	0.88271 0.56990 0.59926 -0.17000
H 	H 	0.99607 0.70801 0.61686 0.04600
H 	H 	0.02350 0.79161 0.65385 0.04400
H 	H 	0.94365 0.59937 0.70386 0.04200
H 	H 	0.91360 0.51539 0.66687 0.04300
H 	H 	0.02211 0.75502 0.71835 0.03000
H 	H 	0.91498 0.77128 0.68859 0.10300
H 	H 	0.90922 0.49717 0.61932 0.04200
H 	H 	0.90314 0.62660 0.59180 0.09000
C 	C 	0.15653 0.69136 0.97093 -0.04000
C 	C 	0.11478 0.61755 0.01802 0.02800
C 	C 	0.18360 0.66277 0.01260 -0.08200
C 	C 	0.20385 0.70307 0.98965 0.01500
C 	C 	0.03912 0.61428 0.95466 0.02500
C 	C 	0.02279 0.54651 0.94250 -0.06300
C 	C 	0.96353 0.50835 0.92859 0.03000
C 	C 	0.92046 0.53851 0.92671 -0.08200
C 	C 	0.94146 0.61103 0.93593 0.01700
C 	C 	0.00033 0.64880 0.95009 -0.04500
C 	C 	0.94666 0.43780 0.91664 0.07400
C 	C 	0.01914 0.72144 0.96074 0.09300
C 	C 	0.17854 0.72977 0.94682 0.09400
C 	C 	0.09243 0.57742 0.04186 0.07600
N 	N 	0.93309 0.38128 0.90705 -0.11300
N 	N 	0.07434 0.54498 0.06089 -0.10700
N 	N 	0.19612 0.76053 0.92748 -0.11200
H 	H 	0.25672 0.73932 0.98567 0.04400
H 	H 	0.01472 0.57017 0.00338 0.05400
H 	H 	0.05417 0.52137 0.94516 0.05600
H 	H 	0.90962 0.63571 0.93362 0.03900
C 	C 	0.55214 0.88216 0.98981 -0.04700
C 	C 	0.54914 0.94856 0.99371 0.04900
C 	C 	0.50304 0.94834 0.01113 -0.06500
C 	C 	0.45830 0.88232 0.02399 0.03200
C 	C 	0.46128 0.81559 0.02029 -0.07800
C 	C 	0.50841 0.81612 0.00318 0.01600
C 	C 	0.58717 0.01562 0.97720 0.00300
C 	C 	0.55601 0.02348 0.95559 -0.08300
C 	C 	0.58272 0.09260 0.94290 0.03400
C 	C 	0.64385 0.15461 0.95117 -0.07600
C 	C 	0.67729 0.14514 0.97189 0.01300
C 	C 	0.64899 0.07625 0.98506 -0.03500
C 	C 	0.54481 0.10030 0.92246 0.06300
C 	C 	0.68315 0.06858 0.00680 0.08400
C 	C 	0.59985 0.88134 0.97216 0.10200
C 	C 	0.40744 0.88282 0.03999 0.07300
N 	N 	0.51430 0.10624 0.90610 -0.12800
N 	N 	0.71050 0.06237 0.02424 -0.11900
N 	N 	0.36681 0.88345 0.05280 -0.11800
N 	N 	0.63811 0.88075 0.95802 -0.11200
H 	H 	0.51127 0.76538 0.00034 0.04300
H 	H 	0.50022 0.99915 0.01390 0.06800
H 	H 	0.50860 0.97671 0.94950 0.07700
H 	H 	0.72453 0.19180 0.97813 0.04500
C 	C 	0.43891 0.33725 0.98438 -0.04100
C 	C 	0.45005 0.32347 0.00964 0.02200
C 	C 	0.48643 0.28660 0.01435 -0.06000
C 	C 	0.51964 0.27348 0.99441 0.02700
C 	C 	0.51704 0.29841 0.96969 -0.08300
C 	C 	0.47244 0.32450 0.96450 0.01600
C 	C 	0.43460 0.35946 0.03087 0.02000
C 	C 	0.37021 0.32378 0.04145 -0.05900
C 	C 	0.34865 0.36487 0.05604 0.02400
C 	C 	0.39161 0.44296 0.05948 -0.07600
C 	C 	0.45897 0.47526 0.05218 0.01000
C 	C 	0.48061 0.43403 0.03779 -0.03900
C 	C 	0.28249 0.32664 0.06716 0.07900
C 	C 	0.54909 0.46987 0.02893 0.09200
C 	C 	0.39646 0.36882 0.97890 0.09100
C 	C 	0.55865 0.23749 0.99963 0.06900
N 	N 	0.22956 0.29572 0.07614 -0.11500
N 	N 	0.60390 0.49848 0.02180 -0.11300
N 	N 	0.58980 0.20857 0.00388 -0.11100
N 	N 	0.36246 0.39414 0.97455 -0.11700
H 	H 	0.46805 0.34061 0.94527 0.04100
H 	H 	0.49241 0.27262 0.03368 0.05200
H 	H 	0.33584 0.26517 0.03724 0.05100
H 	H 	0.49322 0.53418 0.05603 0.04200
C 	C 	0.89439 0.20960 0.79975 0.00800
C 	C 	0.91005 0.22604 0.82547 -0.03700
C 	C 	0.87948 0.25830 0.83959 -0.03900
C 	C 	0.83235 0.27324 0.82819 0.01000
C 	C 	0.81615 0.25598 0.80253 -0.03800
C 	C 	0.84746 0.22475 0.78832 -0.03900
C 	C 	0.80606 0.31465 0.84233 0.01300
C 	C 	0.73705 0.28541 0.84532 -0.16400
C 	C 	0.92732 0.17706 0.78469 0.00800
C 	C 	0.91555 0.10461 0.79019 -0.15600
H 	H 	0.94651 0.21478 0.83439 0.04400
H 	H 	0.89282 0.27233 0.85932 0.05000
H 	H 	0.78062 0.26851 0.79347 0.04400
H 	H 	0.83526 0.21227 0.76843 0.04100
H 	H 	0.84120 0.36637 0.85183 0.04500
H 	H 	0.70240 0.22888 0.83884 0.08600
H 	H 	0.95430 0.20625 0.76758 0.04100
H 	H 	0.88647 0.07537 0.80695 0.07800
C 	C 	0.30516 0.19690 0.81157 0.00900
C 	C 	0.37009 0.21335 0.80504 -0.04000
C 	C 	0.42381 0.25814 0.82085 -0.03300
C 	C 	0.41313 0.28729 0.84341 -0.00100
C 	C 	0.34834 0.27223 0.84963 -0.03400
C 	C 	0.29453 0.22700 0.83386 -0.03900
C 	C 	0.46678 0.32210 0.86254 0.03700
C 	C 	0.53087 0.36950 0.85565 -0.20700
C 	C 	0.24809 0.14310 0.79610 0.01100
C 	C 	0.19709 0.15811 0.78917 -0.16400
H 	H 	0.37873 0.18996 0.78797 0.04100
H 	H 	0.47317 0.26743 0.81613 0.04300
H 	H 	0.33933 0.29345 0.86713 0.04200
H 	H 	0.24440 0.21331 0.83943 0.04200
H 	H 	0.45392 0.30615 0.88236 0.03500
H 	H 	0.54177 0.39319 0.83657 0.09900
H 	H 	0.24894 0.09438 0.78844 0.03600
H 	H 	0.19769 0.20804 0.79642 0.08500
C 	C 	0.86665 0.80754 0.85331 0.00200
C 	C 	0.82020 0.82251 0.86541 -0.03200
C 	C 	0.78499 0.78095 0.88681 -0.03800
C 	C 	0.79573 0.72385 0.89634 0.01100
C 	C 	0.84694 0.71388 0.88571 -0.04200
C 	C 	0.88201 0.75531 0.86423 -0.03200
C 	C 	0.74421 0.66503 0.91299 0.01500
C 	C 	0.76086 0.62558 0.93054 -0.17300
C 	C 	0.88785 0.83455 0.82696 0.03500
C 	C 	0.95225 0.86427 0.81939 -0.19100
H 	H 	0.80852 0.86333 0.85736 0.04600
H 	H 	0.74634 0.78995 0.89501 0.04900
H 	H 	0.85636 0.67048 0.89292 0.04600
H 	H 	0.91782 0.74318 0.85514 0.04500
H 	H 	0.69185 0.64365 0.90839 0.04200
H 	H 	0.80571 0.65613 0.94190 0.09300
H 	H 	0.85028 0.83184 0.81386 0.03300
H 	H 	0.99051 0.87444 0.83335 0.09900
