data_crystal

_cell_length_a 30.84274
_cell_length_b 25.38126
_cell_length_c 26.09195
_cell_angle_alpha 89.94070
_cell_angle_beta  89.93471
_cell_angle_gamma 90.92158

_symmetry_space_group_name_	'P 1'
_symmetry_space_group_name_H-M	'P 1'

loop_
_symmetry_equiv_pos_as_xyz
  x,y,z

loop_
_atom_site_label
_atom_site_type_symbol
_atom_site_fract_x
_atom_site_fract_y
_atom_site_fract_z
_atom_site_charge
Zn	Zn	0.49763 0.47703 0.97265 1.22200
C 	C 	0.53940 0.57624 0.95322 0.30800
O 	O 	0.54455 0.44472 0.01207 -0.47200
O 	O 	0.51703 0.59028 0.99360 -0.43800
O 	O 	0.57636 0.51739 0.04707 -0.49500
C 	C 	0.43363 0.53479 0.02670 0.31500
O 	O 	0.44752 0.52197 0.98099 -0.43800
O 	O 	0.45898 0.52870 0.06651 -0.49900
C 	C 	0.57966 0.47140 0.02464 0.31700
O 	O 	0.45178 0.40729 0.99812 -0.32900
Zn	Zn	0.52020 0.54821 0.06135 1.17200
O 	O 	0.53414 0.52832 0.93457 -0.42600
C 	C 	0.45767 0.38879 0.95244 0.27500
O 	O 	0.48203 0.41748 0.92257 -0.38500
Zn	Zn	0.34357 0.09174 0.99314 1.22300
C 	C 	0.37645 0.10415 0.09591 0.32800
O 	O 	0.28072 0.07975 0.99991 -0.45300
O 	O 	0.36749 0.15449 0.09250 -0.45400
O 	O 	0.27629 0.11780 0.07858 -0.49400
C 	C 	0.37171 0.19805 0.97800 0.32500
O 	O 	0.38507 0.14969 0.98402 -0.45400
O 	O 	0.33421 0.21191 0.99698 -0.50300
C 	C 	0.26074 0.08516 0.04406 0.30200
O 	O 	0.33785 0.08950 0.90268 -0.32900
Zn	Zn	0.31078 0.17894 0.05862 1.16900
O 	O 	0.36077 0.07057 0.06215 -0.45000
C 	C 	0.35538 0.04348 0.90660 0.28800
O 	O 	0.36392 0.02861 0.95288 -0.39300
C 	C 	0.52907 0.97399 0.30691 0.14200
C 	C 	0.49905 0.00657 0.28276 -0.10900
H 	H 	0.47593 0.02810 0.30562 0.07000
C 	C 	0.49766 0.00954 0.22922 0.05200
C 	C 	0.52661 0.98018 0.19979 -0.08600
C 	C 	0.55702 0.94793 0.22380 0.05400
C 	C 	0.55835 0.94511 0.27745 -0.10700
H 	H 	0.58121 0.91950 0.29625 0.06900
N 	N 	0.52796 0.96767 0.36160 -0.17900
C 	C 	0.50710 0.92449 0.38239 0.19100
C 	C 	0.50373 0.91891 0.43590 -0.06300
C 	C 	0.52172 0.95814 0.46772 0.03400
C 	C 	0.54334 0.00186 0.44588 -0.06500
C 	C 	0.54656 0.00568 0.39220 0.18900
C 	C 	0.48239 0.87499 0.45798 -0.01300
C 	C 	0.47892 0.87045 0.51125 -0.01400
C 	C 	0.49665 0.90981 0.54330 -0.06000
C 	C 	0.51797 0.95374 0.52144 0.02900
C 	C 	0.53550 0.99329 0.55324 -0.05900
C 	C 	0.56108 0.04122 0.47793 -0.01200
C 	C 	0.55710 0.03704 0.53117 -0.01700
C 	C 	0.49353 0.90592 0.59698 0.18900
N 	N 	0.51091 0.94482 0.62754 -0.18000
C 	C 	0.53123 0.98833 0.60671 0.19100
C 	C 	0.50852 0.93948 0.68225 0.14100
C 	C 	0.47110 0.95480 0.70852 -0.10600
C 	C 	0.46985 0.95302 0.76224 0.05600
C 	C 	0.50594 0.93496 0.78945 -0.08900
C 	C 	0.54318 0.91922 0.76317 0.05700
C 	C 	0.54438 0.92132 0.70959 -0.10800
O 	O 	0.56734 0.04607 0.37120 -0.20400
O 	O 	0.48965 0.88845 0.35207 -0.20600
O 	O 	0.47412 0.86459 0.61803 -0.20400
O 	O 	0.54686 0.02561 0.63698 -0.20600
H 	H 	0.57336 0.90983 0.68918 0.06900
H 	H 	0.44338 0.96850 0.68715 0.06900
H 	H 	0.57784 0.07521 0.46176 0.04800
H 	H 	0.57090 0.06784 0.55511 0.04900
H 	H 	0.46844 0.84429 0.43404 0.04700
H 	H 	0.46237 0.83632 0.52742 0.04900
H 	H 	0.50543 0.93437 0.83101 0.05800
H 	H 	0.52485 0.98156 0.15830 0.05500
Zn	Zn	0.69973 0.82957 0.98839 1.22500
C 	C 	0.66967 0.83233 0.09246 0.32800
O 	O 	0.76296 0.84063 0.98926 -0.45100
O 	O 	0.67800 0.78179 0.09569 -0.45000
O 	O 	0.76837 0.81511 0.07261 -0.48400
C 	C 	0.67211 0.72275 0.98782 0.32700
O 	O 	0.65840 0.77123 0.99079 -0.45800
O 	O 	0.70984 0.71117 0.00740 -0.50700
C 	C 	0.78458 0.83977 0.03262 0.30200
O 	O 	0.69963 0.81668 0.89872 -0.32700
Zn	Zn	0.73396 0.75152 0.06423 1.17500
O 	O 	0.68571 0.86077 0.05470 -0.44300
C 	C 	0.68078 0.86203 0.89672 0.28600
O 	O 	0.67679 0.88547 0.94047 -0.38600
Zn	Zn	0.19039 0.66931 0.98975 1.22300
C 	C 	0.16945 0.69020 0.09486 0.32300
O 	O 	0.15403 0.73176 0.98451 -0.45300
O 	O 	0.18337 0.73903 0.08888 -0.45200
O 	O 	0.21082 0.78946 0.98820 -0.49600
C 	C 	0.27742 0.65599 0.02487 0.30200
O 	O 	0.25178 0.65245 0.98475 -0.45600
O 	O 	0.26964 0.69070 0.06084 -0.49000
C 	C 	0.17051 0.77886 0.97539 0.31900
O 	O 	0.18491 0.65773 0.89976 -0.32600
Zn	Zn	0.23852 0.75489 0.04601 1.17000
O 	O 	0.18182 0.65366 0.06271 -0.45000
C 	C 	0.15768 0.61990 0.91111 0.28700
O 	O 	0.15210 0.61178 0.95961 -0.38900
C 	C 	0.99261 0.53996 0.68775 0.14800
C 	C 	0.02712 0.55593 0.71947 -0.11400
H 	H 	0.05520 0.57574 0.70290 0.07000
C 	C 	0.02492 0.54707 0.77254 0.04900
C 	C 	0.98809 0.52204 0.79359 -0.08000
C 	C 	0.95315 0.50723 0.76218 0.05600
C 	C 	0.95556 0.51580 0.70919 -0.10700
H 	H 	0.92875 0.50405 0.68469 0.06900
N 	N 	0.99514 0.54856 0.63334 -0.17800
C 	C 	0.01187 0.51010 0.60248 0.18800
C 	C 	0.01438 0.51765 0.54907 -0.07700
C 	C 	0.99961 0.56494 0.52777 0.05500
C 	C 	0.98279 0.60408 0.55986 -0.07000
C 	C 	0.98081 0.59509 0.61310 0.19500
C 	C 	0.03130 0.47861 0.51674 -0.00700
C 	C 	0.03318 0.48662 0.46373 -0.02200
C 	C 	0.01814 0.53379 0.44215 -0.05200
C 	C 	0.00150 0.57303 0.47425 0.00500
C 	C 	0.98654 0.62022 0.45291 -0.04600
C 	C 	0.96813 0.65145 0.53831 -0.00600
C 	C 	0.97000 0.65946 0.48529 -0.02100
C 	C 	0.01912 0.54222 0.38880 0.18500
N 	N 	0.00360 0.58809 0.36841 -0.18100
C 	C 	0.98801 0.62718 0.39936 0.19100
C 	C 	0.00234 0.59449 0.31366 0.13000
C 	C 	0.03766 0.61774 0.28783 -0.10600
C 	C 	0.03744 0.62133 0.23421 0.05400
C 	C 	0.00200 0.60118 0.20642 -0.10000
C 	C 	0.96662 0.57758 0.23210 0.06000
C 	C 	0.96665 0.57512 0.28587 -0.09900
O 	O 	0.96504 0.63145 0.64364 -0.20200
O 	O 	0.02556 0.46587 0.62295 -0.20600
O 	O 	0.03460 0.50568 0.35824 -0.20700
O 	O 	0.97396 0.67121 0.37882 -0.20300
H 	H 	0.93951 0.55703 0.30605 0.06800
H 	H 	0.06536 0.63232 0.30938 0.06900
H 	H 	0.95518 0.68213 0.56247 0.04800
H 	H 	0.95844 0.69615 0.46954 0.05100
H 	H 	0.04294 0.44196 0.53250 0.04500
H 	H 	0.04622 0.45600 0.43959 0.04800
H 	H 	0.00269 0.60224 0.16487 0.05300
H 	H 	0.98640 0.51460 0.83450 0.05900
Zn	Zn	0.84548 0.40190 0.01304 1.22000
C 	C 	0.84216 0.40903 0.90277 0.32600
O 	O 	0.78506 0.42368 0.00328 -0.45400
O 	O 	0.80722 0.37877 0.90297 -0.44900
O 	O 	0.75787 0.34005 0.99775 -0.49900
C 	C 	0.88536 0.30086 0.99796 0.33200
O 	O 	0.87705 0.33849 0.03095 -0.46700
O 	O 	0.86397 0.29794 0.95465 -0.49700
C 	C 	0.75229 0.39024 0.00701 0.31900
O 	O 	0.83995 0.41686 0.10239 -0.32700
Zn	Zn	0.80300 0.31487 0.95202 1.17200
O 	O 	0.86740 0.41097 0.94317 -0.44100
C 	C 	0.86267 0.45927 0.09292 0.28300
O 	O 	0.87378 0.46626 0.04561 -0.39300
Zn	Zn	0.01525 0.02157 0.04139 1.22100
C 	C 	0.04578 0.92856 0.99171 0.32200
O 	O 	0.96032 0.98392 0.03252 -0.43900
O 	O 	0.02108 0.90414 0.02560 -0.45800
O 	O 	0.96664 0.94398 0.10988 -0.50000
C 	C 	0.09298 0.99869 0.09488 0.32500
O 	O 	0.06034 0.03097 0.09262 -0.48300
O 	O 	0.08548 0.94795 0.09936 -0.49100
C 	C 	0.94344 0.95484 0.06912 0.32800
O 	O 	0.97949 0.09060 0.08291 -0.32700
Zn	Zn	0.02627 0.92047 0.10258 1.17000
O 	O 	0.04886 0.98039 0.99205 -0.43400
C 	C 	0.98565 0.11683 0.04074 0.28500
O 	O 	0.00506 0.09126 0.00456 -0.39500
C 	C 	0.96507 0.16867 0.03220 -0.07200
C 	C 	0.97173 0.19783 0.98646 0.02500
C 	C 	0.94592 0.24161 0.97620 -0.00500
H 	H 	0.95016 0.26302 0.94049 0.04200
C 	C 	0.91514 0.25838 0.01200 -0.10900
C 	C 	0.91110 0.23195 0.05950 0.02900
C 	C 	0.93646 0.18786 0.06945 -0.02800
H 	H 	0.93238 0.16705 0.10549 0.05200
C 	C 	0.87918 0.24859 0.09838 0.01000
C 	C 	0.83460 0.24027 0.09004 -0.04800
C 	C 	0.80477 0.25280 0.12834 -0.02700
C 	C 	0.81930 0.27276 0.17531 -0.03100
C 	C 	0.86357 0.28170 0.18353 -0.02100
C 	C 	0.89350 0.26998 0.14509 -0.03900
C 	C 	0.00796 0.18611 0.95155 0.02100
C 	C 	0.00028 0.15842 0.90584 -0.04900
C 	C 	0.03487 0.14659 0.87332 -0.01500
C 	C 	0.07702 0.16310 0.88591 -0.03700
C 	C 	0.08461 0.19160 0.93093 -0.01800
C 	C 	0.05024 0.20287 0.96388 -0.04500
H 	H 	0.02902 0.12470 0.83837 0.03100
H 	H 	0.10375 0.15403 0.86066 0.03800
H 	H 	0.11704 0.20533 0.94012 0.03000
H 	H 	0.05640 0.22464 0.99889 0.04300
H 	H 	0.96771 0.14546 0.89596 0.04900
H 	H 	0.82319 0.22384 0.05410 0.01100
H 	H 	0.77043 0.24638 0.12189 0.02900
H 	H 	0.92779 0.27676 0.15184 0.04300
H 	H 	0.87473 0.29704 0.21997 0.03200
H 	H 	0.79634 0.28061 0.20560 0.03500
C 	C 	0.90997 0.42790 0.78700 -0.00400
C 	C 	0.88212 0.40379 0.82103 0.05900
C 	C 	0.85720 0.43360 0.85507 -0.11200
C 	C 	0.85898 0.48882 0.85163 0.02200
H 	H 	0.84063 0.51254 0.87819 0.02600
C 	C 	0.88734 0.51349 0.81680 -0.05400
H 	H 	0.89050 0.55607 0.81656 0.04600
C 	C 	0.91409 0.48301 0.78530 -0.00900
C 	C 	0.89384 0.39631 0.74253 -0.07000
H 	H 	0.86943 0.32670 0.78762 0.04500
H 	H 	0.91884 0.36940 0.72732 0.04800
H 	H 	0.82757 0.37761 0.77324 0.05100
H 	H 	0.87671 0.42004 0.71318 0.04600
C 	C 	0.86218 0.36895 0.78119 -0.09700
C 	C 	0.89203 0.47161 0.18135 0.05400
C 	C 	0.91731 0.50008 0.21473 -0.00800
C 	C 	0.93123 0.55169 0.20253 -0.01200
C 	C 	0.91370 0.57639 0.15912 -0.05300
H 	H 	0.92172 0.61718 0.15063 0.04300
C 	C 	0.88856 0.54691 0.12443 0.01000
H 	H 	0.87816 0.56481 0.08891 0.03200
C 	C 	0.87985 0.49326 0.13400 -0.09900
C 	C 	0.91894 0.42339 0.18602 -0.09200
H 	H 	0.98109 0.46363 0.20883 0.05100
H 	H 	0.93639 0.41288 0.15019 0.05800
H 	H 	0.94614 0.44106 0.26396 0.05000
H 	H 	0.90105 0.39041 0.20495 0.05400
C 	C 	0.94781 0.45596 0.22392 -0.07000
C 	C 	0.14172 0.82140 0.95685 -0.08200
C 	C 	0.15350 0.87551 0.96151 0.01700
C 	C 	0.12094 0.91335 0.96322 -0.01500
H 	H 	0.12960 0.95430 0.96974 0.04700
C 	C 	0.07723 0.89766 0.96240 -0.09000
C 	C 	0.06628 0.84596 0.94669 0.02700
C 	C 	0.09884 0.80823 0.94320 -0.02100
H 	H 	0.09017 0.76782 0.93413 0.04500
C 	C 	0.02040 0.83013 0.93821 0.00700
C 	C 	0.99522 0.85711 0.90220 -0.02200
C 	C 	0.95092 0.84548 0.89762 -0.02300
C 	C 	0.93167 0.80665 0.92855 -0.03200
C 	C 	0.95670 0.77914 0.96396 -0.01500
C 	C 	0.00096 0.79076 0.96886 -0.05000
C 	C 	0.19925 0.89315 0.96451 0.02900
C 	C 	0.22607 0.89049 0.92115 -0.05000
C 	C 	0.26920 0.90808 0.92397 -0.02100
C 	C 	0.28561 0.92838 0.96996 -0.03800
C 	C 	0.25875 0.93202 0.01294 -0.03000
C 	C 	0.21557 0.91470 0.01024 -0.06900
H 	H 	0.28994 0.90574 0.89060 0.03200
H 	H 	0.31923 0.94076 0.97246 0.04600
H 	H 	0.27143 0.94810 0.04839 0.03000
H 	H 	0.19483 0.91786 0.04354 0.04300
H 	H 	0.21354 0.87478 0.88543 0.04600
H 	H 	0.00983 0.88761 0.87843 0.03700
H 	H 	0.93148 0.86674 0.87025 0.03900
H 	H 	0.01993 0.77005 0.99716 0.03800
H 	H 	0.94176 0.74905 0.98783 0.03400
H 	H 	0.89736 0.79785 0.92502 0.03900
C 	C 	0.04922 0.59489 0.85120 -0.00800
C 	C 	0.08077 0.61214 0.88411 0.05800
C 	C 	0.12463 0.60232 0.87426 -0.09700
C 	C 	0.13588 0.57179 0.83154 0.01300
H 	H 	0.16943 0.56202 0.82452 0.03000
C 	C 	0.10342 0.55375 0.79780 -0.05200
H 	H 	0.11210 0.52999 0.76501 0.04600
C 	C 	0.05983 0.56674 0.80673 -0.00900
C 	C 	0.02699 0.64665 0.84981 -0.07800
H 	H 	0.05054 0.67583 0.92612 0.05200
H 	H 	0.99429 0.64471 0.86775 0.05300
H 	H 	0.08463 0.69710 0.86973 0.05700
H 	H 	0.02861 0.66648 0.81177 0.05100
C 	C 	0.06307 0.66646 0.88727 -0.09300
C 	C 	0.14305 0.62862 0.16357 0.06000
C 	C 	0.11197 0.61276 0.19801 -0.01000
C 	C 	0.07530 0.64366 0.20681 -0.01100
C 	C 	0.07341 0.69411 0.18477 -0.05900
H 	H 	0.04603 0.71915 0.19241 0.03400
C 	C 	0.10557 0.71074 0.15000 0.01600
H 	H 	0.10289 0.74864 0.13123 0.02000
C 	C 	0.13926 0.67656 0.13686 -0.11500
C 	C 	0.14438 0.57603 0.13786 -0.09500
H 	H 	0.12136 0.52835 0.20525 0.04500
H 	H 	0.17599 0.55632 0.14320 0.05200
H 	H 	0.07774 0.54771 0.15903 0.04400
H 	H 	0.13171 0.57599 0.09794 0.06100
C 	C 	0.10929 0.55789 0.17744 -0.06900
C 	C 	0.90258 0.92558 0.05952 -0.09300
C 	C 	0.86743 0.94997 0.03469 0.03600
C 	C 	0.83000 0.92045 0.02307 -0.02300
H 	H 	0.80266 0.93956 0.00520 0.04400
C 	C 	0.82670 0.86724 0.03688 -0.07700
C 	C 	0.86241 0.84219 0.05982 0.01500
C 	C 	0.90007 0.87155 0.07098 -0.00700
H 	H 	0.92764 0.85218 0.08805 0.01900
C 	C 	0.85995 0.78557 0.07375 0.01200
C 	C 	0.85254 0.74728 0.03573 -0.07900
C 	C 	0.84323 0.69508 0.04962 -0.04300
C 	C 	0.84187 0.68074 0.10133 -0.06100
C 	C 	0.85119 0.71814 0.13920 -0.03300
C 	C 	0.86021 0.77048 0.12554 -0.05800
C 	C 	0.86874 0.00677 0.02245 0.00200
C 	C 	0.87980 0.02378 0.97284 -0.02700
C 	C 	0.87864 0.07736 0.96051 -0.02800
C 	C 	0.86564 0.11393 0.99724 -0.02100
C 	C 	0.85498 0.09717 0.04683 -0.03500
C 	C 	0.85668 0.04373 0.05954 -0.03500
H 	H 	0.88747 0.09050 0.92236 0.03400
H 	H 	0.86400 0.15526 0.98735 0.02800
H 	H 	0.84533 0.12554 0.07537 0.03600
H 	H 	0.84813 0.03096 0.09793 0.04200
H 	H 	0.88926 0.99551 0.94399 0.04900
H 	H 	0.85222 0.75841 0.99566 0.04600
H 	H 	0.83626 0.66598 0.02035 0.02500
H 	H 	0.86590 0.79961 0.15521 0.04200
H 	H 	0.85059 0.70678 0.17919 0.02900
H 	H 	0.83306 0.64082 0.11210 0.03000
C 	C 	0.61861 0.83750 0.84116 0.05500
C 	C 	0.58454 0.85172 0.81087 -0.00600
C 	C 	0.58167 0.90330 0.79201 -0.01100
C 	C 	0.61328 0.94102 0.80596 -0.05000
H 	H 	0.61070 0.98144 0.79309 0.04800
C 	C 	0.64791 0.92659 0.83741 0.01400
H 	H 	0.67159 0.95613 0.84924 0.03400
C 	C 	0.65113 0.87436 0.85468 -0.09600
C 	C 	0.62755 0.78902 0.81078 -0.09200
H 	H 	0.56021 0.77741 0.78012 0.04800
H 	H 	0.62127 0.75224 0.83286 0.05500
H 	H 	0.59827 0.81508 0.73668 0.04800
H 	H 	0.65899 0.79074 0.78983 0.06000
C 	C 	0.58845 0.80498 0.77660 -0.07000
C 	C 	0.56947 0.88270 0.15413 -0.01100
C 	C 	0.59637 0.85414 0.12358 0.06100
C 	C 	0.64145 0.85702 0.13013 -0.11500
C 	C 	0.65909 0.89209 0.16643 0.02200
H 	H 	0.69393 0.89688 0.17008 0.02800
C 	C 	0.63157 0.92138 0.19780 -0.05600
H 	H 	0.64526 0.94842 0.22574 0.04700
C 	C 	0.58638 0.91578 0.19260 -0.00700
C 	C 	0.54006 0.83685 0.16530 -0.06800
H 	H 	0.55514 0.79109 0.09417 0.05000
H 	H 	0.50721 0.84175 0.14864 0.04400
H 	H 	0.58834 0.77334 0.15189 0.05300
H 	H 	0.54071 0.82392 0.20606 0.04800
C 	C 	0.57075 0.80428 0.13041 -0.09700
C 	C 	0.21937 0.05715 0.05387 -0.08100
C 	C 	0.18444 0.06117 0.01928 0.00800
C 	C 	0.14308 0.04339 0.03393 -0.01400
H 	H 	0.11593 0.04857 0.00813 0.03200
C 	C 	0.13669 0.01800 0.08116 -0.09500
C 	C 	0.17219 0.01063 0.11429 0.02200
C 	C 	0.21318 0.03096 0.10078 -0.02300
H 	H 	0.24019 0.02687 0.12701 0.04000
C 	C 	0.16659 0.98274 0.16359 0.01500
C 	C 	0.14658 0.00785 0.20505 -0.05800
C 	C 	0.14060 0.98099 0.25141 -0.01900
C 	C 	0.15470 0.92917 0.25661 -0.04500
C 	C 	0.17491 0.90415 0.21549 -0.02700
C 	C 	0.18101 0.93087 0.16908 -0.04900
C 	C 	0.19108 0.08271 0.96727 0.02900
C 	C 	0.19838 0.04855 0.92601 -0.04400
C 	C 	0.20702 0.06901 0.87723 -0.01600
C 	C 	0.20810 0.12351 0.86941 -0.03600
C 	C 	0.20064 0.15766 0.91040 -0.02300
C 	C 	0.19208 0.13737 0.95928 -0.05500
H 	H 	0.21297 0.04263 0.84552 0.03300
H 	H 	0.21458 0.13926 0.83157 0.03500
H 	H 	0.20118 0.19982 0.90424 0.02800
H 	H 	0.18659 0.16402 0.99095 0.02900
H 	H 	0.19792 0.00634 0.93190 0.05000
H 	H 	0.13549 0.04795 0.20122 0.04300
H 	H 	0.12501 0.00032 0.28330 0.02600
H 	H 	0.19677 0.91128 0.13745 0.03000
H 	H 	0.18584 0.86405 0.21959 0.02600
H 	H 	0.14999 0.90842 0.29250 0.03500
C 	C 	0.42338 0.02736 0.78923 -0.00800
C 	C 	0.39611 0.04931 0.82449 0.05900
C 	C 	0.37607 0.01813 0.86249 -0.10300
C 	C 	0.38350 0.96365 0.86331 0.01700
H 	H 	0.36913 0.93911 0.89296 0.03000
C 	C 	0.41115 0.94118 0.82712 -0.05500
H 	H 	0.41788 0.89946 0.82910 0.04300
C 	C 	0.43207 0.97318 0.79038 -0.00800
C 	C 	0.40172 0.05328 0.74489 -0.07000
H 	H 	0.33673 0.06440 0.78124 0.05500
H 	H 	0.38435 0.02526 0.71900 0.04500
H 	H 	0.37548 0.12182 0.78824 0.05300
H 	H 	0.42327 0.08260 0.72545 0.04800
C 	C 	0.37095 0.07844 0.78506 -0.09300
C 	C 	0.46789 0.09058 0.18872 -0.01100
C 	C 	0.43837 0.11362 0.15699 0.06100
C 	C 	0.40222 0.08468 0.13904 -0.11800
C 	C 	0.39332 0.03450 0.15975 0.02300
H 	H 	0.36437 0.01269 0.14856 0.03000
C 	C 	0.42347 0.01100 0.19221 -0.06100
H 	H 	0.41780 0.97109 0.20571 0.04800
C 	C 	0.46237 0.03772 0.20392 -0.00700
C 	C 	0.50601 0.11035 0.15848 -0.06800
H 	H 	0.47221 0.11941 0.08315 0.05500
H 	H 	0.52442 0.07887 0.13890 0.04400
H 	H 	0.47356 0.18041 0.12389 0.05100
H 	H 	0.52607 0.13943 0.18019 0.04400
C 	C 	0.47234 0.13664 0.12236 -0.09700
C 	C 	0.40085 0.23844 0.95559 -0.09000
C 	C 	0.38478 0.27588 0.92065 0.03000
C 	C 	0.40743 0.32375 0.91344 -0.02800
H 	H 	0.39355 0.35434 0.88981 0.04200
C 	C 	0.44597 0.33394 0.94027 -0.06300
C 	C 	0.46579 0.29246 0.96719 0.01100
C 	C 	0.44280 0.24512 0.97537 -0.01000
H 	H 	0.45652 0.21487 0.99956 0.04400
C 	C 	0.51055 0.29826 0.98668 0.03200
C 	C 	0.51824 0.31901 0.03575 -0.06200
C 	C 	0.56071 0.32421 0.05407 -0.00300
C 	C 	0.59549 0.30771 0.02400 -0.05400
C 	C 	0.58786 0.28561 0.97572 -0.00400
C 	C 	0.54548 0.28090 0.95699 -0.06000
C 	C 	0.34459 0.26501 0.89133 0.01300
C 	C 	0.34220 0.22174 0.85787 -0.04400
C 	C 	0.30432 0.21173 0.82990 -0.01900
C 	C 	0.26891 0.24506 0.83480 -0.03900
C 	C 	0.27098 0.28786 0.86844 -0.02400
C 	C 	0.30868 0.29787 0.89675 -0.04600
H 	H 	0.30244 0.17820 0.80436 0.03400
H 	H 	0.23973 0.23747 0.81284 0.03400
H 	H 	0.24334 0.31326 0.87261 0.03000
H 	H 	0.30999 0.33099 0.92290 0.04000
H 	H 	0.36963 0.19599 0.85362 0.04900
H 	H 	0.49141 0.33127 0.05951 0.05000
H 	H 	0.56668 0.34122 0.09147 0.02700
H 	H 	0.53983 0.26427 0.91932 0.04700
H 	H 	0.61482 0.27286 0.95249 0.02500
H 	H 	0.62835 0.31216 0.03804 0.04100
C 	C 	0.31651 0.62322 0.02828 -0.08100
C 	C 	0.31578 0.56990 0.01243 0.01600
C 	C 	0.35416 0.54092 0.01334 -0.02200
H 	H 	0.35392 0.50056 0.99968 0.04800
C 	C 	0.39277 0.56368 0.03195 -0.08200
C 	C 	0.39278 0.61590 0.05072 0.02400
C 	C 	0.35489 0.64542 0.04816 -0.02000
H 	H 	0.35543 0.68599 0.06122 0.02900
C 	C 	0.43235 0.64011 0.07289 -0.00000
C 	C 	0.44323 0.63042 0.12421 -0.06200
C 	C 	0.48248 0.64969 0.14398 -0.05100
C 	C 	0.51063 0.67933 0.11289 -0.06600
C 	C 	0.49905 0.69097 0.06238 -0.03400
C 	C 	0.45980 0.67175 0.04242 -0.05600
C 	C 	0.27483 0.54359 0.99657 0.03300
C 	C 	0.26772 0.53113 0.94483 -0.04800
C 	C 	0.22841 0.50780 0.92964 -0.02000
C 	C 	0.19621 0.49659 0.96601 -0.02800
C 	C 	0.20322 0.50879 0.01762 -0.02600
C 	C 	0.24247 0.53211 0.03300 -0.06100
H 	H 	0.22279 0.49871 0.88966 0.03400
H 	H 	0.16569 0.47891 0.95412 0.04000
H 	H 	0.17817 0.50037 0.04567 0.03200
H 	H 	0.24757 0.54178 0.07300 0.04700
H 	H 	0.29240 0.54008 0.91641 0.05000
H 	H 	0.42186 0.60677 0.14825 0.04300
H 	H 	0.49132 0.64115 0.18321 0.02300
H 	H 	0.45141 0.67998 0.00294 0.04800
H 	H 	0.52087 0.71400 0.03843 0.03200
H 	H 	0.54152 0.69291 0.12782 0.02800
C 	C 	0.70802 0.41012 0.01199 -0.09300
C 	C 	0.68911 0.41822 0.06051 0.02300
C 	C 	0.64670 0.43705 0.06396 -0.01500
H 	H 	0.63242 0.44392 0.10132 0.03100
C 	C 	0.62261 0.44706 0.01956 -0.09200
C 	C 	0.64133 0.43752 0.97076 0.02500
C 	C 	0.68383 0.41900 0.96763 -0.00800
H 	H 	0.69822 0.41176 0.93038 0.03300
C 	C 	0.61782 0.44868 0.92256 0.01300
C 	C 	0.63433 0.48694 0.88839 -0.04600
C 	C 	0.61457 0.49448 0.84083 -0.01500
C 	C 	0.57990 0.46198 0.82585 -0.03500
C 	C 	0.56486 0.42199 0.85848 -0.01600
C 	C 	0.58344 0.41565 0.90694 -0.05500
C 	C 	0.71280 0.40559 0.10793 0.00900
C 	C 	0.74255 0.44209 0.12865 -0.04400
C 	C 	0.76216 0.43206 0.17587 -0.01400
C 	C 	0.75238 0.38547 0.20235 -0.03700
C 	C 	0.72289 0.34886 0.18170 -0.02300
C 	C 	0.70321 0.35874 0.13450 -0.04800
H 	H 	0.78519 0.46023 0.19174 0.03700
H 	H 	0.76777 0.37763 0.23877 0.03600
H 	H 	0.71531 0.31282 0.20227 0.03000
H 	H 	0.68016 0.33040 0.11889 0.03800
H 	H 	0.75057 0.47796 0.10812 0.04700
H 	H 	0.66260 0.51051 0.89861 0.04300
H 	H 	0.62665 0.52493 0.81523 0.03300
H 	H 	0.57139 0.38492 0.93206 0.05700
H 	H 	0.53886 0.39582 0.84618 0.04500
H 	H 	0.56502 0.46734 0.78870 0.03900
C 	C 	0.57859 0.60720 0.94037 -0.08300
C 	C 	0.57485 0.65970 0.92360 0.02100
C 	C 	0.60765 0.69665 0.93553 -0.01800
H 	H 	0.60381 0.73757 0.92475 0.04600
C 	C 	0.64435 0.68140 0.96348 -0.08600
C 	C 	0.65109 0.62697 0.97213 0.02100
C 	C 	0.61820 0.59059 0.96021 -0.02600
H 	H 	0.62202 0.55001 0.97102 0.05000
C 	C 	0.69190 0.60727 0.99399 0.03400
C 	C 	0.69594 0.60047 0.04716 -0.06800
C 	C 	0.73442 0.58121 0.06770 -0.02400
C 	C 	0.76831 0.56679 0.03522 -0.05300
C 	C 	0.76394 0.57210 0.98214 -0.00300
C 	C 	0.72584 0.59241 0.96147 -0.05400
C 	C 	0.53683 0.67618 0.89339 0.01500
C 	C 	0.52718 0.65141 0.84657 -0.04500
C 	C 	0.49232 0.66846 0.81698 -0.01900
C 	C 	0.46704 0.71026 0.83388 -0.03700
C 	C 	0.47648 0.73501 0.88048 -0.02000
C 	C 	0.51127 0.71810 0.91024 -0.04600
H 	H 	0.48501 0.64942 0.78085 0.03500
H 	H 	0.44017 0.72352 0.81084 0.03900
H 	H 	0.45691 0.76741 0.89347 0.03200
H 	H 	0.51856 0.73776 0.94608 0.04300
H 	H 	0.54689 0.61934 0.83296 0.04700
H 	H 	0.66956 0.61086 0.07247 0.03200
H 	H 	0.73790 0.57719 0.10878 0.01900
H 	H 	0.72262 0.59640 0.92031 0.04600
H 	H 	0.79006 0.56051 0.95703 0.03300
H 	H 	0.79790 0.55136 0.05117 0.04200
