data_crystal

_cell_length_a 19.87034
_cell_length_b 21.32294
_cell_length_c 32.94146
_cell_angle_alpha 60.77224
_cell_angle_beta  118.93295
_cell_angle_gamma 133.29039

_symmetry_space_group_name_	'P 1'
_symmetry_space_group_name_H-M	'P 1'

loop_
_symmetry_equiv_pos_as_xyz
  x,y,z

loop_
_atom_site_label
_atom_site_type_symbol
_atom_site_fract_x
_atom_site_fract_y
_atom_site_fract_z
_atom_site_charge
C 	C 	0.76502 0.30651 0.02648 0.12000
N 	N 	0.80154 0.38933 0.02574 -0.14500
C 	C 	0.76504 0.39796 0.04710 0.11800
N 	N 	0.68801 0.32538 0.06514 -0.14100
C 	C 	0.64512 0.24448 0.06097 0.12100
N 	N 	0.68502 0.23456 0.04290 -0.14800
C 	C 	0.73251 0.31345 0.50803 0.12000
N 	N 	0.77932 0.39365 0.51575 -0.14200
C 	C 	0.74074 0.40290 0.53544 0.12300
N 	N 	0.65783 0.33198 0.54866 -0.14000
C 	C 	0.61016 0.25310 0.54016 0.12500
N 	N 	0.64665 0.24408 0.51931 -0.14500
C 	C 	0.28404 0.62550 0.20847 0.11800
N 	N 	0.22767 0.54499 0.19820 -0.14300
C 	C 	0.26828 0.50791 0.20438 0.12000
N 	N 	0.36367 0.55192 0.21991 -0.13900
C 	C 	0.41962 0.63724 0.22192 0.12400
N 	N 	0.38025 0.67060 0.22108 -0.13900
C 	C 	0.25303 0.63832 0.68815 0.12100
N 	N 	0.34814 0.69519 0.69174 -0.14100
C 	C 	0.39043 0.67679 0.68163 0.12700
N 	N 	0.34393 0.59367 0.67943 -0.14000
C 	C 	0.25028 0.53328 0.67877 0.12100
N 	N 	0.20298 0.55593 0.68173 -0.14300
Co	Co	0.08829 0.01940 0.04917 1.16400
Co	Co	0.94376 0.93769 0.15271 1.18900
Co	Co	0.02600 0.10156 0.07783 1.17100
Co	Co	0.99212 0.85003 0.11880 1.18500
C 	C 	0.26400 0.02809 0.07518 0.25500
Co	Co	0.08131 0.85817 0.05447 1.16900
Co	Co	0.90160 0.07787 0.12953 1.16400
C 	C 	0.87964 0.71959 0.05571 0.29600
O 	O 	0.82752 0.07405 0.05946 -0.39500
O 	O 	0.95494 0.03222 0.11729 -0.76700
C 	C 	0.87286 0.13646 0.02523 0.28500
O 	O 	0.10680 0.13128 0.04108 -0.48200
O 	O 	0.94623 0.83346 0.16945 -0.46600
C 	C 	0.76502 0.87646 0.16286 0.30900
O 	O 	0.98557 0.96700 0.08897 -0.56000
C 	C 	0.09951 0.23456 0.12317 0.30900
C 	C 	0.05869 0.98045 0.96149 0.35300
C 	C 	0.10025 0.77562 0.15778 0.30800
O 	O 	0.94467 0.14703 0.02206 -0.37600
O 	O 	0.11199 0.95349 0.99088 -0.40100
O 	O 	0.03978 0.01340 0.97673 -0.41800
O 	O 	0.78700 0.95446 0.15553 -0.37800
O 	O 	0.80022 0.86752 0.14266 -0.39200
O 	O 	0.01128 0.20796 0.10616 -0.41800
O 	O 	0.12510 0.19558 0.11849 -0.40400
O 	O 	0.05825 0.75724 0.11628 -0.41400
O 	O 	0.09736 0.82959 0.16490 -0.39000
O 	O 	0.04442 0.91151 0.07234 -0.74700
C 	C 	0.98767 0.01313 0.22953 0.24400
O 	O 	0.98609 0.08099 0.19838 -0.38600
O 	O 	0.00579 0.97353 0.21863 -0.35400
O 	O 	0.22124 0.94180 0.08622 -0.36200
O 	O 	0.22853 0.05989 0.07854 -0.40200
O 	O 	0.93722 0.78301 0.02643 -0.39100
O 	O 	0.88182 0.73633 0.09094 -0.37500
Co	Co	0.06854 0.02438 0.54411 1.16600
Co	Co	0.91354 0.93321 0.64557 1.19300
Co	Co	0.02627 0.11003 0.58334 1.17200
Co	Co	0.95621 0.84866 0.60654 1.18500
C 	C 	0.23944 0.02673 0.57194 0.26000
Co	Co	0.05695 0.86212 0.54615 1.17100
Co	Co	0.92223 0.08958 0.64596 1.16700
C 	C 	0.85254 0.72771 0.53955 0.29900
O 	O 	0.95637 0.20040 0.58885 -0.40900
O 	O 	0.95312 0.03983 0.62154 -0.77500
C 	C 	0.92704 0.19489 0.54488 0.31600
O 	O 	0.09525 0.13790 0.54033 -0.47500
O 	O 	0.89559 0.82218 0.65330 -0.46500
C 	C 	0.73825 0.92634 0.62387 0.34300
O 	O 	0.96481 0.97303 0.58283 -0.56000
C 	C 	0.12672 0.21992 0.65586 0.30100
C 	C 	0.04607 0.99318 0.45530 0.40000
C 	C 	0.05819 0.76762 0.64822 0.30800
O 	O 	0.94625 0.15817 0.53333 -0.39100
O 	O 	0.09609 0.96267 0.48506 -0.41200
O 	O 	0.02767 0.02648 0.47069 -0.43000
O 	O 	0.78681 0.01326 0.60858 -0.42900
O 	O 	0.77138 0.88283 0.63197 -0.38100
O 	O 	0.06229 0.15592 0.68095 -0.41200
O 	O 	0.13781 0.20370 0.62577 -0.38900
O 	O 	0.02345 0.75533 0.60551 -0.41300
O 	O 	0.05380 0.82020 0.65560 -0.39400
O 	O 	0.01860 0.91481 0.56382 -0.74300
C 	C 	0.94603 0.96440 0.73506 0.31100
O 	O 	0.88767 0.98594 0.70674 -0.39100
O 	O 	0.97793 0.94784 0.71683 -0.37400
O 	O 	0.19537 0.94047 0.58182 -0.36200
O 	O 	0.20553 0.05797 0.57700 -0.40200
O 	O 	0.91500 0.79291 0.51305 -0.38700
O 	O 	0.84729 0.74196 0.57304 -0.37400
C 	C 	0.03221 0.98403 0.91087 -0.09200
C 	C 	0.01593 0.98025 0.87091 0.04600
C 	C 	0.99826 0.97243 0.82507 0.03500
C 	C 	0.97938 0.96649 0.78523 -0.08000
C 	C 	0.02481 0.00173 0.40441 -0.16800
C 	C 	0.01389 0.00204 0.36441 0.06100
C 	C 	0.00519 0.00009 0.31886 -0.02800
C 	C 	0.99831 0.00153 0.27944 -0.05700
C 	C 	0.22004 0.38707 0.71195 -0.07800
C 	C 	0.20107 0.44543 0.67259 -0.03300
C 	C 	0.17045 0.43537 0.62598 0.07800
C 	C 	0.16404 0.37030 0.61975 -0.03000
C 	C 	0.18170 0.31126 0.65943 -0.10900
C 	C 	0.21854 0.32572 0.70540 0.12200
N 	N 	0.25041 0.27899 0.74361 -0.20100
H 	H 	0.24581 0.39576 0.74762 0.05400
H 	H 	0.13777 0.36111 0.58419 0.04600
N 	N 	0.14805 0.48857 0.58708 -0.19500
H 	H 	0.27387 0.28671 0.77799 0.08400
H 	H 	0.25535 0.23708 0.73916 0.09300
H 	H 	0.14441 0.53202 0.59082 0.08800
H 	H 	0.13195 0.48546 0.55258 0.08100
C 	C 	0.55385 0.81438 0.68735 -0.07400
C 	C 	0.47467 0.74982 0.66200 -0.03200
C 	C 	0.47740 0.75543 0.61807 0.08200
C 	C 	0.56467 0.81445 0.60554 -0.02100
C 	C 	0.64533 0.87604 0.63240 -0.11000
C 	C 	0.63736 0.88143 0.67093 0.12700
N 	N 	0.70784 0.95198 0.69100 -0.17800
H 	H 	0.54981 0.81362 0.71929 0.06000
H 	H 	0.56939 0.81381 0.57430 0.04700
N 	N 	0.39623 0.70828 0.58686 -0.19300
H 	H 	0.70551 0.95061 0.72247 0.09200
H 	H 	0.75967 0.01184 0.67317 0.04400
H 	H 	0.32963 0.67845 0.59033 0.09200
H 	H 	0.39956 0.70774 0.55633 0.08800
C 	C 	0.21381 0.79711 0.67749 -0.03600
C 	C 	0.12098 0.74027 0.68293 -0.10200
C 	C 	0.07981 0.64819 0.70135 0.11400
C 	C 	0.12198 0.61442 0.70219 -0.07200
C 	C 	0.20373 0.67195 0.68421 -0.03500
C 	C 	0.24660 0.76483 0.66884 0.08600
N 	N 	0.30923 0.82061 0.64043 -0.19500
H 	H 	0.25110 0.86823 0.66924 0.06100
H 	H 	0.09081 0.54403 0.71635 0.05300
N 	N 	0.99891 0.59207 0.71696 -0.20100
H 	H 	0.34725 0.88938 0.63318 0.09800
H 	H 	0.31195 0.79627 0.62080 0.09500
H 	H 	0.96758 0.61625 0.71693 0.09200
H 	H 	0.96810 0.52405 0.73047 0.08500
C 	C 	0.17829 0.29136 0.19465 -0.03300
C 	C 	0.16861 0.31006 0.14574 -0.10700
C 	C 	0.19288 0.39522 0.11669 0.11900
C 	C 	0.21036 0.45403 0.13482 -0.07500
C 	C 	0.21451 0.43339 0.18315 -0.03400
C 	C 	0.19720 0.35054 0.21324 0.08000
N 	N 	0.19731 0.32689 0.25979 -0.19500
H 	H 	0.16329 0.22738 0.21761 0.05000
H 	H 	0.22716 0.51866 0.11200 0.04900
N 	N 	0.19880 0.42061 0.07116 -0.20400
H 	H 	0.18689 0.26674 0.28225 0.08700
H 	H 	0.20442 0.36651 0.27363 0.09000
H 	H 	0.19122 0.38002 0.05786 0.09000
H 	H 	0.21386 0.48252 0.04909 0.08200
C 	C 	0.59484 0.72427 0.24163 -0.07200
C 	C 	0.50909 0.69864 0.20687 -0.03100
C 	C 	0.50771 0.71987 0.15853 0.08200
C 	C 	0.59211 0.76553 0.14623 -0.02400
C 	C 	0.67887 0.79796 0.18010 -0.10400
C 	C 	0.67983 0.77280 0.22873 0.12100
N 	N 	0.76191 0.79420 0.26309 -0.20200
H 	H 	0.59520 0.70479 0.27889 0.05500
H 	H 	0.59150 0.78352 0.10910 0.05100
N 	N 	0.42608 0.69862 0.12366 -0.19500
H 	H 	0.76342 0.77919 0.29872 0.09300
H 	H 	0.82375 0.82226 0.25504 0.09100
H 	H 	0.36456 0.67411 0.13034 0.09000
H 	H 	0.42474 0.71042 0.08861 0.08500
C 	C 	0.15968 0.61639 0.21857 -0.07400
C 	C 	0.24163 0.66784 0.20197 -0.03200
C 	C 	0.28810 0.76130 0.18376 0.08400
C 	C 	0.25420 0.80037 0.18514 -0.03500
C 	C 	0.16287 0.74741 0.19214 -0.10200
C 	C 	0.12026 0.65569 0.21401 0.11700
N 	N 	0.03975 0.60460 0.22910 -0.20300
H 	H 	0.12608 0.54588 0.23472 0.05300
H 	H 	0.29121 0.87175 0.17234 0.06000
N 	N 	0.35862 0.81215 0.16084 -0.19500
H 	H 	0.00646 0.53638 0.24403 0.08200
H 	H 	0.01103 0.63290 0.22714 0.09000
H 	H 	0.36766 0.78363 0.14738 0.09500
H 	H 	0.39807 0.88143 0.15152 0.09700
C 	C 	0.92568 0.32663 0.50161 -0.01400
C 	C 	0.87769 0.23557 0.50825 -0.11500
C 	C 	0.77737 0.18121 0.49456 0.12200
C 	C 	0.72775 0.21288 0.48634 -0.07900
C 	C 	0.77775 0.29805 0.49169 -0.03100
C 	C 	0.87573 0.35910 0.49185 0.07500
N 	N 	0.91944 0.44812 0.47832 -0.19200
H 	H 	0.00233 0.37112 0.50676 0.03100
H 	H 	0.65076 0.16906 0.47921 0.05500
N 	N 	0.72850 0.09728 0.49173 -0.20200
H 	H 	0.99307 0.49254 0.48204 0.08500
H 	H 	0.87980 0.47375 0.45926 0.09500
H 	H 	0.76383 0.07390 0.49556 0.09400
H 	H 	0.65419 0.05553 0.48408 0.08100
C 	C 	0.76152 0.54589 0.49406 -0.07600
C 	C 	0.78076 0.49126 0.53660 -0.03300
C 	C 	0.81184 0.50917 0.58090 0.08200
C 	C 	0.81951 0.57915 0.58184 -0.02800
C 	C 	0.80397 0.63594 0.53914 -0.10500
C 	C 	0.76856 0.61536 0.49509 0.12100
N 	N 	0.74011 0.66147 0.45380 -0.20100
H 	H 	0.73452 0.53044 0.46021 0.05400
H 	H 	0.84501 0.59360 0.61578 0.05200
N 	N 	0.83557 0.46009 0.62256 -0.19400
H 	H 	0.71758 0.64867 0.42103 0.08800
H 	H 	0.73634 0.70771 0.45416 0.10100
H 	H 	0.83906 0.41331 0.62268 0.09100
H 	H 	0.85372 0.47036 0.65536 0.08600
C 	C 	0.44065 0.19058 0.50963 -0.07200
C 	C 	0.51250 0.18340 0.54582 -0.03600
C 	C 	0.49407 0.12371 0.59084 0.07600
C 	C 	0.40605 0.07712 0.59989 -0.03600
C 	C 	0.33569 0.08761 0.56432 -0.09900
C 	C 	0.35391 0.14643 0.51901 0.11200
N 	N 	0.28950 0.16241 0.48483 -0.19900
H 	H 	0.45517 0.23636 0.47509 0.05300
H 	H 	0.39173 0.03157 0.63447 0.03400
N 	N 	0.56018 0.11031 0.62525 -0.19600
H 	H 	0.30100 0.20147 0.45053 0.08700
H 	H 	0.23046 0.14074 0.49259 0.08000
H 	H 	0.62391 0.13991 0.61849 0.08600
H 	H 	0.54690 0.06749 0.65884 0.07500
C 	C 	0.74127 0.23077 0.97768 -0.05600
C 	C 	0.80526 0.29405 0.00519 -0.05200
C 	C 	0.90281 0.32751 0.02040 0.08500
C 	C 	0.92961 0.28882 0.01240 -0.04400
C 	C 	0.85980 0.20817 0.99875 -0.08200
C 	C 	0.76735 0.18585 0.97538 0.11000
N 	N 	0.70260 0.11932 0.95241 -0.20000
H 	H 	0.66870 0.21053 0.96198 0.05200
H 	H 	0.00368 0.31434 0.02328 0.05000
N 	N 	0.96995 0.39369 0.04380 -0.19300
H 	H 	0.63303 0.10067 0.93647 0.08200
H 	H 	0.72187 0.08739 0.94910 0.09100
H 	H 	0.95211 0.41214 0.05890 0.09500
H 	H 	0.04199 0.42363 0.04996 0.08200
C 	C 	0.85616 0.57544 0.09673 -0.03000
C 	C 	0.82930 0.62716 0.05613 -0.10500
C 	C 	0.78090 0.60220 0.01227 0.11700
C 	C 	0.77187 0.53393 0.00829 -0.08800
C 	C 	0.80417 0.48580 0.04825 -0.03000
C 	C 	0.84891 0.50830 0.09267 0.08000
N 	N 	0.88640 0.46661 0.13129 -0.19400
H 	H 	0.89079 0.59269 0.13078 0.05300
H 	H 	0.73436 0.51464 0.97467 0.06600
N 	N 	0.74256 0.64337 0.97398 -0.19600
H 	H 	0.91695 0.48155 0.16438 0.08800
H 	H 	0.88885 0.42162 0.12836 0.09000
H 	H 	0.74189 0.68940 0.97709 0.10300
H 	H 	0.70979 0.62714 0.94108 0.09200
C 	C 	0.47586 0.17715 0.02301 -0.08600
C 	C 	0.54584 0.17541 0.06396 -0.03300
C 	C 	0.52253 0.12459 0.10896 0.07400
C 	C 	0.43134 0.08175 0.11263 -0.03600
C 	C 	0.36302 0.08785 0.07196 -0.09600
C 	C 	0.38614 0.13762 0.02687 0.10300
N 	N 	0.32337 0.14944 0.98742 -0.19500
H 	H 	0.49407 0.21608 0.98850 0.06300
H 	H 	0.41274 0.04181 0.14702 0.03600
N 	N 	0.58701 0.11594 0.14856 -0.19600
H 	H 	0.33897 0.18225 0.95376 0.08400
H 	H 	0.26109 0.13055 0.99011 0.08600
H 	H 	0.65322 0.14242 0.14627 0.08500
H 	H 	0.57013 0.07994 0.18198 0.07800
