data_crystal

_cell_length_a 24.15757
_cell_length_b 23.49723
_cell_length_c 25.30221
_cell_angle_alpha 89.99972
_cell_angle_beta  90.00458
_cell_angle_gamma 90.00085

_symmetry_space_group_name_	'P 1'
_symmetry_space_group_name_H-M	'P 1'

loop_
_symmetry_equiv_pos_as_xyz
  x,y,z

loop_
_atom_site_label
_atom_site_type_symbol
_atom_site_fract_x
_atom_site_fract_y
_atom_site_fract_z
_atom_site_charge
Co	Co	0.78851 0.43140 0.93109 1.19500
O 	O 	0.75593 0.40200 0.85951 -0.33600
Co	Co	0.80695 0.45302 0.06041 1.19000
O 	O 	0.76633 0.39155 0.99954 -0.42900
O 	O 	0.78459 0.52450 0.02528 -0.40700
O 	O 	0.82367 0.35842 0.89297 -0.29100
C 	C 	0.74174 0.52803 0.99317 0.36900
O 	O 	0.72436 0.42031 0.06936 -0.33900
C 	C 	0.86103 0.42889 0.14528 0.31100
C 	C 	0.88195 0.47864 0.96877 0.32400
O 	O 	0.84368 0.47862 0.13146 -0.32400
O 	O 	0.84592 0.39107 0.11120 -0.31100
O 	O 	0.86119 0.48248 0.92162 -0.30100
O 	O 	0.85646 0.44037 0.99640 -0.42400
O 	O 	0.73878 0.49724 0.94894 -0.51400
C 	C 	0.78993 0.36009 0.85354 0.31200
C 	C 	0.71954 0.39522 0.02392 0.31500
H 	H 	0.70812 0.50552 0.92266 0.19900
Co	Co	0.56152 0.78711 0.93648 1.19000
O 	O 	0.58377 0.74712 0.86582 -0.35700
Co	Co	0.54842 0.81532 0.06473 1.19300
O 	O 	0.60282 0.76636 0.00401 -0.45700
O 	O 	0.47544 0.79500 0.03437 -0.37700
O 	O 	0.63215 0.81593 0.89288 -0.32000
C 	C 	0.46663 0.75046 0.00366 0.35600
O 	O 	0.57658 0.72951 0.07703 -0.31900
C 	C 	0.57978 0.87458 0.14509 0.31200
C 	C 	0.52246 0.88812 0.97048 0.33900
O 	O 	0.52971 0.85933 0.13443 -0.31300
O 	O 	0.61356 0.85450 0.11027 -0.32100
O 	O 	0.51488 0.86359 0.92507 -0.32800
O 	O 	0.55989 0.86164 0.99767 -0.44300
O 	O 	0.49727 0.74009 0.96091 -0.51400
C 	C 	0.62633 0.77856 0.85600 0.32400
C 	C 	0.59838 0.71984 0.03097 0.31800
H 	H 	0.48777 0.70613 0.93790 0.19100
Co	Co	0.42710 0.22187 0.91691 1.20000
O 	O 	0.40132 0.25506 0.84417 -0.31000
Co	Co	0.45065 0.19925 0.04507 1.19000
O 	O 	0.39028 0.24616 0.98712 -0.43200
O 	O 	0.52003 0.21962 0.00852 -0.41100
O 	O 	0.35444 0.18913 0.87854 -0.30500
C 	C 	0.52480 0.26422 0.97732 0.37300
O 	O 	0.42352 0.28480 0.05700 -0.33300
C 	C 	0.42875 0.14086 0.12846 0.31600
C 	C 	0.47054 0.12395 0.95257 0.33600
O 	O 	0.47718 0.15690 0.11323 -0.34300
O 	O 	0.39093 0.16031 0.09728 -0.30900
O 	O 	0.47375 0.14518 0.90541 -0.29800
O 	O 	0.43454 0.15066 0.98101 -0.45100
O 	O 	0.49406 0.26948 0.93380 -0.50500
C 	C 	0.35868 0.22264 0.83834 0.31100
C 	C 	0.39666 0.29348 0.01322 0.32800
H 	H 	0.50400 0.29988 0.90699 0.21800
Co	Co	0.20720 0.58645 0.94168 1.19400
O 	O 	0.24526 0.61625 0.87276 -0.33600
Co	Co	0.17946 0.56120 0.06831 1.19500
O 	O 	0.22371 0.62562 0.01195 -0.45000
O 	O 	0.20357 0.48969 0.03299 -0.38700
O 	O 	0.17360 0.65821 0.90013 -0.30200
C 	C 	0.24742 0.48558 0.00191 0.36100
O 	O 	0.26060 0.59383 0.08356 -0.31000
C 	C 	0.12045 0.58367 0.15079 0.31000
C 	C 	0.11176 0.53718 0.97224 0.33200
O 	O 	0.13876 0.53425 0.13697 -0.30900
O 	O 	0.13684 0.62183 0.11759 -0.31400
O 	O 	0.13656 0.53342 0.92687 -0.31600
O 	O 	0.13465 0.57535 0.00185 -0.43700
O 	O 	0.25904 0.52504 0.96564 -0.51800
C 	C 	0.21070 0.65694 0.86346 0.30800
C 	C 	0.26857 0.62086 0.03959 0.32400
H 	H 	0.29709 0.52554 0.94878 0.20000
Co	Co	0.07122 0.72075 0.57901 1.19600
O 	O 	0.09704 0.75519 0.65137 -0.31100
Co	Co	0.04509 0.69614 0.45175 1.19900
O 	O 	0.10366 0.74797 0.50789 -0.42700
O 	O 	0.97567 0.71006 0.49104 -0.39500
O 	O 	0.14754 0.69384 0.61437 -0.31300
C 	C 	0.96869 0.75504 0.52131 0.34800
O 	O 	0.06474 0.78382 0.43948 -0.31100
C 	C 	0.06934 0.64103 0.36691 0.30800
C 	C 	0.03494 0.61942 0.54464 0.33200
O 	O 	0.02022 0.65225 0.38378 -0.32100
O 	O 	0.10619 0.66310 0.39762 -0.29400
O 	O 	0.03079 0.64063 0.59169 -0.33100
O 	O 	0.06752 0.64907 0.51500 -0.43700
O 	O 	0.00141 0.76436 0.56307 -0.50200
C 	C 	0.14224 0.72621 0.65526 0.31900
C 	C 	0.09255 0.79467 0.48227 0.31600
H 	H 	0.99410 0.79833 0.58665 0.20400
Co	Co	0.69869 0.93309 0.57659 1.19700
O 	O 	0.72205 0.90854 0.65297 -0.31900
Co	Co	0.69127 0.95517 0.44662 1.19300
O 	O 	0.73257 0.89622 0.50991 -0.43600
O 	O 	0.70443 0.02747 0.48397 -0.38800
O 	O 	0.66781 0.85536 0.60982 -0.30200
C 	C 	0.74404 0.03343 0.51925 0.36000
O 	O 	0.77672 0.93146 0.44434 -0.33100
C 	C 	0.64802 0.92902 0.35721 0.30700
C 	C 	0.60524 0.97107 0.53048 0.34000
O 	O 	0.65829 0.97979 0.37361 -0.32700
O 	O 	0.66351 0.89133 0.39117 -0.30200
O 	O 	0.62056 0.97598 0.57936 -0.32300
O 	O 	0.63714 0.93614 0.50531 -0.44900
O 	O 	0.74240 0.00504 0.56487 -0.49800
C 	C 	0.69433 0.86171 0.65359 0.31300
C 	C 	0.78112 0.90463 0.48910 0.33100
H 	H 	0.76621 0.01838 0.59545 0.22100
Co	Co	0.93287 0.28765 0.56945 1.19100
O 	O 	0.90616 0.25358 0.64168 -0.33800
Co	Co	0.94849 0.30974 0.44033 1.19300
O 	O 	0.89025 0.26801 0.50247 -0.43300
O 	O 	0.01974 0.28550 0.47191 -0.40500
O 	O 	0.86406 0.32454 0.61008 -0.30600
C 	C 	0.02574 0.24166 0.50408 0.36900
O 	O 	0.91404 0.22593 0.43096 -0.30200
C 	C 	0.92221 0.36848 0.35811 0.30600
C 	C 	0.97923 0.38396 0.53230 0.32700
O 	O 	0.97091 0.34982 0.36960 -0.33600
O 	O 	0.88664 0.35217 0.39300 -0.28900
O 	O 	0.98503 0.36065 0.57848 -0.33200
O 	O 	0.94022 0.35923 0.50574 -0.43200
O 	O 	0.99341 0.23430 0.54636 -0.52500
C 	C 	0.86596 0.28901 0.64881 0.31900
C 	C 	0.89134 0.22039 0.47717 0.32300
H 	H 	0.99993 0.20007 0.56994 0.19600
Co	Co	0.28713 0.08574 0.55014 1.19300
O 	O 	0.25365 0.11809 0.62040 -0.33600
Co	Co	0.31133 0.06101 0.42282 1.19500
O 	O 	0.27590 0.12892 0.48099 -0.43000
O 	O 	0.28027 0.99173 0.45666 -0.38700
O 	O 	0.32877 0.15234 0.59210 -0.31100
C 	C 	0.23678 0.99120 0.48833 0.35300
O 	O 	0.23420 0.10414 0.40954 -0.32900
C 	C 	0.37317 0.07737 0.34125 0.31000
C 	C 	0.37656 0.02636 0.51766 0.33100
O 	O 	0.34967 0.03017 0.35441 -0.33100
O 	O 	0.36011 0.11720 0.37405 -0.30100
O 	O 	0.35169 0.02446 0.56319 -0.31600
O 	O 	0.35772 0.06783 0.48925 -0.44800
O 	O 	0.22877 0.03152 0.52463 -0.51700
C 	C 	0.29227 0.15487 0.62923 0.33000
C 	C 	0.23103 0.13280 0.45331 0.33300
H 	H 	0.19100 0.03543 0.54170 0.19100
C 	C 	0.17840 0.15564 0.47421 -0.10600
C 	C 	0.17743 0.20557 0.50530 0.17800
C 	C 	0.12673 0.23066 0.51857 -0.02500
C 	C 	0.07696 0.20791 0.49948 -0.11400
C 	C 	0.07778 0.15721 0.46991 0.18700
C 	C 	0.12823 0.13068 0.45847 -0.03900
H 	H 	0.12623 0.26971 0.54138 0.09100
H 	H 	0.12849 0.09170 0.43555 0.09700
Cl	Cl	0.23910 0.24024 0.52392 -0.27200
Cl	Cl	0.01630 0.12834 0.44404 -0.29000
C 	C 	0.54686 0.97787 0.51590 -0.10600
C 	C 	0.52943 0.02601 0.48744 0.19400
C 	C 	0.47314 0.03975 0.48517 -0.04400
C 	C 	0.43391 0.00570 0.51137 -0.08100
C 	C 	0.45094 0.95418 0.53480 0.17800
C 	C 	0.50732 0.94079 0.53739 -0.02300
H 	H 	0.46022 0.07811 0.46485 0.10200
H 	H 	0.52053 0.90250 0.55769 0.10600
Cl	Cl	0.57786 0.07066 0.45604 -0.28300
Cl	Cl	0.40216 0.90540 0.55987 -0.26200
C 	C 	0.78200 0.08251 0.51353 -0.10400
C 	C 	0.83991 0.07519 0.51613 0.18900
C 	C 	0.87503 0.12104 0.50547 -0.04100
C 	C 	0.85334 0.17356 0.48972 -0.08600
C 	C 	0.79560 0.18123 0.48737 0.18800
C 	C 	0.76026 0.13598 0.49990 -0.02700
H 	H 	0.91935 0.11566 0.50928 0.09800
H 	H 	0.71583 0.14202 0.49779 0.10700
Cl	Cl	0.86938 0.00839 0.52967 -0.28000
Cl	Cl	0.76691 0.24659 0.46699 -0.24400
C 	C 	0.01965 0.56027 0.53275 -0.09100
C 	C 	0.06002 0.51957 0.51874 0.18200
C 	C 	0.04533 0.46210 0.51480 -0.03300
C 	C 	0.99094 0.44471 0.52520 -0.10300
C 	C 	0.95013 0.48575 0.53666 0.19200
C 	C 	0.96463 0.54319 0.54008 -0.04700
H 	H 	0.07679 0.43064 0.50585 0.08600
H 	H 	0.93336 0.57444 0.55020 0.09200
Cl	Cl	0.12977 0.53914 0.50942 -0.26900
Cl	Cl	0.88127 0.46549 0.55000 -0.26700
C 	C 	0.91881 0.79118 0.51277 -0.10100
C 	C 	0.90049 0.80478 0.46119 0.19400
C 	C 	0.85377 0.83923 0.45424 -0.03400
C 	C 	0.82734 0.86420 0.49792 -0.08000
C 	C 	0.84740 0.85278 0.54911 0.18800
C 	C 	0.88963 0.81287 0.55635 -0.03500
H 	H 	0.83904 0.84794 0.41459 0.11000
H 	H 	0.90124 0.80068 0.59612 0.08200
Cl	Cl	0.93679 0.78160 0.40471 -0.29200
Cl	Cl	0.82758 0.89472 0.60303 -0.32200
C 	C 	0.13003 0.84449 0.48446 -0.07900
C 	C 	0.13911 0.87409 0.53207 0.18200
C 	C 	0.17620 0.91978 0.53338 -0.03200
C 	C 	0.19885 0.94143 0.48637 -0.10400
C 	C 	0.18584 0.91477 0.43789 0.19700
C 	C 	0.15377 0.86516 0.43754 -0.03700
H 	H 	0.18588 0.93967 0.57090 0.08600
H 	H 	0.14577 0.84376 0.40036 0.11500
Cl	Cl	0.09838 0.86062 0.58801 -0.32100
Cl	Cl	0.20509 0.94547 0.37701 -0.28500
C 	C 	0.16391 0.70859 0.70725 -0.07300
C 	C 	0.18212 0.74924 0.74430 0.18700
C 	C 	0.19863 0.73183 0.79494 -0.03700
C 	C 	0.19707 0.67409 0.80899 -0.07400
C 	C 	0.17895 0.63345 0.77180 0.19000
C 	C 	0.16321 0.65077 0.72113 -0.03900
H 	H 	0.21225 0.76328 0.82346 0.09600
H 	H 	0.14857 0.61933 0.69305 0.10200
Cl	Cl	0.18522 0.82195 0.72759 -0.25300
Cl	Cl	0.17258 0.56103 0.78901 -0.27700
C 	C 	0.08069 0.62709 0.31137 -0.07200
C 	C 	0.10202 0.66844 0.27669 0.19200
C 	C 	0.11468 0.65377 0.22454 -0.04000
C 	C 	0.10597 0.59799 0.20615 -0.06600
C 	C 	0.08291 0.55697 0.24066 0.18800
C 	C 	0.07039 0.57187 0.29292 -0.03300
H 	H 	0.13146 0.68588 0.19831 0.10700
H 	H 	0.05294 0.54027 0.31933 0.08900
Cl	Cl	0.11130 0.73942 0.29747 -0.26100
Cl	Cl	0.06829 0.48719 0.21916 -0.25100
C 	C 	0.34090 0.20406 0.78550 -0.07200
C 	C 	0.37488 0.16806 0.75501 0.18700
C 	C 	0.35832 0.15191 0.70428 -0.03400
C 	C 	0.30792 0.17118 0.68338 -0.07800
C 	C 	0.27345 0.20643 0.71409 0.19100
C 	C 	0.29009 0.22275 0.76501 -0.03800
H 	H 	0.38467 0.12415 0.68108 0.09800
H 	H 	0.26374 0.25032 0.78839 0.09500
Cl	Cl	0.43829 0.14254 0.77997 -0.26800
Cl	Cl	0.21015 0.23174 0.68874 -0.26600
C 	C 	0.41703 0.12135 0.18259 -0.07300
C 	C 	0.37567 0.08037 0.19215 0.19200
C 	C 	0.36250 0.06507 0.24409 -0.03500
C 	C 	0.39096 0.08961 0.28676 -0.07000
C 	C 	0.43479 0.12771 0.27700 0.18600
C 	C 	0.44731 0.14376 0.22512 -0.03300
H 	H 	0.32962 0.03466 0.25125 0.10800
H 	H 	0.48027 0.17408 0.21794 0.09900
Cl	Cl	0.34166 0.04603 0.13942 -0.24300
Cl	Cl	0.47574 0.15400 0.32923 -0.25300
C 	C 	0.35576 0.34023 0.00948 -0.08500
C 	C 	0.34646 0.36877 0.96142 0.19200
C 	C 	0.30651 0.41169 0.95860 -0.03100
C 	C 	0.28230 0.43345 0.00489 -0.10000
C 	C 	0.29452 0.40739 0.05388 0.19900
C 	C 	0.32895 0.35945 0.05545 -0.03000
H 	H 	0.29685 0.43052 0.92061 0.08300
H 	H 	0.33665 0.33857 0.09293 0.10200
Cl	Cl	0.39098 0.35897 0.90747 -0.32300
Cl	Cl	0.27127 0.43680 0.11404 -0.27000
C 	C 	0.64294 0.79153 0.80160 -0.08200
C 	C 	0.69916 0.79125 0.78721 0.18700
C 	C 	0.71534 0.81294 0.73808 -0.03800
C 	C 	0.67583 0.83533 0.70320 -0.07400
C 	C 	0.61930 0.83478 0.71738 0.18600
C 	C 	0.60319 0.81190 0.76596 -0.03600
H 	H 	0.75878 0.81310 0.72730 0.10000
H 	H 	0.55989 0.81280 0.77721 0.09100
Cl	Cl	0.74975 0.76405 0.83052 -0.25600
Cl	Cl	0.56868 0.86692 0.67696 -0.27300
C 	C 	0.59770 0.88949 0.19903 -0.07500
C 	C 	0.56933 0.93125 0.22847 0.18600
C 	C 	0.58638 0.94396 0.28001 -0.04000
C 	C 	0.63182 0.91574 0.30250 -0.07400
C 	C 	0.66137 0.87541 0.27239 0.18600
C 	C 	0.64387 0.86212 0.22118 -0.03900
H 	H 	0.56414 0.97575 0.30268 0.09700
H 	H 	0.66632 0.83049 0.19853 0.10000
Cl	Cl	0.51384 0.96972 0.20061 -0.27000
Cl	Cl	0.72231 0.84366 0.29691 -0.26400
C 	C 	0.51528 0.94983 0.97558 -0.07900
C 	C 	0.46904 0.97239 0.00205 0.16400
C 	C 	0.45571 0.03003 0.99623 -0.00800
C 	C 	0.48890 0.06557 0.96474 -0.10300
C 	C 	0.53857 0.04415 0.94331 0.20500
C 	C 	0.55105 0.98630 0.94813 -0.04700
H 	H 	0.41888 0.04677 0.01510 0.09400
H 	H 	0.58792 0.96940 0.92942 0.09800
Cl	Cl	0.42763 0.92903 0.04271 -0.25200
Cl	Cl	0.58655 0.08961 0.91212 -0.26300
C 	C 	0.31924 0.65321 0.02840 -0.10200
C 	C 	0.37169 0.62815 0.03576 0.18600
C 	C 	0.41953 0.66039 0.02763 -0.04300
C 	C 	0.41569 0.71731 0.01171 -0.10300
C 	C 	0.36341 0.74161 0.00194 0.18800
C 	C 	0.31545 0.70959 0.01055 -0.04100
H 	H 	0.45976 0.64098 0.03309 0.09700
H 	H 	0.27524 0.72867 0.00366 0.09300
Cl	Cl	0.37820 0.55559 0.05242 -0.27100
Cl	Cl	0.35748 0.81123 0.97675 -0.25200
C 	C 	0.84790 0.30585 0.70203 -0.07500
C 	C 	0.81754 0.26821 0.73418 0.18800
C 	C 	0.79786 0.28656 0.78345 -0.03700
C 	C 	0.80816 0.34227 0.80075 -0.07300
C 	C 	0.83921 0.37957 0.76882 0.18900
C 	C 	0.85877 0.36129 0.71978 -0.03600
H 	H 	0.77462 0.25749 0.80824 0.09800
H 	H 	0.88260 0.39025 0.69538 0.10200
Cl	Cl	0.80281 0.19850 0.71279 -0.26700
Cl	Cl	0.85495 0.44909 0.79026 -0.27200
C 	C 	0.87584 0.41435 0.20036 -0.07100
C 	C 	0.90624 0.45262 0.23220 0.18800
C 	C 	0.92142 0.43694 0.28358 -0.03500
C 	C 	0.90622 0.38372 0.30391 -0.07300
C 	C 	0.87625 0.34536 0.27215 0.18900
C 	C 	0.86110 0.36083 0.22078 -0.03900
H 	H 	0.94503 0.46629 0.30778 0.08900
H 	H 	0.83792 0.33107 0.19668 0.10600
Cl	Cl	0.92670 0.51982 0.20814 -0.26100
Cl	Cl	0.85908 0.27691 0.29547 -0.25400
C 	C 	0.94027 0.49276 0.97841 -0.08000
C 	C 	0.98126 0.44999 0.97815 0.18200
C 	C 	0.03727 0.46512 0.97821 -0.02600
C 	C 	0.05294 0.52251 0.97779 -0.09500
C 	C 	0.01195 0.56526 0.97928 0.20100
C 	C 	0.95599 0.55010 0.98018 -0.04700
H 	H 	0.06866 0.43217 0.97718 0.09100
H 	H 	0.92459 0.58307 0.98002 0.10300
Cl	Cl	0.96325 0.37740 0.97462 -0.25500
Cl	Cl	0.02978 0.63794 0.97629 -0.25400
C 	C 	0.70340 0.57608 0.00026 -0.12600
C 	C 	0.71367 0.62862 0.97555 0.19900
C 	C 	0.67903 0.67506 0.98556 -0.04400
C 	C 	0.63394 0.66975 0.02039 -0.09600
C 	C 	0.62275 0.61633 0.04383 0.18000
C 	C 	0.65791 0.57015 0.03407 -0.03200
H 	H 	0.68756 0.71548 0.96659 0.09500
H 	H 	0.64987 0.52959 0.05296 0.07500
Cl	Cl	0.77040 0.63707 0.93249 -0.26300
Cl	Cl	0.56398 0.60565 0.08386 -0.27700
C 	C 	0.57470 0.29975 0.98314 -0.11200
C 	C 	0.57042 0.35744 0.99761 0.19100
C 	C 	0.61814 0.38827 0.01036 -0.04600
C 	C 	0.67031 0.36214 0.00876 -0.10300
C 	C 	0.67470 0.30471 0.99295 0.18400
C 	C 	0.62699 0.27411 0.97985 -0.02900
H 	H 	0.61461 0.43257 0.02179 0.08200
H 	H 	0.63041 0.22970 0.96866 0.10200
Cl	Cl	0.50551 0.39128 0.00133 -0.28900
Cl	Cl	0.73900 0.26925 0.99268 -0.26300
