data_crystal

_cell_length_a 14.99353
_cell_length_b 17.10572
_cell_length_c 47.63473
_cell_angle_alpha 90.26174
_cell_angle_beta  90.26922
_cell_angle_gamma 119.37061

_symmetry_space_group_name_	'P 1'
_symmetry_space_group_name_H-M	'P 1'

loop_
_symmetry_equiv_pos_as_xyz
  x,y,z

loop_
_atom_site_label
_atom_site_type_symbol
_atom_site_fract_x
_atom_site_fract_y
_atom_site_fract_z
_atom_site_charge
C 	C 	0.15023 0.02927 0.76571 0.33200
C 	C 	0.14760 0.07510 0.83323 0.31800
Ni	Ni	0.99269 0.06253 0.78916 1.12600
Ni	Ni	0.01983 0.89539 0.80894 1.12000
O 	O 	0.07203 0.04082 0.75937 -0.37700
O 	O 	0.09246 0.98832 0.83910 -0.38300
O 	O 	0.11422 0.11696 0.81611 -0.38400
O 	O 	0.14230 0.96980 0.78448 -0.39600
C 	C 	0.27269 0.51695 0.46624 0.32100
C 	C 	0.28750 0.78037 0.38676 0.33100
C 	C 	0.26601 0.50692 0.38585 0.32700
Ni	Ni	0.22793 0.62639 0.42545 1.11500
O 	O 	0.21086 0.55029 0.46085 -0.37600
O 	O 	0.32935 0.50938 0.44600 -0.38200
O 	O 	0.24242 0.69247 0.38785 -0.36900
O 	O 	0.20080 0.51067 0.40338 -0.36800
O 	O 	0.36313 0.56749 0.38690 -0.38600
O 	O 	0.21540 0.72703 0.44777 -0.37700
C 	C 	0.30356 0.51504 0.14977 0.30200
C 	C 	0.34153 0.86441 0.13273 0.32900
C 	C 	0.11322 0.64443 0.12316 0.32700
Ni	Ni	0.31892 0.69458 0.14897 1.12200
O 	O 	0.25707 0.56196 0.15582 -0.38400
O 	O 	0.29212 0.83472 0.10876 -0.37200
O 	O 	0.17873 0.68490 0.14433 -0.38800
O 	O 	0.14389 0.65842 0.09648 -0.38300
H 	H 	0.26352 0.60881 0.10906 0.15900
C 	C 	0.18553 0.97488 0.22330 0.28000
C 	C 	0.14983 0.21288 0.30822 0.32600
C 	C 	0.16614 0.95402 0.30395 0.31500
C 	C 	0.17557 0.22891 0.22888 0.30400
Ni	Ni	0.21679 0.11328 0.26845 1.11700
O 	O 	0.24331 0.02317 0.24485 -0.34100
O 	O 	0.22336 0.21936 0.29182 -0.37100
O 	O 	0.20075 0.04098 0.30483 -0.35500
O 	O 	0.11765 0.90731 0.28156 -0.38000
O 	O 	0.23572 0.19388 0.23419 -0.36800
C 	C 	0.27390 0.43289 0.16597 -0.09900
C 	C 	0.16974 0.36876 0.16819 -0.05600
C 	C 	0.13681 0.30206 0.18875 0.16600
C 	C 	0.20856 0.29824 0.20701 -0.09500
C 	C 	0.31320 0.35957 0.20384 -0.05700
C 	C 	0.34592 0.42693 0.18360 0.17000
H 	H 	0.11383 0.37255 0.15459 0.06300
O 	O 	0.03506 0.23916 0.19035 -0.28000
H 	H 	0.36917 0.35655 0.21762 0.06900
H 	H 	0.46002 0.53753 0.19464 0.15400
C 	C 	0.31605 0.91982 0.15139 -0.11800
C 	C 	0.37742 0.96006 0.17519 -0.05200
C 	C 	0.33677 0.98025 0.19869 0.14800
C 	C 	0.23561 0.96600 0.19775 -0.08800
C 	C 	0.18023 0.93877 0.17243 -0.06800
C 	C 	0.21998 0.91608 0.14924 0.17700
O 	O 	0.39517 0.01185 0.22265 -0.25600
O 	O 	0.16242 0.88562 0.12511 -0.27600
H 	H 	0.18254 0.93993 0.11363 0.14900
H 	H 	0.38207 0.95761 0.23333 0.14400
C 	C 	0.23214 0.42828 0.36710 -0.10600
C 	C 	0.28861 0.38282 0.36606 -0.05400
C 	C 	0.25984 0.31018 0.34762 0.17100
C 	C 	0.17359 0.28214 0.33001 -0.10300
C 	C 	0.11516 0.32578 0.33168 -0.05500
C 	C 	0.14394 0.39848 0.35017 0.17300
H 	H 	0.35498 0.40383 0.37958 0.05500
O 	O 	0.31400 0.26473 0.34754 -0.28500
H 	H 	0.04910 0.30506 0.31807 0.06100
O 	O 	0.08906 0.44325 0.35051 -0.28500
H 	H 	0.03459 0.41167 0.36459 0.15300
H 	H 	0.37072 0.29741 0.33416 0.15200
C 	C 	0.25411 0.82286 0.36556 -0.10600
C 	C 	0.22588 0.88651 0.37395 -0.05600
C 	C 	0.19948 0.93138 0.35392 0.17300
C 	C 	0.20040 0.91217 0.32522 -0.10100
C 	C 	0.22902 0.84870 0.31686 -0.05700
C 	C 	0.25469 0.80342 0.33691 0.17500
H 	H 	0.22403 0.90096 0.39606 0.06800
O 	O 	0.16826 0.99076 0.36251 -0.28700
H 	H 	0.23131 0.83441 0.29476 0.07000
O 	O 	0.28445 0.74300 0.32838 -0.27300
H 	H 	0.22044 0.68443 0.32718 0.16100
H 	H 	0.23175 0.04966 0.36397 0.17300
C 	C 	0.25004 0.83215 0.48370 -0.16700
H 	H 	0.16845 0.80322 0.48741 0.08400
C 	C 	0.20098 0.45073 0.54229 0.00900
C 	C 	0.19782 0.49352 0.56720 -0.03900
C 	C 	0.14258 0.44289 0.59029 -0.03500
C 	C 	0.09075 0.34859 0.58876 0.01000
C 	C 	0.10604 0.30655 0.56530 -0.03900
C 	C 	0.15940 0.35708 0.54199 -0.03600
C 	C 	0.22678 0.50164 0.51565 0.01200
C 	C 	0.26867 0.47955 0.49259 -0.16000
H 	H 	0.23198 0.56590 0.56798 0.04100
H 	H 	0.13476 0.47702 0.60851 0.04400
H 	H 	0.06929 0.23402 0.56418 0.04200
H 	H 	0.16199 0.32276 0.52312 0.04400
H 	H 	0.05188 0.36427 0.64755 0.08400
H 	H 	0.21144 0.55738 0.51399 0.03900
H 	H 	0.30252 0.43666 0.49549 0.08300
H 	H 	0.01585 0.77947 0.72168 0.15100
C 	C 	0.00837 0.60208 0.12918 -0.15200
H 	H 	0.98631 0.44190 0.09758 0.04600
H 	H 	0.98566 0.37523 0.05155 0.04100
O 	O 	0.15213 0.14772 0.88716 -0.27700
H 	H 	0.12983 0.18998 0.88015 0.14900
H 	H 	0.01525 0.76902 0.87634 0.14900
C 	C 	0.28380 0.78884 0.46523 0.33000
Ni	Ni	0.29139 0.73516 0.08543 1.12200
O 	O 	0.39153 0.82676 0.14331 -0.40200
Ni	Ni	0.45049 0.80723 0.42761 1.12300
Ni	Ni	0.43854 0.61624 0.42373 1.12000
O 	O 	0.34496 0.82947 0.40774 -0.38400
O 	O 	0.52381 0.67036 0.45814 -0.40100
O 	O 	0.38390 0.81828 0.46310 -0.38900
O 	O 	0.37016 0.68172 0.43190 -0.71800
H 	H 	0.37185 0.68049 0.45255 0.15700
C 	C 	0.26730 0.56884 0.05401 0.34700
Ni	Ni	0.42619 0.63810 0.10010 1.11500
O 	O 	0.38829 0.54858 0.13414 -0.35400
O 	O 	0.44135 0.81911 0.07837 -0.39900
O 	O 	0.45361 0.70645 0.16259 -0.38600
O 	O 	0.31618 0.54595 0.07288 -0.38200
O 	O 	0.28154 0.65224 0.05269 -0.39100
O 	O 	0.32564 0.66796 0.11073 -0.71600
O 	O 	0.44816 0.48811 0.18151 -0.27800
H 	H 	0.45402 0.96883 0.17635 0.06100
C 	C 	0.27210 0.06491 0.55864 0.02400
C 	C 	0.31770 0.10757 0.53347 -0.04800
C 	C 	0.32375 0.05747 0.51106 -0.01900
C 	C 	0.28182 0.96434 0.51353 -0.01100
C 	C 	0.22122 0.92053 0.53688 -0.02700
C 	C 	0.21484 0.97083 0.55919 -0.05800
C 	C 	0.31788 0.91696 0.49480 0.01900
H 	H 	0.35821 0.18015 0.53237 0.04600
H 	H 	0.36748 0.09166 0.49266 0.03900
H 	H 	0.18601 0.84835 0.53875 0.03800
H 	H 	0.39760 0.95132 0.48842 0.03500
H 	H 	0.35332 0.02533 0.60368 0.09100
C 	C 	0.29378 0.17513 0.74913 0.17400
C 	C 	0.24798 0.08121 0.75098 -0.11200
C 	C 	0.30050 0.03790 0.74097 -0.03900
O 	O 	0.24620 0.21920 0.76018 -0.29700
H 	H 	0.26754 0.96597 0.74322 0.06000
H 	H 	0.27353 0.23594 0.77960 0.15000
H 	H 	0.62278 0.94474 0.98320 0.04000
H 	H 	0.55386 0.98065 0.94093 0.04900
C 	C 	0.32826 0.44583 0.02782 0.01000
C 	C 	0.33683 0.37589 0.04042 -0.03300
C 	C 	0.22693 0.44109 0.02575 0.03600
C 	C 	0.21351 0.51100 0.03318 -0.19400
H 	H 	0.26976 0.31855 0.04884 0.04700
H 	H 	0.16825 0.38770 0.01299 0.02500
H 	H 	0.15864 0.52205 0.02138 0.09300
C 	C 	0.24356 0.12999 0.84848 -0.10300
C 	C 	0.33664 0.15605 0.83486 -0.06100
C 	C 	0.33444 0.23864 0.88548 -0.06100
C 	C 	0.24277 0.17170 0.87384 0.17300
H 	H 	0.33722 0.12668 0.81469 0.06500
H 	H 	0.33237 0.27176 0.90470 0.06700
C 	C 	0.30934 0.11559 0.58515 0.01200
H 	H 	0.17466 0.93702 0.57806 0.04400
C 	C 	0.43931 0.17034 0.95024 0.34800
O 	O 	0.52537 0.38377 0.90504 -0.36700
O 	O 	0.42692 0.23902 0.94422 -0.38400
C 	C 	0.45768 0.16039 0.61550 0.34800
O 	O 	0.47573 0.24351 0.61735 -0.38000
O 	O 	0.48118 0.22995 0.67682 -0.37800
C 	C 	0.56350 0.76741 0.38488 0.32400
C 	C 	0.59171 0.75695 0.46031 0.33500
O 	O 	0.50405 0.80233 0.38957 -0.38000
O 	O 	0.57638 0.82098 0.44902 -0.39100
O 	O 	0.56128 0.70438 0.40125 -0.39100
C 	C 	0.49332 0.79558 0.06162 0.37100
C 	C 	0.53980 0.75463 0.14925 0.32400
O 	O 	0.48495 0.71583 0.06406 -0.38400
O 	O 	0.54650 0.74030 0.12250 -0.36100
C 	C 	0.63226 0.81792 0.16511 -0.10500
C 	C 	0.62724 0.87834 0.18419 -0.05500
O 	O 	0.73160 0.75859 0.14318 -0.28100
H 	H 	0.55683 0.88094 0.18640 0.06200
H 	H 	0.71123 0.70249 0.15371 0.15200
O 	O 	0.51943 0.80494 0.32987 -0.26700
H 	H 	0.49030 0.74442 0.32119 0.15900
C 	C 	0.36722 0.09397 0.60344 -0.16800
H 	H 	0.31392 0.18087 0.58678 0.04200
H 	H 	0.63352 0.54943 0.48027 0.04100
C 	C 	0.43679 0.17986 0.72376 -0.09600
C 	C 	0.38749 0.22391 0.73541 -0.05600
C 	C 	0.39426 0.08679 0.72727 0.16400
H 	H 	0.41902 0.29540 0.73249 0.06000
O 	O 	0.44323 0.04318 0.71680 -0.26700
H 	H 	0.41569 0.02430 0.69748 0.16400
C 	C 	0.51568 0.95382 0.01146 -0.00400
C 	C 	0.55926 0.95775 0.98514 -0.03500
C 	C 	0.52033 0.97819 0.96123 -0.04400
C 	C 	0.43865 0.99593 0.96359 0.01000
C 	C 	0.39402 0.99021 0.98986 -0.04100
C 	C 	0.39597 0.01514 0.93824 0.03800
C 	C 	0.37676 0.08766 0.93688 -0.17500
C 	C 	0.55262 0.92899 0.03672 0.03600
C 	C 	0.53930 0.84558 0.03905 -0.20600
H 	H 	0.36767 0.96578 0.92135 0.02300
H 	H 	0.32178 0.08431 0.92132 0.10100
H 	H 	0.56293 0.96834 0.05571 0.03700
H 	H 	0.55471 0.81454 0.02111 0.09700
C 	C 	0.43265 0.38115 0.04297 -0.03500
C 	C 	0.41535 0.51864 0.01629 -0.03100
H 	H 	0.43915 0.32840 0.05368 0.05300
H 	H 	0.40908 0.57172 0.00573 0.04800
C 	C 	0.42854 0.22385 0.84634 0.17200
C 	C 	0.42819 0.26314 0.87236 -0.10100
O 	O 	0.51779 0.25351 0.83167 -0.26100
H 	H 	0.52229 0.30233 0.81956 0.15100
H 	H 	0.10483 0.93254 0.17095 0.06800
C 	C 	0.52502 0.32613 0.88670 0.31200
O 	O 	0.10305 0.22030 0.24689 -0.37000
C 	C 	0.43362 0.97093 0.01373 -0.03300
O 	O 	0.50696 0.17892 0.96936 -0.38500
C 	C 	0.51341 0.22509 0.70193 0.32500
O 	O 	0.52812 0.14042 0.62307 -0.39200
C 	C 	0.72468 0.81614 0.16208 0.17500
C 	C 	0.64277 0.80754 0.36311 -0.10700
C 	C 	0.61870 0.82896 0.33663 0.17100
C 	C 	0.68208 0.78187 0.47509 -0.16600
H 	H 	0.73153 0.70092 0.45324 0.03200
H 	H 	0.32902 0.00120 0.99177 0.06000
C 	C 	0.52033 0.45581 0.03250 0.02100
C 	C 	0.51107 0.52406 0.01895 -0.04600
C 	C 	0.67804 0.58592 0.49855 -0.03600
H 	H 	0.63196 0.46634 0.52238 0.04300
Ni	Ni	0.54613 0.37016 0.94744 1.11400
O 	O 	0.60626 0.31591 0.88401 -0.35700
Ni	Ni	0.56905 0.33005 0.64895 1.11500
C 	C 	0.71207 0.93390 0.20104 0.17000
C 	C 	0.67837 0.53874 0.52232 -0.03700
C 	C 	0.72841 0.72840 0.47361 0.01400
H 	H 	0.72058 0.84597 0.48604 0.08400
H 	H 	0.52492 0.89825 0.67587 0.14600
H 	H 	0.39906 0.96727 0.03396 0.03900
C 	C 	0.62304 0.46914 0.03932 0.00800
H 	H 	0.58977 0.66090 0.93618 0.14700
O 	O 	0.05456 0.14994 0.30400 -0.37900
C 	C 	0.73203 0.67990 0.49863 0.01200
H 	H 	0.50503 0.07042 0.86163 0.15000
C 	C 	0.62833 0.36145 0.00571 0.32000
O 	O 	0.54885 0.35445 0.99104 -0.37000
O 	O 	0.65277 0.50684 0.94759 -0.36900
O 	O 	0.63561 0.42512 0.68171 -0.37000
O 	O 	0.61096 0.27349 0.70879 -0.36300
C 	C 	0.80953 0.87189 0.17890 -0.06200
O 	O 	0.70382 0.98859 0.22079 -0.29000
H 	H 	0.72579 0.04641 0.21114 0.16200
C 	C 	0.74457 0.83181 0.36956 -0.05500
C 	C 	0.69643 0.87614 0.31717 -0.06100
H 	H 	0.76389 0.81622 0.38997 0.06500
H 	H 	0.67698 0.89173 0.29679 0.07600
O 	O 	0.54929 0.94660 0.69026 -0.27500
H 	H 	0.58208 0.43150 0.74304 0.15000
C 	C 	0.65431 0.40704 0.03156 -0.16000
H 	H 	0.57832 0.58199 0.01086 0.04700
H 	H 	0.66979 0.52154 0.05433 0.02900
O 	O 	0.59270 0.62677 0.91966 -0.28200
O 	O 	0.08449 0.92329 0.22584 -0.37500
O 	O 	0.07763 0.04961 0.25867 -0.71400
O 	O 	0.63259 0.16901 0.92834 -0.39300
O 	O 	0.65484 0.34614 0.94262 -0.71000
O 	O 	0.64575 0.41758 0.61659 -0.37900
O 	O 	0.65282 0.30573 0.59069 -0.38300
O 	O 	0.65701 0.15401 0.68131 -0.38200
C 	C 	0.80249 0.92830 0.19918 -0.09500
H 	H 	0.87915 0.86768 0.17722 0.06300
O 	O 	0.64795 0.43324 0.74710 -0.27700
H 	H 	0.08196 0.05555 0.23811 0.15900
C 	C 	0.67779 0.39154 0.59429 0.32400
Ni	Ni	0.67905 0.22905 0.61918 1.12100
O 	O 	0.67626 0.30263 0.64886 -0.71800
C 	C 	0.73550 0.58512 0.54624 0.00900
C 	C 	0.71956 0.54491 0.92697 0.30700
Ni	Ni	0.65863 0.25026 0.96169 1.12200
O 	O 	0.72436 0.49636 0.90583 -0.37200
H 	H 	0.70292 0.39562 0.95481 0.13900
C 	C 	0.68813 0.11260 0.66421 0.32800
O 	O 	0.70867 0.13768 0.63788 -0.38900
C 	C 	0.78874 0.72660 0.52247 -0.03700
C 	C 	0.72918 0.53608 0.57235 0.01200
C 	C 	0.71717 0.44933 0.57148 -0.16100
C 	C 	0.65270 0.97860 0.69246 0.16800
O 	O 	0.56883 0.12526 0.85630 -0.26700
C 	C 	0.69336 0.67005 0.91172 0.17200
H 	H 	0.67071 0.75025 0.88089 0.07200
H 	H 	0.73100 0.56730 0.59244 0.04200
C 	C 	0.69060 0.19461 0.90596 0.33300
H 	H 	0.63815 0.89210 0.72687 0.06400
Ni	Ni	0.72787 0.28785 0.68342 1.12300
H 	H 	0.73288 0.42451 0.55214 0.08300
C 	C 	0.64616 0.10640 0.86167 0.16900
Ni	Ni	0.73316 0.38159 0.90885 1.12300
H 	H 	0.73390 0.36144 0.64368 0.16300
C 	C 	0.79051 0.67934 0.54620 -0.03900
O 	O 	0.67358 0.31364 0.99902 -0.38400
C 	C 	0.79845 0.90124 0.32371 -0.09700
C 	C 	0.73028 0.46044 0.69230 0.31200
H 	H 	0.83125 0.79925 0.52265 0.04200
C 	C 	0.72204 0.51784 0.73977 0.16900
H 	H 	0.64764 0.06193 0.81938 0.07300
C 	C 	0.82243 0.87926 0.35014 0.16400
C 	C 	0.72096 0.05153 0.67606 -0.10500
C 	C 	0.69077 0.94332 0.71276 -0.05100
C 	C 	0.69524 0.12711 0.88803 -0.11000
C 	C 	0.72560 0.73458 0.89052 -0.05700
C 	C 	0.76049 0.64093 0.92176 -0.10000
H 	H 	0.71354 0.40482 0.04417 0.08500
H 	H 	0.72572 0.57363 0.78057 0.07000
C 	C 	0.68127 0.07243 0.84020 -0.05300
O 	O 	0.76029 0.27889 0.90274 -0.38300
C 	C 	0.76413 0.53429 0.71270 -0.10200
O 	O 	0.78729 0.42138 0.68922 -0.37800
C 	C 	0.75796 0.58721 0.75967 -0.05800
H 	H 	0.83377 0.71590 0.56462 0.04200
C 	C 	0.87884 0.96440 0.22200 0.29900
C 	C 	0.76829 0.10084 0.89399 -0.05200
O 	O 	0.83014 0.31022 0.61874 -0.39800
O 	O 	0.75601 0.96801 0.80502 -0.37300
O 	O 	0.79666 0.74901 0.78966 -0.37700
C 	C 	0.82564 0.07842 0.67691 -0.05900
C 	C 	0.76343 0.05689 0.84525 -0.10300
O 	O 	0.81305 0.30925 0.95755 -0.39000
O 	O 	0.78254 0.83168 0.83951 -0.36600
C 	C 	0.79677 0.98072 0.71675 -0.10400
H 	H 	0.80334 0.11312 0.91467 0.06300
Ni	Ni	0.79140 0.86606 0.79741 1.11400
C 	C 	0.84174 0.62045 0.70569 -0.05700
C 	C 	0.82569 0.77197 0.88004 -0.09000
O 	O 	0.86262 0.43919 0.93235 -0.39100
O 	O 	0.86301 0.30526 0.66671 -0.38500
C 	C 	0.87874 0.94570 0.30235 0.31000
O 	O 	0.92178 0.90377 0.35700 -0.26700
C 	C 	0.83466 0.67388 0.75266 -0.10300
C 	C 	0.86525 0.69319 0.91610 -0.06100
O 	O 	0.88287 0.90588 0.23955 -0.38100
C 	C 	0.80292 0.06619 0.87265 0.16900
C 	C 	0.87202 0.39764 0.95481 0.34300
C 	C 	0.89116 0.31402 0.63962 0.32700
C 	C 	0.81227 0.03684 0.82182 0.31200
O 	O 	0.80044 0.88972 0.75445 -0.37100
O 	O 	0.87293 0.00246 0.28470 -0.36900
H 	H 	0.87837 0.13160 0.66334 0.06600
H 	H 	0.87435 0.63341 0.68484 0.06100
H 	H 	0.85579 0.55698 0.11382 0.03300
C 	C 	0.84879 0.81143 0.85152 0.30700
C 	C 	0.83602 0.97055 0.74406 0.32600
C 	C 	0.86560 0.74769 0.77318 0.32400
O 	O 	0.92171 0.05137 0.22841 -0.36600
H 	H 	0.95036 0.96411 0.36576 0.15800
C 	C 	0.86397 0.04422 0.69749 0.17400
C 	C 	0.87697 0.69040 0.72550 0.16900
C 	C 	0.89815 0.75802 0.89494 0.17300
H 	H 	0.91939 0.67639 0.92564 0.05800
H 	H 	0.94145 0.23148 0.59954 0.03400
H 	H 	0.89963 0.55503 0.01177 0.04000
H 	H 	0.90269 0.62236 0.05765 0.04600
H 	H 	0.00473 0.26559 0.20314 0.15200
O 	O 	0.87481 0.04097 0.87859 -0.28400
O 	O 	0.94515 0.91753 0.29846 -0.37400
C 	C 	0.93118 0.44698 0.97640 -0.19900
H 	H 	0.98564 0.60319 0.15074 0.08500
H 	H 	0.89923 0.33806 0.00316 0.03400
O 	O 	0.88214 0.04159 0.76047 -0.37600
O 	O 	0.91701 0.80202 0.83608 -0.36900
C 	C 	0.92318 0.53259 0.03015 -0.03200
C 	C 	0.92329 0.56997 0.05628 -0.04400
C 	C 	0.92634 0.40971 0.00168 0.03100
H 	H 	0.92921 0.96171 0.82358 0.15800
O 	O 	0.91018 0.09270 0.81645 -0.37000
C 	C 	0.93156 0.56863 0.10837 0.01100
O 	O 	0.94868 0.77554 0.71783 -0.26900
H 	H 	0.97395 0.51954 0.97435 0.09200
O 	O 	0.93175 0.94496 0.80392 -0.71500
C 	C 	0.94534 0.46164 0.02818 -0.00300
C 	C 	0.98860 0.32863 0.63293 -0.16200
O 	O 	0.96727 0.07480 0.69929 -0.27700
C 	C 	0.94547 0.53728 0.08068 0.02400
O 	O 	0.96251 0.80887 0.77580 -0.37200
H 	H 	0.94181 0.09573 0.87590 0.15900
C 	C 	0.00373 0.29420 0.60770 0.01400
O 	O 	0.00046 0.80749 0.88896 -0.28400
Ni	Ni	0.99501 0.10288 0.26520 1.11900
Ni	Ni	0.00851 0.92266 0.26106 1.12000
C 	C 	0.96985 0.46808 0.07877 -0.03800
C 	C 	0.96953 0.43036 0.05268 -0.03400
H 	H 	0.99519 0.12938 0.71131 0.15500
