data_crystal

_cell_length_a 23.69663
_cell_length_b 24.39779
_cell_length_c 34.50178
_cell_angle_alpha 95.50021
_cell_angle_beta  95.49968
_cell_angle_gamma 125.81085

_symmetry_space_group_name_	'P 1'
_symmetry_space_group_name_H-M	'P 1'

loop_
_symmetry_equiv_pos_as_xyz
  x,y,z

loop_
_atom_site_label
_atom_site_type_symbol
_atom_site_fract_x
_atom_site_fract_y
_atom_site_fract_z
_atom_site_charge
C 	C 	0.08189 0.02822 0.46611 0.09900
C 	C 	0.22478 0.06240 0.42035 0.07300
C 	C 	0.22596 0.11817 0.41288 0.02000
N 	N 	0.16801 0.01951 0.43625 -0.16100
C 	C 	0.13321 0.04763 0.43947 0.05500
C 	C 	0.16767 0.10906 0.42535 -0.07200
H 	H 	0.16441 0.15061 0.43487 0.05400
H 	H 	0.16477 0.98530 0.45367 0.08500
N 	N 	0.09953 0.98158 0.94022 -0.16500
C 	C 	0.06631 0.01128 0.93612 0.05600
C 	C 	0.11511 0.08129 0.93650 -0.07400
H 	H 	0.10672 0.11952 0.94522 0.05400
H 	H 	0.07897 0.93637 0.95147 0.08600
C 	C 	0.28802 0.06917 0.42828 -0.08200
C 	C 	0.29029 0.18264 0.41409 -0.08700
H 	H 	0.28897 0.03024 0.44032 0.05100
H 	H 	0.29274 0.22857 0.41548 0.05300
C 	C 	0.16927 0.03198 0.94376 0.07200
C 	C 	0.18079 0.09439 0.94132 0.02200
H 	H 	0.21312 0.98209 0.96703 0.04800
N 	N 	0.05493 0.06380 0.47212 -0.13300
C 	C 	0.22158 0.03043 0.96531 -0.07800
C 	C 	0.24367 0.15700 0.96134 -0.08900
C 	C 	0.35083 0.13068 0.42390 0.01000
C 	C 	0.35229 0.18691 0.41725 0.07600
H 	H 	0.25230 0.20542 0.95969 0.05300
C 	C 	0.28348 0.09292 0.98614 0.00800
C 	C 	0.29484 0.15511 0.98378 0.07800
H 	H 	0.06604 0.18361 0.49185 0.05700
N 	N 	0.05935 0.97291 0.48352 -0.13300
C 	C 	0.41742 0.15690 0.44428 -0.05000
N 	N 	0.41706 0.24588 0.43216 -0.15200
C 	C 	0.34946 0.10674 0.99387 -0.04200
H 	H 	0.35991 0.06972 0.98630 0.04500
H 	H 	0.42979 0.12973 0.46209 0.04400
H 	H 	0.42834 0.29442 0.43887 0.08800
N 	N 	0.36468 0.20645 0.98991 -0.15300
C 	C 	0.45599 0.22783 0.44946 0.00100
C 	C 	0.39790 0.17724 0.99602 -0.00100
H 	H 	0.38691 0.25307 0.98008 0.08500
H 	H 	0.07181 0.88443 0.51805 0.05600
H 	H 	0.45297 0.08749 0.79945 0.03700
C 	C 	0.47424 0.21372 0.99738 0.25700
C 	C 	0.53306 0.27602 0.46266 0.26200
H 	H 	0.50271 0.15106 0.58103 0.02900
O 	O 	0.50669 0.19080 0.01457 -0.35500
S 	S 	0.52243 0.21625 0.59241 -0.03800
H 	H 	0.55135 0.26184 0.24128 0.03700
O 	O 	0.51132 0.27411 0.98680 -0.38900
H 	H 	0.52148 0.22732 0.67546 0.05200
O 	O 	0.56342 0.26499 0.49185 -0.37700
O 	O 	0.56859 0.33454 0.44949 -0.38400
S 	S 	0.52330 0.11460 0.80460 -0.05400
H 	H 	0.54332 0.18336 0.94084 0.17600
S 	S 	0.59387 0.32748 0.23410 -0.04100
H 	H 	0.57566 0.30829 0.14963 0.04400
H 	H 	0.56544 0.16399 0.73296 0.05000
C 	C 	0.57619 0.25471 0.67186 -0.07100
C 	C 	0.57208 0.19848 0.79425 0.05700
C 	C 	0.58119 0.20732 0.75525 -0.07600
C 	C 	0.59236 0.25959 0.63374 0.05100
H 	H 	0.02886 0.75311 0.51982 0.05000
O 	O 	0.59240 0.22019 0.95490 -0.64500
O 	O 	0.60693 0.33055 0.07821 -0.38700
H 	H 	0.02294 0.26496 0.47847 0.05000
Cu	Cu	0.60977 0.23283 0.01314 0.92900
Cu	Cu	0.60625 0.36092 0.02655 0.89300
O 	O 	0.59260 0.28808 0.89130 -0.38400
C 	C 	0.59723 0.25604 0.82388 -0.09300
C 	C 	0.62706 0.32102 0.16093 -0.00400
C 	C 	0.61096 0.27194 0.74492 0.01300
C 	C 	0.60496 0.25299 0.86655 0.29000
C 	C 	0.62991 0.28269 0.70526 0.01100
H 	H 	0.65274 0.27416 0.43500 0.16000
O 	O 	0.62024 0.21252 0.87872 -0.41600
C 	C 	0.62672 0.32689 0.77327 -0.00500
C 	C 	0.62125 0.31916 0.81271 -0.00800
C 	C 	0.64919 0.33217 0.20180 -0.00400
C 	C 	0.02392 0.86584 0.52969 -0.08600
Cu	Cu	0.62540 0.31390 0.94851 0.89500
O 	O 	0.65462 0.31587 0.56218 -0.37800
H 	H 	0.62002 0.53884 0.99017 0.04600
C 	C 	0.64413 0.30952 0.09142 0.29200
O 	O 	0.64153 0.26051 0.06938 -0.35800
Cu	Cu	0.66696 0.38348 0.43880 0.89400
O 	O 	0.64118 0.44207 0.00028 -0.38600
Cu	Cu	0.66484 0.31423 0.50663 0.89400
H 	H 	0.63772 0.36287 0.83493 0.04300
C 	C 	0.62993 0.53617 0.96029 -0.04700
S 	S 	0.66833 0.21665 0.25070 -0.04000
C 	C 	0.64717 0.44350 0.96261 0.26600
S 	S 	0.65332 0.40542 0.75974 -0.03600
C 	C 	0.66378 0.29565 0.62900 -0.08900
C 	C 	0.01532 0.15331 0.50118 -0.08600
C 	C 	0.64918 0.49632 0.94414 0.00000
O 	O 	0.65924 0.33493 0.00477 -0.63900
O 	O 	0.65905 0.18961 0.01752 -0.36500
O 	O 	0.68112 0.31924 0.45331 -0.64000
C 	C 	0.67032 0.32498 0.13451 -0.08900
C 	C 	0.65512 0.58906 0.93919 0.01000
Cu	Cu	0.66624 0.22495 0.93144 0.86300
O 	O 	0.66382 0.40700 0.94346 -0.38300
C 	C 	0.68267 0.29899 0.58919 0.28600
H 	H 	0.66008 0.66437 0.98129 0.05100
H 	H 	0.70413 0.26605 0.33457 0.03300
C 	C 	0.67720 0.65522 0.95501 -0.08200
N 	N 	0.68492 0.52251 0.91456 -0.15100
H 	H 	0.69134 0.10196 0.03482 0.04900
C 	C 	0.70088 0.31711 0.70047 -0.00500
C 	C 	0.68920 0.57937 0.91156 0.07700
C 	C 	0.00968 0.95269 0.50667 0.08700
C 	C 	0.71429 0.30028 0.27863 -0.00600
H 	H 	0.71599 0.20460 0.24247 0.03800
C 	C 	0.71502 0.34669 0.21666 0.01200
H 	H 	0.71134 0.36841 0.01306 0.16400
C 	C 	0.71754 0.32502 0.66265 -0.00600
C 	C 	0.72552 0.31010 0.32008 -0.00700
O 	O 	0.72913 0.41277 0.39837 -0.38300
C 	C 	0.71935 0.21702 0.00521 0.26300
H 	H 	0.72016 0.51370 0.90529 0.08900
H 	H 	0.72568 0.44886 0.76444 0.03600
C 	C 	0.00514 0.04379 0.49522 0.08900
O 	O 	0.73436 0.45376 0.49380 -0.38300
O 	O 	0.73602 0.29693 0.58392 -0.42100
C 	C 	0.72715 0.71011 0.93800 0.07300
C 	C 	0.73846 0.35705 0.25973 0.01300
O 	O 	0.73455 0.25537 0.97804 -0.43200
C 	C 	0.73717 0.34145 0.14950 0.05300
H 	H 	0.74373 0.12290 0.46203 0.04200
H 	H 	0.74060 0.02455 0.03332 0.05300
C 	C 	0.74540 0.63575 0.89823 -0.08700
H 	H 	0.74915 0.57748 0.51191 0.04700
C 	C 	0.74635 0.14303 0.03480 -0.04300
O 	O 	0.74995 0.23480 0.48313 -0.43800
C 	C 	0.99552 0.98038 0.94590 0.09600
N 	N 	0.97741 0.02116 0.95973 -0.13000
H 	H 	0.97084 0.13615 0.96731 0.05400
N 	N 	0.94805 0.91086 0.94101 -0.13200
C 	C 	0.91281 0.99259 0.96968 0.09300
C 	C 	0.88330 0.88226 0.95075 0.09700
N 	N 	0.86629 0.92326 0.96560 -0.12900
N 	N 	0.98202 0.98777 0.51218 -0.12700
Cu	Cu	0.79198 0.37390 0.46535 0.92800
Cu	Cu	0.75506 0.27811 0.53341 0.86300
C 	C 	0.75778 0.38338 0.38527 0.29000
O 	O 	0.83695 0.47596 0.47992 -0.35100
O 	O 	0.76835 0.35907 0.51865 -0.64300
O 	O 	0.83975 0.32844 0.46255 -0.36200
C 	C 	0.80263 0.49762 0.49475 0.25700
O 	O 	0.79628 0.37403 0.41006 -0.35800
C 	C 	0.80573 0.26373 0.46622 0.26100
H 	H 	0.79500 0.40022 0.54009 0.17800
S 	S 	0.76896 0.34775 0.74138 -0.04900
H 	H 	0.77240 0.35276 0.65929 0.04000
H 	H 	0.77412 0.29606 0.74753 0.03300
C 	C 	0.75889 0.35184 0.19044 -0.07200
S 	S 	0.79522 0.35184 0.11759 -0.04400
H 	H 	0.80998 0.36400 0.20191 0.05300
C 	C 	0.76075 0.37609 0.34284 -0.09000
C 	C 	0.79094 0.43352 0.32396 0.05800
C 	C 	0.77930 0.42365 0.28252 -0.07300
S 	S 	0.84443 0.51787 0.35185 -0.03700
H 	H 	0.80002 0.46759 0.26800 0.05200
H 	H 	0.83613 0.41868 0.11216 0.03000
H 	H 	0.91335 0.54048 0.35956 0.04000
C 	C 	0.91454 0.67959 0.50371 0.07800
C 	C 	0.97845 0.74453 0.51925 -0.08500
C 	C 	0.97521 0.79834 0.53352 0.02700
C 	C 	0.91042 0.78765 0.53227 0.07100
C 	C 	0.84647 0.72185 0.51808 -0.08200
C 	C 	0.85003 0.66882 0.50287 0.01100
N 	N 	0.90628 0.62018 0.50428 -0.15000
C 	C 	0.83721 0.57188 0.50513 0.00000
C 	C 	0.80036 0.59998 0.50361 -0.04900
N 	N 	0.91788 0.84580 0.52809 -0.16400
C 	C 	0.98663 0.89344 0.52617 0.06700
H 	H 	0.79593 0.71304 0.51743 0.05200
H 	H 	0.94706 0.61620 0.51293 0.08800
H 	H 	0.87650 0.84678 0.51568 0.08800
C 	C 	0.90943 0.20403 0.45751 0.07600
C 	C 	0.97169 0.21655 0.47722 -0.08700
C 	C 	0.96537 0.16572 0.49657 0.02600
C 	C 	0.89985 0.10344 0.49500 0.06900
C 	C 	0.83779 0.09010 0.47442 -0.08400
C 	C 	0.84384 0.14127 0.45546 0.00900
N 	N 	0.90170 0.25427 0.45566 -0.15100
C 	C 	0.83176 0.22442 0.45294 -0.00600
C 	C 	0.79417 0.15413 0.45250 -0.04700
N 	N 	0.90758 0.05368 0.49902 -0.16400
C 	C 	0.97765 0.08369 0.50277 0.06700
H 	H 	0.78661 0.04164 0.47320 0.05000
H 	H 	0.94181 0.30633 0.46727 0.08600
H 	H 	0.86774 0.00120 0.48844 0.08800
C 	C 	0.76007 0.70020 0.90970 0.02100
N 	N 	0.76958 0.77567 0.95766 -0.16300
C 	C 	0.83008 0.80716 0.94309 0.05500
C 	C 	0.82577 0.76251 0.91271 -0.07300
H 	H 	0.77943 0.63049 0.88200 0.05400
H 	H 	0.87070 0.76921 0.90220 0.05400
H 	H 	0.76490 0.79301 0.98522 0.08700
C 	C 	0.84850 0.18724 0.01404 0.07500
C 	C 	0.88825 0.17876 0.98978 -0.08900
C 	C 	0.87043 0.11279 0.97974 0.01900
C 	C 	0.81852 0.05824 0.99536 0.07300
C 	C 	0.78124 0.06721 0.02119 -0.08400
C 	C 	0.79692 0.13262 0.03018 0.01000
N 	N 	0.83147 0.23023 0.00893 -0.15200
C 	C 	0.76895 0.20323 0.02099 -0.00500
N 	N 	0.83075 0.01105 0.99640 -0.16100
C 	C 	0.89134 0.03599 0.98252 0.05900
C 	C 	0.91698 0.09863 0.97115 -0.07400
H 	H 	0.92895 0.22122 0.97757 0.05200
H 	H 	0.84969 0.26319 0.98845 0.08100
H 	H 	0.80926 0.97308 0.01384 0.08500
