data_crystal

_cell_length_a 34.65765
_cell_length_b 29.91613
_cell_length_c 31.76909
_cell_angle_alpha 103.74900
_cell_angle_beta  115.79441
_cell_angle_gamma 111.98929

_symmetry_space_group_name_	'P 1'
_symmetry_space_group_name_H-M	'P 1'

loop_
_symmetry_equiv_pos_as_xyz
  x,y,z

loop_
_atom_site_label
_atom_site_type_symbol
_atom_site_fract_x
_atom_site_fract_y
_atom_site_fract_z
_atom_site_charge
N 	N 	0.58496 0.22024 0.85712 -0.12900
C 	C 	0.56105 0.24568 0.86318 0.14200
N 	N 	0.57303 0.29300 0.86013 -0.13900
C 	C 	0.60897 0.31490 0.85120 0.14300
N 	N 	0.63332 0.28975 0.84600 -0.13400
C 	C 	0.62157 0.24260 0.84922 0.14200
C 	C 	0.45121 0.17841 0.89787 -0.02600
C 	C 	0.43921 0.19229 0.85645 -0.02000
C 	C 	0.47536 0.21484 0.84566 -0.01600
C 	C 	0.52412 0.22348 0.87566 -0.03400
C 	C 	0.53636 0.20998 0.91693 0.06000
C 	C 	0.49968 0.18729 0.92808 0.05600
H 	H 	0.40198 0.18605 0.83275 0.05300
H 	H 	0.46509 0.22502 0.81354 0.05100
N 	N 	0.58247 0.21684 0.94846 -0.10500
N 	N 	0.51501 0.17477 0.96860 -0.10500
C 	C 	0.72173 0.18695 0.85740 -0.02600
C 	C 	0.70798 0.18875 0.89282 0.05700
C 	C 	0.67282 0.20486 0.88881 0.06000
C 	C 	0.65192 0.21883 0.84930 -0.03300
C 	C 	0.66414 0.21428 0.81219 -0.01600
C 	C 	0.69853 0.19829 0.81609 -0.02000
N 	N 	0.73128 0.18272 0.93653 -0.10300
N 	N 	0.66723 0.21261 0.92941 -0.10400
C 	C 	0.67368 0.47693 0.86600 -0.02500
C 	C 	0.66602 0.46787 0.90406 -0.02000
C 	C 	0.64198 0.41436 0.89745 -0.01600
C 	C 	0.62548 0.36875 0.85290 -0.03500
C 	C 	0.63056 0.37703 0.81359 0.06000
C 	C 	0.65486 0.43156 0.82019 0.05700
H 	H 	0.67969 0.50238 0.93946 0.05200
H 	H 	0.63811 0.40879 0.92819 0.05000
N 	N 	0.61904 0.33631 0.77086 -0.10800
N 	N 	0.66386 0.43616 0.78316 -0.10300
S 	S 	0.57307 0.19358 0.98705 0.11200
S 	S 	0.70597 0.19799 0.96610 0.11800
S 	S 	0.64018 0.37192 0.74531 0.11900
H 	H 	0.64791 0.22428 0.78092 0.05300
H 	H 	0.70839 0.19660 0.78798 0.05300
N 	N 	0.58500 0.22026 0.35715 -0.12900
C 	C 	0.56110 0.24569 0.36321 0.14200
N 	N 	0.57308 0.29302 0.36016 -0.13900
C 	C 	0.60901 0.31492 0.35123 0.14200
N 	N 	0.63336 0.28977 0.34602 -0.13400
C 	C 	0.62162 0.24262 0.34924 0.14200
C 	C 	0.45125 0.17842 0.39789 -0.02500
C 	C 	0.43925 0.19231 0.35648 -0.01900
C 	C 	0.47540 0.21485 0.34569 -0.01600
C 	C 	0.52416 0.22349 0.37569 -0.03300
C 	C 	0.53641 0.21000 0.41696 0.06000
C 	C 	0.49972 0.18731 0.42810 0.05700
H 	H 	0.40202 0.18607 0.33277 0.05400
H 	H 	0.46514 0.22503 0.31356 0.05200
N 	N 	0.58252 0.21686 0.44849 -0.10400
N 	N 	0.51506 0.17479 0.46863 -0.10400
C 	C 	0.72177 0.18697 0.35742 -0.02500
C 	C 	0.70803 0.18877 0.39285 0.05800
C 	C 	0.67287 0.20488 0.38884 0.06000
C 	C 	0.65197 0.21885 0.34933 -0.03200
C 	C 	0.66418 0.21430 0.31222 -0.01500
C 	C 	0.69857 0.19831 0.31612 -0.01900
N 	N 	0.73133 0.18275 0.43656 -0.10200
N 	N 	0.66728 0.21264 0.42944 -0.10400
C 	C 	0.67371 0.47695 0.36603 -0.02400
C 	C 	0.66606 0.46789 0.40408 -0.02000
C 	C 	0.64202 0.41438 0.39747 -0.01500
C 	C 	0.62552 0.36877 0.35292 -0.03400
C 	C 	0.63060 0.37705 0.31361 0.06000
C 	C 	0.65490 0.43158 0.32021 0.05800
H 	H 	0.67972 0.50240 0.43948 0.05400
H 	H 	0.63815 0.40881 0.42821 0.05200
N 	N 	0.61908 0.33633 0.27088 -0.10700
N 	N 	0.66390 0.43618 0.28318 -0.10200
S 	S 	0.57311 0.19359 0.48708 0.11800
S 	S 	0.70603 0.19802 0.46613 0.12200
S 	S 	0.64022 0.37193 0.24534 0.12400
H 	H 	0.64795 0.22430 0.28094 0.05400
H 	H 	0.70843 0.19662 0.28801 0.05400
N 	N 	0.47676 0.81989 0.03959 -0.13200
C 	C 	0.50152 0.79427 0.03750 0.14000
N 	N 	0.48405 0.74409 0.03501 -0.13100
C 	C 	0.44220 0.71984 0.03509 0.14000
N 	N 	0.41796 0.74589 0.03778 -0.13300
C 	C 	0.43519 0.79592 0.04012 0.14100
C 	C 	0.62686 0.86924 0.02473 -0.01400
C 	C 	0.58617 0.81382 0.98882 -0.03200
C 	C 	0.54603 0.78912 0.99396 -0.03000
C 	C 	0.54537 0.81941 0.03480 -0.01900
C 	C 	0.58600 0.87417 0.07107 0.05800
C 	C 	0.62704 0.89923 0.06605 0.05600
H 	H 	0.58550 0.78968 0.95682 0.05400
H 	H 	0.51498 0.74664 0.96547 0.05300
N 	N 	0.58850 0.90751 0.11121 -0.10500
N 	N 	0.66352 0.95355 0.10175 -0.10200
C 	C 	0.33683 0.85605 0.02347 -0.01400
C 	C 	0.35632 0.84444 0.06527 0.05700
C 	C 	0.39119 0.82703 0.07270 0.05800
C 	C 	0.40608 0.82165 0.03826 -0.01900
C 	C 	0.38848 0.83644 0.99815 -0.02900
C 	C 	0.35403 0.85316 0.99066 -0.03100
N 	N 	0.33923 0.84194 0.09662 -0.10200
N 	N 	0.40334 0.81043 0.11048 -0.10700
C 	C 	0.37296 0.55654 0.01754 -0.01300
C 	C 	0.38414 0.60133 0.05859 -0.01900
C 	C 	0.40845 0.65488 0.06539 -0.01700
C 	C 	0.42256 0.66506 0.03157 -0.01900
C 	C 	0.41335 0.62120 0.99198 0.04600
C 	C 	0.38835 0.56654 0.98489 0.04600
H 	H 	0.37283 0.59460 0.08453 0.05600
H 	H 	0.41555 0.68832 0.09654 0.05500
N 	N 	0.42278 0.62594 0.95526 -0.11000
N 	N 	0.37739 0.52591 0.94256 -0.10400
S 	S 	0.64150 0.96518 0.13657 0.12700
S 	S 	0.36956 0.81894 0.13108 0.12100
S 	S 	0.39968 0.56177 0.91778 0.11200
H 	H 	0.39986 0.83298 0.97133 0.05100
H 	H 	0.33985 0.86266 0.95846 0.05600
N 	N 	0.47680 0.81991 0.53961 -0.13500
C 	C 	0.50156 0.79429 0.53753 0.14100
N 	N 	0.48410 0.74411 0.53503 -0.13400
C 	C 	0.44224 0.71986 0.53512 0.14100
N 	N 	0.41801 0.74591 0.53781 -0.13500
C 	C 	0.43524 0.79594 0.54015 0.14200
C 	C 	0.62690 0.86926 0.52476 -0.02600
C 	C 	0.58621 0.81384 0.48885 -0.02000
C 	C 	0.54607 0.78914 0.49399 -0.01600
C 	C 	0.54542 0.81943 0.53483 -0.03300
C 	C 	0.58605 0.87419 0.57110 0.05900
C 	C 	0.62708 0.89924 0.56608 0.05600
H 	H 	0.58554 0.78970 0.45685 0.05500
H 	H 	0.51502 0.74666 0.46549 0.05300
N 	N 	0.58855 0.90753 0.61124 -0.10600
N 	N 	0.66357 0.95356 0.60178 -0.10400
C 	C 	0.33687 0.85608 0.52349 -0.02500
C 	C 	0.35637 0.84446 0.56529 0.05700
C 	C 	0.39124 0.82705 0.57272 0.06000
C 	C 	0.40612 0.82167 0.53829 -0.03400
C 	C 	0.38853 0.83646 0.49818 -0.01400
C 	C 	0.35408 0.85318 0.49068 -0.01900
N 	N 	0.33927 0.84196 0.59664 -0.10300
N 	N 	0.40338 0.81045 0.61050 -0.10800
C 	C 	0.37300 0.55656 0.51757 -0.02500
C 	C 	0.38418 0.60135 0.55862 -0.02000
C 	C 	0.40849 0.65490 0.56541 -0.01500
C 	C 	0.42260 0.66508 0.53160 -0.03400
C 	C 	0.41340 0.62122 0.49201 0.05900
C 	C 	0.38839 0.56656 0.48492 0.05700
H 	H 	0.37287 0.59462 0.58455 0.05500
H 	H 	0.41559 0.68834 0.59657 0.05300
N 	N 	0.42282 0.62596 0.45528 -0.10900
N 	N 	0.37744 0.52593 0.44259 -0.10300
S 	S 	0.64155 0.96519 0.63660 0.12400
S 	S 	0.36960 0.81895 0.63110 0.11700
S 	S 	0.39972 0.56179 0.41781 0.11600
H 	H 	0.39991 0.83300 0.47135 0.05200
H 	H 	0.33991 0.86269 0.45849 0.05600
Zn	Zn	0.14492 0.11220 0.00438 1.19100
Zn	Zn	0.06237 0.07932 0.89314 1.19500
O 	O 	0.04195 0.98045 0.80156 -0.44000
O 	O 	0.03631 0.05589 0.81574 -0.42000
O 	O 	0.03493 0.91191 0.87310 -0.47100
C 	C 	0.18589 0.07126 0.95732 0.26800
O 	O 	0.00770 0.00700 0.87209 -0.89100
C 	C 	0.15990 0.19282 0.96529 0.27900
O 	O 	0.19675 0.10080 0.00343 -0.41700
O 	O 	0.13869 0.04314 0.91448 -0.33600
O 	O 	0.07741 0.08761 0.96529 -0.78600
O 	O 	0.08233 0.98449 0.95591 -0.43900
O 	O 	0.12184 0.15169 0.91647 -0.42500
O 	O 	0.17200 0.18544 0.00744 -0.42000
Zn	Zn	0.90983 0.93189 0.89508 1.17900
Zn	Zn	0.99251 0.94948 0.99113 1.18900
Zn	Zn	0.02474 0.01489 0.94096 1.21200
C 	C 	0.89198 0.84285 0.92618 0.29500
C 	C 	0.89307 0.98315 0.96575 0.27900
O 	O 	0.96828 0.04874 0.92673 -0.44300
Zn	Zn	0.01715 0.06049 0.03435 1.20000
O 	O 	0.94088 0.87301 0.96681 -0.42900
O 	O 	0.87282 0.85930 0.89179 -0.43400
O 	O 	0.87730 0.96415 0.91582 -0.44200
O 	O 	0.93613 0.99026 0.00147 -0.43400
C 	C 	0.03250 0.01678 0.10773 0.28600
O 	O 	0.97190 0.94244 0.91744 -0.78300
C 	C 	0.97239 0.08980 0.95945 0.27700
O 	O 	0.01753 0.97067 0.06959 -0.39800
O 	O 	0.04210 0.06139 0.10257 -0.44200
O 	O 	0.99670 0.10464 0.01034 -0.44300
O 	O 	0.04113 0.02291 0.00942 -0.89400
Zn	Zn	0.01614 0.95300 0.84083 1.18900
C 	C 	0.03780 0.01733 0.78742 0.28000
C 	C 	0.07198 0.93785 0.92406 0.29000
H 	H 	0.07716 0.03628 0.03602 0.17300
H 	H 	0.97309 0.99928 0.84864 0.17400
Zn	Zn	0.14496 0.11222 0.50440 1.18700
Zn	Zn	0.06241 0.07934 0.39316 1.19500
O 	O 	0.04198 0.98047 0.30157 -0.43900
O 	O 	0.03635 0.05591 0.31577 -0.41900
O 	O 	0.03497 0.91193 0.37312 -0.46900
C 	C 	0.18593 0.07127 0.45734 0.28200
O 	O 	0.00774 0.00701 0.37211 -0.89100
C 	C 	0.15994 0.19284 0.46532 0.29100
O 	O 	0.19679 0.10082 0.50345 -0.43100
O 	O 	0.13873 0.04316 0.41450 -0.33700
O 	O 	0.07745 0.08762 0.46531 -0.78000
O 	O 	0.08237 0.98451 0.45593 -0.43500
O 	O 	0.12188 0.15171 0.41649 -0.42600
O 	O 	0.17204 0.18546 0.50746 -0.43300
Zn	Zn	0.90987 0.93190 0.39510 1.18000
Zn	Zn	0.99255 0.94950 0.49115 1.19400
Zn	Zn	0.02478 0.01490 0.44098 1.21400
C 	C 	0.89202 0.84286 0.42620 0.29500
C 	C 	0.89312 0.98317 0.46577 0.29200
O 	O 	0.96832 0.04875 0.42676 -0.44400
Zn	Zn	0.01719 0.06051 0.53438 1.19900
O 	O 	0.94092 0.87302 0.46683 -0.42400
O 	O 	0.87286 0.85932 0.39181 -0.43300
O 	O 	0.87734 0.96417 0.41585 -0.44300
O 	O 	0.93617 0.99027 0.50149 -0.44700
C 	C 	0.03253 0.01679 0.60774 0.28700
O 	O 	0.97194 0.94246 0.41746 -0.78000
C 	C 	0.97243 0.08982 0.45948 0.29200
O 	O 	0.01757 0.97068 0.56961 -0.40400
O 	O 	0.04214 0.06140 0.60259 -0.44400
O 	O 	0.99675 0.10466 0.51037 -0.45700
O 	O 	0.04117 0.02292 0.50944 -0.90200
Zn	Zn	0.01617 0.95302 0.34085 1.19000
C 	C 	0.03782 0.01735 0.28744 0.28000
C 	C 	0.07202 0.93786 0.42407 0.29000
H 	H 	0.07720 0.03629 0.53604 0.17100
H 	H 	0.97313 0.99930 0.34867 0.17500
C 	C 	0.03872 0.01796 0.74188 0.04000
N 	N 	0.04710 0.06263 0.73459 -0.05500
N 	N 	0.04697 0.06292 0.69268 -0.05600
C 	C 	0.03825 0.01844 0.65671 0.04200
N 	N 	0.03026 0.97386 0.66419 -0.05200
N 	N 	0.03084 0.97377 0.70642 -0.05600
C 	C 	0.03823 0.01844 0.15670 0.04300
N 	N 	0.04696 0.06292 0.19267 -0.05600
N 	N 	0.04710 0.06264 0.23459 -0.05400
C 	C 	0.03873 0.01797 0.24188 0.04100
N 	N 	0.03084 0.97378 0.20642 -0.05500
N 	N 	0.03025 0.97386 0.16419 -0.05100
C 	C 	0.28574 0.39963 0.49360 0.10000
N 	N 	0.32804 0.44029 0.54294 -0.06700
N 	N 	0.35673 0.48992 0.55029 -0.07800
C 	C 	0.34411 0.50029 0.50849 0.12900
N 	N 	0.30200 0.45952 0.45906 -0.07300
N 	N 	0.27333 0.40983 0.45169 -0.06600
C 	C 	0.19214 0.24681 0.47254 0.04300
N 	N 	0.18138 0.25556 0.42991 -0.05300
N 	N 	0.21133 0.30433 0.43656 -0.06700
C 	C 	0.25297 0.34561 0.48602 0.10400
N 	N 	0.26368 0.33678 0.52859 -0.06800
N 	N 	0.23371 0.28811 0.52195 -0.05600
C 	C 	0.78369 0.95612 0.49659 0.10500
N 	N 	0.83277 0.97699 0.53656 -0.06600
N 	N 	0.86850 0.98851 0.52743 -0.05300
C 	C 	0.85619 0.97958 0.47809 0.04400
N 	N 	0.80752 0.96062 0.43864 -0.05100
N 	N 	0.77178 0.94904 0.44774 -0.06600
C 	C 	0.66798 0.89487 0.51821 0.12900
N 	N 	0.65624 0.88892 0.46969 -0.07700
N 	N 	0.69328 0.90983 0.46313 -0.06500
C 	C 	0.74312 0.93709 0.50485 0.10100
N 	N 	0.75487 0.94340 0.55348 -0.06600
N 	N 	0.71782 0.92259 0.56007 -0.07400
C 	C 	0.22012 0.88465 0.48657 0.10100
N 	N 	0.21402 0.84392 0.44915 -0.06500
N 	N 	0.25135 0.83493 0.46098 -0.07700
C 	C 	0.29576 0.86620 0.51066 0.13000
N 	N 	0.30187 0.90682 0.54822 -0.07200
N 	N 	0.26460 0.91604 0.53629 -0.06500
C 	C 	0.10774 0.92049 0.44328 0.03100
N 	N 	0.15318 0.95416 0.49212 -0.06300
N 	N 	0.18859 0.94191 0.50668 -0.06900
C 	C 	0.17960 0.89576 0.47271 0.10400
N 	N 	0.13370 0.86147 0.42444 -0.06800
N 	N 	0.09831 0.87367 0.40993 -0.05500
C 	C 	0.28570 0.39961 0.99358 0.09000
N 	N 	0.32800 0.44027 0.04291 -0.05800
N 	N 	0.35669 0.48990 0.05026 -0.07700
C 	C 	0.34407 0.50027 0.00846 0.13900
N 	N 	0.30196 0.45950 0.95904 -0.08100
N 	N 	0.27329 0.40981 0.95167 -0.06600
C 	C 	0.19211 0.24679 0.97252 0.03600
N 	N 	0.18134 0.25554 0.92988 -0.05300
N 	N 	0.21129 0.30431 0.93654 -0.06700
C 	C 	0.25293 0.34559 0.98599 0.09500
N 	N 	0.26365 0.33677 0.02856 -0.06000
N 	N 	0.23367 0.28809 0.02192 -0.04800
C 	C 	0.74307 0.93708 0.00482 0.12700
N 	N 	0.75482 0.94338 0.05345 -0.06800
N 	N 	0.71777 0.92258 0.06004 -0.07300
C 	C 	0.66793 0.89485 0.01818 0.13700
N 	N 	0.65620 0.88890 0.96966 -0.08500
N 	N 	0.69324 0.90981 0.96310 -0.07500
C 	C 	0.85615 0.97957 0.97807 0.03600
N 	N 	0.80748 0.96060 0.93861 -0.05200
N 	N 	0.77174 0.94902 0.94772 -0.06400
C 	C 	0.78364 0.95610 0.99656 0.08000
N 	N 	0.83273 0.97698 0.03654 -0.05600
N 	N 	0.86846 0.98849 0.02741 -0.04500
C 	C 	0.22007 0.88463 0.98656 0.09100
N 	N 	0.21397 0.84390 0.94913 -0.06600
N 	N 	0.25131 0.83491 0.96096 -0.08500
C 	C 	0.29571 0.86618 0.01064 0.14000
N 	N 	0.30183 0.90680 0.04820 -0.07100
N 	N 	0.26456 0.91602 0.03628 -0.05700
C 	C 	0.10770 0.92047 0.94326 0.02900
N 	N 	0.15313 0.95414 0.99210 -0.07000
N 	N 	0.18855 0.94189 0.00666 -0.05600
C 	C 	0.17955 0.89574 0.97270 0.09600
N 	N 	0.13365 0.86144 0.92443 -0.06800
N 	N 	0.09826 0.87365 0.90991 -0.05600
C 	C 	0.83754 0.15845 0.38785 0.10100
N 	N 	0.84802 0.20576 0.42169 -0.06400
N 	N 	0.81137 0.21570 0.41098 -0.07200
C 	C 	0.76321 0.17867 0.36610 0.13000
N 	N 	0.75299 0.13212 0.33139 -0.07700
N 	N 	0.78965 0.12208 0.34215 -0.06600
C 	C 	0.94146 0.11155 0.43774 0.03400
N 	N 	0.89774 0.08016 0.38746 -0.06400
N 	N 	0.86538 0.09620 0.37058 -0.07000
C 	C 	0.87604 0.14424 0.40342 0.10500
N 	N 	0.92069 0.17655 0.45293 -0.06600
N 	N 	0.95279 0.16030 0.46994 -0.05200
C 	C 	0.79691 0.68962 0.40302 0.10500
N 	N 	0.84596 0.72360 0.44720 -0.06600
N 	N 	0.87638 0.77252 0.45455 -0.05100
C 	C 	0.85860 0.78889 0.41798 0.04500
N 	N 	0.80949 0.75505 0.37394 -0.05500
N 	N 	0.77911 0.70604 0.36649 -0.06700
C 	C 	0.70458 0.53338 0.37668 0.12900
N 	N 	0.68756 0.54856 0.33883 -0.07200
N 	N 	0.71674 0.59876 0.34753 -0.06500
C 	C 	0.76379 0.63514 0.39430 0.10100
N 	N 	0.78049 0.62017 0.43240 -0.06600
N 	N 	0.75125 0.57003 0.42375 -0.07700
C 	C 	0.30242 0.09954 0.43781 0.10500
N 	N 	0.31388 0.12658 0.48663 -0.06600
N 	N 	0.27681 0.11535 0.49367 -0.05400
C 	C 	0.22725 0.07673 0.45212 0.04900
N 	N 	0.21603 0.04828 0.40381 -0.05300
N 	N 	0.25308 0.05948 0.39676 -0.06600
C 	C 	0.41331 0.15532 0.40899 0.12900
N 	N 	0.36450 0.11320 0.36861 -0.07800
N 	N 	0.32944 0.09421 0.37813 -0.06600
C 	C 	0.34214 0.11694 0.42827 0.10000
N 	N 	0.39111 0.15873 0.46875 -0.06500
N 	N 	0.42620 0.17765 0.45924 -0.07300
C 	C 	0.83750 0.15843 0.88782 0.10000
N 	N 	0.78960 0.12206 0.84213 -0.06700
N 	N 	0.75294 0.13210 0.83136 -0.07800
C 	C 	0.76316 0.17865 0.86608 0.12900
N 	N 	0.81132 0.21568 0.91096 -0.07300
N 	N 	0.84798 0.20574 0.92166 -0.06500
C 	C 	0.94142 0.11153 0.93771 0.03600
N 	N 	0.95275 0.16028 0.96991 -0.05600
N 	N 	0.92065 0.17653 0.95290 -0.06700
C 	C 	0.87599 0.14422 0.90339 0.10400
N 	N 	0.86533 0.09617 0.87055 -0.07000
N 	N 	0.89770 0.08014 0.88744 -0.06500
C 	C 	0.76375 0.63512 0.89428 0.10000
N 	N 	0.78045 0.62015 0.93238 -0.06700
N 	N 	0.75121 0.57002 0.92373 -0.07900
C 	C 	0.70454 0.53336 0.87666 0.12800
N 	N 	0.68752 0.54854 0.83880 -0.07300
N 	N 	0.71671 0.59875 0.84751 -0.06600
C 	C 	0.85856 0.78887 0.91796 0.04300
N 	N 	0.80945 0.75503 0.87392 -0.05600
N 	N 	0.77907 0.70602 0.86647 -0.06800
C 	C 	0.79687 0.68960 0.90300 0.10300
N 	N 	0.84592 0.72358 0.94718 -0.06800
N 	N 	0.87634 0.77250 0.95453 -0.05300
C 	C 	0.34210 0.11693 0.92825 0.09900
N 	N 	0.39107 0.15871 0.96873 -0.06700
N 	N 	0.42616 0.17764 0.95922 -0.07400
C 	C 	0.41327 0.15531 0.90897 0.12800
N 	N 	0.36446 0.11319 0.86859 -0.07900
N 	N 	0.32940 0.09420 0.87811 -0.06700
C 	C 	0.22721 0.07672 0.95210 0.05100
N 	N 	0.21599 0.04826 0.90379 -0.05400
N 	N 	0.25304 0.05947 0.89674 -0.06700
C 	C 	0.30238 0.09952 0.93779 0.10300
N 	N 	0.31385 0.12657 0.98661 -0.06800
N 	N 	0.27677 0.11533 0.99365 -0.05700
