data_crystal

_cell_length_a 13.14813
_cell_length_b 13.51008
_cell_length_c 44.12865
_cell_angle_alpha 90.23898
_cell_angle_beta  90.24790
_cell_angle_gamma 119.35730

_symmetry_space_group_name_	'P 1'
_symmetry_space_group_name_H-M	'P 1'

loop_
_symmetry_equiv_pos_as_xyz
  x,y,z

loop_
_atom_site_label
_atom_site_type_symbol
_atom_site_fract_x
_atom_site_fract_y
_atom_site_fract_z
_atom_site_charge
O 	O 	0.00933 0.01055 0.78873 -0.72700
H 	H 	0.00922 0.01558 0.81099 0.15700
H 	H 	0.00761 0.54631 0.47645 0.03100
O 	O 	0.03054 0.82387 0.80918 -0.37100
O 	O 	0.03546 0.80971 0.27993 -0.36600
C 	C 	0.04065 0.20694 0.01630 0.00300
O 	O 	0.99959 0.84433 0.21895 -0.36600
C 	C 	0.45766 0.26637 0.97901 0.28000
C 	C 	0.84262 0.58906 0.89980 0.30400
C 	C 	0.47513 0.29868 0.89144 0.30500
C 	C 	0.80823 0.54751 0.98739 0.27900
C 	C 	0.75841 0.22832 0.88991 0.30600
C 	C 	0.78146 0.20180 0.96923 0.29400
Ni	Ni	0.62622 0.46301 0.93862 1.11500
Ni	Ni	0.84315 0.41109 0.93812 1.12200
Ni	Ni	0.58260 0.20353 0.93347 1.12200
O 	O 	0.46948 0.34873 0.96032 -0.36100
O 	O 	0.49562 0.19431 0.97179 -0.37300
O 	O 	0.84144 0.29003 0.90992 -0.37800
O 	O 	0.77178 0.59966 0.91890 -0.36100
O 	O 	0.85702 0.50004 0.90028 -0.37600
O 	O 	0.68021 0.14127 0.95438 -0.37400
O 	O 	0.55253 0.40531 0.89616 -0.36700
O 	O 	0.45506 0.22207 0.91227 -0.37200
O 	O 	0.82851 0.31229 0.97301 -0.39400
O 	O 	0.70686 0.53784 0.97914 -0.36900
O 	O 	0.88210 0.54638 0.96684 -0.36600
O 	O 	0.65184 0.21069 0.89290 -0.38500
O 	O 	0.68211 0.35948 0.94282 -0.71600
H 	H 	0.67839 0.35279 0.96499 0.15200
C 	C 	0.65396 0.16326 0.59373 0.28900
C 	C 	0.87736 0.52687 0.68726 0.30800
C 	C 	0.69304 0.16656 0.67963 0.31100
C 	C 	0.89633 0.55704 0.60214 0.27700
C 	C 	0.50901 0.34758 0.68935 0.31400
C 	C 	0.50389 0.39447 0.60424 0.28200
Ni	Ni	0.82715 0.35249 0.63896 1.11300
Ni	Ni	0.69417 0.49692 0.64755 1.12200
Ni	Ni	0.54700 0.22905 0.64176 1.12200
O 	O 	0.74909 0.19977 0.61185 -0.35800
O 	O 	0.56277 0.17281 0.60163 -0.39000
O 	O 	0.54519 0.43901 0.67262 -0.36900
O 	O 	0.92951 0.49982 0.66595 -0.35300
O 	O 	0.76619 0.48274 0.68588 -0.38000
O 	O 	0.45655 0.30257 0.62229 -0.36900
O 	O 	0.76719 0.27304 0.67929 -0.37300
O 	O 	0.60502 0.12494 0.66027 -0.36600
O 	O 	0.59979 0.48868 0.61203 -0.38900
O 	O 	0.88793 0.45587 0.60251 -0.37600
O 	O 	0.85200 0.59317 0.62450 -0.35900
O 	O 	0.54790 0.27869 0.68389 -0.38600
O 	O 	0.69052 0.36198 0.63298 -0.71000
H 	H 	0.68717 0.36865 0.61079 0.17200
C 	C 	0.94684 0.80657 0.82914 0.29600
C 	C 	0.84936 0.05582 0.73648 0.30000
C 	C 	0.96684 0.79224 0.74335 0.31000
C 	C 	0.86401 0.09518 0.82258 0.28100
C 	C 	0.22817 0.16267 0.73991 0.30100
C 	C 	0.23596 0.16957 0.82418 0.28500
Ni	Ni	0.85393 0.90037 0.78219 1.11700
Ni	Ni	0.05622 0.16314 0.77919 1.12000
Ni	Ni	0.12748 0.97028 0.78424 1.12300
O 	O 	0.86217 0.82865 0.82236 -0.36600
O 	O 	0.12902 0.16243 0.74003 -0.39100
O 	O 	0.84116 0.95660 0.73985 -0.37100
O 	O 	0.90989 0.13901 0.75600 -0.35800
O 	O 	0.20347 0.06047 0.82144 -0.38000
O 	O 	0.87785 0.77273 0.76105 -0.35200
O 	O 	0.06351 0.88886 0.74463 -0.38900
O 	O 	0.21069 0.22529 0.80303 -0.36700
O 	O 	0.79846 0.00657 0.80420 -0.34900
O 	O 	0.97390 0.16884 0.81653 -0.36500
O 	O 	0.24998 0.10186 0.75968 -0.36600
C 	C 	0.16872 0.48147 0.46375 0.28000
C 	C 	0.25968 0.79532 0.36738 0.29500
C 	C 	0.14513 0.43925 0.37486 0.29400
C 	C 	0.29275 0.83478 0.45571 0.27600
C 	C 	0.50669 0.68578 0.36751 0.29600
C 	C 	0.52624 0.69921 0.45580 0.28700
Ni	Ni	0.15678 0.62536 0.41584 1.11000
Ni	Ni	0.44020 0.80519 0.41111 1.12200
Ni	Ni	0.34913 0.53543 0.41548 1.11800
O 	O 	0.10346 0.47934 0.44099 -0.37300
O 	O 	0.27135 0.48686 0.45789 -0.36600
O 	O 	0.54524 0.76379 0.38871 -0.37200
O 	O 	0.19073 0.76564 0.39073 -0.36700
O 	O 	0.36959 0.81775 0.37039 -0.35600
O 	O 	0.50917 0.62907 0.43334 -0.38300
O 	O 	0.12168 0.52416 0.37642 -0.35900
O 	O 	0.19492 0.41779 0.39769 -0.37500
O 	O 	0.51404 0.79065 0.45097 -0.36700
O 	O 	0.19501 0.73445 0.45413 -0.36000
O 	O 	0.35653 0.87831 0.43146 -0.37000
O 	O 	0.42090 0.58105 0.37319 -0.36500
O 	O 	0.31301 0.65620 0.41774 -0.69800
H 	H 	0.31917 0.66429 0.43979 0.13400
C 	C 	0.19509 0.70061 0.16292 0.28300
C 	C 	0.23853 0.47276 0.05633 0.30100
C 	C 	0.13874 0.40116 0.15066 0.30800
C 	C 	0.28293 0.78221 0.06646 0.28700
C 	C 	0.51761 0.55348 0.11748 0.30300
C 	C 	0.56697 0.81393 0.14124 0.29800
Ni	Ni	0.15629 0.57091 0.10509 1.11400
Ni	Ni	0.43112 0.68170 0.08472 1.11900
Ni	Ni	0.35892 0.60858 0.15361 1.12200
O 	O 	0.14424 0.68165 0.13586 -0.36200
O 	O 	0.23180 0.63174 0.17371 -0.36400
O 	O 	0.45627 0.55109 0.09394 -0.39300
O 	O 	0.16861 0.44876 0.07957 -0.37100
O 	O 	0.32042 0.57876 0.05137 -0.37100
O 	O 	0.46743 0.77411 0.15510 -0.38900
O 	O 	0.08300 0.45068 0.13939 -0.36500
O 	O 	0.24942 0.44331 0.14530 -0.38300
O 	O 	0.57152 0.79383 0.11156 -0.37100
O 	O 	0.19345 0.67731 0.06764 -0.37100
O 	O 	0.39212 0.80276 0.07065 -0.36900
O 	O 	0.49565 0.58093 0.14449 -0.37500
O 	O 	0.31676 0.64322 0.11537 -0.70600
H 	H 	0.32909 0.72019 0.11891 0.16100
C 	C 	0.11368 0.88916 0.21877 0.28000
C 	C 	0.05379 0.19667 0.30896 0.28200
C 	C 	0.10954 0.88242 0.30016 0.29800
C 	C 	0.06207 0.20598 0.22410 0.26100
C 	C 	0.73355 0.82232 0.29814 0.29600
C 	C 	0.77908 0.89441 0.21263 0.27500
Ni	Ni	0.13907 0.07802 0.26442 1.09900
Ni	Ni	0.87498 0.04534 0.26546 1.10900
Ni	Ni	0.90877 0.82768 0.25670 1.12400
O 	O 	0.18343 0.97353 0.23761 -0.34700
O 	O 	0.73523 0.91150 0.28519 -0.35600
O 	O 	0.13986 0.20674 0.29156 -0.35700
O 	O 	0.94849 0.10829 0.30649 -0.36800
O 	O 	0.77374 0.81112 0.22992 -0.36700
O 	O 	0.12648 0.98578 0.30242 -0.36000
O 	O 	0.79709 0.99102 0.22502 -0.35700
O 	O 	0.14460 0.17824 0.22848 -0.36900
O 	O 	0.98957 0.19661 0.24612 -0.35600
O 	O 	0.82130 0.80248 0.29543 -0.37400
O 	O 	0.97839 0.98778 0.25721 -0.69500
H 	H 	0.98215 0.99750 0.23517 0.15300
C 	C 	0.07066 0.27121 0.19815 -0.02800
C 	C 	0.09248 0.32852 0.17597 -0.05600
C 	C 	0.66572 0.84656 0.16069 -0.04500
C 	C 	0.72582 0.86727 0.18307 -0.01800
C 	C 	0.16035 0.83434 0.20006 -0.02900
C 	C 	0.18202 0.77626 0.18342 -0.03100
C 	C 	0.57351 0.71290 0.34001 -0.03000
C 	C 	0.64306 0.75717 0.31977 -0.02700
C 	C 	0.10278 0.35881 0.34997 -0.03800
C 	C 	0.07640 0.28523 0.33088 -0.03400
C 	C 	0.21996 0.82450 0.34029 -0.03000
C 	C 	0.17168 0.84803 0.32058 -0.03100
C 	C 	0.33078 0.90256 0.48406 -0.03600
C 	C 	0.37757 0.02090 0.48164 -0.02800
C 	C 	0.47415 0.09503 0.49930 -0.03700
C 	C 	0.51579 0.05200 0.52212 -0.01300
C 	C 	0.45264 0.93557 0.52906 0.04700
C 	C 	0.36243 0.86005 0.50936 -0.04100
C 	C 	0.48142 0.89628 0.55531 -0.07200
C 	C 	0.57757 0.97083 0.57328 0.02600
C 	C 	0.63515 0.08833 0.56766 -0.08200
C 	C 	0.61447 0.12514 0.53966 -0.00600
H 	H 	0.34901 0.05515 0.46340 0.04300
H 	H 	0.51668 0.18550 0.49506 0.03800
H 	H 	0.32543 0.76931 0.51203 0.05000
H 	H 	0.42574 0.80999 0.56276 0.04800
H 	H 	0.59469 0.93995 0.59425 0.03600
H 	H 	0.66194 0.21498 0.53437 0.03700
C 	C 	0.14610 0.51823 0.49383 -0.08000
C 	C 	0.20875 0.52103 0.51988 0.00900
C 	C 	0.19422 0.56701 0.54715 -0.06500
C 	C 	0.11311 0.60664 0.54882 0.03000
C 	C 	0.04771 0.60127 0.52291 -0.00600
C 	C 	0.06177 0.55423 0.49591 -0.00600
C 	C 	0.96225 0.63514 0.52507 -0.02600
C 	C 	0.92885 0.65496 0.55363 -0.01100
C 	C 	0.97769 0.63656 0.57983 -0.03900
C 	C 	0.08525 0.63765 0.57684 -0.04000
H 	H 	0.26453 0.48359 0.51940 0.04100
H 	H 	0.24301 0.56817 0.56712 0.04600
H 	H 	0.91592 0.63784 0.50499 0.04600
H 	H 	0.85288 0.66608 0.55537 0.04300
H 	H 	0.13224 0.63776 0.59712 0.04700
C 	C 	0.44035 0.40197 0.57783 -0.06400
C 	C 	0.42652 0.33304 0.55253 -0.00300
C 	C 	0.44233 0.37838 0.52326 -0.05200
C 	C 	0.47421 0.49338 0.51940 0.01100
C 	C 	0.47920 0.55915 0.54468 0.01600
C 	C 	0.44613 0.50757 0.57307 -0.02000
C 	C 	0.52229 0.67638 0.54145 -0.05800
C 	C 	0.54276 0.72478 0.51249 0.00600
C 	C 	0.52498 0.65674 0.48684 -0.07300
C 	C 	0.49905 0.54268 0.49064 -0.01500
H 	H 	0.41656 0.24920 0.55560 0.03800
H 	H 	0.43538 0.32590 0.50387 0.04200
H 	H 	0.44641 0.55735 0.59247 0.04500
H 	H 	0.54409 0.73019 0.56132 0.04600
H 	H 	0.57466 0.81488 0.51010 0.04500
H 	H 	0.49376 0.49135 0.47111 0.03700
C 	C 	0.72287 0.09720 0.69769 -0.04400
C 	C 	0.77443 0.06854 0.71501 -0.03100
C 	C 	0.40529 0.30390 0.70682 -0.04600
C 	C 	0.32147 0.24439 0.72187 -0.03500
C 	C 	0.95826 0.70495 0.72285 -0.03200
C 	C 	0.93729 0.62694 0.70576 -0.04200
C 	C 	0.20749 0.38416 0.03267 -0.06900
C 	C 	0.23866 0.41473 0.00236 0.01000
C 	C 	0.16795 0.34325 0.97898 -0.05300
C 	C 	0.06206 0.24573 0.98604 0.00600
C 	C 	0.12079 0.27212 0.03902 -0.01300
C 	C 	0.92850 0.12018 0.02417 -0.04000
C 	C 	0.83414 0.09349 0.00457 0.00200
C 	C 	0.85396 0.15041 0.97690 -0.06800
C 	C 	0.96815 0.20412 0.96549 -0.00800
H 	H 	0.31152 0.49708 0.99690 0.04100
H 	H 	0.18832 0.37058 0.95568 0.04500
H 	H 	0.10426 0.24359 0.06233 0.04700
H 	H 	0.91209 0.08455 0.04674 0.04300
H 	H 	0.74585 0.04197 0.01268 0.03400
H 	H 	0.98304 0.23589 0.94248 0.04700
C 	C 	0.26338 0.87194 0.05360 -0.07800
C 	C 	0.18474 0.84658 0.02934 0.00900
C 	C 	0.17708 0.93353 0.01435 -0.04700
C 	C 	0.25143 0.04696 0.02267 0.01300
C 	C 	0.32260 0.07223 0.04889 -0.01300
C 	C 	0.32670 0.98394 0.06458 0.02900
C 	C 	0.40256 0.18619 0.05580 -0.03800
C 	C 	0.42962 0.26927 0.03363 -0.00300
C 	C 	0.37872 0.23637 0.00474 -0.06000
C 	C 	0.27315 0.13438 0.00226 -0.01800
H 	H 	0.13403 0.76009 0.02107 0.04200
H 	H 	0.12067 0.91327 0.99465 0.04600
H 	H 	0.38462 0.00310 0.08395 0.02200
H 	H 	0.45156 0.20833 0.07686 0.04000
H 	H 	0.50289 0.35368 0.03720 0.03900
H 	H 	0.22355 0.11480 0.98126 0.04400
C 	C 	0.84525 0.57831 0.01910 -0.06200
C 	C 	0.88502 0.69106 0.02830 0.00900
C 	C 	0.85606 0.71448 0.05693 -0.05400
C 	C 	0.78417 0.62478 0.07612 0.01800
C 	C 	0.76050 0.51345 0.06896 0.01500
C 	C 	0.79699 0.49199 0.04092 -0.02600
C 	C 	0.68453 0.42312 0.08745 -0.05800
C 	C 	0.61563 0.43975 0.10883 0.01100
C 	C 	0.62474 0.54716 0.11224 -0.07000
C 	C 	0.72032 0.64147 0.09916 -0.02100
H 	H 	0.92499 0.75886 0.01196 0.04000
H 	H 	0.87950 0.80109 0.06282 0.05200
H 	H 	0.77107 0.40529 0.03432 0.04200
H 	H 	0.67063 0.33823 0.08335 0.04500
H 	H 	0.54656 0.36700 0.12016 0.03500
H 	H 	0.73307 0.72590 0.10344 0.04900
C 	C 	0.81058 0.12779 0.84595 -0.02300
C 	C 	0.78265 0.17038 0.86602 -0.03900
C 	C 	0.32266 0.23207 0.84672 -0.02700
C 	C 	0.39438 0.26911 0.86674 -0.03800
C 	C 	0.89248 0.66833 0.87544 -0.03400
C 	C 	0.92602 0.73263 0.85432 -0.02500
