data_crystal

_cell_length_a 18.11061
_cell_length_b 16.39176
_cell_length_c 42.14608
_cell_angle_alpha 90.48617
_cell_angle_beta  91.08558
_cell_angle_gamma 111.01819

_symmetry_space_group_name_	'P 1'
_symmetry_space_group_name_H-M	'P 1'

loop_
_symmetry_equiv_pos_as_xyz
  x,y,z

loop_
_atom_site_label
_atom_site_type_symbol
_atom_site_fract_x
_atom_site_fract_y
_atom_site_fract_z
_atom_site_charge
Ni	Ni	0.74804 0.38417 0.88486 1.10600
O 	O 	0.64885 0.31203 0.85918 -0.70300
Ni	Ni	0.56496 0.32575 0.88606 1.10800
O 	O 	0.81810 0.35826 0.85171 -0.27400
O 	O 	0.75222 0.21075 0.85537 -0.36500
O 	O 	0.74206 0.48602 0.85871 -0.33200
Ni	Ni	0.63110 0.18835 0.85601 1.09200
O 	O 	0.78748 0.49240 0.95428 -0.39700
O 	O 	0.63420 0.17367 0.90408 -0.40100
O 	O 	0.47295 0.26264 0.85595 -0.31500
O 	O 	0.66323 0.38110 0.91482 -0.70300
O 	O 	0.84716 0.46593 0.90909 -0.32900
O 	O 	0.49190 0.36878 0.91256 -0.31500
O 	O 	0.58351 0.50689 0.91575 -0.40000
Ni	Ni	0.68957 0.49939 0.93206 1.07700
H 	H 	0.64690 0.33610 0.83784 0.21200
H 	H 	0.66415 0.34206 0.93247 0.16100
C 	C 	0.57343 0.16998 0.92121 0.27800
O 	O 	0.75717 0.58499 0.89923 -0.37400
C 	C 	0.80422 0.27809 0.84122 0.27800
C 	C 	0.46281 0.18340 0.84492 0.27400
C 	C 	0.76690 0.56681 0.86941 0.30000
C 	C 	0.51611 0.44836 0.92460 0.27100
C 	C 	0.85007 0.48850 0.93948 0.29800
O 	O 	0.52977 0.21607 0.91352 -0.32000
O 	O 	0.50915 0.14103 0.85488 -0.36100
Ni	Ni	0.51586 0.39353 0.54706 1.10700
O 	O 	0.62121 0.42180 0.52438 -0.69700
Ni	Ni	0.68812 0.39529 0.55794 1.10400
O 	O 	0.47358 0.46792 0.51809 -0.35200
O 	O 	0.59004 0.58177 0.52428 -0.40500
O 	O 	0.46372 0.28841 0.51649 -0.35900
Ni	Ni	0.67856 0.53951 0.50960 1.08200
O 	O 	0.41339 0.21384 0.57232 -0.38200
O 	O 	0.75720 0.60447 0.54563 -0.39000
O 	O 	0.79954 0.44900 0.53868 -0.35500
O 	O 	0.57825 0.35066 0.57778 -0.69400
O 	O 	0.41326 0.35407 0.57137 -0.36100
O 	O 	0.73290 0.34285 0.59423 -0.33100
O 	O 	0.63733 0.20870 0.58523 -0.34600
Ni	Ni	0.52913 0.22398 0.57836 1.10500
H 	H 	0.61548 0.38053 0.50647 0.17400
H 	H 	0.57841 0.37609 0.59919 0.20000
C 	C 	0.75157 0.58398 0.57588 0.31800
O 	O 	0.54087 0.21083 0.53100 -0.39900
C 	C 	0.51983 0.54724 0.51058 0.29300
C 	C 	0.81359 0.47917 0.50933 0.28400
C 	C 	0.49254 0.22677 0.51057 0.30200
C 	C 	0.69400 0.26247 0.60352 0.27700
C 	C 	0.38363 0.27296 0.58179 0.29500
O 	O 	0.70718 0.50556 0.58486 -0.38100
O 	O 	0.75880 0.49365 0.49162 -0.39300
Ni	Ni	0.96499 0.03788 0.68630 1.10600
O 	O 	0.06167 0.04224 0.71295 -0.70500
Ni	Ni	0.01037 0.99352 0.75356 1.10000
O 	O 	0.03435 0.08929 0.64816 -0.34300
O 	O 	0.11023 0.20669 0.67861 -0.34400
O 	O 	0.95329 0.91300 0.67293 -0.36300
Ni	Ni	0.13412 0.16073 0.72214 1.07700
O 	O 	0.77167 0.99695 0.70120 -0.37700
O 	O 	0.05089 0.20318 0.74142 -0.38100
O 	O 	0.10960 0.98982 0.77589 -0.36000
O 	O 	0.91817 0.00933 0.72907 -0.69400
O 	O 	0.86366 0.02600 0.66171 -0.36600
O 	O 	0.93928 0.91716 0.78759 -0.34700
O 	O 	0.85492 0.82901 0.74980 -0.33900
Ni	Ni	0.81568 0.91497 0.72458 1.08700
H 	H 	0.08946 0.00557 0.70390 0.17700
H 	H 	0.90742 0.06070 0.73696 0.16300
C 	C 	0.01943 0.17482 0.76885 0.29100
O 	O 	0.82054 0.85665 0.68195 -0.34600
C 	C 	0.09862 0.15965 0.65221 0.27100
C 	C 	0.17529 0.05988 0.77498 0.29300
C 	C 	0.88432 0.84864 0.67023 0.30300
C 	C 	0.87967 0.84504 0.77966 0.27500
C 	C 	0.80580 0.04185 0.67593 0.30300
O 	O 	0.02365 0.10289 0.78074 -0.36100
O 	O 	0.17238 0.13615 0.76588 -0.38400
Ni	Ni	0.16859 0.73475 0.38410 1.10500
O 	O 	0.25386 0.81349 0.35513 -0.70500
Ni	Ni	0.35097 0.80553 0.37537 1.10400
O 	O 	0.08173 0.75685 0.35784 -0.31100
O 	O 	0.14418 0.90511 0.36285 -0.40400
O 	O 	0.16470 0.63660 0.35286 -0.33900
Ni	Ni	0.26505 0.93563 0.35574 1.06800
O 	O 	0.16846 0.62735 0.45080 -0.39400
O 	O 	0.28218 0.94767 0.40380 -0.40800
O 	O 	0.42743 0.87553 0.34244 -0.37200
O 	O 	0.26724 0.74251 0.40780 -0.70000
O 	O 	0.08455 0.64737 0.41184 -0.33000
O 	O 	0.43633 0.76297 0.39382 -0.35400
O 	O 	0.34640 0.62528 0.39292 -0.41100
Ni	Ni	0.25382 0.62411 0.42101 1.07700
H 	H 	0.24767 0.79068 0.33302 0.17200
H 	H 	0.27240 0.77953 0.42699 0.16300
C 	C 	0.35111 0.95671 0.41675 0.27500
O 	O 	0.16895 0.54062 0.39117 -0.37300
C 	C 	0.08869 0.83648 0.34956 0.28300
C 	C 	0.43257 0.95600 0.33549 0.28400
C 	C 	0.15558 0.55709 0.36164 0.29600
C 	C 	0.41744 0.68008 0.40072 0.27400
C 	C 	0.09757 0.62419 0.44098 0.29800
O 	O 	0.39370 0.91350 0.40520 -0.36500
O 	O 	0.38541 0.99229 0.34889 -0.39900
Ni	Ni	0.32192 0.80137 0.06015 1.10100
O 	O 	0.25044 0.69948 0.08632 -0.70100
Ni	Ni	0.25802 0.59659 0.06269 1.10400
O 	O 	0.29902 0.89100 0.08912 -0.35700
O 	O 	0.16615 0.82122 0.08054 -0.38400
O 	O 	0.41234 0.80110 0.09043 -0.38500
Ni	Ni	0.13977 0.68756 0.08527 1.07800
O 	O 	0.41432 0.81467 0.99215 -0.39900
O 	O 	0.13072 0.67915 0.03695 -0.39600
O 	O 	0.19451 0.50355 0.09324 -0.35700
O 	O 	0.31480 0.69762 0.03311 -0.69600
O 	O 	0.40016 0.90022 0.03413 -0.36300
O 	O 	0.29726 0.50732 0.04054 -0.33800
O 	O 	0.42132 0.60751 0.04299 -0.41000
Ni	Ni	0.42073 0.71507 0.01832 1.08000
H 	H 	0.27023 0.70120 0.10847 0.16500
H 	H 	0.28073 0.69684 0.01441 0.16900
C 	C 	0.12294 0.60623 0.02193 0.27800
O 	O 	0.49469 0.80208 0.05014 -0.39100
C 	C 	0.22537 0.88007 0.09611 0.28600
C 	C 	0.12604 0.50453 0.10344 0.28800
C 	C 	0.48128 0.80251 0.08053 0.31100
C 	C 	0.37220 0.53111 0.03311 0.29100
C 	C 	0.41887 0.89112 0.00425 0.30100
O 	O 	0.15994 0.55560 0.03252 -0.35200
O 	O 	0.09133 0.55413 0.08943 -0.38700
Ni	Ni	0.90478 0.01909 0.19338 1.12000
O 	O 	0.82012 0.04498 0.21838 -0.70000
Ni	Ni	0.88211 0.10667 0.25666 1.11100
O 	O 	0.82327 0.95698 0.15800 -0.28200
O 	O 	0.74165 0.86518 0.19334 -0.33600
O 	O 	0.92955 0.13403 0.16822 -0.32500
Ni	Ni	0.73768 0.93826 0.23326 1.07400
O 	O 	0.07847 0.12883 0.17848 -0.35700
O 	O 	0.81279 0.88737 0.25531 -0.31200
O 	O 	0.79101 0.13343 0.27678 -0.28900
O 	O 	0.96555 0.06812 0.23438 -0.68500
O 	O 	0.99058 0.99031 0.17023 -0.28000
O 	O 	0.95693 0.19251 0.28949 -0.31500
O 	O 	0.07843 0.21571 0.26940 -0.39200
Ni	Ni	0.06258 0.16391 0.22367 1.07500
H 	H 	0.79712 0.08273 0.20671 0.18000
H 	H 	0.97949 0.02317 0.24585 0.19200
C 	C 	0.85969 0.92801 0.27908 0.25400
O 	O 	0.99330 0.22950 0.20865 -0.36300
C 	C 	0.75342 0.89989 0.16510 0.27500
C 	C 	0.72156 0.06951 0.27928 0.26300
C 	C 	0.96137 0.21501 0.17994 0.27700
C 	C 	0.02885 0.24620 0.28311 0.30300
C 	C 	0.06323 0.04728 0.16943 0.26100
O 	O 	0.86364 0.00650 0.28801 -0.32700
O 	O 	0.71546 0.98743 0.27506 -0.37000
C 	C 	0.07660 0.43078 0.12215 -0.09400
C 	C 	0.05080 0.34602 0.10922 0.06700
C 	C 	0.00238 0.27578 0.12661 -0.06400
C 	C 	0.98185 0.28898 0.15771 0.06700
C 	C 	0.99775 0.37577 0.16887 -0.12600
C 	C 	0.04841 0.44602 0.15152 0.08900
H 	H 	0.98483 0.21039 0.11662 0.14500
H 	H 	0.06549 0.51231 0.16077 0.05500
H 	H 	0.06881 0.33440 0.08575 0.07200
C 	C 	0.96167 0.39425 0.19902 0.80000
F 	F 	0.94874 0.47228 0.19670 -0.41000
F 	F 	0.88960 0.32893 0.20451 -0.44600
F 	F 	0.01275 0.40054 0.22451 -0.45600
C 	C 	0.54906 0.82354 0.10312 -0.09800
C 	C 	0.55783 0.88348 0.12809 0.03300
C 	C 	0.62621 0.91047 0.14733 -0.05300
C 	C 	0.68678 0.87774 0.14205 0.03600
C 	C 	0.67839 0.81657 0.11703 -0.11600
C 	C 	0.60915 0.79002 0.09769 0.09000
H 	H 	0.63191 0.95649 0.16668 0.02600
H 	H 	0.60198 0.74374 0.07832 0.06300
H 	H 	0.51232 0.91059 0.13224 0.04300
C 	C 	0.74289 0.77979 0.11100 0.78500
F 	F 	0.72325 0.72040 0.08586 -0.44100
F 	F 	0.81243 0.84703 0.10397 -0.41100
F 	F 	0.75524 0.73753 0.13773 -0.41100
C 	C 	0.20866 0.94553 0.11570 -0.10200
C 	C 	0.20474 0.93573 0.14866 0.03600
C 	C 	0.16170 0.97470 0.16652 -0.06100
C 	C 	0.12286 0.02478 0.15166 0.05800
C 	C 	0.13420 0.04330 0.11891 -0.12400
C 	C 	0.17715 0.00287 0.10116 0.10800
H 	H 	0.15491 0.96198 0.19169 0.05700
H 	H 	0.18181 0.01140 0.07572 0.07700
H 	H 	0.22990 0.89244 0.16013 0.02700
C 	C 	0.09912 0.10400 0.10284 0.78900
F 	F 	0.12713 0.18483 0.11798 -0.45500
F 	F 	0.11924 0.11612 0.07124 -0.43700
F 	F 	0.01751 0.06932 0.10428 -0.43300
C 	C 	0.50726 0.01446 0.32240 -0.08800
C 	C 	0.51217 0.03351 0.29005 0.02900
C 	C 	0.58627 0.07081 0.27627 -0.05400
C 	C 	0.65574 0.08594 0.29456 0.05500
C 	C 	0.65067 0.08293 0.32803 -0.12300
C 	C 	0.57602 0.04350 0.34169 0.09800
H 	H 	0.58953 0.07776 0.25074 0.04900
H 	H 	0.57169 0.03161 0.36697 0.06800
H 	H 	0.45903 0.01433 0.27519 0.02600
C 	C 	0.72481 0.11310 0.34892 0.79200
F 	F 	0.70780 0.12775 0.37987 -0.43900
F 	F 	0.75900 0.05000 0.34883 -0.43800
F 	F 	0.77835 0.19051 0.33781 -0.41600
C 	C 	0.06203 0.32885 0.30168 -0.06600
C 	C 	0.14014 0.35695 0.31363 0.03000
C 	C 	0.17094 0.43360 0.33188 -0.04100
C 	C 	0.12436 0.48357 0.33866 0.03400
C 	C 	0.04564 0.45693 0.32611 -0.11400
C 	C 	0.01552 0.37964 0.30740 0.09400
H 	H 	0.23089 0.45333 0.34143 0.05500
H 	H 	0.95610 0.35895 0.29726 0.12000
H 	H 	0.17673 0.31842 0.30934 0.04300
C 	C 	0.99450 0.51124 0.33198 0.80500
F 	F 	0.02656 0.59076 0.31715 -0.43000
F 	F 	0.91801 0.47013 0.32024 -0.40400
F 	F 	0.99034 0.52520 0.36419 -0.43900
C 	C 	0.02286 0.84885 0.33222 -0.10200
C 	C 	0.97499 0.88668 0.34749 0.05700
C 	C 	0.91475 0.90252 0.33063 -0.05400
C 	C 	0.90301 0.88316 0.29795 0.05300
C 	C 	0.94550 0.83546 0.28319 -0.12900
C 	C 	0.00675 0.82078 0.30054 0.08500
H 	H 	0.87991 0.93465 0.34257 0.10300
H 	H 	0.04254 0.78852 0.28938 0.07800
H 	H 	0.98536 0.90529 0.37238 0.04900
C 	C 	0.92360 0.79665 0.24991 0.79600
F 	F 	0.96753 0.74633 0.24144 -0.41300
F 	F 	0.84464 0.74321 0.24843 -0.40700
F 	F 	0.93733 0.86244 0.22800 -0.49000
C 	C 	0.38736 0.02693 0.44045 -0.03800
C 	C 	0.34023 0.04865 0.46253 -0.02100
C 	C 	0.37461 0.11640 0.48460 0.01400
C 	C 	0.45652 0.16304 0.48489 -0.08600
C 	C 	0.50376 0.14305 0.46215 0.08000
C 	C 	0.46908 0.07488 0.44016 -0.03500
H 	H 	0.33784 0.13125 0.50204 0.05400
H 	H 	0.50547 0.06023 0.42251 0.08400
H 	H 	0.27710 0.01236 0.46288 0.05500
I 	I 	0.62658 0.21762 0.45922 -0.04300
C 	C 	0.89331 0.50303 0.49673 -0.03600
C 	C 	0.90393 0.46336 0.46846 -0.00700
C 	C 	0.97161 0.50229 0.45072 0.03100
C 	C 	0.02947 0.58133 0.46106 -0.08000
C 	C 	0.02132 0.61870 0.49044 0.07000
C 	C 	0.95361 0.57876 0.50830 -0.02000
H 	H 	0.97827 0.47198 0.42855 0.09300
H 	H 	0.94551 0.60983 0.53009 0.07100
H 	H 	0.85779 0.40469 0.45939 0.07400
I 	I 	0.10637 0.73917 0.50704 -0.09200
C 	C 	0.46051 0.65634 0.42660 -0.06100
C 	C 	0.47369 0.70280 0.45556 -0.03100
C 	C 	0.49455 0.66755 0.48284 0.01100
C 	C 	0.50297 0.58594 0.48136 -0.10700
C 	C 	0.49636 0.54269 0.45171 0.06900
C 	C 	0.47426 0.57771 0.42461 -0.03800
H 	H 	0.50185 0.70249 0.50531 0.04600
H 	H 	0.46558 0.54251 0.40213 0.06600
H 	H 	0.46337 0.76382 0.45732 0.04600
I 	I 	0.52275 0.42700 0.44662 -0.13300
C 	C 	0.78028 0.11147 0.66369 -0.08700
C 	C 	0.83376 0.18087 0.64709 0.04700
C 	C 	0.80684 0.23746 0.63001 -0.02700
C 	C 	0.72642 0.22615 0.62975 0.05400
C 	C 	0.67535 0.16668 0.65107 -0.12000
C 	C 	0.70185 0.10651 0.66674 0.12000
H 	H 	0.84745 0.28607 0.61513 0.09800
H 	H 	0.66108 0.05476 0.68047 0.07900
H 	H 	0.89560 0.18831 0.64614 0.07000
C 	C 	0.59197 0.16440 0.65612 0.78800
F 	F 	0.56688 0.13420 0.68608 -0.42600
F 	F 	0.58850 0.24709 0.65353 -0.47300
F 	F 	0.54105 0.10917 0.63377 -0.49500
C 	C 	0.30482 0.24206 0.59654 -0.08800
C 	C 	0.26965 0.15418 0.60525 0.03000
C 	C 	0.19756 0.12544 0.62065 -0.05400
C 	C 	0.15960 0.18393 0.62787 0.03300
C 	C 	0.18995 0.27020 0.61612 -0.12600
C 	C 	0.26445 0.29977 0.60181 0.09000
H 	H 	0.17352 0.05864 0.62874 0.05800
H 	H 	0.29088 0.36746 0.59493 0.07700
H 	H 	0.29926 0.10844 0.60092 0.05100
C 	C 	0.14486 0.33176 0.61971 0.79000
F 	F 	0.16175 0.37230 0.64925 -0.43400
F 	F 	0.16607 0.39532 0.59670 -0.43900
F 	F 	0.06415 0.28675 0.61652 -0.44500
C 	C 	0.79851 0.64953 0.60005 -0.09300
C 	C 	0.84217 0.73561 0.59121 0.03500
C 	C 	0.87965 0.79941 0.61435 -0.04200
C 	C 	0.87377 0.77832 0.64662 0.04100
C 	C 	0.83944 0.68961 0.65536 -0.12200
C 	C 	0.79927 0.62623 0.63207 0.09800
H 	H 	0.90824 0.86672 0.60733 0.07000
H 	H 	0.76781 0.55937 0.63895 0.08500
H 	H 	0.84466 0.75407 0.56653 0.04700
C 	C 	0.84081 0.66306 0.68967 0.78900
F 	F 	0.83343 0.57622 0.69164 -0.40900
F 	F 	0.91142 0.71302 0.70469 -0.44100
F 	F 	0.77871 0.67445 0.70531 -0.44500
C 	C 	0.06118 0.57306 0.99695 -0.02600
C 	C 	0.01044 0.48517 0.99676 -0.02700
C 	C 	0.94316 0.45696 0.97687 0.03200
C 	C 	0.92633 0.51602 0.95677 -0.08100
C 	C 	0.97993 0.60296 0.95537 0.10000
C 	C 	0.04699 0.63111 0.97552 -0.05100
H 	H 	0.90276 0.38975 0.97781 0.04200
H 	H 	0.08701 0.69857 0.97504 0.07500
H 	H 	0.02108 0.43962 0.01307 0.07100
I 	I 	0.96033 0.69364 0.92369 0.00300
C 	C 	0.53924 0.09585 0.94207 -0.03100
C 	C 	0.56161 0.10276 0.97427 -0.01800
C 	C 	0.51847 0.03866 0.99538 0.02600
C 	C 	0.45143 0.96852 0.98452 -0.08700
C 	C 	0.42649 0.96492 0.95252 0.08500
C 	C 	0.47297 0.02542 0.93120 -0.01500
H 	H 	0.53837 0.04219 0.01993 0.05300
H 	H 	0.45538 0.02010 0.90634 0.09800
H 	H 	0.61187 0.15800 0.98299 0.04800
I 	I 	0.31545 0.87350 0.93633 -0.03000
C 	C 	0.47627 0.46584 0.95233 -0.05200
C 	C 	0.50017 0.45087 0.98283 -0.01400
C 	C 	0.45937 0.46222 0.00932 0.01100
C 	C 	0.39487 0.48994 0.00566 -0.09200
C 	C 	0.36783 0.49968 0.97466 0.06100
C 	C 	0.40878 0.48752 0.94826 -0.02300
H 	H 	0.48064 0.45419 0.03286 0.05700
H 	H 	0.38825 0.49542 0.92457 0.07400
H 	H 	0.55079 0.43102 0.98606 0.02300
I 	I 	0.26696 0.53462 0.96655 -0.10500
C 	C 	0.97289 0.21874 0.78512 -0.08800
C 	C 	0.98895 0.24216 0.81722 0.05500
C 	C 	0.93477 0.26449 0.83503 -0.04000
C 	C 	0.86332 0.26266 0.82110 0.06000
C 	C 	0.84857 0.24441 0.78817 -0.12400
C 	C 	0.90435 0.22301 0.77033 0.09700
H 	H 	0.94708 0.28041 0.86006 0.08000
H 	H 	0.89275 0.20549 0.74540 0.05500
H 	H 	0.04217 0.23973 0.82868 0.05300
C 	C 	0.77197 0.24321 0.77253 0.78800
F 	F 	0.77188 0.23203 0.73992 -0.42800
F 	F 	0.70907 0.17528 0.78448 -0.48500
F 	F 	0.76143 0.32129 0.77867 -0.40700
C 	C 	0.24346 0.06216 0.79458 -0.08700
C 	C 	0.31505 0.07275 0.78000 0.03600
C 	C 	0.38638 0.10746 0.79721 -0.04800
C 	C 	0.38684 0.13248 0.82911 0.04700
C 	C 	0.31403 0.11206 0.84501 -0.12500
C 	C 	0.24271 0.07749 0.82729 0.10100
H 	H 	0.44167 0.11955 0.78524 0.07700
H 	H 	0.18697 0.06904 0.83838 0.07800
H 	H 	0.31588 0.05986 0.75478 0.04200
C 	C 	0.31174 0.13364 0.88001 0.79300
F 	F 	0.32592 0.22186 0.88385 -0.43400
F 	F 	0.23866 0.08704 0.89243 -0.43500
F 	F 	0.36785 0.11255 0.89719 -0.44700
C 	C 	0.85236 0.77468 0.80271 -0.07000
C 	C 	0.80127 0.77851 0.82666 0.02600
C 	C 	0.77443 0.71093 0.84841 -0.03500
C 	C 	0.80001 0.63955 0.84701 0.03600
C 	C 	0.85635 0.63856 0.82398 -0.10800
C 	C 	0.87845 0.70422 0.80098 0.09800
H 	H 	0.73277 0.71346 0.86616 0.06100
H 	H 	0.91695 0.70125 0.78197 0.10700
H 	H 	0.78122 0.83324 0.82814 0.03700
C 	C 	0.89186 0.56765 0.82319 0.78700
F 	F 	0.96101 0.59363 0.80623 -0.41500
F 	F 	0.91047 0.54865 0.85351 -0.44300
F 	F 	0.83860 0.49339 0.80869 -0.39900
