data_crystal

_cell_length_a 21.25381
_cell_length_b 21.81173
_cell_length_c 14.43301
_cell_angle_alpha 90.30589
_cell_angle_beta  90.30599
_cell_angle_gamma 120.00985

_symmetry_space_group_name_	'P 1'
_symmetry_space_group_name_H-M	'P 1'

loop_
_symmetry_equiv_pos_as_xyz
  x,y,z

loop_
_atom_site_label
_atom_site_type_symbol
_atom_site_fract_x
_atom_site_fract_y
_atom_site_fract_z
_atom_site_charge
C 	C 	0.48515 0.82741 0.28661 0.31700
C 	C 	0.69940 0.77429 0.08021 0.34000
C 	C 	0.49287 0.66422 0.23805 0.34000
C 	C 	0.70073 0.94708 0.10497 0.30900
C 	C 	0.70435 0.75097 0.38658 0.34000
C 	C 	0.71878 0.93223 0.41501 0.32400
Ni	Ni	0.57844 0.80000 0.14220 1.11400
Ni	Ni	0.73335 0.86285 0.24709 1.12400
Ni	Ni	0.58881 0.78694 0.36499 1.12100
O 	O 	0.48801 0.79893 0.20511 -0.36900
O 	O 	0.52971 0.83599 0.35670 -0.38800
O 	O 	0.75089 0.81433 0.35513 -0.39000
O 	O 	0.65162 0.79229 0.05305 -0.37000
O 	O 	0.72012 0.78137 0.16700 -0.39300
O 	O 	0.66727 0.86818 0.44395 -0.37900
O 	O 	0.53975 0.69536 0.17235 -0.39000
O 	O 	0.49699 0.69863 0.31572 -0.37500
O 	O 	0.75224 0.94134 0.33451 -0.39400
O 	O 	0.62898 0.90501 0.10258 -0.37400
O 	O 	0.74486 0.92355 0.13306 -0.37700
O 	O 	0.63384 0.72559 0.37935 -0.39100
O 	O 	0.63276 0.83123 0.25218 -0.72300
H 	H 	0.63415 0.87677 0.26091 0.15800
C 	C 	0.18715 0.89118 0.05560 0.32800
C 	C 	0.14375 0.65160 0.30012 0.34100
C 	C 	0.01757 0.72484 0.10658 0.31500
C 	C 	0.31415 0.81913 0.23242 0.31600
C 	C 	0.03893 0.77403 0.40430 0.30900
C 	C 	0.20234 0.93530 0.39344 0.33100
Ni	Ni	0.16503 0.75424 0.14494 1.11300
Ni	Ni	0.18858 0.79716 0.36165 1.11900
Ni	Ni	0.10308 0.85122 0.23079 1.12200
O 	O 	0.16311 0.82240 0.04348 -0.38000
O 	O 	0.17012 0.91550 0.13083 -0.37900
O 	O 	0.10432 0.79067 0.43640 -0.38300
O 	O 	0.17184 0.67520 0.21796 -0.37700
O 	O 	0.12972 0.69033 0.35642 -0.39700
O 	O 	0.15214 0.92750 0.33116 -0.39200
O 	O 	0.05292 0.69680 0.14499 -0.38800
O 	O 	0.03862 0.79194 0.12227 -0.37400
O 	O 	0.23978 0.90187 0.38482 -0.39700
O 	O 	0.27691 0.80990 0.15451 -0.38100
O 	O 	0.28131 0.79751 0.31507 -0.37200
O 	O 	0.02757 0.78156 0.31630 -0.39500
O 	O 	0.16662 0.81349 0.24042 -0.72000
H 	H 	0.21266 0.85726 0.22789 0.15900
C 	C 	0.14130 0.49048 0.25508 0.31900
C 	C 	0.22686 0.28562 0.40059 0.33300
C 	C 	0.32445 0.49933 0.27992 0.33900
C 	C 	0.04258 0.27093 0.40442 0.29300
C 	C 	0.23292 0.30780 0.08725 0.34000
C 	C 	0.05068 0.28980 0.09703 0.28800
Ni	Ni	0.18746 0.40034 0.37406 1.11400
Ni	Ni	0.12817 0.25993 0.24358 1.12200
Ni	Ni	0.19844 0.41166 0.15026 1.12200
O 	O 	0.17822 0.48839 0.32970 -0.36800
O 	O 	0.14017 0.45916 0.17569 -0.39100
O 	O 	0.17392 0.25497 0.12325 -0.38400
O 	O 	0.20244 0.32371 0.44200 -0.37000
O 	O 	0.21879 0.27464 0.31076 -0.38400
O 	O 	0.11641 0.33815 0.06707 -0.37600
O 	O 	0.29583 0.44942 0.34146 -0.38800
O 	O 	0.28588 0.49959 0.20778 -0.37600
O 	O 	0.04290 0.24873 0.16890 -0.38800
O 	O 	0.08085 0.34069 0.41631 -0.37600
O 	O 	0.07129 0.23548 0.36454 -0.38400
O 	O 	0.26199 0.37099 0.12425 -0.40200
O 	O 	0.15653 0.35719 0.25771 -0.71700
H 	H 	0.10858 0.35379 0.25598 0.15500
C 	C 	0.91388 0.67813 0.59308 0.30400
C 	C 	0.63928 0.47729 0.76957 0.34100
C 	C 	0.72596 0.65807 0.58249 0.33100
C 	C 	0.83078 0.49311 0.79402 0.31500
C 	C 	0.72145 0.68241 0.88278 0.34100
C 	C 	0.91340 0.70985 0.90078 0.31100
Ni	Ni	0.77031 0.55399 0.64897 1.11400
Ni	Ni	0.76948 0.57904 0.87128 1.12300
Ni	Ni	0.83054 0.71166 0.73717 1.12100
O 	O 	0.87686 0.60820 0.60221 -0.37100
O 	O 	0.88461 0.71798 0.61586 -0.37300
O 	O 	0.69873 0.61469 0.87338 -0.40000
O 	O 	0.66036 0.50090 0.68510 -0.37300
O 	O 	0.68698 0.48380 0.83193 -0.38800
O 	O 	0.91833 0.74019 0.81908 -0.38000
O 	O 	0.75109 0.61659 0.55576 -0.36800
O 	O 	0.73627 0.68214 0.66782 -0.39000
O 	O 	0.84919 0.66560 0.93751 -0.38200
O 	O 	0.78630 0.47907 0.72117 -0.35700
O 	O 	0.83066 0.53172 0.86584 -0.38100
O 	O 	0.78471 0.72970 0.84890 -0.38300
O 	O 	0.80525 0.61552 0.75220 -0.71700
H 	H 	0.85437 0.62191 0.75767 0.15600
C 	C 	0.65212 0.18464 0.73834 0.32100
C 	C 	0.92743 0.23260 0.89935 0.33100
C 	C 	0.84304 0.34533 0.73538 0.34000
C 	C 	0.73824 0.06280 0.90797 0.31600
C 	C 	0.92704 0.22266 0.60553 0.33900
C 	C 	0.73770 0.06001 0.59255 0.31300
Ni	Ni	0.78126 0.21687 0.85997 1.11500
Ni	Ni	0.84300 0.12670 0.75320 1.12400
Ni	Ni	0.78371 0.20898 0.63363 1.12300
O 	O 	0.67265 0.17931 0.82407 -0.37000
O 	O 	0.70063 0.22320 0.67510 -0.38300
O 	O 	0.92959 0.20631 0.69217 -0.39400
O 	O 	0.89061 0.26629 0.89746 -0.37300
O 	O 	0.89569 0.16533 0.87576 -0.38200
O 	O 	0.71664 0.10808 0.59248 -0.38800
O 	O 	0.79913 0.31252 0.80496 -0.36400
O 	O 	0.85648 0.30983 0.67208 -0.38700
O 	O 	0.80069 0.07377 0.63135 -0.37800
O 	O 	0.76178 0.12839 0.93993 -0.36800
O 	O 	0.76065 0.05054 0.82769 -0.38100
O 	O 	0.86458 0.20573 0.56571 -0.38800
O 	O 	0.78815 0.17312 0.75143 -0.71800
H 	H 	0.73904 0.13140 0.75167 0.15400
C 	C 	0.27191 0.05915 0.93380 0.30300
C 	C 	0.46188 0.33242 0.74221 0.34100
C 	C 	0.24191 0.21137 0.88866 0.34200
C 	C 	0.48505 0.17383 0.79312 0.31700
C 	C 	0.25751 0.19981 0.60128 0.33600
C 	C 	0.29052 0.04503 0.59991 0.31700
Ni	Ni	0.37961 0.21092 0.87497 1.11600
Ni	Ni	0.38815 0.19204 0.65415 1.12100
Ni	Ni	0.23507 0.10269 0.75531 1.12200
O 	O 	0.30501 0.12737 0.95691 -0.37300
O 	O 	0.23941 0.03619 0.85108 -0.37100
O 	O 	0.30742 0.18540 0.57127 -0.39100
O 	O 	0.46450 0.30467 0.82195 -0.37300
O 	O 	0.41420 0.29344 0.67878 -0.39400
O 	O 	0.23391 0.04384 0.64261 -0.37900
O 	O 	0.31079 0.25165 0.86919 -0.38500
O 	O 	0.20719 0.14396 0.86428 -0.38100
O 	O 	0.35847 0.09193 0.62159 -0.39800
O 	O 	0.45243 0.17434 0.87085 -0.37700
O 	O 	0.48225 0.20818 0.71794 -0.37300
O 	O 	0.22232 0.17204 0.67835 -0.39400
O 	O 	0.33796 0.15744 0.76664 -0.71700
H 	H 	0.34698 0.11792 0.77689 0.15700
C 	C 	0.53062 0.14838 0.79566 -0.11200
C 	C 	0.58235 0.16265 0.72012 -0.11200
H 	H 	0.53423 0.12251 0.85805 0.08700
H 	H 	0.56610 0.16573 0.64948 0.08200
C 	C 	0.51215 0.39933 0.72273 -0.12000
C 	C 	0.56896 0.44279 0.79170 -0.11400
H 	H 	0.51312 0.42067 0.65451 0.08800
H 	H 	0.55476 0.43461 0.86468 0.08500
C 	C 	0.87122 0.41520 0.72586 -0.11800
C 	C 	0.86807 0.45888 0.80236 -0.10400
H 	H 	0.90109 0.44113 0.66367 0.08400
H 	H 	0.89756 0.46379 0.86630 0.08100
C 	C 	0.99187 0.27472 0.04621 -0.07800
C 	C 	0.99059 0.26121 0.94541 -0.09800
H 	H 	0.94001 0.25331 0.08138 0.07800
H 	H 	0.03316 0.25267 0.91783 0.06500
C 	C 	0.98374 0.23449 0.45548 -0.08200
C 	C 	0.98727 0.25048 0.55553 -0.10200
H 	H 	0.94258 0.18211 0.43146 0.07900
H 	H 	0.03965 0.27391 0.59098 0.06800
C 	C 	0.25450 0.25274 0.45098 -0.11600
C 	C 	0.23912 0.24045 0.55155 -0.11800
H 	H 	0.27929 0.22618 0.41536 0.08800
H 	H 	0.20364 0.25708 0.58317 0.09000
C 	C 	0.21056 0.23458 0.94807 -0.12700
C 	C 	0.25469 0.30005 0.00359 -0.11500
H 	H 	0.15320 0.20091 0.96339 0.09000
H 	H 	0.30295 0.34394 0.97357 0.07900
C 	C 	0.22081 0.93534 0.98523 -0.13600
C 	C 	0.26105 0.01281 0.00105 -0.08800
H 	H 	0.22470 0.91408 0.91856 0.08500
H 	H 	0.28262 0.03291 0.07008 0.08200
C 	C 	0.27856 0.00085 0.52862 -0.10000
C 	C 	0.21538 0.97917 0.46567 -0.13300
H 	H 	0.32294 0.99340 0.50550 0.07700
H 	H 	0.18141 0.00299 0.47464 0.09300
C 	C 	0.97484 0.70654 0.54277 -0.08200
C 	C 	0.98330 0.75288 0.46325 -0.09500
H 	H 	0.00751 0.68091 0.54371 0.06100
H 	H 	0.93640 0.75695 0.44156 0.08500
C 	C 	0.97327 0.73213 0.95253 -0.09200
C 	C 	0.97357 0.69150 0.03461 -0.09700
H 	H 	0.02421 0.77679 0.92955 0.06800
H 	H 	0.94941 0.63441 0.02779 0.08100
C 	C 	0.11108 0.53155 0.25519 -0.11100
C 	C 	0.12829 0.58666 0.32612 -0.12000
H 	H 	0.08003 0.53066 0.19446 0.07800
H 	H 	0.11588 0.57118 0.39813 0.07900
C 	C 	0.74911 0.98554 0.47604 -0.12600
C 	C 	0.70443 0.00464 0.53449 -0.09500
H 	H 	0.80595 0.02545 0.46667 0.09600
H 	H 	0.64839 0.98603 0.51392 0.07200
C 	C 	0.72972 0.00736 0.05726 -0.09700
C 	C 	0.70050 0.00813 0.96393 -0.10900
H 	H 	0.78481 0.04865 0.07456 0.08600
H 	H 	0.66209 0.95746 0.93232 0.07800
C 	C 	0.73090 0.75284 0.01837 -0.11200
C 	C 	0.68801 0.70299 0.94288 -0.12200
H 	H 	0.78348 0.75858 0.03588 0.09000
H 	H 	0.62982 0.66923 0.95255 0.08200
C 	C 	0.72959 0.71576 0.43611 -0.11700
C 	C 	0.69212 0.67832 0.52195 -0.11300
H 	H 	0.78562 0.72866 0.42632 0.08700
H 	H 	0.64927 0.68706 0.54801 0.08100
C 	C 	0.38535 0.84149 0.22435 -0.11000
C 	C 	0.43024 0.84005 0.30209 -0.10900
H 	H 	0.41005 0.85695 0.15635 0.08200
H 	H 	0.42172 0.85394 0.37151 0.08100
C 	C 	0.39084 0.55439 0.29645 -0.11500
C 	C 	0.43544 0.60025 0.22083 -0.11600
H 	H 	0.41607 0.55964 0.36404 0.08500
H 	H 	0.42653 0.57836 0.15091 0.08300
