data_crystal

_cell_length_a 28.23819
_cell_length_b 30.21548
_cell_length_c 30.39888
_cell_angle_alpha 61.32879
_cell_angle_beta  118.40146
_cell_angle_gamma 133.15426

_symmetry_space_group_name_	'P 1'
_symmetry_space_group_name_H-M	'P 1'

loop_
_symmetry_equiv_pos_as_xyz
  x,y,z

loop_
_atom_site_label
_atom_site_type_symbol
_atom_site_fract_x
_atom_site_fract_y
_atom_site_fract_z
_atom_site_charge
C 	C 	0.69707 0.33510 0.97764 0.05300
C 	C 	0.73511 0.39133 0.99174 -0.08600
C 	C 	0.70298 0.41427 0.98745 0.05200
C 	C 	0.63427 0.38254 0.96726 -0.08500
C 	C 	0.59575 0.32298 0.96001 0.05500
C 	C 	0.62718 0.30028 0.96302 -0.08600
H 	H 	0.78856 0.41592 0.00704 0.05700
H 	H 	0.60966 0.40038 0.96404 0.05600
H 	H 	0.59739 0.25431 0.95672 0.05800
C 	C 	0.70895 0.33997 0.48765 0.05200
C 	C 	0.74767 0.39307 0.50653 -0.08600
C 	C 	0.71678 0.41542 0.50547 0.05300
C 	C 	0.64856 0.38631 0.48398 -0.08700
C 	C 	0.60906 0.32975 0.47088 0.05400
C 	C 	0.63939 0.30767 0.47084 -0.08600
H 	H 	0.80071 0.41562 0.52298 0.05600
H 	H 	0.62486 0.40356 0.48348 0.05600
H 	H 	0.60884 0.26388 0.46038 0.05800
C 	C 	0.30953 0.63436 0.34730 0.05100
C 	C 	0.37877 0.66866 0.35479 -0.08600
C 	C 	0.40492 0.64104 0.35745 0.05300
C 	C 	0.36249 0.57850 0.35587 -0.08700
C 	C 	0.29348 0.54677 0.34211 0.05300
C 	C 	0.26651 0.57400 0.33894 -0.08600
H 	H 	0.41167 0.71707 0.35666 0.05500
H 	H 	0.38308 0.55712 0.35857 0.05600
H 	H 	0.21288 0.54924 0.32895 0.05800
C 	C 	0.31450 0.63808 0.84677 0.05100
C 	C 	0.38392 0.67160 0.85610 -0.08600
C 	C 	0.41012 0.64397 0.85891 0.05300
C 	C 	0.36743 0.58203 0.85564 -0.08700
C 	C 	0.29852 0.55120 0.84025 0.05300
C 	C 	0.27151 0.57851 0.83687 -0.08600
H 	H 	0.41699 0.71955 0.85922 0.05500
H 	H 	0.38803 0.56061 0.85843 0.05600
H 	H 	0.21794 0.55446 0.82556 0.05700
Co	Co	0.08906 0.97835 0.18573 1.17700
Co	Co	0.91863 0.98488 0.13353 1.17500
Co	Co	0.03637 0.02320 0.22057 1.18900
Co	Co	0.97106 0.94020 0.09845 1.17700
C 	C 	0.08918 0.86383 0.22688 0.31400
Co	Co	0.07092 0.91143 0.11448 1.17000
Co	Co	0.92324 0.03328 0.21099 1.17500
C 	C 	0.02789 0.97516 0.01274 0.30500
O 	O 	0.01459 0.09222 0.25365 -0.40200
O 	O 	0.96501 0.01666 0.18450 -0.75400
C 	C 	0.06863 0.13344 0.23598 0.32000
O 	O 	0.11160 0.01861 0.23678 -0.45600
O 	O 	0.89734 0.94729 0.08097 -0.47700
C 	C 	0.90480 0.09135 0.09906 0.31200
O 	O 	0.01659 0.00340 0.14824 -0.56300
C 	C 	0.96717 0.96310 0.30567 0.27600
C 	C 	0.19748 0.02841 0.14302 0.35200
C 	C 	0.92450 0.81699 0.09847 0.32300
O 	O 	0.09004 0.11578 0.22174 -0.38400
O 	O 	0.16969 0.96951 0.15041 -0.43100
O 	O 	0.17627 0.04423 0.15927 -0.38300
O 	O 	0.93940 0.10335 0.14482 -0.39600
O 	O 	0.89487 0.04898 0.08550 -0.36700
O 	O 	0.91398 0.96143 0.27540 -0.39600
O 	O 	0.00115 0.96200 0.28794 -0.39000
O 	O 	0.97476 0.85110 0.07764 -0.42300
O 	O 	0.91547 0.84311 0.11545 -0.40200
O 	O 	0.04353 0.94877 0.13305 -0.75900
C 	C 	0.80719 0.91535 0.18001 0.32800
O 	O 	0.82795 0.97198 0.17263 -0.42400
O 	O 	0.84177 0.90766 0.17065 -0.40500
O 	O 	0.05341 0.84647 0.18340 -0.39600
O 	O 	0.08825 0.90060 0.23825 -0.39100
O 	O 	0.08110 0.97840 0.04602 -0.39900
O 	O 	0.99065 0.97761 0.02544 -0.39600
Co	Co	0.09297 0.98188 0.68399 1.17700
Co	Co	0.92261 0.98725 0.63558 1.17600
Co	Co	0.04260 0.02756 0.72059 1.18900
Co	Co	0.97222 0.94118 0.59930 1.17700
C 	C 	0.09411 0.86814 0.72489 0.31400
Co	Co	0.07105 0.91311 0.61206 1.17000
Co	Co	0.93060 0.03798 0.71293 1.17500
C 	C 	0.02378 0.97395 0.51087 0.31300
O 	O 	0.02297 0.09770 0.75425 -0.40400
O 	O 	0.97080 0.02054 0.68566 -0.75500
C 	C 	0.07609 0.13866 0.73545 0.32000
O 	O 	0.11738 0.02299 0.73524 -0.45700
O 	O 	0.89856 0.94754 0.58355 -0.47800
C 	C 	0.90916 0.09401 0.60068 0.31300
O 	O 	0.02021 0.00639 0.64805 -0.56300
C 	C 	0.97614 0.96879 0.80736 0.29000
C 	C 	0.19851 0.03137 0.63803 0.35100
C 	C 	0.92573 0.81748 0.60164 0.32400
O 	O 	0.09668 0.12055 0.72082 -0.38500
O 	O 	0.17086 0.97250 0.64534 -0.43000
O 	O 	0.17886 0.04730 0.65584 -0.38300
O 	O 	0.94483 0.10697 0.64608 -0.39700
O 	O 	0.89792 0.05059 0.58761 -0.36800
O 	O 	0.92270 0.96680 0.77753 -0.40000
O 	O 	0.00989 0.96784 0.78918 -0.39600
O 	O 	0.97342 0.85133 0.57805 -0.42400
O 	O 	0.91862 0.84423 0.61959 -0.40400
O 	O 	0.04581 0.95153 0.63168 -0.75900
C 	C 	0.81354 0.91899 0.68417 0.32800
O 	O 	0.83439 0.97580 0.67624 -0.42300
O 	O 	0.84757 0.91085 0.67462 -0.40500
O 	O 	0.05708 0.84960 0.68194 -0.39500
O 	O 	0.09281 0.90451 0.73643 -0.39200
O 	O 	0.07805 0.97857 0.54302 -0.40200
O 	O 	0.98670 0.97544 0.52479 -0.39800
C 	C 	0.93805 0.92609 0.88621 -0.02900
C 	C 	0.99145 0.96203 0.86327 -0.12500
C 	C 	0.05718 0.00180 0.89016 0.11300
C 	C 	0.06753 0.00857 0.93729 -0.02800
C 	C 	0.01367 0.97488 0.95901 -0.09400
C 	C 	0.94807 0.93360 0.93279 0.06400
C 	C 	0.88824 0.89938 0.95280 -0.19300
H 	H 	0.88779 0.89458 0.86620 0.04700
H 	H 	0.11787 0.03954 0.95755 0.05300
C 	C 	0.11655 0.03654 0.86938 -0.21000
H 	H 	0.84108 0.86749 0.92863 0.06800
H 	H 	0.88394 0.93341 0.95247 0.07600
H 	H 	0.89258 0.87042 0.99239 0.07800
H 	H 	0.11441 0.06970 0.83189 0.08100
H 	H 	0.11728 0.00291 0.86445 0.09000
H 	H 	0.16437 0.06391 0.89593 0.07600
C 	C 	0.06095 0.00627 0.43440 0.02400
C 	C 	0.00798 0.97303 0.45697 -0.11700
C 	C 	0.94191 0.93134 0.43154 0.08200
C 	C 	0.93051 0.92358 0.38457 -0.05100
C 	C 	0.98328 0.95821 0.36131 -0.07800
C 	C 	0.04947 0.99797 0.38766 0.02600
C 	C 	0.10820 0.03056 0.36704 -0.13500
H 	H 	0.11162 0.03768 0.45397 0.04200
H 	H 	0.87985 0.89229 0.36488 0.05200
C 	C 	0.88308 0.89643 0.45311 -0.20100
H 	H 	0.15643 0.05838 0.39307 0.06300
H 	H 	0.10628 0.06305 0.32902 0.06600
H 	H 	0.10789 0.99554 0.36333 0.05500
H 	H 	0.87851 0.93000 0.45336 0.07900
H 	H 	0.88890 0.86796 0.49269 0.08100
H 	H 	0.83550 0.86397 0.42960 0.07000
C 	C 	0.16580 0.30847 0.75125 -0.00900
C 	C 	0.23420 0.35467 0.76525 -0.02700
C 	C 	0.25613 0.40401 0.78072 -0.04600
C 	C 	0.20974 0.40725 0.78239 0.02200
C 	C 	0.14139 0.36248 0.76643 -0.04600
C 	C 	0.11946 0.31327 0.75079 -0.02600
C 	C 	0.23293 0.45552 0.80223 -0.01000
C 	C 	0.25836 0.49786 0.81949 -0.02800
C 	C 	0.14269 0.25178 0.74455 0.05200
C 	C 	0.11667 0.20192 0.73884 -0.10700
H 	H 	0.27034 0.35134 0.76582 0.04000
H 	H 	0.30916 0.43888 0.79256 0.04300
H 	H 	0.10524 0.36494 0.76714 0.04600
H 	H 	0.06643 0.27770 0.74000 0.04200
C 	C 	0.58653 0.73481 0.82853 0.02100
C 	C 	0.64446 0.79450 0.83455 -0.04900
C 	C 	0.69521 0.82521 0.81085 -0.02700
C 	C 	0.68771 0.79656 0.78055 -0.01400
C 	C 	0.63241 0.73486 0.77828 -0.02600
C 	C 	0.58198 0.70395 0.80237 -0.04800
C 	C 	0.72986 0.83407 0.74508 0.05400
C 	C 	0.76756 0.86969 0.71675 -0.11800
C 	C 	0.52835 0.70852 0.84255 -0.01200
C 	C 	0.47638 0.68186 0.85209 -0.02900
H 	H 	0.64884 0.81828 0.85541 0.04200
H 	H 	0.73853 0.87260 0.81355 0.03300
H 	H 	0.62664 0.71208 0.75553 0.03900
H 	H 	0.53772 0.65729 0.79831 0.04300
C 	C 	0.24292 0.72330 0.83892 0.02100
C 	C 	0.28318 0.78878 0.82757 -0.04700
C 	C 	0.25661 0.81976 0.81627 -0.02900
C 	C 	0.18949 0.78548 0.81585 -0.01000
C 	C 	0.15116 0.71997 0.83185 -0.02700
C 	C 	0.17769 0.68895 0.84307 -0.04600
C 	C 	0.15628 0.81552 0.78663 0.04800
C 	C 	0.12879 0.84090 0.76214 -0.10800
C 	C 	0.26667 0.69180 0.84193 -0.01100
C 	C 	0.28765 0.66654 0.84428 -0.02800
H 	H 	0.33408 0.81575 0.82524 0.04200
H 	H 	0.28690 0.87035 0.80440 0.03700
H 	H 	0.09943 0.69294 0.83213 0.04200
H 	H 	0.14657 0.63832 0.85276 0.04500
C 	C 	0.15901 0.30178 0.25523 -0.00900
C 	C 	0.22747 0.34781 0.26925 -0.02700
C 	C 	0.24968 0.39713 0.28492 -0.04600
C 	C 	0.20352 0.40054 0.28678 0.02200
C 	C 	0.13510 0.35573 0.27110 -0.04500
C 	C 	0.11289 0.30652 0.25528 -0.02500
C 	C 	0.22706 0.44951 0.30588 -0.01000
C 	C 	0.25285 0.49249 0.32247 -0.02800
C 	C 	0.13560 0.24558 0.24741 0.05200
C 	C 	0.10941 0.19617 0.24072 -0.10600
H 	H 	0.26344 0.34449 0.26947 0.04100
H 	H 	0.30275 0.43200 0.29657 0.04300
H 	H 	0.09913 0.35830 0.27198 0.04600
H 	H 	0.05981 0.27103 0.24454 0.04200
C 	C 	0.57851 0.73148 0.32267 0.02200
C 	C 	0.63783 0.79003 0.33020 -0.04900
C 	C 	0.68838 0.82015 0.30652 -0.02700
C 	C 	0.67933 0.79211 0.27473 -0.01400
C 	C 	0.62229 0.73147 0.27064 -0.02600
C 	C 	0.57201 0.70114 0.29467 -0.04800
C 	C 	0.72202 0.82970 0.23967 0.05500
C 	C 	0.76038 0.86551 0.21186 -0.11800
C 	C 	0.52148 0.70542 0.33821 -0.01200
C 	C 	0.47033 0.67899 0.34894 -0.02900
H 	H 	0.64368 0.81336 0.35246 0.04200
H 	H 	0.73294 0.86673 0.31053 0.03300
H 	H 	0.61522 0.70919 0.24664 0.04000
H 	H 	0.52662 0.65533 0.28942 0.04400
C 	C 	0.18394 0.78056 0.31790 -0.01000
C 	C 	0.25133 0.81499 0.31899 -0.02900
C 	C 	0.27805 0.78422 0.33010 -0.04700
C 	C 	0.23767 0.71880 0.34055 0.02100
C 	C 	0.17210 0.68421 0.34408 -0.04600
C 	C 	0.14542 0.71501 0.33307 -0.02700
C 	C 	0.26165 0.68769 0.34318 -0.01100
C 	C 	0.28273 0.66266 0.34522 -0.02800
C 	C 	0.15088 0.81076 0.28870 0.04800
C 	C 	0.12353 0.83629 0.26424 -0.10800
H 	H 	0.28177 0.86561 0.30778 0.03700
H 	H 	0.32921 0.81136 0.32827 0.04200
H 	H 	0.14086 0.63360 0.35308 0.04500
H 	H 	0.09347 0.68786 0.33283 0.04200
C 	C 	0.83499 0.19586 0.51481 -0.00800
C 	C 	0.76640 0.16828 0.49679 -0.02700
C 	C 	0.74246 0.20131 0.48613 -0.04500
C 	C 	0.78705 0.26220 0.49317 0.02100
C 	C 	0.85587 0.29164 0.50683 -0.04600
C 	C 	0.87979 0.25863 0.51743 -0.02800
C 	C 	0.76198 0.29179 0.49143 -0.01100
C 	C 	0.73928 0.31511 0.48968 -0.02800
C 	C 	0.85771 0.15679 0.54183 0.04800
C 	C 	0.88016 0.12695 0.56541 -0.10200
H 	H 	0.73136 0.12000 0.49423 0.04400
H 	H 	0.68916 0.17854 0.47473 0.04600
H 	H 	0.89075 0.33903 0.51154 0.04200
H 	H 	0.93295 0.28060 0.53089 0.03900
C 	C 	0.79155 0.54036 0.57983 0.02100
C 	C 	0.85808 0.57949 0.60430 -0.04800
C 	C 	0.87797 0.62736 0.62047 -0.02700
C 	C 	0.83159 0.63695 0.61144 -0.01200
C 	C 	0.76397 0.59406 0.59143 -0.02700
C 	C 	0.74398 0.54590 0.57557 -0.04700
C 	C 	0.85569 0.69779 0.60974 0.05200
C 	C 	0.88341 0.75108 0.60854 -0.11600
C 	C 	0.77262 0.49818 0.55509 -0.01100
C 	C 	0.75136 0.46152 0.53305 -0.02900
H 	H 	0.89492 0.57471 0.60876 0.04200
H 	H 	0.93029 0.65980 0.63658 0.03700
H 	H 	0.72760 0.60057 0.58478 0.03900
H 	H 	0.69207 0.51485 0.55768 0.04400
C 	C 	0.31856 0.14974 0.53705 -0.01300
C 	C 	0.32412 0.12136 0.51612 -0.02400
C 	C 	0.37486 0.15765 0.49053 -0.04700
C 	C 	0.42003 0.22230 0.48585 0.02200
C 	C 	0.40942 0.25121 0.50146 -0.04700
C 	C 	0.35904 0.21492 0.52738 -0.02400
C 	C 	0.48429 0.25595 0.47745 -0.00900
C 	C 	0.53978 0.28812 0.47165 -0.02800
C 	C 	0.27761 0.11181 0.57344 0.06300
C 	C 	0.24235 0.07720 0.60357 -0.11800
H 	H 	0.29170 0.07096 0.52231 0.04100
H 	H 	0.38194 0.13502 0.47775 0.04700
H 	H 	0.44342 0.30139 0.49705 0.04400
H 	H 	0.35397 0.23728 0.54237 0.04100
C 	C 	0.77589 0.25459 0.98960 0.02300
C 	C 	0.84386 0.28701 0.99432 -0.05000
C 	C 	0.86863 0.25443 0.00558 -0.02500
C 	C 	0.82562 0.18920 0.01267 -0.00900
C 	C 	0.75691 0.15769 0.00391 -0.02400
C 	C 	0.73213 0.19024 0.99253 -0.04800
C 	C 	0.85300 0.15393 0.04053 0.04900
C 	C 	0.87585 0.12440 0.06383 -0.10200
C 	C 	0.75158 0.28611 0.98548 -0.01200
C 	C 	0.72864 0.31015 0.98202 -0.02800
H 	H 	0.87790 0.33692 0.99126 0.04300
H 	H 	0.92177 0.27937 0.01193 0.03900
H 	H 	0.72318 0.10740 0.00905 0.04400
H 	H 	0.67933 0.16496 0.98808 0.04600
C 	C 	0.81249 0.64002 0.08663 -0.01200
C 	C 	0.75344 0.61377 0.04901 -0.02700
C 	C 	0.73476 0.56767 0.03118 -0.04700
C 	C 	0.77468 0.54711 0.05123 0.02200
C 	C 	0.83083 0.56975 0.09160 -0.04800
C 	C 	0.84950 0.61586 0.10945 -0.02700
C 	C 	0.75646 0.50149 0.03103 -0.01200
C 	C 	0.73664 0.46314 0.01162 -0.02600
C 	C 	0.84418 0.70091 0.09118 0.05100
C 	C 	0.87630 0.75243 0.09692 -0.11500
H 	H 	0.72437 0.63190 0.03117 0.03900
H 	H 	0.69025 0.54920 0.00080 0.04400
H 	H 	0.86090 0.55284 0.10835 0.04300
H 	H 	0.89501 0.63550 0.13883 0.03800
C 	C 	0.31430 0.14468 0.03984 -0.01400
C 	C 	0.31716 0.11517 0.01790 -0.02300
C 	C 	0.36597 0.15041 0.99062 -0.04800
C 	C 	0.41179 0.21518 0.98512 0.02000
C 	C 	0.40411 0.24518 0.00225 -0.04300
C 	C 	0.35571 0.20993 0.02989 -0.02500
C 	C 	0.47387 0.24839 0.97321 -0.00900
C 	C 	0.52783 0.28053 0.96454 -0.02800
C 	C 	0.27474 0.10777 0.07710 0.06300
C 	C 	0.24047 0.07380 0.10790 -0.11900
H 	H 	0.28404 0.06471 0.02438 0.04000
H 	H 	0.37087 0.12693 0.97679 0.04600
H 	H 	0.43870 0.29544 0.99735 0.04200
H 	H 	0.35277 0.23315 0.04576 0.04200
