data_crystal

_cell_length_a 15.58423
_cell_length_b 15.81287
_cell_length_c 26.66281
_cell_angle_alpha 95.42314
_cell_angle_beta  95.42492
_cell_angle_gamma 126.71369

_symmetry_space_group_name_	'P 1'
_symmetry_space_group_name_H-M	'P 1'

loop_
_symmetry_equiv_pos_as_xyz
  x,y,z

loop_
_atom_site_label
_atom_site_type_symbol
_atom_site_fract_x
_atom_site_fract_y
_atom_site_fract_z
_atom_site_charge
N 	N 	0.99402 0.90338 0.96269 -0.12900
N 	N 	0.06280 0.11191 0.50165 -0.12500
C 	C 	0.88172 0.98419 0.95593 0.13500
N 	N 	0.99048 0.04829 0.95724 -0.14200
C 	C 	0.04644 0.00831 0.96098 0.11100
C 	C 	0.88513 0.83730 0.96088 0.11400
N 	N 	0.82772 0.87746 0.95781 -0.13200
C 	C 	0.95537 0.05874 0.50453 0.09100
N 	N 	0.89192 0.95249 0.50596 -0.12100
C 	C 	0.93475 0.89920 0.50482 0.10800
N 	N 	0.04087 0.95150 0.50257 -0.11900
C 	C 	0.10524 0.05724 0.50102 0.09900
Cu	Cu	0.75005 0.32713 0.94425 0.92600
Cu	Cu	0.71579 0.22420 0.04891 0.86100
Cu	Cu	0.58524 0.28847 0.00972 0.89100
Cu	Cu	0.54547 0.31616 0.90086 0.90300
C 	C 	0.68115 0.30079 0.83566 0.29100
O 	O 	0.80754 0.48564 0.94607 -0.34700
C 	C 	0.64397 0.30381 0.12158 0.28300
O 	O 	0.58123 0.24249 0.93831 -0.62700
O 	O 	0.73756 0.33916 0.01704 -0.65300
O 	O 	0.81331 0.24627 0.94854 -0.35700
O 	O 	0.68191 0.12599 0.98956 -0.43100
O 	O 	0.63823 0.34865 0.84809 -0.38400
O 	O 	0.43999 0.24992 0.00044 -0.39600
C 	C 	0.36803 0.20011 0.95723 0.32200
C 	C 	0.75211 0.52064 0.95985 0.28100
O 	O 	0.64921 0.45157 0.96282 -0.38700
O 	O 	0.39555 0.22898 0.91325 -0.39100
O 	O 	0.73807 0.29125 0.87129 -0.36100
C 	C 	0.75714 0.15124 0.96241 0.28800
O 	O 	0.58846 0.31276 0.08440 -0.37700
O 	O 	0.71861 0.29214 0.11292 -0.42400
H 	H 	0.53376 0.16356 0.92668 0.16000
H 	H 	0.79082 0.41205 0.03821 0.16900
Cu	Cu	0.61956 0.19951 0.51206 0.92500
Cu	Cu	0.70823 0.21532 0.40368 0.86900
Cu	Cu	0.67205 0.36754 0.44651 0.89800
Cu	Cu	0.62439 0.39651 0.55084 0.89900
C 	C 	0.65378 0.27559 0.62018 0.28900
O 	O 	0.45954 0.13726 0.51150 -0.35800
C 	C 	0.63811 0.29739 0.33355 0.28600
O 	O 	0.70759 0.36673 0.51779 -0.63600
O 	O 	0.60390 0.21191 0.43921 -0.64200
O 	O 	0.69530 0.13231 0.50711 -0.36900
O 	O 	0.81332 0.25188 0.46121 -0.44000
O 	O 	0.60352 0.31659 0.60794 -0.38200
O 	O 	0.74674 0.52046 0.45754 -0.38200
C 	C 	0.75117 0.57929 0.49780 0.30900
C 	C 	0.42126 0.18728 0.49525 0.29300
O 	O 	0.48904 0.28641 0.48927 -0.39800
O 	O 	0.68615 0.53652 0.53104 -0.39300
O 	O 	0.65726 0.21350 0.58499 -0.35900
C 	C 	0.78912 0.18258 0.49126 0.29900
O 	O 	0.65972 0.37115 0.37197 -0.37800
O 	O 	0.63613 0.21539 0.34177 -0.42300
H 	H 	0.78655 0.41397 0.53252 0.16300
H 	H 	0.52827 0.16450 0.41943 0.17200
C 	C 	0.76868 0.37748 0.76209 -0.03200
C 	C 	0.69226 0.28678 0.78173 -0.08400
C 	C 	0.61596 0.18714 0.74800 0.07300
C 	C 	0.60946 0.18246 0.69467 -0.03300
C 	C 	0.67963 0.27553 0.67491 -0.08300
C 	C 	0.76391 0.37223 0.70886 0.07300
C 	C 	0.84464 0.47165 0.68854 -0.19100
H 	H 	0.82883 0.45345 0.78811 0.05000
H 	H 	0.54622 0.10763 0.66857 0.05000
C 	C 	0.53649 0.08744 0.76845 -0.19400
H 	H 	0.91749 0.53259 0.71862 0.07000
H 	H 	0.80562 0.50755 0.67497 0.06200
H 	H 	0.87322 0.45144 0.65621 0.06500
H 	H 	0.47364 0.09197 0.78166 0.06200
H 	H 	0.57977 0.07976 0.80108 0.07400
H 	H 	0.49503 0.01380 0.73861 0.06900
C 	C 	0.53673 0.23187 0.19046 -0.04200
C 	C 	0.62953 0.31711 0.17497 -0.08900
C 	C 	0.71530 0.40664 0.21223 0.07700
C 	C 	0.71338 0.40285 0.26464 -0.04200
C 	C 	0.62562 0.31226 0.28011 -0.08900
C 	C 	0.53329 0.22960 0.24288 0.07500
C 	C 	0.43335 0.13624 0.25862 -0.19100
H 	H 	0.46932 0.16470 0.16181 0.03500
H 	H 	0.78275 0.46801 0.29325 0.04300
C 	C 	0.81193 0.50340 0.19646 -0.19300
H 	H 	0.36038 0.09609 0.22775 0.06300
H 	H 	0.41600 0.16394 0.29333 0.07000
H 	H 	0.44612 0.07657 0.26677 0.06700
H 	H 	0.78505 0.52362 0.16263 0.07200
H 	H 	0.86870 0.48656 0.18676 0.06800
H 	H 	0.85660 0.57497 0.22784 0.06600
C 	C 	0.81320 0.69163 0.50015 -0.08800
C 	C 	0.86691 0.78655 0.50243 0.02900
C 	C 	0.90533 0.11127 0.50153 0.02500
C 	C 	0.85426 0.14605 0.49787 -0.09800
C 	C 	0.31035 0.14450 0.49656 -0.09000
C 	C 	0.21767 0.10946 0.49836 0.02400
C 	C 	0.79631 0.63182 0.96068 -0.07400
C 	C 	0.83181 0.72437 0.96085 0.02000
C 	C 	0.82686 0.03281 0.95604 0.00200
C 	C 	0.79309 0.08510 0.95762 -0.08100
C 	C 	0.16007 0.07585 0.96073 0.02900
C 	C 	0.25545 0.13270 0.95970 -0.09100
