data_crystal

_cell_length_a 35.16261
_cell_length_b 35.76733
_cell_length_c 35.00670
_cell_angle_alpha 95.55713
_cell_angle_beta  95.56508
_cell_angle_gamma 125.37928

_symmetry_space_group_name_	'P 1'
_symmetry_space_group_name_H-M	'P 1'

loop_
_symmetry_equiv_pos_as_xyz
  x,y,z

loop_
_atom_site_label
_atom_site_type_symbol
_atom_site_fract_x
_atom_site_fract_y
_atom_site_fract_z
_atom_site_charge
C 	C 	0.97888 0.02186 0.99607 0.13000
N 	N 	0.95349 0.97515 0.99498 -0.13900
C 	C 	0.97477 0.95357 0.99134 0.13300
N 	N 	0.02134 0.97862 0.98880 -0.13900
C 	C 	0.04674 0.02526 0.98988 0.13200
N 	N 	0.02555 0.04696 0.99352 -0.13900
C 	C 	0.94739 0.99619 0.44610 0.13500
N 	N 	0.92238 0.95048 0.44928 -0.14000
C 	C 	0.94490 0.93000 0.45269 0.13300
N 	N 	0.99222 0.95520 0.45295 -0.14000
C 	C 	0.01714 0.00078 0.44982 0.13200
N 	N 	0.99475 0.02129 0.44639 -0.14200
Cu	Cu	0.65644 0.26707 0.99756 0.92900
Cu	Cu	0.69279 0.26335 0.91524 0.87100
Cu	Cu	0.68395 0.33859 0.94416 0.89700
Cu	Cu	0.65682 0.35459 0.01964 0.89200
C 	C 	0.67242 0.30721 0.07787 0.28200
O 	O 	0.58714 0.24005 0.99617 -0.36200
C 	C 	0.66624 0.30140 0.85981 0.28300
O 	O 	0.69473 0.33940 0.99902 -0.63600
O 	O 	0.65044 0.26991 0.94129 -0.64100
O 	O 	0.68540 0.23292 0.99743 -0.37400
O 	O 	0.73761 0.27777 0.95969 -0.44300
O 	O 	0.65008 0.32500 0.06649 -0.38300
O 	O 	0.71971 0.40588 0.95093 -0.38100
C 	C 	0.71624 0.43210 0.97751 0.30700
C 	C 	0.56853 0.25922 0.98043 0.30300
O 	O 	0.59624 0.30214 0.97457 -0.39200
O 	O 	0.68322 0.41362 0.99926 -0.39400
O 	O 	0.67209 0.27644 0.05335 -0.36000
C 	C 	0.72515 0.24934 0.98460 0.31200
O 	O 	0.68415 0.33824 0.88768 -0.38500
O 	O 	0.66273 0.26419 0.86730 -0.41800
H 	H 	0.72861 0.35961 0.01189 0.15900
H 	H 	0.61747 0.25078 0.92637 0.17200
Cu	Cu	0.71970 0.33483 0.44436 0.92800
Cu	Cu	0.71629 0.29182 0.52361 0.86800
Cu	Cu	0.64442 0.30582 0.49508 0.89600
Cu	Cu	0.63098 0.33407 0.42058 0.89400
C 	C 	0.68738 0.32919 0.36376 0.28500
O 	O 	0.74659 0.40325 0.44820 -0.36300
C 	C 	0.67225 0.31063 0.57898 0.28100
O 	O 	0.64579 0.29602 0.44055 -0.64200
O 	O 	0.71425 0.33764 0.50015 -0.64100
O 	O 	0.75496 0.30675 0.44418 -0.37200
O 	O 	0.70531 0.25172 0.47757 -0.44500
O 	O 	0.66581 0.34722 0.37600 -0.38500
O 	O 	0.57598 0.27068 0.48713 -0.38500
C 	C 	0.54939 0.27306 0.45960 0.31000
C 	C 	0.72565 0.42014 0.46366 0.30100
O 	O 	0.68153 0.39157 0.46814 -0.39400
O 	O 	0.56810 0.30453 0.43692 -0.39400
O 	O 	0.71242 0.32212 0.38862 -0.35900
C 	C 	0.73728 0.26657 0.45526 0.31000
O 	O 	0.64392 0.31106 0.55151 -0.37600
O 	O 	0.71130 0.31611 0.57236 -0.41800
H 	H 	0.62553 0.26291 0.42716 0.16400
H 	H 	0.73389 0.36924 0.51665 0.17500
C 	C 	0.65680 0.30462 0.81872 -0.07400
C 	C 	0.62116 0.26433 0.79150 0.00200
C 	C 	0.61719 0.26534 0.75158 -0.05300
C 	C 	0.65068 0.30630 0.73819 0.00400
C 	C 	0.68245 0.34827 0.76587 0.00900
C 	C 	0.68582 0.34708 0.80600 -0.02000
C 	C 	0.71082 0.39078 0.75318 -0.04200
C 	C 	0.70968 0.39181 0.71338 -0.04000
C 	C 	0.68228 0.35014 0.68563 0.00700
C 	C 	0.65313 0.30671 0.69782 0.00600
C 	C 	0.63081 0.26497 0.67009 -0.05300
C 	C 	0.63517 0.26663 0.63096 0.00200
C 	C 	0.66303 0.30953 0.61894 -0.07300
C 	C 	0.68603 0.35120 0.64608 -0.01300
H 	H 	0.59654 0.23210 0.80129 0.03200
H 	H 	0.58712 0.23495 0.73159 0.04100
H 	H 	0.71210 0.37874 0.82713 0.04600
H 	H 	0.73396 0.42319 0.77423 0.03900
H 	H 	0.73171 0.42507 0.70416 0.03800
H 	H 	0.61271 0.23142 0.67891 0.04000
H 	H 	0.61839 0.23436 0.61019 0.02100
H 	H 	0.70833 0.38438 0.63673 0.03700
C 	C 	0.68672 0.31244 0.12005 -0.07000
C 	C 	0.71383 0.35689 0.14378 0.00200
C 	C 	0.72108 0.36181 0.18442 -0.05200
C 	C 	0.69873 0.32189 0.20190 0.00600
C 	C 	0.67651 0.27754 0.17806 0.00900
C 	C 	0.66996 0.27294 0.13716 -0.01500
C 	C 	0.66080 0.23834 0.19529 -0.04000
C 	C 	0.66530 0.24242 0.23582 -0.04100
C 	C 	0.68279 0.28509 0.25964 0.00900
C 	C 	0.69838 0.32505 0.24271 0.00500
C 	C 	0.70901 0.36559 0.26612 -0.05200
C 	C 	0.70733 0.36727 0.30585 0.00500
C 	C 	0.69354 0.32833 0.32281 -0.06800
C 	C 	0.68206 0.28756 0.29989 -0.01900
H 	H 	0.72917 0.38772 0.13068 0.02200
H 	H 	0.74536 0.39649 0.20192 0.04100
H 	H 	0.65048 0.23865 0.11875 0.04800
H 	H 	0.64511 0.20457 0.17726 0.04000
H 	H 	0.65336 0.21180 0.24861 0.03900
H 	H 	0.71564 0.39473 0.25343 0.04200
H 	H 	0.71552 0.39864 0.32333 0.03800
H 	H 	0.67051 0.25715 0.31294 0.03900
C 	C 	0.87721 0.79398 0.46419 0.01300
C 	C 	0.90346 0.78281 0.48643 -0.04000
C 	C 	0.88374 0.73625 0.48847 -0.03800
C 	C 	0.83755 0.70049 0.46831 0.00500
C 	C 	0.81087 0.71182 0.44678 -0.03800
C 	C 	0.83069 0.75844 0.44472 -0.04000
C 	C 	0.81797 0.65116 0.46832 0.01100
C 	C 	0.81194 0.63431 0.50352 -0.04400
C 	C 	0.79446 0.58783 0.50355 -0.03000
C 	C 	0.78290 0.55795 0.46844 -0.00900
C 	C 	0.78899 0.57473 0.43330 -0.03000
C 	C 	0.80649 0.62116 0.43322 -0.04400
C 	C 	0.76323 0.50961 0.46813 0.04500
C 	C 	0.74667 0.46898 0.46683 -0.11000
C 	C 	0.89920 0.84157 0.45948 0.00500
C 	C 	0.91898 0.88182 0.45631 -0.03900
H 	H 	0.93946 0.81012 0.50154 0.04300
H 	H 	0.90466 0.72790 0.50509 0.04000
H 	H 	0.77507 0.68449 0.43131 0.04000
H 	H 	0.81017 0.76680 0.42750 0.04300
H 	H 	0.82070 0.65718 0.53077 0.04100
H 	H 	0.78969 0.57505 0.53081 0.03800
H 	H 	0.78003 0.55179 0.40603 0.03900
H 	H 	0.81137 0.63390 0.40595 0.04100
C 	C 	0.79420 0.19549 0.43754 -0.01200
C 	C 	0.84134 0.21578 0.45472 -0.03000
C 	C 	0.85902 0.18939 0.45280 -0.04500
C 	C 	0.82965 0.14250 0.43361 0.01100
C 	C 	0.78281 0.12259 0.41559 -0.04500
C 	C 	0.76516 0.14902 0.41758 -0.03000
C 	C 	0.84756 0.11396 0.43340 0.00500
C 	C 	0.88668 0.12648 0.41591 -0.03800
C 	C 	0.90522 0.10092 0.41753 -0.04000
C 	C 	0.88478 0.06267 0.43660 0.01200
C 	C 	0.84521 0.04959 0.45350 -0.04000
C 	C 	0.82664 0.07515 0.45192 -0.03800
C 	C 	0.90576 0.03818 0.44025 0.00600
C 	C 	0.92402 0.01830 0.44288 -0.04100
C 	C 	0.77445 0.22099 0.44326 0.04700
C 	C 	0.75778 0.24221 0.44799 -0.12200
H 	H 	0.86398 0.25166 0.47028 0.03600
H 	H 	0.89522 0.20510 0.46681 0.04100
H 	H 	0.75998 0.08656 0.40043 0.04100
H 	H 	0.72867 0.13308 0.40424 0.03700
H 	H 	0.90294 0.15621 0.40138 0.04000
H 	H 	0.93579 0.11120 0.40437 0.04300
H 	H 	0.82923 0.02007 0.46829 0.04200
H 	H 	0.79651 0.06526 0.46560 0.03900
C 	C 	0.40671 0.19829 0.45659 -0.00900
C 	C 	0.37791 0.19738 0.42534 -0.03000
C 	C 	0.32911 0.17288 0.42428 -0.04400
C 	C 	0.30880 0.14910 0.45449 0.01100
C 	C 	0.33768 0.14987 0.48569 -0.04400
C 	C 	0.38650 0.17441 0.48672 -0.03000
C 	C 	0.25737 0.12352 0.45352 0.00500
C 	C 	0.22466 0.08531 0.42336 -0.03800
C 	C 	0.17591 0.06110 0.42244 -0.04000
C 	C 	0.15955 0.07490 0.45163 0.01300
C 	C 	0.19214 0.11313 0.48170 -0.04000
C 	C 	0.24091 0.13740 0.48266 -0.03800
C 	C 	0.10936 0.04916 0.45117 0.00500
C 	C 	0.06727 0.02737 0.45053 -0.03900
C 	C 	0.45711 0.22439 0.45801 0.04600
C 	C 	0.49925 0.24639 0.45884 -0.10800
H 	H 	0.39333 0.21581 0.40197 0.03800
H 	H 	0.30713 0.17258 0.40013 0.04100
H 	H 	0.32229 0.13143 0.50906 0.04100
H 	H 	0.40858 0.17497 0.51096 0.04000
H 	H 	0.23703 0.07427 0.40080 0.04000
H 	H 	0.15090 0.03150 0.39915 0.04300
H 	H 	0.17972 0.12396 0.50438 0.04300
H 	H 	0.26589 0.16699 0.50595 0.04000
C 	C 	0.78767 0.57175 0.98014 -0.00500
C 	C 	0.78364 0.59764 0.00999 -0.03500
C 	C 	0.80616 0.64535 0.01150 -0.04800
C 	C 	0.83292 0.66750 0.98315 0.01400
C 	C 	0.83710 0.64156 0.95334 -0.04400
C 	C 	0.81450 0.59378 0.95185 -0.03100
C 	C 	0.85673 0.71785 0.98482 0.00800
C 	C 	0.89235 0.75033 0.01690 -0.04100
C 	C 	0.91483 0.79807 0.01856 -0.04400
C 	C 	0.90189 0.81364 0.98817 0.01800
C 	C 	0.86610 0.78127 0.95623 -0.04100
C 	C 	0.84355 0.73349 0.95454 -0.03800
C 	C 	0.92687 0.86289 0.98896 0.00500
C 	C 	0.94814 0.90425 0.99006 -0.03800
C 	C 	0.76328 0.52237 0.97813 0.04500
C 	C 	0.74236 0.48111 0.97740 -0.10700
H 	H 	0.76286 0.58077 0.03191 0.03800
H 	H 	0.80264 0.66507 0.03456 0.04100
H 	H 	0.85789 0.65841 0.93143 0.04200
H 	H 	0.81773 0.57394 0.92868 0.04000
H 	H 	0.90278 0.73859 0.04039 0.04000
H 	H 	0.94258 0.82295 0.04328 0.04300
H 	H 	0.85598 0.79309 0.93260 0.04300
H 	H 	0.81586 0.70865 0.92978 0.04100
C 	C 	0.79932 0.19599 0.00530 -0.02300
C 	C 	0.84374 0.21737 0.99429 -0.02300
C 	C 	0.86728 0.19660 0.99667 -0.04300
C 	C 	0.84651 0.15429 0.01010 0.00900
C 	C 	0.80277 0.13376 0.02239 -0.04700
C 	C 	0.77924 0.15455 0.01995 -0.02600
C 	C 	0.86910 0.13010 0.00904 0.00000
C 	C 	0.91447 0.15137 0.03133 -0.03700
C 	C 	0.93661 0.12920 0.02901 -0.04100
C 	C 	0.91355 0.08568 0.00444 0.01200
C 	C 	0.86810 0.06421 0.98242 -0.03800
C 	C 	0.84594 0.08634 0.98468 -0.03400
C 	C 	0.93670 0.06325 0.00153 -0.00300
C 	C 	0.95611 0.04450 0.99912 -0.03100
C 	C 	0.77279 0.21458 0.99865 0.05600
C 	C 	0.75105 0.23060 0.99290 -0.12400
H 	H 	0.85951 0.24946 0.98300 0.03500
H 	H 	0.90104 0.21274 0.98715 0.04100
H 	H 	0.78664 0.10130 0.03312 0.04100
H 	H 	0.74496 0.13790 0.02863 0.03700
H 	H 	0.93259 0.18509 0.05028 0.03900
H 	H 	0.97173 0.14594 0.04617 0.04300
H 	H 	0.85006 0.03055 0.96338 0.04300
H 	H 	0.81103 0.06977 0.96719 0.03900
C 	C 	0.42730 0.19919 0.97200 -0.01100
C 	C 	0.41413 0.22650 0.98836 -0.02500
C 	C 	0.36634 0.20652 0.98891 -0.04200
C 	C 	0.33143 0.15907 0.97308 0.01300
C 	C 	0.34457 0.13205 0.95578 -0.04500
C 	C 	0.39240 0.15208 0.95529 -0.02800
C 	C 	0.28154 0.13711 0.97651 -0.00000
C 	C 	0.25614 0.15143 0.95779 -0.03300
C 	C 	0.20880 0.13051 0.96116 -0.04500
C 	C 	0.18669 0.09525 0.98326 0.02300
C 	C 	0.21217 0.08128 0.00228 -0.05500
C 	C 	0.25944 0.10214 0.99895 -0.02300
C 	C 	0.13729 0.07185 0.98507 0.00300
C 	C 	0.09601 0.05144 0.98727 -0.03700
C 	C 	0.47677 0.21902 0.97414 0.04800
C 	C 	0.51849 0.23673 0.97643 -0.11100
H 	H 	0.44096 0.26298 0.00125 0.03400
H 	H 	0.35655 0.22763 0.00235 0.03800
H 	H 	0.31781 0.09545 0.94325 0.04200
H 	H 	0.40234 0.13081 0.94247 0.03800
H 	H 	0.27294 0.17848 0.94047 0.03900
H 	H 	0.18926 0.14142 0.94632 0.04400
H 	H 	0.19526 0.05401 0.01939 0.04500
H 	H 	0.27890 0.09116 0.01379 0.03400
