data_crystal

_cell_length_a 47.32950
_cell_length_b 39.82112
_cell_length_c 22.61831
_cell_angle_alpha 89.96426
_cell_angle_beta  89.95270
_cell_angle_gamma 90.00237

_symmetry_space_group_name_	'P 1'
_symmetry_space_group_name_H-M	'P 1'

loop_
_symmetry_equiv_pos_as_xyz
  x,y,z

loop_
_atom_site_label
_atom_site_type_symbol
_atom_site_fract_x
_atom_site_fract_y
_atom_site_fract_z
_atom_site_charge
C 	C 	0.54393 0.44082 0.95648 0.10300
N 	N 	0.51602 0.43896 0.94534 -0.17200
C 	C 	0.50652 0.41149 0.97377 0.09100
C 	C 	0.47826 0.39672 0.96308 -0.07200
C 	C 	0.45396 0.41886 0.95052 0.08800
C 	C 	0.47354 0.36038 0.97140 0.03900
C 	C 	0.48394 0.33736 0.92987 -0.05800
C 	C 	0.47747 0.30321 0.93524 -0.02500
C 	C 	0.46071 0.29185 0.98251 -0.01000
C 	C 	0.45731 0.34898 0.01924 -0.05200
N 	N 	0.45012 0.44887 0.97678 -0.12700
C 	C 	0.43116 0.41029 0.91561 -0.06000
C 	C 	0.42468 0.45967 0.95771 0.08700
C 	C 	0.41494 0.49479 0.96483 -0.07400
C 	C 	0.38439 0.50264 0.96140 0.04400
C 	C 	0.33618 0.49222 0.99328 -0.03100
C 	C 	0.37459 0.52716 0.92181 -0.05900
C 	C 	0.34569 0.53424 0.91809 -0.02300
C 	C 	0.32635 0.51660 0.95346 -0.00200
N 	N 	0.46155 0.52326 0.95680 -0.17100
C 	C 	0.47208 0.55330 0.97297 0.09300
C 	C 	0.45274 0.57076 0.00725 -0.05700
C 	C 	0.42926 0.55024 0.01207 -0.05700
C 	C 	0.49906 0.56718 0.94986 -0.07200
C 	C 	0.50641 0.60265 0.96091 0.03800
C 	C 	0.53049 0.64438 0.02046 -0.01600
C 	C 	0.52550 0.66873 0.97679 -0.01100
C 	C 	0.51031 0.66001 0.92570 -0.02500
C 	C 	0.50069 0.62710 0.91797 -0.05900
N 	N 	0.52310 0.51212 0.94133 -0.12900
C 	C 	0.56212 0.52750 0.89124 -0.06100
C 	C 	0.54822 0.50172 0.92026 0.08900
C 	C 	0.56171 0.47011 0.94008 -0.07500
C 	C 	0.59256 0.46905 0.94968 0.03900
C 	C 	0.60392 0.48025 0.00337 -0.05300
C 	C 	0.63319 0.48249 0.01054 -0.02000
C 	C 	0.65134 0.47403 0.96366 -0.01100
C 	C 	0.63993 0.46169 0.91065 -0.02000
C 	C 	0.61063 0.45918 0.90374 -0.06000
C 	C 	0.55223 0.41497 0.99358 -0.08000
C 	C 	0.52832 0.39588 0.00410 -0.04400
C 	C 	0.45095 0.31488 0.02482 -0.01600
C 	C 	0.41247 0.43669 0.91956 -0.06100
C 	C 	0.43553 0.52135 0.98055 0.09500
C 	C 	0.54433 0.55487 0.89372 -0.06000
C 	C 	0.52051 0.54435 0.92415 0.08700
C 	C 	0.52100 0.61148 0.01249 -0.05300
H 	H 	0.50587 0.45045 0.90964 0.09400
H 	H 	0.46811 0.50966 0.91974 0.09600
H 	H 	0.64175 0.49122 0.05220 0.03900
H 	H 	0.65371 0.45485 0.87433 0.04400
H 	H 	0.59006 0.48771 0.03918 0.05100
H 	H 	0.60198 0.45043 0.86219 0.04700
H 	H 	0.48488 0.28574 0.90196 0.03800
H 	H 	0.44932 0.36662 0.05165 0.05200
H 	H 	0.43813 0.30638 0.06162 0.04600
H 	H 	0.49648 0.34600 0.89277 0.04600
H 	H 	0.33832 0.55319 0.88737 0.04400
H 	H 	0.38934 0.54063 0.89384 0.04700
C 	C 	0.36507 0.48531 0.99729 -0.06100
H 	H 	0.32145 0.47877 0.02133 0.04700
H 	H 	0.54206 0.65086 0.06016 0.04500
H 	H 	0.52547 0.59268 0.04585 0.05100
H 	H 	0.48948 0.62040 0.87794 0.04600
H 	H 	0.50660 0.67847 0.89136 0.03800
H 	H 	0.57377 0.40679 0.00079 0.05900
H 	H 	0.52836 0.37004 0.01893 0.04700
H 	H 	0.43139 0.39160 0.88088 0.04900
H 	H 	0.39645 0.44253 0.88700 0.04900
H 	H 	0.45263 0.59768 0.01383 0.05000
H 	H 	0.40821 0.55882 0.02315 0.05200
H 	H 	0.58473 0.52898 0.88455 0.05000
H 	H 	0.55115 0.58070 0.88924 0.05000
H 	H 	0.37244 0.46654 0.02836 0.05500
Zn	Zn	0.36811 0.05766 0.04630 1.22300
C 	C 	0.31545 0.02126 0.04769 0.31100
O 	O 	0.38824 0.04933 0.12092 -0.46000
O 	O 	0.32893 0.99391 0.03155 -0.44300
O 	O 	0.36379 0.00169 0.14150 -0.48800
C 	C 	0.38296 0.01343 0.95182 0.32800
O 	O 	0.36687 0.03888 0.96683 -0.45800
O 	O 	0.39058 0.99121 0.99166 -0.51100
C 	C 	0.38005 0.02642 0.15908 0.31500
O 	O 	0.40662 0.09088 0.01338 -0.31000
Zn	Zn	0.36868 0.98282 0.06297 1.17200
O 	O 	0.32942 0.04655 0.07082 -0.42300
C 	C 	0.38974 0.11605 0.02247 0.26800
O 	O 	0.36491 0.10844 0.04228 -0.37800
C 	C 	0.51990 0.96874 0.60349 0.01100
C 	C 	0.49052 0.97664 0.60451 0.01200
C 	C 	0.53429 0.96661 0.54929 -0.05400
C 	C 	0.51963 0.97158 0.49603 0.01100
C 	C 	0.47590 0.98180 0.55125 -0.05500
C 	C 	0.49031 0.97976 0.49705 0.01200
H 	H 	0.45330 0.98617 0.55188 0.05100
H 	H 	0.55688 0.96227 0.54864 0.05100
C 	C 	0.47595 0.98356 0.44271 -0.01500
C 	C 	0.49035 0.98228 0.38873 0.00700
C 	C 	0.47603 0.99893 0.34218 -0.05100
C 	C 	0.45070 0.01385 0.36028 -0.00900
S 	S 	0.44629 0.00549 0.43221 -0.00200
H 	H 	0.48383 0.00008 0.29719 0.04300
C 	C 	0.53376 0.97056 0.44098 -0.01400
C 	C 	0.51913 0.97496 0.38771 0.00700
C 	C 	0.53296 0.96035 0.33842 -0.05000
C 	C 	0.55790 0.94365 0.35370 -0.00900
S 	S 	0.56287 0.94829 0.42636 -0.00300
H 	H 	0.52477 0.96121 0.29375 0.04200
C 	C 	0.51988 0.96608 0.71175 0.00700
C 	C 	0.53429 0.96516 0.65784 -0.01400
S 	S 	0.56443 0.94424 0.66845 -0.00300
C 	C 	0.56031 0.93591 0.74052 -0.00900
C 	C 	0.53454 0.94993 0.75837 -0.05000
C 	C 	0.47635 0.97714 0.65957 -0.01400
C 	C 	0.49101 0.97284 0.71279 0.00700
C 	C 	0.47687 0.98674 0.76229 -0.05000
C 	C 	0.45149 0.00262 0.74742 -0.00800
S 	S 	0.44675 0.99836 0.67455 -0.00300
H 	H 	0.48493 0.98551 0.80704 0.04400
H 	H 	0.52689 0.94893 0.80348 0.04400
Zn	Zn	0.63960 0.88899 0.04412 1.22200
C 	C 	0.69451 0.92046 0.05081 0.30900
O 	O 	0.61882 0.90228 0.11570 -0.46200
O 	O 	0.68292 0.94694 0.02609 -0.43400
O 	O 	0.64552 0.94865 0.13276 -0.49200
C 	C 	0.62964 0.93028 0.94327 0.32800
O 	O 	0.64418 0.90457 0.96302 -0.45600
O 	O 	0.62273 0.95481 0.97921 -0.50900
C 	C 	0.62788 0.92568 0.15192 0.31700
O 	O 	0.59878 0.86041 0.01076 -0.31200
Zn	Zn	0.64367 0.96399 0.05133 1.17200
O 	O 	0.67855 0.89614 0.07165 -0.43200
C 	C 	0.61269 0.83335 0.02390 0.26900
O 	O 	0.63775 0.83795 0.04531 -0.38000
Zn	Zn	0.11810 0.59974 0.97124 1.22000
C 	C 	0.07976 0.65637 0.97661 0.30200
O 	O 	0.10909 0.57058 0.03955 -0.45300
O 	O 	0.06102 0.63783 0.94886 -0.43800
O 	O 	0.06514 0.59231 0.05238 -0.49300
C 	C 	0.08790 0.58472 0.86509 0.32800
O 	O 	0.10709 0.60449 0.88834 -0.44800
O 	O 	0.07106 0.56749 0.89966 -0.51400
C 	C 	0.08695 0.57594 0.07336 0.31400
O 	O 	0.15229 0.56023 0.93936 -0.30800
Zn	Zn	0.05512 0.58791 0.96999 1.17000
O 	O 	0.10228 0.64239 0.00026 -0.42600
C 	C 	0.17060 0.58212 0.95783 0.26900
O 	O 	0.16011 0.60927 0.98040 -0.38100
C 	C 	0.00310 0.54405 0.50965 0.01100
C 	C 	0.97469 0.53247 0.51072 0.01100
C 	C 	0.02190 0.53194 0.46658 -0.05500
C 	C 	0.01235 0.50972 0.42265 0.01100
C 	C 	0.96521 0.50984 0.46734 -0.05400
C 	C 	0.98370 0.49896 0.42254 0.01100
H 	H 	0.94352 0.50117 0.46794 0.05100
H 	H 	0.04371 0.54015 0.46669 0.05100
C 	C 	0.97443 0.47732 0.37703 -0.01300
C 	C 	0.99215 0.46866 0.32960 0.00700
C 	C 	0.97700 0.45877 0.27800 -0.04900
C 	C 	0.94765 0.46009 0.28527 -0.00800
S 	S 	0.94112 0.47431 0.35336 -0.00300
H 	H 	0.98681 0.45449 0.23548 0.04300
C 	C 	0.03065 0.49823 0.37759 -0.01300
C 	C 	0.02042 0.47950 0.32959 0.00800
C 	C 	0.03731 0.48292 0.27762 -0.04900
C 	C 	0.06041 0.50452 0.28503 -0.00800
S 	S 	0.05916 0.51893 0.35423 -0.00200
H 	H 	0.03085 0.47399 0.23457 0.04200
C 	C 	0.99338 0.57979 0.59570 0.00600
C 	C 	0.01156 0.56871 0.55082 -0.01400
S 	S 	0.04461 0.57463 0.57406 -0.00200
C 	C 	0.03744 0.59303 0.63862 -0.01000
C 	C 	0.00799 0.59371 0.64502 -0.04900
C 	C 	0.95609 0.54539 0.55398 -0.01400
C 	C 	0.96546 0.56785 0.59758 0.00700
C 	C 	0.94823 0.56767 0.64929 -0.05000
C 	C 	0.92571 0.54494 0.64590 -0.01000
S 	S 	0.92817 0.52497 0.58125 -0.00200
H 	H 	0.95382 0.58030 0.68993 0.03900
H 	H 	0.99788 0.59999 0.68644 0.04000
Zn	Zn	0.87408 0.45032 0.96336 1.21900
C 	C 	0.81671 0.47494 0.96803 0.30700
O 	O 	0.89260 0.47198 0.89523 -0.46400
O 	O 	0.82638 0.50060 0.99851 -0.43400
O 	O 	0.86257 0.51650 0.89341 -0.49500
C 	C 	0.88292 0.48217 0.07420 0.32600
O 	O 	0.86915 0.45793 0.04765 -0.45300
O 	O 	0.88667 0.51096 0.04706 -0.50600
C 	C 	0.88127 0.49742 0.86683 0.31500
O 	O 	0.91742 0.42468 0.98870 -0.33300
Zn	Zn	0.86423 0.52374 0.97830 1.16800
O 	O 	0.83431 0.45503 0.93970 -0.43300
C 	C 	0.90591 0.39724 0.96927 0.27100
O 	O 	0.88041 0.40032 0.94932 -0.37000
C 	C 	0.99950 0.95805 0.06181 0.09500
N 	N 	0.98345 0.98593 0.06128 -0.17300
C 	C 	0.96334 0.98161 0.10269 0.10200
C 	C 	0.93612 0.99967 0.10003 -0.07700
C 	C 	0.93579 0.03682 0.09559 0.08900
C 	C 	0.90958 0.98060 0.09279 0.04500
C 	C 	0.90512 0.96156 0.04147 -0.06100
C 	C 	0.87836 0.94847 0.02935 -0.01900
C 	C 	0.85589 0.95430 0.06855 -0.00500
C 	C 	0.88761 0.98451 0.13382 -0.06000
N 	N 	0.95941 0.05554 0.10095 -0.12900
C 	C 	0.91465 0.05474 0.06733 -0.06100
C 	C 	0.95305 0.08564 0.07702 0.08900
C 	C 	0.97485 0.11060 0.06028 -0.07700
C 	C 	0.96614 0.14476 0.04241 0.04800
C 	C 	0.94568 0.19881 0.06712 -0.02600
C 	C 	0.96946 0.15524 0.98362 -0.06300
C 	C 	0.96067 0.18733 0.96648 -0.03500
C 	C 	0.94863 0.20919 0.00815 0.01100
N 	N 	0.01667 0.07373 0.04669 -0.17300
C 	C 	0.04469 0.07919 0.04196 0.09500
C 	C 	0.05133 0.11160 0.05911 -0.06100
C 	C 	0.02613 0.12657 0.07501 -0.06300
C 	C 	0.06442 0.05634 0.01039 -0.06900
C 	C 	0.09521 0.06046 0.01784 0.05400
C 	C 	0.13642 0.06131 0.08160 -0.02500
C 	C 	0.15409 0.06154 0.03177 0.00300
C 	C 	0.14220 0.06183 0.97498 -0.02600
C 	C 	0.11287 0.06139 0.96805 -0.06300
N 	N 	0.05242 0.99618 0.01412 -0.12000
C 	C 	0.02484 0.99260 0.93363 -0.05700
C 	C 	0.03489 0.97614 0.98327 0.07500
C 	C 	0.01885 0.94927 0.01266 -0.05800
C 	C 	0.02479 0.91382 0.99776 0.02500
C 	C 	0.05252 0.90147 0.00088 -0.03400
C 	C 	0.05804 0.86766 0.98906 -0.03600
C 	C 	0.03588 0.84580 0.97426 0.00400
C 	C 	0.00814 0.85827 0.97051 -0.03400
C 	C 	0.00271 0.89223 0.98145 -0.05000
C 	C 	0.98987 0.93572 0.10421 -0.05900
C 	C 	0.96667 0.95074 0.13027 -0.06300
C 	C 	0.86086 0.97134 0.12182 -0.02100
C 	C 	0.92571 0.08597 0.05549 -0.06100
C 	C 	0.00527 0.10255 0.06681 0.10200
C 	C 	0.03711 0.02401 0.93385 -0.06300
C 	C 	0.05401 0.02507 0.98349 0.08200
C 	C 	0.10710 0.06060 0.07467 -0.05600
H 	H 	0.98117 0.00159 0.02450 0.09000
H 	H 	0.00552 0.05541 0.02340 0.09400
H 	H 	0.07952 0.85840 0.99187 0.04900
H 	H 	0.99076 0.84159 0.96017 0.03800
H 	H 	0.06972 0.91795 0.01334 0.05000
H 	H 	0.98127 0.90161 0.97844 0.04100
H 	H 	0.87484 0.93483 0.98859 0.03200
H 	H 	0.89097 0.99887 0.17388 0.04900
H 	H 	0.84371 0.97567 0.15263 0.04400
H 	H 	0.92207 0.95815 0.00981 0.04700
H 	H 	0.96325 0.19523 0.92095 0.04100
H 	H 	0.97870 0.13848 0.95122 0.04500
C 	C 	0.95428 0.16666 0.08412 -0.05700
H 	H 	0.93646 0.21554 0.09961 0.04600
H 	H 	0.14541 0.06075 0.12563 0.04200
H 	H 	0.09365 0.05934 0.11339 0.05200
H 	H 	0.10387 0.06118 0.92402 0.04900
H 	H 	0.15570 0.06200 0.93627 0.04400
H 	H 	0.99395 0.90898 0.10445 0.05200
H 	H 	0.94991 0.93713 0.15240 0.05100
H 	H 	0.89739 0.04356 0.04288 0.05000
H 	H 	0.91819 0.10241 0.02076 0.05000
H 	H 	0.07005 0.12516 0.04537 0.05000
H 	H 	0.02261 0.15343 0.07554 0.05300
H 	H 	0.00489 0.98699 0.91240 0.04300
H 	H 	0.02815 0.04588 0.91246 0.04400
H 	H 	0.95175 0.15876 0.12966 0.05000
C 	C 	0.94068 0.30169 0.00374 0.10100
C 	C 	0.91861 0.30552 0.96280 0.08100
N 	N 	0.90802 0.33657 0.95155 -0.08900
C 	C 	0.91880 0.36411 0.97920 -0.02800
C 	C 	0.94125 0.36027 0.01937 0.04600
N 	N 	0.95166 0.32912 0.03095 -0.11500
N 	N 	0.95043 0.27051 0.01693 -0.11200
N 	N 	0.90753 0.27806 0.93583 -0.10500
H 	H 	0.94997 0.38182 0.04209 0.03900
C 	C 	0.93921 0.24292 0.99031 0.03600
C 	C 	0.91745 0.24682 0.94864 0.00300
H 	H 	0.90815 0.22509 0.92750 0.03800
C 	C 	0.92930 0.50801 0.73440 -0.07200
C 	C 	0.91312 0.52942 0.69865 0.03500
C 	C 	0.88566 0.53816 0.71598 -0.07100
C 	C 	0.87483 0.52669 0.76990 0.02000
C 	C 	0.89144 0.50642 0.80706 -0.10200
C 	C 	0.91852 0.49651 0.78831 0.01800
H 	H 	0.95050 0.50100 0.72114 0.04900
H 	H 	0.87296 0.55449 0.68838 0.04900
H 	H 	0.85371 0.53402 0.78316 0.03400
H 	H 	0.93155 0.48076 0.81625 0.03400
C 	C 	0.92177 0.43814 0.19787 -0.07000
C 	C 	0.92822 0.46513 0.23528 0.03700
C 	C 	0.91823 0.49740 0.22158 -0.07200
C 	C 	0.90250 0.50276 0.17010 0.02400
C 	C 	0.89673 0.47591 0.13168 -0.10100
C 	C 	0.90600 0.44344 0.14645 0.02600
H 	H 	0.92952 0.41319 0.20794 0.05300
H 	H 	0.92332 0.51849 0.24988 0.04900
H 	H 	0.89523 0.52786 0.15960 0.02500
H 	H 	0.90180 0.42250 0.11719 0.04000
C 	C 	0.05230 0.74229 0.95080 0.08600
C 	C 	0.06450 0.76006 0.99790 0.08500
N 	N 	0.05885 0.79325 0.00479 -0.10800
C 	C 	0.04157 0.80960 0.96617 0.04100
C 	C 	0.02981 0.79189 0.91833 0.00200
N 	N 	0.03528 0.75855 0.91185 -0.10900
N 	N 	0.05761 0.70896 0.94446 -0.09400
N 	N 	0.08186 0.74394 0.03633 -0.11100
H 	H 	0.01664 0.80464 0.88629 0.03700
C 	C 	0.07497 0.69269 0.98302 -0.04100
C 	C 	0.08742 0.71065 0.02976 0.05100
H 	H 	0.10105 0.69808 0.06119 0.04200
C 	C 	0.07416 0.55682 0.77127 0.02400
C 	C 	0.08193 0.58619 0.80142 -0.10300
C 	C 	0.07899 0.61744 0.77331 0.02300
C 	C 	0.06608 0.61950 0.71783 -0.07100
C 	C 	0.05635 0.59032 0.68982 0.03700
C 	C 	0.06140 0.55887 0.71572 -0.07200
H 	H 	0.07670 0.53252 0.79219 0.03100
H 	H 	0.08504 0.64029 0.79601 0.03900
H 	H 	0.06244 0.64388 0.69793 0.05200
H 	H 	0.05409 0.53616 0.69425 0.05100
C 	C 	0.09521 0.52729 0.14066 0.02000
C 	C 	0.08498 0.56004 0.13198 -0.10100
C 	C 	0.06953 0.57578 0.17710 0.02200
C 	C 	0.06270 0.55822 0.22860 -0.07000
C 	C 	0.07151 0.52480 0.23580 0.03600
C 	C 	0.08837 0.50969 0.19229 -0.07000
H 	H 	0.10726 0.51489 0.10628 0.03600
H 	H 	0.06188 0.60122 0.17128 0.03400
H 	H 	0.04953 0.57011 0.26172 0.05100
H 	H 	0.09534 0.48394 0.19752 0.05100
C 	C 	0.77035 0.93786 0.02688 0.09100
C 	C 	0.78257 0.92226 0.07637 0.09200
N 	N 	0.81049 0.92668 0.08784 -0.11500
C 	C 	0.82680 0.94576 0.05130 0.04600
C 	C 	0.81471 0.96041 0.00076 0.01100
N 	N 	0.78670 0.95627 0.98970 -0.11500
N 	N 	0.74203 0.93597 0.01833 -0.09200
N 	N 	0.76609 0.90436 0.11414 -0.11400
H 	H 	0.82733 0.97596 0.97165 0.03100
C 	C 	0.72535 0.91872 0.05685 -0.03500
C 	C 	0.73774 0.90209 0.10518 0.04400
H 	H 	0.72478 0.88842 0.13646 0.04200
C 	C 	0.59889 0.96102 0.80008 -0.07200
C 	C 	0.58417 0.93236 0.78138 0.03800
C 	C 	0.58854 0.90169 0.81041 -0.06900
C 	C 	0.60554 0.90031 0.86091 0.02600
C 	C 	0.61801 0.92973 0.88300 -0.10100
C 	C 	0.61567 0.95975 0.85082 0.02600
H 	H 	0.59588 0.98477 0.77751 0.05000
H 	H 	0.57748 0.87934 0.79592 0.05300
H 	H 	0.60755 0.87686 0.88483 0.04000
H 	H 	0.62575 0.98244 0.86669 0.02300
C 	C 	0.58479 0.90565 0.28768 -0.07100
C 	C 	0.58090 0.93778 0.31150 0.03700
C 	C 	0.59591 0.96507 0.28799 -0.07300
C 	C 	0.61293 0.96073 0.23803 0.02000
C 	C 	0.61497 0.92902 0.21107 -0.10300
C 	C 	0.60182 0.90123 0.23775 0.02600
H 	H 	0.57355 0.88436 0.30608 0.05200
H 	H 	0.59325 0.98994 0.30659 0.04800
H 	H 	0.62332 0.98233 0.21864 0.01900
H 	H 	0.60388 0.87645 0.21850 0.03800
C 	C 	0.22731 0.02920 0.02340 0.09600
C 	C 	0.24221 0.05377 0.05516 0.08800
N 	N 	0.27052 0.05057 0.06287 -0.08700
C 	C 	0.28463 0.02367 0.04029 -0.03600
C 	C 	0.26963 0.99903 0.00865 0.05000
N 	N 	0.24128 0.00233 0.00084 -0.11400
N 	N 	0.19900 0.03237 0.01574 -0.11400
N 	N 	0.22821 0.08055 0.07800 -0.10400
H 	H 	0.28047 0.97757 0.98999 0.03000
C 	C 	0.18488 0.05907 0.03894 0.04900
C 	C 	0.19982 0.08369 0.07057 0.00200
H 	H 	0.18888 0.10514 0.08904 0.04100
C 	C 	0.39902 0.98014 0.86503 0.02600
C 	C 	0.39486 0.01154 0.89182 -0.10200
C 	C 	0.40534 0.04060 0.86427 0.02600
C 	C 	0.42200 0.03792 0.81337 -0.06900
C 	C 	0.42813 0.00624 0.78959 0.03800
C 	C 	0.41551 0.97753 0.81399 -0.07200
H 	H 	0.39045 0.95763 0.88512 0.02200
H 	H 	0.40197 0.06503 0.88410 0.04000
H 	H 	0.43143 0.06027 0.79443 0.05300
H 	H 	0.41980 0.95298 0.79536 0.05000
C 	C 	0.39304 0.99549 0.25150 0.01800
C 	C 	0.39282 0.02553 0.21874 -0.10100
C 	C 	0.40773 0.05352 0.24013 0.02400
C 	C 	0.42495 0.05047 0.29003 -0.07000
C 	C 	0.42715 0.01959 0.31938 0.03600
C 	C 	0.41019 0.99256 0.30154 -0.07200
H 	H 	0.38112 0.97389 0.23657 0.02300
H 	H 	0.40699 0.07723 0.21665 0.04100
H 	H 	0.43769 0.07162 0.30404 0.05200
H 	H 	0.41154 0.96868 0.32437 0.04900
C 	C 	0.43501 0.19059 0.99645 0.08300
C 	C 	0.41514 0.21674 0.99899 0.09100
N 	N 	0.42381 0.24907 0.99350 -0.11600
C 	C 	0.45164 0.25647 0.98555 0.05000
C 	C 	0.47152 0.23027 0.98289 -0.00100
N 	N 	0.46279 0.19785 0.98831 -0.10700
N 	N 	0.42640 0.15828 0.00341 -0.09000
N 	N 	0.38744 0.20958 0.00806 -0.10900
H 	H 	0.49379 0.23573 0.97746 0.03800
C 	C 	0.39865 0.15104 0.01313 -0.01800
C 	C 	0.37878 0.17728 0.01517 0.04000
H 	H 	0.35660 0.17201 0.02237 0.04800
C 	C 	0.23892 0.53715 0.94490 0.08800
C 	C 	0.25831 0.56271 0.95856 0.09400
N 	N 	0.28638 0.55571 0.96039 -0.11600
C 	C 	0.29590 0.52404 0.94949 0.04800
C 	C 	0.27650 0.49857 0.93534 0.00100
N 	N 	0.24839 0.50564 0.93334 -0.10500
N 	N 	0.21080 0.54399 0.94427 -0.09200
N 	N 	0.24882 0.59411 0.97085 -0.11300
H 	H 	0.28377 0.47333 0.92603 0.04000
C 	C 	0.20119 0.57539 0.95714 -0.01800
C 	C 	0.22066 0.60099 0.97044 0.03800
H 	H 	0.21344 0.62616 0.98034 0.04500
C 	C 	0.73945 0.48931 0.97767 0.08500
C 	C 	0.72867 0.45866 0.95687 0.09500
N 	N 	0.70028 0.45410 0.95310 -0.11700
C 	C 	0.68215 0.47903 0.96935 0.05200
C 	C 	0.69303 0.50981 0.98960 -0.00800
N 	N 	0.72145 0.51426 0.99356 -0.10700
N 	N 	0.76783 0.49394 0.98116 -0.09500
N 	N 	0.74671 0.43388 0.94025 -0.11400
H 	H 	0.67895 0.53016 0.00142 0.04500
C 	C 	0.78600 0.46922 0.96429 -0.03300
C 	C 	0.77516 0.43852 0.94348 0.04400
H 	H 	0.78924 0.41844 0.93033 0.04300
C 	C 	0.56088 0.76554 0.99512 0.07600
C 	C 	0.57748 0.73670 0.00351 0.10500
N 	N 	0.56572 0.70583 0.99718 -0.12100
C 	C 	0.53792 0.70253 0.98277 0.05000
C 	C 	0.52128 0.73143 0.97481 -0.00300
N 	N 	0.53312 0.76236 0.98100 -0.10600
N 	N 	0.57264 0.79643 0.00167 -0.08900
N 	N 	0.60515 0.73986 0.01818 -0.11400
H 	H 	0.49904 0.72925 0.96430 0.03700
C 	C 	0.60038 0.79970 0.01659 -0.02000
C 	C 	0.61695 0.77076 0.02494 0.04000
H 	H 	0.63907 0.77284 0.03653 0.04600
