data_crystal

_cell_length_a 26.26575
_cell_length_b 26.48064
_cell_length_c 26.60294
_cell_angle_alpha 95.49416
_cell_angle_beta  95.49400
_cell_angle_gamma 125.83753

_symmetry_space_group_name_	'P 1'
_symmetry_space_group_name_H-M	'P 1'

loop_
_symmetry_equiv_pos_as_xyz
  x,y,z

loop_
_atom_site_label
_atom_site_type_symbol
_atom_site_fract_x
_atom_site_fract_y
_atom_site_fract_z
_atom_site_charge
C 	C 	0.96606 0.03158 0.98460 0.27700
C 	C 	0.92942 0.96635 0.98482 -0.15900
C 	C 	0.95681 0.93437 0.97976 0.27000
C 	C 	0.02102 0.96772 0.97488 -0.16100
C 	C 	0.05766 0.03278 0.97394 0.27100
C 	C 	0.03000 0.06466 0.97860 -0.15100
H 	H 	0.87975 0.94057 0.98881 0.16300
H 	H 	0.04247 0.94311 0.97187 0.16300
H 	H 	0.05819 0.11498 0.97792 0.16800
C 	C 	0.93735 0.99956 0.45035 0.23500
C 	C 	0.00286 0.03569 0.44904 -0.12900
C 	C 	0.03526 0.00864 0.45376 0.26100
C 	C 	0.00202 0.94520 0.45935 -0.14900
C 	C 	0.93670 0.90902 0.46144 0.25300
C 	C 	0.90436 0.93631 0.45698 -0.12900
H 	H 	0.02861 0.08482 0.44470 0.15900
H 	H 	0.02699 0.92408 0.46230 0.16100
H 	H 	0.85388 0.90853 0.45859 0.16200
Cu	Cu	0.64093 0.24630 0.00776 0.94200
Cu	Cu	0.69231 0.24548 0.90025 0.90200
Cu	Cu	0.67649 0.34386 0.93836 0.91300
Cu	Cu	0.63955 0.36323 0.03761 0.92000
C 	C 	0.66076 0.29913 0.11353 0.31300
O 	O 	0.54728 0.20762 0.00517 -0.29800
C 	C 	0.66092 0.29908 0.82694 0.31600
O 	O 	0.69154 0.34454 0.01035 -0.63300
O 	O 	0.63318 0.25087 0.93379 -0.63300
O 	O 	0.68072 0.20130 0.00759 -0.30200
O 	O 	0.75153 0.26474 0.95919 -0.38300
O 	O 	0.62966 0.32176 0.09844 -0.34000
O 	O 	0.72360 0.43494 0.94790 -0.33100
C 	C 	0.71688 0.46978 0.98157 0.39500
C 	C 	0.52160 0.23308 0.98497 0.37200
O 	O 	0.55864 0.29183 0.97787 -0.34200
O 	O 	0.67471 0.44426 0.01225 -0.31900
O 	O 	0.66141 0.25839 0.08126 -0.31500
C 	C 	0.73433 0.22451 0.99064 0.37700
O 	O 	0.67503 0.34494 0.86399 -0.33500
O 	O 	0.65323 0.24757 0.83717 -0.37400
H 	H 	0.73718 0.37274 0.02724 0.21100
H 	H 	0.58898 0.22402 0.91373 0.20900
Cu	Cu	0.73407 0.33495 0.43751 0.94000
Cu	Cu	0.73029 0.27911 0.54319 0.90200
Cu	Cu	0.63153 0.29479 0.50335 0.91400
Cu	Cu	0.61722 0.33723 0.40581 0.92000
C 	C 	0.68939 0.32503 0.33125 0.31600
O 	O 	0.77370 0.42853 0.44291 -0.30600
C 	C 	0.67320 0.30793 0.61494 0.30800
O 	O 	0.63469 0.28420 0.43176 -0.63700
O 	O 	0.72576 0.33886 0.51070 -0.63100
O 	O 	0.77886 0.29467 0.43750 -0.31300
O 	O 	0.71238 0.22215 0.48342 -0.38600
O 	O 	0.66355 0.35265 0.34703 -0.33800
O 	O 	0.53951 0.24750 0.49094 -0.32600
C 	C 	0.50583 0.25519 0.45666 0.40200
C 	C 	0.74650 0.45290 0.46206 0.37900
O 	O 	0.68686 0.41508 0.46800 -0.34100
O 	O 	0.53347 0.29976 0.42846 -0.32400
O 	O 	0.72508 0.31821 0.36415 -0.31700
C 	C 	0.75402 0.24031 0.45284 0.39500
O 	O 	0.62657 0.29067 0.57679 -0.32800
O 	O 	0.72566 0.31564 0.60620 -0.37400
H 	H 	0.60698 0.23958 0.41329 0.21000
H 	H 	0.75175 0.38208 0.53182 0.20900
C 	C 	0.66329 0.31134 0.66835 -0.07400
C 	C 	0.71187 0.36335 0.70616 -0.04200
C 	C 	0.70900 0.36177 0.75835 0.18800
C 	C 	0.65753 0.30739 0.77306 -0.08100
C 	C 	0.60674 0.25733 0.73518 -0.03600
C 	C 	0.60954 0.25896 0.68300 0.18200
H 	H 	0.75308 0.40412 0.69517 0.10400
O 	O 	0.75886 0.41137 0.79488 -0.25100
H 	H 	0.56625 0.21594 0.74622 0.10300
O 	O 	0.56050 0.20861 0.64645 -0.23100
H 	H 	0.57181 0.17897 0.64115 0.17700
H 	H 	0.74770 0.44092 0.80185 0.20200
C 	C 	0.69331 0.31848 0.27658 -0.07200
C 	C 	0.72463 0.37261 0.25413 -0.03700
C 	C 	0.71756 0.36658 0.20061 0.18800
C 	C 	0.67947 0.30598 0.16912 -0.07200
C 	C 	0.65240 0.25192 0.19176 -0.03400
C 	C 	0.65939 0.25804 0.24540 0.18700
H 	H 	0.75242 0.41939 0.27811 0.12000
O 	O 	0.74805 0.41996 0.17912 -0.24900
H 	H 	0.62342 0.20507 0.16779 0.11700
O 	O 	0.62947 0.20476 0.26700 -0.25000
H 	H 	0.66130 0.19619 0.27377 0.19900
H 	H 	0.71834 0.43155 0.17546 0.18000
C 	C 	0.78825 0.61492 0.50743 0.24000
C 	C 	0.82771 0.64975 0.47329 0.00600
C 	C 	0.84493 0.62140 0.43847 0.23700
C 	C 	0.82034 0.55777 0.43594 0.31700
C 	C 	0.77916 0.52209 0.46908 -0.19900
C 	C 	0.76471 0.55164 0.50579 0.31600
C 	C 	0.85000 0.71555 0.47315 -0.00400
F 	F 	0.88461 0.65529 0.40635 -0.32200
F 	F 	0.72751 0.51889 0.53965 -0.36000
C 	C 	0.89624 0.76456 0.51400 0.25300
C 	C 	0.92174 0.82758 0.51157 0.29700
C 	C 	0.90223 0.84225 0.46775 -0.15700
C 	C 	0.85414 0.79298 0.42781 0.29800
C 	C 	0.82772 0.72987 0.43073 0.25200
F 	F 	0.91775 0.75123 0.55537 -0.31400
F 	F 	0.83476 0.80646 0.38533 -0.34100
F 	F 	0.96667 0.87463 0.55117 -0.33300
F 	F 	0.78164 0.68265 0.39173 -0.32300
F 	F 	0.77190 0.64213 0.54165 -0.31400
F 	F 	0.83450 0.53018 0.39990 -0.35900
C 	C 	0.86814 0.19820 0.44545 0.23600
C 	C 	0.82557 0.13169 0.43547 0.00900
C 	C 	0.75942 0.10118 0.42580 0.23700
C 	C 	0.73594 0.13690 0.42849 0.31900
C 	C 	0.77849 0.20348 0.44112 -0.20800
C 	C 	0.84476 0.23402 0.44826 0.31800
C 	C 	0.85026 0.09412 0.43840 -0.00400
F 	F 	0.71792 0.03687 0.41502 -0.31800
F 	F 	0.88652 0.29826 0.46044 -0.35700
C 	C 	0.86022 0.07837 0.48542 0.25300
C 	C 	0.88684 0.04568 0.48897 0.29500
C 	C 	0.90361 0.02844 0.44550 -0.14600
C 	C 	0.89212 0.04280 0.39815 0.29800
C 	C 	0.86559 0.07558 0.39465 0.25700
F 	F 	0.84509 0.09573 0.52785 -0.32800
F 	F 	0.90750 0.02569 0.35576 -0.32400
F 	F 	0.89785 0.03215 0.53492 -0.33700
F 	F 	0.85554 0.09008 0.34893 -0.31200
F 	F 	0.93222 0.22808 0.45407 -0.32100
F 	F 	0.67181 0.10683 0.41968 -0.35700
C 	C 	0.33251 0.11963 0.45114 0.23900
C 	C 	0.30479 0.15158 0.45354 0.00900
C 	C 	0.34305 0.21754 0.45664 0.24000
C 	C 	0.40871 0.25145 0.45755 0.32500
C 	C 	0.43661 0.21954 0.45524 -0.19800
C 	C 	0.39818 0.15346 0.45203 0.32200
C 	C 	0.23586 0.11610 0.45370 -0.00200
F 	F 	0.31661 0.24880 0.45928 -0.31600
F 	F 	0.42436 0.12197 0.44907 -0.35900
C 	C 	0.21325 0.10248 0.49994 0.25200
C 	C 	0.14776 0.06811 0.50005 0.30100
C 	C 	0.10444 0.04712 0.45391 -0.16200
C 	C 	0.12712 0.06128 0.40773 0.30100
C 	C 	0.19264 0.09566 0.40763 0.25300
F 	F 	0.25480 0.12248 0.54471 -0.31900
F 	F 	0.08555 0.04100 0.36291 -0.33000
F 	F 	0.12628 0.05501 0.54494 -0.33100
F 	F 	0.21417 0.10875 0.36276 -0.31400
F 	F 	0.29572 0.05578 0.44794 -0.31900
F 	F 	0.44550 0.31547 0.46192 -0.34500
C 	C 	0.86368 0.75824 0.93286 0.25200
C 	C 	0.85073 0.73555 0.97906 -0.01000
C 	C 	0.87089 0.77805 0.02528 0.25900
C 	C 	0.90450 0.84295 0.02537 0.31000
C 	C 	0.91819 0.86575 0.97926 -0.17500
C 	C 	0.89731 0.82313 0.93295 0.30300
C 	C 	0.81635 0.66736 0.97910 0.00900
F 	F 	0.85836 0.75641 0.07010 -0.31600
F 	F 	0.90999 0.84476 0.88814 -0.33400
C 	C 	0.84980 0.64113 0.98101 0.23600
C 	C 	0.81723 0.57644 0.98142 0.31900
C 	C 	0.75094 0.53755 0.98004 -0.20000
C 	C 	0.71744 0.56382 0.97765 0.32200
C 	C 	0.75008 0.62850 0.97725 0.23800
F 	F 	0.91395 0.67851 0.98282 -0.32300
F 	F 	0.65310 0.52643 0.97482 -0.34800
F 	F 	0.85021 0.55175 0.98419 -0.36200
F 	F 	0.71734 0.65346 0.97489 -0.31800
F 	F 	0.84386 0.71735 0.88796 -0.32100
F 	F 	0.92468 0.88387 0.07034 -0.33200
C 	C 	0.89294 0.10499 0.04324 0.24900
C 	C 	0.87531 0.12216 0.00032 0.01000
C 	C 	0.88984 0.11187 0.95273 0.23700
C 	C 	0.92069 0.08345 0.94783 0.30700
C 	C 	0.93727 0.06517 0.99051 -0.17700
C 	C 	0.92387 0.07662 0.03837 0.31700
C 	C 	0.83958 0.14878 0.00465 0.01200
F 	F 	0.87309 0.12853 0.91107 -0.32800
F 	F 	0.94041 0.05976 0.07999 -0.32600
C 	C 	0.87205 0.21466 0.01254 0.24000
C 	C 	0.83765 0.23968 0.01079 0.31600
C 	C 	0.77042 0.19892 0.00091 -0.18800
C 	C 	0.73809 0.13304 0.99556 0.30600
C 	C 	0.77260 0.10815 0.99744 0.23200
F 	F 	0.93692 0.25432 0.02066 -0.31700
F 	F 	0.67318 0.09300 0.98599 -0.35700
F 	F 	0.86955 0.30350 0.01790 -0.35200
F 	F 	0.74090 0.04438 0.99048 -0.32200
F 	F 	0.87948 0.11521 0.08948 -0.30900
F 	F 	0.93335 0.07248 0.90140 -0.34100
C 	C 	0.23794 0.14264 0.00866 0.25800
C 	C 	0.25435 0.12209 0.96678 -0.00900
C 	C 	0.20636 0.07639 0.92511 0.25200
C 	C 	0.14226 0.04982 0.92615 0.30200
C 	C 	0.12553 0.06769 0.96939 -0.17100
C 	C 	0.17376 0.11509 0.01022 0.30800
C 	C 	0.32127 0.14578 0.96799 -0.00100
F 	F 	0.22176 0.05655 0.88427 -0.31300
F 	F 	0.15825 0.13276 0.05222 -0.33800
C 	C 	0.34988 0.12931 0.00342 0.24500
C 	C 	0.41476 0.15599 0.00785 0.32500
C 	C 	0.45149 0.19853 0.97600 -0.20500
C 	C 	0.42170 0.21197 0.93842 0.31600
C 	C 	0.35712 0.18638 0.93495 0.24000
F 	F 	0.31498 0.08844 0.03439 -0.31800
F 	F 	0.45545 0.25012 0.90547 -0.36100
F 	F 	0.44244 0.14239 0.04445 -0.35200
F 	F 	0.32962 0.20190 0.90007 -0.31400
F 	F 	0.28419 0.18818 0.04843 -0.31900
F 	F 	0.09618 0.00556 0.88571 -0.33200
