data_crystal

_cell_length_a 18.62751
_cell_length_b 18.89438
_cell_length_c 34.33532
_cell_angle_alpha 95.46839
_cell_angle_beta  95.46862
_cell_angle_gamma 126.40933

_symmetry_space_group_name_	'P 1'
_symmetry_space_group_name_H-M	'P 1'

loop_
_symmetry_equiv_pos_as_xyz
  x,y,z

loop_
_atom_site_label
_atom_site_type_symbol
_atom_site_fract_x
_atom_site_fract_y
_atom_site_fract_z
_atom_site_charge
C 	C 	0.91545 0.01100 0.97744 0.01900
C 	C 	0.86579 0.91758 0.97370 -0.04400
C 	C 	0.91014 0.87823 0.96968 0.02700
C 	C 	0.00285 0.93201 0.96812 -0.04300
C 	C 	0.05267 0.02516 0.97275 0.02100
C 	C 	0.00920 0.06456 0.97827 -0.05000
H 	H 	0.79360 0.87603 0.97392 0.05900
H 	H 	0.03641 0.90146 0.96373 0.05900
H 	H 	0.04789 0.13671 0.98219 0.05900
C 	C 	0.94023 0.02178 0.49118 0.02000
C 	C 	0.89017 0.93152 0.49441 -0.04600
C 	C 	0.93156 0.88942 0.49458 0.02700
C 	C 	0.02358 0.93805 0.49243 -0.04500
C 	C 	0.07490 0.02933 0.49106 0.02200
C 	C 	0.03305 0.07118 0.49001 -0.05100
H 	H 	0.81865 0.89363 0.49583 0.05900
H 	H 	0.05575 0.90546 0.49277 0.05800
H 	H 	0.07235 0.14156 0.48828 0.05800
Cu	Cu	0.76022 0.34970 0.96085 0.92900
Cu	Cu	0.73557 0.28652 0.04716 0.87700
Cu	Cu	0.61966 0.32720 0.00710 0.89900
Cu	Cu	0.58336 0.32358 0.91957 0.90400
C 	C 	0.70093 0.30298 0.87578 0.28900
O 	O 	0.80207 0.47517 0.95414 -0.34800
C 	C 	0.66207 0.35398 0.09447 0.28000
O 	O 	0.61860 0.27501 0.95501 -0.63300
O 	O 	0.74809 0.37207 0.01600 -0.64400
O 	O 	0.82494 0.29663 0.97214 -0.35600
O 	O 	0.71879 0.20024 0.00625 -0.42800
O 	O 	0.66152 0.34156 0.88013 -0.37400
O 	O 	0.49704 0.29349 0.99695 -0.36600
C 	C 	0.43509 0.24229 0.96440 0.29300
C 	C 	0.75486 0.50481 0.96209 0.27700
O 	O 	0.66754 0.44801 0.96268 -0.38500
O 	O 	0.45768 0.24655 0.92901 -0.38100
O 	O 	0.75287 0.30770 0.90637 -0.35100
C 	C 	0.78416 0.22222 0.98659 0.29200
O 	O 	0.62294 0.36319 0.06319 -0.36100
O 	O 	0.72914 0.34861 0.09245 -0.40200
H 	H 	0.58136 0.20884 0.94991 0.16700
H 	H 	0.79127 0.43532 0.02992 0.18300
Cu	Cu	0.60835 0.18543 0.50267 0.93000
Cu	Cu	0.66126 0.19522 0.41373 0.87900
Cu	Cu	0.66675 0.33945 0.45918 0.90200
Cu	Cu	0.63454 0.35831 0.54186 0.90000
C 	C 	0.65185 0.24144 0.58781 0.28600
O 	O 	0.48146 0.14282 0.50783 -0.35500
C 	C 	0.61968 0.29152 0.37078 0.28700
O 	O 	0.69343 0.32599 0.51183 -0.64000
O 	O 	0.59140 0.20617 0.44831 -0.64100
O 	O 	0.65514 0.11610 0.49088 -0.36500
O 	O 	0.75072 0.21242 0.45344 -0.43000
O 	O 	0.61782 0.28540 0.58344 -0.37000
O 	O 	0.74652 0.46772 0.47316 -0.37900
C 	C 	0.73900 0.51534 0.50076 0.29800
C 	C 	0.45317 0.18964 0.49878 0.28800
O 	O 	0.51216 0.27424 0.49678 -0.38500
O 	O 	0.69466 0.48118 0.52999 -0.38000
O 	O 	0.64385 0.18748 0.55729 -0.34900
C 	C 	0.72872 0.15170 0.47538 0.29500
O 	O 	0.65902 0.35477 0.40319 -0.37400
O 	O 	0.60235 0.21329 0.37183 -0.40600
H 	H 	0.75890 0.35855 0.52245 0.17400
H 	H 	0.52770 0.17605 0.43537 0.18400
C 	C 	0.71017 0.28036 0.83550 -0.06000
C 	C 	0.78290 0.34609 0.81946 0.01400
C 	C 	0.78221 0.33325 0.77865 -0.04600
C 	C 	0.70915 0.25230 0.75316 0.01100
C 	C 	0.63642 0.18511 0.76982 0.01500
C 	C 	0.63876 0.19888 0.81100 -0.01500
C 	C 	0.55888 0.10820 0.74484 -0.03600
C 	C 	0.54885 0.10066 0.70358 -0.03500
C 	C 	0.61831 0.16758 0.68647 0.01500
C 	C 	0.70193 0.24019 0.71093 0.00900
C 	C 	0.77500 0.29941 0.69246 -0.04500
C 	C 	0.75964 0.29694 0.65153 0.00600
C 	C 	0.67338 0.23177 0.62818 -0.05800
C 	C 	0.60431 0.16431 0.64522 -0.01000
H 	H 	0.83765 0.40974 0.83830 0.04800
H 	H 	0.83520 0.38882 0.76694 0.05100
H 	H 	0.58229 0.14833 0.82358 0.03800
H 	H 	0.50402 0.05602 0.75750 0.04600
H 	H 	0.48622 0.04309 0.68485 0.04800
H 	H 	0.84377 0.34497 0.70911 0.05000
H 	H 	0.81461 0.34653 0.63806 0.03700
H 	H 	0.53850 0.11189 0.62671 0.05300
C 	C 	0.64190 0.36595 0.13379 -0.06100
C 	C 	0.55470 0.30397 0.14150 0.00100
C 	C 	0.54037 0.30065 0.18075 -0.04600
C 	C 	0.61448 0.35766 0.21279 0.00700
C 	C 	0.69850 0.42930 0.20455 0.01400
C 	C 	0.71239 0.43191 0.16507 -0.01400
C 	C 	0.76825 0.49595 0.23584 -0.03700
C 	C 	0.75784 0.48872 0.27528 -0.03600
C 	C 	0.68025 0.41171 0.28412 0.01400
C 	C 	0.60769 0.34461 0.25287 0.00900
C 	C 	0.53599 0.26247 0.26199 -0.04800
C 	C 	0.53678 0.24800 0.30113 0.00700
C 	C 	0.60914 0.31403 0.33176 -0.06500
C 	C 	0.67822 0.39737 0.32351 -0.01500
H 	H 	0.49856 0.25645 0.11717 0.04400
H 	H 	0.47173 0.25607 0.18588 0.04900
H 	H 	0.77868 0.48299 0.15882 0.05000
H 	H 	0.83117 0.55314 0.22963 0.04800
H 	H 	0.81267 0.54086 0.29909 0.04800
H 	H 	0.48304 0.20735 0.23876 0.04800
H 	H 	0.48285 0.18361 0.30735 0.04400
H 	H 	0.73418 0.44856 0.34726 0.05100
C 	C 	0.78484 0.61087 0.49994 -0.07900
C 	C 	0.76677 0.63648 0.46524 0.02200
C 	C 	0.81558 0.72779 0.46332 -0.03900
C 	C 	0.87820 0.79362 0.49695 0.01500
C 	C 	0.89211 0.76800 0.53245 -0.03900
C 	C 	0.84807 0.67689 0.53351 0.02200
C 	C 	0.69664 0.56888 0.43185 0.08200
C 	C 	0.95128 0.83549 0.56794 0.09900
C 	C 	0.87027 0.65127 0.56854 0.08100
C 	C 	0.80266 0.75413 0.42653 0.09700
N 	N 	0.88801 0.63086 0.59648 -0.11100
N 	N 	0.79237 0.77513 0.39718 -0.10500
N 	N 	0.99844 0.88933 0.59625 -0.10200
N 	N 	0.64073 0.51507 0.40520 -0.10400
C 	C 	0.78267 0.11827 0.47969 -0.08500
C 	C 	0.83434 0.13587 0.51714 0.02300
C 	C 	0.88901 0.10725 0.52072 -0.04100
C 	C 	0.89362 0.06292 0.48675 0.01500
C 	C 	0.84566 0.04949 0.44905 -0.03700
C 	C 	0.78806 0.07458 0.44569 0.02000
C 	C 	0.83312 0.18536 0.55171 0.08200
C 	C 	0.85610 0.01020 0.41372 0.08600
C 	C 	0.73282 0.05379 0.40739 0.05700
C 	C 	0.94033 0.12307 0.55933 0.09600
N 	N 	0.68876 0.03722 0.37685 -0.13000
N 	N 	0.98134 0.13562 0.59010 -0.10700
N 	N 	0.86458 0.97897 0.38556 -0.09400
N 	N 	0.83248 0.22497 0.57936 -0.10800
C 	C 	0.35692 0.15132 0.49675 -0.08100
C 	C 	0.30146 0.12939 0.45978 0.02000
C 	C 	0.20975 0.09409 0.45805 -0.04000
C 	C 	0.17399 0.08203 0.49332 0.01500
C 	C 	0.23120 0.11003 0.53047 -0.04000
C 	C 	0.32185 0.14224 0.53215 0.02000
C 	C 	0.33854 0.14240 0.42356 0.07200
C 	C 	0.19649 0.10566 0.56696 0.09800
C 	C 	0.37895 0.16571 0.57027 0.07800
C 	C 	0.15181 0.06925 0.42001 0.09500
N 	N 	0.42420 0.18423 0.60074 -0.10500
N 	N 	0.10547 0.04939 0.38969 -0.10800
N 	N 	0.16875 0.10224 0.59604 -0.10300
N 	N 	0.36806 0.15281 0.39464 -0.11500
C 	C 	0.79641 0.60101 0.96425 -0.07000
C 	C 	0.80636 0.63599 0.92890 0.01800
C 	C 	0.83593 0.72464 0.93036 -0.03800
C 	C 	0.85998 0.78014 0.96733 0.01700
C 	C 	0.84904 0.74490 0.00264 -0.03900
C 	C 	0.81671 0.65527 0.00108 0.01500
C 	C 	0.78616 0.58078 0.89101 0.08200
C 	C 	0.87252 0.80136 0.04064 0.09900
C 	C 	0.80503 0.61913 0.03737 0.07400
C 	C 	0.84190 0.75902 0.89382 0.09800
N 	N 	0.79568 0.59029 0.06633 -0.11200
N 	N 	0.84672 0.78659 0.86471 -0.10400
N 	N 	0.89132 0.84655 0.07093 -0.10300
N 	N 	0.77018 0.53688 0.86075 -0.10400
C 	C 	0.81699 0.16717 0.98401 -0.07900
C 	C 	0.80627 0.11982 0.94677 0.02000
C 	C 	0.83329 0.06386 0.94474 -0.03600
C 	C 	0.86954 0.05380 0.97995 0.01700
C 	C 	0.87555 0.09722 0.01725 -0.04200
C 	C 	0.85183 0.15574 0.01926 0.01800
C 	C 	0.76586 0.12714 0.91064 0.08500
C 	C 	0.90706 0.08225 0.05356 0.09500
C 	C 	0.86549 0.20600 0.05753 0.05600
C 	C 	0.82498 0.01756 0.90639 0.08700
N 	N 	0.87639 0.24610 0.08806 -0.13100
N 	N 	0.81845 0.98056 0.87583 -0.09400
N 	N 	0.93223 0.07022 0.08250 -0.10900
N 	N 	0.73354 0.13269 0.88174 -0.10500
C 	C 	0.15088 0.08184 0.97099 0.02000
C 	C 	0.18235 0.13123 0.94015 -0.04200
C 	C 	0.27611 0.18956 0.94006 0.02300
C 	C 	0.33753 0.18857 0.96717 -0.07900
C 	C 	0.30521 0.13521 0.99674 0.02600
C 	C 	0.21319 0.08663 0.00015 -0.04700
C 	C 	0.11811 0.12038 0.90801 0.09800
C 	C 	0.36563 0.12743 0.02257 0.06900
C 	C 	0.18296 0.04310 0.03404 0.09500
C 	C 	0.30957 0.25365 0.91356 0.08600
N 	N 	0.15873 0.00834 0.06106 -0.11200
N 	N 	0.33617 0.30478 0.89242 -0.10800
N 	N 	0.41379 0.12114 0.04315 -0.12700
N 	N 	0.06679 0.11166 0.88240 -0.10600
