data_crystal

_cell_length_a 26.73611
_cell_length_b 27.00195
_cell_length_c 43.33033
_cell_angle_alpha 95.51873
_cell_angle_beta  95.51781
_cell_angle_gamma 125.91108

_symmetry_space_group_name_	'P 1'
_symmetry_space_group_name_H-M	'P 1'

loop_
_symmetry_equiv_pos_as_xyz
  x,y,z

loop_
_atom_site_label
_atom_site_type_symbol
_atom_site_fract_x
_atom_site_fract_y
_atom_site_fract_z
_atom_site_charge
C 	C 	0.95003 0.01349 0.97929 0.05800
C 	C 	0.03444 0.00493 0.97343 0.06000
C 	C 	0.01194 0.04063 0.97511 -0.10000
H 	H 	0.04232 0.08916 0.97292 0.05300
C 	C 	0.94972 0.01360 0.47832 0.05800
C 	C 	0.05083 0.03364 0.47676 0.06000
C 	C 	0.01368 0.05458 0.47644 -0.09800
H 	H 	0.03477 0.10287 0.47532 0.05300
Cu	Cu	0.61904 0.22929 0.00076 0.92700
Cu	Cu	0.66457 0.21983 0.93407 0.86900
Cu	Cu	0.66695 0.32803 0.95921 0.89700
Cu	Cu	0.63450 0.35324 0.02029 0.89300
C 	C 	0.64177 0.28115 0.06618 0.28600
O 	O 	0.52993 0.20178 0.99953 -0.36800
C 	C 	0.64250 0.28065 0.89056 0.28700
O 	O 	0.67859 0.32625 0.00323 -0.64200
O 	O 	0.61384 0.23545 0.95560 -0.64100
O 	O 	0.64823 0.17617 0.99982 -0.38100
O 	O 	0.72056 0.23233 0.96970 -0.44600
O 	O 	0.61835 0.31030 0.05727 -0.38700
O 	O 	0.72255 0.41806 0.96592 -0.38900
C 	C 	0.72120 0.45577 0.98705 0.31100
C 	C 	0.51125 0.23225 0.98710 0.30300
O 	O 	0.55298 0.28929 0.98317 -0.39900
O 	O 	0.67831 0.43422 0.00526 -0.40300
O 	O 	0.63842 0.23923 0.04568 -0.36400
C 	C 	0.69980 0.19345 0.98946 0.30800
O 	O 	0.66921 0.32926 0.91383 -0.38900
O 	O 	0.62984 0.22744 0.89587 -0.42100
H 	H 	0.72304 0.34954 0.01379 0.16200
H 	H 	0.57074 0.21377 0.94345 0.17100
Cu	Cu	0.74881 0.35807 0.46386 0.92800
Cu	Cu	0.75830 0.31523 0.53129 0.87000
Cu	Cu	0.64969 0.31306 0.50572 0.89700
Cu	Cu	0.62382 0.34309 0.44395 0.89300
C 	C 	0.69583 0.33362 0.39829 0.28600
O 	O 	0.77732 0.44644 0.46420 -0.36800
C 	C 	0.69803 0.33917 0.57452 0.28700
O 	O 	0.65097 0.29989 0.46170 -0.64000
O 	O 	0.74310 0.36514 0.50908 -0.64100
O 	O 	0.80104 0.32741 0.46530 -0.38100
O 	O 	0.74349 0.25784 0.49610 -0.44700
O 	O 	0.66664 0.35730 0.40685 -0.38600
O 	O 	0.55881 0.25822 0.49927 -0.38900
C 	C 	0.52073 0.25830 0.47749 0.30900
C 	C 	0.74655 0.46558 0.47600 0.30300
O 	O 	0.68920 0.42476 0.48041 -0.39900
O 	O 	0.54252 0.30095 0.45940 -0.40100
O 	O 	0.73816 0.33726 0.41898 -0.36300
C 	C 	0.78244 0.27653 0.47620 0.30800
O 	O 	0.64886 0.31281 0.55129 -0.38900
O 	O 	0.75165 0.35157 0.56912 -0.42200
H 	H 	0.62721 0.25561 0.45154 0.16200
H 	H 	0.76528 0.40814 0.52085 0.17200
C 	C 	0.63485 0.28878 0.85757 -0.09000
C 	C 	0.63310 0.33776 0.85092 0.01400
C 	C 	0.63137 0.34858 0.82002 -0.06700
C 	C 	0.63117 0.31049 0.79550 0.02600
C 	C 	0.63085 0.26039 0.80195 -0.06800
C 	C 	0.63254 0.24947 0.83276 0.01200
C 	C 	0.63532 0.32521 0.76348 -0.00100
C 	C 	0.58919 0.28040 0.73752 -0.03900
C 	C 	0.59835 0.28993 0.70679 -0.03900
C 	C 	0.65357 0.34452 0.70175 -0.00100
C 	C 	0.69775 0.39106 0.72770 -0.03900
C 	C 	0.68875 0.38138 0.75844 -0.03900
C 	C 	0.66838 0.34971 0.66972 0.02600
C 	C 	0.62805 0.34689 0.64514 -0.06700
C 	C 	0.63887 0.34564 0.61421 0.01300
C 	C 	0.69008 0.34697 0.60756 -0.09000
C 	C 	0.73172 0.35222 0.63246 0.01200
C 	C 	0.72080 0.35342 0.66330 -0.06800
H 	H 	0.63375 0.36781 0.86967 0.03400
H 	H 	0.63104 0.38704 0.81522 0.04500
H 	H 	0.63088 0.23082 0.78319 0.04300
H 	H 	0.63380 0.21149 0.83743 0.02600
H 	H 	0.54738 0.23723 0.74117 0.03700
H 	H 	0.56378 0.25385 0.68692 0.03700
H 	H 	0.74013 0.43372 0.72406 0.03700
H 	H 	0.72447 0.41643 0.77831 0.03700
H 	H 	0.58781 0.34467 0.64993 0.04500
H 	H 	0.60702 0.34283 0.59542 0.03500
H 	H 	0.77156 0.35356 0.62783 0.02600
H 	H 	0.75217 0.35554 0.68211 0.04300
C 	C 	0.65763 0.28440 0.10039 -0.08500
C 	C 	0.65959 0.23792 0.11116 0.01300
C 	C 	0.67059 0.23920 0.14356 -0.06600
C 	C 	0.67965 0.28678 0.16551 0.02500
C 	C 	0.67949 0.33412 0.15480 -0.06600
C 	C 	0.66900 0.33321 0.12247 0.01100
C 	C 	0.68629 0.28556 0.19962 -0.00000
C 	C 	0.63809 0.23470 0.21108 -0.03900
C 	C 	0.64081 0.23667 0.24360 -0.03900
C 	C 	0.69142 0.28978 0.26496 -0.00000
C 	C 	0.74089 0.33954 0.25349 -0.03900
C 	C 	0.73849 0.33730 0.22098 -0.03900
C 	C 	0.69008 0.29550 0.29908 0.02600
C 	C 	0.74020 0.30824 0.32104 -0.06600
C 	C 	0.74146 0.31906 0.35344 0.01300
C 	C 	0.69241 0.31708 0.36419 -0.08500
C 	C 	0.64107 0.30180 0.34213 0.01100
C 	C 	0.64014 0.29149 0.30979 -0.06600
H 	H 	0.65155 0.20026 0.09453 0.04000
H 	H 	0.67129 0.20279 0.15159 0.04500
H 	H 	0.68647 0.37109 0.17155 0.04400
H 	H 	0.66901 0.37010 0.11461 0.02500
H 	H 	0.59767 0.19447 0.19482 0.03800
H 	H 	0.60278 0.19768 0.25220 0.03700
H 	H 	0.78025 0.38069 0.26976 0.03800
H 	H 	0.77633 0.37645 0.21238 0.03700
H 	H 	0.77865 0.31075 0.31301 0.04500
H 	H 	0.78117 0.33027 0.37008 0.04000
H 	H 	0.60227 0.29877 0.35002 0.02400
H 	H 	0.60118 0.28160 0.29304 0.04400
C 	C 	0.77402 0.53227 0.48203 -0.15200
H 	H 	0.75279 0.54756 0.49654 0.07300
C 	C 	0.82799 0.16620 0.47598 -0.00100
C 	C 	0.85609 0.15834 0.50215 -0.03700
C 	C 	0.88457 0.12895 0.49785 -0.05000
C 	C 	0.88372 0.10551 0.46723 0.02400
C 	C 	0.85589 0.11369 0.44103 -0.05100
C 	C 	0.82775 0.14352 0.44536 -0.03500
C 	C 	0.91613 0.07668 0.46243 -0.04300
C 	C 	0.91145 0.03665 0.48042 -0.06300
C 	C 	0.79508 0.19428 0.48093 0.00700
C 	C 	0.80867 0.24292 0.46768 -0.15900
H 	H 	0.85631 0.17549 0.52586 0.03000
H 	H 	0.90788 0.12503 0.51830 0.03900
H 	H 	0.85573 0.09660 0.41732 0.03900
H 	H 	0.80522 0.14838 0.42496 0.03700
H 	H 	0.94322 0.08751 0.44366 0.03800
H 	H 	0.87863 0.02021 0.49664 0.04300
H 	H 	0.76368 0.17860 0.49783 0.02600
H 	H 	0.84167 0.25982 0.45156 0.07800
C 	C 	0.34354 0.17656 0.45736 0.00100
C 	C 	0.32192 0.17300 0.48597 -0.03500
C 	C 	0.25745 0.13548 0.48609 -0.05000
C 	C 	0.21389 0.10251 0.45752 0.02400
C 	C 	0.23553 0.10654 0.42897 -0.05000
C 	C 	0.30005 0.14384 0.42887 -0.03600
C 	C 	0.14571 0.06006 0.45749 -0.04300
C 	C 	0.11832 0.07750 0.47546 -0.06300
C 	C 	0.41160 0.21717 0.45689 0.00800
C 	C 	0.45254 0.21654 0.47719 -0.15100
H 	H 	0.35501 0.19940 0.50806 0.03800
H 	H 	0.24141 0.13155 0.50837 0.04000
H 	H 	0.20234 0.08081 0.40685 0.03900
H 	H 	0.31624 0.14690 0.40666 0.03400
H 	H 	0.11725 0.01482 0.44183 0.03800
H 	H 	0.14535 0.12501 0.48851 0.04400
H 	H 	0.42787 0.24576 0.43888 0.03300
H 	H 	0.43550 0.18494 0.49384 0.07600
C 	C 	0.86254 0.08172 0.99786 0.02400
C 	C 	0.79760 0.04923 0.99611 -0.05200
C 	C 	0.77024 0.07990 0.99275 -0.03600
C 	C 	0.80797 0.14390 0.99195 -0.00000
C 	C 	0.87319 0.17669 0.99460 -0.03700
C 	C 	0.90044 0.14588 0.99775 -0.05000
C 	C 	0.77897 0.17528 0.98472 0.00600
C 	C 	0.73222 0.16638 0.99876 -0.15600
C 	C 	0.89058 0.04826 0.99988 -0.04100
C 	C 	0.92556 0.05046 0.97894 -0.06400
H 	H 	0.76807 0.99982 0.99646 0.04000
H 	H 	0.71965 0.05359 0.98990 0.03400
H 	H 	0.90269 0.22593 0.99384 0.03400
H 	H 	0.95087 0.17173 0.99983 0.03900
H 	H 	0.79703 0.20696 0.96813 0.02600
H 	H 	0.71633 0.13716 0.01652 0.07600
H 	H 	0.93752 0.08092 0.96184 0.04300
C 	C 	0.33681 0.13920 0.99068 0.00100
C 	C 	0.28696 0.07555 0.98587 -0.03600
C 	C 	0.22536 0.05587 0.98499 -0.04900
C 	C 	0.21300 0.09982 0.98886 0.02300
C 	C 	0.26292 0.16350 0.99402 -0.05000
C 	C 	0.32455 0.18318 0.99496 -0.03500
C 	C 	0.14867 0.07961 0.99030 -0.04000
C 	C 	0.09912 0.03275 0.96864 -0.06500
C 	C 	0.40223 0.15965 0.99418 0.01000
C 	C 	0.44387 0.20451 0.97961 -0.15400
H 	H 	0.29603 0.04132 0.98318 0.03600
H 	H 	0.18746 0.00661 0.98203 0.03900
H 	H 	0.25406 0.19778 0.99764 0.03900
H 	H 	0.36286 0.23255 0.99974 0.03600
H 	H 	0.14171 0.10295 0.00938 0.03700
H 	H 	0.10622 0.01032 0.94917 0.04400
H 	H 	0.41636 0.13784 0.00887 0.03700
H 	H 	0.42893 0.22461 0.96404 0.07300
C 	C 	0.91039 0.95014 0.98139 -0.09800
C 	C 	0.93324 0.91482 0.98038 0.06100
C 	C 	0.99478 0.94196 0.97557 -0.09900
H 	H 	0.86188 0.92832 0.98357 0.05300
H 	H 	0.01184 0.91414 0.97357 0.05400
C 	C 	0.92368 0.95197 0.48138 -0.09800
C 	C 	0.96115 0.93123 0.48229 0.06100
C 	C 	0.02476 0.97233 0.48044 -0.09800
H 	H 	0.87481 0.92066 0.48363 0.05400
H 	H 	0.05405 0.95677 0.48215 0.05400
C 	C 	0.86696 0.75451 0.46717 0.02400
C 	C 	0.86335 0.73266 0.49565 -0.04900
C 	C 	0.84854 0.67365 0.49565 -0.03600
C 	C 	0.83537 0.63518 0.46707 0.00200
C 	C 	0.83867 0.65694 0.43867 -0.03600
C 	C 	0.85381 0.71607 0.43869 -0.04900
C 	C 	0.81849 0.57216 0.46663 0.00700
C 	C 	0.88459 0.81765 0.46692 -0.04200
C 	C 	0.93513 0.86743 0.48695 -0.06400
H 	H 	0.87211 0.76138 0.51774 0.04000
H 	H 	0.84740 0.65790 0.51782 0.03600
H 	H 	0.82891 0.62778 0.41653 0.03700
H 	H 	0.85610 0.73232 0.41658 0.03900
H 	H 	0.83725 0.55600 0.45072 0.03900
H 	H 	0.86047 0.82429 0.44799 0.03900
H 	H 	0.96207 0.86114 0.50439 0.04400
C 	C 	0.87263 0.75813 0.00339 0.02400
C 	C 	0.90026 0.72721 0.00271 -0.05000
C 	C 	0.86440 0.66378 0.00381 -0.03600
C 	C 	0.80042 0.63064 0.00552 0.00200
C 	C 	0.77326 0.66197 0.00714 -0.03700
C 	C 	0.80917 0.72545 0.00612 -0.05000
C 	C 	0.76235 0.56385 0.00732 0.00500
C 	C 	0.76229 0.52313 0.98676 -0.14800
C 	C 	0.91141 0.82545 0.00286 -0.04500
C 	C 	0.89162 0.84854 0.98305 -0.06100
H 	H 	0.94952 0.75233 0.00130 0.03800
H 	H 	0.88647 0.64059 0.00367 0.03500
H 	H 	0.72431 0.63711 0.00916 0.03500
H 	H 	0.78789 0.74932 0.00778 0.03900
H 	H 	0.73113 0.54738 0.02430 0.03300
H 	H 	0.79213 0.53960 0.96916 0.07700
H 	H 	0.95856 0.85573 0.01711 0.03900
H 	H 	0.84433 0.81863 0.96899 0.04400
H 	H 	0.87909 0.01838 0.01724 0.03600
