data_crystal

_cell_length_a 30.63128
_cell_length_b 31.29553
_cell_length_c 34.95092
_cell_angle_alpha 95.52763
_cell_angle_beta  95.52702
_cell_angle_gamma 125.56061

_symmetry_space_group_name_	'P 1'
_symmetry_space_group_name_H-M	'P 1'

loop_
_symmetry_equiv_pos_as_xyz
  x,y,z

loop_
_atom_site_label
_atom_site_type_symbol
_atom_site_fract_x
_atom_site_fract_y
_atom_site_fract_z
_atom_site_charge
C 	C 	0.96670 0.02319 0.99680 0.03400
C 	C 	0.93600 0.96794 0.99605 -0.07900
C 	C 	0.96083 0.94199 0.99328 0.03400
C 	C 	0.01656 0.97143 0.99176 -0.08000
C 	C 	0.04741 0.02663 0.99263 0.03200
C 	C 	0.02246 0.05249 0.99512 -0.08000
H 	H 	0.89285 0.94518 0.99718 0.05000
H 	H 	0.03580 0.95137 0.98965 0.05100
H 	H 	0.04620 0.09513 0.99545 0.05100
C 	C 	0.94044 0.99277 0.44493 0.03100
C 	C 	0.91138 0.93810 0.44630 -0.07600
C 	C 	0.93896 0.91476 0.44905 0.03000
C 	C 	0.99559 0.94619 0.45064 -0.07200
C 	C 	0.02476 0.00080 0.44947 0.02700
C 	C 	0.99715 0.02402 0.44660 -0.07300
H 	H 	0.86756 0.91380 0.44494 0.05000
H 	H 	0.01689 0.92816 0.45273 0.04900
H 	H 	0.01976 0.06636 0.44600 0.04800
Cu	Cu	0.64537 0.25610 0.99515 0.92800
Cu	Cu	0.68866 0.25957 0.91262 0.86900
Cu	Cu	0.67440 0.34083 0.94505 0.89600
Cu	Cu	0.64373 0.35366 0.02203 0.89200
C 	C 	0.66205 0.29584 0.07696 0.28800
O 	O 	0.56549 0.22301 0.99458 -0.36500
C 	C 	0.65758 0.30499 0.85944 0.28700
O 	O 	0.68807 0.33913 0.99929 -0.63900
O 	O 	0.63786 0.26229 0.93950 -0.64200
O 	O 	0.68003 0.21866 0.99228 -0.37600
O 	O 	0.74026 0.27486 0.95657 -0.44200
O 	O 	0.63653 0.31688 0.06728 -0.38600
O 	O 	0.71429 0.41768 0.95414 -0.38500
C 	C 	0.70970 0.44610 0.98176 0.29300
C 	C 	0.54289 0.24478 0.98061 0.28400
O 	O 	0.57403 0.29487 0.97634 -0.39300
O 	O 	0.67309 0.42307 0.00453 -0.39700
O 	O 	0.66387 0.26394 0.05055 -0.36500
C 	C 	0.72647 0.24023 0.97990 0.29000
O 	O 	0.67285 0.34393 0.88876 -0.38800
O 	O 	0.65399 0.26222 0.86559 -0.42200
H 	H 	0.72716 0.36255 0.01191 0.16100
H 	H 	0.59997 0.23998 0.92443 0.17300
Cu	Cu	0.72963 0.33373 0.44511 0.92700
Cu	Cu	0.72914 0.29340 0.52840 0.86900
Cu	Cu	0.64275 0.30273 0.49545 0.89600
Cu	Cu	0.62698 0.33116 0.41840 0.89300
C 	C 	0.68755 0.31592 0.36333 0.28700
O 	O 	0.76107 0.41156 0.44538 -0.36400
C 	C 	0.68106 0.32228 0.58105 0.28700
O 	O 	0.64455 0.28972 0.44121 -0.64100
O 	O 	0.72342 0.34103 0.50080 -0.64200
O 	O 	0.76937 0.30098 0.44796 -0.37500
O 	O 	0.71386 0.24248 0.48488 -0.44200
O 	O 	0.66472 0.33952 0.37308 -0.38500
O 	O 	0.56395 0.26119 0.48661 -0.38500
C 	C 	0.53358 0.26443 0.45922 0.29000
C 	C 	0.73715 0.43223 0.45878 0.28300
O 	O 	0.68632 0.40043 0.46362 -0.39300
O 	O 	0.55570 0.30009 0.43615 -0.39500
O 	O 	0.72144 0.31564 0.38962 -0.36200
C 	C 	0.74851 0.25600 0.46095 0.28900
O 	O 	0.64007 0.30403 0.55175 -0.38900
O 	O 	0.72553 0.32716 0.57513 -0.42200
H 	H 	0.62158 0.25142 0.42875 0.16300
H 	H 	0.74513 0.37822 0.51553 0.17200
C 	C 	0.67843 0.37043 0.77085 -0.06400
C 	C 	0.65106 0.32570 0.74042 0.01800
C 	C 	0.62024 0.27413 0.74922 -0.06400
C 	C 	0.61953 0.26736 0.78814 0.01000
C 	C 	0.65014 0.31211 0.81873 -0.08900
C 	C 	0.67805 0.36371 0.80984 0.01000
C 	C 	0.65933 0.33269 0.69988 0.01800
H 	H 	0.59857 0.23930 0.72595 0.04200
H 	H 	0.59658 0.22732 0.79452 0.03000
H 	H 	0.70128 0.39864 0.83307 0.03600
H 	H 	0.70156 0.41041 0.76434 0.04400
C 	C 	0.61419 0.30792 0.66921 -0.06300
C 	C 	0.62143 0.30685 0.63032 0.01000
C 	C 	0.67401 0.33072 0.62173 -0.08900
C 	C 	0.71947 0.35879 0.65254 0.01000
C 	C 	0.71212 0.35946 0.69138 -0.06400
H 	H 	0.57335 0.28795 0.67549 0.04400
H 	H 	0.58598 0.28579 0.60696 0.03700
H 	H 	0.76039 0.37876 0.64644 0.03000
H 	H 	0.74731 0.37909 0.71483 0.04200
C 	C 	0.66543 0.24847 0.17172 -0.06300
C 	C 	0.68801 0.29532 0.19912 0.01900
C 	C 	0.70667 0.34330 0.18620 -0.06300
C 	C 	0.70036 0.34391 0.14617 0.01100
C 	C 	0.67562 0.29660 0.11870 -0.08500
C 	C 	0.65946 0.24913 0.13164 0.01500
C 	C 	0.68705 0.29315 0.24095 0.01900
H 	H 	0.72433 0.37970 0.20718 0.04500
H 	H 	0.71351 0.38088 0.13650 0.02100
H 	H 	0.64036 0.21234 0.11073 0.03700
H 	H 	0.65111 0.21129 0.18147 0.04500
C 	C 	0.63764 0.27040 0.25440 -0.06300
C 	C 	0.63753 0.27544 0.29454 0.01100
C 	C 	0.68679 0.30299 0.32158 -0.08400
C 	C 	0.73591 0.32317 0.30808 0.01600
C 	C 	0.73604 0.31846 0.26789 -0.06300
H 	H 	0.59959 0.25056 0.23377 0.04500
H 	H 	0.59935 0.25928 0.30464 0.02000
H 	H 	0.77421 0.34448 0.32867 0.03800
H 	H 	0.77435 0.33591 0.25773 0.04600
C 	C 	0.90866 0.85727 0.45002 -0.00500
C 	C 	0.90414 0.82252 0.41866 -0.03300
C 	C 	0.88166 0.76948 0.42152 -0.04600
C 	C 	0.86356 0.75082 0.45573 0.01900
C 	C 	0.86641 0.78496 0.48661 -0.04700
C 	C 	0.88887 0.83806 0.48377 -0.03400
C 	C 	0.84393 0.69724 0.45960 -0.01500
C 	C 	0.82767 0.65225 0.46221 -0.02700
C 	C 	0.80842 0.59836 0.46454 0.04000
C 	C 	0.76643 0.56782 0.48506 -0.07100
C 	C 	0.74478 0.51417 0.48470 0.01300
C 	C 	0.76478 0.49052 0.46354 -0.09100
C 	C 	0.80841 0.52198 0.44429 0.01500
C 	C 	0.83001 0.57561 0.44476 -0.07100
H 	H 	0.91920 0.83695 0.39246 0.03700
H 	H 	0.87926 0.74321 0.39742 0.04100
H 	H 	0.85219 0.77072 0.51307 0.04100
H 	H 	0.89224 0.86460 0.50815 0.03600
H 	H 	0.74990 0.58531 0.50074 0.04700
H 	H 	0.71186 0.49080 0.50029 0.03100
H 	H 	0.82452 0.50454 0.42798 0.03700
H 	H 	0.86277 0.59914 0.42907 0.04800
C 	C 	0.76662 0.22239 0.45090 -0.09800
C 	C 	0.82007 0.24584 0.44443 0.01600
C 	C 	0.83929 0.21490 0.43987 -0.07400
C 	C 	0.80521 0.16036 0.44156 0.04100
C 	C 	0.75121 0.13643 0.44633 -0.07400
C 	C 	0.73192 0.16724 0.45094 0.01600
C 	C 	0.82654 0.12966 0.44079 -0.02800
C 	C 	0.84404 0.10365 0.44018 -0.01500
C 	C 	0.86514 0.07274 0.44011 0.01900
C 	C 	0.86310 0.04764 0.47173 -0.04700
C 	C 	0.88629 0.02015 0.47279 -0.03400
C 	C 	0.91169 0.01761 0.44220 -0.00500
C 	C 	0.91252 0.04170 0.41011 -0.03300
C 	C 	0.88937 0.06922 0.40911 -0.04700
H 	H 	0.84729 0.28827 0.44424 0.03100
H 	H 	0.88102 0.23362 0.43594 0.04800
H 	H 	0.72447 0.09418 0.44732 0.04700
H 	H 	0.69033 0.14842 0.45522 0.02700
H 	H 	0.84428 0.05006 0.49575 0.04000
H 	H 	0.88553 0.00182 0.49772 0.03600
H 	H 	0.93179 0.03974 0.38625 0.03700
H 	H 	0.89090 0.08834 0.38450 0.04100
C 	C 	0.47414 0.23305 0.45814 -0.09000
C 	C 	0.45285 0.21745 0.49226 0.01700
C 	C 	0.39665 0.18877 0.49129 -0.07200
C 	C 	0.36132 0.17544 0.45630 0.04100
C 	C 	0.38230 0.19059 0.42218 -0.07300
C 	C 	0.43847 0.21925 0.42305 0.01600
C 	C 	0.30352 0.14635 0.45542 -0.02800
C 	C 	0.25512 0.12199 0.45465 -0.01500
C 	C 	0.19731 0.09275 0.45374 0.01900
C 	C 	0.16298 0.08625 0.42054 -0.04600
C 	C 	0.10666 0.05682 0.41932 -0.03400
C 	C 	0.08437 0.03368 0.45133 -0.00400
C 	C 	0.11891 0.04072 0.48471 -0.03400
C 	C 	0.17520 0.07014 0.48588 -0.04600
H 	H 	0.47983 0.22811 0.51961 0.03600
H 	H 	0.38066 0.17715 0.51778 0.04700
H 	H 	0.35515 0.18023 0.39499 0.04700
H 	H 	0.45420 0.23053 0.39643 0.02500
H 	H 	0.17983 0.10368 0.39560 0.04000
H 	H 	0.08032 0.05149 0.39339 0.03600
H 	H 	0.10210 0.02319 0.50962 0.03700
H 	H 	0.20153 0.07511 0.51167 0.04000
C 	C 	0.92829 0.88375 0.99120 -0.00500
C 	C 	0.92068 0.85051 0.95727 -0.03300
C 	C 	0.89240 0.79561 0.95604 -0.04700
C 	C 	0.87153 0.77360 0.98865 0.02100
C 	C 	0.87827 0.80657 0.02233 -0.04900
C 	C 	0.90657 0.86152 0.02361 -0.03500
C 	C 	0.84424 0.71741 0.98782 -0.01500
C 	C 	0.82142 0.67031 0.98691 -0.02700
C 	C 	0.79429 0.61408 0.98574 0.04400
C 	C 	0.78039 0.59294 0.01983 -0.07500
C 	C 	0.75340 0.53819 0.01864 0.01500
C 	C 	0.74004 0.50414 0.98326 -0.08900
C 	C 	0.75457 0.52561 0.94918 0.01800
C 	C 	0.78157 0.58039 0.95047 -0.07300
H 	H 	0.93709 0.86731 0.93205 0.03700
H 	H 	0.88714 0.77028 0.92986 0.04100
H 	H 	0.86210 0.78975 0.04762 0.04100
H 	H 	0.91230 0.88690 0.04993 0.03700
H 	H 	0.79035 0.61886 0.04723 0.04700
H 	H 	0.74296 0.52228 0.04521 0.02500
H 	H 	0.74422 0.49983 0.92162 0.03600
H 	H 	0.79230 0.59656 0.92401 0.04800
C 	C 	0.76022 0.22143 0.98873 -0.09600
C 	C 	0.80632 0.23960 0.97143 0.01300
C 	C 	0.83466 0.21751 0.97628 -0.07400
C 	C 	0.81749 0.17738 0.99855 0.04100
C 	C 	0.77324 0.16093 0.01739 -0.07400
C 	C 	0.74477 0.18295 0.01264 0.01500
C 	C 	0.84268 0.15039 0.99961 -0.02300
C 	C 	0.86421 0.12819 0.00020 -0.02300
C 	C 	0.88942 0.10119 0.99981 0.02600
C 	C 	0.93080 0.11557 0.03086 -0.05100
C 	C 	0.95603 0.09002 0.02996 -0.03400
C 	C 	0.93999 0.04997 0.99796 -0.00500
C 	C 	0.89845 0.03559 0.96697 -0.03200
C 	C 	0.87325 0.06111 0.96792 -0.04900
H 	H 	0.81948 0.26988 0.95349 0.02300
H 	H 	0.86918 0.23073 0.96191 0.04600
H 	H 	0.76009 0.13024 0.03498 0.04800
H 	H 	0.71011 0.16928 0.02689 0.03700
H 	H 	0.94351 0.14657 0.05559 0.04200
H 	H 	0.98792 0.10125 0.05409 0.03700
H 	H 	0.88595 0.00487 0.94208 0.03600
H 	H 	0.84135 0.04989 0.94379 0.04100
C 	C 	0.10572 0.05708 0.99037 -0.00500
C 	C 	0.12359 0.07713 0.95643 -0.03300
C 	C 	0.17792 0.10128 0.95270 -0.04700
C 	C 	0.21460 0.10554 0.98288 0.02200
C 	C 	0.19718 0.08689 0.01723 -0.04900
C 	C 	0.14291 0.06274 0.02098 -0.03500
C 	C 	0.26960 0.12736 0.97818 -0.01600
C 	C 	0.31587 0.14547 0.97499 -0.02600
C 	C 	0.37136 0.16685 0.97217 0.04000
C 	C 	0.39519 0.14406 0.98822 -0.07000
C 	C 	0.45068 0.16802 0.98932 0.01800
C 	C 	0.48292 0.21529 0.97451 -0.09200
C 	C 	0.45814 0.23647 0.95663 0.01400
C 	C 	0.40262 0.21242 0.95566 -0.07100
H 	H 	0.09513 0.07290 0.93263 0.03600
H 	H 	0.19122 0.11586 0.92613 0.04100
H 	H 	0.22544 0.09036 0.04077 0.04100
H 	H 	0.12949 0.04754 0.04734 0.03600
H 	H 	0.37106 0.10851 0.00072 0.04600
H 	H 	0.46886 0.15073 0.00277 0.03400
H 	H 	0.48206 0.27216 0.94427 0.03100
H 	H 	0.38424 0.22990 0.94281 0.04700
