data_crystal

_cell_length_a 26.20017
_cell_length_b 26.42063
_cell_length_c 26.50383
_cell_angle_alpha 95.47585
_cell_angle_beta  95.47385
_cell_angle_gamma 125.79196

_symmetry_space_group_name_	'P 1'
_symmetry_space_group_name_H-M	'P 1'

loop_
_symmetry_equiv_pos_as_xyz
  x,y,z

loop_
_atom_site_label
_atom_site_type_symbol
_atom_site_fract_x
_atom_site_fract_y
_atom_site_fract_z
_atom_site_charge
C 	C 	0.00657 0.07045 0.99690 -0.00500
C 	C 	0.96663 0.00386 0.98582 -0.05000
C 	C 	0.99317 0.97092 0.98033 0.02000
C 	C 	0.05966 0.00467 0.98547 -0.05800
C 	C 	0.09967 0.07121 0.99633 0.00300
C 	C 	0.07319 0.10409 0.00304 -0.04000
H 	H 	0.91515 0.97779 0.98160 0.03900
H 	H 	0.08023 0.97922 0.98120 0.04200
H 	H 	0.10415 0.15559 0.01191 0.04600
C 	C 	0.89807 0.96212 0.43856 0.05700
C 	C 	0.96201 0.99540 0.43222 -0.10200
C 	C 	0.99466 0.96863 0.43922 0.05000
C 	C 	0.96292 0.90818 0.45236 -0.09300
C 	C 	0.89855 0.87420 0.45780 0.05300
C 	C 	0.86644 0.90163 0.45145 -0.09700
H 	H 	0.98636 0.04211 0.42214 0.06300
H 	H 	0.98800 0.88732 0.45774 0.05900
H 	H 	0.81690 0.87578 0.45610 0.05700
Cu	Cu	0.68599 0.29246 0.01999 0.93500
Cu	Cu	0.70635 0.26334 0.90359 0.87600
Cu	Cu	0.70469 0.37304 0.93777 0.89800
Cu	Cu	0.70056 0.42062 0.04586 0.89900
C 	C 	0.70951 0.35074 0.12391 0.38600
O 	O 	0.59708 0.25904 0.03132 -0.33100
C 	C 	0.66323 0.30647 0.82825 0.38200
O 	O 	0.73689 0.38767 0.00981 -0.63200
O 	O 	0.66053 0.28222 0.94483 -0.64500
O 	O 	0.72266 0.24435 0.01936 -0.34100
O 	O 	0.77651 0.28947 0.95536 -0.43300
O 	O 	0.72134 0.40461 0.11443 -0.36500
O 	O 	0.75393 0.46267 0.93535 -0.36000
C 	C 	0.75813 0.50528 0.96954 0.28700
C 	C 	0.57137 0.28780 0.02038 0.29400
O 	O 	0.60495 0.34223 0.00474 -0.38100
O 	O 	0.72186 0.48820 0.00507 -0.37800
O 	O 	0.72022 0.31762 0.09223 -0.34500
C 	C 	0.76735 0.25746 0.99264 0.27300
O 	O 	0.68320 0.35797 0.86165 -0.35700
O 	O 	0.65528 0.25668 0.84351 -0.39700
H 	H 	0.78419 0.41387 0.01879 0.17400
H 	H 	0.61372 0.25542 0.93189 0.18300
Cu	Cu	0.69471 0.29942 0.42938 0.93200
Cu	Cu	0.70226 0.24950 0.53663 0.87900
Cu	Cu	0.59635 0.25723 0.50013 0.90000
Cu	Cu	0.57228 0.29489 0.39988 0.89900
C 	C 	0.65468 0.30047 0.32521 0.39700
O 	O 	0.73354 0.39225 0.43319 -0.34600
C 	C 	0.64853 0.28057 0.61079 0.38500
O 	O 	0.59580 0.24672 0.42752 -0.63800
O 	O 	0.69083 0.30524 0.50370 -0.64100
O 	O 	0.74070 0.26043 0.42671 -0.36000
O 	O 	0.68099 0.18992 0.47715 -0.43400
O 	O 	0.60156 0.29304 0.33299 -0.37100
O 	O 	0.50392 0.20613 0.49078 -0.36400
C 	C 	0.46867 0.21049 0.45498 0.29400
C 	C 	0.70610 0.41702 0.45091 0.29400
O 	O 	0.64604 0.38002 0.45634 -0.38200
O 	O 	0.49499 0.26061 0.43249 -0.38500
O 	O 	0.68192 0.28260 0.35582 -0.35200
C 	C 	0.71826 0.20675 0.44275 0.29900
O 	O 	0.59712 0.25405 0.57439 -0.36500
O 	O 	0.70037 0.28761 0.60055 -0.39800
H 	H 	0.56963 0.20177 0.40981 0.17400
H 	H 	0.71581 0.34906 0.52372 0.18300
C 	C 	0.69823 0.35642 0.75114 0.26500
C 	C 	0.65166 0.30552 0.77251 -0.20500
C 	C 	0.59842 0.25036 0.73966 0.26800
C 	C 	0.59479 0.24391 0.68614 0.26700
C 	C 	0.64433 0.29267 0.66507 -0.20800
C 	C 	0.69456 0.34997 0.69764 0.26800
F 	F 	0.74120 0.39851 0.67752 -0.40900
F 	F 	0.74914 0.41067 0.78233 -0.40300
F 	F 	0.54507 0.18884 0.65500 -0.40300
F 	F 	0.55128 0.20216 0.75969 -0.40300
C 	C 	0.64558 0.27628 0.18127 0.26400
C 	C 	0.69931 0.33586 0.17575 -0.20200
C 	C 	0.74089 0.38217 0.21989 0.27100
C 	C 	0.72746 0.36970 0.26899 0.26800
C 	C 	0.67225 0.31111 0.27427 -0.20600
C 	C 	0.63196 0.26406 0.23033 0.27500
F 	F 	0.57910 0.20679 0.23517 -0.40300
F 	F 	0.60542 0.23097 0.13895 -0.40200
F 	F 	0.76728 0.41505 0.31137 -0.41300
F 	F 	0.79415 0.43921 0.21516 -0.40100
C 	C 	0.86351 0.80804 0.46663 -0.03700
C 	C 	0.88468 0.79351 0.51031 0.08900
C 	C 	0.85994 0.73012 0.51161 -0.08000
C 	C 	0.81152 0.68093 0.47179 -0.01000
C 	C 	0.78463 0.69492 0.43157 0.07700
C 	C 	0.81226 0.75854 0.42851 -0.06600
N 	N 	0.92765 0.83990 0.55133 -0.19800
H 	H 	0.87870 0.71908 0.54349 0.05600
C 	C 	0.79235 0.61569 0.47078 0.00200
N 	N 	0.73260 0.64763 0.39586 -0.19500
H 	H 	0.79462 0.76958 0.39587 0.04800
C 	C 	0.75566 0.58041 0.50622 -0.09500
C 	C 	0.73308 0.51703 0.50395 0.12900
C 	C 	0.74211 0.48684 0.46240 -0.10000
C 	C 	0.78184 0.52315 0.42878 -0.03100
C 	C 	0.80880 0.58791 0.43365 0.07300
H 	H 	0.74552 0.60261 0.53612 0.06000
N 	N 	0.70585 0.48663 0.54292 -0.20100
H 	H 	0.79096 0.50077 0.39818 0.08900
N 	N 	0.85035 0.62304 0.40273 -0.19300
H 	H 	0.69595 0.50782 0.57181 0.09900
H 	H 	0.69875 0.44414 0.54705 0.10200
H 	H 	0.86021 0.60156 0.37407 0.10800
H 	H 	0.87514 0.67221 0.40810 0.09400
H 	H 	0.71459 0.65839 0.36518 0.08600
H 	H 	0.70810 0.60004 0.39926 0.09200
H 	H 	0.94179 0.88625 0.55383 0.08700
H 	H 	0.94505 0.82920 0.58247 0.08600
C 	C 	0.86483 0.99169 0.43334 -0.04500
C 	C 	0.84291 0.99631 0.38426 0.08200
C 	C 	0.81778 0.03075 0.38112 -0.07300
C 	C 	0.81277 0.05912 0.42595 -0.01300
C 	C 	0.83147 0.05153 0.47491 0.07500
C 	C 	0.85803 0.01844 0.47807 -0.05900
N 	N 	0.84523 0.96737 0.34016 -0.19700
H 	H 	0.80228 0.03567 0.34368 0.05600
C 	C 	0.78898 0.09768 0.42121 0.00800
N 	N 	0.82412 0.07584 0.51888 -0.19500
H 	H 	0.87405 0.01401 0.51555 0.04800
C 	C 	0.72276 0.06707 0.41128 -0.10100
C 	C 	0.69850 0.10244 0.41292 0.13400
C 	C 	0.74139 0.16944 0.42728 -0.11300
C 	C 	0.80758 0.20014 0.43316 -0.02200
C 	C 	0.83187 0.16484 0.42968 0.05900
H 	H 	0.69002 0.01560 0.40277 0.06100
N 	N 	0.63434 0.07206 0.39952 -0.20300
H 	H 	0.84040 0.25158 0.44245 0.04600
N 	N 	0.89620 0.19561 0.43510 -0.19100
H 	H 	0.60274 0.02245 0.39111 0.09200
H 	H 	0.61555 0.09728 0.39474 0.10100
H 	H 	0.92759 0.24523 0.44276 0.08800
H 	H 	0.91560 0.17079 0.43050 0.09000
H 	H 	0.83925 0.07104 0.55487 0.08400
H 	H 	0.80233 0.09858 0.51786 0.08700
H 	H 	0.86007 0.93836 0.34105 0.08600
H 	H 	0.83040 0.97236 0.30415 0.08300
C 	C 	0.06313 0.00514 0.43488 -0.02400
C 	C 	0.08452 0.97984 0.40056 0.06900
C 	C 	0.15047 0.01030 0.40414 -0.06000
C 	C 	0.19528 0.06874 0.43758 -0.01900
C 	C 	0.17368 0.09781 0.46730 0.08200
C 	C 	0.10792 0.06434 0.46746 -0.07300
N 	N 	0.04223 0.92778 0.36313 -0.19700
H 	H 	0.16701 0.98914 0.38004 0.04500
C 	C 	0.26462 0.09894 0.44105 0.00700
N 	N 	0.21560 0.15778 0.49529 -0.19600
H 	H 	0.09154 0.08453 0.49285 0.04900
C 	C 	0.29275 0.12068 0.39799 -0.09700
C 	C 	0.35844 0.15074 0.40028 0.12600
C 	C 	0.39794 0.16637 0.44827 -0.10200
C 	C 	0.36949 0.14257 0.49088 -0.02500
C 	C 	0.30276 0.10645 0.48696 0.06500
H 	H 	0.26310 0.11252 0.36216 0.05800
N 	N 	0.38258 0.16146 0.35604 -0.20100
H 	H 	0.39921 0.15229 0.52721 0.06800
N 	N 	0.27570 0.07895 0.52710 -0.19200
H 	H 	0.35414 0.15363 0.32143 0.09000
H 	H 	0.42776 0.17265 0.35472 0.08400
H 	H 	0.30443 0.08693 0.56157 0.09900
H 	H 	0.22608 0.04734 0.52379 0.09300
H 	H 	0.19949 0.17777 0.51875 0.08600
H 	H 	0.26390 0.18609 0.49235 0.09300
H 	H 	0.99389 0.90908 0.35506 0.08900
H 	H 	0.05818 0.90765 0.33961 0.08400
C 	C 	0.95159 0.90089 0.97191 -0.03600
C 	C 	0.94063 0.86414 0.92402 0.08400
C 	C 	0.90843 0.79842 0.91970 -0.07600
C 	C 	0.88500 0.76867 0.96168 -0.02400
C 	C 	0.89340 0.80504 0.00887 0.08900
C 	C 	0.92681 0.87091 0.01348 -0.06100
N 	N 	0.96009 0.89147 0.88202 -0.19700
H 	H 	0.90104 0.77022 0.88343 0.05600
C 	C 	0.85265 0.69957 0.95605 0.00900
N 	N 	0.86993 0.77714 0.04988 -0.19600
H 	H 	0.93475 0.89918 0.04993 0.04900
C 	C 	0.88920 0.67822 0.96937 -0.09700
C 	C 	0.85935 0.61402 0.97177 0.12700
C 	C 	0.79166 0.57061 0.96025 -0.09900
C 	C 	0.75541 0.59130 0.94377 -0.01800
C 	C 	0.78526 0.65543 0.94130 0.05900
H 	H 	0.94094 0.71205 0.97955 0.05900
N 	N 	0.89582 0.59474 0.98601 -0.20200
H 	H 	0.70364 0.55759 0.93389 0.04800
N 	N 	0.74900 0.67440 0.92542 -0.19100
H 	H 	0.94573 0.62738 0.99507 0.08900
H 	H 	0.87529 0.54732 0.98782 0.08800
H 	H 	0.69914 0.64164 0.91562 0.08600
H 	H 	0.76978 0.72140 0.92179 0.08800
H 	H 	0.87672 0.80452 0.08460 0.08500
H 	H 	0.84451 0.72823 0.04779 0.09400
H 	H 	0.98009 0.93931 0.88292 0.08500
H 	H 	0.95343 0.86428 0.84723 0.08500
C 	C 	0.80423 0.23244 0.00198 -0.08500
C 	C 	0.77439 0.16631 0.99091 0.11200
C 	C 	0.81197 0.14469 0.99722 -0.10500
C 	C 	0.87867 0.18774 0.01237 0.01500
C 	C 	0.90833 0.25366 0.02462 0.06200
C 	C 	0.87068 0.27534 0.01920 -0.02400
N 	N 	0.71026 0.12358 0.97266 -0.20100
H 	H 	0.78948 0.09419 0.98830 0.05800
C 	C 	0.91719 0.16350 0.01074 -0.00800
N 	N 	0.97268 0.29622 0.04170 -0.18900
H 	H 	0.89329 0.32587 0.02795 0.05000
C 	C 	0.93729 0.15814 0.96468 -0.08300
C 	C 	0.96748 0.12872 0.95952 0.06700
C 	C 	0.97840 0.10498 0.00167 0.00700
C 	C 	0.96022 0.11224 0.04831 -0.08000
C 	C 	0.92976 0.14144 0.05337 0.08400
H 	H 	0.92798 0.17559 0.93228 0.05200
N 	N 	0.98498 0.12265 0.91388 -0.19200
H 	H 	0.96929 0.09457 0.08066 0.05500
N 	N 	0.91297 0.14832 0.09914 -0.19600
H 	H 	0.97678 0.14047 0.88308 0.08300
H 	H 	0.00657 0.10011 0.90833 0.08100
H 	H 	0.92157 0.13099 0.13014 0.08800
H 	H 	0.89231 0.17177 0.10476 0.09600
H 	H 	0.99430 0.34489 0.04979 0.09000
H 	H 	0.00169 0.28153 0.04803 0.08700
H 	H 	0.68144 0.13797 0.96388 0.08000
H 	H 	0.68869 0.07489 0.96569 0.08700
C 	C 	0.16960 0.10638 0.00155 0.00000
C 	C 	0.20157 0.13530 0.96119 0.07000
C 	C 	0.26770 0.16575 0.96677 -0.08400
C 	C 	0.30175 0.16564 0.01084 -0.00700
C 	C 	0.26979 0.13666 0.05115 0.08400
C 	C 	0.20411 0.10808 0.04633 -0.07800
N 	N 	0.16903 0.13314 0.91680 -0.19500
H 	H 	0.29251 0.18833 0.93616 0.05500
C 	C 	0.37082 0.19574 0.01414 0.01700
N 	N 	0.30157 0.13536 0.09413 -0.19700
H 	H 	0.17941 0.08586 0.07710 0.05500
C 	C 	0.41562 0.25795 0.04172 -0.09600
C 	C 	0.48153 0.28747 0.04690 0.13100
C 	C 	0.50282 0.25580 0.02059 -0.08600
C 	C 	0.45801 0.19353 0.99304 -0.02700
C 	C 	0.39209 0.16273 0.99012 0.05600
H 	H 	0.39908 0.28269 0.06062 0.06000
N 	N 	0.52385 0.34495 0.07865 -0.20000
H 	H 	0.47446 0.16906 0.97349 0.05000
N 	N 	0.34965 0.10159 0.96451 -0.19000
H 	H 	0.50785 0.36919 0.09604 0.08900
H 	H 	0.57226 0.36448 0.08865 0.08400
H 	H 	0.36586 0.07796 0.94639 0.09200
H 	H 	0.30043 0.07657 0.96292 0.09000
H 	H 	0.27758 0.11424 0.12380 0.09000
H 	H 	0.35000 0.15451 0.09840 0.10200
H 	H 	0.11946 0.10881 0.91043 0.08300
H 	H 	0.19328 0.15529 0.88755 0.08400
