data_crystal

_cell_length_a 18.53354
_cell_length_b 18.81972
_cell_length_c 26.52776
_cell_angle_alpha 95.42148
_cell_angle_beta  95.42088
_cell_angle_gamma 126.46745

_symmetry_space_group_name_	'P 1'
_symmetry_space_group_name_H-M	'P 1'

loop_
_symmetry_equiv_pos_as_xyz
  x,y,z

loop_
_atom_site_label
_atom_site_type_symbol
_atom_site_fract_x
_atom_site_fract_y
_atom_site_fract_z
_atom_site_charge
C 	C 	0.94005 0.02428 0.00651 0.09400
N 	N 	0.88864 0.93396 0.00393 -0.12500
C 	C 	0.92848 0.89252 0.00260 0.11000
N 	N 	0.01953 0.94123 0.00436 -0.11700
C 	C 	0.07105 0.03122 0.00677 0.11200
N 	N 	0.03145 0.07305 0.00772 -0.12200
C 	C 	0.91855 0.01403 0.44394 0.09400
N 	N 	0.87392 0.92525 0.44609 -0.12600
C 	C 	0.92046 0.89008 0.44626 0.10700
N 	N 	0.01124 0.94402 0.44586 -0.11600
C 	C 	0.05559 0.03226 0.44428 0.11100
N 	N 	0.00907 0.06690 0.44259 -0.12200
Cu	Cu	0.61201 0.19905 0.01274 0.92700
Cu	Cu	0.65903 0.18200 0.89797 0.87100
Cu	Cu	0.65558 0.33224 0.94001 0.89700
Cu	Cu	0.61820 0.36761 0.04492 0.89600
C 	C 	0.65604 0.27955 0.11996 0.28900
O 	O 	0.48097 0.14642 0.01833 -0.36300
C 	C 	0.61308 0.25814 0.82765 0.28700
O 	O 	0.68480 0.33729 0.01242 -0.63700
O 	O 	0.58843 0.20009 0.93837 -0.63900
O 	O 	0.66788 0.13543 0.00797 -0.37400
O 	O 	0.75511 0.21819 0.95199 -0.44200
O 	O 	0.61431 0.31475 0.10746 -0.38700
O 	O 	0.72471 0.46138 0.94782 -0.38200
C 	C 	0.72472 0.51181 0.98601 0.29400
C 	C 	0.44394 0.18359 0.00158 0.28800
O 	O 	0.49571 0.26386 0.99033 -0.39200
O 	O 	0.66142 0.47607 0.01476 -0.39300
O 	O 	0.65413 0.22226 0.08572 -0.36500
C 	C 	0.73980 0.16729 0.98628 0.29300
O 	O 	0.65039 0.32966 0.86442 -0.38800
O 	O 	0.59232 0.18233 0.83921 -0.42100
H 	H 	0.75110 0.37658 0.02687 0.16300
H 	H 	0.52305 0.16352 0.92223 0.17300
Cu	Cu	0.76981 0.36262 0.44667 0.92400
Cu	Cu	0.76141 0.29324 0.55630 0.86900
Cu	Cu	0.62479 0.31795 0.51214 0.89700
Cu	Cu	0.60195 0.35935 0.40778 0.89600
C 	C 	0.70621 0.33518 0.33794 0.28900
O 	O 	0.82448 0.49455 0.44603 -0.36200
C 	C 	0.67384 0.32871 0.62367 0.28500
O 	O 	0.62753 0.29030 0.44081 -0.63700
O 	O 	0.75852 0.37634 0.51988 -0.63800
O 	O 	0.83054 0.30287 0.45173 -0.36900
O 	O 	0.73149 0.20646 0.49901 -0.44200
O 	O 	0.66897 0.37490 0.34990 -0.38800
O 	O 	0.49380 0.25322 0.50050 -0.38200
C 	C 	0.44429 0.24944 0.45958 0.29500
C 	C 	0.78363 0.52862 0.46175 0.28500
O 	O 	0.69888 0.47435 0.46812 -0.39400
O 	O 	0.48195 0.30760 0.42836 -0.38900
O 	O 	0.75704 0.33028 0.37368 -0.36400
C 	C 	0.79032 0.22651 0.46868 0.29000
O 	O 	0.62096 0.32946 0.58683 -0.37500
O 	O 	0.75252 0.34784 0.61686 -0.41800
H 	H 	0.58760 0.22528 0.42568 0.16300
H 	H 	0.79780 0.43910 0.53920 0.17400
C 	C 	0.61780 0.21117 0.73768 -0.03700
C 	C 	0.61214 0.26809 0.77253 -0.09500
C 	C 	0.61149 0.33670 0.75487 0.08000
C 	C 	0.63048 0.35534 0.70554 -0.03900
C 	C 	0.64260 0.30205 0.67240 -0.08800
C 	C 	0.63012 0.22598 0.68738 0.06400
C 	C 	0.63361 0.16225 0.65057 -0.18300
H 	H 	0.61493 0.15642 0.75008 0.03500
H 	H 	0.63652 0.41169 0.69320 0.04600
C 	C 	0.58951 0.38917 0.78753 -0.19500
H 	H 	0.60176 0.09665 0.66323 0.05800
H 	H 	0.70576 0.19206 0.64862 0.04000
H 	H 	0.59563 0.14831 0.61141 0.04300
H 	H 	0.65168 0.44509 0.81542 0.08300
H 	H 	0.53436 0.34486 0.80856 0.07600
H 	H 	0.56496 0.41848 0.76330 0.06900
C 	C 	0.75285 0.37606 0.20425 -0.04200
C 	C 	0.68720 0.28924 0.17520 -0.08900
C 	C 	0.64062 0.21522 0.20077 0.08300
C 	C 	0.65324 0.23077 0.25493 -0.04300
C 	C 	0.71166 0.31870 0.28351 -0.08600
C 	C 	0.76633 0.39133 0.25830 0.08100
C 	C 	0.83357 0.48614 0.28838 -0.19600
H 	H 	0.79013 0.43255 0.18466 0.03400
H 	H 	0.61433 0.17477 0.27464 0.03700
C 	C 	0.57619 0.12015 0.17068 -0.19900
H 	H 	0.88679 0.52981 0.26614 0.06700
H 	H 	0.86912 0.48767 0.32508 0.08200
H 	H 	0.79691 0.51442 0.29686 0.07600
H 	H 	0.61393 0.10476 0.14769 0.08700
H 	H 	0.52009 0.11156 0.14451 0.08400
H 	H 	0.54486 0.07029 0.19647 0.06800
C 	C 	0.87357 0.79391 0.44757 -0.01100
C 	C 	0.84944 0.76315 0.49379 -0.05700
C 	C 	0.82512 0.67863 0.50006 0.05000
C 	C 	0.82339 0.62323 0.45934 -0.08900
C 	C 	0.84662 0.65373 0.41298 -0.01200
C 	C 	0.87033 0.73782 0.40664 0.00700
S 	S 	0.80167 0.64509 0.55990 -0.05800
S 	S 	0.89397 0.77142 0.34682 -0.04100
H 	H 	0.81489 0.74404 0.31604 0.03600
H 	H 	0.70998 0.59796 0.55949 0.04100
H 	H 	0.85336 0.80654 0.52570 0.05200
H 	H 	0.84369 0.61088 0.38125 0.03800
C 	C 	0.82215 0.17094 0.46136 -0.09500
C 	C 	0.84535 0.14576 0.50455 -0.01100
C 	C 	0.87014 0.08856 0.49886 0.00700
C 	C 	0.87232 0.05586 0.44945 -0.01100
C 	C 	0.84687 0.07901 0.40605 -0.05900
C 	C 	0.82147 0.13596 0.41166 0.05000
S 	S 	0.90046 0.06006 0.55410 -0.06400
S 	S 	0.78736 0.16119 0.35620 -0.03400
H 	H 	0.69446 0.10068 0.34068 0.03200
H 	H 	0.82478 0.98130 0.56299 0.04600
H 	H 	0.84447 0.17108 0.54276 0.01500
H 	H 	0.84904 0.05453 0.36797 0.04800
C 	C 	0.34483 0.19354 0.45544 -0.08900
C 	C 	0.30819 0.20575 0.49628 -0.00400
C 	C 	0.21361 0.15494 0.49258 0.00700
C 	C 	0.15479 0.09113 0.44748 -0.00900
C 	C 	0.19139 0.07880 0.40669 -0.05700
C 	C 	0.28598 0.12950 0.41042 0.05200
S 	S 	0.16969 0.16991 0.54521 -0.02600
S 	S 	0.32977 0.10957 0.35942 -0.06700
H 	H 	0.34067 0.04552 0.36793 0.03200
H 	H 	0.15378 0.10961 0.57624 0.03700
H 	H 	0.35338 0.25511 0.53089 0.04500
H 	H 	0.14613 0.02883 0.37229 0.05400
C 	C 	0.78228 0.60936 0.98912 -0.09200
C 	C 	0.77375 0.64440 0.94657 -0.00500
C 	C 	0.81919 0.73690 0.95092 0.00800
C 	C 	0.87330 0.79498 0.99842 -0.01200
C 	C 	0.88295 0.76007 0.04066 -0.05700
C 	C 	0.83855 0.66784 0.03616 0.05400
S 	S 	0.80911 0.77934 0.89650 -0.04100
S 	S 	0.85655 0.62665 0.08905 -0.07600
H 	H 	0.79121 0.60354 0.11839 0.03200
H 	H 	0.73781 0.78363 0.89606 0.03700
H 	H 	0.73039 0.59947 0.91036 0.04000
H 	H 	0.92648 0.80506 0.07682 0.05200
C 	C 	0.79257 0.13218 0.99245 -0.09900
C 	C 	0.81254 0.10437 0.94842 -0.01000
C 	C 	0.86398 0.07253 0.95285 0.00600
C 	C 	0.89511 0.06706 0.00175 -0.01000
C 	C 	0.87649 0.09592 0.04593 -0.06100
C 	C 	0.82611 0.12920 0.04166 0.05200
S 	S 	0.88862 0.03929 0.89680 -0.06100
S 	S 	0.80880 0.16995 0.09817 -0.03900
H 	H 	0.87729 0.26045 0.11320 0.03600
H 	H 	0.81903 0.95067 0.87663 0.04400
H 	H 	0.78750 0.10705 0.91056 0.01500
H 	H 	0.90086 0.09210 0.08362 0.04800
C 	C 	0.34774 0.14219 0.00311 -0.09100
C 	C 	0.28923 0.12372 0.95784 -0.01000
C 	C 	0.20011 0.09388 0.95921 0.00900
C 	C 	0.16876 0.08208 0.00630 -0.01100
C 	C 	0.22796 0.10292 0.05176 -0.05600
C 	C 	0.31705 0.13275 0.05051 0.04900
S 	S 	0.12784 0.07018 0.90160 -0.04100
S 	S 	0.38977 0.15958 0.10866 -0.04500
H 	H 	0.43541 0.24829 0.13007 0.03700
H 	H 	0.07713 0.98058 0.88055 0.05200
H 	H 	0.31333 0.13314 0.92157 0.03400
H 	H 	0.20370 0.09333 0.08799 0.05200
