data_crystal

_cell_length_a 18.73483
_cell_length_b 18.94134
_cell_length_c 40.24710
_cell_angle_alpha 95.42863
_cell_angle_beta  95.42862
_cell_angle_gamma 126.43964

_symmetry_space_group_name_	'P 1'
_symmetry_space_group_name_H-M	'P 1'

loop_
_symmetry_equiv_pos_as_xyz
  x,y,z

loop_
_atom_site_label
_atom_site_type_symbol
_atom_site_fract_x
_atom_site_fract_y
_atom_site_fract_z
_atom_site_charge
C 	C 	0.93181 0.01442 0.97773 0.02400
C 	C 	0.88234 0.92135 0.97577 -0.04800
C 	C 	0.92824 0.88365 0.97847 0.02900
C 	C 	0.02237 0.93844 0.98237 -0.04800
C 	C 	0.07100 0.03008 0.98316 0.02500
C 	C 	0.02620 0.06835 0.98173 -0.05400
H 	H 	0.80927 0.87895 0.97221 0.05900
H 	H 	0.05761 0.90926 0.98385 0.05900
H 	H 	0.06450 0.13977 0.98281 0.05900
C 	C 	0.92909 0.02715 0.49742 0.02200
C 	C 	0.02112 0.07334 0.49613 -0.05300
C 	C 	0.05780 0.02679 0.49409 0.02500
C 	C 	0.00236 0.93448 0.49284 -0.04700
C 	C 	0.91130 0.88887 0.49488 0.02900
C 	C 	0.87487 0.93527 0.49753 -0.04900
H 	H 	0.06353 0.14459 0.49636 0.05800
H 	H 	0.03051 0.89841 0.49092 0.05900
H 	H 	0.80392 0.89957 0.49871 0.06000
Cu	Cu	0.76636 0.34879 0.96154 0.92700
Cu	Cu	0.81181 0.32136 0.04117 0.88600
Cu	Cu	0.62954 0.28720 0.00857 0.90400
Cu	Cu	0.59728 0.34794 0.94460 0.90100
C 	C 	0.68633 0.32181 0.89142 0.28900
O 	O 	0.82401 0.48107 0.96252 -0.34700
C 	C 	0.69503 0.32263 0.08181 0.29200
O 	O 	0.62818 0.27866 0.96095 -0.64300
O 	O 	0.76390 0.36340 0.01111 -0.63600
O 	O 	0.80944 0.27332 0.95768 -0.35000
O 	O 	0.88299 0.31541 0.01248 -0.40500
O 	O 	0.64667 0.35691 0.90185 -0.37200
O 	O 	0.49994 0.21583 0.00207 -0.37100
C 	C 	0.45188 0.23146 0.98250 0.29100
C 	C 	0.78522 0.51577 0.97386 0.28200
O 	O 	0.70492 0.46375 0.98152 -0.37700
O 	O 	0.49082 0.30139 0.96733 -0.38100
O 	O 	0.74414 0.32088 0.91278 -0.35200
C 	C 	0.84516 0.25894 0.98345 0.27900
O 	O 	0.62812 0.26849 0.05578 -0.38500
O 	O 	0.77939 0.36123 0.07850 -0.40200
H 	H 	0.58961 0.21608 0.94845 0.16500
H 	H 	0.79121 0.42592 0.02115 0.17500
Cu	Cu	0.59880 0.19627 0.50474 0.92900
Cu	Cu	0.66377 0.19889 0.43178 0.88100
Cu	Cu	0.64159 0.33266 0.45924 0.90000
Cu	Cu	0.60038 0.36039 0.52735 0.90000
C 	C 	0.63149 0.26694 0.57591 0.30900
O 	O 	0.46721 0.14100 0.50602 -0.35200
C 	C 	0.61165 0.27023 0.38492 0.30700
O 	O 	0.67008 0.33441 0.50653 -0.63900
O 	O 	0.58108 0.20206 0.45593 -0.63800
O 	O 	0.65759 0.13628 0.50210 -0.35900
O 	O 	0.75159 0.22998 0.46953 -0.43000
O 	O 	0.59138 0.30289 0.56749 -0.37300
O 	O 	0.70836 0.46067 0.46564 -0.37200
C 	C 	0.70423 0.50936 0.48998 0.29600
C 	C 	0.43084 0.17812 0.49486 0.28700
O 	O 	0.48284 0.25983 0.48925 -0.38400
O 	O 	0.64493 0.47242 0.51022 -0.38100
O 	O 	0.63421 0.21412 0.55300 -0.35100
C 	C 	0.73164 0.17223 0.48942 0.29500
O 	O 	0.62975 0.33287 0.40976 -0.37000
O 	O 	0.60348 0.19905 0.39111 -0.40600
H 	H 	0.73545 0.37441 0.51641 0.17300
H 	H 	0.51770 0.16337 0.44355 0.18500
C 	C 	0.68238 0.30283 0.85450 -0.07300
C 	C 	0.75591 0.31407 0.84238 0.01900
C 	C 	0.75453 0.30213 0.80742 -0.05900
C 	C 	0.67978 0.27884 0.78423 0.02900
C 	C 	0.60541 0.26543 0.79625 -0.05900
C 	C 	0.60659 0.27716 0.83119 0.01600
C 	C 	0.68099 0.27250 0.74743 0.00700
C 	C 	0.74539 0.34829 0.73479 -0.03500
C 	C 	0.74162 0.34448 0.69973 -0.02800
C 	C 	0.67355 0.26497 0.67707 0.00100
C 	C 	0.61110 0.18837 0.68967 -0.02700
C 	C 	0.61484 0.19204 0.72474 -0.03600
C 	C 	0.66164 0.26470 0.64112 0.05400
C 	C 	0.64941 0.26530 0.61120 -0.08500
H 	H 	0.81493 0.33393 0.85998 0.05300
H 	H 	0.81203 0.31210 0.79838 0.05600
H 	H 	0.54734 0.24737 0.77854 0.05400
H 	H 	0.54893 0.26705 0.84012 0.03700
H 	H 	0.79679 0.41069 0.75208 0.04900
H 	H 	0.79005 0.40401 0.69019 0.04900
H 	H 	0.55824 0.12666 0.67232 0.05100
H 	H 	0.56534 0.13295 0.73423 0.04700
C 	C 	0.67437 0.32736 0.11629 -0.08000
C 	C 	0.74434 0.38723 0.14419 0.01600
C 	C 	0.72623 0.38496 0.17717 -0.06100
C 	C 	0.63786 0.32376 0.18263 0.02900
C 	C 	0.56717 0.26736 0.15469 -0.05900
C 	C 	0.58527 0.26875 0.12174 0.01700
C 	C 	0.62066 0.31332 0.21764 0.00600
C 	C 	0.58279 0.23048 0.22750 -0.03700
C 	C 	0.57334 0.22210 0.26125 -0.02900
C 	C 	0.60205 0.29644 0.28547 -0.00200
C 	C 	0.63750 0.37867 0.27553 -0.02800
C 	C 	0.64650 0.38707 0.24169 -0.03600
C 	C 	0.60336 0.29012 0.32091 0.05200
C 	C 	0.60605 0.28240 0.35034 -0.09500
H 	H 	0.81305 0.43425 0.14045 0.04200
H 	H 	0.78129 0.42907 0.19853 0.05200
H 	H 	0.49851 0.22077 0.15859 0.05500
H 	H 	0.53031 0.22263 0.10060 0.05000
H 	H 	0.56287 0.17319 0.20923 0.04500
H 	H 	0.54601 0.15837 0.26874 0.04600
H 	H 	0.65986 0.43648 0.29411 0.05000
H 	H 	0.67499 0.45112 0.23431 0.04800
C 	C 	0.85383 0.79166 0.49419 0.01500
C 	C 	0.86225 0.75898 0.52318 -0.03800
C 	C 	0.81560 0.66658 0.52140 0.02000
C 	C 	0.75666 0.60633 0.49113 -0.07800
C 	C 	0.74510 0.63887 0.46255 0.02300
C 	C 	0.79502 0.73157 0.46390 -0.03900
C 	C 	0.91881 0.82064 0.55487 0.09800
C 	C 	0.68039 0.57698 0.43208 0.08900
C 	C 	0.78684 0.76529 0.43401 0.09800
C 	C 	0.82971 0.63349 0.55044 0.07300
N 	N 	0.78034 0.79222 0.41018 -0.10400
N 	N 	0.84093 0.60706 0.57360 -0.11500
N 	N 	0.62880 0.52762 0.40778 -0.10100
N 	N 	0.96393 0.86989 0.58013 -0.10300
C 	C 	0.88690 0.07284 0.49533 0.01600
C 	C 	0.84323 0.06700 0.46354 -0.04100
C 	C 	0.78813 0.09469 0.46181 0.02300
C 	C 	0.78209 0.13488 0.49174 -0.08700
C 	C 	0.82873 0.14405 0.52350 0.02400
C 	C 	0.88070 0.11252 0.52529 -0.04100
C 	C 	0.85497 0.03217 0.43257 0.09700
C 	C 	0.82382 0.18644 0.55422 0.08400
C 	C 	0.92755 0.12058 0.55792 0.09700
C 	C 	0.73493 0.07873 0.42942 0.04700
N 	N 	0.96499 0.12694 0.58393 -0.10700
N 	N 	0.69251 0.06589 0.40357 -0.13800
N 	N 	0.81986 0.22027 0.57873 -0.10200
N 	N 	0.86447 0.00447 0.40789 -0.10500
C 	C 	0.15555 0.07485 0.49470 0.01400
C 	C 	0.18813 0.08606 0.46394 -0.03900
C 	C 	0.27712 0.11548 0.46372 0.01900
C 	C 	0.33404 0.13473 0.49434 -0.08000
C 	C 	0.30136 0.12383 0.52514 0.01800
C 	C 	0.21311 0.09628 0.52540 -0.03900
C 	C 	0.12970 0.06652 0.43251 0.09600
C 	C 	0.35839 0.14080 0.55657 0.08300
C 	C 	0.18114 0.08957 0.55726 0.09700
C 	C 	0.30974 0.12455 0.43193 0.07600
N 	N 	0.15553 0.08421 0.58265 -0.10400
N 	N 	0.33585 0.13183 0.40658 -0.11100
N 	N 	0.40350 0.15402 0.58171 -0.10000
N 	N 	0.08297 0.05089 0.40745 -0.10600
C 	C 	0.82780 0.61188 0.97526 -0.07800
C 	C 	0.84502 0.66566 0.00631 0.01900
C 	C 	0.86831 0.75171 0.00682 -0.03700
C 	C 	0.87835 0.78599 0.97654 0.01300
C 	C 	0.85941 0.73168 0.94542 -0.03800
C 	C 	0.83589 0.64549 0.94482 0.01600
C 	C 	0.84024 0.63292 0.03781 0.07800
C 	C 	0.86527 0.76512 0.91403 0.09700
C 	C 	0.81962 0.59133 0.91286 0.08300
C 	C 	0.88349 0.80575 0.03861 0.09900
N 	N 	0.80681 0.54832 0.88734 -0.10200
N 	N 	0.89566 0.84896 0.06396 -0.10400
N 	N 	0.86997 0.79191 0.88902 -0.10300
N 	N 	0.83640 0.60673 0.06294 -0.11300
C 	C 	0.88539 0.05639 0.97472 0.01300
C 	C 	0.85016 0.06841 0.00233 -0.03500
C 	C 	0.82989 0.12945 0.00365 0.01700
C 	C 	0.85117 0.18354 0.97868 -0.08400
C 	C 	0.88006 0.16653 0.94978 0.02100
C 	C 	0.89245 0.09968 0.94713 -0.04000
C 	C 	0.83731 0.02009 0.02984 0.08500
C 	C 	0.90081 0.21997 0.92353 0.09100
C 	C 	0.91455 0.07673 0.91636 0.09500
C 	C 	0.78507 0.13487 0.03015 0.04000
N 	N 	0.93224 0.05835 0.89184 -0.10700
N 	N 	0.74923 0.13906 0.05129 -0.14400
N 	N 	0.91738 0.26254 0.90256 -0.10400
N 	N 	0.82709 0.98151 0.05180 -0.09800
C 	C 	0.35466 0.18036 0.98279 -0.07900
C 	C 	0.29142 0.12889 0.95227 0.01700
C 	C 	0.19864 0.08281 0.95217 -0.03500
C 	C 	0.16870 0.08509 0.98284 0.01200
C 	C 	0.23185 0.13686 0.01333 -0.03900
C 	C 	0.32493 0.18598 0.01320 0.02200
C 	C 	0.32192 0.12251 0.92108 0.07000
C 	C 	0.20085 0.13905 0.04484 0.09500
C 	C 	0.39017 0.24465 0.04401 0.08400
C 	C 	0.13378 0.03336 0.92052 0.08800
N 	N 	0.44219 0.29157 0.06857 -0.10900
N 	N 	0.08197 0.99391 0.89530 -0.09400
N 	N 	0.17601 0.14073 0.06995 -0.10900
N 	N 	0.34631 0.11748 0.89622 -0.11900
