data_crystal

_cell_length_a 42.60551
_cell_length_b 43.07828
_cell_length_c 30.66023
_cell_angle_alpha 89.95786
_cell_angle_beta  89.95142
_cell_angle_gamma 90.49474

_symmetry_space_group_name_	'P 1'
_symmetry_space_group_name_H-M	'P 1'

loop_
_symmetry_equiv_pos_as_xyz
  x,y,z

loop_
_atom_site_label
_atom_site_type_symbol
_atom_site_fract_x
_atom_site_fract_y
_atom_site_fract_z
_atom_site_charge
Zn	Zn	0.48888 0.48560 0.00442 1.22200
C 	C 	0.50416 0.55095 0.00420 0.31800
O 	O 	0.51893 0.46729 0.04523 -0.47300
O 	O 	0.48565 0.55282 0.03846 -0.45000
O 	O 	0.53077 0.51114 0.08266 -0.49400
C 	C 	0.43071 0.50355 0.04157 0.32800
O 	O 	0.44735 0.50365 0.00558 -0.45500
O 	O 	0.44488 0.50211 0.07954 -0.50600
C 	C 	0.53952 0.48465 0.06577 0.32000
O 	O 	0.46282 0.43741 0.99932 -0.32600
Zn	Zn	0.48641 0.52060 0.08823 1.17100
O 	O 	0.51218 0.52367 0.98855 -0.43400
C 	C 	0.47636 0.43493 0.96162 0.28000
O 	O 	0.49426 0.45812 0.95057 -0.38000
Zn	Zn	0.41914 0.09690 0.99634 1.22200
C 	C 	0.43834 0.09153 0.08629 0.29100
O 	O 	0.38107 0.07853 0.02289 -0.44600
O 	O 	0.41317 0.10657 0.09849 -0.44000
O 	O 	0.36003 0.12550 0.03960 -0.50800
C 	C 	0.44379 0.15951 0.99891 0.31700
O 	O 	0.43273 0.13732 0.97372 -0.46100
O 	O 	0.43839 0.15869 0.04103 -0.49100
C 	C 	0.35678 0.09546 0.03382 0.32700
O 	O 	0.39897 0.08719 0.92539 -0.31300
Zn	Zn	0.39810 0.14420 0.06288 1.17200
O 	O 	0.44829 0.09363 0.04584 -0.42600
C 	C 	0.41931 0.06492 0.92449 0.25200
O 	O 	0.43638 0.06219 0.95906 -0.36700
C 	C 	0.51124 0.98707 0.72637 0.15100
C 	C 	0.53488 0.97146 0.74925 -0.09700
H 	H 	0.55349 0.96001 0.73149 0.07200
C 	C 	0.53458 0.97096 0.79500 0.03700
C 	C 	0.51043 0.98582 0.81773 -0.08600
C 	C 	0.48667 0.00129 0.79501 0.13700
C 	C 	0.48716 0.00199 0.74928 -0.12600
H 	H 	0.46900 0.01413 0.73155 0.08500
N 	N 	0.51189 0.98806 0.67948 -0.18200
C 	C 	0.49475 0.96671 0.65613 0.19800
C 	C 	0.49525 0.96723 0.61019 -0.07800
C 	C 	0.51424 0.98916 0.58853 0.06200
C 	C 	0.53056 0.01169 0.61290 -0.07900
C 	C 	0.52932 0.01060 0.65880 0.19800
C 	C 	0.47612 0.94704 0.58582 0.01100
C 	C 	0.47669 0.94793 0.54033 -0.05600
C 	C 	0.49854 0.96715 0.51806 0.01600
C 	C 	0.51620 0.98912 0.54237 -0.02800
C 	C 	0.53471 0.01191 0.52085 0.01700
C 	C 	0.54681 0.03562 0.59121 0.01100
C 	C 	0.54780 0.03646 0.54573 -0.05600
C 	C 	0.50202 0.96594 0.47188 0.01700
C 	C 	0.52075 0.98860 0.45041 -0.02800
C 	C 	0.53843 0.01052 0.47476 0.01600
O 	O 	0.54505 0.03126 0.68200 -0.19800
O 	O 	0.47792 0.94549 0.67680 -0.19200
H 	H 	0.55786 0.05425 0.60946 0.04600
H 	H 	0.55726 0.05702 0.53020 0.04800
H 	H 	0.45984 0.93136 0.60200 0.04700
H 	H 	0.45897 0.93491 0.52285 0.04700
C 	C 	0.56066 0.02942 0.45268 -0.05600
C 	C 	0.56177 0.02993 0.40720 0.01100
C 	C 	0.54260 0.00984 0.38270 -0.07900
C 	C 	0.52294 0.98843 0.40426 0.06100
C 	C 	0.48851 0.94167 0.44688 -0.05700
C 	C 	0.48943 0.94265 0.40141 0.01100
C 	C 	0.50619 0.96626 0.37982 -0.07900
C 	C 	0.54371 0.00994 0.33676 0.19700
N 	N 	0.52606 0.98906 0.31332 -0.18200
C 	C 	0.50757 0.96732 0.33393 0.19800
C 	C 	0.52719 0.98975 0.26643 0.15000
C 	C 	0.50928 0.01141 0.24329 -0.12600
C 	C 	0.50999 0.01180 0.19754 0.13400
C 	C 	0.52831 0.99016 0.17501 -0.08400
C 	C 	0.54639 0.96862 0.19804 0.03500
C 	C 	0.54594 0.96853 0.24376 -0.09600
O 	O 	0.56178 0.03020 0.31620 -0.19200
O 	O 	0.49084 0.94748 0.31066 -0.20000
H 	H 	0.49497 0.02791 0.26087 0.08300
H 	H 	0.55981 0.95186 0.26168 0.07100
H 	H 	0.57824 0.04248 0.47038 0.04800
H 	H 	0.57840 0.04531 0.39115 0.04700
H 	H 	0.47880 0.92117 0.46226 0.04700
H 	H 	0.47804 0.92424 0.38309 0.04500
H 	H 	0.52854 0.99011 0.13963 0.08600
H 	H 	0.51022 0.98549 0.85311 0.08600
Zn	Zn	0.62534 0.88177 0.99195 1.22400
C 	C 	0.61686 0.88984 0.08444 0.39000
O 	O 	0.66023 0.91040 0.00658 -0.43000
O 	O 	0.64630 0.88216 0.09062 -0.45800
O 	O 	0.69424 0.87103 0.01958 -0.50800
C 	C 	0.61774 0.81594 0.00761 0.32100
O 	O 	0.61945 0.83772 0.97759 -0.45600
O 	O 	0.62845 0.82133 0.04700 -0.48200
C 	C 	0.68906 0.90038 0.01120 0.32600
O 	O 	0.63443 0.89034 0.91637 -0.32500
Zn	Zn	0.66589 0.84634 0.05542 1.17300
O 	O 	0.60273 0.88243 0.04780 -0.41400
C 	C 	0.60912 0.90683 0.91842 0.36000
O 	O 	0.59588 0.90838 0.95626 -0.36800
Zn	Zn	0.09472 0.61639 0.98912 1.22200
C 	C 	0.08633 0.61069 0.08202 0.29300
O 	O 	0.08531 0.65922 0.97131 -0.46200
O 	O 	0.11421 0.62310 0.08848 -0.43800
O 	O 	0.09078 0.67868 0.03975 -0.49200
C 	C 	0.15906 0.60566 0.00955 0.32700
O 	O 	0.13125 0.59247 0.00668 -0.45100
O 	O 	0.16154 0.63575 0.01548 -0.51000
C 	C 	0.07930 0.68087 0.00019 0.31400
O 	O 	0.10781 0.60358 0.91603 -0.31000
Zn	Zn	0.13083 0.65862 0.04930 1.17100
O 	O 	0.07184 0.61482 0.04469 -0.43300
C 	C 	0.08102 0.58899 0.91624 0.25300
O 	O 	0.06529 0.59027 0.95223 -0.37700
C 	C 	0.01086 0.49980 0.26509 0.14900
C 	C 	0.99101 0.47902 0.24295 -0.09600
H 	H 	0.97711 0.46230 0.26123 0.07400
C 	C 	0.98852 0.48041 0.19741 0.03500
C 	C 	0.00617 0.50247 0.17405 -0.10000
C 	C 	0.02581 0.52347 0.19612 0.13400
C 	C 	0.02837 0.52191 0.24164 -0.11600
H 	H 	0.04323 0.53833 0.25892 0.09400
N 	N 	0.01171 0.49974 0.31192 -0.18200
C 	C 	0.03125 0.47968 0.33325 0.20000
C 	C 	0.03152 0.47854 0.37915 -0.07800
C 	C 	0.01124 0.49780 0.40280 0.06200
C 	C 	0.99272 0.51944 0.38048 -0.07800
C 	C 	0.99291 0.51977 0.33459 0.20000
C 	C 	0.05251 0.45934 0.40157 0.01200
C 	C 	0.05249 0.45843 0.44707 -0.05600
C 	C 	0.02961 0.47478 0.47117 0.01700
C 	C 	0.01007 0.49598 0.44890 -0.02800
C 	C 	0.99035 0.51630 0.47244 0.01800
C 	C 	0.97523 0.54113 0.40419 0.01200
C 	C 	0.97512 0.54044 0.44966 -0.05700
C 	C 	0.02688 0.47155 0.51723 0.01700
C 	C 	0.00703 0.49179 0.54072 -0.02800
C 	C 	0.98750 0.51298 0.51841 0.01800
O 	O 	0.97468 0.53915 0.31328 -0.20100
O 	O 	0.04970 0.46124 0.31066 -0.18900
H 	H 	0.96251 0.55930 0.38753 0.04500
H 	H 	0.96458 0.55960 0.46683 0.04800
H 	H 	0.06966 0.44582 0.38390 0.04800
H 	H 	0.07131 0.44637 0.46322 0.04900
C 	C 	0.96446 0.52918 0.54236 -0.05600
C 	C 	0.96425 0.52821 0.58781 0.01200
C 	C 	0.98521 0.50904 0.61033 -0.07800
C 	C 	0.00566 0.48988 0.58681 0.06200
C 	C 	0.04227 0.44754 0.54010 -0.05600
C 	C 	0.04193 0.44675 0.58559 0.01200
C 	C 	0.02411 0.46822 0.60924 -0.07800
C 	C 	0.98521 0.50782 0.65619 0.20000
N 	N 	0.00444 0.48754 0.67767 -0.18200
C 	C 	0.02344 0.46762 0.65516 0.19900
C 	C 	0.00448 0.48706 0.72450 0.15000
C 	C 	0.02470 0.50695 0.74762 -0.12000
C 	C 	0.02270 0.50872 0.79316 0.14000
C 	C 	0.00116 0.48984 0.81559 -0.10000
C 	C 	0.98051 0.47040 0.79257 0.03700
C 	C 	0.98240 0.46876 0.74703 -0.09600
O 	O 	0.96681 0.52639 0.67863 -0.19900
O 	O 	0.04128 0.44797 0.67661 -0.18900
H 	H 	0.04099 0.52185 0.73005 0.09300
H 	H 	0.96609 0.45421 0.72901 0.07300
H 	H 	0.94566 0.54121 0.52608 0.04800
H 	H 	0.94696 0.54163 0.60538 0.04600
H 	H 	0.05308 0.42851 0.52300 0.04800
H 	H 	0.05471 0.42866 0.60230 0.04800
H 	H 	0.99927 0.49157 0.85080 0.07100
H 	H 	0.00391 0.50389 0.13886 0.06300
Zn	Zn	0.88426 0.39675 0.99802 1.22300
C 	C 	0.82565 0.42970 0.00398 0.31800
O 	O 	0.88152 0.41426 0.93887 -0.45200
O 	O 	0.84039 0.45348 0.98634 -0.43000
O 	O 	0.90720 0.45934 0.95530 -0.50200
C 	C 	0.90181 0.42801 0.07798 0.38500
O 	O 	0.90809 0.40494 0.05144 -0.46800
O 	O 	0.88144 0.44905 0.06630 -0.47400
C 	C 	0.89915 0.43793 0.92694 0.40800
O 	O 	0.92783 0.36732 0.97493 -0.32400
Zn	Zn	0.88390 0.46696 0.00855 1.17900
O 	O 	0.84172 0.40614 0.01929 -0.42600
C 	C 	0.90849 0.34388 0.97591 0.28200
O 	O 	0.88014 0.35015 0.98808 -0.37900
Zn	Zn	0.01066 0.01731 0.01187 1.22000
C 	C 	0.01828 0.95167 0.99840 0.32000
O 	O 	0.97507 0.01984 0.05250 -0.47100
O 	O 	0.03605 0.95248 0.03346 -0.45200
O 	O 	0.97922 0.97171 0.08155 -0.49500
C 	C 	0.07195 0.01504 0.04917 0.32800
O 	O 	0.05615 0.01393 0.01250 -0.45400
O 	O 	0.05779 0.00841 0.08611 -0.50800
C 	C 	0.96168 0.99462 0.06799 0.32000
O 	O 	0.01877 0.07118 0.01870 -0.32600
Zn	Zn	0.02425 0.97732 0.08843 1.17000
O 	O 	0.00187 0.97609 0.98682 -0.43500
C 	C 	0.00600 0.07308 0.98042 0.27700
O 	O 	0.99723 0.04691 0.96329 -0.38000
C 	C 	0.91855 0.31195 0.96581 -0.07500
C 	C 	0.94788 0.30675 0.94623 0.01600
C 	C 	0.95819 0.27644 0.93908 -0.06400
C 	C 	0.93929 0.25113 0.95132 0.04100
C 	C 	0.90961 0.25621 0.96950 -0.06400
C 	C 	0.89922 0.28648 0.97669 0.01700
C 	C 	0.95147 0.22010 0.94891 -0.01600
C 	C 	0.96158 0.19409 0.94694 -0.01700
C 	C 	0.97418 0.16319 0.94656 0.04200
C 	C 	0.95416 0.13750 0.94103 -0.06600
C 	C 	0.96525 0.10749 0.94870 0.01700
C 	C 	0.99635 0.10312 0.96238 -0.07500
C 	C 	0.01683 0.12873 0.96508 0.01600
C 	C 	0.00578 0.15864 0.95712 -0.06600
H 	H 	0.96284 0.32613 0.93698 0.04300
H 	H 	0.98114 0.27267 0.92487 0.05300
H 	H 	0.89486 0.23672 0.97900 0.05300
H 	H 	0.87646 0.29008 0.99152 0.04600
H 	H 	0.92972 0.14082 0.93256 0.05300
H 	H 	0.94924 0.08788 0.94635 0.03900
H 	H 	0.04097 0.12557 0.97510 0.03800
H 	H 	0.02148 0.17837 0.96103 0.05200
C 	C 	0.95443 0.45518 0.81590 0.08900
C 	C 	0.96016 0.42865 0.84111 -0.11700
C 	C 	0.93943 0.42030 0.87458 0.09700
C 	C 	0.91315 0.43869 0.88333 -0.23500
C 	C 	0.90543 0.46281 0.85459 0.41700
C 	C 	0.92597 0.47091 0.82080 -0.21300
H 	H 	0.94523 0.40119 0.89602 0.01800
H 	H 	0.92101 0.49100 0.80073 0.12000
H 	H 	0.98179 0.41594 0.83695 0.07100
F 	F 	0.87937 0.48001 0.86165 -0.46500
C 	C 	0.96567 0.46053 0.17430 0.08600
C 	C 	0.97601 0.43988 0.14212 -0.11700
C 	C 	0.95457 0.42669 0.11292 0.08900
C 	C 	0.92258 0.43419 0.11554 -0.23700
C 	C 	0.91187 0.45213 0.15079 0.40900
C 	C 	0.93340 0.46539 0.17988 -0.21400
H 	H 	0.96311 0.41228 0.08660 0.02100
H 	H 	0.92514 0.48070 0.20538 0.11700
H 	H 	0.00085 0.43542 0.13823 0.06900
F 	F 	0.88077 0.45775 0.15577 -0.45700
C 	C 	0.06226 0.70900 0.98716 -0.10200
C 	C 	0.06595 0.72125 0.94495 0.02000
C 	C 	0.05392 0.75050 0.93482 -0.07300
C 	C 	0.03799 0.76756 0.96668 0.04100
C 	C 	0.03239 0.75443 0.00781 -0.07400
C 	C 	0.04449 0.72528 0.01806 0.02100
C 	C 	0.03143 0.79987 0.95951 -0.02300
C 	C 	0.02559 0.82700 0.95483 -0.02100
C 	C 	0.01999 0.85983 0.95193 0.04000
C 	C 	0.04500 0.87997 0.94203 -0.07200
C 	C 	0.04312 0.91143 0.95274 0.02500
C 	C 	0.01615 0.92291 0.97315 -0.09800
C 	C 	0.98978 0.90350 0.97810 0.02300
C 	C 	0.99175 0.87196 0.96772 -0.07100
H 	H 	0.07934 0.70880 0.92064 0.03400
H 	H 	0.05815 0.76041 0.90283 0.05100
H 	H 	0.01981 0.76737 0.03247 0.04800
H 	H 	0.04084 0.71577 0.05041 0.03200
H 	H 	0.06673 0.87088 0.92905 0.05000
H 	H 	0.06345 0.92637 0.94808 0.03000
H 	H 	0.96865 0.91227 0.99328 0.03000
H 	H 	0.97209 0.85663 0.97479 0.05000
C 	C 	0.06882 0.57262 0.87783 0.00800
C 	C 	0.03822 0.57848 0.86343 -0.05200
C 	C 	0.02401 0.55887 0.83293 0.02700
C 	C 	0.04011 0.53298 0.81700 -0.13800
C 	C 	0.07151 0.52831 0.82908 0.35600
C 	C 	0.08588 0.54823 0.85928 -0.14900
H 	H 	0.99991 0.56287 0.82333 0.03300
H 	H 	0.10965 0.54372 0.86996 0.11000
H 	H 	0.02503 0.59753 0.87713 0.05500
F 	F 	0.08751 0.50360 0.81336 -0.44800
C 	C 	0.07161 0.59134 0.11601 -0.01400
C 	C 	0.03905 0.59250 0.12262 -0.04600
C 	C 	0.02433 0.57120 0.15043 0.02100
C 	C 	0.04197 0.54839 0.17168 -0.13500
C 	C 	0.07475 0.54807 0.16668 0.34900
C 	C 	0.08951 0.56957 0.13904 -0.14300
H 	H 	0.99908 0.57186 0.15455 0.03000
H 	H 	0.11468 0.56850 0.13419 0.10400
H 	H 	0.02506 0.60949 0.10550 0.05300
F 	F 	0.09210 0.52620 0.18721 -0.45000
C 	C 	0.92715 0.99067 0.06567 -0.10100
C 	C 	0.91267 0.96411 0.08359 0.02400
C 	C 	0.88076 0.95829 0.07643 -0.07400
C 	C 	0.86297 0.97899 0.05158 0.04300
C 	C 	0.87689 0.00623 0.03542 -0.07100
C 	C 	0.90883 0.01213 0.04247 0.02400
C 	C 	0.83117 0.97097 0.03988 -0.02000
C 	C 	0.80464 0.96345 0.03076 -0.01900
C 	C 	0.77346 0.95288 0.01979 0.04400
C 	C 	0.74803 0.96034 0.04677 -0.07000
C 	C 	0.71911 0.94513 0.04131 0.02700
C 	C 	0.71567 0.92217 0.00917 -0.09500
C 	C 	0.74046 0.91645 0.98023 0.02900
C 	C 	0.76923 0.93182 0.98547 -0.07100
H 	H 	0.92625 0.94759 0.10218 0.02900
H 	H 	0.87007 0.93728 0.08930 0.04800
H 	H 	0.86320 0.02246 0.01644 0.05400
H 	H 	0.91947 0.03290 0.02882 0.03800
H 	H 	0.75101 0.97682 0.07315 0.05400
H 	H 	0.70005 0.94983 0.06372 0.03700
H 	H 	0.73793 0.89899 0.95503 0.03200
H 	H 	0.78868 0.92620 0.96415 0.05300
C 	C 	0.55946 0.95486 0.81944 0.09000
C 	C 	0.56134 0.92236 0.81806 -0.11000
C 	C 	0.57986 0.90658 0.84841 0.09200
C 	C 	0.59642 0.92319 0.88044 -0.21000
C 	C 	0.59644 0.95577 0.87966 0.41400
C 	C 	0.57820 0.97153 0.84905 -0.20600
H 	H 	0.57991 0.88143 0.84855 0.02100
H 	H 	0.57736 0.99666 0.84980 0.12100
H 	H 	0.54721 0.90928 0.79505 0.07200
F 	F 	0.61299 0.97212 0.90985 -0.44800
C 	C 	0.56535 0.94586 0.17405 0.09300
C 	C 	0.59763 0.95098 0.16819 -0.11500
C 	C 	0.61482 0.93178 0.14039 0.09700
C 	C 	0.59980 0.90734 0.11814 -0.22700
C 	C 	0.56776 0.90130 0.12580 0.41600
C 	C 	0.55065 0.92056 0.15355 -0.21000
H 	H 	0.63951 0.93661 0.13490 0.02000
H 	H 	0.52578 0.91628 0.15833 0.12100
H 	H 	0.60917 0.97043 0.18404 0.07400
F 	F 	0.55319 0.87693 0.10608 -0.44900
C 	C 	0.10595 0.02200 0.04855 -0.10300
C 	C 	0.12363 0.01669 0.01057 0.02500
C 	C 	0.15585 0.02317 0.01001 -0.07300
C 	C 	0.17066 0.03497 0.04730 0.04300
C 	C 	0.15318 0.04014 0.08530 -0.07400
C 	C 	0.12095 0.03368 0.08598 0.02300
C 	C 	0.20356 0.04290 0.04611 -0.02000
C 	C 	0.23109 0.04962 0.04551 -0.02000
C 	C 	0.26374 0.05858 0.04518 0.04400
C 	C 	0.27491 0.08015 0.07570 -0.07500
C 	C 	0.30575 0.09127 0.07298 0.02800
C 	C 	0.32570 0.08087 0.03968 -0.10200
C 	C 	0.31487 0.05829 0.01015 0.02800
C 	C 	0.28391 0.04726 0.01282 -0.07200
H 	H 	0.11250 0.00736 0.98160 0.03800
H 	H 	0.16923 0.01913 0.98051 0.05300
H 	H 	0.16449 0.04939 0.11422 0.04900
H 	H 	0.10763 0.03805 0.11542 0.03000
H 	H 	0.25952 0.08882 0.10098 0.05000
H 	H 	0.31398 0.10836 0.09632 0.01800
H 	H 	0.33005 0.05006 0.98433 0.03800
H 	H 	0.27545 0.03047 0.98920 0.05500
C 	C 	0.42814 0.04952 0.88371 0.01100
C 	C 	0.44479 0.06618 0.85173 -0.05200
C 	C 	0.46180 0.05034 0.81980 0.02900
C 	C 	0.46206 0.01776 0.81950 -0.13500
C 	C 	0.44249 0.00127 0.84844 0.35700
C 	C 	0.42583 0.01712 0.88068 -0.14800
H 	H 	0.47639 0.06333 0.79716 0.03200
H 	H 	0.41254 0.00410 0.90479 0.10800
H 	H 	0.44640 0.09126 0.85349 0.05600
F 	F 	0.44128 0.96978 0.84713 -0.44600
C 	C 	0.45652 0.07378 0.11840 -0.01000
C 	C 	0.44121 0.05359 0.14756 -0.04600
C 	C 	0.45870 0.03412 0.17463 0.02400
C 	C 	0.49163 0.03491 0.17302 -0.13300
C 	C 	0.50693 0.05628 0.14545 0.35300
C 	C 	0.48943 0.07545 0.11806 -0.14100
H 	H 	0.44668 0.01782 0.19592 0.03100
H 	H 	0.50145 0.09139 0.09622 0.11100
H 	H 	0.41581 0.05219 0.14818 0.05300
F 	F 	0.53875 0.05807 0.14469 -0.44700
C 	C 	0.45792 0.18763 0.97928 -0.10300
C 	C 	0.44817 0.19773 0.93787 0.02100
C 	C 	0.45631 0.22749 0.92320 -0.07200
C 	C 	0.47437 0.24722 0.94963 0.04200
C 	C 	0.48637 0.23621 0.98921 -0.07200
C 	C 	0.47821 0.20651 0.00400 0.02200
C 	C 	0.47634 0.27986 0.93975 -0.02100
C 	C 	0.47835 0.30729 0.93232 -0.01800
C 	C 	0.47946 0.34040 0.92611 0.04000
C 	C 	0.45137 0.35675 0.92146 -0.06600
C 	C 	0.45087 0.38879 0.92853 0.01700
C 	C 	0.47851 0.40468 0.93998 -0.07700
C 	C 	0.50717 0.38886 0.93978 0.01800
C 	C 	0.50761 0.35672 0.93312 -0.06600
H 	H 	0.43291 0.18325 0.91810 0.03600
H 	H 	0.44725 0.23572 0.89230 0.05200
H 	H 	0.50074 0.25119 0.00954 0.05200
H 	H 	0.48663 0.19868 0.03543 0.03600
H 	H 	0.42957 0.34437 0.91532 0.05000
H 	H 	0.42868 0.40088 0.92795 0.03400
H 	H 	0.52873 0.40098 0.94813 0.03700
H 	H 	0.52953 0.34432 0.93616 0.05200
C 	C 	0.18756 0.58679 0.00673 -0.10200
C 	C 	0.21415 0.59849 0.98500 0.02700
C 	C 	0.24265 0.58283 0.98757 -0.07300
C 	C 	0.24482 0.55543 0.01194 0.04400
C 	C 	0.21797 0.54286 0.03192 -0.07100
C 	C 	0.18935 0.55844 0.02921 0.02800
C 	C 	0.27507 0.54187 0.01949 -0.01900
C 	C 	0.30084 0.53127 0.02500 -0.01900
C 	C 	0.33216 0.51996 0.03153 0.04400
C 	C 	0.34791 0.52639 0.07062 -0.07400
C 	C 	0.37986 0.51988 0.07462 0.02600
C 	C 	0.39631 0.50692 0.03942 -0.10200
C 	C 	0.38005 0.49905 0.00106 0.02800
C 	C 	0.34811 0.50565 0.99713 -0.07200
H 	H 	0.21291 0.62009 0.96700 0.03100
H 	H 	0.26326 0.59251 0.97171 0.05200
H 	H 	0.21945 0.52156 0.05062 0.05600
H 	H 	0.16896 0.54915 0.04602 0.04000
H 	H 	0.33567 0.53738 0.09740 0.05000
H 	H 	0.39200 0.52590 0.10450 0.02100
H 	H 	0.39226 0.48839 0.97400 0.03800
H 	H 	0.33601 0.50045 0.96689 0.05400
C 	C 	0.57289 0.47579 0.06610 -0.10300
C 	C 	0.58132 0.44457 0.06046 0.02400
C 	C 	0.61284 0.43661 0.05512 -0.07200
C 	C 	0.63614 0.45973 0.05549 0.04400
C 	C 	0.62796 0.49072 0.06281 -0.07300
C 	C 	0.59647 0.49876 0.06813 0.02500
C 	C 	0.66816 0.45198 0.04566 -0.02000
C 	C 	0.69508 0.44587 0.03748 -0.01700
C 	C 	0.72729 0.43928 0.02710 0.04200
C 	C 	0.74555 0.42171 0.05580 -0.06600
C 	C 	0.77749 0.41741 0.04736 0.02400
C 	C 	0.79138 0.43083 0.01018 -0.08800
C 	C 	0.77273 0.44749 0.98072 0.02200
C 	C 	0.74082 0.45171 0.98920 -0.06700
H 	H 	0.56344 0.42655 0.05937 0.03500
H 	H 	0.61903 0.41257 0.04976 0.05300
H 	H 	0.64591 0.50870 0.06331 0.05100
H 	H 	0.59037 0.52294 0.07232 0.03200
H 	H 	0.73518 0.41191 0.08507 0.05500
H 	H 	0.79159 0.40453 0.07039 0.04900
H 	H 	0.78305 0.45758 0.95162 0.04600
H 	H 	0.72676 0.46511 0.96669 0.05400
C 	C 	0.51712 0.57957 0.98493 -0.09600
C 	C 	0.49776 0.60549 0.97955 0.02400
C 	C 	0.51101 0.63475 0.97159 -0.07100
C 	C 	0.54367 0.63830 0.96908 0.04200
C 	C 	0.56287 0.61205 0.97085 -0.07100
C 	C 	0.54962 0.58272 0.97862 0.02300
C 	C 	0.55752 0.66887 0.97146 -0.01900
C 	C 	0.56915 0.69444 0.97345 -0.01900
C 	C 	0.58325 0.72475 0.97825 0.04500
C 	C 	0.60899 0.72871 0.00613 -0.07400
C 	C 	0.62055 0.75846 0.01510 0.02600
C 	C 	0.60651 0.78456 0.99611 -0.10000
C 	C 	0.58136 0.78051 0.96701 0.03100
C 	C 	0.56968 0.75066 0.95826 -0.07100
H 	H 	0.47257 0.60322 0.98357 0.03400
H 	H 	0.49597 0.65487 0.96964 0.05300
H 	H 	0.58814 0.61456 0.96847 0.05100
H 	H 	0.56479 0.56284 0.98241 0.03400
H 	H 	0.61964 0.70878 0.02160 0.04900
H 	H 	0.64031 0.76122 0.03701 0.01200
H 	H 	0.57039 0.80045 0.95204 0.04200
H 	H 	0.54973 0.74778 0.93670 0.05600
