data_crystal

_cell_length_a 25.96846
_cell_length_b 26.46193
_cell_length_c 35.02974
_cell_angle_alpha 95.50286
_cell_angle_beta  95.50015
_cell_angle_gamma 125.85169

_symmetry_space_group_name_	'P 1'
_symmetry_space_group_name_H-M	'P 1'

loop_
_symmetry_equiv_pos_as_xyz
  x,y,z

loop_
_atom_site_label
_atom_site_type_symbol
_atom_site_fract_x
_atom_site_fract_y
_atom_site_fract_z
_atom_site_charge
C 	C 	0.00045 0.05876 0.00249 0.18400
N 	N 	0.96162 0.99439 0.99497 -0.11500
C 	C 	0.98782 0.96273 0.99277 0.19800
N 	N 	0.05291 0.99539 0.99787 -0.11500
C 	C 	0.09198 0.05980 0.00577 0.18600
N 	N 	0.06574 0.09158 0.00820 -0.11600
C 	C 	0.90530 0.96891 0.45293 0.19500
N 	N 	0.97091 0.00488 0.46017 -0.12400
C 	C 	0.00082 0.97695 0.46426 0.20200
N 	N 	0.96515 0.91311 0.46145 -0.12000
C 	C 	0.89960 0.87702 0.45430 0.19500
N 	N 	0.86959 0.90488 0.44982 -0.11800
Cu	Cu	0.68813 0.29435 0.01069 0.93500
Cu	Cu	0.69774 0.25108 0.92265 0.91300
Cu	Cu	0.68525 0.36550 0.94789 0.92500
Cu	Cu	0.67895 0.40928 0.02983 0.91800
C 	C 	0.70645 0.35076 0.08900 0.40400
O 	O 	0.59661 0.24791 0.02080 -0.30600
C 	C 	0.68528 0.32294 0.87143 0.39600
O 	O 	0.72323 0.38647 0.00201 -0.63400
O 	O 	0.65678 0.27862 0.95378 -0.62200
O 	O 	0.74643 0.26795 0.01119 -0.33000
O 	O 	0.69318 0.19543 0.95439 -0.36800
O 	O 	0.70906 0.40018 0.08160 -0.32900
O 	O 	0.71993 0.45149 0.94316 -0.31700
C 	C 	0.72544 0.49242 0.97104 0.32900
C 	C 	0.56201 0.26839 0.01298 0.32300
O 	O 	0.58731 0.32165 0.99998 -0.35400
O 	O 	0.68995 0.47302 0.99842 -0.34000
O 	O 	0.72418 0.32425 0.06521 -0.32500
C 	C 	0.73385 0.21863 0.98766 0.33800
O 	O 	0.65777 0.34160 0.89199 -0.33000
O 	O 	0.72530 0.31385 0.88940 -0.36900
H 	H 	0.77085 0.41858 0.00757 0.20300
H 	H 	0.60914 0.24757 0.94655 0.19400
Cu	Cu	0.69808 0.30408 0.44017 0.93800
Cu	Cu	0.72396 0.27546 0.52607 0.89800
Cu	Cu	0.61341 0.27773 0.50145 0.91000
Cu	Cu	0.56569 0.28470 0.42163 0.92000
C 	C 	0.64074 0.28394 0.36156 0.39700
O 	O 	0.72704 0.39217 0.43396 -0.32300
C 	C 	0.67591 0.31189 0.58430 0.39100
O 	O 	0.60046 0.24825 0.44676 -0.63600
O 	O 	0.70643 0.32433 0.49722 -0.63400
O 	O 	0.75036 0.27131 0.43948 -0.31600
O 	O 	0.70150 0.21046 0.48451 -0.39800
O 	O 	0.58683 0.27405 0.36920 -0.32600
O 	O 	0.52201 0.22603 0.50309 -0.32700
C 	C 	0.47717 0.22043 0.47768 0.33400
C 	C 	0.69703 0.41494 0.44636 0.33000
O 	O 	0.64141 0.37740 0.45724 -0.35500
O 	O 	0.49215 0.25453 0.44984 -0.34300
O 	O 	0.67422 0.27291 0.38534 -0.32000
C 	C 	0.73588 0.22391 0.45690 0.33400
O 	O 	0.62915 0.30273 0.55846 -0.32900
O 	O 	0.72722 0.31978 0.57370 -0.35700
H 	H 	0.57496 0.20159 0.43896 0.20400
H 	H 	0.73304 0.37005 0.50887 0.21300
C 	C 	0.67296 0.27611 0.76374 0.23400
C 	C 	0.67455 0.32424 0.74874 0.00200
C 	C 	0.67857 0.37144 0.77396 0.23600
C 	C 	0.68180 0.37102 0.81402 0.32100
C 	C 	0.68038 0.32288 0.82913 -0.20700
C 	C 	0.67558 0.27526 0.80371 0.31500
C 	C 	0.67336 0.32583 0.70669 0.00100
F 	F 	0.67991 0.41802 0.75966 -0.32800
F 	F 	0.67285 0.22780 0.81774 -0.38900
C 	C 	0.61583 0.28169 0.67957 0.23700
C 	C 	0.61610 0.27879 0.63951 0.31300
C 	C 	0.67394 0.32033 0.62624 -0.20100
C 	C 	0.73081 0.36670 0.65349 0.31700
C 	C 	0.73055 0.36910 0.69353 0.23500
F 	F 	0.56000 0.24055 0.69208 -0.33200
F 	F 	0.78631 0.40926 0.64116 -0.35900
F 	F 	0.56074 0.23391 0.61360 -0.36700
F 	F 	0.78621 0.41259 0.71959 -0.33000
F 	F 	0.66927 0.23038 0.73955 -0.33700
F 	F 	0.68803 0.41827 0.83828 -0.35900
C 	C 	0.74616 0.37146 0.19835 0.23600
C 	C 	0.68891 0.31729 0.20555 0.00300
C 	C 	0.63925 0.27228 0.17410 0.23600
C 	C 	0.64603 0.28224 0.13583 0.31600
C 	C 	0.70220 0.33756 0.12877 -0.20400
C 	C 	0.75265 0.38171 0.16009 0.32500
C 	C 	0.67899 0.31009 0.24602 0.00100
F 	F 	0.58371 0.21979 0.18075 -0.33200
F 	F 	0.80765 0.43481 0.15346 -0.35700
C 	C 	0.66638 0.34779 0.26782 0.23500
C 	C 	0.65480 0.33972 0.30570 0.31600
C 	C 	0.65499 0.29337 0.32204 -0.20000
C 	C 	0.66796 0.25578 0.30028 0.32000
C 	C 	0.68019 0.26436 0.26247 0.23700
F 	F 	0.66485 0.39195 0.25209 -0.33200
F 	F 	0.66715 0.20998 0.31537 -0.35600
F 	F 	0.64400 0.37740 0.32673 -0.37100
F 	F 	0.69264 0.22788 0.24166 -0.32800
F 	F 	0.79492 0.41468 0.22852 -0.32900
F 	F 	0.59721 0.23907 0.10569 -0.37400
C 	C 	0.86134 0.80765 0.45051 -0.05100
C 	C 	0.83210 0.77848 0.48152 0.10600
C 	C 	0.80209 0.71333 0.47981 0.07800
C 	C 	0.80370 0.67792 0.44785 0.01600
C 	C 	0.83188 0.70686 0.41651 0.07700
C 	C 	0.85924 0.77130 0.41744 0.10700
C 	C 	0.77642 0.61046 0.44743 0.02400
C 	C 	0.81447 0.59491 0.46628 0.07000
C 	C 	0.78794 0.53100 0.46698 0.13100
C 	C 	0.72455 0.48223 0.44665 -0.10200
C 	C 	0.68715 0.49793 0.42683 0.13500
C 	C 	0.71245 0.56197 0.42824 0.07100
Br	Br	0.83422 0.65846 0.37280 -0.07900
Br	Br	0.83573 0.82841 0.52707 -0.09300
Br	Br	0.83700 0.51067 0.49773 -0.13200
Br	Br	0.65939 0.58350 0.40416 -0.08800
Br	Br	0.89319 0.80982 0.37326 -0.09400
Br	Br	0.75909 0.67248 0.52125 -0.09600
Br	Br	0.90311 0.66134 0.49095 -0.09300
Br	Br	0.60228 0.43190 0.39638 -0.11400
C 	C 	0.75982 0.18684 0.44640 -0.10600
C 	C 	0.71547 0.12159 0.43035 0.13400
C 	C 	0.73642 0.08310 0.42819 0.06500
C 	C 	0.80233 0.11045 0.44039 0.02600
C 	C 	0.84759 0.17669 0.45280 0.06900
C 	C 	0.82625 0.21476 0.45652 0.12600
C 	C 	0.82353 0.06933 0.44257 0.01000
C 	C 	0.82864 0.04996 0.47796 0.08200
C 	C 	0.85448 0.01604 0.48119 0.09300
C 	C 	0.87308 0.99945 0.44866 -0.03700
C 	C 	0.86458 0.01569 0.41267 0.09300
C 	C 	0.84092 0.05161 0.40979 0.08200
Br	Br	0.93862 0.21486 0.46550 -0.09900
Br	Br	0.62633 0.08541 0.41073 -0.11300
Br	Br	0.86646 0.99404 0.53050 -0.08900
Br	Br	0.83362 0.07783 0.36130 -0.08700
Br	Br	0.88753 0.30447 0.47743 -0.13300
Br	Br	0.67473 0.99272 0.40982 -0.08500
Br	Br	0.80065 0.07049 0.52202 -0.11400
Br	Br	0.88487 0.98815 0.36734 -0.08600
C 	C 	0.07175 0.01544 0.47027 -0.05900
C 	C 	0.10334 0.03610 0.43842 0.10700
C 	C 	0.17096 0.07083 0.44383 0.07700
C 	C 	0.20683 0.08285 0.48077 0.01400
C 	C 	0.17517 0.06180 0.51257 0.07700
C 	C 	0.10777 0.02905 0.50745 0.10700
C 	C 	0.27781 0.11743 0.48601 0.02500
C 	C 	0.30339 0.08422 0.47689 0.06700
C 	C 	0.36969 0.11795 0.47587 0.12900
C 	C 	0.41060 0.18475 0.48497 -0.09900
C 	C 	0.38609 0.21751 0.49776 0.13200
C 	C 	0.31949 0.18400 0.49753 0.07000
Br	Br	0.22420 0.07729 0.56294 -0.08600
Br	Br	0.05358 0.01467 0.38711 -0.10100
Br	Br	0.40411 0.07293 0.46062 -0.13300
Br	Br	0.28484 0.22924 0.51168 -0.09500
Br	Br	0.06470 0.00351 0.55140 -0.10400
Br	Br	0.21473 0.10214 0.40073 -0.10600
Br	Br	0.24718 0.99268 0.46498 -0.08800
Br	Br	0.44408 0.30812 0.51622 -0.10500
C 	C 	0.76198 0.55933 0.96722 -0.09800
C 	C 	0.83007 0.59837 0.97527 0.12800
C 	C 	0.86522 0.66380 0.97565 0.07100
C 	C 	0.83227 0.69035 0.96869 0.02400
C 	C 	0.76425 0.65081 0.95861 0.07100
C 	C 	0.72914 0.58511 0.95729 0.13400
C 	C 	0.86893 0.76005 0.97429 0.01900
C 	C 	0.88371 0.79538 0.01167 0.07400
C 	C 	0.92272 0.86198 0.01771 0.10400
C 	C 	0.94588 0.89320 0.98623 -0.04900
C 	C 	0.92937 0.85789 0.94860 0.10700
C 	C 	0.89127 0.79129 0.94266 0.07700
Br	Br	0.71940 0.68707 0.94753 -0.09000
Br	Br	0.87502 0.56240 0.98705 -0.13900
Br	Br	0.94574 0.91074 0.06925 -0.09400
Br	Br	0.87020 0.74269 0.89141 -0.08000
Br	Br	0.63635 0.53011 0.94080 -0.09300
Br	Br	0.95855 0.71752 0.98646 -0.09100
Br	Br	0.85073 0.75226 0.05456 -0.10300
Br	Br	0.95867 0.90096 0.90524 -0.09200
C 	C 	0.77670 0.19973 0.99410 -0.10400
C 	C 	0.84254 0.24215 0.99159 0.12700
C 	C 	0.88314 0.22356 0.99673 0.07400
C 	C 	0.85724 0.16130 0.00186 0.01900
C 	C 	0.79152 0.11893 0.00451 0.07100
C 	C 	0.75155 0.13856 0.00129 0.12500
C 	C 	0.89811 0.13923 0.00207 0.01200
C 	C 	0.90476 0.11576 0.96652 0.08100
C 	C 	0.94260 0.09376 0.96669 0.10800
C 	C 	0.97151 0.09261 0.00237 -0.05300
C 	C 	0.96644 0.11770 0.03790 0.10700
C 	C 	0.93046 0.14183 0.03774 0.07800
Br	Br	0.75621 0.03373 0.01175 -0.10000
Br	Br	0.87608 0.32414 0.97853 -0.15200
Br	Br	0.95531 0.06539 0.91809 -0.09700
Br	Br	0.92493 0.17802 0.08624 -0.09000
Br	Br	0.66261 0.08210 0.00727 -0.10200
Br	Br	0.97426 0.28306 0.99637 -0.09200
Br	Br	0.86071 0.11249 0.91768 -0.10200
Br	Br	0.00702 0.11695 0.08673 -0.10100
C 	C 	0.49487 0.23228 0.01936 -0.09900
C 	C 	0.47768 0.26103 0.04589 0.13500
C 	C 	0.41215 0.23374 0.04567 0.07100
C 	C 	0.36374 0.17497 0.02116 0.02200
C 	C 	0.38112 0.14271 0.99786 0.07400
C 	C 	0.44663 0.17204 0.99619 0.13600
C 	C 	0.29476 0.14853 0.01852 0.01100
C 	C 	0.26000 0.11323 0.04623 0.07800
C 	C 	0.19468 0.08865 0.04380 0.10600
C 	C 	0.16264 0.09490 0.01192 -0.05400
C 	C 	0.19738 0.13017 0.98416 0.10900
C 	C 	0.26388 0.15868 0.98820 0.08100
Br	Br	0.31497 0.05882 0.96791 -0.09500
Br	Br	0.54404 0.33670 0.08334 -0.13800
Br	Br	0.14956 0.04833 0.08477 -0.10100
Br	Br	0.31290 0.21168 0.95230 -0.10400
Br	Br	0.46994 0.13097 0.96104 -0.13400
Br	Br	0.38855 0.27796 0.07769 -0.09300
Br	Br	0.30152 0.09724 0.08684 -0.08300
Br	Br	0.15318 0.13654 0.93951 -0.09900
