data_crystal

_cell_length_a 35.20624
_cell_length_b 35.74843
_cell_length_c 26.52250
_cell_angle_alpha 95.56823
_cell_angle_beta  95.56658
_cell_angle_gamma 125.36276

_symmetry_space_group_name_	'P 1'
_symmetry_space_group_name_H-M	'P 1'

loop_
_symmetry_equiv_pos_as_xyz
  x,y,z

loop_
_atom_site_label
_atom_site_type_symbol
_atom_site_fract_x
_atom_site_fract_y
_atom_site_fract_z
_atom_site_charge
C 	C 	0.98410 0.02778 0.99228 0.12200
N 	N 	0.02903 0.05134 0.98288 -0.14300
C 	C 	0.04947 0.02902 0.97637 0.11900
C 	C 	0.02041 0.00052 0.42566 0.11900
N 	N 	0.99806 0.02125 0.42523 -0.14000
Cu	Cu	0.65970 0.27140 0.99687 0.92800
Cu	Cu	0.70382 0.27476 0.89245 0.87300
Cu	Cu	0.68838 0.34541 0.92982 0.89800
Cu	Cu	0.65378 0.35498 0.02593 0.89600
C 	C 	0.66721 0.30596 0.10257 0.30200
O 	O 	0.58935 0.24085 0.99038 -0.35300
C 	C 	0.67839 0.31335 0.81885 0.30600
O 	O 	0.69548 0.34375 0.00179 -0.63900
O 	O 	0.65741 0.27688 0.92329 -0.64100
O 	O 	0.69099 0.23951 0.99862 -0.36800
O 	O 	0.74585 0.28816 0.95343 -0.43900
O 	O 	0.64442 0.32292 0.08618 -0.37400
O 	O 	0.72170 0.41244 0.94150 -0.37800
C 	C 	0.71401 0.43633 0.97477 0.28700
C 	C 	0.56981 0.25906 0.96911 0.28500
O 	O 	0.59675 0.30270 0.96317 -0.38900
O 	O 	0.67969 0.41525 0.00165 -0.38800
O 	O 	0.67149 0.27849 0.07043 -0.34500
C 	C 	0.73212 0.25785 0.98432 0.29200
O 	O 	0.69305 0.34853 0.85656 -0.38300
O 	O 	0.67664 0.27682 0.82793 -0.40300
H 	H 	0.72862 0.36475 0.02096 0.16600
H 	H 	0.62530 0.25718 0.90151 0.18300
Cu	Cu	0.72228 0.33322 0.42714 0.93000
Cu	Cu	0.71972 0.29093 0.53225 0.87300
Cu	Cu	0.64736 0.30500 0.49457 0.89900
Cu	Cu	0.63651 0.33777 0.39776 0.89600
C 	C 	0.68663 0.32489 0.32123 0.30200
O 	O 	0.75282 0.40244 0.43290 -0.35100
C 	C 	0.68055 0.31595 0.60572 0.30600
O 	O 	0.64878 0.29750 0.42252 -0.64100
O 	O 	0.71703 0.33610 0.50083 -0.64000
O 	O 	0.75447 0.30210 0.42568 -0.36600
O 	O 	0.70515 0.24880 0.47159 -0.43900
O 	O 	0.66892 0.34691 0.33742 -0.37500
O 	O 	0.57922 0.27145 0.48319 -0.37800
C 	C 	0.55441 0.27770 0.44896 0.29100
C 	C 	0.73375 0.42147 0.45319 0.28500
O 	O 	0.68968 0.39459 0.45987 -0.38700
O 	O 	0.57538 0.31177 0.42237 -0.39200
O 	O 	0.71474 0.32104 0.35353 -0.34700
C 	C 	0.73546 0.26163 0.44024 0.29000
O 	O 	0.64465 0.30117 0.56807 -0.38300
O 	O 	0.71791 0.31825 0.59652 -0.40300
H 	H 	0.62768 0.26473 0.40371 0.16500
H 	H 	0.73687 0.36787 0.52226 0.18300
C 	C 	0.63482 0.28376 0.67528 -0.03900
C 	C 	0.67466 0.32093 0.65958 -0.08700
C 	C 	0.71145 0.35972 0.69683 0.12400
C 	C 	0.71065 0.35860 0.74934 -0.03900
C 	C 	0.67315 0.31917 0.76502 -0.08800
C 	C 	0.63383 0.28282 0.72779 0.12400
Br	Br	0.57833 0.23197 0.74792 -0.25200
H 	H 	0.60555 0.25457 0.64674 0.06500
H 	H 	0.74021 0.38751 0.77788 0.06500
Br	Br	0.76274 0.41466 0.67673 -0.25200
C 	C 	0.71666 0.34686 0.18970 -0.04100
C 	C 	0.67589 0.30695 0.15805 -0.08200
C 	C 	0.64117 0.27068 0.18044 0.12800
C 	C 	0.64647 0.27564 0.23417 -0.04100
C 	C 	0.68601 0.31664 0.26582 -0.08200
C 	C 	0.72183 0.35192 0.24343 0.12800
Br	Br	0.77697 0.40821 0.28561 -0.23500
H 	H 	0.74359 0.37470 0.17257 0.05400
H 	H 	0.61897 0.24831 0.25130 0.05400
Br	Br	0.58514 0.21517 0.13827 -0.23400
C 	C 	0.75885 0.47258 0.46035 -0.08300
C 	C 	0.74352 0.49417 0.49063 0.01600
C 	C 	0.76258 0.54115 0.49133 -0.06800
C 	C 	0.81432 0.54623 0.43392 -0.06600
C 	C 	0.79529 0.49929 0.43306 0.01800
H 	H 	0.71614 0.47435 0.51271 0.03800
H 	H 	0.74963 0.55713 0.51369 0.05300
H 	H 	0.80774 0.48333 0.40974 0.05300
C 	C 	0.75205 0.23306 0.42627 -0.09500
C 	C 	0.72243 0.18466 0.42501 0.01900
C 	C 	0.74017 0.15851 0.41901 -0.07300
C 	C 	0.78754 0.18044 0.41407 0.04700
C 	C 	0.81654 0.22826 0.41279 -0.07200
C 	C 	0.79887 0.25451 0.41873 0.01900
C 	C 	0.80736 0.15470 0.41426 -0.03000
C 	C 	0.82405 0.13326 0.41441 0.00200
C 	C 	0.84410 0.10864 0.41570 -0.00300
C 	C 	0.86172 0.08810 0.41761 -0.02300
C 	C 	0.88353 0.06431 0.42068 0.03200
C 	C 	0.85897 0.01792 0.39518 -0.05200
C 	C 	0.92690 0.01872 0.42556 -0.02100
C 	C 	0.95109 0.06501 0.45166 -0.01500
C 	C 	0.92948 0.08767 0.44916 -0.05300
H 	H 	0.68600 0.16749 0.42981 0.03100
H 	H 	0.71741 0.12144 0.41952 0.05100
H 	H 	0.85313 0.24539 0.40862 0.05300
H 	H 	0.82209 0.29174 0.41938 0.03800
H 	H 	0.98664 0.08345 0.47383 0.04100
H 	H 	0.94855 0.12345 0.46923 0.04700
C 	C 	0.07179 0.02830 0.42584 -0.02400
C 	C 	0.10232 0.07476 0.45264 -0.01400
C 	C 	0.15121 0.10043 0.45435 -0.05400
C 	C 	0.16994 0.07992 0.42931 0.03300
C 	C 	0.13958 0.03381 0.40206 -0.05400
C 	C 	0.09069 0.00807 0.40026 -0.01300
C 	C 	0.22036 0.10595 0.43213 -0.02300
C 	C 	0.26254 0.12755 0.43434 -0.00200
C 	C 	0.31191 0.15274 0.43689 0.00300
C 	C 	0.35408 0.17432 0.43904 -0.02900
C 	C 	0.40446 0.20030 0.44156 0.04800
C 	C 	0.43032 0.24552 0.43078 -0.07100
C 	C 	0.47926 0.27085 0.43321 0.02000
C 	C 	0.50275 0.25107 0.44649 -0.08700
C 	C 	0.47665 0.20567 0.45729 0.02000
C 	C 	0.42769 0.18042 0.45483 -0.07100
H 	H 	0.08829 0.09072 0.47281 0.04000
H 	H 	0.17452 0.13611 0.47546 0.04800
H 	H 	0.15384 0.01783 0.38244 0.04800
H 	H 	0.41256 0.26111 0.42059 0.05200
H 	H 	0.49891 0.30596 0.42524 0.03600
H 	H 	0.49419 0.18982 0.46716 0.03400
H 	H 	0.40786 0.14541 0.46314 0.05300
C 	C 	0.73948 0.48692 0.97622 -0.08600
C 	C 	0.78564 0.51372 0.96569 0.02000
C 	C 	0.71782 0.50869 0.98838 0.01900
H 	H 	0.80292 0.49750 0.95663 0.03400
H 	H 	0.68207 0.48845 0.99607 0.03500
C 	C 	0.76004 0.24016 0.99759 -0.10200
C 	C 	0.80804 0.26596 0.99306 0.02100
C 	C 	0.83288 0.24673 0.99939 -0.08000
C 	C 	0.81012 0.20176 0.01054 0.05400
C 	C 	0.76297 0.17681 0.01750 -0.07600
C 	C 	0.73800 0.19591 0.01116 0.02700
C 	C 	0.83396 0.17991 0.01102 -0.03100
C 	C 	0.85395 0.16165 0.01141 0.00400
C 	C 	0.87686 0.13978 0.01069 -0.00100
C 	C 	0.89590 0.12060 0.00918 -0.02500
C 	C 	0.91795 0.09703 0.00641 0.04000
C 	C 	0.96678 0.12183 0.02439 -0.05900
C 	C 	0.98841 0.09923 0.02008 -0.00400
C 	C 	0.96128 0.05159 0.99764 -0.03100
C 	C 	0.91227 0.02682 0.97999 -0.00900
C 	C 	0.89075 0.04949 0.98440 -0.06200
H 	H 	0.82584 0.30050 0.98369 0.02900
H 	H 	0.86948 0.26639 0.99443 0.05100
H 	H 	0.74525 0.14212 0.02649 0.05500
H 	H 	0.70115 0.17567 0.01517 0.04000
H 	H 	0.98801 0.15861 0.04151 0.05000
H 	H 	0.02614 0.11866 0.03437 0.03800
H 	H 	0.85299 0.03015 0.97030 0.04800
C 	C 	0.51771 0.23291 0.95905 -0.08400
C 	C 	0.49592 0.24663 0.92619 0.01700
C 	C 	0.44741 0.22577 0.92182 -0.06900
C 	C 	0.42031 0.19093 0.94997 0.04700
C 	C 	0.44146 0.17577 0.98102 -0.07000
C 	C 	0.48992 0.19659 0.98554 0.01500
C 	C 	0.37140 0.17235 0.94911 -0.02900
C 	C 	0.33041 0.15631 0.94899 0.00300
C 	C 	0.28248 0.13719 0.94988 -0.00200
C 	C 	0.24154 0.12034 0.95132 -0.02400
C 	C 	0.19257 0.09937 0.95370 0.03400
C 	C 	0.15711 0.05443 0.92558 -0.05500
C 	C 	0.11008 0.03202 0.93172 -0.01400
C 	C 	0.09816 0.05443 0.96616 -0.02400
C 	C 	0.13352 0.10014 0.99296 -0.01700
C 	C 	0.18060 0.12247 0.98681 -0.05800
H 	H 	0.51667 0.27399 0.90478 0.03800
H 	H 	0.43114 0.23732 0.89732 0.05300
H 	H 	0.42060 0.14859 0.00260 0.05900
H 	H 	0.50610 0.18549 0.01093 0.05600
H 	H 	0.16610 0.03646 0.89972 0.04800
H 	H 	0.12481 0.11782 0.01965 0.04300
H 	H 	0.20787 0.15728 0.00862 0.05100
C 	C 	0.74211 0.55665 0.99014 -0.07100
C 	C 	0.80985 0.56172 0.96746 -0.07100
C 	C 	0.79728 0.56696 0.46211 0.04600
H 	H 	0.72510 0.57310 0.99954 0.05200
H 	H 	0.84147 0.56614 0.41159 0.05600
H 	H 	0.82336 0.99961 0.37319 0.04700
H 	H 	0.08302 0.99704 0.91022 0.04100
H 	H 	0.84549 0.58214 0.95943 0.05300
C 	C 	0.78815 0.58326 0.97976 0.04700
C 	C 	0.88053 0.99514 0.39761 -0.01700
C 	C 	0.95086 0.99583 0.42580 0.11900
N 	N 	0.02492 0.98311 0.97933 -0.14200
C 	C 	0.98010 0.95945 0.98882 0.12200
N 	N 	0.95977 0.98185 0.99535 -0.14200
N 	N 	0.92595 0.94942 0.42674 -0.14000
C 	C 	0.94822 0.92855 0.42693 0.12100
N 	N 	0.99540 0.95419 0.42645 -0.14000
C 	C 	0.81351 0.61384 0.45863 -0.02700
C 	C 	0.82764 0.65312 0.45509 0.00300
C 	C 	0.84458 0.69899 0.44977 -0.00100
C 	C 	0.85967 0.73813 0.44437 -0.02300
C 	C 	0.87876 0.78494 0.43704 0.03300
C 	C 	0.86817 0.81159 0.46609 -0.05400
C 	C 	0.88935 0.85811 0.46131 -0.01400
C 	C 	0.92145 0.87823 0.42759 -0.02400
C 	C 	0.93075 0.85091 0.39738 -0.01300
C 	C 	0.90949 0.80448 0.40212 -0.05400
H 	H 	0.84424 0.79662 0.49299 0.04800
H 	H 	0.88193 0.87882 0.48489 0.04100
H 	H 	0.95500 0.86586 0.37078 0.04000
H 	H 	0.91753 0.78394 0.37924 0.04800
H 	H 	0.86155 0.95955 0.37704 0.04200
H 	H 	0.06754 0.97247 0.37896 0.04000
C 	C 	0.81314 0.63270 0.98194 -0.02900
C 	C 	0.83379 0.67407 0.98386 0.00300
C 	C 	0.85787 0.72250 0.98619 -0.00300
C 	C 	0.87858 0.76388 0.98815 -0.02300
C 	C 	0.90363 0.81333 0.99036 0.03000
C 	C 	0.95222 0.84388 0.01115 -0.05100
C 	C 	0.97703 0.89172 0.01158 -0.00800
C 	C 	0.95336 0.90937 0.99108 -0.02800
C 	C 	0.90443 0.87871 0.97107 -0.01300
C 	C 	0.87970 0.83085 0.97069 -0.05400
H 	H 	0.97087 0.83056 0.02665 0.04900
H 	H 	0.01463 0.91503 0.02771 0.04100
H 	H 	0.88577 0.89179 0.95491 0.04000
H 	H 	0.84208 0.80739 0.95462 0.04700
H 	H 	0.89095 0.99019 0.96223 0.03800
