data_crystal

_cell_length_a 27.90261
_cell_length_b 28.04291
_cell_length_c 15.85481
_cell_angle_alpha 90.31499
_cell_angle_beta  90.31509
_cell_angle_gamma 120.01674

_symmetry_space_group_name_	'P 1'
_symmetry_space_group_name_H-M	'P 1'

loop_
_symmetry_equiv_pos_as_xyz
  x,y,z

loop_
_atom_site_label
_atom_site_type_symbol
_atom_site_fract_x
_atom_site_fract_y
_atom_site_fract_z
_atom_site_charge
C 	C 	0.49592 0.80438 0.24062 0.32700
C 	C 	0.66421 0.75448 0.11543 0.33500
C 	C 	0.50105 0.67526 0.24362 0.34000
C 	C 	0.66679 0.89364 0.11058 0.32500
C 	C 	0.66043 0.75335 0.38315 0.34300
C 	C 	0.65688 0.88730 0.39561 0.31900
Ni	Ni	0.57098 0.77689 0.14167 1.12600
Ni	Ni	0.68446 0.83435 0.25194 1.13500
Ni	Ni	0.56913 0.77514 0.34630 1.13400
O 	O 	0.52483 0.81448 0.16993 -0.33500
O 	O 	0.49952 0.77407 0.30213 -0.34400
O 	O 	0.67796 0.76674 0.30558 -0.35900
O 	O 	0.60996 0.73147 0.11646 -0.33600
O 	O 	0.69485 0.80576 0.14009 -0.34300
O 	O 	0.60240 0.85269 0.39231 -0.33800
O 	O 	0.50121 0.70591 0.18145 -0.33700
O 	O 	0.53906 0.69651 0.30353 -0.34300
O 	O 	0.69243 0.87303 0.36496 -0.34100
O 	O 	0.63242 0.84446 0.07697 -0.33700
O 	O 	0.69310 0.89907 0.18348 -0.33200
O 	O 	0.62589 0.76743 0.41535 -0.35000
O 	O 	0.60720 0.80617 0.24475 -0.72500
H 	H 	0.60667 0.84100 0.24569 0.17100
C 	C 	0.20482 0.89542 0.09931 0.32200
C 	C 	0.15785 0.68915 0.25961 0.33800
C 	C 	0.07466 0.75393 0.11459 0.34200
C 	C 	0.29585 0.81167 0.25555 0.32400
C 	C 	0.08431 0.76495 0.39599 0.34500
C 	C 	0.20657 0.90712 0.38269 0.33000
Ni	Ni	0.19299 0.78629 0.14448 1.12600
Ni	Ni	0.19786 0.79519 0.35004 1.13200
Ni	Ni	0.12948 0.83810 0.24701 1.13200
O 	O 	0.22848 0.86459 0.09332 -0.33200
O 	O 	0.15429 0.87522 0.13142 -0.33900
O 	O 	0.11889 0.74665 0.38479 -0.35800
O 	O 	0.14991 0.70450 0.18493 -0.33400
O 	O 	0.19618 0.72571 0.31000 -0.35400
O 	O 	0.18408 0.90688 0.30841 -0.34400
O 	O 	0.12286 0.77354 0.07864 -0.33500
O 	O 	0.07207 0.76527 0.19423 -0.35300
O 	O 	0.20601 0.86252 0.41414 -0.34200
O 	O 	0.27006 0.79658 0.18078 -0.33300
O 	O 	0.27866 0.83183 0.31712 -0.33800
O 	O 	0.09240 0.81042 0.35952 -0.35100
O 	O 	0.18483 0.81775 0.24470 -0.72600
H 	H 	0.21858 0.85424 0.24218 0.17400
C 	C 	0.15271 0.48519 0.26603 0.32600
C 	C 	0.21886 0.32968 0.39038 0.34600
C 	C 	0.28624 0.48401 0.25381 0.34000
C 	C 	0.07523 0.31456 0.40183 0.32400
C 	C 	0.21141 0.32663 0.11697 0.34600
C 	C 	0.07271 0.32123 0.11401 0.32400
Ni	Ni	0.18779 0.41548 0.36084 1.12900
Ni	Ni	0.13367 0.30060 0.25556 1.13300
Ni	Ni	0.18387 0.41390 0.15699 1.13200
O 	O 	0.14323 0.45460 0.33422 -0.33600
O 	O 	0.18153 0.48222 0.20091 -0.33600
O 	O 	0.19996 0.30837 0.19449 -0.35500
O 	O 	0.23896 0.38236 0.37760 -0.33900
O 	O 	0.16851 0.29370 0.36479 -0.34500
O 	O 	0.10465 0.37588 0.11635 -0.34000
O 	O 	0.25531 0.48618 0.31389 -0.33500
O 	O 	0.26398 0.44599 0.19471 -0.34600
O 	O 	0.08956 0.28813 0.14641 -0.33900
O 	O 	0.12477 0.35231 0.43135 -0.33000
O 	O 	0.06931 0.28806 0.32915 -0.33700
O 	O 	0.19376 0.35884 0.08663 -0.34500
O 	O 	0.15694 0.37658 0.26036 -0.72500
H 	H 	0.12046 0.37407 0.26166 0.17400
C 	C 	0.89717 0.67115 0.61921 0.32400
C 	C 	0.67328 0.50095 0.73465 0.34400
C 	C 	0.75822 0.66506 0.60979 0.34300
C 	C 	0.80499 0.49676 0.73912 0.32300
C 	C 	0.74565 0.65474 0.88307 0.34800
C 	C 	0.87897 0.65110 0.90441 0.32500
Ni	Ni	0.77917 0.57243 0.64071 1.12700
Ni	Ni	0.76914 0.56490 0.84446 1.13500
Ni	Ni	0.83154 0.68241 0.75752 1.13400
O 	O 	0.84898 0.63662 0.58179 -0.32900
O 	O 	0.89942 0.69205 0.69580 -0.33800
O 	O 	0.75782 0.61872 0.91451 -0.34700
O 	O 	0.70531 0.50162 0.67349 -0.33400
O 	O 	0.69332 0.53878 0.79386 -0.34800
O 	O 	0.86605 0.68724 0.87289 -0.34400
O 	O 	0.73429 0.61140 0.61629 -0.34200
O 	O 	0.80707 0.69717 0.64435 -0.34400
O 	O 	0.84399 0.59708 0.90008 -0.33900
O 	O 	0.81791 0.52807 0.67115 -0.33000
O 	O 	0.77080 0.49712 0.79738 -0.33500
O 	O 	0.76179 0.67444 0.80702 -0.35400
O 	O 	0.80432 0.60588 0.74677 -0.72300
H 	H 	0.83944 0.60570 0.75118 0.17200
C 	C 	0.66678 0.16824 0.73276 0.32800
C 	C 	0.88053 0.21784 0.89469 0.34300
C 	C 	0.80900 0.29750 0.74892 0.33700
C 	C 	0.74507 0.08250 0.89578 0.32500
C 	C 	0.88573 0.21940 0.61982 0.34700
C 	C 	0.75172 0.08093 0.61022 0.32500
Ni	Ni	0.76599 0.19554 0.85192 1.12600
Ni	Ni	0.82677 0.13873 0.75414 1.13300
Ni	Ni	0.77230 0.19554 0.64824 1.13500
O 	O 	0.69631 0.19579 0.80078 -0.33700
O 	O 	0.68952 0.15742 0.66716 -0.34100
O 	O 	0.86965 0.16951 0.64702 -0.35000
O 	O 	0.83120 0.20222 0.92517 -0.33600
O 	O 	0.88629 0.20583 0.81651 -0.34900
O 	O 	0.76569 0.13060 0.58021 -0.34000
O 	O 	0.81743 0.27706 0.81779 -0.34000
O 	O 	0.77339 0.26426 0.69207 -0.34600
O 	O 	0.77183 0.07478 0.68314 -0.34200
O 	O 	0.72259 0.11460 0.89378 -0.32800
O 	O 	0.79573 0.09968 0.86636 -0.33900
O 	O 	0.85446 0.24169 0.63077 -0.35200
O 	O 	0.77676 0.16586 0.75266 -0.72600
H 	H 	0.74150 0.13071 0.75015 0.17200
C 	C 	0.29949 0.09173 0.89734 0.32100
C 	C 	0.46257 0.30289 0.75165 0.34500
C 	C 	0.30595 0.23062 0.89776 0.34400
C 	C 	0.46342 0.17118 0.73742 0.32800
C 	C 	0.30477 0.23348 0.62079 0.34800
C 	C 	0.28903 0.09005 0.61490 0.32700
Ni	Ni	0.39503 0.20363 0.85545 1.12700
Ni	Ni	0.38837 0.20201 0.65161 1.13500
Ni	Ni	0.27718 0.15170 0.75688 1.13300
O 	O 	0.35428 0.12358 0.90081 -0.32900
O 	O 	0.26727 0.11078 0.86843 -0.33600
O 	O 	0.35774 0.25227 0.63328 -0.35500
O 	O 	0.42859 0.28442 0.81546 -0.33700
O 	O 	0.45980 0.26904 0.69190 -0.34600
O 	O 	0.26245 0.08588 0.68635 -0.34000
O 	O 	0.33907 0.21432 0.92887 -0.33100
O 	O 	0.28995 0.22071 0.81853 -0.34800
O 	O 	0.32658 0.13874 0.58447 -0.34100
O 	O 	0.46260 0.19858 0.80624 -0.33100
O 	O 	0.42860 0.16008 0.67304 -0.33800
O 	O 	0.26750 0.18516 0.64996 -0.34800
O 	O 	0.35355 0.17414 0.75626 -0.72500
H 	H 	0.35104 0.13783 0.75493 0.17300
C 	C 	0.56791 0.12506 0.77556 0.10800
C 	C 	0.61103 0.16098 0.72224 -0.08800
C 	C 	0.60249 0.19473 0.66571 0.10900
C 	C 	0.55239 0.19524 0.66662 0.11100
C 	C 	0.51118 0.16299 0.72545 -0.08600
C 	C 	0.51799 0.12617 0.77733 0.11000
Br	Br	0.45858 0.07678 0.84959 -0.13200
Br	Br	0.57740 0.07441 0.84586 -0.13200
Br	Br	0.54106 0.24134 0.58853 -0.14100
Br	Br	0.66062 0.24277 0.59020 -0.13500
C 	C 	0.60393 0.41899 0.81501 0.11500
C 	C 	0.61711 0.45314 0.74368 -0.09300
C 	C 	0.57638 0.44157 0.68145 0.11300
C 	C 	0.52327 0.39509 0.68923 0.11200
C 	C 	0.51177 0.35834 0.75640 -0.09200
C 	C 	0.55171 0.37119 0.82062 0.11400
Br	Br	0.53621 0.32180 0.91412 -0.15300
Br	Br	0.65789 0.43647 0.90406 -0.16500
Br	Br	0.46576 0.38212 0.60881 -0.12500
Br	Br	0.59337 0.48914 0.58538 -0.12100
C 	C 	0.81001 0.42008 0.66509 0.11200
C 	C 	0.81723 0.45116 0.73940 -0.08500
C 	C 	0.83627 0.43823 0.81395 0.10700
C 	C 	0.84229 0.39115 0.81601 0.11000
C 	C 	0.82966 0.35763 0.74286 -0.09000
C 	C 	0.82387 0.37860 0.66567 0.11200
Br	Br	0.83905 0.35357 0.56138 -0.12200
Br	Br	0.77153 0.42630 0.56797 -0.12700
Br	Br	0.87677 0.37900 0.91308 -0.11700
Br	Br	0.85543 0.48539 0.91220 -0.12800
C 	C 	0.02496 0.31661 0.97667 0.11100
C 	C 	0.02281 0.29637 0.05895 -0.08400
C 	C 	0.97381 0.24946 0.08593 0.11100
C 	C 	0.92918 0.22125 0.02943 0.11200
C 	C 	0.92942 0.24481 0.95098 -0.09300
C 	C 	0.97674 0.29397 0.92641 0.11700
Br	Br	0.97468 0.33223 0.82685 -0.11700
Br	Br	0.09478 0.36932 0.92789 -0.12300
Br	Br	0.87050 0.14810 0.05645 -0.12200
Br	Br	0.96652 0.22488 0.20087 -0.12900
C 	C 	0.93262 0.26827 0.48683 0.11600
C 	C 	0.93540 0.24710 0.56630 -0.09100
C 	C 	0.98470 0.24826 0.59110 0.11500
C 	C 	0.02900 0.26692 0.53467 0.10900
C 	C 	0.02789 0.29274 0.45935 -0.09000
C 	C 	0.98055 0.29578 0.43775 0.11200
Br	Br	0.98239 0.34022 0.34409 -0.13200
Br	Br	0.86225 0.25170 0.43874 -0.12600
Br	Br	0.08851 0.25231 0.55690 -0.12200
Br	Br	0.99251 0.22597 0.70286 -0.13300
C 	C 	0.26747 0.27708 0.41714 0.11100
C 	C 	0.24830 0.31171 0.44762 -0.09300
C 	C 	0.25310 0.32512 0.53435 0.11700
C 	C 	0.27257 0.30011 0.59110 0.11300
C 	C 	0.28750 0.26204 0.56116 -0.09400
C 	C 	0.28630 0.25162 0.47391 0.11300
Br	Br	0.31011 0.20222 0.43204 -0.13600
Br	Br	0.27019 0.26643 0.29740 -0.13100
Br	Br	0.27894 0.31798 0.70981 -0.12200
Br	Br	0.23304 0.37765 0.57544 -0.13300
C 	C 	0.31671 0.30508 0.99762 0.11400
C 	C 	0.28199 0.25522 0.95432 -0.09000
C 	C 	0.22415 0.22911 0.96438 0.11600
C 	C 	0.20100 0.25415 0.01392 0.11000
C 	C 	0.23570 0.30308 0.05920 -0.09000
C 	C 	0.29361 0.32798 0.05215 0.11200
Br	Br	0.34128 0.39263 0.11863 -0.11800
Br	Br	0.39557 0.34319 0.97967 -0.12000
Br	Br	0.12172 0.22163 0.01882 -0.13700
Br	Br	0.17672 0.15737 0.91466 -0.15300
C 	C 	0.22081 0.94136 0.95950 0.11200
C 	C 	0.22730 0.94569 0.04793 -0.08900
C 	C 	0.25732 0.99803 0.08654 0.10300
C 	C 	0.27732 0.04578 0.03747 0.11200
C 	C 	0.27385 0.04146 0.94882 -0.08300
C 	C 	0.24665 0.98907 0.90980 0.10400
Br	Br	0.24814 0.98238 0.78903 -0.14200
Br	Br	0.17573 0.87022 0.90664 -0.12600
Br	Br	0.30753 0.11693 0.09183 -0.12500
Br	Br	0.27550 0.00456 0.20482 -0.14000
C 	C 	0.28311 0.98184 0.46673 0.10900
C 	C 	0.22850 0.95703 0.43613 -0.08200
C 	C 	0.19424 0.97836 0.46067 0.11300
C 	C 	0.21404 0.02206 0.51961 0.11700
C 	C 	0.26655 0.04201 0.55774 -0.08400
C 	C 	0.30012 0.02019 0.53317 0.11100
Br	Br	0.36723 0.03945 0.59442 -0.13200
Br	Br	0.33691 0.97121 0.40753 -0.12100
Br	Br	0.17050 0.05632 0.54484 -0.12200
Br	Br	0.12114 0.94927 0.41206 -0.12600
C 	C 	0.00096 0.68249 0.45506 0.11000
C 	C 	0.04061 0.73902 0.46022 -0.09500
C 	C 	0.03656 0.77148 0.52466 0.11100
C 	C 	0.98755 0.75114 0.57084 0.11400
C 	C 	0.94847 0.69410 0.56839 -0.08300
C 	C 	0.95764 0.65934 0.51393 0.10900
Br	Br	0.91465 0.58042 0.52489 -0.13500
Br	Br	0.00423 0.63729 0.36566 -0.12700
Br	Br	0.97121 0.80278 0.62608 -0.12400
Br	Br	0.10054 0.83984 0.55840 -0.13000
C 	C 	0.01984 0.69069 0.99371 0.11400
C 	C 	0.02335 0.72504 0.06254 -0.09400
C 	C 	0.97807 0.73308 0.07912 0.11500
C 	C 	0.92810 0.70185 0.03487 0.11100
C 	C 	0.92632 0.67167 0.96267 -0.08800
C 	C 	0.97236 0.66652 0.94162 0.11100
Br	Br	0.97160 0.62916 0.83846 -0.13600
Br	Br	0.07937 0.67635 0.96978 -0.12400
Br	Br	0.86162 0.69933 0.07452 -0.12300
Br	Br	0.98693 0.79327 0.15005 -0.14800
C 	C 	0.16657 0.57020 0.34092 0.11100
C 	C 	0.14423 0.53312 0.27190 -0.08400
C 	C 	0.11249 0.54144 0.21013 0.10700
C 	C 	0.10749 0.58914 0.21390 0.11500
C 	C 	0.13729 0.62964 0.27604 -0.08600
C 	C 	0.15726 0.61474 0.34686 0.11500
Br	Br	0.16230 0.64859 0.45509 -0.13600
Br	Br	0.21580 0.56479 0.42118 -0.14000
Br	Br	0.04912 0.59120 0.15206 -0.11200
Br	Br	0.07495 0.48727 0.12219 -0.12600
C 	C 	0.67452 0.98694 0.57354 0.11000
C 	C 	0.72524 0.03330 0.55225 -0.08700
C 	C 	0.75239 0.03257 0.47814 0.11300
C 	C 	0.72719 0.98695 0.42310 0.10600
C 	C 	0.67897 0.93824 0.44823 -0.08100
C 	C 	0.65424 0.93786 0.52632 0.11200
Br	Br	0.59923 0.86956 0.57573 -0.12600
Br	Br	0.63155 0.99148 0.66485 -0.13400
Br	Br	0.75792 0.99272 0.31261 -0.13300
Br	Br	0.82599 0.09232 0.45469 -0.11900
C 	C 	0.70040 0.03367 0.03063 0.11400
C 	C 	0.71943 0.03244 0.94833 -0.08100
C 	C 	0.72065 0.98509 0.92080 0.10600
C 	C 	0.70944 0.94276 0.97759 0.11300
C 	C 	0.68634 0.94205 0.05648 -0.09100
C 	C 	0.67947 0.98649 0.08128 0.10900
Br	Br	0.63845 0.98141 0.18164 -0.13600
Br	Br	0.70887 0.10097 0.07843 -0.12200
Br	Br	0.72963 0.88803 0.94955 -0.12200
Br	Br	0.73430 0.97633 0.80446 -0.14200
C 	C 	0.75780 0.73673 0.96392 0.11700
C 	C 	0.72385 0.68100 0.93998 -0.09400
C 	C 	0.67416 0.64794 0.98350 0.11300
C 	C 	0.65960 0.67003 0.05202 0.11000
C 	C 	0.69025 0.72696 0.06912 -0.08900
C 	C 	0.74332 0.75822 0.03316 0.11200
Br	Br	0.80099 0.82202 0.09151 -0.11300
Br	Br	0.82527 0.78351 0.90407 -0.15000
Br	Br	0.60762 0.62130 0.13377 -0.11800
Br	Br	0.62497 0.57310 0.94719 -0.12000
C 	C 	0.74349 0.75063 0.43861 0.11200
C 	C 	0.68566 0.72958 0.43865 -0.09500
C 	C 	0.65252 0.68801 0.49626 0.11000
C 	C 	0.67764 0.67260 0.55895 0.11100
C 	C 	0.73403 0.68880 0.55269 -0.09700
C 	C 	0.76636 0.72595 0.48918 0.11000
Br	Br	0.83966 0.73893 0.46524 -0.12400
Br	Br	0.79222 0.81691 0.37811 -0.14800
Br	Br	0.63634 0.63451 0.65757 -0.11800
Br	Br	0.57325 0.64760 0.48348 -0.12000
C 	C 	0.34662 0.76209 0.22240 0.11000
C 	C 	0.34399 0.80351 0.26926 -0.08900
C 	C 	0.39175 0.84291 0.31340 0.10900
C 	C 	0.44348 0.84796 0.29488 0.10600
C 	C 	0.44655 0.81019 0.23937 -0.08900
C 	C 	0.39802 0.76869 0.20032 0.10800
Br	Br	0.40179 0.72107 0.11569 -0.14100
Br	Br	0.28022 0.69328 0.19795 -0.15100
Br	Br	0.51012 0.90610 0.34641 -0.13000
Br	Br	0.38468 0.87723 0.41405 -0.11300
C 	C 	0.42482 0.59942 0.32709 0.11500
C 	C 	0.45365 0.61849 0.25037 -0.09000
C 	C 	0.42958 0.58772 0.17576 0.11400
C 	C 	0.37360 0.54641 0.17477 0.11500
C 	C 	0.34613 0.52548 0.25205 -0.09000
C 	C 	0.37518 0.54875 0.32826 0.11200
Br	Br	0.35020 0.50945 0.43284 -0.12400
Br	Br	0.44535 0.64661 0.42535 -0.14600
Br	Br	0.33352 0.52671 0.06879 -0.13400
Br	Br	0.47257 0.60287 0.07450 -0.11800
