data_crystal

_cell_length_a 24.58061
_cell_length_b 24.68864
_cell_length_c 28.38249
_cell_angle_alpha 95.48974
_cell_angle_beta  95.48460
_cell_angle_gamma 125.81229

_symmetry_space_group_name_	'P 1'
_symmetry_space_group_name_H-M	'P 1'

loop_
_symmetry_equiv_pos_as_xyz
  x,y,z

loop_
_atom_site_label
_atom_site_type_symbol
_atom_site_fract_x
_atom_site_fract_y
_atom_site_fract_z
_atom_site_charge
N 	N 	0.02557 0.05638 0.00046 -0.09600
C 	C 	0.06158 0.03202 0.01132 0.09500
N 	N 	0.02857 0.96728 0.01895 -0.10900
C 	C 	0.04861 0.02342 0.46035 0.09600
N 	N 	0.01455 0.04818 0.44493 -0.11200
Cu	Cu	0.62868 0.22911 0.99809 0.92400
Cu	Cu	0.61589 0.34784 0.02451 0.89900
O 	O 	0.52642 0.18069 0.99202 -0.33700
O 	O 	0.62504 0.23766 0.92911 -0.63900
O 	O 	0.60476 0.30243 0.08110 -0.37500
C 	C 	0.49711 0.20710 0.97481 0.25400
O 	O 	0.53543 0.26918 0.96647 -0.38200
H 	H 	0.57875 0.20857 0.90888 0.17800
Cu	Cu	0.63817 0.30922 0.49879 0.89800
Cu	Cu	0.61964 0.35304 0.40655 0.89700
O 	O 	0.63973 0.29715 0.43121 -0.63700
O 	O 	0.66641 0.36631 0.35048 -0.38000
O 	O 	0.53968 0.25841 0.48860 -0.36600
C 	C 	0.50323 0.26189 0.45333 0.25500
O 	O 	0.53194 0.31310 0.42997 -0.36700
O 	O 	0.63519 0.30594 0.56810 -0.38000
H 	H 	0.61001 0.24909 0.41436 0.16700
C 	C 	0.20985 0.06573 0.45023 0.11600
C 	C 	0.27242 0.07748 0.46544 -0.08500
C 	C 	0.32757 0.12252 0.44401 0.01100
C 	C 	0.32417 0.16247 0.41476 0.11800
C 	C 	0.26296 0.15480 0.40295 -0.09000
C 	C 	0.20513 0.10219 0.41840 0.02300
O 	O 	0.15746 0.03622 0.47636 -0.20100
C 	C 	0.12090 0.05870 0.45724 0.10400
C 	C 	0.15051 0.10014 0.42407 -0.08600
O 	O 	0.38732 0.22234 0.41352 -0.18900
C 	C 	0.42843 0.21502 0.44563 0.04600
C 	C 	0.39354 0.15578 0.46371 -0.06000
H 	H 	0.27876 0.05520 0.49459 0.06900
H 	H 	0.26163 0.19099 0.38511 0.07300
H 	H 	0.12617 0.11424 0.39956 0.07100
H 	H 	0.41246 0.14732 0.49611 0.06100
C 	C 	0.34898 0.14715 0.02088 0.12700
C 	C 	0.29375 0.10563 0.04331 -0.09100
C 	C 	0.24106 0.11293 0.03949 0.02300
C 	C 	0.23732 0.15063 0.00811 0.12800
C 	C 	0.28982 0.18705 0.98203 -0.09100
C 	C 	0.34769 0.18848 0.99243 0.00000
O 	O 	0.39700 0.13594 0.01379 -0.17800
C 	C 	0.42572 0.17611 0.97892 0.03200
C 	C 	0.39367 0.20437 0.96411 -0.05500
O 	O 	0.17147 0.13054 0.99294 -0.20700
C 	C 	0.13646 0.07681 0.01776 0.11400
C 	C 	0.17728 0.06579 0.04532 -0.08900
H 	H 	0.29068 0.06744 0.06135 0.07400
H 	H 	0.28427 0.21036 0.95334 0.07200
H 	H 	0.41389 0.24546 0.94408 0.05500
H 	H 	0.15985 0.01842 0.05696 0.07200
C 	C 	0.64021 0.28096 0.09658 0.30000
O 	O 	0.65281 0.23940 0.84045 -0.41700
N 	N 	0.01491 0.96392 0.47661 -0.11000
O 	O 	0.64548 0.23999 0.06715 -0.34700
C 	C 	0.66023 0.30552 0.78295 -0.09600
C 	C 	0.66288 0.31305 0.74168 0.03600
C 	C 	0.66844 0.31949 0.69317 0.03600
C 	C 	0.67527 0.32292 0.65182 -0.09600
Cu	Cu	0.69246 0.23661 0.90019 0.87300
Cu	Cu	0.66935 0.33756 0.93535 0.89600
C 	C 	0.65964 0.29421 0.83161 0.30400
O 	O 	0.67781 0.33419 0.00260 -0.63300
O 	O 	0.67652 0.18565 0.00015 -0.33300
O 	O 	0.64986 0.43316 0.99958 -0.37300
O 	O 	0.67708 0.34371 0.86692 -0.38200
C 	C 	0.69101 0.33370 0.33584 0.30200
C 	C 	0.68591 0.32440 0.60298 0.30500
O 	O 	0.69565 0.43714 0.46366 -0.37800
C 	C 	0.68575 0.31726 0.28495 -0.08600
C 	C 	0.67886 0.30556 0.24172 0.04000
C 	C 	0.66803 0.29438 0.19089 0.03900
C 	C 	0.65652 0.28702 0.14761 -0.08300
O 	O 	0.71654 0.43517 0.94717 -0.36600
C 	C 	0.70439 0.46699 0.97965 0.25500
C 	C 	0.73451 0.21278 0.98486 0.24900
H 	H 	0.72520 0.36564 0.02101 0.16600
Cu	Cu	0.74580 0.35097 0.43490 0.92700
Cu	Cu	0.74470 0.29321 0.53447 0.87400
O 	O 	0.73875 0.35653 0.50392 -0.63900
O 	O 	0.72173 0.23023 0.47862 -0.41700
O 	O 	0.73425 0.33189 0.36585 -0.35300
O 	O 	0.74203 0.33408 0.59354 -0.41600
H 	H 	0.70058 0.54585 0.43490 0.05000
H 	H 	0.73893 0.02133 0.44820 0.06900
O 	O 	0.71748 0.57430 0.00344 -0.18000
O 	O 	0.73428 0.11260 0.99238 -0.19000
O 	O 	0.75298 0.25828 0.95736 -0.43100
C 	C 	0.75863 0.47758 0.45675 0.25100
C 	C 	0.76457 0.24757 0.44892 0.25500
H 	H 	0.76693 0.40318 0.52326 0.18000
C 	C 	0.75559 0.57380 0.44135 -0.05900
H 	H 	0.73750 0.67473 0.43651 0.06900
O 	O 	0.74901 0.13785 0.44551 -0.19300
C 	C 	0.74491 0.54123 0.98739 0.04000
H 	H 	0.73598 0.69399 0.02849 0.07200
H 	H 	0.73584 0.00311 0.99582 0.06900
O 	O 	0.78811 0.45155 0.43938 -0.33700
O 	O 	0.79198 0.30571 0.43404 -0.35800
C 	C 	0.78564 0.68794 0.45472 -0.08400
C 	C 	0.79064 0.55014 0.45916 0.04500
C 	C 	0.78508 0.06393 0.43904 -0.09600
C 	C 	0.78442 0.20342 0.43482 0.03700
C 	C 	0.77736 0.10023 0.97421 0.11800
C 	C 	0.77623 0.04406 0.98094 -0.09800
C 	C 	0.77009 0.18146 0.98918 0.03400
C 	C 	0.80119 0.64159 0.44963 0.01200
C 	C 	0.79903 0.12814 0.44371 0.12000
C 	C 	0.77785 0.63748 0.02401 0.11600
C 	C 	0.78183 0.69672 0.03198 -0.08900
H 	H 	0.81496 0.97396 0.45449 0.07400
C 	C 	0.81537 0.58204 0.99601 -0.06700
H 	H 	0.82047 0.96752 0.00700 0.07900
C 	C 	0.83614 0.75357 0.48126 0.11400
O 	O 	0.84052 0.80998 0.47134 -0.20000
C 	C 	0.83216 0.05632 0.42135 0.02800
H 	H 	0.82135 0.82634 0.02457 0.06600
C 	C 	0.83364 0.15604 0.96195 0.00100
C 	C 	0.83078 0.04426 0.96961 0.03100
C 	C 	0.83118 0.20829 0.97337 -0.05900
C 	C 	0.84886 0.22910 0.42559 -0.05400
C 	C 	0.84330 0.01153 0.43246 -0.09700
C 	C 	0.83574 0.64175 0.02096 0.01800
H 	H 	0.84655 0.56435 0.99465 0.05100
C 	C 	0.84689 0.75953 0.04155 0.02200
C 	C 	0.84871 0.00662 0.98599 -0.11000
O 	O 	0.85946 0.60076 0.47925 -0.19000
C 	C 	0.86196 0.65731 0.47271 0.12000
C 	C 	0.85843 0.18222 0.43321 0.00300
H 	H 	0.86123 0.25622 0.96106 0.04800
C 	C 	0.85975 0.81872 0.03466 -0.08600
H 	H 	0.88904 0.28195 0.42527 0.05600
C 	C 	0.88925 0.10217 0.96065 0.10900
C 	C 	0.95685 0.01648 0.99832 0.07300
C 	C 	0.96003 0.92717 0.01656 0.09400
N 	N 	0.92420 0.95191 0.00648 -0.11900
C 	C 	0.94666 0.01295 0.44522 0.08500
N 	N 	0.91260 0.95212 0.46020 -0.11500
C 	C 	0.94685 0.92772 0.47610 0.09200
C 	C 	0.91172 0.72222 0.50042 -0.09200
C 	C 	0.89666 0.76914 0.50516 0.02400
C 	C 	0.90976 0.86055 0.49029 0.10400
C 	C 	0.94332 0.83668 0.51089 -0.08800
H 	H 	0.95999 0.73541 0.51831 0.07000
H 	H 	0.99795 0.86248 0.51569 0.07000
C 	C 	0.89228 0.11091 0.41115 0.11100
C 	C 	0.90543 0.17494 0.41517 -0.08100
O 	O 	0.94435 0.10354 0.41424 -0.20300
C 	C 	0.91009 0.04005 0.42814 0.10600
H 	H 	0.95200 0.21799 0.40681 0.06700
C 	C 	0.90445 0.76379 0.03581 0.11600
C 	C 	0.89920 0.70431 0.02328 -0.08700
O 	O 	0.95728 0.82588 0.02616 -0.20100
C 	C 	0.92524 0.85753 0.02549 0.10300
H 	H 	0.94169 0.70671 0.01276 0.07100
C 	C 	0.89287 0.16080 0.95879 -0.08200
O 	O 	0.94716 0.10437 0.97005 -0.20200
C 	C 	0.91775 0.04260 0.98595 0.11200
H 	H 	0.94060 0.20873 0.95728 0.06600
