data_crystal

_cell_length_a 28.60567
_cell_length_b 30.19404
_cell_length_c 30.49293
_cell_angle_alpha 61.23143
_cell_angle_beta  118.44787
_cell_angle_gamma 133.22201

_symmetry_space_group_name_	'P 1'
_symmetry_space_group_name_H-M	'P 1'

loop_
_symmetry_equiv_pos_as_xyz
  x,y,z

loop_
_atom_site_label
_atom_site_type_symbol
_atom_site_fract_x
_atom_site_fract_y
_atom_site_fract_z
_atom_site_charge
C 	C 	0.74035 0.34128 0.99881 0.13400
N 	N 	0.67494 0.30709 0.99543 -0.13700
C 	C 	0.65043 0.33433 0.99262 0.13700
N 	N 	0.69096 0.39571 0.99198 -0.13900
C 	C 	0.75680 0.42851 0.00009 0.13700
N 	N 	0.78191 0.40140 0.00338 -0.13600
C 	C 	0.70391 0.32914 0.49208 0.13400
N 	N 	0.73847 0.38841 0.49582 -0.13700
C 	C 	0.70552 0.40872 0.49088 0.13600
N 	N 	0.63904 0.37024 0.48178 -0.14000
C 	C 	0.60537 0.30956 0.48365 0.13700
N 	N 	0.63768 0.28903 0.48808 -0.13800
C 	C 	0.28467 0.63680 0.32278 0.13200
N 	N 	0.24504 0.57502 0.32330 -0.13900
C 	C 	0.26851 0.55128 0.31833 0.13500
N 	N 	0.33080 0.58906 0.31270 -0.14000
C 	C 	0.36899 0.65100 0.30917 0.13600
N 	N 	0.34611 0.67519 0.31424 -0.13900
C 	C 	0.27810 0.63661 0.81423 0.13200
N 	N 	0.33168 0.67652 0.79365 -0.13900
C 	C 	0.35115 0.65330 0.78284 0.13600
N 	N 	0.31761 0.59078 0.79275 -0.14000
C 	C 	0.26331 0.55080 0.81183 0.13500
N 	N 	0.24295 0.57353 0.82239 -0.13900
Co	Co	0.10845 0.00097 0.18295 1.18900
Co	Co	0.91694 0.96246 0.14814 1.18400
Co	Co	0.04574 0.03649 0.21605 1.18100
Co	Co	0.98066 0.92745 0.11536 1.18800
C 	C 	0.15886 0.92556 0.23661 0.32500
Co	Co	0.10112 0.92879 0.12677 1.16900
Co	Co	0.92367 0.02255 0.21790 1.17200
C 	C 	0.00716 0.93604 0.02572 0.28300
O 	O 	0.98318 0.11466 0.18145 -0.37900
O 	O 	0.96555 0.00784 0.19038 -0.74600
C 	C 	0.04743 0.14696 0.19937 0.29500
O 	O 	0.12914 0.04877 0.22632 -0.46100
O 	O 	0.89772 0.91721 0.10308 -0.45900
C 	C 	0.85681 0.02939 0.10765 0.32400
O 	O 	0.01920 0.00108 0.15104 -0.58600
C 	C 	0.01799 0.00673 0.31313 0.28600
C 	C 	0.20092 0.06658 0.11199 0.31700
C 	C 	0.97554 0.81111 0.15061 0.32700
O 	O 	0.08162 0.12894 0.20440 -0.37200
O 	O 	0.15617 0.02081 0.08815 -0.38800
O 	O 	0.19124 0.06834 0.14980 -0.37100
O 	O 	0.84613 0.00413 0.15372 -0.40700
O 	O 	0.88433 0.01715 0.09487 -0.37800
O 	O 	0.99663 0.04137 0.28528 -0.38100
O 	O 	0.03221 0.99001 0.29091 -0.38900
O 	O 	0.03951 0.84042 0.16743 -0.40200
O 	O 	0.94665 0.83343 0.14736 -0.38600
O 	O 	0.06136 0.95800 0.13966 -0.76700
C 	C 	0.82913 0.88782 0.22342 0.31900
O 	O 	0.87190 0.92837 0.25203 -0.39400
O 	O 	0.84776 0.88453 0.19323 -0.38400
O 	O 	0.17496 0.94990 0.19296 -0.41100
O 	O 	0.12196 0.93428 0.24058 -0.39800
O 	O 	0.02968 0.90322 0.05968 -0.39800
O 	O 	0.98585 0.95354 0.04002 -0.36900
Co	Co	0.08282 0.97701 0.69072 1.18500
Co	Co	0.90817 0.97349 0.63516 1.18400
Co	Co	0.02547 0.02070 0.72059 1.18100
Co	Co	0.97124 0.94039 0.59986 1.18900
C 	C 	0.07985 0.85989 0.73454 0.31600
Co	Co	0.07225 0.91155 0.62344 1.16800
Co	Co	0.90515 0.01540 0.71403 1.17200
C 	C 	0.04001 0.98147 0.51987 0.28000
O 	O 	0.97760 0.10952 0.69326 -0.37600
O 	O 	0.95028 0.00391 0.68688 -0.74800
C 	C 	0.03969 0.13306 0.71787 0.29200
O 	O 	0.10315 0.02021 0.73831 -0.45900
O 	O 	0.89580 0.94486 0.57998 -0.45900
C 	C 	0.86169 0.05082 0.60089 0.32400
O 	O 	0.00857 0.99883 0.65083 -0.58900
C 	C 	0.98042 0.97659 0.81319 0.29100
C 	C 	0.19639 0.02567 0.65760 0.33100
C 	C 	0.92760 0.81888 0.59857 0.33100
O 	O 	0.07022 0.11209 0.72116 -0.37200
O 	O 	0.16736 0.96638 0.66464 -0.41300
O 	O 	0.17098 0.04274 0.66702 -0.38400
O 	O 	0.84075 0.01685 0.64332 -0.40800
O 	O 	0.89270 0.04202 0.58858 -0.37900
O 	O 	0.96429 0.01540 0.78791 -0.38500
O 	O 	0.99464 0.96188 0.78908 -0.38500
O 	O 	0.98049 0.85401 0.58162 -0.40700
O 	O 	0.91609 0.84341 0.61475 -0.39100
O 	O 	0.04141 0.94798 0.63817 -0.76300
C 	C 	0.80152 0.88902 0.69586 0.31700
O 	O 	0.84068 0.91926 0.73248 -0.39300
O 	O 	0.82535 0.89197 0.66547 -0.38500
O 	O 	0.04731 0.84452 0.69030 -0.40000
O 	O 	0.08101 0.89901 0.74462 -0.38700
O 	O 	0.08953 0.98153 0.55652 -0.38300
O 	O 	0.99740 0.97965 0.52929 -0.36200
C 	C 	0.99581 0.96079 0.87020 -0.05900
C 	C 	0.04766 0.00978 0.89565 -0.00200
C 	C 	0.04664 0.00414 0.94400 -0.01000
C 	C 	0.99845 0.94662 0.97023 -0.04900
C 	C 	0.94944 0.89571 0.94656 -0.00100
C 	C 	0.94825 0.90281 0.89666 0.00000
C 	C 	0.10126 0.06676 0.87132 0.08200
C 	C 	0.89929 0.83656 0.97295 0.08900
C 	C 	0.89712 0.85098 0.87205 0.08800
C 	C 	0.09374 0.05821 0.96581 0.08800
N 	N 	0.85630 0.80963 0.85236 -0.10600
N 	N 	0.13127 0.10159 0.98293 -0.10900
N 	N 	0.85921 0.78937 0.99397 -0.11200
N 	N 	0.14405 0.11223 0.85192 -0.11100
C 	C 	0.03498 0.98835 0.46620 -0.06800
C 	C 	0.08959 0.03883 0.44332 0.00100
C 	C 	0.08814 0.04082 0.39533 0.00300
C 	C 	0.03224 0.99258 0.36994 -0.07200
C 	C 	0.98097 0.93950 0.39528 0.00500
C 	C 	0.97974 0.93955 0.44105 0.00300
C 	C 	0.14598 0.09005 0.46793 0.09000
C 	C 	0.92934 0.88479 0.37418 0.08700
C 	C 	0.92033 0.89126 0.46050 0.08700
C 	C 	0.14333 0.09353 0.37125 0.08300
N 	N 	0.87254 0.85275 0.47556 -0.11100
N 	N 	0.18731 0.13561 0.35196 -0.11000
N 	N 	0.88813 0.84094 0.35754 -0.10500
N 	N 	0.19098 0.13095 0.48752 -0.11100
C 	C 	0.17034 0.37284 0.81085 0.01800
C 	C 	0.10246 0.33019 0.79339 -0.04200
C 	C 	0.07869 0.27958 0.77841 -0.02800
C 	C 	0.12271 0.27140 0.78089 -0.00400
C 	C 	0.19005 0.31153 0.80162 -0.02600
C 	C 	0.21380 0.36202 0.81673 -0.04000
C 	C 	0.09887 0.22409 0.75937 0.04800
C 	C 	0.07495 0.18348 0.74056 -0.09500
C 	C 	0.19652 0.43329 0.81254 0.00700
C 	C 	0.22377 0.48547 0.81435 -0.03600
H 	H 	0.06848 0.33799 0.78886 0.04500
H 	H 	0.02635 0.24809 0.76316 0.03900
H 	H 	0.22427 0.30496 0.80444 0.04700
H 	H 	0.26636 0.39461 0.83046 0.04900
C 	C 	0.49864 0.75135 0.71303 0.01800
C 	C 	0.50425 0.71349 0.70466 -0.04200
C 	C 	0.56035 0.73984 0.69090 -0.02500
C 	C 	0.61091 0.80412 0.68539 -0.00800
C 	C 	0.60238 0.84269 0.68911 -0.02600
C 	C 	0.54649 0.81630 0.70317 -0.04300
C 	C 	0.67568 0.82828 0.68688 0.05500
C 	C 	0.73193 0.85346 0.68875 -0.10700
C 	C 	0.44827 0.72258 0.73743 0.00700
C 	C 	0.40457 0.69409 0.75800 -0.03700
H 	H 	0.46680 0.66325 0.71139 0.04800
H 	H 	0.56618 0.70976 0.68760 0.04500
H 	H 	0.64096 0.89261 0.68429 0.04000
H 	H 	0.54201 0.84600 0.70876 0.04600
C 	C 	0.21987 0.71314 0.83861 0.01800
C 	C 	0.15590 0.67814 0.84407 -0.04300
C 	C 	0.13162 0.70873 0.83813 -0.02800
C 	C 	0.17083 0.77445 0.82575 -0.00800
C 	C 	0.23741 0.80862 0.82709 -0.02800
C 	C 	0.26176 0.77810 0.83311 -0.04300
C 	C 	0.13915 0.80550 0.79673 0.05000
C 	C 	0.11281 0.83164 0.77244 -0.10700
C 	C 	0.23899 0.68429 0.83079 0.00500
C 	C 	0.25629 0.66144 0.82410 -0.03500
H 	H 	0.12362 0.62772 0.84965 0.04600
H 	H 	0.08051 0.68164 0.83843 0.04200
H 	H 	0.26867 0.85931 0.81871 0.04200
H 	H 	0.31187 0.80544 0.83018 0.04700
C 	C 	0.16602 0.38283 0.29134 0.01700
C 	C 	0.20295 0.35972 0.31079 -0.04000
C 	C 	0.18166 0.31273 0.29240 -0.02700
C 	C 	0.12323 0.28847 0.25460 -0.00600
C 	C 	0.08471 0.30948 0.23685 -0.02900
C 	C 	0.10604 0.35651 0.25523 -0.04200
C 	C 	0.10084 0.23978 0.23580 0.04800
C 	C 	0.07953 0.19891 0.21872 -0.10100
C 	C 	0.19599 0.44086 0.30054 0.00700
C 	C 	0.22528 0.48976 0.31002 -0.03700
H 	H 	0.24949 0.37991 0.33864 0.04900
H 	H 	0.21099 0.29580 0.30709 0.04900
H 	H 	0.03876 0.29002 0.20832 0.03800
H 	H 	0.07729 0.37421 0.23983 0.04400
C 	C 	0.53274 0.74647 0.26037 0.01900
C 	C 	0.53636 0.70852 0.24990 -0.04200
C 	C 	0.59241 0.73400 0.23658 -0.02500
C 	C 	0.64491 0.79753 0.23353 -0.00800
C 	C 	0.64008 0.83594 0.24197 -0.02500
C 	C 	0.58418 0.81043 0.25546 -0.04300
C 	C 	0.70669 0.82219 0.22788 0.05500
C 	C 	0.76105 0.84866 0.22405 -0.10700
C 	C 	0.47735 0.71878 0.27817 0.00800
C 	C 	0.42908 0.69115 0.29279 -0.03600
H 	H 	0.49642 0.65903 0.25321 0.04900
H 	H 	0.59571 0.70401 0.23011 0.04500
H 	H 	0.68053 0.88519 0.23962 0.04000
H 	H 	0.58155 0.84012 0.26312 0.04700
C 	C 	0.18058 0.78534 0.32103 -0.00800
C 	C 	0.24150 0.79763 0.35305 -0.02700
C 	C 	0.25962 0.76131 0.36003 -0.04300
C 	C 	0.21641 0.71195 0.33569 0.01800
C 	C 	0.15252 0.69490 0.30912 -0.04300
C 	C 	0.13450 0.73128 0.30209 -0.02800
C 	C 	0.24046 0.68504 0.33165 0.00500
C 	C 	0.26029 0.66237 0.32814 -0.03500
C 	C 	0.17379 0.83579 0.29553 0.05300
C 	C 	0.16526 0.87617 0.27236 -0.10900
H 	H 	0.27707 0.83855 0.36875 0.04200
H 	H 	0.30861 0.77396 0.38172 0.04700
H 	H 	0.11819 0.65589 0.29120 0.04500
H 	H 	0.08677 0.72054 0.27812 0.04300
C 	C 	0.83169 0.18650 0.52368 -0.00600
C 	C 	0.77040 0.17132 0.49037 -0.02600
C 	C 	0.74934 0.20684 0.47901 -0.04100
C 	C 	0.78957 0.25791 0.50073 0.01900
C 	C 	0.85324 0.27651 0.53022 -0.04100
C 	C 	0.87437 0.24102 0.54151 -0.02600
C 	C 	0.76232 0.28560 0.49835 0.00700
C 	C 	0.73747 0.30730 0.49539 -0.03300
C 	C 	0.84360 0.13944 0.54882 0.05400
C 	C 	0.85352 0.10005 0.56982 -0.10400
H 	H 	0.73725 0.12964 0.47603 0.04400
H 	H 	0.70042 0.19266 0.45551 0.04800
H 	H 	0.88511 0.31648 0.54654 0.04900
H 	H 	0.92213 0.25359 0.56686 0.04700
C 	C 	0.81502 0.65378 0.56382 -0.00500
C 	C 	0.81755 0.66425 0.51464 -0.02500
C 	C 	0.80227 0.61717 0.50057 -0.04000
C 	C 	0.78367 0.55897 0.53533 0.01900
C 	C 	0.77891 0.54762 0.58393 -0.04100
C 	C 	0.79457 0.59493 0.59814 -0.02600
C 	C 	0.76004 0.50819 0.51852 0.00900
C 	C 	0.73978 0.46456 0.50578 -0.03400
C 	C 	0.84790 0.70692 0.58228 0.05800
C 	C 	0.87916 0.75616 0.59210 -0.10100
H 	H 	0.83387 0.70977 0.48798 0.05100
H 	H 	0.80450 0.62587 0.46250 0.05100
H 	H 	0.76298 0.50219 0.61063 0.04800
H 	H 	0.79313 0.58651 0.63642 0.04500
C 	C 	0.43389 0.20232 0.52520 0.02000
C 	C 	0.42950 0.23514 0.54181 -0.04100
C 	C 	0.37985 0.20289 0.56649 -0.02200
C 	C 	0.33425 0.13778 0.57442 -0.00700
C 	C 	0.33638 0.10537 0.55526 -0.02300
C 	C 	0.38628 0.13759 0.53081 -0.04200
C 	C 	0.28770 0.10345 0.60474 0.06300
C 	C 	0.24711 0.07076 0.62961 -0.11200
C 	C 	0.49151 0.23414 0.50843 0.00900
C 	C 	0.54197 0.26568 0.49542 -0.03500
H 	H 	0.46601 0.28534 0.53728 0.04900
H 	H 	0.37799 0.22831 0.58064 0.04500
H 	H 	0.30059 0.05501 0.56068 0.04200
H 	H 	0.38914 0.11196 0.51784 0.04900
C 	C 	0.83453 0.16996 0.02867 -0.00500
C 	C 	0.88165 0.22417 0.04749 -0.02600
C 	C 	0.86696 0.26473 0.03641 -0.04100
C 	C 	0.80522 0.25147 0.00623 0.01900
C 	C 	0.76044 0.20039 0.98368 -0.04200
C 	C 	0.77514 0.15980 0.99478 -0.02700
C 	C 	0.78451 0.28495 0.00393 0.00700
C 	C 	0.76587 0.31212 0.00136 -0.03200
C 	C 	0.84069 0.11914 0.05305 0.05500
C 	C 	0.84842 0.07824 0.07495 -0.10500
H 	H 	0.92795 0.23277 0.07337 0.04700
H 	H 	0.90227 0.30459 0.05342 0.04900
H 	H 	0.71294 0.19027 0.95968 0.04800
H 	H 	0.73860 0.11838 0.97967 0.04400
C 	C 	0.89223 0.67022 0.09106 -0.00700
C 	C 	0.82794 0.63762 0.06152 -0.02200
C 	C 	0.80705 0.59318 0.04013 -0.04000
C 	C 	0.85034 0.58104 0.04824 0.02000
C 	C 	0.91497 0.61433 0.07715 -0.04100
C 	C 	0.93591 0.65889 0.09846 -0.02400
C 	C 	0.82557 0.52945 0.03191 0.00900
C 	C 	0.79873 0.48496 0.01678 -0.03400
C 	C 	0.91507 0.71801 0.11135 0.06200
C 	C 	0.93873 0.75895 0.12961 -0.11000
H 	H 	0.79415 0.64661 0.05512 0.05000
H 	H 	0.75684 0.56733 0.01805 0.05100
H 	H 	0.94857 0.60495 0.08391 0.04900
H 	H 	0.98600 0.68448 0.12082 0.04300
C 	C 	0.48025 0.23936 0.03174 0.01800
C 	C 	0.48832 0.25141 0.07483 -0.04100
C 	C 	0.43319 0.22348 0.09087 -0.02700
C 	C 	0.36983 0.18352 0.06383 -0.00500
C 	C 	0.36179 0.17282 0.01994 -0.02600
C 	C 	0.41690 0.20061 0.00399 -0.04000
C 	C 	0.31370 0.14678 0.08460 0.05400
C 	C 	0.26352 0.11323 0.09866 -0.09900
C 	C 	0.53715 0.26933 0.01488 0.00900
C 	C 	0.58734 0.29643 0.00337 -0.03500
H 	H 	0.53727 0.28203 0.09608 0.04800
H 	H 	0.43982 0.23169 0.12497 0.04500
H 	H 	0.31287 0.14172 0.99896 0.04700
H 	H 	0.41029 0.19175 0.97028 0.04800
