data_crystal

_cell_length_a 15.64618
_cell_length_b 16.06152
_cell_length_c 26.70082
_cell_angle_alpha 95.40358
_cell_angle_beta  95.40315
_cell_angle_gamma 126.69364

_symmetry_space_group_name_	'P 1'
_symmetry_space_group_name_H-M	'P 1'

loop_
_symmetry_equiv_pos_as_xyz
  x,y,z

loop_
_atom_site_label
_atom_site_type_symbol
_atom_site_fract_x
_atom_site_fract_y
_atom_site_fract_z
_atom_site_charge
C 	C 	0.05610 0.10876 0.50044 -0.05800
H 	H 	0.06854 0.90302 0.49312 0.05300
H 	H 	0.10719 0.19339 0.50168 0.04800
C 	C 	0.04325 0.00355 0.94908 -0.00100
H 	H 	0.03057 0.12911 0.94584 0.04800
H 	H 	0.03428 0.86538 0.95177 0.04800
C 	C 	0.03424 0.94507 0.49531 -0.05900
C 	C 	0.10076 0.05408 0.49771 0.01400
O 	O 	0.42982 0.20796 0.00034 -0.39300
C 	C 	0.36833 0.19358 0.95791 0.32900
O 	O 	0.40832 0.25629 0.92430 -0.39500
O 	O 	0.45991 0.14315 0.51574 -0.35400
C 	C 	0.42067 0.19095 0.49877 0.29700
O 	O 	0.48705 0.28811 0.49175 -0.39800
C 	C 	0.21480 0.10822 0.49789 0.03700
C 	C 	0.30867 0.14581 0.49809 -0.10100
C 	C 	0.15782 0.07079 0.95182 0.05400
C 	C 	0.25413 0.12669 0.95466 -0.11000
H 	H 	0.47200 0.15767 0.25499 0.05700
O 	O 	0.45955 0.14625 0.15540 -0.28200
H 	H 	0.47589 0.09559 0.14954 0.13200
C 	C 	0.98956 0.89725 0.95112 -0.04100
C 	C 	0.98734 0.04604 0.94760 -0.04200
H 	H 	0.53950 0.17005 0.92512 0.16500
C 	C 	0.87735 0.98375 0.95052 0.00800
C 	C 	0.87966 0.83204 0.95368 0.01100
C 	C 	0.82194 0.87510 0.95384 -0.05100
H 	H 	0.73695 0.82588 0.95673 0.04800
C 	C 	0.94430 0.05239 0.50119 0.01300
C 	C 	0.87913 0.94307 0.49935 -0.05600
C 	C 	0.92417 0.88986 0.49613 0.01500
H 	H 	0.79318 0.89933 0.49984 0.05000
Cu	Cu	0.75499 0.33291 0.94553 0.92400
Cu	Cu	0.73760 0.24326 0.05308 0.86500
Cu	Cu	0.58451 0.27993 0.01097 0.89400
Cu	Cu	0.55271 0.32488 0.90641 0.90100
C 	C 	0.68337 0.30810 0.83764 0.30700
O 	O 	0.81435 0.49045 0.94708 -0.34300
C 	C 	0.65345 0.30788 0.12348 0.29800
O 	O 	0.58610 0.24665 0.93966 -0.63000
O 	O 	0.74161 0.34550 0.01813 -0.65000
O 	O 	0.81779 0.25160 0.94891 -0.35800
O 	O 	0.69645 0.13951 0.99556 -0.43000
O 	O 	0.63854 0.35303 0.85081 -0.37600
C 	C 	0.75994 0.52508 0.96190 0.29000
O 	O 	0.66020 0.45686 0.96806 -0.39000
O 	O 	0.74107 0.29843 0.87258 -0.36200
C 	C 	0.76501 0.16010 0.96509 0.29300
O 	O 	0.58130 0.29213 0.08548 -0.37000
O 	O 	0.73803 0.31337 0.11483 -0.42200
H 	H 	0.78929 0.41869 0.03805 0.17100
Cu	Cu	0.61833 0.20302 0.51488 0.92600
Cu	Cu	0.70039 0.21000 0.40551 0.87100
Cu	Cu	0.66863 0.36462 0.44707 0.89900
Cu	Cu	0.62599 0.39960 0.55119 0.89900
C 	C 	0.65595 0.28327 0.62241 0.30700
C 	C 	0.63694 0.29395 0.33481 0.30500
O 	O 	0.70668 0.36715 0.51831 -0.63700
O 	O 	0.59950 0.21121 0.44164 -0.64000
O 	O 	0.69094 0.13371 0.51050 -0.36800
O 	O 	0.80623 0.24656 0.46243 -0.43800
O 	O 	0.60711 0.32460 0.60963 -0.38000
O 	O 	0.74528 0.51548 0.45616 -0.38200
C 	C 	0.74728 0.57564 0.49430 0.31500
O 	O 	0.68759 0.53661 0.52973 -0.39500
O 	O 	0.65908 0.22115 0.58776 -0.35600
C 	C 	0.78236 0.17940 0.49303 0.30300
O 	O 	0.65098 0.36375 0.37233 -0.37300
O 	O 	0.62839 0.21031 0.34395 -0.42000
H 	H 	0.78561 0.41377 0.53228 0.16600
H 	H 	0.52358 0.16440 0.42267 0.17400
C 	C 	0.68137 0.28434 0.67717 -0.10200
C 	C 	0.75922 0.38127 0.71047 -0.06100
C 	C 	0.76678 0.38785 0.76362 0.17100
C 	C 	0.69507 0.29719 0.78383 -0.10100
C 	C 	0.62282 0.19884 0.75079 -0.06200
C 	C 	0.61607 0.19199 0.69756 0.17200
H 	H 	0.81068 0.45249 0.69510 0.05200
O 	O 	0.83937 0.48424 0.79558 -0.28000
H 	H 	0.56813 0.12848 0.76613 0.05500
O 	O 	0.53991 0.09643 0.66555 -0.28100
H 	H 	0.57727 0.06467 0.65983 0.15400
H 	H 	0.90635 0.49064 0.80427 0.15100
C 	C 	0.63700 0.31560 0.17675 -0.10400
C 	C 	0.72133 0.40185 0.21430 -0.06100
C 	C 	0.71731 0.39934 0.26645 0.16500
C 	C 	0.62926 0.30911 0.28136 -0.10900
C 	C 	0.54122 0.22639 0.24381 -0.05700
C 	C 	0.54481 0.22927 0.19166 0.16000
H 	H 	0.79211 0.46911 0.20316 0.05800
O 	O 	0.80337 0.48157 0.30267 -0.29600
H 	H 	0.78606 0.53106 0.31028 0.15500
C 	C 	0.80657 0.68550 0.49404 -0.10500
C 	C 	0.85827 0.77853 0.49469 0.04400
C 	C 	0.84428 0.13994 0.49838 -0.11100
C 	C 	0.89376 0.10405 0.50054 0.03800
C 	C 	0.79884 0.63257 0.95931 -0.09100
C 	C 	0.82937 0.72178 0.95692 0.03700
C 	C 	0.82617 0.03587 0.95370 0.03600
C 	C 	0.79658 0.09113 0.95750 -0.10100
