data_crystal

_cell_length_a 25.63470
_cell_length_b 26.14671
_cell_length_c 17.39277
_cell_angle_alpha 95.49390
_cell_angle_beta  95.48987
_cell_angle_gamma 125.84553

_symmetry_space_group_name_	'P 1'
_symmetry_space_group_name_H-M	'P 1'

loop_
_symmetry_equiv_pos_as_xyz
  x,y,z

loop_
_atom_site_label
_atom_site_type_symbol
_atom_site_fract_x
_atom_site_fract_y
_atom_site_fract_z
_atom_site_charge
C 	C 	0.05107 0.02270 0.06003 0.14100
N 	N 	0.02848 0.05851 0.05892 -0.15700
C 	C 	0.02565 0.99233 0.33997 0.08700
C 	C 	0.09711 0.03772 0.34852 -0.03600
C 	C 	0.13594 0.08334 0.41886 0.09300
C 	C 	0.20418 0.12498 0.42591 -0.08300
C 	C 	0.23434 0.12143 0.36470 -0.01000
C 	C 	0.19558 0.07551 0.29452 0.06900
C 	C 	0.12714 0.03406 0.28718 -0.04900
N 	N 	0.10816 0.08675 0.48020 -0.19800
H 	H 	0.23412 0.15981 0.47979 0.05300
C 	C 	0.30678 0.16388 0.37672 0.00400
N 	N 	0.22365 0.07097 0.23425 -0.19300
H 	H 	0.09717 0.99904 0.23344 0.03700
C 	C 	0.34057 0.13792 0.39239 -0.09900
C 	C 	0.40927 0.17732 0.40845 0.12100
C 	C 	0.34221 0.23076 0.37916 0.05400
H 	H 	0.31329 0.08655 0.38953 0.05600
N 	N 	0.31100 0.25651 0.35792 -0.19200
H 	H 	0.41454 0.10044 0.40912 0.07800
H 	H 	0.33731 0.30616 0.36214 0.07600
H 	H 	0.26095 0.22751 0.33432 0.08200
H 	H 	0.19511 0.03421 0.18497 0.08400
H 	H 	0.27348 0.10481 0.23447 0.08400
H 	H 	0.05775 0.05525 0.47821 0.08900
H 	H 	0.13731 0.12098 0.53153 0.08100
H 	H 	0.00984 0.13611 0.16531 0.03700
C 	C 	0.35682 0.13553 0.06646 -0.08000
C 	C 	0.31303 0.13103 0.00645 -0.04100
C 	C 	0.33433 0.15407 0.93686 0.09900
H 	H 	0.34035 0.11809 0.11978 0.04600
C 	C 	0.24540 0.10327 0.01824 -0.02700
N 	N 	0.29352 0.15232 0.87869 -0.19800
C 	C 	0.23511 0.13933 0.07092 -0.09300
C 	C 	0.17292 0.11235 0.08976 0.10700
C 	C 	0.11874 0.05054 0.04880 -0.09500
C 	C 	0.12899 0.01502 0.99498 -0.00200
C 	C 	0.19208 0.03985 0.98137 0.08400
H 	H 	0.27639 0.18729 0.10062 0.04900
N 	N 	0.16658 0.14398 0.15057 -0.20100
N 	N 	0.20108 0.00254 0.93309 -0.18800
H 	H 	0.20600 0.19084 0.17765 0.07900
H 	H 	0.12477 0.12076 0.17581 0.09200
H 	H 	0.24762 0.01840 0.92407 0.09500
H 	H 	0.30936 0.16835 0.82697 0.08400
H 	H 	0.24631 0.13628 0.88464 0.09400
C 	C 	0.41063 0.27092 0.40277 -0.02300
C 	C 	0.51678 0.28858 0.44089 0.29400
C 	C 	0.44457 0.24494 0.41810 -0.11200
N 	N 	0.44083 0.14984 0.41084 -0.20100
H 	H 	0.43756 0.32248 0.40822 0.04200
H 	H 	0.49045 0.17594 0.40805 0.06800
C 	C 	0.44347 0.18647 0.98942 -0.07600
C 	C 	0.42279 0.16660 0.06091 0.08200
C 	C 	0.39871 0.17944 0.92799 -0.04600
N 	N 	0.46633 0.18043 0.12558 -0.19900
H 	H 	0.41451 0.19526 0.87376 0.04800
H 	H 	0.51635 0.21620 0.13096 0.09400
H 	H 	0.44969 0.16017 0.17496 0.07800
O 	O 	0.54603 0.19964 0.00915 -0.39300
C 	C 	0.51239 0.21889 0.97997 0.31800
O 	O 	0.54244 0.27220 0.95201 -0.39100
O 	O 	0.54588 0.28023 0.49981 -0.37500
O 	O 	0.55036 0.34061 0.40986 -0.39700
H 	H 	0.08768 0.96761 0.96377 0.03300
H 	H 	0.16114 0.95621 0.90503 0.07300
N 	N 	0.00867 0.95874 0.05938 -0.16800
O 	O 	0.62171 0.33391 0.13412 -0.37500
H 	H 	0.59167 0.20840 0.86928 0.18000
Cu	Cu	0.63335 0.37108 0.37247 0.89300
H 	H 	0.59649 0.25905 0.36273 0.15400
H 	H 	0.59757 0.46346 0.86560 0.09700
H 	H 	0.59739 0.53145 0.89089 0.08500
H 	H 	0.01739 0.22704 0.22370 0.07000
H 	H 	0.01945 0.89009 0.56718 0.07100
Cu	Cu	0.64467 0.25244 0.01617 0.91500
Cu	Cu	0.62193 0.35942 0.03048 0.87600
O 	O 	0.63559 0.24354 0.90032 -0.63200
Cu	Cu	0.63448 0.30660 0.50607 0.90500
O 	O 	0.63286 0.30142 0.39483 -0.63600
H 	H 	0.64965 0.07001 0.35723 0.07600
N 	N 	0.62308 0.51183 0.89093 -0.20300
O 	O 	0.64365 0.42885 0.97117 -0.38900
O 	O 	0.64232 0.31024 0.61819 -0.34100
C 	C 	0.66062 0.32127 0.16706 0.18900
O 	O 	0.66591 0.27861 0.12894 -0.33300
O 	O 	0.67750 0.38376 0.28134 -0.36200
O 	O 	0.65509 0.31625 0.77204 -0.34500
C 	C 	0.65439 0.27371 0.64979 0.19500
Cu	Cu	0.66464 0.33131 0.88729 0.89400
C 	C 	0.65965 0.27548 0.72733 0.18500
O 	O 	0.68261 0.34656 0.99986 -0.60000
O 	O 	0.66722 0.23519 0.75726 -0.39200
C 	C 	0.68241 0.34082 0.24444 0.19200
O 	O 	0.65771 0.23278 0.60430 -0.39900
N 	N 	0.68527 0.11982 0.37069 -0.20400
H 	H 	0.67034 0.14817 0.38682 0.06200
Cu	Cu	0.70846 0.25116 0.86322 0.86500
O 	O 	0.69907 0.22170 0.03422 -0.38300
O 	O 	0.69981 0.41958 0.88192 -0.38300
C 	C 	0.68940 0.45485 0.92776 0.30100
O 	O 	0.71568 0.32357 0.28147 -0.32500
C 	C 	0.68893 0.54980 0.91751 0.12900
H 	H 	0.69700 0.63708 0.93808 0.05700
O 	O 	0.71386 0.43266 0.47026 -0.39500
O 	O 	0.72366 0.32836 0.50739 -0.63600
C 	C 	0.72351 0.52309 0.92269 -0.11100
C 	C 	0.72351 0.61658 0.93743 -0.09300
H 	H 	0.72898 0.38139 0.02382 0.13000
Cu	Cu	0.72880 0.33026 0.39420 0.92100
Cu	Cu	0.72560 0.26058 0.54165 0.86800
H 	H 	0.72985 0.05381 0.33732 0.05300
H 	H 	0.00038 0.93497 0.51558 0.07700
O 	O 	0.74590 0.26512 0.36813 -0.37900
C 	C 	0.74903 0.14604 0.36781 0.11500
N 	N 	0.98861 0.01324 0.32738 -0.12300
N 	N 	0.99879 0.93417 0.36043 -0.13500
H 	H 	0.90741 0.81557 0.20580 0.08600
N 	N 	0.91199 0.84497 0.16614 -0.20600
C 	C 	0.96420 0.03072 0.05966 0.14100
O 	O 	0.76932 0.28735 0.95984 -0.42100
C 	C 	0.75715 0.25280 0.01484 0.28200
O 	O 	0.78959 0.42830 0.41790 -0.36200
O 	O 	0.79438 0.27621 0.49174 -0.43100
C 	C 	0.77364 0.46200 0.45611 0.28800
C 	C 	0.78292 0.25720 0.41556 0.29800
H 	H 	0.75814 0.37019 0.54200 0.16200
C 	C 	0.90928 0.83783 0.40141 -0.05000
C 	C 	0.94380 0.83627 0.46865 0.09700
C 	C 	0.92678 0.77698 0.48376 -0.08500
C 	C 	0.87316 0.71932 0.43615 -0.01000
C 	C 	0.83377 0.72079 0.37468 0.06900
C 	C 	0.85309 0.78021 0.35689 -0.05800
H 	H 	0.95529 0.77572 0.53277 0.05300
C 	C 	0.86019 0.65789 0.44940 0.00300
N 	N 	0.77768 0.66558 0.33269 -0.19400
H 	H 	0.82525 0.78150 0.30707 0.04400
C 	C 	0.83385 0.63291 0.51519 -0.10100
C 	C 	0.81419 0.57156 0.52458 0.12400
C 	C 	0.81600 0.53276 0.46393 -0.11500
C 	C 	0.84847 0.56026 0.40235 -0.02600
C 	C 	0.87190 0.62314 0.39546 0.05600
H 	H 	0.82841 0.66111 0.55896 0.05500
N 	N 	0.79514 0.55075 0.59241 -0.20300
H 	H 	0.85286 0.53177 0.35766 0.04700
N 	N 	0.90499 0.64958 0.33683 -0.19200
H 	H 	0.79106 0.57832 0.63552 0.08400
H 	H 	0.78790 0.50894 0.60480 0.08900
H 	H 	0.91128 0.62273 0.29555 0.07700
H 	H 	0.92676 0.69755 0.33326 0.08500
H 	H 	0.75032 0.66700 0.28552 0.07600
H 	H 	0.75947 0.62108 0.34801 0.08200
C 	C 	0.79799 0.21354 0.38539 -0.11900
C 	C 	0.76687 0.10549 0.34900 -0.10100
C 	C 	0.83263 0.13086 0.35051 0.00200
C 	C 	0.88090 0.19828 0.36318 0.05500
C 	C 	0.86297 0.23901 0.38044 -0.02300
C 	C 	0.85120 0.08675 0.34817 -0.01000
N 	N 	0.94452 0.22411 0.36031 -0.19200
H 	H 	0.90006 0.29068 0.39223 0.03700
C 	C 	0.84680 0.05523 0.27518 -0.08500
C 	C 	0.86505 0.01390 0.27105 0.10400
C 	C 	0.89105 0.00663 0.34106 -0.03700
C 	C 	0.89253 0.03571 0.41404 -0.05800
C 	C 	0.87229 0.07532 0.41846 0.07300
H 	H 	0.82896 0.06270 0.22151 0.05400
H 	H 	0.91151 0.02916 0.46765 0.05000
N 	N 	0.87372 0.10253 0.49014 -0.19500
H 	H 	0.89043 0.09463 0.54159 0.08200
H 	H 	0.85744 0.13088 0.49574 0.08500
H 	H 	0.97998 0.27393 0.37069 0.08000
H 	H 	0.95922 0.19517 0.34639 0.08800
C 	C 	0.79216 0.65719 0.95486 -0.00900
C 	C 	0.82695 0.63074 0.95003 0.06500
C 	C 	0.79216 0.56371 0.93520 -0.02600
C 	C 	0.82697 0.72702 0.98105 0.04100
N 	N 	0.89346 0.66927 0.95958 -0.19300
H 	H 	0.81867 0.54320 0.93628 0.03900
C 	C 	0.85240 0.75374 0.06136 -0.14100
C 	C 	0.83450 0.76687 0.92666 0.04300
H 	H 	0.84532 0.72286 0.10307 0.05700
N 	N 	0.81113 0.74246 0.84830 -0.18900
H 	H 	0.81614 0.77217 0.80885 0.08000
H 	H 	0.78902 0.69432 0.82546 0.08500
H 	H 	0.91880 0.64931 0.95812 0.08400
H 	H 	0.92050 0.71910 0.96612 0.09300
C 	C 	0.94004 0.06993 0.06080 -0.05800
C 	C 	0.88602 0.05256 0.00427 0.08300
C 	C 	0.85951 0.08644 0.01274 -0.11900
C 	C 	0.89001 0.14134 0.07142 -0.01200
C 	C 	0.94518 0.15991 0.12674 0.06200
C 	C 	0.96887 0.12321 0.12165 -0.03800
H 	H 	0.81745 0.07253 0.97032 0.08100
C 	C 	0.86811 0.18262 0.06849 0.02600
N 	N 	0.97609 0.21321 0.18398 -0.18800
C 	C 	0.82665 0.17848 0.11880 -0.12600
C 	C 	0.79761 0.20992 0.10941 0.15300
C 	C 	0.80355 0.23883 0.04262 -0.17600
C 	C 	0.84932 0.24747 0.99647 0.06700
C 	C 	0.88291 0.22098 0.01015 -0.02700
H 	H 	0.81811 0.15196 0.16626 0.06300
N 	N 	0.76786 0.21562 0.16668 -0.20900
H 	H 	0.85753 0.27325 0.94835 0.01100
N 	N 	0.92894 0.23220 0.96689 -0.16600
H 	H 	0.75838 0.18946 0.21192 0.09800
H 	H 	0.75924 0.25010 0.17058 0.11600
H 	H 	0.93786 0.25860 0.92195 0.07800
H 	H 	0.95795 0.21698 0.97929 0.09700
H 	H 	0.95959 0.24134 0.18989 0.08500
N 	N 	0.99206 0.89126 0.51980 -0.18600
C 	C 	0.88761 0.82009 0.08807 0.12400
C 	C 	0.89693 0.86008 0.03333 -0.10700
C 	C 	0.86820 0.83288 0.95381 0.00200
H 	H 	0.87504 0.86376 0.91218 0.03700
H 	H 	0.93433 0.89328 0.18839 0.09500
C 	C 	0.94392 0.93027 0.05582 0.14200
N 	N 	0.89951 0.92008 0.36158 -0.14300
C 	C 	0.93600 0.89823 0.37209 0.12100
H 	H 	0.86520 0.94616 0.19585 0.09200
N 	N 	0.85572 0.98000 0.20018 -0.20400
H 	H 	0.83600 0.98522 0.14875 0.08400
N 	N 	0.92195 0.96651 0.05764 -0.16100
H 	H 	0.88602 0.98644 0.92523 0.08900
H 	H 	0.81930 0.99061 0.90105 0.07500
N 	N 	0.86143 0.00557 0.93999 -0.17100
C 	C 	0.92573 0.97753 0.33869 0.10400
