data_crystal

_cell_length_a 27.89864
_cell_length_b 24.61516
_cell_length_c 47.21123
_cell_angle_alpha 90.50218
_cell_angle_beta  90.59054
_cell_angle_gamma 113.40851

_symmetry_space_group_name_	'P 1'
_symmetry_space_group_name_H-M	'P 1'

loop_
_symmetry_equiv_pos_as_xyz
  x,y,z

loop_
_atom_site_label
_atom_site_type_symbol
_atom_site_fract_x
_atom_site_fract_y
_atom_site_fract_z
_atom_site_charge
Ni	Ni	0.72816 0.35333 0.90266 1.10200
O 	O 	0.65833 0.31840 0.88134 -0.70500
Ni	Ni	0.61139 0.33351 0.90914 1.10200
O 	O 	0.76419 0.32980 0.86996 -0.37100
O 	O 	0.70756 0.23270 0.87316 -0.40300
O 	O 	0.73728 0.43001 0.88225 -0.39600
Ni	Ni	0.63314 0.23394 0.87426 1.07000
O 	O 	0.76777 0.41654 0.96474 -0.41200
O 	O 	0.63301 0.21541 0.91622 -0.40900
O 	O 	0.54690 0.30540 0.88377 -0.37200
O 	O 	0.67871 0.35680 0.93239 -0.70400
O 	O 	0.79936 0.39447 0.92295 -0.37600
O 	O 	0.57720 0.37178 0.93673 -0.37000
O 	O 	0.64828 0.45975 0.93587 -0.41200
Ni	Ni	0.70776 0.43540 0.95005 1.07100
H 	H 	0.65885 0.33932 0.86345 0.15600
H 	H 	0.67534 0.32671 0.94686 0.16300
C 	C 	0.59396 0.21280 0.93198 0.29600
O 	O 	0.75881 0.49064 0.92163 -0.40100
C 	C 	0.74855 0.27410 0.86151 0.27300
C 	C 	0.53440 0.25640 0.86846 0.29200
C 	C 	0.75744 0.48317 0.89395 0.30400
C 	C 	0.59917 0.42890 0.94243 0.27500
C 	C 	0.80710 0.41993 0.94843 0.29900
O 	O 	0.57699 0.25564 0.93136 -0.36500
O 	O 	0.55490 0.21745 0.87454 -0.40200
Ni	Ni	0.60873 0.33478 0.55863 1.10100
O 	O 	0.67279 0.35776 0.53333 -0.70200
Ni	Ni	0.72605 0.35252 0.56086 1.10100
O 	O 	0.57089 0.37420 0.53400 -0.36600
O 	O 	0.64386 0.46020 0.53291 -0.41400
O 	O 	0.57107 0.25836 0.53501 -0.36800
Ni	Ni	0.70091 0.43555 0.51606 1.07300
O 	O 	0.55402 0.21497 0.58903 -0.40900
O 	O 	0.75420 0.48726 0.54564 -0.39300
O 	O 	0.79516 0.39374 0.53929 -0.36900
O 	O 	0.65877 0.31738 0.58360 -0.70400
O 	O 	0.54736 0.30525 0.58553 -0.37600
O 	O 	0.76555 0.32666 0.59111 -0.36800
O 	O 	0.70671 0.23036 0.58717 -0.40600
Ni	Ni	0.63255 0.23223 0.58795 1.06500
H 	H 	0.66693 0.32754 0.51825 0.16100
H 	H 	0.66193 0.33717 0.60229 0.15600
C 	C 	0.74883 0.47984 0.57301 0.31600
O 	O 	0.62844 0.21643 0.54558 -0.41300
C 	C 	0.59411 0.43003 0.52675 0.27400
C 	C 	0.80007 0.41905 0.51411 0.29600
C 	C 	0.58906 0.21711 0.53051 0.29600
C 	C 	0.74869 0.27110 0.59923 0.27400
C 	C 	0.53262 0.25224 0.59707 0.27500
O 	O 	0.73945 0.42801 0.58411 -0.39000
O 	O 	0.75880 0.41619 0.49907 -0.40900
C 	C 	0.04246 0.99215 0.70424 -0.04300
H 	H 	0.04205 0.99232 0.68069 0.04500
C 	C 	0.04341 0.99137 0.76086 -0.04400
H 	H 	0.04394 0.99110 0.78441 0.04600
C 	C 	0.01983 0.03280 0.71855 0.00400
C 	C 	0.01156 0.93155 0.71755 -0.00700
C 	C 	0.09687 0.01160 0.71810 0.00500
C 	C 	0.02028 0.03238 0.74748 0.00400
C 	C 	0.01211 0.93129 0.74654 0.00800
C 	C 	0.09730 0.01103 0.74714 -0.00800
Ni	Ni	0.24399 0.69499 0.39659 1.10100
O 	O 	0.31304 0.72927 0.37544 -0.70400
Ni	Ni	0.36230 0.71995 0.40404 1.10100
O 	O 	0.20564 0.71273 0.36300 -0.36600
O 	O 	0.26081 0.81067 0.36431 -0.40500
O 	O 	0.23553 0.61711 0.37689 -0.38700
Ni	Ni	0.33628 0.81263 0.36700 1.06900
O 	O 	0.20680 0.63801 0.45946 -0.41400
O 	O 	0.33581 0.83551 0.40852 -0.41100
O 	O 	0.42621 0.74746 0.37891 -0.37000
O 	O 	0.29562 0.69742 0.42704 -0.70300
O 	O 	0.17339 0.65419 0.41673 -0.36600
O 	O 	0.39943 0.68786 0.43305 -0.37000
O 	O 	0.32979 0.59860 0.43393 -0.41400
Ni	Ni	0.26919 0.62191 0.44664 1.07000
H 	H 	0.31248 0.70640 0.35799 0.15700
H 	H 	0.29874 0.72929 0.44077 0.15800
C 	C 	0.37496 0.84083 0.42533 0.29700
O 	O 	0.22064 0.56395 0.41744 -0.39900
C 	C 	0.22021 0.76666 0.35308 0.29100
C 	C 	0.43853 0.79622 0.36390 0.28900
C 	C 	0.22833 0.56789 0.39011 0.31900
C 	C 	0.37889 0.63188 0.44032 0.27500
C 	C 	0.16665 0.63053 0.44236 0.29500
O 	O 	0.39511 0.80077 0.42489 -0.36700
O 	O 	0.41543 0.83335 0.36868 -0.40000
Ni	Ni	0.36438 0.72256 0.06184 1.10200
O 	O 	0.29995 0.69231 0.03587 -0.70500
Ni	Ni	0.24561 0.69505 0.06243 1.10100
O 	O 	0.40504 0.68391 0.03896 -0.36500
O 	O 	0.33501 0.59486 0.03838 -0.41600
O 	O 	0.39832 0.79707 0.03736 -0.36500
Ni	Ni	0.27496 0.61258 0.01981 1.07200
O 	O 	0.41216 0.84552 0.09155 -0.41000
O 	O 	0.22109 0.56036 0.04815 -0.39600
O 	O 	0.17874 0.64574 0.03985 -0.37100
O 	O 	0.31239 0.73815 0.08564 -0.70500
O 	O 	0.42545 0.75889 0.08928 -0.37700
O 	O 	0.20275 0.71964 0.09100 -0.36700
O 	O 	0.25640 0.81739 0.08587 -0.40400
Ni	Ni	0.33300 0.82305 0.08859 1.06600
H 	H 	0.30358 0.72052 0.02042 0.16400
H 	H 	0.31085 0.72097 0.10466 0.15600
C 	C 	0.22391 0.56931 0.07566 0.32000
O 	O 	0.33719 0.83454 0.04604 -0.41200
C 	C 	0.38410 0.62710 0.03234 0.27400
C 	C 	0.17689 0.63218 0.01249 0.29300
C 	C 	0.37838 0.83647 0.03236 0.29500
C 	C 	0.21648 0.77581 0.09819 0.27400
C 	C 	0.43536 0.81125 0.10119 0.27600
O 	O 	0.23792 0.62292 0.08634 -0.39400
O 	O 	0.21720 0.62788 0.99947 -0.41000
C 	C 	0.92970 0.06008 0.20565 -0.04600
H 	H 	0.92813 0.06080 0.18212 0.04500
C 	C 	0.93306 0.05827 0.26217 -0.03500
H 	H 	0.93449 0.05759 0.28570 0.04100
C 	C 	0.94767 0.01382 0.21818 0.00500
C 	C 	0.96652 0.11820 0.21990 -0.00200
C 	C 	0.87731 0.04688 0.22023 0.00600
C 	C 	0.94917 0.01279 0.24713 -0.01000
C 	C 	0.96838 0.11717 0.24889 -0.01300
C 	C 	0.87892 0.04581 0.24927 -0.01100
C 	C 	0.99826 0.17081 0.20330 0.01100
C 	C 	0.99084 0.22373 0.20624 -0.04200
C 	C 	0.02174 0.27381 0.19110 -0.03500
C 	C 	0.06012 0.27131 0.17274 0.00500
C 	C 	0.06733 0.21824 0.16971 -0.03800
C 	C 	0.03640 0.16816 0.18487 -0.04000
C 	C 	0.09175 0.32376 0.15610 0.01100
C 	C 	0.08920 0.32110 0.12638 -0.04300
C 	C 	0.11795 0.37115 0.11062 -0.02800
C 	C 	0.14942 0.42425 0.12442 -0.00700
C 	C 	0.15243 0.42693 0.15410 -0.02900
C 	C 	0.12374 0.37683 0.16991 -0.04300
C 	C 	0.17713 0.47644 0.10806 0.04900
C 	C 	0.19922 0.51936 0.09370 -0.10400
H 	H 	0.96124 0.22605 0.22029 0.04300
H 	H 	0.01558 0.31437 0.19345 0.04100
H 	H 	0.09690 0.21585 0.15566 0.04100
H 	H 	0.04248 0.12754 0.18253 0.04200
H 	H 	0.06451 0.28049 0.11550 0.04400
H 	H 	0.11536 0.36876 0.08769 0.04300
H 	H 	0.17665 0.46781 0.16493 0.03900
H 	H 	0.12622 0.37931 0.19283 0.04100
C 	C 	0.48382 0.83914 0.11804 -0.08500
C 	C 	0.51416 0.90010 0.11573 0.01500
C 	C 	0.56285 0.92542 0.12925 -0.06600
C 	C 	0.58178 0.89014 0.14513 0.02900
C 	C 	0.55082 0.82972 0.14833 -0.06600
C 	C 	0.50196 0.80431 0.13488 0.01400
C 	C 	0.63469 0.91606 0.15752 -0.00300
C 	C 	0.64185 0.91930 0.18702 -0.03200
C 	C 	0.69206 0.94607 0.19875 -0.04800
C 	C 	0.73528 0.96981 0.18107 0.02600
C 	C 	0.72832 0.96608 0.15162 -0.04700
C 	C 	0.67813 0.93919 0.13984 -0.03100
C 	C 	0.78660 0.99799 0.19329 -0.02200
C 	C 	0.82864 0.02089 0.20474 -0.00600
H 	H 	0.50079 0.92754 0.10275 0.03700
H 	H 	0.58634 0.97227 0.12697 0.05000
H 	H 	0.56507 0.80228 0.16076 0.04800
H 	H 	0.47861 0.75743 0.13714 0.03100
H 	H 	0.60852 0.90164 0.20081 0.03600
H 	H 	0.69737 0.94862 0.22157 0.04400
H 	H 	0.76168 0.98415 0.13786 0.04500
H 	H 	0.67291 0.93656 0.11702 0.04300
C 	C 	0.18001 0.79346 0.11431 -0.08400
C 	C 	0.12609 0.76688 0.10844 0.01900
C 	C 	0.09235 0.78908 0.12113 -0.06500
C 	C 	0.11223 0.83770 0.13989 0.03000
C 	C 	0.16583 0.86298 0.14644 -0.06700
C 	C 	0.19956 0.84103 0.13368 0.01300
C 	C 	0.07733 0.86335 0.15207 -0.00400
C 	C 	0.06911 0.86129 0.18138 -0.03100
C 	C 	0.04024 0.89061 0.19332 -0.04900
C 	C 	0.01945 0.92223 0.17609 0.02800
C 	C 	0.02650 0.92318 0.14673 -0.04800
C 	C 	0.05531 0.89372 0.13472 -0.03100
C 	C 	0.99295 0.95564 0.18884 -0.02600
C 	C 	0.97173 0.98285 0.20113 -0.00800
H 	H 	0.11055 0.73034 0.09339 0.04500
H 	H 	0.05094 0.76906 0.11609 0.05100
H 	H 	0.18147 0.90039 0.16100 0.04500
H 	H 	0.24105 0.86168 0.13845 0.01100
H 	H 	0.08588 0.83790 0.19493 0.03800
H 	H 	0.03479 0.88958 0.21604 0.04600
H 	H 	0.01044 0.94744 0.13327 0.04500
H 	H 	0.06156 0.89565 0.11208 0.04100
C 	C 	0.83080 0.01785 0.26607 0.01800
C 	C 	0.81703 0.96044 0.27646 -0.04300
C 	C 	0.76824 0.93063 0.28876 -0.03700
C 	C 	0.73287 0.95809 0.29091 0.00400
C 	C 	0.74728 0.01619 0.28126 -0.03700
C 	C 	0.79607 0.04596 0.26894 -0.04300
C 	C 	0.68056 0.92579 0.30299 0.01000
C 	C 	0.63536 0.91500 0.28654 -0.04300
C 	C 	0.58589 0.88540 0.29816 -0.03200
C 	C 	0.58123 0.86628 0.32628 -0.00400
C 	C 	0.62628 0.87630 0.34261 -0.02900
C 	C 	0.67577 0.90594 0.33103 -0.04200
C 	C 	0.53036 0.83977 0.33894 0.04300
C 	C 	0.48816 0.81892 0.35001 -0.09400
H 	H 	0.84343 0.93825 0.27422 0.04200
H 	H 	0.75758 0.88586 0.29616 0.04000
H 	H 	0.72048 0.03801 0.28303 0.04000
H 	H 	0.80633 0.09024 0.26095 0.04200
H 	H 	0.63855 0.92977 0.26483 0.03800
H 	H 	0.55127 0.87796 0.28541 0.03600
H 	H 	0.62302 0.86185 0.36439 0.04600
H 	H 	0.71035 0.91406 0.34393 0.04300
C 	C 	0.00658 0.16562 0.26609 0.02300
C 	C 	0.06033 0.18077 0.26299 -0.04500
C 	C 	0.09640 0.22791 0.27869 -0.03500
C 	C 	0.07891 0.25960 0.29787 0.00200
C 	C 	0.02516 0.24350 0.30144 -0.03100
C 	C 	0.98913 0.19657 0.28563 -0.05200
C 	C 	0.11666 0.31091 0.31351 0.01300
C 	C 	0.12101 0.30914 0.34308 -0.04400
C 	C 	0.15041 0.36066 0.35841 -0.02700
C 	C 	0.17560 0.41415 0.34428 -0.00800
C 	C 	0.17384 0.41521 0.31463 -0.02800
C 	C 	0.14450 0.36368 0.29926 -0.04400
C 	C 	0.19668 0.46875 0.36020 0.05300
C 	C 	0.21226 0.51426 0.37375 -0.10200
H 	H 	0.07407 0.15635 0.24825 0.04300
H 	H 	0.13784 0.23996 0.27590 0.03900
H 	H 	0.01137 0.26786 0.31619 0.04100
H 	H 	0.94768 0.18477 0.28828 0.04300
H 	H 	0.10007 0.26839 0.35422 0.04400
H 	H 	0.15183 0.35949 0.38134 0.04300
H 	H 	0.19342 0.45640 0.30356 0.04000
H 	H 	0.14161 0.36531 0.27640 0.04200
C 	C 	0.97209 0.97698 0.26269 0.01200
C 	C 	0.02240 0.00418 0.27455 -0.03700
C 	C 	0.04832 0.96966 0.28443 -0.04100
C 	C 	0.02391 0.90769 0.28265 0.00800
C 	C 	0.97256 0.88047 0.27211 -0.04300
C 	C 	0.94668 0.91502 0.26222 -0.04000
C 	C 	0.05258 0.87152 0.29124 0.00900
C 	C 	0.09684 0.87487 0.27627 -0.04400
C 	C 	0.12784 0.84634 0.28646 -0.03100
C 	C 	0.11462 0.81415 0.31157 -0.00700
C 	C 	0.06877 0.80798 0.32563 -0.02900
C 	C 	0.03782 0.83659 0.31550 -0.04200
C 	C 	0.15151 0.79495 0.32503 0.04500
C 	C 	0.18281 0.78092 0.33727 -0.10200
H 	H 	0.04219 0.05197 0.27509 0.04100
H 	H 	0.08770 0.99101 0.29295 0.04100
H 	H 	0.95330 0.83264 0.27088 0.04100
H 	H 	0.90776 0.89371 0.25309 0.04100
H 	H 	0.10802 0.90098 0.25724 0.03900
H 	H 	0.16310 0.85106 0.27540 0.03600
H 	H 	0.05823 0.78297 0.34501 0.04400
H 	H 	0.00341 0.83331 0.32703 0.04300
C 	C 	0.44758 0.94647 0.48443 -0.04200
C 	C 	0.46272 0.00158 0.47096 0.02300
C 	C 	0.44722 0.00397 0.44286 -0.06000
C 	C 	0.41755 0.95195 0.42787 0.02900
C 	C 	0.40222 0.89657 0.44133 -0.08400
C 	C 	0.41721 0.89436 0.46961 0.01500
C 	C 	0.49494 0.05720 0.48608 0.02100
C 	C 	0.54882 0.08361 0.48128 -0.06000
C 	C 	0.57988 0.13703 0.49490 0.02500
C 	C 	0.55689 0.16403 0.51383 -0.08400
C 	C 	0.50280 0.13799 0.51822 0.01200
C 	C 	0.47177 0.08497 0.50440 -0.04100
C 	C 	0.63489 0.16469 0.48869 0.06900
C 	C 	0.41618 0.05912 0.50921 0.09000
C 	C 	0.46350 0.94304 0.51334 0.09000
C 	C 	0.40499 0.95570 0.39838 0.06400
N 	N 	0.67895 0.18686 0.48372 -0.11500
N 	N 	0.37166 0.03838 0.51306 -0.11700
N 	N 	0.39497 0.95879 0.37475 -0.13500
N 	N 	0.47626 0.94035 0.53650 -0.11900
H 	H 	0.40579 0.85194 0.47995 0.03500
H 	H 	0.45893 0.04644 0.43255 0.05400
H 	H 	0.56646 0.06268 0.46680 0.05400
H 	H 	0.48503 0.15848 0.53287 0.04900
C 	C 	0.93983 0.45017 0.49465 -0.03900
C 	C 	0.95634 0.50743 0.48327 0.01900
C 	C 	0.92096 0.53480 0.48114 -0.05700
C 	C 	0.86961 0.50609 0.49065 0.02500
C 	C 	0.85295 0.44867 0.50209 -0.07800
C 	C 	0.88834 0.42111 0.50393 0.01100
C 	C 	0.01056 0.53883 0.47307 0.02300
C 	C 	0.02310 0.52688 0.44570 -0.05600
C 	C 	0.07388 0.55607 0.43552 0.02400
C 	C 	0.11275 0.59874 0.45277 -0.07900
C 	C 	0.10017 0.61043 0.48026 0.00800
C 	C 	0.04940 0.58071 0.49048 -0.04100
C 	C 	0.08604 0.54061 0.40770 0.08400
C 	C 	0.03753 0.59319 0.51889 0.09000
C 	C 	0.97565 0.42121 0.49716 0.08600
C 	C 	0.83498 0.53680 0.48952 0.06700
N 	N 	0.09559 0.52813 0.38540 -0.10400
N 	N 	0.02797 0.60315 0.54165 -0.11500
N 	N 	0.80729 0.56146 0.48859 -0.12700
N 	N 	0.00438 0.39805 0.49917 -0.11500
H 	H 	0.87587 0.37716 0.51276 0.04200
H 	H 	0.93363 0.57882 0.47236 0.05200
H 	H 	0.99333 0.49441 0.43237 0.05100
H 	H 	0.12980 0.64292 0.49364 0.03900
C 	C 	0.53907 0.54545 0.51417 -0.04100
C 	C 	0.50400 0.51976 0.49141 0.02000
C 	C 	0.49889 0.46487 0.48012 -0.05900
C 	C 	0.52834 0.43529 0.49133 0.02300
C 	C 	0.56298 0.46056 0.51440 -0.08400
C 	C 	0.56827 0.51572 0.52557 0.00900
C 	C 	0.47269 0.55028 0.47903 0.02200
C 	C 	0.49048 0.58445 0.45476 -0.06100
C 	C 	0.46033 0.61145 0.44187 0.02800
C 	C 	0.41199 0.60490 0.45364 -0.08300
C 	C 	0.39441 0.57091 0.47803 0.01000
C 	C 	0.42442 0.54355 0.49074 -0.04200
C 	C 	0.47830 0.64368 0.41599 0.07500
C 	C 	0.40533 0.50841 0.51571 0.08800
C 	C 	0.54526 0.60227 0.52593 0.08900
C 	C 	0.52411 0.38009 0.47842 0.06800
N 	N 	0.49275 0.66946 0.39525 -0.10600
N 	N 	0.39009 0.48025 0.53572 -0.11700
N 	N 	0.52072 0.33588 0.46808 -0.11200
N 	N 	0.55017 0.64778 0.53534 -0.11600
H 	H 	0.59489 0.53530 0.54327 0.04100
H 	H 	0.47218 0.44540 0.46245 0.05300
H 	H 	0.52751 0.58927 0.44568 0.05200
H 	H 	0.35729 0.56578 0.48710 0.01800
C 	C 	0.78393 0.25178 0.61578 -0.08500
C 	C 	0.76308 0.20258 0.63346 0.01300
C 	C 	0.79595 0.17969 0.64663 -0.06700
C 	C 	0.84998 0.20582 0.64227 0.02900
C 	C 	0.87111 0.25615 0.62536 -0.06600
C 	C 	0.83826 0.27915 0.61220 0.01700
C 	C 	0.88413 0.17937 0.65473 -0.00400
C 	C 	0.90954 0.15317 0.63717 -0.03100
C 	C 	0.93894 0.12430 0.64909 -0.04700
C 	C 	0.94308 0.12155 0.67859 0.02500
C 	C 	0.91853 0.14861 0.69613 -0.04800
C 	C 	0.88920 0.17750 0.68426 -0.03200
C 	C 	0.97116 0.08959 0.69101 -0.02200
C 	C 	0.99382 0.06329 0.70270 -0.00900
H 	H 	0.72130 0.18147 0.63661 0.01400
H 	H 	0.77936 0.14097 0.65979 0.04600
H 	H 	0.91286 0.27688 0.62209 0.05000
H 	H 	0.85488 0.31705 0.59855 0.04300
H 	H 	0.90572 0.15429 0.61434 0.04100
H 	H 	0.95790 0.10353 0.63542 0.04400
H 	H 	0.92159 0.14657 0.71896 0.04400
H 	H 	0.86987 0.19777 0.69797 0.03700
C 	C 	0.48160 0.22748 0.61137 -0.08100
C 	C 	0.46596 0.26343 0.62909 0.01100
C 	C 	0.41715 0.23995 0.64214 -0.06400
C 	C 	0.38351 0.18041 0.63749 0.02800
C 	C 	0.39916 0.14454 0.61982 -0.06500
C 	C 	0.44781 0.16789 0.60679 0.01300
C 	C 	0.33194 0.15536 0.65121 -0.00200
C 	C 	0.32876 0.15143 0.68084 -0.03300
C 	C 	0.28021 0.12328 0.69368 -0.04700
C 	C 	0.23453 0.09885 0.67701 0.02500
C 	C 	0.23748 0.10374 0.64746 -0.04600
C 	C 	0.28599 0.13196 0.63459 -0.03100
C 	C 	0.18484 0.06766 0.69029 -0.02100
C 	C 	0.14415 0.04181 0.70226 -0.00600
H 	H 	0.49160 0.30939 0.63285 0.03100
H 	H 	0.40543 0.26805 0.65574 0.04800
H 	H 	0.37360 0.09851 0.61617 0.05000
H 	H 	0.45891 0.13980 0.59285 0.03800
H 	H 	0.36392 0.16912 0.69387 0.03600
H 	H 	0.27820 0.11987 0.71655 0.04400
H 	H 	0.20234 0.08522 0.63445 0.04600
H 	H 	0.28795 0.13497 0.61172 0.04300
C 	C 	0.97648 0.88067 0.70044 0.01700
C 	C 	0.93107 0.88193 0.68802 -0.04300
C 	C 	0.89628 0.83241 0.67315 -0.03600
C 	C 	0.90683 0.78142 0.67052 0.00400
C 	C 	0.95264 0.78053 0.68266 -0.03500
C 	C 	0.98735 0.83002 0.69754 -0.04500
C 	C 	0.87069 0.72951 0.65447 0.01200
C 	C 	0.84686 0.67474 0.66785 -0.04400
C 	C 	0.81715 0.62411 0.65197 -0.02800
C 	C 	0.81091 0.62803 0.62268 -0.00800
C 	C 	0.83276 0.68311 0.60951 -0.02800
C 	C 	0.86259 0.73373 0.62534 -0.04300
C 	C 	0.78705 0.57507 0.60574 0.05100
C 	C 	0.76869 0.53119 0.59108 -0.10400
H 	H 	0.92242 0.92093 0.69024 0.04400
H 	H 	0.86106 0.83352 0.66380 0.04000
H 	H 	0.96137 0.74157 0.68047 0.04100
H 	H 	0.02244 0.82885 0.70704 0.04600
H 	H 	0.85242 0.67120 0.69040 0.04200
H 	H 	0.80021 0.58165 0.66230 0.03900
H 	H 	0.82798 0.68643 0.58686 0.04400
H 	H 	0.88069 0.77586 0.61485 0.04400
C 	C 	0.94449 0.53565 0.94651 -0.04000
C 	C 	0.96549 0.52563 0.97222 0.01700
C 	C 	0.93356 0.48279 0.99087 -0.05800
C 	C 	0.88137 0.44839 0.98362 0.02500
C 	C 	0.86078 0.45730 0.95749 -0.08500
C 	C 	0.89241 0.50134 0.93924 0.01200
C 	C 	0.02164 0.55705 0.97898 0.02500
C 	C 	0.03935 0.61209 0.99297 -0.05900
C 	C 	0.09151 0.63984 0.00199 0.02700
C 	C 	0.12608 0.61153 0.99753 -0.07900
C 	C 	0.10914 0.55858 0.98166 0.01400
C 	C 	0.05715 0.53123 0.97240 -0.04200
C 	C 	0.10943 0.69759 0.01547 0.07200
C 	C 	0.04022 0.47608 0.95661 0.09100
C 	C 	0.97638 0.58055 0.92732 0.08400
C 	C 	0.84992 0.40262 0.00256 0.07100
N 	N 	0.12380 0.74382 0.02629 -0.11200
N 	N 	0.02660 0.43191 0.94395 -0.11600
N 	N 	0.82474 0.36596 0.01774 -0.11300
N 	N 	0.00192 0.61653 0.91195 -0.11600
H 	H 	0.87651 0.50843 0.91921 0.04200
H 	H 	0.94979 0.47530 0.01072 0.05200
H 	H 	0.01233 0.63288 0.99716 0.05400
H 	H 	0.13584 0.53727 0.97767 0.03500
C 	C 	0.51596 0.10927 0.98906 -0.04000
C 	C 	0.50151 0.05350 0.97558 0.02300
C 	C 	0.51781 0.05009 0.94791 -0.05900
C 	C 	0.54824 0.10156 0.93350 0.02900
C 	C 	0.56361 0.15754 0.94713 -0.08100
C 	C 	0.54708 0.16088 0.97484 0.01400
C 	C 	0.46990 0.99812 0.99043 0.02100
C 	C 	0.41627 0.96952 0.98426 -0.06000
C 	C 	0.38612 0.91577 0.99715 0.02500
C 	C 	0.40972 0.89054 0.01671 -0.08300
C 	C 	0.46351 0.91902 0.02265 0.01100
C 	C 	0.49364 0.97237 0.00956 -0.04200
C 	C 	0.33149 0.88597 0.98951 0.07100
C 	C 	0.54894 0.00048 0.01589 0.09100
C 	C 	0.49879 0.11390 0.01739 0.09000
C 	C 	0.56173 0.09658 0.90440 0.06300
N 	N 	0.28773 0.86207 0.98338 -0.11100
N 	N 	0.59324 0.02304 0.02096 -0.11600
N 	N 	0.57249 0.09249 0.88109 -0.13800
N 	N 	0.48503 0.11755 0.04010 -0.11800
H 	H 	0.55826 0.20368 0.98529 0.03900
H 	H 	0.50644 0.00721 0.93750 0.05400
H 	H 	0.39814 0.98887 0.96922 0.05400
H 	H 	0.48176 0.90008 0.03784 0.04900
C 	C 	0.55911 0.52413 0.99203 -0.04100
C 	C 	0.50881 0.51426 0.98150 0.02100
C 	C 	0.48873 0.47750 0.95767 -0.06000
C 	C 	0.51816 0.45019 0.94436 0.02800
C 	C 	0.56814 0.45905 0.95526 -0.08300
C 	C 	0.58845 0.49650 0.97889 0.00900
C 	C 	0.47725 0.54333 0.99492 0.02100
C 	C 	0.47828 0.59639 0.98384 -0.06000
C 	C 	0.44794 0.62409 0.99579 0.02300
C 	C 	0.41654 0.59882 0.01942 -0.08600
C 	C 	0.41547 0.54559 0.03045 0.00900
C 	C 	0.44555 0.51773 0.01832 -0.04200
C 	C 	0.44779 0.67717 0.98303 0.06700
C 	C 	0.44368 0.46286 0.02996 0.08900
C 	C 	0.58081 0.56246 0.01633 0.08700
C 	C 	0.49760 0.41504 0.91897 0.07500
N 	N 	0.44767 0.71969 0.97281 -0.11100
N 	N 	0.44222 0.41891 0.03928 -0.11600
N 	N 	0.48107 0.38692 0.89863 -0.10600
N 	N 	0.59815 0.59316 0.03581 -0.11700
H 	H 	0.62690 0.50362 0.98723 0.01800
H 	H 	0.45029 0.47054 0.94937 0.05200
H 	H 	0.50239 0.61582 0.96570 0.05300
H 	H 	0.39136 0.52600 0.04856 0.04000
C 	C 	0.78458 0.25568 0.84530 -0.08300
C 	C 	0.76454 0.20508 0.82772 0.01300
C 	C 	0.79802 0.18138 0.81609 -0.06600
C 	C 	0.85186 0.20807 0.82187 0.02800
C 	C 	0.87231 0.26035 0.83823 -0.06400
C 	C 	0.83883 0.28415 0.84987 0.01600
C 	C 	0.88640 0.17975 0.81188 -0.00300
C 	C 	0.87996 0.12371 0.82183 -0.03200
C 	C 	0.91041 0.09511 0.81103 -0.04700
C 	C 	0.94760 0.12242 0.79032 0.02400
C 	C 	0.95518 0.17914 0.78099 -0.04800
C 	C 	0.92465 0.20773 0.79172 -0.03300
C 	C 	0.97423 0.09013 0.77663 -0.02200
C 	C 	0.99568 0.06343 0.76411 -0.00900
H 	H 	0.72286 0.18321 0.82370 0.01800
H 	H 	0.78200 0.14156 0.80307 0.04600
H 	H 	0.91391 0.28155 0.84260 0.05100
H 	H 	0.85489 0.32326 0.86336 0.04400
H 	H 	0.85083 0.10199 0.83759 0.04100
H 	H 	0.90429 0.05125 0.81831 0.04400
H 	H 	0.98375 0.20044 0.76490 0.04300
H 	H 	0.92997 0.25101 0.78395 0.03900
C 	C 	0.14570 0.04085 0.76384 0.01800
C 	C 	0.15792 0.09794 0.77486 -0.04200
C 	C 	0.20696 0.12973 0.78717 -0.03600
C 	C 	0.24395 0.10444 0.78868 0.00400
C 	C 	0.23112 0.04666 0.77838 -0.03700
C 	C 	0.18212 0.01496 0.76603 -0.04100
C 	C 	0.29578 0.13807 0.80136 0.01100
C 	C 	0.30046 0.15507 0.83002 -0.04200
C 	C 	0.34980 0.18335 0.84260 -0.02800
C 	C 	0.39469 0.19465 0.82663 -0.00600
C 	C 	0.39017 0.17930 0.79780 -0.03100
C 	C 	0.34082 0.15119 0.78515 -0.04300
C 	C 	0.44499 0.21769 0.84038 0.04700
C 	C 	0.48636 0.23589 0.85273 -0.10000
H 	H 	0.13001 0.11830 0.77309 0.04500
H 	H 	0.21651 0.17426 0.79518 0.04100
H 	H 	0.25927 0.02656 0.77977 0.04100
H 	H 	0.17290 0.97088 0.75749 0.04300
H 	H 	0.26589 0.14521 0.84267 0.04400
H 	H 	0.35312 0.19525 0.86491 0.04600
H 	H 	0.42480 0.18809 0.78534 0.03500
H 	H 	0.33752 0.13874 0.76292 0.03900
C 	C 	0.78523 0.53497 0.87598 -0.08800
C 	C 	0.77210 0.53392 0.84709 0.01800
C 	C 	0.79943 0.58244 0.83004 -0.06700
C 	C 	0.84016 0.63242 0.84168 0.03000
C 	C 	0.85304 0.63371 0.87055 -0.06600
C 	C 	0.82576 0.58535 0.88761 0.01900
C 	C 	0.86971 0.68329 0.82363 -0.00300
C 	C 	0.92364 0.70032 0.82008 -0.03200
C 	C 	0.95216 0.75028 0.80422 -0.04600
C 	C 	0.92702 0.78356 0.79176 0.02400
C 	C 	0.87305 0.76618 0.79492 -0.04600
C 	C 	0.84447 0.71622 0.81082 -0.03200
C 	C 	0.95673 0.83581 0.77594 -0.02000
C 	C 	0.98183 0.87939 0.76267 -0.01000
H 	H 	0.74070 0.49568 0.83785 0.03100
H 	H 	0.78920 0.58102 0.80776 0.04700
H 	H 	0.88427 0.67216 0.87976 0.05100
H 	H 	0.83658 0.58685 0.90980 0.03600
H 	H 	0.94346 0.67507 0.82976 0.04300
H 	H 	0.99381 0.76327 0.80175 0.04400
H 	H 	0.85331 0.79154 0.78526 0.04400
H 	H 	0.80291 0.70358 0.81348 0.03900
