data_crystal

_cell_length_a 27.86832
_cell_length_b 28.95429
_cell_length_c 40.45565
_cell_angle_alpha 60.85455
_cell_angle_beta  118.85369
_cell_angle_gamma 133.27842

_symmetry_space_group_name_	'P 1'
_symmetry_space_group_name_H-M	'P 1'

loop_
_symmetry_equiv_pos_as_xyz
  x,y,z

loop_
_atom_site_label
_atom_site_type_symbol
_atom_site_fract_x
_atom_site_fract_y
_atom_site_fract_z
_atom_site_charge
N 	N 	0.63660 0.26911 0.00793 -0.10700
C 	C 	0.61216 0.29603 0.00877 0.29600
N 	N 	0.65434 0.35951 0.00986 -0.12300
N 	N 	0.68588 0.35743 0.54379 -0.11500
C 	C 	0.64050 0.29172 0.54886 0.28800
N 	N 	0.65536 0.25747 0.54666 -0.10700
C 	C 	0.26817 0.64129 0.19905 0.28600
N 	N 	0.33669 0.67644 0.20619 -0.10000
C 	C 	0.36381 0.65671 0.20040 0.29000
N 	N 	0.32255 0.60215 0.18735 -0.11200
C 	C 	0.25433 0.56716 0.17975 0.28800
N 	N 	0.22684 0.58652 0.18569 -0.09700
C 	C 	0.27502 0.65774 0.67408 0.29000
N 	N 	0.33505 0.69669 0.66406 -0.10100
C 	C 	0.35602 0.66967 0.65964 0.28800
N 	N 	0.31697 0.60406 0.66510 -0.11200
C 	C 	0.25699 0.56495 0.67470 0.29000
N 	N 	0.23576 0.59163 0.67933 -0.10000
Co	Co	0.04076 0.00543 0.06711 1.18200
Co	Co	0.99614 0.05571 0.09776 1.18100
C 	C 	0.17280 0.05252 0.06461 0.40900
Co	Co	0.07080 0.90945 0.07615 1.20300
O 	O 	0.03621 0.07842 0.05681 -0.38500
C 	C 	0.07164 0.15395 0.14474 0.40600
C 	C 	0.12441 0.89008 0.16131 0.39400
O 	O 	0.03671 0.11172 0.17179 -0.35500
O 	O 	0.07733 0.13415 0.12407 -0.33100
O 	O 	0.14242 0.92545 0.12798 -0.30700
O 	O 	0.08618 0.89196 0.17059 -0.31800
O 	O 	0.02983 0.93366 0.09159 -0.71700
O 	O 	0.13472 0.00493 0.04766 -0.39700
O 	O 	0.14539 0.05810 0.08018 -0.36400
Co	Co	0.05794 0.01831 0.57098 1.18800
Co	Co	0.98759 0.03947 0.60308 1.17300
C 	C 	0.20059 0.09366 0.57141 0.42400
Co	Co	0.12156 0.95241 0.57855 1.19700
O 	O 	0.03351 0.07623 0.56117 -0.38200
C 	C 	0.03844 0.13587 0.64147 0.46100
C 	C 	0.16758 0.92503 0.66358 0.40500
O 	O 	0.97416 0.10273 0.63972 -0.39800
O 	O 	0.05808 0.11505 0.63123 -0.35100
O 	O 	0.18843 0.96849 0.63172 -0.30900
O 	O 	0.12160 0.91548 0.67322 -0.31500
O 	O 	0.06149 0.95417 0.59447 -0.72300
C 	C 	0.99991 0.96717 0.73587 0.32300
O 	O 	0.17602 0.05202 0.55313 -0.40100
O 	O 	0.16164 0.08395 0.58700 -0.36900
C 	C 	0.01046 0.96815 0.83385 0.12600
C 	C 	0.04858 0.01905 0.85182 -0.07200
C 	C 	0.04182 0.00584 0.88823 -0.00800
C 	C 	0.00596 0.98485 0.79177 0.05500
H 	H 	0.08235 0.06921 0.83710 0.11500
H 	H 	0.07250 0.04563 0.90182 0.08800
H 	H 	0.00191 0.02496 0.77259 0.07800
C 	C 	0.03440 0.97754 0.40648 0.08400
C 	C 	0.05616 0.03906 0.38003 -0.04300
C 	C 	0.05240 0.04796 0.34170 -0.06900
C 	C 	0.04499 0.96899 0.44842 0.01100
H 	H 	0.07659 0.08017 0.38916 0.09400
H 	H 	0.06726 0.09512 0.32131 0.11100
H 	H 	0.05469 0.96422 0.28804 0.11100
H 	H 	0.06446 0.94078 0.47011 0.08800
C 	C 	0.12982 0.40311 0.64906 0.25900
C 	C 	0.16481 0.37460 0.67242 0.00000
C 	C 	0.22233 0.40316 0.70188 0.25600
C 	C 	0.24676 0.46150 0.70647 0.30700
C 	C 	0.21613 0.49376 0.68042 -0.13300
C 	C 	0.15562 0.46269 0.65291 0.31300
C 	C 	0.14103 0.31458 0.66625 0.01500
F 	F 	0.25610 0.37573 0.72509 -0.31000
F 	F 	0.12438 0.49233 0.62817 -0.31500
C 	C 	0.14145 0.31573 0.63121 0.24300
C 	C 	0.11424 0.25775 0.62442 0.34300
C 	C 	0.08735 0.19846 0.65283 -0.21100
C 	C 	0.09275 0.19881 0.68913 0.32900
C 	C 	0.11798 0.25611 0.69549 0.23700
F 	F 	0.16666 0.37261 0.60340 -0.29700
F 	F 	0.06954 0.14251 0.71746 -0.38400
F 	F 	0.11029 0.25851 0.58939 -0.32600
F 	F 	0.11779 0.25429 0.72961 -0.31900
F 	F 	0.07190 0.37403 0.62197 -0.29200
F 	F 	0.30362 0.48957 0.73432 -0.32500
C 	C 	0.49094 0.71636 0.62586 0.25800
C 	C 	0.54972 0.75733 0.65009 0.00100
C 	C 	0.54491 0.77977 0.67161 0.25800
C 	C 	0.48124 0.75578 0.67213 0.31100
C 	C 	0.42202 0.71063 0.65022 -0.13300
C 	C 	0.42768 0.69482 0.62503 0.30900
F 	F 	0.37122 0.65521 0.60143 -0.32100
F 	F 	0.61901 0.71485 0.72202 -0.31100
F 	F 	0.49477 0.69496 0.60449 -0.29900
F 	F 	0.47702 0.77334 0.69569 -0.32300
C 	C 	0.23410 0.71035 0.72049 0.26200
C 	C 	0.22450 0.75625 0.68883 0.00800
C 	C 	0.22668 0.76601 0.65182 0.26300
C 	C 	0.24070 0.73199 0.64677 0.31400
C 	C 	0.25226 0.68750 0.67860 -0.13000
C 	C 	0.24773 0.67595 0.71537 0.31300
C 	C 	0.21558 0.79672 0.69460 0.01600
F 	F 	0.21652 0.80948 0.62087 -0.30800
F 	F 	0.25879 0.63310 0.74638 -0.31900
C 	C 	0.26786 0.86367 0.69233 0.24600
C 	C 	0.25455 0.90532 0.68796 0.32700
C 	C 	0.18849 0.88055 0.68511 -0.18700
C 	C 	0.13900 0.81226 0.69319 0.32300
C 	C 	0.15232 0.77052 0.69750 0.25700
F 	F 	0.33058 0.88898 0.69215 -0.30200
F 	F 	0.07643 0.78671 0.69375 -0.36000
F 	F 	0.30461 0.97053 0.68357 -0.30400
F 	F 	0.10236 0.70531 0.70185 -0.29600
F 	F 	0.23189 0.70024 0.75636 -0.29700
F 	F 	0.24383 0.74284 0.61098 -0.32000
C 	C 	0.20238 0.46025 0.12512 0.25800
C 	C 	0.16489 0.39799 0.14902 0.00100
C 	C 	0.14528 0.39126 0.17819 0.25800
C 	C 	0.16864 0.44692 0.18582 0.31000
C 	C 	0.21093 0.50959 0.16396 -0.13100
C 	C 	0.22403 0.51558 0.13205 0.30900
C 	C 	0.14985 0.34052 0.14516 0.00900
F 	F 	0.10584 0.33099 0.20012 -0.31900
F 	F 	0.26189 0.57569 0.10939 -0.32100
C 	C 	0.17822 0.30811 0.17569 0.23700
C 	C 	0.15855 0.24996 0.17375 0.32500
C 	C 	0.11120 0.22427 0.14102 -0.19900
C 	C 	0.08894 0.26067 0.10878 0.32200
C 	C 	0.10669 0.31762 0.11117 0.24600
F 	F 	0.22332 0.33195 0.20770 -0.31600
F 	F 	0.04625 0.23837 0.07611 -0.33400
F 	F 	0.18265 0.21665 0.20455 -0.35600
F 	F 	0.07990 0.34907 0.08109 -0.29000
F 	F 	0.22064 0.46747 0.09637 -0.29900
F 	F 	0.15390 0.44013 0.21605 -0.32400
C 	C 	0.62925 0.80191 0.15040 0.24400
C 	C 	0.56681 0.76061 0.19766 0.00100
F 	F 	0.57061 0.78248 0.12240 -0.29900
C 	C 	0.53772 0.79422 0.18113 0.25700
C 	C 	0.47318 0.76204 0.18503 0.31300
C 	C 	0.43761 0.69622 0.20583 -0.13500
C 	C 	0.46974 0.66492 0.22553 0.30800
C 	C 	0.53360 0.69663 0.22100 0.25500
F 	F 	0.57089 0.85722 0.16002 -0.29900
F 	F 	0.43735 0.60242 0.24740 -0.32700
F 	F 	0.44350 0.79347 0.16654 -0.31900
F 	F 	0.56195 0.66419 0.23790 -0.30900
C 	C 	0.24468 0.71466 0.24114 0.26200
C 	C 	0.19918 0.72696 0.20973 0.00500
C 	C 	0.17081 0.70462 0.17643 0.25700
C 	C 	0.19065 0.67351 0.17369 0.31200
C 	C 	0.23897 0.66431 0.20429 -0.12900
C 	C 	0.26441 0.68339 0.23848 0.31100
C 	C 	0.18733 0.76975 0.20970 0.01000
F 	F 	0.12620 0.71558 0.14604 -0.31300
F 	F 	0.30913 0.67260 0.26889 -0.32100
C 	C 	0.23598 0.83793 0.20142 0.24500
C 	C 	0.21893 0.87916 0.19219 0.33100
C 	C 	0.15233 0.85253 0.18963 -0.18500
C 	C 	0.10776 0.78488 0.20429 0.32800
C 	C 	0.12460 0.74333 0.21353 0.25600
F 	F 	0.29832 0.86423 0.19995 -0.29700
F 	F 	0.04643 0.75904 0.20702 -0.33000
F 	F 	0.26543 0.94503 0.18258 -0.30900
F 	F 	0.07901 0.67753 0.22450 -0.28400
F 	F 	0.27124 0.73464 0.27381 -0.29900
F 	F 	0.16540 0.65527 0.14053 -0.32200
C 	C 	0.45758 0.19359 0.54826 0.25100
C 	C 	0.46430 0.21704 0.57471 -0.00500
C 	C 	0.52871 0.25688 0.59673 0.25700
C 	C 	0.58617 0.27582 0.59099 0.30500
C 	C 	0.57999 0.25749 0.56192 -0.14100
C 	C 	0.51530 0.21434 0.54158 0.30600
C 	C 	0.40409 0.20170 0.57820 0.00800
F 	F 	0.53577 0.27897 0.62279 -0.30300
F 	F 	0.50849 0.19508 0.51405 -0.33000
C 	C 	0.38064 0.16076 0.61255 0.23700
C 	C 	0.31621 0.13500 0.61282 0.32300
C 	C 	0.27333 0.14609 0.57811 -0.21200
C 	C 	0.30076 0.19492 0.54586 0.33000
C 	C 	0.36617 0.22281 0.54591 0.23700
F 	F 	0.41829 0.14260 0.64473 -0.30300
F 	F 	0.26145 0.21006 0.51304 -0.35000
F 	F 	0.29298 0.09415 0.64576 -0.35800
F 	F 	0.39089 0.26689 0.51369 -0.31300
F 	F 	0.39516 0.15221 0.52827 -0.33300
F 	F 	0.64829 0.31412 0.61265 -0.32600
C 	C 	0.43288 0.21920 0.00270 0.23300
C 	C 	0.43534 0.20256 0.04218 0.00600
C 	C 	0.49409 0.21083 0.07050 0.25200
C 	C 	0.54933 0.23450 0.05959 0.31200
C 	C 	0.54802 0.25361 0.02009 -0.15600
C 	C 	0.48933 0.24529 0.99169 0.32500
C 	C 	0.37334 0.16725 0.05433 -0.00200
F 	F 	0.49722 0.19512 0.10872 -0.30400
F 	F 	0.48763 0.26401 0.95339 -0.33000
C 	C 	0.34138 0.10106 0.07406 0.24800
C 	C 	0.27892 0.06512 0.08184 0.28600
C 	C 	0.24672 0.09461 0.06940 -0.19600
C 	C 	0.28122 0.16223 0.05243 0.32000
C 	C 	0.34445 0.19853 0.04487 0.24500
F 	F 	0.36908 0.07047 0.08364 -0.32200
F 	F 	0.25148 0.19177 0.04080 -0.34800
F 	F 	0.24652 0.99996 0.09801 -0.32100
F 	F 	0.37643 0.26336 0.02720 -0.31000
F 	F 	0.37559 0.20945 0.97511 -0.31700
F 	F 	0.60564 0.24177 0.08734 -0.31600
C 	C 	0.61554 0.77332 0.65489 0.01000
F 	F 	0.60180 0.82276 0.69321 -0.31300
C 	C 	0.64928 0.75365 0.69160 0.23700
F 	F 	0.61278 0.82734 0.58719 -0.28300
C 	C 	0.62964 0.79079 0.18841 0.01100
F 	F 	0.73220 0.37317 0.09397 -0.31400
O 	O 	0.01044 0.96490 0.21330 -0.29900
Co	Co	0.03005 0.89959 0.63468 1.21600
C 	C 	0.03818 0.98095 0.50235 0.35800
O 	O 	0.03092 0.01216 0.51353 -0.35900
O 	O 	0.99429 0.01533 0.71315 -0.38900
O 	O 	0.00711 0.93943 0.72180 -0.30600
C 	C 	0.00948 0.95267 0.77641 -0.08600
H 	H 	0.01750 0.91513 0.79580 0.12700
C 	C 	0.02744 0.99574 0.32928 0.14000
C 	C 	0.02050 0.97841 0.27047 -0.00800
C 	C 	0.02797 0.99196 0.46007 -0.04800
C 	C 	0.64538 0.80930 0.62305 0.24700
O 	O 	0.07366 0.85304 0.60399 -0.36200
F 	F 	0.83546 0.40915 0.61365 -0.31700
F 	F 	0.81438 0.27140 0.60100 -0.32600
F 	F 	0.68932 0.84762 0.10380 -0.32200
C 	C 	0.70363 0.30534 0.00961 0.28500
C 	C 	0.72205 0.39342 0.01604 0.28800
C 	C 	0.71644 0.28919 0.54039 0.29000
C 	C 	0.74809 0.38860 0.53983 0.29300
C 	C 	0.71518 0.77581 0.69728 0.33000
C 	C 	0.69005 0.80877 0.21747 0.24100
C 	C 	0.68958 0.83418 0.14104 0.33900
F 	F 	0.69093 0.79773 0.25439 -0.31600
F 	F 	0.67842 0.04599 0.54770 -0.32500
C 	C 	0.83762 0.46080 0.58485 0.31000
C 	C 	0.73035 0.27564 0.00928 -0.14300
F 	F 	0.64457 0.23959 0.95211 -0.32800
F 	F 	0.70283 0.07459 0.04348 -0.31900
O 	O 	0.04743 0.93558 0.52752 -0.35300
H 	H 	0.00763 0.01947 0.43862 0.08400
C 	C 	0.71011 0.82887 0.62849 0.32900
F 	F 	0.90147 0.52282 0.63174 -0.30800
C 	C 	0.69789 0.24166 0.98090 0.31100
F 	F 	0.68813 0.17640 0.95495 -0.30900
C 	C 	0.73407 0.25198 0.53985 -0.14300
C 	C 	0.78384 0.24525 0.57038 0.30700
C 	C 	0.76284 0.43535 0.07152 0.30400
F 	F 	0.77564 0.47166 0.11871 -0.30400
N 	N 	0.74679 0.36686 0.01507 -0.10500
N 	N 	0.76351 0.35447 0.53812 -0.11000
C 	C 	0.74715 0.81633 0.66610 -0.20700
F 	F 	0.74942 0.76093 0.73351 -0.35300
F 	F 	0.73854 0.86359 0.59758 -0.34300
C 	C 	0.75047 0.85452 0.16975 -0.19600
C 	C 	0.75007 0.83986 0.20825 0.31900
C 	C 	0.70244 0.22438 0.50844 0.30800
F 	F 	0.65455 0.23100 0.47865 -0.32600
C 	C 	0.87090 0.51860 0.59412 0.26000
C 	C 	0.80194 0.45426 0.54651 -0.14000
C 	C 	0.72046 0.20983 0.98214 0.26400
C 	C 	0.76707 0.44800 0.03444 -0.13800
C 	C 	0.78570 0.48572 0.08436 0.25600
C 	C 	0.00725 0.00132 0.28677 -0.04800
F 	F 	0.72061 0.97331 0.56439 -0.28300
C 	C 	0.80162 0.21086 0.56967 0.24900
F 	F 	0.84864 0.20330 0.59984 -0.33000
C 	C 	0.78661 0.27871 0.03832 0.30600
C 	C 	0.74236 0.07672 0.54632 0.25100
C 	C 	0.77036 0.18355 0.53816 -0.00000
C 	C 	0.72081 0.19060 0.50747 0.25500
C 	C 	0.80529 0.50822 0.51687 0.30400
C 	C 	0.76189 0.10688 0.03465 0.23500
C 	C 	0.77578 0.21188 0.01163 -0.00900
F 	F 	0.76063 0.01194 0.06909 -0.36100
F 	F 	0.76704 0.62689 0.02236 -0.31700
C 	C 	0.87087 0.57129 0.56484 -0.01600
O 	O 	0.00208 0.99083 0.01048 -0.26800
F 	F 	0.81786 0.31034 0.06631 -0.33100
H 	H 	0.98827 0.00146 0.93702 0.05800
O 	O 	0.99537 0.89846 0.02572 -0.34800
Co	Co	0.94931 0.93513 0.16101 1.20400
Co	Co	0.99958 0.88781 0.13246 1.18700
Co	Co	0.93439 0.03922 0.15735 1.16300
C 	C 	0.94873 0.77943 0.10391 0.38200
O 	O 	0.92881 0.10449 0.10476 -0.37500
O 	O 	0.95848 0.00602 0.13586 -0.78900
C 	C 	0.90036 0.09005 0.07112 0.42500
O 	O 	0.95699 0.86372 0.17248 -0.40300
C 	C 	0.81532 0.90111 0.15841 0.40800
O 	O 	0.97400 0.95989 0.10622 -0.54100
C 	C 	0.99711 0.94996 0.00008 0.26800
O 	O 	0.92038 0.06916 0.06129 -0.34600
O 	O 	0.83614 0.96229 0.14087 -0.30600
O 	O 	0.84822 0.87940 0.16295 -0.32600
C 	C 	0.99040 0.97531 0.23115 0.26600
O 	O 	0.93914 0.97906 0.21276 -0.32700
O 	O 	0.01225 0.81172 0.10456 -0.32900
O 	O 	0.93071 0.80188 0.11406 -0.32900
Co	Co	0.95641 0.91881 0.66613 1.19400
Co	Co	0.91580 0.00275 0.66456 1.16100
C 	C 	0.00837 0.81060 0.60248 0.48400
O 	O 	0.84370 0.99080 0.61288 -0.28000
O 	O 	0.95376 0.98401 0.64228 -0.72200
C 	C 	0.86130 0.03375 0.58008 0.34900
O 	O 	0.97855 0.85948 0.67459 -0.39900
C 	C 	0.82146 0.85873 0.67424 0.41700
O 	O 	0.98578 0.95573 0.61027 -0.54600
O 	O 	0.90572 0.04507 0.56773 -0.32000
O 	O 	0.85576 0.90476 0.69183 -0.36800
O 	O 	0.85301 0.85241 0.66251 -0.33500
O 	O 	0.97863 0.81950 0.61405 -0.35500
C 	C 	0.99632 0.94144 0.90715 0.05400
C 	C 	0.95972 0.89022 0.88978 0.00300
C 	C 	0.96635 0.90351 0.85324 -0.06300
C 	C 	0.99388 0.92586 0.94764 -0.00600
C 	C 	0.99115 0.96149 0.95847 -0.02200
H 	H 	0.92572 0.84012 0.90443 0.09800
H 	H 	0.93556 0.86380 0.83956 0.10100
H 	H 	0.99351 0.88400 0.96871 0.08700
C 	C 	0.00774 0.93480 0.35609 -0.00700
C 	C 	0.01149 0.92587 0.39445 0.02000
H 	H 	0.98721 0.89368 0.34693 0.07800
H 	H 	0.99620 0.87859 0.41478 0.06900
H 	H 	0.98221 0.02517 0.26759 0.06000
F 	F 	0.80856 0.85857 0.23635 -0.37300
C 	C 	0.85280 0.17647 0.53548 0.24700
C 	C 	0.78766 0.14527 0.53827 -0.00200
C 	C 	0.76419 0.03962 0.55532 0.27000
C 	C 	0.83199 0.07075 0.55727 -0.17100
C 	C 	0.87499 0.13938 0.54502 0.30500
F 	F 	0.93998 0.17030 0.54544 -0.35300
F 	F 	0.69057 0.16477 0.47676 -0.30900
F 	F 	0.89594 0.24280 0.52582 -0.31200
C 	C 	0.97594 0.67045 0.58848 0.15700
C 	C 	0.90542 0.63200 0.57480 0.04100
C 	C 	0.86785 0.65045 0.57178 0.21500
C 	C 	0.90095 0.70789 0.58165 0.35700
C 	C 	0.97191 0.74662 0.59543 -0.28500
C 	C 	0.00895 0.72665 0.59933 0.42400
F 	F 	0.79931 0.61282 0.55915 -0.30600
F 	F 	0.07721 0.76219 0.61321 -0.35900
C 	C 	0.83998 0.56671 0.52597 0.25700
F 	F 	0.77190 0.50276 0.47957 -0.33200
F 	F 	0.84242 0.61847 0.49718 -0.32600
F 	F 	0.01268 0.65327 0.59118 -0.27600
F 	F 	0.86429 0.72665 0.57684 -0.35600
C 	C 	0.79595 0.17347 0.01521 0.01300
C 	C 	0.85503 0.20521 0.00443 0.23500
C 	C 	0.88413 0.17285 0.01721 0.33500
C 	C 	0.85558 0.10953 0.04191 -0.20200
C 	C 	0.79131 0.07483 0.04760 0.31800
F 	F 	0.88641 0.26853 0.98364 -0.30100
C 	C 	0.80925 0.24712 0.03941 0.25100
F 	F 	0.86265 0.24923 0.06812 -0.32800
F 	F 	0.94306 0.20495 0.00833 -0.33200
C 	C 	0.81827 0.64156 0.05479 0.24000
C 	C 	0.84336 0.60375 0.07573 0.00400
C 	C 	0.89341 0.61701 0.11048 0.24200
C 	C 	0.92032 0.66930 0.12316 0.32200
C 	C 	0.90112 0.71181 0.09993 -0.19000
C 	C 	0.84754 0.69584 0.06669 0.31500
C 	C 	0.81737 0.55022 0.06143 -0.00300
F 	F 	0.91804 0.58086 0.13112 -0.30400
F 	F 	0.82708 0.73541 0.04448 -0.35700
C 	C 	0.82703 0.56388 0.02578 0.25300
C 	C 	0.80108 0.51274 0.01210 0.30000
F 	F 	0.86067 0.62647 0.00424 -0.33200
F 	F 	0.80645 0.52576 0.97648 -0.32900
F 	F 	0.96940 0.68205 0.15646 -0.33000
