data_crystal

_cell_length_a 26.16230
_cell_length_b 26.48004
_cell_length_c 33.52080
_cell_angle_alpha 95.49205
_cell_angle_beta  95.48898
_cell_angle_gamma 125.82814

_symmetry_space_group_name_	'P 1'
_symmetry_space_group_name_H-M	'P 1'

loop_
_symmetry_equiv_pos_as_xyz
  x,y,z

loop_
_atom_site_label
_atom_site_type_symbol
_atom_site_fract_x
_atom_site_fract_y
_atom_site_fract_z
_atom_site_charge
C 	C 	0.97707 0.04914 0.99743 0.03500
C 	C 	0.04134 0.08147 0.99279 -0.08200
C 	C 	0.06656 0.04779 0.98528 0.03400
C 	C 	0.02754 0.98186 0.98264 -0.08200
C 	C 	0.96342 0.94940 0.98724 0.03600
C 	C 	0.93822 0.98306 0.99462 -0.08000
H 	H 	0.07151 0.13251 0.99497 0.05000
H 	H 	0.04725 0.95592 0.97743 0.05100
H 	H 	0.88843 0.95790 0.99780 0.05000
C 	C 	0.92583 0.98530 0.45657 0.02300
C 	C 	0.99223 0.02165 0.45764 -0.06400
C 	C 	0.02438 0.99435 0.46249 0.01900
C 	C 	0.99001 0.93044 0.46591 -0.06600
C 	C 	0.92365 0.89373 0.46471 0.02600
C 	C 	0.89142 0.92108 0.45984 -0.07100
H 	H 	0.01883 0.07111 0.45489 0.04600
H 	H 	0.01493 0.90936 0.46974 0.04600
H 	H 	0.84016 0.89291 0.45923 0.04800
Cu	Cu	0.65243 0.26553 0.01095 0.92700
Cu	Cu	0.71325 0.26286 0.92981 0.87100
Cu	Cu	0.69096 0.35937 0.95260 0.89700
Cu	Cu	0.63892 0.37581 0.02470 0.89400
C 	C 	0.65380 0.31554 0.09157 0.25300
O 	O 	0.55624 0.22092 0.00358 -0.36100
C 	C 	0.68072 0.30932 0.86693 0.25500
O 	O 	0.69822 0.36223 0.01027 -0.64000
O 	O 	0.65022 0.26728 0.95181 -0.64000
O 	O 	0.69818 0.22636 0.01788 -0.37100
O 	O 	0.77027 0.28838 0.97946 -0.44100
O 	O 	0.62309 0.33582 0.07419 -0.36400
O 	O 	0.73392 0.44973 0.95806 -0.37900
C 	C 	0.72083 0.48244 0.98144 0.28800
C 	C 	0.52891 0.24238 0.98375 0.28200
O 	O 	0.56480 0.29990 0.97589 -0.39200
O 	O 	0.67269 0.45428 0.00149 -0.39500
O 	O 	0.66677 0.28146 0.06956 -0.35200
C 	C 	0.75314 0.25013 0.00575 0.28800
O 	O 	0.70086 0.35923 0.89478 -0.36900
O 	O 	0.67573 0.26003 0.87722 -0.40900
H 	H 	0.74248 0.39297 0.02606 0.16400
H 	H 	0.60690 0.23874 0.93448 0.17100
Cu	Cu	0.72067 0.31954 0.44514 0.92600
Cu	Cu	0.73026 0.27057 0.53029 0.87100
Cu	Cu	0.62701 0.28375 0.50439 0.89700
Cu	Cu	0.60298 0.32403 0.42826 0.89300
C 	C 	0.66020 0.30061 0.36337 0.25200
O 	O 	0.76097 0.41322 0.44802 -0.36000
C 	C 	0.68157 0.30395 0.59119 0.25500
O 	O 	0.62229 0.27104 0.44662 -0.63900
O 	O 	0.72071 0.32743 0.50461 -0.63900
O 	O 	0.76335 0.27693 0.44162 -0.37000
O 	O 	0.70389 0.20965 0.48303 -0.44100
O 	O 	0.64014 0.33308 0.37784 -0.37700
O 	O 	0.53507 0.23746 0.49956 -0.37900
C 	C 	0.49913 0.24544 0.47453 0.28900
C 	C 	0.73707 0.43928 0.46616 0.28200
O 	O 	0.67940 0.40292 0.47467 -0.39300
O 	O 	0.52477 0.29086 0.45270 -0.39700
O 	O 	0.70317 0.29931 0.38648 -0.33700
C 	C 	0.74054 0.22414 0.45558 0.28800
O 	O 	0.62990 0.28021 0.56323 -0.36800
O 	O 	0.73284 0.31145 0.58126 -0.41000
H 	H 	0.59263 0.22608 0.43267 0.16300
H 	H 	0.74832 0.37145 0.52024 0.17200
C 	C 	0.71615 0.32952 0.76965 0.11400
C 	C 	0.74702 0.36037 0.73841 -0.09000
C 	C 	0.71788 0.32710 0.69812 0.00600
C 	C 	0.65656 0.27154 0.68877 0.11400
C 	C 	0.62317 0.24374 0.71998 -0.09000
C 	C 	0.65691 0.27146 0.76033 0.00600
O 	O 	0.73235 0.36049 0.80971 -0.19400
C 	C 	0.67729 0.31447 0.82375 0.04000
C 	C 	0.63083 0.26282 0.79380 -0.05900
O 	O 	0.62656 0.25706 0.64853 -0.19300
C 	C 	0.67671 0.30896 0.63443 0.03900
C 	C 	0.73003 0.35247 0.66446 -0.05900
H 	H 	0.79045 0.40870 0.74513 0.06300
H 	H 	0.57278 0.20374 0.71317 0.06300
H 	H 	0.59067 0.21760 0.79914 0.04800
H 	H 	0.77733 0.38933 0.65928 0.04900
C 	C 	0.63722 0.31765 0.19512 0.11500
C 	C 	0.59840 0.29718 0.22468 -0.09000
C 	C 	0.61223 0.27278 0.25580 0.01200
C 	C 	0.66524 0.27276 0.25923 0.11300
C 	C 	0.70279 0.29107 0.22873 -0.08600
C 	C 	0.68867 0.31532 0.19755 0.01000
O 	O 	0.61554 0.31992 0.15639 -0.19200
C 	C 	0.65739 0.31629 0.13559 0.04600
C 	C 	0.70133 0.31367 0.15972 -0.06400
O 	O 	0.68948 0.27608 0.29901 -0.18500
C 	C 	0.64640 0.27896 0.31898 0.04300
C 	C 	0.60006 0.27644 0.29343 -0.06500
H 	H 	0.55791 0.29890 0.22300 0.06300
H 	H 	0.74348 0.28967 0.23045 0.06500
H 	H 	0.72658 0.29577 0.14880 0.05800
H 	H 	0.57413 0.29436 0.30290 0.04900
C 	C 	0.87855 0.74853 0.50663 -0.03900
C 	C 	0.83952 0.70066 0.47207 -0.00000
C 	C 	0.82266 0.71563 0.43644 -0.03900
C 	C 	0.84703 0.77842 0.43481 -0.03800
C 	C 	0.88834 0.82669 0.46880 -0.00100
C 	C 	0.90268 0.81123 0.50504 -0.03800
C 	C 	0.81766 0.63522 0.47285 0.02500
H 	H 	0.79169 0.67882 0.40981 0.03800
H 	H 	0.83564 0.78986 0.40672 0.03800
H 	H 	0.93436 0.84817 0.53149 0.03800
H 	H 	0.89145 0.73742 0.53437 0.03800
C 	C 	0.83478 0.60633 0.44551 -0.06600
C 	C 	0.81133 0.54324 0.44477 0.01200
C 	C 	0.77045 0.50841 0.47138 -0.08900
C 	C 	0.75585 0.53839 0.50001 0.01100
C 	C 	0.77912 0.60136 0.50060 -0.06600
H 	H 	0.86546 0.63246 0.42443 0.04700
H 	H 	0.82320 0.52092 0.42260 0.03900
H 	H 	0.72526 0.51246 0.52117 0.03100
H 	H 	0.76620 0.62345 0.52212 0.04500
C 	C 	0.85089 0.17976 0.43815 -0.06800
C 	C 	0.81140 0.11505 0.44017 0.02700
C 	C 	0.74643 0.08482 0.44179 -0.06900
C 	C 	0.72210 0.11981 0.44399 0.01400
C 	C 	0.76258 0.18543 0.44468 -0.09500
C 	C 	0.82655 0.21480 0.44028 0.01300
C 	C 	0.83943 0.08061 0.44464 -0.00200
H 	H 	0.71539 0.03475 0.44293 0.04500
H 	H 	0.67233 0.09634 0.44661 0.02900
H 	H 	0.85823 0.26527 0.44048 0.03200
H 	H 	0.90096 0.20335 0.43634 0.04600
C 	C 	0.82081 0.02966 0.41419 -0.03600
C 	C 	0.84756 0.99717 0.41860 -0.04200
C 	C 	0.89300 0.01535 0.45352 0.00300
C 	C 	0.91054 0.06545 0.48431 -0.04000
C 	C 	0.88395 0.09796 0.47986 -0.03800
H 	H 	0.78615 0.01565 0.38700 0.03900
H 	H 	0.83386 0.95870 0.39460 0.03900
H 	H 	0.94537 0.07966 0.51145 0.03800
H 	H 	0.89798 0.13668 0.50377 0.03500
C 	C 	0.18628 0.05193 0.43845 -0.03900
C 	C 	0.22773 0.10281 0.47107 -0.00100
C 	C 	0.20226 0.11889 0.50040 -0.03800
C 	C 	0.13582 0.08408 0.49725 -0.04000
C 	C 	0.09436 0.03296 0.46474 0.00200
C 	C 	0.11986 0.01716 0.43527 -0.03800
C 	C 	0.29773 0.14015 0.47398 0.02700
H 	H 	0.23394 0.15816 0.52567 0.03900
H 	H 	0.11654 0.09636 0.52027 0.03800
H 	H 	0.08819 0.97785 0.41002 0.03700
H 	H 	0.20556 0.03953 0.41550 0.03800
C 	C 	0.32863 0.11179 0.48014 -0.06600
C 	C 	0.39468 0.14654 0.48117 0.01400
C 	C 	0.43030 0.20990 0.47592 -0.08700
C 	C 	0.39943 0.23853 0.47053 0.01500
C 	C 	0.33347 0.20378 0.46955 -0.06700
H 	H 	0.30139 0.06273 0.48380 0.04600
H 	H 	0.41789 0.12388 0.48527 0.03100
H 	H 	0.42648 0.28763 0.46701 0.03300
H 	H 	0.30998 0.22606 0.46488 0.04500
C 	C 	0.85042 0.65244 0.97447 -0.06600
C 	C 	0.81921 0.68044 0.98048 0.02600
C 	C 	0.75528 0.64312 0.98595 -0.06600
C 	C 	0.72295 0.57842 0.98584 0.01400
C 	C 	0.75431 0.55036 0.98027 -0.08600
C 	C 	0.81814 0.58769 0.97435 0.01400
C 	C 	0.85378 0.74902 0.98167 0.00000
H 	H 	0.73066 0.66427 0.99030 0.04500
H 	H 	0.67348 0.55011 0.98991 0.03300
H 	H 	0.84304 0.56680 0.97027 0.03200
H 	H 	0.89988 0.68097 0.97035 0.04600
C 	C 	0.86550 0.78888 0.01766 -0.04000
C 	C 	0.89991 0.85417 0.01917 -0.03600
C 	C 	0.92290 0.88011 0.98471 -0.00500
C 	C 	0.91015 0.84009 0.94850 -0.03600
C 	C 	0.87576 0.77482 0.94699 -0.04000
H 	H 	0.84869 0.76937 0.04458 0.03800
H 	H 	0.90971 0.88471 0.04730 0.03700
H 	H 	0.92748 0.85968 0.92169 0.03800
H 	H 	0.86647 0.74434 0.91898 0.04000
C 	C 	0.89611 0.11359 0.04507 -0.03900
C 	C 	0.89130 0.14455 0.01485 -0.00000
C 	C 	0.91676 0.14602 0.97959 -0.04000
C 	C 	0.94594 0.11601 0.97431 -0.03700
C 	C 	0.94989 0.08420 0.00421 -0.00400
C 	C 	0.92533 0.08356 0.03979 -0.03700
C 	C 	0.85780 0.17372 0.01940 0.02600
H 	H 	0.91303 0.16956 0.95600 0.03600
H 	H 	0.96448 0.11653 0.94667 0.03700
H 	H 	0.92841 0.05937 0.06314 0.03800
H 	H 	0.87689 0.11245 0.07248 0.03900
C 	C 	0.79186 0.13568 0.02021 -0.06800
C 	C 	0.75820 0.16166 0.01866 0.01200
C 	C 	0.79016 0.22584 0.01602 -0.09800
C 	C 	0.85687 0.26466 0.01785 0.01300
C 	C 	0.89050 0.23871 0.01952 -0.06900
H 	H 	0.76626 0.08553 0.02045 0.04500
H 	H 	0.70683 0.13120 0.01752 0.03000
H 	H 	0.88232 0.31451 0.01663 0.02800
H 	H 	0.94161 0.26871 0.01964 0.04500
C 	C 	0.35815 0.13712 0.00082 -0.06500
C 	C 	0.32862 0.15553 0.97516 0.02500
C 	C 	0.36327 0.19750 0.94926 -0.06600
C 	C 	0.42785 0.22315 0.95035 0.01000
C 	C 	0.45849 0.20734 0.97759 -0.08900
C 	C 	0.42270 0.16278 0.00201 0.01300
C 	C 	0.26215 0.13255 0.97653 0.00100
H 	H 	0.34063 0.21137 0.92897 0.04500
H 	H 	0.45442 0.25645 0.93074 0.03100
H 	H 	0.44536 0.14966 0.02295 0.04000
H 	H 	0.33141 0.10390 0.02044 0.04700
C 	C 	0.21328 0.09318 0.94230 -0.04000
C 	C 	0.14961 0.06781 0.94457 -0.03700
C 	C 	0.13431 0.08154 0.98111 -0.00500
C 	C 	0.18350 0.12277 0.01487 -0.03600
C 	C 	0.24717 0.14820 0.01258 -0.04000
H 	H 	0.22443 0.08113 0.91426 0.03800
H 	H 	0.11198 0.03625 0.91828 0.03700
H 	H 	0.17219 0.13366 0.04320 0.03800
H 	H 	0.28471 0.17916 0.03902 0.04000
