data_crystal

_cell_length_a 15.05431
_cell_length_b 16.67894
_cell_length_c 52.28499
_cell_angle_alpha 89.54657
_cell_angle_beta  89.55079
_cell_angle_gamma 119.41867

_symmetry_space_group_name_	'P 1'
_symmetry_space_group_name_H-M	'P 1'

loop_
_symmetry_equiv_pos_as_xyz
  x,y,z

loop_
_atom_site_label
_atom_site_type_symbol
_atom_site_fract_x
_atom_site_fract_y
_atom_site_fract_z
_atom_site_charge
C 	C 	0.62052 0.35821 0.46585 0.29300
Ni	Ni	0.77335 0.29142 0.46927 1.11200
O 	O 	0.71175 0.37443 0.45813 -0.35900
O 	O 	0.91981 0.40170 0.46407 -0.37000
O 	O 	0.63321 0.17657 0.46246 -0.37700
C 	C 	0.32592 0.69826 0.38406 0.30200
C 	C 	0.70263 0.76867 0.43474 0.31900
C 	C 	0.51850 0.62498 0.36901 0.32000
C 	C 	0.51852 0.86278 0.45186 0.27300
C 	C 	0.48241 0.50202 0.44316 0.30000
C 	C 	0.27277 0.57058 0.46161 0.27700
Ni	Ni	0.54221 0.77443 0.40403 1.11300
Ni	Ni	0.49776 0.67407 0.45999 1.12000
Ni	Ni	0.36478 0.56165 0.41169 1.12100
O 	O 	0.42468 0.74254 0.37827 -0.37800
O 	O 	0.28359 0.62104 0.39821 -0.38000
O 	O 	0.46029 0.54112 0.46192 -0.38400
O 	O 	0.67280 0.82447 0.42560 -0.38100
O 	O 	0.64153 0.70015 0.45005 -0.38200
O 	O 	0.28083 0.51617 0.44447 -0.37300
O 	O 	0.58509 0.69384 0.38272 -0.38500
O 	O 	0.42137 0.58140 0.37553 -0.38500
O 	O 	0.50726 0.85740 0.42662 -0.36600
O 	O 	0.54935 0.81161 0.46462 -0.36400
O 	O 	0.44741 0.49986 0.42006 -0.38200
O 	O 	0.45603 0.67778 0.42590 -0.71700
H 	H 	0.40610 0.69791 0.42987 0.15100
C 	C 	0.12177 0.78583 0.00632 0.29400
C 	C 	0.39834 0.67630 0.05143 0.31800
C 	C 	0.14693 0.63477 0.06746 0.29800
Ni	Ni	0.29604 0.77811 0.03103 1.11900
Ni	Ni	0.21363 0.56001 0.02393 1.12000
O 	O 	0.06303 0.48889 0.01495 -0.37600
O 	O 	0.39783 0.75509 0.05019 -0.38200
O 	O 	0.18047 0.57828 0.06014 -0.39800
O 	O 	0.19486 0.72349 0.06055 -0.39100
O 	O 	0.21580 0.83451 0.01499 -0.38100
O 	O 	0.36073 0.61624 0.03297 -0.39400
O 	O 	0.22168 0.67055 0.01121 -0.70600
H 	H 	0.15311 0.65478 0.01735 0.13500
C 	C 	0.85218 0.90573 0.27016 0.29500
C 	C 	0.00146 0.18400 0.18829 0.31600
C 	C 	0.75253 0.89689 0.20288 0.32300
C 	C 	0.11356 0.21422 0.25128 0.30400
C 	C 	0.03715 0.95654 0.16974 0.32800
C 	C 	0.13309 0.95471 0.24269 0.30800
Ni	Ni	0.89854 0.06163 0.23346 1.10500
Ni	Ni	0.11708 0.09544 0.21022 1.11900
Ni	Ni	0.93362 0.88890 0.21919 1.12300
O 	O 	0.87068 0.99233 0.26853 -0.37200
O 	O 	0.83384 0.85474 0.24940 -0.38100
O 	O 	0.09049 0.04488 0.17456 -0.40700
O 	O 	0.91482 0.11590 0.19690 -0.39500
O 	O 	0.08946 0.19704 0.19714 -0.38600
O 	O 	0.03948 0.88401 0.24114 -0.38900
O 	O 	0.76033 0.94883 0.22249 -0.37500
O 	O 	0.83084 0.88963 0.19498 -0.39600
O 	O 	0.17518 0.01481 0.22330 -0.39000
O 	O 	0.01593 0.18939 0.24690 -0.37800
O 	O 	0.15547 0.16538 0.24315 -0.39600
O 	O 	0.01647 0.89535 0.18809 -0.39100
O 	O 	0.98777 0.01659 0.22565 -0.72200
H 	H 	0.01130 0.01755 0.24309 0.14200
C 	C 	0.07915 0.60602 0.08999 -0.10800
C 	C 	0.98383 0.52452 0.08881 0.12400
C 	C 	0.94814 0.46499 0.11015 -0.09600
C 	C 	0.00796 0.48566 0.13207 -0.00100
C 	C 	0.08908 0.57628 0.13515 0.05900
C 	C 	0.12349 0.63675 0.11397 -0.02000
N 	N 	0.93124 0.49949 0.06662 -0.20400
H 	H 	0.88046 0.39808 0.10860 0.05600
C 	C 	0.00561 0.40871 0.14689 0.00500
N 	N 	0.13690 0.60384 0.15794 -0.19300
H 	H 	0.19280 0.70250 0.11537 0.04300
C 	C 	0.05992 0.36672 0.13735 -0.10100
C 	C 	0.05558 0.29021 0.14990 0.13100
C 	C 	0.99938 0.25775 0.17307 -0.12100
C 	C 	0.94383 0.29893 0.18244 -0.01600
C 	C 	0.94558 0.37368 0.16942 0.05100
H 	H 	0.10337 0.39212 0.11964 0.05600
N 	N 	0.10229 0.24639 0.13912 -0.20700
H 	H 	0.90024 0.27353 0.20013 0.03300
N 	N 	0.89033 0.41177 0.17877 -0.19200
H 	H 	0.14701 0.27307 0.12255 0.08400
H 	H 	0.09088 0.18344 0.14631 0.09800
H 	H 	0.84620 0.38535 0.19544 0.07900
H 	H 	0.89068 0.46788 0.16968 0.08500
H 	H 	0.19962 0.66972 0.15983 0.08400
H 	H 	0.11065 0.56087 0.17410 0.08700
H 	H 	0.95764 0.54199 0.05039 0.09000
H 	H 	0.86240 0.43768 0.06553 0.08900
C 	C 	0.44145 0.65608 0.07405 -0.11800
C 	C 	0.54654 0.70974 0.07899 0.13600
C 	C 	0.57953 0.72593 0.10441 -0.09900
C 	C 	0.50847 0.68990 0.12470 0.00100
C 	C 	0.40584 0.62468 0.11958 0.05900
C 	C 	0.37476 0.60478 0.09411 -0.02300
N 	N 	0.61549 0.74704 0.05946 -0.20500
H 	H 	0.65946 0.77148 0.10840 0.05700
C 	C 	0.53885 0.73214 0.15016 0.00300
N 	N 	0.33670 0.58267 0.13890 -0.19300
H 	H 	0.29615 0.55561 0.09008 0.04400
C 	C 	0.55384 0.82130 0.15354 -0.10000
C 	C 	0.61169 0.87479 0.17403 0.13000
C 	C 	0.65303 0.83729 0.19148 -0.11800
C 	C 	0.61907 0.74251 0.19106 -0.01800
C 	C 	0.56720 0.69045 0.16976 0.05500
H 	H 	0.52658 0.85124 0.13925 0.05800
N 	N 	0.63056 0.96291 0.17627 -0.19900
H 	H 	0.64463 0.71215 0.20565 0.03500
N 	N 	0.54795 0.60203 0.16787 -0.19200
H 	H 	0.60385 0.99169 0.16259 0.08700
H 	H 	0.66863 0.00244 0.19206 0.08300
H 	H 	0.57000 0.57228 0.18239 0.07800
H 	H 	0.51059 0.56181 0.15213 0.08600
H 	H 	0.26158 0.53366 0.13487 0.08700
H 	H 	0.35668 0.59762 0.15803 0.08700
H 	H 	0.59293 0.73218 0.04044 0.10500
H 	H 	0.69306 0.78874 0.06318 0.08900
C 	C 	0.02072 0.92662 0.14288 -0.11600
C 	C 	0.94432 0.93029 0.12800 0.13200
C 	C 	0.92960 0.89902 0.10265 -0.10000
C 	C 	0.99456 0.87102 0.09139 0.00400
C 	C 	0.07460 0.87246 0.10589 0.06000
C 	C 	0.08364 0.89612 0.13182 -0.01600
N 	N 	0.88622 0.96494 0.13771 -0.20500
H 	H 	0.86939 0.89919 0.09143 0.05500
C 	C 	0.98164 0.84455 0.06406 0.00000
N 	N 	0.14503 0.85464 0.09483 -0.19000
H 	H 	0.14277 0.89440 0.14314 0.04400
C 	C 	0.03259 0.91312 0.04530 -0.09700
C 	C 	0.06086 0.89076 0.02188 0.13300
C 	C 	0.04116 0.79983 0.01795 -0.11000
C 	C 	0.96814 0.72940 0.03366 -0.02400
C 	C 	0.93908 0.75114 0.05713 0.06400
H 	H 	0.05793 0.98448 0.04975 0.06100
N 	N 	0.11277 0.95753 0.00397 -0.19700
H 	H 	0.94251 0.65827 0.02900 0.04100
N 	N 	0.87273 0.68276 0.07307 -0.19200
H 	H 	0.13124 0.02565 0.00732 0.08200
H 	H 	0.84203 0.61385 0.06794 0.08800
H 	H 	0.84788 0.69765 0.09017 0.08900
H 	H 	0.20284 0.85462 0.10575 0.08700
H 	H 	0.14650 0.84551 0.07516 0.09800
H 	H 	0.90318 0.99902 0.15513 0.10900
H 	H 	0.82587 0.96190 0.12720 0.09100
C 	C 	0.84064 0.86224 0.29555 -0.10700
C 	C 	0.78234 0.87273 0.31519 0.12800
C 	C 	0.79308 0.85063 0.34049 -0.09100
C 	C 	0.85716 0.81408 0.34626 0.00200
C 	C 	0.90605 0.79347 0.32619 0.06000
C 	C 	0.89616 0.81685 0.30089 -0.02600
N 	N 	0.71290 0.90000 0.30977 -0.20300
H 	H 	0.75072 0.86107 0.35575 0.05200
C 	C 	0.87059 0.79701 0.37341 0.00400
N 	N 	0.96360 0.75282 0.33103 -0.19300
H 	H 	0.93619 0.80406 0.28554 0.04800
C 	C 	0.81394 0.70738 0.38348 -0.09500
C 	C 	0.78052 0.69443 0.40909 0.13900
C 	C 	0.79353 0.77110 0.42310 -0.11800
C 	C 	0.87453 0.85754 0.41575 -0.01600
C 	C 	0.91314 0.87135 0.39056 0.05900
H 	H 	0.79174 0.64872 0.37120 0.05800
N 	N 	0.73863 0.60989 0.42024 -0.20400
H 	H 	0.89632 0.91609 0.42808 0.04900
N 	N 	0.98648 0.95617 0.38256 -0.18200
H 	H 	0.72440 0.55227 0.40951 0.09400
H 	H 	0.72796 0.60242 0.44005 0.11200
H 	H 	0.01485 0.01185 0.39500 0.07400
H 	H 	0.01825 0.96657 0.36417 0.08400
H 	H 	0.99644 0.73509 0.31598 0.08700
H 	H 	0.97843 0.74041 0.34968 0.08900
H 	H 	0.69255 0.90391 0.29094 0.09700
H 	H 	0.67352 0.91172 0.32451 0.08100
C 	C 	0.54371 0.61614 0.34245 -0.11600
C 	C 	0.54306 0.53444 0.33540 0.13000
C 	C 	0.49094 0.48848 0.31331 -0.09700
C 	C 	0.43937 0.52348 0.29875 0.00200
C 	C 	0.46144 0.61531 0.30261 0.06100
C 	C 	0.51973 0.66317 0.32381 -0.01400
N 	N 	0.58307 0.49537 0.35107 -0.20600
H 	H 	0.48107 0.42104 0.30911 0.05600
C 	C 	0.34663 0.45782 0.28488 0.00200
N 	N 	0.42337 0.65600 0.28686 -0.19200
H 	H 	0.53033 0.73085 0.32801 0.04100
C 	C 	0.25700 0.40214 0.29903 -0.09600
C 	C 	0.17522 0.32483 0.28796 0.12400
C 	C 	0.18176 0.30577 0.26189 -0.10800
C 	C 	0.26636 0.36805 0.24705 -0.02100
C 	C 	0.35021 0.44256 0.25842 0.05700
H 	H 	0.25322 0.41601 0.31913 0.05700
N 	N 	0.09244 0.26816 0.30264 -0.20500
H 	H 	0.26971 0.35505 0.22687 0.04100
N 	N 	0.43398 0.49828 0.24391 -0.19300
H 	H 	0.08922 0.28215 0.32197 0.08100
H 	H 	0.03029 0.21030 0.29507 0.09100
H 	H 	0.43626 0.48590 0.22441 0.08000
H 	H 	0.49689 0.55503 0.25168 0.08600
H 	H 	0.43744 0.72284 0.29034 0.08300
H 	H 	0.38127 0.62246 0.27078 0.08700
H 	H 	0.61793 0.52668 0.36814 0.09300
H 	H 	0.58004 0.43341 0.34622 0.08500
C 	C 	0.19371 0.96026 0.26531 -0.11300
C 	C 	0.15898 0.96822 0.28993 0.13600
C 	C 	0.17938 0.92851 0.31111 -0.10100
C 	C 	0.24330 0.89015 0.30872 0.00400
C 	C 	0.29352 0.89783 0.28502 0.05700
C 	C 	0.26603 0.93067 0.26328 -0.01800
N 	N 	0.10562 0.01348 0.29326 -0.21300
H 	H 	0.14489 0.92705 0.32952 0.06100
C 	C 	0.24862 0.83413 0.33028 -0.00000
N 	N 	0.36809 0.87454 0.28309 -0.19200
H 	H 	0.29678 0.92847 0.24463 0.04400
C 	C 	0.21249 0.73973 0.32681 -0.09900
C 	C 	0.21981 0.68568 0.34654 0.13000
C 	C 	0.26111 0.72644 0.37029 -0.10800
C 	C 	0.27653 0.81482 0.37516 -0.02500
C 	C 	0.28050 0.87213 0.35488 0.06100
H 	H 	0.18143 0.70894 0.30852 0.05600
N 	N 	0.19097 0.59592 0.34228 -0.20400
H 	H 	0.30219 0.84408 0.39392 0.04500
N 	N 	0.32106 0.96406 0.35875 -0.18700
H 	H 	0.16627 0.56756 0.32422 0.08500
H 	H 	0.18983 0.55286 0.35702 0.09700
H 	H 	0.33948 0.99061 0.37719 0.08900
H 	H 	0.34056 0.01056 0.34347 0.07700
H 	H 	0.40160 0.87647 0.26534 0.08200
H 	H 	0.39679 0.85863 0.29930 0.08500
H 	H 	0.10046 0.05342 0.27866 0.08900
H 	H 	0.07466 0.01412 0.31118 0.08300
C 	C 	0.53226 0.94484 0.46368 -0.00600
C 	C 	0.55185 0.01844 0.47207 -0.07500
C 	C 	0.53465 0.45207 0.44880 -0.04700
C 	C 	0.57740 0.41079 0.45550 -0.04100
O 	O 	0.35498 0.63701 0.47278 -0.37100
O 	O 	0.56092 0.28462 0.47951 -0.37400
C 	C 	0.58482 0.11086 0.47946 0.30000
C 	C 	0.17295 0.54291 0.47195 -0.02800
C 	C 	0.97549 0.45734 0.48196 0.31300
O 	O 	0.84528 0.21825 0.48266 -0.36800
C 	C 	0.08407 0.50910 0.47798 -0.05100
C 	C 	0.89113 0.23258 0.50538 0.28900
O 	O 	0.93256 0.47424 0.50139 -0.37400
O 	O 	0.55181 0.12732 0.50113 -0.37200
O 	O 	0.73916 0.29563 0.50421 -0.70300
H 	H 	0.73249 0.23725 0.51052 0.13400
H 	H 	0.07490 0.23838 0.50325 0.04900
H 	H 	0.71889 0.06371 0.51118 0.09600
Ni	Ni	0.60048 0.25695 0.51393 1.11800
O 	O 	0.92621 0.31200 0.51756 -0.38300
C 	C 	0.91777 0.16532 0.51573 -0.10400
C 	C 	0.02182 0.19333 0.51783 -0.02400
H 	H 	0.58846 0.50778 0.52808 0.10800
N 	N 	0.74678 0.05386 0.52845 -0.20400
C 	C 	0.69634 0.43209 0.54250 0.30500
Ni	Ni	0.84344 0.37463 0.52694 1.11700
O 	O 	0.61632 0.37484 0.52907 -0.39700
O 	O 	0.61022 0.20643 0.54810 -0.39200
O 	O 	0.78886 0.45988 0.53402 -0.38700
C 	C 	0.84852 0.09733 0.53292 0.12200
C 	C 	0.05925 0.17784 0.54082 0.06000
H 	H 	0.69493 0.00740 0.54190 0.09000
H 	H 	0.21238 0.25287 0.52920 0.08700
N 	N 	0.60117 0.54821 0.54420 -0.20600
H 	H 	0.57631 0.59672 0.54386 0.08700
C 	C 	0.68014 0.25322 0.56518 0.29100
O 	O 	0.77917 0.29458 0.55895 -0.39300
C 	C 	0.98972 0.12829 0.56091 0.00300
C 	C 	0.88496 0.08044 0.55583 -0.09400
N 	N 	0.16135 0.21358 0.54383 -0.19200
H 	H 	0.19080 0.20063 0.56039 0.08600
H 	H 	0.52660 0.28265 0.56805 0.08800
C 	C 	0.68402 0.47437 0.56592 -0.11700
C 	C 	0.64807 0.53869 0.56523 0.13300
H 	H 	0.83159 0.03631 0.57050 0.05600
N 	N 	0.51965 0.27922 0.58785 -0.20300
H 	H 	0.46776 0.29622 0.59613 0.08600
C 	C 	0.66502 0.59623 0.58632 -0.10000
H 	H 	0.64220 0.64856 0.58549 0.05800
C 	C 	0.05454 0.08193 0.59859 -0.10000
C 	C 	0.02325 0.14103 0.58786 0.00100
H 	H 	0.06452 0.03447 0.58643 0.05300
N 	N 	0.99065 0.26818 0.59338 -0.19100
H 	H 	0.98505 0.27446 0.57366 0.09400
C 	C 	0.56823 0.24548 0.60257 0.12000
C 	C 	0.64874 0.23296 0.59251 -0.10500
C 	C 	0.71784 0.59094 0.60769 0.00100
C 	C 	0.73142 0.46644 0.58804 -0.02400
H 	H 	0.76521 0.42232 0.58807 0.03700
H 	H 	0.88125 0.71884 0.58575 0.09300
H 	H 	0.75220 0.18128 0.60049 0.04700
C 	C 	0.74390 0.52061 0.60933 0.06100
O 	O 	0.40477 0.84413 0.00361 -0.37100
C 	C 	0.07013 0.08167 0.62502 0.12800
C 	C 	0.01423 0.20570 0.60356 0.05700
C 	C 	0.02763 0.20387 0.63008 -0.02100
N 	N 	0.10497 0.02675 0.63484 -0.21300
H 	H 	0.97984 0.31293 0.60523 0.08400
H 	H 	0.12283 0.98682 0.62279 0.09200
C 	C 	0.53526 0.21918 0.62785 -0.09300
C 	C 	0.69047 0.19060 0.60793 -0.02600
C 	C 	0.64844 0.15495 0.63236 0.05900
H 	H 	0.47548 0.23065 0.63565 0.05700
C 	C 	0.75802 0.66607 0.62643 0.00300
N 	N 	0.78429 0.50686 0.63103 -0.19200
C 	C 	0.86069 0.73775 0.62462 0.06100
N 	N 	0.91500 0.75462 0.60240 -0.19100
H 	H 	0.99145 0.80617 0.60140 0.08500
H 	H 	0.80556 0.45591 0.63180 0.08400
C 	C 	0.56700 0.16633 0.64183 -0.00600
C 	C 	0.04963 0.13881 0.64109 -0.11100
H 	H 	0.01466 0.24942 0.64233 0.04300
H 	H 	0.11560 0.02377 0.65442 0.10000
C 	C 	0.41492 0.02731 0.65872 -0.14000
C 	C 	0.50255 0.11133 0.66382 0.01700
H 	H 	0.41225 0.99068 0.64144 0.07700
N 	N 	0.68708 0.11097 0.64660 -0.19300
H 	H 	0.74640 0.10181 0.63937 0.08500
C 	C 	0.70175 0.65447 0.64894 -0.10000
C 	C 	0.90696 0.79201 0.64603 -0.02000
H 	H 	0.62349 0.59897 0.65034 0.05600
H 	H 	0.98583 0.84586 0.64484 0.04600
H 	H 	0.79155 0.54391 0.64761 0.08800
C 	C 	0.89488 0.84789 0.68894 0.31600
C 	C 	0.02671 0.11597 0.66849 0.31100
O 	O 	0.93823 0.04461 0.67476 -0.39400
O 	O 	0.08130 0.17775 0.68569 -0.38800
C 	C 	0.32620 0.99708 0.67382 0.16700
C 	C 	0.50869 0.15476 0.68733 0.04700
N 	N 	0.23958 0.91907 0.66749 -0.21200
N 	N 	0.59791 0.22780 0.69474 -0.19000
H 	H 	0.66047 0.08764 0.66518 0.08400
H 	H 	0.66509 0.24922 0.68413 0.08600
H 	H 	0.17402 0.89279 0.67900 0.09800
H 	H 	0.23796 0.88243 0.65121 0.08600
C 	C 	0.74971 0.70524 0.67074 0.13100
C 	C 	0.85154 0.77831 0.66880 -0.11500
N 	N 	0.70075 0.67919 0.69380 -0.20400
H 	H 	0.62373 0.62910 0.69494 0.08200
C 	C 	0.23188 0.04047 0.70565 0.31000
Ni	Ni	0.03023 0.92860 0.73399 1.11100
Ni	Ni	0.88713 0.00775 0.71083 1.11600
Ni	Ni	0.12682 0.14526 0.71857 1.11800
O 	O 	0.98596 0.87181 0.69790 -0.38300
O 	O 	0.83655 0.87599 0.70002 -0.37900
O 	O 	0.18430 0.98123 0.72437 -0.37000
O 	O 	0.19683 0.09289 0.69661 -0.40100
O 	O 	0.90817 0.13440 0.72014 -0.38400
O 	O 	0.01100 0.02912 0.72597 -0.72500
C 	C 	0.32752 0.05011 0.69495 -0.13900
C 	C 	0.42048 0.12430 0.70265 -0.01000
H 	H 	0.42281 0.16190 0.71969 0.03600
H 	H 	0.60150 0.26197 0.71170 0.08100
H 	H 	0.74059 0.70284 0.71083 0.10100
C 	C 	0.81667 0.87877 0.75544 0.29900
C 	C 	0.97032 0.18658 0.73842 0.29800
O 	O 	0.19565 0.13313 0.75108 -0.37700
O 	O 	0.06899 0.21323 0.73778 -0.39300
O 	O 	0.87936 0.84895 0.74737 -0.37500
O 	O 	0.81546 0.95053 0.74452 -0.37600
H 	H 	0.99513 0.04213 0.74316 0.13900
C 	C 	0.95467 0.32069 0.75267 -0.02000
H 	H 	0.99094 0.35553 0.73484 0.04300
H 	H 	0.98856 0.48955 0.74986 0.08200
H 	H 	0.63597 0.74713 0.73840 0.04400
H 	H 	0.51019 0.58789 0.73873 0.07900
C 	C 	0.14481 0.08040 0.77125 0.27500
O 	O 	0.08551 0.98991 0.76910 -0.36300
C 	C 	0.93375 0.22985 0.75703 -0.11100
C 	C 	0.93147 0.36767 0.77149 0.05400
N 	N 	0.95403 0.45623 0.76710 -0.19200
H 	H 	0.91675 0.07483 0.77641 0.08000
C 	C 	0.72811 0.81483 0.77104 -0.10600
C 	C 	0.58793 0.65706 0.77154 0.05800
C 	C 	0.64656 0.74160 0.75869 -0.02200
N 	N 	0.51971 0.58249 0.75833 -0.19200
H 	H 	0.47454 0.51899 0.76737 0.08400
C 	C 	0.88827 0.18499 0.78048 0.12300
C 	C 	0.88427 0.32157 0.79469 0.00200
N 	N 	0.87676 0.10100 0.78640 -0.20300
H 	H 	0.71495 0.31695 0.77867 0.08700
H 	H 	0.93767 0.49285 0.78068 0.08400
C 	C 	0.16083 0.12140 0.79689 -0.10500
C 	C 	0.12575 0.18364 0.80198 -0.03700
H 	H 	0.10460 0.21320 0.78629 0.04700
H 	H 	0.25863 0.02608 0.79426 0.09500
C 	C 	0.73523 0.81132 0.79794 0.12500
C 	C 	0.60450 0.65012 0.79787 0.00200
H 	H 	0.76990 0.63800 0.78747 0.09000
H 	H 	0.87092 0.93746 0.80101 0.09400
C 	C 	0.85970 0.22982 0.79848 -0.09800
H 	H 	0.82259 0.19459 0.81621 0.05800
C 	C 	0.85328 0.36537 0.81463 -0.00400
N 	N 	0.68620 0.31036 0.79728 -0.19200
H 	H 	0.60816 0.28646 0.79977 0.08400
H 	H 	0.83539 0.06523 0.80273 0.08500
C 	C 	0.19274 0.08606 0.81734 0.12300
N 	N 	0.23860 0.03465 0.81280 -0.20400
H 	H 	0.25883 0.00601 0.82799 0.08100
H 	H 	0.06031 0.29495 0.81673 0.08500
C 	C 	0.66620 0.73104 0.81131 -0.09400
N 	N 	0.81206 0.88151 0.81072 -0.20500
C 	C 	0.58654 0.56165 0.80924 0.00200
C 	C 	0.48884 0.49696 0.81820 -0.09900
C 	C 	0.67045 0.55083 0.81621 0.06200
H 	H 	0.42278 0.50149 0.81210 0.05500
N 	N 	0.76203 0.59907 0.80394 -0.19200
H 	H 	0.82500 0.59371 0.80996 0.08300
C 	C 	0.91994 0.40923 0.83492 -0.09600
C 	C 	0.74926 0.33746 0.81770 0.06200
H 	H 	0.00065 0.43277 0.83236 0.05200
C 	C 	0.18033 0.10706 0.84261 -0.09800
C 	C 	0.11068 0.20287 0.82728 0.05900
N 	N 	0.06823 0.25710 0.83167 -0.19400
H 	H 	0.67248 0.72728 0.83189 0.06100
C 	C 	0.47652 0.42521 0.83476 0.13200
N 	N 	0.38470 0.34755 0.83670 -0.20600
H 	H 	0.32218 0.34273 0.82686 0.08800
H 	H 	0.81559 0.87893 0.83065 0.08900
C 	C 	0.70965 0.33292 0.84220 -0.02800
H 	H 	0.62771 0.29830 0.84511 0.03900
C 	C 	0.13970 0.16530 0.84784 -0.00300
H 	H 	0.20667 0.08129 0.85824 0.05600
H 	H 	0.04055 0.26039 0.84978 0.08700
C 	C 	0.56304 0.43144 0.84701 -0.11400
C 	C 	0.66002 0.49306 0.83687 -0.02500
H 	H 	0.72768 0.50248 0.84653 0.04100
H 	H 	0.37715 0.28844 0.84569 0.10400
C 	C 	0.88147 0.41188 0.85939 0.12700
C 	C 	0.77451 0.37334 0.86299 -0.11300
H 	H 	0.23051 0.34350 0.86491 0.05800
C 	C 	0.55678 0.40199 0.87404 0.30400
H 	H 	0.02527 0.47660 0.87623 0.08500
C 	C 	0.21303 0.29144 0.87956 -0.09700
C 	C 	0.14525 0.19872 0.87444 0.00200
H 	H 	0.98419 0.03270 0.87555 0.08400
O 	O 	0.49225 0.31604 0.88093 -0.38700
N 	N 	0.94649 0.44478 0.87939 -0.20400
N 	N 	0.02593 0.05053 0.89243 -0.19200
C 	C 	0.72657 0.36230 0.88848 0.29400
O 	O 	0.65794 0.27867 0.89580 -0.37900
O 	O 	0.59384 0.46735 0.89109 -0.38100
H 	H 	0.92006 0.43438 0.89827 0.10700
C 	C 	0.26665 0.31558 0.90258 0.13400
C 	C 	0.10823 0.13546 0.89518 0.05800
H 	H 	0.00104 0.00257 0.90751 0.08300
H 	H 	0.35671 0.45444 0.89227 0.09800
Ni	Ni	0.51658 0.24591 0.91104 1.11100
O 	O 	0.75878 0.43308 0.90435 -0.38700
C 	C 	0.24904 0.24586 0.92073 -0.11400
C 	C 	0.16034 0.16002 0.91851 -0.01700
N 	N 	0.33897 0.40420 0.90648 -0.20500
C 	C 	0.33673 0.24825 0.93372 0.30900
Ni	Ni	0.66385 0.46738 0.92399 1.11900
O 	O 	0.37025 0.19350 0.92573 -0.38100
H 	H 	0.13981 0.10869 0.93359 0.04300
H 	H 	0.37540 0.42432 0.92396 0.10900
O 	O 	0.53733 0.15960 0.93616 -0.37000
O 	O 	0.58559 0.52865 0.93676 -0.37500
O 	O 	0.57491 0.34267 0.93432 -0.70900
H 	H 	0.62917 0.32833 0.93854 0.13800
O 	O 	0.37995 0.30350 0.95324 -0.37800
C 	C 	0.50136 0.14144 0.95980 0.30000
C 	C 	0.53595 0.50784 0.95861 0.30400
O 	O 	0.74226 0.49382 0.95730 -0.36800
C 	C 	0.46503 0.54004 0.96387 -0.04700
Ni	Ni	0.51620 0.32732 0.96804 1.11800
O 	O 	0.46161 0.18842 0.97056 -0.37800
O 	O 	0.30474 0.82252 0.96885 -0.36200
O 	O 	0.31779 0.65189 0.96540 -0.35800
C 	C 	0.47167 0.05137 0.96998 -0.06100
C 	C 	0.40103 0.56162 0.96853 -0.03300
C 	C 	0.74141 0.43024 0.97311 0.27200
O 	O 	0.54900 0.45672 0.97553 -0.38500
C 	C 	0.32045 0.58030 0.97535 0.29300
Ni	Ni	0.20422 0.68346 0.97580 1.11200
O 	O 	0.09381 0.54495 0.97362 -0.36800
C 	C 	0.43794 0.97227 0.97676 -0.01600
O 	O 	0.65454 0.36080 0.98256 -0.37000
C 	C 	0.38509 0.87533 0.98248 0.29400
C 	C 	0.83713 0.44561 0.98291 -0.03300
H 	H 	0.13239 0.94151 0.98627 0.10500
C 	C 	0.02974 0.50064 0.99262 0.28600
O 	O 	0.24565 0.52139 0.99010 -0.37200
O 	O 	0.10082 0.72721 0.98714 -0.36600
C 	C 	0.92301 0.46652 0.98876 -0.05000
