data_crystal

_cell_length_a 32.53798
_cell_length_b 28.07645
_cell_length_c 31.85135
_cell_angle_alpha 103.63501
_cell_angle_beta  115.73747
_cell_angle_gamma 112.42259

_symmetry_space_group_name_	'P 1'
_symmetry_space_group_name_H-M	'P 1'

loop_
_symmetry_equiv_pos_as_xyz
  x,y,z

loop_
_atom_site_label
_atom_site_type_symbol
_atom_site_fract_x
_atom_site_fract_y
_atom_site_fract_z
_atom_site_charge
C 	C 	0.72515 0.22255 0.94619 -0.01700
C 	C 	0.76379 0.27311 0.99624 0.01100
C 	C 	0.74836 0.30775 0.01591 -0.10300
C 	C 	0.69433 0.29244 0.98574 0.10600
C 	C 	0.65524 0.24088 0.93593 -0.08200
C 	C 	0.67076 0.20630 0.91631 -0.01100
N 	N 	0.68008 0.33083 0.00547 -0.15100
C 	C 	0.71454 0.47304 0.97121 -0.00300
C 	C 	0.69344 0.41723 0.93279 -0.01900
C 	C 	0.67896 0.36944 0.94232 -0.07600
C 	C 	0.68737 0.37740 0.99145 0.09600
C 	C 	0.70599 0.43256 0.02866 -0.08100
C 	C 	0.71907 0.48002 0.01847 -0.02700
C 	C 	0.53480 0.23834 0.99485 0.01000
C 	C 	0.58524 0.25495 0.03822 -0.04000
C 	C 	0.63297 0.28618 0.04185 -0.06100
C 	C 	0.63072 0.30117 0.00228 0.06400
C 	C 	0.58005 0.28512 0.95908 -0.05600
C 	C 	0.53236 0.25371 0.95542 -0.03200
C 	C 	0.77752 0.61915 0.94533 0.00600
C 	C 	0.80931 0.62181 0.99391 -0.01100
C 	C 	0.78841 0.57466 0.00277 -0.06800
C 	C 	0.73508 0.52473 0.96341 0.02800
C 	C 	0.70273 0.52285 0.91535 -0.04700
C 	C 	0.72424 0.56938 0.90598 -0.02800
C 	C 	0.79074 0.13723 0.89412 0.01500
C 	C 	0.76770 0.16198 0.86579 -0.03300
C 	C 	0.74365 0.18741 0.88113 -0.04100
C 	C 	0.74219 0.18773 0.92460 0.02000
C 	C 	0.76178 0.15926 0.95042 -0.03900
C 	C 	0.78601 0.13414 0.93525 -0.03100
C 	C 	0.38415 0.14523 0.97638 0.03200
C 	C 	0.39787 0.11476 0.94907 -0.04100
C 	C 	0.44797 0.14489 0.95637 -0.03500
C 	C 	0.48461 0.20563 0.99106 0.01600
C 	C 	0.47176 0.23567 0.01984 -0.04400
C 	C 	0.42159 0.20564 0.01235 -0.04800
H 	H 	0.80594 0.28596 0.01954 0.02400
H 	H 	0.77858 0.34714 0.05426 0.05900
H 	H 	0.61348 0.22871 0.91182 0.05400
H 	H 	0.64067 0.16725 0.87767 0.03500
H 	H 	0.68927 0.41112 0.89595 0.03500
H 	H 	0.66158 0.32662 0.91170 0.05100
H 	H 	0.71155 0.43889 0.06608 0.05400
H 	H 	0.73396 0.52254 0.04784 0.03600
H 	H 	0.58741 0.24343 0.06894 0.04100
H 	H 	0.67175 0.29837 0.07519 0.04800
H 	H 	0.57746 0.29557 0.92778 0.04700
H 	H 	0.49348 0.24112 0.92187 0.04100
H 	H 	0.85060 0.65997 0.02439 0.03100
H 	H 	0.81403 0.57639 0.03974 0.04400
H 	H 	0.66131 0.48492 0.88494 0.04400
H 	H 	0.69960 0.56674 0.86815 0.04500
H 	H 	0.77076 0.16402 0.83364 0.04500
H 	H 	0.72815 0.20887 0.86066 0.04300
H 	H 	0.76001 0.15849 0.98346 0.04700
H 	H 	0.80332 0.11457 0.95698 0.04900
H 	H 	0.36909 0.06815 0.92110 0.05200
H 	H 	0.45780 0.12136 0.93421 0.04400
H 	H 	0.49997 0.28255 0.04685 0.04200
H 	H 	0.41111 0.22955 0.03331 0.05000
C 	C 	0.72684 0.21083 0.44571 -0.00400
C 	C 	0.75278 0.23911 0.50093 -0.02300
C 	C 	0.74110 0.27692 0.52292 -0.06900
C 	C 	0.70480 0.28845 0.49044 0.08100
C 	C 	0.67923 0.26065 0.43516 -0.07100
C 	C 	0.68901 0.22082 0.41287 -0.02300
N 	N 	0.69823 0.33273 0.51476 -0.14300
C 	C 	0.74903 0.47293 0.48063 -0.00500
C 	C 	0.69364 0.42641 0.44820 -0.02400
C 	C 	0.67612 0.38132 0.46045 -0.07100
C 	C 	0.71420 0.38170 0.50459 0.08000
C 	C 	0.76902 0.42916 0.53785 -0.07000
C 	C 	0.78633 0.47479 0.52624 -0.02300
C 	C 	0.55862 0.27726 0.51782 -0.00400
C 	C 	0.60883 0.32978 0.55973 -0.02400
C 	C 	0.65438 0.34755 0.55832 -0.06900
C 	C 	0.65024 0.31329 0.51491 0.07900
C 	C 	0.59958 0.26059 0.47267 -0.07100
C 	C 	0.55427 0.24268 0.47442 -0.02300
C 	C 	0.81070 0.61021 0.44491 0.01700
C 	C 	0.83362 0.57691 0.45182 -0.03800
C 	C 	0.81239 0.53097 0.46185 -0.03900
C 	C 	0.76851 0.51843 0.46582 0.01200
C 	C 	0.74456 0.55071 0.45735 -0.03900
C 	C 	0.76516 0.59595 0.44626 -0.03600
C 	C 	0.78344 0.11373 0.39007 0.01800
C 	C 	0.77408 0.15073 0.36995 -0.04000
C 	C 	0.75425 0.18128 0.38695 -0.03900
C 	C 	0.74161 0.17342 0.42277 0.01100
C 	C 	0.74693 0.13282 0.43956 -0.03700
C 	C 	0.76912 0.10439 0.42448 -0.03600
C 	C 	0.41705 0.22061 0.51874 0.01900
C 	C 	0.46477 0.23024 0.56041 -0.03700
C 	C 	0.51115 0.24900 0.56029 -0.03800
C 	C 	0.51027 0.25896 0.51881 0.01200
C 	C 	0.46279 0.25037 0.47770 -0.03800
C 	C 	0.41635 0.23115 0.47762 -0.03800
H 	H 	0.78286 0.23277 0.52692 0.03800
H 	H 	0.76164 0.29888 0.56554 0.05200
H 	H 	0.65149 0.26947 0.40951 0.04800
H 	H 	0.66789 0.19848 0.37015 0.03600
H 	H 	0.66444 0.42461 0.41300 0.03600
H 	H 	0.63345 0.34534 0.43487 0.04900
H 	H 	0.79838 0.43010 0.57227 0.05100
H 	H 	0.82893 0.51112 0.55219 0.03700
H 	H 	0.61249 0.35699 0.59326 0.03600
H 	H 	0.69304 0.38808 0.59096 0.05100
H 	H 	0.59487 0.23380 0.43838 0.05000
H 	H 	0.51564 0.20198 0.44191 0.03900
H 	H 	0.86830 0.58715 0.45008 0.04400
H 	H 	0.83049 0.50558 0.46725 0.04100
H 	H 	0.71063 0.54139 0.46022 0.04100
H 	H 	0.74670 0.62091 0.44012 0.04700
H 	H 	0.78486 0.15814 0.34328 0.04200
H 	H 	0.75060 0.21259 0.37378 0.04000
H 	H 	0.73580 0.12496 0.46590 0.04400
H 	H 	0.77682 0.07655 0.44085 0.05400
H 	H 	0.46569 0.22258 0.59250 0.04500
H 	H 	0.54756 0.25536 0.59213 0.04200
H 	H 	0.46188 0.25844 0.44578 0.04200
H 	H 	0.37973 0.22424 0.44554 0.04900
C 	C 	0.41430 0.79110 0.02317 0.07200
C 	C 	0.36489 0.76558 0.97339 -0.06100
C 	C 	0.33070 0.78570 0.96823 -0.01700
N 	N 	0.44834 0.76823 0.03021 -0.14000
C 	C 	0.35664 0.58604 0.98103 0.01100
C 	C 	0.36260 0.60402 0.94533 -0.03100
C 	C 	0.39503 0.66383 0.96194 -0.05500
C 	C 	0.42075 0.70631 0.01416 0.06600
C 	C 	0.41643 0.68807 0.05020 -0.06000
C 	C 	0.38491 0.62832 0.03391 -0.04000
C 	C 	0.56755 0.83880 0.00026 -0.02400
C 	C 	0.58123 0.83143 0.04546 -0.01700
C 	C 	0.54157 0.80745 0.05452 -0.07000
C 	C 	0.48787 0.79062 0.01863 0.07400
C 	C 	0.47398 0.79738 0.97286 -0.06600
C 	C 	0.51374 0.82148 0.96391 -0.01100
C 	C 	0.25282 0.40527 0.93438 0.01900
C 	C 	0.24586 0.44771 0.95800 -0.03600
C 	C 	0.27836 0.50623 0.97139 -0.03500
C 	C 	0.31926 0.52325 0.96269 0.00800
C 	C 	0.32574 0.48063 0.93840 -0.03600
C 	C 	0.29248 0.42184 0.92409 -0.03900
C 	C 	0.60344 0.82859 0.94585 -0.04500
H 	H 	0.35287 0.73009 0.93885 0.04900
H 	H 	0.29331 0.76643 0.92951 0.04000
H 	H 	0.34120 0.57180 0.90448 0.04100
H 	H 	0.39847 0.67715 0.93378 0.04700
H 	H 	0.43665 0.72045 0.09061 0.05000
H 	H 	0.38162 0.61490 0.06213 0.03900
H 	H 	0.62255 0.84411 0.07348 0.03400
H 	H 	0.55261 0.80229 0.08970 0.05300
H 	H 	0.43260 0.78334 0.94394 0.05000
H 	H 	0.21575 0.43546 0.96661 0.05000
H 	H 	0.27243 0.53856 0.98938 0.04400
H 	H 	0.35723 0.49323 0.93162 0.04200
H 	H 	0.29835 0.38942 0.90615 0.04600
H 	H 	0.23543 0.76088 0.96764 0.04200
H 	H 	0.56710 0.78457 0.91731 0.04600
H 	H 	0.64119 0.82195 0.90553 0.04800
C 	C 	0.44056 0.81154 0.53645 0.08100
C 	C 	0.39110 0.78518 0.48650 -0.07000
C 	C 	0.35785 0.80693 0.47999 -0.02300
N 	N 	0.47279 0.78638 0.54537 -0.14300
C 	C 	0.37832 0.60738 0.50516 -0.00400
C 	C 	0.38786 0.62096 0.46929 -0.02400
C 	C 	0.42037 0.67962 0.48277 -0.07100
C 	C 	0.44375 0.72541 0.53250 0.08000
C 	C 	0.43537 0.71149 0.56876 -0.06800
C 	C 	0.40275 0.65289 0.55518 -0.02300
C 	C 	0.59317 0.84613 0.51485 -0.00400
C 	C 	0.60818 0.85342 0.56561 -0.02300
C 	C 	0.56818 0.83246 0.57484 -0.06900
C 	C 	0.51295 0.80570 0.53413 0.08000
C 	C 	0.49808 0.80084 0.48393 -0.07100
C 	C 	0.53780 0.81972 0.47406 -0.02300
C 	C 	0.26809 0.43185 0.46520 0.01800
C 	C 	0.24948 0.45667 0.43396 -0.03700
C 	C 	0.28573 0.51347 0.44624 -0.03800
C 	C 	0.34100 0.54571 0.48963 0.01200
C 	C 	0.35991 0.52006 0.51981 -0.03800
C 	C 	0.32359 0.46334 0.50762 -0.03700
C 	C 	0.67324 0.84805 0.52081 -0.03900
H 	H 	0.37783 0.74715 0.45316 0.04800
H 	H 	0.31994 0.78639 0.44134 0.03800
H 	H 	0.36945 0.58612 0.43069 0.03600
H 	H 	0.42591 0.68926 0.45405 0.04800
H 	H 	0.45314 0.74634 0.60706 0.05300
H 	H 	0.39559 0.64291 0.58314 0.04000
H 	H 	0.65080 0.87500 0.59784 0.03800
H 	H 	0.58014 0.83759 0.61390 0.05300
H 	H 	0.45585 0.78132 0.45229 0.04800
H 	H 	0.20674 0.43247 0.40094 0.04700
H 	H 	0.27067 0.53287 0.42275 0.04300
H 	H 	0.40254 0.54435 0.55310 0.04200
H 	H 	0.33834 0.44428 0.53167 0.04900
H 	H 	0.26577 0.78965 0.48508 0.04400
H 	H 	0.67231 0.82301 0.54195 0.03900
H 	H 	0.74086 0.85067 0.52251 0.04300
Zn	Zn	0.12186 0.11099 0.97243 1.18900
Zn	Zn	0.03219 0.05613 0.85480 1.19900
O 	O 	0.00332 0.02236 0.77719 -0.43700
C 	C 	0.17739 0.07226 0.94085 0.31700
C 	C 	0.13260 0.18091 0.91758 0.32800
O 	O 	0.18317 0.10538 0.98243 -0.45000
O 	O 	0.12846 0.03511 0.89586 -0.34000
O 	O 	0.04838 0.07434 0.92827 -0.77300
O 	O 	0.09175 0.13268 0.87131 -0.44600
O 	O 	0.14327 0.18219 0.96291 -0.44900
C 	C 	0.88102 0.81395 0.91723 0.33400
O 	O 	0.93127 0.02178 0.89036 -0.45200
Zn	Zn	0.98948 0.04583 0.00326 1.19100
C 	C 	0.92833 0.06056 0.91970 0.32500
O 	O 	0.02521 0.05823 0.07568 -0.46100
O 	O 	0.95330 0.07867 0.97090 -0.49500
O 	O 	0.02117 0.01304 0.98198 -0.87300
H 	H 	0.06106 0.03354 0.00877 0.15500
Zn	Zn	0.12586 0.13672 0.49205 1.19000
Zn	Zn	0.03796 0.07670 0.36778 1.20200
O 	O 	0.01689 0.05153 0.29236 -0.43400
C 	C 	0.21033 0.13890 0.48565 0.30800
C 	C 	0.12782 0.20670 0.43556 0.32800
O 	O 	0.19943 0.15388 0.51981 -0.45000
O 	O 	0.17035 0.10527 0.43471 -0.30700
O 	O 	0.05337 0.08479 0.43939 -0.77200
O 	O 	0.08492 0.16120 0.38828 -0.43300
O 	O 	0.13666 0.20592 0.47985 -0.44200
C 	C 	0.91255 0.80646 0.41701 0.33200
O 	O 	0.93501 0.00838 0.39453 -0.46900
Zn	Zn	0.99224 0.03069 0.50437 1.19600
C 	C 	0.93048 0.04585 0.42312 0.33300
O 	O 	0.02161 0.03514 0.57372 -0.46100
O 	O 	0.95481 0.06336 0.47403 -0.49500
O 	O 	0.03393 0.01184 0.48781 -0.88900
H 	H 	0.07370 0.03727 0.51657 0.15900
C 	C 	0.04570 0.04132 0.71526 -0.00100
C 	C 	0.05117 0.04356 0.67458 -0.00100
H 	H 	0.06123 0.08169 0.74796 0.05100
H 	H 	0.07059 0.08564 0.67611 0.04300
C 	C 	0.03331 0.06630 0.16984 -0.00600
C 	C 	0.03451 0.06725 0.21441 -0.00300
H 	H 	0.03139 0.09969 0.15923 0.04500
H 	H 	0.03453 0.10194 0.23819 0.05000
C 	C 	0.15972 0.26308 0.43877 -0.09300
C 	C 	0.18783 0.26803 0.41487 0.08600
C 	C 	0.22214 0.32322 0.42279 -0.07400
C 	C 	0.22914 0.37370 0.45466 0.01000
C 	C 	0.20041 0.36864 0.47780 0.02500
C 	C 	0.16573 0.31348 0.46954 0.00100
H 	H 	0.24428 0.32704 0.40502 0.06000
H 	H 	0.14407 0.30990 0.48780 0.05600
I 	I 	0.18269 0.19398 0.36992 -0.11100
I 	I 	0.20969 0.44376 0.52656 -0.10600
I 	I 	0.76457 0.77953 0.36684 -0.12200
C 	C 	0.16439 0.23547 0.91812 -0.09900
C 	C 	0.22207 0.27182 0.95413 0.08900
C 	C 	0.25053 0.32667 0.95829 -0.07700
C 	C 	0.22254 0.34491 0.92551 0.01000
C 	C 	0.16555 0.30663 0.88656 0.02200
C 	C 	0.13672 0.25251 0.88349 -0.00200
H 	H 	0.29459 0.35532 0.98722 0.06100
H 	H 	0.09266 0.22403 0.85461 0.04800
I 	I 	0.26813 0.24366 0.99945 -0.11900
I 	I 	0.12234 0.32824 0.83051 -0.10700
C 	C 	0.89004 0.05913 0.39670 -0.11900
C 	C 	0.90718 0.11772 0.40926 0.09100
C 	C 	0.87059 0.13467 0.40276 -0.08000
C 	C 	0.81649 0.09309 0.38260 0.01000
C 	C 	0.79739 0.03299 0.36247 0.02000
C 	C 	0.83435 0.01633 0.36973 -0.00500
H 	H 	0.88499 0.18067 0.41613 0.06100
I 	I 	0.98886 0.18178 0.44021 -0.18100
C 	C 	0.88646 0.75575 0.42348 -0.10200
C 	C 	0.85443 0.69765 0.38182 0.09500
C 	C 	0.82829 0.65055 0.38868 -0.07800
C 	C 	0.83512 0.66065 0.43723 0.01000
C 	C 	0.86806 0.71866 0.47917 0.02500
C 	C 	0.89287 0.76576 0.47182 -0.00000
H 	H 	0.80371 0.60591 0.35667 0.06100
I 	I 	0.84869 0.67908 0.31011 -0.14100
I 	I 	0.88329 0.73658 0.55492 -0.13800
C 	C 	0.36795 0.20028 0.51837 0.00800
C 	C 	0.33042 0.13995 0.49714 0.02700
C 	C 	0.28073 0.12090 0.49098 -0.00500
C 	C 	0.26706 0.16113 0.50380 -0.09000
C 	C 	0.30579 0.22184 0.52747 0.08500
C 	C 	0.35610 0.24100 0.53495 -0.07500
H 	H 	0.25192 0.07452 0.47456 0.05400
H 	H 	0.38526 0.28751 0.55191 0.06000
I 	I 	0.34607 0.07633 0.47078 -0.11800
I 	I 	0.28892 0.28568 0.55007 -0.12000
C 	C 	0.82548 0.12119 0.88542 0.01300
C 	C 	0.88244 0.16219 0.91670 0.01900
C 	C 	0.91683 0.14254 0.92089 0.00200
C 	C 	0.89484 0.08220 0.89495 -0.11800
C 	C 	0.83786 0.04303 0.85596 0.09700
C 	C 	0.80329 0.06237 0.85258 -0.08400
H 	H 	0.96082 0.17357 0.94823 0.03500
H 	H 	0.75928 0.03131 0.82584 0.06500
I 	I 	0.91780 0.25330 0.96165 -0.12500
C 	C 	0.85126 0.76069 0.91884 -0.10100
C 	C 	0.86828 0.72158 0.92052 0.09100
C 	C 	0.84306 0.67473 0.92804 -0.08000
C 	C 	0.80135 0.66689 0.93453 0.01400
C 	C 	0.78366 0.70544 0.93180 0.02200
C 	C 	0.80748 0.75085 0.92224 0.00100
H 	H 	0.85616 0.64461 0.92928 0.06100
H 	H 	0.79336 0.78000 0.91952 0.05100
I 	I 	0.92982 0.73022 0.90895 -0.12500
I 	I 	0.72439 0.69934 0.94627 -0.11800
C 	C 	0.32822 0.11597 0.96223 0.00800
C 	C 	0.31730 0.09986 0.99662 0.03200
C 	C 	0.26602 0.08105 0.98677 0.01100
C 	C 	0.22603 0.07994 0.94380 -0.09600
C 	C 	0.23628 0.09355 0.90799 0.09000
C 	C 	0.28684 0.11024 0.91691 -0.07100
H 	H 	0.25792 0.06935 0.01369 0.03800
H 	H 	0.29515 0.12218 0.89019 0.06300
I 	I 	0.37834 0.10613 0.06493 -0.13300
C 	C 	0.34428 0.82998 0.01299 -0.00700
C 	C 	0.42849 0.83635 0.06754 -0.06600
C 	C 	0.25058 0.80706 0.98125 -0.02300
C 	C 	0.64534 0.84980 0.93912 -0.03200
H 	H 	0.50269 0.82660 0.92868 0.03700
H 	H 	0.17048 0.79144 0.94836 0.05200
H 	H 	0.52544 0.81321 0.43457 0.03600
Zn	Zn	0.99930 0.99648 0.91129 1.21400
Zn	Zn	0.01488 0.00292 0.41901 1.22100
C 	C 	0.03287 0.02140 0.13820 -0.06500
H 	H 	0.70330 0.80913 0.40861 0.06100
H 	H 	0.91730 0.81036 0.50383 0.04400
I 	I 	0.17942 0.09643 0.84371 -0.11100
C 	C 	0.28122 0.83543 0.49567 -0.03700
H 	H 	0.20279 0.82284 0.46803 0.04900
C 	C 	0.02362 0.01556 0.08699 0.31200
C 	C 	0.02446 0.99277 0.58296 0.31400
C 	C 	0.03403 0.02266 0.27358 0.30300
C 	C 	0.02005 0.98720 0.71366 -0.07400
C 	C 	0.02974 0.99153 0.63099 -0.07500
C 	C 	0.03529 0.02338 0.22797 -0.07000
C 	C 	0.01210 0.98486 0.75539 0.31000
C 	C 	0.71193 0.86343 0.50950 -0.04000
C 	C 	0.63513 0.86383 0.50388 0.01100
C 	C 	0.60933 0.86333 0.99040 0.03200
C 	C 	0.37303 0.85441 0.52350 -0.00300
O 	O 	0.85456 0.82167 0.87709 -0.45700
H 	H 	0.30410 0.97247 0.03210 0.05700
H 	H 	0.33604 0.99965 0.53483 0.05200
O 	O 	0.88252 0.81152 0.37638 -0.44500
I 	I 	0.22828 0.93418 0.58159 -0.11500
H 	H 	0.12504 0.92911 0.87379 0.04700
I 	I 	0.22112 0.91722 0.89139 -0.10500
C 	C 	0.39348 0.85537 0.06267 -0.02500
C 	C 	0.23281 0.88392 0.98768 0.03400
C 	C 	0.21384 0.82438 0.97076 -0.04500
C 	C 	0.30653 0.84906 0.00782 -0.00000
C 	C 	0.32578 0.90897 0.02696 -0.02800
C 	C 	0.28911 0.92634 0.01776 -0.05200
C 	C 	0.69341 0.90594 0.97678 0.01800
C 	C 	0.69851 0.94151 0.02031 -0.04000
C 	C 	0.65657 0.92035 0.02703 -0.05200
H 	H 	0.40425 0.88925 0.09760 0.03800
H 	H 	0.46608 0.85574 0.10609 0.05200
H 	H 	0.36884 0.94188 0.04773 0.04300
H 	H 	0.73555 0.98486 0.04963 0.04200
H 	H 	0.66127 0.94773 0.06127 0.04400
C 	C 	0.42272 0.88116 0.57312 -0.02300
C 	C 	0.45641 0.86003 0.57938 -0.06800
C 	C 	0.26508 0.91348 0.50006 0.01900
C 	C 	0.24566 0.85434 0.48657 -0.03500
C 	C 	0.33632 0.87527 0.51732 0.01200
C 	C 	0.35602 0.93476 0.53206 -0.03600
C 	C 	0.32062 0.95383 0.52386 -0.03700
C 	C 	0.71205 0.89321 0.47979 0.01800
C 	C 	0.67391 0.90884 0.46259 -0.03600
C 	C 	0.63638 0.89534 0.47554 -0.03800
H 	H 	0.43479 0.91766 0.60703 0.03800
H 	H 	0.49423 0.88031 0.61802 0.05300
H 	H 	0.39845 0.96596 0.54891 0.04300
H 	H 	0.67310 0.93106 0.43895 0.05000
H 	H 	0.60793 0.90874 0.46301 0.04200
O 	O 	0.01865 0.94887 0.77365 -0.46200
O 	O 	0.02158 0.89144 0.85740 -0.48200
Zn	Zn	0.88137 0.89704 0.87394 1.18000
Zn	Zn	0.97933 0.93533 0.97228 1.19000
C 	C 	0.86160 0.94687 0.94491 0.32900
O 	O 	0.93304 0.85404 0.95711 -0.43700
O 	O 	0.84104 0.92092 0.89425 -0.46600
O 	O 	0.91209 0.96459 0.98060 -0.47300
O 	O 	0.95023 0.91882 0.89533 -0.79200
O 	O 	0.01214 0.96677 0.05255 -0.41000
Zn	Zn	0.99330 0.92444 0.81613 1.18000
C 	C 	0.06241 0.92676 0.90781 0.33500
H 	H 	0.94002 0.96694 0.81544 0.16300
O 	O 	0.05357 0.99637 0.29744 -0.46800
O 	O 	0.05583 0.92148 0.36681 -0.48500
Zn	Zn	0.90221 0.88526 0.36918 1.17800
Zn	Zn	0.00109 0.93085 0.47355 1.19600
C 	C 	0.86535 0.92071 0.42759 0.32600
O 	O 	0.96530 0.84688 0.45297 -0.46300
O 	O 	0.85136 0.89789 0.37887 -0.46500
O 	O 	0.91461 0.93963 0.46768 -0.47300
O 	O 	0.97502 0.92093 0.39878 -0.79900
O 	O 	0.02336 0.95202 0.55041 -0.42400
Zn	Zn	0.02221 0.95250 0.32733 1.18900
C 	C 	0.09556 0.95738 0.41739 0.32000
H 	H 	0.95570 0.97440 0.32380 0.14900
C 	C 	0.00170 0.93550 0.67188 0.01000
C 	C 	0.00639 0.93762 0.63062 0.01000
H 	H 	0.98231 0.89351 0.67051 0.02400
H 	H 	0.98997 0.89716 0.59745 0.03300
C 	C 	0.03603 0.97898 0.15316 -0.00400
C 	C 	0.03701 0.97984 0.19762 -0.00400
H 	H 	0.03650 0.94454 0.12972 0.05500
H 	H 	0.03806 0.94595 0.20785 0.03900
C 	C 	0.74791 0.90178 0.46166 0.01000
C 	C 	0.79401 0.95799 0.48369 0.02400
C 	C 	0.83093 0.96377 0.47053 -0.00200
C 	C 	0.82312 0.91392 0.43659 -0.10600
C 	C 	0.77658 0.85778 0.41408 0.09100
C 	C 	0.73875 0.85235 0.42571 -0.07800
C 	C 	0.14359 0.95360 0.44215 -0.11200
C 	C 	0.17010 0.95023 0.41734 0.09000
C 	C 	0.21054 0.93842 0.43742 -0.07900
C 	C 	0.22605 0.93137 0.48281 0.01200
C 	C 	0.20227 0.93860 0.50967 0.01900
C 	C 	0.16105 0.94948 0.48913 0.00100
H 	H 	0.22982 0.93441 0.41751 0.06800
H 	H 	0.14173 0.95339 0.50903 0.02600
I 	I 	0.15373 0.96780 0.35245 -0.13700
C 	C 	0.82481 0.94530 0.96069 -0.11000
C 	C 	0.82087 0.92154 0.99444 0.10100
C 	C 	0.77904 0.91131 0.00098 -0.09800
C 	C 	0.74089 0.92413 0.97439 0.02000
C 	C 	0.74644 0.95068 0.94317 0.01800
C 	C 	0.78844 0.96139 0.93670 0.00100
H 	H 	0.77523 0.89173 0.02571 0.06200
H 	H 	0.79189 0.98077 0.91175 0.04900
I 	I 	0.87556 0.89855 0.03522 -0.13900
I 	I 	0.69147 0.97408 0.90456 -0.12100
C 	C 	0.10801 0.91916 0.93064 -0.11200
C 	C 	0.12364 0.91014 0.97525 0.09700
C 	C 	0.16609 0.90100 0.99502 -0.06900
C 	C 	0.19338 0.90125 0.97089 0.00500
C 	C 	0.17923 0.91287 0.92771 0.02400
C 	C 	0.13640 0.92118 0.90758 0.00200
H 	H 	0.17711 0.89245 0.02845 0.05700
I 	I 	0.08243 0.90748 0.01208 -0.19000
I 	I 	0.80337 0.95716 0.79837 -0.19600
H 	H 	0.86637 0.00700 0.48763 0.03800
I 	I 	0.81063 0.03454 0.53894 -0.12700
I 	I 	0.71332 0.96665 0.32105 -0.12100
H 	H 	0.82035 0.97058 0.35727 0.04800
O 	O 	0.97836 0.97958 0.84021 -0.88200
O 	O 	0.06907 0.97627 0.93368 -0.44300
O 	O 	0.99555 0.99388 0.34989 -0.88300
O 	O 	0.09546 0.00094 0.44426 -0.44000
