data_crystal

_cell_length_a 30.20839
_cell_length_b 26.71296
_cell_length_c 19.51965
_cell_angle_alpha 92.66338
_cell_angle_beta  85.31482
_cell_angle_gamma 124.23500

_symmetry_space_group_name_	'P 1'
_symmetry_space_group_name_H-M	'P 1'

loop_
_symmetry_equiv_pos_as_xyz
  x,y,z

loop_
_atom_site_label
_atom_site_type_symbol
_atom_site_fract_x
_atom_site_fract_y
_atom_site_fract_z
_atom_site_charge
C 	C 	0.01932 0.01530 0.15353 0.02500
C 	C 	0.02593 0.06601 0.12438 -0.02400
C 	C 	0.06676 0.02710 0.17949 -0.05500
S 	S 	0.08872 0.12449 0.13245 -0.00700
H 	H 	0.02054 0.14763 0.04630 0.04500
C 	C 	0.11044 0.08778 0.17064 -0.00000
H 	H 	0.06948 0.99281 0.20231 0.04300
C 	C 	0.27404 0.14719 0.12685 0.01200
C 	C 	0.23258 0.08923 0.10664 -0.04200
C 	C 	0.17908 0.06865 0.12336 -0.04000
C 	C 	0.16655 0.10602 0.16048 0.01100
C 	C 	0.20813 0.16355 0.18189 -0.04000
C 	C 	0.26166 0.18422 0.16474 -0.04300
H 	H 	0.24182 0.06061 0.07678 0.04100
H 	H 	0.14744 0.02454 0.10546 0.04100
H 	H 	0.19897 0.19276 0.21045 0.04000
H 	H 	0.29348 0.22925 0.18012 0.04000
C 	C 	0.01569 0.96174 0.47759 -0.03300
C 	C 	0.04761 0.02085 0.50278 0.02800
C 	C 	0.05273 0.06860 0.46739 -0.02500
C 	C 	0.09000 0.03998 0.54595 -0.06300
S 	S 	0.10964 0.13227 0.48773 -0.01400
H 	H 	0.03240 0.14281 0.40126 0.04600
C 	C 	0.12825 0.10291 0.54413 0.00000
H 	H 	0.09703 0.00867 0.56773 0.04400
C 	C 	0.28974 0.16931 0.58263 0.00700
C 	C 	0.24728 0.12599 0.62653 -0.04400
C 	C 	0.19480 0.10779 0.61743 -0.04300
C 	C 	0.18428 0.13177 0.56317 0.00800
C 	C 	0.22765 0.18015 0.52441 -0.04200
C 	C 	0.28023 0.19953 0.53512 -0.04300
H 	H 	0.25459 0.10428 0.66542 0.03400
H 	H 	0.16216 0.07338 0.65082 0.03500
H 	H 	0.22080 0.20115 0.48424 0.03900
H 	H 	0.31322 0.23484 0.50287 0.03800
C 	C 	0.49642 0.25823 0.03925 0.29700
O 	O 	0.52787 0.31629 0.04045 -0.37500
O 	O 	0.51901 0.23457 0.00609 -0.34000
C 	C 	0.50574 0.23054 0.56069 0.28800
O 	O 	0.54345 0.28473 0.57756 -0.38100
O 	O 	0.52333 0.21071 0.51158 -0.35100
C 	C 	0.34257 0.17788 0.58074 0.00300
C 	C 	0.36069 0.15730 0.52411 0.00700
C 	C 	0.41404 0.17453 0.51878 -0.01200
C 	C 	0.44834 0.20784 0.57135 -0.10000
C 	C 	0.42769 0.22070 0.63247 0.07100
C 	C 	0.37565 0.20790 0.63529 -0.08300
H 	H 	0.42877 0.16167 0.47353 0.04500
H 	H 	0.36075 0.22089 0.68026 0.04600
C 	C 	0.32290 0.11371 0.47117 -0.09600
C 	C 	0.45964 0.24557 0.69587 -0.11600
C 	C 	0.30649 0.04865 0.48229 -0.02400
H 	H 	0.34269 0.04771 0.48431 0.03200
H 	H 	0.28449 0.02058 0.43771 0.02500
C 	C 	0.48556 0.31403 0.70337 -0.01300
H 	H 	0.45400 0.32221 0.71965 0.02400
H 	H 	0.50501 0.33737 0.65343 0.04200
H 	H 	0.28625 0.11352 0.46934 0.05100
H 	H 	0.49046 0.23512 0.69507 0.06000
C 	C 	0.27006 0.02002 0.54758 -0.15200
C 	C 	0.52776 0.34185 0.75654 -0.16300
H 	H 	0.23368 0.02066 0.54647 0.05800
H 	H 	0.25724 0.97222 0.55107 0.05100
H 	H 	0.29176 0.04446 0.59387 0.06000
H 	H 	0.34388 0.12889 0.41931 0.04300
H 	H 	0.51039 0.31744 0.80623 0.06600
H 	H 	0.54246 0.39008 0.76498 0.05700
H 	H 	0.56239 0.33965 0.73801 0.07300
H 	H 	0.43239 0.22240 0.74229 0.04800
C 	C 	0.43868 0.22476 0.05854 -0.10500
C 	C 	0.40180 0.21727 0.01193 0.09300
C 	C 	0.34786 0.19074 0.03513 -0.05700
C 	C 	0.33023 0.17110 0.10334 -0.00200
C 	C 	0.36648 0.17539 0.14864 0.00700
C 	C 	0.42056 0.20275 0.12581 -0.00800
H 	H 	0.31947 0.18535 0.99993 0.02600
H 	H 	0.44869 0.20690 0.16060 0.03400
C 	C 	0.41860 0.23491 0.93665 -0.14900
C 	C 	0.34720 0.14629 0.21917 -0.09500
C 	C 	0.41827 0.29004 0.91824 0.00300
H 	H 	0.37935 0.28325 0.93611 0.01600
H 	H 	0.42234 0.29444 0.86136 0.01700
C 	C 	0.32608 0.07893 0.21445 -0.02400
H 	H 	0.35780 0.07379 0.18967 0.03500
H 	H 	0.29085 0.05461 0.18259 0.03400
H 	H 	0.45831 0.24324 0.92059 0.06100
H 	H 	0.31556 0.15162 0.24353 0.04900
C 	C 	0.46404 0.34900 0.94826 -0.19900
C 	C 	0.30932 0.04955 0.28536 -0.15700
H 	H 	0.50338 0.35682 0.93073 0.06400
H 	H 	0.46337 0.38746 0.93055 0.05900
H 	H 	0.45935 0.34770 0.00529 0.09600
H 	H 	0.38959 0.19598 0.90491 0.05200
H 	H 	0.34470 0.07025 0.31673 0.05700
H 	H 	0.29216 0.00042 0.27987 0.05700
H 	H 	0.27843 0.05508 0.31219 0.05600
H 	H 	0.38087 0.16963 0.25377 0.04600
N 	N 	0.59171 0.34500 0.15758 -0.20500
H 	H 	0.60873 0.37123 0.11313 0.07300
H 	H 	0.55639 0.33859 0.18056 0.08900
H 	H 	0.64588 0.46280 0.24461 0.06200
H 	H 	0.69542 0.44497 0.23071 0.06600
Co	Co	0.59346 0.32192 0.98697 1.16900
O 	O 	0.58851 0.31865 0.87756 -0.37700
Co	Co	0.60336 0.29204 0.50827 1.18400
O 	O 	0.60157 0.31804 0.40736 -0.36900
C 	C 	0.63251 0.30459 0.37403 0.28100
C 	C 	0.59615 0.25231 0.74850 -0.02500
C 	C 	0.60846 0.24412 0.68022 0.01200
H 	H 	0.57726 0.20774 0.65057 0.02500
H 	H 	0.55536 0.22327 0.77054 0.03800
C 	C 	0.61839 0.32678 0.18999 0.11700
C 	C 	0.60513 0.31119 0.25986 -0.06400
H 	H 	0.56984 0.30701 0.28502 0.05700
C 	C 	0.68630 0.47605 0.25733 -0.16200
C 	C 	0.02864 0.05825 0.40507 0.02600
C 	C 	0.62353 0.30616 0.85990 0.29700
H 	H 	0.65057 0.43195 0.35578 0.03900
O 	O 	0.63654 0.28984 0.91158 -0.47000
O 	O 	0.64098 0.30593 0.03840 -0.44800
O 	O 	0.64106 0.27194 0.41062 -0.45400
O 	O 	0.64103 0.25266 0.53200 -0.47400
C 	C 	0.63646 0.29703 0.78856 -0.06500
C 	C 	0.64001 0.30697 0.29874 -0.05700
O 	O 	0.65029 0.41036 0.98915 -0.44000
C 	C 	0.68791 0.47379 0.33511 -0.01700
H 	H 	0.67316 0.15598 0.16253 0.06400
C 	C 	0.67631 0.34090 0.08217 0.31200
O 	O 	0.66938 0.37059 0.53020 -0.42700
C 	C 	0.67325 0.26822 0.58006 0.33400
C 	C 	0.66093 0.28206 0.65037 -0.15200
C 	C 	0.66377 0.33080 0.15702 -0.13000
H 	H 	0.64553 0.47270 0.90485 0.06400
H 	H 	0.65744 0.54509 0.91036 0.04900
H 	H 	0.71632 0.52276 0.23833 0.05800
C 	C 	0.68593 0.31332 0.26645 -0.03700
H 	H 	0.68848 0.51305 0.35808 0.03000
H 	H 	0.68061 0.22198 0.12856 0.07600
Co	Co	0.70932 0.33484 0.95171 1.17600
O 	O 	0.71308 0.25756 0.95758 -0.36900
C 	C 	0.70062 0.43895 0.96246 0.34400
O 	O 	0.72455 0.36178 0.05624 -0.37100
O 	O 	0.71874 0.41116 0.92348 -0.54200
Co	Co	0.71198 0.29477 0.44830 1.17900
O 	O 	0.70697 0.21313 0.41997 -0.35400
C 	C 	0.71008 0.40343 0.48475 0.32400
C 	C 	0.70076 0.33086 0.68934 0.13500
C 	C 	0.68897 0.33491 0.75958 -0.07500
H 	H 	0.71989 0.37012 0.79046 0.03200
C 	C 	0.69803 0.32569 0.19635 0.01600
H 	H 	0.71337 0.31088 0.29616 0.02300
C 	C 	0.67781 0.52139 0.89805 -0.13700
C 	C 	0.69917 0.53407 0.82230 -0.00700
H 	H 	0.66694 0.52741 0.79135 0.02000
H 	H 	0.70796 0.17773 0.03754 0.05500
C 	C 	0.70280 0.20261 0.14297 -0.16200
C 	C 	0.72215 0.54384 0.94692 0.10800
H 	H 	0.68419 0.44415 0.80908 0.06600
H 	H 	0.74885 0.43547 0.88716 0.16100
O 	O 	0.72159 0.28830 0.55500 -0.37500
O 	O 	0.73815 0.38245 0.45551 -0.52300
H 	H 	0.73425 0.33139 0.17250 0.03300
C 	C 	0.73568 0.46985 0.48544 -0.12100
C 	C 	0.73673 0.47457 0.35429 -0.12200
H 	H 	0.72689 0.42791 0.35202 0.05100
H 	H 	0.74426 0.19118 0.53100 0.04500
C 	C 	0.73573 0.50517 0.97117 -0.17200
C 	C 	0.75032 0.60455 0.96854 -0.13700
H 	H 	0.73968 0.63418 0.95100 0.05500
H 	H 	0.73391 0.58193 0.81553 0.02200
C 	C 	0.71536 0.49182 0.79416 -0.16400
C 	C 	0.73513 0.20049 0.08006 -0.01700
H 	H 	0.74992 0.17235 0.09238 0.03100
H 	H 	0.72949 0.23013 0.18456 0.06100
H 	H 	0.76708 0.20581 0.65167 0.06100
H 	H 	0.75160 0.65594 0.12835 0.03500
H 	H 	0.76553 0.67299 0.50244 0.03700
O 	O 	0.77272 0.33463 0.89968 -0.38900
C 	C 	0.75702 0.28116 0.91924 0.29300
O 	O 	0.77164 0.29829 0.38175 -0.39000
C 	C 	0.75091 0.24091 0.38128 0.29300
N 	N 	0.74800 0.37649 0.65881 -0.20500
H 	H 	0.75213 0.38473 0.60623 0.09900
C 	C 	0.74558 0.49997 0.54901 -0.00400
C 	C 	0.75489 0.50406 0.42376 0.06900
H 	H 	0.72994 0.47390 0.59624 0.03600
H 	H 	0.74865 0.57332 0.65301 0.04200
H 	H 	0.77083 0.50046 0.31524 0.04900
H 	H 	0.75237 0.17901 0.27058 0.03000
H 	H 	0.76290 0.09910 0.21491 0.04700
C 	C 	0.77933 0.52891 0.01214 0.04100
H 	H 	0.71980 0.49401 0.73723 0.05600
H 	H 	0.75442 0.50600 0.81327 0.05500
H 	H 	0.77066 0.29576 0.05378 0.06600
H 	H 	0.77543 0.41213 0.43357 0.16200
H 	H 	0.80007 0.54321 0.16300 0.03100
H 	H 	0.77884 0.40883 0.68877 0.07900
C 	C 	0.77985 0.18495 0.30760 -0.01000
C 	C 	0.78417 0.21659 0.36879 -0.10100
C 	C 	0.78651 0.21019 0.54169 -0.01600
H 	H 	0.79181 0.17224 0.54198 0.03000
C 	C 	0.79045 0.62656 0.01496 0.05700
H 	H 	0.79017 0.49943 0.02962 0.02300
H 	H 	0.80132 0.61135 0.17311 0.03200
C 	C 	0.79517 0.26404 0.92602 -0.10400
C 	C 	0.78303 0.26408 0.05783 -0.09600
C 	C 	0.78839 0.69458 0.10528 -0.02400
C 	C 	0.77717 0.56351 0.55234 0.00200
C 	C 	0.78716 0.56747 0.42726 -0.08500
C 	C 	0.79707 0.23938 0.61295 -0.16200
H 	H 	0.79387 0.27884 0.61428 0.07300
C 	C 	0.80652 0.58911 0.03510 -0.02400
H 	H 	0.80554 0.25545 0.81645 0.03100
H 	H 	0.81654 0.10326 0.92159 0.03300
C 	C 	0.81305 0.68739 0.04511 -0.02100
H 	H 	0.79372 0.75607 0.18464 0.04100
H 	H 	0.80994 0.05122 0.36141 0.04000
C 	C 	0.79873 0.59740 0.49062 0.00500
H 	H 	0.80208 0.59376 0.38018 0.04700
C 	C 	0.78765 0.59414 0.62231 -0.09500
C 	C 	0.81076 0.16088 0.29363 0.00700
C 	C 	0.80602 0.12854 0.22573 -0.09700
C 	C 	0.82621 0.59341 0.15865 -0.02800
C 	C 	0.81602 0.25072 0.86647 -0.01000
C 	C 	0.81064 0.26017 0.99132 0.05800
C 	C 	0.01657 0.09806 0.37993 -0.06400
C 	C 	0.81212 0.75129 0.13701 -0.05200
C 	C 	0.80878 0.69669 0.49575 -0.04200
H 	H 	0.80368 0.64296 0.61949 0.04900
C 	C 	0.82032 0.22477 0.41714 0.07400
H 	H 	0.82449 0.20546 0.16514 0.02800
H 	H 	0.82515 0.14705 0.11668 0.03300
H 	H 	0.81930 0.09744 0.22715 0.05300
H 	H 	0.81647 0.29152 0.48204 0.05600
H 	H 	0.81194 0.28336 0.09884 0.04800
H 	H 	0.82207 0.78470 0.49553 0.03800
H 	H 	0.80986 0.53769 0.66583 0.02500
C 	C 	0.82460 0.25611 0.48559 -0.11700
C 	C 	0.83645 0.17303 0.16563 -0.02100
H 	H 	0.83777 0.25460 0.62700 0.05500
C 	C 	0.85028 0.61141 0.08446 -0.08300
H 	H 	0.85111 0.60367 0.26224 0.05300
C 	C 	0.84890 0.22931 0.87112 0.00200
C 	C 	0.84723 0.24416 0.99492 -0.11200
H 	H 	0.83913 0.19295 0.76868 0.04200
H 	H 	0.84308 0.89475 0.11434 0.04800
C 	C 	0.85523 0.12659 0.94345 -0.03800
H 	H 	0.84611 0.04403 0.96999 0.03800
C 	C 	0.85259 0.07956 0.34724 -0.04200
C 	C 	0.83262 0.66417 0.49118 0.00500
C 	C 	0.84076 0.75987 0.49154 -0.04300
C 	C 	0.82542 0.58640 0.66187 -0.02300
H 	H 	0.82649 0.60369 0.71504 0.02300
C 	C 	0.84642 0.16852 0.34234 0.00400
C 	C 	0.85102 0.20056 0.40322 -0.08300
C 	C 	0.86991 0.61789 0.20932 -0.15600
C 	C 	0.86291 0.22398 0.93659 0.01100
H 	H 	0.85992 0.24241 0.04444 0.06700
H 	H 	0.86362 0.00811 0.36057 0.04100
H 	H 	0.87339 0.59117 0.07003 0.04500
C 	C 	0.87118 0.21597 0.80559 -0.09400
C 	C 	0.87151 0.09299 0.97231 -0.07100
C 	C 	0.86032 0.80128 0.10836 0.02200
C 	C 	0.85979 0.73798 0.01454 0.00400
H 	H 	0.86664 0.28028 0.50082 0.05000
H 	H 	0.87971 0.66122 0.08076 0.04900
H 	H 	0.88261 0.18395 0.81390 0.04800
C 	C 	0.88720 0.19006 0.94654 0.00300
H 	H 	0.87850 0.73299 0.96735 0.00700
C 	C 	0.87734 0.14096 0.33209 0.00800
C 	C 	0.88309 0.05505 0.34631 -0.03800
H 	H 	0.87791 0.20568 0.44070 0.04900
H 	H 	0.89498 0.59984 0.19701 0.05700
S 	S 	0.88796 0.02033 0.08305 -0.00300
C 	C 	0.87796 0.90369 0.13825 -0.05700
C 	C 	0.88345 0.79473 0.04613 -0.06000
H 	H 	0.89580 0.66816 0.20750 0.05800
C 	C 	0.89729 0.20837 0.16838 -0.15900
C 	C 	0.88819 0.85917 0.14569 -0.00400
H 	H 	0.91052 0.87208 0.38004 0.04800
C 	C 	0.89673 0.79089 0.48246 0.00900
C 	C 	0.88851 0.69512 0.48044 -0.04300
C 	C 	0.88263 0.62093 0.62887 -0.15600
H 	H 	0.88364 0.60181 0.57749 0.05900
H 	H 	0.90838 0.30664 0.76347 0.02900
C 	C 	0.91942 0.12247 0.00613 0.03100
H 	H 	0.89880 0.66971 0.62380 0.05800
H 	H 	0.91023 0.17692 0.17019 0.06500
H 	H 	0.91710 0.23698 0.12182 0.06100
H 	H 	0.91043 0.23878 0.21377 0.06200
C 	C 	0.91927 0.27401 0.77155 -0.02500
C 	C 	0.93731 0.21961 0.97471 -0.07100
H 	H 	0.92018 0.83335 0.02293 0.04900
H 	H 	0.90708 0.67021 0.47447 0.03400
H 	H 	0.92960 0.26216 0.72013 0.02500
C 	C 	0.92266 0.96307 0.15253 0.01900
C 	C 	0.93305 0.08666 0.04448 -0.00300
C 	C 	0.92050 0.75827 0.47663 -0.04300
H 	H 	0.90871 0.61675 0.66172 0.05200
C 	C 	0.92978 0.01684 0.13018 -0.01900
C 	C 	0.93276 0.17750 0.31506 -0.04400
C 	C 	0.93886 0.09189 0.33027 0.00900
C 	C 	0.93769 0.89033 0.42105 -0.06200
C 	C 	0.93021 0.85730 0.47948 0.00000
S 	S 	0.94959 0.99546 0.33529 -0.00900
C 	C 	0.95307 0.18615 0.00522 -0.02100
H 	H 	0.96229 0.26860 0.97743 0.03300
H 	H 	0.96161 0.32192 0.86275 0.05800
S 	S 	0.95167 0.89394 0.16640 -0.00900
C 	C 	0.96311 0.15274 0.31245 -0.03700
H 	H 	0.95253 0.22538 0.30543 0.03700
C 	C 	0.96879 0.30436 0.81341 -0.15100
H 	H 	0.00587 0.18142 0.29905 0.03600
C 	C 	0.96767 0.96449 0.17022 -0.02100
C 	C 	0.97270 0.06893 0.33850 0.00800
H 	H 	0.96366 0.78180 0.46837 0.03800
H 	H 	0.97926 0.27183 0.82398 0.05600
C 	C 	0.98188 0.06892 0.11587 0.02500
C 	C 	0.98350 0.10871 0.06836 -0.05500
H 	H 	0.99010 0.20992 0.03097 0.03500
H 	H 	0.00333 0.34308 0.78393 0.04900
C 	C 	0.98541 0.94968 0.42065 0.02800
C 	C 	0.99453 0.99818 0.38202 -0.02500
S 	S 	0.98255 0.90047 0.52730 -0.01300
