data_crystal

_cell_length_a 18.48382
_cell_length_b 18.47730
_cell_length_c 74.88364
_cell_angle_alpha 90.06861
_cell_angle_beta  89.97127
_cell_angle_gamma 119.76632

_symmetry_space_group_name_	'P 1'
_symmetry_space_group_name_H-M	'P 1'

loop_
_symmetry_equiv_pos_as_xyz
  x,y,z

loop_
_atom_site_label
_atom_site_type_symbol
_atom_site_fract_x
_atom_site_fract_y
_atom_site_fract_z
_atom_site_charge
O 	O 	0.02965 0.14788 0.72706 -0.36200
O 	O 	0.99085 0.85678 0.72691 -0.36900
O 	O 	0.01249 0.88682 0.25937 -0.38000
O 	O 	0.99270 0.99834 0.23906 -0.71500
H 	H 	0.99683 0.00320 0.25217 0.16600
O 	O 	0.99586 0.92594 0.95008 -0.35300
O 	O 	0.99606 0.12270 0.97447 -0.38700
O 	O 	0.06129 0.95874 0.01796 -0.37500
H 	H 	0.01509 0.94276 0.98186 0.15100
O 	O 	0.02753 0.80265 0.19159 -0.30900
C 	C 	0.04898 0.81254 0.79583 0.20200
H 	H 	0.05211 0.74868 0.81964 0.08100
O 	O 	0.05464 0.26680 0.82408 -0.27700
H 	H 	0.06536 0.31877 0.81794 0.15000
H 	H 	0.08398 0.22127 0.85778 0.16000
C 	C 	0.01710 0.54517 0.34325 0.01500
C 	C 	0.04416 0.63588 0.47633 -0.10900
C 	C 	0.03417 0.56628 0.48591 -0.00200
H 	H 	0.05365 0.70553 0.44273 0.15200
O 	O 	0.00055 0.00231 0.74265 -0.71700
H 	H 	0.99601 0.00745 0.72967 0.15400
Ni	Ni	0.03844 0.11312 0.23393 1.11400
C 	C 	0.01253 0.18876 0.94700 -0.11100
C 	C 	0.02854 0.52486 0.65262 -0.09400
H 	H 	0.06716 0.69372 0.51763 0.14600
C 	C 	0.05807 0.89087 0.76757 0.33300
C 	C 	0.04515 0.90879 0.71487 0.30100
O 	O 	0.07525 0.16114 0.76311 -0.37700
Ni	Ni	0.05653 0.94648 0.23500 1.11100
Ni	Ni	0.07133 0.08170 0.98361 1.11800
O 	O 	0.05489 0.12428 0.00731 -0.39200
H 	H 	0.05497 0.04122 0.16664 0.15300
H 	H 	0.05443 0.85789 0.18565 0.17100
C 	C 	0.05135 0.25603 0.93993 0.05400
C 	C 	0.08684 0.80261 0.81116 -0.10900
C 	C 	0.10708 0.24388 0.81609 0.11900
C 	C 	0.08018 0.19219 0.80110 -0.03300
C 	C 	0.05684 0.87400 0.69871 -0.07500
C 	C 	0.07946 0.57951 0.35658 0.04600
C 	C 	0.07487 0.52328 0.48009 0.12400
O 	O 	0.06612 0.45552 0.48942 -0.27100
O 	O 	0.07784 0.64695 0.51987 -0.26800
H 	H 	0.01791 0.17042 0.79596 0.05800
H 	H 	0.01326 0.66946 0.48079 0.07200
O 	O 	0.10065 0.72853 0.45133 -0.28300
C 	C 	0.11201 0.13503 0.77423 0.32800
O 	O 	0.08964 0.99491 0.20949 -0.37800
C 	C 	0.07586 0.98186 0.95174 0.28500
O 	O 	0.08136 0.00975 0.17136 -0.29300
C 	C 	0.09477 0.88115 0.78440 -0.11600
O 	O 	0.14255 0.23441 0.85934 -0.26900
C 	C 	0.07524 0.84692 0.68590 0.04100
C 	C 	0.09231 0.66102 0.46070 0.19500
C 	C 	0.00182 0.57603 0.51805 0.10400
C 	C 	0.97567 0.11485 0.95779 0.34300
H 	H 	0.11243 0.47841 0.49819 0.15600
O 	O 	0.98015 0.10273 0.21075 -0.38300
C 	C 	0.81412 0.43092 0.60055 0.29800
C 	C 	0.61209 0.17183 0.54709 0.33400
C 	C 	0.82405 0.42651 0.54764 0.32900
C 	C 	0.60007 0.15462 0.59488 0.30800
C 	C 	0.58249 0.39366 0.54411 0.33400
C 	C 	0.54352 0.38939 0.59145 0.31100
Ni	Ni	0.74008 0.28684 0.57375 1.11500
Ni	Ni	0.55376 0.26092 0.57032 1.12400
Ni	Ni	0.70937 0.44529 0.57222 1.12200
O 	O 	0.83058 0.38684 0.58882 -0.36100
O 	O 	0.77068 0.46767 0.59588 -0.36500
O 	O 	0.52948 0.33678 0.55518 -0.37400
O 	O 	0.66689 0.17839 0.55908 -0.37500
O 	O 	0.58120 0.22209 0.54737 -0.37700
O 	O 	0.61186 0.45044 0.58372 -0.37400
O 	O 	0.79293 0.34616 0.54985 -0.36400
O 	O 	0.81947 0.47211 0.56058 -0.38100
O 	O 	0.52532 0.31013 0.59128 -0.37600
O 	O 	0.67924 0.21377 0.59564 -0.37200
O 	O 	0.54420 0.16037 0.58443 -0.36700
O 	O 	0.66291 0.43358 0.54744 -0.39500
O 	O 	0.66726 0.32970 0.57632 -0.72100
H 	H 	0.66161 0.32858 0.58942 0.16300
C 	C 	0.45498 0.84577 0.39002 0.30800
C 	C 	0.17895 0.63953 0.43778 0.32700
C 	C 	0.43637 0.82015 0.43715 0.32100
C 	C 	0.17689 0.61742 0.38492 0.29800
C 	C 	0.37075 0.58298 0.44153 0.32300
C 	C 	0.36963 0.53985 0.39108 0.30900
Ni	Ni	0.29769 0.75565 0.41039 1.11400
Ni	Ni	0.24764 0.56127 0.41417 1.12200
Ni	Ni	0.44125 0.69874 0.41122 1.12500
O 	O 	0.37332 0.81226 0.38852 -0.37100
O 	O 	0.48986 0.80021 0.39444 -0.36000
O 	O 	0.29235 0.56245 0.43879 -0.39300
O 	O 	0.23366 0.71755 0.43452 -0.36800
O 	O 	0.16040 0.58295 0.42540 -0.38500
O 	O 	0.42578 0.62072 0.39084 -0.37100
O 	O 	0.39988 0.84175 0.42492 -0.36800
O 	O 	0.46970 0.77369 0.43303 -0.37600
O 	O 	0.31040 0.50745 0.40344 -0.37500
O 	O 	0.18890 0.68083 0.39544 -0.35900
O 	O 	0.19180 0.55768 0.39059 -0.36800
O 	O 	0.42356 0.60667 0.42811 -0.37200
O 	O 	0.32873 0.67353 0.40853 -0.71900
H 	H 	0.32819 0.66939 0.39541 0.15300
C 	C 	0.20325 0.76703 0.65758 0.31200
C 	C 	0.31299 0.53344 0.62804 0.33300
C 	C 	0.10948 0.55053 0.65994 0.32100
C 	C 	0.41709 0.76883 0.62494 0.29800
C 	C 	0.30056 0.54241 0.68491 0.32500
C 	C 	0.45327 0.77134 0.68559 0.31200
Ni	Ni	0.24223 0.64694 0.63518 1.11400
Ni	Ni	0.40035 0.65498 0.65580 1.12100
Ni	Ni	0.26519 0.67793 0.67872 1.12400
O 	O 	0.18268 0.71502 0.64363 -0.35900
O 	O 	0.26194 0.77701 0.66883 -0.38100
O 	O 	0.37708 0.59064 0.67895 -0.38200
O 	O 	0.28269 0.57660 0.62045 -0.36300
O 	O 	0.32880 0.54177 0.64497 -0.39100
O 	O 	0.37723 0.75231 0.69130 -0.36400
O 	O 	0.16113 0.54329 0.64941 -0.38000
O 	O 	0.13959 0.60821 0.67254 -0.36300
O 	O 	0.46824 0.76191 0.66882 -0.38900
O 	O 	0.33802 0.74644 0.62212 -0.36200
O 	O 	0.43932 0.71504 0.63141 -0.36500
O 	O 	0.25399 0.57441 0.68946 -0.38000
O 	O 	0.31133 0.67765 0.65574 -0.70800
H 	H 	0.34407 0.73834 0.65408 0.16200
C 	C 	0.10956 0.17313 0.72381 0.30400
C 	C 	0.86777 0.94165 0.77594 0.33100
C 	C 	0.81787 0.94277 0.72783 0.30900
Ni	Ni	0.96747 0.07874 0.74965 1.11400
Ni	Ni	0.92603 0.88621 0.74485 1.12200
Ni	Ni	0.11526 0.03375 0.74389 1.12300
O 	O 	0.15308 0.15057 0.73425 -0.36900
O 	O 	0.97772 0.86428 0.76646 -0.37500
O 	O 	0.91765 0.02233 0.77411 -0.37800
O 	O 	0.84403 0.89253 0.76192 -0.38400
O 	O 	0.10484 0.98511 0.71936 -0.37500
O 	O 	0.12964 0.07711 0.76938 -0.37400
O 	O 	0.84953 0.01308 0.73737 -0.36100
O 	O 	0.85806 0.90061 0.72542 -0.37700
O 	O 	0.10687 0.92929 0.75398 -0.38900
C 	C 	0.47685 0.72831 0.93666 0.29800
C 	C 	0.28277 0.52858 0.87571 0.33800
C 	C 	0.52298 0.74976 0.88603 0.33200
C 	C 	0.21429 0.48771 0.92193 0.30500
C 	C 	0.30085 0.77030 0.87526 0.33500
C 	C 	0.26035 0.77576 0.92270 0.30900
Ni	Ni	0.39325 0.60514 0.90704 1.11500
Ni	Ni	0.23221 0.62660 0.89928 1.12300
Ni	Ni	0.40880 0.78721 0.90634 1.12400
O 	O 	0.43827 0.64786 0.93252 -0.36300
O 	O 	0.49296 0.78622 0.92422 -0.36500
O 	O 	0.26599 0.68899 0.87616 -0.39100
O 	O 	0.36056 0.57458 0.88057 -0.38100
O 	O 	0.22257 0.52719 0.88535 -0.38100
O 	O 	0.33903 0.79673 0.92553 -0.38400
O 	O 	0.51163 0.69438 0.89829 -0.37300
O 	O 	0.47339 0.78131 0.88510 -0.36900
O 	O 	0.20965 0.71224 0.91200 -0.37300
O 	O 	0.28590 0.49619 0.91573 -0.36400
O 	O 	0.19407 0.54712 0.92026 -0.37300
O 	O 	0.34482 0.81790 0.88872 -0.38200
O 	O 	0.34119 0.66990 0.90851 -0.72200
H 	H 	0.32806 0.66498 0.92137 0.16500
C 	C 	0.72378 0.47948 0.04604 0.29700
C 	C 	0.53558 0.25933 0.10476 0.33700
C 	C 	0.75433 0.49885 0.09855 0.33100
C 	C 	0.49199 0.22130 0.05604 0.30600
C 	C 	0.77436 0.27555 0.09934 0.33300
C 	C 	0.77018 0.26005 0.05065 0.31100
Ni	Ni	0.60807 0.38603 0.07609 1.11700
Ni	Ni	0.62786 0.22165 0.07705 1.12300
Ni	Ni	0.78955 0.40045 0.07220 1.12400
O 	O 	0.64527 0.44415 0.05148 -0.36200
O 	O 	0.78491 0.49194 0.05735 -0.36100
O 	O 	0.69400 0.24706 0.09950 -0.39600
O 	O 	0.58176 0.33922 0.10175 -0.38200
O 	O 	0.53070 0.20481 0.09283 -0.37600
O 	O 	0.79363 0.34031 0.05040 -0.38300
O 	O 	0.70099 0.49765 0.08685 -0.37400
O 	O 	0.79352 0.45720 0.09564 -0.36900
O 	O 	0.71199 0.20607 0.06193 -0.37300
O 	O 	0.49829 0.28294 0.06642 -0.35600
O 	O 	0.54716 0.19505 0.05659 -0.37200
O 	O 	0.82186 0.32768 0.08677 -0.36800
O 	O 	0.67146 0.33501 0.07094 -0.72000
H 	H 	0.66399 0.32860 0.05790 0.16200
C 	C 	0.17425 0.11294 0.25476 0.30800
C 	C 	0.91245 0.83165 0.21175 0.33500
C 	C 	0.13170 0.07534 0.20647 0.33200
C 	C 	0.93257 0.85196 0.26379 0.31700
C 	C 	0.89958 0.05547 0.20836 0.32900
C 	C 	0.88752 0.07100 0.25800 0.31200
Ni	Ni	0.87555 0.93357 0.23654 1.12200
O 	O 	0.16579 0.04705 0.24564 -0.36300
O 	O 	0.11598 0.13513 0.25486 -0.38000
O 	O 	0.85073 0.00951 0.22145 -0.37900
O 	O 	0.96627 0.83465 0.22359 -0.35100
O 	O 	0.88005 0.88031 0.21326 -0.38900
O 	O 	0.95353 0.12850 0.24883 -0.36300
O 	O 	0.13671 0.12850 0.21879 -0.38600
O 	O 	0.86567 0.99122 0.25815 -0.38500
O 	O 	0.87510 0.84035 0.25160 -0.36800
C 	C 	0.76199 0.55880 0.32329 0.30700
C 	C 	0.67071 0.23051 0.35779 0.32900
C 	C 	0.87507 0.45020 0.32699 0.31500
C 	C 	0.55298 0.34871 0.35702 0.30000
C 	C 	0.68803 0.23375 0.30017 0.33000
C 	C 	0.53459 0.31387 0.29720 0.31200
Ni	Ni	0.73201 0.41122 0.34894 1.11500
Ni	Ni	0.58424 0.25215 0.32808 1.12200
Ni	Ni	0.72181 0.40391 0.30546 1.12400
O 	O 	0.78359 0.53519 0.33846 -0.35300
O 	O 	0.71145 0.50383 0.31157 -0.38200
O 	O 	0.61100 0.20760 0.30565 -0.37800
O 	O 	0.69438 0.30410 0.36483 -0.35700
O 	O 	0.66059 0.22092 0.34068 -0.38600
O 	O 	0.61266 0.34811 0.29092 -0.37000
O 	O 	0.82353 0.39364 0.33785 -0.37200
O 	O 	0.84477 0.47310 0.31358 -0.36100
O 	O 	0.51514 0.28538 0.31366 -0.38800
O 	O 	0.62970 0.41005 0.35996 -0.36300
O 	O 	0.53778 0.27340 0.35149 -0.36400
O 	O 	0.74598 0.31154 0.30191 -0.38300
O 	O 	0.66817 0.36569 0.32803 -0.71100
H 	H 	0.63272 0.39145 0.32830 0.16800
C 	C 	0.78440 0.90012 0.99269 0.32100
C 	C 	0.87655 0.77334 0.98666 0.31300
C 	C 	0.98066 0.09323 0.01474 0.33700
C 	C 	0.13386 0.02001 0.01190 0.31800
Ni	Ni	0.90572 0.93140 0.96523 1.11300
Ni	Ni	0.94548 0.92381 0.00792 1.12600
O 	O 	0.10108 0.05823 0.95836 -0.36100
O 	O 	0.94182 0.01650 0.02059 -0.37800
O 	O 	0.83253 0.95753 0.98156 -0.38200
O 	O 	0.81809 0.87050 0.00402 -0.36500
O 	O 	0.14426 0.04420 0.99513 -0.38900
O 	O 	0.94115 0.04083 0.95039 -0.36000
O 	O 	0.84856 0.80450 0.97398 -0.35800
O 	O 	0.93938 0.82230 0.99689 -0.37800
O 	O 	0.98269 0.97047 0.98452 -0.69700
C 	C 	0.46648 0.28781 0.28498 -0.08200
C 	C 	0.40210 0.25642 0.27669 0.04300
C 	C 	0.32272 0.21155 0.26865 0.04200
C 	C 	0.25428 0.16838 0.26240 -0.08300
C 	C 	0.81246 0.64189 0.31662 -0.07900
C 	C 	0.84783 0.70255 0.30721 0.04500
C 	C 	0.88149 0.76218 0.29335 0.04700
C 	C 	0.90585 0.80566 0.28021 -0.07800
C 	C 	0.83520 0.09568 0.26720 -0.07700
C 	C 	0.79069 0.11611 0.27481 0.04500
C 	C 	0.74259 0.14497 0.28371 0.05100
C 	C 	0.71008 0.17879 0.29133 -0.08600
C 	C 	0.74510 0.52656 0.02973 -0.07400
C 	C 	0.76368 0.57038 0.01666 0.04000
C 	C 	0.79119 0.63023 0.00284 0.04700
C 	C 	0.82399 0.69094 0.99340 -0.08400
C 	C 	0.20636 0.05176 0.02295 -0.08600
C 	C 	0.27088 0.08501 0.03111 0.04800
C 	C 	0.34833 0.12954 0.03981 0.04200
C 	C 	0.41458 0.17062 0.04706 -0.07700
C 	C 	0.82070 0.23388 0.04119 -0.07700
C 	C 	0.86462 0.21172 0.03393 0.04600
C 	C 	0.91390 0.18117 0.02625 0.05400
C 	C 	0.95002 0.14698 0.02048 -0.08200
C 	C 	0.81094 0.14217 0.17508 -0.11500
C 	C 	0.84161 0.12753 0.15913 0.00600
C 	C 	0.87852 0.07677 0.15935 0.12600
C 	C 	0.88736 0.04397 0.17552 -0.03300
C 	C 	0.86328 0.06448 0.19165 -0.11800
C 	C 	0.82250 0.11165 0.19134 0.19600
C 	C 	0.83481 0.16536 0.14225 0.00900
O 	O 	0.91090 0.06371 0.14398 -0.26700
H 	H 	0.91707 0.00611 0.17564 0.06500
O 	O 	0.79539 0.12936 0.20693 -0.28200
H 	H 	0.78026 0.17919 0.17495 0.07700
C 	C 	0.77925 0.11517 0.12883 0.12200
C 	C 	0.76866 0.15197 0.11348 -0.02700
C 	C 	0.80874 0.23912 0.11187 -0.12100
C 	C 	0.86706 0.28930 0.12491 0.20200
C 	C 	0.88066 0.25224 0.13993 -0.11100
O 	O 	0.73382 0.03026 0.13087 -0.27500
H 	H 	0.72445 0.11285 0.10338 0.05400
O 	O 	0.90959 0.37445 0.12317 -0.28100
H 	H 	0.92471 0.29120 0.15007 0.08100
H 	H 	0.84258 0.18298 0.21116 0.15600
H 	H 	0.68176 0.01943 0.13698 0.14900
H 	H 	0.87507 0.39392 0.12944 0.16800
H 	H 	0.86655 0.00972 0.13918 0.16300
C 	C 	0.36735 0.23964 0.13619 -0.11800
C 	C 	0.36296 0.17928 0.14810 0.00700
C 	C 	0.41486 0.14450 0.14570 0.12200
C 	C 	0.47062 0.17016 0.13134 -0.02700
C 	C 	0.47584 0.23145 0.11955 -0.12900
C 	C 	0.42373 0.26614 0.12200 0.20100
C 	C 	0.30395 0.15279 0.16308 0.00800
O 	O 	0.40965 0.08402 0.15710 -0.26900
H 	H 	0.51039 0.14307 0.12948 0.05800
O 	O 	0.42520 0.32308 0.11004 -0.29300
H 	H 	0.32695 0.26606 0.13796 0.07600
C 	C 	0.32958 0.19199 0.17980 0.11600
C 	C 	0.27238 0.16811 0.19383 -0.02800
C 	C 	0.18914 0.10594 0.19121 -0.12700
C 	C 	0.16305 0.06867 0.17428 0.19800
C 	C 	0.22072 0.09146 0.16037 -0.11300
O 	O 	0.41109 0.25192 0.18257 -0.27300
H 	H 	0.29316 0.19668 0.20686 0.06500
H 	H 	0.20054 0.06212 0.14739 0.08200
H 	H 	0.46481 0.37846 0.11513 0.15000
H 	H 	0.41391 0.30550 0.17954 0.14800
H 	H 	0.45056 0.11455 0.16671 0.15700
C 	C 	0.78494 0.54670 0.14786 -0.11200
C 	C 	0.81297 0.63239 0.14794 0.00700
C 	C 	0.81550 0.67310 0.13187 0.11800
C 	C 	0.79286 0.62842 0.11577 -0.02800
C 	C 	0.76715 0.54310 0.11563 -0.12400
C 	C 	0.76116 0.50179 0.13184 0.19800
C 	C 	0.83774 0.67896 0.16493 0.01200
O 	O 	0.84282 0.75702 0.13181 -0.26600
H 	H 	0.79745 0.66058 0.10336 0.06400
O 	O 	0.73396 0.41787 0.13197 -0.28800
H 	H 	0.78157 0.51485 0.16024 0.08100
C 	C 	0.77806 0.68465 0.17554 0.11500
C 	C 	0.80220 0.73030 0.19147 -0.02300
C 	C 	0.88615 0.77192 0.19679 -0.12700
C 	C 	0.94559 0.76434 0.18638 0.22400
C 	C 	0.92105 0.71747 0.17056 -0.11600
O 	O 	0.69588 0.64472 0.17048 -0.27200
H 	H 	0.75588 0.73501 0.19949 0.05800
H 	H 	0.96703 0.71218 0.16254 0.09000
H 	H 	0.67294 0.39047 0.13395 0.16000
H 	H 	0.68938 0.68585 0.16317 0.14500
H 	H 	0.79207 0.76163 0.13358 0.14500
C 	C 	0.52571 0.75385 0.95276 -0.07500
C 	C 	0.57273 0.77778 0.96533 0.03500
C 	C 	0.63680 0.81158 0.97827 0.04800
C 	C 	0.70022 0.84771 0.98683 -0.09700
C 	C 	0.15227 0.40681 0.92817 -0.07800
C 	C 	0.10352 0.33737 0.93327 0.03300
C 	C 	0.23175 0.82989 0.92948 -0.08300
C 	C 	0.20714 0.87544 0.93483 0.04400
C 	C 	0.17301 0.92458 0.94087 0.04000
C 	C 	0.13500 0.95813 0.94591 -0.07800
C 	C 	0.25904 0.80761 0.82787 -0.11400
C 	C 	0.21125 0.84637 0.83066 0.00700
C 	C 	0.20243 0.86999 0.84804 0.12300
C 	C 	0.23742 0.85044 0.86259 -0.03100
C 	C 	0.28124 0.80732 0.85989 -0.12100
C 	C 	0.29357 0.78761 0.84239 0.19800
C 	C 	0.16972 0.86115 0.81535 0.00900
O 	O 	0.15678 0.90900 0.85092 -0.26900
H 	H 	0.22737 0.86560 0.87602 0.06400
O 	O 	0.33988 0.74930 0.83945 -0.28100
H 	H 	0.26792 0.79132 0.81445 0.07700
C 	C 	0.21453 0.93079 0.80427 0.12100
C 	C 	0.17710 0.94072 0.78893 -0.02500
O 	O 	0.29459 0.98999 0.80858 -0.26500
H 	H 	0.21248 0.99455 0.78047 0.06800
O 	O 	0.96888 0.75312 0.79163 -0.28400
H 	H 	0.29900 0.68874 0.83920 0.17100
H 	H 	0.33068 0.97187 0.80252 0.14900
H 	H 	0.93285 0.77074 0.79790 0.16900
H 	H 	0.19737 0.96948 0.85003 0.15900
C 	C 	0.27463 0.42088 0.83234 -0.11700
C 	C 	0.22067 0.33725 0.83686 0.00600
C 	C 	0.19043 0.31638 0.85442 0.12500
C 	C 	0.21071 0.37938 0.86705 -0.02900
C 	C 	0.26197 0.46325 0.86233 -0.12800
C 	C 	0.29621 0.48378 0.84507 0.19700
C 	C 	0.18811 0.27344 0.82272 0.00700
H 	H 	0.18687 0.36302 0.88055 0.06500
O 	O 	0.34772 0.56551 0.84040 -0.28800
H 	H 	0.29817 0.43724 0.81882 0.07700
C 	C 	0.13476 0.17249 0.79211 -0.12300
C 	C 	0.21457 0.19873 0.79922 0.19800
C 	C 	0.24065 0.24853 0.81460 -0.11200
O 	O 	0.26753 0.17707 0.79103 -0.28100
H 	H 	0.30281 0.27036 0.81980 0.08100
H 	H 	0.40501 0.57658 0.84293 0.15900
H 	H 	0.30012 0.22256 0.78241 0.15200
C 	C 	0.69599 0.88385 0.85422 -0.11500
C 	C 	0.69497 0.82330 0.84276 0.00700
C 	C 	0.64525 0.73824 0.84701 0.12500
C 	C 	0.59348 0.71437 0.86208 -0.02800
C 	C 	0.59008 0.77494 0.87280 -0.12100
C 	C 	0.64409 0.86003 0.86923 0.20000
C 	C 	0.73879 0.84889 0.82545 0.00800
O 	O 	0.64704 0.67847 0.83643 -0.27000
H 	H 	0.55301 0.64873 0.86491 0.05700
O 	O 	0.64353 0.91998 0.87996 -0.28900
H 	H 	0.73490 0.94945 0.85113 0.07800
C 	C 	0.69436 0.84363 0.80979 0.11800
C 	C 	0.73679 0.87287 0.79359 -0.02700
C 	C 	0.82379 0.90944 0.79295 -0.12500
C 	C 	0.86837 0.91479 0.80860 0.19500
C 	C 	0.82569 0.88407 0.82476 -0.11300
O 	O 	0.60935 0.80926 0.81028 -0.27200
H 	H 	0.70214 0.86836 0.78157 0.06300
O 	O 	0.95307 0.94691 0.80798 -0.29000
H 	H 	0.86021 0.88828 0.83679 0.08100
H 	H 	0.68581 0.93131 0.88932 0.15400
H 	H 	0.59963 0.85645 0.81282 0.15400
H 	H 	0.97746 0.00714 0.81066 0.16300
H 	H 	0.60165 0.66278 0.82760 0.15800
C 	C 	0.73603 0.91021 0.72029 -0.08100
C 	C 	0.66733 0.88129 0.71386 0.04200
C 	C 	0.58819 0.84526 0.70559 0.04400
C 	C 	0.52361 0.81250 0.69734 -0.08200
C 	C 	0.27453 0.45937 0.69089 -0.08200
C 	C 	0.24191 0.38975 0.69692 0.04900
C 	C 	0.19644 0.31071 0.70506 0.04200
C 	C 	0.15582 0.24612 0.71301 -0.07600
C 	C 	0.14648 0.79311 0.66378 -0.08500
C 	C 	0.10809 0.81710 0.67263 0.04700
C 	C 	0.38879 0.48374 0.38168 -0.07700
C 	C 	0.40985 0.43807 0.37481 0.04400
C 	C 	0.44458 0.39125 0.36774 0.04500
C 	C 	0.48655 0.36255 0.36241 -0.08000
C 	C 	0.12638 0.60066 0.36918 -0.08300
C 	C 	0.95614 0.50667 0.33404 -0.06400
C 	C 	0.50764 0.93201 0.38527 -0.07500
C 	C 	0.55018 0.00448 0.38118 0.03900
C 	C 	0.59733 0.08822 0.37535 0.05100
C 	C 	0.63393 0.15662 0.36864 -0.09400
C 	C 	0.48317 0.40966 0.59826 -0.07500
C 	C 	0.43609 0.43225 0.60364 0.04000
C 	C 	0.38610 0.46400 0.61043 0.05200
C 	C 	0.34888 0.49455 0.61746 -0.09700
C 	C 	0.96822 0.50318 0.64322 0.04500
C 	C 	0.90719 0.47810 0.62967 0.03700
C 	C 	0.86193 0.45677 0.61679 -0.07700
C 	C 	0.57668 0.07517 0.60285 -0.08000
C 	C 	0.55342 0.00625 0.60874 0.04100
C 	C 	0.51847 0.92328 0.61494 0.04400
C 	C 	0.47875 0.85168 0.61977 -0.08000
C 	C 	0.50500 0.58414 0.47967 -0.11100
C 	C 	0.45138 0.50810 0.48796 0.00700
C 	C 	0.36818 0.46093 0.48218 0.12200
C 	C 	0.34013 0.48870 0.46775 -0.03000
C 	C 	0.39531 0.56249 0.45875 -0.11900
C 	C 	0.47744 0.61160 0.46516 0.19600
C 	C 	0.48348 0.47679 0.50230 0.00900
O 	O 	0.31431 0.38767 0.49058 -0.26900
H 	H 	0.27656 0.45098 0.46309 0.06200
O 	O 	0.53191 0.68466 0.45679 -0.28600
H 	H 	0.56874 0.62133 0.48428 0.07400
C 	C 	0.53840 0.44690 0.49824 0.11500
C 	C 	0.57132 0.42059 0.51199 -0.02600
C 	C 	0.54995 0.42400 0.52980 -0.12500
C 	C 	0.49545 0.45443 0.53387 0.19800
C 	C 	0.46221 0.48032 0.52012 -0.11000
O 	O 	0.55777 0.44085 0.48081 -0.26700
H 	H 	0.61251 0.39647 0.50876 0.05500
O 	O 	0.47376 0.45784 0.55125 -0.27800
H 	H 	0.42040 0.50378 0.52332 0.08400
H 	H 	0.52877 0.72905 0.46360 0.15900
H 	H 	0.60917 0.49432 0.47824 0.14800
H 	H 	0.51619 0.51366 0.55566 0.15400
H 	H 	0.31986 0.34380 0.48411 0.15600
C 	C 	0.47748 0.00767 0.51352 -0.11400
C 	C 	0.53789 0.00230 0.50319 0.00800
C 	C 	0.62217 0.04682 0.50835 0.12100
C 	C 	0.64597 0.10003 0.52317 -0.02500
C 	C 	0.58590 0.10835 0.53300 -0.12400
C 	C 	0.50102 0.05967 0.52850 0.20000
C 	C 	0.51354 0.95528 0.48629 0.00900
O 	O 	0.68168 0.04113 0.49848 -0.26900
H 	H 	0.71135 0.13675 0.52666 0.06800
O 	O 	0.44127 0.06471 0.53843 -0.29200
H 	H 	0.41237 0.97277 0.50970 0.07900
C 	C 	0.46807 0.86760 0.48638 0.11700
C 	C 	0.44214 0.82378 0.47024 -0.03300
C 	C 	0.46134 0.86694 0.45398 -0.12000
C 	C 	0.50757 0.95466 0.45389 0.19900
C 	C 	0.53269 0.99843 0.47003 -0.10700
O 	O 	0.45111 0.82469 0.50218 -0.27400
H 	H 	0.40697 0.75621 0.47037 0.05500
O 	O 	0.52761 0.99766 0.43806 -0.27700
H 	H 	0.56717 0.06600 0.46991 0.08500
H 	H 	0.42507 0.02164 0.54784 0.15300
H 	H 	0.39583 0.81573 0.50597 0.15000
H 	H 	0.58209 0.00379 0.43451 0.15700
H 	H 	0.68594 0.99431 0.50382 0.15400
C 	C 	0.12242 0.54793 0.46442 -0.03400
C 	C 	0.13135 0.61661 0.45463 -0.12100
C 	C 	0.97717 0.53540 0.50142 0.02100
H 	H 	0.15227 0.51347 0.45987 0.06100
C 	C 	0.95038 0.54172 0.53304 -0.02100
C 	C 	0.87418 0.46691 0.53154 -0.12400
C 	C 	0.84818 0.42824 0.51471 0.19900
C 	C 	0.89969 0.46249 0.49977 -0.11400
H 	H 	0.97093 0.57199 0.54592 0.06400
O 	O 	0.77362 0.35555 0.51294 -0.27800
H 	H 	0.88005 0.43143 0.48695 0.08600
H 	H 	0.73220 0.37314 0.51015 0.15400
