data_crystal

_cell_length_a 35.17287
_cell_length_b 35.81717
_cell_length_c 30.87069
_cell_angle_alpha 95.53080
_cell_angle_beta  95.53191
_cell_angle_gamma 125.40738

_symmetry_space_group_name_	'P 1'
_symmetry_space_group_name_H-M	'P 1'

loop_
_symmetry_equiv_pos_as_xyz
  x,y,z

loop_
_atom_site_label
_atom_site_type_symbol
_atom_site_fract_x
_atom_site_fract_y
_atom_site_fract_z
_atom_site_charge
C 	C 	0.99357 0.02976 0.99719 0.12300
N 	N 	0.96854 0.98341 0.99777 -0.14100
C 	C 	0.99000 0.96189 0.99533 0.12100
N 	N 	0.03661 0.98685 0.99242 -0.14300
C 	C 	0.06186 0.03318 0.99196 0.12000
N 	N 	0.04027 0.05462 0.99424 -0.14300
C 	C 	0.93848 0.99235 0.43267 0.11800
N 	N 	0.98651 0.01912 0.43683 -0.14000
C 	C 	0.00999 0.99976 0.44154 0.11700
N 	N 	0.98531 0.95347 0.44199 -0.14000
C 	C 	0.93734 0.92651 0.43795 0.11900
N 	N 	0.91390 0.94600 0.43343 -0.14000
Cu	Cu	0.66676 0.27106 0.99621 0.92700
Cu	Cu	0.71282 0.27675 0.90727 0.87000
Cu	Cu	0.70276 0.35011 0.94403 0.89600
Cu	Cu	0.66678 0.35730 0.02624 0.89500
C 	C 	0.67179 0.30046 0.08775 0.28200
O 	O 	0.59706 0.24464 0.98911 -0.36400
C 	C 	0.69601 0.32388 0.84794 0.28400
O 	O 	0.70686 0.34413 0.00485 -0.63900
O 	O 	0.66779 0.28085 0.93426 -0.64200
O 	O 	0.69455 0.23590 0.99529 -0.37600
O 	O 	0.75256 0.28564 0.95945 -0.44200
O 	O 	0.65152 0.32007 0.07454 -0.38300
O 	O 	0.73907 0.41721 0.95816 -0.38500
C 	C 	0.72927 0.44073 0.98451 0.29000
C 	C 	0.58100 0.26628 0.97186 0.28300
O 	O 	0.61097 0.31045 0.96952 -0.39600
O 	O 	0.69825 0.42078 0.01112 -0.39300
O 	O 	0.67606 0.27387 0.05900 -0.35700
C 	C 	0.73635 0.25386 0.98450 0.29000
O 	O 	0.71093 0.35739 0.88221 -0.38700
O 	O 	0.68900 0.28440 0.85329 -0.41900
H 	H 	0.73963 0.36290 0.02218 0.16500
H 	H 	0.63619 0.26357 0.91486 0.17200
Cu	Cu	0.71114 0.33055 0.43372 0.92700
Cu	Cu	0.71395 0.29201 0.52563 0.87000
Cu	Cu	0.63800 0.30223 0.49422 0.89700
Cu	Cu	0.62365 0.33361 0.41108 0.89300
C 	C 	0.66948 0.31718 0.34366 0.28000
O 	O 	0.74080 0.39944 0.43747 -0.36300
C 	C 	0.67272 0.31266 0.58947 0.28300
O 	O 	0.63770 0.29445 0.43205 -0.64000
O 	O 	0.70793 0.33474 0.49766 -0.64000
O 	O 	0.74412 0.30017 0.43164 -0.37400
O 	O 	0.69806 0.24865 0.47415 -0.44200
O 	O 	0.65339 0.34066 0.35774 -0.38300
O 	O 	0.56968 0.26762 0.48596 -0.38300
C 	C 	0.54385 0.27355 0.45749 0.28900
C 	C 	0.72199 0.41850 0.45545 0.28300
O 	O 	0.67842 0.39167 0.46269 -0.39100
O 	O 	0.56386 0.30792 0.43494 -0.39500
O 	O 	0.70133 0.31708 0.37015 -0.35800
C 	C 	0.72687 0.26073 0.44574 0.28900
O 	O 	0.63658 0.29822 0.55753 -0.38700
O 	O 	0.71205 0.31978 0.58047 -0.41900
H 	H 	0.61658 0.26159 0.41629 0.16200
H 	H 	0.72749 0.36682 0.51525 0.17200
C 	C 	0.69471 0.33369 0.80287 -0.07500
C 	C 	0.73444 0.37390 0.79253 0.00400
C 	C 	0.73677 0.37957 0.74845 -0.05900
C 	C 	0.69919 0.34523 0.71429 0.01200
C 	C 	0.65786 0.30614 0.72482 0.01200
C 	C 	0.65591 0.30049 0.76912 -0.02000
C 	C 	0.61983 0.27234 0.69075 -0.05900
C 	C 	0.62377 0.27595 0.64649 0.00300
C 	C 	0.66589 0.31319 0.63577 -0.07600
C 	C 	0.70307 0.34848 0.66972 -0.02000
H 	H 	0.76436 0.39985 0.81848 0.03200
H 	H 	0.76828 0.41011 0.74084 0.04100
H 	H 	0.62491 0.26976 0.77722 0.03700
H 	H 	0.58764 0.24267 0.69847 0.04100
H 	H 	0.59476 0.24878 0.62048 0.03300
H 	H 	0.73530 0.37768 0.66146 0.03800
C 	C 	0.67755 0.29784 0.13485 -0.06800
C 	C 	0.72264 0.31665 0.15918 0.00200
C 	C 	0.72957 0.32057 0.20528 -0.05500
C 	C 	0.69134 0.30559 0.22739 0.01300
C 	C 	0.64537 0.28425 0.20262 0.01500
C 	C 	0.63871 0.28031 0.15642 -0.01800
C 	C 	0.60710 0.26908 0.22457 -0.05700
C 	C 	0.61479 0.27758 0.27080 0.00400
C 	C 	0.66073 0.30107 0.29566 -0.07100
C 	C 	0.69877 0.31362 0.27394 -0.01600
H 	H 	0.75265 0.32972 0.14257 0.02900
H 	H 	0.76484 0.33633 0.22382 0.04400
H 	H 	0.60370 0.26501 0.13742 0.04500
H 	H 	0.57157 0.25189 0.20587 0.04300
H 	H 	0.58517 0.26708 0.28737 0.02100
H 	H 	0.73426 0.33151 0.29311 0.04800
C 	C 	0.74703 0.46956 0.46149 -0.09100
C 	C 	0.73150 0.49102 0.48737 0.01400
C 	C 	0.75067 0.53796 0.48807 -0.07200
C 	C 	0.78568 0.56391 0.46321 0.04400
C 	C 	0.80286 0.54330 0.43907 -0.07200
C 	C 	0.78373 0.49637 0.43824 0.01700
C 	C 	0.80224 0.61090 0.46054 -0.03100
C 	C 	0.81656 0.65027 0.45787 0.00000
C 	C 	0.83371 0.69627 0.45385 -0.00400
C 	C 	0.84899 0.73556 0.44976 -0.02500
C 	C 	0.86837 0.78258 0.44418 0.03200
C 	C 	0.85440 0.80744 0.46658 -0.05500
C 	C 	0.87551 0.85406 0.46315 -0.01500
C 	C 	0.91091 0.87608 0.43747 -0.02400
C 	C 	0.92370 0.85057 0.41403 -0.01500
C 	C 	0.90252 0.80405 0.41740 -0.05500
H 	H 	0.70394 0.47115 0.50621 0.03100
H 	H 	0.73762 0.55384 0.50723 0.04900
H 	H 	0.83025 0.56330 0.42010 0.05000
H 	H 	0.79638 0.48056 0.41837 0.03700
H 	H 	0.82782 0.79098 0.48718 0.04600
H 	H 	0.86537 0.87337 0.48145 0.03800
H 	H 	0.95056 0.86700 0.39369 0.04000
H 	H 	0.91322 0.78493 0.39972 0.04600
C 	C 	0.91317 0.01358 0.42682 -0.02200
C 	C 	0.92941 0.04945 0.40220 -0.01600
C 	C 	0.90769 0.07196 0.39926 -0.05400
C 	C 	0.86957 0.05881 0.42078 0.03100
C 	C 	0.85248 0.02227 0.44446 -0.05300
C 	C 	0.87414 0.99966 0.44744 -0.01700
C 	C 	0.84931 0.08413 0.42006 -0.02500
C 	C 	0.83258 0.10551 0.41929 -0.00500
C 	C 	0.81343 0.13098 0.41891 0.00000
C 	C 	0.79724 0.15287 0.41922 -0.03300
C 	C 	0.77786 0.17901 0.42055 0.04500
C 	C 	0.80688 0.22675 0.41925 -0.07500
C 	C 	0.78951 0.25317 0.42525 0.01800
C 	C 	0.74302 0.23200 0.43286 -0.09900
C 	C 	0.71343 0.18374 0.43220 0.01800
C 	C 	0.73084 0.15743 0.42614 -0.07500
H 	H 	0.95903 0.06011 0.38561 0.04000
H 	H 	0.92092 0.10000 0.38070 0.04600
H 	H 	0.82293 0.01185 0.46112 0.04500
H 	H 	0.86132 0.97215 0.46662 0.03900
H 	H 	0.84322 0.24364 0.41470 0.05000
H 	H 	0.81274 0.29031 0.42557 0.03100
H 	H 	0.67727 0.16681 0.43730 0.02800
H 	H 	0.70807 0.12046 0.42680 0.04900
C 	C 	0.06209 0.02874 0.44556 -0.02400
C 	C 	0.08901 0.01914 0.47227 -0.01500
C 	C 	0.13807 0.04509 0.47442 -0.05500
C 	C 	0.16064 0.08083 0.44999 0.03200
C 	C 	0.13409 0.09105 0.42389 -0.05500
C 	C 	0.08498 0.06514 0.42167 -0.01500
C 	C 	0.21088 0.10623 0.45091 -0.02500
C 	C 	0.25294 0.12730 0.45188 -0.00400
C 	C 	0.30215 0.15166 0.45295 0.00000
C 	C 	0.34414 0.17235 0.45374 -0.03200
C 	C 	0.39428 0.19707 0.45449 0.04600
C 	C 	0.42441 0.20456 0.49283 -0.07300
C 	C 	0.47320 0.22909 0.49376 0.01900
C 	C 	0.49221 0.24635 0.45627 -0.09000
C 	C 	0.46176 0.23835 0.41777 0.01800
C 	C 	0.41301 0.21383 0.41694 -0.07300
H 	H 	0.07193 0.99158 0.49131 0.04000
H 	H 	0.15845 0.03716 0.49483 0.04600
H 	H 	0.15136 0.11870 0.40495 0.04600
H 	H 	0.06466 0.07278 0.40077 0.03900
H 	H 	0.41012 0.19164 0.52197 0.05000
H 	H 	0.49623 0.23521 0.52379 0.03700
H 	H 	0.47582 0.25101 0.38847 0.02500
H 	H 	0.38986 0.20798 0.38713 0.04900
C 	C 	0.75304 0.49066 0.98387 -0.08900
C 	C 	0.79879 0.51804 0.97377 0.01900
C 	C 	0.82156 0.56557 0.97407 -0.07400
C 	C 	0.79883 0.58604 0.98440 0.04700
C 	C 	0.75306 0.55879 0.99404 -0.07600
C 	C 	0.73020 0.51129 0.99377 0.01600
C 	C 	0.82285 0.63521 0.98598 -0.03300
C 	C 	0.84298 0.67638 0.98730 0.00100
C 	C 	0.86682 0.72465 0.98913 -0.00600
C 	C 	0.88749 0.76596 0.99092 -0.02500
C 	C 	0.91268 0.81537 0.99326 0.03000
C 	C 	0.95992 0.84607 0.01558 -0.05300
C 	C 	0.98493 0.89399 0.01690 -0.01000
C 	C 	0.96284 0.91158 0.99580 -0.02800
C 	C 	0.91521 0.88075 0.97400 -0.01400
C 	C 	0.89026 0.83280 0.97274 -0.05500
H 	H 	0.81693 0.50269 0.96628 0.03200
H 	H 	0.85699 0.58650 0.96659 0.04900
H 	H 	0.73524 0.57441 0.00192 0.05300
H 	H 	0.69470 0.49050 0.00106 0.03400
H 	H 	0.97737 0.83281 0.03171 0.04600
H 	H 	0.02147 0.91742 0.03428 0.03800
H 	H 	0.89780 0.89381 0.95740 0.03800
H 	H 	0.85368 0.80921 0.95548 0.04600
C 	C 	0.97002 0.05294 0.99964 -0.03000
C 	C 	0.92208 0.02867 0.97972 -0.01100
C 	C 	0.89949 0.05028 0.98272 -0.06100
C 	C 	0.92454 0.09627 0.00557 0.03800
C 	C 	0.97236 0.12066 0.02541 -0.05900
C 	C 	0.99507 0.09911 0.02248 -0.00800
C 	C 	0.90133 0.11864 0.00794 -0.02700
C 	C 	0.88139 0.13687 0.00963 -0.00300
C 	C 	0.85772 0.15792 0.01076 -0.00000
C 	C 	0.83733 0.17574 0.01089 -0.03200
C 	C 	0.81287 0.19691 0.00987 0.04500
C 	C 	0.76385 0.16972 0.00909 -0.07500
C 	C 	0.73905 0.18887 0.00280 0.02200
C 	C 	0.76315 0.23538 0.99701 -0.10200
C 	C 	0.81264 0.26309 0.99981 0.01500
C 	C 	0.83734 0.24386 0.00613 -0.07200
H 	H 	0.90244 0.99321 0.96166 0.03700
H 	H 	0.86255 0.03131 0.96714 0.04600
H 	H 	0.99194 0.15626 0.04312 0.04700
H 	H 	0.03191 0.11811 0.03835 0.03900
H 	H 	0.74475 0.13343 0.01218 0.05100
H 	H 	0.70093 0.16711 0.00090 0.03300
H 	H 	0.83183 0.29925 0.99625 0.02700
H 	H 	0.87531 0.26519 0.00706 0.04800
C 	C 	0.52930 0.24329 0.96180 -0.09200
C 	C 	0.49692 0.19496 0.95970 0.01800
C 	C 	0.44852 0.17439 0.95702 -0.07300
C 	C 	0.43205 0.20181 0.95610 0.04500
C 	C 	0.46375 0.24944 0.95549 -0.07300
C 	C 	0.51216 0.27014 0.95819 0.01600
C 	C 	0.38358 0.18196 0.95973 -0.03200
C 	C 	0.34295 0.16503 0.96278 0.00000
C 	C 	0.29562 0.14497 0.96750 -0.00600
C 	C 	0.25533 0.12739 0.97236 -0.02500
C 	C 	0.20734 0.10560 0.97900 0.02900
C 	C 	0.18852 0.07270 0.00674 -0.05200
C 	C 	0.14138 0.05001 0.01195 -0.01200
C 	C 	0.11261 0.06004 0.98935 -0.02800
C 	C 	0.13189 0.09390 0.96239 -0.01500
C 	C 	0.17913 0.11655 0.95719 -0.05500
H 	H 	0.50933 0.17354 0.96129 0.03300
H 	H 	0.42406 0.13739 0.95694 0.04900
H 	H 	0.45115 0.27076 0.95431 0.04900
H 	H 	0.53646 0.30730 0.95908 0.02900
H 	H 	0.21027 0.06435 0.02396 0.04600
H 	H 	0.12712 0.02440 0.03329 0.03900
H 	H 	0.11005 0.10186 0.94467 0.03900
H 	H 	0.19355 0.14214 0.93583 0.04500
