data_crystal

_cell_length_a 21.11274
_cell_length_b 17.87332
_cell_length_c 55.97934
_cell_angle_alpha 90.64875
_cell_angle_beta  91.54140
_cell_angle_gamma 110.99208

_symmetry_space_group_name_	'P 1'
_symmetry_space_group_name_H-M	'P 1'

loop_
_symmetry_equiv_pos_as_xyz
  x,y,z

loop_
_atom_site_label
_atom_site_type_symbol
_atom_site_fract_x
_atom_site_fract_y
_atom_site_fract_z
_atom_site_charge
O 	O 	0.02002 0.86953 0.71191 -0.70800
Ni	Ni	0.06853 0.92717 0.68332 1.09800
O 	O 	0.07118 0.96349 0.75623 -0.36500
O 	O 	0.10641 0.12533 0.74665 -0.40000
O 	O 	0.07212 0.83367 0.66212 -0.37500
O 	O 	0.05867 0.01912 0.70283 -0.70300
O 	O 	0.12692 0.00696 0.65955 -0.36300
Ni	Ni	0.14435 0.09257 0.71640 1.06900
H 	H 	0.05143 0.85110 0.72152 0.16200
H 	H 	0.03504 0.04910 0.69372 0.16100
O 	O 	0.16447 0.00340 0.73328 -0.41300
C 	C 	0.02913 0.75884 0.66350 0.29700
C 	C 	0.13541 0.97446 0.75320 0.29400
C 	C 	0.18469 0.06378 0.66612 0.27900
C 	C 	0.04350 0.12433 0.74871 0.27600
O 	O 	0.20490 0.56626 0.46152 -0.33500
O 	O 	0.14846 0.57228 0.42583 -0.33200
C 	C 	0.14811 0.55016 0.44840 0.30000
O 	O 	0.12481 0.66844 0.99384 -0.33300
O 	O 	0.20591 0.75977 0.03407 -0.34600
C 	C 	0.09687 0.62789 0.97385 0.31700
O 	O 	0.13389 0.61399 0.95686 -0.35000
O 	O 	0.08556 0.13489 0.24302 -0.39700
Ni	Ni	0.06295 0.16030 0.20816 1.06700
O 	O 	0.08562 0.06307 0.19737 -0.40500
C 	C 	0.06521 0.02816 0.17636 0.27800
C 	C 	0.04483 0.12709 0.26106 0.26800
C 	C 	0.09111 0.48258 0.07514 -0.02900
C 	C 	0.08073 0.40018 0.07580 0.02100
C 	C 	0.09241 0.36141 0.05533 -0.04100
C 	C 	0.12028 0.40539 0.03510 0.03700
C 	C 	0.13350 0.48876 0.03486 -0.06900
C 	C 	0.11574 0.52577 0.05454 0.02000
C 	C 	0.06503 0.35607 0.09857 0.04500
C 	C 	0.09841 0.28933 0.13159 0.02500
C 	C 	0.11476 0.33414 0.11081 -0.04800
C 	C 	0.18295 0.35782 0.10222 0.10400
C 	C 	0.07940 0.52409 0.09589 0.10000
H 	H 	0.12371 0.58918 0.05415 0.05700
H 	H 	0.08328 0.29771 0.05565 0.07200
H 	H 	0.13628 0.26998 0.14028 0.05000
C 	C 	0.21325 0.96021 0.09027 -0.02900
C 	C 	0.20602 0.91090 0.11030 0.02800
C 	C 	0.21804 0.83896 0.10821 -0.05500
C 	C 	0.23564 0.86020 0.06568 -0.07300
C 	C 	0.22845 0.93485 0.06814 0.01700
C 	C 	0.17399 0.92670 0.13196 0.01700
C 	C 	0.10440 0.88585 0.13453 -0.04300
C 	C 	0.06874 0.91372 0.15088 0.00500
C 	C 	0.10322 0.98338 0.16495 -0.05700
C 	C 	0.17432 0.01758 0.16462 -0.00100
C 	C 	0.20992 0.98943 0.14817 -0.02100
C 	C 	0.20237 0.03539 0.09209 0.10500
N 	N 	0.19363 0.09559 0.09357 -0.09900
H 	H 	0.23237 0.97195 0.05264 0.06800
H 	H 	0.07733 0.83507 0.12277 0.05900
H 	H 	0.20142 0.06917 0.17606 0.04800
C 	C 	0.10854 0.15845 0.32525 -0.03500
C 	C 	0.12829 0.24225 0.32803 0.02600
C 	C 	0.12111 0.28809 0.30868 -0.05600
C 	C 	0.09420 0.25109 0.28666 0.02400
C 	C 	0.07378 0.16723 0.28394 -0.07200
C 	C 	0.08101 0.12133 0.30328 0.01700
C 	C 	0.15678 0.28308 0.35106 0.02500
C 	C 	0.14023 0.34795 0.38749 0.02500
C 	C 	0.11365 0.29174 0.36882 -0.02300
C 	C 	0.04170 0.24586 0.36737 0.11400
C 	C 	0.11655 0.11029 0.34483 0.10800
C 	C 	0.08662 0.29942 0.26705 0.05500
N 	N 	0.08054 0.33810 0.25134 -0.12800
N 	N 	0.12295 0.07172 0.36052 -0.09300
H 	H 	0.06571 0.05679 0.30112 0.05300
H 	H 	0.13636 0.35263 0.31086 0.06300
H 	H 	0.10645 0.35817 0.40033 0.07500
C 	C 	0.00814 0.72327 0.28752 -0.00100
C 	C 	0.04100 0.75749 0.26675 -0.04200
C 	C 	0.04937 0.71849 0.30881 0.02900
C 	C 	0.07444 0.65593 0.31036 -0.05800
C 	C 	0.11752 0.65353 0.32956 0.02500
C 	C 	0.13509 0.71400 0.34767 -0.07400
C 	C 	0.10943 0.77622 0.34616 0.01400
C 	C 	0.06713 0.77905 0.32681 -0.03800
C 	C 	0.14529 0.59042 0.33010 0.07700
C 	C 	0.04267 0.84480 0.32538 0.10300
C 	C 	0.04173 0.82227 0.22823 0.06100
N 	N 	0.16748 0.53986 0.33054 -0.10600
N 	N 	0.02302 0.89738 0.32421 -0.10300
N 	N 	0.07019 0.85338 0.21160 -0.11700
H 	H 	0.09465 0.76839 0.26511 0.05100
H 	H 	0.06126 0.60983 0.29639 0.05800
C 	C 	0.05321 0.42058 0.45198 0.02500
C 	C 	0.08246 0.50208 0.45851 0.02000
C 	C 	0.04380 0.53943 0.47085 -0.11400
C 	C 	0.07576 0.62591 0.47962 0.78500
H 	H 	0.08413 0.39186 0.44336 0.08000
F 	F 	0.08954 0.67606 0.46028 -0.42700
F 	F 	0.13558 0.63693 0.49238 -0.41900
N 	N 	0.06779 0.89943 0.61090 -0.08800
H 	H 	0.17460 0.15147 0.62851 0.03900
C 	C 	0.06574 0.71873 0.62494 0.03100
C 	C 	0.10053 0.69789 0.58459 0.11800
N 	N 	0.14103 0.71324 0.57010 -0.07300
H 	H 	0.11602 0.76309 0.62848 0.05400
C 	C 	0.02250 0.59787 0.97043 -0.04600
C 	C 	0.02904 0.72710 0.95004 0.74700
H 	H 	0.01003 0.48871 0.98879 0.05600
F 	F 	0.07378 0.72541 0.93263 -0.42500
F 	F 	0.06512 0.77273 0.96943 -0.43000
C 	C 	0.03264 0.18829 0.76286 -0.09800
C 	C 	0.06757 0.21226 0.78498 0.03000
C 	C 	0.07422 0.26526 0.82608 0.11200
N 	N 	0.10264 0.28342 0.84442 -0.08900
H 	H 	0.11428 0.20150 0.78860 0.05000
C 	C 	0.11583 0.01851 0.80269 0.09900
N 	N 	0.06968 0.03527 0.80770 -0.09200
O 	O 	0.50944 0.23020 0.87954 -0.35100
O 	O 	0.51445 0.33422 0.92012 -0.29900
C 	C 	0.59171 0.15368 0.92943 0.30900
C 	C 	0.51308 0.16471 0.86942 0.28100
C 	C 	0.52588 0.41054 0.92427 0.29200
O 	O 	0.55729 0.20122 0.92549 -0.30500
O 	O 	0.55254 0.12892 0.87898 -0.39300
O 	O 	0.58151 0.36723 0.48084 -0.30000
O 	O 	0.55671 0.20310 0.48013 -0.31300
O 	O 	0.52949 0.14283 0.52670 -0.39100
O 	O 	0.54060 0.27491 0.52375 -0.30600
C 	C 	0.51848 0.20656 0.53517 0.27100
O 	O 	0.20400 0.07667 0.68893 -0.39800
Ni	Ni	0.23223 0.63867 0.40713 1.11100
O 	O 	0.31542 0.69557 0.38735 -0.69800
Ni	Ni	0.39026 0.69649 0.40997 1.11300
O 	O 	0.16837 0.64600 0.37982 -0.34000
O 	O 	0.22410 0.78113 0.37700 -0.38300
O 	O 	0.23713 0.53761 0.39115 -0.38300
Ni	Ni	0.32828 0.80493 0.37898 1.07300
O 	O 	0.33191 0.84188 0.41377 -0.36900
O 	O 	0.46708 0.74079 0.38681 -0.30600
O 	O 	0.30814 0.65723 0.43135 -0.70000
O 	O 	0.45319 0.66685 0.43354 -0.29500
O 	O 	0.37671 0.53905 0.43612 -0.37200
Ni	Ni	0.29089 0.55735 0.44841 1.08900
H 	H 	0.31621 0.66429 0.37272 0.16700
H 	H 	0.30812 0.69988 0.44278 0.22400
C 	C 	0.38695 0.85609 0.42721 0.30700
O 	O 	0.22965 0.46889 0.42569 -0.38200
C 	C 	0.18041 0.71287 0.36808 0.27700
C 	C 	0.46726 0.79927 0.37246 0.26900
C 	C 	0.23125 0.47157 0.40233 0.31100
C 	C 	0.43830 0.59227 0.44013 0.28600
O 	O 	0.42241 0.80882 0.42605 -0.32300
O 	O 	0.43204 0.84530 0.37774 -0.39100
Ni	Ni	0.36431 0.70196 0.98649 1.10800
O 	O 	0.26787 0.68379 0.97416 -0.69500
Ni	Ni	0.22714 0.71114 0.00335 1.10800
O 	O 	0.38236 0.63188 0.96035 -0.30500
O 	O 	0.28683 0.52622 0.96895 -0.37000
O 	O 	0.40528 0.79880 0.96448 -0.29200
Ni	Ni	0.21109 0.57456 0.96387 1.09700
O 	O 	0.46939 0.85594 0.01107 -0.37900
O 	O 	0.15915 0.51509 0.99304 -0.37400
O 	O 	0.32738 0.74498 0.01386 -0.69300
O 	O 	0.45900 0.72711 0.00117 -0.35100
O 	O 	0.28920 0.88042 0.02755 -0.37500
Ni	Ni	0.37597 0.85998 0.01783 1.08400
H 	H 	0.26814 0.72185 0.96141 0.21600
H 	H 	0.33299 0.71801 0.02869 0.17200
C 	C 	0.17195 0.53969 0.01552 0.30900
O 	O 	0.35859 0.87910 0.98313 -0.38200
C 	C 	0.34512 0.55537 0.95814 0.29000
C 	C 	0.39891 0.86911 0.96709 0.30800
C 	C 	0.24552 0.83147 0.04185 0.28500
C 	C 	0.48503 0.79172 0.01503 0.28800
O 	O 	0.21809 0.60931 0.02119 -0.39500
C 	C 	0.13831 0.36520 0.01533 0.10600
N 	N 	0.23754 0.37680 0.09533 -0.09900
N 	N 	0.15277 0.33293 0.99951 -0.07900
C 	C 	0.51894 0.81075 0.05839 0.03200
C 	C 	0.53233 0.79307 0.03485 -0.07800
C 	C 	0.59283 0.78072 0.03021 0.02800
C 	C 	0.45581 0.82055 0.06385 0.04300
N 	N 	0.61470 0.63873 0.10691 -0.09700
N 	N 	0.40540 0.82866 0.06828 -0.14100
H 	H 	0.60252 0.76537 0.01221 0.06700
C 	C 	0.23243 0.81308 0.08602 0.02800
C 	C 	0.28282 0.02696 0.14742 0.09000
C 	C 	0.24421 0.73839 0.08432 0.07900
N 	N 	0.34124 0.05703 0.14680 -0.10100
N 	N 	0.25368 0.67861 0.08296 -0.10400
H 	H 	0.21333 0.80155 0.12368 0.06000
C 	C 	0.52863 0.77222 0.33740 0.02400
C 	C 	0.51986 0.82664 0.35432 -0.05000
C 	C 	0.55824 0.90883 0.35281 0.01100
H 	H 	0.55202 0.95086 0.36585 0.08300
C 	C 	0.22696 0.32431 0.35365 -0.05100
C 	C 	0.25338 0.38108 0.37218 0.03600
C 	C 	0.20923 0.39633 0.38835 -0.07200
C 	C 	0.32555 0.42531 0.37406 0.08400
N 	N 	0.38340 0.46069 0.37554 -0.06100
H 	H 	0.26048 0.31546 0.34045 0.06500
H 	H 	0.12240 0.82245 0.36009 0.06300
C 	C 	0.45989 0.99898 0.42615 0.06000
C 	C 	0.41822 0.93463 0.43931 0.00600
C 	C 	0.41798 0.94169 0.46444 -0.08900
C 	C 	0.46648 0.00843 0.47617 0.05700
C 	C 	0.51209 0.06989 0.46309 0.00500
C 	C 	0.50731 0.06697 0.43783 -0.09000
H 	H 	0.45816 0.99367 0.40682 0.07200
H 	H 	0.47002 0.01179 0.49553 0.06800
C 	C 	0.36939 0.87553 0.47888 0.77800
F 	F 	0.39256 0.81247 0.48044 -0.44800
F 	F 	0.30525 0.84849 0.46805 -0.42700
F 	F 	0.36399 0.90232 0.50177 -0.43200
C 	C 	0.59321 0.53306 0.44793 0.05400
C 	C 	0.58112 0.49697 0.47027 0.01300
C 	C 	0.52896 0.50466 0.48434 -0.08900
C 	C 	0.48267 0.53605 0.47405 0.05800
C 	C 	0.49151 0.56678 0.45095 0.00900
C 	C 	0.54881 0.56824 0.43800 -0.08500
C 	C 	0.56373 0.60887 0.41400 0.78000
H 	H 	0.43911 0.53582 0.48392 0.06800
C 	C 	0.51994 0.47567 0.50986 0.77900
F 	F 	0.58091 0.69064 0.41729 -0.42300
F 	F 	0.50746 0.57971 0.39866 -0.44600
F 	F 	0.58206 0.48880 0.52129 -0.44700
F 	F 	0.48159 0.39469 0.50971 -0.43400
F 	F 	0.48691 0.51602 0.52292 -0.43400
C 	C 	0.26601 0.16385 0.60999 -0.03500
C 	C 	0.32579 0.14580 0.61007 0.02600
C 	C 	0.34114 0.10521 0.62935 -0.05600
C 	C 	0.29635 0.07988 0.64810 0.02800
C 	C 	0.23573 0.09649 0.64782 -0.07500
C 	C 	0.22122 0.13889 0.62880 0.01200
C 	C 	0.37105 0.16545 0.58949 0.02300
C 	C 	0.42877 0.23574 0.59036 -0.04600
C 	C 	0.47652 0.25091 0.57242 0.02700
C 	C 	0.46633 0.19522 0.55326 -0.05200
C 	C 	0.40714 0.12637 0.55196 0.01300
C 	C 	0.35967 0.11116 0.56997 -0.02600
C 	C 	0.53692 0.32226 0.57427 0.10000
C 	C 	0.29982 0.03914 0.56849 0.11900
C 	C 	0.24990 0.20699 0.59051 0.10600
C 	C 	0.31154 0.03384 0.66698 0.08400
N 	N 	0.58528 0.37942 0.57575 -0.08500
N 	N 	0.25184 0.98148 0.56733 -0.08300
N 	N 	0.32371 0.99695 0.68210 -0.10600
N 	N 	0.23703 0.24155 0.57490 -0.09100
H 	H 	0.38723 0.09150 0.62941 0.05900
H 	H 	0.43731 0.27767 0.60533 0.06200
H 	H 	0.39838 0.08423 0.53703 0.08100
C 	C 	0.52837 0.00767 0.92598 0.05200
C 	C 	0.55673 0.07628 0.94073 0.00800
C 	C 	0.53759 0.07407 0.96476 -0.08400
C 	C 	0.48357 0.00739 0.97259 0.06200
C 	C 	0.45122 0.94092 0.95725 0.00600
C 	C 	0.47292 0.94163 0.93344 -0.08600
C 	C 	0.43770 0.87260 0.91595 0.78000
H 	H 	0.54664 0.00794 0.90808 0.06700
H 	H 	0.46703 0.00673 0.99077 0.05900
C 	C 	0.57226 0.14444 0.98178 0.77700
F 	F 	0.45214 0.89528 0.89255 -0.44100
F 	F 	0.36797 0.84667 0.91791 -0.42500
F 	F 	0.45964 0.80985 0.92055 -0.39800
F 	F 	0.54474 0.20308 0.97820 -0.39100
F 	F 	0.56393 0.12125 0.00535 -0.42600
C 	C 	0.44312 0.47694 0.91613 0.05900
C 	C 	0.47012 0.43521 0.93201 0.00500
C 	C 	0.44546 0.42022 0.95544 -0.09600
C 	C 	0.39762 0.45293 0.96301 0.05400
C 	C 	0.37526 0.50055 0.94771 0.00800
C 	C 	0.39351 0.50685 0.92350 -0.09000
C 	C 	0.36335 0.54966 0.90585 0.77900
H 	H 	0.46162 0.48714 0.89813 0.08400
H 	H 	0.38078 0.44553 0.98124 0.08300
F 	F 	0.36874 0.52622 0.88256 -0.42800
F 	F 	0.39740 0.63148 0.90829 -0.39500
F 	F 	0.29519 0.53212 0.90989 -0.45200
C 	C 	0.28502 0.95379 0.78600 -0.03800
C 	C 	0.28457 0.99484 0.80757 0.02600
C 	C 	0.22685 0.01161 0.81334 -0.05200
C 	C 	0.17346 0.99749 0.79652 0.02700
C 	C 	0.17788 0.96579 0.77359 -0.08000
C 	C 	0.23149 0.93902 0.76916 0.01300
C 	C 	0.34766 0.03242 0.82212 0.02500
C 	C 	0.39491 0.10574 0.81502 -0.05000
C 	C 	0.45003 0.14880 0.83015 0.02500
C 	C 	0.45816 0.11825 0.85264 -0.06600
C 	C 	0.41243 0.04340 0.85936 0.02500
C 	C 	0.35739 0.00023 0.84418 -0.02500
C 	C 	0.49822 0.22407 0.82243 0.07100
C 	C 	0.31092 0.92323 0.85139 0.13700
C 	C 	0.34127 0.92905 0.78072 0.10200
N 	N 	0.53685 0.28435 0.81625 -0.10900
N 	N 	0.27369 0.86153 0.85716 -0.06500
N 	N 	0.38637 0.90926 0.77650 -0.10100
H 	H 	0.23343 0.91094 0.75205 0.04300
H 	H 	0.22540 0.04022 0.83042 0.07100
H 	H 	0.38768 0.13013 0.79793 0.05800
H 	H 	0.41886 0.01976 0.87665 0.09400
O 	O 	0.06451 0.19909 0.17356 -0.39700
C 	C 	0.56571 0.13510 0.47612 0.31200
C 	C 	0.03309 0.26759 0.14087 -0.09300
N 	N 	0.07008 0.55738 0.11250 -0.11000
C 	C 	0.48890 0.68759 0.33816 0.10000
N 	N 	0.45708 0.61980 0.33877 -0.08700
F 	F 	0.61707 0.59573 0.40313 -0.43100
F 	F 	0.03337 0.64727 0.49449 -0.44100
C 	C 	0.04993 0.67873 0.60266 -0.05700
F 	F 	0.44438 0.36772 0.99492 -0.42400
N 	N 	0.51505 0.90241 0.26494 -0.11000
C 	C 	0.00054 0.33710 0.10820 -0.09700
C 	C 	0.01429 0.21020 0.16087 0.27600
O 	O 	0.01776 0.04285 0.16382 -0.37000
C 	C 	0.56763 0.82036 0.07668 -0.05200
H 	H 	0.55816 0.83627 0.09465 0.06300
C 	C 	0.61689 0.44292 0.47722 0.28800
C 	C 	0.64769 0.70627 0.10776 0.10200
C 	C 	0.64178 0.02205 0.33298 0.11200
O 	O 	0.66169 0.29051 0.88507 -0.69800
Ni	Ni	0.58360 0.29769 0.90304 1.10800
Ni	Ni	0.65594 0.17981 0.88310 1.07400
O 	O 	0.64971 0.16625 0.91916 -0.36700
O 	O 	0.58422 0.46544 0.91883 -0.37800
H 	H 	0.65949 0.30981 0.86867 0.16200
Ni	Ni	0.61921 0.29751 0.50136 1.11200
O 	O 	0.68220 0.47280 0.48287 -0.36000
O 	O 	0.67427 0.24992 0.52161 -0.69700
Ni	Ni	0.62375 0.13539 0.52392 1.07300
H 	H 	0.68302 0.27556 0.53774 0.16800
O 	O 	0.61283 0.11844 0.48800 -0.38100
C 	C 	0.64201 0.79148 0.04853 -0.03200
C 	C 	0.63012 0.81388 0.07173 0.02800
C 	C 	0.60404 0.93711 0.33444 -0.01900
C 	C 	0.61233 0.88279 0.31747 0.02000
C 	C 	0.57497 0.80057 0.31917 -0.04300
C 	C 	0.64080 0.92017 0.27480 -0.04100
C 	C 	0.57099 0.91032 0.26931 0.09900
H 	H 	0.58172 0.75872 0.30619 0.06300
C 	C 	0.55461 0.13443 0.42340 0.77800
F 	F 	0.54182 0.12061 0.39905 -0.43900
F 	F 	0.62120 0.14202 0.42837 -0.43900
F 	F 	0.54636 0.20567 0.42930 -0.43600
H 	H 	0.63560 0.53060 0.43789 0.07700
F 	F 	0.64124 0.17622 0.97794 -0.41400
C 	C 	0.47055 0.37025 0.97240 0.78400
F 	F 	0.54060 0.40231 0.97484 -0.45000
F 	F 	0.45085 0.29256 0.96345 -0.40000
C 	C 	0.61321 0.49356 0.85260 0.07800
N 	N 	0.56139 0.44262 0.85491 -0.10400
N 	N 	0.67205 0.09010 0.33179 -0.08200
O 	O 	0.66371 0.36057 0.92542 -0.69600
Ni	Ni	0.74168 0.36897 0.90475 1.11100
O 	O 	0.81146 0.34922 0.88343 -0.33400
O 	O 	0.76129 0.21303 0.88483 -0.37700
O 	O 	0.73284 0.45041 0.88084 -0.37800
O 	O 	0.76140 0.48149 0.95459 -0.33000
Ni	Ni	0.67467 0.46977 0.93557 1.10100
H 	H 	0.66589 0.32889 0.93961 0.22900
O 	O 	0.73021 0.54055 0.90939 -0.37700
C 	C 	0.80157 0.27770 0.87426 0.27700
C 	C 	0.72510 0.51745 0.88689 0.30100
O 	O 	0.70115 0.31291 0.48065 -0.69800
Ni	Ni	0.76121 0.27732 0.50276 1.10800
Ni	Ni	0.75083 0.42261 0.47046 1.08600
O 	O 	0.81516 0.48138 0.49851 -0.37200
O 	O 	0.80142 0.21873 0.52684 -0.33600
O 	O 	0.70897 0.10358 0.52158 -0.38300
H 	H 	0.68792 0.27647 0.46645 0.21300
C 	C 	0.76716 0.14411 0.53266 0.27800
O 	O 	0.79636 0.37784 0.52419 -0.38400
O 	O 	0.78924 0.91872 0.17303 -0.40000
O 	O 	0.77697 0.88840 0.22494 -0.38500
C 	C 	0.68540 0.84111 0.09009 0.03100
C 	C 	0.72791 0.92192 0.09090 -0.05700
C 	C 	0.77040 0.95411 0.11091 0.04200
C 	C 	0.77191 0.90421 0.13016 -0.07900
C 	C 	0.73200 0.82232 0.12874 0.01800
C 	C 	0.68883 0.79057 0.10880 -0.03900
C 	C 	0.70483 0.78058 0.04337 0.11700
N 	N 	0.75519 0.77185 0.03925 -0.08600
H 	H 	0.72530 0.96066 0.07641 0.07800
H 	H 	0.73429 0.78347 0.14323 0.02600
C 	C 	0.66208 0.91107 0.29832 0.03200
C 	C 	0.73064 0.92489 0.30348 -0.05400
C 	C 	0.77748 0.94288 0.28520 0.03400
C 	C 	0.75546 0.94681 0.26131 -0.07800
C 	C 	0.68751 0.93803 0.25645 0.02100
H 	H 	0.74725 0.91958 0.32169 0.07800
H 	H 	0.67055 0.94240 0.23822 0.04700
C 	C 	0.74686 0.90957 0.61382 0.10100
N 	N 	0.69190 0.90905 0.61389 -0.10600
H 	H 	0.77679 0.00138 0.52204 0.07300
H 	H 	0.80598 0.84709 0.64680 0.04900
C 	C 	0.84543 0.26989 0.85489 -0.07000
C 	C 	0.84409 0.39550 0.83630 0.08600
N 	N 	0.82377 0.44755 0.83508 -0.09900
C 	C 	0.75321 0.66134 0.82539 0.02700
C 	C 	0.69047 0.59993 0.82851 -0.05000
C 	C 	0.67796 0.55716 0.84978 0.03100
C 	C 	0.72884 0.57555 0.86808 -0.06900
C 	C 	0.77000 0.77347 0.79663 -0.03600
C 	C 	0.74144 0.81419 0.81323 0.10700
N 	N 	0.71858 0.84680 0.82654 -0.09700
H 	H 	0.65228 0.58381 0.81411 0.06400
H 	H 	0.80312 0.87343 0.77293 0.04900
C 	C 	0.03870 0.24255 0.80321 -0.05700
C 	C 	0.78923 0.64141 0.86574 0.02400
C 	C 	0.77018 0.69632 0.80145 0.02600
C 	C 	0.01598 0.70445 0.64227 -0.10200
O 	O 	0.82004 0.45638 0.92285 -0.33400
C 	C 	0.81856 0.48278 0.94495 0.29700
O 	O 	0.85122 0.31288 0.48492 -0.30900
C 	C 	0.83480 0.44852 0.51684 0.30000
C 	C 	0.87076 0.37399 0.47023 0.29400
O 	O 	0.82603 0.39143 0.45660 -0.35200
O 	O 	0.87059 0.80767 0.72001 -0.39400
C 	C 	0.87914 0.82431 0.74309 0.28100
O 	O 	0.85309 0.01015 0.23749 -0.39200
O 	O 	0.86802 0.79821 0.22045 -0.38800
Ni	Ni	0.83250 0.86505 0.19820 1.07900
C 	C 	0.79928 0.94654 0.24118 0.31500
C 	C 	0.81491 0.93668 0.15172 0.28200
C 	C 	0.80952 0.03907 0.11202 0.09000
N 	N 	0.84081 0.10711 0.11286 -0.08700
C 	C 	0.84733 0.95446 0.29116 0.09200
H 	H 	0.84988 0.72297 0.27335 0.05400
C 	C 	0.81643 0.97416 0.55534 -0.02600
C 	C 	0.84107 0.00197 0.57865 0.02000
C 	C 	0.84840 0.08016 0.58587 -0.04900
C 	C 	0.82825 0.12937 0.57045 0.02100
C 	C 	0.80053 0.10018 0.54748 -0.06100
C 	C 	0.79680 0.02348 0.53985 0.01400
C 	C 	0.85976 0.94981 0.59565 0.03300
C 	C 	0.83870 0.87311 0.63213 0.02200
C 	C 	0.81547 0.91029 0.61371 -0.04100
C 	C 	0.80972 0.89445 0.54737 0.11600
C 	C 	0.83439 0.20875 0.57860 0.08200
N 	N 	0.83934 0.27235 0.58511 -0.10600
N 	N 	0.80435 0.83058 0.54099 -0.08500
H 	H 	0.86873 0.10212 0.60366 0.05700
C 	C 	0.88683 0.50157 0.53373 -0.06500
C 	C 	0.88688 0.57856 0.53901 0.03200
N 	N 	0.85666 0.61166 0.66903 -0.11700
H 	H 	0.85474 0.60244 0.52856 0.07200
F 	F 	0.86176 0.34804 0.96222 -0.43500
F 	F 	0.81381 0.40022 0.99024 -0.41500
C 	C 	0.91542 0.32518 0.82085 -0.04900
C 	C 	0.86956 0.33052 0.83775 0.02600
C 	C 	0.86418 0.20212 0.85362 0.01100
C 	C 	0.90644 0.19447 0.83564 -0.02800
H 	H 	0.84538 0.15495 0.86649 0.06100
C 	C 	0.80193 0.68401 0.84445 -0.03000
C 	C 	0.79368 0.65563 0.78427 -0.05500
C 	C 	0.82335 0.69435 0.76354 0.02800
C 	C 	0.82987 0.77478 0.75998 -0.07700
C 	C 	0.79992 0.81235 0.77596 0.02100
C 	C 	0.85020 0.65259 0.74666 0.05200
H 	H 	0.82804 0.65645 0.87994 0.07000
H 	H 	0.79185 0.59522 0.78761 0.06200
C 	C 	0.00622 0.78344 0.24899 -0.00100
F 	F 	0.99618 0.26801 0.43293 -0.43200
H 	H 	0.88671 0.55749 0.61223 0.06600
H 	H 	0.89812 0.24646 0.77253 0.05900
N 	N 	0.87172 0.61916 0.73314 -0.12900
O 	O 	0.93012 0.88702 0.75128 -0.35300
O 	O 	0.90516 0.80514 0.66920 -0.38000
C 	C 	0.93749 0.86652 0.65583 0.30700
O 	O 	0.92083 0.95251 0.19817 -0.70100
O 	O 	0.91633 0.89726 0.24937 -0.37000
O 	O 	0.87768 0.98645 0.14958 -0.35300
C 	C 	0.90967 0.82761 0.23927 0.27800
N 	N 	0.87100 0.27856 0.14962 -0.09400
N 	N 	0.90304 0.96347 0.29637 -0.08300
C 	C 	0.90299 0.73157 0.27133 0.00600
C 	C 	0.90143 0.66280 0.30921 0.10500
N 	N 	0.87245 0.62892 0.32540 -0.08500
F 	F 	0.89371 0.27809 0.43331 -0.42100
C 	C 	0.92420 0.94440 0.59483 -0.06000
C 	C 	0.90604 0.87592 0.63279 -0.08400
C 	C 	0.93190 0.47317 0.54650 0.03700
C 	C 	0.92481 0.62263 0.55868 -0.02300
C 	C 	0.92264 0.70077 0.56425 0.12300
C 	C 	0.89888 0.62612 0.65517 0.06900
N 	N 	0.92087 0.76335 0.56871 -0.09700
C 	C 	0.88373 0.52646 0.95758 0.02800
H 	H 	0.89591 0.63630 0.93966 0.09000
C 	C 	0.87472 0.40226 0.98119 0.78700
C 	C 	0.94549 0.23706 0.77602 -0.06800
C 	C 	0.93358 0.25725 0.81947 0.02000
C 	C 	0.91967 0.12082 0.83335 0.10800
N 	N 	0.93023 0.06183 0.83150 -0.09000
N 	N 	0.92157 0.18977 0.71463 -0.10900
H 	H 	0.93478 0.37241 0.80802 0.06200
C 	C 	0.86606 0.74891 0.84195 0.11600
C 	C 	0.92047 0.60536 0.95102 0.03300
C 	C 	0.91475 0.48578 0.97270 -0.11200
Ni	Ni	0.94124 0.77600 0.70121 1.08500
N 	N 	0.93879 0.83721 0.15398 -0.13500
C 	C 	0.93673 0.60243 0.61584 -0.07000
C 	C 	0.94211 0.40106 0.53877 0.09500
Ni	Ni	0.93240 0.05165 0.17841 1.10400
C 	C 	0.92175 0.28606 0.14076 0.08500
H 	H 	0.94351 0.52594 0.48242 0.07000
C 	C 	0.94726 0.90687 0.61313 0.05300
N 	N 	0.95052 0.34342 0.53258 -0.07300
F 	F 	0.90987 0.37890 0.99906 -0.42700
N 	N 	0.91741 0.80092 0.83992 -0.08600
C 	C 	0.01414 0.90257 0.61197 0.06400
F 	F 	0.93722 0.24138 0.46649 -0.42100
C 	C 	0.93767 0.70512 0.28903 -0.01000
C 	C 	0.93810 0.77533 0.25211 -0.05100
C 	C 	0.94406 0.41612 0.46650 -0.00500
C 	C 	0.95142 0.64391 0.63781 0.05200
C 	C 	0.94552 0.19837 0.73378 0.06600
H 	H 	0.94166 0.13671 0.21563 0.17100
Ni	Ni	0.94463 0.00111 0.23076 1.10000
O 	O 	0.95216 0.15557 0.16057 -0.35700
H 	H 	0.95497 0.92863 0.19439 0.16600
C 	C 	0.95245 0.29030 0.44689 0.77500
H 	H 	0.95721 0.97175 0.58035 0.07800
C 	C 	0.96240 0.58915 0.57343 0.02700
C 	C 	0.96862 0.51648 0.56655 -0.04000
C 	C 	0.97425 0.24806 0.79924 0.04800
O 	O 	0.96598 0.10133 0.21056 -0.70200
C 	C 	0.97437 0.49652 0.47415 0.07000
C 	C 	0.97542 0.20908 0.75767 0.05000
N 	N 	0.98405 0.20908 0.36622 -0.06100
O 	O 	0.98467 0.92986 0.66526 -0.38800
O 	O 	0.99093 0.05713 0.74510 -0.35500
H 	H 	0.96284 0.35602 0.09919 0.09600
C 	C 	0.98441 0.62198 0.59787 0.04900
F 	F 	0.98644 0.76407 0.94088 -0.41600
Ni	Ni	0.00146 0.96015 0.72935 1.09700
O 	O 	0.98529 0.06854 0.26092 -0.34700
C 	C 	0.98373 0.37738 0.45528 -0.06500
C 	C 	0.98454 0.52145 0.97858 0.10600
C 	C 	0.98965 0.64226 0.95768 -0.04000
C 	C 	0.98508 0.29550 0.12968 0.07200
O 	O 	0.00278 0.73030 0.68404 -0.41000
H 	H 	0.99994 0.49229 0.57731 0.06900
C 	C 	0.99658 0.87148 0.15269 0.10100
