data_crystal

_cell_length_a 26.01238
_cell_length_b 26.66985
_cell_length_c 33.03752
_cell_angle_alpha 95.48368
_cell_angle_beta  95.48076
_cell_angle_gamma 125.82473

_symmetry_space_group_name_	'P 1'
_symmetry_space_group_name_H-M	'P 1'

loop_
_symmetry_equiv_pos_as_xyz
  x,y,z

loop_
_atom_site_label
_atom_site_type_symbol
_atom_site_fract_x
_atom_site_fract_y
_atom_site_fract_z
_atom_site_charge
C 	C 	0.00451 0.06303 0.99271 0.03800
C 	C 	0.06741 0.10059 0.98459 -0.07400
C 	C 	0.10076 0.07476 0.97881 0.04400
C 	C 	0.07054 0.01111 0.98042 -0.07900
C 	C 	0.00731 0.97327 0.98767 0.04500
C 	C 	0.97516 0.99986 0.99522 -0.06900
H 	H 	0.09022 0.14956 0.98279 0.05900
H 	H 	0.09627 0.99107 0.97608 0.06300
H 	H 	0.92680 0.97107 0.00193 0.06000
C 	C 	0.89028 0.96281 0.45215 0.03700
C 	C 	0.95718 0.99810 0.45394 -0.06600
C 	C 	0.98936 0.97158 0.46272 0.04500
C 	C 	0.95417 0.90913 0.46877 -0.07500
C 	C 	0.88701 0.87275 0.46524 0.04200
C 	C 	0.85504 0.89979 0.45742 -0.07100
H 	H 	0.98415 0.04617 0.44880 0.05700
H 	H 	0.97887 0.88843 0.47536 0.06000
H 	H 	0.80319 0.87200 0.45532 0.06100
Cu	Cu	0.69255 0.29639 0.01441 0.92600
Cu	Cu	0.71883 0.25714 0.92496 0.87600
Cu	Cu	0.73042 0.38500 0.95212 0.91100
Cu	Cu	0.69332 0.41616 0.03059 0.90000
C 	C 	0.69194 0.34471 0.09583 0.26100
O 	O 	0.59731 0.25479 0.01179 -0.36000
C 	C 	0.72353 0.33651 0.87066 0.26100
O 	O 	0.74272 0.39211 0.01094 -0.63800
O 	O 	0.68194 0.29300 0.95349 -0.63100
O 	O 	0.74260 0.26156 0.02220 -0.36200
O 	O 	0.69891 0.19733 0.95886 -0.42100
O 	O 	0.70048 0.39615 0.08665 -0.36700
O 	O 	0.77969 0.47460 0.95433 -0.37300
C 	C 	0.77328 0.51037 0.98050 0.28800
C 	C 	0.57105 0.28135 0.99865 0.28500
O 	O 	0.60726 0.33711 0.98879 -0.38300
O 	O 	0.72221 0.48497 0.99830 -0.38000
O 	O 	0.71067 0.31603 0.07379 -0.34500
C 	C 	0.73378 0.21567 0.99593 0.29400
O 	O 	0.71087 0.37062 0.89240 -0.36600
O 	O 	0.75604 0.31904 0.88941 -0.41600
H 	H 	0.78873 0.41988 0.02465 0.17000
H 	H 	0.63615 0.26990 0.94026 0.16300
Cu	Cu	0.70001 0.31157 0.45199 0.92900
Cu	Cu	0.69416 0.24271 0.53114 0.86900
Cu	Cu	0.59715 0.26154 0.50619 0.89700
Cu	Cu	0.57875 0.31093 0.43338 0.89700
C 	C 	0.65254 0.31048 0.36894 0.26300
O 	O 	0.73750 0.40465 0.46145 -0.34800
C 	C 	0.63217 0.25950 0.59254 0.25800
O 	O 	0.59943 0.25762 0.44836 -0.64100
O 	O 	0.69239 0.30781 0.51105 -0.63800
O 	O 	0.74685 0.27324 0.44628 -0.35700
O 	O 	0.67940 0.19476 0.47944 -0.43700
O 	O 	0.62375 0.33318 0.38502 -0.37100
O 	O 	0.50400 0.21143 0.49791 -0.38100
C 	C 	0.46861 0.21941 0.47184 0.29100
C 	C 	0.70787 0.42475 0.47916 0.28600
O 	O 	0.64929 0.38345 0.48539 -0.38700
O 	O 	0.49568 0.26951 0.45417 -0.38200
O 	O 	0.68972 0.30186 0.39275 -0.35000
C 	C 	0.72362 0.21803 0.45630 0.29000
O 	O 	0.59873 0.26900 0.56591 -0.36900
O 	O 	0.68494 0.26699 0.58497 -0.40300
H 	H 	0.57209 0.21448 0.43163 0.16800
H 	H 	0.71815 0.34869 0.53054 0.18400
C 	C 	0.61529 0.22213 0.69336 0.07800
C 	C 	0.64617 0.21814 0.72879 -0.08100
C 	C 	0.65040 0.24907 0.76709 0.00900
C 	C 	0.63411 0.29024 0.76953 0.07800
C 	C 	0.61128 0.30081 0.73355 -0.08000
C 	C 	0.59704 0.26202 0.69586 0.01300
N 	N 	0.62566 0.21319 0.65511 -0.15300
C 	C 	0.61415 0.24692 0.63316 0.00300
C 	C 	0.59667 0.27830 0.65731 -0.03900
N 	N 	0.66710 0.33356 0.80464 -0.15100
C 	C 	0.70345 0.31963 0.82528 -0.00300
C 	C 	0.69592 0.26867 0.80200 -0.04700
H 	H 	0.66946 0.19535 0.72632 0.05400
H 	H 	0.60839 0.33980 0.73451 0.06000
H 	H 	0.60347 0.32105 0.65182 0.05400
H 	H 	0.70974 0.24066 0.81346 0.03400
H 	H 	0.65460 0.19955 0.64794 0.08400
H 	H 	0.65602 0.36284 0.81733 0.09600
C 	C 	0.71866 0.35298 0.20301 0.08200
C 	C 	0.73749 0.34088 0.23990 -0.07800
C 	C 	0.71192 0.34573 0.27437 0.01600
C 	C 	0.66198 0.35131 0.27029 0.08400
C 	C 	0.63716 0.35470 0.23193 -0.08000
C 	C 	0.67026 0.36076 0.19949 0.01800
N 	N 	0.72379 0.33398 0.16539 -0.15100
C 	C 	0.68026 0.33153 0.13751 0.01800
C 	C 	0.64418 0.34513 0.15796 -0.04400
N 	N 	0.62733 0.32827 0.30016 -0.15200
C 	C 	0.65602 0.30996 0.32460 0.01000
C 	C 	0.70737 0.31774 0.30835 -0.04200
H 	H 	0.76770 0.32525 0.24107 0.06200
H 	H 	0.59231 0.34940 0.22701 0.06100
H 	H 	0.61472 0.35764 0.14397 0.05300
H 	H 	0.74569 0.31816 0.32485 0.06200
H 	H 	0.76430 0.33776 0.15875 0.10000
H 	H 	0.59402 0.33578 0.30792 0.09500
C 	C 	0.81293 0.70033 0.43620 -0.01900
C 	C 	0.80159 0.68098 0.47470 0.00600
C 	C 	0.81273 0.72338 0.50919 -0.03800
C 	C 	0.83689 0.78533 0.50587 -0.01600
C 	C 	0.85012 0.80523 0.46765 -0.00200
C 	C 	0.83671 0.76210 0.43284 -0.03400
C 	C 	0.77688 0.61586 0.47894 0.02800
C 	C 	0.82041 0.60343 0.49278 -0.06100
C 	C 	0.79844 0.54150 0.49427 0.02800
C 	C 	0.73217 0.49119 0.48123 -0.08200
C 	C 	0.68854 0.50413 0.46858 0.01400
C 	C 	0.71047 0.56600 0.46760 -0.04300
C 	C 	0.84384 0.53036 0.51034 0.07700
C 	C 	0.66455 0.57790 0.45447 0.09300
C 	C 	0.80123 0.65734 0.40015 0.08700
C 	C 	0.84885 0.82845 0.54191 0.08400
N 	N 	0.88023 0.52145 0.52323 -0.10800
N 	N 	0.62781 0.58749 0.44394 -0.11300
N 	N 	0.85845 0.86306 0.57076 -0.10800
N 	N 	0.79182 0.62285 0.37130 -0.11000
H 	H 	0.84688 0.77732 0.40343 0.05000
H 	H 	0.80303 0.70826 0.53866 0.05100
H 	H 	0.87144 0.64192 0.50210 0.05700
H 	H 	0.63756 0.46581 0.45868 0.02900
C 	C 	0.72643 0.08092 0.42258 -0.04300
C 	C 	0.79157 0.10714 0.43731 0.02800
C 	C 	0.83614 0.17216 0.45230 -0.06200
C 	C 	0.81542 0.21032 0.45564 0.02400
C 	C 	0.74933 0.18326 0.44356 -0.08800
C 	C 	0.70575 0.11908 0.42561 0.01300
C 	C 	0.81253 0.06617 0.44035 0.00200
C 	C 	0.82965 0.04816 0.40590 -0.03200
C 	C 	0.85175 0.01136 0.40870 -0.02800
C 	C 	0.85774 0.99306 0.44656 0.01200
C 	C 	0.83847 0.00926 0.48056 -0.04600
C 	C 	0.81582 0.04554 0.47764 -0.01400
C 	C 	0.86789 0.99235 0.37259 0.09000
C 	C 	0.79641 0.06175 0.51310 0.08200
C 	C 	0.68012 0.01454 0.40555 0.08800
C 	C 	0.86180 0.27650 0.47325 0.06700
N 	N 	0.88085 0.97710 0.34368 -0.11200
N 	N 	0.78084 0.07477 0.54149 -0.11700
N 	N 	0.89898 0.32952 0.48737 -0.10900
N 	N 	0.64306 0.96134 0.39192 -0.11000
H 	H 	0.65514 0.09829 0.41562 0.03800
H 	H 	0.88654 0.19261 0.46285 0.05600
H 	H 	0.82602 0.06301 0.37699 0.05000
H 	H 	0.84260 0.99491 0.50960 0.05800
C 	C 	0.14851 0.01618 0.43783 -0.02900
C 	C 	0.19316 0.07364 0.46580 0.01000
C 	C 	0.17070 0.09794 0.49246 -0.03900
C 	C 	0.10448 0.06467 0.49230 -0.01300
C 	C 	0.05970 0.00809 0.46348 -0.01000
C 	C 	0.08221 0.98462 0.43615 -0.02400
C 	C 	0.26364 0.10910 0.46706 0.02600
C 	C 	0.28966 0.13548 0.43291 -0.05900
C 	C 	0.35577 0.16813 0.43306 0.02600
C 	C 	0.39757 0.17891 0.46910 -0.08000
C 	C 	0.37132 0.15213 0.50322 0.01200
C 	C 	0.30465 0.11639 0.50206 -0.04200
C 	C 	0.37956 0.18728 0.39542 0.07000
C 	C 	0.27861 0.08656 0.53663 0.09100
C 	C 	0.17037 0.98852 0.41150 0.09000
C 	C 	0.08309 0.08767 0.52277 0.08200
N 	N 	0.39853 0.20254 0.36525 -0.11800
N 	N 	0.25771 0.06265 0.56431 -0.11300
N 	N 	0.06594 0.10607 0.54717 -0.11000
N 	N 	0.18792 0.96640 0.39042 -0.11200
H 	H 	0.04798 0.94108 0.41406 0.04600
H 	H 	0.20495 0.14216 0.51393 0.05200
H 	H 	0.25806 0.12924 0.40578 0.05600
H 	H 	0.40281 0.15941 0.53080 0.04700
C 	C 	0.87799 0.66941 0.94956 -0.04300
C 	C 	0.88580 0.70945 0.98466 0.03000
C 	C 	0.86102 0.68457 0.01945 -0.06100
C 	C 	0.82845 0.62038 0.01953 0.02600
C 	C 	0.81580 0.57937 0.98316 -0.08000
C 	C 	0.84205 0.60455 0.94867 0.01400
C 	C 	0.91810 0.77724 0.98485 0.00800
C 	C 	0.88902 0.79539 0.95815 -0.03600
C 	C 	0.91806 0.85915 0.95832 -0.01500
C 	C 	0.97487 0.90555 0.98733 -0.00100
C 	C 	0.00324 0.88729 0.01457 -0.03500
C 	C 	0.97621 0.82363 0.01272 -0.02100
C 	C 	0.89065 0.87657 0.92768 0.08700
C 	C 	0.00919 0.80632 0.03876 0.08400
C 	C 	0.90730 0.69463 0.91456 0.09400
C 	C 	0.81100 0.59756 0.05758 0.06500
N 	N 	0.86874 0.89056 0.90315 -0.10500
N 	N 	0.03558 0.79243 0.05960 -0.11100
N 	N 	0.79708 0.57933 0.08808 -0.11800
N 	N 	0.93079 0.71486 0.88654 -0.11100
H 	H 	0.83386 0.57361 0.92096 0.04900
H 	H 	0.86792 0.71550 0.04671 0.05800
H 	H 	0.84423 0.75974 0.93679 0.05300
H 	H 	0.04720 0.92286 0.03663 0.04800
C 	C 	0.78305 0.10884 0.00385 -0.04300
C 	C 	0.85069 0.15194 0.00842 0.02800
C 	C 	0.88007 0.21654 0.01316 -0.06300
C 	C 	0.84249 0.23832 0.01115 0.02600
C 	C 	0.77449 0.19495 0.00460 -0.09300
C 	C 	0.74531 0.13053 0.00183 0.01400
C 	C 	0.89064 0.12956 0.00475 0.00300
C 	C 	0.89548 0.10994 0.96531 -0.03500
C 	C 	0.93366 0.08937 0.96102 -0.01700
C 	C 	0.96793 0.08888 0.99653 -0.00000
C 	C 	0.96364 0.10912 0.03599 -0.03800
C 	C 	0.92508 0.12932 0.04028 -0.01800
C 	C 	0.93684 0.06806 0.92009 0.08600
C 	C 	0.92043 0.14898 0.08119 0.08500
C 	C 	0.75205 0.04227 0.00076 0.08800
C 	C 	0.87392 0.30494 0.01383 0.05800
N 	N 	0.93944 0.05096 0.88734 -0.10600
N 	N 	0.91668 0.16474 0.11396 -0.11000
N 	N 	0.89910 0.35829 0.01596 -0.12000
N 	N 	0.72727 0.98895 0.99828 -0.10800
H 	H 	0.69315 0.09719 0.99719 0.04100
H 	H 	0.93219 0.24971 0.01710 0.05600
H 	H 	0.86923 0.11046 0.93799 0.04800
H 	H 	0.98968 0.10834 0.06331 0.04800
C 	C 	0.40653 0.23083 0.95069 -0.04400
C 	C 	0.36864 0.19522 0.97884 0.02800
C 	C 	0.39601 0.18260 0.01123 -0.06200
C 	C 	0.46181 0.20905 0.01764 0.02400
C 	C 	0.50013 0.24564 0.98981 -0.08400
C 	C 	0.47140 0.25435 0.95569 0.01000
C 	C 	0.30056 0.17210 0.97531 0.00700
C 	C 	0.25415 0.12517 0.94168 -0.03700
C 	C 	0.18875 0.09822 0.94006 -0.01600
C 	C 	0.16894 0.11509 0.97376 -0.00200
C 	C 	0.21565 0.16513 0.00589 -0.03600
C 	C 	0.28134 0.19442 0.00644 -0.02200
C 	C 	0.14223 0.05345 0.90374 0.08500
C 	C 	0.32872 0.24712 0.03910 0.08300
C 	C 	0.37988 0.24543 0.91748 0.09100
C 	C 	0.49016 0.20140 0.05408 0.07600
N 	N 	0.10492 0.01758 0.87467 -0.10700
N 	N 	0.36671 0.28934 0.06525 -0.11300
N 	N 	0.51283 0.19531 0.08331 -0.10700
N 	N 	0.35851 0.25711 0.89090 -0.11300
H 	H 	0.50031 0.28151 0.93383 0.03900
H 	H 	0.36653 0.15420 0.03246 0.05600
H 	H 	0.26896 0.10925 0.91703 0.05100
H 	H 	0.20073 0.17960 0.03125 0.04700
