data_crystal

_cell_length_a 26.73535
_cell_length_b 26.57003
_cell_length_c 32.76046
_cell_angle_alpha 95.51672
_cell_angle_beta  95.51614
_cell_angle_gamma 125.72721

_symmetry_space_group_name_	'P 1'
_symmetry_space_group_name_H-M	'P 1'

loop_
_symmetry_equiv_pos_as_xyz
  x,y,z

loop_
_atom_site_label
_atom_site_type_symbol
_atom_site_fract_x
_atom_site_fract_y
_atom_site_fract_z
_atom_site_charge
N 	N 	0.01269 0.08105 0.99682 -0.14400
C 	C 	0.04296 0.05411 0.99729 0.13100
N 	N 	0.00946 0.99032 0.99357 -0.14300
N 	N 	0.99649 0.00732 0.43192 -0.15100
C 	C 	0.02962 0.98355 0.43058 0.14100
N 	N 	0.00265 0.92324 0.43572 -0.14600
C 	C 	0.12267 0.99964 0.40925 -0.02600
C 	C 	0.09588 0.02439 0.42620 -0.08000
H 	H 	0.09484 0.94910 0.39761 0.04400
H 	H 	0.12330 0.07493 0.43756 0.05600
C 	C 	0.14374 0.07082 0.99528 -0.03300
C 	C 	0.11213 0.09476 0.00249 -0.07100
H 	H 	0.11845 0.02039 0.98455 0.04400
H 	H 	0.13746 0.14561 0.01049 0.05400
C 	C 	0.94916 0.04455 0.99183 0.13100
C 	C 	0.94579 0.95375 0.98859 0.13100
N 	N 	0.91587 0.98096 0.98693 -0.14800
C 	C 	0.93589 0.97032 0.43729 0.13400
C 	C 	0.94211 0.88596 0.44068 0.13200
N 	N 	0.90856 0.90942 0.44123 -0.14700
Cu	Cu	0.63339 0.27160 0.02226 0.92800
Cu	Cu	0.65920 0.24368 0.92990 0.86800
Cu	Cu	0.64959 0.34918 0.95428 0.89500
Cu	Cu	0.63422 0.39131 0.03862 0.89200
C 	C 	0.67706 0.34804 0.10384 0.25900
O 	O 	0.54509 0.23655 0.02973 -0.36800
C 	C 	0.61967 0.28453 0.86644 0.25900
O 	O 	0.67809 0.36510 0.01333 -0.63800
O 	O 	0.61035 0.25975 0.96090 -0.64100
O 	O 	0.67266 0.22694 0.02322 -0.38200
O 	O 	0.72813 0.27413 0.97318 -0.45000
O 	O 	0.64231 0.36677 0.09319 -0.38000
O 	O 	0.69355 0.43786 0.95189 -0.38600
C 	C 	0.70114 0.48023 0.98165 0.30400
C 	C 	0.51429 0.25563 0.01195 0.30100
O 	O 	0.54501 0.31112 0.00071 -0.39000
O 	O 	0.66270 0.46319 0.00864 -0.39500
O 	O 	0.66841 0.29901 0.08084 -0.35200
C 	C 	0.72023 0.24459 0.00455 0.31200
O 	O 	0.63339 0.33407 0.89248 -0.37400
O 	O 	0.61011 0.23509 0.87999 -0.41500
H 	H 	0.72429 0.39436 0.02223 0.16000
H 	H 	0.56477 0.23076 0.94939 0.17100
Cu	Cu	0.73010 0.31643 0.44972 0.92800
Cu	Cu	0.73359 0.26789 0.53761 0.87000
Cu	Cu	0.62273 0.26021 0.49838 0.89800
Cu	Cu	0.60286 0.29530 0.41524 0.89400
C 	C 	0.70229 0.32342 0.36596 0.26300
O 	O 	0.75816 0.40612 0.45295 -0.37500
C 	C 	0.66189 0.28160 0.58991 0.26000
O 	O 	0.63166 0.25401 0.44111 -0.63600
O 	O 	0.71662 0.31708 0.50786 -0.64300
O 	O 	0.78474 0.28819 0.45248 -0.38000
O 	O 	0.72651 0.21414 0.49115 -0.44500
O 	O 	0.64448 0.30573 0.36552 -0.37600
O 	O 	0.53214 0.20164 0.48488 -0.38600
C 	C 	0.49687 0.20318 0.45467 0.30900
C 	C 	0.72156 0.42201 0.46139 0.30500
O 	O 	0.66330 0.37857 0.46411 -0.39700
O 	O 	0.52091 0.25116 0.43471 -0.39800
O 	O 	0.72664 0.30402 0.39107 -0.36000
C 	C 	0.76801 0.23683 0.46661 0.30900
O 	O 	0.61519 0.25205 0.55731 -0.38000
O 	O 	0.71819 0.29869 0.58612 -0.41200
H 	H 	0.61179 0.21032 0.42663 0.16400
H 	H 	0.73501 0.35950 0.52402 0.17100
C 	C 	0.62375 0.24805 0.76199 0.07100
C 	C 	0.59908 0.21432 0.72073 -0.08200
C 	C 	0.63300 0.24476 0.68996 0.00600
C 	C 	0.68279 0.30843 0.69868 0.07400
C 	C 	0.70129 0.34439 0.73883 -0.08300
C 	C 	0.67400 0.31157 0.77077 0.00600
N 	N 	0.59003 0.23326 0.79255 -0.15200
C 	C 	0.61952 0.28665 0.82177 -0.00300
C 	C 	0.67026 0.33705 0.80805 -0.04700
N 	N 	0.69104 0.33258 0.66363 -0.15200
C 	C 	0.64804 0.28422 0.63200 -0.00100
C 	C 	0.60912 0.22943 0.64775 -0.04400
H 	H 	0.55425 0.16805 0.71274 0.05100
H 	H 	0.73296 0.39549 0.74447 0.05100
H 	H 	0.70888 0.38121 0.82783 0.04300
H 	H 	0.57993 0.18191 0.62957 0.04200
H 	H 	0.55801 0.18741 0.79760 0.08400
H 	H 	0.73213 0.37495 0.66009 0.08200
C 	C 	0.76658 0.37742 0.20307 0.07500
C 	C 	0.77389 0.34837 0.23434 -0.08200
C 	C 	0.77522 0.36975 0.27558 0.01000
C 	C 	0.75902 0.41035 0.28425 0.07600
C 	C 	0.74372 0.43299 0.25205 -0.08400
C 	C 	0.75307 0.42016 0.21211 0.01100
N 	N 	0.74463 0.34963 0.16248 -0.15200
C 	C 	0.71707 0.37418 0.14562 0.00100
C 	C 	0.72110 0.41795 0.17537 -0.05000
N 	N 	0.73451 0.40111 0.31920 -0.15300
C 	C 	0.73514 0.35514 0.33290 0.00300
C 	C 	0.75975 0.33412 0.30671 -0.04100
H 	H 	0.77465 0.30829 0.22653 0.05300
H 	H 	0.72189 0.45628 0.25734 0.05000
H 	H 	0.68897 0.43034 0.17367 0.04600
H 	H 	0.74900 0.28763 0.30335 0.05000
H 	H 	0.73396 0.30586 0.15035 0.09400
H 	H 	0.70486 0.41277 0.32666 0.08100
C 	C 	0.79529 0.58716 0.43930 0.00300
C 	C 	0.82185 0.63244 0.47624 -0.03600
C 	C 	0.83872 0.69284 0.47489 -0.04700
C 	C 	0.82999 0.70875 0.43653 0.02100
C 	C 	0.80173 0.66296 0.39987 -0.04700
C 	C 	0.78511 0.60263 0.40117 -0.03600
C 	C 	0.85399 0.77428 0.43422 -0.02900
C 	C 	0.91486 0.82188 0.44843 -0.07700
C 	C 	0.78078 0.52448 0.43999 0.00800
C 	C 	0.74478 0.48819 0.46583 -0.15500
H 	H 	0.83047 0.62120 0.50581 0.03800
H 	H 	0.85971 0.72765 0.50348 0.04100
H 	H 	0.79444 0.67470 0.37018 0.04000
H 	H 	0.76465 0.56800 0.37252 0.03500
H 	H 	0.82351 0.78272 0.41700 0.04200
H 	H 	0.94609 0.81219 0.46275 0.05400
H 	H 	0.79443 0.50538 0.41640 0.03600
H 	H 	0.72676 0.50527 0.48707 0.07400
C 	C 	0.82940 0.13792 0.46852 0.00100
C 	C 	0.80406 0.07756 0.47719 -0.03600
C 	C 	0.83525 0.05045 0.47152 -0.04700
C 	C 	0.89176 0.08307 0.45636 0.02100
C 	C 	0.91713 0.14345 0.44771 -0.04800
C 	C 	0.88648 0.17101 0.45406 -0.03600
C 	C 	0.92801 0.05734 0.45355 -0.03000
C 	C 	0.89958 0.99583 0.43867 -0.07600
C 	C 	0.79950 0.16872 0.47923 0.00900
C 	C 	0.79578 0.20461 0.45464 -0.15800
H 	H 	0.76083 0.05219 0.48921 0.03500
H 	H 	0.81643 0.00499 0.48007 0.04000
H 	H 	0.96132 0.16959 0.43688 0.04000
H 	H 	0.90806 0.21871 0.44893 0.03700
H 	H 	0.97882 0.08957 0.46273 0.04300
H 	H 	0.84891 0.96363 0.42883 0.05400
H 	H 	0.77873 0.16044 0.50708 0.02000
H 	H 	0.81530 0.21204 0.42632 0.08000
C 	C 	0.32123 0.11200 0.41400 0.00400
C 	C 	0.28761 0.13477 0.40095 -0.03600
C 	C 	0.22277 0.09817 0.39904 -0.04600
C 	C 	0.19106 0.03857 0.41051 0.02100
C 	C 	0.22427 0.01469 0.42175 -0.04700
C 	C 	0.28900 0.05106 0.42333 -0.03500
C 	C 	0.38992 0.15158 0.41653 0.00800
C 	C 	0.42819 0.15860 0.45006 -0.14900
H 	H 	0.31180 0.18102 0.39259 0.03800
H 	H 	0.19721 0.11596 0.38847 0.04200
H 	H 	0.19995 0.96807 0.42953 0.04200
H 	H 	0.31401 0.03183 0.43166 0.03800
H 	H 	0.40956 0.17881 0.39220 0.03100
H 	H 	0.40861 0.13187 0.47460 0.07900
C 	C 	0.80768 0.66064 0.00900 0.00500
C 	C 	0.79431 0.70190 0.02421 -0.03600
C 	C 	0.83466 0.76596 0.02233 -0.04700
C 	C 	0.88900 0.78946 0.00530 0.02300
C 	C 	0.90356 0.74867 0.99138 -0.05000
C 	C 	0.86302 0.68444 0.99312 -0.03900
C 	C 	0.93124 0.85709 0.00277 -0.02700
C 	C 	0.90850 0.88455 0.98415 -0.08000
C 	C 	0.76530 0.59322 0.01204 0.00900
C 	C 	0.74369 0.54747 0.97870 -0.15200
H 	H 	0.75248 0.68426 0.03732 0.03800
H 	H 	0.82382 0.79738 0.03420 0.04300
H 	H 	0.94594 0.76656 0.97892 0.03900
H 	H 	0.87485 0.65338 0.98249 0.03600
H 	H 	0.98065 0.88454 0.01675 0.04200
H 	H 	0.85940 0.85596 0.96909 0.05500
H 	H 	0.74906 0.58103 0.04122 0.02800
H 	H 	0.75938 0.55978 0.94940 0.07800
C 	C 	0.84125 0.21107 0.00352 0.00300
C 	C 	0.81124 0.14924 0.01097 -0.03700
C 	C 	0.84439 0.12381 0.01478 -0.04700
C 	C 	0.90730 0.15911 0.00981 0.02000
C 	C 	0.93775 0.22140 0.00362 -0.04800
C 	C 	0.90475 0.24709 0.00017 -0.03500
C 	C 	0.94175 0.13131 0.01137 -0.02600
C 	C 	0.91585 0.07325 0.98976 -0.08100
C 	C 	0.80487 0.23571 0.99434 0.00100
C 	C 	0.76184 0.22701 0.01697 -0.15600
H 	H 	0.76190 0.12035 0.01274 0.03600
H 	H 	0.82095 0.07641 0.02104 0.04100
H 	H 	0.98657 0.24941 0.00050 0.04000
H 	H 	0.92828 0.29467 0.99423 0.03300
H 	H 	0.98957 0.15960 0.02886 0.04200
H 	H 	0.86838 0.04547 0.97175 0.05300
H 	H 	0.81383 0.26168 0.96894 0.02700
H 	H 	0.75556 0.20437 0.04390 0.07900
C 	C 	0.21266 0.11303 0.99782 0.01800
C 	C 	0.23926 0.10198 0.96654 -0.04500
C 	C 	0.30417 0.14214 0.96834 -0.04000
C 	C 	0.34315 0.19328 0.00180 0.00800
C 	C 	0.31664 0.20410 0.03322 -0.03800
C 	C 	0.25185 0.16367 0.03162 -0.04200
C 	C 	0.41179 0.23603 0.00399 0.00700
C 	C 	0.44518 0.21314 0.00303 -0.14600
H 	H 	0.20959 0.06278 0.94054 0.04000
H 	H 	0.32409 0.13372 0.94368 0.03800
H 	H 	0.34634 0.24330 0.05921 0.03800
H 	H 	0.23219 0.17157 0.05669 0.04100
H 	H 	0.43575 0.28675 0.01063 0.03200
H 	H 	0.42138 0.16254 0.99945 0.07100
