data_crystal

_cell_length_a 25.76775
_cell_length_b 27.06546
_cell_length_c 36.81054
_cell_angle_alpha 60.96968
_cell_angle_beta  118.71672
_cell_angle_gamma 133.27814

_symmetry_space_group_name_	'P 1'
_symmetry_space_group_name_H-M	'P 1'

loop_
_symmetry_equiv_pos_as_xyz
  x,y,z

loop_
_atom_site_label
_atom_site_type_symbol
_atom_site_fract_x
_atom_site_fract_y
_atom_site_fract_z
_atom_site_charge
Co	Co	0.06272 0.01543 0.06730 1.17300
Co	Co	0.01844 0.06970 0.10242 1.18200
Co	Co	0.06096 0.89642 0.06325 1.16600
O 	O 	0.07062 0.09883 0.06103 -0.47500
C 	C 	0.09764 0.15679 0.16621 0.26300
C 	C 	0.10115 0.84246 0.15621 0.26500
O 	O 	0.04166 0.11747 0.18397 -0.38800
O 	O 	0.08807 0.15691 0.12726 -0.37800
O 	O 	0.12885 0.88788 0.12232 -0.37800
O 	O 	0.06251 0.84486 0.16879 -0.36800
O 	O 	0.04344 0.93547 0.09028 -0.75700
O 	O 	0.14539 0.99615 0.03803 -0.37200
O 	O 	0.17114 0.06307 0.07360 -0.38700
Co	Co	0.05575 0.02734 0.56722 1.17800
C 	C 	0.21132 0.09202 0.58271 0.27700
Co	Co	0.11209 0.94038 0.58418 1.17200
O 	O 	0.03467 0.09666 0.54868 -0.47400
C 	C 	0.03719 0.17430 0.62399 0.27700
C 	C 	0.14193 0.90513 0.67816 0.27400
O 	O 	0.05582 0.14285 0.61994 -0.39400
O 	O 	0.17408 0.94677 0.64604 -0.37800
O 	O 	0.09662 0.90919 0.68191 -0.38200
O 	O 	0.04744 0.95272 0.59363 -0.75800
C 	C 	0.98824 0.00302 0.72856 0.19700
O 	O 	0.18652 0.04786 0.56268 -0.40200
O 	O 	0.16588 0.08654 0.59387 -0.40200
C 	C 	0.03422 0.01845 0.83069 0.06800
C 	C 	0.05171 0.05766 0.85459 -0.06800
C 	C 	0.00364 0.02602 0.87943 -0.02700
O 	O 	0.05779 0.04949 0.79349 -0.20800
C 	C 	0.02407 0.04065 0.91618 -0.08500
H 	H 	0.09985 0.11146 0.85293 0.05700
H 	H 	0.07980 0.07985 0.92985 0.04900
C 	C 	0.02800 0.03722 0.35413 -0.13100
C 	C 	0.02476 0.00005 0.33568 0.00400
C 	C 	0.02956 0.02034 0.29550 -0.09700
O 	O 	0.01725 0.02946 0.41948 -0.22800
H 	H 	0.05967 0.09376 0.34417 0.07100
H 	H 	0.03762 0.06851 0.27303 0.05300
C 	C 	0.10503 0.32433 0.64474 0.00700
C 	C 	0.12223 0.28734 0.68440 0.08200
N 	N 	0.11709 0.23714 0.68054 -0.15300
C 	C 	0.09277 0.23942 0.63820 -0.00100
C 	C 	0.08936 0.29651 0.61492 -0.04100
H 	H 	0.05792 0.30249 0.58243 0.04600
H 	H 	0.11102 0.19323 0.70511 0.09900
C 	C 	0.14251 0.76116 0.71092 0.08200
C 	C 	0.11195 0.69075 0.71885 -0.09200
N 	N 	0.10352 0.78572 0.69694 -0.15300
C 	C 	0.14977 0.84837 0.70676 -0.00600
H 	H 	0.05656 0.65541 0.70260 0.05400
H 	H 	0.04636 0.75584 0.68926 0.08900
C 	C 	0.24616 0.31686 0.25308 -0.08000
C 	C 	0.23855 0.28627 0.22738 0.00900
C 	C 	0.16863 0.21376 0.18532 0.00100
C 	C 	0.18589 0.21641 0.22674 -0.04600
H 	H 	0.22424 0.28524 0.28138 0.05200
H 	H 	0.14917 0.17767 0.24820 0.04800
C 	C 	0.11715 0.65647 0.18638 -0.08100
C 	C 	0.13418 0.72021 0.18205 0.01100
C 	C 	0.11359 0.78829 0.18054 0.00600
C 	C 	0.08537 0.73688 0.16268 -0.05000
H 	H 	0.07487 0.62626 0.16269 0.05300
H 	H 	0.04551 0.72624 0.13264 0.04700
O 	O 	0.03274 0.98430 0.12734 -0.56900
O 	O 	0.98129 0.05401 0.70317 -0.36600
O 	O 	0.99689 0.97338 0.71391 -0.34900
H 	H 	0.11840 0.59379 0.71610 0.05200
C 	C 	0.99448 0.96443 0.98686 0.24100
C 	C 	0.00587 0.99238 0.77483 0.10800
N 	N 	0.20877 0.27874 0.16110 -0.15200
H 	H 	0.15762 0.58320 0.19178 0.08400
H 	H 	0.11540 0.42090 0.60681 0.05300
O 	O 	0.99841 0.99778 0.00626 -0.35800
Co	Co	0.00442 0.89760 0.63423 1.18500
C 	C 	0.12936 0.39222 0.63804 -0.07900
O 	O 	0.98720 0.90512 0.00757 -0.36200
C 	C 	0.19293 0.04769 0.05727 0.24700
H 	H 	0.20475 0.50179 0.23739 0.04300
H 	H 	0.15594 0.51313 0.74610 0.04100
C 	C 	0.17036 0.42059 0.67376 0.07000
C 	C 	0.16429 0.31593 0.72010 -0.08900
C 	C 	0.18859 0.38395 0.71359 0.02600
N 	N 	0.17092 0.46767 0.67779 -0.16900
C 	C 	0.19279 0.46409 0.72011 0.07400
C 	C 	0.20049 0.40966 0.74339 -0.08800
H 	H 	0.17738 0.28673 0.75137 0.05900
H 	H 	0.17487 0.51095 0.65338 0.08400
C 	C 	0.21368 0.80699 0.73032 0.00600
C 	C 	0.15673 0.66835 0.74714 0.02800
C 	C 	0.15611 0.62086 0.74156 -0.09000
C 	C 	0.21872 0.86213 0.72890 -0.03800
C 	C 	0.25085 0.32319 0.18630 0.07900
H 	H 	0.19277 0.29309 0.12782 0.09200
C 	C 	0.15900 0.63456 0.22132 0.07000
C 	C 	0.18813 0.75935 0.21199 0.08200
N 	N 	0.17627 0.59941 0.21889 -0.16900
N 	N 	0.17518 0.80024 0.21141 -0.15100
H 	H 	0.28457 0.22522 0.53324 0.08800
H 	H 	0.21436 0.84441 0.22390 0.09200
C 	C 	0.21258 0.67321 0.25205 0.02800
O 	O 	0.04547 0.02580 0.50765 -0.38400
O 	O 	0.04386 0.83200 0.60682 -0.39300
C 	C 	0.28924 0.15012 0.59019 -0.00000
N 	N 	0.26678 0.41911 0.25211 -0.16900
C 	C 	0.26178 0.54572 0.23757 -0.04200
C 	C 	0.21264 0.54920 0.74392 -0.04400
H 	H 	0.23146 0.40423 0.77609 0.05400
C 	C 	0.22820 0.71412 0.76801 0.07000
C 	C 	0.22704 0.63907 0.75985 0.07600
C 	C 	0.27313 0.39254 0.17024 -0.09000
H 	H 	0.27152 0.41784 0.13655 0.05700
C 	C 	0.22843 0.73668 0.24779 -0.08900
C 	C 	0.24086 0.61569 0.24734 0.07600
Co	Co	0.99685 0.88014 0.12900 1.18800
C 	C 	0.99286 0.99957 0.38766 0.17500
O 	O 	0.96795 0.14505 0.61795 -0.40200
C 	C 	0.27685 0.38844 0.23877 0.06900
Co	Co	0.97724 0.06349 0.58820 1.18300
H 	H 	0.27124 0.41095 0.28399 0.08400
C 	C 	0.97398 0.98021 0.94001 0.07800
C 	C 	0.96408 0.95797 0.23897 0.26300
O 	O 	0.04414 0.93102 0.52341 -0.37900
C 	C 	0.75059 0.30821 0.02676 -0.00800
C 	C 	0.78050 0.37324 0.03071 -0.04400
C 	C 	0.74690 0.37685 0.04931 -0.00700
C 	C 	0.68163 0.31623 0.06195 -0.04200
C 	C 	0.65242 0.25130 0.05894 -0.00900
C 	C 	0.68836 0.24705 0.04282 -0.04200
H 	H 	0.82882 0.42066 0.01887 0.04300
H 	H 	0.65273 0.31998 0.07317 0.04300
H 	H 	0.66727 0.19631 0.04233 0.03900
C 	C 	0.69643 0.32193 0.49431 -0.00700
C 	C 	0.62852 0.29242 0.49931 -0.04300
C 	C 	0.61905 0.33252 0.50576 -0.00900
C 	C 	0.67558 0.40380 0.50392 -0.04200
C 	C 	0.74211 0.43473 0.49671 -0.00800
C 	C 	0.75289 0.39369 0.49245 -0.04100
H 	H 	0.58381 0.23787 0.49957 0.03900
H 	H 	0.66924 0.43436 0.51030 0.04300
H 	H 	0.80578 0.41712 0.48917 0.04300
C 	C 	0.29009 0.60864 0.24344 -0.00800
C 	C 	0.30661 0.54032 0.23072 -0.00800
C 	C 	0.38060 0.59654 0.23177 -0.04300
C 	C 	0.40935 0.65930 0.23774 -0.00800
C 	C 	0.36383 0.66586 0.24268 -0.04200
H 	H 	0.41528 0.59216 0.22666 0.04300
H 	H 	0.38523 0.71580 0.24472 0.04300
C 	C 	0.25707 0.61725 0.74945 -0.00700
C 	C 	0.32963 0.66439 0.74445 -0.04200
C 	C 	0.35884 0.64200 0.73747 -0.00800
C 	C 	0.31510 0.57380 0.73354 -0.04200
C 	C 	0.24139 0.52837 0.73484 -0.00800
H 	H 	0.36253 0.71859 0.74469 0.04200
H 	H 	0.33718 0.55752 0.72654 0.04500
Co	Co	0.94713 0.93272 0.16135 1.19300
Co	Co	0.93290 0.04757 0.15638 1.15700
C 	C 	0.91231 0.77374 0.08126 0.27900
O 	O 	0.94335 0.12510 0.10002 -0.39500
O 	O 	0.97451 0.01571 0.14203 -0.78500
C 	C 	0.92250 0.11443 0.06268 0.27400
O 	O 	0.94458 0.85128 0.17023 -0.46300
C 	C 	0.80280 0.90798 0.13872 0.26800
O 	O 	0.93304 0.07566 0.05938 -0.39700
O 	O 	0.82851 0.97421 0.12765 -0.37100
O 	O 	0.83676 0.89012 0.13545 -0.38200
O 	O 	0.91692 0.97281 0.21431 -0.38100
O 	O 	0.98055 0.93463 0.22493 -0.36300
O 	O 	0.97627 0.79265 0.08397 -0.39900
O 	O 	0.90833 0.81178 0.09097 -0.39100
Co	Co	0.93180 0.93696 0.65815 1.19300
Co	Co	0.89924 0.04094 0.64771 1.16100
C 	C 	0.97244 0.79573 0.60039 0.27100
O 	O 	0.82309 0.02496 0.59019 -0.39500
O 	O 	0.93333 0.00802 0.62811 -0.78100
C 	C 	0.84219 0.06507 0.55326 0.26700
O 	O 	0.94535 0.86353 0.67304 -0.46400
C 	C 	0.79048 0.88532 0.66671 0.27900
O 	O 	0.96521 0.96621 0.60007 -0.56900
C 	C 	0.02265 0.97191 0.49726 0.28000
O 	O 	0.89760 0.08058 0.54491 -0.37500
O 	O 	0.83017 0.94075 0.68092 -0.39100
O 	O 	0.82107 0.87179 0.65612 -0.37600
O 	O 	0.94460 0.81001 0.61291 -0.38300
C 	C 	0.94249 0.95744 0.88195 0.15800
C 	C 	0.92522 0.91843 0.85800 -0.11800
C 	C 	0.97432 0.94944 0.83416 0.06600
C 	C 	0.95592 0.93264 0.79888 -0.10000
O 	O 	0.91921 0.92554 0.91931 -0.20100
H 	H 	0.87715 0.86459 0.85965 0.07300
H 	H 	0.90120 0.89154 0.78572 0.06300
C 	C 	0.98356 0.92812 0.34738 0.13600
C 	C 	0.94777 0.89029 0.38063 -0.08400
C 	C 	0.95186 0.92753 0.39957 -0.00300
O 	O 	0.96109 0.89849 0.31594 -0.19700
C 	C 	0.99194 0.95971 0.28403 0.07600
C 	C 	0.98934 0.96873 0.45216 0.06600
C 	C 	0.94964 0.90771 0.44035 -0.06100
H 	H 	0.91629 0.83376 0.39063 0.06500
H 	H 	0.94093 0.85909 0.46248 0.05600
C 	C 	0.62189 0.81420 0.67495 0.08400
C 	C 	0.55117 0.79686 0.66061 -0.09000
C 	C 	0.50170 0.74035 0.68669 0.02800
C 	C 	0.52224 0.70370 0.72554 0.07000
C 	C 	0.59281 0.72068 0.73952 -0.07700
C 	C 	0.64235 0.77770 0.71363 0.00900
N 	N 	0.66461 0.84538 0.64889 -0.15300
C 	C 	0.71491 0.83155 0.67132 0.00100
C 	C 	0.69987 0.78627 0.71111 -0.03900
N 	N 	0.48169 0.67537 0.75222 -0.16800
C 	C 	0.43322 0.69143 0.73037 0.07600
C 	C 	0.44650 0.73450 0.69002 -0.08900
H 	H 	0.53532 0.82589 0.63048 0.05900
H 	H 	0.60898 0.69205 0.76976 0.05300
H 	H 	0.73878 0.77875 0.73855 0.04600
H 	H 	0.40793 0.74318 0.66309 0.05600
H 	H 	0.67121 0.88754 0.62245 0.09000
H 	H 	0.47578 0.63448 0.77948 0.08500
C 	C 	0.25721 0.78424 0.76077 -0.07700
N 	N 	0.27001 0.69506 0.77635 -0.16800
H 	H 	0.31282 0.82033 0.77642 0.05500
H 	H 	0.26949 0.91324 0.73253 0.05100
H 	H 	0.32724 0.72706 0.78449 0.08500
C 	C 	0.29047 0.42541 0.19829 0.02600
C 	C 	0.27580 0.47682 0.22084 0.07500
C 	C 	0.28737 0.48037 0.18609 -0.09000
H 	H 	0.30955 0.52647 0.16042 0.05500
C 	C 	0.56519 0.79862 0.19570 0.07200
C 	C 	0.58285 0.82828 0.15617 -0.08000
C 	C 	0.62493 0.81708 0.15175 0.01000
C 	C 	0.65154 0.78050 0.18596 0.08200
C 	C 	0.63650 0.75334 0.22597 -0.09000
C 	C 	0.59340 0.76350 0.23036 0.02800
N 	N 	0.50011 0.77265 0.19885 -0.16800
C 	C 	0.48542 0.72021 0.23476 0.07700
C 	C 	0.54306 0.71415 0.25559 -0.08800
N 	N 	0.71367 0.80212 0.18146 -0.15300
C 	C 	0.72791 0.85334 0.14501 0.00600
C 	C 	0.67377 0.86408 0.12562 -0.04200
H 	H 	0.56211 0.85675 0.12934 0.05600
H 	H 	0.65744 0.72501 0.25277 0.05800
H 	H 	0.53719 0.66633 0.27699 0.05400
H 	H 	0.68202 0.91299 0.10457 0.05600
H 	H 	0.45963 0.77532 0.17260 0.08700
H 	H 	0.75393 0.79785 0.20698 0.08900
C 	C 	0.26472 0.66093 0.26885 -0.08800
H 	H 	0.27082 0.76735 0.27123 0.05900
H 	H 	0.32104 0.69558 0.28451 0.05500
C 	C 	0.77488 0.24780 0.50063 0.07100
C 	C 	0.81119 0.24416 0.48436 -0.08200
C 	C 	0.78664 0.17756 0.48720 0.00900
C 	C 	0.72614 0.11696 0.50417 0.07400
C 	C 	0.68799 0.12135 0.51847 -0.09100
C 	C 	0.71597 0.18756 0.51842 0.02300
N 	N 	0.77193 0.30214 0.48657 -0.16900
C 	C 	0.71039 0.27653 0.49477 0.07400
C 	C 	0.67485 0.20552 0.51520 -0.08900
N 	N 	0.73359 0.06472 0.52309 -0.15200
C 	C 	0.79930 0.09146 0.51994 -0.00100
C 	C 	0.83320 0.16123 0.49714 -0.04400
H 	H 	0.85811 0.29125 0.47115 0.05300
H 	H 	0.64099 0.07450 0.53170 0.04800
H 	H 	0.61794 0.16895 0.51686 0.04900
H 	H 	0.89206 0.19941 0.50090 0.05000
H 	H 	0.79785 0.34734 0.46321 0.08300
H 	H 	0.70671 0.02117 0.54681 0.08100
C 	C 	0.84117 0.60655 0.50222 0.07100
C 	C 	0.82608 0.64443 0.50629 -0.08100
C 	C 	0.85289 0.65829 0.54600 0.00900
C 	C 	0.89890 0.64127 0.57921 0.08000
C 	C 	0.91734 0.60676 0.57466 -0.09100
C 	C 	0.88680 0.58872 0.53580 0.02700
N 	N 	0.79158 0.55839 0.47901 -0.16800
C 	C 	0.80309 0.50853 0.49804 0.07600
C 	C 	0.86267 0.52636 0.53302 -0.08900
N 	N 	0.94281 0.68462 0.60532 -0.15200
C 	C 	0.92449 0.72895 0.58903 0.00200
C 	C 	0.86922 0.71470 0.55193 -0.04300
H 	H 	0.79107 0.65882 0.48023 0.05300
H 	H 	0.95268 0.59282 0.60078 0.05400
H 	H 	0.86980 0.48840 0.56021 0.05500
H 	H 	0.86073 0.75307 0.52648 0.04500
H 	H 	0.74138 0.54968 0.45976 0.08400
H 	H 	0.99378 0.69577 0.62489 0.08800
C 	C 	0.38783 0.24421 0.56860 0.08100
C 	C 	0.42645 0.29326 0.53608 -0.09000
C 	C 	0.48929 0.30200 0.54050 0.02700
C 	C 	0.50653 0.25666 0.57219 0.06900
C 	C 	0.46287 0.20220 0.60167 -0.08000
C 	C 	0.40675 0.20024 0.60130 0.00800
N 	N 	0.31631 0.21343 0.56212 -0.15100
C 	C 	0.34358 0.13985 0.61483 -0.04300
N 	N 	0.54495 0.25317 0.55974 -0.16900
C 	C 	0.55459 0.29762 0.52070 0.07500
C 	C 	0.51821 0.32690 0.50711 -0.09000
H 	H 	0.40546 0.31970 0.50723 0.05700
H 	H 	0.46892 0.16035 0.62194 0.04900
H 	H 	0.33322 0.08891 0.62937 0.04100
H 	H 	0.52638 0.37232 0.48097 0.05300
H 	H 	0.57631 0.23420 0.58027 0.08200
C 	C 	0.90771 0.25262 0.99758 0.06600
C 	C 	0.92064 0.30777 0.00403 -0.07000
C 	C 	0.86140 0.31030 0.99078 0.00800
C 	C 	0.79033 0.25543 0.97673 0.07400
C 	C 	0.77635 0.19571 0.97599 -0.08400
C 	C 	0.83657 0.19742 0.98387 0.00600
N 	N 	0.95048 0.23045 0.02132 -0.14600
C 	C 	0.90731 0.16101 0.02423 -0.00100
C 	C 	0.83600 0.13872 0.00113 -0.03800
N 	N 	0.74201 0.25292 0.98398 -0.17200
C 	C 	0.78152 0.30486 0.00338 0.07700
C 	C 	0.85616 0.34157 0.00837 -0.07800
H 	H 	0.97351 0.34419 0.02151 0.05200
H 	H 	0.72107 0.14810 0.97251 0.04800
H 	H 	0.78788 0.08568 0.00837 0.04100
H 	H 	0.89874 0.37000 0.03286 0.05100
H 	H 	0.99891 0.25537 0.04385 0.09100
H 	H 	0.68732 0.20990 0.98389 0.07800
C 	C 	0.75820 0.51898 0.03896 0.06700
C 	C 	0.76765 0.58319 0.01917 -0.07000
C 	C 	0.77935 0.61632 0.04504 0.00700
C 	C 	0.79351 0.59265 0.08935 0.08200
C 	C 	0.79539 0.53431 0.10916 -0.09100
C 	C 	0.77154 0.49523 0.08287 0.02700
N 	N 	0.76393 0.48944 0.02168 -0.16400
C 	C 	0.77827 0.44433 0.05446 0.07300
C 	C 	0.78765 0.45006 0.09329 -0.08900
N 	N 	0.83434 0.64584 0.10758 -0.15100
C 	C 	0.84690 0.70367 0.07541 0.00200
C 	C 	0.81412 0.68740 0.03601 -0.04000
H 	H 	0.76913 0.60771 0.98575 0.04800
H 	H 	0.81772 0.52209 0.14315 0.05600
H 	H 	0.78502 0.41170 0.12347 0.05300
H 	H 	0.83360 0.72451 0.00716 0.05300
H 	H 	0.74074 0.48618 0.98985 0.08000
H 	H 	0.86857 0.64711 0.13827 0.08700
C 	C 	0.48603 0.14160 0.08944 0.06800
C 	C 	0.44923 0.14811 0.10335 -0.08300
C 	C 	0.38793 0.14672 0.07476 0.01000
C 	C 	0.36101 0.13436 0.03491 0.07600
C 	C 	0.39591 0.12516 0.02153 -0.08400
C 	C 	0.45899 0.12920 0.04941 0.02200
N 	N 	0.55935 0.17692 0.10094 -0.16900
C 	C 	0.58002 0.18902 0.06825 0.07300
C 	C 	0.51886 0.15915 0.03597 -0.08900
N 	N 	0.28863 0.10423 0.02169 -0.15000
C 	C 	0.26902 0.09717 0.05295 0.00400
C 	C 	0.32921 0.12273 0.08661 -0.04500
H 	H 	0.46971 0.15723 0.13456 0.05100
H 	H 	0.37520 0.11598 0.99031 0.04700
H 	H 	0.52032 0.17784 0.00269 0.05400
H 	H 	0.32584 0.10493 0.11939 0.04600
H 	H 	0.59374 0.20707 0.12340 0.08100
H 	H 	0.25274 0.07368 0.99938 0.07900
