data_crystal

_cell_length_a 19.43635
_cell_length_b 18.24937
_cell_length_c 26.68499
_cell_angle_alpha 95.43914
_cell_angle_beta  95.44049
_cell_angle_gamma 126.43854

_symmetry_space_group_name_	'P 1'
_symmetry_space_group_name_H-M	'P 1'

loop_
_symmetry_equiv_pos_as_xyz
  x,y,z

loop_
_atom_site_label
_atom_site_type_symbol
_atom_site_fract_x
_atom_site_fract_y
_atom_site_fract_z
_atom_site_charge
C 	C 	0.93934 0.04565 0.97474 -0.04000
C 	C 	0.03033 0.10709 0.98906 0.03600
C 	C 	0.07933 0.07368 0.98742 -0.00500
H 	H 	0.06295 0.18084 0.00012 0.12600
C 	C 	0.01487 0.03219 0.46096 -0.16000
H 	H 	0.06043 0.10513 0.45947 0.16200
Cu	Cu	0.72139 0.33794 0.94476 0.93200
Cu	Cu	0.78783 0.33135 0.06320 0.94700
Cu	Cu	0.61406 0.31949 0.02660 0.93200
C 	C 	0.63744 0.30640 0.84060 0.33100
C 	C 	0.68901 0.33826 0.13270 0.32400
O 	O 	0.59445 0.28347 0.95394 -0.64500
O 	O 	0.75300 0.25044 0.94112 -0.30600
O 	O 	0.85043 0.32271 0.01643 -0.30300
O 	O 	0.49282 0.26532 0.02648 -0.29700
C 	C 	0.44617 0.28231 0.99768 0.23300
O 	O 	0.47574 0.33008 0.96044 -0.28000
O 	O 	0.68233 0.29084 0.87220 -0.32500
C 	C 	0.80934 0.25624 0.97611 0.27700
O 	O 	0.62884 0.33391 0.10188 -0.30700
H 	H 	0.54894 0.21621 0.94094 0.20000
Cu	Cu	0.71202 0.28932 0.44342 0.94000
Cu	Cu	0.76377 0.26716 0.56259 0.91400
Cu	Cu	0.57994 0.21837 0.51545 0.92100
Cu	Cu	0.54180 0.27550 0.41735 0.93500
C 	C 	0.64791 0.28338 0.33956 0.31600
C 	C 	0.64781 0.25600 0.62625 0.32800
O 	O 	0.57828 0.20948 0.44331 -0.63000
O 	O 	0.70944 0.30369 0.51848 -0.62700
O 	O 	0.76702 0.22441 0.43728 -0.26100
O 	O 	0.83928 0.27854 0.51962 -0.36700
O 	O 	0.57644 0.27115 0.34955 -0.30900
O 	O 	0.45404 0.13871 0.50587 -0.32100
C 	C 	0.40660 0.15091 0.47416 0.30000
O 	O 	0.44349 0.22721 0.45488 -0.30300
O 	O 	0.68984 0.26252 0.36972 -0.29400
C 	C 	0.81012 0.22006 0.47648 0.28600
O 	O 	0.58117 0.20192 0.58763 -0.33700
O 	O 	0.72868 0.30046 0.61942 -0.35200
H 	H 	0.54407 0.14462 0.42470 0.23400
C 	C 	0.58661 0.18856 0.70281 0.11000
C 	C 	0.63225 0.26625 0.67870 -0.08300
C 	C 	0.63719 0.29190 0.78525 -0.08700
C 	C 	0.58665 0.20151 0.75582 0.11400
Br	Br	0.51744 0.09580 0.78800 -0.10900
Br	Br	0.52810 0.06520 0.66415 -0.10400
C 	C 	0.67735 0.32412 0.18567 -0.07600
C 	C 	0.61530 0.23439 0.19503 0.11100
C 	C 	0.60842 0.21966 0.24578 0.11800
C 	C 	0.66523 0.29412 0.28716 -0.07100
Br	Br	0.52313 0.09711 0.25879 -0.03200
Br	Br	0.54097 0.13152 0.13836 -0.08400
C 	C 	0.83050 0.03014 0.42839 -0.02700
C 	C 	0.89783 0.05124 0.46655 0.02500
C 	C 	0.93412 0.12611 0.50791 -0.10800
C 	C 	0.91349 0.18745 0.50506 0.06500
C 	C 	0.84145 0.16298 0.46961 -0.00300
C 	C 	0.79596 0.07960 0.43231 -0.05200
C 	C 	0.71043 0.04144 0.39771 0.73800
H 	H 	0.95042 0.25204 0.53257 0.09600
C 	C 	0.99300 0.14031 0.55562 0.75900
F 	F 	0.72597 0.09475 0.36053 -0.40100
F 	F 	0.65416 0.04098 0.42605 -0.44100
F 	F 	0.07764 0.18891 0.54756 -0.36800
F 	F 	0.96587 0.05622 0.56815 -0.40100
F 	F 	0.99158 0.19056 0.59724 -0.40000
C 	C 	0.17042 0.02984 0.42059 0.06200
C 	C 	0.13665 0.01980 0.46567 -0.02500
C 	C 	0.18938 0.04058 0.51339 -0.06900
C 	C 	0.27697 0.07706 0.51502 0.05600
C 	C 	0.31151 0.09098 0.47008 0.01900
C 	C 	0.25591 0.05967 0.42202 -0.08000
C 	C 	0.28799 0.06064 0.37219 0.74700
H 	H 	0.12917 0.01212 0.38419 0.10000
H 	H 	0.31939 0.09810 0.55146 0.10900
C 	C 	0.15212 0.02247 0.56224 0.74200
F 	F 	0.34565 0.03950 0.37668 -0.43100
F 	F 	0.32903 0.14740 0.35949 -0.42200
F 	F 	0.11491 0.06681 0.56932 -0.36000
F 	F 	0.21563 0.05471 0.60505 -0.38800
C 	C 	0.84726 0.08397 0.00853 0.03300
C 	C 	0.88909 0.08239 0.96894 0.08300
C 	C 	0.89032 0.12451 0.92666 -0.12500
C 	C 	0.86188 0.17979 0.92899 0.08400
C 	C 	0.82539 0.18648 0.97039 -0.02300
C 	C 	0.81112 0.13173 0.00827 -0.04600
C 	C 	0.76130 0.12741 0.04985 0.76500
H 	H 	0.84496 0.05010 0.04027 0.10700
H 	H 	0.87069 0.21999 0.89945 0.09500
C 	C 	0.92638 0.11523 0.88048 0.76700
F 	F 	0.72888 0.04847 0.07057 -0.40000
F 	F 	0.69134 0.12506 0.03025 -0.46400
F 	F 	0.81627 0.20422 0.08857 -0.46400
F 	F 	0.89829 0.02519 0.86677 -0.39200
F 	F 	0.01636 0.17476 0.89198 -0.38600
F 	F 	0.89892 0.13698 0.83855 -0.39600
C 	C 	0.31457 0.17334 0.03450 0.04700
C 	C 	0.35770 0.24614 0.00710 0.08400
C 	C 	0.31136 0.27564 0.98393 -0.10500
C 	C 	0.22006 0.21562 0.97513 0.03700
C 	C 	0.17604 0.13943 0.99988 0.06700
C 	C 	0.22529 0.12561 0.03497 -0.08100
C 	C 	0.18460 0.06228 0.07340 0.74800
H 	H 	0.35013 0.15375 0.05539 0.11200
H 	H 	0.18344 0.22962 0.95012 0.12900
F 	F 	0.24558 0.09457 0.11761 -0.38300
F 	F 	0.11593 0.05864 0.08726 -0.40300
C 	C 	0.35764 0.37247 0.97212 0.77300
F 	F 	0.37257 0.37206 0.92249 -0.40000
Cu	Cu	0.57306 0.35929 0.92506 0.92200
O 	O 	0.60591 0.34965 0.85726 -0.33300
O 	O 	0.73805 0.37462 0.02038 -0.60900
O 	O 	0.76700 0.37799 0.12197 -0.32600
C 	C 	0.67628 0.35593 0.70778 0.10300
C 	C 	0.68468 0.36894 0.76128 0.11700
H 	H 	0.73227 0.36754 0.53335 0.23200
C 	C 	0.73147 0.38188 0.27761 0.11000
C 	C 	0.73347 0.39853 0.22724 0.11300
F 	F 	0.30698 0.40208 0.97660 -0.38600
O 	O 	0.64455 0.40145 0.47056 -0.31800
F 	F 	0.21926 0.99565 0.33266 -0.33500
C 	C 	0.92758 0.99274 0.46340 0.19500
C 	C 	0.04347 0.97742 0.46171 0.28600
C 	C 	0.03636 0.97833 0.97157 0.11100
C 	C 	0.94523 0.91568 0.96410 -0.00700
C 	C 	0.89657 0.94959 0.96570 0.08600
H 	H 	0.07364 0.95264 0.96643 0.10700
H 	H 	0.82613 0.90175 0.95979 0.10700
C 	C 	0.86836 0.89719 0.46303 -0.08500
C 	C 	0.89577 0.84141 0.45876 0.15700
C 	C 	0.98314 0.88168 0.45792 -0.17600
H 	H 	0.80134 0.86646 0.46587 0.14200
H 	H 	0.00468 0.83876 0.45599 0.18900
O 	O 	0.78569 0.47337 0.93702 -0.30600
C 	C 	0.76391 0.52399 0.95740 0.29700
O 	O 	0.68928 0.48361 0.97297 -0.33100
H 	H 	0.77462 0.44254 0.03154 0.24400
O 	O 	0.76299 0.42413 0.44500 -0.31000
C 	C 	0.72231 0.45706 0.45994 0.29600
Br	Br	0.76855 0.49144 0.80201 -0.08500
Br	Br	0.72342 0.46088 0.67411 -0.02000
Br	Br	0.82326 0.47687 0.33288 -0.10700
Br	Br	0.80742 0.52414 0.21557 -0.01500
C 	C 	0.83559 0.71266 0.50637 0.03200
C 	C 	0.83510 0.74177 0.45969 0.05700
C 	C 	0.79014 0.67566 0.41346 -0.10800
C 	C 	0.75303 0.58241 0.41461 0.07400
C 	C 	0.76071 0.55493 0.46075 0.00200
C 	C 	0.79971 0.61967 0.50743 -0.06300
C 	C 	0.80332 0.58970 0.55813 0.77600
H 	H 	0.86844 0.76385 0.54158 0.13700
H 	H 	0.71813 0.53083 0.37961 0.08700
C 	C 	0.78540 0.70524 0.36272 0.78700
F 	F 	0.84601 0.66334 0.59915 -0.38200
F 	F 	0.84702 0.55146 0.55766 -0.43300
F 	F 	0.71959 0.52447 0.56559 -0.42100
F 	F 	0.86724 0.75745 0.35014 -0.40800
F 	F 	0.75569 0.75777 0.36645 -0.40600
F 	F 	0.72926 0.62967 0.32333 -0.39700
H 	H 	0.80301 0.97305 0.39663 0.16400
F 	F 	0.66899 0.95096 0.37321 -0.35100
F 	F 	0.08956 0.92823 0.55900 -0.36000
C 	C 	0.91659 0.78437 0.00365 0.03200
C 	C 	0.90207 0.81522 0.96052 0.09100
C 	C 	0.84885 0.75063 0.91443 -0.12500
C 	C 	0.80265 0.65528 0.91466 0.09000
C 	C 	0.81818 0.62452 0.95745 -0.02600
C 	C 	0.87815 0.68987 0.00184 -0.02600
C 	C 	0.89905 0.65879 0.04780 0.76800
H 	H 	0.95800 0.83436 0.03861 0.14200
H 	H 	0.75304 0.60480 0.88198 0.09200
C 	C 	0.83850 0.78227 0.86552 0.79400
F 	F 	0.96781 0.73336 0.08402 -0.37500
F 	F 	0.92202 0.60272 0.03235 -0.42300
F 	F 	0.82690 0.60991 0.07063 -0.41800
F 	F 	0.91810 0.85883 0.85862 -0.38100
F 	F 	0.78217 0.80465 0.86803 -0.38300
F 	F 	0.80505 0.71310 0.82300 -0.38400
F 	F 	0.15532 0.97393 0.05272 -0.36200
F 	F 	0.43590 0.43546 0.00599 -0.37500
