data_crystal

_cell_length_a 18.74384
_cell_length_b 18.85805
_cell_length_c 34.94269
_cell_angle_alpha 95.45435
_cell_angle_beta  95.45496
_cell_angle_gamma 126.37210

_symmetry_space_group_name_	'P 1'
_symmetry_space_group_name_H-M	'P 1'

loop_
_symmetry_equiv_pos_as_xyz
  x,y,z

loop_
_atom_site_label
_atom_site_type_symbol
_atom_site_fract_x
_atom_site_fract_y
_atom_site_fract_z
_atom_site_charge
C 	C 	0.89437 0.98201 0.95812 0.01400
C 	C 	0.98816 0.03755 0.96027 -0.05900
C 	C 	0.03549 0.00168 0.96218 0.01300
C 	C 	0.98948 0.91008 0.96176 -0.06100
C 	C 	0.89574 0.85336 0.95911 0.01600
C 	C 	0.84786 0.88940 0.95757 -0.06500
H 	H 	0.02448 0.10892 0.96119 0.04300
H 	H 	0.02668 0.88282 0.96344 0.04500
H 	H 	0.77542 0.84601 0.95593 0.04600
C 	C 	0.97379 0.06649 0.50764 0.02600
C 	C 	0.91756 0.97333 0.50571 -0.07300
C 	C 	0.95311 0.92579 0.50344 0.02600
C 	C 	0.04502 0.97105 0.50332 -0.07500
C 	C 	0.10219 0.06412 0.50565 0.02400
C 	C 	0.06655 0.11210 0.50768 -0.07400
H 	H 	0.84593 0.93766 0.50511 0.04800
H 	H 	0.07208 0.93376 0.50131 0.04900
H 	H 	0.11040 0.18406 0.50916 0.04700
Cu	Cu	0.74014 0.32331 0.95586 0.92600
Cu	Cu	0.73962 0.26649 0.04208 0.86900
Cu	Cu	0.59705 0.27659 0.00572 0.89500
Cu	Cu	0.57137 0.31632 0.92661 0.89400
C 	C 	0.66978 0.28571 0.87355 0.28200
O 	O 	0.79256 0.45378 0.95342 -0.35900
C 	C 	0.66048 0.31781 0.09182 0.28300
O 	O 	0.59962 0.24992 0.95182 -0.63700
O 	O 	0.73018 0.34124 0.01133 -0.64300
O 	O 	0.80029 0.26374 0.96096 -0.37200
O 	O 	0.70821 0.17487 0.00060 -0.44800
O 	O 	0.63394 0.32677 0.88189 -0.38500
O 	O 	0.46717 0.20685 0.99658 -0.38000
C 	C 	0.41778 0.21053 0.96838 0.28600
C 	C 	0.75185 0.48777 0.96494 0.28100
O 	O 	0.66904 0.43408 0.97084 -0.39200
O 	O 	0.45492 0.26761 0.94425 -0.39500
O 	O 	0.72609 0.28823 0.90057 -0.36200
C 	C 	0.76376 0.19114 0.97657 0.29200
O 	O 	0.59225 0.28244 0.06222 -0.38800
O 	O 	0.73511 0.32913 0.08672 -0.42000
H 	H 	0.56112 0.18507 0.94047 0.16300
H 	H 	0.76623 0.40466 0.02469 0.17000
Cu	Cu	0.63715 0.22751 0.50884 0.92600
Cu	Cu	0.70129 0.23152 0.42418 0.87000
Cu	Cu	0.68526 0.36988 0.45923 0.89700
Cu	Cu	0.63793 0.39083 0.53686 0.89400
C 	C 	0.65321 0.28266 0.59104 0.28600
O 	O 	0.50484 0.17202 0.50934 -0.36300
C 	C 	0.65172 0.30988 0.37322 0.28300
O 	O 	0.70901 0.36650 0.51334 -0.64000
O 	O 	0.62219 0.23786 0.45325 -0.64100
O 	O 	0.69814 0.16896 0.50530 -0.37200
O 	O 	0.79055 0.26232 0.46700 -0.44200
O 	O 	0.62121 0.32661 0.58169 -0.38600
O 	O 	0.75307 0.49863 0.46887 -0.38500
C 	C 	0.74553 0.54588 0.49635 0.29100
C 	C 	0.46950 0.21084 0.49711 0.28100
O 	O 	0.52278 0.29332 0.49131 -0.39500
O 	O 	0.68664 0.50717 0.51977 -0.39600
O 	O 	0.66942 0.24195 0.56428 -0.36500
C 	C 	0.77224 0.20578 0.49055 0.28500
O 	O 	0.68311 0.37635 0.40291 -0.38600
O 	O 	0.64081 0.23608 0.37861 -0.42000
H 	H 	0.77375 0.40571 0.52565 0.16500
H 	H 	0.55895 0.20124 0.43904 0.17200
C 	C 	0.66620 0.25881 0.83211 -0.07100
C 	C 	0.58244 0.19947 0.80685 0.00100
C 	C 	0.57743 0.18791 0.76634 -0.05300
C 	C 	0.65636 0.24027 0.75054 0.00500
C 	C 	0.74127 0.29075 0.77604 0.00800
C 	C 	0.74576 0.30072 0.81680 -0.01500
C 	C 	0.82055 0.33194 0.76060 -0.04100
C 	C 	0.81666 0.32732 0.72026 -0.04100
C 	C 	0.73406 0.28625 0.69487 0.00800
C 	C 	0.65297 0.24383 0.70990 0.00500
C 	C 	0.57267 0.21422 0.68493 -0.05300
C 	C 	0.57248 0.22269 0.64569 0.00500
C 	C 	0.65220 0.26293 0.63075 -0.07000
C 	C 	0.73241 0.29267 0.65504 -0.01900
H 	H 	0.52094 0.16303 0.81861 0.02100
H 	H 	0.51289 0.13640 0.74769 0.04000
H 	H 	0.81077 0.34403 0.83645 0.04400
H 	H 	0.88552 0.36799 0.77990 0.03800
H 	H 	0.87869 0.35929 0.70889 0.03700
H 	H 	0.51180 0.19021 0.69614 0.04000
H 	H 	0.51058 0.20077 0.62712 0.03400
H 	H 	0.79434 0.32504 0.64351 0.03600
C 	C 	0.64694 0.33004 0.13200 -0.07700
C 	C 	0.71292 0.40954 0.15865 0.00300
C 	C 	0.70739 0.41621 0.19830 -0.05500
C 	C 	0.63895 0.34053 0.21228 0.00400
C 	C 	0.56731 0.26388 0.18466 0.00600
C 	C 	0.57196 0.25906 0.14470 -0.01900
C 	C 	0.49270 0.19228 0.19726 -0.04300
C 	C 	0.49054 0.19339 0.23704 -0.04200
C 	C 	0.56464 0.26422 0.26511 0.00600
C 	C 	0.64009 0.33874 0.25311 0.00400
C 	C 	0.71718 0.40521 0.28187 -0.05500
C 	C 	0.71755 0.39890 0.32140 0.00200
C 	C 	0.64351 0.32463 0.33296 -0.07700
C 	C 	0.56647 0.25856 0.30496 -0.01800
H 	H 	0.76846 0.46646 0.14863 0.02700
H 	H 	0.75384 0.48090 0.21736 0.03900
H 	H 	0.51926 0.19867 0.12377 0.03600
H 	H 	0.43638 0.13495 0.17612 0.03500
H 	H 	0.43233 0.13706 0.24613 0.03500
H 	H 	0.77890 0.45855 0.27385 0.03900
H 	H 	0.77792 0.44938 0.34286 0.03000
H 	H 	0.50936 0.20087 0.31401 0.03500
C 	C 	0.86423 0.79190 0.53418 -0.06300
C 	C 	0.89398 0.82816 0.50080 0.01600
C 	C 	0.87294 0.77153 0.46564 -0.06200
C 	C 	0.82389 0.67929 0.46403 0.01200
C 	C 	0.79562 0.64292 0.49768 -0.08700
C 	C 	0.81540 0.69970 0.53269 0.01100
H 	H 	0.88062 0.83540 0.56149 0.04300
H 	H 	0.89564 0.79919 0.43970 0.04400
H 	H 	0.80790 0.63621 0.43666 0.03800
H 	H 	0.79428 0.67264 0.55889 0.02700
C 	C 	0.88183 0.10827 0.53468 -0.06300
C 	C 	0.93388 0.11471 0.50680 0.01600
C 	C 	0.93707 0.15622 0.47509 -0.06400
C 	C 	0.88573 0.18732 0.47027 0.00900
C 	C 	0.83028 0.17718 0.49713 -0.09400
C 	C 	0.83001 0.13903 0.52980 0.01300
H 	H 	0.87943 0.07701 0.55949 0.04500
H 	H 	0.97659 0.16126 0.45331 0.04200
H 	H 	0.88718 0.21703 0.44503 0.01700
H 	H 	0.78924 0.13247 0.55121 0.03800
C 	C 	0.23625 0.14977 0.47365 -0.06200
C 	C 	0.19922 0.11047 0.50557 0.01500
C 	C 	0.25102 0.10319 0.53440 -0.06200
C 	C 	0.33782 0.13242 0.53075 0.01000
C 	C 	0.37443 0.17059 0.49856 -0.08900
C 	C 	0.32358 0.18000 0.47023 0.00900
H 	H 	0.19663 0.15486 0.45100 0.04200
H 	H 	0.22313 0.07296 0.55917 0.04300
H 	H 	0.37720 0.12693 0.55335 0.03400
H 	H 	0.35158 0.21047 0.44552 0.02700
C 	C 	0.80992 0.71810 0.99002 -0.05700
C 	C 	0.84869 0.75633 0.95819 0.01700
C 	C 	0.85694 0.70632 0.92893 -0.06200
C 	C 	0.82953 0.62038 0.93214 0.01000
C 	C 	0.79194 0.58264 0.96424 -0.08900
C 	C 	0.78139 0.63160 0.99297 0.01500
H 	H 	0.80418 0.75626 0.01303 0.03700
H 	H 	0.88694 0.73512 0.90425 0.04500
H 	H 	0.83594 0.58254 0.90926 0.03600
H 	H 	0.75124 0.60273 0.01761 0.02200
C 	C 	0.85401 0.07484 0.93112 -0.06400
C 	C 	0.84646 0.02249 0.95893 0.01900
C 	C 	0.80647 0.02144 0.99103 -0.05900
C 	C 	0.77844 0.07535 0.99638 0.01600
C 	C 	0.79002 0.13119 0.96963 -0.09600
C 	C 	0.82633 0.12921 0.93653 0.01400
H 	H 	0.88422 0.07578 0.90605 0.04500
H 	H 	0.80060 0.98181 0.01276 0.03500
H 	H 	0.74997 0.07546 0.02192 0.01300
H 	H 	0.83388 0.17015 0.91517 0.03800
C 	C 	0.19115 0.08176 0.99957 -0.04300
C 	C 	0.13359 0.05997 0.96446 0.01200
C 	C 	0.16937 0.08866 0.93085 -0.05900
C 	C 	0.26208 0.13764 0.93212 0.00500
C 	C 	0.31994 0.15880 0.96715 -0.07400
C 	C 	0.28396 0.13107 0.00096 -0.01000
H 	H 	0.16383 0.05971 0.02565 0.03400
H 	H 	0.12512 0.07154 0.90357 0.04200
H 	H 	0.28877 0.15812 0.90576 0.02900
H 	H 	0.32779 0.14789 0.02833 0.04100
