data_crystal

_cell_length_a 18.65199
_cell_length_b 18.90478
_cell_length_c 28.39752
_cell_angle_alpha 95.42614
_cell_angle_beta  95.42894
_cell_angle_gamma 126.42572

_symmetry_space_group_name_	'P 1'
_symmetry_space_group_name_H-M	'P 1'

loop_
_symmetry_equiv_pos_as_xyz
  x,y,z

loop_
_atom_site_label
_atom_site_type_symbol
_atom_site_fract_x
_atom_site_fract_y
_atom_site_fract_z
_atom_site_charge
C 	C 	0.92590 0.01309 0.95743 0.06500
C 	C 	0.02074 0.07043 0.96398 -0.07300
C 	C 	0.06955 0.03633 0.96817 0.07000
C 	C 	0.02444 0.94525 0.96806 -0.07400
C 	C 	0.92983 0.88700 0.96219 0.07000
C 	C 	0.87991 0.92075 0.95671 -0.07200
H 	H 	0.05649 0.14156 0.96508 0.07600
H 	H 	0.06289 0.91936 0.97180 0.07500
H 	H 	0.80659 0.87598 0.95212 0.07400
C 	C 	0.93275 0.02136 0.50288 0.06700
C 	C 	0.87695 0.92882 0.50172 -0.07000
C 	C 	0.91238 0.88128 0.49716 0.07000
C 	C 	0.00412 0.92640 0.49510 -0.07200
C 	C 	0.06089 0.01908 0.49744 0.07000
C 	C 	0.02523 0.06683 0.50116 -0.06900
H 	H 	0.80555 0.89352 0.50283 0.07600
H 	H 	0.03138 0.88938 0.49163 0.07600
H 	H 	0.06863 0.13836 0.50195 0.07500
Cu	Cu	0.75829 0.34749 0.94433 0.92500
Cu	Cu	0.79046 0.30047 0.05186 0.89500
Cu	Cu	0.63229 0.31798 0.01450 0.91700
Cu	Cu	0.59887 0.36358 0.92128 0.90300
C 	C 	0.67749 0.32395 0.84607 0.30800
O 	O 	0.82396 0.48216 0.94565 -0.33400
C 	C 	0.67600 0.30748 0.10963 0.30200
O 	O 	0.62106 0.28840 0.94645 -0.64000
O 	O 	0.76121 0.36588 0.01519 -0.62400
O 	O 	0.79497 0.26558 0.93706 -0.34600
O 	O 	0.87066 0.30673 0.01419 -0.39100
O 	O 	0.64959 0.37007 0.86183 -0.36100
O 	O 	0.50554 0.26204 0.01215 -0.35100
C 	C 	0.45433 0.26505 0.97835 0.30600
C 	C 	0.79056 0.52237 0.96273 0.29700
O 	O 	0.71021 0.47469 0.97432 -0.38700
O 	O 	0.48991 0.32404 0.94968 -0.37700
O 	O 	0.73209 0.31711 0.87501 -0.34100
C 	C 	0.83705 0.25415 0.97195 0.29600
O 	O 	0.65080 0.34555 0.08381 -0.35600
O 	O 	0.69332 0.25593 0.08820 -0.39700
H 	H 	0.57534 0.22384 0.93266 0.17000
H 	H 	0.80272 0.43010 0.03026 0.16700
Cu	Cu	0.60274 0.19304 0.50854 0.93100
Cu	Cu	0.68415 0.20086 0.41015 0.87800
Cu	Cu	0.64553 0.32638 0.44141 0.90200
Cu	Cu	0.58915 0.35008 0.53351 0.90500
C 	C 	0.62096 0.26447 0.60677 0.30600
O 	O 	0.46759 0.13147 0.50488 -0.34900
C 	C 	0.63618 0.26784 0.33857 0.30600
O 	O 	0.66801 0.33035 0.50951 -0.63500
O 	O 	0.59223 0.19738 0.43874 -0.63600
O 	O 	0.66819 0.13887 0.51088 -0.34700
O 	O 	0.76667 0.23539 0.46727 -0.43000
O 	O 	0.57425 0.29176 0.59055 -0.36900
O 	O 	0.70516 0.45362 0.44859 -0.36900
C 	C 	0.70000 0.50092 0.48351 0.31300
C 	C 	0.42885 0.16458 0.48576 0.30600
O 	O 	0.47978 0.24577 0.47675 -0.37600
O 	O 	0.63489 0.46202 0.50887 -0.36700
O 	O 	0.63068 0.21301 0.57770 -0.33700
C 	C 	0.74526 0.17718 0.49536 0.31500
O 	O 	0.63849 0.32437 0.37122 -0.36300
O 	O 	0.62928 0.19823 0.34947 -0.40200
H 	H 	0.73254 0.37355 0.52548 0.18200
H 	H 	0.53025 0.15533 0.41918 0.19300
C 	C 	0.67010 0.30402 0.79500 -0.06700
C 	C 	0.66248 0.29052 0.75181 0.05500
C 	C 	0.65128 0.27818 0.70108 0.05500
C 	C 	0.63914 0.27044 0.65784 -0.06600
C 	C 	0.63988 0.28164 0.28972 -0.08000
C 	C 	0.64557 0.29106 0.24849 0.05000
C 	C 	0.65460 0.29951 0.20009 0.05000
C 	C 	0.66380 0.30445 0.15877 -0.07700
C 	C 	0.85531 0.74848 0.53488 -0.07700
C 	C 	0.85333 0.78381 0.49400 -0.00700
C 	C 	0.80144 0.72597 0.44947 0.08700
C 	C 	0.75224 0.63354 0.44623 -0.01200
C 	C 	0.75463 0.59819 0.48708 -0.09500
C 	C 	0.80684 0.65616 0.53158 0.14300
Br	Br	0.81700 0.61092 0.58761 -0.23900
H 	H 	0.89633 0.79305 0.56903 0.08600
H 	H 	0.71174 0.58911 0.41198 0.07400
Br	Br	0.79837 0.77223 0.39257 -0.19600
C 	C 	0.80950 0.10948 0.45541 -0.01200
C 	C 	0.79396 0.13799 0.49808 -0.10700
C 	C 	0.82907 0.13296 0.54275 0.14700
C 	C 	0.87771 0.09807 0.54416 -0.07900
C 	C 	0.89216 0.06863 0.50136 -0.00500
C 	C 	0.85831 0.07508 0.45686 0.08400
Br	Br	0.87642 0.03533 0.39750 -0.20600
H 	H 	0.78305 0.11356 0.42095 0.03300
H 	H 	0.90331 0.09284 0.57849 0.08400
Br	Br	0.81387 0.17578 0.60217 -0.20200
C 	C 	0.18554 0.07810 0.45099 -0.07600
C 	C 	0.15759 0.06540 0.49560 -0.00800
C 	C 	0.21841 0.08293 0.53659 0.08800
C 	C 	0.30541 0.11080 0.53246 -0.01900
C 	C 	0.33322 0.12285 0.48780 -0.09600
C 	C 	0.27283 0.10647 0.44688 0.14100
Br	Br	0.30688 0.11849 0.38472 -0.22200
H 	H 	0.13844 0.06320 0.41918 0.08800
H 	H 	0.35229 0.12532 0.56428 0.07100
Br	Br	0.18378 0.06947 0.59859 -0.21000
C 	C 	0.87192 0.73689 0.91902 -0.07400
C 	C 	0.88406 0.79061 0.96132 -0.01400
C 	C 	0.87228 0.75786 0.00470 0.09400
C 	C 	0.84949 0.67277 0.00552 -0.01200
C 	C 	0.83701 0.61872 0.96322 -0.09800
C 	C 	0.84921 0.65176 0.91976 0.13700
Br	Br	0.83451 0.58183 0.86085 -0.20500
H 	H 	0.88312 0.76254 0.88576 0.08700
H 	H 	0.83877 0.64750 0.03890 0.06400
Br	Br	0.88789 0.82889 0.06338 -0.20900
C 	C 	0.86887 0.16306 0.92191 -0.01200
C 	C 	0.84273 0.17893 0.96395 -0.09900
C 	C 	0.82280 0.12298 0.99825 0.14000
C 	C 	0.84103 0.06084 0.99326 -0.08500
C 	C 	0.87622 0.05163 0.95364 -0.00300
C 	C 	0.88383 0.09851 0.91622 0.08500
Br	Br	0.91702 0.07676 0.85767 -0.19500
H 	H 	0.87966 0.20222 0.89413 0.07500
H 	H 	0.83155 0.02253 0.02133 0.09100
Br	Br	0.76496 0.12541 0.05014 -0.29700
C 	C 	0.22540 0.15132 0.01437 -0.07100
C 	C 	0.16790 0.09562 0.97061 -0.01400
C 	C 	0.20456 0.09808 0.92920 0.08900
C 	C 	0.29837 0.15422 0.93219 -0.01600
C 	C 	0.35616 0.20886 0.97609 -0.10100
C 	C 	0.31929 0.20874 0.01722 0.15000
Br	Br	0.39516 0.29052 0.07660 -0.19800
H 	H 	0.19698 0.15069 0.04604 0.08200
H 	H 	0.32653 0.15509 0.90036 0.05800
Br	Br	0.12730 0.02645 0.86804 -0.19900
