data_crystal

_cell_length_a 18.68144
_cell_length_b 18.94090
_cell_length_c 26.58573
_cell_angle_alpha 95.39068
_cell_angle_beta  95.39010
_cell_angle_gamma 126.40623

_symmetry_space_group_name_	'P 1'
_symmetry_space_group_name_H-M	'P 1'

loop_
_symmetry_equiv_pos_as_xyz
  x,y,z

loop_
_atom_site_label
_atom_site_type_symbol
_atom_site_fract_x
_atom_site_fract_y
_atom_site_fract_z
_atom_site_charge
C 	C 	0.93829 0.02866 0.99613 0.02700
C 	C 	0.88514 0.93541 0.99052 -0.06100
C 	C 	0.92536 0.89255 0.98686 0.03000
C 	C 	0.01831 0.94223 0.98795 -0.06200
C 	C 	0.07190 0.03510 0.99325 0.02800
C 	C 	0.03205 0.07872 0.99728 -0.05600
H 	H 	0.81272 0.89643 0.98913 0.06000
H 	H 	0.04920 0.90867 0.98515 0.06000
H 	H 	0.07347 0.15075 0.00130 0.05000
C 	C 	0.91543 0.00409 0.45380 0.03200
C 	C 	0.86788 0.91178 0.45344 -0.06700
C 	C 	0.91583 0.87591 0.45801 0.03400
C 	C 	0.01016 0.93222 0.46324 -0.06500
C 	C 	0.05693 0.02342 0.46360 0.03400
C 	C 	0.00996 0.05939 0.45949 -0.06500
H 	H 	0.79484 0.86862 0.44961 0.05800
H 	H 	0.04714 0.90482 0.46659 0.06100
H 	H 	0.04694 0.13047 0.46042 0.06000
Cu	Cu	0.61456 0.20919 0.01396 0.92700
Cu	Cu	0.64057 0.15910 0.89383 0.88900
Cu	Cu	0.67523 0.34142 0.94026 0.90700
Cu	Cu	0.60859 0.37272 0.03505 0.90700
C 	C 	0.64055 0.29305 0.11809 0.33000
O 	O 	0.48061 0.15048 0.01213 -0.35400
C 	C 	0.64464 0.27382 0.82991 0.33700
O 	O 	0.68260 0.34499 0.01269 -0.64200
O 	O 	0.59947 0.20898 0.93833 -0.63200
O 	O 	0.68988 0.16556 0.02102 -0.35400
O 	O 	0.64384 0.08952 0.93876 -0.40300
O 	O 	0.59862 0.32506 0.10015 -0.35500
O 	O 	0.74453 0.46940 0.94827 -0.36600
C 	C 	0.72857 0.51589 0.97883 0.29000
C 	C 	0.44310 0.18470 0.99184 0.28900
O 	O 	0.49415 0.26338 0.97910 -0.37300
O 	O 	0.65473 0.47587 0.99915 -0.37200
O 	O 	0.64284 0.23455 0.08810 -0.35500
C 	C 	0.70228 0.12785 0.98215 0.28500
O 	O 	0.69657 0.34130 0.86899 -0.38500
O 	O 	0.60124 0.19087 0.83684 -0.38100
H 	H 	0.74568 0.38496 0.03207 0.17300
H 	H 	0.53600 0.18104 0.92291 0.18100
Cu	Cu	0.75114 0.34166 0.44182 0.92600
Cu	Cu	0.78370 0.29338 0.55688 0.89300
Cu	Cu	0.62065 0.30158 0.51542 0.91300
Cu	Cu	0.59032 0.35473 0.41830 0.90100
C 	C 	0.67918 0.33060 0.33725 0.33900
O 	O 	0.81316 0.47588 0.44504 -0.34700
C 	C 	0.66987 0.30193 0.61886 0.34100
O 	O 	0.61343 0.27892 0.44271 -0.63900
O 	O 	0.75123 0.35580 0.51737 -0.62800
O 	O 	0.79139 0.26280 0.43326 -0.33900
O 	O 	0.86369 0.30060 0.51614 -0.40200
O 	O 	0.64679 0.37141 0.35592 -0.38300
O 	O 	0.49294 0.24136 0.51126 -0.37000
C 	C 	0.44236 0.24663 0.47604 0.29400
C 	C 	0.77906 0.51369 0.46563 0.28100
O 	O 	0.69832 0.46330 0.47722 -0.38300
O 	O 	0.47856 0.30861 0.44723 -0.38200
O 	O 	0.72628 0.31454 0.36772 -0.33800
C 	C 	0.83050 0.24884 0.47083 0.28000
O 	O 	0.63770 0.33226 0.58919 -0.36500
O 	O 	0.68974 0.25123 0.59801 -0.40300
H 	H 	0.56927 0.21518 0.42623 0.17500
H 	H 	0.78982 0.41938 0.53430 0.17500
C 	C 	0.73479 0.34922 0.76318 -0.08800
C 	C 	0.64994 0.29151 0.77703 -0.12700
C 	C 	0.57102 0.24433 0.73910 0.33900
C 	C 	0.57743 0.25182 0.68752 -0.08100
C 	C 	0.66257 0.30570 0.67344 -0.12900
C 	C 	0.74116 0.35576 0.71156 0.33700
F 	F 	0.82385 0.40884 0.69842 -0.45900
H 	H 	0.79604 0.38617 0.79212 0.09500
H 	H 	0.51641 0.21336 0.65833 0.09900
F 	F 	0.48835 0.19010 0.75207 -0.43600
C 	C 	0.71466 0.39802 0.25874 -0.08500
C 	C 	0.68197 0.32322 0.28195 -0.12600
C 	C 	0.64532 0.24031 0.25144 0.33800
C 	C 	0.63639 0.23134 0.19781 -0.08700
C 	C 	0.66425 0.30523 0.17439 -0.12200
C 	C 	0.70616 0.38923 0.20529 0.33600
F 	F 	0.73688 0.46203 0.18341 -0.44800
H 	H 	0.74495 0.46269 0.28210 0.09600
H 	H 	0.60446 0.16630 0.17444 0.10200
F 	F 	0.61456 0.16765 0.27346 -0.44200
C 	C 	0.86833 0.77937 0.45790 0.01500
C 	C 	0.85445 0.74920 0.50483 -0.05500
C 	C 	0.83181 0.66495 0.50864 0.02400
C 	C 	0.82094 0.60880 0.46479 -0.07600
C 	C 	0.83370 0.63851 0.41768 0.00700
C 	C 	0.85659 0.72291 0.41394 -0.03500
H 	H 	0.86514 0.79294 0.53894 0.05600
H 	H 	0.82312 0.59485 0.38355 0.04800
C 	C 	0.86853 0.75145 0.36489 0.09600
C 	C 	0.82210 0.63750 0.55801 0.07700
N 	N 	0.87817 0.77442 0.32563 -0.09900
N 	N 	0.81430 0.61545 0.59755 -0.09900
C 	C 	0.83520 0.17289 0.46213 -0.08100
C 	C 	0.85903 0.15545 0.41662 0.01500
C 	C 	0.87399 0.09089 0.41046 -0.03700
C 	C 	0.86769 0.04484 0.45076 0.01700
C 	C 	0.83498 0.05577 0.49384 -0.05600
C 	C 	0.81782 0.11865 0.49957 0.02600
H 	H 	0.86842 0.19374 0.38662 0.05600
H 	H 	0.82707 0.01843 0.52416 0.05600
C 	C 	0.78014 0.12510 0.54320 0.03900
C 	C 	0.89814 0.07387 0.36325 0.09900
N 	N 	0.74988 0.12977 0.57826 -0.12900
N 	N 	0.91757 0.06020 0.32546 -0.10200
C 	C 	0.15546 0.08114 0.46662 0.01700
C 	C 	0.21266 0.12955 0.51445 -0.05700
C 	C 	0.30669 0.18458 0.51818 0.03000
C 	C 	0.34397 0.19040 0.47351 -0.08000
C 	C 	0.28650 0.14259 0.42563 0.01100
C 	C 	0.19258 0.08814 0.42195 -0.03700
H 	H 	0.18381 0.12465 0.54871 0.05800
H 	H 	0.31509 0.14747 0.39126 0.03700
C 	C 	0.13458 0.03983 0.37218 0.09600
C 	C 	0.36420 0.23694 0.56760 0.08700
N 	N 	0.08801 0.00109 0.33236 -0.10100
N 	N 	0.41022 0.27883 0.60718 -0.09400
C 	C 	0.87089 0.79563 0.98424 0.02400
C 	C 	0.86055 0.76233 0.03003 -0.06200
C 	C 	0.81712 0.67138 0.02875 0.02500
C 	C 	0.78226 0.61259 0.98106 -0.07200
C 	C 	0.79278 0.64599 0.93521 0.01500
C 	C 	0.83674 0.73714 0.93657 -0.03900
H 	H 	0.88811 0.80773 0.06670 0.06400
H 	H 	0.76529 0.60073 0.89849 0.05200
C 	C 	0.84637 0.77023 0.88893 0.09600
C 	C 	0.81092 0.63921 0.07654 0.06800
N 	N 	0.85415 0.79683 0.85080 -0.10800
N 	N 	0.80596 0.61347 0.11481 -0.08600
C 	C 	0.77454 0.11704 0.98974 -0.08100
C 	C 	0.78842 0.08903 0.03420 0.01200
C 	C 	0.84876 0.06786 0.03894 -0.04400
C 	C 	0.89442 0.07290 0.99837 0.02500
C 	C 	0.88629 0.10804 0.95598 -0.05800
C 	C 	0.82745 0.13100 0.95168 0.02600
H 	H 	0.75045 0.08132 0.06444 0.05300
H 	H 	0.92334 0.11448 0.92543 0.05700
C 	C 	0.82310 0.17042 0.90864 0.03800
C 	C 	0.86294 0.04024 0.08529 0.09600
N 	N 	0.81973 0.20204 0.87418 -0.13800
N 	N 	0.87434 0.01808 0.12240 -0.10500
C 	C 	0.34678 0.14263 0.99141 -0.07500
C 	C 	0.31514 0.12975 0.03800 0.00400
C 	C 	0.22759 0.10240 0.03997 -0.04200
C 	C 	0.17003 0.08593 0.99471 0.02400
C 	C 	0.20230 0.10058 0.94834 -0.05700
C 	C 	0.28990 0.12806 0.94633 0.02700
H 	H 	0.35954 0.14318 0.07298 0.04800
H 	H 	0.15771 0.08676 0.91334 0.05900
C 	C 	0.31993 0.13839 0.89756 0.07600
C 	C 	0.19684 0.09059 0.08852 0.09400
N 	N 	0.34405 0.14669 0.85852 -0.09000
N 	N 	0.17210 0.08107 0.12738 -0.10700
