data_crystal

_cell_length_a 27.70192
_cell_length_b 22.41045
_cell_length_c 65.03129
_cell_angle_alpha 90.58204
_cell_angle_beta  91.39916
_cell_angle_gamma 110.72628

_symmetry_space_group_name_	'P 1'
_symmetry_space_group_name_H-M	'P 1'

loop_
_symmetry_equiv_pos_as_xyz
  x,y,z

loop_
_atom_site_label
_atom_site_type_symbol
_atom_site_fract_x
_atom_site_fract_y
_atom_site_fract_z
_atom_site_charge
Ni	Ni	0.70486 0.33001 0.89211 1.10000
O 	O 	0.64620 0.27715 0.87247 -0.70400
Ni	Ni	0.58558 0.28596 0.88619 1.10200
O 	O 	0.75813 0.31288 0.87396 -0.36800
O 	O 	0.71521 0.20473 0.87462 -0.40600
O 	O 	0.70602 0.40410 0.87377 -0.39700
Ni	Ni	0.63623 0.18718 0.87045 1.06600
O 	O 	0.71376 0.40475 0.93718 -0.41900
O 	O 	0.62658 0.17238 0.90133 -0.41500
O 	O 	0.53276 0.24184 0.86359 -0.37700
O 	O 	0.64291 0.32520 0.90806 -0.70400
O 	O 	0.76350 0.39012 0.91075 -0.37900
O 	O 	0.53315 0.31792 0.90003 -0.37400
O 	O 	0.59248 0.41881 0.90263 -0.42100
Ni	Ni	0.65500 0.41085 0.91909 1.07000
H 	H 	0.64928 0.29548 0.85857 0.15500
H 	H 	0.63996 0.29598 0.91965 0.15600
C 	C 	0.58387 0.17056 0.91007 0.30600
O 	O 	0.70766 0.47231 0.90033 -0.40000
C 	C 	0.75131 0.25488 0.86698 0.27300
C 	C 	0.53185 0.18710 0.85542 0.27500
C 	C 	0.71257 0.46167 0.88071 0.30600
C 	C 	0.54566 0.37816 0.90560 0.29600
C 	C 	0.75864 0.40669 0.93001 0.30900
O 	O 	0.55662 0.20349 0.90270 -0.37100
O 	O 	0.55782 0.15412 0.86444 -0.40600
Ni	Ni	0.64806 0.32732 0.55001 1.09900
O 	O 	0.70654 0.33904 0.52992 -0.69900
Ni	Ni	0.75704 0.31349 0.54723 1.09800
O 	O 	0.61305 0.37909 0.53341 -0.37300
O 	O 	0.68904 0.46225 0.53063 -0.41600
O 	O 	0.60036 0.24890 0.53333 -0.37200
Ni	Ni	0.74091 0.42401 0.51879 1.07000
O 	O 	0.58450 0.20298 0.57144 -0.40800
O 	O 	0.79536 0.47517 0.54061 -0.39600
O 	O 	0.82112 0.33970 0.52900 -0.37800
O 	O 	0.69488 0.29313 0.56596 -0.70200
O 	O 	0.59188 0.30844 0.57119 -0.37900
O 	O 	0.79353 0.27170 0.56736 -0.36700
O 	O 	0.72398 0.17880 0.56650 -0.41200
Ni	Ni	0.65783 0.20172 0.56870 1.06500
H 	H 	0.69446 0.30844 0.51820 0.15200
H 	H 	0.70417 0.31463 0.57962 0.15500
C 	C 	0.81561 0.45074 0.55532 0.30000
O 	O 	0.64760 0.18487 0.53786 -0.41800
C 	C 	0.63940 0.43568 0.52641 0.29700
C 	C 	0.83068 0.38332 0.51453 0.30500
C 	C 	0.61327 0.20061 0.52732 0.30900
C 	C 	0.76881 0.21473 0.57469 0.29300
C 	C 	0.57248 0.25094 0.57910 0.27700
O 	O 	0.78804 0.39695 0.56374 -0.39700
O 	O 	0.79283 0.39438 0.50450 -0.42200
Ni	Ni	0.02662 0.97337 0.73161 1.08500
O 	O 	0.05609 0.91113 0.71860 -0.71500
Ni	Ni	0.08605 0.95689 0.69306 1.09400
O 	O 	0.95008 0.83448 0.73195 -0.41400
O 	O 	0.09313 0.01175 0.74979 -0.37000
Ni	Ni	0.00484 0.82645 0.71180 1.06000
O 	O 	0.07577 0.11738 0.74119 -0.41000
O 	O 	0.96214 0.84678 0.68834 -0.39000
O 	O 	0.11125 0.88913 0.68101 -0.38500
O 	O 	0.05358 0.01864 0.70535 -0.69600
O 	O 	0.99744 0.03761 0.74310 -0.37300
O 	O 	0.12778 0.01914 0.67160 -0.36600
O 	O 	0.13955 0.11764 0.68504 -0.40400
Ni	Ni	0.10291 0.10376 0.71314 1.06700
H 	H 	0.08395 0.90612 0.72743 0.15000
H 	H 	0.02494 0.02219 0.69667 0.14900
C 	C 	0.97775 0.90000 0.67803 0.29300
O 	O 	0.15172 0.06390 0.72578 -0.42400
C 	C 	0.96213 0.85462 0.75108 0.29400
C 	C 	0.07805 0.83035 0.67806 0.31400
C 	C 	0.14027 0.03019 0.74258 0.29400
C 	C 	0.15856 0.07739 0.67661 0.30200
C 	C 	0.02634 0.09794 0.74546 0.29900
Ni	Ni	0.25566 0.67231 0.40275 1.09900
O 	O 	0.31447 0.71316 0.38307 -0.70400
Ni	Ni	0.37444 0.70608 0.39900 1.10100
O 	O 	0.20326 0.68624 0.38235 -0.36700
O 	O 	0.25110 0.79251 0.37988 -0.41100
O 	O 	0.24864 0.58977 0.38717 -0.39800
Ni	Ni	0.32871 0.80275 0.37781 1.06400
O 	O 	0.24656 0.61499 0.44962 -0.42100
O 	O 	0.33944 0.82915 0.40825 -0.41700
O 	O 	0.42713 0.73845 0.37666 -0.37900
O 	O 	0.31775 0.67886 0.42029 -0.70300
O 	O 	0.19608 0.62384 0.42165 -0.37600
O 	O 	0.42493 0.67577 0.41579 -0.37500
O 	O 	0.36226 0.57840 0.41982 -0.42100
Ni	Ni	0.30308 0.59771 0.43413 1.07000
H 	H 	0.30959 0.68893 0.36989 0.15500
H 	H 	0.32289 0.71275 0.43086 0.15500
C 	C 	0.38115 0.83107 0.41863 0.30700
O 	O 	0.24758 0.53206 0.41598 -0.40200
C 	C 	0.21295 0.74111 0.37304 0.27200
C 	C 	0.43072 0.79120 0.36676 0.27500
C 	C 	0.24297 0.53544 0.39595 0.32300
C 	C 	0.41035 0.61717 0.42258 0.29500
C 	C 	0.20111 0.60852 0.44106 0.31000
O 	O 	0.40685 0.79430 0.41329 -0.37200
O 	O 	0.40684 0.82927 0.37364 -0.40500
Ni	Ni	0.33164 0.67529 0.03525 1.10100
O 	O 	0.26504 0.65855 0.01811 -0.70200
Ni	Ni	0.22084 0.68113 0.03847 1.09900
O 	O 	0.35959 0.62096 0.01678 -0.37600
O 	O 	0.28376 0.53633 0.01771 -0.41800
O 	O 	0.37089 0.75206 0.01739 -0.37000
Ni	Ni	0.22762 0.57188 0.00768 1.06900
O 	O 	0.39960 0.80286 0.05623 -0.40600
O 	O 	0.17723 0.52315 0.02991 -0.39900
O 	O 	0.14876 0.64651 0.02395 -0.38300
O 	O 	0.29089 0.70939 0.05388 -0.70200
O 	O 	0.39614 0.69903 0.05371 -0.37900
O 	O 	0.19122 0.72131 0.06113 -0.37100
O 	O 	0.25589 0.81795 0.05783 -0.41100
Ni	Ni	0.32516 0.80148 0.05623 1.06500
H 	H 	0.27100 0.68834 0.00653 0.15600
H 	H 	0.28865 0.68996 0.06759 0.15500
C 	C 	0.17359 0.54425 0.04859 0.30800
O 	O 	0.32370 0.81392 0.02534 -0.42100
C 	C 	0.33149 0.56184 0.01161 0.29500
C 	C 	0.13699 0.61187 0.00664 0.30700
C 	C 	0.35663 0.80107 0.01359 0.30900
C 	C 	0.21611 0.78023 0.06784 0.27500
C 	C 	0.41422 0.75588 0.06289 0.27700
O 	O 	0.20467 0.60032 0.05525 -0.40400
O 	O 	0.17272 0.60214 0.99545 -0.42500
Ni	Ni	0.92122 0.00960 0.24429 1.10100
O 	O 	0.92959 0.08603 0.22602 -0.70400
Ni	Ni	0.89852 0.04167 0.19963 1.10200
O 	O 	0.95593 0.06867 0.26880 -0.35300
O 	O 	0.02706 0.11902 0.24985 -0.41100
O 	O 	0.85054 0.01344 0.25158 -0.38800
Ni	Ni	0.00094 0.13691 0.22093 1.05700
O 	O 	0.88264 0.84952 0.23655 -0.40700
O 	O 	0.01997 0.06242 0.20994 -0.41700
O 	O 	0.90312 0.12147 0.18392 -0.37800
O 	O 	0.90127 0.96690 0.21674 -0.70500
O 	O 	0.90771 0.92970 0.26158 -0.37500
O 	O 	0.84948 0.98434 0.17739 -0.37600
O 	O 	0.79459 0.92748 0.20176 -0.41800
Ni	Ni	0.84026 0.89045 0.21959 1.07200
H 	H 	0.91044 0.11293 0.23100 0.15800
H 	H 	0.92950 0.95274 0.21240 0.15600
C 	C 	0.00286 0.03562 0.19190 0.28700
O 	O 	0.80883 0.90661 0.24621 -0.39500
C 	C 	0.00108 0.11469 0.26689 0.25100
C 	C 	0.94803 0.16923 0.18305 0.29300
C 	C 	0.80847 0.96240 0.25223 0.31600
C 	C 	0.80481 0.94184 0.18237 0.28800
C 	C 	0.90910 0.87574 0.25368 0.30200
C 	C 	0.13821 0.50099 0.06305 -0.08900
C 	C 	0.08812 0.46239 0.05642 0.01600
C 	C 	0.05384 0.42325 0.07036 -0.06400
C 	C 	0.06946 0.42199 0.09101 0.02000
C 	C 	0.11963 0.46040 0.09760 -0.06400
C 	C 	0.15373 0.49989 0.08372 0.01700
C 	C 	0.03419 0.37841 0.10557 0.01700
C 	C 	0.01489 0.31234 0.10155 -0.06900
C 	C 	0.98790 0.27039 0.11660 -0.00200
C 	C 	0.98029 0.29404 0.13582 -0.02100
C 	C 	0.99676 0.36013 0.13940 -0.00400
C 	C 	0.02341 0.40222 0.12430 -0.07000
C 	C 	0.96452 0.25106 0.15277 0.05000
H 	H 	0.07550 0.46340 0.04057 0.03100
H 	H 	0.01519 0.39397 0.06511 0.04300
H 	H 	0.13237 0.45919 0.11342 0.04300
H 	H 	0.19234 0.52919 0.08901 0.02900
H 	H 	0.02265 0.29338 0.08712 0.04400
H 	H 	0.97520 0.21938 0.11367 0.04000
H 	H 	0.03727 0.45317 0.12744 0.04300
C 	C 	0.46033 0.77195 0.07659 -0.08800
C 	C 	0.49632 0.74146 0.07403 0.01700
C 	C 	0.54167 0.76002 0.08621 -0.06600
C 	C 	0.55139 0.80908 0.10103 0.02600
C 	C 	0.51500 0.83857 0.10389 -0.06800
C 	C 	0.46970 0.82010 0.09174 0.01200
C 	C 	0.59979 0.83003 0.11345 0.00200
C 	C 	0.63526 0.89246 0.11180 -0.04000
C 	C 	0.67901 0.91419 0.12486 -0.03200
C 	C 	0.68761 0.87364 0.13960 -0.00800
C 	C 	0.65310 0.81066 0.14084 -0.03300
C 	C 	0.60930 0.78886 0.12780 -0.04100
C 	C 	0.72976 0.89786 0.15435 0.04400
C 	C 	0.76440 0.91811 0.16700 -0.11000
H 	H 	0.48973 0.70443 0.06234 0.04100
H 	H 	0.56956 0.73691 0.08394 0.04700
H 	H 	0.52196 0.87600 0.11548 0.04400
H 	H 	0.44196 0.84343 0.09402 0.01000
H 	H 	0.62841 0.92440 0.10065 0.04100
H 	H 	0.70565 0.96289 0.12379 0.04100
H 	H 	0.65962 0.77902 0.15219 0.03500
H 	H 	0.58217 0.74056 0.12915 0.03800
C 	C 	0.19399 0.80761 0.08420 -0.09100
C 	C 	0.22654 0.85653 0.09718 0.01200
C 	C 	0.20561 0.88434 0.11222 -0.06900
C 	C 	0.15201 0.86361 0.11437 0.02600
C 	C 	0.11948 0.81383 0.10172 -0.06800
C 	C 	0.14035 0.78580 0.08672 0.01600
C 	C 	0.12977 0.89692 0.12881 -0.00200
C 	C 	0.10732 0.93988 0.12141 -0.03800
C 	C 	0.08478 0.97022 0.13500 -0.04100
C 	C 	0.08446 0.95773 0.15607 -0.00400
C 	C 	0.10763 0.91559 0.16357 -0.03800
C 	C 	0.13037 0.88533 0.14996 -0.04000
C 	C 	0.05743 0.98507 0.16968 0.03200
C 	C 	0.03334 0.00814 0.18031 -0.10300
H 	H 	0.26803 0.87315 0.09558 0.00700
H 	H 	0.23097 0.92273 0.12195 0.04300
H 	H 	0.07800 0.79760 0.10330 0.04500
H 	H 	0.11478 0.74814 0.07681 0.03800
H 	H 	0.10699 0.94934 0.10511 0.03800
H 	H 	0.06689 0.00272 0.12911 0.04400
H 	H 	0.10744 0.90565 0.17984 0.03500
H 	H 	0.14785 0.85237 0.15580 0.03600
C 	C 	0.47270 0.81717 0.35204 -0.08300
C 	C 	0.51552 0.79731 0.35243 0.01400
C 	C 	0.55690 0.82557 0.33958 -0.06500
C 	C 	0.55600 0.87397 0.32620 0.02500
C 	C 	0.51286 0.89293 0.32547 -0.06600
C 	C 	0.47135 0.86457 0.33827 0.01000
C 	C 	0.60012 0.90432 0.31284 0.00200
C 	C 	0.59326 0.89873 0.29135 -0.04000
C 	C 	0.63595 0.92140 0.27875 -0.03300
C 	C 	0.68577 0.94970 0.28752 -0.00700
C 	C 	0.69236 0.95825 0.30893 -0.03200
C 	C 	0.64969 0.93576 0.32155 -0.04000
C 	C 	0.73010 0.95975 0.27498 0.04700
C 	C 	0.76652 0.96388 0.26453 -0.10400
H 	H 	0.51728 0.76089 0.36293 0.04200
H 	H 	0.58975 0.81003 0.34007 0.04800
H 	H 	0.51164 0.92995 0.31511 0.04300
H 	H 	0.43836 0.87982 0.33758 0.01600
H 	H 	0.55516 0.87493 0.28445 0.03700
H 	H 	0.63049 0.91453 0.26222 0.03800
H 	H 	0.73071 0.98007 0.31585 0.04200
H 	H 	0.65533 0.94121 0.33811 0.04200
C 	C 	0.02842 0.14974 0.28541 -0.07300
C 	C 	0.07915 0.15341 0.29008 0.00500
C 	C 	0.10731 0.19251 0.30632 -0.06200
C 	C 	0.08521 0.22881 0.31792 0.01800
C 	C 	0.03363 0.22278 0.31389 -0.05500
C 	C 	0.00526 0.18309 0.29775 -0.01700
C 	C 	0.11744 0.27749 0.33285 0.00400
C 	C 	0.10323 0.27634 0.35346 -0.04200
C 	C 	0.13166 0.32545 0.36715 -0.03100
C 	C 	0.17453 0.37574 0.36034 -0.00900
C 	C 	0.18977 0.37578 0.33997 -0.03200
C 	C 	0.16130 0.32696 0.32625 -0.04300
C 	C 	0.19952 0.43045 0.37354 0.04900
C 	C 	0.21986 0.47769 0.38406 -0.11000
H 	H 	0.09703 0.12680 0.28089 0.03400
H 	H 	0.14681 0.19604 0.30953 0.04300
H 	H 	0.01614 0.25046 0.32279 0.04000
H 	H 	0.06973 0.23806 0.35875 0.04000
H 	H 	0.11965 0.32514 0.38290 0.03900
H 	H 	0.22282 0.41458 0.33459 0.03600
H 	H 	0.17255 0.32837 0.31037 0.03700
C 	C 	0.17495 0.74763 0.35767 -0.08800
C 	C 	0.17591 0.80837 0.35194 0.00600
C 	C 	0.14021 0.81421 0.33729 -0.06600
C 	C 	0.10323 0.75956 0.32820 0.02200
C 	C 	0.10220 0.69895 0.33382 -0.06500
C 	C 	0.13798 0.69293 0.34842 0.00900
C 	C 	0.06522 0.76597 0.31300 0.00400
C 	C 	0.01348 0.75055 0.31829 -0.05800
C 	C 	0.97880 0.76429 0.30486 -0.01600
C 	C 	0.99565 0.79329 0.28606 0.00600
C 	C 	0.04662 0.80550 0.28030 -0.05100
C 	C 	0.08134 0.79193 0.29373 -0.03900
C 	C 	0.93760 0.84317 0.26461 -0.10400
H 	H 	0.20405 0.85103 0.35889 0.02700
H 	H 	0.14109 0.86123 0.33306 0.04300
H 	H 	0.07382 0.65652 0.32682 0.04400
H 	H 	0.13711 0.64578 0.35243 0.03900
H 	H 	0.00063 0.73006 0.33309 0.04200
H 	H 	0.93942 0.75462 0.30941 0.04100
H 	H 	0.05988 0.82777 0.26576 0.03700
H 	H 	0.12111 0.80333 0.28944 0.03500
C 	C 	0.51838 0.07203 0.48595 -0.00600
C 	C 	0.52521 0.07861 0.46471 -0.03400
C 	C 	0.49354 0.03153 0.45110 -0.02700
C 	C 	0.45497 0.97769 0.45869 -0.01000
C 	C 	0.44708 0.97217 0.47988 -0.04100
C 	C 	0.47872 0.01926 0.49349 -0.02700
C 	C 	0.42740 0.92538 0.44496 0.04600
C 	C 	0.40490 0.88230 0.43311 -0.11000
C 	C 	0.55286 0.11837 0.50005 0.04800
C 	C 	0.58110 0.15639 0.51223 -0.10900
H 	H 	0.55555 0.11953 0.45877 0.04000
H 	H 	0.49985 0.03610 0.43472 0.04100
H 	H 	0.41735 0.93068 0.48586 0.03800
H 	H 	0.47300 0.01415 0.50990 0.03900
C 	C 	0.97523 0.46177 0.49167 0.01900
C 	C 	0.00466 0.52561 0.49663 -0.07600
C 	C 	0.05178 0.55575 0.48718 -0.02300
C 	C 	0.06969 0.52215 0.47276 -0.00700
C 	C 	0.04093 0.45783 0.46823 -0.04800
C 	C 	0.11641 0.55424 0.46193 0.04400
C 	C 	0.15534 0.57981 0.45264 -0.10500
C 	C 	0.92434 0.43281 0.49977 0.03800
C 	C 	0.88183 0.40922 0.50667 -0.10000
H 	H 	0.99061 0.55223 0.50749 0.05700
H 	H 	0.07387 0.60540 0.49084 0.03300
H 	H 	0.05460 0.43145 0.45715 0.04200
C 	C 	0.50643 0.56486 0.46090 -0.00700
C 	C 	0.54235 0.53987 0.45327 -0.03400
C 	C 	0.57196 0.51792 0.46687 -0.03400
C 	C 	0.56572 0.52086 0.48814 -0.00700
C 	C 	0.53090 0.54760 0.49578 -0.03400
C 	C 	0.50131 0.56957 0.48219 -0.03500
C 	C 	0.59187 0.49181 0.50195 0.04500
C 	C 	0.61405 0.46726 0.51332 -0.11800
C 	C 	0.47319 0.58303 0.44694 0.04400
C 	C 	0.44490 0.59856 0.43558 -0.12000
H 	H 	0.54668 0.53638 0.43683 0.04000
H 	H 	0.59887 0.49737 0.46085 0.03500
H 	H 	0.52592 0.55009 0.51221 0.04000
H 	H 	0.47377 0.58912 0.48820 0.03400
C 	C 	0.93934 0.92085 0.66744 -0.09300
C 	C 	0.91473 0.95555 0.67842 0.01100
C 	C 	0.89049 0.99188 0.66791 -0.07800
C 	C 	0.89021 0.99307 0.64633 0.02300
C 	C 	0.91091 0.95398 0.63535 -0.06700
C 	C 	0.93544 0.91808 0.64587 0.02400
C 	C 	0.87157 0.03833 0.63529 0.00500
C 	C 	0.81996 0.03386 0.63667 -0.03200
C 	C 	0.80185 0.07499 0.62547 -0.03600
C 	C 	0.83517 0.12077 0.61281 -0.00700
C 	C 	0.88705 0.12638 0.61181 -0.03100
C 	C 	0.90527 0.08545 0.62306 -0.04000
C 	C 	0.81484 0.15768 0.59948 0.04300
C 	C 	0.79547 0.18576 0.58818 -0.10900
H 	H 	0.87393 0.02117 0.67653 0.05100
H 	H 	0.90972 0.95332 0.61869 0.04800
H 	H 	0.95378 0.89076 0.63725 0.03800
H 	H 	0.79370 0.99784 0.64611 0.03100
H 	H 	0.76165 0.07032 0.62628 0.03500
H 	H 	0.91301 0.16162 0.60205 0.04300
H 	H 	0.94537 0.08981 0.62211 0.04400
C 	C 	0.52582 0.23566 0.59156 -0.08300
C 	C 	0.48740 0.17453 0.59013 0.01200
C 	C 	0.44252 0.16050 0.60136 -0.06500
C 	C 	0.43538 0.20724 0.61414 0.02500
C 	C 	0.47387 0.26809 0.61583 -0.06500
C 	C 	0.51892 0.28230 0.60457 0.01000
C 	C 	0.38724 0.19244 0.62553 0.00200
C 	C 	0.38803 0.18678 0.64700 -0.04100
C 	C 	0.34171 0.16575 0.65754 -0.03300
C 	C 	0.29439 0.15037 0.64668 -0.00600
C 	C 	0.29363 0.15773 0.62531 -0.03200
C 	C 	0.33988 0.17873 0.61477 -0.04000
C 	C 	0.24656 0.12492 0.65733 0.04400
C 	C 	0.20641 0.10326 0.66615 -0.10300
H 	H 	0.49189 0.13813 0.58008 0.03600
H 	H 	0.41311 0.11331 0.60005 0.04700
H 	H 	0.46874 0.30443 0.62573 0.04500
H 	H 	0.54835 0.32943 0.60597 0.03100
H 	H 	0.42437 0.19715 0.65544 0.03700
H 	H 	0.34261 0.16044 0.67407 0.03700
H 	H 	0.25721 0.14626 0.61683 0.04100
H 	H 	0.33888 0.18314 0.59820 0.04200
C 	C 	0.86360 0.49221 0.56590 -0.08600
C 	C 	0.86862 0.49283 0.58744 0.01900
C 	C 	0.91211 0.53665 0.59749 -0.06300
C 	C 	0.95110 0.58010 0.58610 0.02600
C 	C 	0.94724 0.57751 0.56453 -0.06400
C 	C 	0.90369 0.53374 0.55447 0.01700
C 	C 	0.99297 0.63218 0.59683 0.01600
C 	C 	0.02519 0.61793 0.61145 -0.05900
C 	C 	0.05544 0.66522 0.62534 -0.03100
C 	C 	0.05355 0.72689 0.62471 -0.00600
C 	C 	0.02599 0.74279 0.60862 -0.05100
C 	C 	0.99567 0.69556 0.59474 -0.02400
C 	C 	0.06787 0.76720 0.64288 0.04500
H 	H 	0.83812 0.46090 0.59644 0.03400
H 	H 	0.91468 0.53833 0.61415 0.04900
H 	H 	0.97736 0.61037 0.55560 0.04800
H 	H 	0.90075 0.53276 0.53782 0.03000
H 	H 	0.02441 0.56947 0.61286 0.03900
H 	H 	0.02489 0.79057 0.60782 0.04100
H 	H 	0.97166 0.70737 0.58326 0.04000
C 	C 	0.89121 0.49014 0.96435 -0.00800
C 	C 	0.92424 0.55110 0.95900 -0.02800
C 	C 	0.97283 0.57813 0.96875 -0.04200
C 	C 	0.98860 0.54436 0.98390 0.01900
C 	C 	0.90618 0.45736 0.98005 -0.02800
C 	C 	0.04085 0.56870 0.99206 0.02000
C 	C 	0.08460 0.58915 0.99889 -0.10100
C 	C 	0.84388 0.45945 0.95267 0.04800
C 	C 	0.80448 0.43485 0.94264 -0.10600
H 	H 	0.91283 0.57683 0.94693 0.04100
H 	H 	0.99869 0.62455 0.96414 0.04700
H 	H 	0.88077 0.41032 0.98433 0.04000
C 	C 	0.44523 0.93805 0.97561 -0.00200
C 	C 	0.44322 0.99962 0.97648 -0.04900
C 	C 	0.47510 0.04744 0.96412 -0.02500
C 	C 	0.50919 0.03395 0.95084 -0.00200
C 	C 	0.51175 0.97259 0.95018 -0.03900
C 	C 	0.47984 0.92473 0.96255 -0.03500
C 	C 	0.53752 0.08120 0.93648 0.04500
C 	C 	0.56052 0.12201 0.92469 -0.10600
C 	C 	0.41329 0.88933 0.98875 0.04300
C 	C 	0.38647 0.84873 0.99979 -0.10700
H 	H 	0.41690 0.01043 0.98666 0.04600
H 	H 	0.47267 0.09464 0.96464 0.03900
H 	H 	0.53777 0.96167 0.93986 0.03900
H 	H 	0.48195 0.87737 0.96193 0.04100
C 	C 	0.45086 0.42790 0.94370 -0.00800
C 	C 	0.41633 0.45629 0.93634 -0.03400
C 	C 	0.38761 0.47740 0.95016 -0.03500
C 	C 	0.39342 0.47026 0.97137 -0.00800
C 	C 	0.42637 0.43951 0.97864 -0.03400
C 	C 	0.45502 0.41835 0.96483 -0.03500
C 	C 	0.37073 0.50129 0.98569 0.04400
C 	C 	0.35175 0.52726 0.99768 -0.11900
C 	C 	0.48370 0.41113 0.92972 0.04400
C 	C 	0.51172 0.39657 0.91842 -0.12300
H 	H 	0.41260 0.46333 0.92000 0.03900
H 	H 	0.36215 0.50107 0.94442 0.03400
H 	H 	0.43102 0.43378 0.99501 0.04000
H 	H 	0.48133 0.39592 0.97061 0.03500
C 	C 	0.79023 0.24528 0.85352 -0.08700
C 	C 	0.77627 0.19281 0.83977 0.01000
C 	C 	0.81217 0.18594 0.82608 -0.06600
C 	C 	0.86238 0.23142 0.82601 0.02400
C 	C 	0.87667 0.28328 0.83995 -0.06400
C 	C 	0.84081 0.29024 0.85365 0.01500
C 	C 	0.90000 0.22436 0.81141 0.01000
C 	C 	0.94342 0.21159 0.81865 -0.05200
C 	C 	0.97562 0.19711 0.80475 -0.00000
C 	C 	0.96462 0.19533 0.78355 -0.02800
C 	C 	0.92308 0.21188 0.77627 -0.02100
C 	C 	0.89085 0.22635 0.79015 -0.04700
C 	C 	0.00804 0.13703 0.75844 -0.13900
H 	H 	0.73738 0.15798 0.83944 0.01100
H 	H 	0.80095 0.14542 0.81547 0.04500
H 	H 	0.91543 0.31840 0.84008 0.04800
H 	H 	0.85234 0.33059 0.86432 0.04200
H 	H 	0.95109 0.21054 0.83504 0.04700
H 	H 	0.00769 0.18445 0.81051 0.02300
H 	H 	0.91437 0.21076 0.75990 0.03400
H 	H 	0.85787 0.23714 0.78441 0.04000
C 	C 	0.49024 0.15409 0.84032 -0.08500
C 	C 	0.47694 0.18876 0.82472 0.01100
C 	C 	0.43377 0.15931 0.81182 -0.06500
C 	C 	0.40344 0.09497 0.81442 0.02500
C 	C 	0.41769 0.05963 0.82952 -0.06600
C 	C 	0.46101 0.08898 0.84239 0.01300
C 	C 	0.35485 0.06618 0.80235 0.00200
C 	C 	0.35589 0.05881 0.78094 -0.04100
C 	C 	0.31009 0.04159 0.76908 -0.03300
C 	C 	0.26304 0.03173 0.77855 -0.00800
C 	C 	0.26159 0.03528 0.80004 -0.03200
C 	C 	0.30736 0.05236 0.81192 -0.04000
C 	C 	0.21816 0.02758 0.76619 0.04300
C 	C 	0.18178 0.02712 0.75558 -0.10800
H 	H 	0.49949 0.23882 0.82285 0.02600
H 	H 	0.42308 0.18691 0.80015 0.04500
H 	H 	0.39459 0.00984 0.83157 0.04600
H 	H 	0.47078 0.06168 0.85440 0.03700
H 	H 	0.39233 0.06873 0.77344 0.03800
H 	H 	0.31146 0.03861 0.75247 0.03800
H 	H 	0.22533 0.02747 0.80747 0.04100
H 	H 	0.30617 0.05754 0.82846 0.04200
C 	C 	0.73471 0.51627 0.86705 -0.09000
C 	C 	0.72423 0.50862 0.84574 0.01800
C 	C 	0.75036 0.55735 0.83244 -0.06700
C 	C 	0.78706 0.61434 0.84030 0.02700
C 	C 	0.79587 0.62323 0.86165 -0.06700
C 	C 	0.76982 0.57447 0.87497 0.01800
C 	C 	0.81872 0.66272 0.82613 0.00200
C 	C 	0.87231 0.67708 0.82580 -0.03900
C 	C 	0.90179 0.71893 0.81125 -0.03300
C 	C 	0.87794 0.74668 0.79693 -0.00700
C 	C 	0.82463 0.73361 0.79752 -0.03300
C 	C 	0.79509 0.69181 0.81209 -0.04000
C 	C 	0.90770 0.78576 0.78094 0.04300
C 	C 	0.93261 0.81764 0.76740 -0.10800
H 	H 	0.69667 0.46440 0.83944 0.02700
H 	H 	0.74310 0.55014 0.81599 0.04500
H 	H 	0.82377 0.66733 0.86788 0.04800
H 	H 	0.77825 0.58116 0.89137 0.03700
H 	H 	0.89091 0.65475 0.83652 0.04200
H 	H 	0.94300 0.72886 0.81089 0.03900
H 	H 	0.80595 0.75501 0.78652 0.03900
H 	H 	0.75380 0.68131 0.81228 0.03800
O 	O 	0.99438 0.91278 0.75507 -0.36800
O 	O 	0.02563 0.92424 0.67241 -0.39800
O 	O 	0.05158 0.79751 0.69344 -0.42100
O 	O 	0.96057 0.03916 0.18335 -0.35900
O 	O 	0.99075 0.16433 0.19149 -0.39900
C 	C 	0.95471 0.21415 0.16679 -0.09900
H 	H 	0.99090 0.37888 0.15418 0.03300
H 	H 	0.96597 0.18012 0.29437 0.04500
C 	C 	0.96326 0.81885 0.27419 0.04500
C 	C 	0.99381 0.42772 0.47765 -0.02300
H 	H 	0.97133 0.37837 0.47375 0.04400
H 	H 	0.91727 0.95766 0.69509 0.00700
C 	C 	0.07531 0.79805 0.65869 -0.10800
H 	H 	0.07731 0.65271 0.63753 0.03500
C 	C 	0.95480 0.48444 0.98982 -0.04200
H 	H 	0.96667 0.45814 0.00159 0.04600
C 	C 	0.98963 0.16566 0.76974 0.08100
