data_crystal

_cell_length_a 20.27882
_cell_length_b 21.40241
_cell_length_c 31.31165
_cell_angle_alpha 60.76298
_cell_angle_beta  118.95345
_cell_angle_gamma 133.32641

_symmetry_space_group_name_	'P 1'
_symmetry_space_group_name_H-M	'P 1'

loop_
_symmetry_equiv_pos_as_xyz
  x,y,z

loop_
_atom_site_label
_atom_site_type_symbol
_atom_site_fract_x
_atom_site_fract_y
_atom_site_fract_z
_atom_site_charge
C 	C 	0.01179 0.98753 0.27336 0.34800
N 	N 	0.01685 0.62272 0.69719 -0.03400
O 	O 	0.01548 0.94105 0.25829 -0.36200
C 	C 	0.02023 0.95212 0.47102 0.34800
O 	O 	0.02233 0.00324 0.48558 -0.41100
O 	O 	0.00152 0.74749 0.59875 -0.40600
C 	C 	0.01472 0.96978 0.41725 -0.07200
O 	O 	0.00865 0.87773 0.50172 -0.38800
Co	Co	0.04622 0.11170 0.60248 1.17800
C 	C 	0.01906 0.96953 0.32755 -0.06500
O 	O 	0.05982 0.44823 0.49413 -0.08300
Co	Co	0.04200 0.00014 0.05422 1.15900
O 	O 	0.02462 0.09154 0.04227 -0.46000
O 	O 	0.03836 0.90758 0.08678 -0.73400
C 	C 	0.05440 0.01299 0.89200 -0.11800
C 	C 	0.05791 0.01686 0.84667 0.11600
N 	N 	0.04897 0.64368 0.22210 -0.02100
O 	O 	0.00319 0.05120 0.24098 -0.41200
O 	O 	0.04577 0.99222 0.62827 -0.55000
Co	Co	0.09565 0.88014 0.06290 1.17900
O 	O 	0.06442 0.92612 0.59118 -0.73500
Co	Co	0.00193 0.85771 0.63582 1.18400
C 	C 	0.04783 0.20188 0.13938 0.30300
Co	Co	0.08537 0.02628 0.55924 1.16900
O 	O 	0.09382 0.13360 0.54852 -0.45000
O 	O 	0.09608 0.16817 0.70365 -0.39700
O 	O 	0.08709 0.81456 0.68886 -0.34500
O 	O 	0.01822 0.33896 0.47100 -0.07700
H 	H 	0.11285 0.06608 0.91087 0.07800
O 	O 	0.07292 0.17085 0.12668 -0.37700
O 	O 	0.12827 0.85633 0.18641 -0.34900
Co	Co	0.10226 0.87747 0.56983 1.18400
H 	H 	0.11905 0.13329 0.80568 0.15000
C 	C 	0.09732 0.03223 0.39999 -0.08900
C 	C 	0.10007 0.03159 0.35591 0.14000
H 	H 	0.10656 0.57468 0.69390 0.08000
H 	H 	0.09723 0.58550 0.18968 0.08000
C 	C 	0.11555 0.67330 0.70441 0.10500
H 	H 	0.07794 0.34746 0.06381 0.07700
O 	O 	0.08578 0.53187 0.05775 -0.08000
O 	O 	0.01867 0.68171 0.22122 -0.10300
O 	O 	0.01081 0.55998 0.24442 -0.08700
C 	C 	0.10668 0.35913 0.10077 -0.01400
C 	C 	0.11148 0.29444 0.14359 -0.07200
O 	O 	0.01991 0.74754 0.09974 -0.41000
N 	N 	0.00243 0.36575 0.49208 -0.02900
Co	Co	0.00433 0.84493 0.14224 1.18300
N 	N 	0.12455 0.49991 0.06093 -0.01800
C 	C 	0.13029 0.69513 0.20362 0.09900
O 	O 	0.13342 0.08946 0.82626 -0.26800
O 	O 	0.96130 0.15536 0.14118 -0.38500
O 	O 	0.94054 0.28839 0.98559 -0.08100
Co	Co	0.97254 0.05787 0.09810 1.17000
C 	C 	0.17368 0.84962 0.17141 0.30400
O 	O 	0.98612 0.85927 0.00075 -0.36200
O 	O 	0.19833 0.90005 0.12838 -0.35300
C 	C 	0.15475 0.23367 0.67427 0.30200
C 	C 	0.15090 0.82216 0.67994 0.30100
O 	O 	0.15547 0.21992 0.63684 -0.34600
O 	O 	0.18788 0.88091 0.64082 -0.35500
C 	C 	0.96952 0.96585 0.76673 0.30700
H 	H 	0.16074 0.07894 0.42189 0.07400
O 	O 	0.18176 0.09273 0.34031 -0.24900
H 	H 	0.21423 0.06429 0.35689 0.15200
C 	C 	0.21774 0.33671 0.72164 -0.01700
C 	C 	0.20714 0.32522 0.67754 -0.07900
H 	H 	0.21166 0.28594 0.75645 0.06900
O 	O 	0.17276 0.37086 0.78595 -0.09100
O 	O 	0.20333 0.41856 0.54768 -0.07000
O 	O 	0.95986 0.56146 0.67262 -0.07600
O 	O 	0.98476 0.62869 0.72128 -0.05700
C 	C 	0.13198 0.43586 0.10538 0.08200
O 	O 	0.15369 0.52401 0.02295 -0.07200
O 	O 	0.81810 0.16555 0.95720 -0.07700
C 	C 	0.69854 0.27799 0.02187 0.14600
N 	N 	0.60543 0.23871 0.00914 -0.12600
C 	C 	0.57398 0.28075 0.00530 0.15500
N 	N 	0.63525 0.36568 0.00840 -0.13000
C 	C 	0.72788 0.40418 0.02422 0.14700
N 	N 	0.76036 0.36069 0.03052 -0.11900
C 	C 	0.74290 0.31684 0.51629 0.14300
N 	N 	0.64812 0.26560 0.50471 -0.12300
C 	C 	0.60301 0.29348 0.50237 0.15300
N 	N 	0.65202 0.37649 0.50587 -0.12500
C 	C 	0.74597 0.42661 0.52035 0.15000
N 	N 	0.79255 0.39702 0.52583 -0.12700
C 	C 	0.26904 0.65493 0.18353 0.14500
N 	N 	0.35580 0.70637 0.17628 -0.12000
C 	C 	0.38074 0.67531 0.16259 0.15700
N 	N 	0.31637 0.59581 0.15124 -0.12600
C 	C 	0.22940 0.54299 0.15807 0.15000
N 	N 	0.20534 0.57163 0.17515 -0.12700
C 	C 	0.29089 0.66215 0.70135 0.15000
N 	N 	0.24446 0.57950 0.69651 -0.12600
C 	C 	0.28062 0.56664 0.67686 0.14900
N 	N 	0.36120 0.63564 0.66195 -0.13200
C 	C 	0.40858 0.71639 0.66819 0.15200
N 	N 	0.37322 0.73003 0.68734 -0.11800
Co	Co	0.94207 0.90515 0.18757 1.19400
C 	C 	0.22488 0.07624 0.04555 0.32300
Co	Co	0.88938 0.02376 0.18088 1.15100
C 	C 	0.93318 0.70207 0.10058 0.33500
O 	O 	0.78355 0.99299 0.11747 -0.33000
O 	O 	0.93760 0.99286 0.15340 -0.71200
C 	C 	0.80050 0.05055 0.07406 0.24600
O 	O 	0.96083 0.81510 0.20033 -0.42100
C 	C 	0.76406 0.82788 0.20447 0.32700
O 	O 	0.96319 0.93728 0.11247 -0.54100
C 	C 	0.98489 0.92640 0.96707 0.29900
O 	O 	0.86115 0.07021 0.05525 -0.34600
O 	O 	0.98960 0.98090 0.98017 -0.31100
O 	O 	0.81473 0.89559 0.22329 -0.38200
O 	O 	0.80214 0.81739 0.18682 -0.37200
O 	O 	0.17684 0.01087 0.02513 -0.43200
O 	O 	0.18513 0.08019 0.06637 -0.39700
O 	O 	0.91015 0.72642 0.11983 -0.34700
Co	Co	0.94646 0.93772 0.67184 1.20300
C 	C 	0.25866 0.07100 0.55497 0.32900
Co	Co	0.95596 0.09688 0.67149 1.16600
C 	C 	0.91548 0.71952 0.58704 0.33800
O 	O 	0.98398 0.20303 0.60891 -0.39300
O 	O 	0.99198 0.04616 0.65042 -0.77800
C 	C 	0.94410 0.18924 0.56408 0.32300
O 	O 	0.92930 0.82736 0.67907 -0.42800
C 	C 	0.77656 0.93162 0.64522 0.36500
O 	O 	0.94620 0.13690 0.55451 -0.37400
O 	O 	0.82013 0.01761 0.63504 -0.43100
O 	O 	0.80989 0.89934 0.64093 -0.37500
O 	O 	0.92075 0.99680 0.73636 -0.37200
O 	O 	0.99019 0.93717 0.74893 -0.34200
O 	O 	0.20330 0.00192 0.53656 -0.42800
O 	O 	0.22605 0.08980 0.57105 -0.38500
O 	O 	0.89698 0.76212 0.59397 -0.35900
C 	C 	0.98389 0.94727 0.82202 -0.02700
C 	C 	0.90818 0.87321 0.84444 -0.05700
C 	C 	0.90454 0.86933 0.88966 0.16500
C 	C 	0.97736 0.94001 0.91356 -0.01800
H 	H 	0.84944 0.82032 0.82545 0.07700
O 	O 	0.82840 0.79712 0.90967 -0.24900
H 	H 	0.84215 0.75285 0.93069 0.16600
C 	C 	0.93710 0.90628 0.34534 -0.04400
C 	C 	0.93410 0.90721 0.38913 0.19500
H 	H 	0.87430 0.85819 0.32418 0.09300
O 	O 	0.85295 0.84452 0.40538 -0.26400
H 	H 	0.81922 0.87163 0.38926 0.18000
C 	C 	0.22320 0.39530 0.63386 0.11600
C 	C 	0.23126 0.46725 0.63194 -0.05300
C 	C 	0.23829 0.47727 0.67555 -0.01500
C 	C 	0.23218 0.41147 0.72073 0.07700
N 	N 	0.24374 0.42162 0.76627 -0.01900
H 	H 	0.24129 0.51990 0.59773 0.08400
N 	N 	0.24371 0.39952 0.59434 -0.02300
O 	O 	0.32657 0.47588 0.79038 -0.06400
O 	O 	0.31092 0.39511 0.60459 -0.07100
C 	C 	0.66708 0.84185 0.69859 -0.00100
C 	C 	0.68134 0.87274 0.65071 -0.09800
C 	C 	0.60695 0.86089 0.60794 0.13700
C 	C 	0.51901 0.81773 0.61375 -0.05200
C 	C 	0.50394 0.78377 0.66188 -0.00500
C 	C 	0.57902 0.79769 0.70443 0.08300
N 	N 	0.56537 0.76467 0.75385 -0.01800
H 	H 	0.72485 0.85280 0.73140 0.06400
H 	H 	0.46098 0.80595 0.58103 0.08700
N 	N 	0.61992 0.89065 0.55868 -0.02500
O 	O 	0.61171 0.81938 0.78142 -0.05700
O 	O 	0.51597 0.67972 0.77349 -0.06500
O 	O 	0.65443 0.86573 0.54990 -0.06900
O 	O 	0.58744 0.93400 0.52146 -0.05800
C 	C 	0.15272 0.63622 0.70504 -0.05200
C 	C 	0.24951 0.68047 0.71832 -0.01100
C 	C 	0.30735 0.75425 0.73887 0.08800
C 	C 	0.27093 0.79497 0.73413 -0.01100
C 	C 	0.17636 0.75963 0.71178 -0.06900
H 	H 	0.31745 0.85744 0.74436 0.08900
N 	N 	0.40262 0.78766 0.76451 -0.01800
O 	O 	0.46836 0.87217 0.75379 -0.05400
O 	O 	0.42322 0.73401 0.80009 -0.05400
C 	C 	0.17229 0.38636 0.19624 -0.05000
C 	C 	0.16719 0.45092 0.15345 -0.01000
C 	C 	0.14836 0.31038 0.19155 0.10700
N 	N 	0.16187 0.24946 0.23575 -0.02200
H 	H 	0.20233 0.39864 0.23322 0.08100
O 	O 	0.13882 0.22687 0.27584 -0.08600
O 	O 	0.20358 0.22180 0.23718 -0.07700
C 	C 	0.53122 0.71209 0.22268 -0.05100
C 	C 	0.47936 0.71558 0.17269 -0.00800
C 	C 	0.51804 0.74461 0.13403 0.08200
C 	C 	0.60915 0.77209 0.14571 -0.00500
C 	C 	0.66268 0.77297 0.19544 -0.08800
C 	C 	0.62189 0.73885 0.23437 0.12300
N 	N 	0.67243 0.73084 0.28593 -0.02500
H 	H 	0.49976 0.68549 0.25272 0.09200
H 	H 	0.64038 0.79835 0.11564 0.07600
N 	N 	0.46591 0.74861 0.08272 -0.01800
O 	O 	0.67337 0.75713 0.31605 -0.07900
O 	O 	0.71212 0.69180 0.30357 -0.07200
O 	O 	0.43253 0.79415 0.06212 -0.06500
O 	O 	0.45705 0.71156 0.05566 -0.06800
C 	C 	0.15199 0.65119 0.19634 -0.04800
C 	C 	0.24526 0.69068 0.20070 -0.01100
C 	C 	0.31611 0.77073 0.21688 0.08800
C 	C 	0.29238 0.82001 0.21544 -0.01200
C 	C 	0.19869 0.78641 0.20291 -0.06500
H 	H 	0.34683 0.88593 0.22179 0.09800
N 	N 	0.41085 0.79954 0.23715 -0.01800
O 	O 	0.47741 0.87966 0.21931 -0.05700
O 	O 	0.43119 0.74788 0.27580 -0.07600
C 	C 	0.87417 0.33948 0.50555 -0.05500
C 	C 	0.79112 0.28206 0.52162 -0.00800
C 	C 	0.74863 0.18971 0.53770 0.07400
C 	C 	0.78933 0.15720 0.53722 -0.01600
C 	C 	0.87999 0.21524 0.53021 -0.08100
C 	C 	0.91837 0.30645 0.50926 0.12500
H 	H 	0.90406 0.40941 0.48974 0.09100
H 	H 	0.75572 0.08659 0.54929 0.07400
N 	N 	0.66998 0.12980 0.55947 -0.01800
O 	O 	0.59035 0.06903 0.53743 -0.09900
O 	O 	0.68066 0.12976 0.60392 -0.10500
C 	C 	0.77649 0.48932 0.58197 -0.04600
C 	C 	0.79393 0.50434 0.53825 -0.01200
C 	C 	0.82846 0.58874 0.50450 0.08500
C 	C 	0.84952 0.65737 0.51601 -0.01500
C 	C 	0.84252 0.64493 0.56249 -0.07600
C 	C 	0.79605 0.55806 0.59276 0.12400
N 	N 	0.76966 0.53949 0.63488 -0.02200
H 	H 	0.74243 0.42288 0.60599 0.08300
H 	H 	0.87830 0.72233 0.49037 0.08600
N 	N 	0.84108 0.60494 0.45804 -0.02000
O 	O 	0.73978 0.57975 0.63167 -0.07000
O 	O 	0.76890 0.47774 0.67499 -0.06900
O 	O 	0.76890 0.56774 0.42274 -0.06500
O 	O 	0.92378 0.66411 0.44900 -0.07900
C 	C 	0.49549 0.16302 0.55684 -0.05900
C 	C 	0.50918 0.22845 0.51138 -0.01000
C 	C 	0.44250 0.24648 0.48274 0.07500
C 	C 	0.36605 0.20259 0.50118 -0.00600
C 	C 	0.35252 0.13722 0.54660 -0.09300
C 	C 	0.41888 0.11893 0.57511 0.11300
N 	N 	0.40756 0.05414 0.62242 -0.04800
H 	H 	0.54779 0.15063 0.57972 0.08800
H 	H 	0.31352 0.21480 0.47837 0.06400
N 	N 	0.45239 0.30944 0.43478 -0.01800
O 	O 	0.41530 0.99282 0.63188 -0.04300
O 	O 	0.39338 0.05868 0.65681 -0.09800
O 	O 	0.46835 0.30455 0.40135 -0.07500
O 	O 	0.44129 0.36919 0.42371 -0.07500
C 	C 	0.69765 0.07716 0.07269 -0.03000
C 	C 	0.76394 0.10440 0.05179 -0.06500
C 	C 	0.80724 0.18989 0.01880 0.10700
C 	C 	0.79086 0.24912 0.01192 -0.05200
C 	C 	0.73010 0.22318 0.03652 -0.00800
C 	C 	0.68582 0.13736 0.06831 0.07700
N 	N 	0.63050 0.11179 0.09745 -0.02000
H 	H 	0.66026 0.01049 0.09593 0.05900
H 	H 	0.82193 0.31345 0.98564 0.08900
N 	N 	0.85858 0.21317 0.98807 -0.01900
O 	O 	0.54504 0.04061 0.09455 -0.09900
O 	O 	0.66768 0.15606 0.12954 -0.08600
C 	C 	0.76663 0.54604 0.01770 -0.05600
C 	C 	0.78921 0.48533 0.04236 -0.00900
C 	C 	0.85005 0.48984 0.09063 0.08000
C 	C 	0.88852 0.55519 0.11269 -0.00700
C 	C 	0.86565 0.61550 0.08797 -0.07900
C 	C 	0.79800 0.60542 0.04209 0.11100
N 	N 	0.75319 0.64738 0.02300 -0.02300
H 	H 	0.71791 0.54182 0.98120 0.08600
H 	H 	0.93929 0.56127 0.14822 0.08100
N 	N 	0.87109 0.42683 0.11809 -0.01800
O 	O 	0.66262 0.60051 0.01091 -0.07100
O 	O 	0.80233 0.73268 0.01527 -0.08300
O 	O 	0.95090 0.44932 0.12098 -0.07600
O 	O 	0.81498 0.35051 0.14460 -0.07500
C 	C 	0.47313 0.18277 0.06482 -0.05300
C 	C 	0.48291 0.22839 0.01511 -0.01300
C 	C 	0.41401 0.24020 0.97846 0.07700
C 	C 	0.33382 0.20183 0.99138 -0.00200
C 	C 	0.32025 0.14904 0.04000 -0.09400
C 	C 	0.39347 0.14534 0.07774 0.11500
N 	N 	0.38533 0.10022 0.12897 -0.02400
H 	H 	0.52926 0.17942 0.09389 0.09400
H 	H 	0.27816 0.20614 0.96236 0.06300
N 	N 	0.42416 0.28927 0.92780 -0.01900
O 	O 	0.41465 0.05074 0.15605 -0.10100
O 	O 	0.35515 0.11386 0.14964 -0.09300
O 	O 	0.44043 0.26856 0.90301 -0.08300
O 	O 	0.41049 0.35039 0.90528 -0.07400
