data_crystal

_cell_length_a 18.59632
_cell_length_b 18.87486
_cell_length_c 34.38525
_cell_angle_alpha 95.43831
_cell_angle_beta  95.43799
_cell_angle_gamma 126.42419

_symmetry_space_group_name_	'P 1'
_symmetry_space_group_name_H-M	'P 1'

loop_
_symmetry_equiv_pos_as_xyz
  x,y,z

loop_
_atom_site_label
_atom_site_type_symbol
_atom_site_fract_x
_atom_site_fract_y
_atom_site_fract_z
_atom_site_charge
C 	C 	0.93844 0.01433 0.97340 -0.06700
C 	C 	0.89322 0.92278 0.97421 0.10500
C 	C 	0.94187 0.88737 0.97407 -0.02500
C 	C 	0.03425 0.94281 0.97177 0.13100
C 	C 	0.07808 0.03288 0.96935 -0.03700
C 	C 	0.03030 0.06853 0.97022 0.09400
H 	H 	0.82150 0.88000 0.97569 0.09800
H 	H 	0.07185 0.91567 0.97159 0.10400
H 	H 	0.06503 0.13888 0.96917 0.09100
C 	C 	0.92177 0.02301 0.49219 -0.03600
C 	C 	0.01640 0.06986 0.49813 0.06100
C 	C 	0.05345 0.02386 0.50291 0.04500
C 	C 	0.99571 0.93144 0.50262 -0.00900
C 	C 	0.90103 0.88404 0.49499 0.05000
C 	C 	0.86440 0.93031 0.49074 0.06300
H 	H 	0.06078 0.14129 0.49827 0.11400
H 	H 	0.02433 0.89616 0.50716 0.16000
H 	H 	0.79122 0.89401 0.48565 0.10300
Cu	Cu	0.78943 0.35731 0.96029 0.93900
Cu	Cu	0.78421 0.30384 0.04835 0.89500
Cu	Cu	0.64229 0.31172 0.00872 0.91800
Cu	Cu	0.61661 0.34224 0.92640 0.93900
C 	C 	0.71997 0.31049 0.87614 0.34900
O 	O 	0.83983 0.48568 0.95571 -0.29600
C 	C 	0.69947 0.35164 0.09689 0.34100
O 	O 	0.64715 0.28073 0.95496 -0.63600
O 	O 	0.77678 0.37800 0.01589 -0.63100
O 	O 	0.85206 0.30129 0.96870 -0.30200
O 	O 	0.75454 0.21157 0.00725 -0.38800
O 	O 	0.68144 0.34998 0.88212 -0.28000
O 	O 	0.51144 0.23933 0.99826 -0.30900
C 	C 	0.46198 0.24525 0.97054 0.31200
C 	C 	0.79619 0.51800 0.96522 0.29400
O 	O 	0.71174 0.46366 0.97004 -0.32600
O 	O 	0.49683 0.29210 0.94223 -0.31400
O 	O 	0.77854 0.31906 0.90490 -0.28800
C 	C 	0.81217 0.22778 0.98378 0.30600
O 	O 	0.63545 0.32530 0.06585 -0.29100
O 	O 	0.77660 0.36661 0.09226 -0.37800
H 	H 	0.60994 0.21545 0.94466 0.21600
H 	H 	0.81230 0.44163 0.02899 0.20400
Cu	Cu	0.59081 0.18671 0.50412 0.94400
Cu	Cu	0.64168 0.19354 0.41544 0.89800
Cu	Cu	0.61690 0.32259 0.45453 0.91700
Cu	Cu	0.61504 0.36145 0.54020 0.93300
C 	C 	0.64595 0.25638 0.58806 0.35400
O 	O 	0.46467 0.14416 0.51231 -0.30900
C 	C 	0.57953 0.26945 0.36751 0.34300
O 	O 	0.66748 0.32600 0.50711 -0.63000
O 	O 	0.56302 0.19343 0.44860 -0.63800
O 	O 	0.64272 0.12137 0.49377 -0.29800
O 	O 	0.73485 0.21806 0.45561 -0.38500
O 	O 	0.60496 0.29350 0.58296 -0.32400
O 	O 	0.67702 0.45020 0.46035 -0.34000
C 	C 	0.68965 0.50496 0.49186 0.31200
C 	C 	0.43122 0.18630 0.50193 0.29500
O 	O 	0.48635 0.27118 0.49873 -0.32200
O 	O 	0.68397 0.48362 0.52754 -0.28800
O 	O 	0.63755 0.20037 0.55864 -0.29400
C 	C 	0.71686 0.15970 0.47845 0.31000
O 	O 	0.57701 0.31506 0.39832 -0.31300
O 	O 	0.57656 0.19872 0.37073 -0.33600
H 	H 	0.73474 0.36330 0.51311 0.21700
H 	H 	0.49788 0.15267 0.43602 0.25700
C 	C 	0.74781 0.33745 0.69737 -0.12000
C 	C 	0.71396 0.25624 0.71005 0.03300
C 	C 	0.66852 0.17680 0.68172 0.31300
C 	C 	0.65115 0.17771 0.64134 -0.03100
C 	C 	0.67916 0.25799 0.62900 -0.10300
C 	C 	0.73072 0.33844 0.65704 0.39100
C 	C 	0.71463 0.25286 0.75280 0.03300
F 	F 	0.63787 0.09821 0.69349 -0.37000
H 	H 	0.61228 0.11539 0.61992 0.14800
F 	F 	0.76170 0.41718 0.64533 -0.39500
H 	H 	0.78386 0.39923 0.71897 0.16400
C 	C 	0.79750 0.30101 0.77993 0.31600
C 	C 	0.79879 0.31401 0.82083 -0.02800
C 	C 	0.71738 0.27920 0.83483 -0.09300
C 	C 	0.63409 0.22466 0.80786 0.39100
C 	C 	0.63281 0.21174 0.76704 -0.11800
F 	F 	0.87695 0.33857 0.76658 -0.36700
H 	H 	0.86337 0.35504 0.84142 0.15000
F 	F 	0.55457 0.18742 0.82114 -0.40000
H 	H 	0.56846 0.17341 0.74636 0.15800
C 	C 	0.59555 0.36706 0.18390 -0.11900
C 	C 	0.63096 0.34224 0.21274 0.02800
C 	C 	0.69336 0.32669 0.20438 0.31100
C 	C 	0.71775 0.33276 0.16701 -0.04900
C 	C 	0.68023 0.35464 0.13750 -0.11300
C 	C 	0.62053 0.37396 0.14646 0.39800
C 	C 	0.60008 0.32857 0.25110 0.02600
F 	F 	0.72881 0.30368 0.23229 -0.39000
H 	H 	0.76396 0.31798 0.16062 0.11500
F 	F 	0.58780 0.40050 0.11921 -0.35300
H 	H 	0.54830 0.38037 0.19039 0.16800
C 	C 	0.65019 0.39871 0.28430 0.31900
C 	C 	0.63733 0.38031 0.32258 -0.04600
C 	C 	0.57503 0.29169 0.32789 -0.11100
C 	C 	0.51844 0.22311 0.29445 0.39300
C 	C 	0.53100 0.24166 0.25621 -0.12400
F 	F 	0.71548 0.48360 0.27963 -0.36300
H 	H 	0.67988 0.43404 0.34816 0.12700
F 	F 	0.45372 0.13799 0.29906 -0.37900
H 	H 	0.49062 0.18753 0.23064 0.15100
C 	C 	0.78714 0.63715 0.46030 0.08400
C 	C 	0.73143 0.59932 0.48865 0.00500
C 	C 	0.72129 0.65398 0.51512 -0.05600
C 	C 	0.78177 0.74745 0.51846 0.02000
C 	C 	0.83961 0.78546 0.49101 0.09600
C 	C 	0.83574 0.72882 0.45931 -0.12000
C 	C 	0.88475 0.76542 0.42500 0.78800
H 	H 	0.79346 0.59542 0.43928 0.09300
H 	H 	0.78237 0.79068 0.54185 0.12000
C 	C 	0.64599 0.61398 0.53928 0.77600
F 	F 	0.84690 0.69799 0.39194 -0.38700
F 	F 	0.97537 0.80181 0.43603 -0.41400
F 	F 	0.87842 0.83042 0.41395 -0.37500
F 	F 	0.67500 0.60145 0.57469 -0.39500
F 	F 	0.56811 0.53289 0.51846 -0.40900
F 	F 	0.62326 0.67078 0.54793 -0.38300
C 	C 	0.87326 0.10893 0.52263 -0.00200
C 	C 	0.88220 0.07099 0.48813 0.11200
C 	C 	0.84228 0.06828 0.45034 -0.13500
C 	C 	0.78543 0.09431 0.44809 0.08300
C 	C 	0.77398 0.12964 0.48263 -0.01400
C 	C 	0.82191 0.14132 0.52025 -0.05300
C 	C 	0.81434 0.18318 0.55805 0.77300
H 	H 	0.90399 0.11044 0.55141 0.12100
H 	H 	0.74941 0.08670 0.41942 0.07100
C 	C 	0.85587 0.03287 0.41243 0.76400
F 	F 	0.88073 0.20619 0.58972 -0.39800
F 	F 	0.73012 0.12247 0.56756 -0.41900
F 	F 	0.82479 0.26050 0.55304 -0.42900
F 	F 	0.80343 0.94046 0.40680 -0.35400
F 	F 	0.94639 0.06835 0.41478 -0.41200
F 	F 	0.83083 0.05587 0.37954 -0.40400
C 	C 	0.30625 0.14502 0.53804 0.08300
C 	C 	0.33437 0.14420 0.50168 0.00400
C 	C 	0.27072 0.10636 0.46555 -0.05500
C 	C 	0.17944 0.06933 0.46672 0.01800
C 	C 	0.15126 0.06986 0.50307 0.10100
C 	C 	0.21515 0.10891 0.53917 -0.12300
C 	C 	0.18596 0.11082 0.57881 0.79300
H 	H 	0.35577 0.17423 0.56545 0.09400
H 	H 	0.12947 0.03830 0.43937 0.14700
C 	C 	0.29862 0.10014 0.42603 0.77400
F 	F 	0.25908 0.15688 0.61032 -0.39400
F 	F 	0.12467 0.02415 0.58482 -0.41400
F 	F 	0.14516 0.15270 0.57896 -0.40200
F 	F 	0.32429 0.04474 0.42516 -0.42700
F 	F 	0.37073 0.18435 0.42119 -0.42800
F 	F 	0.22818 0.06534 0.39417 -0.37800
C 	C 	0.85231 0.73192 0.93637 0.00600
C 	C 	0.89507 0.79066 0.97322 0.11500
C 	C 	0.90638 0.75972 0.00756 -0.12200
C 	C 	0.88006 0.67197 0.00364 0.08700
C 	C 	0.83845 0.61367 0.96668 -0.00600
C 	C 	0.82530 0.64398 0.93250 -0.05500
C 	C 	0.78105 0.58214 0.89208 0.77500
H 	H 	0.84313 0.75611 0.91043 0.12900
H 	H 	0.89012 0.64813 0.02953 0.08500
C 	C 	0.94901 0.82088 0.04812 0.77100
F 	F 	0.78435 0.62703 0.86188 -0.38800
F 	F 	0.69079 0.51370 0.89210 -0.43900
F 	F 	0.82559 0.54595 0.88381 -0.41500
F 	F 	0.91105 0.86463 0.05418 -0.36800
F 	F 	0.04167 0.88359 0.05040 -0.37100
F 	F 	0.93510 0.77323 0.07847 -0.39000
C 	C 	0.85308 0.06329 0.94184 -0.00600
C 	C 	0.89093 0.05494 0.97678 0.11300
C 	C 	0.89968 0.10100 0.01400 -0.13100
C 	C 	0.87886 0.16150 0.01514 0.08500
C 	C 	0.84292 0.17153 0.98022 -0.02000
C 	C 	0.82687 0.11979 0.94321 -0.05300
C 	C 	0.78624 0.12793 0.90500 0.77100
H 	H 	0.84757 0.02847 0.91346 0.11800
H 	H 	0.88979 0.20059 0.04334 0.06600
C 	C 	0.93334 0.08732 0.05246 0.74000
F 	F 	0.76427 0.06323 0.87330 -0.40200
F 	F 	0.84846 0.21133 0.89596 -0.41300
F 	F 	0.70742 0.11756 0.90930 -0.43100
F 	F 	0.02419 0.12380 0.05534 -0.37900
F 	F 	0.88333 0.99677 0.05313 -0.34500
F 	F 	0.92437 0.12752 0.08550 -0.40700
C 	C 	0.23730 0.14866 0.00379 0.00600
C 	C 	0.17593 0.09164 0.96855 0.11700
C 	C 	0.20843 0.09029 0.93313 -0.13100
C 	C 	0.30256 0.13970 0.93479 0.08500
C 	C 	0.36413 0.19594 0.97018 -0.00700
C 	C 	0.33136 0.20473 0.00451 -0.04700
C 	C 	0.39590 0.27068 0.04240 0.77700
H 	H 	0.21143 0.14905 0.03071 0.13900
H 	H 	0.32830 0.13389 0.90864 0.09700
C 	C 	0.14302 0.03359 0.89396 0.76400
F 	F 	0.35126 0.28818 0.06696 -0.38200
F 	F 	0.46622 0.35159 0.03384 -0.39600
F 	F 	0.43131 0.23493 0.06281 -0.40200
F 	F 	0.07770 0.04711 0.88786 -0.40400
F 	F 	0.10079 0.94396 0.89456 -0.37100
F 	F 	0.18776 0.05534 0.86205 -0.38800
