data_crystal

_cell_length_a 26.07426
_cell_length_b 26.49760
_cell_length_c 28.39695
_cell_angle_alpha 95.50331
_cell_angle_beta  95.49689
_cell_angle_gamma 125.83468

_symmetry_space_group_name_	'P 1'
_symmetry_space_group_name_H-M	'P 1'

loop_
_symmetry_equiv_pos_as_xyz
  x,y,z

loop_
_atom_site_label
_atom_site_type_symbol
_atom_site_fract_x
_atom_site_fract_y
_atom_site_fract_z
_atom_site_charge
C 	C 	0.99117 0.05451 0.99787 0.12800
N 	N 	0.95622 0.99044 0.98739 -0.12500
C 	C 	0.98449 0.96299 0.97405 0.13100
N 	N 	0.04813 1.00000 0.97209 -0.12100
C 	C 	0.08424 0.06376 0.98639 0.12700
N 	N 	0.05556 0.09121 0.99844 -0.12500
C 	C 	0.91884 0.97481 0.44554 0.15300
N 	N 	0.88390 0.91096 0.44188 -0.13300
C 	C 	0.91442 0.88387 0.44824 0.13800
N 	N 	0.97972 0.92060 0.45789 -0.13800
C 	C 	0.01464 0.98428 0.46122 0.16700
N 	N 	0.98419 0.01142 0.45522 -0.14900
Cu	Cu	0.68218 0.29462 0.01867 0.92600
Cu	Cu	0.70427 0.25458 0.91399 0.88200
Cu	Cu	0.69491 0.37185 0.94127 0.91500
Cu	Cu	0.66945 0.40720 0.03631 0.90300
C 	C 	0.68904 0.34788 0.11372 0.30200
O 	O 	0.58797 0.24629 0.02388 -0.35300
C 	C 	0.70200 0.32980 0.84898 0.30600
O 	O 	0.72046 0.38772 0.00938 -0.64000
O 	O 	0.66054 0.28285 0.94738 -0.62700
O 	O 	0.73990 0.26781 0.02508 -0.36200
O 	O 	0.69321 0.19732 0.95404 -0.40800
O 	O 	0.69062 0.39607 0.10243 -0.35800
O 	O 	0.73463 0.45957 0.93876 -0.36200
C 	C 	0.72525 0.49482 0.96708 0.28800
C 	C 	0.55490 0.26700 0.01037 0.28400
O 	O 	0.58301 0.32016 0.99422 -0.37200
O 	O 	0.68188 0.46941 0.99502 -0.36800
O 	O 	0.70971 0.32203 0.08703 -0.34800
C 	C 	0.72957 0.21906 0.99693 0.30400
O 	O 	0.67644 0.35277 0.87175 -0.36500
O 	O 	0.73829 0.31831 0.87358 -0.41500
H 	H 	0.76739 0.42010 0.02092 0.17600
H 	H 	0.61352 0.25326 0.93509 0.17100
Cu	Cu	0.70790 0.30774 0.43255 0.93000
Cu	Cu	0.73751 0.27478 0.53573 0.88000
Cu	Cu	0.62518 0.27693 0.51051 0.90100
Cu	Cu	0.57881 0.29571 0.41534 0.90400
C 	C 	0.64866 0.29529 0.33784 0.30400
O 	O 	0.74261 0.39842 0.42974 -0.35400
C 	C 	0.69398 0.30967 0.61127 0.30500
O 	O 	0.61123 0.25499 0.44184 -0.63600
O 	O 	0.71758 0.32396 0.50362 -0.63800
O 	O 	0.75538 0.27027 0.42648 -0.35200
O 	O 	0.70935 0.20964 0.48270 -0.42500
O 	O 	0.59494 0.28322 0.34924 -0.36300
O 	O 	0.53395 0.22617 0.51203 -0.36400
C 	C 	0.49170 0.22722 0.48342 0.29300
C 	C 	0.71365 0.42242 0.44447 0.28900
O 	O 	0.65869 0.38656 0.45884 -0.37400
O 	O 	0.51018 0.26878 0.45455 -0.37300
O 	O 	0.68258 0.28204 0.36398 -0.34900
C 	C 	0.74092 0.22218 0.44702 0.29200
O 	O 	0.63918 0.28492 0.58144 -0.37200
O 	O 	0.74445 0.31935 0.59566 -0.40300
H 	H 	0.58442 0.20874 0.42949 0.17900
H 	H 	0.74421 0.36933 0.51888 0.18500
C 	C 	0.70017 0.32821 0.79810 -0.08900
C 	C 	0.69865 0.32601 0.75532 0.04700
C 	C 	0.69691 0.32212 0.70514 0.04500
C 	C 	0.69551 0.31738 0.66228 -0.08300
C 	C 	0.68245 0.33604 0.16190 -0.06900
C 	C 	0.67615 0.32622 0.20231 0.05000
C 	C 	0.66780 0.31498 0.24962 0.05100
C 	C 	0.65969 0.30572 0.28994 -0.07100
C 	C 	0.85457 0.71492 0.40568 -0.02300
C 	C 	0.82015 0.68489 0.44183 0.01500
C 	C 	0.81163 0.71886 0.47757 -0.02300
C 	C 	0.84055 0.78372 0.47873 -0.00200
C 	C 	0.87684 0.81431 0.44348 -0.01500
C 	C 	0.88182 0.77924 0.40598 -0.00200
C 	C 	0.79297 0.61728 0.44238 0.02700
C 	C 	0.77350 0.68709 0.51329 0.10300
C 	C 	0.91459 0.80932 0.36755 0.10200
C 	C 	0.82817 0.60250 0.47093 -0.03700
C 	C 	0.80218 0.53865 0.47182 0.02600
C 	C 	0.74170 0.48947 0.44313 -0.07700
C 	C 	0.70737 0.50435 0.41354 0.02600
C 	C 	0.73235 0.56814 0.41398 -0.03700
C 	C 	0.89108 0.65305 0.49936 0.10600
C 	C 	0.64717 0.45402 0.38171 0.07500
C 	C 	0.83704 0.52360 0.50294 0.08500
C 	C 	0.69571 0.58334 0.38528 0.10700
C 	C 	0.86241 0.67973 0.36847 0.10300
C 	C 	0.83431 0.81931 0.51682 0.10300
N 	N 	0.86484 0.51158 0.52776 -0.10700
N 	N 	0.94127 0.69346 0.52203 -0.10100
N 	N 	0.59917 0.41388 0.35630 -0.11200
N 	N 	0.66654 0.59555 0.36239 -0.10000
N 	N 	0.74306 0.66168 0.54177 -0.09900
N 	N 	0.82932 0.84769 0.54722 -0.09200
N 	N 	0.94077 0.83340 0.33692 -0.09400
N 	N 	0.86862 0.65158 0.33881 -0.10000
C 	C 	0.74337 0.08177 0.41452 -0.03400
C 	C 	0.81000 0.11112 0.42589 0.02400
C 	C 	0.85421 0.17783 0.43642 -0.03800
C 	C 	0.83169 0.21492 0.44032 0.02100
C 	C 	0.76481 0.18524 0.43284 -0.08000
C 	C 	0.72084 0.11890 0.41742 0.02400
C 	C 	0.83349 0.07176 0.43007 0.01400
C 	C 	0.92283 0.20814 0.44416 0.10400
C 	C 	0.65249 0.08897 0.40449 0.08800
C 	C 	0.84771 0.05047 0.38940 -0.02200
C 	C 	0.87345 0.01650 0.39411 -0.01000
C 	C 	0.88590 0.00464 0.43962 -0.02500
C 	C 	0.86996 0.02433 0.47999 0.00000
C 	C 	0.84330 0.05741 0.47514 -0.02600
C 	C 	0.83634 0.06402 0.34288 0.10000
C 	C 	0.88201 0.01144 0.52665 0.09600
C 	C 	0.88720 0.99378 0.35222 0.11400
C 	C 	0.82638 0.07719 0.51654 0.09900
C 	C 	0.69809 0.01337 0.40070 0.09400
C 	C 	0.87725 0.28337 0.45369 0.07900
N 	N 	0.89814 0.97559 0.31880 -0.09300
N 	N 	0.82723 0.07487 0.30578 -0.09900
N 	N 	0.89171 0.00121 0.56389 -0.09700
N 	N 	0.81285 0.09301 0.54953 -0.10900
N 	N 	0.97757 0.23224 0.45033 -0.10300
N 	N 	0.91362 0.33799 0.46436 -0.10300
N 	N 	0.59796 0.06513 0.39418 -0.10200
N 	N 	0.66200 0.95877 0.38968 -0.09000
C 	C 	0.33419 0.18943 0.50958 -0.03600
C 	C 	0.29155 0.12389 0.49054 0.02300
C 	C 	0.31605 0.09091 0.47538 -0.03200
C 	C 	0.38250 0.12438 0.47538 0.02000
C 	C 	0.42449 0.19071 0.49108 -0.07100
C 	C 	0.40076 0.22269 0.51045 0.02600
C 	C 	0.22052 0.09026 0.48377 0.01800
C 	C 	0.27268 0.02275 0.45912 0.09400
C 	C 	0.44493 0.28962 0.53159 0.09400
C 	C 	0.18628 0.08446 0.43947 -0.02700
C 	C 	0.11886 0.05062 0.43231 0.00500
C 	C 	0.08571 0.02365 0.46982 -0.03200
C 	C 	0.12027 0.03145 0.51473 0.00800
C 	C 	0.18753 0.06407 0.52150 -0.02800
C 	C 	0.22053 0.11310 0.40121 0.10400
C 	C 	0.08662 0.00636 0.55403 0.08700
C 	C 	0.08338 0.04221 0.38599 0.09900
C 	C 	0.22284 0.07045 0.56714 0.10400
C 	C 	0.30934 0.22271 0.52751 0.10600
C 	C 	0.40745 0.09089 0.45816 0.08200
N 	N 	0.05506 0.03548 0.34904 -0.09200
N 	N 	0.24794 0.13599 0.37074 -0.10100
N 	N 	0.05970 0.98632 0.58535 -0.08200
N 	N 	0.25108 0.07558 0.60355 -0.10100
N 	N 	0.23800 0.96835 0.44616 -0.08900
N 	N 	0.42739 0.06420 0.44442 -0.10500
N 	N 	0.48019 0.34302 0.54846 -0.09700
N 	N 	0.28943 0.24920 0.54182 -0.10000
C 	C 	0.93406 0.79568 0.97268 -0.02300
C 	C 	0.86800 0.75943 0.95263 0.01700
C 	C 	0.84233 0.78936 0.93409 -0.02300
C 	C 	0.88264 0.85543 0.93636 -0.00200
C 	C 	0.94632 0.89272 0.96311 -0.01100
C 	C 	0.97208 0.86229 0.98116 -0.00400
C 	C 	0.82472 0.69076 0.95506 0.02100
C 	C 	0.77427 0.75241 0.91370 0.10500
C 	C 	0.03617 0.89902 0.01043 0.10800
C 	C 	0.81074 0.67234 0.99982 -0.02100
C 	C 	0.78112 0.60886 0.00421 0.00800
C 	C 	0.75700 0.56193 0.96253 -0.06200
C 	C 	0.76422 0.57967 0.91677 0.02100
C 	C 	0.80172 0.64431 0.91349 -0.03300
C 	C 	0.82769 0.71903 0.04149 0.09700
C 	C 	0.73078 0.53167 0.87314 0.10000
C 	C 	0.77857 0.59251 0.05169 0.08300
C 	C 	0.81763 0.66311 0.86762 0.10500
C 	C 	0.96250 0.76425 0.98547 0.10300
C 	C 	0.85953 0.88459 0.90967 0.10500
N 	N 	0.77660 0.57952 0.08958 -0.10900
N 	N 	0.84127 0.75635 0.07469 -0.09800
N 	N 	0.70411 0.49342 0.83831 -0.09400
N 	N 	0.83035 0.67817 0.83103 -0.10000
N 	N 	0.71995 0.72288 0.89743 -0.09800
N 	N 	0.84104 0.90780 0.88836 -0.09400
N 	N 	0.08727 0.92800 0.03376 -0.09600
N 	N 	0.98510 0.73910 0.99567 -0.10100
C 	C 	0.89383 0.11452 0.96625 -0.02100
C 	C 	0.88473 0.13000 0.01210 0.01000
C 	C 	0.91328 0.12353 0.05360 -0.02500
C 	C 	0.94987 0.10047 0.04911 0.00100
C 	C 	0.95799 0.08401 0.00317 -0.02400
C 	C 	0.93099 0.09220 0.96185 0.00300
C 	C 	0.84617 0.15460 0.01663 0.02500
C 	C 	0.90481 0.14045 0.10078 0.10300
C 	C 	0.94174 0.07783 0.91483 0.09900
C 	C 	0.77911 0.11214 0.01451 -0.03600
C 	C 	0.74121 0.13409 0.01109 0.02600
C 	C 	0.77021 0.19829 0.00894 -0.08700
C 	C 	0.83792 0.24149 0.01420 0.02300
C 	C 	0.87585 0.21972 0.01890 -0.03700
C 	C 	0.74913 0.04577 0.01507 0.09400
C 	C 	0.86828 0.30776 0.01270 0.07500
C 	C 	0.67246 0.09076 0.00988 0.08800
C 	C 	0.94539 0.26407 0.02508 0.09600
C 	C 	0.86467 0.12139 0.92363 0.10000
C 	C 	0.97910 0.09358 0.09167 0.09000
N 	N 	0.61760 0.05620 0.00890 -0.09800
N 	N 	0.72528 0.99281 0.01551 -0.09100
N 	N 	0.89252 0.36062 0.01150 -0.11000
N 	N 	0.00087 0.29939 0.03000 -0.09500
N 	N 	0.89800 0.15398 0.13841 -0.09900
N 	N 	0.00246 0.08807 0.12560 -0.08700
N 	N 	0.95039 0.06638 0.87736 -0.09600
N 	N 	0.84137 0.12690 0.88967 -0.10700
C 	C 	0.40336 0.23891 0.04081 -0.03800
C 	C 	0.35565 0.17875 0.01212 0.02400
C 	C 	0.37363 0.14380 0.98802 -0.03400
C 	C 	0.43937 0.17132 0.98926 0.03000
C 	C 	0.48706 0.23286 0.01608 -0.08300
C 	C 	0.46888 0.26484 0.04419 0.02600
C 	C 	0.28637 0.15259 0.00672 0.00700
C 	C 	0.32445 0.07992 0.96162 0.10600
C 	C 	0.51765 0.32414 0.07693 0.06900
C 	C 	0.25587 0.15798 0.96574 -0.01500
C 	C 	0.18992 0.13159 0.96003 -0.00700
C 	C 	0.15502 0.10145 0.99589 -0.00400
C 	C 	0.18692 0.10104 0.03867 -0.01000
C 	C 	0.25179 0.12416 0.04325 -0.01900
C 	C 	0.29235 0.19044 0.92950 0.10100
C 	C 	0.15307 0.07755 0.07816 0.10500
C 	C 	0.15787 0.13512 0.91723 0.10300
C 	C 	0.28279 0.11800 0.08515 0.10200
C 	C 	0.38497 0.27455 0.06613 0.10500
C 	C 	0.45786 0.13707 0.96202 0.08600
N 	N 	0.13222 0.13790 0.88309 -0.09500
N 	N 	0.32154 0.21635 0.90062 -0.10000
N 	N 	0.12598 0.05881 0.10963 -0.09500
N 	N 	0.30758 0.11312 0.11857 -0.10000
N 	N 	0.28514 0.02894 0.94057 -0.10200
N 	N 	0.47264 0.10976 0.94029 -0.10500
N 	N 	0.55647 0.37145 0.10309 -0.11200
N 	N 	0.37023 0.30292 0.08630 -0.10100
