data_crystal

_cell_length_a 26.05357
_cell_length_b 26.50680
_cell_length_c 26.50190
_cell_angle_alpha 95.46464
_cell_angle_beta  95.46391
_cell_angle_gamma 125.86966

_symmetry_space_group_name_	'P 1'
_symmetry_space_group_name_H-M	'P 1'

loop_
_symmetry_equiv_pos_as_xyz
  x,y,z

loop_
_atom_site_label
_atom_site_type_symbol
_atom_site_fract_x
_atom_site_fract_y
_atom_site_fract_z
_atom_site_charge
C 	C 	0.96105 0.01885 0.99041 0.23200
N 	N 	0.92791 0.95647 0.99308 -0.07700
C 	C 	0.95682 0.92755 0.98925 0.26900
N 	N 	0.01928 0.96135 0.98351 -0.07300
C 	C 	0.05241 0.02345 0.98016 0.25900
N 	N 	0.02327 0.05224 0.98356 -0.08200
C 	C 	0.94092 0.00573 0.44889 0.24300
N 	N 	0.90900 0.94454 0.45543 -0.07800
C 	C 	0.94158 0.91938 0.46201 0.27200
N 	N 	0.00595 0.95562 0.46239 -0.07500
C 	C 	0.03786 0.01666 0.45608 0.26900
N 	N 	0.00530 0.04160 0.44912 -0.08800
Cu	Cu	0.63852 0.23798 0.00337 0.93800
Cu	Cu	0.69410 0.24846 0.89613 0.90500
Cu	Cu	0.66606 0.33547 0.93613 0.91100
Cu	Cu	0.63598 0.35279 0.03900 0.92000
C 	C 	0.65524 0.28322 0.11097 0.29000
O 	O 	0.54408 0.19897 0.00231 -0.31300
C 	C 	0.65737 0.30104 0.82485 0.28500
O 	O 	0.68792 0.33623 0.00777 -0.63800
O 	O 	0.62898 0.24404 0.92968 -0.63300
O 	O 	0.68052 0.19490 0.99993 -0.31800
O 	O 	0.75226 0.26557 0.95545 -0.38800
O 	O 	0.62402 0.30629 0.09702 -0.33300
O 	O 	0.70867 0.42571 0.94498 -0.34800
C 	C 	0.71062 0.46147 0.98457 0.41400
C 	C 	0.51785 0.22475 0.98327 0.38500
O 	O 	0.55481 0.28425 0.97794 -0.34900
O 	O 	0.67361 0.43690 0.01929 -0.33300
O 	O 	0.66105 0.24818 0.07666 -0.31000
C 	C 	0.73511 0.22150 0.98312 0.39400
O 	O 	0.65059 0.33318 0.86152 -0.32300
O 	O 	0.65585 0.25185 0.83264 -0.36600
H 	H 	0.73458 0.36524 0.02269 0.19800
H 	H 	0.58471 0.21496 0.90909 0.21300
Cu	Cu	0.74288 0.34633 0.43645 0.93900
Cu	Cu	0.74059 0.29721 0.54581 0.89700
Cu	Cu	0.64218 0.31281 0.50411 0.91200
Cu	Cu	0.62082 0.34154 0.40140 0.91700
C 	C 	0.68964 0.32078 0.32918 0.28900
O 	O 	0.77901 0.43830 0.43613 -0.30800
C 	C 	0.68079 0.32602 0.61578 0.28700
O 	O 	0.64233 0.29366 0.43261 -0.63800
O 	O 	0.73681 0.35587 0.51017 -0.63100
O 	O 	0.79055 0.30871 0.44030 -0.31700
O 	O 	0.72419 0.23830 0.48806 -0.39000
O 	O 	0.66493 0.35070 0.34168 -0.33300
O 	O 	0.54939 0.26467 0.49474 -0.34400
C 	C 	0.51238 0.26607 0.45806 0.40800
C 	C 	0.75058 0.46223 0.45403 0.38300
O 	O 	0.69065 0.42419 0.46047 -0.34200
O 	O 	0.53667 0.30446 0.42450 -0.33000
O 	O 	0.73230 0.32371 0.36313 -0.31600
C 	C 	0.76622 0.25551 0.45748 0.39700
O 	O 	0.64364 0.32687 0.57868 -0.33000
O 	O 	0.73427 0.33420 0.60816 -0.37000
H 	H 	0.61472 0.24786 0.41751 0.20100
H 	H 	0.76383 0.39991 0.52978 0.21300
C 	C 	0.65588 0.31367 0.77201 -0.04200
C 	C 	0.60699 0.26498 0.73201 0.00100
C 	C 	0.61231 0.27039 0.68039 0.04100
C 	C 	0.66723 0.32508 0.66851 -0.04500
C 	C 	0.71339 0.37590 0.70843 0.00000
C 	C 	0.70787 0.37061 0.76006 0.04400
S 	S 	0.55151 0.20709 0.63113 0.05000
S 	S 	0.76776 0.43452 0.80933 0.04500
H 	H 	0.74930 0.47201 0.82316 0.10400
H 	H 	0.50693 0.21702 0.61545 0.09200
H 	H 	0.56609 0.22177 0.74107 0.08600
H 	H 	0.75481 0.41870 0.69938 0.08700
C 	C 	0.68312 0.29936 0.27406 -0.04300
C 	C 	0.73701 0.33197 0.25018 0.00500
C 	C 	0.72909 0.32311 0.19621 0.04400
C 	C 	0.66674 0.28123 0.16588 -0.03500
C 	C 	0.61378 0.24413 0.18975 -0.00100
C 	C 	0.62166 0.25290 0.24360 0.04700
S 	S 	0.79719 0.36625 0.16716 0.05700
S 	S 	0.55417 0.20591 0.27250 0.03600
H 	H 	0.54872 0.15291 0.28103 0.08300
H 	H 	0.81917 0.33111 0.15677 0.09200
H 	H 	0.78465 0.36658 0.27350 0.09500
H 	H 	0.56598 0.21037 0.16641 0.10100
C 	C 	0.90769 0.77364 0.50737 0.25700
C 	C 	0.85485 0.72521 0.46952 -0.00200
C 	C 	0.82637 0.74051 0.43235 0.25700
C 	C 	0.85260 0.80399 0.43144 0.30600
C 	C 	0.90729 0.85267 0.46797 -0.12900
C 	C 	0.93351 0.83703 0.50684 0.30400
C 	C 	0.83124 0.65878 0.46733 0.00800
F 	F 	0.77425 0.69390 0.39635 -0.31500
F 	F 	0.98482 0.88344 0.54356 -0.31600
C 	C 	0.79631 0.62455 0.50411 0.24100
C 	C 	0.77276 0.56122 0.50131 0.31900
C 	C 	0.78314 0.53122 0.46121 -0.19900
C 	C 	0.81959 0.56613 0.42518 0.32000
C 	C 	0.84377 0.62967 0.42843 0.23800
F 	F 	0.78457 0.65249 0.54221 -0.31000
F 	F 	0.82951 0.53785 0.38586 -0.35600
F 	F 	0.73959 0.52888 0.53744 -0.36100
F 	F 	0.87870 0.66280 0.39336 -0.31800
F 	F 	0.93501 0.75931 0.54390 -0.31300
F 	F 	0.82663 0.81827 0.39373 -0.32300
C 	C 	0.87717 0.20818 0.45094 0.23500
C 	C 	0.83252 0.14187 0.43776 0.00800
C 	C 	0.76631 0.11356 0.42640 0.23600
C 	C 	0.74473 0.15105 0.43033 0.32000
C 	C 	0.78924 0.21724 0.44553 -0.20900
C 	C 	0.85564 0.24574 0.45465 0.31800
C 	C 	0.85503 0.10201 0.43817 -0.00400
F 	F 	0.72284 0.04963 0.41239 -0.32000
F 	F 	0.89921 0.30959 0.46943 -0.36000
C 	C 	0.84898 0.07048 0.47948 0.25300
C 	C 	0.87437 0.03639 0.48178 0.29800
C 	C 	0.90636 0.03386 0.44293 -0.12900
C 	C 	0.91048 0.06367 0.40075 0.30000
C 	C 	0.88482 0.09750 0.39835 0.25700
F 	F 	0.82002 0.07433 0.51808 -0.32700
F 	F 	0.93999 0.06037 0.36237 -0.32400
F 	F 	0.87023 0.00799 0.52282 -0.33900
F 	F 	0.88970 0.12667 0.35772 -0.31400
F 	F 	0.94133 0.23605 0.46165 -0.32100
F 	F 	0.68051 0.12304 0.41996 -0.36400
C 	C 	0.34885 0.22806 0.46204 0.23800
C 	C 	0.31055 0.16213 0.45906 0.00900
C 	C 	0.33887 0.13054 0.45642 0.23500
C 	C 	0.40501 0.16465 0.45671 0.31800
C 	C 	0.44317 0.23047 0.45900 -0.20700
C 	C 	0.41485 0.26209 0.46183 0.32600
C 	C 	0.24078 0.12616 0.45874 -0.00300
F 	F 	0.30213 0.06673 0.45317 -0.32100
F 	F 	0.45155 0.32592 0.46522 -0.34400
C 	C 	0.19905 0.11622 0.41478 0.25600
C 	C 	0.13281 0.08150 0.41427 0.30500
C 	C 	0.10775 0.05591 0.45753 -0.13400
C 	C 	0.14954 0.06620 0.50160 0.30300
C 	C 	0.21583 0.10145 0.50229 0.25600
F 	F 	0.22269 0.13962 0.37237 -0.31200
F 	F 	0.12587 0.04238 0.54387 -0.32100
F 	F 	0.09277 0.07144 0.37135 -0.31600
F 	F 	0.25591 0.11169 0.54526 -0.32000
F 	F 	0.32209 0.25913 0.46543 -0.30900
F 	F 	0.43184 0.13361 0.45377 -0.37100
C 	C 	0.76353 0.61592 0.94554 0.23500
C 	C 	0.81344 0.65991 0.98717 0.01200
C 	C 	0.82959 0.63845 0.02782 0.23500
C 	C 	0.79582 0.57348 0.02699 0.32200
C 	C 	0.74642 0.52955 0.98512 -0.20900
C 	C 	0.73050 0.55098 0.94432 0.32500
C 	C 	0.84978 0.72837 0.98756 -0.00300
F 	F 	0.87839 0.68063 0.06786 -0.31600
F 	F 	0.68226 0.50878 0.90394 -0.35700
C 	C 	0.84286 0.76599 0.02296 0.25700
C 	C 	0.87800 0.83110 0.02373 0.30500
C 	C 	0.91956 0.85894 0.98847 -0.12800
C 	C 	0.92563 0.82093 0.95254 0.30200
C 	C 	0.89146 0.75614 0.95252 0.25600
F 	F 	0.80215 0.73938 0.05665 -0.30800
F 	F 	0.96381 0.84666 0.91705 -0.31700
F 	F 	0.87257 0.86733 0.05933 -0.32100
F 	F 	0.89875 0.72016 0.91839 -0.32100
F 	F 	0.74702 0.63623 0.90640 -0.31300
F 	F 	0.81167 0.55312 0.06649 -0.37000
C 	C 	0.92937 0.13889 0.02500 0.26400
C 	C 	0.86681 0.10757 0.99672 -0.01100
C 	C 	0.83482 0.04667 0.96727 0.26500
C 	C 	0.86573 0.01794 0.96489 0.26900
C 	C 	0.92865 0.04942 0.99278 -0.11000
C 	C 	0.96009 0.10983 0.02329 0.27400
C 	C 	0.83657 0.14026 0.99475 0.01300
F 	F 	0.77411 0.01586 0.94011 -0.32800
F 	F 	0.02006 0.14003 0.05167 -0.29600
C 	C 	0.83158 0.16257 0.95001 0.23200
C 	C 	0.79860 0.18913 0.94624 0.31900
C 	C 	0.77126 0.19482 0.98772 -0.21000
C 	C 	0.77776 0.17395 0.03310 0.32300
C 	C 	0.81000 0.14644 0.03646 0.23300
F 	F 	0.85778 0.15739 0.90974 -0.32600
F 	F 	0.75331 0.18079 0.07402 -0.36400
F 	F 	0.79148 0.20755 0.90164 -0.39700
F 	F 	0.81483 0.12516 0.07997 -0.31700
F 	F 	0.96066 0.19783 0.05358 -0.32100
F 	F 	0.83520 0.96017 0.93442 -0.30300
C 	C 	0.35073 0.17341 0.93190 0.23900
C 	C 	0.31693 0.13970 0.96929 0.01000
C 	C 	0.34786 0.12949 0.00883 0.23300
C 	C 	0.41291 0.15501 0.01225 0.31900
C 	C 	0.44748 0.19048 0.97571 -0.20300
C 	C 	0.41564 0.19837 0.93488 0.31900
C 	C 	0.24917 0.11518 0.96727 -0.00600
F 	F 	0.31504 0.09567 0.04448 -0.32500
F 	F 	0.44781 0.23070 0.89837 -0.36300
C 	C 	0.20006 0.06058 0.93150 0.26400
C 	C 	0.13544 0.03279 0.93365 0.27600
C 	C 	0.11942 0.05895 0.97206 -0.12100
C 	C 	0.16855 0.11557 0.00604 0.29800
C 	C 	0.23321 0.14368 0.00353 0.25800
F 	F 	0.21505 0.03335 0.89570 -0.31900
F 	F 	0.15374 0.14169 0.04301 -0.31500
F 	F 	0.08829 0.97964 0.89911 -0.28400
F 	F 	0.28047 0.19750 0.03739 -0.31800
F 	F 	0.32088 0.18269 0.89309 -0.31300
F 	F 	0.44303 0.14756 0.05230 -0.36400
