data_crystal

_cell_length_a 26.04357
_cell_length_b 26.50751
_cell_length_c 33.42550
_cell_angle_alpha 95.49926
_cell_angle_beta  95.49657
_cell_angle_gamma 125.84754

_symmetry_space_group_name_	'P 1'
_symmetry_space_group_name_H-M	'P 1'

loop_
_symmetry_equiv_pos_as_xyz
  x,y,z

loop_
_atom_site_label
_atom_site_type_symbol
_atom_site_fract_x
_atom_site_fract_y
_atom_site_fract_z
_atom_site_charge
C 	C 	0.99865 0.04522 0.99946 0.13200
N 	N 	0.06410 0.08353 0.00446 -0.13900
C 	C 	0.09667 0.05806 0.00513 0.14300
N 	N 	0.06377 0.99433 0.00009 -0.11700
C 	C 	0.99844 0.95587 0.99432 0.14200
N 	N 	0.96600 0.98141 0.99474 -0.12800
C 	C 	0.90199 0.97785 0.46423 0.16400
N 	N 	0.96501 0.00992 0.46101 -0.15300
C 	C 	0.99336 0.98034 0.46137 0.15300
N 	N 	0.95839 0.91827 0.46414 -0.13700
C 	C 	0.89525 0.88565 0.46690 0.14700
N 	N 	0.86690 0.91547 0.46704 -0.13500
Cu	Cu	0.67627 0.26719 0.00353 0.92800
Cu	Cu	0.70125 0.24720 0.91093 0.87400
Cu	Cu	0.70691 0.35875 0.94412 0.89900
Cu	Cu	0.69692 0.39706 0.03080 0.89900
C 	C 	0.69550 0.31657 0.08755 0.25400
O 	O 	0.58622 0.23555 0.01038 -0.35700
C 	C 	0.66184 0.29898 0.85611 0.25600
O 	O 	0.73266 0.36465 0.00111 -0.63600
O 	O 	0.65615 0.26587 0.94460 -0.63800
O 	O 	0.71146 0.21758 0.99965 -0.35400
O 	O 	0.77009 0.27008 0.95242 -0.43800
O 	O 	0.71273 0.37320 0.08287 -0.36500
O 	O 	0.76146 0.44972 0.94754 -0.37700
C 	C 	0.76631 0.48992 0.97707 0.31600
C 	C 	0.56383 0.26780 0.00326 0.30300
O 	O 	0.60154 0.32442 0.99446 -0.38500
O 	O 	0.72553 0.46997 0.00264 -0.38300
O 	O 	0.70540 0.28382 0.06140 -0.33700
C 	C 	0.75935 0.23491 0.98023 0.30600
O 	O 	0.69505 0.35178 0.88399 -0.36200
O 	O 	0.65270 0.24689 0.86428 -0.40500
H 	H 	0.77983 0.38847 0.00987 0.17000
H 	H 	0.60965 0.24228 0.93326 0.17700
Cu	Cu	0.69708 0.31298 0.44181 0.92700
Cu	Cu	0.72770 0.29617 0.53907 0.87800
Cu	Cu	0.59401 0.26340 0.49488 0.90100
Cu	Cu	0.57344 0.30762 0.41802 0.90000
C 	C 	0.64521 0.29628 0.35653 0.25600
O 	O 	0.73490 0.40577 0.44328 -0.34500
C 	C 	0.63610 0.29132 0.58318 0.25500
O 	O 	0.59733 0.25951 0.43817 -0.64500
O 	O 	0.69047 0.32154 0.50080 -0.63700
O 	O 	0.73545 0.26550 0.43991 -0.34800
O 	O 	0.78502 0.29951 0.50696 -0.42000
O 	O 	0.61340 0.31820 0.36828 -0.35900
O 	O 	0.50101 0.20971 0.48451 -0.37600
C 	C 	0.46628 0.22050 0.46059 0.31400
C 	C 	0.70515 0.42888 0.45635 0.29900
O 	O 	0.64659 0.39046 0.46364 -0.38700
O 	O 	0.49389 0.27048 0.44257 -0.39000
O 	O 	0.68517 0.29450 0.38313 -0.34200
C 	C 	0.76346 0.25981 0.47229 0.30200
O 	O 	0.59125 0.24961 0.55150 -0.37400
O 	O 	0.69764 0.32018 0.58210 -0.40000
H 	H 	0.57199 0.21558 0.42259 0.16900
H 	H 	0.70666 0.36505 0.51272 0.16900
C 	C 	0.66347 0.33076 0.75643 0.11700
C 	C 	0.67455 0.36649 0.72568 -0.08900
C 	C 	0.63491 0.33473 0.68684 0.01400
C 	C 	0.58757 0.26984 0.67851 0.11500
C 	C 	0.57600 0.23459 0.70979 -0.08600
C 	C 	0.61692 0.26638 0.74806 0.00800
O 	O 	0.68417 0.35720 0.79790 -0.18600
C 	C 	0.64510 0.30181 0.81355 0.04100
C 	C 	0.60319 0.24789 0.78386 -0.05800
O 	O 	0.57269 0.24251 0.63752 -0.18900
C 	C 	0.61712 0.29653 0.62241 0.04200
C 	C 	0.65403 0.35163 0.65146 -0.06100
H 	H 	0.71244 0.41708 0.73175 0.07000
H 	H 	0.53902 0.18380 0.70376 0.06700
H 	H 	0.57572 0.19942 0.78867 0.05500
H 	H 	0.70097 0.39337 0.64914 0.05600
C 	C 	0.71035 0.32097 0.19221 0.11800
C 	C 	0.73320 0.32064 0.23194 -0.08300
C 	C 	0.69898 0.31880 0.26253 0.01100
C 	C 	0.64010 0.30736 0.25328 0.12100
C 	C 	0.61397 0.30069 0.21277 -0.08800
C 	C 	0.65313 0.31290 0.18352 0.01400
O 	O 	0.73217 0.31210 0.15780 -0.18200
C 	C 	0.68243 0.29880 0.12752 0.05200
C 	C 	0.63338 0.29563 0.14297 -0.06000
O 	O 	0.60365 0.28649 0.28375 -0.19100
C 	C 	0.64720 0.28771 0.31273 0.04900
C 	C 	0.70284 0.30373 0.29926 -0.05300
H 	H 	0.77449 0.32023 0.23842 0.07200
H 	H 	0.56492 0.28513 0.20431 0.06900
H 	H 	0.59766 0.29826 0.12599 0.05000
H 	H 	0.74719 0.31911 0.31862 0.06900
C 	C 	0.77640 0.70719 0.44384 -0.10000
C 	C 	0.80606 0.69123 0.47182 -0.00600
C 	C 	0.86028 0.73921 0.50139 0.14100
C 	C 	0.88636 0.80277 0.50151 -0.06500
C 	C 	0.85905 0.81912 0.47205 -0.05500
C 	C 	0.80294 0.77092 0.44367 0.16400
C 	C 	0.78224 0.62462 0.46880 0.01000
O 	O 	0.89005 0.72430 0.52868 -0.27200
H 	H 	0.92940 0.83959 0.52357 0.07500
O 	O 	0.77464 0.78596 0.41533 -0.27900
H 	H 	0.73389 0.67029 0.42147 0.07000
C 	C 	0.74671 0.58881 0.49728 0.11800
C 	C 	0.72509 0.52600 0.49448 -0.03500
C 	C 	0.73691 0.49769 0.46258 -0.12200
C 	C 	0.77259 0.53370 0.43406 0.19100
C 	C 	0.79568 0.59710 0.43758 -0.11300
O 	O 	0.73371 0.61536 0.52816 -0.27500
H 	H 	0.69791 0.49882 0.51665 0.05600
O 	O 	0.78446 0.50696 0.40256 -0.27900
H 	H 	0.82337 0.62464 0.41570 0.07800
H 	H 	0.79523 0.78979 0.39118 0.15100
H 	H 	0.69203 0.60659 0.51686 0.14800
H 	H 	0.74769 0.48903 0.37970 0.15200
H 	H 	0.87004 0.71947 0.55320 0.16000
C 	C 	0.88038 0.10403 0.49614 -0.10500
C 	C 	0.82727 0.08505 0.46668 -0.00000
C 	C 	0.79561 0.02806 0.43823 0.12200
C 	C 	0.81874 0.99175 0.43850 -0.04000
C 	C 	0.87318 0.01184 0.46719 -0.08000
C 	C 	0.90340 0.06778 0.49651 0.17300
C 	C 	0.80525 0.12530 0.46569 0.00900
O 	O 	0.74332 0.00875 0.40942 -0.27900
H 	H 	0.79526 0.94881 0.41582 0.06700
O 	O 	0.95430 0.08609 0.52626 -0.28600
H 	H 	0.90424 0.14730 0.51857 0.06800
C 	C 	0.77413 0.12964 0.49653 0.11200
C 	C 	0.75948 0.17279 0.49792 -0.03400
C 	C 	0.77584 0.21207 0.46877 -0.13300
C 	C 	0.80580 0.20684 0.43737 0.19900
C 	C 	0.82006 0.16329 0.43583 -0.11300
O 	O 	0.75691 0.09088 0.52488 -0.27400
H 	H 	0.73566 0.17597 0.52185 0.02300
O 	O 	0.82148 0.24436 0.40835 -0.27900
H 	H 	0.84403 0.16015 0.41200 0.08100
H 	H 	0.99353 0.11594 0.51531 0.15100
H 	H 	0.79382 0.11519 0.54825 0.14400
H 	H 	0.86594 0.28295 0.41958 0.15200
H 	H 	0.70530 0.98214 0.42227 0.16200
C 	C 	0.16944 0.05190 0.49311 -0.09700
C 	C 	0.19483 0.08238 0.46045 -0.00700
C 	C 	0.15407 0.08013 0.42830 0.14000
C 	C 	0.08824 0.04718 0.42895 -0.06500
C 	C 	0.06278 0.01642 0.46152 -0.05900
C 	C 	0.10375 0.01934 0.49390 0.15700
C 	C 	0.26438 0.11778 0.46048 0.01200
O 	O 	0.17810 0.10825 0.39561 -0.27400
H 	H 	0.05686 0.04491 0.40388 0.06800
O 	O 	0.07949 0.98974 0.52608 -0.26300
H 	H 	0.20076 0.05385 0.51804 0.07000
C 	C 	0.30562 0.18424 0.47147 0.11600
C 	C 	0.37156 0.21754 0.47134 -0.02900
C 	C 	0.39708 0.18482 0.46126 -0.12300
C 	C 	0.35605 0.11820 0.45125 0.19600
C 	C 	0.28981 0.08497 0.45055 -0.11400
O 	O 	0.28132 0.21677 0.48159 -0.27500
H 	H 	0.40299 0.26882 0.47942 0.05900
O 	O 	0.38011 0.08571 0.44040 -0.29500
H 	H 	0.25820 0.03371 0.44226 0.08000
H 	H 	0.08284 0.02183 0.54641 0.14600
H 	H 	0.28344 0.22009 0.51160 0.14700
H 	H 	0.39088 0.07545 0.46619 0.15600
H 	H 	0.19040 0.15165 0.40274 0.15900
C 	C 	0.88382 0.66691 0.01124 -0.11600
C 	C 	0.87071 0.68771 0.97741 0.01300
C 	C 	0.82755 0.64344 0.94193 0.11900
C 	C 	0.79651 0.57868 0.94097 -0.02800
C 	C 	0.80719 0.55772 0.97559 -0.12000
C 	C 	0.85217 0.60218 0.01047 0.19200
C 	C 	0.90064 0.75564 0.97975 -0.00500
O 	O 	0.81563 0.66337 0.90825 -0.27100
H 	H 	0.76221 0.54465 0.91391 0.06500
O 	O 	0.86350 0.58226 0.04437 -0.29800
H 	H 	0.91765 0.70093 0.03844 0.07500
C 	C 	0.88070 0.78497 0.00431 0.13200
C 	C 	0.91169 0.85015 0.00810 -0.06700
C 	C 	0.96289 0.88655 0.98767 -0.04800
C 	C 	0.98103 0.85661 0.96176 0.15700
C 	C 	0.95046 0.79156 0.95836 -0.09000
O 	O 	0.83000 0.74971 0.02389 -0.27300
H 	H 	0.89677 0.87260 0.02760 0.07200
O 	O 	0.02906 0.89097 0.94012 -0.26600
H 	H 	0.96561 0.76905 0.93916 0.07700
H 	H 	0.89965 0.58034 0.04049 0.14600
H 	H 	0.84974 0.75140 0.05136 0.15000
H 	H 	0.00692 0.88951 0.91370 0.15600
H 	H 	0.77862 0.66388 0.91206 0.15500
C 	C 	0.83378 0.16077 0.02627 -0.11600
C 	C 	0.86442 0.15741 0.99493 0.01300
C 	C 	0.86271 0.18172 0.95967 0.11600
C 	C 	0.82827 0.20668 0.95513 -0.03600
C 	C 	0.79666 0.20941 0.98616 -0.12500
C 	C 	0.80098 0.18769 0.02241 0.19200
C 	C 	0.89659 0.12660 0.99837 -0.00800
O 	O 	0.89320 0.17944 0.92904 -0.27700
H 	H 	0.82570 0.22343 0.92722 0.04600
O 	O 	0.77289 0.19223 0.05388 -0.27600
H 	H 	0.83540 0.14253 0.05366 0.07600
C 	C 	0.95560 0.15675 0.02553 0.13400
C 	C 	0.98856 0.12983 0.02587 -0.08000
C 	C 	0.96310 0.07285 0.99913 -0.04800
C 	C 	0.90389 0.04274 0.97196 0.15200
C 	C 	0.87042 0.06904 0.97230 -0.08800
O 	O 	0.98246 0.21384 0.05050 -0.27900
H 	H 	0.03393 0.15331 0.04693 0.07500
O 	O 	0.87893 0.98796 0.94483 -0.26300
H 	H 	0.82493 0.04560 0.95137 0.07500
H 	H 	0.80661 0.23410 0.07151 0.15800
H 	H 	0.96642 0.20306 0.07642 0.14700
H 	H 	0.89689 0.00191 0.91985 0.14500
H 	H 	0.93746 0.21979 0.93598 0.15000
C 	C 	0.27055 0.12428 0.03905 -0.09900
C 	C 	0.29903 0.16082 0.00928 -0.00800
C 	C 	0.26227 0.16909 0.98086 0.14000
C 	C 	0.19654 0.13810 0.98105 -0.06200
C 	C 	0.16729 0.09901 0.00959 -0.05900
C 	C 	0.20503 0.09378 0.03949 0.16600
C 	C 	0.36675 0.18860 0.00713 0.01000
O 	O 	0.28976 0.20492 0.95167 -0.27500
H 	H 	0.16784 0.14257 0.95805 0.06900
O 	O 	0.17739 0.05702 0.06826 -0.27800
H 	H 	0.29901 0.11872 0.06145 0.07200
C 	C 	0.41629 0.25159 0.02623 0.11500
C 	C 	0.48054 0.27726 0.02457 -0.03100
C 	C 	0.49593 0.24011 0.00442 -0.12900
C 	C 	0.44623 0.17708 0.98513 0.19800
C 	C 	0.38195 0.15147 0.98680 -0.11200
O 	O 	0.40187 0.28848 0.04588 -0.27400
H 	H 	0.51852 0.32587 0.03939 0.04800
O 	O 	0.46037 0.14040 0.96481 -0.28700
H 	H 	0.34386 0.10281 0.97215 0.08100
H 	H 	0.18157 0.08598 0.09166 0.15000
H 	H 	0.40256 0.28190 0.07458 0.14500
H 	H 	0.45961 0.14760 0.93625 0.14500
H 	H 	0.30601 0.24843 0.96403 0.15900
