data_crystal

_cell_length_a 18.45541
_cell_length_b 18.69108
_cell_length_c 34.42436
_cell_angle_alpha 95.43465
_cell_angle_beta  95.43484
_cell_angle_gamma 126.42981

_symmetry_space_group_name_	'P 1'
_symmetry_space_group_name_H-M	'P 1'

loop_
_symmetry_equiv_pos_as_xyz
  x,y,z

loop_
_atom_site_label
_atom_site_type_symbol
_atom_site_fract_x
_atom_site_fract_y
_atom_site_fract_z
_atom_site_charge
C 	C 	0.91764 0.00442 0.97224 0.10600
N 	N 	0.87536 0.91432 0.96995 -0.13700
C 	C 	0.92565 0.88291 0.96962 0.10700
N 	N 	0.01762 0.94152 0.97172 -0.13400
C 	C 	0.05989 0.03147 0.97480 0.12000
N 	N 	0.00972 0.06264 0.97475 -0.13000
C 	C 	0.93975 0.01882 0.49063 0.10700
N 	N 	0.03100 0.06054 0.49380 -0.13100
C 	C 	0.06257 0.01083 0.49392 0.12000
N 	N 	0.00295 0.91977 0.49082 -0.13300
C 	C 	0.91166 0.87787 0.48678 0.11000
N 	N 	0.88023 0.92758 0.48697 -0.13600
Cu	Cu	0.76269 0.34419 0.96126 0.92900
Cu	Cu	0.72596 0.26791 0.04395 0.87100
Cu	Cu	0.62757 0.32961 0.00948 0.89500
Cu	Cu	0.59152 0.33290 0.92294 0.90600
C 	C 	0.69994 0.30094 0.87684 0.31300
O 	O 	0.81324 0.47405 0.95664 -0.35600
C 	C 	0.67275 0.35272 0.09633 0.30000
O 	O 	0.62080 0.27623 0.95644 -0.63400
O 	O 	0.75326 0.36516 0.01684 -0.64600
O 	O 	0.82141 0.28410 0.97037 -0.36900
O 	O 	0.70803 0.18362 0.00118 -0.43300
O 	O 	0.66663 0.34600 0.88241 -0.37400
O 	O 	0.50799 0.30487 0.00136 -0.37900
C 	C 	0.44416 0.25833 0.96896 0.29700
C 	C 	0.77094 0.50888 0.96642 0.28100
O 	O 	0.68269 0.45543 0.96725 -0.39800
O 	O 	0.46538 0.26281 0.93334 -0.38400
O 	O 	0.75208 0.30266 0.90639 -0.36800
C 	C 	0.77500 0.20582 0.98220 0.29700
O 	O 	0.63725 0.36810 0.06595 -0.37600
O 	O 	0.72664 0.32891 0.09214 -0.39600
H 	H 	0.57940 0.20919 0.95058 0.17000
H 	H 	0.80056 0.42715 0.03226 0.18000
Cu	Cu	0.61384 0.19096 0.50566 0.92900
Cu	Cu	0.68687 0.22157 0.42196 0.86900
Cu	Cu	0.62210 0.31864 0.45547 0.89600
Cu	Cu	0.62116 0.35823 0.54196 0.90600
C 	C 	0.65956 0.25712 0.58974 0.31300
O 	O 	0.48294 0.13919 0.51116 -0.35800
C 	C 	0.60234 0.27460 0.36928 0.29400
O 	O 	0.67945 0.33007 0.50865 -0.63500
O 	O 	0.58931 0.19583 0.44964 -0.64500
O 	O 	0.67324 0.13195 0.49698 -0.37200
O 	O 	0.77340 0.24078 0.46459 -0.43600
O 	O 	0.61201 0.28787 0.58367 -0.37300
O 	O 	0.64401 0.43524 0.46205 -0.36600
C 	C 	0.69036 0.49986 0.49393 0.29500
C 	C 	0.44476 0.17740 0.50004 0.28200
O 	O 	0.49616 0.26423 0.49856 -0.39800
O 	O 	0.68752 0.48121 0.52997 -0.38500
O 	O 	0.65929 0.20594 0.56060 -0.36700
C 	C 	0.75132 0.17580 0.48428 0.29900
O 	O 	0.58007 0.30419 0.39885 -0.36100
O 	O 	0.62418 0.21968 0.37366 -0.41400
H 	H 	0.74732 0.37234 0.51404 0.16800
H 	H 	0.52634 0.14745 0.43482 0.17500
C 	C 	0.62367 0.20942 0.76663 -0.07200
C 	C 	0.70839 0.24838 0.75476 0.02700
C 	C 	0.78881 0.29247 0.78376 0.05200
C 	C 	0.78453 0.30367 0.82415 -0.00300
C 	C 	0.70070 0.27109 0.83581 -0.09400
C 	C 	0.61927 0.21977 0.80699 0.11400
C 	C 	0.71372 0.25307 0.71234 0.02700
N 	N 	0.87525 0.32821 0.77225 -0.01600
H 	H 	0.84699 0.34082 0.84630 0.06000
N 	N 	0.53208 0.17899 0.81862 -0.02600
H 	H 	0.56140 0.17327 0.74442 0.08200
C 	C 	0.67151 0.17354 0.68372 0.05300
C 	C 	0.66013 0.17658 0.64318 -0.00300
C 	C 	0.69066 0.25831 0.63100 -0.09400
C 	C 	0.74049 0.33913 0.65949 0.11400
C 	C 	0.75100 0.33594 0.69999 -0.07200
N 	N 	0.63776 0.08916 0.69575 -0.01600
H 	H 	0.62426 0.11468 0.62130 0.06100
N 	N 	0.77951 0.42443 0.64738 -0.02600
H 	H 	0.78583 0.39761 0.72193 0.08100
O 	O 	0.47432 0.18994 0.80139 -0.11100
O 	O 	0.50860 0.12719 0.84500 -0.12100
O 	O 	0.94587 0.41165 0.78655 -0.10600
O 	O 	0.88449 0.27616 0.74899 -0.09500
O 	O 	0.83232 0.44847 0.62112 -0.12300
O 	O 	0.76602 0.48001 0.66406 -0.11200
O 	O 	0.55417 0.01769 0.68135 -0.10300
O 	O 	0.69186 0.08275 0.71962 -0.09300
C 	C 	0.70869 0.39666 0.20792 -0.07400
C 	C 	0.61866 0.35641 0.21337 0.02200
C 	C 	0.55164 0.33483 0.18112 0.06000
C 	C 	0.57195 0.34101 0.14275 -0.00900
C 	C 	0.65948 0.37132 0.13667 -0.08700
C 	C 	0.73004 0.40653 0.16988 0.11600
C 	C 	0.59333 0.32769 0.25151 0.02600
N 	N 	0.46434 0.30984 0.18737 -0.01700
H 	H 	0.51852 0.31834 0.11758 0.06000
N 	N 	0.82342 0.45322 0.16508 -0.02100
H 	H 	0.76170 0.41843 0.23313 0.07400
C 	C 	0.56750 0.24259 0.25766 0.05600
C 	C 	0.56107 0.22248 0.29588 -0.00700
C 	C 	0.58553 0.28839 0.32866 -0.08900
C 	C 	0.60655 0.37186 0.32215 0.11100
C 	C 	0.60928 0.39049 0.28356 -0.07400
N 	N 	0.55583 0.17959 0.22576 -0.01600
H 	H 	0.54187 0.15708 0.30033 0.06000
N 	N 	0.63087 0.44003 0.35479 -0.02200
H 	H 	0.62870 0.45586 0.27887 0.07600
O 	O 	0.87350 0.43328 0.18232 -0.10900
O 	O 	0.85978 0.51893 0.14523 -0.11000
O 	O 	0.43765 0.35685 0.17666 -0.10200
O 	O 	0.40870 0.23639 0.20085 -0.09200
O 	O 	0.71653 0.50850 0.36765 -0.12300
O 	O 	0.56711 0.43919 0.36847 -0.09200
O 	O 	0.61364 0.16114 0.22649 -0.11000
O 	O 	0.48460 0.13673 0.19723 -0.09600
C 	C 	0.78258 0.74536 0.50971 -0.07100
C 	C 	0.84736 0.77932 0.48474 -0.02300
C 	C 	0.85233 0.71898 0.45924 0.05200
C 	C 	0.80095 0.62782 0.46294 -0.01800
C 	C 	0.73906 0.59460 0.48914 -0.09600
C 	C 	0.72578 0.65273 0.51097 0.10100
C 	C 	0.65240 0.61705 0.53597 -0.20500
H 	H 	0.77705 0.79124 0.52852 0.05800
H 	H 	0.80990 0.58281 0.44570 0.04600
C 	C 	0.91288 0.75123 0.42850 -0.18400
H 	H 	0.63548 0.66443 0.54238 0.07800
H 	H 	0.67664 0.60852 0.56467 0.08600
H 	H 	0.58814 0.55118 0.52022 0.08300
H 	H 	0.98457 0.78278 0.44264 0.07300
H 	H 	0.91058 0.80099 0.41432 0.07600
H 	H 	0.88986 0.69404 0.40445 0.07900
C 	C 	0.88121 0.09211 0.52489 -0.07600
C 	C 	0.90482 0.07180 0.49025 -0.02000
C 	C 	0.88462 0.09261 0.45439 0.04400
C 	C 	0.83572 0.12815 0.45314 -0.01800
C 	C 	0.80822 0.14458 0.48736 -0.11200
C 	C 	0.83473 0.13029 0.52397 0.10500
C 	C 	0.81249 0.15405 0.56189 -0.21200
H 	H 	0.89755 0.07660 0.55245 0.05600
H 	H 	0.81702 0.14098 0.42527 0.02200
C 	C 	0.91160 0.07339 0.41704 -0.18300
H 	H 	0.85367 0.15655 0.58846 0.08300
H 	H 	0.73879 0.10237 0.56248 0.09800
H 	H 	0.82820 0.22179 0.56425 0.09200
H 	H 	0.87264 0.99917 0.40752 0.07500
H 	H 	0.98620 0.10617 0.42254 0.07100
H 	H 	0.89722 0.09988 0.39230 0.06600
C 	C 	0.30386 0.08919 0.52845 -0.02600
C 	C 	0.34509 0.12738 0.49644 -0.09600
C 	C 	0.29278 0.12624 0.46326 0.09100
C 	C 	0.20147 0.09162 0.46374 -0.06700
C 	C 	0.16082 0.05492 0.49607 -0.02800
C 	C 	0.21252 0.05432 0.52887 0.05500
C 	C 	0.17053 0.01608 0.56422 -0.19100
H 	H 	0.34398 0.08957 0.55374 0.05200
H 	H 	0.16137 0.09150 0.43854 0.05400
C 	C 	0.33416 0.16283 0.42756 -0.20200
H 	H 	0.22366 0.03542 0.59002 0.07800
H 	H 	0.12222 0.94105 0.55631 0.08500
H 	H 	0.13316 0.04222 0.57373 0.08100
H 	H 	0.37557 0.14036 0.41962 0.07200
H 	H 	0.37851 0.23795 0.43414 0.08800
H 	H 	0.28023 0.13829 0.40117 0.07900
C 	C 	0.85157 0.64613 0.93610 -0.02600
C 	C 	0.81790 0.60678 0.96910 -0.09500
C 	C 	0.81822 0.65816 0.00214 0.09000
C 	C 	0.84832 0.74671 0.00081 -0.07000
C 	C 	0.88116 0.78568 0.96764 -0.02500
C 	C 	0.88147 0.73453 0.93474 0.05100
C 	C 	0.91477 0.77423 0.89836 -0.18500
H 	H 	0.85138 0.60669 0.91081 0.05000
H 	H 	0.84855 0.78623 0.02608 0.05200
C 	C 	0.78565 0.61868 0.03865 -0.20300
H 	H 	0.89305 0.72082 0.87258 0.07400
H 	H 	0.99081 0.82282 0.90460 0.07700
H 	H 	0.88611 0.80974 0.88969 0.07700
H 	H 	0.81323 0.58194 0.04681 0.07500
H 	H 	0.70957 0.57122 0.03289 0.08400
H 	H 	0.80910 0.67242 0.06459 0.07800
C 	C 	0.81717 0.11621 0.01182 -0.01900
C 	C 	0.80406 0.14727 0.97826 -0.10900
C 	C 	0.81543 0.11933 0.94117 0.10400
C 	C 	0.84731 0.06716 0.93910 -0.07500
C 	C 	0.86465 0.03989 0.97312 -0.02000
C 	C 	0.84626 0.06176 0.00941 0.04500
C 	C 	0.86208 0.03110 0.04611 -0.18400
H 	H 	0.80626 0.13582 0.04004 0.02600
H 	H 	0.86115 0.04992 0.91121 0.05600
C 	C 	0.79521 0.14588 0.90395 -0.21200
H 	H 	0.83564 0.04555 0.07096 0.06800
H 	H 	0.93666 0.06671 0.05595 0.07200
H 	H 	0.82613 0.95691 0.03968 0.07600
H 	H 	0.84990 0.21872 0.90448 0.09700
H 	H 	0.72784 0.13309 0.90155 0.09300
H 	H 	0.79205 0.10606 0.87684 0.08400
C 	C 	0.19185 0.15508 0.94933 -0.07000
C 	C 	0.15931 0.09464 0.97588 -0.02300
C 	C 	0.22210 0.09508 0.00308 0.05200
C 	C 	0.31511 0.14906 0.00032 -0.02100
C 	C 	0.34712 0.20693 0.97268 -0.09900
C 	C 	0.28579 0.21392 0.94861 0.10200
C 	C 	0.31960 0.28345 0.92214 -0.20500
H 	H 	0.14388 0.15628 0.92915 0.06000
H 	H 	0.36263 0.14564 0.01955 0.03800
C 	C 	0.19053 0.03764 0.03473 -0.18800
H 	H 	0.26889 0.29602 0.91391 0.07900
H 	H 	0.33096 0.25899 0.89443 0.08800
H 	H 	0.38438 0.34926 0.93757 0.08100
H 	H 	0.15929 0.96650 0.02152 0.08200
H 	H 	0.13975 0.04012 0.04842 0.08200
H 	H 	0.24879 0.06222 0.05899 0.07800
