data_crystal

_cell_length_a 25.19064
_cell_length_b 22.26692
_cell_length_c 50.69065
_cell_angle_alpha 90.55679
_cell_angle_beta  91.17149
_cell_angle_gamma 110.78045

_symmetry_space_group_name_	'P 1'
_symmetry_space_group_name_H-M	'P 1'

loop_
_symmetry_equiv_pos_as_xyz
  x,y,z

loop_
_atom_site_label
_atom_site_type_symbol
_atom_site_fract_x
_atom_site_fract_y
_atom_site_fract_z
_atom_site_charge
Ni	Ni	0.70686 0.30161 0.89743 1.10900
O 	O 	0.64629 0.24680 0.87077 -0.70200
Ni	Ni	0.57691 0.25756 0.88470 1.11000
O 	O 	0.76892 0.28051 0.87800 -0.30300
O 	O 	0.71956 0.17221 0.88017 -0.35300
O 	O 	0.71554 0.37560 0.87202 -0.34600
Ni	Ni	0.63394 0.15580 0.87137 1.09800
O 	O 	0.70387 0.37947 0.95239 -0.37900
O 	O 	0.61953 0.14889 0.91100 -0.38500
O 	O 	0.52301 0.20843 0.85515 -0.33400
O 	O 	0.63529 0.30060 0.91404 -0.69900
O 	O 	0.76711 0.36256 0.92318 -0.32500
O 	O 	0.51784 0.29463 0.89763 -0.33500
O 	O 	0.58562 0.39472 0.89880 -0.36500
Ni	Ni	0.64575 0.38759 0.92591 1.09100
H 	H 	0.65312 0.26316 0.85259 0.20600
H 	H 	0.62914 0.27326 0.92975 0.18200
C 	C 	0.57146 0.14895 0.92053 0.31000
O 	O 	0.71137 0.44564 0.90434 -0.36300
C 	C 	0.76211 0.22094 0.87095 0.38400
C 	C 	0.51704 0.14813 0.84954 0.39000
C 	C 	0.72086 0.43396 0.87982 0.40600
C 	C 	0.53214 0.35723 0.90072 0.29700
C 	C 	0.75617 0.38600 0.94585 0.31400
O 	O 	0.54180 0.17853 0.90801 -0.33600
O 	O 	0.54790 0.11930 0.86241 -0.34600
Ni	Ni	0.63174 0.32080 0.57287 1.11200
O 	O 	0.69352 0.33945 0.54527 -0.69600
Ni	Ni	0.75003 0.30813 0.56336 1.10800
O 	O 	0.59602 0.38366 0.55812 -0.32900
O 	O 	0.68266 0.46351 0.55800 -0.36900
O 	O 	0.57601 0.25089 0.54836 -0.34200
Ni	Ni	0.73173 0.42806 0.53451 1.08400
O 	O 	0.56150 0.18751 0.59506 -0.35200
O 	O 	0.80109 0.46941 0.55956 -0.37300
O 	O 	0.81934 0.34240 0.53921 -0.32000
O 	O 	0.68316 0.27951 0.58855 -0.69800
O 	O 	0.57215 0.29402 0.60113 -0.32400
O 	O 	0.79082 0.25872 0.58473 -0.31000
O 	O 	0.71383 0.16592 0.57982 -0.35200
Ni	Ni	0.64158 0.18729 0.58776 1.10400
H 	H 	0.67869 0.31263 0.52921 0.16900
H 	H 	0.69461 0.29540 0.60686 0.20400
C 	C 	0.81664 0.44262 0.57990 0.42300
O 	O 	0.62639 0.18370 0.54819 -0.38900
C 	C 	0.62739 0.44391 0.55403 0.30000
C 	C 	0.82458 0.38420 0.52001 0.31800
C 	C 	0.58602 0.20142 0.53821 0.30700
C 	C 	0.76402 0.19809 0.59070 0.38100
C 	C 	0.54878 0.23303 0.60776 0.38900
O 	O 	0.78439 0.38602 0.58815 -0.36200
O 	O 	0.78047 0.39699 0.51074 -0.39200
Ni	Ni	0.01170 0.93799 0.75297 1.10900
O 	O 	0.02791 0.87534 0.72776 -0.70900
Ni	Ni	0.06852 0.93395 0.69922 1.11000
O 	O 	0.96992 0.86467 0.77787 -0.29300
O 	O 	0.90853 0.81072 0.74470 -0.33500
O 	O 	0.08615 0.95245 0.77481 -0.31400
Ni	Ni	0.95735 0.81544 0.71167 1.10000
O 	O 	0.08178 0.07402 0.77448 -0.34200
O 	O 	0.92857 0.88532 0.69851 -0.35800
O 	O 	0.08444 0.86476 0.67734 -0.30400
O 	O 	0.04468 0.99669 0.72245 -0.70100
O 	O 	0.99203 0.00080 0.77661 -0.30800
O 	O 	0.12577 0.00161 0.67646 -0.29200
O 	O 	0.14432 0.09447 0.70007 -0.32900
Ni	Ni	0.10725 0.07146 0.73656 1.11000
H 	H 	0.05154 0.85287 0.73590 0.21000
H 	H 	0.01562 0.01110 0.71408 0.21700
C 	C 	0.95346 0.92411 0.67955 0.40500
O 	O 	0.15003 0.01197 0.74483 -0.36700
C 	C 	0.92842 0.81297 0.76902 0.38100
C 	C 	0.04207 0.81002 0.67237 0.38200
C 	C 	0.13825 0.97469 0.76544 0.37700
C 	C 	0.16254 0.05534 0.68653 0.39100
C 	C 	0.02809 0.05942 0.78059 0.40600
O 	O 	0.00474 0.92955 0.67240 -0.33300
O 	O 	0.98913 0.80621 0.67580 -0.34600
Ni	Ni	0.26988 0.69923 0.39765 1.10900
O 	O 	0.33663 0.72659 0.37200 -0.69500
Ni	Ni	0.40079 0.73337 0.39770 1.10600
O 	O 	0.21154 0.72427 0.37567 -0.31800
O 	O 	0.26857 0.78570 0.34443 -0.34200
O 	O 	0.23762 0.60946 0.37986 -0.33400
Ni	Ni	0.35138 0.81299 0.35876 1.09700
O 	O 	0.22966 0.57611 0.43150 -0.36000
O 	O 	0.33579 0.84057 0.39546 -0.38400
O 	O 	0.46727 0.77328 0.37320 -0.33500
O 	O 	0.33269 0.69610 0.42138 -0.70700
O 	O 	0.20873 0.66761 0.42509 -0.33600
O 	O 	0.45514 0.72159 0.42621 -0.32900
O 	O 	0.40171 0.61528 0.42971 -0.36100
Ni	Ni	0.31652 0.60586 0.42941 1.08600
H 	H 	0.33339 0.69503 0.35761 0.21100
H 	H 	0.33558 0.72205 0.43768 0.17000
C 	C 	0.37396 0.85015 0.41478 0.29400
O 	O 	0.31156 0.57752 0.39088 -0.37400
C 	C 	0.22420 0.77275 0.35943 0.40900
C 	C 	0.47350 0.82757 0.36136 0.39700
C 	C 	0.26638 0.57113 0.37620 0.40000
C 	C 	0.44250 0.66714 0.43885 0.29200
C 	C 	0.20002 0.61299 0.43740 0.29600
O 	O 	0.41304 0.82308 0.41392 -0.34400
O 	O 	0.43670 0.85629 0.36519 -0.36100
Ni	Ni	0.33912 0.66912 0.05696 1.10900
O 	O 	0.26808 0.66954 0.03710 -0.70400
Ni	Ni	0.22204 0.68509 0.06615 1.10600
O 	O 	0.36960 0.63533 0.02497 -0.33100
O 	O 	0.28619 0.55085 0.02046 -0.36200
O 	O 	0.38149 0.76183 0.04462 -0.33200
Ni	Ni	0.22444 0.59218 0.01683 1.09800
O 	O 	0.41827 0.77320 0.09349 -0.37100
O 	O 	0.17695 0.52895 0.04402 -0.34900
O 	O 	0.14868 0.67722 0.04546 -0.34300
O 	O 	0.29406 0.68673 0.08649 -0.69100
O 	O 	0.40908 0.67300 0.07882 -0.34000
O 	O 	0.19212 0.71994 0.09767 -0.31900
O 	O 	0.27111 0.79042 0.11854 -0.33100
Ni	Ni	0.33884 0.77152 0.10180 1.10100
H 	H 	0.27742 0.70618 0.02501 0.18600
H 	H 	0.28621 0.65292 0.09994 0.20900
C 	C 	0.15455 0.54428 0.06509 0.38500
O 	O 	0.33290 0.81486 0.06730 -0.38000
C 	C 	0.33830 0.58148 0.01291 0.29800
C 	C 	0.12815 0.63798 0.02491 0.30800
C 	C 	0.36211 0.80965 0.04668 0.29500
C 	C 	0.22001 0.77732 0.10780 0.38700
C 	C 	0.43359 0.72254 0.09473 0.40300
O 	O 	0.18424 0.59413 0.07988 -0.34000
O 	O 	0.16228 0.62699 0.00755 -0.36000
Ni	Ni	0.94895 0.06376 0.25008 1.12000
O 	O 	0.94473 0.12348 0.22044 -0.69800
Ni	Ni	0.90427 0.05963 0.19218 1.11700
O 	O 	0.99159 0.14071 0.27452 -0.28500
O 	O 	0.05994 0.18109 0.24373 -0.33300
O 	O 	0.87192 0.06623 0.26166 -0.34100
Ni	Ni	0.01843 0.17482 0.20715 1.09300
O 	O 	0.91835 0.90401 0.25514 -0.32900
O 	O 	0.04246 0.09822 0.19872 -0.35000
O 	O 	0.89577 0.12426 0.16582 -0.30200
O 	O 	0.92088 0.00171 0.21973 -0.68800
O 	O 	0.94696 0.99981 0.27923 -0.31400
O 	O 	0.84703 0.98476 0.17074 -0.31300
O 	O 	0.79977 0.94230 0.20812 -0.34500
Ni	Ni	0.86089 0.92534 0.23191 1.11100
H 	H 	0.92260 0.15073 0.22522 0.21100
H 	H 	0.95244 0.98810 0.21437 0.19100
C 	C 	0.01920 0.05806 0.17907 0.38000
O 	O 	0.83346 0.95749 0.26481 -0.35400
C 	C 	0.03741 0.18702 0.26646 0.37400
C 	C 	0.94082 0.17571 0.16097 0.38800
C 	C 	0.82862 0.01394 0.26676 0.42300
C 	C 	0.80334 0.94246 0.18223 0.38800
C 	C 	0.94963 0.94243 0.27429 0.39600
O 	O 	0.96866 0.05216 0.16948 -0.31100
O 	O 	0.99236 0.17850 0.16877 -0.34800
C 	C 	0.01711 0.40308 0.07144 0.23200
C 	C 	0.01976 0.38822 0.09818 -0.00800
C 	C 	0.06475 0.42757 0.11445 0.23400
C 	C 	0.10758 0.48003 0.10395 0.32100
C 	C 	0.10624 0.49348 0.07691 -0.20200
C 	C 	0.06044 0.45499 0.06077 0.30600
C 	C 	0.97981 0.32733 0.10846 0.00700
F 	F 	0.06847 0.41294 0.14021 -0.33400
F 	F 	0.05861 0.46703 0.03463 -0.39600
C 	C 	0.98331 0.26860 0.09999 0.24200
C 	C 	0.96105 0.21404 0.11541 0.32100
C 	C 	0.93706 0.21847 0.13978 -0.18400
C 	C 	0.92568 0.27414 0.14609 0.31300
C 	C 	0.94661 0.32841 0.13030 0.24200
F 	F 	0.01292 0.26591 0.07820 -0.32600
F 	F 	0.89927 0.27770 0.16881 -0.35700
F 	F 	0.96866 0.15881 0.10820 -0.32200
F 	F 	0.93898 0.38362 0.13750 -0.31700
F 	F 	0.97323 0.36623 0.05564 -0.32700
F 	F 	0.15200 0.51556 0.11977 -0.35500
C 	C 	0.68288 0.79372 0.15902 0.24400
C 	C 	0.65572 0.81925 0.14013 0.00300
C 	C 	0.68043 0.88406 0.13322 0.23800
C 	C 	0.73032 0.92383 0.14610 0.32700
C 	C 	0.75573 0.89913 0.16609 -0.19400
C 	C 	0.73262 0.83352 0.17201 0.32100
C 	C 	0.59841 0.78055 0.12989 0.00500
F 	F 	0.65463 0.90910 0.11484 -0.33000
F 	F 	0.75794 0.80863 0.19066 -0.37900
C 	C 	0.55119 0.77116 0.14575 0.23500
C 	C 	0.49632 0.74581 0.13468 0.31700
C 	C 	0.48825 0.72995 0.10766 -0.20700
C 	C 	0.53524 0.73401 0.09234 0.32500
C 	C 	0.59021 0.75929 0.10345 0.23600
F 	F 	0.55865 0.79005 0.17153 -0.32000
F 	F 	0.52791 0.71761 0.06629 -0.36200
F 	F 	0.45104 0.74015 0.14985 -0.38000
F 	F 	0.63560 0.76611 0.08820 -0.32500
F 	F 	0.66005 0.73076 0.16537 -0.31800
F 	F 	0.75238 0.98706 0.14010 -0.34700
C 	C 	0.07666 0.97094 0.12930 0.23200
C 	C 	0.10398 0.94021 0.14587 0.00200
C 	C 	0.10472 0.94958 0.17333 0.24100
C 	C 	0.07756 0.98863 0.18418 0.30400
C 	C 	0.04987 0.01916 0.16762 -0.19100
C 	C 	0.04993 0.01050 0.14011 0.32600
C 	C 	0.13176 0.89809 0.13450 0.00300
F 	F 	0.13149 0.92046 0.18947 -0.32100
F 	F 	0.02459 0.04098 0.12384 -0.33000
C 	C 	0.18432 0.92489 0.12234 0.23900
C 	C 	0.21211 0.88512 0.11278 0.31300
C 	C 	0.18778 0.81819 0.11549 -0.19800
C 	C 	0.13452 0.79129 0.12721 0.32200
C 	C 	0.10655 0.83113 0.13653 0.23800
F 	F 	0.20886 0.98960 0.12019 -0.32800
F 	F 	0.11084 0.72682 0.13040 -0.34400
F 	F 	0.26298 0.91160 0.10106 -0.37700
F 	F 	0.05535 0.80480 0.14796 -0.32500
F 	F 	0.07587 0.96224 0.10273 -0.32500
F 	F 	0.07686 0.99548 0.21081 -0.36600
C 	C 	0.73281 0.99353 0.32330 0.22600
C 	C 	0.68009 0.97358 0.30975 0.00900
C 	C 	0.67807 0.98365 0.28250 0.23000
C 	C 	0.72842 0.00636 0.26846 0.33200
C 	C 	0.78098 0.01894 0.28159 -0.20400
C 	C 	0.78313 0.01689 0.30927 0.34100
C 	C 	0.62783 0.93596 0.32346 0.00200
F 	F 	0.62725 0.96789 0.26942 -0.32200
F 	F 	0.83390 0.03156 0.32230 -0.34200
C 	C 	0.60409 0.96610 0.34180 0.23100
C 	C 	0.55492 0.93028 0.35495 0.32000
C 	C 	0.52834 0.86404 0.34946 -0.20200
C 	C 	0.55277 0.83371 0.33146 0.31800
C 	C 	0.60241 0.86947 0.31860 0.23700
F 	F 	0.62867 0.03016 0.34686 -0.31700
F 	F 	0.52768 0.76991 0.32597 -0.35800
F 	F 	0.53347 0.95973 0.37327 -0.36400
F 	F 	0.62583 0.83961 0.30134 -0.32300
F 	F 	0.73531 0.98633 0.34981 -0.32300
F 	F 	0.72593 0.01081 0.24180 -0.36000
C 	C 	0.18798 0.46263 0.31962 0.23800
C 	C 	0.17527 0.40184 0.33083 0.00500
C 	C 	0.19699 0.39665 0.35609 0.23600
C 	C 	0.22974 0.45195 0.37037 0.32100
C 	C 	0.24081 0.51300 0.35954 -0.20400
C 	C 	0.22046 0.51799 0.33395 0.32300
C 	C 	0.13906 0.34363 0.31614 0.00000
F 	F 	0.18521 0.33805 0.36702 -0.32400
F 	F 	0.23146 0.57660 0.32314 -0.35800
C 	C 	0.16354 0.30299 0.30416 0.24400
C 	C 	0.12978 0.24977 0.28903 0.31900
C 	C 	0.07125 0.23720 0.28546 -0.18300
C 	C 	0.04640 0.27645 0.29830 0.30600
C 	C 	0.08019 0.32947 0.31360 0.24500
F 	F 	0.22025 0.31572 0.30683 -0.32000
F 	F 	0.98990 0.26455 0.29520 -0.34500
F 	F 	0.15393 0.21053 0.27772 -0.33100
F 	F 	0.05595 0.36772 0.32561 -0.32700
F 	F 	0.16829 0.46801 0.29496 -0.32100
F 	F 	0.24841 0.44639 0.39522 -0.38000
C 	C 	0.99777 0.83287 0.31699 0.25800
C 	C 	0.05561 0.86968 0.32080 -0.01000
C 	C 	0.07731 0.93241 0.31120 0.25200
C 	C 	0.04212 0.95697 0.29670 0.30400
C 	C 	0.98497 0.91888 0.29165 -0.17500
C 	C 	0.96255 0.85732 0.30242 0.32100
C 	C 	0.09465 0.83996 0.33177 0.00900
F 	F 	0.13315 0.96846 0.31495 -0.32200
F 	F 	0.90676 0.82115 0.29862 -0.34200
C 	C 	0.11181 0.79856 0.31588 0.23500
C 	C 	0.15320 0.77530 0.32520 0.33000
C 	C 	0.17804 0.79362 0.35044 -0.20400
C 	C 	0.15949 0.83315 0.36672 0.31800
C 	C 	0.11790 0.85637 0.35740 0.23700
F 	F 	0.08929 0.78221 0.29113 -0.31600
F 	F 	0.18276 0.85031 0.39130 -0.37300
F 	F 	0.16956 0.73529 0.30967 -0.33600
F 	F 	0.10096 0.89574 0.37301 -0.32500
F 	F 	0.97619 0.77268 0.32676 -0.31900
F 	F 	0.06412 0.01674 0.28655 -0.34500
C 	C 	0.45145 0.08730 0.50524 -0.06400
C 	C 	0.47374 0.06415 0.48397 0.03300
C 	C 	0.53230 0.09117 0.47901 0.07400
C 	C 	0.56818 0.13915 0.49597 0.00300
C 	C 	0.54640 0.15995 0.51808 -0.08200
C 	C 	0.48738 0.13475 0.52239 0.14000
C 	C 	0.43631 0.00920 0.46780 0.04300
N 	N 	0.55570 0.06877 0.45715 -0.01900
H 	H 	0.61338 0.15863 0.49246 0.07700
N 	N 	0.46419 0.15479 0.54490 -0.02700
H 	H 	0.40636 0.06708 0.50894 0.11100
C 	C 	0.41924 0.94625 0.47752 0.06400
C 	C 	0.39203 0.89381 0.46054 0.00800
C 	C 	0.38276 0.90349 0.43379 -0.07100
C 	C 	0.39488 0.96665 0.42477 0.14200
C 	C 	0.42162 0.01911 0.44181 -0.05400
N 	N 	0.43178 0.93526 0.50431 -0.01800
H 	H 	0.38171 0.84539 0.46773 0.06100
N 	N 	0.38318 0.97774 0.39791 -0.03400
H 	H 	0.43315 0.06756 0.43450 0.10800
O 	O 	0.44773 0.11654 0.56473 -0.03100
O 	O 	0.45294 0.20742 0.54413 -0.02000
O 	O 	0.58167 0.10848 0.43894 -0.03200
O 	O 	0.55478 0.01000 0.45646 -0.03500
O 	O 	0.33155 0.96991 0.39020 -0.03200
O 	O 	0.42472 0.00083 0.38176 -0.01400
O 	O 	0.39065 0.90693 0.52009 -0.05100
O 	O 	0.48419 0.94868 0.51229 -0.05900
C 	C 	0.04292 0.54303 0.45108 -0.06000
C 	C 	0.04373 0.52067 0.47679 0.02200
C 	C 	0.09615 0.53022 0.48986 0.08200
C 	C 	0.14708 0.56124 0.47691 -0.00100
C 	C 	0.14623 0.58357 0.45118 -0.06800
C 	C 	0.09373 0.57395 0.43815 0.14200
C 	C 	0.98940 0.48630 0.48971 0.05200
N 	N 	0.09781 0.50843 0.51625 -0.02200
H 	H 	0.18732 0.56821 0.48693 0.07100
N 	N 	0.09184 0.59324 0.41141 -0.02500
H 	H 	0.00269 0.53530 0.44091 0.10200
C 	C 	0.95356 0.51943 0.49721 0.07900
C 	C 	0.89941 0.48525 0.50651 0.02100
C 	C 	0.88098 0.41831 0.50911 -0.06500
C 	C 	0.91729 0.38522 0.50212 0.15700
C 	C 	0.97133 0.41943 0.49252 -0.06300
N 	N 	0.97214 0.58793 0.49545 -0.01300
H 	H 	0.87211 0.51104 0.51235 0.07400
N 	N 	0.89876 0.31675 0.50386 -0.02500
H 	H 	0.99866 0.39377 0.48659 0.11400
O 	O 	0.06996 0.63653 0.40573 -0.02400
O 	O 	0.10773 0.56390 0.39253 -0.02300
O 	O 	0.12565 0.47061 0.52166 -0.03600
O 	O 	0.07468 0.52968 0.53516 -0.00500
O 	O 	0.85486 0.28071 0.48994 -0.04300
O 	O 	0.92834 0.29042 0.51775 -0.00200
O 	O 	0.94144 0.61439 0.48241 -0.04200
O 	O 	0.01780 0.62390 0.50827 -0.02900
C 	C 	0.56242 0.62768 0.46986 -0.06600
C 	C 	0.54110 0.61046 0.49512 0.03100
C 	C 	0.49410 0.62543 0.50332 0.07300
C 	C 	0.46492 0.65024 0.48522 -0.00200
C 	C 	0.48220 0.65998 0.45901 -0.07700
C 	C 	0.53287 0.65181 0.45166 0.14300
C 	C 	0.56162 0.56747 0.51092 0.03200
N 	N 	0.47425 0.61256 0.52965 -0.02000
H 	H 	0.42681 0.65824 0.49113 0.05700
N 	N 	0.55289 0.66497 0.42537 -0.02600
H 	H 	0.59968 0.61807 0.46376 0.09900
C 	C 	0.54387 0.50155 0.50434 0.07000
C 	C 	0.56424 0.46128 0.51912 -0.00000
C 	C 	0.60208 0.48595 0.54056 -0.08500
C 	C 	0.61850 0.55162 0.54768 0.13700
C 	C 	0.59862 0.59215 0.53262 -0.06700
N 	N 	0.50566 0.47553 0.48237 -0.01700
H 	H 	0.55141 0.41087 0.51358 0.07900
N 	N 	0.65416 0.57693 0.57053 -0.02500
H 	H 	0.61142 0.64264 0.53800 0.10600
O 	O 	0.52577 0.62745 0.40589 -0.03400
O 	O 	0.60096 0.71091 0.42128 -0.03000
O 	O 	0.47636 0.65978 0.54544 -0.04600
O 	O 	0.44974 0.55358 0.53709 -0.04400
O 	O 	0.70016 0.62719 0.56858 -0.03800
O 	O 	0.63851 0.55265 0.59357 -0.02300
O 	O 	0.52135 0.44817 0.46276 -0.05800
O 	O 	0.45400 0.47537 0.48279 -0.05200
C 	C 	0.88066 0.04453 0.67087 0.23900
C 	C 	0.87611 0.04624 0.64325 0.00300
C 	C 	0.89594 0.00662 0.62759 0.24600
C 	C 	0.92078 0.96623 0.63945 0.32100
C 	C 	0.92495 0.96420 0.66708 -0.21600
C 	C 	0.90414 0.00296 0.68274 0.32400
C 	C 	0.84824 0.08734 0.63079 0.00300
F 	F 	0.89053 0.00679 0.60088 -0.31900
F 	F 	0.90759 0.00114 0.70947 -0.38100
C 	C 	0.87972 0.13972 0.61553 0.24000
C 	C 	0.85269 0.17690 0.60278 0.32300
C 	C 	0.79405 0.16273 0.60567 -0.19700
C 	C 	0.76317 0.11176 0.62179 0.31600
C 	C 	0.78994 0.07370 0.63392 0.24000
F 	F 	0.93639 0.15411 0.61284 -0.31700
F 	F 	0.70706 0.09907 0.62565 -0.38300
F 	F 	0.88312 0.22531 0.58701 -0.34600
F 	F 	0.75909 0.02302 0.64854 -0.31900
F 	F 	0.86229 0.08322 0.68619 -0.31400
F 	F 	0.93997 0.92827 0.62413 -0.33500
C 	C 	0.43000 0.13554 0.65123 0.24200
C 	C 	0.38840 0.16240 0.64564 0.00400
C 	C 	0.40135 0.21615 0.62937 0.23800
C 	C 	0.45462 0.24121 0.61787 0.32000
C 	C 	0.49591 0.21326 0.62288 -0.19100
C 	C 	0.48362 0.16109 0.64005 0.31700
C 	C 	0.33073 0.13320 0.65621 0.00400
F 	F 	0.36179 0.24328 0.62428 -0.32500
F 	F 	0.52335 0.13447 0.64554 -0.36200
C 	C 	0.32159 0.13985 0.68314 0.24500
C 	C 	0.26681 0.11346 0.69304 0.32000
C 	C 	0.22048 0.08078 0.67604 -0.18900
C 	C 	0.22973 0.07386 0.64907 0.32500
C 	C 	0.28468 0.09958 0.63927 0.24200
F 	F 	0.36578 0.17230 0.69968 -0.31100
F 	F 	0.18540 0.04370 0.63224 -0.33300
F 	F 	0.25876 0.11924 0.71921 -0.36400
F 	F 	0.29317 0.09228 0.61325 -0.32400
F 	F 	0.41806 0.08385 0.66709 -0.31400
F 	F 	0.46517 0.29080 0.60097 -0.35500
C 	C 	0.02439 0.64319 0.65637 0.24300
C 	C 	0.00214 0.64020 0.63057 -0.00600
C 	C 	0.01437 0.69719 0.61635 0.23000
C 	C 	0.03980 0.75673 0.62929 0.32100
C 	C 	0.05133 0.75927 0.65658 -0.18500
C 	C 	0.04962 0.70284 0.66927 0.30500
C 	C 	0.95675 0.58095 0.62079 0.00900
F 	F 	0.99654 0.69496 0.59078 -0.32400
F 	F 	0.06530 0.70512 0.69515 -0.36700
C 	C 	0.90191 0.56372 0.63095 0.23100
C 	C 	0.85646 0.51449 0.61881 0.32600
C 	C 	0.86541 0.48222 0.59639 -0.21000
C 	C 	0.92086 0.49633 0.58738 0.31900
C 	C 	0.96636 0.54570 0.59948 0.24400
F 	F 	0.89219 0.59703 0.65174 -0.33900
F 	F 	0.93037 0.46338 0.56646 -0.38000
F 	F 	0.80319 0.50063 0.62792 -0.36500
F 	F 	0.01941 0.56072 0.58995 -0.33500
F 	F 	0.01679 0.58831 0.66972 -0.32400
F 	F 	0.04585 0.81155 0.61618 -0.33400
C 	C 	0.89209 0.44547 0.98702 -0.06700
C 	C 	0.89994 0.51082 0.98998 0.04400
C 	C 	0.85836 0.53395 0.97997 0.07300
C 	C 	0.81035 0.49194 0.96644 0.00900
C 	C 	0.80375 0.42725 0.96248 -0.07500
C 	C 	0.84430 0.40359 0.97324 0.15000
C 	C 	0.95487 0.55587 0.00044 0.03000
N 	N 	0.86583 0.60060 0.98266 -0.01900
H 	H 	0.77889 0.51006 0.95835 0.08100
N 	N 	0.83722 0.33716 0.97013 -0.02600
H 	H 	0.92385 0.42752 0.99488 0.13000
C 	C 	0.96991 0.55632 0.02741 0.10200
C 	C 	0.02639 0.58869 0.03584 0.00100
C 	C 	0.06764 0.62038 0.01757 -0.05600
C 	C 	0.05081 0.62683 0.99135 0.13000
C 	C 	0.99475 0.59352 0.98282 -0.04500
N 	N 	0.92814 0.52343 0.04620 -0.01800
H 	H 	0.03867 0.58660 0.05634 0.09500
N 	N 	0.09045 0.66760 0.97346 -0.02200
H 	H 	0.98249 0.59571 0.96233 0.11000
O 	O 	0.79185 0.29291 0.97864 -0.04500
O 	O 	0.87769 0.32110 0.96029 -0.00600
O 	O 	0.86219 0.63310 0.96195 -0.03300
O 	O 	0.87320 0.62788 0.00593 -0.03200
O 	O 	0.09521 0.64643 0.94994 -0.03500
O 	O 	0.11949 0.72697 0.98015 -0.03800
O 	O 	0.93990 0.48805 0.06400 -0.01500
O 	O 	0.88006 0.53280 0.04679 -0.03000
C 	C 	0.47441 0.07324 0.97664 -0.06200
C 	C 	0.48519 0.01612 0.97974 0.04300
C 	C 	0.52875 0.00598 0.96543 0.08200
C 	C 	0.55846 0.05104 0.94692 0.00700
C 	C 	0.54607 0.10708 0.94292 -0.06900
C 	C 	0.50551 0.11948 0.95884 0.13800
C 	C 	0.44900 0.96567 0.99704 0.02600
N 	N 	0.54251 0.94955 0.96946 -0.02200
H 	H 	0.59038 0.04169 0.93526 0.09200
N 	N 	0.49663 0.17941 0.95737 -0.02000
H 	H 	0.44195 0.08190 0.98815 0.10900
C 	C 	0.45239 0.97449 0.02469 0.07400
C 	C 	0.42009 0.92461 0.04077 0.01100
C 	C 	0.38569 0.86535 0.02956 -0.06700
C 	C 	0.38052 0.85761 0.00191 0.13300
C 	C 	0.41180 0.90787 0.98580 -0.05700
N 	N 	0.48990 0.03325 0.03653 -0.01600
H 	H 	0.42416 0.93082 0.06205 0.09100
N 	N 	0.34328 0.79885 0.99012 -0.03200
H 	H 	0.40803 0.90149 0.96453 0.10700
O 	O 	0.44603 0.18010 0.95229 -0.05200
O 	O 	0.53795 0.23276 0.96344 -0.10200
O 	O 	0.54272 0.91249 0.94950 -0.04300
O 	O 	0.55797 0.93724 0.99282 -0.03700
O 	O 	0.29048 0.79126 0.98497 -0.07400
O 	O 	0.36333 0.75545 0.98233 -0.06900
O 	O 	0.46998 0.06649 0.05211 -0.03300
O 	O 	0.54440 0.05089 0.03339 -0.03500
C 	C 	0.46772 0.47937 0.92042 -0.06700
C 	C 	0.43344 0.44743 0.94106 0.03100
C 	C 	0.42355 0.38185 0.94505 0.07600
C 	C 	0.45220 0.35055 0.92996 -0.00400
C 	C 	0.49076 0.38424 0.91093 -0.07800
C 	C 	0.49563 0.44780 0.90500 0.13600
C 	C 	0.40983 0.48351 0.95902 0.03100
N 	N 	0.38521 0.34719 0.96473 -0.01900
H 	H 	0.44686 0.30112 0.93409 0.09400
N 	N 	0.52863 0.48019 0.88325 -0.02500
H 	H 	0.47316 0.52896 0.91652 0.10600
C 	C 	0.44359 0.52176 0.97978 0.07800
C 	C 	0.42038 0.55516 0.99685 0.00300
C 	C 	0.36383 0.55123 0.99328 -0.06700
C 	C 	0.33108 0.51563 0.97162 0.13100
C 	C 	0.35395 0.48103 0.95495 -0.06000
N 	N 	0.50158 0.52702 0.98348 -0.01800
H 	H 	0.44599 0.58294 0.01325 0.10500
N 	N 	0.27540 0.51641 0.96595 -0.02800
H 	H 	0.32852 0.45310 0.93853 0.10700
O 	O 	0.56496 0.53843 0.88639 -0.01300
O 	O 	0.51994 0.45293 0.85994 -0.02500
O 	O 	0.34131 0.29694 0.95798 -0.03500
O 	O 	0.39673 0.36254 0.98956 -0.04700
O 	O 	0.26836 0.57055 0.96142 -0.10400
O 	O 	0.23249 0.46266 0.96332 -0.04900
O 	O 	0.54187 0.58307 0.98296 -0.04000
O 	O 	0.51378 0.47654 0.98928 -0.06100
C 	C 	0.96477 0.18230 0.79879 0.23700
C 	C 	0.94372 0.16055 0.82374 0.01300
C 	C 	0.96122 0.11478 0.83649 0.23200
C 	C 	0.99500 0.08651 0.82335 0.35100
C 	C 	0.01117 0.10350 0.79731 -0.21700
C 	C 	0.99856 0.15397 0.78564 0.34000
C 	C 	0.89786 0.17907 0.83488 0.00400
F 	F 	0.94268 0.09495 0.86099 -0.31700
F 	F 	0.01538 0.17213 0.76077 -0.38000
C 	C 	0.84161 0.14868 0.82562 0.24000
C 	C 	0.79747 0.16304 0.83719 0.31800
C 	C 	0.80914 0.20794 0.85816 -0.19200
C 	C 	0.86561 0.23894 0.86725 0.32600
C 	C 	0.90976 0.22458 0.85560 0.24400
F 	F 	0.82968 0.10449 0.80563 -0.32000
F 	F 	0.87748 0.28146 0.88785 -0.34900
F 	F 	0.74331 0.13348 0.82797 -0.38200
F 	F 	0.96400 0.25417 0.86470 -0.31900
F 	F 	0.94986 0.22832 0.78669 -0.31300
F 	F 	0.00887 0.03950 0.83525 -0.33800
C 	C 	0.39058 0.09503 0.80217 0.24000
C 	C 	0.35489 0.03931 0.81435 0.00200
C 	C 	0.37474 0.01614 0.83667 0.24700
C 	C 	0.42879 0.05006 0.84753 0.31600
C 	C 	0.46386 0.10727 0.83592 -0.19200
C 	C 	0.44489 0.12874 0.81285 0.31900
C 	C 	0.29544 0.00800 0.80482 0.01100
F 	F 	0.34092 0.96176 0.84832 -0.33400
F 	F 	0.47866 0.18298 0.80109 -0.35200
C 	C 	0.28344 0.97346 0.78078 0.23800
C 	C 	0.22891 0.95468 0.76923 0.32000
C 	C 	0.18612 0.97076 0.78155 -0.18400
C 	C 	0.19659 0.99887 0.80698 0.30300
C 	C 	0.25119 0.01789 0.81848 0.25000
F 	F 	0.32532 0.96095 0.76800 -0.31700
F 	F 	0.15521 0.01298 0.81951 -0.33000
F 	F 	0.21867 0.92497 0.74515 -0.36400
F 	F 	0.26192 0.04940 0.84218 -0.32700
F 	F 	0.37195 0.11753 0.78041 -0.31100
F 	F 	0.44590 0.02909 0.87009 -0.36400
C 	C 	0.81852 0.54229 0.83016 0.23700
C 	C 	0.80690 0.59903 0.83367 0.00300
C 	C 	0.76476 0.60013 0.85117 0.23600
C 	C 	0.73452 0.54508 0.86507 0.31700
C 	C 	0.74753 0.48888 0.86238 -0.20400
C 	C 	0.78952 0.48769 0.84465 0.32100
C 	C 	0.83758 0.65675 0.81838 0.00000
F 	F 	0.75327 0.65475 0.85478 -0.32300
F 	F 	0.80343 0.43437 0.84201 -0.35100
C 	C 	0.80828 0.67906 0.79928 0.24100
C 	C 	0.83731 0.73275 0.78439 0.31600
C 	C 	0.89654 0.76331 0.78771 -0.18700
C 	C 	0.92563 0.74199 0.80734 0.31700
C 	C 	0.89615 0.68930 0.82277 0.24300
F 	F 	0.75167 0.64814 0.79492 -0.32100
F 	F 	0.98269 0.77092 0.81087 -0.34500
F 	F 	0.80788 0.75507 0.76670 -0.34300
F 	F 	0.92459 0.66934 0.84176 -0.32200
F 	F 	0.85815 0.54020 0.81277 -0.31900
F 	F 	0.69261 0.54637 0.88124 -0.37300
