data_crystal

_cell_length_a 28.46066
_cell_length_b 29.47228
_cell_length_c 38.83435
_cell_angle_alpha 61.00685
_cell_angle_beta  118.76909
_cell_angle_gamma 133.20804

_symmetry_space_group_name_	'P 1'
_symmetry_space_group_name_H-M	'P 1'

loop_
_symmetry_equiv_pos_as_xyz
  x,y,z

loop_
_atom_site_label
_atom_site_type_symbol
_atom_site_fract_x
_atom_site_fract_y
_atom_site_fract_z
_atom_site_charge
N 	N 	0.23650 0.59050 0.21215 -0.14200
C 	C 	0.25462 0.56774 0.20120 0.13900
C 	C 	0.26850 0.63677 0.72855 0.13800
C 	C 	0.25645 0.55983 0.71410 0.13900
N 	N 	0.22945 0.57858 0.72041 -0.14500
Co	Co	0.07133 0.01144 0.08824 1.17900
Co	Co	0.00221 0.05433 0.10167 1.18200
Co	Co	0.01717 0.89384 0.15227 1.18700
C 	C 	0.20930 0.06514 0.10191 0.34600
Co	Co	0.11531 0.92274 0.11081 1.18100
O 	O 	0.06177 0.08200 0.07066 -0.46600
C 	C 	0.04720 0.15281 0.13556 0.32400
C 	C 	0.05729 0.96433 0.02471 0.36200
C 	C 	0.13844 0.89455 0.19850 0.31800
O 	O 	0.05441 0.91449 0.05331 -0.37700
O 	O 	0.05890 0.00569 0.03173 -0.39100
O 	O 	0.06718 0.12522 0.13328 -0.40200
O 	O 	0.16958 0.93273 0.16905 -0.38000
O 	O 	0.09704 0.89975 0.20023 -0.38200
O 	O 	0.05903 0.94103 0.11515 -0.74700
O 	O 	0.18518 0.01885 0.08756 -0.41200
O 	O 	0.17104 0.06095 0.11465 -0.42100
O 	O 	0.05107 0.82486 0.13448 -0.41300
Co	Co	0.05021 0.00883 0.58145 1.17700
C 	C 	0.18778 0.04428 0.60064 0.29900
Co	Co	0.07767 0.91234 0.58998 1.17200
O 	O 	0.04398 0.07889 0.57158 -0.46100
C 	C 	0.07021 0.13793 0.66741 0.32000
C 	C 	0.03942 0.98560 0.50934 0.37200
C 	C 	0.09549 0.86031 0.67907 0.32800
O 	O 	0.08581 0.97697 0.53338 -0.39000
O 	O 	0.01710 0.00042 0.52233 -0.39800
O 	O 	0.03318 0.09416 0.69393 -0.38700
O 	O 	0.07746 0.12090 0.64529 -0.39400
O 	O 	0.07519 0.84630 0.64507 -0.41300
O 	O 	0.07479 0.88626 0.68238 -0.39300
O 	O 	0.03365 0.93556 0.60275 -0.75100
O 	O 	0.00234 0.94888 0.72803 -0.37200
O 	O 	0.16880 0.98469 0.61503 -0.37200
O 	O 	0.15323 0.05971 0.60031 -0.39500
C 	C 	0.01089 0.95115 0.79281 -0.09100
C 	C 	0.06741 0.00712 0.80639 0.09300
C 	C 	0.07605 0.01335 0.84316 0.03700
C 	C 	0.03301 0.96032 0.86899 0.04600
C 	C 	0.04215 0.96636 0.90815 0.01400
C 	C 	0.09124 0.96321 0.94199 0.07000
C 	C 	0.10098 0.97029 0.97870 0.12700
C 	C 	0.05649 0.97277 0.98339 -0.11600
Br	Br	0.13415 0.07373 0.77555 -0.20000
Br	Br	0.17686 0.97905 0.02193 -0.21800
Br	Br	0.14450 0.09511 0.85712 -0.18900
Br	Br	0.14374 0.94693 0.93843 -0.15100
C 	C 	0.03735 0.97631 0.34307 0.07200
C 	C 	0.03049 0.97898 0.30366 0.12300
C 	C 	0.00758 0.98458 0.39040 0.05000
C 	C 	0.05796 0.04244 0.40310 0.03600
C 	C 	0.06596 0.04448 0.44126 0.10100
C 	C 	0.02125 0.98987 0.46572 -0.09600
Br	Br	0.10096 0.96373 0.38811 -0.16100
Br	Br	0.13823 0.12184 0.46022 -0.21300
Br	Br	0.09711 0.98862 0.29330 -0.17400
Br	Br	0.11528 0.11886 0.36808 -0.18300
C 	C 	0.13972 0.29252 0.68585 0.01100
C 	C 	0.15259 0.30403 0.72156 -0.03300
C 	C 	0.18246 0.36565 0.72276 -0.04100
C 	C 	0.19922 0.41648 0.68804 0.02300
C 	C 	0.18812 0.40545 0.65263 -0.04300
C 	C 	0.15796 0.34364 0.65139 -0.03400
C 	C 	0.23499 0.48266 0.68987 -0.02600
C 	C 	0.21480 0.49567 0.70681 -0.07500
C 	C 	0.09710 0.22556 0.68296 0.01600
C 	C 	0.11326 0.20601 0.66810 -0.13900
H 	H 	0.13838 0.26487 0.74825 0.05400
H 	H 	0.19299 0.37395 0.75073 0.05000
H 	H 	0.20214 0.44459 0.62593 0.04500
H 	H 	0.14712 0.33522 0.62338 0.04300
H 	H 	0.16811 0.45839 0.71612 0.05900
H 	H 	0.05316 0.19082 0.69514 0.03500
H 	H 	0.15694 0.24029 0.65574 0.08500
C 	C 	0.21060 0.81255 0.73176 0.00900
C 	C 	0.16336 0.74596 0.73519 -0.03200
C 	C 	0.18316 0.70797 0.74490 -0.04300
C 	C 	0.25021 0.73640 0.75060 0.02500
C 	C 	0.27809 0.83944 0.74141 -0.03200
C 	C 	0.27132 0.69897 0.75553 -0.02600
C 	C 	0.23810 0.65986 0.73122 -0.07300
C 	C 	0.18945 0.85554 0.70866 0.01600
C 	C 	0.13758 0.84240 0.71401 -0.14500
H 	H 	0.11105 0.72427 0.72808 0.04600
H 	H 	0.14622 0.65696 0.74688 0.04600
H 	H 	0.18971 0.64746 0.71168 0.05800
H 	H 	0.21115 0.89390 0.68323 0.03800
H 	H 	0.12028 0.80982 0.74168 0.08600
C 	C 	0.11825 0.29478 0.16985 0.00700
C 	C 	0.09707 0.33446 0.15000 -0.03200
C 	C 	0.13357 0.39142 0.16094 -0.04300
C 	C 	0.19113 0.40875 0.19250 0.02500
C 	C 	0.21233 0.36901 0.21233 -0.04200
C 	C 	0.17595 0.31218 0.20118 -0.03000
C 	C 	0.23507 0.47288 0.20067 -0.02500
C 	C 	0.21084 0.49929 0.20081 -0.07400
C 	C 	0.07433 0.23084 0.16176 0.01600
C 	C 	0.09549 0.21171 0.15061 -0.14700
H 	H 	0.05213 0.32105 0.12609 0.04000
H 	H 	0.11783 0.42262 0.14431 0.04500
H 	H 	0.19199 0.28123 0.21736 0.05000
H 	H 	0.15852 0.47094 0.19941 0.05900
H 	H 	0.02219 0.20128 0.16139 0.03700
H 	H 	0.14766 0.24035 0.15151 0.08300
C 	C 	0.17557 0.77577 0.23391 0.01100
C 	C 	0.22032 0.76222 0.26436 -0.03400
C 	C 	0.22427 0.71837 0.26290 -0.04100
C 	C 	0.18498 0.68928 0.23012 0.02300
C 	C 	0.13574 0.69794 0.20195 -0.04100
C 	C 	0.13097 0.74093 0.20385 -0.03700
C 	C 	0.19889 0.65439 0.22313 -0.02500
C 	C 	0.26168 0.67895 0.22699 -0.07300
C 	C 	0.18639 0.83569 0.22799 0.01100
C 	C 	0.13621 0.83613 0.22238 -0.14700
H 	H 	0.25426 0.78793 0.28808 0.04900
H 	H 	0.25983 0.70920 0.28625 0.04800
H 	H 	0.10359 0.67418 0.17730 0.04400
H 	H 	0.09555 0.75019 0.18048 0.05000
H 	H 	0.15770 0.61290 0.21034 0.04700
H 	H 	0.23455 0.88090 0.22393 0.04600
H 	H 	0.09020 0.79146 0.23048 0.08300
C 	C 	0.26759 0.15117 0.56614 0.01100
C 	C 	0.25135 0.09228 0.59382 -0.15300
H 	H 	0.27483 0.11924 0.51499 0.05600
H 	H 	0.23694 0.16690 0.55619 0.05200
H 	H 	0.28469 0.07935 0.60430 0.07700
H 	H 	0.02114 0.74517 0.10698 0.03500
C 	C 	0.27059 0.12310 0.09620 -0.17300
H 	H 	0.25441 0.12522 0.03562 0.04900
C 	C 	0.00647 0.97493 0.94956 0.12600
H 	H 	0.25726 0.38237 0.23623 0.05000
C 	C 	0.27713 0.65387 0.21195 0.14000
H 	H 	0.27817 0.52128 0.67695 0.04700
C 	C 	0.29166 0.14390 0.06210 0.02000
C 	C 	0.29780 0.80156 0.75089 -0.04200
H 	H 	0.28835 0.49915 0.20641 0.04700
H 	H 	0.30015 0.15347 0.11701 0.08700
H 	H 	0.30250 0.72280 0.23739 0.06200
N 	N 	0.31256 0.60847 0.18961 -0.14600
H 	H 	0.31506 0.89052 0.73927 0.04900
C 	C 	0.32003 0.16378 0.52303 -0.03100
N 	N 	0.32233 0.59937 0.71587 -0.14600
H 	H 	0.31898 0.70972 0.77568 0.04900
C 	C 	0.32287 0.18918 0.54720 0.01600
H 	H 	0.33421 0.12545 0.02473 0.05700
N 	N 	0.33441 0.67637 0.72983 -0.14400
N 	N 	0.33545 0.69385 0.20088 -0.14300
C 	C 	0.00136 0.97462 0.91160 0.06900
C 	C 	0.72679 0.28397 0.04827 0.13800
N 	N 	0.77349 0.34597 0.05147 -0.14500
C 	C 	0.75823 0.37453 0.05908 0.13900
N 	N 	0.69682 0.34068 0.06416 -0.14700
C 	C 	0.65030 0.27895 0.06110 0.14000
N 	N 	0.66555 0.25053 0.05350 -0.14700
C 	C 	0.66500 0.27778 0.51481 0.13600
N 	N 	0.71325 0.33899 0.51951 -0.14500
C 	C 	0.69732 0.37177 0.52146 0.13800
N 	N 	0.63356 0.34293 0.51954 -0.14600
C 	C 	0.58536 0.28194 0.51513 0.13800
N 	N 	0.60113 0.24940 0.51272 -0.14600
C 	C 	0.35329 0.67128 0.18976 0.14300
C 	C 	0.36139 0.65770 0.72353 0.14000
Co	Co	0.94487 0.93478 0.16476 1.19800
Co	Co	0.91232 0.03326 0.14434 1.16500
C 	C 	0.98643 0.79374 0.12595 0.34800
O 	O 	0.85871 0.02747 0.08560 -0.40700
O 	O 	0.95270 0.00310 0.13476 -0.77900
C 	C 	0.88900 0.06976 0.05569 0.31800
O 	O 	0.95957 0.86702 0.18450 -0.45000
C 	C 	0.80854 0.89164 0.15299 0.32800
O 	O 	0.98810 0.96213 0.11609 -0.55700
O 	O 	0.93781 0.07550 0.05306 -0.38100
O 	O 	0.83924 0.93988 0.16774 -0.37800
O 	O 	0.84236 0.87777 0.15108 -0.38200
O 	O 	0.98411 0.12934 0.12294 -0.41000
C 	C 	0.97336 0.98945 0.22886 0.36200
O 	O 	0.97371 0.03893 0.20193 -0.40800
O 	O 	0.98332 0.95813 0.22035 -0.36400
O 	O 	0.96101 0.81151 0.13339 -0.39300
Co	Co	0.94353 0.92645 0.67199 1.19200
Co	Co	0.99839 0.05105 0.61238 1.17500
Co	Co	0.99335 0.88398 0.64027 1.19100
Co	Co	0.93311 0.02663 0.67547 1.15400
C 	C 	0.93947 0.79335 0.59120 0.33500
O 	O 	0.93258 0.09617 0.62330 -0.41700
O 	O 	0.95624 0.99779 0.64953 -0.73800
C 	C 	0.90717 0.08692 0.58685 0.32100
O 	O 	0.94519 0.85455 0.67981 -0.45100
C 	C 	0.81319 0.89420 0.66931 0.31900
O 	O 	0.97365 0.95809 0.61561 -0.56000
O 	O 	0.92944 0.07130 0.57451 -0.39300
O 	O 	0.83642 0.95535 0.65465 -0.38200
O 	O 	0.84408 0.87319 0.67168 -0.37200
C 	C 	0.98291 0.95586 0.74879 0.34500
O 	O 	0.93448 0.96206 0.73111 -0.38400
O 	O 	0.98125 0.84196 0.56760 -0.38000
O 	O 	0.93126 0.80225 0.61799 -0.38000
C 	C 	0.98280 0.90089 0.85824 0.06300
C 	C 	0.97111 0.89663 0.81988 0.12300
Br	Br	0.92992 0.82577 0.89584 -0.16700
Br	Br	0.93859 0.98546 0.86435 -0.16000
Br	Br	0.89935 0.81691 0.80367 -0.19100
Br	Br	0.94220 0.97379 0.95557 -0.17300
C 	C 	0.97774 0.97934 0.27167 -0.11300
C 	C 	0.93427 0.97966 0.27957 0.12100
C 	C 	0.94743 0.98636 0.31731 0.09400
C 	C 	0.99752 0.98262 0.34954 0.01000
C 	C 	0.96676 0.93459 0.45087 0.12200
C 	C 	0.96267 0.93026 0.41483 0.06400
Br	Br	0.85527 0.96868 0.23944 -0.20200
Br	Br	0.89698 0.84952 0.39957 -0.16600
Br	Br	0.89801 0.00275 0.32450 -0.21100
Br	Br	0.89563 0.86684 0.47837 -0.18500
C 	C 	0.52719 0.73089 0.70978 0.02500
C 	C 	0.53676 0.72854 0.67863 -0.04200
C 	C 	0.59933 0.77157 0.67024 -0.03200
C 	C 	0.65336 0.81645 0.69362 0.01200
C 	C 	0.64381 0.81870 0.72485 -0.03100
C 	C 	0.58114 0.77575 0.73315 -0.04000
C 	C 	0.71903 0.86422 0.68380 0.01600
C 	C 	0.74628 0.84670 0.67706 -0.13700
C 	C 	0.46124 0.68387 0.71904 -0.02500
C 	C 	0.43171 0.70294 0.72159 -0.07500
H 	H 	0.49548 0.69381 0.66061 0.04700
H 	H 	0.60562 0.77054 0.64531 0.04700
H 	H 	0.68505 0.85351 0.74282 0.05400
H 	H 	0.57463 0.77704 0.75787 0.05200
H 	H 	0.74713 0.91356 0.68459 0.04100
H 	H 	0.72044 0.79652 0.67940 0.08800
H 	H 	0.43422 0.63394 0.72006 0.04900
H 	H 	0.45884 0.75295 0.72047 0.06100
H 	H 	0.34990 0.82357 0.75661 0.04900
C 	C 	0.63444 0.81650 0.15051 0.01400
C 	C 	0.58078 0.76710 0.13046 -0.03400
C 	C 	0.51812 0.72683 0.13838 -0.04100
C 	C 	0.50862 0.73609 0.16609 0.02400
C 	C 	0.56293 0.78443 0.18697 -0.03800
C 	C 	0.62524 0.82493 0.17876 -0.03200
C 	C 	0.44259 0.69238 0.17497 -0.02300
C 	C 	0.41747 0.71501 0.17861 -0.07500
C 	C 	0.69917 0.86274 0.13995 0.01700
C 	C 	0.73628 0.84425 0.14829 -0.13900
H 	H 	0.58736 0.76050 0.10839 0.04700
H 	H 	0.47686 0.68892 0.12268 0.04600
H 	H 	0.55695 0.79038 0.20969 0.05400
H 	H 	0.66653 0.86287 0.19446 0.06300
H 	H 	0.41369 0.64149 0.17751 0.04700
H 	H 	0.44541 0.76628 0.17431 0.06400
H 	H 	0.72120 0.91362 0.13153 0.04500
H 	H 	0.71418 0.79367 0.15515 0.08600
C 	C 	0.79448 0.13710 0.54766 0.00300
C 	C 	0.73080 0.10902 0.54906 -0.03500
C 	C 	0.71212 0.14745 0.54030 -0.04600
C 	C 	0.75639 0.21472 0.52885 0.02300
C 	C 	0.81828 0.24263 0.52457 -0.04600
C 	C 	0.83732 0.20414 0.53395 -0.03200
C 	C 	0.74249 0.25627 0.52708 -0.02800
C 	C 	0.68112 0.24201 0.51141 -0.07400
C 	C 	0.82084 0.09840 0.56985 0.01300
C 	C 	0.86393 0.10733 0.55737 -0.15100
H 	H 	0.69731 0.05747 0.55962 0.03500
H 	H 	0.66474 0.12500 0.54461 0.04200
H 	H 	0.85285 0.29435 0.51571 0.04500
H 	H 	0.88687 0.22677 0.53301 0.04400
H 	H 	0.78297 0.29863 0.53909 0.04700
H 	H 	0.64131 0.20119 0.49787 0.05600
H 	H 	0.80854 0.06514 0.59874 0.02500
H 	H 	0.87120 0.13440 0.52681 0.08300
C 	C 	0.78019 0.53684 0.53084 0.02500
C 	C 	0.84826 0.57810 0.53216 -0.04000
C 	C 	0.88898 0.63640 0.54263 -0.03100
C 	C 	0.86204 0.65456 0.55129 0.01200
C 	C 	0.79392 0.61335 0.54983 -0.02900
C 	C 	0.75344 0.55465 0.53999 -0.04200
C 	C 	0.90403 0.71992 0.55699 0.02000
C 	C 	0.89735 0.73184 0.58479 -0.15600
C 	C 	0.73501 0.47834 0.51566 -0.02500
C 	C 	0.74959 0.43692 0.52846 -0.07500
H 	H 	0.86927 0.56608 0.52386 0.04800
H 	H 	0.94124 0.66825 0.54300 0.04600
H 	H 	0.77184 0.62765 0.55489 0.05000
H 	H 	0.70083 0.52365 0.53847 0.04700
H 	H 	0.94326 0.75860 0.54074 0.05100
H 	H 	0.86088 0.69237 0.60288 0.08900
H 	H 	0.68604 0.46557 0.49701 0.04800
H 	H 	0.79885 0.44968 0.54615 0.05700
C 	C 	0.38105 0.24755 0.55663 -0.03500
C 	C 	0.43729 0.27846 0.54401 -0.04100
C 	C 	0.43576 0.25105 0.52198 0.02300
C 	C 	0.37614 0.19472 0.51031 -0.04000
C 	C 	0.49660 0.28257 0.51063 -0.02500
C 	C 	0.51742 0.24892 0.51709 -0.07500
H 	H 	0.38345 0.26783 0.57490 0.04600
H 	H 	0.48257 0.32281 0.55227 0.04500
H 	H 	0.37343 0.17462 0.49176 0.05000
H 	H 	0.52826 0.33466 0.50102 0.04800
H 	H 	0.48549 0.19680 0.52607 0.05600
C 	C 	0.80667 0.24874 0.01787 0.02200
C 	C 	0.75621 0.20263 0.99492 -0.04400
C 	C 	0.76378 0.16049 0.99493 -0.03400
C 	C 	0.82213 0.16458 0.01741 0.00300
C 	C 	0.87496 0.21461 0.03730 -0.03500
C 	C 	0.86728 0.25671 0.03731 -0.04500
C 	C 	0.82198 0.10930 0.02729 0.00900
C 	C 	0.87540 0.11775 0.02836 -0.15200
C 	C 	0.79363 0.28376 0.02509 -0.02800
C 	C 	0.74287 0.25117 0.04151 -0.07500
H 	H 	0.70993 0.19744 0.97871 0.04600
H 	H 	0.72298 0.12257 0.97917 0.03900
H 	H 	0.92031 0.21835 0.05488 0.04400
H 	H 	0.90702 0.29301 0.05441 0.04400
H 	H 	0.78014 0.06140 0.03769 0.03200
H 	H 	0.91362 0.16386 0.01354 0.08400
H 	H 	0.82730 0.33581 0.01880 0.04800
H 	H 	0.71069 0.19900 0.04855 0.05700
C 	C 	0.92497 0.65184 0.09725 0.00600
C 	C 	0.87559 0.59707 0.11835 -0.03100
C 	C 	0.83368 0.53853 0.10808 -0.04400
C 	C 	0.84171 0.53369 0.07738 0.02500
C 	C 	0.89259 0.58780 0.05727 -0.04100
C 	C 	0.93430 0.64658 0.06734 -0.03000
C 	C 	0.79191 0.47400 0.06337 -0.02500
C 	C 	0.80924 0.44092 0.06413 -0.07500
C 	C 	0.96926 0.71415 0.10763 0.02300
C 	C 	0.94436 0.73560 0.11512 -0.17000
H 	H 	0.86969 0.59981 0.14269 0.04400
H 	H 	0.79455 0.49694 0.12378 0.04600
H 	H 	0.89880 0.58471 0.03324 0.05300
H 	H 	0.97309 0.68827 0.05143 0.05300
H 	H 	0.73983 0.45359 0.05633 0.04800
H 	H 	0.86128 0.46183 0.07035 0.05900
H 	H 	0.89132 0.70723 0.11170 0.09400
C 	C 	0.36135 0.17553 0.06456 0.01100
C 	C 	0.41423 0.22230 0.08684 -0.03300
C 	C 	0.47970 0.25249 0.08785 -0.04400
C 	C 	0.49285 0.23676 0.06630 0.02300
C 	C 	0.43984 0.19142 0.04308 -0.04000
C 	C 	0.37463 0.16061 0.04258 -0.03400
C 	C 	0.56200 0.27236 0.06513 -0.02500
C 	C 	0.58323 0.24256 0.06598 -0.07600
H 	H 	0.40483 0.23635 0.10259 0.04200
H 	H 	0.52018 0.28863 0.10499 0.04400
H 	H 	0.44908 0.18101 0.02474 0.04900
H 	H 	0.59596 0.32334 0.06397 0.04700
H 	H 	0.55004 0.19102 0.06909 0.05800
