data_crystal

_cell_length_a 28.34557
_cell_length_b 27.97054
_cell_length_c 15.51636
_cell_angle_alpha 90.32391
_cell_angle_beta  90.32403
_cell_angle_gamma 120.00692

_symmetry_space_group_name_	'P 1'
_symmetry_space_group_name_H-M	'P 1'

loop_
_symmetry_equiv_pos_as_xyz
  x,y,z

loop_
_atom_site_label
_atom_site_type_symbol
_atom_site_fract_x
_atom_site_fract_y
_atom_site_fract_z
_atom_site_charge
C 	C 	0.48459 0.80486 0.26209 0.29700
C 	C 	0.64467 0.75473 0.09996 0.32300
C 	C 	0.49215 0.67441 0.24978 0.31800
C 	C 	0.64156 0.88841 0.09671 0.29800
C 	C 	0.65044 0.75426 0.37843 0.32200
C 	C 	0.65425 0.89342 0.38645 0.30100
Ni	Ni	0.55275 0.77452 0.14288 1.12600
Ni	Ni	0.66967 0.83454 0.24132 1.12800
Ni	Ni	0.56127 0.77750 0.35157 1.12700
O 	O 	0.48459 0.77424 0.19593 -0.34200
O 	O 	0.51621 0.81451 0.33148 -0.35000
O 	O 	0.68273 0.80474 0.35124 -0.35400
O 	O 	0.60987 0.76799 0.06792 -0.33900
O 	O 	0.66112 0.76647 0.18040 -0.36400
O 	O 	0.62011 0.84375 0.41852 -0.35500
O 	O 	0.52529 0.69472 0.18453 -0.34300
O 	O 	0.49316 0.70706 0.31196 -0.35600
O 	O 	0.67885 0.89931 0.31128 -0.36700
O 	O 	0.58795 0.85428 0.09511 -0.34400
O 	O 	0.67558 0.87226 0.12595 -0.36100
O 	O 	0.59716 0.73194 0.37217 -0.37400
O 	O 	0.59348 0.80643 0.24351 -0.72100
H 	H 	0.59290 0.84134 0.24460 0.16000
C 	C 	0.07822 0.76698 0.39115 0.30200
C 	C 	0.28808 0.81427 0.24922 0.32200
C 	C 	0.21596 0.90040 0.38715 0.32100
C 	C 	0.15672 0.67884 0.23967 0.30200
C 	C 	0.22020 0.89731 0.10897 0.32200
C 	C 	0.07632 0.76547 0.10408 0.29900
Ni	Ni	0.18897 0.78321 0.35249 1.12000
Ni	Ni	0.18808 0.78199 0.14352 1.12900
Ni	Ni	0.13727 0.84494 0.24418 1.12600
O 	O 	0.10970 0.74445 0.39771 -0.35100
O 	O 	0.09699 0.81727 0.35849 -0.34900
O 	O 	0.23771 0.86205 0.11696 -0.36100
O 	O 	0.26882 0.83029 0.31262 -0.35400
O 	O 	0.25515 0.78067 0.18890 -0.34800
O 	O 	0.07219 0.79103 0.17386 -0.35500
O 	O 	0.19859 0.85172 0.42191 -0.34000
O 	O 	0.20448 0.90447 0.30632 -0.36100
O 	O 	0.12477 0.77723 0.07292 -0.36200
O 	O 	0.18497 0.70990 0.30749 -0.35300
O 	O 	0.14676 0.70035 0.17035 -0.34900
O 	O 	0.17086 0.88428 0.13332 -0.36900
O 	O 	0.16060 0.79229 0.24874 -0.72300
H 	H 	0.12484 0.75821 0.24844 0.16500
C 	C 	0.15771 0.47540 0.24975 0.30000
C 	C 	0.21686 0.32106 0.40553 0.32200
C 	C 	0.29063 0.47232 0.25623 0.32200
C 	C 	0.07628 0.31100 0.40295 0.30200
C 	C 	0.21783 0.31305 0.13116 0.32300
C 	C 	0.08012 0.31045 0.11329 0.29800
Ni	Ni	0.19018 0.40918 0.36316 1.12100
Ni	Ni	0.13620 0.29099 0.26353 1.12700
Ni	Ni	0.19079 0.40143 0.15449 1.12700
O 	O 	0.15141 0.45261 0.32704 -0.33900
O 	O 	0.19002 0.47154 0.19122 -0.36400
O 	O 	0.20183 0.29407 0.20926 -0.36800
O 	O 	0.23753 0.37439 0.39611 -0.34600
O 	O 	0.16676 0.28646 0.38016 -0.35700
O 	O 	0.11439 0.36450 0.10599 -0.35400
O 	O 	0.26002 0.47669 0.31540 -0.35000
O 	O 	0.26899 0.43395 0.19601 -0.35900
O 	O 	0.09598 0.27732 0.14875 -0.36600
O 	O 	0.12449 0.34938 0.43463 -0.34000
O 	O 	0.07176 0.28306 0.33069 -0.35800
O 	O 	0.19980 0.34279 0.09310 -0.36200
O 	O 	0.16175 0.36779 0.26171 -0.72300
H 	H 	0.12667 0.36707 0.25897 0.16500
C 	C 	0.88688 0.66974 0.60303 0.30600
C 	C 	0.66852 0.51297 0.74898 0.31800
C 	C 	0.75081 0.66638 0.60241 0.32000
C 	C 	0.79424 0.50125 0.75804 0.30100
C 	C 	0.74921 0.67400 0.87583 0.32700
C 	C 	0.88117 0.66485 0.89595 0.29900
Ni	Ni	0.77071 0.57363 0.64362 1.12000
Ni	Ni	0.76802 0.58053 0.85222 1.12900
Ni	Ni	0.83019 0.69121 0.74547 1.12900
O 	O 	0.83833 0.63129 0.57208 -0.34100
O 	O 	0.89243 0.69374 0.67948 -0.35700
O 	O 	0.76387 0.64165 0.91382 -0.36700
O 	O 	0.69817 0.50794 0.68863 -0.35600
O 	O 	0.69111 0.55259 0.80726 -0.35800
O 	O 	0.86969 0.70136 0.86062 -0.34500
O 	O 	0.72724 0.61280 0.61225 -0.35700
O 	O 	0.80140 0.69873 0.62861 -0.36700
O 	O 	0.84341 0.61176 0.90278 -0.36000
O 	O 	0.80476 0.52602 0.68180 -0.33700
O 	O 	0.76355 0.50822 0.81581 -0.35900
O 	O 	0.76710 0.69357 0.79885 -0.36400
O 	O 	0.79975 0.61367 0.74605 -0.72400
H 	H 	0.83341 0.61166 0.74973 0.16900
C 	C 	0.80036 0.30008 0.76575 0.30300
C 	C 	0.74642 0.08226 0.61328 0.31900
C 	C 	0.67259 0.16313 0.75754 0.32200
C 	C 	0.88183 0.21811 0.60575 0.29700
C 	C 	0.74726 0.08390 0.89185 0.32000
C 	C 	0.88763 0.21447 0.89706 0.29900
Ni	Ni	0.77054 0.19757 0.65049 1.12200
Ni	Ni	0.82701 0.13866 0.75292 1.12600
Ni	Ni	0.77468 0.19774 0.85923 1.13000
O 	O 	0.77187 0.26869 0.69852 -0.35100
O 	O 	0.81282 0.27946 0.83351 -0.35900
O 	O 	0.79635 0.09822 0.86434 -0.35900
O 	O 	0.76282 0.13080 0.57914 -0.34100
O 	O 	0.75917 0.07837 0.69338 -0.37400
O 	O 	0.83961 0.20448 0.92816 -0.34900
O 	O 	0.69196 0.14763 0.69370 -0.35700
O 	O 	0.70553 0.19643 0.81806 -0.34300
O 	O 	0.89183 0.19460 0.82110 -0.36300
O 	O 	0.84902 0.23922 0.60261 -0.34500
O 	O 	0.86502 0.16781 0.63701 -0.35700
O 	O 	0.72745 0.11711 0.88324 -0.35900
O 	O 	0.80170 0.18973 0.75210 -0.72300
H 	H 	0.83678 0.22460 0.75191 0.16200
C 	C 	0.32374 0.09231 0.90382 0.30100
C 	C 	0.46870 0.30957 0.75618 0.32100
C 	C 	0.31622 0.22401 0.90752 0.32200
C 	C 	0.47981 0.17945 0.74318 0.30000
C 	C 	0.31399 0.22925 0.62600 0.32300
C 	C 	0.31047 0.09045 0.61361 0.30200
Ni	Ni	0.41040 0.20808 0.86176 1.11800
Ni	Ni	0.40314 0.20628 0.65310 1.12800
Ni	Ni	0.29397 0.14717 0.76178 1.12900
O 	O 	0.37693 0.12812 0.90751 -0.35500
O 	O 	0.28841 0.10698 0.87490 -0.34300
O 	O 	0.36703 0.25140 0.63379 -0.36300
O 	O 	0.43690 0.28834 0.82290 -0.36500
O 	O 	0.46997 0.27709 0.69559 -0.34800
O 	O 	0.28540 0.08365 0.68861 -0.34900
O 	O 	0.35187 0.21143 0.93789 -0.35400
O 	O 	0.29912 0.21263 0.82725 -0.35700
O 	O 	0.34527 0.14055 0.58342 -0.35500
O 	O 	0.47953 0.21032 0.80871 -0.35300
O 	O 	0.44879 0.16999 0.67316 -0.34900
O 	O 	0.28081 0.17904 0.65380 -0.35500
O 	O 	0.37029 0.17653 0.76036 -0.72300
H 	H 	0.37122 0.14180 0.75844 0.16400
C 	C 	0.60384 0.17286 0.67199 -0.01400
C 	C 	0.61788 0.15631 0.74850 -0.06500
C 	C 	0.58250 0.14046 0.81936 0.11400
C 	C 	0.53557 0.14518 0.81504 -0.02200
C 	C 	0.52371 0.16576 0.74072 -0.06000
C 	C 	0.55775 0.17887 0.66825 0.10900
N 	N 	0.54795 0.20211 0.59309 -0.02100
H 	H 	0.63081 0.18481 0.61713 0.07400
H 	H 	0.50891 0.13389 0.87022 0.07500
N 	N 	0.59421 0.11977 0.89592 -0.02200
O 	O 	0.55788 0.25283 0.59486 -0.07800
O 	O 	0.53443 0.17456 0.52073 -0.07500
O 	O 	0.59459 0.14129 0.97063 -0.07200
O 	O 	0.60155 0.07748 0.89142 -0.07300
C 	C 	0.57720 0.45095 0.68492 -0.01800
C 	C 	0.61128 0.46905 0.75807 -0.06700
C 	C 	0.59337 0.43878 0.83503 0.10400
C 	C 	0.54429 0.38836 0.83567 -0.01700
C 	C 	0.51268 0.36779 0.76018 -0.06900
C 	C 	0.52781 0.40071 0.68578 0.11000
N 	N 	0.49314 0.38325 0.61105 -0.02200
H 	H 	0.58986 0.47507 0.62644 0.08000
H 	H 	0.53225 0.36387 0.89377 0.07100
N 	N 	0.62649 0.45742 0.91126 -0.02500
O 	O 	0.44354 0.37415 0.61638 -0.07000
O 	O 	0.51232 0.38016 0.53655 -0.07800
O 	O 	0.62608 0.49520 0.95998 -0.08500
O 	O 	0.65345 0.43342 0.93571 -0.09400
C 	C 	0.75605 0.40411 0.80239 -0.02500
C 	C 	0.79952 0.45176 0.76700 -0.05900
C 	C 	0.84673 0.45103 0.74029 0.10400
C 	C 	0.84776 0.40133 0.74319 -0.02100
C 	C 	0.80334 0.35352 0.77624 -0.06800
C 	C 	0.75837 0.35573 0.80912 0.10900
N 	N 	0.71446 0.30840 0.84858 -0.02000
H 	H 	0.71993 0.40447 0.82406 0.08800
H 	H 	0.88301 0.39993 0.71973 0.07300
N 	N 	0.89412 0.50068 0.71318 -0.01900
O 	O 	0.72199 0.29175 0.92281 -0.08100
O 	O 	0.66555 0.28655 0.81600 -0.08100
O 	O 	0.91357 0.54518 0.76060 -0.07800
O 	O 	0.92143 0.49955 0.64685 -0.07000
C 	C 	0.95030 0.28660 0.00186 -0.02100
C 	C 	0.93512 0.23748 0.95611 -0.06100
C 	C 	0.96590 0.21084 0.96619 0.10200
C 	C 	0.01319 0.23525 0.01716 -0.01800
C 	C 	0.02914 0.28491 0.06173 -0.05400
C 	C 	0.99667 0.31004 0.05567 0.09100
N 	N 	0.00971 0.35833 0.10579 -0.01500
H 	H 	0.92603 0.30651 0.99599 0.07500
H 	H 	0.03745 0.21528 0.02234 0.08200
N 	N 	0.94830 0.15809 0.92687 -0.02200
O 	O 	0.01597 0.40253 0.06811 -0.07800
O 	O 	0.01185 0.35695 0.18946 -0.08600
O 	O 	0.97976 0.15195 0.87267 -0.08500
O 	O 	0.90298 0.11530 0.95065 -0.07400
C 	C 	0.97954 0.28452 0.42135 -0.03200
C 	C 	0.02795 0.29128 0.45742 -0.05600
C 	C 	0.02846 0.27478 0.54306 0.11400
C 	C 	0.98074 0.25227 0.59167 -0.03400
C 	C 	0.93205 0.24439 0.55492 -0.06400
C 	C 	0.93139 0.26016 0.46883 0.11100
N 	N 	0.88140 0.24894 0.42806 -0.02100
H 	H 	0.97886 0.29646 0.35519 0.08400
H 	H 	0.98127 0.23970 0.65749 0.07500
N 	N 	0.07658 0.27816 0.57934 -0.02100
O 	O 	0.87662 0.28918 0.39591 -0.07400
O 	O 	0.84267 0.19817 0.41593 -0.07200
O 	O 	0.10009 0.30973 0.64614 -0.07800
O 	O 	0.09386 0.24591 0.55067 -0.07500
C 	C 	0.30007 0.25764 0.48129 -0.01200
C 	C 	0.29216 0.25616 0.57058 -0.06400
C 	C 	0.26172 0.27861 0.60590 0.11100
C 	C 	0.23786 0.30052 0.55135 -0.01500
C 	C 	0.24498 0.30115 0.46193 -0.06300
C 	C 	0.27703 0.28046 0.42684 0.10900
N 	N 	0.28643 0.28273 0.33601 -0.02300
H 	H 	0.32396 0.24088 0.45407 0.08000
H 	H 	0.21392 0.31724 0.57859 0.08500
N 	N 	0.25635 0.28075 0.69724 -0.02200
O 	O 	0.31199 0.33021 0.29777 -0.06700
O 	O 	0.27377 0.23774 0.29312 -0.07700
O 	O 	0.29904 0.31148 0.74487 -0.07500
O 	O 	0.20830 0.25596 0.73178 -0.07200
C 	C 	0.23108 0.23548 0.08379 -0.01500
C 	C 	0.24696 0.29167 0.07967 -0.06500
C 	C 	0.28738 0.32599 0.02078 0.11100
C 	C 	0.30904 0.30323 0.96353 -0.01600
C 	C 	0.29184 0.24682 0.96598 -0.06700
C 	C 	0.25329 0.21296 0.02725 0.10800
N 	N 	0.23570 0.15537 0.03095 -0.02200
H 	H 	0.20017 0.20884 0.12902 0.07800
H 	H 	0.34016 0.32974 0.91847 0.08300
N 	N 	0.30822 0.38427 0.02154 -0.02300
O 	O 	0.24815 0.13570 0.09754 -0.07300
O 	O 	0.20396 0.12203 0.97081 -0.08200
O 	O 	0.34090 0.41465 0.08327 -0.07300
O 	O 	0.29926 0.40756 0.95607 -0.07800
C 	C 	0.24779 0.94222 0.96657 -0.01200
C 	C 	0.25149 0.94673 0.05669 -0.06800
C 	C 	0.28275 0.99892 0.09622 0.10100
C 	C 	0.30764 0.04635 0.04538 -0.01200
C 	C 	0.30258 0.04200 0.95532 -0.05400
C 	C 	0.27371 0.98958 0.91563 0.09500
N 	N 	0.27203 0.98422 0.82371 -0.02400
H 	H 	0.22468 0.90194 0.93601 0.07400
H 	H 	0.33044 0.08664 0.07601 0.08200
N 	N 	0.28968 0.00387 0.18790 -0.01800
O 	O 	0.31710 0.00305 0.78091 -0.08800
O 	O 	0.22545 0.95692 0.78350 -0.07700
O 	O 	0.31402 0.98113 0.22730 -0.07200
O 	O 	0.27620 0.03524 0.23087 -0.07600
C 	C 	0.22794 0.99124 0.43379 -0.02200
C 	C 	0.24300 0.95067 0.44196 -0.05700
C 	C 	0.28247 0.95762 0.50438 0.10600
C 	C 	0.30456 0.00367 0.55996 -0.01100
C 	C 	0.28835 0.04332 0.55307 -0.06000
C 	C 	0.25036 0.03739 0.48893 0.11800
N 	N 	0.23390 0.07785 0.48033 -0.02200
H 	H 	0.19782 0.98634 0.38588 0.08000
H 	H 	0.33509 0.00905 0.60737 0.08200
N 	N 	0.30177 0.91924 0.50930 -0.02200
O 	O 	0.24725 0.10860 0.41215 -0.07200
O 	O 	0.20228 0.08117 0.53754 -0.07200
O 	O 	0.33057 0.91605 0.44694 -0.07600
O 	O 	0.29522 0.89158 0.57961 -0.07600
C 	C 	0.98938 0.68661 0.43205 -0.02800
C 	C 	0.02787 0.74288 0.44172 -0.05500
C 	C 	0.01925 0.77512 0.50288 0.11600
C 	C 	0.97194 0.75116 0.55213 -0.02800
C 	C 	0.93405 0.69448 0.54458 -0.05900
C 	C 	0.94270 0.66211 0.48341 0.11000
N 	N 	0.90499 0.60424 0.47452 -0.02200
H 	H 	0.99622 0.66156 0.38584 0.08300
H 	H 	0.96532 0.77652 0.59805 0.08200
N 	N 	0.05974 0.83161 0.51819 -0.02000
O 	O 	0.88142 0.58396 0.40051 -0.07500
O 	O 	0.89815 0.57122 0.53787 -0.07000
O 	O 	0.04827 0.87051 0.50432 -0.07700
O 	O 	0.10629 0.84371 0.55310 -0.06800
C 	C 	0.03027 0.74415 0.96026 -0.01300
C 	C 	0.02738 0.73397 0.04914 -0.05600
C 	C 	0.97671 0.69693 0.08610 0.09700
C 	C 	0.92918 0.67382 0.03515 -0.01800
C 	C 	0.93189 0.68580 0.94700 -0.05700
C 	C 	0.98295 0.71960 0.90894 0.09600
N 	N 	0.98720 0.72716 0.81771 -0.02600
H 	H 	0.06918 0.77163 0.93101 0.08000
H 	H 	0.89013 0.64671 0.06432 0.08100
N 	N 	0.97354 0.68182 0.17484 -0.02300
O 	O 	0.00376 0.77587 0.78588 -0.07600
O 	O 	0.98035 0.68682 0.76731 -0.07800
O 	O 	0.93927 0.68580 0.22559 -0.08400
O 	O 	0.00250 0.66092 0.20355 -0.09000
C 	C 	0.16102 0.55231 0.16391 -0.02300
C 	C 	0.14294 0.51922 0.23781 -0.05600
C 	C 	0.11857 0.53386 0.30462 0.10600
C 	C 	0.12194 0.58573 0.30363 -0.02200
C 	C 	0.14625 0.62159 0.23424 -0.06300
C 	C 	0.16404 0.60377 0.16263 0.10900
N 	N 	0.18851 0.63930 0.09080 -0.02300
H 	H 	0.17597 0.53971 0.10920 0.08100
H 	H 	0.10537 0.59793 0.35664 0.07600
N 	N 	0.08769 0.49520 0.37031 -0.01800
O 	O 	0.23962 0.67737 0.09436 -0.07900
O 	O 	0.16121 0.63017 0.01911 -0.07800
O 	O 	0.09776 0.50969 0.45112 -0.07800
O 	O 	0.04676 0.44710 0.34925 -0.06900
C 	C 	0.66279 0.98202 0.43466 -0.03100
C 	C 	0.67674 0.94096 0.44542 -0.06400
C 	C 	0.71170 0.94512 0.51347 0.10700
C 	C 	0.73274 0.99050 0.56974 -0.02600
C 	C 	0.71963 0.03227 0.55839 -0.06600
C 	C 	0.68328 0.02721 0.49158 0.11600
N 	N 	0.66549 0.06669 0.48341 -0.02300
H 	H 	0.63514 0.97834 0.38311 0.07200
H 	H 	0.76064 0.99407 0.62076 0.07100
N 	N 	0.72701 0.90391 0.52427 -0.02100
O 	O 	0.67493 0.09485 0.41289 -0.07500
O 	O 	0.63565 0.07082 0.54307 -0.08000
O 	O 	0.75961 0.90016 0.46950 -0.07700
O 	O 	0.71164 0.87291 0.59223 -0.07800
C 	C 	0.67596 0.98609 0.90950 -0.02500
C 	C 	0.71823 0.03489 0.94562 -0.06200
C 	C 	0.73269 0.03647 0.03298 0.11500
C 	C 	0.70580 0.98872 0.08271 -0.03200
C 	C 	0.66446 0.93937 0.04613 -0.06400
C 	C 	0.64950 0.93809 0.95881 0.10900
N 	N 	0.60940 0.88758 0.91893 -0.02100
H 	H 	0.66469 0.98494 0.84230 0.07800
H 	H 	0.71740 0.98990 0.14975 0.07300
N 	N 	0.77475 0.08651 0.07139 -0.02100
O 	O 	0.56478 0.88344 0.88788 -0.07400
O 	O 	0.61972 0.84770 0.90645 -0.07300
O 	O 	0.76830 0.12924 0.07850 -0.07900
O 	O 	0.81741 0.08787 0.10560 -0.07200
C 	C 	0.66595 0.67124 0.92863 -0.01800
C 	C 	0.72289 0.69780 0.92699 -0.06800
C 	C 	0.75412 0.74272 0.98290 0.10900
C 	C 	0.72806 0.76030 0.04051 -0.01500
C 	C 	0.67105 0.73369 0.04242 -0.06900
C 	C 	0.63981 0.68873 0.98639 0.11400
N 	N 	0.58163 0.65909 0.99094 -0.02300
H 	H 	0.64190 0.63560 0.88741 0.08600
H 	H 	0.75221 0.79522 0.08299 0.07400
N 	N 	0.81238 0.76997 0.98226 -0.02100
O 	O 	0.55258 0.65490 0.92312 -0.06400
O 	O 	0.55780 0.63189 0.06015 -0.06700
O 	O 	0.83884 0.79552 0.91354 -0.08700
O 	O 	0.83906 0.77222 0.05207 -0.07500
C 	C 	0.75240 0.71855 0.47244 -0.02000
C 	C 	0.72482 0.68872 0.54558 -0.07000
C 	C 	0.67094 0.67673 0.56025 0.10700
C 	C 	0.64585 0.69600 0.50300 -0.01900
C 	C 	0.67392 0.72697 0.43070 -0.06600
C 	C 	0.72685 0.73648 0.41393 0.10900
N 	N 	0.75380 0.76211 0.33565 -0.02200
H 	H 	0.79311 0.72617 0.45927 0.07800
H 	H 	0.60519 0.68838 0.51648 0.07700
N 	N 	0.64207 0.64620 0.63443 -0.02100
O 	O 	0.79891 0.80935 0.33832 -0.08100
O 	O 	0.73633 0.73566 0.26272 -0.08200
O 	O 	0.65855 0.66720 0.71112 -0.08000
O 	O 	0.59715 0.59922 0.62504 -0.08000
C 	C 	0.35785 0.80563 0.33399 -0.01500
C 	C 	0.34319 0.82199 0.25789 -0.06700
C 	C 	0.37925 0.84042 0.18787 0.11300
C 	C 	0.42757 0.83828 0.19230 -0.02500
C 	C 	0.44023 0.81783 0.26600 -0.06000
C 	C 	0.40559 0.80256 0.33801 0.10600
N 	N 	0.41676 0.78031 0.41305 -0.02100
H 	H 	0.33050 0.79207 0.38845 0.07300
H 	H 	0.45464 0.85125 0.13750 0.07700
N 	N 	0.36707 0.86158 0.11236 -0.02300
O 	O 	0.43144 0.80873 0.48458 -0.07600
O 	O 	0.40708 0.72968 0.41216 -0.08100
O 	O 	0.36033 0.90419 0.11831 -0.07100
O 	O 	0.36645 0.84066 0.03700 -0.07400
C 	C 	0.43135 0.58487 0.31969 -0.01800
C 	C 	0.44643 0.61718 0.24518 -0.06500
C 	C 	0.41382 0.59670 0.16989 0.11000
C 	C 	0.36517 0.54601 0.17186 -0.01600
C 	C 	0.34769 0.51638 0.24874 -0.06600
C 	C 	0.38232 0.53443 0.32169 0.11000
N 	N 	0.36784 0.50155 0.39781 -0.02300
H 	H 	0.45715 0.59949 0.37676 0.07700
H 	H 	0.33910 0.53165 0.11505 0.07700
N 	N 	0.42794 0.62894 0.09322 -0.02300
O 	O 	0.35927 0.45135 0.39395 -0.06600
O 	O 	0.36697 0.52304 0.47193 -0.07800
O 	O 	0.44013 0.61127 0.02386 -0.06300
O 	O 	0.42103 0.67147 0.08926 -0.09200
