data_crystal

_cell_length_a 25.97766
_cell_length_b 26.57904
_cell_length_c 36.66127
_cell_angle_alpha 95.55030
_cell_angle_beta  95.54597
_cell_angle_gamma 125.51194

_symmetry_space_group_name_	'P 1'
_symmetry_space_group_name_H-M	'P 1'

loop_
_symmetry_equiv_pos_as_xyz
  x,y,z

loop_
_atom_site_label
_atom_site_type_symbol
_atom_site_fract_x
_atom_site_fract_y
_atom_site_fract_z
_atom_site_charge
C 	C 	0.96417 0.02577 0.99473 0.02800
C 	C 	0.03020 0.05740 0.99482 -0.07300
C 	C 	0.05620 0.02367 0.99268 0.02600
C 	C 	0.01624 0.95837 0.99069 -0.07500
C 	C 	0.95049 0.92674 0.99089 0.02700
C 	C 	0.92443 0.96037 0.99288 -0.07300
H 	H 	0.06112 0.10797 0.99644 0.04900
H 	H 	0.03627 0.93221 0.98893 0.04900
H 	H 	0.87331 0.93567 0.99249 0.04900
C 	C 	0.92814 0.98933 0.45015 0.01700
C 	C 	0.89585 0.92496 0.45099 -0.06700
C 	C 	0.93038 0.89941 0.45309 0.01900
C 	C 	0.99710 0.93835 0.45453 -0.06300
C 	C 	0.02939 0.00245 0.45369 0.01500
C 	C 	0.99491 0.02784 0.45139 -0.06100
H 	H 	0.84428 0.89500 0.44999 0.04700
H 	H 	0.02389 0.91879 0.45639 0.04600
H 	H 	0.02008 0.07762 0.45115 0.04500
Cu	Cu	0.64478 0.24520 0.00174 0.92800
Cu	Cu	0.69269 0.25318 0.92188 0.86700
Cu	Cu	0.66871 0.34219 0.95414 0.89700
Cu	Cu	0.64177 0.35847 0.02961 0.89400
C 	C 	0.66574 0.28963 0.08019 0.30700
O 	O 	0.55108 0.20561 0.00368 -0.36400
C 	C 	0.65215 0.30562 0.87265 0.30300
O 	O 	0.69296 0.34267 0.00534 -0.64200
O 	O 	0.63110 0.25102 0.94882 -0.64100
O 	O 	0.68722 0.20283 0.99692 -0.37200
O 	O 	0.75518 0.27153 0.96280 -0.44200
O 	O 	0.63466 0.31363 0.07175 -0.38800
O 	O 	0.71185 0.43199 0.96158 -0.38600
C 	C 	0.70880 0.46617 0.98876 0.29000
C 	C 	0.52302 0.23052 0.99124 0.28000
O 	O 	0.55841 0.28934 0.98688 -0.39500
O 	O 	0.67484 0.44118 0.01502 -0.39500
O 	O 	0.67101 0.25565 0.05424 -0.36500
C 	C 	0.74104 0.22973 0.98397 0.28500
O 	O 	0.65209 0.34132 0.90041 -0.38300
O 	O 	0.65017 0.25616 0.87762 -0.42300
H 	H 	0.73979 0.37159 0.01551 0.16400
H 	H 	0.58604 0.22259 0.93505 0.17500
Cu	Cu	0.73703 0.33418 0.45499 0.92700
Cu	Cu	0.73265 0.28931 0.53559 0.87000
Cu	Cu	0.63356 0.30191 0.50151 0.89700
Cu	Cu	0.61821 0.33324 0.42693 0.89400
C 	C 	0.69132 0.31367 0.37644 0.30500
O 	O 	0.77574 0.42608 0.45385 -0.36000
C 	C 	0.67595 0.32614 0.58359 0.30700
O 	O 	0.63673 0.28414 0.45026 -0.64100
O 	O 	0.72853 0.34525 0.50772 -0.64100
O 	O 	0.78148 0.29309 0.45956 -0.37100
O 	O 	0.71338 0.22764 0.49500 -0.44100
O 	O 	0.66465 0.34206 0.38478 -0.38800
O 	O 	0.54081 0.25452 0.49208 -0.38200
C 	C 	0.50626 0.25892 0.46541 0.28500
C 	C 	0.74763 0.45134 0.46533 0.27700
O 	O 	0.68773 0.41474 0.46995 -0.39200
O 	O 	0.53370 0.29911 0.44256 -0.39400
O 	O 	0.72819 0.31092 0.40238 -0.36400
C 	C 	0.75549 0.24123 0.47338 0.28300
O 	O 	0.62887 0.30585 0.55514 -0.38900
O 	O 	0.72839 0.33144 0.57891 -0.42300
H 	H 	0.60905 0.23881 0.43891 0.16400
H 	H 	0.75460 0.38938 0.52126 0.17300
C 	C 	0.64865 0.34172 0.69060 -0.00700
C 	C 	0.70026 0.38997 0.71836 -0.03500
C 	C 	0.69701 0.38701 0.75602 -0.03600
C 	C 	0.64214 0.33579 0.76606 -0.00700
C 	C 	0.58862 0.29016 0.73837 -0.03500
C 	C 	0.59186 0.29313 0.70069 -0.03500
C 	C 	0.64453 0.32515 0.80376 0.04300
C 	C 	0.64709 0.31675 0.83541 -0.11100
C 	C 	0.65767 0.33681 0.65263 0.04400
C 	C 	0.66542 0.33287 0.62088 -0.11300
H 	H 	0.74410 0.42804 0.71079 0.03800
H 	H 	0.73836 0.42285 0.77729 0.03700
H 	H 	0.54574 0.25074 0.74591 0.03900
H 	H 	0.55147 0.25597 0.67939 0.03800
C 	C 	0.69985 0.28369 0.26669 -0.00500
C 	C 	0.64538 0.23242 0.24176 -0.03500
C 	C 	0.64254 0.22983 0.20328 -0.03400
C 	C 	0.69417 0.27852 0.18959 -0.00500
C 	C 	0.75048 0.32740 0.21446 -0.03500
C 	C 	0.75333 0.32997 0.25296 -0.03400
C 	C 	0.68580 0.28295 0.15092 0.04400
C 	C 	0.67783 0.28580 0.11846 -0.10500
C 	C 	0.69718 0.29354 0.30556 0.04300
C 	C 	0.69490 0.30174 0.33811 -0.10400
H 	H 	0.60405 0.19616 0.25215 0.03800
H 	H 	0.59905 0.19155 0.18421 0.04000
H 	H 	0.79084 0.36492 0.20408 0.03800
H 	H 	0.79589 0.36948 0.27206 0.04100
C 	C 	0.89709 0.83192 0.45410 0.01400
C 	C 	0.87222 0.80854 0.48569 -0.04900
C 	C 	0.84966 0.74740 0.48950 -0.02900
C 	C 	0.84921 0.70746 0.46076 -0.01500
C 	C 	0.87693 0.73230 0.42960 0.03200
C 	C 	0.89851 0.79344 0.42589 -0.06900
C 	C 	0.88584 0.69715 0.40348 -0.05300
C 	C 	0.86842 0.63804 0.40807 -0.03500
C 	C 	0.83778 0.61101 0.43750 0.00300
C 	C 	0.82523 0.64429 0.46325 0.01300
C 	C 	0.78590 0.61243 0.48915 -0.05700
C 	C 	0.76431 0.55102 0.49129 0.00200
C 	C 	0.77897 0.51913 0.46675 -0.07600
C 	C 	0.81649 0.54958 0.44027 -0.01700
H 	H 	0.87323 0.83885 0.50822 0.04000
H 	H 	0.83699 0.73327 0.51579 0.03400
H 	H 	0.91905 0.81212 0.40182 0.04700
H 	H 	0.90788 0.71638 0.37993 0.04100
H 	H 	0.87732 0.61241 0.38805 0.03700
H 	H 	0.76833 0.63303 0.50593 0.04200
H 	H 	0.73402 0.52731 0.51122 0.03200
H 	H 	0.82631 0.52436 0.42055 0.04600
C 	C 	0.89269 0.01717 0.44938 0.01500
C 	C 	0.89240 0.04717 0.42002 -0.04900
C 	C 	0.86610 0.08053 0.42144 -0.02800
C 	C 	0.84198 0.08653 0.45325 -0.01500
C 	C 	0.83638 0.05076 0.48096 0.03200
C 	C 	0.86301 0.01747 0.47926 -0.06900
C 	C 	0.80367 0.04803 0.50981 -0.05400
C 	C 	0.77726 0.08101 0.51184 -0.03500
C 	C 	0.78640 0.12047 0.48641 -0.00100
C 	C 	0.82090 0.12548 0.45759 0.01400
C 	C 	0.83722 0.17206 0.43570 -0.05800
C 	C 	0.81472 0.20862 0.44030 0.00600
C 	C 	0.77775 0.20125 0.46763 -0.08200
C 	C 	0.76365 0.15700 0.49055 -0.01800
H 	H 	0.91265 0.04467 0.39602 0.04100
H 	H 	0.86205 0.09890 0.39717 0.03500
H 	H 	0.86164 0.99274 0.50146 0.04500
H 	H 	0.79799 0.01959 0.53056 0.03900
H 	H 	0.75112 0.07730 0.53400 0.03200
H 	H 	0.86998 0.18269 0.41664 0.04300
H 	H 	0.82714 0.24351 0.42298 0.04200
H 	H 	0.73648 0.15219 0.51234 0.02800
C 	C 	0.43599 0.22385 0.46405 -0.07300
C 	C 	0.39774 0.22578 0.43522 0.00200
C 	C 	0.33156 0.19293 0.43379 -0.05700
C 	C 	0.30164 0.15457 0.46018 0.01300
C 	C 	0.34083 0.15636 0.49076 0.00200
C 	C 	0.40736 0.18963 0.49203 -0.01700
C 	C 	0.31354 0.12646 0.52028 -0.03500
C 	C 	0.24790 0.09487 0.51985 -0.05300
C 	C 	0.20756 0.08921 0.48886 0.03200
C 	C 	0.23361 0.11668 0.45793 -0.01500
C 	C 	0.19096 0.10241 0.42490 -0.02800
C 	C 	0.12473 0.06710 0.42416 -0.05000
C 	C 	0.09960 0.04308 0.45553 0.01500
C 	C 	0.14095 0.05407 0.48779 -0.07000
H 	H 	0.41941 0.25372 0.41417 0.03400
H 	H 	0.30478 0.20027 0.41338 0.04100
H 	H 	0.43685 0.18957 0.51506 0.04700
H 	H 	0.34354 0.12865 0.54403 0.03600
H 	H 	0.22804 0.07332 0.54336 0.04000
H 	H 	0.20806 0.11505 0.39920 0.03400
H 	H 	0.09263 0.05661 0.39868 0.04000
H 	H 	0.12110 0.03405 0.51172 0.04700
C 	C 	0.73980 0.53321 0.98809 -0.07500
C 	C 	0.74333 0.55362 0.95394 0.00600
C 	C 	0.77296 0.61716 0.95314 -0.05800
C 	C 	0.80256 0.66199 0.98674 0.01500
C 	C 	0.79404 0.64053 0.02110 -0.00000
C 	C 	0.76417 0.57656 0.02160 -0.01700
C 	C 	0.81402 0.68287 0.05448 -0.03500
C 	C 	0.84277 0.74630 0.05418 -0.05400
C 	C 	0.85586 0.76933 0.02085 0.03100
C 	C 	0.83827 0.72773 0.98697 -0.01400
C 	C 	0.86071 0.75324 0.95500 -0.02900
C 	C 	0.89465 0.81781 0.95603 -0.04800
C 	C 	0.90905 0.85829 0.98908 0.01300
C 	C 	0.88939 0.83407 0.02137 -0.06900
H 	H 	0.72146 0.51993 0.92791 0.03900
H 	H 	0.76954 0.63047 0.92658 0.04300
H 	H 	0.75991 0.56055 0.04802 0.03600
H 	H 	0.80637 0.66641 0.08074 0.03500
H 	H 	0.85668 0.77803 0.08019 0.04000
H 	H 	0.85575 0.72424 0.93015 0.03500
H 	H 	0.91176 0.83674 0.93136 0.04100
H 	H 	0.90232 0.86589 0.04718 0.04600
C 	C 	0.78219 0.20849 0.98992 -0.08200
C 	C 	0.83189 0.22748 0.96968 0.00100
C 	C 	0.86675 0.20277 0.97235 -0.06000
C 	C 	0.85049 0.15634 0.99415 0.01400
C 	C 	0.80585 0.14294 0.01791 0.00000
C 	C 	0.77097 0.16804 0.01511 -0.01500
C 	C 	0.79719 0.10538 0.04449 -0.03400
C 	C 	0.83148 0.08009 0.04723 -0.05300
C 	C 	0.87176 0.08844 0.02186 0.03100
C 	C 	0.87952 0.12454 0.99399 -0.01400
C 	C 	0.91166 0.12394 0.96515 -0.02900
C 	C 	0.94051 0.09311 0.96612 -0.04800
C 	C 	0.93615 0.06070 0.99499 0.01300
C 	C 	0.90194 0.05853 0.02288 -0.06900
H 	H 	0.84366 0.26150 0.95181 0.02400
H 	H 	0.90786 0.22189 0.95876 0.04100
H 	H 	0.73516 0.15600 0.03240 0.04800
H 	H 	0.76432 0.09630 0.06339 0.03800
H 	H 	0.82504 0.05216 0.06842 0.04100
H 	H 	0.91119 0.14381 0.94088 0.03300
H 	H 	0.96471 0.09282 0.94371 0.04000
H 	H 	0.89752 0.03233 0.04480 0.04600
C 	C 	0.45304 0.19644 0.98848 -0.07600
C 	C 	0.41934 0.20963 0.96394 0.00300
C 	C 	0.35467 0.18323 0.96427 -0.05700
C 	C 	0.32165 0.14069 0.98826 0.01400
C 	C 	0.35672 0.12982 0.01423 0.00100
C 	C 	0.42141 0.15598 0.01328 -0.01800
C 	C 	0.32785 0.09571 0.04209 -0.03500
C 	C 	0.26511 0.07326 0.04497 -0.05300
C 	C 	0.22847 0.08076 0.01853 0.03100
C 	C 	0.25531 0.11174 0.98874 -0.01400
C 	C 	0.21447 0.10992 0.95932 -0.02900
C 	C 	0.15042 0.08368 0.96158 -0.04800
C 	C 	0.12523 0.05648 0.99220 0.01300
C 	C 	0.16429 0.05521 0.02066 -0.06900
H 	H 	0.44387 0.24206 0.94533 0.03300
H 	H 	0.33209 0.19919 0.94763 0.04200
H 	H 	0.44797 0.14726 0.03307 0.04600
H 	H 	0.35479 0.08799 0.06228 0.03700
H 	H 	0.24437 0.04866 0.06741 0.04000
H 	H 	0.23054 0.12488 0.93375 0.03400
H 	H 	0.11960 0.08237 0.93877 0.03900
H 	H 	0.14413 0.03268 0.04387 0.04600
