data_crystal

_cell_length_a 22.82570
_cell_length_b 22.57948
_cell_length_c 26.80126
_cell_angle_alpha 90.00107
_cell_angle_beta  90.00606
_cell_angle_gamma 92.72056

_symmetry_space_group_name_	'P 1'
_symmetry_space_group_name_H-M	'P 1'

loop_
_symmetry_equiv_pos_as_xyz
  x,y,z

loop_
_atom_site_label
_atom_site_type_symbol
_atom_site_fract_x
_atom_site_fract_y
_atom_site_fract_z
_atom_site_charge
C 	C 	0.86012 0.96154 0.01508 -0.03700
C 	C 	0.86367 0.02174 0.00327 -0.05000
C 	C 	0.91119 0.92911 0.01835 0.00200
C 	C 	0.96671 0.95876 0.01122 -0.00200
C 	C 	0.97038 0.02020 0.00013 -0.01700
C 	C 	0.91856 0.05184 0.99596 0.01900
C 	C 	0.01852 0.92700 0.01485 0.00400
C 	C 	0.07336 0.95695 0.00685 -0.04200
C 	C 	0.02590 0.04989 0.99321 0.01400
C 	C 	0.92266 0.11320 0.98461 -0.01300
C 	C 	0.97764 0.14219 0.97806 -0.04300
C 	C 	0.02917 0.11159 0.98306 -0.01200
C 	C 	0.90794 0.86745 0.02882 -0.00500
C 	C 	0.95954 0.83678 0.03338 -0.04900
C 	C 	0.01448 0.86564 0.02611 -0.00600
C 	C 	0.86982 0.14809 0.98077 0.01700
C 	C 	0.84613 0.16042 0.93384 -0.04200
C 	C 	0.79625 0.19374 0.93022 -0.04000
C 	C 	0.76980 0.21484 0.97353 0.02800
C 	C 	0.79352 0.20249 0.02045 -0.04800
C 	C 	0.84367 0.16966 0.02404 -0.04500
C 	C 	0.08616 0.14551 0.98030 0.01500
C 	C 	0.11467 0.16443 0.02426 -0.04400
C 	C 	0.16630 0.20017 0.02179 -0.04200
C 	C 	0.10975 0.16249 0.93381 -0.04100
C 	C 	0.16139 0.19835 0.93133 -0.04500
C 	C 	0.18975 0.21745 0.97533 0.02800
C 	C 	0.85088 0.83353 0.03213 0.00600
C 	C 	0.83038 0.81202 0.07840 -0.04000
C 	C 	0.77982 0.77451 0.08086 -0.03900
C 	C 	0.74923 0.75851 0.03709 0.01900
C 	C 	0.76896 0.78127 0.99099 -0.04300
C 	C 	0.81975 0.81827 0.98849 -0.03700
C 	C 	0.06728 0.83046 0.02834 0.00700
C 	C 	0.08538 0.79992 0.98593 -0.03700
C 	C 	0.13572 0.76716 0.98776 -0.03600
C 	C 	0.16824 0.76466 0.03204 0.02100
C 	C 	0.15025 0.79535 0.07444 -0.04500
C 	C 	0.09969 0.82787 0.07268 -0.04000
C 	C 	0.07695 0.01741 0.99608 -0.03900
H 	H 	0.86629 0.14410 0.90026 0.04100
H 	H 	0.77809 0.20305 0.89386 0.04500
H 	H 	0.77330 0.21869 0.05405 0.03900
H 	H 	0.86196 0.16054 0.06039 0.04000
H 	H 	0.74543 0.76949 0.95703 0.04100
H 	H 	0.83540 0.83443 0.95259 0.04000
H 	H 	0.76505 0.75708 0.11660 0.04700
H 	H 	0.85429 0.82335 0.11226 0.04000
H 	H 	0.06053 0.80175 0.95156 0.04100
H 	H 	0.14938 0.74356 0.95487 0.04400
H 	H 	0.08590 0.85136 0.10559 0.04000
H 	H 	0.17508 0.79349 0.10881 0.04000
H 	H 	0.09651 0.15186 0.06029 0.04100
H 	H 	0.18791 0.21474 0.05594 0.04600
H 	H 	0.08781 0.14834 0.89970 0.04000
H 	H 	0.17932 0.21128 0.89531 0.04200
H 	H 	0.81731 0.94039 0.02182 0.04000
H 	H 	0.82336 0.04481 0.00001 0.04200
H 	H 	0.98039 0.18936 0.97007 0.04400
H 	H 	0.11977 0.03867 0.98955 0.04400
H 	H 	0.11358 0.93355 0.00875 0.04200
H 	H 	0.95684 0.78962 0.04140 0.04500
C 	C 	0.92275 0.98988 0.49539 -0.04000
C 	C 	0.92993 0.05071 0.48697 -0.04000
C 	C 	0.97173 0.95433 0.49763 0.00700
C 	C 	0.02878 0.98117 0.49229 -0.00600
C 	C 	0.03606 0.04294 0.48342 -0.00700
C 	C 	0.98636 0.07791 0.48068 0.00700
C 	C 	0.07855 0.94642 0.49612 0.00700
C 	C 	0.13506 0.97418 0.49244 -0.04000
C 	C 	0.09311 0.06975 0.47779 0.00700
C 	C 	0.99407 0.13964 0.47196 -0.00700
C 	C 	0.05033 0.16542 0.46487 -0.04700
C 	C 	0.09986 0.13149 0.46833 -0.00700
C 	C 	0.96487 0.89231 0.50551 -0.00700
C 	C 	0.01432 0.85828 0.50871 -0.04700
C 	C 	0.07080 0.88445 0.50384 -0.00800
C 	C 	0.94396 0.17841 0.47310 0.01100
C 	C 	0.91078 0.18674 0.42986 -0.04000
C 	C 	0.86165 0.22127 0.43164 -0.04600
C 	C 	0.84601 0.24834 0.47649 0.02500
C 	C 	0.87998 0.24105 0.51943 -0.04000
C 	C 	0.92882 0.20619 0.51774 -0.04000
C 	C 	0.15848 0.16211 0.46481 0.01100
C 	C 	0.18998 0.17654 0.50843 -0.04000
C 	C 	0.24107 0.21302 0.50599 -0.03800
C 	C 	0.17942 0.18314 0.41853 -0.04000
C 	C 	0.23026 0.22017 0.41614 -0.04600
C 	C 	0.26048 0.23640 0.46001 0.02400
C 	C 	0.90621 0.86179 0.50849 0.01000
C 	C 	0.88283 0.84465 0.55501 -0.04000
C 	C 	0.83055 0.80984 0.55759 -0.03900
C 	C 	0.80146 0.79174 0.51365 0.02400
C 	C 	0.82411 0.81014 0.46720 -0.04600
C 	C 	0.87640 0.84483 0.46463 -0.04000
C 	C 	0.12135 0.84612 0.50598 0.01200
C 	C 	0.15317 0.83466 0.46254 -0.04100
C 	C 	0.20231 0.80026 0.46500 -0.04200
C 	C 	0.21884 0.77560 0.51060 0.02500
C 	C 	0.18511 0.78434 0.55345 -0.04200
C 	C 	0.13702 0.82023 0.55132 -0.04100
C 	C 	0.14218 0.03457 0.48206 -0.04000
H 	H 	0.92247 0.16562 0.39520 0.04000
H 	H 	0.83560 0.22679 0.39831 0.04200
H 	H 	0.86808 0.26182 0.55419 0.04400
H 	H 	0.95449 0.20013 0.55120 0.04100
H 	H 	0.80187 0.79647 0.43309 0.04200
H 	H 	0.89432 0.85762 0.42857 0.04000
H 	H 	0.81313 0.79624 0.59362 0.04700
H 	H 	0.90572 0.85738 0.58905 0.04100
H 	H 	0.14055 0.85351 0.42718 0.04100
H 	H 	0.22761 0.79282 0.43157 0.04300
H 	H 	0.11188 0.82786 0.58480 0.03900
H 	H 	0.19610 0.76331 0.58831 0.03800
H 	H 	0.17406 0.16062 0.54431 0.04200
H 	H 	0.26459 0.22467 0.53998 0.04700
H 	H 	0.15528 0.17232 0.38468 0.03900
H 	H 	0.24505 0.23777 0.38046 0.04000
H 	H 	0.87880 0.97070 0.50044 0.04100
H 	H 	0.89122 0.07651 0.48537 0.04200
H 	H 	0.05576 0.21276 0.45817 0.04500
H 	H 	0.18620 0.05381 0.47766 0.04200
H 	H 	0.17388 0.94923 0.49776 0.04500
H 	H 	0.00875 0.81074 0.51433 0.04400
Ni	Ni	0.44256 0.52298 0.04693 1.09800
O 	O 	0.50783 0.46684 0.03033 -0.70400
Ni	Ni	0.49439 0.45549 0.95612 1.09800
O 	O 	0.45366 0.51921 0.12290 -0.36500
O 	O 	0.46297 0.41972 0.12895 -0.40600
O 	O 	0.50185 0.59489 0.05062 -0.37700
Ni	Ni	0.49429 0.38867 0.06165 1.06700
O 	O 	0.41521 0.64133 0.99640 -0.39600
O 	O 	0.40935 0.38271 0.03805 -0.42500
O 	O 	0.55930 0.39861 0.94375 -0.39100
O 	O 	0.43130 0.51292 0.97269 -0.70600
O 	O 	0.37710 0.57952 0.05702 -0.38200
O 	O 	0.47743 0.46020 0.88109 -0.37400
O 	O 	0.49307 0.56106 0.87823 -0.41200
Ni	Ni	0.45010 0.59042 0.94168 1.06500
H 	H 	0.54763 0.48390 0.03738 0.15700
H 	H 	0.39122 0.49758 0.96417 0.16500
C 	C 	0.39572 0.37175 0.99142 0.31500
O 	O 	0.53272 0.59787 0.97003 -0.41000
C 	C 	0.47492 0.47347 0.14578 0.28200
C 	C 	0.56560 0.35397 0.97440 0.30400
C 	C 	0.54328 0.60602 0.01750 0.30600
C 	C 	0.48335 0.50984 0.85562 0.28400
C 	C 	0.37087 0.62319 0.02524 0.29300
O 	O 	0.43372 0.38437 0.95557 -0.36600
O 	O 	0.52245 0.33723 0.00474 -0.40700
Ni	Ni	0.50210 0.54812 0.53812 1.09700
O 	O 	0.56920 0.49305 0.52893 -0.70800
Ni	Ni	0.56314 0.47486 0.45540 1.09700
O 	O 	0.51506 0.55326 0.61377 -0.37800
O 	O 	0.50492 0.45287 0.62381 -0.41200
O 	O 	0.55820 0.62265 0.53551 -0.37400
Ni	Ni	0.55229 0.41831 0.56484 1.06200
O 	O 	0.46892 0.65824 0.47854 -0.40700
O 	O 	0.47141 0.40360 0.53338 -0.41900
O 	O 	0.63186 0.42105 0.45264 -0.37900
O 	O 	0.49398 0.52860 0.46446 -0.70100
O 	O 	0.43361 0.60173 0.54319 -0.39300
O 	O 	0.55715 0.47040 0.37896 -0.36200
O 	O 	0.54365 0.56809 0.36496 -0.40400
Ni	Ni	0.50558 0.60375 0.42775 1.07000
H 	H 	0.60798 0.51145 0.53800 0.15400
H 	H 	0.45539 0.50885 0.45686 0.15400
C 	C 	0.46420 0.39049 0.48620 0.30300
O 	O 	0.58819 0.61829 0.45457 -0.41600
C 	C 	0.51347 0.50630 0.64270 0.28300
C 	C 	0.63777 0.38102 0.48776 0.30100
C 	C 	0.59832 0.63332 0.50103 0.30800
C 	C 	0.53546 0.51243 0.35165 0.28100
C 	C 	0.42514 0.64052 0.50782 0.30800
O 	O 	0.50725 0.40030 0.45434 -0.36500
O 	O 	0.59233 0.36391 0.51570 -0.40600
C 	C 	0.49131 0.50729 0.80121 -0.08300
C 	C 	0.54264 0.48503 0.77964 0.05800
C 	C 	0.55020 0.48786 0.72769 -0.03400
C 	C 	0.50867 0.51375 0.69714 -0.08400
C 	C 	0.45916 0.53912 0.71909 0.05700
C 	C 	0.45014 0.53373 0.77072 -0.03400
H 	H 	0.58839 0.46911 0.71089 0.02400
H 	H 	0.41145 0.55154 0.78746 0.02800
C 	C 	0.59020 0.45849 0.81117 -0.11800
C 	C 	0.41560 0.57239 0.68832 -0.11700
C 	C 	0.64405 0.50124 0.81788 -0.01200
H 	H 	0.65976 0.51816 0.78104 0.02700
H 	H 	0.67997 0.47629 0.83467 0.02900
C 	C 	0.36905 0.53009 0.66441 -0.01100
H 	H 	0.35026 0.49890 0.69297 0.03200
H 	H 	0.38929 0.50375 0.63455 0.03400
H 	H 	0.57441 0.44273 0.84808 0.07100
H 	H 	0.43810 0.60021 0.65939 0.07300
C 	C 	0.63196 0.55348 0.85196 -0.16300
C 	C 	0.31927 0.56417 0.64178 -0.16600
H 	H 	0.61408 0.53746 0.88834 0.07400
H 	H 	0.67349 0.57975 0.85902 0.06700
H 	H 	0.60057 0.58292 0.83400 0.07600
H 	H 	0.60480 0.41805 0.79202 0.05200
H 	H 	0.29536 0.58737 0.67150 0.05900
H 	H 	0.28789 0.53276 0.62257 0.05900
H 	H 	0.33674 0.59733 0.61430 0.07000
H 	H 	0.39341 0.60426 0.71280 0.04900
C 	C 	0.49273 0.48053 0.19817 -0.08100
C 	C 	0.54575 0.51176 0.21119 0.05100
C 	C 	0.55924 0.52118 0.26174 -0.02600
C 	C 	0.52124 0.49928 0.29923 -0.08200
C 	C 	0.46937 0.46613 0.28624 0.05400
C 	C 	0.45541 0.45746 0.23570 -0.02900
H 	H 	0.59967 0.54537 0.27192 0.04600
H 	H 	0.41467 0.43383 0.22554 0.04600
C 	C 	0.59004 0.53247 0.17182 -0.11200
C 	C 	0.42617 0.44387 0.32576 -0.12500
C 	C 	0.64059 0.49020 0.16712 -0.02600
H 	H 	0.66070 0.48299 0.20428 0.03400
H 	H 	0.67509 0.51135 0.14288 0.02600
C 	C 	0.38313 0.49172 0.33876 -0.00800
H 	H 	0.35778 0.50308 0.30493 0.02800
H 	H 	0.40758 0.53252 0.35196 0.00200
H 	H 	0.56977 0.53897 0.13469 0.05500
H 	H 	0.44932 0.42969 0.35988 0.06900
C 	C 	0.62113 0.43032 0.14446 -0.14300
C 	C 	0.34029 0.47070 0.37947 -0.16800
H 	H 	0.59919 0.43646 0.10799 0.00700
H 	H 	0.66009 0.40361 0.13834 0.04600
H 	H 	0.59070 0.40540 0.17005 0.04900
H 	H 	0.60893 0.57693 0.18266 0.05500
H 	H 	0.31664 0.42858 0.36843 0.06200
H 	H 	0.30762 0.50482 0.38575 0.06300
H 	H 	0.36421 0.46392 0.41488 0.05300
H 	H 	0.40115 0.40372 0.31183 0.05900
C 	C 	0.27094 0.73988 0.51320 -0.01100
C 	C 	0.32480 0.76528 0.53033 0.09200
C 	C 	0.37548 0.73281 0.52729 -0.02300
C 	C 	0.37228 0.67452 0.50932 -0.12800
C 	C 	0.31826 0.64867 0.49313 0.16000
C 	C 	0.26796 0.68179 0.49466 -0.10600
H 	H 	0.41725 0.75297 0.53904 0.04900
H 	H 	0.22686 0.66277 0.48027 0.06200
O 	O 	0.32914 0.82418 0.54456 -0.19300
O 	O 	0.31619 0.59433 0.46927 -0.23100
C 	C 	0.32991 0.82711 0.59714 -0.02300
H 	H 	0.29121 0.80305 0.61417 0.03400
H 	H 	0.32834 0.87428 0.60841 0.04000
H 	H 	0.37121 0.81004 0.61238 0.03500
C 	C 	0.29880 0.54999 0.50397 -0.01600
H 	H 	0.33276 0.54479 0.53309 0.03000
H 	H 	0.29394 0.50715 0.48401 0.02900
H 	H 	0.25555 0.55834 0.52121 0.03100
C 	C 	0.74800 0.75236 0.51606 -0.01000
C 	C 	0.75147 0.69234 0.52986 0.09500
C 	C 	0.70084 0.65455 0.52888 -0.03000
C 	C 	0.64762 0.67543 0.51180 -0.11800
C 	C 	0.64365 0.73583 0.49975 0.16600
C 	C 	0.69402 0.77379 0.50127 -0.10400
H 	H 	0.70362 0.60842 0.53940 0.03400
H 	H 	0.69127 0.81972 0.49013 0.06400
O 	O 	0.80368 0.67139 0.54708 -0.19500
O 	O 	0.59184 0.75644 0.48137 -0.20600
C 	C 	0.83302 0.64570 0.50676 -0.02300
H 	H 	0.80758 0.60630 0.49180 0.03500
H 	H 	0.87553 0.63022 0.52043 0.04100
H 	H 	0.84296 0.67843 0.47648 0.03800
C 	C 	0.56002 0.77954 0.52143 -0.02200
H 	H 	0.54836 0.74484 0.54973 0.05400
H 	H 	0.51836 0.79585 0.50664 0.04700
H 	H 	0.58435 0.81795 0.53915 0.03600
C 	C 	0.79279 0.28236 0.47900 -0.01300
C 	C 	0.79689 0.34472 0.47927 0.09600
C 	C 	0.74605 0.37650 0.48464 -0.03300
C 	C 	0.69093 0.34658 0.48824 -0.12200
C 	C 	0.68709 0.28400 0.48921 0.16500
C 	C 	0.73787 0.25235 0.48269 -0.10400
H 	H 	0.74944 0.42454 0.48540 0.04200
H 	H 	0.73462 0.20431 0.48163 0.06300
O 	O 	0.85112 0.37464 0.47824 -0.19600
O 	O 	0.63315 0.25374 0.49211 -0.20300
C 	C 	0.86445 0.39007 0.42839 -0.02300
H 	H 	0.86616 0.35022 0.40405 0.03800
H 	H 	0.90856 0.41288 0.42747 0.04000
H 	H 	0.83279 0.42152 0.41322 0.03700
C 	C 	0.62417 0.23443 0.54173 -0.01300
H 	H 	0.65508 0.19971 0.55188 0.03100
H 	H 	0.57909 0.21418 0.54485 0.03400
H 	H 	0.62779 0.27180 0.56888 0.02400
C 	C 	0.41034 0.35673 0.47061 -0.12000
C 	C 	0.41343 0.30422 0.44229 0.16000
C 	C 	0.36289 0.26713 0.43562 -0.10300
C 	C 	0.31000 0.28094 0.45843 -0.01400
C 	C 	0.30563 0.33601 0.48248 0.09500
C 	C 	0.35603 0.37286 0.48959 -0.03400
H 	H 	0.36556 0.22636 0.41457 0.06300
H 	H 	0.35311 0.41352 0.51076 0.04100
O 	O 	0.46505 0.29066 0.41888 -0.19100
O 	O 	0.25310 0.35135 0.50336 -0.19600
C 	C 	0.49483 0.25101 0.44936 -0.02400
H 	H 	0.46935 0.20803 0.45366 0.03700
H 	H 	0.50555 0.27058 0.48657 0.05300
H 	H 	0.53684 0.24139 0.43097 0.06200
C 	C 	0.22066 0.38057 0.46681 -0.02300
H 	H 	0.24526 0.42034 0.45170 0.03000
H 	H 	0.18012 0.39602 0.48438 0.04000
H 	H 	0.20706 0.34997 0.43593 0.03700
C 	C 	0.31961 0.65996 0.03005 -0.12000
C 	C 	0.32632 0.72241 0.03153 0.16100
C 	C 	0.27651 0.75641 0.03242 -0.10500
C 	C 	0.22030 0.72867 0.03431 -0.01300
C 	C 	0.21382 0.66641 0.03647 0.09600
C 	C 	0.26339 0.63238 0.03332 -0.03500
H 	H 	0.28162 0.80436 0.03118 0.06300
H 	H 	0.25801 0.58444 0.03293 0.04300
O 	O 	0.38138 0.75037 0.02830 -0.20200
O 	O 	0.15856 0.63863 0.03706 -0.19600
C 	C 	0.40287 0.76051 0.07705 -0.02000
H 	H 	0.37488 0.79092 0.09813 0.03500
H 	H 	0.44736 0.78230 0.07438 0.04300
H 	H 	0.40721 0.71823 0.09784 0.05000
C 	C 	0.14280 0.62675 0.08707 -0.02200
H 	H 	0.17266 0.59517 0.10461 0.03600
H 	H 	0.09796 0.60553 0.08759 0.04000
H 	H 	0.14156 0.66818 0.10952 0.03700
C 	C 	0.59823 0.63812 0.03242 -0.12000
C 	C 	0.65215 0.62128 0.01258 0.16000
C 	C 	0.70158 0.66043 0.01521 -0.10800
C 	C 	0.69831 0.71550 0.03899 -0.01000
C 	C 	0.64531 0.73077 0.06161 0.09400
C 	C 	0.59605 0.69111 0.05957 -0.02900
H 	H 	0.74226 0.64834 0.99794 0.06600
H 	H 	0.55516 0.70344 0.07633 0.05700
O 	O 	0.65521 0.56876 0.98643 -0.21300
O 	O 	0.64236 0.78328 0.08780 -0.19400
C 	C 	0.67465 0.52498 0.01921 -0.02500
H 	H 	0.72116 0.53448 0.03024 0.03200
H 	H 	0.67231 0.48173 0.99953 0.02900
H 	H 	0.64634 0.52014 0.05291 0.01900
C 	C 	0.62090 0.82670 0.05563 -0.02300
H 	H 	0.65001 0.83456 0.02270 0.03700
H 	H 	0.61992 0.86915 0.07638 0.04100
H 	H 	0.57520 0.81485 0.04342 0.03700
C 	C 	0.71698 0.24946 0.96987 -0.01400
C 	C 	0.72168 0.31011 0.95757 0.09600
C 	C 	0.67113 0.34286 0.95546 -0.03500
C 	C 	0.61637 0.31650 0.96856 -0.12400
C 	C 	0.61138 0.25499 0.97845 0.16100
C 	C 	0.66190 0.22219 0.98016 -0.10500
H 	H 	0.67493 0.38938 0.94544 0.04800
H 	H 	0.65822 0.17547 0.98956 0.06400
O 	O 	0.77530 0.33649 0.94427 -0.19500
O 	O 	0.55758 0.22759 0.98977 -0.20200
C 	C 	0.80011 0.36513 0.98658 -0.01800
H 	H 	0.77318 0.40216 0.99919 0.03100
H 	H 	0.84396 0.38463 0.97624 0.04000
H 	H 	0.80666 0.33350 0.01774 0.03200
C 	C 	0.53170 0.20595 0.94517 -0.01900
H 	H 	0.52408 0.24247 0.91834 0.04900
H 	H 	0.48823 0.18457 0.95424 0.04300
H 	H 	0.55847 0.17165 0.92757 0.03500
C 	C 	0.24421 0.25536 0.97290 -0.01100
C 	C 	0.29824 0.23256 0.98671 0.09500
C 	C 	0.34801 0.27091 0.99151 -0.02200
C 	C 	0.34486 0.33147 0.98087 -0.11700
C 	C 	0.29152 0.35384 0.96475 0.16500
C 	C 	0.24168 0.31536 0.95980 -0.10200
H 	H 	0.38894 0.25363 0.00422 0.04700
H 	H 	0.20064 0.33263 0.94739 0.06400
O 	O 	0.30128 0.17362 0.99987 -0.19200
O 	O 	0.28908 0.41243 0.95027 -0.22000
C 	C 	0.31728 0.14145 0.95730 -0.02300
H 	H 	0.28431 0.14446 0.92687 0.03800
H 	H 	0.31894 0.09400 0.96767 0.04200
H 	H 	0.36174 0.15618 0.94373 0.03700
C 	C 	0.26932 0.44564 0.99100 -0.00900
H 	H 	0.22390 0.43102 0.00210 0.03100
H 	H 	0.26831 0.49273 0.97939 0.02600
H 	H 	0.29960 0.44382 0.02349 0.02200
