data_crystal

_cell_length_a 17.04019
_cell_length_b 17.46368
_cell_length_c 46.62208
_cell_angle_alpha 60.79949
_cell_angle_beta  118.98506
_cell_angle_gamma 133.39750

_symmetry_space_group_name_	'P 1'
_symmetry_space_group_name_H-M	'P 1'

loop_
_symmetry_equiv_pos_as_xyz
  x,y,z

loop_
_atom_site_label
_atom_site_type_symbol
_atom_site_fract_x
_atom_site_fract_y
_atom_site_fract_z
_atom_site_charge
C 	C 	0.66255 0.23287 0.01895 0.00800
C 	C 	0.74900 0.33020 0.02923 -0.05200
C 	C 	0.72650 0.39688 0.02674 0.00400
C 	C 	0.61900 0.36880 0.01296 -0.04800
C 	C 	0.53254 0.27155 0.00300 -0.00100
C 	C 	0.55428 0.20396 0.00552 -0.05200
H 	H 	0.83266 0.35184 0.04033 0.05300
H 	H 	0.60173 0.42018 0.01148 0.05000
H 	H 	0.48631 0.12644 0.99885 0.04400
C 	C 	0.66365 0.23325 0.51919 0.00800
C 	C 	0.75011 0.33061 0.52946 -0.05100
C 	C 	0.72761 0.39730 0.52695 0.00500
C 	C 	0.62010 0.36921 0.51318 -0.04800
C 	C 	0.53364 0.27194 0.50324 0.00300
C 	C 	0.55539 0.20432 0.50577 -0.05000
H 	H 	0.83378 0.35225 0.54056 0.05300
H 	H 	0.60283 0.42060 0.51168 0.05100
H 	H 	0.48741 0.12678 0.49911 0.04200
C 	C 	0.32967 0.70548 0.10694 0.01000
C 	C 	0.43877 0.73629 0.12177 -0.04800
C 	C 	0.46697 0.67513 0.12336 0.00900
C 	C 	0.38603 0.58198 0.11099 -0.04900
C 	C 	0.27727 0.55059 0.09616 0.00900
C 	C 	0.24839 0.61180 0.09424 -0.05200
H 	H 	0.50272 0.81059 0.13046 0.05400
H 	H 	0.40834 0.53515 0.11218 0.05300
H 	H 	0.16407 0.58807 0.08237 0.05100
C 	C 	0.33090 0.70600 0.60714 0.01000
C 	C 	0.44000 0.73682 0.62196 -0.04800
C 	C 	0.46822 0.67566 0.62357 0.00800
C 	C 	0.38730 0.58250 0.61120 -0.04900
C 	C 	0.27853 0.55109 0.59637 0.00900
C 	C 	0.24963 0.61230 0.59445 -0.05200
H 	H 	0.50395 0.81113 0.63066 0.05300
H 	H 	0.40962 0.53567 0.61240 0.05300
H 	H 	0.16531 0.58855 0.58257 0.05100
Co	Co	0.04875 0.86213 0.07786 1.18400
Co	Co	0.94614 0.06645 0.05122 1.18400
Co	Co	0.97764 0.91846 0.11548 1.20100
Co	Co	0.01428 0.00851 0.01368 1.16600
C 	C 	0.96740 0.67718 0.05681 0.34100
Co	Co	0.09907 0.89177 0.01181 1.17100
Co	Co	0.90534 0.05172 0.11557 1.15900
C 	C 	0.20882 0.12725 0.98854 0.33600
O 	O 	0.06624 0.11975 0.14408 -0.40400
O 	O 	0.93994 0.00427 0.09196 -0.77100
C 	C 	0.09855 0.05686 0.16480 0.30900
O 	O 	0.02774 0.83232 0.12235 -0.46300
O 	O 	0.97120 0.09991 0.00713 -0.47100
C 	C 	0.04386 0.26036 0.07058 0.31600
O 	O 	0.95827 0.93384 0.06169 -0.56000
C 	C 	0.79514 0.81633 0.14502 0.32500
C 	C 	0.26083 0.91988 0.07697 0.31600
C 	C 	0.91095 0.88889 0.95953 0.28700
O 	O 	0.10380 0.00539 0.15287 -0.40700
O 	O 	0.25315 0.96498 0.04452 -0.38000
O 	O 	0.21586 0.92051 0.09333 -0.38100
O 	O 	0.95166 0.19862 0.08008 -0.40600
O 	O 	0.06715 0.21888 0.06123 -0.40400
O 	O 	0.85935 0.90851 0.15307 -0.39400
O 	O 	0.83296 0.79621 0.13270 -0.37900
O 	O 	0.94025 0.82453 0.98202 -0.38100
O 	O 	0.91345 0.95162 0.96900 -0.34700
O 	O 	0.04260 0.91603 0.03588 -0.74600
C 	C 	0.74010 0.02596 0.05077 0.27800
O 	O 	0.74995 0.98006 0.08335 -0.35300
O 	O 	0.78885 0.03392 0.03330 -0.37900
O 	O 	0.05807 0.74405 0.04594 -0.41900
O 	O 	0.95056 0.70513 0.07379 -0.38700
O 	O 	0.14541 0.04078 0.97735 -0.43500
O 	O 	0.17348 0.13149 0.00693 -0.41600
Co	Co	0.04989 0.86255 0.57808 1.18400
Co	Co	0.94730 0.06687 0.55146 1.18400
Co	Co	0.97883 0.91887 0.61571 1.20100
Co	Co	0.01540 0.00893 0.51390 1.16600
C 	C 	0.96852 0.67762 0.55702 0.34200
Co	Co	0.10016 0.89221 0.51201 1.17200
Co	Co	0.90661 0.05217 0.61583 1.15800
C 	C 	0.20993 0.12768 0.48876 0.33300
O 	O 	0.06752 0.12018 0.64434 -0.40400
O 	O 	0.94111 0.00467 0.59220 -0.77100
C 	C 	0.09978 0.05724 0.66503 0.30900
O 	O 	0.02891 0.83273 0.62257 -0.46300
O 	O 	0.97232 0.10032 0.50736 -0.47100
C 	C 	0.04511 0.26079 0.57083 0.31600
O 	O 	0.95939 0.93424 0.56191 -0.56000
C 	C 	0.79640 0.81678 0.64528 0.32500
C 	C 	0.26196 0.92032 0.57716 0.31600
C 	C 	0.91196 0.88926 0.45975 0.28700
O 	O 	0.10511 0.00593 0.65306 -0.40700
O 	O 	0.25426 0.96541 0.54471 -0.38000
O 	O 	0.21700 0.92094 0.59353 -0.38100
O 	O 	0.95293 0.19907 0.58034 -0.40600
O 	O 	0.06836 0.21930 0.56148 -0.40400
O 	O 	0.86063 0.90896 0.65333 -0.39500
O 	O 	0.83422 0.79664 0.63297 -0.37900
O 	O 	0.94133 0.82494 0.48224 -0.38200
O 	O 	0.91461 0.95211 0.46921 -0.34800
O 	O 	0.04371 0.91646 0.53610 -0.74600
C 	C 	0.74131 0.02641 0.55103 0.27800
O 	O 	0.75119 0.98053 0.58362 -0.35300
O 	O 	0.79004 0.03436 0.53356 -0.37800
O 	O 	0.05918 0.74449 0.54614 -0.42000
O 	O 	0.95169 0.70556 0.57400 -0.38700
O 	O 	0.14649 0.04122 0.47756 -0.43600
O 	O 	0.17459 0.13192 0.50715 -0.41400
C 	C 	0.11828 0.03548 0.70179 -0.14800
C 	C 	0.05312 0.92841 0.72032 0.08000
C 	C 	0.03274 0.90887 0.74983 -0.11200
C 	C 	0.07971 0.99631 0.76149 0.08600
C 	C 	0.15529 0.10269 0.74519 -0.12500
C 	C 	0.17514 0.12206 0.71566 0.05000
C 	C 	0.04246 0.97741 0.78875 -0.00700
C 	C 	0.93025 0.92864 0.78439 -0.00900
C 	C 	0.89610 0.91701 0.80911 -0.05300
C 	C 	0.97377 0.95422 0.83842 0.05100
C 	C 	0.08588 0.00253 0.84286 -0.08800
C 	C 	0.12002 0.01407 0.81816 -0.04500
C 	C 	0.93712 0.93847 0.86522 0.04300
C 	C 	0.86262 0.83321 0.88232 -0.05800
C 	C 	0.84200 0.81736 0.91112 0.00600
C 	C 	0.89669 0.90649 0.92340 -0.04700
C 	C 	0.96205 0.01222 0.90422 -0.01400
C 	C 	0.98304 0.02814 0.87544 -0.07700
H 	H 	0.01073 0.86056 0.71041 0.02100
H 	H 	0.97679 0.82614 0.76274 0.07200
H 	H 	0.19408 0.17078 0.75432 0.05800
H 	H 	0.22784 0.20504 0.70211 0.02500
H 	H 	0.86978 0.90107 0.76167 0.04000
H 	H 	0.80943 0.87948 0.80540 0.05000
H 	H 	0.14640 0.03043 0.86553 0.04400
H 	H 	0.20672 0.05177 0.82184 0.03500
H 	H 	0.82488 0.76339 0.87431 0.04900
H 	H 	0.78964 0.73536 0.92525 0.04000
H 	H 	0.00343 0.08194 0.91300 0.03600
H 	H 	0.03842 0.10995 0.86194 0.04200
C 	C 	0.11770 0.03573 0.20156 -0.14800
C 	C 	0.17628 0.12304 0.21535 0.05000
C 	C 	0.15684 0.10510 0.24473 -0.12500
C 	C 	0.07970 0.99949 0.26090 0.08500
C 	C 	0.03120 0.91108 0.24944 -0.11100
C 	C 	0.05138 0.92914 0.22013 0.08000
C 	C 	0.04220 0.98259 0.28769 -0.00400
C 	C 	0.05769 0.91989 0.32040 -0.02000
C 	C 	0.02291 0.90484 0.34566 -0.06400
C 	C 	0.97193 0.95208 0.33845 0.05500
C 	C 	0.95605 0.01440 0.30569 -0.08200
C 	C 	0.99090 0.02951 0.28045 -0.03800
C 	C 	0.93643 0.93712 0.36539 0.04200
C 	C 	0.98348 0.02724 0.37563 -0.07700
C 	C 	0.96305 0.01200 0.40442 -0.01300
C 	C 	0.89722 0.90650 0.42361 -0.04800
C 	C 	0.84148 0.81703 0.41134 0.00600
C 	C 	0.86136 0.83221 0.38249 -0.05800
H 	H 	0.23009 0.20560 0.20181 0.02500
H 	H 	0.19766 0.17376 0.25395 0.05700
H 	H 	0.97353 0.82890 0.26216 0.07200
H 	H 	0.00776 0.86070 0.21031 0.02100
H 	H 	0.09733 0.88351 0.32634 0.03900
H 	H 	0.03632 0.85716 0.37088 0.04600
H 	H 	0.91646 0.05084 0.29975 0.04600
H 	H 	0.97771 0.07738 0.25525 0.03600
H 	H 	0.03988 0.10880 0.36228 0.04100
H 	H 	0.00533 0.08198 0.41321 0.03500
H 	H 	0.78863 0.73523 0.42545 0.03900
H 	H 	0.82189 0.76214 0.37426 0.04900
C 	C 	0.19596 0.45265 0.58485 0.04500
C 	C 	0.12860 0.36697 0.57713 -0.10800
C 	C 	0.58258 0.71746 0.63302 0.05500
C 	C 	0.67946 0.75767 0.63942 -0.11200
C 	C 	0.30708 0.77969 0.59994 0.05000
C 	C 	0.28767 0.84361 0.59156 -0.10700
C 	C 	0.12734 0.36652 0.07689 -0.10800
C 	C 	0.19469 0.45217 0.08462 0.04500
C 	C 	0.67820 0.75718 0.13917 -0.11100
C 	C 	0.58132 0.71695 0.13279 0.05600
C 	C 	0.30588 0.77919 0.09974 0.05000
C 	C 	0.28651 0.84315 0.09136 -0.10700
C 	C 	0.68341 0.15609 0.52765 0.03900
C 	C 	0.70592 0.09438 0.53700 -0.10600
C 	C 	0.81379 0.49310 0.53929 0.05500
C 	C 	0.88446 0.57577 0.54846 -0.11700
C 	C 	0.42163 0.23205 0.49658 0.05500
C 	C 	0.32593 0.19087 0.49242 -0.12500
C 	C 	0.70476 0.09397 0.03674 -0.10600
C 	C 	0.68228 0.15571 0.02740 0.03800
C 	C 	0.88335 0.57533 0.04825 -0.11700
C 	C 	0.81268 0.49267 0.03908 0.05500
C 	C 	0.42053 0.23165 0.99635 0.05900
C 	C 	0.32483 0.19046 0.99220 -0.12600
