data_crystal

_cell_length_a 27.00856
_cell_length_b 28.06958
_cell_length_c 17.55886
_cell_angle_alpha 95.47211
_cell_angle_beta  95.47425
_cell_angle_gamma 125.64446

_symmetry_space_group_name_	'P 1'
_symmetry_space_group_name_H-M	'P 1'

loop_
_symmetry_equiv_pos_as_xyz
  x,y,z

loop_
_atom_site_label
_atom_site_type_symbol
_atom_site_fract_x
_atom_site_fract_y
_atom_site_fract_z
_atom_site_charge
N 	N 	0.03098 0.05346 0.99645 -0.11100
C 	C 	0.02959 0.00756 0.40990 0.13300
N 	N 	0.01052 0.95982 0.96257 -0.13300
C 	C 	0.05028 0.02011 0.97387 0.13500
C 	C 	0.09602 0.04693 0.42671 -0.03900
C 	C 	0.11302 0.04828 0.96349 -0.03100
C 	C 	0.15185 0.07808 0.44079 0.00400
C 	C 	0.16528 0.06954 0.95455 0.00900
C 	C 	0.21843 0.11337 0.45698 0.01600
H 	H 	0.22006 0.03742 0.43255 0.04300
N 	N 	0.99962 0.94896 0.41238 -0.14000
N 	N 	0.99677 0.02875 0.39164 -0.14200
C 	C 	0.97174 0.02625 0.00771 0.07100
C 	C 	0.93380 0.99122 0.37600 0.13600
Cu	Cu	0.65876 0.26189 0.01752 0.91400
Cu	Cu	0.75036 0.29272 0.89390 0.86700
Cu	Cu	0.68380 0.34155 0.89777 0.89800
Cu	Cu	0.63030 0.35646 0.03094 0.88000
C 	C 	0.65264 0.31047 0.16403 0.19600
O 	O 	0.56464 0.21253 0.99076 -0.34100
C 	C 	0.70714 0.30933 0.74832 0.19500
O 	O 	0.69441 0.35117 0.00992 -0.65900
O 	O 	0.66689 0.26354 0.90742 -0.63000
O 	O 	0.70678 0.23049 0.04288 -0.36800
O 	O 	0.78819 0.30480 0.99770 -0.40000
O 	O 	0.61597 0.32068 0.12655 -0.36400
O 	O 	0.70727 0.42090 0.89183 -0.37700
C 	C 	0.70126 0.45410 0.94295 0.31400
C 	C 	0.53658 0.22948 0.94853 0.30300
O 	O 	0.56871 0.28377 0.93423 -0.38800
O 	O 	0.66082 0.43057 0.98979 -0.37500
O 	O 	0.66493 0.27609 0.12795 -0.32700
C 	C 	0.76479 0.25998 0.03476 0.27600
O 	O 	0.67974 0.32888 0.78490 -0.33900
O 	O 	0.73043 0.28508 0.78372 -0.38700
H 	H 	0.73669 0.38417 0.03826 0.15500
H 	H 	0.63233 0.22928 0.86790 0.18000
Cu	Cu	0.73229 0.33538 0.38917 0.92700
Cu	Cu	0.73083 0.26974 0.53304 0.86600
Cu	Cu	0.65594 0.31214 0.51792 0.89400
Cu	Cu	0.62567 0.35141 0.37914 0.89400
C 	C 	0.66845 0.32631 0.24144 0.19400
O 	O 	0.77756 0.42543 0.40116 -0.36200
C 	C 	0.70686 0.30919 0.67219 0.19300
O 	O 	0.64047 0.29658 0.40565 -0.63700
O 	O 	0.74052 0.33928 0.50324 -0.64000
O 	O 	0.76574 0.28905 0.36621 -0.36800
O 	O 	0.70114 0.22009 0.43403 -0.44500
O 	O 	0.65431 0.35928 0.27734 -0.35800
O 	O 	0.57084 0.27932 0.52629 -0.38000
C 	C 	0.53309 0.28202 0.47648 0.30800
C 	C 	0.75897 0.45255 0.44103 0.30300
O 	O 	0.70607 0.42060 0.46472 -0.39600
O 	O 	0.55452 0.32356 0.43326 -0.39400
O 	O 	0.70781 0.31884 0.27831 -0.32300
C 	C 	0.73817 0.23570 0.38357 0.31300
O 	O 	0.67430 0.32321 0.63221 -0.33800
O 	O 	0.74422 0.30090 0.64031 -0.38700
H 	H 	0.60779 0.25435 0.38111 0.16300
H 	H 	0.77469 0.37809 0.53628 0.17800
C 	C 	0.82531 0.62384 0.42637 -0.01000
C 	C 	0.83732 0.66391 0.49233 -0.02800
C 	C 	0.84705 0.69740 0.34612 -0.04500
C 	C 	0.82988 0.64062 0.35320 -0.03000
C 	C 	0.80358 0.56396 0.43273 0.04500
C 	C 	0.78535 0.51373 0.43737 -0.11200
H 	H 	0.83322 0.65106 0.54897 0.04100
H 	H 	0.81998 0.60967 0.30179 0.03500
C 	C 	0.84237 0.06479 0.33692 0.01500
C 	C 	0.78760 0.04420 0.36507 -0.04500
C 	C 	0.76371 0.07703 0.36483 -0.03000
C 	C 	0.79450 0.13068 0.33656 -0.01200
C 	C 	0.84716 0.14938 0.30403 -0.02900
C 	C 	0.87100 0.11645 0.30410 -0.04500
C 	C 	0.77648 0.16969 0.34988 0.04800
C 	C 	0.75939 0.20050 0.36270 -0.12100
C 	C 	0.87311 0.03727 0.35028 0.00500
C 	C 	0.89945 0.01480 0.36102 -0.04100
H 	H 	0.76488 0.00409 0.38993 0.04300
H 	H 	0.72270 0.06198 0.38951 0.03600
H 	H 	0.87085 0.19041 0.28119 0.04100
H 	H 	0.91291 0.13227 0.28124 0.04500
C 	C 	0.25427 0.17557 0.47869 -0.04400
C 	C 	0.31898 0.20995 0.48976 -0.02800
C 	C 	0.34797 0.18218 0.47908 -0.00900
C 	C 	0.31213 0.11987 0.45983 -0.02900
C 	C 	0.24752 0.08554 0.44881 -0.04400
C 	C 	0.41355 0.21762 0.47971 0.04700
C 	C 	0.46845 0.24699 0.48014 -0.10900
H 	H 	0.23208 0.19734 0.48566 0.04500
H 	H 	0.34641 0.25814 0.50466 0.04100
H 	H 	0.33422 0.09812 0.45141 0.03700
C 	C 	0.78050 0.62832 0.93192 -0.01700
C 	C 	0.76104 0.65742 0.97468 0.00700
C 	C 	0.82915 0.66032 0.89148 -0.02400
C 	C 	0.75339 0.56674 0.93403 0.06000
C 	C 	0.72988 0.51514 0.93680 -0.10400
H 	H 	0.72321 0.63286 0.00577 0.00500
H 	H 	0.84424 0.63805 0.85803 0.04100
C 	C 	0.91044 0.12637 0.05876 0.01800
C 	C 	0.85686 0.10323 0.09096 -0.04900
C 	C 	0.83045 0.13376 0.09553 -0.03100
C 	C 	0.85763 0.18755 0.06802 -0.01300
C 	C 	0.91338 0.21249 0.04055 -0.03200
C 	C 	0.93969 0.18195 0.03588 -0.05000
C 	C 	0.82444 0.21288 0.05823 0.03800
C 	C 	0.79749 0.23486 0.04945 -0.11900
C 	C 	0.93172 0.09059 0.04177 -0.01200
C 	C 	0.95017 0.06126 0.02712 -0.02800
H 	H 	0.83451 0.06072 0.10998 0.04300
H 	H 	0.78776 0.11454 0.11779 0.03900
H 	H 	0.93494 0.25429 0.01976 0.02900
H 	H 	0.98150 0.20045 0.01172 0.03800
C 	C 	0.35040 0.14194 0.93201 -0.00600
C 	C 	0.32301 0.16844 0.90493 -0.02700
C 	C 	0.26169 0.14419 0.91148 -0.04100
C 	C 	0.22757 0.09337 0.94502 0.02000
C 	C 	0.25435 0.06586 0.96987 -0.04100
C 	C 	0.31563 0.09013 0.96345 -0.02600
C 	C 	0.41584 0.17175 0.93627 0.05100
C 	C 	0.47064 0.19667 0.93987 -0.10300
H 	H 	0.34965 0.20860 0.88068 0.04300
H 	H 	0.24108 0.16537 0.89150 0.04900
H 	H 	0.22801 0.02619 0.99517 0.05000
H 	H 	0.33653 0.06951 0.98466 0.04600
N 	N 	0.93194 0.96575 0.99628 -0.11000
C 	C 	0.95146 0.93260 0.97369 0.13900
N 	N 	0.90364 0.93231 0.37894 -0.14000
C 	C 	0.93684 0.91127 0.39700 0.13300
C 	C 	0.85449 0.72072 0.48524 -0.04300
C 	C 	0.85968 0.73771 0.41215 0.01600
C 	C 	0.88497 0.79855 0.40631 0.00400
C 	C 	0.90613 0.84944 0.40131 -0.03800
H 	H 	0.86468 0.75177 0.53670 0.04600
H 	H 	0.85149 0.71035 0.28953 0.04000
C 	C 	0.79170 0.71876 0.97940 -0.00800
C 	C 	0.84187 0.75117 0.94134 0.00900
C 	C 	0.85977 0.72162 0.89615 -0.03900
C 	C 	0.87845 0.81519 0.95406 0.01900
C 	C 	0.91038 0.86882 0.96319 -0.03300
H 	H 	0.77749 0.74128 0.01424 0.01200
H 	H 	0.89843 0.74640 0.86637 0.04700
