data_crystal

_cell_length_a 21.88457
_cell_length_b 23.25727
_cell_length_c 39.25468
_cell_angle_alpha 60.93082
_cell_angle_beta  118.78985
_cell_angle_gamma 133.25547

_symmetry_space_group_name_	'P 1'
_symmetry_space_group_name_H-M	'P 1'

loop_
_symmetry_equiv_pos_as_xyz
  x,y,z

loop_
_atom_site_label
_atom_site_type_symbol
_atom_site_fract_x
_atom_site_fract_y
_atom_site_fract_z
_atom_site_charge
H 	H 	0.15013 0.50339 0.17868 0.05600
H 	H 	0.14951 0.50253 0.67872 0.05600
Co	Co	0.07108 0.02284 0.05319 1.15900
Co	Co	0.02596 0.08770 0.09154 1.17400
C 	C 	0.23018 0.03171 0.07184 0.25000
Co	Co	0.06626 0.88443 0.04767 1.17300
O 	O 	0.08767 0.12121 0.05239 -0.47300
C 	C 	0.12031 0.18177 0.15568 0.31600
C 	C 	0.06692 0.78650 0.13116 0.32500
O 	O 	0.10214 0.98295 0.99863 -0.34400
O 	O 	0.06616 0.11987 0.17851 -0.41400
O 	O 	0.12886 0.17070 0.12823 -0.38700
O 	O 	0.03551 0.78146 0.09418 -0.40900
O 	O 	0.06022 0.82736 0.14199 -0.38200
O 	O 	0.03076 0.92385 0.06810 -0.73500
O 	O 	0.18958 0.95283 0.07971 -0.34200
O 	O 	0.19953 0.06175 0.07530 -0.39400
Co	Co	0.07235 0.02327 0.55349 1.16100
Co	Co	0.02712 0.08850 0.59157 1.17400
C 	C 	0.23032 0.02974 0.57307 0.25000
Co	Co	0.06582 0.88404 0.54761 1.17400
O 	O 	0.09006 0.12203 0.55300 -0.47200
C 	C 	0.12060 0.18094 0.65635 0.31600
C 	C 	0.06360 0.78449 0.63074 0.32500
O 	O 	0.10397 0.98338 0.49912 -0.34700
O 	O 	0.06542 0.11897 0.67871 -0.41300
O 	O 	0.12967 0.17004 0.62902 -0.38700
O 	O 	0.03283 0.78016 0.59367 -0.40900
O 	O 	0.05737 0.82571 0.64157 -0.38200
O 	O 	0.03051 0.92394 0.56785 -0.73500
O 	O 	0.18877 0.95080 0.58044 -0.34100
O 	O 	0.20010 0.06019 0.57651 -0.39300
H 	H 	0.11725 0.05043 0.76193 0.04600
H 	H 	0.13439 0.13107 0.91501 0.02400
C 	C 	0.08608 0.05719 0.37648 -0.07500
C 	C 	0.09411 0.07237 0.40983 0.02000
C 	C 	0.15063 0.11541 0.35476 -0.01800
C 	C 	0.14395 0.10111 0.32194 -0.05300
C 	C 	0.07473 0.02663 0.31118 -0.01800
C 	C 	0.06843 0.01329 0.27762 -0.08700
H 	H 	0.15300 0.12633 0.42022 0.02900
H 	H 	0.20589 0.17267 0.36297 0.03300
H 	H 	0.19359 0.14801 0.30508 0.04300
H 	H 	0.11430 0.06248 0.25891 0.05500
C 	C 	0.19666 0.39063 0.66363 -0.02500
C 	C 	0.17485 0.32214 0.65795 0.06300
C 	C 	0.15444 0.26087 0.65537 -0.11600
C 	C 	0.18304 0.67822 0.68049 -0.01700
C 	C 	0.14431 0.71557 0.67170 0.06700
C 	C 	0.10923 0.74855 0.65765 -0.10200
C 	C 	0.19671 0.39100 0.16361 -0.02500
C 	C 	0.17464 0.32283 0.15746 0.06300
C 	C 	0.15413 0.26169 0.15469 -0.11600
C 	C 	0.11226 0.75031 0.15816 -0.10300
C 	C 	0.14703 0.71701 0.17235 0.06600
C 	C 	0.18537 0.67917 0.18136 -0.01800
C 	C 	0.72423 0.31349 0.00827 0.04500
C 	C 	0.76799 0.39370 0.00954 -0.08100
C 	C 	0.72206 0.41609 0.00933 0.04700
C 	C 	0.63352 0.35992 0.00645 -0.08300
C 	C 	0.59249 0.27865 0.01007 0.04700
C 	C 	0.63671 0.25555 0.00960 -0.08300
H 	H 	0.83700 0.43714 0.01184 0.05800
H 	H 	0.59831 0.37758 0.00609 0.05900
H 	H 	0.60453 0.19222 0.01220 0.05100
C 	C 	0.72534 0.31371 0.50907 0.04500
C 	C 	0.76839 0.39410 0.50981 -0.08000
C 	C 	0.72224 0.41573 0.51011 0.04800
C 	C 	0.63417 0.35855 0.50839 -0.08200
C 	C 	0.59391 0.27737 0.51224 0.04800
C 	C 	0.63835 0.25499 0.51130 -0.08200
H 	H 	0.83707 0.43830 0.51127 0.05900
H 	H 	0.59880 0.37560 0.50847 0.05900
H 	H 	0.60677 0.19170 0.51413 0.05200
C 	C 	0.26442 0.62484 0.18597 0.04800
C 	C 	0.35262 0.68232 0.18602 -0.07900
C 	C 	0.39580 0.66132 0.18272 0.05100
C 	C 	0.35292 0.58222 0.18177 -0.08100
C 	C 	0.26436 0.52610 0.17875 0.04800
C 	C 	0.21920 0.54664 0.18121 -0.07900
H 	H 	0.38638 0.74412 0.18679 0.06500
H 	H 	0.38748 0.56621 0.17993 0.06000
C 	C 	0.26282 0.62521 0.68445 0.04800
C 	C 	0.35048 0.68360 0.68349 -0.07900
C 	C 	0.39373 0.66334 0.67963 0.05100
C 	C 	0.35152 0.58424 0.67893 -0.08100
C 	C 	0.26348 0.52692 0.67724 0.04800
C 	C 	0.21822 0.54667 0.68031 -0.07900
H 	H 	0.38373 0.74543 0.68400 0.06500
H 	H 	0.38613 0.56888 0.67659 0.06100
Co	Co	0.93150 0.92174 0.14342 1.19700
Co	Co	0.97265 0.85646 0.10356 1.18500
Co	Co	0.93696 0.05650 0.15193 1.15400
C 	C 	0.88142 0.75879 0.04090 0.31300
O 	O 	0.96309 0.15987 0.10580 -0.41300
O 	O 	0.96373 0.01836 0.12571 -0.79000
C 	C 	0.93231 0.15777 0.06824 0.32200
O 	O 	0.91703 0.82407 0.14509 -0.45900
C 	C 	0.77007 0.90572 0.13251 0.31600
O 	O 	0.97743 0.96668 0.08874 -0.55100
C 	C 	0.05319 0.00733 0.97545 0.24800
O 	O 	0.94847 0.12871 0.05435 -0.39000
O 	O 	0.02893 0.02676 0.99108 -0.38100
O 	O 	0.81200 0.98532 0.12235 -0.36400
O 	O 	0.80195 0.87054 0.13525 -0.36900
C 	C 	0.96461 0.94077 0.22252 0.28000
O 	O 	0.90996 0.95893 0.20163 -0.38000
O 	O 	0.99312 0.93097 0.20389 -0.36300
O 	O 	0.93806 0.82256 0.01930 -0.39100
O 	O 	0.87531 0.76472 0.07135 -0.36900
Co	Co	0.92990 0.92196 0.64246 1.19700
Co	Co	0.97117 0.85642 0.60282 1.18500
Co	Co	0.93664 0.05732 0.65121 1.15400
C 	C 	0.88051 0.76011 0.53958 0.31300
O 	O 	0.96512 0.16170 0.60556 -0.41300
O 	O 	0.96358 0.01902 0.62519 -0.79000
C 	C 	0.93512 0.16038 0.56792 0.32200
O 	O 	0.91445 0.82391 0.64388 -0.45900
C 	C 	0.76912 0.90807 0.63044 0.31600
O 	O 	0.97755 0.96743 0.58827 -0.55000
C 	C 	0.05626 0.00910 0.47576 0.24800
O 	O 	0.95112 0.13112 0.55407 -0.39000
O 	O 	0.03219 0.02895 0.49125 -0.38500
O 	O 	0.81207 0.98778 0.62076 -0.36400
O 	O 	0.80043 0.87229 0.63326 -0.36900
C 	C 	0.96082 0.93938 0.72158 0.28100
O 	O 	0.90719 0.95873 0.70038 -0.38100
O 	O 	0.98962 0.92936 0.70322 -0.36300
O 	O 	0.93805 0.82388 0.51842 -0.38800
O 	O 	0.87380 0.76584 0.56991 -0.36800
C 	C 	0.99190 0.93495 0.76544 -0.00400
C 	C 	0.06791 0.00510 0.77893 -0.06100
C 	C 	0.07783 0.02053 0.81257 -0.08700
C 	C 	0.01043 0.96636 0.83294 0.03600
C 	C 	0.93904 0.89094 0.82248 0.02000
C 	C 	0.93099 0.87536 0.78929 -0.03000
C 	C 	0.87520 0.83220 0.84457 -0.04700
C 	C 	0.88068 0.84718 0.87674 -0.01600
C 	C 	0.94876 0.92225 0.88698 -0.03100
C 	C 	0.01317 0.98384 0.86457 0.08700
C 	C 	0.07602 0.06138 0.87334 -0.13900
C 	C 	0.08157 0.07323 0.90704 0.04300
C 	C 	0.02337 0.00924 0.93196 -0.13800
C 	C 	0.95366 0.93578 0.92004 0.06200
H 	H 	0.13837 0.07347 0.82280 0.04400
H 	H 	0.87331 0.81981 0.77993 0.04800
H 	H 	0.82098 0.77418 0.83693 0.04800
H 	H 	0.83113 0.80011 0.89364 0.04200
H 	H 	0.11958 0.11302 0.85409 0.05900
H 	H 	0.90665 0.88683 0.93821 0.03900
C 	C 	0.02996 0.01463 0.43199 -0.13900
C 	C 	0.95293 0.94632 0.41732 0.08600
C 	C 	0.94422 0.93055 0.38417 -0.09300
C 	C 	0.01341 0.98290 0.36520 0.08600
C 	C 	0.01066 0.96518 0.33374 0.03400
C 	C 	0.94862 0.88723 0.32559 -0.04100
C 	C 	0.94275 0.87485 0.29202 -0.01000
C 	C 	0.99861 0.93933 0.26609 -0.00100
H 	H 	0.90159 0.90242 0.43312 0.03300
H 	H 	0.88313 0.87889 0.37308 0.06000
H 	H 	0.90608 0.83566 0.34533 0.04400
H 	H 	0.89054 0.81641 0.28460 0.04200
C 	C 	0.22073 0.45043 0.66968 -0.01400
C 	C 	0.47665 0.72513 0.67018 -0.01100
C 	C 	0.54432 0.77067 0.66091 -0.01700
C 	C 	0.62183 0.81883 0.64951 0.07000
C 	C 	0.68825 0.85876 0.64016 -0.10100
C 	C 	0.21704 0.65049 0.68372 -0.01200
C 	C 	0.22110 0.45036 0.17025 -0.01500
C 	C 	0.47888 0.72265 0.17345 -0.01100
C 	C 	0.54646 0.76790 0.16415 -0.01700
C 	C 	0.62365 0.81592 0.15250 0.07000
C 	C 	0.68969 0.85596 0.14280 -0.10200
C 	C 	0.21904 0.65092 0.18483 -0.01200
C 	C 	0.77274 0.28813 0.51207 -0.01600
C 	C 	0.80984 0.26211 0.51708 -0.02600
C 	C 	0.85252 0.22771 0.52747 0.06000
C 	C 	0.88970 0.19669 0.54200 -0.11500
C 	C 	0.76529 0.49207 0.51767 -0.01500
C 	C 	0.79166 0.55208 0.52436 -0.02200
C 	C 	0.81757 0.62076 0.53163 0.06300
C 	C 	0.84203 0.68171 0.53648 -0.10700
C 	C 	0.30987 0.08315 0.56131 -0.10500
C 	C 	0.37450 0.12453 0.55007 0.04700
C 	C 	0.44918 0.17251 0.53625 -0.02500
C 	C 	0.51410 0.21698 0.52470 -0.02100
C 	C 	0.77120 0.28711 0.01169 -0.01700
C 	C 	0.80794 0.26053 0.01698 -0.02700
C 	C 	0.85022 0.22560 0.02763 0.05900
C 	C 	0.88710 0.19426 0.04229 -0.11600
C 	C 	0.76550 0.49173 0.01773 -0.01500
C 	C 	0.79213 0.55128 0.02498 -0.02300
C 	C 	0.81827 0.61958 0.03273 0.06300
C 	C 	0.84286 0.68039 0.03779 -0.10900
C 	C 	0.30921 0.08547 0.05960 -0.10600
C 	C 	0.37345 0.12688 0.04804 0.04600
C 	C 	0.44777 0.17464 0.03399 -0.02600
C 	C 	0.51256 0.21877 0.02239 -0.02200
