data_crystal

_cell_length_a 18.44759
_cell_length_b 18.82676
_cell_length_c 34.63271
_cell_angle_alpha 95.43876
_cell_angle_beta  95.43870
_cell_angle_gamma 126.42415

_symmetry_space_group_name_	'P 1'
_symmetry_space_group_name_H-M	'P 1'

loop_
_symmetry_equiv_pos_as_xyz
  x,y,z

loop_
_atom_site_label
_atom_site_type_symbol
_atom_site_fract_x
_atom_site_fract_y
_atom_site_fract_z
_atom_site_charge
C 	C 	0.92070 1.00001 0.95873 0.12400
N 	N 	0.01139 0.05144 0.95729 -0.13900
C 	C 	0.05624 0.01481 0.95750 0.11800
N 	N 	0.00988 0.92603 0.95771 -0.13200
C 	C 	0.91899 0.87373 0.95854 0.11300
N 	N 	0.87432 0.91093 0.95978 -0.14200
C 	C 	0.93153 0.03173 0.49531 0.10800
N 	N 	0.02206 0.07243 0.49602 -0.13800
C 	C 	0.05447 0.02395 0.49780 0.12200
N 	N 	0.99628 0.93495 0.49864 -0.14400
C 	C 	0.90620 0.89472 0.49850 0.12100
N 	N 	0.87377 0.94297 0.49662 -0.13700
Cu	Cu	0.77641 0.35065 0.95992 0.92500
Cu	Cu	0.76742 0.28843 0.04580 0.86700
Cu	Cu	0.63027 0.30792 0.00894 0.89700
Cu	Cu	0.60350 0.33929 0.92749 0.89300
C 	C 	0.70694 0.30942 0.87668 0.29400
O 	O 	0.82652 0.48003 0.95664 -0.36200
C 	C 	0.68029 0.33248 0.09532 0.29000
O 	O 	0.63302 0.27531 0.95509 -0.63900
O 	O 	0.76487 0.36872 0.01558 -0.64000
O 	O 	0.84165 0.29587 0.96653 -0.37300
O 	O 	0.74319 0.20109 0.00360 -0.44000
O 	O 	0.67164 0.35192 0.88400 -0.38900
O 	O 	0.49844 0.23995 0.00020 -0.38600
C 	C 	0.44673 0.23096 0.96811 0.29900
C 	C 	0.78383 0.51280 0.96795 0.28800
O 	O 	0.69853 0.45781 0.97247 -0.39600
O 	O 	0.48213 0.28563 0.94269 -0.39500
O 	O 	0.76417 0.31373 0.90458 -0.36600
C 	C 	0.80459 0.22229 0.98147 0.29600
O 	O 	0.62900 0.33144 0.06548 -0.38100
O 	O 	0.75728 0.34523 0.09128 -0.42200
H 	H 	0.59423 0.20978 0.94482 0.15900
H 	H 	0.80323 0.43201 0.02961 0.17100
Cu	Cu	0.60387 0.20008 0.50532 0.92700
Cu	Cu	0.67081 0.22314 0.42014 0.86600
Cu	Cu	0.64027 0.34608 0.46015 0.89600
Cu	Cu	0.60450 0.36009 0.54142 0.89300
C 	C 	0.64197 0.25894 0.58903 0.29400
O 	O 	0.47106 0.14360 0.50851 -0.36500
C 	C 	0.61538 0.30536 0.37322 0.29200
O 	O 	0.67493 0.34015 0.51299 -0.64100
O 	O 	0.58455 0.21569 0.45065 -0.64200
O 	O 	0.66369 0.14190 0.49610 -0.37800
O 	O 	0.76088 0.24642 0.46181 -0.44600
O 	O 	0.59435 0.28960 0.58291 -0.38800
O 	O 	0.70385 0.47409 0.47162 -0.39300
C 	C 	0.69461 0.51824 0.50023 0.30400
C 	C 	0.43304 0.18134 0.49746 0.29000
O 	O 	0.48508 0.26698 0.49545 -0.39900
O 	O 	0.65641 0.48231 0.53041 -0.39900
O 	O 	0.64157 0.20773 0.56007 -0.36800
C 	C 	0.74120 0.18504 0.48299 0.30000
O 	O 	0.61544 0.35191 0.40440 -0.38700
O 	O 	0.61026 0.23310 0.37558 -0.42400
H 	H 	0.74179 0.38050 0.52349 0.16200
H 	H 	0.52025 0.17636 0.43619 0.17100
C 	C 	0.61904 0.21824 0.76719 -0.09000
C 	C 	0.70147 0.25459 0.75355 0.00200
C 	C 	0.78375 0.29539 0.78090 0.02400
C 	C 	0.78413 0.30916 0.82153 -0.01500
C 	C 	0.70262 0.27880 0.83507 -0.10400
C 	C 	0.61852 0.22715 0.80783 0.09100
C 	C 	0.70246 0.25839 0.71103 0.00200
C 	C 	0.87197 0.32857 0.76693 -0.17200
H 	H 	0.84839 0.34647 0.84246 0.04400
C 	C 	0.52851 0.18441 0.82175 -0.19700
H 	H 	0.55552 0.18486 0.74614 0.05000
C 	C 	0.66345 0.17989 0.68264 0.02400
C 	C 	0.64791 0.18167 0.64235 -0.01500
C 	C 	0.67465 0.26175 0.63016 -0.10600
C 	C 	0.72459 0.34256 0.65833 0.09100
C 	C 	0.73513 0.33964 0.69866 -0.09000
C 	C 	0.63420 0.09328 0.69519 -0.17200
H 	H 	0.61204 0.12009 0.62067 0.04400
C 	C 	0.76377 0.43146 0.64575 -0.19700
H 	H 	0.76716 0.40034 0.72049 0.05000
H 	H 	0.47065 0.12709 0.79904 0.06300
H 	H 	0.51585 0.23478 0.82780 0.06100
H 	H 	0.52899 0.15773 0.84897 0.05400
H 	H 	0.90037 0.39321 0.75694 0.06200
H 	H 	0.85987 0.27858 0.74214 0.06200
H 	H 	0.92386 0.33935 0.79092 0.06000
H 	H 	0.62425 0.04484 0.67023 0.06100
H 	H 	0.56858 0.06208 0.70595 0.06200
H 	H 	0.68740 0.10602 0.71907 0.06200
H 	H 	0.70952 0.44034 0.64052 0.06100
H 	H 	0.79168 0.43493 0.61835 0.05400
H 	H 	0.82096 0.48825 0.66885 0.06200
C 	C 	0.63965 0.27682 0.19711 -0.09000
C 	C 	0.62380 0.33702 0.21252 0.00200
C 	C 	0.62191 0.39301 0.18869 0.02400
C 	C 	0.64015 0.39063 0.15027 -0.01500
C 	C 	0.65736 0.33121 0.13507 -0.10600
C 	C 	0.65355 0.27137 0.15817 0.08900
C 	C 	0.61172 0.34230 0.25413 0.00200
C 	C 	0.60266 0.45661 0.20437 -0.17200
H 	H 	0.64199 0.43573 0.13237 0.03900
C 	C 	0.66541 0.20243 0.14172 -0.19400
H 	H 	0.64062 0.23370 0.21546 0.04700
C 	C 	0.53026 0.27242 0.26525 0.02200
C 	C 	0.52996 0.26421 0.30511 -0.01400
C 	C 	0.60841 0.32732 0.33402 -0.11000
C 	C 	0.68517 0.40406 0.32344 0.09200
C 	C 	0.68694 0.41008 0.28338 -0.09300
C 	C 	0.44578 0.20306 0.23452 -0.17100
H 	H 	0.46996 0.20675 0.31344 0.03400
C 	C 	0.76729 0.47681 0.35448 -0.20300
H 	H 	0.74844 0.46523 0.27483 0.04800
H 	H 	0.64142 0.14953 0.15994 0.05900
H 	H 	0.73900 0.23561 0.14126 0.05600
H 	H 	0.62469 0.16834 0.11132 0.04800
H 	H 	0.66154 0.51179 0.22737 0.06200
H 	H 	0.53970 0.42029 0.21737 0.06200
H 	H 	0.59169 0.48682 0.18062 0.06000
H 	H 	0.38338 0.16730 0.24794 0.05800
H 	H 	0.45325 0.15299 0.22019 0.06100
H 	H 	0.43531 0.23541 0.21172 0.06300
H 	H 	0.81817 0.53555 0.34179 0.06500
H 	H 	0.80153 0.45018 0.36796 0.05600
H 	H 	0.74545 0.50104 0.37781 0.08000
C 	C 	0.80089 0.67646 0.53529 -0.02900
C 	C 	0.73868 0.61413 0.50124 -0.10800
C 	C 	0.72433 0.64475 0.46765 0.12100
C 	C 	0.77888 0.73728 0.46757 -0.07600
C 	C 	0.84419 0.79934 0.50097 -0.03200
C 	C 	0.85276 0.76901 0.53572 0.07700
N 	N 	0.90973 0.82824 0.56961 -0.19400
H 	H 	0.81014 0.65287 0.56133 0.03800
H 	H 	0.77072 0.76105 0.44138 0.05300
N 	N 	0.65706 0.58602 0.43592 -0.20200
H 	H 	0.91812 0.80523 0.59471 0.07900
H 	H 	0.94341 0.89716 0.57190 0.08700
H 	H 	0.60840 0.51819 0.43686 0.09400
H 	H 	0.65002 0.60886 0.41051 0.08400
C 	C 	0.87934 0.11326 0.52677 -0.08000
C 	C 	0.89550 0.08305 0.49245 -0.02800
C 	C 	0.86761 0.09348 0.45529 0.07100
C 	C 	0.81954 0.12958 0.45301 -0.02700
C 	C 	0.79967 0.15603 0.48714 -0.11700
C 	C 	0.83336 0.15160 0.52459 0.12400
N 	N 	0.82403 0.18602 0.55844 -0.20300
H 	H 	0.90220 0.10648 0.55526 0.05100
H 	H 	0.79559 0.13513 0.42444 0.01900
N 	N 	0.88578 0.06807 0.42170 -0.19400
H 	H 	0.84514 0.17855 0.58585 0.08400
H 	H 	0.80032 0.22438 0.55810 0.09700
H 	H 	0.92340 0.04311 0.42241 0.08500
H 	H 	0.86338 0.07454 0.39431 0.07400
C 	C 	0.18957 0.09987 0.46530 -0.07400
C 	C 	0.15240 0.06751 0.49867 -0.03400
C 	C 	0.20675 0.06898 0.53095 0.08000
C 	C 	0.29616 0.09957 0.52850 -0.03300
C 	C 	0.33392 0.13328 0.49541 -0.10500
C 	C 	0.27943 0.13137 0.46302 0.11500
N 	N 	0.31186 0.15691 0.42929 -0.20100
H 	H 	0.14738 0.09768 0.44044 0.05200
H 	H 	0.33824 0.10167 0.55338 0.04800
N 	N 	0.17473 0.04423 0.56485 -0.19500
H 	H 	0.27239 0.15820 0.40604 0.08200
H 	H 	0.37466 0.17214 0.42514 0.08100
H 	H 	0.11297 0.03102 0.56940 0.08900
H 	H 	0.21382 0.04199 0.58791 0.08200
C 	C 	0.84314 0.63757 0.93097 -0.03400
C 	C 	0.82346 0.60742 0.96678 -0.10400
C 	C 	0.82681 0.66260 0.99887 0.11500
C 	C 	0.84827 0.74619 0.99415 -0.07600
C 	C 	0.86997 0.77708 0.95861 -0.03200
C 	C 	0.86404 0.72082 0.92625 0.07800
N 	N 	0.87697 0.74581 0.89043 -0.19500
H 	H 	0.83824 0.59439 0.90609 0.04700
H 	H 	0.85341 0.78955 0.01902 0.05200
N 	N 	0.81268 0.63724 0.03459 -0.20100
H 	H 	0.87572 0.70556 0.86700 0.08200
H 	H 	0.88493 0.80355 0.88511 0.08700
H 	H 	0.80525 0.57991 0.04017 0.08300
H 	H 	0.81245 0.67692 0.05775 0.08200
C 	C 	0.82601 0.12641 0.93732 -0.03200
C 	C 	0.83619 0.16655 0.97572 -0.10500
C 	C 	0.86719 0.14531 0.00851 0.10800
C 	C 	0.88317 0.08124 0.00221 -0.07000
C 	C 	0.87618 0.04352 0.96387 -0.04100
C 	C 	0.84532 0.06467 0.93106 0.07900
N 	N 	0.83329 0.02541 0.89357 -0.19900
H 	H 	0.80119 0.14174 0.91224 0.04600
H 	H 	0.90772 0.06566 0.02729 0.04500
N 	N 	0.88587 0.18915 0.04590 -0.19800
H 	H 	0.81281 0.04300 0.86943 0.08100
H 	H 	0.84165 0.97540 0.88806 0.09200
H 	H 	0.88744 0.24560 0.05124 0.04300
H 	H 	0.90434 0.17008 0.07005 0.07100
C 	C 	0.19172 0.06196 0.92809 -0.07400
C 	C 	0.15597 0.07217 0.96027 -0.03200
C 	C 	0.21604 0.13263 0.99566 0.07900
C 	C 	0.31102 0.18383 0.99759 -0.03000
C 	C 	0.34682 0.17332 0.96548 -0.10400
C 	C 	0.28666 0.11032 0.93065 0.11400
N 	N 	0.31933 0.09392 0.90016 -0.20100
H 	H 	0.14532 0.01435 0.90131 0.05100
H 	H 	0.35732 0.23201 0.02426 0.04900
N 	N 	0.18313 0.14068 0.02803 -0.19500
H 	H 	0.27454 0.04973 0.87403 0.07900
H 	H 	0.38854 0.12164 0.90259 0.07200
H 	H 	0.11307 0.09989 0.02854 0.09200
H 	H 	0.22822 0.18697 0.05367 0.08300
