data_crystal

_cell_length_a 20.31636
_cell_length_b 21.41955
_cell_length_c 31.08955
_cell_angle_alpha 60.85532
_cell_angle_beta  118.84434
_cell_angle_gamma 133.25344

_symmetry_space_group_name_	'P 1'
_symmetry_space_group_name_H-M	'P 1'

loop_
_symmetry_equiv_pos_as_xyz
  x,y,z

loop_
_atom_site_label
_atom_site_type_symbol
_atom_site_fract_x
_atom_site_fract_y
_atom_site_fract_z
_atom_site_charge
Co	Co	0.00584 0.09347 0.09663 1.20100
C 	C 	0.00699 0.99961 0.26922 0.45000
C 	C 	0.00143 0.97605 0.32208 -0.08300
O 	O 	0.02149 0.20829 0.14235 -0.32600
C 	C 	0.03962 0.00642 0.77524 0.26200
F 	F 	0.07809 0.69977 0.71741 -0.38200
F 	F 	0.02685 0.30253 0.03279 -0.41900
F 	F 	0.04403 0.41126 0.04156 -0.38000
O 	O 	0.00889 0.00601 0.97823 -0.30500
O 	O 	0.02240 0.07546 0.23895 -0.33500
Co	Co	0.04362 0.87577 0.63935 1.20800
O 	O 	0.04558 0.99214 0.62459 -0.50900
O 	O 	0.03940 0.95474 0.76229 -0.21700
O 	O 	0.04461 0.77243 0.59655 -0.34100
C 	C 	0.04308 0.99045 0.82853 -0.00400
H 	H 	0.00750 0.64195 0.16675 0.12500
C 	C 	0.02135 0.02712 0.38568 0.28300
Co	Co	0.05422 0.01496 0.05461 1.17600
O 	O 	0.06093 0.12052 0.04442 -0.39000
O 	O 	0.02971 0.91296 0.08458 -0.71700
Co	Co	0.05313 0.01764 0.54647 1.17800
O 	O 	0.02578 0.10089 0.53494 -0.36400
O 	O 	0.06747 0.93609 0.58134 -0.72200
C 	C 	0.05894 0.04814 0.88717 0.30600
C 	C 	0.04704 0.04420 0.34452 0.25500
F 	F 	0.03128 0.50487 0.15097 -0.40300
O 	O 	0.02562 0.06541 0.74058 -0.32300
Co	Co	0.07113 0.87004 0.06121 1.19200
C 	C 	0.05123 0.21121 0.63517 0.33300
C 	C 	0.08284 0.06232 0.84596 0.22700
F 	F 	0.06068 0.09530 0.40350 -0.32600
C 	C 	0.16685 0.72302 0.74275 0.78600
C 	C 	0.05249 0.58871 0.12691 0.80200
F 	F 	0.16078 0.64912 0.77890 -0.34700
C 	C 	0.10531 0.23968 0.14461 0.32700
O 	O 	0.08521 0.82499 0.18560 -0.27500
Co	Co	0.10414 0.89943 0.54973 1.19700
O 	O 	0.07746 0.18914 0.61643 -0.29800
F 	F 	0.09416 0.11867 0.90113 -0.30000
F 	F 	0.09681 0.23522 0.24840 -0.40500
C 	C 	0.08098 0.67262 0.17707 0.06300
O 	O 	0.11768 0.19773 0.13203 -0.32400
F 	F 	0.09570 0.62706 0.08883 -0.38700
C 	C 	0.13268 0.81968 0.17084 0.30300
F 	F 	0.12006 0.12605 0.32840 -0.26800
H 	H 	0.13457 0.25849 0.72183 0.12100
C 	C 	0.11474 0.64463 0.16510 -0.09900
F 	F 	0.16935 0.44399 0.74685 -0.37800
O 	O 	0.16313 0.87622 0.67592 -0.25900
F 	F 	0.14249 0.14634 0.82184 -0.30200
C 	C 	0.13949 0.31253 0.68919 0.08100
C 	C 	0.11004 0.30197 0.64059 0.01400
C 	C 	0.14348 0.74656 0.19743 0.03500
O 	O 	0.16434 0.87467 0.12989 -0.33000
F 	F 	0.14763 0.31358 0.78038 -0.34900
O 	O 	0.17062 0.99839 0.03011 -0.28100
O 	O 	0.16572 0.02316 0.50051 -0.35600
C 	C 	0.11435 0.37183 0.59773 -0.05500
C 	C 	0.16958 0.38973 0.69582 -0.08400
C 	C 	0.18210 0.33069 0.15170 0.03000
C 	C 	0.15110 0.45170 0.60491 0.05100
C 	C 	0.18357 0.46276 0.65377 0.08300
C 	C 	0.08141 0.36191 0.54456 0.79400
F 	F 	0.09311 0.43768 0.50802 -0.36200
H 	H 	0.16056 0.50755 0.57273 0.14400
F 	F 	0.13139 0.34472 0.53955 -0.38200
C 	C 	0.18655 0.28295 0.24486 0.79200
O 	O 	0.00782 0.84502 0.70140 -0.33700
O 	O 	0.18695 0.10938 0.53553 -0.33100
H 	H 	0.19330 0.63428 0.71976 0.14100
C 	C 	0.19410 0.39649 0.74853 0.79000
F 	F 	0.21189 0.78624 0.76774 -0.35600
O 	O 	0.99984 0.94664 0.25349 -0.30800
O 	O 	0.19415 0.07240 0.07519 -0.35100
C 	C 	0.21930 0.75865 0.70531 -0.07000
F 	F 	0.98804 0.29295 0.53548 -0.41800
C 	C 	0.23014 0.70386 0.70049 0.04300
F 	F 	0.71429 0.16975 0.42811 -0.36700
O 	O 	0.96698 0.15739 0.64227 -0.36900
Co	Co	0.98749 0.06968 0.59633 1.18300
F 	F 	0.97052 0.58105 0.10407 -0.45000
C 	C 	0.98950 0.94384 0.96406 0.41600
C 	C 	0.99826 0.96166 0.91325 -0.14500
O 	O 	0.97196 0.86883 0.99643 -0.32900
C 	C 	0.21639 0.89215 0.65317 0.29700
O 	O 	0.97908 0.86028 0.49757 -0.35900
O 	O 	0.22190 0.94100 0.60663 -0.34200
C 	C 	0.26391 0.84837 0.67761 0.03600
C 	C 	0.23206 0.48161 0.10369 -0.06500
C 	C 	0.21077 0.40034 0.10889 0.08300
H 	H 	0.20839 0.38873 0.07777 0.13300
C 	C 	0.25690 0.55386 0.05525 0.79300
F 	F 	0.21958 0.59806 0.04088 -0.34000
F 	F 	0.22278 0.51909 0.01560 -0.34700
F 	F 	0.84204 0.17258 0.46712 -0.36500
F 	F 	0.96764 0.37354 0.96724 -0.32000
F 	F 	0.25397 0.07756 0.95248 -0.40500
C 	C 	0.72310 0.27725 0.05267 0.16900
N 	N 	0.76554 0.36028 0.05493 -0.07800
C 	C 	0.72766 0.37222 0.07400 0.17700
N 	N 	0.65017 0.30203 0.09139 -0.09500
C 	C 	0.60602 0.22072 0.08741 0.19100
N 	N 	0.64490 0.20766 0.07031 -0.09400
C 	C 	0.73242 0.28160 0.54509 0.18500
N 	N 	0.78977 0.36280 0.55491 -0.06600
C 	C 	0.75297 0.39503 0.55763 0.19700
N 	N 	0.66018 0.34596 0.55130 -0.09000
C 	C 	0.60351 0.26497 0.54269 0.19200
N 	N 	0.63912 0.23355 0.53838 -0.09200
C 	C 	0.25581 0.66557 0.16764 0.18000
N 	N 	0.21851 0.58608 0.16265 -0.08100
C 	C 	0.26290 0.58131 0.14360 0.19700
N 	N 	0.34623 0.65417 0.13309 -0.08200
C 	C 	0.38705 0.73079 0.14230 0.19500
N 	N 	0.34029 0.73733 0.15762 -0.10400
C 	C 	0.30984 0.68295 0.67284 0.19200
N 	N 	0.39911 0.71344 0.68257 -0.08000
C 	C 	0.41727 0.66641 0.67865 0.19800
N 	N 	0.34694 0.58574 0.66918 -0.08500
C 	C 	0.25785 0.55279 0.66143 0.19100
N 	N 	0.23856 0.60175 0.66253 -0.08700
Co	Co	0.93558 0.92767 0.17860 1.21400
Co	Co	0.98420 0.84980 0.13652 1.19300
C 	C 	0.22722 0.05930 0.05544 0.25200
Co	Co	0.92466 0.07729 0.17336 1.17200
C 	C 	0.89093 0.70540 0.08915 0.30400
O 	O 	0.83155 0.07448 0.10455 -0.38200
O 	O 	0.95685 0.02867 0.14748 -0.78100
C 	C 	0.86210 0.12892 0.06298 0.29600
O 	O 	0.93250 0.82376 0.18999 -0.36200
C 	C 	0.76667 0.88757 0.18327 0.32300
O 	O 	0.97027 0.96121 0.10767 -0.53900
O 	O 	0.91062 0.12505 0.04819 -0.31600
O 	O 	0.82551 0.95118 0.20664 -0.31900
O 	O 	0.79611 0.86434 0.16817 -0.31600
O 	O 	0.97539 0.73882 0.09126 -0.36800
O 	O 	0.87648 0.74134 0.10526 -0.30600
Co	Co	0.97920 0.92712 0.68948 1.20600
C 	C 	0.21965 0.09511 0.51615 0.32900
Co	Co	0.90659 0.02629 0.68422 1.16000
C 	C 	0.96055 0.72537 0.60195 0.30300
O 	O 	0.79567 0.98484 0.62371 -0.30000
O 	O 	0.96721 0.01004 0.65571 -0.78600
C 	C 	0.80703 0.04183 0.57992 0.26600
C 	C 	0.79816 0.83128 0.70851 0.32900
C 	C 	0.96469 0.91987 0.46465 0.39300
O 	O 	0.86200 0.05990 0.55747 -0.27700
O 	O 	0.96393 0.96787 0.48015 -0.28800
O 	O 	0.84308 0.89706 0.72801 -0.31700
O 	O 	0.83868 0.83432 0.68425 -0.33800
O 	O 	0.93903 0.75904 0.61492 -0.30100
C 	C 	0.95974 0.88986 0.89609 0.32200
C 	C 	0.98510 0.90427 0.85558 0.24800
F 	F 	0.94988 0.83395 0.84139 -0.29400
F 	F 	0.89723 0.80573 0.91866 -0.31500
C 	C 	0.93668 0.88868 0.34533 0.27900
C 	C 	0.91662 0.87071 0.38934 0.31500
C 	C 	0.96064 0.94005 0.41052 -0.14100
F 	F 	0.85549 0.78579 0.41183 -0.31800
F 	F 	0.89371 0.82105 0.32583 -0.30400
F 	F 	0.28872 0.43854 0.76847 -0.37900
C 	C 	0.56777 0.69720 0.73548 0.04700
C 	C 	0.51316 0.70153 0.68608 0.07800
C 	C 	0.54813 0.73232 0.64468 -0.08700
C 	C 	0.64000 0.76366 0.65377 0.07800
C 	C 	0.69717 0.76712 0.70278 0.01000
C 	C 	0.65792 0.72497 0.74442 -0.05700
C 	C 	0.71287 0.71269 0.79833 0.78500
H 	H 	0.53943 0.67105 0.76706 0.13400
H 	H 	0.66931 0.79124 0.62237 0.11000
C 	C 	0.48768 0.73127 0.59108 0.78700
F 	F 	0.65405 0.63992 0.83005 -0.34500
F 	F 	0.76349 0.78694 0.81512 -0.38000
F 	F 	0.77252 0.69911 0.80118 -0.35100
F 	F 	0.44894 0.77275 0.57942 -0.35400
F 	F 	0.41746 0.64487 0.58702 -0.38400
F 	F 	0.53820 0.77480 0.55562 -0.36600
C 	C 	0.29080 0.73940 0.67218 0.07400
C 	C 	0.34122 0.83130 0.64840 -0.09500
C 	C 	0.33645 0.88566 0.65796 0.07400
H 	H 	0.37957 0.95660 0.64280 0.14200
C 	C 	0.39451 0.87083 0.61014 0.78900
F 	F 	0.34743 0.81285 0.58094 -0.37100
F 	F 	0.48201 0.88991 0.63507 -0.37600
F 	F 	0.40480 0.94837 0.57750 -0.38400
C 	C 	0.21577 0.42862 0.18971 0.05500
C 	C 	0.23110 0.49432 0.14441 0.07400
C 	C 	0.19872 0.35010 0.19483 -0.08000
H 	H 	0.21986 0.43966 0.22174 0.12000
F 	F 	0.24827 0.32439 0.28433 -0.35000
F 	F 	0.20306 0.22703 0.24915 -0.38700
F 	F 	0.35248 0.61303 0.06278 -0.37200
C 	C 	0.53826 0.78360 0.20190 0.04100
C 	C 	0.48785 0.79275 0.15176 0.07000
C 	C 	0.53211 0.83933 0.11183 -0.09000
C 	C 	0.62046 0.86152 0.12249 0.07900
C 	C 	0.66745 0.84428 0.17268 0.00700
C 	C 	0.62453 0.80187 0.21277 -0.06000
C 	C 	0.67050 0.77616 0.26708 0.78100
H 	H 	0.50556 0.75306 0.23239 0.11600
H 	H 	0.65421 0.89495 0.09198 0.09900
C 	C 	0.48358 0.86198 0.05774 0.79200
F 	F 	0.73738 0.84942 0.28712 -0.39400
F 	F 	0.71141 0.74312 0.26896 -0.36800
F 	F 	0.60642 0.71128 0.29693 -0.37500
F 	F 	0.43274 0.88441 0.05634 -0.36100
F 	F 	0.42435 0.79001 0.03719 -0.34600
F 	F 	0.54705 0.93288 0.02821 -0.38000
C 	C 	0.26369 0.72862 0.22104 0.04800
C 	C 	0.20858 0.67403 0.18719 0.07200
C 	C 	0.23188 0.76583 0.22603 -0.06500
C 	C 	0.29637 0.83339 0.25698 0.78500
H 	H 	0.33404 0.74802 0.24011 0.11900
F 	F 	0.35801 0.81682 0.29695 -0.35500
F 	F 	0.24636 0.83119 0.27668 -0.36100
F 	F 	0.34590 0.91649 0.22639 -0.36200
C 	C 	0.79347 0.12260 0.60868 0.08500
C 	C 	0.79067 0.10809 0.56797 0.01700
C 	C 	0.77061 0.15489 0.51792 -0.03700
C 	C 	0.76076 0.21924 0.51086 0.04500
C 	C 	0.77145 0.23742 0.55268 0.09000
C 	C 	0.79735 0.19456 0.60197 -0.10400
C 	C 	0.82928 0.22545 0.64757 0.78900
H 	H 	0.79871 0.08097 0.64640 0.04100
H 	H 	0.74207 0.25317 0.47296 0.13800
C 	C 	0.75679 0.13532 0.47227 0.78000
F 	F 	0.86379 0.18307 0.69140 -0.41300
F 	F 	0.75577 0.20854 0.65470 -0.37500
F 	F 	0.89956 0.31526 0.63994 -0.40500
F 	F 	0.70095 0.04499 0.47787 -0.38300
C 	C 	0.81018 0.48176 0.61414 0.04000
C 	C 	0.81304 0.48115 0.57000 0.08300
C 	C 	0.85160 0.56113 0.53255 -0.09500
C 	C 	0.88857 0.64014 0.54077 0.07400
C 	C 	0.88859 0.64108 0.58574 0.01700
C 	C 	0.84068 0.55982 0.62028 -0.05300
C 	C 	0.81617 0.55501 0.66131 0.77900
H 	H 	0.77881 0.42004 0.64223 0.15600
H 	H 	0.92290 0.70214 0.51363 0.10300
C 	C 	0.85442 0.56262 0.48406 0.78800
F 	F 	0.75197 0.46854 0.68338 -0.36100
F 	F 	0.77778 0.60036 0.64079 -0.38800
F 	F 	0.89496 0.59199 0.69868 -0.35800
F 	F 	0.76507 0.50855 0.45777 -0.38200
F 	F 	0.90516 0.53291 0.49574 -0.39000
F 	F 	0.89543 0.64688 0.45250 -0.37000
C 	C 	0.37813 0.15122 0.57037 0.07300
C 	C 	0.32045 0.15000 0.52147 -0.00200
C 	C 	0.35653 0.18536 0.47954 -0.05900
C 	C 	0.44653 0.21284 0.48808 0.03900
C 	C 	0.50340 0.21256 0.53698 0.07600
C 	C 	0.46772 0.17760 0.57890 -0.10600
C 	C 	0.52509 0.16848 0.63265 0.78600
H 	H 	0.35100 0.12658 0.60210 0.08500
H 	H 	0.47399 0.23797 0.45637 0.12900
C 	C 	0.29805 0.18996 0.42593 0.78600
F 	F 	0.47084 0.11335 0.66769 -0.41300
F 	F 	0.59354 0.25063 0.64335 -0.38500
F 	F 	0.56604 0.13283 0.63808 -0.38600
F 	F 	0.24614 0.21495 0.41970 -0.35400
F 	F 	0.23981 0.10789 0.41608 -0.39600
F 	F 	0.35295 0.25124 0.39104 -0.35700
C 	C 	0.85759 0.30856 0.04089 0.03000
C 	C 	0.76120 0.26198 0.03103 0.09500
C 	C 	0.70218 0.19028 0.00813 -0.13800
C 	C 	0.73817 0.15041 0.01116 0.09200
C 	C 	0.83342 0.18856 0.03027 0.00400
C 	C 	0.89363 0.27625 0.03511 -0.07300
C 	C 	0.98437 0.34132 0.01926 0.74100
H 	H 	0.90420 0.37015 0.05204 0.13400
H 	H 	0.69172 0.08767 0.00138 0.10900
C 	C 	0.60288 0.15765 0.97955 0.84900
F 	F 	0.59237 0.22455 0.96017 -0.37200
F 	F 	0.54375 0.08773 0.01153 -0.42500
F 	F 	0.57809 0.12888 0.93931 -0.35800
C 	C 	0.79654 0.60503 0.03385 0.08600
C 	C 	0.81651 0.61613 0.08065 0.02100
C 	C 	0.79497 0.54280 0.12277 -0.06600
C 	C 	0.78068 0.46960 0.12149 0.05200
C 	C 	0.76848 0.46064 0.07575 0.10200
C 	C 	0.77114 0.52709 0.03066 -0.11200
C 	C 	0.75141 0.51727 0.97972 0.81800
H 	H 	0.80929 0.66038 0.00091 0.11300
H 	H 	0.77482 0.41732 0.15561 0.13800
C 	C 	0.79061 0.54384 0.16971 0.78000
F 	F 	0.74859 0.58483 0.94030 -0.33400
F 	F 	0.66634 0.43816 0.97093 -0.36100
F 	F 	0.82060 0.51933 0.97926 -0.34900
F 	F 	0.74423 0.57910 0.15600 -0.39000
F 	F 	0.87946 0.59442 0.19765 -0.41900
F 	F 	0.74338 0.45923 0.19997 -0.36700
C 	C 	0.44736 0.14824 0.03642 0.05400
C 	C 	0.50638 0.15833 0.08456 0.06900
C 	C 	0.47212 0.13496 0.12428 -0.09400
C 	C 	0.38244 0.11057 0.11324 0.06300
C 	C 	0.32743 0.10902 0.06359 0.02700
C 	C 	0.36430 0.13637 0.02415 -0.10800
C 	C 	0.31630 0.15435 0.96894 0.81600
H 	H 	0.47241 0.16269 0.00662 0.14500
H 	H 	0.35446 0.09064 0.14338 0.10700
C 	C 	0.53364 0.14298 0.17732 0.78800
F 	F 	0.38047 0.21809 0.93911 -0.34800
F 	F 	0.26984 0.18523 0.96254 -0.36500
F 	F 	0.59074 0.22979 0.18000 -0.38800
F 	F 	0.58786 0.11663 0.18955 -0.39700
F 	F 	0.48128 0.09066 0.21300 -0.36600
