data_crystal

_cell_length_a 47.72774
_cell_length_b 44.99480
_cell_length_c 33.30085
_cell_angle_alpha 89.96315
_cell_angle_beta  89.96076
_cell_angle_gamma 90.48342

_symmetry_space_group_name_	'P 1'
_symmetry_space_group_name_H-M	'P 1'

loop_
_symmetry_equiv_pos_as_xyz
  x,y,z

loop_
_atom_site_label
_atom_site_type_symbol
_atom_site_fract_x
_atom_site_fract_y
_atom_site_fract_z
_atom_site_charge
Zn	Zn	0.49578 0.49083 0.00518 1.21900
C 	C 	0.51844 0.55007 0.99731 0.32000
O 	O 	0.52303 0.47041 0.03942 -0.47500
O 	O 	0.50474 0.55580 0.03067 -0.45400
O 	O 	0.54164 0.51130 0.06913 -0.49700
C 	C 	0.44985 0.51806 0.04501 0.32700
O 	O 	0.46198 0.51431 0.01007 -0.45700
O 	O 	0.46467 0.51597 0.07808 -0.50800
C 	C 	0.54479 0.48456 0.05430 0.31800
O 	O 	0.46608 0.44899 0.00918 -0.33100
Zn	Zn	0.50435 0.52695 0.07883 1.16800
O 	O 	0.52019 0.52261 0.98389 -0.43600
C 	C 	0.47398 0.44361 0.97268 0.28100
O 	O 	0.49194 0.46228 0.95763 -0.38100
Zn	Zn	0.35135 0.13829 0.99872 1.22200
C 	C 	0.36719 0.13831 0.08252 0.34100
O 	O 	0.31167 0.12590 0.99597 -0.46100
O 	O 	0.35673 0.16509 0.08595 -0.45000
O 	O 	0.30234 0.13786 0.06090 -0.49400
C 	C 	0.36130 0.20091 0.00308 0.32500
O 	O 	0.37344 0.17486 0.00228 -0.45500
O 	O 	0.33542 0.20316 0.01599 -0.51000
C 	C 	0.29649 0.12236 0.02860 0.31400
O 	O 	0.35242 0.14478 0.92805 -0.32500
Zn	Zn	0.32025 0.17658 0.05679 1.17100
O 	O 	0.36090 0.12163 0.05142 -0.44000
C 	C 	0.36663 0.12032 0.92803 0.29800
O 	O 	0.37125 0.10876 0.96289 -0.38300
C 	C 	0.51361 0.99167 0.35121 0.14700
C 	C 	0.49670 0.01172 0.33022 -0.11300
H 	H 	0.48432 0.02776 0.34661 0.07400
C 	C 	0.49582 0.01097 0.28819 0.07200
C 	C 	0.51180 0.99015 0.26715 -0.09800
C 	C 	0.52870 0.97010 0.28807 0.07300
C 	C 	0.52962 0.97086 0.33010 -0.11200
H 	H 	0.54273 0.95543 0.34640 0.07400
N 	N 	0.51450 0.99241 0.39432 -0.17900
C 	C 	0.49612 0.97506 0.41593 0.19100
C 	C 	0.49674 0.97541 0.45819 -0.06000
C 	C 	0.51630 0.99375 0.47794 0.03200
C 	C 	0.53494 0.01144 0.45541 -0.06100
C 	C 	0.53373 0.01044 0.41319 0.19000
C 	C 	0.47812 0.95770 0.48091 -0.01300
C 	C 	0.47908 0.95830 0.52287 -0.01300
C 	C 	0.49865 0.97664 0.54281 -0.06000
C 	C 	0.51723 0.99440 0.52029 0.03100
C 	C 	0.53674 0.01280 0.54004 -0.06000
C 	C 	0.55447 0.02982 0.47535 -0.01300
C 	C 	0.55536 0.03050 0.51732 -0.01300
C 	C 	0.49995 0.97751 0.58502 0.19100
N 	N 	0.51906 0.99568 0.60391 -0.17900
C 	C 	0.53730 0.01320 0.58230 0.19000
C 	C 	0.51994 0.99639 0.64702 0.14700
C 	C 	0.50135 0.01450 0.66834 -0.11300
C 	C 	0.50170 0.01461 0.71039 0.07300
C 	C 	0.52081 0.99681 0.73114 -0.09800
C 	C 	0.53940 0.97871 0.70991 0.07300
C 	C 	0.53898 0.97850 0.66786 -0.11200
O 	O 	0.55114 0.02687 0.39168 -0.20000
O 	O 	0.47782 0.95801 0.39702 -0.20000
O 	O 	0.48279 0.96077 0.60651 -0.20000
O 	O 	0.55536 0.03054 0.60123 -0.20000
H 	H 	0.55323 0.96440 0.65133 0.07500
H 	H 	0.48653 0.02817 0.65218 0.07500
H 	H 	0.56900 0.04360 0.45847 0.05000
H 	H 	0.57055 0.04481 0.53204 0.05000
H 	H 	0.46289 0.94344 0.46619 0.05000
H 	H 	0.46457 0.94449 0.53975 0.05000
H 	H 	0.52104 0.99686 0.76372 0.06200
H 	H 	0.51112 0.98959 0.23458 0.06200
Zn	Zn	0.67340 0.83980 0.00043 1.22100
C 	C 	0.65410 0.83862 0.08281 0.34100
O 	O 	0.71357 0.85007 0.00183 -0.46500
O 	O 	0.66303 0.81118 0.08571 -0.45100
O 	O 	0.71970 0.83584 0.06672 -0.49500
C 	C 	0.66034 0.77767 0.00063 0.32500
O 	O 	0.64956 0.80442 0.00028 -0.45600
O 	O 	0.68535 0.77351 0.01587 -0.51100
C 	C 	0.72721 0.85230 0.03596 0.31700
O 	O 	0.67529 0.83529 0.92950 -0.32300
Zn	Zn	0.70004 0.79836 0.05895 1.17000
O 	O 	0.66231 0.85564 0.05294 -0.44000
C 	C 	0.66235 0.86054 0.92949 0.29800
O 	O 	0.65663 0.87136 0.96444 -0.38300
Zn	Zn	0.16247 0.66008 0.00065 1.22100
C 	C 	0.15045 0.65789 0.08578 0.34100
O 	O 	0.15706 0.70124 0.98189 -0.45800
O 	O 	0.17554 0.66843 0.09379 -0.45100
O 	O 	0.16067 0.72147 0.04422 -0.49200
C 	C 	0.21800 0.64616 0.02750 0.32800
O 	O 	0.19287 0.63518 0.02056 -0.45200
O 	O 	0.22170 0.67497 0.03086 -0.51200
C 	C 	0.15217 0.72319 0.00685 0.31100
O 	O 	0.17591 0.64614 0.93465 -0.32300
Zn	Zn	0.19441 0.69992 0.05749 1.17100
O 	O 	0.13962 0.66100 0.04982 -0.44000
C 	C 	0.15151 0.63324 0.93346 0.29700
O 	O 	0.13632 0.63585 0.96534 -0.38400
C 	C 	0.00687 0.50524 0.64464 0.14500
C 	C 	0.02689 0.52203 0.66582 -0.11200
H 	H 	0.04208 0.53545 0.64955 0.07500
C 	C 	0.02724 0.52135 0.70790 0.07300
C 	C 	0.00749 0.50407 0.72877 -0.09800
C 	C 	0.98743 0.48740 0.70770 0.07300
C 	C 	0.98717 0.48789 0.66565 -0.11200
H 	H 	0.97173 0.47493 0.64924 0.07400
N 	N 	0.00657 0.50572 0.60146 -0.17900
C 	C 	0.02454 0.48776 0.58056 0.19000
C 	C 	0.02382 0.48708 0.53830 -0.06000
C 	C 	0.00449 0.50492 0.51780 0.03100
C 	C 	0.98636 0.52333 0.53958 -0.05900
C 	C 	0.98785 0.52359 0.58182 0.19100
C 	C 	0.04202 0.46874 0.51632 -0.01300
C 	C 	0.04087 0.46821 0.47435 -0.01300
C 	C 	0.02151 0.48601 0.45366 -0.06000
C 	C 	0.00330 0.50434 0.47545 0.03100
C 	C 	0.98392 0.52213 0.45495 -0.06000
C 	C 	0.96695 0.54108 0.51890 -0.01300
C 	C 	0.96572 0.54046 0.47693 -0.01300
C 	C 	0.02015 0.48590 0.41142 0.19000
N 	N 	0.00136 0.50369 0.39178 -0.17900
C 	C 	0.98318 0.52141 0.41268 0.19100
C 	C 	0.00124 0.50435 0.34862 0.14500
C 	C 	0.01891 0.52423 0.32800 -0.11200
C 	C 	0.01902 0.52472 0.28595 0.07300
C 	C 	0.00143 0.50539 0.26448 -0.09900
C 	C 	0.98374 0.48553 0.28496 0.07300
C 	C 	0.98363 0.48499 0.32705 -0.11100
O 	O 	0.97116 0.54101 0.60260 -0.20000
O 	O 	0.04239 0.47090 0.60017 -0.20000
O 	O 	0.03712 0.46880 0.39062 -0.20000
O 	O 	0.96510 0.53798 0.39308 -0.20000
H 	H 	0.97000 0.46963 0.34302 0.07500
H 	H 	0.03252 0.53914 0.34472 0.07400
H 	H 	0.95276 0.55536 0.53519 0.05000
H 	H 	0.95062 0.55429 0.46165 0.05000
H 	H 	0.05708 0.45487 0.53161 0.05100
H 	H 	0.05508 0.45395 0.45806 0.05000
H 	H 	0.00152 0.50579 0.23189 0.06200
H 	H 	0.00771 0.50364 0.76136 0.06200
Zn	Zn	0.83850 0.35712 0.99153 1.22200
C 	C 	0.84356 0.36732 0.90622 0.34000
O 	O 	0.79949 0.36496 0.00760 -0.46500
O 	O 	0.83273 0.34093 0.89911 -0.45000
O 	O 	0.78190 0.35998 0.94456 -0.49300
C 	C 	0.85060 0.29707 0.96875 0.32900
O 	O 	0.86136 0.32373 0.97416 -0.45300
O 	O 	0.82349 0.29374 0.96361 -0.51000
C 	C 	0.77989 0.37066 0.98108 0.31700
O 	O 	0.84920 0.34324 0.05855 -0.32500
Zn	Zn	0.80153 0.32306 0.93478 1.17100
O 	O 	0.84009 0.38009 0.94130 -0.43800
C 	C 	0.86214 0.36869 0.05995 0.29700
O 	O 	0.86139 0.38443 0.02753 -0.38400
Zn	Zn	0.00557 0.00950 0.01466 1.22100
C 	C 	0.01987 0.95057 0.98904 0.31800
O 	O 	0.96917 0.98977 0.02099 -0.44900
O 	O 	0.00664 0.94226 0.02187 -0.45400
O 	O 	0.97759 0.97736 0.08597 -0.50600
C 	C 	0.05863 0.00261 0.05348 0.32300
O 	O 	0.03794 0.02095 0.04680 -0.47700
O 	O 	0.05326 0.97501 0.06369 -0.49700
C 	C 	0.95989 0.98135 0.05630 0.32900
O 	O 	0.98565 0.05431 0.03647 -0.32900
Zn	Zn	0.01522 0.96214 0.07628 1.16900
O 	O 	0.02385 0.97903 0.98149 -0.43400
C 	C 	0.98688 0.06223 0.99907 0.28100
O 	O 	0.99715 0.04278 0.97456 -0.38200
C 	C 	0.97771 0.09173 0.98583 -0.07800
C 	C 	0.98423 0.11679 0.00920 0.01500
C 	C 	0.97117 0.14387 0.00160 -0.06900
C 	C 	0.95142 0.14609 0.97070 0.04100
C 	C 	0.94614 0.12161 0.94570 -0.06700
C 	C 	0.95937 0.09449 0.95314 0.01600
C 	C 	0.93456 0.17237 0.96748 -0.01900
C 	C 	0.92074 0.19462 0.96544 -0.02100
C 	C 	0.90392 0.22101 0.96420 0.04400
C 	C 	0.87807 0.22058 0.94434 -0.07500
C 	C 	0.86070 0.24543 0.94569 0.02600
C 	C 	0.86907 0.27095 0.96704 -0.10300
C 	C 	0.89519 0.27143 0.98649 0.03000
C 	C 	0.91252 0.24653 0.98507 -0.07100
H 	H 	0.99869 0.11500 0.03415 0.03600
H 	H 	0.97561 0.16281 0.02073 0.05000
H 	H 	0.93106 0.12324 0.92151 0.04900
H 	H 	0.95429 0.07533 0.93477 0.03700
H 	H 	0.87127 0.20090 0.92819 0.04900
H 	H 	0.84080 0.24485 0.93008 0.01900
H 	H 	0.90191 0.29089 0.00316 0.03600
H 	H 	0.93244 0.24695 0.00067 0.05000
C 	C 	0.89364 0.40758 0.82270 -0.01200
C 	C 	0.88435 0.43232 0.80102 -0.02500
C 	C 	0.90279 0.44755 0.77542 -0.04600
C 	C 	0.93056 0.43807 0.77144 0.02100
C 	C 	0.93957 0.41278 0.79216 -0.04600
C 	C 	0.92115 0.39757 0.81773 -0.02500
C 	C 	0.95033 0.45549 0.74852 -0.00500
C 	C 	0.96707 0.46990 0.72942 -0.03200
C 	C 	0.87554 0.39356 0.85183 0.05600
C 	C 	0.86067 0.38157 0.87635 -0.11500
H 	H 	0.86308 0.44013 0.80460 0.04000
H 	H 	0.89565 0.46704 0.75941 0.04600
H 	H 	0.96099 0.40529 0.78916 0.04600
H 	H 	0.92844 0.37839 0.83430 0.04100
C 	C 	0.93364 0.43072 0.21794 0.02000
C 	C 	0.94582 0.40742 0.19632 -0.04400
C 	C 	0.93029 0.39227 0.16705 -0.02800
C 	C 	0.90251 0.40035 0.15931 -0.00600
C 	C 	0.88982 0.42241 0.18264 -0.02800
C 	C 	0.90536 0.43756 0.21190 -0.04400
C 	C 	0.88824 0.38870 0.12452 0.04600
C 	C 	0.87617 0.37905 0.09545 -0.09400
C 	C 	0.95099 0.44990 0.24224 -0.00500
C 	C 	0.96569 0.46583 0.26252 -0.03200
H 	H 	0.96763 0.40186 0.20100 0.04500
H 	H 	0.94019 0.37509 0.14936 0.04100
H 	H 	0.86829 0.42863 0.17705 0.04200
H 	H 	0.89573 0.45540 0.22869 0.04500
C 	C 	0.13868 0.75054 0.99235 -0.09600
C 	C 	0.14544 0.77805 0.00991 0.01500
C 	C 	0.13178 0.80380 0.99755 -0.06800
C 	C 	0.11121 0.80234 0.96763 0.03900
C 	C 	0.10493 0.77508 0.94921 -0.07100
C 	C 	0.11867 0.74924 0.96145 0.02300
C 	C 	0.09485 0.82824 0.95869 -0.02100
C 	C 	0.08171 0.85052 0.95230 -0.02300
C 	C 	0.06579 0.87732 0.94755 0.04100
C 	C 	0.03646 0.87575 0.94773 -0.07300
C 	C 	0.02082 0.90107 0.95644 0.02200
C 	C 	0.03446 0.92806 0.96516 -0.09900
C 	C 	0.06358 0.93039 0.95979 0.02100
C 	C 	0.07922 0.90501 0.95121 -0.07300
H 	H 	0.16118 0.77946 0.03329 0.01600
H 	H 	0.13677 0.82482 0.01187 0.04300
H 	H 	0.08900 0.77377 0.92609 0.05100
H 	H 	0.11328 0.72818 0.94759 0.03700
H 	H 	0.02586 0.85453 0.94404 0.04900
H 	H 	0.99827 0.89919 0.95946 0.03200
H 	H 	0.07433 0.95123 0.96575 0.03500
H 	H 	0.10189 0.90653 0.95033 0.05000
C 	C 	0.11661 0.59786 0.83222 -0.00500
C 	C 	0.09408 0.61263 0.81435 -0.02800
C 	C 	0.07785 0.59829 0.78513 -0.04400
C 	C 	0.08409 0.56912 0.77365 0.02000
C 	C 	0.10771 0.55508 0.78962 -0.04400
C 	C 	0.12395 0.56942 0.81887 -0.02800
C 	C 	0.06433 0.55238 0.74986 -0.00500
C 	C 	0.04773 0.53843 0.72993 -0.03200
C 	C 	0.12964 0.61013 0.86759 0.04600
C 	C 	0.14028 0.62078 0.89716 -0.09300
H 	H 	0.08839 0.63470 0.82430 0.04200
H 	H 	0.05974 0.60938 0.77272 0.04500
H 	H 	0.11281 0.53261 0.78067 0.04600
H 	H 	0.14147 0.55793 0.83231 0.04200
C 	C 	0.07008 0.58130 0.22305 0.02100
C 	C 	0.09919 0.57736 0.22278 -0.04600
C 	C 	0.11607 0.59439 0.19704 -0.02600
C 	C 	0.10389 0.61541 0.17149 -0.01300
C 	C 	0.07491 0.62012 0.17289 -0.02600
C 	C 	0.05805 0.60311 0.19861 -0.04600
C 	C 	0.12071 0.63043 0.14170 0.05600
C 	C 	0.13451 0.64318 0.11659 -0.11600
C 	C 	0.05238 0.56139 0.24575 -0.00600
C 	C 	0.03732 0.54486 0.26462 -0.03300
H 	H 	0.10866 0.56062 0.24170 0.04500
H 	H 	0.13847 0.59070 0.19625 0.03900
H 	H 	0.06535 0.63641 0.15333 0.04000
H 	H 	0.03557 0.60634 0.19875 0.04500
C 	C 	0.75132 0.87282 0.03960 -0.10200
C 	C 	0.76780 0.87975 0.00583 0.02000
C 	C 	0.79199 0.89723 0.01005 -0.07500
C 	C 	0.79981 0.90797 0.04794 0.04200
C 	C 	0.78287 0.90203 0.08139 -0.07400
C 	C 	0.75870 0.88456 0.07727 0.02200
C 	C 	0.82619 0.92323 0.05296 -0.02200
C 	C 	0.84832 0.93599 0.05686 -0.02200
C 	C 	0.87515 0.95047 0.06108 0.04400
C 	C 	0.88245 0.97413 0.03571 -0.07400
C 	C 	0.90981 0.98547 0.03584 0.02900
C 	C 	0.93013 0.97305 0.06119 -0.10400
C 	C 	0.92230 0.95044 0.08820 0.02600
C 	C 	0.89491 0.93917 0.08804 -0.07600
H 	H 	0.76232 0.87096 0.97657 0.03600
H 	H 	0.80496 0.90184 0.98402 0.05200
H 	H 	0.78870 0.91046 0.11073 0.04900
H 	H 	0.74588 0.87989 0.10343 0.03300
H 	H 	0.86718 0.98317 0.01506 0.05200
H 	H 	0.91540 0.00334 0.01545 0.03500
H 	H 	0.93767 0.94075 0.10810 0.01700
H 	H 	0.88933 0.92101 0.10797 0.04700
C 	C 	0.62516 0.89577 0.83026 -0.00500
C 	C 	0.60001 0.88337 0.81611 -0.02800
C 	C 	0.58395 0.89872 0.78789 -0.04400
C 	C 	0.59301 0.92653 0.77372 0.02000
C 	C 	0.61903 0.93801 0.78593 -0.04400
C 	C 	0.63508 0.92266 0.81415 -0.02800
C 	C 	0.57425 0.94476 0.75074 -0.00400
C 	C 	0.55857 0.96004 0.73150 -0.03200
C 	C 	0.63868 0.88310 0.86483 0.04700
C 	C 	0.64992 0.87242 0.89378 -0.09300
H 	H 	0.59230 0.86248 0.82821 0.04200
H 	H 	0.56397 0.88957 0.77833 0.04600
H 	H 	0.62628 0.95939 0.77485 0.04600
H 	H 	0.65461 0.93229 0.82471 0.04200
C 	C 	0.60854 0.87731 0.17190 -0.01300
C 	C 	0.57978 0.87160 0.17621 -0.02600
C 	C 	0.56378 0.88880 0.20248 -0.04600
C 	C 	0.57650 0.91176 0.22452 0.02100
C 	C 	0.60548 0.91654 0.22160 -0.04600
C 	C 	0.62146 0.89935 0.19535 -0.02500
C 	C 	0.55955 0.93207 0.24720 -0.00600
C 	C 	0.54550 0.94916 0.26625 -0.03200
C 	C 	0.62416 0.86291 0.14056 0.05600
C 	C 	0.63770 0.85118 0.11454 -0.11700
H 	H 	0.56966 0.85451 0.15830 0.03900
H 	H 	0.54140 0.88486 0.20477 0.04500
H 	H 	0.61547 0.93415 0.23869 0.04600
H 	H 	0.64371 0.90382 0.19229 0.03900
C 	C 	0.27206 0.10209 0.02848 -0.10300
C 	C 	0.25641 0.09779 0.99321 0.02200
C 	C 	0.23127 0.08158 0.99440 -0.07100
C 	C 	0.22170 0.06948 0.03076 0.03800
C 	C 	0.23797 0.07247 0.06551 -0.07400
C 	C 	0.26307 0.08868 0.06441 0.02200
C 	C 	0.19412 0.05642 0.03322 -0.02200
C 	C 	0.17104 0.04545 0.03545 -0.02400
C 	C 	0.14312 0.03329 0.03829 0.04400
C 	C 	0.13714 0.01044 0.06569 -0.07700
C 	C 	0.10957 0.00016 0.07048 0.02500
C 	C 	0.08781 0.01284 0.04802 -0.10600
C 	C 	0.09401 0.03537 0.02009 0.02700
C 	C 	0.12155 0.04553 0.01529 -0.07700
H 	H 	0.26316 0.10786 0.96523 0.03400
H 	H 	0.21886 0.07920 0.96734 0.05000
H 	H 	0.23082 0.06294 0.09364 0.04800
H 	H 	0.27523 0.09131 0.09166 0.03300
H 	H 	0.15373 0.00090 0.08363 0.04700
H 	H 	0.10511 0.98273 0.09207 0.02300
H 	H 	0.07751 0.04499 0.00206 0.03000
H 	H 	0.12605 0.06316 0.99399 0.05300
C 	C 	0.44621 0.06374 0.77534 0.02000
C 	C 	0.41841 0.05398 0.77974 -0.04400
C 	C 	0.40082 0.06769 0.80764 -0.02800
C 	C 	0.41099 0.09120 0.83125 -0.00600
C 	C 	0.43828 0.10206 0.82514 -0.02800
C 	C 	0.45585 0.08836 0.79725 -0.04400
C 	C 	0.39485 0.10160 0.86488 0.04700
C 	C 	0.38156 0.11050 0.89315 -0.09300
C 	C 	0.46561 0.04656 0.75197 -0.00500
C 	C 	0.48194 0.03226 0.73245 -0.03200
H 	H 	0.41074 0.03510 0.76267 0.04600
H 	H 	0.37969 0.05929 0.81200 0.04200
H 	H 	0.44623 0.12035 0.84310 0.04200
H 	H 	0.47726 0.09616 0.79381 0.04500
C 	C 	0.41318 0.10101 0.17220 -0.01300
C 	C 	0.40089 0.07854 0.19565 -0.02600
C 	C 	0.41734 0.06193 0.22198 -0.04600
C 	C 	0.44615 0.06773 0.22499 0.02100
C 	C 	0.45820 0.09116 0.20302 -0.04600
C 	C 	0.44173 0.10777 0.17666 -0.02500
C 	C 	0.46370 0.04795 0.24757 -0.00600
C 	C 	0.47831 0.03133 0.26653 -0.03200
C 	C 	0.39725 0.11481 0.14072 0.05600
C 	C 	0.38357 0.12611 0.11451 -0.11600
H 	H 	0.37880 0.07327 0.19250 0.03900
H 	H 	0.40786 0.04396 0.23905 0.04500
H 	H 	0.48043 0.09589 0.20539 0.04500
H 	H 	0.45136 0.12522 0.15878 0.04000
C 	C 	0.37689 0.22785 0.99053 -0.09600
C 	C 	0.39983 0.22577 0.96416 0.02500
C 	C 	0.41448 0.25146 0.95246 -0.07100
C 	C 	0.40628 0.27929 0.96697 0.04100
C 	C 	0.38336 0.28140 0.99304 -0.06800
C 	C 	0.36875 0.25585 0.00482 0.01800
C 	C 	0.42182 0.30571 0.95636 -0.02000
C 	C 	0.43381 0.32874 0.94884 -0.01900
C 	C 	0.44716 0.35713 0.94229 0.04000
C 	C 	0.43089 0.38149 0.93083 -0.06700
C 	C 	0.44106 0.41041 0.93652 0.01700
C 	C 	0.46759 0.41508 0.95353 -0.07900
C 	C 	0.48505 0.39071 0.96064 0.01900
C 	C 	0.47481 0.36177 0.95515 -0.06700
H 	H 	0.40620 0.20438 0.95258 0.03900
H 	H 	0.43221 0.24967 0.93229 0.05100
H 	H 	0.37700 0.30286 0.00447 0.04600
H 	H 	0.35126 0.25781 0.02539 0.02200
H 	H 	0.40964 0.37809 0.92022 0.05000
H 	H 	0.42755 0.42912 0.93044 0.03100
H 	H 	0.50573 0.39411 0.97332 0.03200
H 	H 	0.48771 0.34305 0.96350 0.05000
C 	C 	0.42009 0.52669 0.04690 -0.10300
C 	C 	0.41013 0.54341 0.07948 0.02400
C 	C 	0.38279 0.55433 0.07913 -0.07600
C 	C 	0.36518 0.54862 0.04632 0.04300
C 	C 	0.37462 0.53090 0.01459 -0.07500
C 	C 	0.40195 0.51991 0.01488 0.02600
C 	C 	0.33839 0.56300 0.04374 -0.02200
C 	C 	0.31607 0.57531 0.04231 -0.02200
C 	C 	0.29002 0.59121 0.04106 0.04400
C 	C 	0.26949 0.58378 0.01259 -0.07500
C 	C 	0.24540 0.60114 0.00894 0.02700
C 	C 	0.24189 0.62617 0.03356 -0.10400
C 	C 	0.26209 0.63296 0.06285 0.02700
C 	C 	0.28602 0.61553 0.06658 -0.07600
H 	H 	0.42379 0.54874 0.10446 0.01900
H 	H 	0.37557 0.56792 0.10386 0.04700
H 	H 	0.36105 0.52621 0.98927 0.05300
H 	H 	0.40915 0.50655 0.98992 0.03800
H 	H 	0.27242 0.56495 0.99278 0.05300
H 	H 	0.22992 0.59564 0.98629 0.03800
H 	H 	0.25939 0.65194 0.08244 0.01400
H 	H 	0.30173 0.62130 0.08879 0.04700
C 	C 	0.57301 0.47121 0.05177 -0.10200
C 	C 	0.57644 0.44299 0.03434 0.02200
C 	C 	0.60327 0.43154 0.02852 -0.07300
C 	C 	0.62691 0.44803 0.04016 0.04200
C 	C 	0.62362 0.47575 0.05862 -0.07500
C 	C 	0.59680 0.48732 0.06447 0.02200
C 	C 	0.65453 0.43702 0.03153 -0.02300
C 	C 	0.67742 0.42733 0.02398 -0.02100
C 	C 	0.70445 0.41536 0.01406 0.03700
C 	C 	0.72020 0.40069 0.04339 -0.07100
C 	C 	0.74531 0.38684 0.03294 0.01700
C 	C 	0.75477 0.38745 0.99295 -0.09900
C 	C 	0.73933 0.40298 0.96391 0.02000
C 	C 	0.71428 0.41684 0.97445 -0.07000
H 	H 	0.55839 0.43013 0.02464 0.03600
H 	H 	0.60568 0.41002 0.01438 0.04900
H 	H 	0.64183 0.48855 0.06790 0.04800
H 	H 	0.59460 0.50898 0.07822 0.02900
H 	H 	0.71276 0.39953 0.07411 0.04900
H 	H 	0.75699 0.37499 0.05569 0.03500
H 	H 	0.74659 0.40407 0.93311 0.03400
H 	H 	0.70228 0.42830 0.95167 0.04900
C 	C 	0.53345 0.57427 0.97672 -0.09800
C 	C 	0.56242 0.57219 0.97027 0.02200
C 	C 	0.57819 0.59775 0.96158 -0.07300
C 	C 	0.56502 0.62542 0.95897 0.04100
C 	C 	0.53577 0.62700 0.96150 -0.07300
C 	C 	0.52002 0.60150 0.97042 0.02400
C 	C 	0.58159 0.65227 0.96039 -0.02200
C 	C 	0.59549 0.67475 0.96158 -0.02200
C 	C 	0.61205 0.70150 0.96511 0.04200
C 	C 	0.59884 0.72881 0.97118 -0.07300
C 	C 	0.61467 0.75401 0.98129 0.02400
C 	C 	0.64390 0.75203 0.98552 -0.10000
C 	C 	0.65719 0.72490 0.97740 0.02200
C 	C 	0.64129 0.69974 0.96740 -0.07400
H 	H 	0.57298 0.55122 0.97469 0.03400
H 	H 	0.60078 0.59629 0.95916 0.04900
H 	H 	0.52538 0.64823 0.95883 0.05000
H 	H 	0.49758 0.60323 0.97461 0.03200
H 	H 	0.57623 0.73033 0.96937 0.05000
H 	H 	0.60410 0.77479 0.98704 0.04000
H 	H 	0.67976 0.72313 0.97962 0.02900
H 	H 	0.65166 0.67870 0.96258 0.04800
