data_crystal

_cell_length_a 24.59306
_cell_length_b 24.86126
_cell_length_c 26.64189
_cell_angle_alpha 95.49171
_cell_angle_beta  95.49087
_cell_angle_gamma 125.81575

_symmetry_space_group_name_	'P 1'
_symmetry_space_group_name_H-M	'P 1'

loop_
_symmetry_equiv_pos_as_xyz
  x,y,z

loop_
_atom_site_label
_atom_site_type_symbol
_atom_site_fract_x
_atom_site_fract_y
_atom_site_fract_z
_atom_site_charge
C 	C 	0.04336 0.01152 0.44200 -0.00200
H 	H 	0.15340 0.03104 0.50925 0.08600
C 	C 	0.04826 0.01429 0.96448 -0.00700
N 	N 	0.15826 0.04367 0.47279 -0.17000
C 	C 	0.11796 0.05487 0.44508 0.07400
H 	H 	0.28194 0.07902 0.51686 0.05700
N 	N 	0.14803 0.01160 0.96701 -0.16700
C 	C 	0.21432 0.06917 0.45195 0.07400
H 	H 	0.26109 0.01864 0.00296 0.05900
C 	C 	0.03490 0.05998 0.98178 -0.04500
C 	C 	0.27779 0.09239 0.47990 -0.08000
C 	C 	0.14848 0.08732 0.40540 -0.08600
C 	C 	0.21230 0.05351 0.95900 0.07300
C 	C 	0.11594 0.03853 0.95271 0.07700
H 	H 	0.80593 0.06963 0.52508 0.05300
H 	H 	0.03378 0.09159 0.43651 0.04200
C 	C 	0.21013 0.09667 0.41001 0.02600
C 	C 	0.26776 0.06054 0.98762 -0.08100
H 	H 	0.80795 0.07431 0.06903 0.05700
C 	C 	0.33595 0.13786 0.46034 0.01100
H 	H 	0.13473 0.11377 0.38381 0.05400
C 	C 	0.15955 0.09789 0.93478 -0.08900
H 	H 	0.40042 0.09495 0.00464 0.05400
C 	C 	0.79737 0.11658 0.00450 0.01200
C 	C 	0.83475 0.09979 0.49780 -0.07700
C 	C 	0.83061 0.09975 0.03793 -0.08000
H 	H 	0.07480 0.11388 0.98782 0.04100
C 	C 	0.22120 0.10730 0.93883 0.02900
H 	H 	0.75564 0.14844 0.52396 0.03300
C 	C 	0.26933 0.15048 0.39593 -0.08700
H 	H 	0.42434 0.17083 0.51803 0.05400
C 	C 	0.33153 0.12387 0.99705 0.00700
C 	C 	0.39344 0.13383 0.00203 -0.03400
H 	H 	0.74293 0.13499 0.05571 0.05600
C 	C 	0.77666 0.15363 0.48930 -0.04500
C 	C 	0.75634 0.13465 0.01818 -0.03500
C 	C 	0.82907 0.14924 0.48299 0.00500
N 	N 	0.87231 0.03184 0.47287 -0.16800
C 	C 	0.33220 0.16724 0.41962 0.07900
H 	H 	0.15351 0.13754 0.93344 0.05300
C 	C 	0.82625 0.14908 0.96445 0.07400
C 	C 	0.87573 0.08788 0.47325 0.07100
C 	C 	0.40077 0.18281 0.48925 -0.04400
H 	H 	0.88641 0.03416 0.05635 0.08600
C 	C 	0.88583 0.15753 0.41126 -0.08800
H 	H 	0.86922 0.00974 0.50497 0.08600
C 	C 	0.89779 0.02559 0.43164 0.07900
C 	C 	0.90110 0.11662 0.43122 0.02700
C 	C 	0.89302 0.11470 0.02869 0.07500
H 	H 	0.89533 0.17048 0.37378 0.06100
C 	C 	0.88928 0.16546 0.95601 -0.08900
H 	H 	0.26694 0.18042 0.37007 0.05700
C 	C 	0.85371 0.17738 0.44045 0.08200
C 	C 	0.91285 0.07580 0.40339 -0.08700
C 	C 	0.28524 0.17059 0.94802 -0.09000
C 	C 	0.77380 0.18756 0.45158 0.00000
C 	C 	0.76201 0.17700 0.98510 -0.01600
C 	C 	0.34050 0.17769 0.97707 0.08100
N 	N 	0.91296 0.07591 0.03844 -0.16900
F 	F 	0.62805 0.19965 0.27134 -0.44800
N 	N 	0.81937 0.19972 0.42103 -0.15100
N 	N 	0.80424 0.18548 0.95256 -0.15400
C 	C 	0.92255 0.14856 0.98926 0.02500
H 	H 	0.62342 0.19900 0.17261 0.09600
C 	C 	0.43704 0.19293 0.98403 -0.00100
H 	H 	0.91182 0.19080 0.92483 0.05400
O 	O 	0.68126 0.19469 0.01043 -0.35200
H 	H 	0.94457 0.09053 0.37443 0.05600
O 	O 	0.53994 0.20396 0.01217 -0.34900
C 	C 	0.00672 0.03808 0.43644 -0.04400
C 	C 	0.97000 0.03610 0.99182 -0.00500
C 	C 	0.95487 0.08457 0.00540 0.08200
C 	C 	0.96208 0.12939 0.97433 -0.09200
H 	H 	0.97465 0.12962 0.93641 0.05600
H 	H 	0.13343 0.97898 0.99331 0.08300
H 	H 	0.00759 0.90945 0.94614 0.04400
H 	H 	0.03768 0.92312 0.44978 0.04700
Cu	Cu	0.63733 0.36805 0.04514 0.90400
O 	O 	0.62782 0.24674 0.93795 -0.63900
O 	O 	0.62659 0.32077 0.10377 -0.36800
C 	C 	0.51153 0.23033 0.99197 0.25600
O 	O 	0.54995 0.29340 0.98570 -0.38500
H 	H 	0.58043 0.21486 0.91845 0.18200
Cu	Cu	0.64248 0.31794 0.51315 0.89800
Cu	Cu	0.62451 0.35499 0.41238 0.89700
O 	O 	0.63597 0.29463 0.44067 -0.63800
O 	O 	0.66970 0.36296 0.35200 -0.38500
O 	O 	0.54736 0.28158 0.50753 -0.37100
C 	C 	0.50952 0.27948 0.46757 0.26300
O 	O 	0.53727 0.32245 0.43595 -0.37900
O 	O 	0.64756 0.33091 0.58807 -0.37600
H 	H 	0.60098 0.24623 0.42548 0.17500
C 	C 	0.60493 0.27400 0.73959 0.34000
C 	C 	0.61184 0.27963 0.68844 -0.09500
H 	H 	0.56846 0.24403 0.65790 0.08600
F 	F 	0.54393 0.22426 0.75043 -0.44700
C 	C 	0.65963 0.25567 0.24985 0.33400
C 	C 	0.65374 0.24894 0.19638 -0.08500
N 	N 	0.39222 0.22775 0.42222 -0.15300
C 	C 	0.43500 0.23677 0.46371 0.00600
H 	H 	0.40687 0.25447 0.39209 0.09000
N 	N 	0.40523 0.22023 0.97006 -0.15200
H 	H 	0.29198 0.21254 0.93271 0.05800
H 	H 	0.42158 0.25567 0.94596 0.09200
Cu	Cu	0.63950 0.24385 0.01218 0.92900
O 	O 	0.65369 0.25024 0.84053 -0.40400
Cu	Cu	0.69451 0.24757 0.90391 0.87100
Cu	Cu	0.66551 0.34371 0.94137 0.89600
C 	C 	0.66224 0.29911 0.11825 0.33900
C 	C 	0.65864 0.30399 0.83167 0.33100
O 	O 	0.69090 0.34824 0.01344 -0.63100
O 	O 	0.67871 0.45746 0.02492 -0.36800
O 	O 	0.66517 0.25799 0.08543 -0.36000
O 	O 	0.65095 0.33938 0.86664 -0.37200
C 	C 	0.69026 0.32703 0.33525 0.34000
C 	C 	0.68554 0.32589 0.62315 0.32900
O 	O 	0.70552 0.21506 0.48866 -0.42700
O 	O 	0.70533 0.43823 0.47204 -0.38000
O 	O 	0.72135 0.31162 0.36738 -0.34600
C 	C 	0.72393 0.37001 0.76773 -0.09500
C 	C 	0.66155 0.31803 0.77934 -0.13300
C 	C 	0.67557 0.32846 0.67665 -0.13100
C 	C 	0.69477 0.31995 0.28069 -0.12800
C 	C 	0.68292 0.30638 0.17357 -0.13000
O 	O 	0.70578 0.43895 0.94811 -0.37100
C 	C 	0.68980 0.47077 0.97861 0.26000
C 	C 	0.73553 0.21685 0.98979 0.26500
H 	H 	0.74059 0.37954 0.02723 0.17800
Cu	Cu	0.73883 0.33645 0.44069 0.92900
Cu	Cu	0.73144 0.27935 0.54794 0.87100
O 	O 	0.73828 0.34882 0.51518 -0.64000
C 	C 	0.76879 0.47022 0.46545 0.25500
C 	C 	0.74905 0.22888 0.45809 0.26800
O 	O 	0.73569 0.32416 0.61220 -0.39500
H 	H 	0.77303 0.39512 0.53500 0.18400
C 	C 	0.73115 0.37504 0.71658 0.33700
H 	H 	0.76765 0.40467 0.79826 0.07700
C 	C 	0.72844 0.37749 0.25811 -0.08800
C 	C 	0.72263 0.37080 0.20483 0.33400
F 	F 	0.75298 0.42685 0.18335 -0.46000
H 	H 	0.75709 0.42737 0.28177 0.09200
H 	H 	0.75611 0.56252 0.51968 0.09300
C 	C 	0.69860 0.53133 0.96533 0.00800
N 	N 	0.70130 0.57674 0.99994 -0.15400
H 	H 	0.70140 0.57504 0.03901 0.09700
O 	O 	0.75529 0.26431 0.96264 -0.43000
C 	C 	0.72594 0.55929 0.92332 -0.04400
O 	O 	0.78823 0.43668 0.44207 -0.35300
O 	O 	0.77791 0.28499 0.43973 -0.35300
F 	F 	0.79248 0.42412 0.70578 -0.44800
N 	N 	0.80373 0.58130 0.51017 -0.15200
C 	C 	0.81752 0.54395 0.48174 0.00400
H 	H 	0.79970 0.68908 0.53080 0.05800
C 	C 	0.73083 0.63397 0.98083 0.07400
H 	H 	0.75712 0.70573 0.04914 0.05600
C 	C 	0.76931 0.69826 0.01232 -0.07800
C 	C 	0.74640 0.62486 0.93323 0.01600
H 	H 	0.74791 0.54252 0.89871 0.06000
C 	C 	0.85038 0.64582 0.50557 0.08000
C 	C 	0.83959 0.69568 0.51164 -0.08700
C 	C 	0.80213 0.67898 0.91630 -0.08400
H 	H 	0.83622 0.83954 0.03577 0.05200
H 	H 	0.84585 0.89432 0.43091 0.04300
C 	C 	0.87251 0.58438 0.45807 -0.04400
H 	H 	0.85469 0.82201 0.50722 0.05400
H 	H 	0.88063 0.56677 0.42279 0.05700
H 	H 	0.83515 0.23284 0.39509 0.10200
C 	C 	0.82601 0.75165 0.99585 0.01600
H 	H 	0.82993 0.22655 0.93384 0.07700
H 	H 	0.81459 0.67179 0.87953 0.05900
C 	C 	0.86799 0.79853 0.47970 -0.08600
C 	C 	0.88055 0.75271 0.48962 0.02400
C 	C 	0.84157 0.74254 0.94857 0.07800
C 	C 	0.85139 0.81869 0.00768 -0.07700
H 	H 	0.86833 0.94735 0.99257 0.04000
C 	C 	0.89347 0.64943 0.47336 0.01300
C 	C 	0.90250 0.82757 0.43998 0.07400
C 	C 	0.90080 0.92688 0.43373 -0.04500
N 	N 	0.87555 0.80096 0.93114 -0.16900
C 	C 	0.88064 0.84734 0.96641 0.07100
C 	C 	0.91839 0.75304 0.45451 0.07500
H 	H 	0.88155 0.80558 0.89310 0.08600
C 	C 	0.92271 0.69965 0.44329 -0.08100
N 	N 	0.92905 0.79587 0.42299 -0.16800
C 	C 	0.93535 0.99603 0.43257 -0.00800
C 	C 	0.91895 0.96621 0.98598 -0.04600
C 	C 	0.93762 0.90016 0.43881 -0.00200
H 	H 	0.94503 0.69578 0.41127 0.05800
C 	C 	0.93281 0.92055 0.97017 -0.00500
C 	C 	0.00890 0.94307 0.44408 -0.04900
C 	C 	0.99713 0.94476 0.95888 -0.03900
H 	H 	0.96398 0.81221 0.39814 0.08700
