data_crystal

_cell_length_a 26.24538
_cell_length_b 26.28084
_cell_length_c 34.73511
_cell_angle_alpha 95.49261
_cell_angle_beta  95.49268
_cell_angle_gamma 125.77261

_symmetry_space_group_name_	'P 1'
_symmetry_space_group_name_H-M	'P 1'

loop_
_symmetry_equiv_pos_as_xyz
  x,y,z

loop_
_atom_site_label
_atom_site_type_symbol
_atom_site_fract_x
_atom_site_fract_y
_atom_site_fract_z
_atom_site_charge
C 	C 	0.94992 0.01972 0.99621 0.10900
N 	N 	0.91235 0.95501 0.99158 -0.13500
C 	C 	0.93827 0.92320 0.98763 0.11200
N 	N 	0.00197 0.95620 0.98844 -0.13200
C 	C 	0.03988 0.02083 0.99314 0.11200
N 	N 	0.01381 0.05267 0.99684 -0.13400
C 	C 	0.96183 0.01926 0.46386 0.10600
N 	N 	0.02590 0.05298 0.46540 -0.13600
C 	C 	0.05356 0.02270 0.46356 0.11300
N 	N 	0.01693 0.95833 0.45983 -0.13300
C 	C 	0.95295 0.92415 0.45834 0.11300
N 	N 	0.92530 0.95461 0.46058 -0.13400
Cu	Cu	0.61855 0.22703 0.00314 0.92800
Cu	Cu	0.65737 0.22731 0.91632 0.87300
Cu	Cu	0.64750 0.32713 0.95315 0.90100
Cu	Cu	0.63018 0.35020 0.03473 0.90100
C 	C 	0.65187 0.27776 0.08600 0.30900
O 	O 	0.52813 0.19465 0.00827 -0.35900
C 	C 	0.62510 0.28875 0.86700 0.30300
O 	O 	0.67341 0.32668 0.00651 -0.64000
O 	O 	0.60306 0.23320 0.94760 -0.63900
O 	O 	0.65328 0.17730 0.99573 -0.36600
O 	O 	0.72027 0.24190 0.95727 -0.43100
O 	O 	0.62328 0.30475 0.07909 -0.36800
O 	O 	0.69716 0.41903 0.96055 -0.36800
C 	C 	0.69871 0.45684 0.98942 0.29100
C 	C 	0.50416 0.22416 0.99680 0.27900
O 	O 	0.54273 0.28353 0.99193 -0.39000
O 	O 	0.66867 0.43506 0.01914 -0.38200
O 	O 	0.64742 0.23689 0.05800 -0.35800
C 	C 	0.70497 0.20034 0.98046 0.28500
O 	O 	0.62780 0.32606 0.89686 -0.36100
O 	O 	0.61620 0.23494 0.87130 -0.41200
H 	H 	0.72024 0.35298 0.01580 0.17800
H 	H 	0.55762 0.20714 0.93446 0.17800
Cu	Cu	0.75305 0.35112 0.45672 0.92900
Cu	Cu	0.75189 0.30797 0.54212 0.87900
Cu	Cu	0.65459 0.32393 0.50794 0.90000
Cu	Cu	0.63174 0.34406 0.42718 0.90200
C 	C 	0.70135 0.32080 0.37419 0.30900
O 	O 	0.78770 0.44233 0.45278 -0.35700
C 	C 	0.69140 0.33838 0.59313 0.30300
O 	O 	0.65349 0.29843 0.45406 -0.63800
O 	O 	0.74810 0.36538 0.51272 -0.63800
O 	O 	0.80139 0.31477 0.46239 -0.36600
O 	O 	0.73560 0.24622 0.49969 -0.42600
O 	O 	0.67605 0.35076 0.38221 -0.36900
O 	O 	0.56289 0.27702 0.50135 -0.37500
C 	C 	0.52510 0.27466 0.47200 0.29100
C 	C 	0.75931 0.46726 0.46474 0.28000
O 	O 	0.70048 0.42969 0.47068 -0.39100
O 	O 	0.54778 0.30747 0.44352 -0.38200
O 	O 	0.74184 0.32331 0.40148 -0.35600
C 	C 	0.77726 0.26209 0.47652 0.28700
O 	O 	0.65705 0.34202 0.56464 -0.37100
O 	O 	0.74513 0.34736 0.58842 -0.39700
H 	H 	0.62601 0.25171 0.44433 0.17800
H 	H 	0.77563 0.41050 0.52648 0.17700
C 	C 	0.66029 0.28625 0.69136 -0.07000
C 	C 	0.64376 0.32412 0.70825 0.02500
C 	C 	0.64191 0.36632 0.68699 0.05600
C 	C 	0.65736 0.37061 0.64927 -0.00200
C 	C 	0.67396 0.33266 0.63243 -0.09000
C 	C 	0.67433 0.28947 0.65342 0.11300
C 	C 	0.63056 0.32065 0.74876 0.02800
N 	N 	0.62442 0.40484 0.70359 -0.01600
H 	H 	0.65657 0.40355 0.63316 0.06300
N 	N 	0.68735 0.24760 0.63587 -0.02500
H 	H 	0.66151 0.25361 0.70758 0.07800
C 	C 	0.57763 0.26356 0.75713 0.05300
C 	C 	0.57443 0.25477 0.79623 -0.00300
C 	C 	0.62295 0.30288 0.82711 -0.09200
C 	C 	0.67274 0.36212 0.81893 0.11400
C 	C 	0.67621 0.37071 0.77981 -0.07300
N 	N 	0.52805 0.21369 0.72587 -0.01600
H 	H 	0.53481 0.21001 0.80251 0.06000
N 	N 	0.72163 0.41256 0.85011 -0.02200
H 	H 	0.71639 0.41509 0.77351 0.08000
O 	O 	0.73316 0.24738 0.65361 -0.11600
O 	O 	0.65020 0.20617 0.60386 -0.13300
O 	O 	0.66206 0.46640 0.70584 -0.10200
O 	O 	0.56907 0.37805 0.71405 -0.08800
O 	O 	0.76234 0.40697 0.86976 -0.12500
O 	O 	0.72859 0.46604 0.85673 -0.09600
O 	O 	0.50943 0.15543 0.72447 -0.10500
O 	O 	0.49964 0.22601 0.69975 -0.08900
C 	C 	0.63799 0.25513 0.26533 -0.07000
C 	C 	0.69499 0.28064 0.25104 0.02700
C 	C 	0.75326 0.31187 0.27777 0.05600
C 	C 	0.75448 0.32154 0.31837 -0.00200
C 	C 	0.69793 0.29964 0.33254 -0.08700
C 	C 	0.63903 0.26370 0.30591 0.11500
C 	C 	0.69416 0.28074 0.20839 0.02700
N 	N 	0.81145 0.33502 0.26375 -0.01600
H 	H 	0.79971 0.34790 0.33876 0.06700
N 	N 	0.58020 0.23616 0.32001 -0.02500
H 	H 	0.59293 0.22972 0.24486 0.08200
C 	C 	0.66162 0.22294 0.18108 0.05500
C 	C 	0.65115 0.22278 0.14070 -0.00200
C 	C 	0.67354 0.27991 0.12729 -0.08700
C 	C 	0.71074 0.33827 0.15440 0.11500
C 	C 	0.72010 0.33827 0.19479 -0.07000
N 	N 	0.63799 0.16417 0.19433 -0.01600
H 	H 	0.62385 0.17793 0.11990 0.06600
N 	N 	0.73884 0.39762 0.14099 -0.02500
H 	H 	0.74650 0.38296 0.21568 0.08200
O 	O 	0.53896 0.24489 0.30532 -0.11000
O 	O 	0.56632 0.19942 0.34592 -0.12000
O 	O 	0.86145 0.39390 0.27614 -0.10100
O 	O 	0.81541 0.29642 0.24016 -0.08800
O 	O 	0.77493 0.41156 0.11465 -0.12000
O 	O 	0.73133 0.43924 0.15674 -0.11000
O 	O 	0.57864 0.11493 0.18217 -0.10200
O 	O 	0.67655 0.15893 0.21695 -0.08800
C 	C 	0.78743 0.53425 0.46273 -0.07200
C 	C 	0.81318 0.55874 0.42978 0.00600
C 	C 	0.83369 0.61989 0.42536 -0.05200
C 	C 	0.83298 0.65960 0.45544 0.01300
C 	C 	0.80339 0.63338 0.48756 0.00700
C 	C 	0.78179 0.57126 0.49133 -0.01600
C 	C 	0.79398 0.66865 0.51490 -0.03400
C 	C 	0.81449 0.73000 0.51115 -0.04600
C 	C 	0.84801 0.75872 0.48129 0.02800
C 	C 	0.85918 0.72439 0.45370 -0.00600
C 	C 	0.89983 0.75689 0.42707 -0.03200
C 	C 	0.92515 0.82041 0.42632 -0.02900
C 	C 	0.91397 0.85418 0.45349 -0.00400
C 	C 	0.87402 0.82285 0.48023 -0.05000
H 	H 	0.81430 0.52907 0.40648 0.04500
H 	H 	0.84599 0.63418 0.39755 0.04800
H 	H 	0.75984 0.55143 0.51616 0.04200
H 	H 	0.77004 0.64821 0.53898 0.04400
H 	H 	0.80601 0.75610 0.53234 0.04600
H 	H 	0.91574 0.73506 0.40886 0.04300
H 	H 	0.95671 0.84463 0.40593 0.04700
H 	H 	0.86630 0.84935 0.50172 0.05200
C 	C 	0.93222 0.05309 0.46511 0.00300
C 	C 	0.86652 0.01999 0.45101 -0.03800
C 	C 	0.83947 0.05271 0.45016 -0.02700
C 	C 	0.87761 0.11923 0.46465 -0.01100
C 	C 	0.94450 0.15301 0.47612 0.03600
C 	C 	0.97086 0.11961 0.47791 -0.06200
C 	C 	0.98471 0.21995 0.48430 -0.05700
C 	C 	0.95937 0.25377 0.48119 -0.02900
C 	C 	0.89304 0.22144 0.47272 0.00400
C 	C 	0.85125 0.15373 0.46606 0.01700
C 	C 	0.78504 0.12273 0.46403 -0.05400
C 	C 	0.76089 0.15810 0.46556 0.01100
C 	C 	0.80214 0.22482 0.47020 -0.07600
C 	C 	0.86799 0.25624 0.47314 -0.01200
H 	H 	0.83661 0.96916 0.43945 0.05300
H 	H 	0.79009 0.02679 0.43600 0.04100
H 	H 	0.02175 0.14565 0.48851 0.05900
H 	H 	0.03606 0.24597 0.49229 0.05100
H 	H 	0.99145 0.30551 0.48668 0.04000
H 	H 	0.75265 0.07214 0.46388 0.04800
H 	H 	0.71008 0.13364 0.46425 0.04000
H 	H 	0.90005 0.30799 0.47785 0.04200
C 	C 	0.45635 0.23938 0.47310 -0.06600
C 	C 	0.42710 0.19057 0.49511 0.00900
C 	C 	0.36189 0.15631 0.49567 -0.05100
C 	C 	0.32394 0.16807 0.47236 0.01500
C 	C 	0.35448 0.22076 0.45282 0.00800
C 	C 	0.42013 0.25519 0.45263 -0.01300
C 	C 	0.31951 0.23952 0.43455 -0.03200
C 	C 	0.25461 0.20655 0.43538 -0.04600
C 	C 	0.22260 0.15191 0.45242 0.03000
C 	C 	0.25643 0.13042 0.46951 -0.00600
C 	C 	0.22160 0.07030 0.48106 -0.02900
C 	C 	0.15598 0.03623 0.47991 -0.03400
C 	C 	0.12319 0.05961 0.46533 -0.00200
C 	C 	0.15655 0.11716 0.45125 -0.05100
H 	H 	0.45503 0.17950 0.51219 0.04700
H 	H 	0.34213 0.12325 0.51572 0.05100
H 	H 	0.44313 0.29480 0.43704 0.04900
H 	H 	0.34296 0.28052 0.42018 0.04300
H 	H 	0.22877 0.22273 0.42188 0.04700
H 	H 	0.24412 0.04810 0.48892 0.04200
H 	H 	0.13042 0.99101 0.48988 0.05400
H 	H 	0.13091 0.13411 0.43855 0.05300
C 	C 	0.89782 0.85323 0.98366 -0.00200
C 	C 	0.90789 0.81687 0.95782 -0.02800
C 	C 	0.87302 0.75108 0.95605 -0.03200
C 	C 	0.82957 0.72105 0.98172 -0.00300
C 	C 	0.81502 0.75676 0.00492 0.02700
C 	C 	0.85013 0.82285 0.00635 -0.05100
C 	C 	0.76501 0.72599 0.02593 -0.04500
C 	C 	0.72974 0.66035 0.02453 -0.03300
C 	C 	0.74631 0.62492 0.00408 0.00800
C 	C 	0.79818 0.65547 0.98377 0.01500
C 	C 	0.81992 0.62105 0.96840 -0.04800
C 	C 	0.78667 0.55620 0.96965 0.01100
C 	C 	0.73298 0.52512 0.98768 -0.06200
C 	C 	0.71305 0.55964 0.00497 -0.01500
H 	H 	0.94218 0.83950 0.93860 0.04800
H 	H 	0.87777 0.72361 0.93347 0.04500
H 	H 	0.84098 0.85068 0.02548 0.05200
H 	H 	0.75282 0.75288 0.04303 0.04600
H 	H 	0.69042 0.63725 0.04034 0.04300
H 	H 	0.86430 0.64473 0.95755 0.05000
H 	H 	0.80390 0.53053 0.95759 0.05100
H 	H 	0.67205 0.53590 0.01941 0.04800
C 	C 	0.92128 0.05384 0.00102 -0.00400
C 	C 	0.87163 0.03182 0.02238 -0.03400
C 	C 	0.83912 0.05899 0.02331 -0.03000
C 	C 	0.85402 0.10698 0.00128 -0.01100
C 	C 	0.90878 0.13400 0.98354 0.03100
C 	C 	0.94126 0.10639 0.98278 -0.05100
C 	C 	0.93080 0.18851 0.96710 -0.04800
C 	C 	0.89834 0.21565 0.96731 -0.03300
C 	C 	0.84096 0.18643 0.98161 0.00500
C 	C 	0.81695 0.13039 0.99752 0.01800
C 	C 	0.75472 0.09663 0.00631 -0.05500
C 	C 	0.71955 0.12083 0.00221 0.00600
C 	C 	0.74453 0.17776 0.98799 -0.07400
C 	C 	0.80568 0.21089 0.97828 -0.01600
H 	H 	0.85844 0.99380 0.03854 0.04900
H 	H 	0.80476 0.04461 0.04254 0.04200
H 	H 	0.98107 0.12493 0.96738 0.05100
H 	H 	0.97362 0.21036 0.95443 0.04500
H 	H 	0.91677 0.25842 0.95502 0.04100
H 	H 	0.73168 0.04992 0.01392 0.04800
H 	H 	0.67175 0.09386 0.00873 0.04400
H 	H 	0.82510 0.25475 0.96708 0.04400
C 	C 	0.10934 0.05610 0.99563 -0.00100
C 	C 	0.14103 0.10041 0.97118 -0.02900
C 	C 	0.20502 0.12756 0.96953 -0.03200
C 	C 	0.23943 0.11296 0.99400 -0.00400
C 	C 	0.20636 0.06632 0.01759 0.02700
C 	C 	0.14227 0.03973 0.01909 -0.05200
C 	C 	0.23661 0.04452 0.03803 -0.04500
C 	C 	0.29889 0.06758 0.03493 -0.03400
C 	C 	0.33367 0.11578 0.01330 0.00700
C 	C 	0.30528 0.14102 0.99398 0.01300
C 	C 	0.34413 0.19549 0.97713 -0.05100
C 	C 	0.40773 0.22018 0.97633 0.00300
C 	C 	0.43500 0.19346 0.99407 -0.06900
C 	C 	0.39761 0.14094 0.01225 -0.01800
H 	H 	0.11519 0.11151 0.95193 0.04600
H 	H 	0.22581 0.15619 0.94741 0.04200
H 	H 	0.11737 0.00472 0.03760 0.05300
H 	H 	0.21117 0.00833 0.05570 0.04700
H 	H 	0.32073 0.04880 0.05018 0.04500
H 	H 	0.32694 0.22130 0.96682 0.04700
H 	H 	0.43642 0.26154 0.96289 0.04100
H 	H 	0.41883 0.12106 0.02683 0.05200
