data_crystal

_cell_length_a 27.56090
_cell_length_b 28.24083
_cell_length_c 35.04113
_cell_angle_alpha 95.45462
_cell_angle_beta  95.44660
_cell_angle_gamma 125.73704

_symmetry_space_group_name_	'P 1'
_symmetry_space_group_name_H-M	'P 1'

loop_
_symmetry_equiv_pos_as_xyz
  x,y,z

loop_
_atom_site_label
_atom_site_type_symbol
_atom_site_fract_x
_atom_site_fract_y
_atom_site_fract_z
_atom_site_charge
C 	C 	0.96580 0.03127 0.99335 0.13000
N 	N 	0.93209 0.97204 0.99315 -0.13400
C 	C 	0.95733 0.94307 0.98860 0.13200
N 	N 	0.01614 0.97324 0.98420 -0.13000
C 	C 	0.04985 0.03236 0.98435 0.13600
N 	N 	0.02475 0.06149 0.98896 -0.13200
C 	C 	0.94003 0.99187 0.45172 0.13700
N 	N 	0.90903 0.93327 0.45363 -0.13600
C 	C 	0.93946 0.90904 0.45697 0.13100
N 	N 	0.00045 0.94330 0.45846 -0.13000
C 	C 	0.03125 0.00161 0.45660 0.13500
N 	N 	0.00110 0.02591 0.45324 -0.13500
Cu	Cu	0.64311 0.25620 0.00058 0.93000
Cu	Cu	0.69489 0.26222 0.91931 0.87800
Cu	Cu	0.67932 0.35238 0.95192 0.90100
Cu	Cu	0.64276 0.36496 0.02775 0.89700
C 	C 	0.65646 0.29645 0.08196 0.30400
O 	O 	0.55411 0.22120 0.99850 -0.34500
C 	C 	0.66095 0.31370 0.86670 0.30800
O 	O 	0.69247 0.34875 0.00588 -0.64300
O 	O 	0.63763 0.26496 0.94536 -0.63900
O 	O 	0.68024 0.21339 0.99794 -0.35700
O 	O 	0.74995 0.27658 0.96368 -0.43300
O 	O 	0.62912 0.32038 0.07152 -0.37300
O 	O 	0.72430 0.43776 0.96185 -0.37700
C 	C 	0.71758 0.46890 0.98846 0.31700
C 	C 	0.53128 0.24681 0.98375 0.30400
O 	O 	0.56760 0.30261 0.98034 -0.38600
O 	O 	0.67888 0.44392 0.01249 -0.39100
O 	O 	0.66162 0.26338 0.05585 -0.34300
C 	C 	0.73239 0.23705 0.98628 0.31300
O 	O 	0.68020 0.35737 0.89612 -0.37800
O 	O 	0.65851 0.26680 0.87207 -0.39300
H 	H 	0.73569 0.37417 0.01902 0.16900
H 	H 	0.59595 0.24080 0.92968 0.18600
Cu	Cu	0.73891 0.33526 0.45052 0.93000
Cu	Cu	0.74079 0.28957 0.53292 0.87600
Cu	Cu	0.64460 0.30132 0.50298 0.90100
Cu	Cu	0.62541 0.33434 0.42697 0.89900
C 	C 	0.69104 0.31880 0.36974 0.30400
O 	O 	0.77453 0.42233 0.45153 -0.34500
C 	C 	0.68966 0.32037 0.58774 0.30800
O 	O 	0.64456 0.28728 0.44833 -0.63900
O 	O 	0.73412 0.34302 0.50653 -0.63900
O 	O 	0.78142 0.29700 0.45126 -0.35800
O 	O 	0.72049 0.23284 0.48884 -0.43600
O 	O 	0.66655 0.34515 0.38109 -0.37200
O 	O 	0.55692 0.25651 0.49563 -0.37000
C 	C 	0.52302 0.25975 0.46831 0.31000
C 	C 	0.74844 0.44500 0.46608 0.30100
O 	O 	0.69277 0.40959 0.47229 -0.38200
O 	O 	0.54728 0.30034 0.44602 -0.38400
O 	O 	0.72719 0.31522 0.39494 -0.34200
C 	C 	0.75799 0.24713 0.46436 0.30800
O 	O 	0.64353 0.30179 0.55944 -0.36500
O 	O 	0.73916 0.32731 0.58021 -0.40900
H 	H 	0.61822 0.24486 0.43570 0.16900
H 	H 	0.75915 0.38426 0.52135 0.18300
C 	C 	0.60686 0.27737 0.75794 -0.07000
C 	C 	0.65452 0.32920 0.74712 0.02400
C 	C 	0.69728 0.37972 0.77604 0.05900
C 	C 	0.69554 0.37601 0.81554 -0.00500
C 	C 	0.65187 0.32205 0.82641 -0.08800
C 	C 	0.60503 0.27362 0.79745 0.11900
C 	C 	0.66409 0.32768 0.70637 0.02800
N 	N 	0.74400 0.43417 0.76544 -0.01700
H 	H 	0.73057 0.41402 0.83768 0.06400
N 	N 	0.55590 0.22046 0.80809 -0.02300
H 	H 	0.57244 0.23924 0.73567 0.08000
C 	C 	0.68882 0.29912 0.69242 0.05500
C 	C 	0.69727 0.29743 0.65372 -0.00200
C 	C 	0.68187 0.32447 0.62869 -0.09200
C 	C 	0.65779 0.35377 0.64277 0.12200
C 	C 	0.64850 0.35470 0.68145 -0.07300
N 	N 	0.70512 0.27146 0.71749 -0.01600
H 	H 	0.71558 0.27469 0.64305 0.05000
N 	N 	0.64421 0.38386 0.61825 -0.02300
H 	H 	0.63001 0.37718 0.69226 0.08300
O 	O 	0.53983 0.16895 0.79135 -0.09800
O 	O 	0.52530 0.22338 0.83307 -0.10600
O 	O 	0.74651 0.48143 0.77424 -0.09800
O 	O 	0.78688 0.43776 0.74998 -0.09100
O 	O 	0.59020 0.37123 0.61299 -0.09600
O 	O 	0.68701 0.42693 0.60359 -0.10100
O 	O 	0.67967 0.21499 0.70839 -0.10400
O 	O 	0.74830 0.30343 0.74797 -0.09600
C 	C 	0.65797 0.24397 0.17749 -0.07200
C 	C 	0.68383 0.29646 0.20440 0.02600
C 	C 	0.70486 0.34968 0.19091 0.05600
C 	C 	0.69847 0.34954 0.15078 -0.00400
C 	C 	0.66952 0.29647 0.12380 -0.08900
C 	C 	0.64937 0.24331 0.13732 0.12500
C 	C 	0.68489 0.29475 0.24653 0.02600
N 	N 	0.73109 0.40364 0.21791 -0.01600
H 	H 	0.71429 0.39051 0.14058 0.05000
N 	N 	0.61722 0.18812 0.11053 -0.02100
H 	H 	0.64190 0.20302 0.18779 0.08200
C 	C 	0.63066 0.26806 0.26155 0.05700
C 	C 	0.63310 0.27312 0.30193 -0.00400
C 	C 	0.68924 0.30594 0.32765 -0.08800
C 	C 	0.74342 0.33106 0.31259 0.12500
C 	C 	0.74074 0.32414 0.27213 -0.07200
N 	N 	0.57317 0.23749 0.23589 -0.01700
H 	H 	0.59135 0.25340 0.31335 0.05000
N 	N 	0.80137 0.36644 0.33817 -0.02200
H 	H 	0.78248 0.34433 0.26065 0.08200
O 	O 	0.56280 0.16458 0.09167 -0.08500
O 	O 	0.63999 0.15880 0.10775 -0.09300
O 	O 	0.78652 0.44949 0.21837 -0.10200
O 	O 	0.69807 0.40838 0.23983 -0.09000
O 	O 	0.83653 0.34978 0.33901 -0.09300
O 	O 	0.82131 0.41790 0.35779 -0.08500
O 	O 	0.53125 0.18150 0.23534 -0.10000
O 	O 	0.56105 0.26664 0.21541 -0.09000
C 	C 	0.81631 0.61786 0.46541 -0.00200
C 	C 	0.85282 0.66262 0.49844 -0.02500
C 	C 	0.87338 0.72091 0.49728 -0.03900
C 	C 	0.85747 0.73472 0.46309 0.02000
C 	C 	0.82016 0.68975 0.43027 -0.03900
C 	C 	0.79961 0.63147 0.43143 -0.02500
C 	C 	0.88450 0.79581 0.46044 0.00900
C 	C 	0.90759 0.84719 0.45881 -0.03000
C 	C 	0.79416 0.55753 0.46671 0.05300
C 	C 	0.77486 0.50663 0.46685 -0.09300
H 	H 	0.86549 0.65238 0.52493 0.04800
H 	H 	0.90247 0.75546 0.52272 0.05100
H 	H 	0.80794 0.70007 0.40366 0.05200
H 	H 	0.77097 0.59703 0.40588 0.05000
C 	C 	0.85845 0.07462 0.44474 0.01800
C 	C 	0.80940 0.05857 0.46331 -0.04100
C 	C 	0.78768 0.09270 0.46439 -0.02700
C 	C 	0.81493 0.14309 0.44692 -0.00600
C 	C 	0.86271 0.15805 0.42725 -0.02600
C 	C 	0.88441 0.12388 0.42615 -0.04000
C 	C 	0.79656 0.18152 0.45161 0.05200
C 	C 	0.77957 0.21220 0.45639 -0.10800
C 	C 	0.88536 0.04362 0.44742 0.01000
C 	C 	0.90884 0.01856 0.44919 -0.03800
H 	H 	0.78902 0.02055 0.47770 0.04900
H 	H 	0.75062 0.08073 0.47957 0.04300
H 	H 	0.88391 0.19679 0.41357 0.04800
H 	H 	0.92228 0.13653 0.41165 0.04900
C 	C 	0.21473 0.10162 0.46188 0.02000
C 	C 	0.25351 0.11939 0.49765 -0.03900
C 	C 	0.31623 0.15124 0.49930 -0.02500
C 	C 	0.34038 0.16540 0.46518 -0.00400
C 	C 	0.30164 0.14793 0.42945 -0.02600
C 	C 	0.23894 0.11609 0.42780 -0.04000
C 	C 	0.40494 0.19845 0.46684 0.05400
C 	C 	0.45890 0.22610 0.46777 -0.09600
C 	C 	0.14998 0.06674 0.45993 0.01000
C 	C 	0.09578 0.03753 0.45838 -0.03100
H 	H 	0.23507 0.10825 0.52411 0.05100
H 	H 	0.34595 0.16478 0.52704 0.05000
H 	H 	0.32005 0.15889 0.40297 0.04600
H 	H 	0.20921 0.10239 0.40003 0.05100
C 	C 	0.86009 0.76563 0.98818 0.02500
C 	C 	0.83950 0.72607 0.95288 -0.04000
C 	C 	0.81027 0.66565 0.95280 -0.02500
C 	C 	0.80155 0.64461 0.98802 -0.00100
C 	C 	0.82142 0.68404 0.02327 -0.02900
C 	C 	0.85065 0.74446 0.02335 -0.04400
C 	C 	0.77217 0.58261 0.98800 0.05500
C 	C 	0.74759 0.53070 0.98813 -0.09900
C 	C 	0.89386 0.82825 0.98850 0.00900
C 	C 	0.92213 0.88066 0.98860 -0.03000
H 	H 	0.84675 0.74218 0.92558 0.05200
H 	H 	0.79477 0.63533 0.92542 0.05000
H 	H 	0.81457 0.66799 0.05059 0.04500
H 	H 	0.86656 0.77485 0.05075 0.05000
C 	C 	0.88661 0.11564 0.00325 0.01000
C 	C 	0.91600 0.17330 0.99558 -0.03600
C 	C 	0.88599 0.19963 0.99519 -0.02100
C 	C 	0.82649 0.16838 0.00247 -0.01600
C 	C 	0.79793 0.11155 0.01151 -0.02300
C 	C 	0.82795 0.08523 0.01190 -0.03900
C 	C 	0.79301 0.19245 0.99733 0.06200
C 	C 	0.76536 0.21298 0.99294 -0.11100
C 	C 	0.91506 0.08634 0.99988 0.01400
C 	C 	0.93861 0.06154 0.99711 -0.03400
H 	H 	0.96148 0.19719 0.98905 0.04800
H 	H 	0.90841 0.24365 0.98828 0.04300
H 	H 	0.75199 0.08720 0.01727 0.04700
H 	H 	0.80508 0.04074 0.01805 0.04900
C 	C 	0.35059 0.17076 0.97414 -0.00400
C 	C 	0.33398 0.20166 0.99601 -0.02000
C 	C 	0.27261 0.17564 0.99624 -0.03500
C 	C 	0.22763 0.11864 0.97460 0.02000
C 	C 	0.24415 0.08846 0.95178 -0.03800
C 	C 	0.30556 0.11449 0.95156 -0.02300
C 	C 	0.16506 0.08932 0.97814 0.01200
C 	C 	0.11247 0.06416 0.98081 -0.03100
C 	C 	0.41381 0.19573 0.97643 0.05700
C 	C 	0.46721 0.21813 0.97913 -0.09600
H 	H 	0.36860 0.24532 0.01340 0.04300
H 	H 	0.26015 0.19925 0.01391 0.04700
H 	H 	0.20955 0.04439 0.93491 0.05200
H 	H 	0.31808 0.09048 0.93444 0.04900
