data_crystal

_cell_length_a 16.39295
_cell_length_b 16.10024
_cell_length_c 34.51620
_cell_angle_alpha 90.96734
_cell_angle_beta  91.07366
_cell_angle_gamma 113.24569

_symmetry_space_group_name_	'P 1'
_symmetry_space_group_name_H-M	'P 1'

loop_
_symmetry_equiv_pos_as_xyz
  x,y,z

loop_
_atom_site_label
_atom_site_type_symbol
_atom_site_fract_x
_atom_site_fract_y
_atom_site_fract_z
_atom_site_charge
Ni	Ni	0.81449 0.38586 0.89599 1.10800
O 	O 	0.68970 0.30403 0.87654 -0.70100
Ni	Ni	0.61371 0.32493 0.91690 1.10800
O 	O 	0.87670 0.31625 0.86673 -0.31700
O 	O 	0.78258 0.18653 0.89317 -0.36700
O 	O 	0.83135 0.46850 0.84875 -0.32500
Ni	Ni	0.65901 0.17426 0.87211 1.10000
O 	O 	0.88858 0.59249 0.92372 -0.37000
O 	O 	0.59703 0.11376 0.92189 -0.34700
O 	O 	0.49293 0.22367 0.90196 -0.34800
O 	O 	0.73716 0.41925 0.93251 -0.69400
O 	O 	0.93333 0.47606 0.91690 -0.32000
O 	O 	0.55372 0.37766 0.95636 -0.34600
O 	O 	0.61821 0.51722 0.92996 -0.36600
Ni	Ni	0.75344 0.54546 0.92670 1.07900
H 	H 	0.67638 0.32584 0.85152 0.18700
H 	H 	0.75250 0.41012 0.95953 0.16100
C 	C 	0.59558 0.15463 0.95510 0.29700
O 	O 	0.74058 0.53700 0.86808 -0.37100
C 	C 	0.85347 0.22957 0.87296 0.35600
C 	C 	0.47637 0.16974 0.87071 0.39400
C 	C 	0.80654 0.53700 0.84727 0.39100
C 	C 	0.56793 0.46417 0.95642 0.27600
C 	C 	0.93305 0.54581 0.93724 0.29800
O 	O 	0.63130 0.24347 0.95861 -0.38000
O 	O 	0.54055 0.16345 0.84968 -0.36700
Ni	Ni	0.64653 0.21188 0.63114 1.10700
O 	O 	0.72239 0.33968 0.65139 -0.70000
Ni	Ni	0.70100 0.41616 0.61062 1.10700
O 	O 	0.71734 0.15124 0.66078 -0.31800
O 	O 	0.84320 0.25200 0.63532 -0.36900
O 	O 	0.56149 0.18948 0.67743 -0.32300
Ni	Ni	0.85030 0.37510 0.65728 1.10000
O 	O 	0.44534 0.13201 0.60468 -0.37100
O 	O 	0.91054 0.44129 0.60819 -0.34500
O 	O 	0.79631 0.54125 0.62629 -0.34500
O 	O 	0.61211 0.28913 0.59430 -0.69400
O 	O 	0.56240 0.09007 0.60905 -0.32400
O 	O 	0.64792 0.47477 0.57048 -0.34500
O 	O 	0.51050 0.40531 0.59602 -0.36700
Ni	Ni	0.48734 0.26895 0.60013 1.07900
H 	H 	0.69874 0.35155 0.67611 0.18700
H 	H 	0.62203 0.27440 0.56729 0.16200
C 	C 	0.87196 0.43925 0.57416 0.29900
O 	O 	0.49878 0.28614 0.65851 -0.37600
C 	C 	0.80317 0.17877 0.65517 0.35700
C 	C 	0.85103 0.55837 0.65697 0.40000
C 	C 	0.49755 0.21961 0.68001 0.39000
C 	C 	0.56223 0.45716 0.56968 0.27600
C 	C 	0.49111 0.08787 0.59009 0.29900
O 	O 	0.78478 0.40195 0.56974 -0.37800
O 	O 	0.85396 0.49338 0.67910 -0.37000
C 	C 	0.07263 0.98893 0.72560 -0.06500
H 	H 	0.08170 0.99886 0.69393 0.12400
C 	C 	0.05111 0.96384 0.80167 -0.06700
H 	H 	0.04269 0.95336 0.83334 0.12500
C 	C 	0.01753 0.03577 0.74480 0.11900
C 	C 	0.02476 0.89035 0.73739 0.11200
C 	C 	0.15917 0.02233 0.75016 0.10800
C 	C 	0.00817 0.02438 0.78403 0.12000
C 	C 	0.01292 0.87709 0.77634 0.11700
C 	C 	0.14768 0.00864 0.78908 0.11400
Ni	Ni	0.27844 0.66599 0.41839 1.10700
O 	O 	0.35347 0.79930 0.43172 -0.69600
Ni	Ni	0.31413 0.86103 0.38934 1.10800
O 	O 	0.33482 0.62583 0.46396 -0.35200
O 	O 	0.47403 0.70236 0.44106 -0.36800
O 	O 	0.18390 0.67490 0.45469 -0.37900
Ni	Ni	0.48123 0.83195 0.42951 1.07800
O 	O 	0.13353 0.56226 0.34977 -0.37900
O 	O 	0.47431 0.79867 0.37215 -0.37200
O 	O 	0.38473 0.99017 0.40815 -0.31100
O 	O 	0.25162 0.72803 0.37309 -0.69700
O 	O 	0.19685 0.53332 0.40564 -0.35400
O 	O 	0.23796 0.90426 0.35363 -0.32500
O 	O 	0.11289 0.79973 0.37881 -0.38600
Ni	Ni	0.12300 0.67908 0.36430 1.10500
H 	H 	0.33827 0.81699 0.45733 0.16600
H 	H 	0.27992 0.71516 0.34995 0.19000
C 	C 	0.47267 0.85679 0.34647 0.37900
O 	O 	0.06081 0.62131 0.41416 -0.34000
C 	C 	0.42146 0.64990 0.46709 0.27600
C 	C 	0.45900 0.00549 0.42784 0.27500
C 	C 	0.09821 0.62733 0.44879 0.30000
C 	C 	0.15134 0.87085 0.35761 0.39200
C 	C 	0.13941 0.50585 0.37587 0.40900
O 	O 	0.40606 0.88348 0.34568 -0.31600
O 	O 	0.51032 0.96403 0.41682 -0.37000
Ni	Ni	0.35691 0.74465 0.10848 1.10700
O 	O 	0.22573 0.67050 0.09492 -0.69600
Ni	Ni	0.16612 0.70970 0.13789 1.10800
O 	O 	0.39513 0.68852 0.06223 -0.35300
O 	O 	0.31885 0.54565 0.08387 -0.36800
O 	O 	0.34990 0.84268 0.07290 -0.38000
Ni	Ni	0.19205 0.53993 0.09570 1.07800
O 	O 	0.46066 0.89225 0.17702 -0.37800
O 	O 	0.22279 0.54177 0.15317 -0.37000
O 	O 	0.03883 0.63916 0.11937 -0.31800
O 	O 	0.29684 0.77205 0.15396 -0.69800
O 	O 	0.48759 0.82572 0.12148 -0.35400
O 	O 	0.12472 0.78536 0.17485 -0.32700
O 	O 	0.22647 0.91493 0.15079 -0.38200
Ni	Ni	0.34534 0.90291 0.16330 1.10400
H 	H 	0.20868 0.68768 0.06957 0.16500
H 	H 	0.30935 0.74265 0.17697 0.19000
C 	C 	0.16643 0.54476 0.17897 0.38000
O 	O 	0.39938 0.96777 0.11332 -0.34000
C 	C 	0.37171 0.60047 0.05851 0.27500
C 	C 	0.02270 0.56512 0.09840 0.29000
C 	C 	0.39847 0.92922 0.07926 0.30000
C 	C 	0.15671 0.87369 0.17181 0.39100
C 	C 	0.51530 0.88561 0.15071 0.40600
O 	O 	0.14472 0.61538 0.18100 -0.31900
O 	O 	0.06223 0.51073 0.10801 -0.37900
C 	C 	0.92283 0.12041 0.22619 -0.07300
H 	H 	0.93439 0.13172 0.19471 0.12600
C 	C 	0.89389 0.09361 0.30162 -0.06900
H 	H 	0.88146 0.08281 0.33306 0.12700
C 	C 	0.96582 0.06124 0.24493 0.12100
C 	C 	0.95762 0.20678 0.25164 0.10800
C 	C 	0.82479 0.07366 0.23683 0.11900
C 	C 	0.94990 0.04631 0.28373 0.10700
C 	C 	0.94366 0.19287 0.29054 0.11800
C 	C 	0.80964 0.06062 0.27567 0.10900
C 	C 	0.14934 0.39293 0.20413 0.29200
C 	C 	0.11864 0.46328 0.20251 -0.19500
C 	C 	0.03699 0.45065 0.21959 0.29900
C 	C 	0.98568 0.36786 0.23628 0.23500
C 	C 	0.01447 0.29644 0.23579 -0.08300
C 	C 	0.09636 0.30940 0.21948 0.24700
F 	F 	0.12491 0.24104 0.21851 -0.33900
F 	F 	0.23038 0.40511 0.19055 -0.36500
F 	F 	0.90667 0.35628 0.25194 -0.33100
F 	F 	0.00605 0.51739 0.21918 -0.35500
C 	C 	0.65307 0.88376 0.17857 0.30700
C 	C 	0.60976 0.93094 0.15904 -0.20400
C 	C 	0.64881 0.02570 0.15876 0.29200
C 	C 	0.72209 0.07280 0.18305 0.25100
C 	C 	0.75696 0.02502 0.20709 -0.09700
C 	C 	0.72574 0.93055 0.20309 0.26000
F 	F 	0.76364 0.88411 0.22416 -0.31000
F 	F 	0.61863 0.79194 0.17706 -0.36300
F 	F 	0.75575 0.16457 0.18504 -0.34600
F 	F 	0.61028 0.07187 0.13784 -0.38700
C 	C 	0.15249 0.99176 0.21780 0.31200
C 	C 	0.11010 0.92552 0.18891 -0.20500
C 	C 	0.02520 0.91297 0.17488 0.31200
C 	C 	0.98123 0.96349 0.19085 0.26700
C 	C 	0.01997 0.02342 0.22239 -0.07500
C 	C 	0.10812 0.04155 0.23411 0.23900
F 	F 	0.14980 0.10568 0.26193 -0.31700
F 	F 	0.23614 0.00667 0.23050 -0.39200
F 	F 	0.90168 0.95498 0.17541 -0.35500
F 	F 	0.98601 0.85293 0.14526 -0.37000
C 	C 	0.61880 0.86755 0.32021 0.29000
C 	C 	0.55325 0.90356 0.32291 -0.19700
C 	C 	0.57063 0.98949 0.30748 0.30800
C 	C 	0.65342 0.03965 0.29141 0.23300
C 	C 	0.72019 0.00550 0.29107 -0.09600
C 	C 	0.70250 0.91945 0.30573 0.25400
F 	F 	0.76645 0.88583 0.30596 -0.33400
F 	F 	0.60184 0.78245 0.33204 -0.36300
F 	F 	0.66945 0.12254 0.27714 -0.33000
F 	F 	0.50858 0.02559 0.30887 -0.36200
C 	C 	0.99952 0.37221 0.36907 0.30200
C 	C 	0.09254 0.40987 0.36778 -0.21200
C 	C 	0.13602 0.36419 0.34742 0.31300
C 	C 	0.08725 0.29090 0.32306 0.25200
C 	C 	0.99445 0.26138 0.32003 -0.08500
C 	C 	0.95042 0.29836 0.34490 0.24900
F 	F 	0.86035 0.26631 0.34387 -0.34500
F 	F 	0.95696 0.41288 0.39084 -0.38600
F 	F 	0.13003 0.25005 0.30161 -0.31200
F 	F 	0.22613 0.39698 0.34803 -0.36300
C 	C 	0.10406 0.99893 0.35377 0.32900
C 	C 	0.09757 0.91441 0.33966 -0.20800
C 	C 	0.03170 0.86675 0.31164 0.30500
C 	C 	0.97638 0.90595 0.29616 0.23700
C 	C 	0.98906 0.99456 0.30748 -0.05300
C 	C 	0.04799 0.03754 0.33863 0.24600
F 	F 	0.04958 0.11540 0.35477 -0.36000
F 	F 	0.16301 0.04241 0.38295 -0.37500
F 	F 	0.91258 0.85926 0.26922 -0.31600
F 	F 	0.02201 0.78282 0.29920 -0.39300
C 	C 	0.39897 0.03559 0.52982 -0.00100
C 	C 	0.48268 0.06706 0.54846 -0.09100
C 	C 	0.55917 0.08781 0.52652 -0.00600
C 	C 	0.55173 0.07495 0.48643 -0.02000
C 	C 	0.46778 0.03952 0.46792 -0.06600
C 	C 	0.39148 0.02222 0.48970 -0.02600
H 	H 	0.33967 0.02081 0.54645 0.05900
H 	H 	0.62448 0.11503 0.54049 0.03400
H 	H 	0.61110 0.08984 0.46983 0.06400
H 	H 	0.32613 0.99475 0.47578 0.06100
C 	C 	0.01914 0.49769 0.54131 0.00800
C 	C 	0.92855 0.48347 0.54086 -0.04100
C 	C 	0.89470 0.51886 0.51052 0.00600
C 	C 	0.95056 0.56793 0.48121 0.01000
C 	C 	0.04123 0.58257 0.48183 -0.03600
C 	C 	0.07501 0.54703 0.51209 0.00500
H 	H 	0.04645 0.47062 0.56432 0.08300
H 	H 	0.82563 0.50991 0.50991 0.06700
H 	H 	0.92327 0.59473 0.45810 0.08000
H 	H 	0.14411 0.55604 0.51267 0.06700
C 	C 	0.43611 0.47020 0.53261 0.00300
C 	C 	0.52663 0.50692 0.54346 -0.04500
C 	C 	0.58236 0.59141 0.52954 0.00700
C 	C 	0.54781 0.63855 0.50503 0.00300
C 	C 	0.45728 0.60155 0.49403 -0.04300
C 	C 	0.40159 0.51722 0.50813 0.00600
H 	H 	0.39255 0.40475 0.54287 0.04900
H 	H 	0.65215 0.62103 0.53798 0.07700
H 	H 	0.59136 0.70396 0.49473 0.05500
H 	H 	0.33180 0.48739 0.49970 0.07300
C 	C 	0.86889 0.03290 0.72399 0.23900
C 	C 	0.96192 0.07073 0.72128 -0.08900
C 	C 	0.00193 0.13917 0.69488 0.26000
C 	C 	0.95004 0.17125 0.67196 0.28200
C 	C 	0.85694 0.13674 0.67597 -0.19700
C 	C 	0.81671 0.06568 0.70160 0.30000
F 	F 	0.72707 0.02769 0.70463 -0.35200
F 	F 	0.82883 0.96306 0.74782 -0.30600
F 	F 	0.99039 0.23573 0.64579 -0.38300
F 	F 	0.09158 0.17542 0.69168 -0.34800
C 	C 	0.37147 0.21561 0.72121 0.30000
C 	C 	0.41683 0.16891 0.70236 -0.20500
C 	C 	0.37808 0.07364 0.70025 0.30300
C 	C 	0.29383 0.02620 0.71540 0.23300
C 	C 	0.24783 0.07310 0.73331 -0.08400
C 	C 	0.28729 0.16797 0.73639 0.23800
F 	F 	0.24382 0.21415 0.75382 -0.31000
F 	F 	0.40858 0.30726 0.72450 -0.35800
F 	F 	0.25678 0.93460 0.71245 -0.31300
F 	F 	0.42042 0.02703 0.68223 -0.36000
C 	C 	0.99068 0.67358 0.68498 0.30500
C 	C 	0.90580 0.65204 0.66824 -0.21400
C 	C 	0.86949 0.71773 0.66756 0.30700
C 	C 	0.91324 0.80020 0.68727 0.24500
C 	C 	0.99181 0.81608 0.70859 -0.09100
C 	C 	0.03293 0.75487 0.70565 0.23700
F 	F 	0.11105 0.77175 0.72489 -0.30600
F 	F 	0.03003 0.61362 0.68278 -0.37300
F 	F 	0.87646 0.86228 0.68776 -0.34200
F 	F 	0.78913 0.69933 0.65005 -0.36900
C 	C 	0.93588 0.47108 0.99920 -0.00400
C 	C 	0.95336 0.55078 0.97881 -0.08900
C 	C 	0.98385 0.63423 0.99887 -0.00000
C 	C 	0.00031 0.63847 0.03875 -0.01400
C 	C 	0.98684 0.55910 0.05885 -0.06900
C 	C 	0.95183 0.47524 0.03906 -0.01600
H 	H 	0.90933 0.40584 0.98417 0.03200
H 	H 	0.99606 0.69593 0.98346 0.06200
H 	H 	0.02711 0.70376 0.05371 0.05700
H 	H 	0.93954 0.41347 0.05441 0.06200
C 	C 	0.53590 0.00659 0.98927 -0.01700
C 	C 	0.54988 0.09873 0.98843 -0.03400
C 	C 	0.51265 0.13448 0.01730 0.00300
C 	C 	0.46170 0.07884 0.04634 0.00600
C 	C 	0.44688 0.98649 0.04683 -0.03500
C 	C 	0.48457 0.95093 0.01815 0.01900
H 	H 	0.56450 0.97786 0.96745 0.09200
H 	H 	0.52155 0.20480 0.01691 0.06700
H 	H 	0.43333 0.10752 0.06827 0.07800
H 	H 	0.47545 0.88053 0.01853 0.06300
C 	C 	0.50109 0.62466 0.01623 0.00300
C 	C 	0.42081 0.56550 0.03168 -0.04200
C 	C 	0.38836 0.47279 0.02185 0.00100
C 	C 	0.43615 0.43957 0.99729 0.00900
C 	C 	0.51673 0.49877 0.98214 -0.04500
C 	C 	0.54871 0.59146 0.99171 0.00500
H 	H 	0.52733 0.69626 0.02360 0.07200
H 	H 	0.32605 0.42647 0.03309 0.05700
H 	H 	0.41012 0.36800 0.98986 0.07600
H 	H 	0.61107 0.63779 0.98050 0.05100
C 	C 	0.97226 0.22261 0.82950 0.29000
C 	C 	0.89945 0.17812 0.85322 -0.19500
C 	C 	0.86739 0.08317 0.85616 0.28900
C 	C 	0.90350 0.03361 0.83381 0.24300
C 	C 	0.97257 0.07777 0.80868 -0.09000
C 	C 	0.00825 0.17263 0.80733 0.25700
F 	F 	0.07830 0.21648 0.78463 -0.31500
F 	F 	0.00859 0.31423 0.82806 -0.34500
F 	F 	0.86972 0.94210 0.83591 -0.34000
F 	F 	0.80094 0.03869 0.88048 -0.38700
C 	C 	0.35935 0.03295 0.84035 0.28400
C 	C 	0.38432 0.11932 0.85769 -0.20500
C 	C 	0.32347 0.16097 0.85828 0.30000
C 	C 	0.24196 0.12037 0.83851 0.24900
C 	C 	0.22198 0.03947 0.81729 -0.10800
C 	C 	0.27879 0.99365 0.81981 0.26000
F 	F 	0.25802 0.91343 0.80052 -0.30700
F 	F 	0.41472 0.98874 0.84232 -0.35900
F 	F 	0.18468 0.16233 0.83798 -0.34300
F 	F 	0.34559 0.24329 0.87592 -0.37200
C 	C 	0.95272 0.65407 0.82736 0.30200
C 	C 	0.85918 0.61856 0.82518 -0.20400
C 	C 	0.81645 0.66676 0.80554 0.30100
C 	C 	0.86645 0.75059 0.78945 0.24100
C 	C 	0.95970 0.78711 0.79269 -0.08400
C 	C 	0.00252 0.73818 0.81148 0.24200
F 	F 	0.09247 0.77233 0.81461 -0.31900
F 	F 	0.99542 0.60870 0.84606 -0.35900
F 	F 	0.82415 0.79667 0.77106 -0.30800
F 	F 	0.72646 0.63257 0.80215 -0.35700
