data_crystal

_cell_length_a 22.93603
_cell_length_b 21.95525
_cell_length_c 60.36585
_cell_angle_alpha 89.65995
_cell_angle_beta  89.68586
_cell_angle_gamma 119.84585

_symmetry_space_group_name_	'P 1'
_symmetry_space_group_name_H-M	'P 1'

loop_
_symmetry_equiv_pos_as_xyz
  x,y,z

loop_
_atom_site_label
_atom_site_type_symbol
_atom_site_fract_x
_atom_site_fract_y
_atom_site_fract_z
_atom_site_charge
C 	C 	0.65929 0.44504 0.96437 0.25200
C 	C 	0.60017 0.15922 0.94513 0.27200
C 	C 	0.73033 0.34252 0.99035 0.27400
C 	C 	0.52714 0.26067 0.91767 0.28900
C 	C 	0.80207 0.31625 0.92190 0.31100
C 	C 	0.73473 0.43230 0.90056 0.28800
Ni	Ni	0.60617 0.28949 0.96175 1.11300
Ni	Ni	0.66445 0.28050 0.91358 1.12000
Ni	Ni	0.75850 0.40490 0.94625 1.12100
O 	O 	0.60367 0.38256 0.96387 -0.35800
O 	O 	0.71951 0.45073 0.96651 -0.36500
O 	O 	0.73951 0.26545 0.92324 -0.39400
O 	O 	0.61845 0.20219 0.96194 -0.36400
O 	O 	0.59846 0.18178 0.92504 -0.36000
O 	O 	0.75940 0.46160 0.91998 -0.38300
O 	O 	0.66680 0.32612 0.98992 -0.35200
O 	O 	0.76247 0.34767 0.97186 -0.36800
O 	O 	0.72540 0.36901 0.89560 -0.38400
O 	O 	0.52636 0.24217 0.93888 -0.36500
O 	O 	0.58228 0.28623 0.90517 -0.38300
O 	O 	0.81907 0.37992 0.92866 -0.38100
O 	O 	0.66967 0.33369 0.93887 -0.71300
H 	H 	0.65250 0.36289 0.93241 0.15300
C 	C 	0.80598 0.35503 0.54621 0.30600
C 	C 	0.65417 0.43221 0.48389 0.27400
C 	C 	0.83242 0.52770 0.52411 0.27900
C 	C 	0.62217 0.24309 0.50200 0.25100
C 	C 	0.63535 0.47906 0.55122 0.30900
C 	C 	0.59794 0.29980 0.57076 0.29100
Ni	Ni	0.74358 0.38701 0.50543 1.11200
Ni	Ni	0.59722 0.34980 0.52548 1.12000
Ni	Ni	0.72799 0.42681 0.55563 1.12100
O 	O 	0.81601 0.38157 0.52563 -0.36500
O 	O 	0.76754 0.36398 0.56088 -0.38100
O 	O 	0.58623 0.41547 0.54653 -0.37700
O 	O 	0.68362 0.39461 0.48101 -0.36200
O 	O 	0.61793 0.42392 0.50173 -0.36200
O 	O 	0.64564 0.36562 0.57500 -0.38400
O 	O 	0.79130 0.49516 0.50789 -0.37000
O 	O 	0.82118 0.49781 0.54377 -0.35800
O 	O 	0.57064 0.28132 0.55080 -0.38700
O 	O 	0.68872 0.27962 0.50034 -0.34900
O 	O 	0.58571 0.27528 0.50265 -0.36100
O 	O 	0.69793 0.49540 0.54809 -0.39000
O 	O 	0.68819 0.37271 0.53002 -0.71700
H 	H 	0.68070 0.32671 0.53518 0.15800
C 	C 	0.12061 0.03851 0.76147 0.29400
C 	C 	0.90106 0.88845 0.69933 0.32400
C 	C 	0.12325 0.02429 0.69866 0.32300
C 	C 	0.89575 0.89587 0.76331 0.30600
C 	C 	0.98274 0.10396 0.69223 0.29700
C 	C 	0.99248 0.12887 0.75708 0.28900
Ni	Ni	0.01396 0.93387 0.73146 1.11900
Ni	Ni	0.91651 0.00223 0.72882 1.11700
Ni	Ni	0.07602 0.10250 0.72576 1.12100
O 	O 	0.07406 0.97124 0.75948 -0.35900
O 	O 	0.13963 0.08237 0.74417 -0.37300
O 	O 	0.93384 0.04091 0.69776 -0.39200
O 	O 	0.96269 0.90004 0.70167 -0.37600
O 	O 	0.87220 0.90536 0.71508 -0.37700
O 	O 	0.05486 0.14499 0.75183 -0.37100
O 	O 	0.10501 0.97616 0.71425 -0.36400
O 	O 	0.09810 0.06639 0.69797 -0.38700
O 	O 	0.94225 0.09629 0.74289 -0.38100
O 	O 	0.92435 0.87221 0.74919 -0.37200
O 	O 	0.88769 0.95034 0.75833 -0.37500
O 	O 	0.03097 0.14190 0.70628 -0.37200
O 	O 	0.00278 0.01284 0.73350 -0.71400
H 	H 	0.00399 0.01772 0.74971 0.15100
C 	C 	0.27720 0.52747 0.42240 0.28500
C 	C 	0.42607 0.78520 0.47598 0.27400
C 	C 	0.21947 0.63467 0.45976 0.27700
C 	C 	0.48885 0.68165 0.44148 0.25300
C 	C 	0.32855 0.81296 0.41718 0.33100
C 	C 	0.39798 0.72353 0.38220 0.29100
Ni	Ni	0.35070 0.63661 0.45889 1.11300
Ni	Ni	0.43396 0.77623 0.42771 1.12000
Ni	Ni	0.28352 0.66473 0.41556 1.12300
O 	O 	0.28198 0.54016 0.44415 -0.36000
O 	O 	0.27351 0.57087 0.40776 -0.37500
O 	O 	0.39102 0.82812 0.41336 -0.38100
O 	O 	0.41723 0.72146 0.47847 -0.35500
O 	O 	0.41352 0.80533 0.45706 -0.36800
O 	O 	0.33586 0.71036 0.38704 -0.38100
O 	O 	0.27346 0.65045 0.47119 -0.36300
O 	O 	0.21354 0.61152 0.43947 -0.36100
O 	O 	0.44663 0.74906 0.39716 -0.38400
O 	O 	0.43393 0.62825 0.45024 -0.35500
O 	O 	0.49823 0.74676 0.44164 -0.36700
O 	O 	0.28496 0.75192 0.42556 -0.39000
O 	O 	0.36121 0.68311 0.43157 -0.71600
H 	H 	0.37754 0.65777 0.42234 0.15700
C 	C 	0.37037 0.56605 0.01592 0.25700
C 	C 	0.21696 0.59866 0.09023 0.31200
C 	C 	0.19030 0.44312 0.03640 0.30300
C 	C 	0.39255 0.71469 0.07208 0.28900
C 	C 	0.13470 0.59101 0.02729 0.27800
C 	C 	0.32131 0.73283 0.00528 0.25300
Ni	Ni	0.30043 0.56384 0.05963 1.11200
Ni	Ni	0.26093 0.68353 0.04958 1.12000
Ni	Ni	0.24771 0.57708 0.01072 1.12200
O 	O 	0.34248 0.53087 0.03465 -0.36300
O 	O 	0.33835 0.58846 0.00287 -0.35500
O 	O 	0.17903 0.65715 0.03103 -0.36400
O 	O 	0.26671 0.58534 0.08921 -0.37500
O 	O 	0.19604 0.61494 0.07226 -0.39100
O 	O 	0.27275 0.67248 0.99733 -0.36300
O 	O 	0.20553 0.47890 0.05478 -0.38000
O 	O 	0.21889 0.47454 0.01754 -0.37000
O 	O 	0.31877 0.75251 0.02588 -0.35900
O 	O 	0.38966 0.65510 0.06609 -0.37600
O 	O 	0.33793 0.72206 0.07230 -0.37400
O 	O 	0.15174 0.55119 0.01604 -0.37400
O 	O 	0.28452 0.61757 0.03886 -0.71500
H 	H 	0.33105 0.65042 0.03413 0.15600
C 	C 	0.86391 0.99463 0.25807 0.31800
C 	C 	0.08795 0.12373 0.19326 0.32600
C 	C 	0.88293 0.96252 0.20129 0.33000
C 	C 	0.08996 0.18274 0.25561 0.30300
C 	C 	0.05183 0.92469 0.21633 0.34300
C 	C 	0.05321 0.98040 0.27711 0.29000
Ni	Ni	0.97717 0.09397 0.22516 1.10600
Ni	Ni	0.10063 0.06461 0.23599 1.12200
Ni	Ni	0.94916 0.93943 0.24097 1.11600
O 	O 	0.88525 0.04579 0.24283 -0.37800
O 	O 	0.89902 0.96387 0.26360 -0.39200
O 	O 	0.09625 0.97243 0.22954 -0.38800
O 	O 	0.06031 0.15321 0.20485 -0.36800
O 	O 	0.10751 0.08317 0.20284 -0.38000
O 	O 	0.00705 0.92873 0.26471 -0.37200
O 	O 	0.93360 0.02648 0.19879 -0.39100
O 	O 	0.87448 0.92666 0.21978 -0.38300
O 	O 	0.09874 0.04144 0.26822 -0.38400
O 	O 	0.02904 0.16840 0.24946 -0.36000
O 	O 	0.12707 0.16612 0.24284 -0.37300
O 	O 	0.98924 0.91121 0.21617 -0.40500
O 	O 	0.00774 0.03734 0.23811 -0.70900
H 	H 	0.00653 0.05003 0.25364 0.15400
C 	C 	0.15521 0.36635 0.03804 -0.08600
C 	C 	0.19207 0.33161 0.03511 0.01600
C 	C 	0.17507 0.27072 0.04743 -0.06400
C 	C 	0.12129 0.24488 0.06267 0.02800
C 	C 	0.07669 0.27123 0.06187 -0.06200
C 	C 	0.09356 0.33177 0.04947 0.02000
C 	C 	0.12253 0.20662 0.08273 0.00400
C 	C 	0.06312 0.14802 0.09052 -0.03800
C 	C 	0.05841 0.12532 0.11251 -0.02900
C 	C 	0.11337 0.16029 0.12666 -0.00500
C 	C 	0.17462 0.21410 0.11830 -0.03000
C 	C 	0.17932 0.23716 0.09642 -0.03800
C 	C 	0.10481 0.14666 0.15014 0.05300
C 	C 	0.09750 0.13637 0.16985 -0.10100
H 	H 	0.23820 0.35608 0.02541 0.04100
H 	H 	0.20777 0.24829 0.04692 0.04900
H 	H 	0.03299 0.24963 0.07271 0.05100
H 	H 	0.06277 0.35621 0.05091 0.03300
H 	H 	0.01942 0.12296 0.07999 0.04400
H 	H 	0.01119 0.08269 0.11877 0.04600
H 	H 	0.21767 0.24053 0.12906 0.04200
H 	H 	0.22570 0.28199 0.09059 0.04100
C 	C 	0.45274 0.76589 0.08410 -0.07800
C 	C 	0.51677 0.78393 0.07586 0.01400
C 	C 	0.57286 0.81590 0.08962 -0.06200
C 	C 	0.56547 0.83020 0.11176 0.02600
C 	C 	0.50240 0.81712 0.11952 -0.06300
C 	C 	0.44629 0.78535 0.10572 0.01400
C 	C 	0.62231 0.85333 0.12724 0.00400
C 	C 	0.64832 0.91813 0.13798 -0.04000
C 	C 	0.70149 0.93935 0.15285 -0.03100
C 	C 	0.72898 0.89595 0.15710 -0.00700
C 	C 	0.70316 0.83129 0.14637 -0.03100
C 	C 	0.65000 0.80999 0.13151 -0.04000
C 	C 	0.78348 0.91775 0.17258 0.05000
C 	C 	0.82896 0.93716 0.18562 -0.10800
H 	H 	0.52255 0.77000 0.05912 0.03700
H 	H 	0.62158 0.82716 0.08331 0.04900
H 	H 	0.49626 0.82874 0.13651 0.04700
H 	H 	0.39724 0.77204 0.11227 0.03600
H 	H 	0.62745 0.95202 0.13479 0.04200
H 	H 	0.72119 0.98944 0.16107 0.04100
H 	H 	0.72406 0.79742 0.14957 0.04100
H 	H 	0.63004 0.75967 0.12342 0.04200
C 	C 	0.19227 0.60725 0.11184 -0.09200
C 	C 	0.12540 0.59217 0.11403 0.02000
C 	C 	0.10673 0.62043 0.13152 -0.06500
C 	C 	0.15468 0.66358 0.14703 0.02900
C 	C 	0.21933 0.67158 0.14632 -0.06700
C 	C 	0.23806 0.64342 0.12879 0.01900
C 	C 	0.14085 0.70921 0.16134 0.00400
C 	C 	0.17821 0.78242 0.15847 -0.03800
C 	C 	0.16009 0.82561 0.16996 -0.02900
C 	C 	0.10450 0.79604 0.18435 -0.00700
C 	C 	0.06810 0.72313 0.18771 -0.02900
C 	C 	0.08624 0.67977 0.17625 -0.03900
C 	C 	0.08467 0.84061 0.19554 0.05600
C 	C 	0.06907 0.87875 0.20491 -0.10700
H 	H 	0.08907 0.56250 0.10138 0.04000
H 	H 	0.05626 0.61269 0.13217 0.05200
H 	H 	0.25622 0.70327 0.15857 0.04800
H 	H 	0.28947 0.65415 0.12755 0.03600
H 	H 	0.22011 0.80565 0.14688 0.04200
H 	H 	0.18869 0.88199 0.16741 0.04300
H 	H 	0.02535 0.69999 0.19897 0.04400
H 	H 	0.05715 0.62336 0.17861 0.04400
C 	C 	0.41785 0.72846 0.35885 -0.08000
C 	C 	0.40542 0.77048 0.34418 0.01600
C 	C 	0.44392 0.79671 0.32481 -0.06400
C 	C 	0.49470 0.78073 0.32000 0.02700
C 	C 	0.50046 0.73099 0.33310 -0.06200
C 	C 	0.46213 0.70495 0.35248 0.01500
C 	C 	0.54950 0.82560 0.30451 0.00400
C 	C 	0.59183 0.89683 0.30943 -0.03900
C 	C 	0.65315 0.93561 0.29823 -0.03100
C 	C 	0.67233 0.90360 0.28201 -0.00700
C 	C 	0.62784 0.83418 0.27586 -0.03100
C 	C 	0.56649 0.79527 0.28705 -0.04000
C 	C 	0.74017 0.93864 0.27364 0.04900
C 	C 	0.79701 0.96576 0.26670 -0.10400
H 	H 	0.37013 0.78765 0.34869 0.03900
H 	H 	0.43771 0.83349 0.31443 0.04800
H 	H 	0.53839 0.71688 0.32923 0.04900
H 	H 	0.47063 0.67082 0.36339 0.03600
H 	H 	0.57903 0.92090 0.32280 0.04300
H 	H 	0.68700 0.98953 0.30289 0.04100
H 	H 	0.64205 0.80940 0.26309 0.04100
H 	H 	0.53379 0.74062 0.28294 0.04100
C 	C 	0.26058 0.45763 0.41461 -0.07500
C 	C 	0.31015 0.45027 0.40319 0.01100
C 	C 	0.29197 0.40159 0.38606 -0.06000
C 	C 	0.22403 0.35954 0.38047 0.02600
C 	C 	0.17438 0.35898 0.39432 -0.06000
C 	C 	0.19271 0.40741 0.41153 0.01600
C 	C 	0.20576 0.32713 0.35832 0.00500
C 	C 	0.16040 0.25495 0.35625 -0.04000
C 	C 	0.13799 0.22594 0.33528 -0.03100
C 	C 	0.16087 0.26887 0.31627 -0.00500
C 	C 	0.20716 0.34059 0.31828 -0.03100
C 	C 	0.22946 0.36968 0.33920 -0.03900
C 	C 	0.13609 0.23950 0.29472 0.04700
C 	C 	0.11523 0.21448 0.27675 -0.10000
H 	H 	0.36284 0.48725 0.40594 0.03600
H 	H 	0.33078 0.40049 0.37605 0.04800
H 	H 	0.12166 0.32515 0.39064 0.05000
H 	H 	0.15393 0.41102 0.42077 0.04000
H 	H 	0.14177 0.22160 0.37087 0.04200
H 	H 	0.10229 0.17037 0.33387 0.04000
H 	H 	0.22522 0.37405 0.30367 0.04300
H 	H 	0.26395 0.42556 0.34059 0.04400
C 	C 	0.06547 0.96393 0.29971 -0.07600
C 	C 	0.05925 0.89825 0.30451 0.01600
C 	C 	0.08805 0.88897 0.32367 -0.06300
C 	C 	0.12311 0.94517 0.33819 0.03100
C 	C 	0.12426 0.00879 0.33440 -0.06600
C 	C 	0.09510 0.01797 0.31533 0.01300
C 	C 	0.16488 0.93993 0.35569 0.00200
C 	C 	0.13454 0.89771 0.37447 -0.03700
C 	C 	0.17309 0.88356 0.38927 -0.03000
C 	C 	0.24205 0.91108 0.38529 -0.00500
C 	C 	0.27312 0.95679 0.36728 -0.03200
C 	C 	0.23469 0.97135 0.35255 -0.03400
C 	C 	0.27747 0.88252 0.39713 0.05300
C 	C 	0.30347 0.85378 0.40657 -0.10600
H 	H 	0.03583 0.85578 0.29277 0.04200
H 	H 	0.08609 0.83927 0.32666 0.05100
H 	H 	0.15017 0.05205 0.34574 0.04800
H 	H 	0.09887 0.06839 0.31206 0.03600
H 	H 	0.08080 0.87377 0.37713 0.04500
H 	H 	0.14872 0.84837 0.40321 0.04600
H 	H 	0.32640 0.97841 0.36411 0.04300
H 	H 	0.25862 0.00450 0.33817 0.04000
C 	C 	0.47243 0.93488 0.50618 0.11200
C 	C 	0.46182 0.99281 0.50599 -0.07600
C 	C 	0.51348 0.05698 0.49762 0.00100
C 	C 	0.57515 0.06585 0.49183 0.12100
C 	C 	0.58742 0.00951 0.49333 -0.09800
C 	C 	0.53509 0.94413 0.50089 0.02000
O 	O 	0.42018 0.86696 0.50270 -0.18400
C 	C 	0.45638 0.83708 0.49362 0.04500
C 	C 	0.52506 0.88216 0.49334 -0.06100
O 	O 	0.62627 0.13541 0.49116 -0.18900
C 	C 	0.58899 0.16739 0.49736 0.04800
C 	C 	0.52160 0.12103 0.50151 -0.05500
H 	H 	0.41328 0.98646 0.51042 0.06700
H 	H 	0.63579 0.01605 0.48852 0.06600
H 	H 	0.55926 0.87715 0.48200 0.05300
H 	H 	0.48917 0.13162 0.51196 0.05300
C 	C 	0.06448 0.61840 0.47629 0.09900
C 	C 	0.01199 0.63333 0.47524 -0.04000
C 	C 	0.98238 0.63746 0.49523 -0.03900
C 	C 	0.00454 0.62723 0.51550 0.15600
C 	C 	0.06068 0.61777 0.51639 -0.10300
C 	C 	0.08674 0.60921 0.49640 0.02800
O 	O 	0.10918 0.63192 0.45886 -0.18200
C 	C 	0.16118 0.63175 0.47081 0.04800
C 	C 	0.14827 0.61821 0.49318 -0.06100
O 	O 	0.95445 0.59849 0.53165 -0.19800
C 	C 	0.89937 0.58735 0.51894 0.03600
C 	C 	0.91628 0.61357 0.49756 -0.03800
H 	H 	0.99346 0.63956 0.45941 0.04600
H 	H 	0.07897 0.61045 0.53212 0.07500
H 	H 	0.18556 0.62995 0.50586 0.06300
H 	H 	0.88140 0.59579 0.48386 0.05500
C 	C 	0.67504 0.58543 0.45780 0.11600
C 	C 	0.66985 0.64618 0.46018 -0.08600
C 	C 	0.63077 0.65836 0.44484 0.00800
C 	C 	0.58998 0.60733 0.43009 0.11800
C 	C 	0.59095 0.54392 0.42899 -0.08800
C 	C 	0.63820 0.53686 0.44185 0.00900
O 	O 	0.69518 0.55820 0.47508 -0.18500
C 	C 	0.66659 0.48858 0.46810 0.04200
C 	C 	0.63208 0.47523 0.44843 -0.05600
O 	O 	0.53460 0.61241 0.42349 -0.19600
C 	C 	0.54531 0.67068 0.43589 0.04700
C 	C 	0.60246 0.69831 0.44869 -0.05600
H 	H 	0.69193 0.68026 0.47426 0.06600
H 	H 	0.55358 0.50026 0.41953 0.06500
H 	H 	0.59141 0.42415 0.44369 0.05400
H 	H 	0.60924 0.72780 0.46372 0.05600
C 	C 	0.97749 0.13633 0.67138 -0.09400
C 	C 	0.03557 0.18316 0.65936 0.02800
C 	C 	0.02999 0.21154 0.63916 -0.05100
C 	C 	0.96634 0.19342 0.63085 0.01100
C 	C 	0.90845 0.14699 0.64295 -0.06100
C 	C 	0.91395 0.11853 0.66305 0.01800
C 	C 	0.95998 0.22579 0.61012 0.01200
C 	C 	0.91992 0.18306 0.59286 -0.04500
C 	C 	0.89939 0.21173 0.57589 -0.02900
C 	C 	0.91929 0.28331 0.57597 -0.00800
C 	C 	0.96506 0.32720 0.59188 -0.02300
C 	C 	0.98519 0.29855 0.60894 -0.05900
C 	C 	0.88203 0.30817 0.56331 0.04700
C 	C 	0.84844 0.32929 0.55439 -0.09500
H 	H 	0.08486 0.19690 0.66551 0.03500
H 	H 	0.07503 0.24752 0.62998 0.04800
H 	H 	0.85914 0.13358 0.63688 0.04800
H 	H 	0.86877 0.08306 0.67224 0.03400
H 	H 	0.90147 0.12704 0.59330 0.04200
H 	H 	0.86472 0.17750 0.56351 0.04100
H 	H 	0.98140 0.38279 0.59191 0.03900
H 	H 	0.01694 0.33225 0.62198 0.05700
C 	C 	0.56189 0.25255 0.58954 -0.08200
C 	C 	0.55395 0.28026 0.60951 0.01600
C 	C 	0.50525 0.23651 0.62495 -0.06400
C 	C 	0.46435 0.16471 0.62061 0.02700
C 	C 	0.47732 0.13584 0.60184 -0.06400
C 	C 	0.52604 0.17958 0.58637 0.01500
C 	C 	0.40211 0.12297 0.63360 0.00300
C 	C 	0.40509 0.11550 0.65660 -0.04000
C 	C 	0.34646 0.08818 0.66948 -0.03100
C 	C 	0.28460 0.06799 0.65944 -0.00700
C 	C 	0.28096 0.07136 0.63636 -0.03000
C 	C 	0.33950 0.09870 0.62346 -0.03800
C 	C 	0.22647 0.05080 0.67290 0.05200
C 	C 	0.17867 0.03806 0.68443 -0.10500
H 	H 	0.58225 0.33626 0.61242 0.03600
H 	H 	0.49638 0.25913 0.63960 0.04800
H 	H 	0.44716 0.08013 0.59863 0.04900
H 	H 	0.53330 0.15726 0.57136 0.03600
H 	H 	0.45308 0.13342 0.66456 0.04100
H 	H 	0.34949 0.08507 0.68733 0.04200
H 	H 	0.23319 0.05531 0.62848 0.04300
H 	H 	0.33662 0.10410 0.60571 0.04300
C 	C 	0.62201 0.52456 0.56552 -0.08800
C 	C 	0.60394 0.50463 0.58775 0.01400
C 	C 	0.62423 0.55598 0.60410 -0.06400
C 	C 	0.66109 0.62738 0.59817 0.02700
C 	C 	0.66815 0.64668 0.57569 -0.06400
C 	C 	0.64854 0.59530 0.55939 0.02000
C 	C 	0.70315 0.67972 0.61484 0.00400
C 	C 	0.77354 0.71498 0.61264 -0.03900
C 	C 	0.81396 0.75909 0.62943 -0.03000
C 	C 	0.78449 0.76823 0.64856 -0.00600
C 	C 	0.71425 0.73431 0.65062 -0.03100
C 	C 	0.67366 0.69017 0.63381 -0.03900
C 	C 	0.82633 0.81089 0.66633 0.05000
C 	C 	0.86106 0.84637 0.68128 -0.10100
H 	H 	0.58113 0.44986 0.59262 0.03700
H 	H 	0.61636 0.54030 0.62141 0.04700
H 	H 	0.69396 0.70164 0.57089 0.05000
H 	H 	0.66038 0.61113 0.54217 0.03900
H 	H 	0.79688 0.70679 0.59818 0.04400
H 	H 	0.86819 0.78527 0.62770 0.04300
H 	H 	0.69112 0.74139 0.66535 0.04300
H 	H 	0.61946 0.66330 0.63567 0.04200
C 	C 	0.85058 0.40194 0.03241 0.11400
C 	C 	0.91103 0.40731 0.03953 -0.08100
C 	C 	0.96550 0.47447 0.04372 -0.00900
C 	C 	0.96378 0.53435 0.03774 0.10700
C 	C 	0.90427 0.52887 0.02949 -0.08700
C 	C 	0.84660 0.46188 0.02874 0.01100
O 	O 	0.80253 0.34339 0.02118 -0.18900
C 	C 	0.76935 0.37375 0.01041 0.04400
C 	C 	0.79525 0.44415 0.01483 -0.05800
O 	O 	0.02677 0.59180 0.03286 -0.17500
C 	C 	0.06604 0.56029 0.03628 0.03800
C 	C 	0.03005 0.49076 0.04277 -0.03200
H 	H 	0.91695 0.36135 0.04014 0.06100
H 	H 	0.90419 0.57432 0.02244 0.06500
H 	H 	0.79068 0.48089 0.00392 0.06100
H 	H 	0.04672 0.45298 0.04032 0.05600
C 	C 	0.48266 0.98258 0.95512 0.11900
C 	C 	0.42970 0.91461 0.95113 -0.08700
C 	C 	0.42431 0.85964 0.96469 0.01200
C 	C 	0.46825 0.87228 0.98197 0.12000
C 	C 	0.52204 0.94030 0.98545 -0.08800
C 	C 	0.52590 0.99476 0.97224 0.01700
O 	O 	0.50571 0.03706 0.93967 -0.19100
C 	C 	0.56737 0.08339 0.94948 0.04300
C 	C 	0.58080 0.05689 0.96840 -0.06400
O 	O 	0.44123 0.82315 0.99904 -0.19100
C 	C 	0.37670 0.78093 0.99071 0.04900
C 	C 	0.36608 0.80195 0.97026 -0.05600
H 	H 	0.39411 0.90483 0.93802 0.06900
H 	H 	0.55687 0.95087 0.99887 0.06900
H 	H 	0.61881 0.08716 0.98053 0.06200
H 	H 	0.31725 0.79006 0.96411 0.06000
C 	C 	0.61232 0.55371 0.99049 0.11600
C 	C 	0.57373 0.55097 0.00901 -0.08600
C 	C 	0.50920 0.54034 0.00533 0.01100
C 	C 	0.48693 0.54215 0.98445 0.11900
C 	C 	0.52637 0.54870 0.96589 -0.08900
C 	C 	0.58935 0.55414 0.96931 0.01400
O 	O 	0.65555 0.52671 0.99150 -0.18900
C 	C 	0.65242 0.50600 0.96952 0.04900
C 	C 	0.61502 0.52424 0.95609 -0.06300
O 	O 	0.43453 0.55656 0.98389 -0.18500
C 	C 	0.42819 0.56365 0.00666 0.04700
C 	C 	0.47242 0.55401 0.01957 -0.05800
H 	H 	0.59095 0.55040 0.02564 0.06600
H 	H 	0.50815 0.54800 0.94932 0.06700
H 	H 	0.59176 0.49750 0.94084 0.05100
H 	H 	0.48575 0.57146 0.03649 0.05200
C 	C 	0.85022 0.30554 0.90858 -0.09100
C 	C 	0.84101 0.23767 0.90633 0.01700
C 	C 	0.87322 0.22314 0.88916 -0.06600
C 	C 	0.91541 0.27649 0.87425 0.02900
C 	C 	0.93027 0.34576 0.87796 -0.06700
C 	C 	0.89788 0.36029 0.89507 0.01800
C 	C 	0.93591 0.25827 0.85326 -0.00200
C 	C 	0.91199 0.26893 0.83308 -0.03500
C 	C 	0.92544 0.24516 0.81334 -0.03700
C 	C 	0.96278 0.21053 0.81364 0.00400
C 	C 	0.98818 0.20136 0.83368 -0.05200
C 	C 	0.97482 0.22519 0.85345 -0.03100
C 	C 	0.97302 0.18224 0.79351 0.03800
C 	C 	0.98156 0.15807 0.77676 -0.09600
H 	H 	0.80603 0.19537 0.91709 0.03900
H 	H 	0.86244 0.16969 0.88669 0.04800
H 	H 	0.96412 0.38763 0.86685 0.04800
H 	H 	0.90659 0.41323 0.89688 0.04000
H 	H 	0.88157 0.29405 0.83278 0.04000
H 	H 	0.90585 0.25261 0.79789 0.04300
H 	H 	0.01739 0.17490 0.83399 0.05600
H 	H 	0.99365 0.21689 0.86893 0.03700
C 	C 	0.46289 0.23787 0.90638 -0.07800
C 	C 	0.45697 0.28440 0.89174 0.01400
C 	C 	0.40649 0.25881 0.87576 -0.06200
C 	C 	0.36148 0.18641 0.87426 0.02700
C 	C 	0.36358 0.14060 0.89015 -0.06100
C 	C 	0.41396 0.16629 0.90622 0.01500
C 	C 	0.31803 0.15805 0.85462 0.00400
C 	C 	0.24773 0.12227 0.85695 -0.03800
C 	C 	0.20695 0.09612 0.83824 -0.03200
C 	C 	0.23622 0.10541 0.81712 -0.00200
C 	C 	0.30637 0.14057 0.81481 -0.03200
C 	C 	0.34712 0.16673 0.83347 -0.03800
C 	C 	0.19444 0.08050 0.79771 0.04400
C 	C 	0.16041 0.06072 0.78125 -0.09200
H 	H 	0.49392 0.33987 0.89188 0.03200
H 	H 	0.40442 0.29483 0.86387 0.04900
H 	H 	0.32850 0.08472 0.88934 0.05000
H 	H 	0.41773 0.12985 0.91749 0.04500
H 	H 	0.22474 0.11516 0.87319 0.04300
H 	H 	0.15275 0.06905 0.84017 0.04300
H 	H 	0.32938 0.14794 0.79856 0.04300
H 	H 	0.40130 0.19374 0.83150 0.04300
C 	C 	0.72559 0.47445 0.88348 -0.08600
C 	C 	0.69488 0.51388 0.88915 0.01700
C 	C 	0.69756 0.56466 0.87450 -0.06600
C 	C 	0.73076 0.57623 0.85404 0.02800
C 	C 	0.75724 0.53335 0.84771 -0.06600
C 	C 	0.75460 0.48252 0.86239 0.01800
C 	C 	0.74491 0.63811 0.84052 0.00300
C 	C 	0.71777 0.62963 0.81926 -0.03900
C 	C 	0.74013 0.68756 0.80503 -0.03100
C 	C 	0.79006 0.75412 0.81192 -0.00400
C 	C 	0.81348 0.76345 0.83370 -0.03100
C 	C 	0.79092 0.70562 0.84799 -0.03800
C 	C 	0.82605 0.80834 0.79564 0.04700
C 	C 	0.85754 0.85059 0.78131 -0.09700
H 	H 	0.67122 0.50702 0.90526 0.02900
H 	H 	0.67615 0.59685 0.87939 0.04900
H 	H 	0.78255 0.54162 0.83184 0.04800
H 	H 	0.77803 0.45199 0.85779 0.03500
H 	H 	0.68146 0.57784 0.81348 0.04200
H 	H 	0.72142 0.68003 0.78824 0.04300
H 	H 	0.85180 0.81479 0.83919 0.04100
H 	H 	0.81159 0.71274 0.86448 0.04300
