data_crystal

_cell_length_a 30.69574
_cell_length_b 30.89669
_cell_length_c 35.19431
_cell_angle_alpha 95.54112
_cell_angle_beta  95.54368
_cell_angle_gamma 125.58220

_symmetry_space_group_name_	'P 1'
_symmetry_space_group_name_H-M	'P 1'

loop_
_symmetry_equiv_pos_as_xyz
  x,y,z

loop_
_atom_site_label
_atom_site_type_symbol
_atom_site_fract_x
_atom_site_fract_y
_atom_site_fract_z
_atom_site_charge
N 	N 	0.00025 0.03567 0.46615 -0.13700
N 	N 	0.03461 0.05471 0.98034 -0.13800
N 	N 	0.03386 0.97787 0.97533 -0.13500
C 	C 	0.02526 0.01193 0.47334 0.11800
C 	C 	0.06101 0.03185 0.97657 0.12900
C 	C 	0.98093 0.02350 0.98288 0.11400
C 	C 	0.98033 0.94667 0.97781 0.13100
N 	N 	0.95390 0.96944 0.98164 -0.13700
C 	C 	0.94505 0.00623 0.46121 0.10900
N 	N 	0.99494 0.95866 0.47569 -0.14000
C 	C 	0.93980 0.92898 0.47080 0.11800
N 	N 	0.91478 0.95272 0.46337 -0.13700
Cu	Cu	0.65035 0.24981 0.99847 0.92600
Cu	Cu	0.67870 0.24397 0.91142 0.87000
Cu	Cu	0.68706 0.33869 0.95048 0.89500
Cu	Cu	0.67469 0.36132 0.03213 0.89500
C 	C 	0.68116 0.29079 0.08081 0.32700
O 	O 	0.57671 0.23196 0.00412 -0.35700
C 	C 	0.65559 0.30126 0.86459 0.32700
O 	O 	0.70515 0.33433 0.00307 -0.63600
O 	O 	0.63975 0.25807 0.94412 -0.64400
O 	O 	0.67147 0.20024 0.98941 -0.37700
O 	O 	0.73031 0.25057 0.95056 -0.44400
O 	O 	0.66318 0.31991 0.07495 -0.39200
O 	O 	0.73614 0.41694 0.95995 -0.38500
C 	C 	0.73442 0.44942 0.98605 0.28600
C 	C 	0.56181 0.26162 0.99263 0.27600
O 	O 	0.59905 0.31211 0.98972 -0.39600
O 	O 	0.71748 0.43523 0.01898 -0.38900
O 	O 	0.67282 0.25416 0.05235 -0.36900
C 	C 	0.71420 0.21530 0.97369 0.30900
O 	O 	0.67979 0.34204 0.89459 -0.39800
O 	O 	0.64449 0.25390 0.86850 -0.43000
H 	H 	0.74442 0.35209 0.01235 0.16600
H 	H 	0.60147 0.24073 0.93176 0.17100
Cu	Cu	0.71636 0.33428 0.44434 0.92800
Cu	Cu	0.73289 0.29864 0.52636 0.87100
Cu	Cu	0.64105 0.30459 0.50381 0.89700
Cu	Cu	0.61133 0.32982 0.42962 0.89500
C 	C 	0.66251 0.31483 0.36583 0.32700
O 	O 	0.74556 0.41260 0.44460 -0.36400
C 	C 	0.69302 0.32638 0.58625 0.32600
O 	O 	0.63347 0.28934 0.44848 -0.64100
O 	O 	0.72023 0.34425 0.50138 -0.64000
O 	O 	0.75637 0.30144 0.44087 -0.37400
O 	O 	0.71048 0.24527 0.48224 -0.44500
O 	O 	0.63862 0.33578 0.37965 -0.39600
O 	O 	0.56307 0.26215 0.50201 -0.38200
C 	C 	0.52889 0.26423 0.47788 0.30700
C 	C 	0.72413 0.43366 0.46193 0.30200
O 	O 	0.67602 0.40187 0.47113 -0.39200
O 	O 	0.54622 0.30015 0.45480 -0.39500
O 	O 	0.69867 0.31377 0.38873 -0.37000
C 	C 	0.73995 0.25756 0.45507 0.30800
O 	O 	0.64842 0.30816 0.56080 -0.39300
O 	O 	0.73653 0.33474 0.57485 -0.43200
H 	H 	0.60965 0.25028 0.43671 0.16400
H 	H 	0.74306 0.38239 0.51528 0.17400
C 	C 	0.62865 0.28227 0.75529 0.00400
C 	C 	0.64735 0.26050 0.73070 -0.04100
C 	C 	0.65316 0.27198 0.69332 -0.04000
C 	C 	0.64015 0.30531 0.68007 0.00500
C 	C 	0.61998 0.32592 0.70425 -0.04000
C 	C 	0.61440 0.31461 0.74181 -0.03900
C 	C 	0.64532 0.31659 0.64024 0.01000
C 	C 	0.69272 0.33231 0.62606 -0.17200
C 	C 	0.62216 0.26915 0.79455 0.01000
C 	C 	0.64621 0.31039 0.82753 -0.17300
H 	H 	0.65758 0.23479 0.74062 0.03300
H 	H 	0.66725 0.25453 0.67451 0.03600
H 	H 	0.60885 0.35083 0.69404 0.03900
H 	H 	0.59851 0.33045 0.76019 0.03900
H 	H 	0.61151 0.31144 0.62180 0.04100
H 	H 	0.72880 0.34477 0.64634 0.07900
H 	H 	0.60481 0.22776 0.79792 0.03200
H 	H 	0.66083 0.35110 0.82404 0.08400
C 	C 	0.70050 0.30976 0.26747 0.00800
C 	C 	0.71586 0.28295 0.24433 -0.04000
C 	C 	0.72107 0.29023 0.20590 -0.03700
C 	C 	0.70992 0.32370 0.19010 0.00700
C 	C 	0.69647 0.35188 0.21373 -0.03800
C 	C 	0.69246 0.34555 0.25226 -0.03900
C 	C 	0.71465 0.33191 0.14948 0.01200
C 	C 	0.69649 0.28901 0.11897 -0.16700
C 	C 	0.69602 0.30275 0.30835 0.01200
C 	C 	0.65709 0.30373 0.32553 -0.16500
H 	H 	0.72397 0.25667 0.25612 0.04000
H 	H 	0.73472 0.27073 0.18884 0.03900
H 	H 	0.68933 0.37897 0.20224 0.03800
H 	H 	0.68378 0.36903 0.27039 0.04200
H 	H 	0.72525 0.37016 0.14262 0.02700
H 	H 	0.69389 0.25381 0.12488 0.08700
H 	H 	0.72422 0.29818 0.32525 0.04400
H 	H 	0.62536 0.30210 0.30722 0.07900
C 	C 	0.90751 0.87132 0.47392 -0.02200
C 	C 	0.86097 0.83218 0.44573 -0.01900
C 	C 	0.83497 0.77698 0.44564 -0.04800
C 	C 	0.85517 0.76054 0.47384 0.01300
C 	C 	0.90022 0.79966 0.50299 -0.04800
C 	C 	0.92624 0.85476 0.50305 -0.01900
C 	C 	0.83122 0.70261 0.47160 0.00700
C 	C 	0.80776 0.67653 0.50222 -0.04300
C 	C 	0.78777 0.62245 0.50101 -0.03100
C 	C 	0.79113 0.59414 0.46923 -0.00900
C 	C 	0.81431 0.62003 0.43856 -0.03100
C 	C 	0.83433 0.67409 0.43973 -0.04200
C 	C 	0.76880 0.53788 0.46733 0.04500
C 	C 	0.74917 0.49051 0.46523 -0.11100
H 	H 	0.84609 0.84444 0.42314 0.03900
H 	H 	0.79986 0.74704 0.42323 0.04200
H 	H 	0.91594 0.78739 0.52499 0.04200
H 	H 	0.96170 0.88460 0.52526 0.03900
H 	H 	0.80521 0.69819 0.52695 0.04100
H 	H 	0.76957 0.60259 0.52471 0.03800
H 	H 	0.81680 0.59831 0.41381 0.04000
H 	H 	0.85275 0.69397 0.41610 0.04100
C 	C 	0.91838 0.03286 0.45492 -0.01800
C 	C 	0.94296 0.08572 0.47491 -0.02300
C 	C 	0.91851 0.11157 0.46843 -0.04700
C 	C 	0.86932 0.08501 0.44176 0.01000
C 	C 	0.84468 0.03217 0.42170 -0.04500
C 	C 	0.86902 0.00614 0.42832 -0.02800
C 	C 	0.84265 0.11183 0.43602 0.00800
C 	C 	0.79051 0.08866 0.44471 -0.04400
C 	C 	0.76791 0.11699 0.44376 -0.03100
C 	C 	0.79728 0.16874 0.43424 -0.01200
C 	C 	0.84837 0.19104 0.42399 -0.03100
C 	C 	0.87093 0.16261 0.42473 -0.04400
C 	C 	0.77769 0.20111 0.43932 0.04600
C 	C 	0.76081 0.22748 0.44538 -0.12200
H 	H 	0.98076 0.10660 0.49576 0.04000
H 	H 	0.93750 0.15207 0.48444 0.04000
H 	H 	0.80675 0.01132 0.40100 0.04000
H 	H 	0.84987 0.96554 0.41246 0.04500
H 	H 	0.76828 0.04951 0.45342 0.03900
H 	H 	0.72836 0.09945 0.45168 0.03600
H 	H 	0.87128 0.23096 0.41651 0.03800
H 	H 	0.91092 0.18061 0.41751 0.04000
C 	C 	0.08516 0.04378 0.47841 -0.02200
C 	C 	0.11394 0.08444 0.45660 -0.02000
C 	C 	0.17029 0.11244 0.45984 -0.04800
C 	C 	0.19839 0.10010 0.48492 0.01300
C 	C 	0.16990 0.06024 0.50727 -0.04900
C 	C 	0.11358 0.03225 0.50408 -0.02000
C 	C 	0.25737 0.12791 0.48700 0.00700
C 	C 	0.27672 0.09858 0.47439 -0.04300
C 	C 	0.33240 0.12536 0.47469 -0.03100
C 	C 	0.36905 0.18156 0.48763 -0.00900
C 	C 	0.34994 0.21076 0.50094 -0.03100
C 	C 	0.29428 0.18404 0.50065 -0.04300
C 	C 	0.42563 0.20978 0.48492 0.04500
C 	C 	0.47288 0.23415 0.48205 -0.10800
H 	H 	0.09254 0.09358 0.43655 0.04100
H 	H 	0.19198 0.14312 0.44243 0.04300
H 	H 	0.19136 0.05079 0.52696 0.04200
H 	H 	0.09203 0.00153 0.52149 0.03900
H 	H 	0.24853 0.05523 0.46380 0.04100
H 	H 	0.34689 0.10255 0.46430 0.03700
H 	H 	0.37807 0.25424 0.51097 0.03900
H 	H 	0.27977 0.20697 0.51067 0.04100
C 	C 	0.76084 0.50615 0.98173 -0.08600
C 	C 	0.80523 0.53223 0.96241 0.01500
C 	C 	0.83199 0.58691 0.96031 -0.06800
C 	C 	0.81459 0.61593 0.97743 0.03000
C 	C 	0.76951 0.58962 0.99594 -0.07200
C 	C 	0.74276 0.53501 0.99808 0.00900
C 	C 	0.84463 0.67428 0.97716 -0.00800
C 	C 	0.87153 0.71197 0.01226 -0.03000
C 	C 	0.89919 0.76724 0.01213 -0.03700
C 	C 	0.90018 0.78519 0.97694 0.00900
C 	C 	0.87362 0.74768 0.94183 -0.04200
C 	C 	0.84591 0.69235 0.94192 -0.03400
C 	C 	0.92831 0.84208 0.97693 0.00500
C 	C 	0.95198 0.88980 0.97721 -0.04100
H 	H 	0.81974 0.51055 0.94976 0.03400
H 	H 	0.86679 0.60694 0.94597 0.04600
H 	H 	0.75549 0.61161 0.00891 0.05100
H 	H 	0.70810 0.51518 0.01256 0.03300
H 	H 	0.87097 0.69840 0.03960 0.03900
H 	H 	0.91975 0.79606 0.03937 0.04300
H 	H 	0.87429 0.76132 0.91451 0.04200
H 	H 	0.82516 0.66353 0.91469 0.03800
C 	C 	0.95186 0.04797 0.98647 -0.02500
C 	C 	0.91257 0.03007 0.01032 -0.01600
C 	C 	0.88231 0.05058 0.01169 -0.04400
C 	C 	0.89100 0.08907 0.98920 0.00800
C 	C 	0.93116 0.10801 0.96611 -0.04800
C 	C 	0.96153 0.08762 0.96479 -0.02000
C 	C 	0.85637 0.10768 0.98839 0.00400
C 	C 	0.81904 0.09298 0.95450 -0.04500
C 	C 	0.78755 0.11217 0.95318 -0.03000
C 	C 	0.79317 0.14619 0.98570 -0.01800
C 	C 	0.82966 0.16008 0.01986 -0.02500
C 	C 	0.86112 0.14078 0.02125 -0.04000
C 	C 	0.76453 0.16998 0.98295 0.04800
C 	C 	0.74112 0.19035 0.97944 -0.12200
H 	H 	0.90522 0.00002 0.02759 0.04100
H 	H 	0.85151 0.03590 0.02970 0.04200
H 	H 	0.93828 0.13794 0.94879 0.04100
H 	H 	0.99163 0.10170 0.94621 0.04000
H 	H 	0.81481 0.06709 0.92910 0.03900
H 	H 	0.75946 0.10133 0.92666 0.03300
H 	H 	0.83429 0.18646 0.04510 0.03800
H 	H 	0.88972 0.15217 0.04759 0.04100
C 	C 	0.50348 0.23898 0.98482 -0.08900
C 	C 	0.46325 0.18260 0.97586 0.01300
C 	C 	0.40807 0.16108 0.97139 -0.06800
C 	C 	0.39252 0.19566 0.97568 0.02800
C 	C 	0.43253 0.25198 0.98345 -0.06800
C 	C 	0.48774 0.27358 0.98798 0.01300
C 	C 	0.33461 0.17285 0.97407 -0.00700
C 	C 	0.31732 0.18244 0.00727 -0.03000
C 	C 	0.26184 0.15716 0.00678 -0.03700
C 	C 	0.22333 0.12217 0.97314 0.00900
C 	C 	0.24063 0.11379 0.93960 -0.04200
C 	C 	0.29611 0.13909 0.94003 -0.03500
C 	C 	0.16599 0.09153 0.97403 0.00400
C 	C 	0.11803 0.06487 0.97506 -0.04100
H 	H 	0.47469 0.15542 0.97272 0.03000
H 	H 	0.37744 0.11752 0.96531 0.04600
H 	H 	0.42087 0.27899 0.98655 0.04500
H 	H 	0.51825 0.31714 0.99483 0.02800
H 	H 	0.34672 0.20842 0.03369 0.03900
H 	H 	0.24874 0.16381 0.03282 0.04300
H 	H 	0.21105 0.08683 0.91347 0.04200
H 	H 	0.30910 0.13176 0.91417 0.03700
