data_crystal

_cell_length_a 18.54136
_cell_length_b 18.77791
_cell_length_c 34.99408
_cell_angle_alpha 95.43353
_cell_angle_beta  95.43524
_cell_angle_gamma 126.40254

_symmetry_space_group_name_	'P 1'
_symmetry_space_group_name_H-M	'P 1'

loop_
_symmetry_equiv_pos_as_xyz
  x,y,z

loop_
_atom_site_label
_atom_site_type_symbol
_atom_site_fract_x
_atom_site_fract_y
_atom_site_fract_z
_atom_site_charge
C 	C 	0.87836 0.97060 0.96329 0.29700
N 	N 	0.83329 0.88219 0.96602 -0.10700
C 	C 	0.87878 0.84580 0.96653 0.27200
N 	N 	0.96859 0.89782 0.96441 -0.11700
C 	C 	0.01370 0.98600 0.96232 0.30400
N 	N 	0.96849 0.02216 0.96166 -0.13500
C 	C 	0.98688 0.06961 0.50186 0.25700
N 	N 	0.93076 0.97876 0.49887 -0.10400
C 	C 	0.96535 0.93232 0.49731 0.27900
N 	N 	0.05578 0.97643 0.49883 -0.10300
C 	C 	0.11253 0.06715 0.50250 0.26000
N 	N 	0.07810 0.11410 0.50373 -0.10200
Cu	Cu	0.72569 0.31493 0.95779 0.93700
Cu	Cu	0.69327 0.23557 0.03897 0.91100
Cu	Cu	0.58019 0.28226 0.00292 0.91700
Cu	Cu	0.55265 0.29705 0.91878 0.93100
C 	C 	0.67725 0.28857 0.87418 0.33000
O 	O 	0.77121 0.44459 0.95599 -0.31300
C 	C 	0.61758 0.29637 0.08825 0.32800
O 	O 	0.58317 0.23977 0.95044 -0.63400
O 	O 	0.70941 0.32823 0.01207 -0.63200
O 	O 	0.78799 0.25761 0.96588 -0.31400
O 	O 	0.67699 0.15476 0.99605 -0.38700
O 	O 	0.63456 0.32370 0.88042 -0.32800
O 	O 	0.45671 0.24699 0.99302 -0.33200
C 	C 	0.39785 0.20432 0.95964 0.39100
C 	C 	0.72295 0.47321 0.96423 0.38100
O 	O 	0.63546 0.41484 0.96469 -0.35900
O 	O 	0.42460 0.22043 0.92582 -0.32400
O 	O 	0.72135 0.28145 0.90352 -0.30700
C 	C 	0.74462 0.17965 0.97766 0.38900
O 	O 	0.57987 0.30983 0.05855 -0.31900
O 	O 	0.68425 0.29031 0.08536 -0.35900
H 	H 	0.54532 0.17340 0.94279 0.19800
H 	H 	0.75169 0.39020 0.02760 0.22100
Cu	Cu	0.65586 0.23799 0.50978 0.93700
Cu	Cu	0.70356 0.23253 0.42239 0.90600
Cu	Cu	0.69223 0.37403 0.45737 0.91500
Cu	Cu	0.67663 0.41321 0.54147 0.92400
C 	C 	0.68704 0.29940 0.59279 0.32900
O 	O 	0.52614 0.18515 0.51567 -0.31800
C 	C 	0.64728 0.30679 0.37149 0.33100
O 	O 	0.73198 0.37790 0.51077 -0.63300
O 	O 	0.62905 0.24223 0.45420 -0.63300
O 	O 	0.71182 0.17478 0.50324 -0.31500
O 	O 	0.79927 0.26474 0.46264 -0.37700
O 	O 	0.70323 0.37706 0.58943 -0.33100
O 	O 	0.76208 0.50330 0.46372 -0.32900
C 	C 	0.76487 0.55452 0.49329 0.40300
C 	C 	0.49204 0.22836 0.50929 0.38200
O 	O 	0.54518 0.31173 0.50420 -0.34400
O 	O 	0.70996 0.51939 0.51854 -0.33300
O 	O 	0.69594 0.25411 0.56475 -0.30700
C 	C 	0.78386 0.20966 0.48667 0.37900
O 	O 	0.66909 0.37082 0.40057 -0.31900
O 	O 	0.63647 0.23335 0.37799 -0.36500
H 	H 	0.79902 0.41445 0.51888 0.20500
H 	H 	0.56348 0.20460 0.44223 0.21000
C 	C 	0.68384 0.27675 0.63224 -0.08800
C 	C 	0.61399 0.26224 0.65155 0.12700
C 	C 	0.61728 0.25365 0.69106 0.07300
C 	C 	0.69035 0.25950 0.71145 0.02200
C 	C 	0.75688 0.26791 0.69156 0.07300
C 	C 	0.75569 0.27986 0.65242 0.13100
C 	C 	0.70258 0.26710 0.75457 0.02300
C 	C 	0.75355 0.35267 0.77891 0.07100
C 	C 	0.75207 0.35969 0.81915 0.13200
C 	C 	0.69718 0.28132 0.83484 -0.09100
C 	C 	0.65326 0.19602 0.81129 0.12900
C 	C 	0.65648 0.18890 0.77113 0.07400
Br	Br	0.85091 0.26538 0.71838 -0.06500
Br	Br	0.51621 0.25896 0.62443 -0.09500
Br	Br	0.82540 0.47651 0.85296 -0.08600
Br	Br	0.59571 0.07238 0.73853 -0.07400
Br	Br	0.85745 0.31030 0.62813 -0.06400
Br	Br	0.52334 0.23705 0.71779 -0.08500
Br	Br	0.82199 0.46003 0.75674 -0.08600
Br	Br	0.58680 0.08918 0.83386 -0.10100
C 	C 	0.59612 0.30381 0.12719 -0.09300
C 	C 	0.54030 0.22537 0.14262 0.12300
C 	C 	0.54055 0.23180 0.18302 0.07300
C 	C 	0.59451 0.31705 0.20777 0.02200
C 	C 	0.64040 0.39561 0.19148 0.07100
C 	C 	0.64234 0.38906 0.15121 0.12900
C 	C 	0.61280 0.32394 0.25071 0.02200
C 	C 	0.55189 0.31885 0.27367 0.07300
C 	C 	0.56381 0.31479 0.31358 0.12900
C 	C 	0.63874 0.31952 0.33083 -0.09600
C 	C 	0.70326 0.33148 0.30850 0.12700
C 	C 	0.68918 0.33145 0.26831 0.07100
Br	Br	0.70343 0.51189 0.22467 -0.07400
Br	Br	0.46525 0.10921 0.10836 -0.10000
Br	Br	0.47584 0.29929 0.34420 -0.07400
Br	Br	0.77306 0.33914 0.23701 -0.09900
Br	Br	0.71127 0.49653 0.12922 -0.08800
Br	Br	0.47109 0.12405 0.20482 -0.09400
Br	Br	0.45203 0.31672 0.25029 -0.07400
Br	Br	0.81210 0.34998 0.33328 -0.13200
C 	C 	0.91892 0.80442 0.53030 0.27400
C 	C 	0.90687 0.83587 0.49734 -0.13100
C 	C 	0.84806 0.77462 0.46287 0.26900
C 	C 	0.80307 0.68244 0.46110 0.30300
C 	C 	0.81661 0.65117 0.49391 -0.19600
C 	C 	0.87407 0.71248 0.52858 0.29900
F 	F 	0.88711 0.68276 0.56051 -0.36800
F 	F 	0.97568 0.86344 0.56377 -0.32700
F 	F 	0.74527 0.62340 0.42780 -0.35400
F 	F 	0.83637 0.80472 0.43082 -0.34300
C 	C 	0.90026 0.11672 0.53044 0.26500
C 	C 	0.94798 0.11868 0.50120 -0.12600
C 	C 	0.94677 0.15596 0.46851 0.26800
C 	C 	0.89426 0.18657 0.46393 0.29100
C 	C 	0.84342 0.18167 0.49254 -0.19100
C 	C 	0.84855 0.14837 0.52628 0.29600
F 	F 	0.80297 0.14598 0.55489 -0.35500
F 	F 	0.90249 0.08231 0.56257 -0.34500
F 	F 	0.88981 0.21742 0.43090 -0.37700
F 	F 	0.99273 0.15815 0.44008 -0.33700
C 	C 	0.25401 0.08935 0.53110 0.26300
C 	C 	0.21125 0.11398 0.50625 -0.12600
C 	C 	0.25977 0.17259 0.48091 0.26500
C 	C 	0.35006 0.20615 0.48035 0.29400
C 	C 	0.39309 0.18200 0.50545 -0.19500
C 	C 	0.34350 0.12124 0.52995 0.29700
F 	F 	0.38210 0.09334 0.55281 -0.35800
F 	F 	0.20818 0.03349 0.55611 -0.33700
F 	F 	0.39518 0.26061 0.45480 -0.36400
F 	F 	0.21836 0.19436 0.45575 -0.33500
C 	C 	0.72066 0.59184 0.93881 0.29900
C 	C 	0.76208 0.56872 0.96540 -0.18800
C 	C 	0.83695 0.63629 0.99443 0.29200
C 	C 	0.87113 0.72643 0.99651 0.26200
C 	C 	0.83137 0.75000 0.96922 -0.12100
C 	C 	0.75508 0.68199 0.94074 0.26700
F 	F 	0.71665 0.70358 0.91388 -0.34100
F 	F 	0.64830 0.52708 0.91049 -0.37300
F 	F 	0.94367 0.79116 0.02476 -0.32000
F 	F 	0.87603 0.61460 0.02090 -0.35900
C 	C 	0.83094 0.05644 0.93416 0.26700
C 	C 	0.83158 0.01249 0.96448 -0.13300
C 	C 	0.80177 0.02208 0.99864 0.23200
C 	C 	0.77484 0.07762 0.00314 0.32100
C 	C 	0.77601 0.12325 0.97316 -0.21000
C 	C 	0.80301 0.11129 0.93841 0.30500
F 	F 	0.80130 0.15192 0.90861 -0.35700
F 	F 	0.85878 0.04706 0.90080 -0.33500
F 	F 	0.75040 0.08939 0.03717 -0.39100
F 	F 	0.80315 0.98106 0.02834 -0.32300
C 	C 	0.26402 0.09062 0.98725 0.29000
C 	C 	0.29962 0.14915 0.96046 -0.19000
C 	C 	0.24104 0.15495 0.93466 0.29800
C 	C 	0.14767 0.10153 0.93521 0.27100
C 	C 	0.11212 0.04290 0.96197 -0.14600
C 	C 	0.17090 0.03828 0.98820 0.25000
F 	F 	0.13786 0.98383 0.01496 -0.31100
F 	F 	0.31961 0.08367 0.01205 -0.36800
F 	F 	0.09146 0.10576 0.90936 -0.33600
F 	F 	0.27485 0.21348 0.90953 -0.35100
