data_crystal

_cell_length_a 22.96001
_cell_length_b 23.10235
_cell_length_c 53.09161
_cell_angle_alpha 89.79542
_cell_angle_beta  89.79701
_cell_angle_gamma 119.47101

_symmetry_space_group_name_	'P 1'
_symmetry_space_group_name_H-M	'P 1'

loop_
_symmetry_equiv_pos_as_xyz
  x,y,z

loop_
_atom_site_label
_atom_site_type_symbol
_atom_site_fract_x
_atom_site_fract_y
_atom_site_fract_z
_atom_site_charge
C 	C 	0.14640 0.06065 0.77472 0.30900
C 	C 	0.09895 0.01402 0.70603 0.32900
Ni	Ni	0.03587 0.93531 0.75299 1.11700
Ni	Ni	0.04767 0.07790 0.74093 1.12300
O 	O 	0.10869 0.99564 0.77816 -0.36000
O 	O 	0.13732 0.09212 0.75521 -0.35900
O 	O 	0.10908 0.98532 0.72554 -0.36000
O 	O 	0.06143 0.04186 0.70802 -0.36700
O 	O 	0.00101 0.99336 0.75714 -0.71500
H 	H 	0.01352 0.00727 0.77474 0.15800
C 	C 	0.15070 0.60878 0.42780 0.32500
C 	C 	0.07094 0.12197 0.18489 0.32700
C 	C 	0.08858 0.16820 0.25627 0.30600
C 	C 	0.03569 0.92329 0.20524 0.32800
C 	C 	0.05706 0.97205 0.27496 0.30600
Ni	Ni	0.09143 0.05588 0.22927 1.12500
O 	O 	0.08538 0.96945 0.21828 -0.37100
O 	O 	0.04341 0.14554 0.20050 -0.35900
O 	O 	0.08611 0.07670 0.19234 -0.36500
O 	O 	0.00742 0.92463 0.26162 -0.36500
O 	O 	0.10041 0.03020 0.26467 -0.36900
O 	O 	0.02553 0.15307 0.25266 -0.35200
O 	O 	0.12095 0.15170 0.23952 -0.36000
O 	O 	0.97478 0.91419 0.20747 -0.37100
C 	C 	0.12726 0.21207 0.11583 0.00800
C 	C 	0.08065 0.22075 0.10168 -0.01100
C 	C 	0.10245 0.26777 0.08212 -0.02200
C 	C 	0.10762 0.17770 0.13977 0.07100
C 	C 	0.09111 0.15124 0.16021 -0.08000
H 	H 	0.02809 0.19412 0.10677 0.06900
H 	H 	0.06659 0.27752 0.07250 0.08300
C 	C 	0.06846 0.72320 0.13377 -0.01800
C 	C 	0.04712 0.76259 0.14638 -0.01700
C 	C 	0.07039 0.78565 0.17067 0.00900
C 	C 	0.05598 0.83344 0.18233 0.06800
C 	C 	0.04577 0.87428 0.19245 -0.08200
H 	H 	0.05238 0.70778 0.11460 0.07800
H 	H 	0.01430 0.77690 0.13695 0.07300
C 	C 	0.18998 0.29655 0.31294 0.00900
C 	C 	0.18828 0.33344 0.35549 -0.01500
C 	C 	0.16078 0.28447 0.33698 -0.01400
C 	C 	0.15563 0.25111 0.29280 0.06400
C 	C 	0.12561 0.21334 0.27601 -0.07800
H 	H 	0.16374 0.32491 0.37368 0.09300
H 	H 	0.11537 0.23826 0.34103 0.07100
C 	C 	0.11470 0.92190 0.34039 0.01000
C 	C 	0.18051 0.96243 0.34861 -0.01700
C 	C 	0.16781 0.87654 0.37818 0.02000
C 	C 	0.10049 0.83816 0.37126 -0.01800
C 	C 	0.07404 0.86072 0.35236 -0.01500
C 	C 	0.09193 0.93930 0.31781 0.06300
C 	C 	0.07478 0.95391 0.29845 -0.07500
H 	H 	0.06970 0.78932 0.37951 0.08400
H 	H 	0.02291 0.82935 0.34629 0.07200
C 	C 	0.99519 0.59096 0.45905 -0.11000
C 	C 	0.06077 0.61943 0.44943 0.07600
C 	C 	0.07890 0.58448 0.43252 -0.00600
C 	C 	0.02925 0.52289 0.42287 -0.06200
C 	C 	0.97942 0.62708 0.47950 0.79200
H 	H 	0.09896 0.66731 0.45629 0.08000
C 	C 	0.04696 0.48631 0.40327 0.77300
F 	F 	0.99073 0.43040 0.39455 -0.40500
F 	F 	0.08964 0.46659 0.41366 -0.42000
F 	F 	0.07817 0.52765 0.38287 -0.42800
F 	F 	0.02208 0.69504 0.47790 -0.41100
F 	F 	0.98700 0.60504 0.50285 -0.41900
F 	F 	0.91473 0.61596 0.47738 -0.38900
C 	C 	0.13157 0.01771 0.68248 -0.08600
C 	C 	0.08865 0.57515 0.95899 0.10100
C 	C 	0.03304 0.58969 0.90993 0.78300
C 	C 	0.06574 0.58619 0.98240 -0.11600
C 	C 	0.11308 0.62494 0.00070 0.08200
C 	C 	0.18162 0.65527 0.99524 0.00100
C 	C 	0.20217 0.65754 0.96994 -0.07200
C 	C 	0.15635 0.61324 0.95255 0.03500
H 	H 	0.09692 0.62594 0.01983 0.08800
H 	H 	0.17395 0.60580 0.93453 0.12700
F 	F 	0.09837 0.61720 0.90149 -0.42500
F 	F 	0.02854 0.63205 0.92718 -0.41800
F 	F 	0.31005 0.66978 0.96536 -0.42500
C 	C 	0.20933 0.09258 0.78742 -0.07500
C 	C 	0.61899 0.28674 0.87366 0.32400
C 	C 	0.82121 0.52007 0.92513 0.34100
C 	C 	0.79980 0.39133 0.85865 0.34100
C 	C 	0.64728 0.42945 0.94348 0.31800
C 	C 	0.85893 0.37148 0.93273 0.30900
C 	C 	0.66527 0.23408 0.94708 0.30000
Ni	Ni	0.71438 0.42269 0.89293 1.12400
Ni	Ni	0.74495 0.38468 0.94897 1.13500
Ni	Ni	0.74233 0.29979 0.90063 1.13000
O 	O 	0.62486 0.34426 0.88099 -0.31700
O 	O 	0.67162 0.27659 0.87280 -0.34000
O 	O 	0.83780 0.39891 0.94922 -0.30500
O 	O 	0.81024 0.49016 0.90352 -0.36000
O 	O 	0.78800 0.48658 0.94541 -0.32600
O 	O 	0.67756 0.22635 0.92319 -0.31500
O 	O 	0.75251 0.40746 0.85909 -0.35300
O 	O 	0.81460 0.37085 0.87917 -0.38200
O 	O 	0.70684 0.28795 0.96025 -0.31900
O 	O 	0.67124 0.45620 0.92079 -0.29700
O 	O 	0.65634 0.38141 0.95268 -0.33200
O 	O 	0.81775 0.31283 0.92334 -0.31800
O 	O 	0.71876 0.36041 0.91482 -0.72400
H 	H 	0.67086 0.32965 0.91780 0.19400
C 	C 	0.69954 0.42307 0.60469 0.30900
C 	C 	0.47132 0.17909 0.56922 0.34100
C 	C 	0.65103 0.24457 0.61766 0.33400
C 	C 	0.51307 0.35084 0.55190 0.29400
C 	C 	0.65524 0.20422 0.53565 0.31300
C 	C 	0.72691 0.37310 0.52015 0.29500
Ni	Ni	0.56937 0.30014 0.59466 1.12100
Ni	Ni	0.58024 0.27552 0.53509 1.14400
Ni	Ni	0.70679 0.31931 0.57094 1.14100
O 	O 	0.63404 0.39848 0.60288 -0.35300
O 	O 	0.72853 0.38618 0.59993 -0.33900
O 	O 	0.59578 0.19807 0.53800 -0.32100
O 	O 	0.51585 0.20003 0.58695 -0.35800
O 	O 	0.48487 0.21224 0.54780 -0.29400
O 	O 	0.74236 0.38924 0.54404 -0.31700
O 	O 	0.62112 0.27924 0.62237 -0.35800
O 	O 	0.66959 0.24084 0.59478 -0.35700
O 	O 	0.66366 0.33198 0.51286 -0.28800
O 	O 	0.50248 0.32012 0.57420 -0.30000
O 	O 	0.55037 0.34458 0.53398 -0.32400
O 	O 	0.70839 0.25571 0.54505 -0.29100
O 	O 	0.62299 0.31505 0.56596 -0.72100
H 	H 	0.63740 0.36198 0.56206 0.17400
C 	C 	0.90490 0.85205 0.72794 0.33000
C 	C 	0.94712 0.88907 0.79976 0.30900
C 	C 	0.91229 0.04420 0.72113 0.32200
C 	C 	0.96301 0.10163 0.77542 0.31200
Ni	Ni	0.90699 0.95649 0.76144 1.12600
O 	O 	0.89022 0.98191 0.72733 -0.37800
O 	O 	0.96966 0.88452 0.72446 -0.36500
O 	O 	0.87770 0.86346 0.74784 -0.36100
O 	O 	0.02559 0.11611 0.77095 -0.37500
O 	O 	0.91348 0.03907 0.77816 -0.36300
O 	O 	0.97146 0.87024 0.78075 -0.35500
O 	O 	0.91302 0.92071 0.79571 -0.35100
O 	O 	0.97650 0.08839 0.72217 -0.36500
C 	C 	0.42336 0.77814 0.46519 0.30400
C 	C 	0.30832 0.59623 0.47621 0.31000
C 	C 	0.25633 0.78127 0.41190 0.31700
C 	C 	0.29371 0.55417 0.39490 0.33100
C 	C 	0.42193 0.73790 0.38294 0.30700
Ni	Ni	0.27541 0.69888 0.45490 1.12600
Ni	Ni	0.27385 0.66944 0.39512 1.12900
Ni	Ni	0.38144 0.66056 0.43015 1.14100
O 	O 	0.36640 0.78004 0.46469 -0.32400
O 	O 	0.42438 0.72194 0.46053 -0.27500
O 	O 	0.24887 0.57339 0.39662 -0.33500
O 	O 	0.18826 0.61191 0.44679 -0.33700
O 	O 	0.17826 0.64132 0.40676 -0.32600
O 	O 	0.44239 0.72932 0.40529 -0.29500
O 	O 	0.29803 0.64599 0.48177 -0.28200
O 	O 	0.31821 0.58561 0.45281 -0.34300
O 	O 	0.35985 0.69765 0.37484 -0.36000
O 	O 	0.24123 0.75671 0.43539 -0.33400
O 	O 	0.28779 0.76264 0.39566 -0.36200
O 	O 	0.35565 0.59322 0.40219 -0.34500
O 	O 	0.31982 0.69231 0.42627 -0.72200
H 	H 	0.35159 0.73971 0.42319 0.17800
C 	C 	0.42581 0.59764 0.05306 0.28100
C 	C 	0.21385 0.64234 0.10059 0.33400
C 	C 	0.24089 0.49599 0.05212 0.33500
C 	C 	0.40132 0.74382 0.10438 0.30800
C 	C 	0.22718 0.66126 0.01571 0.31500
C 	C 	0.40407 0.77921 0.02060 0.31100
Ni	Ni	0.31801 0.60366 0.08728 1.12300
Ni	Ni	0.30719 0.72575 0.06176 1.12700
Ni	Ni	0.32963 0.62667 0.02667 1.14100
O 	O 	0.38057 0.56936 0.07162 -0.28900
O 	O 	0.41719 0.63057 0.03421 -0.31800
O 	O 	0.25875 0.71688 0.02868 -0.33600
O 	O 	0.25580 0.62473 0.10987 -0.35100
O 	O 	0.21827 0.65959 0.07695 -0.36800
O 	O 	0.37661 0.71922 0.00966 -0.26000
O 	O 	0.23410 0.53061 0.06994 -0.35900
O 	O 	0.28664 0.52651 0.03449 -0.32000
O 	O 	0.39322 0.78666 0.04450 -0.35200
O 	O 	0.39494 0.68366 0.10535 -0.34400
O 	O 	0.35140 0.75317 0.09659 -0.35200
O 	O 	0.23798 0.61162 0.01998 -0.35300
O 	O 	0.33490 0.66078 0.05960 -0.71900
H 	H 	0.38377 0.68884 0.06090 0.17700
C 	C 	0.86694 0.99127 0.26642 0.31300
C 	C 	0.86549 0.96457 0.19954 0.33300
Ni	Ni	0.96700 0.08518 0.22541 1.11900
Ni	Ni	0.94277 0.93768 0.23901 1.12600
O 	O 	0.88066 0.03683 0.24839 -0.35500
O 	O 	0.90025 0.95805 0.26863 -0.36700
O 	O 	0.91802 0.02275 0.19571 -0.36900
O 	O 	0.86228 0.92800 0.21913 -0.36700
O 	O 	0.00073 0.03063 0.23661 -0.72100
H 	H 	0.00463 0.04141 0.25466 0.15900
C 	C 	0.17099 0.30664 0.07676 0.03200
C 	C 	0.21663 0.29258 0.08909 -0.02100
C 	C 	0.19487 0.24567 0.10867 -0.00700
C 	C 	0.19520 0.37036 0.06456 0.09400
C 	C 	0.21594 0.42651 0.05701 -0.03900
H 	H 	0.26961 0.32158 0.08486 0.12000
H 	H 	0.23115 0.23843 0.11921 0.07600
C 	C 	0.57097 0.87932 0.13886 0.01900
C 	C 	0.57340 0.87965 0.16524 -0.02400
C 	C 	0.63446 0.90148 0.17746 -0.01900
C 	C 	0.69334 0.92342 0.16334 0.00600
C 	C 	0.69173 0.92839 0.13708 -0.01200
C 	C 	0.63067 0.90663 0.12487 -0.01800
C 	C 	0.50873 0.83699 0.12651 0.07200
C 	C 	0.45822 0.79692 0.11629 -0.06300
C 	C 	0.75443 0.93712 0.17567 0.07100
C 	C 	0.80526 0.94875 0.18631 -0.08900
H 	H 	0.52758 0.85909 0.17623 0.06000
H 	H 	0.63557 0.89881 0.19782 0.05500
H 	H 	0.73731 0.94660 0.12607 0.07600
H 	H 	0.62934 0.90703 0.10447 0.09200
C 	C 	0.11334 0.70690 0.14538 0.01000
C 	C 	0.11228 0.76629 0.18281 -0.02200
C 	C 	0.13374 0.72703 0.17018 -0.02200
C 	C 	0.14654 0.67952 0.13056 0.07200
C 	C 	0.17628 0.66021 0.11739 -0.08300
H 	H 	0.13004 0.78349 0.20168 0.05900
H 	H 	0.16837 0.71463 0.17930 0.05900
C 	C 	0.57476 0.85547 0.33518 0.02400
C 	C 	0.63309 0.90659 0.34594 -0.01900
C 	C 	0.69208 0.93918 0.33169 -0.01200
C 	C 	0.69299 0.92091 0.30661 0.00800
C 	C 	0.63395 0.87181 0.29554 -0.01900
C 	C 	0.57499 0.83911 0.30980 -0.02700
C 	C 	0.51778 0.81454 0.35099 0.07000
C 	C 	0.47232 0.77967 0.36502 -0.03500
C 	C 	0.75539 0.94834 0.29290 0.06500
C 	C 	0.80695 0.96925 0.28111 -0.07600
H 	H 	0.63336 0.91950 0.36556 0.10200
H 	H 	0.73742 0.97724 0.34037 0.07600
H 	H 	0.63417 0.85760 0.27612 0.05500
H 	H 	0.53017 0.79967 0.30134 0.06000
C 	C 	0.24907 0.35611 0.30795 -0.01800
C 	C 	0.27662 0.40505 0.32647 -0.02100
C 	C 	0.24507 0.39462 0.35001 0.02200
C 	C 	0.26428 0.44970 0.36679 0.08200
C 	C 	0.27863 0.49687 0.38010 -0.04700
H 	H 	0.27224 0.36555 0.28946 0.06200
H 	H 	0.32071 0.45215 0.32213 0.06600
C 	C 	0.20701 0.93980 0.36747 -0.02100
C 	C 	0.19950 0.84606 0.39214 0.07300
C 	C 	0.22587 0.81808 0.40222 -0.06000
H 	H 	0.21210 0.01011 0.33963 0.06400
H 	H 	0.25899 0.96995 0.37276 0.07400
C 	C 	0.59448 0.92443 0.47994 0.03300
C 	C 	0.57754 0.95233 0.50012 0.10600
C 	C 	0.51340 0.91614 0.51153 -0.10200
C 	C 	0.46696 0.85429 0.50150 0.08600
C 	C 	0.48027 0.83191 0.47883 0.03100
C 	C 	0.54541 0.86653 0.46809 -0.06700
C 	C 	0.61964 0.02442 0.50465 0.08400
C 	C 	0.49105 0.94714 0.53200 0.78900
H 	H 	0.41798 0.82587 0.51015 0.12500
C 	C 	0.56067 0.84665 0.44275 0.77800
H 	H 	0.64431 0.95177 0.47190 0.13100
C 	C 	0.66376 0.04873 0.52531 -0.08900
C 	C 	0.68157 0.11222 0.53473 0.08900
C 	C 	0.66245 0.15320 0.52173 0.03500
C 	C 	0.63550 0.13498 0.49728 -0.06300
C 	C 	0.61041 0.06905 0.48958 0.04700
C 	C 	0.69263 0.00814 0.53675 0.78600
H 	H 	0.70649 0.12801 0.55273 0.10300
C 	C 	0.63079 0.18463 0.47991 0.78200
H 	H 	0.58079 0.05150 0.47259 0.10600
F 	F 	0.62678 0.88691 0.43560 -0.41300
F 	F 	0.52080 0.85230 0.42456 -0.44900
F 	F 	0.54888 0.78197 0.44376 -0.41400
F 	F 	0.48367 0.99830 0.52180 -0.42500
F 	F 	0.53734 0.97190 0.55117 -0.39800
F 	F 	0.43044 0.90116 0.54260 -0.40400
F 	F 	0.62636 0.16531 0.45501 -0.40300
F 	F 	0.68717 0.24641 0.48215 -0.40500
F 	F 	0.57467 0.18939 0.48591 -0.43500
F 	F 	0.74470 0.04597 0.55295 -0.40400
F 	F 	0.71720 0.98480 0.51786 -0.40100
F 	F 	0.64374 0.95461 0.55004 -0.38000
C 	C 	0.89864 0.45400 0.48957 0.04300
C 	C 	0.88889 0.48420 0.46837 0.09100
C 	C 	0.82359 0.47188 0.46240 -0.08600
C 	C 	0.77047 0.43420 0.47937 0.08100
C 	C 	0.78078 0.40446 0.50078 0.03900
C 	C 	0.84422 0.40891 0.50434 -0.06700
C 	C 	0.94748 0.52545 0.45188 0.10600
C 	C 	0.80950 0.49417 0.43730 0.78900
H 	H 	0.72126 0.42808 0.47600 0.11600
C 	C 	0.85165 0.35840 0.52041 0.78500
H 	H 	0.94862 0.46311 0.49375 0.11800
C 	C 	0.96377 0.49371 0.43281 0.02900
H 	H 	0.92679 0.44396 0.42724 0.13500
F 	F 	0.84105 0.36553 0.54556 -0.45300
F 	F 	0.91503 0.36565 0.51819 -0.40300
F 	F 	0.80656 0.29504 0.51249 -0.40100
F 	F 	0.81673 0.45777 0.41814 -0.40700
F 	F 	0.85340 0.56096 0.43313 -0.38700
F 	F 	0.74514 0.48473 0.43640 -0.39100
C 	C 	0.37616 0.54314 0.53035 0.03900
C 	C 	0.36598 0.48252 0.52061 0.09200
C 	C 	0.31933 0.45157 0.50091 -0.09900
C 	C 	0.28936 0.48573 0.48977 0.07700
C 	C 	0.31007 0.55191 0.49622 0.01600
C 	C 	0.34749 0.57793 0.51862 -0.06200
C 	C 	0.40634 0.45316 0.53048 0.09400
C 	C 	0.30181 0.38267 0.49165 0.78800
H 	H 	0.25459 0.46334 0.47438 0.10600
C 	C 	0.35639 0.64165 0.53022 0.78300
H 	H 	0.40862 0.56438 0.54644 0.12000
C 	C 	0.47309 0.47654 0.52222 -0.10100
C 	C 	0.50818 0.44490 0.53108 0.07600
C 	C 	0.47572 0.38631 0.54555 0.01100
C 	C 	0.40745 0.36099 0.55255 -0.05800
C 	C 	0.37653 0.39919 0.54722 0.03400
C 	C 	0.50775 0.53636 0.50469 0.78900
H 	H 	0.56056 0.46499 0.52630 0.09700
C 	C 	0.36624 0.29244 0.56437 0.77700
H 	H 	0.32714 0.38430 0.55471 0.12000
F 	F 	0.40155 0.69555 0.51607 -0.41600
F 	F 	0.38034 0.64951 0.55459 -0.40300
F 	F 	0.29567 0.64064 0.53126 -0.41000
F 	F 	0.26751 0.33617 0.51031 -0.40300
F 	F 	0.35929 0.38059 0.48539 -0.39500
F 	F 	0.26175 0.36500 0.47048 -0.40500
F 	F 	0.38240 0.29440 0.58953 -0.44700
F 	F 	0.37767 0.24644 0.55196 -0.42200
F 	F 	0.29838 0.27076 0.56283 -0.40900
F 	F 	0.56849 0.54496 0.49604 -0.39500
F 	F 	0.51950 0.59321 0.51738 -0.41000
F 	F 	0.46842 0.52837 0.48389 -0.40000
C 	C 	0.78497 0.10535 0.69426 0.00600
C 	C 	0.79773 0.16982 0.69984 -0.02300
C 	C 	0.76146 0.19588 0.68780 -0.02400
C 	C 	0.71214 0.15748 0.67021 0.01000
C 	C 	0.69642 0.09149 0.66595 -0.01900
C 	C 	0.73287 0.06554 0.67789 -0.01600
C 	C 	0.82878 0.08223 0.70365 0.06700
C 	C 	0.86645 0.06404 0.71144 -0.08700
C 	C 	0.68705 0.18895 0.65331 0.07100
C 	C 	0.66879 0.21482 0.63783 -0.07700
H 	H 	0.83729 0.20056 0.71279 0.05300
H 	H 	0.77381 0.24685 0.69129 0.05700
H 	H 	0.65824 0.06137 0.65244 0.08000
H 	H 	0.72216 0.01538 0.67372 0.07200
C 	C 	0.19382 0.03058 0.63901 -0.00200
C 	C 	0.22883 0.99610 0.63472 -0.00000
C 	C 	0.27432 0.01463 0.61464 -0.03600
C 	C 	0.28550 0.06821 0.59897 0.03900
C 	C 	0.24537 0.09797 0.60175 -0.02300
C 	C 	0.19978 0.07935 0.62178 -0.00200
C 	C 	0.15927 0.02246 0.66260 0.07300
C 	C 	0.34790 0.10329 0.58543 0.09000
C 	C 	0.40299 0.13609 0.57643 -0.02400
H 	H 	0.22360 0.95746 0.64768 0.06200
H 	H 	0.30448 0.99072 0.61247 0.08700
H 	H 	0.25307 0.13894 0.58958 0.12300
H 	H 	0.17194 0.10544 0.62470 0.07600
C 	C 	0.81391 0.68967 0.68322 0.00700
C 	C 	0.80963 0.63008 0.69156 -0.02100
C 	C 	0.79468 0.57865 0.67456 -0.02400
C 	C 	0.78395 0.58654 0.64912 0.01500
C 	C 	0.78779 0.64596 0.64079 -0.02000
C 	C 	0.80285 0.69745 0.65780 -0.01700
C 	C 	0.83997 0.74601 0.69972 0.06800
C 	C 	0.86641 0.79405 0.71307 -0.08300
C 	C 	0.75983 0.53062 0.63246 0.06700
C 	C 	0.73538 0.48228 0.61921 -0.06100
H 	H 	0.81905 0.62403 0.71112 0.05800
H 	H 	0.79071 0.53244 0.68123 0.06000
H 	H 	0.77845 0.65202 0.62123 0.07900
H 	H 	0.80702 0.74374 0.65112 0.07200
C 	C 	0.03062 0.45323 0.95188 0.03500
C 	C 	0.04512 0.51666 0.94348 0.08700
C 	C 	0.01159 0.52247 0.92210 -0.10700
C 	C 	0.95566 0.46492 0.91300 0.07400
C 	C 	0.93035 0.40514 0.92658 0.00600
C 	C 	0.97388 0.39654 0.94285 -0.05800
H 	H 	0.92585 0.46891 0.89807 0.08400
C 	C 	0.95463 0.32881 0.95365 0.78200
H 	H 	0.05987 0.44858 0.96693 0.10800
C 	C 	0.99177 0.55122 0.98900 0.79400
C 	C 	0.27386 0.70242 0.96192 0.78300
F 	F 	0.91480 0.31707 0.97475 -0.39300
F 	F 	0.01103 0.32534 0.96038 -0.41200
F 	F 	0.91985 0.27983 0.93604 -0.41100
F 	F 	0.99337 0.58441 0.88952 -0.44100
F 	F 	0.30196 0.76037 0.97574 -0.42800
F 	F 	0.27718 0.71962 0.93674 -0.39300
F 	F 	0.97910 0.58402 0.00819 -0.40500
F 	F 	0.97154 0.48694 0.99686 -0.41500
F 	F 	0.95412 0.54948 0.96844 -0.41100
C 	C 	0.52227 0.06192 0.95701 0.04200
C 	C 	0.54223 0.04232 0.97884 0.09300
C 	C 	0.59755 0.09016 0.99280 -0.09600
C 	C 	0.63559 0.15512 0.98302 0.07900
C 	C 	0.61596 0.17405 0.96087 0.01800
C 	C 	0.55466 0.12880 0.94943 -0.06200
C 	C 	0.50336 0.97201 0.98734 0.09800
C 	C 	0.61893 0.07126 0.01711 0.78800
H 	H 	0.68221 0.18989 0.99192 0.11300
C 	C 	0.52493 0.15050 0.92841 0.77700
H 	H 	0.48034 0.02523 0.94626 0.12400
C 	C 	0.43935 0.94708 0.99860 -0.10100
C 	C 	0.40340 0.87980 0.00561 0.09200
C 	C 	0.43316 0.83942 0.00465 0.03500
C 	C 	0.49626 0.86347 0.99283 -0.05600
C 	C 	0.52986 0.92931 0.98351 0.03900
C 	C 	0.40828 0.99135 0.00258 0.78900
H 	H 	0.35342 0.85953 0.01343 0.10300
C 	C 	0.52780 0.81939 0.99029 0.78200
H 	H 	0.57744 0.94808 0.97384 0.12600
F 	F 	0.45583 0.11263 0.92873 -0.39800
F 	F 	0.54825 0.14206 0.90544 -0.44100
F 	F 	0.54149 0.21644 0.93102 -0.43000
F 	F 	0.64986 0.03438 0.01163 -0.41100
F 	F 	0.56423 0.03431 0.03259 -0.40000
F 	F 	0.66339 0.12709 0.03038 -0.40000
F 	F 	0.58881 0.85153 0.97785 -0.38400
F 	F 	0.48581 0.76309 0.97679 -0.38200
F 	F 	0.53818 0.80075 0.01391 -0.40900
F 	F 	0.35474 0.96258 0.01922 -0.40900
F 	F 	0.38543 0.00154 0.97986 -0.40000
F 	F 	0.45444 0.05208 0.01248 -0.39200
C 	C 	0.50329 0.49737 0.03437 0.04100
C 	C 	0.55447 0.54454 0.01893 0.09100
C 	C 	0.57548 0.61301 0.02186 -0.08900
C 	C 	0.54046 0.63170 0.03882 0.07100
C 	C 	0.48170 0.58320 0.05066 0.02100
C 	C 	0.46949 0.51689 0.05149 -0.07200
C 	C 	0.58304 0.52120 0.99891 0.10000
C 	C 	0.62843 0.66509 0.00458 0.78900
H 	H 	0.55318 0.68342 0.04007 0.11700
C 	C 	0.42049 0.46685 0.07019 0.78300
H 	H 	0.48886 0.44528 0.03261 0.12100
C 	C 	0.63526 0.50727 0.00423 -0.09900
C 	C 	0.65824 0.48161 0.98508 0.08300
C 	C 	0.62740 0.46560 0.96137 0.00400
C 	C 	0.57445 0.47861 0.95615 -0.05600
C 	C 	0.55425 0.50832 0.97485 0.03100
C 	C 	0.66203 0.51339 0.03085 0.78900
H 	H 	0.69870 0.47145 0.98885 0.08900
C 	C 	0.54010 0.46190 0.93069 0.77600
H 	H 	0.51486 0.52001 0.97098 0.12500
F 	F 	0.42611 0.49637 0.09336 -0.42900
F 	F 	0.43282 0.41445 0.07374 -0.41300
F 	F 	0.35614 0.44180 0.06129 -0.44800
F 	F 	0.60166 0.66039 0.98090 -0.39800
F 	F 	0.68347 0.65604 0.00264 -0.39000
F 	F 	0.65048 0.72874 0.01352 -0.38100
F 	F 	0.48361 0.46896 0.93074 -0.40300
F 	F 	0.52040 0.39677 0.92440 -0.41000
F 	F 	0.58375 0.50407 0.91251 -0.41600
F 	F 	0.71965 0.50833 0.03125 -0.39700
F 	F 	0.61429 0.46308 0.04574 -0.40900
F 	F 	0.67736 0.57408 0.04117 -0.38800
C 	C 	0.86990 0.33483 0.79918 0.00700
C 	C 	0.93831 0.35477 0.79990 -0.02300
C 	C 	0.96075 0.31167 0.79160 -0.01500
C 	C 	0.91506 0.24919 0.78202 0.00400
C 	C 	0.84851 0.23330 0.77805 -0.02500
C 	C 	0.82602 0.27624 0.78653 -0.02600
C 	C 	0.84320 0.36120 0.81760 0.06900
C 	C 	0.82215 0.37827 0.83522 -0.08800
C 	C 	0.93384 0.19842 0.77966 0.06400
C 	C 	0.94809 0.15481 0.77798 -0.08200
H 	H 	0.97302 0.40076 0.80907 0.07200
H 	H 	0.01274 0.32518 0.79406 0.06200
H 	H 	0.81327 0.18594 0.76988 0.05300
H 	H 	0.77332 0.26106 0.78529 0.05600
C 	C 	0.32472 0.13811 0.81091 0.00900
C 	C 	0.38489 0.16913 0.79727 -0.01800
C 	C 	0.44556 0.18893 0.80950 -0.02500
C 	C 	0.44633 0.17775 0.83544 0.02600
C 	C 	0.38593 0.14478 0.84891 -0.01700
C 	C 	0.32526 0.12501 0.83667 -0.01100
C 	C 	0.26211 0.11497 0.79813 0.06500
C 	C 	0.50843 0.21080 0.84887 0.08000
C 	C 	0.55974 0.24277 0.86020 -0.02400
H 	H 	0.38473 0.17829 0.77724 0.05800
H 	H 	0.49207 0.21484 0.79899 0.06000
H 	H 	0.38611 0.13638 0.86900 0.10600
H 	H 	0.27879 0.09989 0.84725 0.07400
C 	C 	0.90657 0.71559 0.90886 0.03700
C 	C 	0.96851 0.74321 0.89631 -0.01500
C 	C 	0.98247 0.78807 0.87636 -0.00300
C 	C 	0.93513 0.80652 0.86923 0.00900
C 	C 	0.87741 0.78600 0.88397 -0.00800
C 	C 	0.86347 0.74109 0.90390 -0.02000
C 	C 	0.87896 0.64962 0.91940 0.10100
C 	C 	0.85350 0.59128 0.92458 -0.02600
C 	C 	0.94072 0.83749 0.84499 0.07000
C 	C 	0.94411 0.86153 0.82441 -0.07200
H 	H 	0.00299 0.72510 0.90034 0.12100
H 	H 	0.02809 0.80502 0.86548 0.07100
H 	H 	0.84128 0.80138 0.87902 0.07700
H 	H 	0.81614 0.72134 0.91385 0.09500
