data_crystal

_cell_length_a 20.56555
_cell_length_b 21.57197
_cell_length_c 39.31449
_cell_angle_alpha 60.75514
_cell_angle_beta  118.95844
_cell_angle_gamma 133.26727

_symmetry_space_group_name_	'P 1'
_symmetry_space_group_name_H-M	'P 1'

loop_
_symmetry_equiv_pos_as_xyz
  x,y,z

loop_
_atom_site_label
_atom_site_type_symbol
_atom_site_fract_x
_atom_site_fract_y
_atom_site_fract_z
_atom_site_charge
Co	Co	0.04050 0.09717 0.08014 1.18000
Co	Co	0.10950 0.03019 0.05219 1.16100
Co	Co	0.10735 0.87931 0.04929 1.17800
O 	O 	0.03547 0.07216 0.18663 -0.43800
C 	C 	0.02830 0.99975 0.21038 0.34800
O 	O 	0.11752 0.13476 0.04635 -0.45600
C 	C 	0.11820 0.23225 0.11854 0.32400
C 	C 	0.12287 0.78468 0.13490 0.31100
O 	O 	0.03059 0.95360 0.19802 -0.37300
O 	O 	0.08691 0.77390 0.09871 -0.40000
O 	O 	0.11392 0.83004 0.14391 -0.36400
O 	O 	0.03221 0.19984 0.11017 -0.39900
O 	O 	0.14008 0.19230 0.11362 -0.37600
O 	O 	0.06919 0.92283 0.06881 -0.73400
Co	Co	0.01169 0.00978 0.52924 1.15600
Co	Co	0.06472 0.89583 0.53195 1.18400
C 	C 	0.00229 0.00764 0.70338 0.15300
C 	C 	0.02265 0.21167 0.59537 0.31000
C 	C 	0.16036 0.87369 0.61559 0.30000
O 	O 	0.17473 0.92680 0.58023 -0.37000
O 	O 	0.10958 0.86435 0.63208 -0.34500
O 	O 	0.04679 0.17728 0.58754 -0.38400
O 	O 	0.01345 0.92018 0.55499 -0.73200
O 	O 	0.13722 0.02652 0.50015 -0.43000
O 	O 	0.15131 0.09230 0.53653 -0.41300
C 	C 	0.02241 0.99207 0.82140 0.04700
C 	C 	0.05674 0.95804 0.81725 0.01600
C 	C 	0.04618 0.95904 0.77875 -0.03800
H 	H 	0.07656 0.93698 0.77556 0.07400
C 	C 	0.12179 0.07005 0.87718 -0.08100
C 	C 	0.13221 0.08009 0.91258 0.04100
S 	S 	0.21325 0.14804 0.85302 0.00100
H 	H 	0.19864 0.13102 0.92641 0.04200
H 	H 	0.20399 0.97492 0.86736 0.06400
C 	C 	0.04328 0.95129 0.39243 0.00500
C 	C 	0.03517 0.95022 0.42602 0.02200
S 	S 	0.11403 0.92519 0.39924 0.02900
H 	H 	0.07323 0.93399 0.45537 0.03000
C 	C 	0.03145 0.97815 0.25286 -0.04800
C 	C 	0.10138 0.04374 0.27444 0.02100
C 	C 	0.08526 0.04276 0.30557 -0.12800
S 	S 	0.20937 0.12781 0.26250 -0.01700
H 	H 	0.13816 0.09528 0.32095 0.07400
H 	H 	0.06276 0.83663 0.40398 0.05000
C 	C 	0.13896 0.37840 0.64934 0.07600
C 	C 	0.11129 0.30423 0.64250 -0.01600
C 	C 	0.08968 0.29989 0.60355 -0.08000
H 	H 	0.09944 0.24696 0.66724 0.06100
N 	N 	0.15476 0.37832 0.68910 -0.01900
O 	O 	0.11948 0.40312 0.69515 -0.08400
O 	O 	0.20093 0.34974 0.71946 -0.09200
C 	C 	0.15983 0.67638 0.64984 -0.04800
C 	C 	0.19856 0.82154 0.63539 -0.06700
C 	C 	0.14218 0.72908 0.65036 0.10900
N 	N 	0.07308 0.68929 0.66947 -0.02500
H 	H 	0.11734 0.60590 0.66179 0.08600
O 	O 	0.09328 0.72166 0.69653 -0.07600
C 	C 	0.20056 0.37350 0.17849 0.07700
C 	C 	0.17308 0.29998 0.17112 -0.01400
C 	C 	0.18742 0.30784 0.13717 -0.08200
H 	H 	0.13396 0.23553 0.19011 0.05900
N 	N 	0.18248 0.36268 0.21257 -0.01800
O 	O 	0.09821 0.31713 0.21440 -0.08800
C 	C 	0.18037 0.62518 0.18325 0.08000
C 	C 	0.13557 0.66036 0.17620 -0.01200
C 	C 	0.17975 0.75193 0.16359 -0.07700
H 	H 	0.06525 0.61635 0.17899 0.06900
N 	N 	0.14348 0.53502 0.20421 -0.01800
O 	O 	0.19440 0.51513 0.23660 -0.06900
O 	O 	0.05656 0.47400 0.19373 -0.06800
O 	O 	0.07676 0.38092 0.04842 -0.08900
O 	O 	0.04424 0.31496 0.00690 -0.08000
C 	C 	0.08230 0.00610 0.97575 0.26000
O 	O 	0.13588 0.98089 0.99811 -0.32900
O 	O 	0.05947 0.02893 0.99159 -0.38200
O 	O 	0.00190 0.76617 0.56414 -0.39000
C 	C 	0.03813 0.99886 0.86103 0.09100
S 	S 	0.11086 0.91236 0.85976 0.01000
C 	C 	0.05954 0.02073 0.93190 -0.15500
C 	C 	0.00263 0.97279 0.31795 0.07300
C 	C 	0.15418 0.45352 0.61756 -0.00900
N 	N 	0.19450 0.58280 0.62788 -0.12400
C 	C 	0.10334 0.37443 0.57151 0.11400
C 	C 	0.13461 0.45020 0.57863 -0.04800
N 	N 	0.08486 0.37342 0.53157 -0.02600
O 	O 	0.04033 0.40419 0.50158 -0.08300
H 	H 	0.14871 0.50832 0.55415 0.08400
O 	O 	0.11823 0.34764 0.52485 -0.08600
C 	C 	0.18750 0.09038 0.51753 0.33000
C 	C 	0.22147 0.54049 0.62699 0.14800
O 	O 	0.21724 0.21832 0.43556 -0.09200
N 	N 	0.01717 0.32080 0.02835 -0.02300
Co	Co	0.01349 0.85357 0.10590 1.18700
O 	O 	0.00766 0.96817 0.08645 -0.54500
C 	C 	0.23459 0.71520 0.63562 -0.00900
O 	O 	0.99967 0.95374 0.69410 -0.30300
C 	C 	0.99854 0.99063 0.74446 0.05400
O 	O 	0.99727 0.07070 0.67536 -0.37000
O 	O 	0.23967 0.96062 0.07857 -0.31000
C 	C 	0.24103 0.39254 0.11369 0.12200
O 	O 	0.99576 0.61316 0.66487 -0.08800
O 	O 	0.99151 0.09741 0.52009 -0.45900
C 	C 	0.24614 0.45717 0.15262 -0.00800
O 	O 	0.24810 0.07887 0.07052 -0.38000
O 	O 	0.24965 0.39221 0.24313 -0.07600
Co	Co	0.98770 0.85907 0.60037 1.19000
C 	C 	0.99184 0.96862 0.35409 0.01900
N 	N 	0.25703 0.56687 0.16550 -0.11600
C 	C 	0.97211 0.96133 0.42269 -0.06100
O 	O 	0.95648 0.99100 0.47023 -0.32300
C 	C 	0.26660 0.68173 0.17380 -0.00800
O 	O 	0.95461 0.72315 0.48675 -0.11200
O 	O 	0.26632 0.45958 0.04817 -0.07100
C 	C 	0.26606 0.46589 0.12024 -0.05000
N 	N 	0.26876 0.40437 0.08258 -0.02300
C 	C 	0.27397 0.80755 0.16427 0.11500
Co	Co	0.94589 0.06301 0.56633 1.16800
O 	O 	0.93926 0.16503 0.59893 -0.40100
O 	O 	0.81839 0.69931 0.46834 -0.08700
C 	C 	0.28034 0.04571 0.06733 0.23200
C 	C 	0.97209 0.02005 0.78761 -0.09900
C 	C 	0.95725 0.01724 0.74965 0.00300
S 	S 	0.88381 0.04425 0.70947 -0.10000
H 	H 	0.94345 0.04376 0.79091 0.06400
H 	H 	0.93396 0.13293 0.69274 0.04700
H 	H 	0.27228 0.12540 0.86937 0.03400
H 	H 	0.26600 0.10151 0.28452 0.04000
C 	C 	0.27953 0.85969 0.62654 -0.01600
H 	H 	0.32586 0.93061 0.61697 0.09100
O 	O 	0.27757 0.96299 0.01401 -0.10400
C 	C 	0.29365 0.80795 0.62319 0.08300
N 	N 	0.32825 0.89880 0.16287 -0.02100
O 	O 	0.31109 0.92295 0.18021 -0.06800
O 	O 	0.25661 0.15739 0.42335 -0.11300
C 	C 	0.75750 0.30403 0.02137 0.14000
N 	N 	0.67055 0.24827 0.02667 -0.12800
C 	C 	0.64219 0.27255 0.03970 0.14800
N 	N 	0.70259 0.34969 0.05013 -0.12300
C 	C 	0.78615 0.40888 0.04180 0.14800
N 	N 	0.81442 0.38643 0.02738 -0.13100
C 	C 	0.67614 0.25951 0.53309 0.14500
N 	N 	0.74318 0.33442 0.54677 -0.12000
C 	C 	0.71908 0.37047 0.55487 0.15000
N 	N 	0.62958 0.33050 0.55049 -0.12500
C 	C 	0.56348 0.25775 0.53634 0.15000
N 	N 	0.58643 0.22350 0.52675 -0.13800
C 	C 	0.30978 0.64688 0.17357 0.14600
N 	N 	0.40255 0.69866 0.17847 -0.13100
C 	C 	0.44300 0.66908 0.17814 0.15200
N 	N 	0.39158 0.58686 0.17446 -0.12900
C 	C 	0.29906 0.53714 0.16611 0.15000
C 	C 	0.25978 0.66080 0.63919 0.14900
N 	N 	0.35016 0.69410 0.64991 -0.11500
C 	C 	0.37610 0.65362 0.64722 0.15700
N 	N 	0.31178 0.57682 0.63628 -0.13200
Co	Co	0.96310 0.92752 0.14064 1.20000
C 	C 	0.91413 0.73579 0.04855 0.30500
Co	Co	0.93924 0.06952 0.13388 1.16400
O 	O 	0.97849 0.02575 0.11508 -0.78100
O 	O 	0.96198 0.82550 0.14867 -0.44300
C 	C 	0.78952 0.87708 0.14501 0.32600
O 	O 	0.84376 0.94345 0.16103 -0.38100
O 	O 	0.82321 0.85837 0.13312 -0.36400
C 	C 	0.88660 0.12383 0.04623 0.30000
O 	O 	0.85190 0.06483 0.07781 -0.38600
O 	O 	0.95049 0.13392 0.03834 -0.34900
O 	O 	0.96974 0.80291 0.02454 -0.37100
O 	O 	0.91005 0.74698 0.07812 -0.35600
Co	Co	0.92500 0.91541 0.63865 1.18700
C 	C 	0.91820 0.71592 0.56847 0.32100
Co	Co	0.87616 0.03723 0.63320 1.15700
O 	O 	0.91421 0.99984 0.61012 -0.70900
O 	O 	0.94955 0.83009 0.64828 -0.43700
O 	O 	0.93959 0.94456 0.57804 -0.54700
C 	C 	0.75491 0.84153 0.65588 0.32000
C 	C 	0.94775 0.93430 0.46007 0.29600
O 	O 	0.80777 0.91112 0.66957 -0.36700
O 	O 	0.78951 0.82629 0.64260 -0.35800
O 	O 	0.94757 0.86801 0.48762 -0.36400
C 	C 	0.77625 0.05502 0.54981 0.30000
O 	O 	0.76365 0.00369 0.58581 -0.39400
O 	O 	0.83142 0.06897 0.53403 -0.36800
O 	O 	0.89481 0.74018 0.58345 -0.36300
C 	C 	0.97286 0.95720 0.91282 0.13200
C 	C 	0.96328 0.94409 0.87854 -0.09300
S 	S 	0.87550 0.89558 0.93091 0.02700
H 	H 	0.89689 0.89307 0.86476 0.08500
H 	H 	0.83648 0.93940 0.91309 0.06800
C 	C 	0.93224 0.98466 0.35005 -0.04900
C 	C 	0.92094 0.97959 0.38422 0.05800
S 	S 	0.84088 0.99346 0.37835 0.03300
H 	H 	0.89330 0.99917 0.32054 0.07100
C 	C 	0.93629 0.90234 0.29912 -0.01300
C 	C 	0.95107 0.90544 0.26675 0.00800
S 	S 	0.83412 0.81067 0.31529 0.01000
H 	H 	0.89730 0.85407 0.25072 0.04600
H 	H 	0.75714 0.91347 0.38082 0.05300
H 	H 	0.76804 0.82537 0.29447 0.05400
C 	C 	0.49779 0.70965 0.61938 -0.04800
C 	C 	0.47309 0.69832 0.65064 -0.00800
C 	C 	0.54017 0.72437 0.68582 0.08300
C 	C 	0.63176 0.76482 0.68863 -0.00700
C 	C 	0.65718 0.77960 0.65661 -0.08100
C 	C 	0.58902 0.74905 0.62239 0.12400
N 	N 	0.61253 0.75976 0.59021 -0.02400
H 	H 	0.44602 0.68820 0.59252 0.08600
H 	H 	0.68366 0.78678 0.71537 0.07600
N 	N 	0.51555 0.70941 0.71885 -0.01900
O 	O 	0.61366 0.69985 0.59063 -0.08100
O 	O 	0.62676 0.82634 0.55926 -0.06600
O 	O 	0.45825 0.62970 0.73700 -0.07500
O 	O 	0.55548 0.77497 0.73260 -0.07000
N 	N 	0.36441 0.84986 0.60458 -0.01900
O 	O 	0.34331 0.83200 0.57200 -0.07700
O 	O 	0.44874 0.91099 0.61832 -0.06000
H 	H 	0.30597 0.53067 0.10153 0.08200
O 	O 	0.30370 0.36556 0.08980 -0.08000
C 	C 	0.67822 0.75083 0.18632 -0.00700
C 	C 	0.69493 0.81282 0.14947 -0.08700
C 	C 	0.63040 0.83150 0.12346 0.11700
C 	C 	0.55299 0.79198 0.13552 -0.05400
C 	C 	0.53674 0.73063 0.17254 -0.01300
C 	C 	0.60107 0.71163 0.19848 0.07400
N 	N 	0.58819 0.65255 0.23734 -0.01900
H 	H 	0.72892 0.73808 0.20690 0.06100
H 	H 	0.50249 0.80502 0.11499 0.08400
N 	N 	0.64450 0.89231 0.08502 -0.02600
O 	O 	0.59927 0.59159 0.24987 -0.08700
O 	O 	0.56992 0.66245 0.26098 -0.08600
O 	O 	0.66297 0.88373 0.06092 -0.06900
O 	O 	0.63434 0.95356 0.07332 -0.06500
C 	C 	0.31499 0.77313 0.16647 -0.05100
H 	H 	0.38475 0.81748 0.16299 0.08900
O 	O 	0.39989 0.95652 0.14759 -0.06300
C 	C 	0.63221 0.12010 0.53111 -0.04400
C 	C 	0.69916 0.21059 0.52947 -0.01900
C 	C 	0.78548 0.25248 0.52383 0.08100
C 	C 	0.80664 0.20202 0.52439 -0.02000
C 	C 	0.74271 0.11012 0.53066 -0.07300
C 	C 	0.65287 0.07074 0.53056 0.06600
N 	N 	0.58340 0.97903 0.53210 0.00600
H 	H 	0.56417 0.08735 0.53352 0.06900
H 	H 	0.87450 0.23385 0.52215 0.07900
N 	N 	0.85105 0.34573 0.51687 -0.01700
O 	O 	0.53846 0.92752 0.56022 -0.05800
O 	O 	0.56474 0.94712 0.50525 -0.05500
O 	O 	0.92436 0.38041 0.54478 -0.08400
O 	O 	0.83799 0.39600 0.48248 -0.08400
C 	C 	0.82296 0.55349 0.59551 -0.00600
C 	C 	0.85668 0.62576 0.56316 -0.07700
C 	C 	0.85313 0.61331 0.53001 0.11300
C 	C 	0.82241 0.53129 0.53077 -0.05100
C 	C 	0.78717 0.45862 0.56269 -0.00700
C 	C 	0.79099 0.47078 0.59606 0.08100
N 	N 	0.76034 0.39853 0.63021 -0.01600
H 	H 	0.82536 0.56216 0.62112 0.08200
H 	H 	0.81826 0.52246 0.50473 0.08500
N 	N 	0.87787 0.68341 0.49483 -0.02400
O 	O 	0.78531 0.34706 0.64520 -0.07500
O 	O 	0.71027 0.38612 0.64721 -0.07300
C 	C 	0.41010 0.21688 0.49296 -0.05800
C 	C 	0.46724 0.21623 0.53154 -0.01600
C 	C 	0.43509 0.18577 0.56485 0.07000
C 	C 	0.34560 0.15505 0.55921 -0.00800
C 	C 	0.28648 0.15045 0.52092 -0.10000
C 	C 	0.32024 0.18520 0.48739 0.11400
N 	N 	0.26238 0.18634 0.44769 -0.02200
H 	H 	0.43604 0.24351 0.46719 0.07700
H 	H 	0.31973 0.12804 0.58506 0.05700
N 	N 	0.49208 0.18279 0.60462 -0.01800
O 	O 	0.50357 0.21704 0.62834 -0.08300
O 	O 	0.52643 0.13983 0.61815 -0.09500
C 	C 	0.88760 0.31431 0.02178 -0.05700
C 	C 	0.79264 0.27175 0.01298 -0.00900
C 	C 	0.73161 0.19211 0.00098 0.06600
C 	C 	0.76485 0.14769 0.00652 -0.01100
C 	C 	0.85893 0.18432 0.02142 -0.08000
C 	C 	0.92095 0.27263 0.02410 0.11300
H 	H 	0.93569 0.37919 0.02723 0.08600
H 	H 	0.71683 0.08271 0.00113 0.06600
N 	N 	0.63706 0.15799 0.98185 -0.01300
O 	O 	0.61552 0.20700 0.95002 -0.08800
O 	O 	0.57274 0.07620 0.99458 -0.09900
C 	C 	0.82132 0.55636 0.00795 -0.06100
C 	C 	0.83843 0.50016 0.04277 -0.00700
C 	C 	0.87594 0.51968 0.08014 0.07600
C 	C 	0.89075 0.59174 0.08245 -0.00900
C 	C 	0.87110 0.64651 0.04765 -0.07900
C 	C 	0.83289 0.62635 0.01037 0.11300
N 	N 	0.80237 0.67479 0.97508 -0.01800
H 	H 	0.79001 0.54038 0.97929 0.09100
H 	H 	0.92130 0.60717 0.11118 0.06800
N 	N 	0.89536 0.46398 0.11612 -0.01800
O 	O 	0.82354 0.70238 0.94179 -0.09200
O 	O 	0.74619 0.68387 0.97525 -0.07300
O 	O 	0.93602 0.43640 0.11689 -0.08000
O 	O 	0.87113 0.43972 0.14793 -0.08300
C 	C 	0.42181 0.19585 0.05055 -0.03000
C 	C 	0.36955 0.10492 0.05631 -0.05200
C 	C 	0.40225 0.07105 0.05057 0.05500
C 	C 	0.49158 0.12597 0.04574 -0.03700
C 	C 	0.54526 0.21633 0.04160 -0.02200
C 	C 	0.50696 0.25201 0.04104 0.08400
N 	N 	0.55129 0.34482 0.02821 -0.02200
H 	H 	0.39511 0.22351 0.05201 0.07700
H 	H 	0.51819 0.09833 0.04418 0.07200
N 	N 	0.34275 0.98321 0.04632 0.00800
O 	O 	0.56396 0.38723 0.99199 -0.07600
O 	O 	0.57281 0.38570 0.05171 -0.08200
O 	O 	0.36250 0.92786 0.07154 -0.08000
