data_crystal

_cell_length_a 26.22769
_cell_length_b 26.51065
_cell_length_c 39.84963
_cell_angle_alpha 95.49024
_cell_angle_beta  95.48503
_cell_angle_gamma 125.88861

_symmetry_space_group_name_	'P 1'
_symmetry_space_group_name_H-M	'P 1'

loop_
_symmetry_equiv_pos_as_xyz
  x,y,z

loop_
_atom_site_label
_atom_site_type_symbol
_atom_site_fract_x
_atom_site_fract_y
_atom_site_fract_z
_atom_site_charge
C 	C 	0.93902 0.00865 0.98568 0.06700
C 	C 	0.00305 0.03998 0.98179 -0.07300
C 	C 	0.03158 0.00883 0.98388 0.07500
H 	H 	0.03040 0.08815 0.97716 0.07500
C 	C 	0.02744 0.05804 0.46700 -0.06500
C 	C 	0.06128 0.03242 0.46899 0.06600
H 	H 	0.05239 0.10767 0.46546 0.07900
Cu	Cu	0.62016 0.23110 0.00126 0.92700
Cu	Cu	0.65654 0.22403 0.92525 0.89000
Cu	Cu	0.64105 0.33093 0.95991 0.91800
Cu	Cu	0.60542 0.33743 0.02839 0.90200
C 	C 	0.63691 0.27321 0.07374 0.28900
O 	O 	0.52452 0.18342 0.00056 -0.35200
C 	C 	0.65910 0.31604 0.89213 0.30700
O 	O 	0.66118 0.32831 0.00691 -0.63800
O 	O 	0.60791 0.23999 0.95272 -0.62700
O 	O 	0.67604 0.20233 0.99955 -0.35200
O 	O 	0.63910 0.15356 0.94342 -0.40500
O 	O 	0.60096 0.29185 0.06627 -0.37100
O 	O 	0.67925 0.42020 0.96819 -0.35700
C 	C 	0.67669 0.45088 0.99531 0.31100
C 	C 	0.49402 0.20599 0.98935 0.30000
O 	O 	0.52635 0.26635 0.98759 -0.36600
O 	O 	0.63539 0.42062 0.01569 -0.36500
O 	O 	0.64191 0.23881 0.04992 -0.34900
C 	C 	0.66979 0.16268 0.97394 0.31300
O 	O 	0.62991 0.33068 0.91120 -0.35200
O 	O 	0.69417 0.30028 0.90603 -0.40600
H 	H 	0.70714 0.35929 0.01745 0.17200
H 	H 	0.56234 0.21184 0.94127 0.17500
Cu	Cu	0.76037 0.35486 0.46319 0.93100
Cu	Cu	0.75319 0.30601 0.53581 0.87600
Cu	Cu	0.66141 0.32674 0.50808 0.90100
Cu	Cu	0.64176 0.35315 0.43865 0.91100
C 	C 	0.71025 0.33005 0.39122 0.30400
O 	O 	0.79939 0.44734 0.46164 -0.34500
C 	C 	0.70448 0.34765 0.58328 0.29000
O 	O 	0.66077 0.30480 0.46059 -0.63800
O 	O 	0.75476 0.36713 0.51209 -0.63800
O 	O 	0.80268 0.31234 0.46701 -0.34700
O 	O 	0.73079 0.24450 0.49720 -0.42800
O 	O 	0.68530 0.35978 0.39901 -0.35600
O 	O 	0.56952 0.28124 0.50171 -0.36200
C 	C 	0.53363 0.28053 0.47576 0.31400
C 	C 	0.77108 0.47235 0.47166 0.30400
O 	O 	0.71266 0.43544 0.47755 -0.37400
O 	O 	0.55914 0.31978 0.45404 -0.36900
O 	O 	0.74917 0.32971 0.41466 -0.33500
C 	C 	0.77256 0.25770 0.47733 0.30600
O 	O 	0.66201 0.33896 0.55785 -0.37000
O 	O 	0.75347 0.34827 0.57738 -0.40800
H 	H 	0.63235 0.25873 0.45110 0.18300
H 	H 	0.78302 0.41136 0.52497 0.18300
C 	C 	0.69677 0.35663 0.61914 -0.07900
C 	C 	0.75012 0.38825 0.64605 0.01800
C 	C 	0.74177 0.38879 0.68018 -0.06000
C 	C 	0.68011 0.35812 0.68780 0.03100
C 	C 	0.62713 0.32952 0.66103 -0.05800
C 	C 	0.63538 0.32875 0.62686 0.01700
C 	C 	0.67056 0.35143 0.72351 0.00800
C 	C 	0.63439 0.29096 0.73211 -0.03400
C 	C 	0.62971 0.28462 0.76633 -0.02600
C 	C 	0.66119 0.33861 0.79222 0.00100
C 	C 	0.69613 0.39902 0.78364 -0.02400
C 	C 	0.70075 0.40546 0.74939 -0.03300
C 	C 	0.66033 0.33196 0.82768 0.05800
C 	C 	0.65973 0.32530 0.85720 -0.09400
H 	H 	0.79790 0.41114 0.64054 0.04300
H 	H 	0.78304 0.41136 0.70066 0.05700
H 	H 	0.57940 0.30640 0.66666 0.05900
H 	H 	0.59381 0.30452 0.60643 0.05000
H 	H 	0.61113 0.24897 0.71238 0.05000
H 	H 	0.60257 0.23777 0.77277 0.04900
H 	H 	0.72048 0.44098 0.80352 0.05800
H 	H 	0.72850 0.45233 0.74302 0.05400
C 	C 	0.65791 0.27706 0.11020 -0.07600
C 	C 	0.65340 0.22595 0.12118 0.02300
C 	C 	0.66729 0.22739 0.15622 -0.05800
C 	C 	0.68603 0.27997 0.18053 0.03300
C 	C 	0.69263 0.33187 0.16947 -0.05800
C 	C 	0.67868 0.33044 0.13451 0.01900
C 	C 	0.69462 0.27910 0.21758 0.00900
C 	C 	0.64198 0.23545 0.23185 -0.03200
C 	C 	0.64751 0.24073 0.26749 -0.02500
C 	C 	0.70568 0.28958 0.28909 0.00700
C 	C 	0.75921 0.33113 0.27486 -0.02400
C 	C 	0.75376 0.32588 0.23921 -0.03200
C 	C 	0.70816 0.30198 0.32545 0.05900
C 	C 	0.70950 0.31389 0.35565 -0.07300
H 	H 	0.63738 0.18442 0.10272 0.05200
H 	H 	0.66236 0.18721 0.16449 0.06100
H 	H 	0.70710 0.37269 0.18803 0.05900
H 	H 	0.68305 0.37043 0.12634 0.03500
H 	H 	0.59617 0.19904 0.21539 0.05400
H 	H 	0.60595 0.20831 0.27830 0.05500
H 	H 	0.80442 0.36887 0.29139 0.05900
H 	H 	0.79486 0.35941 0.22845 0.05400
C 	C 	0.76485 0.55617 0.45221 0.15500
C 	C 	0.80005 0.53932 0.47043 -0.09700
H 	H 	0.89020 0.57440 0.50193 0.06400
Br	Br	0.68366 0.49316 0.42253 -0.25100
C 	C 	0.92773 0.04905 0.46928 -0.01200
C 	C 	0.94603 0.09763 0.49669 0.10400
C 	C 	0.91914 0.13006 0.49505 -0.05700
C 	C 	0.87065 0.11165 0.46745 0.00700
C 	C 	0.84995 0.06094 0.44085 0.10500
C 	C 	0.87928 0.03063 0.44161 -0.06500
H 	H 	0.93450 0.16838 0.51582 0.08200
C 	C 	0.84003 0.14405 0.46746 0.03100
C 	C 	0.85268 0.18556 0.44463 -0.08300
C 	C 	0.82707 0.21946 0.44571 0.14900
C 	C 	0.79314 0.21626 0.47204 -0.10100
C 	C 	0.77928 0.17325 0.49423 -0.01400
C 	C 	0.80113 0.13628 0.49147 0.07900
H 	H 	0.88117 0.19033 0.42546 0.09100
H 	H 	0.75159 0.16860 0.51381 0.05600
Br	Br	0.78048 0.03109 0.40392 -0.19900
Br	Br	0.00455 0.11758 0.53754 -0.17700
Br	Br	0.83194 0.26226 0.40846 -0.19600
Br	Br	0.77601 0.07424 0.52026 -0.19900
C 	C 	0.13088 0.07315 0.47035 -0.01900
C 	C 	0.17360 0.09970 0.50206 0.11000
C 	C 	0.23948 0.13456 0.50281 -0.06200
C 	C 	0.26322 0.14354 0.47215 0.01000
C 	C 	0.22058 0.11789 0.44046 0.10400
C 	C 	0.15467 0.08290 0.43970 -0.05500
H 	H 	0.27227 0.15457 0.52723 0.08400
C 	C 	0.33263 0.17896 0.47344 0.03000
C 	C 	0.35940 0.14618 0.47186 -0.08400
C 	C 	0.42510 0.17892 0.47261 0.14900
C 	C 	0.46468 0.24526 0.47536 -0.09500
C 	C 	0.43787 0.27804 0.47715 -0.00600
C 	C 	0.37216 0.24524 0.47624 0.08400
H 	H 	0.32895 0.09510 0.46963 0.08900
H 	H 	0.46820 0.32911 0.47934 0.07300
Br	Br	0.25157 0.13005 0.39801 -0.19300
Br	Br	0.14271 0.08854 0.54454 -0.18100
Br	Br	0.45930 0.13189 0.46820 -0.23100
Br	Br	0.33709 0.29161 0.47857 -0.18700
Br	Br	0.58911 0.49505 0.97876 -0.19400
C 	C 	0.71191 0.14319 0.97713 -0.10600
C 	C 	0.77788 0.18699 0.97711 0.15000
C 	C 	0.81710 0.16735 0.97893 -0.08600
C 	C 	0.79108 0.10413 0.98038 0.03200
C 	C 	0.72520 0.06038 0.98060 0.07700
C 	C 	0.68591 0.08005 0.97885 -0.00300
H 	H 	0.86776 0.20109 0.97877 0.08900
C 	C 	0.83306 0.08406 0.98145 0.00800
H 	H 	0.63516 0.04618 0.97873 0.06400
C 	C 	0.86456 0.08812 0.01321 -0.06200
C 	C 	0.90240 0.06685 0.01476 0.10900
C 	C 	0.90895 0.04125 0.98429 -0.02000
C 	C 	0.87965 0.03969 0.95247 -0.05500
C 	C 	0.84183 0.06100 0.95091 0.10400
H 	H 	0.85887 0.10697 0.03673 0.08300
Br	Br	0.81488 0.27333 0.97343 -0.26400
Br	Br	0.94410 0.07227 0.05871 -0.19600
Br	Br	0.80132 0.05690 0.90692 -0.20200
C 	C 	0.09858 0.04086 0.97927 -0.01900
C 	C 	0.11306 0.01555 0.95229 0.10500
C 	C 	0.17659 0.03875 0.95204 -0.06200
C 	C 	0.22628 0.08879 0.97774 0.01000
C 	C 	0.21234 0.11790 0.00291 0.10600
C 	C 	0.14859 0.09310 0.00394 -0.05200
H 	H 	0.18735 0.01786 0.93186 0.08100
C 	C 	0.29283 0.11106 0.97781 0.03000
H 	H 	0.13785 0.11370 0.02430 0.08300
C 	C 	0.32584 0.14631 0.95331 -0.08500
C 	C 	0.39043 0.17210 0.95467 0.14900
C 	C 	0.42336 0.16521 0.98179 -0.09500
C 	C 	0.38895 0.12564 0.00461 -0.01100
C 	C 	0.32366 0.09775 0.00238 0.08600
H 	H 	0.30137 0.15392 0.93327 0.08900
H 	H 	0.41338 0.11837 0.02486 0.07300
Br	Br	0.27971 0.19197 0.03574 -0.19100
Br	Br	0.43162 0.21305 0.91816 -0.22700
Br	Br	0.27745 0.04174 0.03304 -0.19000
C 	C 	0.92928 0.86115 0.46992 -0.01900
C 	C 	0.90973 0.83571 0.49967 0.11000
C 	C 	0.88476 0.77242 0.49995 -0.06000
C 	C 	0.88108 0.73474 0.47117 0.01100
C 	C 	0.90081 0.76024 0.44150 0.10100
C 	C 	0.92376 0.82280 0.44083 -0.05500
H 	H 	0.86913 0.75279 0.52273 0.08500
C 	C 	0.85336 0.66766 0.47161 0.03100
H 	H 	0.93938 0.84237 0.41802 0.07600
C 	C 	0.79094 0.62003 0.45380 -0.08400
C 	C 	0.86261 0.58700 0.48825 -0.00700
C 	C 	0.88959 0.65100 0.48869 0.08200
H 	H 	0.76337 0.63271 0.44018 0.09200
Br	Br	0.89922 0.71117 0.40213 -0.19500
Br	Br	0.97630 0.71485 0.51208 -0.19500
C 	C 	0.87661 0.82826 0.02703 0.11100
C 	C 	0.84005 0.76382 0.02877 -0.06100
C 	C 	0.82014 0.71843 0.99942 0.01200
C 	C 	0.83618 0.73769 0.96795 0.10400
C 	C 	0.87238 0.80199 0.96617 -0.05200
H 	H 	0.82776 0.74907 0.05301 0.08500
C 	C 	0.78334 0.65095 0.00186 0.02900
C 	C 	0.71623 0.61238 0.99401 -0.08200
C 	C 	0.68067 0.54691 0.99239 0.15200
C 	C 	0.71247 0.51979 0.99932 -0.09300
C 	C 	0.77947 0.55869 0.00829 -0.01000
C 	C 	0.81499 0.62406 0.00966 0.08500
H 	H 	0.69179 0.63305 0.98806 0.09100
H 	H 	0.80402 0.53797 0.01375 0.06000
Br	Br	0.80965 0.67680 0.92724 -0.19100
Br	Br	0.90679 0.67572 0.02132 -0.19200
H 	H 	0.12185 0.06258 0.41528 0.07600
H 	H 	0.88475 0.02019 0.92897 0.07700
H 	H 	0.88486 0.81672 0.94194 0.08400
Br	Br	0.91944 0.88737 0.54063 -0.18400
C 	C 	0.89287 0.84748 0.99557 -0.02000
C 	C 	0.96191 0.02032 0.46834 0.05900
C 	C 	0.96315 0.92953 0.47039 0.06800
H 	H 	0.87846 0.92587 0.46949 0.07900
Br	Br	0.90516 0.88938 0.06797 -0.18600
H 	H 	0.05536 0.94838 0.47178 0.07900
C 	C 	0.93182 0.91498 0.99316 0.07900
C 	C 	0.92942 0.95558 0.46929 -0.06400
H 	H 	0.01859 0.92328 0.99289 0.09000
H 	H 	0.85322 0.92095 0.99265 0.08300
C 	C 	0.02910 0.96823 0.47050 -0.06400
C 	C 	0.90322 0.94580 0.99070 -0.06800
C 	C 	0.99634 0.94703 0.99063 -0.07700
Br	Br	0.04700 0.95085 0.91498 -0.20000
H 	H 	0.86453 0.99287 0.42063 0.08300
Br	Br	0.68807 0.97357 0.98298 -0.18200
