data_crystal

_cell_length_a 26.21444
_cell_length_b 26.46449
_cell_length_c 26.56521
_cell_angle_alpha 95.48715
_cell_angle_beta  95.48552
_cell_angle_gamma 125.82640

_symmetry_space_group_name_	'P 1'
_symmetry_space_group_name_H-M	'P 1'

loop_
_symmetry_equiv_pos_as_xyz
  x,y,z

loop_
_atom_site_label
_atom_site_type_symbol
_atom_site_fract_x
_atom_site_fract_y
_atom_site_fract_z
_atom_site_charge
C 	C 	0.96740 0.03016 0.98852 0.13200
C 	C 	0.03294 0.06597 0.98664 -0.09200
C 	C 	0.06244 0.03590 0.98164 0.12900
C 	C 	0.02637 0.97009 0.97849 -0.09000
C 	C 	0.96108 0.93431 0.98077 0.14100
C 	C 	0.93158 0.96433 0.98556 -0.10000
H 	H 	0.06087 0.11694 0.98936 0.11600
H 	H 	0.04917 0.94684 0.97462 0.11700
H 	H 	0.88099 0.93662 0.98716 0.09900
C 	C 	0.93789 0.00258 0.45296 0.12700
C 	C 	0.00422 0.03751 0.45549 -0.09600
C 	C 	0.03402 0.00775 0.45980 0.11800
C 	C 	0.99747 0.94300 0.46187 -0.06600
C 	C 	0.93111 0.90776 0.45907 0.13200
C 	C 	0.90123 0.93753 0.45448 -0.08500
H 	H 	0.03250 0.08766 0.45400 0.10000
H 	H 	0.02054 0.91999 0.46538 0.11500
H 	H 	0.84990 0.91038 0.45238 0.10600
Cu	Cu	0.63760 0.24068 0.00347 0.94000
Cu	Cu	0.68357 0.23850 0.89350 0.89400
Cu	Cu	0.67866 0.34226 0.93766 0.90700
Cu	Cu	0.65469 0.36673 0.04183 0.92500
C 	C 	0.66264 0.28897 0.11144 0.39800
O 	O 	0.54745 0.21330 0.00482 -0.31900
C 	C 	0.65791 0.30054 0.82474 0.38900
O 	O 	0.69748 0.33980 0.00868 -0.63400
O 	O 	0.62900 0.24831 0.93044 -0.63700
O 	O 	0.66918 0.18814 0.99766 -0.31500
O 	O 	0.74209 0.25117 0.95016 -0.41900
O 	O 	0.63826 0.31892 0.09939 -0.34000
O 	O 	0.73160 0.43382 0.94877 -0.35000
C 	C 	0.72573 0.47036 0.98130 0.34300
C 	C 	0.52797 0.24544 0.98739 0.32300
O 	O 	0.57024 0.30434 0.98210 -0.34200
O 	O 	0.70254 0.45289 0.02370 -0.31900
O 	O 	0.66014 0.24856 0.07614 -0.32000
C 	C 	0.72260 0.20962 0.98068 0.34300
O 	O 	0.67083 0.34439 0.86331 -0.33500
O 	O 	0.64632 0.24655 0.83252 -0.37400
H 	H 	0.74365 0.36372 0.02313 0.20000
H 	H 	0.58450 0.22455 0.91134 0.20100
Cu	Cu	0.73586 0.33893 0.43555 0.93800
Cu	Cu	0.73991 0.29549 0.54630 0.89400
Cu	Cu	0.63403 0.29862 0.50217 0.90900
Cu	Cu	0.60784 0.32106 0.39801 0.92500
C 	C 	0.68497 0.31174 0.32773 0.39600
O 	O 	0.76337 0.42824 0.43345 -0.32400
C 	C 	0.67753 0.32100 0.61508 0.38800
O 	O 	0.63584 0.27937 0.43116 -0.63700
O 	O 	0.72891 0.34849 0.50874 -0.63500
O 	O 	0.78860 0.30713 0.44127 -0.31100
O 	O 	0.72583 0.23633 0.49006 -0.41700
O 	O 	0.65469 0.33589 0.33965 -0.34000
O 	O 	0.54159 0.24511 0.49173 -0.34900
C 	C 	0.50354 0.24919 0.45888 0.34900
C 	C 	0.73060 0.44746 0.45032 0.32800
O 	O 	0.67174 0.40551 0.45681 -0.33900
O 	O 	0.52157 0.27485 0.41757 -0.32300
O 	O 	0.72700 0.31575 0.36286 -0.32000
C 	C 	0.76702 0.25460 0.45894 0.34000
O 	O 	0.63270 0.30737 0.57666 -0.33400
O 	O 	0.73222 0.33316 0.60703 -0.37300
H 	H 	0.61174 0.23358 0.41699 0.19800
H 	H 	0.75270 0.39273 0.52740 0.20200
C 	C 	0.60567 0.26457 0.73216 0.28300
C 	C 	0.65626 0.31217 0.77171 -0.19200
C 	C 	0.70922 0.36738 0.75935 0.27900
C 	C 	0.71414 0.37239 0.70779 0.28300
C 	C 	0.66602 0.32236 0.66822 -0.19100
C 	C 	0.61046 0.26971 0.68061 0.27800
F 	F 	0.56280 0.22176 0.64271 -0.37500
F 	F 	0.55279 0.21238 0.74368 -0.37000
F 	F 	0.76663 0.42497 0.69627 -0.36900
F 	F 	0.75768 0.41454 0.79725 -0.37400
C 	C 	0.73196 0.33706 0.19819 0.28100
C 	C 	0.67467 0.28631 0.16585 -0.18600
C 	C 	0.62494 0.23852 0.18725 0.29100
C 	C 	0.63036 0.24430 0.24075 0.28100
C 	C 	0.68575 0.29758 0.27315 -0.18600
C 	C 	0.73762 0.34255 0.25171 0.29000
F 	F 	0.79190 0.39371 0.28273 -0.35900
F 	F 	0.78086 0.38280 0.17780 -0.37900
F 	F 	0.58053 0.19976 0.26113 -0.38100
F 	F 	0.56982 0.18852 0.15622 -0.35900
C 	C 	0.86309 0.75458 0.50737 -0.11100
C 	C 	0.83615 0.71080 0.46087 0.00900
C 	C 	0.83603 0.73125 0.41399 0.31700
C 	C 	0.86428 0.79530 0.41365 -0.08700
C 	C 	0.89301 0.83940 0.46005 -0.06700
C 	C 	0.89153 0.81868 0.50700 0.34700
C 	C 	0.80890 0.64375 0.46124 0.02600
F 	F 	0.81001 0.68932 0.36875 -0.39600
H 	H 	0.86549 0.81099 0.37728 0.12200
F 	F 	0.91900 0.86093 0.55215 -0.40000
H 	H 	0.86277 0.73906 0.54371 0.14100
C 	C 	0.84932 0.62640 0.47360 0.30200
C 	C 	0.82353 0.56241 0.47116 -0.04700
C 	C 	0.75718 0.51518 0.45621 -0.12300
C 	C 	0.71669 0.53284 0.44455 0.38000
C 	C 	0.74257 0.59683 0.44735 -0.12800
F 	F 	0.91366 0.67144 0.48704 -0.39200
H 	H 	0.85517 0.54952 0.48054 0.11600
F 	F 	0.65261 0.48797 0.42874 -0.41500
H 	H 	0.71111 0.60990 0.43781 0.14300
C 	C 	0.88902 0.10776 0.48979 -0.12400
C 	C 	0.86004 0.10587 0.44171 0.00600
C 	C 	0.85388 0.06747 0.39765 0.32600
C 	C 	0.87737 0.03193 0.40168 -0.09200
C 	C 	0.90724 0.03464 0.44965 -0.07100
C 	C 	0.91255 0.07232 0.49378 0.34400
C 	C 	0.83542 0.14351 0.43789 0.02600
F 	F 	0.82591 0.06525 0.35093 -0.38900
H 	H 	0.87342 0.00321 0.36742 0.11700
F 	F 	0.94128 0.07521 0.54041 -0.41100
H 	H 	0.89345 0.13686 0.52401 0.12600
C 	C 	0.76942 0.11375 0.43221 0.30500
C 	C 	0.74682 0.15024 0.43570 -0.05100
C 	C 	0.78995 0.21679 0.44515 -0.13500
C 	C 	0.85577 0.24644 0.44797 0.37900
C 	C 	0.87832 0.20984 0.44440 -0.14100
F 	F 	0.72739 0.04958 0.42540 -0.39200
H 	H 	0.69591 0.12686 0.43275 0.11000
F 	F 	0.89816 0.31069 0.45697 -0.41300
H 	H 	0.92931 0.23311 0.44837 0.13500
C 	C 	0.19309 0.06614 0.42296 -0.11100
C 	C 	0.23604 0.11322 0.46599 0.00600
C 	C 	0.21259 0.12592 0.50689 0.32200
C 	C 	0.14656 0.09153 0.50474 -0.09200
C 	C 	0.10357 0.04433 0.46172 -0.06200
C 	C 	0.12709 0.03184 0.42073 0.33100
C 	C 	0.30548 0.14976 0.46773 0.02800
F 	F 	0.25381 0.17139 0.54872 -0.39400
H 	H 	0.12874 0.10134 0.53653 0.12700
F 	F 	0.08596 0.98685 0.37863 -0.40300
H 	H 	0.21093 0.05637 0.39117 0.13200
C 	C 	0.33713 0.12305 0.47975 0.30300
C 	C 	0.40227 0.15628 0.47813 -0.04500
C 	C 	0.43620 0.21634 0.46428 -0.12400
C 	C 	0.40478 0.24371 0.45359 0.38200
C 	C 	0.33966 0.21043 0.45526 -0.13300
F 	F 	0.30453 0.06455 0.49232 -0.39100
H 	H 	0.42601 0.13475 0.48650 0.11900
F 	F 	0.43740 0.30261 0.44179 -0.40600
H 	H 	0.31556 0.23147 0.44632 0.14000
C 	C 	0.90228 0.77689 0.01768 -0.11000
C 	C 	0.85548 0.73432 0.97430 0.00400
C 	C 	0.84250 0.75746 0.93342 0.32000
C 	C 	0.87664 0.82286 0.93581 -0.08500
C 	C 	0.92386 0.86547 0.97903 -0.07800
C 	C 	0.93633 0.84223 0.02013 0.35200
C 	C 	0.82006 0.66561 0.97192 0.02900
F 	F 	0.79719 0.71659 0.89131 -0.39400
H 	H 	0.86680 0.84046 0.90395 0.12300
F 	F 	0.98129 0.88301 0.06244 -0.41000
H 	H 	0.91222 0.75926 0.04947 0.13600
C 	C 	0.84823 0.63577 0.95879 0.30300
C 	C 	0.81654 0.57148 0.96043 -0.04500
C 	C 	0.75656 0.53658 0.97540 -0.12300
C 	C 	0.72758 0.56611 0.98700 0.38100
C 	C 	0.75933 0.63039 0.98531 -0.13300
F 	F 	0.90678 0.66939 0.94531 -0.38900
H 	H 	0.83929 0.54920 0.95133 0.12100
F 	F 	0.66868 0.53249 0.99986 -0.40800
H 	H 	0.73716 0.65310 0.99509 0.13900
C 	C 	0.76477 0.09720 0.99603 -0.14300
C 	C 	0.83181 0.13888 0.00307 0.03300
C 	C 	0.86287 0.20442 0.00848 0.29400
C 	C 	0.82699 0.22776 0.00413 -0.04000
C 	C 	0.75977 0.18586 0.99429 -0.14500
C 	C 	0.72877 0.12050 0.99169 0.38200
C 	C 	0.86892 0.11350 0.00043 0.01300
F 	F 	0.92779 0.24530 0.01653 -0.39400
H 	H 	0.85137 0.27832 0.00704 0.11000
F 	F 	0.66384 0.07929 0.98222 -0.41600
H 	H 	0.74051 0.04657 0.99218 0.13900
C 	C 	0.87853 0.08874 0.04167 0.31400
C 	C 	0.91204 0.06287 0.03818 -0.08200
C 	C 	0.93607 0.06147 0.99347 -0.07900
C 	C 	0.92716 0.08700 0.95251 0.34700
C 	C 	0.89375 0.11293 0.95605 -0.12300
F 	F 	0.85518 0.08954 0.08496 -0.39500
H 	H 	0.91883 0.04336 0.06998 0.11500
F 	F 	0.94962 0.08536 0.90887 -0.40600
H 	H 	0.88645 0.13192 0.92406 0.13100
C 	C 	0.21951 0.12541 0.93466 -0.11600
C 	C 	0.26124 0.13345 0.97724 0.00200
C 	C 	0.23827 0.11269 0.02226 0.32700
C 	C 	0.17367 0.08277 0.02419 -0.08600
C 	C 	0.13155 0.07339 0.98123 -0.07300
C 	C 	0.15481 0.09545 0.93659 0.34600
C 	C 	0.32882 0.16300 0.97459 0.02800
F 	F 	0.27844 0.12079 0.06383 -0.39300
H 	H 	0.15603 0.06586 0.05875 0.12300
F 	F 	0.11444 0.08649 0.89474 -0.40200
H 	H 	0.23705 0.14168 0.89991 0.13500
C 	C 	0.34787 0.12519 0.95889 0.30600
C 	C 	0.41287 0.15259 0.96142 -0.04800
C 	C 	0.45935 0.21796 0.97969 -0.12200
C 	C 	0.43993 0.25607 0.99391 0.37800
C 	C 	0.37491 0.22856 0.99120 -0.13900
F 	F 	0.30348 0.06170 0.94230 -0.39200
H 	H 	0.42718 0.12288 0.94987 0.11400
F 	F 	0.48410 0.31919 0.01247 -0.41200
H 	H 	0.36044 0.25796 0.00335 0.14300
