data_crystal

_cell_length_a 24.45972
_cell_length_b 24.66795
_cell_length_c 26.46186
_cell_angle_alpha 95.47527
_cell_angle_beta  95.47314
_cell_angle_gamma 125.81703

_symmetry_space_group_name_	'P 1'
_symmetry_space_group_name_H-M	'P 1'

loop_
_symmetry_equiv_pos_as_xyz
  x,y,z

loop_
_atom_site_label
_atom_site_type_symbol
_atom_site_fract_x
_atom_site_fract_y
_atom_site_fract_z
_atom_site_charge
C 	C 	0.06365 0.03038 0.00267 0.10600
C 	C 	0.04752 0.03555 0.47192 0.10200
H 	H 	0.73433 0.01765 0.45456 0.08100
C 	C 	0.12271 0.08461 0.48140 0.11100
C 	C 	0.16567 0.07280 0.50696 -0.08200
H 	H 	0.28495 0.08118 0.52112 0.09700
O 	O 	0.17584 0.05413 0.03505 -0.18700
C 	C 	0.77748 0.05714 0.43949 -0.09000
H 	H 	0.28110 0.04357 0.03860 0.09600
H 	H 	0.75309 0.02084 0.01596 0.07900
C 	C 	0.81963 0.04508 0.41623 0.03400
N 	N 	0.02863 0.05652 0.99303 -0.12400
O 	O 	0.74476 0.13391 0.44862 -0.18000
C 	C 	0.28053 0.11199 0.49697 -0.07900
C 	C 	0.22843 0.12011 0.49806 0.03500
O 	O 	0.15553 0.13957 0.45569 -0.18800
H 	H 	0.70558 0.09603 0.01041 0.07600
C 	C 	0.23676 0.09445 0.01726 0.13100
C 	C 	0.28132 0.07657 0.01425 -0.07400
C 	C 	0.13882 0.07370 0.00994 0.11100
C 	C 	0.79254 0.12167 0.44221 0.12400
C 	C 	0.79716 0.06527 0.00546 -0.07200
C 	C 	0.22182 0.15861 0.46696 0.12000
C 	C 	0.32836 0.14697 0.46524 0.12700
O 	O 	0.39451 0.16540 0.47555 -0.15000
C 	C 	0.23735 0.13636 0.98602 0.02300
C 	C 	0.32374 0.09974 0.97730 0.02500
C 	C 	0.17507 0.12291 0.98066 -0.08500
H 	H 	0.40616 0.10034 0.01414 0.11200
C 	C 	0.75983 0.13719 0.01502 -0.04900
C 	C 	0.80916 0.12868 0.01498 0.01200
C 	C 	0.84522 0.06147 0.98389 0.10900
F 	F 	0.50427 0.11958 0.18497 -0.44100
H 	H 	0.14936 0.02443 0.51689 0.08100
C 	C 	0.38493 0.11130 0.98232 -0.06200
O 	O 	0.85410 0.01193 0.99130 -0.19500
C 	C 	0.87617 0.09595 0.39851 0.11700
C 	C 	0.88996 0.16005 0.40027 -0.07500
F 	F 	0.49804 0.16786 0.65720 -0.44000
F 	F 	0.55394 0.13181 0.11598 -0.43500
C 	C 	0.32109 0.18449 0.43364 0.01900
H 	H 	0.15180 0.13051 0.94783 0.07200
H 	H 	0.00415 0.14914 0.97474 0.07800
C 	C 	0.84839 0.17196 0.42432 0.01200
C 	C 	0.89735 0.02790 0.41874 0.11000
F 	F 	0.57055 0.18841 0.60317 -0.46500
C 	C 	0.26987 0.19369 0.43536 -0.07700
C 	C 	0.54082 0.16446 0.15279 0.77900
O 	O 	0.92752 0.08750 0.39828 -0.19000
C 	C 	0.90088 0.11825 0.97038 0.03500
C 	C 	0.77757 0.19670 0.43242 0.05100
O 	O 	0.52965 0.18009 0.98622 -0.31900
O 	O 	0.68064 0.18741 0.99447 -0.34000
H 	H 	0.58168 0.20781 0.25759 0.07000
F 	F 	0.50041 0.18017 0.12857 -0.44500
C 	C 	0.32653 0.14403 0.94763 0.12200
C 	C 	0.28077 0.16072 0.94966 -0.08300
C 	C 	0.42370 0.16288 0.95563 0.06200
C 	C 	0.78608 0.19896 0.00021 0.06000
C 	C 	0.86380 0.18505 0.00010 0.13700
C 	C 	0.91277 0.18165 0.97954 -0.10000
H 	H 	0.93372 0.20014 0.38609 0.08200
C 	C 	0.92116 0.04540 0.98239 0.10800
C 	C 	0.83824 0.21845 0.41607 -0.05000
C 	C 	0.42602 0.21797 0.44742 0.06000
H 	H 	0.26545 0.22439 0.41108 0.08100
N 	N 	0.00847 0.05293 0.45052 -0.10100
O 	O 	0.38916 0.18599 0.93206 -0.17900
H 	H 	0.28105 0.19379 0.92537 0.08000
C 	C 	0.49897 0.20449 0.96589 0.25200
C 	C 	0.74218 0.21878 0.98307 0.25000
H 	H 	0.58594 0.21108 0.89782 0.18900
O 	O 	0.71665 0.22735 0.47841 -0.39300
C 	C 	0.55011 0.21819 0.63552 0.78000
C 	C 	0.38286 0.22977 0.42235 -0.05200
C 	C 	0.93899 0.00801 0.44140 0.09400
C 	C 	0.94963 0.10883 0.96989 -0.09500
H 	H 	0.56680 0.22675 0.74050 0.07900
C 	C 	0.95965 0.01752 0.99159 0.09400
H 	H 	0.95674 0.22598 0.96887 0.08100
Cu	Cu	0.63229 0.22989 0.99417 0.93300
C 	C 	0.60780 0.22928 0.18253 -0.09100
O 	O 	0.85276 0.23264 0.99027 -0.18800
C 	C 	0.83296 0.00208 0.42928 -0.09500
C 	C 	0.76011 0.24305 0.44708 0.25400
H 	H 	0.60557 0.24304 0.41035 0.18300
F 	F 	0.52370 0.24453 0.60672 -0.43300
O 	O 	0.63107 0.24161 0.92138 -0.63900
O 	O 	0.64771 0.23686 0.06758 -0.30500
C 	C 	0.62053 0.24262 0.23689 0.04700
Cu	Cu	0.70644 0.25192 0.89327 0.88300
O 	O 	0.67213 0.25930 0.82800 -0.38200
C 	C 	0.50066 0.26282 0.45077 0.26100
O 	O 	0.53999 0.26460 0.48974 -0.30600
O 	O 	0.76374 0.26640 0.95507 -0.39100
C 	C 	0.60995 0.27106 0.72907 0.05400
H 	H 	0.87715 0.26946 0.41039 0.07800
O 	O 	0.53521 0.26882 0.96190 -0.35200
C 	C 	0.61099 0.27486 0.67642 -0.09900
C 	C 	0.63947 0.27416 0.10055 0.28800
H 	H 	0.39931 0.27749 0.41095 0.07100
C 	C 	0.65668 0.27828 0.15622 0.00600
N 	N 	0.02963 0.96541 0.01046 -0.09600
Cu	Cu	0.66953 0.33974 0.93037 0.90500
Cu	Cu	0.61509 0.34464 0.02648 0.90400
C 	C 	0.66973 0.31005 0.82024 0.30000
O 	O 	0.67934 0.33469 0.00199 -0.63800
O 	O 	0.60327 0.29557 0.08520 -0.33200
O 	O 	0.71288 0.43644 0.94338 -0.32000
C 	C 	0.70328 0.46750 0.98105 0.25000
O 	O 	0.65030 0.43317 0.00435 -0.34400
O 	O 	0.65793 0.34098 0.85638 -0.32200
H 	H 	0.72693 0.36668 0.02172 0.17800
Cu	Cu	0.74231 0.34557 0.42763 0.93500
Cu	Cu	0.73920 0.29221 0.53684 0.88600
Cu	Cu	0.63835 0.31385 0.49743 0.90800
Cu	Cu	0.61479 0.34513 0.39456 0.90400
C 	C 	0.68624 0.32180 0.32031 0.29000
O 	O 	0.78397 0.44514 0.42718 -0.30500
C 	C 	0.68143 0.32890 0.60872 0.29700
O 	O 	0.63614 0.29230 0.42530 -0.63800
O 	O 	0.73824 0.35730 0.50186 -0.63600
O 	O 	0.78862 0.30054 0.42997 -0.33400
O 	O 	0.66033 0.35404 0.33395 -0.33800
C 	C 	0.75492 0.47253 0.44444 0.25200
O 	O 	0.69203 0.43322 0.45290 -0.35800
O 	O 	0.52688 0.30747 0.41968 -0.36500
O 	O 	0.72818 0.31990 0.35417 -0.30200
O 	O 	0.64341 0.33271 0.57229 -0.31600
O 	O 	0.73628 0.33394 0.60003 -0.38500
H 	H 	0.76848 0.40466 0.52144 0.18600
C 	C 	0.72266 0.38586 0.70061 0.05400
C 	C 	0.66976 0.33131 0.66223 0.00300
C 	C 	0.66591 0.32264 0.76721 0.00300
C 	C 	0.72128 0.38230 0.75327 -0.09700
C 	C 	0.77992 0.44101 0.79437 0.77800
H 	H 	0.76635 0.42971 0.68921 0.08100
F 	F 	0.75462 0.46404 0.82790 -0.43700
C 	C 	0.68166 0.30261 0.26487 0.00600
C 	C 	0.73334 0.34827 0.23848 -0.09000
C 	C 	0.71992 0.33565 0.18411 0.04600
H 	H 	0.75754 0.37179 0.16333 0.07000
O 	O 	0.74594 0.56591 0.42961 -0.18100
C 	C 	0.78594 0.54415 0.44292 0.06400
O 	O 	0.71792 0.57564 0.00822 -0.17100
C 	C 	0.74460 0.54185 0.99064 0.06700
H 	H 	0.73751 0.69648 0.03099 0.08300
C 	C 	0.79774 0.63548 0.43825 0.13000
H 	H 	0.73449 0.67033 0.43293 0.08100
C 	C 	0.78477 0.68361 0.44672 -0.08700
F 	F 	0.82799 0.49521 0.77310 -0.44000
F 	F 	0.81273 0.41954 0.82186 -0.46300
F 	F 	0.83307 0.39241 0.30087 -0.43300
C 	C 	0.80188 0.41126 0.26820 0.77900
C 	C 	0.85527 0.59564 0.45802 -0.04200
C 	C 	0.77924 0.63951 0.02797 0.12300
C 	C 	0.78350 0.69905 0.03425 -0.08100
F 	F 	0.79185 0.45352 0.29708 -0.43800
C 	C 	0.86236 0.65341 0.45479 0.02000
H 	H 	0.81007 0.80838 0.44398 0.07300
H 	H 	0.81017 0.96986 0.45753 0.07800
H 	H 	0.89116 0.59215 0.48202 0.06900
F 	F 	0.84614 0.44783 0.23554 -0.44000
C 	C 	0.83790 0.74853 0.47526 0.03000
C 	C 	0.84567 0.80605 0.46961 -0.08200
C 	C 	0.83695 0.64304 0.02375 0.02700
C 	C 	0.81520 0.58225 0.99826 -0.05500
H 	H 	0.82199 0.82703 0.02070 0.08000
N 	N 	0.01694 0.97243 0.48331 -0.10700
C 	C 	0.84876 0.76167 0.04128 0.02900
C 	C 	0.86089 0.81975 0.03125 -0.08000
H 	H 	0.84637 0.56456 0.99504 0.07700
C 	C 	0.90252 0.76636 0.49224 0.12000
N 	N 	0.90843 0.94472 0.45267 -0.12100
C 	C 	0.91529 0.71794 0.48396 -0.07700
C 	C 	0.91519 0.85762 0.48406 0.10500
C 	C 	0.90585 0.76490 0.03443 0.12400
C 	C 	0.90014 0.70488 0.02326 -0.07600
N 	N 	0.92610 0.95265 0.99987 -0.11400
C 	C 	0.92551 0.85686 0.01904 0.11000
C 	C 	0.94750 0.92669 0.47327 0.10200
H 	H 	0.94189 0.70607 0.01126 0.09100
O 	O 	0.95455 0.83582 0.49956 -0.19100
H 	H 	0.96561 0.73119 0.49753 0.08300
O 	O 	0.95770 0.82522 0.02095 -0.18400
C 	C 	0.96104 0.92648 0.00910 0.10900
