data_crystal

_cell_length_a 33.67152
_cell_length_b 33.94186
_cell_length_c 23.20763
_cell_angle_alpha 95.54574
_cell_angle_beta  95.52909
_cell_angle_gamma 125.46739

_symmetry_space_group_name_	'P 1'
_symmetry_space_group_name_H-M	'P 1'

loop_
_symmetry_equiv_pos_as_xyz
  x,y,z

loop_
_atom_site_label
_atom_site_type_symbol
_atom_site_fract_x
_atom_site_fract_y
_atom_site_fract_z
_atom_site_charge
C 	C 	0.04833 0.02814 0.96182 0.01800
C 	C 	0.02698 0.05292 0.97129 -0.06500
H 	H 	0.04842 0.09211 0.97129 0.04900
C 	C 	0.00196 0.02983 0.43392 -0.07800
C 	C 	0.02700 0.00857 0.44160 0.03100
H 	H 	0.02206 0.06761 0.42734 0.05000
O 	O 	0.57974 0.23223 0.99453 -0.35500
C 	C 	0.55888 0.24881 0.96464 0.28400
O 	O 	0.58655 0.29370 0.95390 -0.38700
H 	H 	0.61961 0.24358 0.89451 0.17300
O 	O 	0.57654 0.26480 0.49305 -0.38200
C 	C 	0.54870 0.27115 0.45685 0.28900
O 	O 	0.56867 0.30888 0.42915 -0.39500
C 	C 	0.08073 0.03768 0.44190 -0.00500
C 	C 	0.11440 0.07821 0.48733 -0.03600
C 	C 	0.16548 0.10377 0.48986 -0.04300
C 	C 	0.18327 0.08899 0.44695 0.00700
C 	C 	0.14960 0.04899 0.40094 -0.04400
C 	C 	0.09853 0.02344 0.39843 -0.03500
C 	C 	0.23712 0.11503 0.45050 0.00600
C 	C 	0.26728 0.16471 0.44513 -0.04300
C 	C 	0.31815 0.18909 0.44718 -0.03700
C 	C 	0.33925 0.16396 0.45453 -0.00200
C 	C 	0.30920 0.11443 0.46056 -0.03700
C 	C 	0.25832 0.09006 0.45858 -0.04200
C 	C 	0.39254 0.18917 0.45435 0.02700
C 	C 	0.42453 0.19734 0.50507 -0.06700
C 	C 	0.47542 0.22310 0.50561 0.01500
C 	C 	0.49472 0.24098 0.45536 -0.08800
C 	C 	0.46243 0.23174 0.40423 0.01300
C 	C 	0.41162 0.20598 0.40375 -0.06800
H 	H 	0.10097 0.08936 0.52118 0.03700
H 	H 	0.19122 0.13463 0.52552 0.03900
H 	H 	0.16301 0.03760 0.36734 0.03800
H 	H 	0.25122 0.18427 0.43887 0.03800
H 	H 	0.34113 0.22741 0.44276 0.03700
H 	H 	0.32517 0.09473 0.46619 0.03700
H 	H 	0.23535 0.05177 0.46310 0.03800
H 	H 	0.41008 0.18443 0.54433 0.04600
H 	H 	0.49990 0.23009 0.54543 0.03800
H 	H 	0.47675 0.24474 0.36495 0.02400
H 	H 	0.38708 0.19934 0.36419 0.04400
C 	C 	0.10013 0.05531 0.95306 0.03100
C 	C 	0.13927 0.08808 0.00047 -0.09300
C 	C 	0.18837 0.10966 0.99403 0.01200
C 	C 	0.19870 0.09877 0.94003 -0.01600
C 	C 	0.15961 0.06728 0.89204 -0.02500
C 	C 	0.11052 0.04558 0.89856 -0.05500
C 	C 	0.25017 0.11840 0.93467 0.01800
C 	C 	0.28720 0.16945 0.94489 -0.04500
C 	C 	0.33653 0.18799 0.94374 -0.03500
C 	C 	0.34924 0.15565 0.93212 0.00000
C 	C 	0.31201 0.10461 0.92032 -0.03500
C 	C 	0.26270 0.08606 0.92172 -0.04500
C 	C 	0.40184 0.17519 0.93583 0.02300
C 	C 	0.42421 0.16371 0.97843 -0.05200
C 	C 	0.47510 0.18588 0.98590 0.02600
C 	C 	0.50423 0.22004 0.95104 -0.09200
C 	C 	0.48135 0.22980 0.90661 0.01200
C 	C 	0.43040 0.20750 0.89910 -0.06500
H 	H 	0.13158 0.09576 0.04270 0.04600
H 	H 	0.21827 0.13392 0.03135 0.01400
H 	H 	0.16723 0.05903 0.85003 0.03500
H 	H 	0.08051 0.02050 0.86164 0.04200
H 	H 	0.27784 0.19470 0.95451 0.04200
H 	H 	0.36502 0.22746 0.95302 0.03900
H 	H 	0.32139 0.07935 0.91099 0.03900
H 	H 	0.23440 0.04659 0.91381 0.04100
H 	H 	0.40244 0.13869 0.00689 0.03100
H 	H 	0.49213 0.17784 0.02023 0.02400
H 	H 	0.50315 0.25534 0.87865 0.03200
H 	H 	0.41330 0.21602 0.86549 0.04500
O 	O 	0.63399 0.32388 0.09693 -0.38600
Cu	Cu	0.63086 0.33882 0.39647 0.89300
H 	H 	0.62327 0.26181 0.39450 0.16300
H 	H 	0.00622 0.10128 0.06929 0.04000
Cu	Cu	0.65392 0.26585 0.00567 0.92100
C 	C 	0.65893 0.30897 0.12151 0.28000
O 	O 	0.65279 0.26632 0.92014 -0.63500
Cu	Cu	0.64784 0.30095 0.50079 0.89600
O 	O 	0.64572 0.29590 0.41736 -0.63900
O 	O 	0.66165 0.35191 0.32473 -0.38300
O 	O 	0.64898 0.29485 0.58486 -0.38100
Cu	Cu	0.64446 0.35290 0.02404 0.88700
O 	O 	0.66475 0.27860 0.09023 -0.35700
O 	O 	0.67607 0.26104 0.81409 -0.41800
C 	C 	0.66752 0.31490 0.18457 -0.04400
C 	C 	0.67342 0.32087 0.23762 -0.04300
O 	O 	0.67139 0.41359 0.98975 -0.38600
Cu	Cu	0.68347 0.33750 0.91961 0.89900
C 	C 	0.67958 0.29862 0.79697 0.28200
C 	C 	0.67893 0.32923 0.30062 0.28000
C 	C 	0.68259 0.30462 0.68471 -0.05000
C 	C 	0.68040 0.30250 0.73599 -0.05000
H 	H 	0.68306 0.16017 0.38608 0.02700
O 	O 	0.68982 0.34099 0.00326 -0.64800
O 	O 	0.68863 0.23464 0.01706 -0.37200
O 	O 	0.68881 0.33577 0.83532 -0.38100
C 	C 	0.68690 0.30566 0.62386 0.28200
O 	O 	0.68827 0.39629 0.46805 -0.39300
H 	H 	0.69037 0.47301 0.47299 0.02700
H 	H 	0.69637 0.16123 0.01871 0.02800
Cu	Cu	0.70359 0.26418 0.89146 0.87100
O 	O 	0.70645 0.24384 0.45699 -0.44400
C 	C 	0.70897 0.43440 0.96131 0.28600
O 	O 	0.71092 0.32549 0.33244 -0.35400
H 	H 	0.07279 0.99231 0.36305 0.03500
C 	C 	0.02044 0.97740 0.96136 -0.06700
H 	H 	0.03695 0.95824 0.95409 0.05000
C 	C 	0.00095 0.95967 0.44975 -0.07700
H 	H 	0.02033 0.94320 0.45553 0.05000
H 	H 	0.71601 0.11178 0.37504 0.04400
O 	O 	0.71678 0.40767 0.92569 -0.37800
C 	C 	0.97773 0.02696 0.98011 0.02100
C 	C 	0.95095 0.00233 0.43464 0.03200
O 	O 	0.74640 0.28367 0.96436 -0.42700
C 	C 	0.73215 0.25375 0.00213 0.27400
Cu	Cu	0.72229 0.33513 0.41699 0.92700
Cu	Cu	0.72466 0.28534 0.53023 0.86900
O 	O 	0.72039 0.33468 0.50204 -0.64000
O 	O 	0.75602 0.30289 0.40619 -0.37200
C 	C 	0.73686 0.25921 0.41949 0.29000
O 	O 	0.72587 0.31098 0.60752 -0.41800
C 	C 	0.75500 0.23073 0.39978 -0.09700
C 	C 	0.80593 0.25462 0.40084 0.01300
C 	C 	0.82463 0.22714 0.39494 -0.06900
C 	C 	0.79251 0.17559 0.38751 0.02600
C 	C 	0.74121 0.15161 0.38193 -0.07000
C 	C 	0.72255 0.17904 0.38812 0.01500
C 	C 	0.81292 0.14724 0.39198 -0.00300
C 	C 	0.84074 0.14691 0.35087 -0.03700
C 	C 	0.86165 0.12159 0.35670 -0.04300
C 	C 	0.85492 0.09647 0.40372 0.00600
C 	C 	0.82652 0.09625 0.44429 -0.04300
C 	C 	0.80569 0.12157 0.43851 -0.03700
C 	C 	0.87912 0.07196 0.41179 0.00700
C 	C 	0.91560 0.08878 0.46189 -0.04300
C 	C 	0.93841 0.06550 0.46981 -0.03600
C 	C 	0.92501 0.02523 0.42766 -0.00500
C 	C 	0.88827 0.00815 0.37774 -0.03500
C 	C 	0.86543 0.03146 0.36981 -0.04400
H 	H 	0.83134 0.29448 0.40939 0.02800
H 	H 	0.86427 0.24600 0.39876 0.04400
H 	H 	0.84640 0.16648 0.31470 0.03700
H 	H 	0.88359 0.12203 0.32520 0.03800
H 	H 	0.82098 0.07682 0.48058 0.03800
H 	H 	0.78444 0.12177 0.47060 0.03400
H 	H 	0.92642 0.12002 0.49452 0.03800
H 	H 	0.96670 0.07890 0.50851 0.03600
H 	H 	0.83712 0.01805 0.33115 0.03800
C 	C 	0.76093 0.23522 0.01936 -0.09600
C 	C 	0.73636 0.18529 0.02278 0.01100
C 	C 	0.76304 0.16561 0.02775 -0.07200
C 	C 	0.81451 0.19574 0.02975 0.02900
C 	C 	0.83950 0.24629 0.03045 -0.07300
C 	C 	0.81283 0.26593 0.02520 0.01100
C 	C 	0.84135 0.17361 0.02528 -0.02000
C 	C 	0.84284 0.14803 0.06848 -0.03300
C 	C 	0.86615 0.12500 0.06248 -0.04600
C 	C 	0.88817 0.12742 0.01326 -0.00100
C 	C 	0.88737 0.15369 0.97062 -0.03300
C 	C 	0.86399 0.17658 0.97652 -0.02000
C 	C 	0.91072 0.10122 0.00539 -0.01700
C 	C 	0.89122 0.06319 0.95660 -0.01600
C 	C 	0.91322 0.03912 0.94826 -0.05200
C 	C 	0.95484 0.05275 0.98872 0.02400
C 	C 	0.97425 0.09065 0.03766 -0.06600
C 	C 	0.95227 0.11481 0.04595 -0.02900
H 	H 	0.74343 0.12660 0.02762 0.04300
H 	H 	0.87936 0.27004 0.03309 0.04200
H 	H 	0.83234 0.30471 0.02380 0.02500
H 	H 	0.82563 0.14567 0.10638 0.03600
H 	H 	0.86655 0.10478 0.09563 0.03800
H 	H 	0.90450 0.15599 0.93265 0.03800
H 	H 	0.86286 0.19606 0.94281 0.03400
H 	H 	0.85906 0.05234 0.92515 0.03400
H 	H 	0.96769 0.14423 0.08364 0.03300
H 	H 	0.72423 0.36473 0.02560 0.16100
H 	H 	0.89803 0.00997 0.91030 0.04100
H 	H 	0.74193 0.36741 0.52828 0.17300
O 	O 	0.75309 0.40828 0.42939 -0.36200
C 	C 	0.73340 0.42633 0.45796 0.28300
C 	C 	0.75825 0.48003 0.46956 -0.08900
C 	C 	0.73000 0.49808 0.47452 0.01200
C 	C 	0.73726 0.48770 0.96154 -0.07100
H 	H 	0.74942 0.48235 0.87206 0.04000
C 	C 	0.80963 0.51326 0.47175 0.01400
H 	H 	0.83205 0.50003 0.46897 0.03200
C 	C 	0.75546 0.50664 0.91126 0.01200
H 	H 	0.73181 0.50573 0.05106 0.02500
C 	C 	0.74513 0.51974 0.01178 -0.00300
C 	C 	0.75242 0.54839 0.47907 -0.06700
C 	C 	0.78064 0.55694 0.91105 -0.06800
H 	H 	0.72993 0.56161 0.48099 0.04400
C 	C 	0.83209 0.56370 0.47664 -0.06700
C 	C 	0.95004 0.97618 0.97979 -0.06800
C 	C 	0.97136 0.95138 0.97042 0.02400
H 	H 	0.91212 0.95610 0.98704 0.04900
C 	C 	0.95001 0.93202 0.45075 0.03100
C 	C 	0.92497 0.95336 0.44299 -0.07800
H 	H 	0.88564 0.93217 0.44406 0.04900
C 	C 	0.92307 0.88066 0.45984 -0.00500
C 	C 	0.93856 0.87017 0.51074 -0.03600
C 	C 	0.91788 0.82141 0.51577 -0.04300
C 	C 	0.88115 0.78264 0.47021 0.00700
C 	C 	0.86403 0.79302 0.42051 -0.04300
C 	C 	0.88502 0.84184 0.41527 -0.03600
C 	C 	0.86225 0.73140 0.47334 0.00600
C 	C 	0.86687 0.70373 0.42917 -0.04200
C 	C 	0.84867 0.65513 0.43180 -0.03700
C 	C 	0.82606 0.63385 0.47890 -0.00200
C 	C 	0.82234 0.66185 0.52370 -0.03700
C 	C 	0.84015 0.71033 0.52080 -0.04200
C 	C 	0.80339 0.58135 0.47924 0.02700
H 	H 	0.96759 0.89988 0.54564 0.03700
H 	H 	0.93123 0.81382 0.55441 0.03900
H 	H 	0.83518 0.76332 0.38548 0.03800
H 	H 	0.87273 0.84952 0.37587 0.03500
H 	H 	0.88440 0.71983 0.39272 0.03800
H 	H 	0.85147 0.63377 0.39681 0.03700
H 	H 	0.80514 0.64585 0.56037 0.03700
H 	H 	0.83648 0.73139 0.55517 0.03800
H 	H 	0.87162 0.58895 0.47754 0.04500
H 	H 	0.87780 0.97720 0.34487 0.03500
C 	C 	0.78793 0.58876 0.96108 0.04200
C 	C 	0.77034 0.57000 0.01153 -0.08200
C 	C 	0.81370 0.64166 0.96056 -0.00400
C 	C 	0.86359 0.67107 0.95424 -0.03500
C 	C 	0.88843 0.72150 0.95554 -0.04000
C 	C 	0.86361 0.74295 0.96329 0.00400
C 	C 	0.81360 0.71347 0.96905 -0.04000
C 	C 	0.78873 0.66302 0.96763 -0.03400
C 	C 	0.89021 0.79639 0.96617 0.02200
C 	C 	0.87494 0.81387 0.92343 -0.04400
C 	C 	0.90089 0.86453 0.92543 -0.03900
C 	C 	0.94233 0.89807 0.97015 0.01300
C 	C 	0.95717 0.88059 0.01334 -0.05200
C 	C 	0.93121 0.82997 0.01138 -0.05800
H 	H 	0.79404 0.57110 0.87186 0.04700
H 	H 	0.77622 0.59437 0.05054 0.04400
H 	H 	0.88319 0.65492 0.94886 0.03800
H 	H 	0.92697 0.74393 0.95073 0.04000
H 	H 	0.79416 0.72971 0.97510 0.04000
H 	H 	0.75015 0.64056 0.97227 0.04000
H 	H 	0.84335 0.78822 0.88834 0.04000
H 	H 	0.88925 0.87770 0.89182 0.03800
H 	H 	0.98899 0.90624 0.04818 0.03600
H 	H 	0.94301 0.81681 0.04485 0.03700
