data_crystal

_cell_length_a 28.78366
_cell_length_b 29.76884
_cell_length_c 26.94379
_cell_angle_alpha 61.07030
_cell_angle_beta  118.58474
_cell_angle_gamma 133.19113

_symmetry_space_group_name_	'P 1'
_symmetry_space_group_name_H-M	'P 1'

loop_
_symmetry_equiv_pos_as_xyz
  x,y,z

loop_
_atom_site_label
_atom_site_type_symbol
_atom_site_fract_x
_atom_site_fract_y
_atom_site_fract_z
_atom_site_charge
C 	C 	0.71507 0.31686 0.01691 0.05900
C 	C 	0.64864 0.27009 0.01894 -0.09600
C 	C 	0.61637 0.28222 0.03099 0.06600
C 	C 	0.64876 0.34296 0.03608 -0.09800
C 	C 	0.71364 0.39138 0.02997 0.06600
C 	C 	0.74706 0.37789 0.02130 -0.09800
H 	H 	0.62256 0.22400 0.01236 0.05700
H 	H 	0.62368 0.35230 0.04533 0.05700
C 	C 	0.74572 0.29857 0.57386 0.06200
C 	C 	0.78467 0.35995 0.58137 -0.10100
C 	C 	0.75579 0.38294 0.58219 0.06100
C 	C 	0.68816 0.34324 0.57808 -0.10000
C 	C 	0.64870 0.28238 0.56922 0.06300
C 	C 	0.67768 0.25998 0.56752 -0.10000
H 	H 	0.66654 0.35909 0.58320 0.05600
H 	H 	0.64765 0.21225 0.56254 0.05800
C 	C 	0.28230 0.64275 0.32594 0.06300
C 	C 	0.34752 0.68664 0.32031 -0.10000
C 	C 	0.37375 0.67009 0.30532 0.06200
C 	C 	0.33540 0.60865 0.29825 -0.09900
C 	C 	0.27070 0.56420 0.30498 0.06300
C 	C 	0.24425 0.58147 0.31866 -0.10000
H 	H 	0.37759 0.73349 0.32732 0.05300
H 	H 	0.35577 0.59558 0.28722 0.05600
H 	H 	0.19391 0.54760 0.32291 0.05600
C 	C 	0.29876 0.66728 0.80539 0.06100
C 	C 	0.36301 0.70442 0.79982 -0.10100
C 	C 	0.38039 0.68244 0.78067 0.06100
C 	C 	0.33298 0.62358 0.76607 -0.09900
C 	C 	0.26960 0.58451 0.77473 0.06200
C 	C 	0.25216 0.60704 0.79322 -0.10000
H 	H 	0.39931 0.75040 0.81020 0.05000
H 	H 	0.34533 0.60828 0.74794 0.05500
H 	H 	0.20296 0.57756 0.79892 0.05500
Co	Co	0.07305 0.96444 0.19227 1.17800
Co	Co	0.03357 0.01717 0.23739 1.19800
C 	C 	0.06507 0.84479 0.23439 0.33300
Co	Co	0.04611 0.89652 0.10589 1.17000
O 	O 	0.00880 0.12430 0.20861 -0.39000
C 	C 	0.07086 0.14524 0.23106 0.31500
O 	O 	0.10198 0.00653 0.25221 -0.44900
C 	C 	0.17842 0.01178 0.14358 0.36000
O 	O 	0.09114 0.11179 0.24113 -0.37700
O 	O 	0.14561 0.95221 0.14417 -0.44000
O 	O 	0.15856 0.02780 0.16317 -0.38700
O 	O 	0.00435 0.95987 0.31568 -0.37900
O 	O 	0.02668 0.93788 0.13119 -0.76100
O 	O 	0.03081 0.82899 0.18406 -0.39800
O 	O 	0.06355 0.88110 0.24783 -0.40800
O 	O 	0.05503 0.96557 0.02847 -0.39200
Co	Co	0.10250 0.99923 0.68590 1.17500
Co	Co	0.04688 0.03480 0.73286 1.19500
C 	C 	0.14713 0.91890 0.73582 0.34600
Co	Co	0.09028 0.93430 0.60852 1.16200
C 	C 	0.06174 0.15483 0.71555 0.33000
O 	O 	0.12540 0.04078 0.74316 -0.45600
C 	C 	0.19660 0.07112 0.60663 0.31400
O 	O 	0.09055 0.12966 0.72476 -0.38400
O 	O 	0.14984 0.03064 0.57318 -0.37600
O 	O 	0.18534 0.07042 0.64975 -0.37000
O 	O 	0.03076 0.98416 0.81661 -0.43200
O 	O 	0.05450 0.96181 0.63208 -0.76700
O 	O 	0.16226 0.94516 0.68534 -0.42900
O 	O 	0.11139 0.92673 0.74345 -0.41900
O 	O 	0.01989 0.91775 0.53006 -0.39600
C 	C 	0.02609 0.97915 0.90750 -0.09400
C 	C 	0.11825 0.30780 0.73082 0.00400
C 	C 	0.11417 0.35812 0.69153 -0.03500
C 	C 	0.15187 0.41474 0.70761 -0.04700
C 	C 	0.19259 0.42076 0.76391 0.02400
C 	C 	0.19535 0.36975 0.80355 -0.04800
C 	C 	0.15821 0.31348 0.78723 -0.03500
C 	C 	0.23877 0.48267 0.77928 -0.04100
C 	C 	0.22095 0.52033 0.76332 -0.06300
C 	C 	0.07717 0.24759 0.71410 0.01100
C 	C 	0.10349 0.22032 0.72151 -0.15000
H 	H 	0.08267 0.35380 0.64820 0.03900
H 	H 	0.15061 0.45429 0.67593 0.04200
H 	H 	0.22688 0.37397 0.84687 0.04100
H 	H 	0.16033 0.27425 0.81848 0.04200
H 	H 	0.28772 0.49691 0.80546 0.03800
H 	H 	0.17016 0.50329 0.74305 0.04600
H 	H 	0.02504 0.22537 0.69590 0.03800
H 	H 	0.15626 0.24494 0.73611 0.08000
C 	C 	0.54884 0.73652 0.78976 0.02400
C 	C 	0.59571 0.79787 0.79943 -0.05100
C 	C 	0.66050 0.83250 0.79753 -0.03600
C 	C 	0.67965 0.80596 0.78705 -0.00100
C 	C 	0.63309 0.74425 0.77823 -0.03400
C 	C 	0.56794 0.70990 0.77926 -0.05100
C 	C 	0.74981 0.84088 0.79141 0.01100
C 	C 	0.77051 0.84420 0.75110 -0.17300
C 	C 	0.48125 0.69739 0.79620 -0.04300
C 	C 	0.44801 0.72223 0.77419 -0.06400
H 	H 	0.58244 0.81807 0.81001 0.03600
H 	H 	0.69625 0.87959 0.80544 0.02900
H 	H 	0.64759 0.72218 0.77229 0.03700
H 	H 	0.53255 0.66214 0.77293 0.03900
H 	H 	0.78580 0.87032 0.82255 0.03100
H 	H 	0.73551 0.81143 0.72298 0.08100
H 	H 	0.45755 0.64706 0.81747 0.03800
H 	H 	0.47126 0.77242 0.75269 0.04200
C 	C 	0.21941 0.83064 0.79938 -0.00100
C 	C 	0.28023 0.84070 0.82103 -0.03800
C 	C 	0.28547 0.79684 0.82218 -0.05000
C 	C 	0.22939 0.74118 0.80322 0.02300
C 	C 	0.16776 0.72836 0.78667 -0.05000
C 	C 	0.16272 0.77280 0.78475 -0.03400
C 	C 	0.23580 0.70216 0.79104 -0.04200
C 	C 	0.28125 0.69117 0.82565 -0.06400
C 	C 	0.21818 0.88595 0.77829 0.01500
C 	C 	0.16622 0.88027 0.77972 -0.18200
H 	H 	0.32425 0.88488 0.83283 0.03000
H 	H 	0.33357 0.80818 0.83425 0.03600
H 	H 	0.12409 0.68550 0.77233 0.04200
H 	H 	0.11532 0.76415 0.76802 0.04400
H 	H 	0.20473 0.68450 0.75181 0.04000
H 	H 	0.31066 0.70637 0.86613 0.04200
H 	H 	0.25566 0.93095 0.75596 0.02700
H 	H 	0.13939 0.84439 0.81378 0.08600
C 	C 	0.14711 0.30585 0.24704 0.00600
C 	C 	0.15160 0.36073 0.20826 -0.03500
C 	C 	0.18555 0.41367 0.22856 -0.04700
C 	C 	0.21436 0.41182 0.28820 0.02500
C 	C 	0.21144 0.35762 0.32679 -0.04700
C 	C 	0.17748 0.30462 0.30647 -0.03400
C 	C 	0.25193 0.46827 0.30977 -0.04100
C 	C 	0.22852 0.50149 0.29231 -0.06300
C 	C 	0.10249 0.24715 0.22673 0.00800
C 	C 	0.11986 0.20924 0.24225 -0.14300
H 	H 	0.12805 0.36206 0.16243 0.04100
H 	H 	0.18956 0.45612 0.19794 0.04300
H 	H 	0.23454 0.35614 0.37269 0.04300
H 	H 	0.17320 0.26208 0.33713 0.04300
H 	H 	0.29921 0.48281 0.34027 0.04000
H 	H 	0.17826 0.48287 0.26749 0.04700
H 	H 	0.05468 0.23484 0.19866 0.04000
H 	H 	0.16950 0.22415 0.26617 0.08000
C 	C 	0.65996 0.81696 0.26304 0.00000
C 	C 	0.63807 0.78069 0.31487 -0.03600
C 	C 	0.57334 0.74988 0.31391 -0.04900
C 	C 	0.53013 0.75632 0.26111 0.02400
C 	C 	0.55172 0.79170 0.20911 -0.05100
C 	C 	0.61644 0.82219 0.21006 -0.03500
C 	C 	0.46052 0.72095 0.25911 -0.04300
C 	C 	0.44289 0.71588 0.30073 -0.06400
C 	C 	0.73026 0.85591 0.26570 0.01100
C 	C 	0.75180 0.85709 0.22774 -0.17200
H 	H 	0.67137 0.77661 0.35600 0.03700
H 	H 	0.55664 0.72055 0.35407 0.04100
H 	H 	0.51850 0.79597 0.16800 0.03900
H 	H 	0.63311 0.85105 0.16987 0.03500
H 	H 	0.42314 0.69827 0.22341 0.04000
H 	H 	0.47981 0.74478 0.33225 0.04300
H 	H 	0.71653 0.82547 0.19850 0.08300
C 	C 	0.12897 0.74861 0.29594 0.00200
C 	C 	0.10667 0.68577 0.30919 -0.03600
C 	C 	0.14850 0.67306 0.31658 -0.04700
C 	C 	0.21384 0.72313 0.31218 0.02300
C 	C 	0.23754 0.78555 0.30351 -0.05000
C 	C 	0.19539 0.79831 0.29541 -0.03600
C 	C 	0.25414 0.71205 0.30686 -0.04100
C 	C 	0.25345 0.66034 0.33991 -0.06400
C 	C 	0.08034 0.76245 0.26987 0.01200
C 	C 	0.09358 0.81393 0.27764 -0.17000
H 	H 	0.05566 0.64702 0.30993 0.04000
H 	H 	0.12900 0.62471 0.32228 0.04200
H 	H 	0.28783 0.82456 0.30021 0.03600
H 	H 	0.21343 0.84715 0.28502 0.03600
H 	H 	0.28319 0.74570 0.27418 0.03800
H 	H 	0.22593 0.62750 0.37371 0.04500
H 	H 	0.03486 0.73420 0.24081 0.04000
H 	H 	0.12905 0.83225 0.31598 0.08000
C 	C 	0.76914 0.26021 0.53216 -0.04100
C 	C 	0.77707 0.27246 0.57871 -0.06400
H 	H 	0.71559 0.17301 0.47737 0.04200
H 	H 	0.73762 0.26777 0.49087 0.04000
H 	H 	0.80700 0.26352 0.62060 0.04500
H 	H 	0.82234 0.51276 0.66390 0.03900
C 	C 	0.47366 0.22360 0.54223 0.02500
C 	C 	0.42479 0.22284 0.49224 -0.04700
C 	C 	0.36152 0.18995 0.49711 -0.03500
C 	C 	0.34682 0.15856 0.55211 0.00600
C 	C 	0.39590 0.15975 0.60229 -0.03500
C 	C 	0.45913 0.19255 0.59741 -0.04700
C 	C 	0.27824 0.11808 0.55625 0.00700
C 	C 	0.26291 0.11961 0.59519 -0.14200
C 	C 	0.54146 0.26234 0.53688 -0.04100
C 	C 	0.57772 0.23993 0.56687 -0.06300
H 	H 	0.43575 0.24751 0.44957 0.04200
H 	H 	0.32383 0.18862 0.45810 0.04200
H 	H 	0.38482 0.13443 0.64493 0.04300
H 	H 	0.49690 0.19426 0.63648 0.04200
H 	H 	0.23993 0.08651 0.52713 0.04100
H 	H 	0.30078 0.15394 0.62177 0.07900
H 	H 	0.56198 0.30975 0.50801 0.03900
H 	H 	0.55518 0.19031 0.59054 0.04800
C 	C 	0.77951 0.23076 0.03457 0.03000
C 	C 	0.74560 0.17057 0.02724 -0.05000
C 	C 	0.74350 0.24630 0.04016 -0.04900
C 	C 	0.75155 0.30203 0.01060 -0.04500
H 	H 	0.69254 0.13968 0.01690 0.04600
H 	H 	0.75269 0.09981 0.03581 0.04500
H 	H 	0.70890 0.21097 0.06808 0.04400
H 	H 	0.78718 0.33790 0.98367 0.02900
C 	C 	0.74171 0.60503 0.05263 -0.03600
C 	C 	0.71514 0.54661 0.04686 -0.04300
C 	C 	0.74833 0.45516 0.03677 -0.07000
H 	H 	0.71448 0.60842 0.06614 0.04000
H 	H 	0.66768 0.50519 0.05628 0.04000
C 	C 	0.45999 0.17456 0.08489 0.01900
C 	C 	0.44571 0.14009 0.14011 -0.04300
C 	C 	0.38117 0.09965 0.14555 -0.03500
C 	C 	0.33031 0.09364 0.09576 0.00800
C 	C 	0.34425 0.12714 0.04046 -0.04000
C 	C 	0.40889 0.16820 0.03499 -0.02700
C 	C 	0.26214 0.05059 0.10131 0.02100
C 	C 	0.24499 0.05804 0.13368 -0.15800
C 	C 	0.52906 0.22215 0.08035 -0.03600
C 	C 	0.54805 0.23127 0.03741 -0.06400
H 	H 	0.48474 0.14506 0.17888 0.04200
H 	H 	0.37066 0.07302 0.18841 0.04500
H 	H 	0.30517 0.12239 0.00179 0.04900
H 	H 	0.41936 0.19607 0.99220 0.02900
H 	H 	0.22539 0.01347 0.07766 0.04000
H 	H 	0.28054 0.09851 0.15310 0.08500
H 	H 	0.56527 0.24888 0.11360 0.03900
H 	H 	0.51368 0.19974 0.00809 0.05000
C 	C 	0.00465 0.96752 0.99298 0.33100
O 	O 	0.00540 0.99323 0.15494 -0.58800
O 	O 	0.01718 0.00362 0.65452 -0.55300
C 	C 	0.02074 0.00296 0.84370 0.35700
H 	H 	0.05289 0.95854 0.93453 0.06100
C 	C 	0.00178 0.95321 0.40829 -0.02300
H 	H 	0.01811 0.92287 0.43243 0.05500
H 	H 	0.76559 0.88259 0.29902 0.03200
C 	C 	0.77721 0.48533 0.56031 -0.04300
H 	H 	0.73311 0.47096 0.52541 0.03900
C 	C 	0.77984 0.14812 0.03756 -0.03000
C 	C 	0.74907 0.54200 0.02772 0.01300
C 	C 	0.71723 0.48210 0.01520 -0.02100
H 	H 	0.66668 0.45823 0.99048 0.02400
O 	O 	0.02660 0.84051 0.64755 -0.38100
C 	C 	0.83469 0.55410 0.62736 -0.05000
C 	C 	0.79712 0.44745 0.59083 -0.06400
C 	C 	0.81623 0.54822 0.57101 0.02400
C 	C 	0.79852 0.23181 0.53700 0.02400
C 	C 	0.76351 0.18663 0.50556 -0.04800
H 	H 	0.84450 0.46448 0.62158 0.04200
H 	H 	0.79952 0.48007 0.05991 0.04600
H 	H 	0.79791 0.41447 0.01865 0.05300
H 	H 	0.83725 0.38960 0.58671 0.05200
C 	C 	0.81763 0.90056 0.22502 0.33000
O 	O 	0.83725 0.89579 0.19317 -0.41200
O 	O 	0.85652 0.01771 0.66594 -0.40400
C 	C 	0.83459 0.89243 0.74339 0.33100
O 	O 	0.85561 0.88861 0.71212 -0.41300
C 	C 	0.78994 0.15833 0.51091 -0.03400
C 	C 	0.86208 0.25136 0.57098 -0.04900
C 	C 	0.83804 0.07611 0.56869 -0.14600
H 	H 	0.76280 0.12433 0.48567 0.04100
H 	H 	0.78527 0.05083 0.55413 0.08100
C 	C 	0.84861 0.18578 0.05545 0.00200
C 	C 	0.84827 0.27057 0.04728 -0.05000
H 	H 	0.83677 0.10383 0.02379 0.08300
C 	C 	0.80215 0.65932 0.03879 0.00200
C 	C 	0.81016 0.59614 0.01505 -0.02900
C 	C 	0.83650 0.65446 0.02057 -0.04100
C 	C 	0.82659 0.72259 0.03692 0.02800
C 	C 	0.84610 0.73822 0.08596 -0.16200
H 	H 	0.83623 0.59349 0.99917 0.02300
H 	H 	0.84131 0.76013 0.99767 0.02200
H 	H 	0.82829 0.70137 0.12446 0.07900
C 	C 	0.83052 0.60172 0.52389 -0.05000
H 	H 	0.81539 0.59745 0.48012 0.04000
C 	C 	0.86910 0.61347 0.63659 -0.03700
H 	H 	0.88479 0.61788 0.68041 0.03600
Co	Co	0.91089 0.97236 0.14736 1.17000
O 	O 	0.88363 0.93312 0.08589 -0.47800
C 	C 	0.87973 0.06360 0.10950 0.32400
C 	C 	0.90141 0.80379 0.09128 0.33000
O 	O 	0.86596 0.03731 0.16053 -0.40600
O 	O 	0.89554 0.04157 0.09270 -0.38100
O 	O 	0.90166 0.83083 0.11827 -0.41400
O 	O 	0.86065 0.93668 0.26257 -0.41600
Co	Co	0.91786 0.96602 0.65592 1.16600
Co	Co	0.93398 0.03098 0.73779 1.17200
O 	O 	0.89354 0.91854 0.60354 -0.48200
C 	C 	0.86355 0.03935 0.61280 0.32200
O 	O 	0.88343 0.02025 0.59705 -0.38000
O 	O 	0.87601 0.93468 0.77502 -0.42100
C 	C 	0.85118 0.17403 0.54884 0.00400
C 	C 	0.88791 0.22219 0.57725 -0.03700
C 	C 	0.87708 0.13958 0.56055 0.00700
H 	H 	0.93613 0.23635 0.60498 0.03200
H 	H 	0.89150 0.28910 0.59247 0.03700
C 	C 	0.88503 0.66734 0.58952 0.00100
C 	C 	0.86538 0.66109 0.53318 -0.03700
C 	C 	0.91674 0.74867 0.62583 -0.14700
H 	H 	0.87797 0.70247 0.49667 0.03700
H 	H 	0.87007 0.71603 0.63795 0.07600
C 	C 	0.88260 0.24823 0.05742 -0.03500
C 	C 	0.88340 0.15590 0.08539 0.01300
C 	C 	0.86614 0.11025 0.06747 -0.15100
H 	H 	0.87511 0.31722 0.05301 0.04000
H 	H 	0.91929 0.16687 0.12626 0.02600
H 	H 	0.88302 0.69628 0.00941 0.03900
H 	H 	0.93560 0.27796 0.07071 0.03400
Co	Co	0.95545 0.92880 0.09732 1.17900
Co	Co	0.93268 0.03253 0.23730 1.17100
O 	O 	0.94915 0.83628 0.06616 -0.42400
O 	O 	0.94254 0.83656 0.64368 -0.40500
H 	H 	0.92990 0.16422 0.57413 0.03200
C 	C 	0.93073 0.73138 0.60001 0.00700
H 	H 	0.96248 0.99606 0.90404 0.06600
H 	H 	0.96323 0.99345 0.41148 0.07400
O 	O 	0.96292 0.00960 0.20179 -0.75400
O 	O 	0.96812 0.96554 0.01237 -0.40300
O 	O 	0.96967 0.01299 0.70281 -0.75600
C 	C 	0.96347 0.81324 0.63518 0.29200
Co	Co	0.97450 0.93090 0.60933 1.17300
O 	O 	0.97442 0.96198 0.52178 -0.40800
H 	H 	0.97511 0.76596 0.58374 0.02300
O 	O 	0.99744 0.12440 0.69806 -0.41400
O 	O 	0.99519 0.02862 0.31854 -0.36800
C 	C 	0.99592 0.98303 0.93254 -0.15400
C 	C 	0.98447 0.96735 0.43711 -0.15800
O 	O 	0.00688 0.04410 0.81407 -0.40000
C 	C 	0.99537 0.95039 0.49806 0.30800
C 	C 	0.99876 0.98049 0.34488 0.21500
