data_crystal

_cell_length_a 26.50549
_cell_length_b 27.63913
_cell_length_c 34.74378
_cell_angle_alpha 60.91614
_cell_angle_beta  118.77206
_cell_angle_gamma 133.20147

_symmetry_space_group_name_	'P 1'
_symmetry_space_group_name_H-M	'P 1'

loop_
_symmetry_equiv_pos_as_xyz
  x,y,z

loop_
_atom_site_label
_atom_site_type_symbol
_atom_site_fract_x
_atom_site_fract_y
_atom_site_fract_z
_atom_site_charge
Co	Co	0.11321 0.02960 0.09557 1.18300
Co	Co	0.05872 0.08502 0.12123 1.18500
Co	Co	0.11764 0.91332 0.09920 1.16700
O 	O 	0.11449 0.11031 0.08211 -0.46800
O 	O 	0.12838 0.98548 0.03723 -0.40300
O 	O 	0.05120 0.16887 0.15579 -0.39700
O 	O 	0.10196 0.86591 0.20676 -0.37700
O 	O 	0.09162 0.95038 0.12172 -0.76000
C 	C 	0.01521 0.99507 0.26604 0.28500
Co	Co	0.01511 0.99050 0.57902 1.19200
Co	Co	0.98315 0.05974 0.61118 1.17800
Co	Co	0.01777 0.86987 0.58751 1.16800
O 	O 	0.02942 0.07740 0.56891 -0.46600
O 	O 	0.95150 0.87871 0.52507 -0.39400
O 	O 	0.02727 0.12051 0.69708 -0.38100
O 	O 	0.03000 0.85273 0.69570 -0.38100
O 	O 	0.98666 0.90891 0.60394 -0.76300
C 	C 	0.95953 0.97364 0.76045 0.30400
C 	C 	0.95054 0.95930 0.83404 -0.00500
C 	C 	0.94534 0.96126 0.90143 -0.04400
C 	C 	0.97787 0.97273 0.94485 -0.00500
H 	H 	0.89577 0.94235 0.81885 0.04200
H 	H 	0.89072 0.94465 0.88642 0.04200
H 	H 	0.94756 0.96361 0.96318 0.04300
C 	C 	0.02050 0.92842 0.34731 -0.01100
C 	C 	0.01432 0.91119 0.39074 -0.03500
C 	C 	0.99633 0.94178 0.39951 -0.00900
C 	C 	0.99060 0.92506 0.44311 -0.01500
H 	H 	0.03493 0.90478 0.34120 0.04600
H 	H 	0.00079 0.88876 0.47033 0.03400
H 	H 	0.09575 0.71931 0.24803 0.08600
C 	C 	0.78914 0.31983 0.04727 -0.00900
C 	C 	0.82464 0.38467 0.05295 -0.04300
C 	C 	0.78857 0.39796 0.06124 -0.00900
C 	C 	0.71681 0.34714 0.06291 -0.04100
C 	C 	0.68130 0.28268 0.05740 -0.01100
C 	C 	0.71820 0.26822 0.05145 -0.04100
H 	H 	0.87923 0.42502 0.04974 0.04100
H 	H 	0.68855 0.35798 0.06818 0.04200
H 	H 	0.69110 0.21738 0.04902 0.03800
C 	C 	0.68902 0.29231 0.53173 -0.00900
C 	C 	0.61412 0.25119 0.52141 -0.04300
C 	C 	0.57885 0.27402 0.51903 -0.00800
C 	C 	0.61794 0.34075 0.52216 -0.04300
C 	C 	0.69238 0.38236 0.53216 -0.00800
C 	C 	0.72807 0.35827 0.53691 -0.04300
H 	H 	0.58336 0.20052 0.51706 0.04000
H 	H 	0.59082 0.35829 0.52082 0.04300
H 	H 	0.78574 0.38940 0.54647 0.04100
C 	C 	0.31008 0.67208 0.21560 -0.00700
C 	C 	0.37904 0.70902 0.21066 -0.04200
C 	C 	0.39349 0.68229 0.19492 -0.00700
C 	C 	0.33951 0.61828 0.18476 -0.04100
C 	C 	0.27081 0.58126 0.18935 -0.00800
C 	C 	0.25578 0.60832 0.20423 -0.04300
H 	H 	0.42167 0.75744 0.22007 0.04200
H 	H 	0.35097 0.59709 0.17337 0.04500
H 	H 	0.20211 0.57993 0.20675 0.04100
C 	C 	0.22542 0.62296 0.72264 -0.00500
C 	C 	0.18736 0.55699 0.71746 -0.04400
C 	C 	0.22101 0.54131 0.70889 -0.00600
C 	C 	0.29229 0.59071 0.70622 -0.04200
C 	C 	0.33093 0.65515 0.71289 -0.00800
C 	C 	0.29729 0.67188 0.72001 -0.04200
H 	H 	0.13254 0.51831 0.72036 0.04100
H 	H 	0.31793 0.57858 0.69934 0.04400
H 	H 	0.32702 0.72287 0.72345 0.04300
Co	Co	0.98684 0.95297 0.18591 1.18600
Co	Co	0.03696 0.89602 0.15769 1.18500
C 	C 	0.25167 0.04977 0.11177 0.25900
Co	Co	0.97046 0.06566 0.17504 1.15700
C 	C 	0.96464 0.80334 0.09736 0.26100
O 	O 	0.91340 0.07300 0.10865 -0.39500
O 	O 	0.01298 0.03415 0.16222 -0.76000
C 	C 	0.94618 0.11081 0.07549 0.26700
O 	O 	0.98125 0.87058 0.19693 -0.47000
C 	C 	0.84791 0.92204 0.16903 0.27900
O 	O 	0.07208 0.99973 0.15312 -0.57700
C 	C 	0.11759 0.19378 0.16246 0.27500
C 	C 	0.07954 0.99659 0.01318 0.30000
C 	C 	0.12751 0.84576 0.19794 0.27400
O 	O 	0.98017 0.09607 0.07003 -0.39300
O 	O 	0.05635 0.00688 0.03264 -0.40400
O 	O 	0.88441 0.96577 0.19345 -0.39800
O 	O 	0.88087 0.91387 0.15651 -0.39400
O 	O 	0.13329 0.16721 0.15080 -0.38100
O 	O 	0.10622 0.83599 0.15802 -0.40000
O 	O 	0.03183 0.05583 0.23963 -0.39200
O 	O 	0.00832 0.95225 0.25302 -0.37200
O 	O 	0.22002 0.98335 0.12873 -0.38300
O 	O 	0.22071 0.07887 0.10134 -0.37300
O 	O 	0.01103 0.84737 0.07189 -0.38000
O 	O 	0.95486 0.82479 0.11836 -0.38500
Co	Co	0.91377 0.93216 0.67888 1.19100
Co	Co	0.94998 0.86457 0.64894 1.18300
C 	C 	0.14596 0.01523 0.58554 0.27000
Co	Co	0.91854 0.05481 0.67427 1.16000
C 	C 	0.87297 0.74977 0.60726 0.27600
O 	O 	0.92685 0.12921 0.61406 -0.40700
O 	O 	0.93471 0.01061 0.65045 -0.77600
C 	C 	0.89915 0.11571 0.57454 0.27600
O 	O 	0.90791 0.84844 0.69320 -0.46800
C 	C 	0.78104 0.91738 0.66804 0.26900
O 	O 	0.94114 0.95274 0.61770 -0.58000
C 	C 	0.07047 0.15922 0.66985 0.26700
C 	C 	0.96914 0.93954 0.49824 0.28600
C 	C 	0.05634 0.83274 0.68742 0.26900
O 	O 	0.91880 0.09147 0.56424 -0.38600
O 	O 	0.98104 0.98499 0.51164 -0.37400
O 	O 	0.81274 0.98370 0.64964 -0.38000
O 	O 	0.80984 0.88655 0.67786 -0.37300
O 	O 	0.07240 0.13137 0.64884 -0.38300
O 	O 	0.08237 0.86582 0.65155 -0.38500
O 	O 	0.91205 0.98657 0.73768 -0.40400
O 	O 	0.97835 0.96030 0.73995 -0.39700
O 	O 	0.10329 0.96660 0.56401 -0.39200
O 	O 	0.11996 0.02548 0.60262 -0.39800
O 	O 	0.93594 0.76924 0.61078 -0.40300
O 	O 	0.86636 0.77859 0.62400 -0.38200
C 	C 	0.98942 0.97215 0.80927 -0.09200
C 	C 	0.05973 0.99250 0.82954 0.04200
C 	C 	0.09187 0.00246 0.87344 -0.09100
C 	C 	0.05416 0.99263 0.89743 0.05100
C 	C 	0.98295 0.97062 0.87765 -0.00700
C 	C 	0.04835 0.99357 0.96510 -0.05500
C 	C 	0.08675 0.00450 0.94094 -0.04800
H 	H 	0.09031 0.00279 0.81080 0.02700
H 	H 	0.14644 0.01891 0.88844 0.05100
H 	H 	0.14148 0.02136 0.95621 0.04800
C 	C 	0.00886 0.97649 0.31214 -0.03600
C 	C 	0.98428 0.98990 0.36430 0.06200
C 	C 	0.99037 0.00689 0.32077 -0.07400
C 	C 	0.96646 0.02061 0.37308 -0.08600
C 	C 	0.96099 0.00392 0.41659 -0.00100
C 	C 	0.97296 0.95612 0.45182 -0.06200
H 	H 	0.02370 0.87418 0.41755 0.03900
H 	H 	0.98028 0.04328 0.29358 0.04000
H 	H 	0.95698 0.05754 0.34624 0.04500
H 	H 	0.94709 0.02795 0.42279 0.03600
C 	C 	0.18452 0.42400 0.67098 0.07100
C 	C 	0.16236 0.39053 0.64010 -0.08100
C 	C 	0.17142 0.33847 0.65727 0.01200
C 	C 	0.18935 0.31330 0.70380 0.07800
C 	C 	0.20081 0.34093 0.73463 -0.08900
C 	C 	0.20394 0.40035 0.71672 0.02300
N 	N 	0.16907 0.46598 0.66256 -0.16800
C 	C 	0.18310 0.47296 0.70345 0.07200
C 	C 	0.19976 0.42809 0.73811 -0.08600
N 	N 	0.16376 0.24771 0.71306 -0.15100
C 	C 	0.12940 0.23031 0.67291 0.00500
C 	C 	0.13271 0.28543 0.63748 -0.04700
H 	H 	0.13729 0.40269 0.60491 0.05400
H 	H 	0.20455 0.31594 0.77042 0.05500
H 	H 	0.22762 0.43296 0.77268 0.05400
H 	H 	0.09318 0.28020 0.60564 0.04700
H 	H 	0.16945 0.50197 0.63185 0.08500
H 	H 	0.15284 0.21258 0.74423 0.09100
C 	C 	0.50298 0.72899 0.71124 0.07100
C 	C 	0.57006 0.74174 0.73057 -0.08000
C 	C 	0.62833 0.80680 0.71518 0.01000
C 	C 	0.61974 0.85680 0.68113 0.07800
C 	C 	0.55228 0.84369 0.66185 -0.08900
C 	C 	0.49409 0.77833 0.67702 0.02600
N 	N 	0.45096 0.68515 0.73356 -0.16900
C 	C 	0.40725 0.70470 0.71323 0.07600
C 	C 	0.43390 0.76399 0.67878 -0.08900
N 	N 	0.67081 0.89954 0.65797 -0.15200
C 	C 	0.71027 0.87585 0.67582 0.00200
C 	C 	0.68662 0.81938 0.71208 -0.04400
H 	H 	0.57677 0.70285 0.75689 0.05300
H 	H 	0.54528 0.88237 0.63543 0.05500
H 	H 	0.40396 0.78326 0.65163 0.05500
H 	H 	0.69839 0.78263 0.72602 0.05200
H 	H 	0.43906 0.63797 0.75598 0.08300
H 	H 	0.66848 0.93189 0.62573 0.08800
C 	C 	0.18425 0.71354 0.73378 0.07100
C 	C 	0.19378 0.75144 0.75563 -0.08100
C 	C 	0.13347 0.74268 0.75310 0.01000
C 	C 	0.06576 0.69515 0.73145 0.07900
C 	C 	0.05648 0.65443 0.71191 -0.09000
C 	C 	0.11755 0.66770 0.71134 0.02500
N 	N 	0.22871 0.69793 0.74539 -0.16900
C 	C 	0.19065 0.64153 0.73059 0.07400
C 	C 	0.12106 0.62162 0.70876 -0.08700
N 	N 	0.02483 0.71710 0.71336 -0.15100
C 	C 	0.06594 0.77942 0.72136 0.00000
C 	C 	0.13350 0.79620 0.74680 -0.03900
H 	H 	0.24641 0.78836 0.77240 0.05300
H 	H 	0.00413 0.61758 0.69488 0.05600
H 	H 	0.07591 0.57191 0.70178 0.05300
H 	H 	0.18098 0.84837 0.74627 0.05000
H 	H 	0.27598 0.71430 0.77055 0.08300
H 	H 	0.98024 0.70103 0.68636 0.08200
C 	C 	0.20587 0.36502 0.15464 0.08000
C 	C 	0.19126 0.41375 0.12938 -0.09200
C 	C 	0.17892 0.43433 0.15181 0.02500
C 	C 	0.18339 0.40902 0.19815 0.06900
C 	C 	0.19734 0.35982 0.22333 -0.08200
C 	C 	0.20948 0.33910 0.20087 0.01000
N 	N 	0.18522 0.31856 0.13691 -0.15100
C 	C 	0.17350 0.26210 0.17108 0.00200
C 	C 	0.18886 0.27347 0.21148 -0.04500
N 	N 	0.20511 0.45609 0.21583 -0.16900
C 	C 	0.21588 0.51202 0.18137 0.07500
C 	C 	0.19909 0.49983 0.14091 -0.08900
H 	H 	0.18831 0.43400 0.09331 0.05500
H 	H 	0.19999 0.33935 0.25936 0.05200
H 	H 	0.16464 0.23308 0.23960 0.04600
H 	H 	0.22193 0.53978 0.11221 0.05500
H 	H 	0.16041 0.31748 0.10282 0.08500
H 	H 	0.23125 0.45795 0.24972 0.08500
C 	C 	0.67781 0.85902 0.16263 0.08200
C 	C 	0.61707 0.85771 0.14521 -0.09100
C 	C 	0.55222 0.79419 0.15328 0.02800
C 	C 	0.54863 0.73469 0.17828 0.07000
C 	C 	0.60969 0.73639 0.19499 -0.07800
C 	C 	0.67435 0.80017 0.18745 0.00800
N 	N 	0.73482 0.90609 0.14450 -0.15100
C 	C 	0.77002 0.87874 0.15900 0.00000
C 	C 	0.73171 0.81134 0.18420 -0.04000
N 	N 	0.49490 0.68997 0.19941 -0.16900
C 	C 	0.46535 0.72089 0.18934 0.07600
C 	C 	0.49844 0.78505 0.15992 -0.08900
H 	H 	0.62012 0.90411 0.12625 0.05600
H 	H 	0.60722 0.69034 0.21436 0.05300
H 	H 	0.75348 0.78259 0.20759 0.04600
H 	H 	0.49573 0.82556 0.15398 0.05300
H 	H 	0.75732 0.95841 0.13258 0.08700
H 	H 	0.48921 0.64824 0.22684 0.08400
C 	C 	0.30866 0.77002 0.25489 0.07100
C 	C 	0.31470 0.82906 0.24555 -0.08100
C 	C 	0.26440 0.82142 0.25626 0.01100
C 	C 	0.20384 0.75684 0.26826 0.07900
C 	C 	0.19382 0.69762 0.27251 -0.09000
C 	C 	0.25010 0.70540 0.26948 0.02600
N 	N 	0.33653 0.76594 0.23372 -0.16900
C 	C 	0.29582 0.69912 0.23436 0.07600
C 	C 	0.24198 0.65977 0.25666 -0.08800
N 	N 	0.14937 0.76043 0.25491 -0.15100
C 	C 	0.17435 0.82681 0.23438 0.00200
C 	C 	0.24574 0.86611 0.23472 -0.04600
H 	H 	0.35397 0.87823 0.22789 0.05200
H 	H 	0.14268 0.64819 0.27502 0.05500
H 	H 	0.19332 0.60946 0.25308 0.05200
H 	H 	0.27168 0.91351 0.20984 0.04900
H 	H 	0.36743 0.80661 0.21019 0.08200
C 	C 	0.76840 0.14089 0.53088 0.07800
C 	C 	0.72648 0.13161 0.55107 -0.09200
C 	C 	0.74560 0.18947 0.55684 0.02500
C 	C 	0.79892 0.25486 0.53848 0.06800
C 	C 	0.83856 0.26484 0.51611 -0.08100
C 	C 	0.82363 0.20663 0.51368 0.00700
N 	N 	0.78424 0.09681 0.54563 -0.15300
C 	C 	0.85043 0.13358 0.54043 -0.00400
C 	C 	0.87576 0.20186 0.51962 -0.04100
N 	N 	0.78732 0.30023 0.52940 -0.16900
C 	C 	0.72660 0.26372 0.54212 0.07500
C 	C 	0.69921 0.19466 0.55947 -0.09100
H 	H 	0.68370 0.08071 0.56467 0.05000
H 	H 	0.88117 0.31590 0.50253 0.05000
H 	H 	0.93186 0.24412 0.52365 0.04300
H 	H 	0.64457 0.15271 0.56186 0.05000
H 	H 	0.76189 0.05053 0.56993 0.08300
H 	H 	0.80714 0.34721 0.50538 0.08200
C 	C 	0.71977 0.51998 0.53805 0.07000
C 	C 	0.73140 0.58334 0.52314 -0.08200
C 	C 	0.74321 0.60842 0.55563 0.01100
C 	C 	0.75525 0.57763 0.60170 0.07900
C 	C 	0.75410 0.51966 0.61653 -0.09000
C 	C 	0.73006 0.48873 0.58349 0.02400
N 	N 	0.72324 0.49612 0.51438 -0.16900
C 	C 	0.73184 0.44624 0.54444 0.07200
C 	C 	0.74134 0.44400 0.58839 -0.08900
N 	N 	0.79609 0.62399 0.62613 -0.15100
C 	C 	0.81033 0.68418 0.59617 0.00200
C 	C 	0.77907 0.67670 0.55200 -0.04600
H 	H 	0.73418 0.61304 0.48843 0.05300
H 	H 	0.77395 0.50154 0.65182 0.05400
H 	H 	0.73413 0.40094 0.61732 0.05300
H 	H 	0.79926 0.71767 0.52278 0.04800
H 	H 	0.70153 0.49967 0.47962 0.08300
H 	H 	0.82841 0.61990 0.65853 0.08500
C 	C 	0.43121 0.16553 0.56549 0.06900
C 	C 	0.38283 0.10524 0.59152 -0.07900
C 	C 	0.31293 0.08523 0.57712 0.00800
C 	C 	0.29271 0.12443 0.53936 0.08100
C 	C 	0.34104 0.18465 0.51325 -0.09000
C 	C 	0.41095 0.20469 0.52765 0.02700
N 	N 	0.48685 0.17638 0.56217 -0.16900
C 	C 	0.50431 0.22425 0.52299 0.07400
C 	C 	0.45582 0.24058 0.49969 -0.08900
N 	N 	0.23741 0.11386 0.54294 -0.15200
C 	C 	0.22014 0.06612 0.58220 0.00100
C 	C 	0.26825 0.04943 0.60518 -0.04400
H 	H 	0.39864 0.07477 0.62126 0.05000
H 	H 	0.32523 0.21514 0.48353 0.05600
H 	H 	0.46373 0.28528 0.47221 0.05300
H 	H 	0.25919 0.00371 0.63185 0.04400
H 	H 	0.52092 0.16488 0.58952 0.08200
H 	H 	0.20312 0.12511 0.51563 0.08600
C 	C 	0.94646 0.25649 0.02617 0.08400
C 	C 	0.95902 0.30475 0.04005 -0.10700
C 	C 	0.90464 0.31263 0.02402 0.03200
C 	C 	0.83693 0.26693 0.00150 0.06500
C 	C 	0.82153 0.21176 0.99425 -0.07800
C 	C 	0.87879 0.21089 0.00360 0.00300
N 	N 	0.98287 0.22909 0.04892 -0.16200
C 	C 	0.93889 0.16572 0.04181 -0.00400
C 	C 	0.87331 0.15243 0.01404 -0.04000
N 	N 	0.78811 0.26467 0.00668 -0.16800
C 	C 	0.82395 0.30778 0.03304 0.07600
C 	C 	0.89668 0.33875 0.04457 -0.09400
H 	H 	0.00752 0.33230 0.06409 0.06500
H 	H 	0.76706 0.16961 0.98401 0.04900
H 	H 	0.82359 0.10160 0.01449 0.04500
H 	H 	0.93396 0.36017 0.07375 0.05200
H 	H 	0.02557 0.24393 0.07700 0.09400
H 	H 	0.73340 0.22612 0.00063 0.08100
C 	C 	0.90728 0.64231 0.10677 0.07900
C 	C 	0.89262 0.57712 0.12856 -0.09000
C 	C 	0.84750 0.52926 0.10219 0.02500
C 	C 	0.81875 0.54600 0.05628 0.06900
C 	C 	0.83252 0.61098 0.03500 -0.07800
C 	C 	0.87892 0.65889 0.06129 0.00700
N 	N 	0.92729 0.68484 0.12785 -0.15400
C 	C 	0.91468 0.73123 0.09536 0.00200
C 	C 	0.88076 0.71386 0.05375 -0.04200
N 	N 	0.80595 0.50819 0.03457 -0.16900
C 	C 	0.82477 0.46608 0.06619 0.07400
C 	C 	0.85292 0.47943 0.10846 -0.09000
H 	H 	0.91592 0.56449 0.16416 0.05300
H 	H 	0.81047 0.62440 0.99923 0.05300
H 	H 	0.87792 0.74836 0.02093 0.05000
H 	H 	0.85924 0.44565 0.14073 0.05300
H 	H 	0.96388 0.69288 0.15907 0.08300
H 	H 	0.77257 0.50116 0.00242 0.08400
C 	C 	0.39898 0.09440 0.09429 0.07600
C 	C 	0.45901 0.09698 0.10544 -0.09200
C 	C 	0.50250 0.14211 0.07436 0.02500
C 	C 	0.49397 0.19115 0.03857 0.06800
C 	C 	0.43947 0.19452 0.03168 -0.08000
C 	C 	0.38853 0.14088 0.05765 0.00600
N 	N 	0.36188 0.06682 0.12398 -0.15300
C 	C 	0.32400 0.09263 0.10545 0.00200
C 	C 	0.34274 0.14214 0.06514 -0.04400
N 	N 	0.55621 0.24582 0.02671 -0.16900
C 	C 	0.60416 0.23174 0.05451 0.07600
C 	C 	0.57321 0.16818 0.08483 -0.09200
H 	H 	0.47274 0.06740 0.13750 0.05200
H 	H 	0.43844 0.23794 0.00853 0.05200
H 	H 	0.31124 0.16017 0.03882 0.04900
H 	H 	0.60189 0.15374 0.11759 0.05200
H 	H 	0.35033 0.02200 0.14963 0.08300
H 	H 	0.56905 0.29501 0.00960 0.08300
