data_crystal

_cell_length_a 18.14665
_cell_length_b 17.03251
_cell_length_c 49.85834
_cell_angle_alpha 89.63668
_cell_angle_beta  89.64207
_cell_angle_gamma 119.43731

_symmetry_space_group_name_	'P 1'
_symmetry_space_group_name_H-M	'P 1'

loop_
_symmetry_equiv_pos_as_xyz
  x,y,z

loop_
_atom_site_label
_atom_site_type_symbol
_atom_site_fract_x
_atom_site_fract_y
_atom_site_fract_z
_atom_site_charge
H 	H 	0.99600 0.01636 0.24724 0.17300
C 	C 	0.01677 0.52191 0.92924 0.00000
Ni	Ni	0.06579 0.99810 0.74523 1.10200
Ni	Ni	0.02984 0.14072 0.71237 1.11800
C 	C 	0.03293 0.08054 0.16750 0.30700
C 	C 	0.00908 0.86905 0.26301 0.27800
O 	O 	0.03284 0.13813 0.18500 -0.36000
O 	O 	0.01934 0.00057 0.17525 -0.36400
O 	O 	0.07573 0.17344 0.23974 -0.36400
C 	C 	0.00347 0.05118 0.11810 0.03600
C 	C 	0.02591 0.07735 0.09103 -0.05500
C 	C 	0.98631 0.01229 0.06986 0.14300
C 	C 	0.00866 0.31855 0.01424 0.07600
N 	N 	0.96267 0.34072 0.00554 -0.08800
N 	N 	0.09132 0.07863 0.30396 -0.09900
C 	C 	0.99222 0.73598 0.32659 -0.01900
C 	C 	0.08976 0.46023 0.51020 0.00200
C 	C 	0.09420 0.60115 0.49842 0.01800
H 	H 	0.05627 0.39255 0.51862 0.05600
N 	N 	0.04869 0.10096 0.55289 -0.10800
N 	N 	0.01361 0.22856 0.48877 -0.11200
N 	N 	0.10453 0.75290 0.71672 -0.09500
C 	C 	0.01415 0.56891 0.98297 -0.00600
C 	C 	0.00697 0.61590 0.00591 0.08400
N 	N 	0.99968 0.65383 0.02399 -0.08800
N 	N 	0.03429 0.73651 0.95420 -0.11800
N 	N 	0.06689 0.84531 0.87872 -0.10300
C 	C 	0.01876 0.50148 0.90127 0.09400
O 	O 	0.09219 0.21515 0.74444 -0.36700
O 	O 	0.11670 0.01082 0.70725 -0.35900
Ni	Ni	0.04751 0.97427 0.21242 1.11400
O 	O 	0.07020 0.93502 0.24835 -0.37000
C 	C 	0.03937 0.22417 0.04548 -0.05200
C 	C 	0.06626 0.29096 0.02514 0.03600
C 	C 	0.05389 0.10835 0.13883 -0.07500
C 	C 	0.98567 0.67734 0.11058 -0.02800
C 	C 	0.96984 0.50999 0.09622 0.04400
C 	C 	0.99858 0.76408 0.11955 0.12600
C 	C 	0.96294 0.42420 0.08923 0.09200
N 	N 	0.98244 0.51256 0.18148 -0.09600
N 	N 	0.95760 0.35578 0.08366 -0.09400
N 	N 	0.00909 0.83327 0.12674 -0.12200
N 	N 	0.16327 0.37113 0.20414 -0.09900
C 	C 	0.08919 0.68683 0.34734 0.02500
C 	C 	0.06758 0.73147 0.32527 0.00900
C 	C 	0.04374 0.54965 0.32015 0.10400
C 	C 	0.03212 0.82590 0.28508 -0.07300
C 	C 	0.11267 0.81030 0.37828 0.10200
N 	N 	0.00704 0.50518 0.30220 -0.10400
N 	N 	0.10662 0.87306 0.38343 -0.10400
C 	C 	0.17742 0.63540 0.48874 -0.01900
H 	H 	0.21183 0.70365 0.48090 0.06100
C 	C 	0.09224 0.59964 0.96965 -0.05000
C 	C 	0.09293 0.57790 0.94244 -0.00300
N 	N 	0.02972 0.29426 0.79312 -0.10200
C 	C 	0.03739 0.59086 0.08587 -0.09200
C 	C 	0.04077 0.67375 0.09134 0.02300
C 	C 	0.14774 0.20232 0.75844 0.29000
C 	C 	0.15789 0.08862 0.69473 0.31100
O 	O 	0.15834 0.13070 0.75469 -0.35100
O 	O 	0.14453 0.15537 0.70133 -0.36700
C 	C 	0.14375 0.16620 0.23420 0.29300
O 	O 	0.14174 0.10651 0.21651 -0.35500
C 	C 	0.09838 0.20164 0.05640 0.02400
C 	C 	0.08741 0.16693 0.08466 0.02900
C 	C 	0.13458 0.22564 0.10552 -0.04200
C 	C 	0.12415 0.19266 0.13204 0.02800
C 	C 	0.10037 0.75523 0.07707 0.08000
C 	C 	0.20018 0.35327 0.21960 0.09900
C 	C 	0.12032 0.73169 0.37182 -0.03700
C 	C 	0.08968 0.60547 0.34262 -0.03800
C 	C 	0.13754 0.58064 0.35935 0.02300
C 	C 	0.16392 0.70334 0.38910 0.02200
C 	C 	0.19637 0.74880 0.41431 0.08000
C 	C 	0.12438 0.77255 0.30355 -0.03200
C 	C 	0.10328 0.81304 0.28245 0.02500
N 	N 	0.22247 0.78577 0.43433 -0.10800
C 	C 	0.17231 0.49399 0.50006 0.00400
C 	C 	0.21461 0.58019 0.48781 -0.04400
N 	N 	0.09638 0.87369 0.66216 -0.09900
H 	H 	0.15272 0.60303 0.93178 0.05700
C 	C 	0.09859 0.30738 0.79278 0.10000
C 	C 	0.10777 0.58978 0.07122 0.31900
O 	O 	0.12486 0.62065 0.04668 -0.38200
N 	N 	0.16668 0.28386 0.31835 -0.10500
C 	C 	0.18467 0.63795 0.38036 -0.07000
C 	C 	0.13605 0.49579 0.35551 0.09600
C 	C 	0.17113 0.63564 0.98516 0.30100
O 	O 	0.19790 0.71098 0.99862 -0.36900
O 	O 	0.17395 0.47062 0.04078 -0.37000
C 	C 	0.17551 0.22939 0.04241 -0.03900
C 	C 	0.15259 0.33879 0.01799 -0.08200
C 	C 	0.18929 0.32083 0.10005 0.11200
C 	C 	0.19012 0.24066 0.15142 0.09800
N 	N 	0.14752 0.82043 0.06568 -0.12000
C 	C 	0.22692 0.24041 0.24285 -0.06200
C 	C 	0.24632 0.33101 0.23906 0.02500
C 	C 	0.14971 0.83304 0.25724 0.10000
N 	N 	0.13411 0.42756 0.35240 -0.09800
C 	C 	0.21240 0.43892 0.50170 0.10300
C 	C 	0.15646 0.94370 0.66307 0.07700
C 	C 	0.18498 0.32435 0.79265 0.02000
C 	C 	0.21095 0.27798 0.77476 -0.06300
O 	O 	0.16228 0.57549 0.08446 -0.35700
N 	N 	0.02037 0.48511 0.87885 -0.09700
C 	C 	0.28742 0.60471 0.46955 0.27900
O 	O 	0.27353 0.55512 0.44771 -0.36600
C 	C 	0.19646 0.43784 0.02069 0.30700
C 	C 	0.19965 0.29456 0.02168 0.02500
C 	C 	0.23668 0.33928 0.32008 0.11300
C 	C 	0.20468 0.77334 0.30297 0.10500
N 	N 	0.18671 0.84875 0.23713 -0.09900
C 	C 	0.22995 0.10516 0.67628 -0.07200
O 	O 	0.22184 0.60284 0.98052 -0.37800
N 	N 	0.24334 0.27880 0.16676 -0.09400
N 	N 	0.26526 0.39558 0.39010 -0.11300
N 	N 	0.17451 0.19434 0.85375 -0.10300
C 	C 	0.27103 0.65397 0.38570 0.28300
C 	C 	0.23066 0.19428 0.05002 0.10400
N 	N 	0.20381 0.79031 0.13682 -0.10200
N 	N 	0.24452 0.39480 0.50299 -0.09600
C 	C 	0.23214 0.03104 0.66416 0.04000
O 	O 	0.28482 0.58436 0.38974 -0.35700
Ni	Ni	0.23919 0.72499 0.03676 1.12500
N 	N 	0.23263 0.39697 0.09576 -0.13500
C 	C 	0.28014 0.22163 0.25899 0.02200
C 	C 	0.30806 0.39921 0.25509 -0.03400
C 	C 	0.26922 0.13151 0.25999 0.09600
C 	C 	0.30393 0.42425 0.37045 0.08200
N 	N 	0.26084 0.05966 0.26084 -0.09000
C 	C 	0.29683 0.27239 0.68099 0.10300
N 	N 	0.29389 0.33606 0.68733 -0.09800
C 	C 	0.24239 0.38326 0.81164 -0.03400
C 	C 	0.29747 0.30132 0.77374 0.02200
C 	C 	0.21772 0.43269 0.82976 0.10500
N 	N 	0.19807 0.47215 0.84425 -0.10200
C 	C 	0.03464 0.08544 0.31188 0.08200
C 	C 	0.32601 0.49168 0.25213 0.10700
O 	O 	0.36542 0.65757 0.47869 -0.36000
Ni	Ni	0.26115 0.56637 0.06577 1.12100
O 	O 	0.26647 0.48969 0.00670 -0.36800
C 	C 	0.26056 0.30337 0.00148 0.09100
N 	N 	0.27485 0.16632 0.05612 -0.10300
N 	N 	0.34043 0.56555 0.24978 -0.10000
N 	N 	0.26870 0.77388 0.30255 -0.10300
C 	C 	0.30102 0.19294 0.67297 0.02600
N 	N 	0.25547 0.14028 0.59135 -0.09900
C 	C 	0.32875 0.26505 0.75315 0.10300
C 	C 	0.24237 0.25402 0.85634 0.10600
N 	N 	0.35429 0.23595 0.73695 -0.09800
O 	O 	0.26968 0.75453 0.07646 -0.35900
C 	C 	0.32408 0.40944 0.32215 -0.03800
C 	C 	0.03731 0.73009 0.70874 0.07100
Ni	Ni	0.36084 0.57674 0.41928 1.12500
O 	O 	0.33454 0.73740 0.38205 -0.35900
O 	O 	0.28987 0.65118 0.03728 -0.71500
C 	C 	0.27528 0.81724 0.13303 0.09800
N 	N 	0.08522 0.16043 0.38080 -0.09500
H 	H 	0.36328 0.70882 0.42636 0.15100
Ni	Ni	0.32158 0.62821 0.00312 1.12100
C 	C 	0.35215 0.45962 0.34576 0.03100
C 	C 	0.34903 0.37650 0.27507 0.02300
C 	C 	0.34210 0.29036 0.27492 -0.03300
C 	C 	0.30635 0.04355 0.65120 -0.01900
C 	C 	0.32194 0.38913 0.81428 0.02300
C 	C 	0.98294 0.09352 0.54866 0.12400
N 	N 	0.30839 0.30952 0.98502 -0.10000
N 	N 	0.41312 0.37746 0.41914 -0.09900
C 	C 	0.31142 0.96664 0.64112 0.08200
C 	C 	0.35309 0.35816 0.79338 -0.03400
O 	O 	0.97727 0.84197 0.20342 -0.36200
C 	C 	0.94655 0.55162 0.17717 0.11100
C 	C 	0.95323 0.18144 0.05564 0.12900
C 	C 	0.92092 0.59684 0.12222 0.02700
C 	C 	0.97731 0.78814 0.30762 0.03400
C 	C 	0.90956 0.51295 0.11358 -0.03900
N 	N 	0.93964 0.64797 0.24075 -0.09200
C 	C 	0.90163 0.60052 0.17173 -0.03400
C 	C 	0.87236 0.60164 0.14570 0.02400
C 	C 	0.89293 0.65331 0.19176 0.02800
C 	C 	0.77986 0.58049 0.93817 0.28900
C 	C 	0.62252 0.19049 0.97282 0.30800
C 	C 	0.85765 0.42503 0.93085 0.30800
C 	C 	0.55824 0.36946 0.98665 0.28200
C 	C 	0.61827 0.23428 0.88561 0.30800
C 	C 	0.52653 0.38301 0.89744 0.30100
Ni	Ni	0.72437 0.39522 0.96770 1.11500
Ni	Ni	0.54985 0.26775 0.93619 1.12400
Ni	Ni	0.70839 0.41910 0.90347 1.12700
O 	O 	0.79741 0.53458 0.95673 -0.35400
O 	O 	0.73432 0.54144 0.91656 -0.36000
O 	O 	0.54953 0.22199 0.89854 -0.36600
O 	O 	0.66717 0.26639 0.98592 -0.35000
O 	O 	0.60151 0.19240 0.94797 -0.37700
O 	O 	0.59868 0.39816 0.88543 -0.36300
O 	O 	0.79974 0.36125 0.94547 -0.36800
O 	O 	0.83339 0.45973 0.91147 -0.35200
O 	O 	0.50222 0.34161 0.92101 -0.37700
O 	O 	0.64060 0.41574 0.99064 -0.35700
O 	O 	0.52277 0.28891 0.97490 -0.35900
O 	O 	0.69296 0.29972 0.89228 -0.37200
O 	O 	0.65552 0.37595 0.93773 -0.71400
H 	H 	0.63592 0.41930 0.94147 0.16600
C 	C 	0.80876 0.21137 0.51747 0.28700
C 	C 	0.74448 0.48987 0.46796 0.30500
C 	C 	0.95532 0.46633 0.51210 0.31900
C 	C 	0.61491 0.24118 0.47032 0.28000
C 	C 	0.75904 0.49763 0.55869 0.31400
C 	C 	0.61026 0.25249 0.55950 0.29300
Ni	Ni	0.80052 0.35360 0.48058 1.11700
Ni	Ni	0.65835 0.37923 0.51390 1.12400
Ni	Ni	0.79871 0.35851 0.54573 1.12600
O 	O 	0.84379 0.26810 0.49661 -0.35100
O 	O 	0.78769 0.23665 0.54008 -0.36400
O 	O 	0.68396 0.45427 0.54753 -0.37000
O 	O 	0.76627 0.43382 0.45719 -0.34700
O 	O 	0.73875 0.49219 0.49391 -0.37600
O 	O 	0.68935 0.30394 0.56829 -0.37100
O 	O 	0.90828 0.46886 0.49267 -0.36100
O 	O 	0.92052 0.40834 0.53211 -0.36200
O 	O 	0.58620 0.26926 0.53610 -0.37900
O 	O 	0.68994 0.24762 0.46613 -0.35200
O 	O 	0.60787 0.31104 0.47896 -0.36900
O 	O 	0.82031 0.48417 0.55033 -0.38000
O 	O 	0.74096 0.34139 0.51288 -0.71400
H 	H 	0.70375 0.27556 0.51351 0.16100
C 	C 	0.93877 0.82610 0.71915 0.31900
C 	C 	0.92388 0.92132 0.78555 0.30300
C 	C 	0.90340 0.02566 0.67382 0.33000
C 	C 	0.86480 0.11481 0.73762 0.29500
Ni	Ni	0.87602 0.95087 0.72925 1.11900
O 	O 	0.84895 0.99040 0.69390 -0.38800
O 	O 	0.99341 0.85902 0.73875 -0.34800
O 	O 	0.91159 0.87577 0.70756 -0.38100
O 	O 	0.92622 0.15709 0.71913 -0.35300
O 	O 	0.84499 0.03435 0.74761 -0.36700
O 	O 	0.00722 0.96988 0.78250 -0.38800
O 	O 	0.87310 0.88531 0.76451 -0.36500
O 	O 	0.98471 0.07276 0.67833 -0.37300
O 	O 	0.99034 0.03835 0.73518 -0.70400
H 	H 	0.98517 0.06438 0.75222 0.17300
C 	C 	0.61979 0.84822 0.42108 0.30500
C 	C 	0.44574 0.60775 0.36738 0.31700
C 	C 	0.44147 0.89707 0.43502 0.30500
C 	C 	0.50900 0.60584 0.45031 0.29600
Ni	Ni	0.45783 0.77581 0.39189 1.11700
Ni	Ni	0.46666 0.74974 0.45653 1.12400
O 	O 	0.52919 0.68212 0.46221 -0.37800
O 	O 	0.57800 0.79956 0.40050 -0.37100
O 	O 	0.57879 0.85357 0.44237 -0.37000
O 	O 	0.44553 0.68327 0.36239 -0.35900
O 	O 	0.44622 0.58269 0.39206 -0.38100
O 	O 	0.47881 0.89248 0.41241 -0.36700
O 	O 	0.41954 0.83509 0.45424 -0.37500
O 	O 	0.42869 0.54819 0.44566 -0.36200
O 	O 	0.41397 0.70323 0.42301 -0.71800
C 	C 	0.41209 0.56551 0.03638 0.29700
C 	C 	0.33323 0.75098 0.08865 0.28400
C 	C 	0.40448 0.83281 0.00836 0.27500
O 	O 	0.35498 0.53090 0.05615 -0.34700
O 	O 	0.42145 0.63623 0.02274 -0.37600
O 	O 	0.38519 0.76241 0.99231 -0.35800
O 	O 	0.34774 0.83334 0.02529 -0.37300
O 	O 	0.33737 0.67520 0.08963 -0.34800
H 	H 	0.34677 0.69675 0.04290 0.15700
C 	C 	0.89279 0.04002 0.27766 0.30100
C 	C 	0.78054 0.97116 0.20962 0.30200
C 	C 	0.89615 0.80022 0.19712 0.31000
Ni	Ni	0.96127 0.10004 0.22054 1.12400
Ni	Ni	0.86659 0.89207 0.24123 1.12700
O 	O 	0.89133 0.08526 0.25591 -0.34800
O 	O 	0.87704 0.95526 0.27627 -0.36900
O 	O 	0.92885 0.82870 0.25524 -0.35800
O 	O 	0.85222 0.02988 0.19829 -0.35200
O 	O 	0.78025 0.93118 0.23221 -0.36600
O 	O 	0.84574 0.82956 0.20596 -0.37500
O 	O 	0.96725 0.99698 0.22991 -0.73100
C 	C 	0.92539 0.96962 0.12448 0.09600
N 	N 	0.86276 0.90458 0.12948 -0.09300
N 	N 	0.95472 0.96035 0.05294 -0.11500
N 	N 	0.88438 0.14715 0.06376 -0.09800
C 	C 	0.53900 0.91990 0.11895 -0.03700
C 	C 	0.50972 0.92742 0.14449 0.02500
C 	C 	0.42386 0.90198 0.14817 -0.03800
C 	C 	0.36486 0.85093 0.12836 0.02400
C 	C 	0.39300 0.82782 0.10477 -0.07000
C 	C 	0.48054 0.86795 0.09924 0.02100
C 	C 	0.56333 0.93960 0.16817 0.01100
C 	C 	0.39599 0.92400 0.17289 0.10300
C 	C 	0.51014 0.84948 0.07424 0.08000
C 	C 	0.62599 0.02666 0.17554 -0.02200
C 	C 	0.69433 0.03742 0.19137 0.03900
C 	C 	0.70007 0.96082 0.19930 -0.08300
C 	C 	0.62966 0.87406 0.19599 0.02800
C 	C 	0.56139 0.86348 0.18024 -0.03200
C 	C 	0.62128 0.10478 0.16617 0.11000
C 	C 	0.62741 0.79603 0.20869 0.09700
C 	C 	0.75664 0.12634 0.20032 0.09200
C 	C 	0.49092 0.77415 0.17541 0.10900
C 	C 	0.62914 0.96018 0.11372 0.10400
N 	N 	0.80636 0.19728 0.20748 -0.10000
N 	N 	0.61741 0.16709 0.15868 -0.09600
N 	N 	0.62549 0.73374 0.21884 -0.09900
N 	N 	0.43465 0.70293 0.17153 -0.09900
N 	N 	0.37381 0.94162 0.19264 -0.10300
N 	N 	0.53415 0.83455 0.05441 -0.10200
N 	N 	0.70109 0.99232 0.10958 -0.10100
C 	C 	0.83688 0.43012 0.12291 0.10900
C 	C 	0.81536 0.63455 0.14208 -0.03500
C 	C 	0.80912 0.68979 0.16191 0.02500
C 	C 	0.85934 0.70979 0.18500 -0.07200
C 	C 	0.76925 0.61777 0.11725 0.10900
C 	C 	0.91893 0.65050 0.21900 0.10100
C 	C 	0.74950 0.72247 0.15909 0.10500
N 	N 	0.70158 0.74825 0.15670 -0.09500
N 	N 	0.73245 0.60434 0.09740 -0.10100
N 	N 	0.77886 0.36403 0.13038 -0.09800
C 	C 	0.81529 0.06761 0.40655 -0.04900
C 	C 	0.84982 0.03579 0.38693 0.04800
C 	C 	0.83431 0.94668 0.38936 -0.05700
C 	C 	0.76192 0.88267 0.40338 0.03400
C 	C 	0.71184 0.91131 0.41772 -0.09600
C 	C 	0.74491 0.00497 0.42195 0.04400
C 	C 	0.87520 0.08169 0.36016 0.01700
C 	C 	0.89296 0.92141 0.37782 0.11400
C 	C 	0.70385 0.03656 0.44054 0.09400
C 	C 	0.95521 0.10492 0.34937 -0.02000
C 	C 	0.96327 0.09337 0.32177 0.03400
C 	C 	0.89630 0.07782 0.30441 -0.06900
C 	C 	0.82466 0.07961 0.31472 0.02600
C 	C 	0.81229 0.07798 0.34272 -0.03100
C 	C 	0.02748 0.13575 0.36684 0.10000
C 	C 	0.76122 0.07692 0.29663 0.10200
C 	C 	0.73323 0.06681 0.35347 0.10500
C 	C 	0.84830 0.16361 0.40952 0.11200
C 	C 	0.73295 0.78749 0.39990 0.08900
N 	N 	0.71065 0.07475 0.28215 -0.09200
N 	N 	0.67008 0.05785 0.36203 -0.10800
N 	N 	0.94016 0.90137 0.36876 -0.10200
N 	N 	0.71008 0.71178 0.39664 -0.09600
N 	N 	0.67104 0.06194 0.45534 -0.09500
N 	N 	0.87467 0.24035 0.41189 -0.11000
C 	C 	0.46000 0.50933 0.30059 -0.03700
C 	C 	0.37884 0.43228 0.29976 0.02600
C 	C 	0.42826 0.54277 0.34548 -0.08000
C 	C 	0.48357 0.56648 0.32311 0.03000
C 	C 	0.56510 0.64816 0.32354 0.09200
C 	C 	0.39547 0.27147 0.29223 0.10800
C 	C 	0.51852 0.53012 0.27829 0.10800
N 	N 	0.43812 0.25649 0.30607 -0.09900
N 	N 	0.63016 0.71339 0.32390 -0.09700
N 	N 	0.56519 0.54665 0.26047 -0.10100
C 	C 	0.90522 0.80211 0.31127 0.09400
C 	C 	0.92984 0.68664 0.34742 0.11000
N 	N 	0.84732 0.81248 0.31432 -0.09700
N 	N 	0.88015 0.64736 0.36406 -0.09800
C 	C 	0.54010 0.16224 0.45985 -0.04000
C 	C 	0.48755 0.09338 0.47776 -0.02500
C 	C 	0.43796 0.00524 0.46859 0.06100
C 	C 	0.44735 0.98487 0.44178 -0.09800
C 	C 	0.48531 0.05638 0.42311 0.02900
C 	C 	0.53283 0.14512 0.43210 -0.00200
H 	H 	0.49087 0.10673 0.49905 0.06500
H 	H 	0.48451 0.04238 0.40189 0.05600
C 	C 	0.57841 0.21726 0.41291 0.10100
C 	C 	0.37569 0.93765 0.48638 0.07400
N 	N 	0.61499 0.27499 0.39751 -0.09900
N 	N 	0.32581 0.88367 0.50069 -0.09700
C 	C 	0.04836 0.51121 0.50792 -0.07900
C 	C 	0.05653 0.65867 0.49858 0.09200
N 	N 	0.02636 0.70477 0.49869 -0.09300
C 	C 	0.57582 0.57888 0.44771 -0.05300
C 	C 	0.65966 0.64246 0.45435 -0.00500
C 	C 	0.72243 0.61764 0.45552 0.01200
C 	C 	0.70114 0.52734 0.45179 -0.06200
C 	C 	0.62206 0.46783 0.44078 -0.00900
C 	C 	0.55861 0.49233 0.43901 0.00900
H 	H 	0.67609 0.71145 0.45870 0.05700
H 	H 	0.60772 0.40020 0.43551 0.06500
C 	C 	0.47777 0.42882 0.42799 0.10100
C 	C 	0.80800 0.68440 0.46204 0.09800
N 	N 	0.87656 0.73795 0.46727 -0.09000
C 	C 	0.74973 0.00935 0.55287 -0.01000
C 	C 	0.83249 0.03465 0.56137 0.01600
C 	C 	0.90067 0.08420 0.54340 -0.03200
C 	C 	0.88893 0.12957 0.52141 0.01700
C 	C 	0.81022 0.12572 0.51840 -0.06200
C 	C 	0.73899 0.05114 0.52987 0.01400
C 	C 	0.84932 0.03178 0.59060 0.04600
C 	C 	0.65506 0.02875 0.52112 0.09300
C 	C 	0.82876 0.94916 0.60337 -0.05000
C 	C 	0.83515 0.94533 0.63150 0.01600
C 	C 	0.87261 0.02543 0.64639 -0.06000
C 	C 	0.89090 0.10759 0.63388 0.03000
C 	C 	0.87947 0.11094 0.60604 -0.03800
C 	C 	0.80198 0.86859 0.58760 0.10800
C 	C 	0.91933 0.18821 0.64981 0.08800
C 	C 	0.79813 0.85911 0.64526 0.09700
C 	C 	0.89984 0.19606 0.59324 0.11300
C 	C 	0.67714 0.94780 0.56899 0.08100
C 	C 	0.95823 0.18463 0.50330 0.11300
N 	N 	0.76809 0.79026 0.65631 -0.10400
N 	N 	0.78042 0.80427 0.57499 -0.10700
N 	N 	0.94197 0.25257 0.66249 -0.09700
N 	N 	0.91640 0.26414 0.58308 -0.11100
N 	N 	0.58784 0.01071 0.51423 -0.10500
N 	N 	0.61918 0.89870 0.58189 -0.10100
C 	C 	0.37439 0.13090 0.64693 0.02100
C 	C 	0.37483 0.20394 0.66003 -0.03400
C 	C 	0.43187 0.14840 0.62348 0.02800
C 	C 	0.45166 0.29036 0.66044 0.11200
C 	C 	0.40433 0.15488 0.59763 -0.03300
C 	C 	0.45753 0.17073 0.57528 0.02600
C 	C 	0.54286 0.19229 0.57914 -0.06500
C 	C 	0.56550 0.17177 0.60425 0.02400
C 	C 	0.51117 0.15306 0.62669 -0.03300
C 	C 	0.32150 0.14677 0.59411 0.10800
C 	C 	0.64064 0.16283 0.60645 0.09600
C 	C 	0.42280 0.15979 0.54859 0.09800
C 	C 	0.53707 0.13969 0.65298 0.11200
N 	N 	0.39406 0.15115 0.52744 -0.10000
N 	N 	0.70056 0.15553 0.60820 -0.10100
N 	N 	0.55771 0.12903 0.67398 -0.09700
N 	N 	0.51293 0.35948 0.66096 -0.09800
N 	N 	0.31556 0.90534 0.63306 -0.10000
C 	C 	0.85458 0.65337 0.61736 -0.03500
C 	C 	0.81674 0.58995 0.63863 0.02300
C 	C 	0.75149 0.50235 0.63281 -0.03600
C 	C 	0.71813 0.48318 0.60691 0.02200
C 	C 	0.76668 0.53817 0.58531 -0.07900
C 	C 	0.83433 0.62492 0.59057 0.02800
C 	C 	0.83981 0.61796 0.66707 0.03200
C 	C 	0.72153 0.43144 0.65296 0.10700
C 	C 	0.88172 0.68510 0.56857 0.09900
C 	C 	0.78291 0.62867 0.68413 -0.03700
C 	C 	0.81385 0.68178 0.70721 0.03400
C 	C 	0.90169 0.73090 0.71138 -0.08200
C 	C 	0.95325 0.70161 0.69877 0.05600
C 	C 	0.92258 0.64557 0.67612 -0.05000
C 	C 	0.69498 0.59221 0.67678 0.11300
C 	C 	0.75685 0.69380 0.72502 0.08400
C 	C 	0.97625 0.61903 0.66171 0.13500
C 	C 	0.90928 0.74794 0.62296 0.11100
C 	C 	0.62920 0.42084 0.60338 0.10300
N 	N 	0.71126 0.70343 0.73922 -0.10200
N 	N 	0.62486 0.56360 0.67092 -0.09700
N 	N 	0.01911 0.59784 0.65017 -0.12100
N 	N 	0.69773 0.37474 0.66906 -0.10000
N 	N 	0.55770 0.37216 0.60053 -0.10100
N 	N 	0.91953 0.73312 0.55100 -0.08700
N 	N 	0.95258 0.82376 0.62720 -0.09900
C 	C 	0.93982 0.48321 0.94376 -0.06000
C 	C 	0.94020 0.50393 0.97101 0.02800
H 	H 	0.88145 0.47398 0.98244 0.00700
C 	C 	0.59226 0.10151 0.98628 -0.07200
C 	C 	0.58607 0.02914 0.97107 0.02500
C 	C 	0.53180 0.93941 0.97923 -0.02100
C 	C 	0.48260 0.92168 0.00296 -0.03300
C 	C 	0.50092 0.99392 0.02033 -0.03800
C 	C 	0.55333 0.08341 0.01187 0.03500
H 	H 	0.62067 0.04271 0.95224 0.06200
H 	H 	0.47014 0.98071 0.03985 0.06100
C 	C 	0.56305 0.15577 0.02907 0.09600
C 	C 	0.53207 0.86739 0.96418 0.10700
N 	N 	0.57071 0.21366 0.04287 -0.09600
N 	N 	0.53258 0.80985 0.95210 -0.10400
C 	C 	0.50531 0.40523 0.99764 -0.04800
C 	C 	0.47803 0.38664 0.02454 -0.00600
C 	C 	0.44984 0.43966 0.03798 0.01200
C 	C 	0.44454 0.50916 0.02383 -0.06000
C 	C 	0.46726 0.52342 0.99656 0.00400
C 	C 	0.50054 0.47511 0.98384 0.00600
H 	H 	0.48347 0.33446 0.03547 0.06200
H 	H 	0.46129 0.57457 0.98524 0.04200
C 	C 	0.53655 0.50382 0.95739 0.08600
C 	C 	0.43199 0.42572 0.06640 0.10100
N 	N 	0.56567 0.52938 0.93630 -0.10800
N 	N 	0.41788 0.41433 0.08919 -0.09400
C 	C 	0.67952 0.12424 0.83190 -0.03400
C 	C 	0.66308 0.16307 0.80926 0.02400
C 	C 	0.60837 0.19925 0.81177 -0.03400
C 	C 	0.57847 0.20578 0.83736 0.02100
C 	C 	0.61070 0.18543 0.86046 -0.07300
C 	C 	0.65535 0.13764 0.85765 0.02700
C 	C 	0.70635 0.16914 0.78319 0.02600
C 	C 	0.58326 0.22988 0.78813 0.10700
C 	C 	0.67789 0.10420 0.88123 0.09900
C 	C 	0.66894 0.09832 0.76465 -0.03800
C 	C 	0.71949 0.09075 0.74439 0.02200
C 	C 	0.80739 0.15057 0.74397 -0.06200
C 	C 	0.83869 0.23242 0.75764 0.02300
C 	C 	0.78931 0.24053 0.77826 -0.03300
C 	C 	0.58010 0.03176 0.76716 0.13000
C 	C 	0.91802 0.30919 0.74924 0.10500
C 	C 	0.68231 0.02008 0.72464 0.11600
C 	C 	0.82435 0.31994 0.79491 0.11100
C 	C 	0.71877 0.06858 0.82855 0.11200
C 	C 	0.51149 0.22808 0.83978 0.10000
N 	N 	0.65268 0.96367 0.70885 -0.11400
N 	N 	0.50913 0.97864 0.76919 -0.12200
N 	N 	0.98132 0.37064 0.74242 -0.09000
N 	N 	0.85226 0.38331 0.80824 -0.09800
N 	N 	0.56326 0.25418 0.76921 -0.09700
N 	N 	0.45736 0.24515 0.84140 -0.10100
N 	N 	0.69601 0.07750 0.90003 -0.09300
N 	N 	0.74963 0.02369 0.82581 -0.10000
C 	C 	0.36018 0.40194 0.84126 0.02400
C 	C 	0.43782 0.47949 0.84658 -0.03500
C 	C 	0.49071 0.47650 0.86668 0.02300
C 	C 	0.46429 0.39650 0.88179 -0.06500
C 	C 	0.37932 0.32604 0.87994 0.02600
C 	C 	0.32749 0.32889 0.85957 -0.03400
C 	C 	0.46421 0.56091 0.83080 0.10600
C 	C 	0.34685 0.24810 0.89774 0.09700
C 	C 	0.57071 0.55588 0.87225 0.09600
C 	C 	0.44154 0.38184 0.79278 0.11000
N 	N 	0.63444 0.61955 0.87671 -0.10000
N 	N 	0.48524 0.62587 0.81818 -0.10200
N 	N 	0.32078 0.18583 0.91190 -0.10300
N 	N 	0.51220 0.40100 0.79233 -0.10000
C 	C 	0.92299 0.77985 0.90447 -0.00900
C 	C 	0.85945 0.79817 0.89537 0.01600
C 	C 	0.78951 0.77723 0.91242 -0.02600
C 	C 	0.77631 0.72254 0.93534 0.01900
C 	C 	0.82525 0.67999 0.93847 -0.05900
C 	C 	0.90726 0.72477 0.92739 0.00600
C 	C 	0.86069 0.82687 0.86691 0.02600
C 	C 	0.73147 0.81000 0.90622 0.10900
C 	C 	0.97700 0.72981 0.94235 0.12000
C 	C 	0.84335 0.76454 0.84605 -0.03400
C 	C 	0.85920 0.79442 0.81910 0.02400
C 	C 	0.89038 0.88649 0.81283 -0.06200
C 	C 	0.90293 0.94771 0.83360 0.00300
C 	C 	0.88902 0.91821 0.86060 -0.02100
C 	C 	0.81460 0.67056 0.85242 0.11600
C 	C 	0.93308 0.04181 0.82723 0.12300
C 	C 	0.85004 0.73171 0.79811 0.10200
C 	C 	0.90741 0.98255 0.88193 0.08600
C 	C 	0.00300 0.81623 0.89018 0.07500
C 	C 	0.71750 0.71466 0.95624 0.09500
N 	N 	0.84298 0.68150 0.78147 -0.09400
N 	N 	0.79195 0.59563 0.85744 -0.11800
N 	N 	0.95711 0.11696 0.82222 -0.09700
N 	N 	0.92205 0.03386 0.89896 -0.08000
N 	N 	0.68509 0.83622 0.90126 -0.10200
N 	N 	0.67080 0.70898 0.97304 -0.10000
