data_crystal

_cell_length_a 26.25476
_cell_length_b 27.56647
_cell_length_c 47.00218
_cell_angle_alpha 60.72577
_cell_angle_beta  118.98319
_cell_angle_gamma 133.30061

_symmetry_space_group_name_	'P 1'
_symmetry_space_group_name_H-M	'P 1'

loop_
_symmetry_equiv_pos_as_xyz
  x,y,z

loop_
_atom_site_label
_atom_site_type_symbol
_atom_site_fract_x
_atom_site_fract_y
_atom_site_fract_z
_atom_site_charge
C 	C 	0.69644 0.20822 0.08934 -0.01100
C 	C 	0.73302 0.27721 0.08776 -0.04300
C 	C 	0.70581 0.29491 0.09739 -0.01200
C 	C 	0.64053 0.24418 0.10731 -0.04200
C 	C 	0.60242 0.17535 0.10805 -0.00800
C 	C 	0.63218 0.15715 0.10044 -0.04600
H 	H 	0.61784 0.25904 0.11277 0.04300
H 	H 	0.60481 0.10362 0.10254 0.03800
C 	C 	0.76611 0.36913 0.49623 -0.00900
C 	C 	0.69808 0.32425 0.50365 -0.04100
C 	C 	0.67422 0.34920 0.51048 -0.01000
C 	C 	0.71988 0.41774 0.51213 -0.04300
C 	C 	0.78843 0.46195 0.50607 -0.01000
C 	C 	0.81032 0.43863 0.49676 -0.04400
H 	H 	0.66427 0.27015 0.50478 0.03900
H 	H 	0.70303 0.43608 0.51922 0.04300
C 	C 	0.22166 0.60507 0.16252 -0.00600
C 	C 	0.17458 0.53993 0.15558 -0.04000
C 	C 	0.20043 0.51706 0.14853 -0.00900
C 	C 	0.27338 0.55856 0.14881 -0.04100
C 	C 	0.32097 0.62236 0.15663 -0.00800
C 	C 	0.29519 0.64545 0.16343 -0.04300
H 	H 	0.11837 0.50691 0.15578 0.04400
H 	H 	0.29285 0.54126 0.14279 0.04200
H 	H 	0.33287 0.69424 0.17005 0.04000
C 	C 	0.30536 0.68267 0.65811 -0.00700
C 	C 	0.25158 0.61713 0.65112 -0.04300
C 	C 	0.26966 0.58702 0.64412 -0.00700
C 	C 	0.34050 0.62269 0.64327 -0.04300
C 	C 	0.39401 0.68787 0.64982 -0.00800
C 	C 	0.37678 0.71737 0.65773 -0.04100
H 	H 	0.19622 0.59004 0.65085 0.04300
H 	H 	0.35415 0.59908 0.63800 0.04500
H 	H 	0.41889 0.76710 0.66361 0.04100
Co	Co	0.01252 0.97586 0.05588 1.19100
Co	Co	0.96866 0.03284 0.08152 1.17300
C 	C 	0.12976 0.96333 0.07481 0.27500
Co	Co	0.98561 0.85164 0.04421 1.15400
O 	O 	0.03599 0.06150 0.05779 -0.45500
C 	C 	0.03319 0.12827 0.12010 0.30800
C 	C 	0.03475 0.80529 0.11968 0.27700
O 	O 	0.95889 0.90349 0.99682 -0.38100
O 	O 	0.96793 0.11155 0.11079 -0.42700
O 	O 	0.04404 0.09237 0.11585 -0.38500
O 	O 	0.00821 0.79179 0.09035 -0.38700
O 	O 	0.02858 0.84487 0.12387 -0.38800
O 	O 	0.96468 0.89035 0.06309 -0.77300
O 	O 	0.09290 0.93644 0.04884 -0.39800
O 	O 	0.10839 0.98685 0.08201 -0.39600
Co	Co	0.10254 0.05118 0.55705 1.18800
Co	Co	0.04840 0.10491 0.57796 1.19200
C 	C 	0.24634 0.07837 0.57286 0.26700
Co	Co	0.11779 0.93756 0.56409 1.16800
O 	O 	0.10086 0.13052 0.54700 -0.46200
C 	C 	0.11940 0.21739 0.60720 0.27500
C 	C 	0.14257 0.88538 0.63797 0.27600
O 	O 	0.12833 0.00637 0.51717 -0.40400
O 	O 	0.05333 0.19292 0.60358 -0.39000
O 	O 	0.13168 0.18273 0.60282 -0.38800
O 	O 	0.11403 0.86697 0.61009 -0.39200
O 	O 	0.13066 0.92232 0.64043 -0.38500
O 	O 	0.07968 0.97108 0.57517 -0.76900
O 	O 	0.22137 0.01300 0.58361 -0.38700
O 	O 	0.21310 0.09839 0.57346 -0.38600
C 	C 	0.13838 0.08824 0.77095 -0.06400
C 	C 	0.13632 0.09006 0.74015 0.01800
C 	C 	0.07628 0.99217 0.87517 -0.03400
C 	C 	0.08405 0.99068 0.84821 -0.04300
C 	C 	0.08820 0.04089 0.95580 -0.00600
C 	C 	0.10360 0.05389 0.92715 -0.06200
H 	H 	0.18123 0.13306 0.78118 0.04700
H 	H 	0.17709 0.13669 0.72665 0.03400
H 	H 	0.08071 0.95839 0.89962 0.04000
H 	H 	0.09490 0.95613 0.85209 0.04400
H 	H 	0.13039 0.05233 0.97857 0.03900
H 	H 	0.15781 0.07648 0.92785 0.04700
C 	C 	0.04814 0.98788 0.27209 -0.05200
C 	C 	0.03772 0.98622 0.24032 0.04400
C 	C 	0.06008 0.96667 0.37471 -0.05900
C 	C 	0.05122 0.95223 0.34727 0.00300
C 	C 	0.10514 0.06753 0.44166 0.01000
C 	C 	0.09030 0.05610 0.41178 -0.05700
H 	H 	0.09926 0.02894 0.28328 0.05000
H 	H 	0.08055 0.02667 0.22708 0.03500
H 	H 	0.10228 0.96878 0.39697 0.04700
H 	H 	0.08681 0.94355 0.34851 0.03400
H 	H 	0.15694 0.11213 0.44994 0.03300
H 	H 	0.13020 0.09263 0.39691 0.04700
C 	C 	0.17986 0.44755 0.61280 0.07200
C 	C 	0.18863 0.43387 0.59096 -0.08100
C 	C 	0.20825 0.38913 0.60460 0.01000
C 	C 	0.21728 0.35795 0.63869 0.07900
C 	C 	0.20937 0.37236 0.66057 -0.09000
C 	C 	0.18889 0.41642 0.64686 0.02600
N 	N 	0.19484 0.50844 0.60750 -0.16800
C 	C 	0.21497 0.51758 0.63802 0.07500
C 	C 	0.21107 0.46074 0.66307 -0.08700
N 	N 	0.20023 0.29617 0.64384 -0.15200
C 	C 	0.17834 0.28626 0.61328 0.00100
C 	C 	0.18409 0.34394 0.58834 -0.04200
H 	H 	0.18098 0.45765 0.56430 0.05400
H 	H 	0.21695 0.34857 0.68723 0.05500
H 	H 	0.24350 0.46293 0.68855 0.05500
H 	H 	0.15146 0.34224 0.56287 0.04700
H 	H 	0.21141 0.54894 0.58631 0.08600
H 	H 	0.18338 0.25594 0.66508 0.08700
C 	C 	0.58124 0.76628 0.66787 0.06900
C 	C 	0.65309 0.81894 0.67892 -0.08000
C 	C 	0.70052 0.85598 0.65860 0.00500
C 	C 	0.67818 0.84016 0.62896 0.07900
C 	C 	0.60648 0.78763 0.61782 -0.09100
C 	C 	0.55872 0.75039 0.63808 0.02800
N 	N 	0.52567 0.74925 0.67460 -0.16900
C 	C 	0.46851 0.72477 0.64884 0.07600
C 	C 	0.48646 0.72330 0.62604 -0.09200
N 	N 	0.73405 0.85842 0.62191 -0.15100
H 	H 	0.67098 0.83130 0.70212 0.04900
H 	H 	0.58878 0.77552 0.59457 0.05600
H 	H 	0.45655 0.72060 0.60029 0.05400
H 	H 	0.53031 0.76786 0.69111 0.08200
H 	H 	0.73523 0.86472 0.59838 0.08700
C 	C 	0.30788 0.79084 0.68122 0.06900
C 	C 	0.31957 0.85299 0.67451 -0.08000
C 	C 	0.27239 0.85030 0.68248 0.00900
C 	C 	0.20933 0.78775 0.69120 0.08200
C 	C 	0.19337 0.72553 0.69388 -0.08900
C 	C 	0.24680 0.72822 0.69168 0.02700
N 	N 	0.33272 0.78278 0.66580 -0.16900
C 	C 	0.28754 0.71534 0.66593 0.07500
C 	C 	0.23391 0.67954 0.68224 -0.08700
N 	N 	0.15800 0.79638 0.68141 -0.15100
C 	C 	0.18712 0.86390 0.66616 0.00300
C 	C 	0.25849 0.89895 0.66666 -0.04400
H 	H 	0.36080 0.90090 0.66164 0.05000
H 	H 	0.14011 0.67781 0.69550 0.05900
H 	H 	0.18299 0.62985 0.67967 0.05500
H 	H 	0.28634 0.94574 0.64824 0.04700
H 	H 	0.36589 0.82230 0.64899 0.08100
H 	H 	0.10278 0.75718 0.67634 0.09200
C 	C 	0.11732 0.34606 0.15185 0.07200
C 	C 	0.12707 0.29363 0.17002 -0.07900
C 	C 	0.13709 0.27154 0.15304 0.00900
C 	C 	0.13747 0.30078 0.11917 0.08200
C 	C 	0.12960 0.35452 0.10129 -0.09000
C 	C 	0.11724 0.37491 0.11801 0.02900
N 	N 	0.13776 0.39119 0.16589 -0.16800
C 	C 	0.15106 0.44907 0.14121 0.07700
C 	C 	0.13917 0.44092 0.11108 -0.08800
N 	N 	0.11260 0.25417 0.10469 -0.14900
C 	C 	0.09448 0.19458 0.12870 -0.00400
C 	C 	0.10991 0.20390 0.15921 -0.03900
H 	H 	0.12645 0.27057 0.19637 0.05500
H 	H 	0.13015 0.37765 0.07494 0.05900
H 	H 	0.16555 0.48294 0.09102 0.05600
H 	H 	0.08208 0.16278 0.17900 0.05100
H 	H 	0.16114 0.39029 0.19141 0.08700
H 	H 	0.08917 0.25648 0.07906 0.09200
C 	C 	0.49697 0.69114 0.15844 0.07000
C 	C 	0.53535 0.67922 0.15310 -0.08000
C 	C 	0.57514 0.72791 0.12838 0.00800
C 	C 	0.57641 0.78637 0.10961 0.08000
C 	C 	0.53599 0.79693 0.11429 -0.09100
C 	C 	0.49838 0.74953 0.13975 0.02700
N 	N 	0.43595 0.64027 0.16940 -0.16900
C 	C 	0.39821 0.66583 0.15763 0.07600
C 	C 	0.43510 0.73350 0.13900 -0.09200
N 	N 	0.63975 0.83872 0.10083 -0.15200
C 	C 	0.64102 0.74599 0.13130 -0.03900
H 	H 	0.53474 0.63399 0.16783 0.05200
H 	H 	0.53642 0.84206 0.09958 0.05400
H 	H 	0.40968 0.75824 0.11937 0.05400
H 	H 	0.66571 0.72131 0.15196 0.05000
H 	H 	0.41382 0.58799 0.17675 0.08300
H 	H 	0.66153 0.89062 0.09495 0.08500
C 	C 	0.13957 0.74407 0.17735 0.08600
C 	C 	0.20088 0.75184 0.18073 -0.09200
C 	C 	0.19334 0.69269 0.18594 0.02900
C 	C 	0.12569 0.63065 0.18230 0.06900
C 	C 	0.06339 0.62542 0.17438 -0.07100
C 	C 	0.07210 0.68138 0.17483 -0.00200
N 	N 	0.13289 0.79608 0.16173 -0.15100
C 	C 	0.06168 0.76734 0.14905 -0.00800
C 	C 	0.02232 0.69614 0.15654 -0.00400
N 	N 	0.12691 0.59250 0.17287 -0.16700
C 	C 	0.19497 0.63031 0.17005 0.07600
C 	C 	0.23785 0.69287 0.17809 -0.08900
H 	H 	0.25119 0.80240 0.17731 0.05700
H 	H 	0.01055 0.58139 0.16623 0.05700
H 	H 	0.97020 0.66388 0.14146 0.01700
H 	H 	0.28565 0.73907 0.16908 0.05200
H 	H 	0.17335 0.84661 0.15214 0.09000
H 	H 	0.08143 0.55429 0.16017 0.08600
C 	C 	0.79452 0.26879 0.48603 0.06800
C 	C 	0.77576 0.20184 0.49701 -0.08000
N 	N 	0.75009 0.28141 0.48233 -0.16900
C 	C 	0.79239 0.34391 0.48854 0.07400
H 	H 	0.72033 0.15825 0.49124 0.05100
H 	H 	0.69572 0.24386 0.48267 0.08100
C 	C 	0.88399 0.59622 0.54309 0.06600
C 	C 	0.88322 0.60697 0.56909 -0.08300
N 	N 	0.86785 0.53689 0.54495 -0.16900
C 	C 	0.84007 0.53009 0.51317 0.07300
H 	H 	0.89584 0.58181 0.59503 0.04700
H 	H 	0.85632 0.49545 0.56615 0.08100
C 	C 	0.39373 0.19672 0.53601 0.08000
C 	C 	0.44173 0.26017 0.51734 -0.09000
C 	C 	0.51263 0.28159 0.52617 0.02700
C 	C 	0.53443 0.24106 0.55226 0.06800
C 	C 	0.48648 0.17811 0.57119 -0.07800
C 	C 	0.41545 0.15636 0.56193 0.00600
N 	N 	0.33695 0.18172 0.54046 -0.15300
C 	C 	0.32063 0.13029 0.56871 0.00300
C 	C 	0.37047 0.11531 0.58339 -0.04200
N 	N 	0.58864 0.25347 0.54681 -0.16900
C 	C 	0.60279 0.30245 0.51775 0.07600
C 	C 	0.55517 0.31975 0.50380 -0.09000
H 	H 	0.42468 0.29150 0.49684 0.05600
H 	H 	0.50321 0.14644 0.59157 0.05000
H 	H 	0.36399 0.06951 0.60248 0.04800
H 	H 	0.56074 0.36425 0.48371 0.05400
H 	H 	0.30156 0.19355 0.52149 0.08500
H 	H 	0.62300 0.23969 0.56494 0.08100
C 	C 	0.71591 0.11850 0.03006 -0.09300
C 	C 	0.72873 0.13896 0.05614 0.02500
C 	C 	0.72392 0.18936 0.07847 0.07400
C 	C 	0.68108 0.13882 0.06124 -0.09200
H 	H 	0.66183 0.07957 0.01914 0.05300
H 	H 	0.62663 0.12029 0.04631 0.05200
C 	C 	0.73473 0.45375 0.06903 0.06900
C 	C 	0.75326 0.51776 0.04662 -0.08000
N 	N 	0.72927 0.40725 0.06307 -0.17000
C 	C 	0.74093 0.36749 0.09327 0.07400
H 	H 	0.73982 0.52464 0.01984 0.05000
H 	H 	0.70312 0.39359 0.04023 0.08300
C 	C 	0.29106 0.97792 0.10426 0.07500
C 	C 	0.34190 0.99662 0.09109 -0.09000
C 	C 	0.41008 0.05879 0.09470 0.02600
C 	C 	0.42941 0.09780 0.11317 0.07200
C 	C 	0.38043 0.07812 0.12782 -0.08100
C 	C 	0.31032 0.01802 0.12254 0.00900
N 	N 	0.22091 0.94639 0.08860 -0.15200
C 	C 	0.19542 0.96715 0.09582 -0.00600
C 	C 	0.24911 0.01127 0.11700 -0.03800
N 	N 	0.50119 0.13732 0.12464 -0.16900
C 	C 	0.52850 0.12381 0.11360 0.07400
C 	C 	0.47264 0.07372 0.09543 -0.08900
H 	H 	0.32740 0.96582 0.07692 0.05300
H 	H 	0.39542 0.10952 0.14179 0.05300
H 	H 	0.24981 0.04974 0.11848 0.05200
H 	H 	0.47809 0.06298 0.07816 0.05100
H 	H 	0.19810 0.92865 0.06732 0.08600
H 	H 	0.52818 0.15978 0.14466 0.08200
H 	H 	0.78135 0.31720 0.07825 0.03700
H 	H 	0.86229 0.47417 0.49066 0.03800
Co	Co	0.90265 0.90179 0.12868 1.18400
Co	Co	0.93802 0.84367 0.09921 1.17800
Co	Co	0.87939 0.00979 0.12176 1.16400
C 	C 	0.85021 0.72830 0.06588 0.26700
O 	O 	0.82623 0.01899 0.07178 -0.38800
O 	O 	0.91013 0.97476 0.10646 -0.76600
C 	C 	0.86169 0.06917 0.04831 0.26900
O 	O 	0.91364 0.82866 0.13893 -0.47900
C 	C 	0.75869 0.86092 0.12298 0.27600
O 	O 	0.92775 0.93000 0.08077 -0.58200
C 	C 	0.99659 0.97066 0.98824 0.23000
O 	O 	0.91692 0.07948 0.04575 -0.38300
O 	O 	0.00225 0.00326 0.00413 -0.34200
O 	O 	0.79002 0.91169 0.13535 -0.39500
O 	O 	0.79452 0.83921 0.12759 -0.38700
C 	C 	0.95022 0.95200 0.18743 0.30000
O 	O 	0.93813 0.99927 0.17105 -0.39900
O 	O 	0.96715 0.93596 0.17253 -0.40600
O 	O 	0.87743 0.77164 0.03940 -0.38500
O 	O 	0.85329 0.74966 0.08685 -0.38100
Co	Co	0.99753 0.97944 0.63238 1.17200
Co	Co	0.04204 0.92208 0.60800 1.19600
Co	Co	0.98099 0.09153 0.62606 1.15100
C 	C 	0.96145 0.82111 0.56488 0.23800
O 	O 	0.90665 0.08217 0.58055 -0.39200
O 	O 	0.00648 0.05338 0.60977 -0.74400
C 	C 	0.92798 0.12290 0.55222 0.26200
O 	O 	0.99949 0.90032 0.64242 -0.48500
C 	C 	0.86558 0.93892 0.64091 0.27900
O 	O 	0.02283 0.00335 0.58556 -0.57200
C 	C 	0.08031 0.01881 0.49761 0.29700
O 	O 	0.97493 0.12870 0.54451 -0.38800
O 	O 	0.06134 0.03932 0.50844 -0.37800
O 	O 	0.90879 0.99461 0.65179 -0.41300
O 	O 	0.88983 0.92419 0.62971 -0.39000
C 	C 	0.06198 0.04510 0.68904 0.29800
O 	O 	0.06129 0.09885 0.66919 -0.38600
O 	O 	0.06323 0.01053 0.67749 -0.37900
O 	O 	0.00943 0.86648 0.54619 -0.35800
O 	O 	0.97105 0.83048 0.59292 -0.38200
C 	C 	0.07848 0.03409 0.72547 -0.08600
C 	C 	0.02686 0.97366 0.74358 0.03200
C 	C 	0.02886 0.97182 0.77441 -0.04300
C 	C 	0.08292 0.03024 0.78748 0.02200
C 	C 	0.07726 0.03335 0.81629 0.01000
C 	C 	0.06331 0.07801 0.81163 -0.04000
C 	C 	0.05530 0.07932 0.83855 -0.03100
C 	C 	0.06138 0.03617 0.87040 -0.00400
C 	C 	0.04825 0.03417 0.89834 0.05600
C 	C 	0.97871 0.00662 0.89750 -0.09900
C 	C 	0.96329 0.99332 0.92620 -0.01500
C 	C 	0.01724 0.00729 0.95600 -0.02000
H 	H 	0.98219 0.92999 0.73262 0.00900
H 	H 	0.98636 0.92634 0.78723 0.02400
H 	H 	0.05778 0.11103 0.78706 0.04300
H 	H 	0.04372 0.11337 0.83458 0.04300
H 	H 	0.93581 0.99225 0.87520 0.04900
H 	H 	0.90841 0.96789 0.92595 0.04000
C 	C 	0.96990 0.93686 0.22423 -0.11300
C 	C 	0.91523 0.88447 0.24184 0.01700
C 	C 	0.92564 0.88592 0.27367 -0.06800
C 	C 	0.99100 0.93966 0.28819 0.01500
C 	C 	0.99704 0.94975 0.31818 -0.03700
C 	C 	0.95106 0.96079 0.31701 -0.01700
C 	C 	0.95984 0.97508 0.34449 -0.08000
C 	C 	0.01481 0.97874 0.37333 0.03800
C 	C 	0.02566 0.99597 0.40200 0.03500
C 	C 	0.97371 0.94996 0.42106 -0.07900
C 	C 	0.98854 0.96153 0.45094 -0.01700
C 	C 	0.05553 0.01893 0.46206 -0.05600
H 	H 	0.86287 0.84566 0.22983 0.02400
H 	H 	0.88174 0.84732 0.28626 0.04600
H 	H 	0.90939 0.95951 0.29461 0.03200
H 	H 	0.92458 0.98423 0.34318 0.04500
H 	H 	0.92324 0.90379 0.41353 0.04400
H 	H 	0.94986 0.92362 0.46649 0.03100
C 	C 	0.79253 0.88727 0.64648 -0.00400
C 	C 	0.77300 0.88458 0.67024 -0.04300
H 	H 	0.80945 0.91263 0.68964 0.04400
C 	C 	0.67967 0.81488 0.11423 -0.00100
C 	C 	0.90146 0.24839 0.52425 0.07700
C 	C 	0.92100 0.31530 0.51301 -0.09500
C 	C 	0.86607 0.32443 0.49391 0.02600
C 	C 	0.83056 0.19295 0.51729 0.00500
N 	N 	0.94593 0.23343 0.53112 -0.17000
C 	C 	0.90379 0.16707 0.52998 -0.00200
C 	C 	0.83131 0.14118 0.52006 -0.04400
C 	C 	0.86488 0.37216 0.49577 -0.09100
H 	H 	0.97651 0.35846 0.51920 0.04700
H 	H 	0.78650 0.08717 0.52362 0.04600
H 	H 	0.90797 0.40921 0.51089 0.04900
H 	H 	0.00029 0.26063 0.54354 0.11000
C 	C 	0.86588 0.65125 0.56066 0.00800
C 	C 	0.85099 0.68460 0.52741 0.07700
C 	C 	0.84913 0.67175 0.50134 -0.09300
C 	C 	0.86766 0.62840 0.50988 0.02400
C 	C 	0.83903 0.58608 0.49065 -0.09100
N 	N 	0.87240 0.74623 0.52575 -0.15400
C 	C 	0.90199 0.75336 0.55757 0.00700
C 	C 	0.89762 0.69468 0.57995 -0.04700
H 	H 	0.83645 0.69678 0.47538 0.05200
H 	H 	0.80114 0.58409 0.46647 0.05300
H 	H 	0.93457 0.69458 0.60430 0.04500
H 	H 	0.88555 0.78761 0.50455 0.08300
C 	C 	0.77581 0.14262 0.02168 0.07700
C 	C 	0.79741 0.18897 0.07012 0.06500
C 	C 	0.85665 0.21997 0.05888 -0.08400
C 	C 	0.84531 0.19413 0.03532 0.00600
N 	N 	0.77804 0.10013 0.01665 -0.15200
C 	C 	0.84695 0.12074 0.02857 -0.00300
C 	C 	0.89055 0.18126 0.03851 -0.05000
N 	N 	0.79463 0.21956 0.08399 -0.16900
H 	H 	0.91043 0.25917 0.06986 0.04700
H 	H 	0.94205 0.19816 0.05653 0.04500
H 	H 	0.73377 0.04935 0.01548 0.08700
H 	H 	0.83721 0.26732 0.08972 0.07800
C 	C 	0.80909 0.56453 0.09439 0.07500
C 	C 	0.78995 0.50042 0.11687 -0.09100
C 	C 	0.75193 0.44515 0.10337 0.02500
C 	C 	0.79214 0.57303 0.06020 0.00500
N 	N 	0.81770 0.61302 0.10033 -0.15200
C 	C 	0.80901 0.65443 0.07005 -0.00100
C 	C 	0.78957 0.62871 0.04451 -0.04400
C 	C 	0.75777 0.39134 0.11893 -0.09300
H 	H 	0.80396 0.49383 0.14367 0.05100
H 	H 	0.79162 0.65688 0.01856 0.04700
H 	H 	0.75583 0.36246 0.14480 0.05100
H 	H 	0.84409 0.62632 0.12328 0.08100
