data_crystal

_cell_length_a 32.47532
_cell_length_b 28.24720
_cell_length_c 44.35900
_cell_angle_alpha 103.69574
_cell_angle_beta  115.77915
_cell_angle_gamma 112.37925

_symmetry_space_group_name_	'P 1'
_symmetry_space_group_name_H-M	'P 1'

loop_
_symmetry_equiv_pos_as_xyz
  x,y,z

loop_
_atom_site_label
_atom_site_type_symbol
_atom_site_fract_x
_atom_site_fract_y
_atom_site_fract_z
_atom_site_charge
C 	C 	0.72415 0.22216 0.94443 -0.00900
C 	C 	0.73664 0.23794 0.98121 -0.01900
C 	C 	0.71932 0.27059 0.99466 -0.07600
C 	C 	0.68933 0.28770 0.97154 0.08300
C 	C 	0.67485 0.26978 0.93400 -0.07300
C 	C 	0.69243 0.23736 0.92065 -0.02100
N 	N 	0.67610 0.32577 0.98724 -0.14200
C 	C 	0.72312 0.47121 0.96778 0.00000
C 	C 	0.66808 0.42387 0.94377 -0.02800
C 	C 	0.65162 0.37682 0.95087 -0.06700
C 	C 	0.69039 0.37670 0.98202 0.07000
C 	C 	0.74475 0.42530 0.00687 -0.05100
C 	C 	0.76108 0.47233 0.99983 -0.03900
C 	C 	0.52760 0.23861 0.97702 -0.01100
C 	C 	0.57432 0.29019 0.01062 -0.01800
C 	C 	0.62250 0.31936 0.01333 -0.06400
C 	C 	0.62454 0.29750 0.98253 0.07500
C 	C 	0.57701 0.24680 0.94830 -0.07100
C 	C 	0.52899 0.21734 0.94575 -0.02200
C 	C 	0.78669 0.61397 0.94777 -0.01300
C 	C 	0.80223 0.57404 0.94430 -0.01900
C 	C 	0.77983 0.52615 0.94940 -0.04600
C 	C 	0.74186 0.51785 0.95817 0.01500
C 	C 	0.72450 0.55629 0.96004 -0.04700
C 	C 	0.74676 0.60415 0.95478 -0.02000
C 	C 	0.81042 0.15166 0.92495 -0.01300
C 	C 	0.82196 0.20564 0.92636 -0.01900
C 	C 	0.79107 0.22697 0.93000 -0.04700
C 	C 	0.74847 0.19452 0.93231 0.01900
C 	C 	0.73408 0.13851 0.92778 -0.04800
C 	C 	0.76483 0.11704 0.92398 -0.01900
C 	C 	0.38267 0.15334 0.97249 -0.01900
C 	C 	0.43135 0.16132 0.00021 -0.01500
C 	C 	0.47833 0.18788 0.00112 -0.04400
C 	C 	0.47714 0.20717 0.97452 0.01500
C 	C 	0.42814 0.19799 0.94627 -0.04800
C 	C 	0.38106 0.17099 0.94516 -0.01900
H 	H 	0.76116 0.22637 0.99977 0.03900
H 	H 	0.73028 0.28383 0.02343 0.05900
H 	H 	0.65051 0.28135 0.91541 0.04900
H 	H 	0.68227 0.22497 0.89210 0.03600
H 	H 	0.63845 0.42278 0.91904 0.03700
H 	H 	0.60950 0.33959 0.93134 0.04800
H 	H 	0.77467 0.42577 0.03107 0.05100
H 	H 	0.80352 0.50911 0.01881 0.04800
H 	H 	0.57335 0.30750 0.03469 0.03800
H 	H 	0.65869 0.35855 0.03962 0.05300
H 	H 	0.57707 0.23045 0.92371 0.04900
H 	H 	0.49294 0.17786 0.91954 0.03600
H 	H 	0.83235 0.58067 0.93829 0.04700
H 	H 	0.79285 0.49616 0.94736 0.04500
H 	H 	0.69497 0.55002 0.96660 0.04300
H 	H 	0.73439 0.63464 0.95747 0.04500
H 	H 	0.85646 0.23226 0.92645 0.04600
H 	H 	0.80202 0.26999 0.93299 0.04600
H 	H 	0.70072 0.11280 0.92900 0.04500
H 	H 	0.75526 0.07508 0.92261 0.05000
H 	H 	0.43290 0.14738 0.02122 0.04400
H 	H 	0.51580 0.19409 0.02274 0.04500
H 	H 	0.42684 0.21281 0.92567 0.04300
H 	H 	0.34379 0.16536 0.92376 0.04600
C 	C 	0.69875 0.19383 0.43232 -0.00600
C 	C 	0.71374 0.21417 0.46986 -0.02100
C 	C 	0.70115 0.25241 0.48361 -0.06900
C 	C 	0.67350 0.27073 0.46008 0.08100
C 	C 	0.65704 0.24899 0.42201 -0.07200
C 	C 	0.66984 0.21086 0.40831 -0.02200
N 	N 	0.66411 0.31319 0.47572 -0.14300
C 	C 	0.71690 0.45493 0.45364 -0.00700
C 	C 	0.66117 0.40939 0.43015 -0.02200
C 	C 	0.64303 0.36346 0.43791 -0.07200
C 	C 	0.68076 0.36260 0.46917 0.08100
C 	C 	0.73604 0.40910 0.49319 -0.06900
C 	C 	0.75405 0.45508 0.48554 -0.02100
C 	C 	0.51842 0.24037 0.47028 -0.00700
C 	C 	0.56723 0.29136 0.50308 -0.02200
C 	C 	0.61449 0.31603 0.50415 -0.07000
C 	C 	0.61351 0.29016 0.47252 0.08100
C 	C 	0.56389 0.24026 0.43902 -0.07200
C 	C 	0.51677 0.21534 0.43809 -0.02200
C 	C 	0.78304 0.59760 0.43419 -0.01400
C 	C 	0.79933 0.55821 0.43200 -0.01800
C 	C 	0.77616 0.51033 0.43691 -0.04800
C 	C 	0.73676 0.50161 0.44430 0.01900
C 	C 	0.71889 0.53966 0.44502 -0.04800
C 	C 	0.74184 0.58741 0.43989 -0.01900
C 	C 	0.77330 0.10524 0.41577 -0.01400
C 	C 	0.78630 0.15614 0.41228 -0.01900
C 	C 	0.75827 0.18267 0.41417 -0.04700
C 	C 	0.71691 0.15823 0.41932 0.01900
C 	C 	0.69968 0.10380 0.41824 -0.04800
C 	C 	0.72777 0.07735 0.41645 -0.01900
C 	C 	0.37633 0.16387 0.47003 -0.01400
C 	C 	0.42466 0.17054 0.49708 -0.01900
C 	C 	0.47083 0.19480 0.49684 -0.04800
C 	C 	0.46917 0.21302 0.46974 0.01900
C 	C 	0.42067 0.20579 0.44246 -0.04800
C 	C 	0.37440 0.18115 0.44251 -0.01900
H 	H 	0.73628 0.20139 0.48864 0.04100
H 	H 	0.71372 0.26872 0.51283 0.05400
H 	H 	0.63465 0.26175 0.40320 0.04900
H 	H 	0.65788 0.19513 0.37923 0.03700
H 	H 	0.63217 0.40900 0.40549 0.03600
H 	H 	0.60025 0.32774 0.41894 0.04900
H 	H 	0.76520 0.40892 0.51742 0.05400
H 	H 	0.79703 0.49049 0.50412 0.04000
H 	H 	0.56865 0.31155 0.52785 0.03800
H 	H 	0.65231 0.35468 0.52988 0.05300
H 	H 	0.56173 0.22097 0.41380 0.04900
H 	H 	0.47908 0.17631 0.41248 0.03600
H 	H 	0.83049 0.56517 0.42704 0.04700
H 	H 	0.78961 0.48065 0.43574 0.04600
H 	H 	0.68836 0.53316 0.45060 0.04400
H 	H 	0.72894 0.61753 0.44163 0.04600
H 	H 	0.82075 0.17752 0.41105 0.04700
H 	H 	0.77117 0.22419 0.41424 0.04600
H 	H 	0.66680 0.08384 0.42120 0.04500
H 	H 	0.71641 0.03715 0.41808 0.04700
H 	H 	0.42645 0.15694 0.51826 0.04400
H 	H 	0.50793 0.19964 0.51778 0.04500
H 	H 	0.41907 0.21994 0.42152 0.04400
H 	H 	0.33744 0.17665 0.42169 0.04600
C 	C 	0.37754 0.75881 0.96087 0.08700
C 	C 	0.32444 0.73970 0.93163 -0.07600
C 	C 	0.29895 0.76674 0.93843 -0.01700
N 	N 	0.40153 0.72772 0.95383 -0.14600
C 	C 	0.35016 0.57855 0.96931 -0.00600
C 	C 	0.34477 0.57349 0.93534 -0.02300
C 	C 	0.36492 0.62332 0.93141 -0.07000
C 	C 	0.38978 0.67861 0.96103 0.08100
C 	C 	0.39719 0.68400 0.99569 -0.07600
C 	C 	0.37776 0.63422 0.99983 -0.02700
C 	C 	0.55494 0.81496 0.00653 -0.00500
C 	C 	0.50307 0.78241 0.99862 -0.08900
C 	C 	0.45558 0.76280 0.96320 0.08600
C 	C 	0.26875 0.42067 0.97180 -0.01500
C 	C 	0.25943 0.46466 0.98155 -0.02100
C 	C 	0.28671 0.51660 0.98141 -0.04900
C 	C 	0.32422 0.52539 0.97207 0.01700
C 	C 	0.33469 0.48200 0.96341 -0.04900
C 	C 	0.30674 0.42970 0.96297 -0.02000
H 	H 	0.30263 0.70315 0.90376 0.05100
H 	H 	0.25758 0.75103 0.91571 0.03400
H 	H 	0.32356 0.53081 0.91157 0.03500
H 	H 	0.35912 0.61879 0.90469 0.05000
H 	H 	0.41737 0.72644 0.01917 0.05200
H 	H 	0.38321 0.63881 0.02648 0.04000
H 	H 	0.59125 0.83000 0.03389 0.03300
H 	H 	0.49992 0.77301 0.02005 0.05500
H 	H 	0.23011 0.45807 0.98836 0.04000
H 	H 	0.27793 0.54951 0.98785 0.04100
H 	H 	0.36400 0.48854 0.95660 0.04300
H 	H 	0.31461 0.39621 0.95576 0.04400
H 	H 	0.63412 0.79781 0.99762 0.04300
C 	C 	0.42604 0.80672 0.52288 0.08000
C 	C 	0.37636 0.77605 0.48622 -0.07200
C 	C 	0.34068 0.79492 0.47834 -0.02300
N 	N 	0.45979 0.78364 0.53329 -0.14400
C 	C 	0.36902 0.60983 0.51235 -0.00700
C 	C 	0.37576 0.61933 0.48465 -0.02300
C 	C 	0.40742 0.67633 0.49190 -0.07200
C 	C 	0.43172 0.72448 0.52668 0.08000
C 	C 	0.42613 0.71480 0.55463 -0.07000
C 	C 	0.39531 0.65786 0.54766 -0.02300
C 	C 	0.59628 0.83886 0.54967 -0.02300
C 	C 	0.55495 0.82073 0.55530 -0.07000
C 	C 	0.50114 0.79985 0.52609 0.08000
C 	C 	0.26723 0.43697 0.49080 -0.01500
C 	C 	0.25828 0.48052 0.50249 -0.02100
C 	C 	0.29070 0.53648 0.50873 -0.04900
C 	C 	0.33308 0.54976 0.50399 0.01800
C 	C 	0.34177 0.50601 0.49203 -0.04900
C 	C 	0.30872 0.44975 0.48520 -0.02000
H 	H 	0.36483 0.73703 0.46417 0.04700
H 	H 	0.30216 0.77045 0.45023 0.03500
H 	H 	0.35569 0.58265 0.45729 0.03500
H 	H 	0.41153 0.68300 0.47009 0.04800
H 	H 	0.44509 0.75158 0.58159 0.05100
H 	H 	0.39127 0.65109 0.56952 0.03600
H 	H 	0.63782 0.85565 0.57271 0.03700
H 	H 	0.56481 0.82350 0.58259 0.05100
H 	H 	0.22608 0.47096 0.50661 0.04000
H 	H 	0.28306 0.56960 0.51741 0.04200
H 	H 	0.37450 0.51576 0.48848 0.04300
H 	H 	0.31605 0.41646 0.47629 0.04400
H 	H 	0.65022 0.79582 0.52232 0.04400
Zn	Zn	0.14425 0.13015 0.99994 1.18500
Zn	Zn	0.05315 0.08035 0.91610 1.19100
O 	O 	0.02431 0.05196 0.86022 -0.45400
C 	C 	0.19852 0.09542 0.97375 0.27600
O 	O 	0.99814 0.00277 0.90312 -0.84000
C 	C 	0.15035 0.20595 0.96423 0.28700
O 	O 	0.20570 0.12665 0.00486 -0.43400
O 	O 	0.14958 0.06364 0.94110 -0.32800
O 	O 	0.07029 0.09288 0.96862 -0.79200
O 	O 	0.11414 0.15771 0.93066 -0.43700
O 	O 	0.16460 0.20396 0.99642 -0.44300
C 	C 	0.89800 0.82626 0.95075 0.29300
O 	O 	0.95367 0.03990 0.94356 -0.43400
O 	O 	0.87038 0.84032 0.92658 -0.44000
C 	C 	0.95744 0.08278 0.96698 0.28700
O 	O 	0.98471 0.09961 0.00365 -0.45100
C 	C 	0.03043 0.01366 0.84238 0.30900
Zn	Zn	0.13843 0.13065 0.50202 1.18600
Zn	Zn	0.04826 0.08689 0.41942 1.19100
O 	O 	0.02034 0.06474 0.36408 -0.45000
C 	C 	0.19318 0.10272 0.47336 0.28200
C 	C 	0.14448 0.21324 0.47152 0.28800
O 	O 	0.20038 0.13043 0.50532 -0.44100
O 	O 	0.14421 0.07257 0.44089 -0.33300
O 	O 	0.06437 0.09268 0.47077 -0.78700
O 	O 	0.10823 0.16737 0.43679 -0.43600
O 	O 	0.15799 0.20710 0.50233 -0.44200
C 	C 	0.89471 0.81257 0.44040 0.29400
O 	O 	0.94632 0.03348 0.44408 -0.43100
O 	O 	0.86731 0.82731 0.41670 -0.44000
C 	C 	0.94238 0.06587 0.46826 0.28900
O 	O 	0.97170 0.08120 0.50463 -0.45900
C 	C 	0.02621 0.02818 0.34438 0.31100
H 	H 	0.10589 0.07733 0.69905 0.06200
C 	C 	0.03321 0.01421 0.81011 -0.09900
C 	C 	0.00589 0.03369 0.78723 0.00400
C 	C 	0.03845 0.01520 0.74866 0.11200
C 	C 	0.07534 0.06380 0.17538 -0.09400
H 	H 	0.09576 0.10457 0.20044 0.06300
H 	H 	0.09306 0.10625 0.14432 0.02600
N 	N 	0.04838 0.00865 0.20580 -0.09100
C 	C 	0.02631 0.03096 0.31167 -0.10100
C 	C 	0.05110 0.08774 0.28192 -0.09700
C 	C 	0.04704 0.08458 0.31161 0.03600
H 	H 	0.06753 0.12930 0.28222 0.06100
H 	H 	0.06107 0.12397 0.33492 0.03600
C 	C 	0.23420 0.37863 0.48542 0.10900
N 	N 	0.20682 0.32996 0.45189 -0.08500
N 	N 	0.17717 0.27714 0.44715 -0.06100
C 	C 	0.17457 0.27152 0.47595 0.03200
N 	N 	0.20202 0.32021 0.50949 -0.06500
N 	N 	0.23110 0.37304 0.51406 -0.08600
C 	C 	0.23770 0.36471 0.96981 0.10900
N 	N 	0.23680 0.36385 1.00000 -0.08700
N 	N 	0.20870 0.31312 0.99817 -0.06600
C 	C 	0.18008 0.26190 0.96590 0.03200
N 	N 	0.18058 0.26281 0.93559 -0.06100
N 	N 	0.20921 0.31349 0.93758 -0.08500
C 	C 	0.81313 0.08860 0.42672 0.11200
N 	N 	0.83655 0.08591 0.40791 -0.08600
N 	N 	0.87749 0.07781 0.42085 -0.07000
C 	C 	0.89694 0.07373 0.45344 0.03100
N 	N 	0.87318 0.07587 0.47196 -0.05600
N 	N 	0.83173 0.08292 0.45871 -0.08000
C 	C 	0.86546 0.75445 0.43617 0.03600
N 	N 	0.89388 0.73464 0.45566 -0.05700
N 	N 	0.86743 0.68374 0.45416 -0.08200
C 	C 	0.81182 0.65145 0.43337 0.11200
N 	N 	0.78334 0.67097 0.41355 -0.08400
N 	N 	0.80980 0.72170 0.41485 -0.06100
C 	C 	0.24050 0.11163 0.47319 0.04300
N 	N 	0.23372 0.08902 0.43952 -0.05900
N 	N 	0.27719 0.10374 0.43867 -0.08300
C 	C 	0.32868 0.14131 0.47150 0.11100
N 	N 	0.33546 0.16218 0.50534 -0.08400
N 	N 	0.29197 0.14762 0.50616 -0.06100
C 	C 	0.85071 0.13626 0.93099 0.11200
N 	N 	0.83377 0.08038 0.91053 -0.08400
N 	N 	0.86907 0.06412 0.92042 -0.06500
C 	C 	0.92204 0.10308 0.95132 0.03000
N 	N 	0.93933 0.15933 0.97096 -0.06100
N 	N 	0.90428 0.17580 0.96076 -0.08200
C 	C 	0.81531 0.66811 0.94714 0.11100
N 	N 	0.78682 0.68812 0.92790 -0.08500
N 	N 	0.81314 0.73813 0.92838 -0.06100
C 	C 	0.86866 0.76963 0.94830 0.03600
N 	N 	0.89707 0.74951 0.96744 -0.05700
N 	N 	0.87076 0.69936 0.96674 -0.08200
C 	C 	0.33477 0.13044 0.97365 0.10800
N 	N 	0.34100 0.15246 0.00717 -0.08000
N 	N 	0.29719 0.13878 0.00749 -0.05700
C 	C 	0.24595 0.10251 0.97432 0.04000
N 	N 	0.23969 0.07844 0.94104 -0.06100
N 	N 	0.28348 0.09233 0.94068 -0.08400
C 	C 	0.32644 0.81343 0.97459 -0.01900
C 	C 	0.38015 0.83376 0.00373 -0.00500
C 	C 	0.40572 0.80663 0.99695 -0.08900
C 	C 	0.55985 0.82782 0.97908 -0.01700
C 	C 	0.46073 0.77660 0.93618 -0.07500
C 	C 	0.51247 0.80863 0.94394 -0.01700
C 	C 	0.22190 0.82766 0.98475 -0.02000
C 	C 	0.25495 0.80767 0.98411 -0.05200
C 	C 	0.29810 0.83955 0.98212 0.02100
C 	C 	0.64720 0.83687 0.99469 -0.04600
H 	H 	0.44684 0.82211 0.01978 0.05600
H 	H 	0.42441 0.76171 0.90889 0.05200
H 	H 	0.51570 0.81789 0.92243 0.03500
H 	H 	0.18767 0.80178 0.98514 0.04000
H 	H 	0.24585 0.76638 0.98379 0.04200
H 	H 	0.72012 0.84435 0.00283 0.05300
C 	C 	0.35397 0.84429 0.50697 -0.00700
C 	C 	0.44031 0.85754 0.55085 -0.07000
C 	C 	0.58413 0.83574 0.51450 -0.00700
C 	C 	0.48884 0.79661 0.49074 -0.07200
C 	C 	0.53014 0.81427 0.48499 -0.02300
C 	C 	0.22300 0.83483 0.48216 -0.02100
C 	C 	0.26177 0.82035 0.48981 -0.04900
C 	C 	0.31362 0.86041 0.49990 0.01800
C 	C 	0.62796 0.85474 0.50856 0.01800
C 	C 	0.65903 0.82994 0.51437 -0.04800
C 	C 	0.70148 0.84901 0.50984 -0.01900
H 	H 	0.44746 0.77975 0.46764 0.04800
H 	H 	0.52013 0.81102 0.45758 0.03600
H 	H 	0.18302 0.80338 0.47419 0.04100
H 	H 	0.25147 0.77792 0.48779 0.04200
H 	H 	0.72490 0.82925 0.51418 0.04600
Zn	Zn	0.02027 0.01368 0.95355 1.20700
Zn	Zn	0.01202 0.05675 0.02155 1.19200
C 	C 	0.03847 0.01234 0.07523 0.32300
O 	O 	0.04137 0.05784 0.07078 -0.47400
O 	O 	0.04190 0.02388 0.00358 -0.90400
H 	H 	0.08173 0.04256 0.02239 0.16200
Zn	Zn	0.00364 0.04077 0.52020 1.19200
O 	O 	0.94822 0.84811 0.46691 -0.43100
O 	O 	0.03503 0.03820 0.56801 -0.47400
O 	O 	0.03614 0.01496 0.50117 -0.90900
H 	H 	0.07602 0.03425 0.52017 0.16300
C 	C 	0.08056 0.03737 0.67222 -0.09400
C 	C 	0.07851 0.03986 0.64055 0.03500
H 	H 	0.10205 0.08185 0.64313 0.02400
N 	N 	0.04227 0.01781 0.71840 -0.09200
C 	C 	0.00878 0.03440 0.75678 -0.12600
H 	H 	0.98222 0.04800 0.79289 0.06000
H 	H 	0.98777 0.04969 0.73937 0.09400
C 	C 	0.04980 0.01026 0.17459 0.10600
C 	C 	0.07392 0.06470 0.14358 0.03400
C 	C 	0.04698 0.01203 0.11070 -0.10500
N 	N 	0.03938 0.04142 0.22242 -0.09200
C 	C 	0.03492 0.03761 0.25228 0.11200
N 	N 	0.13658 0.85285 0.95104 -0.08900
Zn	Zn	0.01534 0.01135 0.45258 1.20800
O 	O 	0.99432 0.00649 0.40350 -0.83900
C 	C 	0.61436 0.85952 0.98651 0.02000
N 	N 	0.14112 0.86223 0.44293 -0.08800
O 	O 	0.95172 0.86128 0.97640 -0.43200
C 	C 	0.69598 0.86327 0.99763 -0.02600
N 	N 	0.10321 0.87488 0.43256 -0.06600
C 	C 	0.40444 0.87619 0.54303 -0.02300
C 	C 	0.06356 0.99562 0.80224 0.03000
H 	H 	0.47844 0.88144 0.57910 0.05100
N 	N 	0.09982 0.86711 0.94180 -0.06700
H 	H 	0.95996 0.99177 0.88654 0.14800
H 	H 	0.40174 0.86995 0.03171 0.03300
C 	C 	0.06637 0.99634 0.77178 -0.09600
C 	C 	0.23575 0.88967 0.48471 -0.01500
C 	C 	0.71299 0.89270 0.49909 -0.01300
C 	C 	0.23166 0.87972 0.98336 -0.01600
C 	C 	0.63952 0.89851 0.49787 -0.04800
H 	H 	0.99443 0.89006 0.63219 0.08800
H 	H 	0.98999 0.89422 0.57595 0.06200
O 	O 	0.08798 0.99087 0.96478 -0.44300
C 	C 	0.19349 0.90327 0.47411 0.10900
Zn	Zn	0.89609 0.90595 0.41856 1.17700
C 	C 	0.75689 0.91172 0.49336 0.11200
C 	C 	0.31006 0.89338 0.98314 -0.05100
H 	H 	0.41519 0.91446 0.56531 0.03600
C 	C 	0.32677 0.91562 0.50306 -0.04800
O 	O 	0.03478 0.91454 0.40332 -0.48800
C 	C 	0.19098 0.89497 0.97684 0.10800
C 	C 	0.68167 0.91722 0.49300 -0.02000
H 	H 	0.61614 0.91832 0.49362 0.04300
N 	N 	0.74807 0.91839 0.46224 -0.08400
N 	N 	0.80541 0.91967 0.51806 -0.08200
O 	O 	0.85511 0.92708 0.43390 -0.45500
C 	C 	0.11639 0.92872 0.45330 0.02000
C 	C 	0.28805 0.93026 0.49559 -0.02000
O 	O 	0.03480 0.90841 0.90763 -0.48900
O 	O 	0.96574 0.93016 0.43421 -0.78500
N 	N 	0.78601 0.93099 0.45542 -0.05800
N 	N 	0.84353 0.93271 0.51139 -0.05900
C 	C 	0.27701 0.91348 0.98381 -0.02000
C 	C 	0.71215 0.91228 0.99209 -0.01100
C 	C 	0.63183 0.91012 0.98271 -0.04900
Zn	Zn	0.90071 0.91421 0.92266 1.17700
Zn	Zn	0.99362 0.93287 0.48627 1.19800
C 	C 	0.01592 0.93424 0.60286 0.01200
H 	H 	0.00316 0.91775 0.08576 0.03400
H 	H 	0.00684 0.91666 0.14230 0.05700
C 	C 	0.83408 0.93780 0.47971 0.03700
H 	H 	0.34354 0.91846 0.98185 0.04400
C 	C 	0.01814 0.93185 0.63463 -0.12000
C 	C 	0.87292 0.94473 0.46978 0.28800
C 	C 	0.07594 0.94419 0.43961 0.28400
H 	H 	0.99156 0.93859 0.28067 0.04200
C 	C 	0.11631 0.92382 0.95841 0.01900
H 	H 	0.36669 0.94688 0.51084 0.04400
H 	H 	0.60723 0.92849 0.97695 0.04300
H 	H 	0.69028 0.95111 0.48484 0.04400
O 	O 	0.02340 0.94911 0.54195 -0.44500
C 	C 	0.68032 0.93617 0.98526 -0.02100
O 	O 	0.96962 0.93461 0.93845 -0.78500
C 	C 	0.07682 0.94011 0.94371 0.28400
O 	O 	0.92126 0.95583 0.49473 -0.44700
Zn	Zn	0.00845 0.95521 0.38063 1.17700
H 	H 	0.99810 0.94419 0.22819 0.09000
N 	N 	0.20666 0.95708 0.49503 -0.08600
C 	C 	0.75961 0.93543 0.99028 0.10700
N 	N 	0.80652 0.94141 0.01583 -0.07900
Zn	Zn	0.99789 0.94419 0.99217 1.19800
O 	O 	0.86210 0.94337 0.93577 -0.45200
N 	N 	0.75485 0.94531 0.96079 -0.08400
Zn	Zn	0.01010 0.94738 0.88211 1.17700
N 	N 	0.16860 0.96959 0.48481 -0.06700
N 	N 	0.20747 0.95164 0.99410 -0.08600
H 	H 	0.28515 0.95384 0.98288 0.04700
H 	H 	0.29829 0.97259 0.49744 0.04700
N 	N 	0.84673 0.95499 0.01128 -0.05500
C 	C 	0.02564 0.95799 0.14273 -0.09800
C 	C 	0.02391 0.95872 0.11080 0.03300
N 	N 	0.79484 0.95835 0.95604 -0.06000
C 	C 	0.88005 0.96603 0.97175 0.29000
O 	O 	0.02889 0.96740 0.04880 -0.44400
C 	C 	0.84097 0.96244 0.98086 0.03200
N 	N 	0.17060 0.96583 0.98513 -0.06700
H 	H 	0.69272 0.97438 0.98139 0.04200
O 	O 	0.08513 0.99242 0.46227 -0.44300
C 	C 	0.03415 0.99219 0.57039 0.31700
C 	C 	0.04870 0.98350 0.66891 0.10800
C 	C 	0.04471 0.98849 0.60533 -0.10200
N 	N 	0.04603 0.98120 0.69960 -0.09400
C 	C 	0.00845 0.98038 0.28128 0.00900
O 	O 	0.92753 0.97664 0.99778 -0.44700
H 	H 	0.95586 0.99478 0.38702 0.14800
C 	C 	0.01246 0.98360 0.25164 -0.11900
O 	O 	0.03924 0.97852 0.85526 -0.48300
O 	O 	0.03725 0.99284 0.35579 -0.48100
H 	H 	0.09068 0.98292 0.76641 0.06400
H 	H 	0.08561 0.98140 0.82001 0.03600
