data_crystal

_cell_length_a 35.46216
_cell_length_b 35.77770
_cell_length_c 33.68261
_cell_angle_alpha 95.54223
_cell_angle_beta  95.54258
_cell_angle_gamma 125.36794

_symmetry_space_group_name_	'P 1'
_symmetry_space_group_name_H-M	'P 1'

loop_
_symmetry_equiv_pos_as_xyz
  x,y,z

loop_
_atom_site_label
_atom_site_type_symbol
_atom_site_fract_x
_atom_site_fract_y
_atom_site_fract_z
_atom_site_charge
C 	C 	0.98175 0.02908 0.99999 0.03200
C 	C 	0.03000 0.05531 0.99878 -0.07800
C 	C 	0.05239 0.03343 0.99679 0.03600
C 	C 	0.02677 0.98555 0.99708 -0.08000
C 	C 	0.97846 0.95906 0.99766 0.03700
C 	C 	0.95602 0.98091 0.99931 -0.07700
H 	H 	0.04983 0.09240 0.99870 0.05100
H 	H 	0.04422 0.96873 0.99604 0.05200
H 	H 	0.91852 0.96038 0.99925 0.05000
C 	C 	0.95224 0.99965 0.43902 0.03100
C 	C 	0.99972 0.02461 0.43520 -0.07300
C 	C 	0.02280 0.00340 0.43715 0.03000
C 	C 	0.99787 0.95662 0.44160 -0.07400
C 	C 	0.95029 0.93129 0.44498 0.03200
C 	C 	0.92750 0.95287 0.44374 -0.07600
H 	H 	0.01883 0.06064 0.43134 0.04900
H 	H 	0.01566 0.94016 0.44309 0.04900
H 	H 	0.89097 0.93362 0.44710 0.05000
Cu	Cu	0.65379 0.26789 0.99618 0.92600
Cu	Cu	0.69063 0.26656 0.91059 0.87000
Cu	Cu	0.68438 0.34292 0.94398 0.89600
Cu	Cu	0.65482 0.35489 0.02173 0.89500
C 	C 	0.66204 0.30030 0.08033 0.26100
O 	O 	0.58500 0.24130 0.99364 -0.36500
C 	C 	0.66976 0.31026 0.85557 0.26000
O 	O 	0.69298 0.34057 0.00048 -0.63900
O 	O 	0.64957 0.27371 0.93838 -0.64100
O 	O 	0.68164 0.23287 0.99483 -0.37500
O 	O 	0.73415 0.27876 0.95650 -0.44300
O 	O 	0.64316 0.32111 0.06825 -0.37800
O 	O 	0.72067 0.41039 0.95383 -0.38200
C 	C 	0.71542 0.43557 0.98101 0.28700
C 	C 	0.56763 0.26187 0.97817 0.28400
O 	O 	0.59638 0.30504 0.97296 -0.39500
O 	O 	0.68268 0.41580 0.00364 -0.39400
O 	O 	0.66759 0.27473 0.05401 -0.35200
C 	C 	0.72099 0.24902 0.98131 0.28800
O 	O 	0.68740 0.34585 0.88581 -0.37800
O 	O 	0.66222 0.27092 0.86205 -0.41400
H 	H 	0.72622 0.36009 0.01473 0.16400
H 	H 	0.61712 0.25576 0.92257 0.17200
Cu	Cu	0.72033 0.33400 0.44096 0.92700
Cu	Cu	0.72526 0.29854 0.52633 0.87000
Cu	Cu	0.64749 0.30454 0.49634 0.89600
Cu	Cu	0.63092 0.33185 0.41852 0.89300
C 	C 	0.68022 0.31934 0.35748 0.26000
O 	O 	0.74698 0.40220 0.44291 -0.36200
C 	C 	0.68474 0.32099 0.58406 0.26000
O 	O 	0.64723 0.29512 0.43936 -0.64000
O 	O 	0.71706 0.33921 0.49939 -0.64100
O 	O 	0.75538 0.30593 0.44065 -0.37300
O 	O 	0.71066 0.25460 0.48011 -0.44300
O 	O 	0.66085 0.33970 0.36974 -0.37800
O 	O 	0.57942 0.26793 0.48885 -0.38100
C 	C 	0.55288 0.27252 0.46244 0.29000
C 	C 	0.72644 0.41966 0.45839 0.28500
O 	O 	0.68358 0.39144 0.46526 -0.39200
O 	O 	0.57155 0.30546 0.44022 -0.39700
O 	O 	0.71109 0.31938 0.38292 -0.35400
C 	C 	0.73935 0.26697 0.45417 0.28900
O 	O 	0.64759 0.30327 0.55506 -0.37800
O 	O 	0.72352 0.32753 0.57584 -0.41500
H 	H 	0.62734 0.26197 0.42564 0.16200
H 	H 	0.73561 0.37155 0.51492 0.17300
C 	C 	0.70000 0.32629 0.76039 0.07300
C 	C 	0.72658 0.35044 0.73164 -0.08300
C 	C 	0.70626 0.32993 0.69062 0.00800
C 	C 	0.65933 0.29227 0.67886 0.07300
C 	C 	0.63083 0.27235 0.70783 -0.08300
C 	C 	0.65356 0.28758 0.74866 0.00900
N 	N 	0.70857 0.34558 0.79943 -0.15100
C 	C 	0.66823 0.31802 0.81364 -0.00100
C 	C 	0.63251 0.28297 0.78202 -0.04500
N 	N 	0.64296 0.29046 0.64050 -0.15200
C 	C 	0.67997 0.32578 0.62681 -0.00100
C 	C 	0.71929 0.35253 0.65819 -0.04600
H 	H 	0.76040 0.38424 0.74068 0.05100
H 	H 	0.59290 0.24769 0.69918 0.05200
H 	H 	0.60018 0.25115 0.78585 0.04300
H 	H 	0.75530 0.37689 0.65432 0.04500
H 	H 	0.74215 0.36800 0.81754 0.07900
H 	H 	0.61277 0.26066 0.62200 0.08600
C 	C 	0.69301 0.33102 0.18571 0.07400
C 	C 	0.72170 0.34553 0.22400 -0.08100
C 	C 	0.69966 0.33749 0.25789 0.01000
C 	C 	0.65108 0.30966 0.25342 0.07800
C 	C 	0.62229 0.28933 0.21480 -0.08400
C 	C 	0.64445 0.30392 0.18142 0.01200
N 	N 	0.70534 0.32501 0.15045 -0.15300
C 	C 	0.66476 0.29530 0.12299 0.00700
C 	C 	0.62619 0.27967 0.14201 -0.04400
N 	N 	0.63785 0.29151 0.28685 -0.15300
C 	C 	0.67785 0.30904 0.31370 0.00400
C 	C 	0.71703 0.33601 0.29573 -0.04000
H 	H 	0.75872 0.36032 0.22708 0.05400
H 	H 	0.58486 0.26200 0.21086 0.05300
H 	H 	0.59052 0.26355 0.12658 0.05100
H 	H 	0.75278 0.36164 0.31208 0.05200
H 	H 	0.73834 0.34847 0.14315 0.07900
H 	H 	0.60482 0.27762 0.29444 0.07700
C 	C 	0.92466 0.88232 0.45051 -0.00600
C 	C 	0.94093 0.87128 0.48384 -0.03200
C 	C 	0.91986 0.82466 0.48684 -0.04800
C 	C 	0.88226 0.78875 0.45671 0.02500
C 	C 	0.86494 0.79964 0.42408 -0.04800
C 	C 	0.88608 0.84629 0.42097 -0.03200
C 	C 	0.86258 0.74078 0.45854 -0.02400
C 	C 	0.84626 0.70071 0.46024 -0.00700
C 	C 	0.82716 0.65375 0.46206 0.00100
C 	C 	0.81044 0.61350 0.46329 -0.03300
C 	C 	0.78962 0.56512 0.46425 0.04600
C 	C 	0.81815 0.55001 0.46969 -0.07400
C 	C 	0.79766 0.50262 0.46868 0.01900
C 	C 	0.74844 0.47005 0.46226 -0.09200
C 	C 	0.72006 0.48555 0.45759 0.01800
C 	C 	0.74061 0.53285 0.45853 -0.07400
H 	H 	0.97045 0.89882 0.50697 0.03700
H 	H 	0.93325 0.81650 0.51227 0.04300
H 	H 	0.83568 0.77204 0.40078 0.04300
H 	H 	0.87323 0.85440 0.39514 0.03700
H 	H 	0.85612 0.57483 0.47431 0.04900
H 	H 	0.82000 0.49127 0.47270 0.03000
H 	H 	0.68206 0.46086 0.45232 0.02500
H 	H 	0.71835 0.54428 0.45428 0.04900
C 	C 	0.75734 0.23971 0.44379 -0.09900
C 	C 	0.72845 0.19115 0.44160 0.01800
C 	C 	0.74720 0.16600 0.43755 -0.07600
C 	C 	0.79491 0.18913 0.43563 0.04500
C 	C 	0.82342 0.23730 0.43615 -0.07500
C 	C 	0.80469 0.26252 0.44008 0.01800
C 	C 	0.81514 0.16388 0.43549 -0.03400
C 	C 	0.83164 0.14236 0.43539 0.00000
C 	C 	0.85091 0.11712 0.43585 -0.00700
C 	C 	0.86756 0.09576 0.43663 -0.02400
C 	C 	0.88788 0.07063 0.43798 0.02500
C 	C 	0.86841 0.02975 0.40954 -0.04800
C 	C 	0.88891 0.00608 0.41025 -0.03100
C 	C 	0.92900 0.02313 0.43950 -0.00500
C 	C 	0.94791 0.06365 0.46838 -0.03200
C 	C 	0.92748 0.08734 0.46753 -0.04800
H 	H 	0.69173 0.17303 0.44388 0.02700
H 	H 	0.72485 0.12871 0.43680 0.04900
H 	H 	0.86031 0.25539 0.43447 0.04900
H 	H 	0.82740 0.29995 0.44175 0.03000
H 	H 	0.83767 0.01652 0.38670 0.04300
H 	H 	0.87405 0.97490 0.38778 0.03600
H 	H 	0.97862 0.07693 0.49127 0.03700
H 	H 	0.94261 0.11881 0.48972 0.04200
C 	C 	0.07385 0.03102 0.43721 -0.00600
C 	C 	0.09102 0.01634 0.40841 -0.03100
C 	C 	0.13954 0.04048 0.41050 -0.04900
C 	C 	0.17118 0.07949 0.44125 0.02500
C 	C 	0.15415 0.09489 0.46942 -0.04900
C 	C 	0.10566 0.07070 0.46748 -0.03200
C 	C 	0.22112 0.10319 0.44441 -0.02400
C 	C 	0.26291 0.12301 0.44702 -0.00700
C 	C 	0.31196 0.14680 0.45037 0.00000
C 	C 	0.35398 0.16794 0.45349 -0.03300
C 	C 	0.40432 0.19439 0.45736 0.04600
C 	C 	0.42621 0.17206 0.45973 -0.07400
C 	C 	0.47505 0.19780 0.46258 0.01800
C 	C 	0.50215 0.24596 0.46282 -0.09000
C 	C 	0.48014 0.26830 0.46121 0.02000
C 	C 	0.43145 0.24259 0.45853 -0.07400
H 	H 	0.06679 0.98594 0.38477 0.03700
H 	H 	0.15250 0.02855 0.38848 0.04300
H 	H 	0.17843 0.12519 0.49315 0.04300
H 	H 	0.09282 0.08224 0.48994 0.03600
H 	H 	0.40544 0.13479 0.45900 0.04900
H 	H 	0.49161 0.18017 0.46370 0.02600
H 	H 	0.50074 0.30554 0.46187 0.03200
H 	H 	0.41479 0.26013 0.45705 0.05000
C 	C 	0.74192 0.48639 0.98209 -0.09200
C 	C 	0.72804 0.51157 0.00239 0.02000
C 	C 	0.75288 0.55947 0.00344 -0.07000
C 	C 	0.79172 0.58275 0.98425 0.04200
C 	C 	0.80589 0.55799 0.96407 -0.07200
C 	C 	0.78118 0.50999 0.96303 0.01700
C 	C 	0.81676 0.63202 0.98511 -0.03200
C 	C 	0.83711 0.67327 0.98628 -0.00000
C 	C 	0.86035 0.72151 0.98791 -0.00700
C 	C 	0.88000 0.76270 0.98933 -0.02400
C 	C 	0.90346 0.81188 0.99087 0.02200
C 	C 	0.90384 0.83902 0.02405 -0.04600
C 	C 	0.92760 0.88702 0.02596 -0.02800
C 	C 	0.95105 0.90808 0.99464 -0.01100
C 	C 	0.94992 0.88064 0.96112 -0.03000
C 	C 	0.92631 0.83273 0.95933 -0.04900
H 	H 	0.69786 0.49406 0.01717 0.03300
H 	H 	0.74179 0.57846 0.01910 0.04900
H 	H 	0.83601 0.57587 0.94922 0.04900
H 	H 	0.79268 0.49131 0.94759 0.03400
H 	H 	0.88607 0.82305 0.04847 0.04300
H 	H 	0.92833 0.90791 0.05199 0.03700
H 	H 	0.96767 0.89652 0.93667 0.03600
H 	H 	0.92600 0.81189 0.93353 0.04300
C 	C 	0.95781 0.05177 0.00058 0.00000
C 	C 	0.93488 0.05054 0.03269 -0.03200
C 	C 	0.91147 0.07131 0.03281 -0.04800
C 	C 	0.91092 0.09349 0.00091 0.02900
C 	C 	0.93397 0.09497 0.96892 -0.05100
C 	C 	0.95729 0.07412 0.96870 -0.03500
C 	C 	0.88643 0.11448 0.00092 -0.02500
C 	C 	0.86588 0.13199 0.00106 -0.00400
C 	C 	0.84186 0.15253 0.00104 -0.00300
C 	C 	0.82143 0.17017 0.00058 -0.02600
C 	C 	0.79714 0.19136 0.99938 0.03400
C 	C 	0.74953 0.16533 0.00253 -0.06300
C 	C 	0.72499 0.18477 0.99828 0.01000
C 	C 	0.74795 0.23039 0.99066 -0.09600
C 	C 	0.79611 0.25689 0.98891 0.01400
C 	C 	0.82054 0.23738 0.99317 -0.07100
H 	H 	0.93518 0.03350 0.05749 0.03800
H 	H 	0.89371 0.07006 0.05764 0.04400
H 	H 	0.93367 0.11207 0.94416 0.04200
H 	H 	0.97466 0.07503 0.94366 0.03800
H 	H 	0.73128 0.12976 0.00747 0.04800
H 	H 	0.68788 0.16388 0.99969 0.03300
H 	H 	0.81445 0.29233 0.98364 0.02800
H 	H 	0.85745 0.25780 0.99098 0.04600
C 	C 	0.10199 0.05997 0.99204 -0.01100
C 	C 	0.11381 0.04704 0.95734 -0.03100
C 	C 	0.16099 0.06938 0.95430 -0.04900
C 	C 	0.19667 0.10494 0.98578 0.02200
C 	C 	0.18501 0.11888 0.01995 -0.04600
C 	C 	0.13776 0.09645 0.02310 -0.02800
C 	C 	0.24516 0.12579 0.98362 -0.02400
C 	C 	0.28556 0.14285 0.98128 -0.00800
C 	C 	0.33269 0.16233 0.97830 0.00000
C 	C 	0.37295 0.17893 0.97578 -0.03400
C 	C 	0.42117 0.19905 0.97307 0.04600
C 	C 	0.43708 0.17118 0.97164 -0.07400
C 	C 	0.48462 0.19132 0.97163 0.01900
C 	C 	0.51664 0.23961 0.97327 -0.09400
C 	C 	0.50013 0.26711 0.97329 0.01700
C 	C 	0.45262 0.24687 0.97329 -0.07400
H 	H 	0.08642 0.01916 0.93307 0.03600
H 	H 	0.16980 0.05860 0.92772 0.04200
H 	H 	0.21247 0.14653 0.04432 0.04300
H 	H 	0.12898 0.10673 0.04997 0.03700
H 	H 	0.41280 0.13405 0.97111 0.04900
H 	H 	0.49663 0.16951 0.97096 0.03200
H 	H 	0.52427 0.30437 0.97446 0.02700
H 	H 	0.44044 0.26855 0.97417 0.04900
