data_crystal

_cell_length_a 16.70041
_cell_length_b 17.43991
_cell_length_c 29.93986
_cell_angle_alpha 60.76770
_cell_angle_beta  118.96575
_cell_angle_gamma 133.25945

_symmetry_space_group_name_	'P 1'
_symmetry_space_group_name_H-M	'P 1'

loop_
_symmetry_equiv_pos_as_xyz
  x,y,z

loop_
_atom_site_label
_atom_site_type_symbol
_atom_site_fract_x
_atom_site_fract_y
_atom_site_fract_z
_atom_site_charge
N 	N 	0.55290 0.19586 0.48839 -0.13200
C 	C 	0.50736 0.22265 0.50054 0.13000
N 	N 	0.57101 0.32335 0.50776 -0.13200
C 	C 	0.39056 0.71294 0.21262 0.12700
N 	N 	0.30580 0.62057 0.19497 -0.13500
C 	C 	0.33093 0.56993 0.18644 0.13000
N 	N 	0.44062 0.61203 0.19532 -0.13400
C 	C 	0.52487 0.70364 0.21291 0.13400
N 	N 	0.49959 0.75168 0.22317 -0.13700
C 	C 	0.17778 0.57264 0.70667 0.13100
N 	N 	0.11731 0.46909 0.70438 -0.13700
C 	C 	0.16159 0.44018 0.69292 0.13300
N 	N 	0.26744 0.51479 0.68444 -0.13400
C 	C 	0.32891 0.61820 0.68745 0.13000
N 	N 	0.28446 0.64637 0.69917 -0.13800
Co	Co	0.16522 0.09330 0.03680 1.19800
Co	Co	0.08210 0.17217 0.07403 1.18400
Co	Co	0.07435 0.88885 0.11541 1.17500
C 	C 	0.39957 0.15236 0.06192 0.32600
Co	Co	0.20075 0.92963 0.04165 1.15400
O 	O 	0.15771 0.21466 0.02169 -0.46200
O 	O 	0.12017 0.04906 0.10993 -0.56200
C 	C 	0.17125 0.34063 0.12267 0.32400
C 	C 	0.10900 0.03694 0.94311 0.34000
C 	C 	0.21969 0.81151 0.15755 0.31800
O 	O 	0.19936 0.03817 0.96877 -0.34700
O 	O 	0.06591 0.04323 0.96719 -0.37000
O 	O 	0.06480 0.29578 0.11671 -0.40800
O 	O 	0.19817 0.30894 0.10338 -0.38800
O 	O 	0.19607 0.80890 0.10939 -0.41200
O 	O 	0.18782 0.85126 0.16808 -0.39800
O 	O 	0.15233 0.97767 0.07045 -0.80300
C 	C 	0.04810 0.03933 0.24921 0.37000
O 	O 	0.06219 0.13096 0.21726 -0.36700
O 	O 	0.04519 0.97649 0.23433 -0.42100
O 	O 	0.36421 0.05148 0.07156 -0.36800
O 	O 	0.33021 0.18174 0.03274 -0.37600
Co	Co	0.00971 0.98040 0.53845 1.16300
C 	C 	0.22969 0.05558 0.53655 0.38600
Co	Co	0.04962 0.81736 0.54426 1.16000
O 	O 	0.00826 0.10214 0.53026 -0.44600
C 	C 	0.02373 0.19128 0.65103 0.29900
C 	C 	0.13169 0.77464 0.66080 0.31200
O 	O 	0.04423 0.16451 0.62509 -0.38600
O 	O 	0.16392 0.82465 0.61648 -0.40100
O 	O 	0.08187 0.79751 0.67052 -0.40800
O 	O 	0.16840 0.97821 0.51252 -0.45700
O 	O 	0.18271 0.05776 0.56050 -0.39700
C 	C 	0.04660 0.00887 0.89179 -0.08500
C 	C 	0.10579 0.06181 0.85317 0.31800
C 	C 	0.05452 0.02007 0.80954 -0.04100
H 	H 	0.10023 0.06297 0.77954 0.09600
F 	F 	0.21364 0.15312 0.85830 -0.42600
C 	C 	0.05586 0.05174 0.37388 -0.04900
C 	C 	0.03012 0.00397 0.30156 -0.09800
C 	C 	0.08819 0.08119 0.32957 0.32000
F 	F 	0.17648 0.18464 0.31407 -0.43300
H 	H 	0.10343 0.11120 0.39594 0.09100
C 	C 	0.09498 0.32744 0.69095 -0.01800
C 	C 	0.10518 0.30244 0.65874 -0.11400
H 	H 	0.02960 0.26466 0.71301 0.06400
H 	H 	0.16947 0.36513 0.63606 0.08200
C 	C 	0.48398 0.68179 0.65780 -0.12300
C 	C 	0.44120 0.70184 0.67548 -0.01100
H 	H 	0.43918 0.60069 0.65467 0.09000
H 	H 	0.48963 0.78235 0.68063 0.04800
C 	C 	0.11940 0.60977 0.70539 -0.02100
C 	C 	0.17546 0.71377 0.70364 -0.12700
H 	H 	0.02746 0.55965 0.69361 0.04900
H 	H 	0.26489 0.75958 0.72282 0.08600
C 	C 	0.26102 0.44012 0.14213 -0.12400
C 	C 	0.23935 0.47312 0.16472 -0.01100
H 	H 	0.34655 0.48562 0.13905 0.08800
H 	H 	0.15344 0.42903 0.16680 0.05600
C 	C 	0.64113 0.76170 0.21164 -0.01400
H 	H 	0.59933 0.74618 0.13630 0.08200
C 	C 	0.26285 0.75005 0.20078 -0.12900
C 	C 	0.36759 0.78590 0.20674 -0.01700
H 	H 	0.20194 0.66516 0.21738 0.08300
H 	H 	0.43234 0.87300 0.19698 0.04200
H 	H 	0.58675 0.06887 0.48891 0.08900
C 	C 	0.38606 0.14613 0.50001 0.00100
C 	C 	0.34175 0.14098 0.53203 -0.15900
H 	H 	0.33147 0.08668 0.47685 0.06900
H 	H 	0.39448 0.20274 0.55359 0.09900
C 	C 	0.59462 0.21435 0.08813 -0.01300
C 	C 	0.51559 0.23465 0.07181 -0.13800
H 	H 	0.57204 0.13276 0.10894 0.06100
H 	H 	0.54377 0.31834 0.05845 0.09300
C 	C 	0.59683 0.76737 0.64703 0.31800
C 	C 	0.66495 0.78970 0.16686 -0.13200
O 	O 	0.03151 0.81185 0.01498 -0.41900
C 	C 	0.69148 0.29116 0.06395 0.12800
O 	O 	0.62809 0.86846 0.62540 -0.40100
O 	O 	0.02272 0.09154 0.12664 -0.74600
N 	N 	0.70976 0.25450 0.04160 -0.13300
C 	C 	0.66134 0.26941 0.48306 0.13400
C 	C 	0.67924 0.39731 0.50187 0.13400
O 	O 	0.66403 0.74039 0.65905 -0.37200
H 	H 	0.70882 0.80168 0.24309 0.06400
H 	H 	0.66243 0.46435 0.56180 0.09700
C 	C 	0.67770 0.13035 0.49569 -0.12000
H 	H 	0.72414 0.21792 0.96785 0.05700
N 	N 	0.75381 0.39954 0.05817 -0.13500
N 	N 	0.72283 0.37078 0.48836 -0.13500
C 	C 	0.71896 0.23538 0.48044 -0.01300
C 	C 	0.74181 0.52036 0.54991 -0.14600
C 	C 	0.75134 0.50515 0.51143 -0.00200
C 	C 	0.77419 0.88981 0.15537 0.32300
C 	C 	0.74979 0.09706 0.53769 0.32200
C 	C 	0.78915 0.32522 0.01308 0.10300
F 	F 	0.77571 0.78217 0.83685 -0.43800
Co	Co	0.78484 0.99604 0.65358 1.15900
O 	O 	0.78254 0.11088 0.58435 -0.39400
O 	O 	0.78937 0.89049 0.72707 -0.39100
C 	C 	0.80177 0.28301 0.98649 0.04300
O 	O 	0.80055 0.07862 0.52554 -0.37300
H 	H 	0.80779 0.29635 0.47938 0.05700
O 	O 	0.98189 0.85667 0.56654 -0.75100
C 	C 	0.83488 0.47125 0.03025 0.12500
N 	N 	0.85249 0.43388 0.00757 -0.13100
Co	Co	0.99599 0.96841 0.15630 1.18400
Co	Co	0.94945 0.13048 0.14534 1.17900
C 	C 	0.96081 0.74157 0.04635 0.34600
O 	O 	0.84320 0.12361 0.07114 -0.38300
C 	C 	0.88734 0.18736 0.02991 0.32500
O 	O 	0.99443 0.84348 0.16680 -0.45700
O 	O 	0.94425 0.17303 0.01964 -0.38800
O 	O 	0.82742 0.96994 0.17593 -0.41900
O 	O 	0.82471 0.89307 0.13119 -0.41400
O 	O 	0.94451 0.77600 0.07005 -0.40200
Co	Co	0.83527 0.84421 0.65898 1.19300
Co	Co	0.92034 0.05009 0.57983 1.20000
Co	Co	0.93256 0.77955 0.62194 1.18900
C 	C 	0.83250 0.60936 0.57182 0.34200
O 	O 	0.84123 0.95625 0.62485 -0.78200
O 	O 	0.86383 0.73615 0.67739 -0.45500
O 	O 	0.88562 0.89559 0.58608 -0.58400
C 	C 	0.94694 0.90909 0.44322 0.34600
O 	O 	0.93135 0.81680 0.47478 -0.36500
O 	O 	0.95699 0.97482 0.45952 -0.38100
O 	O 	0.95066 0.11573 0.68109 -0.36800
C 	C 	0.88172 0.89552 0.75282 0.36200
O 	O 	0.92943 0.89527 0.72850 -0.40200
O 	O 	0.93614 0.65256 0.57364 -0.39900
O 	O 	0.81495 0.63558 0.59893 -0.39000
C 	C 	0.93493 0.91516 0.88564 -0.12800
C 	C 	0.94314 0.92586 0.80359 -0.17100
C 	C 	0.88360 0.87342 0.84199 0.36100
H 	H 	0.88924 0.87231 0.91564 0.11100
C 	C 	0.96577 0.94482 0.39100 -0.16500
C 	C 	0.90784 0.86764 0.36297 0.35100
C 	C 	0.94121 0.89678 0.31912 -0.12600
H 	H 	0.89547 0.83668 0.29779 0.09800
F 	F 	0.81924 0.76426 0.37830 -0.44500
H 	H 	0.82365 0.57006 0.49366 0.06500
C 	C 	0.89532 0.28840 0.00316 -0.17000
H 	H 	0.97716 0.36388 0.01091 0.09200
C 	C 	0.90381 0.58952 0.02429 -0.00500
C 	C 	0.88685 0.63129 0.04653 -0.15000
H 	H 	0.97066 0.64433 0.00340 0.05500
H 	H 	0.81964 0.57625 0.06720 0.09400
