data_crystal

_cell_length_a 26.27795
_cell_length_b 26.45235
_cell_length_c 26.56057
_cell_angle_alpha 95.48766
_cell_angle_beta  95.48701
_cell_angle_gamma 125.83225

_symmetry_space_group_name_	'P 1'
_symmetry_space_group_name_H-M	'P 1'

loop_
_symmetry_equiv_pos_as_xyz
  x,y,z

loop_
_atom_site_label
_atom_site_type_symbol
_atom_site_fract_x
_atom_site_fract_y
_atom_site_fract_z
_atom_site_charge
C 	C 	0.00862 0.06946 0.00741 0.02700
C 	C 	0.07525 0.10543 0.01278 -0.06900
C 	C 	0.10409 0.07492 0.00654 0.03500
C 	C 	0.06647 0.00848 0.99714 -0.06500
C 	C 	0.00016 0.97251 0.99353 0.01700
C 	C 	0.97113 0.00298 0.99796 -0.05500
H 	H 	0.10433 0.15686 0.02054 0.05300
H 	H 	0.08882 0.98484 0.99302 0.04500
H 	H 	0.91965 0.97511 0.99423 0.04600
C 	C 	0.89827 0.96347 0.43590 0.04100
C 	C 	0.86235 0.89731 0.43118 -0.08000
C 	C 	0.89346 0.86893 0.43692 0.04200
C 	C 	0.96036 0.90659 0.44574 -0.08100
C 	C 	0.99623 0.97240 0.44904 0.03800
C 	C 	0.96522 0.00092 0.44476 -0.07200
H 	H 	0.81058 0.86822 0.42391 0.05500
H 	H 	0.98442 0.88462 0.44951 0.05400
H 	H 	0.99302 0.05198 0.44793 0.05500
Cu	Cu	0.68237 0.28519 0.01497 0.92800
Cu	Cu	0.71429 0.26491 0.90155 0.87100
Cu	Cu	0.71458 0.37512 0.93858 0.89800
Cu	Cu	0.69830 0.41375 0.04468 0.89700
C 	C 	0.69549 0.33533 0.11926 0.30700
O 	O 	0.59156 0.25078 0.01954 -0.36400
C 	C 	0.67855 0.31535 0.82796 0.30700
O 	O 	0.73716 0.38254 0.01097 -0.63700
O 	O 	0.66593 0.28240 0.94012 -0.64200
O 	O 	0.71784 0.23617 0.01505 -0.36600
O 	O 	0.77942 0.28656 0.95643 -0.44100
O 	O 	0.71132 0.39133 0.11211 -0.38200
O 	O 	0.76701 0.46599 0.94230 -0.38000
C 	C 	0.76453 0.50557 0.97427 0.29500
C 	C 	0.56906 0.28268 0.01040 0.29800
O 	O 	0.60560 0.33853 0.99769 -0.38600
O 	O 	0.72526 0.48552 0.00750 -0.39100
O 	O 	0.70792 0.30338 0.08818 -0.36200
C 	C 	0.76572 0.25146 0.99189 0.29200
O 	O 	0.70623 0.36775 0.86291 -0.38500
O 	O 	0.66931 0.26380 0.84022 -0.41900
H 	H 	0.78377 0.40746 0.02353 0.16500
H 	H 	0.62018 0.25767 0.92424 0.17600
Cu	Cu	0.68809 0.29428 0.42284 0.92800
Cu	Cu	0.71076 0.26494 0.53676 0.87200
Cu	Cu	0.59904 0.26355 0.50038 0.89700
Cu	Cu	0.55844 0.27775 0.39427 0.89600
C 	C 	0.63583 0.27848 0.31835 0.30800
O 	O 	0.72147 0.38412 0.41678 -0.35900
C 	C 	0.66083 0.30077 0.61081 0.30300
O 	O 	0.59045 0.23970 0.42800 -0.63700
O 	O 	0.69217 0.31204 0.49778 -0.64100
O 	O 	0.73766 0.25904 0.42298 -0.36700
O 	O 	0.68790 0.19912 0.48253 -0.44100
O 	O 	0.58047 0.26499 0.32640 -0.38400
O 	O 	0.50764 0.21127 0.49769 -0.37900
C 	C 	0.46698 0.21239 0.46543 0.29500
C 	C 	0.68973 0.40655 0.42742 0.29200
O 	O 	0.63407 0.37004 0.44097 -0.38800
O 	O 	0.48625 0.25063 0.43161 -0.39300
O 	O 	0.66818 0.26670 0.34989 -0.36200
C 	C 	0.72236 0.21174 0.44652 0.29300
O 	O 	0.60780 0.27360 0.57625 -0.38600
O 	O 	0.71269 0.31059 0.59780 -0.40900
H 	H 	0.56532 0.19331 0.41591 0.16500
H 	H 	0.71709 0.35765 0.51316 0.17600
C 	C 	0.66766 0.31791 0.77304 -0.10800
C 	C 	0.71634 0.36862 0.75314 -0.06200
C 	C 	0.71213 0.36563 0.69983 0.16600
C 	C 	0.65904 0.31143 0.66595 -0.10800
C 	C 	0.60767 0.26359 0.68592 -0.06300
C 	C 	0.61203 0.26635 0.73924 0.16700
H 	H 	0.75880 0.40909 0.77890 0.06300
O 	O 	0.76120 0.41449 0.68091 -0.28700
H 	H 	0.56570 0.22260 0.66012 0.06300
O 	O 	0.56163 0.21902 0.75824 -0.28700
H 	H 	0.56793 0.18554 0.75834 0.14500
H 	H 	0.74985 0.44388 0.67712 0.14600
C 	C 	0.68140 0.31772 0.16964 -0.10300
C 	C 	0.72919 0.35333 0.21388 -0.05400
C 	C 	0.71504 0.33943 0.26249 0.16600
C 	C 	0.65236 0.29007 0.26710 -0.10100
C 	C 	0.60482 0.25384 0.22266 -0.05700
C 	C 	0.61923 0.26730 0.17405 0.16300
H 	H 	0.77716 0.39231 0.21066 0.06200
O 	O 	0.76160 0.37636 0.30562 -0.28400
H 	H 	0.55655 0.21552 0.22582 0.06300
O 	O 	0.57173 0.23316 0.13117 -0.29000
H 	H 	0.57244 0.19706 0.11869 0.15400
H 	H 	0.78282 0.35578 0.31119 0.15400
C 	C 	0.70937 0.55500 0.40196 -0.07600
C 	C 	0.77153 0.60245 0.42906 0.01900
C 	C 	0.80745 0.58540 0.45461 -0.00900
C 	C 	0.78045 0.52124 0.45351 0.00100
C 	C 	0.71805 0.47373 0.42671 -0.09400
C 	C 	0.68293 0.49086 0.39973 0.06300
C 	C 	0.79922 0.66987 0.42934 -0.00100
S 	S 	0.88656 0.64389 0.48724 -0.04000
H 	H 	0.80786 0.50830 0.47378 0.03700
S 	S 	0.60759 0.43268 0.36050 -0.07100
H 	H 	0.68212 0.56807 0.38162 0.05500
C 	C 	0.82722 0.69896 0.38809 0.01000
C 	C 	0.85498 0.76334 0.38985 -0.04800
C 	C 	0.85614 0.79948 0.43282 -0.01700
C 	C 	0.82724 0.77011 0.47376 0.01800
C 	C 	0.79840 0.70540 0.47153 -0.05500
S 	S 	0.82984 0.65586 0.33493 -0.04200
H 	H 	0.87733 0.78584 0.35841 0.04500
S 	S 	0.82896 0.81427 0.52879 -0.05000
H 	H 	0.77655 0.68297 0.50314 0.04900
H 	H 	0.56082 0.41431 0.38918 0.03300
H 	H 	0.88327 0.65811 0.34551 0.03700
H 	H 	0.88452 0.84096 0.56312 0.03700
H 	H 	0.92729 0.65865 0.45322 0.03600
C 	C 	0.83400 0.16605 0.43960 -0.07500
C 	C 	0.79015 0.09981 0.42573 0.01600
C 	C 	0.72422 0.07106 0.41415 -0.00400
C 	C 	0.70274 0.10855 0.41856 -0.00200
C 	C 	0.74644 0.17464 0.43448 -0.09900
C 	C 	0.81261 0.20360 0.44420 0.05400
C 	C 	0.81359 0.06082 0.42673 0.00200
S 	S 	0.66816 0.98823 0.39442 -0.04800
H 	H 	0.65190 0.08618 0.41067 0.03700
S 	S 	0.86900 0.28632 0.46474 -0.05600
H 	H 	0.88478 0.18825 0.44809 0.05200
C 	C 	0.83331 0.04682 0.38340 0.00800
C 	C 	0.85933 0.01347 0.38639 -0.04100
C 	C 	0.86588 0.99385 0.43225 -0.02500
C 	C 	0.84486 0.00667 0.47522 0.02700
C 	C 	0.81880 0.03995 0.47220 -0.05900
S 	S 	0.82598 0.07110 0.32541 -0.04000
H 	H 	0.87531 0.00351 0.35326 0.04600
S 	S 	0.85203 0.98235 0.53326 -0.05400
H 	H 	0.80334 0.05040 0.50546 0.04800
H 	H 	0.87926 0.30080 0.51736 0.02200
H 	H 	0.87964 0.13124 0.32648 0.03700
H 	H 	0.79850 0.92208 0.53199 0.03700
H 	H 	0.65960 0.97279 0.34204 0.03700
C 	C 	0.16289 0.06212 0.41888 -0.05500
C 	C 	0.19941 0.07741 0.46758 -0.00100
C 	C 	0.16932 0.06020 0.51056 0.01200
C 	C 	0.10306 0.02734 0.50429 -0.04900
C 	C 	0.06641 0.01120 0.45544 -0.01500
C 	C 	0.09662 0.02884 0.41252 0.01600
C 	C 	0.26914 0.11134 0.47303 0.01700
S 	S 	0.21386 0.07823 0.57208 -0.04100
H 	H 	0.07984 0.01350 0.53727 0.04600
S 	S 	0.05179 0.00811 0.35051 -0.04700
H 	H 	0.18604 0.07546 0.38583 0.04700
C 	C 	0.29462 0.07801 0.46221 -0.00400
C 	C 	0.36008 0.11155 0.46214 -0.00500
C 	C 	0.40043 0.17809 0.47284 -0.09200
C 	C 	0.37552 0.21125 0.48678 0.06000
C 	C 	0.30999 0.17775 0.48625 -0.07500
S 	S 	0.24496 0.99445 0.44824 -0.05000
H 	H 	0.37932 0.08591 0.45237 0.03300
S 	S 	0.42605 0.29443 0.50629 -0.04500
H 	H 	0.29062 0.20335 0.49565 0.05400
H 	H 	0.03117 0.94877 0.32801 0.03100
H 	H 	0.22018 0.97398 0.39653 0.03300
H 	H 	0.43134 0.32210 0.46411 0.03900
H 	H 	0.21898 0.03041 0.57806 0.03800
C 	C 	0.91024 0.80624 0.02191 -0.05200
C 	C 	0.89639 0.77089 0.97313 -0.00500
C 	C 	0.91422 0.80156 0.93059 0.01400
C 	C 	0.94643 0.86727 0.93742 -0.05400
C 	C 	0.96137 0.90280 0.98640 -0.00600
C 	C 	0.94294 0.87198 0.02884 0.01300
C 	C 	0.86349 0.70183 0.96717 0.02000
S 	S 	0.89790 0.75845 0.86896 -0.04400
H 	H 	0.96083 0.89097 0.90480 0.04600
S 	S 	0.96212 0.91542 0.09101 -0.04500
H 	H 	0.89636 0.78261 0.05461 0.04700
C 	C 	0.89797 0.67769 0.97888 -0.00900
C 	C 	0.86518 0.61275 0.97881 -0.00300
C 	C 	0.79825 0.57162 0.96703 -0.09300
C 	C 	0.76404 0.59520 0.95208 0.06000
C 	C 	0.79678 0.66021 0.95278 -0.07600
S 	S 	0.98205 0.72838 0.99415 -0.04000
H 	H 	0.89165 0.59451 0.98930 0.03200
S 	S 	0.68054 0.54368 0.93110 -0.04400
H 	H 	0.77033 0.67857 0.94267 0.05400
H 	H 	0.02178 0.93642 0.11424 0.03100
H 	H 	0.00126 0.75273 0.04592 0.03000
H 	H 	0.65122 0.53755 0.97248 0.04000
H 	H 	0.94693 0.75458 0.86364 0.03800
C 	C 	0.93212 0.14790 0.96847 -0.05500
C 	C 	0.91207 0.15507 0.01391 -0.00300
C 	C 	0.92593 0.13623 0.05787 0.01400
C 	C 	0.95876 0.10956 0.05566 -0.05200
C 	C 	0.97778 0.10134 0.00991 -0.00500
C 	C 	0.96483 0.12116 0.96622 0.01300
C 	C 	0.87428 0.17990 0.01430 0.02000
S 	S 	0.90253 0.14591 0.11578 -0.04000
H 	H 	0.96891 0.09455 0.08935 0.04900
S 	S 	0.98817 0.11154 0.90823 -0.04400
H 	H 	0.92161 0.16254 0.93469 0.04500
C 	C 	0.90468 0.24574 0.02513 -0.01100
C 	C 	0.86836 0.26852 0.01961 0.00000
C 	C 	0.80182 0.22621 0.00344 -0.09900
C 	C 	0.77122 0.16018 0.99415 0.05500
C 	C 	0.80759 0.13750 0.99990 -0.07700
S 	S 	0.98819 0.30004 0.04496 -0.03700
H 	H 	0.89197 0.31925 0.02705 0.03600
S 	S 	0.68799 0.10554 0.97247 -0.05700
H 	H 	0.78418 0.08682 0.99175 0.05400
H 	H 	0.94146 0.05218 0.87998 0.03600
H 	H 	0.01619 0.31477 0.00243 0.03000
H 	H 	0.67471 0.09531 0.91977 0.02000
H 	H 	0.94930 0.20525 0.14403 0.03900
C 	C 	0.42029 0.25946 0.04225 -0.07700
C 	C 	0.37238 0.19964 0.01205 0.02200
C 	C 	0.38927 0.16650 0.98211 -0.01000
C 	C 	0.45373 0.19412 0.98179 0.00200
C 	C 	0.50165 0.25422 0.01163 -0.09400
C 	C 	0.48475 0.28631 0.04306 0.06700
C 	C 	0.30464 0.17154 0.01276 -0.00200
S 	S 	0.33025 0.08985 0.94592 -0.04000
H 	H 	0.46662 0.16890 0.95827 0.03600
S 	S 	0.54368 0.35791 0.08608 -0.07500
H 	H 	0.40733 0.28446 0.06598 0.05600
C 	C 	0.27557 0.14065 0.05300 0.01100
C 	C 	0.21064 0.11192 0.05176 -0.05000
C 	C 	0.17390 0.11240 0.01014 -0.01200
C 	C 	0.20319 0.14393 0.97013 0.01600
C 	C 	0.26851 0.17409 0.97208 -0.05400
S 	S 	0.31936 0.13550 0.10404 -0.04300
H 	H 	0.18819 0.08759 0.08248 0.04500
S 	S 	0.15812 0.14352 0.91634 -0.04600
H 	H 	0.29094 0.19805 0.94122 0.05000
H 	H 	0.55888 0.34458 0.13126 0.04900
H 	H 	0.31792 0.08336 0.09026 0.03600
H 	H 	0.13238 0.08988 0.88036 0.03700
H 	H 	0.31585 0.04595 0.97652 0.03500
