data_crystal

_cell_length_a 26.23702
_cell_length_b 26.52028
_cell_length_c 35.02937
_cell_angle_alpha 95.47898
_cell_angle_beta  95.47657
_cell_angle_gamma 125.80208

_symmetry_space_group_name_	'P 1'
_symmetry_space_group_name_H-M	'P 1'

loop_
_symmetry_equiv_pos_as_xyz
  x,y,z

loop_
_atom_site_label
_atom_site_type_symbol
_atom_site_fract_x
_atom_site_fract_y
_atom_site_fract_z
_atom_site_charge
C 	C 	0.97312 0.02448 0.99287 0.03600
C 	C 	0.93474 0.95958 0.99372 -0.06900
C 	C 	0.96022 0.92574 0.99054 0.04000
C 	C 	0.02460 0.95716 0.98757 -0.06900
C 	C 	0.06299 0.02189 0.98622 0.03600
C 	C 	0.03699 0.05544 0.98854 -0.07000
H 	H 	0.88499 0.93534 0.99626 0.06000
H 	H 	0.04447 0.93104 0.98558 0.06000
H 	H 	0.06627 0.10532 0.98698 0.05900
C 	C 	0.93203 0.00687 0.46477 0.03100
C 	C 	0.90084 0.94410 0.47011 -0.06200
C 	C 	0.93400 0.91749 0.47131 0.03500
C 	C 	0.99874 0.95435 0.46815 -0.06000
C 	C 	0.03039 0.01754 0.46397 0.02800
C 	C 	0.99703 0.04373 0.46222 -0.06300
H 	H 	0.85092 0.91594 0.47286 0.05800
H 	H 	0.02449 0.93396 0.46909 0.05500
H 	H 	0.02147 0.09257 0.45877 0.05600
Cu	Cu	0.64664 0.23869 0.00259 0.92800
Cu	Cu	0.70299 0.23941 0.92243 0.87400
Cu	Cu	0.68327 0.33619 0.95008 0.89900
Cu	Cu	0.63520 0.34914 0.02233 0.89700
C 	C 	0.65222 0.28407 0.08197 0.29900
O 	O 	0.55140 0.19527 0.99778 -0.36300
C 	C 	0.66859 0.29040 0.86648 0.29900
O 	O 	0.69271 0.33578 0.00485 -0.64100
O 	O 	0.64216 0.24373 0.94650 -0.64000
O 	O 	0.69052 0.19774 0.00491 -0.37000
O 	O 	0.76170 0.26131 0.96830 -0.43200
O 	O 	0.62120 0.30571 0.06816 -0.38400
O 	O 	0.72650 0.42650 0.95782 -0.37500
C 	C 	0.71492 0.45839 0.98219 0.29200
C 	C 	0.52380 0.21767 0.98049 0.28300
O 	O 	0.55910 0.27652 0.97527 -0.38300
O 	O 	0.66914 0.42988 0.00298 -0.38400
O 	O 	0.66413 0.25147 0.05849 -0.36200
C 	C 	0.74510 0.22228 0.99293 0.29400
O 	O 	0.69154 0.33940 0.89468 -0.38500
O 	O 	0.66416 0.24027 0.87382 -0.41600
H 	H 	0.73731 0.36538 0.01940 0.16900
H 	H 	0.59847 0.21635 0.93054 0.17500
Cu	Cu	0.72935 0.34310 0.45335 0.92900
Cu	Cu	0.72314 0.28981 0.53526 0.87500
Cu	Cu	0.62534 0.30573 0.50173 0.90000
Cu	Cu	0.61514 0.34851 0.42685 0.89600
C 	C 	0.68825 0.33393 0.37223 0.29900
O 	O 	0.76997 0.43658 0.45646 -0.36100
C 	C 	0.66519 0.32247 0.58694 0.30000
O 	O 	0.63012 0.29446 0.44771 -0.64000
O 	O 	0.71959 0.34845 0.50866 -0.63900
O 	O 	0.77367 0.30239 0.45507 -0.36200
O 	O 	0.70703 0.23211 0.49101 -0.43400
O 	O 	0.66410 0.36358 0.38350 -0.38500
O 	O 	0.53345 0.26010 0.49114 -0.37100
C 	C 	0.50108 0.26616 0.46301 0.29200
C 	C 	0.74412 0.46203 0.47165 0.28300
O 	O 	0.68358 0.42552 0.47467 -0.38400
O 	O 	0.53032 0.31166 0.44245 -0.38900
O 	O 	0.72106 0.32459 0.39782 -0.36200
C 	C 	0.74978 0.24967 0.46858 0.29000
O 	O 	0.61823 0.30107 0.55714 -0.38200
O 	O 	0.71726 0.32790 0.58200 -0.41600
H 	H 	0.60200 0.24988 0.43379 0.16900
H 	H 	0.74560 0.39186 0.52429 0.17500
C 	C 	0.66112 0.29742 0.82537 -0.11000
C 	C 	0.62801 0.32154 0.81202 0.13200
C 	C 	0.62687 0.33238 0.77355 -0.09800
C 	C 	0.65439 0.31571 0.74759 0.00300
C 	C 	0.68613 0.29021 0.76064 0.06000
C 	C 	0.68948 0.28173 0.79946 -0.02100
N 	N 	0.59524 0.33197 0.83532 -0.20200
H 	H 	0.60231 0.35156 0.76335 0.06200
C 	C 	0.64794 0.32319 0.70643 0.00200
N 	N 	0.71363 0.27396 0.73613 -0.19100
H 	H 	0.71499 0.26349 0.80969 0.03800
C 	C 	0.69712 0.37884 0.69543 -0.09700
C 	C 	0.70010 0.38200 0.65582 0.13100
C 	C 	0.65375 0.32801 0.62698 -0.11000
C 	C 	0.60079 0.27510 0.63787 -0.02300
C 	C 	0.59731 0.27217 0.67743 0.06200
H 	H 	0.73443 0.41888 0.71774 0.06100
N 	N 	0.74699 0.43696 0.64566 -0.20300
H 	H 	0.56390 0.23467 0.61562 0.04700
N 	N 	0.54612 0.21986 0.68736 -0.19200
H 	H 	0.78240 0.47598 0.66713 0.09200
H 	H 	0.74720 0.44231 0.61651 0.09700
H 	H 	0.50987 0.18165 0.66576 0.08900
H 	H 	0.54098 0.21715 0.71644 0.09200
H 	H 	0.73671 0.25495 0.74605 0.08400
H 	H 	0.71261 0.28006 0.70715 0.08900
H 	H 	0.58843 0.31724 0.86215 0.09800
H 	H 	0.57326 0.35222 0.82577 0.09600
C 	C 	0.68685 0.32016 0.33011 -0.10900
C 	C 	0.74341 0.34175 0.31515 0.13400
C 	C 	0.73911 0.32753 0.27476 -0.09800
C 	C 	0.68142 0.30009 0.24884 0.00300
C 	C 	0.62514 0.27951 0.26372 0.06100
C 	C 	0.62821 0.28799 0.30424 -0.02200
N 	N 	0.80201 0.37934 0.33883 -0.20300
H 	H 	0.78198 0.34279 0.26325 0.06200
C 	C 	0.68165 0.29819 0.20641 0.00300
N 	N 	0.56838 0.25267 0.23936 -0.19200
H 	H 	0.58498 0.27128 0.31569 0.03500
C 	C 	0.65633 0.24043 0.18205 -0.09800
C 	C 	0.64343 0.23371 0.14128 0.13400
C 	C 	0.66453 0.28809 0.12460 -0.10800
C 	C 	0.69476 0.34694 0.14908 -0.02200
C 	C 	0.70175 0.35229 0.18979 0.06200
H 	H 	0.64144 0.19925 0.19491 0.06200
N 	N 	0.60741 0.17481 0.11874 -0.20300
H 	H 	0.71111 0.38852 0.13632 0.03600
N 	N 	0.72668 0.40909 0.21261 -0.19200
H 	H 	0.59630 0.13583 0.13097 0.09300
H 	H 	0.58556 0.16620 0.08999 0.10600
H 	H 	0.74174 0.44873 0.20000 0.08800
H 	H 	0.73071 0.41451 0.24288 0.09300
H 	H 	0.52710 0.23721 0.25071 0.08700
H 	H 	0.56459 0.24759 0.20911 0.09200
H 	H 	0.80864 0.40171 0.36696 0.10700
H 	H 	0.84269 0.39095 0.32801 0.09400
C 	C 	0.89982 0.77592 0.51200 -0.01900
C 	C 	0.85235 0.72552 0.48176 0.00500
C 	C 	0.82760 0.73798 0.44976 -0.03600
C 	C 	0.85262 0.80037 0.44644 -0.01700
C 	C 	0.90127 0.85097 0.47624 0.00100
C 	C 	0.92326 0.83814 0.50936 -0.03600
C 	C 	0.83070 0.65988 0.48221 0.02700
C 	C 	0.79133 0.62571 0.50831 -0.06100
C 	C 	0.76719 0.56239 0.50746 0.02500
C 	C 	0.77952 0.53164 0.47867 -0.08400
C 	C 	0.82166 0.56690 0.45397 0.01100
C 	C 	0.84782 0.63087 0.45592 -0.04300
C 	C 	0.73232 0.53029 0.53721 0.07000
C 	C 	0.89219 0.66647 0.43082 0.09200
C 	C 	0.92616 0.76439 0.54521 0.08300
C 	C 	0.83002 0.81218 0.41165 0.08600
N 	N 	0.70444 0.50458 0.56105 -0.11500
N 	N 	0.92772 0.69503 0.41072 -0.11300
N 	N 	0.81196 0.82171 0.38379 -0.10600
N 	N 	0.94724 0.75511 0.57181 -0.11200
H 	H 	0.96026 0.87690 0.53245 0.04800
H 	H 	0.79048 0.69916 0.42674 0.05000
H 	H 	0.77971 0.64853 0.52937 0.05600
H 	H 	0.83267 0.54409 0.43244 0.04500
C 	C 	0.85698 0.08650 0.49437 -0.02000
C 	C 	0.84236 0.09936 0.45844 0.00500
C 	C 	0.85272 0.07744 0.42418 -0.03700
C 	C 	0.87939 0.04462 0.42566 -0.01700
C 	C 	0.89670 0.03428 0.46187 0.00100
C 	C 	0.88417 0.05419 0.49590 -0.03700
C 	C 	0.81855 0.13799 0.45673 0.02700
C 	C 	0.86229 0.20414 0.46606 -0.06200
C 	C 	0.84067 0.24151 0.46862 0.02500
C 	C 	0.77429 0.21244 0.46104 -0.08900
C 	C 	0.73071 0.14633 0.44997 0.01300
C 	C 	0.75246 0.10903 0.44789 -0.04200
C 	C 	0.88679 0.30928 0.48082 0.06700
C 	C 	0.70661 0.04101 0.43748 0.08600
C 	C 	0.84458 0.10668 0.52980 0.08200
C 	C 	0.88873 0.02156 0.38995 0.08700
N 	N 	0.92378 0.36356 0.49061 -0.11200
N 	N 	0.66993 0.98650 0.42914 -0.10900
N 	N 	0.89622 0.00305 0.36136 -0.10400
N 	N 	0.83461 0.12287 0.55816 -0.11800
H 	H 	0.89679 0.04562 0.52369 0.04700
H 	H 	0.84057 0.08647 0.39646 0.05100
H 	H 	0.91319 0.22640 0.47254 0.05500
H 	H 	0.67975 0.12385 0.44382 0.03900
C 	C 	0.20959 0.11806 0.49626 -0.01900
C 	C 	0.23036 0.12701 0.46017 0.00500
C 	C 	0.18541 0.10133 0.42539 -0.03700
C 	C 	0.11997 0.06631 0.42630 -0.01800
C 	C 	0.09918 0.05679 0.46238 0.00100
C 	C 	0.14419 0.08307 0.49716 -0.03700
C 	C 	0.29917 0.16262 0.45853 0.02800
C 	C 	0.32613 0.13014 0.45527 -0.06100
C 	C 	0.39184 0.16329 0.45585 0.02600
C 	C 	0.43124 0.22985 0.45994 -0.08100
C 	C 	0.40387 0.26211 0.46215 0.01400
C 	C 	0.33814 0.22888 0.46147 -0.04300
C 	C 	0.41817 0.12857 0.45134 0.06700
C 	C 	0.31112 0.26312 0.46424 0.09300
C 	C 	0.25513 0.14451 0.53243 0.08400
C 	C 	0.07440 0.03973 0.39012 0.08500
N 	N 	0.43927 0.10077 0.44772 -0.11700
N 	N 	0.28942 0.29050 0.46647 -0.11400
N 	N 	0.03785 0.01841 0.36116 -0.10600
N 	N 	0.29167 0.16573 0.56140 -0.11200
H 	H 	0.12818 0.07582 0.52491 0.04700
H 	H 	0.20144 0.10841 0.39765 0.04900
H 	H 	0.29596 0.07906 0.45258 0.05500
H 	H 	0.43397 0.31323 0.46512 0.04300
C 	C 	0.86895 0.76759 0.02250 -0.01900
C 	C 	0.84842 0.72582 0.98680 0.00600
C 	C 	0.86146 0.74957 0.95210 -0.03800
C 	C 	0.89636 0.81469 0.95285 -0.01600
C 	C 	0.91883 0.85669 0.98872 -0.00100
C 	C 	0.90417 0.83278 0.02328 -0.03400
C 	C 	0.81442 0.65720 0.98556 0.02800
C 	C 	0.74748 0.61633 0.97578 -0.06200
C 	C 	0.71438 0.55112 0.97395 0.02900
C 	C 	0.74858 0.52648 0.98258 -0.08100
C 	C 	0.81560 0.56733 0.99182 0.01200
C 	C 	0.84867 0.63246 0.99331 -0.04200
C 	C 	0.64562 0.50965 0.96182 0.07600
C 	C 	0.91772 0.67365 0.00279 0.09300
C 	C 	0.85448 0.74390 0.05843 0.08600
C 	C 	0.90892 0.83815 0.91672 0.08400
N 	N 	0.59055 0.47643 0.95209 -0.10900
N 	N 	0.97305 0.70669 0.01039 -0.11300
N 	N 	0.91904 0.85703 0.88781 -0.10900
N 	N 	0.84287 0.72487 0.08720 -0.11100
H 	H 	0.92098 0.86505 0.05082 0.05100
H 	H 	0.84498 0.71733 0.92459 0.05000
H 	H 	0.72124 0.63533 0.96931 0.05600
H 	H 	0.84196 0.54841 0.99816 0.03600
C 	C 	0.90998 0.10908 0.03605 -0.01900
C 	C 	0.88581 0.11902 0.00222 0.00400
C 	C 	0.89341 0.10085 0.96554 -0.03700
C 	C 	0.92307 0.07109 0.96220 -0.01800
C 	C 	0.94595 0.05983 0.99594 -0.00000
C 	C 	0.93999 0.07964 0.03274 -0.03600
C 	C 	0.84975 0.14571 0.00467 0.02700
C 	C 	0.88280 0.21148 0.01073 -0.06400
C 	C 	0.84916 0.23742 0.00945 0.02800
C 	C 	0.78157 0.19706 0.00124 -0.09300
C 	C 	0.74871 0.13139 0.99743 0.01000
C 	C 	0.78241 0.10558 0.99910 -0.04300
C 	C 	0.88427 0.30538 0.01749 0.07200
C 	C 	0.74756 0.03781 0.99453 0.08500
C 	C 	0.90328 0.12806 0.07415 0.08600
C 	C 	0.92876 0.05114 0.92401 0.08200
N 	N 	0.91241 0.35982 0.02394 -0.11200
N 	N 	0.71971 0.98352 0.99087 -0.11000
N 	N 	0.93335 0.03511 0.89344 -0.11100
N 	N 	0.89787 0.14329 0.10466 -0.11000
H 	H 	0.95787 0.07124 0.05872 0.05100
H 	H 	0.87508 0.10881 0.93953 0.04600
H 	H 	0.93469 0.24240 0.01603 0.05600
H 	H 	0.69681 0.10023 0.99178 0.03600
C 	C 	0.20535 0.05753 0.94379 -0.01700
C 	C 	0.25658 0.10372 0.97414 0.00400
C 	C 	0.24436 0.12640 0.00719 -0.03600
C 	C 	0.18144 0.10097 0.01122 -0.01900
C 	C 	0.13004 0.05393 0.98115 0.00200
C 	C 	0.14257 0.03363 0.94721 -0.04200
C 	C 	0.32303 0.12675 0.97239 0.02700
C 	C 	0.35609 0.16768 0.94683 -0.06100
C 	C 	0.42032 0.19342 0.94669 0.02400
C 	C 	0.45317 0.18108 0.97410 -0.08400
C 	C 	0.41887 0.13728 0.99814 0.01000
C 	C 	0.35400 0.10963 0.99708 -0.04400
C 	C 	0.45104 0.22987 0.91724 0.07400
C 	C 	0.31951 0.06377 0.02149 0.09000
C 	C 	0.21666 0.03312 0.90959 0.08200
C 	C 	0.16992 0.12165 0.04687 0.08200
N 	N 	0.47548 0.25904 0.89360 -0.11700
N 	N 	0.29185 0.02703 0.04103 -0.11500
N 	N 	0.16066 0.13819 0.07543 -0.11300
N 	N 	0.22576 0.01360 0.88221 -0.11200
H 	H 	0.10316 0.99780 0.92396 0.05600
H 	H 	0.28383 0.16244 0.03034 0.04900
H 	H 	0.33168 0.17931 0.92695 0.05600
H 	H 	0.44311 0.12605 0.01849 0.04400
