data_crystal

_cell_length_a 20.75958
_cell_length_b 17.56795
_cell_length_c 57.71649
_cell_angle_alpha 90.66938
_cell_angle_beta  91.54207
_cell_angle_gamma 110.91805

_symmetry_space_group_name_	'P 1'
_symmetry_space_group_name_H-M	'P 1'

loop_
_symmetry_equiv_pos_as_xyz
  x,y,z

loop_
_atom_site_label
_atom_site_type_symbol
_atom_site_fract_x
_atom_site_fract_y
_atom_site_fract_z
_atom_site_charge
O 	O 	0.15757 0.67640 0.38905 -0.36500
O 	O 	0.15103 0.59058 0.43101 -0.37200
C 	C 	0.15028 0.52837 0.44379 0.29000
O 	O 	0.18375 0.73082 0.02888 -0.36400
C 	C 	0.15714 0.49818 0.01348 0.30600
C 	C 	0.22107 0.80587 0.03592 0.27700
O 	O 	0.19237 0.57159 0.02175 -0.39700
O 	O 	0.00679 0.11102 0.25603 -0.38300
O 	O 	0.09038 0.15621 0.22931 -0.41500
Ni	Ni	0.03692 0.17804 0.20065 1.06600
O 	O 	0.09237 0.13045 0.17925 -0.39300
C 	C 	0.07088 0.05617 0.17020 0.30000
C 	C 	0.06911 0.15805 0.25050 0.28200
C 	C 	0.08466 0.30931 0.10744 -0.07500
C 	C 	0.03925 0.28647 0.08809 0.00900
C 	C 	0.06656 0.27015 0.12854 0.05900
C 	C 	0.05873 0.33214 0.06638 0.01500
S 	S 	0.12777 0.29739 0.15179 -0.07300
H 	H 	0.13437 0.35784 0.10605 0.05200
C 	C 	0.04135 0.40156 0.06236 -0.01100
C 	C 	0.07050 0.45261 0.04401 0.00100
C 	C 	0.11751 0.43571 0.02968 -0.09200
C 	C 	0.13192 0.36383 0.03289 0.05300
C 	C 	0.10233 0.31239 0.05117 -0.07300
S 	S 	0.98521 0.42684 0.08069 -0.03000
H 	H 	0.05844 0.50713 0.04137 0.04500
H 	H 	0.11531 0.25864 0.05410 0.05300
H 	H 	0.11943 0.35882 0.16477 0.02700
H 	H 	0.02249 0.47306 0.09913 0.03100
C 	C 	0.16116 0.93584 0.13879 -0.09100
C 	C 	0.16179 0.96568 0.11635 0.04800
C 	C 	0.14284 0.03419 0.11263 -0.03300
C 	C 	0.11885 0.06830 0.13101 0.01300
C 	C 	0.11298 0.03432 0.15307 -0.12000
C 	C 	0.13759 0.97032 0.15720 0.08800
C 	C 	0.17732 0.92120 0.09662 -0.00100
S 	S 	0.14766 0.07678 0.08497 -0.03800
H 	H 	0.10140 0.11857 0.12787 0.03800
S 	S 	0.14028 0.93396 0.18538 -0.04700
H 	H 	0.17778 0.88479 0.14183 0.05600
C 	C 	0.24580 0.93656 0.09037 0.01800
C 	C 	0.20454 0.84135 0.05747 -0.08900
C 	C 	0.13567 0.82487 0.06411 0.05200
C 	C 	0.12287 0.86391 0.08382 -0.06400
S 	S 	0.06482 0.76005 0.04740 -0.02200
H 	H 	0.07016 0.85158 0.08879 0.05300
H 	H 	0.07931 0.87185 0.18928 0.03400
H 	H 	0.03638 0.80724 0.03517 0.04600
H 	H 	0.21191 0.13470 0.08262 0.03500
C 	C 	0.26332 0.39598 0.33670 -0.06900
C 	C 	0.19810 0.33640 0.33188 0.01300
C 	C 	0.14623 0.32101 0.34835 -0.00600
C 	C 	0.15898 0.36799 0.36880 0.00400
C 	C 	0.22225 0.43181 0.37275 -0.08700
C 	C 	0.27526 0.44481 0.35685 0.05600
C 	C 	0.18190 0.29709 0.30864 0.01400
S 	S 	0.06392 0.24620 0.34294 -0.03500
H 	H 	0.11855 0.35721 0.38122 0.04800
H 	H 	0.30358 0.40706 0.32421 0.05500
C 	C 	0.16061 0.33585 0.29028 -0.00700
C 	C 	0.12904 0.29100 0.27027 -0.00400
C 	C 	0.11711 0.20747 0.26861 -0.09700
C 	C 	0.14353 0.17032 0.28610 0.06400
C 	C 	0.17696 0.21578 0.30584 -0.07500
S 	S 	0.16909 0.43902 0.29280 -0.04700
H 	H 	0.11012 0.32003 0.25657 0.01600
S 	S 	0.13307 0.06646 0.28383 -0.06300
H 	H 	0.07214 0.02023 0.29339 0.04400
H 	H 	0.02377 0.27967 0.33057 0.03700
C 	C 	0.01133 0.76466 0.33369 -0.00100
C 	C 	0.99453 0.71473 0.35315 0.01000
C 	C 	0.04657 0.71488 0.36903 -0.00900
C 	C 	0.11613 0.76052 0.36496 -0.08800
C 	C 	0.13289 0.80990 0.34525 0.06000
C 	C 	0.08026 0.81321 0.33013 -0.06900
H 	H 	0.03321 0.67718 0.38418 0.05200
H 	H 	0.09308 0.85177 0.31513 0.05600
C 	C 	0.02551 0.44358 0.43425 0.00000
C 	C 	0.03551 0.45923 0.40983 0.08000
N 	N 	0.04326 0.47173 0.39027 -0.10900
Ni	Ni	0.22900 0.65066 0.40937 1.10000
O 	O 	0.30608 0.70394 0.38683 -0.70200
Ni	Ni	0.38767 0.69124 0.40338 1.09800
O 	O 	0.22356 0.81117 0.38737 -0.40000
O 	O 	0.20582 0.54832 0.38867 -0.37500
Ni	Ni	0.32522 0.81997 0.38271 1.06900
O 	O 	0.34350 0.84542 0.41727 -0.41200
O 	O 	0.45682 0.73939 0.37814 -0.37300
O 	O 	0.31262 0.64769 0.42738 -0.70000
O 	O 	0.45774 0.65135 0.42040 -0.36800
O 	O 	0.37830 0.52280 0.42279 -0.40700
Ni	Ni	0.29457 0.53690 0.43878 1.06800
H 	H 	0.29739 0.67509 0.37158 0.15600
H 	H 	0.32182 0.68609 0.44081 0.15500
C 	C 	0.40323 0.85276 0.42692 0.29500
O 	O 	0.23395 0.46421 0.41306 -0.39400
C 	C 	0.17037 0.74792 0.37975 0.28300
C 	C 	0.45871 0.80687 0.36774 0.28000
C 	C 	0.22954 0.48937 0.39206 0.28800
C 	C 	0.44147 0.57495 0.42639 0.27200
O 	O 	0.43267 0.79951 0.42207 -0.37000
O 	O 	0.42874 0.85461 0.37699 -0.40600
Ni	Ni	0.21751 0.67506 0.00272 1.10000
O 	O 	0.46015 0.81355 0.02232 -0.40700
O 	O 	0.31196 0.70513 0.01935 -0.70100
O 	O 	0.44691 0.67848 0.01743 -0.37100
O 	O 	0.27455 0.84972 0.02403 -0.40400
Ni	Ni	0.36373 0.82141 0.02239 1.06700
H 	H 	0.30880 0.67946 0.03467 0.15600
C 	C 	0.47410 0.74867 0.02888 0.28300
O 	O 	0.01713 0.99893 0.17810 -0.38700
S 	S 	0.18916 0.33939 0.01486 -0.04900
H 	H 	0.25533 0.37604 0.02357 0.04000
C 	C 	0.65134 0.82189 0.05810 -0.07300
C 	C 	0.63708 0.78011 0.07897 0.01400
C 	C 	0.57013 0.72426 0.08264 -0.00400
C 	C 	0.51778 0.71328 0.06582 -0.00700
C 	C 	0.53100 0.75903 0.04563 -0.09300
C 	C 	0.59863 0.81249 0.04153 0.05700
C 	C 	0.68836 0.80621 0.09828 0.01400
S 	S 	0.55069 0.67007 0.10858 -0.04300
H 	H 	0.46617 0.67068 0.06873 0.02900
S 	S 	0.61804 0.86809 0.01585 -0.02000
H 	H 	0.70297 0.86449 0.05523 0.05600
C 	C 	0.69496 0.87713 0.11095 -0.07100
H 	H 	0.66535 0.91419 0.10563 0.05400
H 	H 	0.60788 0.94044 0.01879 0.03900
H 	H 	0.56215 0.59833 0.10611 0.03800
C 	C 	0.25907 0.89605 0.07109 -0.01500
S 	S 	0.31536 0.00723 0.10637 -0.08800
H 	H 	0.31201 0.90791 0.06647 0.01400
H 	H 	0.33442 0.96836 0.12426 0.04900
C 	C 	0.62438 0.88489 0.33447 -0.06800
C 	C 	0.60022 0.90537 0.31337 0.01000
C 	C 	0.52995 0.89524 0.31046 -0.00500
C 	C 	0.48425 0.86175 0.32821 -0.00700
C 	C 	0.50800 0.83951 0.34912 -0.08800
C 	C 	0.57907 0.85374 0.35252 0.05700
C 	C 	0.64750 0.93042 0.29373 0.03700
S 	S 	0.49892 0.92605 0.28491 -0.02400
H 	H 	0.43013 0.85329 0.32578 0.02000
S 	S 	0.61270 0.83778 0.37962 -0.02100
H 	H 	0.67854 0.89353 0.33687 0.05600
C 	C 	0.64256 0.87393 0.27586 -0.08100
S 	S 	0.67475 0.82215 0.23468 -0.11600
H 	H 	0.60330 0.81349 0.27629 0.05800
H 	H 	0.62892 0.90707 0.39317 0.04500
H 	H 	0.63156 0.83397 0.21789 0.04900
H 	H 	0.50681 0.00664 0.28716 0.02100
S 	S 	0.35588 0.52342 0.36163 -0.07200
H 	H 	0.19496 0.18648 0.31970 0.05400
H 	H 	0.35609 0.59186 0.35046 0.02100
S 	S 	0.21935 0.86338 0.33835 -0.10900
H 	H 	0.24093 0.93980 0.34840 0.04100
C 	C 	0.44489 0.93039 0.43886 -0.08300
C 	C 	0.51379 0.96989 0.43279 0.01900
H 	H 	0.53523 0.94412 0.41915 0.04800
C 	C 	0.62594 0.08145 0.43777 0.07200
N 	N 	0.68262 0.11294 0.43256 -0.12800
C 	C 	0.54893 0.44406 0.43824 -0.01600
C 	C 	0.50490 0.47690 0.42671 0.00400
C 	C 	0.49526 0.54657 0.43606 -0.06800
H 	H 	0.55490 0.38931 0.43134 0.03600
C 	C 	0.47050 0.43924 0.40518 0.08100
N 	N 	0.44299 0.40889 0.38795 -0.11300
N 	N 	0.46606 0.48969 0.01907 -0.11600
H 	H 	0.11282 0.44436 0.30359 0.03700
C 	C 	0.00117 0.20766 0.13057 -0.10300
C 	C 	0.68738 0.89465 0.25736 0.07400
O 	O 	0.99221 0.20818 0.17232 -0.41800
S 	S 	0.70217 0.08363 0.31435 -0.04400
C 	C 	0.69745 0.00962 0.29289 -0.02500
S 	S 	0.72598 0.67427 0.08782 -0.04000
C 	C 	0.72852 0.75945 0.10471 -0.00400
C 	C 	0.73843 0.89963 0.13063 0.05900
H 	H 	0.77395 0.69904 0.07099 0.03900
C 	C 	0.74391 0.03021 0.27476 -0.01500
C 	C 	0.74067 0.97285 0.25713 -0.08300
H 	H 	0.74427 0.07785 0.33241 0.03400
S 	S 	0.74762 0.99098 0.14568 -0.03900
C 	C 	0.77116 0.78109 0.12473 -0.00500
C 	C 	0.77485 0.84977 0.13806 -0.08800
O 	O 	0.78079 0.86521 0.17923 -0.40200
H 	H 	0.80067 0.74399 0.13010 0.03400
O 	O 	0.78666 0.95845 0.21985 -0.41100
H 	H 	0.78328 0.09060 0.27455 0.04400
O 	O 	0.83281 0.84992 0.24804 -0.40100
Ni	Ni	0.81874 0.86465 0.21316 1.07200
C 	C 	0.79794 0.99188 0.24053 0.32200
C 	C 	0.81472 0.86806 0.15998 0.28200
H 	H 	0.79996 0.05409 0.13649 0.02400
H 	H 	0.86111 0.88130 0.30337 0.04800
H 	H 	0.86441 0.81340 0.35927 0.03800
O 	O 	0.86174 0.03253 0.24790 -0.38800
C 	C 	0.88654 0.83762 0.30103 0.00500
O 	O 	0.88093 0.91090 0.15931 -0.37200
C 	C 	0.89272 0.86362 0.25928 0.28400
C 	C 	0.89421 0.81124 0.27860 -0.09000
S 	S 	0.91955 0.86225 0.34733 -0.02000
H 	H 	0.87609 0.23567 0.06460 0.03600
H 	H 	0.91484 0.38777 0.42972 0.03000
C 	C 	0.92006 0.81723 0.31995 -0.00900
H 	H 	0.89746 0.57634 0.34610 0.03800
O 	O 	0.91276 0.93661 0.20809 -0.69200
H 	H 	0.90634 0.13561 0.11225 0.03900
C 	C 	0.92285 0.75042 0.27577 0.05600
H 	H 	0.91233 0.11519 0.20858 0.15600
S 	S 	0.90903 0.64939 0.35733 -0.04100
C 	C 	0.98051 0.16494 0.15273 0.30100
Ni	Ni	0.92369 0.01098 0.18053 1.09000
S 	S 	0.91794 0.19052 0.06553 -0.04000
S 	S 	0.92449 0.70761 0.24817 -0.08500
H 	H 	0.94250 0.90355 0.20693 0.15700
C 	C 	0.95859 0.40233 0.44187 -0.01500
O 	O 	0.94241 0.93613 0.25923 -0.36900
C 	C 	0.95400 0.72718 0.29483 -0.07600
C 	C 	0.95771 0.76552 0.31654 0.02400
Ni	Ni	0.94812 0.01785 0.23423 1.09500
O 	O 	0.94888 0.09167 0.20708 -0.70500
O 	O 	0.94202 0.08604 0.15217 -0.38900
C 	C 	0.95617 0.18393 0.11098 0.00300
H 	H 	0.98013 0.68428 0.29241 0.05400
H 	H 	0.98274 0.75458 0.23729 0.03100
C 	C 	0.97507 0.22258 0.08978 -0.00300
C 	C 	0.08213 0.46903 0.45040 -0.06400
C 	C 	0.55519 0.04217 0.44428 -0.02500
O 	O 	0.20706 0.53000 0.45519 -0.41100
C 	C 	0.41634 0.96642 0.45582 0.02800
C 	C 	0.58383 0.48009 0.45897 -0.06500
C 	C 	0.53335 0.58546 0.45602 -0.01700
C 	C 	0.45377 0.46776 0.99993 0.07500
H 	H 	0.69424 0.29111 0.46735 0.15900
C 	C 	0.52772 0.07581 0.46206 -0.05300
C 	C 	0.45763 0.03949 0.46704 -0.04200
C 	C 	0.34596 0.92688 0.46269 0.07100
N 	N 	0.28959 0.89524 0.46820 -0.11400
H 	H 	0.52674 0.63965 0.46306 0.04000
C 	C 	0.94750 0.38343 0.46528 -0.05200
C 	C 	0.57685 0.55220 0.46769 0.00400
C 	C 	0.07167 0.44310 0.47340 -0.00900
C 	C 	0.62057 0.43687 0.47264 0.27600
C 	C 	0.87754 0.36425 0.47421 0.27600
O 	O 	0.70708 0.31774 0.48287 -0.70400
O 	O 	0.58345 0.36835 0.48226 -0.36300
O 	O 	0.68386 0.47780 0.48042 -0.40100
O 	O 	0.56069 0.20345 0.48341 -0.36500
C 	C 	0.57397 0.13725 0.47845 0.28300
H 	H 	0.43630 0.06557 0.48061 0.05300
Ni	Ni	0.76487 0.43386 0.48114 1.06400
O 	O 	0.84326 0.28922 0.48078 -0.37200
O 	O 	0.86118 0.42580 0.48214 -0.40000
C 	C 	0.00484 0.39940 0.48079 -0.00900
H 	H 	0.11503 0.45919 0.48574 0.04300
O 	O 	0.61618 0.11600 0.49175 -0.41700
C 	C 	0.61131 0.59016 0.48919 0.08200
Ni	Ni	0.62419 0.30232 0.50328 1.09800
Ni	Ni	0.76221 0.26640 0.50230 1.09900
C 	C 	0.99543 0.37177 0.50436 0.09600
H 	H 	0.36159 0.05387 0.51624 0.03800
O 	O 	0.67934 0.25142 0.52292 -0.69600
N 	N 	0.63887 0.62055 0.50641 -0.11400
S 	S 	0.36514 0.13255 0.51978 -0.03500
O 	O 	0.76892 0.45296 0.51624 -0.41100
O 	O 	0.80307 0.20021 0.52346 -0.35700
N 	N 	0.98793 0.34939 0.52322 -0.11000
O 	O 	0.52690 0.14868 0.52702 -0.40900
O 	O 	0.54557 0.28466 0.52550 -0.37500
Ni	Ni	0.62093 0.13617 0.52643 1.07400
O 	O 	0.70228 0.09476 0.52759 -0.40200
O 	O 	0.82314 0.36315 0.52276 -0.36900
C 	C 	0.51812 0.21408 0.53559 0.28900
C 	C 	0.76273 0.14146 0.53597 0.29500
C 	C 	0.80492 0.42332 0.53000 0.29300
H 	H 	0.69262 0.28018 0.53813 0.16200
H 	H 	0.94048 0.47054 0.54014 0.05800
C 	C 	0.46663 0.20483 0.55345 -0.09400
C 	C 	0.39558 0.16437 0.54834 0.05800
H 	H 	0.88022 0.11945 0.54915 0.04600
H 	H 	0.69887 0.52608 0.55340 0.05000
C 	C 	0.78431 0.12887 0.55962 -0.10600
C 	C 	0.84161 0.47164 0.55047 -0.08900
C 	C 	0.91304 0.49019 0.55325 -0.00200
H 	H 	0.61176 0.09213 0.56884 -0.00700
C 	C 	0.34826 0.14979 0.56612 -0.07500
H 	H 	0.29375 0.11795 0.56220 0.05200
C 	C 	0.84531 0.11307 0.56325 0.00800
C 	C 	0.48912 0.23251 0.57619 -0.00900
S 	S 	0.66980 0.15648 0.57568 -0.13900
S 	S 	0.71579 0.46936 0.56576 -0.06800
H 	H 	0.07522 0.62372 0.56604 0.03800
C 	C 	0.80622 0.49772 0.56754 0.05700
H 	H 	0.92860 0.76131 0.57323 0.04000
H 	H 	0.26235 0.29099 0.58133 0.03700
H 	H 	0.54365 0.26410 0.58013 0.03000
C 	C 	0.74040 0.12353 0.57832 0.06800
S 	S 	0.03803 0.55222 0.57634 -0.04100
C 	C 	0.85980 0.08546 0.58471 -0.01100
C 	C 	0.94928 0.53438 0.57271 0.00300
H 	H 	0.92509 0.98612 0.58376 0.05000
S 	S 	0.98725 0.74373 0.57682 -0.03000
C 	C 	0.37101 0.17528 0.58899 0.01300
C 	C 	0.84309 0.54469 0.58661 -0.07200
S 	S 	0.93698 0.06643 0.58892 -0.04300
C 	C 	0.44183 0.21759 0.59398 -0.00400
C 	C 	0.75398 0.09387 0.59951 -0.08100
C 	C 	0.91463 0.56395 0.58915 0.01200
S 	S 	0.30466 0.30187 0.60068 -0.04300
H 	H 	0.77760 0.91104 0.60787 0.05100
C 	C 	0.81234 0.07253 0.60262 0.02200
H 	H 	0.81625 0.56661 0.59944 0.05400
C 	C 	0.98644 0.70318 0.60463 0.00200
C 	C 	0.32063 0.15430 0.60774 0.01100
C 	C 	0.28696 0.20778 0.61431 -0.00500
H 	H 	0.33186 0.03880 0.61396 0.04900
H 	H 	0.71867 0.08645 0.61354 0.05600
C 	C 	0.95329 0.61918 0.60827 0.01400
C 	C 	0.30573 0.07976 0.61889 -0.07000
H 	H 	0.03857 0.82094 0.62074 0.05000
S 	S 	0.47191 0.25165 0.62243 -0.04200
H 	H 	0.46919 0.32763 0.62608 0.03700
C 	C 	0.80392 0.94624 0.62312 -0.04900
C 	C 	0.82066 0.03090 0.62388 -0.00900
C 	C 	0.01593 0.75589 0.62347 -0.00800
H 	H 	0.21251 0.22694 0.63677 0.02300
C 	C 	0.23860 0.18594 0.63183 -0.00800
C 	C 	0.25740 0.05789 0.63639 0.04700
H 	H 	0.93045 0.52346 0.63324 0.05400
C 	C 	0.95377 0.58844 0.63055 -0.07200
C 	C 	0.22303 0.11088 0.64276 -0.08800
H 	H 	0.18947 0.90448 0.63867 0.04900
C 	C 	0.82601 0.90805 0.64113 0.04900
S 	S 	0.80990 0.80275 0.63890 -0.03800
C 	C 	0.85098 0.07574 0.64425 0.00500
H 	H 	0.93083 0.22269 0.63756 0.03500
S 	S 	0.24142 0.96481 0.65047 -0.04500
H 	H 	0.74900 0.76081 0.64916 0.03400
S 	S 	0.86767 0.18114 0.64646 -0.04800
C 	C 	0.98176 0.64164 0.64947 0.06100
C 	C 	0.00933 0.72635 0.64610 -0.09000
O 	O 	0.11206 0.02548 0.65605 -0.38500
C 	C 	0.16987 0.08762 0.66043 0.27300
C 	C 	0.86413 0.95476 0.66022 -0.07300
O 	O 	0.06779 0.85220 0.66658 -0.38400
C 	C 	0.01361 0.78335 0.66535 0.27900
C 	C 	0.87134 0.03695 0.66253 -0.02800
O 	O 	0.96926 0.92882 0.66385 -0.36500
C 	C 	0.91187 0.92625 0.67337 0.29000
O 	O 	0.95436 0.77812 0.67490 -0.39600
Ni	Ni	0.06064 0.95256 0.68223 1.10400
O 	O 	0.18553 0.11951 0.68161 -0.41400
H 	H 	0.89816 0.07234 0.67767 0.02500
S 	S 	0.98113 0.60182 0.67734 -0.07000
H 	H 	0.92125 0.59664 0.68778 0.02500
O 	O 	0.04494 0.04564 0.69961 -0.71100
Ni	Ni	0.11655 0.15379 0.70114 1.07000
O 	O 	0.89552 0.89438 0.69380 -0.40500
H 	H 	0.00176 0.05250 0.69434 0.14900
Ni	Ni	0.94040 0.81759 0.70748 1.06800
O 	O 	0.03079 0.90115 0.71251 -0.70800
H 	H 	0.29312 0.99270 0.70820 0.04100
H 	H 	0.84713 0.13588 0.71559 0.03900
O 	O 	0.05479 0.19729 0.72011 -0.40600
H 	H 	0.06425 0.87751 0.71875 0.16200
Ni	Ni	0.03122 0.00021 0.73138 1.09500
O 	O 	0.17035 0.15130 0.73101 -0.39800
S 	S 	0.25497 0.96358 0.72732 -0.05300
S 	S 	0.86798 0.09533 0.73265 -0.07700
O 	O 	0.13183 0.01659 0.73948 -0.39400
C 	C 	0.18264 0.08687 0.73795 0.30600
O 	O 	0.90721 0.83997 0.73987 -0.40500
C 	C 	0.02676 0.16518 0.73987 0.27900
O 	O 	0.04023 0.10436 0.74948 -0.37600
C 	C 	0.24795 0.09874 0.75061 -0.09600
C 	C 	0.27911 0.03943 0.74942 0.05600
C 	C 	0.91545 0.16541 0.75444 0.04800
C 	C 	0.98741 0.20443 0.75308 -0.07400
H 	H 	0.07776 0.29863 0.76788 0.04400
C 	C 	0.94780 0.86013 0.75871 0.27800
O 	O 	0.99969 0.93070 0.76016 -0.35300
C 	C 	0.27540 0.16554 0.76606 0.00200
H 	H 	0.25332 0.21290 0.76649 0.04600
C 	C 	0.33129 0.04214 0.76560 -0.09100
H 	H 	0.35299 0.99441 0.76548 0.06600
H 	H 	0.82722 0.14481 0.77567 0.04800
C 	C 	0.88178 0.17892 0.77389 -0.06700
C 	C 	0.02282 0.26607 0.76936 -0.02200
C 	C 	0.32804 0.16875 0.78199 -0.01100
H 	H 	0.82438 0.82739 0.77790 0.04400
C 	C 	0.92404 0.81472 0.78006 -0.09000
C 	C 	0.35347 0.10443 0.78260 0.02000
H 	H 	0.49215 0.16077 0.78588 0.05100
S 	S 	0.05158 0.79871 0.78433 -0.07200
H 	H 	0.74398 0.54104 0.78934 0.03500
H 	H 	0.77569 0.30124 0.78726 0.03100
C 	C 	0.85662 0.80020 0.78715 -0.00300
C 	C 	0.91939 0.23182 0.79185 0.00600
C 	C 	0.98925 0.27957 0.78885 0.01300
H 	H 	0.41613 0.31025 0.79289 0.03500
H 	H 	0.09544 0.86796 0.79542 0.05300
S 	S 	0.80276 0.53579 0.79938 -0.04000
S 	S 	0.83488 0.34190 0.80005 -0.03700
C 	C 	0.96638 0.78091 0.79252 0.06000
S 	S 	0.03575 0.35384 0.80980 -0.04200
H 	H 	0.02772 0.42614 0.80493 0.03700
C 	C 	0.46826 0.13622 0.80197 -0.07300
C 	C 	0.39654 0.09716 0.80247 0.00900
S 	S 	0.35971 0.25179 0.80180 -0.02800
C 	C 	0.83012 0.74943 0.80578 -0.00600
H 	H 	0.63144 0.14810 0.81897 0.01900
S 	S 	0.74495 0.73135 0.81399 -0.03800
C 	C 	0.88863 0.22733 0.81483 0.01800
C 	C 	0.93985 0.73027 0.81121 -0.07300
C 	C 	0.36569 0.06355 0.82327 -0.00400
C 	C 	0.50853 0.14886 0.82244 0.05500
S 	S 	0.27642 0.00804 0.82397 -0.04000
S 	S 	0.59818 0.20229 0.82160 -0.10400
C 	C 	0.84946 0.27557 0.82041 -0.00900
C 	C 	0.87130 0.71248 0.81751 0.01400
H 	H 	0.92886 0.13685 0.82695 0.05800
H 	H 	0.97184 0.70264 0.82040 0.05800
H 	H 	0.24229 0.06089 0.82746 0.04200
H 	H 	0.74549 0.78673 0.83098 0.03800
C 	C 	0.80928 0.56751 0.82868 -0.00500
C 	C 	0.84152 0.65041 0.83517 0.01500
C 	C 	0.89872 0.17402 0.83124 -0.07800
C 	C 	0.47672 0.12128 0.84356 -0.09800
H 	H 	0.75614 0.44595 0.84053 0.03700
H 	H 	0.79145 0.30801 0.84666 0.03100
C 	C 	0.82156 0.27077 0.84239 -0.00400
C 	C 	0.40586 0.07641 0.84374 0.00500
C 	C 	0.78087 0.50968 0.84559 0.00400
C 	C 	0.87068 0.16902 0.85320 0.06100
H 	H 	0.38181 0.05293 0.85990 0.04800
C 	C 	0.83186 0.21766 0.85885 -0.11200
C 	C 	0.84453 0.67452 0.85854 -0.07200
H 	H 	0.66806 0.27706 0.87213 0.15000
C 	C 	0.51680 0.14077 0.86541 0.28800
O 	O 	0.54871 0.09223 0.87237 -0.41600
C 	C 	0.78340 0.53376 0.86897 -0.09000
S 	S 	0.88654 0.10376 0.87369 -0.05000
H 	H 	0.86928 0.73828 0.86354 0.05600
Ni	Ni	0.65080 0.13323 0.88117 1.06800
O 	O 	0.50616 0.19245 0.88014 -0.36900
C 	C 	0.80233 0.21434 0.88185 0.29500
C 	C 	0.81559 0.61678 0.87545 0.05800
O 	O 	0.66358 0.24884 0.88708 -0.69500
O 	O 	0.75286 0.14828 0.88808 -0.41100
N 	N 	0.37464 0.32276 0.88802 -0.11100
O 	O 	0.77177 0.40749 0.88678 -0.38000
C 	C 	0.75316 0.47160 0.88642 0.29900
H 	H 	0.94550 0.14566 0.88644 0.04400
N 	N 	0.92257 0.44515 0.88374 -0.10100
O 	O 	0.69650 0.47001 0.89614 -0.41000
O 	O 	0.81800 0.28113 0.89448 -0.36000
Ni	Ni	0.58153 0.25800 0.90357 1.09800
C 	C 	0.38876 0.34832 0.90680 0.08400
S 	S 	0.82164 0.64898 0.90469 -0.05700
C 	C 	0.93501 0.47442 0.90216 0.07900
O 	O 	0.62895 0.09909 0.91439 -0.41500
N 	N 	0.39177 0.08535 0.91334 -0.09700
Ni	Ni	0.74290 0.31321 0.90980 1.09700
H 	H 	0.88476 0.65512 0.91398 0.04600
H 	H 	0.06032 0.53857 0.92200 0.04300
O 	O 	0.66156 0.32294 0.92588 -0.70200
O 	O 	0.50892 0.28891 0.92092 -0.35600
O 	O 	0.57369 0.42382 0.92080 -0.40200
C 	C 	0.56985 0.09483 0.92281 0.30700
O 	O 	0.55594 0.16153 0.92582 -0.37400
C 	C 	0.41921 0.04712 0.92281 0.05600
C 	C 	0.95153 0.51171 0.92504 0.01000
C 	C 	0.02066 0.54725 0.93240 -0.01900
Ni	Ni	0.67539 0.43943 0.92964 1.06800
C 	C 	0.52132 0.36352 0.92854 0.27400
C 	C 	0.52528 0.01828 0.93338 -0.11800
C 	C 	0.45323 0.99917 0.93467 0.05500
C 	C 	0.40640 0.38018 0.93024 0.00700
H 	H 	0.31730 0.41557 0.93258 0.02500
O 	O 	0.81624 0.38269 0.93277 -0.38700
C 	C 	0.82741 0.46069 0.93579 0.29400
H 	H 	0.65731 0.29721 0.94121 0.15600
C 	C 	0.55458 0.96305 0.94193 0.02100
C 	C 	0.41341 0.93106 0.94691 -0.03500
H 	H 	0.60910 0.97492 0.93994 0.04300
H 	H 	0.35877 0.91878 0.94880 0.05200
C 	C 	0.36276 0.41254 0.94164 -0.01400
C 	C 	0.46823 0.38193 0.94142 -0.06500
O 	O 	0.77664 0.48592 0.94144 -0.41300
C 	C 	0.89939 0.51689 0.93945 -0.06800
O 	O 	0.15416 0.59015 0.95224 -0.41600
C 	C 	0.03860 0.59236 0.95338 -0.07100
C 	C 	0.51385 0.89231 0.95295 -0.01400
C 	C 	0.44377 0.87933 0.95706 -0.05300
C 	C 	0.54332 0.83147 0.95856 0.09600
N 	N 	0.56695 0.78260 0.96289 -0.10700
C 	C 	0.10820 0.60903 0.96423 0.28800
Ni	Ni	0.21737 0.53673 0.96622 1.07100
H 	H 	0.28229 0.68404 0.96631 0.16200
C 	C 	0.38067 0.44718 0.96400 -0.06600
C 	C 	0.48224 0.40870 0.96460 -0.01600
C 	C 	0.91767 0.57110 0.95864 -0.01400
C 	C 	0.98739 0.61248 0.96485 0.01700
O 	O 	0.27258 0.64411 0.97889 -0.70600
O 	O 	0.38877 0.58180 0.97582 -0.37000
O 	O 	0.28392 0.47894 0.97787 -0.41200
O 	O 	0.41688 0.75204 0.97730 -0.36200
C 	C 	0.34938 0.50505 0.97234 0.27100
C 	C 	0.40474 0.81988 0.97429 0.28300
C 	C 	0.43839 0.44044 0.97602 0.00700
H 	H 	0.52847 0.40722 0.97351 0.02100
H 	H 	0.87789 0.58148 0.96860 0.04600
O 	O 	0.12105 0.63536 0.98622 -0.36900
C 	C 	0.00601 0.68379 0.97982 0.07600
O 	O 	0.36251 0.83872 0.98770 -0.41300
N 	N 	0.02090 0.74154 0.99161 -0.11300
Ni	Ni	0.36041 0.65650 0.99746 1.10200
O 	O 	0.14610 0.48413 0.99103 -0.39400
