data_crystal

_cell_length_a 33.29422
_cell_length_b 28.18011
_cell_length_c 20.83675
_cell_angle_alpha 90.00153
_cell_angle_beta  90.00225
_cell_angle_gamma 90.00113

_symmetry_space_group_name_	'P 1'
_symmetry_space_group_name_H-M	'P 1'

loop_
_symmetry_equiv_pos_as_xyz
  x,y,z

loop_
_atom_site_label
_atom_site_type_symbol
_atom_site_fract_x
_atom_site_fract_y
_atom_site_fract_z
_atom_site_charge
Cu	Cu	0.15418 0.83942 0.33213 0.92900
Cu	Cu	0.20628 0.76001 0.25368 0.86400
Cu	Cu	0.17468 0.84843 0.19050 0.89500
Cu	Cu	0.14076 0.93445 0.25542 0.89300
C 	C 	0.15138 0.92926 0.39610 0.28300
O 	O 	0.09396 0.84597 0.32333 -0.36400
C 	C 	0.19146 0.76200 0.11773 0.27300
O 	O 	0.18036 0.88697 0.26616 -0.64000
O 	O 	0.15820 0.79965 0.25486 -0.64300
O 	O 	0.18166 0.79542 0.39136 -0.37800
O 	O 	0.23549 0.78409 0.32600 -0.43500
O 	O 	0.12945 0.94520 0.34804 -0.38600
O 	O 	0.19339 0.89669 0.13121 -0.38600
C 	C 	0.17782 0.93963 0.12595 0.28300
C 	C 	0.07675 0.85855 0.26911 0.27600
O 	O 	0.09770 0.88107 0.22510 -0.39600
O 	O 	0.16473 0.96289 0.17691 -0.39600
O 	O 	0.15953 0.88360 0.40128 -0.36600
C 	C 	0.21961 0.78466 0.38376 0.28600
O 	O 	0.17485 0.80462 0.11785 -0.38200
O 	O 	0.19204 0.73580 0.17031 -0.41600
H 	H 	0.20795 0.89863 0.27432 0.16100
H 	H 	0.13328 0.78260 0.24293 0.17200
Cu	Cu	0.32730 0.64113 0.83214 0.92800
Cu	Cu	0.27521 0.72055 0.75368 0.86300
Cu	Cu	0.30679 0.63212 0.69051 0.89500
Cu	Cu	0.34070 0.54610 0.75543 0.89300
C 	C 	0.33010 0.55130 0.89611 0.28200
O 	O 	0.38752 0.63457 0.82334 -0.36400
C 	C 	0.29002 0.71856 0.61773 0.27300
O 	O 	0.30111 0.59358 0.76617 -0.64000
O 	O 	0.32329 0.68090 0.75487 -0.64300
O 	O 	0.29983 0.68515 0.89137 -0.37800
O 	O 	0.24600 0.69647 0.82600 -0.43500
O 	O 	0.35202 0.53534 0.84805 -0.38600
O 	O 	0.28807 0.58387 0.63122 -0.38600
C 	C 	0.30363 0.54093 0.62596 0.28300
C 	C 	0.40473 0.62198 0.76912 0.27600
O 	O 	0.38377 0.59947 0.72511 -0.39600
O 	O 	0.31673 0.51767 0.67692 -0.39500
O 	O 	0.32196 0.59696 0.90129 -0.36500
C 	C 	0.26188 0.69590 0.88376 0.28600
O 	O 	0.30662 0.67593 0.61785 -0.38200
O 	O 	0.28945 0.74476 0.67032 -0.41600
H 	H 	0.27352 0.58194 0.77434 0.16100
H 	H 	0.34820 0.69795 0.74293 0.17200
Cu	Cu	0.32728 0.33942 0.17996 0.92800
Cu	Cu	0.27518 0.26001 0.25841 0.86300
Cu	Cu	0.30677 0.34844 0.32159 0.89500
Cu	Cu	0.34070 0.43446 0.25667 0.89300
C 	C 	0.33009 0.42926 0.11599 0.28300
O 	O 	0.38750 0.34597 0.18875 -0.36400
C 	C 	0.28999 0.26201 0.39436 0.27300
O 	O 	0.30110 0.38698 0.24593 -0.64000
O 	O 	0.32326 0.29966 0.25723 -0.64300
O 	O 	0.29980 0.29542 0.12073 -0.37800
O 	O 	0.24596 0.28410 0.18609 -0.43500
O 	O 	0.35201 0.44521 0.16405 -0.38600
O 	O 	0.28806 0.39669 0.38087 -0.38600
C 	C 	0.30364 0.43963 0.38614 0.28300
C 	C 	0.40471 0.35856 0.24297 0.27600
O 	O 	0.38376 0.38107 0.28699 -0.39600
O 	O 	0.31674 0.46289 0.33518 -0.39600
O 	O 	0.32194 0.38360 0.11081 -0.36600
C 	C 	0.26184 0.28467 0.12833 0.28600
O 	O 	0.30660 0.30463 0.39424 -0.38200
O 	O 	0.28941 0.23581 0.34178 -0.41600
H 	H 	0.27351 0.39863 0.23776 0.16100
H 	H 	0.34817 0.28260 0.26916 0.17200
Cu	Cu	0.15416 0.14113 0.67996 0.92800
Cu	Cu	0.20624 0.22056 0.75841 0.86300
Cu	Cu	0.17466 0.13213 0.82159 0.89500
Cu	Cu	0.14076 0.04610 0.75666 0.89300
C 	C 	0.15136 0.05129 0.61598 0.28300
O 	O 	0.09393 0.13456 0.68875 -0.36400
C 	C 	0.19143 0.21857 0.89436 0.27300
O 	O 	0.18035 0.09359 0.74593 -0.64000
O 	O 	0.15816 0.18090 0.75723 -0.64300
O 	O 	0.18162 0.18515 0.62073 -0.37800
O 	O 	0.23546 0.19648 0.68609 -0.43500
O 	O 	0.12945 0.03534 0.66405 -0.38600
O 	O 	0.19338 0.08388 0.88088 -0.38600
C 	C 	0.17782 0.04093 0.88614 0.28300
C 	C 	0.07673 0.12198 0.74297 0.27600
O 	O 	0.09769 0.09947 0.78699 -0.39600
O 	O 	0.16473 0.01767 0.83517 -0.39500
O 	O 	0.15950 0.09696 0.61080 -0.36600
C 	C 	0.21958 0.19591 0.62833 0.28600
O 	O 	0.17483 0.17594 0.89424 -0.38200
O 	O 	0.19201 0.24476 0.84178 -0.41600
H 	H 	0.20794 0.08194 0.73776 0.16100
H 	H 	0.13325 0.19795 0.76916 0.17200
Cu	Cu	0.65416 0.33939 0.33213 0.92800
Cu	Cu	0.70625 0.25997 0.25368 0.86300
Cu	Cu	0.67467 0.34840 0.19050 0.89500
Cu	Cu	0.64076 0.43442 0.25542 0.89300
C 	C 	0.65137 0.42923 0.39610 0.28300
O 	O 	0.59394 0.34595 0.32333 -0.36400
C 	C 	0.69144 0.26196 0.11773 0.27300
O 	O 	0.68035 0.38694 0.26616 -0.64000
O 	O 	0.65817 0.29962 0.25486 -0.64300
O 	O 	0.68163 0.29538 0.39136 -0.37800
O 	O 	0.73547 0.28405 0.32600 -0.43500
O 	O 	0.62945 0.44517 0.34804 -0.38600
O 	O 	0.69338 0.39665 0.13121 -0.38600
C 	C 	0.67781 0.43959 0.12595 0.28300
C 	C 	0.57673 0.35853 0.26911 0.27600
O 	O 	0.59769 0.38105 0.22510 -0.39600
O 	O 	0.66473 0.46285 0.17691 -0.39600
O 	O 	0.65951 0.38357 0.40128 -0.36600
C 	C 	0.71959 0.28462 0.38377 0.28600
O 	O 	0.67483 0.30458 0.11785 -0.38200
O 	O 	0.69201 0.23576 0.17031 -0.41600
H 	H 	0.70794 0.39859 0.27433 0.16100
H 	H 	0.63326 0.28257 0.24293 0.17200
Cu	Cu	0.82728 0.14110 0.83214 0.92800
Cu	Cu	0.77519 0.22051 0.75369 0.86300
Cu	Cu	0.80677 0.13209 0.69051 0.89500
Cu	Cu	0.84069 0.04607 0.75544 0.89300
C 	C 	0.83009 0.05126 0.89611 0.28200
O 	O 	0.88750 0.13454 0.82335 -0.36400
C 	C 	0.79000 0.21852 0.61773 0.27300
O 	O 	0.80110 0.09355 0.76617 -0.64000
O 	O 	0.82327 0.18087 0.75487 -0.64300
O 	O 	0.79981 0.18511 0.89137 -0.37800
O 	O 	0.74597 0.19643 0.82600 -0.43500
O 	O 	0.85201 0.03532 0.84805 -0.38600
O 	O 	0.78806 0.08383 0.63123 -0.38600
C 	C 	0.80363 0.04089 0.62596 0.28300
C 	C 	0.90472 0.12196 0.76912 0.27600
O 	O 	0.88376 0.09945 0.72511 -0.39600
O 	O 	0.81672 0.01763 0.67692 -0.39600
O 	O 	0.82194 0.09692 0.90130 -0.36500
C 	C 	0.76185 0.19586 0.88377 0.28600
O 	O 	0.80660 0.17589 0.61786 -0.38200
O 	O 	0.78942 0.24472 0.67032 -0.41600
H 	H 	0.77351 0.08189 0.77434 0.16100
H 	H 	0.84818 0.19792 0.74294 0.17200
Cu	Cu	0.82730 0.83939 0.17996 0.92800
Cu	Cu	0.77521 0.75997 0.25841 0.86300
Cu	Cu	0.80679 0.84840 0.32159 0.89500
Cu	Cu	0.84071 0.93443 0.25667 0.89300
C 	C 	0.83010 0.92923 0.11599 0.28300
O 	O 	0.88752 0.84595 0.18876 -0.36400
C 	C 	0.79002 0.76197 0.39437 0.27300
O 	O 	0.80111 0.88694 0.24593 -0.64000
O 	O 	0.82329 0.79962 0.25723 -0.64300
O 	O 	0.79983 0.79538 0.12073 -0.37800
O 	O 	0.74599 0.78405 0.18609 -0.43500
O 	O 	0.85202 0.94518 0.16406 -0.38600
O 	O 	0.78807 0.89665 0.38087 -0.38600
C 	C 	0.80364 0.93959 0.38614 0.28300
C 	C 	0.90473 0.85854 0.24298 0.27600
O 	O 	0.88377 0.88105 0.28699 -0.39600
O 	O 	0.81674 0.96286 0.33519 -0.39600
O 	O 	0.82195 0.88357 0.11081 -0.36600
C 	C 	0.76187 0.78462 0.12833 0.28600
O 	O 	0.80662 0.80460 0.39425 -0.38200
O 	O 	0.78944 0.73577 0.34178 -0.41600
H 	H 	0.77352 0.89859 0.23776 0.16100
H 	H 	0.84820 0.78257 0.26917 0.17200
Cu	Cu	0.65417 0.64110 0.67996 0.92800
Cu	Cu	0.70627 0.72051 0.75841 0.86300
Cu	Cu	0.67468 0.63209 0.82159 0.89500
Cu	Cu	0.64076 0.54607 0.75666 0.89300
C 	C 	0.65137 0.55126 0.61598 0.28300
O 	O 	0.59395 0.63454 0.68875 -0.36400
C 	C 	0.69145 0.71853 0.89436 0.27300
O 	O 	0.68036 0.59355 0.74593 -0.64000
O 	O 	0.65819 0.68087 0.75723 -0.64300
O 	O 	0.68165 0.68511 0.62073 -0.37800
O 	O 	0.73548 0.69644 0.68609 -0.43500
O 	O 	0.62945 0.53531 0.66405 -0.38600
O 	O 	0.69339 0.58384 0.88088 -0.38600
C 	C 	0.67782 0.54090 0.88614 0.28300
C 	C 	0.57674 0.62196 0.74297 0.27600
O 	O 	0.59770 0.59945 0.78699 -0.39600
O 	O 	0.66473 0.51763 0.83517 -0.39500
O 	O 	0.65952 0.59692 0.61080 -0.36600
C 	C 	0.71960 0.69587 0.62833 0.28600
O 	O 	0.67485 0.67590 0.89424 -0.38200
O 	O 	0.69203 0.74472 0.84178 -0.41600
H 	H 	0.70795 0.58190 0.73776 0.16100
H 	H 	0.63328 0.69792 0.76915 0.17200
C 	C 	0.71208 0.73330 0.07201 -0.01200
C 	C 	0.73724 0.77324 0.07169 -0.07600
C 	C 	0.74295 0.79858 0.01442 -0.01100
C 	C 	0.72607 0.78224 0.95713 -0.01700
C 	C 	0.70325 0.74028 0.95638 -0.06700
C 	C 	0.69520 0.71680 0.01465 -0.01800
H 	H 	0.70715 0.71372 0.11605 0.02200
H 	H 	0.76168 0.83002 0.01388 0.04000
H 	H 	0.73212 0.80122 0.91297 0.03100
H 	H 	0.67696 0.68498 0.01534 0.04200
C 	C 	0.78626 0.76369 0.51466 -0.01600
C 	C 	0.77822 0.74022 0.45638 -0.06700
C 	C 	0.75539 0.69825 0.45712 -0.01800
C 	C 	0.73852 0.68192 0.51442 -0.00900
C 	C 	0.74423 0.70726 0.57169 -0.07600
C 	C 	0.76938 0.74719 0.57201 -0.01200
H 	H 	0.80451 0.79551 0.51535 0.04200
H 	H 	0.74934 0.67928 0.41296 0.03100
H 	H 	0.71978 0.65047 0.51387 0.04000
H 	H 	0.77433 0.76677 0.61606 0.02200
C 	C 	0.79819 0.03996 0.50642 -0.01500
C 	C 	0.79903 0.01497 0.56472 -0.06900
C 	C 	0.79812 0.96508 0.56399 -0.01300
C 	C 	0.79819 0.94053 0.50568 -0.01500
C 	C 	0.79904 0.96551 0.44739 -0.06900
C 	C 	0.79812 0.01541 0.44812 -0.01300
H 	H 	0.79868 0.07841 0.50619 0.04000
H 	H 	0.79795 0.94527 0.60853 0.03600
H 	H 	0.79869 0.90208 0.50592 0.04000
H 	H 	0.79796 0.03522 0.40358 0.03600
C 	C 	0.82265 0.97081 0.94425 -0.01500
C 	C 	0.82412 0.02026 0.95228 -0.06700
C 	C 	0.82271 0.03957 0.01439 -0.01300
C 	C 	0.82265 0.00969 0.06785 -0.01300
C 	C 	0.82412 0.96023 0.05983 -0.07000
C 	C 	0.82271 0.94092 0.99772 -0.01000
H 	H 	0.82248 0.95549 0.89656 0.02800
H 	H 	0.82302 0.07766 0.02138 0.04300
H 	H 	0.82249 0.02501 0.11554 0.02700
H 	H 	0.82302 0.90283 0.99073 0.04200
C 	C 	0.68333 0.51540 0.06398 -0.01300
C 	C 	0.68241 0.46551 0.06470 -0.06900
C 	C 	0.68326 0.44053 0.00641 -0.01700
C 	C 	0.68333 0.46508 0.94810 -0.01200
C 	C 	0.68242 0.51497 0.94738 -0.06800
C 	C 	0.68327 0.53996 0.00568 -0.01700
H 	H 	0.68350 0.53521 0.10853 0.03600
H 	H 	0.68276 0.40208 0.00617 0.04000
H 	H 	0.68350 0.44527 0.90356 0.03600
H 	H 	0.68277 0.57840 0.00592 0.04000
C 	C 	0.65876 0.53957 0.49771 -0.01100
C 	C 	0.65734 0.52026 0.55982 -0.06900
C 	C 	0.65881 0.47080 0.56784 -0.01400
C 	C 	0.65875 0.44092 0.51437 -0.01100
C 	C 	0.65734 0.46023 0.45227 -0.06900
C 	C 	0.65881 0.50968 0.44425 -0.01400
H 	H 	0.65845 0.57766 0.49072 0.04300
H 	H 	0.65897 0.45548 0.61553 0.02800
H 	H 	0.65844 0.40283 0.52136 0.04300
H 	H 	0.65898 0.52501 0.39655 0.02800
C 	C 	0.74294 0.18192 0.99767 -0.00800
C 	C 	0.73722 0.20725 0.94041 -0.07600
C 	C 	0.71207 0.24718 0.94008 -0.01200
C 	C 	0.69519 0.26368 0.99744 -0.01500
C 	C 	0.70323 0.24021 0.05571 -0.06800
C 	C 	0.72606 0.19825 0.05497 -0.01900
H 	H 	0.76167 0.15047 0.99822 0.04000
H 	H 	0.70712 0.26676 0.89604 0.02200
H 	H 	0.67694 0.29550 0.99675 0.04200
H 	H 	0.73211 0.17927 0.09913 0.03100
C 	C 	0.76936 0.23329 0.44009 -0.01200
C 	C 	0.74421 0.27323 0.44041 -0.07600
C 	C 	0.73850 0.29857 0.49768 -0.00900
C 	C 	0.75538 0.28223 0.55497 -0.01800
C 	C 	0.77820 0.24027 0.55572 -0.06700
C 	C 	0.78624 0.21679 0.49744 -0.01600
H 	H 	0.77431 0.21371 0.39604 0.02200
H 	H 	0.71977 0.33002 0.49822 0.04000
H 	H 	0.74933 0.30121 0.59913 0.03100
H 	H 	0.80448 0.18497 0.49676 0.04200
C 	C 	0.00814 0.12713 0.69494 -0.01300
C 	C 	0.03276 0.12625 0.74978 -0.07000
C 	C 	0.01510 0.12709 0.81088 -0.01500
C 	C 	0.97331 0.12713 0.81716 -0.01300
C 	C 	0.94868 0.12625 0.76232 -0.07000
C 	C 	0.96634 0.12708 0.70121 -0.01500
H 	H 	0.02133 0.12664 0.64742 0.04400
H 	H 	0.03370 0.12714 0.85355 0.03700
H 	H 	0.96011 0.12664 0.86468 0.04400
H 	H 	0.94774 0.12713 0.65855 0.03700
C 	C 	0.47330 0.35339 0.19493 -0.01300
C 	C 	0.44868 0.35427 0.24977 -0.07000
C 	C 	0.46635 0.35344 0.31088 -0.01500
C 	C 	0.50814 0.35339 0.31715 -0.01300
C 	C 	0.53276 0.35426 0.26231 -0.07000
C 	C 	0.51509 0.35343 0.20120 -0.01500
H 	H 	0.46011 0.35388 0.14742 0.04400
H 	H 	0.44775 0.35339 0.35354 0.03700
H 	H 	0.52134 0.35387 0.36467 0.04400
H 	H 	0.53369 0.35337 0.15854 0.03700
C 	C 	0.25536 0.19830 0.45712 -0.01800
C 	C 	0.27819 0.24026 0.45638 -0.06700
C 	C 	0.28623 0.26373 0.51465 -0.01600
C 	C 	0.26936 0.24723 0.57201 -0.01200
C 	C 	0.24420 0.20730 0.57168 -0.07600
C 	C 	0.23849 0.18196 0.51441 -0.00900
H 	H 	0.24931 0.17932 0.41296 0.03100
H 	H 	0.30448 0.29555 0.51534 0.04200
H 	H 	0.27430 0.26682 0.61605 0.02200
H 	H 	0.21975 0.15052 0.51387 0.04000
C 	C 	0.19518 0.21685 0.01465 -0.01800
C 	C 	0.20322 0.24032 0.95638 -0.06600
C 	C 	0.22605 0.28228 0.95712 -0.01700
C 	C 	0.24292 0.29862 0.01442 -0.01100
C 	C 	0.23721 0.27328 0.07169 -0.07600
C 	C 	0.21206 0.23335 0.07201 -0.01200
H 	H 	0.17693 0.18503 0.01534 0.04200
H 	H 	0.23210 0.30126 0.91297 0.03100
H 	H 	0.26166 0.33007 0.01388 0.04000
H 	H 	0.20712 0.21376 0.11605 0.02200
C 	C 	0.46636 0.62708 0.70121 -0.01500
C 	C 	0.44870 0.62626 0.76232 -0.07000
C 	C 	0.47332 0.62714 0.81716 -0.01300
C 	C 	0.51511 0.62708 0.81088 -0.01500
C 	C 	0.53278 0.62624 0.74977 -0.07000
C 	C 	0.50815 0.62713 0.69493 -0.01300
H 	H 	0.44776 0.62714 0.65855 0.03700
H 	H 	0.46013 0.62665 0.86467 0.04400
H 	H 	0.53372 0.62713 0.85354 0.03700
H 	H 	0.52134 0.62664 0.64742 0.04400
C 	C 	0.29819 0.54000 0.50642 -0.01500
C 	C 	0.29904 0.51501 0.56471 -0.06900
C 	C 	0.29811 0.46512 0.56398 -0.01300
C 	C 	0.29818 0.44057 0.50568 -0.01500
C 	C 	0.29904 0.46555 0.44738 -0.06900
C 	C 	0.29813 0.51544 0.44811 -0.01300
H 	H 	0.29869 0.57844 0.50618 0.04000
H 	H 	0.29794 0.44531 0.60852 0.03600
H 	H 	0.29867 0.40212 0.50591 0.04000
H 	H 	0.29797 0.53526 0.40357 0.03600
C 	C 	0.32270 0.44096 0.99772 -0.01000
C 	C 	0.32412 0.46026 0.05982 -0.07000
C 	C 	0.32265 0.50972 0.06785 -0.01300
C 	C 	0.32271 0.53960 0.01438 -0.01300
C 	C 	0.32412 0.52030 0.95228 -0.06700
C 	C 	0.32265 0.47084 0.94425 -0.01500
H 	H 	0.32301 0.40287 0.99073 0.04200
H 	H 	0.32249 0.52504 0.11554 0.02700
H 	H 	0.32303 0.57769 0.02137 0.04300
H 	H 	0.32248 0.45552 0.89656 0.02800
C 	C 	0.00816 0.85339 0.31716 -0.01300
C 	C 	0.03278 0.85427 0.26232 -0.07000
C 	C 	0.01511 0.85344 0.20121 -0.01500
C 	C 	0.97332 0.85338 0.19494 -0.01300
C 	C 	0.94870 0.85426 0.24978 -0.07000
C 	C 	0.96637 0.85344 0.31089 -0.01500
H 	H 	0.02136 0.85388 0.36467 0.04400
H 	H 	0.03371 0.85338 0.15855 0.03700
H 	H 	0.96012 0.85387 0.14742 0.04400
H 	H 	0.94777 0.85338 0.35355 0.03700
C 	C 	0.18333 0.01544 0.06398 -0.01300
C 	C 	0.18242 0.96555 0.06471 -0.06900
C 	C 	0.18327 0.94057 0.00641 -0.01600
C 	C 	0.18334 0.96512 0.94811 -0.01200
C 	C 	0.18242 0.01501 0.94738 -0.06800
C 	C 	0.18326 0.04000 0.00568 -0.01700
H 	H 	0.18349 0.03525 0.10853 0.03600
H 	H 	0.18278 0.90212 0.00617 0.04000
H 	H 	0.18351 0.94531 0.90356 0.03600
H 	H 	0.18276 0.07844 0.00592 0.04000
C 	C 	0.15881 0.00972 0.44425 -0.01400
C 	C 	0.15735 0.96026 0.45227 -0.06900
C 	C 	0.15876 0.94096 0.51438 -0.01100
C 	C 	0.15882 0.97084 0.56784 -0.01400
C 	C 	0.15734 0.02030 0.55982 -0.06900
C 	C 	0.15875 0.03960 0.49771 -0.01100
H 	H 	0.15898 0.02504 0.39656 0.02800
H 	H 	0.15846 0.90287 0.52136 0.04300
H 	H 	0.15898 0.95552 0.61553 0.02800
H 	H 	0.15844 0.07769 0.49072 0.04300
C 	C 	0.28627 0.71683 0.49744 -0.01600
C 	C 	0.27823 0.74031 0.55572 -0.06700
C 	C 	0.25540 0.78227 0.55497 -0.01800
C 	C 	0.23853 0.79861 0.49767 -0.00900
C 	C 	0.24424 0.77327 0.44041 -0.07600
C 	C 	0.26939 0.73334 0.44008 -0.01200
H 	H 	0.30451 0.68502 0.49675 0.04200
H 	H 	0.24935 0.80125 0.59913 0.03100
H 	H 	0.21979 0.83006 0.49822 0.04000
H 	H 	0.27433 0.71375 0.39604 0.02200
C 	C 	0.19521 0.76372 0.99744 -0.01600
C 	C 	0.20326 0.74025 0.05571 -0.06800
C 	C 	0.22609 0.69829 0.05497 -0.01900
C 	C 	0.24296 0.68196 0.99767 -0.00800
C 	C 	0.23725 0.70729 0.94041 -0.07600
C 	C 	0.21209 0.74722 0.94008 -0.01200
H 	H 	0.17697 0.79554 0.99675 0.04200
H 	H 	0.23214 0.67931 0.09912 0.03100
H 	H 	0.26170 0.65051 0.99822 0.04000
H 	H 	0.20715 0.76681 0.89604 0.02200
