data_crystal

_cell_length_a 17.47983
_cell_length_b 17.84039
_cell_length_c 48.27851
_cell_angle_alpha 89.63465
_cell_angle_beta  89.63986
_cell_angle_gamma 119.47400

_symmetry_space_group_name_	'P 1'
_symmetry_space_group_name_H-M	'P 1'

loop_
_symmetry_equiv_pos_as_xyz
  x,y,z

loop_
_atom_site_label
_atom_site_type_symbol
_atom_site_fract_x
_atom_site_fract_y
_atom_site_fract_z
_atom_site_charge
O 	O 	0.10055 0.90334 0.72547 -0.34900
O 	O 	0.98853 0.15743 0.71288 -0.38000
C 	C 	0.05823 0.22089 0.14372 -0.02500
H 	H 	0.27215 0.33755 0.26044 0.05500
C 	C 	0.01531 0.49378 0.00122 -0.07500
Ni	Ni	0.14256 0.01301 0.69975 1.10600
Ni	Ni	0.11074 0.17373 0.71614 1.12300
O 	O 	0.03526 0.94681 0.67448 -0.35200
O 	O 	0.10284 0.18625 0.75708 -0.37400
O 	O 	0.08145 0.05599 0.72036 -0.71400
H 	H 	0.10989 0.06105 0.73822 0.14300
C 	C 	0.08554 0.15159 0.18546 0.28000
C 	C 	0.12545 0.17152 0.26570 0.26000
C 	C 	0.01456 0.88736 0.26798 0.28300
Ni	Ni	0.08848 0.02771 0.22633 1.11600
O 	O 	0.04998 0.91682 0.20627 -0.35600
O 	O 	0.09482 0.08325 0.18887 -0.37900
O 	O 	0.08376 0.96329 0.26140 -0.36400
O 	O 	0.15457 0.14613 0.24425 -0.36900
C 	C 	0.10914 0.25691 0.06880 0.08600
C 	C 	0.06183 0.24945 0.09338 -0.07700
C 	C 	0.10137 0.25093 0.11859 0.00900
N 	N 	0.11424 0.31002 0.04809 -0.14700
C 	C 	0.11143 0.19865 0.15896 -0.00100
H 	H 	0.07828 0.34263 0.04830 0.13100
C 	C 	0.02882 0.67206 0.14055 -0.05900
C 	C 	0.03535 0.74737 0.15168 0.02500
C 	C 	0.99411 0.84153 0.16421 0.00000
H 	H 	0.08318 0.56194 0.11545 0.09500
C 	C 	0.26027 0.30585 0.28049 -0.04200
C 	C 	0.97980 0.71478 0.31152 0.08100
C 	C 	0.99361 0.64658 0.31919 -0.11500
C 	C 	0.00064 0.63272 0.34747 0.03900
C 	C 	0.00162 0.68985 0.36725 0.10800
C 	C 	0.99240 0.76088 0.35927 -0.10700
C 	C 	0.97760 0.76998 0.33131 -0.00200
N 	N 	0.00746 0.75624 0.28707 -0.14300
C 	C 	0.02235 0.83725 0.29074 0.00100
C 	C 	0.00621 0.84856 0.31813 -0.00300
N 	N 	0.05240 0.69374 0.38861 -0.15300
C 	C 	0.05399 0.60173 0.35738 -0.04900
H 	H 	0.00845 0.61195 0.30363 0.07500
H 	H 	0.00627 0.81211 0.37374 0.08600
H 	H 	0.99785 0.90089 0.32593 0.02700
H 	H 	0.00232 0.72689 0.26798 0.09900
C 	C 	0.08150 0.60943 0.51985 -0.06100
C 	C 	0.10416 0.65976 0.49565 -0.13000
C 	C 	0.03903 0.67022 0.48213 0.36600
H 	H 	0.13191 0.60501 0.53152 0.09600
F 	F 	0.06103 0.72543 0.46025 -0.44400
F 	F 	0.02474 0.36396 0.00311 -0.43200
C 	C 	0.08538 0.68166 0.11829 0.07600
C 	C 	0.18901 0.22522 0.28658 0.01000
H 	H 	0.36558 0.48204 0.29230 0.05900
O 	O 	0.11587 0.17756 0.67404 -0.37100
C 	C 	0.11334 0.54818 0.99872 0.32400
O 	O 	0.15064 0.63243 0.00102 -0.37600
O 	O 	0.15874 0.51354 0.98858 -0.34400
C 	C 	0.17716 0.24505 0.11956 0.08400
C 	C 	0.18657 0.25214 0.06971 0.02200
C 	C 	0.19557 0.34405 0.03661 0.03500
N 	N 	0.18325 0.21239 0.14414 -0.15000
H 	H 	0.21956 0.18107 0.14765 0.08900
C 	C 	0.09104 0.82719 0.14038 0.08600
N 	N 	0.06462 0.88365 0.14706 -0.14300
N 	N 	0.11938 0.62914 0.11442 -0.14900
H 	H 	0.10535 0.95049 0.14635 0.09800
C 	C 	0.08640 0.64220 0.38248 0.02900
H 	H 	0.08853 0.57910 0.34412 0.05900
H 	H 	0.08273 0.74656 0.40180 0.13000
O 	O 	0.06427 0.18467 0.20644 -0.36000
C 	C 	0.21953 0.24200 0.09520 -0.08400
C 	C 	0.14185 0.76275 0.10714 0.02600
C 	C 	0.28460 0.34869 0.30542 0.01600
C 	C 	0.26815 0.16246 0.73303 0.25700
C 	C 	0.15518 0.14567 0.65871 0.27800
O 	O 	0.25528 0.08898 0.72239 -0.35900
O 	O 	0.24132 0.21003 0.71925 -0.35700
O 	O 	0.19844 0.11103 0.67020 -0.36400
C 	C 	0.17502 0.66498 0.39128 0.26100
C 	C 	0.17962 0.66992 0.47937 0.34400
O 	O 	0.19083 0.60335 0.40036 -0.36100
O 	O 	0.16284 0.61528 0.45879 -0.37200
C 	C 	0.24364 0.43639 0.02990 0.28500
O 	O 	0.19069 0.62129 0.05560 -0.37800
C 	C 	0.24045 0.30604 0.04874 -0.04800
C 	C 	0.14597 0.83727 0.11792 -0.08500
C 	C 	0.19656 0.67531 0.10052 0.00400
N 	N 	0.16888 0.21751 0.31389 -0.15300
H 	H 	0.10659 0.17559 0.32218 0.09100
O 	O 	0.04781 0.16803 0.26512 -0.36000
C 	C 	0.32205 0.43830 0.30814 -0.07900
H 	H 	0.33922 0.30963 0.76846 0.09300
O 	O 	0.26037 0.71548 0.48966 -0.36700
C 	C 	0.22601 0.63492 0.07993 0.28200
Ni	Ni	0.25840 0.70176 0.02419 1.12300
O 	O 	0.26014 0.49022 0.05021 -0.36300
O 	O 	0.27951 0.46404 0.00511 -0.34800
H 	H 	0.27954 0.23839 0.09604 0.06200
C 	C 	0.21240 0.75891 0.09615 -0.05900
H 	H 	0.19091 0.90041 0.10943 0.06400
C 	C 	0.22701 0.29241 0.32548 0.08300
C 	C 	0.20863 0.32379 0.34973 -0.07800
C 	C 	0.16765 0.16663 0.62900 0.00600
H 	H 	0.19948 0.30284 0.62710 0.06000
H 	H 	0.13731 0.04691 0.61043 0.08900
C 	C 	0.27710 0.22612 0.80311 0.08000
C 	C 	0.31641 0.28382 0.82493 -0.08100
C 	C 	0.25111 0.10537 0.83285 -0.08200
C 	C 	0.24408 0.13849 0.80719 0.01800
N 	N 	0.29857 0.24737 0.77618 -0.15000
C 	C 	0.28227 0.17415 0.76316 0.00100
C 	C 	0.24758 0.10521 0.78180 -0.05200
H 	H 	0.24192 0.04277 0.77830 0.05100
Ni	Ni	0.25672 0.61108 0.43621 1.12400
H 	H 	0.16501 0.28026 0.36559 0.06300
C 	C 	0.98556 0.88550 0.18840 0.26200
C 	C 	0.30263 0.46943 0.33225 0.08200
C 	C 	0.97083 0.75445 0.16606 -0.05500
H 	H 	0.81426 0.17126 0.70442 0.05200
H 	H 	0.98507 0.60940 0.14958 0.04300
O 	O 	0.94731 0.84742 0.25082 -0.38600
C 	C 	0.97511 0.40308 0.00213 0.29400
H 	H 	0.98970 0.60090 0.00200 0.10200
C 	C 	0.80831 0.27061 0.88586 0.25800
C 	C 	0.46693 0.24377 0.89636 0.28100
C 	C 	0.73239 0.41182 0.85523 0.28100
C 	C 	0.54204 0.08953 0.92401 0.31000
C 	C 	0.65228 0.45013 0.94496 0.36000
C 	C 	0.77217 0.35423 0.96955 0.33800
Ni	Ni	0.62334 0.23238 0.87867 1.11500
Ni	Ni	0.58800 0.26562 0.94298 1.12000
Ni	Ni	0.76698 0.39932 0.91239 1.12300
O 	O 	0.72898 0.21029 0.87812 -0.36100
O 	O 	0.82901 0.35320 0.88692 -0.36100
O 	O 	0.58565 0.37568 0.93855 -0.39000
O 	O 	0.53144 0.27275 0.87831 -0.35900
O 	O 	0.47400 0.21255 0.92053 -0.34700
O 	O 	0.80813 0.36225 0.94501 -0.39600
O 	O 	0.69778 0.32976 0.84957 -0.35300
O 	O 	0.71998 0.43358 0.87981 -0.36500
O 	O 	0.68424 0.31337 0.97339 -0.36600
O 	O 	0.53534 0.11507 0.89853 -0.34200
O 	O 	0.57125 0.14437 0.94509 -0.37200
O 	O 	0.73341 0.47096 0.93748 -0.34700
O 	O 	0.66711 0.28709 0.91306 -0.71000
H 	H 	0.69259 0.25265 0.92034 0.15900
C 	C 	0.74582 0.40203 0.58963 0.25300
C 	C 	0.45312 0.30423 0.51491 0.27200
C 	C 	0.58361 0.18769 0.57409 0.29000
C 	C 	0.59369 0.51379 0.53400 0.34800
C 	C 	0.62041 0.24969 0.48241 0.34800
C 	C 	0.83712 0.47483 0.50974 0.30900
Ni	Ni	0.56919 0.34778 0.56350 1.11400
Ni	Ni	0.64563 0.41516 0.49989 1.12200
Ni	Ni	0.71364 0.30498 0.53522 1.12200
O 	O 	0.67479 0.41173 0.59002 -0.35300
O 	O 	0.74811 0.33832 0.57586 -0.35100
O 	O 	0.62324 0.32057 0.47391 -0.36600
O 	O 	0.47769 0.27132 0.53487 -0.37300
O 	O 	0.51195 0.37095 0.50022 -0.35800
O 	O 	0.82786 0.40294 0.52119 -0.34200
O 	O 	0.55330 0.23666 0.58343 -0.36200
O 	O 	0.60871 0.19526 0.54831 -0.38200
O 	O 	0.77733 0.47268 0.49219 -0.36400
O 	O 	0.55468 0.45641 0.55429 -0.34900
O 	O 	0.66139 0.51827 0.52077 -0.39300
O 	O 	0.68520 0.25313 0.49709 -0.36800
O 	O 	0.65400 0.36974 0.53513 -0.71000
H 	H 	0.70204 0.42429 0.54200 0.14900
C 	C 	0.96543 0.87750 0.68360 0.25900
C 	C 	0.05937 0.88725 0.75001 0.26000
C 	C 	0.92666 0.09363 0.69882 0.27800
C 	C 	0.04155 0.12508 0.77296 0.27100
Ni	Ni	0.96492 0.97927 0.73291 1.12200
O 	O 	0.90264 0.01317 0.70505 -0.37900
O 	O 	0.93517 0.87467 0.70889 -0.36700
O 	O 	0.96799 0.06255 0.76219 -0.38300
O 	O 	0.01994 0.93017 0.75881 -0.36000
C 	C 	0.53326 0.86840 0.43032 0.27600
C 	C 	0.35760 0.61351 0.38802 0.28300
C 	C 	0.37167 0.93045 0.43598 0.34700
C 	C 	0.38758 0.63786 0.47930 0.36400
Ni	Ni	0.36740 0.78551 0.39877 1.11400
Ni	Ni	0.37125 0.79014 0.46654 1.12700
O 	O 	0.24023 0.74359 0.38543 -0.35200
O 	O 	0.42974 0.72170 0.47620 -0.38000
O 	O 	0.48940 0.80962 0.41193 -0.35800
O 	O 	0.49194 0.88126 0.45115 -0.35300
O 	O 	0.35730 0.68044 0.37651 -0.35400
O 	O 	0.35244 0.60417 0.41494 -0.34800
O 	O 	0.38922 0.90862 0.41120 -0.36700
O 	O 	0.32863 0.87156 0.45521 -0.34300
O 	O 	0.30516 0.59096 0.47172 -0.37900
O 	O 	0.31754 0.73297 0.43320 -0.71400
H 	H 	0.26660 0.74230 0.43339 0.16800
C 	C 	0.46615 0.59255 0.99911 0.32800
C 	C 	0.43553 0.80311 0.05468 0.27000
C 	C 	0.34168 0.75531 0.96906 0.32800
Ni	Ni	0.36564 0.61327 0.04980 1.11700
Ni	Ni	0.29124 0.57325 0.98650 1.12300
O 	O 	0.44314 0.57595 0.02588 -0.32600
O 	O 	0.42056 0.61211 0.98143 -0.36500
O 	O 	0.30406 0.64202 0.08236 -0.35900
O 	O 	0.30319 0.67248 0.96149 -0.36200
O 	O 	0.31572 0.77941 0.99151 -0.36900
O 	O 	0.45799 0.74271 0.05106 -0.35100
O 	O 	0.35310 0.78779 0.05074 -0.36100
O 	O 	0.32320 0.64382 0.01837 -0.72300
H 	H 	0.37857 0.69195 0.01118 0.17500
C 	C 	0.83893 0.98847 0.27840 0.26900
C 	C 	0.81368 0.98837 0.19623 0.29500
Ni	Ni	0.95915 0.11035 0.23303 1.10700
Ni	Ni	0.88121 0.90208 0.23309 1.12300
O 	O 	0.85007 0.04944 0.26010 -0.37200
O 	O 	0.83737 0.91644 0.27051 -0.36700
O 	O 	0.87973 0.06703 0.19825 -0.38600
O 	O 	0.79355 0.93332 0.21684 -0.37100
O 	O 	0.90906 0.87886 0.19465 -0.37400
O 	O 	0.97763 0.01574 0.23612 -0.72600
H 	H 	0.98485 0.01701 0.25633 0.13800
H 	H 	0.00134 0.25225 0.09284 0.06400
H 	H 	0.31157 0.33696 0.04931 0.07100
H 	H 	0.98813 0.19386 0.14698 0.03500
C 	C 	0.54827 0.92644 0.11194 0.08000
C 	C 	0.55380 0.90977 0.14016 -0.07900
C 	C 	0.63014 0.91072 0.14927 0.01300
C 	C 	0.70196 0.93566 0.13169 0.08400
C 	C 	0.69837 0.95597 0.10379 -0.08000
C 	C 	0.61970 0.94963 0.09412 0.02100
N 	N 	0.47266 0.88452 0.09790 -0.15200
C 	C 	0.49419 0.87788 0.07142 0.02000
C 	C 	0.58524 0.91863 0.06826 -0.04100
N 	N 	0.77678 0.96940 0.14632 -0.14300
C 	C 	0.75276 0.96702 0.17309 0.00100
C 	C 	0.66223 0.92963 0.17591 -0.03700
H 	H 	0.49852 0.89174 0.15410 0.05800
H 	H 	0.75394 0.97417 0.08997 0.06600
H 	H 	0.61863 0.90178 0.05257 0.07400
H 	H 	0.62846 0.93837 0.19342 0.05400
H 	H 	0.41298 0.84047 0.10726 0.09400
H 	H 	0.83978 0.00976 0.13826 0.08000
H 	H 	0.93106 0.71079 0.18251 0.05100
H 	H 	0.27517 0.81389 0.09081 0.05900
C 	C 	0.70715 0.01307 0.38960 0.06500
C 	C 	0.71110 0.04103 0.36197 -0.07100
C 	C 	0.73334 0.00025 0.34134 -0.00800
C 	C 	0.76216 0.94299 0.34794 0.10400
C 	C 	0.76835 0.92227 0.37554 -0.09500
C 	C 	0.73730 0.95581 0.39632 0.04400
N 	N 	0.64065 0.00014 0.40675 -0.15300
C 	C 	0.62442 0.93286 0.42358 0.03100
C 	C 	0.68585 0.90637 0.41837 -0.05100
N 	N 	0.81107 0.93858 0.32713 -0.15500
C 	C 	0.81494 0.99413 0.30724 0.01600
C 	C 	0.76629 0.03321 0.31520 -0.05000
H 	H 	0.68898 0.08627 0.35662 0.06200
H 	H 	0.79097 0.87721 0.38060 0.06700
H 	H 	0.67374 0.84172 0.42277 0.07200
H 	H 	0.77268 0.09200 0.30638 0.05200
H 	H 	0.59219 0.01521 0.40115 0.09500
H 	H 	0.85365 0.91332 0.32864 0.09000
C 	C 	0.24718 0.41312 0.35254 0.01600
N 	N 	0.35868 0.54567 0.34354 -0.15000
C 	C 	0.33923 0.53877 0.37093 0.01500
C 	C 	0.27182 0.45619 0.37733 -0.03600
H 	H 	0.23247 0.43707 0.39616 0.04800
H 	H 	0.39697 0.60306 0.33254 0.09700
C 	C 	0.47876 0.11448 0.48478 -0.09100
C 	C 	0.55604 0.16843 0.47004 -0.12800
C 	C 	0.56249 0.15330 0.44182 0.34300
C 	C 	0.49450 0.08112 0.42912 -0.08900
C 	C 	0.42184 0.02133 0.44485 -0.13400
C 	C 	0.41070 0.04300 0.47204 0.32200
F 	F 	0.33460 0.99380 0.48627 -0.42300
H 	H 	0.47053 0.12915 0.50597 0.09300
H 	H 	0.49932 0.07069 0.40727 0.08700
F 	F 	0.63425 0.20876 0.42670 -0.43800
C 	C 	0.95030 0.61533 0.48866 -0.11600
C 	C 	0.92680 0.55104 0.50911 -0.10200
C 	C 	0.99309 0.55359 0.52632 0.30800
F 	F 	0.97240 0.49683 0.54768 -0.44600
H 	H 	0.90027 0.61886 0.47650 0.10700
C 	C 	0.43203 0.59348 0.52225 -0.08500
C 	C 	0.43195 0.59723 0.49320 -0.13500
C 	C 	0.48879 0.57881 0.47787 0.34300
C 	C 	0.54565 0.55732 0.49138 -0.08400
C 	C 	0.54466 0.55136 0.52046 -0.13400
C 	C 	0.48852 0.57109 0.53590 0.33600
F 	F 	0.48823 0.56804 0.56400 -0.44100
H 	H 	0.38993 0.61001 0.53425 0.09300
H 	H 	0.58881 0.54275 0.47917 0.07900
F 	F 	0.49077 0.58434 0.44979 -0.43900
C 	C 	0.78545 0.07849 0.64458 0.08300
C 	C 	0.77064 0.08764 0.61650 -0.08000
C 	C 	0.72546 0.13200 0.61017 0.01700
C 	C 	0.69251 0.16201 0.63074 0.08400
C 	C 	0.70603 0.15235 0.65878 -0.08100
C 	C 	0.75270 0.10942 0.66532 0.01500
N 	N 	0.85787 0.07785 0.65346 -0.15000
C 	C 	0.87386 0.11096 0.67921 0.00500
C 	C 	0.80872 0.12926 0.68753 -0.04000
N 	N 	0.62409 0.16880 0.62135 -0.14900
C 	C 	0.61495 0.14678 0.59424 -0.00000
C 	C 	0.67487 0.11959 0.58700 -0.04200
H 	H 	0.79594 0.06381 0.60030 0.06100
H 	H 	0.68136 0.17722 0.67485 0.05800
H 	H 	0.69427 0.11429 0.56607 0.04900
H 	H 	0.90421 0.07366 0.64073 0.09200
H 	H 	0.59896 0.20469 0.63088 0.09700
C 	C 	0.26534 0.28034 0.54412 0.08500
C 	C 	0.25571 0.30596 0.57090 -0.08000
C 	C 	0.23836 0.24782 0.59271 0.01600
C 	C 	0.21642 0.16373 0.58801 0.08300
C 	C 	0.20998 0.13311 0.56105 -0.08100
C 	C 	0.23993 0.19382 0.53908 0.02300
N 	N 	0.33516 0.33183 0.52801 -0.15300
C 	C 	0.36010 0.28114 0.51447 0.01600
C 	C 	0.29750 0.19514 0.51904 -0.04300
N 	N 	0.17436 0.11411 0.61020 -0.15100
C 	C 	0.20749 0.25082 0.61881 -0.03800
H 	H 	0.27325 0.37214 0.57493 0.07700
H 	H 	0.19165 0.06651 0.55744 0.06800
H 	H 	0.31163 0.14277 0.51647 0.07600
H 	H 	0.37911 0.39558 0.53306 0.10800
C 	C 	0.91951 0.56909 0.62545 0.09900
C 	C 	0.96988 0.65932 0.62447 -0.10700
C 	C 	0.96718 0.70493 0.64756 0.03300
C 	C 	0.90750 0.66388 0.66901 0.07000
C 	C 	0.85118 0.57467 0.66887 -0.07400
C 	C 	0.86291 0.52731 0.64777 0.01000
N 	N 	0.88963 0.52146 0.60247 -0.15100
C 	C 	0.81462 0.44956 0.60978 0.02800
C 	C 	0.79599 0.45089 0.63773 -0.04500
N 	N 	0.88685 0.71906 0.68127 -0.15100
C 	C 	0.93521 0.79644 0.66858 0.01800
C 	C 	0.98322 0.78880 0.64672 -0.07400
H 	H 	0.00374 0.69267 0.60560 0.08600
H 	H 	0.79611 0.54430 0.68322 0.05600
H 	H 	0.73036 0.41706 0.64666 0.05500
H 	H 	0.03816 0.84163 0.63604 0.07200
H 	H 	0.90215 0.54798 0.58249 0.11900
H 	H 	0.85218 0.70780 0.69996 0.09400
C 	C 	0.88359 0.35241 0.99967 -0.07400
C 	C 	0.83289 0.39107 0.99294 -0.13200
C 	C 	0.86972 0.48002 0.99756 0.34300
C 	C 	0.96108 0.53162 0.00101 -0.12000
H 	H 	0.85466 0.28311 0.99835 0.08600
F 	F 	0.81951 0.51814 0.99460 -0.44300
C 	C 	0.53695 0.96222 0.94800 -0.07200
C 	C 	0.49759 0.99565 0.93024 -0.10700
C 	C 	0.41286 0.94016 0.92007 0.33800
C 	C 	0.36548 0.85458 0.92963 -0.08600
C 	C 	0.40141 0.82395 0.94971 -0.11600
C 	C 	0.48959 0.87647 0.95739 0.33100
F 	F 	0.52657 0.84701 0.97607 -0.44600
H 	H 	0.60307 0.00340 0.95534 0.08000
H 	H 	0.29799 0.81457 0.92327 0.10000
F 	F 	0.37396 0.97056 0.90247 -0.43600
C 	C 	0.61248 0.49232 0.98930 -0.07900
C 	C 	0.63515 0.51040 0.96113 -0.11200
C 	C 	0.61703 0.56928 0.94729 0.34500
C 	C 	0.56834 0.60221 0.96060 -0.09000
C 	C 	0.53607 0.57563 0.98779 -0.10800
C 	C 	0.56282 0.52410 0.00259 0.33700
F 	F 	0.53723 0.50106 0.02934 -0.43800
H 	H 	0.62758 0.44821 0.00035 0.10900
H 	H 	0.55215 0.64508 0.94927 0.11300
F 	F 	0.64080 0.58964 0.92028 -0.43500
C 	C 	0.99636 0.24907 0.87695 0.06100
C 	C 	0.06336 0.27243 0.85712 -0.05400
C 	C 	0.06714 0.20706 0.84234 0.00100
C 	C 	0.00163 0.12129 0.84543 0.11200
C 	C 	0.93309 0.09815 0.86466 -0.10600
C 	C 	0.93394 0.16270 0.88134 0.03400
N 	N 	0.96125 0.29970 0.88262 -0.14700
C 	C 	0.87676 0.24683 0.89014 0.01600
C 	C 	0.85816 0.16162 0.89016 -0.05000
N 	N 	0.99047 0.07918 0.82140 -0.16700
C 	C 	0.04783 0.13744 0.80308 0.01400
C 	C 	0.09645 0.21715 0.81528 -0.03800
H 	H 	0.10458 0.33935 0.85113 0.05800
H 	H 	0.87608 0.03426 0.86446 0.06700
H 	H 	0.79282 0.10701 0.88774 0.06100
H 	H 	0.12694 0.27792 0.80402 0.05700
H 	H 	0.98416 0.36106 0.87395 0.09500
H 	H 	0.93271 0.02362 0.81593 0.09200
C 	C 	0.31166 0.24929 0.85162 0.01800
C 	C 	0.28124 0.16159 0.85548 0.08600
N 	N 	0.32220 0.14898 0.87709 -0.15400
C 	C 	0.38080 0.22757 0.88670 0.02000
C 	C 	0.37399 0.29115 0.87175 -0.04300
H 	H 	0.35415 0.35256 0.82103 0.06200
H 	H 	0.24015 0.04025 0.83472 0.06300
H 	H 	0.42738 0.35678 0.86945 0.06800
H 	H 	0.32977 0.09462 0.87929 0.12300
C 	C 	0.88826 0.54728 0.80409 0.08000
C 	C 	0.89700 0.58663 0.77807 -0.08500
C 	C 	0.93976 0.67666 0.77698 0.02400
C 	C 	0.97481 0.72580 0.80028 0.06800
C 	C 	0.97019 0.68747 0.82603 -0.07600
C 	C 	0.92656 0.59719 0.82753 0.01700
N 	N 	0.81726 0.47201 0.81146 -0.14900
C 	C 	0.80984 0.47410 0.83926 0.00500
C 	C 	0.87639 0.55015 0.84998 -0.04800
N 	N 	0.03768 0.80559 0.79315 -0.14600
C 	C 	0.04142 0.80881 0.76509 0.03400
C 	C 	0.98416 0.72776 0.75445 -0.06900
H 	H 	0.86856 0.54863 0.75971 0.05700
H 	H 	0.99799 0.72617 0.84429 0.06200
H 	H 	0.87224 0.57771 0.86949 0.05400
H 	H 	0.96126 0.71501 0.73334 0.05700
H 	H 	0.76498 0.43472 0.79834 0.09300
H 	H 	0.06031 0.85914 0.80600 0.10200
