data_crystal

_cell_length_a 30.69800
_cell_length_b 30.99032
_cell_length_c 28.51745
_cell_angle_alpha 95.53344
_cell_angle_beta  95.52216
_cell_angle_gamma 125.53186

_symmetry_space_group_name_	'P 1'
_symmetry_space_group_name_H-M	'P 1'

loop_
_symmetry_equiv_pos_as_xyz
  x,y,z

loop_
_atom_site_label
_atom_site_type_symbol
_atom_site_fract_x
_atom_site_fract_y
_atom_site_fract_z
_atom_site_charge
C 	C 	0.94997 0.00147 0.43113 0.10800
H 	H 	0.90850 0.01152 0.05781 0.04100
C 	C 	0.03159 0.00961 0.43936 0.12900
C 	C 	0.87943 0.01281 0.45165 -0.02900
C 	C 	0.05250 0.02910 0.98232 0.12800
N 	N 	0.00493 0.03214 0.43432 -0.13600
C 	C 	0.97774 0.02795 0.99722 0.11000
C 	C 	0.92121 0.02628 0.42597 -0.01600
H 	H 	0.82444 0.03027 0.47102 0.04000
H 	H 	0.18899 0.03110 0.91924 0.04300
C 	C 	0.85580 0.04011 0.45025 -0.04500
C 	C 	0.91640 0.04175 0.03666 -0.02100
C 	C 	0.08963 0.04205 0.44337 -0.03900
H 	H 	0.19162 0.04781 0.39020 0.04300
H 	H 	0.79014 0.05172 0.99216 0.04100
H 	H 	0.86196 0.05445 0.06616 0.04200
N 	N 	0.02974 0.05534 0.98926 -0.13600
N 	N 	0.02346 0.97567 0.98337 -0.13300
N 	N 	0.00344 0.95641 0.44098 -0.13300
C 	C 	0.21835 0.08263 0.41878 -0.04200
C 	C 	0.19652 0.09879 0.45098 0.01400
C 	C 	0.23134 0.14372 0.48796 -0.04200
C 	C 	0.13838 0.06833 0.44684 0.00400
H 	H 	0.21470 0.15628 0.51311 0.04400
C 	C 	0.20889 0.10404 0.96165 0.01300
C 	C 	0.15389 0.07985 0.96869 0.00400
C 	C 	0.10768 0.05785 0.97484 -0.03900
C 	C 	0.22120 0.07259 0.93616 -0.04100
H 	H 	0.00988 0.89626 0.02832 0.04900
H 	H 	0.99070 0.10750 0.95288 0.04000
C 	C 	0.97161 0.94815 0.99135 0.11400
N 	N 	0.94877 0.97433 0.99822 -0.13600
C 	C 	0.94858 0.92551 0.43789 0.11500
N 	N 	0.92180 0.94811 0.43320 -0.13600
Cu	Cu	0.64832 0.25677 0.00423 0.92700
Cu	Cu	0.69959 0.25711 0.90825 0.87100
Cu	Cu	0.68304 0.34030 0.93893 0.89700
Cu	Cu	0.64364 0.35510 0.02737 0.89400
C 	C 	0.65674 0.29993 0.10139 0.30000
O 	O 	0.56750 0.22283 0.99704 -0.36100
C 	C 	0.67507 0.30152 0.83657 0.30300
O 	O 	0.69081 0.34031 0.00646 -0.64000
O 	O 	0.64644 0.26114 0.93524 -0.64000
O 	O 	0.68353 0.21926 0.00839 -0.37300
O 	O 	0.74703 0.27383 0.96588 -0.44300
O 	O 	0.63120 0.31935 0.08437 -0.38400
O 	O 	0.72220 0.41793 0.94769 -0.38000
C 	C 	0.71539 0.44688 0.97899 0.30900
C 	C 	0.54624 0.24417 0.97582 0.28200
O 	O 	0.57833 0.29413 0.96923 -0.39100
O 	O 	0.67515 0.42403 0.00319 -0.39600
O 	O 	0.66125 0.26692 0.07303 -0.35800
C 	C 	0.73058 0.23938 0.99508 0.31300
O 	O 	0.68794 0.34170 0.87025 -0.38300
O 	O 	0.66937 0.25834 0.84731 -0.42000
H 	H 	0.72889 0.36453 0.02430 0.16400
H 	H 	0.60966 0.23815 0.91480 0.17300
Cu	Cu	0.73117 0.33961 0.43689 0.92800
Cu	Cu	0.73304 0.29191 0.53433 0.87100
Cu	Cu	0.64882 0.30770 0.50389 0.89700
Cu	Cu	0.63139 0.34342 0.41443 0.89500
C 	C 	0.68551 0.32866 0.33967 0.30100
O 	O 	0.76509 0.41950 0.44203 -0.36100
C 	C 	0.68976 0.31773 0.60637 0.30300
O 	O 	0.64706 0.29757 0.43618 -0.64000
O 	O 	0.72854 0.34381 0.50631 -0.64000
O 	O 	0.76860 0.30424 0.43310 -0.37100
O 	O 	0.71430 0.24331 0.47733 -0.44400
O 	O 	0.66590 0.35402 0.35653 -0.38400
O 	O 	0.57057 0.26871 0.49639 -0.38000
C 	C 	0.54060 0.27577 0.46630 0.29000
C 	C 	0.74366 0.44084 0.46284 0.30200
O 	O 	0.69404 0.40931 0.47109 -0.39400
O 	O 	0.56286 0.31383 0.44004 -0.39400
O 	O 	0.71914 0.32459 0.36805 -0.35700
C 	C 	0.74831 0.25818 0.44752 0.31000
O 	O 	0.64915 0.30573 0.57317 -0.38300
O 	O 	0.73320 0.32355 0.59501 -0.42100
H 	H 	0.62232 0.25947 0.41928 0.16400
H 	H 	0.75211 0.38065 0.52599 0.17500
C 	C 	0.68348 0.31772 0.65563 -0.10000
C 	C 	0.67948 0.31617 0.69720 0.03200
C 	C 	0.67632 0.31266 0.74594 0.03200
C 	C 	0.67497 0.30830 0.78745 -0.09900
C 	C 	0.66604 0.30288 0.15230 -0.09200
C 	C 	0.67243 0.30661 0.19529 0.03400
C 	C 	0.67837 0.31252 0.24574 0.03400
C 	C 	0.68225 0.31902 0.28874 -0.09100
C 	C 	0.91841 0.86761 0.43928 -0.02000
C 	C 	0.93085 0.83663 0.41301 -0.01900
C 	C 	0.90766 0.78360 0.41885 -0.04800
C 	C 	0.87187 0.76101 0.45110 0.01300
C 	C 	0.85788 0.79126 0.47616 -0.04800
C 	C 	0.88098 0.84435 0.47019 -0.02000
C 	C 	0.84972 0.70597 0.45902 0.00800
C 	C 	0.79348 0.66480 0.44672 -0.04300
C 	C 	0.77298 0.61177 0.45061 -0.03000
C 	C 	0.80854 0.59954 0.46678 -0.00800
C 	C 	0.86457 0.64080 0.48024 -0.03000
C 	C 	0.88513 0.69389 0.47648 -0.04300
C 	C 	0.78772 0.54423 0.46696 0.04600
C 	C 	0.76873 0.49736 0.46586 -0.11000
H 	H 	0.95918 0.85395 0.38861 0.04100
H 	H 	0.91796 0.76026 0.39872 0.04300
H 	H 	0.83000 0.77404 0.50092 0.04300
H 	H 	0.87113 0.86789 0.49070 0.04000
H 	H 	0.76583 0.67368 0.43320 0.04100
H 	H 	0.72959 0.58006 0.44022 0.03800
H 	H 	0.89229 0.63167 0.49289 0.03900
H 	H 	0.92858 0.72547 0.48642 0.04100
C 	C 	0.93763 0.06590 0.39745 -0.02300
C 	C 	0.91391 0.09309 0.39601 -0.04600
C 	C 	0.87359 0.08097 0.42304 0.01000
C 	C 	0.85267 0.11347 0.42543 0.00900
C 	C 	0.86435 0.14721 0.46860 -0.04500
C 	C 	0.84483 0.17824 0.47097 -0.03100
C 	C 	0.81349 0.17580 0.43023 -0.01200
C 	C 	0.80212 0.14248 0.38692 -0.02900
C 	C 	0.82176 0.11145 0.38447 -0.04400
C 	C 	0.79065 0.20529 0.43379 0.04800
C 	C 	0.77144 0.22973 0.43880 -0.12200
H 	H 	0.96923 0.07611 0.37689 0.04100
H 	H 	0.92776 0.12442 0.37476 0.04200
H 	H 	0.86636 0.98233 0.47377 0.04600
H 	H 	0.88855 0.14937 0.50029 0.04000
H 	H 	0.85366 0.20381 0.50459 0.03200
H 	H 	0.77775 0.14023 0.35531 0.04000
H 	H 	0.81266 0.08564 0.35094 0.04100
C 	C 	0.48198 0.24605 0.46724 -0.08700
C 	C 	0.45576 0.27034 0.45870 0.01600
C 	C 	0.39972 0.24130 0.45720 -0.06700
C 	C 	0.36930 0.18777 0.46429 0.02800
C 	C 	0.39553 0.16373 0.47370 -0.06700
C 	C 	0.45165 0.19275 0.47522 0.01500
C 	C 	0.30978 0.15642 0.46038 -0.00200
C 	C 	0.27480 0.11135 0.42343 -0.03500
C 	C 	0.28783 0.17249 0.49267 -0.03400
H 	H 	0.47877 0.31167 0.45314 0.03400
H 	H 	0.37980 0.26019 0.44996 0.04700
H 	H 	0.37236 0.12246 0.47944 0.04700
H 	H 	0.47132 0.17350 0.48174 0.03100
H 	H 	0.29138 0.09885 0.39816 0.03800
H 	H 	0.31451 0.20721 0.52133 0.04000
C 	C 	0.94041 0.89006 0.99271 -0.01500
C 	C 	0.96695 0.86940 0.01230 -0.03000
C 	C 	0.93823 0.81397 0.01111 -0.04500
C 	C 	0.88266 0.77863 0.99046 0.01200
C 	C 	0.85581 0.79924 0.97160 -0.04600
C 	C 	0.88453 0.85473 0.97275 -0.02200
C 	C 	0.85283 0.71999 0.98804 0.00900
C 	C 	0.83137 0.68504 0.94340 -0.04300
C 	C 	0.80445 0.62962 0.94117 -0.03000
C 	C 	0.79889 0.60884 0.98351 -0.00700
C 	C 	0.82019 0.64365 0.02810 -0.03200
C 	C 	0.84708 0.69905 0.03039 -0.04400
C 	C 	0.77009 0.55165 0.98127 0.04600
C 	C 	0.74550 0.50379 0.97990 -0.10600
H 	H 	0.95926 0.79841 0.02583 0.04100
H 	H 	0.81282 0.77226 0.95583 0.04300
H 	H 	0.86361 0.87009 0.95735 0.04200
H 	H 	0.83587 0.70087 0.91051 0.04200
H 	H 	0.78793 0.60291 0.90657 0.04100
H 	H 	0.81582 0.62780 0.06098 0.03800
H 	H 	0.86342 0.72569 0.06501 0.04100
C 	C 	0.95260 0.05617 0.00447 -0.02100
C 	C 	0.96309 0.09616 0.97798 -0.02000
C 	C 	0.93667 0.12049 0.98278 -0.04700
C 	C 	0.89964 0.10521 0.01420 0.01100
C 	C 	0.89009 0.06618 0.04150 -0.04800
C 	C 	0.86916 0.12841 0.01697 0.00800
C 	C 	0.81213 0.09488 0.00346 -0.04500
C 	C 	0.78349 0.11718 0.00330 -0.03200
C 	C 	0.81162 0.17311 0.01660 -0.01200
C 	C 	0.86843 0.20654 0.03126 -0.03000
C 	C 	0.89713 0.18427 0.03152 -0.04400
C 	C 	0.78281 0.19658 0.01100 0.04800
C 	C 	0.75881 0.21613 0.00475 -0.12400
H 	H 	0.94419 0.15047 0.96144 0.04100
H 	H 	0.73960 0.09111 0.99180 0.03800
H 	H 	0.89047 0.24982 0.04154 0.03800
H 	H 	0.94109 0.21046 0.04239 0.04000
C 	C 	0.48640 0.21499 0.96571 -0.08800
C 	C 	0.45264 0.17010 0.98682 0.01400
C 	C 	0.39717 0.14710 0.98259 -0.06400
C 	C 	0.37482 0.16857 0.95715 0.02600
C 	C 	0.40785 0.21180 0.93426 -0.06500
C 	C 	0.46330 0.23475 0.93829 0.01100
C 	C 	0.31748 0.14735 0.95636 -0.00100
C 	C 	0.30496 0.17932 0.98068 -0.03500
C 	C 	0.25081 0.15767 0.98337 -0.03900
C 	C 	0.27531 0.09415 0.93352 -0.03500
H 	H 	0.46957 0.15401 0.00772 0.03800
H 	H 	0.37184 0.11346 0.00011 0.04600
H 	H 	0.39074 0.22813 0.91397 0.04700
H 	H 	0.48845 0.26855 0.92090 0.03400
H 	H 	0.33725 0.22046 0.99840 0.04000
H 	H 	0.24161 0.18222 0.00316 0.04200
H 	H 	0.28455 0.06926 0.91445 0.03900
