data_crystal

_cell_length_a 26.15072
_cell_length_b 26.32379
_cell_length_c 26.49538
_cell_angle_alpha 95.49730
_cell_angle_beta  95.49651
_cell_angle_gamma 125.78326

_symmetry_space_group_name_	'P 1'
_symmetry_space_group_name_H-M	'P 1'

loop_
_symmetry_equiv_pos_as_xyz
  x,y,z

loop_
_atom_site_label
_atom_site_type_symbol
_atom_site_fract_x
_atom_site_fract_y
_atom_site_fract_z
_atom_site_charge
C 	C 	0.96569 0.02820 0.00200 0.01400
C 	C 	0.05559 0.02370 0.99796 0.01000
C 	C 	0.00894 0.04488 0.43585 -0.06100
C 	C 	0.04395 0.02018 0.43966 0.01400
C 	C 	0.88171 0.09884 0.39587 0.04200
C 	C 	0.90605 0.03175 0.43163 0.02800
C 	C 	0.90887 0.06600 0.39303 -0.07800
C 	C 	0.11403 0.06239 0.44340 0.02800
C 	C 	0.14011 0.08528 0.39975 -0.07700
C 	C 	0.15240 0.08932 0.95850 -0.07700
H 	H 	0.90163 0.03648 0.07281 0.05100
H 	H 	0.12412 0.09453 0.92974 0.04900
H 	H 	0.83459 0.06208 0.10917 0.04400
C 	C 	0.90510 0.06218 0.04207 -0.08100
H 	H 	0.10852 0.07383 0.36394 0.05000
C 	C 	0.03140 0.05920 0.00239 -0.05700
C 	C 	0.93935 0.06482 0.00335 0.03400
C 	C 	0.21618 0.11449 0.95541 0.04100
C 	C 	0.12445 0.05583 0.99796 0.02500
C 	C 	0.87356 0.02804 0.47200 -0.07800
C 	C 	0.15453 0.07698 0.48990 -0.07700
H 	H 	0.13406 0.05930 0.52354 0.05100
H 	H 	0.03373 0.09542 0.43643 0.04800
H 	H 	0.93348 0.06826 0.36163 0.04900
C 	C 	0.83774 0.08677 0.07779 -0.05500
C 	C 	0.87403 0.09119 0.04030 0.04700
C 	C 	0.94472 0.09876 0.96386 -0.08400
H 	H 	0.97117 0.10067 0.93403 0.05000
C 	C 	0.84596 0.06039 0.47506 0.04100
C 	C 	0.85073 0.09656 0.43727 -0.02900
H 	H 	0.81083 0.03047 0.54523 0.04200
C 	C 	0.81504 0.05837 0.51616 -0.05500
C 	C 	0.22114 0.11337 0.49267 0.04100
C 	C 	0.78998 0.09288 0.52026 -0.03500
H 	H 	0.76664 0.09114 0.55241 0.03500
H 	H 	0.24231 0.11081 0.57298 0.04400
C 	C 	0.20664 0.12154 0.40202 0.04100
C 	C 	0.16077 0.04869 0.03515 -0.07400
H 	H 	0.77642 0.10920 0.10357 0.04200
C 	C 	0.80467 0.11353 0.07460 -0.03300
H 	H 	0.06346 0.11059 0.00597 0.04800
H 	H 	0.13911 0.02316 0.06576 0.05000
C 	C 	0.26191 0.12734 0.53882 -0.05100
C 	C 	0.25206 0.10589 0.99206 -0.03100
C 	C 	0.94210 0.00464 0.43238 0.01300
C 	C 	0.87809 0.12383 0.99985 -0.03400
C 	C 	0.22428 0.07303 0.03210 0.04400
C 	C 	0.26016 0.06429 0.06824 -0.05300
H 	H 	0.23916 0.03896 0.09906 0.04400
C 	C 	0.79556 0.12993 0.48332 0.00800
C 	C 	0.32330 0.08812 0.06474 -0.03500
H 	H 	0.35039 0.08108 0.09299 0.04200
C 	C 	0.91420 0.12826 0.96191 0.04400
C 	C 	0.82565 0.13149 0.44149 0.00300
C 	C 	0.35148 0.12126 0.02520 0.01400
H 	H 	0.20221 0.13312 0.32231 0.04300
C 	C 	0.24728 0.13535 0.44852 -0.02700
C 	C 	0.88648 0.13519 0.35853 -0.05400
C 	C 	0.31572 0.13010 0.98866 -0.00200
H 	H 	0.87151 0.00162 0.50174 0.04900
H 	H 	0.90995 0.13703 0.32645 0.04300
C 	C 	0.24433 0.14754 0.91581 -0.05400
H 	H 	0.21715 0.15435 0.88743 0.04200
H 	H 	0.32893 0.19780 0.88209 0.03900
C 	C 	0.30780 0.17211 0.91271 -0.03600
H 	H 	0.86613 0.19812 0.33383 0.04300
C 	C 	0.23301 0.14336 0.35818 -0.05300
C 	C 	0.86161 0.16995 0.36275 -0.03300
H 	H 	0.31882 0.19437 0.32608 0.03900
C 	C 	0.29925 0.17813 0.36032 -0.03600
C 	C 	0.92450 0.96174 0.99793 -0.06500
C 	C 	0.94868 0.92635 0.99375 0.01500
C 	C 	0.01402 0.95728 0.99342 -0.06000
H 	H 	0.87368 0.93758 0.99734 0.04800
H 	H 	0.03254 0.92971 0.98976 0.04800
C 	C 	0.01225 0.95518 0.44005 -0.06000
C 	C 	0.94543 0.91450 0.43612 0.01400
C 	C 	0.91031 0.93928 0.43224 -0.06100
H 	H 	0.03953 0.93626 0.44340 0.04900
H 	H 	0.85864 0.90796 0.42926 0.04700
Cu	Cu	0.63750 0.23763 0.00368 0.92900
Cu	Cu	0.68743 0.24425 0.89380 0.87000
Cu	Cu	0.66073 0.33331 0.93464 0.89900
Cu	Cu	0.62942 0.35037 0.03721 0.90000
C 	C 	0.66033 0.28964 0.11070 0.30700
O 	O 	0.54322 0.19455 0.00490 -0.35600
C 	C 	0.64996 0.29689 0.82338 0.30100
O 	O 	0.68287 0.33577 0.00638 -0.63700
O 	O 	0.62465 0.24141 0.92949 -0.63900
O 	O 	0.68222 0.19703 0.00037 -0.36400
O 	O 	0.74899 0.26545 0.95190 -0.43400
O 	O 	0.62533 0.30908 0.09754 -0.37300
O 	O 	0.70254 0.42392 0.94312 -0.36800
C 	C 	0.69941 0.45830 0.98070 0.28000
C 	C 	0.51382 0.21768 0.98652 0.27200
O 	O 	0.54773 0.27649 0.97856 -0.39100
O 	O 	0.65926 0.43133 0.01290 -0.38000
O 	O 	0.66242 0.25072 0.07707 -0.35600
C 	C 	0.73528 0.22366 0.98161 0.28000
O 	O 	0.64407 0.33005 0.85998 -0.36400
O 	O 	0.64661 0.24643 0.83118 -0.41600
H 	H 	0.72925 0.36633 0.02129 0.17900
H 	H 	0.57997 0.21166 0.91009 0.17500
Cu	Cu	0.74129 0.34054 0.43658 0.92900
Cu	Cu	0.73277 0.28890 0.54561 0.87100
Cu	Cu	0.64262 0.31411 0.50388 0.89900
Cu	Cu	0.62709 0.34677 0.40185 0.89600
C 	C 	0.69524 0.32430 0.32882 0.30800
O 	O 	0.78375 0.43443 0.43654 -0.35900
C 	C 	0.67770 0.32406 0.61542 0.30100
O 	O 	0.64218 0.29382 0.43230 -0.63900
O 	O 	0.73560 0.35155 0.51044 -0.63800
O 	O 	0.78261 0.29637 0.43991 -0.36400
O 	O 	0.71259 0.22881 0.48713 -0.43200
O 	O 	0.67194 0.35545 0.34264 -0.38200
O 	O 	0.55110 0.27113 0.49406 -0.36900
C 	C 	0.51663 0.27431 0.45640 0.28200
C 	C 	0.75892 0.46238 0.45423 0.27500
O 	O 	0.69952 0.42739 0.46171 -0.39000
O 	O 	0.54390 0.31442 0.42434 -0.38700
O 	O 	0.72979 0.31740 0.36326 -0.35000
C 	C 	0.75543 0.24319 0.45807 0.28400
O 	O 	0.64387 0.32889 0.57839 -0.36400
O 	O 	0.72905 0.32821 0.60811 -0.41600
H 	H 	0.61218 0.24788 0.41677 0.17700
H 	H 	0.76471 0.39573 0.53034 0.17600
C 	C 	0.71042 0.37304 0.70839 -0.03600
C 	C 	0.66353 0.32352 0.66784 -0.08800
C 	C 	0.60725 0.26960 0.67887 0.11800
C 	C 	0.60108 0.26316 0.73022 -0.03600
C 	C 	0.65031 0.31048 0.77079 -0.08800
C 	C 	0.70390 0.36695 0.75974 0.11800
Br	Br	0.77055 0.43467 0.81420 -0.26600
H 	H 	0.75315 0.41528 0.70006 0.06200
H 	H 	0.55905 0.22026 0.73855 0.06200
Br	Br	0.53995 0.20251 0.62440 -0.26600
C 	C 	0.73403 0.36642 0.25018 -0.03400
C 	C 	0.69823 0.31368 0.27408 -0.08300
C 	C 	0.65865 0.25186 0.24393 0.12000
C 	C 	0.65075 0.24375 0.18999 -0.03400
C 	C 	0.68198 0.29704 0.16596 -0.08500
C 	C 	0.72612 0.35835 0.19636 0.12200
Br	Br	0.77470 0.43180 0.16487 -0.27500
H 	H 	0.76601 0.41401 0.27338 0.06500
H 	H 	0.61765 0.19630 0.16676 0.06800
Br	Br	0.61235 0.17826 0.27557 -0.25400
C 	C 	0.88087 0.64848 0.37065 -0.03500
C 	C 	0.90338 0.71060 0.36619 -0.05300
C 	C 	0.89515 0.74660 0.40249 0.04100
C 	C 	0.86388 0.71987 0.44353 -0.02800
C 	C 	0.84097 0.65722 0.44790 0.00100
C 	C 	0.84956 0.62144 0.41133 0.01200
C 	C 	0.80906 0.63019 0.48859 0.01100
C 	C 	0.80098 0.66628 0.52498 -0.03500
C 	C 	0.82430 0.72876 0.52093 -0.05400
C 	C 	0.85580 0.75589 0.48034 0.04100
C 	C 	0.88023 0.81890 0.47655 -0.07700
C 	C 	0.91253 0.84597 0.43626 0.02800
C 	C 	0.91872 0.80931 0.39875 -0.07700
C 	C 	0.82562 0.55867 0.41528 -0.02500
C 	C 	0.79214 0.53097 0.45490 -0.06100
C 	C 	0.78473 0.56710 0.49190 -0.02600
H 	H 	0.88759 0.62134 0.34231 0.04400
H 	H 	0.92742 0.73075 0.33457 0.04500
H 	H 	0.77657 0.64598 0.55641 0.03900
H 	H 	0.81784 0.75601 0.54941 0.04300
H 	H 	0.87566 0.84736 0.50551 0.04900
H 	H 	0.94326 0.83023 0.36748 0.05100
H 	H 	0.83089 0.53060 0.38651 0.05100
H 	H 	0.75920 0.54576 0.52263 0.04300
C 	C 	0.83158 0.16875 0.40433 0.01100
C 	C 	0.80801 0.20484 0.40951 -0.01900
C 	C 	0.77872 0.20397 0.45161 -0.06700
C 	C 	0.77218 0.16605 0.48816 -0.02300
H 	H 	0.81236 0.23341 0.38094 0.05500
H 	H 	0.74986 0.16551 0.52077 0.02800
C 	C 	0.31397 0.17046 0.45070 0.00000
C 	C 	0.33999 0.19165 0.40636 0.01300
C 	C 	0.35453 0.18388 0.49708 0.01700
C 	C 	0.32819 0.16240 0.54103 -0.03600
C 	C 	0.40631 0.22566 0.40846 -0.02600
C 	C 	0.44690 0.23901 0.45462 -0.05400
C 	C 	0.42083 0.21827 0.49892 -0.02600
H 	H 	0.35898 0.17258 0.57688 0.04900
H 	H 	0.42624 0.24113 0.37417 0.04300
H 	H 	0.45209 0.22909 0.53472 0.06500
C 	C 	0.80622 0.64383 0.89380 -0.03600
C 	C 	0.84018 0.70945 0.89540 -0.05100
C 	C 	0.85467 0.75026 0.94149 0.04000
C 	C 	0.83423 0.72481 0.98617 -0.02900
C 	C 	0.80029 0.65882 0.98462 -0.00300
C 	C 	0.78642 0.61822 0.93830 0.01700
C 	C 	0.78082 0.63353 0.02952 0.01700
C 	C 	0.79478 0.67428 0.07549 -0.03600
C 	C 	0.82839 0.73983 0.07702 -0.05200
C 	C 	0.84861 0.76549 0.03263 0.04300
C 	C 	0.88409 0.83140 0.03435 -0.07300
C 	C 	0.90577 0.85685 0.99024 0.02400
C 	C 	0.89033 0.81627 0.94373 -0.07600
C 	C 	0.75321 0.55261 0.93709 -0.02600
C 	C 	0.73409 0.52731 0.98192 -0.05500
C 	C 	0.74805 0.56795 0.02803 -0.02200
H 	H 	0.79565 0.61301 0.85799 0.04800
H 	H 	0.85549 0.72852 0.86083 0.04400
H 	H 	0.77981 0.65526 0.11015 0.04100
H 	H 	0.83905 0.77067 0.11284 0.04300
H 	H 	0.89620 0.86306 0.07016 0.05000
H 	H 	0.90708 0.83627 0.90973 0.05000
H 	H 	0.74194 0.52128 0.90134 0.06500
H 	H 	0.73390 0.54859 0.06274 0.04700
C 	C 	0.91807 0.16089 0.92179 -0.05700
C 	C 	0.88530 0.18792 0.91876 -0.03400
C 	C 	0.84816 0.18257 0.95576 0.00600
C 	C 	0.84491 0.15087 0.99669 0.00100
C 	C 	0.80753 0.14514 0.03391 0.01200
C 	C 	0.77272 0.17020 0.02952 -0.01600
C 	C 	0.77483 0.20066 0.98809 -0.07200
C 	C 	0.81334 0.20751 0.95175 -0.02300
H 	H 	0.94600 0.16490 0.89264 0.04200
H 	H 	0.88838 0.21252 0.88732 0.03400
H 	H 	0.74385 0.16576 0.05802 0.05200
H 	H 	0.81505 0.23096 0.91976 0.02800
C 	C 	0.34385 0.16378 0.94908 0.01100
C 	C 	0.41541 0.14695 0.02249 -0.02100
C 	C 	0.44425 0.18245 0.98419 -0.06500
C 	C 	0.40804 0.18976 0.94698 -0.02500
H 	H 	0.44346 0.14151 0.05129 0.05000
H 	H 	0.43020 0.21662 0.91713 0.04300
