data_crystal

_cell_length_a 32.25097
_cell_length_b 28.11623
_cell_length_c 19.56293
_cell_angle_alpha 92.68662
_cell_angle_beta  85.31470
_cell_angle_gamma 124.36282

_symmetry_space_group_name_	'P 1'
_symmetry_space_group_name_H-M	'P 1'

loop_
_symmetry_equiv_pos_as_xyz
  x,y,z

loop_
_atom_site_label
_atom_site_type_symbol
_atom_site_fract_x
_atom_site_fract_y
_atom_site_fract_z
_atom_site_charge
N 	N 	0.02548 0.02673 0.86815 -0.14300
C 	C 	0.16250 0.10615 0.96723 -0.01200
C 	C 	0.16271 0.11913 0.89871 -0.01800
C 	C 	0.11742 0.09409 0.86725 -0.07200
C 	C 	0.07151 0.05496 0.90329 0.08400
C 	C 	0.07123 0.04278 0.97251 -0.08200
C 	C 	0.11648 0.06855 0.00426 -0.01000
C 	C 	0.30520 0.17381 0.04902 -0.01100
C 	C 	0.26754 0.11438 0.05214 -0.01800
C 	C 	0.22068 0.09250 0.02679 -0.04300
C 	C 	0.21053 0.12981 0.99915 0.01900
C 	C 	0.24711 0.18946 0.99931 -0.05000
C 	C 	0.29428 0.21137 0.02383 -0.01300
H 	H 	0.02653 0.94323 0.79845 0.04600
H 	H 	0.01752 0.09077 0.97109 0.04500
H 	H 	0.19800 0.14796 0.86954 0.03900
H 	H 	0.11795 0.10451 0.81449 0.05200
H 	H 	0.03613 0.01435 0.00196 0.05600
H 	H 	0.11582 0.05901 0.05751 0.03600
H 	H 	0.77305 0.66783 0.90361 0.05000
H 	H 	0.27490 0.08497 0.07285 0.05100
H 	H 	0.19264 0.04642 0.02725 0.04800
H 	H 	0.23936 0.21873 0.97918 0.04700
H 	H 	0.32271 0.25730 0.02133 0.05100
C 	C 	0.14698 0.07782 0.60121 -0.00600
C 	C 	0.11991 0.07316 0.54582 -0.02200
C 	C 	0.06839 0.04960 0.55560 -0.07000
C 	C 	0.04357 0.03052 0.62116 0.07700
C 	C 	0.07122 0.03720 0.67670 -0.07000
C 	C 	0.12257 0.06026 0.66676 -0.02200
C 	C 	0.30328 0.14257 0.57802 -0.01100
C 	C 	0.26679 0.08307 0.58428 -0.01800
C 	C 	0.21567 0.06186 0.59062 -0.04600
C 	C 	0.20060 0.09988 0.59043 0.01900
C 	C 	0.23691 0.15918 0.58281 -0.04600
C 	C 	0.28806 0.18049 0.57670 -0.01800
H 	H 	0.13859 0.08687 0.49506 0.04000
H 	H 	0.04755 0.04471 0.51214 0.05000
H 	H 	0.05266 0.02380 0.72738 0.05300
H 	H 	0.14334 0.06405 0.70985 0.03800
H 	H 	0.76235 0.63858 0.62131 0.05100
H 	H 	0.27805 0.05340 0.58563 0.05100
H 	H 	0.18778 0.01596 0.59646 0.04800
H 	H 	0.22552 0.18879 0.58250 0.04700
H 	H 	0.31583 0.22643 0.57109 0.05000
Co	Co	0.70089 0.32041 0.96690 1.18500
O 	O 	0.75336 0.31560 0.90227 -0.35200
Co	Co	0.59943 0.32033 0.01710 1.18700
O 	O 	0.63123 0.28531 0.93305 -0.45900
O 	O 	0.65821 0.40249 0.02084 -0.38600
O 	O 	0.69964 0.24319 0.96370 -0.32300
C 	C 	0.70312 0.42611 0.98706 0.30600
O 	O 	0.59095 0.32201 0.90977 -0.34200
C 	C 	0.50917 0.26402 0.07454 0.26100
C 	C 	0.67679 0.32614 0.09996 0.30700
O 	O 	0.54234 0.31883 0.07876 -0.34000
O 	O 	0.52739 0.24035 0.03666 -0.31900
O 	O 	0.72025 0.34114 0.07124 -0.34400
O 	O 	0.64121 0.29644 0.05849 -0.45600
O 	O 	0.71391 0.39603 0.94388 -0.51800
C 	C 	0.73665 0.26336 0.91772 0.26400
C 	C 	0.61948 0.30547 0.88573 0.31200
H 	H 	0.73759 0.41584 0.90193 0.18500
Co	Co	0.70978 0.30214 0.47795 1.18500
O 	O 	0.77055 0.30907 0.41985 -0.35100
Co	Co	0.60438 0.29454 0.52414 1.18800
O 	O 	0.64608 0.27870 0.43196 -0.44800
O 	O 	0.66094 0.37121 0.55544 -0.39600
O 	O 	0.70822 0.22649 0.45111 -0.31900
C 	C 	0.70870 0.40128 0.53077 0.30400
O 	O 	0.60949 0.32213 0.42184 -0.34400
C 	C 	0.51014 0.23144 0.56360 0.26200
C 	C 	0.66736 0.27350 0.60634 0.32300
O 	O 	0.54295 0.28229 0.58561 -0.34100
O 	O 	0.53056 0.21574 0.51660 -0.31200
O 	O 	0.71420 0.29669 0.58600 -0.35200
O 	O 	0.63923 0.25832 0.55534 -0.45600
O 	O 	0.72527 0.38169 0.48001 -0.51900
C 	C 	0.75175 0.25452 0.41802 0.26400
C 	C 	0.64023 0.31020 0.39298 0.30700
H 	H 	0.75237 0.40975 0.44511 0.17900
C 	C 	0.65153 0.28091 0.67624 -0.10300
C 	C 	0.61955 0.23288 0.71908 0.07100
C 	C 	0.60831 0.24113 0.78744 -0.02000
C 	C 	0.62658 0.29677 0.81235 -0.09000
C 	C 	0.65543 0.34430 0.76785 0.06400
C 	C 	0.67041 0.33648 0.70170 -0.01800
H 	H 	0.58554 0.20432 0.82124 0.06300
H 	H 	0.69693 0.37368 0.67032 0.06000
I 	I 	0.58958 0.14771 0.68288 -0.07400
I 	I 	0.67461 0.42781 0.79722 -0.08100
C 	C 	0.66697 0.32223 0.17494 -0.08500
C 	C 	0.69687 0.37048 0.21677 0.06800
C 	C 	0.68885 0.36525 0.28812 -0.02300
C 	C 	0.65060 0.31273 0.31842 -0.08900
C 	C 	0.61998 0.26472 0.27674 0.07300
C 	C 	0.62845 0.26963 0.20531 -0.02200
H 	H 	0.71174 0.40251 0.32011 0.04800
H 	H 	0.60522 0.23245 0.17343 0.06500
I 	I 	0.75180 0.45295 0.17388 -0.08200
I 	I 	0.55974 0.18484 0.31993 -0.06000
N 	N 	0.75244 0.53719 0.62310 -0.07900
N 	N 	0.72417 0.48210 0.60430 -0.05400
C 	C 	0.74186 0.46127 0.55470 0.02400
C 	C 	0.78346 0.23227 0.41281 0.05100
N 	N 	0.78716 0.15177 0.41326 -0.07900
N 	N 	0.76200 0.17509 0.40245 -0.05600
C 	C 	0.45621 0.20730 0.56888 0.05200
N 	N 	0.43848 0.23477 0.60650 -0.05600
N 	N 	0.38967 0.21409 0.60940 -0.08000
C 	C 	0.35720 0.16526 0.57490 0.11500
N 	N 	0.37487 0.13747 0.53777 -0.07800
N 	N 	0.42374 0.15828 0.53471 -0.05500
C 	C 	0.73755 0.48931 0.98651 0.03100
N 	N 	0.71904 0.52229 0.99632 -0.05300
N 	N 	0.74910 0.57904 0.98627 -0.08000
C 	C 	0.76710 0.23974 0.90613 0.04900
N 	N 	0.75100 0.18803 0.93330 -0.05600
C 	C 	0.45499 0.23898 0.08040 0.05200
N 	N 	0.43797 0.27350 0.08952 -0.05600
N 	N 	0.38964 0.25220 0.08270 -0.08000
C 	C 	0.35700 0.19580 0.06629 0.11500
N 	N 	0.37372 0.16090 0.06002 -0.07900
N 	N 	0.42196 0.18217 0.06697 -0.05500
H 	H 	0.79355 0.08585 0.86854 0.05100
H 	H 	0.78841 0.08060 0.49718 0.05300
C 	C 	0.79928 0.57322 0.59280 0.11400
N 	N 	0.78932 0.49682 0.52585 -0.06600
N 	N 	0.78729 0.51491 0.96857 -0.06400
N 	N 	0.77918 0.16705 0.92397 -0.07900
C 	C 	0.80302 0.66312 0.62075 -0.01800
H 	H 	0.81070 0.74370 0.63821 0.04700
C 	C 	0.79854 0.60440 0.96627 0.11500
C 	C 	0.81185 0.69280 0.91711 -0.01800
N 	N 	0.81756 0.55207 0.54445 -0.08200
N 	N 	0.81190 0.26966 0.86879 -0.05700
N 	N 	0.81737 0.57164 0.95867 -0.08100
C 	C 	0.82814 0.63557 0.60790 -0.01100
H 	H 	0.82792 0.77137 0.87517 0.04500
C 	C 	0.82898 0.10308 0.49098 -0.01700
C 	C 	0.83042 0.72275 0.63043 -0.04600
H 	H 	0.82865 0.03653 0.54132 0.04900
C 	C 	0.82424 0.19719 0.88716 0.11400
C 	C 	0.83396 0.11533 0.87080 -0.01800
C 	C 	0.83101 0.66644 0.95013 -0.01100
N 	N 	0.83169 0.26595 0.43130 -0.05800
H 	H 	0.00515 0.10369 0.66344 0.04700
C 	C 	0.83435 0.18483 0.43550 0.11500
C 	C 	0.84300 0.75138 0.90060 -0.04700
H 	H 	0.84644 0.04779 0.86080 0.04700
N 	N 	0.84013 0.24873 0.85952 -0.08000
C 	C 	0.85178 0.07813 0.51625 -0.04500
C 	C 	0.85609 0.17476 0.87868 -0.01000
C 	C 	0.86393 0.09378 0.86601 -0.04500
C 	C 	0.85850 0.15747 0.45934 -0.01000
N 	N 	0.85677 0.24256 0.44260 -0.07900
H 	H 	0.88116 0.82269 0.73043 0.03800
C 	C 	0.88320 0.75551 0.62753 0.01900
C 	C 	0.88091 0.66813 0.60733 -0.01800
C 	C 	0.88169 0.69922 0.96601 -0.01800
H 	H 	0.89039 0.86813 0.98472 0.03900
H 	H 	0.89367 0.00719 0.47131 0.04200
C 	C 	0.89348 0.78405 0.91694 0.01800
H 	H 	0.89689 0.67949 0.99169 0.04900
H 	H 	0.90072 0.64733 0.59875 0.04900
C 	C 	0.90557 0.84722 0.68624 -0.02300
C 	C 	0.90432 0.10714 0.51018 0.01900
C 	C 	0.90829 0.72781 0.61727 -0.04600
C 	C 	0.90862 0.21249 0.88041 -0.01800
C 	C 	0.91216 0.81906 0.62956 -0.00600
C 	C 	0.91276 0.75774 0.94943 -0.04600
C 	C 	0.91113 0.18630 0.45275 -0.01800
C 	C 	0.91629 0.13139 0.86899 0.01800
C 	C 	0.91778 0.02817 0.51346 -0.02600
C 	C 	0.91973 0.88441 0.94359 -0.02400
H 	H 	0.92504 0.92847 0.72982 0.05000
C 	C 	0.92567 0.84622 0.90241 -0.00600
H 	H 	0.92962 0.96121 0.52243 0.04600
C 	C 	0.92830 0.08122 0.53853 -0.00200
H 	H 	0.92616 0.25839 0.88675 0.05000
C 	C 	0.93031 0.90713 0.68587 -0.06800
H 	H 	0.93050 0.07434 0.76450 0.04000
C 	C 	0.93392 0.16122 0.47807 -0.04500
C 	C 	0.93802 0.00183 0.54296 -0.06000
H 	H 	0.93435 0.22801 0.42799 0.05000
C 	C 	0.93857 0.19086 0.87562 -0.04600
C 	C 	0.94438 0.85140 0.57306 -0.02300
C 	C 	0.94755 0.10828 0.86730 -0.00200
H 	H 	0.94792 0.97275 0.96580 0.04900
H 	H 	0.94935 0.83004 0.52880 0.04000
C 	C 	0.95007 0.07863 0.80925 -0.02600
H 	H 	0.94902 0.75265 0.61577 0.04600
C 	C 	0.95231 0.94374 0.93273 -0.07000
C 	C 	0.00152 0.05734 0.86734 0.06800
H 	H 	0.95168 0.78279 0.96243 0.04700
C 	C 	0.96001 0.10830 0.59257 -0.02600
C 	C 	0.96219 0.93951 0.62923 0.07400
C 	C 	0.96393 0.86767 0.84956 -0.02600
H 	H 	0.96859 0.83837 0.81734 0.04000
C 	C 	0.96921 0.02849 0.59826 0.07400
H 	H 	0.96828 0.14922 0.61239 0.04100
C 	C 	0.96952 0.91127 0.57296 -0.06900
H 	H 	0.97096 0.13608 0.97022 0.04200
C 	C 	0.97297 0.11353 0.92498 -0.02700
H 	H 	0.97452 0.18381 0.47281 0.04700
C 	C 	0.97707 0.05353 0.80925 -0.06200
H 	H 	0.97815 0.02998 0.76470 0.05400
H 	H 	0.97900 0.22022 0.87765 0.04700
C 	C 	0.98053 0.08225 0.62194 -0.06200
H 	H 	0.99376 0.93553 0.52869 0.04900
C 	C 	0.99659 0.92702 0.83862 -0.06300
C 	C 	0.99114 0.96547 0.88008 0.07400
C 	C 	0.99975 0.08814 0.92525 -0.05700
N 	N 	0.98971 0.00165 0.63143 -0.13800
