data_crystal

_cell_length_a 37.85214
_cell_length_b 38.59122
_cell_length_c 29.84831
_cell_angle_alpha 89.50499
_cell_angle_beta  90.00000
_cell_angle_gamma 90.00002

_symmetry_space_group_name_	'P 1'
_symmetry_space_group_name_H-M	'P 1'

loop_
_symmetry_equiv_pos_as_xyz
  x,y,z

loop_
_atom_site_label
_atom_site_type_symbol
_atom_site_fract_x
_atom_site_fract_y
_atom_site_fract_z
_atom_site_charge
C 	C 	0.47195 0.56803 0.92734 0.10600
N 	N 	0.45835 0.53681 0.93832 -0.17100
C 	C 	0.42622 0.53533 0.91913 0.10600
C 	C 	0.39912 0.50972 0.93292 -0.06900
C 	C 	0.40846 0.47252 0.93643 0.09200
C 	C 	0.36220 0.52088 0.94048 0.04200
C 	C 	0.35452 0.54555 0.97334 -0.03900
C 	C 	0.31963 0.55604 0.98050 -0.03700
C 	C 	0.29220 0.54194 0.95485 0.04100
C 	C 	0.33473 0.50675 0.91489 -0.04100
N 	N 	0.43834 0.45920 0.91898 -0.12400
C 	C 	0.39261 0.44937 0.96578 -0.05600
C 	C 	0.44100 0.42700 0.93663 0.09400
C 	C 	0.47359 0.40594 0.93376 -0.07300
C 	C 	0.47196 0.36829 0.94245 0.04500
C 	C 	0.45786 0.31032 0.91731 -0.02500
C 	C 	0.47971 0.35510 0.98524 -0.05100
C 	C 	0.47569 0.31972 0.99437 -0.03700
C 	C 	0.46421 0.29729 0.96061 0.04100
N 	N 	0.51945 0.45162 0.93773 -0.17200
C 	C 	0.55393 0.45367 0.92666 0.10300
C 	C 	0.56390 0.42525 0.90157 -0.05900
C 	C 	0.53396 0.40506 0.89706 -0.05800
C 	C 	0.57884 0.47867 0.94738 -0.07200
C 	C 	0.61669 0.46989 0.95152 0.04300
C 	C 	0.67540 0.46779 0.91907 -0.02600
C 	C 	0.68955 0.45897 0.96109 0.04100
C 	C 	0.66700 0.45462 0.99802 -0.03700
C 	C 	0.63067 0.46003 0.99322 -0.05000
N 	N 	0.53324 0.52462 0.95306 -0.12900
C 	C 	0.56676 0.56934 0.97556 -0.05500
C 	C 	0.53348 0.55870 0.96215 0.09200
C 	C 	0.50456 0.58233 0.94798 -0.07400
C 	C 	0.50855 0.62015 0.95358 0.05300
C 	C 	0.51790 0.64112 0.91685 -0.05400
C 	C 	0.52322 0.67665 0.92252 -0.02300
C 	C 	0.51980 0.69137 0.96512 0.02300
C 	C 	0.51098 0.67027 0.00200 0.00200
C 	C 	0.50507 0.63484 0.99615 -0.06900
C 	C 	0.44836 0.58677 0.90121 -0.05800
C 	C 	0.41903 0.56583 0.89599 -0.05600
C 	C 	0.29985 0.51718 0.92214 -0.02700
C 	C 	0.41348 0.42014 0.96591 -0.05300
C 	C 	0.50720 0.42219 0.91954 0.10400
C 	C 	0.58770 0.54008 0.97546 -0.05700
C 	C 	0.56607 0.51314 0.96199 0.09300
C 	C 	0.63914 0.47357 0.91441 -0.04600
H 	H 	0.46552 0.52250 0.96679 0.09900
H 	H 	0.50833 0.46319 0.96593 0.09900
H 	H 	0.53023 0.69271 0.89392 0.05500
H 	H 	0.50872 0.68134 0.03511 0.06000
H 	H 	0.52112 0.62986 0.88398 0.05600
H 	H 	0.49826 0.61872 0.02477 0.06700
H 	H 	0.31390 0.57516 0.00586 0.06900
H 	H 	0.34043 0.48780 0.88932 0.05800
H 	H 	0.27879 0.50617 0.90221 0.06300
H 	H 	0.37556 0.55653 0.99333 0.05200
H 	H 	0.48088 0.30985 0.02781 0.06500
H 	H 	0.48810 0.37236 0.01163 0.05900
C 	C 	0.46134 0.34576 0.90841 -0.04400
H 	H 	0.44942 0.29310 0.89090 0.06400
H 	H 	0.69261 0.47094 0.89032 0.06100
H 	H 	0.62853 0.48131 0.88213 0.05500
H 	H 	0.61348 0.45721 0.02204 0.06000
H 	H 	0.67771 0.44768 0.03054 0.06600
H 	H 	0.44816 0.61469 0.89757 0.06300
H 	H 	0.39285 0.57518 0.88774 0.06600
H 	H 	0.37489 0.45650 0.99264 0.05700
H 	H 	0.41434 0.40126 0.99292 0.06100
H 	H 	0.59064 0.41567 0.89836 0.05600
H 	H 	0.53424 0.37761 0.88995 0.05600
H 	H 	0.57673 0.59556 0.97274 0.05800
H 	H 	0.61621 0.54040 0.97259 0.06600
H 	H 	0.45555 0.35577 0.87519 0.05700
Co	Co	0.40985 0.09078 0.00092 1.19000
Co	Co	0.41202 0.01045 0.98961 1.10500
O 	O 	0.40816 0.14221 0.01451 -0.34900
O 	O 	0.45659 0.12831 0.98320 -0.28800
O 	O 	0.36329 0.07278 0.01969 -0.39200
O 	O 	0.44047 0.03656 0.94467 -0.46900
C 	C 	0.34600 0.05006 0.99550 0.33400
C 	C 	0.43842 0.15302 0.00066 0.34300
O 	O 	0.36326 0.02779 0.97067 -0.39500
O 	O 	0.40562 0.08389 0.93740 -0.40700
C 	C 	0.42525 0.06000 0.91903 0.34300
O 	O 	0.43801 0.07307 0.04992 -0.40200
O 	O 	0.40925 0.02121 0.05450 -0.43700
C 	C 	0.42819 0.04571 0.07320 0.33400
S 	S 	0.46883 0.01083 0.55391 0.01300
C 	C 	0.49027 0.01198 0.60441 -0.01400
C 	C 	0.51775 0.98722 0.60662 -0.01000
S 	S 	0.52084 0.96409 0.55802 0.01400
C 	C 	0.48844 0.97915 0.52469 -0.00500
C 	C 	0.48923 0.97763 0.47550 -0.00600
S 	S 	0.51986 0.95607 0.44604 0.01900
C 	C 	0.52154 0.97616 0.39471 -0.01200
C 	C 	0.49786 0.00443 0.39213 -0.01400
S 	S 	0.47526 0.00967 0.44141 0.01200
C 	C 	0.55131 0.93709 0.26765 0.05100
C 	C 	0.52054 0.92481 0.28863 -0.02400
C 	C 	0.51227 0.93524 0.33207 -0.02700
C 	C 	0.53452 0.95829 0.35468 0.02400
C 	C 	0.56638 0.96880 0.33483 -0.03100
C 	C 	0.57468 0.95836 0.29135 -0.03800
H 	H 	0.50238 0.90828 0.27063 0.08000
H 	H 	0.48757 0.92705 0.34714 0.05500
H 	H 	0.58372 0.98659 0.35209 0.05100
H 	H 	0.59859 0.96782 0.27548 0.06000
C 	C 	0.46420 0.03057 0.25998 0.04300
C 	C 	0.49765 0.04093 0.27493 -0.03900
C 	C 	0.50759 0.03503 0.31944 -0.03200
C 	C 	0.48446 0.01800 0.34905 0.02400
C 	C 	0.45038 0.00911 0.33457 -0.03400
C 	C 	0.44020 0.01564 0.29028 -0.03000
H 	H 	0.51624 0.05276 0.25181 0.05900
H 	H 	0.53387 0.04219 0.33037 0.04900
H 	H 	0.43238 0.99574 0.35701 0.05400
H 	H 	0.41414 0.00798 0.27910 0.06400
C 	C 	0.45347 0.04637 0.73105 0.04800
C 	C 	0.44129 0.01489 0.71370 -0.03300
C 	C 	0.45109 0.00480 0.67064 -0.02900
C 	C 	0.47336 0.02600 0.64473 0.02400
C 	C 	0.48356 0.05852 0.66084 -0.03100
C 	C 	0.47334 0.06885 0.70374 -0.03000
H 	H 	0.42522 0.99773 0.73415 0.07300
H 	H 	0.44292 0.97972 0.65831 0.05400
H 	H 	0.50060 0.07513 0.64092 0.05200
H 	H 	0.48208 0.09362 0.71643 0.06600
C 	C 	0.54699 0.95503 0.73832 0.04800
C 	C 	0.55979 0.98644 0.72081 -0.03000
C 	C 	0.55221 0.99600 0.67658 -0.02400
C 	C 	0.53196 0.97411 0.64947 0.02300
C 	C 	0.52105 0.94172 0.66617 -0.03100
C 	C 	0.52871 0.93214 0.71037 -0.03100
H 	H 	0.57474 0.00386 0.74184 0.07600
H 	H 	0.56084 0.02100 0.66394 0.05400
H 	H 	0.50524 0.92469 0.64561 0.05100
H 	H 	0.51934 0.90751 0.72339 0.06300
Co	Co	0.59761 0.89164 0.00013 1.19300
Co	Co	0.51700 0.90775 0.99831 1.10000
O 	O 	0.64989 0.87986 0.99613 -0.34700
O 	O 	0.64085 0.93392 0.98730 -0.27200
O 	O 	0.57296 0.84767 0.01319 -0.38400
O 	O 	0.53235 0.89614 0.06039 -0.44300
C 	C 	0.54629 0.83722 0.98843 0.33100
C 	C 	0.66416 0.90958 0.98830 0.33200
O 	O 	0.52417 0.85987 0.97085 -0.42500
O 	O 	0.58940 0.91484 0.05633 -0.41200
C 	C 	0.55995 0.91076 0.07896 0.34000
O 	O 	0.58497 0.89594 0.93797 -0.39700
O 	O 	0.54474 0.93674 0.95586 -0.46500
C 	C 	0.56476 0.92183 0.92575 0.34100
Co	Co	0.08293 0.60625 0.96726 1.18400
Co	Co	0.00108 0.59780 0.96731 1.10100
O 	O 	0.13594 0.61344 0.97261 -0.36100
O 	O 	0.12202 0.56026 0.98075 -0.27700
O 	O 	0.06314 0.65263 0.95434 -0.39200
O 	O 	0.01840 0.60837 0.90573 -0.44000
C 	C 	0.03657 0.66526 0.97755 0.34000
C 	C 	0.14731 0.58262 0.98080 0.32700
O 	O 	0.01278 0.64446 0.99532 -0.43200
O 	O 	0.07324 0.58426 0.91064 -0.41000
C 	C 	0.04465 0.59133 0.88747 0.33900
O 	O 	0.06932 0.60272 0.02907 -0.41900
O 	O 	0.02482 0.56641 0.01077 -0.44200
C 	C 	0.04635 0.57903 0.04104 0.34100
S 	S 	0.00131 0.54641 0.52080 0.02300
C 	C 	0.00481 0.52692 0.57235 -0.01300
C 	C 	0.98270 0.49754 0.57595 -0.01400
S 	S 	0.95969 0.49067 0.52735 0.01300
C 	C 	0.97145 0.52302 0.49236 -0.00800
C 	C 	0.97048 0.52063 0.44323 -0.00800
S 	S 	0.95350 0.48694 0.41513 0.01400
C 	C 	0.97460 0.48680 0.36436 -0.01200
C 	C 	0.99982 0.51374 0.36114 -0.01700
S 	S 	0.00116 0.53787 0.40902 0.02400
C 	C 	0.94247 0.44643 0.23887 0.04000
C 	C 	0.93011 0.47890 0.25271 -0.04100
C 	C 	0.93757 0.49064 0.29576 -0.03300
C 	C 	0.95876 0.47071 0.32465 0.02300
C 	C 	0.96918 0.43734 0.31197 -0.03200
C 	C 	0.96051 0.42497 0.26944 -0.02900
H 	H 	0.91558 0.49540 0.22965 0.05200
H 	H 	0.92872 0.51614 0.30573 0.04800
H 	H 	0.98515 0.42157 0.33432 0.05400
H 	H 	0.96907 0.39935 0.25960 0.06900
C 	C 	0.02701 0.54595 0.22860 0.04400
C 	C 	0.04319 0.51665 0.24775 -0.02900
C 	C 	0.03596 0.50728 0.29214 -0.02800
C 	C 	0.01267 0.52723 0.31782 0.03100
C 	C 	0.99751 0.55724 0.29916 -0.03800
C 	C 	0.00426 0.56629 0.25455 -0.02500
H 	H 	0.06073 0.50075 0.22793 0.07700
H 	H 	0.04746 0.48385 0.30610 0.05900
H 	H 	0.97907 0.57251 0.31849 0.05300
H 	H 	0.99134 0.58873 0.23990 0.06100
C 	C 	0.03518 0.56772 0.69820 0.04900
C 	C 	0.00301 0.57783 0.67872 -0.01900
C 	C 	0.99437 0.56706 0.63554 -0.03300
C 	C 	0.01762 0.54572 0.61175 0.02800
C 	C 	0.05073 0.53753 0.63000 -0.03300
C 	C 	0.05947 0.54842 0.67316 -0.03600
H 	H 	0.98411 0.59280 0.69774 0.07800
H 	H 	0.96872 0.57349 0.62167 0.05600
H 	H 	0.06886 0.52111 0.61179 0.05200
H 	H 	0.08446 0.54067 0.68782 0.06000
C 	C 	0.95275 0.46990 0.70912 0.04400
C 	C 	0.98649 0.46138 0.69328 -0.04000
C 	C 	0.99539 0.46786 0.64854 -0.03300
C 	C 	0.97085 0.48355 0.61955 0.02400
C 	C 	0.93661 0.49073 0.63499 -0.03300
C 	C 	0.92754 0.48373 0.67955 -0.03200
H 	H 	0.00604 0.45049 0.71586 0.06200
H 	H 	0.02185 0.46214 0.63692 0.05100
H 	H 	0.91755 0.50315 0.61305 0.05100
H 	H 	0.90131 0.49007 0.69146 0.06200
Co	Co	0.90345 0.40414 0.96690 1.18900
Co	Co	0.90776 0.48355 0.98309 1.10000
O 	O 	0.90100 0.35320 0.95050 -0.33600
O 	O 	0.95007 0.36574 0.98120 -0.27600
O 	O 	0.85703 0.42387 0.95062 -0.38400
O 	O 	0.93587 0.45526 0.02625 -0.44600
C 	C 	0.84052 0.44560 0.97717 0.33200
C 	C 	0.93142 0.34175 0.96292 0.32500
O 	O 	0.85862 0.46724 0.00204 -0.40500
O 	O 	0.89999 0.40849 0.03083 -0.39100
C 	C 	0.92025 0.43119 0.05050 0.33700
O 	O 	0.93121 0.42315 0.91838 -0.40500
O 	O 	0.90375 0.47573 0.91755 -0.45400
C 	C 	0.92128 0.45125 0.89676 0.33900
C 	C 	0.98774 0.93317 0.06755 0.10300
N 	N 	0.97138 0.96318 0.05729 -0.17200
C 	C 	0.93996 0.96248 0.07841 0.10600
C 	C 	0.90996 0.98444 0.06394 -0.07100
C 	C 	0.91514 0.02212 0.05688 0.09200
C 	C 	0.87495 0.96876 0.05559 0.04500
C 	C 	0.87089 0.94401 0.02181 -0.04900
C 	C 	0.83728 0.93153 0.01114 -0.01700
C 	C 	0.80756 0.94361 0.03431 0.03500
C 	C 	0.84532 0.98009 0.07958 -0.04500
N 	N 	0.94458 0.03887 0.07007 -0.12500
C 	C 	0.89632 0.04169 0.02599 -0.05900
C 	C 	0.94399 0.06957 0.04818 0.09100
C 	C 	0.97505 0.09272 0.04518 -0.07200
C 	C 	0.97008 0.12933 0.03199 0.04900
C 	C 	0.95224 0.18781 0.05066 -0.02900
C 	C 	0.97674 0.14002 0.98779 -0.04900
C 	C 	0.97058 0.17440 0.97483 -0.04100
C 	C 	0.95800 0.19834 0.00614 0.05800
N 	N 	0.02379 0.04976 0.04517 -0.17200
C 	C 	0.05906 0.05165 0.05089 0.10600
C 	C 	0.06835 0.08347 0.06857 -0.05800
C 	C 	0.03724 0.10166 0.07389 -0.05600
C 	C 	0.08410 0.02781 0.02846 -0.07600
C 	C 	0.12164 0.03737 0.02352 0.05400
C 	C 	0.18059 0.04015 0.05512 -0.03000
C 	C 	0.19459 0.04665 0.01236 0.04500
C 	C 	0.17185 0.04956 0.97539 -0.03000
C 	C 	0.13544 0.04523 0.98104 -0.05200
N 	N 	0.05362 0.97298 0.04859 -0.12600
C 	C 	0.06069 0.94376 0.98415 -0.06400
C 	C 	0.04616 0.94347 0.02669 0.09700
C 	C 	0.01773 0.91970 0.04101 -0.06700
C 	C 	0.02052 0.88232 0.03096 0.03600
C 	C 	0.05106 0.86386 0.04307 -0.03400
C 	C 	0.05394 0.82866 0.03323 -0.03100
C 	C 	0.02610 0.81149 0.01178 0.05400
C 	C 	0.99573 0.82999 0.99917 -0.05700
C 	C 	0.99302 0.86533 0.00852 -0.02200
C 	C 	0.96681 0.91312 0.09565 -0.05600
C 	C 	0.93619 0.93185 0.10254 -0.05700
C 	C 	0.81174 0.96760 0.06893 -0.02400
C 	C 	0.91482 0.07213 0.02046 -0.04300
C 	C 	0.01039 0.08016 0.05913 0.10600
C 	C 	0.07849 0.97474 0.97998 -0.06500
C 	C 	0.07367 0.99168 0.02007 0.10300
C 	C 	0.14428 0.03530 0.06063 -0.04600
H 	H 	0.97657 0.97785 0.02843 0.09500
H 	H 	0.01139 0.03364 0.02202 0.09700
H 	H 	0.07759 0.81461 0.04275 0.06700
H 	H 	0.97419 0.81694 0.98237 0.06000
H 	H 	0.07248 0.87677 0.06028 0.05700
H 	H 	0.96954 0.87947 0.99850 0.03900
H 	H 	0.83425 0.91296 0.98439 0.05200
H 	H 	0.84825 0.99902 0.10591 0.05900
H 	H 	0.78889 0.97700 0.08701 0.06200
H 	H 	0.89365 0.93507 0.00317 0.05300
H 	H 	0.97533 0.18237 0.94046 0.06100
H 	H 	0.98624 0.12160 0.96338 0.05100
C 	C 	0.95792 0.15333 0.06342 -0.04100
H 	H 	0.94297 0.20624 0.07519 0.06800
H 	H 	0.19795 0.03794 0.08386 0.05900
H 	H 	0.13381 0.02918 0.09354 0.05700
H 	H 	0.11809 0.04705 0.95225 0.05300
H 	H 	0.18245 0.05450 0.94223 0.06500
H 	H 	0.96895 0.88530 0.09975 0.06500
H 	H 	0.91116 0.92052 0.11231 0.06400
H 	H 	0.87832 0.03116 0.00141 0.06000
H 	H 	0.91313 0.08867 0.99106 0.05400
H 	H 	0.09409 0.09543 0.06527 0.06400
H 	H 	0.03563 0.12963 0.07547 0.06000
H 	H 	0.05086 0.92884 0.95623 0.05500
H 	H 	0.08482 0.98729 0.94842 0.05500
H 	H 	0.95289 0.14527 0.09768 0.05800
C 	C 	0.93828 0.30454 0.97103 -0.09000
C 	C 	0.97306 0.29137 0.97083 0.19500
C 	C 	0.97920 0.25660 0.98206 -0.08800
C 	C 	0.95090 0.23449 0.99236 -0.01700
C 	C 	0.91604 0.24714 0.99020 0.14600
C 	C 	0.90990 0.28206 0.97997 -0.02800
H 	H 	0.00601 0.24675 0.98274 0.08800
H 	H 	0.88304 0.29178 0.97944 0.09600
Cl	Cl	0.00903 0.31755 0.95442 -0.27900
Cl	Cl	0.87977 0.21936 0.99935 -0.30200
C 	C 	0.94418 0.46527 0.75697 -0.00700
C 	C 	0.94484 0.49365 0.78626 0.14100
C 	C 	0.93845 0.48854 0.83196 -0.01800
C 	C 	0.92965 0.45551 0.84866 -0.10900
C 	C 	0.92740 0.42733 0.81882 0.20600
C 	C 	0.93552 0.43225 0.77346 -0.09300
H 	H 	0.93989 0.51039 0.85447 0.06100
H 	H 	0.93432 0.41049 0.75079 0.09000
Cl	Cl	0.95214 0.53598 0.76583 -0.33100
Cl	Cl	0.91188 0.38643 0.83678 -0.29900
C 	C 	0.92595 0.42956 0.09926 -0.10700
C 	C 	0.89708 0.42924 0.12912 0.19700
C 	C 	0.90298 0.43189 0.17523 -0.09400
C 	C 	0.93740 0.43561 0.19195 -0.00900
C 	C 	0.96635 0.43385 0.16229 0.13900
C 	C 	0.96048 0.43093 0.11620 -0.02300
H 	H 	0.88066 0.43275 0.19795 0.08700
H 	H 	0.98279 0.43038 0.09345 0.09800
Cl	Cl	0.85325 0.42807 0.10920 -0.29700
Cl	Cl	0.01012 0.43608 0.18224 -0.31000
C 	C 	0.03447 0.70274 0.98592 -0.12300
C 	C 	0.03682 0.72697 0.95041 0.20600
C 	C 	0.03419 0.76245 0.95922 -0.10600
C 	C 	0.02858 0.77402 0.00306 0.00100
C 	C 	0.02550 0.74978 0.03837 0.13400
C 	C 	0.02872 0.71437 0.02973 -0.01200
H 	H 	0.03622 0.78104 0.93191 0.08900
H 	H 	0.02661 0.69584 0.05711 0.07700
Cl	Cl	0.04112 0.71328 0.89448 -0.30500
Cl	Cl	0.01668 0.76338 0.09345 -0.30300
C 	C 	0.04147 0.57371 0.74630 0.00000
C 	C 	0.04540 0.60757 0.76283 0.14300
C 	C 	0.04660 0.61307 0.80908 -0.01800
C 	C 	0.04434 0.58500 0.83907 -0.10900
C 	C 	0.04154 0.55106 0.82256 0.20400
C 	C 	0.04054 0.54553 0.77633 -0.08300
H 	H 	0.04929 0.63919 0.82171 0.09300
H 	H 	0.03748 0.51943 0.76376 0.09200
Cl	Cl	0.04952 0.64322 0.72595 -0.29300
Cl	Cl	0.03736 0.51540 0.85942 -0.32500
C 	C 	0.04248 0.56934 0.08906 -0.11100
C 	C 	0.02573 0.53814 0.10258 0.20200
C 	C 	0.01949 0.53168 0.14808 -0.09800
C 	C 	0.03246 0.55426 0.18071 -0.00200
C 	C 	0.05090 0.58431 0.16750 0.13900
C 	C 	0.05516 0.59208 0.12198 -0.02100
H 	H 	0.00500 0.50872 0.15815 0.10000
H 	H 	0.06838 0.61587 0.11223 0.08700
Cl	Cl	0.01533 0.50542 0.06387 -0.31700
Cl	Cl	0.06959 0.61207 0.20762 -0.29600
C 	C 	0.77186 0.93301 0.02034 0.00700
C 	C 	0.75457 0.90518 0.04177 0.13700
C 	C 	0.71974 0.89702 0.03019 -0.01300
C 	C 	0.70183 0.91657 0.99737 -0.10400
C 	C 	0.71968 0.94370 0.97488 0.20500
C 	C 	0.75448 0.95180 0.98657 -0.10400
H 	H 	0.70635 0.87599 0.04746 0.08800
H 	H 	0.76793 0.97297 0.96963 0.09000
Cl	Cl	0.77614 0.88059 0.08356 -0.29800
Cl	Cl	0.69919 0.96726 0.93126 -0.26900
C 	C 	0.55150 0.94675 0.78634 -0.00100
C 	C 	0.52247 0.94767 0.81583 0.14400
C 	C 	0.52720 0.93977 0.86122 -0.02100
C 	C 	0.56078 0.93106 0.87785 -0.11100
C 	C 	0.59002 0.93087 0.84841 0.20700
C 	C 	0.58514 0.93850 0.80289 -0.09200
H 	H 	0.50462 0.94007 0.88354 0.04800
H 	H 	0.60762 0.93822 0.78038 0.09200
Cl	Cl	0.48001 0.95899 0.79645 -0.32300
Cl	Cl	0.63311 0.92275 0.86813 -0.27100
C 	C 	0.55956 0.91798 0.12711 -0.11300
C 	C 	0.55273 0.95164 0.14263 0.20600
C 	C 	0.55193 0.95800 0.18867 -0.08500
C 	C 	0.55699 0.93080 0.21951 -0.00000
C 	C 	0.56476 0.89732 0.20394 0.14000
C 	C 	0.56592 0.89104 0.15786 -0.01600
H 	H 	0.54605 0.98385 0.20053 0.09300
H 	H 	0.57166 0.86519 0.14595 0.07900
Cl	Cl	0.54386 0.98582 0.10477 -0.33700
Cl	Cl	0.57363 0.86314 0.24180 -0.30000
C 	C 	0.30719 0.04869 0.99782 -0.11300
C 	C 	0.28955 0.01731 0.00751 0.21700
C 	C 	0.25271 0.01682 0.01085 -0.10200
C 	C 	0.23320 0.04750 0.00586 0.00700
C 	C 	0.25079 0.07889 0.99653 0.13100
C 	C 	0.28761 0.07931 0.99228 -0.01200
H 	H 	0.23926 0.99266 0.01834 0.09200
H 	H 	0.30104 0.10353 0.98506 0.08100
Cl	Cl	0.31330 0.97888 0.01851 -0.33800
Cl	Cl	0.22715 0.11805 0.99154 -0.29900
C 	C 	0.43264 0.06097 0.87059 -0.11300
C 	C 	0.40489 0.06288 0.83912 0.20200
C 	C 	0.41226 0.06015 0.79333 -0.09400
C 	C 	0.44700 0.05478 0.77854 -0.00300
C 	C 	0.47482 0.05387 0.80994 0.14900
C 	C 	0.46753 0.05714 0.85562 -0.02100
H 	H 	0.39079 0.06090 0.76931 0.08800
H 	H 	0.48898 0.05588 0.87964 0.08200
Cl	Cl	0.36054 0.06620 0.85659 -0.30600
Cl	Cl	0.51879 0.04707 0.79280 -0.30800
C 	C 	0.45475 0.03435 0.21227 -0.00700
C 	C 	0.45503 0.00548 0.18377 0.14200
C 	C 	0.44746 0.00975 0.13822 -0.01900
C 	C 	0.43806 0.04242 0.12092 -0.10500
C 	C 	0.43650 0.07115 0.14993 0.20600
C 	C 	0.44560 0.06705 0.19512 -0.09200
H 	H 	0.44846 0.98752 0.11631 0.06500
H 	H 	0.44480 0.08921 0.21717 0.09000
Cl	Cl	0.46353 0.96358 0.20499 -0.32600
Cl	Cl	0.42074 0.11175 0.13120 -0.29800
C 	C 	0.45753 0.26042 0.97103 -0.00800
C 	C 	0.42276 0.24753 0.97304 0.14100
C 	C 	0.41686 0.21243 0.98229 -0.02300
C 	C 	0.44536 0.18996 0.99060 -0.10400
C 	C 	0.48015 0.20314 0.98999 0.19500
C 	C 	0.48603 0.23814 0.97967 -0.09100
H 	H 	0.39003 0.20264 0.98307 0.08800
H 	H 	0.51280 0.24811 0.97886 0.08700
Cl	Cl	0.38626 0.27530 0.96539 -0.30200
Cl	Cl	0.51645 0.17676 0.00454 -0.27600
C 	C 	0.25544 0.55314 0.96216 0.00100
C 	C 	0.24029 0.57923 0.93510 0.13700
C 	C 	0.20505 0.58889 0.94163 -0.01900
C 	C 	0.18465 0.57272 0.97508 -0.11000
C 	C 	0.20007 0.54706 0.00272 0.21900
C 	C 	0.23528 0.53731 0.99600 -0.11300
H 	H 	0.19341 0.60871 0.92033 0.08400
H 	H 	0.24701 0.51745 0.01716 0.10000
Cl	Cl	0.26522 0.60005 0.89293 -0.30200
Cl	Cl	0.17609 0.52790 0.04708 -0.28300
C 	C 	0.72811 0.45569 0.96680 -0.00600
C 	C 	0.74982 0.48532 0.96663 0.13900
C 	C 	0.78646 0.48174 0.97031 -0.02300
C 	C 	0.80178 0.44878 0.97483 -0.10300
C 	C 	0.77993 0.41920 0.97677 0.20600
C 	C 	0.74329 0.42278 0.97229 -0.09400
H 	H 	0.80307 0.50461 0.96931 0.06300
H 	H 	0.72659 0.39997 0.97329 0.08900
Cl	Cl	0.73137 0.52716 0.96267 -0.31800
Cl	Cl	0.79785 0.37775 0.98714 -0.29400
C 	C 	0.52645 0.72874 0.97130 0.00000
C 	C 	0.49858 0.75150 0.98163 0.13500
C 	C 	0.50544 0.78678 0.98763 -0.02200
C 	C 	0.53983 0.79985 0.98254 -0.10900
C 	C 	0.56755 0.77719 0.97092 0.20300
C 	C 	0.56080 0.74177 0.96602 -0.09800
H 	H 	0.48395 0.80410 0.99612 0.06500
H 	H 	0.58223 0.72440 0.95745 0.08900
Cl	Cl	0.45477 0.73638 0.98566 -0.31200
Cl	Cl	0.61034 0.79302 0.95957 -0.30500
