data_crystal

_cell_length_a 23.36136
_cell_length_b 24.03909
_cell_length_c 34.60301
_cell_angle_alpha 95.51518
_cell_angle_beta  95.51006
_cell_angle_gamma 125.81176

_symmetry_space_group_name_	'P 1'
_symmetry_space_group_name_H-M	'P 1'

loop_
_symmetry_equiv_pos_as_xyz
  x,y,z

loop_
_atom_site_label
_atom_site_type_symbol
_atom_site_fract_x
_atom_site_fract_y
_atom_site_fract_z
_atom_site_charge
N 	N 	0.01640 0.03917 0.99964 -0.13300
C 	C 	0.03925 0.99979 0.99064 0.09800
N 	N 	0.01698 0.94366 0.00794 -0.12800
C 	C 	0.04531 0.02698 0.44544 0.10100
C 	C 	0.21670 0.17957 0.49546 0.07700
C 	C 	0.21698 0.13014 0.51334 0.02500
N 	N 	0.15377 0.14879 0.47060 -0.16200
C 	C 	0.11444 0.08011 0.47205 0.06000
C 	C 	0.15164 0.06616 0.49809 -0.07100
H 	H 	0.28116 0.27313 0.47078 0.05800
H 	H 	0.14194 0.01602 0.49671 0.05900
H 	H 	0.14628 0.16911 0.44686 0.09300
C 	C 	0.16489 0.01863 0.93208 0.07800
C 	C 	0.17450 0.08101 0.92966 0.02500
N 	N 	0.11037 0.97912 0.95092 -0.16200
C 	C 	0.08517 0.01581 0.96073 0.06000
C 	C 	0.12384 0.07954 0.94821 -0.07100
H 	H 	0.12977 0.12562 0.96177 0.05800
H 	H 	0.10448 0.94035 0.96545 0.09300
N 	N 	0.02142 0.95947 0.43731 -0.13000
C 	C 	0.28128 0.24040 0.49019 -0.07900
C 	C 	0.28143 0.13948 0.52592 -0.08500
H 	H 	0.28125 0.09656 0.53323 0.06000
C 	C 	0.22276 0.01499 0.93234 -0.07900
C 	C 	0.24259 0.14208 0.92885 -0.08500
H 	H 	0.21890 0.97061 0.94043 0.05900
C 	C 	0.34584 0.25436 0.50830 0.01600
C 	C 	0.34616 0.20464 0.52576 0.08400
C 	C 	0.28764 0.07312 0.92527 0.01600
H 	H 	0.25334 0.19281 0.93434 0.05900
C 	C 	0.29795 0.13612 0.92413 0.08300
N 	N 	0.00298 0.04461 0.43112 -0.12800
H 	H 	0.01254 0.83904 0.03036 0.09600
C 	C 	0.41034 0.29453 0.49535 -0.04300
N 	N 	0.40843 0.21356 0.52464 -0.15000
H 	H 	0.41892 0.32278 0.47133 0.05400
H 	H 	0.41508 0.17433 0.52589 0.09500
N 	N 	0.36805 0.18995 0.93598 -0.15100
C 	C 	0.35442 0.08949 0.93878 -0.04400
H 	H 	0.36290 0.05681 0.95398 0.05700
C 	C 	0.44740 0.26802 0.50625 0.01300
H 	H 	0.38716 0.24086 0.94780 0.09200
C 	C 	0.40258 0.16192 0.94488 0.00700
H 	H 	0.01982 0.84363 0.43732 0.06100
C 	C 	0.51194 0.28499 0.49178 0.26700
C 	C 	0.47485 0.20292 0.96963 0.25600
O 	O 	0.52897 0.16554 0.78783 -0.10000
O 	O 	0.51143 0.22580 0.83273 -0.11000
O 	O 	0.47945 0.21471 0.30743 -0.10700
O 	O 	0.49906 0.17085 0.98513 -0.35100
O 	O 	0.51974 0.29926 0.45576 -0.37200
O 	O 	0.51704 0.27132 0.97377 -0.37400
O 	O 	0.55508 0.27599 0.51280 -0.36900
N 	N 	0.54980 0.22480 0.80819 -0.02300
N 	N 	0.52613 0.20426 0.32002 -0.02400
O 	O 	0.50829 0.06643 0.17508 -0.09900
O 	O 	0.51323 0.16508 0.34634 -0.11500
H 	H 	0.53070 0.19402 0.24311 0.08300
H 	H 	0.58260 0.26075 0.73855 0.07900
H 	H 	0.57184 0.21665 0.92439 0.18500
O 	O 	0.56850 0.27337 0.06787 -0.36500
O 	O 	0.62596 0.44099 0.62897 -0.09800
H 	H 	0.56441 0.13659 0.11248 0.06700
H 	H 	0.60762 0.23754 0.45007 0.17700
C 	C 	0.62193 0.30100 0.76356 -0.07100
C 	C 	0.61274 0.28898 0.80209 0.11900
N 	N 	0.57543 0.11949 0.18711 -0.01600
C 	C 	0.58299 0.22112 0.26193 -0.07100
Cu	Cu	0.59368 0.33587 0.02847 0.90300
Cu	Cu	0.60572 0.33293 0.43039 0.90000
C 	C 	0.58932 0.23214 0.30312 0.11600
Cu	Cu	0.60566 0.21558 0.99702 0.92800
O 	O 	0.61698 0.24170 0.94412 -0.63900
C 	C 	0.59327 0.18508 0.13374 -0.00100
C 	C 	0.60299 0.24750 0.07843 0.30600
O 	O 	0.60894 0.20868 0.05187 -0.35200
C 	C 	0.60285 0.18423 0.17427 0.05700
O 	O 	0.63906 0.28919 0.45700 -0.63900
H 	H 	0.66721 0.43464 0.70678 0.08200
C 	C 	0.61947 0.24807 0.12069 -0.08700
O 	O 	0.61851 0.11227 0.20885 -0.08700
Cu	Cu	0.65585 0.32613 0.51179 0.89900
O 	O 	0.64381 0.43407 0.01994 -0.37000
O 	O 	0.63973 0.32886 0.37999 -0.36700
O 	O 	0.67236 0.35274 0.56963 -0.36300
O 	O 	0.66413 0.26392 0.87562 -0.39600
C 	C 	0.66598 0.33978 0.83454 -0.09000
N 	N 	0.68694 0.44996 0.63278 -0.02200
C 	C 	0.63867 0.24698 0.20204 0.02600
C 	C 	0.64414 0.24674 0.24494 0.02800
Cu	Cu	0.66547 0.34445 0.95854 0.89800
C 	C 	0.66855 0.32075 0.87356 0.30800
O 	O 	0.65323 0.16836 0.99613 -0.35900
C 	C 	0.68322 0.36354 0.75717 0.02300
C 	C 	0.68637 0.40671 0.69416 -0.07400
C 	C 	0.65783 0.27071 0.32760 -0.08700
O 	O 	0.66099 0.32442 0.01095 -0.63400
C 	C 	0.66775 0.29634 0.36997 0.31000
C 	C 	0.65757 0.31107 0.14847 0.11400
C 	C 	0.69774 0.40860 0.65506 0.12300
C 	C 	0.66628 0.31006 0.18892 -0.06900
O 	O 	0.68682 0.36624 0.90583 -0.38200
H 	H 	0.69105 0.57197 0.04366 0.09600
O 	O 	0.69241 0.43433 0.46586 -0.37700
C 	C 	0.69993 0.36910 0.71699 0.02800
O 	O 	0.67201 0.41719 0.14894 -0.11100
H 	H 	0.69237 0.52290 0.41225 0.04600
Cu	Cu	0.69351 0.24671 0.92348 0.87700
N 	N 	0.68797 0.37630 0.13565 -0.02600
H 	H 	0.69445 0.35844 0.21022 0.08100
H 	H 	0.69289 0.08832 0.02903 0.06100
C 	C 	0.70548 0.47078 0.00746 0.26600
C 	C 	0.72140 0.37110 0.63838 -0.09400
O 	O 	0.70946 0.23011 0.71159 -0.10700
H 	H 	0.70843 0.35176 0.02883 0.17900
C 	C 	0.72500 0.36448 0.59602 0.30500
C 	C 	0.72316 0.40523 0.82821 -0.00400
O 	O 	0.73966 0.49984 0.61868 -0.09700
O 	O 	0.71691 0.44384 0.97674 -0.36800
C 	C 	0.71898 0.20080 0.98926 0.26600
O 	O 	0.71781 0.30160 0.39507 -0.35800
C 	C 	0.72656 0.33428 0.70088 0.05400
C 	C 	0.71166 0.27965 0.26946 0.05600
H 	H 	0.73702 0.12108 0.48007 0.09000
C 	C 	0.73221 0.41725 0.78966 0.05900
C 	C 	0.71821 0.29173 0.31063 -0.00300
C 	C 	0.73706 0.33542 0.66175 -0.00400
O 	O 	0.74702 0.24264 0.49816 -0.42700
N 	N 	0.74139 0.58195 0.04675 -0.15100
C 	C 	0.73198 0.10946 0.00980 -0.03800
N 	N 	0.74150 0.29635 0.72397 -0.01600
O 	O 	0.74599 0.25454 0.97152 -0.42600
Cu	Cu	0.74657 0.34357 0.44989 0.93000
O 	O 	0.73550 0.39703 0.11297 -0.12600
H 	H 	0.74193 0.65170 0.38676 0.05900
H 	H 	0.75379 0.02194 0.46133 0.05900
O 	O 	0.75827 0.37144 0.50740 -0.64100
C 	C 	0.74928 0.55842 0.42471 -0.04200
C 	C 	0.75478 0.47087 0.45454 0.25800
H 	H 	0.76315 0.44527 0.85311 0.06200
H 	H 	0.75588 0.30708 0.64922 0.04600
C 	C 	0.75731 0.54583 0.02382 0.01100
H 	H 	0.76377 0.70376 0.07556 0.06100
C 	C 	0.75806 0.17081 0.99565 -0.00600
Cu	Cu	0.77455 0.31755 0.53862 0.87200
H 	H 	0.75580 0.02216 0.04540 0.06100
O 	O 	0.78122 0.37144 0.58541 -0.40900
H 	H 	0.01057 0.14873 0.00250 0.06100
H 	H 	0.77075 0.31977 0.32932 0.06700
N 	N 	0.78856 0.15391 0.47371 -0.15200
C 	C 	0.78518 0.25460 0.47042 0.26700
N 	N 	0.77407 0.30279 0.25260 -0.01600
O 	O 	0.77441 0.25898 0.22762 -0.08800
O 	O 	0.78144 0.43950 0.44056 -0.35100
H 	H 	0.79032 0.42236 0.51790 0.18100
N 	N 	0.79250 0.48321 0.78365 -0.01700
O 	O 	0.79941 0.53991 0.79638 -0.09900
C 	C 	0.78391 0.09874 0.00798 0.01800
C 	C 	0.78690 0.54280 0.44937 0.00700
C 	C 	0.79380 0.06087 0.44650 -0.08500
O 	O 	0.80334 0.30637 0.45204 -0.36300
O 	O 	0.79031 0.32887 0.75607 -0.09500
C 	C 	0.79354 0.66108 0.39311 -0.07800
C 	C 	0.81697 0.21753 0.46456 -0.00600
C 	C 	0.80436 0.64401 0.06284 0.08400
C 	C 	0.79830 0.06463 0.03345 -0.08100
C 	C 	0.79987 0.61224 0.40775 0.01400
C 	C 	0.81063 0.70563 0.07271 -0.08400
H 	H 	0.81387 0.95791 0.43830 0.05800
C 	C 	0.82380 0.13164 0.45787 0.08000
C 	C 	0.81866 0.04215 0.41619 0.02600
N 	N 	0.82190 0.19670 0.98469 -0.15200
H 	H 	0.81853 0.78551 0.38809 0.09400
C 	C 	0.82901 0.99112 0.41638 -0.07100
C 	C 	0.83100 0.58343 0.02632 -0.04500
O 	O 	0.84342 0.48732 0.76849 -0.09100
O 	O 	0.83172 0.36684 0.26363 -0.10000
C 	C 	0.83837 0.15343 0.99266 0.07100
H 	H 	0.84635 0.83705 0.06541 0.05900
H 	H 	0.84537 0.98752 0.04802 0.09400
C 	C 	0.85720 0.72489 0.38977 0.07700
N 	N 	0.85834 0.58874 0.45005 -0.15200
H 	H 	0.85688 0.57393 0.00506 0.05600
H 	H 	0.85912 0.24856 0.98177 0.08700
C 	C 	0.86107 0.64646 0.05107 0.01700
N 	N 	0.86190 0.78318 0.38856 -0.16200
C 	C 	0.86610 0.62988 0.42417 0.08600
C 	C 	0.87074 0.23651 0.44280 -0.04300
C 	C 	0.87092 0.09244 0.39750 0.07900
C 	C 	0.86898 0.08533 0.04171 0.08000
C 	C 	0.87522 0.18151 0.43892 0.01300
C 	C 	0.87832 0.76960 0.07545 0.02500
H 	H 	0.88704 0.27308 0.42277 0.05900
N 	N 	0.88418 0.04035 0.04761 -0.16200
C 	C 	0.88771 0.01290 0.39832 0.06100
C 	C 	0.88889 0.83109 0.07000 -0.07000
H 	H 	0.89695 0.58172 0.46013 0.09200
C 	C 	0.89760 0.16266 0.40742 -0.07900
C 	C 	0.97114 0.02236 0.02571 0.10200
C 	C 	0.97196 0.92673 0.03410 0.10000
N 	N 	0.94902 0.96612 0.04292 -0.12900
C 	C 	0.93629 0.99487 0.40952 0.09900
C 	C 	0.95506 0.90967 0.41512 0.09900
N 	N 	0.91226 0.92741 0.40169 -0.12800
C 	C 	0.92929 0.69710 0.42603 -0.08600
C 	C 	0.92408 0.74215 0.40560 0.02700
C 	C 	0.93107 0.83750 0.40368 0.06100
C 	C 	0.97134 0.81427 0.41488 -0.07300
H 	H 	0.97940 0.71483 0.44429 0.06100
N 	N 	0.91201 0.07385 0.38637 -0.16200
H 	H 	0.93751 0.20178 0.39264 0.06000
H 	H 	0.96461 0.10940 0.38201 0.09300
C 	C 	0.93434 0.77188 0.06271 0.07900
C 	C 	0.92490 0.70999 0.04798 -0.07900
N 	N 	0.97874 0.83211 0.05018 -0.16300
C 	C 	0.95147 0.86831 0.05457 0.06100
H 	H 	0.96343 0.71114 0.03227 0.05900
C 	C 	0.90921 0.17529 0.00168 -0.07600
C 	C 	0.92364 0.14072 0.02675 0.02200
C 	C 	0.94783 0.06620 0.03622 0.06000
C 	C 	0.97402 0.12857 0.02316 -0.07100
H 	H 	0.95162 0.21776 0.98967 0.05400
