data_crystal

_cell_length_a 18.71757
_cell_length_b 18.79900
_cell_length_c 34.94910
_cell_angle_alpha 95.40493
_cell_angle_beta  95.40513
_cell_angle_gamma 126.40964

_symmetry_space_group_name_	'P 1'
_symmetry_space_group_name_H-M	'P 1'

loop_
_symmetry_equiv_pos_as_xyz
  x,y,z

loop_
_atom_site_label
_atom_site_type_symbol
_atom_site_fract_x
_atom_site_fract_y
_atom_site_fract_z
_atom_site_charge
C 	C 	0.91548 0.99293 0.95885 0.20500
C 	C 	0.87005 0.90073 0.95928 -0.11600
C 	C 	0.91839 0.86516 0.96003 0.22700
C 	C 	0.01152 0.92181 0.96065 -0.13800
C 	C 	0.05657 0.01327 0.96024 0.23600
C 	C 	0.00864 0.04871 0.95909 -0.11600
H 	H 	0.79814 0.85740 0.95941 0.13800
H 	H 	0.04911 0.89480 0.96180 0.13500
H 	H 	0.04408 0.11995 0.95927 0.13500
C 	C 	0.95148 0.05319 0.50469 0.24600
C 	C 	0.04417 0.09881 0.50463 -0.13600
C 	C 	0.08058 0.05142 0.50477 0.24400
C 	C 	0.02428 0.95893 0.50478 -0.15000
C 	C 	0.93228 0.91367 0.50500 0.24400
C 	C 	0.89594 0.96070 0.50510 -0.14700
H 	H 	0.08733 0.17026 0.50414 0.14500
H 	H 	0.05202 0.92205 0.50435 0.13800
H 	H 	0.82429 0.92515 0.50476 0.14100
Cu	Cu	0.76003 0.33346 0.95772 0.93500
Cu	Cu	0.75310 0.26831 0.04198 0.90500
Cu	Cu	0.61856 0.29085 0.00822 0.91400
Cu	Cu	0.59486 0.33235 0.92919 0.92100
C 	C 	0.69213 0.30110 0.87551 0.31200
O 	O 	0.81560 0.46508 0.95626 -0.32200
C 	C 	0.67772 0.31974 0.09427 0.30900
O 	O 	0.61970 0.26274 0.95405 -0.63600
O 	O 	0.75078 0.35020 0.01341 -0.63100
O 	O 	0.81876 0.27260 0.96185 -0.32900
O 	O 	0.72182 0.17962 0.99907 -0.39700
O 	O 	0.65812 0.34379 0.88454 -0.32600
O 	O 	0.48898 0.22559 0.99968 -0.34200
C 	C 	0.44028 0.22658 0.97009 0.40200
C 	C 	0.77674 0.50068 0.96841 0.38600
O 	O 	0.69353 0.44800 0.97417 -0.36300
O 	O 	0.47819 0.28453 0.94631 -0.34000
O 	O 	0.74533 0.29904 0.90235 -0.31400
C 	C 	0.77998 0.19804 0.97616 0.39200
O 	O 	0.61490 0.30036 0.06494 -0.32600
O 	O 	0.75086 0.32904 0.08796 -0.37400
H 	H 	0.57957 0.19766 0.94264 0.20000
H 	H 	0.78957 0.41333 0.02762 0.21000
Cu	Cu	0.61456 0.21135 0.50699 0.93700
Cu	Cu	0.67540 0.22019 0.42152 0.90400
Cu	Cu	0.65813 0.35563 0.45878 0.91100
Cu	Cu	0.62069 0.37709 0.53891 0.92000
C 	C 	0.65118 0.27537 0.58986 0.31100
O 	O 	0.48383 0.15813 0.51002 -0.32200
C 	C 	0.62027 0.29792 0.37222 0.30900
O 	O 	0.68795 0.35160 0.51221 -0.63500
O 	O 	0.59611 0.22341 0.45196 -0.63500
O 	O 	0.67205 0.15017 0.50018 -0.32700
O 	O 	0.76548 0.24719 0.46303 -0.39100
O 	O 	0.60966 0.31136 0.58247 -0.32500
O 	O 	0.72603 0.48489 0.46871 -0.34100
C 	C 	0.72467 0.53304 0.49832 0.39900
C 	C 	0.44892 0.19820 0.49892 0.38900
O 	O 	0.50242 0.28189 0.49425 -0.36200
O 	O 	0.66998 0.49523 0.52346 -0.33800
O 	O 	0.65109 0.22289 0.56183 -0.31300
C 	C 	0.74650 0.18850 0.48562 0.38900
O 	O 	0.64738 0.36200 0.40245 -0.33500
O 	O 	0.61324 0.22533 0.37679 -0.36500
H 	H 	0.75353 0.39027 0.52311 0.20000
H 	H 	0.53237 0.18629 0.43827 0.21100
C 	C 	0.73338 0.34986 0.69927 -0.06000
C 	C 	0.69532 0.26695 0.71113 0.03400
C 	C 	0.65238 0.18805 0.68270 0.08000
C 	C 	0.64277 0.19214 0.64283 0.01100
C 	C 	0.67633 0.27441 0.63103 -0.05900
C 	C 	0.72513 0.35419 0.65942 0.13200
C 	C 	0.69297 0.26213 0.75312 0.03400
N 	N 	0.61690 0.10341 0.69423 -0.01800
H 	H 	0.60675 0.13084 0.62111 0.10400
N 	N 	0.76617 0.43973 0.64786 -0.02600
H 	H 	0.76819 0.41090 0.72105 0.10600
C 	C 	0.77346 0.30333 0.78052 0.07900
C 	C 	0.77180 0.31092 0.82070 0.01100
C 	C 	0.69040 0.27707 0.83381 -0.06000
C 	C 	0.60898 0.22981 0.80633 0.13300
C 	C 	0.61087 0.22354 0.76620 -0.06000
N 	N 	0.85727 0.33921 0.76765 -0.01800
H 	H 	0.83435 0.34574 0.84169 0.10300
N 	N 	0.52427 0.18856 0.81911 -0.02700
H 	H 	0.54859 0.18999 0.74517 0.10600
O 	O 	0.75243 0.49519 0.66360 -0.04100
O 	O 	0.82131 0.46424 0.62328 -0.06100
O 	O 	0.53354 0.03410 0.68036 -0.04000
O 	O 	0.66921 0.09440 0.71692 -0.03300
O 	O 	0.50132 0.13274 0.84318 -0.05800
O 	O 	0.46801 0.20302 0.80504 -0.04000
O 	O 	0.92754 0.42173 0.78182 -0.04200
O 	O 	0.86463 0.28801 0.74335 -0.03400
C 	C 	0.61412 0.36981 0.18766 -0.06500
C 	C 	0.63111 0.32439 0.21212 0.03400
C 	C 	0.66322 0.27764 0.19779 0.07100
C 	C 	0.67780 0.27653 0.15927 0.00300
C 	C 	0.66177 0.32254 0.13480 -0.07400
C 	C 	0.63012 0.36993 0.14918 0.14200
C 	C 	0.61605 0.32630 0.25292 0.03000
N 	N 	0.68114 0.23113 0.22236 -0.01800
H 	H 	0.70172 0.23971 0.14836 0.07700
N 	N 	0.61667 0.42028 0.12528 -0.02600
H 	H 	0.59005 0.40637 0.19871 0.10600
C 	C 	0.68118 0.40131 0.28243 0.07600
C 	C 	0.67677 0.39456 0.32188 0.00200
C 	C 	0.60871 0.31307 0.33214 -0.06800
C 	C 	0.53801 0.24158 0.30262 0.13600
C 	C 	0.54235 0.24847 0.26315 -0.06300
N 	N 	0.75407 0.48314 0.27250 -0.01900
H 	H 	0.72983 0.45077 0.34446 0.09300
N 	N 	0.46221 0.16169 0.31263 -0.02500
H 	H 	0.49014 0.19201 0.24044 0.10200
O 	O 	0.53832 0.40419 0.11867 -0.02200
O 	O 	0.68441 0.48662 0.11260 -0.03400
O 	O 	0.63842 0.14492 0.21222 -0.05400
O 	O 	0.74447 0.27585 0.25340 -0.05800
O 	O 	0.41835 0.16760 0.33790 -0.03700
O 	O 	0.43438 0.08293 0.29509 -0.04900
O 	O 	0.76258 0.55676 0.28186 -0.04100
O 	O 	0.81609 0.48576 0.25716 -0.05400
C 	C 	0.82031 0.75670 0.46843 0.25700
C 	C 	0.87360 0.81624 0.50394 -0.15300
C 	C 	0.87639 0.78255 0.53774 0.26000
C 	C 	0.82767 0.68993 0.53589 0.29300
C 	C 	0.77571 0.63031 0.50019 -0.20000
C 	C 	0.77144 0.66403 0.46653 0.29500
F 	F 	0.71913 0.60691 0.43212 -0.36900
F 	F 	0.81726 0.78891 0.43562 -0.36100
F 	F 	0.83250 0.65808 0.56856 -0.37300
F 	F 	0.92766 0.83985 0.57222 -0.35100
C 	C 	0.89311 0.11789 0.46507 0.25900
C 	C 	0.91080 0.10029 0.50148 -0.14700
C 	C 	0.87761 0.11537 0.53322 0.25700
C 	C 	0.82450 0.14480 0.52820 0.29600
C 	C 	0.80412 0.15938 0.49136 -0.20200
C 	C 	0.83977 0.14688 0.45994 0.29200
F 	F 	0.81988 0.15956 0.42403 -0.39300
F 	F 	0.92432 0.10298 0.43415 -0.35000
F 	F 	0.79322 0.15951 0.55915 -0.37100
F 	F 	0.89514 0.09945 0.56869 -0.35500
C 	C 	0.23294 0.10429 0.53693 0.25600
C 	C 	0.17749 0.09779 0.50455 -0.14800
C 	C 	0.21105 0.12249 0.46997 0.25700
C 	C 	0.29878 0.15217 0.46762 0.29300
C 	C 	0.35344 0.15676 0.49973 -0.20300
C 	C 	0.32021 0.13300 0.53444 0.29200
F 	F 	0.37346 0.14010 0.56614 -0.37400
F 	F 	0.20146 0.08123 0.57060 -0.35300
F 	F 	0.33055 0.17594 0.43406 -0.37500
F 	F 	0.15770 0.11531 0.43830 -0.35200
C 	C 	0.82186 0.65038 0.99881 0.28800
C 	C 	0.81777 0.59555 0.96703 -0.20200
C 	C 	0.83998 0.62737 0.93194 0.29100
C 	C 	0.86661 0.71331 0.92876 0.25200
C 	C 	0.87251 0.76888 0.96079 -0.14200
C 	C 	0.84934 0.73672 0.99574 0.25000
F 	F 	0.85603 0.79018 0.02709 -0.34900
F 	F 	0.79948 0.62001 0.03273 -0.37000
F 	F 	0.88845 0.74348 0.89476 -0.35600
F 	F 	0.83321 0.57397 0.90053 -0.37500
C 	C 	0.84994 0.05157 0.99772 0.23600
C 	C 	0.86770 0.03316 0.96148 -0.12200
C 	C 	0.85376 0.06658 0.92957 0.24600
C 	C 	0.82514 0.12043 0.93425 0.30400
C 	C 	0.81027 0.14135 0.97092 -0.21600
C 	C 	0.82196 0.10576 0.00254 0.31100
F 	F 	0.80936 0.12639 0.03834 -0.40000
F 	F 	0.86397 0.02040 0.02884 -0.34200
F 	F 	0.81143 0.15179 0.90313 -0.37100
F 	F 	0.87012 0.04867 0.89428 -0.35200
C 	C 	0.30632 0.17483 0.00090 0.31400
C 	C 	0.34221 0.17308 0.96758 -0.21100
C 	C 	0.28397 0.12193 0.93149 0.29800
C 	C 	0.19058 0.07179 0.92886 0.25600
C 	C 	0.15475 0.07243 0.96226 -0.14300
C 	C 	0.21288 0.12457 0.99822 0.24000
F 	F 	0.17857 0.12544 0.03066 -0.35200
F 	F 	0.36208 0.22625 0.03570 -0.36700
F 	F 	0.13465 0.02149 0.89397 -0.34700
F 	F 	0.31797 0.11960 0.89914 -0.37500
