data_crystal

_cell_length_a 22.49687
_cell_length_b 21.66461
_cell_length_c 45.42442
_cell_angle_alpha 89.88063
_cell_angle_beta  89.88369
_cell_angle_gamma 119.46185

_symmetry_space_group_name_	'P 1'
_symmetry_space_group_name_H-M	'P 1'

loop_
_symmetry_equiv_pos_as_xyz
  x,y,z

loop_
_atom_site_label
_atom_site_type_symbol
_atom_site_fract_x
_atom_site_fract_y
_atom_site_fract_z
_atom_site_charge
C 	C 	0.60501 0.26447 0.84307 0.24800
C 	C 	0.78139 0.53073 0.89996 0.25600
C 	C 	0.78549 0.39565 0.82441 0.28700
C 	C 	0.62076 0.43965 0.91782 0.30100
C 	C 	0.84163 0.39081 0.92182 0.29800
C 	C 	0.64705 0.22563 0.92702 0.28000
Ni	Ni	0.68504 0.41755 0.86104 1.11300
Ni	Ni	0.71222 0.38536 0.93031 1.15200
Ni	Ni	0.73936 0.30728 0.87653 1.12700
O 	O 	0.60147 0.32316 0.84813 -0.34500
O 	O 	0.66447 0.26370 0.84429 -0.34800
O 	O 	0.79647 0.38371 0.94130 -0.28700
O 	O 	0.77628 0.50077 0.87444 -0.36600
O 	O 	0.76750 0.49415 0.92499 -0.25300
O 	O 	0.68761 0.22736 0.90528 -0.30900
O 	O 	0.73076 0.40225 0.82336 -0.35800
O 	O 	0.80538 0.38391 0.84945 -0.36500
O 	O 	0.66041 0.28246 0.94319 -0.28400
O 	O 	0.63065 0.45138 0.88903 -0.35500
O 	O 	0.62413 0.38687 0.92989 -0.32100
O 	O 	0.82534 0.34315 0.90102 -0.28500
O 	O 	0.69942 0.36153 0.88971 -0.71500
H 	H 	0.65200 0.32343 0.89229 0.14900
C 	C 	0.75840 0.42392 0.52951 0.29700
C 	C 	0.61650 0.14947 0.58914 0.31500
C 	C 	0.56792 0.29252 0.53888 0.32100
C 	C 	0.80390 0.26325 0.58298 0.27600
C 	C 	0.59360 0.30937 0.63622 0.29800
C 	C 	0.77725 0.44905 0.62662 0.27100
Ni	Ni	0.68949 0.27106 0.54745 1.13000
Ni	Ni	0.70711 0.28820 0.61831 1.12300
Ni	Ni	0.66719 0.38875 0.58242 1.13100
O 	O 	0.76101 0.36419 0.52701 -0.28600
O 	O 	0.70404 0.42409 0.54093 -0.33600
O 	O 	0.61233 0.26184 0.63101 -0.34700
O 	O 	0.60942 0.18057 0.56567 -0.30800
O 	O 	0.66889 0.18425 0.60686 -0.36600
O 	O 	0.75480 0.46036 0.60123 -0.35700
O 	O 	0.61803 0.28880 0.52560 -0.31900
O 	O 	0.57551 0.31583 0.56605 -0.30100
O 	O 	0.74984 0.38462 0.63907 -0.36200
O 	O 	0.76031 0.23946 0.56048 -0.32400
O 	O 	0.79831 0.30126 0.60464 -0.35600
O 	O 	0.62344 0.37127 0.62274 -0.34800
O 	O 	0.70304 0.32571 0.58132 -0.71900
H 	H 	0.75189 0.36018 0.57894 0.16900
C 	C 	0.17755 0.11841 0.79004 0.27100
C 	C 	0.96673 0.87873 0.72450 0.30100
C 	C 	0.17560 0.08334 0.71818 0.28100
C 	C 	0.95134 0.93013 0.80454 0.26200
C 	C 	0.99115 0.07501 0.69367 0.29800
C 	C 	0.96499 0.13630 0.76839 0.28700
Ni	Ni	0.07544 0.98277 0.76360 1.11700
Ni	Ni	0.93923 0.99072 0.74774 1.13400
Ni	Ni	0.08477 0.13208 0.74382 1.12100
O 	O 	0.12977 0.05318 0.79676 -0.36200
O 	O 	0.16427 0.16088 0.77316 -0.35200
O 	O 	0.95460 0.01022 0.70418 -0.36900
O 	O 	0.03256 0.92097 0.72652 -0.36500
O 	O 	0.92466 0.89140 0.74003 -0.36000
O 	O 	0.03211 0.16176 0.77089 -0.36800
O 	O 	0.16587 0.03862 0.73967 -0.36500
O 	O 	0.13066 0.10357 0.71251 -0.37800
O 	O 	0.92464 0.07545 0.75451 -0.36300
O 	O 	0.99336 0.91321 0.79046 -0.34200
O 	O 	0.91842 0.95810 0.79029 -0.34100
O 	O 	0.02225 0.12897 0.71163 -0.39100
O 	O 	0.03347 0.03851 0.75862 -0.73000
H 	H 	0.03016 0.05086 0.77921 0.16400
C 	C 	0.43562 0.72501 0.39527 0.27200
C 	C 	0.16882 0.48131 0.42023 0.28600
C 	C 	0.25632 0.69567 0.38017 0.27800
C 	C 	0.33712 0.50494 0.44102 0.31000
C 	C 	0.20611 0.66888 0.47309 0.31200
C 	C 	0.38338 0.71068 0.49305 0.30900
Ni	Ni	0.30086 0.59095 0.39705 1.12000
Ni	Ni	0.26494 0.57603 0.46670 1.12900
Ni	Ni	0.33051 0.72770 0.43625 1.13600
O 	O 	0.40452 0.65577 0.39027 -0.31400
O 	O 	0.40036 0.75744 0.40253 -0.33700
O 	O 	0.19283 0.60471 0.46593 -0.36400
O 	O 	0.19634 0.53611 0.40268 -0.36400
O 	O 	0.19697 0.48418 0.44596 -0.34700
O 	O 	0.39966 0.74502 0.46743 -0.31200
O 	O 	0.28951 0.66379 0.37092 -0.35600
O 	O 	0.25344 0.70738 0.40823 -0.32100
O 	O 	0.32357 0.65111 0.49726 -0.34500
O 	O 	0.30992 0.50615 0.41506 -0.33600
O 	O 	0.32913 0.53586 0.46484 -0.32800
O 	O 	0.26753 0.72317 0.46902 -0.31400
O 	O 	0.31486 0.63337 0.43420 -0.72600
H 	H 	0.36081 0.64114 0.43884 0.19900
C 	C 	0.40055 0.61810 0.05895 0.31100
C 	C 	0.24766 0.66802 0.15577 0.27700
C 	C 	0.22461 0.50738 0.09022 0.28000
C 	C 	0.42867 0.78838 0.13010 0.26100
C 	C 	0.16878 0.66293 0.06595 0.29500
C 	C 	0.34453 0.79565 0.04162 0.31500
Ni	Ni	0.33884 0.63363 0.11853 1.11800
Ni	Ni	0.29287 0.75004 0.10160 1.13500
Ni	Ni	0.28044 0.63763 0.05391 1.13100
O 	O 	0.38298 0.59610 0.08688 -0.34000
O 	O 	0.37281 0.65023 0.04412 -0.32300
O 	O 	0.21108 0.72732 0.07551 -0.28700
O 	O 	0.30143 0.65910 0.15636 -0.35000
O 	O 	0.22641 0.67939 0.13072 -0.36300
O 	O 	0.30030 0.72966 0.03302 -0.31900
O 	O 	0.24439 0.54376 0.11463 -0.36300
O 	O 	0.25437 0.53627 0.06513 -0.34300
O 	O 	0.35358 0.81397 0.06978 -0.30800
O 	O 	0.42813 0.72726 0.12676 -0.33500
O 	O 	0.37063 0.79088 0.13209 -0.34000
O 	O 	0.18694 0.61437 0.06644 -0.37400
O 	O 	0.32098 0.68429 0.08953 -0.72100
H 	H 	0.36777 0.71691 0.08269 0.18300
C 	C 	0.82891 0.92164 0.28245 0.26200
C 	C 	0.06357 0.15066 0.21412 0.25400
C 	C 	0.83035 0.92545 0.21397 0.26200
C 	C 	0.06156 0.15053 0.28187 0.23900
C 	C 	0.04653 0.90944 0.21422 0.24100
C 	C 	0.04927 0.90872 0.28034 0.23800
Ni	Ni	0.93522 0.05017 0.24699 1.10800
Ni	Ni	0.07575 0.03865 0.24738 1.11000
Ni	Ni	0.92731 0.89354 0.24766 1.12000
O 	O 	0.85859 0.99087 0.27750 -0.34900
O 	O 	0.86342 0.88674 0.28067 -0.35800
O 	O 	0.08270 0.97900 0.21515 -0.35100
O 	O 	0.99712 0.12242 0.21545 -0.34200
O 	O 	0.09150 0.10996 0.21514 -0.36200
O 	O 	0.98177 0.87542 0.27848 -0.34500
O 	O 	0.87168 0.99379 0.21283 -0.34500
O 	O 	0.85506 0.88200 0.21746 -0.34500
O 	O 	0.08538 0.97868 0.27888 -0.35300
O 	O 	0.99435 0.12086 0.27962 -0.34300
O 	O 	0.09302 0.11263 0.27888 -0.35700
O 	O 	0.97935 0.87781 0.21509 -0.33600
O 	O 	0.97854 0.99516 0.25132 -0.69500
H 	H 	0.97848 0.99548 0.27309 0.15100
C 	C 	0.10913 0.30408 0.17172 0.08500
C 	C 	0.08008 0.32932 0.15103 -0.07400
C 	C 	0.10845 0.34600 0.12264 0.03100
C 	C 	0.16327 0.33615 0.11501 0.10900
C 	C 	0.18852 0.30543 0.13515 -0.07800
C 	C 	0.16254 0.29267 0.16390 0.02700
N 	N 	0.07333 0.26121 0.19412 -0.15200
C 	C 	0.10246 0.22098 0.20032 0.01700
C 	C 	0.15847 0.23937 0.18199 -0.04000
N 	N 	0.20458 0.38688 0.09593 -0.14600
C 	C 	0.17868 0.43096 0.09214 0.03600
C 	C 	0.11741 0.40518 0.10743 -0.02600
H 	H 	0.03802 0.33777 0.15708 0.07500
H 	H 	0.23016 0.29626 0.12915 0.09100
H 	H 	0.17747 0.20379 0.17603 0.07800
H 	H 	0.09696 0.43856 0.11488 0.07500
H 	H 	0.02260 0.24660 0.19893 0.10000
H 	H 	0.25645 0.40300 0.09345 0.12400
C 	C 	0.70532 0.92077 0.16807 0.10600
C 	C 	0.66895 0.91050 0.14184 -0.07600
C 	C 	0.60523 0.90766 0.14366 0.04900
C 	C 	0.57443 0.90299 0.17083 0.08800
C 	C 	0.60763 0.90315 0.19710 -0.07000
C 	C 	0.67568 0.91828 0.19500 0.01900
N 	N 	0.75692 0.90677 0.17125 -0.15000
C 	C 	0.76279 0.89831 0.20051 0.02800
C 	C 	0.71021 0.90128 0.21570 -0.04700
N 	N 	0.50600 0.86825 0.16801 -0.14900
C 	C 	0.49258 0.85024 0.13931 0.04500
C 	C 	0.55309 0.87357 0.12356 -0.03800
H 	H 	0.68759 0.90136 0.12121 0.10700
H 	H 	0.58055 0.88855 0.21794 0.06600
H 	H 	0.71007 0.91074 0.23908 0.05000
H 	H 	0.55752 0.84875 0.10360 0.11300
H 	H 	0.79599 0.92051 0.15580 0.13100
H 	H 	0.47208 0.84090 0.18520 0.10300
C 	C 	0.20793 0.76541 0.20444 0.08400
C 	C 	0.21598 0.83403 0.20290 -0.07900
C 	C 	0.15921 0.84065 0.19507 0.02800
C 	C 	0.09502 0.78188 0.19262 0.09700
C 	C 	0.08529 0.71334 0.19661 -0.08100
C 	C 	0.14328 0.70593 0.20159 0.02200
N 	N 	0.25585 0.75103 0.19396 -0.15100
C 	C 	0.22299 0.68443 0.18300 0.01300
C 	C 	0.15310 0.65421 0.18827 -0.04100
N 	N 	0.04625 0.79975 0.19737 -0.15900
C 	C 	0.07970 0.87039 0.20256 0.03000
C 	C 	0.15009 0.89762 0.20167 -0.03600
H 	H 	0.26587 0.88046 0.20525 0.07400
H 	H 	0.03513 0.66727 0.19433 0.07500
H 	H 	0.11458 0.61198 0.17500 0.06700
H 	H 	0.18687 0.94477 0.21318 0.06300
H 	H 	0.30371 0.79016 0.18641 0.10400
H 	H 	0.99666 0.76464 0.20458 0.12300
C 	C 	0.58910 0.77433 0.35848 0.11300
C 	C 	0.65226 0.77784 0.35415 -0.07500
C 	C 	0.70352 0.83790 0.33986 0.04000
C 	C 	0.69179 0.89190 0.32992 0.09300
C 	C 	0.62841 0.88827 0.33458 -0.06700
C 	C 	0.57708 0.82757 0.34845 0.01700
N 	N 	0.54699 0.73926 0.38091 -0.15200
C 	C 	0.50604 0.76797 0.38482 0.06700
C 	C 	0.52539 0.82520 0.36570 -0.03300
N 	N 	0.73152 0.92436 0.30641 -0.14800
C 	C 	0.76681 0.89019 0.30060 0.01800
C 	C 	0.75184 0.83720 0.32130 -0.03300
H 	H 	0.66127 0.73570 0.36170 0.10500
H 	H 	0.61896 0.93005 0.32694 0.07500
H 	H 	0.49406 0.84845 0.35973 0.07500
H 	H 	0.76114 0.79303 0.31845 0.07600
H 	H 	0.53781 0.69019 0.38905 0.18000
H 	H 	0.72374 0.95636 0.29143 0.10000
C 	C 	0.13312 0.27588 0.33909 0.09900
C 	C 	0.13571 0.27897 0.36995 -0.08100
C 	C 	0.10680 0.31519 0.38440 0.03800
C 	C 	0.07703 0.34792 0.36856 0.08900
C 	C 	0.07186 0.34210 0.33774 -0.07600
C 	C 	0.10206 0.30719 0.32335 0.01800
N 	N 	0.13072 0.22159 0.32378 -0.15100
C 	C 	0.09728 0.21712 0.29846 0.02700
C 	C 	0.07845 0.26946 0.29745 -0.04700
N 	N 	0.08530 0.40592 0.38294 -0.14700
C 	C 	0.12120 0.41160 0.40766 0.02400
C 	C 	0.13420 0.35518 0.40948 -0.03000
H 	H 	0.15992 0.25455 0.38228 0.10400
H 	H 	0.04770 0.36647 0.32536 0.06800
H 	H 	0.03562 0.26535 0.28499 0.05600
H 	H 	0.17717 0.35764 0.42117 0.08300
H 	H 	0.13295 0.17890 0.33343 0.12200
H 	H 	0.08468 0.44880 0.37261 0.10900
C 	C 	0.15461 0.76312 0.35597 0.12700
C 	C 	0.09391 0.76334 0.34942 -0.08000
C 	C 	0.09966 0.82190 0.33378 0.05000
C 	C 	0.16115 0.87080 0.32080 0.09300
C 	C 	0.21974 0.86388 0.32384 -0.06900
C 	C 	0.21617 0.81299 0.34393 0.03000
N 	N 	0.15755 0.70530 0.36431 -0.15200
C 	C 	0.22237 0.71919 0.35917 0.02800
C 	C 	0.25899 0.78436 0.34475 -0.04200
N 	N 	0.14942 0.90128 0.29739 -0.15000
C 	C 	0.08089 0.87167 0.29492 0.02700
C 	C 	0.04842 0.82238 0.31733 -0.06400
H 	H 	0.04458 0.71882 0.35511 0.08800
H 	H 	0.26473 0.89454 0.31039 0.07300
H 	H 	0.31417 0.81530 0.34367 0.06900
H 	H 	0.99527 0.78142 0.31743 0.09400
H 	H 	0.12387 0.66762 0.37933 0.13900
H 	H 	0.18454 0.92895 0.28063 0.09800
C 	C 	0.47752 0.96583 0.57204 0.05100
C 	C 	0.51205 0.92737 0.57623 0.08900
C 	C 	0.57410 0.95849 0.59228 -0.09900
C 	C 	0.60594 0.03129 0.59899 0.05800
C 	C 	0.57434 0.07138 0.59184 -0.00000
C 	C 	0.50587 0.03591 0.58203 -0.08200
C 	C 	0.48735 0.85892 0.56052 0.10200
C 	C 	0.60929 0.91640 0.60040 0.78500
H 	H 	0.65649 0.05725 0.60855 0.07100
C 	C 	0.46342 0.07270 0.58127 0.78600
H 	H 	0.42950 0.94186 0.56026 0.12400
C 	C 	0.42251 0.79984 0.56696 -0.11000
C 	C 	0.39004 0.74695 0.54549 0.08000
C 	C 	0.42414 0.74888 0.51924 0.00900
C 	C 	0.49459 0.79856 0.51655 -0.06200
C 	C 	0.52388 0.85645 0.53588 0.03400
C 	C 	0.38523 0.79539 0.59544 0.79000
H 	H 	0.33701 0.70690 0.54846 0.09500
C 	C 	0.53837 0.79174 0.49279 0.77700
H 	H 	0.57410 0.90074 0.53115 0.12100
F 	F 	0.39511 0.02414 0.58573 -0.38900
F 	F 	0.47058 0.10468 0.55413 -0.40000
F 	F 	0.48331 0.12335 0.60317 -0.40900
F 	F 	0.65058 0.91872 0.57737 -0.42200
F 	F 	0.56231 0.84648 0.60662 -0.39000
F 	F 	0.64946 0.94470 0.62514 -0.42600
F 	F 	0.53997 0.83049 0.46828 -0.42000
F 	F 	0.51333 0.72161 0.48492 -0.39300
F 	F 	0.60446 0.81749 0.50281 -0.38800
F 	F 	0.34183 0.72530 0.60306 -0.40400
F 	F 	0.34695 0.82891 0.59189 -0.40800
F 	F 	0.43046 0.82671 0.61842 -0.39100
C 	C 	0.91775 0.54264 0.48802 0.03400
C 	C 	0.94853 0.59814 0.50833 0.10800
C 	C 	0.90764 0.60802 0.52934 -0.10400
C 	C 	0.84138 0.55188 0.53485 0.08100
C 	C 	0.81454 0.49031 0.51756 0.01200
C 	C 	0.84930 0.49040 0.49156 -0.05800
C 	C 	0.02374 0.63901 0.50963 0.07800
C 	C 	0.93431 0.67776 0.54558 0.79000
H 	H 	0.81243 0.55420 0.55348 0.08000
C 	C 	0.81485 0.43443 0.46804 0.77900
H 	H 	0.94806 0.53825 0.47040 0.10500
C 	C 	0.06052 0.61084 0.52457 -0.10400
C 	C 	0.12737 0.63147 0.51541 0.07700
C 	C 	0.15623 0.67708 0.49129 0.00200
C 	C 	0.12530 0.71614 0.48093 -0.06900
C 	C 	0.05820 0.69551 0.48985 0.03500
C 	C 	0.02544 0.55061 0.54668 0.76300
H 	H 	0.15397 0.60576 0.52472 0.08300
C 	C 	0.16158 0.77638 0.45908 0.77900
H 	H 	0.03051 0.71865 0.47934 0.12100
F 	F 	0.82667 0.37854 0.47337 -0.41100
F 	F 	0.84077 0.46248 0.44053 -0.41200
F 	F 	0.74518 0.40960 0.46755 -0.40800
F 	F 	0.96055 0.73326 0.52561 -0.40300
F 	F 	0.98527 0.68670 0.56492 -0.39900
F 	F 	0.88301 0.68056 0.56141 -0.42500
F 	F 	0.16242 0.74927 0.43169 -0.44900
F 	F 	0.22784 0.82107 0.46813 -0.40800
F 	F 	0.12920 0.81643 0.45665 -0.40400
F 	F 	0.07276 0.54305 0.56349 -0.42200
F 	F 	0.98566 0.48780 0.53190 -0.42300
F 	F 	0.98463 0.56298 0.56578 -0.40600
C 	C 	0.45388 0.43085 0.45658 0.02900
C 	C 	0.40688 0.36277 0.46683 0.10000
C 	C 	0.33598 0.33726 0.46342 -0.11600
C 	C 	0.31383 0.38449 0.45428 0.07800
C 	C 	0.36092 0.45353 0.44531 -0.00500
C 	C 	0.43116 0.47513 0.44429 -0.05900
C 	C 	0.43217 0.32332 0.48471 0.09500
C 	C 	0.28350 0.26188 0.47184 0.79100
H 	H 	0.26010 0.36860 0.45541 0.07200
C 	C 	0.48185 0.54606 0.43096 0.77000
H 	H 	0.50805 0.45015 0.45925 0.12700
C 	C 	0.47156 0.29562 0.47190 -0.10000
C 	C 	0.51127 0.27807 0.49029 0.08300
C 	C 	0.50880 0.28388 0.52107 0.02100
C 	C 	0.45645 0.29428 0.53341 -0.06300
C 	C 	0.42344 0.32055 0.51535 0.03800
C 	C 	0.47671 0.29086 0.43873 0.79000
H 	H 	0.54697 0.26395 0.48058 0.11300
C 	C 	0.43400 0.27608 0.56521 0.77900
H 	H 	0.39164 0.33975 0.52516 0.11700
F 	F 	0.54582 0.55241 0.42762 -0.40400
F 	F 	0.48770 0.60021 0.44891 -0.40400
F 	F 	0.45953 0.55313 0.40346 -0.44400
F 	F 	0.26949 0.25864 0.50162 -0.41300
F 	F 	0.30663 0.21490 0.46542 -0.38400
F 	F 	0.22340 0.24025 0.45646 -0.42100
F 	F 	0.36509 0.25398 0.56801 -0.40000
F 	F 	0.47015 0.33554 0.58242 -0.45000
F 	F 	0.44415 0.22169 0.57532 -0.38000
F 	F 	0.49408 0.23972 0.43145 -0.39900
F 	F 	0.52643 0.35548 0.42783 -0.40900
F 	F 	0.41520 0.27269 0.42524 -0.39400
C 	C 	0.98434 0.16044 0.62916 0.10400
C 	C 	0.98339 0.22380 0.62318 -0.04500
C 	C 	0.92095 0.21862 0.61562 0.01300
C 	C 	0.86416 0.15400 0.61040 0.10800
C 	C 	0.86493 0.09050 0.61464 -0.07800
C 	C 	0.92566 0.09468 0.62496 0.04400
N 	N 	0.02158 0.15576 0.65125 -0.16100
C 	C 	0.98632 0.08921 0.66231 0.03400
C 	C 	0.92714 0.04936 0.64611 -0.03400
N 	N 	0.82062 0.16144 0.59262 -0.15100
C 	C 	0.84785 0.23186 0.58754 0.03900
C 	C 	0.91204 0.26892 0.60061 -0.02400
H 	H 	0.02826 0.27495 0.62669 0.06900
H 	H 	0.81936 0.03979 0.61137 0.11400
H 	H 	0.88177 0.00403 0.65486 0.08100
H 	H 	0.93882 0.32515 0.60536 0.09300
H 	H 	0.05726 0.19949 0.66324 0.10600
H 	H 	0.76939 0.12348 0.58975 0.12300
C 	C 	0.33801 0.13486 0.68750 0.10400
C 	C 	0.40525 0.15569 0.69567 -0.06700
C 	C 	0.45652 0.22412 0.68800 0.02000
C 	C 	0.44114 0.27064 0.67297 0.10800
C 	C 	0.37348 0.25011 0.66545 -0.06800
C 	C 	0.32275 0.18073 0.67207 0.04800
N 	N 	0.28350 0.08824 0.70320 -0.14700
C 	C 	0.23345 0.10424 0.69800 0.01800
C 	C 	0.25596 0.16143 0.67875 -0.03000
N 	N 	0.49436 0.31486 0.65602 -0.15100
C 	C 	0.54276 0.29573 0.65928 0.03600
C 	C 	0.52133 0.24003 0.67926 -0.03600
H 	H 	0.41728 0.11987 0.70758 0.07700
H 	H 	0.36123 0.28599 0.65372 0.10200
H 	H 	0.23544 0.19738 0.67798 0.06700
H 	H 	0.53977 0.20228 0.67948 0.07900
H 	H 	0.28656 0.06251 0.72217 0.10800
H 	H 	0.49028 0.34139 0.63757 0.16400
C 	C 	0.94035 0.72793 0.68265 0.11100
C 	C 	0.93045 0.69513 0.65501 -0.07500
C 	C 	0.87350 0.62747 0.65162 0.05700
C 	C 	0.82997 0.59262 0.67493 0.08300
C 	C 	0.83943 0.62492 0.70252 -0.06500
C 	C 	0.89577 0.69303 0.70599 0.01700
N 	N 	0.96913 0.79871 0.68598 -0.14800
C 	C 	0.94129 0.80905 0.71056 0.02000
C 	C 	0.89665 0.74499 0.72394 -0.03400
N 	N 	0.79922 0.52204 0.67108 -0.15000
C 	C 	0.82103 0.51112 0.64479 0.03600
C 	C 	0.86933 0.57582 0.63258 -0.03500
H 	H 	0.96470 0.72192 0.63676 0.12700
H 	H 	0.80470 0.59800 0.72061 0.06700
H 	H 	0.85732 0.73723 0.73969 0.06600
H 	H 	0.88560 0.58464 0.60976 0.12700
H 	H 	0.99213 0.83606 0.66912 0.13300
H 	H 	0.75486 0.48526 0.68204 0.10500
C 	C 	0.99648 0.46639 0.96630 0.05600
C 	C 	0.99467 0.52839 0.97394 0.10700
C 	C 	0.95767 0.55129 0.95603 -0.10900
C 	C 	0.92748 0.51350 0.93022 0.07200
C 	C 	0.91320 0.44323 0.92772 0.01100
C 	C 	0.95478 0.42255 0.94342 -0.06000
C 	C 	0.03239 0.56936 0.00020 0.07600
C 	C 	0.94762 0.61349 0.96461 0.79100
H 	H 	0.90350 0.53308 0.91515 0.06100
C 	C 	0.95032 0.35163 0.93765 0.79400
H 	H 	0.02778 0.45086 0.97898 0.10800
C 	C 	0.00904 0.54394 0.02920 -0.11600
C 	C 	0.04876 0.58357 0.05331 0.08200
C 	C 	0.10821 0.64883 0.04866 0.01000
C 	C 	0.11755 0.68125 0.02087 -0.07400
C 	C 	0.08709 0.63834 0.99633 0.04200
C 	C 	0.94435 0.47382 0.03456 0.80200
H 	H 	0.03792 0.56026 0.07516 0.08000
C 	C 	0.15376 0.76081 0.01760 0.79100
H 	H 	0.10222 0.66023 0.97436 0.11200
F 	F 	0.00743 0.35029 0.94812 -0.40900
F 	F 	0.94599 0.33851 0.90771 -0.40800
F 	F 	0.89306 0.29858 0.95148 -0.35900
F 	F 	0.99878 0.67504 0.95209 -0.41000
F 	F 	0.94760 0.62201 0.99477 -0.37500
F 	F 	0.88532 0.60277 0.95469 -0.39900
F 	F 	0.12130 0.78026 0.99669 -0.37000
F 	F 	0.22018 0.78488 0.00859 -0.40400
F 	F 	0.15324 0.79270 0.04388 -0.37400
F 	F 	0.92220 0.46840 0.06340 -0.40100
F 	F 	0.95684 0.41848 0.02910 -0.40800
F 	F 	0.89218 0.46750 0.01651 -0.37800
C 	C 	0.42448 0.97439 0.00317 0.05100
C 	C 	0.45290 0.96067 0.97833 0.10700
C 	C 	0.44018 0.89093 0.97274 -0.09400
C 	C 	0.40381 0.83754 0.99370 0.08700
C 	C 	0.37679 0.85172 0.01902 0.03000
C 	C 	0.38317 0.91996 0.02276 -0.04800
C 	C 	0.50262 0.02149 0.96059 0.08900
C 	C 	0.47047 0.87441 0.94598 0.79200
H 	H 	0.39836 0.78535 0.99083 0.11900
C 	C 	0.35013 0.93704 0.04839 0.78100
H 	H 	0.43610 0.02835 0.00761 0.11600
C 	C 	0.48085 0.05947 0.94222 -0.10600
C 	C 	0.52892 0.12762 0.93248 0.07000
C 	C 	0.59824 0.15593 0.93897 0.01200
C 	C 	0.62055 0.11659 0.95613 -0.05900
C 	C 	0.57225 0.04914 0.96646 0.03100
C 	C 	0.40583 0.03040 0.93504 0.78100
H 	H 	0.51236 0.15918 0.92005 0.07100
C 	C 	0.69575 0.14623 0.96331 0.78000
H 	H 	0.58817 0.01927 0.98037 0.12900
F 	F 	0.34209 0.99498 0.04187 -0.37700
F 	F 	0.39118 0.95301 0.07299 -0.42300
F 	F 	0.28612 0.88110 0.05473 -0.38300
F 	F 	0.53803 0.89450 0.95137 -0.39400
F 	F 	0.46677 0.90988 0.92130 -0.38800
F 	F 	0.43565 0.80260 0.93977 -0.38500
F 	F 	0.70563 0.10442 0.98363 -0.38700
F 	F 	0.72251 0.21352 0.97506 -0.38000
F 	F 	0.73128 0.14940 0.93797 -0.38500
F 	F 	0.39815 0.06150 0.90975 -0.43700
F 	F 	0.37407 0.04449 0.95808 -0.40200
F 	F 	0.37355 0.95801 0.93041 -0.37900
C 	C 	0.56923 0.50301 0.98506 0.04000
C 	C 	0.51622 0.51244 0.97432 0.09600
C 	C 	0.50215 0.50612 0.94368 -0.10100
C 	C 	0.54002 0.48656 0.92474 0.07700
C 	C 	0.59378 0.47785 0.93575 0.00200
C 	C 	0.61303 0.49427 0.96576 -0.07100
C 	C 	0.48239 0.53822 0.99505 0.10300
C 	C 	0.44998 0.52396 0.93098 0.78900
H 	H 	0.52699 0.47689 0.90163 0.08900
C 	C 	0.68446 0.51462 0.97609 0.78700
H 	H 	0.57957 0.50822 0.00848 0.12400
C 	C 	0.43236 0.49104 0.01527 -0.11100
C 	C 	0.41247 0.51890 0.03889 0.07900
C 	C 	0.43962 0.59227 0.04198 -0.00100
C 	C 	0.49350 0.63903 0.02331 -0.06200
C 	C 	0.51148 0.61162 0.99902 0.03400
C 	C 	0.40377 0.41139 0.01304 0.79100
H 	H 	0.37328 0.48343 0.05411 0.08200
C 	C 	0.53019 0.71849 0.02843 0.77900
H 	H 	0.55070 0.64740 0.98387 0.13100
F 	F 	0.69468 0.45679 0.97554 -0.44800
F 	F 	0.69592 0.54013 0.00465 -0.38700
F 	F 	0.73162 0.56811 0.95830 -0.40800
F 	F 	0.47551 0.59643 0.93214 -0.40800
F 	F 	0.38964 0.49048 0.94683 -0.38600
F 	F 	0.43514 0.50268 0.90195 -0.41100
F 	F 	0.59607 0.74993 0.01733 -0.39700
F 	F 	0.53443 0.73357 0.05820 -0.43900
F 	F 	0.49533 0.74780 0.01445 -0.41100
F 	F 	0.34382 0.37473 0.02903 -0.41200
F 	F 	0.45092 0.39395 0.02399 -0.41600
F 	F 	0.38944 0.38920 0.98413 -0.38700
C 	C 	0.82696 0.30926 0.76982 0.08400
C 	C 	0.81461 0.23996 0.76456 -0.07300
C 	C 	0.87116 0.22938 0.76254 0.02100
C 	C 	0.93618 0.28259 0.76951 0.09400
C 	C 	0.94727 0.34919 0.77884 -0.07000
C 	C 	0.89246 0.36314 0.77659 0.02800
N 	N 	0.77996 0.32276 0.78209 -0.15100
C 	C 	0.81436 0.38402 0.79729 0.01000
C 	C 	0.88455 0.41074 0.79417 -0.03600
N 	N 	0.97538 0.25440 0.77777 -0.13900
C 	C 	0.93605 0.18300 0.77547 0.03000
C 	C 	0.86988 0.16584 0.76731 -0.03500
H 	H 	0.76304 0.19557 0.76407 0.07200
H 	H 	0.99495 0.38683 0.78904 0.08900
H 	H 	0.92194 0.44473 0.81019 0.07800
H 	H 	0.83090 0.11485 0.75926 0.07200
H 	H 	0.73012 0.28347 0.78716 0.10300
H 	H 	0.02870 0.28218 0.77851 0.10500
C 	C 	0.32320 0.11179 0.81290 0.10500
C 	C 	0.36754 0.10704 0.83333 -0.08100
C 	C 	0.43554 0.13170 0.82446 0.05200
C 	C 	0.46061 0.16983 0.79840 0.07900
C 	C 	0.41778 0.18327 0.78004 -0.06700
C 	C 	0.34782 0.14865 0.78676 0.00900
N 	N 	0.26387 0.10874 0.82033 -0.15100
C 	C 	0.24884 0.14173 0.79855 0.02600
C 	C 	0.30205 0.17025 0.77800 -0.03500
N 	N 	0.52820 0.21459 0.80067 -0.14900
C 	C 	0.54687 0.20604 0.82806 0.03300
C 	C 	0.49036 0.15515 0.84353 -0.03900
H 	H 	0.35092 0.08868 0.85562 0.12500
H 	H 	0.43861 0.22179 0.76233 0.06100
H 	H 	0.29882 0.18743 0.75594 0.05500
H 	H 	0.48565 0.15410 0.86727 0.09300
H 	H 	0.22898 0.07332 0.83565 0.12400
H 	H 	0.55476 0.26100 0.78821 0.10000
C 	C 	0.92582 0.83406 0.87002 0.10800
C 	C 	0.93790 0.77907 0.87915 -0.05300
C 	C 	0.88194 0.71076 0.88084 0.02200
C 	C 	0.81646 0.69822 0.87729 0.10200
C 	C 	0.80280 0.75271 0.86999 -0.06900
C 	C 	0.85897 0.82096 0.86562 0.04300
N 	N 	0.96882 0.88569 0.85172 -0.13900
C 	C 	0.93059 0.90408 0.83480 0.03600
C 	C 	0.86229 0.86587 0.84317 -0.03100
N 	N 	0.77170 0.63667 0.89004 -0.14900
C 	C 	0.80877 0.60763 0.90072 0.08900
C 	C 	0.87839 0.65453 0.89640 0.00100
H 	H 	0.98938 0.78837 0.88229 0.10500
H 	H 	0.75103 0.74204 0.86635 0.09300
H 	H 	0.82015 0.85448 0.82853 0.07700
H 	H 	0.91787 0.63979 0.89616 0.09300
H 	H 	0.01644 0.89260 0.84536 0.10100
H 	H 	0.71972 0.60828 0.88497 0.11600
