data_crystal

_cell_length_a 22.15275
_cell_length_b 23.04999
_cell_length_c 34.51855
_cell_angle_alpha 95.47025
_cell_angle_beta  95.46939
_cell_angle_gamma 125.96971

_symmetry_space_group_name_	'P 1'
_symmetry_space_group_name_H-M	'P 1'

loop_
_symmetry_equiv_pos_as_xyz
  x,y,z

loop_
_atom_site_label
_atom_site_type_symbol
_atom_site_fract_x
_atom_site_fract_y
_atom_site_fract_z
_atom_site_charge
C 	C 	0.91159 0.98956 0.00939 0.02000
C 	C 	0.98702 0.02736 0.00361 -0.06300
C 	C 	0.02114 0.99172 0.00181 0.01700
C 	C 	0.97932 0.91816 0.00562 -0.06200
C 	C 	0.90478 0.88097 0.01219 0.01900
C 	C 	0.87158 0.91703 0.01489 -0.06800
H 	H 	0.01847 0.08371 0.99984 0.04200
H 	H 	0.00428 0.88955 0.00275 0.04500
H 	H 	0.81367 0.88788 0.01981 0.04800
C 	C 	0.95666 0.03287 0.46782 0.02400
C 	C 	0.92051 0.95891 0.46939 -0.07000
C 	C 	0.96140 0.93001 0.46836 0.02500
C 	C 	0.03807 0.97502 0.46467 -0.07300
C 	C 	0.07390 0.04856 0.46231 0.02300
C 	C 	0.03334 0.07750 0.46435 -0.07300
H 	H 	0.86100 0.92414 0.47163 0.04700
H 	H 	0.06984 0.95296 0.46384 0.04700
H 	H 	0.06170 0.13492 0.46384 0.04700
Cu	Cu	0.60642 0.20843 0.99691 0.92300
Cu	Cu	0.63135 0.18342 0.90723 0.87200
Cu	Cu	0.61147 0.30727 0.94254 0.91000
Cu	Cu	0.58678 0.33045 0.02449 0.89300
C 	C 	0.64202 0.27220 0.07956 0.29400
O 	O 	0.49649 0.15199 0.00403 -0.36100
C 	C 	0.62985 0.28327 0.86498 0.29500
O 	O 	0.64845 0.31741 0.99700 -0.64400
O 	O 	0.57696 0.20472 0.94007 -0.63300
O 	O 	0.67199 0.17533 0.99245 -0.38000
O 	O 	0.61492 0.10578 0.93060 -0.42800
O 	O 	0.59589 0.28992 0.07144 -0.38800
O 	O 	0.65251 0.40840 0.94621 -0.38200
C 	C 	0.65397 0.44867 0.97672 0.28400
C 	C 	0.45431 0.17269 0.99293 0.27700
O 	O 	0.48651 0.23795 0.98433 -0.39500
O 	O 	0.61147 0.41875 0.00365 -0.39400
O 	O 	0.64689 0.23123 0.05246 -0.36500
C 	C 	0.65316 0.11956 0.96595 0.28300
O 	O 	0.59113 0.29629 0.88572 -0.38700
O 	O 	0.67333 0.26849 0.88264 -0.43400
H 	H 	0.70376 0.35579 0.00581 0.15900
H 	H 	0.52159 0.16898 0.93016 0.15800
Cu	Cu	0.78384 0.37825 0.45333 0.92700
Cu	Cu	0.78915 0.33536 0.54065 0.86400
Cu	Cu	0.68060 0.36420 0.50989 0.89500
Cu	Cu	0.63980 0.37241 0.42670 0.89200
C 	C 	0.71354 0.33715 0.37125 0.29600
O 	O 	0.82579 0.48124 0.44616 -0.36400
C 	C 	0.73094 0.38438 0.59441 0.28600
O 	O 	0.66813 0.32385 0.45561 -0.64000
O 	O 	0.78812 0.40222 0.51043 -0.64100
O 	O 	0.83860 0.33436 0.45794 -0.37600
O 	O 	0.76426 0.26120 0.49852 -0.44200
O 	O 	0.68671 0.37399 0.37983 -0.39000
O 	O 	0.57413 0.31976 0.50880 -0.39000
C 	C 	0.52296 0.29815 0.47681 0.28500
C 	C 	0.79627 0.51367 0.45868 0.27800
O 	O 	0.72733 0.47451 0.46661 -0.39600
O 	O 	0.54235 0.33056 0.44582 -0.39500
O 	O 	0.76143 0.33881 0.39806 -0.36800
C 	C 	0.81048 0.27572 0.47362 0.28800
O 	O 	0.69693 0.39732 0.56682 -0.38200
O 	O 	0.78919 0.38490 0.58852 -0.42200
H 	H 	0.63345 0.26987 0.44879 0.15800
H 	H 	0.82547 0.45442 0.52283 0.17200
C 	C 	0.65652 0.27858 0.75813 -0.09000
C 	C 	0.66609 0.34192 0.75063 0.00100
C 	C 	0.65749 0.38290 0.77955 0.02400
C 	C 	0.64470 0.36259 0.81673 -0.01500
C 	C 	0.63720 0.30020 0.82468 -0.11000
C 	C 	0.63945 0.25589 0.79441 0.08800
C 	C 	0.68324 0.36369 0.71183 0.00200
C 	C 	0.66151 0.44787 0.77085 -0.17200
H 	H 	0.64156 0.39586 0.83964 0.04300
C 	C 	0.62418 0.18473 0.80055 -0.19200
H 	H 	0.66165 0.24649 0.73549 0.04700
C 	C 	0.75902 0.40934 0.70605 0.02200
C 	C 	0.77356 0.41995 0.66764 -0.01700
C 	C 	0.71362 0.38371 0.63483 -0.10900
C 	C 	0.63761 0.34004 0.64094 0.09100
C 	C 	0.62332 0.33195 0.67956 -0.09300
C 	C 	0.82442 0.44278 0.74027 -0.17100
H 	H 	0.83174 0.45430 0.66310 0.03800
C 	C 	0.57164 0.30003 0.60650 -0.20100
H 	H 	0.56527 0.29803 0.68435 0.04900
H 	H 	0.67561 0.19560 0.81810 0.05100
H 	H 	0.60918 0.14893 0.77180 0.05800
H 	H 	0.57569 0.15424 0.81616 0.03800
H 	H 	0.61760 0.43077 0.74465 0.06400
H 	H 	0.71841 0.49026 0.76472 0.06200
H 	H 	0.65145 0.47278 0.79616 0.06000
H 	H 	0.87977 0.48280 0.73170 0.05800
H 	H 	0.82576 0.39927 0.75054 0.06100
H 	H 	0.81830 0.47202 0.76519 0.06200
H 	H 	0.51669 0.26221 0.61604 0.06500
H 	H 	0.57823 0.26681 0.58435 0.06100
H 	H 	0.56844 0.33976 0.59248 0.08800
C 	C 	0.63424 0.26110 0.26188 -0.09000
C 	C 	0.70112 0.28924 0.24688 0.00300
C 	C 	0.77079 0.32367 0.27321 0.02500
C 	C 	0.77363 0.33598 0.31419 -0.01400
C 	C 	0.70735 0.31196 0.32913 -0.10500
C 	C 	0.63648 0.27013 0.30289 0.09200
C 	C 	0.69843 0.28757 0.20374 0.00200
C 	C 	0.84271 0.35056 0.25772 -0.17200
H 	H 	0.82784 0.36663 0.33436 0.04400
C 	C 	0.56345 0.23727 0.31830 -0.19800
H 	H 	0.58055 0.23323 0.24158 0.05000
C 	C 	0.66899 0.22227 0.17732 0.02500
C 	C 	0.65417 0.21881 0.13637 -0.01500
C 	C 	0.67105 0.28046 0.12155 -0.10400
C 	C 	0.70865 0.34788 0.14784 0.09100
C 	C 	0.71988 0.35035 0.18883 -0.09000
C 	C 	0.64970 0.15526 0.19269 -0.17200
H 	H 	0.62687 0.16743 0.11615 0.04400
C 	C 	0.73433 0.41667 0.13252 -0.19700
H 	H 	0.74410 0.40087 0.20920 0.05000
H 	H 	0.51410 0.19124 0.29600 0.06300
H 	H 	0.55443 0.27938 0.32525 0.06200
H 	H 	0.56506 0.21538 0.34537 0.05700
H 	H 	0.86248 0.40073 0.24570 0.06300
H 	H 	0.83260 0.30814 0.23396 0.06300
H 	H 	0.88861 0.36343 0.28148 0.06100
H 	H 	0.64122 0.11384 0.16884 0.06200
H 	H 	0.59667 0.13049 0.20481 0.06300
H 	H 	0.69650 0.16972 0.21635 0.06300
H 	H 	0.68558 0.41859 0.12581 0.06200
H 	H 	0.75812 0.41893 0.10530 0.05700
H 	H 	0.77957 0.46599 0.15476 0.06300
C 	C 	0.92427 0.85275 0.47154 0.01100
C 	C 	0.88716 0.82522 0.50334 -0.04600
C 	C 	0.85462 0.75307 0.50727 -0.03500
C 	C 	0.85984 0.70791 0.47979 -0.00700
C 	C 	0.89774 0.73556 0.44796 0.03600
C 	C 	0.92869 0.80745 0.44365 -0.07000
C 	C 	0.90456 0.69109 0.42100 -0.07000
C 	C 	0.87332 0.61945 0.42527 0.00900
C 	C 	0.83417 0.59105 0.45633 -0.08000
C 	C 	0.82776 0.63549 0.48369 -0.01400
H 	H 	0.88422 0.86000 0.52525 0.03800
H 	H 	0.82597 0.73258 0.53189 0.03500
H 	H 	0.95668 0.82838 0.41887 0.04600
H 	H 	0.93385 0.71188 0.39662 0.04400
H 	H 	0.87803 0.58541 0.40384 0.03700
H 	H 	0.79797 0.61381 0.50784 0.03600
C 	C 	0.91540 0.06471 0.47163 0.01200
C 	C 	0.88526 0.06312 0.50584 -0.04700
C 	C 	0.85508 0.10135 0.51207 -0.03400
C 	C 	0.85539 0.14223 0.48434 -0.01100
C 	C 	0.88351 0.14222 0.44927 0.03800
C 	C 	0.91252 0.10264 0.44285 -0.07100
C 	C 	0.88441 0.18361 0.42171 -0.07200
C 	C 	0.85953 0.22627 0.42937 0.01300
C 	C 	0.83313 0.22782 0.46461 -0.08900
C 	C 	0.82997 0.18472 0.49174 -0.01200
H 	H 	0.88725 0.03396 0.52815 0.03700
H 	H 	0.83304 0.10047 0.53890 0.03000
H 	H 	0.93496 0.10313 0.41618 0.04600
H 	H 	0.90526 0.18351 0.39456 0.04400
H 	H 	0.86094 0.25824 0.40792 0.03800
H 	H 	0.80959 0.18570 0.51897 0.02300
C 	C 	0.15455 0.09585 0.45848 0.01100
C 	C 	0.17601 0.13375 0.42687 -0.04700
C 	C 	0.25258 0.18103 0.42408 -0.03400
C 	C 	0.30854 0.19042 0.45270 -0.00900
C 	C 	0.28707 0.15126 0.48412 0.03700
C 	C 	0.21018 0.10452 0.48701 -0.07100
C 	C 	0.34276 0.15942 0.51224 -0.07300
C 	C 	0.41928 0.20649 0.50948 0.00900
C 	C 	0.44145 0.24727 0.47897 -0.08200
C 	C 	0.38565 0.23854 0.45036 -0.01200
H 	H 	0.13329 0.12680 0.40456 0.03800
H 	H 	0.26830 0.21035 0.39970 0.03300
H 	H 	0.19364 0.07549 0.51152 0.04500
H 	H 	0.32683 0.12900 0.53619 0.04100
H 	H 	0.46129 0.21078 0.53092 0.02600
H 	H 	0.40210 0.26919 0.42650 0.03800
C 	C 	0.69321 0.52693 0.97696 -0.08200
C 	C 	0.69621 0.55190 0.94111 0.01300
C 	C 	0.73732 0.62652 0.94102 -0.07200
C 	C 	0.77622 0.67709 0.97676 0.03700
C 	C 	0.77257 0.65226 0.01299 -0.00900
C 	C 	0.73064 0.57716 0.01291 -0.01100
C 	C 	0.81190 0.70300 0.04873 -0.03300
C 	C 	0.85501 0.77776 0.04844 -0.04800
C 	C 	0.85906 0.80242 0.01251 0.01500
C 	C 	0.81938 0.75215 0.97675 -0.07400
H 	H 	0.66676 0.51344 0.91326 0.03400
H 	H 	0.73939 0.64498 0.91311 0.04300
H 	H 	0.72856 0.55792 0.04060 0.02800
H 	H 	0.80942 0.68461 0.07669 0.03200
H 	H 	0.88546 0.81657 0.07613 0.04000
H 	H 	0.82249 0.77154 0.94903 0.04700
C 	C 	0.68803 0.08219 0.97298 -0.08200
C 	C 	0.65569 0.01316 0.95030 0.00400
C 	C 	0.69335 0.98150 0.95292 -0.06700
C 	C 	0.76355 0.01812 0.97854 0.03000
C 	C 	0.79504 0.08618 0.00267 -0.00200
C 	C 	0.75702 0.11789 0.99986 -0.01900
C 	C 	0.86472 0.12214 0.02882 -0.03700
C 	C 	0.90293 0.09085 0.03087 -0.04500
C 	C 	0.87232 0.02370 0.00654 0.01100
C 	C 	0.80285 0.98773 0.98019 -0.06900
H 	H 	0.60185 0.98452 0.93008 0.03100
H 	H 	0.66817 0.92874 0.93474 0.04100
H 	H 	0.78208 0.17099 0.01764 0.04400
H 	H 	0.88924 0.17421 0.04760 0.03500
H 	H 	0.95609 0.11857 0.05156 0.03900
H 	H 	0.77950 0.93618 0.96111 0.04500
C 	C 	0.37389 0.12851 0.99698 -0.08400
C 	C 	0.35078 0.08918 0.02799 0.01200
C 	C 	0.27730 0.05553 0.03544 -0.07200
C 	C 	0.22575 0.06024 0.01176 0.03800
C 	C 	0.24769 0.09741 0.97961 -0.01000
C 	C 	0.32178 0.13150 0.97239 -0.01300
C 	C 	0.19546 0.10056 0.95535 -0.03400
C 	C 	0.12195 0.06691 0.96289 -0.04800
C 	C 	0.10018 0.03076 0.99515 0.01100
C 	C 	0.15257 0.02823 0.01980 -0.07100
H 	H 	0.39057 0.08672 0.04718 0.03600
H 	H 	0.26078 0.02649 0.05992 0.04400
H 	H 	0.33922 0.16111 0.94813 0.03400
H 	H 	0.21152 0.12857 0.93048 0.03300
H 	H 	0.08160 0.06816 0.94335 0.03700
H 	H 	0.13608 0.00083 0.04491 0.04500
