data_crystal

_cell_length_a 28.90202
_cell_length_b 30.10990
_cell_length_c 30.44588
_cell_angle_alpha 61.22749
_cell_angle_beta  118.47506
_cell_angle_gamma 133.16530

_symmetry_space_group_name_	'P 1'
_symmetry_space_group_name_H-M	'P 1'

loop_
_symmetry_equiv_pos_as_xyz
  x,y,z

loop_
_atom_site_label
_atom_site_type_symbol
_atom_site_fract_x
_atom_site_fract_y
_atom_site_fract_z
_atom_site_charge
C 	C 	0.71064 0.32671 0.99880 0.12200
N 	N 	0.64521 0.28470 0.99518 -0.13600
C 	C 	0.61135 0.30266 0.99195 0.12900
N 	N 	0.64267 0.36266 0.99106 -0.13900
C 	C 	0.70836 0.40292 0.99977 0.12400
N 	N 	0.74286 0.38522 0.00344 -0.13100
C 	C 	0.72228 0.33084 0.50434 0.13300
N 	N 	0.65670 0.29012 0.49986 -0.13700
C 	C 	0.62466 0.30825 0.49973 0.13700
N 	N 	0.65796 0.36749 0.50216 -0.14000
C 	C 	0.72379 0.40572 0.51246 0.13500
N 	N 	0.75643 0.38769 0.51324 -0.13900
C 	C 	0.29712 0.65286 0.31017 0.13100
N 	N 	0.26171 0.58977 0.31718 -0.13800
C 	C 	0.28197 0.56714 0.30655 0.13500
N 	N 	0.33648 0.60723 0.28853 -0.14100
C 	C 	0.37048 0.66983 0.27989 0.13500
N 	N 	0.35107 0.69296 0.29077 -0.14100
C 	C 	0.30217 0.64930 0.81835 0.13100
N 	N 	0.35722 0.69002 0.80028 -0.14100
C 	C 	0.37926 0.66763 0.79173 0.13500
N 	N 	0.34672 0.60514 0.80134 -0.14100
C 	C 	0.29078 0.56441 0.81750 0.13400
N 	N 	0.26794 0.58632 0.82582 -0.13800
Co	Co	0.09075 0.97989 0.19001 1.17100
Co	Co	0.92101 0.98094 0.13505 1.16500
Co	Co	0.03939 0.02961 0.21886 1.19200
Co	Co	0.97806 0.94164 0.10065 1.17700
C 	C 	0.08395 0.85992 0.23689 0.31600
Co	Co	0.07349 0.90687 0.12542 1.17000
Co	Co	0.92304 0.02754 0.21344 1.17800
C 	C 	0.04190 0.97538 0.02100 0.29500
O 	O 	0.99460 0.12119 0.19038 -0.39200
O 	O 	0.96486 0.01309 0.18606 -0.74100
C 	C 	0.05626 0.14484 0.21413 0.31300
O 	O 	0.11501 0.02757 0.23587 -0.44500
O 	O 	0.90563 0.94940 0.08034 -0.47700
C 	C 	0.87617 0.05969 0.10029 0.32300
O 	O 	0.01901 0.00407 0.14974 -0.55800
C 	C 	0.99733 0.98831 0.31199 0.24700
C 	C 	0.19961 0.02142 0.15704 0.37000
C 	C 	0.92975 0.81703 0.10125 0.32800
O 	O 	0.08529 0.12229 0.21797 -0.37400
O 	O 	0.16884 0.96127 0.16535 -0.44400
O 	O 	0.17649 0.04185 0.16477 -0.37900
O 	O 	0.85738 0.02744 0.14357 -0.39600
O 	O 	0.90585 0.04978 0.08786 -0.37000
O 	O 	0.98380 0.02903 0.28650 -0.36500
O 	O 	0.01114 0.97272 0.28843 -0.39800
O 	O 	0.98140 0.84968 0.08428 -0.41800
O 	O 	0.92127 0.84410 0.11740 -0.40000
O 	O 	0.04690 0.94789 0.13882 -0.76700
C 	C 	0.81847 0.89983 0.19794 0.31400
O 	O 	0.85875 0.93137 0.23383 -0.41300
O 	O 	0.84019 0.90085 0.16727 -0.39600
O 	O 	0.04927 0.84243 0.19343 -0.39600
O 	O 	0.08838 0.90208 0.24582 -0.39400
O 	O 	0.09092 0.97540 0.05761 -0.40100
O 	O 	0.00183 0.97679 0.02996 -0.38000
Co	Co	0.09399 0.97903 0.69018 1.17100
Co	Co	0.92678 0.98302 0.63840 1.16500
Co	Co	0.04662 0.03113 0.72106 1.19200
Co	Co	0.97962 0.94109 0.60232 1.17800
C 	C 	0.08586 0.85879 0.73492 0.31600
Co	Co	0.07297 0.90597 0.62300 1.17000
Co	Co	0.93421 0.03425 0.71629 1.17800
C 	C 	0.03936 0.97442 0.51959 0.29800
O 	O 	0.00709 0.12683 0.69213 -0.39000
O 	O 	0.97285 0.01667 0.68859 -0.74200
C 	C 	0.06846 0.14927 0.71602 0.31200
O 	O 	0.12007 0.02626 0.73739 -0.44600
O 	O 	0.90775 0.94870 0.58409 -0.47800
C 	C 	0.88541 0.06482 0.60322 0.32400
O 	O 	0.02370 0.00491 0.65133 -0.55700
C 	C 	0.00649 0.99249 0.81431 0.27000
C 	C 	0.20103 0.01956 0.65509 0.36900
C 	C 	0.92969 0.81632 0.60293 0.32900
O 	O 	0.09570 0.12448 0.72081 -0.37300
O 	O 	0.16927 0.95952 0.66174 -0.44300
O 	O 	0.17959 0.04011 0.66489 -0.37900
O 	O 	0.86792 0.03447 0.64697 -0.39700
O 	O 	0.91252 0.05230 0.59057 -0.37100
O 	O 	0.99570 0.03517 0.78894 -0.37400
O 	O 	0.01848 0.97521 0.79075 -0.40500
O 	O 	0.97928 0.84902 0.58332 -0.41900
O 	O 	0.92372 0.84361 0.62111 -0.40200
O 	O 	0.04921 0.94813 0.63835 -0.76700
C 	C 	0.82668 0.90599 0.70247 0.31400
O 	O 	0.86787 0.93853 0.73769 -0.41300
O 	O 	0.84728 0.90464 0.67257 -0.39700
O 	O 	0.05074 0.84131 0.69144 -0.39500
O 	O 	0.08940 0.89980 0.74467 -0.39500
O 	O 	0.08891 0.97466 0.55528 -0.40300
O 	O 	0.99914 0.97429 0.53007 -0.38900
C 	C 	0.08663 0.00505 0.95060 0.02500
C 	C 	0.03259 0.97554 0.96865 -0.10000
C 	C 	0.96953 0.94048 0.93893 -0.00900
C 	C 	0.96070 0.93811 0.89045 -0.02000
C 	C 	0.01475 0.97187 0.87057 -0.08600
C 	C 	0.07767 0.00292 0.90195 0.01900
H 	H 	0.13562 0.03091 0.97366 0.04400
H 	H 	0.92732 0.91521 0.95320 0.03700
H 	H 	0.91180 0.91362 0.86681 0.03700
H 	H 	0.11987 0.02923 0.88721 0.04100
C 	C 	0.96481 0.93819 0.43827 -0.00600
C 	C 	0.02842 0.97424 0.46686 -0.10000
C 	C 	0.08157 0.00421 0.44743 0.02800
C 	C 	0.07112 0.00134 0.39860 0.01500
C 	C 	0.00755 0.96907 0.36843 -0.07400
C 	C 	0.95448 0.93508 0.38962 -0.02400
H 	H 	0.92330 0.91264 0.45358 0.03900
H 	H 	0.13100 0.03090 0.46958 0.04400
H 	H 	0.11257 0.02790 0.38282 0.04300
H 	H 	0.90511 0.90971 0.36690 0.03900
C 	C 	0.15400 0.28796 0.78047 -0.00600
C 	C 	0.11023 0.29386 0.78118 -0.02600
C 	C 	0.13366 0.34412 0.79680 -0.04200
C 	C 	0.20091 0.38862 0.81179 0.01800
C 	C 	0.24443 0.38033 0.81424 -0.04200
C 	C 	0.22103 0.33023 0.79844 -0.02700
C 	C 	0.22574 0.44799 0.81522 0.00700
C 	C 	0.25206 0.49957 0.81824 -0.03700
C 	C 	0.12992 0.24076 0.75837 0.05100
C 	C 	0.10528 0.19995 0.73920 -0.10200
H 	H 	0.05821 0.26079 0.76797 0.04200
H 	H 	0.09966 0.35002 0.79489 0.04700
H 	H 	0.29655 0.41442 0.82600 0.04700
H 	H 	0.25511 0.32552 0.79866 0.04300
C 	C 	0.64009 0.82098 0.69805 -0.01200
C 	C 	0.63275 0.85916 0.70401 -0.02800
C 	C 	0.57723 0.83255 0.71784 -0.04600
C 	C 	0.52867 0.76778 0.72534 0.01700
C 	C 	0.53359 0.73043 0.71531 -0.04400
C 	C 	0.58928 0.75699 0.70176 -0.02700
C 	C 	0.47771 0.73834 0.74873 0.00400
C 	C 	0.43342 0.70924 0.76829 -0.03900
C 	C 	0.70341 0.84528 0.69759 0.05000
C 	C 	0.75843 0.87038 0.69788 -0.11600
H 	H 	0.67164 0.90887 0.70070 0.03300
H 	H 	0.57339 0.86185 0.72485 0.04100
H 	H 	0.49569 0.68036 0.72035 0.04700
H 	H 	0.59430 0.72724 0.69682 0.04200
C 	C 	0.18397 0.78064 0.82334 -0.01000
C 	C 	0.14792 0.71494 0.83769 -0.02800
C 	C 	0.17444 0.68623 0.84438 -0.04400
C 	C 	0.23747 0.72312 0.83757 0.01700
C 	C 	0.27619 0.78843 0.82954 -0.04500
C 	C 	0.24960 0.81709 0.82275 -0.02900
C 	C 	0.25891 0.69525 0.83154 0.00400
C 	C 	0.27810 0.67324 0.82630 -0.03600
C 	C 	0.14977 0.80902 0.79512 0.04900
C 	C 	0.12141 0.83301 0.77147 -0.11200
H 	H 	0.09754 0.68620 0.83929 0.04200
H 	H 	0.14461 0.63560 0.85180 0.04700
H 	H 	0.32553 0.81729 0.82544 0.04200
H 	H 	0.27836 0.86785 0.81266 0.03600
C 	C 	0.18944 0.38937 0.30375 0.01800
C 	C 	0.12217 0.34635 0.28708 -0.04100
C 	C 	0.09817 0.29520 0.27240 -0.02600
C 	C 	0.14138 0.28688 0.27434 -0.00600
C 	C 	0.20826 0.32767 0.29396 -0.02700
C 	C 	0.23223 0.37868 0.30879 -0.04100
C 	C 	0.11700 0.23832 0.25378 0.05100
C 	C 	0.09247 0.19659 0.23580 -0.10200
C 	C 	0.21547 0.44974 0.30601 0.00800
C 	C 	0.24259 0.50190 0.30825 -0.03600
H 	H 	0.08873 0.35411 0.28314 0.04800
H 	H 	0.04623 0.26326 0.25794 0.04300
H 	H 	0.24188 0.32106 0.29627 0.04400
H 	H 	0.28434 0.41162 0.32183 0.04800
C 	C 	0.63153 0.81901 0.18858 -0.01200
C 	C 	0.62506 0.85806 0.19420 -0.02800
C 	C 	0.56944 0.83252 0.20720 -0.04600
C 	C 	0.51989 0.76798 0.21417 0.01700
C 	C 	0.52389 0.72990 0.20423 -0.04300
C 	C 	0.57969 0.75537 0.19152 -0.02600
C 	C 	0.46901 0.73937 0.23729 0.00500
C 	C 	0.42472 0.71088 0.25661 -0.03900
C 	C 	0.69486 0.84177 0.18972 0.05100
C 	C 	0.75002 0.86567 0.19141 -0.11600
H 	H 	0.66473 0.90752 0.19143 0.03300
H 	H 	0.56632 0.86242 0.21411 0.04100
H 	H 	0.48522 0.68002 0.20881 0.04800
H 	H 	0.58400 0.72497 0.18679 0.04200
C 	C 	0.23784 0.72803 0.33473 0.01700
C 	C 	0.27611 0.79346 0.32554 -0.04500
C 	C 	0.25008 0.82193 0.32030 -0.02900
C 	C 	0.18539 0.78515 0.32351 -0.01000
C 	C 	0.15033 0.71954 0.33926 -0.02700
C 	C 	0.17628 0.69101 0.34441 -0.04300
C 	C 	0.15013 0.81244 0.29608 0.04900
C 	C 	0.12093 0.83557 0.27307 -0.11200
C 	C 	0.25766 0.69994 0.32684 0.00400
C 	C 	0.27530 0.67756 0.32003 -0.03600
H 	H 	0.32443 0.82246 0.31927 0.04200
H 	H 	0.27819 0.87266 0.30921 0.03700
H 	H 	0.10079 0.69057 0.34298 0.04300
H 	H 	0.14692 0.64032 0.35281 0.04700
C 	C 	0.81233 0.26938 0.50466 0.01800
C 	C 	0.77826 0.22566 0.47612 -0.04100
C 	C 	0.80043 0.19166 0.48606 -0.02600
C 	C 	0.85647 0.20098 0.52478 -0.00600
C 	C 	0.89412 0.24948 0.54922 -0.02700
C 	C 	0.87196 0.28339 0.53936 -0.04200
C 	C 	0.86567 0.15217 0.54827 0.05500
C 	C 	0.87601 0.11303 0.57020 -0.10100
C 	C 	0.78153 0.29225 0.50427 0.00700
C 	C 	0.75580 0.31140 0.50397 -0.03400
H 	H 	0.73269 0.21534 0.44847 0.05000
H 	H 	0.77141 0.15494 0.46639 0.04700
H 	H 	0.93804 0.25773 0.57869 0.04300
H 	H 	0.89923 0.31788 0.56093 0.04600
C 	C 	0.79503 0.54170 0.57276 0.01800
C 	C 	0.74891 0.55056 0.56306 -0.04300
C 	C 	0.76704 0.59772 0.57952 -0.02600
C 	C 	0.83139 0.63636 0.60552 -0.01100
C 	C 	0.87579 0.62372 0.61906 -0.02600
C 	C 	0.85780 0.57685 0.60235 -0.04400
C 	C 	0.85638 0.69713 0.60577 0.05500
C 	C 	0.88523 0.75021 0.60679 -0.11400
C 	C 	0.77724 0.49617 0.55245 0.00600
C 	C 	0.75726 0.45682 0.53389 -0.03600
H 	H 	0.69964 0.52231 0.54135 0.04800
H 	H 	0.73223 0.60676 0.56912 0.04200
H 	H 	0.92555 0.65299 0.63960 0.03900
H 	H 	0.89321 0.56916 0.61121 0.04500
C 	C 	0.35600 0.13030 0.59186 -0.01200
C 	C 	0.34567 0.14333 0.53849 -0.02200
C 	C 	0.39664 0.17241 0.51720 -0.04200
C 	C 	0.45804 0.18849 0.54921 0.02100
C 	C 	0.46798 0.17467 0.60259 -0.04200
C 	C 	0.41718 0.14581 0.62382 -0.02200
C 	C 	0.51328 0.22825 0.52727 0.00900
C 	C 	0.56248 0.26207 0.51256 -0.03400
C 	C 	0.30194 0.09344 0.61440 0.06800
C 	C 	0.25675 0.06256 0.63342 -0.11800
H 	H 	0.29809 0.13042 0.51360 0.04400
H 	H 	0.38877 0.18362 0.47583 0.04900
H 	H 	0.51555 0.18761 0.62754 0.05000
H 	H 	0.42520 0.13489 0.66518 0.04500
C 	C 	0.84646 0.19553 0.02428 0.00000
C 	C 	0.79013 0.18593 0.98588 -0.03100
C 	C 	0.76816 0.22012 0.97589 -0.04700
C 	C 	0.80266 0.26435 0.00403 0.02700
C 	C 	0.86228 0.27825 0.03876 -0.04300
C 	C 	0.88424 0.24408 0.04872 -0.02700
C 	C 	0.77246 0.28840 0.00273 0.00200
C 	C 	0.74590 0.30767 0.00080 -0.02300
C 	C 	0.85631 0.14715 0.04720 0.05400
C 	C 	0.86688 0.10818 0.06829 -0.09900
H 	H 	0.76090 0.14903 0.96634 0.04700
H 	H 	0.72253 0.20975 0.94833 0.05000
H 	H 	0.88985 0.31304 0.06010 0.04700
H 	H 	0.92826 0.25242 0.07805 0.04400
C 	C 	0.78047 0.55128 0.04455 0.01900
C 	C 	0.78228 0.60292 0.00709 -0.03900
C 	C 	0.79741 0.64986 0.02157 -0.02100
C 	C 	0.81155 0.64592 0.07373 -0.01200
C 	C 	0.80619 0.59250 0.11098 -0.02600
C 	C 	0.79101 0.54544 0.09646 -0.04300
C 	C 	0.84834 0.70251 0.08921 0.05600
C 	C 	0.88059 0.75335 0.09693 -0.11300
C 	C 	0.75863 0.50023 0.02894 0.00400
C 	C 	0.74032 0.45771 0.01553 -0.02700
H 	H 	0.77214 0.60685 0.96671 0.04200
H 	H 	0.80150 0.69096 0.99245 0.03600
H 	H 	0.81723 0.58900 0.15141 0.04200
H 	H 	0.78767 0.50465 0.12556 0.04700
C 	C 	0.34043 0.12639 0.07981 -0.01200
C 	C 	0.37336 0.19092 0.05766 -0.02200
C 	C 	0.42240 0.22217 0.03328 -0.04300
C 	C 	0.43893 0.18903 0.03121 0.02200
C 	C 	0.40394 0.12399 0.05131 -0.04200
C 	C 	0.35471 0.09269 0.07554 -0.02100
C 	C 	0.49798 0.22325 0.01631 0.00600
C 	C 	0.54843 0.25656 0.00355 -0.02600
C 	C 	0.29213 0.09439 0.10711 0.06900
C 	C 	0.25101 0.06393 0.13051 -0.11800
H 	H 	0.36190 0.21708 0.06016 0.04400
H 	H 	0.44927 0.27253 0.01775 0.05000
H 	H 	0.41643 0.09806 0.04989 0.05300
H 	H 	0.32866 0.04252 0.09195 0.04800
