data_crystal

_cell_length_a 25.87535
_cell_length_b 26.66387
_cell_length_c 36.67822
_cell_angle_alpha 95.48880
_cell_angle_beta  95.48678
_cell_angle_gamma 125.83489

_symmetry_space_group_name_	'P 1'
_symmetry_space_group_name_H-M	'P 1'

loop_
_symmetry_equiv_pos_as_xyz
  x,y,z

loop_
_atom_site_label
_atom_site_type_symbol
_atom_site_fract_x
_atom_site_fract_y
_atom_site_fract_z
_atom_site_charge
C 	C 	0.97300 0.03547 0.00208 0.11700
N 	N 	0.02918 0.05980 0.98925 -0.12600
C 	C 	0.05595 0.02865 0.98865 0.11900
N 	N 	0.02366 0.97076 0.99802 -0.11900
C 	C 	0.96673 0.94576 0.01016 0.13000
N 	N 	0.94328 0.97970 0.01386 -0.12200
C 	C 	0.93209 0.99276 0.46201 0.16500
N 	N 	0.99793 0.03009 0.47015 -0.14400
C 	C 	0.02958 0.00434 0.47599 0.13200
N 	N 	0.99533 0.94129 0.47416 -0.12700
C 	C 	0.92950 0.90347 0.46509 0.13800
N 	N 	0.89784 0.92927 0.45878 -0.13200
Cu	Cu	0.65173 0.26006 0.00040 0.92800
Cu	Cu	0.69403 0.25377 0.91954 0.88400
Cu	Cu	0.68204 0.36277 0.95669 0.91500
Cu	Cu	0.63195 0.36305 0.02687 0.90000
C 	C 	0.65652 0.29555 0.07851 0.30900
O 	O 	0.55442 0.20923 0.99621 -0.34800
C 	C 	0.70233 0.34810 0.88368 0.30900
O 	O 	0.69259 0.35601 0.00763 -0.64300
O 	O 	0.64429 0.27130 0.94777 -0.63000
O 	O 	0.70940 0.23302 0.00069 -0.36300
O 	O 	0.67376 0.18340 0.94003 -0.41000
O 	O 	0.62398 0.31775 0.06884 -0.37000
O 	O 	0.72414 0.45168 0.96786 -0.36700
C 	C 	0.71135 0.47848 0.99393 0.29400
C 	C 	0.52278 0.23110 0.98465 0.28400
O 	O 	0.55486 0.29061 0.98169 -0.37500
O 	O 	0.66125 0.44430 0.01051 -0.37400
O 	O 	0.66793 0.26581 0.05337 -0.34800
C 	C 	0.70262 0.19209 0.97385 0.29900
O 	O 	0.67494 0.36571 0.90423 -0.36400
O 	O 	0.73555 0.33012 0.89900 -0.41300
H 	H 	0.73775 0.38617 0.02159 0.17200
H 	H 	0.59881 0.24531 0.93425 0.16900
Cu	Cu	0.73444 0.33453 0.45100 0.93100
Cu	Cu	0.75510 0.30437 0.53324 0.87700
Cu	Cu	0.64572 0.30817 0.50718 0.90000
Cu	Cu	0.60427 0.31795 0.43119 0.90100
C 	C 	0.67133 0.30013 0.37436 0.31200
O 	O 	0.76235 0.42187 0.44522 -0.34800
C 	C 	0.70536 0.34115 0.58712 0.30700
O 	O 	0.63583 0.27925 0.45528 -0.64100
O 	O 	0.73968 0.35367 0.50509 -0.64100
O 	O 	0.78757 0.30262 0.45286 -0.35500
O 	O 	0.73383 0.23990 0.49394 -0.42500
O 	O 	0.63972 0.32249 0.38442 -0.36900
O 	O 	0.55333 0.25781 0.50686 -0.37000
C 	C 	0.50912 0.25254 0.48198 0.29700
C 	C 	0.73400 0.44519 0.45919 0.28600
O 	O 	0.67680 0.40746 0.46812 -0.38000
O 	O 	0.52389 0.28081 0.45282 -0.37500
O 	O 	0.71366 0.30202 0.39873 -0.35400
C 	C 	0.76960 0.25354 0.46821 0.29400
O 	O 	0.65791 0.32973 0.56178 -0.36900
O 	O 	0.75723 0.34892 0.57791 -0.40500
H 	H 	0.60949 0.23294 0.44751 0.17800
H 	H 	0.76669 0.39894 0.51641 0.18900
C 	C 	0.70070 0.36551 0.77440 0.00000
C 	C 	0.64202 0.32616 0.74873 -0.02800
C 	C 	0.64175 0.32549 0.71054 -0.02900
C 	C 	0.70016 0.36416 0.69788 0.00200
C 	C 	0.75844 0.40561 0.72366 -0.02900
C 	C 	0.75871 0.40628 0.76185 -0.02700
C 	C 	0.70132 0.35640 0.65866 0.05300
C 	C 	0.70273 0.35019 0.62588 -0.09500
C 	C 	0.70201 0.36026 0.81312 0.05600
C 	C 	0.70248 0.35543 0.84546 -0.10200
H 	H 	0.59692 0.29478 0.75826 0.05000
H 	H 	0.59647 0.29348 0.69079 0.05200
H 	H 	0.80376 0.43582 0.71408 0.05200
H 	H 	0.80421 0.43712 0.78155 0.05200
C 	C 	0.67197 0.27551 0.18696 0.00500
C 	C 	0.61516 0.23197 0.19971 -0.02700
C 	C 	0.61647 0.23165 0.23787 -0.02700
C 	C 	0.67458 0.27482 0.26344 0.00400
C 	C 	0.73218 0.31575 0.25051 -0.02600
C 	C 	0.73086 0.31612 0.21232 -0.02800
C 	C 	0.67347 0.28283 0.30266 0.05600
C 	C 	0.67249 0.28949 0.33549 -0.08600
C 	C 	0.66835 0.28327 0.14872 0.05500
C 	C 	0.66403 0.28885 0.11658 -0.08400
H 	H 	0.56954 0.20005 0.18022 0.05600
H 	H 	0.57182 0.19960 0.24764 0.05200
H 	H 	0.77742 0.34900 0.27010 0.05500
H 	H 	0.77509 0.34957 0.20264 0.05300
C 	C 	0.76183 0.59035 0.42910 -0.03700
C 	C 	0.81044 0.63833 0.45875 0.02700
C 	C 	0.83414 0.62291 0.48856 -0.03700
C 	C 	0.80903 0.55958 0.48878 0.02400
C 	C 	0.76107 0.51172 0.45885 -0.07400
C 	C 	0.73777 0.52726 0.42890 0.02500
C 	C 	0.83760 0.70550 0.45824 0.01400
C 	C 	0.88426 0.67226 0.51898 0.10500
C 	C 	0.68937 0.47839 0.39773 0.08000
C 	C 	0.81420 0.73376 0.47832 -0.02300
C 	C 	0.84281 0.79829 0.47984 -0.00200
C 	C 	0.89290 0.83395 0.45975 -0.01300
C 	C 	0.91179 0.80383 0.43682 -0.00200
C 	C 	0.88631 0.74058 0.43740 -0.02300
C 	C 	0.76079 0.69641 0.49748 0.10200
C 	C 	0.95606 0.83742 0.41191 0.10300
C 	C 	0.82140 0.82798 0.50253 0.10400
C 	C 	0.91070 0.71173 0.41690 0.10200
C 	C 	0.73667 0.60603 0.39879 0.10600
C 	C 	0.83197 0.54363 0.52000 0.07900
N 	N 	0.80406 0.85142 0.52063 -0.09300
N 	N 	0.71816 0.66653 0.51274 -0.10000
N 	N 	0.99138 0.86419 0.39203 -0.09400
N 	N 	0.93012 0.68865 0.40057 -0.10100
N 	N 	0.92423 0.71169 0.54326 -0.10200
N 	N 	0.85033 0.53106 0.54497 -0.11000
N 	N 	0.65075 0.43960 0.37279 -0.10400
N 	N 	0.71669 0.61863 0.37461 -0.10100
C 	C 	0.84855 0.06742 0.48468 -0.03100
C 	C 	0.84950 0.09241 0.45232 0.01800
C 	C 	0.87115 0.07877 0.42166 -0.02900
C 	C 	0.89409 0.04223 0.42395 0.00500
C 	C 	0.89792 0.02151 0.45741 -0.03800
C 	C 	0.87450 0.03360 0.48766 0.01000
C 	C 	0.83123 0.13618 0.45145 0.02200
C 	C 	0.87078 0.10322 0.38806 0.10200
C 	C 	0.87994 0.01388 0.52243 0.07700
C 	C 	0.87716 0.20051 0.46770 -0.03700
C 	C 	0.85784 0.24016 0.47139 0.02100
C 	C 	0.79276 0.21572 0.45828 -0.07900
C 	C 	0.74826 0.15278 0.43919 0.02300
C 	C 	0.76724 0.11279 0.43617 -0.03200
C 	C 	0.94398 0.22550 0.48122 0.10200
C 	C 	0.68309 0.12937 0.42255 0.08600
C 	C 	0.90439 0.30556 0.48967 0.07500
C 	C 	0.72084 0.04744 0.41781 0.08700
C 	C 	0.82154 0.07720 0.51503 0.10000
C 	C 	0.91394 0.02611 0.39196 0.09300
N 	N 	0.94151 0.35773 0.50427 -0.10700
N 	N 	0.99727 0.24534 0.49201 -0.10400
N 	N 	0.63111 0.11076 0.40928 -0.10700
N 	N 	0.68386 0.99528 0.40316 -0.08600
N 	N 	0.87047 0.12278 0.36127 -0.10200
N 	N 	0.92972 0.01320 0.36641 -0.09700
N 	N 	0.88446 0.99836 0.55023 -0.07800
C 	C 	0.34820 0.21682 0.49621 -0.03600
C 	C 	0.30879 0.15060 0.49177 0.02300
C 	C 	0.33684 0.11863 0.48840 -0.03100
C 	C 	0.40318 0.15229 0.48643 0.02000
C 	C 	0.44174 0.21814 0.48853 -0.07300
C 	C 	0.41478 0.25064 0.49496 0.02500
C 	C 	0.23692 0.11411 0.48790 0.01500
C 	C 	0.29715 0.05103 0.48644 0.08600
C 	C 	0.45573 0.31888 0.50065 0.09000
C 	C 	0.19784 0.09273 0.45221 -0.02400
C 	C 	0.12990 0.05733 0.44836 -0.00200
C 	C 	0.10093 0.04376 0.48023 -0.01500
C 	C 	0.14004 0.06603 0.51598 -0.00300
C 	C 	0.20801 0.10094 0.51981 -0.02400
C 	C 	0.22768 0.10707 0.41947 0.10100
C 	C 	0.11031 0.05320 0.54878 0.09800
C 	C 	0.08967 0.03417 0.41158 0.10100
C 	C 	0.24825 0.12321 0.55650 0.10100
C 	C 	0.31994 0.24993 0.50153 0.10500
C 	C 	0.43134 0.11904 0.48129 0.08300
N 	N 	0.25158 0.11856 0.39338 -0.10300
N 	N 	0.08651 0.04293 0.57493 -0.09800
N 	N 	0.28043 0.14101 0.58576 -0.10300
N 	N 	0.26540 0.99708 0.48488 -0.08600
N 	N 	0.45384 0.09252 0.47718 -0.10800
N 	N 	0.48841 0.37332 0.50520 -0.09900
N 	N 	0.29731 0.27629 0.50577 -0.10100
C 	C 	0.92438 0.79123 0.03284 -0.02100
C 	C 	0.85706 0.75009 0.01858 0.01400
C 	C 	0.82425 0.77468 0.00648 -0.02400
C 	C 	0.85981 0.83811 0.00249 -0.00500
C 	C 	0.92770 0.87962 0.01628 -0.01000
C 	C 	0.95872 0.85647 0.03394 -0.00900
C 	C 	0.82179 0.68050 0.01267 0.02500
C 	C 	0.75392 0.73413 0.99722 0.10400
C 	C 	0.02513 0.89976 0.05413 0.11200
C 	C 	0.80374 0.64878 0.04302 -0.03700
C 	C 	0.76960 0.58288 0.03709 0.02300
C 	C 	0.74715 0.54783 0.00033 -0.07600
C 	C 	0.76161 0.57962 0.96981 0.02700
C 	C 	0.80292 0.64584 0.97624 -0.03700
C 	C 	0.81980 0.68388 0.08023 0.10600
C 	C 	0.73130 0.54439 0.93195 0.09700
C 	C 	0.75973 0.55158 0.06877 0.07900
C 	C 	0.82610 0.67849 0.94539 0.10500
C 	C 	0.95848 0.76630 0.04547 0.10000
C 	C 	0.82719 0.85927 0.98214 0.10800
N 	N 	0.75189 0.52662 0.09405 -0.11200
N 	N 	0.83266 0.71194 0.10992 -0.10100
N 	N 	0.70715 0.51635 0.90173 -0.09400
N 	N 	0.84463 0.70461 0.92082 -0.10100
N 	N 	0.69780 0.70170 0.98983 -0.09900
N 	N 	0.80096 0.87594 0.96590 -0.09600
N 	N 	0.07813 0.93432 0.07023 -0.09400
N 	N 	0.98565 0.74636 0.05554 -0.10200
C 	C 	0.90573 0.12539 0.02589 -0.02600
C 	C 	0.86311 0.10802 0.99219 0.01700
C 	C 	0.85977 0.07010 0.96110 -0.02700
C 	C 	0.89843 0.04895 0.96384 0.00200
C 	C 	0.93927 0.06439 0.99793 -0.01300
C 	C 	0.94377 0.10350 0.02876 -0.00300
C 	C 	0.82276 0.13099 0.98908 0.02400
C 	C 	0.81619 0.05258 0.92641 0.10000
C 	C 	0.98757 0.12116 0.06338 0.09400
C 	C 	0.84615 0.18722 0.97577 -0.03800
C 	C 	0.80657 0.20706 0.97065 0.02600
C 	C 	0.74368 0.17093 0.97913 -0.08400
C 	C 	0.72080 0.11546 0.99326 0.02700
C 	C 	0.76030 0.09540 0.99817 -0.03100
C 	C 	0.91091 0.22444 0.96721 0.10300
C 	C 	0.65665 0.07907 0.00267 0.08500
C 	C 	0.83051 0.26476 0.95673 0.05500
C 	C 	0.73676 0.03808 0.01241 0.08700
C 	C 	0.91017 0.16558 0.05756 0.10100
N 	N 	0.84958 0.31076 0.94562 -0.12200
N 	N 	0.96258 0.25406 0.96039 -0.10500
N 	N 	0.60546 0.05006 0.01018 -0.09900
N 	N 	0.71806 0.99236 0.02378 -0.08500
N 	N 	0.78139 0.03865 0.89876 -0.10600
N 	N 	0.89412 0.98061 0.90605 -0.08200
N 	N 	0.02251 0.13522 0.09099 -0.09100
N 	N 	0.91366 0.19767 0.08280 -0.10300
C 	C 	0.19559 0.04885 0.94864 -0.01100
C 	C 	0.24863 0.10803 0.96941 0.00800
C 	C 	0.23756 0.14476 0.99271 -0.01900
C 	C 	0.17447 0.11915 0.99903 -0.00600
C 	C 	0.12136 0.05871 0.97936 -0.00500
C 	C 	0.13181 0.02532 0.95255 -0.02500
C 	C 	0.31633 0.12930 0.96959 0.02600
C 	C 	0.29147 0.20850 0.01074 0.09800
C 	C 	0.07698 0.96744 0.92862 0.12500
C 	C 	0.34946 0.16030 0.94141 -0.03800
C 	C 	0.41627 0.18860 0.94471 0.02200
C 	C 	0.45091 0.18990 0.97743 -0.07400
C 	C 	0.41693 0.15600 0.00470 0.01800
C 	C 	0.34927 0.12362 0.99989 -0.03500
C 	C 	0.31511 0.16423 0.90953 0.10400
C 	C 	0.45188 0.15726 0.03859 0.09300
C 	C 	0.44916 0.21551 0.91428 0.08100
C 	C 	0.31361 0.08564 0.02658 0.10100
C 	C 	0.20678 0.01173 0.92387 0.07900
C 	C 	0.16473 0.15366 0.02704 0.10100
N 	N 	0.47545 0.23698 0.89002 -0.10900
N 	N 	0.28764 0.16732 0.88409 -0.10400
N 	N 	0.47973 0.15829 0.06565 -0.09800
N 	N 	0.28505 0.05534 0.04786 -0.10300
N 	N 	0.33454 0.25933 0.02511 -0.10400
N 	N 	0.15701 0.18122 0.04939 -0.09600
N 	N 	0.03320 0.92125 0.90955 -0.09700
N 	N 	0.21579 0.98216 0.90411 -0.08500
N 	N 	0.79994 0.08504 0.53922 -0.10900
N 	N 	0.05761 0.01567 0.38223 -0.09400
C 	C 	0.89600 0.01094 0.93167 0.08300
