data_crystal

_cell_length_a 17.60704
_cell_length_b 17.10149
_cell_length_c 45.89961
_cell_angle_alpha 90.75475
_cell_angle_beta  91.05877
_cell_angle_gamma 110.82727

_symmetry_space_group_name_	'P 1'
_symmetry_space_group_name_H-M	'P 1'

loop_
_symmetry_equiv_pos_as_xyz
  x,y,z

loop_
_atom_site_label
_atom_site_type_symbol
_atom_site_fract_x
_atom_site_fract_y
_atom_site_fract_z
_atom_site_charge
O 	O 	0.07373 0.88109 0.75326 -0.70300
Ni	Ni	0.09958 0.98980 0.77551 1.09400
O 	O 	0.11909 0.77750 0.71010 -0.37000
Ni	Ni	0.17663 0.87582 0.73973 1.07800
O 	O 	0.18117 0.97035 0.71242 -0.42200
O 	O 	0.18216 0.97363 0.80403 -0.37100
O 	O 	0.01814 0.00142 0.74546 -0.68800
O 	O 	0.10056 0.09474 0.79819 -0.33900
H 	H 	0.04538 0.83199 0.76513 0.17600
H 	H 	0.04060 0.05349 0.73431 0.16800
C 	C 	0.20488 0.04836 0.72246 0.31600
C 	C 	0.04487 0.75824 0.69897 0.30600
C 	C 	0.25201 0.97313 0.79475 0.27700
C 	C 	0.03161 0.10413 0.80442 0.28800
O 	O 	0.19190 0.06497 0.74991 -0.36000
O 	O 	0.26088 0.96032 0.76681 -0.38900
Ni	Ni	0.35800 0.75655 0.41199 1.10100
O 	O 	0.34847 0.67021 0.37897 -0.69800
Ni	Ni	0.23585 0.65508 0.36360 1.10000
O 	O 	0.44996 0.73890 0.43609 -0.35000
O 	O 	0.44856 0.61335 0.41874 -0.38500
O 	O 	0.44480 0.84842 0.38968 -0.35100
Ni	Ni	0.34417 0.56084 0.39296 1.07400
O 	O 	0.34822 0.93236 0.40556 -0.40900
O 	O 	0.27073 0.56915 0.42580 -0.41800
O 	O 	0.22403 0.56226 0.33379 -0.36800
O 	O 	0.25305 0.74987 0.39312 -0.71200
O 	O 	0.35991 0.84585 0.44181 -0.38000
O 	O 	0.12899 0.66456 0.34850 -0.34600
O 	O 	0.19241 0.80314 0.33921 -0.40000
Ni	Ni	0.27200 0.85671 0.37421 1.06600
H 	H 	0.38859 0.69060 0.36347 0.18000
H 	H 	0.20908 0.73764 0.40741 0.15800
C 	C 	0.19523 0.56396 0.42061 0.27300
O 	O 	0.36676 0.85263 0.34993 -0.40700
C 	C 	0.45252 0.66434 0.44085 0.28800
C 	C 	0.23151 0.49204 0.34176 0.30400
C 	C 	0.43834 0.86367 0.36194 0.29800
C 	C 	0.12514 0.73776 0.34204 0.29000
C 	C 	0.34782 0.91418 0.43352 0.31200
O 	O 	0.16946 0.56988 0.39368 -0.35600
O 	O 	0.24767 0.48135 0.36927 -0.39200
Ni	Ni	0.36805 0.66971 0.11642 1.10100
O 	O 	0.26823 0.62492 0.08861 -0.69800
Ni	Ni	0.19814 0.68667 0.10424 1.10000
O 	O 	0.42217 0.58912 0.10138 -0.34500
O 	O 	0.30824 0.47264 0.09936 -0.38800
O 	O 	0.43325 0.74835 0.08442 -0.36100
Ni	Ni	0.20651 0.50453 0.09220 1.07100
O 	O 	0.47366 0.85155 0.12975 -0.40200
O 	O 	0.19817 0.51596 0.13619 -0.39400
O 	O 	0.10438 0.64011 0.07493 -0.37500
O 	O 	0.29770 0.73150 0.13183 -0.70100
O 	O 	0.14419 0.76711 0.11967 -0.34400
O 	O 	0.25717 0.88404 0.11700 -0.40300
Ni	Ni	0.35796 0.85091 0.12473 1.07000
H 	H 	0.28163 0.63904 0.06803 0.15300
H 	H 	0.28493 0.72018 0.15262 0.17700
C 	C 	0.14438 0.54381 0.14725 0.31000
O 	O 	0.35668 0.83067 0.08108 -0.41800
C 	C 	0.37875 0.51739 0.08894 0.30600
C 	C 	0.07754 0.56046 0.06728 0.28400
C 	C 	0.40671 0.79896 0.06940 0.28600
C 	C 	0.18597 0.84446 0.12804 0.29600
O 	O 	0.12859 0.60581 0.13495 -0.35000
O 	O 	0.09241 0.50549 0.08417 -0.40200
O 	O 	0.07202 0.20300 0.24083 -0.35700
O 	O 	0.11511 0.07634 0.22190 -0.38300
O 	O 	0.02255 0.09639 0.19010 -0.34400
O 	O 	0.01100 0.96061 0.29656 -0.40900
Ni	Ni	0.05533 0.01892 0.25784 1.07900
O 	O 	0.08308 0.12862 0.28055 -0.40100
C 	C 	0.09722 0.20038 0.26783 0.30900
C 	C 	0.07931 0.06475 0.19582 0.30300
C 	C 	0.98140 0.36250 0.20177 -0.07300
C 	C 	0.95110 0.39259 0.17743 0.13100
C 	C 	0.00379 0.45717 0.16103 -0.02900
C 	C 	0.08693 0.49191 0.16856 -0.07300
C 	C 	0.11543 0.46778 0.19456 0.13400
H 	H 	0.98089 0.47702 0.14148 0.08100
Br	Br	0.83908 0.34269 0.16516 -0.19700
C 	C 	0.14864 0.97121 0.13149 -0.06000
C 	C 	0.14389 0.89362 0.14273 -0.07700
C 	C 	0.10689 0.86836 0.16967 0.11400
C 	C 	0.07980 0.92273 0.18579 -0.04900
C 	C 	0.09114 0.00309 0.17570 -0.08400
C 	C 	0.12319 0.02632 0.14797 0.15000
Br	Br	0.13758 0.13487 0.13301 -0.20200
H 	H 	0.17509 0.99003 0.11041 0.07400
H 	H 	0.05344 0.90404 0.20690 0.02000
Br	Br	0.09889 0.76287 0.18602 -0.22300
C 	C 	0.09042 0.28470 0.31113 -0.03700
C 	C 	0.12963 0.27771 0.28546 -0.09200
C 	C 	0.20237 0.34187 0.27817 0.12700
C 	C 	0.23517 0.41209 0.29669 -0.03600
C 	C 	0.19643 0.41821 0.32260 -0.08100
C 	C 	0.12266 0.35492 0.32946 0.12800
H 	H 	0.03485 0.23509 0.31695 0.05100
H 	H 	0.29135 0.46132 0.29114 0.06900
Br	Br	0.26022 0.33247 0.24403 -0.18800
C 	C 	0.00451 0.77622 0.35095 -0.04400
C 	C 	0.04742 0.74301 0.33199 -0.08100
C 	C 	0.02488 0.73239 0.30222 0.12600
C 	C 	0.97044 0.76826 0.29111 -0.04500
C 	C 	0.94254 0.81841 0.30929 -0.07900
C 	C 	0.95054 0.81239 0.33964 0.12700
H 	H 	0.01776 0.77989 0.37419 0.04800
H 	H 	0.95919 0.76703 0.26778 0.05800
Br	Br	0.07327 0.67603 0.27610 -0.20200
C 	C 	0.36279 0.98062 0.45447 -0.13500
C 	C 	0.02340 0.47109 0.48837 0.01200
C 	C 	0.99722 0.45973 0.45908 -0.04400
C 	C 	0.05280 0.49150 0.43697 0.01000
C 	C 	0.16148 0.54576 0.47340 0.00600
C 	C 	0.10563 0.51415 0.49548 -0.04900
C 	C 	0.13543 0.53453 0.44397 -0.07200
H 	H 	0.03159 0.48220 0.41445 0.06500
H 	H 	0.22483 0.57936 0.47919 0.03500
H 	H 	0.12616 0.52425 0.51809 0.05400
C 	C 	0.56509 0.58804 0.49808 -0.05100
C 	C 	0.54036 0.60828 0.47099 0.01300
C 	C 	0.48323 0.64823 0.46937 -0.07500
H 	H 	0.60835 0.55613 0.49908 0.03800
H 	H 	0.56526 0.59251 0.45131 0.04600
C 	C 	0.34271 0.15697 0.71996 -0.02800
C 	C 	0.26687 0.11356 0.70636 -0.08200
C 	C 	0.25543 0.12456 0.67649 0.12700
C 	C 	0.32172 0.17100 0.65995 -0.03100
C 	C 	0.39945 0.20688 0.67302 -0.07200
C 	C 	0.40896 0.20340 0.70339 0.11700
Br	Br	0.51306 0.25727 0.72237 -0.21200
H 	H 	0.35142 0.15060 0.74313 0.08100
H 	H 	0.31359 0.17600 0.63667 0.07700
Br	Br	0.14978 0.07713 0.65801 -0.21900
C 	C 	0.95881 0.56948 0.03929 0.02100
C 	C 	0.02122 0.47117 0.02316 0.01100
C 	C 	0.97187 0.45344 0.99792 -0.05400
C 	C 	0.01642 0.53101 0.04356 -0.08200
H 	H 	0.95359 0.61469 0.05514 0.05200
H 	H 	0.06530 0.44093 0.02629 0.01700
H 	H 	0.97742 0.40886 0.98186 0.04900
C 	C 	0.43793 0.89920 0.99616 -0.04200
C 	C 	0.40033 0.84675 0.01884 0.00500
C 	C 	0.53214 0.87192 0.04197 0.00800
C 	C 	0.44698 0.83515 0.04238 -0.07600
H 	H 	0.40105 0.91016 0.97864 0.04900
H 	H 	0.33465 0.81810 0.01878 0.03200
H 	H 	0.56887 0.86338 0.05999 0.05300
C 	C 	0.40520 0.49146 0.06240 -0.10900
C 	C 	0.42634 0.47105 0.03962 0.04800
H 	H 	0.40713 0.52970 0.98709 0.04600
C 	C 	0.46370 0.03646 0.82803 0.01700
C 	C 	0.47261 0.11446 0.84076 -0.10000
C 	C 	0.40750 0.14420 0.83897 0.14900
C 	C 	0.33459 0.09557 0.82504 -0.05700
C 	C 	0.32543 0.01745 0.81252 -0.01000
C 	C 	0.39033 0.98762 0.81416 0.06200
Br	Br	0.37842 0.87844 0.79914 -0.24800
H 	H 	0.51280 0.01239 0.82982 0.06100
H 	H 	0.28554 0.11972 0.82321 0.09600
Ni	Ni	0.61869 0.27645 0.90918 1.10100
O 	O 	0.63403 0.35406 0.87391 -0.69500
Ni	Ni	0.74675 0.36184 0.86270 1.10100
O 	O 	0.52353 0.30151 0.92671 -0.34800
O 	O 	0.53420 0.42731 0.90811 -0.38100
O 	O 	0.53511 0.17922 0.88603 -0.35200
Ni	Ni	0.63987 0.46839 0.88422 1.07500
O 	O 	0.62309 0.09652 0.90951 -0.39600
O 	O 	0.70949 0.47046 0.92042 -0.41400
O 	O 	0.76462 0.44735 0.83046 -0.35400
O 	O 	0.72477 0.27642 0.89502 -0.71100
O 	O 	0.61056 0.19486 0.94189 -0.37600
O 	O 	0.85405 0.34661 0.85334 -0.34600
O 	O 	0.78994 0.20565 0.84685 -0.39600
Ni	Ni	0.70615 0.16365 0.87988 1.06900
H 	H 	0.59530 0.33026 0.85746 0.18300
H 	H 	0.76702 0.29239 0.91076 0.15900
C 	C 	0.78019 0.46118 0.91847 0.28600
O 	O 	0.61701 0.16235 0.85060 -0.40500
C 	C 	0.52589 0.37842 0.93064 0.28800
C 	C 	0.75762 0.52016 0.83561 0.30300
C 	C 	0.54504 0.15862 0.85913 0.31100
C 	C 	0.85743 0.27149 0.84997 0.29100
C 	C 	0.61632 0.12107 0.93658 0.30500
O 	O 	0.80977 0.45358 0.89283 -0.36400
O 	O 	0.73981 0.53882 0.86199 -0.39900
Ni	Ni	0.59086 0.35197 0.61799 1.10700
O 	O 	0.67522 0.37713 0.58568 -0.69500
Ni	Ni	0.75174 0.32362 0.60119 1.10200
O 	O 	0.54644 0.44438 0.60706 -0.35400
O 	O 	0.67433 0.53690 0.60377 -0.40200
O 	O 	0.50546 0.27142 0.58977 -0.36700
Ni	Ni	0.73855 0.49139 0.57522 1.07700
O 	O 	0.48064 0.17694 0.63631 -0.39400
O 	O 	0.84082 0.52109 0.60157 -0.39000
O 	O 	0.84872 0.37082 0.57350 -0.36400
O 	O 	0.65836 0.28503 0.63013 -0.69800
O 	O 	0.50770 0.31433 0.64992 -0.35000
O 	O 	0.80493 0.24527 0.61903 -0.34100
O 	O 	0.68716 0.13161 0.61473 -0.39700
Ni	Ni	0.58988 0.16744 0.62572 1.07600
H 	H 	0.65028 0.34723 0.56737 0.15400
H 	H 	0.67756 0.29863 0.65063 0.18900
C 	C 	0.84250 0.49219 0.62782 0.31800
O 	O 	0.56843 0.17708 0.58253 -0.40700
C 	C 	0.59630 0.51697 0.59836 0.30900
C 	C 	0.84829 0.41389 0.54960 0.31000
C 	C 	0.51992 0.21509 0.57331 0.28900
C 	C 	0.76050 0.16843 0.62633 0.29600
C 	C 	0.47085 0.23350 0.65446 0.29700
O 	O 	0.80952 0.41181 0.63267 -0.35900
O 	O 	0.79073 0.44462 0.54403 -0.41700
Ni	Ni	0.00363 0.90194 0.71994 1.10100
O 	O 	0.01836 0.81734 0.69102 -0.35400
O 	O 	0.90268 0.81282 0.73719 -0.36700
O 	O 	0.84493 0.94206 0.72437 -0.39200
O 	O 	0.93117 0.92890 0.68953 -0.33700
O 	O 	0.96263 0.04052 0.80167 -0.37600
Ni	Ni	0.91245 0.99109 0.76124 1.06400
O 	O 	0.88666 0.87709 0.77945 -0.38500
C 	C 	0.88750 0.81026 0.76528 0.29600
C 	C 	0.87520 0.95821 0.69807 0.26700
O 	O 	0.46379 0.72184 0.14488 -0.35000
C 	C 	0.49429 0.80376 0.14820 0.30200
Ni	Ni	0.96246 0.12128 0.22436 1.10600
O 	O 	0.90681 0.13912 0.26175 -0.69800
Ni	Ni	0.87481 0.02252 0.27714 1.10500
O 	O 	0.94470 0.21407 0.20082 -0.35300
O 	O 	0.87240 0.27000 0.22993 -0.36300
Ni	Ni	0.80810 0.16206 0.25309 1.08600
O 	O 	0.78996 0.07740 0.21961 -0.38500
O 	O 	0.80088 0.03444 0.30921 -0.37300
O 	O 	0.94811 0.01486 0.24440 -0.69300
O 	O 	0.87238 0.90925 0.29286 -0.35400
H 	H 	0.94237 0.18113 0.27575 0.16500
H 	H 	0.92176 0.96607 0.23118 0.15200
C 	C 	0.75834 0.99633 0.22460 0.26700
C 	C 	0.93539 0.27923 0.21326 0.30800
C 	C 	0.73313 0.04671 0.30263 0.30300
C 	C 	0.94165 0.89735 0.29759 0.28900
O 	O 	0.77525 0.96482 0.24928 -0.36200
O 	O 	0.72238 0.07288 0.27647 -0.36300
C 	C 	0.06271 0.40308 0.21097 -0.02900
Br	Br	0.22545 0.52346 0.20827 -0.20400
H 	H 	0.08594 0.38187 0.23015 0.07700
C 	C 	0.69511 0.87544 0.19039 -0.04200
C 	C 	0.68928 0.94396 0.20609 -0.06500
C 	C 	0.61655 0.96099 0.20439 0.11200
C 	C 	0.55085 0.90915 0.18751 -0.03000
C 	C 	0.55785 0.84353 0.17056 -0.08800
C 	C 	0.63058 0.82633 0.17208 0.13300
Br	Br	0.64536 0.74022 0.14809 -0.19800
H 	H 	0.75068 0.86185 0.19169 0.06300
H 	H 	0.49518 0.92265 0.18639 0.04000
Br	Br	0.60619 0.05689 0.22367 -0.21700
C 	C 	0.65052 0.92596 0.33205 -0.05000
C 	C 	0.66032 0.00393 0.31998 -0.05700
C 	C 	0.59659 0.03560 0.32186 0.14700
C 	C 	0.52288 0.98731 0.33426 -0.06800
C 	C 	0.51290 0.90895 0.34599 -0.07200
C 	C 	0.57779 0.87885 0.34517 0.13000
Br	Br	0.56810 0.77253 0.36108 -0.24300
H 	H 	0.69882 0.90078 0.33064 0.08900
H 	H 	0.47436 0.01218 0.33572 0.08600
Br	Br	0.61110 0.14715 0.30993 -0.23000
Br	Br	0.06305 0.36465 0.36311 -0.21800
Br	Br	0.89780 0.86433 0.36565 -0.22500
C 	C 	0.40436 0.10064 0.49458 0.00300
C 	C 	0.48303 0.16059 0.49409 -0.04500
C 	C 	0.51912 0.20425 0.51960 0.01300
C 	C 	0.39412 0.13677 0.54515 0.01700
C 	C 	0.35831 0.09238 0.51968 -0.04500
C 	C 	0.37939 0.03614 0.47246 0.08500
C 	C 	0.47610 0.18900 0.54554 -0.08100
H 	H 	0.51843 0.16853 0.47455 0.05500
H 	H 	0.58203 0.24601 0.51962 0.02300
H 	H 	0.35999 0.12601 0.56505 0.04700
H 	H 	0.29686 0.04720 0.52006 0.05600
C 	C 	0.91277 0.42944 0.52926 -0.09200
C 	C 	0.96441 0.44684 0.51106 0.04900
H 	H 	0.93355 0.42737 0.45344 0.05600
C 	C 	0.53285 0.60729 0.52373 0.00900
C 	C 	0.57190 0.55303 0.57347 -0.12800
C 	C 	0.45262 0.66950 0.49515 0.01000
C 	C 	0.47719 0.64881 0.52225 -0.04800
C 	C 	0.55331 0.57955 0.55129 0.04500
H 	H 	0.40833 0.70013 0.49416 0.03500
H 	H 	0.45194 0.66382 0.54198 0.05400
C 	C 	0.85523 0.09245 0.68928 -0.05300
C 	C 	0.84925 0.01290 0.67890 -0.03200
C 	C 	0.81845 0.98664 0.65045 0.07700
C 	C 	0.79336 0.03976 0.63287 0.00300
C 	C 	0.79766 0.11864 0.64352 -0.09500
C 	C 	0.82936 0.14516 0.67186 0.12900
Br	Br	0.83334 0.25100 0.68788 -0.21600
H 	H 	0.87937 0.11310 0.71109 0.04300
H 	H 	0.76865 0.01885 0.61116 0.06900
Br	Br	0.80494 0.87660 0.63585 -0.20300
C 	C 	0.98140 0.58743 0.64200 -0.02100
C 	C 	0.90035 0.54608 0.64961 -0.07700
C 	C 	0.87379 0.56314 0.67690 0.13100
C 	C 	0.92618 0.62678 0.69499 -0.02800
C 	C 	0.00429 0.67471 0.68581 -0.07900
C 	C 	0.03333 0.65183 0.65986 0.12900
Br	Br	0.14157 0.71202 0.64723 -0.21600
H 	H 	0.00299 0.57218 0.62150 0.07200
H 	H 	0.90414 0.64296 0.71525 0.06900
Br	Br	0.76443 0.50498 0.68884 -0.21000
C 	C 	0.91717 0.49495 0.99311 0.01600
C 	C 	0.90946 0.55152 0.01413 -0.05300
C 	C 	0.83037 0.47202 0.94416 -0.10300
C 	C 	0.87061 0.48166 0.96629 0.04100
H 	H 	0.86638 0.58288 0.01071 0.05600
C 	C 	0.52242 0.94055 0.99683 -0.01400
C 	C 	0.58717 0.05781 0.95814 -0.09800
C 	C 	0.56971 0.92487 0.01932 -0.04200
C 	C 	0.55931 0.00422 0.97587 0.07700
H 	H 	0.63517 0.95590 0.01984 0.04500
C 	C 	0.45085 0.44754 0.01216 0.01400
C 	C 	0.48883 0.38830 0.01112 -0.04800
C 	C 	0.51277 0.36548 0.98446 0.01300
C 	C 	0.46048 0.46113 0.95967 0.01400
C 	C 	0.43663 0.48387 0.98641 -0.05200
C 	C 	0.49868 0.40167 0.95856 -0.07500
H 	H 	0.50009 0.36009 0.03097 0.05900
H 	H 	0.54306 0.32032 0.98397 0.04300
H 	H 	0.44884 0.48934 0.93990 0.04300
C 	C 	0.96950 0.22042 0.86048 -0.03800
C 	C 	0.93435 0.26318 0.84189 -0.08200
C 	C 	0.96187 0.27893 0.81319 0.12900
C 	C 	0.01218 0.23884 0.80201 -0.05000
C 	C 	0.03170 0.18069 0.81894 -0.07500
C 	C 	0.01926 0.18000 0.84910 0.12400
Br	Br	0.06015 0.11441 0.87416 -0.20100
H 	H 	0.95256 0.21245 0.88313 0.04800
H 	H 	0.02683 0.24434 0.77912 0.05900
Br	Br	0.92421 0.34710 0.78806 -0.19700
Br	Br	0.41730 0.25237 0.85445 -0.23700
C 	C 	0.86321 0.65824 0.82637 -0.03400
C 	C 	0.79726 0.58941 0.81583 -0.07500
C 	C 	0.76834 0.58878 0.78693 0.12000
C 	C 	0.80264 0.65908 0.76953 -0.03100
C 	C 	0.86505 0.73039 0.78087 -0.09000
C 	C 	0.89711 0.72843 0.80921 0.12400
Br	Br	0.98671 0.82140 0.82523 -0.27100
H 	H 	0.88742 0.65783 0.84823 0.07900
H 	H 	0.77816 0.65961 0.74773 0.08100
Br	Br	0.67936 0.49479 0.77139 -0.19800
