data_crystal

_cell_length_a 25.35523
_cell_length_b 25.42735
_cell_length_c 26.56401
_cell_angle_alpha 95.51721
_cell_angle_beta  95.51729
_cell_angle_gamma 125.78638

_symmetry_space_group_name_	'P 1'
_symmetry_space_group_name_H-M	'P 1'

loop_
_symmetry_equiv_pos_as_xyz
  x,y,z

loop_
_atom_site_label
_atom_site_type_symbol
_atom_site_fract_x
_atom_site_fract_y
_atom_site_fract_z
_atom_site_charge
C 	C 	0.04925 0.02628 0.97273 0.12000
N 	N 	0.00222 0.03563 0.40575 -0.13400
C 	C 	0.11011 0.05737 0.42849 -0.01800
H 	H 	0.24111 0.00840 0.95042 0.05100
C 	C 	0.14998 0.04970 0.46241 -0.04700
C 	C 	0.03741 0.01235 0.41744 0.12200
N 	N 	0.03532 0.06590 0.99554 -0.12800
H 	H 	0.26218 0.06651 0.50941 0.05100
C 	C 	0.25600 0.05824 0.95272 -0.05800
C 	C 	0.10982 0.05488 0.95103 -0.01600
C 	C 	0.14151 0.02482 0.94551 -0.05300
C 	C 	0.20901 0.07026 0.94209 0.02900
C 	C 	0.26944 0.10981 0.49808 -0.05600
C 	C 	0.21531 0.10864 0.47851 0.02700
S 	S 	0.15502 0.13584 0.42029 0.01500
C 	C 	0.32227 0.11274 0.96938 0.00300
S 	S 	0.38720 0.11247 0.96589 0.03300
S 	S 	0.73494 0.11791 0.44853 0.01400
H 	H 	0.74336 0.00509 0.43655 0.04600
S 	S 	0.74393 0.12369 0.03980 0.02900
N 	N 	0.52218 0.13051 0.14534 -0.10700
N 	N 	0.55451 0.15838 0.30023 -0.11900
C 	C 	0.22538 0.16236 0.45820 0.00100
C 	C 	0.33309 0.16663 0.49843 0.00200
S 	S 	0.39984 0.16831 0.49994 0.03800
C 	C 	0.22936 0.13532 0.94447 -0.00000
S 	S 	0.16570 0.13596 0.95324 0.01400
H 	H 	0.78481 0.03863 0.06477 0.04900
N 	N 	0.51947 0.17047 0.61779 -0.11500
N 	N 	0.50499 0.16055 0.76668 -0.11500
C 	C 	0.78160 0.04805 0.42278 -0.05500
C 	C 	0.79175 0.10853 0.43456 -0.00100
C 	C 	0.80767 0.12282 0.03195 -0.00200
C 	C 	0.82278 0.08400 0.05338 -0.05600
C 	C 	0.56714 0.18072 0.16943 0.09300
C 	C 	0.34261 0.17736 0.97064 0.01700
C 	C 	0.58983 0.20068 0.27962 0.07500
C 	C 	0.28832 0.21433 0.45146 -0.05200
C 	C 	0.34260 0.21668 0.47275 0.01700
C 	C 	0.29596 0.18971 0.96030 -0.05200
C 	C 	0.44300 0.19333 0.96662 -0.07500
O 	O 	0.67377 0.18883 0.01537 -0.36500
C 	C 	0.76906 0.19231 0.43263 -0.07400
C 	C 	0.77460 0.19799 0.02482 -0.07700
O 	O 	0.53714 0.20064 0.00694 -0.35500
C 	C 	0.55276 0.20438 0.75594 0.08500
C 	C 	0.82475 0.04577 0.39493 0.01500
C 	C 	0.83961 0.16402 0.41572 0.01600
C 	C 	0.56281 0.21177 0.65001 0.07800
C 	C 	0.85630 0.18223 0.01811 0.01500
C 	C 	0.44243 0.23147 0.46936 -0.07600
H 	H 	0.58633 0.21343 0.91750 0.18100
O 	O 	0.71477 0.22133 0.48585 -0.43400
C 	C 	0.73267 0.21602 0.00383 0.28700
H 	H 	0.86708 0.00640 0.05730 0.05100
C 	C 	0.51442 0.22946 0.98445 0.28400
H 	H 	0.29432 0.24910 0.42762 0.04900
C 	C 	0.41082 0.22312 0.96982 -0.02000
C 	C 	0.83759 0.22440 0.01325 -0.02500
C 	C 	0.82770 0.21200 0.41548 -0.02300
C 	C 	0.75659 0.23871 0.45422 0.28700
Cu	Cu	0.63361 0.23655 0.01352 0.93000
C 	C 	0.40476 0.25396 0.45711 -0.01700
C 	C 	0.88752 0.10315 0.05604 0.02400
H 	H 	0.61157 0.24807 0.42401 0.17100
C 	C 	0.62349 0.24367 0.19960 0.00600
Cu	Cu	0.69868 0.24309 0.91162 0.86900
H 	H 	0.31101 0.23966 0.96328 0.04900
O 	O 	0.63068 0.24231 0.93995 -0.64200
O 	O 	0.66533 0.24741 0.84559 -0.41100
O 	O 	0.65074 0.24703 0.08698 -0.35200
H 	H 	0.13328 0.00333 0.47392 0.05200
C 	C 	0.63414 0.25374 0.25385 -0.00200
C 	C 	0.90296 0.05774 0.05490 -0.04900
C 	C 	0.87303 0.10158 0.37623 0.00400
C 	C 	0.88279 0.16197 0.38788 -0.05500
C 	C 	0.89721 0.01906 0.38074 -0.03100
O 	O 	0.55001 0.26424 0.50632 -0.37400
O 	O 	0.75428 0.25972 0.97365 -0.43500
H 	H 	0.86020 0.25864 0.40326 0.04900
C 	C 	0.51408 0.27005 0.47114 0.29300
C 	C 	0.61265 0.25933 0.74251 0.00300
C 	C 	0.92117 0.20217 0.02134 -0.05600
C 	C 	0.61714 0.26360 0.69037 -0.00200
H 	H 	0.86826 0.27163 0.00142 0.04000
H 	H 	0.92142 0.20521 0.37462 0.04800
C 	C 	0.93654 0.16298 0.04199 0.00200
H 	H 	0.43561 0.27555 0.97204 0.04200
S 	S 	0.93182 0.09380 0.36557 0.00800
Cu	Cu	0.73700 0.28044 0.54737 0.86800
C 	C 	0.64960 0.28943 0.11870 0.28900
H 	H 	0.42044 0.29401 0.43642 0.04500
H 	H 	0.95854 0.24684 0.00880 0.04500
O 	O 	0.64259 0.29484 0.44167 -0.64100
O 	O 	0.55527 0.29173 0.98041 -0.39200
C 	C 	0.66666 0.29552 0.17470 -0.06300
C 	C 	0.96372 0.08211 0.03957 -0.01600
O 	O 	0.78609 0.29694 0.44115 -0.36800
C 	C 	0.66762 0.29843 0.83537 0.28500
C 	C 	0.97943 0.03931 0.01572 0.10900
Cu	Cu	0.64440 0.30925 0.51405 0.89800
C 	C 	0.66629 0.30888 0.78165 -0.06600
C 	C 	0.68735 0.31579 0.28311 -0.06200
O 	O 	0.61923 0.31432 0.10245 -0.37700
O 	O 	0.54182 0.31619 0.44268 -0.38800
C 	C 	0.68527 0.31613 0.62367 0.28400
S 	S 	0.99525 0.15732 0.02672 0.00200
O 	O 	0.73570 0.31730 0.61308 -0.41200
C 	C 	0.67509 0.31768 0.67747 -0.06600
O 	O 	0.64845 0.32136 0.58874 -0.37000
C 	C 	0.83828 0.99910 0.39743 -0.03200
H 	H 	0.12006 0.97510 0.95170 0.05900
N 	N 	0.00664 0.95993 0.96943 -0.13000
Cu	Cu	0.63678 0.36168 0.04346 0.89600
Cu	Cu	0.62637 0.35212 0.41708 0.89600
O 	O 	0.66948 0.36320 0.35586 -0.37800
Cu	Cu	0.67329 0.33821 0.94486 0.89800
O 	O 	0.68914 0.33933 0.01715 -0.64000
O 	O 	0.68326 0.45036 0.02353 -0.38800
O 	O 	0.66211 0.33491 0.87030 -0.37200
C 	C 	0.69160 0.33018 0.33906 0.28800
O 	O 	0.70274 0.43276 0.47826 -0.38500
H 	H 	0.69775 0.56706 0.02900 0.04300
O 	O 	0.72083 0.43248 0.95272 -0.37800
C 	C 	0.70880 0.46817 0.98166 0.29700
Cu	Cu	0.74455 0.34353 0.44398 0.92900
O 	O 	0.74006 0.34884 0.51799 -0.64200
O 	O 	0.73160 0.32523 0.37041 -0.35300
C 	C 	0.72536 0.37072 0.71664 0.00200
C 	C 	0.72104 0.36626 0.76878 -0.00200
C 	C 	0.72304 0.35564 0.20403 -0.00100
C 	C 	0.73327 0.36590 0.25825 0.00500
C 	C 	0.72093 0.57543 0.99551 -0.01700
H 	H 	0.73644 0.36780 0.03390 0.17400
C 	C 	0.76419 0.46949 0.47119 0.28300
H 	H 	0.77026 0.39339 0.53986 0.18100
S 	S 	0.77102 0.58092 0.50050 0.02300
C 	C 	0.73588 0.53488 0.97271 -0.07600
H 	H 	0.73787 0.69037 0.03288 0.04800
O 	O 	0.78882 0.44160 0.44953 -0.35600
C 	C 	0.78111 0.42997 0.70323 0.08400
C 	C 	0.77342 0.42005 0.80916 0.07700
C 	C 	0.77010 0.40710 0.17833 0.07000
C 	C 	0.79031 0.42837 0.28851 0.09100
C 	C 	0.80351 0.54189 0.48349 -0.07300
H 	H 	0.77364 0.69685 0.48428 0.04900
C 	C 	0.75682 0.68985 0.99811 -0.05200
C 	C 	0.74495 0.63190 0.97280 0.01600
C 	C 	0.80950 0.69406 0.46765 -0.05800
N 	N 	0.81517 0.46296 0.84139 -0.11600
N 	N 	0.80760 0.44812 0.15778 -0.12100
C 	C 	0.82401 0.65140 0.48154 0.00100
H 	H 	0.81216 0.95842 0.41772 0.04700
C 	C 	0.77652 0.63359 0.93143 -0.00100
S 	S 	0.77591 0.56746 0.92500 0.04300
N 	N 	0.82558 0.47723 0.69252 -0.11600
C 	C 	0.79895 0.74829 0.98005 0.00200
N 	N 	0.83576 0.47819 0.31271 -0.11100
C 	C 	0.84383 0.73400 0.43249 0.02500
C 	C 	0.85712 0.58385 0.45991 -0.02100
H 	H 	0.82923 0.81090 0.44957 0.04900
C 	C 	0.85241 0.79371 0.42826 -0.04700
S 	S 	0.84040 0.82348 0.01581 0.00800
C 	C 	0.86840 0.64533 0.45862 0.01800
C 	C 	0.82562 0.69356 0.91846 -0.05500
H 	H 	0.87967 0.56695 0.43736 0.05400
C 	C 	0.88823 0.72800 0.40980 0.00200
C 	C 	0.83601 0.75114 0.94273 0.02500
N 	N 	0.00528 0.94700 0.41748 -0.12800
H 	H 	0.85794 0.69597 0.89335 0.05000
C 	C 	0.90335 0.68603 0.42402 -0.05400
C 	C 	0.90376 0.83373 0.40219 -0.01700
N 	N 	0.90294 0.92884 0.39644 -0.13800
C 	C 	0.90488 0.86141 0.98576 -0.01700
C 	C 	0.89518 0.81520 0.94544 -0.04700
C 	C 	0.93501 0.99412 0.39562 0.12600
S 	S 	0.93859 0.79641 0.38744 0.00900
H 	H 	0.93883 0.68294 0.40701 0.05100
N 	N 	0.93771 0.97300 0.01324 -0.13400
C 	C 	0.93809 0.90511 0.40686 0.11600
H 	H 	0.93031 0.82659 0.92030 0.05000
C 	C 	0.95086 0.93321 0.98961 0.11700
