data_crystal

_cell_length_a 19.44893
_cell_length_b 18.32277
_cell_length_c 26.54917
_cell_angle_alpha 95.42499
_cell_angle_beta  95.42552
_cell_angle_gamma 126.45064

_symmetry_space_group_name_	'P 1'
_symmetry_space_group_name_H-M	'P 1'

loop_
_symmetry_equiv_pos_as_xyz
  x,y,z

loop_
_atom_site_label
_atom_site_type_symbol
_atom_site_fract_x
_atom_site_fract_y
_atom_site_fract_z
_atom_site_charge
C 	C 	0.91239 0.00480 0.96067 0.09800
C 	C 	0.00352 0.05973 0.96918 -0.07800
C 	C 	0.04538 0.01879 0.97312 0.09400
H 	H 	0.04168 0.13404 0.97251 0.09400
C 	C 	0.94941 0.03314 0.47560 0.09800
C 	C 	0.03911 0.08384 0.47650 -0.07800
C 	C 	0.08014 0.04257 0.48426 0.09800
H 	H 	0.07694 0.15535 0.47184 0.09500
Cu	Cu	0.69440 0.29754 0.94446 0.93100
Cu	Cu	0.75094 0.27148 0.05829 0.91300
Cu	Cu	0.58433 0.27528 0.02556 0.92200
Cu	Cu	0.54047 0.31328 0.92274 0.91400
C 	C 	0.62378 0.28514 0.84115 0.30900
C 	C 	0.64288 0.26768 0.12474 0.30800
O 	O 	0.56590 0.24073 0.95256 -0.63600
O 	O 	0.72995 0.21396 0.93885 -0.33600
O 	O 	0.82708 0.28621 0.01438 -0.37400
O 	O 	0.55957 0.28627 0.85289 -0.34600
O 	O 	0.46292 0.21701 0.02617 -0.34100
C 	C 	0.41552 0.22615 0.99234 0.32600
O 	O 	0.45243 0.29156 0.96468 -0.35700
O 	O 	0.65875 0.25738 0.87131 -0.33000
C 	C 	0.79425 0.22754 0.97076 0.32500
O 	O 	0.60735 0.29967 0.10003 -0.34400
O 	O 	0.66036 0.21784 0.09873 -0.37700
H 	H 	0.52195 0.17346 0.93959 0.18800
Cu	Cu	0.73705 0.24753 0.55239 0.89600
Cu	Cu	0.61731 0.28928 0.52218 0.90400
C 	C 	0.66682 0.30714 0.34380 0.30800
C 	C 	0.67116 0.29440 0.63037 0.30000
O 	O 	0.61002 0.26321 0.44945 -0.63800
O 	O 	0.80549 0.27712 0.44532 -0.33300
O 	O 	0.71559 0.17075 0.49086 -0.41300
O 	O 	0.49362 0.22637 0.51737 -0.34800
C 	C 	0.44476 0.23346 0.48327 0.33700
O 	O 	0.47875 0.29375 0.45224 -0.35500
O 	O 	0.72219 0.30412 0.37477 -0.33400
C 	C 	0.77669 0.20135 0.46333 0.34000
O 	O 	0.62803 0.31004 0.59730 -0.33500
O 	O 	0.73657 0.29621 0.61897 -0.37900
H 	H 	0.56868 0.19693 0.43334 0.19100
C 	C 	0.56381 0.23383 0.74716 -0.02500
C 	C 	0.63662 0.28659 0.78734 -0.06100
C 	C 	0.65819 0.29416 0.68417 -0.06500
C 	C 	0.57419 0.23596 0.69577 0.13000
Br	Br	0.47340 0.15314 0.64228 -0.18200
H 	H 	0.49903 0.18941 0.75584 0.09000
C 	C 	0.57303 0.23107 0.20150 -0.01800
C 	C 	0.64899 0.27376 0.18069 -0.07400
C 	C 	0.65937 0.28615 0.28781 -0.06100
C 	C 	0.57773 0.23613 0.25475 0.12700
Br	Br	0.47180 0.17158 0.28145 -0.18600
H 	H 	0.51016 0.19331 0.17625 0.08900
C 	C 	0.91769 0.13693 0.51518 0.06800
C 	C 	0.90760 0.07892 0.47162 -0.03300
C 	C 	0.85959 0.06663 0.42406 0.05900
C 	C 	0.81807 0.10859 0.42086 0.12500
C 	C 	0.82773 0.16592 0.46463 -0.12500
C 	C 	0.88149 0.18394 0.51097 0.11900
Br	Br	0.90979 0.27712 0.56759 -0.24500
Br	Br	0.97800 0.14886 0.58112 -0.13400
Br	Br	0.74750 0.08708 0.35682 -0.15500
C 	C 	0.28928 0.11750 0.44123 0.11900
C 	C 	0.35171 0.18251 0.48469 -0.11100
C 	C 	0.32509 0.20368 0.52768 0.12300
C 	C 	0.23591 0.15692 0.52787 0.07000
C 	C 	0.17382 0.09452 0.48358 -0.03400
C 	C 	0.20091 0.07698 0.43973 0.06200
Br	Br	0.32462 0.08112 0.38470 -0.17100
Br	Br	0.19858 0.17617 0.58919 -0.13400
Br	Br	0.41068 0.30039 0.58487 -0.13700
C 	C 	0.84759 0.15260 0.92138 0.12100
C 	C 	0.81289 0.16016 0.96409 -0.12200
C 	C 	0.79870 0.10517 0.00156 0.12500
C 	C 	0.83214 0.05507 0.00094 0.07700
C 	C 	0.86891 0.04918 0.95896 -0.04100
C 	C 	0.87212 0.09397 0.91782 0.07000
Br	Br	0.90881 0.07373 0.85647 -0.13700
Br	Br	0.86432 0.22468 0.86884 -0.14000
Br	Br	0.72679 0.09154 0.05072 -0.24000
C 	C 	0.26587 0.11597 0.94094 0.11800
C 	C 	0.32088 0.16923 0.98887 -0.12100
C 	C 	0.28531 0.17439 0.03175 0.12700
C 	C 	0.19473 0.12496 0.02665 0.07500
C 	C 	0.14046 0.07521 0.97809 -0.04100
C 	C 	0.17646 0.07288 0.93501 0.07000
Br	Br	0.10319 0.01234 0.86761 -0.13900
Br	Br	0.31280 0.09887 0.88399 -0.20600
Br	Br	0.14457 0.12351 0.08623 -0.13700
Br	Br	0.36063 0.25213 0.09670 -0.14200
O 	O 	0.70771 0.32751 0.02056 -0.62000
Cu	Cu	0.74380 0.33373 0.44859 0.93500
Cu	Cu	0.58602 0.33991 0.42377 0.91300
O 	O 	0.74231 0.34401 0.52350 -0.63200
O 	O 	0.63717 0.35175 0.36078 -0.34000
C 	C 	0.72080 0.34215 0.77568 0.13400
C 	C 	0.73099 0.34703 0.72437 -0.02300
C 	C 	0.73033 0.32045 0.21350 0.13400
C 	C 	0.73514 0.32628 0.26679 -0.02200
H 	H 	0.79816 0.36517 0.29199 0.09600
Br	Br	0.83600 0.38111 0.18647 -0.22500
H 	H 	0.79580 0.39124 0.71571 0.09200
H 	H 	0.74681 0.39496 0.03344 0.19100
Br	Br	0.83318 0.00027 0.05935 -0.13600
C 	C 	0.99652 0.92324 0.96965 -0.05900
C 	C 	0.90568 0.86787 0.96138 0.10300
C 	C 	0.86325 0.90837 0.95611 -0.06400
H 	H 	0.02922 0.89186 0.97306 0.08900
H 	H 	0.79279 0.86552 0.94956 0.09600
C 	C 	0.03119 0.95013 0.49002 -0.07200
C 	C 	0.94098 0.89785 0.48639 0.11000
C 	C 	0.90029 0.93994 0.48049 -0.06600
H 	H 	0.06269 0.91773 0.49493 0.09400
H 	H 	0.83061 0.89994 0.47857 0.09400
O 	O 	0.76048 0.43370 0.93957 -0.33000
C 	C 	0.73153 0.47994 0.95421 0.32600
O 	O 	0.65695 0.43765 0.96956 -0.36800
O 	O 	0.80035 0.47006 0.45221 -0.33200
C 	C 	0.76747 0.50841 0.47282 0.32700
O 	O 	0.68844 0.45619 0.48240 -0.36700
H 	H 	0.78369 0.40669 0.54485 0.20500
Br	Br	0.82293 0.41188 0.82897 -0.16000
C 	C 	0.83909 0.66524 0.52485 0.11800
C 	C 	0.81260 0.60831 0.47646 -0.11200
C 	C 	0.82328 0.64578 0.43120 0.11600
C 	C 	0.85994 0.73957 0.43441 0.07100
C 	C 	0.88847 0.79693 0.48281 -0.03700
C 	C 	0.87661 0.75944 0.52798 0.07100
Br	Br	0.91206 0.83748 0.59401 -0.12700
Br	Br	0.82688 0.61481 0.58688 -0.16500
Br	Br	0.87180 0.79005 0.37239 -0.12200
Br	Br	0.78769 0.56888 0.36469 -0.15700
Br	Br	0.85212 0.99382 0.36334 -0.11400
Br	Br	0.11716 0.99979 0.37713 -0.11700
C 	C 	0.81838 0.70658 0.91164 0.07200
C 	C 	0.85554 0.76745 0.95952 -0.04000
C 	C 	0.85585 0.73429 0.00522 0.07600
C 	C 	0.82349 0.64178 0.00284 0.12800
C 	C 	0.78364 0.58003 0.95516 -0.11800
C 	C 	0.77954 0.61233 0.90963 0.12000
Br	Br	0.71510 0.52656 0.84519 -0.17300
Br	Br	0.82273 0.75290 0.84875 -0.12800
Br	Br	0.83418 0.59966 0.06488 -0.17100
Br	Br	0.89919 0.81555 0.07110 -0.11800
