data_crystal

_cell_length_a 26.93843
_cell_length_b 28.81438
_cell_length_c 40.80747
_cell_angle_alpha 60.81283
_cell_angle_beta  118.89441
_cell_angle_gamma 133.23970

_symmetry_space_group_name_	'P 1'
_symmetry_space_group_name_H-M	'P 1'

loop_
_symmetry_equiv_pos_as_xyz
  x,y,z

loop_
_atom_site_label
_atom_site_type_symbol
_atom_site_fract_x
_atom_site_fract_y
_atom_site_fract_z
_atom_site_charge
Co	Co	0.06100 0.01605 0.06563 1.17100
Co	Co	0.00556 0.05940 0.09397 1.18500
C 	C 	0.19278 0.05858 0.05746 0.30900
Co	Co	0.07876 0.91334 0.06821 1.18300
O 	O 	0.06018 0.09054 0.05802 -0.46100
C 	C 	0.06351 0.14090 0.14882 0.29400
C 	C 	0.12140 0.87102 0.15181 0.29500
O 	O 	0.00795 0.09576 0.16399 -0.38900
O 	O 	0.06522 0.14024 0.11674 -0.37000
O 	O 	0.14672 0.91726 0.12162 -0.37100
O 	O 	0.07500 0.86274 0.16193 -0.36500
O 	O 	0.04945 0.94367 0.08862 -0.74700
O 	O 	0.15244 0.00813 0.04261 -0.41600
O 	O 	0.16723 0.06796 0.07240 -0.39300
Co	Co	0.05953 0.01487 0.56718 1.16900
Co	Co	0.01574 0.07669 0.58950 1.18400
C 	C 	0.19220 0.03974 0.57472 0.26200
Co	Co	0.06706 0.89983 0.57805 1.17100
O 	O 	0.06682 0.09596 0.55584 -0.46200
C 	C 	0.08567 0.16465 0.64368 0.29500
C 	C 	0.09117 0.85492 0.66303 0.29700
O 	O 	0.03120 0.12088 0.65957 -0.39300
O 	O 	0.08893 0.15704 0.61498 -0.36900
O 	O 	0.12336 0.89713 0.63450 -0.38400
O 	O 	0.04028 0.85042 0.66555 -0.36300
O 	O 	0.03863 0.93911 0.59154 -0.74800
O 	O 	0.15147 0.99156 0.55790 -0.37100
O 	O 	0.16567 0.05816 0.58170 -0.38000
C 	C 	0.03669 0.03281 0.86486 -0.05600
C 	C 	0.03163 0.02748 0.83075 -0.05500
H 	H 	0.08461 0.07350 0.87734 0.05700
H 	H 	0.07504 0.06503 0.81673 0.05100
C 	C 	0.04787 0.02114 0.37193 -0.05200
C 	C 	0.04259 0.01403 0.33842 -0.05800
H 	H 	0.09595 0.06228 0.38398 0.04900
H 	H 	0.08608 0.05049 0.32450 0.05200
C 	C 	0.18659 0.26309 0.71406 -0.04200
C 	C 	0.19733 0.32291 0.68881 0.02600
C 	C 	0.19199 0.33610 0.64972 -0.05800
C 	C 	0.16538 0.28644 0.63465 0.02600
C 	C 	0.14487 0.22339 0.65906 -0.07900
C 	C 	0.16370 0.21497 0.69917 0.01300
C 	C 	0.20994 0.37024 0.70243 0.01200
C 	C 	0.16046 0.38356 0.68827 -0.02500
C 	C 	0.09185 0.34430 0.66494 0.09000
C 	C 	0.19404 0.24880 0.75472 0.08900
C 	C 	0.15639 0.29973 0.59395 0.08500
N 	N 	0.03691 0.31286 0.64624 -0.11300
N 	N 	0.14935 0.31052 0.56132 -0.09800
N 	N 	0.19996 0.23731 0.78728 -0.11500
H 	H 	0.15231 0.16779 0.71837 0.03900
H 	H 	0.20477 0.38373 0.63068 0.05900
H 	H 	0.14237 0.44933 0.68316 0.05600
C 	C 	0.14922 0.67315 0.68179 -0.03900
C 	C 	0.14246 0.72144 0.71492 0.02800
C 	C 	0.17859 0.82989 0.70607 0.02900
C 	C 	0.10801 0.80781 0.69068 -0.07900
C 	C 	0.05481 0.74037 0.69324 0.01300
C 	C 	0.07168 0.69712 0.70507 -0.04200
C 	C 	0.01615 0.62846 0.70572 0.10200
C 	C 	0.16476 0.63842 0.64520 0.09200
N 	N 	0.15449 0.63132 0.61643 -0.10000
H 	H 	0.11975 0.68821 0.65518 0.05200
H 	H 	0.00031 0.72254 0.68295 0.05100
C 	C 	0.16189 0.23059 0.22363 -0.04200
C 	C 	0.17233 0.29114 0.20059 0.02600
C 	C 	0.16691 0.30825 0.16095 -0.05800
C 	C 	0.14055 0.26169 0.14330 0.02700
C 	C 	0.12158 0.19805 0.16578 -0.07900
C 	C 	0.14045 0.18609 0.20622 0.01200
C 	C 	0.18677 0.33608 0.21733 0.01200
C 	C 	0.16324 0.40704 0.21308 -0.02000
C 	C 	0.14105 0.35365 0.20364 -0.02400
C 	C 	0.07209 0.31805 0.17935 0.09100
C 	C 	0.16805 0.21171 0.26461 0.08800
C 	C 	0.12995 0.27862 0.10200 0.08500
N 	N 	0.01686 0.28952 0.15988 -0.10900
N 	N 	0.12152 0.29234 0.06889 -0.09900
N 	N 	0.17299 0.19663 0.29742 -0.11800
H 	H 	0.12985 0.13852 0.22382 0.03600
H 	H 	0.17953 0.35653 0.14355 0.05900
H 	H 	0.13109 0.42455 0.19962 0.05900
C 	C 	0.14879 0.62843 0.21923 -0.04100
C 	C 	0.17611 0.73524 0.20963 0.03000
C 	C 	0.16979 0.76229 0.16983 -0.05700
C 	C 	0.14915 0.80409 0.15048 0.03300
C 	C 	0.13799 0.82246 0.17151 -0.07700
C 	C 	0.14366 0.79476 0.21149 0.01700
C 	C 	0.16177 0.75060 0.23055 -0.03900
C 	C 	0.13677 0.82548 0.10884 0.06700
N 	N 	0.12698 0.84243 0.07551 -0.13300
N 	N 	0.08500 0.49134 0.19605 -0.10700
H 	H 	0.09419 0.60976 0.20576 0.05800
H 	H 	0.17973 0.74962 0.15368 0.06500
H 	H 	0.13437 0.80776 0.22778 0.05100
H 	H 	0.27237 0.99680 0.62052 0.07600
C 	C 	0.22054 0.12520 0.98049 0.07400
N 	N 	0.17573 0.11858 0.95295 -0.11200
C 	C 	0.17826 0.43597 0.69645 -0.01800
C 	C 	0.16131 0.68248 0.71633 0.01200
C 	C 	0.17756 0.64720 0.68114 -0.00200
C 	C 	0.19593 0.68928 0.22859 0.01400
C 	C 	0.16505 0.72107 0.27137 0.10100
C 	C 	0.12431 0.53767 0.20798 0.09300
C 	C 	0.26443 0.11023 0.05160 -0.08700
O 	O 	0.02806 0.98455 0.11885 -0.55800
O 	O 	0.00700 0.99804 0.00977 -0.35600
O 	O 	0.01862 0.98904 0.61521 -0.55700
O 	O 	0.01307 0.99764 0.51143 -0.36100
C 	C 	0.17302 0.59555 0.22279 -0.00200
C 	C 	0.19551 0.78684 0.71769 -0.05800
C 	C 	0.00656 0.97378 0.45984 -0.08200
C 	C 	0.26855 0.07886 0.58094 -0.05800
C 	C 	0.23407 0.89739 0.70842 0.08600
N 	N 	0.27852 0.95149 0.71026 -0.09400
C 	C 	0.27650 0.13350 0.01489 0.03300
N 	N 	0.24100 0.53234 0.23954 -0.13300
C 	C 	0.26627 0.51205 0.23168 0.13000
C 	C 	0.26121 0.61703 0.71364 0.12800
C 	C 	0.27306 0.54185 0.71566 0.12900
N 	N 	0.23538 0.55396 0.71925 -0.13400
C 	C 	0.27313 0.40440 0.72832 -0.04100
C 	C 	0.28929 0.45452 0.73797 -0.00200
C 	C 	0.24447 0.47434 0.71927 -0.01700
C 	C 	0.19833 0.66146 0.75101 -0.02300
C 	C 	0.21913 0.63097 0.71525 -0.01500
C 	C 	0.22736 0.63616 0.75025 -0.01800
C 	C 	0.20726 0.66625 0.78735 0.09300
N 	N 	0.21440 0.67011 0.81645 -0.10400
H 	H 	0.25005 0.80508 0.72686 0.06300
C 	C 	0.24935 0.36563 0.24486 -0.04100
C 	C 	0.26921 0.41613 0.25602 -0.00200
C 	C 	0.22989 0.44184 0.23680 -0.01600
C 	C 	0.26616 0.71203 0.24758 -0.02200
C 	C 	0.24510 0.62175 0.23842 -0.01400
C 	C 	0.28997 0.67754 0.25306 -0.01700
C 	C 	0.31500 0.77255 0.25969 0.09700
N 	N 	0.16771 0.69739 0.30408 -0.10600
C 	C 	0.30669 0.14450 0.55949 0.01800
C 	C 	0.30121 0.04690 0.60347 -0.04000
C 	C 	0.27511 0.17928 0.53692 0.08100
N 	N 	0.24981 0.20714 0.51882 -0.10400
C 	C 	0.32133 0.12652 0.08381 0.01500
H 	H 	0.31248 0.10988 0.11196 0.04000
C 	C 	0.01433 0.96194 0.50027 0.30800
C 	C 	0.34327 0.16528 0.01154 -0.05900
C 	C 	0.27605 0.59777 0.23460 0.12700
N 	N 	0.32594 0.55675 0.21902 -0.13800
N 	N 	0.32411 0.66767 0.70406 -0.13200
N 	N 	0.33529 0.59263 0.70572 -0.13600
H 	H 	0.31021 0.39271 0.74043 0.05500
H 	H 	0.25821 0.62247 0.77668 0.05300
C 	C 	0.33231 0.44415 0.28562 0.08700
H 	H 	0.28358 0.35076 0.25664 0.05500
N 	N 	0.35411 0.82106 0.26939 -0.10100
H 	H 	0.34452 0.69623 0.26677 0.05600
C 	C 	0.37498 0.17558 0.55864 -0.05200
C 	C 	0.36924 0.07779 0.60233 -0.02200
C 	C 	0.40085 0.04305 0.62466 0.08100
C 	C 	0.38897 0.16097 0.08019 -0.04300
H 	H 	0.35171 0.18038 0.98353 0.05600
N 	N 	0.04861 0.27936 0.48008 -0.09600
C 	C 	0.39957 0.17838 0.04408 0.02700
C 	C 	0.36398 0.62115 0.21701 0.13000
N 	N 	0.33919 0.64179 0.22497 -0.13300
C 	C 	0.36100 0.65528 0.70005 0.13000
C 	C 	0.35267 0.48642 0.76648 0.08900
N 	N 	0.32309 0.74915 0.60395 -0.10000
N 	N 	0.38288 0.46664 0.30931 -0.10600
C 	C 	0.40546 0.14168 0.57878 0.01700
N 	N 	0.42622 0.01526 0.64255 -0.11400
H 	H 	0.42415 0.13788 0.52126 0.05100
H 	H 	0.40358 0.22536 0.54122 0.05700
C 	C 	0.44706 0.17807 0.11358 0.09400
N 	N 	0.02944 0.23231 0.99266 -0.09800
N 	N 	0.40346 0.51203 0.78931 -0.10600
C 	C 	0.42856 0.70933 0.68919 -0.01600
C 	C 	0.37112 0.74904 0.62491 0.09300
N 	N 	0.39245 0.77999 0.15820 -0.10300
C 	C 	0.47297 0.17175 0.57266 0.01500
C 	C 	0.47336 0.16804 0.53978 -0.04500
C 	C 	0.46991 0.21243 0.03965 0.01200
C 	C 	0.47823 0.31518 0.00222 0.09400
N 	N 	0.49363 0.19179 0.14032 -0.11000
N 	N 	0.45593 0.34494 0.98969 -0.10900
H 	H 	0.47098 0.12727 0.07191 0.05100
C 	C 	0.42264 0.75767 0.17017 0.09200
C 	C 	0.43108 0.74891 0.65107 -0.00100
H 	H 	0.48671 0.68197 0.74388 0.05500
C 	C 	0.46037 0.72988 0.18510 -0.00200
C 	C 	0.43536 0.66649 0.21036 -0.01600
H 	H 	0.45628 0.59371 0.24469 0.05700
N 	N 	0.53861 0.21232 0.66057 -0.10800
C 	C 	0.50605 0.27798 0.01788 -0.02600
C 	C 	0.49935 0.17814 0.05574 -0.04200
C 	C 	0.48838 0.71200 0.71446 -0.01700
C 	C 	0.53789 0.21085 0.63249 0.09200
C 	C 	0.47394 0.64147 0.22441 -0.01800
C 	C 	0.53692 0.20896 0.59745 -0.02600
C 	C 	0.53659 0.20576 0.52960 -0.00300
C 	C 	0.53534 0.20376 0.49450 0.08600
N 	N 	0.53438 0.20218 0.46639 -0.10900
C 	C 	0.49155 0.78708 0.63796 -0.04000
C 	C 	0.00005 0.97682 0.42740 0.05900
N 	N 	0.97164 0.57344 0.70623 -0.11300
C 	C 	0.99159 0.97465 0.39005 0.02000
O 	O 	0.97263 0.93833 0.20539 -0.37400
C 	C 	0.98122 0.96010 0.32298 0.03100
C 	C 	0.97286 0.95583 0.28634 0.04800
O 	O 	0.00549 0.91248 0.01735 -0.37700
O 	O 	0.00497 0.90611 0.52309 -0.38800
C 	C 	0.76130 0.33640 0.01086 0.12700
N 	N 	0.69635 0.29442 0.01789 -0.13300
C 	C 	0.67638 0.31404 0.03054 0.13100
N 	N 	0.72167 0.37504 0.03650 -0.13500
C 	C 	0.78286 0.41942 0.02534 0.12900
N 	N 	0.80360 0.39994 0.01306 -0.13300
C 	C 	0.75072 0.33816 0.51213 0.12700
N 	N 	0.69384 0.28809 0.52765 -0.13300
C 	C 	0.66351 0.30123 0.53726 0.12800
N 	N 	0.69050 0.36429 0.53180 -0.13700
C 	C 	0.74718 0.41459 0.51637 0.12700
N 	N 	0.77745 0.40167 0.50635 -0.13200
Co	Co	0.94381 0.93071 0.14944 1.19200
Co	Co	0.00636 0.89016 0.12459 1.18900
Co	Co	0.90899 0.02727 0.13773 1.16100
C 	C 	0.93935 0.79242 0.08363 0.29900
O 	O 	0.91888 0.09926 0.08673 -0.40200
O 	O 	0.95993 0.00519 0.12828 -0.78600
C 	C 	0.90138 0.08841 0.05393 0.30700
O 	O 	0.95435 0.86038 0.16161 -0.46100
C 	C 	0.79705 0.89392 0.12526 0.29800
C 	C 	0.00856 0.96586 0.99572 0.31600
O 	O 	0.92205 0.05994 0.05176 -0.39500
O 	O 	0.81607 0.95470 0.11104 -0.37300
O 	O 	0.83557 0.87890 0.12744 -0.38200
C 	C 	0.94399 0.95138 0.21535 0.31600
O 	O 	0.89438 0.95821 0.19039 -0.39600
O 	O 	0.00417 0.81491 0.08980 -0.38900
O 	O 	0.92626 0.82090 0.09248 -0.39200
Co	Co	0.93240 0.94780 0.63992 1.19300
Co	Co	0.98434 0.88878 0.62167 1.18500
Co	Co	0.92942 0.06576 0.62957 1.16500
C 	C 	0.91962 0.78882 0.58318 0.30600
O 	O 	0.95461 0.14225 0.58053 -0.40200
O 	O 	0.96550 0.02791 0.62147 -0.78100
C 	C 	0.93367 0.13046 0.54743 0.30900
O 	O 	0.92388 0.86626 0.65063 -0.45600
C 	C 	0.80008 0.94081 0.61060 0.32900
O 	O 	0.94277 0.09254 0.54545 -0.39500
O 	O 	0.83233 0.00480 0.59830 -0.42000
O 	O 	0.82769 0.91379 0.61389 -0.38300
C 	C 	0.93906 0.97358 0.70595 0.31900
O 	O 	0.89979 0.99299 0.67970 -0.39300
O 	O 	0.95899 0.95131 0.69664 -0.37200
O 	O 	0.98302 0.80427 0.59537 -0.40800
O 	O 	0.90805 0.82380 0.58658 -0.39100
C 	C 	0.97063 0.97397 0.81483 0.02900
C 	C 	0.91431 0.92655 0.83288 -0.03200
C 	C 	0.91926 0.93198 0.86688 -0.03300
C 	C 	0.98052 0.98500 0.88311 0.03200
C 	C 	0.96286 0.97133 0.77780 0.04900
C 	C 	0.95384 0.97064 0.74582 -0.08600
C 	C 	0.98960 0.98458 0.92138 0.05400
C 	C 	0.99759 0.97963 0.95458 -0.07900
H 	H 	0.86654 0.88559 0.82056 0.05400
H 	H 	0.87594 0.89426 0.88096 0.05500
C 	C 	0.92496 0.91381 0.34105 -0.03300
C 	C 	0.93016 0.92098 0.37444 -0.02800
C 	C 	0.96229 0.95282 0.25472 -0.08800
H 	H 	0.87698 0.87246 0.32913 0.05700
H 	H 	0.88678 0.88422 0.38846 0.05400
C 	C 	0.54858 0.74975 0.70131 -0.02300
C 	C 	0.54968 0.78638 0.66260 0.01200
C 	C 	0.61281 0.82653 0.64815 0.03100
C 	C 	0.61742 0.80051 0.62910 -0.06100
C 	C 	0.67804 0.83704 0.61646 0.03600
C 	C 	0.73519 0.89996 0.62356 -0.09300
C 	C 	0.72972 0.92594 0.64221 0.02700
C 	C 	0.66901 0.88982 0.65431 -0.04300
C 	C 	0.67978 0.81071 0.59495 0.08400
C 	C 	0.66478 0.91805 0.67315 0.10100
C 	C 	0.60859 0.74970 0.72749 0.09300
N 	N 	0.68108 0.78955 0.57771 -0.09900
N 	N 	0.66133 0.94060 0.68826 -0.10500
N 	N 	0.65671 0.74973 0.74843 -0.10800
H 	H 	0.49319 0.81680 0.60848 0.05900
H 	H 	0.57375 0.75192 0.62406 0.06100
H 	H 	0.77296 0.97459 0.64726 0.03500
C 	C 	0.68446 0.79341 0.19471 -0.03800
C 	C 	0.61788 0.77454 0.16962 0.02800
C 	C 	0.60928 0.78890 0.12985 -0.06000
C 	C 	0.66692 0.82411 0.11491 0.03300
C 	C 	0.73325 0.84267 0.14011 -0.08300
C 	C 	0.74020 0.82308 0.18005 0.01200
C 	C 	0.55636 0.73789 0.18485 0.01300
C 	C 	0.52167 0.76577 0.17331 -0.04200
C 	C 	0.53116 0.67465 0.20995 -0.02300
C 	C 	0.56125 0.64191 0.21931 0.09300
C 	C 	0.69690 0.78570 0.23510 0.09800
C 	C 	0.65772 0.84131 0.07371 0.08500
N 	N 	0.58533 0.61570 0.22680 -0.10700
N 	N 	0.65039 0.85515 0.04070 -0.09700
N 	N 	0.70691 0.77956 0.26744 -0.11000
H 	H 	0.79041 0.83481 0.19962 0.04400
H 	H 	0.55799 0.77360 0.11052 0.06000
H 	H 	0.54126 0.81463 0.15422 0.05700
C 	C 	0.77636 0.27574 0.46327 -0.02300
C 	C 	0.82685 0.26576 0.49255 0.01100
C 	C 	0.85948 0.28890 0.52566 -0.04200
C 	C 	0.83860 0.31738 0.53107 -0.00300
C 	C 	0.78464 0.32320 0.50302 -0.01400
C 	C 	0.75528 0.30408 0.46873 -0.01800
C 	C 	0.84144 0.22585 0.49068 0.02700
C 	C 	0.90525 0.25712 0.48331 -0.05900
C 	C 	0.93059 0.22107 0.49408 0.03100
C 	C 	0.89376 0.15444 0.51418 -0.08400
C 	C 	0.82386 0.12106 0.51362 0.00900
C 	C 	0.79811 0.15662 0.50307 -0.04100
C 	C 	0.99615 0.25345 0.48639 0.07800
C 	C 	0.72927 0.12226 0.50749 0.09200
C 	C 	0.74493 0.25582 0.42795 0.09200
C 	C 	0.87088 0.33811 0.56620 0.09100
N 	N 	0.67412 0.09478 0.51103 -0.11400
N 	N 	0.89672 0.35462 0.59437 -0.10200
N 	N 	0.71975 0.23982 0.39967 -0.10800
H 	H 	0.71419 0.30901 0.44694 0.05300
H 	H 	0.89929 0.28241 0.54791 0.05400
H 	H 	0.93688 0.30982 0.47136 0.06000
H 	H 	0.79265 0.06847 0.52596 0.04300
C 	C 	0.74030 0.55126 0.49646 -0.02300
C 	C 	0.80402 0.58980 0.52088 0.01100
C 	C 	0.85526 0.57862 0.53655 -0.04200
C 	C 	0.84064 0.52531 0.53131 -0.00300
C 	C 	0.77419 0.48284 0.50996 -0.01600
C 	C 	0.72655 0.49917 0.49036 -0.01800
C 	C 	0.81489 0.63731 0.53345 0.02700
C 	C 	0.81078 0.62096 0.57099 -0.05900
C 	C 	0.83478 0.66926 0.58627 0.03000
C 	C 	0.86322 0.73456 0.56386 -0.08200
C 	C 	0.85652 0.74803 0.52449 0.01100
C 	C 	0.83499 0.70054 0.50949 -0.04000
C 	C 	0.83475 0.65256 0.62587 0.07600
C 	C 	0.83724 0.71816 0.47023 0.09500
C 	C 	0.68742 0.56282 0.47904 0.09300
C 	C 	0.89299 0.51298 0.54931 0.09000
N 	N 	0.83480 0.63921 0.65761 -0.10400
N 	N 	0.83906 0.73231 0.43877 -0.11200
N 	N 	0.93504 0.50323 0.56373 -0.10100
N 	N 	0.64508 0.57212 0.46509 -0.10500
H 	H 	0.67627 0.46794 0.47283 0.05200
H 	H 	0.90531 0.60965 0.55427 0.05200
H 	H 	0.79233 0.57152 0.58895 0.06000
H 	H 	0.87470 0.79738 0.50650 0.04800
C 	C 	0.60026 0.24747 0.55269 -0.01800
C 	C 	0.60021 0.24612 0.58753 -0.01800
H 	H 	0.64928 0.27687 0.60585 0.05200
C 	C 	0.76977 0.25690 0.96432 -0.02200
C 	C 	0.81742 0.24322 0.99388 0.00900
C 	C 	0.85299 0.26773 0.02675 -0.03900
C 	C 	0.83817 0.30190 0.03152 -0.00400
C 	C 	0.78707 0.31178 0.00315 -0.01100
C 	C 	0.75430 0.29047 0.96927 -0.02200
C 	C 	0.82614 0.19851 0.99249 0.02600
C 	C 	0.88963 0.22429 0.98741 -0.05800
C 	C 	0.90964 0.18319 0.99990 0.02900
C 	C 	0.86737 0.11682 0.01912 -0.08100
C 	C 	0.79797 0.08896 0.01599 0.01000
C 	C 	0.77768 0.12967 0.00388 -0.03800
C 	C 	0.97616 0.21050 0.99591 0.07800
C 	C 	0.70923 0.10093 0.00599 0.09300
C 	C 	0.73593 0.23598 0.92911 0.09100
C 	C 	0.87376 0.32448 0.06630 0.09100
N 	N 	0.65438 0.07796 0.00767 -0.11300
N 	N 	0.90225 0.34258 0.09415 -0.10400
N 	N 	0.70882 0.21917 0.90091 -0.10800
H 	H 	0.71563 0.29871 0.94717 0.05200
H 	H 	0.89052 0.25822 0.04925 0.05500
H 	H 	0.92537 0.27675 0.97630 0.06000
H 	H 	0.76296 0.03670 0.02796 0.03800
C 	C 	0.89267 0.57626 0.05243 -0.01900
C 	C 	0.84445 0.59240 0.03274 0.01000
C 	C 	0.79013 0.56462 0.00186 -0.03600
C 	C 	0.77889 0.51571 0.99377 -0.00800
C 	C 	0.81758 0.48967 0.01898 -0.01200
C 	C 	0.87779 0.52351 0.04626 -0.02100
C 	C 	0.84908 0.63666 0.04490 0.02700
C 	C 	0.85189 0.69208 0.01779 -0.05500
C 	C 	0.86378 0.73755 0.02986 0.02400
C 	C 	0.88227 0.73240 0.06954 -0.07800
C 	C 	0.86793 0.67221 0.09564 0.01600
C 	C 	0.84966 0.62349 0.08327 -0.03900
C 	C 	0.85509 0.78814 0.00153 0.08600
C 	C 	0.83081 0.56031 0.10978 0.09700
C 	C 	0.95727 0.61360 0.07863 0.08700
C 	C 	0.72437 0.48923 0.96104 0.08600
N 	N 	0.84755 0.82837 0.97869 -0.10300
N 	N 	0.81572 0.50967 0.13101 -0.10900
N 	N 	0.68070 0.46798 0.93482 -0.10900
N 	N 	0.00899 0.64353 0.09963 -0.10600
H 	H 	0.91039 0.50626 0.06430 0.05500
H 	H 	0.75538 0.57957 0.98492 0.05000
H 	H 	0.84527 0.69996 0.98755 0.05300
H 	H 	0.87672 0.66552 0.12602 0.04200
C 	C 	0.56578 0.20967 0.05163 -0.00300
C 	C 	0.60216 0.27558 0.03015 -0.01700
C 	C 	0.57061 0.30832 0.01226 -0.01500
C 	C 	0.59678 0.17465 0.07034 0.08900
N 	N 	0.62164 0.14660 0.08533 -0.10800
H 	H 	0.59795 0.35867 0.99526 0.05300
