data_crystal

_cell_length_a 29.96294
_cell_length_b 27.50144
_cell_length_c 19.46463
_cell_angle_alpha 92.66333
_cell_angle_beta  85.31602
_cell_angle_gamma 124.23341

_symmetry_space_group_name_	'P 1'
_symmetry_space_group_name_H-M	'P 1'

loop_
_symmetry_equiv_pos_as_xyz
  x,y,z

loop_
_atom_site_label
_atom_site_type_symbol
_atom_site_fract_x
_atom_site_fract_y
_atom_site_fract_z
_atom_site_charge
C 	C 	0.00342 0.95784 0.88688 -0.03100
C 	C 	0.05453 0.01099 0.87885 0.04200
C 	C 	0.05891 0.05937 0.84951 -0.03200
C 	C 	0.09733 0.02759 0.92105 -0.04700
S 	S 	0.11332 0.12077 0.87788 0.02900
H 	H 	0.03871 0.14633 0.82368 0.06500
C 	C 	0.13374 0.08876 0.92612 -0.00200
H 	H 	0.10014 0.99650 0.94932 0.07100
C 	C 	0.29374 0.16926 0.99209 -0.03100
C 	C 	0.27168 0.11992 0.94872 0.02800
C 	C 	0.21994 0.09434 0.92585 -0.05000
C 	C 	0.18972 0.11791 0.94624 0.06100
C 	C 	0.21246 0.16832 0.98797 -0.08900
C 	C 	0.26440 0.19410 0.01048 0.07700
H 	H 	0.29476 0.10158 0.93250 0.07900
H 	H 	0.20343 0.05638 0.89212 0.06900
H 	H 	0.18969 0.18712 0.00358 0.10600
H 	H 	0.28177 0.23320 0.04239 0.08000
C 	C 	0.01730 0.98222 0.68029 0.04200
C 	C 	0.01610 0.02896 0.65829 -0.03400
C 	C 	0.06960 0.99816 0.69385 -0.06100
S 	S 	0.07884 0.08892 0.65227 0.05700
C 	C 	0.10868 0.05829 0.68200 0.00600
H 	H 	0.07865 0.96758 0.70984 0.06300
C 	C 	0.28040 0.14871 0.66046 0.03000
C 	C 	0.24767 0.09092 0.63593 0.00200
C 	C 	0.19137 0.06025 0.64516 -0.02000
C 	C 	0.16753 0.08696 0.67985 0.03300
C 	C 	0.20047 0.14327 0.70832 -0.02400
C 	C 	0.25672 0.17383 0.69916 -0.00300
H 	H 	0.26581 0.07063 0.60765 0.09200
H 	H 	0.16636 0.01666 0.62333 0.07400
H 	H 	0.18246 0.16390 0.73608 0.06100
H 	H 	0.28185 0.21784 0.71991 0.08100
C 	C 	0.37310 0.18701 0.69256 0.01300
C 	C 	0.33939 0.18353 0.64392 0.08600
C 	C 	0.36202 0.21202 0.57934 -0.12100
C 	C 	0.41758 0.23885 0.56251 0.08000
C 	C 	0.45095 0.24062 0.61032 0.00600
C 	C 	0.42918 0.21677 0.67700 -0.06400
C 	C 	0.46534 0.22077 0.73041 0.77600
H 	H 	0.35536 0.16568 0.74210 0.08800
H 	H 	0.43491 0.25749 0.51168 0.10000
C 	C 	0.32671 0.21174 0.52730 0.79100
F 	F 	0.43811 0.20250 0.79476 -0.41100
F 	F 	0.50932 0.27831 0.73631 -0.39700
F 	F 	0.48357 0.18558 0.71045 -0.41000
F 	F 	0.29486 0.22943 0.55834 -0.42500
F 	F 	0.29381 0.15568 0.50095 -0.41900
F 	F 	0.35748 0.24967 0.47298 -0.40000
C 	C 	0.39229 0.24061 0.96819 -0.01200
C 	C 	0.34981 0.19844 0.01238 0.14000
C 	C 	0.36115 0.18222 0.07333 -0.13100
C 	C 	0.41540 0.20655 0.08667 0.07700
C 	C 	0.45789 0.24724 0.04114 0.03000
C 	C 	0.44644 0.26652 0.98268 -0.07100
H 	H 	0.38295 0.25224 0.92152 0.10900
H 	H 	0.42468 0.19268 0.13151 0.10200
C 	C 	0.31555 0.13768 0.12280 0.79600
F 	F 	0.47239 0.33228 0.88784 -0.39400
F 	F 	0.28573 0.08368 0.09045 -0.41700
F 	F 	0.28206 0.15609 0.14358 -0.41600
F 	F 	0.33482 0.13064 0.18122 -0.40000
C 	C 	0.01311 0.05369 0.82594 0.04500
C 	C 	0.49159 0.31217 0.93359 0.77900
C 	C 	0.51345 0.26529 0.05180 0.27800
O 	O 	0.54783 0.31553 0.07899 -0.27800
O 	O 	0.53849 0.24981 0.00893 -0.25900
C 	C 	0.50772 0.26441 0.58883 0.31100
O 	O 	0.54326 0.31980 0.57901 -0.29500
O 	O 	0.52195 0.23380 0.55372 -0.27500
Cl	Cl	0.52088 0.22945 0.28548 -0.21900
F 	F 	0.51529 0.28755 0.89592 -0.39700
F 	F 	0.53019 0.36027 0.96987 -0.43000
Cl	Cl	0.60702 0.21177 0.68065 -0.18700
Co	Co	0.61692 0.32907 0.02357 1.20400
O 	O 	0.66505 0.31791 0.93192 -0.45400
O 	O 	0.62600 0.36184 0.92163 -0.26700
O 	O 	0.65504 0.29176 0.05408 -0.42700
C 	C 	0.65957 0.35038 0.89249 0.32100
Co	Co	0.59795 0.31062 0.51549 1.19900
O 	O 	0.62695 0.26247 0.44167 -0.43200
O 	O 	0.66004 0.39373 0.49768 -0.34800
O 	O 	0.58061 0.29435 0.40940 -0.28800
O 	O 	0.64523 0.29285 0.56271 -0.42400
C 	C 	0.60935 0.27379 0.38994 0.33800
C 	C 	0.66437 0.34537 0.81753 -0.07100
C 	C 	0.64076 0.28324 0.71590 0.20300
C 	C 	0.63389 0.28981 0.78672 -0.01100
H 	H 	0.60579 0.25139 0.81820 0.12600
C 	C 	0.66295 0.28662 0.17721 -0.06300
C 	C 	0.62493 0.27016 0.31691 -0.09000
C 	C 	0.58982 0.25828 0.26499 0.20300
C 	C 	0.60920 0.26746 0.19576 -0.03500
H 	H 	0.58257 0.26053 0.15647 0.07700
F 	F 	0.66427 0.48165 0.41887 -0.40700
C 	C 	0.67695 0.33320 0.67476 -0.07400
O 	O 	0.67851 0.40409 0.05756 -0.36000
C 	C 	0.68529 0.30694 0.10562 0.32300
Co	Co	0.70474 0.30289 0.47121 1.19800
O 	O 	0.70157 0.22487 0.49009 -0.26600
C 	C 	0.71021 0.41182 0.47540 0.34500
C 	C 	0.68488 0.32783 0.60023 0.31400
C 	C 	0.70117 0.39508 0.77673 0.19500
C 	C 	0.70695 0.38886 0.70554 -0.02300
C 	C 	0.69582 0.29108 0.22885 0.18700
C 	C 	0.67697 0.28424 0.29818 -0.01600
H 	H 	0.70328 0.29107 0.33747 0.04700
C 	C 	0.71686 0.50477 0.39318 0.77300
F 	F 	0.73472 0.55477 0.35548 -0.39700
F 	F 	0.71774 0.46453 0.34870 -0.40900
H 	H 	0.67701 0.47895 0.94263 0.10500
F 	F 	0.65842 0.53934 0.88253 -0.39600
Co	Co	0.73284 0.34088 0.97832 1.19800
O 	O 	0.73305 0.26545 0.94490 -0.28800
C 	C 	0.72177 0.43988 0.01724 0.36700
O 	O 	0.73550 0.32928 0.08529 -0.24500
O 	O 	0.73024 0.33869 0.57190 -0.27300
O 	O 	0.72046 0.37808 0.43593 -0.51600
H 	H 	0.73517 0.42728 0.67416 0.10800
Cl	Cl	0.74188 0.46501 0.81436 -0.23900
C 	C 	0.71375 0.51446 0.96436 0.05700
F 	F 	0.71185 0.63486 0.90861 -0.42700
O 	O 	0.75401 0.42413 0.98935 -0.50500
Cl	Cl	0.75859 0.30036 0.20817 -0.17800
C 	C 	0.71166 0.58573 0.88907 0.78600
C 	C 	0.75235 0.51896 0.45239 -0.05200
C 	C 	0.73881 0.50131 0.01090 -0.00100
C 	C 	0.74238 0.23895 0.44766 0.28600
C 	C 	0.75360 0.47449 0.48405 -0.03300
H 	H 	0.74806 0.39635 0.39520 0.23900
C 	C 	0.73806 0.57254 0.94192 -0.10300
H 	H 	0.74261 0.15310 0.37887 0.09700
F 	F 	0.77581 0.27586 0.59742 -0.40900
H 	H 	0.76570 0.23248 0.79647 0.10000
F 	F 	0.76593 0.49238 0.14524 -0.39300
C 	C 	0.77833 0.29662 0.90881 0.29300
H 	H 	0.79014 0.45513 0.96566 0.23700
O 	O 	0.76063 0.28878 0.41881 -0.28800
F 	F 	0.73973 0.59588 0.82555 -0.42600
F 	F 	0.77855 0.18333 0.69990 -0.41600
C 	C 	0.78209 0.57642 0.47910 0.00900
C 	C 	0.79117 0.48990 0.53320 0.07800
H 	H 	0.77763 0.60965 0.45963 0.10300
C 	C 	0.77755 0.21859 0.45830 0.01200
F 	F 	0.78429 0.11810 0.75692 -0.44500
F 	F 	0.75150 0.07483 0.34389 -0.40700
O 	O 	0.79766 0.35177 0.91482 -0.28200
H 	H 	0.79325 0.45589 0.55537 0.08400
C 	C 	0.76933 0.16975 0.42073 0.07800
C 	C 	0.78464 0.54747 0.04316 -0.06900
H 	H 	0.78077 0.61698 0.65246 0.11000
F 	F 	0.75271 0.03744 0.44311 -0.42100
C 	C 	0.79856 0.24005 0.82522 0.07900
H 	H 	0.77555 0.07861 0.59758 0.11700
H 	H 	0.79758 0.71526 0.01739 0.11300
C 	C 	0.78881 0.61736 0.96594 0.05500
C 	C 	0.81151 0.27430 0.88527 0.00400
C 	C 	0.82198 0.29346 0.55558 0.77700
C 	C 	0.80732 0.53535 0.10201 0.77600
C 	C 	0.81154 0.17662 0.73859 0.78900
C 	C 	0.81318 0.24155 0.51257 -0.05500
C 	C 	0.79268 0.14031 0.43951 -0.12200
C 	C 	0.81597 0.59073 0.53287 0.09100
C 	C 	0.78142 0.08591 0.40013 0.79200
C 	C 	0.82333 0.54812 0.55726 -0.12700
C 	C 	0.81072 0.60498 0.01802 0.04400
C 	C 	0.82682 0.21451 0.80311 -0.12000
F 	F 	0.82459 0.30209 0.03362 -0.39600
H 	H 	0.82664 0.11592 0.89980 0.08600
F 	F 	0.83378 0.33902 0.51362 -0.42100
C 	C 	0.82056 0.67655 0.93498 0.05800
C 	C 	0.82232 0.72325 0.96997 -0.03500
C 	C 	0.81628 0.65521 0.62772 0.00300
F 	F 	0.83970 0.51684 0.07586 -0.40600
C 	C 	0.83687 0.21242 0.53067 0.01900
C 	C 	0.81420 0.08693 0.57823 0.02000
C 	C 	0.82515 0.16092 0.49669 0.09700
C 	C 	0.00704 0.10044 0.81628 -0.05800
H 	H 	0.81069 0.02745 0.64992 0.08600
H 	H 	0.81881 0.71515 0.70492 0.08500
F 	F 	0.84041 0.56817 0.67552 -0.42700
F 	F 	0.87278 0.52066 0.61731 -0.40300
F 	F 	0.83807 0.58548 0.14113 -0.39800
C 	C 	0.85424 0.28454 0.92367 -0.05900
F 	F 	0.86467 0.31499 0.59725 -0.39800
C 	C 	0.84049 0.64905 0.56613 0.03600
C 	C 	0.86238 0.56342 0.61236 0.78800
H 	H 	0.86305 0.22856 0.57304 0.13400
H 	H 	0.84882 0.63996 0.03761 0.09800
C 	C 	0.86964 0.32234 0.98835 0.74800
F 	F 	0.85748 0.19209 0.69741 -0.45800
C 	C 	0.84443 0.12712 0.52430 0.04400
C 	C 	0.83415 0.05802 0.60794 -0.00800
C 	C 	0.83762 0.71082 0.65720 -0.02000
C 	C 	0.86741 0.22203 0.84361 0.08900
C 	C 	0.86300 0.13124 0.86668 -0.00400
H 	H 	0.86471 0.05649 0.88744 0.07000
C 	C 	0.85694 0.78050 0.94468 -0.00900
C 	C 	0.85310 0.68739 0.87388 -0.01600
H 	H 	0.85890 0.81652 0.97284 0.06500
H 	H 	0.85226 0.65157 0.84683 0.10800
F 	F 	0.82966 0.09339 0.37623 -0.42400
C 	C 	0.88260 0.25917 0.90125 0.00700
F 	F 	0.89100 0.37998 0.97082 -0.40000
H 	H 	0.87933 0.87702 0.82476 0.06900
C 	C 	0.88871 0.18509 0.83219 0.03300
F 	F 	0.90794 0.32136 0.02238 -0.38800
S 	S 	0.91513 0.00661 0.81340 0.03900
C 	C 	0.91705 0.89104 0.84627 -0.05900
C 	C 	0.88443 0.09738 0.85925 -0.02400
C 	C 	0.89038 0.79152 0.88447 0.02300
C 	C 	0.88774 0.74471 0.84855 -0.01600
S 	S 	0.87221 0.96460 0.61564 0.05500
C 	C 	0.88566 0.85426 0.63931 -0.05300
H 	H 	0.85155 0.83877 0.60845 0.07600
C 	C 	0.88455 0.06913 0.58407 0.03800
C 	C 	0.89520 0.13903 0.50120 0.00600
C 	C 	0.88289 0.76072 0.62490 0.03200
C 	C 	0.90710 0.75465 0.56327 -0.02100
C 	C 	0.88584 0.69901 0.53384 0.00100
H 	H 	0.90439 0.69472 0.48587 0.09100
F 	F 	0.91122 0.61611 0.59696 -0.42300
H 	H 	0.91505 0.26605 0.93032 0.09900
S 	S 	0.99258 0.89188 0.89244 0.04200
C 	C 	0.90514 0.03800 0.61507 0.00800
C 	C 	0.95326 0.08012 0.80642 0.00100
C 	C 	0.93090 0.85215 0.86223 0.00400
C 	C 	0.93157 0.11676 0.81643 0.02900
C 	C 	0.95741 0.17085 0.78206 -0.02800
C 	C 	0.93652 0.20533 0.79080 -0.00100
H 	H 	0.95710 0.24740 0.76490 0.09000
H 	H 	0.91326 0.75288 0.80183 0.06800
C 	C 	0.92521 0.96089 0.62304 -0.03300
C 	C 	0.92298 0.91451 0.65503 0.04200
C 	C 	0.90393 0.81919 0.65486 0.00400
C 	C 	0.91493 0.10969 0.53030 -0.01800
H 	H 	0.91930 0.17091 0.46059 0.09400
H 	H 	0.99038 0.10905 0.62511 0.06600
C 	C 	0.96990 0.92549 0.68236 -0.03400
C 	C 	0.97146 0.01896 0.62640 0.05300
C 	C 	0.96451 0.99791 0.82458 -0.04100
C 	C 	0.95833 0.95064 0.85879 0.04400
H 	H 	0.99351 0.18602 0.74843 0.06200
C 	C 	0.96022 0.06225 0.62100 -0.05700
S 	S 	0.96616 0.86285 0.68288 0.03700
H 	H 	0.95364 0.11829 0.51084 0.07400
H 	H 	0.94192 0.79304 0.53780 0.07300
