data_crystal

_cell_length_a 26.30501
_cell_length_b 26.47205
_cell_length_c 35.08088
_cell_angle_alpha 95.49909
_cell_angle_beta  95.49562
_cell_angle_gamma 125.83604

_symmetry_space_group_name_	'P 1'
_symmetry_space_group_name_H-M	'P 1'

loop_
_symmetry_equiv_pos_as_xyz
  x,y,z

loop_
_atom_site_label
_atom_site_type_symbol
_atom_site_fract_x
_atom_site_fract_y
_atom_site_fract_z
_atom_site_charge
C 	C 	0.96767 0.02630 0.99179 0.05400
C 	C 	0.92998 0.96184 0.99412 -0.09700
C 	C 	0.95604 0.92850 0.99276 0.05300
C 	C 	0.02049 0.96009 0.99046 -0.09500
C 	C 	0.05798 0.02410 0.98689 0.05500
C 	C 	0.03158 0.05735 0.98776 -0.09600
H 	H 	0.88012 0.93740 0.99615 0.05600
H 	H 	0.04078 0.93431 0.98989 0.05800
H 	H 	0.06038 0.10686 0.98506 0.05700
C 	C 	0.94306 0.01425 0.46033 0.05400
C 	C 	0.00978 0.05133 0.46574 -0.09400
C 	C 	0.04058 0.02262 0.46768 0.05500
C 	C 	0.00476 0.95676 0.46459 -0.09400
C 	C 	0.93790 0.91919 0.45843 0.05200
C 	C 	0.90701 0.94807 0.45674 -0.09700
H 	H 	0.03763 0.10240 0.46834 0.05700
H 	H 	0.02876 0.93466 0.46630 0.05800
H 	H 	0.85536 0.91927 0.45241 0.05600
Cu	Cu	0.64389 0.24561 0.00432 0.92400
Cu	Cu	0.67522 0.22468 0.91829 0.88000
Cu	Cu	0.66102 0.33587 0.94986 0.90900
Cu	Cu	0.63270 0.35673 0.02921 0.89800
C 	C 	0.64679 0.28433 0.08478 0.29300
O 	O 	0.54932 0.19684 0.00491 -0.36600
C 	C 	0.67648 0.31028 0.87401 0.29500
O 	O 	0.68422 0.34175 0.00446 -0.63800
O 	O 	0.62828 0.24552 0.94766 -0.63200
O 	O 	0.70042 0.21760 0.00637 -0.36400
O 	O 	0.66090 0.16003 0.94459 -0.42100
O 	O 	0.64723 0.33338 0.07937 -0.37700
O 	O 	0.69926 0.42486 0.95372 -0.37100
C 	C 	0.69781 0.45867 0.98314 0.29500
C 	C 	0.51732 0.21818 0.99326 0.29400
O 	O 	0.54781 0.27745 0.98888 -0.39100
O 	O 	0.65447 0.43104 0.00532 -0.39000
O 	O 	0.66594 0.26073 0.05998 -0.35600
C 	C 	0.69459 0.17547 0.97936 0.29700
O 	O 	0.64694 0.32672 0.89383 -0.37500
O 	O 	0.71192 0.29672 0.89221 -0.42200
H 	H 	0.73058 0.37288 0.01494 0.16300
H 	H 	0.58233 0.21626 0.93584 0.15900
Cu	Cu	0.72504 0.33922 0.45113 0.92400
Cu	Cu	0.76270 0.32027 0.53830 0.87900
Cu	Cu	0.64405 0.32630 0.51148 0.91000
Cu	Cu	0.60894 0.34531 0.43399 0.89500
C 	C 	0.66302 0.31485 0.37163 0.29600
O 	O 	0.76625 0.43117 0.44604 -0.35700
C 	C 	0.68295 0.32186 0.58766 0.29500
O 	O 	0.62976 0.29678 0.45677 -0.64200
O 	O 	0.73433 0.36110 0.50852 -0.63100
O 	O 	0.75774 0.28676 0.44812 -0.36300
O 	O 	0.82265 0.33204 0.50792 -0.42300
O 	O 	0.63870 0.34397 0.38381 -0.38000
O 	O 	0.55536 0.28607 0.51330 -0.37500
C 	C 	0.51468 0.28366 0.48664 0.30100
C 	C 	0.74519 0.46183 0.46089 0.29400
O 	O 	0.69010 0.43019 0.47242 -0.39800
O 	O 	0.53394 0.31862 0.45925 -0.39500
O 	O 	0.69933 0.30802 0.39595 -0.35400
C 	C 	0.80261 0.29459 0.47408 0.29800
O 	O 	0.66250 0.34796 0.56763 -0.37500
O 	O 	0.69622 0.28636 0.56934 -0.42200
H 	H 	0.59813 0.25026 0.44821 0.16600
H 	H 	0.76343 0.40743 0.51842 0.16000
C 	C 	0.69687 0.37424 0.77964 -0.04100
C 	C 	0.67742 0.32060 0.75233 0.02200
C 	C 	0.65643 0.26333 0.76485 -0.04100
C 	C 	0.65438 0.25952 0.80454 0.02100
C 	C 	0.67571 0.31370 0.83209 -0.08700
C 	C 	0.69734 0.37125 0.81959 0.02500
C 	C 	0.67972 0.32454 0.71026 0.02100
C 	C 	0.63716 0.20842 0.73683 0.09500
C 	C 	0.72186 0.42780 0.84792 0.08300
C 	C 	0.73699 0.34753 0.69662 -0.04100
C 	C 	0.73845 0.34854 0.65662 0.02100
C 	C 	0.68208 0.32447 0.62994 -0.08600
C 	C 	0.62474 0.30159 0.64366 0.02500
C 	C 	0.62405 0.30312 0.68390 -0.04100
C 	C 	0.79427 0.36972 0.72376 0.09500
C 	C 	0.56602 0.27441 0.61633 0.08300
C 	C 	0.79815 0.37522 0.64295 0.05200
C 	C 	0.56598 0.28227 0.69822 0.09700
C 	C 	0.71653 0.43249 0.76656 0.09700
C 	C 	0.62911 0.19952 0.81694 0.04900
N 	N 	0.84577 0.39650 0.63204 -0.13500
N 	N 	0.83993 0.38741 0.74546 -0.11700
N 	N 	0.51909 0.25266 0.59461 -0.10500
N 	N 	0.51968 0.26565 0.70969 -0.11600
N 	N 	0.62179 0.16465 0.71444 -0.11600
N 	N 	0.60894 0.15166 0.82683 -0.13600
N 	N 	0.74145 0.47292 0.87050 -0.10400
N 	N 	0.73221 0.47895 0.75608 -0.11500
C 	C 	0.62727 0.22784 0.26872 -0.03800
C 	C 	0.65246 0.27815 0.24792 0.02100
C 	C 	0.68390 0.34081 0.26802 -0.04000
C 	C 	0.68944 0.35308 0.30876 0.02100
C 	C 	0.66130 0.30238 0.32933 -0.07500
C 	C 	0.63107 0.23983 0.30936 0.01900
C 	C 	0.64495 0.26523 0.20459 0.02100
C 	C 	0.71016 0.39258 0.24666 0.09600
C 	C 	0.60310 0.18780 0.33053 0.07800
C 	C 	0.59006 0.25051 0.18068 -0.03900
C 	C 	0.58862 0.25158 0.14050 0.01800
C 	C 	0.64249 0.26831 0.12429 -0.07300
C 	C 	0.69514 0.27737 0.14767 0.02100
C 	C 	0.69563 0.27455 0.18764 -0.03900
C 	C 	0.53580 0.23593 0.19766 0.09400
C 	C 	0.74989 0.29234 0.13111 0.09000
C 	C 	0.53238 0.23715 0.11601 0.07300
C 	C 	0.74897 0.28282 0.21161 0.09700
C 	C 	0.59727 0.16383 0.24826 0.09700
C 	C 	0.72539 0.41797 0.32967 0.08500
N 	N 	0.48753 0.22582 0.09657 -0.11900
N 	N 	0.49254 0.22430 0.21126 -0.11700
N 	N 	0.79359 0.30427 0.11793 -0.10700
N 	N 	0.79151 0.28942 0.23079 -0.11300
N 	N 	0.73108 0.43380 0.22955 -0.11600
N 	N 	0.75406 0.46970 0.34637 -0.10900
N 	N 	0.58080 0.14631 0.34743 -0.11400
N 	N 	0.57334 0.11277 0.23188 -0.11400
C 	C 	0.77514 0.52791 0.45624 -0.10900
C 	C 	0.83687 0.57861 0.47715 0.12800
C 	C 	0.86061 0.64138 0.47486 -0.09800
C 	C 	0.82323 0.65425 0.45297 0.00700
C 	C 	0.76215 0.60348 0.43141 0.05800
C 	C 	0.73916 0.54082 0.43288 -0.01600
N 	N 	0.87302 0.56762 0.49996 -0.20300
H 	H 	0.90771 0.68040 0.49093 0.05800
C 	C 	0.84826 0.72115 0.45334 -0.01200
N 	N 	0.72496 0.61451 0.40975 -0.19100
H 	H 	0.69228 0.50183 0.41648 0.03400
C 	C 	0.87692 0.75002 0.42247 -0.08000
C 	C 	0.90118 0.81328 0.42183 0.08700
C 	C 	0.90043 0.84945 0.45395 -0.03700
C 	C 	0.87018 0.82011 0.48430 -0.06600
C 	C 	0.84331 0.75597 0.48411 0.07500
H 	H 	0.87927 0.72278 0.39851 0.05500
N 	N 	0.92420 0.83873 0.39014 -0.19800
H 	H 	0.86883 0.84765 0.50859 0.04700
N 	N 	0.81294 0.72825 0.51345 -0.19500
H 	H 	0.92685 0.81255 0.36721 0.08400
H 	H 	0.93717 0.88354 0.38721 0.08400
H 	H 	0.81040 0.75462 0.53631 0.08300
H 	H 	0.79065 0.68022 0.51361 0.08900
H 	H 	0.68010 0.57664 0.39376 0.08400
H 	H 	0.73972 0.66046 0.40879 0.08800
H 	H 	0.85650 0.52177 0.50294 0.08600
H 	H 	0.91848 0.60544 0.51526 0.08500
C 	C 	0.91128 0.04533 0.45952 -0.03800
C 	C 	0.89426 0.05839 0.42428 0.08800
C 	C 	0.87506 0.09802 0.42547 -0.08000
C 	C 	0.87291 0.12491 0.46115 -0.01200
C 	C 	0.88742 0.10975 0.49625 0.07500
C 	C 	0.90593 0.06957 0.49498 -0.06600
N 	N 	0.89649 0.03332 0.38931 -0.19800
H 	H 	0.86261 0.10869 0.39860 0.05500
C 	C 	0.85481 0.16847 0.46135 0.00600
N 	N 	0.88461 0.13425 0.53123 -0.19500
H 	H 	0.91853 0.05905 0.52187 0.04800
C 	C 	0.79086 0.14378 0.46083 -0.09700
C 	C 	0.77296 0.18423 0.46594 0.12300
C 	C 	0.81946 0.25048 0.46870 -0.11600
C 	C 	0.88308 0.27497 0.46779 -0.01900
C 	C 	0.90142 0.23466 0.46437 0.05700
H 	H 	0.75536 0.09307 0.45843 0.05800
N 	N 	0.71188 0.15948 0.46971 -0.20100
H 	H 	0.91859 0.32565 0.47008 0.04300
N 	N 	0.96369 0.25978 0.46422 -0.19100
H 	H 	0.67741 0.11038 0.46586 0.08500
H 	H 	0.69864 0.18839 0.47843 0.06600
H 	H 	0.99778 0.30872 0.46678 0.08500
H 	H 	0.97891 0.23122 0.46138 0.08800
H 	H 	0.89546 0.12276 0.55695 0.08300
H 	H 	0.87189 0.16493 0.53337 0.08700
H 	H 	0.90841 0.00196 0.38726 0.08600
H 	H 	0.88508 0.04424 0.36352 0.08500
C 	C 	0.11064 0.06160 0.47251 -0.03700
C 	C 	0.14100 0.07434 0.43978 0.08700
C 	C 	0.20781 0.11129 0.44557 -0.07900
C 	C 	0.24453 0.13517 0.48330 -0.01300
C 	C 	0.21418 0.12251 0.51604 0.07600
C 	C 	0.14737 0.08590 0.51025 -0.06600
N 	N 	0.10641 0.05127 0.40282 -0.19800
H 	H 	0.23136 0.12124 0.42062 0.05300
C 	C 	0.31477 0.17341 0.48805 0.00700
N 	N 	0.24873 0.14486 0.55297 -0.19600
H 	H 	0.12382 0.07599 0.53520 0.04900
C 	C 	0.35065 0.23951 0.49223 -0.10100
C 	C 	0.41705 0.27707 0.49467 0.13300
C 	C 	0.44729 0.24737 0.49056 -0.10900
C 	C 	0.41182 0.18156 0.48795 -0.01900
C 	C 	0.34575 0.14417 0.48689 0.05800
H 	H 	0.32688 0.26181 0.49402 0.05800
N 	N 	0.45158 0.34140 0.50218 -0.20300
H 	H 	0.43549 0.15917 0.48589 0.03900
N 	N 	0.31244 0.08042 0.48471 -0.19100
H 	H 	0.42858 0.36283 0.50352 0.08600
H 	H 	0.50140 0.37062 0.50875 0.09800
H 	H 	0.33564 0.05920 0.48329 0.08500
H 	H 	0.26360 0.05145 0.48503 0.08900
H 	H 	0.22582 0.13533 0.57692 0.08600
H 	H 	0.29843 0.17153 0.55834 0.09300
H 	H 	0.05664 0.02358 0.39739 0.08600
H 	H 	0.12936 0.06095 0.37888 0.08400
C 	C 	0.73471 0.52763 0.98555 -0.10700
C 	C 	0.80223 0.56689 0.99089 0.12700
C 	C 	0.83559 0.63215 0.99168 -0.09700
C 	C 	0.80305 0.65907 0.98868 0.00700
C 	C 	0.73567 0.62005 0.98401 0.05800
C 	C 	0.70214 0.55455 0.98233 -0.01900
N 	N 	0.83531 0.54261 0.99626 -0.20200
H 	H 	0.88724 0.66235 0.99534 0.05800
C 	C 	0.84017 0.72813 0.99007 -0.01400
N 	N 	0.70298 0.64511 0.98127 -0.19100
H 	H 	0.65045 0.52436 0.97830 0.04600
C 	C 	0.85180 0.75106 0.95512 -0.08000
C 	C 	0.88839 0.81639 0.95526 0.08800
C 	C 	0.91476 0.85947 0.99125 -0.04000
C 	C 	0.90265 0.83654 0.02619 -0.06400
C 	C 	0.86532 0.77113 0.02600 0.07700
H 	H 	0.83212 0.71787 0.92768 0.05600
N 	N 	0.89773 0.83737 0.92083 -0.19800
H 	H 	0.92257 0.86974 0.05364 0.04700
N 	N 	0.85371 0.74998 0.06029 -0.19500
H 	H 	0.87894 0.80519 0.89449 0.08500
H 	H 	0.92269 0.88547 0.91971 0.08500
H 	H 	0.87291 0.78217 0.08666 0.08400
H 	H 	0.82522 0.70164 0.06117 0.08900
H 	H 	0.65321 0.61582 0.97770 0.08400
H 	H 	0.72642 0.69371 0.98284 0.08800
H 	H 	0.81260 0.49539 0.99903 0.08000
H 	H 	0.88498 0.57173 0.99905 0.08500
C 	C 	0.93902 0.06035 0.99184 -0.04000
C 	C 	0.93316 0.08538 0.02724 0.09000
C 	C 	0.89457 0.10593 0.02632 -0.07900
C 	C 	0.86242 0.10243 0.99075 -0.01400
C 	C 	0.87125 0.08081 0.95525 0.07500
C 	C 	0.90969 0.06010 0.95622 -0.06600
N 	N 	0.96434 0.08975 0.06210 -0.19800
H 	H 	0.88894 0.12403 0.05340 0.05500
C 	C 	0.81961 0.12153 0.99104 0.00600
N 	N 	0.84245 0.07907 0.92027 -0.19500
H 	H 	0.91497 0.04159 0.92915 0.04700
C 	C 	0.84487 0.18480 0.99003 -0.09800
C 	C 	0.80483 0.20348 0.98603 0.12300
C 	C 	0.73848 0.15829 0.98494 -0.11400
C 	C 	0.71353 0.09546 0.98732 -0.01900
C 	C 	0.75346 0.07648 0.99037 0.05800
H 	H 	0.89561 0.21916 0.99081 0.05700
N 	N 	0.83007 0.26421 0.98210 -0.20100
H 	H 	0.66277 0.06103 0.98646 0.04200
N 	N 	0.72801 0.01510 0.99246 -0.18900
H 	H 	0.87927 0.29744 0.98395 0.08300
H 	H 	0.80132 0.27867 0.97599 0.06400
H 	H 	0.67902 0.98206 0.99146 0.08300
H 	H 	0.75643 0.99963 0.99546 0.08600
H 	H 	0.84886 0.06250 0.89427 0.08400
H 	H 	0.81383 0.09441 0.91843 0.08800
H 	H 	0.99585 0.07785 0.06368 0.08800
H 	H 	0.95846 0.10679 0.08815 0.08500
C 	C 	0.44689 0.17475 0.98301 -0.11400
C 	C 	0.41392 0.18136 0.95195 0.12800
C 	C 	0.34987 0.15677 0.95113 -0.10000
C 	C 	0.31675 0.12059 0.97857 0.00400
C 	C 	0.34694 0.10512 0.00561 0.06200
C 	C 	0.41229 0.13340 0.00805 -0.02000
N 	N 	0.44280 0.20912 0.92223 -0.20100
H 	H 	0.32565 0.16553 0.92897 0.05800
C 	C 	0.25118 0.10064 0.97929 -0.01400
N 	N 	0.31373 0.06373 0.02935 -0.19100
H 	H 	0.43663 0.12501 0.03036 0.05300
C 	C 	0.20147 0.05439 0.94870 -0.08100
C 	C 	0.13863 0.03348 0.94876 0.08900
C 	C 	0.12467 0.05579 0.98148 -0.04000
C 	C 	0.17468 0.10399 0.01127 -0.06400
C 	C 	0.23818 0.12807 0.00992 0.07800
H 	H 	0.21186 0.03516 0.92455 0.05300
N 	N 	0.09221 0.99300 0.91713 -0.19900
H 	H 	0.16410 0.12220 0.03584 0.04800
N 	N 	0.28624 0.17748 0.03789 -0.19500
H 	H 	0.10227 0.97455 0.89384 0.08400
H 	H 	0.04668 0.98189 0.91452 0.08500
H 	H 	0.27598 0.19589 0.06108 0.08600
H 	H 	0.33410 0.19954 0.03623 0.09400
H 	H 	0.33695 0.05449 0.05022 0.09000
H 	H 	0.26438 0.03877 0.02647 0.09000
H 	H 	0.48679 0.21926 0.91905 0.08300
H 	H 	0.41937 0.21689 0.90048 0.08700
