data_crystal

_cell_length_a 20.36682
_cell_length_b 21.60397
_cell_length_c 31.62491
_cell_angle_alpha 60.92538
_cell_angle_beta  118.77635
_cell_angle_gamma 133.32053

_symmetry_space_group_name_	'P 1'
_symmetry_space_group_name_H-M	'P 1'

loop_
_symmetry_equiv_pos_as_xyz
  x,y,z

loop_
_atom_site_label
_atom_site_type_symbol
_atom_site_fract_x
_atom_site_fract_y
_atom_site_fract_z
_atom_site_charge
O 	O 	0.00451 0.87956 0.49878 -0.36300
O 	O 	0.00034 0.11666 0.38283 -0.10100
Co	Co	0.00159 0.85792 0.13373 1.18900
O 	O 	0.01335 0.00230 0.97798 -0.38000
Co	Co	0.01618 0.86347 0.63805 1.18800
O 	O 	0.00786 0.94880 0.74906 -0.33300
C 	C 	0.00509 0.97007 0.81929 0.01400
C 	C 	0.01761 0.96676 0.91453 0.00400
C 	C 	0.03686 0.92496 0.86324 0.10300
Co	Co	0.02728 0.10050 0.09835 1.18100
O 	O 	0.03249 0.10560 0.54148 -0.45700
O 	O 	0.01816 0.12085 0.69867 -0.39200
C 	C 	0.03285 0.03677 0.33142 -0.08700
C 	C 	0.02653 0.03116 0.37617 0.04000
O 	O 	0.03387 0.98723 0.12294 -0.53100
C 	C 	0.00579 0.94624 0.96481 0.35200
C 	C 	0.04590 0.92595 0.91027 -0.01800
N 	N 	0.05668 0.87507 0.86073 -0.02100
O 	O 	0.04738 0.77745 0.59817 -0.39200
O 	O 	0.05256 0.92462 0.08413 -0.72100
Co	Co	0.04689 0.01512 0.54967 1.15500
O 	O 	0.04884 0.92687 0.58252 -0.72000
N 	N 	0.05938 0.10840 0.38483 -0.01800
H 	H 	0.06048 0.09924 0.30419 0.07800
H 	H 	0.05550 0.31394 0.58684 0.06600
O 	O 	0.01669 0.14551 0.86289 -0.08000
O 	O 	0.00122 0.75374 0.09380 -0.40200
Br	Br	0.00202 0.35521 0.98236 -0.17000
H 	H 	0.07053 0.89079 0.94357 0.07200
C 	C 	0.99124 0.01639 0.87067 0.04900
C 	C 	0.98856 0.02044 0.82377 -0.08400
H 	H 	0.96635 0.05750 0.79043 0.06300
N 	N 	0.96391 0.06029 0.87288 -0.01800
Co	Co	0.06818 0.02158 0.05218 1.15900
O 	O 	0.07129 0.12422 0.04246 -0.45500
O 	O 	0.99808 0.99501 0.47616 -0.28900
C 	C 	0.99677 0.96144 0.31972 0.01000
H 	H 	0.16306 0.50148 0.20994 0.08100
H 	H 	0.11393 0.53387 0.67115 0.08600
Co	Co	0.09507 0.88324 0.06154 1.18400
C 	C 	0.13818 0.22097 0.17027 0.31400
C 	C 	0.15811 0.83722 0.16829 0.31900
O 	O 	0.99482 0.87415 0.99713 -0.36200
O 	O 	0.08006 0.15708 0.19972 -0.38600
O 	O 	0.13506 0.20866 0.13123 -0.36200
O 	O 	0.18856 0.89910 0.12895 -0.34700
O 	O 	0.09475 0.82288 0.18178 -0.33800
C 	C 	0.96780 0.96299 0.26551 0.30300
O 	O 	0.18831 0.00773 0.02503 -0.44600
O 	O 	0.20899 0.08992 0.06204 -0.39100
Co	Co	0.98215 0.06937 0.59852 1.15800
Co	Co	0.11413 0.90856 0.55942 1.18800
C 	C 	0.06626 0.18772 0.66527 0.30900
C 	C 	0.19560 0.88423 0.66493 0.31200
O 	O 	0.08030 0.17630 0.63286 -0.37600
O 	O 	0.21537 0.94144 0.62270 -0.35600
O 	O 	0.13770 0.86988 0.68270 -0.33600
C 	C 	0.96271 0.94576 0.77042 0.30500
O 	O 	0.18704 0.03736 0.51941 -0.43300
O 	O 	0.18962 0.09933 0.56173 -0.39700
O 	O 	0.88221 0.01573 0.87981 -0.10400
O 	O 	0.14591 0.17562 0.38658 -0.09600
C 	C 	0.10289 0.40335 0.62468 0.08800
C 	C 	0.08651 0.33016 0.62228 -0.01500
C 	C 	0.10731 0.27650 0.66578 -0.09100
Br	Br	0.07962 0.47848 0.56442 -0.18200
C 	C 	0.22401 0.82474 0.68578 -0.07700
C 	C 	0.16532 0.73373 0.70760 0.13700
C 	C 	0.17486 0.67455 0.70768 -0.07100
H 	H 	0.13373 0.60607 0.72679 0.08300
Br	Br	0.08035 0.68984 0.74252 -0.19300
C 	C 	0.19647 0.31017 0.17610 -0.09300
C 	C 	0.23553 0.32356 0.22431 0.14300
C 	C 	0.25223 0.39211 0.23210 -0.07800
H 	H 	0.28079 0.40097 0.26944 0.08500
Br	Br	0.26768 0.24921 0.27988 -0.20400
C 	C 	0.17620 0.68345 0.15763 0.08900
C 	C 	0.15408 0.73876 0.14634 -0.00000
C 	C 	0.16655 0.76555 0.18383 -0.09100
H 	H 	0.13532 0.76756 0.10762 0.03100
Br	Br	0.15261 0.64725 0.10425 -0.18200
C 	C 	0.73416 0.31176 0.01496 0.03100
C 	C 	0.63716 0.26667 0.99859 -0.02100
C 	C 	0.59473 0.29466 0.00137 0.04200
C 	C 	0.64847 0.37698 0.00955 -0.06500
C 	C 	0.74473 0.42426 0.02520 0.05300
C 	C 	0.78865 0.39191 0.02809 -0.05600
H 	H 	0.59442 0.20614 0.98766 0.07600
H 	H 	0.61463 0.39977 0.00944 0.07200
H 	H 	0.86325 0.42711 0.04146 0.07700
C 	C 	0.71299 0.29063 0.52285 0.07100
C 	C 	0.78407 0.36848 0.54028 -0.07200
C 	C 	0.76024 0.40806 0.54954 0.07400
C 	C 	0.66775 0.36620 0.54602 -0.08400
C 	C 	0.59770 0.28998 0.52920 0.07300
C 	C 	0.61948 0.25483 0.51490 -0.08000
H 	H 	0.85637 0.39643 0.54776 0.09600
H 	H 	0.65003 0.39405 0.55590 0.07800
H 	H 	0.56396 0.19761 0.49967 0.07300
C 	C 	0.27951 0.63622 0.21367 0.07000
C 	C 	0.37392 0.70157 0.21289 -0.07300
C 	C 	0.42100 0.68651 0.20253 0.07500
C 	C 	0.37653 0.60454 0.19688 -0.07800
C 	C 	0.28430 0.53792 0.19963 0.07400
C 	C 	0.23577 0.55249 0.20934 -0.07000
H 	H 	0.40817 0.76611 0.21611 0.08900
H 	H 	0.41325 0.59334 0.18873 0.07900
C 	C 	0.25781 0.64511 0.68875 0.07000
C 	C 	0.35060 0.67699 0.69953 -0.07100
C 	C 	0.37104 0.63731 0.68841 0.07400
C 	C 	0.30067 0.55643 0.67676 -0.07500
C 	C 	0.20860 0.51658 0.67290 0.07500
C 	C 	0.18578 0.56193 0.67726 -0.07400
H 	H 	0.40669 0.73726 0.71186 0.08500
H 	H 	0.31767 0.52379 0.67081 0.08000
Co	Co	0.94313 0.93116 0.17237 1.20800
C 	C 	0.24189 0.07653 0.04271 0.34000
Co	Co	0.94017 0.08161 0.17028 1.15000
C 	C 	0.91483 0.72043 0.08624 0.32300
O 	O 	0.96221 0.18480 0.10793 -0.40800
O 	O 	0.97800 0.03539 0.14769 -0.80400
C 	C 	0.92025 0.16986 0.06391 0.32000
O 	O 	0.93695 0.82679 0.18169 -0.42600
C 	C 	0.76674 0.91183 0.15093 0.30800
O 	O 	0.92332 0.11975 0.05344 -0.39400
O 	O 	0.80513 0.99662 0.13738 -0.34200
O 	O 	0.80268 0.88136 0.14755 -0.35400
O 	O 	0.91174 0.98479 0.23563 -0.35600
O 	O 	0.99536 0.94093 0.24776 -0.31800
O 	O 	0.89466 0.75667 0.09738 -0.37000
Co	Co	0.93594 0.90981 0.68058 1.19300
C 	C 	0.23119 0.10171 0.53895 0.33000
Co	Co	0.88237 0.02226 0.67627 1.14200
C 	C 	0.96012 0.72623 0.59975 0.32200
O 	O 	0.87786 0.11643 0.61322 -0.41300
O 	O 	0.93274 0.99631 0.64784 -0.71500
C 	C 	0.84602 0.10779 0.56809 0.30900
O 	O 	0.96314 0.82632 0.69375 -0.42700
C 	C 	0.73376 0.83815 0.66774 0.30900
O 	O 	0.96812 0.94940 0.60808 -0.54100
C 	C 	0.99757 0.94220 0.46418 0.28700
O 	O 	0.87144 0.07903 0.55450 -0.39100
O 	O 	0.75579 0.91849 0.65023 -0.34200
O 	O 	0.79569 0.82175 0.68342 -0.34800
O 	O 	0.88480 0.93549 0.74436 -0.35400
O 	O 	0.92957 0.74798 0.61524 -0.35700
O 	O 	0.14151 0.89951 0.87576 -0.05300
O 	O 	0.98913 0.80094 0.84793 -0.06700
C 	C 	0.96003 0.88074 0.35562 0.10200
C 	C 	0.94979 0.87433 0.39915 -0.03800
C 	C 	0.98453 0.94923 0.41074 0.01700
H 	H 	0.91987 0.81131 0.42563 0.09300
N 	N 	0.93643 0.80556 0.34938 -0.01900
O 	O 	0.99443 0.81311 0.33702 -0.05800
O 	O 	0.86406 0.72785 0.36318 -0.06800
C 	C 	0.14774 0.36248 0.71434 -0.07700
C 	C 	0.14042 0.42355 0.67082 -0.00300
C 	C 	0.14162 0.29564 0.71190 0.14100
Br	Br	0.18795 0.23605 0.77150 -0.20500
H 	H 	0.17375 0.37579 0.75014 0.08600
C 	C 	0.53381 0.68692 0.72575 -0.07200
C 	C 	0.46410 0.68455 0.68317 -0.00400
C 	C 	0.47995 0.71647 0.63573 0.09600
C 	C 	0.56648 0.75416 0.63143 -0.01000
C 	C 	0.63923 0.76537 0.67370 -0.08300
C 	C 	0.62091 0.72609 0.72124 0.14200
Br	Br	0.71459 0.72715 0.78039 -0.18200
H 	H 	0.52018 0.65800 0.76234 0.08600
H 	H 	0.57949 0.78153 0.59482 0.08400
Br	Br	0.38541 0.71237 0.57623 -0.15700
C 	C 	0.29560 0.85388 0.66885 -0.02200
C 	C 	0.23807 0.70434 0.68346 -0.00200
C 	C 	0.29306 0.79450 0.66047 0.08600
Br	Br	0.35239 0.83613 0.61081 -0.17800
H 	H 	0.34436 0.92350 0.65448 0.09000
C 	C 	0.18792 0.37362 0.13544 -0.01500
C 	C 	0.23952 0.45345 0.19167 -0.00700
C 	C 	0.20942 0.44506 0.14290 0.08900
Br	Br	0.20154 0.53257 0.08590 -0.17300
H 	H 	0.15948 0.36488 0.09808 0.08000
C 	C 	0.58587 0.74739 0.22569 -0.07100
C 	C 	0.51494 0.75751 0.19401 -0.00500
C 	C 	0.52734 0.81866 0.14746 0.09700
C 	C 	0.60766 0.86506 0.13225 -0.00700
C 	C 	0.67564 0.85032 0.16269 -0.08500
C 	C 	0.66294 0.78907 0.20907 0.14200
Br	Br	0.74566 0.75589 0.24846 -0.20400
H 	H 	0.57638 0.69994 0.26138 0.08500
H 	H 	0.61733 0.91278 0.09668 0.09000
Br	Br	0.43294 0.83601 0.10289 -0.15700
C 	C 	0.23410 0.68688 0.24435 -0.07200
C 	C 	0.22297 0.66244 0.20605 -0.00200
C 	C 	0.20501 0.73750 0.23349 0.14800
Br	Br	0.22573 0.77345 0.28608 -0.16100
H 	H 	0.26955 0.67059 0.28194 0.08600
C 	C 	0.68036 0.14707 0.53723 -0.05900
C 	C 	0.73502 0.23916 0.51989 -0.01200
C 	C 	0.80956 0.28029 0.50015 0.09300
C 	C 	0.83971 0.23226 0.50796 -0.01900
C 	C 	0.79150 0.14215 0.53170 -0.08300
C 	C 	0.70425 0.09877 0.53858 0.08300
Br	Br	0.62223 0.97329 0.55627 -0.12300
H 	H 	0.62043 0.11296 0.55062 0.06000
H 	H 	0.90355 0.26610 0.49845 0.06900
Br	Br	0.86076 0.39559 0.45633 -0.18100
C 	C 	0.81756 0.56219 0.52557 -0.07300
C 	C 	0.82970 0.49636 0.55951 -0.00300
C 	C 	0.88265 0.50564 0.60834 0.09100
C 	C 	0.91891 0.57769 0.62293 -0.01400
C 	C 	0.89990 0.63927 0.58989 -0.08900
C 	C 	0.84462 0.62812 0.54184 0.13900
Br	Br	0.79704 0.69609 0.49992 -0.20900
H 	H 	0.77619 0.55538 0.48807 0.09000
H 	H 	0.96287 0.58634 0.65978 0.07500
Br	Br	0.90179 0.41816 0.65640 -0.22400
C 	C 	0.48212 0.20554 0.57788 -0.08200
C 	C 	0.50238 0.24308 0.53121 -0.01200
C 	C 	0.43817 0.25175 0.48803 0.08800
C 	C 	0.35227 0.21734 0.49168 -0.01300
C 	C 	0.32885 0.17246 0.53798 -0.10300
C 	C 	0.39746 0.17396 0.58142 0.14200
Br	Br	0.37742 0.13472 0.64582 -0.23900
H 	H 	0.53377 0.20397 0.61150 0.07700
H 	H 	0.30104 0.21970 0.45814 0.07900
Br	Br	0.46641 0.31019 0.42379 -0.19300
C 	C 	0.85218 0.32077 0.00016 -0.09700
C 	C 	0.77721 0.27153 0.02147 0.01100
C 	C 	0.73852 0.18169 0.04537 0.07700
C 	C 	0.77095 0.14235 0.04450 -0.02200
C 	C 	0.85549 0.19431 0.03168 -0.10000
C 	C 	0.89235 0.28301 0.00599 0.13400
H 	H 	0.88080 0.38874 0.98018 0.10400
H 	H 	0.73823 0.07296 0.06115 0.04800
Br	Br	0.65521 0.11607 0.08746 -0.24800
C 	C 	0.84417 0.56324 0.10839 -0.01100
C 	C 	0.84337 0.63497 0.07335 -0.09100
C 	C 	0.80746 0.63425 0.02280 0.13200
C 	C 	0.79137 0.57351 0.00700 -0.09600
C 	C 	0.79691 0.50411 0.04181 0.00500
C 	C 	0.82269 0.49894 0.09298 0.08800
Br	Br	0.82705 0.40359 0.14252 -0.20600
H 	H 	0.86958 0.56158 0.14766 0.07300
H 	H 	0.76665 0.57575 0.96767 0.10400
Br	Br	0.77873 0.71520 0.97486 -0.16700
C 	C 	0.49079 0.18460 0.05902 -0.08200
C 	C 	0.50085 0.23077 0.00993 -0.01100
C 	C 	0.42745 0.23335 0.97285 0.09500
C 	C 	0.34557 0.19081 0.98521 0.01200
C 	C 	0.33544 0.14421 0.03429 -0.12700
C 	C 	0.40983 0.14378 0.07153 0.15000
Br	Br	0.40187 0.08738 0.13982 -0.23100
H 	H 	0.54832 0.18489 0.08805 0.09400
H 	H 	0.28787 0.19017 0.95617 0.06700
Br	Br	0.43785 0.29434 0.90508 -0.19100
