data_crystal

_cell_length_a 30.77236
_cell_length_b 31.12530
_cell_length_c 26.73942
_cell_angle_alpha 95.52880
_cell_angle_beta  95.52018
_cell_angle_gamma 125.56314

_symmetry_space_group_name_	'P 1'
_symmetry_space_group_name_H-M	'P 1'

loop_
_symmetry_equiv_pos_as_xyz
  x,y,z

loop_
_atom_site_label
_atom_site_type_symbol
_atom_site_fract_x
_atom_site_fract_y
_atom_site_fract_z
_atom_site_charge
C 	C 	0.06215 0.03619 0.96916 0.06200
C 	C 	0.03960 0.06430 0.97440 -0.09300
H 	H 	0.06402 0.10693 0.97340 0.06100
H 	H 	0.01936 0.06687 0.45052 0.05100
C 	C 	0.18696 0.08612 0.46891 0.02300
C 	C 	0.20894 0.06271 0.44503 -0.04100
C 	C 	0.26522 0.09200 0.44874 -0.03100
C 	C 	0.12890 0.05649 0.46343 -0.01100
C 	C 	0.08016 0.03088 0.45829 -0.01800
H 	H 	0.18243 0.02205 0.42311 0.04800
H 	H 	0.28182 0.07397 0.42933 0.04700
C 	C 	0.21987 0.10916 0.95297 0.02000
C 	C 	0.23370 0.07716 0.93037 -0.04000
C 	C 	0.28813 0.09929 0.92903 -0.03100
C 	C 	0.16444 0.08513 0.95831 -0.00500
C 	C 	0.11790 0.06371 0.96313 -0.02900
H 	H 	0.20242 0.03494 0.91463 0.04800
H 	H 	0.29855 0.07410 0.91213 0.04700
C 	C 	0.29990 0.14494 0.47644 0.00400
C 	C 	0.22152 0.13862 0.49737 -0.04100
C 	C 	0.99561 0.02364 0.44776 -0.06500
C 	C 	0.98544 0.03722 0.98096 0.06300
C 	C 	0.91113 0.01838 0.43647 0.00100
C 	C 	0.91501 0.04499 0.39573 -0.03400
C 	C 	0.89214 0.07279 0.39390 -0.03900
C 	C 	0.86525 0.07423 0.43281 0.01000
C 	C 	0.86030 0.04659 0.47293 -0.04000
C 	C 	0.88313 0.01876 0.47474 -0.03200
C 	C 	0.84436 0.10654 0.43277 0.01200
C 	C 	0.80102 0.09188 0.39455 -0.03900
H 	H 	0.93632 0.04468 0.36588 0.04400
H 	H 	0.89611 0.09395 0.36276 0.04700
H 	H 	0.83935 0.04724 0.50299 0.04500
H 	H 	0.78299 0.05702 0.36458 0.04800
H 	H 	0.37085 0.12611 0.51540 0.06400
C 	C 	0.77832 0.15675 0.00294 -0.05600
C 	C 	0.86853 0.14189 0.04002 -0.01600
C 	C 	0.89489 0.11750 0.03709 -0.03400
C 	C 	0.91666 0.11638 0.99369 0.01200
C 	C 	0.94157 0.08909 0.98961 -0.00400
C 	C 	0.96190 0.06577 0.98580 -0.03100
H 	H 	0.75741 0.11468 0.00512 0.05800
H 	H 	0.70564 0.15221 0.99915 0.05300
H 	H 	0.85161 0.14239 0.07359 0.04600
H 	H 	0.89798 0.09912 0.06834 0.04900
H 	H 	0.38543 0.12493 0.00264 0.07100
C 	C 	0.78034 0.12179 0.39544 -0.02500
H 	H 	0.74639 0.10977 0.36621 0.05200
C 	C 	0.91250 0.14025 0.95348 -0.04300
H 	H 	0.92918 0.13947 0.91979 0.04700
C 	C 	0.27785 0.16796 0.50118 -0.03000
H 	H 	0.30430 0.20874 0.52280 0.04800
H 	H 	0.20478 0.15686 0.51613 0.04700
C 	C 	0.26056 0.16372 0.97316 -0.04100
H 	H 	0.25016 0.18870 0.99069 0.04600
C 	C 	0.31502 0.18593 0.97181 -0.03100
C 	C 	0.86375 0.16527 0.99949 -0.02300
C 	C 	0.86743 0.15184 0.47133 -0.04000
H 	H 	0.90114 0.16369 0.50078 0.04600
O 	O 	0.58069 0.23413 0.99618 -0.32200
O 	O 	0.69610 0.23061 0.99878 -0.34400
C 	C 	0.74312 0.25265 0.98408 0.28600
H 	H 	0.61855 0.24868 0.90537 0.18300
O 	O 	0.70483 0.23659 0.48190 -0.42000
C 	C 	0.73699 0.24807 0.44869 0.30700
H 	H 	0.60644 0.23950 0.41869 0.17900
C 	C 	0.57779 0.24293 0.64311 0.77900
H 	H 	0.59517 0.25586 0.74758 0.07400
F 	F 	0.53781 0.20530 0.66709 -0.45200
F 	F 	0.59006 0.21643 0.60952 -0.47500
F 	F 	0.56185 0.21094 0.10881 -0.45100
C 	C 	0.84679 0.18171 0.47214 -0.02700
C 	C 	0.80298 0.16656 0.43443 -0.00300
C 	C 	0.77948 0.19527 0.43749 0.05600
C 	C 	0.76000 0.21940 0.44163 -0.09800
H 	H 	0.86447 0.21626 0.50241 0.04400
C 	C 	0.46944 0.23473 0.47054 -0.06300
C 	C 	0.44477 0.18974 0.49445 0.02400
C 	C 	0.38970 0.16116 0.49750 -0.05100
C 	C 	0.35884 0.17731 0.47675 0.03100
C 	C 	0.38375 0.22296 0.45400 -0.05700
C 	C 	0.43874 0.25160 0.45098 0.01600
H 	H 	0.46792 0.17632 0.50981 0.07500
H 	H 	0.36025 0.23574 0.43790 0.05200
C 	C 	0.77515 0.23201 0.99461 -0.08200
C 	C 	0.86075 0.24362 0.99894 -0.07700
C 	C 	0.83409 0.18915 0.00153 0.05400
C 	C 	0.74899 0.17809 0.99962 0.01000
C 	C 	0.88611 0.16459 0.95632 -0.02500
H 	H 	0.88244 0.18231 0.92474 0.04000
C 	C 	0.49881 0.22498 0.96392 -0.06600
C 	C 	0.46588 0.18161 0.98823 0.00600
C 	C 	0.41016 0.15732 0.98257 -0.05900
C 	C 	0.38677 0.17598 0.95247 0.03000
C 	C 	0.41909 0.21768 0.92640 -0.05700
C 	C 	0.32907 0.15361 0.95032 0.00200
H 	H 	0.48363 0.16779 0.01278 0.09600
H 	H 	0.34636 0.22790 0.98838 0.04400
F 	F 	0.55685 0.26464 0.61590 -0.44600
H 	H 	0.60780 0.22019 0.24513 0.07600
C 	C 	0.59292 0.20198 0.14059 0.77900
F 	F 	0.55846 0.16102 0.16543 -0.44700
Cu	Cu	0.66090 0.26777 0.99984 0.93200
Cu	Cu	0.71168 0.27676 0.89594 0.88200
O 	O 	0.65540 0.27311 0.92681 -0.63900
C 	C 	0.55860 0.25544 0.97537 0.28000
O 	O 	0.68144 0.28004 0.83171 -0.38800
O 	O 	0.63014 0.27908 0.42979 -0.64000
O 	O 	0.56110 0.26448 0.49957 -0.33100
C 	C 	0.52672 0.26315 0.46462 0.28900
C 	C 	0.62982 0.28813 0.73408 0.05200
C 	C 	0.62869 0.28755 0.68125 -0.10200
C 	C 	0.63689 0.25351 0.17802 -0.09400
C 	C 	0.63843 0.25524 0.23099 0.05100
F 	F 	0.61663 0.18481 0.11134 -0.43900
C 	C 	0.83146 0.26497 0.99551 0.02000
H 	H 	0.90395 0.26915 0.99859 0.05700
C 	C 	0.47480 0.24197 0.93193 0.01000
H 	H 	0.40120 0.23184 0.90250 0.05300
O 	O 	0.67787 0.27664 0.07262 -0.30300
H 	H 	0.49943 0.27461 0.91210 0.04400
O 	O 	0.75916 0.28964 0.95578 -0.42100
Cu	Cu	0.72306 0.29063 0.53731 0.88200
H 	H 	0.45737 0.28673 0.43322 0.04500
O 	O 	0.75350 0.28989 0.42702 -0.34200
O 	O 	0.54365 0.29259 0.42859 -0.38000
O 	O 	0.69564 0.29607 0.35311 -0.32300
C 	C 	0.02183 0.99909 0.45167 0.03400
C 	C 	0.03059 0.98117 0.97046 -0.09500
H 	H 	0.04809 0.95947 0.96650 0.06100
H 	H 	0.01165 0.92440 0.45121 0.05300
H 	H 	0.87990 0.99831 0.50631 0.04100
C 	C 	0.93863 0.99238 0.44036 0.02800
C 	C 	0.99126 0.94335 0.44820 -0.06800
C 	C 	0.95397 0.98212 0.98231 -0.09300
C 	C 	0.97659 0.95414 0.97707 0.06300
H 	H 	0.91209 0.96115 0.98738 0.06000
C 	C 	0.90803 0.93642 0.43699 -0.07200
C 	C 	0.93436 0.91186 0.44069 0.03200
H 	H 	0.86401 0.91213 0.43109 0.05300
Cu	Cu	0.68707 0.35084 0.93287 0.90200
Cu	Cu	0.65667 0.36447 0.03226 0.90200
C 	C 	0.66942 0.30410 0.10586 0.29200
C 	C 	0.68123 0.32093 0.82299 0.30100
O 	O 	0.70243 0.35104 0.00424 -0.63500
O 	O 	0.64512 0.32561 0.09079 -0.34600
O 	O 	0.72332 0.42763 0.94183 -0.34300
C 	C 	0.72089 0.45725 0.97878 0.28000
O 	O 	0.58973 0.30603 0.97044 -0.38900
O 	O 	0.68780 0.43551 0.01167 -0.37200
O 	O 	0.67513 0.34853 0.85880 -0.33000
H 	H 	0.74139 0.37569 0.02050 0.17900
Cu	Cu	0.71303 0.32179 0.42521 0.93600
Cu	Cu	0.63833 0.30349 0.50101 0.90600
Cu	Cu	0.60788 0.31537 0.39597 0.90200
C 	C 	0.67031 0.30664 0.31947 0.30800
O 	O 	0.74355 0.39842 0.41855 -0.30600
C 	C 	0.68107 0.32350 0.61037 0.29500
O 	O 	0.71673 0.33766 0.49961 -0.63600
O 	O 	0.62957 0.30797 0.32906 -0.35400
C 	C 	0.72093 0.42087 0.43444 0.30700
O 	O 	0.67224 0.39135 0.44546 -0.38100
O 	O 	0.64907 0.32520 0.57518 -0.32000
O 	O 	0.72387 0.32695 0.59976 -0.39000
H 	H 	0.74118 0.37614 0.51603 0.18400
C 	C 	0.67654 0.32869 0.76979 -0.00100
C 	C 	0.72112 0.37258 0.75313 -0.10200
C 	C 	0.72017 0.37200 0.70033 0.05100
C 	C 	0.67547 0.32880 0.66439 0.00000
H 	H 	0.75508 0.40408 0.68695 0.07700
C 	C 	0.77053 0.41886 0.79150 0.77900
F 	F 	0.79540 0.40030 0.81807 -0.47100
F 	F 	0.75469 0.44120 0.82564 -0.45400
F 	F 	0.80837 0.45907 0.76793 -0.45000
C 	C 	0.71742 0.34698 0.19549 0.04800
C 	C 	0.67591 0.30056 0.16028 0.00400
C 	C 	0.67754 0.30290 0.26598 0.00300
C 	C 	0.71910 0.34848 0.24846 -0.09800
C 	C 	0.76328 0.39967 0.28601 0.77900
H 	H 	0.74715 0.38260 0.18143 0.06700
F 	F 	0.80356 0.43713 0.26216 -0.44800
F 	F 	0.78742 0.38816 0.32335 -0.44400
F 	F 	0.74074 0.42227 0.30878 -0.45700
C 	C 	0.90254 0.85309 0.43637 -0.00100
C 	C 	0.90318 0.82219 0.39502 -0.03200
C 	C 	0.87902 0.76769 0.39410 -0.03900
C 	C 	0.85387 0.74357 0.43448 0.01100
C 	C 	0.85163 0.77404 0.47501 -0.04000
C 	C 	0.87587 0.82861 0.47594 -0.03300
C 	C 	0.83131 0.68688 0.43499 0.01200
C 	C 	0.85326 0.67372 0.47386 -0.03700
C 	C 	0.83266 0.62007 0.47366 -0.02600
C 	C 	0.79014 0.57931 0.43460 0.00700
C 	C 	0.76826 0.59238 0.39572 -0.02400
C 	C 	0.78874 0.64597 0.39591 -0.03700
C 	C 	0.76755 0.52387 0.43528 0.06300
C 	C 	0.74723 0.47707 0.43528 -0.06600
H 	H 	0.92355 0.84075 0.36423 0.04400
H 	H 	0.88080 0.74447 0.36257 0.04900
H 	H 	0.83180 0.75562 0.50609 0.04600
H 	H 	0.87519 0.85216 0.50802 0.04200
H 	H 	0.88638 0.70505 0.50400 0.04800
H 	H 	0.84966 0.61024 0.50392 0.05200
H 	H 	0.73523 0.56102 0.36551 0.05800
H 	H 	0.77150 0.65570 0.36578 0.04800
C 	C 	0.75052 0.51538 0.97936 -0.07300
C 	C 	0.76767 0.55106 0.02569 0.02100
C 	C 	0.79464 0.60597 0.02622 -0.04800
C 	C 	0.80487 0.62579 0.98051 0.02000
C 	C 	0.78798 0.59027 0.93422 -0.04900
C 	C 	0.76090 0.53532 0.93360 0.01500
C 	C 	0.83385 0.68381 0.98121 -0.00300
C 	C 	0.80790 0.70242 0.95502 -0.03300
C 	C 	0.83570 0.75741 0.95520 -0.03800
C 	C 	0.88950 0.79407 0.98159 0.00900
C 	C 	0.91531 0.77561 0.00808 -0.02900
C 	C 	0.88760 0.72066 0.00789 -0.02400
C 	C 	0.91896 0.85041 0.98005 -0.00200
C 	C 	0.94461 0.89767 0.97873 -0.03200
H 	H 	0.76030 0.53630 0.06130 0.04100
H 	H 	0.80754 0.63311 0.06214 0.05200
H 	H 	0.79590 0.60527 0.89875 0.06300
H 	H 	0.74741 0.50824 0.89753 0.08900
H 	H 	0.76631 0.67430 0.93454 0.04500
H 	H 	0.81553 0.77142 0.93460 0.04600
H 	H 	0.95696 0.80375 0.02846 0.04900
H 	H 	0.90801 0.70668 0.02812 0.04900
H 	H 	0.85236 0.30688 0.99265 0.04200
