data_crystal

_cell_length_a 26.18030
_cell_length_b 26.21023
_cell_length_c 26.58622
_cell_angle_alpha 95.49730
_cell_angle_beta  95.49651
_cell_angle_gamma 125.78326

_symmetry_space_group_name_	'P 1'
_symmetry_space_group_name_H-M	'P 1'

loop_
_symmetry_equiv_pos_as_xyz
  x,y,z

loop_
_atom_site_label
_atom_site_type_symbol
_atom_site_fract_x
_atom_site_fract_y
_atom_site_fract_z
_atom_site_charge
C 	C 	0.96811 0.02956 0.99641 0.09600
C 	C 	0.05827 0.03019 0.99438 0.10900
N 	N 	0.03240 0.06241 0.99871 -0.13100
N 	N 	0.00930 0.04256 0.44573 -0.13200
C 	C 	0.04130 0.01655 0.44962 0.10900
C 	C 	0.85218 0.09642 0.43338 -0.02400
C 	C 	0.82478 0.04014 0.45420 0.03800
C 	C 	0.74283 0.04987 0.47755 -0.03500
C 	C 	0.77088 0.10691 0.45817 0.01000
C 	C 	0.93552 0.08813 0.41154 -0.06200
C 	C 	0.90988 0.03348 0.43415 0.01000
H 	H 	0.70068 0.03153 0.49469 0.03700
C 	C 	0.31552 0.09593 0.51287 -0.03600
C 	C 	0.24968 0.06138 0.51225 -0.04700
C 	C 	0.21390 0.07757 0.48510 0.03500
C 	C 	0.24471 0.12945 0.45894 -0.02000
C 	C 	0.34646 0.14721 0.48644 0.01800
C 	C 	0.14270 0.10985 0.42963 -0.05900
C 	C 	0.11168 0.05733 0.45484 0.00800
C 	C 	0.14759 0.04199 0.48320 -0.06000
H 	H 	0.34239 0.08261 0.53377 0.04800
C 	C 	0.85312 0.06678 0.02515 0.04200
C 	C 	0.79677 0.03951 0.04552 -0.05700
C 	C 	0.76352 0.06619 0.04355 -0.03100
C 	C 	0.93962 0.06413 0.00217 0.02200
C 	C 	0.88480 0.03831 0.02466 -0.07100
H 	H 	0.71967 0.04405 0.05882 0.04100
C 	C 	0.31900 0.07869 0.05233 -0.03700
C 	C 	0.25585 0.05450 0.05577 -0.04900
C 	C 	0.22407 0.07333 0.02645 0.03700
C 	C 	0.16022 0.04788 0.02875 -0.05600
C 	C 	0.12788 0.06516 0.99806 0.00400
H 	H 	0.34283 0.06368 0.07522 0.04300
H 	H 	0.70432 0.12427 0.47999 0.04200
H 	H 	0.13511 0.01347 0.05340 0.05300
H 	H 	0.23160 0.02089 0.08112 0.04500
H 	H 	0.70647 0.12270 0.03070 0.05000
C 	C 	0.78628 0.12061 0.02134 0.00700
C 	C 	0.35123 0.12210 0.01957 0.01700
H 	H 	0.43962 0.13361 0.04024 0.05200
C 	C 	0.87714 0.12229 0.00389 -0.02700
C 	C 	0.96466 0.12067 0.98247 -0.07800
C 	C 	0.82534 0.12994 0.43554 0.00000
C 	C 	0.90729 0.12004 0.41152 0.03500
C 	C 	0.74608 0.14195 0.46239 -0.02600
H 	H 	0.97797 0.10630 0.39477 0.05100
H 	H 	0.11500 0.12160 0.40764 0.05200
C 	C 	0.25614 0.11711 0.99364 -0.02300
C 	C 	0.16046 0.11037 0.96662 -0.05900
C 	C 	0.94429 0.00473 0.43937 0.10200
C 	C 	0.76969 0.01679 0.47567 -0.05600
C 	C 	0.85374 0.00885 0.45447 -0.06700
C 	C 	0.20908 0.14595 0.43152 0.03400
H 	H 	0.13537 0.12358 0.94293 0.05100
H 	H 	0.22647 0.02174 0.53262 0.04500
C 	C 	0.22446 0.13617 0.96402 0.03400
H 	H 	0.00702 0.14075 0.96526 0.05900
C 	C 	0.31970 0.14135 0.99006 -0.00500
C 	C 	0.75134 0.14560 0.01687 -0.01700
C 	C 	0.84381 0.14935 0.00213 0.00800
C 	C 	0.41493 0.14731 0.01666 -0.02300
C 	C 	0.93360 0.14985 0.98321 0.04100
H 	H 	0.12381 0.00215 0.50338 0.05400
H 	H 	0.43925 0.16741 0.50608 0.06000
N 	N 	0.92995 0.96457 0.98924 -0.13400
C 	C 	0.95575 0.93241 0.98502 0.10700
N 	N 	0.01987 0.96535 0.98770 -0.13100
N 	N 	0.00819 0.95255 0.44737 -0.13000
C 	C 	0.94334 0.91449 0.44148 0.10600
N 	N 	0.91127 0.94056 0.43752 -0.13400
Cu	Cu	0.63787 0.23917 0.00393 0.92900
Cu	Cu	0.68587 0.24098 0.89417 0.87000
Cu	Cu	0.66329 0.33459 0.93388 0.89900
Cu	Cu	0.63641 0.35671 0.03683 0.90000
C 	C 	0.66201 0.29244 0.11073 0.30800
O 	O 	0.54437 0.19982 0.00556 -0.35600
C 	C 	0.65123 0.29515 0.82315 0.30000
O 	O 	0.68668 0.33808 0.00547 -0.63700
O 	O 	0.62507 0.24193 0.92987 -0.64000
O 	O 	0.67961 0.19535 0.00091 -0.36500
O 	O 	0.74747 0.26143 0.95174 -0.43500
O 	O 	0.62996 0.31498 0.09730 -0.37300
O 	O 	0.70709 0.42589 0.94087 -0.36800
C 	C 	0.70608 0.46281 0.97769 0.28100
C 	C 	0.51711 0.22522 0.98743 0.27200
O 	O 	0.55304 0.28407 0.97909 -0.39200
O 	O 	0.66987 0.43890 0.01287 -0.38100
O 	O 	0.66320 0.25280 0.07709 -0.35600
C 	C 	0.73284 0.22056 0.98267 0.27900
O 	O 	0.64658 0.33001 0.85917 -0.36200
O 	O 	0.64579 0.24360 0.83156 -0.41500
H 	H 	0.73329 0.36758 0.01953 0.17700
H 	H 	0.58020 0.21270 0.91095 0.17500
Cu	Cu	0.73691 0.33697 0.43524 0.92900
Cu	Cu	0.73283 0.28684 0.54416 0.87100
Cu	Cu	0.64008 0.31026 0.50408 0.89900
Cu	Cu	0.62008 0.33909 0.40158 0.89700
C 	C 	0.68909 0.31910 0.32791 0.30900
O 	O 	0.77673 0.43068 0.43464 -0.36000
C 	C 	0.67792 0.32092 0.61494 0.30000
O 	O 	0.63786 0.28810 0.43253 -0.63900
O 	O 	0.73293 0.34847 0.50908 -0.63900
O 	O 	0.78041 0.29487 0.43814 -0.36600
O 	O 	0.71302 0.22612 0.48616 -0.43300
O 	O 	0.66412 0.34860 0.34189 -0.38000
O 	O 	0.54863 0.26653 0.49611 -0.36900
C 	C 	0.51216 0.26754 0.45881 0.28300
C 	C 	0.75095 0.45765 0.45254 0.27400
O 	O 	0.69183 0.42146 0.46040 -0.39100
O 	O 	0.53682 0.30454 0.42425 -0.38800
O 	O 	0.72424 0.31282 0.36212 -0.35100
C 	C 	0.75455 0.24122 0.45575 0.28200
O 	O 	0.64333 0.32567 0.57869 -0.36200
O 	O 	0.72950 0.32609 0.60684 -0.41500
H 	H 	0.60845 0.24169 0.41791 0.17700
H 	H 	0.76200 0.39306 0.52849 0.17600
C 	C 	0.71217 0.36989 0.70780 -0.03600
C 	C 	0.66475 0.32026 0.66756 -0.08700
C 	C 	0.60853 0.26642 0.67888 0.11900
C 	C 	0.60259 0.26042 0.73017 -0.03600
C 	C 	0.65206 0.30802 0.77042 -0.08700
C 	C 	0.70596 0.36417 0.75908 0.11900
Br	Br	0.77340 0.43195 0.81305 -0.26600
H 	H 	0.75496 0.41199 0.69927 0.06300
H 	H 	0.56044 0.21768 0.73870 0.06300
Br	Br	0.54094 0.19881 0.62489 -0.26500
C 	C 	0.73183 0.36357 0.25120 -0.03400
C 	C 	0.69293 0.30981 0.27339 -0.08200
C 	C 	0.65164 0.24872 0.24186 0.12100
C 	C 	0.64575 0.24258 0.18826 -0.03300
C 	C 	0.68060 0.29714 0.16591 -0.08300
C 	C 	0.72590 0.35748 0.19771 0.12200
Br	Br	0.77909 0.43230 0.16862 -0.26900
H 	H 	0.76489 0.41053 0.27546 0.06600
H 	H 	0.61160 0.19582 0.16398 0.06800
Br	Br	0.60060 0.17360 0.27114 -0.25300
C 	C 	0.89343 0.65342 0.38376 -0.03600
C 	C 	0.91714 0.71623 0.37976 -0.04800
C 	C 	0.89923 0.74849 0.40965 0.03500
C 	C 	0.85678 0.71721 0.44357 -0.02100
C 	C 	0.83300 0.65397 0.44769 -0.00200
C 	C 	0.85141 0.62200 0.41765 0.01400
C 	C 	0.79073 0.62271 0.48173 0.01400
C 	C 	0.77266 0.65495 0.51152 -0.03700
C 	C 	0.79644 0.71786 0.50755 -0.04900
C 	C 	0.83865 0.74937 0.47378 0.03400
C 	C 	0.86417 0.81314 0.47070 -0.06000
C 	C 	0.90817 0.84498 0.43820 0.00800
C 	C 	0.92437 0.81207 0.40688 -0.06000
C 	C 	0.82682 0.55870 0.42123 -0.02600
C 	C 	0.78337 0.52678 0.45417 -0.06000
C 	C 	0.76636 0.55933 0.48505 -0.02800
H 	H 	0.90774 0.62922 0.36042 0.04400
H 	H 	0.94969 0.73986 0.35354 0.04500
H 	H 	0.74014 0.63133 0.53775 0.04100
H 	H 	0.78219 0.74209 0.53092 0.04300
H 	H 	0.85176 0.83865 0.49487 0.05100
H 	H 	0.95782 0.83660 0.38141 0.05200
H 	H 	0.83985 0.53366 0.39726 0.05200
H 	H 	0.73348 0.53502 0.51094 0.04500
C 	C 	0.93440 0.17622 0.39102 -0.05000
C 	C 	0.90794 0.20967 0.39339 -0.03600
C 	C 	0.85390 0.18727 0.41615 0.01200
C 	C 	0.77615 0.20071 0.44523 -0.06400
C 	C 	0.82909 0.22235 0.42093 -0.02300
H 	H 	0.97649 0.19450 0.37380 0.04300
H 	H 	0.92994 0.25336 0.37799 0.04100
H 	H 	0.74795 0.97333 0.49139 0.04600
H 	H 	0.85183 0.26704 0.40691 0.05200
H 	H 	0.83380 0.96663 0.47178 0.05500
C 	C 	0.31103 0.16432 0.45965 -0.00200
C 	C 	0.34176 0.21587 0.43317 0.01500
C 	C 	0.30610 0.23253 0.40650 -0.03700
C 	C 	0.24018 0.19775 0.40565 -0.04900
C 	C 	0.41221 0.18119 0.48614 -0.02500
C 	C 	0.44299 0.23244 0.45952 -0.05300
C 	C 	0.40762 0.24987 0.43336 -0.02600
H 	H 	0.32932 0.27221 0.38617 0.04000
H 	H 	0.21328 0.21097 0.38463 0.04400
H 	H 	0.43133 0.28984 0.41333 0.04800
C 	C 	0.87709 0.65873 0.92256 -0.03700
C 	C 	0.91151 0.72444 0.92295 -0.04700
C 	C 	0.89479 0.76006 0.94954 0.03400
C 	C 	0.84244 0.72918 0.97525 -0.02200
C 	C 	0.80770 0.66300 0.97475 -0.00400
C 	C 	0.82543 0.62777 0.94865 0.01900
C 	C 	0.75576 0.63225 0.00089 0.01800
C 	C 	0.73848 0.66770 0.02687 -0.03700
C 	C 	0.77313 0.73348 0.02752 -0.04800
C 	C 	0.82542 0.76463 0.00211 0.03600
C 	C 	0.86157 0.83093 0.00403 -0.05600
C 	C 	0.91467 0.86205 0.97940 0.00400
C 	C 	0.93041 0.82629 0.95143 -0.05900
C 	C 	0.79179 0.56222 0.94943 -0.02500
C 	C 	0.74034 0.53151 0.97590 -0.05400
C 	C 	0.72211 0.56661 0.00116 -0.02200
H 	H 	0.89086 0.63201 0.90215 0.04800
H 	H 	0.95149 0.74769 0.90289 0.04400
H 	H 	0.69845 0.64443 0.04688 0.04100
H 	H 	0.75949 0.76024 0.04807 0.04400
H 	H 	0.84947 0.85851 0.02567 0.05200
H 	H 	0.97066 0.85013 0.93164 0.05200
H 	H 	0.80610 0.53535 0.93010 0.06000
H 	H 	0.68187 0.54289 0.02095 0.04900
C 	C 	0.95734 0.20534 0.96233 -0.06300
C 	C 	0.92444 0.23240 0.96085 -0.03100
C 	C 	0.86721 0.20418 0.98005 0.00200
C 	C 	0.77331 0.19888 0.99306 -0.07100
C 	C 	0.83230 0.22916 0.97615 -0.02300
H 	H 	0.00095 0.22721 0.94674 0.04900
H 	H 	0.94307 0.27485 0.94414 0.03500
H 	H 	0.77819 0.99712 0.06230 0.04800
H 	H 	0.85025 0.27121 0.95896 0.04000
H 	H 	0.86632 0.99555 0.04096 0.05700
C 	C 	0.31995 0.20386 0.92785 -0.03800
C 	C 	0.25674 0.17966 0.93131 -0.04900
C 	C 	0.35174 0.18495 0.95711 0.01400
C 	C 	0.41545 0.20984 0.95441 -0.02700
C 	C 	0.44765 0.19217 0.98492 -0.06300
H 	H 	0.34418 0.23739 0.90245 0.04100
H 	H 	0.23288 0.19461 0.90838 0.04300
H 	H 	0.44032 0.24369 0.92932 0.04500
