data_crystal

_cell_length_a 20.45911
_cell_length_b 21.19544
_cell_length_c 38.82344
_cell_angle_alpha 60.64991
_cell_angle_beta  119.12473
_cell_angle_gamma 133.30011

_symmetry_space_group_name_	'P 1'
_symmetry_space_group_name_H-M	'P 1'

loop_
_symmetry_equiv_pos_as_xyz
  x,y,z

loop_
_atom_site_label
_atom_site_type_symbol
_atom_site_fract_x
_atom_site_fract_y
_atom_site_fract_z
_atom_site_charge
C 	C 	0.26303 0.63726 0.16953 0.21900
C 	C 	0.23368 0.51585 0.15727 0.22500
C 	C 	0.20019 0.55638 0.15702 -0.12000
H 	H 	0.12685 0.52663 0.14640 0.15800
C 	C 	0.32973 0.65152 0.68074 0.22100
C 	C 	0.30002 0.52476 0.67386 0.22700
C 	C 	0.26691 0.56699 0.67192 -0.12100
H 	H 	0.19334 0.53631 0.66180 0.15700
Co	Co	0.03402 0.02171 0.03387 1.17300
Co	Co	0.07358 0.89653 0.03397 1.18700
C 	C 	0.22610 0.07492 0.05004 0.33200
O 	O 	0.01410 0.11133 0.02450 -0.41600
C 	C 	0.03108 0.20844 0.10197 0.42200
C 	C 	0.09728 0.80268 0.12102 0.41900
O 	O 	0.06611 0.79322 0.08439 -0.37600
O 	O 	0.07819 0.84095 0.12953 -0.34500
O 	O 	0.05400 0.17242 0.09428 -0.36900
O 	O 	0.01551 0.92099 0.05336 -0.73400
O 	O 	0.20008 0.99209 0.06211 -0.28200
O 	O 	0.17788 0.09437 0.05139 -0.35300
Co	Co	0.03093 0.09548 0.57163 1.19000
Co	Co	0.10175 0.03498 0.54162 1.17500
Co	Co	0.11237 0.89297 0.53934 1.19000
C 	C 	0.28675 0.06993 0.55635 0.34600
O 	O 	0.09771 0.13525 0.53224 -0.42100
C 	C 	0.09923 0.23632 0.60561 0.43200
C 	C 	0.14424 0.80349 0.62749 0.42300
O 	O 	0.10553 0.79087 0.59081 -0.36900
O 	O 	0.12384 0.83546 0.63964 -0.32400
O 	O 	0.12540 0.20683 0.59545 -0.34800
O 	O 	0.12235 0.98926 0.48531 -0.36500
O 	O 	0.08179 0.93441 0.56478 -0.73600
O 	O 	0.24768 0.98404 0.56397 -0.28000
O 	O 	0.23805 0.10275 0.54078 -0.34600
C 	C 	0.15484 0.15602 0.84393 -0.06900
C 	C 	0.16540 0.14659 0.81405 0.02000
C 	C 	0.09722 0.06848 0.79973 -0.03300
C 	C 	0.07685 0.08675 0.86050 0.11000
C 	C 	0.10556 0.06043 0.76846 -0.08500
C 	C 	0.06963 0.09288 0.89280 -0.05500
H 	H 	0.20820 0.21664 0.85468 0.11300
H 	H 	0.22626 0.20047 0.80179 0.09300
H 	H 	0.16628 0.11384 0.75609 0.12400
H 	H 	0.12392 0.15225 0.90448 0.11900
C 	C 	0.16515 0.13865 0.31133 -0.03800
C 	C 	0.16032 0.14867 0.34294 0.01900
C 	C 	0.08818 0.07781 0.36306 -0.06400
C 	C 	0.09698 0.05821 0.29888 0.02900
C 	C 	0.08734 0.08486 0.39702 0.07000
C 	C 	0.09859 0.04968 0.26564 -0.08000
C 	C 	0.02305 0.97477 0.24926 0.04300
H 	H 	0.22142 0.19391 0.29623 0.10500
H 	H 	0.21356 0.21113 0.35217 0.08200
H 	H 	0.14274 0.14565 0.40765 0.06200
H 	H 	0.15380 0.10513 0.24993 0.11600
C 	C 	0.23104 0.36794 0.68153 0.24700
C 	C 	0.23847 0.44706 0.65664 -0.14100
C 	C 	0.21127 0.46052 0.61416 0.25800
C 	C 	0.17828 0.39628 0.59690 0.31300
C 	C 	0.16752 0.31581 0.62183 -0.20700
C 	C 	0.19952 0.30463 0.66410 0.28900
F 	F 	0.19968 0.23205 0.68832 -0.40300
F 	F 	0.25976 0.35511 0.72260 -0.38100
F 	F 	0.15835 0.41294 0.55592 -0.32300
C 	C 	0.33323 0.78879 0.65372 0.25900
C 	C 	0.29509 0.69917 0.67629 -0.13000
C 	C 	0.21924 0.65329 0.69196 0.25800
C 	C 	0.17492 0.69232 0.68045 0.30900
C 	C 	0.20897 0.77913 0.65504 -0.18700
C 	C 	0.29408 0.82989 0.64593 0.29800
F 	F 	0.33502 0.91758 0.62640 -0.34800
F 	F 	0.09590 0.64382 0.69194 -0.33400
F 	F 	0.18675 0.57010 0.71718 -0.35700
C 	C 	0.17489 0.35970 0.16985 0.24500
C 	C 	0.17128 0.43277 0.14352 -0.13700
C 	C 	0.13176 0.43600 0.10178 0.25700
C 	C 	0.09656 0.36724 0.08673 0.29900
C 	C 	0.10062 0.29449 0.11318 -0.20400
C 	C 	0.14509 0.29428 0.15436 0.28900
F 	F 	0.15508 0.22779 0.17988 -0.40000
F 	F 	0.21292 0.35530 0.21028 -0.37900
F 	F 	0.05405 0.36888 0.04672 -0.34800
C 	C 	0.11657 0.68440 0.17284 0.30400
C 	C 	0.15786 0.77468 0.15105 -0.18700
C 	C 	0.24478 0.82348 0.14422 0.29600
C 	C 	0.27704 0.77873 0.14846 0.25800
C 	C 	0.23041 0.68591 0.16621 -0.13000
C 	C 	0.15326 0.64032 0.18082 0.25900
F 	F 	0.11262 0.55323 0.20181 -0.35800
F 	F 	0.03589 0.63713 0.18265 -0.34600
F 	F 	0.29073 0.91274 0.12713 -0.33200
F 	F 	0.34847 0.16777 0.48414 -0.38200
C 	C 	0.30945 0.19436 0.99594 0.28000
C 	C 	0.31248 0.14655 0.03691 -0.18900
F 	F 	0.23682 0.19907 0.97282 -0.39900
C 	C 	0.02217 0.00544 0.95794 0.24200
O 	O 	0.08869 0.99630 0.98101 -0.30400
O 	O 	0.06125 0.99373 0.59797 -0.52500
C 	C 	0.05609 0.99955 0.46535 0.44300
O 	O 	0.02357 0.00602 0.48476 -0.43400
C 	C 	0.01954 0.99689 0.35079 0.10500
C 	C 	0.02358 0.98731 0.31844 0.01600
F 	F 	0.22258 0.53862 0.58963 -0.34200
F 	F 	0.13016 0.50720 0.07560 -0.35200
C 	C 	0.02401 0.00930 0.42105 -0.19700
C 	C 	0.32856 0.55758 0.16822 -0.13400
O 	O 	0.02661 0.07216 0.68082 -0.32400
C 	C 	0.01791 0.99937 0.81560 0.15900
C 	C 	0.00822 0.00809 0.84637 -0.16800
C 	C 	0.03182 0.98794 0.75032 0.11100
H 	H 	0.35442 0.52894 0.16627 0.13500
F 	F 	0.34930 0.82437 0.13256 -0.34000
C 	C 	0.02211 0.00079 0.70750 0.15600
C 	C 	0.35848 0.67665 0.18128 -0.12400
Co	Co	0.02578 0.86269 0.60249 1.20200
O 	O 	0.01160 0.19570 0.60098 -0.38200
O 	O 	0.01534 0.94449 0.69706 -0.26400
F 	F 	0.37381 0.27664 0.93824 -0.38300
C 	C 	0.99976 0.01800 0.91377 -0.03300
C 	C 	0.99972 0.98760 0.20497 0.32400
O 	O 	0.99581 0.93940 0.19018 -0.34000
O 	O 	0.99267 0.05398 0.18087 -0.38400
C 	C 	0.38478 0.13167 0.55682 -0.18200
C 	C 	0.39489 0.56661 0.68456 -0.13600
O 	O 	0.98398 0.01348 0.97348 -0.34200
F 	F 	0.40393 0.83414 0.63684 -0.34600
C 	C 	0.41035 0.16822 0.52038 0.28700
Co	Co	0.95105 0.06559 0.06697 1.18100
O 	O 	0.94629 0.16373 0.10337 -0.39200
C 	C 	0.44935 0.13260 0.59408 0.29800
F 	F 	0.42585 0.09882 0.62953 -0.36600
C 	C 	0.39135 0.14845 0.06130 0.29100
F 	F 	0.39830 0.10836 0.10169 -0.34500
C 	C 	0.65354 0.27231 0.99353 0.23400
C 	C 	0.72065 0.35952 0.99981 -0.12300
C 	C 	0.69241 0.40859 0.99512 0.23700
C 	C 	0.59842 0.36967 0.98569 -0.14400
C 	C 	0.53332 0.27973 0.98544 0.23800
C 	C 	0.55925 0.23554 0.98341 -0.13600
H 	H 	0.79350 0.38746 0.00965 0.15700
H 	H 	0.57712 0.40563 0.98459 0.14100
H 	H 	0.50673 0.16835 0.97891 0.14400
C 	C 	0.76624 0.29068 0.52909 0.20900
C 	C 	0.81660 0.38186 0.52737 -0.12000
C 	C 	0.79323 0.40561 0.54563 0.22400
C 	C 	0.71627 0.34031 0.56232 -0.13900
C 	C 	0.65877 0.25321 0.55864 0.22800
C 	C 	0.68787 0.22634 0.54577 -0.13100
H 	H 	0.87132 0.43360 0.51126 0.16500
H 	H 	0.69535 0.35966 0.57415 0.13700
H 	H 	0.64777 0.15617 0.54743 0.14900
C 	C 	0.39069 0.64063 0.17705 0.23100
H 	H 	0.40772 0.73789 0.19139 0.16000
C 	C 	0.42553 0.69467 0.68914 -0.12300
C 	C 	0.45671 0.65533 0.68675 0.22600
H 	H 	0.47509 0.76048 0.69505 0.15500
H 	H 	0.42003 0.53506 0.68466 0.14000
Co	Co	0.96435 0.84462 0.09200 1.20100
Co	Co	0.91047 0.90279 0.13404 1.19500
C 	C 	0.88277 0.73317 0.03327 0.39200
Co	Co	0.87632 0.03150 0.13521 1.16600
O 	O 	0.91144 0.99517 0.10917 -0.70900
O 	O 	0.91334 0.80485 0.13810 -0.40300
O 	O 	0.93563 0.94425 0.07343 -0.53700
C 	C 	0.74707 0.83296 0.15629 0.42200
O 	O 	0.80373 0.90322 0.17083 -0.37400
O 	O 	0.77373 0.82150 0.13636 -0.34900
C 	C 	0.78128 0.05932 0.04873 0.37300
O 	O 	0.76679 0.00537 0.08506 -0.34900
O 	O 	0.83966 0.07652 0.03339 -0.32500
O 	O 	0.93902 0.80540 0.00961 -0.36000
O 	O 	0.87385 0.73705 0.06422 -0.32400
Co	Co	0.96756 0.92895 0.63758 1.20800
C 	C 	0.92112 0.74390 0.54450 0.39700
Co	Co	0.92671 0.06162 0.62759 1.16900
O 	O 	0.98253 0.02816 0.61194 -0.77700
O 	O 	0.97104 0.82842 0.64595 -0.39600
C 	C 	0.78737 0.86467 0.63979 0.42100
O 	O 	0.83699 0.93106 0.65617 -0.37400
O 	O 	0.82529 0.85833 0.62330 -0.35200
C 	C 	0.86163 0.09752 0.53838 0.39700
O 	O 	0.83237 0.04460 0.57205 -0.37000
O 	O 	0.91767 0.09855 0.52952 -0.34800
O 	O 	0.97270 0.80870 0.51832 -0.37000
O 	O 	0.91485 0.76131 0.57112 -0.33800
C 	C 	0.93118 0.93728 0.86372 0.15100
C 	C 	0.86217 0.85975 0.84888 -0.06600
C 	C 	0.87011 0.85247 0.81723 0.02000
C 	C 	0.94798 0.92193 0.80051 0.00700
C 	C 	0.95510 0.91653 0.76779 -0.04400
C 	C 	0.92681 0.94289 0.89723 -0.01100
H 	H 	0.80254 0.80489 0.86191 0.12000
H 	H 	0.81579 0.79267 0.80587 0.09300
H 	H 	0.89838 0.86011 0.75415 0.10900
H 	H 	0.87130 0.88593 0.91258 0.11000
C 	C 	0.95356 0.90733 0.30535 0.07000
C 	C 	0.88149 0.83636 0.32555 -0.03900
C 	C 	0.87924 0.84479 0.35859 0.01700
C 	C 	0.94828 0.92479 0.37149 -0.02100
C 	C 	0.95012 0.93174 0.40634 0.10800
C 	C 	0.95402 0.90106 0.27092 -0.04200
H 	H 	0.82715 0.77462 0.31574 0.11300
H 	H 	0.82402 0.78891 0.37422 0.09500
H 	H 	0.89968 0.87395 0.42422 0.06900
H 	H 	0.89667 0.84227 0.25896 0.10300
C 	C 	0.68629 0.73510 0.68596 0.29400
C 	C 	0.69464 0.79097 0.64655 -0.20300
C 	C 	0.62217 0.79869 0.62007 0.29900
C 	C 	0.54828 0.76083 0.63438 0.26100
C 	C 	0.54408 0.71148 0.67496 -0.14100
C 	C 	0.61280 0.69759 0.70047 0.24800
F 	F 	0.60754 0.64664 0.73919 -0.36800
F 	F 	0.75415 0.72402 0.71143 -0.38400
F 	F 	0.47930 0.77006 0.60853 -0.33100
F 	F 	0.62760 0.84982 0.58139 -0.33900
C 	C 	0.58285 0.77402 0.12731 0.30700
C 	C 	0.65213 0.76999 0.16063 -0.21000
C 	C 	0.63598 0.72590 0.19987 0.30000
C 	C 	0.55289 0.68966 0.20586 0.25400
C 	C 	0.48515 0.69691 0.17267 -0.14000
C 	C 	0.50094 0.74005 0.13339 0.26500
F 	F 	0.43493 0.74571 0.10091 -0.33100
F 	F 	0.59695 0.81498 0.08915 -0.34300
F 	F 	0.53728 0.64582 0.24379 -0.36200
F 	F 	0.70247 0.72124 0.23238 -0.38900
C 	C 	0.72625 0.18649 0.49653 0.24700
C 	C 	0.79425 0.26159 0.51347 -0.12800
C 	C 	0.88799 0.29747 0.52181 0.25100
C 	C 	0.91017 0.25230 0.51759 0.29300
C 	C 	0.84128 0.16426 0.51345 -0.20000
C 	C 	0.74894 0.13502 0.49883 0.30100
F 	F 	0.68087 0.05424 0.48966 -0.35700
F 	F 	0.63804 0.16144 0.47959 -0.35300
F 	F 	0.99895 0.29148 0.52024 -0.35300
F 	F 	0.95678 0.37185 0.53635 -0.36100
C 	C 	0.81698 0.55151 0.50792 0.25100
C 	C 	0.84173 0.49965 0.54358 -0.13900
C 	C 	0.88690 0.52611 0.58018 0.25500
C 	C 	0.90046 0.59910 0.58170 0.29100
C 	C 	0.87637 0.65139 0.54600 -0.20200
C 	C 	0.83286 0.62599 0.50922 0.29400
F 	F 	0.80822 0.67523 0.47442 -0.37800
F 	F 	0.77226 0.52641 0.47241 -0.35900
F 	F 	0.93961 0.62061 0.61776 -0.36200
F 	F 	0.91157 0.47686 0.61493 -0.35300
C 	C 	0.49744 0.20013 0.52121 0.26100
C 	C 	0.56125 0.19880 0.55851 -0.14500
C 	C 	0.53680 0.16498 0.59496 0.26100
F 	F 	0.52138 0.23551 0.48568 -0.35200
F 	F 	0.59878 0.16562 0.63116 -0.36200
C 	C 	0.63617 0.12716 0.02882 0.27200
C 	C 	0.68094 0.21440 0.00381 -0.15700
C 	C 	0.75070 0.24538 0.98842 0.27900
C 	C 	0.77992 0.19232 0.00047 0.27600
C 	C 	0.73598 0.10568 0.02623 -0.16600
C 	C 	0.65899 0.07145 0.03733 0.23400
F 	F 	0.60938 0.98516 0.05855 -0.28700
F 	F 	0.57295 0.09747 0.04624 -0.35900
F 	F 	0.85251 0.22623 0.98813 -0.34400
F 	F 	0.79078 0.32702 0.96218 -0.35600
C 	C 	0.76353 0.57014 0.97373 0.25700
C 	C 	0.75957 0.49648 0.00459 -0.15100
C 	C 	0.79542 0.50069 0.04545 0.26000
C 	C 	0.82960 0.57555 0.05528 0.29200
C 	C 	0.82778 0.64668 0.02434 -0.20000
C 	C 	0.79297 0.64256 0.98352 0.29500
F 	F 	0.78892 0.70978 0.95324 -0.38800
F 	F 	0.73085 0.56775 0.93411 -0.36500
F 	F 	0.86665 0.57995 0.09475 -0.35500
F 	F 	0.79251 0.43012 0.07569 -0.35200
C 	C 	0.46070 0.18728 0.04382 0.26600
C 	C 	0.45342 0.22749 0.00192 -0.16300
C 	C 	0.37879 0.23319 0.97825 0.25700
F 	F 	0.53652 0.18812 0.06772 -0.33900
