data_crystal

_cell_length_a 26.09460
_cell_length_b 26.46383
_cell_length_c 34.96964
_cell_angle_alpha 95.49697
_cell_angle_beta  95.49747
_cell_angle_gamma 125.83976

_symmetry_space_group_name_	'P 1'
_symmetry_space_group_name_H-M	'P 1'

loop_
_symmetry_equiv_pos_as_xyz
  x,y,z

loop_
_atom_site_label
_atom_site_type_symbol
_atom_site_fract_x
_atom_site_fract_y
_atom_site_fract_z
_atom_site_charge
C 	C 	0.98364 0.05166 0.00173 0.26700
N 	N 	0.95215 0.98831 0.99984 -0.10000
C 	C 	0.98403 0.96255 0.99580 0.27100
N 	N 	0.04730 0.00028 0.99354 -0.10400
C 	C 	0.07920 0.06368 0.99627 0.28800
N 	N 	0.04736 0.08947 0.00025 -0.09700
C 	C 	0.91155 0.96844 0.44646 0.29500
N 	N 	0.97534 0.00016 0.44600 -0.12700
C 	C 	0.00262 0.96954 0.44748 0.32500
N 	N 	0.96549 0.90650 0.44796 -0.12600
C 	C 	0.90133 0.87393 0.44681 0.28500
N 	N 	0.87435 0.90502 0.44667 -0.10800
Cu	Cu	0.65698 0.26888 0.01009 0.94100
Cu	Cu	0.69981 0.25832 0.92594 0.90000
Cu	Cu	0.70123 0.36794 0.95751 0.91000
Cu	Cu	0.66851 0.39290 0.03370 0.92700
C 	C 	0.68028 0.32196 0.09133 0.28100
O 	O 	0.56488 0.23763 0.00991 -0.31100
C 	C 	0.67250 0.31772 0.87254 0.28100
O 	O 	0.71509 0.36747 0.01217 -0.63600
O 	O 	0.64861 0.27374 0.95391 -0.63300
O 	O 	0.69057 0.21782 0.00862 -0.31300
O 	O 	0.76059 0.27503 0.96923 -0.38700
O 	O 	0.65561 0.35118 0.08033 -0.32900
O 	O 	0.75610 0.45968 0.96529 -0.32900
C 	C 	0.75264 0.49684 0.99127 0.38800
C 	C 	0.54366 0.26756 0.99540 0.38600
O 	O 	0.58482 0.32492 0.98886 -0.35000
O 	O 	0.70763 0.47317 0.01298 -0.31800
O 	O 	0.67916 0.28082 0.06581 -0.32200
C 	C 	0.74281 0.23680 0.99452 0.38300
O 	O 	0.70171 0.36809 0.90095 -0.33600
O 	O 	0.66072 0.26398 0.87922 -0.37100
H 	H 	0.76092 0.39247 0.02488 0.20200
H 	H 	0.60389 0.25082 0.93964 0.20700
Cu	Cu	0.71088 0.30799 0.45153 0.93700
Cu	Cu	0.71935 0.27254 0.53813 0.90600
Cu	Cu	0.61096 0.27198 0.50409 0.91000
Cu	Cu	0.58295 0.29318 0.42281 0.93000
C 	C 	0.66887 0.29625 0.37037 0.27600
O 	O 	0.74656 0.39896 0.44795 -0.32800
C 	C 	0.66216 0.30628 0.58959 0.28100
O 	O 	0.61080 0.25276 0.44983 -0.63400
O 	O 	0.70635 0.32226 0.50746 -0.63300
O 	O 	0.75861 0.27025 0.45533 -0.31700
O 	O 	0.69794 0.20800 0.49667 -0.38500
O 	O 	0.61259 0.28392 0.37371 -0.32000
O 	O 	0.51796 0.21809 0.49670 -0.32700
C 	C 	0.48103 0.21876 0.46849 0.38800
C 	C 	0.71349 0.42076 0.45439 0.39100
O 	O 	0.65539 0.38296 0.46168 -0.34900
O 	O 	0.50611 0.26358 0.44722 -0.32000
O 	O 	0.69840 0.28354 0.39615 -0.31200
C 	C 	0.73726 0.22072 0.47219 0.38800
O 	O 	0.61131 0.27813 0.56106 -0.33600
O 	O 	0.71610 0.31638 0.58314 -0.36900
H 	H 	0.58615 0.20678 0.43943 0.20100
H 	H 	0.73006 0.36729 0.52004 0.20900
C 	C 	0.76013 0.42977 0.76439 -0.02200
C 	C 	0.75883 0.42805 0.72415 -0.02100
C 	C 	0.70597 0.37569 0.69718 0.04200
C 	C 	0.65282 0.32595 0.71077 0.00400
C 	C 	0.65436 0.32742 0.75129 0.00400
C 	C 	0.70872 0.37903 0.77818 0.04400
C 	C 	0.60286 0.27594 0.76487 0.04200
C 	C 	0.54879 0.22487 0.73792 -0.02100
C 	C 	0.54703 0.22364 0.69768 -0.02200
C 	C 	0.59944 0.27332 0.68388 0.04500
C 	C 	0.60051 0.26956 0.64366 -0.01800
C 	C 	0.65523 0.31707 0.63029 -0.02300
C 	C 	0.70685 0.37108 0.65694 -0.01800
C 	C 	0.71230 0.37782 0.81838 -0.01800
C 	C 	0.66280 0.32473 0.83173 -0.02400
C 	C 	0.60728 0.27488 0.80509 -0.01800
H 	H 	0.80177 0.46999 0.78481 0.08700
H 	H 	0.79951 0.46692 0.71399 0.08100
H 	H 	0.50857 0.18550 0.74807 0.08300
H 	H 	0.50545 0.18335 0.67726 0.08800
H 	H 	0.56044 0.22816 0.62302 0.09100
H 	H 	0.74852 0.40827 0.64647 0.07800
H 	H 	0.75490 0.41651 0.83903 0.09000
H 	H 	0.56863 0.23448 0.81555 0.07800
C 	C 	0.73464 0.42813 0.22808 -0.01700
C 	C 	0.73314 0.42459 0.26768 -0.02000
C 	C 	0.71548 0.36879 0.28073 0.05000
C 	C 	0.70158 0.31701 0.25399 0.00500
C 	C 	0.70264 0.32042 0.21405 0.00600
C 	C 	0.71820 0.37581 0.20098 0.04600
C 	C 	0.68566 0.26753 0.18699 0.04600
C 	C 	0.67030 0.21256 0.20029 -0.01900
C 	C 	0.66951 0.20927 0.23999 -0.01900
C 	C 	0.68390 0.26084 0.26689 0.04800
C 	C 	0.67805 0.25597 0.30613 -0.01300
C 	C 	0.68842 0.30625 0.33220 -0.01100
C 	C 	0.70884 0.36313 0.31976 -0.02000
C 	C 	0.71468 0.37733 0.16086 -0.01800
C 	C 	0.69422 0.32345 0.13360 -0.01800
C 	C 	0.68178 0.26934 0.14685 -0.01600
H 	H 	0.74738 0.47116 0.21839 0.09100
H 	H 	0.74468 0.46490 0.28808 0.09500
H 	H 	0.65791 0.17193 0.17981 0.08900
H 	H 	0.65651 0.16615 0.24966 0.09000
H 	H 	0.66249 0.21218 0.31594 0.09300
H 	H 	0.71716 0.40196 0.34010 0.08400
H 	H 	0.72591 0.41964 0.15072 0.08000
H 	H 	0.66667 0.22795 0.12592 0.09100
C 	C 	0.82324 0.60004 0.47062 0.23200
C 	C 	0.78459 0.61176 0.44848 0.00700
C 	C 	0.72382 0.56067 0.42718 0.23300
C 	C 	0.70151 0.49832 0.42825 0.31500
C 	C 	0.73958 0.48643 0.45093 -0.21300
C 	C 	0.80081 0.53756 0.47185 0.32000
C 	C 	0.80873 0.67751 0.44640 -0.00400
F 	F 	0.68643 0.57154 0.40540 -0.32400
F 	F 	0.83789 0.52676 0.49406 -0.37000
C 	C 	0.83370 0.70331 0.41371 0.25200
C 	C 	0.85962 0.76658 0.41254 0.30600
C 	C 	0.86119 0.80476 0.44417 -0.14000
C 	C 	0.83336 0.77807 0.47604 0.30400
C 	C 	0.80725 0.71463 0.47716 0.25200
F 	F 	0.83421 0.66744 0.38350 -0.33000
F 	F 	0.83429 0.81439 0.50669 -0.33700
F 	F 	0.88528 0.79157 0.38125 -0.32800
F 	F 	0.78173 0.68957 0.50847 -0.32500
F 	F 	0.88246 0.64921 0.49093 -0.32800
F 	F 	0.64302 0.44929 0.40699 -0.38600
C 	C 	0.89458 0.09893 0.47462 0.24600
C 	C 	0.83438 0.07391 0.45213 0.00300
C 	C 	0.79912 0.01381 0.42784 0.23200
C 	C 	0.82397 0.97905 0.42607 0.32600
C 	C 	0.88386 0.00373 0.44911 -0.16000
C 	C 	0.91869 0.06367 0.47368 0.31000
C 	C 	0.80644 0.10883 0.45626 0.00300
F 	F 	0.74057 0.98889 0.40624 -0.31100
F 	F 	0.97534 0.08720 0.49725 -0.32500
C 	C 	0.80111 0.13736 0.42576 0.23600
C 	C 	0.77837 0.17374 0.43077 0.31900
C 	C 	0.76191 0.18286 0.46664 -0.20600
C 	C 	0.76765 0.15435 0.49715 0.31500
C 	C 	0.78868 0.11673 0.49169 0.23600
F 	F 	0.81849 0.13027 0.39142 -0.32500
F 	F 	0.75422 0.16427 0.53245 -0.38900
F 	F 	0.77151 0.19931 0.40061 -0.36500
F 	F 	0.79288 0.08871 0.52116 -0.32500
F 	F 	0.92929 0.15718 0.49795 -0.32200
F 	F 	0.79036 0.92195 0.40155 -0.33700
C 	C 	0.30371 0.12234 0.42602 0.24000
C 	C 	0.27630 0.10441 0.45940 0.00300
C 	C 	0.31594 0.12094 0.49555 0.23800
C 	C 	0.38276 0.15744 0.49863 0.32000
C 	C 	0.41041 0.17628 0.46524 -0.19700
C 	C 	0.37023 0.15703 0.42875 0.31800
C 	C 	0.20624 0.06969 0.45666 0.00400
F 	F 	0.28968 0.10238 0.52781 -0.32400
F 	F 	0.39577 0.17211 0.39592 -0.36600
C 	C 	0.16342 0.00804 0.43444 0.23300
C 	C 	0.09702 0.97622 0.43034 0.32900
C 	C 	0.07270 0.00490 0.44965 -0.16500
C 	C 	0.11578 0.06644 0.47230 0.31400
C 	C 	0.18214 0.09897 0.47526 0.24700
F 	F 	0.18627 0.97908 0.41666 -0.30700
F 	F 	0.09340 0.09414 0.49219 -0.31500
F 	F 	0.05626 0.91783 0.40722 -0.32300
F 	F 	0.22317 0.15904 0.49623 -0.31500
F 	F 	0.26583 0.10677 0.39096 -0.31500
F 	F 	0.42061 0.17604 0.53421 -0.36400
C 	C 	0.84414 0.67265 0.02727 0.24100
C 	C 	0.85770 0.69598 0.99235 0.00400
C 	C 	0.84034 0.65431 0.95732 0.23600
C 	C 	0.80749 0.58937 0.95694 0.32000
C 	C 	0.79302 0.56578 0.99187 -0.20200
C 	C 	0.81303 0.60813 0.02717 0.32300
C 	C 	0.89025 0.76412 0.99257 -0.01100
F 	F 	0.85472 0.67673 0.92357 -0.32600
F 	F 	0.80197 0.58659 0.06139 -0.36700
C 	C 	0.95387 0.80902 0.01267 0.26100
C 	C 	0.98368 0.87375 0.01479 0.28800
C 	C 	0.95095 0.89428 0.99552 -0.13600
C 	C 	0.88743 0.84918 0.97496 0.29900
C 	C 	0.85699 0.78445 0.97393 0.25400
F 	F 	0.98664 0.78979 0.03044 -0.32100
F 	F 	0.85566 0.86800 0.95538 -0.32700
F 	F 	0.04406 0.91664 0.03609 -0.30500
F 	F 	0.79508 0.74138 0.95491 -0.31800
F 	F 	0.86064 0.71256 0.06129 -0.31700
F 	F 	0.78794 0.54922 0.92248 -0.36600
C 	C 	0.77998 0.12152 0.01094 0.23700
C 	C 	0.84655 0.15954 0.01157 0.00400
C 	C 	0.87986 0.22453 0.01117 0.23400
C 	C 	0.84641 0.25068 0.00819 0.31400
C 	C 	0.77909 0.21179 0.00483 -0.20400
C 	C 	0.74626 0.14738 0.00736 0.31400
C 	C 	0.88044 0.13043 0.00954 -0.00300
F 	F 	0.94440 0.26192 0.01241 -0.32400
F 	F 	0.68136 0.10919 0.00448 -0.35700
C 	C 	0.86950 0.09152 0.97471 0.24800
C 	C 	0.90306 0.06555 0.97226 0.29900
C 	C 	0.94844 0.07893 0.00442 -0.13100
C 	C 	0.95949 0.11785 0.03924 0.28500
C 	C 	0.92531 0.14321 0.04188 0.25700
F 	F 	0.82690 0.07960 0.94311 -0.32800
F 	F 	0.00288 0.13054 0.07060 -0.31600
F 	F 	0.89217 0.02803 0.93846 -0.33100
F 	F 	0.93578 0.18024 0.07580 -0.32400
F 	F 	0.74767 0.05900 0.01250 -0.32000
F 	F 	0.87925 0.31365 0.00789 -0.36500
C 	C 	0.25444 0.13671 0.02667 0.25600
C 	C 	0.27874 0.16334 0.99407 -0.00500
C 	C 	0.23863 0.16287 0.96403 0.25300
C 	C 	0.17384 0.13359 0.96587 0.30600
C 	C 	0.14888 0.10447 0.99768 -0.14600
C 	C 	0.18977 0.10740 0.02848 0.31300
C 	C 	0.34600 0.19108 0.99131 0.00500
F 	F 	0.26213 0.18957 0.93273 -0.32300
F 	F 	0.16627 0.08031 0.05968 -0.32000
C 	C 	0.36217 0.15217 0.97598 0.23500
C 	C 	0.42673 0.17731 0.97671 0.32000
C 	C 	0.47555 0.24156 0.99279 -0.21000
C 	C 	0.45909 0.28069 0.00744 0.32300
C 	C 	0.39458 0.25552 0.00657 0.24000
F 	F 	0.31529 0.08981 0.96091 -0.32400
F 	F 	0.50578 0.34259 0.02379 -0.37400
F 	F 	0.44186 0.13935 0.96170 -0.36700
F 	F 	0.37927 0.29337 0.02150 -0.31900
F 	F 	0.29333 0.13823 0.05624 -0.32200
F 	F 	0.13473 0.13123 0.93603 -0.33400
