data_crystal

_cell_length_a 26.15898
_cell_length_b 26.53312
_cell_length_c 26.38176
_cell_angle_alpha 95.50361
_cell_angle_beta  95.50304
_cell_angle_gamma 125.80251

_symmetry_space_group_name_	'P 1'
_symmetry_space_group_name_H-M	'P 1'

loop_
_symmetry_equiv_pos_as_xyz
  x,y,z

loop_
_atom_site_label
_atom_site_type_symbol
_atom_site_fract_x
_atom_site_fract_y
_atom_site_fract_z
_atom_site_charge
C 	C 	0.05304 0.02699 0.45075 0.06400
O 	O 	0.73433 0.02495 0.35509 -0.06500
C 	C 	0.95451 0.01799 0.43855 0.06100
N 	N 	0.89072 0.03093 0.51703 -0.02700
O 	O 	0.68852 0.02711 0.42243 -0.07200
C 	C 	0.95171 0.01527 0.99607 0.07400
C 	C 	0.04446 0.01536 0.99379 0.05800
H 	H 	0.11489 0.02608 0.37537 0.08200
O 	O 	0.22038 0.03163 0.34711 -0.07300
N 	N 	0.71043 0.00213 0.98144 -0.01600
C 	C 	0.92166 0.04782 0.43129 -0.00900
N 	N 	0.12063 0.01351 0.07977 -0.02400
C 	C 	0.02143 0.05457 0.44320 -0.06800
O 	O 	0.94416 0.05314 0.54795 -0.07500
N 	N 	0.90228 0.02347 0.08763 -0.02600
N 	N 	0.73332 0.05659 0.39533 -0.01600
C 	C 	0.89193 0.05483 0.47041 0.08800
C 	C 	0.14747 0.05823 0.41091 -0.04500
O 	O 	0.09340 0.03177 0.10698 -0.06600
C 	C 	0.92354 0.04963 0.00112 -0.03400
H 	H 	0.64801 0.05298 0.97395 0.07900
C 	C 	0.01816 0.04852 0.99925 -0.05500
C 	C 	0.89448 0.04807 0.04391 0.08900
O 	O 	0.95949 0.04607 0.11150 -0.07000
C 	C 	0.14983 0.04458 0.03835 0.07700
C 	C 	0.11443 0.04994 0.99825 0.00500
C 	C 	0.12302 0.06486 0.45398 -0.01200
H 	H 	0.28847 0.06092 0.93054 0.09300
O 	O 	0.10535 0.06599 0.56645 -0.07800
H 	H 	0.94658 0.06781 0.35631 0.08100
H 	H 	0.24080 0.06455 0.06794 0.09000
H 	H 	0.83384 0.06783 0.07589 0.08600
C 	C 	0.73901 0.06827 0.98841 0.05900
O 	O 	0.85226 0.98045 0.10498 -0.06200
O 	O 	0.67101 0.96758 0.01089 -0.07200
O 	O 	0.12464 0.96953 0.09226 -0.06100
O 	O 	0.81707 0.09506 0.88657 -0.07000
O 	O 	0.71998 0.97559 0.94324 -0.06000
N 	N 	0.23797 0.08703 0.36854 -0.02000
C 	C 	0.91173 0.94899 0.98727 -0.06300
C 	C 	0.93796 0.91593 0.98214 0.06800
C 	C 	0.00410 0.94905 0.98448 -0.05500
H 	H 	0.86041 0.92325 0.98506 0.08700
H 	H 	0.02428 0.92331 0.98001 0.08600
H 	H 	0.04922 0.09982 0.00638 0.06700
C 	C 	0.01793 0.96294 0.45415 -0.06200
C 	C 	0.95114 0.92606 0.44955 0.06900
C 	C 	0.91924 0.95342 0.44132 -0.05700
H 	H 	0.04881 0.10436 0.44106 0.08100
H 	H 	0.04251 0.94173 0.46014 0.07900
H 	H 	0.86748 0.92482 0.43740 0.08800
Cu	Cu	0.63672 0.24572 0.00391 0.92900
Cu	Cu	0.66072 0.21069 0.89037 0.90800
Cu	Cu	0.64364 0.32229 0.92203 0.92100
Cu	Cu	0.61735 0.35238 0.02406 0.90400
C 	C 	0.66082 0.31018 0.10803 0.38900
O 	O 	0.54276 0.19793 0.00981 -0.33800
C 	C 	0.66005 0.28939 0.82385 0.38500
O 	O 	0.67190 0.33821 0.99531 -0.62100
O 	O 	0.61456 0.23474 0.92737 -0.62100
O 	O 	0.69509 0.21973 0.00848 -0.34200
O 	O 	0.64957 0.15153 0.93099 -0.38600
O 	O 	0.62294 0.32517 0.09114 -0.35700
O 	O 	0.67821 0.40884 0.91924 -0.33300
C 	C 	0.67670 0.44640 0.95464 0.30700
C 	C 	0.50749 0.21389 0.98913 0.31200
O 	O 	0.53522 0.26799 0.97317 -0.37000
O 	O 	0.63794 0.42369 0.98847 -0.34500
O 	O 	0.66763 0.27272 0.07749 -0.32300
C 	C 	0.68530 0.17195 0.97720 0.32100
O 	O 	0.62774 0.30481 0.84721 -0.33700
O 	O 	0.69634 0.27868 0.85130 -0.38100
H 	H 	0.71835 0.37223 0.00748 0.17600
H 	H 	0.56794 0.20334 0.91388 0.18600
Cu	Cu	0.75572 0.35861 0.43442 0.93600
Cu	Cu	0.75336 0.29627 0.53657 0.89500
Cu	Cu	0.65687 0.31783 0.50515 0.90700
Cu	Cu	0.63557 0.35800 0.40884 0.90800
C 	C 	0.70551 0.35001 0.32944 0.39300
O 	O 	0.79255 0.45195 0.44229 -0.32000
C 	C 	0.69563 0.31702 0.61380 0.39100
O 	O 	0.65586 0.30566 0.43200 -0.63700
O 	O 	0.75077 0.36009 0.50901 -0.63200
O 	O 	0.80188 0.31957 0.42946 -0.32400
O 	O 	0.73564 0.24383 0.47348 -0.41000
O 	O 	0.68022 0.37694 0.34835 -0.35300
O 	O 	0.56460 0.27099 0.49736 -0.34600
C 	C 	0.52778 0.27557 0.46314 0.31500
C 	C 	0.76408 0.47353 0.46425 0.30600
O 	O 	0.70581 0.43321 0.47255 -0.37700
O 	O 	0.55215 0.31796 0.43270 -0.36800
O 	O 	0.74363 0.34364 0.36010 -0.32800
C 	C 	0.77810 0.26459 0.44320 0.30900
O 	O 	0.65922 0.32312 0.58048 -0.34100
O 	O 	0.74835 0.32621 0.60317 -0.37700
H 	H 	0.62760 0.26097 0.41377 0.19700
H 	H 	0.77854 0.40245 0.53165 0.20400
C 	C 	0.66542 0.24982 0.73640 0.27600
C 	C 	0.66412 0.29409 0.76888 -0.19600
C 	C 	0.66995 0.34441 0.74926 0.28000
C 	C 	0.67841 0.35099 0.69803 0.28300
C 	C 	0.68166 0.30772 0.66622 -0.19600
C 	C 	0.67445 0.25680 0.68545 0.27600
F 	F 	0.67617 0.21397 0.65463 -0.39900
F 	F 	0.65779 0.19990 0.75424 -0.40500
F 	F 	0.68572 0.40064 0.67993 -0.37500
F 	F 	0.66984 0.38820 0.78034 -0.37200
C 	C 	0.71322 0.38322 0.19363 0.27500
C 	C 	0.68248 0.32236 0.16442 -0.19200
C 	C 	0.66639 0.27208 0.18998 0.28100
C 	C 	0.67754 0.28201 0.24425 0.27600
C 	C 	0.70435 0.34202 0.27330 -0.19400
C 	C 	0.72416 0.39303 0.24781 0.28100
F 	F 	0.75286 0.45191 0.27560 -0.37800
F 	F 	0.73115 0.43261 0.16942 -0.39500
F 	F 	0.65931 0.23263 0.26854 -0.38600
F 	F 	0.63688 0.21299 0.16229 -0.37600
C 	C 	0.87949 0.65239 0.47968 -0.06800
C 	C 	0.83702 0.66671 0.46479 0.03700
C 	C 	0.77057 0.61790 0.45180 0.06500
C 	C 	0.74741 0.55524 0.45239 0.00600
C 	C 	0.78976 0.54057 0.46681 -0.07900
C 	C 	0.85618 0.58975 0.48152 0.13400
C 	C 	0.86252 0.73269 0.46128 0.01600
N 	N 	0.72639 0.63179 0.43774 -0.01700
H 	H 	0.69632 0.51780 0.44114 0.06400
N 	N 	0.89986 0.57660 0.49969 -0.02300
H 	H 	0.93060 0.68999 0.49032 0.09400
C 	C 	0.88907 0.77936 0.50647 0.08300
C 	C 	0.91533 0.84207 0.50224 -0.04300
C 	C 	0.91491 0.85863 0.45336 -0.01000
C 	C 	0.88646 0.81158 0.40826 0.09000
C 	C 	0.86045 0.74894 0.41244 -0.04900
N 	N 	0.88983 0.76331 0.55670 -0.02000
H 	H 	0.93695 0.87813 0.53700 0.08700
N 	N 	0.88467 0.82741 0.35810 -0.02100
H 	H 	0.83951 0.71306 0.37763 0.09300
O 	O 	0.94957 0.59550 0.47832 -0.06300
O 	O 	0.89274 0.55022 0.54014 -0.07700
O 	O 	0.68653 0.60367 0.39357 -0.07000
O 	O 	0.72323 0.66940 0.47043 -0.06400
O 	O 	0.93769 0.86349 0.34103 -0.07700
O 	O 	0.82979 0.80160 0.32787 -0.06600
O 	O 	0.94372 0.79339 0.58953 -0.07100
O 	O 	0.83625 0.72159 0.57080 -0.06200
C 	C 	0.88949 0.21912 0.42812 -0.07000
C 	C 	0.84542 0.15290 0.41701 0.03400
C 	C 	0.77908 0.12408 0.40796 0.06500
C 	C 	0.75763 0.16160 0.41296 0.00300
C 	C 	0.80167 0.22770 0.42756 -0.08200
C 	C 	0.86809 0.25665 0.43399 0.12600
C 	C 	0.86893 0.11407 0.42030 0.01500
H 	H 	0.70655 0.13914 0.40698 0.08100
N 	N 	0.91401 0.32378 0.44934 -0.02200
H 	H 	0.94055 0.24144 0.43466 0.09200
C 	C 	0.89817 0.10667 0.38099 0.08300
C 	C 	0.92398 0.07328 0.38655 -0.04500
C 	C 	0.86505 0.08715 0.46437 -0.05100
N 	N 	0.90282 0.13399 0.33581 -0.02000
H 	H 	0.84284 0.09301 0.49475 0.08600
O 	O 	0.95116 0.35670 0.41799 -0.05900
O 	O 	0.92305 0.35107 0.49639 -0.09200
O 	O 	0.83618 0.99060 0.53052 -0.06300
O 	O 	0.95841 0.17177 0.32286 -0.07300
O 	O 	0.85113 0.11803 0.30588 -0.06200
C 	C 	0.35506 0.14078 0.46431 -0.06900
C 	C 	0.32638 0.17185 0.46292 0.03400
C 	C 	0.36440 0.23746 0.46359 0.06500
C 	C 	0.43042 0.27110 0.46497 0.00400
C 	C 	0.45887 0.23975 0.46467 -0.08000
C 	C 	0.42087 0.17413 0.46438 0.12900
C 	C 	0.25626 0.13517 0.45946 0.01500
N 	N 	0.33594 0.26993 0.46222 -0.01700
H 	H 	0.45949 0.32161 0.46560 0.07700
N 	N 	0.44844 0.14080 0.46229 -0.02400
H 	H 	0.32587 0.09030 0.46383 0.09200
C 	C 	0.21381 0.09345 0.41324 0.08100
C 	C 	0.16540 0.10688 0.50008 0.08800
C 	C 	0.23179 0.14179 0.50257 -0.05000
N 	N 	0.14117 0.11411 0.54444 -0.02100
H 	H 	0.26435 0.17378 0.53817 0.08900
O 	O 	0.44404 0.10865 0.49805 -0.07000
O 	O 	0.47298 0.13815 0.42241 -0.08400
O 	O 	0.35601 0.31716 0.49912 -0.07000
O 	O 	0.29332 0.25530 0.42232 -0.06900
O 	O 	0.15858 0.16973 0.56496 -0.06900
O 	O 	0.27395 0.13574 0.34716 -0.06800
C 	C 	0.86167 0.75151 0.01015 -0.06400
C 	C 	0.82227 0.71419 0.96208 0.02800
C 	C 	0.81912 0.74321 0.92107 0.08200
C 	C 	0.85603 0.80925 0.92842 -0.04500
C 	C 	0.89639 0.84658 0.97618 0.00100
C 	C 	0.89854 0.81751 0.01750 0.08100
C 	C 	0.78399 0.64473 0.95518 0.03400
N 	N 	0.77884 0.70575 0.87184 -0.02000
H 	H 	0.85427 0.83159 0.89666 0.08100
N 	N 	0.93814 0.85496 0.06699 -0.02100
H 	H 	0.86340 0.72917 0.04192 0.08900
C 	C 	0.81405 0.61478 0.95260 0.07000
C 	C 	0.77801 0.54951 0.95099 0.00400
C 	C 	0.71213 0.51369 0.95155 -0.07300
C 	C 	0.68143 0.54316 0.95149 0.13500
C 	C 	0.71773 0.60866 0.95405 -0.06700
N 	N 	0.88142 0.65075 0.95238 -0.01600
H 	H 	0.80151 0.52679 0.95012 0.07600
N 	N 	0.61328 0.50654 0.94748 -0.02300
H 	H 	0.69437 0.63152 0.95507 0.09600
O 	O 	0.97927 0.84711 0.08854 -0.06300
O 	O 	0.92992 0.89363 0.09209 -0.06300
O 	O 	0.73553 0.71167 0.85203 -0.06600
O 	O 	0.78846 0.66911 0.84518 -0.05500
O 	O 	0.57530 0.46118 0.90777 -0.05400
O 	O 	0.58925 0.52172 0.98137 -0.06400
O 	O 	0.91846 0.64797 0.98668 -0.06700
O 	O 	0.90505 0.68325 0.91606 -0.06200
C 	C 	0.85692 0.06987 0.04333 -0.04500
C 	C 	0.84858 0.09372 0.00069 -0.01600
C 	C 	0.88033 0.09825 0.95914 0.09500
C 	C 	0.91800 0.07664 0.95979 -0.03100
C 	C 	0.80632 0.11362 0.99952 0.06600
N 	N 	0.87322 0.12348 0.91568 -0.02200
H 	H 	0.94058 0.07820 0.92699 0.07400
C 	C 	0.69972 0.08799 0.98328 0.00800
C 	C 	0.72697 0.15251 0.98855 -0.07600
C 	C 	0.79437 0.19789 0.00072 0.12100
C 	C 	0.83349 0.17818 0.00702 -0.08900
N 	N 	0.82332 0.26380 0.00408 -0.02800
H 	H 	0.88523 0.21310 0.01573 0.09500
O 	O 	0.92359 0.17206 0.90294 -0.07200
O 	O 	0.85900 0.30324 0.04732 -0.06900
O 	O 	0.81892 0.28511 0.96275 -0.09500
C 	C 	0.32664 0.10132 0.95954 -0.06900
C 	C 	0.31172 0.12829 0.99825 0.04500
C 	C 	0.36137 0.17987 0.03660 0.05300
C 	C 	0.42528 0.20463 0.03524 -0.00900
C 	C 	0.44037 0.17951 0.99527 -0.07000
C 	C 	0.39077 0.12684 0.95773 0.12800
C 	C 	0.24402 0.10235 0.99847 0.02600
N 	N 	0.34715 0.20829 0.07619 -0.01700
H 	H 	0.46345 0.24522 0.06412 0.06600
N 	N 	0.40535 0.10007 0.91706 -0.02800
C 	C 	0.20951 0.11030 0.95976 0.08200
C 	C 	0.14476 0.08351 0.95958 -0.04700
C 	C 	0.21402 0.06976 0.03765 -0.06100
N 	N 	0.24006 0.14546 0.92056 -0.02000
H 	H 	0.11784 0.08818 0.92898 0.07900
O 	O 	0.38190 0.09278 0.86891 -0.07500
O 	O 	0.43835 0.07901 0.92827 -0.08000
O 	O 	0.36640 0.21253 0.12478 -0.07300
O 	O 	0.31927 0.23414 0.06375 -0.07400
O 	O 	0.21590 0.11948 0.87183 -0.07400
O 	O 	0.28952 0.20465 0.93349 -0.06400
