data_crystal

_cell_length_a 18.49453
_cell_length_b 18.84442
_cell_length_c 36.50386
_cell_angle_alpha 95.43378
_cell_angle_beta  95.43472
_cell_angle_gamma 126.66533

_symmetry_space_group_name_	'P 1'
_symmetry_space_group_name_H-M	'P 1'

loop_
_symmetry_equiv_pos_as_xyz
  x,y,z

loop_
_atom_site_label
_atom_site_type_symbol
_atom_site_fract_x
_atom_site_fract_y
_atom_site_fract_z
_atom_site_charge
C 	C 	0.90455 0.98975 0.96429 0.32100
N 	N 	0.99537 0.04360 0.96303 -0.13700
C 	C 	0.04196 0.00909 0.96229 0.25800
N 	N 	0.99778 0.92045 0.96256 -0.11000
C 	C 	0.90712 0.86585 0.96387 0.27100
N 	N 	0.86013 0.90054 0.96506 -0.11400
C 	C 	0.94710 0.03786 0.50090 0.24000
N 	N 	0.89560 0.94823 0.50092 -0.09400
C 	C 	0.93495 0.90636 0.50086 0.26000
N 	N 	0.02618 0.95449 0.50117 -0.08400
C 	C 	0.07763 0.04359 0.50011 0.23700
N 	N 	0.03806 0.08550 0.49994 -0.09900
Cu	Cu	0.76107 0.33915 0.96374 0.93300
Cu	Cu	0.74289 0.27261 0.04439 0.89900
Cu	Cu	0.61320 0.29839 0.00855 0.91500
Cu	Cu	0.59057 0.32854 0.93089 0.91700
C 	C 	0.70059 0.30462 0.88409 0.31300
O 	O 	0.81286 0.46986 0.96118 -0.31600
C 	C 	0.66309 0.32754 0.09124 0.30900
O 	O 	0.61748 0.26418 0.95785 -0.63800
O 	O 	0.74697 0.35636 0.01606 -0.63200
O 	O 	0.82189 0.28027 0.97087 -0.32100
O 	O 	0.71757 0.18471 0.00425 -0.38300
O 	O 	0.66261 0.34435 0.89075 -0.33300
O 	O 	0.48153 0.23309 0.99942 -0.35000
C 	C 	0.43038 0.22466 0.96891 0.40500
C 	C 	0.76902 0.50209 0.97081 0.37900
O 	O 	0.68308 0.44636 0.97431 -0.36300
O 	O 	0.46648 0.27254 0.94262 -0.34400
O 	O 	0.75189 0.30354 0.91139 -0.30800
C 	C 	0.77982 0.20454 0.98388 0.37200
O 	O 	0.61023 0.32179 0.06208 -0.32400
O 	O 	0.73573 0.33179 0.08767 -0.37400
H 	H 	0.57819 0.19839 0.94834 0.19500
H 	H 	0.78631 0.41954 0.02976 0.21000
Cu	Cu	0.61337 0.20137 0.50811 0.93800
Cu	Cu	0.66688 0.20748 0.42502 0.90200
Cu	Cu	0.65206 0.34313 0.46218 0.90900
Cu	Cu	0.64562 0.37973 0.54254 0.92400
C 	C 	0.66103 0.26476 0.58780 0.30900
O 	O 	0.48737 0.16384 0.51460 -0.32800
C 	C 	0.61489 0.29064 0.37972 0.31000
O 	O 	0.69720 0.34179 0.51194 -0.63500
O 	O 	0.58925 0.21142 0.45580 -0.63700
O 	O 	0.66078 0.13146 0.49851 -0.32400
O 	O 	0.75719 0.22856 0.46343 -0.39000
O 	O 	0.62584 0.30721 0.58220 -0.33600
O 	O 	0.72097 0.47256 0.46919 -0.33400
C 	C 	0.73257 0.52719 0.49871 0.39400
C 	C 	0.45894 0.21035 0.50479 0.39000
O 	O 	0.51866 0.29518 0.50207 -0.36300
O 	O 	0.71845 0.50319 0.53174 -0.33400
O 	O 	0.65692 0.21209 0.55981 -0.31000
C 	C 	0.73522 0.16743 0.48396 0.38600
O 	O 	0.61871 0.34105 0.40886 -0.33300
O 	O 	0.60564 0.21673 0.38288 -0.37300
H 	H 	0.76468 0.37675 0.51846 0.19800
H 	H 	0.52374 0.17379 0.44363 0.21700
C 	C 	0.70650 0.24672 0.69690 0.02200
C 	C 	0.78540 0.32028 0.72168 -0.01300
C 	C 	0.78968 0.32550 0.76043 -0.01300
C 	C 	0.71507 0.25721 0.77456 0.02400
C 	C 	0.63868 0.18093 0.74980 -0.01500
C 	C 	0.63443 0.17568 0.71106 -0.01300
C 	C 	0.69340 0.25088 0.65780 0.07600
C 	C 	0.68008 0.25620 0.62552 -0.04600
C 	C 	0.71139 0.27128 0.81366 0.07700
C 	C 	0.70706 0.28522 0.84604 -0.04200
H 	H 	0.84160 0.37532 0.71100 0.07800
H 	H 	0.84923 0.38448 0.77936 0.08400
H 	H 	0.58092 0.12758 0.76048 0.07500
H 	H 	0.57334 0.11837 0.69211 0.07700
C 	C 	0.60416 0.33818 0.27332 0.01800
C 	C 	0.53018 0.27043 0.24501 -0.01700
C 	C 	0.53692 0.27486 0.20730 -0.01700
C 	C 	0.61767 0.34708 0.19773 0.01900
C 	C 	0.68932 0.41763 0.22601 -0.01600
C 	C 	0.68257 0.41320 0.26372 -0.01700
C 	C 	0.60549 0.32398 0.31144 0.07100
C 	C 	0.60857 0.30999 0.34292 -0.06000
C 	C 	0.63200 0.34254 0.15969 0.07200
C 	C 	0.64542 0.33681 0.12821 -0.05500
H 	H 	0.46915 0.21237 0.25217 0.07300
H 	H 	0.48100 0.22026 0.18563 0.07500
H 	H 	0.75180 0.47395 0.21887 0.07700
H 	H 	0.73995 0.46607 0.28541 0.07900
C 	C 	0.89365 0.75718 0.47440 0.26000
C 	C 	0.87805 0.80815 0.49810 -0.12700
C 	C 	0.80969 0.76516 0.51984 0.26400
C 	C 	0.75927 0.67258 0.51869 0.29600
C 	C 	0.77852 0.62250 0.49661 -0.19400
C 	C 	0.84536 0.66526 0.47411 0.29600
F 	F 	0.86555 0.61836 0.45282 -0.37100
F 	F 	0.95582 0.79690 0.45163 -0.33600
F 	F 	0.69194 0.63149 0.53918 -0.36000
F 	F 	0.79377 0.81353 0.54284 -0.33700
C 	C 	0.86160 0.08680 0.52778 0.26200
C 	C 	0.90239 0.08087 0.49828 -0.12500
C 	C 	0.88918 0.10444 0.46439 0.25800
C 	C 	0.83334 0.13109 0.45951 0.29100
C 	C 	0.79155 0.13626 0.48888 -0.20200
C 	C 	0.80686 0.11494 0.52321 0.29700
F 	F 	0.76971 0.12252 0.55227 -0.36900
F 	F 	0.87429 0.06434 0.56074 -0.34800
F 	F 	0.81751 0.14922 0.42584 -0.39700
F 	F 	0.92728 0.09766 0.43554 -0.36100
C 	C 	0.24262 0.17258 0.52401 0.25500
C 	C 	0.17528 0.09339 0.49790 -0.11200
C 	C 	0.20205 0.05581 0.47261 0.23000
C 	C 	0.29481 0.09409 0.47485 0.30500
C 	C 	0.36173 0.17129 0.50180 -0.20700
C 	C 	0.33552 0.21153 0.52587 0.30200
F 	F 	0.39995 0.28666 0.55192 -0.37700
F 	F 	0.21785 0.20949 0.54866 -0.34900
F 	F 	0.31974 0.05635 0.45072 -0.39100
F 	F 	0.13790 0.98154 0.44614 -0.30600
C 	C 	0.82725 0.73263 0.99526 0.25800
C 	C 	0.86050 0.76912 0.96353 -0.12700
C 	C 	0.86598 0.71830 0.93471 0.26200
C 	C 	0.84090 0.63312 0.93800 0.29100
C 	C 	0.80901 0.59714 0.96999 -0.19400
C 	C 	0.80163 0.64710 0.99849 0.28500
F 	F 	0.77003 0.61291 0.02941 -0.36600
F 	F 	0.82291 0.78134 0.02361 -0.33300
F 	F 	0.84501 0.58442 0.90955 -0.37000
F 	F 	0.89721 0.75232 0.90370 -0.34200
C 	C 	0.85183 0.07214 0.93766 0.27300
C 	C 	0.85611 0.02969 0.96659 -0.17400
C 	C 	0.83152 0.04178 0.00051 0.28300
C 	C 	0.80741 0.09924 0.00623 0.29100
C 	C 	0.80620 0.14434 0.97775 -0.20000
C 	C 	0.82685 0.12901 0.94316 0.28800
F 	F 	0.82230 0.16872 0.91481 -0.37100
F 	F 	0.87437 0.06017 0.90452 -0.36300
F 	F 	0.78858 0.11370 0.03997 -0.39500
F 	F 	0.83593 0.00178 0.02877 -0.35500
C 	C 	0.20111 0.13778 0.99366 0.25100
C 	C 	0.14084 0.06814 0.96279 -0.12300
C 	C 	0.17594 0.05119 0.93364 0.23500
C 	C 	0.27071 0.10273 0.93559 0.30200
C 	C 	0.33103 0.17106 0.96684 -0.20600
C 	C 	0.29591 0.18892 0.99575 0.29400
F 	F 	0.35373 0.25632 0.02568 -0.35900
F 	F 	0.16771 0.15433 0.02207 -0.34800
F 	F 	0.30411 0.08527 0.90744 -0.38600
F 	F 	0.11805 0.98445 0.90351 -0.31100
