data_crystal

_cell_length_a 18.41060
_cell_length_b 18.70880
_cell_length_c 38.11581
_cell_angle_alpha 95.44404
_cell_angle_beta  95.44396
_cell_angle_gamma 126.40934

_symmetry_space_group_name_	'P 1'
_symmetry_space_group_name_H-M	'P 1'

loop_
_symmetry_equiv_pos_as_xyz
  x,y,z

loop_
_atom_site_label
_atom_site_type_symbol
_atom_site_fract_x
_atom_site_fract_y
_atom_site_fract_z
_atom_site_charge
C 	C 	0.88793 0.97278 0.96475 0.20500
N 	N 	0.97579 0.02305 0.95933 -0.13700
C 	C 	0.02123 0.98691 0.95790 0.20400
N 	N 	0.97841 0.89967 0.96133 -0.14400
C 	C 	0.89051 0.84854 0.96681 0.18700
N 	N 	0.84510 0.88532 0.96878 -0.10500
C 	C 	0.96435 0.06208 0.49954 0.17600
N 	N 	0.91198 0.97267 0.50091 -0.12100
C 	C 	0.95150 0.93088 0.50444 0.19100
N 	N 	0.04335 0.97830 0.50651 -0.10700
C 	C 	0.09620 0.06766 0.50522 0.18200
N 	N 	0.05660 0.10966 0.50142 -0.13300
Cu	Cu	0.74857 0.32412 0.96596 0.93400
Cu	Cu	0.72168 0.26047 0.04398 0.88100
Cu	Cu	0.58293 0.26414 0.00031 0.90400
Cu	Cu	0.57453 0.29717 0.92508 0.90500
C 	C 	0.70775 0.29147 0.88897 0.29200
O 	O 	0.79092 0.45202 0.96255 -0.32500
C 	C 	0.62096 0.30442 0.08020 0.29200
O 	O 	0.60431 0.23879 0.95399 -0.63700
O 	O 	0.71883 0.33560 0.01343 -0.64000
O 	O 	0.81517 0.27282 0.97821 -0.33200
O 	O 	0.70740 0.17297 0.00831 -0.42800
O 	O 	0.66203 0.32490 0.89188 -0.37000
O 	O 	0.45138 0.18797 0.98521 -0.37600
C 	C 	0.40610 0.19282 0.95771 0.34300
C 	C 	0.73851 0.47695 0.96835 0.32600
O 	O 	0.65037 0.41518 0.96748 -0.39300
O 	O 	0.44264 0.22453 0.92942 -0.35600
O 	O 	0.75536 0.29308 0.91759 -0.32200
C 	C 	0.77210 0.19545 0.98969 0.32900
O 	O 	0.56056 0.27083 0.04984 -0.37300
O 	O 	0.69980 0.31732 0.08112 -0.40300
H 	H 	0.57212 0.17376 0.94461 0.18700
H 	H 	0.74964 0.39846 0.02586 0.19500
Cu	Cu	0.63088 0.22112 0.50584 0.93100
Cu	Cu	0.67071 0.23095 0.42379 0.88600
Cu	Cu	0.67944 0.37634 0.46791 0.90800
Cu	Cu	0.66626 0.39731 0.54568 0.90300
C 	C 	0.69165 0.27862 0.58199 0.29200
O 	O 	0.50644 0.18209 0.51535 -0.35700
C 	C 	0.61737 0.32539 0.38870 0.29500
O 	O 	0.71754 0.36326 0.51397 -0.63700
O 	O 	0.60557 0.24199 0.45804 -0.64100
O 	O 	0.67296 0.14859 0.49087 -0.37000
O 	O 	0.76564 0.24519 0.45601 -0.39700
O 	O 	0.65409 0.32056 0.58106 -0.37200
O 	O 	0.75720 0.50660 0.48005 -0.35400
C 	C 	0.75639 0.55443 0.50761 0.34800
C 	C 	0.47749 0.23029 0.50916 0.32800
O 	O 	0.53694 0.31635 0.50795 -0.36200
O 	O 	0.73312 0.52384 0.53769 -0.38000
O 	O 	0.67622 0.22225 0.55349 -0.35400
C 	C 	0.74616 0.18476 0.47603 0.33100
O 	O 	0.66063 0.38987 0.41778 -0.35000
O 	O 	0.60469 0.24813 0.38835 -0.39900
H 	H 	0.78460 0.39563 0.52085 0.17600
H 	H 	0.53980 0.21068 0.44817 0.19300
C 	C 	0.72647 0.27623 0.85356 -0.06700
C 	C 	0.69887 0.19046 0.83843 0.02900
C 	C 	0.70460 0.17254 0.80269 -0.06200
C 	C 	0.73980 0.24085 0.78215 0.05500
C 	C 	0.77136 0.32786 0.79794 -0.06400
C 	C 	0.76474 0.34539 0.83346 0.02800
C 	C 	0.73112 0.21804 0.74302 -0.04500
C 	C 	0.80134 0.27149 0.72651 -0.04600
C 	C 	0.78398 0.27373 0.68811 0.05700
C 	C 	0.81668 0.35637 0.67775 -0.06800
C 	C 	0.78994 0.35827 0.64253 0.02700
C 	C 	0.73124 0.27762 0.61717 -0.08100
C 	C 	0.70393 0.19551 0.62683 0.03200
C 	C 	0.73037 0.19357 0.66219 -0.06600
H 	H 	0.66976 0.13679 0.85386 0.05700
H 	H 	0.67962 0.10508 0.79074 0.06600
H 	H 	0.79741 0.38086 0.78224 0.06100
H 	H 	0.78696 0.41207 0.84504 0.05100
H 	H 	0.66422 0.16228 0.72726 0.05600
H 	H 	0.86890 0.32477 0.74255 0.05800
H 	H 	0.85965 0.41877 0.69738 0.06100
H 	H 	0.81280 0.42219 0.63518 0.03200
H 	H 	0.65954 0.13290 0.60737 0.05200
H 	H 	0.70731 0.12969 0.66962 0.06600
C 	C 	0.59478 0.31665 0.11435 -0.08200
C 	C 	0.50471 0.25341 0.11971 0.02400
C 	C 	0.48427 0.25392 0.15411 -0.06800
C 	C 	0.55321 0.31841 0.18333 0.05300
C 	C 	0.64172 0.38559 0.17751 -0.06900
C 	C 	0.66230 0.38481 0.14317 0.02500
C 	C 	0.53697 0.30569 0.22023 -0.04800
C 	C 	0.56193 0.37511 0.24572 -0.04700
C 	C 	0.56790 0.36844 0.28415 0.05400
C 	C 	0.64657 0.43856 0.30906 -0.06600
C 	C 	0.65997 0.42699 0.34418 0.02700
C 	C 	0.59474 0.34510 0.35464 -0.07300
C 	C 	0.51248 0.27801 0.33062 0.02600
C 	C 	0.49848 0.29014 0.29566 -0.06700
H 	H 	0.45172 0.20091 0.09765 0.04900
H 	H 	0.41574 0.20192 0.15829 0.06300
H 	H 	0.69576 0.43551 0.19988 0.05800
H 	H 	0.73165 0.43501 0.13925 0.04300
H 	H 	0.50853 0.23976 0.22699 0.05100
H 	H 	0.58917 0.44054 0.23863 0.05500
H 	H 	0.69935 0.50031 0.30076 0.06100
H 	H 	0.72313 0.47983 0.36267 0.05400
H 	H 	0.46050 0.21555 0.33873 0.04600
H 	H 	0.43501 0.23765 0.27726 0.06000
C 	C 	0.82636 0.76994 0.47764 -0.11500
C 	C 	0.89549 0.83499 0.50669 -0.05800
C 	C 	0.91531 0.80760 0.53682 0.32300
C 	C 	0.86817 0.71577 0.53741 -0.06900
C 	C 	0.80129 0.65059 0.50781 -0.13400
C 	C 	0.77965 0.67797 0.47807 0.35800
F 	F 	0.71360 0.61549 0.44961 -0.43400
H 	H 	0.81051 0.79072 0.45436 0.10800
H 	H 	0.88513 0.69526 0.56051 0.09900
F 	F 	0.98099 0.87012 0.56536 -0.40000
C 	C 	0.91649 0.13710 0.46423 -0.11800
C 	C 	0.92084 0.10674 0.49602 -0.06300
C 	C 	0.87232 0.10740 0.52218 0.31700
C 	C 	0.81690 0.13469 0.51592 -0.07400
C 	C 	0.80897 0.16108 0.48337 -0.13600
C 	C 	0.86036 0.16356 0.45772 0.35100
F 	F 	0.85296 0.18786 0.42590 -0.45300
H 	H 	0.95345 0.13642 0.44387 0.10300
H 	H 	0.77951 0.13455 0.53625 0.10100
F 	F 	0.87743 0.07974 0.55337 -0.42100
C 	C 	0.24159 0.17014 0.48299 -0.11700
C 	C 	0.19628 0.11873 0.50877 -0.06000
C 	C 	0.24471 0.10687 0.53536 0.31800
C 	C 	0.33607 0.14234 0.53507 -0.07300
C 	C 	0.38060 0.19137 0.50867 -0.13600
C 	C 	0.33348 0.20644 0.48292 0.35200
F 	F 	0.37583 0.25394 0.45724 -0.44200
H 	H 	0.20480 0.17939 0.46231 0.10700
H 	H 	0.37258 0.13238 0.55558 0.10100
F 	F 	0.20284 0.06025 0.56131 -0.40500
C 	C 	0.89714 0.73301 0.99127 -0.11600
C 	C 	0.84590 0.75404 0.97137 -0.05600
C 	C 	0.75737 0.68354 0.95205 0.31600
C 	C 	0.72214 0.59330 0.95159 -0.07200
C 	C 	0.77510 0.57244 0.97021 -0.13400
C 	C 	0.86223 0.64279 0.99054 0.35400
F 	F 	0.91296 0.62391 0.00973 -0.43900
H 	H 	0.96501 0.78674 0.00668 0.11600
H 	H 	0.65458 0.53957 0.93596 0.08900
F 	F 	0.70712 0.70225 0.93238 -0.42200
C 	C 	0.79187 0.08205 0.00752 -0.06900
C 	C 	0.79646 0.13377 0.98210 -0.13600
C 	C 	0.81982 0.12281 0.94902 0.35600
C 	C 	0.84234 0.06389 0.94222 -0.11000
C 	C 	0.84190 0.01541 0.96833 -0.06500
C 	C 	0.81432 0.02312 0.00068 0.31600
F 	F 	0.81398 0.97724 0.02629 -0.41400
H 	H 	0.77279 0.08895 0.03295 0.08400
H 	H 	0.86299 0.05804 0.91707 0.10900
F 	F 	0.82005 0.16852 0.92336 -0.43500
C 	C 	0.27637 0.17063 0.98287 -0.07500
C 	C 	0.30748 0.14595 0.95553 -0.13400
C 	C 	0.24385 0.07156 0.92787 0.36000
C 	C 	0.14991 0.02071 0.92825 -0.12000
C 	C 	0.11897 0.04434 0.95603 -0.07200
C 	C 	0.18245 0.12036 0.98306 0.32000
F 	F 	0.15324 0.14344 0.01022 -0.42300
H 	H 	0.32516 0.22786 0.00433 0.09600
H 	H 	0.10121 0.96223 0.90726 0.11700
F 	F 	0.27328 0.04652 0.90144 -0.43800
