data_crystal

_cell_length_a 20.02566
_cell_length_b 21.52741
_cell_length_c 31.18658
_cell_angle_alpha 60.86810
_cell_angle_beta  118.85837
_cell_angle_gamma 133.36762

_symmetry_space_group_name_	'P 1'
_symmetry_space_group_name_H-M	'P 1'

loop_
_symmetry_equiv_pos_as_xyz
  x,y,z

loop_
_atom_site_label
_atom_site_type_symbol
_atom_site_fract_x
_atom_site_fract_y
_atom_site_fract_z
_atom_site_charge
O 	O 	0.01955 0.12613 0.19567 -0.36600
C 	C 	0.03171 0.04917 0.36867 0.06300
C 	C 	0.01811 0.03980 0.32256 -0.08300
Co	Co	0.02058 0.86710 0.13448 1.20300
O 	O 	0.02605 0.98332 0.12200 -0.51300
C 	C 	0.02839 0.98408 0.41380 0.08400
Br	Br	0.02566 0.31972 0.02232 -0.12000
H 	H 	0.01723 0.08880 0.28814 0.09300
O 	O 	0.02265 0.00867 0.48215 -0.33500
Co	Co	0.02168 0.09795 0.59776 1.19400
O 	O 	0.03879 0.11284 0.03838 -0.42700
Br	Br	0.05243 0.73968 0.53595 -0.19000
O 	O 	0.03906 0.77796 0.09057 -0.35100
O 	O 	0.01705 0.97785 0.62085 -0.51000
Br	Br	0.02763 0.37798 0.47887 -0.07500
C 	C 	0.06671 0.00240 0.46488 0.17800
Co	Co	0.05604 0.02355 0.04735 1.16100
C 	C 	0.06590 0.19609 0.16169 0.33200
O 	O 	0.05999 0.93595 0.08027 -0.71700
O 	O 	0.05328 0.92534 0.58480 -0.71700
C 	C 	0.05369 0.98702 0.88920 0.06800
C 	C 	0.03723 0.97250 0.84421 0.18500
Br	Br	0.05602 0.15209 0.36889 -0.13700
C 	C 	0.05744 0.28589 0.18588 0.14500
O 	O 	0.05613 0.14697 0.69838 -0.36500
Br	Br	0.06662 0.35038 0.25249 -0.09000
Br	Br	0.01966 0.46704 0.71632 -0.09800
O 	O 	0.07743 0.18929 0.12544 -0.33100
Co	Co	0.07833 0.02597 0.55675 1.16800
O 	O 	0.08245 0.12894 0.54698 -0.42900
O 	O 	0.07484 0.78145 0.62133 -0.36500
O 	O 	0.06301 0.80883 0.67852 -0.32900
C 	C 	0.05811 0.63087 0.70347 0.14200
C 	C 	0.01312 0.91091 0.41155 -0.06200
H 	H 	0.01491 0.86242 0.44585 0.10800
O 	O 	0.00129 0.88357 0.99182 -0.31200
C 	C 	0.00186 0.96600 0.32039 0.02200
C 	C 	0.00086 0.90217 0.36570 0.15700
Co	Co	0.98990 0.07701 0.09689 1.17100
Co	Co	0.11398 0.91002 0.05312 1.19600
C 	C 	0.19749 0.87838 0.15995 0.33200
O 	O 	0.21778 0.93924 0.11810 -0.33200
O 	O 	0.13412 0.85655 0.17834 -0.32200
C 	C 	0.95865 0.94450 0.26992 0.27900
Co	Co	0.10365 0.89131 0.56135 1.19300
C 	C 	0.12129 0.21217 0.67229 0.32700
C 	C 	0.09149 0.77844 0.66795 0.33900
O 	O 	0.13332 0.99335 0.49683 -0.29200
O 	O 	0.12807 0.20051 0.63628 -0.33700
C 	C 	0.93119 0.94704 0.75706 0.32100
Br	Br	0.13945 0.00191 0.82908 -0.20400
H 	H 	0.12397 0.01555 0.91370 0.03600
C 	C 	0.18044 0.30161 0.67977 -0.10000
C 	C 	0.20476 0.31062 0.72814 0.11400
Br	Br	0.23273 0.23491 0.78715 -0.12900
Br	Br	0.24411 0.38890 0.79893 -0.11500
Br	Br	0.92313 0.56832 0.68412 -0.18200
C 	C 	0.10708 0.35987 0.20326 0.08400
C 	C 	0.10184 0.28281 0.16325 -0.10500
Br	Br	0.24476 0.86959 0.07553 -0.20400
C 	C 	0.74245 0.30679 0.02263 0.17700
N 	N 	0.79958 0.39045 0.02852 -0.11400
C 	C 	0.76817 0.41509 0.04334 0.18200
N 	N 	0.67921 0.35862 0.04943 -0.12800
C 	C 	0.62054 0.27794 0.04089 0.18900
N 	N 	0.65272 0.25063 0.02920 -0.12500
C 	C 	0.74312 0.30262 0.52275 0.17400
N 	N 	0.67189 0.23581 0.54724 -0.12400
C 	C 	0.64181 0.25353 0.56770 0.18600
N 	N 	0.69087 0.33688 0.56977 -0.12400
C 	C 	0.75722 0.40471 0.54286 0.18400
N 	N 	0.78372 0.38794 0.51892 -0.11200
C 	C 	0.27337 0.63059 0.21839 0.18800
N 	N 	0.21404 0.55042 0.20794 -0.10900
C 	C 	0.24980 0.51332 0.20989 0.18700
N 	N 	0.34426 0.55496 0.22417 -0.12400
C 	C 	0.40341 0.63914 0.22789 0.18900
N 	N 	0.36836 0.67493 0.22828 -0.11900
C 	C 	0.24591 0.62458 0.70750 0.18000
N 	N 	0.20595 0.54130 0.70784 -0.11000
C 	C 	0.24947 0.52770 0.69405 0.18700
N 	N 	0.33325 0.59618 0.68137 -0.12500
C 	C 	0.37233 0.67901 0.67945 0.18700
N 	N 	0.32858 0.69375 0.69215 -0.11600
Co	Co	0.93776 0.91186 0.17799 1.20000
C 	C 	0.23981 0.10385 0.03200 0.35200
Co	Co	0.88152 0.02598 0.17264 1.16000
C 	C 	0.95010 0.73098 0.09004 0.30000
O 	O 	0.87235 0.11687 0.10701 -0.38900
O 	O 	0.94285 0.00410 0.14799 -0.80000
C 	C 	0.84949 0.11260 0.06113 0.33900
O 	O 	0.96131 0.82588 0.18952 -0.43200
C 	C 	0.73543 0.84280 0.16487 0.32500
C 	C 	0.99224 0.94649 0.95927 0.28500
O 	O 	0.87012 0.07380 0.05236 -0.38700
O 	O 	0.98828 0.99302 0.97440 -0.30800
O 	O 	0.75391 0.92168 0.14601 -0.33700
O 	O 	0.78957 0.82810 0.16397 -0.34700
O 	O 	0.88214 0.93930 0.24253 -0.35600
O 	O 	0.99944 0.93724 0.25093 -0.32600
O 	O 	0.18996 0.03811 0.01213 -0.42700
O 	O 	0.19964 0.11169 0.05043 -0.37400
O 	O 	0.92181 0.75888 0.10289 -0.36700
Co	Co	0.91139 0.91937 0.66275 1.19700
Co	Co	0.97625 0.84817 0.62334 1.17500
C 	C 	0.27270 0.06026 0.58724 0.26500
Co	Co	0.91665 0.07654 0.66163 1.15500
C 	C 	0.90455 0.74557 0.54908 0.32500
O 	O 	0.94750 0.18419 0.59973 -0.40600
O 	O 	0.95706 0.02796 0.64194 -0.79900
C 	C 	0.91623 0.17427 0.55421 0.33500
O 	O 	0.89535 0.81210 0.66535 -0.42600
C 	C 	0.73666 0.91336 0.63550 0.32600
O 	O 	0.92454 0.12549 0.54590 -0.38300
O 	O 	0.78281 0.99932 0.62155 -0.32400
O 	O 	0.76924 0.87548 0.63601 -0.34600
O 	O 	0.87883 0.97408 0.72532 -0.36400
O 	O 	0.95359 0.91773 0.74058 -0.33300
O 	O 	0.23310 0.97496 0.60134 -0.30900
O 	O 	0.22480 0.09212 0.57341 -0.34400
O 	O 	0.96673 0.81629 0.52306 -0.38600
O 	O 	0.88150 0.75186 0.58018 -0.34600
C 	C 	0.97908 0.95962 0.90437 -0.08900
C 	C 	0.88750 0.91852 0.87295 0.13700
C 	C 	0.87072 0.90200 0.82881 -0.01900
C 	C 	0.94562 0.93211 0.81259 -0.09100
H 	H 	0.79963 0.87031 0.80534 0.09700
Br	Br	0.78442 0.88700 0.88847 -0.11800
Br	Br	0.98411 0.80264 0.36638 -0.16500
C 	C 	0.21468 0.37871 0.73301 0.08200
C 	C 	0.20429 0.44012 0.68960 -0.03800
C 	C 	0.18161 0.43077 0.64175 0.08100
C 	C 	0.18399 0.37012 0.63780 0.11400
Br	Br	0.21826 0.39502 0.58065 -0.11800
Br	Br	0.14490 0.49912 0.58184 -0.09100
C 	C 	0.54474 0.80117 0.69740 0.08800
C 	C 	0.46211 0.75230 0.66329 -0.03900
C 	C 	0.47011 0.76077 0.61777 0.08600
C 	C 	0.55992 0.80620 0.61088 0.12300
C 	C 	0.64145 0.85880 0.64397 -0.09700
C 	C 	0.63035 0.86542 0.68270 0.11200
Br	Br	0.71644 0.97321 0.70393 -0.16100
Br	Br	0.54593 0.76976 0.76675 -0.11300
Br	Br	0.57023 0.79664 0.55636 -0.10300
Br	Br	0.36007 0.71808 0.56356 -0.09200
C 	C 	0.11662 0.71825 0.70759 -0.09700
C 	C 	0.21154 0.75442 0.73339 0.11300
C 	C 	0.25285 0.71543 0.74133 0.08500
C 	C 	0.19848 0.64110 0.72235 -0.02900
C 	C 	0.09877 0.59174 0.71065 0.08400
Br	Br	0.37426 0.75090 0.78674 -0.08600
Br	Br	0.28349 0.85576 0.75816 -0.08000
C 	C 	0.22054 0.44074 0.15395 0.08700
C 	C 	0.18924 0.43836 0.18709 -0.03300
C 	C 	0.18562 0.36172 0.14793 0.12600
Br	Br	0.26052 0.36183 0.12576 -0.13300
Br	Br	0.30234 0.55117 0.11269 -0.11200
Br	Br	0.92629 0.19477 0.18815 -0.25200
C 	C 	0.56658 0.68760 0.24707 0.08600
C 	C 	0.49371 0.69712 0.21394 -0.04200
C 	C 	0.49660 0.74150 0.16286 0.08700
C 	C 	0.56441 0.76549 0.14426 0.12000
C 	C 	0.64399 0.76838 0.17796 -0.10000
C 	C 	0.64163 0.72292 0.22895 0.11200
Br	Br	0.74038 0.70861 0.27351 -0.14800
Br	Br	0.56429 0.62806 0.31722 -0.11900
Br	Br	0.55105 0.79795 0.07269 -0.09700
Br	Br	0.41211 0.77460 0.11927 -0.10200
C 	C 	0.24983 0.70836 0.24278 0.09300
C 	C 	0.23612 0.67907 0.20548 -0.03200
C 	C 	0.20740 0.71351 0.15453 0.09500
C 	C 	0.21647 0.79082 0.14039 0.11400
C 	C 	0.22114 0.81625 0.17670 -0.09100
C 	C 	0.23948 0.77525 0.22840 0.12400
Br	Br	0.26119 0.81705 0.27940 -0.08600
Br	Br	0.27990 0.65516 0.31309 -0.09600
Br	Br	0.15552 0.65530 0.10373 -0.10000
C 	C 	0.72082 0.19383 0.49690 0.08100
C 	C 	0.77623 0.28098 0.50112 -0.03800
C 	C 	0.86982 0.33923 0.49511 0.08600
C 	C 	0.91303 0.30378 0.50033 0.09300
C 	C 	0.86472 0.21190 0.51418 -0.10500
C 	C 	0.76592 0.15861 0.50487 0.11100
Br	Br	0.69328 0.04056 0.49989 -0.17500
Br	Br	0.58572 0.12904 0.47275 -0.13900
Br	Br	0.92819 0.46368 0.46737 -0.11500
C 	C 	0.73294 0.51579 0.52553 0.08800
C 	C 	0.79532 0.49600 0.53726 -0.03900
C 	C 	0.89285 0.55903 0.55180 0.09600
C 	C 	0.92787 0.64367 0.54879 0.09800
C 	C 	0.86623 0.65818 0.54637 -0.09700
C 	C 	0.76793 0.59345 0.53410 0.11800
Br	Br	0.68113 0.61357 0.52485 -0.12400
Br	Br	0.60157 0.44099 0.49375 -0.11600
Br	Br	0.97932 0.52953 0.57798 -0.14500
C 	C 	0.52669 0.15228 0.62094 0.08600
C 	C 	0.54426 0.19129 0.57258 -0.05000
C 	C 	0.47368 0.19285 0.52972 0.08800
C 	C 	0.39110 0.16528 0.53556 0.10200
C 	C 	0.37115 0.12165 0.58352 -0.08900
C 	C 	0.44148 0.12042 0.62650 0.10500
Br	Br	0.42526 0.08527 0.69243 -0.15100
Br	Br	0.61987 0.14313 0.67938 -0.14900
Br	Br	0.31099 0.19606 0.47899 -0.14500
Br	Br	0.49205 0.23643 0.46288 -0.12700
C 	C 	0.89811 0.26468 0.02011 0.09700
C 	C 	0.82917 0.17506 0.01990 -0.12400
C 	C 	0.73472 0.14557 0.99872 0.13100
C 	C 	0.70942 0.19897 0.98964 0.09900
C 	C 	0.77646 0.27565 0.00868 -0.05500
C 	C 	0.87379 0.31201 0.02103 0.08900
Br	Br	0.97377 0.42349 0.03940 -0.14500
Br	Br	0.59080 0.17587 0.94433 -0.11600
Br	Br	0.64005 0.03087 0.98504 -0.14200
C 	C 	0.80644 0.56295 0.01797 0.07200
C 	C 	0.82881 0.50322 0.05224 -0.03900
C 	C 	0.88279 0.51457 0.10144 0.08600
C 	C 	0.90848 0.58123 0.11715 0.11100
C 	C 	0.88663 0.64130 0.08265 -0.09300
C 	C 	0.82967 0.62774 0.03423 0.09400
Br	Br	0.78143 0.69635 0.99082 -0.12200
Br	Br	0.74118 0.55383 0.94904 -0.11000
Br	Br	0.97454 0.59127 0.18591 -0.16600
Br	Br	0.91852 0.43648 0.14781 -0.13000
C 	C 	0.49053 0.18590 0.08295 0.08400
C 	C 	0.51991 0.22584 0.03796 -0.06400
C 	C 	0.46063 0.23847 0.99137 0.10100
C 	C 	0.37223 0.21011 0.98997 0.13800
C 	C 	0.34157 0.16683 0.03482 -0.13600
C 	C 	0.40458 0.16249 0.08149 0.11900
Br	Br	0.37587 0.13017 0.14301 -0.17400
Br	Br	0.56897 0.16430 0.14657 -0.14800
Br	Br	0.29225 0.23009 0.92667 -0.12900
Br	Br	0.50279 0.29871 0.92975 -0.10700
