data_crystal

_cell_length_a 35.23240
_cell_length_b 31.80699
_cell_length_c 19.17045
_cell_angle_alpha 92.66401
_cell_angle_beta  85.31818
_cell_angle_gamma 124.18088

_symmetry_space_group_name_	'P 1'
_symmetry_space_group_name_H-M	'P 1'

loop_
_symmetry_equiv_pos_as_xyz
  x,y,z

loop_
_atom_site_label
_atom_site_type_symbol
_atom_site_fract_x
_atom_site_fract_y
_atom_site_fract_z
_atom_site_charge
C 	C 	0.90831 0.03902 0.91742 0.03000
C 	C 	0.92810 0.02276 0.86628 -0.04800
C 	C 	0.95396 0.00493 0.88571 -0.04800
C 	C 	0.95822 0.00058 0.95689 0.03800
C 	C 	0.93930 0.01791 0.00794 0.00300
C 	C 	0.91468 0.03739 0.98833 -0.09800
N 	N 	0.97817 0.97446 0.97812 -0.14000
C 	C 	0.12319 0.06083 0.99595 -0.05700
C 	C 	0.09410 0.01416 0.03060 0.01200
C 	C 	0.04669 0.98620 0.02435 -0.06200
C 	C 	0.02768 0.00405 0.98255 0.06200
C 	C 	0.05710 0.05102 0.94747 -0.07800
C 	C 	0.10455 0.07899 0.95405 -0.01000
C 	C 	0.91568 0.82785 0.88495 -0.00700
C 	C 	0.95882 0.86809 0.85770 -0.02300
C 	C 	0.97986 0.91630 0.88833 -0.07100
C 	C 	0.95801 0.92451 0.94718 0.08200
C 	C 	0.91499 0.88412 0.97422 -0.09700
C 	C 	0.89388 0.83611 0.94326 -0.01600
H 	H 	0.92221 0.02249 0.81171 0.04300
H 	H 	0.96976 0.99335 0.84584 0.04500
H 	H 	0.94272 0.01507 0.06284 0.04000
H 	H 	0.89975 0.05018 0.02825 0.06900
H 	H 	0.10824 0.99965 0.06266 0.02900
H 	H 	0.02453 0.95053 0.05209 0.05400
H 	H 	0.04357 0.06589 0.91503 0.04900
H 	H 	0.12678 0.11494 0.92692 0.02800
H 	H 	0.97592 0.86207 0.81270 0.03600
H 	H 	0.01278 0.94717 0.86619 0.04600
H 	H 	0.89784 0.89013 0.01913 0.07200
H 	H 	0.86077 0.80513 0.96507 0.03000
C 	C 	0.94665 0.09313 0.59759 -0.00100
C 	C 	0.95158 0.05710 0.56075 -0.02600
C 	C 	0.96979 0.03401 0.59252 -0.07000
C 	C 	0.98273 0.04635 0.66203 0.07700
C 	C 	0.97962 0.08399 0.69747 -0.07000
C 	C 	0.96118 0.10685 0.66581 -0.02600
N 	N 	0.99971 0.02135 0.69720 -0.14100
C 	C 	0.14402 0.09074 0.69340 -0.00100
C 	C 	0.11584 0.06574 0.75366 -0.02800
C 	C 	0.06876 0.04501 0.75555 -0.06900
C 	C 	0.04926 0.04889 0.69732 0.07400
C 	C 	0.07798 0.07587 0.63780 -0.07000
C 	C 	0.12509 0.09674 0.63611 -0.02700
C 	C 	0.93403 0.86166 0.67229 -0.00100
C 	C 	0.97515 0.89525 0.63291 -0.02800
C 	C 	0.99593 0.94766 0.63839 -0.06600
C 	C 	0.97606 0.96719 0.68438 0.07300
C 	C 	0.93373 0.93337 0.72085 -0.06800
C 	C 	0.91312 0.88094 0.71566 -0.02600
H 	H 	0.94120 0.04692 0.50760 0.03800
H 	H 	0.97399 0.00684 0.56317 0.05000
H 	H 	0.99134 0.09532 0.74976 0.04900
H 	H 	0.95783 0.13489 0.69449 0.03500
H 	H 	0.13014 0.06096 0.79818 0.03400
H 	H 	0.04703 0.02413 0.80113 0.04700
H 	H 	0.06367 0.07878 0.59193 0.04900
H 	H 	0.14671 0.11636 0.58952 0.03700
H 	H 	0.99080 0.88070 0.59754 0.03700
H 	H 	0.02714 0.97292 0.60662 0.04600
H 	H 	0.91697 0.94775 0.75358 0.04900
H 	H 	0.88104 0.85533 0.74558 0.03600
Co	Co	0.67723 0.28685 0.91320 1.17900
O 	O 	0.71402 0.27131 0.83741 -0.38300
Co	Co	0.59379 0.29733 0.98919 1.17400
O 	O 	0.60890 0.25380 0.90310 -0.47100
O 	O 	0.64593 0.36842 0.96428 -0.42600
O 	O 	0.67421 0.21787 0.91857 -0.35900
C 	C 	0.68420 0.38282 0.92463 0.32700
O 	O 	0.56740 0.28133 0.88747 -0.36400
C 	C 	0.52149 0.25987 0.07488 0.29000
C 	C 	0.67692 0.31149 0.04911 0.29400
O 	O 	0.55284 0.30747 0.06400 -0.36600
O 	O 	0.53196 0.23263 0.03719 -0.34000
O 	O 	0.71129 0.31844 0.00828 -0.35300
O 	O 	0.63832 0.28111 0.02059 -0.45000
O 	O 	0.68708 0.35088 0.88118 -0.53400
C 	C 	0.70067 0.22773 0.86245 0.29100
C 	C 	0.58950 0.26304 0.85717 0.31400
H 	H 	0.70441 0.36374 0.83381 0.17100
Co	Co	0.72461 0.34191 0.45754 1.18100
O 	O 	0.78293 0.34476 0.41565 -0.38200
Co	Co	0.62536 0.33414 0.47037 1.18300
O 	O 	0.66921 0.31338 0.39805 -0.46400
O 	O 	0.67349 0.40714 0.48684 -0.41900
O 	O 	0.72524 0.27492 0.45556 -0.35600
C 	C 	0.71862 0.42893 0.48442 0.33000
O 	O 	0.63450 0.34436 0.35945 -0.35800
C 	C 	0.53802 0.27956 0.50050 0.29400
C 	C 	0.67905 0.33120 0.58216 0.29800
O 	O 	0.56593 0.32677 0.51605 -0.37600
O 	O 	0.55972 0.26167 0.46847 -0.35200
O 	O 	0.72207 0.34782 0.56978 -0.36500
O 	O 	0.65665 0.31050 0.52686 -0.46600
O 	O 	0.73856 0.41094 0.44329 -0.53300
C 	C 	0.76619 0.29734 0.42589 0.29200
C 	C 	0.66521 0.33427 0.34518 0.30100
H 	H 	0.76790 0.43549 0.41427 0.16900
C 	C 	0.61043 0.27868 0.78530 -0.11400
C 	C 	0.61838 0.24720 0.74083 0.04000
C 	C 	0.64116 0.26528 0.67452 -0.02100
C 	C 	0.65618 0.31402 0.65234 -0.09000
C 	C 	0.64763 0.34508 0.69641 0.03000
C 	C 	0.62398 0.32666 0.76176 -0.01500
H 	H 	0.64675 0.24110 0.63971 0.04800
H 	H 	0.61817 0.35091 0.79602 0.04400
C 	C 	0.59890 0.19271 0.76036 -0.07500
C 	C 	0.66614 0.39921 0.67658 -0.06800
C 	C 	0.54827 0.15789 0.74508 -0.13500
H 	H 	0.60279 0.18933 0.81622 0.04900
H 	H 	0.61821 0.17896 0.73010 0.04600
H 	H 	0.52757 0.16919 0.77683 0.06300
H 	H 	0.53511 0.11812 0.75850 0.05600
H 	H 	0.54406 0.15952 0.68865 0.06100
C 	C 	0.71522 0.43581 0.69828 -0.14200
H 	H 	0.64419 0.41101 0.70279 0.04300
H 	H 	0.66497 0.40263 0.61977 0.04100
H 	H 	0.71650 0.43376 0.75560 0.06000
H 	H 	0.72740 0.47527 0.68493 0.06400
H 	H 	0.73859 0.42657 0.67056 0.06600
C 	C 	0.67933 0.31627 0.12578 -0.08700
C 	C 	0.70958 0.36381 0.15782 0.04300
C 	C 	0.70815 0.36743 0.23115 -0.02400
C 	C 	0.67602 0.32524 0.27268 -0.09700
C 	C 	0.64789 0.27713 0.24084 0.05300
C 	C 	0.65029 0.27306 0.16761 -0.02800
H 	H 	0.72988 0.40417 0.25580 0.03300
H 	H 	0.62888 0.23623 0.14308 0.05200
C 	C 	0.74002 0.41203 0.11504 -0.07300
C 	C 	0.61659 0.22949 0.28433 -0.07200
C 	C 	0.71583 0.43888 0.10715 -0.14100
H 	H 	0.75091 0.40472 0.06260 0.05700
H 	H 	0.77230 0.43832 0.14152 0.04600
H 	H 	0.68240 0.41296 0.08367 0.06900
H 	H 	0.73774 0.47254 0.07267 0.06700
H 	H 	0.70966 0.45189 0.15901 0.06300
C 	C 	0.64282 0.20757 0.30618 -0.13600
H 	H 	0.58753 0.20019 0.25369 0.04700
H 	H 	0.60061 0.23682 0.33143 0.06200
H 	H 	0.65598 0.19649 0.25925 0.06200
H 	H 	0.61947 0.17331 0.33903 0.06200
H 	H 	0.67221 0.23580 0.33697 0.07000
C 	C 	0.79344 0.57267 0.58829 0.10600
C 	C 	0.75380 0.55774 0.55511 -0.10100
C 	C 	0.73108 0.51237 0.51741 0.04200
C 	C 	0.74724 0.48071 0.51380 -0.12400
C 	C 	0.78776 0.49628 0.54564 0.03100
C 	C 	0.81077 0.54216 0.58294 -0.09600
H 	H 	0.74043 0.58128 0.55892 0.06000
H 	H 	0.70030 0.50127 0.49222 0.03100
H 	H 	0.80032 0.47199 0.54398 0.01800
H 	H 	0.84126 0.55332 0.60902 0.06300
N 	N 	0.81468 0.61756 0.62898 -0.08900
N 	N 	0.85584 0.65231 0.61605 -0.08500
C 	C 	0.91179 0.80622 0.66549 0.00000
C 	C 	0.93636 0.78470 0.67687 -0.02400
C 	C 	0.91704 0.73314 0.66296 -0.06600
C 	C 	0.87284 0.70257 0.63878 0.08600
C 	C 	0.84758 0.72365 0.63004 -0.06400
C 	C 	0.86696 0.77519 0.64333 -0.02600
H 	H 	0.97065 0.80810 0.69528 0.03500
H 	H 	0.93663 0.71711 0.67009 0.05300
H 	H 	0.81354 0.70043 0.61071 0.05400
H 	H 	0.84767 0.79133 0.63444 0.03600
C 	C 	0.84743 0.24044 0.46523 0.10300
C 	C 	0.80065 0.20671 0.45269 -0.08800
C 	C 	0.77487 0.22546 0.43619 0.03100
C 	C 	0.79526 0.27806 0.43299 -0.09600
C 	C 	0.84238 0.31172 0.44306 0.03100
C 	C 	0.86822 0.29291 0.45950 -0.09200
H 	H 	0.78396 0.16609 0.45760 0.06400
H 	H 	0.73869 0.19909 0.42779 0.03300
H 	H 	0.85866 0.35241 0.44047 0.03400
H 	H 	0.90417 0.31915 0.46929 0.06000
N 	N 	0.87266 0.22215 0.48953 -0.08800
N 	N 	0.86166 0.17810 0.47547 -0.08500
C 	C 	0.92503 0.11539 0.56548 0.00100
C 	C 	0.95007 0.16791 0.55310 -0.02600
C 	C 	0.92934 0.18895 0.52332 -0.06300
C 	C 	0.88319 0.15757 0.50627 0.08500
C 	C 	0.85848 0.10513 0.51789 -0.06600
C 	C 	0.87917 0.08411 0.54768 -0.02500
H 	H 	0.98560 0.19234 0.56618 0.03800
H 	H 	0.94913 0.22939 0.51314 0.05700
H 	H 	0.82309 0.08070 0.50426 0.05400
H 	H 	0.85952 0.04356 0.55720 0.03800
C 	C 	0.39798 0.18820 0.58327 0.10300
C 	C 	0.41604 0.16669 0.53832 -0.09300
C 	C 	0.46216 0.19600 0.51302 0.03000
C 	C 	0.49062 0.24735 0.53218 -0.09700
C 	C 	0.47280 0.26858 0.57871 0.03000
C 	C 	0.42670 0.23925 0.60391 -0.08900
H 	H 	0.39401 0.12753 0.52168 0.06000
H 	H 	0.47541 0.17909 0.47721 0.03500
H 	H 	0.49435 0.30808 0.59419 0.03600
H 	H 	0.41298 0.25657 0.63774 0.06300
N 	N 	0.34996 0.16017 0.60072 -0.08900
N 	N 	0.33432 0.16773 0.65710 -0.08600
C 	C 	0.19256 0.10745 0.68823 -0.00100
C 	C 	0.22397 0.14608 0.73209 -0.02700
C 	C 	0.27067 0.16463 0.72319 -0.06800
C 	C 	0.28633 0.14488 0.67035 0.08300
C 	C 	0.25439 0.10413 0.62909 -0.06400
C 	C 	0.20780 0.08574 0.63786 -0.02700
H 	H 	0.21236 0.16242 0.77202 0.03500
H 	H 	0.29490 0.19529 0.75610 0.05100
H 	H 	0.26570 0.08722 0.58970 0.05600
H 	H 	0.18360 0.05505 0.60492 0.03700
C 	C 	0.78539 0.54052 0.88413 0.10400
C 	C 	0.79888 0.50835 0.89970 -0.10200
C 	C 	0.76579 0.45703 0.91444 0.03000
C 	C 	0.71886 0.43768 0.91490 -0.13000
C 	C 	0.70528 0.47008 0.90048 0.03800
C 	C 	0.73839 0.52128 0.88513 -0.10000
H 	H 	0.83504 0.52317 0.90042 0.05700
H 	H 	0.77660 0.43228 0.92544 0.01300
H 	H 	0.66914 0.45539 0.89982 0.02500
H 	H 	0.72760 0.54612 0.87481 0.06200
N 	N 	0.81905 0.59317 0.87476 -0.09200
N 	N 	0.81545 0.61769 0.82987 -0.08500
C 	C 	0.89429 0.77635 0.85512 0.00200
C 	C 	0.85049 0.75142 0.82918 -0.02600
C 	C 	0.82566 0.69919 0.81589 -0.06600
C 	C 	0.84418 0.67151 0.82914 0.08500
C 	C 	0.88980 0.69732 0.84818 -0.06400
C 	C 	0.91470 0.74956 0.86140 -0.02800
H 	H 	0.83495 0.77208 0.82224 0.03400
H 	H 	0.79109 0.67977 0.79882 0.05200
H 	H 	0.90519 0.67657 0.85553 0.05400
H 	H 	0.94891 0.76869 0.87982 0.03500
C 	C 	0.82277 0.08533 0.85693 0.08600
C 	C 	0.80434 0.04280 0.89987 -0.07200
C 	C 	0.83234 0.02792 0.92008 -0.01800
C 	C 	0.87902 0.05531 0.89693 -0.01600
C 	C 	0.89728 0.09712 0.85222 -0.02000
C 	C 	0.86921 0.11196 0.83198 -0.06800
H 	H 	0.76843 0.02176 0.91848 0.05100
H 	H 	0.81775 0.99504 0.95354 0.03000
H 	H 	0.93316 0.11812 0.83338 0.03300
H 	H 	0.88350 0.14411 0.79724 0.05700
N 	N 	0.79447 0.10146 0.84006 -0.08700
N 	N 	0.81016 0.14760 0.83647 -0.08900
C 	C 	0.72660 0.20428 0.84806 -0.09900
C 	C 	0.76962 0.23083 0.81024 0.03100
C 	C 	0.79641 0.21085 0.80400 -0.09300
C 	C 	0.78024 0.16399 0.83452 0.10300
C 	C 	0.73634 0.13641 0.86973 -0.09000
C 	C 	0.70959 0.15632 0.87598 0.02900
H 	H 	0.78294 0.26758 0.78754 0.03500
H 	H 	0.83022 0.23235 0.77692 0.06100
H 	H 	0.72358 0.10035 0.89413 0.06100
H 	H 	0.67610 0.13503 0.90414 0.03200
C 	C 	0.37993 0.20610 0.09221 0.10600
C 	C 	0.41336 0.25813 0.09919 -0.09000
C 	C 	0.45979 0.27585 0.09952 0.03100
C 	C 	0.47296 0.24142 0.09276 -0.09100
C 	C 	0.43885 0.18897 0.09299 0.03100
C 	C 	0.39255 0.17140 0.09231 -0.08800
H 	H 	0.40360 0.28496 0.10125 0.06400
H 	H 	0.48554 0.31637 0.10175 0.03900
H 	H 	0.44836 0.16189 0.09041 0.03900
H 	H 	0.36662 0.13096 0.08958 0.06600
N 	N 	0.33403 0.18892 0.08199 -0.08800
N 	N 	0.31427 0.16088 0.03132 -0.08200
C 	C 	0.17313 0.09097 0.00453 0.05500
C 	C 	0.20419 0.10239 0.94624 -0.05800
C 	C 	0.25114 0.12719 0.95523 -0.07900
C 	C 	0.26747 0.14096 0.02235 0.10000
C 	C 	0.23647 0.13055 0.08059 -0.05900
C 	C 	0.18960 0.10603 0.07159 -0.04200
H 	H 	0.19186 0.09101 0.89424 0.04200
H 	H 	0.27477 0.13486 0.91016 0.05300
H 	H 	0.24852 0.14033 0.13285 0.05700
H 	H 	0.16594 0.09777 0.11685 0.04500
