data_crystal

_cell_length_a 27.69714
_cell_length_b 28.24178
_cell_length_c 43.31038
_cell_angle_alpha 95.50923
_cell_angle_beta  95.50883
_cell_angle_gamma 125.79773

_symmetry_space_group_name_	'P 1'
_symmetry_space_group_name_H-M	'P 1'

loop_
_symmetry_equiv_pos_as_xyz
  x,y,z

loop_
_atom_site_label
_atom_site_type_symbol
_atom_site_fract_x
_atom_site_fract_y
_atom_site_fract_z
_atom_site_charge
C 	C 	0.03285 0.07673 0.98722 -0.09300
C 	C 	0.05943 0.04745 0.98307 0.05600
C 	C 	0.02434 0.98565 0.98057 -0.09300
H 	H 	0.05998 0.12461 0.98919 0.05600
H 	H 	0.04498 0.96303 0.97750 0.05600
C 	C 	0.01698 0.97888 0.47123 0.04300
H 	H 	0.84124 0.88108 0.46053 0.05500
H 	H 	0.00693 0.89746 0.47251 0.05300
H 	H 	0.01298 0.05255 0.46902 0.05200
Cu	Cu	0.65052 0.26947 0.00408 0.92800
Cu	Cu	0.69077 0.26850 0.93565 0.86800
Cu	Cu	0.68067 0.36122 0.96270 0.89600
Cu	Cu	0.66451 0.38621 0.02798 0.89400
C 	C 	0.67841 0.31630 0.07042 0.28900
O 	O 	0.56553 0.24271 0.00701 -0.36400
C 	C 	0.65586 0.31989 0.89335 0.28600
O 	O 	0.70433 0.36188 0.00605 -0.64000
O 	O 	0.63782 0.27402 0.95919 -0.64300
O 	O 	0.68158 0.22150 0.99945 -0.37500
O 	O 	0.74816 0.28110 0.96955 -0.44400
O 	O 	0.65317 0.34270 0.06360 -0.38400
O 	O 	0.72752 0.44676 0.96805 -0.38800
C 	C 	0.72415 0.48124 0.98913 0.31300
C 	C 	0.54464 0.27050 0.99586 0.30100
O 	O 	0.58236 0.32611 0.99277 -0.39800
O 	O 	0.70752 0.46635 0.01633 -0.39600
O 	O 	0.67659 0.27935 0.04833 -0.36300
C 	C 	0.73134 0.24225 0.98818 0.31100
O 	O 	0.66516 0.35945 0.91704 -0.38200
O 	O 	0.65161 0.27227 0.89826 -0.42100
H 	H 	0.74862 0.38556 0.01361 0.16600
H 	H 	0.59510 0.24969 0.94806 0.17400
Cu	Cu	0.71686 0.30618 0.45871 0.92700
Cu	Cu	0.73189 0.27828 0.52929 0.87000
Cu	Cu	0.62939 0.27979 0.50405 0.89700
Cu	Cu	0.59642 0.29296 0.43802 0.89500
C 	C 	0.67202 0.29003 0.39340 0.29100
O 	O 	0.74932 0.39037 0.45409 -0.37100
C 	C 	0.68448 0.31641 0.57240 0.28800
O 	O 	0.62374 0.25614 0.46008 -0.63800
O 	O 	0.71805 0.32361 0.50419 -0.64200
O 	O 	0.76226 0.27145 0.46127 -0.37400
O 	O 	0.71015 0.21543 0.49676 -0.44300
O 	O 	0.62132 0.28270 0.39742 -0.38400
O 	O 	0.54236 0.23204 0.50104 -0.38200
C 	C 	0.50491 0.23025 0.47883 0.30800
C 	C 	0.72076 0.41273 0.46150 0.30300
O 	O 	0.66631 0.37860 0.46790 -0.39300
O 	O 	0.52507 0.26668 0.45849 -0.39400
O 	O 	0.70028 0.27872 0.41429 -0.36600
C 	C 	0.74354 0.22573 0.47518 0.30800
O 	O 	0.63531 0.29145 0.55040 -0.38500
O 	O 	0.73319 0.32255 0.56587 -0.42000
H 	H 	0.59945 0.21260 0.45288 0.16600
H 	H 	0.74216 0.36639 0.51356 0.17300
C 	C 	0.64645 0.32736 0.86047 -0.08700
C 	C 	0.66952 0.38399 0.85381 0.01100
C 	C 	0.66758 0.39225 0.82249 -0.06600
C 	C 	0.64298 0.34412 0.79755 0.02500
C 	C 	0.61730 0.28709 0.80417 -0.06700
C 	C 	0.61864 0.27867 0.83541 0.01100
C 	C 	0.64890 0.35412 0.76479 -0.00000
C 	C 	0.59788 0.31955 0.74032 -0.03900
C 	C 	0.60494 0.32099 0.70881 -0.03800
C 	C 	0.66300 0.35761 0.70149 -0.00100
C 	C 	0.71346 0.39550 0.72598 -0.03900
C 	C 	0.70652 0.39346 0.75747 -0.03900
C 	C 	0.67172 0.35129 0.66862 0.02700
C 	C 	0.64092 0.35905 0.64434 -0.06700
C 	C 	0.64599 0.34885 0.61295 0.01600
C 	C 	0.68218 0.33112 0.60560 -0.08900
C 	C 	0.71412 0.32483 0.63003 0.01400
C 	C 	0.70871 0.33461 0.66131 -0.06800
H 	H 	0.69067 0.42193 0.87283 0.03800
H 	H 	0.68672 0.43631 0.81764 0.04600
H 	H 	0.59801 0.24958 0.78512 0.04400
H 	H 	0.59932 0.23449 0.84010 0.03100
H 	H 	0.55306 0.28985 0.74571 0.03800
H 	H 	0.56560 0.29189 0.69010 0.03900
H 	H 	0.75835 0.42474 0.72059 0.03800
H 	H 	0.74620 0.42063 0.77614 0.03700
H 	H 	0.61262 0.37237 0.64975 0.04600
H 	H 	0.62162 0.35449 0.59438 0.03400
H 	H 	0.74188 0.31082 0.62471 0.02400
H 	H 	0.73229 0.32803 0.67982 0.04400
C 	C 	0.68780 0.29593 0.36179 -0.08300
C 	C 	0.70082 0.25927 0.34685 0.01600
C 	C 	0.71074 0.26168 0.31577 -0.06600
C 	C 	0.70821 0.30107 0.29954 0.02700
C 	C 	0.69706 0.33894 0.31481 -0.06500
C 	C 	0.68674 0.33628 0.34576 0.01400
C 	C 	0.71311 0.29994 0.26595 -0.00000
C 	C 	0.76423 0.34798 0.25678 -0.03800
C 	C 	0.76559 0.35041 0.22475 -0.03800
C 	C 	0.71557 0.30502 0.20166 0.00000
C 	C 	0.66544 0.25586 0.21086 -0.03800
C 	C 	0.66431 0.25327 0.24287 -0.03800
C 	C 	0.71340 0.31133 0.16818 0.02600
C 	C 	0.70260 0.26658 0.14474 -0.06500
C 	C 	0.69334 0.26912 0.11280 0.01500
C 	C 	0.69494 0.31662 0.10399 -0.08400
C 	C 	0.70889 0.36289 0.12754 0.01300
C 	C 	0.71769 0.36006 0.15943 -0.06500
H 	H 	0.70163 0.22784 0.35896 0.03900
H 	H 	0.71938 0.23231 0.30415 0.04700
H 	H 	0.69508 0.36951 0.30243 0.04600
H 	H 	0.67726 0.36512 0.35716 0.02800
H 	H 	0.80226 0.38405 0.27447 0.03900
H 	H 	0.80479 0.38822 0.21789 0.03800
H 	H 	0.62657 0.22062 0.19326 0.04000
H 	H 	0.62469 0.21598 0.24977 0.04000
H 	H 	0.70000 0.22916 0.15126 0.04700
H 	H 	0.68329 0.23336 0.09498 0.04200
H 	H 	0.71170 0.40048 0.12115 0.02600
H 	H 	0.72624 0.39498 0.17733 0.04500
C 	C 	0.83477 0.70494 0.46400 0.02100
C 	C 	0.82898 0.68344 0.49233 -0.04800
C 	C 	0.80826 0.62475 0.49201 -0.02800
C 	C 	0.79339 0.58734 0.46337 -0.01200
C 	C 	0.79863 0.60866 0.43502 -0.02800
C 	C 	0.81935 0.66734 0.43534 -0.04800
C 	C 	0.86192 0.76693 0.46467 -0.01300
C 	C 	0.76994 0.52627 0.46291 0.04600
C 	C 	0.74876 0.47473 0.46238 -0.11400
H 	H 	0.84124 0.71235 0.51461 0.04300
H 	H 	0.80384 0.60845 0.51399 0.03700
H 	H 	0.78673 0.57986 0.41276 0.03700
H 	H 	0.82413 0.68375 0.41337 0.04300
C 	C 	0.79944 0.12128 0.46018 -0.01300
C 	C 	0.85279 0.14186 0.44862 -0.02800
C 	C 	0.84403 0.05402 0.45820 0.01900
C 	C 	0.78982 0.03268 0.46896 -0.04600
C 	C 	0.76756 0.06622 0.46994 -0.02900
C 	C 	0.77986 0.15851 0.46429 0.04700
C 	C 	0.76344 0.18948 0.46866 -0.11900
H 	H 	0.76557 0.99077 0.47715 0.04100
H 	H 	0.72627 0.04999 0.47890 0.03600
C 	C 	0.20083 0.07651 0.48071 0.02200
C 	C 	0.22796 0.04768 0.48397 -0.04800
C 	C 	0.29034 0.07908 0.48522 -0.02800
C 	C 	0.32582 0.13943 0.48325 -0.01100
C 	C 	0.29887 0.16853 0.48057 -0.02800
C 	C 	0.23648 0.13712 0.47930 -0.04800
C 	C 	0.13618 0.04334 0.47762 -0.01500
C 	C 	0.08191 0.01463 0.47480 -0.02600
C 	C 	0.38921 0.17077 0.48233 0.04700
C 	C 	0.44214 0.19751 0.48103 -0.10900
H 	H 	0.20065 0.00082 0.48512 0.04200
H 	H 	0.31087 0.05630 0.48729 0.03700
H 	H 	0.32605 0.21521 0.47903 0.03900
H 	H 	0.21581 0.15971 0.47683 0.04200
C 	C 	0.86403 0.77398 0.97839 0.02000
C 	C 	0.81559 0.74527 0.99455 -0.04600
C 	C 	0.78501 0.68486 0.99530 -0.02700
C 	C 	0.80277 0.65296 0.97989 -0.01100
C 	C 	0.85038 0.68139 0.96318 -0.02800
C 	C 	0.88095 0.74180 0.96243 -0.04700
C 	C 	0.77435 0.59203 0.98266 0.04800
C 	C 	0.75113 0.54127 0.98539 -0.10900
H 	H 	0.80222 0.76988 0.00690 0.04200
H 	H 	0.74820 0.66314 0.00825 0.03700
H 	H 	0.86430 0.65698 0.95120 0.03800
H 	H 	0.91832 0.76372 0.94985 0.04200
C 	C 	0.82618 0.17460 0.00027 -0.01600
C 	C 	0.88728 0.20931 0.99732 -0.02600
C 	C 	0.88863 0.12456 0.99925 0.02200
C 	C 	0.82806 0.09034 0.00313 -0.04900
C 	C 	0.79689 0.11530 0.00363 -0.02700
C 	C 	0.79232 0.19828 0.99711 0.05000
C 	C 	0.76419 0.21819 0.99357 -0.12200
H 	H 	0.80478 0.04412 0.00513 0.04200
H 	H 	0.74967 0.08819 0.00591 0.03700
C 	C 	0.23963 0.13771 0.98087 0.02000
C 	C 	0.28242 0.19541 0.99833 -0.04600
C 	C 	0.34434 0.22305 0.99991 -0.02700
C 	C 	0.36369 0.19306 0.98405 -0.01100
C 	C 	0.32087 0.13587 0.96604 -0.02800
C 	C 	0.25896 0.10825 0.96444 -0.04700
C 	C 	0.17619 0.10731 0.98141 -0.01100
C 	C 	0.12301 0.08076 0.98208 -0.03200
C 	C 	0.42738 0.21987 0.98753 0.04700
C 	C 	0.48084 0.24264 0.99100 -0.11100
H 	H 	0.26782 0.21845 0.01109 0.04200
H 	H 	0.37721 0.26732 0.01384 0.03700
H 	H 	0.33550 0.11247 0.95368 0.03700
H 	H 	0.22611 0.06362 0.95090 0.04200
C 	C 	0.87007 0.02239 0.46000 -0.01100
H 	H 	0.91022 0.25520 0.99470 0.03600
C 	C 	0.97117 0.04406 0.98892 0.05700
C 	C 	0.96283 0.95308 0.98233 0.05700
C 	C 	0.93623 0.98225 0.98647 -0.09200
H 	H 	0.88855 0.95698 0.98787 0.05600
C 	C 	0.92372 0.96990 0.46445 0.04800
C 	C 	0.89025 0.90838 0.46349 -0.08400
C 	C 	0.92041 0.88231 0.46641 0.04800
C 	C 	0.88692 0.81927 0.46536 -0.02800
C 	C 	0.87502 0.10830 0.44762 -0.04700
C 	C 	0.89343 0.99742 0.46187 -0.03000
H 	H 	0.87770 0.18435 0.44104 0.03800
H 	H 	0.91693 0.12508 0.43924 0.04300
C 	C 	0.89819 0.83697 0.97946 -0.01100
C 	C 	0.92736 0.88984 0.98064 -0.03200
C 	C 	0.91844 0.18433 0.99680 -0.04900
C 	C 	0.91899 0.09739 0.99599 -0.01200
C 	C 	0.94343 0.07372 0.99290 -0.03100
H 	H 	0.96531 0.21110 0.99389 0.04200
C 	C 	0.98366 0.91765 0.47030 -0.08000
C 	C 	0.98708 0.00504 0.46830 -0.07800
