data_crystal

_cell_length_a 35.08560
_cell_length_b 35.78565
_cell_length_c 34.93526
_cell_angle_alpha 95.51986
_cell_angle_beta  95.52159
_cell_angle_gamma 125.38425

_symmetry_space_group_name_	'P 1'
_symmetry_space_group_name_H-M	'P 1'

loop_
_symmetry_equiv_pos_as_xyz
  x,y,z

loop_
_atom_site_label
_atom_site_type_symbol
_atom_site_fract_x
_atom_site_fract_y
_atom_site_fract_z
_atom_site_charge
C 	C 	0.98176 0.00499 0.98368 0.12900
N 	N 	0.95783 0.95822 0.98110 -0.13900
C 	C 	0.98098 0.93855 0.97700 0.13300
N 	N 	0.02799 0.96560 0.97544 -0.13900
C 	C 	0.05192 0.01232 0.97798 0.13100
N 	N 	0.02882 0.03205 0.98209 -0.14000
C 	C 	0.93580 0.00588 0.44697 0.13000
N 	N 	0.90982 0.95966 0.44841 -0.13800
C 	C 	0.93182 0.93869 0.45214 0.13300
N 	N 	0.97959 0.96388 0.45446 -0.13900
C 	C 	0.00551 0.00996 0.45306 0.13200
N 	N 	0.98364 0.03099 0.44932 -0.14100
Cu	Cu	0.66191 0.25402 0.99904 0.92800
Cu	Cu	0.68696 0.24328 0.91256 0.87000
Cu	Cu	0.69000 0.32512 0.94515 0.89700
Cu	Cu	0.67660 0.34854 0.02514 0.89500
C 	C 	0.68957 0.29649 0.08053 0.32700
O 	O 	0.59607 0.23497 0.00369 -0.36400
C 	C 	0.66647 0.28750 0.85954 0.32600
O 	O 	0.70629 0.32626 0.99935 -0.64200
O 	O 	0.65130 0.25615 0.94291 -0.64100
O 	O 	0.68321 0.21320 0.99455 -0.37500
O 	O 	0.73333 0.25356 0.95368 -0.44400
O 	O 	0.67190 0.31955 0.07221 -0.39200
O 	O 	0.73116 0.39239 0.95096 -0.38500
C 	C 	0.73143 0.42191 0.97697 0.31000
C 	C 	0.58013 0.25737 0.99005 0.30200
O 	O 	0.61002 0.29991 0.98397 -0.39300
O 	O 	0.70638 0.40837 0.00527 -0.39500
O 	O 	0.68260 0.26310 0.05410 -0.37000
C 	C 	0.72060 0.22560 0.97906 0.31000
O 	O 	0.68298 0.32349 0.88801 -0.39200
O 	O 	0.65615 0.24758 0.86712 -0.43200
H 	H 	0.74082 0.34359 0.00933 0.16500
H 	H 	0.61761 0.23936 0.93024 0.17400
Cu	Cu	0.70853 0.34524 0.44500 0.92800
Cu	Cu	0.71729 0.31313 0.52857 0.87100
Cu	Cu	0.63599 0.31485 0.49924 0.89800
Cu	Cu	0.61542 0.33818 0.42340 0.89500
C 	C 	0.66768 0.32955 0.36405 0.32600
O 	O 	0.73226 0.41226 0.44553 -0.36400
C 	C 	0.67549 0.33542 0.58378 0.32700
O 	O 	0.63489 0.30409 0.44427 -0.64100
O 	O 	0.70631 0.35155 0.50153 -0.64100
O 	O 	0.74618 0.31953 0.44513 -0.37300
O 	O 	0.70348 0.26891 0.48465 -0.44300
O 	O 	0.64476 0.34637 0.37573 -0.39500
O 	O 	0.56730 0.27604 0.49304 -0.38200
C 	C 	0.53864 0.27776 0.46710 0.30700
C 	C 	0.71079 0.42860 0.46091 0.30200
O 	O 	0.66758 0.39970 0.46746 -0.39200
O 	O 	0.55520 0.30946 0.44448 -0.39500
O 	O 	0.69849 0.32948 0.38913 -0.37000
C 	C 	0.73184 0.28151 0.45913 0.30800
O 	O 	0.63736 0.31535 0.55596 -0.39700
O 	O 	0.71494 0.34215 0.57612 -0.42800
H 	H 	0.61578 0.27076 0.43176 0.16400
H 	H 	0.72417 0.38402 0.51594 0.17300
C 	C 	0.68619 0.34305 0.77019 0.00600
C 	C 	0.66780 0.36260 0.74932 -0.04000
C 	C 	0.67570 0.36944 0.71125 -0.03800
C 	C 	0.70232 0.35699 0.69393 0.00500
C 	C 	0.72224 0.33920 0.71543 -0.04100
C 	C 	0.71417 0.33217 0.75332 -0.04000
C 	C 	0.71013 0.36301 0.65352 0.01000
C 	C 	0.67154 0.34374 0.62262 -0.17200
C 	C 	0.67726 0.33513 0.81010 0.01100
C 	C 	0.66173 0.29218 0.82048 -0.17200
H 	H 	0.64700 0.37201 0.76239 0.04000
H 	H 	0.66132 0.38451 0.69533 0.04000
H 	H 	0.74353 0.33030 0.70258 0.03400
H 	H 	0.72975 0.31837 0.76962 0.03600
H 	H 	0.74533 0.37684 0.64731 0.03300
H 	H 	0.63705 0.33245 0.62905 0.08500
H 	H 	0.68348 0.36316 0.83145 0.04200
H 	H 	0.64953 0.26272 0.79760 0.08000
C 	C 	0.70811 0.32610 0.26822 0.00800
C 	C 	0.72281 0.30270 0.24706 -0.04000
C 	C 	0.72796 0.30714 0.20814 -0.03700
C 	C 	0.71741 0.33432 0.18985 0.00700
C 	C 	0.70509 0.35951 0.21170 -0.03800
C 	C 	0.70103 0.35592 0.25075 -0.03900
C 	C 	0.72017 0.33783 0.14814 0.01200
C 	C 	0.70486 0.29906 0.11971 -0.16700
C 	C 	0.70210 0.32085 0.30923 0.01200
C 	C 	0.66617 0.32072 0.32392 -0.16500
H 	H 	0.73015 0.28102 0.26069 0.04000
H 	H 	0.74072 0.29004 0.19257 0.03900
H 	H 	0.69841 0.38177 0.19834 0.03800
H 	H 	0.69261 0.37651 0.26744 0.04200
H 	H 	0.72770 0.36924 0.13877 0.02700
H 	H 	0.70444 0.27040 0.12808 0.08700
H 	H 	0.72636 0.31780 0.32804 0.04400
H 	H 	0.63920 0.31877 0.30377 0.07900
C 	C 	0.76549 0.56595 0.46788 -0.00900
C 	C 	0.73458 0.57726 0.45601 -0.03000
C 	C 	0.75262 0.62363 0.45490 -0.04400
C 	C 	0.80171 0.65898 0.46565 0.01100
C 	C 	0.83248 0.64773 0.47846 -0.04400
C 	C 	0.81439 0.60133 0.47954 -0.03000
C 	C 	0.82116 0.70736 0.46172 0.00500
C 	C 	0.80976 0.73265 0.48484 -0.03800
C 	C 	0.82940 0.77899 0.48183 -0.04000
C 	C 	0.86044 0.80022 0.45567 0.01300
C 	C 	0.87105 0.77469 0.43201 -0.04000
C 	C 	0.85148 0.72843 0.43500 -0.03800
C 	C 	0.88419 0.84909 0.45506 0.00600
C 	C 	0.90482 0.88989 0.45368 -0.03900
C 	C 	0.74726 0.51780 0.46605 0.04600
C 	C 	0.73115 0.47726 0.46427 -0.11100
H 	H 	0.69671 0.55007 0.44701 0.03800
H 	H 	0.72859 0.63195 0.44498 0.04100
H 	H 	0.87040 0.67482 0.48707 0.04200
H 	H 	0.83847 0.59286 0.48885 0.03900
H 	H 	0.78626 0.71663 0.50546 0.04000
H 	H 	0.82110 0.79853 0.50027 0.04300
H 	H 	0.89503 0.79089 0.41174 0.04300
H 	H 	0.86013 0.70906 0.41677 0.04100
C 	C 	0.78888 0.21087 0.43900 -0.01200
C 	C 	0.83294 0.22777 0.46148 -0.03000
C 	C 	0.84992 0.20076 0.45965 -0.04500
C 	C 	0.82292 0.15662 0.43530 0.01100
C 	C 	0.77966 0.14049 0.41167 -0.04500
C 	C 	0.76267 0.16754 0.41356 -0.02900
C 	C 	0.83878 0.12642 0.43610 0.00500
C 	C 	0.84106 0.10954 0.47025 -0.03800
C 	C 	0.85838 0.08289 0.47176 -0.04100
C 	C 	0.87353 0.07293 0.43917 0.01300
C 	C 	0.87031 0.08888 0.40474 -0.04000
C 	C 	0.85293 0.11551 0.40317 -0.03800
C 	C 	0.89502 0.04880 0.44183 0.00400
C 	C 	0.91301 0.02861 0.44404 -0.03900
C 	C 	0.76846 0.23571 0.44509 0.04600
C 	C 	0.75194 0.25698 0.45059 -0.12100
H 	H 	0.85344 0.26127 0.48116 0.03500
H 	H 	0.88357 0.21371 0.47772 0.04100
H 	H 	0.75867 0.10656 0.39263 0.04100
H 	H 	0.72860 0.15424 0.39605 0.03800
H 	H 	0.82987 0.11748 0.49572 0.03900
H 	H 	0.86069 0.07062 0.49846 0.04200
H 	H 	0.88195 0.08131 0.37941 0.04300
H 	H 	0.85121 0.12829 0.37665 0.04000
C 	C 	0.14924 0.08296 0.46195 0.01300
C 	C 	0.17225 0.06606 0.48019 -0.04000
C 	C 	0.22129 0.08969 0.48274 -0.03800
C 	C 	0.24761 0.13039 0.46702 0.00500
C 	C 	0.22454 0.14740 0.44895 -0.03800
C 	C 	0.17549 0.12374 0.44644 -0.04000
C 	C 	0.29921 0.15493 0.46914 0.01100
C 	C 	0.31622 0.13290 0.44943 -0.04400
C 	C 	0.36505 0.15681 0.45028 -0.03000
C 	C 	0.39712 0.20282 0.47082 -0.00900
C 	C 	0.38027 0.22458 0.49107 -0.03000
C 	C 	0.33147 0.20072 0.49025 -0.04400
C 	C 	0.44702 0.22856 0.46947 0.04600
C 	C 	0.48889 0.25058 0.46861 -0.10800
C 	C 	0.09856 0.05792 0.45855 0.00500
C 	C 	0.05610 0.03647 0.45598 -0.03900
H 	H 	0.15215 0.03454 0.49226 0.04300
H 	H 	0.23882 0.07639 0.49687 0.04000
H 	H 	0.24454 0.17872 0.43663 0.04000
H 	H 	0.15790 0.13697 0.43227 0.04300
H 	H 	0.29159 0.09756 0.43305 0.04100
H 	H 	0.37785 0.13979 0.43454 0.03700
H 	H 	0.40488 0.26014 0.50703 0.04000
H 	H 	0.31870 0.21789 0.50578 0.04200
C 	C 	0.79875 0.55759 0.96509 -0.00900
C 	C 	0.84851 0.58922 0.97295 -0.03000
C 	C 	0.87050 0.63646 0.97219 -0.04400
C 	C 	0.84279 0.65229 0.96356 0.01100
C 	C 	0.79300 0.62035 0.95478 -0.04400
C 	C 	0.77108 0.57315 0.95556 -0.03000
C 	C 	0.86580 0.70247 0.96516 0.00500
C 	C 	0.89599 0.72601 0.93898 -0.03800
C 	C 	0.91846 0.77379 0.94103 -0.04000
C 	C 	0.91088 0.79829 0.96923 0.01300
C 	C 	0.88047 0.77479 0.99520 -0.04000
C 	C 	0.85799 0.72702 0.99320 -0.03800
C 	C 	0.93527 0.84776 0.97214 0.00600
C 	C 	0.95584 0.88918 0.97436 -0.03900
C 	C 	0.77600 0.50978 0.96914 0.04700
C 	C 	0.75615 0.46959 0.97236 -0.10900
H 	H 	0.87011 0.57741 0.98032 0.03800
H 	H 	0.90896 0.66086 0.97898 0.04100
H 	H 	0.77134 0.63220 0.94782 0.04200
H 	H 	0.73258 0.54885 0.94939 0.03900
H 	H 	0.90207 0.70731 0.91714 0.04000
H 	H 	0.94193 0.79177 0.92085 0.04300
H 	H 	0.87450 0.79354 0.01710 0.04400
H 	H 	0.83485 0.70916 0.01360 0.04100
C 	C 	0.91081 0.06313 0.99214 0.01200
C 	C 	0.88950 0.06638 0.95786 -0.04000
C 	C 	0.86468 0.08582 0.96014 -0.03800
C 	C 	0.86098 0.10210 0.99676 0.00400
C 	C 	0.88244 0.09894 0.03109 -0.03800
C 	C 	0.90728 0.07947 0.02877 -0.04000
C 	C 	0.83492 0.12275 0.99906 0.01000
C 	C 	0.78604 0.09556 0.98352 -0.04500
C 	C 	0.76224 0.11615 0.98226 -0.03000
C 	C 	0.78713 0.16400 0.99653 -0.01300
C 	C 	0.83557 0.19088 0.01335 -0.02900
C 	C 	0.85942 0.17032 0.01463 -0.04500
C 	C 	0.76394 0.18612 0.99098 0.04800
C 	C 	0.74413 0.20424 0.98616 -0.12100
C 	C 	0.93604 0.04276 0.98965 0.00500
C 	C 	0.95704 0.02563 0.98711 -0.03900
H 	H 	0.89214 0.05386 0.92945 0.04200
H 	H 	0.84846 0.08838 0.93348 0.03900
H 	H 	0.87975 0.11139 0.05949 0.04000
H 	H 	0.92367 0.07704 0.05540 0.04300
H 	H 	0.76674 0.05872 0.97174 0.04100
H 	H 	0.72475 0.09514 0.96934 0.03600
H 	H 	0.85500 0.22788 0.02453 0.03800
H 	H 	0.89714 0.19156 0.02677 0.04100
C 	C 	0.43902 0.19994 0.98084 -0.01000
C 	C 	0.41614 0.17867 0.01122 -0.02900
C 	C 	0.36790 0.15893 0.00920 -0.04400
C 	C 	0.34221 0.16040 0.97675 0.01000
C 	C 	0.36522 0.18187 0.94638 -0.04400
C 	C 	0.41352 0.20160 0.94844 -0.03000
C 	C 	0.29098 0.13831 0.97416 0.00500
C 	C 	0.27525 0.15422 0.00252 -0.03800
C 	C 	0.22655 0.13051 0.00219 -0.04000
C 	C 	0.19333 0.09086 0.97349 0.01200
C 	C 	0.20892 0.07583 0.94441 -0.04000
C 	C 	0.25760 0.09947 0.94472 -0.03800
C 	C 	0.14352 0.06380 0.97536 0.00500
C 	C 	0.10169 0.04078 0.97655 -0.03900
C 	C 	0.48877 0.22037 0.98315 0.04600
C 	C 	0.53044 0.23721 0.98581 -0.11100
H 	H 	0.43568 0.17733 0.03637 0.04000
H 	H 	0.35037 0.14218 0.03266 0.04200
H 	H 	0.34569 0.18322 0.92124 0.04100
H 	H 	0.43104 0.21810 0.92489 0.03800
H 	H 	0.30075 0.18440 0.02519 0.04000
H 	H 	0.21472 0.14243 0.02467 0.04300
H 	H 	0.18340 0.04526 0.92207 0.04300
H 	H 	0.26939 0.08693 0.92270 0.04000
