data_crystal

_cell_length_a 26.07185
_cell_length_b 26.44663
_cell_length_c 35.09426
_cell_angle_alpha 95.50173
_cell_angle_beta  95.49877
_cell_angle_gamma 125.82133

_symmetry_space_group_name_	'P 1'
_symmetry_space_group_name_H-M	'P 1'

loop_
_symmetry_equiv_pos_as_xyz
  x,y,z

loop_
_atom_site_label
_atom_site_type_symbol
_atom_site_fract_x
_atom_site_fract_y
_atom_site_fract_z
_atom_site_charge
C 	C 	0.97061 0.04579 0.01462 0.12800
N 	N 	0.03292 0.08122 0.00963 -0.13700
C 	C 	0.06385 0.05424 0.00650 0.12600
N 	N 	0.03194 0.99155 0.00709 -0.14300
C 	C 	0.96943 0.95579 0.01103 0.12400
N 	N 	0.93913 0.98306 0.01544 -0.14300
C 	C 	0.92703 0.97779 0.45255 0.11700
N 	N 	0.99227 0.01427 0.45749 -0.13300
C 	C 	0.02307 0.98720 0.46070 0.11600
N 	N 	0.98873 0.92375 0.45939 -0.14000
C 	C 	0.92359 0.88717 0.45476 0.12300
N 	N 	0.89263 0.91416 0.45118 -0.14000
Cu	Cu	0.63742 0.25481 0.99985 0.92500
Cu	Cu	0.68886 0.26146 0.91775 0.87000
Cu	Cu	0.67636 0.35827 0.95170 0.89400
Cu	Cu	0.64924 0.37721 0.03006 0.89600
C 	C 	0.65895 0.29888 0.08213 0.29400
O 	O 	0.54523 0.22297 0.00071 -0.35400
C 	C 	0.66011 0.32263 0.86642 0.29300
O 	O 	0.69543 0.35436 0.00508 -0.63800
O 	O 	0.62909 0.26439 0.94483 -0.64200
O 	O 	0.67152 0.20437 0.99479 -0.37600
O 	O 	0.74571 0.27258 0.96126 -0.43900
O 	O 	0.63455 0.32922 0.07351 -0.38500
O 	O 	0.72828 0.44995 0.96086 -0.38500
C 	C 	0.72870 0.48620 0.98974 0.29400
C 	C 	0.52441 0.25496 0.98932 0.28700
O 	O 	0.56585 0.31332 0.98435 -0.39700
O 	O 	0.69047 0.46209 0.01539 -0.39100
O 	O 	0.65975 0.26156 0.05471 -0.36300
C 	C 	0.72518 0.22733 0.98161 0.29700
O 	O 	0.66357 0.36057 0.89578 -0.38300
O 	O 	0.65269 0.27004 0.87119 -0.42100
H 	H 	0.74188 0.37953 0.01639 0.16400
H 	H 	0.58464 0.23957 0.92970 0.17500
Cu	Cu	0.72561 0.31609 0.44626 0.92600
Cu	Cu	0.74032 0.28509 0.53298 0.86600
Cu	Cu	0.63123 0.28598 0.50137 0.89700
Cu	Cu	0.59411 0.29455 0.41935 0.89400
C 	C 	0.67777 0.29596 0.36526 0.29700
O 	O 	0.75620 0.40470 0.43996 -0.37400
C 	C 	0.68205 0.31560 0.58589 0.29100
O 	O 	0.62619 0.25862 0.44769 -0.63900
O 	O 	0.72574 0.33417 0.50223 -0.64200
O 	O 	0.77822 0.28397 0.45037 -0.37300
O 	O 	0.72210 0.22050 0.49254 -0.44200
O 	O 	0.62241 0.28509 0.36972 -0.38700
O 	O 	0.53884 0.23281 0.49792 -0.38400
C 	C 	0.49752 0.22970 0.47106 0.29800
C 	C 	0.72245 0.42545 0.44735 0.29000
O 	O 	0.66542 0.38702 0.45601 -0.39200
O 	O 	0.51647 0.26381 0.44327 -0.39400
O 	O 	0.70961 0.28654 0.39157 -0.36700
C 	C 	0.75917 0.23437 0.46653 0.29600
O 	O 	0.63835 0.30714 0.55795 -0.38000
O 	O 	0.73636 0.32741 0.57855 -0.42000
H 	H 	0.60199 0.21213 0.43965 0.16600
H 	H 	0.75083 0.37972 0.51403 0.17400
C 	C 	0.67178 0.28936 0.69002 -0.09000
C 	C 	0.66100 0.33265 0.70522 0.00200
C 	C 	0.65583 0.36974 0.68099 0.02600
C 	C 	0.66269 0.36358 0.64192 -0.01400
C 	C 	0.67373 0.32037 0.62675 -0.10500
C 	C 	0.67669 0.28179 0.65074 0.09000
C 	C 	0.65568 0.33897 0.74680 0.00300
C 	C 	0.64411 0.41649 0.69681 -0.17300
H 	H 	0.66001 0.39282 0.62340 0.04100
C 	C 	0.68564 0.23293 0.63477 -0.19600
H 	H 	0.67573 0.26105 0.70877 0.05000
C 	C 	0.59846 0.29308 0.75922 0.02500
C 	C 	0.59935 0.29071 0.79906 -0.01300
C 	C 	0.65591 0.33483 0.82659 -0.10800
C 	C 	0.71097 0.38499 0.81448 0.09400
C 	C 	0.71065 0.38620 0.77453 -0.09200
C 	C 	0.53768 0.24402 0.72999 -0.17300
H 	H 	0.55669 0.25305 0.80851 0.03600
C 	C 	0.77123 0.43509 0.84381 -0.20400
H 	H 	0.75401 0.42234 0.76491 0.05000
H 	H 	0.67554 0.19952 0.65494 0.06200
H 	H 	0.73606 0.25699 0.63049 0.05800
H 	H 	0.65215 0.20425 0.60654 0.05100
H 	H 	0.68639 0.45523 0.71902 0.06500
H 	H 	0.60063 0.39226 0.71037 0.06500
H 	H 	0.63619 0.43809 0.67348 0.06300
H 	H 	0.49485 0.22020 0.74417 0.06200
H 	H 	0.54167 0.20744 0.71571 0.06400
H 	H 	0.52952 0.26658 0.70746 0.06500
H 	H 	0.79179 0.41324 0.85793 0.06000
H 	H 	0.75991 0.45767 0.86641 0.08200
H 	H 	0.80849 0.47315 0.82993 0.06800
C 	C 	0.73672 0.31146 0.18307 -0.09100
C 	C 	0.68578 0.29107 0.20319 0.00200
C 	C 	0.62468 0.26861 0.18278 0.02700
C 	C 	0.61628 0.26964 0.14287 -0.01400
C 	C 	0.66777 0.29223 0.12298 -0.10300
C 	C 	0.72813 0.31197 0.14297 0.09400
C 	C 	0.69774 0.29747 0.24611 0.00400
C 	C 	0.56905 0.24591 0.20379 -0.17400
H 	H 	0.56980 0.25378 0.12731 0.04500
C 	C 	0.78356 0.33431 0.12186 -0.20200
H 	H 	0.78330 0.32790 0.19878 0.05100
C 	C 	0.68675 0.24653 0.26325 0.02600
C 	C 	0.68397 0.24811 0.30310 -0.01300
C 	C 	0.69364 0.30050 0.32599 -0.10400
C 	C 	0.71172 0.35428 0.30970 0.09800
C 	C 	0.71308 0.35210 0.26972 -0.09200
C 	C 	0.67433 0.18906 0.23879 -0.17400
H 	H 	0.67170 0.20750 0.31593 0.04200
C 	C 	0.72632 0.41271 0.33434 -0.20900
H 	H 	0.72321 0.39182 0.25661 0.05200
H 	H 	0.77142 0.29477 0.09915 0.08000
H 	H 	0.82823 0.35082 0.14199 0.06700
H 	H 	0.79381 0.37451 0.10792 0.06400
H 	H 	0.57896 0.28640 0.22450 0.06600
H 	H 	0.56182 0.20889 0.22007 0.06600
H 	H 	0.52333 0.22484 0.18319 0.06400
H 	H 	0.67472 0.15728 0.25716 0.06400
H 	H 	0.71228 0.20391 0.22100 0.06700
H 	H 	0.62662 0.16170 0.21915 0.06500
H 	H 	0.75026 0.45397 0.31931 0.07200
H 	H 	0.75917 0.42606 0.36219 0.08100
H 	H 	0.68083 0.40323 0.34061 0.07500
C 	C 	0.73931 0.57376 0.43057 -0.07900
C 	C 	0.80252 0.62138 0.45013 0.01800
C 	C 	0.83963 0.60463 0.46859 -0.01000
C 	C 	0.81320 0.54051 0.46718 -0.00100
C 	C 	0.74984 0.49270 0.44764 -0.10100
C 	C 	0.71295 0.50965 0.42882 0.06200
C 	C 	0.83023 0.68869 0.44991 0.00200
S 	S 	0.91927 0.66347 0.49332 -0.04200
H 	H 	0.84174 0.52783 0.48162 0.03400
S 	S 	0.63496 0.45138 0.40147 -0.08700
H 	H 	0.71100 0.58664 0.41607 0.05400
C 	C 	0.86214 0.71845 0.41984 0.00700
C 	C 	0.89015 0.78279 0.42093 -0.03500
C 	C 	0.88666 0.81798 0.45173 -0.03100
C 	C 	0.85329 0.78778 0.48131 0.02900
C 	C 	0.82497 0.72328 0.48010 -0.05900
S 	S 	0.86834 0.67593 0.38110 -0.04700
H 	H 	0.91573 0.80587 0.39814 0.04500
S 	S 	0.84853 0.83061 0.52065 -0.04500
H 	H 	0.79986 0.70025 0.50304 0.04900
H 	H 	0.59068 0.43424 0.42523 0.03800
H 	H 	0.92212 0.67872 0.39131 0.03400
H 	H 	0.79592 0.82988 0.51087 0.03700
H 	H 	0.96041 0.67898 0.46757 0.03400
C 	C 	0.86909 0.07006 0.41723 -0.05900
C 	C 	0.84460 0.07785 0.44932 0.00200
C 	C 	0.84225 0.04799 0.48101 0.00800
C 	C 	0.86671 0.01287 0.48095 -0.03100
C 	C 	0.89394 0.00755 0.44967 -0.02600
C 	C 	0.89381 0.03518 0.41724 0.02700
C 	C 	0.82410 0.11959 0.45025 0.01700
S 	S 	0.81040 0.05564 0.52133 -0.04700
H 	H 	0.86619 0.99116 0.50575 0.04200
S 	S 	0.92345 0.02557 0.37629 -0.03500
H 	H 	0.86997 0.09212 0.39256 0.04900
C 	C 	0.86856 0.18517 0.46557 -0.01000
C 	C 	0.84735 0.22306 0.46872 -0.00400
C 	C 	0.78201 0.19609 0.45710 -0.10100
C 	C 	0.73810 0.13111 0.44009 0.06100
C 	C 	0.75935 0.09325 0.43678 -0.07700
S 	S 	0.95054 0.22001 0.48169 -0.04400
H 	H 	0.88134 0.27314 0.48144 0.02800
S 	S 	0.65677 0.09695 0.42216 -0.05800
H 	H 	0.72534 0.04309 0.42429 0.05400
H 	H 	0.87486 0.97090 0.35101 0.03300
H 	H 	0.98215 0.23799 0.45098 0.03700
H 	H 	0.62223 0.07487 0.45135 0.03500
H 	H 	0.85808 0.10958 0.54749 0.03500
C 	C 	0.18998 0.08188 0.43656 -0.05800
C 	C 	0.22748 0.09390 0.47244 0.00100
C 	C 	0.19786 0.07279 0.50484 0.00900
C 	C 	0.13105 0.03894 0.50083 -0.03600
C 	C 	0.09346 0.02626 0.46483 -0.02400
C 	C 	0.12319 0.04803 0.43255 0.02600
C 	C 	0.29765 0.12814 0.47562 0.01800
S 	S 	0.24377 0.08760 0.55032 -0.04200
H 	H 	0.10820 0.02201 0.52565 0.04700
S 	S 	0.07715 0.03151 0.38671 -0.03600
H 	H 	0.21277 0.09819 0.41164 0.04800
C 	C 	0.32344 0.09498 0.46715 -0.00900
C 	C 	0.38948 0.12868 0.46732 -0.00300
C 	C 	0.43004 0.19521 0.47567 -0.09500
C 	C 	0.40465 0.22826 0.48575 0.06100
C 	C 	0.33861 0.19457 0.48546 -0.07600
S 	S 	0.27341 0.01144 0.45578 -0.03900
H 	H 	0.40905 0.10318 0.46001 0.03000
S 	S 	0.45516 0.31162 0.49941 -0.05000
H 	H 	0.31895 0.22006 0.49254 0.05400
H 	H 	0.05659 0.97372 0.36677 0.03300
H 	H 	0.24887 0.99189 0.41658 0.03000
H 	H 	0.46035 0.33791 0.46687 0.03800
H 	H 	0.24988 0.03975 0.55192 0.03700
C 	C 	0.88225 0.78338 0.96617 -0.05400
C 	C 	0.86787 0.75527 0.99924 -0.00800
C 	C 	0.88631 0.79320 0.03622 0.01600
C 	C 	0.91851 0.85867 0.03966 -0.03900
C 	C 	0.93297 0.88675 0.00659 -0.02300
C 	C 	0.91432 0.84879 0.96961 0.02100
C 	C 	0.83178 0.68587 0.99472 0.02200
S 	S 	0.86927 0.75922 0.07832 -0.04600
H 	H 	0.93288 0.88788 0.06812 0.04600
S 	S 	0.92970 0.88247 0.92734 -0.04600
H 	H 	0.86775 0.75415 0.93771 0.04800
C 	C 	0.76401 0.64586 0.98885 -0.01100
C 	C 	0.73081 0.58048 0.98645 0.00000
C 	C 	0.76452 0.55438 0.98960 -0.09700
C 	C 	0.83228 0.59425 0.99455 0.06100
C 	C 	0.86549 0.65972 0.99696 -0.08600
S 	S 	0.72032 0.67721 0.98492 -0.04500
H 	H 	0.67868 0.54983 0.98239 0.03700
S 	S 	0.87617 0.56320 0.99928 -0.07300
H 	H 	0.91764 0.69051 0.00126 0.06000
H 	H 	0.98986 0.90325 0.92153 0.03700
H 	H 	0.71365 0.69367 0.02133 0.03800
H 	H 	0.88975 0.56205 0.03775 0.03600
H 	H 	0.80952 0.74017 0.08386 0.03500
C 	C 	0.92770 0.16004 0.03090 -0.05900
C 	C 	0.86499 0.12352 0.00892 0.00600
C 	C 	0.83604 0.06056 0.99064 0.00200
C 	C 	0.87125 0.03616 0.99246 -0.03500
C 	C 	0.93446 0.07288 0.01389 -0.02600
C 	C 	0.96184 0.13449 0.03452 0.02900
C 	C 	0.83162 0.15286 0.00289 0.02700
S 	S 	0.75523 0.01135 0.96609 -0.04100
H 	H 	0.84945 0.98850 0.97707 0.04500
S 	S 	0.03617 0.17812 0.06716 -0.03800
H 	H 	0.94962 0.20811 0.04557 0.04800
C 	C 	0.80401 0.16298 0.03255 -0.01500
C 	C 	0.76974 0.18772 0.02535 0.01200
C 	C 	0.76100 0.20073 0.98841 -0.11400
C 	C 	0.78695 0.18851 0.95836 0.07100
C 	C 	0.82411 0.16716 0.96629 -0.08800
S 	S 	0.81076 0.14359 0.07847 -0.03800
H 	H 	0.74966 0.19661 0.04844 0.03900
S 	S 	0.76837 0.19380 0.90997 -0.10900
H 	H 	0.84474 0.15874 0.94334 0.05700
H 	H 	0.02576 0.16257 0.10320 0.03600
H 	H 	0.86611 0.19470 0.10229 0.03200
H 	H 	0.71259 0.13689 0.89125 0.03000
H 	H 	0.71588 0.98184 0.99214 0.03200
C 	C 	0.37723 0.24003 0.01160 -0.07400
C 	C 	0.32764 0.17896 0.99082 0.01500
C 	C 	0.34271 0.14378 0.96833 -0.00800
C 	C 	0.40717 0.16959 0.96750 -0.00000
C 	C 	0.45691 0.22992 0.98931 -0.10200
C 	C 	0.44165 0.26496 0.01197 0.07000
C 	C 	0.26072 0.14998 0.99590 -0.00500
S 	S 	0.28144 0.06678 0.94205 -0.04200
H 	H 	0.41865 0.14245 0.95022 0.03300
S 	S 	0.50232 0.33744 0.04344 -0.08300
H 	H 	0.36564 0.26686 0.02911 0.05400
C 	C 	0.23925 0.12368 0.02918 0.01400
C 	C 	0.17574 0.09624 0.03347 -0.03800
C 	C 	0.13265 0.09317 0.00442 -0.02300
C 	C 	0.15434 0.12028 0.97135 0.02100
C 	C 	0.21844 0.14921 0.96753 -0.05500
S 	S 	0.29088 0.12307 0.06506 -0.04100
H 	H 	0.15917 0.07537 0.05888 0.04800
S 	S 	0.10113 0.11568 0.93375 -0.04100
H 	H 	0.23507 0.16989 0.94207 0.04800
H 	H 	0.52214 0.38650 0.02385 0.03700
H 	H 	0.32453 0.17845 0.09195 0.03600
H 	H 	0.07070 0.05957 0.90795 0.03700
H 	H 	0.26691 0.02372 0.96587 0.03700
