data_crystal

_cell_length_a 21.24366
_cell_length_b 19.58925
_cell_length_c 43.75374
_cell_angle_alpha 95.45767
_cell_angle_beta  95.45820
_cell_angle_gamma 126.10940

_symmetry_space_group_name_	'P 1'
_symmetry_space_group_name_H-M	'P 1'

loop_
_symmetry_equiv_pos_as_xyz
  x,y,z

loop_
_atom_site_label
_atom_site_type_symbol
_atom_site_fract_x
_atom_site_fract_y
_atom_site_fract_z
_atom_site_charge
C 	C 	0.95006 0.02863 0.98248 0.10500
N 	N 	0.02996 0.07644 0.98441 -0.12800
C 	C 	0.06729 0.03991 0.98903 0.12000
C 	C 	0.06599 0.03926 0.48898 0.12000
N 	N 	0.02860 0.07573 0.48438 -0.12700
Cu	Cu	0.72374 0.32216 0.96442 0.92800
Cu	Cu	0.72183 0.24460 0.02798 0.87100
Cu	Cu	0.60497 0.27650 0.00813 0.89600
Cu	Cu	0.58286 0.33330 0.94955 0.89600
C 	C 	0.65963 0.30687 0.90105 0.28800
C 	C 	0.66363 0.29241 0.07504 0.28800
O 	O 	0.60167 0.25808 0.96400 -0.63900
O 	O 	0.71999 0.32945 0.00966 -0.64100
O 	O 	0.77891 0.26751 0.96218 -0.36800
O 	O 	0.69936 0.17022 0.99087 -0.44300
O 	O 	0.63375 0.34941 0.91211 -0.38100
O 	O 	0.49172 0.21931 0.00346 -0.38300
C 	C 	0.45037 0.23425 0.98461 0.31400
O 	O 	0.48251 0.28866 0.96522 -0.39200
O 	O 	0.70617 0.29781 0.91961 -0.35900
C 	C 	0.75272 0.19681 0.97308 0.31300
O 	O 	0.60539 0.27461 0.05332 -0.38300
O 	O 	0.72406 0.29596 0.06762 -0.42000
H 	H 	0.56398 0.19726 0.95319 0.16500
H 	H 	0.75618 0.38808 0.02251 0.17400
Cu	Cu	0.72206 0.32103 0.46422 0.92800
Cu	Cu	0.72056 0.24401 0.52790 0.87200
Cu	Cu	0.60384 0.27612 0.50813 0.89600
Cu	Cu	0.58131 0.33246 0.44949 0.89600
C 	C 	0.65720 0.30496 0.40089 0.28800
C 	C 	0.66351 0.29335 0.57502 0.28800
O 	O 	0.60009 0.25725 0.46397 -0.64000
O 	O 	0.71875 0.32878 0.50949 -0.64000
O 	O 	0.77709 0.26621 0.46197 -0.36800
O 	O 	0.69784 0.16932 0.49084 -0.44300
O 	O 	0.63174 0.34796 0.41195 -0.38100
O 	O 	0.49064 0.21917 0.50363 -0.38200
C 	C 	0.44915 0.23380 0.48470 0.31200
O 	O 	0.48128 0.28830 0.46535 -0.39200
O 	O 	0.70406 0.29623 0.41940 -0.35900
C 	C 	0.75105 0.19570 0.47298 0.31300
O 	O 	0.60475 0.27461 0.55336 -0.38300
O 	O 	0.72344 0.29592 0.56755 -0.42000
H 	H 	0.56226 0.19638 0.45324 0.16400
H 	H 	0.75510 0.38748 0.52228 0.17400
C 	C 	0.65386 0.28998 0.86699 -0.08300
C 	C 	0.72149 0.31527 0.85445 0.01800
C 	C 	0.71890 0.31204 0.82224 -0.06500
C 	C 	0.64861 0.28295 0.80234 0.02700
C 	C 	0.58009 0.25385 0.81467 -0.06500
C 	C 	0.58271 0.25748 0.84686 0.01400
C 	C 	0.64809 0.28814 0.76897 0.00100
C 	C 	0.68231 0.36776 0.75966 -0.03700
C 	C 	0.68146 0.37283 0.72799 -0.03700
C 	C 	0.64673 0.29833 0.70537 0.00000
C 	C 	0.61189 0.21854 0.71470 -0.03800
C 	C 	0.61239 0.21347 0.74638 -0.03800
C 	C 	0.65052 0.30447 0.67212 0.02700
C 	C 	0.72431 0.35463 0.66286 -0.06600
C 	C 	0.72833 0.35476 0.63118 0.01400
C 	C 	0.65857 0.30410 0.60836 -0.08800
C 	C 	0.58456 0.25698 0.61771 0.01300
C 	C 	0.58059 0.25717 0.64946 -0.06500
H 	H 	0.52542 0.23069 0.79941 0.04800
H 	H 	0.53000 0.23710 0.85625 0.02400
H 	H 	0.58541 0.16074 0.69746 0.03800
H 	H 	0.58557 0.15171 0.75339 0.04000
H 	H 	0.53024 0.21785 0.60040 0.03800
H 	H 	0.52328 0.21919 0.65640 0.04800
C 	C 	0.65778 0.30148 0.10832 -0.08800
C 	C 	0.58338 0.25318 0.11733 0.01300
C 	C 	0.57861 0.25155 0.14897 -0.06500
C 	C 	0.64807 0.29822 0.17180 0.02700
C 	C 	0.72219 0.34962 0.16296 -0.06600
C 	C 	0.72707 0.35154 0.13140 0.01400
C 	C 	0.64346 0.28993 0.20476 0.00000
C 	C 	0.62472 0.33552 0.22341 -0.03700
C 	C 	0.62405 0.33078 0.25508 -0.03700
C 	C 	0.64175 0.28001 0.26829 0.00100
C 	C 	0.65943 0.23346 0.24948 -0.03800
C 	C 	0.66043 0.23855 0.21785 -0.03800
C 	C 	0.64333 0.27709 0.30195 0.02700
C 	C 	0.57551 0.24969 0.31462 -0.06500
C 	C 	0.57911 0.25481 0.34690 0.01400
C 	C 	0.65044 0.28697 0.36680 -0.08300
C 	C 	0.71727 0.31048 0.35398 0.01800
C 	C 	0.71379 0.30582 0.32169 -0.06400
H 	H 	0.52941 0.21443 0.09983 0.03800
H 	H 	0.52108 0.21224 0.15566 0.04800
H 	H 	0.77606 0.38674 0.18052 0.04700
H 	H 	0.78479 0.39036 0.12483 0.03200
H 	H 	0.61167 0.37543 0.21348 0.04200
H 	H 	0.61067 0.36727 0.26943 0.04200
H 	H 	0.67269 0.19370 0.25939 0.03900
H 	H 	0.67483 0.20302 0.20355 0.03800
H 	H 	0.52051 0.22613 0.29953 0.04700
H 	H 	0.52694 0.23563 0.35651 0.02400
H 	H 	0.77271 0.33554 0.36908 0.04100
H 	H 	0.76641 0.32684 0.31212 0.04800
C 	C 	0.79475 0.16105 0.47240 -0.12800
C 	C 	0.83145 0.13192 0.47334 0.05800
C 	C 	0.87382 0.09720 0.47571 -0.01900
C 	C 	0.90887 0.06645 0.47848 -0.02200
C 	C 	0.14943 0.08730 0.48909 -0.02100
C 	C 	0.21895 0.12349 0.48891 -0.00900
C 	C 	0.29964 0.16263 0.48821 0.05900
C 	C 	0.36807 0.19495 0.48702 -0.10600
C 	C 	0.91034 0.06736 0.97857 -0.02200
C 	C 	0.87536 0.09818 0.97578 -0.01900
C 	C 	0.83306 0.13298 0.97341 0.05800
C 	C 	0.79641 0.16215 0.97248 -0.12700
C 	C 	0.36929 0.19542 0.98691 -0.10600
C 	C 	0.30086 0.16311 0.98812 0.05900
C 	C 	0.22019 0.12398 0.98886 -0.00900
C 	C 	0.15070 0.08784 0.98908 -0.02100
N 	N 	0.02485 0.95601 0.99162 -0.12000
C 	C 	0.94525 0.90825 0.98959 0.12300
N 	N 	0.90773 0.94443 0.98495 -0.12700
C 	C 	0.94866 0.02780 0.48238 0.10600
N 	N 	0.90637 0.94353 0.48475 -0.12700
C 	C 	0.94395 0.90741 0.48937 0.12300
N 	N 	0.02358 0.95529 0.49148 -0.12000
O 	O 	0.77565 0.44949 0.96768 -0.36100
C 	C 	0.74743 0.48538 0.98191 0.30500
O 	O 	0.67446 0.43731 0.98675 -0.39200
O 	O 	0.77411 0.44837 0.46734 -0.36100
C 	C 	0.74613 0.48448 0.48161 0.30500
O 	O 	0.67326 0.43661 0.48655 -0.39300
H 	H 	0.77679 0.34058 0.86973 0.04100
H 	H 	0.77196 0.33407 0.81285 0.04900
H 	H 	0.70947 0.42563 0.77697 0.04300
H 	H 	0.70820 0.43465 0.72103 0.04100
H 	H 	0.77862 0.39183 0.68018 0.04600
H 	H 	0.78577 0.39262 0.62433 0.03200
C 	C 	0.89908 0.81705 0.48941 -0.02200
C 	C 	0.86338 0.74109 0.48889 -0.00900
C 	C 	0.82286 0.65204 0.48747 0.05900
C 	C 	0.78829 0.57571 0.48536 -0.11000
C 	C 	0.90032 0.81792 0.98970 -0.02100
C 	C 	0.86455 0.74197 0.98922 -0.00900
C 	C 	0.82400 0.65292 0.98782 0.05900
C 	C 	0.78945 0.57659 0.98571 -0.10900
