data_crystal

_cell_length_a 18.72304
_cell_length_b 18.83147
_cell_length_c 23.37997
_cell_angle_alpha 95.46252
_cell_angle_beta  95.46543
_cell_angle_gamma 126.34376

_symmetry_space_group_name_	'P 1'
_symmetry_space_group_name_H-M	'P 1'

loop_
_symmetry_equiv_pos_as_xyz
  x,y,z

loop_
_atom_site_label
_atom_site_type_symbol
_atom_site_fract_x
_atom_site_fract_y
_atom_site_fract_z
_atom_site_charge
C 	C 	0.95550 0.04365 0.00970 0.03800
C 	C 	0.04781 0.08971 0.00805 -0.04800
C 	C 	0.08392 0.04219 0.00391 0.03700
H 	H 	0.09068 0.16144 0.00900 0.07200
C 	C 	0.04922 0.01364 0.44251 0.05600
C 	C 	0.00366 0.05130 0.43770 -0.09300
H 	H 	0.04089 0.12191 0.43561 0.08000
Cu	Cu	0.62241 0.21241 0.01606 0.93200
Cu	Cu	0.69821 0.21435 0.89480 0.87700
Cu	Cu	0.66557 0.34521 0.93337 0.90000
Cu	Cu	0.61056 0.37144 0.04539 0.90700
C 	C 	0.64196 0.28615 0.13523 0.28500
O 	O 	0.48802 0.15194 0.01255 -0.34200
C 	C 	0.64990 0.28093 0.80789 0.28800
O 	O 	0.68792 0.34996 0.01624 -0.63000
O 	O 	0.61019 0.21528 0.93100 -0.63900
O 	O 	0.68773 0.15778 0.01881 -0.33700
O 	O 	0.78297 0.25132 0.96330 -0.42700
O 	O 	0.59576 0.31368 0.11500 -0.36400
O 	O 	0.72649 0.47319 0.94181 -0.36600
C 	C 	0.72188 0.52130 0.98412 0.30400
C 	C 	0.44955 0.18527 0.98912 0.29900
O 	O 	0.50037 0.26615 0.97733 -0.37700
O 	O 	0.65642 0.48300 0.01443 -0.35700
O 	O 	0.65173 0.23417 0.10026 -0.33200
C 	C 	0.76334 0.19483 0.99864 0.29200
O 	O 	0.66152 0.34334 0.84799 -0.35700
O 	O 	0.64063 0.21026 0.82182 -0.40100
H 	H 	0.75223 0.39296 0.03554 0.18400
H 	H 	0.54789 0.17382 0.90801 0.19100
Cu	Cu	0.74836 0.33805 0.43145 0.93000
Cu	Cu	0.74769 0.26322 0.55287 0.89300
Cu	Cu	0.61290 0.29038 0.51323 0.90200
Cu	Cu	0.58446 0.34369 0.40158 0.90100
C 	C 	0.67385 0.31760 0.31217 0.28400
O 	O 	0.80545 0.47110 0.43506 -0.34400
C 	C 	0.67751 0.30800 0.63907 0.28300
O 	O 	0.60930 0.26903 0.43063 -0.63700
O 	O 	0.74451 0.34931 0.51638 -0.63400
O 	O 	0.80622 0.27575 0.42902 -0.34600
O 	O 	0.71336 0.17973 0.48460 -0.42300
O 	O 	0.64387 0.36134 0.33237 -0.36900
O 	O 	0.48366 0.22558 0.50409 -0.35900
C 	C 	0.43412 0.23139 0.46351 0.31300
C 	C 	0.76952 0.50691 0.45831 0.30400
O 	O 	0.68829 0.45421 0.46994 -0.37300
O 	O 	0.47112 0.29492 0.43190 -0.37600
O 	O 	0.72741 0.30952 0.34723 -0.34000
C 	C 	0.77094 0.20107 0.44959 0.31100
O 	O 	0.61408 0.29450 0.59855 -0.34900
O 	O 	0.74967 0.31908 0.62565 -0.38800
H 	H 	0.56746 0.20504 0.41125 0.17100
H 	H 	0.78463 0.41123 0.53950 0.19600
C 	C 	0.66383 0.30222 0.69842 -0.02300
C 	C 	0.65561 0.29417 0.74848 -0.03100
C 	C 	0.65887 0.29214 0.19740 -0.01800
C 	C 	0.66826 0.30137 0.25002 -0.02400
C 	C 	0.81502 0.62718 0.40093 -0.01800
C 	C 	0.80780 0.60081 0.45553 -0.09300
C 	C 	0.82499 0.66044 0.50563 0.14100
Br	Br	0.81818 0.62796 0.58142 -0.21600
H 	H 	0.79929 0.58069 0.36195 0.07200
C 	C 	0.88910 0.10196 0.49357 -0.07400
C 	C 	0.86702 0.04345 0.44168 -0.02600
C 	C 	0.81633 0.03987 0.39129 0.08100
C 	C 	0.78813 0.09440 0.39344 -0.01000
C 	C 	0.81124 0.15359 0.44529 -0.10200
C 	C 	0.86330 0.15816 0.49526 0.14200
Br	Br	0.90411 0.24426 0.56539 -0.30200
H 	H 	0.92973 0.10646 0.53207 0.07500
H 	H 	0.74748 0.08996 0.35499 0.06600
C 	C 	0.20349 0.12626 0.50098 -0.08200
C 	C 	0.14770 0.07047 0.44737 -0.00200
C 	C 	0.18628 0.06745 0.39932 0.07300
C 	C 	0.28007 0.11919 0.40549 -0.01200
C 	C 	0.33596 0.17455 0.45918 -0.09800
C 	C 	0.29736 0.17880 0.50703 0.14700
Br	Br	0.37141 0.25924 0.57994 -0.19900
H 	H 	0.17379 0.12902 0.53792 0.08000
H 	H 	0.30964 0.11680 0.36838 0.05500
C 	C 	0.77768 0.65538 0.93923 -0.01100
C 	C 	0.77780 0.61906 0.98886 -0.10000
C 	C 	0.82860 0.67654 0.04334 0.14900
H 	H 	0.73837 0.61138 0.89729 0.07600
Br	Br	0.83581 0.62999 0.11151 -0.22700
C 	C 	0.89983 0.12050 0.05915 -0.08200
C 	C 	0.91428 0.09049 0.00734 0.01000
C 	C 	0.87872 0.09458 0.95303 0.07500
C 	C 	0.82802 0.12691 0.95082 -0.02500
C 	C 	0.81256 0.15609 0.00247 -0.08600
C 	C 	0.84953 0.15362 0.05700 0.14300
H 	H 	0.80033 0.12918 0.90875 0.03500
Br	Br	0.89730 0.05464 0.88119 -0.21600
C 	C 	0.20784 0.10089 0.94738 -0.09600
C 	C 	0.18031 0.08889 0.00167 0.01600
C 	C 	0.24094 0.10627 0.05140 0.07600
C 	C 	0.32721 0.13314 0.04622 -0.00400
C 	C 	0.35448 0.14426 0.99183 -0.11000
C 	C 	0.29432 0.12812 0.94220 0.14900
Br	Br	0.32744 0.13867 0.86649 -0.22600
H 	H 	0.16091 0.08605 0.90877 0.08900
H 	H 	0.37391 0.14755 0.08484 0.06600
Br	Br	0.83464 0.19756 0.12891 -0.20000
H 	H 	0.92662 0.11698 0.10107 0.08500
Br	Br	0.20695 0.09370 0.12685 -0.21200
C 	C 	0.84005 0.71241 0.39609 0.08800
C 	C 	0.85060 0.74598 0.50082 -0.07700
Br	Br	0.84765 0.74532 0.32041 -0.17900
C 	C 	0.82738 0.74826 0.94364 0.08800
C 	C 	0.91086 0.99912 0.43804 0.10000
Br	Br	0.11193 0.99458 0.32459 -0.16400
C 	C 	0.02773 0.94919 0.00091 -0.03000
C 	C 	0.93616 0.90349 0.00277 0.06200
C 	C 	0.90034 0.95078 0.00808 -0.04100
H 	H 	0.05525 0.91233 0.99689 0.06500
H 	H 	0.82910 0.91500 0.00896 0.07700
C 	C 	0.86296 0.90758 0.44132 -0.07800
C 	C 	0.90864 0.86930 0.44444 0.06700
C 	C 	0.00182 0.92297 0.44596 -0.05400
H 	H 	0.79127 0.86689 0.44187 0.08100
H 	H 	0.03743 0.89406 0.44975 0.07700
C 	C 	0.85982 0.77306 0.44639 -0.00500
H 	H 	0.86696 0.79274 0.53981 0.08200
Br	Br	0.78636 0.96222 0.31902 -0.17500
C 	C 	0.87762 0.76931 0.04778 -0.06600
C 	C 	0.87755 0.80557 0.99819 -0.01600
Br	Br	0.82713 0.79581 0.87457 -0.19000
H 	H 	0.91737 0.81346 0.08962 0.09000
