data_crystal

_cell_length_a 15.90398
_cell_length_b 14.85241
_cell_length_c 38.85651
_cell_angle_alpha 89.89161
_cell_angle_beta  89.89338
_cell_angle_gamma 119.54028

_symmetry_space_group_name_	'P 1'
_symmetry_space_group_name_H-M	'P 1'

loop_
_symmetry_equiv_pos_as_xyz
  x,y,z

loop_
_atom_site_label
_atom_site_type_symbol
_atom_site_fract_x
_atom_site_fract_y
_atom_site_fract_z
_atom_site_charge
O 	O 	0.05342 0.19635 0.22211 -0.38100
C 	C 	0.15642 0.55681 0.54181 0.08900
S 	S 	0.09904 0.43349 0.72076 -0.05500
S 	S 	0.14158 0.90927 0.63177 -0.03400
O 	O 	0.06167 0.35042 0.06668 -0.11500
Ni	Ni	0.05930 0.92762 0.72935 1.09800
Ni	Ni	0.07164 0.14559 0.75661 1.11100
O 	O 	0.14976 0.04670 0.69778 -0.38100
C 	C 	0.11906 0.18020 0.20646 0.30100
C 	C 	0.07926 0.14558 0.30243 0.26400
C 	C 	0.00506 0.83184 0.29970 0.27500
C 	C 	0.97023 0.81548 0.20631 0.30200
Ni	Ni	0.07964 0.00221 0.25125 1.11700
O 	O 	0.04870 0.87026 0.22548 -0.40700
O 	O 	0.12933 0.13624 0.27732 -0.37800
S 	S 	0.23733 0.38965 0.24614 -0.03100
C 	C 	0.98105 0.76955 0.17456 -0.04500
C 	C 	0.98582 0.67808 0.17631 0.00700
C 	C 	0.12085 0.17228 0.33778 -0.05200
H 	H 	0.02168 0.67123 0.27515 0.04300
C 	C 	0.11914 0.51904 0.50867 -0.08400
H 	H 	0.12238 0.45061 0.75495 0.03600
H 	H 	0.19404 0.00374 0.61608 0.06400
C 	C 	0.06058 0.44312 0.96357 -0.05600
C 	C 	0.06961 0.44201 0.99951 -0.08100
O 	O 	0.12222 0.10241 0.79785 -0.37600
O 	O 	0.03529 0.21776 0.72069 -0.40900
C 	C 	0.18055 0.56658 0.47840 0.32200
O 	O 	0.05817 0.93231 0.29675 -0.39800
C 	C 	0.02675 0.65122 0.14915 0.01700
S 	S 	0.02417 0.53137 0.15014 -0.04300
C 	C 	0.06228 0.16998 0.36523 -0.06400
C 	C 	0.10444 0.22073 0.39609 0.05200
S 	S 	0.03014 0.21926 0.42980 -0.01200
C 	C 	0.04513 0.77387 0.31785 -0.07000
C 	C 	0.05374 0.69589 0.30040 -0.02900
C 	C 	0.12459 0.48853 0.57020 -0.01500
H 	H 	0.14905 0.51915 0.59578 0.05800
N 	N 	0.99328 0.36683 0.05552 -0.01000
O 	O 	0.01429 0.49160 0.89492 -0.13300
O 	O 	0.11711 0.08986 0.20789 -0.39200
C 	C 	0.00281 0.82484 0.14336 -0.01700
C 	C 	0.06980 0.72070 0.12140 -0.07100
S 	S 	0.11105 0.55063 0.29318 -0.03900
O 	O 	0.19305 0.73111 0.53822 -0.08000
N 	N 	0.22011 0.66483 0.54709 -0.02000
H 	H 	0.31936 0.39658 0.26010 0.03900
C 	C 	0.20543 0.28337 0.39818 -0.06800
O 	O 	0.15933 0.99121 0.76927 -0.38900
C 	C 	0.04798 0.80077 0.11686 -0.00900
S 	S 	0.97284 0.92286 0.13711 0.01400
C 	C 	0.14262 0.02591 0.79826 0.29700
C 	C 	0.21977 0.12972 0.71152 0.30800
O 	O 	0.20116 0.18873 0.73221 -0.36500
O 	O 	0.21164 0.51271 0.46280 -0.40000
O 	O 	0.21717 0.66524 0.47041 -0.35200
C 	C 	0.15422 0.52953 0.01591 0.29900
O 	O 	0.14554 0.61139 0.02375 -0.37200
C 	C 	0.23602 0.36890 0.20147 0.04300
C 	C 	0.19805 0.26800 0.18810 -0.07800
C 	C 	0.10558 0.65131 0.31508 0.04200
H 	H 	0.12430 0.48295 0.94770 0.07400
C 	C 	0.08726 0.80580 0.35058 0.03400
H 	H 	0.10595 0.06725 0.86345 0.05400
C 	C 	0.22067 0.21050 0.34410 0.03200
H 	H 	0.05100 0.01707 0.14419 0.02800
H 	H 	0.07266 0.84915 0.09405 0.04600
C 	C 	0.26253 0.26852 0.37381 -0.01800
S 	S 	0.29230 0.17971 0.31726 -0.02800
H 	H 	0.14121 0.99118 0.37060 0.04700
O 	O 	0.29965 0.69578 0.56434 -0.09500
C 	C 	0.24388 0.38808 0.41192 0.31000
C 	C 	0.19861 0.63559 0.36541 0.30600
Ni	Ni	0.30295 0.72667 0.42759 1.12400
O 	O 	0.23680 0.45464 0.39241 -0.37700
O 	O 	0.30666 0.42138 0.43749 -0.35600
O 	O 	0.27011 0.62936 0.35058 -0.35900
O 	O 	0.19064 0.62777 0.39871 -0.38000
C 	C 	0.15578 0.72828 0.10419 0.28900
C 	C 	0.30254 0.52510 0.11943 0.29200
Ni	Ni	0.26142 0.75458 0.03494 1.11400
O 	O 	0.24101 0.53448 0.01448 -0.35700
O 	O 	0.28300 0.50354 0.08634 -0.37100
O 	O 	0.18611 0.78160 0.07470 -0.36600
O 	O 	0.21340 0.70614 0.12284 -0.37200
H 	H 	0.23527 0.62771 0.07407 0.17000
C 	C 	0.28223 0.43959 0.14382 -0.06300
C 	C 	0.27385 0.45369 0.17909 -0.02700
C 	C 	0.21965 0.25558 0.15410 -0.01800
C 	C 	0.26565 0.34167 0.13225 0.03600
H 	H 	0.29465 0.52997 0.18902 0.05100
H 	H 	0.19962 0.17922 0.14450 0.04900
C 	C 	0.15114 0.68664 0.34726 -0.08200
C 	C 	0.14246 0.76496 0.36446 -0.01200
S 	S 	0.06676 0.89242 0.37539 -0.02100
H 	H 	0.19059 0.59164 0.27208 0.04200
H 	H 	0.17682 0.79235 0.38925 0.03000
O 	O 	0.34819 0.93445 0.54806 -0.08800
O 	O 	0.34209 0.93576 0.49033 -0.09400
C 	C 	0.32045 0.16031 0.70250 -0.08100
C 	C 	0.34871 0.08535 0.69538 0.06100
S 	S 	0.28053 0.95728 0.71040 -0.08900
H 	H 	0.32288 0.94724 0.73970 0.04900
C 	C 	0.17324 0.00100 0.83153 -0.06800
C 	C 	0.15930 0.04214 0.86221 -0.01500
O 	O 	0.99620 0.14151 0.29561 -0.33500
O 	O 	0.25233 0.37323 0.93908 -0.09600
Ni	Ni	0.35098 0.56252 0.46099 1.12200
O 	O 	0.34563 0.24912 0.44949 -0.09500
H 	H 	0.28491 0.08790 0.32771 0.04400
H 	H 	0.34031 0.31490 0.37516 0.06600
O 	O 	0.29853 0.68460 0.06657 -0.71700
N 	N 	0.38509 0.93249 0.51836 -0.01500
H 	H 	0.36807 0.32318 0.70500 0.05500
H 	H 	0.28293 0.57275 0.94433 0.06800
C 	C 	0.23340 0.95582 0.83253 0.03800
C 	C 	0.22114 0.06048 0.89007 0.03000
S 	S 	0.20505 0.11402 0.92817 0.01900
H 	H 	0.14931 0.03601 0.95072 0.04300
O 	O 	0.34716 0.62248 0.13115 -0.37900
S 	S 	0.21353 0.85382 0.80480 -0.04600
Ni	Ni	0.35958 0.58696 0.37828 1.11300
O 	O 	0.41098 0.82010 0.45768 -0.37200
O 	O 	0.39517 0.68758 0.49415 -0.35800
O 	O 	0.36445 0.64508 0.42202 -0.71000
Ni	Ni	0.35050 0.75002 0.10932 1.12400
Ni	Ni	0.35467 0.60710 0.04924 1.12300
O 	O 	0.31974 0.73733 0.98835 -0.36300
S 	S 	0.31444 0.32866 0.09313 0.00300
C 	C 	0.38688 0.26486 0.69773 -0.01700
H 	H 	0.30275 0.05004 0.06240 0.06100
O 	O 	0.39555 0.31789 0.01515 -0.10500
O 	O 	0.27227 0.15418 0.01663 -0.10800
C 	C 	0.35919 0.60083 0.94125 -0.02700
N 	N 	0.32174 0.43161 0.91798 -0.02200
O 	O 	0.32414 0.39815 0.88728 -0.09900
C 	C 	0.30222 0.04728 0.88588 -0.05200
C 	C 	0.30019 0.98199 0.85943 -0.03600
H 	H 	0.14328 0.76223 0.81847 0.04100
O 	O 	0.38215 0.81163 0.38534 -0.36100
O 	O 	0.36314 0.89163 0.10059 -0.36800
C 	C 	0.43767 0.78848 0.48518 0.29900
O 	O 	0.45507 0.53113 0.39484 -0.35500
H 	H 	0.43298 0.69803 0.42403 0.16800
C 	C 	0.39996 0.94478 0.07221 0.31600
C 	C 	0.39859 0.72967 0.98730 0.32400
O 	O 	0.38367 0.89710 0.04261 -0.36400
H 	H 	0.39175 0.88449 0.30550 0.04500
C 	C 	0.48230 0.95144 0.51674 0.09600
N 	N 	0.42839 0.30982 0.43488 -0.02000
H 	H 	0.48018 0.31965 0.50096 0.06700
C 	C 	0.43601 0.11480 0.67823 -0.02800
H 	H 	0.45455 0.05653 0.67061 0.05800
C 	C 	0.38066 0.09678 0.06038 -0.02500
N 	N 	0.36141 0.22142 0.02392 -0.02100
C 	C 	0.39092 0.53524 0.92759 0.09400
H 	H 	0.35502 0.95890 0.85826 0.05600
O 	O 	0.45471 0.27748 0.40804 -0.10000
C 	C 	0.39655 0.13114 0.89714 0.28900
O 	O 	0.41740 0.22623 0.88877 -0.35900
C 	C 	0.46422 0.81593 0.37447 0.28300
C 	C 	0.50265 0.55039 0.42504 0.29900
O 	O 	0.46624 0.73182 0.36438 -0.36800
O 	O 	0.48618 0.59888 0.44999 -0.39000
O 	O 	0.43601 0.72124 0.01598 -0.37600
H 	H 	0.40648 0.34627 0.09848 0.04300
S 	S 	0.46058 0.97545 0.31979 -0.02600
C 	C 	0.50147 0.86999 0.50956 -0.06100
H 	H 	0.54250 0.11319 0.52793 0.06400
C 	C 	0.52618 0.38868 0.48612 -0.02900
C 	C 	0.49867 0.39934 0.45270 0.09600
C 	C 	0.47556 0.29482 0.68197 0.04300
C 	C 	0.49762 0.21862 0.66979 -0.06600
C 	C 	0.42216 0.18937 0.04129 0.09000
C 	C 	0.42572 0.69648 0.95544 -0.08400
C 	C 	0.43923 0.05731 0.07234 -0.07200
O 	O 	0.47804 0.65760 0.07755 -0.36900
C 	C 	0.55825 0.05075 0.52386 -0.02100
O 	O 	0.48634 0.80934 0.09327 -0.37800
C 	C 	0.49068 0.56972 0.92576 -0.06900
O 	O 	0.46547 0.10882 0.90614 -0.35900
C 	C 	0.55294 0.49361 0.43492 -0.07300
O 	O 	0.57476 0.30657 0.61821 -0.37500
C 	C 	0.61910 0.45825 0.49802 -0.07000
C 	C 	0.52454 0.73777 0.94756 0.09900
C 	C 	0.52598 0.49532 0.92229 0.30400
C 	C 	0.57173 0.24492 0.64294 0.29300
C 	C 	0.52616 0.75099 0.09128 0.31000
S 	S 	0.55776 0.42794 0.67768 -0.06300
C 	C 	0.04884 0.41369 0.50540 -0.03800
O 	O 	0.52005 0.19620 0.97604 -0.36900
H 	H 	0.52419 0.30861 0.93350 0.17400
C 	C 	0.52242 0.24078 0.03477 -0.06900
O 	O 	0.53279 0.46348 0.89077 -0.35100
S 	S 	0.54869 0.58671 0.13702 -0.02200
C 	C 	0.55021 0.91501 0.36751 -0.06900
C 	C 	0.55653 0.95990 0.33523 0.04400
C 	C 	0.59480 0.88593 0.51558 -0.03100
O 	O 	0.56488 0.47687 0.94983 -0.36700
H 	H 	0.61316 0.46254 0.70678 0.05100
C 	C 	0.53996 0.12374 0.07380 0.10000
C 	C 	0.55680 0.67356 0.93306 -0.02900
C 	C 	0.65560 0.42898 0.52862 0.30200
C 	C 	0.55476 0.27139 0.99929 0.30600
O 	O 	0.57254 0.91597 0.95160 -0.10800
O 	O 	0.65644 0.46972 0.55979 -0.35900
Ni	Ni	0.55571 0.33938 0.87694 1.11900
H 	H 	0.61078 0.82413 0.51058 0.06500
H 	H 	0.59742 0.54505 0.12033 0.04500
C 	C 	0.58095 0.21848 0.05603 -0.02800
N 	N 	0.59290 0.84224 0.95675 -0.01900
O 	O 	0.58519 0.32367 0.92214 -0.71900
O 	O 	0.57250 0.22423 0.85282 -0.37300
O 	O 	0.57680 0.04631 0.12052 -0.10400
S 	S 	0.58562 0.45803 0.81366 -0.09800
C 	C 	0.65055 0.55367 0.44377 -0.02200
H 	H 	0.58773 0.01485 0.84168 0.05300
Ni	Ni	0.59096 0.20204 0.93300 1.12800
C 	C 	0.04268 0.39037 0.56661 -0.11500
H 	H 	0.66547 0.64937 0.57386 0.03300
C 	C 	0.65110 0.06710 0.53055 -0.05600
N 	N 	0.60100 0.09147 0.09057 -0.02100
H 	H 	0.06094 0.75682 0.57829 0.07300
O 	O 	0.63342 0.36351 0.99331 -0.36800
O 	O 	0.64404 0.22323 0.64783 -0.36100
C 	C 	0.62033 0.72246 0.13759 0.04000
C 	C 	0.61712 0.78359 0.11037 -0.07400
C 	C 	0.63340 0.97830 0.31337 -0.02800
H 	H 	0.63292 0.00140 0.28693 0.06300
H 	H 	0.63352 0.70263 0.92934 0.06700
H 	H 	0.62556 0.85429 0.78787 0.04100
H 	H 	0.60319 0.38142 0.80256 0.03700
C 	C 	0.68466 0.53553 0.47498 0.09600
O 	O 	0.69331 0.36867 0.52360 -0.37200
H 	H 	0.67086 0.29179 0.57778 0.17800
C 	C 	0.63630 0.92867 0.38222 -0.01800
H 	H 	0.63655 0.90829 0.40903 0.05000
S 	S 	0.65632 0.26569 0.73027 -0.02100
C 	C 	0.66866 0.98261 0.52736 0.09300
H 	H 	0.65455 0.28472 0.76459 0.04100
C 	C 	0.98562 0.38239 0.01944 0.12300
O 	O 	0.83374 0.68621 0.48521 -0.08600
C 	C 	0.96907 0.40260 0.94827 0.13500
N 	N 	0.96134 0.40576 0.91163 -0.00900
O 	O 	0.91336 0.78400 0.29032 -0.34800
O 	O 	0.90682 0.32112 0.89476 -0.08700
S 	S 	0.92069 0.91071 0.83201 -0.03000
H 	H 	0.96192 0.63060 0.19936 0.05000
H 	H 	0.00558 0.29428 0.42381 0.04600
H 	H 	0.86956 0.95316 0.84632 0.05400
O 	O 	0.88161 0.78010 0.21893 -0.38200
O 	O 	0.95251 0.97902 0.24644 -0.70400
H 	H 	0.95109 0.97104 0.22133 0.14700
H 	H 	0.02308 0.38166 0.48009 0.06100
O 	O 	0.99936 0.00704 0.74002 -0.66700
H 	H 	0.97794 0.98004 0.76334 0.12700
C 	C 	0.73272 0.53207 0.87663 0.31700
C 	C 	0.64524 0.20961 0.86020 0.31100
C 	C 	0.79258 0.34427 0.95534 0.31900
Ni	Ni	0.67327 0.44292 0.94739 1.12300
O 	O 	0.78915 0.42350 0.94165 -0.36900
O 	O 	0.69912 0.43678 0.86805 -0.38500
O 	O 	0.72852 0.55406 0.90918 -0.36700
O 	O 	0.67497 0.21643 0.89196 -0.36400
O 	O 	0.71228 0.25731 0.96200 -0.36600
C 	C 	0.81430 0.42003 0.66806 0.31300
C 	C 	0.86975 0.60566 0.57493 0.30100
C 	C 	0.95733 0.37624 0.58493 0.35700
C 	C 	0.71421 0.15678 0.55218 0.29800
Ni	Ni	0.70151 0.43883 0.60854 1.11200
Ni	Ni	0.76699 0.26506 0.61738 1.12500
Ni	Ni	0.81293 0.39417 0.54805 1.12600
O 	O 	0.89348 0.28525 0.59710 -0.35500
O 	O 	0.73906 0.43106 0.66075 -0.36000
O 	O 	0.85192 0.39326 0.64369 -0.38000
O 	O 	0.78553 0.24453 0.53803 -0.34400
O 	O 	0.83869 0.56078 0.60433 -0.37000
O 	O 	0.85121 0.54928 0.54688 -0.33800
O 	O 	0.69959 0.14621 0.58582 -0.36600
O 	O 	0.92856 0.44104 0.57735 -0.38600
O 	O 	0.73272 0.34503 0.58755 -0.71200
C 	C 	0.94993 0.88913 0.66356 0.29900
C 	C 	0.86859 0.79072 0.76132 0.28300
C 	C 	0.94435 0.19106 0.71499 0.32700
C 	C 	0.86824 0.07771 0.78246 0.29400
Ni	Ni	0.87463 0.96481 0.72085 1.11500
O 	O 	0.88436 0.09803 0.70299 -0.37400
O 	O 	0.97490 0.84529 0.68772 -0.35500
O 	O 	0.90825 0.94395 0.67174 -0.36300
O 	O 	0.96336 0.13228 0.78810 -0.35900
O 	O 	0.82804 0.98774 0.76620 -0.40100
O 	O 	0.95867 0.80923 0.75996 -0.35500
O 	O 	0.83031 0.81473 0.73485 -0.37000
C 	C 	0.77906 0.96264 0.30008 0.29400
C 	C 	0.78475 0.92684 0.20093 0.27000
Ni	Ni	0.92782 0.09094 0.24798 1.12200
Ni	Ni	0.85048 0.84425 0.25911 1.12000
O 	O 	0.79562 0.01884 0.27241 -0.36700
O 	O 	0.80784 0.89301 0.30167 -0.36900
O 	O 	0.84556 0.02817 0.20342 -0.34800
O 	O 	0.75749 0.86802 0.22910 -0.36700
C 	C 	0.73923 0.87847 0.16722 -0.06100
C 	C 	0.68142 0.76995 0.16567 -0.02600
C 	C 	0.68848 0.88838 0.10874 -0.01000
C 	C 	0.74820 0.93723 0.13712 0.02900
S 	S 	0.83620 0.06896 0.13327 0.02400
H 	H 	0.79756 0.12895 0.14374 0.05900
H 	H 	0.68156 0.72244 0.18685 0.05100
H 	H 	0.69216 0.93399 0.08640 0.07100
H 	H 	0.93605 0.45568 0.13872 0.07300
C 	C 	0.71291 0.94315 0.36066 0.03700
C 	C 	0.70770 0.96022 0.32513 -0.06600
S 	S 	0.81206 0.93735 0.37825 -0.00900
H 	H 	0.79450 0.83730 0.37739 0.05400
H 	H 	0.98487 0.13431 0.36194 0.08800
N 	N 	0.75975 0.99321 0.53723 -0.02400
O 	O 	0.78529 0.00738 0.56941 -0.07300
O 	O 	0.80858 0.97086 0.51530 -0.08200
C 	C 	0.02523 0.34731 0.53380 0.07400
N 	N 	0.97375 0.23717 0.52944 -0.00600
O 	O 	0.91974 0.19627 0.50252 -0.07400
O 	O 	0.98469 0.17798 0.55159 -0.05400
H 	H 	0.69800 0.62002 0.42808 0.06400
N 	N 	0.78642 0.58643 0.48103 -0.02000
O 	O 	0.83378 0.53759 0.47474 -0.09900
C 	C 	0.83484 0.40014 0.70340 -0.07600
C 	C 	0.93335 0.44346 0.71142 -0.02700
C 	C 	0.97305 0.37772 0.71621 0.07200
C 	C 	0.90991 0.26865 0.71796 -0.09000
C 	C 	0.80980 0.23245 0.72114 -0.02400
C 	C 	0.77400 0.30136 0.71698 0.03000
H 	H 	0.98114 0.52560 0.70743 0.06100
H 	H 	0.76059 0.15198 0.72732 0.04500
C 	C 	0.91215 0.71868 0.57356 -0.02200
C 	C 	0.00665 0.77663 0.58608 -0.05000
C 	C 	0.02500 0.84371 0.61404 0.02400
C 	C 	0.94971 0.85858 0.62713 -0.03800
C 	C 	0.86620 0.82559 0.60716 -0.01300
C 	C 	0.84947 0.75912 0.57921 0.02700
S 	S 	0.74403 0.71654 0.55469 0.01800
H 	H 	0.81150 0.84509 0.61473 0.05800
C 	C 	0.89380 0.34289 0.00420 -0.02400
C 	C 	0.88560 0.35952 0.96909 -0.07500
H 	H 	0.82930 0.30352 0.01998 0.07600
O 	O 	0.92893 0.36360 0.07697 -0.10100
H 	H 	0.65889 0.26573 0.05432 0.07100
O 	O 	0.68323 0.11213 0.07676 -0.09900
O 	O 	0.67579 0.86385 0.97003 -0.09600
C 	C 	0.68867 0.17640 0.83350 -0.07500
C 	C 	0.65576 0.07048 0.82993 -0.01800
C 	C 	0.71422 0.03601 0.81450 0.04900
C 	C 	0.80531 0.10923 0.80058 -0.07200
C 	C 	0.83590 0.21508 0.80305 -0.01800
C 	C 	0.77678 0.24863 0.81819 0.04600
S 	S 	0.67716 0.90295 0.81676 -0.02900
S 	S 	0.81252 0.38110 0.81676 -0.02200
H 	H 	0.86663 0.43013 0.84511 0.07800
H 	H 	0.90539 0.27159 0.79252 0.05500
C 	C 	0.74533 0.60751 0.84942 -0.08600
C 	C 	0.81575 0.71107 0.85341 -0.01000
C 	C 	0.84521 0.77806 0.82515 0.03600
C 	C 	0.80997 0.73916 0.79195 -0.06800
C 	C 	0.73080 0.63991 0.78874 -0.02500
C 	C 	0.69567 0.57487 0.81746 0.05600
H 	H 	0.84911 0.73918 0.87829 0.05600
H 	H 	0.69883 0.61169 0.76367 0.05200
