data_crystal

_cell_length_a 43.67261
_cell_length_b 40.76501
_cell_length_c 30.75258
_cell_angle_alpha 89.95719
_cell_angle_beta  89.93245
_cell_angle_gamma 90.49090

_symmetry_space_group_name_	'P 1'
_symmetry_space_group_name_H-M	'P 1'

loop_
_symmetry_equiv_pos_as_xyz
  x,y,z

loop_
_atom_site_label
_atom_site_type_symbol
_atom_site_fract_x
_atom_site_fract_y
_atom_site_fract_z
_atom_site_charge
Zn	Zn	0.48792 0.47419 0.01182 1.22300
C 	C 	0.50383 0.54307 0.00748 0.32900
O 	O 	0.51376 0.45834 0.05939 -0.47100
O 	O 	0.48261 0.54701 0.03731 -0.44400
O 	O 	0.52262 0.50670 0.09312 -0.48700
C 	C 	0.42869 0.49536 0.03725 0.34900
O 	O 	0.44747 0.49265 0.00422 -0.45000
O 	O 	0.43937 0.49624 0.07712 -0.50200
C 	C 	0.53258 0.47838 0.07933 0.34200
O 	O 	0.46386 0.42243 0.00900 -0.32600
Zn	Zn	0.47906 0.51641 0.09054 1.17300
O 	O 	0.51180 0.51345 0.99507 -0.42300
C 	C 	0.48035 0.41745 0.97460 0.30300
O 	O 	0.49789 0.44177 0.96323 -0.37400
Zn	Zn	0.42280 0.06963 0.01540 1.22700
C 	C 	0.43218 0.06018 0.10731 0.32100
O 	O 	0.38123 0.05731 0.03475 -0.39500
O 	O 	0.41041 0.08112 0.11618 -0.41700
O 	O 	0.36771 0.11004 0.04952 -0.50200
C 	C 	0.45620 0.13097 0.02331 0.31600
O 	O 	0.44450 0.10926 0.99637 -0.44900
O 	O 	0.44780 0.13070 0.06426 -0.48900
C 	C 	0.36011 0.07934 0.04225 0.34500
O 	O 	0.40799 0.06396 0.94170 -0.30600
Zn	Zn	0.40524 0.12284 0.07916 1.17400
O 	O 	0.44561 0.06066 0.06910 -0.39800
C 	C 	0.42432 0.03749 0.94234 0.29100
O 	O 	0.43674 0.03083 0.97942 -0.32800
C 	C 	0.52125 0.95464 0.75036 0.15200
C 	C 	0.54502 0.94068 0.77459 -0.09900
H 	H 	0.56330 0.92784 0.75809 0.08200
C 	C 	0.54518 0.94344 0.82002 0.07500
C 	C 	0.52183 0.96064 0.84110 -0.06000
C 	C 	0.49812 0.97475 0.81697 0.06100
C 	C 	0.49742 0.97098 0.77168 -0.07200
H 	H 	0.47885 0.98134 0.75296 0.10000
N 	N 	0.52199 0.95348 0.70366 -0.17700
C 	C 	0.50684 0.92870 0.68228 0.20000
C 	C 	0.50644 0.92787 0.63648 -0.07400
C 	C 	0.52127 0.95294 0.61296 0.06300
C 	C 	0.53806 0.97710 0.63537 -0.07000
C 	C 	0.53779 0.97726 0.68115 0.20100
C 	C 	0.49245 0.90178 0.61407 0.01300
C 	C 	0.49222 0.90127 0.56870 -0.05300
C 	C 	0.50379 0.92827 0.54461 0.01900
C 	C 	0.52000 0.95334 0.56691 -0.02400
C 	C 	0.53606 0.97801 0.54351 0.02000
C 	C 	0.55576 0.99992 0.61190 0.01400
C 	C 	0.55583 0.99949 0.56654 -0.05300
C 	C 	0.50083 0.92993 0.49857 0.01900
C 	C 	0.51688 0.95460 0.47516 -0.02500
C 	C 	0.53317 0.97963 0.49746 0.01800
O 	O 	0.55252 0.00057 0.70251 -0.15400
O 	O 	0.49241 0.90571 0.70470 -0.19000
H 	H 	0.57040 0.01735 0.62869 0.05900
H 	H 	0.57245 0.01463 0.54973 0.05500
H 	H 	0.48259 0.88122 0.63170 0.05100
H 	H 	0.48456 0.87912 0.55268 0.05200
C 	C 	0.54484 0.00656 0.47337 -0.05200
C 	C 	0.54469 0.00601 0.42802 0.01600
C 	C 	0.53055 0.98003 0.40562 -0.07700
C 	C 	0.51552 0.95508 0.42912 0.06400
C 	C 	0.48094 0.90855 0.47557 -0.05400
C 	C 	0.48076 0.90832 0.43020 0.01300
C 	C 	0.49843 0.93116 0.40670 -0.07600
C 	C 	0.53014 0.97924 0.35984 0.19900
N 	N 	0.51443 0.95488 0.33841 -0.18100
C 	C 	0.49835 0.93129 0.36088 0.20000
C 	C 	0.51473 0.95416 0.29167 0.15100
C 	C 	0.49437 0.97373 0.26806 -0.11000
C 	C 	0.49554 0.97417 0.22248 0.07500
C 	C 	0.51687 0.95464 0.20057 -0.09400
C 	C 	0.53725 0.93504 0.22409 0.07600
C 	C 	0.53613 0.93481 0.26966 -0.11000
O 	O 	0.54514 0.00184 0.33747 -0.18800
O 	O 	0.48289 0.90856 0.33949 -0.19100
H 	H 	0.47801 0.98885 0.28517 0.07900
H 	H 	0.55205 0.91997 0.28800 0.08500
H 	H 	0.55254 0.02871 0.48937 0.05400
H 	H 	0.55466 0.02651 0.41040 0.05200
H 	H 	0.46442 0.89333 0.49244 0.05100
H 	H 	0.46598 0.89101 0.41343 0.05000
H 	H 	0.51812 0.95532 0.16535 0.07900
H 	H 	0.52213 0.96311 0.87622 0.08400
Zn	Zn	0.64577 0.87843 0.02373 1.22600
C 	C 	0.62557 0.87523 0.11307 0.32100
O 	O 	0.68843 0.89479 0.02449 -0.44900
O 	O 	0.63750 0.84578 0.11516 -0.41100
O 	O 	0.69669 0.87906 0.09446 -0.44100
C 	C 	0.63814 0.80888 0.02317 0.33100
O 	O 	0.62354 0.83681 0.02472 -0.40800
O 	O 	0.66569 0.80670 0.03976 -0.50000
C 	C 	0.70382 0.89762 0.06104 0.31700
O 	O 	0.64801 0.87224 0.94726 -0.26500
Zn	Zn	0.67913 0.83566 0.08640 1.17900
O 	O 	0.63226 0.89488 0.08046 -0.38400
C 	C 	0.62996 0.89737 0.94628 0.26600
O 	O 	0.62329 0.90974 0.98380 -0.32800
Zn	Zn	0.10396 0.61750 0.96327 1.22400
C 	C 	0.10095 0.61007 0.05663 0.31900
O 	O 	0.09468 0.66363 0.94974 -0.44900
O 	O 	0.12910 0.62144 0.05944 -0.41300
O 	O 	0.10559 0.68227 0.01763 -0.44800
C 	C 	0.16730 0.60313 0.97598 0.33000
O 	O 	0.13965 0.59030 0.97475 -0.45100
O 	O 	0.17094 0.63481 0.98161 -0.50300
C 	C 	0.09113 0.68558 0.98054 0.32300
O 	O 	0.11174 0.60703 0.88823 -0.31500
Zn	Zn	0.14424 0.65930 0.02012 1.17800
O 	O 	0.08494 0.61441 0.02100 -0.39800
C 	C 	0.08558 0.59177 0.89056 0.29300
O 	O 	0.07249 0.59202 0.92826 -0.37000
C 	C 	0.00256 0.51378 0.23658 0.15000
C 	C 	0.98031 0.49754 0.21156 -0.11000
H 	H 	0.96168 0.48455 0.22753 0.08500
C 	C 	0.98156 0.49906 0.16605 0.07400
C 	C 	0.00545 0.51638 0.14564 -0.09500
C 	C 	0.02759 0.53285 0.17056 0.07300
C 	C 	0.02624 0.53135 0.21606 -0.11000
H 	H 	0.04306 0.54444 0.23547 0.08300
N 	N 	0.99994 0.51417 0.28315 -0.18000
C 	C 	0.01191 0.48889 0.30697 0.20000
C 	C 	0.00910 0.48863 0.35259 -0.07700
C 	C 	0.99485 0.51504 0.37355 0.06500
C 	C 	0.98170 0.54009 0.34855 -0.07400
C 	C 	0.98482 0.53943 0.30299 0.20100
C 	C 	0.01911 0.46178 0.37719 0.01400
C 	C 	0.01591 0.46170 0.42234 -0.05400
C 	C 	0.00512 0.48981 0.44435 0.01900
C 	C 	0.99295 0.51592 0.41953 -0.02400
C 	C 	0.97770 0.54217 0.44021 0.02000
C 	C 	0.96456 0.56457 0.36912 0.01500
C 	C 	0.96150 0.56483 0.41427 -0.05200
C 	C 	0.00487 0.49174 0.49058 0.01800
C 	C 	0.98984 0.51818 0.51123 -0.02400
C 	C 	0.97773 0.54427 0.48636 0.02000
O 	O 	0.97316 0.56321 0.27928 -0.17900
O 	O 	0.02618 0.46479 0.28706 -0.19600
H 	H 	0.95265 0.58285 0.35013 0.05700
H 	H 	0.94526 0.58152 0.42853 0.05500
H 	H 	0.02835 0.44030 0.36131 0.04800
H 	H 	0.02026 0.43912 0.43955 0.05100
C 	C 	0.96740 0.57265 0.50820 -0.05100
C 	C 	0.96467 0.57296 0.55338 0.01500
C 	C 	0.97457 0.54613 0.57812 -0.07100
C 	C 	0.98818 0.51929 0.55723 0.06500
C 	C 	0.02065 0.46878 0.51662 -0.05300
C 	C 	0.01756 0.46914 0.56178 0.01500
C 	C 	0.00098 0.49408 0.58232 -0.07600
C 	C 	0.97237 0.54637 0.62379 0.20100
N 	N 	0.98411 0.52103 0.64773 -0.17800
C 	C 	0.99821 0.49508 0.62793 0.20300
C 	C 	0.98262 0.52233 0.69436 0.15100
C 	C 	0.00679 0.53653 0.71792 -0.07300
C 	C 	0.00451 0.53990 0.76313 0.05400
C 	C 	0.97861 0.52778 0.78496 -0.05400
C 	C 	0.95423 0.51389 0.76149 0.07100
C 	C 	0.95636 0.51095 0.71616 -0.09500
O 	O 	0.95907 0.57112 0.64367 -0.15700
O 	O 	0.00924 0.47100 0.65172 -0.19200
H 	H 	0.02686 0.54572 0.70094 0.08800
H 	H 	0.93750 0.50049 0.69780 0.08700
H 	H 	0.96303 0.59512 0.49073 0.05500
H 	H 	0.95585 0.59467 0.56915 0.05900
H 	H 	0.03664 0.45177 0.50248 0.05100
H 	H 	0.02916 0.45066 0.58081 0.05000
H 	H 	0.97710 0.52990 0.82006 0.07700
H 	H 	0.00610 0.51817 0.11045 0.07100
Zn	Zn	0.86858 0.43271 0.96620 1.22700
C 	C 	0.81273 0.46634 0.98945 0.32900
O 	O 	0.88162 0.44744 0.90794 -0.39500
O 	O 	0.82956 0.49152 0.00178 -0.39600
O 	O 	0.85275 0.49314 0.91055 -0.46700
C 	C 	0.89486 0.46993 0.03569 0.32700
O 	O 	0.87670 0.44511 0.02634 -0.42000
O 	O 	0.89901 0.49381 0.00761 -0.46100
C 	C 	0.86957 0.47276 0.88815 0.31400
O 	O 	0.91352 0.40090 0.97049 -0.30400
Zn	Zn	0.86728 0.50695 0.96714 1.18800
O 	O 	0.82458 0.44333 0.96472 -0.41100
C 	C 	0.89529 0.37600 0.96441 0.29100
O 	O 	0.86657 0.38295 0.96036 -0.35400
Zn	Zn	0.01234 0.03631 0.03484 1.22100
C 	C 	0.02300 0.96701 0.02351 0.33200
O 	O 	0.97944 0.03760 0.07855 -0.46700
O 	O 	0.04167 0.96963 0.05686 -0.44800
O 	O 	0.98783 0.98795 0.10925 -0.49100
C 	C 	0.07411 0.03734 0.06569 0.32800
O 	O 	0.05678 0.03575 0.03093 -0.45100
O 	O 	0.06219 0.03129 0.10409 -0.50300
C 	C 	0.96886 0.01070 0.09660 0.34200
O 	O 	0.01668 0.09383 0.03886 -0.32000
Zn	Zn	0.03154 0.99669 0.11150 1.17200
O 	O 	0.00533 0.99163 0.01225 -0.43200
C 	C 	0.00232 0.09401 0.00200 0.28400
O 	O 	0.99499 0.06539 0.98673 -0.36600
C 	C 	0.90668 0.34209 0.96136 -0.05800
C 	C 	0.93555 0.33413 0.97828 0.01700
C 	C 	0.94613 0.30191 0.97606 -0.05500
C 	C 	0.92804 0.27732 0.95675 0.03000
C 	C 	0.89938 0.28530 0.93930 -0.05200
C 	C 	0.88871 0.31751 0.94165 0.02200
C 	C 	0.93852 0.24297 0.95669 0.01000
C 	C 	0.92167 0.21876 0.97899 -0.03800
C 	C 	0.93327 0.18705 0.98309 -0.02100
C 	C 	0.96179 0.17931 0.96504 0.00000
C 	C 	0.97804 0.20304 0.94116 -0.02600
C 	C 	0.96642 0.23476 0.93689 -0.03600
C 	C 	0.97598 0.14857 0.97567 0.04700
C 	C 	0.98797 0.12331 0.98651 -0.07600
H 	H 	0.94961 0.35278 0.99370 0.04900
H 	H 	0.96819 0.29594 0.98993 0.05400
H 	H 	0.88530 0.26653 0.92415 0.06000
H 	H 	0.86655 0.32335 0.92804 0.06600
H 	H 	0.90009 0.22480 0.99430 0.05000
H 	H 	0.92057 0.16883 0.00159 0.04400
H 	H 	0.00009 0.19724 0.92705 0.04800
H 	H 	0.97944 0.25316 0.91917 0.05200
C 	C 	0.92603 0.50380 0.78445 -0.01300
C 	C 	0.90928 0.52706 0.80780 -0.02000
C 	C 	0.88743 0.51690 0.83818 -0.02100
C 	C 	0.88209 0.48329 0.84552 0.00400
C 	C 	0.89463 0.46020 0.81604 -0.10000
C 	C 	0.91789 0.47051 0.78724 0.04400
H 	H 	0.87648 0.53509 0.85846 0.04000
H 	H 	0.93014 0.45262 0.76798 0.07300
H 	H 	0.91462 0.55295 0.80446 0.08000
C 	C 	0.88391 0.42475 0.81547 0.78300
F 	F 	0.88588 0.41209 0.77381 -0.44000
F 	F 	0.90219 0.40632 0.84268 -0.44400
F 	F 	0.85371 0.42199 0.82880 -0.44000
C 	C 	0.95630 0.48544 0.13977 -0.02600
C 	C 	0.96211 0.46078 0.10922 -0.01400
C 	C 	0.94029 0.45306 0.07763 -0.02400
C 	C 	0.91247 0.46993 0.07629 0.01200
C 	C 	0.90485 0.49164 0.11046 -0.10700
C 	C 	0.92734 0.50001 0.14135 0.05000
H 	H 	0.94585 0.43558 0.05235 0.05100
H 	H 	0.92287 0.51889 0.16528 0.07600
H 	H 	0.98421 0.44890 0.10846 0.04300
C 	C 	0.87365 0.50763 0.11222 0.78200
F 	F 	0.86771 0.52020 0.15316 -0.44300
F 	F 	0.87259 0.53294 0.08231 -0.46700
F 	F 	0.85092 0.48491 0.10266 -0.44600
C 	C 	0.07271 0.71512 0.97250 -0.07200
C 	C 	0.07024 0.72808 0.93030 0.01900
C 	C 	0.05644 0.75854 0.92371 -0.05700
C 	C 	0.04498 0.77625 0.95922 0.03500
C 	C 	0.04580 0.76236 0.00098 -0.05800
C 	C 	0.05949 0.73192 0.00756 0.01800
C 	C 	0.03561 0.81074 0.95374 0.00800
C 	C 	0.05705 0.83425 0.93946 -0.03600
C 	C 	0.05113 0.86767 0.94469 -0.02700
C 	C 	0.02385 0.87778 0.96438 -0.00400
C 	C 	0.00117 0.85447 0.97462 -0.02700
C 	C 	0.00698 0.82103 0.96917 -0.03600
C 	C 	0.02203 0.91030 0.98236 0.05600
C 	C 	0.02178 0.93675 0.99983 -0.10100
H 	H 	0.08002 0.71522 0.90286 0.05000
H 	H 	0.05559 0.76886 0.89126 0.06000
H 	H 	0.03690 0.77574 0.02861 0.06000
H 	H 	0.06054 0.72181 0.04012 0.08500
H 	H 	0.07906 0.82663 0.92692 0.04600
H 	H 	0.06863 0.88555 0.93615 0.04600
H 	H 	0.97982 0.86211 0.98930 0.04900
H 	H 	0.98996 0.80311 0.97933 0.05600
C 	C 	0.06882 0.58164 0.85152 -0.10500
C 	C 	0.07432 0.55093 0.83293 0.05000
C 	C 	0.05447 0.53838 0.80136 -0.09200
C 	C 	0.02907 0.55656 0.78782 0.10400
C 	C 	0.02536 0.58913 0.80300 -0.16700
C 	C 	0.04480 0.60097 0.83603 0.11100
H 	H 	0.05791 0.51378 0.78904 0.06600
H 	H 	0.04074 0.62473 0.85062 0.06400
H 	H 	0.09308 0.53606 0.84449 0.03200
C 	C 	0.99968 0.61049 0.78607 0.79900
F 	F 	0.97224 0.60065 0.80460 -0.45700
F 	F 	0.00473 0.64320 0.79611 -0.44500
F 	F 	0.99754 0.60799 0.74132 -0.44600
C 	C 	0.05046 0.55400 0.14891 -0.02600
C 	C 	0.07495 0.53990 0.12647 -0.01600
C 	C 	0.09320 0.55910 0.09897 -0.02600
C 	C 	0.08709 0.59256 0.09356 0.01200
C 	C 	0.06437 0.60764 0.11949 -0.10600
C 	C 	0.04565 0.58790 0.14632 0.04800
H 	H 	0.11104 0.54758 0.07997 0.04500
H 	H 	0.02664 0.59861 0.16381 0.07800
H 	H 	0.07896 0.51377 0.12877 0.04200
C 	C 	0.05884 0.64428 0.11658 0.78200
F 	F 	0.04349 0.65128 0.07843 -0.44600
F 	F 	0.04147 0.65523 0.15126 -0.44600
F 	F 	0.08641 0.66126 0.11708 -0.46400
C 	C 	0.73017 0.92026 0.06397 -0.07300
C 	C 	0.75065 0.92340 0.02897 0.00800
C 	C 	0.77840 0.94028 0.03438 -0.05500
C 	C 	0.78577 0.95437 0.07472 0.02500
C 	C 	0.76440 0.95308 0.10879 -0.05100
C 	C 	0.73677 0.93603 0.10349 0.01900
C 	C 	0.81687 0.96755 0.08256 0.01100
C 	C 	0.82832 0.99360 0.05729 -0.04200
C 	C 	0.85859 0.00436 0.06262 -0.02100
C 	C 	0.87753 0.98922 0.09330 -0.01000
C 	C 	0.86587 0.96384 0.11938 -0.02400
C 	C 	0.83567 0.95300 0.11403 -0.04000
C 	C 	0.90956 0.99773 0.09543 0.06000
C 	C 	0.93656 0.00407 0.09652 -0.11300
H 	H 	0.74574 0.91150 0.99823 0.04800
H 	H 	0.79467 0.94130 0.00777 0.05100
H 	H 	0.76965 0.96437 0.13982 0.06300
H 	H 	0.72087 0.93430 0.13049 0.09500
H 	H 	0.81394 0.00515 0.03312 0.05200
H 	H 	0.86747 0.02401 0.04232 0.04600
H 	H 	0.88041 0.95198 0.14310 0.04500
H 	H 	0.82709 0.93282 0.13363 0.04900
C 	C 	0.56946 0.92792 0.84583 -0.02100
C 	C 	0.59728 0.94444 0.85255 -0.00500
C 	C 	0.61804 0.93292 0.88338 -0.02800
C 	C 	0.61126 0.90470 0.90777 0.03800
C 	C 	0.58419 0.88640 0.89878 -0.11000
C 	C 	0.56331 0.89853 0.86793 0.05000
H 	H 	0.63884 0.94678 0.88971 0.06000
H 	H 	0.54179 0.88585 0.86220 0.07500
H 	H 	0.60221 0.96705 0.83526 0.06400
C 	C 	0.57700 0.85483 0.92321 0.78200
F 	F 	0.60091 0.83308 0.91862 -0.44800
F 	F 	0.57270 0.86157 0.96684 -0.45100
F 	F 	0.55073 0.83965 0.90766 -0.44700
C 	C 	0.56090 0.91627 0.20092 -0.02500
C 	C 	0.55238 0.89033 0.17351 -0.01100
C 	C 	0.57414 0.87550 0.14687 -0.02100
C 	C 	0.60467 0.88639 0.14737 0.01600
C 	C 	0.61400 0.91068 0.17766 -0.10600
C 	C 	0.59170 0.92607 0.20352 0.05000
H 	H 	0.56700 0.85647 0.12439 0.06100
H 	H 	0.59807 0.94623 0.22469 0.07500
H 	H 	0.52867 0.88243 0.17176 0.05300
C 	C 	0.64732 0.92125 0.18100 0.78200
F 	F 	0.65271 0.93931 0.21836 -0.44800
F 	F 	0.66603 0.89404 0.18221 -0.46600
F 	F 	0.65506 0.94034 0.14541 -0.44900
C 	C 	0.10751 0.04202 0.06104 -0.09800
C 	C 	0.12496 0.05432 0.09584 0.02200
C 	C 	0.15679 0.05717 0.09204 -0.06800
C 	C 	0.17147 0.04771 0.05345 0.03200
C 	C 	0.15405 0.03567 0.01858 -0.07100
C 	C 	0.12225 0.03288 0.02229 0.02100
C 	C 	0.20504 0.05076 0.04937 0.00300
C 	C 	0.21791 0.07135 0.01752 -0.04000
C 	C 	0.24970 0.07471 0.01413 -0.03400
C 	C 	0.26885 0.05756 0.04258 0.00100
C 	C 	0.25608 0.03657 0.07397 -0.02800
C 	C 	0.22426 0.03312 0.07733 -0.03500
C 	C 	0.30136 0.06373 0.04196 0.06200
C 	C 	0.32836 0.07009 0.04181 -0.09100
H 	H 	0.11390 0.06170 0.12578 0.03400
H 	H 	0.17004 0.06679 0.11900 0.05100
H 	H 	0.16519 0.02823 0.98871 0.05900
H 	H 	0.10914 0.02307 0.99531 0.04700
H 	H 	0.20328 0.08506 0.99578 0.05000
H 	H 	0.25942 0.09110 0.98992 0.05100
H 	H 	0.27074 0.02332 0.09616 0.05900
H 	H 	0.21456 0.01693 0.10176 0.04600
C 	C 	0.43701 0.02382 0.90216 -0.09200
C 	C 	0.43263 0.99056 0.89268 0.05000
C 	C 	0.45068 0.97534 0.86123 -0.08400
C 	C 	0.47381 0.99304 0.83961 0.10000
C 	C 	0.47650 0.02740 0.84614 -0.15800
C 	C 	0.45787 0.04251 0.87762 0.10500
H 	H 	0.44810 0.94920 0.85575 0.07200
H 	H 	0.46084 0.06834 0.88493 0.06500
H 	H 	0.41629 0.97608 0.91123 0.05100
C 	C 	0.50017 0.04753 0.82133 0.79700
F 	F 	0.49770 0.08072 0.83010 -0.44600
F 	F 	0.52930 0.03770 0.83281 -0.44600
F 	F 	0.49621 0.04321 0.77710 -0.44800
C 	C 	0.47552 0.99627 0.19761 -0.02500
C 	C 	0.47930 0.03033 0.20111 -0.01400
C 	C 	0.46355 0.05125 0.17319 -0.02100
C 	C 	0.44374 0.03839 0.14155 0.01100
C 	C 	0.43775 0.00419 0.14026 -0.10200
C 	C 	0.45441 0.98326 0.16776 0.04600
H 	H 	0.46773 0.07746 0.17491 0.04400
H 	H 	0.45153 0.95689 0.16538 0.07400
H 	H 	0.49540 0.04054 0.22433 0.04900
C 	C 	0.41458 0.98996 0.10858 0.77700
F 	F 	0.42638 0.99126 0.06687 -0.44900
F 	F 	0.40749 0.95762 0.11837 -0.44400
F 	F 	0.38772 0.00768 0.11016 -0.44700
C 	C 	0.47389 0.15925 0.00597 -0.10400
C 	C 	0.48452 0.18391 0.03423 0.02200
C 	C 	0.49448 0.21408 0.01762 -0.07500
C 	C 	0.49431 0.21978 0.97260 0.04000
C 	C 	0.48684 0.19402 0.94421 -0.06600
C 	C 	0.47676 0.16383 0.96077 0.03400
C 	C 	0.49730 0.25364 0.95593 0.00400
C 	C 	0.47234 0.26836 0.93505 -0.03400
C 	C 	0.47175 0.30237 0.92939 -0.02900
C 	C 	0.49603 0.32187 0.94463 0.00100
C 	C 	0.52229 0.30690 0.96139 -0.02900
C 	C 	0.52297 0.27285 0.96694 -0.03300
C 	C 	0.49130 0.35634 0.95178 0.05000
C 	C 	0.48659 0.38465 0.96059 -0.08700
H 	H 	0.48369 0.18033 0.06911 0.03200
H 	H 	0.50073 0.23362 0.03986 0.05100
H 	H 	0.48742 0.19788 0.90935 0.06700
H 	H 	0.46984 0.14464 0.93843 0.05800
H 	H 	0.45256 0.25374 0.92584 0.04500
H 	H 	0.45153 0.31372 0.91585 0.04700
H 	H 	0.54137 0.32177 0.97268 0.04900
H 	H 	0.54266 0.26166 0.98214 0.05000
C 	C 	0.19433 0.58183 0.97459 -0.10500
C 	C 	0.19424 0.55186 0.99718 0.04100
C 	C 	0.22146 0.53440 0.00223 -0.08300
C 	C 	0.24890 0.54669 0.98455 0.03900
C 	C 	0.24860 0.57564 0.95987 -0.07100
C 	C 	0.22145 0.59312 0.95490 0.02900
C 	C 	0.27830 0.53106 0.99515 0.00900
C 	C 	0.29725 0.51942 0.96175 -0.04200
C 	C 	0.32702 0.50922 0.97111 -0.01900
C 	C 	0.33799 0.51051 0.01390 -0.01700
C 	C 	0.31863 0.52067 0.04756 -0.02400
C 	C 	0.28887 0.53090 0.03825 -0.04600
C 	C 	0.36981 0.50430 0.02262 0.06100
C 	C 	0.39661 0.49986 0.02958 -0.11900
H 	H 	0.17344 0.54284 0.01243 0.03000
H 	H 	0.22140 0.51189 0.02097 0.05400
H 	H 	0.26963 0.58522 0.94587 0.05400
H 	H 	0.22169 0.61595 0.93684 0.03500
H 	H 	0.28924 0.51921 0.92842 0.04700
H 	H 	0.34182 0.50122 0.94494 0.04600
H 	H 	0.32692 0.52161 0.08075 0.03900
H 	H 	0.27443 0.53983 0.06428 0.04400
C 	C 	0.78027 0.46438 0.00259 -0.07700
C 	C 	0.76590 0.43377 0.00882 0.02900
C 	C 	0.73542 0.43209 0.02281 -0.05800
C 	C 	0.71903 0.46099 0.03053 0.03200
C 	C 	0.73333 0.49155 0.02407 -0.05800
C 	C 	0.76378 0.49325 0.01026 0.03200
C 	C 	0.68658 0.45935 0.04395 0.01100
C 	C 	0.67710 0.47441 0.08272 -0.03900
C 	C 	0.64593 0.47622 0.09288 -0.02400
C 	C 	0.62408 0.46280 0.06454 -0.01000
C 	C 	0.63357 0.44659 0.02673 -0.02200
C 	C 	0.66470 0.44489 0.01643 -0.04500
C 	C 	0.59195 0.46810 0.07210 0.06200
C 	C 	0.56491 0.47275 0.07660 -0.11800
H 	H 	0.77843 0.41131 0.00339 0.04900
H 	H 	0.72458 0.40837 0.02772 0.05700
H 	H 	0.72076 0.51399 0.02941 0.05600
H 	H 	0.77449 0.51702 0.00523 0.04600
H 	H 	0.69383 0.48538 0.10440 0.05400
H 	H 	0.63877 0.48870 0.12224 0.04500
H 	H 	0.61679 0.43611 0.00471 0.04600
H 	H 	0.67175 0.43320 0.98645 0.05600
C 	C 	0.62294 0.77946 0.00537 -0.07800
C 	C 	0.59157 0.77401 0.01263 0.04600
C 	C 	0.57803 0.74413 0.00083 -0.06200
C 	C 	0.59566 0.71958 0.98116 0.04500
C 	C 	0.62653 0.72592 0.97125 -0.06200
C 	C 	0.64016 0.75565 0.98353 0.04000
C 	C 	0.58279 0.68620 0.97554 0.00500
C 	C 	0.59667 0.65944 0.99621 -0.03200
C 	C 	0.58226 0.62871 0.99629 -0.02400
C 	C 	0.55379 0.62450 0.97601 -0.00500
C 	C 	0.54068 0.65069 0.95332 -0.02600
C 	C 	0.55519 0.68143 0.95290 -0.03400
C 	C 	0.53615 0.59514 0.98418 0.05600
C 	C 	0.52139 0.57102 0.99343 -0.10100
H 	H 	0.57797 0.79236 0.02902 0.06600
H 	H 	0.55416 0.73956 0.00853 0.06300
H 	H 	0.64021 0.70741 0.95531 0.05900
H 	H 	0.66422 0.75991 0.97680 0.04300
H 	H 	0.61798 0.66277 0.01372 0.04000
H 	H 	0.59257 0.60855 0.01380 0.04100
H 	H 	0.51872 0.64760 0.93740 0.05000
H 	H 	0.54451 0.70177 0.93624 0.06000
