data_crystal

_cell_length_a 18.47009
_cell_length_b 18.82233
_cell_length_c 34.80652
_cell_angle_alpha 95.43118
_cell_angle_beta  95.43097
_cell_angle_gamma 126.40877

_symmetry_space_group_name_	'P 1'
_symmetry_space_group_name_H-M	'P 1'

loop_
_symmetry_equiv_pos_as_xyz
  x,y,z

loop_
_atom_site_label
_atom_site_type_symbol
_atom_site_fract_x
_atom_site_fract_y
_atom_site_fract_z
_atom_site_charge
C 	C 	0.91588 0.01846 0.95928 0.14700
N 	N 	0.00705 0.07234 0.95901 -0.09500
C 	C 	0.05377 0.03776 0.95879 0.17000
N 	N 	0.00948 0.94906 0.95856 -0.10200
C 	C 	0.91866 0.89458 0.95928 0.17600
N 	N 	0.87145 0.92930 0.95994 -0.09600
C 	C 	0.93718 0.01440 0.50748 0.15000
N 	N 	0.02521 0.05604 0.50264 -0.09700
C 	C 	0.06079 0.01018 0.50206 0.16000
N 	N 	0.00787 0.92271 0.50571 -0.10200
C 	C 	0.91969 0.88066 0.50965 0.18000
N 	N 	0.88434 0.92644 0.51061 -0.09100
Cu	Cu	0.77038 0.36727 0.95969 0.93000
Cu	Cu	0.75474 0.30138 0.04442 0.88900
Cu	Cu	0.62496 0.32876 0.00790 0.90300
Cu	Cu	0.60003 0.35832 0.92650 0.91000
C 	C 	0.70862 0.33389 0.87630 0.29600
O 	O 	0.82236 0.49793 0.95700 -0.32000
C 	C 	0.67532 0.35561 0.09428 0.28700
O 	O 	0.62740 0.29372 0.95446 -0.63700
O 	O 	0.75820 0.38519 0.01487 -0.63700
O 	O 	0.83065 0.30736 0.96637 -0.35500
O 	O 	0.72791 0.21322 0.00209 -0.39200
O 	O 	0.67086 0.37387 0.88392 -0.35200
O 	O 	0.49372 0.26500 0.99928 -0.37200
C 	C 	0.44184 0.25439 0.96700 0.34600
C 	C 	0.77906 0.53083 0.96730 0.32400
O 	O 	0.69377 0.47592 0.97171 -0.38900
O 	O 	0.47702 0.30334 0.93970 -0.35300
O 	O 	0.75936 0.33119 0.90463 -0.34100
C 	C 	0.78928 0.23219 0.98035 0.32800
O 	O 	0.62447 0.35411 0.06419 -0.35800
O 	O 	0.74834 0.36065 0.09009 -0.39400
H 	H 	0.58785 0.22801 0.94459 0.18600
H 	H 	0.79803 0.44829 0.02914 0.18600
Cu	Cu	0.60023 0.17742 0.50375 0.93300
Cu	Cu	0.67509 0.19367 0.42092 0.89300
Cu	Cu	0.65403 0.32729 0.45746 0.90400
Cu	Cu	0.60333 0.34079 0.53572 0.90900
C 	C 	0.62290 0.23244 0.58680 0.29200
O 	O 	0.46622 0.12344 0.50264 -0.33500
C 	C 	0.63169 0.27850 0.37068 0.29100
O 	O 	0.67592 0.31807 0.51124 -0.63600
O 	O 	0.59039 0.19488 0.44882 -0.63600
O 	O 	0.65879 0.11657 0.49860 -0.36000
O 	O 	0.76036 0.21792 0.46472 -0.39400
O 	O 	0.58259 0.26944 0.57802 -0.36400
O 	O 	0.72216 0.45626 0.46952 -0.37100
C 	C 	0.71659 0.50154 0.49900 0.34700
C 	C 	0.43365 0.16565 0.49117 0.33600
O 	O 	0.49052 0.24980 0.48771 -0.39000
O 	O 	0.65684 0.46086 0.52229 -0.35300
O 	O 	0.62864 0.18373 0.55912 -0.34400
C 	C 	0.73704 0.15652 0.48623 0.33300
O 	O 	0.65344 0.33955 0.40137 -0.36100
O 	O 	0.61872 0.20329 0.37522 -0.39400
H 	H 	0.74131 0.35591 0.52398 0.18600
H 	H 	0.52724 0.15881 0.43346 0.19700
C 	C 	0.58657 0.20544 0.69066 -0.03300
C 	C 	0.67582 0.24359 0.71030 0.02600
C 	C 	0.74414 0.26539 0.68836 -0.05000
C 	C 	0.72602 0.25632 0.64738 0.02800
C 	C 	0.63870 0.22530 0.62817 -0.06700
C 	C 	0.56850 0.19641 0.64981 0.01800
C 	C 	0.70085 0.27196 0.75369 0.02500
C 	C 	0.68122 0.20853 0.77745 -0.04800
C 	C 	0.68818 0.22947 0.81808 0.02600
C 	C 	0.71501 0.31477 0.83512 -0.06100
C 	C 	0.74100 0.38011 0.81171 0.01600
C 	C 	0.73398 0.35918 0.77120 -0.03000
C 	C 	0.66508 0.16227 0.84180 0.09100
C 	C 	0.75810 0.42672 0.74755 0.11000
C 	C 	0.51399 0.17846 0.71244 0.10600
C 	C 	0.79805 0.28157 0.62548 0.09000
N 	N 	0.64667 0.10851 0.86083 -0.09500
N 	N 	0.77738 0.48074 0.72857 -0.09100
N 	N 	0.85568 0.30170 0.60790 -0.09400
N 	N 	0.45592 0.15691 0.72993 -0.09400
H 	H 	0.50047 0.16974 0.63494 0.05800
H 	H 	0.81235 0.29298 0.70335 0.06900
H 	H 	0.65717 0.14186 0.76410 0.06700
H 	H 	0.76443 0.44667 0.82492 0.07700
C 	C 	0.67945 0.29806 0.26751 -0.03500
C 	C 	0.63776 0.33631 0.25395 0.02600
C 	C 	0.59378 0.35579 0.27881 -0.05200
C 	C 	0.59112 0.33742 0.31706 0.03200
C 	C 	0.63378 0.29989 0.33074 -0.07200
C 	C 	0.67786 0.28078 0.30575 0.01500
C 	C 	0.63876 0.35462 0.21338 0.02600
C 	C 	0.56420 0.29009 0.18332 -0.05200
C 	C 	0.57258 0.29401 0.14380 0.02700
C 	C 	0.65670 0.36291 0.13423 -0.07000
C 	C 	0.72792 0.43231 0.16425 0.01700
C 	C 	0.71905 0.42889 0.20371 -0.03300
C 	C 	0.49590 0.22500 0.11335 0.08600
C 	C 	0.79385 0.50007 0.23419 0.10600
C 	C 	0.72351 0.27573 0.24218 0.10100
C 	C 	0.54203 0.35452 0.34144 0.09300
N 	N 	0.43448 0.16977 0.08895 -0.09300
N 	N 	0.85376 0.55706 0.25864 -0.09600
N 	N 	0.50272 0.36825 0.36098 -0.09100
N 	N 	0.75879 0.25790 0.22186 -0.10300
H 	H 	0.71107 0.25236 0.31615 0.04500
H 	H 	0.56110 0.38459 0.26828 0.06900
H 	H 	0.50135 0.23431 0.19071 0.06500
H 	H 	0.79155 0.48714 0.15695 0.05300
C 	C 	0.86042 0.74873 0.54139 -0.11300
C 	C 	0.86009 0.78374 0.50768 -0.05400
C 	C 	0.81169 0.72586 0.47119 0.31900
C 	C 	0.76554 0.63360 0.46831 -0.06600
C 	C 	0.76699 0.59857 0.50193 -0.13300
C 	C 	0.81383 0.65639 0.53861 0.36200
F 	F 	0.81603 0.62326 0.57133 -0.43500
H 	H 	0.89850 0.79334 0.56958 0.12300
H 	H 	0.72834 0.58926 0.44001 0.10500
F 	F 	0.81145 0.75944 0.43837 -0.41900
C 	C 	0.89883 0.09950 0.47185 -0.11900
C 	C 	0.89591 0.06110 0.50479 -0.04500
C 	C 	0.84492 0.05878 0.53285 0.31300
C 	C 	0.79465 0.09172 0.52717 -0.06600
C 	C 	0.79441 0.12672 0.49332 -0.13700
C 	C 	0.84787 0.13147 0.46586 0.35700
F 	F 	0.84739 0.16348 0.43256 -0.45600
H 	H 	0.93760 0.10114 0.44998 0.11300
H 	H 	0.75546 0.08949 0.54895 0.10500
F 	F 	0.84349 0.02390 0.56542 -0.42200
C 	C 	0.17571 0.00427 0.47307 -0.15400
C 	C 	0.15535 0.05374 0.49604 -0.04100
C 	C 	0.22679 0.14134 0.51611 0.31100
C 	C 	0.31750 0.17796 0.51396 -0.06400
C 	C 	0.33785 0.12731 0.49209 -0.13800
C 	C 	0.26659 0.04061 0.47136 0.35000
F 	F 	0.28532 0.99179 0.44939 -0.40700
H 	H 	0.12106 0.93710 0.45701 0.15300
H 	H 	0.37227 0.24501 0.53011 0.08700
F 	F 	0.20870 0.18954 0.53901 -0.41300
C 	C 	0.88379 0.74910 0.93034 -0.11500
C 	C 	0.87214 0.79794 0.95882 -0.05400
C 	C 	0.83197 0.75940 0.99065 0.31800
C 	C 	0.80546 0.67373 0.99427 -0.07300
C 	C 	0.81891 0.62570 0.96620 -0.13100
C 	C 	0.85764 0.66370 0.93400 0.35600
F 	F 	0.86761 0.61697 0.90565 -0.43200
H 	H 	0.91506 0.77829 0.90574 0.11600
H 	H 	0.77420 0.64455 0.01887 0.09900
F 	F 	0.82153 0.80607 0.01880 -0.41300
C 	C 	0.83192 0.06113 0.99445 -0.12200
C 	C 	0.86699 0.05828 0.96083 -0.04400
C 	C 	0.87146 0.10866 0.93243 0.31100
C 	C 	0.84526 0.16456 0.93861 -0.06600
C 	C 	0.81441 0.17088 0.97320 -0.13400
C 	C 	0.80650 0.11755 0.00089 0.35900
F 	F 	0.77804 0.12323 0.03482 -0.45200
H 	H 	0.82887 0.02324 0.01666 0.12300
H 	H 	0.84957 0.20331 0.91659 0.10500
F 	F 	0.90364 0.10536 0.89936 -0.42400
C 	C 	0.30685 0.21055 0.99669 -0.06600
C 	C 	0.34253 0.19931 0.96483 -0.13300
C 	C 	0.28285 0.13682 0.93051 0.36000
C 	C 	0.18824 0.08531 0.92831 -0.11500
C 	C 	0.15264 0.09656 0.96014 -0.05300
C 	C 	0.21219 0.15972 0.99429 0.31900
F 	F 	0.17827 0.17037 0.02542 -0.41500
H 	H 	0.35247 0.25907 0.02319 0.10700
H 	H 	0.14251 0.03615 0.90198 0.11600
F 	F 	0.31662 0.12485 0.89963 -0.43900
