data_crystal

_cell_length_a 23.92841
_cell_length_b 24.63150
_cell_length_c 51.30578
_cell_angle_alpha 89.65867
_cell_angle_beta  89.69259
_cell_angle_gamma 119.79654

_symmetry_space_group_name_	'P 1'
_symmetry_space_group_name_H-M	'P 1'

loop_
_symmetry_equiv_pos_as_xyz
  x,y,z

loop_
_atom_site_label
_atom_site_type_symbol
_atom_site_fract_x
_atom_site_fract_y
_atom_site_fract_z
_atom_site_charge
C 	C 	0.54701 0.35489 0.90952 0.31200
C 	C 	0.75202 0.48521 0.94096 0.30200
C 	C 	0.61229 0.25407 0.88291 0.28200
C 	C 	0.61277 0.34452 0.98607 0.30700
C 	C 	0.65727 0.21599 0.95889 0.28700
Ni	Ni	0.68594 0.38654 0.90142 1.11400
Ni	Ni	0.58185 0.27266 0.93802 1.12000
Ni	Ni	0.72652 0.35791 0.95885 1.12100
O 	O 	0.57968 0.28799 0.97637 -0.37700
O 	O 	0.59410 0.37107 0.89257 -0.37300
O 	O 	0.55015 0.33419 0.93267 -0.39100
O 	O 	0.69369 0.26856 0.97201 -0.37100
O 	O 	0.70019 0.45737 0.92664 -0.38300
O 	O 	0.77539 0.45266 0.95241 -0.37800
O 	O 	0.60517 0.20661 0.94604 -0.38200
O 	O 	0.66116 0.31067 0.87732 -0.36400
O 	O 	0.56595 0.24608 0.89966 -0.37200
O 	O 	0.67586 0.37342 0.98600 -0.38100
O 	O 	0.66883 0.33211 0.93011 -0.71400
H 	H 	0.68187 0.30357 0.92238 0.14900
C 	C 	0.50826 0.26541 0.54298 0.30200
C 	C 	0.63207 0.20479 0.58444 0.31300
C 	C 	0.59180 0.42379 0.56404 0.29700
C 	C 	0.65748 0.26732 0.50515 0.30900
Ni	Ni	0.60383 0.31131 0.58575 1.11300
Ni	Ni	0.63987 0.36809 0.52601 1.12200
Ni	Ni	0.72365 0.31556 0.55446 1.12100
O 	O 	0.67962 0.36768 0.60997 -0.36700
O 	O 	0.62804 0.29965 0.50192 -0.38400
O 	O 	0.53514 0.24805 0.56086 -0.38400
O 	O 	0.54149 0.32013 0.53097 -0.37400
O 	O 	0.61926 0.24003 0.59959 -0.37500
O 	O 	0.65730 0.22503 0.56132 -0.39100
O 	O 	0.73303 0.42672 0.51360 -0.36600
O 	O 	0.57157 0.37650 0.58113 -0.37100
O 	O 	0.63858 0.43621 0.54708 -0.37700
O 	O 	0.71374 0.29231 0.51658 -0.38300
O 	O 	0.66304 0.34346 0.55770 -0.71500
H 	H 	0.69163 0.38591 0.56425 0.15900
C 	C 	0.09444 0.11417 0.76658 0.28600
C 	C 	0.08184 0.05014 0.69596 0.30700
Ni	Ni	0.06477 0.98531 0.74742 1.11600
Ni	Ni	0.98392 0.05362 0.73037 1.11500
O 	O 	0.11775 0.08166 0.75468 -0.36700
O 	O 	0.04048 0.11208 0.75870 -0.36600
O 	O 	0.07926 0.00116 0.70746 -0.37300
O 	O 	0.06647 0.08676 0.70896 -0.37500
O 	O 	0.98767 0.98818 0.74829 -0.71800
H 	H 	0.98891 0.00241 0.76628 0.14700
C 	C 	0.29137 0.66883 0.37443 0.28700
C 	C 	0.51367 0.76172 0.44173 0.30900
C 	C 	0.39730 0.59801 0.38807 0.31000
C 	C 	0.41999 0.83324 0.43288 0.29700
C 	C 	0.35258 0.58753 0.47186 0.31300
C 	C 	0.23138 0.64529 0.45577 0.28700
Ni	Ni	0.42111 0.72850 0.39894 1.11400
Ni	Ni	0.37746 0.71419 0.46006 1.12200
Ni	Ni	0.29941 0.60034 0.42166 1.12100
O 	O 	0.34825 0.72069 0.37493 -0.36500
O 	O 	0.28348 0.61474 0.38359 -0.37300
O 	O 	0.39568 0.64717 0.47193 -0.38500
O 	O 	0.48946 0.72448 0.42190 -0.38000
O 	O 	0.47568 0.77102 0.45754 -0.37700
O 	O 	0.22798 0.61389 0.43429 -0.38300
O 	O 	0.41314 0.65282 0.37772 -0.37100
O 	O 	0.37040 0.58280 0.41123 -0.38900
O 	O 	0.28244 0.66702 0.47148 -0.36700
O 	O 	0.44516 0.81849 0.41259 -0.36600
O 	O 	0.37347 0.78986 0.44762 -0.38200
O 	O 	0.30050 0.56617 0.45752 -0.38100
O 	O 	0.35777 0.68742 0.42500 -0.71500
H 	H 	0.32871 0.70381 0.42095 0.15800
C 	C 	0.40074 0.59811 0.02524 0.29400
C 	C 	0.20256 0.67025 0.05412 0.31200
C 	C 	0.23510 0.52554 0.01413 0.31000
C 	C 	0.37993 0.75759 0.07107 0.28800
C 	C 	0.24826 0.68469 0.97118 0.31400
C 	C 	0.43036 0.78643 0.98778 0.29000
Ni	Ni	0.30012 0.62613 0.05228 1.11300
Ni	Ni	0.31350 0.74575 0.01996 1.12100
Ni	Ni	0.33847 0.64620 0.99051 1.12500
O 	O 	0.35852 0.58540 0.04478 -0.36900
O 	O 	0.41173 0.64099 0.00717 -0.37500
O 	O 	0.28430 0.73865 0.98262 -0.38500
O 	O 	0.23679 0.65272 0.06815 -0.37200
O 	O 	0.21998 0.69014 0.03012 -0.38800
O 	O 	0.39724 0.73315 0.97461 -0.36900
O 	O 	0.22500 0.55964 0.03076 -0.37900
O 	O 	0.28531 0.55189 0.99827 -0.36900
O 	O 	0.40397 0.80128 0.00732 -0.38300
O 	O 	0.36926 0.69955 0.07381 -0.36700
O 	O 	0.33928 0.76965 0.05804 -0.37400
O 	O 	0.25837 0.63754 0.97472 -0.38000
O 	O 	0.33194 0.67939 0.02300 -0.71600
H 	H 	0.37790 0.70335 0.02749 0.16100
C 	C 	0.05770 0.12745 0.18444 0.30700
C 	C 	0.11990 0.14098 0.25463 0.28700
C 	C 	0.98676 0.92950 0.18360 0.29700
C 	C 	0.05075 0.93495 0.25278 0.30700
Ni	Ni	0.07761 0.03677 0.21535 1.12100
O 	O 	0.04329 0.95703 0.19496 -0.37400
O 	O 	0.04791 0.14834 0.20655 -0.36900
O 	O 	0.05872 0.07464 0.18376 -0.38600
O 	O 	0.09458 0.99196 0.24449 -0.38600
O 	O 	0.06223 0.13363 0.26023 -0.36700
O 	O 	0.13187 0.12315 0.23177 -0.37600
C 	C 	0.20233 0.45758 0.01874 -0.08800
C 	C 	0.23924 0.42878 0.02378 0.02000
C 	C 	0.21379 0.37469 0.03933 -0.06800
C 	C 	0.15101 0.34859 0.04939 0.04100
C 	C 	0.11108 0.37155 0.04087 -0.06700
C 	C 	0.13662 0.42584 0.02549 0.02100
C 	C 	0.13273 0.30839 0.07204 -0.01800
C 	C 	0.11753 0.27474 0.09101 -0.01800
C 	C 	0.10085 0.23729 0.11446 0.04200
C 	C 	0.11322 0.26626 0.13881 -0.06900
C 	C 	0.09840 0.23043 0.16168 0.02000
C 	C 	0.07105 0.16516 0.16035 -0.08800
C 	C 	0.05799 0.13616 0.13587 0.02100
C 	C 	0.07295 0.17218 0.11302 -0.06900
H 	H 	0.28941 0.45150 0.01790 0.04100
H 	H 	0.24447 0.35608 0.04518 0.05300
H 	H 	0.06179 0.35043 0.04789 0.05600
H 	H 	0.10699 0.44647 0.02098 0.04700
H 	H 	0.13476 0.31663 0.14004 0.05200
H 	H 	0.10911 0.25351 0.18038 0.03900
H 	H 	0.03624 0.08580 0.13454 0.03900
H 	H 	0.06301 0.14945 0.09424 0.05300
C 	C 	0.68935 0.92322 0.18879 -0.06600
C 	C 	0.69595 0.94746 0.16349 0.03700
C 	C 	0.64028 0.92554 0.14721 -0.01600
C 	C 	0.59274 0.90625 0.13406 -0.01800
C 	C 	0.53529 0.87997 0.11867 0.04200
C 	C 	0.53978 0.88932 0.09158 -0.06400
C 	C 	0.48651 0.85285 0.07595 0.01700
C 	C 	0.42893 0.80638 0.08734 -0.08100
C 	C 	0.42308 0.80056 0.11456 0.02200
C 	C 	0.47609 0.83740 0.13018 -0.06700
H 	H 	0.73815 0.92050 0.22336 0.03900
H 	H 	0.64203 0.89091 0.19668 0.05000
H 	H 	0.58525 0.92261 0.08255 0.05300
H 	H 	0.49112 0.85827 0.05495 0.03700
H 	H 	0.37845 0.76533 0.12353 0.03500
H 	H 	0.47206 0.83046 0.15113 0.05100
C 	C 	0.15121 0.67785 0.06675 -0.09100
C 	C 	0.15001 0.68326 0.09399 0.02500
C 	C 	0.11035 0.70320 0.10552 -0.07200
C 	C 	0.07154 0.71779 0.08999 0.05100
C 	C 	0.06857 0.70748 0.06309 -0.07100
C 	C 	0.10795 0.68717 0.05150 0.02400
C 	C 	0.04228 0.75125 0.10114 -0.02900
C 	C 	0.01884 0.77925 0.11140 0.01000
C 	C 	0.99506 0.81521 0.12461 0.00700
C 	C 	0.02627 0.88015 0.12073 -0.04600
C 	C 	0.01797 0.91794 0.13876 0.02900
C 	C 	0.97816 0.89089 0.16069 -0.09600
C 	C 	0.94115 0.82549 0.16285 0.01900
C 	C 	0.94989 0.78772 0.14491 -0.05900
H 	H 	0.18204 0.67505 0.10612 0.03900
H 	H 	0.11215 0.71019 0.12640 0.05500
H 	H 	0.03782 0.71764 0.05101 0.05900
H 	H 	0.10649 0.68091 0.03059 0.04000
H 	H 	0.06040 0.90171 0.10478 0.04900
H 	H 	0.04581 0.96839 0.13663 0.03200
H 	H 	0.90952 0.80406 0.17953 0.03100
H 	H 	0.92473 0.73744 0.14782 0.04700
C 	C 	0.81640 0.99949 0.33870 -0.05500
C 	C 	0.82927 0.96477 0.35703 0.03400
C 	C 	0.78661 0.93668 0.37907 -0.01600
C 	C 	0.75036 0.91359 0.39741 -0.02000
C 	C 	0.70342 0.88289 0.41794 0.04200
C 	C 	0.66547 0.90837 0.42622 -0.06800
C 	C 	0.60580 0.86999 0.43830 0.02000
C 	C 	0.58340 0.80576 0.44164 -0.09100
C 	C 	0.62585 0.78291 0.43705 0.02300
C 	C 	0.68567 0.82137 0.42512 -0.06900
H 	H 	0.83484 0.03850 0.29995 0.04000
H 	H 	0.77992 0.01223 0.34276 0.04500
H 	H 	0.67964 0.95644 0.42142 0.05300
H 	H 	0.57444 0.88880 0.44252 0.04000
H 	H 	0.61004 0.73388 0.44039 0.03700
H 	H 	0.71564 0.80176 0.41950 0.05300
C 	C 	0.17465 0.18433 0.27069 -0.08100
C 	C 	0.23115 0.23160 0.25878 0.01800
C 	C 	0.27705 0.28092 0.27363 -0.06700
C 	C 	0.26687 0.28312 0.30043 0.04100
C 	C 	0.21335 0.23322 0.31267 -0.06600
C 	C 	0.16734 0.18398 0.29786 0.01800
C 	C 	0.30474 0.34036 0.31438 -0.01700
C 	C 	0.33567 0.38773 0.32651 -0.01800
C 	C 	0.36883 0.44470 0.34109 0.04200
C 	C 	0.38346 0.50166 0.32920 -0.07000
C 	C 	0.39846 0.55391 0.34445 0.02200
C 	C 	0.39867 0.54938 0.37178 -0.09100
C 	C 	0.39084 0.49414 0.38340 0.02000
C 	C 	0.37557 0.44188 0.36809 -0.06900
H 	H 	0.23778 0.23211 0.23785 0.03900
H 	H 	0.31871 0.31901 0.26407 0.05100
H 	H 	0.20562 0.23417 0.33346 0.05300
H 	H 	0.12464 0.14703 0.30734 0.03600
H 	H 	0.37942 0.50448 0.30826 0.05200
H 	H 	0.40608 0.59662 0.33510 0.04000
H 	H 	0.39334 0.49064 0.40438 0.03800
H 	H 	0.36553 0.39828 0.37738 0.05400
C 	C 	0.23770 0.67093 0.36199 -0.08400
C 	C 	0.22966 0.66312 0.33496 0.02400
C 	C 	0.19374 0.68501 0.32167 -0.06700
C 	C 	0.16548 0.71440 0.33541 0.04300
C 	C 	0.16809 0.71636 0.36266 -0.06500
C 	C 	0.20469 0.69533 0.37589 0.02000
C 	C 	0.14425 0.75170 0.32157 -0.01400
C 	C 	0.12648 0.78294 0.30997 -0.01800
C 	C 	0.10776 0.82220 0.29612 0.04800
C 	C 	0.04559 0.81332 0.29929 -0.07700
C 	C 	0.02771 0.85189 0.28593 0.04300
C 	C 	0.07195 0.89951 0.26923 -0.09300
C 	C 	0.13473 0.90917 0.26660 0.02700
C 	C 	0.15245 0.87056 0.27998 -0.07200
H 	H 	0.25487 0.64417 0.32405 0.03400
H 	H 	0.19121 0.68256 0.30059 0.05300
H 	H 	0.14569 0.73832 0.37345 0.05700
H 	H 	0.21195 0.70300 0.39665 0.03000
H 	H 	0.01105 0.77645 0.31200 0.05900
H 	H 	0.16924 0.94543 0.25368 0.03700
H 	H 	0.20081 0.87799 0.27763 0.05400
C 	C 	0.53039 0.10171 0.49135 -0.04000
C 	C 	0.56190 0.08338 0.47307 0.02200
C 	C 	0.62596 0.12524 0.46583 -0.06100
C 	C 	0.65862 0.18527 0.47657 0.02800
C 	C 	0.62730 0.20306 0.49522 -0.08300
C 	C 	0.56360 0.16075 0.50267 0.01500
C 	C 	0.52880 0.01951 0.46218 0.01800
C 	C 	0.50506 0.01020 0.43667 -0.06200
C 	C 	0.46860 0.94948 0.42688 0.02800
C 	C 	0.45506 0.89753 0.44288 -0.08100
C 	C 	0.47865 0.90708 0.46842 0.01300
C 	C 	0.51694 0.96760 0.47783 -0.03800
C 	C 	0.44351 0.94089 0.40076 0.07500
C 	C 	0.54428 0.97616 0.50355 0.09200
C 	C 	0.46363 0.06045 0.49830 0.09100
C 	C 	0.72295 0.22903 0.46749 0.08000
N 	N 	0.42340 0.93399 0.37984 -0.10900
N 	N 	0.56619 0.98307 0.52414 -0.11800
N 	N 	0.77444 0.26404 0.46014 -0.10500
N 	N 	0.41017 0.02740 0.50388 -0.11500
H 	H 	0.53944 0.17443 0.51694 0.04300
H 	H 	0.65015 0.11119 0.45172 0.05200
H 	H 	0.51414 0.05017 0.42463 0.05400
H 	H 	0.46869 0.86724 0.48072 0.03800
C 	C 	0.04250 0.59463 0.48206 0.04500
C 	C 	0.09258 0.61771 0.50023 -0.06400
C 	C 	0.15687 0.64332 0.49187 0.02900
C 	C 	0.17083 0.64288 0.46501 -0.07400
C 	C 	0.12142 0.62810 0.44688 0.01500
C 	C 	0.05751 0.60350 0.45526 -0.05000
C 	C 	0.20764 0.67429 0.51060 0.08700
C 	C 	0.00718 0.58462 0.43617 0.11600
N 	N 	0.24819 0.69937 0.52568 -0.10400
H 	H 	0.08135 0.61422 0.52089 0.06100
H 	H 	0.13201 0.63144 0.42619 0.04100
C 	C 	0.41307 0.48333 0.49598 -0.04100
C 	C 	0.42327 0.50086 0.52241 0.02300
C 	C 	0.39542 0.53423 0.53300 -0.05900
C 	C 	0.36325 0.55563 0.51689 0.03100
C 	C 	0.36069 0.54532 0.48979 -0.08300
C 	C 	0.38184 0.50572 0.47978 0.01500
C 	C 	0.46782 0.48948 0.53840 0.02100
C 	C 	0.53446 0.52782 0.53486 -0.05800
C 	C 	0.57714 0.51160 0.54639 0.02400
C 	C 	0.55270 0.45486 0.56060 -0.07800
C 	C 	0.48679 0.42188 0.56724 0.00900
C 	C 	0.44422 0.43867 0.55602 -0.04200
C 	C 	0.64561 0.55442 0.54441 0.08000
C 	C 	0.37637 0.40293 0.56229 0.08500
C 	C 	0.43603 0.44382 0.48525 0.09000
C 	C 	0.33457 0.58972 0.52814 0.07300
N 	N 	0.70046 0.58875 0.54282 -0.10800
N 	N 	0.32198 0.37447 0.56732 -0.11800
N 	N 	0.31158 0.61699 0.53720 -0.10400
N 	N 	0.45445 0.41216 0.47669 -0.11700
H 	H 	0.37799 0.49592 0.45907 0.03900
H 	H 	0.40076 0.54538 0.55358 0.05600
H 	H 	0.55292 0.56944 0.52266 0.05500
H 	H 	0.46800 0.38076 0.57975 0.04200
C 	C 	0.62901 0.14758 0.59515 -0.09100
C 	C 	0.62763 0.13841 0.62227 0.02200
C 	C 	0.63662 0.10646 0.57851 0.02200
H 	H 	0.61972 0.16825 0.63540 0.03900
H 	H 	0.63484 0.11099 0.55755 0.04400
C 	C 	0.11260 0.06993 0.66994 -0.08500
C 	C 	0.11193 0.02552 0.65267 0.01900
C 	C 	0.14661 0.04489 0.62916 -0.06600
C 	C 	0.18199 0.10868 0.62269 0.04200
C 	C 	0.18000 0.15278 0.63922 -0.06700
C 	C 	0.14544 0.13358 0.66274 0.02000
C 	C 	0.22687 0.12944 0.60107 -0.01600
C 	C 	0.26468 0.14758 0.58305 -0.01600
C 	C 	0.31351 0.17023 0.56289 0.04300
C 	C 	0.34107 0.23237 0.55411 -0.06900
C 	C 	0.40266 0.26202 0.54273 0.02100
C 	C 	0.43751 0.23013 0.54103 -0.08800
C 	C 	0.40503 0.16513 0.54540 0.02200
C 	C 	0.34333 0.13536 0.55657 -0.06700
H 	H 	0.08559 0.97616 0.65765 0.04400
H 	H 	0.14762 0.01046 0.61642 0.05400
H 	H 	0.20711 0.20218 0.63432 0.05400
H 	H 	0.14606 0.16839 0.67573 0.04000
H 	H 	0.31696 0.25894 0.55779 0.06000
H 	H 	0.42524 0.31104 0.53741 0.04200
H 	H 	0.43009 0.13904 0.54275 0.03900
H 	H 	0.32126 0.08656 0.56234 0.05600
C 	C 	0.07406 0.60053 0.93262 0.00600
C 	C 	0.12937 0.61144 0.91875 -0.05200
C 	C 	0.19034 0.65022 0.92920 0.02900
C 	C 	0.19566 0.67628 0.95407 -0.08200
C 	C 	0.14160 0.67534 0.96522 0.01500
C 	C 	0.08052 0.63739 0.95461 -0.03900
C 	C 	0.24708 0.65998 0.91513 0.07500
C 	C 	0.02458 0.63333 0.96734 0.10200
N 	N 	0.29258 0.66782 0.90387 -0.10800
H 	H 	0.00528 0.57812 0.88858 0.07300
H 	H 	0.12480 0.58645 0.90084 0.05400
H 	H 	0.14619 0.69910 0.98349 0.03900
C 	C 	0.53014 0.93360 0.95063 -0.03900
C 	C 	0.58460 0.96271 0.96690 0.02600
C 	C 	0.59512 0.92627 0.98523 -0.05900
C 	C 	0.54766 0.86387 0.98994 0.02300
C 	C 	0.48953 0.83746 0.97599 -0.07300
C 	C 	0.48383 0.87067 0.95486 0.01200
C 	C 	0.62238 0.03204 0.96862 0.01600
C 	C 	0.61103 0.06149 0.98967 -0.05700
C 	C 	0.63092 0.12537 0.98832 0.02400
C 	C 	0.66167 0.16004 0.96555 -0.07300
C 	C 	0.68084 0.13255 0.94615 0.00400
C 	C 	0.66207 0.06881 0.94777 -0.03700
C 	C 	0.61544 0.15399 0.00957 0.08200
C 	C 	0.68188 0.04111 0.92761 0.08400
C 	C 	0.51870 0.96925 0.93104 0.09400
C 	C 	0.55738 0.82824 0.01008 0.06900
N 	N 	0.60303 0.17696 0.02657 -0.10300
N 	N 	0.69772 0.01890 0.91144 -0.11900
N 	N 	0.56507 0.79965 0.02622 -0.10900
N 	N 	0.50945 0.99778 0.91537 -0.11700
H 	H 	0.44015 0.84956 0.94342 0.04700
H 	H 	0.63809 0.94774 0.99708 0.05300
H 	H 	0.58312 0.03385 0.00635 0.05200
H 	H 	0.70659 0.15965 0.92901 0.03400
C 	C 	0.48355 0.50480 0.04028 -0.04000
C 	C 	0.48181 0.47804 0.01586 0.02100
C 	C 	0.45171 0.48913 0.99483 -0.05900
C 	C 	0.42660 0.52937 0.99741 0.02600
C 	C 	0.42936 0.55741 0.02175 -0.07700
C 	C 	0.45679 0.54384 0.04317 0.01100
C 	C 	0.51836 0.44503 0.01112 0.02300
C 	C 	0.48946 0.38064 0.01643 -0.05900
C 	C 	0.52015 0.34711 0.00895 0.02800
C 	C 	0.57978 0.37816 0.99543 -0.08100
C 	C 	0.60919 0.44292 0.99085 0.01600
C 	C 	0.57922 0.47640 0.99880 -0.04000
C 	C 	0.49135 0.28180 0.01611 0.08000
C 	C 	0.61090 0.54305 0.99392 0.09200
C 	C 	0.51356 0.49322 0.06233 0.09000
C 	C 	0.39826 0.54152 0.97491 0.07200
N 	N 	0.46825 0.22948 0.02186 -0.10500
N 	N 	0.63624 0.59642 0.99001 -0.11500
N 	N 	0.37575 0.55117 0.95680 -0.11900
N 	N 	0.53764 0.48392 0.07999 -0.11500
H 	H 	0.45819 0.56443 0.06196 0.04200
H 	H 	0.45009 0.46819 0.97610 0.05500
H 	H 	0.44289 0.35661 0.02616 0.05300
H 	H 	0.65531 0.46722 0.98081 0.04500
C 	C 	0.60726 0.20017 0.86871 -0.07900
C 	C 	0.62018 0.20565 0.84181 0.02100
C 	C 	0.63838 0.16605 0.82970 -0.06600
C 	C 	0.64359 0.12067 0.84438 0.04100
C 	C 	0.62379 0.11057 0.87057 -0.06200
C 	C 	0.60495 0.14983 0.88265 0.01300
H 	H 	0.62040 0.24326 0.83066 0.03800
H 	H 	0.62610 0.07451 0.88189 0.06000
H 	H 	0.59300 0.14376 0.90321 0.04300
C 	C 	0.13586 0.16267 0.78500 -0.08000
C 	C 	0.19802 0.20864 0.77726 0.02000
C 	C 	0.24246 0.24672 0.79586 -0.06700
C 	C 	0.22521 0.23877 0.82232 0.04100
C 	C 	0.16172 0.19602 0.82988 -0.06500
C 	C 	0.11702 0.15814 0.81123 0.01700
C 	C 	0.27468 0.26696 0.84166 -0.01600
C 	C 	0.31768 0.29147 0.85716 -0.01800
C 	C 	0.37119 0.31862 0.87478 0.04400
C 	C 	0.36977 0.28567 0.89737 -0.06900
C 	C 	0.42693 0.30136 0.91042 0.02400
C 	C 	0.48598 0.34990 0.90080 -0.09200
C 	C 	0.48614 0.38705 0.87987 0.02600
C 	C 	0.42892 0.37130 0.86687 -0.06900
H 	H 	0.21271 0.21307 0.75698 0.03800
H 	H 	0.29126 0.28016 0.78983 0.05200
H 	H 	0.14783 0.18996 0.85029 0.05400
H 	H 	0.06891 0.12309 0.81735 0.03400
H 	H 	0.32510 0.24548 0.90387 0.05300
H 	H 	0.42575 0.27316 0.92692 0.03000
H 	H 	0.53104 0.42600 0.87280 0.03500
H 	H 	0.43022 0.39777 0.84971 0.05300
C 	C 	0.76332 0.59088 0.93648 0.02100
H 	H 	0.71230 0.57113 0.94044 0.03900
O 	O 	0.99242 0.90402 0.24216 -0.39400
C 	C 	0.74387 0.93958 0.20382 0.01700
C 	C 	0.84756 0.01436 0.31440 0.00300
C 	C 	0.73707 0.37209 0.60760 0.28700
O 	O 	0.78517 0.41668 0.90015 -0.36800
O 	O 	0.79027 0.35563 0.93358 -0.38800
C 	C 	0.78709 0.42915 0.52223 0.29400
O 	O 	0.74546 0.33165 0.59330 -0.37300
O 	O 	0.78909 0.40328 0.54461 -0.38900
C 	C 	0.75725 0.98923 0.15344 -0.05600
H 	H 	0.76267 0.00800 0.13384 0.04600
C 	C 	0.87707 0.94922 0.35173 -0.06400
H 	H 	0.88787 0.92303 0.36591 0.04900
C 	C 	0.64137 0.09376 0.63255 -0.06900
C 	C 	0.65642 0.05795 0.61587 0.04100
C 	C 	0.65077 0.06208 0.58887 -0.06700
H 	H 	0.66079 0.03340 0.57586 0.05700
C 	C 	0.77858 0.41978 0.65072 0.02100
C 	C 	0.78969 0.41660 0.62404 -0.08100
H 	H 	0.80980 0.47616 0.68515 0.05200
H 	H 	0.73530 0.38325 0.66003 0.03600
C 	C 	0.67745 0.09118 0.83360 -0.01500
C 	C 	0.70618 0.06789 0.82364 -0.01700
H 	H 	0.65209 0.17314 0.80927 0.05100
H 	H 	0.79053 0.03947 0.84573 0.05500
C 	C 	0.85903 0.58078 0.93477 0.02300
C 	C 	0.79237 0.55370 0.93901 -0.08900
C 	C 	0.79902 0.65218 0.92690 -0.06700
H 	H 	0.77521 0.67915 0.92338 0.05500
O 	O 	0.93653 0.00167 0.69957 -0.40300
C 	C 	0.81887 0.39977 0.91548 0.30200
C 	C 	0.80553 0.98045 0.19363 -0.08300
C 	C 	0.81191 0.00574 0.16845 0.00800
C 	C 	0.89183 0.99447 0.30826 -0.07500
C 	C 	0.90838 0.96411 0.32746 0.01200
C 	C 	0.84877 0.46944 0.50846 -0.07200
N 	N 	0.85798 0.33027 0.51128 -0.11300
H 	H 	0.83546 0.54996 0.50726 0.04800
C 	C 	0.68816 0.02605 0.62615 -0.01600
H 	H 	0.64421 0.08974 0.65349 0.05100
C 	C 	0.90506 0.58271 0.66454 -0.01900
C 	C 	0.87420 0.52215 0.65258 0.04000
C 	C 	0.82087 0.47235 0.66496 -0.06700
C 	C 	0.84684 0.46328 0.61242 0.01400
C 	C 	0.88886 0.51617 0.62664 -0.06500
H 	H 	0.85642 0.46076 0.59193 0.03900
H 	H 	0.93053 0.55411 0.61701 0.05200
C 	C 	0.74227 0.04311 0.81080 0.04200
C 	C 	0.78705 0.03368 0.82477 -0.06800
C 	C 	0.86389 0.67662 0.91984 0.04200
C 	C 	0.89456 0.64190 0.92502 -0.06600
H 	H 	0.86191 0.83576 0.86829 0.05100
H 	H 	0.88244 0.55317 0.93733 0.04300
C 	C 	0.91503 0.99880 0.28118 0.28600
C 	C 	0.86318 0.99653 0.20917 0.31100
C 	C 	0.86847 0.53263 0.50353 0.00700
C 	C 	0.87300 0.38225 0.50782 0.07300
C 	C 	0.71462 0.00021 0.63574 -0.02300
H 	H 	0.83113 0.01769 0.62226 0.04900
C 	C 	0.95314 0.69506 0.68512 0.03700
C 	C 	0.92736 0.63353 0.67434 -0.01700
H 	H 	0.92793 0.73221 0.65179 0.05200
H 	H 	0.98324 0.67183 0.72112 0.04800
H 	H 	0.90054 0.40370 0.95307 0.03000
C 	C 	0.90725 0.84765 0.85884 -0.06300
C 	C 	0.91798 0.77275 0.88712 -0.01500
C 	C 	0.89443 0.73030 0.90274 -0.02200
H 	H 	0.89337 0.89817 0.82759 0.03300
H 	H 	0.94495 0.66076 0.91999 0.05100
O 	O 	0.91665 0.04281 0.26536 -0.37400
O 	O 	0.92103 0.95139 0.27204 -0.38100
H 	H 	0.85920 0.03725 0.16033 0.03800
H 	H 	0.94369 0.94995 0.32323 0.03400
C 	C 	0.89214 0.44727 0.50358 0.02100
C 	C 	0.74894 0.97341 0.64830 0.04600
C 	C 	0.81216 0.99210 0.64041 -0.06600
C 	C 	0.94583 0.74065 0.67157 -0.06500
C 	C 	0.97708 0.70671 0.71057 -0.06000
C 	C 	0.89001 0.44072 0.91623 -0.09700
C 	C 	0.82900 0.01879 0.81155 0.01700
C 	C 	0.73812 0.03547 0.78373 -0.06900
H 	H 	0.86429 0.01273 0.82240 0.03000
H 	H 	0.70352 0.04249 0.77281 0.05100
C 	C 	0.92500 0.88289 0.83575 0.01400
C 	C 	0.94523 0.82350 0.86848 0.02600
O 	O 	0.85365 0.92370 0.72292 -0.38800
O 	O 	0.87672 0.95199 0.77551 -0.38400
O 	O 	0.94396 0.87896 0.77807 -0.37600
O 	O 	0.91323 0.05298 0.20726 -0.38700
O 	O 	0.86081 0.95750 0.22730 -0.38200
C 	C 	0.85264 0.98208 0.65685 0.02000
C 	C 	0.72441 0.93911 0.67148 -0.07100
H 	H 	0.90226 0.99914 0.65105 0.03700
H 	H 	0.67524 0.92365 0.67752 0.05300
C 	C 	0.97821 0.80584 0.71000 -0.07900
C 	C 	0.95816 0.79579 0.68397 0.01500
C 	C 	0.98982 0.76209 0.72297 -0.00300
H 	H 	0.95039 0.82990 0.67359 0.03800
H 	H 	0.00585 0.76963 0.74301 0.05400
C 	C 	0.92316 0.44151 0.93890 0.03000
N 	N 	0.87841 0.47452 0.84985 -0.11100
C 	C 	0.98103 0.89441 0.82224 -0.09200
Ni	Ni	0.90828 0.91181 0.74970 1.12100
O 	O 	0.93539 0.87276 0.72119 -0.38100
C 	C 	0.93164 0.57413 0.49495 -0.03300
C 	C 	0.83012 0.95362 0.68139 -0.09300
C 	C 	0.76472 0.92905 0.68796 0.02300
C 	C 	0.92280 0.48765 0.89695 0.04600
C 	C 	0.89811 0.48033 0.87081 0.06700
C 	C 	0.82676 0.01403 0.78429 -0.08300
C 	C 	0.78020 0.02107 0.77051 0.01900
C 	C 	0.00445 0.84030 0.85643 -0.05300
C 	C 	0.02241 0.87581 0.83337 0.03100
C 	C 	0.98133 0.85886 0.72422 0.28900
C 	C 	0.98953 0.91467 0.79485 0.27600
C 	C 	0.87602 0.95720 0.70136 0.31500
C 	C 	0.87390 0.00348 0.77002 0.28600
C 	C 	0.95489 0.48864 0.49494 -0.05100
C 	C 	0.95136 0.63917 0.49050 0.08500
H 	H 	0.74603 0.90553 0.70652 0.03900
C 	C 	0.98403 0.49253 0.94402 -0.08900
H 	H 	0.77715 0.01612 0.74951 0.03600
H 	H 	0.03459 0.82257 0.86397 0.05300
Ni	Ni	0.98456 0.08932 0.23528 1.10600
Ni	Ni	0.93430 0.94027 0.23383 1.11900
C 	C 	0.97538 0.55213 0.49102 0.00100
N 	N 	0.96720 0.69130 0.48691 -0.11600
H 	H 	0.98815 0.47150 0.49141 0.05000
C 	C 	0.01804 0.49136 0.96701 0.12000
N 	N 	0.04536 0.49056 0.98542 -0.12000
H 	H 	0.06623 0.88514 0.82327 0.03700
C 	C 	0.98196 0.54039 0.90276 -0.11500
N 	N 	0.97988 0.63011 0.97765 -0.13100
H 	H 	0.97934 0.84436 0.28833 0.01900
O 	O 	0.93578 0.92521 0.19542 -0.38900
O 	O 	0.90084 0.03767 0.74847 -0.38400
O 	O 	0.04732 0.95861 0.78652 -0.35900
O 	O 	0.00309 0.02398 0.23372 -0.71200
H 	H 	0.01833 0.02572 0.25164 0.15500
N 	N 	0.96683 0.56947 0.42090 -0.12900
C 	C 	0.01163 0.54423 0.92668 0.07200
O 	O 	0.02868 0.89048 0.74045 -0.35800
