data_crystal

_cell_length_a 27.76068
_cell_length_b 28.52811
_cell_length_c 30.34406
_cell_angle_alpha 61.12393
_cell_angle_beta  118.57118
_cell_angle_gamma 133.22093

_symmetry_space_group_name_	'P 1'
_symmetry_space_group_name_H-M	'P 1'

loop_
_symmetry_equiv_pos_as_xyz
  x,y,z

loop_
_atom_site_label
_atom_site_type_symbol
_atom_site_fract_x
_atom_site_fract_y
_atom_site_fract_z
_atom_site_charge
Co	Co	0.09615 0.00596 0.16732 1.19300
Co	Co	0.01760 0.03346 0.19581 1.19100
Co	Co	0.10586 0.94837 0.10413 1.17700
C 	C 	0.01308 0.14568 0.18133 0.30600
O 	O 	0.10557 0.04545 0.21402 -0.43600
O 	O 	0.05128 0.12883 0.18814 -0.35000
O 	O 	0.05760 0.97176 0.11761 -0.75800
O 	O 	0.10286 0.92906 0.22062 -0.37800
Co	Co	0.09405 0.97788 0.67980 1.19200
Co	Co	0.02602 0.01978 0.70543 1.18800
Co	Co	0.10164 0.92495 0.61156 1.17800
O 	O 	0.00528 0.13048 0.69741 -0.37100
C 	C 	0.06202 0.13594 0.72418 0.30400
O 	O 	0.10069 0.00811 0.73216 -0.42700
O 	O 	0.05727 0.95136 0.62627 -0.76000
O 	O 	0.09071 0.89385 0.72741 -0.37300
C 	C 	0.04139 0.00050 0.87009 0.12300
C 	C 	0.05541 0.00306 0.92022 -0.02600
H 	H 	0.10712 0.02528 0.94337 0.08300
C 	C 	0.06338 0.00077 0.42611 0.12800
C 	C 	0.04924 0.00053 0.37513 -0.01800
H 	H 	0.09076 0.02685 0.35797 0.08400
H 	H 	0.04562 0.12321 0.81066 0.06000
O 	O 	0.02030 0.18187 0.83948 -0.08200
H 	H 	0.04030 0.75413 0.73092 0.08500
O 	O 	0.04931 0.61571 0.77849 -0.06600
C 	C 	0.00977 0.23714 0.16744 -0.00200
C 	C 	0.10520 0.80580 0.24944 -0.00300
N 	N 	0.07844 0.70741 0.24297 -0.01600
H 	H 	0.05268 0.78775 0.23099 0.08300
O 	O 	0.06050 0.65132 0.27739 -0.06600
O 	O 	0.05192 0.70804 0.19407 -0.06400
O 	O 	0.01497 0.99822 0.63685 -0.56400
O 	O 	0.03693 0.67459 0.69651 -0.06200
O 	O 	0.05757 0.27822 0.31340 -0.07000
C 	C 	0.04565 0.20936 0.19095 -0.08100
O 	O 	0.04501 0.92104 0.53569 -0.38100
N 	N 	0.06580 0.67244 0.74544 -0.01500
C 	C 	0.02235 0.95706 0.50453 0.32200
O 	O 	0.02497 0.82558 0.63266 -0.37000
C 	C 	0.00996 0.96893 0.44826 -0.07000
C 	C 	0.03417 0.29171 0.18088 0.06200
N 	N 	0.08573 0.21478 0.84852 -0.01700
C 	C 	0.14337 0.92163 0.21810 0.32200
O 	O 	0.08331 0.11632 0.71042 -0.35000
C 	C 	0.08812 0.17224 0.79665 -0.00100
C 	C 	0.09167 0.77020 0.75238 -0.00400
Br	Br	0.11514 0.03798 0.84413 -0.20700
O 	O 	0.07429 0.43197 0.74771 -0.06000
N 	N 	0.12105 0.32930 0.31734 -0.01900
C 	C 	0.12618 0.76817 0.25888 0.06900
O 	O 	0.12087 0.15614 0.29373 -0.08500
O 	O 	0.04624 0.93644 0.02979 -0.39000
C 	C 	0.10794 0.23848 0.22761 0.12700
C 	C 	0.13155 0.88636 0.72544 0.32000
H 	H 	0.09641 0.34257 0.74744 0.08800
C 	C 	0.11252 0.73186 0.76316 0.07000
C 	C 	0.09735 0.32211 0.21584 0.03300
C 	C 	0.15345 0.87052 0.25655 -0.08400
C 	C 	0.11042 0.18292 0.75761 -0.07800
O 	O 	0.03443 0.84857 0.13044 -0.37100
O 	O 	0.16900 0.95468 0.17752 -0.39200
O 	O 	0.16984 0.04992 0.07910 -0.36600
C 	C 	0.11457 0.22577 0.81304 0.06400
C 	C 	0.13922 0.83323 0.76271 -0.08100
C 	C 	0.13430 0.29577 0.23855 -0.06900
C 	C 	0.14118 0.38776 0.27576 0.07600
C 	C 	0.12726 0.38447 0.22570 0.02100
C 	C 	0.01736 0.96667 0.99737 0.32400
N 	N 	0.14279 0.20838 0.25570 -0.02200
Br	Br	0.15629 0.04736 0.46408 -0.17700
O 	O 	0.12432 0.23397 0.89140 -0.06500
N 	N 	0.13066 0.45946 0.73792 -0.02200
O 	O 	0.00515 0.00872 0.12881 -0.57000
H 	H 	0.13026 0.43846 0.14592 0.09300
O 	O 	0.16029 0.92194 0.68635 -0.39000
C 	C 	0.14554 0.37183 0.77178 -0.05600
C 	C 	0.14259 0.44118 0.18471 -0.05500
O 	O 	0.14758 0.50534 0.69565 -0.06800
O 	O 	0.17180 0.02659 0.59281 -0.35400
C 	C 	0.16744 0.24632 0.74116 0.13300
O 	O 	0.16549 0.32854 0.36027 -0.07300
C 	C 	0.16631 0.29041 0.79197 0.03400
C 	C 	0.17039 0.43472 0.77092 0.10400
O 	O 	0.17448 0.53677 0.88200 -0.06200
O 	O 	0.17225 0.59499 0.14494 -0.07000
C 	C 	0.18077 0.75503 0.78755 0.03000
C 	C 	0.17568 0.44900 0.28499 -0.02700
C 	C 	0.17438 0.50156 0.19359 0.10300
C 	C 	0.00296 0.97532 0.94130 -0.07300
H 	H 	0.18196 0.65082 0.85808 0.09200
O 	O 	0.18995 0.08342 0.14579 -0.35300
C 	C 	0.18608 0.34890 0.80086 0.02000
H 	H 	0.18300 0.31904 0.26550 0.09300
O 	O 	0.18408 0.57459 0.36854 -0.06500
O 	O 	0.19205 0.80439 0.67456 -0.07900
O 	O 	0.19237 0.05068 0.66567 -0.34900
C 	C 	0.19486 0.29981 0.75821 -0.07100
H 	H 	0.19005 0.45230 0.32402 0.08500
N 	N 	0.18887 0.55886 0.15111 -0.02200
C 	C 	0.19487 0.50647 0.24449 -0.02400
N 	N 	0.19523 0.25736 0.70495 -0.02300
C 	C 	0.19536 0.79358 0.27942 0.03000
O 	O 	0.19548 0.29850 0.65997 -0.07000
N 	N 	0.99386 0.31537 0.15976 -0.01900
O 	O 	0.97742 0.33653 0.10998 -0.07600
H 	H 	0.96133 0.21473 0.14005 0.07100
O 	O 	0.97275 0.31483 0.19024 -0.06400
O 	O 	0.99161 0.97494 0.26701 -0.37800
O 	O 	0.97870 0.96091 0.76682 -0.36600
O 	O 	0.94774 0.11191 0.15894 -0.38600
O 	O 	0.91392 0.99199 0.75211 -0.38400
C 	C 	0.73090 0.31229 0.03689 0.15700
N 	N 	0.76615 0.37905 0.02681 -0.12600
C 	C 	0.74511 0.40408 0.03594 0.16000
N 	N 	0.68928 0.36247 0.05528 -0.12400
C 	C 	0.65486 0.29595 0.06651 0.15900
N 	N 	0.67538 0.27068 0.05702 -0.12900
C 	C 	0.72125 0.29918 0.52463 0.15600
N 	N 	0.66532 0.25654 0.54444 -0.13000
C 	C 	0.64730 0.28015 0.55877 0.15900
N 	N 	0.68410 0.34629 0.55209 -0.12400
C 	C 	0.73964 0.38913 0.53217 0.16000
N 	N 	0.75877 0.36565 0.51877 -0.12300
C 	C 	0.28354 0.67027 0.26237 0.15900
N 	N 	0.23563 0.60464 0.26296 -0.12000
C 	C 	0.24987 0.57155 0.25660 0.15800
N 	N 	0.31221 0.60367 0.25083 -0.13200
C 	C 	0.35852 0.66987 0.24642 0.15900
N 	N 	0.34427 0.70352 0.25218 -0.12300
C 	C 	0.29031 0.64081 0.78618 0.15600
N 	N 	0.35243 0.68007 0.77567 -0.12300
C 	C 	0.37336 0.65279 0.76923 0.15700
N 	N 	0.33243 0.58671 0.77357 -0.13400
C 	C 	0.27266 0.54687 0.78704 0.15800
N 	N 	0.25093 0.57387 0.79275 -0.11600
Co	Co	0.89554 0.96412 0.11726 1.18800
Co	Co	0.97640 0.94228 0.08677 1.19000
Co	Co	0.88243 0.01177 0.18721 1.17600
O 	O 	0.93641 0.00463 0.16352 -0.75300
O 	O 	0.88744 0.92771 0.06912 -0.43600
C 	C 	0.83077 0.03322 0.07310 0.32500
C 	C 	0.97018 0.98692 0.28837 0.31700
C 	C 	0.21175 0.08739 0.11246 0.31500
C 	C 	0.96910 0.82181 0.11140 0.30900
O 	O 	0.81185 0.00133 0.11689 -0.39500
O 	O 	0.86508 0.02426 0.06340 -0.36700
O 	O 	0.94745 0.02308 0.26005 -0.37400
O 	O 	0.94151 0.84359 0.11433 -0.37300
C 	C 	0.78859 0.87243 0.18115 0.31100
O 	O 	0.82506 0.91012 0.21351 -0.36500
O 	O 	0.81767 0.87566 0.15445 -0.36400
O 	O 	0.99549 0.98325 0.01388 -0.36600
Co	Co	0.91050 0.97106 0.61874 1.18600
Co	Co	0.97766 0.92731 0.59455 1.18700
Co	Co	0.91359 0.04559 0.67531 1.17500
O 	O 	0.95819 0.01817 0.66151 -0.74600
O 	O 	0.89247 0.91901 0.57831 -0.44600
C 	C 	0.87557 0.07119 0.56163 0.31200
C 	C 	0.95994 0.98083 0.78314 0.29900
C 	C 	0.21377 0.06025 0.62893 0.31300
C 	C 	0.96068 0.80293 0.61284 0.30500
O 	O 	0.91641 0.09985 0.60022 -0.37500
O 	O 	0.87407 0.02550 0.55805 -0.34900
O 	O 	0.93648 0.82677 0.61783 -0.37200
C 	C 	0.80113 0.90452 0.66829 0.31900
O 	O 	0.81605 0.96411 0.65249 -0.38900
O 	O 	0.83758 0.89519 0.66191 -0.37700
O 	O 	0.99633 0.96915 0.52129 -0.37700
C 	C 	0.92223 0.94568 0.86031 -0.02500
C 	C 	0.97431 0.97194 0.83949 -0.07400
C 	C 	0.93575 0.94532 0.91122 0.12600
Br	Br	0.86086 0.90024 0.93951 -0.20100
H 	H 	0.87117 0.92668 0.83650 0.08800
C 	C 	0.94293 0.93700 0.41889 -0.03400
C 	C 	0.98226 0.97000 0.34530 -0.07700
C 	C 	0.92880 0.93678 0.36801 0.13200
Br	Br	0.83583 0.88958 0.33058 -0.20100
H 	H 	0.90138 0.91026 0.43618 0.07500
C 	C 	0.24898 0.38621 0.83356 0.07800
C 	C 	0.27235 0.44768 0.83435 -0.02800
C 	C 	0.23571 0.47435 0.80047 -0.02400
N 	N 	0.29136 0.36403 0.86333 -0.01900
H 	H 	0.32175 0.47714 0.85840 0.07900
H 	H 	0.23649 0.34914 0.74345 0.09300
O 	O 	0.35379 0.40267 0.85919 -0.07300
O 	O 	0.26876 0.30670 0.89652 -0.05800
O 	O 	0.22539 0.23064 0.71858 -0.06100
C 	C 	0.53111 0.78529 0.71472 -0.05500
C 	C 	0.56069 0.75195 0.73481 0.02000
C 	C 	0.53304 0.69021 0.77111 0.07500
C 	C 	0.47700 0.66300 0.78702 -0.02700
C 	C 	0.44312 0.69277 0.76307 -0.02600
C 	C 	0.47122 0.75504 0.72726 0.10400
C 	C 	0.62047 0.78174 0.71754 0.03100
N 	N 	0.55942 0.65326 0.78986 -0.02000
H 	H 	0.45671 0.61591 0.81546 0.07900
N 	N 	0.43779 0.78640 0.70193 -0.02200
H 	H 	0.55299 0.83347 0.68770 0.08900
C 	C 	0.61667 0.79691 0.66478 0.06500
C 	C 	0.67541 0.83083 0.64885 0.00300
C 	C 	0.73722 0.84733 0.68523 -0.08100
C 	C 	0.73775 0.82145 0.73842 0.12100
C 	C 	0.68100 0.79348 0.75420 -0.06800
N 	N 	0.55333 0.77764 0.62740 -0.01700
H 	H 	0.67342 0.84612 0.60804 0.08400
N 	N 	0.79338 0.81912 0.77602 -0.02400
H 	H 	0.68333 0.77931 0.79497 0.09500
O 	O 	0.38260 0.76372 0.66572 -0.07100
O 	O 	0.46554 0.84080 0.71201 -0.07300
O 	O 	0.57986 0.63422 0.83935 -0.07300
O 	O 	0.55762 0.63388 0.75776 -0.06600
O 	O 	0.82800 0.81434 0.76300 -0.07200
O 	O 	0.80206 0.81077 0.82466 -0.07700
O 	O 	0.54899 0.82149 0.58626 -0.06800
O 	O 	0.50123 0.71559 0.63282 -0.06800
C 	C 	0.20534 0.67136 0.82716 -0.05300
C 	C 	0.20854 0.72544 0.78710 0.02100
C 	C 	0.24096 0.75328 0.74784 0.08000
C 	C 	0.26876 0.72622 0.74860 -0.02800
C 	C 	0.26439 0.67122 0.78805 -0.01800
C 	C 	0.23331 0.64430 0.82805 0.10400
N 	N 	0.24643 0.80957 0.70741 -0.01800
H 	H 	0.29267 0.74735 0.71786 0.09100
N 	N 	0.23196 0.59097 0.87048 -0.02100
C 	C 	0.20429 0.85117 0.79421 0.12700
C 	C 	0.22494 0.81220 0.80611 -0.06800
N 	N 	0.25148 0.91192 0.81038 -0.02600
H 	H 	0.27645 0.82838 0.82730 0.09300
O 	O 	0.28854 0.59845 0.89984 -0.07100
O 	O 	0.30600 0.86474 0.70139 -0.06800
O 	O 	0.23119 0.92868 0.82730 -0.07100
O 	O 	0.31487 0.95019 0.80864 -0.07100
O 	O 	0.20021 0.23712 0.24686 -0.07200
O 	O 	0.21591 0.57321 0.11731 -0.07800
C 	C 	0.54128 0.77004 0.24219 -0.05800
C 	C 	0.53223 0.74816 0.20430 0.01900
C 	C 	0.46607 0.70624 0.17689 0.08100
C 	C 	0.41015 0.68778 0.18698 -0.03000
C 	C 	0.41867 0.70562 0.22735 -0.02400
C 	C 	0.48485 0.74803 0.25451 0.10200
C 	C 	0.59239 0.76985 0.19328 0.03200
N 	N 	0.45526 0.68031 0.14014 -0.01700
H 	H 	0.35943 0.65570 0.16562 0.08800
N 	N 	0.49502 0.76709 0.29569 -0.02200
H 	H 	0.59210 0.80276 0.26304 0.08400
C 	C 	0.61094 0.81343 0.14579 0.06800
C 	C 	0.67123 0.83776 0.13802 -0.00700
C 	C 	0.71527 0.82243 0.17830 -0.08300
C 	C 	0.69258 0.77250 0.22305 0.13400
C 	C 	0.63161 0.74712 0.23063 -0.07200
N 	N 	0.56993 0.83477 0.10605 -0.01500
H 	H 	0.68713 0.87403 0.10260 0.07700
N 	N 	0.73236 0.74889 0.26147 -0.02300
H 	H 	0.61525 0.71045 0.26581 0.09200
O 	O 	0.52694 0.82921 0.29203 -0.07100
O 	O 	0.47775 0.72327 0.33861 -0.07100
O 	O 	0.47841 0.64681 0.15422 -0.07400
O 	O 	0.41653 0.68439 0.09424 -0.06200
O 	O 	0.76215 0.73936 0.24749 -0.06400
O 	O 	0.73576 0.73348 0.31032 -0.06200
O 	O 	0.56006 0.86785 0.11462 -0.07500
O 	O 	0.54611 0.82486 0.06027 -0.05700
C 	C 	0.21887 0.70986 0.31559 -0.05400
C 	C 	0.22180 0.76437 0.27660 0.02200
C 	C 	0.25039 0.79136 0.23508 0.07800
C 	C 	0.27361 0.76227 0.23212 -0.02600
C 	C 	0.26805 0.70598 0.26996 -0.02100
C 	C 	0.24209 0.68070 0.31268 0.10500
N 	N 	0.25571 0.84821 0.19572 -0.01800
H 	H 	0.29388 0.78222 0.19942 0.08400
N 	N 	0.24026 0.62614 0.35357 -0.02200
H 	H 	0.19869 0.69013 0.34828 0.09200
C 	C 	0.22006 0.89075 0.28514 0.12800
C 	C 	0.24090 0.85236 0.29602 -0.06800
N 	N 	0.26821 0.95310 0.29907 -0.02700
H 	H 	0.29335 0.87017 0.31463 0.09400
O 	O 	0.29568 0.62975 0.37798 -0.06800
O 	O 	0.31507 0.90267 0.18824 -0.07100
O 	O 	0.20109 0.84424 0.16519 -0.08500
O 	O 	0.24964 0.97169 0.31585 -0.07400
O 	O 	0.33081 0.99092 0.29561 -0.06900
C 	C 	0.74672 0.10097 0.50785 -0.07100
C 	C 	0.78883 0.17018 0.49006 0.03300
C 	C 	0.84915 0.20023 0.47797 0.06200
C 	C 	0.87205 0.16246 0.49223 0.00200
C 	C 	0.83609 0.09570 0.51952 -0.08300
C 	C 	0.76940 0.06330 0.52127 0.12300
C 	C 	0.77591 0.21119 0.49308 0.02000
N 	N 	0.88880 0.26954 0.45359 -0.01600
H 	H 	0.92129 0.18674 0.48711 0.07600
N 	N 	0.72681 0.99285 0.54077 -0.02700
H 	H 	0.69812 0.07687 0.51400 0.09400
C 	C 	0.71553 0.20627 0.46378 0.07600
C 	C 	0.69887 0.23652 0.47362 -0.02800
C 	C 	0.74259 0.27296 0.51157 -0.02500
C 	C 	0.80444 0.28049 0.53912 0.10200
C 	C 	0.82078 0.24974 0.52968 -0.05600
N 	N 	0.67092 0.17046 0.42416 -0.01900
H 	H 	0.65181 0.23155 0.45176 0.08100
N 	N 	0.84970 0.31731 0.57806 -0.02300
H 	H 	0.86721 0.25368 0.55235 0.08500
O 	O 	0.72206 0.95419 0.52536 -0.08000
O 	O 	0.68984 0.96716 0.57162 -0.08900
O 	O 	0.95413 0.30695 0.47173 -0.07300
O 	O 	0.85990 0.29488 0.41235 -0.06200
O 	O 	0.83043 0.29716 0.61910 -0.07200
O 	O 	0.91192 0.36786 0.57445 -0.06900
O 	O 	0.60636 0.12586 0.42301 -0.07100
O 	O 	0.69415 0.18505 0.38757 -0.06100
C 	C 	0.77529 0.55079 0.50886 -0.05500
C 	C 	0.83792 0.58029 0.54419 0.02100
C 	C 	0.87450 0.55320 0.56692 0.07900
C 	C 	0.84487 0.49334 0.55807 -0.02700
C 	C 	0.77947 0.46071 0.52638 -0.02200
C 	C 	0.74656 0.49193 0.49903 0.10300
C 	C 	0.86245 0.63634 0.56028 0.03400
N 	N 	0.94099 0.58551 0.59990 -0.01800
H 	H 	0.87125 0.47050 0.57804 0.09000
N 	N 	0.68262 0.46253 0.46262 -0.02100
H 	H 	0.74816 0.57277 0.48986 0.09100
C 	C 	0.88168 0.69838 0.52488 0.06200
C 	C 	0.90581 0.75092 0.54121 -0.00300
C 	C 	0.91375 0.74320 0.59301 -0.08600
C 	C 	0.89026 0.68004 0.62753 0.13300
C 	C 	0.86478 0.62698 0.61095 -0.06900
N 	N 	0.87916 0.70897 0.47285 -0.01800
H 	H 	0.92277 0.79913 0.51434 0.06200
N 	N 	0.89226 0.66960 0.67943 -0.02700
H 	H 	0.84719 0.57856 0.63759 0.09600
O 	O 	0.67509 0.44326 0.42728 -0.07100
O 	O 	0.63254 0.45680 0.46383 -0.07500
O 	O 	0.95502 0.55225 0.64557 -0.06200
O 	O 	0.98851 0.64722 0.58323 -0.06500
O 	O 	0.86912 0.69096 0.68783 -0.07200
O 	O 	0.91107 0.63330 0.71771 -0.06900
O 	O 	0.84681 0.73259 0.43429 -0.07300
O 	O 	0.91429 0.70080 0.46414 -0.07000
C 	C 	0.53530 0.21255 0.64073 -0.05700
C 	C 	0.47088 0.17487 0.61001 0.02300
C 	C 	0.46494 0.16223 0.56742 0.07600
C 	C 	0.52362 0.19253 0.55327 -0.02700
C 	C 	0.58809 0.23447 0.58169 -0.02600
C 	C 	0.59388 0.24127 0.62742 0.10500
C 	C 	0.41026 0.15314 0.62008 0.03100
N 	N 	0.39938 0.11991 0.53778 -0.01800
H 	H 	0.51894 0.18567 0.51890 0.08100
N 	N 	0.65936 0.27829 0.65993 -0.02100
H 	H 	0.53995 0.22043 0.67453 0.09300
C 	C 	0.38621 0.10357 0.66446 0.06700
C 	C 	0.32551 0.07985 0.67093 -0.00300
C 	C 	0.28695 0.10286 0.63237 -0.07900
C 	C 	0.31406 0.15653 0.59042 0.13200
C 	C 	0.37569 0.18148 0.58456 -0.06800
N 	N 	0.42148 0.07495 0.70174 -0.01800
H 	H 	0.30538 0.03938 0.70377 0.08200
N 	N 	0.27830 0.18479 0.55311 -0.02400
H 	H 	0.39588 0.22186 0.55172 0.09300
O 	O 	0.70260 0.26546 0.67534 -0.06500
O 	O 	0.67482 0.32316 0.67567 -0.07100
O 	O 	0.38405 0.14069 0.48781 -0.06900
O 	O 	0.35618 0.05958 0.56045 -0.06700
O 	O 	0.25383 0.19890 0.56836 -0.07000
O 	O 	0.27327 0.19959 0.50399 -0.06000
O 	O 	0.44307 0.07721 0.74979 -0.06500
O 	O 	0.42698 0.04189 0.68857 -0.06300
C 	C 	0.81234 0.23395 0.06241 -0.05300
C 	C 	0.79003 0.22241 0.01396 0.01500
C 	C 	0.75182 0.24453 0.97206 0.08000
C 	C 	0.73434 0.27565 0.97964 -0.02600
C 	C 	0.75479 0.28508 0.02852 -0.02800
C 	C 	0.79522 0.26541 0.06983 0.10400
C 	C 	0.79882 0.17928 0.00950 0.03800
N 	N 	0.72935 0.23409 0.92210 -0.01900
H 	H 	0.70404 0.29165 0.94763 0.08200
N 	N 	0.81766 0.27590 0.11974 -0.02000
H 	H 	0.84150 0.21683 0.09475 0.08300
C 	C 	0.86440 0.19909 0.01747 0.05600
C 	C 	0.87394 0.15075 0.03158 0.00200
C 	C 	0.81857 0.08349 0.03703 -0.09400
C 	C 	0.75216 0.06588 0.01968 0.13500
C 	C 	0.74266 0.11379 0.00675 -0.07900
N 	N 	0.92125 0.26790 0.01180 -0.01500
H 	H 	0.92483 0.16497 0.04174 0.07000
N 	N 	0.69437 0.99891 0.01697 -0.03000
H 	H 	0.69181 0.09935 0.99725 0.09900
O 	O 	0.85467 0.33560 0.12507 -0.06400
O 	O 	0.80485 0.22633 0.16035 -0.06900
O 	O 	0.66569 0.20644 0.89798 -0.07100
O 	O 	0.77305 0.25541 0.89954 -0.06000
O 	O 	0.69476 0.96540 0.99969 -0.07300
O 	O 	0.63948 0.97324 0.02798 -0.07000
O 	O 	0.98121 0.28514 0.04131 -0.08300
O 	O 	0.91430 0.31274 0.97423 -0.06000
C 	C 	0.78390 0.56746 0.01136 -0.05800
C 	C 	0.84723 0.59693 0.04598 0.02200
C 	C 	0.88293 0.56905 0.06844 0.07800
C 	C 	0.85184 0.50846 0.06014 -0.02700
C 	C 	0.78570 0.47578 0.02943 -0.02300
C 	C 	0.75355 0.50770 0.00217 0.10400
C 	C 	0.87342 0.65383 0.06164 0.03400
N 	N 	0.94992 0.60120 0.10085 -0.01800
H 	H 	0.87760 0.48502 0.07996 0.08800
N 	N 	0.68891 0.47823 0.96645 -0.02000
H 	H 	0.75750 0.59018 0.99247 0.09500
C 	C 	0.89320 0.71563 0.02582 0.06200
C 	C 	0.91765 0.76876 0.04140 -0.00100
C 	C 	0.92543 0.76182 0.09290 -0.08700
C 	C 	0.90216 0.69914 0.12804 0.13500
C 	C 	0.87635 0.64547 0.11220 -0.06900
N 	N 	0.89042 0.72518 0.97401 -0.01700
H 	H 	0.93400 0.81651 0.01400 0.06800
N 	N 	0.90396 0.68966 0.17959 -0.02700
H 	H 	0.85859 0.59726 0.13920 0.09700
O 	O 	0.64000 0.47395 0.96811 -0.07000
O 	O 	0.67959 0.45749 0.93127 -0.06900
O 	O 	0.96380 0.56845 0.14693 -0.06500
O 	O 	0.99777 0.66231 0.08348 -0.06600
O 	O 	0.87891 0.70991 0.18699 -0.07100
O 	O 	0.92412 0.65485 0.21858 -0.06700
O 	O 	0.85853 0.74908 0.93510 -0.06900
O 	O 	0.92481 0.71571 0.96580 -0.06800
C 	C 	0.53722 0.23954 0.13754 -0.05600
C 	C 	0.47439 0.19459 0.10998 0.02300
C 	C 	0.47243 0.17296 0.07560 0.07500
C 	C 	0.53295 0.20230 0.06475 -0.02700
C 	C 	0.59541 0.25171 0.08894 -0.02500
C 	C 	0.59777 0.26674 0.12828 0.10600
C 	C 	0.41115 0.17539 0.11333 0.03100
N 	N 	0.40897 0.12228 0.05085 -0.01900
H 	H 	0.53101 0.18872 0.03588 0.08200
N 	N 	0.66171 0.31058 0.15822 -0.02100
H 	H 	0.53902 0.25436 0.16545 0.09300
C 	C 	0.38870 0.13683 0.15976 0.06600
C 	C 	0.32657 0.11586 0.16108 -0.00200
C 	C 	0.28500 0.13009 0.11583 -0.08500
C 	C 	0.30990 0.17291 0.07057 0.12900
C 	C 	0.37302 0.19567 0.06968 -0.07000
N 	N 	0.42719 0.11620 0.20490 -0.01800
H 	H 	0.30800 0.08363 0.19618 0.08100
N 	N 	0.26981 0.19104 0.02476 -0.02500
H 	H 	0.39159 0.22774 0.03458 0.09400
O 	O 	0.70836 0.30072 0.18016 -0.06300
O 	O 	0.67251 0.35913 0.16487 -0.07300
O 	O 	0.39334 0.13183 0.00093 -0.07300
O 	O 	0.36819 0.06547 0.07846 -0.07000
O 	O 	0.24575 0.21610 0.02668 -0.06800
O 	O 	0.25813 0.18331 0.98098 -0.06500
O 	O 	0.45034 0.13377 0.24705 -0.06600
O 	O 	0.43511 0.07621 0.20495 -0.06300
