data_crystal

_cell_length_a 23.17583
_cell_length_b 22.81199
_cell_length_c 52.79237
_cell_angle_alpha 89.79911
_cell_angle_beta  89.80081
_cell_angle_gamma 119.44159

_symmetry_space_group_name_	'P 1'
_symmetry_space_group_name_H-M	'P 1'

loop_
_symmetry_equiv_pos_as_xyz
  x,y,z

loop_
_atom_site_label
_atom_site_type_symbol
_atom_site_fract_x
_atom_site_fract_y
_atom_site_fract_z
_atom_site_charge
C 	C 	0.14212 0.07558 0.78758 0.31000
C 	C 	0.12404 0.05248 0.71725 0.32900
Ni	Ni	0.04616 0.95507 0.75848 1.09800
Ni	Ni	0.05078 0.09803 0.75062 1.11800
O 	O 	0.10147 0.00992 0.78890 -0.36900
O 	O 	0.13451 0.11525 0.77063 -0.36600
O 	O 	0.12849 0.01936 0.73673 -0.37100
O 	O 	0.08541 0.07923 0.71804 -0.37600
O 	O 	0.00347 0.00673 0.76184 -0.70700
H 	H 	0.00681 0.01481 0.78025 0.15900
C 	C 	0.03696 0.11525 0.18591 0.32700
C 	C 	0.05894 0.17204 0.25436 0.29600
C 	C 	0.03154 0.92924 0.20345 0.31500
C 	C 	0.05171 0.97487 0.27480 0.27600
Ni	Ni	0.07339 0.05861 0.22955 1.12500
O 	O 	0.07764 0.97680 0.21738 -0.38800
O 	O 	0.00507 0.13298 0.20204 -0.37300
O 	O 	0.05921 0.07473 0.19283 -0.37200
O 	O 	0.00834 0.92374 0.26082 -0.37600
O 	O 	0.08981 0.03556 0.26469 -0.35200
O 	O 	0.99322 0.13798 0.25513 -0.35300
O 	O 	0.09384 0.15428 0.23914 -0.36600
O 	O 	0.96887 0.91068 0.20699 -0.37600
C 	C 	0.08844 0.20494 0.11615 0.00100
C 	C 	0.07642 0.27492 0.08428 -0.02800
C 	C 	0.05010 0.22924 0.10448 -0.02600
C 	C 	0.06871 0.17186 0.14050 0.05800
C 	C 	0.05356 0.14574 0.16117 -0.09300
H 	H 	0.04832 0.29726 0.07660 0.05600
H 	H 	0.00155 0.21593 0.11197 0.05200
C 	C 	0.07789 0.80915 0.16092 -0.00100
C 	C 	0.08112 0.81416 0.13444 -0.02900
C 	C 	0.09205 0.76318 0.17322 -0.03000
C 	C 	0.06185 0.85240 0.17553 0.05200
C 	C 	0.04839 0.88812 0.18807 -0.09800
H 	H 	0.06974 0.84923 0.12479 0.04800
H 	H 	0.08916 0.75869 0.19369 0.04800
C 	C 	0.13566 0.45689 0.29763 -0.02900
C 	C 	0.10806 0.39394 0.28597 -0.03000
C 	C 	0.14755 0.36453 0.28083 0.00400
C 	C 	0.11751 0.29626 0.27187 0.04900
C 	C 	0.09136 0.23918 0.26424 -0.08300
H 	H 	0.10399 0.47748 0.30287 0.05200
H 	H 	0.05554 0.36698 0.28182 0.05000
C 	C 	0.09530 0.92766 0.34410 0.01600
C 	C 	0.05327 0.86345 0.35416 -0.03700
C 	C 	0.07545 0.83797 0.37368 -0.02400
C 	C 	0.08002 0.94665 0.32006 0.03500
C 	C 	0.06741 0.96059 0.29952 -0.08300
H 	H 	0.00509 0.83173 0.34585 0.05000
H 	H 	0.04450 0.78652 0.38009 0.05200
C 	C 	0.95599 0.46266 0.45383 0.01300
C 	C 	0.98064 0.49739 0.43088 -0.05700
C 	C 	0.04818 0.52619 0.42497 0.12800
C 	C 	0.09156 0.52036 0.44214 -0.07800
C 	C 	0.06517 0.47786 0.46331 -0.03000
C 	C 	0.99765 0.44925 0.46930 0.10700
H 	H 	0.09794 0.47148 0.47623 0.07500
Br	Br	0.08136 0.57768 0.39429 -0.23500
Br	Br	0.96413 0.39602 0.49958 -0.20200
C 	C 	0.16027 0.05798 0.69441 -0.09700
C 	C 	0.20876 0.64952 0.98661 -0.09200
C 	C 	0.14140 0.63008 0.98959 0.14900
C 	C 	0.09536 0.58702 0.97191 -0.07900
C 	C 	0.11652 0.56396 0.95117 0.01600
C 	C 	0.18462 0.59280 0.94597 0.09000
C 	C 	0.23058 0.63694 0.96345 -0.01100
Br	Br	0.21562 0.56833 0.91625 -0.20700
Br	Br	0.11072 0.65533 0.01918 -0.21700
C 	C 	0.20422 0.10098 0.80036 -0.08900
C 	C 	0.59688 0.23946 0.88971 0.30900
C 	C 	0.79494 0.50321 0.92602 0.32800
C 	C 	0.75457 0.36146 0.86268 0.33700
C 	C 	0.63931 0.38532 0.96130 0.31300
C 	C 	0.87110 0.37527 0.92704 0.33700
C 	C 	0.71204 0.22588 0.95915 0.31000
Ni	Ni	0.67990 0.38265 0.90500 1.11800
Ni	Ni	0.76101 0.37654 0.95408 1.12600
Ni	Ni	0.73906 0.28080 0.90710 1.12400
O 	O 	0.59632 0.28978 0.90187 -0.36000
O 	O 	0.65290 0.23687 0.88584 -0.36400
O 	O 	0.85229 0.41164 0.94011 -0.37900
O 	O 	0.77072 0.46898 0.90533 -0.36600
O 	O 	0.77808 0.47298 0.94832 -0.36300
O 	O 	0.69848 0.21213 0.93476 -0.37500
O 	O 	0.70146 0.36599 0.86782 -0.36400
O 	O 	0.78696 0.35340 0.88109 -0.37800
O 	O 	0.75396 0.28825 0.96728 -0.35700
O 	O 	0.64791 0.41163 0.93795 -0.34400
O 	O 	0.67331 0.35619 0.96936 -0.36400
O 	O 	0.82935 0.31145 0.92241 -0.37900
O 	O 	0.71186 0.33551 0.92440 -0.72000
H 	H 	0.67076 0.30026 0.93230 0.17300
C 	C 	0.73131 0.45561 0.59576 0.30800
C 	C 	0.48838 0.20791 0.57275 0.33400
C 	C 	0.68053 0.27439 0.61197 0.33200
C 	C 	0.53517 0.38321 0.55247 0.30500
C 	C 	0.65539 0.21581 0.53350 0.33500
C 	C 	0.72509 0.38973 0.51102 0.30600
Ni	Ni	0.59731 0.33272 0.59287 1.11600
Ni	Ni	0.58629 0.29489 0.53317 1.12700
Ni	Ni	0.72240 0.34226 0.56257 1.12500
O 	O 	0.66672 0.43277 0.59768 -0.37000
O 	O 	0.75575 0.41489 0.59027 -0.36700
O 	O 	0.59762 0.21333 0.53494 -0.36900
O 	O 	0.53785 0.23046 0.58839 -0.37100
O 	O 	0.49601 0.23744 0.55057 -0.35300
O 	O 	0.74914 0.40862 0.53414 -0.38100
O 	O 	0.65551 0.31312 0.61792 -0.36800
O 	O 	0.69261 0.26707 0.58835 -0.37300
O 	O 	0.66115 0.34464 0.50695 -0.34700
O 	O 	0.52809 0.35368 0.57504 -0.34900
O 	O 	0.56074 0.36793 0.53259 -0.36100
O 	O 	0.71080 0.27298 0.53639 -0.37800
O 	O 	0.63944 0.33948 0.56180 -0.71900
H 	H 	0.65352 0.38645 0.55703 0.16500
C 	C 	0.93230 0.87564 0.72416 0.32800
C 	C 	0.94053 0.88709 0.79890 0.30800
C 	C 	0.92466 0.06268 0.72305 0.34700
C 	C 	0.94476 0.10026 0.77972 0.31600
Ni	Ni	0.90918 0.96202 0.76037 1.11600
O 	O 	0.90405 0.99850 0.72650 -0.41500
O 	O 	0.99685 0.91152 0.72536 -0.37900
O 	O 	0.89480 0.87618 0.74286 -0.37400
O 	O 	0.00953 0.12248 0.77933 -0.38900
O 	O 	0.90069 0.03476 0.77968 -0.36400
O 	O 	0.97449 0.87718 0.78084 -0.36800
O 	O 	0.90328 0.91472 0.79371 -0.37200
O 	O 	0.98659 0.10857 0.72753 -0.37300
C 	C 	0.23652 0.78136 0.40959 0.31300
C 	C 	0.33190 0.62477 0.47028 0.32900
C 	C 	0.40616 0.82975 0.43922 0.32100
C 	C 	0.16214 0.57172 0.44200 0.30300
C 	C 	0.42341 0.68709 0.39281 0.33300
C 	C 	0.26051 0.61552 0.36473 0.31700
Ni	Ni	0.27503 0.71039 0.45094 1.11900
Ni	Ni	0.29190 0.60040 0.41720 1.12300
Ni	Ni	0.33920 0.74635 0.39446 1.12400
O 	O 	0.25503 0.78212 0.43358 -0.34700
O 	O 	0.26268 0.76418 0.39054 -0.36700
O 	O 	0.37271 0.62545 0.39466 -0.37400
O 	O 	0.28939 0.64575 0.47521 -0.35000
O 	O 	0.35340 0.62741 0.44716 -0.37700
O 	O 	0.30887 0.67995 0.36471 -0.37400
O 	O 	0.37401 0.78083 0.45552 -0.35700
O 	O 	0.38023 0.82899 0.41704 -0.35900
O 	O 	0.23774 0.57974 0.38581 -0.37600
O 	O 	0.17789 0.63323 0.44951 -0.35100
O 	O 	0.20821 0.55286 0.43981 -0.36400
O 	O 	0.41866 0.73751 0.40183 -0.39400
O 	O 	0.28679 0.68095 0.41902 -0.71800
H 	H 	0.24272 0.66556 0.41164 0.17200
C 	C 	0.41992 0.57959 0.06079 0.30800
C 	C 	0.21219 0.65055 0.09293 0.33100
C 	C 	0.24138 0.49127 0.05213 0.33500
C 	C 	0.39466 0.74449 0.10440 0.30400
C 	C 	0.24845 0.65732 0.00915 0.33500
C 	C 	0.43188 0.77151 0.02229 0.30500
Ni	Ni	0.31171 0.60180 0.08793 1.11700
Ni	Ni	0.31698 0.72695 0.05640 1.12400
Ni	Ni	0.34308 0.61942 0.02772 1.12400
O 	O 	0.37342 0.56024 0.07895 -0.34500
O 	O 	0.42350 0.61936 0.04178 -0.37900
O 	O 	0.27983 0.71568 0.02081 -0.36100
O 	O 	0.24742 0.62933 0.10535 -0.36300
O 	O 	0.22384 0.66586 0.06894 -0.37000
O 	O 	0.39824 0.71200 0.01060 -0.35800
O 	O 	0.23228 0.52865 0.06841 -0.37100
O 	O 	0.29329 0.51866 0.03691 -0.36000
O 	O 	0.40660 0.78792 0.04181 -0.37900
O 	O 	0.38384 0.68224 0.10765 -0.36400
O 	O 	0.35092 0.75707 0.09267 -0.36800
O 	O 	0.25608 0.60670 0.01618 -0.38000
O 	O 	0.34042 0.65809 0.05916 -0.71500
H 	H 	0.38822 0.68539 0.06249 0.16200
C 	C 	0.84990 0.96084 0.27009 0.28600
C 	C 	0.84521 0.93992 0.20309 0.30600
Ni	Ni	0.93720 0.06607 0.22844 1.11800
Ni	Ni	0.93525 0.92547 0.24000 1.12100
O 	O 	0.85608 0.00774 0.25321 -0.33800
O 	O 	0.89226 0.93786 0.27114 -0.37900
O 	O 	0.89330 0.00062 0.19886 -0.35600
O 	O 	0.84895 0.90409 0.22193 -0.37300
O 	O 	0.98231 0.02116 0.23840 -0.70600
H 	H 	0.98684 0.03220 0.25656 0.17000
C 	C 	0.15030 0.22090 0.10582 -0.02400
C 	C 	0.17656 0.26657 0.08560 -0.02700
C 	C 	0.14154 0.29726 0.07594 0.00700
C 	C 	0.17755 0.36239 0.06394 0.06700
C 	C 	0.20741 0.42002 0.05668 -0.08300
H 	H 	0.17963 0.20100 0.11433 0.05500
H 	H 	0.22611 0.28184 0.07878 0.06700
C 	C 	0.55613 0.87251 0.14403 0.00200
C 	C 	0.55458 0.85993 0.17013 -0.03100
C 	C 	0.61272 0.87339 0.18273 -0.02900
C 	C 	0.67268 0.90037 0.16934 -0.00200
C 	C 	0.67533 0.91908 0.14388 -0.02700
C 	C 	0.61719 0.90552 0.13129 -0.03000
C 	C 	0.49686 0.83483 0.12961 0.05300
C 	C 	0.44871 0.79699 0.11775 -0.09200
C 	C 	0.73168 0.90967 0.18170 0.05200
C 	C 	0.78255 0.92050 0.19168 -0.10000
H 	H 	0.50768 0.83514 0.18022 0.04800
H 	H 	0.61070 0.86080 0.20264 0.04600
H 	H 	0.72200 0.94200 0.13362 0.05300
H 	H 	0.61902 0.91618 0.11119 0.05800
C 	C 	0.10065 0.77499 0.12036 -0.02900
C 	C 	0.11702 0.73067 0.13272 0.00000
C 	C 	0.11162 0.72405 0.15915 -0.02900
C 	C 	0.14726 0.69880 0.11869 0.05900
C 	C 	0.17525 0.67488 0.10694 -0.09700
H 	H 	0.10486 0.78050 0.09994 0.05300
H 	H 	0.12435 0.69003 0.16885 0.04900
C 	C 	0.57832 0.75704 0.34353 -0.00100
C 	C 	0.56814 0.77152 0.31861 -0.02900
C 	C 	0.62190 0.81710 0.30374 -0.03200
C 	C 	0.68609 0.84861 0.31373 0.00400
C 	C 	0.69654 0.83254 0.33834 -0.03000
C 	C 	0.64286 0.78691 0.35317 -0.02700
C 	C 	0.52255 0.72369 0.36061 0.05800
C 	C 	0.47647 0.70204 0.37528 -0.10000
C 	C 	0.74208 0.89261 0.29802 0.04500
C 	C 	0.79048 0.92653 0.28511 -0.08500
H 	H 	0.51842 0.74925 0.31106 0.04600
H 	H 	0.61350 0.82813 0.28456 0.04600
H 	H 	0.74617 0.85561 0.34603 0.05200
H 	H 	0.65124 0.77661 0.37246 0.05500
C 	C 	0.20279 0.49055 0.30434 0.00100
C 	C 	0.21568 0.40049 0.28566 -0.03000
C 	C 	0.24330 0.46351 0.29729 -0.02900
C 	C 	0.22532 0.54168 0.32352 0.05400
C 	C 	0.24254 0.57923 0.34136 -0.08700
H 	H 	0.24680 0.37865 0.28129 0.05100
H 	H 	0.29532 0.48928 0.30227 0.04900
C 	C 	0.13985 0.87648 0.38309 -0.00200
C 	C 	0.17887 0.94340 0.37497 -0.01500
C 	C 	0.15678 0.96884 0.35541 -0.06500
C 	C 	0.17124 0.84305 0.39529 0.05800
C 	C 	0.19978 0.81472 0.40324 -0.07700
H 	H 	0.22836 0.97396 0.38240 0.04900
H 	H 	0.18909 0.01904 0.34806 0.07900
C 	C 	0.65774 0.15682 0.52375 -0.09600
C 	C 	0.61297 0.09241 0.53322 0.14900
C 	C 	0.59107 0.03647 0.51745 -0.06500
C 	C 	0.61406 0.04471 0.49237 0.06000
C 	C 	0.66813 0.10667 0.48478 0.07900
C 	C 	0.69082 0.16235 0.50081 -0.00200
H 	H 	0.55219 0.98778 0.52395 0.07200
C 	C 	0.57179 0.99552 0.47326 -0.04000
H 	H 	0.73032 0.21087 0.49453 0.08200
C 	C 	0.52470 0.00621 0.46053 -0.00800
C 	C 	0.47209 0.95336 0.44786 0.10700
C 	C 	0.46759 0.88944 0.44718 -0.07700
C 	C 	0.51839 0.88077 0.45780 -0.02500
C 	C 	0.57017 0.93337 0.47094 0.10700
H 	H 	0.52650 0.05447 0.46196 0.07800
H 	H 	0.51594 0.83213 0.45685 0.08200
Br	Br	0.70824 0.11701 0.45204 -0.17100
Br	Br	0.57844 0.08085 0.56708 -0.20000
Br	Br	0.40379 0.96812 0.43387 -0.21500
Br	Br	0.63699 0.91881 0.48634 -0.20200
C 	C 	0.77216 0.41633 0.48937 -0.08600
C 	C 	0.77375 0.37241 0.47087 0.14500
C 	C 	0.83364 0.38877 0.45857 -0.08100
C 	C 	0.89080 0.45026 0.46342 0.02700
C 	C 	0.88616 0.49837 0.47863 0.08500
C 	C 	0.82673 0.48156 0.49122 -0.01200
H 	H 	0.83584 0.35336 0.44552 0.09000
H 	H 	0.82471 0.51741 0.50410 0.07200
H 	H 	0.94826 0.50568 0.41842 0.08300
Br	Br	0.96156 0.58594 0.48359 -0.19900
Br	Br	0.69435 0.29390 0.46023 -0.20600
C 	C 	0.50456 0.42601 0.54817 -0.08800
C 	C 	0.43832 0.40453 0.55554 0.14900
C 	C 	0.40806 0.44201 0.54815 -0.08000
C 	C 	0.44111 0.49770 0.53190 0.02200
C 	C 	0.50785 0.52057 0.52537 0.08500
C 	C 	0.53947 0.48546 0.53392 -0.01300
H 	H 	0.35696 0.42477 0.55346 0.08600
C 	C 	0.40310 0.52554 0.51899 0.02400
H 	H 	0.59051 0.50277 0.52848 0.06800
C 	C 	0.41276 0.58927 0.52571 -0.08000
C 	C 	0.38598 0.62104 0.51083 0.15200
C 	C 	0.34693 0.58767 0.48963 -0.09800
C 	C 	0.33224 0.52150 0.48445 -0.00600
C 	C 	0.36114 0.49091 0.49861 0.08200
H 	H 	0.44395 0.61558 0.54168 0.08700
H 	H 	0.30143 0.49528 0.46838 0.05600
Br	Br	0.55540 0.59704 0.50340 -0.19900
Br	Br	0.38559 0.32065 0.57311 -0.22000
Br	Br	0.40737 0.71162 0.51863 -0.21200
Br	Br	0.34666 0.40384 0.48856 -0.20000
C 	C 	0.80552 0.12561 0.69005 -0.00300
C 	C 	0.81135 0.18715 0.69762 -0.02800
C 	C 	0.77834 0.21482 0.68424 -0.03100
C 	C 	0.73911 0.18085 0.66333 0.00200
C 	C 	0.73042 0.11757 0.65667 -0.02800
C 	C 	0.76366 0.09008 0.66997 -0.02500
C 	C 	0.84639 0.10169 0.70155 0.06200
C 	C 	0.88167 0.08297 0.71116 -0.10500
C 	C 	0.71592 0.21473 0.64659 0.05900
C 	C 	0.69853 0.24253 0.63145 -0.09300
H 	H 	0.84301 0.21452 0.71335 0.04700
H 	H 	0.78518 0.26366 0.68956 0.04800
H 	H 	0.70005 0.09092 0.64057 0.06100
H 	H 	0.75844 0.04220 0.66415 0.05600
C 	C 	0.22603 0.07183 0.65166 -0.00100
C 	C 	0.22821 0.11696 0.63309 -0.02400
C 	C 	0.27149 0.13344 0.61241 -0.02900
C 	C 	0.31299 0.10512 0.61027 0.00700
C 	C 	0.30677 0.05586 0.62776 -0.02900
C 	C 	0.26357 0.03944 0.64847 -0.02600
C 	C 	0.19006 0.06352 0.67495 0.05800
C 	C 	0.37117 0.13744 0.59438 0.06500
C 	C 	0.42303 0.16778 0.58308 -0.08300
H 	H 	0.19854 0.14143 0.63521 0.05300
H 	H 	0.27555 0.17119 0.59890 0.06700
H 	H 	0.33836 0.03338 0.62620 0.05600
H 	H 	0.26141 0.00371 0.66254 0.05100
C 	C 	0.83513 0.63084 0.63368 0.00300
C 	C 	0.87539 0.63466 0.65405 -0.03000
C 	C 	0.89225 0.68428 0.67242 -0.02800
C 	C 	0.86900 0.73037 0.67049 -0.00200
C 	C 	0.83136 0.72863 0.64953 -0.02800
C 	C 	0.81448 0.67895 0.63114 -0.03000
C 	C 	0.80423 0.57082 0.61871 0.05300
C 	C 	0.77381 0.51881 0.60741 -0.08800
C 	C 	0.88642 0.78113 0.68950 0.05600
C 	C 	0.90456 0.82395 0.70548 -0.10000
H 	H 	0.89137 0.59754 0.65620 0.05000
H 	H 	0.92252 0.68624 0.68834 0.04800
H 	H 	0.81432 0.76497 0.64767 0.04900
H 	H 	0.78312 0.67620 0.61549 0.05200
H 	H 	0.04290 0.56787 0.97520 0.08100
C 	C 	0.06758 0.50469 0.93705 0.03800
H 	H 	0.28290 0.65478 0.96044 0.07400
C 	C 	0.03764 0.51408 0.91563 -0.10500
C 	C 	0.97567 0.46282 0.90785 0.16700
C 	C 	0.94226 0.40325 0.92237 -0.10900
C 	C 	0.97869 0.38876 0.94001 0.01200
C 	C 	0.04100 0.43980 0.94777 0.06500
H 	H 	0.05995 0.56272 0.90625 0.08700
H 	H 	0.95526 0.34099 0.95003 0.06800
Br	Br	0.93332 0.47891 0.87968 -0.21800
Br	Br	0.08630 0.42198 0.97449 -0.20000
C 	C 	0.49150 0.82634 0.01014 -0.08600
C 	C 	0.48591 0.85548 0.98731 0.14100
C 	C 	0.53307 0.92198 0.98114 -0.07400
C 	C 	0.58546 0.96019 0.99768 -0.00800
C 	C 	0.59424 0.92933 0.01933 0.09500
C 	C 	0.54838 0.86209 0.02503 -0.01900
H 	H 	0.52720 0.94497 0.96405 0.07500
C 	C 	0.62735 0.03356 0.99320 0.05600
H 	H 	0.55376 0.83964 0.04236 0.06300
C 	C 	0.60318 0.07712 0.99985 -0.08800
C 	C 	0.63582 0.14423 0.99144 0.14800
C 	C 	0.69333 0.16831 0.97637 -0.08800
C 	C 	0.72151 0.12686 0.97231 -0.00500
C 	C 	0.68810 0.05932 0.98012 0.08100
H 	H 	0.55740 0.05803 0.01055 0.09400
H 	H 	0.76660 0.14552 0.96118 0.07000
Br	Br	0.66575 0.97941 0.04232 -0.22300
Br	Br	0.41138 0.80759 0.96536 -0.21900
Br	Br	0.59866 0.20092 0.99927 -0.21100
Br	Br	0.72390 0.00202 0.97121 -0.17400
C 	C 	0.60475 0.40405 0.98054 -0.08300
C 	C 	0.54760 0.40821 0.97450 0.14800
C 	C 	0.52141 0.43462 0.99220 -0.08000
C 	C 	0.54998 0.45433 0.01625 0.02300
C 	C 	0.60330 0.44465 0.02302 0.09100
C 	C 	0.63115 0.42080 0.00510 -0.00800
H 	H 	0.47873 0.43973 0.98726 0.08400
C 	C 	0.52500 0.48693 0.03389 0.02500
H 	H 	0.67417 0.41644 0.01015 0.07400
C 	C 	0.46596 0.44757 0.04732 -0.08500
C 	C 	0.43532 0.47811 0.06051 0.15000
C 	C 	0.46302 0.54884 0.05954 -0.09100
C 	C 	0.52726 0.58791 0.04959 -0.01200
C 	C 	0.55731 0.55750 0.03600 0.08700
H 	H 	0.44291 0.39316 0.04696 0.08700
H 	H 	0.55080 0.64235 0.05009 0.06900
Br	Br	0.63898 0.46404 0.05665 -0.19100
Br	Br	0.50123 0.37296 0.94328 -0.21700
Br	Br	0.35736 0.42239 0.08019 -0.22800
Br	Br	0.63976 0.61338 0.01877 -0.19700
C 	C 	0.86808 0.22741 0.78334 -0.00000
C 	C 	0.79889 0.19824 0.78334 -0.03100
C 	C 	0.76918 0.23576 0.79125 -0.03000
C 	C 	0.80862 0.30221 0.79948 -0.00200
C 	C 	0.87748 0.33399 0.79571 -0.02800
C 	C 	0.90728 0.29638 0.78803 -0.02900
C 	C 	0.89804 0.18503 0.78206 0.05400
C 	C 	0.92098 0.14765 0.78128 -0.09300
C 	C 	0.78309 0.32764 0.81889 0.06000
C 	C 	0.76642 0.34551 0.83766 -0.09900
H 	H 	0.76811 0.14542 0.77887 0.04900
H 	H 	0.71579 0.21114 0.79336 0.04800
H 	H 	0.90843 0.38595 0.80129 0.05600
H 	H 	0.96082 0.31993 0.78728 0.05300
C 	C 	0.31534 0.12848 0.82366 0.00300
C 	C 	0.31194 0.10291 0.84813 -0.02700
C 	C 	0.36945 0.11159 0.85998 -0.02700
C 	C 	0.43076 0.14608 0.84747 0.00400
C 	C 	0.43365 0.16905 0.82256 -0.02900
C 	C 	0.37608 0.16029 0.81069 -0.02900
C 	C 	0.25548 0.11589 0.81100 0.05300
C 	C 	0.49075 0.17149 0.86191 0.05500
C 	C 	0.54024 0.19865 0.87448 -0.08300
H 	H 	0.26485 0.07673 0.85804 0.05400
H 	H 	0.36674 0.09402 0.87928 0.05700
H 	H 	0.48086 0.19616 0.81279 0.04900
H 	H 	0.37885 0.17870 0.79153 0.04900
C 	C 	0.88719 0.70030 0.90688 0.00900
C 	C 	0.94813 0.72566 0.89413 -0.03500
C 	C 	0.96403 0.77217 0.87432 -0.00800
C 	C 	0.91951 0.79429 0.86744 -0.00600
C 	C 	0.86257 0.77533 0.88219 -0.02300
C 	C 	0.84673 0.72884 0.90201 -0.03100
C 	C 	0.85786 0.63391 0.91799 0.05900
C 	C 	0.83050 0.57523 0.92399 -0.08500
C 	C 	0.92753 0.82843 0.84352 0.05600
C 	C 	0.93351 0.85547 0.82321 -0.09400
H 	H 	0.98043 0.70492 0.89803 0.05900
H 	H 	0.00899 0.78781 0.86340 0.03300
H 	H 	0.82860 0.79343 0.87740 0.05100
H 	H 	0.80010 0.71061 0.91205 0.05600
