data_crystal

_cell_length_a 21.38726
_cell_length_b 20.82941
_cell_length_c 48.44529
_cell_angle_alpha 89.81016
_cell_angle_beta  89.80880
_cell_angle_gamma 119.49214

_symmetry_space_group_name_	'P 1'
_symmetry_space_group_name_H-M	'P 1'

loop_
_symmetry_equiv_pos_as_xyz
  x,y,z

loop_
_atom_site_label
_atom_site_type_symbol
_atom_site_fract_x
_atom_site_fract_y
_atom_site_fract_z
_atom_site_charge
C 	C 	0.62547 0.25065 0.86772 0.39700
C 	C 	0.77027 0.52029 0.93231 0.41800
C 	C 	0.81906 0.40365 0.86702 0.41400
C 	C 	0.58404 0.38543 0.94002 0.30200
C 	C 	0.84515 0.37504 0.95288 0.31500
C 	C 	0.65294 0.20243 0.95535 0.29200
Ni	Ni	0.68883 0.40213 0.89170 1.13400
Ni	Ni	0.70539 0.36785 0.95603 1.12700
Ni	Ni	0.74548 0.28881 0.90866 1.13400
O 	O 	0.61399 0.30670 0.87252 -0.32600
O 	O 	0.68951 0.25611 0.87216 -0.32500
O 	O 	0.81125 0.41083 0.95921 -0.36100
O 	O 	0.77427 0.49473 0.90821 -0.34700
O 	O 	0.72783 0.47538 0.95175 -0.35900
O 	O 	0.67029 0.20059 0.92910 -0.34600
O 	O 	0.75950 0.40447 0.86115 -0.29800
O 	O 	0.82634 0.37995 0.89111 -0.35900
O 	O 	0.68261 0.26528 0.96983 -0.35600
O 	O 	0.61189 0.41496 0.91529 -0.30900
O 	O 	0.60177 0.34070 0.95282 -0.35900
O 	O 	0.81133 0.30971 0.94126 -0.35300
O 	O 	0.69633 0.34033 0.91832 -0.72100
H 	H 	0.64665 0.29894 0.91843 0.17800
C 	C 	0.71198 0.43069 0.60043 0.41200
C 	C 	0.46096 0.18372 0.55100 0.41500
C 	C 	0.64352 0.23475 0.60935 0.42200
C 	C 	0.52467 0.37830 0.53390 0.29400
C 	C 	0.65054 0.18861 0.52337 0.31500
C 	C 	0.75096 0.38504 0.50508 0.29000
Ni	Ni	0.56939 0.30980 0.58227 1.13300
Ni	Ni	0.58929 0.28712 0.51717 1.12900
Ni	Ni	0.71518 0.31833 0.55974 1.13100
O 	O 	0.64662 0.41494 0.59280 -0.34400
O 	O 	0.74198 0.39021 0.59257 -0.32200
O 	O 	0.59248 0.19277 0.51810 -0.35700
O 	O 	0.50360 0.20078 0.57214 -0.34500
O 	O 	0.48303 0.22459 0.52843 -0.34400
O 	O 	0.76412 0.39853 0.53172 -0.35000
O 	O 	0.61342 0.27555 0.61387 -0.29900
O 	O 	0.66358 0.22919 0.58447 -0.37200
O 	O 	0.68411 0.34414 0.49527 -0.34500
O 	O 	0.50847 0.34475 0.55858 -0.30700
O 	O 	0.56983 0.37269 0.51644 -0.35100
O 	O 	0.71064 0.24717 0.53059 -0.37200
O 	O 	0.63074 0.32304 0.55242 -0.72200
H 	H 	0.65196 0.37636 0.54888 0.17900
C 	C 	0.18649 0.06667 0.76615 0.42000
C 	C 	0.90120 0.84958 0.72799 0.43300
C 	C 	0.11256 0.01433 0.69515 0.42500
C 	C 	0.95892 0.89667 0.80273 0.38700
C 	C 	0.93756 0.07078 0.71326 0.41400
C 	C 	0.01315 0.14260 0.77932 0.40500
Ni	Ni	0.04940 0.93508 0.74886 1.13700
Ni	Ni	0.92819 0.98119 0.76065 1.13900
Ni	Ni	0.07971 0.09966 0.73512 1.14200
O 	O 	0.13756 0.99845 0.77307 -0.33300
O 	O 	0.17524 0.10444 0.74616 -0.31400
O 	O 	0.91100 0.00284 0.72210 -0.32800
O 	O 	0.96852 0.88221 0.72049 -0.34400
O 	O 	0.88117 0.87275 0.74969 -0.32700
O 	O 	0.07467 0.15046 0.76945 -0.32100
O 	O 	0.12143 0.97856 0.71578 -0.31400
O 	O 	0.07721 0.05021 0.69884 -0.32900
O 	O 	0.94947 0.08237 0.77482 -0.31700
O 	O 	0.98283 0.87218 0.78200 -0.29600
O 	O 	0.93826 0.94664 0.79864 -0.31600
O 	O 	0.00404 0.12104 0.71920 -0.31000
O 	O 	0.02599 0.00954 0.75467 -0.72000
H 	H 	0.04424 0.02533 0.77351 0.18900
C 	C 	0.22196 0.78860 0.43562 0.39200
C 	C 	0.33722 0.60059 0.48028 0.30200
C 	C 	0.41528 0.83288 0.45786 0.30900
C 	C 	0.14786 0.55331 0.45845 0.28600
C 	C 	0.41805 0.69510 0.39500 0.42500
C 	C 	0.23833 0.62677 0.37167 0.39800
Ni	Ni	0.27420 0.70096 0.47120 1.12400
Ni	Ni	0.28160 0.59234 0.42447 1.12900
Ni	Ni	0.32991 0.75884 0.40879 1.14500
O 	O 	0.24912 0.78387 0.45988 -0.32300
O 	O 	0.24768 0.77972 0.41181 -0.33200
O 	O 	0.36380 0.62687 0.39642 -0.33500
O 	O 	0.29436 0.62296 0.49074 -0.33900
O 	O 	0.35456 0.61069 0.45409 -0.35700
O 	O 	0.28913 0.69771 0.37364 -0.29500
O 	O 	0.38265 0.77693 0.47491 -0.34900
O 	O 	0.38007 0.83985 0.43701 -0.33500
O 	O 	0.21648 0.58146 0.39320 -0.35700
O 	O 	0.16820 0.61742 0.47073 -0.33200
O 	O 	0.19595 0.53314 0.45093 -0.34500
O 	O 	0.41648 0.74676 0.40950 -0.37900
O 	O 	0.27879 0.67951 0.43367 -0.72000
H 	H 	0.22956 0.66523 0.42791 0.17500
C 	C 	0.46410 0.60116 0.04249 0.30300
C 	C 	0.24233 0.63755 0.10639 0.42100
C 	C 	0.27680 0.48231 0.04970 0.41200
C 	C 	0.43490 0.76766 0.10306 0.38700
C 	C 	0.21919 0.63038 0.01698 0.30900
C 	C 	0.42026 0.79427 0.01307 0.29000
Ni	Ni	0.36026 0.60857 0.08648 1.13300
Ni	Ni	0.31881 0.72614 0.05963 1.14900
Ni	Ni	0.35466 0.62777 0.01963 1.12600
O 	O 	0.43333 0.58022 0.06747 -0.30200
O 	O 	0.45480 0.64821 0.02730 -0.36100
O 	O 	0.25529 0.69856 0.02602 -0.34400
O 	O 	0.29237 0.62256 0.11446 -0.29800
O 	O 	0.23536 0.64520 0.08014 -0.35500
O 	O 	0.38824 0.72813 0.00085 -0.35400
O 	O 	0.27149 0.51734 0.07105 -0.34800
O 	O 	0.32165 0.51910 0.02932 -0.35700
O 	O 	0.39882 0.80517 0.03749 -0.34000
O 	O 	0.43964 0.70646 0.10258 -0.32600
O 	O 	0.37477 0.76785 0.09582 -0.30900
O 	O 	0.25123 0.59174 0.01239 -0.36200
O 	O 	0.36090 0.66540 0.05582 -0.71800
H 	H 	0.41165 0.70425 0.05565 0.17500
C 	C 	0.85579 0.96271 0.27803 0.38800
C 	C 	0.08073 0.12543 0.19115 0.41400
C 	C 	0.86610 0.93111 0.20704 0.43000
C 	C 	0.08399 0.19173 0.26323 0.40800
C 	C 	0.06781 0.91797 0.21941 0.41600
C 	C 	0.07402 0.98009 0.29434 0.39000
Ni	Ni	0.96027 0.07152 0.23288 1.14500
Ni	Ni	0.10663 0.06529 0.24251 1.14100
Ni	Ni	0.95496 0.91998 0.25248 1.13500
O 	O 	0.86644 0.01009 0.25735 -0.28300
O 	O 	0.90020 0.93678 0.28282 -0.32300
O 	O 	0.11566 0.97529 0.23340 -0.32000
O 	O 	0.03989 0.14371 0.20566 -0.29500
O 	O 	0.10004 0.07920 0.20126 -0.32800
O 	O 	0.02888 0.92177 0.27949 -0.32500
O 	O 	0.92236 0.99450 0.20199 -0.33800
O 	O 	0.86616 0.89224 0.22852 -0.31400
O 	O 	0.11684 0.04512 0.28245 -0.30300
O 	O 	0.01294 0.15294 0.26191 -0.31300
O 	O 	0.12620 0.17092 0.25012 -0.31700
O 	O 	0.99991 0.90033 0.21972 -0.33700
O 	O 	0.00632 0.02461 0.24888 -0.71600
H 	H 	0.00687 0.03901 0.26827 0.18600
C 	C 	0.26163 0.31406 0.08026 0.23000
C 	C 	0.18876 0.27979 0.08784 0.00900
C 	C 	0.14263 0.29788 0.07343 0.23000
C 	C 	0.17124 0.35832 0.05526 0.32300
C 	C 	0.24605 0.40196 0.05214 -0.21100
C 	C 	0.29000 0.37434 0.06199 0.31600
C 	C 	0.16504 0.23971 0.11447 -0.00000
F 	F 	0.07111 0.26162 0.07906 -0.32900
F 	F 	0.36170 0.41159 0.05683 -0.38800
C 	C 	0.17467 0.27934 0.13897 0.24000
C 	C 	0.14866 0.24199 0.16408 0.32500
C 	C 	0.11265 0.16453 0.16497 -0.19100
C 	C 	0.10458 0.12479 0.14057 0.32300
C 	C 	0.13051 0.16232 0.11537 0.24700
F 	F 	0.20847 0.35419 0.13835 -0.33100
F 	F 	0.06998 0.04993 0.14116 -0.33600
F 	F 	0.15865 0.28109 0.18760 -0.33200
F 	F 	0.12125 0.12350 0.09184 -0.31700
F 	F 	0.30608 0.29352 0.09253 -0.33300
F 	F 	0.12713 0.38026 0.04363 -0.39000
C 	C 	0.71804 0.96327 0.18062 0.24000
C 	C 	0.67099 0.89445 0.16932 0.01300
C 	C 	0.68557 0.83585 0.17199 0.24200
C 	C 	0.74848 0.84706 0.18499 0.34400
C 	C 	0.79720 0.91694 0.19526 -0.19200
C 	C 	0.78085 0.97466 0.19352 0.33100
C 	C 	0.60973 0.88525 0.15274 0.00300
F 	F 	0.63966 0.76872 0.16131 -0.32600
F 	F 	0.82615 0.04192 0.20426 -0.38500
C 	C 	0.61815 0.89874 0.12422 0.23300
C 	C 	0.55765 0.87147 0.10735 0.31200
C 	C 	0.48892 0.82923 0.11895 -0.19400
C 	C 	0.48066 0.82799 0.14775 0.32500
C 	C 	0.54110 0.85470 0.16468 0.24300
F 	F 	0.68478 0.93288 0.11267 -0.33700
F 	F 	0.41399 0.79217 0.15923 -0.33900
F 	F 	0.56604 0.87748 0.07951 -0.39300
F 	F 	0.53276 0.84598 0.19248 -0.30000
F 	F 	0.70361 0.01971 0.17853 -0.30900
F 	F 	0.76313 0.79074 0.18684 -0.33600
C 	C 	0.15910 0.67359 0.16948 0.24600
C 	C 	0.16258 0.74057 0.16198 0.00800
C 	C 	0.19427 0.77444 0.13682 0.23600
C 	C 	0.21938 0.74045 0.11867 0.32900
C 	C 	0.21568 0.67304 0.12590 -0.20500
C 	C 	0.18623 0.64022 0.15157 0.33800
C 	C 	0.13050 0.77419 0.17977 0.00600
F 	F 	0.19963 0.84014 0.12976 -0.32600
F 	F 	0.18218 0.57527 0.15883 -0.32700
C 	C 	0.16729 0.81388 0.20326 0.24300
C 	C 	0.14624 0.85984 0.21654 0.32300
C 	C 	0.08903 0.86777 0.20601 -0.19300
C 	C 	0.05051 0.82556 0.18312 0.33100
C 	C 	0.07023 0.77791 0.17049 0.24100
F 	F 	0.22506 0.80991 0.21263 -0.30300
F 	F 	0.99546 0.83257 0.17252 -0.33900
F 	F 	0.18116 0.89625 0.23969 -0.33100
F 	F 	0.03319 0.73824 0.14819 -0.32100
F 	F 	0.12860 0.64045 0.19386 -0.30200
F 	F 	0.24724 0.77301 0.09392 -0.41900
C 	C 	0.58281 0.73124 0.35449 0.24000
C 	C 	0.59232 0.79117 0.33799 0.00800
C 	C 	0.53849 0.81095 0.33731 0.23800
C 	C 	0.47774 0.77428 0.35413 0.33600
C 	C 	0.47024 0.71762 0.37210 -0.20000
C 	C 	0.52187 0.69456 0.37152 0.32900
C 	C 	0.66014 0.83591 0.32257 0.00300
F 	F 	0.54670 0.86819 0.32126 -0.31500
F 	F 	0.51508 0.63953 0.38853 -0.36100
C 	C 	0.66010 0.83633 0.29358 0.24400
C 	C 	0.72288 0.88312 0.27892 0.32400
C 	C 	0.78689 0.92861 0.29308 -0.18600
C 	C 	0.78649 0.92944 0.32208 0.32200
C 	C 	0.72334 0.88356 0.33676 0.23900
F 	F 	0.59920 0.79104 0.27963 -0.30100
F 	F 	0.84768 0.97388 0.33603 -0.33400
F 	F 	0.72227 0.88184 0.25094 -0.36000
F 	F 	0.72341 0.88562 0.36477 -0.33200
F 	F 	0.63355 0.71007 0.35463 -0.32000
F 	F 	0.42802 0.79681 0.35423 -0.37100
C 	C 	0.12453 0.48547 0.32089 0.23700
C 	C 	0.17830 0.48071 0.30587 0.00700
C 	C 	0.24929 0.53897 0.30690 0.24500
C 	C 	0.26800 0.59600 0.32585 0.32600
C 	C 	0.21597 0.59395 0.34420 -0.18600
C 	C 	0.14329 0.54255 0.33981 0.32200
C 	C 	0.16253 0.41035 0.29305 0.00500
F 	F 	0.30098 0.53732 0.29107 -0.30800
F 	F 	0.09168 0.54346 0.35593 -0.35400
C 	C 	0.12560 0.38915 0.26794 0.24900
C 	C 	0.10237 0.31842 0.25763 0.33300
C 	C 	0.11598 0.26840 0.27238 -0.18900
C 	C 	0.15595 0.29076 0.29678 0.32400
C 	C 	0.17902 0.36148 0.30715 0.23800
F 	F 	0.11066 0.43650 0.25391 -0.29700
F 	F 	0.17016 0.24310 0.31096 -0.35300
F 	F 	0.06529 0.29778 0.23359 -0.32900
F 	F 	0.21519 0.38177 0.33140 -0.33800
F 	F 	0.05492 0.43155 0.31880 -0.32400
F 	F 	0.33784 0.64875 0.32836 -0.34000
C 	C 	0.05077 0.92919 0.37000 0.24700
C 	C 	0.11418 0.92685 0.37528 -0.00300
C 	C 	0.16684 0.94818 0.35446 0.23800
C 	C 	0.15495 0.96877 0.32835 0.32600
C 	C 	0.09005 0.96744 0.32267 -0.18600
C 	C 	0.03847 0.94878 0.34369 0.32000
C 	C 	0.12178 0.89326 0.40111 0.00800
F 	F 	0.22804 0.94545 0.35918 -0.32800
F 	F 	0.97603 0.94855 0.33851 -0.34900
C 	C 	0.08168 0.81642 0.40473 0.23100
C 	C 	0.10773 0.78067 0.42182 0.31700
C 	C 	0.17507 0.82136 0.43440 -0.19800
C 	C 	0.20656 0.89850 0.43546 0.32300
C 	C 	0.18009 0.93457 0.41868 0.22900
F 	F 	0.02200 0.77585 0.38940 -0.32500
F 	F 	0.26838 0.93870 0.44968 -0.36300
F 	F 	0.07295 0.70586 0.42286 -0.38700
F 	F 	0.21557 0.00938 0.41728 -0.31900
F 	F 	0.00024 0.91039 0.39010 -0.31500
F 	F 	0.20516 0.98677 0.30816 -0.33300
C 	C 	0.65057 0.12054 0.51642 -0.05100
C 	C 	0.62571 0.06402 0.53627 0.04000
C 	C 	0.58457 0.99050 0.52815 -0.03400
C 	C 	0.56849 0.97376 0.50014 0.03300
C 	C 	0.60443 0.02957 0.48002 0.04200
C 	C 	0.64860 0.10259 0.48846 -0.00100
C 	C 	0.58741 0.01353 0.45205 -0.02100
C 	C 	0.52850 0.94637 0.44450 0.01800
C 	C 	0.48687 0.89436 0.46483 -0.03900
C 	C 	0.51062 0.90562 0.49232 -0.00200
H 	H 	0.63086 0.07743 0.55803 0.10000
H 	H 	0.56026 0.94758 0.54373 0.09900
H 	H 	0.67204 0.14648 0.47317 0.06700
H 	H 	0.61669 0.05487 0.43634 0.08700
H 	H 	0.51323 0.93617 0.42298 0.08300
H 	H 	0.48061 0.86410 0.50791 0.07800
C 	C 	0.81261 0.40914 0.48618 -0.04200
C 	C 	0.83246 0.47000 0.46868 0.02800
C 	C 	0.90004 0.50433 0.45580 -0.03200
C 	C 	0.94865 0.47847 0.46060 0.04000
C 	C 	0.92691 0.41409 0.47662 0.03700
C 	C 	0.85851 0.37915 0.48906 -0.00900
C 	C 	0.97578 0.38873 0.48166 -0.04200
C 	C 	0.04751 0.43074 0.47310 0.03100
C 	C 	0.07081 0.49803 0.45920 -0.03400
C 	C 	0.02025 0.51925 0.45143 -0.00000
H 	H 	0.79703 0.49291 0.46611 0.07600
H 	H 	0.91568 0.55289 0.44311 0.10600
H 	H 	0.84268 0.33141 0.50228 0.06500
H 	H 	0.95920 0.33840 0.49336 0.08100
H 	H 	0.08580 0.41328 0.47882 0.07200
H 	H 	0.03786 0.57024 0.44004 0.10900
C 	C 	0.36178 0.55872 0.49738 -0.04900
C 	C 	0.39823 0.58819 0.52221 0.02800
C 	C 	0.43425 0.55594 0.53551 -0.03600
C 	C 	0.43446 0.49422 0.52393 0.04300
C 	C 	0.39497 0.46256 0.49962 0.03600
C 	C 	0.35795 0.49429 0.48676 0.00000
C 	C 	0.39556 0.40151 0.48779 -0.02700
C 	C 	0.43720 0.37376 0.49932 0.03500
C 	C 	0.47824 0.40607 0.52299 -0.02200
C 	C 	0.47556 0.46523 0.53573 -0.00500
H 	H 	0.40118 0.63773 0.53062 0.06800
H 	H 	0.46356 0.58024 0.55432 0.08800
H 	H 	0.32877 0.47083 0.46780 0.06500
H 	H 	0.36480 0.37634 0.46933 0.08900
H 	H 	0.43789 0.32715 0.48975 0.08100
H 	H 	0.50668 0.48972 0.55419 0.08000
C 	C 	0.86242 0.15809 0.66473 0.24000
C 	C 	0.79609 0.13827 0.67741 0.00700
C 	C 	0.77668 0.09686 0.70194 0.24900
C 	C 	0.82289 0.07482 0.71364 0.32800
C 	C 	0.88897 0.09392 0.70082 -0.19100
C 	C 	0.90879 0.13619 0.67644 0.33300
C 	C 	0.74619 0.15917 0.66450 0.00800
F 	F 	0.71302 0.07807 0.71447 -0.30400
F 	F 	0.97234 0.15487 0.66384 -0.34100
C 	C 	0.68960 0.10830 0.64808 0.23600
C 	C 	0.64947 0.13131 0.63231 0.32500
C 	C 	0.66619 0.20554 0.63258 -0.19900
C 	C 	0.71832 0.25466 0.65101 0.32800
C 	C 	0.75832 0.23156 0.66686 0.24200
F 	F 	0.67584 0.03746 0.64639 -0.32300
F 	F 	0.73414 0.32620 0.65194 -0.34100
F 	F 	0.59726 0.08256 0.61540 -0.35800
F 	F 	0.81114 0.28042 0.68353 -0.30600
F 	F 	0.88149 0.19792 0.64091 -0.33500
F 	F 	0.80412 0.03607 0.73771 -0.36300
C 	C 	0.15108 0.02116 0.61858 0.24400
C 	C 	0.22560 0.04817 0.61852 0.00400
C 	C 	0.26218 0.06097 0.64372 0.23700
C 	C 	0.22486 0.04791 0.66872 0.32800
C 	C 	0.15063 0.02254 0.66883 -0.19800
C 	C 	0.11376 0.00873 0.64364 0.33500
C 	C 	0.26651 0.06762 0.59223 0.00300
F 	F 	0.33438 0.08819 0.64392 -0.32500
F 	F 	0.04184 0.98320 0.64348 -0.34500
C 	C 	0.28127 0.13278 0.57820 0.23100
C 	C 	0.33897 0.16525 0.55956 0.31500
C 	C 	0.38378 0.13427 0.55580 -0.20500
C 	C 	0.36100 0.06281 0.56594 0.32400
C 	C 	0.30253 0.02957 0.58421 0.24600
F 	F 	0.24389 0.16794 0.58445 -0.33000
F 	F 	0.40049 0.02936 0.56064 -0.35900
F 	F 	0.35626 0.23110 0.54769 -0.38000
F 	F 	0.28506 0.96360 0.59602 -0.33000
F 	F 	0.11502 0.00770 0.59438 -0.31200
F 	F 	0.26134 0.06269 0.69287 -0.33400
C 	C 	0.83691 0.65563 0.70725 0.24300
C 	C 	0.80276 0.65362 0.68238 0.00500
C 	C 	0.78776 0.71039 0.67590 0.24000
C 	C 	0.81275 0.77202 0.69299 0.32900
C 	C 	0.85292 0.77715 0.71653 -0.20100
C 	C 	0.86147 0.71698 0.72438 0.32800
C 	C 	0.78503 0.59359 0.66272 0.00600
F 	F 	0.75155 0.70708 0.65250 -0.32800
F 	F 	0.89942 0.72104 0.74733 -0.33500
C 	C 	0.72650 0.52343 0.66794 0.24300
C 	C 	0.70634 0.46785 0.64838 0.33600
C 	C 	0.74416 0.48222 0.62327 -0.19200
C 	C 	0.80537 0.55104 0.61875 0.32400
C 	C 	0.82586 0.60668 0.63845 0.23900
F 	F 	0.68769 0.50994 0.69160 -0.30900
F 	F 	0.84282 0.56512 0.59471 -0.36300
F 	F 	0.64769 0.40093 0.65314 -0.34100
F 	F 	0.88419 0.67384 0.63371 -0.32400
F 	F 	0.84957 0.59978 0.71409 -0.30500
F 	F 	0.80258 0.82916 0.68562 -0.34600
C 	C 	0.14533 0.60026 0.00749 -0.03800
C 	C 	0.12987 0.63653 0.98639 0.03000
C 	C 	0.07023 0.59693 0.96947 -0.03000
C 	C 	0.02580 0.52073 0.97353 0.05100
C 	C 	0.03878 0.48520 0.99583 0.05400
C 	C 	0.09657 0.52602 0.01344 -0.00700
C 	C 	0.99482 0.40891 0.99975 -0.05200
C 	C 	0.93544 0.36919 0.98276 0.03500
C 	C 	0.91931 0.40551 0.96192 -0.04000
C 	C 	0.96761 0.47995 0.95605 -0.00100
H 	H 	0.16678 0.69409 0.98186 0.08000
H 	H 	0.05990 0.62505 0.95273 0.12000
H 	H 	0.10752 0.49865 0.03031 0.10500
H 	H 	0.00538 0.38078 0.01642 0.12100
H 	H 	0.89894 0.31144 0.98716 0.07400
H 	H 	0.95624 0.50736 0.93931 0.11800
C 	C 	0.46897 0.86050 0.99676 -0.03300
C 	C 	0.45684 0.86460 0.96848 0.01900
C 	C 	0.49074 0.93268 0.95466 -0.03000
C 	C 	0.53660 0.99748 0.96904 0.02900
C 	C 	0.55128 0.99315 0.99715 0.03300
C 	C 	0.51897 0.92447 0.01064 -0.00900
C 	C 	0.59622 0.05784 0.01169 -0.02200
C 	C 	0.62682 0.12643 0.99839 0.01900
C 	C 	0.61329 0.13126 0.97030 -0.03600
C 	C 	0.56733 0.06657 0.95576 0.00300
H 	H 	0.41874 0.81574 0.95749 0.07400
H 	H 	0.47979 0.93522 0.93297 0.08900
H 	H 	0.52956 0.92129 0.03233 0.10400
H 	H 	0.60758 0.05507 0.03331 0.09500
H 	H 	0.66251 0.17559 0.00979 0.07400
H 	H 	0.55605 0.07002 0.93415 0.09800
C 	C 	0.54774 0.41728 0.95620 -0.03200
C 	C 	0.50362 0.44013 0.94310 0.03600
C 	C 	0.47587 0.47797 0.95792 -0.02400
C 	C 	0.49276 0.49416 0.98594 0.04000
C 	C 	0.53585 0.46995 0.99942 0.04300
C 	C 	0.56262 0.43099 0.98455 0.00300
C 	C 	0.55322 0.48687 0.02742 -0.02400
C 	C 	0.52932 0.52916 0.04172 0.04300
C 	C 	0.48785 0.55463 0.02816 -0.02900
C 	C 	0.46852 0.53574 0.00041 0.00900
H 	H 	0.49155 0.42940 0.92135 0.08900
H 	H 	0.44231 0.49588 0.94748 0.08400
H 	H 	0.59722 0.41387 0.99469 0.06000
H 	H 	0.58589 0.46810 0.03801 0.08600
H 	H 	0.54377 0.54278 0.06316 0.09100
H 	H 	0.43494 0.55387 0.99008 0.05200
C 	C 	0.01872 0.32528 0.78423 0.25600
C 	C 	0.98185 0.31628 0.80920 -0.00900
C 	C 	0.96516 0.25501 0.82616 0.24100
C 	C 	0.98068 0.20056 0.81732 0.31600
C 	C 	0.01320 0.20703 0.79150 -0.17900
C 	C 	0.03459 0.27094 0.77543 0.31800
C 	C 	0.95372 0.36607 0.81629 0.01000
F 	F 	0.93064 0.24654 0.85062 -0.34700
F 	F 	0.06662 0.27809 0.75049 -0.35100
C 	C 	0.88722 0.35227 0.80567 0.23900
C 	C 	0.84645 0.37752 0.81984 0.32700
C 	C 	0.87118 0.41433 0.84508 -0.19400
C 	C 	0.94346 0.44099 0.85226 0.32400
C 	C 	0.98441 0.41600 0.83809 0.23200
F 	F 	0.85937 0.30877 0.78318 -0.30500
F 	F 	0.97113 0.48414 0.87486 -0.36500
F 	F 	0.78049 0.36054 0.81038 -0.31200
F 	F 	0.05119 0.43459 0.84715 -0.32500
F 	F 	0.03647 0.38513 0.76798 -0.30900
F 	F 	0.96139 0.13992 0.83331 -0.34100
C 	C 	0.35764 0.16618 0.80641 0.23900
C 	C 	0.38819 0.12101 0.80135 0.00600
C 	C 	0.35705 0.06439 0.78187 0.24300
C 	C 	0.29365 0.05037 0.76864 0.34100
C 	C 	0.26037 0.09225 0.77512 -0.19300
C 	C 	0.29376 0.15166 0.79337 0.32600
C 	C 	0.45129 0.13169 0.81715 0.00400
F 	F 	0.38710 0.02158 0.77637 -0.30600
F 	F 	0.26267 0.19322 0.79940 -0.35100
C 	C 	0.44425 0.11374 0.84536 0.23700
C 	C 	0.50521 0.14272 0.86207 0.31400
C 	C 	0.57300 0.19058 0.85066 -0.19400
C 	C 	0.58083 0.19691 0.82183 0.32500
C 	C 	0.51993 0.16881 0.80510 0.24400
F 	F 	0.37809 0.07303 0.85689 -0.33200
F 	F 	0.64694 0.23733 0.81031 -0.31300
F 	F 	0.49760 0.13142 0.88979 -0.38600
F 	F 	0.52748 0.18244 0.77751 -0.30100
F 	F 	0.38896 0.22286 0.82451 -0.33100
F 	F 	0.26289 0.99425 0.75028 -0.34300
C 	C 	0.79202 0.69822 0.91185 0.22900
C 	C 	0.86529 0.73210 0.90484 0.00900
C 	C 	0.90893 0.70889 0.91823 0.22800
C 	C 	0.87727 0.64362 0.93386 0.32200
C 	C 	0.80209 0.60042 0.93515 -0.21100
C 	C 	0.76059 0.63281 0.92744 0.31600
C 	C 	0.89074 0.77497 0.87886 -0.00500
F 	F 	0.98090 0.74477 0.91355 -0.33600
F 	F 	0.68829 0.59534 0.93128 -0.38500
C 	C 	0.92959 0.85237 0.87924 0.24700
C 	C 	0.95342 0.89228 0.85440 0.31400
C 	C 	0.93856 0.85491 0.82903 -0.18200
C 	C 	0.89996 0.77737 0.82881 0.31600
C 	C 	0.87661 0.73773 0.85357 0.23900
F 	F 	0.94403 0.88888 0.90359 -0.32500
F 	F 	0.88283 0.74044 0.80452 -0.32500
F 	F 	0.99105 0.96712 0.85498 -0.34600
F 	F 	0.83957 0.66286 0.85303 -0.33900
F 	F 	0.75000 0.72383 0.90099 -0.33700
F 	F 	0.91892 0.61687 0.94414 -0.39200
