data_crystal

_cell_length_a 41.48354
_cell_length_b 36.93306
_cell_length_c 29.68119
_cell_angle_alpha 89.95291
_cell_angle_beta  89.94319
_cell_angle_gamma 90.54650

_symmetry_space_group_name_	'P 1'
_symmetry_space_group_name_H-M	'P 1'

loop_
_symmetry_equiv_pos_as_xyz
  x,y,z

loop_
_atom_site_label
_atom_site_type_symbol
_atom_site_fract_x
_atom_site_fract_y
_atom_site_fract_z
_atom_site_charge
Zn	Zn	0.48459 0.49223 0.99887 1.22000
C 	C 	0.49517 0.56950 0.99340 0.33200
O 	O 	0.51671 0.47729 0.04352 -0.47400
O 	O 	0.47439 0.57111 0.02674 -0.45200
O 	O 	0.52397 0.53128 0.07821 -0.49500
C 	C 	0.42269 0.50851 0.03433 0.34800
O 	O 	0.44018 0.50850 0.99754 -0.45500
O 	O 	0.43663 0.51094 0.07391 -0.50800
C 	C 	0.53581 0.50102 0.06276 0.33900
O 	O 	0.46286 0.43338 0.00050 -0.32600
Zn	Zn	0.47738 0.53734 0.08187 1.16900
O 	O 	0.50500 0.53791 0.97833 -0.43300
C 	C 	0.47732 0.42873 0.96227 0.29300
O 	O 	0.49329 0.45659 0.94729 -0.38000
Zn	Zn	0.39282 0.10370 0.00130 1.22300
C 	C 	0.41781 0.09683 0.09118 0.29400
O 	O 	0.34554 0.10740 0.00249 -0.45900
O 	O 	0.41600 0.13184 0.09812 -0.44400
O 	O 	0.34522 0.12236 0.07698 -0.49400
C 	C 	0.42467 0.17272 0.00276 0.34700
O 	O 	0.42942 0.13765 0.00066 -0.46000
O 	O 	0.39917 0.18549 0.02317 -0.51500
C 	C 	0.33015 0.11039 0.04104 0.32900
O 	O 	0.39561 0.10614 0.92122 -0.32000
Zn	Zn	0.37763 0.16040 0.07211 1.17200
O 	O 	0.39944 0.08167 0.06053 -0.44200
C 	C 	0.40363 0.07222 0.92439 0.25600
O 	O 	0.40182 0.05927 0.96479 -0.39400
C 	C 	0.52482 0.99007 0.74180 0.13200
C 	C 	0.54936 0.97248 0.76548 -0.09600
H 	H 	0.56794 0.95886 0.74665 0.06200
C 	C 	0.54956 0.97262 0.81289 0.02800
C 	C 	0.52442 0.99014 0.83583 -0.07300
C 	C 	0.49987 0.00832 0.81246 0.02800
C 	C 	0.50031 0.00812 0.76504 -0.09600
H 	H 	0.48185 0.02166 0.74590 0.06200
N 	N 	0.52475 0.98950 0.69344 -0.18200
C 	C 	0.50731 0.96330 0.67131 0.19700
C 	C 	0.50743 0.96189 0.62393 -0.08300
C 	C 	0.52497 0.98809 0.59955 0.06100
C 	C 	0.54370 0.01385 0.62280 -0.08300
C 	C 	0.54283 0.01455 0.67019 0.19700
C 	C 	0.49150 0.93383 0.60086 0.01000
C 	C 	0.49211 0.93253 0.55391 -0.05900
C 	C 	0.50639 0.96102 0.52876 0.01500
C 	C 	0.52453 0.98786 0.55184 -0.03000
C 	C 	0.54339 0.01346 0.52762 0.01500
C 	C 	0.56407 0.03739 0.59863 0.01000
C 	C 	0.56500 0.03612 0.55170 -0.05900
C 	C 	0.50434 0.96223 0.48096 0.01500
C 	C 	0.52330 0.98772 0.45674 -0.03000
C 	C 	0.54145 0.01456 0.47980 0.01500
O 	O 	0.55939 0.03944 0.69233 -0.20700
O 	O 	0.49036 0.93934 0.69454 -0.20700
H 	H 	0.58019 0.05583 0.61616 0.04100
H 	H 	0.58371 0.05132 0.53458 0.04400
H 	H 	0.47955 0.91218 0.61923 0.04100
H 	H 	0.48300 0.90840 0.53758 0.04400
C 	C 	0.55593 0.04289 0.45459 -0.05900
C 	C 	0.55686 0.04130 0.40768 0.01000
C 	C 	0.54091 0.01323 0.38466 -0.08300
C 	C 	0.52298 0.98737 0.40904 0.06100
C 	C 	0.48257 0.93974 0.45691 -0.06000
C 	C 	0.48342 0.93853 0.40996 0.00900
C 	C 	0.50400 0.96183 0.38577 -0.08300
C 	C 	0.54137 0.01152 0.33732 0.19600
N 	N 	0.52349 0.98571 0.31516 -0.18200
C 	C 	0.50487 0.96114 0.33838 0.19600
C 	C 	0.52343 0.98524 0.26679 0.13200
C 	C 	0.50270 0.00797 0.24322 -0.09600
C 	C 	0.50329 0.00912 0.19574 0.02700
C 	C 	0.52565 0.98726 0.17261 -0.07200
C 	C 	0.54663 0.96403 0.19623 0.02600
C 	C 	0.54484 0.96297 0.24368 -0.09600
O 	O 	0.55911 0.03479 0.31415 -0.20800
O 	O 	0.48768 0.93682 0.31619 -0.20900
H 	H 	0.48655 0.02478 0.26232 0.06100
H 	H 	0.56009 0.94533 0.26307 0.06200
H 	H 	0.56495 0.06711 0.47080 0.04400
H 	H 	0.56901 0.06279 0.38926 0.04000
H 	H 	0.46382 0.92465 0.47408 0.04400
H 	H 	0.46715 0.92025 0.39245 0.04000
H 	H 	0.52700 0.98867 0.13632 0.04000
H 	H 	0.52409 0.98984 0.87215 0.04000
Zn	Zn	0.66254 0.88272 0.00182 1.22300
C 	C 	0.64090 0.88667 0.09369 0.29400
O 	O 	0.70995 0.88409 0.99991 -0.46400
O 	O 	0.64545 0.85183 0.09941 -0.44400
O 	O 	0.71450 0.86790 0.07372 -0.49500
C 	C 	0.63528 0.81121 0.00524 0.34600
O 	O 	0.62829 0.84580 0.00372 -0.46000
O 	O 	0.66284 0.80061 0.02195 -0.51500
C 	C 	0.72666 0.88322 0.03751 0.33200
O 	O 	0.65765 0.88020 0.92198 -0.32100
Zn	Zn	0.68470 0.82715 0.06950 1.17100
O 	O 	0.65645 0.90382 0.06157 -0.44200
C 	C 	0.64755 0.91334 0.92573 0.25700
O 	O 	0.64888 0.92614 0.96621 -0.39400
Zn	Zn	0.11810 0.62151 0.98786 1.22300
C 	C 	0.10800 0.61740 0.08345 0.29500
O 	O 	0.11728 0.67206 0.96747 -0.46200
O 	O 	0.13769 0.62673 0.09350 -0.44400
O 	O 	0.12364 0.69464 0.03844 -0.48700
C 	C 	0.18132 0.59813 0.01348 0.34200
O 	O 	0.15148 0.58715 0.00641 -0.45500
O 	O 	0.18798 0.63266 0.01842 -0.51700
C 	C 	0.11386 0.69851 0.99660 0.32700
O 	O 	0.12356 0.60000 0.91220 -0.31900
Zn	Zn	0.16077 0.66478 0.05286 1.17100
O 	O 	0.09576 0.62813 0.04520 -0.44600
C 	C 	0.09335 0.59090 0.91704 0.25600
O 	O 	0.08114 0.59740 0.95616 -0.39700
C 	C 	0.99665 0.48598 0.72358 0.13200
C 	C 	0.02042 0.50305 0.74987 -0.09600
H 	H 	0.04068 0.51582 0.73314 0.06200
C 	C 	0.01761 0.50366 0.79719 0.02600
C 	C 	0.99151 0.48515 0.81747 -0.07000
C 	C 	0.96642 0.47004 0.79146 0.02600
C 	C 	0.96971 0.46971 0.74416 -0.09500
H 	H 	0.95157 0.45723 0.72306 0.06200
N 	N 	0.99901 0.48692 0.67521 -0.18000
C 	C 	0.01684 0.46126 0.65327 0.19400
C 	C 	0.01890 0.46140 0.60586 -0.08100
C 	C 	0.00178 0.48740 0.58124 0.05800
C 	C 	0.98487 0.51447 0.60431 -0.08000
C 	C 	0.98351 0.51360 0.65174 0.19600
C 	C 	0.03876 0.43691 0.58303 0.00900
C 	C 	0.04070 0.43747 0.53607 -0.05900
C 	C 	0.02062 0.46050 0.51056 0.01500
C 	C 	0.00234 0.48697 0.53346 -0.03000
C 	C 	0.98577 0.51400 0.50906 0.01600
C 	C 	0.97066 0.54270 0.57994 0.00900
C 	C 	0.97223 0.54329 0.53299 -0.05900
C 	C 	0.01964 0.45885 0.46260 0.01500
C 	C 	0.00289 0.48578 0.43824 -0.03100
C 	C 	0.98452 0.51213 0.46120 0.01600
O 	O 	0.96716 0.53845 0.67367 -0.20700
O 	O 	0.03191 0.43621 0.67664 -0.20600
H 	H 	0.95926 0.56497 0.59732 0.04100
H 	H 	0.96446 0.56744 0.51573 0.04400
H 	H 	0.05369 0.41821 0.60163 0.04100
H 	H 	0.05908 0.42142 0.52011 0.04400
C 	C 	0.96403 0.53479 0.43586 -0.05900
C 	C 	0.96568 0.53525 0.38891 0.00900
C 	C 	0.98575 0.51106 0.36596 -0.08100
C 	C 	0.00334 0.48538 0.39046 0.05900
C 	C 	0.03362 0.42988 0.43850 -0.05900
C 	C 	0.03527 0.43068 0.39153 0.00900
C 	C 	0.02061 0.45869 0.36726 -0.08200
C 	C 	0.98758 0.51121 0.31856 0.19700
N 	N 	0.00579 0.48599 0.29646 -0.18100
C 	C 	0.02187 0.45966 0.31979 0.19500
C 	C 	0.00802 0.48722 0.24809 0.12900
C 	C 	0.98445 0.46982 0.22178 -0.09300
C 	C 	0.98513 0.47292 0.17441 0.02800
C 	C 	0.01108 0.49171 0.15418 -0.07400
C 	C 	0.03348 0.51154 0.18025 0.02600
C 	C 	0.03240 0.50798 0.22751 -0.09500
O 	O 	0.97193 0.53588 0.29532 -0.20800
O 	O 	0.03873 0.43532 0.29773 -0.20700
H 	H 	0.96572 0.45440 0.23854 0.06200
H 	H 	0.05000 0.52145 0.24859 0.06100
H 	H 	0.94561 0.55066 0.45204 0.04400
H 	H 	0.95041 0.55368 0.37043 0.04000
H 	H 	0.04167 0.40579 0.45558 0.04400
H 	H 	0.04699 0.40868 0.37405 0.04100
H 	H 	0.01191 0.49398 0.11798 0.04000
H 	H 	0.98936 0.48512 0.85367 0.04000
Zn	Zn	0.84951 0.41412 0.98420 1.22100
C 	C 	0.85329 0.42505 0.88849 0.29300
O 	O 	0.80562 0.42272 0.00701 -0.46000
O 	O 	0.83860 0.39435 0.87906 -0.44400
O 	O 	0.78296 0.41860 0.93741 -0.49200
C 	C 	0.86127 0.34096 0.95606 0.34700
O 	O 	0.87437 0.37302 0.96262 -0.46400
O 	O 	0.82993 0.33728 0.95197 -0.51400
C 	C 	0.78148 0.42902 0.97960 0.33000
O 	O 	0.86770 0.39947 0.05790 -0.32000
Zn	Zn	0.80376 0.37331 0.92172 1.17100
O 	O 	0.84740 0.44099 0.92714 -0.44200
C 	C 	0.88188 0.43101 0.05655 0.25500
O 	O 	0.87792 0.44880 0.01939 -0.39000
Zn	Zn	0.01157 0.03465 0.03668 1.22200
C 	C 	0.02948 0.95979 0.02935 0.33500
O 	O 	0.97457 0.03320 0.07790 -0.47200
O 	O 	0.04675 0.96568 0.06581 -0.45200
O 	O 	0.98575 0.98040 0.11299 -0.49600
C 	C 	0.07375 0.04422 0.07561 0.35100
O 	O 	0.05813 0.03850 0.03797 -0.45500
O 	O 	0.06012 0.03643 0.11436 -0.51000
C 	C 	0.96474 0.00260 0.09565 0.34100
O 	O 	0.01157 0.09818 0.04011 -0.32900
Zn	Zn	0.03049 0.99527 0.11993 1.17000
O 	O 	0.00959 0.98456 0.01415 -0.43400
C 	C 	0.99874 0.09686 0.00036 0.30400
O 	O 	0.99403 0.06462 0.98431 -0.38300
C 	C 	0.95205 0.18671 0.95647 -0.00100
C 	C 	0.91937 0.18517 0.94466 -0.03600
C 	C 	0.90172 0.21709 0.94083 -0.03100
C 	C 	0.91671 0.25065 0.94874 -0.01200
C 	C 	0.94984 0.25232 0.95770 -0.03100
C 	C 	0.96749 0.22040 0.96150 -0.03600
C 	C 	0.89763 0.28290 0.95140 0.05500
C 	C 	0.88130 0.30964 0.95350 -0.12900
C 	C 	0.96819 0.15433 0.97056 0.04600
C 	C 	0.98221 0.12759 0.98256 -0.09600
H 	H 	0.90730 0.15924 0.94048 0.04300
H 	H 	0.87617 0.21563 0.93335 0.03700
H 	H 	0.96167 0.27821 0.96334 0.03900
H 	H 	0.99281 0.22183 0.97039 0.04300
C 	C 	0.90861 0.44137 0.78323 -0.08900
C 	C 	0.93512 0.45724 0.81523 0.03400
C 	C 	0.88922 0.47799 0.86698 -0.04600
C 	C 	0.88246 0.43683 0.86115 -0.05000
C 	C 	0.87810 0.42927 0.81004 -0.04400
H 	H 	0.90144 0.46207 0.75798 0.04700
H 	H 	0.91820 0.41765 0.76460 0.04600
H 	H 	0.89281 0.48464 0.90322 0.04600
H 	H 	0.86813 0.49377 0.85510 0.04200
H 	H 	0.85667 0.44394 0.79718 0.03600
H 	H 	0.87364 0.39988 0.80424 0.04200
C 	C 	0.91244 0.41583 0.87747 -0.04800
H 	H 	0.90832 0.38615 0.87367 0.04600
H 	H 	0.91658 0.42110 0.91397 0.03900
C 	C 	0.94285 0.42717 0.85047 -0.08600
H 	H 	0.96147 0.43636 0.87486 0.04300
H 	H 	0.95281 0.40311 0.83293 0.04800
C 	C 	0.91966 0.48981 0.84041 -0.08700
H 	H 	0.93698 0.50232 0.86447 0.04300
H 	H 	0.91317 0.51124 0.81571 0.04800
C 	C 	0.91341 0.48302 0.08977 -0.05200
C 	C 	0.90848 0.44128 0.08920 -0.03200
C 	C 	0.96826 0.43411 0.10709 -0.08500
C 	C 	0.95647 0.46040 0.14473 0.03200
C 	C 	0.94117 0.49408 0.12178 -0.08500
H 	H 	0.91910 0.49311 0.05528 0.04900
H 	H 	0.89079 0.49644 0.10066 0.04300
H 	H 	0.97821 0.40924 0.12280 0.04700
H 	H 	0.98798 0.44643 0.08677 0.04300
H 	H 	0.95943 0.50953 0.10198 0.04300
H 	H 	0.93187 0.51283 0.14801 0.04800
C 	C 	0.92868 0.44031 0.17055 -0.08500
H 	H 	0.91856 0.45823 0.19705 0.04700
H 	H 	0.93819 0.41572 0.18745 0.04700
C 	C 	0.90093 0.42890 0.13810 -0.05200
H 	H 	0.89772 0.39896 0.13932 0.05000
H 	H 	0.87789 0.44102 0.14966 0.04200
C 	C 	0.94052 0.42354 0.07457 -0.05300
H 	H 	0.93769 0.39354 0.07400 0.04600
H 	H 	0.94688 0.43220 0.03971 0.04200
C 	C 	0.04347 0.86195 0.96996 -0.00400
C 	C 	0.02440 0.83246 0.98390 -0.03900
C 	C 	0.03641 0.79731 0.98093 -0.03200
C 	C 	0.06742 0.79159 0.96374 -0.01100
C 	C 	0.08448 0.82048 0.94407 -0.03300
C 	C 	0.07244 0.85565 0.94703 -0.03600
C 	C 	0.08394 0.75862 0.97445 0.05000
C 	C 	0.09753 0.73089 0.98361 -0.12200
C 	C 	0.03793 0.89698 0.98941 0.04600
C 	C 	0.03315 0.92626 0.00581 -0.10900
H 	H 	0.00155 0.83700 0.00062 0.04200
H 	H 	0.02267 0.77494 0.99512 0.03800
H 	H 	0.10812 0.81615 0.92958 0.03700
H 	H 	0.08697 0.87822 0.93504 0.04100
C 	C 	0.05583 0.50418 0.86441 -0.08500
C 	C 	0.03981 0.52754 0.82687 0.03300
C 	C 	0.03944 0.58078 0.88201 -0.05100
C 	C 	0.07507 0.56824 0.88300 -0.03300
C 	C 	0.07581 0.52790 0.89728 -0.05200
H 	H 	0.03759 0.48900 0.88447 0.04200
H 	H 	0.07172 0.48364 0.84864 0.04700
H 	H 	0.03827 0.60964 0.87128 0.04200
H 	H 	0.02862 0.57910 0.91631 0.04900
H 	H 	0.06599 0.52474 0.93201 0.04200
H 	H 	0.10114 0.51823 0.89802 0.04200
C 	C 	0.08858 0.57109 0.83434 -0.05100
H 	H 	0.11401 0.56177 0.83345 0.04800
H 	H 	0.08860 0.59984 0.82305 0.04400
C 	C 	0.06784 0.54763 0.80143 -0.08600
H 	H 	0.05784 0.56565 0.77494 0.04700
H 	H 	0.08366 0.52761 0.78454 0.04700
C 	C 	0.01907 0.55728 0.84969 -0.08600
H 	H 	0.00811 0.57483 0.82343 0.04800
H 	H 	0.99880 0.54512 0.86921 0.04400
C 	C 	0.09548 0.55143 0.09258 -0.04800
C 	C 	0.08956 0.58987 0.11151 -0.05000
C 	C 	0.03294 0.56921 0.13476 -0.08700
C 	C 	0.05500 0.54037 0.15689 0.03400
C 	C 	0.07596 0.52263 0.11932 -0.08600
H 	H 	0.08845 0.55029 0.05639 0.03800
H 	H 	0.12162 0.54498 0.09430 0.04300
H 	H 	0.01832 0.58281 0.16117 0.04800
H 	H 	0.01562 0.55641 0.11092 0.04300
H 	H 	0.06096 0.50719 0.09493 0.04300
H 	H 	0.09279 0.50292 0.13483 0.04700
C 	C 	0.07881 0.56137 0.18865 -0.08900
H 	H 	0.09532 0.54202 0.20546 0.04500
H 	H 	0.06514 0.57571 0.21541 0.04600
C 	C 	0.09923 0.58988 0.16202 -0.04300
H 	H 	0.09555 0.61725 0.17668 0.03500
H 	H 	0.12528 0.58352 0.16557 0.04100
C 	C 	0.05287 0.59784 0.10876 -0.04600
H 	H 	0.04793 0.62520 0.12274 0.04100
H 	H 	0.04470 0.59795 0.07303 0.04900
C 	C 	0.87360 0.96617 0.06977 -0.00800
C 	C 	0.84844 0.97041 0.10078 -0.03400
C 	C 	0.81806 0.95535 0.09185 -0.03300
C 	C 	0.81274 0.93597 0.05190 -0.01000
C 	C 	0.83765 0.93259 0.02033 -0.03000
C 	C 	0.86803 0.94767 0.02924 -0.03400
C 	C 	0.78256 0.91725 0.04508 0.05200
C 	C 	0.75702 0.90191 0.04046 -0.12200
C 	C 	0.90542 0.97950 0.08021 0.05500
C 	C 	0.93233 0.99035 0.08799 -0.12100
H 	H 	0.85253 0.98481 0.13208 0.03800
H 	H 	0.79888 0.95809 0.11640 0.03900
H 	H 	0.83371 0.91768 0.98936 0.03700
H 	H 	0.88735 0.94444 0.00501 0.04400
C 	C 	0.56308 0.92662 0.87348 -0.08400
C 	C 	0.57713 0.95560 0.84039 0.03100
C 	C 	0.62076 0.97000 0.89884 -0.05200
C 	C 	0.62287 0.92824 0.89337 -0.03300
C 	C 	0.58949 0.91130 0.90460 -0.05300
H 	H 	0.54386 0.93792 0.89520 0.04200
H 	H 	0.55181 0.90413 0.85392 0.04700
H 	H 	0.64440 0.98283 0.89039 0.04200
H 	H 	0.61523 0.97719 0.93443 0.04900
H 	H 	0.58309 0.91690 0.94037 0.04100
H 	H 	0.59030 0.88133 0.90077 0.04700
C 	C 	0.63045 0.92015 0.84320 -0.05200
H 	H 	0.63174 0.89039 0.83768 0.04900
H 	H 	0.65440 0.93184 0.83403 0.04200
C 	C 	0.60392 0.93639 0.81215 -0.08500
H 	H 	0.61549 0.95605 0.78860 0.04700
H 	H 	0.59304 0.91424 0.79162 0.04700
C 	C 	0.59430 0.98581 0.86828 -0.08500
H 	H 	0.60522 0.00624 0.84511 0.04800
H 	H 	0.57689 0.00048 0.88993 0.04200
C 	C 	0.59572 0.96900 0.14557 -0.08800
C 	C 	0.57233 0.94235 0.17010 0.03400
C 	C 	0.58165 0.89708 0.10566 -0.04700
C 	C 	0.61623 0.90661 0.12177 -0.04900
C 	C 	0.62112 0.94835 0.11767 -0.04500
H 	H 	0.58228 0.98721 0.12258 0.04400
H 	H 	0.60812 0.98659 0.17072 0.04900
H 	H 	0.57724 0.86738 0.10851 0.04300
H 	H 	0.57895 0.90432 0.06944 0.03700
H 	H 	0.61920 0.95686 0.08177 0.04700
H 	H 	0.64571 0.95613 0.12941 0.04500
C 	C 	0.61881 0.89641 0.17223 -0.04400
H 	H 	0.64349 0.90276 0.18485 0.03400
H 	H 	0.61480 0.86679 0.17680 0.03900
C 	C 	0.59359 0.91735 0.20039 -0.08800
H 	H 	0.57804 0.89745 0.21863 0.04500
H 	H 	0.60673 0.93388 0.22591 0.04600
C 	C 	0.55612 0.91750 0.13394 -0.08700
H 	H 	0.53985 0.89756 0.15083 0.04600
H 	H 	0.54097 0.93348 0.11053 0.04200
C 	C 	0.16924 0.06972 0.06666 -0.01000
C 	C 	0.17894 0.10359 0.04992 -0.03300
C 	C 	0.21164 0.11123 0.04312 -0.03400
C 	C 	0.23478 0.08500 0.05301 -0.00900
C 	C 	0.22510 0.05115 0.06988 -0.03400
C 	C 	0.19239 0.04352 0.07669 -0.03300
C 	C 	0.26849 0.09353 0.04817 0.05100
C 	C 	0.29668 0.10087 0.04404 -0.12400
C 	C 	0.13552 0.06099 0.07060 0.05600
C 	C 	0.10726 0.05371 0.07389 -0.12400
H 	H 	0.16115 0.12389 0.04183 0.04100
H 	H 	0.21898 0.13754 0.03034 0.03700
H 	H 	0.24289 0.03083 0.07786 0.03900
H 	H 	0.18504 0.01718 0.08939 0.03600
C 	C 	0.48766 0.05491 0.87274 -0.08400
C 	C 	0.47273 0.02660 0.83955 0.03100
C 	C 	0.42820 0.01428 0.89750 -0.05100
C 	C 	0.42778 0.05615 0.89208 -0.03300
C 	C 	0.46171 0.07139 0.90365 -0.05300
H 	H 	0.50634 0.04276 0.89462 0.04200
H 	H 	0.49981 0.07689 0.85323 0.04700
H 	H 	0.40415 0.00266 0.88870 0.04200
H 	H 	0.43314 0.00672 0.93313 0.04900
H 	H 	0.46767 0.06536 0.93946 0.04100
H 	H 	0.46211 0.10140 0.89993 0.04800
C 	C 	0.42087 0.06473 0.84185 -0.05200
H 	H 	0.42088 0.09454 0.83635 0.04900
H 	H 	0.39653 0.05434 0.83244 0.04100
C 	C 	0.44690 0.04712 0.81103 -0.08500
H 	H 	0.43466 0.02801 0.78750 0.04700
H 	H 	0.45875 0.06865 0.79046 0.04700
C 	C 	0.45425 0.99723 0.86728 -0.08500
H 	H 	0.44276 0.97733 0.84401 0.04800
H 	H 	0.47093 0.98174 0.88915 0.04300
C 	C 	0.45610 0.05545 0.19892 -0.08800
C 	C 	0.47984 0.03325 0.16884 0.03400
C 	C 	0.43597 0.03285 0.10816 -0.04500
C 	C 	0.44013 0.07380 0.11940 -0.04900
C 	C 	0.43306 0.07880 0.17019 -0.04400
H 	H 	0.44130 0.03679 0.22014 0.04600
H 	H 	0.46993 0.07375 0.22174 0.04600
H 	H 	0.44114 0.02812 0.07182 0.04400
H 	H 	0.41059 0.02409 0.11433 0.04700
H 	H 	0.40761 0.07099 0.17761 0.03500
H 	H 	0.43601 0.10778 0.17978 0.03700
C 	C 	0.47582 0.08462 0.11067 -0.04700
H 	H 	0.47980 0.11370 0.11901 0.04300
H 	H 	0.48162 0.08127 0.07428 0.03700
C 	C 	0.49890 0.06112 0.13934 -0.08700
H 	H 	0.51577 0.04715 0.11620 0.04300
H 	H 	0.51379 0.07897 0.16139 0.04700
C 	C 	0.45877 0.00938 0.13700 -0.08800
H 	H 	0.47406 0.99321 0.11392 0.04300
H 	H 	0.44428 0.98976 0.15729 0.04700
C 	C 	0.47800 0.25020 0.93870 -0.01300
C 	C 	0.50462 0.26630 0.96006 -0.03200
C 	C 	0.51122 0.30317 0.95355 -0.03700
C 	C 	0.49120 0.32377 0.92563 -0.00100
C 	C 	0.46902 0.30596 0.89758 -0.03700
C 	C 	0.46246 0.26907 0.90406 -0.03100
C 	C 	0.48644 0.36142 0.93608 0.04100
C 	C 	0.48309 0.39285 0.94581 -0.09200
C 	C 	0.46083 0.22140 0.96133 0.05500
C 	C 	0.44562 0.19745 0.97931 -0.12900
H 	H 	0.51783 0.25146 0.98545 0.03700
H 	H 	0.52951 0.31641 0.97393 0.04100
H 	H 	0.45438 0.32134 0.87433 0.04200
H 	H 	0.44280 0.25636 0.88575 0.03900
C 	C 	0.25989 0.53282 0.01671 -0.00800
C 	C 	0.27273 0.52272 0.05853 -0.03500
C 	C 	0.30511 0.51273 0.06186 -0.03600
C 	C 	0.32467 0.51257 0.02333 -0.00700
C 	C 	0.31099 0.51912 0.98099 -0.03600
C 	C 	0.27863 0.52913 0.97767 -0.03600
C 	C 	0.35922 0.51070 0.02784 0.05300
C 	C 	0.38816 0.50918 0.03108 -0.12100
C 	C 	0.23126 0.55456 0.01527 0.05100
C 	C 	0.20729 0.57276 0.01397 -0.12500
H 	H 	0.25832 0.52501 0.08885 0.03500
H 	H 	0.31536 0.50706 0.09466 0.03600
H 	H 	0.32581 0.51843 0.95092 0.04200
H 	H 	0.26881 0.53643 0.94512 0.04000
C 	C 	0.63274 0.48522 0.05149 -0.00800
C 	C 	0.64643 0.45379 0.06941 -0.03500
C 	C 	0.67798 0.44438 0.05797 -0.03300
C 	C 	0.69598 0.46635 0.02854 -0.01300
C 	C 	0.68293 0.49879 0.01258 -0.03000
C 	C 	0.65136 0.50822 0.02405 -0.03500
C 	C 	0.72639 0.45383 0.01126 0.05500
C 	C 	0.75181 0.44298 0.99711 -0.13000
C 	C 	0.59863 0.49125 0.05629 0.05300
C 	C 	0.57008 0.49623 0.06038 -0.12100
H 	H 	0.63225 0.43594 0.09079 0.03900
H 	H 	0.68799 0.41938 0.07071 0.03600
H 	H 	0.69677 0.51606 0.99007 0.03700
H 	H 	0.64102 0.53265 0.01021 0.04100
C 	C 	0.57417 0.73032 0.96530 -0.01200
C 	C 	0.58817 0.69940 0.94643 -0.03300
C 	C 	0.57060 0.66692 0.94414 -0.03500
C 	C 	0.53897 0.66526 0.96066 -0.00700
C 	C 	0.52401 0.69702 0.97548 -0.03600
C 	C 	0.54160 0.72948 0.97784 -0.03400
C 	C 	0.52421 0.63062 0.97025 0.04900
C 	C 	0.51102 0.60222 0.97894 -0.11600
C 	C 	0.59448 0.76015 0.97915 0.05300
C 	C 	0.61237 0.78450 0.99021 -0.12900
H 	H 	0.61322 0.69994 0.93605 0.03800
H 	H 	0.58223 0.64263 0.93208 0.04100
H 	H 	0.49940 0.69609 0.98774 0.03700
H 	H 	0.53044 0.75337 0.99190 0.03700
