data_crystal

_cell_length_a 16.47351
_cell_length_b 14.46257
_cell_length_c 37.78991
_cell_angle_alpha 89.89968
_cell_angle_beta  89.90230
_cell_angle_gamma 119.42054

_symmetry_space_group_name_	'P 1'
_symmetry_space_group_name_H-M	'P 1'

loop_
_symmetry_equiv_pos_as_xyz
  x,y,z

loop_
_atom_site_label
_atom_site_type_symbol
_atom_site_fract_x
_atom_site_fract_y
_atom_site_fract_z
_atom_site_charge
Ni	Ni	0.11114 0.16366 0.73390 1.11800
O 	O 	0.04894 0.01193 0.73546 -0.70500
O 	O 	0.02108 0.12017 0.17967 -0.36800
O 	O 	0.99679 0.14467 0.25759 -0.35400
C 	C 	0.01616 0.37274 0.49344 -0.02600
C 	C 	0.12466 0.49313 0.53522 -0.01000
H 	H 	0.19434 0.53312 0.54616 0.04300
C 	C 	0.04206 0.58895 0.01109 0.00100
Ni	Ni	0.10776 0.94646 0.75815 1.10200
C 	C 	0.06785 0.08146 0.16198 0.29700
C 	C 	0.08692 0.20329 0.25469 0.30700
C 	C 	0.05136 0.92643 0.30461 0.29400
C 	C 	0.04730 0.77928 0.22554 0.27800
Ni	Ni	0.10325 0.01533 0.23233 1.11800
C 	C 	0.06454 0.20401 0.07555 -0.04600
C 	C 	0.02902 0.12862 0.10297 0.15400
H 	H 	0.01844 0.22539 0.06178 0.05800
C 	C 	0.08376 0.36215 0.28030 0.15500
H 	H 	0.08393 0.48755 0.31102 0.05900
C 	C 	0.07156 0.92363 0.34264 -0.08300
C 	C 	0.04938 0.80579 0.39214 -0.05000
C 	C 	0.10877 0.44024 0.50246 -0.05600
C 	C 	0.01321 0.56275 0.04632 -0.10200
H 	H 	0.05568 0.99390 0.71087 0.14900
O 	O 	0.10381 0.01265 0.28582 -0.37500
C 	C 	0.09114 0.11252 0.12436 -0.08600
C 	C 	0.01340 0.59155 0.21494 -0.08900
C 	C 	0.12471 0.45169 0.30215 -0.05000
H 	H 	0.07316 0.67931 0.68233 0.15300
C 	C 	0.00229 0.51167 0.98479 -0.03600
H 	H 	0.03109 0.53041 0.95825 0.04400
H 	H 	0.05757 0.86225 0.85857 0.04200
O 	O 	0.98771 0.42207 0.19434 -0.26300
H 	H 	0.04307 0.35588 0.79264 0.05400
C 	C 	0.04767 0.52242 0.20636 0.17100
O 	O 	0.22343 0.81025 0.25446 -0.27800
H 	H 	0.26467 0.86333 0.23672 0.15200
H 	H 	0.10511 0.66241 0.00510 0.03700
C 	C 	0.21745 0.14335 0.79572 0.33100
C 	C 	0.25681 0.12518 0.70769 0.29800
O 	O 	0.14532 0.05104 0.79928 -0.39100
O 	O 	0.22060 0.20408 0.76900 -0.37500
O 	O 	0.23601 0.04181 0.72940 -0.34300
O 	O 	0.19217 0.14785 0.69773 -0.38500
C 	C 	0.19500 0.80834 0.40815 0.30700
C 	C 	0.16847 0.50386 0.47334 0.28800
C 	C 	0.24596 0.55558 0.34641 0.31200
Ni	Ni	0.29159 0.72950 0.46325 1.11400
Ni	Ni	0.32382 0.56323 0.41676 1.12200
Ni	Ni	0.34606 0.77653 0.38060 1.12200
O 	O 	0.22482 0.81105 0.44133 -0.35800
O 	O 	0.22219 0.77129 0.38131 -0.38400
O 	O 	0.34915 0.65835 0.49629 -0.37100
O 	O 	0.30468 0.66000 0.34282 -0.37400
O 	O 	0.23170 0.50545 0.37722 -0.38000
O 	O 	0.16874 0.59252 0.46683 -0.38500
O 	O 	0.22592 0.47709 0.45637 -0.36500
O 	O 	0.29589 0.67650 0.41861 -0.71000
H 	H 	0.22971 0.63810 0.41181 0.17400
C 	C 	0.18416 0.54860 0.17202 0.32400
C 	C 	0.19852 0.38244 0.07590 0.33200
C 	C 	0.08712 0.58638 0.07182 0.31500
C 	C 	0.32797 0.83648 0.05574 0.28100
Ni	Ni	0.32865 0.55173 0.12246 1.11600
Ni	Ni	0.24378 0.71324 0.11987 1.11900
Ni	Ni	0.25651 0.60020 0.04984 1.12100
O 	O 	0.13198 0.67930 0.08775 -0.37400
O 	O 	0.26267 0.54537 0.17132 -0.36400
O 	O 	0.15767 0.57486 0.14340 -0.39500
O 	O 	0.27131 0.74703 0.03828 -0.37700
O 	O 	0.20746 0.41973 0.10773 -0.37400
O 	O 	0.23631 0.44805 0.04904 -0.38100
O 	O 	0.32033 0.84300 0.09048 -0.37900
O 	O 	0.12820 0.53111 0.06863 -0.39900
O 	O 	0.30215 0.64464 0.09628 -0.70900
O 	O 	0.11309 0.03972 0.17908 -0.37200
O 	O 	0.11433 0.88102 0.22724 -0.37200
O 	O 	0.13433 0.17059 0.23541 -0.37500
C 	C 	0.18320 0.15194 0.11235 -0.06000
C 	C 	0.21719 0.22666 0.08470 0.17100
C 	C 	0.16128 0.26803 0.07200 -0.11400
H 	H 	0.23044 0.13300 0.12643 0.07100
O 	O 	0.30974 0.27466 0.07574 -0.28900
H 	H 	0.31291 0.23387 0.05522 0.15300
C 	C 	0.14477 0.56140 0.20547 -0.10900
C 	C 	0.20071 0.65108 0.22593 -0.05600
C 	C 	0.16739 0.72043 0.23546 0.16000
C 	C 	0.07538 0.69534 0.22619 -0.08500
H 	H 	0.27341 0.67481 0.23014 0.06900
C 	C 	0.21570 0.49025 0.31443 -0.10100
C 	C 	0.13443 0.31032 0.27082 -0.09000
C 	C 	0.22927 0.35751 0.27955 -0.05800
C 	C 	0.27027 0.44813 0.30087 0.17000
H 	H 	0.27015 0.32122 0.27126 0.06900
O 	O 	0.36177 0.49037 0.31072 -0.27300
H 	H 	0.39778 0.54573 0.29275 0.15900
C 	C 	0.15914 0.99679 0.35619 -0.06900
C 	C 	0.19538 0.96826 0.38510 0.16900
C 	C 	0.14470 0.86546 0.39959 -0.09900
H 	H 	0.20218 0.07144 0.34267 0.07700
O 	O 	0.28273 0.03768 0.39742 -0.27500
H 	H 	0.32653 0.03261 0.38055 0.15600
C 	C 	0.35444 0.96092 0.49424 -0.01700
H 	H 	0.30920 0.87649 0.49781 -0.01000
H 	H 	0.35378 0.43010 0.50509 0.04100
C 	C 	0.42751 0.17853 0.69914 0.16400
C 	C 	0.35611 0.20510 0.69902 -0.09700
C 	C 	0.37927 0.31061 0.69047 -0.05800
O 	O 	0.40937 0.07889 0.70906 -0.26900
H 	H 	0.32723 0.33543 0.69275 0.05800
H 	H 	0.46603 0.47316 0.64133 0.15200
H 	H 	0.39295 0.03715 0.68686 0.15100
H 	H 	0.29875 0.90226 0.99162 0.04800
H 	H 	0.37264 0.39202 0.95031 0.04300
H 	H 	0.34468 0.40848 0.01312 0.05800
C 	C 	0.37209 0.11913 0.86422 -0.06200
C 	C 	0.29960 0.13143 0.84951 0.17300
C 	C 	0.30377 0.16111 0.81361 -0.11000
C 	C 	0.37954 0.17400 0.79308 -0.05600
H 	H 	0.37137 0.10419 0.89237 0.06000
O 	O 	0.22748 0.12011 0.87066 -0.28200
H 	H 	0.38549 0.19882 0.76606 0.07700
H 	H 	0.18201 0.04309 0.87067 0.15800
O 	O 	0.39572 0.92018 0.40604 -0.37000
O 	O 	0.34422 0.76136 0.16021 -0.36500
H 	H 	0.35612 0.99123 0.54983 0.03100
O 	O 	0.06142 0.65531 0.70735 -0.29400
C 	C 	0.38089 0.02608 0.52393 0.02300
C 	C 	0.05754 0.51800 0.54842 -0.00900
H 	H 	0.07460 0.57261 0.57032 0.04500
C 	C 	0.36565 0.95696 0.00306 -0.01800
C 	C 	0.46848 0.38317 0.67734 0.17200
O 	O 	0.48685 0.48205 0.66632 -0.28100
O 	O 	0.52919 0.15232 0.57812 -0.36500
C 	C 	0.41219 0.63370 0.48539 0.30200
C 	C 	0.42189 0.93265 0.43920 0.30000
C 	C 	0.48540 0.71645 0.37330 0.32400
O 	O 	0.42642 0.61499 0.37925 -0.35500
O 	O 	0.42850 0.63277 0.45175 -0.37800
O 	O 	0.42170 0.85356 0.45477 -0.37700
O 	O 	0.46986 0.78824 0.38736 -0.38600
C 	C 	0.42804 0.59405 0.04838 0.28900
C 	C 	0.42298 0.75376 0.16130 0.30000
O 	O 	0.40567 0.53865 0.07892 -0.34900
O 	O 	0.39020 0.65193 0.03951 -0.39000
O 	O 	0.43674 0.69011 0.14038 -0.38200
H 	H 	0.36413 0.70640 0.09201 0.17500
H 	H 	0.43990 0.66369 0.22310 0.06000
C 	C 	0.45634 0.12823 0.52090 -0.08000
C 	C 	0.47471 0.17618 0.48714 -0.00600
C 	C 	0.45243 0.11165 0.45725 -0.00000
C 	C 	0.40182 0.00172 0.46174 -0.05300
H 	H 	0.52077 0.26046 0.48428 0.04100
H 	H 	0.48293 0.14589 0.43183 0.04700
C 	C 	0.48273 0.44685 0.52504 -0.01100
C 	C 	0.45786 0.59542 0.51043 -0.06800
C 	C 	0.42387 0.48556 0.51368 -0.00800
H 	H 	0.45629 0.36197 0.52629 0.04900
C 	C 	0.53613 0.35169 0.67323 -0.09900
C 	C 	0.51856 0.25506 0.68929 -0.05600
C 	C 	0.39172 0.93454 0.03591 -0.06300
C 	C 	0.42625 0.05031 0.98474 0.00000
H 	H 	0.40631 0.06508 0.95893 0.04100
C 	C 	0.42033 0.46351 0.96439 -0.00400
C 	C 	0.50704 0.53294 0.94947 -0.06800
C 	C 	0.46695 0.56286 0.01923 -0.05800
C 	C 	0.40603 0.47102 0.00041 -0.01200
C 	C 	0.45357 0.14854 0.84461 -0.09500
C 	C 	0.44842 0.15562 0.80775 0.17400
O 	O 	0.04275 0.82368 0.72209 -0.38300
O 	O 	0.03865 0.18391 0.77292 -0.39700
C 	C 	0.53645 0.15543 0.54375 0.31700
H 	H 	0.03701 0.27762 0.64321 0.05400
C 	C 	0.54847 0.66594 0.52205 -0.00200
H 	H 	0.57558 0.75082 0.51985 0.04600
O 	O 	0.51821 0.16046 0.78664 -0.27100
C 	C 	0.54014 0.22717 0.86096 0.29400
C 	C 	0.55729 0.48331 0.93492 0.29400
O 	O 	0.55528 0.32578 0.85995 -0.37500
O 	O 	0.60585 0.52040 0.90478 -0.36500
O 	O 	0.57477 0.42584 0.95741 -0.38900
H 	H 	0.59833 0.32264 0.91897 0.16700
C 	C 	0.59147 0.38101 0.64011 0.31700
O 	O 	0.56788 0.30789 0.61701 -0.40300
O 	O 	0.61412 0.17540 0.52948 -0.38800
O 	O 	0.62975 0.38923 0.52638 -0.36400
C 	C 	0.49076 0.80303 0.18993 -0.10000
C 	C 	0.50131 0.73327 0.21314 -0.06300
C 	C 	0.55024 0.74824 0.34317 -0.10600
C 	C 	0.61173 0.70795 0.33944 0.17800
O 	O 	0.59806 0.62036 0.35836 -0.27300
H 	H 	0.63347 0.64860 0.38063 0.15800
C 	C 	0.57609 0.51770 0.53362 -0.05500
C 	C 	0.60735 0.62751 0.53355 -0.01100
H 	H 	0.67838 0.68346 0.54090 0.05500
H 	H 	0.57198 0.23224 0.68880 0.06200
C 	C 	0.47775 0.00849 0.05079 0.00300
C 	C 	0.53871 0.10139 0.03229 -0.01100
C 	C 	0.51438 0.12159 0.99874 -0.05800
H 	H 	0.49843 0.99281 0.07631 0.03700
C 	C 	0.56112 0.63114 0.96596 -0.00600
C 	C 	0.54503 0.64329 0.00156 -0.01000
H 	H 	0.56518 0.23681 0.78507 0.15500
H 	H 	0.00828 0.46803 0.84989 0.14000
C 	C 	0.58671 0.20127 0.97501 0.28100
O 	O 	0.60891 0.20458 0.86785 -0.36400
O 	O 	0.59931 0.16744 0.94404 -0.38100
C 	C 	0.64168 0.47750 0.54191 0.28800
Ni	Ni	0.64101 0.23514 0.61082 1.11800
C 	C 	0.57025 0.90010 0.18226 0.16500
C 	C 	0.58913 0.73978 0.21675 0.16700
O 	O 	0.56164 0.98018 0.16634 -0.28400
O 	O 	0.59655 0.66210 0.23490 -0.28100
H 	H 	0.58579 0.60712 0.21703 0.15300
H 	H 	0.56296 0.96867 0.14051 0.14900
H 	H 	0.58997 0.71756 0.01482 0.04500
H 	H 	0.51170 0.86152 0.32306 0.04800
Ni	Ni	0.67587 0.45283 0.87666 1.11600
O 	O 	0.64900 0.29691 0.98761 -0.37600
O 	O 	0.66606 0.36798 0.91604 -0.71200
O 	O 	0.66766 0.47401 0.63488 -0.36900
C 	C 	0.56153 0.83318 0.32159 -0.05100
C 	C 	0.68846 0.75859 0.31673 -0.04600
H 	H 	0.73578 0.72707 0.31407 0.06000
O 	O 	0.68556 0.39650 0.73030 -0.28500
H 	H 	0.69175 0.36745 0.75328 0.15600
H 	H 	0.60652 0.15482 0.04334 0.04700
H 	H 	0.62408 0.69120 0.95324 0.04700
H 	H 	0.01061 0.70215 0.91137 0.15600
Ni	Ni	0.70001 0.43846 0.96027 1.12300
Ni	Ni	0.70057 0.26106 0.91059 1.12000
O 	O 	0.73785 0.40181 0.83855 -0.37000
Ni	Ni	0.72024 0.32651 0.53191 1.11200
O 	O 	0.72037 0.54100 0.55838 -0.36900
O 	O 	0.72413 0.29235 0.65596 -0.37400
O 	O 	0.69960 0.14825 0.59232 -0.36600
O 	O 	0.72399 0.35107 0.58124 -0.69900
C 	C 	0.66840 0.82624 0.20146 -0.09800
C 	C 	0.65888 0.91072 0.18703 -0.05800
C 	C 	0.64070 0.88735 0.30029 0.17500
C 	C 	0.70684 0.85268 0.29889 -0.10500
H 	H 	0.62296 0.95403 0.26025 0.15700
H 	H 	0.70062 0.19414 0.80812 0.07700
O 	O 	0.75247 0.06838 0.77826 -0.27500
H 	H 	0.74458 0.02301 0.79914 0.16100
H 	H 	0.74353 0.76730 0.90395 0.06400
H 	H 	0.74248 0.80628 0.82953 0.14500
O 	O 	0.65636 0.97824 0.28307 -0.27600
O 	O 	0.99688 0.83644 0.28863 -0.36500
C 	C 	0.01233 0.83453 0.36353 0.14900
H 	H 	0.77084 0.99517 0.57717 0.06100
O 	O 	0.75483 0.59415 0.94466 -0.37300
Ni	Ni	0.77108 0.49319 0.59925 1.12000
H 	H 	0.71973 0.98333 0.17858 0.05800
H 	H 	0.79431 0.89163 0.63628 0.15600
C 	C 	0.77499 0.46495 0.72000 0.16800
H 	H 	0.77616 0.60263 0.74246 0.07000
C 	C 	0.77532 0.22968 0.80466 -0.06700
O 	O 	0.78572 0.86977 0.84336 -0.28100
C 	C 	0.77960 0.18751 0.57431 0.29200
H 	H 	0.78219 0.35226 0.58732 0.14700
H 	H 	0.97927 0.43015 0.16875 0.16000
O 	O 	0.01596 0.76867 0.92104 -0.30200
H 	H 	0.00006 0.31837 0.47151 0.04700
H 	H 	0.00683 0.73095 0.40564 0.05700
O 	O 	0.95756 0.75168 0.22238 -0.36500
H 	H 	0.96531 0.91610 0.20294 0.16900
O 	O 	0.97092 0.94805 0.22648 -0.70500
H 	H 	0.94027 0.56615 0.21112 0.08700
O 	O 	0.93490 0.07371 0.10947 -0.26800
H 	H 	0.92168 0.12148 0.12421 0.15400
C 	C 	0.92700 0.47110 0.05274 0.02700
H 	H 	0.90107 0.45053 0.07960 0.03500
O 	O 	0.99525 0.32678 0.26776 -0.25700
C 	C 	0.81242 0.63225 0.91755 0.32600
C 	C 	0.79857 0.37130 0.84663 0.32700
C 	C 	0.84812 0.39317 0.96195 0.30100
O 	O 	0.82762 0.46482 0.95310 -0.39200
O 	O 	0.80558 0.56897 0.89198 -0.37900
O 	O 	0.81049 0.35445 0.87958 -0.38500
O 	O 	0.79497 0.29467 0.95090 -0.36600
C 	C 	0.90103 0.50958 0.54093 0.29400
C 	C 	0.78833 0.39370 0.66275 0.30500
O 	O 	0.82821 0.47501 0.52110 -0.37900
O 	O 	0.89673 0.54313 0.57306 -0.35300
O 	O 	0.83434 0.46000 0.63727 -0.39800
O 	O 	0.79614 0.24823 0.54525 -0.34900
C 	C 	0.95114 0.75925 0.72349 0.32400
C 	C 	0.94794 0.88165 0.80853 0.32200
C 	C 	0.94948 0.15195 0.76925 0.34100
C 	C 	0.96967 0.08255 0.67376 0.32800
Ni	Ni	0.91665 0.94883 0.73781 1.12300
O 	O 	0.89165 0.79617 0.72873 -0.37200
O 	O 	0.92011 0.98368 0.68612 -0.37700
O 	O 	0.99868 0.84803 0.79180 -0.36800
O 	O 	0.90930 0.92862 0.79109 -0.37200
O 	O 	0.02384 0.16329 0.69524 -0.38800
O 	O 	0.89938 0.07599 0.74670 -0.36600
C 	C 	0.79749 0.91616 0.28088 0.33000
C 	C 	0.76229 0.83310 0.20107 0.30000
Ni	Ni	0.91936 0.03795 0.21866 1.11700
Ni	Ni	0.90137 0.82030 0.25264 1.12000
O 	O 	0.80616 0.97869 0.25415 -0.36100
O 	O 	0.86454 0.89650 0.28790 -0.38700
O 	O 	0.83094 0.91700 0.18600 -0.37300
O 	O 	0.78060 0.77166 0.22266 -0.35800
H 	H 	0.95302 0.28171 0.28692 0.16300
O 	O 	0.91909 0.77567 0.35592 -0.26300
H 	H 	0.91201 0.71327 0.34249 0.15300
C 	C 	0.96987 0.47410 0.53205 -0.05600
C 	C 	0.94868 0.39777 0.50504 0.02600
H 	H 	0.88167 0.36159 0.49196 0.02100
C 	C 	0.85142 0.16340 0.58733 -0.09300
C 	C 	0.82852 0.05693 0.59178 -0.05000
C 	C 	0.87380 0.02885 0.61760 0.18000
C 	C 	0.94375 0.10851 0.63882 -0.10100
C 	C 	0.97811 0.21530 0.62931 -0.03400
C 	C 	0.93033 0.24297 0.60464 0.16200
O 	O 	0.85127 0.92454 0.62134 -0.28100
O 	O 	0.95648 0.34766 0.59965 -0.28200
H 	H 	0.92717 0.36595 0.61932 0.15500
C 	C 	0.82412 0.42950 0.69885 -0.09700
C 	C 	0.92186 0.48597 0.70215 -0.05800
C 	C 	0.96642 0.59518 0.71035 0.19000
C 	C 	0.91202 0.64126 0.72139 -0.10100
C 	C 	0.81712 0.57272 0.72936 -0.05200
H 	H 	0.96274 0.45238 0.69145 0.07000
C 	C 	0.91548 0.42071 0.99056 -0.04100
C 	C 	0.88083 0.39800 0.02539 -0.03100
H 	H 	0.81396 0.32857 0.03072 0.05000
C 	C 	0.83473 0.32990 0.81898 -0.10400
C 	C 	0.81195 0.17026 0.78906 0.18200
C 	C 	0.90941 0.21441 0.78532 -0.11000
C 	C 	0.96842 0.31918 0.79658 -0.03100
C 	C 	0.93149 0.37621 0.81377 0.16400
O 	O 	0.99018 0.47709 0.82565 -0.26300
C 	C 	0.86327 0.74603 0.91014 -0.10800
C 	C 	0.81271 0.78951 0.89430 -0.06000
C 	C 	0.84183 0.84057 0.86141 0.17000
C 	C 	0.92722 0.85782 0.84670 -0.10400
C 	C 	0.98866 0.84153 0.86815 -0.03400
C 	C 	0.95776 0.78976 0.90084 0.18700
