data_crystal

_cell_length_a 20.93893
_cell_length_b 21.38837
_cell_length_c 22.61368
_cell_angle_alpha 61.12470
_cell_angle_beta  118.49769
_cell_angle_gamma 133.24460

_symmetry_space_group_name_	'P 1'
_symmetry_space_group_name_H-M	'P 1'

loop_
_symmetry_equiv_pos_as_xyz
  x,y,z

loop_
_atom_site_label
_atom_site_type_symbol
_atom_site_fract_x
_atom_site_fract_y
_atom_site_fract_z
_atom_site_charge
Co	Co	0.11668 0.97242 0.17562 1.17000
Co	Co	0.05098 0.03841 0.23075 1.15900
C 	C 	0.12147 0.81367 0.21910 0.31600
Co	Co	0.09233 0.89155 0.06826 1.15300
C 	C 	0.08199 0.21079 0.21072 0.23400
O 	O 	0.15266 0.03518 0.24335 -0.45800
O 	O 	0.11223 0.17523 0.20574 -0.38500
O 	O 	0.03710 0.98474 0.33476 -0.37700
O 	O 	0.04993 0.92853 0.10555 -0.79700
O 	O 	0.06712 0.79488 0.15907 -0.42400
O 	O 	0.14150 0.87599 0.23927 -0.38600
O 	O 	0.10545 0.98852 0.97712 -0.32700
Co	Co	0.11896 0.97571 0.67774 1.17200
Co	Co	0.05219 0.04020 0.73361 1.15900
C 	C 	0.12636 0.81839 0.72221 0.31600
Co	Co	0.09283 0.89277 0.57106 1.15900
C 	C 	0.07817 0.20912 0.71382 0.23300
O 	O 	0.15539 0.04021 0.74430 -0.45600
O 	O 	0.10855 0.17577 0.70595 -0.38300
O 	O 	0.04409 0.99001 0.83895 -0.36900
O 	O 	0.05139 0.93063 0.60821 -0.79300
O 	O 	0.07102 0.79792 0.66289 -0.42000
O 	O 	0.14535 0.88044 0.74197 -0.38100
O 	O 	0.10315 0.98868 0.47973 -0.34600
C 	C 	0.14033 0.30004 0.72176 -0.09500
C 	C 	0.15920 0.31286 0.78510 -0.06400
C 	C 	0.18701 0.39267 0.78813 0.14200
H 	H 	0.14771 0.25911 0.83143 0.05800
O 	O 	0.20691 0.40451 0.85075 -0.27200
H 	H 	0.14978 0.38438 0.85473 0.14700
C 	C 	0.17045 0.77332 0.76538 -0.12300
C 	C 	0.11720 0.68126 0.77485 -0.04100
C 	C 	0.15227 0.64211 0.77813 0.13200
H 	H 	0.04603 0.64142 0.77228 0.04300
O 	O 	0.09792 0.55262 0.78484 -0.27700
H 	H 	0.06556 0.54477 0.73683 0.13100
C 	C 	0.20065 0.39195 0.29188 -0.08500
C 	C 	0.17405 0.31442 0.28541 0.16200
C 	C 	0.14493 0.30154 0.21924 -0.09500
H 	H 	0.22451 0.40186 0.34308 0.06500
C 	C 	0.16585 0.76875 0.26158 -0.12700
C 	C 	0.11394 0.67686 0.26988 0.19300
O 	O 	0.02437 0.62364 0.26947 -0.35600
C 	C 	0.03677 0.99274 0.93820 0.13100
C 	C 	0.01585 0.00920 0.36304 0.19500
C 	C 	0.03189 0.98810 0.44029 0.13900
C 	C 	0.02042 0.01137 0.86806 0.19100
C 	C 	0.15458 0.37003 0.66196 0.17100
C 	C 	0.19861 0.46168 0.72779 -0.04900
O 	O 	0.13734 0.35920 0.59969 -0.30000
C 	C 	0.18085 0.44914 0.66469 -0.08800
H 	H 	0.19133 0.50248 0.61814 0.07100
H 	H 	0.19524 0.37932 0.59727 0.15500
O 	O 	0.22536 0.97243 0.11765 -0.43000
O 	O 	0.22669 0.97592 0.61803 -0.41100
O 	O 	0.22364 0.07302 0.12675 -0.39800
O 	O 	0.22480 0.07618 0.62763 -0.39300
N 	N 	0.22614 0.57552 0.25747 -0.14500
N 	N 	0.22358 0.57775 0.75391 -0.13400
C 	C 	0.24322 0.69495 0.77547 -0.03500
C 	C 	0.20101 0.45844 0.23275 -0.05200
C 	C 	0.14871 0.36957 0.16040 -0.05800
C 	C 	0.15260 0.63999 0.27546 -0.10500
H 	H 	0.11039 0.57039 0.27714 0.06500
O 	O 	0.17130 0.24894 0.34371 -0.29300
H 	H 	0.23109 0.26150 0.35757 0.15200
C 	C 	0.25364 0.55270 0.73374 0.14400
C 	C 	0.25951 0.81933 0.27262 -0.04200
C 	C 	0.25710 0.54892 0.24005 0.14300
C 	C 	0.26348 0.05431 0.11371 0.34800
C 	C 	0.26435 0.05784 0.61374 0.35000
C 	C 	0.26380 0.82268 0.77450 0.18500
C 	C 	0.17308 0.44593 0.16671 0.14100
H 	H 	0.12652 0.36050 0.10918 0.05100
C 	C 	0.24405 0.69392 0.27503 -0.03700
O 	O 	0.17441 0.51076 0.10827 -0.27500
H 	H 	0.11376 0.49642 0.09426 0.14100
O 	O 	0.99706 0.99921 0.96561 -0.28600
H 	H 	0.99200 0.62015 0.22059 0.21500
H 	H 	0.30103 0.88925 0.26975 0.05700
C 	C 	0.29912 0.78221 0.28044 0.13300
O 	O 	0.99581 0.17713 0.19023 -0.33300
O 	O 	0.99162 0.17363 0.69555 -0.33100
H 	H 	0.41328 0.82208 0.34274 0.14900
C 	C 	0.72948 0.28932 0.04625 0.13200
N 	N 	0.78007 0.37626 0.04631 -0.12900
C 	C 	0.74767 0.40284 0.06234 0.14500
N 	N 	0.66534 0.34374 0.07650 -0.13300
C 	C 	0.61376 0.25889 0.07405 0.14200
N 	N 	0.64556 0.23119 0.05922 -0.14000
C 	C 	0.73411 0.28696 0.55947 0.13800
N 	N 	0.78671 0.37396 0.56013 -0.12500
C 	C 	0.75863 0.40132 0.58016 0.14600
N 	N 	0.67866 0.34259 0.59830 -0.12900
C 	C 	0.62373 0.25818 0.59334 0.14500
N 	N 	0.65128 0.23001 0.57410 -0.13900
C 	C 	0.27976 0.66093 0.26239 0.13100
N 	N 	0.36390 0.71793 0.25047 -0.13200
C 	C 	0.39361 0.69077 0.23279 0.14600
N 	N 	0.34009 0.60689 0.22738 -0.13300
C 	C 	0.27791 0.66204 0.76139 0.13600
N 	N 	0.33642 0.61141 0.72049 -0.13700
C 	C 	0.39139 0.69375 0.72972 0.14700
N 	N 	0.36279 0.71893 0.75088 -0.14200
Co	Co	0.88270 0.97342 0.12249 1.17400
Co	Co	0.95413 0.92060 0.06070 1.19100
Co	Co	0.90018 0.04771 0.22891 1.18100
O 	O 	0.94571 0.01113 0.19505 -0.71000
O 	O 	0.85606 0.93043 0.04456 -0.46900
C 	C 	0.83186 0.09171 0.07905 0.31800
O 	O 	0.98856 0.95097 0.16062 -0.55200
C 	C 	0.89582 0.75682 0.03910 0.32800
O 	O 	0.80565 0.04348 0.13705 -0.39700
O 	O 	0.87893 0.08312 0.06393 -0.37100
O 	O 	0.99106 0.06136 0.32451 -0.29100
O 	O 	0.96575 0.81213 0.01247 -0.37400
O 	O 	0.87625 0.78557 0.06402 -0.37100
C 	C 	0.74719 0.86607 0.21483 0.31400
O 	O 	0.81207 0.91331 0.26101 -0.39100
O 	O 	0.76344 0.87354 0.16014 -0.37400
Co	Co	0.88161 0.97001 0.62814 1.17600
Co	Co	0.95356 0.91919 0.56503 1.19500
Co	Co	0.89798 0.04314 0.73485 1.18000
O 	O 	0.94515 0.00859 0.70040 -0.71000
O 	O 	0.85435 0.92658 0.55028 -0.46500
C 	C 	0.82811 0.08579 0.58515 0.32000
O 	O 	0.99028 0.95205 0.66435 -0.55200
C 	C 	0.89692 0.75429 0.54772 0.32500
O 	O 	0.80241 0.03710 0.64333 -0.39700
O 	O 	0.87563 0.07829 0.56953 -0.36600
O 	O 	0.98940 0.05847 0.83001 -0.29900
O 	O 	0.96471 0.80959 0.51848 -0.36200
O 	O 	0.87850 0.78357 0.57307 -0.37100
C 	C 	0.74691 0.86120 0.72129 0.30900
O 	O 	0.81181 0.90837 0.76750 -0.37700
O 	O 	0.76374 0.86782 0.66739 -0.37400
O 	O 	0.98816 0.99116 0.46642 -0.30000
C 	C 	0.65319 0.81163 0.72334 -0.11300
C 	C 	0.59022 0.81426 0.66129 -0.04400
C 	C 	0.50685 0.78399 0.66291 0.14200
C 	C 	0.48537 0.74979 0.72687 -0.04600
C 	C 	0.54902 0.74950 0.78867 -0.08700
C 	C 	0.63124 0.77725 0.78734 0.18000
H 	H 	0.60691 0.84232 0.61174 0.06800
O 	O 	0.44483 0.78434 0.60195 -0.27800
H 	H 	0.53228 0.72205 0.83811 0.07700
O 	O 	0.69058 0.77160 0.84866 -0.27500
H 	H 	0.67105 0.71014 0.86230 0.15100
H 	H 	0.45651 0.84237 0.58860 0.14900
C 	C 	0.29992 0.78364 0.77953 -0.09200
H 	H 	0.37133 0.82387 0.78294 0.07600
O 	O 	0.31850 0.91147 0.77070 -0.29100
H 	H 	0.33980 0.91564 0.81921 0.15400
C 	C 	0.48713 0.74740 0.22877 -0.04200
C 	C 	0.55010 0.74104 0.28867 -0.09000
C 	C 	0.63262 0.77318 0.28396 0.18300
C 	C 	0.65382 0.81407 0.21867 -0.11400
C 	C 	0.59093 0.82120 0.15864 -0.04400
C 	C 	0.50822 0.78879 0.16359 0.14200
H 	H 	0.53324 0.70723 0.33887 0.07100
O 	O 	0.69158 0.76230 0.34302 -0.28200
H 	H 	0.60736 0.85455 0.10833 0.06500
O 	O 	0.44636 0.79406 0.10439 -0.27400
H 	H 	0.45895 0.85111 0.09647 0.14500
H 	H 	0.72548 0.81240 0.36331 0.15500
O 	O 	0.39095 0.83292 0.29159 -0.27800
C 	C 	0.81570 0.15745 0.54498 -0.10100
C 	C 	0.88213 0.23974 0.56249 -0.04800
C 	C 	0.85753 0.28555 0.56483 0.14800
C 	C 	0.76611 0.25332 0.54284 -0.03500
C 	C 	0.70267 0.18049 0.51258 -0.08300
C 	C 	0.72725 0.13306 0.51325 0.18300
H 	H 	0.95203 0.26430 0.58036 0.10000
O 	O 	0.92263 0.36022 0.58981 -0.25300
H 	H 	0.63310 0.15760 0.49176 0.07800
O 	O 	0.66221 0.05697 0.49018 -0.28200
H 	H 	0.66236 0.07582 0.44063 0.16100
H 	H 	0.92827 0.33876 0.64073 0.16100
C 	C 	0.80714 0.49611 0.57277 -0.03300
C 	C 	0.79860 0.54967 0.50636 -0.08400
C 	C 	0.81530 0.62895 0.49782 0.18600
C 	C 	0.84637 0.65872 0.55613 -0.10800
C 	C 	0.85521 0.60527 0.62270 -0.03800
C 	C 	0.83659 0.52487 0.63122 0.14600
H 	H 	0.77387 0.52739 0.46099 0.07900
O 	O 	0.80531 0.67955 0.43220 -0.27000
H 	H 	0.88072 0.62794 0.66806 0.07800
O 	O 	0.84310 0.47245 0.69670 -0.26300
H 	H 	0.90583 0.49136 0.71181 0.16800
H 	H 	0.74108 0.65612 0.41786 0.16500
C 	C 	0.53050 0.20175 0.59978 -0.03800
C 	C 	0.46076 0.18592 0.53978 -0.08700
C 	C 	0.37506 0.14940 0.54213 0.18600
C 	C 	0.35746 0.12544 0.60542 -0.12100
C 	C 	0.42802 0.14412 0.66492 -0.03000
C 	C 	0.51391 0.18109 0.66254 0.14300
H 	H 	0.47360 0.20424 0.49076 0.07300
O 	O 	0.30700 0.13219 0.48329 -0.28300
H 	H 	0.41501 0.12516 0.71405 0.06700
O 	O 	0.58214 0.19875 0.72128 -0.26500
H 	H 	0.57953 0.14432 0.74447 0.15500
H 	H 	0.30869 0.18607 0.46110 0.15200
C 	C 	0.76490 0.25701 0.03212 -0.03000
C 	C 	0.70420 0.18520 0.00096 -0.10600
C 	C 	0.73127 0.13894 0.00341 0.17100
C 	C 	0.81941 0.16334 0.03796 -0.10400
C 	C 	0.88371 0.24470 0.05690 -0.04800
C 	C 	0.85648 0.28940 0.05722 0.14300
H 	H 	0.63470 0.16219 0.97793 0.09700
O 	O 	0.66856 0.06385 0.97908 -0.26300
H 	H 	0.95362 0.26919 0.07743 0.08300
O 	O 	0.91912 0.36310 0.08335 -0.26300
H 	H 	0.92182 0.34043 0.13386 0.15900
H 	H 	0.67162 0.08413 0.93013 0.16000
C 	C 	0.84152 0.66187 0.04223 -0.13100
C 	C 	0.83194 0.60050 0.10689 -0.03900
C 	C 	0.81126 0.51898 0.11569 0.14400
C 	C 	0.79736 0.49676 0.05897 -0.05700
C 	C 	0.80614 0.55770 0.99432 -0.06300
C 	C 	0.82572 0.63861 0.98526 0.20200
H 	H 	0.84511 0.61767 0.15134 0.07400
O 	O 	0.80037 0.45920 0.17906 -0.26500
H 	H 	0.79354 0.54072 0.94997 0.07800
O 	O 	0.83587 0.69784 0.92164 -0.26700
H 	H 	0.77429 0.68057 0.89524 0.15300
H 	H 	0.85981 0.46978 0.20306 0.16200
C 	C 	0.52165 0.19919 0.08349 -0.03300
C 	C 	0.45410 0.20339 0.02747 -0.11100
C 	C 	0.37244 0.16601 0.03843 0.17500
C 	C 	0.35655 0.12154 0.10563 -0.12400
C 	C 	0.42522 0.11980 0.16189 -0.03100
C 	C 	0.50683 0.15708 0.15096 0.14100
H 	H 	0.46598 0.23809 0.97556 0.09200
O 	O 	0.30598 0.16805 0.98274 -0.26900
H 	H 	0.41331 0.08492 0.21381 0.06300
O 	O 	0.57339 0.15522 0.20663 -0.26900
H 	H 	0.56290 0.09985 0.21277 0.15700
H 	H 	0.31563 0.22267 0.97741 0.15800
