data_crystal

_cell_length_a 15.47753
_cell_length_b 15.80265
_cell_length_c 45.10021
_cell_angle_alpha 95.40770
_cell_angle_beta  95.40711
_cell_angle_gamma 126.62950

_symmetry_space_group_name_	'P 1'
_symmetry_space_group_name_H-M	'P 1'

loop_
_symmetry_equiv_pos_as_xyz
  x,y,z

loop_
_atom_site_label
_atom_site_type_symbol
_atom_site_fract_x
_atom_site_fract_y
_atom_site_fract_z
_atom_site_charge
C 	C 	0.10513 0.03690 0.49446 0.10600
C 	C 	0.02796 0.00419 0.97083 0.11200
N 	N 	0.97193 0.04467 0.97065 -0.13600
C 	C 	0.95512 0.03901 0.49718 0.09700
N 	N 	0.06352 0.09235 0.49631 -0.12500
Cu	Cu	0.74179 0.33187 0.97154 0.92600
Cu	Cu	0.68323 0.21494 0.03090 0.86700
Cu	Cu	0.56451 0.28922 0.00538 0.89600
Cu	Cu	0.54102 0.32242 0.94105 0.90200
C 	C 	0.69301 0.31688 0.90707 0.29300
C 	C 	0.59558 0.28695 0.07066 0.28400
O 	O 	0.57131 0.24653 0.96415 -0.63300
O 	O 	0.71649 0.33664 0.01338 -0.64600
O 	O 	0.80574 0.25203 0.97586 -0.35900
O 	O 	0.66308 0.12400 0.99591 -0.43500
O 	O 	0.64644 0.36247 0.91309 -0.38600
O 	O 	0.42023 0.25400 0.99662 -0.37600
C 	C 	0.35265 0.20223 0.97036 0.30200
O 	O 	0.38598 0.23068 0.94482 -0.38700
O 	O 	0.74189 0.30179 0.92913 -0.36100
C 	C 	0.74562 0.15436 0.98225 0.29100
O 	O 	0.55927 0.31391 0.04851 -0.37400
O 	O 	0.67042 0.27261 0.06804 -0.41700
H 	H 	0.52445 0.16788 0.95692 0.16200
H 	H 	0.76818 0.40744 0.02704 0.17500
Cu	Cu	0.62892 0.19035 0.50789 0.92700
Cu	Cu	0.73257 0.22926 0.44613 0.86700
Cu	Cu	0.65794 0.34928 0.46961 0.89700
Cu	Cu	0.63957 0.39074 0.53458 0.90200
C 	C 	0.66885 0.26351 0.57207 0.29200
O 	O 	0.46990 0.13224 0.50837 -0.35500
C 	C 	0.64843 0.30156 0.40423 0.28300
O 	O 	0.71339 0.35661 0.51125 -0.63400
O 	O 	0.61248 0.20150 0.46497 -0.64500
O 	O 	0.70229 0.12141 0.50367 -0.36600
O 	O 	0.82910 0.25221 0.48063 -0.43800
O 	O 	0.61550 0.30236 0.56598 -0.38300
C 	C 	0.43105 0.18332 0.49973 0.28700
O 	O 	0.49817 0.28596 0.49883 -0.39500
O 	O 	0.67054 0.20228 0.55056 -0.36000
C 	C 	0.79854 0.17405 0.49547 0.30300
O 	O 	0.62214 0.34029 0.42591 -0.37400
O 	O 	0.66663 0.23143 0.40834 -0.41700
H 	H 	0.79434 0.40467 0.51706 0.16100
H 	H 	0.53841 0.14689 0.45253 0.17500
C 	C 	0.71591 0.30972 0.87634 -0.08600
C 	C 	0.75179 0.39504 0.86085 0.02100
C 	C 	0.76204 0.38430 0.83054 -0.07100
C 	C 	0.73640 0.28826 0.81541 0.04600
C 	C 	0.70454 0.20427 0.83112 -0.07000
C 	C 	0.69476 0.21514 0.86158 0.01800
C 	C 	0.73571 0.27389 0.78331 -0.02800
C 	C 	0.73649 0.26642 0.75647 0.00100
C 	C 	0.73640 0.26169 0.72501 0.00100
C 	C 	0.73540 0.26091 0.69820 -0.02800
C 	C 	0.73300 0.26376 0.66627 0.04700
C 	C 	0.77290 0.36020 0.65633 -0.07100
C 	C 	0.75685 0.36092 0.62536 0.01900
C 	C 	0.70109 0.26519 0.60404 -0.08700
C 	C 	0.66603 0.16947 0.61394 0.02400
C 	C 	0.68159 0.16876 0.64500 -0.07100
H 	H 	0.78754 0.44984 0.81862 0.05300
H 	H 	0.68508 0.12991 0.81961 0.05100
H 	H 	0.66756 0.14899 0.87336 0.03200
H 	H 	0.81329 0.43407 0.67263 0.05200
H 	H 	0.78507 0.43537 0.61797 0.02200
H 	H 	0.62286 0.09501 0.59772 0.03900
H 	H 	0.65081 0.09390 0.65251 0.05200
C 	C 	0.63924 0.32251 0.37338 -0.08700
C 	C 	0.71651 0.33975 0.35572 0.01700
C 	C 	0.70240 0.34821 0.32538 -0.07200
C 	C 	0.61079 0.33915 0.31234 0.04500
C 	C 	0.53532 0.32570 0.33016 -0.07200
C 	C 	0.54963 0.31772 0.36065 0.02100
C 	C 	0.59047 0.33553 0.28020 -0.03000
C 	C 	0.57749 0.33293 0.25323 -0.00100
C 	C 	0.56504 0.32726 0.22148 -0.00100
C 	C 	0.55652 0.31996 0.19432 -0.03000
C 	C 	0.54873 0.30803 0.16186 0.04600
C 	C 	0.50863 0.20881 0.14468 -0.07200
C 	C 	0.51811 0.20064 0.11422 0.01700
C 	C 	0.56703 0.29149 0.10062 -0.08700
C 	C 	0.60144 0.38951 0.11732 0.02200
C 	C 	0.59272 0.39785 0.14794 -0.07200
H 	H 	0.78657 0.34474 0.36539 0.02000
H 	H 	0.76139 0.35922 0.31180 0.04900
H 	H 	0.46438 0.31890 0.32026 0.05100
H 	H 	0.48940 0.30443 0.37403 0.03700
H 	H 	0.47400 0.13890 0.15523 0.04900
H 	H 	0.49086 0.12452 0.10146 0.01700
H 	H 	0.63931 0.46016 0.10703 0.03300
H 	H 	0.62360 0.47482 0.16103 0.05200
C 	C 	0.90747 0.09403 0.49752 0.02700
C 	C 	0.85965 0.13257 0.49713 -0.09800
C 	C 	0.31627 0.13294 0.49720 -0.08200
C 	C 	0.22029 0.09174 0.49571 0.02300
C 	C 	0.78014 0.08699 0.97868 -0.08300
C 	C 	0.81277 0.03364 0.97651 0.00900
C 	C 	0.23817 0.13159 0.97009 -0.08700
C 	C 	0.14190 0.07264 0.97018 0.02600
O 	O 	0.63573 0.45361 0.97916 -0.39200
H 	H 	0.77008 0.46908 0.87215 0.03900
O 	O 	0.79999 0.49069 0.97348 -0.34800
O 	O 	0.69044 0.48956 0.47495 -0.37800
O 	O 	0.72493 0.53790 0.52672 -0.38800
C 	C 	0.74114 0.52403 0.97979 0.28100
C 	C 	0.74497 0.56287 0.49991 0.30400
C 	C 	0.86614 0.98352 0.97412 0.12600
N 	N 	0.81493 0.87909 0.97745 -0.13200
C 	C 	0.87205 0.83814 0.97718 0.11300
N 	N 	0.97835 0.90148 0.97413 -0.13000
N 	N 	0.88976 0.93177 0.49638 -0.12400
C 	C 	0.93152 0.87725 0.49446 0.10900
N 	N 	0.03884 0.92965 0.49348 -0.12300
C 	C 	0.80932 0.67298 0.49747 -0.08700
C 	C 	0.86450 0.76616 0.49584 0.02800
C 	C 	0.82047 0.72683 0.97909 0.01900
C 	C 	0.78532 0.63493 0.97991 -0.07500
