data_crystal

_cell_length_a 18.63614
_cell_length_b 18.89546
_cell_length_c 31.68613
_cell_angle_alpha 95.42103
_cell_angle_beta  95.42082
_cell_angle_gamma 126.42803

_symmetry_space_group_name_	'P 1'
_symmetry_space_group_name_H-M	'P 1'

loop_
_symmetry_equiv_pos_as_xyz
  x,y,z

loop_
_atom_site_label
_atom_site_type_symbol
_atom_site_fract_x
_atom_site_fract_y
_atom_site_fract_z
_atom_site_charge
C 	C 	0.90074 0.98862 0.95918 0.22100
C 	C 	0.85512 0.89706 0.96000 -0.05700
C 	C 	0.90250 0.86054 0.95853 0.10300
C 	C 	0.99522 0.91593 0.95692 -0.02800
C 	C 	0.03993 0.00643 0.95498 0.10400
C 	C 	0.99235 0.04227 0.95550 -0.14900
H 	H 	0.78404 0.85510 0.96258 0.14400
H 	H 	0.03270 0.88878 0.95760 0.13900
H 	H 	0.02748 0.11273 0.95465 0.15300
C 	C 	0.94663 0.03753 0.50102 -0.05000
C 	C 	0.90299 0.94647 0.50142 0.10800
C 	C 	0.95020 0.91069 0.49720 -0.01500
C 	C 	0.04252 0.96679 0.49530 0.11800
C 	C 	0.08718 0.05804 0.49564 -0.04200
C 	C 	0.03911 0.09355 0.49818 0.07600
H 	H 	0.83179 0.90314 0.50374 0.10500
H 	H 	0.07960 0.93937 0.49339 0.09300
H 	H 	0.07305 0.16385 0.49749 0.10300
Cu	Cu	0.75124 0.33419 0.95583 0.94000
Cu	Cu	0.73918 0.26317 0.04737 0.89500
Cu	Cu	0.60439 0.28472 0.00922 0.91600
Cu	Cu	0.58611 0.33354 0.92386 0.91500
C 	C 	0.69045 0.31106 0.86499 0.31200
O 	O 	0.80737 0.46592 0.95626 -0.30700
C 	C 	0.65980 0.31127 0.10420 0.31600
O 	O 	0.60988 0.26227 0.94978 -0.63500
O 	O 	0.73789 0.34630 0.01687 -0.63500
O 	O 	0.80981 0.27320 0.96008 -0.29600
O 	O 	0.70959 0.17725 0.99917 -0.39200
O 	O 	0.65317 0.35019 0.87545 -0.34100
O 	O 	0.47401 0.21729 0.99772 -0.30800
C 	C 	0.42716 0.22540 0.96725 0.30600
C 	C 	0.76735 0.50012 0.96978 0.30000
O 	O 	0.68309 0.44637 0.97507 -0.32600
O 	O 	0.46688 0.28360 0.94136 -0.32500
O 	O 	0.74004 0.30448 0.89467 -0.28900
C 	C 	0.76889 0.19712 0.97423 0.30500
O 	O 	0.59638 0.28894 0.07126 -0.30300
O 	O 	0.73359 0.32027 0.09835 -0.36300
H 	H 	0.57040 0.19816 0.93598 0.20500
H 	H 	0.77527 0.40835 0.03343 0.23900
Cu	Cu	0.61696 0.21029 0.51199 0.93600
Cu	Cu	0.66455 0.19834 0.41556 0.92400
Cu	Cu	0.67285 0.35134 0.45530 0.90800
Cu	Cu	0.64847 0.39058 0.54460 0.93900
C 	C 	0.66690 0.28475 0.60307 0.29500
O 	O 	0.49094 0.17210 0.51751 -0.30200
C 	C 	0.62427 0.28482 0.36016 0.29300
O 	O 	0.70332 0.34961 0.51454 -0.63600
O 	O 	0.59684 0.21848 0.45062 -0.62900
O 	O 	0.66029 0.13576 0.50492 -0.31600
O 	O 	0.75369 0.21944 0.46019 -0.36500
O 	O 	0.63588 0.33033 0.59492 -0.28600
O 	O 	0.75400 0.48044 0.46362 -0.33900
C 	C 	0.76093 0.53547 0.49567 0.31200
C 	C 	0.46360 0.21854 0.50542 0.29700
O 	O 	0.52268 0.29972 0.49861 -0.33800
O 	O 	0.70552 0.50570 0.52363 -0.30000
O 	O 	0.65607 0.22453 0.57259 -0.32500
C 	C 	0.73040 0.16239 0.48629 0.30700
O 	O 	0.65896 0.35260 0.39264 -0.34800
O 	O 	0.60530 0.20799 0.36667 -0.36200
H 	H 	0.76904 0.38253 0.52540 0.21200
H 	H 	0.53271 0.18696 0.43684 0.19800
C 	C 	0.70834 0.28720 0.73779 0.04900
C 	C 	0.76310 0.36657 0.72193 -0.02200
C 	C 	0.75421 0.36490 0.67746 0.03300
C 	C 	0.69797 0.29866 0.82063 -0.02300
C 	C 	0.64072 0.20345 0.66429 0.04000
C 	C 	0.64919 0.20528 0.70885 -0.02500
C 	C 	0.70328 0.29169 0.78300 0.08400
C 	C 	0.69086 0.28373 0.64848 -0.03600
H 	H 	0.80948 0.43011 0.74407 0.10300
H 	H 	0.79379 0.42716 0.66561 0.08700
H 	H 	0.59167 0.14032 0.64223 0.08600
H 	H 	0.60691 0.14353 0.72082 0.09800
C 	C 	0.61692 0.31337 0.22813 0.04600
C 	C 	0.68016 0.38832 0.26057 -0.03000
C 	C 	0.67862 0.38085 0.30407 0.03200
C 	C 	0.64286 0.31498 0.14737 -0.03000
C 	C 	0.54691 0.22482 0.28284 0.03200
C 	C 	0.54842 0.23253 0.23940 -0.03200
C 	C 	0.63020 0.31554 0.18402 0.07900
C 	C 	0.61415 0.29800 0.31539 -0.05200
H 	H 	0.73295 0.45129 0.25214 0.10100
H 	H 	0.73037 0.43816 0.32881 0.08000
H 	H 	0.49549 0.16109 0.29112 0.07600
H 	H 	0.49868 0.17452 0.21451 0.09000
C 	C 	0.80282 0.65967 0.45760 0.08700
C 	C 	0.81771 0.63162 0.49463 -0.00400
C 	C 	0.88112 0.69585 0.53150 -0.05400
C 	C 	0.91969 0.78634 0.53238 0.00500
C 	C 	0.90358 0.81437 0.49566 0.11900
C 	C 	0.84767 0.75106 0.45719 -0.13000
C 	C 	0.83202 0.78014 0.41638 0.79200
H 	H 	0.75424 0.60986 0.42952 0.09200
H 	H 	0.96317 0.83550 0.56154 0.12600
C 	C 	0.90558 0.66810 0.57047 0.77200
F 	F 	0.78873 0.71098 0.38097 -0.39800
F 	F 	0.91385 0.85015 0.40744 -0.37900
F 	F 	0.77848 0.80729 0.42172 -0.40100
F 	F 	0.91492 0.60231 0.55764 -0.43500
F 	F 	0.83826 0.63585 0.59494 -0.41100
F 	F 	0.98702 0.73988 0.59612 -0.39300
C 	C 	0.83129 0.14194 0.53104 0.08800
C 	C 	0.77733 0.12171 0.49114 -0.01600
C 	C 	0.77628 0.07057 0.45505 -0.04900
C 	C 	0.83773 0.05035 0.45835 -0.00900
C 	C 	0.89230 0.07102 0.49806 0.12400
C 	C 	0.88751 0.11510 0.53519 -0.14300
C 	C 	0.94353 0.13519 0.57888 0.78500
H 	H 	0.83096 0.18040 0.55853 0.08600
H 	H 	0.84177 0.01644 0.43017 0.12800
C 	C 	0.71203 0.03990 0.41254 0.72800
F 	F 	0.92485 0.17300 0.61139 -0.41000
F 	F 	0.03491 0.19445 0.57762 -0.40500
F 	F 	0.92483 0.05699 0.58921 -0.42800
F 	F 	0.74712 0.10980 0.39021 -0.45800
F 	F 	0.62734 0.01167 0.41963 -0.45400
F 	F 	0.70045 0.96883 0.38711 -0.33800
C 	C 	0.24500 0.15965 0.53642 -0.00400
C 	C 	0.18591 0.11694 0.49633 0.11900
C 	C 	0.22040 0.11549 0.45858 -0.13600
C 	C 	0.31049 0.14519 0.46255 0.08000
C 	C 	0.36812 0.18277 0.50299 -0.01000
C 	C 	0.33637 0.19322 0.54021 -0.05700
C 	C 	0.39945 0.23904 0.58393 0.77400
H 	H 	0.21826 0.16225 0.56495 0.12800
H 	H 	0.33596 0.13906 0.43414 0.07400
C 	C 	0.15986 0.07677 0.41433 0.75800
F 	F 	0.35608 0.24370 0.61601 -0.39700
F 	F 	0.47219 0.32546 0.58205 -0.43800
F 	F 	0.43116 0.19200 0.59528 -0.42600
F 	F 	0.10271 0.10085 0.41147 -0.40400
F 	F 	0.10838 0.98447 0.40705 -0.34500
F 	F 	0.21090 0.10798 0.38223 -0.40700
C 	C 	0.86332 0.74337 0.00186 0.02000
C 	C 	0.85694 0.76535 0.96129 0.07800
C 	C 	0.82125 0.69978 0.92345 -0.11200
C 	C 	0.79924 0.61549 0.92692 0.07200
C 	C 	0.80677 0.59391 0.96743 0.00300
C 	C 	0.83986 0.65846 0.00535 -0.06200
C 	C 	0.84954 0.63664 0.04945 0.77400
H 	H 	0.88945 0.79369 0.03062 0.12700
H 	H 	0.77378 0.56543 0.89813 0.08800
C 	C 	0.80772 0.71999 0.87940 0.78700
F 	F 	0.89558 0.71181 0.08183 -0.39200
F 	F 	0.89739 0.60205 0.05008 -0.42900
F 	F 	0.76440 0.57410 0.05830 -0.41300
F 	F 	0.89116 0.78196 0.86888 -0.37200
F 	F 	0.75960 0.75424 0.87989 -0.39900
F 	F 	0.75969 0.64390 0.84748 -0.39900
C 	C 	0.81330 0.03687 0.92665 0.04900
C 	C 	0.85422 0.03002 0.96395 -0.00900
C 	C 	0.86464 0.07623 0.00470 -0.09400
C 	C 	0.84116 0.13462 0.00678 0.05800
C 	C 	0.80171 0.14280 0.96948 0.00200
C 	C 	0.78510 0.09163 0.92905 -0.07700
C 	C 	0.74076 0.09794 0.88832 0.77800
H 	H 	0.80638 0.00184 0.89560 0.10700
H 	H 	0.85301 0.17367 0.03757 0.06800
C 	C 	0.90476 0.06665 0.04580 0.74000
F 	F 	0.72128 0.03574 0.85327 -0.40800
F 	F 	0.79865 0.18250 0.87884 -0.41400
F 	F 	0.66011 0.08231 0.89411 -0.43500
F 	F 	0.99660 0.11006 0.04751 -0.42700
F 	F 	0.86233 0.97716 0.04682 -0.37800
F 	F 	0.89374 0.10322 0.08227 -0.41400
C 	C 	0.27159 0.11750 0.92478 0.06900
C 	C 	0.32845 0.17342 0.96411 -0.00000
C 	C 	0.29040 0.18008 0.99954 -0.06100
C 	C 	0.19569 0.12261 0.99612 0.02200
C 	C 	0.13885 0.06603 0.95691 0.06100
C 	C 	0.17683 0.06652 0.92019 -0.11000
C 	C 	0.11686 0.00873 0.87681 0.75000
H 	H 	0.30146 0.11330 0.89783 0.08500
H 	H 	0.16578 0.12168 0.02399 0.12300
C 	C 	0.35007 0.24598 0.04138 0.77400
F 	F 	0.16550 0.03569 0.84366 -0.39800
F 	F 	0.04649 0.01441 0.86782 -0.39500
F 	F 	0.08147 0.92067 0.87745 -0.34500
F 	F 	0.41936 0.32838 0.03306 -0.40600
F 	F 	0.38690 0.21297 0.06482 -0.41600
F 	F 	0.30065 0.25940 0.06639 -0.39200
