data_crystal

_cell_length_a 26.10223
_cell_length_b 26.48629
_cell_length_c 43.33903
_cell_angle_alpha 95.53309
_cell_angle_beta  95.53195
_cell_angle_gamma 125.83352

_symmetry_space_group_name_	'P 1'
_symmetry_space_group_name_H-M	'P 1'

loop_
_symmetry_equiv_pos_as_xyz
  x,y,z

loop_
_atom_site_label
_atom_site_type_symbol
_atom_site_fract_x
_atom_site_fract_y
_atom_site_fract_z
_atom_site_charge
C 	C 	0.00679 0.07157 0.99592 0.14500
N 	N 	0.07082 0.10829 0.99556 -0.13300
C 	C 	0.10134 0.08116 0.99218 0.13600
C 	C 	0.81740 0.03014 0.48942 -0.02600
C 	C 	0.80259 0.04893 0.51775 0.09700
N 	N 	0.79074 0.06397 0.54033 -0.11000
C 	C 	0.09084 0.00253 0.50562 -0.00700
C 	C 	0.08420 0.01350 0.45033 -0.00500
C 	C 	0.15137 0.04711 0.45376 -0.02400
C 	C 	0.18275 0.07102 0.42727 0.10000
N 	N 	0.20787 0.09013 0.40616 -0.10300
C 	C 	0.79525 0.13016 0.99777 -0.03900
C 	C 	0.68957 0.10944 0.98322 0.08000
C 	C 	0.95215 0.11474 0.97228 -0.00000
C 	C 	0.97327 0.10077 0.99908 -0.02400
C 	C 	0.95995 0.11225 0.02866 0.00200
C 	C 	0.92369 0.13570 0.03120 -0.02700
C 	C 	0.98385 0.10023 0.05646 0.09100
C 	C 	0.96396 0.10097 0.94167 0.09600
C 	C 	0.90770 0.14507 0.06132 0.10100
C 	C 	0.76376 0.06245 0.99127 0.10200
N 	N 	0.97322 0.08985 0.91724 -0.09700
N 	N 	0.00298 0.09068 0.07864 -0.08900
N 	N 	0.89491 0.15259 0.08533 -0.10400
N 	N 	0.63452 0.07445 0.97418 -0.10400
C 	C 	0.21243 0.12432 0.01867 -0.00200
C 	C 	0.17163 0.12119 0.99343 -0.01500
C 	C 	0.19776 0.15385 0.96867 -0.00200
C 	C 	0.15606 0.15095 0.94274 0.10000
C 	C 	0.34388 0.12432 0.95624 0.10300
C 	C 	0.18654 0.09486 0.04531 0.10000
N 	N 	0.49254 0.15668 0.94224 -0.11400
N 	N 	0.30509 0.07412 0.94142 -0.10400
N 	N 	0.16583 0.07135 0.06655 -0.09600
N 	N 	0.12287 0.14867 0.92202 -0.09500
O 	O 	0.59090 0.26609 0.01161 -0.34900
O 	O 	0.70280 0.22837 0.00405 -0.35900
O 	O 	0.77356 0.28380 0.97220 -0.42500
C 	C 	0.57402 0.30010 0.00073 0.28400
C 	C 	0.75377 0.24462 0.99215 0.29200
H 	H 	0.62310 0.27342 0.95344 0.18300
O 	O 	0.68864 0.19384 0.49706 -0.42500
O 	O 	0.50150 0.19824 0.50214 -0.36800
C 	C 	0.45894 0.19488 0.48115 0.29400
C 	C 	0.72118 0.20393 0.47419 0.29300
H 	H 	0.56040 0.17880 0.45312 0.17900
H 	H 	0.56037 0.23641 0.60283 0.04500
H 	H 	0.56468 0.26007 0.65981 0.05400
H 	H 	0.58401 0.26379 0.79416 0.05400
H 	H 	0.59140 0.25397 0.85017 0.04100
H 	H 	0.67573 0.21319 0.15219 0.05700
H 	H 	0.67708 0.22872 0.09703 0.05100
H 	H 	0.69017 0.21896 0.36104 0.05100
H 	H 	0.71352 0.23029 0.30726 0.05700
C 	C 	0.80655 0.04662 0.46079 0.01400
C 	C 	0.81856 0.02622 0.43296 -0.02500
C 	C 	0.78467 0.08757 0.46026 0.02600
C 	C 	0.80591 0.04182 0.40339 0.10100
C 	C 	0.83024 0.15416 0.46776 -0.04000
C 	C 	0.80952 0.19270 0.47113 0.02200
C 	C 	0.74309 0.16466 0.46641 -0.08200
C 	C 	0.69763 0.09835 0.45649 0.02500
C 	C 	0.71838 0.05977 0.45380 -0.04000
C 	C 	0.89843 0.18286 0.47244 0.10200
C 	C 	0.62961 0.07002 0.44874 0.08400
N 	N 	0.95281 0.20567 0.47617 -0.10500
N 	N 	0.57536 0.04746 0.44256 -0.10500
N 	N 	0.79579 0.05432 0.37981 -0.10400
C 	C 	0.28418 0.05875 0.47807 -0.03800
C 	C 	0.25914 0.09202 0.48635 0.02600
C 	C 	0.30101 0.15846 0.49634 -0.03800
C 	C 	0.36732 0.19194 0.49632 0.02600
C 	C 	0.39158 0.15913 0.48568 -0.07400
C 	C 	0.35038 0.09234 0.47758 0.02200
C 	C 	0.18818 0.05740 0.48295 0.01300
C 	C 	0.27562 0.19231 0.50622 0.10400
C 	C 	0.37589 0.05836 0.46817 0.08000
C 	C 	0.15790 0.03522 0.50890 -0.02300
C 	C 	0.19580 0.04591 0.53891 0.10000
N 	N 	0.22612 0.05448 0.56284 -0.10400
N 	N 	0.39629 0.03128 0.46066 -0.10500
C 	C 	0.86282 0.17298 0.00678 0.02400
C 	C 	0.89295 0.23838 0.01593 -0.03700
C 	C 	0.85600 0.26131 0.01386 0.02400
C 	C 	0.78940 0.21922 0.00130 -0.08100
C 	C 	0.75857 0.15327 0.99453 0.02100
C 	C 	0.90255 0.14964 0.00438 0.01500
C 	C 	0.96205 0.28207 0.02687 0.09700
C 	C 	0.91798 0.14038 0.97506 -0.02700
C 	C 	0.89837 0.15702 0.94776 0.09800
N 	N 	0.88267 0.17033 0.92601 -0.11000
C 	C 	0.26424 0.18808 0.96877 -0.02400
C 	C 	0.30429 0.18806 0.99307 0.01400
C 	C 	0.27845 0.15671 0.01819 -0.02400
C 	C 	0.37367 0.22008 0.99192 0.02600
C 	C 	0.31981 0.15737 0.04337 0.10100
C 	C 	0.42076 0.28200 0.00922 -0.03800
C 	C 	0.48660 0.30902 0.01162 0.02500
C 	C 	0.50549 0.27510 0.99553 -0.07500
C 	C 	0.45825 0.21519 0.97615 0.02300
C 	C 	0.39242 0.18723 0.97484 -0.03800
C 	C 	0.47739 0.18270 0.95729 0.07800
C 	C 	0.29148 0.22300 0.94380 0.10100
N 	N 	0.35288 0.15796 0.06345 -0.10400
N 	N 	0.31330 0.25088 0.92389 -0.10300
Cu	Cu	0.67822 0.28665 0.00879 0.93100
Cu	Cu	0.71381 0.27453 0.93914 0.87900
O 	O 	0.66784 0.29365 0.96408 -0.64100
O 	O 	0.67536 0.28480 0.90294 -0.40700
C 	C 	0.62297 0.30398 0.81173 -0.06200
C 	C 	0.62736 0.29834 0.84346 0.01700
C 	C 	0.69295 0.25930 0.14700 -0.06000
C 	C 	0.69397 0.26823 0.11572 0.02000
C 	C 	0.67617 0.24239 0.34720 0.01900
C 	C 	0.68934 0.24870 0.31668 -0.05900
C 	C 	0.04606 0.00092 0.41999 0.10300
N 	N 	0.25528 0.21925 0.51410 -0.10300
Cu	Cu	0.71040 0.26248 0.52813 0.87800
H 	H 	0.58077 0.21550 0.24437 0.05000
H 	H 	0.59852 0.22916 0.18994 0.05000
C 	C 	0.68939 0.33996 0.89872 0.29000
O 	O 	0.61848 0.35829 0.99730 -0.38100
O 	O 	0.70351 0.29492 0.05298 -0.35700
Cu	Cu	0.59333 0.25257 0.50348 0.90100
Cu	Cu	0.55011 0.25966 0.43724 0.90200
C 	C 	0.62839 0.25749 0.39137 0.29000
C 	C 	0.65792 0.30095 0.57082 0.28900
O 	O 	0.58459 0.22526 0.45954 -0.63800
O 	O 	0.73532 0.24947 0.45868 -0.35900
O 	O 	0.57317 0.24571 0.39609 -0.36900
O 	O 	0.47680 0.23161 0.45978 -0.37500
O 	O 	0.66198 0.24878 0.41200 -0.35700
O 	O 	0.60326 0.26640 0.54993 -0.37900
C 	C 	0.60319 0.27946 0.61720 0.01700
C 	C 	0.60558 0.29289 0.64953 -0.06100
C 	C 	0.67138 0.36284 0.76876 0.00400
C 	C 	0.67034 0.36041 0.80254 0.03000
C 	C 	0.67918 0.34915 0.86628 -0.08200
C 	C 	0.71379 0.32712 0.10854 -0.07600
C 	C 	0.71184 0.30910 0.17138 0.03100
C 	C 	0.70194 0.29723 0.20363 0.00500
C 	C 	0.68165 0.28201 0.26556 0.00500
C 	C 	0.62931 0.24745 0.24016 -0.03300
C 	C 	0.63940 0.25504 0.20933 -0.03300
C 	C 	0.67039 0.27778 0.29821 0.03000
C 	C 	0.64391 0.26521 0.35948 -0.07400
C 	C 	0.85648 0.26099 0.48038 0.07600
C 	C 	0.41072 0.26005 0.50747 0.08900
C 	C 	0.88624 0.32799 0.02491 0.08300
N 	N 	0.01720 0.31688 0.03560 -0.09800
C 	C 	0.40131 0.31748 0.02488 0.10500
N 	N 	0.38571 0.34572 0.03737 -0.10300
C 	C 	0.71800 0.36287 0.75513 -0.03400
C 	C 	0.71589 0.35956 0.72262 -0.03400
H 	H 	0.75492 0.36388 0.76963 0.04600
H 	H 	0.75103 0.35773 0.71223 0.04500
C 	C 	0.70574 0.33409 0.07538 0.29200
C 	C 	0.62181 0.35850 0.71722 -0.03400
C 	C 	0.62370 0.36137 0.74976 -0.03400
O 	O 	0.68722 0.36939 0.06855 -0.37200
O 	O 	0.71912 0.38917 0.92238 -0.37800
Cu	Cu	0.68253 0.28129 0.45618 0.93000
O 	O 	0.68709 0.30335 0.50173 -0.64000
O 	O 	0.71088 0.31085 0.56394 -0.40600
C 	C 	0.65709 0.31976 0.60382 -0.08200
C 	C 	0.66166 0.34705 0.66875 0.03000
C 	C 	0.66732 0.35656 0.70343 0.00400
C 	C 	0.75448 0.33060 0.22896 -0.03300
C 	C 	0.74437 0.32296 0.25983 -0.03300
C 	C 	0.53470 0.37060 0.03158 0.08300
H 	H 	0.58442 0.35672 0.70267 0.04800
H 	H 	0.58765 0.36158 0.76012 0.04900
N 	N 	0.89396 0.31547 0.48777 -0.10700
Cu	Cu	0.72434 0.38774 0.96804 0.90000
O 	O 	0.74317 0.38498 0.01155 -0.63800
C 	C 	0.71426 0.38916 0.65508 -0.06100
C 	C 	0.71209 0.37546 0.62279 0.01700
C 	C 	0.72454 0.40684 0.85727 0.01700
C 	C 	0.72023 0.41233 0.82551 -0.06100
C 	C 	0.73605 0.37787 0.13318 0.01800
C 	C 	0.73494 0.36885 0.16443 -0.06000
C 	C 	0.63911 0.30143 0.31062 -0.05800
C 	C 	0.62603 0.29529 0.34111 0.01700
N 	N 	0.44536 0.31438 0.51636 -0.10100
N 	N 	0.91031 0.38119 0.03373 -0.10900
N 	N 	0.57306 0.41972 0.04750 -0.11200
H 	H 	0.78507 0.34975 0.27931 0.04900
Cu	Cu	0.70574 0.41717 0.03299 0.90200
H 	H 	0.78924 0.40606 0.01996 0.17900
H 	H 	0.71041 0.34919 0.50989 0.18300
H 	H 	0.75741 0.43163 0.66962 0.05400
H 	H 	0.75357 0.40751 0.61264 0.04000
H 	H 	0.62476 0.32438 0.29659 0.05700
H 	H 	0.60209 0.31401 0.35046 0.04400
H 	H 	0.80296 0.36307 0.22478 0.04800
O 	O 	0.71210 0.36846 0.44953 -0.35800
O 	O 	0.62416 0.35407 0.46471 -0.37700
H 	H 	0.76459 0.44655 0.87463 0.04500
H 	H 	0.75674 0.45626 0.81864 0.05500
H 	H 	0.75266 0.42386 0.12805 0.03700
H 	H 	0.75005 0.40772 0.18313 0.05500
C 	C 	0.68055 0.39094 0.45680 0.28800
N 	N 	0.56904 0.38198 0.39678 -0.11700
O 	O 	0.78181 0.47924 0.97471 -0.37100
C 	C 	0.61591 0.42222 0.41413 0.07300
O 	O 	0.75847 0.50299 0.02163 -0.37400
C 	C 	0.70836 0.45796 0.45593 -0.07900
C 	C 	0.67469 0.47263 0.43589 0.02400
N 	N 	0.82933 0.48081 0.51338 -0.11400
N 	N 	0.06778 0.01737 0.98930 -0.13300
C 	C 	0.80201 0.49255 0.49656 0.08000
N 	N 	0.73870 0.00844 0.98608 -0.10400
N 	N 	0.97347 0.00787 0.99325 -0.13900
C 	C 	0.77855 0.51773 0.99472 0.29500
C 	C 	0.76783 0.50733 0.47548 0.02400
C 	C 	0.84310 0.99593 0.49053 -0.00200
C 	C 	0.84337 0.99116 0.43398 -0.00200
C 	C 	0.05387 0.99103 0.47623 -0.00800
C 	C 	0.67164 0.99145 0.44475 0.10400
C 	C 	0.24161 0.99009 0.46967 0.10500
N 	N 	0.01560 0.99083 0.39580 -0.09300
C 	C 	0.05985 0.98104 0.53248 0.10200
N 	N 	0.95383 0.98141 0.46994 -0.13200
C 	C 	0.85647 0.98101 0.52020 0.09900
C 	C 	0.85691 0.97718 0.46290 -0.01600
N 	N 	0.03504 0.96387 0.55390 -0.09700
N 	N 	0.86722 0.96916 0.54387 -0.09700
C 	C 	0.85521 0.96966 0.40535 0.09900
N 	N 	0.86464 0.95245 0.38251 -0.09600
C 	C 	0.98318 0.95294 0.47217 0.12900
N 	N 	0.63439 0.93692 0.43754 -0.10400
N 	N 	0.20758 0.93530 0.46297 -0.10300
C 	C 	0.88863 0.94591 0.46458 0.13500
C 	C 	0.00397 0.98077 0.98997 0.14700
N 	N 	0.85273 0.88181 0.46122 -0.13100
C 	C 	0.88215 0.85336 0.46366 0.13500
N 	N 	0.94735 0.88903 0.46922 -0.13200
C 	C 	0.69902 0.53634 0.43643 -0.03900
C 	C 	0.75857 0.58564 0.45583 0.02600
C 	C 	0.79340 0.57111 0.47502 -0.03900
C 	C 	0.78492 0.65318 0.45598 0.01400
C 	C 	0.85550 0.62189 0.49429 0.10300
C 	C 	0.77556 0.68600 0.47963 -0.02400
C 	C 	0.80558 0.75136 0.48157 -0.00300
C 	C 	0.84346 0.78351 0.45928 -0.01600
C 	C 	0.84855 0.74946 0.43418 -0.00300
C 	C 	0.82050 0.68469 0.43293 -0.02400
C 	C 	0.73555 0.65256 0.50210 0.10000
C 	C 	0.88222 0.78106 0.40955 0.09900
C 	C 	0.79892 0.78582 0.50696 0.10000
C 	C 	0.82886 0.65057 0.40819 0.10000
C 	C 	0.66277 0.55129 0.41709 0.10400
N 	N 	0.79358 0.81329 0.52723 -0.09700
N 	N 	0.70362 0.62580 0.52002 -0.10400
N 	N 	0.90911 0.80635 0.38992 -0.09800
N 	N 	0.83548 0.62327 0.38846 -0.10500
N 	N 	0.90504 0.66247 0.50965 -0.10500
N 	N 	0.63391 0.56329 0.40168 -0.10400
C 	C 	0.80344 0.67044 0.98357 -0.03700
C 	C 	0.87081 0.71202 0.98612 0.02400
C 	C 	0.90742 0.68880 0.98934 -0.03600
C 	C 	0.87716 0.62484 0.99171 0.02400
C 	C 	0.80993 0.58363 0.99009 -0.07300
C 	C 	0.77298 0.60623 0.98543 0.02200
C 	C 	0.90370 0.78107 0.98699 0.01600
C 	C 	0.97632 0.73102 0.99056 0.09700
C 	C 	0.70360 0.56330 0.98248 0.08200
C 	C 	0.92638 0.82266 0.01620 -0.02700
C 	C 	0.95919 0.88816 0.01717 0.00300
C 	C 	0.96858 0.91206 0.98889 -0.02400
C 	C 	0.94503 0.87039 0.95963 0.00000
C 	C 	0.91284 0.80493 0.95868 -0.02600
C 	C 	0.91602 0.79791 0.04524 0.10100
C 	C 	0.95379 0.89494 0.93054 0.09600
C 	C 	0.98404 0.93115 0.04727 0.09200
C 	C 	0.88926 0.76209 0.92866 0.10000
C 	C 	0.76565 0.69399 0.97933 0.10400
C 	C 	0.91539 0.60192 0.99674 0.08800
N 	N 	0.00389 0.96543 0.07128 -0.08800
N 	N 	0.90772 0.77807 0.06839 -0.10400
N 	N 	0.96082 0.91460 0.90735 -0.09900
N 	N 	0.87042 0.72783 0.90472 -0.10600
N 	N 	0.03130 0.76477 0.99153 -0.09800
N 	N 	0.94588 0.58363 0.00076 -0.10500
N 	N 	0.64826 0.52901 0.98013 -0.10200
N 	N 	0.73557 0.71287 0.97594 -0.10300
