data_crystal

_cell_length_a 20.77273
_cell_length_b 21.05293
_cell_length_c 38.55055
_cell_angle_alpha 60.79427
_cell_angle_beta  118.89379
_cell_angle_gamma 133.36791

_symmetry_space_group_name_	'P 1'
_symmetry_space_group_name_H-M	'P 1'

loop_
_symmetry_equiv_pos_as_xyz
  x,y,z

loop_
_atom_site_label
_atom_site_type_symbol
_atom_site_fract_x
_atom_site_fract_y
_atom_site_fract_z
_atom_site_charge
C 	C 	0.23138 0.59377 0.15162 -0.08100
H 	H 	0.15852 0.55984 0.14339 0.12600
C 	C 	0.24633 0.55157 0.67523 -0.09200
H 	H 	0.17329 0.51716 0.66628 0.09600
Co	Co	0.04654 0.03781 0.03415 1.18400
Co	Co	0.07939 0.90848 0.03275 1.19800
C 	C 	0.23369 0.09003 0.04594 0.34600
O 	O 	0.02457 0.07893 0.18508 -0.34400
C 	C 	0.03277 0.01274 0.20840 0.26300
O 	O 	0.02796 0.12856 0.02507 -0.42800
C 	C 	0.05785 0.23201 0.10473 0.38800
C 	C 	0.11201 0.82092 0.12065 0.36100
O 	O 	0.02523 0.96352 0.19234 -0.31600
O 	O 	0.07642 0.80738 0.08424 -0.36700
O 	O 	0.09520 0.86048 0.12976 -0.35600
O 	O 	0.07637 0.19388 0.09570 -0.37700
O 	O 	0.02836 0.93652 0.05414 -0.72800
O 	O 	0.20617 0.00595 0.05899 -0.37800
O 	O 	0.18862 0.11298 0.04694 -0.36700
Co	Co	0.01139 0.07078 0.58044 1.19100
Co	Co	0.09195 0.01106 0.55563 1.18100
Co	Co	0.10682 0.86509 0.55726 1.18600
C 	C 	0.27042 0.03611 0.57978 0.29800
O 	O 	0.01358 0.04703 0.69013 -0.37300
C 	C 	0.00806 0.97323 0.71366 0.31900
O 	O 	0.08905 0.11332 0.54582 -0.43200
C 	C 	0.09113 0.20979 0.61879 0.36600
C 	C 	0.11348 0.76748 0.64387 0.36200
O 	O 	0.01036 0.92760 0.70004 -0.34300
O 	O 	0.08129 0.75570 0.60735 -0.36100
O 	O 	0.10031 0.81297 0.65086 -0.35600
O 	O 	0.11120 0.16744 0.61417 -0.37600
O 	O 	0.05687 0.90337 0.57313 -0.73600
O 	O 	0.23315 0.94953 0.59000 -0.35200
O 	O 	0.23041 0.06544 0.57985 -0.36000
C 	C 	0.07481 0.00546 0.81507 -0.03200
C 	C 	0.00588 0.94584 0.75641 0.01900
C 	C 	0.08363 0.00018 0.78292 -0.03700
H 	H 	0.15012 0.04389 0.77662 0.07800
H 	H 	0.13517 0.04991 0.83449 0.05500
C 	C 	0.16336 0.07199 0.38936 -0.09500
C 	C 	0.16563 0.07688 0.42479 0.08200
H 	H 	0.23083 0.11361 0.44505 0.05500
H 	H 	0.22680 0.10491 0.38293 0.07300
C 	C 	0.14104 0.08874 0.30250 -0.02800
C 	C 	0.13713 0.08252 0.26699 0.01400
C 	C 	0.06501 0.00391 0.25278 -0.09200
H 	H 	0.19120 0.15302 0.31050 0.06000
H 	H 	0.18483 0.14187 0.24832 0.08600
C 	C 	0.22404 0.43205 0.66099 -0.05800
C 	C 	0.20092 0.44067 0.61892 0.31600
C 	C 	0.17250 0.37281 0.60503 -0.05900
C 	C 	0.16179 0.29319 0.63272 -0.13200
H 	H 	0.15279 0.37947 0.57246 0.13300
F 	F 	0.20994 0.51676 0.59157 -0.40800
C 	C 	0.18968 0.62098 0.70059 -0.11900
C 	C 	0.26791 0.67607 0.68554 -0.04600
C 	C 	0.30716 0.76906 0.66889 0.31100
C 	C 	0.26668 0.80419 0.66636 -0.07200
C 	C 	0.17898 0.74608 0.67314 -0.12200
C 	C 	0.14468 0.65549 0.69388 0.36900
F 	F 	0.06307 0.59874 0.70370 -0.40500
H 	H 	0.29830 0.87565 0.65403 0.10900
F 	F 	0.37925 0.82389 0.65187 -0.40500
C 	C 	0.11960 0.39209 0.08466 -0.05400
C 	C 	0.12793 0.32215 0.11238 -0.15000
C 	C 	0.20500 0.47056 0.13829 -0.04800
C 	C 	0.15769 0.46579 0.09752 0.31000
F 	F 	0.15040 0.53350 0.07013 -0.41400
H 	H 	0.07917 0.38681 0.05371 0.10300
C 	C 	0.13860 0.70637 0.17106 -0.05600
C 	C 	0.17533 0.79697 0.14950 -0.12600
C 	C 	0.26206 0.85166 0.14227 0.36300
C 	C 	0.30041 0.81247 0.14703 -0.12100
C 	C 	0.25736 0.71910 0.16350 -0.04600
C 	C 	0.17984 0.66761 0.17844 0.31300
H 	H 	0.07384 0.66397 0.17879 0.12000
H 	H 	0.36138 0.85419 0.13626 0.12200
F 	F 	0.30385 0.94146 0.12568 -0.42000
F 	F 	0.30049 0.17641 0.50710 -0.45000
C 	C 	0.29217 0.67565 0.16374 0.12000
C 	C 	0.38684 0.72062 0.17227 -0.10100
C 	C 	0.41960 0.68686 0.16672 0.12400
C 	C 	0.35944 0.60431 0.15679 -0.10100
C 	C 	0.26581 0.55739 0.14923 0.12300
H 	H 	0.43462 0.78291 0.18191 0.09200
H 	H 	0.38566 0.57798 0.15334 0.09200
C 	C 	0.30561 0.63547 0.68538 0.11700
C 	C 	0.28248 0.51377 0.67567 0.12200
C 	C 	0.37630 0.55990 0.68519 -0.10500
C 	C 	0.43479 0.64729 0.68976 0.11800
C 	C 	0.40073 0.68230 0.69345 -0.07500
H 	H 	0.40351 0.53177 0.68410 0.08800
H 	H 	0.44779 0.74608 0.70167 0.11900
C 	C 	0.21792 0.35442 0.68879 -0.12700
C 	C 	0.18999 0.28693 0.67480 0.35500
F 	F 	0.18559 0.21298 0.70221 -0.44500
H 	H 	0.23930 0.34856 0.72136 0.10200
H 	H 	0.16123 0.55057 0.71572 0.11000
C 	C 	0.17979 0.32980 0.15240 0.36700
C 	C 	0.21463 0.40132 0.16572 -0.13000
H 	H 	0.25325 0.40542 0.19697 0.10800
F 	F 	0.19185 0.26488 0.17915 -0.44700
C 	C 	0.53955 0.78386 0.12896 0.31200
F 	F 	0.48094 0.79357 0.09369 -0.41300
F 	F 	0.14359 0.58013 0.19935 -0.41900
C 	C 	0.43080 0.19557 0.51118 -0.12800
C 	C 	0.49949 0.18248 0.53408 -0.05700
C 	C 	0.49680 0.12815 0.57422 0.31100
C 	C 	0.42588 0.08699 0.59091 -0.07100
C 	C 	0.35749 0.10038 0.56794 -0.13100
C 	C 	0.36290 0.15838 0.52873 0.35100
H 	H 	0.43301 0.23868 0.48046 0.10800
H 	H 	0.42263 0.04261 0.62135 0.09900
C 	C 	0.38970 0.23286 0.97729 -0.12200
C 	C 	0.46334 0.22953 0.00441 -0.06800
C 	C 	0.46743 0.19558 0.04654 0.31200
C 	C 	0.39708 0.16238 0.06108 -0.06300
C 	C 	0.32025 0.15947 0.03372 -0.13700
C 	C 	0.31930 0.19957 0.99196 0.35800
F 	F 	0.24722 0.20091 0.96526 -0.44300
H 	H 	0.38797 0.26286 0.94495 0.10500
H 	H 	0.39929 0.13313 0.09349 0.12200
C 	C 	0.02311 0.01434 0.95736 0.39100
O 	O 	0.08988 0.00681 0.97887 -0.40400
C 	C 	0.08917 0.99689 0.48075 0.42800
O 	O 	0.14175 0.97126 0.50619 -0.38900
O 	O 	0.05431 0.01178 0.49445 -0.40800
C 	C 	0.02991 0.07818 0.88483 0.10500
C 	C 	0.02676 0.06297 0.85229 -0.10900
H 	H 	0.07551 0.14621 0.88852 0.05000
H 	H 	0.06643 0.11982 0.83005 0.07700
C 	C 	0.07969 0.02131 0.36346 0.06900
C 	C 	0.08472 0.02528 0.43682 -0.20100
C 	C 	0.07775 0.01345 0.32646 -0.03500
C 	C 	0.52583 0.70649 0.68193 -0.04900
F 	F 	0.48060 0.78753 0.61790 -0.39300
C 	C 	0.51551 0.74170 0.16656 -0.05700
C 	C 	0.54017 0.76656 0.64335 0.31500
F 	F 	0.54085 0.19688 0.07344 -0.41600
O 	O 	0.00630 0.17606 0.61195 -0.36700
C 	C 	0.54558 0.28172 0.99031 0.12100
C 	C 	0.01364 0.93074 0.31529 0.02700
H 	H 	0.53769 0.16626 0.00064 0.08900
C 	C 	0.00682 0.92628 0.27838 0.06700
C 	C 	0.00085 0.97967 0.40971 0.17300
O 	O 	0.98831 0.02267 0.97447 -0.41000
C 	C 	0.98294 0.00510 0.91514 -0.19900
F 	F 	0.56446 0.11768 0.59750 -0.42800
Co	Co	0.97068 0.08504 0.06940 1.17900
O 	O 	0.97641 0.18815 0.10853 -0.42900
C 	C 	0.92076 0.90209 0.87736 -0.09900
C 	C 	0.92133 0.91802 0.90882 0.10900
H 	H 	0.88008 0.83341 0.87555 0.08200
H 	H 	0.88099 0.86145 0.93080 0.03200
C 	C 	0.67265 0.28962 0.99579 0.12400
C 	C 	0.58020 0.23910 0.99460 -0.08500
C 	C 	0.60063 0.37523 0.98286 -0.09800
C 	C 	0.69414 0.42449 0.98830 0.12600
C 	C 	0.72974 0.38271 0.99276 -0.09500
H 	H 	0.57340 0.40777 0.97942 0.09900
H 	H 	0.80245 0.42076 0.99709 0.09800
C 	C 	0.70527 0.26912 0.50671 0.11500
C 	C 	0.75320 0.36272 0.49990 -0.10900
C 	C 	0.71926 0.39472 0.50592 0.13000
C 	C 	0.63221 0.33587 0.51260 -0.10800
C 	C 	0.58408 0.24318 0.52000 0.12000
C 	C 	0.62106 0.20922 0.51783 -0.08400
H 	H 	0.81804 0.41008 0.49156 0.09000
H 	H 	0.60571 0.36163 0.51628 0.09400
H 	H 	0.58630 0.13707 0.52618 0.12400
Co	Co	0.98157 0.86179 0.09412 1.18500
Co	Co	0.93376 0.92278 0.13754 1.19300
C 	C 	0.89074 0.74474 0.03520 0.34500
Co	Co	0.90763 0.05543 0.14120 1.16300
O 	O 	0.93571 0.01616 0.11299 -0.78300
O 	O 	0.93477 0.82335 0.14142 -0.44300
O 	O 	0.95356 0.96195 0.07572 -0.56300
C 	C 	0.77811 0.85645 0.16292 0.36500
O 	O 	0.83784 0.92702 0.17796 -0.38300
O 	O 	0.80075 0.84217 0.14231 -0.37200
C 	C 	0.80913 0.08268 0.05575 0.34500
O 	O 	0.79642 0.02800 0.09232 -0.39800
O 	O 	0.86172 0.09716 0.03824 -0.35300
O 	O 	0.94522 0.81547 0.01058 -0.40100
O 	O 	0.88899 0.75074 0.06786 -0.35100
Co	Co	0.99784 0.82986 0.60924 1.18600
Co	Co	0.93755 0.89765 0.64238 1.18600
C 	C 	0.91042 0.71808 0.54836 0.34100
Co	Co	0.91573 0.04256 0.63715 1.15600
O 	O 	0.95187 0.99749 0.61664 -0.74100
O 	O 	0.93709 0.79411 0.65034 -0.43300
O 	O 	0.98181 0.94076 0.58678 -0.57000
C 	C 	0.76826 0.84510 0.65030 0.36000
O 	O 	0.82377 0.91387 0.66630 -0.39900
O 	O 	0.79939 0.82540 0.63704 -0.36200
C 	C 	0.85459 0.09067 0.54726 0.33600
O 	O 	0.82484 0.03319 0.58090 -0.40100
O 	O 	0.92034 0.10550 0.53900 -0.36300
O 	O 	0.97390 0.78729 0.52765 -0.39800
O 	O 	0.90460 0.72305 0.58011 -0.34400
C 	C 	0.98790 0.95731 0.82061 0.00700
C 	C 	0.91124 0.89532 0.79695 -0.01400
C 	C 	0.92083 0.88764 0.76591 -0.03900
C 	C 	0.97712 0.97436 0.85006 0.08300
H 	H 	0.84386 0.85616 0.80127 0.05900
H 	H 	0.86069 0.84278 0.74669 0.08700
C 	C 	0.99829 0.97865 0.37288 -0.12100
H 	H 	0.93316 0.94270 0.35236 0.08700
H 	H 	0.93774 0.94038 0.41826 0.00600
H 	H 	0.95193 0.86442 0.26828 0.04600
H 	H 	0.96738 0.87074 0.33445 0.04400
C 	C 	0.61354 0.80197 0.63018 -0.06400
C 	C 	0.67525 0.78030 0.65578 -0.13900
C 	C 	0.65920 0.71793 0.69371 0.36200
C 	C 	0.58679 0.68363 0.70725 -0.13100
H 	H 	0.62565 0.85070 0.60098 0.10800
H 	H 	0.57518 0.63551 0.73660 0.10800
F 	F 	0.71695 0.69443 0.71848 -0.44200
C 	C 	0.57644 0.73171 0.20270 -0.12700
C 	C 	0.62188 0.81214 0.12745 -0.06400
C 	C 	0.68305 0.80260 0.16357 -0.14400
C 	C 	0.65977 0.76185 0.20126 0.36500
F 	F 	0.71896 0.75333 0.23656 -0.43800
H 	H 	0.55776 0.69766 0.23177 0.11200
H 	H 	0.63991 0.84500 0.09829 0.11200
C 	C 	0.84249 0.27611 0.52214 -0.13000
C 	C 	0.74800 0.23364 0.50677 -0.04900
C 	C 	0.69418 0.15423 0.49397 0.30300
C 	C 	0.73149 0.11054 0.50308 -0.06400
C 	C 	0.82423 0.14935 0.52194 -0.14000
C 	C 	0.88070 0.23678 0.52706 0.35900
F 	F 	0.97229 0.28119 0.53948 -0.44800
H 	H 	0.88600 0.33775 0.53171 0.10600
H 	H 	0.68755 0.04478 0.49714 0.09300
F 	F 	0.60613 0.11924 0.47304 -0.43100
C 	C 	0.82850 0.49063 0.55493 -0.12300
C 	C 	0.78034 0.48345 0.51449 -0.06300
C 	C 	0.77003 0.55163 0.48603 0.30800
C 	C 	0.80522 0.62472 0.49824 -0.06900
C 	C 	0.85185 0.63094 0.53889 -0.13600
C 	C 	0.86218 0.56274 0.56732 0.35700
F 	F 	0.90804 0.56820 0.60665 -0.42300
H 	H 	0.83541 0.43750 0.57730 0.11000
H 	H 	0.79860 0.67799 0.47583 0.09700
F 	F 	0.72277 0.54517 0.44691 -0.42600
C 	C 	0.79342 0.18004 0.06500 -0.06500
C 	C 	0.78120 0.14256 0.03865 -0.14500
C 	C 	0.73635 0.15695 0.99737 0.36600
C 	C 	0.70213 0.20651 0.98304 -0.11900
C 	C 	0.71338 0.24246 0.00980 -0.06500
C 	C 	0.76009 0.22979 0.05068 0.30900
F 	F 	0.77085 0.26363 0.07689 -0.42100
H 	H 	0.82715 0.16884 0.09695 0.07600
H 	H 	0.66601 0.21594 0.95140 0.10800
F 	F 	0.72316 0.12061 0.97156 -0.43200
C 	C 	0.80154 0.51544 0.03979 -0.13400
C 	C 	0.75458 0.51120 0.99893 -0.04600
C 	C 	0.74653 0.58121 0.97133 0.29800
C 	C 	0.78106 0.65214 0.98486 -0.05900
C 	C 	0.82950 0.65741 0.02547 -0.14700
C 	C 	0.83857 0.58800 0.05305 0.36800
F 	F 	0.88665 0.59282 0.09225 -0.43500
H 	H 	0.80655 0.46086 0.06158 0.13400
H 	H 	0.77342 0.70520 0.96335 0.09300
F 	F 	0.70164 0.57832 0.93170 -0.43300
