data_crystal

_cell_length_a 24.06395
_cell_length_b 24.34107
_cell_length_c 34.21226
_cell_angle_alpha 95.57037
_cell_angle_beta  95.56354
_cell_angle_gamma 125.55183

_symmetry_space_group_name_	'P 1'
_symmetry_space_group_name_H-M	'P 1'

loop_
_symmetry_equiv_pos_as_xyz
  x,y,z

loop_
_atom_site_label
_atom_site_type_symbol
_atom_site_fract_x
_atom_site_fract_y
_atom_site_fract_z
_atom_site_charge
C 	C 	0.06225 0.08750 0.98867 -0.04400
C 	C 	0.07243 0.03766 0.97640 -0.00900
C 	C 	0.01636 0.96760 0.96986 -0.04500
H 	H 	0.10558 0.14166 0.99444 0.04000
H 	H 	0.02439 0.92907 0.96099 0.04000
C 	C 	0.02667 0.00739 0.47969 -0.00900
H 	H 	0.03999 0.92914 0.48947 0.04100
C 	C 	0.19587 0.10804 0.45828 0.06900
C 	C 	0.21243 0.10368 0.49742 0.02600
N 	N 	0.12849 0.08291 0.44942 -0.16900
C 	C 	0.10141 0.06155 0.48235 0.07500
C 	C 	0.15218 0.07397 0.51288 -0.09000
H 	H 	0.14138 0.04512 0.53686 0.05300
H 	H 	0.09911 0.06299 0.42037 0.08300
N 	N 	0.18474 0.11419 0.95407 -0.16900
C 	C 	0.14157 0.05849 0.97002 0.07400
C 	C 	0.17840 0.03970 0.99126 -0.08900
H 	H 	0.16202 0.01226 0.01581 0.05200
H 	H 	0.17404 0.14772 0.94556 0.08200
C 	C 	0.23256 0.10666 0.42921 -0.08100
C 	C 	0.26438 0.09534 0.50853 -0.09100
H 	H 	0.22020 0.11062 0.39879 0.05000
H 	H 	0.27674 0.09133 0.53894 0.05400
C 	C 	0.24706 0.08647 0.98794 0.02700
C 	C 	0.24913 0.13177 0.96512 0.06800
C 	C 	0.28440 0.09821 0.44033 0.00900
C 	C 	0.30083 0.09363 0.47940 0.07800
C 	C 	0.30421 0.10763 0.01717 -0.09400
C 	C 	0.30935 0.19966 0.97017 -0.08200
H 	H 	0.30236 0.07236 0.03500 0.05400
H 	H 	0.31126 0.23498 0.95237 0.05100
N 	N 	0.36804 0.11813 0.48818 -0.15200
C 	C 	0.34447 0.12739 0.42471 -0.04700
H 	H 	0.35538 0.15622 0.40072 0.04800
C 	C 	0.36412 0.17563 0.02241 0.07600
C 	C 	0.36606 0.22110 0.99987 0.00900
C 	C 	0.39505 0.13918 0.45514 -0.00000
H 	H 	0.39737 0.13744 0.51722 0.09300
N 	N 	0.42871 0.19415 0.03428 -0.15200
C 	C 	0.43503 0.26946 0.99771 -0.04500
H 	H 	0.45234 0.29838 0.97382 0.04500
H 	H 	0.43988 0.16058 0.04199 0.09100
C 	C 	0.47189 0.25115 0.01939 -0.00300
C 	C 	0.47021 0.19028 0.45693 0.26300
O 	O 	0.49125 0.22837 0.42898 -0.38800
O 	O 	0.51386 0.20404 0.48942 -0.37500
C 	C 	0.54404 0.27787 0.01726 0.25400
H 	H 	0.52824 0.20731 0.71692 0.04300
O 	O 	0.56679 0.24182 0.02587 -0.35600
H 	H 	0.54037 0.22642 0.79762 0.04000
C 	C 	0.00295 0.94054 0.48354 -0.04300
O 	O 	0.58753 0.34058 0.01080 -0.38800
Cu	Cu	0.58187 0.27163 0.41020 0.89400
S 	S 	0.57691 0.25978 0.64272 0.00900
H 	H 	0.57558 0.24289 0.94662 0.17200
H 	H 	0.60558 0.19912 0.44217 0.16600
C 	C 	0.57986 0.25555 0.72234 -0.05700
O 	O 	0.60494 0.29111 0.55587 -0.38200
C 	C 	0.58689 0.27638 0.79620 -0.02400
Cu	Cu	0.61294 0.27547 0.49945 0.89700
O 	O 	0.62308 0.24784 0.44793 -0.63800
O 	O 	0.62688 0.26360 0.36585 -0.38200
C 	C 	0.61316 0.28426 0.69077 -0.00200
C 	C 	0.61569 0.29265 0.76123 0.01200
O 	O 	0.62614 0.26637 0.95490 -0.64100
O 	O 	0.61467 0.25559 0.87522 -0.42000
O 	O 	0.64277 0.37674 0.44361 -0.38300
C 	C 	0.63826 0.33114 0.62718 -0.07500
C 	C 	0.62819 0.33002 0.82970 -0.07400
C 	C 	0.63309 0.31671 0.87034 0.28200
C 	C 	0.65585 0.32766 0.58756 0.28400
Cu	Cu	0.65552 0.26281 0.01004 0.92600
O 	O 	0.65455 0.36597 0.90127 -0.37800
Cu	Cu	0.66585 0.24415 0.91538 0.86800
C 	C 	0.67421 0.35139 0.69680 0.01300
H 	H 	0.67842 0.20003 0.30104 0.04000
H 	H 	0.67314 0.50752 0.47663 0.04400
O 	O 	0.69160 0.35912 0.09086 -0.38500
Cu	Cu	0.68290 0.36809 0.95785 0.89600
Cu	Cu	0.69221 0.40666 0.04624 0.89300
O 	O 	0.67867 0.19762 0.99649 -0.36600
C 	C 	0.69335 0.28948 0.36845 0.28900
C 	C 	0.67929 0.35788 0.76740 -0.00100
H 	H 	0.68797 0.18970 0.22274 0.04500
C 	C 	0.68897 0.37793 0.66112 -0.02400
C 	C 	0.70093 0.25302 0.29907 -0.01800
O 	O 	0.69982 0.27485 0.06298 -0.36200
S 	S 	0.69762 0.39550 0.81462 0.00500
C 	C 	0.70960 0.27755 0.26259 0.01400
C 	C 	0.70630 0.42367 0.43895 0.25700
C 	C 	0.71032 0.24391 0.22722 -0.05300
C 	C 	0.70354 0.52554 0.45328 -0.04600
C 	C 	0.70705 0.39070 0.73555 -0.05800
C 	C 	0.71630 0.32298 0.09317 0.28900
O 	O 	0.71642 0.34352 0.50661 -0.64200
C 	C 	0.72323 0.30444 0.33231 -0.07000
S 	S 	0.72093 0.25129 0.14947 0.02800
O 	O 	0.72175 0.36911 0.01010 -0.63700
O 	O 	0.72075 0.35379 0.58500 -0.42000
O 	O 	0.72799 0.28737 0.39985 -0.36400
C 	C 	0.72565 0.21227 0.97443 0.26300
Cu	Cu	0.73105 0.32181 0.45309 0.92700
C 	C 	0.72692 0.49199 0.43371 -0.00400
H 	H 	0.72835 0.64508 0.49580 0.05000
C 	C 	0.73600 0.34686 0.26730 0.00300
H 	H 	0.73289 0.39163 0.51465 0.17300
O 	O 	0.73863 0.49757 0.02911 -0.38700
O 	O 	0.74089 0.24093 0.51467 -0.43400
H 	H 	0.73639 0.42721 0.65971 0.03900
C 	C 	0.74078 0.50791 0.99188 0.26400
C 	C 	0.74232 0.28296 0.19816 -0.00300
C 	C 	0.74084 0.61174 0.00533 -0.05200
H 	H 	0.74200 0.61666 0.03726 0.04600
O 	O 	0.73944 0.25478 0.94977 -0.43400
O 	O 	0.74144 0.46704 0.96399 -0.37600
Cu	Cu	0.74346 0.30999 0.54764 0.87000
C 	C 	0.74665 0.32355 0.13272 -0.07500
S 	S 	0.75077 0.37724 0.31565 0.01100
C 	C 	0.74884 0.65914 0.98268 0.01100
O 	O 	0.75134 0.40966 0.43872 -0.36400
C 	C 	0.74981 0.59405 0.45081 0.00700
H 	H 	0.75131 0.44436 0.74061 0.04300
H 	H 	0.75165 0.15134 0.03389 0.05300
C 	C 	0.75664 0.57315 0.98336 0.00400
C 	C 	0.75595 0.17437 0.97334 -0.00900
C 	C 	0.76162 0.14392 0.00434 -0.04700
H 	H 	0.99729 0.07385 0.46901 0.04200
H 	H 	0.98922 0.14711 0.94266 0.05200
C 	C 	0.97886 0.02196 0.47153 -0.04200
C 	C 	0.99602 0.06744 0.99347 -0.00700
C 	C 	0.94994 0.94736 0.97455 -0.00900
C 	C 	0.94009 0.99737 0.98659 -0.04300
H 	H 	0.88848 0.98185 0.98923 0.04300
C 	C 	0.90735 0.96999 0.46739 -0.01000
C 	C 	0.93150 0.88818 0.47932 -0.01000
C 	C 	0.88364 0.90300 0.47095 -0.04200
H 	H 	0.82828 0.86262 0.46665 0.04000
H 	H 	0.77252 0.39216 0.01471 0.16400
O 	O 	0.79982 0.30325 0.46879 -0.36800
C 	C 	0.78621 0.25748 0.49118 0.26300
C 	C 	0.76859 0.38625 0.23863 -0.05700
C 	C 	0.76853 0.35261 0.20290 0.01700
C 	C 	0.77117 0.37553 0.16608 -0.02300
H 	H 	0.78996 0.44021 0.24302 0.04400
H 	H 	0.78003 0.42403 0.16378 0.03600
C 	C 	0.83452 0.71052 0.48614 0.06800
C 	C 	0.76674 0.64926 0.47957 -0.08200
C 	C 	0.79920 0.59909 0.43014 0.07800
C 	C 	0.86685 0.66038 0.43667 -0.09200
C 	C 	0.88386 0.71543 0.46550 0.02600
N 	N 	0.84933 0.77303 0.49688 -0.16900
C 	C 	0.90744 0.81772 0.48287 0.07500
C 	C 	0.93044 0.78387 0.46321 -0.09200
N 	N 	0.78486 0.53678 0.41968 -0.15300
H 	H 	0.90524 0.66458 0.42043 0.05400
H 	H 	0.96135 0.80205 0.44009 0.05300
H 	H 	0.81357 0.78168 0.50430 0.08100
H 	H 	0.82167 0.52876 0.41368 0.09000
C 	C 	0.84261 0.15320 0.50397 0.07700
C 	C 	0.82002 0.08935 0.51346 -0.09200
C 	C 	0.81549 0.04122 0.48457 0.02600
C 	C 	0.83397 0.05669 0.44770 0.06800
C 	C 	0.85471 0.11995 0.43783 -0.08100
C 	C 	0.86031 0.16840 0.46700 0.00700
N 	N 	0.82143 0.18973 0.51912 -0.15300
C 	C 	0.82484 0.22785 0.49190 -0.01000
C 	C 	0.84856 0.21586 0.45896 -0.04100
N 	N 	0.85909 0.02306 0.43397 -0.16800
C 	C 	0.85764 0.98674 0.46192 0.07500
C 	C 	0.83028 0.99637 0.49362 -0.09100
H 	H 	0.80641 0.07753 0.54233 0.05100
H 	H 	0.86834 0.13187 0.40898 0.05100
H 	H 	0.83646 0.22223 0.42915 0.05200
H 	H 	0.84248 0.99147 0.52384 0.05300
H 	H 	0.78920 0.17546 0.54033 0.07700
H 	H 	0.89287 0.03922 0.41358 0.08200
C 	C 	0.76838 0.64668 0.94779 0.07800
C 	C 	0.80864 0.70000 0.92713 -0.09100
C 	C 	0.82046 0.76316 0.93964 0.02600
C 	C 	0.80253 0.77612 0.97511 0.06900
C 	C 	0.77047 0.72539 0.99859 -0.08000
N 	N 	0.77173 0.59340 0.94809 -0.15100
N 	N 	0.84478 0.84387 0.99071 -0.16800
C 	C 	0.88989 0.87400 0.96574 0.07600
C 	C 	0.87664 0.82584 0.93363 -0.09000
H 	H 	0.83343 0.69392 0.90402 0.05400
H 	H 	0.76657 0.73809 0.02896 0.04900
H 	H 	0.91418 0.83259 0.91572 0.05200
H 	H 	0.79869 0.58286 0.93039 0.09000
H 	H 	0.85437 0.86492 0.02086 0.08000
C 	C 	0.82994 0.15465 0.96146 0.07500
C 	C 	0.89530 0.17593 0.95394 -0.09100
C 	C 	0.93838 0.17216 0.98248 0.02600
C 	C 	0.91671 0.14751 0.01722 0.06800
C 	C 	0.85228 0.12871 0.02539 -0.08400
C 	C 	0.80866 0.13089 0.99635 0.01200
N 	N 	0.79754 0.18081 0.94743 -0.15400
N 	N 	0.94497 0.11626 0.02905 -0.16800
C 	C 	0.98386 0.11984 0.00195 0.07000
C 	C 	0.98150 0.15486 0.97282 -0.08800
H 	H 	0.91185 0.19431 0.92669 0.05100
H 	H 	0.83558 0.11031 0.05261 0.05200
H 	H 	0.81658 0.21688 0.92863 0.07800
H 	H 	0.92362 0.07877 0.04690 0.08200
