data_crystal

_cell_length_a 13.83793
_cell_length_b 13.45406
_cell_length_c 31.27741
_cell_angle_alpha 91.08911
_cell_angle_beta  91.19248
_cell_angle_gamma 113.13396

_symmetry_space_group_name_	'P 1'
_symmetry_space_group_name_H-M	'P 1'

loop_
_symmetry_equiv_pos_as_xyz
  x,y,z

loop_
_atom_site_label
_atom_site_type_symbol
_atom_site_fract_x
_atom_site_fract_y
_atom_site_fract_z
_atom_site_charge
O 	O 	0.46300 0.23130 0.88722 -0.37000
C 	C 	0.43681 0.14388 0.86168 0.28800
O 	O 	0.50706 0.12494 0.83881 -0.41400
O 	O 	0.38326 0.08273 0.62572 -0.40600
O 	O 	0.51422 0.02665 0.64132 -0.37000
O 	O 	0.47565 0.41247 0.62706 -0.41300
Ni	Ni	0.44031 0.24752 0.62819 1.07000
O 	O 	0.43520 0.24917 0.69290 -0.41300
C 	C 	0.44414 0.17007 0.71421 0.31900
C 	C 	0.44273 0.03126 0.61401 0.28100
C 	C 	0.05967 0.95275 0.72933 -0.10900
H 	H 	0.06095 0.94511 0.69386 0.04400
C 	C 	0.04813 0.96530 0.81441 -0.00900
H 	H 	0.04413 0.96990 0.84981 0.02100
C 	C 	0.16815 0.01149 0.75084 0.09700
C 	C 	0.16761 0.02341 0.79720 -0.19200
Ni	Ni	0.25330 0.65812 0.39468 1.09700
O 	O 	0.36510 0.80429 0.41662 -0.68800
Ni	Ni	0.33105 0.91009 0.38053 1.09600
O 	O 	0.30825 0.57123 0.43457 -0.37300
O 	O 	0.47688 0.66007 0.41380 -0.41300
O 	O 	0.17067 0.67849 0.44472 -0.40700
Ni	Ni	0.51337 0.82525 0.41561 1.06900
O 	O 	0.04932 0.59020 0.32810 -0.42000
O 	O 	0.51748 0.82809 0.35080 -0.41800
O 	O 	0.44005 0.04933 0.40707 -0.37000
O 	O 	0.22812 0.76288 0.35599 -0.69500
O 	O 	0.13090 0.51479 0.37504 -0.38700
O 	O 	0.25540 0.99626 0.35037 -0.39400
O 	O 	0.10887 0.88636 0.38152 -0.43800
Ni	Ni	0.07717 0.73343 0.35716 1.07100
H 	H 	0.35080 0.81673 0.44667 0.15000
H 	H 	0.24720 0.75092 0.32656 0.15200
C 	C 	0.51655 0.91306 0.33150 0.32300
O 	O 	0.01502 0.66021 0.41322 -0.40600
C 	C 	0.40948 0.59597 0.44034 0.28800
C 	C 	0.51087 0.04043 0.43370 0.32000
C 	C 	0.06850 0.63871 0.44430 0.32000
C 	C 	0.15372 0.96533 0.35572 0.30200
C 	C 	0.05050 0.50677 0.34898 0.30900
O 	O 	0.42913 0.93050 0.32937 -0.38800
Ni	Ni	0.38001 0.78219 0.16110 1.09800
O 	O 	0.23980 0.66844 0.13731 -0.69200
Ni	Ni	0.13593 0.69882 0.17400 1.10000
O 	O 	0.46610 0.73396 0.11927 -0.37000
O 	O 	0.38137 0.55580 0.13420 -0.41300
O 	O 	0.35669 0.87173 0.11362 -0.40500
Ni	Ni	0.22116 0.51709 0.13856 1.06900
O 	O 	0.44613 0.98450 0.23180 -0.41700
O 	O 	0.23201 0.52337 0.20354 -0.42400
O 	O 	0.00193 0.59189 0.14463 -0.37800
O 	O 	0.27685 0.80028 0.20112 -0.70200
O 	O 	0.51848 0.90661 0.18178 -0.38600
O 	O 	0.05038 0.77010 0.20580 -0.39600
O 	O 	0.15507 0.93520 0.18129 -0.43200
Ni	Ni	0.30403 0.95514 0.20403 1.06500
H 	H 	0.22835 0.68420 0.10734 0.15100
H 	H 	0.28766 0.77573 0.22979 0.15500
C 	C 	0.15064 0.51635 0.22573 0.31300
O 	O 	0.37381 0.02730 0.14866 -0.37400
C 	C 	0.43857 0.63153 0.10855 0.28500
C 	C 	0.00978 0.51384 0.12100 0.29100
C 	C 	0.39348 0.97665 0.11571 0.27500
C 	C 	0.07056 0.87327 0.20122 0.30100
O 	O 	0.11062 0.59057 0.22307 -0.37600
O 	O 	0.06087 0.45758 0.13703 -0.41800
C 	C 	0.10016 0.42143 0.25213 -0.15100
H 	H 	0.14862 0.39958 0.27477 0.07500
C 	C 	0.00119 0.92002 0.22059 -0.18700
C 	C 	0.02741 0.03174 0.22156 0.02900
H 	H 	0.07540 0.08062 0.19662 0.02800
H 	H 	0.04479 0.29791 0.35990 0.03100
C 	C 	0.08753 0.97640 0.32033 -0.20500
C 	C 	0.06921 0.06630 0.31663 0.04500
H 	H 	0.03619 0.90296 0.30340 0.04600
H 	H 	0.11572 0.13798 0.33592 0.02300
C 	C 	0.39245 0.01217 0.49480 0.01800
C 	C 	0.49543 0.04683 0.47999 -0.15700
C 	C 	0.45770 0.01915 0.56797 -0.08300
C 	C 	0.37252 0.99333 0.53824 0.03100
N 	N 	0.27155 0.94646 0.55100 -0.19200
H 	H 	0.32685 0.99281 0.47209 -0.01000
H 	H 	0.20906 0.93462 0.52943 0.07400
H 	H 	0.25416 0.91599 0.58162 0.08600
C 	C 	0.01441 0.58513 0.48263 -0.10700
C 	C 	0.00063 0.64600 0.51764 0.10700
N 	N 	0.01816 0.75225 0.51389 -0.20100
H 	H 	0.00419 0.42876 0.46028 0.04200
H 	H 	0.00907 0.79690 0.54008 0.07700
H 	H 	0.03911 0.79111 0.48489 0.08800
C 	C 	0.51307 0.64340 0.50854 -0.04100
C 	C 	0.44792 0.56298 0.47958 -0.10700
C 	C 	0.40941 0.45311 0.49099 0.11300
C 	C 	0.43379 0.42641 0.53185 -0.04400
C 	C 	0.49970 0.50675 0.56065 -0.10300
H 	H 	0.40575 0.34218 0.54042 0.00900
N 	N 	0.35251 0.37285 0.46239 -0.19900
H 	H 	0.34208 0.38902 0.43050 0.10000
H 	H 	0.32170 0.29222 0.47148 0.08500
C 	C 	0.35697 0.10005 0.73960 -0.13100
C 	C 	0.25291 0.07746 0.72680 -0.02400
H 	H 	0.37351 0.05367 0.76464 0.09000
H 	H 	0.23681 0.10257 0.69554 0.03400
H 	H 	0.05561 0.71503 0.69670 0.06400
C 	C 	0.01748 0.53272 0.98463 -0.12100
C 	C 	0.06037 0.62733 0.01093 0.08400
C 	C 	0.04516 0.62022 0.05507 -0.05100
H 	H 	0.07395 0.69350 0.07497 0.01700
N 	N 	0.12019 0.72415 0.99427 -0.20000
H 	H 	0.14608 0.72932 0.96295 0.09000
H 	H 	0.14715 0.79463 0.01352 0.07200
C 	C 	0.52178 0.08588 0.99480 -0.09600
C 	C 	0.41171 0.03204 0.99889 0.12300
C 	C 	0.36959 0.01109 0.03983 -0.02500
C 	C 	0.43550 0.03561 0.07658 -0.07600
H 	H 	0.28542 0.96879 0.04294 0.02500
N 	N 	0.34631 0.99836 0.96379 -0.21100
H 	H 	0.37548 0.99916 0.93332 0.08600
H 	H 	0.26480 0.96483 0.96703 0.07800
C 	C 	0.51512 0.62083 0.99357 -0.03700
C 	C 	0.48014 0.60220 0.06966 -0.10300
C 	C 	0.46623 0.64229 0.02937 0.09800
N 	N 	0.40269 0.69730 0.02450 -0.19900
H 	H 	0.50330 0.64978 0.96257 0.04600
H 	H 	0.39694 0.73090 0.99518 0.08700
H 	H 	0.35460 0.70276 0.04890 0.07800
C 	C 	0.26951 0.10971 0.82646 -0.11500
C 	C 	0.32571 0.07594 0.85311 -0.05600
H 	H 	0.21169 0.06097 0.81519 0.20000
H 	H 	0.29786 0.99047 0.86009 0.03100
C 	C 	0.01081 0.84356 0.75108 0.01000
C 	C 	0.00672 0.84984 0.79496 -0.03400
O 	O 	0.53432 0.15976 0.71654 -0.38700
C 	C 	0.54094 0.47370 0.59913 0.28500
C 	C 	0.52769 0.98382 0.21073 0.29200
C 	C 	0.53764 0.61663 0.54935 0.10900
C 	C 	0.54029 0.53975 0.07313 -0.04100
C 	C 	0.00613 0.53969 0.93786 0.27400
O 	O 	0.55270 0.40885 0.94789 -0.36600
H 	H 	0.54103 0.72765 0.50000 0.00100
C 	C 	0.54511 0.09172 0.07261 0.10500
H 	H 	0.55224 0.51077 0.10411 0.05000
C 	C 	0.56050 0.05195 0.55312 -0.07500
C 	C 	0.56642 0.13516 0.95413 0.32000
O 	O 	0.57005 0.98999 0.42037 -0.43500
C 	C 	0.57214 0.55524 0.99682 -0.10300
O 	O 	0.57064 0.07332 0.92173 -0.39600
C 	C 	0.58059 0.07135 0.50969 0.11900
H 	H 	0.57989 0.12249 0.13836 0.10000
C 	C 	0.58808 0.51739 0.03722 0.10000
O 	O 	0.58894 0.26890 0.62596 -0.69200
C 	C 	0.58743 0.11360 0.03174 -0.03600
C 	C 	0.59967 0.51248 0.95754 0.28700
N 	N 	0.59456 0.69680 0.57797 -0.19900
H 	H 	0.60209 0.25311 0.59614 0.15400
H 	H 	0.60569 0.68037 0.60976 0.09600
N 	N 	0.60993 0.12605 0.10787 -0.19800
Ni	Ni	0.61518 0.33398 0.90560 1.09800
C 	C 	0.00072 0.51907 0.07414 -0.13800
C 	C 	0.61710 0.99945 0.31950 -0.17200
O 	O 	0.62122 0.23881 0.95431 -0.40800
H 	H 	0.62206 0.08193 0.31818 0.10200
C 	C 	0.99694 0.34845 0.24204 0.01700
H 	H 	0.99384 0.64161 0.78919 0.09100
C 	C 	0.99516 0.30991 0.33488 0.01600
Ni	Ni	0.84967 0.36717 0.88783 1.10000
O 	O 	0.69887 0.28691 0.86455 -0.70000
O 	O 	0.90717 0.26717 0.85635 -0.38500
O 	O 	0.78263 0.12331 0.88726 -0.42400
O 	O 	0.88681 0.47233 0.83717 -0.38100
Ni	Ni	0.64307 0.12822 0.86441 1.07100
O 	O 	0.97087 0.61074 0.92300 -0.40600
O 	O 	0.76733 0.42546 0.92622 -0.68800
O 	O 	0.99523 0.45490 0.91366 -0.36600
O 	O 	0.66458 0.57853 0.93078 -0.41500
Ni	Ni	0.81508 0.58272 0.92423 1.06900
H 	H 	0.69047 0.31158 0.83561 0.15600
H 	H 	0.77869 0.40778 0.95595 0.15200
O 	O 	0.79905 0.57528 0.85977 -0.42400
C 	C 	0.86728 0.16334 0.86456 0.29500
C 	C 	0.87203 0.56368 0.83676 0.31800
Ni	Ni	0.62486 0.16920 0.66443 1.10100
O 	O 	0.72660 0.31841 0.68666 -0.70100
Ni	Ni	0.69989 0.41718 0.64543 1.09800
O 	O 	0.69521 0.08642 0.69851 -0.38700
O 	O 	0.85469 0.18991 0.67220 -0.42200
Ni	Ni	0.87696 0.34816 0.68848 1.07100
O 	O 	0.93778 0.40550 0.62973 -0.40000
O 	O 	0.81988 0.56340 0.66262 -0.38900
O 	O 	0.64229 0.49690 0.60323 -0.37200
H 	H 	0.70622 0.33383 0.71541 0.15400
C 	C 	0.88692 0.43120 0.59871 0.31200
C 	C 	0.79602 0.10941 0.69572 0.29600
C 	C 	0.90168 0.57829 0.68881 0.30900
O 	O 	0.78461 0.39231 0.59716 -0.40400
O 	O 	0.90781 0.49924 0.71173 -0.42100
C 	C 	0.98976 0.02268 0.78927 -0.00900
C 	C 	0.91403 0.14170 0.23172 -0.03400
H 	H 	0.91989 0.15548 0.19671 0.03900
C 	C 	0.90162 0.10898 0.31550 -0.04500
H 	H 	0.89534 0.09468 0.35043 0.04400
C 	C 	0.80242 0.07914 0.24710 -0.02000
C 	C 	0.97431 0.06446 0.29263 -0.00600
C 	C 	0.79533 0.06141 0.29035 0.01800
C 	C 	0.63306 0.06025 0.22533 -0.13700
C 	C 	0.71894 0.03868 0.21943 0.04800
H 	H 	0.63848 0.12767 0.24636 0.07800
H 	H 	0.72630 0.99968 0.18965 0.01800
H 	H 	0.93323 0.86736 0.23765 0.08300
C 	C 	0.70077 0.97727 0.30907 -0.00400
H 	H 	0.69767 0.89570 0.31174 0.03100
C 	C 	0.97011 0.40024 0.33693 -0.13900
H 	H 	0.89867 0.39692 0.32061 0.07900
H 	H 	0.62603 0.07082 0.57581 0.02600
N 	N 	0.68165 0.11837 0.49704 -0.20600
H 	H 	0.69932 0.14986 0.46658 0.09900
H 	H 	0.74403 0.12976 0.51861 0.08200
C 	C 	0.96671 0.59549 0.55663 -0.03700
C 	C 	0.94354 0.48499 0.56088 -0.09500
C 	C 	0.95737 0.42412 0.52587 0.10900
C 	C 	0.99196 0.47480 0.48696 -0.02500
H 	H 	0.95466 0.64160 0.58332 0.04800
N 	N 	0.93870 0.31756 0.52949 -0.20000
H 	H 	0.91756 0.27864 0.55846 0.09200
H 	H 	0.94710 0.27273 0.50322 0.08500
H 	H 	0.62479 0.77753 0.56900 0.07900
C 	C 	0.84428 0.05295 0.72297 -0.15000
C 	C 	0.94688 0.06144 0.71685 -0.01000
H 	H 	0.79846 0.00339 0.74829 0.07400
H 	H 	0.98363 0.09007 0.68662 0.03900
C 	C 	0.97172 0.68929 0.70127 -0.13900
C 	C 	0.93633 0.74915 0.72601 0.01200
H 	H 	0.85268 0.72160 0.73175 0.03300
C 	C 	0.97081 0.43141 0.00358 -0.05800
C 	C 	0.95995 0.42392 0.04804 0.10800
N 	N 	0.90608 0.32598 0.06520 -0.20400
H 	H 	0.93763 0.35856 0.98353 0.03100
H 	H 	0.87904 0.25560 0.04586 0.08100
H 	H 	0.88634 0.31921 0.09736 0.09300
H 	H 	0.67156 0.15681 0.02876 0.04500
H 	H 	0.69142 0.16220 0.10481 0.08600
N 	N 	0.65082 0.46148 0.04181 -0.19700
H 	H 	0.69581 0.45293 0.01675 0.06800
H 	H 	0.65854 0.42970 0.07132 0.08800
C 	C 	0.91453 0.09047 0.84777 -0.15700
C 	C 	0.96305 0.10824 0.81035 0.02200
H 	H 	0.89681 0.01389 0.86324 0.07800
H 	H 	0.97723 0.18295 0.79389 0.02800
C 	C 	0.94105 0.65517 0.81158 -0.15700
C 	C 	0.94661 0.76086 0.81982 0.02800
H 	H 	0.91185 0.77678 0.84863 0.01200
C 	C 	0.99541 0.01515 0.74554 0.03500
C 	C 	0.97627 0.07747 0.24905 -0.00500
C 	C 	0.95463 0.24547 0.26016 -0.00800
C 	C 	0.94724 0.22824 0.30363 -0.00300
H 	H 	0.95715 0.36233 0.21388 0.04100
