data_crystal

_cell_length_a 38.29383
_cell_length_b 38.07680
_cell_length_c 29.54792
_cell_angle_alpha 89.50508
_cell_angle_beta  89.99999
_cell_angle_gamma 89.99998

_symmetry_space_group_name_	'P 1'
_symmetry_space_group_name_H-M	'P 1'

loop_
_symmetry_equiv_pos_as_xyz
  x,y,z

loop_
_atom_site_label
_atom_site_type_symbol
_atom_site_fract_x
_atom_site_fract_y
_atom_site_fract_z
_atom_site_charge
C 	C 	0.47989 0.58189 0.89742 0.10000
N 	N 	0.46583 0.55061 0.90875 -0.17400
C 	C 	0.43284 0.55087 0.89292 0.10000
C 	C 	0.40577 0.52615 0.90957 -0.07600
C 	C 	0.41449 0.48877 0.91709 0.08900
C 	C 	0.36930 0.53795 0.91535 0.04300
C 	C 	0.36077 0.56183 0.94950 -0.05900
C 	C 	0.32583 0.57040 0.95773 -0.02800
C 	C 	0.29922 0.55510 0.93184 -0.00700
C 	C 	0.34277 0.52351 0.88860 -0.05700
N 	N 	0.44193 0.47293 0.89730 -0.12800
C 	C 	0.40107 0.46846 0.95198 -0.06100
C 	C 	0.44543 0.44194 0.91922 0.08900
C 	C 	0.47641 0.41916 0.91434 -0.07600
C 	C 	0.47343 0.38120 0.92455 0.04300
C 	C 	0.44345 0.32572 0.91406 -0.02700
C 	C 	0.49335 0.36606 0.95946 -0.05900
C 	C 	0.48792 0.33100 0.97215 -0.02700
C 	C 	0.46251 0.31089 0.95000 -0.00700
N 	N 	0.52266 0.46470 0.91001 -0.17300
C 	C 	0.55647 0.46503 0.89741 0.10000
C 	C 	0.56489 0.43423 0.87521 -0.06300
C 	C 	0.53474 0.41431 0.87438 -0.06300
C 	C 	0.58247 0.48915 0.91750 -0.07600
C 	C 	0.61893 0.47760 0.92429 0.04300
C 	C 	0.68030 0.48192 0.90473 -0.02700
C 	C 	0.68848 0.45732 0.93871 -0.00800
C 	C 	0.66173 0.44273 0.96533 -0.02700
C 	C 	0.62703 0.45280 0.95807 -0.05900
N 	N 	0.54702 0.54285 0.90390 -0.12800
C 	C 	0.56476 0.57535 0.96302 -0.06200
C 	C 	0.54232 0.57309 0.92649 0.08900
C 	C 	0.51152 0.59591 0.91974 -0.07700
C 	C 	0.51360 0.63347 0.93171 0.04500
C 	C 	0.53814 0.65534 0.91031 -0.05900
C 	C 	0.54045 0.69075 0.92195 -0.02500
C 	C 	0.51829 0.70455 0.95515 -0.01200
C 	C 	0.49374 0.68268 0.97659 -0.02100
C 	C 	0.49137 0.64726 0.96484 -0.06300
C 	C 	0.45583 0.60232 0.87409 -0.06300
C 	C 	0.42572 0.58248 0.87121 -0.06300
C 	C 	0.30789 0.53207 0.89677 -0.02700
C 	C 	0.42096 0.43837 0.95336 -0.06100
C 	C 	0.50937 0.43388 0.89609 0.10100
C 	C 	0.58463 0.54522 0.96249 -0.06200
C 	C 	0.57321 0.52620 0.92572 0.08900
C 	C 	0.64567 0.49205 0.89759 -0.05800
H 	H 	0.47441 0.53497 0.93579 0.09300
H 	H 	0.51251 0.47936 0.93671 0.09300
H 	H 	0.55950 0.70745 0.90527 0.03900
H 	H 	0.47647 0.69315 0.00220 0.03100
H 	H 	0.55536 0.64491 0.88463 0.04900
H 	H 	0.47237 0.63052 0.98155 0.04600
H 	H 	0.31940 0.58827 0.98481 0.03800
H 	H 	0.34917 0.50521 0.86197 0.04900
H 	H 	0.28754 0.52039 0.87635 0.04000
H 	H 	0.38113 0.57314 0.97026 0.04500
H 	H 	0.50282 0.31973 0.99984 0.03900
H 	H 	0.51240 0.38168 0.97745 0.04600
C 	C 	0.44891 0.36072 0.90138 -0.05700
H 	H 	0.42400 0.31030 0.89653 0.04000
H 	H 	0.70081 0.49336 0.88409 0.03700
H 	H 	0.63960 0.51118 0.87140 0.04800
H 	H 	0.60650 0.44154 0.97884 0.04600
H 	H 	0.66782 0.42368 0.99160 0.03900
H 	H 	0.45662 0.63069 0.87143 0.04900
H 	H 	0.39987 0.59328 0.86597 0.04900
H 	H 	0.38624 0.47854 0.98024 0.04800
H 	H 	0.42388 0.42157 0.98287 0.04900
H 	H 	0.59099 0.42362 0.87201 0.05000
H 	H 	0.53418 0.38607 0.87051 0.05000
H 	H 	0.56014 0.59109 0.99277 0.04800
H 	H 	0.59778 0.53413 0.99173 0.04700
H 	H 	0.43362 0.37212 0.87412 0.04900
Co	Co	0.39878 0.10791 0.01602 1.17900
Co	Co	0.40012 0.02565 0.01638 1.08800
O 	O 	0.39705 0.16114 0.01912 -0.37300
O 	O 	0.44689 0.14315 0.99699 -0.30700
O 	O 	0.35143 0.09210 0.03304 -0.41400
O 	O 	0.43184 0.04707 0.97069 -0.46700
C 	C 	0.33537 0.06688 0.01104 0.30400
C 	C 	0.42809 0.17008 0.00702 0.28800
O 	O 	0.35359 0.04255 0.99034 -0.43200
O 	O 	0.39846 0.09435 0.95332 -0.41200
C 	C 	0.41945 0.06921 0.94047 0.28700
O 	O 	0.42278 0.09620 0.07168 -0.41600
O 	O 	0.39474 0.04354 0.07880 -0.45000
C 	C 	0.41519 0.06790 0.09550 0.27400
S 	S 	0.47007 0.02848 0.57400 -0.00000
C 	C 	0.49185 0.03219 0.62433 -0.01700
C 	C 	0.52385 0.01361 0.62387 -0.01500
S 	S 	0.53062 0.99360 0.57278 -0.00100
C 	C 	0.49506 0.00267 0.54156 -0.00800
C 	C 	0.49434 0.00291 0.49189 -0.00800
S 	S 	0.52299 0.98172 0.45898 -0.00100
C 	C 	0.52157 0.00284 0.40752 -0.01600
C 	C 	0.49810 0.03155 0.40802 -0.01600
S 	S 	0.47869 0.03596 0.45996 -0.00000
C 	C 	0.53993 0.96029 0.27675 -0.01400
C 	C 	0.51441 0.94534 0.30514 -0.01700
C 	C 	0.51001 0.95762 0.34920 -0.04900
C 	C 	0.53109 0.98488 0.36537 0.02800
C 	C 	0.55776 0.99858 0.33795 -0.05000
C 	C 	0.56210 0.98648 0.29376 -0.01800
H 	H 	0.49756 0.92466 0.29283 0.04400
H 	H 	0.48922 0.94701 0.37009 0.04600
H 	H 	0.57408 0.01973 0.35014 0.04600
H 	H 	0.58189 0.99830 0.27232 0.04600
C 	C 	0.45645 0.05803 0.27858 -0.01400
C 	C 	0.48840 0.07251 0.29252 -0.01700
C 	C 	0.50076 0.06619 0.33637 -0.04900
C 	C 	0.48154 0.04505 0.36642 0.02800
C 	C 	0.44876 0.03223 0.35336 -0.05000
C 	C 	0.43621 0.03876 0.30972 -0.01700
H 	H 	0.50426 0.08749 0.26895 0.04600
H 	H 	0.52608 0.07626 0.34623 0.04600
H 	H 	0.43375 0.01579 0.37630 0.04600
H 	H 	0.41117 0.02809 0.29976 0.04400
C 	C 	0.45166 0.05231 0.75578 -0.01500
C 	C 	0.44640 0.01941 0.73584 -0.01600
C 	C 	0.45697 0.01366 0.69129 -0.04900
C 	C 	0.47347 0.04054 0.66657 0.02800
C 	C 	0.47712 0.07392 0.68562 -0.05100
C 	C 	0.46620 0.07983 0.73008 -0.01700
H 	H 	0.43476 0.99812 0.75516 0.04200
H 	H 	0.45400 0.98780 0.67675 0.04600
H 	H 	0.48986 0.09480 0.66675 0.04600
H 	H 	0.47029 0.10536 0.74508 0.04500
C 	C 	0.55598 0.98049 0.75513 -0.01400
C 	C 	0.56107 0.01547 0.74134 -0.01600
C 	C 	0.55399 0.02565 0.69671 -0.04800
C 	C 	0.54082 0.00115 0.66585 0.02800
C 	C 	0.53785 0.96575 0.67891 -0.05100
C 	C 	0.54549 0.95545 0.72333 -0.01800
H 	H 	0.56967 0.03493 0.76545 0.04600
H 	H 	0.55671 0.05298 0.68683 0.04700
H 	H 	0.52759 0.94660 0.65548 0.04600
H 	H 	0.54163 0.92833 0.73355 0.04300
Co	Co	0.58667 0.90393 0.01370 1.17900
Co	Co	0.50781 0.92309 0.00862 1.08800
O 	O 	0.63797 0.89019 0.01163 -0.37500
O 	O 	0.63109 0.94539 0.00282 -0.31400
O 	O 	0.56059 0.86003 0.02491 -0.42000
O 	O 	0.52086 0.91036 0.07184 -0.44900
C 	C 	0.53443 0.85065 0.99874 0.31300
C 	C 	0.65317 0.91987 0.00452 0.29500
O 	O 	0.51388 0.87459 0.98046 -0.43500
O 	O 	0.57802 0.92709 0.07061 -0.41700
C 	C 	0.54815 0.92399 0.09209 0.27500
O 	O 	0.57608 0.90941 0.95046 -0.41400
O 	O 	0.53690 0.95189 0.96694 -0.46000
C 	C 	0.55735 0.93642 0.93758 0.28600
Co	Co	0.08665 0.59455 0.95727 1.18100
Co	Co	0.00779 0.57539 0.96238 1.09100
O 	O 	0.13796 0.60829 0.95931 -0.37400
O 	O 	0.13107 0.55308 0.96813 -0.31200
O 	O 	0.06057 0.63845 0.94606 -0.41600
O 	O 	0.02083 0.58812 0.89914 -0.44800
C 	C 	0.03442 0.64783 0.97225 0.30700
C 	C 	0.15316 0.57861 0.96642 0.29600
O 	O 	0.01387 0.62389 0.99053 -0.43400
O 	O 	0.07799 0.57138 0.90036 -0.41700
C 	C 	0.04812 0.57450 0.87888 0.27500
O 	O 	0.07608 0.58908 0.02051 -0.41900
O 	O 	0.03689 0.54659 0.00404 -0.46500
C 	C 	0.05735 0.56206 0.03340 0.28600
S 	S 	0.02284 0.51690 0.51197 -0.00100
C 	C 	0.02146 0.49577 0.56342 -0.01600
C 	C 	0.99798 0.46708 0.56294 -0.01600
S 	S 	0.97852 0.46271 0.51103 -0.00000
C 	C 	0.99413 0.49577 0.47906 -0.00800
C 	C 	0.99507 0.49575 0.42940 -0.00800
S 	S 	0.97008 0.46996 0.39696 -0.00000
C 	C 	0.99188 0.46628 0.34664 -0.01600
C 	C 	0.02387 0.48488 0.34712 -0.01600
S 	S 	0.03062 0.50488 0.39821 -0.00200
C 	C 	0.95172 0.44615 0.21518 -0.01500
C 	C 	0.94644 0.47904 0.23511 -0.01600
C 	C 	0.95701 0.48480 0.27967 -0.04900
C 	C 	0.97351 0.45793 0.30439 0.02800
C 	C 	0.97718 0.42455 0.28533 -0.05100
C 	C 	0.96627 0.41864 0.24087 -0.01700
H 	H 	0.93480 0.50033 0.21579 0.04200
H 	H 	0.95403 0.51066 0.29420 0.04600
H 	H 	0.98994 0.40367 0.30419 0.04600
H 	H 	0.97037 0.39310 0.22587 0.04500
C 	C 	0.05600 0.51802 0.21586 -0.01400
C 	C 	0.06112 0.48304 0.22965 -0.01700
C 	C 	0.05404 0.47286 0.27429 -0.04800
C 	C 	0.04085 0.49735 0.30515 0.02800
C 	C 	0.03786 0.53276 0.29208 -0.05000
C 	C 	0.04549 0.54306 0.24766 -0.01800
H 	H 	0.06973 0.46359 0.20555 0.04600
H 	H 	0.05678 0.44553 0.28417 0.04700
H 	H 	0.02759 0.55189 0.31551 0.04600
H 	H 	0.04162 0.57017 0.23744 0.04300
C 	C 	0.03988 0.53829 0.69420 -0.01400
C 	C 	0.01436 0.55326 0.66582 -0.01800
C 	C 	0.00994 0.54100 0.62175 -0.05000
C 	C 	0.03101 0.51373 0.60556 0.02800
C 	C 	0.05769 0.50001 0.63297 -0.05000
C 	C 	0.06203 0.51210 0.67716 -0.01800
H 	H 	0.99752 0.57394 0.67815 0.04500
H 	H 	0.98915 0.55162 0.60088 0.04600
H 	H 	0.07399 0.47886 0.62076 0.04600
H 	H 	0.08183 0.50026 0.69859 0.04600
C 	C 	0.95637 0.44057 0.69240 -0.01500
C 	C 	0.98832 0.42610 0.67842 -0.01600
C 	C 	0.00067 0.43243 0.63458 -0.05000
C 	C 	0.98144 0.45359 0.60455 0.02900
C 	C 	0.94866 0.46641 0.61764 -0.05000
C 	C 	0.93614 0.45987 0.66129 -0.01700
H 	H 	0.00419 0.41109 0.70198 0.04600
H 	H 	0.02598 0.42235 0.62469 0.04600
H 	H 	0.93366 0.48286 0.59473 0.04600
H 	H 	0.91110 0.47054 0.67127 0.04400
Co	Co	0.89876 0.39057 0.95495 1.18200
Co	Co	0.90008 0.47283 0.95462 1.09100
O 	O 	0.89704 0.33733 0.95183 -0.37400
O 	O 	0.94689 0.35533 0.97394 -0.31100
O 	O 	0.85140 0.40636 0.93796 -0.41400
O 	O 	0.93183 0.45140 0.00027 -0.47100
C 	C 	0.83535 0.43157 0.95998 0.30800
C 	C 	0.92809 0.32840 0.96391 0.29800
O 	O 	0.85357 0.45590 0.98068 -0.43500
O 	O 	0.89846 0.40411 0.01765 -0.41700
C 	C 	0.91945 0.42926 0.03050 0.28700
O 	O 	0.92274 0.40229 0.89927 -0.41400
O 	O 	0.89468 0.45494 0.89221 -0.44900
C 	C 	0.91514 0.43060 0.87548 0.27400
C 	C 	0.97990 0.91660 0.07356 0.10200
N 	N 	0.96584 0.94787 0.06222 -0.17300
C 	C 	0.93285 0.94762 0.07804 0.10000
C 	C 	0.90579 0.97234 0.06137 -0.07600
C 	C 	0.91450 0.00971 0.05384 0.09000
C 	C 	0.86931 0.96054 0.05558 0.04200
C 	C 	0.86079 0.93665 0.02144 -0.05700
C 	C 	0.82585 0.92808 0.01321 -0.03400
C 	C 	0.79924 0.94339 0.03909 -0.00400
C 	C 	0.84278 0.97499 0.08233 -0.05600
N 	N 	0.94195 0.02556 0.07365 -0.12900
C 	C 	0.90109 0.03002 0.01894 -0.06500
C 	C 	0.94544 0.05655 0.05172 0.09000
C 	C 	0.97643 0.07932 0.05660 -0.07900
C 	C 	0.97345 0.11729 0.04639 0.04900
C 	C 	0.94347 0.17276 0.05686 -0.02300
C 	C 	0.99337 0.13242 0.01148 -0.07300
C 	C 	0.98794 0.16748 0.99879 -0.01200
C 	C 	0.96253 0.18759 0.02094 -0.01600
N 	N 	0.02268 0.03378 0.06096 -0.17300
C 	C 	0.05648 0.03346 0.07358 0.10000
C 	C 	0.06490 0.06425 0.09578 -0.06300
C 	C 	0.03475 0.08418 0.09659 -0.06300
C 	C 	0.08249 0.00933 0.05350 -0.07800
C 	C 	0.11894 0.02088 0.04673 0.04400
C 	C 	0.18031 0.01656 0.06631 -0.02800
C 	C 	0.18850 0.04115 0.03232 -0.00600
C 	C 	0.16175 0.05574 0.00569 -0.03200
C 	C 	0.12705 0.04567 0.01294 -0.06300
N 	N 	0.04703 0.95564 0.06710 -0.12900
C 	C 	0.06478 0.92312 0.00799 -0.06600
C 	C 	0.04234 0.92539 0.04451 0.09000
C 	C 	0.01153 0.90257 0.05125 -0.08000
C 	C 	0.01361 0.86502 0.03928 0.04800
C 	C 	0.03815 0.84314 0.06068 -0.06300
C 	C 	0.04045 0.80773 0.04904 -0.02300
C 	C 	0.01829 0.79393 0.01584 -0.01600
C 	C 	0.99374 0.81580 0.99440 -0.01400
C 	C 	0.99138 0.85123 0.00614 -0.07400
C 	C 	0.95583 0.89616 0.09688 -0.06400
C 	C 	0.92572 0.91601 0.09975 -0.06300
C 	C 	0.80790 0.96642 0.07416 -0.02900
C 	C 	0.92099 0.06011 0.01756 -0.06600
C 	C 	0.00938 0.06460 0.07487 0.10100
C 	C 	0.08466 0.95325 0.00852 -0.06600
C 	C 	0.07323 0.97228 0.04529 0.08900
C 	C 	0.14568 0.00643 0.07343 -0.05800
H 	H 	0.97443 0.96351 0.03518 0.09200
H 	H 	0.01253 0.01912 0.03426 0.09200
H 	H 	0.05950 0.79102 0.06572 0.03700
H 	H 	0.97648 0.80534 0.96879 0.03400
H 	H 	0.05536 0.85357 0.08637 0.04900
H 	H 	0.97238 0.86797 0.98943 0.05100
H 	H 	0.81942 0.91021 0.98613 0.04200
H 	H 	0.84917 0.99328 0.10895 0.04900
H 	H 	0.78754 0.97811 0.09457 0.04000
H 	H 	0.88115 0.92534 0.00068 0.04300
H 	H 	0.00285 0.17875 0.97110 0.03600
H 	H 	0.01243 0.11681 0.99350 0.05200
C 	C 	0.94892 0.13777 0.06955 -0.06200
H 	H 	0.92401 0.18819 0.07439 0.03800
H 	H 	0.20082 0.00512 0.08695 0.03700
H 	H 	0.13961 0.98731 0.09963 0.04800
H 	H 	0.10653 0.05693 0.99216 0.04900
H 	H 	0.16785 0.07479 0.97942 0.04200
H 	H 	0.95662 0.86780 0.09955 0.04900
H 	H 	0.89987 0.90522 0.10498 0.04900
H 	H 	0.88628 0.01993 0.99068 0.05200
H 	H 	0.92391 0.07691 0.98805 0.05200
H 	H 	0.09099 0.07486 0.09899 0.04900
H 	H 	0.03419 0.11242 0.10046 0.04900
H 	H 	0.06017 0.90738 0.97824 0.05100
H 	H 	0.09782 0.96434 0.97929 0.05000
H 	H 	0.93363 0.12636 0.09681 0.05000
C 	C 	0.97021 0.28486 0.99669 0.02800
C 	C 	0.93739 0.29216 0.97744 -0.08600
C 	C 	0.91343 0.26468 0.97117 0.01800
C 	C 	0.92186 0.23051 0.98488 -0.06300
C 	C 	0.95435 0.22339 0.00482 0.03100
C 	C 	0.97861 0.25061 0.01035 -0.07200
H 	H 	0.98911 0.30568 0.00131 0.03800
H 	H 	0.88821 0.26978 0.95588 0.04300
H 	H 	0.90308 0.20957 0.98018 0.05000
H 	H 	0.00381 0.24531 0.02563 0.05100
C 	C 	0.94524 0.43762 0.74009 0.11100
N 	N 	0.95321 0.40856 0.76503 -0.08400
N 	N 	0.94366 0.40630 0.80835 -0.05900
C 	C 	0.92584 0.43301 0.82790 0.03100
N 	N 	0.91791 0.46204 0.80300 -0.06900
N 	N 	0.92751 0.46434 0.75977 -0.08600
C 	C 	0.92893 0.43288 0.07830 0.02900
N 	N 	0.91873 0.40834 0.10919 -0.05800
N 	N 	0.92628 0.41238 0.15288 -0.08400
C 	C 	0.94398 0.44122 0.16689 0.11100
N 	N 	0.95434 0.46563 0.13595 -0.08400
N 	N 	0.94698 0.46148 0.09226 -0.06900
C 	C 	0.03877 0.71137 0.95118 0.01500
C 	C 	0.02891 0.68526 0.98256 -0.08700
C 	C 	0.01446 0.69507 0.02429 0.01100
C 	C 	0.01046 0.73056 0.03481 -0.06700
C 	C 	0.02076 0.75657 0.00369 0.02700
C 	C 	0.03465 0.74687 0.96170 -0.06200
H 	H 	0.04962 0.70418 0.91869 0.04000
H 	H 	0.00691 0.67523 0.04891 0.03500
H 	H 	0.99967 0.73785 0.06729 0.04700
H 	H 	0.04265 0.76682 0.93748 0.04800
C 	C 	0.04229 0.54883 0.74212 0.11100
N 	N 	0.07335 0.54741 0.76428 -0.08400
N 	N 	0.07525 0.55579 0.80792 -0.05900
C 	C 	0.04617 0.56594 0.83061 0.03100
N 	N 	0.01516 0.56755 0.80845 -0.07000
N 	N 	0.01323 0.55905 0.76487 -0.08600
C 	C 	0.05902 0.52785 0.16775 0.11000
N 	N 	0.07576 0.55786 0.15538 -0.08500
N 	N 	0.07595 0.56834 0.11222 -0.06000
C 	C 	0.05913 0.54928 0.08031 0.03000
N 	N 	0.04267 0.51909 0.09260 -0.06300
N 	N 	0.04269 0.50848 0.13570 -0.08200
C 	C 	0.70561 0.95880 0.00442 0.01000
C 	C 	0.69095 0.92538 0.01152 -0.08100
C 	C 	0.71243 0.89746 0.02580 0.01500
C 	C 	0.74794 0.90320 0.03410 -0.06400
C 	C 	0.76229 0.93681 0.02802 0.02800
C 	C 	0.74107 0.96447 0.01268 -0.06200
H 	H 	0.68951 0.98044 0.99272 0.04800
H 	H 	0.70160 0.87146 0.03099 0.04100
H 	H 	0.76417 0.88166 0.04581 0.04700
H 	H 	0.75203 0.99042 0.00746 0.04800
C 	C 	0.55902 0.97066 0.80324 0.11100
N 	N 	0.54267 0.99002 0.83530 -0.08100
N 	N 	0.54266 0.97940 0.87840 -0.06200
C 	C 	0.55913 0.94922 0.89068 0.03100
N 	N 	0.57596 0.93017 0.85876 -0.05900
N 	N 	0.57577 0.94065 0.81561 -0.08400
C 	C 	0.54234 0.94972 0.22883 0.11100
N 	N 	0.57340 0.95112 0.20667 -0.08400
N 	N 	0.57529 0.94272 0.16304 -0.05900
C 	C 	0.54621 0.93256 0.14036 0.03100
N 	N 	0.51520 0.93098 0.16253 -0.07000
N 	N 	0.51327 0.93950 0.20610 -0.08600
C 	C 	0.27916 0.07650 0.05199 0.01800
C 	C 	0.29704 0.06354 0.01410 -0.09700
C 	C 	0.27842 0.04559 0.98047 0.02000
C 	C 	0.24263 0.03946 0.98559 -0.06400
C 	C 	0.22515 0.05120 0.02433 0.02600
C 	C 	0.24341 0.07029 0.05709 -0.06700
H 	H 	0.29313 0.09045 0.07817 0.04100
H 	H 	0.29175 0.03596 0.95071 0.03300
H 	H 	0.22867 0.02483 0.96003 0.04700
H 	H 	0.23004 0.07961 0.08700 0.04900
C 	C 	0.42891 0.06558 0.89267 0.03000
N 	N 	0.41869 0.09011 0.86178 -0.05800
N 	N 	0.42623 0.08607 0.81808 -0.08400
C 	C 	0.44393 0.05724 0.80407 0.11100
N 	N 	0.45430 0.03283 0.83500 -0.08400
N 	N 	0.44695 0.03698 0.87869 -0.06900
C 	C 	0.44529 0.06096 0.23089 0.11100
N 	N 	0.45327 0.09000 0.20592 -0.08400
N 	N 	0.44371 0.09224 0.16260 -0.05900
C 	C 	0.42589 0.06552 0.14308 0.03100
N 	N 	0.41796 0.03651 0.16801 -0.06900
N 	N 	0.42757 0.03423 0.21125 -0.08600
C 	C 	0.42184 0.26796 0.98603 -0.06600
C 	C 	0.45434 0.27509 0.96610 0.03100
C 	C 	0.47860 0.24787 0.96058 -0.06400
C 	C 	0.47020 0.21363 0.97424 0.01600
C 	C 	0.43739 0.20632 0.99348 -0.07800
C 	C 	0.41341 0.23379 0.99974 0.02100
H 	H 	0.40305 0.28890 0.99072 0.05100
H 	H 	0.50380 0.25318 0.94532 0.05000
H 	H 	0.48911 0.19281 0.96963 0.04500
H 	H 	0.38819 0.22868 0.01502 0.03900
C 	C 	0.24792 0.59528 0.93684 -0.06500
C 	C 	0.26227 0.56168 0.94290 0.03100
C 	C 	0.24105 0.53401 0.95823 -0.06400
C 	C 	0.20559 0.53968 0.96650 0.01700
C 	C 	0.19093 0.57310 0.95941 -0.08300
C 	C 	0.21242 0.60102 0.94514 0.01700
H 	H 	0.26416 0.61683 0.92514 0.04800
H 	H 	0.25201 0.50806 0.96345 0.05000
H 	H 	0.18949 0.51804 0.97818 0.04400
H 	H 	0.20159 0.62702 0.93996 0.04200
C 	C 	0.77840 0.45287 0.99056 0.02000
C 	C 	0.79702 0.43491 0.95693 -0.09500
C 	C 	0.77913 0.42196 0.91903 0.01900
C 	C 	0.74338 0.42818 0.91394 -0.06800
C 	C 	0.72512 0.44727 0.94670 0.03000
C 	C 	0.74261 0.45901 0.98543 -0.06500
H 	H 	0.79173 0.46250 0.02031 0.03000
H 	H 	0.79310 0.40801 0.89286 0.04100
H 	H 	0.73001 0.41886 0.88404 0.05000
H 	H 	0.72865 0.47364 0.01100 0.04300
C 	C 	0.51045 0.76792 0.93618 -0.07100
C 	C 	0.52076 0.74191 0.96729 0.03700
C 	C 	0.53466 0.75161 0.00928 -0.07300
C 	C 	0.53878 0.78712 0.01980 0.01600
C 	C 	0.52892 0.81322 0.98842 -0.09100
C 	C 	0.51446 0.80341 0.94669 0.01900
H 	H 	0.49966 0.76063 0.90370 0.04800
H 	H 	0.54266 0.73166 0.03351 0.04900
H 	H 	0.54964 0.79430 0.05229 0.03800
H 	H 	0.50691 0.82325 0.92208 0.03500
