data_crystal

_cell_length_a 18.61075
_cell_length_b 18.73380
_cell_length_c 33.45422
_cell_angle_alpha 95.42625
_cell_angle_beta  95.42679
_cell_angle_gamma 126.42564

_symmetry_space_group_name_	'P 1'
_symmetry_space_group_name_H-M	'P 1'

loop_
_symmetry_equiv_pos_as_xyz
  x,y,z

loop_
_atom_site_label
_atom_site_type_symbol
_atom_site_fract_x
_atom_site_fract_y
_atom_site_fract_z
_atom_site_charge
C 	C 	0.90668 0.98956 0.95758 0.17900
N 	N 	0.99742 0.04264 0.95777 -0.11000
C 	C 	0.04197 0.00600 0.95669 0.19700
N 	N 	0.99598 0.91621 0.95516 -0.12600
C 	C 	0.90556 0.86255 0.95527 0.18800
N 	N 	0.86060 0.89928 0.95694 -0.13500
C 	C 	0.95776 0.05575 0.50679 0.19700
N 	N 	0.04719 0.10175 0.50420 -0.12000
C 	C 	0.08496 0.05786 0.50314 0.19300
N 	N 	0.03293 0.96837 0.50406 -0.12600
C 	C 	0.94319 0.92182 0.50493 0.18800
N 	N 	0.90598 0.96578 0.50686 -0.13200
Cu	Cu	0.75384 0.33274 0.95656 0.92900
Cu	Cu	0.75273 0.28099 0.04773 0.89100
Cu	Cu	0.60802 0.28773 0.00759 0.90700
Cu	Cu	0.58107 0.31849 0.92228 0.90800
C 	C 	0.68136 0.28322 0.87028 0.25800
O 	O 	0.80367 0.46231 0.95173 -0.34900
C 	C 	0.66998 0.33175 0.09806 0.26300
O 	O 	0.61164 0.25654 0.95179 -0.63500
O 	O 	0.74234 0.35353 0.01396 -0.63600
O 	O 	0.81756 0.27675 0.96462 -0.35700
O 	O 	0.72412 0.18753 0.00590 -0.38800
O 	O 	0.64424 0.32445 0.87624 -0.35500
O 	O 	0.47687 0.21713 0.99770 -0.36600
C 	C 	0.42643 0.21341 0.96574 0.34600
C 	C 	0.76059 0.49524 0.96212 0.32800
O 	O 	0.67642 0.44031 0.96729 -0.36200
O 	O 	0.46280 0.26847 0.93953 -0.35600
O 	O 	0.74210 0.29419 0.89938 -0.32700
C 	C 	0.78099 0.20412 0.98126 0.32400
O 	O 	0.60261 0.29801 0.06670 -0.34100
O 	O 	0.74634 0.34538 0.09306 -0.38600
H 	H 	0.57429 0.19076 0.94123 0.18400
H 	H 	0.77817 0.41785 0.02712 0.19400
Cu	Cu	0.61669 0.21205 0.50953 0.93300
Cu	Cu	0.67191 0.21631 0.41912 0.89400
Cu	Cu	0.66745 0.35985 0.46051 0.90400
Cu	Cu	0.64168 0.38755 0.54639 0.90800
C 	C 	0.64651 0.26550 0.59673 0.26300
O 	O 	0.48868 0.17080 0.51356 -0.32600
C 	C 	0.62642 0.30350 0.36965 0.26100
O 	O 	0.69931 0.35291 0.51580 -0.63600
O 	O 	0.59850 0.22630 0.45255 -0.63900
O 	O 	0.66889 0.14520 0.50075 -0.35500
O 	O 	0.76264 0.24121 0.46152 -0.39100
O 	O 	0.61675 0.31276 0.58964 -0.34800
O 	O 	0.74058 0.48985 0.47142 -0.37400
C 	C 	0.73799 0.54031 0.50080 0.33800
C 	C 	0.46059 0.21780 0.50281 0.33100
O 	O 	0.52012 0.30275 0.49991 -0.38500
O 	O 	0.71121 0.51252 0.53517 -0.34400
O 	O 	0.65361 0.22065 0.56649 -0.33700
C 	C 	0.74293 0.18180 0.48485 0.32600
O 	O 	0.65609 0.36787 0.40166 -0.34400
O 	O 	0.61026 0.22635 0.37400 -0.38300
H 	H 	0.76539 0.38724 0.52583 0.18200
H 	H 	0.53425 0.19227 0.43893 0.20200
C 	C 	0.70764 0.24386 0.76956 0.12300
C 	C 	0.75453 0.28293 0.73794 -0.07300
C 	C 	0.70456 0.27708 0.70195 0.01900
C 	C 	0.61214 0.23033 0.69621 0.12800
C 	C 	0.56475 0.18949 0.72721 -0.08100
C 	C 	0.61422 0.19535 0.76346 0.02800
O 	O 	0.74986 0.27665 0.81053 -0.16700
C 	C 	0.67320 0.24503 0.82820 0.05900
C 	C 	0.59238 0.19654 0.80046 -0.05700
O 	O 	0.57018 0.20627 0.65558 -0.16900
C 	C 	0.64696 0.24255 0.63738 0.05900
C 	C 	0.72701 0.28223 0.66483 -0.05200
H 	H 	0.82754 0.32014 0.74206 0.08700
H 	H 	0.49195 0.15375 0.72314 0.08800
H 	H 	0.53163 0.18824 0.80610 0.07000
H 	H 	0.79500 0.32831 0.65870 0.06700
C 	C 	0.68341 0.35583 0.27536 0.12400
C 	C 	0.73439 0.40348 0.24634 -0.07900
C 	C 	0.69735 0.36101 0.20508 0.01700
C 	C 	0.60970 0.28390 0.19280 0.12300
C 	C 	0.55562 0.24092 0.22181 -0.07900
C 	C 	0.59812 0.27558 0.26314 0.01700
O 	O 	0.70480 0.39213 0.31666 -0.17800
C 	C 	0.62406 0.32327 0.32828 0.05300
C 	C 	0.55799 0.25622 0.29575 -0.05100
O 	O 	0.57567 0.26599 0.15138 -0.17500
C 	C 	0.65335 0.33931 0.13981 0.05400
C 	C 	0.72446 0.39906 0.17234 -0.05000
H 	H 	0.79879 0.47028 0.25538 0.08300
H 	H 	0.48422 0.18426 0.21266 0.08300
H 	H 	0.49940 0.18969 0.29833 0.07100
H 	H 	0.79463 0.44943 0.16990 0.07000
C 	C 	0.81660 0.78047 0.52444 -0.11300
C 	C 	0.88544 0.82314 0.50130 -0.06200
C 	C 	0.90016 0.77129 0.47532 0.32000
C 	C 	0.85047 0.67877 0.47449 -0.07400
C 	C 	0.78432 0.63648 0.49903 -0.12700
C 	C 	0.76555 0.68744 0.52304 0.35800
F 	F 	0.69766 0.64687 0.54482 -0.42800
H 	H 	0.80352 0.81959 0.54396 0.12700
H 	H 	0.86454 0.64022 0.45523 0.10800
F 	F 	0.96228 0.81054 0.45065 -0.42700
C 	C 	0.80394 0.11844 0.52677 -0.07200
C 	C 	0.80256 0.15444 0.49199 -0.13000
C 	C 	0.85957 0.16561 0.46422 0.35300
C 	C 	0.91570 0.13975 0.47098 -0.11100
C 	C 	0.91423 0.10047 0.50479 -0.05800
C 	C 	0.85925 0.09132 0.53310 0.32200
F 	F 	0.85833 0.05476 0.56639 -0.41600
H 	H 	0.76198 0.11110 0.54883 0.10900
H 	H 	0.95712 0.14622 0.44878 0.11500
F 	F 	0.85800 0.19815 0.42984 -0.44800
C 	C 	0.20441 0.06015 0.47386 -0.10800
C 	C 	0.18077 0.10536 0.49872 -0.05800
C 	C 	0.24985 0.19024 0.52311 0.31900
C 	C 	0.34126 0.22754 0.52372 -0.06700
C 	C 	0.36446 0.18002 0.50043 -0.13200
C 	C 	0.29569 0.09679 0.47504 0.35900
F 	F 	0.31724 0.05144 0.45144 -0.43700
H 	H 	0.15181 0.99538 0.45438 0.12800
H 	H 	0.39405 0.29225 0.54319 0.09600
F 	F 	0.22860 0.23469 0.54757 -0.41600
C 	C 	0.81530 0.72588 0.98659 -0.11400
C 	C 	0.85743 0.76504 0.95405 -0.06200
C 	C 	0.86885 0.71554 0.92453 0.32000
C 	C 	0.84123 0.62922 0.92833 -0.07500
C 	C 	0.80056 0.59063 0.96125 -0.13100
C 	C 	0.78714 0.63922 0.99029 0.35200
F 	F 	0.74803 0.60300 0.02240 -0.43700
H 	H 	0.80737 0.76382 0.00986 0.11200
H 	H 	0.84972 0.59159 0.90518 0.10500
F 	F 	0.90813 0.75183 0.89246 -0.42000
C 	C 	0.82273 0.03126 0.99439 -0.10800
C 	C 	0.85976 0.03108 0.95984 -0.05200
C 	C 	0.86596 0.08376 0.93105 0.32000
C 	C 	0.83893 0.13894 0.93772 -0.07100
C 	C 	0.80580 0.14249 0.97331 -0.12900
C 	C 	0.79662 0.08707 0.00141 0.35300
F 	F 	0.76606 0.08999 0.03634 -0.44600
H 	H 	0.81830 0.99147 0.01689 0.10900
H 	H 	0.84452 0.17943 0.91537 0.11000
F 	F 	0.90016 0.08306 0.89705 -0.41400
C 	C 	0.17462 0.05212 0.92472 -0.11000
C 	C 	0.14012 0.06344 0.95818 -0.05700
C 	C 	0.19988 0.12349 0.99436 0.31900
C 	C 	0.29356 0.17104 0.99713 -0.06800
C 	C 	0.32808 0.15960 0.96364 -0.13200
C 	C 	0.26828 0.10038 0.92730 0.36100
F 	F 	0.30098 0.08872 0.89473 -0.43900
H 	H 	0.12871 0.00523 0.89684 0.12900
H 	H 	0.33939 0.21744 0.02512 0.10700
F 	F 	0.16700 0.13413 0.02708 -0.42100
