data_crystal

_cell_length_a 26.36297
_cell_length_b 25.31090
_cell_length_c 45.39824
_cell_angle_alpha 95.50889
_cell_angle_beta  95.50804
_cell_angle_gamma 125.74157

_symmetry_space_group_name_	'P 1'
_symmetry_space_group_name_H-M	'P 1'

loop_
_symmetry_equiv_pos_as_xyz
  x,y,z

loop_
_atom_site_label
_atom_site_type_symbol
_atom_site_fract_x
_atom_site_fract_y
_atom_site_fract_z
_atom_site_charge
C 	C 	0.97422 0.03424 0.98675 0.03400
C 	C 	0.04074 0.07281 0.98966 -0.07400
C 	C 	0.07169 0.04292 0.99147 0.03600
H 	H 	0.06838 0.12594 0.99088 0.05200
C 	C 	0.00977 0.06178 0.47367 -0.07300
H 	H 	0.03298 0.11460 0.47638 0.05100
Cu	Cu	0.63087 0.22995 0.00315 0.92900
Cu	Cu	0.68239 0.22833 0.94031 0.87000
Cu	Cu	0.67208 0.33470 0.96365 0.89700
Cu	Cu	0.63474 0.35515 0.02176 0.89400
C 	C 	0.65004 0.28262 0.06550 0.28800
O 	O 	0.53888 0.19373 0.00185 -0.36200
C 	C 	0.65142 0.28668 0.89829 0.28900
O 	O 	0.68466 0.33300 0.00568 -0.64100
O 	O 	0.62496 0.23672 0.96004 -0.64100
O 	O 	0.66600 0.17856 0.00221 -0.37000
O 	O 	0.73939 0.24437 0.97491 -0.43900
O 	O 	0.62212 0.30974 0.05697 -0.38400
O 	O 	0.72233 0.43031 0.97009 -0.38100
C 	C 	0.71988 0.46749 0.99155 0.28700
C 	C 	0.51538 0.22199 0.98975 0.28200
O 	O 	0.55381 0.28359 0.98612 -0.38800
O 	O 	0.67438 0.44124 0.00768 -0.39000
O 	O 	0.65047 0.24058 0.04602 -0.36100
C 	C 	0.71962 0.20125 0.99290 0.28800
O 	O 	0.67411 0.33731 0.92046 -0.38900
O 	O 	0.64538 0.23297 0.90332 -0.41900
H 	H 	0.72981 0.36055 0.01591 0.16300
H 	H 	0.58125 0.21065 0.94811 0.17300
Cu	Cu	0.72198 0.33832 0.46373 0.92800
Cu	Cu	0.72159 0.27649 0.52423 0.87000
Cu	Cu	0.62231 0.29418 0.50378 0.89700
Cu	Cu	0.60623 0.34342 0.44832 0.89300
C 	C 	0.67433 0.33025 0.40237 0.28800
O 	O 	0.76181 0.43613 0.46825 -0.36300
C 	C 	0.66858 0.30826 0.56817 0.28900
O 	O 	0.62370 0.28642 0.46154 -0.64100
O 	O 	0.71581 0.33999 0.50684 -0.64200
O 	O 	0.76568 0.29550 0.46151 -0.37200
O 	O 	0.70149 0.21772 0.48824 -0.43900
O 	O 	0.64960 0.35952 0.41281 -0.38600
O 	O 	0.53079 0.24513 0.49769 -0.37800
C 	C 	0.49653 0.25073 0.47680 0.28600
C 	C 	0.73738 0.46207 0.48201 0.28000
O 	O 	0.67753 0.42394 0.48506 -0.38600
O 	O 	0.52328 0.30146 0.46256 -0.39200
O 	O 	0.71115 0.32299 0.42070 -0.36100
C 	C 	0.74035 0.23721 0.46897 0.28600
O 	O 	0.61960 0.28583 0.54645 -0.38900
O 	O 	0.71915 0.31327 0.56234 -0.41900
H 	H 	0.59569 0.24032 0.45008 0.16300
H 	H 	0.74217 0.38467 0.51970 0.17200
C 	C 	0.66237 0.31765 0.59989 -0.09100
C 	C 	0.71701 0.35936 0.62251 0.01700
C 	C 	0.71148 0.36254 0.65285 -0.07300
C 	C 	0.65140 0.32432 0.66082 0.04400
C 	C 	0.59665 0.28495 0.63831 -0.07300
C 	C 	0.60201 0.28164 0.60795 0.01700
C 	C 	0.64628 0.32150 0.69201 -0.03200
C 	C 	0.64231 0.31936 0.71816 -0.00200
C 	C 	0.63832 0.31579 0.74877 -0.00200
C 	C 	0.63563 0.31198 0.77490 -0.03200
C 	C 	0.63346 0.30663 0.80612 0.04500
C 	C 	0.67397 0.36320 0.82869 -0.07300
C 	C 	0.67784 0.35711 0.85897 0.01700
C 	C 	0.64135 0.29417 0.86687 -0.09200
C 	C 	0.59864 0.23789 0.84425 0.01700
C 	C 	0.59486 0.24416 0.81400 -0.07400
H 	H 	0.76378 0.38841 0.61664 0.02900
H 	H 	0.75401 0.39352 0.67015 0.04800
H 	H 	0.55002 0.25554 0.64432 0.05000
H 	H 	0.55939 0.24948 0.59080 0.03700
H 	H 	0.70376 0.41171 0.82276 0.04900
H 	H 	0.71082 0.40102 0.87614 0.03600
H 	H 	0.56932 0.18920 0.85004 0.02900
H 	H 	0.56308 0.20024 0.79666 0.04900
C 	C 	0.67393 0.32077 0.36969 -0.08600
C 	C 	0.66558 0.35830 0.35168 0.01700
C 	C 	0.66695 0.35063 0.32095 -0.07200
C 	C 	0.67664 0.30552 0.30789 0.04500
C 	C 	0.68447 0.26757 0.32565 -0.07100
C 	C 	0.68307 0.27507 0.35644 0.01700
C 	C 	0.67885 0.29867 0.27628 -0.03000
C 	C 	0.68036 0.29449 0.24975 -0.00100
C 	C 	0.68158 0.29130 0.21865 -0.00100
C 	C 	0.68199 0.28991 0.19207 -0.03000
C 	C 	0.68156 0.28976 0.16032 0.04600
C 	C 	0.70180 0.34760 0.14923 -0.07200
C 	C 	0.69402 0.34585 0.11819 0.01700
C 	C 	0.66595 0.28615 0.09797 -0.08700
C 	C 	0.64832 0.22885 0.10913 0.02100
C 	C 	0.65595 0.23067 0.14024 -0.07200
H 	H 	0.65892 0.39406 0.36153 0.03500
H 	H 	0.66082 0.38009 0.30733 0.05000
H 	H 	0.69175 0.23239 0.31565 0.05100
H 	H 	0.68897 0.24534 0.36995 0.03600
H 	H 	0.72200 0.39356 0.16465 0.04900
H 	H 	0.70851 0.39054 0.10984 0.02100
H 	H 	0.62662 0.18245 0.09378 0.04000
H 	H 	0.64037 0.18578 0.14866 0.05100
C 	C 	0.85282 0.64406 0.48829 0.01400
C 	C 	0.80678 0.64927 0.49832 0.00200
S 	S 	0.74628 0.57436 0.50237 0.01300
C 	C 	0.77685 0.53390 0.49355 -0.07600
C 	C 	0.83618 0.57920 0.48576 -0.02300
H 	H 	0.76452 0.70137 0.49878 0.04600
H 	H 	0.86123 0.56409 0.47434 0.04600
C 	C 	0.83494 0.07567 0.47454 0.00200
C 	C 	0.77914 0.07091 0.47312 -0.05900
C 	C 	0.77505 0.11485 0.45835 0.01300
C 	C 	0.82382 0.15862 0.44355 -0.00100
C 	C 	0.87947 0.16294 0.44477 -0.06100
C 	C 	0.88335 0.11883 0.45947 0.02500
S 	S 	0.84038 0.01475 0.47936 -0.01700
C 	C 	0.90389 0.04099 0.46328 -0.00300
C 	C 	0.92317 0.10008 0.45358 -0.06200
S 	S 	0.81971 0.22094 0.44030 0.02100
C 	C 	0.75490 0.19342 0.45549 -0.08100
C 	C 	0.73601 0.13421 0.46497 -0.02500
H 	H 	0.74129 0.03605 0.48409 0.04300
H 	H 	0.91752 0.19803 0.43395 0.04600
H 	H 	0.70220 0.11179 0.47989 0.03600
C 	C 	0.31617 0.13366 0.48353 -0.00000
C 	C 	0.26727 0.10834 0.50020 -0.06000
C 	C 	0.22146 0.11936 0.49353 0.02600
C 	C 	0.22779 0.15896 0.47238 0.00300
C 	C 	0.27681 0.18444 0.45577 -0.05700
C 	C 	0.32254 0.17333 0.46240 0.01500
S 	S 	0.38699 0.15090 0.49502 0.02200
C 	C 	0.42669 0.20532 0.47270 -0.07600
C 	C 	0.38500 0.21394 0.45622 -0.02200
S 	S 	0.15677 0.14093 0.46060 -0.01400
C 	C 	0.11685 0.08637 0.48283 -0.00400
C 	C 	0.15887 0.07835 0.49952 -0.06100
H 	H 	0.26378 0.07927 0.51699 0.04600
H 	H 	0.28025 0.21342 0.43894 0.04500
H 	H 	0.40055 0.25319 0.44342 0.04100
S 	S 	0.77313 0.59337 0.02305 0.01200
C 	C 	0.76085 0.53960 0.99363 -0.07300
C 	C 	0.80992 0.57361 0.97742 -0.02200
H 	H 	0.81253 0.55070 0.95678 0.04500
C 	C 	0.79055 0.10643 0.97714 0.00500
C 	C 	0.79654 0.05504 0.97249 -0.06400
C 	C 	0.85373 0.06776 0.98574 0.02700
C 	C 	0.90068 0.12806 0.00527 0.00300
C 	C 	0.89506 0.17982 0.00961 -0.05500
C 	C 	0.83802 0.16735 0.99611 0.01000
S 	S 	0.72212 0.09627 0.97513 -0.00700
C 	C 	0.74947 0.16811 0.99708 -0.07800
C 	C 	0.81525 0.20293 0.00673 -0.01800
S 	S 	0.96900 0.13752 0.00828 -0.01400
C 	C 	0.94190 0.06626 0.98567 -0.00400
C 	C 	0.87654 0.03241 0.97496 -0.06200
H 	H 	0.75901 0.00775 0.95828 0.04600
H 	H 	0.93253 0.22705 0.02389 0.04500
H 	H 	0.84536 0.25179 0.02084 0.03700
C 	C 	0.34802 0.18379 0.97978 0.00200
C 	C 	0.28751 0.16226 0.96588 -0.06100
C 	C 	0.23597 0.12048 0.97966 0.02600
C 	C 	0.24475 0.09804 0.00529 0.00300
C 	C 	0.30490 0.11919 0.01914 -0.05700
C 	C 	0.35623 0.15978 0.00510 0.01500
S 	S 	0.40866 0.20772 0.96220 0.01300
C 	C 	0.44686 0.18912 0.98562 -0.07600
C 	C 	0.41221 0.16355 0.00858 -0.02200
S 	S 	0.18293 0.07102 0.02209 -0.01200
C 	C 	0.14158 0.08398 0.99726 -0.00500
C 	C 	0.17732 0.11155 0.97473 -0.06100
H 	H 	0.28108 0.17871 0.94563 0.04600
H 	H 	0.31104 0.10202 0.03919 0.04700
H 	H 	0.42701 0.14876 0.02719 0.04600
H 	H 	0.16094 0.12293 0.95523 0.04600
C 	C 	0.80137 0.69895 0.49179 -0.06200
C 	C 	0.83932 0.66061 0.01635 0.00200
C 	C 	0.85345 0.64218 0.98985 0.01300
C 	C 	0.89770 0.69181 0.47323 -0.05700
H 	H 	0.93413 0.68906 0.46588 0.04600
H 	H 	0.89864 0.67567 0.95132 0.04500
C 	C 	0.89248 0.68998 0.97319 -0.05600
C 	C 	0.85834 0.72518 0.02502 -0.06100
C 	C 	0.84581 0.74610 0.47645 0.02600
H 	H 	0.83834 0.73644 0.04213 0.04700
C 	C 	0.94306 0.01693 0.46700 0.03300
C 	C 	0.89150 0.74069 0.46633 0.00400
C 	C 	0.91884 0.75615 0.98444 0.00200
H 	H 	0.14371 0.03991 0.51278 0.04500
C 	C 	0.89955 0.77337 0.00909 0.02700
C 	C 	0.04667 0.03867 0.47735 0.03400
C 	C 	0.86022 0.80963 0.47693 -0.06100
H 	H 	0.83445 0.82510 0.48729 0.04500
S 	S 	0.94953 0.81378 0.45920 -0.01500
S 	S 	0.94374 0.81440 0.96357 -0.01400
C 	C 	0.90831 0.83428 0.00957 -0.06000
C 	C 	0.91742 0.85319 0.46708 -0.00300
H 	H 	0.96144 0.12595 0.44115 0.04500
H 	H 	0.89763 0.85619 0.02727 0.04600
C 	C 	0.93256 0.86338 0.98480 -0.00500
H 	H 	0.84760 0.98632 0.95874 0.04500
C 	C 	0.03591 0.97394 0.98877 -0.07300
C 	C 	0.96962 0.93515 0.98575 0.03500
C 	C 	0.93894 0.96534 0.98529 -0.07500
H 	H 	0.05975 0.95067 0.98962 0.05500
H 	H 	0.88794 0.93536 0.98421 0.05100
C 	C 	0.91333 0.94877 0.46434 -0.07300
C 	C 	0.94972 0.92524 0.46902 0.03300
C 	C 	0.01655 0.97033 0.47515 -0.07200
H 	H 	0.86192 0.91401 0.45830 0.05100
H 	H 	0.04495 0.95243 0.47804 0.05200
