data_crystal

_cell_length_a 31.69469
_cell_length_b 28.87082
_cell_length_c 31.56644
_cell_angle_alpha 103.62805
_cell_angle_beta  115.75157
_cell_angle_gamma 112.42369

_symmetry_space_group_name_	'P 1'
_symmetry_space_group_name_H-M	'P 1'

loop_
_symmetry_equiv_pos_as_xyz
  x,y,z

loop_
_atom_site_label
_atom_site_type_symbol
_atom_site_fract_x
_atom_site_fract_y
_atom_site_fract_z
_atom_site_charge
C 	C 	0.73111 0.24214 0.92866 0.00100
C 	C 	0.73836 0.24793 0.97722 -0.01000
C 	C 	0.72083 0.27801 0.99895 -0.07700
C 	C 	0.69466 0.30147 0.97191 0.08900
C 	C 	0.68545 0.29379 0.92215 -0.06800
C 	C 	0.70454 0.26524 0.90126 -0.01300
N 	N 	0.67805 0.33349 0.99585 -0.14100
C 	C 	0.72650 0.48809 0.98759 -0.00800
C 	C 	0.67233 0.43900 0.94702 -0.01200
C 	C 	0.65470 0.38895 0.95112 -0.06400
C 	C 	0.69206 0.38678 0.99476 0.07700
C 	C 	0.74477 0.43663 0.03661 -0.05100
C 	C 	0.76164 0.48728 0.03350 -0.00200
C 	C 	0.51976 0.23482 0.96739 -0.00200
C 	C 	0.56605 0.28115 0.01824 -0.00700
C 	C 	0.61769 0.31377 0.02701 -0.04900
C 	C 	0.62362 0.30049 0.98510 0.07600
C 	C 	0.57677 0.25440 0.93374 -0.06000
C 	C 	0.52518 0.22165 0.92512 -0.01300
C 	C 	0.78795 0.63030 0.96048 0.02600
C 	C 	0.82061 0.60828 0.97877 0.00100
C 	C 	0.80069 0.56217 0.98781 -0.04400
C 	C 	0.74831 0.53831 0.97978 0.03700
C 	C 	0.71590 0.56090 0.96209 -0.02800
C 	C 	0.73511 0.60586 0.95131 0.00400
C 	C 	0.78597 0.14695 0.86744 0.03200
C 	C 	0.82265 0.19189 0.92045 -0.00400
C 	C 	0.80579 0.22482 0.93951 -0.02800
C 	C 	0.75117 0.21167 0.90648 0.02700
C 	C 	0.71492 0.16763 0.85301 -0.03000
C 	C 	0.73252 0.13590 0.83343 -0.01000
C 	C 	0.36377 0.13724 0.94482 0.03900
C 	C 	0.39880 0.11690 0.95246 -0.00200
C 	C 	0.44935 0.14829 0.95883 -0.02100
C 	C 	0.46549 0.20057 0.95835 0.02900
C 	C 	0.43069 0.22112 0.95121 -0.01700
C 	C 	0.38012 0.18968 0.94468 -0.00400
H 	H 	0.75767 0.22919 0.99817 0.04900
H 	H 	0.72745 0.28305 0.03685 0.07800
H 	H 	0.66340 0.30955 0.89957 0.06100
H 	H 	0.69865 0.26105 0.86377 0.05400
H 	H 	0.64468 0.43899 0.91145 0.05300
H 	H 	0.61336 0.35111 0.91901 0.06300
H 	H 	0.77316 0.43569 0.07100 0.06900
H 	H 	0.80277 0.52540 0.06593 0.06100
H 	H 	0.56206 0.29170 0.05102 0.06000
H 	H 	0.65341 0.34920 0.06655 0.06900
H 	H 	0.58007 0.24442 0.90053 0.06300
H 	H 	0.48938 0.18625 0.88556 0.07200
H 	H 	0.86113 0.62644 0.98523 0.07000
H 	H 	0.82559 0.54444 0.00033 0.07200
H 	H 	0.67561 0.54318 0.95606 0.06700
H 	H 	0.70892 0.62155 0.93572 0.09000
H 	H 	0.86346 0.19991 0.94746 0.08200
H 	H 	0.83456 0.25944 0.98047 0.06000
H 	H 	0.67263 0.15694 0.82711 0.05900
H 	H 	0.70380 0.10116 0.79252 0.06900
H 	H 	0.38677 0.07678 0.95328 0.09700
H 	H 	0.47621 0.13234 0.96468 0.06600
H 	H 	0.44306 0.26162 0.95111 0.07200
H 	H 	0.35365 0.20605 0.93960 0.11300
C 	C 	0.78735 0.28754 0.48446 0.00900
C 	C 	0.80971 0.31624 0.53902 -0.01300
C 	C 	0.79041 0.34782 0.55543 -0.05800
C 	C 	0.74969 0.35233 0.51787 0.08700
C 	C 	0.72761 0.32396 0.46319 -0.06400
C 	C 	0.74554 0.29086 0.44656 -0.01600
N 	N 	0.73468 0.38990 0.53645 -0.14100
C 	C 	0.76689 0.51121 0.48174 0.00500
C 	C 	0.71169 0.46441 0.45424 -0.01300
C 	C 	0.69982 0.42611 0.47380 -0.06300
C 	C 	0.74348 0.43401 0.52088 0.08900
C 	C 	0.79792 0.48280 0.54989 -0.05900
C 	C 	0.80964 0.52116 0.53039 -0.01500
C 	C 	0.58851 0.31113 0.53339 0.01000
C 	C 	0.63916 0.35977 0.58009 -0.01300
C 	C 	0.68668 0.38588 0.58039 -0.05700
C 	C 	0.68442 0.36324 0.53443 0.08900
C 	C 	0.63373 0.31398 0.48779 -0.06200
C 	C 	0.58599 0.28864 0.48718 -0.01200
C 	C 	0.81268 0.61773 0.41523 0.03400
C 	C 	0.79690 0.56094 0.39195 -0.00300
C 	C 	0.78059 0.52571 0.41290 -0.02500
C 	C 	0.78071 0.54730 0.45774 0.02800
C 	C 	0.79669 0.60415 0.48114 -0.02200
C 	C 	0.81280 0.63931 0.46006 -0.00200
C 	C 	0.85288 0.19633 0.43836 0.04200
C 	C 	0.84582 0.23313 0.41812 -0.00400
C 	C 	0.82487 0.26327 0.43345 -0.01900
C 	C 	0.80836 0.25476 0.46718 0.02600
C 	C 	0.81274 0.21555 0.48506 -0.01300
C 	C 	0.83538 0.18690 0.47111 -0.01000
C 	C 	0.43444 0.23066 0.51847 0.03700
C 	C 	0.45522 0.19833 0.50657 -0.00600
C 	C 	0.50682 0.22499 0.51381 -0.02100
C 	C 	0.53777 0.28418 0.53247 0.02900
C 	C 	0.51828 0.31690 0.54705 -0.01400
C 	C 	0.46727 0.29032 0.54097 -0.00200
H 	H 	0.84252 0.31466 0.56878 0.06900
H 	H 	0.80818 0.37015 0.59762 0.07200
H 	H 	0.69720 0.32811 0.43376 0.05900
H 	H 	0.72742 0.26834 0.40429 0.05200
H 	H 	0.67829 0.45685 0.41693 0.06700
H 	H 	0.65744 0.38913 0.45108 0.06600
H 	H 	0.83163 0.48956 0.58640 0.07000
H 	H 	0.85232 0.55756 0.55213 0.05500
H 	H 	0.64175 0.37725 0.61615 0.05900
H 	H 	0.72556 0.42346 0.61655 0.07500
H 	H 	0.63075 0.29620 0.45171 0.06200
H 	H 	0.54689 0.25168 0.45064 0.06900
H 	H 	0.79739 0.54422 0.35774 0.07800
H 	H 	0.76870 0.48195 0.39486 0.06100
H 	H 	0.79715 0.62120 0.51591 0.06700
H 	H 	0.82567 0.68338 0.47868 0.09400
H 	H 	0.85754 0.23919 0.39138 0.09200
H 	H 	0.82184 0.29347 0.41945 0.06300
H 	H 	0.79891 0.20754 0.51000 0.07600
H 	H 	0.83957 0.15752 0.48591 0.11000
H 	H 	0.43071 0.15238 0.49039 0.07900
H 	H 	0.52213 0.19952 0.50372 0.06300
H 	H 	0.54193 0.36263 0.56184 0.07700
H 	H 	0.45238 0.31581 0.55205 0.11700
C 	C 	0.33855 0.82801 0.02870 0.01500
C 	C 	0.38533 0.84751 0.07975 -0.01600
C 	C 	0.41682 0.82321 0.08551 -0.06100
C 	C 	0.40153 0.77878 0.04055 0.09700
C 	C 	0.35477 0.75949 0.98933 -0.07100
C 	C 	0.32412 0.78461 0.98346 -0.01900
N 	N 	0.43190 0.75124 0.04801 -0.14400
C 	C 	0.33090 0.57127 0.98513 -0.00700
C 	C 	0.33969 0.59325 0.95238 -0.00400
C 	C 	0.37370 0.65224 0.97303 -0.07800
C 	C 	0.39755 0.69011 0.02617 0.10200
C 	C 	0.38864 0.66814 0.05872 -0.06700
C 	C 	0.35613 0.60908 0.03863 0.00200
C 	C 	0.56211 0.80178 0.02551 0.01200
C 	C 	0.56880 0.79095 0.06827 -0.00900
C 	C 	0.52636 0.77577 0.07610 -0.05900
C 	C 	0.47672 0.77108 0.04126 0.09800
C 	C 	0.47062 0.78324 0.99898 -0.07300
C 	C 	0.51316 0.79849 0.99129 -0.02200
C 	C 	0.23053 0.39032 0.92533 0.03500
C 	C 	0.22216 0.42702 0.95371 -0.00000
C 	C 	0.25355 0.48569 0.97162 -0.02300
C 	C 	0.29549 0.50867 0.96353 0.03300
C 	C 	0.30439 0.47195 0.93578 -0.02500
C 	C 	0.27167 0.41303 0.91632 -0.00600
C 	C 	0.24487 0.81403 0.99424 -0.02300
C 	C 	0.30327 0.85132 0.02263 0.03300
C 	C 	0.68457 0.83632 0.99187 0.02500
C 	C 	0.60529 0.81423 0.01521 0.04300
C 	C 	0.61563 0.77228 0.99999 -0.03800
C 	C 	0.65490 0.78319 0.98809 0.00500
H 	H 	0.45247 0.83805 0.12509 0.07000
H 	H 	0.34232 0.72537 0.95415 0.06400
H 	H 	0.28866 0.76986 0.94377 0.06900
H 	H 	0.32011 0.56464 0.91093 0.06000
H 	H 	0.38079 0.66847 0.94758 0.06400
H 	H 	0.40743 0.69695 0.09983 0.07200
H 	H 	0.35066 0.59271 0.06467 0.05500
H 	H 	0.60663 0.79370 0.09509 0.07400
H 	H 	0.53154 0.76667 0.10877 0.07700
H 	H 	0.43264 0.77938 0.97127 0.06300
H 	H 	0.50760 0.80663 0.95805 0.05300
H 	H 	0.19174 0.41014 0.96233 0.09400
H 	H 	0.24576 0.51338 0.99239 0.06800
H 	H 	0.33711 0.48912 0.92991 0.06300
H 	H 	0.27894 0.38511 0.89508 0.07800
H 	H 	0.16545 0.80579 0.95940 0.08400
H 	H 	0.22593 0.76850 0.97987 0.06700
H 	H 	0.59266 0.73101 0.99667 0.06800
H 	H 	0.66211 0.75032 0.97569 0.09100
C 	C 	0.37153 0.84989 0.53938 0.00600
C 	C 	0.40158 0.85174 0.58867 -0.01400
C 	C 	0.43741 0.83248 0.59755 -0.06000
C 	C 	0.44351 0.81122 0.55729 0.08700
C 	C 	0.41435 0.81075 0.50828 -0.06500
C 	C 	0.37841 0.82981 0.49941 -0.01700
N 	N 	0.47839 0.78869 0.56624 -0.13900
C 	C 	0.39372 0.61437 0.52969 0.00700
C 	C 	0.36773 0.63110 0.49339 -0.01400
C 	C 	0.39594 0.68776 0.50401 -0.06400
C 	C 	0.45040 0.72871 0.55171 0.08900
C 	C 	0.47689 0.71140 0.58700 -0.05800
C 	C 	0.44880 0.65456 0.57608 -0.00900
C 	C 	0.59451 0.84975 0.52737 0.00400
C 	C 	0.54407 0.79555 0.49118 -0.01400
C 	C 	0.50552 0.77526 0.50341 -0.06400
C 	C 	0.51739 0.80883 0.55246 0.08900
C 	C 	0.56768 0.86306 0.58837 -0.05700
C 	C 	0.60596 0.88353 0.57587 -0.01200
C 	C 	0.29824 0.44334 0.50009 0.03300
C 	C 	0.32186 0.49016 0.54822 0.00000
C 	C 	0.35386 0.54593 0.55830 -0.02300
C 	C 	0.36238 0.55538 0.52022 0.03100
C 	C 	0.33898 0.50846 0.47217 -0.02200
C 	C 	0.30655 0.45269 0.46193 0.00200
C 	C 	0.27367 0.82630 0.49376 -0.01900
C 	C 	0.33173 0.86757 0.52900 0.02500
C 	C 	0.71230 0.90147 0.48793 0.03000
C 	C 	0.63598 0.87045 0.51508 0.02900
C 	C 	0.62010 0.87321 0.46717 -0.02800
C 	C 	0.65794 0.88815 0.45345 -0.00200
H 	H 	0.45989 0.83328 0.63544 0.07400
H 	H 	0.41851 0.79443 0.47676 0.05900
H 	H 	0.35550 0.82848 0.46130 0.05500
H 	H 	0.32538 0.60035 0.45727 0.05600
H 	H 	0.37565 0.69958 0.47511 0.06100
H 	H 	0.51891 0.74237 0.62347 0.08800
H 	H 	0.46955 0.64193 0.60402 0.07400
H 	H 	0.53485 0.76906 0.45369 0.05400
H 	H 	0.46632 0.73398 0.47454 0.06200
H 	H 	0.57702 0.88931 0.62601 0.07700
H 	H 	0.64458 0.92557 0.60394 0.06300
H 	H 	0.31499 0.48330 0.57756 0.08200
H 	H 	0.37124 0.58178 0.59526 0.06900
H 	H 	0.34540 0.51523 0.44257 0.06900
H 	H 	0.28772 0.41677 0.42431 0.09300
H 	H 	0.19115 0.81109 0.45200 0.09900
H 	H 	0.25791 0.78124 0.47584 0.07000
H 	H 	0.57812 0.86266 0.44010 0.06100
H 	H 	0.64466 0.88818 0.41551 0.08100
Zn	Zn	0.10445 0.10366 0.95754 1.20700
Zn	Zn	0.01330 0.04249 0.83812 1.21800
O 	O 	0.99155 0.00511 0.76257 -0.45000
C 	C 	0.16280 0.06370 0.93107 0.32500
C 	C 	0.11025 0.16654 0.89695 0.33200
O 	O 	0.16978 0.10168 0.97031 -0.33600
O 	O 	0.11242 0.02779 0.88576 -0.32700
O 	O 	0.02834 0.06376 0.91205 -0.72800
O 	O 	0.06753 0.11881 0.85126 -0.38600
O 	O 	0.12291 0.17005 0.94373 -0.38300
C 	C 	0.88262 0.81229 0.91829 0.32600
O 	O 	0.90610 0.00478 0.86669 -0.41300
Zn	Zn	0.95020 0.01969 0.97856 1.19600
O 	O 	0.93420 0.85686 0.95759 -0.37600
O 	O 	0.85376 0.80990 0.87167 -0.34200
C 	C 	0.88278 0.02249 0.88675 0.31600
O 	O 	0.99121 0.04619 0.05509 -0.45200
O 	O 	0.89375 0.02757 0.93336 -0.44200
O 	O 	0.00031 0.00868 0.96926 -0.85000
H 	H 	0.04055 0.03672 0.99929 0.21400
Zn	Zn	0.14396 0.13906 0.50354 1.20200
Zn	Zn	0.06123 0.09282 0.38201 1.21200
O 	O 	0.03803 0.07538 0.30627 -0.37300
C 	C 	0.21702 0.13043 0.47964 0.31600
C 	C 	0.15355 0.21778 0.45901 0.33700
O 	O 	0.21530 0.15043 0.52031 -0.38200
O 	O 	0.17049 0.09998 0.43075 -0.27900
O 	O 	0.06909 0.09521 0.45063 -0.74200
O 	O 	0.12362 0.17301 0.41118 -0.38800
O 	O 	0.15894 0.21153 0.50071 -0.39800
C 	C 	0.90521 0.80929 0.39020 0.35100
O 	O 	0.94591 0.03023 0.40285 -0.39700
Zn	Zn	0.99377 0.03046 0.50741 1.19300
O 	O 	0.95261 0.84987 0.43775 -0.37300
O 	O 	0.87772 0.82158 0.35410 -0.39200
C 	C 	0.94019 0.06190 0.43491 0.31100
O 	O 	0.02140 0.02654 0.57396 -0.40200
O 	O 	0.95575 0.06486 0.48184 -0.46100
O 	O 	0.03669 0.01500 0.48836 -0.85900
H 	H 	0.07705 0.03646 0.51819 0.18800
C 	C 	0.98504 0.92416 0.61446 0.14500
C 	C 	0.98069 0.92278 0.65649 -0.06400
H 	H 	0.94700 0.88459 0.64912 0.07500
Cl	Cl	0.93519 0.86348 0.55024 -0.24600
C 	C 	0.98256 0.03476 0.14338 0.17900
C 	C 	0.99330 0.04117 0.19296 -0.07200
H 	H 	0.96605 0.04604 0.20300 0.12100
Cl	Cl	0.92597 0.03706 0.09961 -0.25600
C 	C 	0.24606 0.29569 0.48893 0.08600
C 	C 	0.18959 0.27478 0.46795 -0.01700
C 	C 	0.16830 0.30859 0.45639 -0.05800
C 	C 	0.20442 0.36322 0.46614 0.00500
C 	C 	0.26120 0.38461 0.48797 0.09000
C 	C 	0.28248 0.35067 0.49954 -0.13100
C 	C 	0.34365 0.37270 0.52253 0.79400
H 	H 	0.26155 0.26901 0.49718 0.07100
H 	H 	0.18870 0.38956 0.45723 0.10000
C 	C 	0.10715 0.28636 0.43360 0.77100
F 	F 	0.35676 0.33439 0.53338 -0.42800
F 	F 	0.37838 0.42367 0.56997 -0.43600
F 	F 	0.35444 0.38160 0.48619 -0.41600
F 	F 	0.09522 0.27253 0.46784 -0.40500
F 	F 	0.07274 0.23806 0.38400 -0.42400
F 	F 	0.09496 0.32649 0.42718 -0.40300
C 	C 	0.74534 0.85927 0.44213 0.00400
C 	C 	0.77946 0.81072 0.40031 0.77000
H 	H 	0.71402 0.81785 0.43271 0.09700
F 	F 	0.74136 0.76291 0.39682 -0.40600
F 	F 	0.76292 0.80012 0.34885 -0.42600
F 	F 	0.18281 0.86112 0.54016 -0.40900
C 	C 	0.11178 0.23829 0.86606 0.08200
C 	C 	0.14135 0.21843 0.89531 -0.00300
C 	C 	0.20081 0.25094 0.92621 -0.06700
C 	C 	0.22947 0.30738 0.93578 0.01100
C 	C 	0.19981 0.32879 0.90934 0.08400
C 	C 	0.14080 0.29207 0.87033 -0.12600
C 	C 	0.10835 0.31055 0.83471 0.79100
H 	H 	0.06621 0.21250 0.84104 0.09900
H 	H 	0.27481 0.33501 0.96437 0.08900
C 	C 	0.23380 0.22604 0.94941 0.77500
F 	F 	0.05765 0.26354 0.78854 -0.39700
F 	F 	0.13854 0.34150 0.81919 -0.42200
F 	F 	0.09751 0.34384 0.86213 -0.41900
F 	F 	0.20686 0.16961 0.91286 -0.44000
F 	F 	0.23904 0.22918 0.99598 -0.42900
F 	F 	0.28708 0.25567 0.96138 -0.43400
C 	C 	0.73628 0.83417 0.90430 -0.06000
H 	H 	0.65581 0.80220 0.89178 0.09100
F 	F 	0.65861 0.74771 0.82212 -0.42600
F 	F 	0.74464 0.77774 0.84355 -0.43700
F 	F 	0.77929 0.84632 0.07821 -0.41200
F 	F 	0.21319 0.87520 0.89864 -0.43300
C 	C 	0.95723 0.15732 0.45327 0.01400
C 	C 	0.92037 0.09792 0.42019 0.00300
C 	C 	0.86271 0.07414 0.38186 -0.08400
C 	C 	0.84152 0.10858 0.38550 0.02400
C 	C 	0.87747 0.16643 0.42450 0.07300
C 	C 	0.93633 0.19217 0.45601 -0.09600
C 	C 	0.97655 0.25604 0.49462 0.75100
H 	H 	0.00184 0.17560 0.48008 0.12500
H 	H 	0.79662 0.08967 0.36034 0.09200
F 	F 	0.03213 0.27323 0.51899 -0.36500
F 	F 	0.96861 0.27008 0.53435 -0.43100
F 	F 	0.96700 0.28597 0.46722 -0.42600
C 	C 	0.82044 0.71595 0.35447 0.09300
C 	C 	0.87869 0.74954 0.38009 -0.00100
C 	C 	0.91172 0.72901 0.40371 -0.06100
C 	C 	0.88890 0.68409 0.41352 0.01000
C 	C 	0.83233 0.65575 0.39476 0.08700
C 	C 	0.79660 0.66842 0.36104 -0.12000
C 	C 	0.73388 0.63376 0.33496 0.79500
H 	H 	0.79435 0.72896 0.33237 0.12600
H 	H 	0.91551 0.67227 0.43711 0.09000
C 	C 	0.97128 0.75517 0.41949 0.74400
F 	F 	0.70531 0.64514 0.29554 -0.40400
F 	F 	0.72409 0.64689 0.37339 -0.40900
F 	F 	0.71239 0.57591 0.31120 -0.43800
F 	F 	0.00865 0.79842 0.47223 -0.37100
F 	F 	0.97794 0.77709 0.38666 -0.44500
F 	F 	0.98403 0.71423 0.41480 -0.42600
C 	C 	0.28063 0.17458 0.45538 0.08700
C 	C 	0.27150 0.15170 0.48742 0.00600
C 	C 	0.31461 0.15011 0.52668 -0.06600
C 	C 	0.36830 0.17831 0.53763 0.01400
C 	C 	0.37754 0.20173 0.50592 0.08900
C 	C 	0.33231 0.19665 0.46215 -0.11100
C 	C 	0.33939 0.21651 0.42379 0.79000
H 	H 	0.24746 0.17567 0.42544 0.09200
H 	H 	0.40299 0.18184 0.57067 0.08900
C 	C 	0.30429 0.11996 0.55794 0.77900
F 	F 	0.28782 0.19443 0.37714 -0.40400
F 	F 	0.36809 0.19855 0.40932 -0.42400
F 	F 	0.36880 0.27551 0.44807 -0.40200
F 	F 	0.34447 0.10797 0.58076 -0.43300
F 	F 	0.25234 0.06863 0.52461 -0.43600
F 	F 	0.30646 0.15458 0.59850 -0.42500
C 	C 	0.76986 0.05069 0.84278 0.00400
C 	C 	0.79992 0.10595 0.85059 0.08700
C 	C 	0.84874 0.12419 0.85150 -0.14500
C 	C 	0.87388 0.09305 0.85827 0.07900
C 	C 	0.84782 0.04175 0.85881 -0.02800
C 	C 	0.79222 0.01703 0.84388 -0.06700
H 	H 	0.73075 0.03528 0.83904 0.08700
H 	H 	0.91525 0.11053 0.86660 0.05000
C 	C 	0.87579 0.17800 0.84823 0.79300
F 	F 	0.91382 0.22465 0.89919 -0.45000
F 	F 	0.83569 0.18642 0.81670 -0.43400
F 	F 	0.90400 0.17401 0.82560 -0.43200
C 	C 	0.85377 0.77721 0.97135 0.08400
C 	C 	0.85669 0.76489 0.92739 -0.00000
C 	C 	0.83528 0.70790 0.89324 -0.05600
C 	C 	0.80835 0.66398 0.90229 0.00500
C 	C 	0.80790 0.67664 0.94775 0.09200
C 	C 	0.83136 0.73397 0.98315 -0.14200
C 	C 	0.83049 0.74891 0.03216 0.80000
H 	H 	0.86943 0.82084 0.99660 0.07200
H 	H 	0.78918 0.61982 0.87492 0.09200
C 	C 	0.84010 0.69346 0.84670 0.77300
F 	F 	0.86327 0.80743 0.06570 -0.41200
F 	F 	0.85120 0.72470 0.06169 -0.43300
F 	F 	0.77599 0.72886 0.01596 -0.42900
F 	F 	0.89360 0.73185 0.86275 -0.43000
F 	F 	0.80127 0.69534 0.80532 -0.41700
F 	F 	0.82989 0.63926 0.82742 -0.43500
C 	C 	0.20942 0.05496 0.88641 0.10800
C 	C 	0.21211 0.06833 0.93365 0.01400
C 	C 	0.26357 0.09132 0.98313 -0.05600
C 	C 	0.31317 0.11238 0.98593 0.02400
C 	C 	0.31111 0.10499 0.93942 0.10200
C 	C 	0.25850 0.07177 0.88870 -0.10300
C 	C 	0.25482 0.05768 0.83726 0.79700
H 	H 	0.16942 0.03389 0.84810 0.10700
H 	H 	0.35357 0.13591 0.02452 0.10400
C 	C 	0.26666 0.09504 0.03325 0.78500
F 	F 	0.20076 0.01416 0.79295 -0.39600
F 	F 	0.29012 0.03989 0.83921 -0.40900
F 	F 	0.27018 0.10565 0.83058 -0.41900
F 	F 	0.27568 0.14662 0.06107 -0.40100
F 	F 	0.31054 0.09180 0.06635 -0.42100
C 	C 	0.23445 0.89384 0.00056 0.05400
C 	C 	0.21063 0.83516 0.98295 -0.01600
C 	C 	0.63499 0.86738 0.01899 -0.03000
C 	C 	0.25583 0.90144 0.50256 0.04200
C 	C 	0.23587 0.84318 0.48047 -0.00500
H 	H 	0.39662 0.86738 0.61980 0.06500
Zn	Zn	0.98202 0.98829 0.89871 1.20600
C 	C 	0.00771 0.97227 0.74842 0.36900
Zn	Zn	0.02128 0.01449 0.42225 1.23100
C 	C 	0.02312 0.98270 0.57769 0.32100
C 	C 	0.70094 0.82608 0.92122 0.01700
C 	C 	0.72319 0.84636 0.97578 0.07200
C 	C 	0.71103 0.79608 0.84633 0.77400
F 	F 	0.70471 0.82544 0.81768 -0.38800
C 	C 	0.82293 0.01148 0.33988 0.79700
F 	F 	0.84717 0.99482 0.31755 -0.46800
F 	F 	0.21780 0.05070 0.02074 -0.43000
H 	H 	0.39672 0.88077 0.11500 0.05500
C 	C 	0.69080 0.88501 0.55012 -0.02800
C 	C 	0.00265 0.01384 0.07497 0.38500
C 	C 	0.04446 0.04035 0.27833 0.32400
C 	C 	0.01613 0.02556 0.12882 -0.04400
C 	C 	0.03782 0.03957 0.22891 -0.01600
C 	C 	0.78254 0.86382 0.42796 -0.06200
C 	C 	0.67430 0.87828 0.00711 0.01200
F 	F 	0.83155 0.81871 0.42888 -0.44500
Zn	Zn	0.86442 0.87829 0.86104 1.19700
Zn	Zn	0.89947 0.90020 0.36314 1.19700
C 	C 	0.19961 0.91727 0.55364 0.79500
C 	C 	0.32738 0.91047 0.04262 -0.01500
H 	H 	0.62727 0.90001 0.03070 0.06900
C 	C 	0.35170 0.92579 0.55216 -0.02000
C 	C 	0.72874 0.90043 0.53658 -0.00300
H 	H 	0.70349 0.88292 0.58713 0.06400
C 	C 	0.74890 0.90798 0.46959 0.08800
C 	C 	0.21657 0.91930 0.48199 0.09600
H 	H 	0.22778 0.92228 0.42009 0.09500
F 	F 	0.10934 0.90557 0.32128 -0.41900
C 	C 	0.78180 0.87538 0.01431 -0.09000
C 	C 	0.79534 0.87326 0.94342 0.00200
H 	H 	0.18415 0.91443 0.04499 0.09900
F 	F 	0.03828 0.88199 0.97564 -0.45700
C 	C 	0.19749 0.91497 0.98389 0.07800
H 	H 	0.69649 0.91912 0.00939 0.08200
C 	C 	0.31388 0.94268 0.53873 -0.00700
H 	H 	0.39648 0.95792 0.57945 0.06300
O 	O 	0.01714 0.89241 0.86024 -0.42200
C 	C 	0.83411 0.90118 0.92950 0.32300
O 	O 	0.81572 0.88624 0.87944 -0.35100
O 	O 	0.05411 0.92931 0.36142 -0.38800
O 	O 	0.84698 0.90545 0.37741 -0.36100
C 	C 	0.82265 0.91825 0.43990 0.00100
F 	F 	0.74059 0.00864 0.48056 -0.43800
C 	C 	0.20629 0.92813 0.43772 0.01800
C 	C 	0.18817 0.92566 0.50500 -0.11300
C 	C 	0.81749 0.88983 0.99783 0.04600
C 	C 	0.80645 0.89288 0.07311 0.78800
C 	C 	0.17082 0.91876 0.00902 0.04300
C 	C 	0.12519 0.92473 0.98630 -0.06300
C 	C 	0.09463 0.92534 0.01225 0.78100
F 	F 	0.11584 0.91724 0.05652 -0.41500
C 	C 	0.21437 0.92498 0.91347 0.78700
C 	C 	0.18194 0.92244 0.93787 -0.12000
F 	F 	0.17095 0.92949 0.57247 -0.40200
C 	C 	0.29308 0.93172 0.03238 -0.00500
C 	C 	0.14804 0.93861 0.48150 0.10300
C 	C 	0.16815 0.94361 0.41567 -0.05000
H 	H 	0.37243 0.93976 0.06502 0.06500
H 	H 	0.77040 0.90998 0.56314 0.07200
Zn	Zn	0.97069 0.93479 0.96622 1.19600
O 	O 	0.88872 0.93317 0.96677 -0.47400
O 	O 	0.93772 0.91282 0.88665 -0.77600
Zn	Zn	0.98680 0.91826 0.81216 1.18100
C 	C 	0.05746 0.93060 0.91075 0.33200
Zn	Zn	0.99704 0.93362 0.46561 1.18700
C 	C 	0.86378 0.92528 0.42749 0.33000
O 	O 	0.97396 0.93370 0.39394 -0.79800
Zn	Zn	0.02494 0.96639 0.32703 1.20900
C 	C 	0.09412 0.95940 0.41305 0.31100
C 	C 	0.78864 0.96237 0.48121 -0.14000
C 	C 	0.13724 0.94684 0.43676 0.00000
C 	C 	0.15860 0.95340 0.36791 0.76600
H 	H 	0.12452 0.94163 0.49751 0.07000
H 	H 	0.86256 0.91440 0.02734 0.10400
F 	F 	0.86313 0.91360 0.10282 -0.42300
C 	C 	0.10740 0.92850 0.93836 -0.00400
C 	C 	0.82549 0.96690 0.46644 0.07200
F 	F 	0.25642 0.95304 0.59478 -0.41600
F 	F 	0.19189 0.93129 0.86824 -0.42400
F 	F 	0.20229 0.96323 0.36323 -0.41500
O 	O 	0.01743 0.94214 0.77238 -0.42600
O 	O 	0.05479 0.00461 0.29295 -0.37200
O 	O 	0.91422 0.94052 0.46502 -0.45500
O 	O 	0.02361 0.94750 0.54262 -0.33600
C 	C 	0.79207 0.01545 0.50967 0.80100
F 	F 	0.80004 0.93525 0.09445 -0.43700
C 	C 	0.13642 0.92839 0.91521 0.08300
H 	H 	0.12301 0.93249 0.87912 0.06900
F 	F 	0.80970 0.97888 0.36330 -0.45700
F 	F 	0.70102 0.93334 0.79840 -0.43000
F 	F 	0.76999 0.92222 0.80734 -0.45300
F 	F 	0.10012 0.97737 0.02889 -0.46800
H 	H 	0.32967 0.98779 0.55543 0.10600
F 	F 	0.15519 0.00048 0.37331 -0.43600
O 	O 	0.00152 0.97045 0.04703 -0.35500
H 	H 	0.92379 0.95051 0.80007 0.17700
H 	H 	0.10071 0.06002 0.68262 0.11100
Cl	Cl	0.11304 0.08035 0.78162 -0.22800
H 	H 	0.08883 0.02062 0.15529 0.12600
Cl	Cl	0.13522 0.04117 0.26331 -0.17000
H 	H 	0.85666 0.00831 0.47572 0.09200
C 	C 	0.75799 0.95634 0.83226 0.77500
F 	F 	0.77015 0.95591 0.87979 -0.43500
C 	C 	0.06272 0.02026 0.71712 0.21200
H 	H 	0.31192 0.97734 0.04775 0.11000
O 	O 	0.96405 0.96756 0.82751 -0.89100
O 	O 	0.06005 0.97774 0.93162 -0.39000
O 	O 	0.00539 0.01289 0.35550 -0.82100
O 	O 	0.09821 0.00347 0.44317 -0.39300
H 	H 	0.96621 0.00077 0.32995 0.17200
C 	C 	0.06734 0.02156 0.67527 -0.02300
C 	C 	0.07361 0.03411 0.21588 0.18400
C 	C 	0.06188 0.02594 0.16555 -0.01800
F 	F 	0.26953 0.97111 0.95054 -0.44600
F 	F 	0.77359 0.00097 0.29857 -0.42800
C 	C 	0.01787 0.97147 0.70719 -0.06200
C 	C 	0.02723 0.97467 0.62330 -0.02700
F 	F 	0.80647 0.02412 0.56026 -0.43500
F 	F 	0.83186 0.06391 0.51539 -0.43800
