data_crystal

_cell_length_a 33.20240
_cell_length_b 32.19563
_cell_length_c 23.20722
_cell_angle_alpha 91.34027
_cell_angle_beta  90.00014
_cell_angle_gamma 130.20326

_symmetry_space_group_name_	'P 1'
_symmetry_space_group_name_H-M	'P 1'

loop_
_symmetry_equiv_pos_as_xyz
  x,y,z

loop_
_atom_site_label
_atom_site_type_symbol
_atom_site_fract_x
_atom_site_fract_y
_atom_site_fract_z
_atom_site_charge
C 	C 	0.03444 0.62381 0.02170 -0.00200
C 	C 	0.08267 0.65005 0.99358 -0.00200
C 	C 	0.12333 0.66979 0.96949 -0.03300
C 	C 	0.17100 0.68976 0.94091 0.04800
C 	C 	0.20982 0.69352 0.97111 -0.07800
C 	C 	0.21310 0.69953 0.85088 0.02700
C 	C 	0.17409 0.69522 0.88095 -0.07600
H 	H 	0.20811 0.69008 0.01756 0.05000
H 	H 	0.21356 0.70079 0.80425 0.03000
H 	H 	0.14454 0.69295 0.85733 0.05200
C 	C 	0.23437 0.59312 0.60927 -0.10100
C 	C 	0.23433 0.60478 0.55137 0.02600
C 	C 	0.18662 0.57663 0.52050 -0.07600
C 	C 	0.13880 0.53632 0.54717 0.04800
C 	C 	0.13918 0.52151 0.60334 -0.07600
C 	C 	0.18680 0.54988 0.63435 0.02700
C 	C 	0.08955 0.51504 0.51976 -0.03200
C 	C 	0.04837 0.49726 0.49680 -0.00100
H 	H 	0.18671 0.58791 0.47685 0.05000
H 	H 	0.10244 0.48982 0.62398 0.05000
H 	H 	0.18643 0.54013 0.67883 0.02100
C 	C 	-0.00000 0.47739 0.47117 -0.00100
C 	C 	0.24848 0.69734 0.94108 0.02900
C 	C 	0.24876 0.69788 0.88069 -0.10300
O 	O 	0.27519 0.64530 0.85981 -0.47000
H 	H 	0.27082 0.63799 0.53150 0.02400
O 	O 	0.27675 0.65396 0.69177 -0.44300
H 	H 	0.27664 0.69723 0.96452 0.02300
C 	C 	0.28052 0.68856 0.84900 0.32700
C 	C 	0.28107 0.63247 0.64624 0.31500
O 	O 	0.31632 0.72517 0.81310 -0.43600
H 	H 	0.31364 0.83884 0.49167 0.04900
H 	H 	0.31594 0.77224 0.53804 0.03100
H 	H 	0.32437 0.61417 0.74559 0.17900
C 	C 	0.32308 0.84349 0.53731 -0.07500
C 	C 	0.32497 0.80609 0.56346 0.02100
Zn	Zn	0.33284 0.64195 0.85196 1.19500
O 	O 	0.32705 0.64711 0.63283 -0.42000
Zn	Zn	0.33687 0.70737 0.74312 1.22300
C 	C 	0.33608 0.88828 0.56927 0.04600
H 	H 	0.34791 0.55101 0.94520 0.01700
O 	O 	0.34389 0.64901 0.76788 -0.79300
O 	O 	0.34163 0.76905 0.70313 -0.39700
C 	C 	0.34006 0.81340 0.62182 -0.09600
C 	C 	0.34613 0.93290 0.53990 -0.03200
C 	C 	0.34774 0.89366 0.62836 -0.07400
H 	H 	0.35948 0.49119 0.99167 0.04900
C 	C 	0.34903 0.77848 0.64748 0.30500
C 	C 	0.34967 0.85633 0.65462 0.02000
C 	C 	0.35740 0.97144 0.51492 -0.00300
H 	H 	0.35763 0.92809 0.65340 0.05000
H 	H 	0.36077 0.86212 0.69984 0.03400
O 	O 	0.36272 0.75569 0.61398 -0.46400
C 	C 	0.37905 0.55106 0.93111 0.02100
O 	O 	0.38352 0.63682 0.88763 -0.46400
C 	C 	0.37409 0.01776 0.48530 -0.00200
C 	C 	0.38537 0.51689 0.95723 -0.07700
O 	O 	0.38870 0.72922 0.87129 -0.41600
C 	C 	0.39157 0.05837 0.45992 -0.03300
H 	H 	0.39433 0.06943 0.34515 0.05000
C 	C 	0.40541 0.62050 0.85888 0.30600
C 	C 	0.41251 0.58479 0.88657 -0.10100
H 	H 	0.41172 0.82216 0.89301 0.03900
Zn	Zn	0.40178 0.73109 0.63881 1.19200
O 	O 	0.40950 0.74316 0.72344 -0.80200
C 	C 	0.41257 0.10711 0.43009 0.04500
O 	O 	0.42157 0.63641 0.80599 -0.40500
C 	C 	0.41599 0.10741 0.36991 -0.07500
C 	C 	0.42506 0.51607 0.93913 0.04700
Zn	Zn	0.42119 0.69478 0.76444 1.22200
C 	C 	0.43263 0.48222 0.96738 -0.03300
H 	H 	0.42435 0.62413 0.55094 0.03200
C 	C 	0.43933 0.45403 0.99074 -0.00200
C 	C 	0.44010 0.76220 0.86428 0.30300
H 	H 	0.43374 0.78213 0.73552 0.17400
H 	H 	0.43593 0.15650 0.50789 0.04900
O 	O 	0.43336 0.69609 0.61871 -0.45500
C 	C 	0.43946 0.15639 0.46147 -0.07600
C 	C 	0.44854 0.42211 0.01800 -0.00300
C 	C 	0.45211 0.84195 0.90532 0.01600
C 	C 	0.45209 0.58359 0.86825 0.02400
C 	C 	0.45832 0.54935 0.89451 -0.07600
C 	C 	0.45122 0.15668 0.34206 0.01800
C 	C 	0.45808 0.39610 0.04100 -0.03300
O 	O 	0.46125 0.74819 0.82954 -0.43700
H 	H 	0.45625 0.15622 0.29600 0.03400
H 	H 	0.46568 0.91147 0.94389 0.05000
C 	C 	0.45590 0.68295 0.65190 0.31200
C 	C 	0.45760 0.63099 0.57139 0.02000
C 	C 	0.47354 0.81691 0.89240 -0.09500
O 	O 	0.46707 0.69848 0.70681 -0.44600
H 	H 	0.46308 0.58783 0.50406 0.04900
C 	C 	0.47206 0.36699 0.06774 0.04600
H 	H 	0.47829 0.60946 0.83410 0.03600
H 	H 	0.47556 0.33445 0.98727 0.05000
H 	H 	0.47221 0.39305 0.15446 0.05000
C 	C 	0.48272 0.89267 0.93406 -0.07200
C 	C 	0.47461 0.20571 0.43373 0.01900
C 	C 	0.48390 0.33998 0.03325 -0.07700
C 	C 	0.47848 0.66021 0.62429 -0.09700
C 	C 	0.48193 0.37286 0.12736 -0.07400
H 	H 	0.48919 0.54895 0.88041 0.05000
C 	C 	0.47943 0.61021 0.54488 -0.07500
C 	C 	0.48326 0.20589 0.37444 -0.10000
H 	H 	0.49739 0.24354 0.45888 0.03200
C 	C 	0.50996 0.32345 0.05730 0.02500
C 	C 	0.50778 0.35607 0.15154 0.01600
C 	C 	0.52627 0.84364 0.90797 0.01900
H 	H 	0.52136 0.30506 0.02974 0.03300
H 	H 	0.51805 0.36365 0.19710 0.02200
C 	C 	0.52112 0.66781 0.65057 0.02100
C 	C 	0.52437 0.33396 0.11604 -0.10000
C 	C 	0.53506 0.91901 0.95010 0.04400
C 	C 	0.52213 0.61824 0.57100 0.04600
H 	H 	0.54327 0.82475 0.89853 0.03500
O 	O 	0.53315 0.26079 0.29274 -0.39700
C 	C 	0.53097 0.25504 0.34885 0.30500
H 	H 	0.53781 0.69031 0.69126 0.03600
C 	C 	0.54280 0.64692 0.62395 -0.07500
C 	C 	0.55691 0.89455 0.93681 -0.07400
C 	C 	0.54463 0.59691 0.54344 -0.03200
O 	O 	0.55355 0.30204 0.18300 -0.42800
C 	C 	0.56619 0.97135 0.97985 -0.03200
C 	C 	0.56416 0.33132 0.13775 0.30100
C 	C 	0.56302 0.57881 0.51985 -0.00200
O 	O 	0.57284 0.29043 0.38174 -0.46500
H 	H 	0.57575 0.65319 0.64445 0.05000
C 	C 	0.59030 0.01502 0.00462 -0.00200
H 	H 	0.59744 0.91477 0.94895 0.04900
C 	C 	0.58372 0.55699 0.49154 -0.00200
Zn	Zn	0.60043 0.33015 0.25130 1.22300
O 	O 	0.60368 0.34726 0.10444 -0.45300
C 	C 	0.61655 0.06621 0.03282 -0.00200
O 	O 	0.60029 0.37907 0.30422 -0.43900
C 	C 	0.60039 0.53763 0.46667 -0.03100
H 	H 	0.60775 0.53255 0.35191 0.04900
C 	C 	0.63737 0.10997 0.05589 -0.03200
C 	C 	0.61875 0.51335 0.43593 0.04700
C 	C 	0.61789 0.51168 0.37554 -0.07500
H 	H 	0.63125 0.27676 0.26086 0.17700
H 	H 	0.62503 0.47837 0.29875 0.02200
C 	C 	0.62771 0.48099 0.34542 0.02300
H 	H 	0.65063 0.13623 0.16949 0.04800
C 	C 	0.63265 0.48686 0.46608 -0.07400
H 	H 	0.63384 0.48832 0.51280 0.05000
C 	C 	0.63677 0.41004 0.34465 0.30200
O 	O 	0.64507 0.31317 0.27500 -0.79200
Zn	Zn	0.64437 0.31977 0.36006 1.19400
C 	C 	0.63842 0.45164 0.37552 -0.09400
C 	C 	0.66038 0.16236 0.08189 0.04700
C 	C 	0.64269 0.45626 0.43597 0.02400
C 	C 	0.66195 0.16890 0.14205 -0.07600
O 	O 	0.65775 0.30906 0.13775 -0.41800
H 	H 	0.65106 0.43394 0.45973 0.02800
H 	H 	0.67456 0.20040 0.00036 0.05000
C 	C 	0.67534 0.20498 0.04686 -0.07500
C 	C 	0.67575 0.21678 0.16686 0.02300
H 	H 	0.67477 0.22062 0.21325 0.01600
O 	O 	0.66889 0.40127 0.36049 -0.41300
O 	O 	0.67358 0.39650 0.21722 -0.79000
Zn	Zn	0.67734 0.38765 0.13268 1.19400
C 	C 	0.68873 0.25257 0.07155 0.02600
C 	C 	0.68755 0.25806 0.13154 -0.09600
C 	C 	0.69100 0.30277 0.15609 0.30500
H 	H 	0.69818 0.28440 0.04394 0.02700
H 	H 	0.68732 0.43337 0.22922 0.17300
O 	O 	0.71731 0.35082 0.38490 -0.46000
Zn	Zn	0.71897 0.38198 0.24530 1.22200
O 	O 	0.72538 0.33460 0.19785 -0.43800
O 	O 	0.75103 0.42121 0.11442 -0.46500
C 	C 	0.76150 0.38866 0.35851 0.31700
O 	O 	0.76187 0.41588 0.31689 -0.43900
H 	H 	0.78236 0.37600 0.46733 0.02900
O 	O 	0.78639 0.45191 0.20530 -0.40400
C 	C 	0.79164 0.45610 0.14911 0.30700
C 	C 	0.81223 0.40699 0.38223 -0.10000
H 	H 	0.81412 0.50377 0.04574 0.01900
C 	C 	0.81621 0.39677 0.43965 0.02400
C 	C 	0.84415 0.49731 0.12476 -0.10000
C 	C 	0.84885 0.51692 0.06958 0.02200
H 	H 	0.85426 0.44196 0.30268 0.03200
C 	C 	0.85682 0.43432 0.34720 0.02200
C 	C 	0.86422 0.41398 0.46174 -0.07600
H 	H 	0.86696 0.40625 0.50617 0.04900
H 	H 	0.88676 0.50134 0.19838 0.03500
C 	C 	0.88974 0.51592 0.15568 0.02600
C 	C 	0.89835 0.55286 0.04462 -0.07600
H 	H 	0.90142 0.56654 0.00137 0.04900
C 	C 	0.90480 0.45153 0.36946 -0.07400
C 	C 	0.90861 0.44147 0.42678 0.04700
C 	C 	0.93919 0.55185 0.13059 -0.07600
C 	C 	0.94346 0.56947 0.07458 0.04800
H 	H 	0.93897 0.47280 0.34218 0.05000
C 	C 	0.95849 0.46088 0.45039 -0.03200
H 	H 	0.97397 0.56461 0.15401 0.05100
C 	C 	0.99284 0.59905 0.04551 -0.03200
