data_crystal

_cell_length_a 22.51715
_cell_length_b 24.84378
_cell_length_c 26.57961
_cell_angle_alpha 90.00054
_cell_angle_beta  90.02048
_cell_angle_gamma 92.64240

_symmetry_space_group_name_	'P 1'
_symmetry_space_group_name_H-M	'P 1'

loop_
_symmetry_equiv_pos_as_xyz
  x,y,z

loop_
_atom_site_label
_atom_site_type_symbol
_atom_site_fract_x
_atom_site_fract_y
_atom_site_fract_z
_atom_site_charge
C 	C 	0.91381 0.87888 0.98534 0.11800
N 	N 	0.95859 0.90935 0.00564 -0.18200
C 	C 	0.00896 0.88503 0.99394 0.13500
C 	C 	0.06692 0.89887 0.01832 -0.07200
C 	C 	0.08385 0.95602 0.02983 0.09800
C 	C 	0.10835 0.85589 0.02880 0.03600
C 	C 	0.09316 0.81590 0.06439 -0.03100
C 	C 	0.12751 0.77073 0.06897 -0.00600
C 	C 	0.17724 0.76528 0.03796 0.03800
C 	C 	0.15928 0.85129 0.99903 -0.00500
N 	N 	0.05384 0.99713 0.01107 -0.12300
C 	C 	0.13823 0.97430 0.04926 -0.05100
C 	C 	0.08839 0.04193 0.01945 0.08800
C 	C 	0.07748 0.09399 0.99451 -0.05900
C 	C 	0.12358 0.13820 0.99482 0.06200
C 	C 	0.20936 0.18423 0.95629 0.00500
C 	C 	0.12512 0.17633 0.03373 -0.04800
C 	C 	0.16906 0.21798 0.03423 -0.00300
C 	C 	0.21120 0.22225 0.99537 0.03600
N 	N 	0.96861 0.07608 0.98269 -0.16700
C 	C 	0.92763 0.09009 0.94881 0.11200
C 	C 	0.95324 0.12461 0.91303 -0.04900
C 	C 	0.01268 0.13144 0.92574 -0.05100
C 	C 	0.86300 0.08380 0.95858 -0.06800
C 	C 	0.82725 0.13201 0.96100 0.06700
C 	C 	0.77165 0.20036 0.91920 0.00900
C 	C 	0.75305 0.21934 0.96606 0.03600
C 	C 	0.77424 0.19632 0.01038 -0.00400
C 	C 	0.81133 0.15289 0.00785 -0.04500
N 	N 	0.87003 0.98904 0.98703 -0.12200
C 	C 	0.77362 0.96109 0.98271 -0.03900
C 	C 	0.83123 0.94639 0.99186 0.09600
C 	C 	0.85023 0.88999 0.99198 -0.05500
C 	C 	0.80632 0.84510 0.00160 0.03400
C 	C 	0.78406 0.81337 0.96160 -0.02900
C 	C 	0.74090 0.77220 0.97045 0.01300
C 	C 	0.71915 0.76283 0.01929 0.02200
C 	C 	0.74111 0.79486 0.05925 0.00500
C 	C 	0.78494 0.83554 0.05050 -0.03300
C 	C 	0.93524 0.83496 0.96031 -0.04200
C 	C 	0.99635 0.83875 0.96597 -0.05600
C 	C 	0.19417 0.80659 0.00422 -0.02600
C 	C 	0.14120 0.02943 0.04249 -0.04800
C 	C 	0.02002 0.10172 0.96906 0.11500
C 	C 	0.77731 0.01564 0.97273 -0.04700
C 	C 	0.83692 0.03130 0.97625 0.10500
C 	C 	0.80731 0.15588 0.91666 -0.03800
H 	H 	0.95392 0.93518 0.03629 0.10700
H 	H 	0.95895 0.06236 0.01908 0.10100
H 	H 	0.72338 0.74835 0.93922 0.08500
H 	H 	0.72367 0.78869 0.09690 0.08400
H 	H 	0.79967 0.82105 0.92361 0.07100
H 	H 	0.80157 0.86016 0.08153 0.06600
H 	H 	0.11476 0.73943 0.09576 0.08300
H 	H 	0.17112 0.88183 0.97124 0.07000
H 	H 	0.23353 0.80339 0.98117 0.10900
H 	H 	0.05377 0.81908 0.08740 0.06800
H 	H 	0.17088 0.24651 0.06508 0.08800
H 	H 	0.09270 0.17333 0.06383 0.07200
C 	C 	0.16566 0.14240 0.95599 -0.04300
H 	H 	0.24229 0.18671 0.92657 0.08600
H 	H 	0.75691 0.21897 0.88480 0.09200
H 	H 	0.81890 0.13964 0.88033 0.07400
H 	H 	0.82684 0.13482 0.04225 0.06800
H 	H 	0.76075 0.21125 0.04673 0.07800
H 	H 	0.90962 0.79835 0.95119 0.08800
H 	H 	0.02527 0.80536 0.96221 0.10600
H 	H 	0.17639 0.95000 0.05459 0.06800
H 	H 	0.18211 0.05404 0.04115 0.06700
H 	H 	0.92945 0.15202 0.88968 0.07100
H 	H 	0.04246 0.16391 0.91269 0.08500
H 	H 	0.73767 0.93388 0.97022 0.07700
H 	H 	0.74457 0.03687 0.95162 0.09700
H 	H 	0.16466 0.11310 0.92578 0.07300
C 	C 	0.98375 0.90013 0.44690 0.10600
N 	N 	0.03189 0.92988 0.46217 -0.17100
C 	C 	0.07895 0.89895 0.45607 0.10800
C 	C 	0.13745 0.91168 0.47990 -0.06800
C 	C 	0.15815 0.96826 0.48658 0.10000
C 	C 	0.17967 0.86895 0.48869 0.05800
C 	C 	0.16964 0.83155 0.52764 -0.04100
C 	C 	0.21205 0.79375 0.53834 0.00700
C 	C 	0.26511 0.79378 0.51065 0.02700
C 	C 	0.23190 0.86780 0.46004 -0.03700
N 	N 	0.14488 0.00743 0.45401 -0.12100
C 	C 	0.18080 0.98938 0.53110 -0.04200
C 	C 	0.16041 0.05378 0.47778 0.09700
C 	C 	0.14681 0.10720 0.45792 -0.06700
C 	C 	0.19207 0.15216 0.46213 0.05700
C 	C 	0.29532 0.18452 0.45784 0.00800
C 	C 	0.17656 0.20222 0.48135 -0.04000
C 	C 	0.22003 0.24375 0.48739 0.00200
C 	C 	0.27957 0.23508 0.47546 0.03100
N 	N 	0.03950 0.08731 0.44108 -0.17200
C 	C 	0.99656 0.11191 0.41583 0.10900
C 	C 	0.02094 0.15401 0.38717 -0.04700
C 	C 	0.08161 0.15482 0.39541 -0.05000
C 	C 	0.93310 0.10623 0.43029 -0.06800
C 	C 	0.89641 0.15397 0.43188 0.05300
C 	C 	0.81381 0.20281 0.39934 0.00200
C 	C 	0.81760 0.23768 0.44086 0.03100
C 	C 	0.86177 0.23117 0.47734 0.00400
C 	C 	0.90146 0.18980 0.47256 -0.04000
N 	N 	0.93114 0.00612 0.42987 -0.12200
C 	C 	0.85837 0.98903 0.48666 -0.04800
C 	C 	0.90152 0.96746 0.45674 0.09900
C 	C 	0.92271 0.91227 0.46256 -0.06800
C 	C 	0.88143 0.86856 0.48082 0.05400
C 	C 	0.82905 0.85527 0.45414 -0.03900
C 	C 	0.79009 0.81390 0.47123 0.00600
C 	C 	0.80287 0.78585 0.51544 0.02500
C 	C 	0.85561 0.79863 0.54182 0.00500
C 	C 	0.89464 0.84006 0.52470 -0.04200
C 	C 	0.00008 0.84982 0.43076 -0.04900
C 	C 	0.06102 0.84908 0.43663 -0.05300
C 	C 	0.27430 0.83020 0.47083 0.00700
C 	C 	0.18236 0.04453 0.52537 -0.05000
C 	C 	0.09124 0.11341 0.42892 0.11200
C 	C 	0.86100 0.04356 0.47722 -0.04700
C 	C 	0.90562 0.05244 0.44201 0.09600
C 	C 	0.85305 0.16108 0.39490 -0.03900
H 	H 	0.03051 0.96188 0.48762 0.10100
H 	H 	0.03243 0.06507 0.47411 0.10000
H 	H 	0.75000 0.80354 0.45013 0.08000
H 	H 	0.86619 0.77664 0.57560 0.07900
H 	H 	0.81878 0.87676 0.41998 0.07200
H 	H 	0.93511 0.84998 0.54544 0.06500
H 	H 	0.20410 0.76499 0.56850 0.08300
H 	H 	0.23981 0.89637 0.42971 0.07600
H 	H 	0.31456 0.82964 0.44857 0.08400
H 	H 	0.12937 0.83215 0.54989 0.06900
H 	H 	0.20762 0.28245 0.50179 0.08200
H 	H 	0.13099 0.20884 0.49185 0.06900
C 	C 	0.25164 0.14368 0.45006 -0.03200
H 	H 	0.34144 0.17686 0.45027 0.10100
H 	H 	0.77956 0.20728 0.37121 0.08100
H 	H 	0.84893 0.13356 0.36334 0.07100
H 	H 	0.93479 0.18448 0.50132 0.06700
H 	H 	0.86442 0.25734 0.50995 0.08800
H 	H 	0.97066 0.81415 0.42918 0.06800
H 	H 	0.08554 0.81280 0.44002 0.07000
H 	H 	0.17951 0.96864 0.56693 0.08000
H 	H 	0.18299 0.07324 0.55602 0.07200
H 	H 	0.99704 0.18817 0.37413 0.08300
H 	H 	0.11169 0.18932 0.38879 0.08700
H 	H 	0.84056 0.97065 0.52072 0.08500
H 	H 	0.84564 0.07367 0.50299 0.07000
H 	H 	0.26419 0.10513 0.43542 0.07900
Ni	Ni	0.43434 0.52393 0.05819 1.10300
O 	O 	0.50839 0.48117 0.04486 -0.70300
Ni	Ni	0.49506 0.46086 0.97186 1.10600
O 	O 	0.44831 0.53117 0.13435 -0.30300
O 	O 	0.46990 0.44391 0.14809 -0.35200
O 	O 	0.48342 0.59629 0.05451 -0.30100
Ni	Ni	0.50617 0.41328 0.08284 1.10000
O 	O 	0.38854 0.62021 0.99915 -0.30700
O 	O 	0.42081 0.39399 0.06141 -0.35700
O 	O 	0.56892 0.41762 0.96332 -0.32300
O 	O 	0.42259 0.50477 0.98506 -0.70200
O 	O 	0.35952 0.56586 0.06506 -0.29800
O 	O 	0.47635 0.45369 0.89648 -0.33900
O 	O 	0.47330 0.54470 0.88438 -0.36700
Ni	Ni	0.42824 0.57263 0.94710 1.08900
H 	H 	0.54631 0.50229 0.04980 0.19000
H 	H 	0.38433 0.48454 0.97908 0.17800
C 	C 	0.40820 0.37734 0.01580 0.28800
O 	O 	0.51131 0.59321 0.97237 -0.35600
C 	C 	0.47457 0.49481 0.16123 0.28200
C 	C 	0.58065 0.37953 0.99564 0.31700
C 	C 	0.52115 0.60956 0.01842 0.28600
C 	C 	0.47006 0.49523 0.86661 0.29000
C 	C 	0.34757 0.60310 0.03182 0.27400
O 	O 	0.44441 0.38950 0.97822 -0.32000
O 	O 	0.54059 0.36416 0.02961 -0.33000
Ni	Ni	0.51515 0.55121 0.55668 1.11600
O 	O 	0.57583 0.49486 0.54154 -0.70400
Ni	Ni	0.55577 0.47646 0.47018 1.11100
O 	O 	0.51890 0.54113 0.63324 -0.33700
O 	O 	0.50277 0.45009 0.62511 -0.32100
O 	O 	0.58193 0.61088 0.56195 -0.34200
Ni	Ni	0.57263 0.42779 0.57966 1.10200
O 	O 	0.50013 0.65908 0.50089 -0.36300
O 	O 	0.51782 0.37583 0.53838 -0.28700
O 	O 	0.60176 0.40715 0.46075 -0.32000
O 	O 	0.50499 0.54144 0.48238 -0.69300
O 	O 	0.45577 0.60963 0.56464 -0.31600
O 	O 	0.53680 0.47682 0.39471 -0.32900
O 	O 	0.56472 0.56612 0.38673 -0.36200
Ni	Ni	0.53262 0.60730 0.44863 1.09700
H 	H 	0.61682 0.51078 0.54279 0.21700
H 	H 	0.46259 0.53335 0.47437 0.22700
C 	C 	0.47250 0.39081 0.51157 0.32000
O 	O 	0.61443 0.60614 0.48077 -0.36100
C 	C 	0.50732 0.49348 0.65348 0.28100
C 	C 	0.64189 0.38906 0.49246 0.30800
C 	C 	0.62341 0.62050 0.52770 0.30300
C 	C 	0.53743 0.52208 0.36879 0.28800
C 	C 	0.45311 0.64682 0.52939 0.29900
O 	O 	0.47761 0.43348 0.48272 -0.35500
O 	O 	0.64383 0.40345 0.54048 -0.33900
C 	C 	0.47734 0.48778 0.81216 -0.05100
C 	C 	0.53260 0.47396 0.79197 0.07600
C 	C 	0.54097 0.47397 0.73985 -0.01300
C 	C 	0.49553 0.48913 0.70758 -0.04300
C 	C 	0.44004 0.50198 0.72752 0.07800
C 	C 	0.43114 0.50102 0.77966 -0.01100
H 	H 	0.58361 0.46385 0.72446 0.06300
H 	H 	0.38874 0.51189 0.79499 0.06900
I 	I 	0.60593 0.45721 0.83900 0.02600
I 	I 	0.36921 0.52367 0.67988 0.07100
C 	C 	0.48869 0.50746 0.21385 -0.04200
C 	C 	0.54482 0.53028 0.22725 0.06500
C 	C 	0.55986 0.53647 0.27810 -0.00600
C 	C 	0.51908 0.52034 0.31573 -0.05500
C 	C 	0.46171 0.50034 0.30218 0.07200
C 	C 	0.44703 0.49360 0.25139 -0.00000
H 	H 	0.60372 0.55266 0.28835 0.08500
H 	H 	0.40331 0.47712 0.24105 0.09900
I 	I 	0.60798 0.55480 0.17145 0.00900
I 	I 	0.39541 0.48235 0.35744 0.07800
C 	C 	0.30428 0.70323 0.49817 0.00900
C 	C 	0.30983 0.75377 0.52154 0.08700
C 	C 	0.36050 0.76741 0.55131 -0.12800
C 	C 	0.40709 0.73165 0.55347 0.07800
C 	C 	0.40241 0.68195 0.52856 -0.00700
C 	C 	0.35011 0.66683 0.50157 -0.07700
C 	C 	0.34432 0.61290 0.47463 0.77300
H 	H 	0.26492 0.69312 0.47603 0.09700
H 	H 	0.44746 0.74265 0.57396 0.09700
C 	C 	0.36603 0.82090 0.57897 0.79100
F 	F 	0.28935 0.60479 0.45182 -0.41900
F 	F 	0.35123 0.57154 0.50867 -0.44400
F 	F 	0.38763 0.61075 0.43789 -0.48700
F 	F 	0.31500 0.82878 0.60645 -0.43000
F 	F 	0.37444 0.86237 0.54466 -0.42800
F 	F 	0.41354 0.82279 0.61211 -0.40800
C 	C 	0.77571 0.68813 0.51990 0.00800
C 	C 	0.76245 0.74104 0.53244 0.08700
C 	C 	0.70744 0.75111 0.55557 -0.13200
C 	C 	0.66284 0.70965 0.55719 0.07500
C 	C 	0.67416 0.65789 0.53959 -0.00900
C 	C 	0.73272 0.64577 0.52570 -0.07300
C 	C 	0.74906 0.58824 0.51563 0.77600
H 	H 	0.81872 0.68037 0.50382 0.09500
H 	H 	0.61832 0.71837 0.56928 0.09000
C 	C 	0.69463 0.80674 0.57517 0.79100
F 	F 	0.80990 0.58306 0.51902 -0.41600
F 	F 	0.73071 0.57301 0.46786 -0.43600
F 	F 	0.72228 0.55379 0.55060 -0.45700
F 	F 	0.68111 0.83981 0.53534 -0.43300
F 	F 	0.74347 0.82895 0.60060 -0.43200
F 	F 	0.64710 0.80453 0.60826 -0.41200
C 	C 	0.73849 0.36866 0.45408 0.07400
C 	C 	0.68392 0.34984 0.47429 0.00200
C 	C 	0.67126 0.29380 0.47951 -0.07000
C 	C 	0.71574 0.25779 0.46820 0.00900
C 	C 	0.77094 0.27665 0.44923 0.08500
C 	C 	0.78158 0.33236 0.43970 -0.12400
C 	C 	0.83952 0.35334 0.41608 0.79100
H 	H 	0.74759 0.41168 0.45023 0.10100
H 	H 	0.70793 0.21500 0.47474 0.09600
C 	C 	0.61098 0.27250 0.49833 0.77600
F 	F 	0.83649 0.40650 0.40103 -0.40600
F 	F 	0.85242 0.32317 0.37405 -0.42800
F 	F 	0.88516 0.35014 0.45060 -0.42600
F 	F 	0.56634 0.29309 0.46932 -0.42400
F 	F 	0.60360 0.28773 0.54789 -0.43000
F 	F 	0.60526 0.21684 0.49575 -0.41700
C 	C 	0.40723 0.33708 0.45354 0.09000
C 	C 	0.42168 0.35223 0.50307 0.01300
C 	C 	0.38571 0.33250 0.54338 -0.06500
C 	C 	0.34047 0.29298 0.53360 0.01500
C 	C 	0.32592 0.27814 0.48406 0.09200
C 	C 	0.35696 0.30327 0.44340 -0.12600
C 	C 	0.33782 0.29320 0.38926 0.79200
H 	H 	0.43481 0.35236 0.42280 0.09900
H 	H 	0.31608 0.27392 0.56446 0.09800
C 	C 	0.39334 0.35534 0.59604 0.77600
F 	F 	0.36076 0.33341 0.35778 -0.42100
F 	F 	0.27653 0.29230 0.38501 -0.43000
F 	F 	0.35815 0.24449 0.37309 -0.42600
F 	F 	0.39246 0.41092 0.59429 -0.43900
F 	F 	0.44671 0.34024 0.61613 -0.42500
F 	F 	0.34805 0.33704 0.62781 -0.41900
C 	C 	0.25030 0.71056 0.08223 0.01100
C 	C 	0.21209 0.71653 0.04121 0.08700
C 	C 	0.21044 0.67784 0.00210 -0.13100
C 	C 	0.25435 0.63953 0.00052 0.06300
C 	C 	0.29561 0.63592 0.03972 0.01200
C 	C 	0.29112 0.66937 0.08273 -0.05500
C 	C 	0.32728 0.65953 0.12990 0.77600
H 	H 	0.24903 0.73889 0.11316 0.09900
H 	H 	0.25756 0.61335 0.96809 0.07900
C 	C 	0.16412 0.67894 0.96062 0.79700
F 	F 	0.31728 0.69725 0.16692 -0.41700
F 	F 	0.38735 0.66227 0.11900 -0.38900
F 	F 	0.31162 0.60912 0.14911 -0.41400
F 	F 	0.18062 0.71823 0.92587 -0.43200
F 	F 	0.10899 0.68968 0.98023 -0.42600
F 	F 	0.15858 0.62981 0.93607 -0.41200
C 	C 	0.61051 0.74222 0.01978 0.00400
C 	C 	0.66794 0.72439 0.02728 0.08900
C 	C 	0.67621 0.66950 0.03844 -0.12800
C 	C 	0.62667 0.63274 0.03814 0.07000
C 	C 	0.56958 0.65017 0.02792 -0.00100
C 	C 	0.56094 0.70570 0.02020 -0.06500
C 	C 	0.49938 0.72565 0.00985 0.76700
H 	H 	0.60486 0.78446 0.01182 0.09600
H 	H 	0.63266 0.59016 0.04392 0.07900
C 	C 	0.73790 0.64982 0.04869 0.79100
F 	F 	0.49943 0.78136 0.00833 -0.42000
F 	F 	0.46068 0.70829 0.04739 -0.39400
F 	F 	0.47898 0.70596 0.96404 -0.43700
F 	F 	0.76445 0.67952 0.08728 -0.43000
F 	F 	0.77237 0.65564 0.00581 -0.42300
F 	F 	0.73612 0.59610 0.06272 -0.40300
C 	C 	0.60798 0.29102 0.96307 0.08100
C 	C 	0.62622 0.34160 0.98225 0.00300
C 	C 	0.68708 0.35376 0.99199 -0.06500
C 	C 	0.72831 0.31365 0.98433 0.01000
C 	C 	0.70924 0.26163 0.96893 0.08500
C 	C 	0.64815 0.24968 0.95922 -0.12000
C 	C 	0.62572 0.19332 0.94395 0.79000
H 	H 	0.56193 0.28357 0.95236 0.12700
H 	H 	0.77517 0.32230 0.99141 0.10400
C 	C 	0.70784 0.40916 0.01093 0.76200
F 	F 	0.56430 0.18781 0.94626 -0.39300
F 	F 	0.64820 0.15514 0.97574 -0.42800
F 	F 	0.64305 0.18304 0.89515 -0.43100
F 	F 	0.68075 0.41949 0.05641 -0.44600
F 	F 	0.69295 0.44791 0.97637 -0.41400
F 	F 	0.76879 0.41323 0.01805 -0.40700
C 	C 	0.30589 0.35268 0.98678 0.09000
C 	C 	0.35915 0.33676 0.00828 -0.01800
C 	C 	0.36457 0.28260 0.02378 -0.05900
C 	C 	0.31501 0.24631 0.02019 -0.00800
C 	C 	0.26168 0.26222 0.99895 0.10200
C 	C 	0.25715 0.31555 0.98098 -0.13600
C 	C 	0.20013 0.33313 0.95668 0.79400
H 	H 	0.30239 0.39416 0.97498 0.06400
H 	H 	0.31780 0.20532 0.03359 0.10000
C 	C 	0.42356 0.26301 0.04244 0.77600
F 	F 	0.20625 0.38505 0.93785 -0.42000
F 	F 	0.15487 0.33152 0.99187 -0.42500
F 	F 	0.18448 0.29908 0.91720 -0.43000
F 	F 	0.43980 0.28917 0.08659 -0.44300
F 	F 	0.46678 0.27328 0.00641 -0.42500
F 	F 	0.42082 0.20813 0.05179 -0.41200
