data_crystal

_cell_length_a 20.04900
_cell_length_b 20.25755
_cell_length_c 47.54839
_cell_angle_alpha 90.01808
_cell_angle_beta  90.02313
_cell_angle_gamma 119.40060

_symmetry_space_group_name_	'P 1'
_symmetry_space_group_name_H-M	'P 1'

loop_
_symmetry_equiv_pos_as_xyz
  x,y,z

loop_
_atom_site_label
_atom_site_type_symbol
_atom_site_fract_x
_atom_site_fract_y
_atom_site_fract_z
_atom_site_charge
C 	C 	0.50689 0.20898 0.88516 0.28100
C 	C 	0.77393 0.50242 0.90642 0.30600
C 	C 	0.71571 0.27052 0.87226 0.30500
C 	C 	0.57656 0.45021 0.92068 0.29100
C 	C 	0.76790 0.33337 0.96314 0.30900
C 	C 	0.56542 0.24431 0.97908 0.29500
Ni	Ni	0.64104 0.36606 0.88397 1.11500
Ni	Ni	0.67002 0.39774 0.95082 1.12200
Ni	Ni	0.63495 0.23731 0.92608 1.11900
O 	O 	0.53098 0.27967 0.87684 -0.36900
O 	O 	0.55605 0.18667 0.89410 -0.37200
O 	O 	0.76563 0.39164 0.95257 -0.39400
O 	O 	0.75506 0.44308 0.89066 -0.37700
O 	O 	0.73323 0.49642 0.92897 -0.37900
O 	O 	0.55250 0.20899 0.95465 -0.39200
O 	O 	0.67293 0.29693 0.86170 -0.37100
O 	O 	0.72414 0.26931 0.89948 -0.38400
O 	O 	0.61498 0.31853 0.98191 -0.37800
O 	O 	0.60668 0.44527 0.89619 -0.36800
O 	O 	0.58106 0.41583 0.94378 -0.38100
O 	O 	0.71222 0.26379 0.95806 -0.38100
O 	O 	0.62975 0.32767 0.92067 -0.71500
H 	H 	0.57477 0.30868 0.92385 0.16400
C 	C 	0.68531 0.18558 0.62054 0.28600
C 	C 	0.71436 0.48824 0.61724 0.30400
C 	C 	0.54525 0.24493 0.64029 0.30200
C 	C 	0.85058 0.42078 0.58864 0.28500
C 	C 	0.54305 0.33713 0.55747 0.30800
C 	C 	0.67387 0.26799 0.52881 0.28700
Ni	Ni	0.71390 0.34409 0.62785 1.11300
Ni	Ni	0.70634 0.40271 0.56528 1.12100
Ni	Ni	0.58928 0.23107 0.58245 1.12000
O 	O 	0.73841 0.25686 0.62469 -0.37700
O 	O 	0.61737 0.16660 0.60874 -0.37100
O 	O 	0.60276 0.39245 0.56971 -0.39000
O 	O 	0.67845 0.42406 0.63084 -0.37800
O 	O 	0.74649 0.49111 0.59285 -0.37600
O 	O 	0.63985 0.21511 0.54853 -0.38000
O 	O 	0.61506 0.26670 0.64939 -0.37600
O 	O 	0.53277 0.25083 0.61361 -0.38500
O 	O 	0.67636 0.33487 0.53055 -0.38300
O 	O 	0.82351 0.42476 0.61374 -0.36500
O 	O 	0.81519 0.42155 0.56509 -0.37400
O 	O 	0.53631 0.26912 0.55580 -0.37700
O 	O 	0.68269 0.32072 0.59030 -0.71500
H 	H 	0.71819 0.30401 0.58329 0.16000
C 	C 	0.92201 0.83600 0.71917 0.28500
C 	C 	0.12438 0.05189 0.80305 0.31200
C 	C 	0.91199 0.84067 0.80056 0.30300
C 	C 	0.15015 0.06532 0.72410 0.28300
C 	C 	0.91015 0.05810 0.79568 0.30400
C 	C 	0.90315 0.05086 0.71962 0.29300
Ni	Ni	0.04324 0.92830 0.76140 1.10500
Ni	Ni	0.03848 0.08602 0.75914 1.11600
Ni	Ni	0.88241 0.92937 0.75806 1.11900
O 	O 	0.99629 0.86665 0.72483 -0.36700
O 	O 	0.87349 0.83526 0.73848 -0.37600
O 	O 	0.98372 0.08062 0.79508 -0.38600
O 	O 	0.07843 0.97901 0.80036 -0.39300
O 	O 	0.12891 0.09902 0.78309 -0.38100
O 	O 	0.87702 0.97690 0.72184 -0.39500
O 	O 	0.95738 0.83450 0.78211 -0.36900
O 	O 	0.88802 0.88974 0.79662 -0.38400
O 	O 	0.96275 0.10199 0.73482 -0.37300
O 	O 	0.14416 0.01273 0.74243 -0.37000
O 	O 	0.10606 0.09746 0.72572 -0.38000
O 	O 	0.86279 0.00672 0.77779 -0.38600
O 	O 	0.99012 0.98041 0.75292 -0.71600
H 	H 	0.99311 0.98078 0.73224 0.16000
C 	C 	0.22470 0.75231 0.41452 0.28900
C 	C 	0.46303 0.71278 0.47689 0.30800
C 	C 	0.43632 0.87074 0.42160 0.30500
C 	C 	0.26226 0.57703 0.47688 0.28900
C 	C 	0.48804 0.72208 0.38677 0.30800
C 	C 	0.27428 0.55854 0.38053 0.28300
Ni	Ni	0.33434 0.74010 0.45852 1.11300
Ni	Ni	0.37945 0.62201 0.42912 1.12000
Ni	Ni	0.34542 0.72871 0.39004 1.12100
O 	O 	0.25685 0.77032 0.44005 -0.36300
O 	O 	0.23846 0.71035 0.39666 -0.38500
O 	O 	0.44641 0.65124 0.39472 -0.39300
O 	O 	0.40760 0.72438 0.48582 -0.37000
O 	O 	0.46924 0.70377 0.45006 -0.39400
O 	O 	0.30898 0.62817 0.36930 -0.37700
O 	O 	0.42739 0.84269 0.44705 -0.37500
O 	O 	0.38226 0.83724 0.40264 -0.38600
O 	O 	0.29230 0.54482 0.40599 -0.38600
O 	O 	0.25072 0.63589 0.47360 -0.37200
O 	O 	0.32370 0.57643 0.46636 -0.37700
O 	O 	0.45600 0.76404 0.38228 -0.39200
O 	O 	0.33633 0.68630 0.42634 -0.71700
H 	H 	0.28185 0.64733 0.42570 0.16000
C 	C 	0.30128 0.74392 0.15023 0.28200
C 	C 	0.28997 0.46686 0.11110 0.30400
C 	C 	0.44582 0.67458 0.15920 0.30200
C 	C 	0.14711 0.53273 0.09849 0.28500
C 	C 	0.46140 0.67285 0.06210 0.31100
C 	C 	0.35213 0.75523 0.05588 0.29100
Ni	Ni	0.28083 0.58903 0.14097 1.11200
Ni	Ni	0.30111 0.59030 0.07306 1.12100
Ni	Ni	0.41333 0.73726 0.10919 1.11900
O 	O 	0.25230 0.67040 0.15286 -0.37200
O 	O 	0.37466 0.76852 0.14403 -0.37800
O 	O 	0.40734 0.60728 0.07084 -0.39400
O 	O 	0.32435 0.51918 0.13007 -0.37900
O 	O 	0.26524 0.48270 0.08778 -0.37300
O 	O 	0.36520 0.77752 0.08245 -0.39200
O 	O 	0.37478 0.64630 0.16792 -0.36900
O 	O 	0.46195 0.68927 0.13255 -0.38200
O 	O 	0.32472 0.68264 0.04819 -0.37700
O 	O 	0.17386 0.51703 0.12179 -0.37100
O 	O 	0.19072 0.56338 0.07597 -0.38000
O 	O 	0.47735 0.73431 0.07652 -0.38400
O 	O 	0.31836 0.64450 0.10740 -0.71000
H 	H 	0.28189 0.66340 0.10482 0.16000
C 	C 	0.06777 0.14065 0.21578 0.27000
C 	C 	0.87591 0.94509 0.30703 0.29500
C 	C 	0.07832 0.17086 0.29571 0.30200
C 	C 	0.85180 0.90059 0.23022 0.28700
C 	C 	0.09776 0.96687 0.30933 0.29500
C 	C 	0.10061 0.94145 0.22924 0.27500
Ni	Ni	0.94921 0.05596 0.26022 1.11600
Ni	Ni	0.97133 0.90963 0.26916 1.12300
Ni	Ni	0.11850 0.07231 0.26236 1.11900
O 	O 	0.99311 0.10497 0.22139 -0.36100
O 	O 	0.11918 0.15310 0.23594 -0.37100
O 	O 	0.02329 0.93593 0.30668 -0.39700
O 	O 	0.91329 0.01768 0.30096 -0.36800
O 	O 	0.87601 0.89559 0.28924 -0.38200
O 	O 	0.13544 0.01673 0.23055 -0.37800
O 	O 	0.02761 0.16174 0.27644 -0.37600
O 	O 	0.10751 0.12538 0.29678 -0.38500
O 	O 	0.05616 0.89823 0.25010 -0.38300
O 	O 	0.85363 0.95990 0.24332 -0.37000
O 	O 	0.90546 0.88092 0.23417 -0.38200
O 	O 	0.14377 0.00969 0.28912 -0.37600
O 	O 	0.01126 0.01099 0.25719 -0.72100
H 	H 	0.00978 0.00329 0.23670 0.15800
C 	C 	0.25824 0.38751 0.11986 -0.07600
C 	C 	0.30689 0.36459 0.13250 0.01000
C 	C 	0.27748 0.30390 0.15142 -0.05800
C 	C 	0.19918 0.26604 0.15802 0.01800
C 	C 	0.14899 0.28352 0.14299 0.01000
C 	C 	0.17871 0.34270 0.12324 -0.01800
C 	C 	0.07085 0.24628 0.14969 -0.05000
C 	C 	0.04369 0.19685 0.17261 -0.00900
C 	C 	0.09435 0.18358 0.18905 -0.05700
C 	C 	0.17139 0.21527 0.18078 -0.02500
H 	H 	0.36823 0.39753 0.12937 0.03800
H 	H 	0.31625 0.28934 0.16212 0.04600
H 	H 	0.14078 0.35894 0.11281 0.04900
H 	H 	0.03154 0.25794 0.13787 0.04300
H 	H 	0.98368 0.17098 0.17814 0.05000
H 	H 	0.21013 0.20286 0.19266 0.04500
C 	C 	0.78094 0.84717 0.21553 -0.06700
C 	C 	0.78421 0.81052 0.19096 0.00400
C 	C 	0.71695 0.76148 0.17659 -0.05500
C 	C 	0.64577 0.74894 0.18661 0.01400
C 	C 	0.64197 0.78354 0.21189 0.01500
C 	C 	0.70959 0.83211 0.22635 -0.02000
C 	C 	0.57083 0.77142 0.22178 -0.05700
C 	C 	0.50477 0.72998 0.20561 0.00700
C 	C 	0.50911 0.69963 0.17956 -0.07500
C 	C 	0.57891 0.70553 0.17094 -0.01800
H 	H 	0.83893 0.82099 0.18272 0.03700
H 	H 	0.72040 0.73457 0.15736 0.04600
H 	H 	0.70685 0.85868 0.24581 0.04800
H 	H 	0.56708 0.79646 0.24144 0.04600
H 	H 	0.45108 0.72492 0.21267 0.04100
H 	H 	0.58189 0.68007 0.15123 0.05000
C 	C 	0.12703 0.90621 0.20826 -0.06500
C 	C 	0.07355 0.84142 0.19373 0.00200
C 	C 	0.09803 0.80072 0.17697 -0.05600
C 	C 	0.17627 0.82364 0.17502 0.01500
C 	C 	0.23057 0.89049 0.18876 0.01400
C 	C 	0.20567 0.93214 0.20501 -0.01800
C 	C 	0.30870 0.91262 0.18723 -0.05600
C 	C 	0.33239 0.86654 0.17353 0.00400
C 	C 	0.27825 0.79821 0.16094 -0.06600
C 	C 	0.20059 0.77862 0.16072 -0.02100
H 	H 	0.01283 0.82163 0.19592 0.03200
H 	H 	0.05597 0.75006 0.16623 0.04300
H 	H 	0.24702 0.98233 0.21622 0.04300
H 	H 	0.35093 0.96431 0.19737 0.04300
H 	H 	0.39255 0.88279 0.17354 0.03900
H 	H 	0.15892 0.72702 0.15031 0.04500
C 	C 	0.81998 0.91768 0.33034 -0.06600
C 	C 	0.80040 0.96725 0.34409 -0.00500
C 	C 	0.73590 0.93850 0.36144 -0.05200
C 	C 	0.68977 0.85994 0.36486 0.01200
C 	C 	0.71271 0.81035 0.35296 0.01700
C 	C 	0.77917 0.83977 0.33652 -0.01900
C 	C 	0.66582 0.73170 0.35591 -0.05800
C 	C 	0.59374 0.70240 0.36843 0.00900
C 	C 	0.56854 0.75155 0.37855 -0.07500
C 	C 	0.61856 0.83018 0.37824 -0.01400
H 	H 	0.83320 0.02775 0.34048 0.04800
H 	H 	0.71993 0.97715 0.37116 0.04300
H 	H 	0.79645 0.80166 0.32715 0.04500
H 	H 	0.68366 0.69318 0.34739 0.04500
H 	H 	0.55637 0.64161 0.36918 0.03900
H 	H 	0.60031 0.86815 0.38705 0.04600
C 	C 	0.22665 0.49268 0.36211 -0.06200
C 	C 	0.21164 0.50362 0.33409 0.00300
C 	C 	0.17521 0.44179 0.31578 -0.05400
C 	C 	0.15365 0.36832 0.32521 0.01200
C 	C 	0.16574 0.35660 0.35361 0.01700
C 	C 	0.20070 0.41852 0.37203 -0.02300
C 	C 	0.14518 0.28338 0.36301 -0.05800
C 	C 	0.11535 0.22265 0.34416 0.00900
C 	C 	0.10461 0.23409 0.31579 -0.07500
C 	C 	0.12227 0.30671 0.30645 -0.01700
H 	H 	0.22932 0.56007 0.32630 0.04000
H 	H 	0.16520 0.45132 0.29414 0.04400
H 	H 	0.20988 0.40919 0.39381 0.04900
H 	H 	0.15366 0.27369 0.38481 0.04600
H 	H 	0.10094 0.16663 0.35158 0.04100
H 	H 	0.11394 0.31560 0.28452 0.04600
C 	C 	0.18377 0.79056 0.40398 -0.06700
C 	C 	0.10557 0.74778 0.39765 0.00500
C 	C 	0.07098 0.77729 0.37993 -0.05500
C 	C 	0.11485 0.84926 0.36783 0.01100
C 	C 	0.19253 0.89433 0.37549 0.01900
C 	C 	0.22600 0.86547 0.39425 -0.02400
C 	C 	0.23697 0.96548 0.36284 -0.06500
C 	C 	0.20562 0.99001 0.34170 0.00200
C 	C 	0.12922 0.94413 0.33324 -0.07100
C 	C 	0.08329 0.87480 0.34702 -0.01700
H 	H 	0.07247 0.69020 0.40531 0.03400
H 	H 	0.01095 0.74279 0.37461 0.04200
H 	H 	0.28621 0.89901 0.39955 0.04900
H 	H 	0.29639 0.00092 0.36881 0.05200
H 	H 	0.24097 0.04436 0.33174 0.04300
H 	H 	0.02406 0.83942 0.34075 0.04000
C 	C 	0.68739 0.15250 0.46559 0.00300
C 	C 	0.66930 0.08085 0.45537 -0.05700
C 	C 	0.61409 0.04873 0.43403 0.02600
C 	C 	0.57595 0.08682 0.42418 -0.00400
C 	C 	0.58793 0.15435 0.43672 -0.05100
C 	C 	0.64563 0.18815 0.45713 0.01500
S 	S 	0.72078 0.18300 0.49779 0.02300
C 	C 	0.68926 0.24509 0.50143 -0.06900
C 	C 	0.64723 0.24073 0.47724 -0.01800
S 	S 	0.49223 0.02192 0.41108 0.03000
C 	C 	0.50206 0.94539 0.41578 -0.08000
C 	C 	0.57307 0.96956 0.42891 -0.02800
H 	H 	0.69268 0.04847 0.46529 0.05100
H 	H 	0.54960 0.17656 0.43240 0.04600
H 	H 	0.60903 0.26427 0.47626 0.04600
H 	H 	0.58815 0.93046 0.43880 0.04700
C 	C 	0.10891 0.42560 0.52682 0.00500
C 	C 	0.03176 0.38058 0.53396 -0.06500
C 	C 	0.00666 0.39471 0.55964 0.00900
C 	C 	0.05729 0.45541 0.57678 0.00300
C 	C 	0.13144 0.50650 0.56770 -0.05600
C 	C 	0.15781 0.48978 0.54285 0.01500
S 	S 	0.14214 0.43990 0.49402 0.01500
C 	C 	0.22068 0.52328 0.49933 -0.06800
C 	C 	0.22079 0.54494 0.52729 -0.02000
S 	S 	0.00511 0.47898 0.59731 0.00800
C 	C 	0.91856 0.41193 0.58684 -0.06400
C 	C 	0.92862 0.37011 0.56539 -0.01000
H 	H 	0.99156 0.33949 0.51921 0.05700
H 	H 	0.16550 0.55984 0.57854 0.04500
H 	H 	0.25806 0.60190 0.53492 0.04000
H 	H 	0.88252 0.33205 0.55166 0.04200
C 	C 	0.54452 0.59011 0.50626 0.00000
C 	C 	0.55456 0.52882 0.49872 -0.05700
C 	C 	0.50778 0.45843 0.51143 0.01600
C 	C 	0.44921 0.44934 0.52989 0.00000
C 	C 	0.43702 0.51002 0.53649 -0.05200
C 	C 	0.48318 0.57995 0.52334 0.01500
S 	S 	0.56582 0.66308 0.48537 0.01800
C 	C 	0.50036 0.68554 0.49668 -0.08000
C 	C 	0.45870 0.63386 0.51821 -0.01600
S 	S 	0.43484 0.38061 0.55219 0.02500
C 	C 	0.49747 0.35678 0.53891 -0.07600
C 	C 	0.53266 0.40472 0.51582 -0.02000
H 	H 	0.59963 0.53641 0.48430 0.04500
H 	H 	0.39176 0.50248 0.55079 0.04700
H 	H 	0.40456 0.62639 0.52591 0.04800
H 	H 	0.58495 0.41123 0.50654 0.03700
C 	C 	0.85538 0.07611 0.70468 -0.06800
C 	C 	0.82815 0.11847 0.71915 0.00700
C 	C 	0.77494 0.13471 0.70657 -0.05700
C 	C 	0.75107 0.11199 0.67880 0.01600
C 	C 	0.77949 0.07082 0.66380 0.01500
C 	C 	0.83017 0.05130 0.67708 -0.01800
C 	C 	0.75992 0.05333 0.63530 -0.05400
C 	C 	0.71877 0.08286 0.62126 0.00500
C 	C 	0.69483 0.12785 0.63582 -0.06500
C 	C 	0.70442 0.13552 0.66509 -0.01800
H 	H 	0.84720 0.13765 0.74041 0.03800
H 	H 	0.75386 0.16676 0.71820 0.04300
H 	H 	0.85088 0.01821 0.66592 0.04500
H 	H 	0.78019 0.02066 0.62364 0.04700
H 	H 	0.71044 0.07535 0.59872 0.03500
H 	H 	0.68365 0.16825 0.67650 0.04100
C 	C 	0.47984 0.21294 0.66010 -0.07300
C 	C 	0.48552 0.18333 0.68617 0.00700
C 	C 	0.42177 0.14804 0.70392 -0.05700
C 	C 	0.35142 0.14147 0.69573 0.01500
C 	C 	0.34553 0.17169 0.66968 0.01400
C 	C 	0.40987 0.20793 0.65214 -0.01900
C 	C 	0.27519 0.16483 0.66139 -0.05500
C 	C 	0.21120 0.12864 0.67889 0.00300
C 	C 	0.21668 0.09902 0.70494 -0.06500
C 	C 	0.28691 0.10520 0.71328 -0.02000
H 	H 	0.53889 0.18641 0.69251 0.03800
H 	H 	0.42699 0.12520 0.72389 0.04400
H 	H 	0.40536 0.23161 0.63224 0.05000
H 	H 	0.27000 0.18754 0.64138 0.04500
H 	H 	0.15729 0.12378 0.67221 0.03800
H 	H 	0.29164 0.08314 0.73352 0.04700
C 	C 	0.73510 0.55903 0.63240 -0.07300
C 	C 	0.68330 0.56179 0.65158 0.00700
C 	C 	0.70798 0.62155 0.67074 -0.05600
C 	C 	0.78494 0.67877 0.67110 0.01200
C 	C 	0.83597 0.67905 0.65055 0.01800
C 	C 	0.81040 0.61971 0.63097 -0.01900
C 	C 	0.91295 0.73613 0.65094 -0.06300
C 	C 	0.94028 0.78951 0.67264 0.02300
C 	C 	0.89092 0.78643 0.69423 -0.07200
C 	C 	0.81246 0.73306 0.69265 -0.01700
H 	H 	0.62460 0.51607 0.65235 0.04000
H 	H 	0.66791 0.62175 0.68599 0.04400
H 	H 	0.85028 0.61818 0.61592 0.05200
H 	H 	0.95218 0.73794 0.63488 0.05000
H 	H 	0.00023 0.83231 0.67298 0.02400
H 	H 	0.77353 0.73175 0.70875 0.04500
C 	C 	0.94534 0.41083 0.06869 0.00800
C 	C 	0.90179 0.34800 0.05116 -0.05700
C 	C 	0.89729 0.36169 0.02246 0.02000
C 	C 	0.94304 0.43428 0.01153 -0.00600
C 	C 	0.97566 0.49727 0.02929 -0.04000
C 	C 	0.97843 0.48538 0.05824 0.02100
S 	S 	0.00174 0.41150 0.09457 0.00900
C 	C 	0.06465 0.50476 0.09532 -0.06700
C 	C 	0.04039 0.53823 0.07480 -0.03100
S 	S 	0.91169 0.43577 0.97968 0.03600
C 	C 	0.83766 0.34743 0.97825 -0.07600
C 	C 	0.83641 0.31273 0.00415 -0.02100
H 	H 	0.87339 0.29093 0.05951 0.04900
H 	H 	0.00370 0.55409 0.02065 0.03700
H 	H 	0.07701 0.59598 0.06777 0.04600
H 	H 	0.78763 0.26048 0.01120 0.04500
C 	C 	0.39241 0.93724 0.01591 -0.00900
C 	C 	0.38398 0.00184 0.01487 -0.03600
C 	C 	0.44931 0.07276 0.01922 0.01200
C 	C 	0.51833 0.07713 0.02793 0.00100
C 	C 	0.52655 0.01231 0.02887 -0.04900
C 	C 	0.46220 0.94180 0.02317 0.01200
S 	S 	0.32289 0.85032 0.02346 0.02100
C 	C 	0.37760 0.81364 0.03410 -0.06900
C 	C 	0.45419 0.87215 0.03296 -0.02100
S 	S 	0.58852 0.16217 0.01908 0.02200
C 	C 	0.53684 0.19739 0.00435 -0.07000
C 	C 	0.45955 0.14042 0.00629 -0.01700
H 	H 	0.32953 0.99750 0.00936 0.03700
H 	H 	0.58107 0.01655 0.03419 0.04600
H 	H 	0.50024 0.86830 0.04338 0.04200
H 	H 	0.41480 0.14215 0.99406 0.04300
C 	C 	0.48899 0.57327 0.94631 0.00000
C 	C 	0.43991 0.58013 0.96550 -0.05300
C 	C 	0.47227 0.63680 0.98610 0.01400
C 	C 	0.55223 0.68213 0.98826 0.00100
C 	C 	0.60125 0.66816 0.97147 -0.05500
C 	C 	0.56891 0.61471 0.94973 0.01700
S 	S 	0.46812 0.49370 0.92929 0.01800
C 	C 	0.55744 0.51069 0.92385 -0.06900
C 	C 	0.60736 0.57954 0.93702 -0.02300
S 	S 	0.57278 0.71698 0.02083 0.02500
C 	C 	0.48293 0.68088 0.03236 -0.08600
C 	C 	0.43324 0.63610 0.01096 -0.01000
H 	H 	0.37921 0.53954 0.96561 0.04500
H 	H 	0.66178 0.69422 0.97629 0.04600
H 	H 	0.66646 0.59626 0.94168 0.04300
H 	H 	0.37303 0.59684 0.01441 0.02300
C 	C 	0.88208 0.09884 0.81363 -0.07400
C 	C 	0.92056 0.13367 0.83866 0.00800
C 	C 	0.89671 0.17595 0.85485 -0.05600
C 	C 	0.83435 0.18428 0.84611 0.01600
C 	C 	0.79548 0.14945 0.82095 0.01300
C 	C 	0.81885 0.10606 0.80503 -0.01800
C 	C 	0.73371 0.15846 0.81202 -0.05700
C 	C 	0.70946 0.20023 0.82827 0.00700
C 	C 	0.74663 0.23352 0.85368 -0.07400
C 	C 	0.80990 0.22640 0.86233 -0.01900
H 	H 	0.96897 0.12797 0.84560 0.04300
H 	H 	0.92688 0.20231 0.87415 0.04800
H 	H 	0.78854 0.07879 0.78585 0.04500
H 	H 	0.70395 0.13253 0.79261 0.04300
H 	H 	0.66048 0.20505 0.82144 0.04100
H 	H 	0.83942 0.25286 0.88174 0.05000
C 	C 	0.18380 0.07851 0.82486 -0.07800
C 	C 	0.19412 0.13727 0.84303 0.01200
C 	C 	0.25339 0.16548 0.86279 -0.06000
C 	C 	0.30435 0.13665 0.86395 0.02000
C 	C 	0.29293 0.07606 0.84619 0.01000
C 	C 	0.23174 0.04633 0.82705 -0.01000
C 	C 	0.34594 0.04962 0.84651 -0.05300
C 	C 	0.41358 0.08805 0.86215 0.00400
C 	C 	0.42784 0.15209 0.87804 -0.06400
C 	C 	0.37007 0.17183 0.88082 -0.02100
H 	H 	0.15653 0.16145 0.84171 0.03100
H 	H 	0.26130 0.21154 0.87650 0.04600
H 	H 	0.22340 0.00059 0.81304 0.03500
H 	H 	0.33688 0.00204 0.83346 0.04200
H 	H 	0.45704 0.07125 0.86034 0.04000
H 	H 	0.37997 0.21966 0.89394 0.04400
C 	C 	0.82214 0.57751 0.89404 -0.07600
C 	C 	0.89300 0.59506 0.88213 0.00900
C 	C 	0.92890 0.65536 0.86323 -0.05600
C 	C 	0.89354 0.69787 0.85573 0.01400
C 	C 	0.82479 0.68352 0.86912 0.01500
C 	C 	0.79035 0.62439 0.88866 -0.01900
C 	C 	0.78867 0.72503 0.86137 -0.05700
C 	C 	0.81807 0.77739 0.83943 0.00800
C 	C 	0.88454 0.78956 0.82513 -0.07200
C 	C 	0.92360 0.75149 0.83398 -0.01500
H 	H 	0.91836 0.55963 0.88645 0.03900
H 	H 	0.98245 0.66683 0.85353 0.04700
H 	H 	0.73550 0.61069 0.89775 0.04700
H 	H 	0.73646 0.71515 0.87178 0.04600
H 	H 	0.78806 0.80719 0.83310 0.03700
H 	H 	0.97612 0.76227 0.82356 0.04500
