data_crystal

_cell_length_a 20.33086
_cell_length_b 20.60509
_cell_length_c 26.73477
_cell_angle_alpha 95.44935
_cell_angle_beta  95.45038
_cell_angle_gamma 126.12964

_symmetry_space_group_name_	'P 1'
_symmetry_space_group_name_H-M	'P 1'

loop_
_symmetry_equiv_pos_as_xyz
  x,y,z

loop_
_atom_site_label
_atom_site_type_symbol
_atom_site_fract_x
_atom_site_fract_y
_atom_site_fract_z
_atom_site_charge
C 	C 	0.98455 0.06638 0.00114 0.06400
C 	C 	0.06945 0.11011 0.99952 -0.09500
C 	C 	0.10459 0.06844 0.99589 0.05900
C 	C 	0.97421 0.01895 0.44932 -0.06000
C 	C 	0.84710 0.00884 0.44393 -0.00900
C 	C 	0.81949 0.04729 0.44460 -0.02700
C 	C 	0.10394 0.03353 0.45665 -0.00500
C 	C 	0.17778 0.07315 0.45970 -0.02900
C 	C 	0.94625 0.10711 0.00242 -0.01800
C 	C 	0.19141 0.11146 0.99464 -0.01900
H 	H 	0.00925 0.08439 0.45093 0.05100
N 	N 	0.54503 0.09124 0.12045 -0.10900
C 	C 	0.91028 0.13728 0.00245 -0.02300
C 	C 	0.79179 0.09654 0.44726 0.06100
C 	C 	0.26383 0.11811 0.46221 0.06600
N 	N 	0.45592 0.13952 0.77265 -0.11700
C 	C 	0.76967 0.13966 0.45167 -0.11600
C 	C 	0.26316 0.14191 0.99365 -0.02000
C 	C 	0.58601 0.15126 0.15054 0.08900
C 	C 	0.01553 0.98374 0.45233 0.02700
C 	C 	0.05515 0.98393 0.99377 -0.09400
C 	C 	0.97096 0.94061 0.99538 0.06000
C 	C 	0.93559 0.98165 0.99921 -0.09400
H 	H 	0.10755 0.17562 0.00083 0.06100
H 	H 	0.08234 0.95182 0.99094 0.06100
H 	H 	0.87004 0.94773 0.00026 0.06300
C 	C 	0.88777 0.97009 0.44465 0.03500
C 	C 	0.84248 0.88499 0.44270 -0.07200
C 	C 	0.88469 0.84994 0.44541 0.03900
C 	C 	0.97091 0.89966 0.45028 -0.06300
H 	H 	0.77566 0.84683 0.43935 0.05500
H 	H 	0.00339 0.87272 0.45243 0.05200
Cu	Cu	0.65644 0.25090 0.01170 0.92900
Cu	Cu	0.71779 0.25110 0.90243 0.87300
Cu	Cu	0.69900 0.37662 0.94332 0.89800
Cu	Cu	0.65872 0.40209 0.04511 0.89700
C 	C 	0.67753 0.30993 0.11872 0.28500
O 	O 	0.53537 0.20273 0.01197 -0.35400
C 	C 	0.66740 0.31551 0.83160 0.28400
O 	O 	0.72312 0.37751 0.01479 -0.63800
O 	O 	0.64284 0.25687 0.93835 -0.64100
O 	O 	0.71010 0.19492 0.00875 -0.36500
O 	O 	0.79812 0.27875 0.95952 -0.44100
O 	O 	0.64435 0.34626 0.10500 -0.37800
O 	O 	0.75976 0.49405 0.95293 -0.38000
C 	C 	0.75656 0.53943 0.98952 0.31200
C 	C 	0.50361 0.23771 0.99361 0.30300
O 	O 	0.55290 0.31274 0.98593 -0.39400
O 	O 	0.70403 0.50700 0.02121 -0.39100
O 	O 	0.68693 0.26663 0.08444 -0.35400
C 	C 	0.77913 0.22746 0.99081 0.31000
O 	O 	0.69347 0.37731 0.86890 -0.37800
O 	O 	0.66256 0.25124 0.84080 -0.41100
H 	H 	0.78287 0.41339 0.03026 0.16800
H 	H 	0.58490 0.22215 0.91939 0.17900
Cu	Cu	0.71581 0.30840 0.43551 0.92600
Cu	Cu	0.72615 0.26046 0.54813 0.87200
Cu	Cu	0.59176 0.26856 0.50661 0.89800
Cu	Cu	0.55319 0.29220 0.39986 0.89800
C 	C 	0.65921 0.29072 0.32882 0.28700
O 	O 	0.76243 0.42659 0.43096 -0.35900
C 	C 	0.66045 0.31033 0.61824 0.28300
O 	O 	0.58747 0.23937 0.43531 -0.63700
O 	O 	0.71333 0.32778 0.50908 -0.64100
O 	O 	0.77319 0.25548 0.43936 -0.36600
O 	O 	0.69469 0.17566 0.49378 -0.44000
O 	O 	0.58988 0.28050 0.33488 -0.37900
O 	O 	0.47246 0.20400 0.49943 -0.37900
C 	C 	0.42381 0.20296 0.46245 0.31400
C 	C 	0.72151 0.45560 0.44180 0.30500
O 	O 	0.64668 0.40699 0.45116 -0.39100
O 	O 	0.45432 0.25549 0.43113 -0.39200
O 	O 	0.69743 0.27535 0.36297 -0.35800
C 	C 	0.74264 0.19009 0.46028 0.30700
O 	O 	0.59576 0.28087 0.58157 -0.37800
O 	O 	0.72716 0.31896 0.60820 -0.41100
H 	H 	0.55399 0.17969 0.42261 0.16800
H 	H 	0.74692 0.38607 0.52573 0.17900
C 	C 	0.65524 0.32385 0.77787 -0.06600
C 	C 	0.71997 0.39178 0.76062 -0.01400
C 	C 	0.71911 0.39129 0.70805 0.00300
C 	C 	0.65295 0.32202 0.67228 -0.06600
C 	C 	0.58403 0.25829 0.68958 -0.01500
C 	C 	0.58478 0.25893 0.74213 0.00300
H 	H 	0.77292 0.44327 0.78803 0.04400
H 	H 	0.53156 0.20628 0.66219 0.04500
C 	C 	0.51323 0.19263 0.75907 0.07600
C 	C 	0.78616 0.46206 0.69115 0.07800
N 	N 	0.83988 0.51875 0.67762 -0.11600
C 	C 	0.67871 0.29461 0.27701 -0.05900
C 	C 	0.63381 0.22256 0.24002 -0.00800
C 	C 	0.63715 0.22617 0.18812 0.00500
C 	C 	0.68687 0.30285 0.17299 -0.06000
C 	C 	0.73670 0.37440 0.21048 -0.01200
C 	C 	0.73279 0.37069 0.26232 0.00200
H 	H 	0.59313 0.16385 0.25139 0.04500
H 	H 	0.77607 0.43330 0.19908 0.03600
C 	C 	0.78274 0.44546 0.30001 0.07500
N 	N 	0.82284 0.50546 0.33013 -0.10900
C 	C 	0.84101 0.76318 0.44365 -0.01100
C 	C 	0.81210 0.69218 0.44274 -0.02200
C 	C 	0.78274 0.61026 0.44218 0.06300
C 	C 	0.75716 0.54029 0.44196 -0.10600
C 	C 	0.33711 0.15644 0.46313 -0.11200
C 	C 	0.92120 0.85388 0.99324 -0.01900
C 	C 	0.88198 0.78140 0.99160 -0.02000
C 	C 	0.83802 0.69691 0.99010 0.06300
C 	C 	0.80100 0.62488 0.98941 -0.10900
C 	C 	0.86521 0.16957 0.00084 0.06500
C 	C 	0.82576 0.19598 0.99757 -0.12200
C 	C 	0.41773 0.20158 0.99273 -0.10900
C 	C 	0.34645 0.17404 0.99284 0.06000
