data_crystal

_cell_length_a 13.74156
_cell_length_b 13.66402
_cell_length_c 35.74937
_cell_angle_alpha 90.99109
_cell_angle_beta  91.09185
_cell_angle_gamma 112.78532

_symmetry_space_group_name_	'P 1'
_symmetry_space_group_name_H-M	'P 1'

loop_
_symmetry_equiv_pos_as_xyz
  x,y,z

loop_
_atom_site_label
_atom_site_type_symbol
_atom_site_fract_x
_atom_site_fract_y
_atom_site_fract_z
_atom_site_charge
Ni	Ni	0.85789 0.38772 0.90520 1.10200
O 	O 	0.71194 0.29377 0.88295 -0.70000
Ni	Ni	0.61630 0.32237 0.91885 1.10000
O 	O 	0.93451 0.30629 0.87720 -0.37000
O 	O 	0.81946 0.15194 0.90060 -0.41200
O 	O 	0.88718 0.49290 0.86153 -0.36800
Ni	Ni	0.67085 0.13870 0.88234 1.07300
O 	O 	0.94621 0.62737 0.93490 -0.41000
O 	O 	0.59779 0.07715 0.93208 -0.38500
O 	O 	0.47319 0.20410 0.90272 -0.37800
O 	O 	0.76085 0.42948 0.93765 -0.68800
O 	O 	0.99592 0.48799 0.93001 -0.36800
O 	O 	0.53652 0.37890 0.95521 -0.36500
O 	O 	0.62684 0.55166 0.93996 -0.41200
Ni	Ni	0.78590 0.57981 0.93503 1.07100
H 	H 	0.70070 0.31748 0.85781 0.15800
H 	H 	0.77433 0.41604 0.96398 0.15800
C 	C 	0.59532 0.13520 0.96149 0.33700
O 	O 	0.77049 0.56576 0.87873 -0.42300
C 	C 	0.90113 0.20247 0.88000 0.29300
C 	C 	0.45586 0.14126 0.87251 0.31100
C 	C 	0.85106 0.56931 0.85927 0.31500
C 	C 	0.56721 0.48057 0.96303 0.29900
C 	C 	0.99219 0.56821 0.94993 0.30300
O 	O 	0.64078 0.23744 0.96114 -0.41000
O 	O 	0.53107 0.11755 0.85712 -0.40900
Ni	Ni	0.64089 0.16965 0.68063 1.10300
O 	O 	0.73456 0.31620 0.70293 -0.70000
Ni	Ni	0.70646 0.41294 0.66708 1.09900
O 	O 	0.72190 0.09224 0.70859 -0.36500
O 	O 	0.87488 0.20780 0.68494 -0.41500
O 	O 	0.53580 0.13976 0.72416 -0.36300
Ni	Ni	0.88866 0.35704 0.70352 1.07200
O 	O 	0.40279 0.08174 0.65100 -0.40200
O 	O 	0.95009 0.43121 0.65391 -0.39200
O 	O 	0.82419 0.55670 0.68336 -0.38200
O 	O 	0.59979 0.26776 0.64816 -0.68800
O 	O 	0.54105 0.03116 0.65569 -0.36200
O 	O 	0.65034 0.49364 0.63076 -0.36900
O 	O 	0.47869 0.40305 0.64611 -0.40900
Ni	Ni	0.45045 0.24302 0.65082 1.07300
H 	H 	0.71110 0.32738 0.72808 0.15800
H 	H 	0.61310 0.25435 0.62183 0.15800
C 	C 	0.89256 0.43404 0.62445 0.33300
O 	O 	0.46529 0.25877 0.70707 -0.42100
C 	C 	0.82507 0.12558 0.70556 0.29400
C 	C 	0.88758 0.57362 0.71335 0.31100
C 	C 	0.46084 0.17748 0.72657 0.31400
C 	C 	0.54919 0.46317 0.62305 0.30000
C 	C 	0.46120 0.03530 0.63585 0.30900
O 	O 	0.79084 0.38876 0.62474 -0.41000
O 	O 	0.90957 0.49718 0.72890 -0.41500
C 	C 	0.07401 0.96749 0.75560 -0.07900
H 	H 	0.07885 0.97184 0.72462 0.04100
C 	C 	0.06378 0.95697 0.83015 -0.08000
H 	H 	0.05960 0.95208 0.86114 0.04300
C 	C 	0.00957 0.02542 0.77369 0.01100
C 	C 	0.02307 0.85500 0.77072 -0.01100
C 	C 	0.18104 0.01431 0.77705 0.01500
C 	C 	0.00485 0.02051 0.81201 0.01300
C 	C 	0.01825 0.84932 0.80875 -0.01400
C 	C 	0.17548 0.00944 0.81506 0.01800
Ni	Ni	0.26143 0.67585 0.41858 1.10000
O 	O 	0.36791 0.82106 0.43763 -0.69200
Ni	Ni	0.32685 0.91916 0.40516 1.09400
O 	O 	0.31746 0.59489 0.45482 -0.36600
O 	O 	0.48928 0.68646 0.43995 -0.41100
O 	O 	0.17704 0.69968 0.46099 -0.41400
Ni	Ni	0.51731 0.84645 0.43528 1.06300
O 	O 	0.05742 0.59185 0.35710 -0.41400
O 	O 	0.50276 0.83036 0.37878 -0.43000
O 	O 	0.42635 0.05802 0.43007 -0.34800
O 	O 	0.23303 0.77272 0.38283 -0.70000
O 	O 	0.14322 0.53243 0.40251 -0.37900
O 	O 	0.24578 0.99644 0.37713 -0.37500
O 	O 	0.09270 0.88152 0.40095 -0.41700
Ni	Ni	0.07876 0.73207 0.38258 1.07000
H 	H 	0.35430 0.83439 0.46394 0.14900
H 	H 	0.25617 0.76159 0.35762 0.15800
C 	C 	0.50696 0.91144 0.35923 0.33700
O 	O 	0.01768 0.65871 0.43206 -0.39600
C 	C 	0.41848 0.62612 0.46287 0.30100
C 	C 	0.50628 0.05412 0.44990 0.30300
C 	C 	0.07530 0.65446 0.46129 0.33400
C 	C 	0.14265 0.96349 0.38025 0.24700
C 	C 	0.08000 0.51555 0.37248 0.31300
O 	O 	0.43179 0.94888 0.36157 -0.38300
O 	O 	0.56467 0.00760 0.43479 -0.38600
Ni	Ni	0.35180 0.76652 0.16708 1.09800
O 	O 	0.20717 0.65975 0.14812 -0.68900
Ni	Ni	0.11020 0.70155 0.18059 1.10100
O 	O 	0.43177 0.71002 0.13080 -0.37100
O 	O 	0.34027 0.53709 0.14550 -0.40700
O 	O 	0.32785 0.85161 0.12475 -0.39900
Ni	Ni	0.18131 0.50934 0.15041 1.07300
O 	O 	0.43688 0.97212 0.22850 -0.42900
O 	O 	0.19710 0.52305 0.20695 -0.41800
O 	O 	0.97176 0.60178 0.15578 -0.36800
O 	O 	0.25605 0.79550 0.20287 -0.70100
O 	O 	0.49465 0.88512 0.18304 -0.39200
O 	O 	0.03380 0.78309 0.20867 -0.38000
O 	O 	0.14833 0.93752 0.18513 -0.43500
Ni	Ni	0.29708 0.95075 0.20318 1.06400
H 	H 	0.19382 0.67357 0.12182 0.15400
H 	H 	0.26719 0.77205 0.22807 0.15800
C 	C 	0.11677 0.51979 0.22649 0.31600
O 	O 	0.36940 0.01199 0.15358 -0.33900
C 	C 	0.40019 0.60850 0.12259 0.30100
C 	C 	0.97517 0.52143 0.13585 0.30800
C 	C 	0.37335 0.95386 0.12440 0.24800
C 	C 	0.06687 0.88688 0.20580 0.31900
C 	C 	0.51196 0.94792 0.21325 0.33500
O 	O 	0.08095 0.59643 0.22428 -0.36700
O 	O 	0.02115 0.46223 0.15086 -0.40600
C 	C 	0.90400 0.13221 0.25565 -0.01100
H 	H 	0.90819 0.13711 0.22466 0.04500
C 	C 	0.89376 0.12170 0.33020 -0.03000
H 	H 	0.88891 0.11735 0.36118 0.04900
C 	C 	0.96300 0.06875 0.27379 -0.04300
C 	C 	0.94944 0.23987 0.27704 -0.01400
C 	C 	0.79230 0.07966 0.27074 -0.02600
C 	C 	0.95828 0.06384 0.31211 0.01100
C 	C 	0.94462 0.23420 0.31508 -0.00600
C 	C 	0.78673 0.07480 0.30875 -0.02100
C 	C 	0.05532 0.42257 0.24439 -0.11000
C 	C 	0.00596 0.33898 0.25867 0.06100
C 	C 	0.61607 0.99370 0.22982 -0.17600
C 	C 	0.69939 0.03338 0.24667 0.13100
C 	C 	0.99925 0.00102 0.25120 0.12800
C 	C 	0.02875 0.94700 0.23086 -0.19900
C 	C 	0.60408 0.97226 0.34138 -0.18400
C 	C 	0.68771 0.02032 0.32716 0.12700
C 	C 	0.03309 0.41093 0.35598 -0.10000
C 	C 	0.99232 0.32734 0.33913 0.06000
C 	C 	0.08224 0.00105 0.35508 -0.06400
C 	C 	0.02736 0.02943 0.33474 0.02900
C 	C 	0.46847 0.03557 0.59587 -0.13500
C 	C 	0.47770 0.04074 0.56242 0.03300
C 	C 	0.48980 0.04884 0.52334 0.03000
C 	C 	0.49902 0.05396 0.48989 -0.13000
C 	C 	0.94061 0.48297 0.59059 -0.09500
C 	C 	0.96952 0.52205 0.56067 0.04200
C 	C 	0.99845 0.56678 0.52513 0.04400
C 	C 	0.02733 0.60577 0.49520 -0.09900
C 	C 	0.45078 0.59183 0.49656 -0.10900
C 	C 	0.47223 0.56217 0.52579 0.03600
C 	C 	0.49485 0.52718 0.56026 0.03600
C 	C 	0.51648 0.49749 0.58945 -0.10900
C 	C 	0.88556 0.08813 0.73072 -0.11400
C 	C 	0.94047 0.05981 0.75107 0.04900
C 	C 	0.36368 0.11679 0.74440 -0.10400
C 	C 	0.28004 0.06877 0.75862 0.05700
C 	C 	0.93457 0.67827 0.72982 -0.10400
C 	C 	0.97536 0.76186 0.74666 0.05300
C 	C 	0.97500 0.52905 0.09588 -0.14200
C 	C 	0.97978 0.53858 0.06243 0.02600
C 	C 	0.98744 0.55104 0.02335 0.02100
C 	C 	0.99225 0.56057 0.98991 -0.14000
C 	C 	0.54602 0.08721 0.99530 -0.09500
C 	C 	0.50668 0.05867 0.02518 0.06300
C 	C 	0.46169 0.03033 0.06067 0.02000
C 	C 	0.42244 0.00181 0.09056 -0.02800
C 	C 	0.43509 0.57638 0.08904 -0.10900
C 	C 	0.46559 0.55563 0.05992 0.03800
C 	C 	0.50170 0.53407 0.02556 0.03300
C 	C 	0.53223 0.51313 0.99648 -0.10500
C 	C 	0.93916 0.14229 0.85495 -0.11400
C 	C 	0.96863 0.08825 0.83461 0.04700
C 	C 	0.26841 0.05572 0.83912 0.05600
C 	C 	0.35173 0.09542 0.85596 -0.09200
C 	C 	0.96173 0.75023 0.82712 0.05400
C 	C 	0.91241 0.66662 0.84139 -0.11300
