data_crystal

_cell_length_a 23.49430
_cell_length_b 20.94908
_cell_length_c 40.40000
_cell_angle_alpha 90.65083
_cell_angle_beta  90.72042
_cell_angle_gamma 113.08652

_symmetry_space_group_name_	'P 1'
_symmetry_space_group_name_H-M	'P 1'

loop_
_symmetry_equiv_pos_as_xyz
  x,y,z

loop_
_atom_site_label
_atom_site_type_symbol
_atom_site_fract_x
_atom_site_fract_y
_atom_site_fract_z
_atom_site_charge
C 	C 	0.00336 0.55843 0.49457 -0.00300
C 	C 	0.00973 0.55528 0.00776 -0.00800
H 	H 	0.00788 0.97869 0.83154 0.03900
C 	C 	0.00012 0.21231 0.19962 0.06100
C 	C 	0.00875 0.21546 0.27324 0.06700
C 	C 	0.00224 0.00238 0.27205 0.06900
C 	C 	0.00981 0.51792 0.46816 -0.10900
H 	H 	0.01299 0.78569 0.79249 0.04200
C 	C 	0.01693 0.98119 0.80453 -0.04600
C 	C 	0.00271 0.00937 0.19874 0.06600
H 	H 	0.01273 0.51414 0.55566 0.04800
C 	C 	0.01974 0.51247 0.03207 0.05200
H 	H 	0.01499 0.16316 0.79680 0.04400
H 	H 	0.01992 0.41427 0.20381 0.05000
H 	H 	0.01461 0.81716 0.27963 0.05000
H 	H 	0.02952 0.16344 0.73053 0.04200
H 	H 	0.02859 0.80094 0.73189 0.07500
H 	H 	0.02323 0.51125 0.94711 0.04900
C 	C 	0.03845 0.98698 0.73969 -0.02800
H 	H 	0.02861 0.45608 0.41570 0.08200
H 	H 	0.03917 0.65900 0.98903 0.05300
H 	H 	0.04768 0.98946 0.71271 0.03300
C 	C 	0.03788 0.38285 0.30118 -0.08900
C 	C 	0.03697 0.32402 0.18842 0.00900
C 	C 	0.03773 0.32570 0.28272 0.06600
N 	N 	0.03884 0.67006 0.52277 -0.19200
C 	C 	0.03754 0.86253 0.18887 -0.09700
C 	C 	0.03491 0.92742 0.18404 0.01700
C 	C 	0.04780 0.62617 0.00731 -0.09600
C 	C 	0.04618 0.62812 0.49869 0.05600
C 	C 	0.00453 0.91336 0.75305 -0.04200
C 	C 	0.04594 0.92921 0.27743 0.06600
C 	C 	0.04719 0.86687 0.28903 -0.08000
C 	C 	0.05442 0.39361 0.19819 -0.08300
H 	H 	0.00003 0.65351 0.53776 0.08300
N 	N 	0.99396 0.93547 0.26672 -0.16000
H 	H 	0.99825 0.81507 0.18261 0.06000
Ni	Ni	0.72598 0.34750 0.86489 1.09700
O 	O 	0.64172 0.30760 0.84097 -0.70600
Ni	Ni	0.58902 0.33301 0.87320 1.09700
O 	O 	0.76756 0.30643 0.83112 -0.36100
O 	O 	0.69252 0.19759 0.83262 -0.40900
O 	O 	0.75759 0.43238 0.83424 -0.36500
Ni	Ni	0.60819 0.20574 0.83947 1.05900
O 	O 	0.79760 0.49407 0.89424 -0.41400
O 	O 	0.62458 0.19957 0.88885 -0.42300
O 	O 	0.50875 0.28975 0.84660 -0.38200
O 	O 	0.67324 0.37339 0.89737 -0.70000
O 	O 	0.80677 0.38966 0.89147 -0.38600
O 	O 	0.54601 0.37462 0.90591 -0.36900
O 	O 	0.62234 0.48250 0.90845 -0.40900
Ni	Ni	0.70649 0.47550 0.90010 1.06600
H 	H 	0.64164 0.32757 0.81888 0.15000
H 	H 	0.67337 0.35290 0.91930 0.15100
C 	C 	0.58855 0.20929 0.91105 0.29700
O 	O 	0.69243 0.48264 0.85090 -0.42000
C 	C 	0.73988 0.24405 0.81783 0.25100
C 	C 	0.48621 0.22337 0.83839 0.25900
C 	C 	0.73206 0.47753 0.82965 0.26400
C 	C 	0.57676 0.43246 0.92249 0.29200
C 	C 	0.82248 0.45169 0.90509 0.29700
O 	O 	0.55817 0.24874 0.90428 -0.37100
O 	O 	0.51639 0.18413 0.84687 -0.41100
Ni	Ni	0.58559 0.32808 0.63721 1.09600
O 	O 	0.66148 0.36512 0.60786 -0.70800
Ni	Ni	0.72375 0.34546 0.63544 1.09800
O 	O 	0.53376 0.35716 0.60384 -0.37500
O 	O 	0.60478 0.46868 0.60493 -0.41800
O 	O 	0.55416 0.23341 0.61232 -0.36900
Ni	Ni	0.69203 0.46575 0.60301 1.06400
O 	O 	0.52482 0.18882 0.67233 -0.40500
O 	O 	0.69865 0.48228 0.65292 -0.41700
O 	O 	0.79315 0.38050 0.60189 -0.38300
O 	O 	0.65004 0.31552 0.66720 -0.69600
O 	O 	0.51251 0.29114 0.66821 -0.38400
O 	O 	0.77562 0.30282 0.66112 -0.36400
O 	O 	0.70482 0.21711 0.69062 -0.40400
Ni	Ni	0.61839 0.21608 0.67758 1.06100
H 	H 	0.65567 0.34142 0.58605 0.15000
H 	H 	0.65786 0.34503 0.68743 0.15500
C 	C 	0.74694 0.48256 0.66941 0.26900
O 	O 	0.62689 0.19303 0.62932 -0.43200
C 	C 	0.55598 0.41961 0.59128 0.29200
C 	C 	0.80643 0.44125 0.58785 0.28900
C 	C 	0.58841 0.19754 0.60635 0.28600
C 	C 	0.75285 0.23839 0.67107 0.26300
C 	C 	0.49558 0.22893 0.68072 0.25700
O 	O 	0.76902 0.43500 0.66311 -0.36700
O 	O 	0.78430 0.48568 0.59990 -0.41400
C 	C 	0.99810 0.02525 0.75130 -0.01600
C 	C 	0.09654 0.01796 0.76224 -0.02300
C 	C 	0.98707 0.02192 0.78460 -0.00900
C 	C 	0.99448 0.91077 0.78656 0.00200
C 	C 	0.08507 0.01519 0.79551 -0.01500
Ni	Ni	0.24515 0.72077 0.37827 1.09800
O 	O 	0.32294 0.76599 0.35071 -0.70600
Ni	Ni	0.38245 0.73461 0.37398 1.10000
O 	O 	0.19801 0.76368 0.34886 -0.36500
O 	O 	0.27164 0.87297 0.35868 -0.40500
O 	O 	0.22353 0.63943 0.34513 -0.38500
Ni	Ni	0.35747 0.86651 0.35230 1.06100
O 	O 	0.21078 0.63005 0.44663 -0.42400
O 	O 	0.36628 0.87202 0.40269 -0.42100
O 	O 	0.45302 0.77507 0.34172 -0.37500
O 	O 	0.30889 0.70228 0.40544 -0.70000
O 	O 	0.16516 0.66804 0.40412 -0.38000
O 	O 	0.42705 0.67775 0.39543 -0.37000
O 	O 	0.33737 0.58178 0.39470 -0.42600
Ni	Ni	0.27233 0.60634 0.41978 1.07000
H 	H 	0.31659 0.74889 0.32745 0.15200
H 	H 	0.31841 0.73265 0.42542 0.15200
C 	C 	0.41089 0.86080 0.41799 0.30200
O 	O 	0.20507 0.55775 0.38493 -0.40000
C 	C 	0.21946 0.83122 0.34405 0.24500
C 	C 	0.47287 0.84124 0.33346 0.25000
C 	C 	0.20796 0.57455 0.35365 0.27100
C 	C 	0.39583 0.61278 0.40359 0.28800
C 	C 	0.16235 0.63799 0.43323 0.30200
O 	O 	0.43124 0.81491 0.40635 -0.37700
O 	O 	0.44945 0.88333 0.34751 -0.41000
Ni	Ni	0.38573 0.74478 0.13509 1.10000
O 	O 	0.31155 0.70754 0.10289 -0.70400
Ni	Ni	0.24558 0.71827 0.13055 1.09700
O 	O 	0.43514 0.69494 0.11246 -0.37300
O 	O 	0.35039 0.59363 0.11264 -0.42800
O 	O 	0.42922 0.82921 0.10535 -0.37300
Ni	Ni	0.28087 0.61122 0.08743 1.06900
O 	O 	0.44381 0.89223 0.16614 -0.40500
O 	O 	0.21585 0.55809 0.12148 -0.39400
O 	O 	0.16724 0.65922 0.10338 -0.38100
O 	O 	0.32330 0.76976 0.15890 -0.70400
O 	O 	0.45527 0.78837 0.16873 -0.37600
O 	O 	0.19381 0.75341 0.16053 -0.36200
O 	O 	0.26149 0.86606 0.15501 -0.40800
Ni	Ni	0.35127 0.87016 0.15938 1.06300
H 	H 	0.31817 0.73763 0.08342 0.15100
H 	H 	0.31910 0.75253 0.18183 0.15200
C 	C 	0.22021 0.57481 0.15306 0.27100
O 	O 	0.35822 0.87838 0.10930 -0.41900
C 	C 	0.40815 0.62861 0.10458 0.29000
C 	C 	0.16691 0.63567 0.07271 0.30300
C 	C 	0.40310 0.86969 0.09341 0.29500
C 	C 	0.21430 0.81910 0.17004 0.24400
C 	C 	0.46670 0.85102 0.18105 0.24800
O 	O 	0.23182 0.63875 0.16257 -0.38500
O 	O 	0.21559 0.62804 0.06002 -0.42400
C 	C 	0.93275 0.07944 0.20419 -0.02800
H 	H 	0.93006 0.07844 0.17667 0.04100
C 	C 	0.93874 0.08176 0.27028 -0.02800
H 	H 	0.94117 0.08282 0.29779 0.04000
C 	C 	0.96442 0.03481 0.21923 -0.01100
C 	C 	0.96798 0.15110 0.21998 -0.01100
C 	C 	0.87024 0.05415 0.22122 -0.02100
C 	C 	0.96732 0.03568 0.25322 -0.01400
C 	C 	0.97150 0.15248 0.25389 -0.01500
C 	C 	0.87302 0.05517 0.25518 -0.02000
C 	C 	0.08108 0.29673 0.18236 0.07400
C 	C 	0.14436 0.33909 0.18386 -0.08500
C 	C 	0.16184 0.40959 0.19193 0.01300
C 	C 	0.11772 0.43668 0.19892 0.07700
N 	N 	0.05849 0.22868 0.18919 -0.16800
C 	C 	0.98497 0.27008 0.19935 -0.06500
N 	N 	0.13874 0.50380 0.19037 -0.15000
C 	C 	0.19515 0.51952 0.17724 0.00100
C 	C 	0.21115 0.46233 0.17787 -0.04900
H 	H 	0.17877 0.31803 0.17869 0.04900
H 	H 	0.94969 0.27640 0.21443 0.04900
H 	H 	0.24277 0.45387 0.16076 0.04300
H 	H 	0.08582 0.20140 0.19563 0.08000
H 	H 	0.10996 0.52975 0.18458 0.09100
C 	C 	0.61145 0.96170 0.21294 0.07400
C 	C 	0.66206 0.01824 0.20117 -0.08900
C 	C 	0.71509 0.00761 0.19230 0.02900
C 	C 	0.71923 0.94394 0.19694 0.07000
C 	C 	0.66966 0.88817 0.20997 -0.07900
C 	C 	0.61585 0.89812 0.21809 0.01200
N 	N 	0.55280 0.95183 0.20510 -0.15400
C 	C 	0.51979 0.88248 0.20402 -0.00600
C 	C 	0.55722 0.84774 0.21304 -0.04500
N 	N 	0.77847 0.95308 0.20236 -0.17000
C 	C 	0.81206 0.02217 0.20210 0.08500
C 	C 	0.77437 0.05768 0.19543 -0.09200
H 	H 	0.65929 0.06817 0.19782 0.05000
H 	H 	0.67302 0.83871 0.21395 0.05200
H 	H 	0.54820 0.79467 0.20570 0.05300
H 	H 	0.78511 0.11091 0.20319 0.05200
H 	H 	0.54079 0.98745 0.19184 0.08200
H 	H 	0.79225 0.91764 0.21460 0.08300
C 	C 	0.08496 0.98846 0.19238 0.07200
C 	C 	0.13996 0.98661 0.20520 -0.08400
C 	C 	0.14314 0.92178 0.20939 0.01100
C 	C 	0.09325 0.86065 0.20067 0.07800
N 	N 	0.06515 0.03838 0.20082 -0.16700
C 	C 	0.98224 0.94063 0.18809 -0.07000
N 	N 	0.11364 0.81218 0.19038 -0.15200
C 	C 	0.17613 0.84207 0.19180 -0.00300
C 	C 	0.19601 0.90978 0.20402 -0.05500
H 	H 	0.17885 0.03408 0.21196 0.04900
H 	H 	0.93735 0.90127 0.19386 0.04900
H 	H 	0.24069 0.95026 0.19892 0.03100
H 	H 	0.09031 0.08134 0.21594 0.08000
H 	H 	0.08843 0.77079 0.17440 0.09200
C 	C 	0.63279 0.89786 0.31657 0.08000
C 	C 	0.68440 0.88802 0.30403 -0.09100
C 	C 	0.72707 0.94232 0.28609 0.02500
C 	C 	0.71960 0.00385 0.28138 0.07400
C 	C 	0.66823 0.01389 0.29375 -0.07900
C 	C 	0.62549 0.95989 0.31187 0.00500
N 	N 	0.57733 0.84571 0.32089 -0.15000
C 	C 	0.53421 0.87343 0.31825 -0.00100
C 	C 	0.56277 0.94452 0.31296 -0.04400
N 	N 	0.77446 0.05562 0.27582 -0.16900
C 	C 	0.81724 0.02719 0.27581 0.08300
C 	C 	0.78956 0.95702 0.28359 -0.09100
H 	H 	0.69037 0.83984 0.30757 0.05400
H 	H 	0.66183 0.06163 0.28952 0.04800
H 	H 	0.53992 0.97672 0.30353 0.03300
H 	H 	0.80911 0.91886 0.27889 0.05200
H 	H 	0.56829 0.79285 0.31858 0.09100
H 	H 	0.78043 0.10381 0.26611 0.08200
C 	C 	0.09289 0.42424 0.31775 0.00900
C 	C 	0.14607 0.41143 0.31506 0.07800
C 	C 	0.14689 0.35610 0.29549 -0.09000
C 	C 	0.09158 0.31366 0.27920 0.02700
N 	N 	0.98782 0.26581 0.27960 -0.16100
C 	C 	0.07313 0.24308 0.27376 -0.08700
N 	N 	0.19627 0.46969 0.32158 -0.15300
C 	C 	0.17538 0.51974 0.32927 -0.00100
C 	C 	0.11114 0.49363 0.32567 -0.04100
H 	H 	0.99629 0.39294 0.30358 0.05800
H 	H 	0.18857 0.34612 0.29325 0.05200
H 	H 	0.10175 0.21842 0.26329 0.04800
H 	H 	0.08144 0.51682 0.33622 0.04500
H 	H 	0.94229 0.26145 0.27607 0.08100
H 	H 	0.23978 0.47086 0.32832 0.08000
C 	C 	0.09124 0.87109 0.31364 0.00700
C 	C 	0.13399 0.93495 0.32521 0.07700
C 	C 	0.13318 0.99723 0.31326 -0.09500
C 	C 	0.08858 0.99299 0.28904 0.02400
C 	C 	0.06026 0.03941 0.28623 -0.08800
N 	N 	0.18584 0.92867 0.33613 -0.15200
C 	C 	0.17705 0.86159 0.33095 -0.00300
C 	C 	0.11849 0.82373 0.31752 -0.04100
H 	H 	0.16611 0.04699 0.32240 0.05200
H 	H 	0.08328 0.09537 0.28805 0.04800
H 	H 	0.10527 0.77495 0.30401 0.04900
H 	H 	0.95131 0.89449 0.26214 0.08300
H 	H 	0.22901 0.96968 0.33913 0.07700
C 	C 	0.57135 0.14755 0.57798 -0.10800
C 	C 	0.54395 0.16011 0.54856 0.12500
C 	C 	0.51552 0.10566 0.52568 -0.09600
C 	C 	0.51843 0.04083 0.53009 0.00100
C 	C 	0.54944 0.02941 0.55821 0.05800
C 	C 	0.57559 0.08290 0.58190 -0.02500
N 	N 	0.54714 0.22469 0.54145 -0.19900
H 	H 	0.49307 0.11459 0.50362 0.05600
C 	C 	0.49238 0.98700 0.50388 0.00100
N 	N 	0.55329 0.96699 0.56293 -0.19300
H 	H 	0.59737 0.07323 0.60402 0.04100
C 	C 	0.52995 0.98573 0.47747 -0.10400
C 	C 	0.50445 0.94511 0.44901 0.13100
C 	C 	0.44031 0.90225 0.44779 -0.11800
C 	C 	0.40343 0.90073 0.47503 -0.02200
C 	C 	0.42888 0.94265 0.50316 0.05500
H 	H 	0.57876 0.01930 0.47837 0.05800
N 	N 	0.54125 0.94959 0.42264 -0.20700
H 	H 	0.35464 0.86710 0.47425 0.03200
N 	N 	0.39224 0.93995 0.52937 -0.19200
H 	H 	0.58878 0.97948 0.42435 0.08700
H 	H 	0.52314 0.92608 0.39988 0.11000
H 	H 	0.34508 0.90815 0.52834 0.07900
H 	H 	0.41032 0.96805 0.55124 0.08700
H 	H 	0.57656 0.95918 0.58371 0.07800
H 	H 	0.53295 0.92551 0.54626 0.08500
H 	H 	0.57763 0.26844 0.55418 0.07800
H 	H 	0.52261 0.23224 0.52114 0.08400
C 	C 	0.85665 0.46624 0.56367 -0.11300
C 	C 	0.91868 0.47840 0.57260 0.13000
C 	C 	0.96545 0.50621 0.54921 -0.09100
C 	C 	0.95222 0.52679 0.51811 0.00600
C 	C 	0.89052 0.51632 0.50952 0.05600
C 	C 	0.84320 0.48461 0.53214 -0.02600
N 	N 	0.93402 0.46578 0.60374 -0.20400
N 	N 	0.87655 0.53775 0.47997 -0.19200
H 	H 	0.79585 0.47612 0.52553 0.01800
C 	C 	0.05831 0.54560 0.44579 0.12800
C 	C 	0.10381 0.61335 0.45141 -0.11300
C 	C 	0.09681 0.65437 0.47744 -0.02100
H 	H 	0.97627 0.46507 0.46466 0.06400
N 	N 	0.06044 0.50733 0.41878 -0.20800
H 	H 	0.13121 0.70662 0.48142 0.03500
H 	H 	0.09118 0.52921 0.39974 0.10300
H 	H 	0.07149 0.72084 0.52612 0.07900
H 	H 	0.83070 0.52858 0.47362 0.07700
H 	H 	0.91092 0.56508 0.46337 0.08900
H 	H 	0.90190 0.45189 0.62270 0.10700
H 	H 	0.97953 0.47273 0.60967 0.08700
C 	C 	0.42134 0.58073 0.42892 -0.12500
C 	C 	0.44174 0.61309 0.46037 0.11500
C 	C 	0.46581 0.58084 0.48372 -0.09700
C 	C 	0.46433 0.51424 0.47760 -0.00200
C 	C 	0.44128 0.48039 0.44679 0.05400
C 	C 	0.42122 0.51473 0.42249 -0.02400
N 	N 	0.43555 0.67308 0.46888 -0.20200
H 	H 	0.48306 0.60630 0.50745 0.05400
C 	C 	0.48501 0.47974 0.50422 0.00300
N 	N 	0.43834 0.41524 0.44040 -0.19200
H 	H 	0.40451 0.48949 0.39866 0.03800
C 	C 	0.44532 0.45090 0.53060 -0.10300
C 	C 	0.46693 0.42949 0.55925 0.13300
C 	C 	0.52872 0.43403 0.56068 -0.12400
C 	C 	0.56694 0.45834 0.53332 -0.02100
C 	C 	0.54609 0.48227 0.50526 0.05200
H 	H 	0.39831 0.44830 0.52950 0.05300
N 	N 	0.42887 0.40703 0.58553 -0.20500
H 	H 	0.61386 0.46057 0.53426 0.00100
N 	N 	0.58508 0.50818 0.47963 -0.19200
H 	H 	0.38308 0.40280 0.58390 0.08200
H 	H 	0.44443 0.39520 0.60800 0.10000
H 	H 	0.63028 0.51035 0.48079 0.07400
H 	H 	0.57102 0.52591 0.45826 0.08700
H 	H 	0.42162 0.39091 0.41750 0.07900
H 	H 	0.45220 0.38794 0.45802 0.08500
H 	H 	0.40811 0.69195 0.45487 0.06700
H 	H 	0.45463 0.69887 0.49117 0.08100
C 	C 	0.88387 0.07239 0.71535 0.07400
C 	C 	0.82845 0.06089 0.69821 -0.08200
C 	C 	0.82546 0.11547 0.67946 0.01000
C 	C 	0.87548 0.17939 0.67843 0.07800
C 	C 	0.93074 0.19064 0.69600 -0.08700
C 	C 	0.93313 0.13614 0.71495 0.02300
N 	N 	0.90379 0.02203 0.72231 -0.16700
C 	C 	0.96569 0.05332 0.72765 0.07800
C 	C 	0.98585 0.12423 0.72189 -0.07800
N 	N 	0.85541 0.23025 0.67252 -0.15000
C 	C 	0.79300 0.19937 0.67015 0.00100
C 	C 	0.77251 0.12819 0.67449 -0.04800
H 	H 	0.78941 0.01145 0.69926 0.04900
H 	H 	0.96962 0.24031 0.69552 0.05400
H 	H 	0.72708 0.09549 0.68322 0.03800
H 	H 	0.87562 0.97199 0.72952 0.07800
H 	H 	0.88002 0.28245 0.67906 0.09400
C 	C 	0.33393 0.16064 0.69703 0.08000
C 	C 	0.27928 0.17075 0.70298 -0.09300
C 	C 	0.24267 0.13544 0.72941 0.02600
C 	C 	0.25961 0.09118 0.74899 0.07000
C 	C 	0.31491 0.08215 0.74336 -0.08000
C 	C 	0.35065 0.11611 0.71640 0.00600
N 	N 	0.38443 0.20907 0.68367 -0.15000
C 	C 	0.43352 0.19671 0.69494 -0.00400
C 	C 	0.41440 0.13856 0.71483 -0.04400
N 	N 	0.20883 0.04101 0.76116 -0.16700
C 	C 	0.15958 0.05161 0.74881 0.08100
C 	C 	0.17866 0.11058 0.72960 -0.09500
H 	H 	0.26588 0.20484 0.68767 0.05300
H 	H 	0.32863 0.04853 0.75882 0.04800
H 	H 	0.44363 0.12669 0.73258 0.02400
H 	H 	0.14988 0.12262 0.71164 0.05200
H 	H 	0.38676 0.25605 0.67396 0.09000
H 	H 	0.20706 0.99412 0.77072 0.08000
C 	C 	0.82104 0.65719 0.69379 0.07700
C 	C 	0.82512 0.71923 0.70912 -0.09100
C 	C 	0.88207 0.76146 0.72361 0.02900
C 	C 	0.93297 0.74411 0.72212 0.07000
C 	C 	0.92927 0.68243 0.70667 -0.07900
C 	C 	0.87220 0.63973 0.69226 0.00700
N 	N 	0.76864 0.59977 0.69199 -0.15300
C 	C 	0.78554 0.54532 0.68831 -0.00300
C 	C 	0.84988 0.56837 0.68984 -0.03900
N 	N 	0.98541 0.80113 0.72550 -0.16700
C 	C 	0.96827 0.85506 0.73064 0.09200
C 	C 	0.90401 0.83239 0.72774 -0.09300
H 	H 	0.78528 0.73291 0.71055 0.05200
H 	H 	0.96889 0.66826 0.70593 0.05200
H 	H 	0.87639 0.53923 0.68147 0.05400
H 	H 	0.87713 0.85981 0.73751 0.05100
H 	H 	0.72467 0.59903 0.68686 0.08400
C 	C 	0.10917 0.61127 0.05319 -0.11200
C 	C 	0.09743 0.65476 0.02993 0.12300
C 	C 	0.06925 0.54120 0.05474 -0.02200
N 	N 	0.13362 0.72378 0.02916 -0.20300
C 	C 	0.96080 0.52624 0.98202 0.00800
N 	N 	0.98244 0.44387 0.03359 -0.18800
H 	H 	0.07807 0.50831 0.07293 0.04000
C 	C 	0.97619 0.50639 0.95125 -0.09400
C 	C 	0.93196 0.48264 0.92546 0.13400
C 	C 	0.87050 0.47573 0.93124 -0.12500
C 	C 	0.85498 0.49463 0.96217 -0.02200
C 	C 	0.89964 0.52043 0.98759 0.05300
N 	N 	0.94931 0.46891 0.89507 -0.20500
H 	H 	0.80790 0.48960 0.96640 0.00900
N 	N 	0.88351 0.53939 0.01722 -0.19100
H 	H 	0.99432 0.47215 0.89141 0.08600
H 	H 	0.91935 0.45755 0.87455 0.10400
H 	H 	0.83816 0.53483 0.02105 0.07700
H 	H 	0.91553 0.55876 0.03671 0.08900
H 	H 	0.99048 0.41269 0.05155 0.08500
H 	H 	0.94507 0.42081 0.01718 0.08800
H 	H 	0.16920 0.74720 0.04657 0.07900
H 	H 	0.12547 0.75521 0.01137 0.08000
C 	C 	0.43216 0.91545 0.06546 -0.11000
C 	C 	0.39610 0.92446 0.03892 0.12000
C 	C 	0.42441 0.97548 0.01529 -0.09900
C 	C 	0.48848 0.01450 0.01652 0.00100
C 	C 	0.52496 0.00347 0.04225 0.06000
C 	C 	0.49631 0.95430 0.06656 -0.02700
N 	N 	0.33502 0.88282 0.03529 -0.20200
H 	H 	0.39678 0.98329 0.99526 0.05500
C 	C 	0.51716 0.06479 0.98990 0.00000
N 	N 	0.58735 0.03974 0.04377 -0.19300
H 	H 	0.52396 0.94722 0.08679 0.05100
C 	C 	0.52734 0.13483 0.99496 -0.09600
C 	C 	0.55545 0.18413 0.97055 0.12500
C 	C 	0.56951 0.16186 0.93956 -0.10900
C 	C 	0.56007 0.09184 0.93476 -0.02200
C 	C 	0.53467 0.04322 0.95973 0.05900
H 	H 	0.51499 0.15140 0.01835 0.05500
N 	N 	0.57086 0.25265 0.97751 -0.20000
H 	H 	0.57122 0.07468 0.91120 0.03700
N 	N 	0.52715 0.97605 0.95452 -0.19300
H 	H 	0.55708 0.26823 0.99961 0.08400
H 	H 	0.59980 0.29112 0.96217 0.08000
H 	H 	0.53965 0.96052 0.93203 0.07800
H 	H 	0.50961 0.93879 0.97274 0.08600
H 	H 	0.61382 0.03134 0.06291 0.08400
H 	H 	0.61028 0.07625 0.02601 0.08700
H 	H 	0.31430 0.83932 0.04993 0.07500
H 	H 	0.30824 0.89171 0.01646 0.08000
C 	C 	0.43700 0.59800 0.08046 -0.12300
C 	C 	0.45030 0.62431 0.04801 0.11500
C 	C 	0.47599 0.59225 0.02543 -0.09700
C 	C 	0.48369 0.53129 0.03365 0.00000
C 	C 	0.46946 0.50423 0.06586 0.05400
C 	C 	0.44715 0.53864 0.08913 -0.02200
N 	N 	0.43622 0.67831 0.03794 -0.20300
H 	H 	0.48722 0.61288 0.00076 0.05500
C 	C 	0.50469 0.49522 0.00785 -0.00100
N 	N 	0.47616 0.44488 0.07443 -0.19200
H 	H 	0.43635 0.51825 0.11386 0.03800
C 	C 	0.56720 0.50506 0.00737 -0.09400
C 	C 	0.59038 0.47912 0.98091 0.11300
C 	C 	0.55123 0.44751 0.95333 -0.10900
C 	C 	0.48801 0.43445 0.95459 -0.02100
C 	C 	0.46405 0.45674 0.98198 0.05800
H 	H 	0.59784 0.53280 0.02769 0.05400
N 	N 	0.64957 0.48308 0.98249 -0.20000
H 	H 	0.45759 0.40814 0.93395 0.04900
N 	N 	0.40220 0.44111 0.98333 -0.19200
H 	H 	0.67899 0.50925 0.00222 0.07200
H 	H 	0.66588 0.45714 0.96522 0.03300
H 	H 	0.37281 0.41459 0.96366 0.08100
H 	H 	0.38241 0.45298 0.00428 0.08100
H 	H 	0.46582 0.42559 0.09834 0.07900
H 	H 	0.49102 0.41693 0.05752 0.08500
H 	H 	0.40948 0.69732 0.05226 0.06300
H 	H 	0.44915 0.69942 0.01455 0.08000
C 	C 	0.85706 0.20056 0.78436 0.08000
C 	C 	0.91442 0.20266 0.79583 -0.08800
C 	C 	0.91782 0.14072 0.80614 0.02300
C 	C 	0.86760 0.07781 0.80242 0.07200
C 	C 	0.81181 0.07473 0.78831 -0.08100
C 	C 	0.80698 0.13713 0.77966 0.01200
N 	N 	0.83678 0.25038 0.79251 -0.15100
C 	C 	0.77443 0.21945 0.79415 0.00000
C 	C 	0.75438 0.14966 0.78512 -0.05000
N 	N 	0.88711 0.02573 0.79953 -0.16700
C 	C 	0.94958 0.05510 0.80058 0.07700
C 	C 	0.97041 0.12661 0.80486 -0.07700
H 	H 	0.95395 0.25156 0.79862 0.05400
H 	H 	0.77291 0.02548 0.78483 0.04700
H 	H 	0.71086 0.11006 0.79267 0.03700
H 	H 	0.86369 0.29578 0.80564 0.09600
H 	H 	0.86116 0.97744 0.78850 0.07700
C 	C 	0.21668 0.07716 0.84847 0.07000
C 	C 	0.27208 0.06800 0.85382 -0.08100
C 	C 	0.32745 0.12639 0.85183 0.01000
C 	C 	0.32854 0.18877 0.84031 0.08200
C 	C 	0.27378 0.19582 0.83095 -0.09100
C 	C 	0.21762 0.14075 0.83778 0.02700
N 	N 	0.16425 0.02521 0.83803 -0.16900
C 	C 	0.13204 0.05465 0.82050 0.08200
C 	C 	0.16342 0.12626 0.81988 -0.09000
N 	N 	0.38383 0.22598 0.82731 -0.15200
C 	C 	0.41936 0.18895 0.83160 -0.00300
C 	C 	0.38423 0.12488 0.84520 -0.04500
H 	H 	0.27210 0.01670 0.85693 0.04900
H 	H 	0.27483 0.23999 0.81688 0.05400
H 	H 	0.15769 0.15882 0.80056 0.05400
H 	H 	0.40269 0.09073 0.85702 0.04900
H 	H 	0.15965 0.97385 0.83457 0.07900
H 	H 	0.40035 0.27912 0.82268 0.08900
C 	C 	0.84306 0.62147 0.79118 0.08000
C 	C 	0.90525 0.66504 0.79766 -0.08600
C 	C 	0.91853 0.73235 0.80984 0.02100
C 	C 	0.87241 0.75778 0.81254 0.07100
C 	C 	0.81053 0.71540 0.80490 -0.08400
C 	C 	0.79653 0.64651 0.79464 0.01100
N 	N 	0.82072 0.55314 0.79741 -0.15100
C 	C 	0.76100 0.53433 0.80621 -0.00000
C 	C 	0.74411 0.59096 0.80414 -0.04900
N 	N 	0.89620 0.82708 0.80890 -0.16800
C 	C 	0.95736 0.84609 0.80370 0.07200
C 	C 	0.97305 0.78866 0.80440 -0.07400
H 	H 	0.94168 0.64607 0.79468 0.05400
H 	H 	0.77442 0.73502 0.80727 0.04800
H 	H 	0.70723 0.59638 0.81820 0.04600
H 	H 	0.84852 0.52706 0.80486 0.09700
H 	H 	0.87065 0.85540 0.80098 0.08000
