data_crystal

_cell_length_a 27.31401
_cell_length_b 29.13636
_cell_length_c 27.34828
_cell_angle_alpha 61.25787
_cell_angle_beta  118.44746
_cell_angle_gamma 133.13181

_symmetry_space_group_name_	'P 1'
_symmetry_space_group_name_H-M	'P 1'

loop_
_symmetry_equiv_pos_as_xyz
  x,y,z

loop_
_atom_site_label
_atom_site_type_symbol
_atom_site_fract_x
_atom_site_fract_y
_atom_site_fract_z
_atom_site_charge
C 	C 	0.00477 0.97652 0.97509 0.34200
O 	O 	0.00987 0.99306 0.14473 -0.56900
C 	C 	0.00548 0.97435 0.47749 0.33900
C 	C 	0.01289 0.96982 0.89241 -0.04300
C 	C 	0.01024 0.96524 0.39431 -0.04400
O 	O 	0.00125 0.71654 0.78073 -0.27400
H 	H 	0.00713 0.71707 0.81918 0.15700
O 	O 	0.03850 0.26839 0.57076 -0.27800
H 	H 	0.02987 0.25829 0.06355 0.17300
Co	Co	0.04286 0.01331 0.22964 1.18200
O 	O 	0.01464 0.96078 0.30927 -0.36600
O 	O 	0.02184 0.93465 0.11222 -0.75600
O 	O 	0.00984 0.81563 0.15045 -0.39400
O 	O 	0.02637 0.01161 0.64404 -0.57900
O 	O 	0.02353 0.97103 0.80745 -0.36300
O 	O 	0.03642 0.94859 0.61530 -0.75100
O 	O 	0.03120 0.83090 0.66298 -0.37600
C 	C 	0.02060 0.71526 0.24574 -0.01700
H 	H 	0.05923 0.27157 0.61124 0.16500
C 	C 	0.04410 0.82372 0.20271 0.32200
Co	Co	0.03617 0.89282 0.07997 1.17200
O 	O 	0.05575 0.10821 0.26893 -0.40300
O 	O 	0.04656 0.85917 0.22236 -0.38600
O 	O 	0.05516 0.97059 0.00960 -0.39300
Co	Co	0.05641 0.02945 0.72969 1.18500
Co	Co	0.04661 0.90032 0.58668 1.17000
O 	O 	0.06123 0.11363 0.77625 -0.39700
O 	O 	0.05732 0.97043 0.51063 -0.39500
H 	H 	0.04621 0.95442 0.92040 0.06500
H 	H 	0.04418 0.95047 0.42178 0.06300
H 	H 	0.03952 0.64695 0.16240 0.16500
C 	C 	0.04441 0.67975 0.25866 0.12500
Co	Co	0.06825 0.95092 0.17722 1.19100
C 	C 	0.07054 0.84719 0.71198 0.32300
O 	O 	0.07089 0.88346 0.72833 -0.38200
C 	C 	0.06651 0.74897 0.77627 0.19900
H 	H 	0.05999 0.66185 0.80730 0.08000
C 	C 	0.06732 0.78220 0.24241 -0.12600
Co	Co	0.08776 0.97219 0.67746 1.19000
C 	C 	0.10625 0.14111 0.24460 0.33000
O 	O 	0.10177 0.98734 0.24292 -0.45200
C 	C 	0.09213 0.71413 0.79201 -0.11300
O 	O 	0.08725 0.68734 0.16497 -0.27200
O 	O 	0.11541 0.11116 0.22939 -0.38300
C 	C 	0.11562 0.15034 0.75571 0.32900
O 	O 	0.10658 0.35558 0.71712 -0.27000
H 	H 	0.11151 0.37478 0.67698 0.16300
H 	H 	0.10631 0.67972 0.70980 0.07600
C 	C 	0.10576 0.81625 0.75209 -0.12000
H 	H 	0.10723 0.57810 0.71056 0.15500
O 	O 	0.11397 0.22526 0.13154 -0.28700
H 	H 	0.11702 0.33143 0.26877 0.07900
O 	O 	0.12153 0.01128 0.74123 -0.46100
O 	O 	0.12598 0.12603 0.73441 -0.38400
C 	C 	0.14145 0.24869 0.17815 0.19400
H 	H 	0.13825 0.33095 0.12820 0.07300
C 	C 	0.12616 0.67057 0.21380 0.14000
C 	C 	0.11533 0.71135 0.26813 0.00900
O 	O 	0.13581 0.42644 0.28215 -0.27600
O 	O 	0.13982 0.93767 0.12321 -0.39500
H 	H 	0.14557 0.46398 0.72452 0.06900
C 	C 	0.14758 0.67868 0.74464 -0.10000
O 	O 	0.14503 0.62439 0.69878 -0.28000
C 	C 	0.15308 0.30635 0.17062 -0.11200
C 	C 	0.15173 0.21200 0.23376 -0.12900
C 	C 	0.15075 0.37888 0.24387 -0.09100
H 	H 	0.15422 0.24310 0.11957 0.15500
C 	C 	0.13985 0.68007 0.26606 -0.00100
H 	H 	0.14706 0.64269 0.16999 0.07100
C 	C 	0.13839 0.81067 0.26157 0.19300
O 	O 	0.16070 0.01220 0.15322 -0.39800
O 	O 	0.15225 0.95329 0.62178 -0.39600
H 	H 	0.16577 0.26339 0.67377 0.06200
C 	C 	0.15742 0.74626 0.78485 0.01100
C 	C 	0.16471 0.43356 0.24722 0.16600
C 	C 	0.15600 0.64782 0.21073 -0.06300
C 	C 	0.16879 0.39748 0.74815 0.13900
C 	C 	0.16892 0.21655 0.76384 -0.12600
C 	C 	0.17247 0.64997 0.74393 0.16600
C 	C 	0.17425 0.84917 0.75201 -0.03600
H 	H 	0.16842 0.42901 0.32025 0.15500
C 	C 	0.16230 0.77566 0.27321 -0.11000
C 	C 	0.17907 0.26882 0.71576 -0.03300
C 	C 	0.18069 0.99527 0.13344 0.35500
O 	O 	0.17757 0.03164 0.64941 -0.38400
C 	C 	0.18176 0.45190 0.75114 -0.06400
O 	O 	0.18706 0.17748 0.86655 -0.28500
C 	C 	0.17773 0.70839 0.78885 -0.00600
C 	C 	0.18106 0.33052 0.21821 0.01100
C 	C 	0.18769 0.24014 0.28028 -0.02700
C 	C 	0.18414 0.38598 0.21173 -0.00500
C 	C 	0.18152 0.66454 0.31522 -0.09900
O 	O 	0.18474 0.87459 0.26320 -0.27700
C 	C 	0.18998 0.01428 0.62239 0.31400
C 	C 	0.19044 0.22587 0.81842 0.19800
H 	H 	0.19200 0.67138 0.35561 0.07400
H 	H 	0.19265 0.87454 0.30257 0.16100
O 	O 	0.99802 0.61544 0.25799 -0.28800
H 	H 	0.99267 0.59163 0.29800 0.14500
C 	C 	0.75237 0.32664 0.06205 0.14500
N 	N 	0.77205 0.38769 0.04990 -0.14300
C 	C 	0.73687 0.39666 0.06247 0.14700
N 	N 	0.68281 0.34500 0.08707 -0.13800
C 	C 	0.66280 0.28426 0.09880 0.14700
N 	N 	0.69814 0.27517 0.08690 -0.13000
C 	C 	0.75944 0.34704 0.54514 0.14600
N 	N 	0.68958 0.30421 0.53294 -0.12700
C 	C 	0.65043 0.31316 0.53920 0.14700
N 	N 	0.68103 0.36543 0.55680 -0.13600
C 	C 	0.75066 0.40768 0.57040 0.14500
N 	N 	0.79023 0.39862 0.56456 -0.14400
C 	C 	0.23966 0.62117 0.25358 0.14700
N 	N 	0.20670 0.56607 0.23861 -0.13400
C 	C 	0.24400 0.55408 0.23334 0.14400
N 	N 	0.31348 0.59719 0.24254 -0.14500
C 	C 	0.34617 0.65274 0.25577 0.14700
N 	N 	0.30938 0.66485 0.26141 -0.12800
C 	C 	0.26530 0.63560 0.78013 0.14900
N 	N 	0.23507 0.57326 0.78294 -0.14000
C 	C 	0.26888 0.55989 0.77413 0.15100
N 	N 	0.33143 0.60870 0.76140 -0.13100
C 	C 	0.36295 0.66997 0.76140 0.15300
N 	N 	0.32987 0.68363 0.77055 -0.14000
Co	Co	0.91970 0.98854 0.13448 1.18900
Co	Co	0.95273 0.93614 0.07819 1.18200
Co	Co	0.95341 0.05236 0.22703 1.16500
O 	O 	0.97564 0.01866 0.19302 -0.76300
O 	O 	0.88525 0.94964 0.07033 -0.45900
C 	C 	0.92584 0.10920 0.10280 0.32300
C 	C 	0.99019 0.97192 0.33126 0.26500
C 	C 	0.88390 0.80967 0.05987 0.32300
O 	O 	0.96959 0.12328 0.15183 -0.39300
O 	O 	0.90986 0.06466 0.08439 -0.37800
O 	O 	0.93987 0.97798 0.29967 -0.37600
O 	O 	0.93429 0.84285 0.03539 -0.41500
O 	O 	0.88533 0.83634 0.08857 -0.39400
C 	C 	0.81621 0.93366 0.19340 0.32600
O 	O 	0.84869 0.99479 0.19008 -0.39400
O 	O 	0.83924 0.91750 0.17608 -0.39900
O 	O 	0.97109 0.97977 0.99506 -0.38300
Co	Co	0.93554 0.00670 0.63311 1.18400
Co	Co	0.96565 0.94760 0.58257 1.18300
Co	Co	0.96213 0.06223 0.72802 1.16500
O 	O 	0.98886 0.03383 0.69288 -0.76800
O 	O 	0.90084 0.96633 0.57026 -0.45600
C 	C 	0.94628 0.12966 0.60517 0.31700
C 	C 	0.99434 0.97730 0.82938 0.27000
C 	C 	0.89642 0.81408 0.57947 0.33100
O 	O 	0.98548 0.13826 0.65672 -0.40000
O 	O 	0.92650 0.08377 0.58565 -0.37800
O 	O 	0.94392 0.98324 0.79679 -0.38000
O 	O 	0.94186 0.84365 0.55073 -0.41300
O 	O 	0.90013 0.84696 0.60299 -0.39500
C 	C 	0.82650 0.94918 0.68582 0.33700
O 	O 	0.85943 0.00950 0.68501 -0.42100
O 	O 	0.85337 0.93388 0.67240 -0.38800
O 	O 	0.97564 0.98167 0.49770 -0.38800
C 	C 	0.98972 0.98483 0.91559 -0.13700
H 	H 	0.95535 0.99897 0.88716 0.08700
C 	C 	0.98756 0.98018 0.41812 -0.14500
H 	H 	0.95223 0.99328 0.39029 0.09000
C 	C 	0.27715 0.42251 0.81710 -0.09900
C 	C 	0.21859 0.38475 0.77897 -0.00400
C 	C 	0.24318 0.49256 0.78591 -0.05700
C 	C 	0.28814 0.47459 0.82221 0.16600
C 	C 	0.20788 0.32966 0.77412 0.01100
O 	O 	0.34567 0.51091 0.85987 -0.26700
H 	H 	0.31451 0.41176 0.84256 0.07400
C 	C 	0.19953 0.32583 0.72089 0.11800
C 	C 	0.20715 0.28108 0.82325 -0.11600
O 	O 	0.20892 0.37657 0.67364 -0.27700
H 	H 	0.21726 0.28507 0.86496 0.07900
H 	H 	0.33080 0.49107 0.89592 0.15300
H 	H 	0.25838 0.40416 0.67381 0.15100
H 	H 	0.23322 0.18694 0.87964 0.15500
C 	C 	0.63755 0.82001 0.68362 -0.11300
C 	C 	0.63376 0.82641 0.72920 0.01200
C 	C 	0.69465 0.86646 0.76486 0.11700
C 	C 	0.75845 0.90122 0.75378 -0.02500
C 	C 	0.76210 0.89891 0.70561 -0.12900
C 	C 	0.70142 0.85688 0.67118 0.20000
C 	C 	0.56613 0.79066 0.73996 -0.00400
O 	O 	0.69184 0.87186 0.81047 -0.27100
H 	H 	0.80508 0.93278 0.78098 0.05500
O 	O 	0.70427 0.85245 0.62499 -0.28400
H 	H 	0.59089 0.78770 0.65702 0.07700
C 	C 	0.51958 0.80599 0.70059 0.13100
C 	C 	0.45461 0.77005 0.71048 -0.06100
C 	C 	0.43580 0.71881 0.75932 -0.05900
C 	C 	0.48445 0.70708 0.80075 0.16800
C 	C 	0.54870 0.74198 0.79041 -0.09300
O 	O 	0.53795 0.85664 0.65309 -0.27200
H 	H 	0.41778 0.78007 0.67888 0.06900
O 	O 	0.46764 0.65885 0.84991 -0.26800
H 	H 	0.58482 0.73079 0.82139 0.08400
H 	H 	0.69913 0.88541 0.59210 0.15500
H 	H 	0.52137 0.83716 0.62225 0.15000
H 	H 	0.48140 0.68007 0.87812 0.15500
H 	H 	0.68846 0.90838 0.79503 0.15300
C 	C 	0.23072 0.70611 0.83425 0.14000
C 	C 	0.25590 0.67775 0.83334 -0.06300
C 	C 	0.22850 0.65150 0.78735 -0.05900
O 	O 	0.25745 0.73090 0.87976 -0.27300
H 	H 	0.29832 0.67814 0.86743 0.06900
C 	C 	0.19961 0.81440 0.76683 0.12100
O 	O 	0.26466 0.84691 0.76168 -0.27200
H 	H 	0.20577 0.90127 0.73534 0.06600
H 	H 	0.25881 0.84975 0.72185 0.15200
H 	H 	0.29791 0.77627 0.87003 0.16400
C 	C 	0.20311 0.29963 0.27259 0.11600
O 	O 	0.23600 0.32553 0.31880 -0.27300
H 	H 	0.19871 0.21349 0.32312 0.05900
C 	C 	0.22439 0.44709 0.17684 0.13200
C 	C 	0.23546 0.50111 0.17801 -0.06300
C 	C 	0.20992 0.49554 0.21615 -0.05700
O 	O 	0.25748 0.45513 0.14519 -0.27600
H 	H 	0.26864 0.54841 0.15258 0.06800
H 	H 	0.22659 0.45188 0.10632 0.14700
H 	H 	0.28582 0.35435 0.31963 0.15300
C 	C 	0.68111 0.84977 0.27052 -0.11400
C 	C 	0.62140 0.80979 0.23467 0.01300
C 	C 	0.62668 0.80428 0.18927 0.11300
C 	C 	0.69140 0.84177 0.17805 -0.02600
C 	C 	0.75099 0.88429 0.21233 -0.12700
C 	C 	0.74576 0.88621 0.26011 0.20000
C 	C 	0.55339 0.77396 0.24470 -0.00500
O 	O 	0.56850 0.76423 0.15453 -0.27000
H 	H 	0.69486 0.83968 0.14139 0.06100
O 	O 	0.80366 0.92563 0.29539 -0.29900
H 	H 	0.67736 0.85313 0.30624 0.08500
C 	C 	0.53081 0.71929 0.29085 0.13200
C 	C 	0.46502 0.68393 0.29857 -0.06100
C 	C 	0.42051 0.70147 0.25938 -0.05600
C 	C 	0.44472 0.75845 0.21527 0.16700
C 	C 	0.51120 0.79472 0.20833 -0.09200
O 	O 	0.57280 0.70010 0.32819 -0.27400
H 	H 	0.44696 0.64046 0.33299 0.06900
O 	O 	0.40281 0.77775 0.17799 -0.27400
H 	H 	0.52921 0.83796 0.17371 0.08100
H 	H 	0.81705 0.89754 0.32733 0.16000
H 	H 	0.56224 0.66976 0.31156 0.14900
H 	H 	0.37828 0.75695 0.14586 0.15500
H 	H 	0.56116 0.72174 0.17274 0.14800
C 	C 	0.19992 0.63486 0.25933 -0.05400
C 	C 	0.21139 0.64186 0.31206 0.16700
O 	O 	0.25382 0.62889 0.36006 -0.27700
H 	H 	0.96565 0.69194 0.23368 0.04500
H 	H 	0.21723 0.79960 0.28305 0.08300
H 	H 	0.22316 0.58239 0.37842 0.15300
C 	C 	0.81652 0.29746 0.48984 -0.09300
C 	C 	0.85695 0.28180 0.54037 -0.00600
C 	C 	0.87293 0.29622 0.59059 0.12900
C 	C 	0.84574 0.32320 0.59058 -0.06300
C 	C 	0.80140 0.33468 0.54108 -0.05800
C 	C 	0.78896 0.32402 0.48996 0.16500
C 	C 	0.87778 0.24548 0.54203 0.00700
O 	O 	0.91433 0.28318 0.63987 -0.27500
H 	H 	0.85622 0.33194 0.62993 0.06500
O 	O 	0.74728 0.33672 0.44075 -0.27400
H 	H 	0.80480 0.28734 0.45085 0.07900
C 	C 	0.82928 0.17885 0.54357 0.11500
C 	C 	0.85147 0.14210 0.55606 -0.03400
C 	C 	0.92208 0.17083 0.56940 -0.12000
C 	C 	0.96978 0.23859 0.56243 0.18700
C 	C 	0.94740 0.27567 0.54834 -0.10800
O 	O 	0.76048 0.14919 0.53456 -0.26700
H 	H 	0.81421 0.09021 0.56024 0.06000
H 	H 	0.98474 0.32733 0.54537 0.07700
H 	H 	0.77870 0.38233 0.42114 0.14900
H 	H 	0.75279 0.13430 0.57299 0.14800
H 	H 	0.88251 0.23820 0.66020 0.14600
C 	C 	0.84985 0.64916 0.65050 -0.11300
C 	C 	0.81583 0.62480 0.60180 0.01100
C 	C 	0.78838 0.65424 0.55061 0.11600
C 	C 	0.80488 0.71332 0.54590 -0.02700
C 	C 	0.84859 0.74300 0.59205 -0.12800
C 	C 	0.86355 0.70686 0.64611 0.19800
C 	C 	0.81077 0.56998 0.60385 -0.00400
O 	O 	0.74471 0.62492 0.50566 -0.26800
H 	H 	0.78890 0.73878 0.50489 0.05700
O 	O 	0.89663 0.73049 0.69374 -0.27300
H 	H 	0.86733 0.62455 0.69117 0.08200
C 	C 	0.84755 0.57958 0.57310 0.13200
C 	C 	0.83283 0.52596 0.56668 -0.06500
C 	C 	0.78250 0.46284 0.59171 -0.06000
C 	C 	0.75311 0.45400 0.62896 0.16500
C 	C 	0.76603 0.50736 0.63377 -0.09800
O 	O 	0.89892 0.64111 0.55063 -0.27900
H 	H 	0.85801 0.53349 0.53993 0.06500
O 	O 	0.70869 0.39287 0.65815 -0.28000
H 	H 	0.73973 0.49981 0.65947 0.07400
H 	H 	0.85931 0.71249 0.70987 0.15400
H 	H 	0.87708 0.65244 0.51006 0.14300
H 	H 	0.73824 0.38471 0.69512 0.14900
H 	H 	0.77417 0.64521 0.47989 0.14300
C 	C 	0.37838 0.13887 0.61853 -0.11800
C 	C 	0.37628 0.13914 0.56615 0.00900
C 	C 	0.31259 0.10159 0.53073 0.12300
C 	C 	0.25163 0.06263 0.54859 -0.03400
C 	C 	0.25368 0.06112 0.60160 -0.12400
C 	C 	0.31742 0.10018 0.63634 0.19700
C 	C 	0.44107 0.17833 0.54900 -0.00300
O 	O 	0.31006 0.10081 0.47980 -0.27000
H 	H 	0.20276 0.03272 0.52161 0.05500
O 	O 	0.32066 0.09768 0.68912 -0.28600
H 	H 	0.42745 0.16805 0.64581 0.07700
C 	C 	0.46435 0.23976 0.51088 0.13500
C 	C 	0.53112 0.28134 0.50251 -0.06100
C 	C 	0.57581 0.26290 0.53352 -0.05400
C 	C 	0.55066 0.19957 0.56838 0.16700
C 	C 	0.48321 0.15737 0.57553 -0.09600
O 	O 	0.42240 0.25970 0.48267 -0.27800
H 	H 	0.54964 0.32952 0.47464 0.07000
O 	O 	0.59266 0.17964 0.59704 -0.27500
H 	H 	0.46485 0.10946 0.60396 0.07700
H 	H 	0.31879 0.13310 0.68246 0.15800
H 	H 	0.43199 0.28148 0.50821 0.15000
H 	H 	0.61531 0.19079 0.63461 0.15100
H 	H 	0.30464 0.13518 0.45058 0.15800
C 	C 	0.77645 0.25776 0.99628 -0.07700
C 	C 	0.83383 0.25957 0.03640 -0.01700
C 	C 	0.87132 0.29412 0.07876 0.13500
C 	C 	0.84844 0.32257 0.08309 -0.06800
C 	C 	0.78743 0.31551 0.04627 -0.05400
C 	C 	0.75312 0.28551 0.00112 0.15300
C 	C 	0.84891 0.21823 0.03901 0.01200
O 	O 	0.92927 0.29867 0.11685 -0.28000
H 	H 	0.87572 0.34651 0.11739 0.06600
O 	O 	0.69403 0.27929 0.96415 -0.27100
H 	H 	0.74795 0.23212 0.96303 0.07700
C 	C 	0.80630 0.15065 0.06055 0.11300
C 	C 	0.82792 0.11320 0.07403 -0.03500
C 	C 	0.89313 0.14300 0.06843 -0.12500
C 	C 	0.93269 0.20952 0.04183 0.20000
C 	C 	0.91016 0.24679 0.02672 -0.11600
O 	O 	0.74450 0.12142 0.07008 -0.26700
H 	H 	0.79625 0.06166 0.09301 0.06000
O 	O 	0.99358 0.23827 0.03104 -0.29700
H 	H 	0.94212 0.29846 0.00831 0.07800
H 	H 	0.70968 0.31856 0.93210 0.15000
H 	H 	0.75530 0.12201 0.11002 0.14700
H 	H 	0.91260 0.26050 0.14960 0.14500
C 	C 	0.79714 0.63320 0.10298 -0.10700
C 	C 	0.78312 0.62466 0.05027 -0.00100
C 	C 	0.78131 0.67111 0.99954 0.13400
C 	C 	0.80064 0.72840 0.00253 -0.04400
C 	C 	0.82748 0.74216 0.05592 -0.11800
C 	C 	0.81898 0.69181 0.10583 0.19300
C 	C 	0.77402 0.56913 0.04852 -0.00100
O 	O 	0.76309 0.66168 0.94722 -0.27400
H 	H 	0.80296 0.76557 0.96349 0.06900
O 	O 	0.83332 0.70025 0.15745 -0.28700
H 	H 	0.79405 0.59571 0.14189 0.07300
C 	C 	0.82883 0.56339 0.07434 0.12700
C 	C 	0.81889 0.50965 0.07360 -0.06300
C 	C 	0.75457 0.46154 0.04729 -0.06200
C 	C 	0.70200 0.47048 0.01719 0.16400
C 	C 	0.71120 0.52307 0.01921 -0.10200
O 	O 	0.89237 0.61079 0.09922 -0.28000
H 	H 	0.86008 0.50382 0.09599 0.06400
O 	O 	0.63996 0.42553 0.98870 -0.27400
H 	H 	0.66925 0.52780 0.99827 0.08800
H 	H 	0.88236 0.71701 0.17495 0.15600
H 	H 	0.89232 0.59636 0.14027 0.15200
H 	H 	0.64520 0.44063 0.94923 0.15300
H 	H 	0.80677 0.68075 0.93998 0.15200
C 	C 	0.48486 0.12822 0.10862 -0.09200
C 	C 	0.46511 0.14100 0.13679 -0.00600
C 	C 	0.51493 0.19417 0.16202 0.13700
C 	C 	0.58262 0.23609 0.15587 -0.06300
C 	C 	0.60007 0.22851 0.12089 -0.05400
C 	C 	0.55144 0.17267 0.09905 0.16500
C 	C 	0.39157 0.10212 0.13568 0.01400
O 	O 	0.49715 0.20613 0.19153 -0.27600
H 	H 	0.62047 0.27732 0.17495 0.07100
O 	O 	0.56829 0.16217 0.06738 -0.27300
H 	H 	0.44750 0.08565 0.09141 0.07200
C 	C 	0.34333 0.10131 0.08314 0.11100
C 	C 	0.27452 0.06720 0.08273 -0.02300
C 	C 	0.25381 0.03553 0.13438 -0.14100
C 	C 	0.30253 0.03868 0.18682 0.21000
C 	C 	0.37043 0.06967 0.18732 -0.11600
O 	O 	0.36403 0.13629 0.03240 -0.27100
H 	H 	0.23729 0.06561 0.04222 0.05300
O 	O 	0.28363 0.01073 0.23762 -0.28500
H 	H 	0.40721 0.07009 0.22789 0.08900
H 	H 	0.55537 0.18267 0.02697 0.15900
H 	H 	0.35543 0.10526 0.01821 0.14500
H 	H 	0.29198 0.04528 0.24623 0.15900
H 	H 	0.48283 0.23455 0.16247 0.15400
