data_crystal

_cell_length_a 16.51843
_cell_length_b 17.20035
_cell_length_c 44.30193
_cell_angle_alpha 90.20213
_cell_angle_beta  90.21517
_cell_angle_gamma 119.39267

_symmetry_space_group_name_	'P 1'
_symmetry_space_group_name_H-M	'P 1'

loop_
_symmetry_equiv_pos_as_xyz
  x,y,z

loop_
_atom_site_label
_atom_site_type_symbol
_atom_site_fract_x
_atom_site_fract_y
_atom_site_fract_z
_atom_site_charge
C 	C 	0.12608 0.00680 0.73531 0.28100
C 	C 	0.12215 0.04305 0.81250 0.27200
Ni	Ni	0.00528 0.06181 0.76121 1.12900
O 	O 	0.05743 0.02057 0.72859 -0.36700
O 	O 	0.05934 0.95816 0.81617 -0.34400
O 	O 	0.11480 0.09325 0.79054 -0.36100
O 	O 	0.11677 0.95275 0.75767 -0.33900
C 	C 	0.20010 0.58652 0.46626 0.28800
C 	C 	0.22628 0.49188 0.38964 0.32600
Ni	Ni	0.24760 0.67228 0.40611 1.11200
O 	O 	0.17923 0.63177 0.44663 -0.37100
O 	O 	0.23713 0.53624 0.45721 -0.37200
O 	O 	0.31540 0.69607 0.36575 -0.37400
O 	O 	0.18122 0.53501 0.39626 -0.36500
O 	O 	0.31367 0.52510 0.39693 -0.38600
O 	O 	0.28667 0.80977 0.41252 -0.36300
C 	C 	0.24982 0.47976 0.17608 0.31600
C 	C 	0.24451 0.65891 0.06764 0.31900
C 	C 	0.19417 0.71105 0.15242 0.29500
Ni	Ni	0.20756 0.55725 0.12372 1.12300
O 	O 	0.20529 0.57974 0.07986 -0.39000
O 	O 	0.23740 0.45844 0.11027 -0.37200
O 	O 	0.27887 0.77653 0.14611 -0.38300
O 	O 	0.15155 0.63666 0.13550 -0.35900
O 	O 	0.19793 0.51309 0.16610 -0.37900
O 	O 	0.27411 0.73158 0.08455 -0.38400
C 	C 	0.07509 0.89307 0.23256 0.35700
C 	C 	0.11661 0.15762 0.33059 0.32400
C 	C 	0.12403 0.89509 0.31036 0.32500
C 	C 	0.07918 0.17362 0.25083 0.30600
Ni	Ni	0.13848 0.05111 0.27924 1.09900
O 	O 	0.14463 0.96239 0.24709 -0.35800
O 	O 	0.17138 0.15767 0.30907 -0.37300
O 	O 	0.03376 0.08863 0.33364 -0.37600
O 	O 	0.14188 0.97679 0.31495 -0.34400
O 	O 	0.05191 0.84097 0.29351 -0.35700
O 	O 	0.12855 0.13244 0.24710 -0.37100
O 	O 	0.02904 0.16289 0.27574 -0.36700
O 	O 	0.00812 0.99027 0.27900 -0.65400
C 	C 	0.10163 0.24999 0.23120 -0.09900
C 	C 	0.13811 0.33564 0.24393 -0.05700
C 	C 	0.19097 0.41133 0.22631 0.17000
C 	C 	0.20490 0.40151 0.19555 -0.10500
C 	C 	0.16124 0.31636 0.18232 -0.05800
C 	C 	0.10883 0.24091 0.19992 0.16900
H 	H 	0.12914 0.34349 0.26773 0.07300
O 	O 	0.22740 0.49473 0.23904 -0.27400
H 	H 	0.16626 0.30882 0.15822 0.06200
O 	O 	0.06874 0.15778 0.18680 -0.28600
H 	H 	0.00535 0.14467 0.18079 0.15000
H 	H 	0.28951 0.50872 0.24683 0.15500
C 	C 	0.14165 0.72990 0.17529 -0.08100
C 	C 	0.18076 0.75470 0.20424 -0.06900
C 	C 	0.16362 0.81214 0.22212 0.18800
C 	C 	0.09767 0.83668 0.21280 -0.12700
C 	C 	0.04979 0.80296 0.18537 0.00200
C 	C 	0.07307 0.75140 0.16629 0.15000
H 	H 	0.23253 0.73728 0.21155 0.07200
O 	O 	0.21219 0.84489 0.24855 -0.28100
O 	O 	0.03040 0.72404 0.13864 -0.26500
H 	H 	0.06879 0.77316 0.12459 0.15500
H 	H 	0.27030 0.89940 0.24286 0.15500
C 	C 	0.18058 0.40793 0.37231 -0.10800
C 	C 	0.12438 0.32762 0.38742 -0.05400
C 	C 	0.10302 0.24548 0.37407 0.15900
C 	C 	0.13842 0.24344 0.34531 -0.10200
C 	C 	0.19144 0.32385 0.32978 -0.05900
C 	C 	0.21156 0.40546 0.34299 0.17400
H 	H 	0.10124 0.32899 0.41018 0.06100
O 	O 	0.05280 0.16812 0.38997 -0.24800
H 	H 	0.21811 0.32329 0.30753 0.06800
O 	O 	0.26251 0.48313 0.32729 -0.27700
C 	C 	0.19495 0.86926 0.31873 -0.10300
C 	C 	0.17863 0.78278 0.31218 -0.04700
C 	C 	0.24457 0.75753 0.31996 0.16100
C 	C 	0.32383 0.81594 0.33705 -0.10200
C 	C 	0.34589 0.90531 0.34013 -0.06200
C 	C 	0.28177 0.93218 0.33149 0.20000
H 	H 	0.11544 0.73532 0.30064 0.07700
O 	O 	0.23223 0.67627 0.31051 -0.26200
O 	O 	0.30313 0.01903 0.33632 -0.30600
H 	H 	0.33602 0.05139 0.31785 0.13100
H 	H 	0.18703 0.63192 0.32474 0.15600
C 	C 	0.24118 0.92616 0.46976 -0.22300
H 	H 	0.23997 0.90150 0.49298 0.08000
H 	H 	0.20099 0.86797 0.45460 0.09100
H 	H 	0.20638 0.96736 0.46994 0.09600
C 	C 	0.03067 0.64777 0.59540 0.06000
C 	C 	0.07400 0.61058 0.54490 -0.01000
C 	C 	0.12559 0.67479 0.60823 -0.18400
C 	C 	0.05186 0.52393 0.53494 0.06500
C 	C 	0.10304 0.51436 0.51122 -0.02700
C 	C 	0.17735 0.58992 0.49829 -0.09700
C 	C 	0.20835 0.67430 0.51219 0.09500
C 	C 	0.15395 0.68449 0.53425 -0.08500
H 	H 	0.08058 0.44905 0.50138 0.05100
C 	C 	0.29303 0.75563 0.50097 -0.21300
H 	H 	0.17205 0.75072 0.54231 0.05300
H 	H 	0.17798 0.73870 0.59810 0.07200
H 	H 	0.14460 0.62237 0.60342 0.07000
H 	H 	0.12783 0.68431 0.63310 0.07700
H 	H 	0.27467 0.78036 0.48053 0.08000
H 	H 	0.34786 0.73910 0.49556 0.07600
H 	H 	0.32143 0.80963 0.51828 0.07300
H 	H 	0.34369 0.69676 0.55982 0.06600
C 	C 	0.22046 0.07060 0.72453 -0.07300
C 	C 	0.29195 0.04929 0.72725 -0.10400
C 	C 	0.24190 0.15647 0.71420 0.15800
H 	H 	0.27763 0.98542 0.73636 0.10400
O 	O 	0.17555 0.18247 0.71381 -0.28300
H 	H 	0.18095 0.21132 0.73371 0.13200
C 	C 	0.07664 0.45280 0.97332 -0.02600
C 	C 	0.07635 0.44317 0.94163 0.08100
C 	C 	0.13939 0.53952 0.98837 0.02300
C 	C 	0.15297 0.51302 0.92270 -0.19600
C 	C 	0.10440 0.59435 0.99952 0.01600
C 	C 	0.15190 0.65479 0.02332 -0.00400
C 	C 	0.23499 0.66243 0.03467 -0.11800
C 	C 	0.28176 0.62983 0.01650 0.11100
C 	C 	0.23081 0.56154 0.99550 -0.10200
H 	H 	0.11969 0.68823 0.03484 0.04300
H 	H 	0.26116 0.52410 0.98558 0.05300
H 	H 	0.22136 0.52307 0.93054 0.07200
H 	H 	0.15219 0.57707 0.92446 0.07500
H 	H 	0.14493 0.49304 0.89853 0.07900
H 	H 	0.32663 0.87828 0.02758 0.08800
H 	H 	0.26493 0.38948 0.03958 0.03900
H 	H 	0.33751 0.30908 0.00042 0.06600
C 	C 	0.20957 0.07822 0.83001 -0.08800
C 	C 	0.20711 0.04711 0.85948 -0.07300
H 	H 	0.14101 0.00608 0.87042 0.07000
H 	H 	0.32575 0.58708 0.56629 0.07000
C 	C 	0.33988 0.98223 0.45950 0.13400
C 	C 	0.35847 0.87180 0.42884 0.28800
H 	H 	0.34873 0.70951 0.44571 0.15700
C 	C 	0.38180 0.65836 0.02223 -0.22200
H 	H 	0.38671 0.61111 0.03809 0.09100
H 	H 	0.41631 0.65999 0.00062 0.06900
C 	C 	0.36608 0.77857 0.35795 0.32400
Ni	Ni	0.47166 0.78879 0.41429 1.12100
Ni	Ni	0.36573 0.58696 0.43669 1.12000
O 	O 	0.43353 0.83248 0.37635 -0.37300
O 	O 	0.42731 0.64758 0.47483 -0.40000
O 	O 	0.42775 0.85995 0.43807 -0.38700
O 	O 	0.35646 0.68941 0.42575 -0.71000
C 	C 	0.31408 0.47692 0.09539 0.31000
Ni	Ni	0.42230 0.61550 0.13937 1.11300
Ni	Ni	0.36720 0.76242 0.11904 1.11900
O 	O 	0.38600 0.55553 0.09788 -0.39200
O 	O 	0.44670 0.74847 0.08791 -0.40900
O 	O 	0.32960 0.49788 0.16272 -0.37800
O 	O 	0.32965 0.64789 0.13470 -0.71800
H 	H 	0.31744 0.65770 0.15571 0.16700
H 	H 	0.32845 0.50211 0.33195 0.16700
H 	H 	0.41112 0.95337 0.35034 0.07600
C 	C 	0.44945 0.03140 0.41875 -0.05000
C 	C 	0.37090 0.96203 0.43257 -0.07000
C 	C 	0.40297 0.05536 0.47713 -0.13000
H 	H 	0.46905 0.02069 0.39650 0.03700
H 	H 	0.38352 0.06556 0.49953 0.05600
C 	C 	0.44024 0.52705 0.59550 -0.09300
C 	C 	0.45850 0.53466 0.56439 0.00600
C 	C 	0.44555 0.45770 0.54825 0.02800
C 	C 	0.43869 0.38422 0.56441 -0.02000
C 	C 	0.43595 0.38435 0.59603 -0.10300
C 	C 	0.41645 0.44672 0.61026 0.10600
C 	C 	0.44266 0.45467 0.51425 -0.17400
H 	H 	0.44496 0.33208 0.55262 0.03600
C 	C 	0.38882 0.43607 0.64294 -0.20800
H 	H 	0.44990 0.58435 0.60851 0.05500
C 	C 	0.46290 0.68024 0.54953 0.03600
C 	C 	0.37797 0.65904 0.56796 -0.17700
H 	H 	0.47156 0.79907 0.52987 0.03600
H 	H 	0.34547 0.46774 0.64754 0.07500
H 	H 	0.45180 0.46795 0.65751 0.08000
H 	H 	0.34734 0.36427 0.64874 0.08600
H 	H 	0.41436 0.49657 0.50511 0.06900
H 	H 	0.39694 0.38532 0.50610 0.06100
H 	H 	0.39808 0.67839 0.59187 0.06700
C 	C 	0.38248 0.11065 0.71860 0.19200
C 	C 	0.40098 0.19154 0.70487 -0.11800
C 	C 	0.33144 0.21568 0.70411 -0.04500
O 	O 	0.45223 0.09001 0.72247 -0.28700
H 	H 	0.34577 0.27924 0.69474 0.06200
H 	H 	0.47915 0.11415 0.74267 0.15700
H 	H 	0.41890 0.72659 0.03182 0.08700
C 	C 	0.46786 0.97917 0.01916 0.14000
C 	C 	0.44806 0.02683 0.99736 -0.12800
C 	C 	0.39649 0.88419 0.02582 -0.22500
H 	H 	0.38981 0.99167 0.98200 0.09200
H 	H 	0.41071 0.86107 0.04752 0.08300
H 	H 	0.39469 0.84017 0.00718 0.07800
C 	C 	0.40338 0.40639 0.03570 0.02900
C 	C 	0.32483 0.39548 0.05173 -0.01800
C 	C 	0.33019 0.40619 0.08322 -0.10900
C 	C 	0.39853 0.39357 0.09811 0.09500
C 	C 	0.39317 0.37962 0.00291 -0.17900
C 	C 	0.39012 0.37113 0.13105 -0.20600
H 	H 	0.45767 0.38476 0.99349 0.07000
H 	H 	0.37333 0.42208 0.98946 0.06100
H 	H 	0.31705 0.34194 0.13861 0.08800
C 	C 	0.37585 0.12337 0.86131 -0.11900
C 	C 	0.37840 0.15058 0.83137 -0.05100
C 	C 	0.29618 0.13034 0.81596 0.16100
C 	C 	0.28961 0.06843 0.87492 0.17800
O 	O 	0.30073 0.16007 0.78702 -0.28300
O 	O 	0.28587 0.04122 0.90421 -0.31300
H 	H 	0.28488 0.98320 0.90279 0.18300
H 	H 	0.30645 0.22001 0.78908 0.15400
H 	H 	0.41311 0.32128 0.13522 0.07000
H 	H 	0.47434 0.26801 0.49210 0.06400
C 	C 	0.45794 0.17435 0.88039 0.33200
O 	O 	0.47843 0.18820 0.95064 -0.36000
C 	C 	0.48459 0.24030 0.68620 0.33400
C 	C 	0.49544 0.35744 0.61255 0.29500
O 	O 	0.51455 0.32449 0.67920 -0.38700
O 	O 	0.46355 0.27119 0.61951 -0.37800
C 	C 	0.53356 0.66670 0.39765 0.32900
C 	C 	0.50141 0.72783 0.47615 0.29700
O 	O 	0.49866 0.71366 0.38669 -0.38800
O 	O 	0.54076 0.77567 0.45126 -0.38400
O 	O 	0.49408 0.61521 0.42122 -0.38100
C 	C 	0.49990 0.78311 0.17315 0.30300
C 	C 	0.52884 0.76269 0.09511 0.31800
O 	O 	0.45668 0.69616 0.17663 -0.38000
O 	O 	0.47694 0.82195 0.15060 -0.36800
O 	O 	0.53844 0.72184 0.11860 -0.36400
C 	C 	0.49372 0.11081 0.46672 0.01000
C 	C 	0.51429 0.10393 0.43623 0.02900
C 	C 	0.50452 0.62476 0.54987 0.00500
C 	C 	0.49901 0.75342 0.52974 -0.01700
H 	H 	0.51357 0.47829 0.50530 0.06100
C 	C 	0.55393 0.02278 0.03490 -0.09600
C 	C 	0.50867 0.11835 0.99365 -0.06000
H 	H 	0.54233 0.86103 0.99079 0.06300
C 	C 	0.48761 0.43276 0.05182 0.00500
C 	C 	0.48222 0.41764 0.08307 -0.09100
H 	H 	0.53336 0.61303 0.03995 0.07300
H 	H 	0.48570 0.57042 0.00262 0.06300
H 	H 	0.43480 0.43217 0.14446 0.06300
H 	H 	0.44471 0.19275 0.82069 0.06300
O 	O 	0.48138 0.25662 0.88691 -0.37600
C 	C 	0.55139 0.75254 0.50515 -0.10500
C 	C 	0.52812 0.15404 0.96293 0.27600
Ni	Ni	0.53687 0.31254 0.92826 1.11400
O 	O 	0.49778 0.13435 0.89440 -0.37900
Ni	Ni	0.54348 0.21130 0.62804 1.12000
O 	O 	0.57063 0.42258 0.62546 -0.39500
O 	O 	0.51655 0.19466 0.67197 -0.38400
H 	H 	0.55029 0.91995 0.21294 0.06400
O 	O 	0.58222 0.58776 0.34870 -0.28400
H 	H 	0.60275 0.54469 0.35477 0.14300
C 	C 	0.56945 0.16113 0.48895 0.00000
C 	C 	0.54668 0.29625 0.48382 -0.17300
C 	C 	0.60903 0.16568 0.42357 -0.17400
H 	H 	0.54546 0.28956 0.45889 0.06300
H 	H 	0.58505 0.36868 0.48932 0.05700
H 	H 	0.60688 0.16645 0.39851 0.05900
C 	C 	0.58640 0.65190 0.53306 -0.08900
C 	C 	0.59365 0.97196 0.05003 0.04600
C 	C 	0.60759 0.90767 0.03424 0.01300
C 	C 	0.60856 0.84180 0.08242 -0.11500
H 	H 	0.61568 0.78683 0.03946 0.03000
C 	C 	0.57654 0.16389 0.01600 0.06100
H 	H 	0.57323 0.28639 0.01539 0.07900
C 	C 	0.58066 0.48343 0.03690 0.00300
C 	C 	0.59926 0.55109 0.01540 0.03300
C 	C 	0.55004 0.60449 0.01633 -0.18000
H 	H 	0.54296 0.42801 0.09576 0.04900
C 	C 	0.00994 0.62492 0.56452 0.03800
H 	H 	0.63490 0.23514 0.43160 0.06200
C 	C 	0.61564 0.98520 0.08095 -0.07300
C 	C 	0.61682 0.84288 0.05093 -0.01000
H 	H 	0.61962 0.04231 0.09273 0.02500
C 	C 	0.60462 0.11603 0.03475 -0.04900
O 	O 	0.59046 0.14394 0.94720 -0.38500
O 	O 	0.57208 0.43710 0.90943 -0.36700
O 	O 	0.60278 0.38425 0.96637 -0.38800
O 	O 	0.57635 0.21555 0.58440 -0.38600
O 	O 	0.59679 0.12581 0.63263 -0.37100
C 	C 	0.58969 0.83392 0.18924 -0.10000
C 	C 	0.60033 0.89662 0.21142 -0.06200
C 	C 	0.64642 0.66770 0.36120 0.16800
C 	C 	0.62993 0.69384 0.38960 -0.11200
C 	C 	0.61249 0.11791 0.50317 -0.09300
C 	C 	0.59200 0.24803 0.49840 0.02600
H 	H 	0.59959 0.05341 0.49487 0.04800
H 	H 	0.65854 0.14304 0.43074 0.05700
C 	C 	0.61162 0.71822 0.51086 0.10300
H 	H 	0.62469 0.61617 0.53519 0.04900
C 	C 	0.63320 0.92399 0.09639 0.09100
C 	C 	0.61202 0.90715 0.00029 -0.17000
C 	C 	0.62497 0.26333 0.01780 -0.19400
H 	H 	0.64783 0.96568 0.14276 0.08300
H 	H 	0.63717 0.97502 0.99098 0.07900
C 	C 	0.64896 0.45828 0.04146 -0.08700
H 	H 	0.64527 0.41772 0.06060 0.04600
H 	H 	0.59433 0.67172 0.00664 0.06200
H 	H 	0.61248 0.68312 0.17610 0.13200
C 	C 	0.00879 0.38242 0.99042 -0.03300
H 	H 	0.01233 0.38599 0.01487 0.04900
C 	C 	0.02182 0.59340 0.98467 -0.13500
Ni	Ni	0.63835 0.40295 0.65891 1.12200
H 	H 	0.63840 0.94305 0.27234 0.15500
H 	H 	0.66487 0.68893 0.47088 0.08100
H 	H 	0.58003 0.00169 0.69189 0.07700
H 	H 	0.76006 0.42264 0.76969 0.15900
H 	H 	0.66101 0.88421 0.99283 0.06500
H 	H 	0.66043 0.28715 0.03995 0.06200
C 	C 	0.66601 0.56820 0.99294 -0.01800
H 	H 	0.67154 0.60965 0.97382 0.04200
O 	O 	0.54761 0.48796 0.83019 -0.28600
H 	H 	0.66688 0.15109 0.04849 0.03200
C 	C 	0.62489 0.46710 0.88541 0.32600
O 	O 	0.65352 0.32351 0.63271 -0.71200
H 	H 	0.65617 0.35060 0.61292 0.16100
O 	O 	0.64690 0.74236 0.16635 -0.28800
C 	C 	0.64864 0.28527 0.52407 -0.01700
C 	C 	0.68656 0.95032 0.12552 -0.16800
Ni	Ni	0.63546 0.19883 0.90652 1.11900
O 	O 	0.64616 0.30649 0.92192 -0.71200
C 	C 	0.65490 0.80301 0.18796 0.16300
H 	H 	0.66078 0.34927 0.53262 0.02900
H 	H 	0.66513 0.30381 0.94281 0.15900
C 	C 	0.66068 0.23669 0.57495 0.29200
O 	O 	0.72156 0.42723 0.75331 -0.27500
C 	C 	0.64919 0.55468 0.87301 -0.11000
H 	H 	0.57243 0.45215 0.82035 0.16000
H 	H 	0.00126 0.63791 0.99658 0.06700
H 	H 	0.03931 0.61668 0.96102 0.06600
H 	H 	0.69965 0.89672 0.13379 0.09200
C 	C 	0.68599 0.45616 0.96592 0.29500
C 	C 	0.67141 0.92409 0.23322 0.17500
H 	H 	0.69153 0.79113 0.42546 0.05800
C 	C 	0.67248 0.23261 0.54220 -0.10900
C 	C 	0.66593 0.15438 0.52952 0.09900
H 	H 	0.65850 0.06458 0.56448 0.08700
C 	C 	0.69030 0.73779 0.48983 -0.20800
H 	H 	0.63287 0.87627 0.72079 0.14400
C 	C 	0.62319 0.55954 0.84313 0.17400
O 	O 	0.67767 0.98167 0.25578 -0.27500
C 	C 	0.70064 0.77240 0.40294 -0.06900
H 	H 	0.67685 0.29175 0.99948 0.06600
H 	H 	0.62555 0.19739 0.80201 0.15400
O 	O 	0.67379 0.43036 0.87702 -0.39000
O 	O 	0.66123 0.24373 0.86452 -0.40300
C 	C 	0.66184 0.13886 0.65255 0.31800
O 	O 	0.69849 0.37119 0.69228 -0.37700
C 	C 	0.64750 0.01489 0.68387 -0.11400
C 	C 	0.70952 0.51602 0.99202 -0.10500
C 	C 	0.72217 0.72823 0.34393 -0.05300
H 	H 	0.71975 0.80642 0.48072 0.08400
O 	O 	0.66346 0.93987 0.72708 -0.30100
C 	C 	0.71933 0.48225 0.01981 0.09200
H 	H 	0.73096 0.71009 0.32121 0.05200
C 	C 	0.68678 0.06944 0.65866 -0.08400
H 	H 	0.74613 0.58741 0.76483 0.06500
C 	C 	0.72240 0.63103 0.88656 -0.06300
H 	H 	0.74141 0.62889 0.90985 0.06200
C 	C 	0.70561 0.10396 0.54590 -0.20700
H 	H 	0.74682 0.73316 0.50191 0.07000
C 	C 	0.67692 0.63598 0.82601 -0.05900
H 	H 	0.65815 0.63820 0.80268 0.06300
O 	O 	0.73291 0.48671 0.94010 -0.37900
O 	O 	0.71703 0.21863 0.66271 -0.37700
C 	C 	0.72748 0.83298 0.20895 -0.05800
O 	O 	0.72742 0.24494 0.59418 -0.37000
C 	C 	0.73464 0.89095 0.23219 -0.10600
H 	H 	0.71777 0.49772 0.55820 0.07100
H 	H 	0.72021 0.59294 0.57653 0.08000
C 	C 	0.70013 0.98738 0.70115 0.24900
C 	C 	0.78034 0.50311 0.73786 0.16100
H 	H 	0.75495 0.01089 0.12201 0.04000
O 	O 	0.68934 0.24002 0.79521 -0.28200
O 	O 	0.76375 0.50709 0.64424 -0.37000
H 	H 	0.71423 0.05770 0.53037 0.06500
C 	C 	0.78616 0.58469 0.74594 -0.05900
Ni	Ni	0.75219 0.41073 0.90746 1.12000
C 	C 	0.77528 0.83405 0.38553 0.17100
C 	C 	0.74675 0.29414 0.85650 0.33000
C 	C 	0.78819 0.41552 0.69407 0.32600
Ni	Ni	0.76832 0.32516 0.63391 1.11100
H 	H 	0.73199 0.12151 0.77410 0.07500
H 	H 	0.77714 0.80914 0.20751 0.06000
C 	C 	0.78341 0.81366 0.35537 -0.11100
C 	C 	0.75782 0.57139 0.56083 -0.20800
C 	C 	0.75731 0.70745 0.83844 -0.10100
C 	C 	0.77757 0.70681 0.86921 0.16700
C 	C 	0.74617 0.21415 0.80943 0.17200
H 	H 	0.79524 0.43509 0.04740 0.06200
O 	O 	0.77234 0.23699 0.91736 -0.38000
H 	H 	0.76242 0.60259 0.53854 0.06600
C 	C 	0.80298 0.47204 0.02614 -0.20300
C 	C 	0.80706 0.50895 0.61851 0.29400
H 	H 	0.77514 0.15108 0.55540 0.08600
C 	C 	0.77240 0.08188 0.64768 0.14400
C 	C 	0.76234 0.14891 0.79599 -0.06700
O 	O 	0.79052 0.75763 0.75311 -0.37100
H 	H 	0.02260 0.75827 0.70140 0.18100
O 	O 	0.78464 0.83437 0.80956 -0.37400
H 	H 	0.81408 0.43540 0.00739 0.06600
C 	C 	0.78850 0.25319 0.83731 -0.11700
C 	C 	0.79254 0.01413 0.69298 -0.15500
O 	O 	0.80071 0.36525 0.87304 -0.38500
O 	O 	0.79228 0.99602 0.77761 -0.32200
C 	C 	0.80925 0.91784 0.25502 0.33400
H 	H 	0.81543 0.95549 0.39429 0.14900
O 	O 	0.80642 0.12460 0.62077 -0.28700
O 	O 	0.81863 0.44129 0.61001 -0.38900
H 	H 	0.81206 0.26888 0.00419 0.05900
H 	H 	0.80958 0.18145 0.98072 0.06800
Ni	Ni	0.80571 0.88245 0.76612 1.11600
O 	O 	0.82073 0.85447 0.26875 -0.38900
O 	O 	0.82532 0.38142 0.93617 -0.40100
C 	C 	0.81795 0.78299 0.81922 0.31200
C 	C 	0.81931 0.12090 0.81044 -0.09100
C 	C 	0.82950 0.49811 0.71258 -0.11500
C 	C 	0.83234 0.30839 0.93389 0.28500
O 	O 	0.83978 0.91390 0.39804 -0.28400
C 	C 	0.82615 0.05635 0.66528 -0.03500
H 	H 	0.83071 0.81771 0.88982 0.15300
O 	O 	0.83564 0.40833 0.67144 -0.37100
O 	O 	0.83089 0.91919 0.72151 -0.35500
O 	O 	0.84940 0.94664 0.32470 -0.37300
H 	H 	0.84583 0.18862 0.62604 0.12500
C 	C 	0.84470 0.66253 0.72998 -0.11300
C 	C 	0.85736 0.87962 0.33599 0.33000
O 	O 	0.85186 0.00172 0.26475 -0.41800
C 	C 	0.85331 0.59888 0.57286 0.10200
C 	C 	0.84957 0.22867 0.85069 -0.06200
O 	O 	0.85373 0.77804 0.88201 -0.29100
C 	C 	0.85256 0.06788 0.79369 0.27500
C 	C 	0.85481 0.24145 0.99458 -0.18200
C 	C 	0.85414 0.00031 0.71382 0.30800
H 	H 	0.86502 0.53911 0.02851 0.06600
C 	C 	0.85864 0.75003 0.74053 0.32700
C 	C 	0.86214 0.16071 0.83812 0.16100
C 	C 	0.86740 0.59421 0.60399 -0.09400
H 	H 	0.88424 0.22031 0.01336 0.05400
H 	H 	0.88229 0.25774 0.87206 0.06500
O 	O 	0.88998 0.78164 0.80583 -0.37700
Ni	Ni	0.99653 0.87989 0.78074 1.11200
C 	C 	0.99956 0.37087 0.92757 -0.07000
H 	H 	0.97973 0.17265 0.84766 0.15000
H 	H 	0.99709 0.81934 0.17830 0.02900
O 	O 	0.96103 0.73407 0.69138 -0.30000
H 	H 	0.99534 0.99659 0.25766 0.13600
O 	O 	0.94375 0.10242 0.79133 -0.38800
O 	O 	0.98672 0.86499 0.23896 -0.42000
O 	O 	0.91545 0.06802 0.73020 -0.37800
O 	O 	0.94266 0.81689 0.74161 -0.39000
O 	O 	0.93170 0.94533 0.77701 -0.71500
H 	H 	0.92734 0.95934 0.79834 0.17500
Ni	Ni	0.94579 0.04509 0.29814 1.09400
Ni	Ni	0.94501 0.86399 0.28175 1.10900
O 	O 	0.92006 0.86131 0.32579 -0.40200
H 	H 	0.98675 0.14870 0.38534 0.11200
C 	C 	0.92410 0.60986 0.55292 -0.12300
C 	C 	0.95929 0.63997 0.61449 -0.04700
H 	H 	0.97288 0.65433 0.63831 0.05300
H 	H 	0.91034 0.60029 0.52885 0.05400
C 	C 	0.97071 0.44227 0.54812 -0.21100
H 	H 	0.97520 0.38116 0.54311 0.06100
H 	H 	0.90470 0.43374 0.53845 0.07300
H 	H 	0.96966 0.44864 0.57305 0.06800
H 	H 	0.89498 0.07217 0.65784 0.05000
C 	C 	0.89806 0.57758 0.69988 -0.06000
C 	C 	0.90284 0.65894 0.70731 0.16900
H 	H 	0.94264 0.57553 0.68244 0.06100
C 	C 	0.92017 0.31596 0.94457 -0.07500
C 	C 	0.93173 0.31166 0.97594 0.04200
H 	H 	0.99508 0.36771 0.90317 0.04600
H 	H 	0.96158 0.52491 0.98441 0.04400
O 	O 	0.91442 0.13132 0.85339 -0.29200
