data_crystal

_cell_length_a 18.70373
_cell_length_b 17.75278
_cell_length_c 46.61322
_cell_angle_alpha 89.63635
_cell_angle_beta  89.64290
_cell_angle_gamma 119.45020

_symmetry_space_group_name_	'P 1'
_symmetry_space_group_name_H-M	'P 1'

loop_
_symmetry_equiv_pos_as_xyz
  x,y,z

loop_
_atom_site_label
_atom_site_type_symbol
_atom_site_fract_x
_atom_site_fract_y
_atom_site_fract_z
_atom_site_charge
C 	C 	0.02397 0.84017 0.69921 0.29800
C 	C 	0.05669 0.92478 0.77763 0.27000
H 	H 	0.01047 0.04272 0.12709 0.04000
H 	H 	0.02685 0.51281 0.04991 0.07200
C 	C 	0.05115 0.56837 0.93419 0.32200
C 	C 	0.07180 0.90612 0.80711 -0.07700
C 	C 	0.09046 0.96823 0.82867 0.04700
S 	S 	0.12809 0.07753 0.81955 -0.04100
Ni	Ni	0.02850 0.11105 0.70761 1.11500
O 	O 	0.04110 0.02230 0.72589 -0.72800
H 	H 	0.05119 0.04512 0.74552 0.14700
C 	C 	0.02915 0.12152 0.17789 0.28800
Ni	Ni	0.01457 0.96893 0.20933 1.11000
C 	C 	0.06332 0.15110 0.09753 -0.00300
C 	C 	0.03817 0.11236 0.12479 -0.00700
C 	C 	0.04960 0.16318 0.14914 -0.08600
S 	S 	0.04764 0.08550 0.06745 -0.04900
C 	C 	0.98815 0.60594 0.10805 -0.00200
S 	S 	0.03394 0.50303 0.07871 -0.03000
C 	C 	0.03313 0.65241 0.35402 -0.05400
C 	C 	0.01189 0.61142 0.32741 -0.01200
C 	C 	0.98975 0.65266 0.30416 0.05900
S 	S 	0.99696 0.48512 0.28991 -0.00800
H 	H 	0.01273 0.69800 0.35971 0.05200
C 	C 	0.02068 0.52072 0.44742 -0.12800
C 	C 	0.05231 0.50466 0.49667 0.30700
H 	H 	0.03979 0.53738 0.42528 0.09600
S 	S 	0.05327 0.92958 0.62545 -0.04500
C 	C 	0.06690 0.68431 0.65781 -0.04000
C 	C 	0.07785 0.75315 0.67517 0.01600
H 	H 	0.02366 0.42638 0.66133 0.02600
C 	C 	0.05931 0.61979 0.99135 0.30700
F 	F 	0.06228 0.64764 0.01859 -0.45500
C 	C 	0.00332 0.67680 0.12518 -0.04800
C 	C 	0.03349 0.54767 0.32105 -0.01200
C 	C 	0.01005 0.76173 0.68381 -0.12100
F 	F 	0.04773 0.54524 0.90632 -0.45300
H 	H 	0.08302 0.98957 0.87381 0.05200
O 	O 	0.11046 0.93557 0.75683 -0.36100
O 	O 	0.09651 0.15090 0.24081 -0.37800
O 	O 	0.08993 0.91402 0.69315 -0.38100
O 	O 	0.06357 0.09004 0.66838 -0.38400
O 	O 	0.06950 0.08339 0.18739 -0.37700
C 	C 	0.10967 0.29224 0.11869 -0.07100
C 	C 	0.10032 0.24170 0.09447 0.00900
C 	C 	0.08537 0.25378 0.14597 0.05600
S 	S 	0.10484 0.32038 0.17606 -0.05600
C 	C 	0.09578 0.31998 0.04996 -0.02300
H 	H 	0.11239 0.42098 0.02019 0.04400
C 	C 	0.05379 0.59747 0.09717 0.03500
C 	C 	0.08749 0.53657 0.33902 0.00100
C 	C 	0.09005 0.64476 0.37128 0.05400
C 	C 	0.03818 0.77491 0.27115 0.04000
C 	C 	0.05298 0.71854 0.28787 -0.09900
C 	C 	0.07900 0.53273 0.46839 -0.09900
F 	F 	0.10732 0.51509 0.51728 -0.43000
H 	H 	0.09315 0.88342 0.63013 0.04400
C 	C 	0.12692 0.62544 0.94621 -0.09100
C 	C 	0.13165 0.64933 0.97511 -0.12600
S 	S 	0.12535 0.81450 0.91438 0.00500
H 	H 	0.13515 0.75646 0.89794 0.05000
C 	C 	0.07271 0.94211 0.85750 -0.05900
H 	H 	0.06196 0.08930 0.81496 0.03800
H 	H 	0.14130 0.09227 0.30630 0.03700
Ni	Ni	0.13839 0.01843 0.72077 1.11100
C 	C 	0.12996 0.10353 0.24906 0.29300
O 	O 	0.10750 0.02668 0.23774 -0.38300
C 	C 	0.13582 0.28546 0.06653 0.02100
H 	H 	0.13818 0.36195 0.11640 0.05700
C 	C 	0.14173 0.38900 0.03083 0.00700
C 	C 	0.12191 0.59078 0.36267 -0.08200
H 	H 	0.10803 0.49123 0.33320 0.04300
S 	S 	0.12700 0.70957 0.40206 -0.03400
H 	H 	0.13930 0.80131 0.68133 0.03700
H 	H 	0.10534 0.32389 0.78237 0.04100
C 	C 	0.08433 0.73518 0.13353 0.02100
C 	C 	0.13432 0.09318 0.66327 0.30700
O 	O 	0.14635 0.20270 0.71663 -0.38000
C 	C 	0.13504 0.66231 0.10248 -0.07100
H 	H 	0.19415 0.25579 0.35425 0.03600
S 	S 	0.12239 0.86455 0.25480 -0.04100
H 	H 	0.11517 0.72958 0.28978 0.06300
C 	C 	0.12493 0.03460 0.61362 0.05600
H 	H 	0.11812 0.99617 0.56951 0.05600
S 	S 	0.15319 0.67770 0.64602 -0.02600
H 	H 	0.18243 0.64887 0.93336 0.09600
S 	S 	0.13126 0.26784 0.79148 -0.05000
S 	S 	0.10458 0.81897 0.15778 -0.06100
C 	C 	0.18901 0.20051 0.73894 0.29400
O 	O 	0.19724 0.13162 0.74442 -0.37100
C 	C 	0.16222 0.55297 0.45893 0.31400
O 	O 	0.16657 0.50236 0.43896 -0.37600
H 	H 	0.17965 0.34022 0.18719 0.04400
C 	C 	0.14973 0.72792 0.12200 -0.02000
H 	H 	0.11135 0.88922 0.14301 0.03400
C 	C 	0.19659 0.14250 0.29616 -0.00400
H 	H 	0.13462 0.84281 0.22778 0.03800
C 	C 	0.14971 0.04797 0.58471 -0.07500
O 	O 	0.18251 0.09829 0.68450 -0.37300
C 	C 	0.20217 0.60730 0.37330 0.28200
C 	C 	0.20224 0.67246 0.08366 0.30500
C 	C 	0.21099 0.68671 0.98962 0.35300
O 	O 	0.20250 0.69477 0.05683 -0.35400
C 	C 	0.20467 0.14518 0.26627 -0.08800
H 	H 	0.19315 0.78790 0.39473 0.06100
C 	C 	0.16442 0.10250 0.63336 -0.09100
H 	H 	0.17988 0.72017 0.62020 0.04000
H 	H 	0.00392 0.66275 0.59326 0.03400
O 	O 	0.21469 0.54085 0.37920 -0.37100
C 	C 	0.22773 0.42686 0.02975 -0.08500
C 	C 	0.21729 0.30902 0.05967 -0.07000
S 	S 	0.23658 0.21221 0.34965 -0.02800
O 	O 	0.24247 0.76432 0.00085 -0.36400
O 	O 	0.22710 0.60441 0.47498 -0.33100
C 	C 	0.23238 0.30458 0.77936 0.05500
C 	C 	0.25448 0.21062 0.31259 -0.00400
O 	O 	0.25516 0.64843 0.98652 -0.38900
H 	H 	0.24704 0.27819 0.07074 0.05900
H 	H 	0.21230 0.77626 0.12691 0.05100
C 	C 	0.22093 0.12370 0.57604 0.01800
H 	H 	0.22790 0.21271 0.52650 0.06600
C 	C 	0.24771 0.28277 0.75196 -0.08700
C 	C 	0.23196 0.18070 0.62428 0.00000
C 	C 	0.04457 0.81988 0.81509 -0.00300
C 	C 	0.26279 0.37828 0.04066 0.05400
O 	O 	0.26424 0.68794 0.37184 -0.36200
C 	C 	0.27553 0.52200 0.03126 0.30800
O 	O 	0.26774 0.55772 0.05462 -0.37800
Ni	Ni	0.26759 0.52813 0.41631 1.12000
H 	H 	0.26843 0.65477 0.42085 0.14300
O 	O 	0.26891 0.67836 0.09500 -0.36600
H 	H 	0.28101 0.40161 0.28551 0.05400
C 	C 	0.27952 0.20639 0.25346 0.05800
C 	C 	0.26059 0.12577 0.54804 0.01200
C 	C 	0.26171 0.19098 0.59603 -0.00500
H 	H 	0.26249 0.23305 0.63937 0.04400
C 	C 	0.26927 0.18634 0.52681 -0.06300
Ni	Ni	0.30190 0.79615 0.03869 1.12500
S 	S 	0.28731 0.55038 0.31041 -0.03200
S 	S 	0.29727 0.20290 0.21649 -0.03300
S 	S 	0.28185 0.98921 0.56519 -0.02200
H 	H 	0.28777 0.36837 0.81885 0.05800
H 	H 	0.30725 0.23641 0.45536 0.04300
C 	C 	0.29848 0.35955 0.79656 -0.06900
C 	C 	0.03484 0.85418 0.86500 -0.01400
C 	C 	0.02187 0.78913 0.91418 -0.05800
H 	H 	0.03655 0.66083 0.85915 0.04700
O 	O 	0.97515 0.84888 0.22663 -0.37200
S 	S 	0.96604 0.79202 0.08437 0.00500
C 	C 	0.93524 0.69206 0.13331 0.05700
C 	C 	0.92548 0.75667 0.11912 -0.01900
H 	H 	0.89517 0.60291 0.16914 0.06500
C 	C 	0.82282 0.61242 0.93494 0.29000
C 	C 	0.62992 0.23689 0.96705 0.33300
C 	C 	0.89889 0.47742 0.93826 0.36300
C 	C 	0.59224 0.44316 0.97904 0.32300
C 	C 	0.67740 0.26658 0.89584 0.29100
C 	C 	0.60396 0.43124 0.87429 0.31100
Ni	Ni	0.74589 0.43183 0.96842 1.11300
Ni	Ni	0.58352 0.33576 0.92803 1.12400
Ni	Ni	0.76363 0.45690 0.89909 1.12400
O 	O 	0.81368 0.56855 0.95992 -0.35500
O 	O 	0.78327 0.57433 0.91092 -0.37500
O 	O 	0.60731 0.26855 0.89788 -0.38200
O 	O 	0.69652 0.29979 0.97873 -0.32600
O 	O 	0.57100 0.25117 0.95909 -0.38100
O 	O 	0.67449 0.43282 0.87010 -0.38700
O 	O 	0.84174 0.41703 0.95373 -0.39000
O 	O 	0.87985 0.50156 0.91436 -0.36300
O 	O 	0.56582 0.40889 0.89919 -0.36600
O 	O 	0.65034 0.43256 0.99118 -0.36800
O 	O 	0.54485 0.38986 0.95872 -0.33100
O 	O 	0.74927 0.33862 0.89472 -0.37500
O 	O 	0.69503 0.42097 0.93320 -0.71900
H 	H 	0.68171 0.46771 0.93515 0.16100
C 	C 	0.79066 0.39618 0.57155 0.28100
C 	C 	0.48328 0.26687 0.51564 0.28800
C 	C 	0.59360 0.18974 0.57897 0.30800
C 	C 	0.63102 0.49049 0.51116 0.33800
C 	C 	0.58972 0.16972 0.48084 0.33600
C 	C 	0.82134 0.38528 0.48816 0.31600
Ni	Ni	0.62159 0.36384 0.55656 1.11300
Ni	Ni	0.64689 0.35324 0.48502 1.12700
Ni	Ni	0.70194 0.25154 0.52913 1.12100
O 	O 	0.73827 0.42611 0.57377 -0.36400
O 	O 	0.76489 0.31360 0.56537 -0.37700
O 	O 	0.61077 0.24042 0.46623 -0.38600
O 	O 	0.50305 0.29892 0.54163 -0.36800
O 	O 	0.52517 0.31373 0.49290 -0.36400
O 	O 	0.80218 0.31450 0.50363 -0.37500
O 	O 	0.59934 0.26406 0.58582 -0.37000
O 	O 	0.60069 0.17339 0.55227 -0.36500
O 	O 	0.76501 0.39248 0.47256 -0.32300
O 	O 	0.63282 0.47821 0.53896 -0.37000
O 	O 	0.67812 0.47560 0.49408 -0.34800
O 	O 	0.64375 0.16574 0.49772 -0.35000
O 	O 	0.66684 0.33495 0.52398 -0.70600
H 	H 	0.72065 0.38782 0.52442 0.13500
C 	C 	0.87935 0.96827 0.68248 0.31900
C 	C 	0.92069 0.05933 0.75900 0.28500
Ni	Ni	0.94127 0.91803 0.73239 1.12500
O 	O 	0.89558 0.90905 0.69274 -0.38700
O 	O 	0.97946 0.83236 0.72205 -0.36100
O 	O 	0.98172 0.12618 0.74501 -0.36900
O 	O 	0.88291 0.98094 0.74747 -0.37300
O 	O 	0.98237 0.91312 0.77197 -0.35800
O 	O 	0.91218 0.04535 0.69397 -0.38400
C 	C 	0.51255 0.77101 0.43257 0.29700
C 	C 	0.37946 0.56518 0.36786 0.31500
C 	C 	0.36061 0.84513 0.43453 0.34400
C 	C 	0.37777 0.54381 0.46407 0.34500
Ni	Ni	0.37656 0.72384 0.39035 1.11600
Ni	Ni	0.34335 0.68758 0.45992 1.12300
O 	O 	0.38587 0.61372 0.47627 -0.36600
O 	O 	0.48684 0.74442 0.40647 -0.37700
O 	O 	0.46425 0.77912 0.45188 -0.36800
O 	O 	0.38101 0.63772 0.36098 -0.37000
O 	O 	0.36428 0.53637 0.39427 -0.39400
O 	O 	0.38919 0.83742 0.40918 -0.34900
O 	O 	0.31096 0.77673 0.44991 -0.39300
O 	O 	0.30961 0.49142 0.45053 -0.36800
O 	O 	0.31804 0.64910 0.42159 -0.71700
C 	C 	0.49283 0.67198 0.03015 0.34100
C 	C 	0.42308 0.85615 0.08710 0.28800
C 	C 	0.43939 0.88928 0.99764 0.32100
Ni	Ni	0.35976 0.67151 0.07076 1.11600
Ni	Ni	0.36950 0.69515 0.00083 1.12300
O 	O 	0.45393 0.64741 0.05549 -0.34600
O 	O 	0.48292 0.72562 0.01334 -0.39100
O 	O 	0.41137 0.81576 0.98284 -0.34100
O 	O 	0.33284 0.56801 0.01174 -0.36700
O 	O 	0.39538 0.89715 0.01869 -0.37500
O 	O 	0.43737 0.78995 0.08897 -0.36400
O 	O 	0.35097 0.84482 0.07804 -0.37200
O 	O 	0.35958 0.73339 0.03772 -0.71600
H 	H 	0.41570 0.78235 0.03916 0.15300
C 	C 	0.87920 0.00618 0.29191 0.28100
C 	C 	0.79628 0.03606 0.22042 0.30800
C 	C 	0.86748 0.84315 0.18144 0.31800
C 	C 	0.93976 0.82214 0.25240 0.28500
Ni	Ni	0.97014 0.10656 0.23901 1.11600
Ni	Ni	0.83666 0.90106 0.23779 1.12100
O 	O 	0.94661 0.07687 0.28278 -0.36000
O 	O 	0.82064 0.95709 0.27364 -0.37400
O 	O 	0.93027 0.92124 0.17867 -0.38900
O 	O 	0.97914 0.13287 0.19504 -0.35400
O 	O 	0.87646 0.83217 0.26058 -0.38300
O 	O 	0.85174 0.08893 0.23833 -0.36900
O 	O 	0.79486 0.96433 0.21255 -0.37600
O 	O 	0.81946 0.82204 0.20427 -0.37800
O 	O 	0.94782 0.99181 0.23449 -0.70700
H 	H 	0.96936 0.98381 0.25280 0.15500
S 	S 	0.98949 0.27982 0.05380 0.01100
S 	S 	0.36571 0.40941 0.03336 -0.01100
H 	H 	0.94853 0.21193 0.03554 0.04600
H 	H 	0.41151 0.45490 0.05633 0.05800
H 	H 	0.97333 0.06421 0.05556 0.05500
C 	C 	0.69120 0.13327 0.17793 -0.07200
C 	C 	0.61483 0.05865 0.17446 0.01400
C 	C 	0.59137 0.98866 0.19382 -0.00400
C 	C 	0.64980 0.98713 0.21195 0.00600
C 	C 	0.73150 0.05375 0.21051 -0.09400
C 	C 	0.75096 0.13033 0.19510 0.06100
C 	C 	0.57673 0.04222 0.14593 0.01900
S 	S 	0.49224 0.89783 0.19299 -0.02900
H 	H 	0.63332 0.93066 0.22535 0.03700
S 	S 	0.85099 0.21979 0.19511 -0.03800
H 	H 	0.70768 0.18953 0.16443 0.06000
C 	C 	0.49656 0.02864 0.14255 -0.00500
C 	C 	0.44738 0.97454 0.12068 0.00400
C 	C 	0.47936 0.93673 0.10181 -0.08300
C 	C 	0.56456 0.96627 0.10169 0.06400
C 	C 	0.61288 0.01940 0.12369 -0.06800
S 	S 	0.45701 0.07711 0.16585 -0.03000
H 	H 	0.38319 0.95712 0.11966 0.04600
S 	S 	0.61053 0.93351 0.07506 -0.02200
H 	H 	0.67677 0.03577 0.12507 0.06200
H 	H 	0.89447 0.21430 0.17222 0.05400
H 	H 	0.41490 0.02172 0.18807 0.03400
H 	H 	0.61104 0.86011 0.08402 0.05800
H 	H 	0.44292 0.90757 0.21274 0.03500
H 	H 	0.92560 0.55830 0.10288 0.05000
C 	C 	0.88809 0.79730 0.13354 0.01200
C 	C 	0.86197 0.77476 0.16215 -0.09900
C 	C 	0.85542 0.69742 0.17359 0.07000
C 	C 	0.89316 0.65718 0.15918 -0.08600
H 	H 	0.88723 0.85228 0.12364 0.04700
S 	S 	0.80007 0.64995 0.20549 -0.02600
H 	H 	0.90833 0.74265 0.06457 0.05200
H 	H 	0.71968 0.59407 0.19907 0.04300
C 	C 	0.86492 0.94748 0.37083 -0.06700
C 	C 	0.78772 0.93807 0.37781 0.01600
C 	C 	0.74733 0.96316 0.35749 -0.00600
C 	C 	0.78409 0.99633 0.33075 0.00200
C 	C 	0.85686 0.99719 0.32270 -0.07700
C 	C 	0.89777 0.97294 0.34299 0.05100
C 	C 	0.74620 0.89553 0.40534 0.01400
S 	S 	0.64770 0.94653 0.36423 -0.01600
H 	H 	0.75268 0.01539 0.31529 0.04700
S 	S 	0.98559 0.96658 0.33315 -0.02900
H 	H 	0.89690 0.92974 0.38646 0.06300
C 	C 	0.70778 0.80472 0.40848 0.00100
C 	C 	0.63839 0.76182 0.42639 0.00400
C 	C 	0.60149 0.80774 0.43771 -0.07800
C 	C 	0.65146 0.89797 0.44066 0.04900
C 	C 	0.72513 0.94159 0.42484 -0.05800
S 	S 	0.74029 0.74376 0.38808 0.00100
H 	H 	0.60516 0.69178 0.42708 0.05700
S 	S 	0.61878 0.95770 0.46126 0.01500
H 	H 	0.75949 0.01169 0.42475 0.06000
H 	H 	0.96222 0.88662 0.32200 0.04500
H 	H 	0.70197 0.72545 0.36206 0.03700
H 	H 	0.58638 0.99274 0.44273 0.05100
H 	H 	0.59115 0.86341 0.35726 0.03600
C 	C 	0.32235 0.41977 0.30357 -0.07500
C 	C 	0.35677 0.36821 0.31128 0.01500
C 	C 	0.41421 0.39470 0.33360 -0.00700
C 	C 	0.42730 0.46511 0.35060 0.00000
C 	C 	0.38432 0.51005 0.34518 -0.09700
C 	C 	0.33538 0.49024 0.32032 0.05700
C 	C 	0.32207 0.28094 0.29890 0.01400
S 	S 	0.46898 0.33967 0.34066 -0.01700
H 	H 	0.46798 0.48246 0.36882 0.04800
C 	C 	0.33858 0.27361 0.26996 -0.07100
H 	H 	0.39308 0.32495 0.25966 0.05600
H 	H 	0.33908 0.61800 0.29293 0.04100
H 	H 	0.33301 0.15252 0.21209 0.04000
H 	H 	0.42688 0.27525 0.36053 0.04900
C 	C 	0.90895 0.63785 0.30159 -0.01600
C 	C 	0.89298 0.69182 0.28390 -0.00200
C 	C 	0.95745 0.76214 0.26920 -0.06700
S 	S 	0.82751 0.55254 0.32061 -0.01200
H 	H 	0.83052 0.67974 0.28187 0.04600
H 	H 	0.81972 0.58122 0.34704 0.05200
H 	H 	0.92337 0.41273 0.29597 0.04300
C 	C 	0.48845 0.08487 0.44294 -0.09500
C 	C 	0.51932 0.08868 0.47069 -0.13000
C 	C 	0.48333 0.01448 0.48832 0.32700
C 	C 	0.42302 0.93585 0.47736 -0.08600
C 	C 	0.40023 0.93002 0.44844 -0.13500
C 	C 	0.42942 0.00582 0.43184 0.33800
F 	F 	0.40322 0.00230 0.40453 -0.44600
H 	H 	0.51273 0.14237 0.42950 0.10300
H 	H 	0.39915 0.87808 0.49066 0.08200
F 	F 	0.51078 0.01706 0.51532 -0.45000
C 	C 	0.96811 0.45965 0.50329 -0.06300
C 	C 	0.90968 0.44483 0.48199 -0.13100
C 	C 	0.93681 0.47833 0.45419 0.37200
H 	H 	0.94819 0.43436 0.52483 0.08700
F 	F 	0.88194 0.46395 0.43310 -0.43200
C 	C 	0.49549 0.48596 0.51574 -0.08700
C 	C 	0.56395 0.50183 0.49877 -0.12900
C 	C 	0.56411 0.51978 0.46921 0.33300
C 	C 	0.49683 0.52160 0.45706 -0.09400
C 	C 	0.43090 0.51063 0.47434 -0.12600
C 	C 	0.42960 0.49072 0.50365 0.34200
F 	F 	0.36513 0.47804 0.52054 -0.43500
H 	H 	0.49300 0.46954 0.53829 0.09200
H 	H 	0.49832 0.53701 0.43445 0.08600
F 	F 	0.63035 0.53799 0.45242 -0.44500
C 	C 	0.76462 0.99651 0.62360 -0.06600
C 	C 	0.69666 0.98590 0.63960 0.02100
C 	C 	0.67677 0.93929 0.66570 -0.00500
C 	C 	0.73164 0.91529 0.67736 0.00400
C 	C 	0.80809 0.94245 0.66401 -0.09300
C 	C 	0.82064 0.97529 0.63573 0.05500
C 	C 	0.65463 0.03411 0.63087 0.00400
S 	S 	0.58679 0.91622 0.68485 -0.03100
H 	H 	0.71947 0.88537 0.69849 0.04000
S 	S 	0.91022 0.99836 0.61648 -0.01500
H 	H 	0.77737 0.02769 0.60266 0.05600
C 	C 	0.68982 0.12320 0.63663 -0.00200
C 	C 	0.66211 0.17298 0.62202 -0.00600
C 	C 	0.59986 0.13465 0.60157 -0.08700
C 	C 	0.55741 0.04376 0.59902 0.04600
C 	C 	0.58616 0.99430 0.61313 -0.05700
S 	S 	0.77101 0.17370 0.66105 -0.03300
H 	H 	0.69301 0.24241 0.62504 0.04900
S 	S 	0.46609 0.99093 0.57957 0.03100
H 	H 	0.55652 0.92509 0.60973 0.05800
H 	H 	0.89517 0.92884 0.59984 0.04600
H 	H 	0.84422 0.20154 0.64683 0.04100
H 	H 	0.40186 0.95262 0.59869 0.02900
H 	H 	0.60254 0.98440 0.70229 0.04000
C 	C 	0.30737 0.08361 0.54528 0.00400
C 	C 	0.37634 0.11897 0.52699 -0.01200
C 	C 	0.39844 0.19648 0.51212 -0.07600
C 	C 	0.33667 0.21861 0.50778 0.05600
H 	H 	0.41907 0.09447 0.52792 0.06600
S 	S 	0.34346 0.28586 0.47896 0.00400
S 	S 	0.35182 0.28693 0.58632 -0.01900
H 	H 	0.33136 0.34433 0.57430 0.06200
H 	H 	0.30609 0.01138 0.59298 0.03500
C 	C 	0.97259 0.59377 0.59773 -0.02900
C 	C 	0.97487 0.56396 0.62540 -0.00100
C 	C 	0.94040 0.47441 0.63031 0.00400
C 	C 	0.88987 0.41631 0.60953 -0.00200
C 	C 	0.87173 0.44768 0.58449 -0.07700
C 	C 	0.91920 0.53645 0.57745 0.04700
C 	C 	0.98736 0.62197 0.64962 0.05300
S 	S 	0.95477 0.43475 0.66318 -0.01500
H 	H 	0.85766 0.34748 0.61425 0.04600
S 	S 	0.90346 0.57808 0.54516 -0.01900
C 	C 	0.92999 0.69671 0.67663 0.09100
C 	C 	0.91931 0.62602 0.66048 -0.09200
S 	S 	0.84315 0.70652 0.68533 -0.05100
H 	H 	0.85795 0.57743 0.65435 0.06400
H 	H 	0.97116 0.60644 0.52769 0.05700
H 	H 	0.82812 0.74824 0.66334 0.05200
C 	C 	0.98387 0.56004 0.97974 -0.06400
C 	C 	0.97943 0.53367 0.95112 -0.13200
H 	H 	0.92852 0.53627 0.99270 0.07000
C 	C 	0.56231 0.08417 0.95086 -0.09600
C 	C 	0.60857 0.14555 0.97179 -0.12100
C 	C 	0.61452 0.11638 0.99928 0.34100
C 	C 	0.56589 0.02879 0.00673 -0.09300
C 	C 	0.51134 0.96942 0.98683 -0.11600
C 	C 	0.51407 0.99652 0.95830 0.34300
F 	F 	0.46392 0.93989 0.93844 -0.43700
H 	H 	0.55732 0.10546 0.92955 0.09000
H 	H 	0.56471 0.00871 0.02875 0.09100
F 	F 	0.66101 0.17372 0.01961 -0.43700
C 	C 	0.58571 0.52612 0.02128 -0.09300
C 	C 	0.56908 0.50363 0.99218 -0.12300
C 	C 	0.53464 0.54302 0.97528 0.33300
C 	C 	0.51289 0.60029 0.98761 -0.08400
C 	C 	0.52577 0.61979 0.01698 -0.13200
C 	C 	0.56481 0.58462 0.03358 0.33700
F 	F 	0.58090 0.60550 0.06165 -0.44600
H 	H 	0.61374 0.49746 0.03446 0.10100
H 	H 	0.48397 0.62799 0.97443 0.08000
F 	F 	0.52339 0.52687 0.94675 -0.44400
C 	C 	0.76915 0.13301 0.87546 -0.06400
C 	C 	0.73422 0.10871 0.84827 0.01500
C 	C 	0.65935 0.10665 0.84265 -0.00200
C 	C 	0.62945 0.14473 0.86205 0.00200
C 	C 	0.67558 0.18695 0.88628 -0.08500
C 	C 	0.73886 0.17052 0.89479 0.05900
C 	C 	0.78148 0.09651 0.82509 0.01700
S 	S 	0.60424 0.05899 0.81126 -0.02600
H 	H 	0.57451 0.14787 0.85708 0.05100
S 	S 	0.78461 0.20281 0.92863 -0.01300
H 	H 	0.82308 0.12812 0.88078 0.06000
C 	C 	0.82748 0.16355 0.80512 -0.00600
C 	C 	0.87550 0.15235 0.78425 -0.00200
C 	C 	0.88096 0.07624 0.78380 -0.08000
C 	C 	0.84040 0.01269 0.80552 0.05100
C 	C 	0.78855 0.02176 0.82516 -0.07400
S 	S 	0.82761 0.26277 0.80661 -0.01900
H 	H 	0.90767 0.20238 0.76814 0.04800
S 	S 	0.85994 0.92616 0.81024 -0.02900
H 	H 	0.75617 0.97199 0.84135 0.06100
H 	H 	0.85364 0.28229 0.92611 0.06600
H 	H 	0.76648 0.25929 0.78968 0.03300
H 	H 	0.80401 0.85619 0.79511 0.03800
H 	H 	0.62789 0.12030 0.78993 0.03400
C 	C 	0.37912 0.39679 0.78569 0.01400
C 	C 	0.39116 0.39113 0.75607 -0.00600
C 	C 	0.32584 0.33174 0.73949 -0.00000
C 	C 	0.44674 0.41579 0.80576 0.01600
S 	S 	0.48874 0.45372 0.74016 -0.03500
H 	H 	0.33676 0.31995 0.71753 0.04400
C 	C 	0.47252 0.48289 0.82590 -0.00500
C 	C 	0.52667 0.48963 0.84770 0.00200
C 	C 	0.55718 0.43154 0.84904 -0.08800
C 	C 	0.53562 0.36832 0.82759 0.05800
C 	C 	0.48008 0.36032 0.80642 -0.07000
S 	S 	0.43910 0.55970 0.82368 -0.02400
H 	H 	0.54427 0.53934 0.86380 0.05600
S 	S 	0.57487 0.29621 0.82757 -0.03100
H 	H 	0.46069 0.30895 0.79085 0.05700
H 	H 	0.36849 0.53146 0.83959 0.04500
H 	H 	0.64709 0.33163 0.81224 0.04200
H 	H 	0.49701 0.53102 0.73089 0.03900
C 	C 	0.02389 0.79304 0.84375 -0.01400
C 	C 	0.99305 0.82527 0.89332 0.07100
S 	S 	0.97740 0.68189 0.85227 0.01000
H 	H 	0.03192 0.77210 0.79865 0.04100
C 	C 	0.96656 0.73026 0.93449 0.04100
C 	C 	0.88291 0.70536 0.93303 -0.09200
C 	C 	0.86093 0.75958 0.91781 0.06900
C 	C 	0.91525 0.81756 0.89719 -0.08800
H 	H 	0.98677 0.69734 0.94913 0.05000
S 	S 	0.76207 0.74707 0.92178 -0.01800
H 	H 	0.89477 0.85099 0.88271 0.06500
H 	H 	0.70977 0.68638 0.90291 0.05600
