data_crystal

_cell_length_a 39.25818
_cell_length_b 38.56121
_cell_length_c 22.80397
_cell_angle_alpha 89.95770
_cell_angle_beta  89.94473
_cell_angle_gamma 87.38885

_symmetry_space_group_name_	'P 1'
_symmetry_space_group_name_H-M	'P 1'

loop_
_symmetry_equiv_pos_as_xyz
  x,y,z

loop_
_atom_site_label
_atom_site_type_symbol
_atom_site_fract_x
_atom_site_fract_y
_atom_site_fract_z
_atom_site_charge
C 	C 	0.45407 0.55219 0.98053 -0.04000
C 	C 	0.48563 0.56738 0.98059 -0.04000
C 	C 	0.45198 0.51591 0.98514 0.01300
C 	C 	0.48236 0.49479 0.98977 -0.00800
C 	C 	0.51442 0.51022 0.98988 -0.00400
C 	C 	0.51607 0.54675 0.98544 0.01300
C 	C 	0.48071 0.45827 0.99428 0.00900
C 	C 	0.51115 0.43765 0.99928 -0.01500
C 	C 	0.54480 0.48910 0.99453 0.00500
C 	C 	0.54824 0.56195 0.98583 -0.01600
C 	C 	0.57807 0.54088 0.98993 -0.03600
C 	C 	0.57675 0.50479 0.99424 -0.01200
C 	C 	0.42004 0.50022 0.98516 -0.01600
C 	C 	0.41870 0.46414 0.98940 -0.03300
C 	C 	0.44853 0.44307 0.99382 -0.01900
C 	C 	0.55126 0.59994 0.98278 0.04600
C 	C 	0.55767 0.61586 0.92882 -0.05200
C 	C 	0.56531 0.65091 0.92682 -0.03400
C 	C 	0.56665 0.67024 0.97882 0.02100
C 	C 	0.55908 0.65458 0.03257 -0.05900
C 	C 	0.55148 0.61954 0.03454 -0.07700
C 	C 	0.60920 0.48392 0.99792 0.04900
C 	C 	0.62774 0.48302 0.05049 -0.07800
C 	C 	0.66163 0.47021 0.05108 -0.05400
C 	C 	0.62402 0.46968 0.94684 -0.05200
C 	C 	0.65782 0.45659 0.94749 -0.02900
C 	C 	0.67719 0.45805 0.99911 0.01200
C 	C 	0.38765 0.52114 0.98112 0.04400
C 	C 	0.37012 0.53123 0.03239 -0.07400
C 	C 	0.33714 0.54638 0.02894 -0.06500
C 	C 	0.32144 0.55151 0.97414 0.03500
C 	C 	0.33955 0.54273 0.92274 -0.04100
C 	C 	0.37251 0.52752 0.92625 -0.04800
C 	C 	0.44552 0.40509 0.99733 0.06700
C 	C 	0.44265 0.38560 0.94583 -0.07400
C 	C 	0.43549 0.35048 0.94899 0.01700
C 	C 	0.43114 0.33461 0.00371 -0.04800
C 	C 	0.43510 0.35384 0.05528 -0.00800
C 	C 	0.44217 0.38900 0.05208 -0.10000
C 	C 	0.54271 0.45285 0.99965 -0.01300
H 	H 	0.55761 0.60086 0.88867 0.04400
H 	H 	0.57100 0.66280 0.88509 0.04000
H 	H 	0.55971 0.66940 0.07288 0.03800
H 	H 	0.54658 0.60740 0.07638 0.04100
H 	H 	0.32778 0.54691 0.88022 0.04200
H 	H 	0.38591 0.51983 0.88645 0.04400
H 	H 	0.32341 0.55312 0.06886 0.04000
H 	H 	0.38165 0.52638 0.07492 0.04100
H 	H 	0.44518 0.39788 0.90339 0.05100
H 	H 	0.43272 0.33575 0.90897 0.03200
H 	H 	0.44431 0.40391 0.09205 0.04800
H 	H 	0.43187 0.34176 0.09771 0.03000
H 	H 	0.61642 0.49381 0.09020 0.04100
H 	H 	0.67626 0.47127 0.09126 0.03600
H 	H 	0.60980 0.47008 0.90612 0.04500
H 	H 	0.66941 0.44671 0.90736 0.03900
H 	H 	0.43125 0.56888 0.97678 0.04700
H 	H 	0.48622 0.59532 0.97670 0.04600
H 	H 	0.60263 0.55272 0.98986 0.04700
H 	H 	0.56551 0.43620 0.00411 0.01400
H 	H 	0.51057 0.40970 0.00308 0.01500
H 	H 	0.39414 0.45230 0.98922 0.04700
Zn	Zn	0.36569 0.13198 0.00593 1.21400
C 	C 	0.30540 0.09302 0.02263 0.29400
O 	O 	0.37017 0.11933 0.08929 -0.44500
O 	O 	0.32563 0.06879 0.04628 -0.44800
O 	O 	0.40130 0.06972 0.06850 -0.52200
C 	C 	0.37480 0.09070 0.90058 0.33200
O 	O 	0.38520 0.11748 0.93014 -0.45400
O 	O 	0.35893 0.06627 0.92787 -0.47700
C 	C 	0.39141 0.09398 0.10581 0.34800
O 	O 	0.41312 0.16716 0.01569 -0.33700
Zn	Zn	0.37126 0.05391 0.00738 1.16400
O 	O 	0.31845 0.11869 0.99335 -0.40500
C 	C 	0.39080 0.19300 0.01326 0.28900
O 	O 	0.35939 0.18469 0.00747 -0.39900
C 	C 	0.48448 0.95405 0.55574 0.01000
C 	C 	0.46193 0.98404 0.55596 0.01300
C 	C 	0.49838 0.94155 0.50257 -0.05300
C 	C 	0.48907 0.95785 0.44946 0.01000
C 	C 	0.45387 0.00128 0.50316 -0.05600
C 	C 	0.46682 0.98813 0.44983 0.01300
H 	H 	0.43574 0.02333 0.50315 0.05100
H 	H 	0.51435 0.91789 0.50216 0.05000
C 	C 	0.45546 0.00227 0.39570 -0.01400
C 	C 	0.46736 0.98857 0.34226 0.00800
C 	C 	0.46519 0.01283 0.29543 -0.05500
C 	C 	0.45215 0.04560 0.31271 0.01700
S 	S 	0.44305 0.04375 0.38428 -0.01000
H 	H 	0.47056 0.00617 0.25017 0.04500
C 	C 	0.49823 0.94272 0.39496 -0.01200
C 	C 	0.48798 0.95803 0.34181 0.00900
C 	C 	0.50779 0.94603 0.29320 -0.05700
C 	C 	0.53336 0.92144 0.30905 0.01900
S 	S 	0.53250 0.91648 0.38189 -0.01000
H 	H 	0.50586 0.95720 0.24972 0.04400
C 	C 	0.47406 0.94616 0.66104 0.00800
C 	C 	0.48964 0.93529 0.60843 -0.01200
S 	S 	0.52508 0.91192 0.62557 -0.00900
C 	C 	0.52055 0.91216 0.69841 0.01900
C 	C 	0.49116 0.93256 0.71161 -0.05600
C 	C 	0.44572 0.99415 0.60890 -0.01500
C 	C 	0.45264 0.97627 0.66151 0.01000
C 	C 	0.44636 0.99709 0.71212 -0.05900
C 	C 	0.43626 0.03133 0.69871 0.01600
S 	S 	0.43327 0.03496 0.62603 -0.00200
H 	H 	0.44744 0.98719 0.75652 0.04300
H 	H 	0.48530 0.94121 0.75575 0.04600
Zn	Zn	0.62965 0.87335 0.99614 1.22900
C 	C 	0.68777 0.91672 0.99478 0.34800
O 	O 	0.60665 0.88178 0.07187 -0.48200
O 	O 	0.66693 0.94166 0.97483 -0.44200
O 	O 	0.62835 0.93451 0.08667 -0.49200
C 	C 	0.60440 0.91424 0.90027 0.34800
O 	O 	0.62778 0.89071 0.91597 -0.45300
O 	O 	0.59212 0.93668 0.93890 -0.49700
C 	C 	0.61460 0.90677 0.10775 0.33200
O 	O 	0.58512 0.83741 0.96925 -0.32000
Zn	Zn	0.61826 0.94990 0.00723 1.16200
O 	O 	0.67555 0.88803 0.01594 -0.47000
C 	C 	0.60720 0.81189 0.97823 0.27100
O 	O 	0.63714 0.82069 0.99494 -0.36900
Zn	Zn	0.11695 0.61689 0.99927 1.23000
C 	C 	0.07162 0.67793 0.00721 0.29500
O 	O 	0.11061 0.58841 0.07020 -0.47400
O 	O 	0.04710 0.65923 0.98670 -0.42100
O 	O 	0.05879 0.61381 0.09083 -0.48600
C 	C 	0.07488 0.60042 0.90170 0.34900
O 	O 	0.09868 0.62068 0.91978 -0.44600
O 	O 	0.05533 0.58545 0.93987 -0.50300
C 	C 	0.08548 0.59466 0.10730 0.33200
O 	O 	0.15556 0.57330 0.96258 -0.31300
Zn	Zn	0.04141 0.60862 0.01219 1.16400
O 	O 	0.09976 0.66263 0.02795 -0.44300
C 	C 	0.17900 0.59472 0.97560 0.28200
O 	O 	0.16808 0.62389 0.99843 -0.37200
C 	C 	0.00615 0.52575 0.54228 0.01000
C 	C 	0.98006 0.50142 0.54262 0.01400
C 	C 	0.03245 0.52277 0.50050 -0.05300
C 	C 	0.03219 0.49670 0.45742 0.01000
C 	C 	0.98052 0.47457 0.50098 -0.05400
C 	C 	0.00598 0.47251 0.45754 0.01100
H 	H 	0.96079 0.45582 0.50161 0.05100
H 	H 	0.05262 0.54103 0.50079 0.05100
C 	C 	0.00563 0.44710 0.41304 -0.01200
C 	C 	0.02942 0.44657 0.36692 0.00900
C 	C 	0.01709 0.43064 0.31503 -0.05700
C 	C 	0.98348 0.42019 0.31985 0.01900
S 	S 	0.97023 0.43030 0.38736 -0.01000
H 	H 	0.03021 0.43101 0.27336 0.04700
C 	C 	0.05726 0.49452 0.41299 -0.01200
C 	C 	0.05551 0.47048 0.36694 0.00900
C 	C 	0.07255 0.48125 0.31513 -0.05700
C 	C 	0.08608 0.51414 0.31979 0.01900
S 	S 	0.07736 0.52851 0.38726 -0.00900
H 	H 	0.07098 0.46802 0.27352 0.04700
C 	C 	0.97802 0.55680 0.62433 0.00700
C 	C 	0.00420 0.55360 0.58241 -0.01200
S 	S 	0.03786 0.57315 0.60926 -0.01000
C 	C 	0.02044 0.58803 0.67162 0.01700
C 	C 	0.98716 0.57657 0.67427 -0.05400
C 	C 	0.95301 0.50584 0.58313 -0.01500
C 	C 	0.95205 0.53285 0.62442 0.01000
C 	C 	0.93170 0.52572 0.67443 -0.05500
C 	C 	0.91833 0.49269 0.67331 0.01100
S 	S 	0.93141 0.47348 0.61121 0.00600
H 	H 	0.93041 0.54189 0.71314 0.04300
H 	H 	0.97201 0.57858 0.71383 0.04600
Zn	Zn	0.88375 0.39335 0.00033 1.21100
C 	C 	0.82356 0.43885 0.00414 0.29600
O 	O 	0.88111 0.41102 0.91943 -0.43900
O 	O 	0.84195 0.46374 0.98333 -0.41500
O 	O 	0.91424 0.45633 0.93981 -0.50000
C 	C 	0.90395 0.42606 0.10839 0.33600
O 	O 	0.91045 0.40037 0.07167 -0.47600
O 	O 	0.88587 0.45352 0.09103 -0.49400
C 	C 	0.90010 0.43609 0.90157 0.34700
O 	O 	0.92808 0.35348 0.97140 -0.31500
Zn	Zn	0.89095 0.47045 0.01182 1.16400
O 	O 	0.83866 0.41103 0.02767 -0.44400
C 	C 	0.90530 0.33024 0.97592 0.28200
O 	O 	0.87524 0.34185 0.99186 -0.37100
C 	C 	0.93273 0.01751 0.99785 -0.00400
C 	C 	0.94707 0.04991 0.99572 -0.02100
C 	C 	0.95339 0.98711 0.00684 -0.03200
C 	C 	0.98909 0.98963 0.01281 0.00500
C 	C 	0.00364 0.02255 0.01080 -0.01300
C 	C 	0.98250 0.05289 0.00228 -0.00700
C 	C 	0.01027 0.95926 0.02070 -0.00600
C 	C 	0.04552 0.96233 0.02940 -0.03800
C 	C 	0.03930 0.02509 0.01738 0.00600
C 	C 	0.99731 0.08569 0.00030 -0.04600
C 	C 	0.03262 0.08787 0.00586 -0.03900
C 	C 	0.05370 0.05805 0.01399 -0.00900
C 	C 	0.93905 0.95409 0.00957 0.00700
C 	C 	0.96025 0.92421 0.01593 -0.06200
C 	C 	0.99562 0.92635 0.02055 0.00400
C 	C 	0.97627 0.11814 0.99298 0.07700
C 	C 	0.97122 0.13240 0.93690 -0.05900
C 	C 	0.95596 0.16567 0.93052 -0.03400
C 	C 	0.94582 0.18496 0.98024 0.03100
C 	C 	0.94951 0.17002 0.03617 -0.05800
C 	C 	0.96470 0.13674 0.04249 -0.08400
C 	C 	0.09091 0.06180 0.01766 -0.01500
C 	C 	0.10543 0.07384 0.06954 -0.04100
C 	C 	0.14027 0.07973 0.07181 -0.03500
C 	C 	0.11146 0.05546 0.96815 -0.01500
C 	C 	0.14634 0.06111 0.97050 -0.01000
C 	C 	0.16085 0.07352 0.02221 -0.02600
C 	C 	0.90185 0.95030 0.00590 -0.01700
C 	C 	0.88151 0.95484 0.05613 -0.05200
C 	C 	0.84661 0.94927 0.05348 -0.01400
C 	C 	0.83188 0.93881 0.00067 -0.08200
C 	C 	0.85225 0.93443 0.95037 0.01200
C 	C 	0.88711 0.94018 0.95299 -0.02500
C 	C 	0.01696 0.89376 0.02222 -0.02000
C 	C 	0.03385 0.88185 0.97135 -0.01300
C 	C 	0.04848 0.84814 0.96919 -0.01200
C 	C 	0.04588 0.82589 0.01762 -0.02500
C 	C 	0.03078 0.83855 0.06967 -0.03700
C 	C 	0.01646 0.87238 0.07198 -0.03900
C 	C 	0.05983 0.99476 0.02779 -0.04500
H 	H 	0.98002 0.11814 0.89845 0.05100
H 	H 	0.95291 0.17683 0.88713 0.04100
H 	H 	0.94170 0.18466 0.07481 0.03900
H 	H 	0.96849 0.12586 0.08593 0.04800
H 	H 	0.84113 0.92628 0.90944 0.03100
H 	H 	0.90272 0.93645 0.91411 0.04400
H 	H 	0.83105 0.95299 0.09243 0.02700
H 	H 	0.89277 0.96252 0.09720 0.04000
H 	H 	0.03451 0.89826 0.93282 0.04200
H 	H 	0.06057 0.83882 0.92911 0.03900
H 	H 	0.00363 0.88145 0.11155 0.03800
H 	H 	0.02877 0.82168 0.10741 0.03600
H 	H 	0.08965 0.07899 0.10783 0.03900
H 	H 	0.15121 0.08938 0.11188 0.03800
H 	H 	0.10037 0.04632 0.92785 0.04300
H 	H 	0.16207 0.05595 0.93215 0.03900
H 	H 	0.90546 0.01623 0.99207 0.04300
H 	H 	0.93040 0.07267 0.98869 0.04500
H 	H 	0.04382 0.11305 0.00368 0.03500
H 	H 	0.08696 0.99614 0.03521 0.03800
H 	H 	0.06201 0.93966 0.03820 0.03600
H 	H 	0.94912 0.89895 0.01663 0.04200
C 	C 	0.89185 0.26824 0.99329 0.03600
C 	C 	0.91445 0.29270 0.97244 -0.07800
C 	C 	0.94648 0.28124 0.95053 0.01300
C 	C 	0.95630 0.24595 0.95158 -0.05400
C 	C 	0.93416 0.22171 0.97422 0.01300
C 	C 	0.90170 0.23293 0.99424 -0.03000
H 	H 	0.86695 0.27660 0.00985 0.01500
H 	H 	0.96399 0.29968 0.93346 0.04500
H 	H 	0.98140 0.23752 0.93595 0.05000
H 	H 	0.88433 0.21436 0.01137 0.01900
C 	C 	0.90302 0.44372 0.83879 -0.13200
C 	C 	0.87509 0.45920 0.80828 0.16800
C 	C 	0.88020 0.47431 0.75318 -0.10900
C 	C 	0.91268 0.47308 0.72754 -0.00000
C 	C 	0.94031 0.45610 0.75697 0.09100
C 	C 	0.93501 0.44050 0.81160 -0.02000
H 	H 	0.85904 0.48780 0.73113 0.06500
H 	H 	0.95624 0.42744 0.83414 0.04900
O 	O 	0.84364 0.46331 0.83529 -0.20600
O 	O 	0.97200 0.45274 0.73044 -0.18700
C 	C 	0.82346 0.43583 0.81772 -0.02000
H 	H 	0.81790 0.43709 0.76987 0.03700
H 	H 	0.79870 0.43835 0.84115 0.04600
H 	H 	0.83547 0.41004 0.82950 0.05300
C 	C 	0.99336 0.47752 0.75454 -0.02400
H 	H 	0.98161 0.50433 0.75353 0.03600
H 	H 	0.01703 0.47777 0.72796 0.04400
H 	H 	0.00079 0.47036 0.80017 0.03500
C 	C 	0.92041 0.42567 0.16669 -0.13500
C 	C 	0.93393 0.45610 0.18988 0.17000
C 	C 	0.95433 0.45402 0.24025 -0.11100
C 	C 	0.96001 0.42230 0.26952 -0.00300
C 	C 	0.94450 0.39247 0.24901 0.09100
C 	C 	0.92551 0.39408 0.19687 -0.02000
H 	H 	0.96620 0.47707 0.25607 0.06500
H 	H 	0.91511 0.37063 0.17956 0.05100
O 	O 	0.93058 0.48712 0.15955 -0.23900
O 	O 	0.95083 0.36088 0.27645 -0.19000
C 	C 	0.90427 0.50789 0.18580 -0.01100
H 	H 	0.87974 0.49448 0.18745 0.03600
H 	H 	0.89990 0.53165 0.15887 0.01500
H 	H 	0.91166 0.51632 0.23052 0.03200
C 	C 	0.92361 0.35500 0.31507 -0.02500
H 	H 	0.92041 0.37589 0.34857 0.04000
H 	H 	0.92937 0.33033 0.33889 0.04300
H 	H 	0.89935 0.35202 0.29070 0.03700
C 	C 	0.07828 0.77206 0.05064 -0.06800
C 	C 	0.05511 0.78849 0.01155 0.00400
C 	C 	0.03896 0.76876 0.96900 -0.04300
C 	C 	0.04518 0.73285 0.96650 0.04400
C 	C 	0.06741 0.71617 0.00689 -0.12000
C 	C 	0.08439 0.73604 0.04836 0.02000
H 	H 	0.09106 0.78710 0.08339 0.04400
H 	H 	0.02099 0.78117 0.93868 0.04700
H 	H 	0.03239 0.71794 0.93356 0.03200
H 	H 	0.10168 0.72356 0.07969 0.03600
C 	C 	0.04057 0.59357 0.72487 -0.00500
C 	C 	0.03663 0.62516 0.75551 0.09200
C 	C 	0.04929 0.62764 0.81271 -0.02400
C 	C 	0.06637 0.59901 0.83917 -0.13000
C 	C 	0.07204 0.56802 0.80731 0.16900
C 	C 	0.05992 0.56579 0.74962 -0.10500
H 	H 	0.04475 0.65149 0.83724 0.04900
H 	H 	0.06400 0.54180 0.72537 0.06600
O 	O 	0.01736 0.65258 0.73184 -0.19300
O 	O 	0.09184 0.54090 0.83086 -0.20000
C 	C 	0.03936 0.67397 0.70086 -0.02500
H 	H 	0.05848 0.68525 0.73051 0.04100
H 	H 	0.02391 0.69592 0.68159 0.04300
H 	H 	0.05227 0.65975 0.66393 0.04100
C 	C 	0.07021 0.51539 0.85175 -0.02100
H 	H 	0.05049 0.52619 0.88266 0.04000
H 	H 	0.08590 0.49556 0.87612 0.04700
H 	H 	0.05795 0.50196 0.81473 0.03400
C 	C 	0.08530 0.57637 0.16435 -0.13100
C 	C 	0.05442 0.56574 0.18908 0.17100
C 	C 	0.05487 0.54795 0.24262 -0.10800
C 	C 	0.08590 0.53797 0.26939 -0.00400
C 	C 	0.11668 0.54882 0.24544 0.09200
C 	C 	0.11630 0.56760 0.19266 -0.02200
H 	H 	0.03106 0.54041 0.26190 0.06600
H 	H 	0.14016 0.57517 0.17366 0.05300
O 	O 	0.02356 0.57394 0.16213 -0.22400
O 	O 	0.14745 0.53830 0.27059 -0.19100
C 	C 	0.01477 0.54560 0.12701 -0.01300
H 	H 	0.01047 0.52215 0.15412 0.03300
H 	H 	0.03431 0.53963 0.09257 -0.00600
H 	H 	0.99046 0.55259 0.10424 0.00200
C 	C 	0.15773 0.56481 0.30834 -0.02500
H 	H 	0.16281 0.58893 0.28355 0.03800
H 	H 	0.18193 0.55595 0.32984 0.04300
H 	H 	0.13870 0.57040 0.34373 0.04000
C 	C 	0.73890 0.94638 0.95802 0.03100
C 	C 	0.72492 0.92130 0.99456 -0.08000
C 	C 	0.74642 0.90150 0.03225 0.00700
C 	C 	0.78135 0.90703 0.03387 -0.11900
C 	C 	0.79513 0.93247 0.99804 0.11000
C 	C 	0.77379 0.95199 0.95993 -0.09400
H 	H 	0.72275 0.96160 0.92827 0.03500
H 	H 	0.73604 0.88218 0.06087 0.03500
H 	H 	0.79769 0.89165 0.06314 0.05500
H 	H 	0.78421 0.97168 0.93208 0.05800
C 	C 	0.58828 0.91209 0.84222 -0.12700
C 	C 	0.58435 0.94174 0.80624 0.17000
C 	C 	0.56664 0.93972 0.75304 -0.10600
C 	C 	0.54969 0.90963 0.73878 -0.00500
C 	C 	0.55557 0.87939 0.77246 0.09500
C 	C 	0.57480 0.88076 0.82412 -0.02300
H 	H 	0.56361 0.96253 0.72538 0.06700
H 	H 	0.57796 0.85779 0.85133 0.05800
O 	O 	0.59987 0.97200 0.82112 -0.21000
O 	O 	0.53922 0.84949 0.75869 -0.18900
C 	C 	0.57489 0.99609 0.84318 -0.01800
H 	H 	0.55807 0.00638 0.80736 0.03200
H 	H 	0.58797 0.01837 0.86215 0.03000
H 	H 	0.55924 0.98499 0.87875 0.03300
C 	C 	0.56101 0.82874 0.72258 -0.02600
H 	H 	0.56685 0.84220 0.68076 0.04100
H 	H 	0.54781 0.80485 0.71104 0.04400
H 	H 	0.58497 0.82052 0.74587 0.04100
C 	C 	0.60269 0.90608 0.16964 -0.13200
C 	C 	0.60618 0.93494 0.20712 0.16400
C 	C 	0.58556 0.93851 0.25720 -0.10900
C 	C 	0.56311 0.91263 0.27197 -0.00700
C 	C 	0.56462 0.88110 0.24099 0.09200
C 	C 	0.58398 0.87809 0.18943 -0.02800
H 	H 	0.58562 0.96227 0.28257 0.06600
H 	H 	0.58296 0.85468 0.16338 0.05600
O 	O 	0.62751 0.96111 0.19239 -0.21100
O 	O 	0.54359 0.85485 0.25658 -0.19300
C 	C 	0.65973 0.95339 0.21770 -0.01500
H 	H 	0.65821 0.95269 0.26646 0.03400
H 	H 	0.67695 0.97428 0.20567 0.03600
H 	H 	0.67141 0.92856 0.20046 0.04000
C 	C 	0.56185 0.83188 0.29447 -0.02400
H 	H 	0.58436 0.81923 0.27206 0.03600
H 	H 	0.54486 0.81104 0.30772 0.04100
H 	H 	0.56980 0.84517 0.33526 0.03900
C 	C 	0.24669 0.10845 0.98558 0.04600
C 	C 	0.26805 0.08997 0.02529 -0.11700
C 	C 	0.25374 0.06714 0.06557 0.01900
C 	C 	0.21873 0.06207 0.06494 -0.06800
C 	C 	0.19759 0.07996 0.02442 0.00500
C 	C 	0.21164 0.10350 0.98527 -0.04200
H 	H 	0.25727 0.12613 0.95423 0.03900
H 	H 	0.26976 0.05302 0.09693 0.03100
H 	H 	0.20810 0.04390 0.09543 0.04400
H 	H 	0.19544 0.11771 0.95423 0.04900
C 	C 	0.38699 0.08450 0.84015 -0.13100
C 	C 	0.36754 0.06545 0.80061 0.16700
C 	C 	0.38328 0.05008 0.75130 -0.10700
C 	C 	0.41797 0.05447 0.74027 -0.00300
C 	C 	0.43633 0.07664 0.77625 0.09200
C 	C 	0.42031 0.09261 0.82483 -0.02800
H 	H 	0.36895 0.03334 0.72332 0.06800
H 	H 	0.43472 0.10919 0.85296 0.05700
O 	O 	0.33404 0.05882 0.81330 -0.20000
O 	O 	0.46936 0.08438 0.76182 -0.18800
C 	C 	0.31290 0.08542 0.78834 -0.02100
H 	H 	0.31809 0.11123 0.80746 0.04500
H 	H 	0.28599 0.08014 0.79851 0.04600
H 	H 	0.31546 0.08600 0.73969 0.03800
C 	C 	0.49219 0.06344 0.79584 -0.02500
H 	H 	0.48986 0.06985 0.84330 0.03300
H 	H 	0.51859 0.06874 0.78228 0.04200
H 	H 	0.48877 0.03527 0.78871 0.03400
C 	C 	0.40396 0.09228 0.16626 -0.13000
C 	C 	0.38390 0.07805 0.21066 0.16800
C 	C 	0.39903 0.06783 0.26403 -0.10600
C 	C 	0.43437 0.06945 0.27147 -0.00500
C 	C 	0.45347 0.08747 0.23010 0.09200
C 	C 	0.43826 0.09844 0.17732 -0.02200
H 	H 	0.38381 0.05574 0.29732 0.06600
H 	H 	0.45370 0.10984 0.14358 0.04500
O 	O 	0.34921 0.07532 0.20270 -0.20200
O 	O 	0.48813 0.09025 0.23777 -0.19600
C 	C 	0.34299 0.04105 0.18538 -0.00900
H 	H 	0.35694 0.03352 0.14447 0.01200
H 	H 	0.31537 0.03948 0.17616 0.03800
H 	H 	0.34943 0.02219 0.22108 0.02800
C 	C 	0.49347 0.12163 0.26733 -0.02300
H 	H 	0.48400 0.14450 0.24119 0.03700
H 	H 	0.52129 0.12397 0.27348 0.04000
H 	H 	0.48157 0.12195 0.31171 0.04100
C 	C 	0.38818 0.28998 0.98772 -0.04400
C 	C 	0.42070 0.29844 0.00692 0.01300
C 	C 	0.44317 0.27237 0.02920 -0.07000
C 	C 	0.43334 0.23800 0.03171 0.01900
C 	C 	0.40086 0.22942 0.01206 -0.11300
C 	C 	0.37827 0.25566 0.99034 0.04700
H 	H 	0.37061 0.31001 0.97073 0.05100
H 	H 	0.46830 0.27872 0.04428 0.04400
H 	H 	0.45093 0.21810 0.04903 0.03400
H 	H 	0.35318 0.24945 0.97491 0.04300
C 	C 	0.26099 0.54195 0.94744 -0.05300
C 	C 	0.28528 0.56366 0.97083 0.01100
C 	C 	0.27480 0.59623 0.99350 -0.02900
C 	C 	0.24021 0.60670 0.99400 0.03500
C 	C 	0.21574 0.58462 0.97191 -0.07600
C 	C 	0.22643 0.55239 0.94782 0.01100
H 	H 	0.26885 0.51674 0.92987 0.04900
H 	H 	0.29339 0.61327 0.01129 0.01900
H 	H 	0.23246 0.63177 0.01223 0.01600
H 	H 	0.20796 0.53522 0.93001 0.04700
C 	C 	0.73470 0.47063 0.96014 -0.09300
C 	C 	0.71448 0.45097 0.99711 0.07200
C 	C 	0.73009 0.42621 0.03477 -0.11800
C 	C 	0.76566 0.42180 0.03649 0.04100
C 	C 	0.78595 0.44210 0.00045 -0.13600
C 	C 	0.77018 0.46618 0.96165 0.06400
H 	H 	0.72291 0.48989 0.93104 0.05500
H 	H 	0.71470 0.41078 0.06329 0.05300
H 	H 	0.77739 0.40308 0.06656 0.02900
H 	H 	0.78541 0.48166 0.93294 0.03100
C 	C 	0.60769 0.71513 0.00535 -0.08700
C 	C 	0.57748 0.70635 0.97731 0.04900
C 	C 	0.55764 0.73205 0.94796 -0.06100
C 	C 	0.56765 0.76638 0.94737 0.00600
C 	C 	0.59760 0.77535 0.97629 -0.04300
C 	C 	0.61773 0.74944 0.00483 -0.02000
H 	H 	0.62333 0.69537 0.02768 0.04400
H 	H 	0.53435 0.72547 0.92597 0.04900
H 	H 	0.55209 0.78600 0.92456 0.04500
H 	H 	0.64090 0.75592 0.02727 0.03900
