data_crystal

_cell_length_a 18.48886
_cell_length_b 18.87771
_cell_length_c 26.82993
_cell_angle_alpha 95.42585
_cell_angle_beta  95.42501
_cell_angle_gamma 126.43067

_symmetry_space_group_name_	'P 1'
_symmetry_space_group_name_H-M	'P 1'

loop_
_symmetry_equiv_pos_as_xyz
  x,y,z

loop_
_atom_site_label
_atom_site_type_symbol
_atom_site_fract_x
_atom_site_fract_y
_atom_site_fract_z
_atom_site_charge
C 	C 	0.95853 0.04708 0.00050 0.13200
N 	N 	0.05098 0.09711 0.00394 -0.13500
C 	C 	0.09014 0.05620 0.99433 0.12400
N 	N 	0.03764 0.96569 0.98304 -0.13400
C 	C 	0.94601 0.91547 0.98024 0.13100
N 	N 	0.90615 0.95612 0.98790 -0.13100
C 	C 	0.89310 0.98318 0.45280 0.12600
N 	N 	0.98553 0.03398 0.45804 -0.12800
C 	C 	0.02819 0.99561 0.46187 0.12400
N 	N 	0.97880 0.90637 0.46054 -0.12800
C 	C 	0.88655 0.85477 0.45542 0.12600
N 	N 	0.84309 0.89307 0.45177 -0.12900
Cu	Cu	0.63953 0.23731 0.01717 0.93200
Cu	Cu	0.67309 0.19758 0.90336 0.89300
Cu	Cu	0.67028 0.35333 0.93610 0.90400
Cu	Cu	0.65650 0.41417 0.04266 0.90800
C 	C 	0.67181 0.31817 0.12101 0.39600
O 	O 	0.51016 0.18728 0.02589 -0.33200
C 	C 	0.62575 0.26424 0.82813 0.38000
O 	O 	0.71210 0.37222 0.00807 -0.63100
O 	O 	0.60738 0.22480 0.94261 -0.63600
O 	O 	0.69541 0.17310 0.01735 -0.34500
O 	O 	0.77388 0.23893 0.95503 -0.41100
O 	O 	0.68378 0.39126 0.11055 -0.35700
O 	O 	0.73854 0.48053 0.93531 -0.35200
C 	C 	0.74404 0.53737 0.97114 0.29000
C 	C 	0.47391 0.22683 0.01310 0.29000
O 	O 	0.52360 0.30415 0.99873 -0.37900
O 	O 	0.68654 0.50894 0.00303 -0.36900
O 	O 	0.68543 0.27113 0.08914 -0.34300
C 	C 	0.76294 0.19665 0.99302 0.28300
O 	O 	0.64665 0.33428 0.86038 -0.34600
O 	O 	0.60364 0.19107 0.84394 -0.38100
H 	H 	0.77955 0.41042 0.01840 0.18600
H 	H 	0.54072 0.18631 0.92907 0.18300
Cu	Cu	0.73468 0.32550 0.43683 0.93000
Cu	Cu	0.78293 0.29762 0.55614 0.90000
Cu	Cu	0.59848 0.26403 0.50960 0.90700
Cu	Cu	0.56041 0.31939 0.41312 0.90800
C 	C 	0.65618 0.30406 0.33207 0.39800
O 	O 	0.78829 0.45743 0.43778 -0.32600
C 	C 	0.66939 0.29764 0.61995 0.39800
O 	O 	0.59478 0.25194 0.43767 -0.64100
O 	O 	0.73463 0.34052 0.51156 -0.63300
O 	O 	0.78448 0.25484 0.43007 -0.33000
O 	O 	0.85108 0.28599 0.51278 -0.38800
O 	O 	0.60941 0.33136 0.34834 -0.36500
O 	O 	0.46676 0.19002 0.50098 -0.35500
C 	C 	0.41548 0.20156 0.47053 0.29100
C 	C 	0.74842 0.49051 0.45654 0.27600
O 	O 	0.66784 0.43645 0.46854 -0.36900
O 	O 	0.45220 0.27048 0.44686 -0.37200
O 	O 	0.70951 0.29617 0.36374 -0.34000
C 	C 	0.81077 0.23152 0.46852 0.27300
O 	O 	0.59841 0.24995 0.58186 -0.36300
O 	O 	0.75336 0.34125 0.61148 -0.38400
H 	H 	0.55620 0.18877 0.41960 0.17800
H 	H 	0.76284 0.40341 0.52659 0.18200
C 	C 	0.67535 0.23826 0.74969 0.26900
C 	C 	0.63325 0.27020 0.77413 -0.19900
C 	C 	0.60093 0.30958 0.74716 0.27600
C 	C 	0.61147 0.31752 0.69640 0.27900
C 	C 	0.65423 0.28610 0.67236 -0.20500
C 	C 	0.68540 0.24589 0.69912 0.27500
F 	F 	0.72596 0.21446 0.67604 -0.41100
F 	F 	0.70890 0.20204 0.77551 -0.41500
F 	F 	0.58216 0.35758 0.67105 -0.39000
F 	F 	0.55889 0.33952 0.76994 -0.38700
C 	C 	0.74573 0.36677 0.26349 0.27600
C 	C 	0.66363 0.30027 0.27798 -0.20000
C 	C 	0.58689 0.23443 0.24041 0.27500
C 	C 	0.59139 0.23688 0.18871 0.27200
C 	C 	0.67197 0.30630 0.17434 -0.19600
C 	C 	0.74979 0.36994 0.21187 0.27800
F 	F 	0.82866 0.43624 0.19831 -0.38500
F 	F 	0.82044 0.43054 0.29952 -0.39000
F 	F 	0.51660 0.17350 0.15262 -0.39500
F 	F 	0.50763 0.16899 0.25403 -0.40000
C 	C 	0.83452 0.75715 0.45273 0.00100
C 	C 	0.81566 0.72318 0.49797 -0.03500
C 	C 	0.79305 0.63838 0.50052 0.01900
C 	C 	0.78692 0.58541 0.45695 -0.06100
C 	C 	0.80305 0.61827 0.41126 0.00200
C 	C 	0.82597 0.70322 0.40884 -0.01500
H 	H 	0.82344 0.76479 0.53202 0.06200
H 	H 	0.79573 0.57687 0.37725 0.07200
C 	C 	0.84168 0.73516 0.36124 0.10900
C 	C 	0.77958 0.60762 0.54852 0.08800
N 	N 	0.85430 0.76082 0.32313 -0.09100
N 	N 	0.76877 0.58293 0.58695 -0.09100
C 	C 	0.81432 0.15473 0.45896 -0.06900
C 	C 	0.84694 0.14292 0.41622 0.01100
C 	C 	0.86307 0.07887 0.41069 -0.01900
C 	C 	0.84806 0.02686 0.44869 0.00400
C 	C 	0.80736 0.03278 0.48881 -0.03700
C 	C 	0.78996 0.09595 0.49403 0.02200
H 	H 	0.86263 0.18545 0.38811 0.06500
H 	H 	0.79337 0.99137 0.51740 0.06400
C 	C 	0.74631 0.09932 0.53512 0.05300
C 	C 	0.89646 0.06785 0.36632 0.10700
N 	N 	0.71129 0.10198 0.56803 -0.10500
N 	N 	0.92324 0.05901 0.33078 -0.09500
C 	C 	0.31636 0.14541 0.46920 -0.06700
C 	C 	0.25674 0.10326 0.42183 0.00700
C 	C 	0.16241 0.05540 0.41896 -0.01800
C 	C 	0.12705 0.04944 0.46392 0.00200
C 	C 	0.18634 0.09123 0.51133 -0.03700
C 	C 	0.28082 0.13940 0.51428 0.02800
H 	H 	0.28404 0.10837 0.38714 0.04800
H 	H 	0.15883 0.08613 0.54592 0.06300
C 	C 	0.34080 0.18422 0.56351 0.09800
C 	C 	0.10227 0.01286 0.36971 0.10300
N 	N 	0.38874 0.22004 0.60297 -0.06400
N 	N 	0.05404 0.97876 0.33029 -0.09200
C 	C 	0.80291 0.63334 0.96967 -0.06800
C 	C 	0.77801 0.66506 0.93159 0.01300
C 	C 	0.82262 0.75723 0.93519 -0.01800
C 	C 	0.89303 0.81823 0.97723 0.00000
C 	C 	0.91911 0.78639 0.01458 -0.03100
C 	C 	0.87498 0.69462 0.01085 0.02400
H 	H 	0.72217 0.61786 0.89999 0.06300
H 	H 	0.97426 0.83340 0.04653 0.06600
C 	C 	0.90383 0.66358 0.04957 0.07700
C 	C 	0.79621 0.78861 0.89552 0.10800
N 	N 	0.92686 0.63866 0.08057 -0.09200
N 	N 	0.77508 0.81379 0.86375 -0.09600
C 	C 	0.91459 0.09195 0.00711 0.00200
C 	C 	0.95520 0.17642 0.99366 -0.03200
C 	C 	0.91030 0.21558 0.99410 0.01600
C 	C 	0.82070 0.16740 0.00472 -0.06100
C 	C 	0.78311 0.08631 0.02200 0.00300
C 	C 	0.83064 0.04977 0.02476 -0.01700
H 	H 	0.02151 0.21150 0.98240 0.05900
H 	H 	0.71630 0.05091 0.03266 0.06000
C 	C 	0.79518 0.97208 0.04822 0.10600
C 	C 	0.95833 0.30662 0.98586 0.09700
N 	N 	0.76672 0.90985 0.06703 -0.09900
N 	N 	0.99691 0.37957 0.97928 -0.09700
C 	C 	0.37527 0.18030 0.00932 -0.06100
C 	C 	0.31721 0.13243 0.96188 0.00600
C 	C 	0.22511 0.09788 0.95546 -0.01700
C 	C 	0.18971 0.10924 0.99728 -0.00200
C 	C 	0.24839 0.15921 0.04442 -0.03100
C 	C 	0.34095 0.19495 0.05062 0.02300
H 	H 	0.34431 0.12381 0.92964 0.04400
H 	H 	0.22140 0.16798 0.07666 0.06300
C 	C 	0.40046 0.24729 0.09934 0.10000
C 	C 	0.16756 0.05204 0.90561 0.10200
N 	N 	0.44813 0.28935 0.13833 -0.08600
N 	N 	0.12142 0.01530 0.86571 -0.09900
