data_crystal

_cell_length_a 25.98121
_cell_length_b 26.97652
_cell_length_c 29.92002
_cell_angle_alpha 60.95561
_cell_angle_beta  118.71699
_cell_angle_gamma 133.19300

_symmetry_space_group_name_	'P 1'
_symmetry_space_group_name_H-M	'P 1'

loop_
_symmetry_equiv_pos_as_xyz
  x,y,z

loop_
_atom_site_label
_atom_site_type_symbol
_atom_site_fract_x
_atom_site_fract_y
_atom_site_fract_z
_atom_site_charge
C 	C 	0.02795 0.96275 0.00565 0.33600
O 	O 	0.03591 0.01311 0.13887 -0.56600
O 	O 	0.00283 0.98222 0.26613 -0.33700
O 	O 	0.00360 0.10720 0.72778 -0.36800
O 	O 	0.00121 0.99507 0.62913 -0.56000
O 	O 	0.00271 0.96468 0.77378 -0.34100
C 	C 	0.01225 0.96277 0.95114 -0.07800
Co	Co	0.06185 0.04432 0.20908 1.19100
Co	Co	0.07629 0.89114 0.11031 1.17400
O 	O 	0.07897 0.19119 0.18243 -0.35200
O 	O 	0.05444 0.94114 0.12774 -0.75300
O 	O 	0.06069 0.81780 0.18141 -0.37600
Co	Co	0.02866 0.02511 0.70043 1.19300
Co	Co	0.06506 0.88697 0.60759 1.17700
C 	C 	0.05928 0.15192 0.70600 0.28100
O 	O 	0.03344 0.93284 0.61892 -0.75400
C 	C 	0.06867 0.00820 0.92496 -0.11500
C 	C 	0.05457 0.00578 0.87427 0.35700
C 	C 	0.02723 0.95654 0.38205 0.34500
C 	C 	0.02566 0.93789 0.43422 -0.05800
H 	H 	0.06252 0.36125 0.67012 0.07300
H 	H 	0.02561 0.24700 0.65608 0.06500
H 	H 	0.07281 0.63982 0.78966 0.07900
H 	H 	0.03056 0.69445 0.25432 0.06300
Co	Co	0.10083 0.96840 0.18330 1.19300
C 	C 	0.09084 0.83545 0.22606 0.26600
O 	O 	0.12354 0.01003 0.23684 -0.44700
O 	O 	0.07949 0.87209 0.23283 -0.36200
O 	O 	0.08581 0.96598 0.03977 -0.38500
Co	Co	0.08789 0.97719 0.66542 1.19400
O 	O 	0.11519 0.02877 0.71322 -0.45100
O 	O 	0.08126 0.12980 0.69296 -0.35300
O 	O 	0.08747 0.89354 0.72267 -0.37400
F 	F 	0.10890 0.05244 0.84849 -0.44500
H 	H 	0.12324 0.04602 0.94358 0.10400
H 	H 	0.06291 0.92636 0.46581 0.09000
F 	F 	0.07621 0.96112 0.37197 -0.43500
C 	C 	0.10196 0.35401 0.70293 -0.08400
C 	C 	0.10620 0.22558 0.70680 0.05100
C 	C 	0.08078 0.26619 0.67895 -0.05600
O 	O 	0.09453 0.75907 0.77714 -0.17600
C 	C 	0.08151 0.72609 0.27977 -0.05000
H 	H 	0.07639 0.61812 0.28548 0.07300
C 	C 	0.13488 0.19108 0.21617 0.26200
O 	O 	0.14398 0.14567 0.22117 -0.35300
C 	C 	0.12376 0.87620 0.72224 0.27700
O 	O 	0.13995 0.98944 0.57389 -0.35000
O 	O 	0.14091 0.89621 0.67892 -0.38700
C 	C 	0.13602 0.38343 0.74543 0.11600
C 	C 	0.12341 0.31852 0.70264 0.01500
C 	C 	0.14396 0.74264 0.80448 0.12400
C 	C 	0.12806 0.68174 0.80361 -0.09200
C 	C 	0.14267 0.83201 0.76912 0.04600
H 	H 	0.13514 0.59865 0.78068 0.06800
C 	C 	0.12760 0.66133 0.30185 -0.08200
C 	C 	0.13169 0.71328 0.30680 0.01100
C 	C 	0.11817 0.79704 0.27227 0.05200
H 	H 	0.16960 0.21735 0.30821 0.06300
O 	O 	0.18616 0.95302 0.14532 -0.36300
O 	O 	0.18240 0.04349 0.63746 -0.36500
C 	C 	0.17275 0.30809 0.74440 0.12200
O 	O 	0.14439 0.44257 0.74012 -0.21000
O 	O 	0.16575 0.25005 0.74896 -0.16900
C 	C 	0.18346 0.63763 0.80233 -0.10300
C 	C 	0.18613 0.67931 0.81694 0.03100
C 	C 	0.19755 0.25494 0.23466 0.05500
C 	C 	0.70813 0.31693 0.00342 -0.01800
C 	C 	0.75184 0.38366 0.01241 -0.03100
C 	C 	0.71965 0.40979 0.01176 -0.00600
C 	C 	0.64411 0.36773 0.00477 -0.04400
C 	C 	0.60060 0.30062 0.99693 0.01200
C 	C 	0.63248 0.27798 0.99215 -0.02300
H 	H 	0.81048 0.41407 0.02145 0.04700
H 	H 	0.61982 0.38595 0.00793 0.05800
H 	H 	0.59865 0.22766 0.98335 0.05600
C 	C 	0.73347 0.31661 0.51237 -0.01600
C 	C 	0.77726 0.38572 0.51714 -0.02800
C 	C 	0.75560 0.40364 0.53833 -0.01600
C 	C 	0.68949 0.35356 0.55335 -0.02000
C 	C 	0.64455 0.28548 0.54726 -0.01700
C 	C 	0.66657 0.26679 0.52701 -0.02400
H 	H 	0.82742 0.42549 0.50396 0.04300
H 	H 	0.67245 0.36798 0.56899 0.05600
H 	H 	0.63187 0.21376 0.52281 0.05500
C 	C 	0.30719 0.66616 0.28448 -0.01300
C 	C 	0.27221 0.59764 0.28288 -0.01900
C 	C 	0.30341 0.58459 0.26631 -0.01400
C 	C 	0.37158 0.63917 0.25426 -0.02200
C 	C 	0.40573 0.70774 0.25404 -0.01500
C 	C 	0.37361 0.72145 0.26893 -0.02900
H 	H 	0.22009 0.55507 0.29315 0.06400
H 	H 	0.39694 0.62867 0.24327 0.05300
H 	H 	0.39874 0.77507 0.26630 0.04400
C 	C 	0.27574 0.64240 0.78855 -0.01300
C 	C 	0.34311 0.68629 0.77551 -0.02100
C 	C 	0.36520 0.65800 0.76574 -0.01300
C 	C 	0.31996 0.58632 0.76840 -0.02300
C 	C 	0.25309 0.54225 0.78143 -0.01400
C 	C 	0.23103 0.57002 0.79170 -0.02400
H 	H 	0.37813 0.74194 0.77310 0.05900
H 	H 	0.33655 0.56495 0.75976 0.05000
H 	H 	0.17999 0.53517 0.80302 0.05000
Co	Co	0.93500 0.00208 0.12499 1.17800
Co	Co	0.97518 0.93065 0.09567 1.18400
Co	Co	0.97341 0.10353 0.18189 1.15900
O 	O 	0.99949 0.05793 0.16373 -0.78000
O 	O 	0.89621 0.93740 0.08347 -0.45400
C 	C 	0.89821 0.10668 0.06940 0.26600
C 	C 	0.99299 0.00802 0.28687 0.27400
C 	C 	0.22194 0.01828 0.14550 0.25800
C 	C 	0.91684 0.78878 0.10044 0.28100
O 	O 	0.20156 0.03426 0.16631 -0.37200
O 	O 	0.94855 0.14590 0.10297 -0.37200
O 	O 	0.90304 0.06448 0.06367 -0.37200
O 	O 	0.00284 0.06887 0.26314 -0.37500
O 	O 	0.96806 0.82223 0.07689 -0.38200
O 	O 	0.91677 0.82262 0.12057 -0.38400
C 	C 	0.84113 0.95124 0.19042 0.28100
O 	O 	0.86443 0.01681 0.17760 -0.40300
O 	O 	0.86764 0.93394 0.17687 -0.39400
O 	O 	0.98335 0.95926 0.01927 -0.36500
Co	Co	0.89258 0.96503 0.62145 1.19300
Co	Co	0.94861 0.91083 0.59044 1.18100
Co	Co	0.90176 0.02961 0.69368 1.16100
C 	C 	0.97712 0.91631 0.50124 0.34700
O 	O 	0.94686 0.01015 0.66729 -0.78700
O 	O 	0.86525 0.91412 0.57316 -0.45000
C 	C 	0.88009 0.08703 0.57567 0.26100
C 	C 	0.96548 0.96451 0.79257 0.32200
C 	C 	0.19290 0.03728 0.60134 0.25000
C 	C 	0.91727 0.76729 0.62552 0.26300
O 	O 	0.90476 0.10061 0.62160 -0.37900
O 	O 	0.85369 0.02568 0.57185 -0.37200
O 	O 	0.90423 0.95710 0.76352 -0.38900
O 	O 	0.98571 0.79018 0.64319 -0.37300
O 	O 	0.89731 0.80300 0.62260 -0.37800
C 	C 	0.77597 0.88827 0.67277 0.27200
O 	O 	0.79527 0.95096 0.66458 -0.37100
O 	O 	0.81814 0.88181 0.66707 -0.38300
O 	O 	0.99041 0.87035 0.53561 -0.41700
O 	O 	0.95852 0.94099 0.51507 -0.35900
C 	C 	0.94208 0.91303 0.92691 0.30600
C 	C 	0.92813 0.91030 0.87648 -0.07300
C 	C 	0.98386 0.95748 0.84940 -0.14400
H 	H 	0.87353 0.87237 0.85796 0.09200
F 	F 	0.88767 0.86643 0.95261 -0.43000
C 	C 	0.93151 0.96991 0.35199 -0.09900
C 	C 	0.98108 0.97397 0.34064 -0.11700
C 	C 	0.97765 0.93593 0.44570 -0.15400
C 	C 	0.92944 0.95068 0.40416 0.34900
F 	F 	0.88029 0.94596 0.41413 -0.44100
H 	H 	0.89588 0.98354 0.32038 0.10100
C 	C 	0.20623 0.33680 0.78719 -0.08900
C 	C 	0.18501 0.37253 0.78747 0.03100
C 	C 	0.20457 0.46750 0.78182 0.12600
C 	C 	0.22848 0.42556 0.81060 -0.10200
H 	H 	0.24574 0.32960 0.81994 0.07900
H 	H 	0.28333 0.44390 0.83385 0.06900
C 	C 	0.52018 0.70763 0.75138 0.11500
C 	C 	0.58742 0.72045 0.76475 -0.08300
C 	C 	0.61851 0.74794 0.72344 0.01200
C 	C 	0.59103 0.77318 0.67252 0.12200
C 	C 	0.52744 0.76657 0.66038 -0.09100
C 	C 	0.49044 0.72836 0.70032 0.02700
O 	O 	0.48917 0.69160 0.78771 -0.20700
C 	C 	0.43585 0.70275 0.75295 0.12400
C 	C 	0.43989 0.72929 0.70088 -0.10100
O 	O 	0.64190 0.82399 0.64193 -0.18300
C 	C 	0.70251 0.82695 0.67928 0.04500
C 	C 	0.68927 0.78239 0.72806 -0.05400
H 	H 	0.61526 0.71140 0.80547 0.07500
H 	H 	0.50962 0.79279 0.62225 0.07500
H 	H 	0.39651 0.72816 0.66733 0.06800
H 	H 	0.73018 0.79096 0.76472 0.06000
C 	C 	0.25702 0.73804 0.82314 0.11500
C 	C 	0.27264 0.80083 0.81957 -0.08200
C 	C 	0.21521 0.80011 0.81410 0.01200
C 	C 	0.21455 0.85664 0.79168 -0.05100
O 	O 	0.30382 0.73668 0.81409 -0.21100
C 	C 	0.25376 0.67191 0.80110 0.12600
H 	H 	0.32657 0.84937 0.81769 0.07300
H 	H 	0.25992 0.90915 0.77814 0.05900
C 	C 	0.24799 0.36231 0.22469 0.12200
C 	C 	0.24973 0.42279 0.19785 -0.09200
C 	C 	0.23455 0.44379 0.22184 0.03000
C 	C 	0.22695 0.41195 0.27281 0.11500
C 	C 	0.22586 0.35186 0.30016 -0.08400
C 	C 	0.23705 0.32815 0.27509 0.01400
O 	O 	0.22743 0.31932 0.19776 -0.18100
C 	C 	0.20502 0.26021 0.28147 -0.05900
O 	O 	0.24352 0.45474 0.29803 -0.20700
C 	C 	0.26200 0.51548 0.25691 0.12600
C 	C 	0.25659 0.50918 0.21140 -0.10300
H 	H 	0.25782 0.44972 0.15820 0.07500
H 	H 	0.21724 0.32484 0.33966 0.07500
H 	H 	0.28519 0.55266 0.18101 0.06800
C 	C 	0.69587 0.85441 0.24695 0.12900
C 	C 	0.65970 0.85689 0.26783 -0.09700
C 	C 	0.58831 0.83581 0.24137 0.03400
C 	C 	0.55279 0.80981 0.19764 0.11300
C 	C 	0.58886 0.80679 0.17712 -0.08200
C 	C 	0.65972 0.82668 0.20409 0.00700
O 	O 	0.77090 0.89895 0.25445 -0.18700
C 	C 	0.77624 0.89562 0.21177 0.04000
C 	C 	0.71031 0.85270 0.18161 -0.04900
O 	O 	0.47776 0.76585 0.18938 -0.21300
C 	C 	0.47156 0.76579 0.23334 0.12600
C 	C 	0.53721 0.80766 0.26443 -0.10500
H 	H 	0.68711 0.87697 0.30231 0.08600
H 	H 	0.56148 0.78671 0.14265 0.06900
H 	H 	0.70088 0.85858 0.14044 0.05500
H 	H 	0.54621 0.79976 0.30595 0.07000
C 	C 	0.19245 0.67019 0.31417 0.11500
C 	C 	0.19746 0.77636 0.31542 0.12400
C 	C 	0.26238 0.78703 0.32431 -0.09200
C 	C 	0.25824 0.73061 0.32763 0.03000
O 	O 	0.19705 0.63448 0.29642 -0.21000
C 	C 	0.27179 0.67984 0.29974 0.12600
C 	C 	0.30866 0.73701 0.31856 -0.10200
O 	O 	0.19259 0.83194 0.29534 -0.18500
H 	H 	0.31352 0.83865 0.32496 0.07700
H 	H 	0.36226 0.78488 0.31445 0.06500
C 	C 	0.86959 0.22655 0.49282 0.12100
C 	C 	0.88511 0.28691 0.49427 -0.09600
C 	C 	0.82746 0.29122 0.47753 0.02700
C 	C 	0.75626 0.23440 0.46661 0.11400
C 	C 	0.74048 0.17220 0.46866 -0.08400
C 	C 	0.79854 0.17137 0.47836 0.00800
O 	O 	0.91633 0.20710 0.52376 -0.19500
C 	C 	0.86661 0.13476 0.52856 0.04600
C 	C 	0.79655 0.11326 0.50088 -0.05300
O 	O 	0.70732 0.23488 0.47348 -0.21500
C 	C 	0.75613 0.29674 0.49044 0.12400
C 	C 	0.82783 0.33041 0.49326 -0.10500
H 	H 	0.93934 0.32653 0.51174 0.06600
H 	H 	0.68546 0.12469 0.46674 0.06900
H 	H 	0.74856 0.06092 0.51089 0.06000
H 	H 	0.87395 0.36529 0.51866 0.06000
C 	C 	0.81652 0.56403 0.54200 0.11500
C 	C 	0.79421 0.60366 0.53288 -0.08600
C 	C 	0.80481 0.61992 0.57600 0.01400
C 	C 	0.83874 0.59991 0.62594 0.11900
C 	C 	0.85997 0.55937 0.63500 -0.09300
C 	C 	0.85137 0.54510 0.59169 0.02500
O 	O 	0.78443 0.52208 0.50936 -0.21000
C 	C 	0.80177 0.47496 0.54468 0.12300
C 	C 	0.84220 0.48879 0.59368 -0.10600
O 	O 	0.87384 0.64360 0.65795 -0.18400
C 	C 	0.86206 0.69434 0.62179 0.04900
C 	C 	0.81907 0.67937 0.57333 -0.05900
H 	H 	0.76813 0.62007 0.49369 0.07400
H 	H 	0.88622 0.54304 0.67413 0.06800
H 	H 	0.84298 0.44958 0.62951 0.06400
H 	H 	0.82041 0.71888 0.53707 0.06200
C 	C 	0.49428 0.20484 0.59076 0.11300
C 	C 	0.45221 0.17092 0.62635 -0.08200
C 	C 	0.37655 0.12651 0.60912 0.00700
C 	C 	0.34383 0.11879 0.55849 0.12300
C 	C 	0.38584 0.15264 0.52294 -0.09400
C 	C 	0.46146 0.19701 0.54012 0.03100
O 	O 	0.56628 0.22909 0.60662 -0.21300
C 	C 	0.57336 0.23480 0.56041 0.12500
C 	C 	0.50998 0.21283 0.52149 -0.10500
O 	O 	0.27180 0.09429 0.54262 -0.18400
C 	C 	0.26433 0.08779 0.58894 0.04900
C 	C 	0.32767 0.10986 0.62798 -0.05600
H 	H 	0.47744 0.17750 0.66611 0.06900
H 	H 	0.36058 0.14591 0.48322 0.07800
H 	H 	0.50640 0.22505 0.48029 0.07000
H 	H 	0.33110 0.09702 0.66925 0.05900
C 	C 	0.82570 0.19966 0.99359 0.12200
C 	C 	0.84332 0.26434 0.98805 -0.07200
C 	C 	0.80734 0.26410 0.01120 -0.00800
C 	C 	0.75093 0.20279 0.03356 0.12400
C 	C 	0.72983 0.13803 0.03607 -0.09200
C 	C 	0.76794 0.13768 0.01527 0.00400
O 	O 	0.87787 0.19417 0.99893 -0.17600
C 	C 	0.84899 0.12487 0.02875 0.03500
C 	C 	0.78209 0.09023 0.03658 -0.05800
O 	O 	0.70576 0.21022 0.03780 -0.21700
C 	C 	0.74053 0.28230 0.01512 0.10700
C 	C 	0.80092 0.31498 0.99862 -0.07000
H 	H 	0.88779 0.31316 0.97054 0.06600
H 	H 	0.68597 0.08949 0.05435 0.06700
H 	H 	0.76057 0.04521 0.06903 0.05000
H 	H 	0.82286 0.36333 0.96847 0.05800
C 	C 	0.82053 0.55000 0.06821 0.11600
C 	C 	0.84124 0.57104 0.11214 -0.08600
C 	C 	0.82414 0.61380 0.10603 0.01000
C 	C 	0.78968 0.63642 0.05784 0.12300
C 	C 	0.76729 0.61359 0.01434 -0.09600
C 	C 	0.78698 0.57328 0.02014 0.01400
O 	O 	0.80977 0.48987 0.07261 -0.21100
C 	C 	0.76538 0.47879 0.02266 0.10500
C 	C 	0.75152 0.52828 0.99117 -0.07500
O 	O 	0.80552 0.69975 0.05173 -0.16800
C 	C 	0.85624 0.71557 0.09919 0.04500
C 	C 	0.86586 0.66347 0.13235 -0.05600
H 	H 	0.86915 0.55424 0.14991 0.06500
H 	H 	0.73979 0.63064 0.97643 0.08700
H 	H 	0.70476 0.51963 0.95859 0.06300
H 	H 	0.91470 0.67268 0.16271 0.05000
C 	C 	0.43447 0.21337 0.02331 0.10500
C 	C 	0.40093 0.21443 0.04786 -0.08000
C 	C 	0.37731 0.16118 0.09300 0.00800
C 	C 	0.38208 0.10646 0.11104 0.12300
C 	C 	0.41384 0.10450 0.08574 -0.09600
C 	C 	0.43760 0.15765 0.04070 0.03200
O 	O 	0.48730 0.27453 0.99631 -0.19400
C 	C 	0.52395 0.25093 0.00066 0.10200
C 	C 	0.49377 0.18101 0.02639 -0.09800
O 	O 	0.33220 0.04610 0.14040 -0.18800
C 	C 	0.29533 0.06891 0.13677 0.04900
C 	C 	0.32197 0.13756 0.10879 -0.05400
H 	H 	0.39672 0.25710 0.03386 0.06800
H 	H 	0.41809 0.06181 0.09984 0.07100
H 	H 	0.52358 0.15839 0.04678 0.06400
H 	H 	0.29032 0.15822 0.08886 0.05700
