data_crystal

_cell_length_a 17.91093
_cell_length_b 19.71605
_cell_length_c 26.49071
_cell_angle_alpha 95.42468
_cell_angle_beta  95.42492
_cell_angle_gamma 126.41686

_symmetry_space_group_name_	'P 1'
_symmetry_space_group_name_H-M	'P 1'

loop_
_symmetry_equiv_pos_as_xyz
  x,y,z

loop_
_atom_site_label
_atom_site_type_symbol
_atom_site_fract_x
_atom_site_fract_y
_atom_site_fract_z
_atom_site_charge
C 	C 	0.96191 0.05160 0.99461 0.15500
N 	N 	0.05701 0.09947 0.99743 -0.12600
C 	C 	0.09882 0.06041 0.99404 0.15500
N 	N 	0.04568 0.97382 0.98723 -0.12200
C 	C 	0.95088 0.92587 0.98374 0.16400
N 	N 	0.90884 0.96464 0.98726 -0.11400
C 	C 	0.90257 0.98361 0.48482 0.16500
N 	N 	0.84346 0.89658 0.47882 -0.12000
C 	C 	0.87714 0.85111 0.47066 0.16000
N 	N 	0.96924 0.89232 0.46766 -0.12400
C 	C 	0.02838 0.97893 0.47331 0.16100
N 	N 	0.99533 0.02476 0.48252 -0.12600
Cu	Cu	0.68328 0.28514 0.00841 0.93000
Cu	Cu	0.71698 0.24185 0.89369 0.90400
Cu	Cu	0.70403 0.39907 0.93081 0.92400
Cu	Cu	0.66440 0.43419 0.03569 0.91300
C 	C 	0.69127 0.34607 0.11346 0.28800
O 	O 	0.54421 0.21772 0.01231 -0.35300
C 	C 	0.71956 0.35221 0.83059 0.30100
O 	O 	0.74022 0.41318 0.00381 -0.63100
O 	O 	0.65445 0.27750 0.93259 -0.62100
O 	O 	0.76709 0.24829 0.01160 -0.32500
O 	O 	0.69760 0.15973 0.93297 -0.38200
O 	O 	0.69178 0.41111 0.10412 -0.31900
O 	O 	0.75960 0.51881 0.93274 -0.32300
C 	C 	0.75325 0.56412 0.96961 0.30600
C 	C 	0.49548 0.24487 0.99772 0.30600
O 	O 	0.53838 0.32132 0.98614 -0.36300
O 	O 	0.68790 0.52606 0.99814 -0.35100
O 	O 	0.72070 0.31363 0.08228 -0.29500
C 	C 	0.75198 0.18560 0.97815 0.30900
O 	O 	0.68084 0.38042 0.85606 -0.32300
O 	O 	0.77152 0.33510 0.85582 -0.35000
H 	H 	0.80890 0.45681 0.01700 0.21000
H 	H 	0.58567 0.23775 0.91886 0.18200
Cu	Cu	0.61943 0.21271 0.50347 0.93500
Cu	Cu	0.65143 0.17023 0.38499 0.90500
Cu	Cu	0.66714 0.33805 0.43036 0.91600
Cu	Cu	0.58418 0.35156 0.52439 0.91500
C 	C 	0.63721 0.28733 0.60842 0.28600
O 	O 	0.47774 0.13896 0.50070 -0.30300
C 	C 	0.65235 0.27965 0.32038 0.30300
O 	O 	0.67252 0.33960 0.50260 -0.64000
O 	O 	0.60094 0.21202 0.42776 -0.63000
O 	O 	0.71025 0.18383 0.50939 -0.33400
O 	O 	0.65000 0.09974 0.42915 -0.37900
O 	O 	0.58566 0.31094 0.59067 -0.31800
O 	O 	0.72428 0.45885 0.43884 -0.34600
C 	C 	0.69513 0.49448 0.46750 0.30600
C 	C 	0.42698 0.16231 0.48239 0.29900
O 	O 	0.46939 0.23833 0.46986 -0.35400
O 	O 	0.61739 0.44690 0.48672 -0.34900
O 	O 	0.64893 0.23785 0.57806 -0.29600
C 	C 	0.70964 0.13287 0.47308 0.30600
O 	O 	0.69605 0.34398 0.36017 -0.34700
O 	O 	0.61167 0.20026 0.32685 -0.33900
H 	H 	0.73727 0.38301 0.52278 0.18200
H 	H 	0.53353 0.18000 0.41226 0.19600
C 	C 	0.61711 0.25795 0.74711 0.05300
C 	C 	0.70095 0.33555 0.77370 -0.00300
C 	C 	0.76699 0.39537 0.74593 -0.08000
C 	C 	0.74706 0.37591 0.69153 0.04600
C 	C 	0.66226 0.29893 0.66489 0.01700
C 	C 	0.59726 0.23837 0.69281 -0.09100
C 	C 	0.50609 0.15377 0.66476 0.78200
H 	H 	0.56729 0.21284 0.76894 0.07000
H 	H 	0.79639 0.42148 0.66971 0.08300
C 	C 	0.85826 0.47979 0.77422 0.77700
F 	F 	0.45549 0.10096 0.69857 -0.42800
F 	F 	0.52621 0.11068 0.63145 -0.42500
F 	F 	0.44985 0.16914 0.63698 -0.43100
F 	F 	0.91305 0.46392 0.80305 -0.41900
F 	F 	0.83825 0.52386 0.80680 -0.42300
F 	F 	0.91034 0.53188 0.74049 -0.42100
C 	C 	0.59254 0.27796 0.17872 0.05200
C 	C 	0.68255 0.32611 0.16583 0.01100
C 	C 	0.76349 0.36210 0.20437 -0.08500
C 	C 	0.75176 0.34623 0.25485 0.05300
C 	C 	0.66169 0.29856 0.26776 0.00500
C 	C 	0.58135 0.26636 0.22983 -0.08900
C 	C 	0.48350 0.21799 0.24334 0.78000
H 	H 	0.53128 0.25092 0.14894 0.07200
H 	H 	0.81259 0.37004 0.28416 0.08600
C 	C 	0.86194 0.41517 0.19151 0.78100
F 	F 	0.41911 0.20960 0.20483 -0.42800
F 	F 	0.48561 0.26120 0.28844 -0.44200
F 	F 	0.45238 0.13685 0.24984 -0.42800
F 	F 	0.87684 0.48130 0.16841 -0.42100
F 	F 	0.87152 0.36350 0.15821 -0.41900
F 	F 	0.93145 0.45128 0.23523 -0.42100
C 	C 	0.80444 0.72746 0.51528 -0.05300
C 	C 	0.81624 0.75828 0.46887 -0.01300
C 	C 	0.78435 0.70139 0.42179 0.10700
C 	C 	0.74485 0.61525 0.42167 -0.01200
C 	C 	0.73682 0.58519 0.46829 -0.07600
C 	C 	0.76607 0.64161 0.51533 0.14000
Br	Br	0.76116 0.60447 0.58025 -0.19300
H 	H 	0.82958 0.77129 0.55163 0.09700
H 	H 	0.72051 0.57170 0.38531 0.09100
Br	Br	0.79505 0.74057 0.35733 -0.15000
C 	C 	0.88121 0.08613 0.45202 -0.05500
C 	C 	0.86413 0.03224 0.48757 -0.01500
C 	C 	0.80637 0.02191 0.52354 0.10300
C 	C 	0.76031 0.05962 0.52067 -0.00900
C 	C 	0.77240 0.10857 0.48269 -0.08400
C 	C 	0.83624 0.12467 0.44967 0.14200
Br	Br	0.86362 0.19989 0.40139 -0.24400
H 	H 	0.92757 0.09631 0.42521 0.10200
H 	H 	0.71310 0.04882 0.54705 0.09100
Br	Br	0.79253 0.95970 0.57801 -0.15600
C 	C 	0.17884 0.00478 0.50653 -0.04900
C 	C 	0.12949 0.02303 0.47358 -0.01900
C 	C 	0.17492 0.07689 0.43812 0.11200
C 	C 	0.27066 0.11647 0.43842 -0.02300
C 	C 	0.32215 0.10270 0.47373 -0.06500
C 	C 	0.27355 0.04159 0.50561 0.13700
Br	Br	0.32961 0.99894 0.54344 -0.07400
H 	H 	0.14270 0.95999 0.53211 0.09800
H 	H 	0.30562 0.15946 0.41179 0.09600
Br	Br	0.10688 0.09473 0.38757 -0.15700
C 	C 	0.90877 0.80145 0.02290 -0.05200
C 	C 	0.89542 0.83298 0.98052 -0.00900
C 	C 	0.83745 0.77609 0.93375 0.11000
C 	C 	0.79331 0.68828 0.92991 -0.00800
C 	C 	0.80661 0.65683 0.97243 -0.06700
C 	C 	0.86520 0.71395 0.01901 0.13500
Br	Br	0.88976 0.67399 0.07707 -0.17200
H 	H 	0.95467 0.84536 0.05866 0.10300
H 	H 	0.74780 0.64442 0.89407 0.09700
Br	Br	0.81948 0.81733 0.87448 -0.15100
C 	C 	0.79972 0.10823 0.02321 -0.00900
C 	C 	0.81303 0.15918 0.98634 -0.07600
C 	C 	0.88204 0.18145 0.95579 0.14300
C 	C 	0.93212 0.14783 0.95982 -0.05300
C 	C 	0.91552 0.09330 0.99484 -0.00700
C 	C 	0.85121 0.07586 0.02797 0.10500
Br	Br	0.83638 0.01206 0.08166 -0.15400
H 	H 	0.74873 0.09303 0.04785 0.08600
H 	H 	0.98298 0.16307 0.93507 0.09300
Br	Br	0.91113 0.25989 0.90950 -0.22500
C 	C 	0.35575 0.16101 0.03904 -0.01400
C 	C 	0.39264 0.19009 0.99475 -0.08400
C 	C 	0.33231 0.17680 0.95029 0.14400
C 	C 	0.23728 0.13855 0.95142 -0.05700
C 	C 	0.20096 0.11117 0.99606 -0.00900
C 	C 	0.26048 0.12203 0.03996 0.10100
Br	Br	0.21321 0.08552 0.10188 -0.11700
H 	H 	0.40169 0.17089 0.07328 0.08500
H 	H 	0.19094 0.12777 0.91703 0.09200
Br	Br	0.37689 0.20539 0.88671 -0.19200
