data_crystal

_cell_length_a 23.23342
_cell_length_b 23.38890
_cell_length_c 30.99500
_cell_angle_alpha 95.52892
_cell_angle_beta  95.52420
_cell_angle_gamma 125.77769

_symmetry_space_group_name_	'P 1'
_symmetry_space_group_name_H-M	'P 1'

loop_
_symmetry_equiv_pos_as_xyz
  x,y,z

loop_
_atom_site_label
_atom_site_type_symbol
_atom_site_fract_x
_atom_site_fract_y
_atom_site_fract_z
_atom_site_charge
N 	N 	0.03935 0.98042 0.99250 -0.13900
C 	C 	0.07802 0.05242 0.99590 0.13200
N 	N 	0.04412 0.08405 0.99679 -0.13800
N 	N 	0.00194 0.03204 0.45864 -0.13800
C 	C 	0.03307 0.99797 0.45682 0.13200
C 	C 	0.24984 0.11038 0.46184 0.03300
C 	C 	0.29684 0.13423 0.50226 -0.06700
C 	C 	0.10941 0.03819 0.45884 -0.03500
C 	C 	0.27725 0.12463 0.42279 -0.06700
C 	C 	0.17348 0.07130 0.46038 -0.00300
H 	H 	0.27586 0.12309 0.53256 0.05000
H 	H 	0.24108 0.10586 0.39139 0.05000
C 	C 	0.29365 0.15652 0.00100 0.02500
C 	C 	0.15458 0.09438 0.99803 -0.03700
C 	C 	0.21834 0.12465 0.99952 0.00200
H 	H 	0.30302 0.21222 0.94736 0.04800
H 	H 	0.01702 0.17195 0.04102 0.04700
H 	H 	0.30048 0.10528 0.05363 0.04800
N 	N 	0.99212 0.92583 0.45328 -0.14200
H 	H 	0.98428 0.12097 0.50979 0.04100
C 	C 	0.97120 0.04304 0.99434 0.11300
N 	N 	0.93290 0.97082 0.99114 -0.14000
C 	C 	0.96698 0.93966 0.99006 0.12800
C 	C 	0.92961 0.99407 0.45716 0.11300
C 	C 	0.91990 0.88737 0.45191 0.11700
N 	N 	0.88844 0.92147 0.45397 -0.13900
Cu	Cu	0.64471 0.24833 0.00808 0.92600
Cu	Cu	0.68458 0.23382 0.91078 0.87100
Cu	Cu	0.68128 0.35438 0.94539 0.89700
Cu	Cu	0.65855 0.39000 0.03677 0.89500
C 	C 	0.65707 0.29850 0.09871 0.28400
O 	O 	0.54112 0.20837 0.01175 -0.36900
C 	C 	0.64290 0.29192 0.84957 0.28100
O 	O 	0.70561 0.35909 0.00731 -0.63700
O 	O 	0.62735 0.24902 0.94430 -0.64000
O 	O 	0.68854 0.19597 0.00590 -0.37500
O 	O 	0.75882 0.26011 0.95794 -0.44400
O 	O 	0.66982 0.36025 0.09352 -0.38300
O 	O 	0.73922 0.45764 0.95102 -0.38100
C 	C 	0.73954 0.50023 0.98247 0.29200
C 	C 	0.51448 0.24275 0.00142 0.27900
O 	O 	0.55684 0.30746 0.99299 -0.38800
O 	O 	0.69077 0.47397 0.00801 -0.39600
O 	O 	0.67308 0.26559 0.07083 -0.36100
C 	C 	0.74495 0.21891 0.98718 0.31100
O 	O 	0.67260 0.34971 0.88060 -0.38400
O 	O 	0.63323 0.23337 0.85882 -0.41800
H 	H 	0.75820 0.38785 0.01873 0.16500
H 	H 	0.57583 0.22077 0.93013 0.17300
Cu	Cu	0.73439 0.32875 0.44665 0.92700
Cu	Cu	0.74244 0.28536 0.54365 0.87100
Cu	Cu	0.62388 0.29124 0.50644 0.89700
Cu	Cu	0.59644 0.32054 0.41719 0.89500
C 	C 	0.67648 0.30089 0.35393 0.28300
O 	O 	0.77346 0.43200 0.44357 -0.36200
C 	C 	0.68162 0.32680 0.60291 0.28200
O 	O 	0.62260 0.26881 0.44492 -0.63900
O 	O 	0.73035 0.34406 0.50997 -0.64000
O 	O 	0.78731 0.28528 0.45082 -0.37300
O 	O 	0.71832 0.21281 0.49641 -0.44300
O 	O 	0.64341 0.32942 0.36478 -0.38200
O 	O 	0.51969 0.23467 0.49863 -0.38200
C 	C 	0.47759 0.23376 0.46620 0.29000
C 	C 	0.74136 0.45921 0.45824 0.30000
O 	O 	0.67566 0.41646 0.46578 -0.39300
O 	O 	0.50464 0.28051 0.43946 -0.39300
O 	O 	0.71938 0.29888 0.38411 -0.36100
C 	C 	0.76175 0.22768 0.46832 0.30700
O 	O 	0.62481 0.29787 0.57089 -0.38400
O 	O 	0.74076 0.33538 0.59520 -0.41800
H 	H 	0.59246 0.21682 0.43239 0.16400
H 	H 	0.75900 0.39491 0.52487 0.17300
C 	C 	0.67520 0.34015 0.64903 -0.07400
C 	C 	0.73299 0.40268 0.67812 0.00500
C 	C 	0.73400 0.40947 0.72357 -0.05900
C 	C 	0.67774 0.35322 0.74051 0.01300
C 	C 	0.61761 0.29173 0.71122 0.01300
C 	C 	0.61607 0.28607 0.66547 -0.02100
C 	C 	0.56202 0.23488 0.72818 -0.05900
C 	C 	0.56830 0.23691 0.77374 0.00400
C 	C 	0.62966 0.29625 0.80290 -0.07400
C 	C 	0.68285 0.35567 0.78632 -0.02200
H 	H 	0.77828 0.44511 0.66561 0.03000
H 	H 	0.77981 0.45738 0.74566 0.04200
H 	H 	0.57115 0.23791 0.64301 0.04000
H 	H 	0.51509 0.18797 0.70607 0.04200
H 	H 	0.52642 0.19139 0.78631 0.03100
H 	H 	0.73007 0.40179 0.80881 0.04100
C 	C 	0.67914 0.28732 0.30682 -0.06700
C 	C 	0.74372 0.30574 0.29426 0.00600
C 	C 	0.75009 0.30466 0.24979 -0.05500
C 	C 	0.69211 0.28550 0.21739 0.01400
C 	C 	0.62577 0.26313 0.22957 0.01500
C 	C 	0.61938 0.26335 0.27419 -0.02100
C 	C 	0.56790 0.24438 0.19726 -0.05600
C 	C 	0.57711 0.25197 0.15374 0.00300
C 	C 	0.64385 0.27739 0.14188 -0.06700
C 	C 	0.70061 0.29189 0.17337 -0.01600
H 	H 	0.78995 0.32363 0.31906 0.04400
H 	H 	0.80086 0.32085 0.24076 0.04500
H 	H 	0.56896 0.24755 0.28370 0.03500
H 	H 	0.51645 0.22614 0.20610 0.04200
H 	H 	0.53298 0.24024 0.12948 0.02800
H 	H 	0.75216 0.31137 0.16413 0.04400
C 	C 	0.82053 0.66637 0.45266 -0.00100
C 	C 	0.81088 0.70585 0.48418 -0.04000
C 	C 	0.83865 0.77701 0.48207 -0.02300
C 	C 	0.77161 0.53296 0.45735 -0.10800
C 	C 	0.88298 0.76819 0.41587 -0.02200
C 	C 	0.85519 0.69719 0.41798 -0.03900
C 	C 	0.79446 0.59402 0.45565 0.04200
C 	C 	0.87648 0.80907 0.44853 -0.01800
H 	H 	0.78314 0.68200 0.51074 0.04100
H 	H 	0.83347 0.80804 0.50753 0.04000
H 	H 	0.91176 0.79227 0.38971 0.04100
H 	H 	0.86179 0.66663 0.39309 0.04300
C 	C 	0.84233 0.11252 0.45892 -0.00400
C 	C 	0.80398 0.04475 0.43157 -0.03800
C 	C 	0.83101 0.00461 0.43204 -0.02400
C 	C 	0.79009 0.18740 0.46247 -0.11800
C 	C 	0.93400 0.09940 0.48784 -0.02500
C 	C 	0.90704 0.13938 0.48724 -0.03900
C 	C 	0.81355 0.15302 0.45982 0.04400
C 	C 	0.89660 0.03211 0.45991 -0.01600
H 	H 	0.75346 0.02324 0.40991 0.04200
H 	H 	0.80182 0.95303 0.41012 0.04200
H 	H 	0.93646 0.19124 0.50891 0.03700
C 	C 	0.37122 0.17321 0.50372 0.01700
C 	C 	0.35152 0.16355 0.42414 0.01600
C 	C 	0.39902 0.18866 0.46466 -0.08800
H 	H 	0.40722 0.19254 0.53523 0.03800
H 	H 	0.37219 0.17442 0.39374 0.02600
C 	C 	0.85807 0.72504 0.98485 0.03700
C 	C 	0.83276 0.67774 0.94452 -0.06800
C 	C 	0.79622 0.60429 0.94368 0.01800
C 	C 	0.92699 0.86386 0.98747 -0.03500
C 	C 	0.81181 0.62575 0.02361 0.01500
C 	C 	0.84826 0.69902 0.02437 -0.07000
C 	C 	0.89500 0.80040 0.98585 -0.00400
C 	C 	0.78473 0.57786 0.98324 -0.08800
H 	H 	0.84076 0.69772 0.91385 0.05000
H 	H 	0.77530 0.56786 0.91228 0.03700
H 	H 	0.80385 0.60603 0.05436 0.02300
H 	H 	0.86846 0.73551 0.05568 0.04900
C 	C 	0.85576 0.13372 0.99617 -0.00400
C 	C 	0.82531 0.06747 0.96909 -0.03800
C 	C 	0.86377 0.03883 0.96771 -0.02600
C 	C 	0.78421 0.18952 0.99288 -0.12000
C 	C 	0.96385 0.14286 0.02059 -0.03300
C 	C 	0.92524 0.17158 0.02179 -0.03700
C 	C 	0.81725 0.16460 0.99544 0.04600
C 	C 	0.93311 0.07610 0.99364 -0.01200
H 	H 	0.77199 0.03832 0.94881 0.03800
H 	H 	0.83969 0.98767 0.94643 0.04300
H 	H 	0.94939 0.22318 0.04255 0.04000
C 	C 	0.32868 0.13921 0.03032 -0.06300
C 	C 	0.40010 0.16522 0.02943 0.00800
C 	C 	0.40155 0.22567 0.96966 0.01100
C 	C 	0.33011 0.19950 0.97056 -0.06100
C 	C 	0.43705 0.20892 0.99924 -0.08500
H 	H 	0.42708 0.15261 0.05278 0.03400
H 	H 	0.42935 0.25910 0.94607 0.03200
