data_crystal

_cell_length_a 45.15905
_cell_length_b 43.98094
_cell_length_c 30.50691
_cell_angle_alpha 89.96411
_cell_angle_beta  89.95570
_cell_angle_gamma 89.85294

_symmetry_space_group_name_	'P 1'
_symmetry_space_group_name_H-M	'P 1'

loop_
_symmetry_equiv_pos_as_xyz
  x,y,z

loop_
_atom_site_label
_atom_site_type_symbol
_atom_site_fract_x
_atom_site_fract_y
_atom_site_fract_z
_atom_site_charge
C 	C 	0.51063 0.52584 0.97678 0.01000
C 	C 	0.52483 0.49691 0.97698 0.01300
C 	C 	0.47966 0.52772 0.97309 -0.05400
C 	C 	0.46264 0.50107 0.97064 0.01000
C 	C 	0.50783 0.47027 0.97413 -0.05600
C 	C 	0.47681 0.47213 0.97151 0.01100
H 	H 	0.51870 0.44832 0.97218 0.05000
H 	H 	0.46902 0.54974 0.97037 0.04900
C 	C 	0.45926 0.44572 0.96751 -0.01400
C 	C 	0.42824 0.44736 0.96649 0.00700
C 	C 	0.41425 0.41999 0.98013 -0.05300
C 	C 	0.43445 0.39757 0.99321 -0.00200
S 	S 	0.46854 0.41136 0.98636 -0.00700
H 	H 	0.39058 0.41632 0.97898 0.04300
C 	C 	0.43158 0.50233 0.96535 -0.01300
C 	C 	0.41433 0.47585 0.96540 0.00700
C 	C 	0.38428 0.48113 0.97721 -0.05200
C 	C 	0.37855 0.51157 0.98752 -0.00100
S 	S 	0.40991 0.53117 0.98096 -0.00900
H 	H 	0.36732 0.46378 0.97678 0.04300
C 	C 	0.55917 0.55062 0.98215 -0.00000
C 	C 	0.52831 0.55227 0.97770 -0.01100
S 	S 	0.51739 0.58627 0.99587 -0.00400
C 	C 	0.55079 0.60020 0.00855 -0.01400
C 	C 	0.57195 0.57781 0.99874 -0.03500
C 	C 	0.55610 0.49572 0.97783 -0.01700
C 	C 	0.57313 0.52215 0.98253 0.01700
C 	C 	0.60181 0.51654 0.00007 -0.06200
C 	C 	0.60663 0.48586 0.01006 -0.00300
S 	S 	0.57620 0.46652 0.99633 -0.00500
H 	H 	0.61864 0.53383 0.00368 0.04300
H 	H 	0.59557 0.58141 0.00152 0.03400
C 	C 	0.41784 0.30201 0.99034 0.02000
C 	C 	0.42620 0.31619 0.02961 -0.04300
C 	C 	0.43137 0.34749 0.03055 -0.04600
C 	C 	0.42785 0.36491 0.99242 0.01800
C 	C 	0.41892 0.35085 0.95332 -0.04100
C 	C 	0.41395 0.31949 0.95229 -0.04300
H 	H 	0.42917 0.30286 0.05916 0.04100
H 	H 	0.43826 0.35819 0.06084 0.04000
H 	H 	0.41630 0.36412 0.92364 0.04100
H 	H 	0.40761 0.30870 0.92180 0.04000
C 	C 	0.29142 0.54999 0.98479 0.02200
C 	C 	0.29814 0.52622 0.01380 -0.04400
C 	C 	0.32668 0.51389 0.01487 -0.04600
C 	C 	0.34874 0.52522 0.98692 0.01700
C 	C 	0.34195 0.54897 0.95773 -0.04000
C 	C 	0.31340 0.56132 0.95676 -0.04300
H 	H 	0.28124 0.51731 0.03549 0.04200
H 	H 	0.33166 0.49555 0.03744 0.03900
H 	H 	0.35862 0.55755 0.93541 0.04100
H 	H 	0.30836 0.57966 0.93422 0.04000
C 	C 	0.69402 0.44843 0.01729 0.00700
C 	C 	0.68438 0.46955 0.04867 -0.04400
C 	C 	0.65561 0.48127 0.04675 -0.04000
C 	C 	0.63633 0.47216 0.01323 0.00500
C 	C 	0.64605 0.45113 0.98168 -0.03400
C 	C 	0.67482 0.43942 0.98364 -0.03900
H 	H 	0.69925 0.47703 0.07432 0.03900
H 	H 	0.64839 0.49764 0.07106 0.03800
H 	H 	0.63160 0.44440 0.95511 0.04000
H 	H 	0.68231 0.42359 0.95877 0.04000
C 	C 	0.57199 0.69508 0.01847 0.01000
C 	C 	0.59100 0.67315 0.03647 -0.04000
C 	C 	0.58370 0.64231 0.03419 -0.04100
C 	C 	0.55762 0.63304 0.01291 0.01000
C 	C 	0.53830 0.65520 0.99573 -0.03600
C 	C 	0.54527 0.68604 0.99916 -0.03200
H 	H 	0.61146 0.67998 0.05211 0.03900
H 	H 	0.59831 0.62566 0.04897 0.03800
H 	H 	0.51807 0.64865 0.97931 0.04100
H 	H 	0.52999 0.70291 0.98655 0.03800
Zn	Zn	0.37384 0.11583 0.00556 1.21900
C 	C 	0.40538 0.17160 0.98819 0.33600
O 	O 	0.38192 0.11136 0.94251 -0.44800
O 	O 	0.42574 0.15464 0.96940 -0.45300
O 	O 	0.42561 0.08690 0.95409 -0.51100
C 	C 	0.41149 0.11347 0.08167 0.32700
O 	O 	0.38900 0.10068 0.06169 -0.47100
O 	O 	0.43243 0.12663 0.05881 -0.50300
C 	C 	0.40343 0.09387 0.92816 0.33400
O 	O 	0.34427 0.07158 0.00324 -0.32900
Zn	Zn	0.43994 0.11498 0.99854 1.17100
O 	O 	0.38467 0.15888 0.01231 -0.44500
C 	C 	0.32207 0.09024 0.00653 0.29200
O 	O 	0.32882 0.11880 0.00829 -0.39100
C 	C 	0.49724 0.97086 0.53345 0.01000
C 	C 	0.47413 0.99289 0.53404 0.01100
C 	C 	0.52025 0.97326 0.50258 -0.05400
C 	C 	0.52073 0.99763 0.47276 0.01000
C 	C 	0.47441 0.01706 0.50385 -0.05400
C 	C 	0.49767 0.01971 0.47345 0.01100
H 	H 	0.45677 0.03379 0.50421 0.05000
H 	H 	0.53778 0.95640 0.50198 0.05000
C 	C 	0.49932 0.04472 0.44448 -0.01300
C 	C 	0.52204 0.04713 0.41326 0.00800
C 	C 	0.51440 0.06613 0.37713 -0.05600
C 	C 	0.48573 0.07808 0.38017 0.00700
S 	S 	0.47025 0.06440 0.42586 -0.01000
H 	H 	0.52779 0.06838 0.34792 0.04400
C 	C 	0.54443 0.00136 0.44298 -0.01300
C 	C 	0.54471 0.02522 0.41238 0.00800
C 	C 	0.56274 0.01899 0.37507 -0.05600
C 	C 	0.57606 0.99023 0.37647 0.00700
S 	S 	0.56482 0.97304 0.42243 -0.01000
H 	H 	0.56319 0.03311 0.34605 0.04400
C 	C 	0.47438 0.94506 0.59635 0.00800
C 	C 	0.49629 0.94657 0.56374 -0.01300
S 	S 	0.52591 0.92769 0.58214 -0.01100
C 	C 	0.51183 0.91564 0.62973 0.00800
C 	C 	0.48313 0.92747 0.63344 -0.05600
C 	C 	0.45094 0.98969 0.56483 -0.01300
C 	C 	0.45151 0.96678 0.59688 0.00800
C 	C 	0.43413 0.97393 0.63455 -0.05600
C 	C 	0.42047 0.00249 0.63200 0.00700
S 	S 	0.43061 0.01834 0.58453 -0.01000
H 	H 	0.43442 0.96070 0.66443 0.04500
H 	H 	0.47055 0.92629 0.66356 0.04500
Zn	Zn	0.62705 0.87941 0.00416 1.21800
C 	C 	0.59520 0.82354 0.02024 0.32200
O 	O 	0.61311 0.89456 0.94675 -0.46500
O 	O 	0.57363 0.84031 0.03629 -0.45700
O 	O 	0.56968 0.86866 0.94845 -0.49700
C 	C 	0.59660 0.90173 0.07960 0.33500
O 	O 	0.61758 0.88328 0.06625 -0.46100
O 	O 	0.57479 0.90894 0.05318 -0.51600
C 	C 	0.59079 0.88194 0.92613 0.32400
O 	O 	0.65610 0.92371 0.01225 -0.33200
Zn	Zn	0.56118 0.88092 0.00812 1.16800
O 	O 	0.61680 0.83625 0.99785 -0.43700
C 	C 	0.67839 0.90586 0.00432 0.28600
O 	O 	0.67189 0.87768 0.99697 -0.37900
Zn	Zn	0.12049 0.62019 0.00010 1.21900
C 	C 	0.08628 0.67552 0.00306 0.32700
O 	O 	0.11248 0.59761 0.05463 -0.47100
O 	O 	0.06322 0.66000 0.98944 -0.44600
O 	O 	0.06915 0.62180 0.06933 -0.50100
C 	C 	0.08288 0.60688 0.92737 0.33500
O 	O 	0.10541 0.62329 0.94046 -0.45300
O 	O 	0.06493 0.59478 0.95631 -0.51400
C 	C 	0.09247 0.60677 0.08295 0.32500
O 	O 	0.14994 0.57924 0.97515 -0.32400
Zn	Zn	0.05481 0.61627 0.01002 1.16800
O 	O 	0.10956 0.66137 0.01915 -0.44300
C 	C 	0.17221 0.59688 0.98362 0.29000
O 	O 	0.16545 0.62331 0.99945 -0.38400
C 	C 	0.99151 0.52917 0.53088 0.01000
C 	C 	0.96889 0.50678 0.52973 0.01000
C 	C 	0.01566 0.52712 0.50192 -0.05500
C 	C 	0.01744 0.50306 0.47171 0.01000
C 	C 	0.97070 0.48269 0.49960 -0.05500
C 	C 	0.99480 0.48070 0.47054 0.01000
H 	H 	0.95346 0.46564 0.49872 0.05000
H 	H 	0.03293 0.54415 0.50285 0.05000
C 	C 	0.99707 0.45666 0.44005 -0.01300
C 	C 	0.01969 0.45597 0.40845 0.00800
C 	C 	0.01195 0.43900 0.37032 -0.05700
C 	C 	0.98332 0.42691 0.37210 0.00700
S 	S 	0.96828 0.43778 0.41955 -0.01000
H 	H 	0.02498 0.43884 0.34058 0.04500
C 	C 	0.04153 0.50048 0.44237 -0.01300
C 	C 	0.04213 0.47805 0.40967 0.00800
C 	C 	0.06009 0.48612 0.37300 -0.05700
C 	C 	0.07297 0.51493 0.37687 0.00700
S 	S 	0.06163 0.52968 0.42440 -0.01100
H 	H 	0.06055 0.47345 0.34265 0.04500
C 	C 	0.96621 0.55424 0.59234 0.00800
C 	C 	0.98898 0.55339 0.56103 -0.01300
S 	S 	0.01746 0.57294 0.58123 -0.01100
C 	C 	0.00190 0.58454 0.62797 0.00700
C 	C 	0.97346 0.57200 0.62990 -0.05700
C 	C 	0.94476 0.50933 0.55899 -0.01300
C 	C 	0.94403 0.53187 0.59154 0.00800
C 	C 	0.92643 0.52365 0.62853 -0.05600
C 	C 	0.91387 0.49466 0.62500 0.00700
S 	S 	0.92504 0.47999 0.57736 -0.01000
H 	H 	0.92622 0.53626 0.65893 0.04600
H 	H 	0.96015 0.57268 0.65935 0.04500
Zn	Zn	0.86750 0.38623 0.99957 1.22400
C 	C 	0.90175 0.33105 0.99743 0.33600
O 	O 	0.88265 0.38454 0.05985 -0.45400
O 	O 	0.92395 0.34683 0.01326 -0.46000
O 	O 	0.92349 0.41222 0.04268 -0.51600
C 	C 	0.89565 0.39875 0.91670 0.32800
O 	O 	0.87553 0.40785 0.94489 -0.46900
O 	O 	0.91911 0.38398 0.93047 -0.49700
C 	C 	0.90515 0.40132 0.07210 0.33500
O 	O 	0.83771 0.42836 0.01883 -0.32900
Zn	Zn	0.93342 0.38962 0.98978 1.17200
O 	O 	0.87850 0.34497 0.98092 -0.43600
C 	C 	0.81583 0.40935 0.01686 0.29400
O 	O 	0.82288 0.38168 0.00685 -0.38800
C 	C 	0.01473 0.97694 0.02600 0.01000
C 	C 	0.02928 0.00561 0.02570 0.01000
C 	C 	0.98364 0.97562 0.02656 -0.05500
C 	C 	0.96687 0.00256 0.02611 0.01000
C 	C 	0.01251 0.03257 0.02568 -0.05500
C 	C 	0.98140 0.03124 0.02553 0.01000
H 	H 	0.02354 0.05437 0.02761 0.04900
H 	H 	0.97262 0.95385 0.02920 0.04900
C 	C 	0.96402 0.05796 0.02736 -0.01300
C 	C 	0.93300 0.05686 0.02607 0.00600
C 	C 	0.91981 0.08449 0.01155 -0.05100
C 	C 	0.94073 0.10664 0.00032 -0.00800
S 	S 	0.97446 0.09206 0.00919 -0.01100
H 	H 	0.89616 0.08854 0.01111 0.04000
C 	C 	0.93562 0.00189 0.02862 -0.01300
C 	C 	0.91871 0.02864 0.02655 0.00700
C 	C 	0.88913 0.02372 0.01225 -0.05500
C 	C 	0.88347 0.99324 0.00195 0.00000
S 	S 	0.91428 0.97329 0.01167 -0.01200
H 	H 	0.87241 0.04136 0.01074 0.04200
C 	C 	0.06307 0.95125 0.02626 0.00700
C 	C 	0.03208 0.95023 0.02821 -0.01300
S 	S 	0.02144 0.91590 0.01140 -0.01300
C 	C 	0.05506 0.90111 0.00235 0.00100
C 	C 	0.07611 0.92339 0.01236 -0.05400
C 	C 	0.06056 0.00624 0.02779 -0.01300
C 	C 	0.07740 0.97944 0.02579 0.00700
C 	C 	0.10689 0.98417 0.01094 -0.05500
C 	C 	0.11263 0.01456 0.00035 0.00000
S 	S 	0.08191 0.03473 0.01032 -0.01200
H 	H 	0.12360 0.96650 0.00972 0.04200
H 	H 	0.09974 0.91927 0.01162 0.04100
C 	C 	0.92050 0.20190 0.99675 0.01900
C 	C 	0.90266 0.18112 0.97414 -0.04100
C 	C 	0.90950 0.15010 0.97491 -0.04400
C 	C 	0.93410 0.13955 0.99869 0.02500
C 	C 	0.95197 0.16046 0.02128 -0.04800
C 	C 	0.94536 0.19149 0.01990 -0.04100
H 	H 	0.88343 0.18898 0.95613 0.04000
H 	H 	0.89571 0.13428 0.95702 0.04100
H 	H 	0.97072 0.15272 0.04039 0.04300
H 	H 	0.95938 0.20742 0.03721 0.04100
C 	C 	0.79690 0.95396 0.00233 0.01200
C 	C 	0.80570 0.97295 0.03683 -0.04200
C 	C 	0.83397 0.98582 0.03680 -0.03900
C 	C 	0.85371 0.97968 0.00230 0.00500
C 	C 	0.84505 0.96027 0.96820 -0.03300
C 	C 	0.81670 0.94754 0.96813 -0.03500
H 	H 	0.79056 0.97788 0.06348 0.03900
H 	H 	0.84058 0.00041 0.06365 0.03900
H 	H 	0.86019 0.95526 0.94157 0.04100
H 	H 	0.81008 0.93282 0.94143 0.04200
C 	C 	0.20084 0.04974 0.00163 0.01200
C 	C 	0.19165 0.03048 0.96768 -0.03500
C 	C 	0.16266 0.01940 0.96696 -0.03400
C 	C 	0.14260 0.02763 0.00005 0.00500
C 	C 	0.15176 0.04710 0.03388 -0.03800
C 	C 	0.18079 0.05809 0.03465 -0.04200
H 	H 	0.20703 0.02390 0.94210 0.04100
H 	H 	0.15584 0.00427 0.94085 0.04000
H 	H 	0.13660 0.05324 0.05996 0.04000
H 	H 	0.18776 0.07290 0.06105 0.03900
C 	C 	0.07381 0.80556 0.00194 0.01100
C 	C 	0.09092 0.82548 0.97652 -0.03800
C 	C 	0.08475 0.85666 0.97667 -0.03400
C 	C 	0.06152 0.86818 0.00244 0.00500
C 	C 	0.04465 0.84820 0.02829 -0.03900
C 	C 	0.05060 0.81703 0.02767 -0.03900
H 	H 	0.10894 0.81681 0.95662 0.03900
H 	H 	0.09790 0.87182 0.95658 0.03900
H 	H 	0.02712 0.85678 0.04915 0.04000
H 	H 	0.03724 0.80179 0.04732 0.04000
C 	C 	0.91311 0.23462 0.99641 0.00800
C 	C 	0.90557 0.24968 0.03562 0.03200
C 	C 	0.90118 0.28130 0.03544 -0.01800
C 	C 	0.90361 0.29780 0.99634 -0.10700
C 	C 	0.90983 0.28261 0.95680 0.10600
C 	C 	0.91460 0.25103 0.95703 -0.09200
H 	H 	0.89606 0.29300 0.06580 0.03900
H 	H 	0.92003 0.23941 0.92673 0.05200
N 	N 	0.90235 0.23271 0.07569 -0.13600
N 	N 	0.91166 0.29943 0.91639 -0.14200
C 	C 	0.87117 0.22580 0.08389 -0.09100
H 	H 	0.85810 0.24703 0.08851 0.04800
H 	H 	0.86933 0.21190 0.11416 0.04800
H 	H 	0.86177 0.21240 0.05632 0.05100
C 	C 	0.94254 0.30584 0.90522 -0.08400
H 	H 	0.95332 0.31912 0.93175 0.03800
H 	H 	0.94327 0.31965 0.87477 0.04500
H 	H 	0.95507 0.28441 0.89945 0.04200
H 	H 	0.91133 0.24471 0.10213 0.07500
H 	H 	0.90142 0.28747 0.89094 0.07900
C 	C 	0.89997 0.44392 0.74148 0.04900
N 	N 	0.87759 0.46058 0.72338 -0.10800
C 	C 	0.88139 0.47617 0.68521 0.02000
C 	C 	0.90879 0.47555 0.66372 -0.01200
C 	C 	0.93198 0.45842 0.68155 -0.02000
C 	C 	0.92766 0.44263 0.72058 -0.05800
H 	H 	0.86328 0.48949 0.67201 0.03300
H 	H 	0.95352 0.45808 0.66587 0.03700
H 	H 	0.94595 0.43034 0.73528 0.04200
C 	C 	0.89371 0.40829 0.87052 -0.12500
C 	C 	0.90618 0.39032 0.83743 0.03900
C 	C 	0.90709 0.40120 0.79454 -0.08800
C 	C 	0.89595 0.43032 0.78521 0.06600
N 	N 	0.88250 0.44678 0.81741 -0.12100
C 	C 	0.88105 0.43643 0.85940 0.07000
H 	H 	0.91541 0.36817 0.84498 0.02600
H 	H 	0.91681 0.38737 0.76890 0.05000
H 	H 	0.87092 0.45051 0.88438 0.02700
C 	C 	0.92695 0.41384 0.20619 0.06600
N 	N 	0.91446 0.38740 0.19222 -0.12000
C 	C 	0.90606 0.38350 0.14973 0.07400
C 	C 	0.91074 0.40671 0.11895 -0.12500
C 	C 	0.92306 0.43422 0.13285 0.04000
C 	C 	0.93122 0.43784 0.17655 -0.08800
H 	H 	0.89669 0.36199 0.13959 0.02800
H 	H 	0.92677 0.45253 0.10974 0.02000
H 	H 	0.94161 0.45878 0.18705 0.04800
C 	C 	0.96559 0.42210 0.33233 -0.01200
C 	C 	0.94589 0.44456 0.31776 -0.02000
C 	C 	0.93213 0.44141 0.27718 -0.05800
C 	C 	0.93853 0.41596 0.25112 0.04900
N 	N 	0.95691 0.39380 0.26659 -0.10900
C 	C 	0.97050 0.39639 0.30623 0.02000
H 	H 	0.94196 0.46479 0.33718 0.03700
H 	H 	0.91714 0.45892 0.26557 0.04300
H 	H 	0.98563 0.37878 0.31701 0.03200
C 	C 	0.08564 0.70892 0.00149 -0.11700
C 	C 	0.07777 0.72418 0.96257 0.11000
C 	C 	0.07501 0.75601 0.96261 -0.08700
C 	C 	0.07989 0.77258 0.00117 -0.00300
C 	C 	0.08931 0.75744 0.03941 0.03600
C 	C 	0.09206 0.72563 0.03940 -0.01400
H 	H 	0.06874 0.76776 0.93278 0.05200
H 	H 	0.09868 0.71394 0.06913 0.04100
N 	N 	0.07414 0.70739 0.92243 -0.14100
N 	N 	0.09610 0.77453 0.07834 -0.13600
C 	C 	0.04293 0.70575 0.90978 -0.08700
H 	H 	0.02925 0.69656 0.93702 0.05100
H 	H 	0.04067 0.69021 0.88132 0.04500
H 	H 	0.03444 0.72854 0.90011 0.04200
C 	C 	0.12799 0.77980 0.08161 -0.09100
H 	H 	0.14022 0.75792 0.08479 0.04800
H 	H 	0.13258 0.79380 0.11109 0.04700
H 	H 	0.13611 0.79244 0.05242 0.05100
H 	H 	0.08664 0.71729 0.89731 0.07700
H 	H 	0.08838 0.76324 0.10631 0.07400
C 	C 	0.04655 0.59860 0.74846 0.04800
N 	N 	0.05132 0.57285 0.72464 -0.10900
C 	C 	0.03831 0.56859 0.68490 0.02100
C 	C 	0.01924 0.59078 0.66767 -0.01200
C 	C 	0.01439 0.61756 0.69126 -0.02100
C 	C 	0.02807 0.62157 0.73179 -0.05800
H 	H 	0.04199 0.54750 0.66740 0.03400
H 	H 	0.99945 0.63483 0.67881 0.03500
H 	H 	0.02350 0.64183 0.75082 0.04100
C 	C 	0.07623 0.60421 0.88032 -0.12400
C 	C 	0.08109 0.62879 0.85204 0.04000
C 	C 	0.07201 0.62695 0.80846 -0.08700
C 	C 	0.05796 0.60049 0.79354 0.06600
N 	N 	0.05442 0.57641 0.82114 -0.12200
C 	C 	0.06308 0.57775 0.86380 0.07100
H 	H 	0.09115 0.64952 0.86403 0.03200
H 	H 	0.07556 0.64600 0.78658 0.05000
H 	H 	0.05953 0.55832 0.88497 0.02000
C 	C 	0.08847 0.56409 0.25948 0.04800
N 	N 	0.10995 0.54597 0.27703 -0.10800
C 	C 	0.10579 0.53105 0.31567 0.02000
C 	C 	0.07893 0.53393 0.33828 -0.01200
C 	C 	0.05672 0.55268 0.32110 -0.02100
C 	C 	0.06140 0.56774 0.28156 -0.05800
H 	H 	0.12312 0.51642 0.32831 0.03300
H 	H 	0.03554 0.55472 0.33757 0.03600
H 	H 	0.04374 0.58123 0.26736 0.04100
C 	C 	0.09470 0.59766 0.12926 -0.12600
C 	C 	0.08400 0.61682 0.16231 0.03900
C 	C 	0.08319 0.60656 0.20552 -0.08800
C 	C 	0.09255 0.57685 0.21522 0.06600
N 	N 	0.10429 0.55910 0.18295 -0.12100
C 	C 	0.10565 0.56885 0.14064 0.06900
H 	H 	0.07604 0.63945 0.15449 0.02500
H 	H 	0.07489 0.62135 0.23114 0.04900
H 	H 	0.11433 0.55380 0.11563 0.02400
C 	C 	0.70903 0.91725 0.00232 -0.09900
C 	C 	0.73208 0.90185 0.02428 0.09900
C 	C 	0.76081 0.91410 0.02410 -0.08800
C 	C 	0.76675 0.94122 0.00167 -0.00500
C 	C 	0.74384 0.95638 0.97926 0.04500
C 	C 	0.71506 0.94431 0.97970 -0.01600
H 	H 	0.77843 0.90257 0.04166 0.05100
H 	H 	0.69744 0.95604 0.96244 0.04400
N 	N 	0.72599 0.87442 0.04838 -0.13800
N 	N 	0.74993 0.98405 0.95575 -0.13600
C 	C 	0.73692 0.84774 0.02466 -0.09700
H 	H 	0.72726 0.84679 0.99117 0.06900
H 	H 	0.73015 0.82687 0.04247 0.05100
H 	H 	0.76150 0.84801 0.02243 0.04500
C 	C 	0.74028 0.01056 0.98100 -0.08400
H 	H 	0.71582 0.01055 0.98535 0.04700
H 	H 	0.74659 0.03157 0.96315 0.04700
H 	H 	0.75127 0.01098 0.01359 0.04600
H 	H 	0.73554 0.87546 0.07960 0.07600
H 	H 	0.73956 0.98379 0.92507 0.07600
C 	C 	0.55906 0.89634 0.74700 0.05000
N 	N 	0.53370 0.88115 0.73693 -0.10900
C 	C 	0.51913 0.88606 0.69854 0.02000
C 	C 	0.52995 0.90723 0.66818 -0.01200
C 	C 	0.55673 0.92209 0.67701 -0.01900
C 	C 	0.57156 0.91634 0.71626 -0.05800
H 	H 	0.49872 0.87400 0.69205 0.03100
H 	H 	0.56563 0.93860 0.65423 0.03700
H 	H 	0.59235 0.92763 0.72299 0.04300
C 	C 	0.58796 0.88505 0.87835 -0.12400
C 	C 	0.59086 0.91354 0.85845 0.03700
C 	C 	0.58286 0.91724 0.81461 -0.08600
C 	C 	0.57254 0.89212 0.79066 0.06500
N 	N 	0.57122 0.86427 0.81019 -0.12000
C 	C 	0.57870 0.86026 0.85302 0.07300
H 	H 	0.59780 0.93307 0.87744 0.02200
H 	H 	0.58329 0.93970 0.80006 0.04900
H 	H 	0.57665 0.83794 0.86774 0.02300
C 	C 	0.59491 0.94830 0.25440 0.04900
N 	N 	0.57489 0.93566 0.28239 -0.11000
C 	C 	0.56960 0.94779 0.32272 0.02100
C 	C 	0.58504 0.97376 0.33650 -0.01200
C 	C 	0.60672 0.98610 0.30900 -0.02100
C 	C 	0.61171 0.97337 0.26783 -0.05800
H 	H 	0.55258 0.93796 0.34329 0.03400
H 	H 	0.61899 0.00607 0.31895 0.03400
H 	H 	0.62794 0.98338 0.24601 0.04300
C 	C 	0.59752 0.91442 0.12415 -0.12600
C 	C 	0.59025 0.94495 0.13141 0.04100
C 	C 	0.59009 0.95639 0.17397 -0.08800
C 	C 	0.59703 0.93711 0.20913 0.06700
N 	N 	0.60401 0.90741 0.20148 -0.12100
C 	C 	0.60472 0.89588 0.16005 0.07400
H 	H 	0.58471 0.95973 0.10418 0.02000
H 	H 	0.58412 0.97993 0.17974 0.04900
H 	H 	0.61021 0.87214 0.15512 0.02400
C 	C 	0.23172 0.06046 0.00328 -0.00500
C 	C 	0.24055 0.08601 0.97883 0.04400
C 	C 	0.27021 0.09557 0.98008 -0.01500
C 	C 	0.29108 0.07974 0.00544 -0.10100
C 	C 	0.28217 0.05418 0.03002 0.10000
C 	C 	0.25243 0.04487 0.02910 -0.08800
H 	H 	0.27699 0.11518 0.96105 0.04400
H 	H 	0.24550 0.02545 0.04842 0.05100
N 	N 	0.21929 0.10217 0.95244 -0.13600
N 	N 	0.30317 0.03839 0.05733 -0.13800
C 	C 	0.20907 0.12961 0.97498 -0.08400
H 	H 	0.19909 0.12375 0.00721 0.04700
H 	H 	0.19179 0.14092 0.95483 0.04800
H 	H 	0.22762 0.14586 0.97980 0.04700
C 	C 	0.31154 0.00920 0.03784 -0.08800
H 	H 	0.29236 0.99341 0.03717 0.04300
H 	H 	0.32936 0.99867 0.05782 0.04900
H 	H 	0.32018 0.01246 0.00402 0.06000
H 	H 	0.22842 0.10776 0.92194 0.07600
H 	H 	0.29439 0.03509 0.08873 0.07700
C 	C 	0.40388 0.06076 0.79701 0.06700
N 	N 	0.42961 0.06430 0.81968 -0.12200
C 	C 	0.42984 0.07491 0.86155 0.07300
C 	C 	0.40321 0.08276 0.88250 -0.12200
C 	C 	0.37654 0.07988 0.85943 0.04200
C 	C 	0.37684 0.06897 0.81648 -0.08600
H 	H 	0.45076 0.07746 0.87844 0.01300
H 	H 	0.35567 0.08581 0.87477 0.03200
H 	H 	0.35628 0.06697 0.79846 0.05100
C 	C 	0.41298 0.02030 0.67138 -0.01200
C 	C 	0.39022 0.01059 0.69912 -0.02100
C 	C 	0.38612 0.02468 0.73962 -0.05700
C 	C 	0.40486 0.04858 0.75204 0.04900
N 	N 	0.42647 0.05818 0.72409 -0.10800
C 	C 	0.43078 0.04478 0.68438 0.02100
H 	H 	0.37638 0.99153 0.68997 0.03500
H 	H 	0.36930 0.01631 0.76188 0.04300
H 	H 	0.44881 0.05237 0.66372 0.03400
C 	C 	0.42957 0.10559 0.21734 0.06600
N 	N 	0.42259 0.08055 0.19316 -0.12100
C 	C 	0.41490 0.08283 0.15011 0.07000
C 	C 	0.41435 0.11130 0.12949 -0.12500
C 	C 	0.41974 0.13741 0.15435 0.04100
C 	C 	0.42690 0.13465 0.19861 -0.08800
H 	H 	0.41042 0.06240 0.13150 0.01800
H 	H 	0.41893 0.15970 0.13924 0.02400
H 	H 	0.43099 0.15485 0.21793 0.05000
C 	C 	0.46880 0.08827 0.34152 -0.01200
C 	C 	0.47964 0.11203 0.31567 -0.02200
C 	C 	0.46624 0.11867 0.27569 -0.05800
C 	C 	0.44161 0.10171 0.26199 0.04900
N 	N 	0.43090 0.07913 0.28815 -0.10800
C 	C 	0.44378 0.07219 0.32728 0.02100
H 	H 	0.49906 0.12461 0.32583 0.03400
H 	H 	0.47567 0.13600 0.25470 0.04100
H 	H 	0.43525 0.05342 0.34644 0.03500
C 	C 	0.41473 0.26864 0.98855 0.00300
C 	C 	0.43983 0.24978 0.99223 0.03500
C 	C 	0.43650 0.21807 0.99181 -0.01100
C 	C 	0.40834 0.20500 0.98743 -0.11300
C 	C 	0.38324 0.22390 0.98292 0.10900
C 	C 	0.38664 0.25567 0.98320 -0.09200
H 	H 	0.45585 0.20363 0.99529 0.02800
H 	H 	0.36740 0.27022 0.97937 0.05300
N 	N 	0.46884 0.26300 0.99620 -0.13200
N 	N 	0.35445 0.21075 0.97609 -0.13700
C 	C 	0.48374 0.26367 0.95363 -0.09100
H 	H 	0.48743 0.24024 0.94104 0.04400
H 	H 	0.50559 0.27491 0.95727 0.04700
H 	H 	0.47053 0.27698 0.92955 0.05200
C 	C 	0.33610 0.21358 0.01545 -0.09500
H 	H 	0.34757 0.20370 0.04441 0.06300
H 	H 	0.31516 0.20089 0.01051 0.05400
H 	H 	0.33053 0.23781 0.02198 0.04400
H 	H 	0.48159 0.25096 0.01904 0.06700
H 	H 	0.34398 0.22109 0.94934 0.07700
C 	C 	0.26131 0.56298 0.98373 0.00400
C 	C 	0.25135 0.58189 0.01790 0.03600
C 	C 	0.22222 0.59314 0.01733 -0.02800
C 	C 	0.20297 0.58559 0.98294 -0.08700
C 	C 	0.21314 0.56703 0.94835 0.09800
C 	C 	0.24239 0.55607 0.94878 -0.08800
H 	H 	0.21452 0.60744 0.04394 0.04800
H 	H 	0.25030 0.54201 0.92202 0.05200
N 	N 	0.27098 0.58969 0.05329 -0.13600
N 	N 	0.19403 0.56036 0.91187 -0.13700
C 	C 	0.28403 0.61968 0.04605 -0.09100
H 	H 	0.29646 0.62014 0.01457 0.05100
H 	H 	0.29986 0.62469 0.07290 0.04800
H 	H 	0.26665 0.63765 0.04587 0.04800
C 	C 	0.18382 0.52882 0.91355 -0.08900
H 	H 	0.20255 0.51276 0.90832 0.04500
H 	H 	0.16726 0.52512 0.88724 0.05300
H 	H 	0.17299 0.52388 0.94552 0.06300
H 	H 	0.25974 0.58916 0.08331 0.07600
H 	H 	0.20503 0.56454 0.88226 0.07800
C 	C 	0.72508 0.43793 0.01730 -0.00800
C 	C 	0.73467 0.41433 0.04558 0.04000
C 	C 	0.76448 0.40544 0.04536 -0.01600
C 	C 	0.78483 0.41967 0.01740 -0.10100
C 	C 	0.77527 0.44298 0.98902 0.10600
C 	C 	0.74539 0.45186 0.98899 -0.08200
H 	H 	0.77180 0.38734 0.06697 0.04700
H 	H 	0.73799 0.46960 0.96684 0.05200
N 	N 	0.71428 0.39899 0.07439 -0.13700
N 	N 	0.79574 0.45664 0.95869 -0.13900
C 	C 	0.69959 0.37380 0.05200 -0.09100
H 	H 	0.68567 0.38217 0.02452 0.04800
H 	H 	0.68509 0.36170 0.07561 0.04700
H 	H 	0.71621 0.35728 0.03939 0.05200
C 	C 	0.80391 0.48726 0.97294 -0.08100
H 	H 	0.78450 0.50285 0.97157 0.04400
H 	H 	0.82134 0.49626 0.95082 0.05000
H 	H 	0.81299 0.48680 0.00681 0.05600
H 	H 	0.69889 0.41385 0.08850 0.07800
H 	H 	0.78661 0.45732 0.92718 0.07900
C 	C 	0.59272 0.79015 0.02128 -0.12100
C 	C 	0.58649 0.77442 0.06079 0.10500
C 	C 	0.57973 0.74336 0.05938 -0.08900
C 	C 	0.58018 0.72754 0.01948 -0.00300
C 	C 	0.58848 0.74267 0.98071 0.04000
C 	C 	0.59497 0.77386 0.98192 -0.00800
H 	H 	0.57429 0.73148 0.08945 0.05600
H 	H 	0.60111 0.78554 0.95197 0.04300
N 	N 	0.58817 0.78937 0.10273 -0.14900
N 	N 	0.59171 0.72589 0.94046 -0.13500
C 	C 	0.61889 0.79432 0.11611 -0.08900
H 	H 	0.63139 0.77250 0.11613 0.05000
H 	H 	0.61921 0.80359 0.14994 0.05000
H 	H 	0.63001 0.81091 0.09414 0.05400
C 	C 	0.56873 0.73425 0.90880 -0.09100
H 	H 	0.54633 0.73257 0.92369 0.04900
H 	H 	0.56969 0.71834 0.88061 0.05000
H 	H 	0.57226 0.75771 0.89630 0.04700
H 	H 	0.57585 0.80949 0.10368 0.08900
H 	H 	0.61274 0.72959 0.92707 0.07800
