data_crystal

_cell_length_a 26.18907
_cell_length_b 26.43737
_cell_length_c 39.19616
_cell_angle_alpha 95.51160
_cell_angle_beta  95.51090
_cell_angle_gamma 125.82858

_symmetry_space_group_name_	'P 1'
_symmetry_space_group_name_H-M	'P 1'

loop_
_symmetry_equiv_pos_as_xyz
  x,y,z

loop_
_atom_site_label
_atom_site_type_symbol
_atom_site_fract_x
_atom_site_fract_y
_atom_site_fract_z
_atom_site_charge
C 	C 	0.01099 0.06380 0.00698 0.13200
C 	C 	0.11303 0.08013 0.01214 0.10700
C 	C 	0.07817 0.10485 0.01355 -0.04100
H 	H 	0.10320 0.15585 0.01878 0.14600
C 	C 	0.95854 0.00165 0.46446 -0.01300
H 	H 	0.98313 0.05002 0.46016 0.14500
Cu	Cu	0.67989 0.27513 0.00258 0.94300
Cu	Cu	0.71332 0.26003 0.92522 0.91600
Cu	Cu	0.72269 0.37390 0.95576 0.91500
Cu	Cu	0.70212 0.40480 0.02750 0.92000
C 	C 	0.69070 0.31644 0.07442 0.29500
O 	O 	0.59017 0.24637 0.00557 -0.30000
C 	C 	0.68649 0.32271 0.87971 0.30000
O 	O 	0.74076 0.37375 0.00419 -0.63700
O 	O 	0.66773 0.27965 0.95273 -0.62900
O 	O 	0.70913 0.22059 0.99973 -0.27400
O 	O 	0.77499 0.27318 0.96194 -0.37600
O 	O 	0.70420 0.37244 0.07146 -0.33100
O 	O 	0.78030 0.46546 0.96211 -0.31200
C 	C 	0.78059 0.50450 0.98594 0.31800
C 	C 	0.57033 0.27968 0.99698 0.30000
O 	O 	0.61144 0.33737 0.99154 -0.34100
O 	O 	0.73854 0.48306 0.00698 -0.32500
O 	O 	0.70380 0.28712 0.05178 -0.32500
C 	C 	0.75739 0.23495 0.98452 0.30200
O 	O 	0.71874 0.37322 0.90518 -0.34600
O 	O 	0.67313 0.26794 0.88494 -0.35400
H 	H 	0.78685 0.39621 0.01371 0.22200
H 	H 	0.62274 0.25855 0.94144 0.24400
Cu	Cu	0.69142 0.30215 0.45182 0.94100
Cu	Cu	0.68273 0.24743 0.52457 0.90600
Cu	Cu	0.58424 0.26223 0.49295 0.92500
Cu	Cu	0.57543 0.30359 0.42507 0.92200
C 	C 	0.65256 0.29063 0.37856 0.30400
O 	O 	0.73003 0.39547 0.45496 -0.32500
C 	C 	0.62435 0.28309 0.56906 0.30900
O 	O 	0.59137 0.25105 0.44504 -0.63400
O 	O 	0.67876 0.30574 0.50048 -0.63300
O 	O 	0.73716 0.26295 0.45505 -0.32600
O 	O 	0.66863 0.18958 0.48540 -0.33800
O 	O 	0.62625 0.31893 0.38724 -0.33900
O 	O 	0.49195 0.21588 0.48254 -0.29400
C 	C 	0.45946 0.21945 0.45611 0.31000
C 	C 	0.70239 0.41948 0.46802 0.28900
O 	O 	0.64064 0.38205 0.46825 -0.30500
O 	O 	0.48861 0.26394 0.43702 -0.31800
O 	O 	0.68725 0.28518 0.40261 -0.32200
C 	C 	0.71076 0.20780 0.46481 0.30400
O 	O 	0.57641 0.25788 0.54233 -0.32600
O 	O 	0.67532 0.28531 0.56598 -0.36100
H 	H 	0.56451 0.20623 0.43274 0.24100
H 	H 	0.70440 0.34915 0.51460 0.22500
C 	C 	0.67474 0.33050 0.84368 -0.05600
C 	C 	0.71812 0.38836 0.83321 0.03700
C 	C 	0.71227 0.39306 0.79805 -0.05100
C 	C 	0.66257 0.34037 0.77306 0.07100
C 	C 	0.61731 0.28340 0.78371 -0.05000
C 	C 	0.62327 0.27855 0.81887 0.03900
C 	C 	0.66374 0.34232 0.73561 -0.03400
C 	C 	0.61129 0.32374 0.71296 -0.03300
C 	C 	0.61044 0.31783 0.67494 0.07400
C 	C 	0.55882 0.26251 0.65214 -0.04900
C 	C 	0.56152 0.25273 0.61685 0.04100
C 	C 	0.61587 0.29829 0.60413 -0.05200
C 	C 	0.66536 0.35564 0.62637 0.04400
C 	C 	0.66230 0.36579 0.66153 -0.04900
H 	H 	0.75793 0.42892 0.85206 0.07800
H 	H 	0.74751 0.43716 0.79008 0.09300
H 	H 	0.57905 0.24216 0.76459 0.08900
H 	H 	0.58888 0.23394 0.82666 0.08600
H 	H 	0.70802 0.35880 0.72645 0.07400
H 	H 	0.56707 0.30719 0.72222 0.08500
H 	H 	0.51783 0.22595 0.66203 0.09500
H 	H 	0.52271 0.20856 0.59979 0.08200
H 	H 	0.70685 0.39172 0.61659 0.08700
H 	H 	0.70094 0.41013 0.67852 0.09100
C 	C 	0.67528 0.29443 0.10756 -0.05400
C 	C 	0.62677 0.29228 0.12145 0.04300
C 	C 	0.61366 0.27405 0.15368 -0.05100
C 	C 	0.64968 0.25890 0.17259 0.07700
C 	C 	0.69715 0.25943 0.15833 -0.05000
C 	C 	0.70986 0.27707 0.12590 0.04700
C 	C 	0.63797 0.24342 0.20752 -0.03300
C 	C 	0.68519 0.27840 0.23569 -0.03100
C 	C 	0.67153 0.27260 0.27147 0.07600
C 	C 	0.71464 0.27623 0.29763 -0.04800
C 	C 	0.70712 0.27948 0.33244 0.04500
C 	C 	0.65656 0.27971 0.34150 -0.05200
C 	C 	0.61203 0.27364 0.31510 0.04300
C 	C 	0.61991 0.27096 0.28039 -0.04900
H 	H 	0.59930 0.30484 0.10728 0.06800
H 	H 	0.57642 0.27301 0.16430 0.09800
H 	H 	0.72445 0.24667 0.17247 0.09900
H 	H 	0.74730 0.27837 0.11537 0.08600
H 	H 	0.58910 0.20787 0.21070 0.08500
H 	H 	0.73429 0.31275 0.23238 0.08200
H 	H 	0.75482 0.27791 0.29108 0.09800
H 	H 	0.74171 0.28375 0.35241 0.08400
H 	H 	0.57218 0.27263 0.32157 0.07500
H 	H 	0.58713 0.26974 0.26063 0.09000
C 	C 	0.80993 0.68364 0.48493 0.08300
C 	C 	0.79014 0.61837 0.48482 0.10100
C 	C 	0.72229 0.64399 0.43203 0.78400
C 	C 	0.81704 0.59450 0.46544 -0.09900
C 	C 	0.78846 0.52912 0.46060 0.08100
C 	C 	0.73913 0.48938 0.47830 0.01000
C 	C 	0.72228 0.51686 0.50349 -0.06300
C 	C 	0.74452 0.58007 0.50456 0.04000
C 	C 	0.87682 0.63867 0.45073 0.79000
H 	H 	0.80344 0.50882 0.44248 0.10400
C 	C 	0.68162 0.47999 0.52948 0.78000
H 	H 	0.72646 0.59958 0.52080 0.12800
F 	F 	0.67510 0.60454 0.45003 -0.40000
F 	F 	0.73495 0.60880 0.41119 -0.38100
F 	F 	0.69866 0.66736 0.41061 -0.37800
F 	F 	0.69445 0.52089 0.55946 -0.40200
F 	F 	0.69444 0.43903 0.53928 -0.45900
F 	F 	0.61737 0.44576 0.51484 -0.40800
F 	F 	0.90007 0.60745 0.43676 -0.39200
F 	F 	0.92463 0.68817 0.47694 -0.40300
F 	F 	0.86334 0.66318 0.42472 -0.38000
C 	C 	0.71494 0.06740 0.44558 0.03700
C 	C 	0.78104 0.09760 0.45405 0.10200
C 	C 	0.82455 0.16472 0.45949 -0.09900
C 	C 	0.80055 0.20038 0.46192 0.08000
C 	C 	0.73421 0.16999 0.45619 0.00300
C 	C 	0.69115 0.10320 0.44481 -0.05600
C 	C 	0.80417 0.05840 0.45708 0.08400
C 	C 	0.89608 0.19810 0.46200 0.79000
H 	H 	0.83331 0.25169 0.46922 0.09900
C 	C 	0.61992 0.06962 0.43266 0.77900
H 	H 	0.68202 0.01595 0.44005 0.13100
C 	C 	0.81499 0.04381 0.48961 -0.07400
C 	C 	0.84424 0.01317 0.49215 0.04300
C 	C 	0.85789 0.99267 0.46241 0.08200
C 	C 	0.83923 0.99995 0.42918 -0.09100
C 	C 	0.81472 0.03500 0.42707 0.05900
C 	C 	0.79333 0.05878 0.52117 0.78400
C 	C 	0.84754 0.97259 0.39612 0.78800
H 	H 	0.80457 0.04492 0.40215 0.12800
F 	F 	0.59023 0.05872 0.46126 -0.38700
F 	F 	0.59198 0.01182 0.41093 -0.38200
F 	F 	0.60946 0.10576 0.41415 -0.41600
F 	F 	0.90697 0.17624 0.43214 -0.39600
F 	F 	0.91991 0.18625 0.49065 -0.37400
F 	F 	0.92976 0.26324 0.46531 -0.38800
F 	F 	0.81229 0.97077 0.36670 -0.37700
F 	F 	0.91148 0.00977 0.39334 -0.39400
F 	F 	0.80620 0.03879 0.54996 -0.38000
F 	F 	0.72791 0.02824 0.51357 -0.40200
F 	F 	0.82450 0.12351 0.52998 -0.38500
C 	C 	0.17391 0.08567 0.48891 0.06000
C 	C 	0.18873 0.08071 0.45589 0.08200
C 	C 	0.13870 0.04119 0.42651 -0.06700
C 	C 	0.07462 0.00657 0.43113 0.03800
C 	C 	0.05988 0.01280 0.46399 0.09600
C 	C 	0.10982 0.05333 0.49320 -0.08700
C 	C 	0.25706 0.11590 0.45266 0.10400
C 	C 	0.15336 0.03276 0.39068 0.78200
C 	C 	0.09488 0.06323 0.52867 0.78800
H 	H 	0.21264 0.11527 0.51120 0.12800
C 	C 	0.29563 0.18204 0.45261 -0.09600
C 	C 	0.36189 0.21497 0.45389 0.08300
C 	C 	0.38923 0.18252 0.45278 0.01200
C 	C 	0.34955 0.11558 0.44964 -0.05500
C 	C 	0.28457 0.08363 0.45185 0.03700
C 	C 	0.26745 0.21857 0.45394 0.79000
H 	H 	0.39265 0.26622 0.45655 0.11300
C 	C 	0.37644 0.07823 0.44511 0.77900
H 	H 	0.25515 0.03347 0.45294 0.13500
F 	F 	0.06301 0.09028 0.52661 -0.37900
F 	F 	0.14998 0.10298 0.55393 -0.37100
F 	F 	0.05672 0.00566 0.53930 -0.36100
F 	F 	0.17506 0.99603 0.39017 -0.38300
F 	F 	0.19969 0.09098 0.38281 -0.36700
F 	F 	0.40895 0.08414 0.47697 -0.40400
F 	F 	0.41787 0.10029 0.42167 -0.41200
F 	F 	0.32799 0.01438 0.43238 -0.36900
F 	F 	0.30833 0.27768 0.44527 -0.37300
F 	F 	0.25739 0.22717 0.48731 -0.38900
F 	F 	0.20986 0.18607 0.43067 -0.36600
C 	C 	0.88295 0.70293 0.98547 0.09800
C 	C 	0.81606 0.66049 0.97233 -0.09500
C 	C 	0.78406 0.59512 0.97124 0.08500
C 	C 	0.81734 0.57195 0.98340 0.00700
C 	C 	0.88459 0.61399 0.99501 -0.05000
C 	C 	0.91699 0.67919 0.99504 0.04200
C 	C 	0.77925 0.68453 0.95840 0.78900
H 	H 	0.73287 0.56199 0.96142 0.10400
C 	C 	0.92158 0.58944 0.00756 0.77100
H 	H 	0.96857 0.71201 0.00350 0.12700
F 	F 	0.91619 0.54813 0.98041 -0.41000
F 	F 	0.89712 0.55776 0.03467 -0.41300
F 	F 	0.98609 0.63819 0.01947 -0.38200
F 	F 	0.71391 0.63657 0.94976 -0.38100
F 	F 	0.79990 0.70869 0.92873 -0.39600
F 	F 	0.78903 0.73172 0.98320 -0.37300
C 	C 	0.80087 0.12243 0.99410 0.04100
C 	C 	0.86724 0.16562 0.00616 0.09700
C 	C 	0.89706 0.23173 0.01314 -0.09700
C 	C 	0.85963 0.25313 0.00656 0.07200
C 	C 	0.79349 0.20999 0.99365 0.01000
C 	C 	0.76356 0.14384 0.98711 -0.06100
C 	C 	0.90582 0.14134 0.00738 0.08500
C 	C 	0.96938 0.27975 0.02459 0.78500
H 	H 	0.88213 0.30362 0.01070 0.10100
C 	C 	0.69200 0.09600 0.97283 0.78000
H 	H 	0.77876 0.07203 0.98910 0.13700
C 	C 	0.91229 0.11568 0.03619 -0.08000
C 	C 	0.94674 0.09025 0.03534 0.05400
C 	C 	0.97418 0.08983 0.00642 0.04400
C 	C 	0.96559 0.11328 0.97710 -0.07300
C 	C 	0.93260 0.14015 0.97830 0.05400
C 	C 	0.87879 0.11115 0.06662 0.78600
H 	H 	0.95189 0.07016 0.05707 0.11600
C 	C 	0.99279 0.11114 0.94487 0.77100
H 	H 	0.92697 0.15970 0.95643 0.12800
F 	F 	0.67426 0.03519 0.96327 -0.38000
F 	F 	0.67492 0.11209 0.94356 -0.42900
F 	F 	0.65821 0.09509 0.99809 -0.38400
F 	F 	0.99856 0.28379 0.99634 -0.39300
F 	F 	0.99203 0.26205 0.05062 -0.37400
F 	F 	0.98691 0.33951 0.03757 -0.38400
F 	F 	0.96955 0.12555 0.91719 -0.37500
F 	F 	0.97620 0.05109 0.93429 -0.37500
F 	F 	0.05886 0.15476 0.95232 -0.38000
F 	F 	0.81351 0.06468 0.05605 -0.39500
F 	F 	0.89003 0.16847 0.07836 -0.37700
C 	C 	0.38891 0.17517 0.98387 0.04000
C 	C 	0.37940 0.21248 0.00623 0.09600
C 	C 	0.43285 0.27259 0.02525 -0.09900
C 	C 	0.49496 0.29291 0.02221 0.07300
C 	C 	0.50429 0.25656 0.99890 0.00600
C 	C 	0.45069 0.19832 0.97834 -0.05400
C 	C 	0.31316 0.18731 0.00998 0.08100
C 	C 	0.42419 0.31326 0.05052 0.78900
H 	H 	0.53636 0.33680 0.03830 0.07900
C 	C 	0.45905 0.16100 0.95048 0.77800
H 	H 	0.34778 0.12842 0.97035 0.13200
C 	C 	0.27143 0.18606 0.98343 -0.06800
C 	C 	0.20602 0.15166 0.98501 0.05100
C 	C 	0.18294 0.12315 0.01377 0.07300
C 	C 	0.22625 0.13153 0.04231 -0.09100
C 	C 	0.29018 0.15988 0.03906 0.05900
C 	C 	0.29513 0.21664 0.95197 0.78400
H 	H 	0.17249 0.14524 0.96336 0.14600
C 	C 	0.20409 0.10786 0.07557 0.78600
H 	H 	0.32206 0.16005 0.05895 0.12200
F 	F 	0.40120 0.11324 0.92883 -0.37800
F 	F 	0.48433 0.13351 0.96606 -0.40100
F 	F 	0.49976 0.20079 0.92985 -0.42800
F 	F 	0.40805 0.28742 0.08023 -0.40100
F 	F 	0.37643 0.31649 0.03546 -0.36800
F 	F 	0.47994 0.37480 0.06025 -0.38800
F 	F 	0.25542 0.13797 0.10322 -0.37300
F 	F 	0.25291 0.22543 0.93481 -0.35900
F 	F 	0.30072 0.17791 0.92890 -0.38500
F 	F 	0.35405 0.27554 0.96196 -0.36900
C 	C 	0.85675 0.73270 0.51244 0.06000
C 	C 	0.78271 0.69716 0.45766 -0.07500
C 	C 	0.81152 0.76092 0.45509 0.04300
C 	C 	0.86136 0.81045 0.48153 0.07900
C 	C 	0.88007 0.79586 0.51201 -0.09400
H 	H 	0.79580 0.77223 0.43240 0.12700
C 	C 	0.92676 0.84720 0.54346 0.78800
H 	H 	0.87561 0.72170 0.53396 0.12200
F 	F 	0.91793 0.82192 0.57358 -0.37900
C 	C 	0.93890 0.80184 0.96104 0.05100
C 	C 	0.91774 0.77253 0.98980 0.09200
C 	C 	0.92963 0.80944 0.02239 -0.08300
C 	C 	0.96155 0.87516 0.02513 0.04800
C 	C 	0.97983 0.90386 0.99592 0.05900
C 	C 	0.96731 0.86683 0.96328 -0.07900
C 	C 	0.91149 0.77955 0.05463 0.78600
H 	H 	0.97267 0.90440 0.05006 0.12100
C 	C 	0.98505 0.89665 0.93105 0.77400
H 	H 	0.93188 0.77347 0.93670 0.12700
F 	F 	0.96086 0.85122 0.90110 -0.37400
F 	F 	0.05103 0.93745 0.93465 -0.38900
F 	F 	0.94935 0.76077 0.06422 -0.39300
F 	F 	0.84773 0.72725 0.04794 -0.37800
F 	F 	0.92020 0.82175 0.08258 -0.37400
H 	H 	0.85688 0.00551 0.51727 0.13100
F 	F 	0.96038 0.93020 0.92668 -0.36800
F 	F 	0.90026 0.09562 0.09449 -0.37600
F 	F 	0.16181 0.11991 0.08449 -0.39100
F 	F 	0.09941 0.00296 0.36475 -0.36200
F 	F 	0.98884 0.87392 0.53891 -0.37800
C 	C 	0.89525 0.87687 0.47620 0.08500
H 	H 	0.98454 0.89098 0.47300 0.12800
H 	H 	0.81213 0.87594 0.47569 0.11300
F 	F 	0.91808 0.89407 0.54822 -0.38400
H 	H 	0.03589 0.97434 0.40919 0.13700
F 	F 	0.17411 0.04324 0.07082 -0.40600
F 	F 	0.82684 0.91111 0.39671 -0.40500
C 	C 	0.01352 0.97304 0.00016 0.13000
H 	H 	0.92679 0.96606 0.99688 0.14000
H 	H 	0.10747 0.99498 0.00422 0.14000
C 	C 	0.95959 0.91229 0.47227 -0.01600
C 	C 	0.86216 0.90352 0.47327 -0.02400
C 	C 	0.97874 0.99789 0.00111 -0.07700
C 	C 	0.08060 0.01420 0.00553 -0.04400
C 	C 	0.89334 0.96536 0.46655 0.08600
C 	C 	0.99186 0.97537 0.46760 0.07400
