data_crystal

_cell_length_a 13.47538
_cell_length_b 17.68355
_cell_length_c 51.70100
_cell_angle_alpha 90.52269
_cell_angle_beta  90.52615
_cell_angle_gamma 119.32373

_symmetry_space_group_name_	'P 1'
_symmetry_space_group_name_H-M	'P 1'

loop_
_symmetry_equiv_pos_as_xyz
  x,y,z

loop_
_atom_site_label
_atom_site_type_symbol
_atom_site_fract_x
_atom_site_fract_y
_atom_site_fract_z
_atom_site_charge
C 	C 	0.57393 0.05485 0.95834 0.29500
C 	C 	0.50996 0.28832 0.88796 0.34700
C 	C 	0.57314 0.24985 0.97104 0.29600
C 	C 	0.45374 0.05194 0.87435 0.31500
C 	C 	0.29118 0.20064 0.94964 0.29500
C 	C 	0.17136 0.95409 0.92698 0.33000
Ni	Ni	0.57823 0.17776 0.91880 1.11800
Ni	Ni	0.31886 0.12000 0.90204 1.12600
Ni	Ni	0.36587 0.07513 0.96012 1.12000
O 	O 	0.60510 0.08113 0.93436 -0.34300
O 	O 	0.46561 0.01892 0.96515 -0.35700
O 	O 	0.30902 0.21063 0.92446 -0.35300
O 	O 	0.57630 0.28987 0.90693 -0.36500
O 	O 	0.42987 0.21417 0.87894 -0.36300
O 	O 	0.23741 0.95913 0.94685 -0.35300
O 	O 	0.63553 0.23594 0.95451 -0.38000
O 	O 	0.48060 0.18366 0.98046 -0.38400
O 	O 	0.17695 0.02456 0.91742 -0.37500
O 	O 	0.54544 0.12618 0.88112 -0.33400
O 	O 	0.34854 0.03898 0.87862 -0.34200
O 	O 	0.26045 0.12507 0.96017 -0.37500
O 	O 	0.42252 0.11128 0.92608 -0.71500
H 	H 	0.41194 0.05386 0.92130 0.16000
C 	C 	0.52700 0.33578 0.67908 0.32700
C 	C 	0.29423 0.98924 0.63001 0.30200
C 	C 	0.34687 0.09208 0.69914 0.32600
C 	C 	0.44310 0.17486 0.59189 0.29200
C 	C 	0.60234 0.03738 0.67410 0.34700
C 	C 	0.75603 0.26480 0.64099 0.28900
Ni	Ni	0.37180 0.17445 0.64788 1.12000
Ni	Ni	0.54503 0.10255 0.62743 1.12000
Ni	Ni	0.58867 0.19567 0.68274 1.13000
O 	O 	0.45881 0.30650 0.65840 -0.34600
O 	O 	0.53858 0.28140 0.69437 -0.35500
O 	O 	0.53903 0.01390 0.65283 -0.38000
O 	O 	0.26220 0.04391 0.63879 -0.35000
O 	O 	0.38474 0.01668 0.61555 -0.38800
O 	O 	0.72755 0.28471 0.66371 -0.34000
O 	O 	0.32960 0.14884 0.68654 -0.33400
O 	O 	0.44786 0.09651 0.69888 -0.34500
O 	O 	0.71434 0.18259 0.63359 -0.36300
O 	O 	0.39310 0.20298 0.60845 -0.36000
O 	O 	0.53904 0.17525 0.59808 -0.38100
O 	O 	0.65894 0.11911 0.68112 -0.36400
O 	O 	0.50774 0.16970 0.65036 -0.71000
H 	H 	0.55139 0.22615 0.64207 0.14300
C 	C 	0.00464 0.85571 0.76714 0.32200
C 	C 	0.94294 0.82573 0.84142 0.30900
Ni	Ni	0.61081 0.71093 0.78690 1.12700
Ni	Ni	0.84957 0.88603 0.79948 1.12900
Ni	Ni	0.84424 0.70405 0.79590 1.13300
O 	O 	0.57026 0.59111 0.80437 -0.32300
O 	O 	0.99820 0.90017 0.78686 -0.34900
O 	O 	0.61881 0.81596 0.76741 -0.33900
O 	O 	0.96197 0.78147 0.82298 -0.33200
O 	O 	0.65054 0.67352 0.75218 -0.34600
O 	O 	0.90722 0.88188 0.83540 -0.34400
O 	O 	0.57281 0.76539 0.81847 -0.33000
O 	O 	0.94046 0.77100 0.76597 -0.33800
C 	C 	0.48274 0.73057 0.48918 0.28200
C 	C 	0.71361 0.95027 0.40138 0.34700
C 	C 	0.69416 0.94947 0.49571 0.30900
C 	C 	0.49347 0.70930 0.40561 0.32500
C 	C 	0.46875 0.01596 0.43650 0.33700
C 	C 	0.25570 0.78113 0.44527 0.28900
Ni	Ni	0.64860 0.83897 0.44784 1.12000
Ni	Ni	0.46519 0.86463 0.41300 1.12800
Ni	Ni	0.46762 0.88977 0.47501 1.12200
O 	O 	0.56593 0.73828 0.47380 -0.35800
O 	O 	0.47756 0.79960 0.49787 -0.37800
O 	O 	0.52172 0.99011 0.42058 -0.36300
O 	O 	0.73889 0.94849 0.42578 -0.34400
O 	O 	0.60965 0.89923 0.39247 -0.34100
O 	O 	0.30212 0.80734 0.46860 -0.38000
O 	O 	0.73720 0.91495 0.48006 -0.35200
O 	O 	0.62757 0.97692 0.48607 -0.37000
O 	O 	0.30363 0.82801 0.42446 -0.35600
O 	O 	0.59904 0.75801 0.41476 -0.34100
O 	O 	0.42196 0.74056 0.40343 -0.35500
O 	O 	0.44584 0.98692 0.46037 -0.35800
O 	O 	0.51368 0.84706 0.44598 -0.70800
H 	H 	0.45653 0.78539 0.44724 0.14500
C 	C 	0.61887 0.94607 0.24066 0.31300
C 	C 	0.46062 0.81386 0.13687 0.29800
C 	C 	0.52962 0.71807 0.21849 0.34400
C 	C 	0.53476 0.02867 0.16964 0.29200
C 	C 	0.74355 0.82321 0.15043 0.29700
C 	C 	0.91193 0.03806 0.18334 0.33300
Ni	Ni	0.48011 0.85263 0.19343 1.11900
Ni	Ni	0.68844 0.96242 0.15303 1.12500
Ni	Ni	0.73277 0.87699 0.20420 1.12600
O 	O 	0.51977 0.91915 0.22857 -0.34200
O 	O 	0.67550 0.90148 0.23872 -0.33600
O 	O 	0.73321 0.88127 0.13692 -0.38100
O 	O 	0.44314 0.77881 0.15984 -0.36900
O 	O 	0.53488 0.89687 0.13388 -0.37400
O 	O 	0.85982 0.99833 0.20448 -0.36900
O 	O 	0.45535 0.74544 0.21548 -0.34200
O 	O 	0.62065 0.74996 0.20460 -0.37700
O 	O 	0.85437 0.04648 0.16347 -0.35000
O 	O 	0.45615 0.94697 0.17410 -0.34800
O 	O 	0.64104 0.04959 0.16419 -0.36100
O 	O 	0.79643 0.84426 0.17324 -0.35200
O 	O 	0.63725 0.90866 0.18583 -0.71700
H 	H 	0.66184 0.96399 0.19491 0.15900
C 	C 	0.51188 0.16394 0.29064 0.32800
C 	C 	0.39365 0.40447 0.34555 0.34000
C 	C 	0.39278 0.16958 0.35768 0.33000
C 	C 	0.44396 0.43021 0.28360 0.32200
C 	C 	0.07692 0.12145 0.32918 0.34200
C 	C 	0.19392 0.15876 0.25835 0.30500
Ni	Ni	0.49050 0.30682 0.31834 1.12500
O 	O 	0.55006 0.24912 0.29178 -0.33000
O 	O 	0.41620 0.10805 0.30201 -0.34700
O 	O 	0.44042 0.35572 0.34884 -0.35300
O 	O 	0.30339 0.37940 0.33030 -0.33800
O 	O 	0.48350 0.21486 0.34381 -0.33600
O 	O 	0.29339 0.11970 0.34603 -0.34000
O 	O 	0.52146 0.41420 0.29502 -0.32500
O 	O 	0.34078 0.36709 0.27780 -0.35000
O 	O 	0.34391 0.23852 0.30485 -0.71800
H 	H 	0.36835 0.24643 0.28672 0.16200
C 	C 	0.53695 0.52275 0.24578 0.10500
C 	C 	0.48299 0.51242 0.26965 -0.08100
C 	C 	0.43980 0.56863 0.27629 0.10600
C 	C 	0.45976 0.63830 0.26022 0.11100
C 	C 	0.50339 0.64284 0.23525 -0.10400
C 	C 	0.53515 0.58068 0.22760 0.11400
Br	Br	0.55651 0.56414 0.19169 -0.18000
Br	Br	0.60577 0.45269 0.23708 -0.14000
Br	Br	0.42919 0.72774 0.27293 -0.13600
Br	Br	0.34154 0.54507 0.30536 -0.15800
C 	C 	0.06963 0.18140 0.19524 0.11600
C 	C 	0.03473 0.09746 0.18592 -0.10600
C 	C 	0.10428 0.06118 0.19191 0.09900
C 	C 	0.17698 0.09201 0.21386 0.10300
C 	C 	0.17541 0.15727 0.22964 -0.08400
C 	C 	0.13490 0.21005 0.21831 0.10400
Br	Br	0.18015 0.32410 0.23187 -0.15600
Br	Br	0.02946 0.25572 0.17626 -0.16500
Br	Br	0.29405 0.06048 0.21852 -0.17200
Br	Br	0.08988 0.96410 0.17193 -0.19900
C 	C 	0.63503 0.01310 0.28399 0.10700
C 	C 	0.66163 0.02396 0.25769 -0.09100
C 	C 	0.68412 0.10277 0.24639 0.10000
C 	C 	0.64038 0.15319 0.25751 0.10800
C 	C 	0.58927 0.13115 0.28195 -0.08600
C 	C 	0.59698 0.06584 0.29622 0.11100
Br	Br	0.55442 0.04777 0.33206 -0.14600
Br	Br	0.65728 0.93023 0.30336 -0.12500
Br	Br	0.64311 0.24718 0.23838 -0.14900
Br	Br	0.78110 0.14415 0.21712 -0.17700
C 	C 	0.82376 0.06980 0.37075 0.10900
C 	C 	0.80667 0.99368 0.38291 -0.09000
C 	C 	0.87516 0.95668 0.37646 0.11900
C 	C 	0.95547 0.99265 0.35669 0.12500
C 	C 	0.97415 0.07039 0.34484 -0.09300
C 	C 	0.90091 0.10404 0.35039 0.11900
Br	Br	0.89641 0.18954 0.32824 -0.14800
Br	Br	0.75462 0.13400 0.38444 -0.12900
Br	Br	0.03900 0.93480 0.34619 -0.15900
Br	Br	0.86707 0.86200 0.39636 -0.16200
C 	C 	0.38885 0.54768 0.39993 0.10700
C 	C 	0.46791 0.63017 0.39074 -0.09600
C 	C 	0.52884 0.63652 0.36815 0.11300
C 	C 	0.51831 0.56128 0.35638 0.10700
C 	C 	0.42764 0.47985 0.36300 -0.09400
C 	C 	0.36378 0.47271 0.38518 0.10900
Br	Br	0.24501 0.36058 0.39572 -0.15300
Br	Br	0.32304 0.53696 0.43346 -0.22400
Br	Br	0.63570 0.56958 0.33383 -0.16200
Br	Br	0.61623 0.74664 0.35166 -0.12200
C 	C 	0.51486 0.20300 0.39806 0.11100
C 	C 	0.40577 0.16371 0.38613 -0.09300
C 	C 	0.31250 0.10559 0.40073 0.10900
C 	C 	0.33111 0.06140 0.42102 0.10200
C 	C 	0.44336 0.08386 0.42812 -0.10800
C 	C 	0.53266 0.16301 0.41969 0.11400
Br	Br	0.67319 0.21891 0.43926 -0.16600
Br	Br	0.63013 0.31736 0.38831 -0.15900
Br	Br	0.20491 0.97306 0.43934 -0.18500
Br	Br	0.17322 0.10992 0.39881 -0.15800
C 	C 	0.20938 0.89675 0.62818 -0.07100
C 	C 	0.18190 0.85691 0.60359 0.02100
C 	C 	0.18346 0.77915 0.59978 -0.05800
C 	C 	0.21580 0.74461 0.62057 0.03200
C 	C 	0.19853 0.76678 0.64568 -0.04900
C 	C 	0.19586 0.84442 0.64951 0.02500
C 	C 	0.30974 0.72496 0.61632 0.01300
C 	C 	0.30803 0.67942 0.59374 -0.03300
C 	C 	0.40724 0.70934 0.57927 -0.03400
C 	C 	0.50845 0.78148 0.58824 0.00500
C 	C 	0.51543 0.80920 0.61400 -0.02900
C 	C 	0.41609 0.77931 0.62832 -0.03000
C 	C 	0.58929 0.84135 0.56934 0.03300
C 	C 	0.58742 0.91802 0.56337 -0.06100
C 	C 	0.63682 0.96196 0.54063 0.01500
C 	C 	0.68735 0.92898 0.52359 -0.08600
C 	C 	0.70536 0.86079 0.53182 0.02500
C 	C 	0.65385 0.81572 0.55428 -0.06000
H 	H 	0.17786 0.89231 0.58700 0.03600
H 	H 	0.17925 0.75491 0.58026 0.04700
H 	H 	0.20611 0.73259 0.66219 0.08200
H 	H 	0.19804 0.86868 0.66891 0.06500
H 	H 	0.22768 0.63026 0.58552 0.04200
H 	H 	0.40236 0.68329 0.55996 0.04700
H 	H 	0.59494 0.86094 0.62184 0.05800
H 	H 	0.42054 0.80818 0.64713 0.07000
H 	H 	0.54040 0.93982 0.57533 0.04500
H 	H 	0.62767 0.01735 0.53529 0.03600
H 	H 	0.74979 0.83739 0.51962 0.04300
H 	H 	0.65841 0.75799 0.55910 0.05500
C 	C 	0.13683 0.71185 0.44385 -0.05600
C 	C 	0.11548 0.62638 0.44062 0.01100
C 	C 	0.03661 0.56143 0.45652 -0.05200
C 	C 	0.97665 0.58227 0.47469 0.02800
C 	C 	0.97529 0.66070 0.47221 -0.03900
C 	C 	0.05506 0.72550 0.45650 0.01000
C 	C 	0.94921 0.53868 0.49988 0.02600
C 	C 	0.85818 0.45401 0.50209 -0.04600
C 	C 	0.99178 0.54158 0.54574 -0.00100
C 	C 	0.01655 0.58190 0.52177 -0.07300
C 	C 	0.93891 0.38701 0.58541 -0.04400
C 	C 	0.90742 0.34425 0.60907 0.01700
C 	C 	0.80795 0.33178 0.62125 -0.06500
H 	H 	0.17047 0.61297 0.42861 0.06300
H 	H 	0.03170 0.49845 0.45672 0.06600
H 	H 	0.92318 0.67547 0.48485 0.05300
H 	H 	0.06426 0.78975 0.45740 0.06400
H 	H 	0.04292 0.57612 0.56258 0.02800
H 	H 	0.08814 0.64684 0.52015 0.05000
H 	H 	0.01444 0.39462 0.57586 0.04000
H 	H 	0.95729 0.31722 0.61730 0.05600
H 	H 	0.72225 0.43258 0.57772 0.05500
C 	C 	0.40974 0.64638 0.50079 -0.07600
C 	C 	0.29123 0.60602 0.49706 0.01500
C 	C 	0.22479 0.51618 0.49982 -0.05400
C 	C 	0.27684 0.46730 0.50669 0.03300
C 	C 	0.39245 0.50956 0.51390 -0.05900
C 	C 	0.45872 0.59887 0.51093 0.02100
C 	C 	0.21522 0.37246 0.50387 0.01000
C 	C 	0.24425 0.33409 0.48352 -0.02900
C 	C 	0.24771 0.25747 0.48779 -0.02600
C 	C 	0.22169 0.21994 0.51232 0.00700
C 	C 	0.16326 0.24555 0.52962 -0.03100
C 	C 	0.16095 0.32260 0.52546 -0.03400
C 	C 	0.28871 0.18165 0.52296 0.03600
C 	C 	0.23419 0.10679 0.53791 -0.06000
C 	C 	0.29154 0.09678 0.55910 0.01700
C 	C 	0.40392 0.16064 0.56493 -0.08200
C 	C 	0.46489 0.22442 0.54671 0.02200
C 	C 	0.40753 0.23436 0.52551 -0.06100
H 	H 	0.25208 0.64298 0.49014 0.03700
H 	H 	0.13452 0.48427 0.49537 0.05500
H 	H 	0.43221 0.47235 0.52027 0.05300
H 	H 	0.54947 0.63024 0.51492 0.03800
H 	H 	0.27906 0.36950 0.46590 0.07600
H 	H 	0.28506 0.23438 0.47342 0.06400
H 	H 	0.13452 0.21302 0.54791 0.04700
H 	H 	0.13084 0.34890 0.54056 0.04200
H 	H 	0.14392 0.06261 0.53518 0.05600
H 	H 	0.24504 0.04491 0.57254 0.03700
H 	H 	0.55332 0.27188 0.55044 0.03500
H 	H 	0.45240 0.28973 0.51311 0.05500
C 	C 	0.74460 0.00288 0.69329 0.11200
C 	C 	0.62989 0.97603 0.68720 -0.11200
C 	C 	0.54444 0.90328 0.69976 0.10800
C 	C 	0.57552 0.85676 0.71668 0.10900
C 	C 	0.68604 0.89773 0.72794 -0.08700
C 	C 	0.77198 0.97352 0.71603 0.11200
Br	Br	0.91729 0.04750 0.73274 -0.13500
Br	Br	0.86352 0.08306 0.67128 -0.15100
Br	Br	0.47344 0.73462 0.72085 -0.16500
Br	Br	0.38997 0.88054 0.69945 -0.19300
C 	C 	0.06422 0.91167 0.72290 0.10100
C 	C 	0.09433 0.90041 0.74807 -0.09100
C 	C 	0.20823 0.94891 0.75661 0.10900
C 	C 	0.28816 0.01673 0.74152 0.11200
C 	C 	0.25764 0.02997 0.71652 -0.09200
C 	C 	0.14294 0.98031 0.70787 0.10600
Br	Br	0.08745 0.01466 0.67830 -0.17500
Br	Br	0.91349 0.83475 0.70927 -0.14100
Br	Br	0.43197 0.10042 0.75668 -0.13100
Br	Br	0.25458 0.92139 0.78894 -0.13500
C 	C 	0.67622 0.48479 0.69164 0.10300
C 	C 	0.55987 0.42266 0.68990 -0.09700
C 	C 	0.48236 0.43268 0.70569 0.10900
C 	C 	0.52268 0.49560 0.72581 0.11000
C 	C 	0.64103 0.55064 0.72959 -0.09400
C 	C 	0.71771 0.54521 0.71235 0.10900
Br	Br	0.77829 0.48767 0.66551 -0.18700
Br	Br	0.41622 0.50089 0.74946 -0.16000
Br	Br	0.32111 0.35646 0.70073 -0.14800
C 	C 	0.63106 0.33176 0.98620 -0.08400
C 	C 	0.72094 0.40518 0.97500 0.01700
C 	C 	0.80394 0.47062 0.99072 -0.05900
C 	C 	0.79745 0.46316 0.01771 0.02800
C 	C 	0.69903 0.39645 0.02877 -0.06300
C 	C 	0.61395 0.33265 0.01289 0.01800
C 	C 	0.00027 0.51466 0.02987 -0.04300
C 	C 	0.09706 0.56606 0.04506 -0.02800
C 	C 	0.09343 0.61999 0.06465 -0.00300
C 	C 	0.19390 0.67047 0.08161 0.03400
C 	C 	0.24805 0.76143 0.08220 -0.06400
C 	C 	0.33992 0.80891 0.09920 0.02000
C 	C 	0.37796 0.76569 0.11587 -0.08200
C 	C 	0.32617 0.67481 0.11454 0.02000
C 	C 	0.23481 0.62751 0.09747 -0.06200
H 	H 	0.73074 0.40854 0.95420 0.05000
H 	H 	0.69054 0.39212 0.04960 0.05100
H 	H 	0.53637 0.28330 0.02135 0.03500
H 	H 	0.00362 0.47242 0.01500 0.04800
H 	H 	0.17465 0.56350 0.04174 0.04500
H 	H 	0.81745 0.57323 0.05688 0.04500
H 	H 	0.21791 0.79522 0.06979 0.05300
H 	H 	0.37853 0.87895 0.10010 0.04000
H 	H 	0.35424 0.64063 0.12732 0.04300
H 	H 	0.19409 0.55733 0.09701 0.05600
C 	C 	0.49672 0.09001 0.16181 -0.05200
C 	C 	0.57512 0.17913 0.16391 0.02000
C 	C 	0.59566 0.23090 0.14214 -0.04600
C 	C 	0.53769 0.19188 0.11886 0.02400
C 	C 	0.43378 0.11377 0.12044 -0.04900
C 	C 	0.41235 0.06296 0.14241 0.01300
C 	C 	0.60290 0.21045 0.09456 0.00600
C 	C 	0.71196 0.21749 0.09500 -0.03700
C 	C 	0.75442 0.19868 0.07272 -0.03600
C 	C 	0.68841 0.17246 0.04998 0.00500
C 	C 	0.58473 0.17292 0.04896 -0.03800
C 	C 	0.54560 0.19686 0.07074 -0.04000
C 	C 	0.71965 0.13477 0.02823 0.02600
C 	C 	0.77799 0.18766 0.00738 -0.05400
C 	C 	0.75150 0.15313 0.98220 0.01800
C 	C 	0.66036 0.06882 0.97820 -0.06800
C 	C 	0.62827 0.01130 0.99894 0.01700
C 	C 	0.65798 0.04457 0.02417 -0.05700
H 	H 	0.63339 0.20401 0.18029 0.07700
H 	H 	0.66804 0.29587 0.14218 0.06300
H 	H 	0.37908 0.08666 0.10352 0.04900
H 	H 	0.34176 0.99718 0.14213 0.06100
H 	H 	0.75952 0.23034 0.11302 0.05500
H 	H 	0.83532 0.19953 0.07358 0.04700
H 	H 	0.53209 0.15091 0.03158 0.04700
H 	H 	0.46480 0.19613 0.06970 0.04000
H 	H 	0.83254 0.25683 0.01036 0.05400
H 	H 	0.78982 0.19530 0.96594 0.04900
H 	H 	0.56666 0.94339 0.99588 0.05400
H 	H 	0.61942 0.00197 0.04036 0.05100
C 	C 	0.31976 0.27655 0.96668 -0.07100
C 	C 	0.25971 0.26510 0.98971 0.01700
C 	C 	0.30581 0.32725 0.00970 -0.06000
C 	C 	0.41242 0.40169 0.00686 0.02900
C 	C 	0.46602 0.41782 0.98276 -0.05400
C 	C 	0.42037 0.35523 0.96283 0.02000
C 	C 	0.47295 0.45765 0.02974 0.00400
C 	C 	0.48362 0.42030 0.05279 -0.03600
C 	C 	0.54130 0.47280 0.07429 -0.03800
C 	C 	0.58855 0.56315 0.07308 0.00300
C 	C 	0.57980 0.60073 0.04996 -0.03600
C 	C 	0.52205 0.54828 0.02842 -0.03500
C 	C 	0.63582 0.61746 0.09676 0.02800
C 	C 	0.56265 0.61292 0.11649 -0.05100
C 	C 	0.60249 0.67497 0.13651 0.01900
C 	C 	0.71657 0.74105 0.13742 -0.06400
C 	C 	0.79235 0.74019 0.11909 0.02100
C 	C 	0.75176 0.67970 0.09854 -0.05700
H 	H 	0.18037 0.20583 0.99269 0.04500
H 	H 	0.26096 0.31573 0.02777 0.05000
H 	H 	0.54749 0.47555 0.98013 0.06000
H 	H 	0.46886 0.36456 0.94543 0.05600
H 	H 	0.44811 0.35068 0.05397 0.04000
H 	H 	0.54790 0.44314 0.09199 0.04900
H 	H 	0.61517 0.67038 0.04888 0.04900
H 	H 	0.51416 0.57801 0.01086 0.05300
H 	H 	0.47323 0.56465 0.11546 0.05700
H 	H 	0.54244 0.67614 0.15005 0.05600
H 	H 	0.88052 0.79110 0.11942 0.05000
H 	H 	0.80914 0.68418 0.08338 0.04900
C 	C 	0.54396 0.95595 0.81986 0.11100
C 	C 	0.54722 0.88654 0.83244 -0.08600
C 	C 	0.49737 0.86155 0.85695 0.10900
C 	C 	0.46544 0.91526 0.87071 0.10700
C 	C 	0.46975 0.98826 0.85877 -0.08800
C 	C 	0.51135 0.00933 0.83350 0.11000
Br	Br	0.43655 0.89774 0.90707 -0.16700
Br	Br	0.46632 0.75208 0.87122 -0.11500
C 	C 	0.91770 0.83684 0.88925 0.09300
C 	C 	0.97495 0.82086 0.86889 -0.07600
C 	C 	0.06798 0.80730 0.87548 0.08900
C 	C 	0.10737 0.82066 0.90130 0.11000
C 	C 	0.07862 0.86973 0.91770 -0.11500
C 	C 	0.97089 0.86223 0.91386 0.12200
Br	Br	0.90567 0.89844 0.94089 -0.17100
Br	Br	0.76440 0.81539 0.88429 -0.15800
Br	Br	0.15561 0.74523 0.91628 -0.15200
Br	Br	0.14474 0.77443 0.85025 -0.14000
C 	C 	0.62847 0.38495 0.85312 0.11500
C 	C 	0.54523 0.36565 0.87199 -0.10800
C 	C 	0.47871 0.40749 0.87136 0.10700
C 	C 	0.58434 0.49084 0.83420 -0.08900
C 	C 	0.64047 0.44147 0.83304 0.10600
Br	Br	0.72884 0.44799 0.80321 -0.14500
Br	Br	0.72710 0.33470 0.85495 -0.15300
C 	C 	0.63444 0.57447 0.82088 0.32700
C 	C 	0.70600 0.86668 0.75323 0.34100
C 	C 	0.68397 0.61564 0.75101 0.34400
C 	C 	0.61862 0.85081 0.82186 0.32500
O 	O 	0.74530 0.62666 0.82383 -0.35700
O 	O 	0.80991 0.89187 0.76169 -0.34800
O 	O 	0.74074 0.60661 0.77050 -0.34100
O 	O 	0.72067 0.90692 0.81244 -0.34300
O 	O 	0.75936 0.76333 0.79991 -0.72500
H 	H 	0.74213 0.75582 0.81849 0.17300
Ni	Ni	0.23792 0.28014 0.30343 1.13200
Ni	Ni	0.27055 0.11456 0.30670 1.13000
O 	O 	0.13311 0.20622 0.33133 -0.35100
O 	O 	0.23698 0.11135 0.26835 -0.34100
O 	O 	0.14945 0.19507 0.27383 -0.33800
O 	O 	0.10682 0.08254 0.31187 -0.36000
C 	C 	0.83326 0.41360 0.52617 -0.02200
C 	C 	0.89984 0.45754 0.54809 -0.00900
C 	C 	0.87060 0.41695 0.57368 0.03000
C 	C 	0.74368 0.36651 0.61018 0.02300
C 	C 	0.77455 0.40849 0.58646 -0.05300
H 	H 	0.80648 0.41982 0.48527 0.06600
H 	H 	0.76208 0.34852 0.52783 0.04600
H 	H 	0.66612 0.35665 0.61920 0.04500
Br	Br	0.87959 0.61627 0.71796 -0.14100
C 	C 	0.89907 0.51725 0.03396 0.01300
C 	C 	0.99218 0.62249 0.06882 -0.02500
C 	C 	0.89531 0.57122 0.05352 -0.03900
H 	H 	0.87697 0.52417 0.98195 0.06500
H 	H 	0.98824 0.66328 0.08408 0.04500
Br	Br	0.53968 0.11811 0.81909 -0.11300
Br	Br	0.57630 0.97451 0.78353 -0.13500
C 	C 	0.49969 0.47106 0.85273 0.10300
Br	Br	0.41147 0.53004 0.85242 -0.13300
Br	Br	0.35848 0.37774 0.89570 -0.18100
