data_crystal

_cell_length_a 27.87948
_cell_length_b 27.90626
_cell_length_c 26.69494
_cell_angle_alpha 95.50559
_cell_angle_beta  95.50662
_cell_angle_gamma 125.63988

_symmetry_space_group_name_	'P 1'
_symmetry_space_group_name_H-M	'P 1'

loop_
_symmetry_equiv_pos_as_xyz
  x,y,z

loop_
_atom_site_label
_atom_site_type_symbol
_atom_site_fract_x
_atom_site_fract_y
_atom_site_fract_z
_atom_site_charge
C 	C 	0.08422 0.06641 0.99015 0.04800
C 	C 	0.05516 0.09318 0.99820 -0.08100
H 	H 	0.08090 0.14170 0.00630 0.05200
C 	C 	0.98515 0.01136 0.44545 -0.05900
H 	H 	0.01313 0.05952 0.44708 0.05000
Cu	Cu	0.66868 0.28219 0.01143 0.92700
Cu	Cu	0.69537 0.25638 0.89914 0.88300
Cu	Cu	0.69444 0.36200 0.93088 0.90200
Cu	Cu	0.68788 0.40614 0.03726 0.89500
C 	C 	0.68958 0.33707 0.11527 0.29800
O 	O 	0.58470 0.25365 0.01861 -0.36600
C 	C 	0.66939 0.30538 0.82296 0.29800
O 	O 	0.72111 0.37310 0.00285 -0.64000
O 	O 	0.65032 0.27528 0.93643 -0.63400
O 	O 	0.70012 0.23370 0.01257 -0.36800
O 	O 	0.75762 0.27875 0.95358 -0.42800
O 	O 	0.70413 0.38908 0.10527 -0.37900
O 	O 	0.74325 0.44725 0.92983 -0.37200
C 	C 	0.74753 0.48778 0.96379 0.30900
C 	C 	0.56369 0.28337 0.00642 0.29800
O 	O 	0.59862 0.33570 0.99324 -0.38000
O 	O 	0.71259 0.47212 0.99825 -0.38600
O 	O 	0.69636 0.30264 0.08396 -0.34200
C 	C 	0.74557 0.24779 0.99037 0.32800
O 	O 	0.67636 0.34900 0.85523 -0.36700
O 	O 	0.65458 0.25533 0.83732 -0.39700
H 	H 	0.76520 0.39614 0.01321 0.17100
H 	H 	0.60695 0.25077 0.92144 0.17800
Cu	Cu	0.69725 0.30265 0.41937 0.92800
Cu	Cu	0.72630 0.27742 0.53157 0.87500
Cu	Cu	0.61782 0.27340 0.50090 0.90100
Cu	Cu	0.57356 0.28542 0.39621 0.90300
C 	C 	0.64235 0.28648 0.31727 0.29700
O 	O 	0.72693 0.38731 0.41398 -0.36200
C 	C 	0.68154 0.30835 0.60909 0.30000
O 	O 	0.60647 0.25084 0.42820 -0.63500
O 	O 	0.70450 0.31994 0.49446 -0.64000
O 	O 	0.74407 0.26930 0.41650 -0.36800
O 	O 	0.70152 0.21393 0.47749 -0.43900
O 	O 	0.58971 0.26995 0.32743 -0.36100
O 	O 	0.53234 0.22377 0.50143 -0.36900
C 	C 	0.49251 0.22258 0.46920 0.30700
C 	C 	0.69757 0.40852 0.42688 0.31100
O 	O 	0.64553 0.37382 0.44069 -0.37700
O 	O 	0.50927 0.26071 0.43743 -0.38300
O 	O 	0.67591 0.27695 0.34656 -0.35800
C 	C 	0.73084 0.22462 0.43956 0.30900
O 	O 	0.63009 0.28248 0.57673 -0.36300
O 	O 	0.73021 0.32142 0.59270 -0.41200
H 	H 	0.58322 0.20699 0.41623 0.16800
H 	H 	0.72776 0.36314 0.50944 0.17900
C 	C 	0.64363 0.32582 0.73949 -0.02500
C 	C 	0.67655 0.31192 0.76953 -0.07600
C 	C 	0.71460 0.30168 0.74772 0.08800
C 	C 	0.71660 0.30180 0.69560 -0.02600
C 	C 	0.68217 0.31358 0.66488 -0.07900
C 	C 	0.64675 0.32742 0.68738 0.09800
N 	N 	0.61535 0.34472 0.65795 -0.01900
H 	H 	0.61543 0.33515 0.75644 0.06600
H 	H 	0.74464 0.29207 0.67887 0.05300
N 	N 	0.75184 0.29172 0.77864 -0.02500
O 	O 	0.55789 0.31638 0.65576 -0.10100
O 	O 	0.64491 0.39154 0.63652 -0.10600
O 	O 	0.74925 0.24407 0.76537 -0.12600
O 	O 	0.79127 0.33229 0.81797 -0.14000
C 	C 	0.68789 0.28396 0.24163 -0.03000
C 	C 	0.65575 0.30053 0.26599 -0.06900
C 	C 	0.63682 0.33093 0.24129 0.09100
C 	C 	0.64697 0.34110 0.19178 -0.02700
C 	C 	0.67910 0.32470 0.16740 -0.07400
C 	C 	0.70108 0.29730 0.19321 0.10000
N 	N 	0.73930 0.28580 0.17173 -0.01700
H 	H 	0.70358 0.26156 0.26056 0.07400
H 	H 	0.63070 0.36290 0.17256 0.05600
N 	N 	0.60941 0.35370 0.26717 -0.02100
O 	O 	0.79280 0.33035 0.16698 -0.09600
O 	O 	0.72274 0.23112 0.16129 -0.09700
O 	O 	0.64047 0.39689 0.30694 -0.12100
O 	O 	0.55540 0.33529 0.24810 -0.11500
C 	C 	0.76943 0.58516 0.43200 -0.00600
C 	C 	0.77362 0.60706 0.38627 -0.02600
C 	C 	0.74521 0.52313 0.43055 0.05400
C 	C 	0.72420 0.47099 0.42909 -0.09700
H 	H 	0.75873 0.57750 0.34970 0.04800
C 	C 	0.79881 0.13057 0.41368 -0.00900
C 	C 	0.76095 0.06799 0.40933 -0.02800
C 	C 	0.78525 0.03605 0.41034 -0.03900
C 	C 	0.77490 0.16424 0.42030 0.05100
C 	C 	0.75485 0.19211 0.42783 -0.11400
H 	H 	0.71295 0.04429 0.40661 0.04200
C 	C 	0.19366 0.07221 0.47808 0.02200
C 	C 	0.23332 0.13487 0.49218 -0.04400
C 	C 	0.29512 0.16449 0.49564 -0.02600
C 	C 	0.31748 0.13155 0.48497 -0.00500
C 	C 	0.27797 0.06875 0.47252 -0.02900
C 	C 	0.21618 0.03914 0.46913 -0.03800
C 	C 	0.12979 0.04202 0.47022 -0.01400
C 	C 	0.07611 0.01562 0.46292 -0.01400
C 	C 	0.37974 0.16240 0.48133 0.05100
C 	C 	0.43151 0.18918 0.47670 -0.09700
H 	H 	0.21624 0.16071 0.49940 0.04600
H 	H 	0.32541 0.21308 0.50525 0.04600
H 	H 	0.29490 0.04299 0.46417 0.04200
C 	C 	0.83810 0.66231 0.94708 -0.00700
C 	C 	0.80723 0.60022 0.95110 0.05100
C 	C 	0.78057 0.54860 0.95601 -0.10000
H 	H 	0.75658 0.65506 0.92920 0.04400
C 	C 	0.90230 0.21782 0.02126 -0.02400
C 	C 	0.83960 0.17983 0.01641 -0.01000
C 	C 	0.80942 0.11782 0.01251 -0.02500
C 	C 	0.84154 0.09371 0.01170 -0.04500
C 	C 	0.80585 0.20363 0.00965 0.06000
C 	C 	0.77797 0.22366 0.00206 -0.11600
H 	H 	0.92596 0.26580 0.02423 0.04300
H 	H 	0.76097 0.08814 0.00869 0.04200
H 	H 	0.81772 0.04559 0.00752 0.04500
C 	C 	0.26533 0.16220 0.99751 0.03600
C 	C 	0.28838 0.16997 0.95212 -0.05300
C 	C 	0.34895 0.19442 0.95377 -0.01200
C 	C 	0.38670 0.21111 0.00081 -0.02100
C 	C 	0.36393 0.20436 0.04629 -0.01800
C 	C 	0.30336 0.17990 0.04464 -0.05900
C 	C 	0.20178 0.13094 0.99528 -0.01300
C 	C 	0.14830 0.10282 0.99314 -0.02000
C 	C 	0.44889 0.23560 0.00247 0.05200
C 	C 	0.50114 0.25675 0.00409 -0.11000
H 	H 	0.25919 0.15612 0.91552 0.04900
H 	H 	0.36634 0.19988 0.91849 0.04000
H 	H 	0.39296 0.21754 0.08283 0.04200
H 	H 	0.28581 0.17378 0.07986 0.04900
C 	C 	0.99272 0.05708 0.99574 0.06700
C 	C 	0.78828 0.62358 0.47909 -0.02600
H 	H 	0.78478 0.60685 0.51458 0.04400
C 	C 	0.84750 0.06655 0.41570 0.02300
C 	C 	0.88515 0.12885 0.41825 -0.04500
C 	C 	0.86086 0.16079 0.41727 -0.02600
C 	C 	0.87310 0.03458 0.42172 -0.01400
C 	C 	0.89511 0.00846 0.42750 -0.01400
H 	H 	0.93330 0.15272 0.42219 0.04600
H 	H 	0.89044 0.20915 0.42071 0.04100
H 	H 	0.92672 0.68416 0.96533 0.04200
C 	C 	0.90398 0.13151 0.01474 0.02000
C 	C 	0.93442 0.19371 0.02042 -0.04400
C 	C 	0.93617 0.10613 0.00887 -0.00500
C 	C 	0.96242 0.08425 0.00320 -0.03700
H 	H 	0.98270 0.22324 0.02300 0.04500
C 	C 	0.79772 0.66746 0.38769 -0.04500
C 	C 	0.80526 0.68500 0.93757 -0.02600
H 	H 	0.80188 0.68434 0.35223 0.04600
C 	C 	0.81235 0.68396 0.48051 -0.04500
C 	C 	0.90103 0.70136 0.95790 -0.02600
C 	C 	0.81759 0.70616 0.43483 0.02200
H 	H 	0.82789 0.71367 0.51711 0.04600
C 	C 	0.05093 0.00380 0.97961 -0.07500
C 	C 	0.83517 0.74673 0.94061 -0.04500
H 	H 	0.80945 0.76409 0.93434 0.04600
C 	C 	0.93094 0.76308 0.96088 -0.04500
C 	C 	0.84861 0.76955 0.43659 -0.01100
C 	C 	0.89803 0.78597 0.95312 0.02300
H 	H 	0.18577 0.99063 0.45846 0.03900
H 	H 	0.75583 0.98787 0.40814 0.04000
H 	H 	0.07349 0.98314 0.97357 0.05200
C 	C 	0.01176 0.98224 0.45364 0.02900
C 	C 	0.97569 0.92014 0.45150 -0.07400
H 	H 	0.99638 0.89762 0.45767 0.05400
C 	C 	0.95955 0.99435 0.98529 -0.09300
C 	C 	0.98873 0.96777 0.97726 0.05000
H 	H 	0.91132 0.96639 0.98351 0.06000
C 	C 	0.92235 0.97823 0.43507 0.03200
C 	C 	0.91303 0.88688 0.44103 0.04500
C 	C 	0.88622 0.91588 0.43283 -0.07600
H 	H 	0.83765 0.89016 0.42480 0.05400
C 	C 	0.87661 0.82291 0.43839 -0.02500
C 	C 	0.92864 0.84983 0.96083 -0.01000
C 	C 	0.95527 0.90348 0.96803 -0.02600
H 	H 	0.97959 0.79316 0.97033 0.04600
