data_crystal

_cell_length_a 30.70639
_cell_length_b 30.97513
_cell_length_c 33.28723
_cell_angle_alpha 95.52507
_cell_angle_beta  95.52391
_cell_angle_gamma 125.55655

_symmetry_space_group_name_	'P 1'
_symmetry_space_group_name_H-M	'P 1'

loop_
_symmetry_equiv_pos_as_xyz
  x,y,z

loop_
_atom_site_label
_atom_site_type_symbol
_atom_site_fract_x
_atom_site_fract_y
_atom_site_fract_z
_atom_site_charge
N 	N 	0.03554 0.06798 0.98734 -0.14200
N 	N 	0.03139 0.98939 0.98106 -0.14000
N 	N 	0.99820 0.02843 0.45671 -0.14200
C 	C 	0.02383 0.00531 0.46406 0.11800
C 	C 	0.05985 0.04324 0.98188 0.13000
C 	C 	0.08359 0.03738 0.46836 -0.02100
H 	H 	0.08882 0.08545 0.42335 0.04000
H 	H 	0.09254 0.99686 0.51438 0.04100
C 	C 	0.11312 0.02689 0.49533 -0.02100
C 	C 	0.11110 0.07714 0.44443 -0.02000
C 	C 	0.11603 0.07407 0.97799 -0.04100
C 	C 	0.98267 0.03871 0.99194 0.13000
C 	C 	0.97851 0.96003 0.98562 0.11900
N 	N 	0.95419 0.98481 0.99106 -0.14100
C 	C 	0.94308 0.99871 0.45230 0.12000
N 	N 	0.99421 0.95235 0.46700 -0.14100
C 	C 	0.93916 0.92239 0.46260 0.11800
N 	N 	0.91355 0.94559 0.45519 -0.14100
Cu	Cu	0.65584 0.26918 0.00431 0.92800
Cu	Cu	0.70179 0.26739 0.91958 0.87000
Cu	Cu	0.69142 0.35419 0.95010 0.89700
Cu	Cu	0.65511 0.36891 0.02777 0.89400
C 	C 	0.66094 0.30557 0.08881 0.26300
O 	O 	0.57588 0.23721 0.00033 -0.36500
C 	C 	0.67790 0.31548 0.86138 0.26000
O 	O 	0.70020 0.35282 0.00765 -0.64100
O 	O 	0.65216 0.27444 0.94551 -0.64200
O 	O 	0.68915 0.22992 0.00529 -0.37400
O 	O 	0.75122 0.28330 0.96738 -0.44200
O 	O 	0.64121 0.33121 0.07599 -0.37700
O 	O 	0.73258 0.43198 0.95898 -0.38300
C 	C 	0.72657 0.46129 0.98615 0.30700
C 	C 	0.55526 0.25974 0.98331 0.28100
O 	O 	0.58793 0.30994 0.97824 -0.39200
O 	O 	0.68780 0.43895 0.00830 -0.39400
O 	O 	0.67099 0.27863 0.06287 -0.35800
C 	C 	0.73561 0.24942 0.99295 0.28700
O 	O 	0.69636 0.35677 0.89135 -0.37800
O 	O 	0.67003 0.27074 0.86903 -0.41300
H 	H 	0.73850 0.37590 0.02249 0.16500
H 	H 	0.61489 0.25287 0.92887 0.17200
Cu	Cu	0.71894 0.33046 0.43770 0.92700
Cu	Cu	0.73526 0.30515 0.52926 0.87000
Cu	Cu	0.63961 0.30330 0.49715 0.89700
Cu	Cu	0.61044 0.31922 0.41337 0.89400
C 	C 	0.66248 0.29462 0.35407 0.25800
O 	O 	0.74470 0.40628 0.43224 -0.36300
C 	C 	0.68741 0.33100 0.58628 0.26000
O 	O 	0.63504 0.28395 0.43973 -0.63900
O 	O 	0.71971 0.34493 0.49716 -0.64000
O 	O 	0.76317 0.30230 0.44087 -0.37600
O 	O 	0.71809 0.24944 0.48658 -0.44300
O 	O 	0.64019 0.31942 0.36259 -0.37700
O 	O 	0.56121 0.25885 0.49292 -0.38200
C 	C 	0.52681 0.25764 0.46490 0.30800
C 	C 	0.72081 0.42677 0.44679 0.30200
O 	O 	0.67181 0.39496 0.45502 -0.39100
O 	O 	0.54378 0.29021 0.43795 -0.39500
O 	O 	0.70435 0.30480 0.37970 -0.35000
C 	C 	0.74824 0.26065 0.45838 0.30900
O 	O 	0.64393 0.31059 0.55749 -0.37600
O 	O 	0.73344 0.34289 0.57691 -0.41300
H 	H 	0.61309 0.24453 0.42941 0.16200
H 	H 	0.74062 0.38362 0.50973 0.17300
C 	C 	0.66338 0.28996 0.75472 0.07400
C 	C 	0.63496 0.26759 0.71397 -0.08300
C 	C 	0.66405 0.29186 0.68305 0.00700
C 	C 	0.71558 0.34068 0.69241 0.07300
C 	C 	0.74055 0.36722 0.73335 -0.08200
C 	C 	0.71516 0.33849 0.76410 0.00700
N 	N 	0.63902 0.28121 0.78752 -0.15200
C 	C 	0.67561 0.32311 0.81857 -0.00100
C 	C 	0.72252 0.36089 0.80431 -0.04400
N 	N 	0.72596 0.36622 0.66030 -0.15200
C 	C 	0.68194 0.33317 0.62968 -0.00100
C 	C 	0.64149 0.28766 0.64366 -0.04600
H 	H 	0.59180 0.23468 0.70685 0.05200
H 	H 	0.77645 0.40888 0.74084 0.05200
H 	H 	0.76180 0.39190 0.82355 0.04300
H 	H 	0.60744 0.25020 0.62420 0.04400
H 	H 	0.60539 0.24357 0.79122 0.08300
H 	H 	0.76482 0.39767 0.65637 0.08400
C 	C 	0.66224 0.24705 0.25237 0.07600
C 	C 	0.69310 0.26246 0.22098 -0.08200
C 	C 	0.66768 0.25918 0.18229 0.01300
C 	C 	0.61718 0.24972 0.17693 0.07700
C 	C 	0.58889 0.24019 0.20951 -0.08300
C 	C 	0.61034 0.23482 0.24625 0.01300
N 	N 	0.68498 0.26494 0.29262 -0.15100
C 	C 	0.64809 0.26437 0.31218 0.00300
C 	C 	0.60139 0.24613 0.28446 -0.05100
N 	N 	0.61254 0.27299 0.14637 -0.15200
C 	C 	0.65900 0.29606 0.13117 0.00500
C 	C 	0.69480 0.28946 0.15345 -0.04600
H 	H 	0.73609 0.27988 0.22727 0.05400
H 	H 	0.55392 0.24097 0.20739 0.05200
H 	H 	0.57371 0.25621 0.28955 0.04400
H 	H 	0.73093 0.29614 0.14444 0.04900
H 	H 	0.72697 0.28982 0.30394 0.09500
H 	H 	0.57596 0.26419 0.13148 0.08800
C 	C 	0.90746 0.86473 0.46532 -0.02200
C 	C 	0.92763 0.84767 0.49456 -0.01900
C 	C 	0.90171 0.79261 0.49382 -0.04900
C 	C 	0.85530 0.75403 0.46391 0.01300
C 	C 	0.83378 0.77096 0.43572 -0.04900
C 	C 	0.85969 0.82611 0.43646 -0.01900
C 	C 	0.83109 0.69614 0.46078 0.00700
C 	C 	0.83192 0.66762 0.42579 -0.04200
C 	C 	0.81119 0.61340 0.42357 -0.03100
C 	C 	0.78959 0.58735 0.45630 -0.00900
C 	C 	0.78858 0.61569 0.49122 -0.03100
C 	C 	0.80928 0.66993 0.49348 -0.04300
C 	C 	0.76657 0.53099 0.45338 0.04500
C 	C 	0.74639 0.48358 0.45060 -0.11100
H 	H 	0.96404 0.87709 0.51733 0.03900
H 	H 	0.91845 0.77993 0.51585 0.04200
H 	H 	0.79764 0.74144 0.41275 0.04200
H 	H 	0.84370 0.83873 0.41376 0.04000
H 	H 	0.84904 0.68760 0.40052 0.04100
H 	H 	0.81188 0.59166 0.39640 0.04000
H 	H 	0.77165 0.59571 0.51654 0.03800
H 	H 	0.80848 0.69159 0.52062 0.04100
C 	C 	0.91564 0.02444 0.44523 -0.02300
C 	C 	0.87227 0.01185 0.46502 -0.02100
C 	C 	0.84964 0.03988 0.46128 -0.04800
C 	C 	0.86999 0.08057 0.43759 0.01200
C 	C 	0.91205 0.09188 0.41669 -0.04900
C 	C 	0.93481 0.06401 0.42051 -0.01900
C 	C 	0.84939 0.11337 0.43657 0.00700
C 	C 	0.88471 0.16921 0.45203 -0.04400
C 	C 	0.86467 0.19982 0.45324 -0.03100
C 	C 	0.80922 0.17489 0.43907 -0.01100
C 	C 	0.77409 0.11936 0.42277 -0.03000
C 	C 	0.79410 0.08868 0.42147 -0.04400
C 	C 	0.78766 0.20536 0.44438 0.04700
C 	C 	0.76969 0.23077 0.45002 -0.12000
H 	H 	0.85716 0.98151 0.48424 0.04100
H 	H 	0.81720 0.03087 0.47757 0.04100
H 	H 	0.92763 0.12279 0.39796 0.04200
H 	H 	0.96768 0.07354 0.40458 0.03900
H 	H 	0.92743 0.18865 0.46382 0.04000
H 	H 	0.89205 0.24269 0.46597 0.03600
H 	H 	0.73115 0.09979 0.41180 0.03800
H 	H 	0.76658 0.04570 0.40919 0.04000
C 	C 	0.16928 0.05503 0.49768 -0.04800
C 	C 	0.19650 0.09397 0.47318 0.01300
C 	C 	0.16730 0.10527 0.44683 -0.04800
C 	C 	0.25531 0.12196 0.47437 0.00700
C 	C 	0.29201 0.17809 0.48793 -0.04300
C 	C 	0.34754 0.20483 0.48774 -0.03100
C 	C 	0.36672 0.17564 0.47404 -0.00900
C 	C 	0.33027 0.11948 0.46105 -0.03100
C 	C 	0.27472 0.09269 0.46122 -0.04300
C 	C 	0.42332 0.20368 0.47139 0.04600
C 	C 	0.47064 0.22785 0.46870 -0.10800
H 	H 	0.19161 0.04640 0.51838 0.04200
H 	H 	0.18801 0.13525 0.42776 0.04200
H 	H 	0.27745 0.20098 0.49835 0.04100
H 	H 	0.37552 0.24828 0.49782 0.04000
H 	H 	0.34482 0.09669 0.45035 0.03700
H 	H 	0.24668 0.04934 0.45066 0.04000
C 	C 	0.94772 0.90149 0.98477 -0.02200
C 	C 	0.90979 0.87668 0.01071 -0.01800
C 	C 	0.88193 0.82150 0.01079 -0.04700
C 	C 	0.89169 0.79065 0.98494 0.01200
C 	C 	0.92916 0.81526 0.95874 -0.04800
C 	C 	0.95704 0.87040 0.95863 -0.01900
C 	C 	0.86290 0.73266 0.98544 0.00800
C 	C 	0.89227 0.71305 0.99798 -0.04400
C 	C 	0.86498 0.65795 0.99812 -0.03200
C 	C 	0.80822 0.62218 0.98575 -0.00800
C 	C 	0.77881 0.64169 0.97328 -0.03000
C 	C 	0.80605 0.69676 0.97311 -0.04300
C 	C 	0.78008 0.56550 0.98597 0.04600
C 	C 	0.75600 0.51795 0.98609 -0.10800
H 	H 	0.90251 0.90026 0.03125 0.04200
H 	H 	0.85314 0.80282 0.03120 0.04300
H 	H 	0.93660 0.79163 0.93843 0.04200
H 	H 	0.98571 0.88890 0.93812 0.04100
H 	H 	0.93616 0.74050 0.00768 0.04200
H 	H 	0.88794 0.64311 0.00785 0.03800
H 	H 	0.73490 0.61422 0.96369 0.04000
H 	H 	0.78306 0.71151 0.96324 0.04100
C 	C 	0.76698 0.22853 0.00376 -0.09600
C 	C 	0.82260 0.25888 0.00161 0.01400
C 	C 	0.85047 0.23602 0.00562 -0.06900
C 	C 	0.82314 0.18273 0.01207 0.02700
C 	C 	0.76848 0.15347 0.01667 -0.06800
C 	C 	0.74050 0.17625 0.01257 0.01300
C 	C 	0.85023 0.15608 0.01034 -0.00200
C 	C 	0.83014 0.11186 0.97887 -0.03600
C 	C 	0.85743 0.08839 0.97576 -0.04300
C 	C 	0.90502 0.10898 0.00400 0.01400
C 	C 	0.92492 0.15279 0.03571 -0.04200
C 	C 	0.89761 0.17630 0.03890 -0.03500
C 	C 	0.93340 0.08513 0.00029 0.00500
C 	C 	0.95638 0.06441 0.99667 -0.04200
H 	H 	0.84388 0.29968 0.99576 0.02700
H 	H 	0.89281 0.25909 0.00238 0.04500
H 	H 	0.74724 0.11253 0.02221 0.04600
H 	H 	0.69777 0.15250 0.01471 0.03400
H 	H 	0.79382 0.09619 0.95652 0.03600
H 	H 	0.84177 0.05446 0.95122 0.04200
H 	H 	0.96161 0.16878 0.05774 0.04300
H 	H 	0.91341 0.21037 0.06333 0.03900
C 	C 	0.49579 0.23182 0.97586 -0.09000
C 	C 	0.46309 0.19202 0.99841 0.01200
C 	C 	0.40815 0.17068 0.99543 -0.06800
C 	C 	0.38528 0.18876 0.96983 0.02700
C 	C 	0.41715 0.22666 0.94588 -0.06700
C 	C 	0.47217 0.24808 0.94882 0.01100
C 	C 	0.32876 0.16981 0.96961 -0.00300
C 	C 	0.28810 0.13542 0.93489 -0.03500
C 	C 	0.23368 0.11367 0.93606 -0.04200
C 	C 	0.21969 0.12631 0.97190 0.01200
C 	C 	0.26051 0.16217 0.00608 -0.04100
C 	C 	0.31489 0.18390 0.00496 -0.03400
C 	C 	0.16326 0.09855 0.97498 0.00400
H 	H 	0.48059 0.17889 0.01928 0.03800
H 	H 	0.38359 0.14091 0.01365 0.04800
H 	H 	0.39963 0.24041 0.92571 0.04600
H 	H 	0.49662 0.27802 0.93069 0.03100
H 	H 	0.29848 0.12451 0.90741 0.03800
H 	H 	0.20231 0.08597 0.90950 0.04200
H 	H 	0.24999 0.17218 0.03387 0.04300
H 	H 	0.34612 0.21081 0.03179 0.03900
