data_crystal

_cell_length_a 42.77500
_cell_length_b 42.49896
_cell_length_c 22.79596
_cell_angle_alpha 89.96174
_cell_angle_beta  89.95116
_cell_angle_gamma 87.30327

_symmetry_space_group_name_	'P 1'
_symmetry_space_group_name_H-M	'P 1'

loop_
_symmetry_equiv_pos_as_xyz
  x,y,z

loop_
_atom_site_label
_atom_site_type_symbol
_atom_site_fract_x
_atom_site_fract_y
_atom_site_fract_z
_atom_site_charge
C 	C 	0.44439 0.53242 0.98705 -0.03900
C 	C 	0.47097 0.55018 0.98500 -0.03700
C 	C 	0.44715 0.49930 0.99080 0.00900
C 	C 	0.47729 0.48403 0.99239 -0.00600
C 	C 	0.50428 0.50207 0.99065 -0.00400
C 	C 	0.50111 0.53535 0.98656 0.00600
C 	C 	0.48046 0.45072 0.99565 0.01000
C 	C 	0.51061 0.43591 0.99767 -0.04600
C 	C 	0.53441 0.48683 0.99324 0.00500
C 	C 	0.52828 0.55316 0.98441 -0.00600
C 	C 	0.55790 0.53787 0.98719 -0.04700
C 	C 	0.56125 0.50510 0.99242 -0.00500
C 	C 	0.42030 0.48107 0.99297 -0.00800
C 	C 	0.42367 0.44824 0.99617 -0.04600
C 	C 	0.45330 0.43289 0.99700 -0.00800
C 	C 	0.52627 0.58792 0.98033 0.01100
C 	C 	0.52402 0.60260 0.92524 -0.04400
C 	C 	0.52752 0.63506 0.92028 -0.03100
C 	C 	0.53348 0.65302 0.97035 -0.00400
C 	C 	0.53454 0.63851 0.02566 -0.02300
C 	C 	0.53084 0.60611 0.03064 -0.04000
C 	C 	0.59306 0.49052 0.99913 0.00800
C 	C 	0.60522 0.48461 0.05538 -0.03600
C 	C 	0.63703 0.47649 0.06260 -0.03700
C 	C 	0.61254 0.48658 0.94992 -0.04000
C 	C 	0.64437 0.47856 0.95711 -0.03600
C 	C 	0.65695 0.47456 0.01361 0.00900
C 	C 	0.38841 0.49589 0.99139 0.01200
C 	C 	0.37313 0.50442 0.04385 -0.04000
C 	C 	0.34164 0.51483 0.04309 -0.02400
C 	C 	0.32517 0.51651 0.98989 -0.00200
C 	C 	0.34080 0.50903 0.93718 -0.03200
C 	C 	0.37229 0.49867 0.93798 -0.04300
C 	C 	0.45531 0.39808 0.99757 0.01100
C 	C 	0.45616 0.38145 0.94443 -0.04400
C 	C 	0.45146 0.34912 0.94391 -0.03300
C 	C 	0.44568 0.33321 0.99655 -0.00200
C 	C 	0.44687 0.34946 0.05002 -0.02500
C 	C 	0.45158 0.38181 0.05050 -0.04000
C 	C 	0.53719 0.45368 0.99629 -0.03600
H 	H 	0.52056 0.58871 0.88615 0.04400
H 	H 	0.52667 0.64604 0.87736 0.04100
H 	H 	0.53894 0.65221 0.06461 0.04600
H 	H 	0.53262 0.59495 0.07333 0.04500
H 	H 	0.32844 0.51080 0.89576 0.04200
H 	H 	0.38399 0.49219 0.89728 0.04400
H 	H 	0.32985 0.52079 0.08395 0.04700
H 	H 	0.38546 0.50233 0.08527 0.04500
H 	H 	0.45921 0.39381 0.90339 0.04400
H 	H 	0.45128 0.33664 0.90249 0.04100
H 	H 	0.45102 0.39446 0.09176 0.04500
H 	H 	0.44281 0.33733 0.09095 0.04700
H 	H 	0.59026 0.48739 0.09357 0.04300
H 	H 	0.64636 0.47268 0.10633 0.04300
H 	H 	0.60326 0.49096 0.90631 0.04400
H 	H 	0.65947 0.47678 0.91896 0.04900
H 	H 	0.42163 0.54465 0.98566 0.04400
H 	H 	0.46791 0.57556 0.98235 0.04300
H 	H 	0.57860 0.55168 0.98614 0.04700
H 	H 	0.55996 0.44146 0.99733 0.04300
H 	H 	0.51365 0.41052 0.00046 0.05000
H 	H 	0.40296 0.43443 0.99743 0.04600
Zn	Zn	0.39101 0.10018 0.00035 1.22300
C 	C 	0.33501 0.06577 0.98566 0.30000
O 	O 	0.38440 0.08458 0.08041 -0.44800
O 	O 	0.35008 0.04138 0.00969 -0.42900
O 	O 	0.41443 0.03981 0.06431 -0.50300
C 	C 	0.41263 0.06881 0.89438 0.34400
O 	O 	0.41842 0.09036 0.93355 -0.47000
O 	O 	0.39576 0.04506 0.90882 -0.49400
C 	C 	0.40088 0.06013 0.10062 0.34800
O 	O 	0.43164 0.13091 0.03566 -0.32100
Zn	Zn	0.39604 0.02978 0.98889 1.17100
O 	O 	0.35060 0.08959 0.96598 -0.43100
C 	C 	0.41198 0.15472 0.02757 0.26500
O 	O 	0.38489 0.14784 0.00727 -0.36500
C 	C 	0.47788 0.99207 0.45728 0.01100
C 	C 	0.50173 0.96761 0.45677 0.01000
C 	C 	0.47815 0.01570 0.50035 -0.05400
C 	C 	0.50207 0.01534 0.54266 0.01100
C 	C 	0.52577 0.96743 0.49875 -0.05400
C 	C 	0.52621 0.99123 0.54146 0.01100
H 	H 	0.54406 0.94892 0.49813 0.05100
H 	H 	0.45991 0.03427 0.50096 0.05100
C 	C 	0.55053 0.99188 0.58312 -0.01200
C 	C 	0.55022 0.01446 0.62804 0.01100
C 	C 	0.56808 0.00432 0.67799 -0.05300
C 	C 	0.58134 0.97370 0.67266 0.01900
S 	S 	0.57075 0.96002 0.60754 -0.00900
H 	H 	0.56805 0.01699 0.71909 0.05100
C 	C 	0.50272 0.03882 0.58637 -0.01300
C 	C 	0.52599 0.03805 0.62996 0.01000
C 	C 	0.51611 0.05379 0.68253 -0.04800
C 	C 	0.48485 0.06519 0.68112 0.01200
S 	S 	0.47075 0.05667 0.61522 -0.00500
H 	H 	0.52958 0.05308 0.72263 0.05100
C 	C 	0.45440 0.96914 0.36986 0.01000
C 	C 	0.45383 0.99158 0.41495 -0.01200
S 	S 	0.43273 0.02314 0.39143 -0.00800
C 	C 	0.42178 0.00897 0.32673 0.01900
C 	C 	0.43612 0.97888 0.32031 -0.05400
C 	C 	0.50065 0.94372 0.41382 -0.01100
C 	C 	0.47836 0.94537 0.36860 0.00900
C 	C 	0.48842 0.92891 0.31692 -0.05200
C 	C 	0.51846 0.91455 0.32201 0.01700
S 	S 	0.53193 0.92304 0.38860 -0.01100
H 	H 	0.47632 0.93095 0.27536 0.05300
H 	H 	0.43615 0.96622 0.27919 0.05000
Zn	Zn	0.61054 0.88017 0.99735 1.22000
C 	C 	0.66050 0.92319 0.01116 0.31200
O 	O 	0.58317 0.88557 0.06662 -0.46300
O 	O 	0.64160 0.94540 0.98895 -0.43600
O 	O 	0.59897 0.93428 0.08954 -0.48100
C 	C 	0.59366 0.91860 0.89857 0.34800
O 	O 	0.61399 0.89701 0.91806 -0.45600
O 	O 	0.57705 0.93601 0.93566 -0.50500
C 	C 	0.58658 0.90797 0.10543 0.33200
O 	O 	0.57550 0.84408 0.95851 -0.31200
Zn	Zn	0.59462 0.94923 0.00970 1.17500
O 	O 	0.64933 0.89651 0.02927 -0.43400
C 	C 	0.59666 0.82265 0.97331 0.26800
O 	O 	0.62155 0.83305 0.99751 -0.38300
Zn	Zn	0.09626 0.60853 0.00593 1.22300
C 	C 	0.05917 0.66474 0.97569 0.30500
O 	O 	0.07904 0.59250 0.07981 -0.45000
O 	O 	0.03925 0.64649 0.95033 -0.44300
O 	O 	0.03174 0.61848 0.06905 -0.49200
C 	C 	0.07082 0.58343 0.90106 0.34700
O 	O 	0.09098 0.60296 0.92163 -0.45600
O 	O 	0.04717 0.57539 0.93353 -0.50600
C 	C 	0.05317 0.60494 0.10287 0.33500
O 	O 	0.13225 0.56460 0.00202 -0.30500
Zn	Zn	0.02711 0.60481 0.98851 1.17100
O 	O 	0.08068 0.65267 0.01135 -0.42100
C 	C 	0.15286 0.58450 0.01729 0.26900
O 	O 	0.14230 0.61329 0.02433 -0.37600
C 	C 	0.97523 0.50907 0.46703 0.01500
C 	C 	0.99936 0.53089 0.46581 0.01000
C 	C 	0.97652 0.48426 0.50784 -0.05400
C 	C 	0.00102 0.48163 0.54888 0.01500
C 	C 	0.02449 0.52757 0.50538 -0.05300
C 	C 	0.02518 0.50342 0.54766 0.01100
H 	H 	0.04307 0.54401 0.50399 0.05200
H 	H 	0.95826 0.46744 0.50834 0.05400
C 	C 	0.04923 0.50081 0.59006 -0.01300
C 	C 	0.04852 0.47849 0.63553 0.00900
C 	C 	0.06474 0.48791 0.68689 -0.05700
C 	C 	0.07708 0.51776 0.68239 0.01700
S 	S 	0.06815 0.53136 0.61558 -0.00100
H 	H 	0.06329 0.47589 0.72852 0.04400
C 	C 	0.00182 0.45787 0.59218 -0.01400
C 	C 	0.02484 0.45655 0.63616 0.01100
C 	C 	0.01505 0.44087 0.68796 -0.05400
C 	C 	0.98405 0.43179 0.68575 0.01100
S 	S 	0.97003 0.44214 0.61997 0.01300
H 	H 	0.02847 0.43982 0.72812 0.04400
C 	C 	0.94801 0.53828 0.38765 0.01100
C 	C 	0.94957 0.51350 0.42853 -0.01600
S 	S 	0.92952 0.48427 0.40082 0.01300
C 	C 	0.91699 0.50181 0.33913 0.01000
C 	C 	0.92893 0.53189 0.33816 -0.05500
C 	C 	0.99680 0.55651 0.42646 -0.01200
C 	C 	0.97180 0.56004 0.38680 0.00800
C 	C 	0.97898 0.57869 0.33700 -0.05500
C 	C 	0.00966 0.58871 0.33709 0.01800
S 	S 	0.02714 0.57425 0.39737 -0.00600
H 	H 	0.96394 0.58147 0.29909 0.04700
H 	H 	0.92760 0.54656 0.29941 0.04400
Zn	Zn	0.89625 0.40960 0.01301 1.22400
C 	C 	0.83836 0.44614 0.99657 0.30300
O 	O 	0.92328 0.41664 0.94495 -0.46400
O 	O 	0.85225 0.47102 0.01595 -0.42500
O 	O 	0.89729 0.46170 0.91648 -0.49500
C 	C 	0.90414 0.45153 0.10895 0.35100
O 	O 	0.88894 0.42729 0.09084 -0.45300
O 	O 	0.91714 0.47007 0.07094 -0.51300
C 	C 	0.91557 0.43703 0.90367 0.33500
O 	O 	0.93719 0.37775 0.05508 -0.32100
Zn	Zn	0.89800 0.47928 0.99505 1.16900
O 	O 	0.85510 0.42116 0.97894 -0.43200
C 	C 	0.92024 0.35437 0.04089 0.26900
O 	O 	0.89399 0.36202 0.01531 -0.36300
C 	C 	0.93799 0.03151 0.00516 -0.03500
C 	C 	0.95600 0.05802 0.00436 -0.03500
C 	C 	0.95212 0.00114 0.99802 0.00600
C 	C 	0.98498 0.99765 0.99070 -0.00600
C 	C 	0.00326 0.02457 0.98975 -0.00500
C 	C 	0.98870 0.05495 0.99647 0.00500
C 	C 	0.99960 0.96728 0.98430 0.00800
C 	C 	0.03191 0.96439 0.97204 -0.04000
C 	C 	0.03611 0.02105 0.98225 0.00700
C 	C 	0.00723 0.08172 0.99557 -0.01300
C 	C 	0.03977 0.07793 0.99017 -0.04400
C 	C 	0.05441 0.04795 0.98456 -0.00800
C 	C 	0.93406 0.97403 0.99880 -0.01400
C 	C 	0.94894 0.94405 0.99588 -0.04400
C 	C 	0.98146 0.94036 0.98944 -0.00800
C 	C 	0.99289 0.11389 0.00003 0.02600
C 	C 	0.98171 0.12954 0.94955 -0.05100
C 	C 	0.96830 0.16007 0.95366 -0.03400
C 	C 	0.96596 0.17517 0.00838 0.00400
C 	C 	0.97743 0.15958 0.05878 -0.02600
C 	C 	0.99082 0.12903 0.05461 -0.04700
C 	C 	0.08899 0.04498 0.98467 0.01200
C 	C 	0.10505 0.03631 0.03625 -0.03900
C 	C 	0.13775 0.03494 0.03724 -0.02900
C 	C 	0.10586 0.05231 0.93407 -0.04400
C 	C 	0.13860 0.05098 0.93504 -0.02800
C 	C 	0.15470 0.04223 0.98660 -0.00200
C 	C 	0.89948 0.97655 0.00101 0.02600
C 	C 	0.88382 0.97051 0.05362 -0.04800
C 	C 	0.85124 0.96898 0.05425 -0.02600
C 	C 	0.83404 0.97357 0.00227 0.00300
C 	C 	0.84970 0.98036 0.94989 -0.03400
C 	C 	0.88228 0.98183 0.94930 -0.05100
C 	C 	0.99621 0.90815 0.99067 0.01300
C 	C 	0.98886 0.88632 0.94728 -0.04600
C 	C 	0.99999 0.85498 0.95174 -0.02500
C 	C 	0.01904 0.84524 0.99918 -0.00900
C 	C 	0.02766 0.86753 0.04105 -0.02600
C 	C 	0.01561 0.89860 0.03764 -0.04100
C 	C 	0.04997 0.99086 0.97164 -0.03900
H 	H 	0.98342 0.11803 0.90720 0.04600
H 	H 	0.95996 0.17208 0.91435 0.04200
H 	H 	0.97582 0.17107 0.10116 0.04700
H 	H 	0.99952 0.11709 0.09374 0.04700
H 	H 	0.83671 0.98366 0.90940 0.04100
H 	H 	0.89423 0.98633 0.90844 0.04500
H 	H 	0.83939 0.96384 0.09493 0.04600
H 	H 	0.89696 0.96632 0.09371 0.04600
H 	H 	0.97392 0.89350 0.91084 0.04400
H 	H 	0.99329 0.83815 0.91893 0.04600
H 	H 	0.02137 0.91529 0.07141 0.04500
H 	H 	0.04348 0.86075 0.07641 0.03900
H 	H 	0.09216 0.03088 0.07563 0.04500
H 	H 	0.14992 0.02858 0.07751 0.04200
H 	H 	0.09362 0.05919 0.89416 0.04500
H 	H 	0.15143 0.05668 0.89575 0.04700
H 	H 	0.91300 0.03475 0.01205 0.04400
H 	H 	0.94434 0.08094 0.01041 0.04400
H 	H 	0.05387 0.09850 0.99099 0.04700
H 	H 	0.07472 0.98778 0.96208 0.04300
H 	H 	0.04315 0.94169 0.96195 0.04400
H 	H 	0.93506 0.92337 0.99864 0.04500
C 	C 	0.95687 0.26049 0.04140 0.09400
C 	C 	0.92709 0.26812 0.01807 0.09300
N 	N 	0.91551 0.29838 0.01944 -0.08900
C 	C 	0.93250 0.32150 0.04312 -0.01800
C 	C 	0.96214 0.31375 0.06721 0.03700
N 	N 	0.97373 0.28339 0.06578 -0.11200
N 	N 	0.96886 0.23039 0.03838 -0.11500
N 	N 	0.91033 0.24529 0.99321 -0.10600
H 	H 	0.97595 0.33177 0.08650 0.04400
C 	C 	0.95229 0.20753 0.01270 0.05200
C 	C 	0.92230 0.21513 0.99019 -0.00400
H 	H 	0.90864 0.19712 0.97045 0.04000
C 	C 	0.93138 0.43502 0.84576 -0.12900
C 	C 	0.94453 0.40603 0.82453 0.16900
C 	C 	0.95995 0.40503 0.77009 -0.10600
C 	C 	0.96417 0.43276 0.73850 0.00100
C 	C 	0.95124 0.46169 0.75972 0.09100
C 	C 	0.93397 0.46244 0.81199 -0.02500
H 	H 	0.96922 0.38267 0.75309 0.06900
H 	H 	0.92330 0.48463 0.82697 0.04000
O 	O 	0.93956 0.37824 0.85399 -0.19200
O 	O 	0.95281 0.48874 0.72628 -0.18900
C 	C 	0.96719 0.36864 0.88425 -0.02300
H 	H 	0.98568 0.35997 0.85310 0.04000
H 	H 	0.96188 0.34877 0.91365 0.05500
H 	H 	0.97615 0.38769 0.91234 0.04700
C 	C 	0.97638 0.50735 0.74918 -0.02300
H 	H 	0.96912 0.51784 0.79205 0.03100
H 	H 	0.97989 0.52703 0.71827 0.04400
H 	H 	0.99928 0.49405 0.75372 0.03700
C 	C 	0.90539 0.45894 0.17165 -0.13300
C 	C 	0.87987 0.47510 0.19902 0.16900
C 	C 	0.88353 0.48794 0.25512 -0.10800
C 	C 	0.91221 0.48414 0.28460 0.00200
C 	C 	0.93742 0.46694 0.25786 0.09000
C 	C 	0.93344 0.45349 0.20237 -0.01800
H 	H 	0.86434 0.50174 0.27488 0.06800
H 	H 	0.95277 0.44015 0.18204 0.04900
O 	O 	0.85254 0.48171 0.16816 -0.20500
O 	O 	0.96536 0.46165 0.28758 -0.18500
C 	C 	0.83120 0.45843 0.18151 -0.02400
H 	H 	0.84059 0.43444 0.16937 0.05700
H 	H 	0.80962 0.46324 0.15542 0.05800
H 	H 	0.82439 0.45921 0.22867 0.04200
C 	C 	0.98716 0.48299 0.26698 -0.02600
H 	H 	0.99518 0.47654 0.22196 0.03800
H 	H 	0.00795 0.48150 0.29609 0.04800
H 	H 	0.97785 0.50790 0.26796 0.03700
C 	C 	0.04460 0.74831 0.01574 0.09200
C 	C 	0.04336 0.76284 0.96038 0.09000
N 	N 	0.03620 0.79421 0.95622 -0.11900
C 	C 	0.02950 0.81168 0.00515 0.05700
C 	C 	0.03025 0.79690 0.06048 -0.00100
N 	N 	0.03812 0.76561 0.06463 -0.10600
N 	N 	0.05063 0.71675 0.01977 -0.08900
N 	N 	0.04781 0.74514 0.91122 -0.11400
H 	H 	0.02375 0.81001 0.09967 0.04000
C 	C 	0.05471 0.69893 0.97056 -0.03800
C 	C 	0.05322 0.71341 0.91520 0.04400
H 	H 	0.05635 0.69949 0.87567 0.03300
C 	C 	0.07408 0.57125 0.84091 -0.13200
C 	C 	0.04809 0.57220 0.80297 0.17400
C 	C 	0.04973 0.55568 0.74992 -0.11000
C 	C 	0.07737 0.53887 0.73352 -0.00000
C 	C 	0.10403 0.53962 0.76965 0.09200
C 	C 	0.10248 0.55662 0.82250 -0.01800
H 	H 	0.02924 0.55536 0.72208 0.06500
H 	H 	0.12300 0.55720 0.85029 0.05800
O 	O 	0.02017 0.58719 0.81994 -0.22700
O 	O 	0.13230 0.52604 0.75097 -0.18400
C 	C 	0.01978 0.61855 0.79963 -0.02100
H 	H 	0.03919 0.63171 0.81898 0.04300
H 	H 	0.99750 0.63068 0.81375 0.03200
H 	H 	0.02058 0.61958 0.75083 0.03900
C 	C 	0.13687 0.49632 0.77802 -0.02800
H 	H 	0.13940 0.49862 0.82641 0.04500
H 	H 	0.15898 0.48501 0.76113 0.05000
H 	H 	0.11777 0.48039 0.76733 0.04000
C 	C 	0.02677 0.59367 0.28220 -0.00500
C 	C 	0.02695 0.62394 0.25727 0.09400
C 	C 	0.03658 0.62755 0.19896 -0.02300
C 	C 	0.04687 0.60124 0.16585 -0.12600
C 	C 	0.04797 0.57107 0.19174 0.16700
C 	C 	0.03879 0.56759 0.25034 -0.10400
H 	H 	0.03543 0.65076 0.17913 0.05800
H 	H 	0.03920 0.54429 0.26981 0.06600
O 	O 	0.01469 0.64971 0.28791 -0.18800
O 	O 	0.05905 0.54504 0.16036 -0.19900
C 	C 	0.03927 0.66339 0.31847 -0.02700
H 	H 	0.05031 0.64669 0.35088 0.04400
H 	H 	0.02944 0.68398 0.34337 0.04800
H 	H 	0.05718 0.67217 0.28780 0.04400
C 	C 	0.03339 0.53076 0.13428 -0.01100
H 	H 	0.01665 0.52265 0.16784 0.02700
H 	H 	0.04229 0.50965 0.10974 0.03700
H 	H 	0.02111 0.54678 0.10223 0.00500
C 	C 	0.75743 0.93747 0.02189 0.10000
C 	C 	0.73675 0.96069 0.99795 0.08100
N 	N 	0.70567 0.95568 0.99520 -0.09400
C 	C 	0.69428 0.92830 0.01547 -0.03100
C 	C 	0.71503 0.90516 0.03985 0.04400
N 	N 	0.74617 0.91023 0.04249 -0.11400
N 	N 	0.78859 0.94221 0.02355 -0.11600
N 	N 	0.74802 0.98788 0.97711 -0.10600
H 	H 	0.70648 0.88330 0.05644 0.04300
C 	C 	0.80002 0.96929 0.00202 0.05300
C 	C 	0.77923 0.99269 0.97878 -0.00500
H 	H 	0.78789 0.01451 0.96217 0.03900
C 	C 	0.58551 0.95300 0.72397 -0.00300
C 	C 	0.61538 0.94760 0.74883 0.09300
C 	C 	0.61823 0.93422 0.80494 -0.02300
C 	C 	0.59154 0.92544 0.83552 -0.13200
C 	C 	0.56213 0.92756 0.80770 0.17100
C 	C 	0.55915 0.94185 0.75250 -0.10600
H 	H 	0.64100 0.93223 0.82583 0.05600
H 	H 	0.53615 0.94550 0.73303 0.07000
O 	O 	0.64147 0.95862 0.72123 -0.18800
O 	O 	0.53571 0.91859 0.83704 -0.20500
C 	C 	0.65489 0.93417 0.68629 -0.02700
H 	H 	0.66308 0.91363 0.71352 0.04300
H 	H 	0.67567 0.94306 0.66365 0.04700
H 	H 	0.63839 0.92671 0.65175 0.04200
C 	C 	0.53095 0.88681 0.82344 -0.02400
H 	H 	0.52657 0.88360 0.77570 0.03900
H 	H 	0.50983 0.87952 0.84718 0.04700
H 	H 	0.55095 0.87106 0.83828 0.05100
C 	C 	0.57249 0.90538 0.16439 -0.12900
C 	C 	0.58383 0.92273 0.21199 0.16600
C 	C 	0.56643 0.92525 0.26399 -0.10600
C 	C 	0.53903 0.90862 0.27070 -0.00500
C 	C 	0.52993 0.88819 0.22584 0.09300
C 	C 	0.54616 0.88730 0.17238 -0.02800
H 	H 	0.57387 0.94080 0.29836 0.06800
H 	H 	0.53765 0.87326 0.13664 0.05800
O 	O 	0.61064 0.93939 0.20611 -0.19800
O 	O 	0.50332 0.87129 0.23212 -0.19200
C 	C 	0.63642 0.91988 0.22422 -0.02200
H 	H 	0.63448 0.91325 0.27132 0.03900
H 	H 	0.65796 0.93320 0.21933 0.04900
H 	H 	0.63933 0.89846 0.19625 0.04600
C 	C 	0.51211 0.84144 0.25548 -0.02600
H 	H 	0.52810 0.82781 0.22523 0.04300
H 	H 	0.49075 0.82790 0.26082 0.04700
H 	H 	0.52295 0.84344 0.29966 0.04200
C 	C 	0.25345 0.04014 0.99316 0.08300
C 	C 	0.23641 0.06707 0.97310 0.09500
N 	N 	0.20467 0.06721 0.97078 -0.11500
C 	C 	0.18920 0.04145 0.98792 0.04400
C 	C 	0.20634 0.01437 0.00724 0.00600
N 	N 	0.23812 0.01429 0.00960 -0.10500
N 	N 	0.28513 0.04019 0.99651 -0.09400
N 	N 	0.25176 0.09294 0.95685 -0.11200
H 	H 	0.19443 0.99354 0.02021 0.03900
C 	C 	0.30064 0.06612 0.98048 -0.03100
C 	C 	0.28353 0.09303 0.96007 0.04400
H 	H 	0.29538 0.11392 0.94724 0.04600
C 	C 	0.46493 0.06548 0.73393 -0.00000
C 	C 	0.46349 0.03837 0.76952 0.08900
C 	C 	0.44653 0.03988 0.82208 -0.02000
C 	C 	0.43019 0.06782 0.83878 -0.13400
C 	C 	0.43132 0.09481 0.80293 0.17300
C 	C 	0.44777 0.09310 0.74958 -0.10700
H 	H 	0.44643 0.01934 0.85028 0.02900
H 	H 	0.44788 0.11358 0.72122 0.06900
O 	O 	0.48129 0.01134 0.75598 -0.19300
O 	O 	0.41396 0.12198 0.81736 -0.19800
C 	C 	0.46233 0.99045 0.72583 -0.02400
H 	H 	0.44360 0.98187 0.75485 0.03700
H 	H 	0.47717 0.96965 0.71205 0.04300
H 	H 	0.45198 0.00123 0.68534 0.04200
C 	C 	0.43414 0.14380 0.84186 -0.02700
H 	H 	0.44839 0.13361 0.87873 0.05400
H 	H 	0.41968 0.16389 0.85989 0.05600
H 	H 	0.44969 0.15332 0.80766 0.04200
C 	C 	0.41403 0.02928 0.27611 -0.00400
C 	C 	0.38406 0.02899 0.25076 0.09300
C 	C 	0.37911 0.04138 0.19435 -0.02300
C 	C 	0.40362 0.05489 0.16399 -0.13100
C 	C 	0.43243 0.05864 0.19230 0.17000
C 	C 	0.43775 0.04526 0.24784 -0.10600
H 	H 	0.35670 0.03895 0.17306 0.05200
H 	H 	0.46074 0.04598 0.26758 0.06800
O 	O 	0.36054 0.01333 0.27821 -0.18800
O 	O 	0.45660 0.07238 0.16307 -0.20600
C 	C 	0.34306 0.03515 0.31312 -0.02700
H 	H 	0.35777 0.04538 0.34793 0.04300
H 	H 	0.32424 0.02260 0.33544 0.04800
H 	H 	0.33156 0.05417 0.28594 0.04400
C 	C 	0.45524 0.10484 0.17615 -0.02400
H 	H 	0.43271 0.11655 0.16163 0.05100
H 	H 	0.47425 0.11604 0.15182 0.05000
H 	H 	0.45914 0.10905 0.22375 0.04000
C 	C 	0.41554 0.24002 0.99656 0.08300
C 	C 	0.44188 0.24791 0.02924 0.09900
N 	N 	0.45146 0.27795 0.02827 -0.11300
C 	C 	0.43590 0.30041 0.99537 0.04500
C 	C 	0.40955 0.29242 0.96272 0.00100
N 	N 	0.39992 0.26239 0.96397 -0.10500
N 	N 	0.40598 0.21001 0.99745 -0.09400
N 	N 	0.45762 0.22545 0.06149 -0.11300
H 	H 	0.39661 0.31012 0.93717 0.04000
C 	C 	0.42188 0.18736 0.02928 -0.01600
C 	C 	0.44819 0.19530 0.06209 0.03700
H 	H 	0.46098 0.17764 0.08799 0.03900
C 	C 	0.24965 0.56049 0.01686 0.10000
C 	C 	0.22827 0.54022 0.99202 0.08400
N 	N 	0.19718 0.54820 0.99329 -0.09400
C 	C 	0.18651 0.57582 0.01803 -0.01300
C 	C 	0.20793 0.59602 0.04307 0.04000
N 	N 	0.23907 0.58791 0.04201 -0.11100
N 	N 	0.28076 0.55256 0.01540 -0.11300
N 	N 	0.23885 0.51288 0.96659 -0.10500
H 	H 	0.19985 0.61796 0.06332 0.04700
C 	C 	0.29145 0.52522 0.98966 0.04500
C 	C 	0.27001 0.50495 0.96494 0.00100
H 	H 	0.27811 0.48289 0.94512 0.04000
C 	C 	0.73972 0.44707 0.99267 0.09000
C 	C 	0.75533 0.46839 0.02798 0.09000
N 	N 	0.78707 0.46758 0.02873 -0.09100
C 	C 	0.80400 0.44611 0.99596 -0.03700
C 	C 	0.78834 0.42450 0.96121 0.04400
N 	N 	0.75651 0.42550 0.96016 -0.11300
N 	N 	0.70797 0.44878 0.98995 -0.11700
N 	N 	0.73859 0.49021 0.05994 -0.10800
H 	H 	0.80139 0.40735 0.93462 0.04600
C 	C 	0.69111 0.47086 0.02153 0.04900
C 	C 	0.70680 0.49189 0.05747 0.00100
H 	H 	0.69379 0.50994 0.08203 0.03900
C 	C 	0.55502 0.74865 0.95590 0.08700
C 	C 	0.57697 0.72629 0.97876 0.09400
N 	N 	0.56962 0.69563 0.98285 -0.11600
C 	C 	0.54123 0.68628 0.96449 0.04800
C 	C 	0.51939 0.70862 0.94110 -0.00000
N 	N 	0.52670 0.73938 0.93739 -0.10600
N 	N 	0.56203 0.77948 0.95345 -0.09400
N 	N 	0.60525 0.73552 0.99734 -0.11300
H 	H 	0.49667 0.70157 0.92654 0.03900
C 	C 	0.59023 0.78890 0.97283 -0.01800
C 	C 	0.61238 0.76634 0.99466 0.03300
H 	H 	0.63499 0.77332 0.00994 0.05000
