data_crystal

_cell_length_a 18.52522
_cell_length_b 18.80050
_cell_length_c 39.86161
_cell_angle_alpha 95.43781
_cell_angle_beta  95.43788
_cell_angle_gamma 126.43001

_symmetry_space_group_name_	'P 1'
_symmetry_space_group_name_H-M	'P 1'

loop_
_symmetry_equiv_pos_as_xyz
  x,y,z

loop_
_atom_site_label
_atom_site_type_symbol
_atom_site_fract_x
_atom_site_fract_y
_atom_site_fract_z
_atom_site_charge
C 	C 	0.90235 0.99730 0.96894 0.17300
N 	N 	0.99262 0.04979 0.96761 -0.14000
C 	C 	0.03785 0.01381 0.96677 0.14600
N 	N 	0.99318 0.92534 0.96764 -0.12500
C 	C 	0.90297 0.87217 0.96891 0.15300
N 	N 	0.85713 0.90810 0.96964 -0.12400
C 	C 	0.95363 0.03601 0.50170 0.13800
N 	N 	0.89893 0.94673 0.50252 -0.11600
C 	C 	0.93400 0.90071 0.50246 0.15200
N 	N 	0.02397 0.94415 0.50226 -0.11500
C 	C 	0.07917 0.03351 0.50195 0.14300
N 	N 	0.04393 0.07955 0.50132 -0.12300
Cu	Cu	0.75495 0.34379 0.96498 0.92900
Cu	Cu	0.74397 0.28500 0.04031 0.88700
Cu	Cu	0.60555 0.29720 0.00589 0.90100
Cu	Cu	0.58189 0.32837 0.93489 0.90200
C 	C 	0.69124 0.30336 0.89189 0.29200
O 	O 	0.80491 0.47318 0.96168 -0.33700
C 	C 	0.66059 0.33720 0.08207 0.28700
O 	O 	0.61193 0.26621 0.95962 -0.63900
O 	O 	0.74036 0.36248 0.01283 -0.63900
O 	O 	0.81904 0.28835 0.97217 -0.35600
O 	O 	0.71949 0.19560 0.00453 -0.41800
O 	O 	0.65053 0.34084 0.89736 -0.36300
O 	O 	0.47405 0.22520 0.99663 -0.36700
C 	C 	0.42390 0.22644 0.97117 0.31600
C 	C 	0.75998 0.50472 0.96957 0.29800
O 	O 	0.67492 0.44912 0.97332 -0.38200
O 	O 	0.45965 0.27459 0.94712 -0.38000
O 	O 	0.74588 0.30716 0.91714 -0.35200
C 	C 	0.78101 0.21526 0.98566 0.30600
O 	O 	0.59801 0.31280 0.05495 -0.36500
O 	O 	0.73561 0.34613 0.07881 -0.40200
H 	H 	0.57473 0.20072 0.95068 0.17100
H 	H 	0.77624 0.42601 0.02461 0.18200
Cu	Cu	0.62156 0.20270 0.50607 0.93100
Cu	Cu	0.68602 0.21241 0.43179 0.87700
Cu	Cu	0.66273 0.34473 0.46311 0.90300
Cu	Cu	0.62270 0.36569 0.53303 0.90500
C 	C 	0.65512 0.26637 0.57856 0.30900
O 	O 	0.48888 0.14691 0.50799 -0.35300
C 	C 	0.62569 0.28502 0.38750 0.31200
O 	O 	0.69312 0.34249 0.51025 -0.63700
O 	O 	0.60336 0.21329 0.45763 -0.63900
O 	O 	0.68117 0.14322 0.50086 -0.35200
O 	O 	0.77668 0.24097 0.46880 -0.42800
O 	O 	0.61242 0.30130 0.57159 -0.37100
O 	O 	0.72808 0.47362 0.47127 -0.37000
C 	C 	0.72785 0.52131 0.49777 0.31400
C 	C 	0.45191 0.18469 0.49734 0.30400
O 	O 	0.50466 0.26869 0.49349 -0.37600
O 	O 	0.67026 0.48267 0.51895 -0.36700
O 	O 	0.65775 0.21543 0.55430 -0.33900
C 	C 	0.75757 0.18294 0.48891 0.31100
O 	O 	0.65145 0.34929 0.41363 -0.37000
O 	O 	0.62285 0.21488 0.39182 -0.40600
H 	H 	0.75937 0.38248 0.51999 0.18200
H 	H 	0.53911 0.17457 0.44530 0.19100
C 	C 	0.69446 0.27855 0.85615 -0.07300
C 	C 	0.61594 0.23513 0.83061 0.01900
C 	C 	0.62152 0.22438 0.79600 -0.05800
C 	C 	0.70567 0.25684 0.78656 0.03300
C 	C 	0.78335 0.29616 0.81213 -0.05700
C 	C 	0.77778 0.30689 0.84680 0.02500
C 	C 	0.71381 0.25693 0.75004 0.00900
C 	C 	0.66028 0.17573 0.72608 -0.03400
C 	C 	0.65675 0.17682 0.69092 -0.02500
C 	C 	0.70696 0.25899 0.67950 0.00500
C 	C 	0.76421 0.33984 0.70343 -0.02500
C 	C 	0.76769 0.33888 0.73858 -0.03300
C 	C 	0.69144 0.26095 0.64358 0.05800
C 	C 	0.67617 0.26318 0.61375 -0.07800
H 	H 	0.55110 0.21209 0.83752 0.03300
H 	H 	0.56109 0.19366 0.77649 0.05700
H 	H 	0.84847 0.32069 0.80512 0.06000
H 	H 	0.83890 0.34044 0.86624 0.05300
H 	H 	0.61914 0.11205 0.73464 0.05100
H 	H 	0.61265 0.11398 0.67258 0.05500
H 	H 	0.80347 0.40362 0.69481 0.05400
H 	H 	0.80937 0.40194 0.75683 0.05500
C 	C 	0.64394 0.35011 0.11689 -0.07500
C 	C 	0.71778 0.40332 0.14466 0.01600
C 	C 	0.70221 0.40264 0.17830 -0.05800
C 	C 	0.61266 0.34948 0.18457 0.02900
C 	C 	0.53869 0.30136 0.15680 -0.05600
C 	C 	0.55421 0.30161 0.12310 0.01600
C 	C 	0.59685 0.33673 0.21992 0.00800
C 	C 	0.55210 0.25063 0.22813 -0.03500
C 	C 	0.54900 0.24004 0.26234 -0.02700
C 	C 	0.59075 0.31533 0.28861 -0.00000
C 	C 	0.63165 0.40082 0.28038 -0.02600
C 	C 	0.63444 0.41151 0.24613 -0.03400
C 	C 	0.60067 0.30608 0.32391 0.05500
C 	C 	0.61094 0.29711 0.35314 -0.09300
H 	H 	0.78732 0.44294 0.14025 0.04400
H 	H 	0.75983 0.44066 0.19953 0.05500
H 	H 	0.46926 0.26129 0.16134 0.05800
H 	H 	0.49650 0.26107 0.10197 0.05700
H 	H 	0.52285 0.19243 0.20815 0.04700
H 	H 	0.51702 0.17370 0.26849 0.04900
H 	H 	0.66374 0.45932 0.30054 0.05400
H 	H 	0.66825 0.47813 0.24008 0.05200
C 	C 	0.76319 0.65023 0.47144 -0.01600
C 	C 	0.77876 0.61840 0.49952 -0.09100
C 	C 	0.84194 0.67972 0.52928 0.14000
C 	C 	0.88933 0.77204 0.53056 -0.06300
C 	C 	0.87486 0.80394 0.50228 -0.01700
C 	C 	0.81103 0.74260 0.47264 0.09900
Br	Br	0.79118 0.78378 0.43301 -0.18900
H 	H 	0.71408 0.60312 0.44858 0.07200
H 	H 	0.93921 0.81924 0.55326 0.08900
Br	Br	0.86833 0.63899 0.56766 -0.23600
C 	C 	0.83285 0.12305 0.46342 -0.01800
C 	C 	0.81303 0.15080 0.49278 -0.10000
C 	C 	0.84696 0.14811 0.52544 0.14300
C 	C 	0.89643 0.11386 0.52822 -0.06700
C 	C 	0.91361 0.08352 0.49875 -0.01500
C 	C 	0.88289 0.08957 0.46627 0.09700
Br	Br	0.90665 0.05019 0.42542 -0.20800
H 	H 	0.80797 0.12604 0.43827 0.04300
H 	H 	0.92059 0.10983 0.55330 0.08100
Br	Br	0.83023 0.19445 0.56655 -0.21400
C 	C 	0.20989 0.10464 0.47159 -0.06400
C 	C 	0.17654 0.07959 0.50188 -0.01700
C 	C 	0.23314 0.08632 0.53022 0.09900
C 	C 	0.32152 0.11617 0.52782 -0.02200
C 	C 	0.35488 0.14095 0.49750 -0.09400
C 	C 	0.29846 0.13472 0.46919 0.13900
Br	Br	0.33952 0.16258 0.42650 -0.23400
H 	H 	0.16595 0.09799 0.44951 0.08700
H 	H 	0.36530 0.12266 0.54991 0.07000
Br	Br	0.19165 0.05741 0.57278 -0.21300
C 	C 	0.84862 0.72259 0.93870 -0.06100
C 	C 	0.85489 0.77515 0.96796 -0.01700
C 	C 	0.83191 0.73909 0.99802 0.10000
C 	C 	0.80443 0.65187 0.99869 -0.02100
C 	C 	0.80022 0.60008 0.96965 -0.09000
C 	C 	0.82173 0.63569 0.93939 0.13600
Br	Br	0.81281 0.56629 0.89838 -0.21400
H 	H 	0.86709 0.75029 0.91560 0.09000
H 	H 	0.78599 0.62421 0.02179 0.06200
Br	Br	0.84009 0.80876 0.03872 -0.20700
C 	C 	0.86006 0.07592 0.00567 -0.06000
C 	C 	0.85642 0.03929 0.97268 -0.03300
C 	C 	0.82726 0.06021 0.94386 0.10300
C 	C 	0.80455 0.11921 0.94829 -0.02000
C 	C 	0.81086 0.15796 0.98136 -0.09400
C 	C 	0.83924 0.13625 0.01020 0.13900
Br	Br	0.85797 0.19425 0.05597 -0.28500
H 	H 	0.88413 0.06146 0.02794 0.08000
H 	H 	0.78155 0.13449 0.92601 0.06700
Br	Br	0.81916 0.00960 0.89825 -0.21100
C 	C 	0.26480 0.10891 0.94072 -0.01600
C 	C 	0.32529 0.17431 0.96989 -0.09600
C 	C 	0.29081 0.19016 0.99728 0.14200
C 	C 	0.19647 0.13853 0.99567 -0.06500
C 	C 	0.13611 0.07148 0.96689 -0.01700
C 	C 	0.17051 0.05760 0.93907 0.08900
Br	Br	0.08974 0.97089 0.89818 -0.18200
H 	H 	0.29114 0.09764 0.91937 0.05700
H 	H 	0.17003 0.14995 0.01695 0.08000
Br	Br	0.37115 0.28427 0.03646 -0.22100
