data_crystal

_cell_length_a 35.04359
_cell_length_b 30.49438
_cell_length_c 31.89959
_cell_angle_alpha 103.71819
_cell_angle_beta  115.76939
_cell_angle_gamma 112.05998

_symmetry_space_group_name_	'P 1'
_symmetry_space_group_name_H-M	'P 1'

loop_
_symmetry_equiv_pos_as_xyz
  x,y,z

loop_
_atom_site_label
_atom_site_type_symbol
_atom_site_fract_x
_atom_site_fract_y
_atom_site_fract_z
_atom_site_charge
Zn	Zn	0.01127 0.94988 0.49041 1.18800
O 	O 	0.01354 0.01020 0.37069 -0.90100
Zn	Zn	0.01185 0.04760 0.52636 1.19400
Zn	Zn	0.01235 0.00382 0.92711 1.21000
Zn	Zn	0.01652 0.94448 0.83777 1.18200
O 	O 	0.02155 0.03341 0.79737 -0.45500
C 	C 	0.01829 0.01200 0.09377 0.32100
O 	O 	0.01432 0.97065 0.06242 -0.43900
O 	O 	0.01828 0.05080 0.08235 -0.48000
O 	O 	0.03472 0.06096 0.31296 -0.44900
Zn	Zn	0.03107 0.01790 0.43935 1.21100
C 	C 	0.03182 0.00304 0.59832 0.30400
Zn	Zn	0.03226 0.96617 0.34463 1.18300
C 	C 	0.03122 0.99656 0.64224 -0.10000
C 	C 	0.02446 0.01570 0.14327 -0.11400
O 	O 	0.03499 0.96907 0.56748 -0.43800
O 	O 	0.03307 0.04504 0.59303 -0.47400
O 	O 	0.02781 0.01693 0.99610 -0.90200
C 	C 	0.03325 0.00133 0.77830 0.30500
C 	C 	0.03288 0.99708 0.73128 -0.10800
C 	C 	0.03733 0.02484 0.23900 -0.11600
C 	C 	0.04286 0.02820 0.28833 0.31200
Zn	Zn	0.04277 0.06286 0.87321 1.19100
O 	O 	0.04313 0.97131 0.79934 -0.47400
O 	O 	0.04228 0.91424 0.87955 -0.50400
O 	O 	0.04736 0.02498 0.50754 -0.89800
O 	O 	0.05665 0.99902 0.30773 -0.47200
O 	O 	0.05519 0.07685 0.94536 -0.78900
Zn	Zn	0.05946 0.08458 0.38995 1.19500
O 	O 	0.06162 0.93518 0.38220 -0.50900
H 	H 	0.06433 0.03709 0.02503 0.15500
H 	H 	0.06457 0.84963 0.91972 0.01500
C 	C 	0.06858 0.02373 0.18412 -0.03500
O 	O 	0.07307 0.09285 0.46168 -0.78300
C 	C 	0.07512 0.02787 0.23192 0.08400
C 	C 	0.07683 0.94581 0.93073 0.32600
C 	C 	0.07680 0.01555 0.68964 -0.03800
O 	O 	0.99659 0.99031 0.85763 -0.85600
Zn	Zn	0.99311 0.04331 0.01160 1.20100
N 	N 	0.57825 0.21236 0.85250 -0.13700
C 	C 	0.56012 0.24199 0.86460 0.13800
N 	N 	0.58164 0.29369 0.87329 -0.13900
C 	C 	0.62142 0.31580 0.87038 0.14100
N 	N 	0.63976 0.28628 0.85896 -0.13900
C 	C 	0.61845 0.23471 0.85029 0.14000
C 	C 	0.44428 0.18285 0.89147 -0.00300
C 	C 	0.44347 0.21128 0.86246 -0.04400
C 	C 	0.48060 0.22937 0.85268 -0.01300
C 	C 	0.51937 0.21936 0.87162 -0.04300
C 	C 	0.51953 0.18976 0.89917 0.06200
C 	C 	0.48154 0.17117 0.90892 0.03500
H 	H 	0.41465 0.22036 0.84830 0.04400
H 	H 	0.47940 0.25166 0.83076 0.04400
N 	N 	0.55768 0.18199 0.92321 -0.11000
N 	N 	0.48789 0.14761 0.94071 -0.11100
C 	C 	0.69077 0.15187 0.83042 -0.00100
C 	C 	0.71825 0.20162 0.87531 0.03400
C 	C 	0.69404 0.22867 0.88246 0.06400
C 	C 	0.64258 0.20553 0.84474 -0.04300
C 	C 	0.61485 0.15495 0.79992 -0.01100
C 	C 	0.63875 0.12840 0.79278 -0.04500
N 	N 	0.76760 0.22545 0.91614 -0.10900
N 	N 	0.72315 0.27509 0.92930 -0.11200
C 	C 	0.70142 0.47913 0.89958 -0.00200
C 	C 	0.72680 0.46005 0.93011 -0.04500
C 	C 	0.70010 0.40751 0.92222 -0.01000
C 	C 	0.64734 0.37290 0.88380 -0.04400
C 	C 	0.62136 0.39250 0.85537 0.06300
C 	C 	0.64870 0.44612 0.86323 0.03400
H 	H 	0.76753 0.48536 0.95900 0.04600
H 	H 	0.72077 0.39327 0.94515 0.04600
N 	N 	0.57143 0.36051 0.81354 -0.11300
N 	N 	0.62141 0.45855 0.82795 -0.11000
S 	S 	0.54024 0.15215 0.95379 0.09500
S 	S 	0.77647 0.27818 0.95733 0.09800
S 	S 	0.56582 0.40194 0.79054 0.09500
H 	H 	0.57495 0.13643 0.77017 0.04100
H 	H 	0.61679 0.08978 0.75781 0.04400
N 	N 	0.63185 0.25808 0.42980 -0.13800
C 	C 	0.61357 0.28682 0.44331 0.13800
N 	N 	0.63250 0.33783 0.45009 -0.13900
C 	C 	0.67001 0.36022 0.44399 0.14000
N 	N 	0.68862 0.33165 0.43124 -0.13900
C 	C 	0.66968 0.28067 0.42422 0.14000
C 	C 	0.49573 0.21753 0.46541 -0.00300
C 	C 	0.49401 0.24677 0.43718 -0.04600
C 	C 	0.53245 0.26920 0.42997 -0.01300
C 	C 	0.57347 0.26283 0.45079 -0.04400
C 	C 	0.57517 0.23335 0.47846 0.06200
C 	C 	0.53588 0.21041 0.48567 0.03400
H 	H 	0.46286 0.25223 0.42076 0.04300
H 	H 	0.53010 0.29137 0.40795 0.04300
N 	N 	0.61573 0.22974 0.50499 -0.11000
N 	N 	0.54365 0.18759 0.51804 -0.11100
C 	C 	0.73502 0.19499 0.38923 -0.00100
C 	C 	0.76591 0.24638 0.43310 0.03400
C 	C 	0.74421 0.27471 0.44510 0.06400
C 	C 	0.69191 0.25110 0.41327 -0.04400
C 	C 	0.66097 0.19922 0.36919 -0.01100
C 	C 	0.68232 0.17148 0.35723 -0.04600
N 	N 	0.81647 0.27005 0.46970 -0.10900
N 	N 	0.77669 0.32200 0.49170 -0.11200
C 	C 	0.73595 0.51543 0.45236 -0.00300
C 	C 	0.76614 0.50240 0.48648 -0.04500
C 	C 	0.74406 0.45304 0.48630 -0.01100
C 	C 	0.69127 0.41564 0.45211 -0.04500
C 	C 	0.66067 0.42993 0.42095 0.06200
C 	C 	0.68329 0.48036 0.42102 0.03400
H 	H 	0.80698 0.52950 0.51159 0.04600
H 	H 	0.76831 0.44300 0.51133 0.04500
N 	N 	0.60991 0.39449 0.38270 -0.11400
N 	N 	0.65125 0.48669 0.38290 -0.11100
S 	S 	0.59867 0.19794 0.53455 0.09500
S 	S 	0.82947 0.32424 0.51346 0.09800
S 	S 	0.59779 0.42928 0.35292 0.08800
H 	H 	0.62037 0.18043 0.34384 0.04000
H 	H 	0.65778 0.13168 0.32308 0.04400
N 	N 	0.45328 0.80034 0.01093 -0.14200
C 	C 	0.46828 0.76873 0.99494 0.14000
N 	N 	0.44465 0.71641 0.98411 -0.13800
C 	C 	0.40604 0.69575 0.98909 0.14400
N 	N 	0.39053 0.72724 0.00395 -0.14300
C 	C 	0.41409 0.77955 0.01496 0.13900
C 	C 	0.59047 0.83481 0.97779 -0.01200
C 	C 	0.58637 0.79973 0.99981 -0.02300
C 	C 	0.54631 0.77799 0.00502 -0.03300
C 	C 	0.50945 0.79089 0.98837 -0.03200
C 	C 	0.51333 0.82572 0.96644 0.05800
C 	C 	0.55427 0.84803 0.96143 0.04000
H 	H 	0.61408 0.78903 0.01277 0.03500
H 	H 	0.54430 0.75142 0.02242 0.04800
N 	N 	0.47819 0.83833 0.94619 -0.11100
N 	N 	0.55347 0.87957 0.93742 -0.11100
C 	C 	0.33683 0.85821 0.02761 -0.00600
C 	C 	0.34645 0.83166 0.05723 0.03400
C 	C 	0.37499 0.80829 0.05594 0.06300
C 	C 	0.39313 0.81150 0.02463 -0.04900
C 	C 	0.38608 0.84148 0.99776 -0.00600
C 	C 	0.35821 0.86450 0.99919 -0.04000
N 	N 	0.32526 0.82092 0.08368 -0.11200
N 	N 	0.37785 0.77845 0.08170 -0.11100
C 	C 	0.32749 0.53207 0.96099 -0.00500
C 	C 	0.30067 0.55525 0.94093 -0.04400
C 	C 	0.32626 0.60784 0.94834 -0.01000
C 	C 	0.37938 0.63863 0.97615 -0.04500
C 	C 	0.40611 0.61504 0.99423 0.06700
C 	C 	0.37990 0.56124 0.98640 0.03900
H 	H 	0.26002 0.53313 0.92076 0.04400
H 	H 	0.30471 0.62494 0.93322 0.04300
N 	N 	0.45771 0.64259 0.02510 -0.11600
N 	N 	0.40973 0.54401 0.01045 -0.11500
S 	S 	0.50168 0.87653 0.92444 0.09500
S 	S 	0.34454 0.78388 0.10356 0.09000
S 	S 	0.46590 0.59728 0.03923 0.08600
H 	H 	0.40024 0.84503 0.97375 0.04700
H 	H 	0.35167 0.88553 0.97650 0.04700
N 	N 	0.47833 0.81605 0.52818 -0.13800
C 	C 	0.50341 0.79108 0.52862 0.13800
N 	N 	0.48728 0.74369 0.53003 -0.14000
C 	C 	0.44710 0.72214 0.53250 0.13900
N 	N 	0.42317 0.74805 0.53364 -0.13700
C 	C 	0.43800 0.79441 0.53041 0.13800
C 	C 	0.62671 0.85674 0.51287 -0.00300
C 	C 	0.58862 0.80120 0.48271 -0.04500
C 	C 	0.54885 0.77988 0.48841 -0.01200
C 	C 	0.54610 0.81364 0.52429 -0.04400
C 	C 	0.58389 0.86881 0.55449 0.06100
C 	C 	0.62438 0.89048 0.54866 0.03400
H 	H 	0.58971 0.77437 0.45475 0.04500
H 	H 	0.51987 0.73712 0.46436 0.04500
N 	N 	0.58656 0.90448 0.59252 -0.11300
N 	N 	0.66056 0.94424 0.58157 -0.11100
C 	C 	0.35185 0.86825 0.51641 -0.00200
C 	C 	0.32712 0.81213 0.49175 0.03400
C 	C 	0.35552 0.78747 0.49620 0.06200
C 	C 	0.40846 0.81935 0.52603 -0.04300
C 	C 	0.43316 0.87597 0.55190 -0.01200
C 	C 	0.40514 0.90013 0.54712 -0.04400
N 	N 	0.27568 0.77788 0.45812 -0.11200
N 	N 	0.32765 0.73272 0.46591 -0.11000
C 	C 	0.37128 0.56335 0.51519 -0.00200
C 	C 	0.39120 0.60960 0.56058 -0.04500
C 	C 	0.41844 0.66166 0.56756 -0.01100
C 	C 	0.42684 0.66873 0.52961 -0.04400
C 	C 	0.40953 0.62320 0.48580 0.06300
C 	C 	0.38131 0.57000 0.47841 0.03400
H 	H 	0.38453 0.60531 0.58992 0.04600
H 	H 	0.43183 0.69644 0.60192 0.04100
N 	N 	0.41057 0.62527 0.44399 -0.11200
N 	N 	0.35906 0.52810 0.43053 -0.11300
S 	S 	0.63887 0.95977 0.61504 0.09300
S 	S 	0.27032 0.72009 0.43695 0.08900
S 	S 	0.37678 0.56095 0.40200 0.08700
H 	H 	0.47409 0.90145 0.57568 0.04500
H 	H 	0.42498 0.94370 0.56673 0.04700
Zn	Zn	0.12375 0.11527 0.99020 1.18400
C 	C 	0.17830 0.08957 0.95601 0.31400
C 	C 	0.12584 0.18156 0.93718 0.32300
O 	O 	0.18352 0.11863 0.99815 -0.46700
O 	O 	0.13272 0.05251 0.91263 -0.37100
O 	O 	0.08094 0.99062 0.95483 -0.45700
O 	O 	0.09454 0.13624 0.89146 -0.46100
O 	O 	0.13688 0.18110 0.98211 -0.46500
Zn	Zn	0.90291 0.90763 0.87990 1.17800
Zn	Zn	0.98977 0.94424 0.98411 1.19600
C 	C 	0.89990 0.83245 0.92615 0.32800
C 	C 	0.87383 0.94965 0.93964 0.32900
O 	O 	0.94387 0.01941 0.89973 -0.46700
O 	O 	0.94794 0.86846 0.96631 -0.45100
O 	O 	0.87700 0.83953 0.88525 -0.46300
O 	O 	0.86040 0.92818 0.89088 -0.47700
O 	O 	0.91891 0.96496 0.97897 -0.47200
O 	O 	0.96884 0.93099 0.90908 -0.78400
C 	C 	0.93854 0.05472 0.92573 0.32800
O 	O 	0.96124 0.07405 0.97705 -0.48800
H 	H 	0.96058 0.97583 0.83098 0.15200
Zn	Zn	0.14157 0.13002 0.50622 1.18500
C 	C 	0.19539 0.10781 0.46929 0.31300
C 	C 	0.14668 0.20226 0.45893 0.32500
O 	O 	0.20022 0.13115 0.51315 -0.46400
O 	O 	0.15106 0.08168 0.42351 -0.36700
O 	O 	0.10086 0.00697 0.46150 -0.46600
O 	O 	0.11098 0.15957 0.41125 -0.45200
O 	O 	0.15754 0.19850 0.50250 -0.46300
Zn	Zn	0.92200 0.91615 0.38659 1.17900
C 	C 	0.92143 0.83986 0.43152 0.32400
C 	C 	0.89138 0.95461 0.44602 0.32900
O 	O 	0.96251 0.03260 0.41831 -0.46100
O 	O 	0.97087 0.87258 0.46739 -0.45500
O 	O 	0.89733 0.84724 0.39133 -0.46100
O 	O 	0.87803 0.93382 0.39723 -0.47600
O 	O 	0.93550 0.96723 0.48487 -0.47500
O 	O 	0.98878 0.94296 0.41683 -0.78200
C 	C 	0.96021 0.06850 0.44801 0.32900
O 	O 	0.98271 0.08355 0.49871 -0.48700
C 	C 	0.09908 0.96634 0.43261 0.33300
H 	H 	0.08403 0.04526 0.53600 0.15800
H 	H 	0.97744 0.99650 0.34556 0.17100
C 	C 	0.07818 0.01638 0.73441 0.08200
C 	C 	0.98573 0.97530 0.63862 0.09500
C 	C 	0.98704 0.97592 0.68318 -0.01400
H 	H 	0.11161 0.03134 0.69232 0.04500
H 	H 	0.95225 0.96056 0.68054 0.03700
N 	N 	0.12600 0.03787 0.78305 -0.14300
N 	N 	0.93804 0.95439 0.59020 -0.14500
C 	C 	0.14903 0.09448 0.81832 -0.09100
H 	H 	0.15111 0.11856 0.79718 0.05300
H 	H 	0.18823 0.11135 0.85205 0.05900
H 	H 	0.12740 0.09842 0.83445 0.05700
C 	C 	0.91640 0.89905 0.55289 -0.09000
H 	H 	0.94110 0.89722 0.54049 0.05800
H 	H 	0.87892 0.88370 0.51696 0.05600
H 	H 	0.91072 0.87235 0.57097 0.05400
H 	H 	0.12305 0.01468 0.80227 0.09300
H 	H 	0.94117 0.97952 0.57299 0.09100
C 	C 	0.98660 0.01228 0.15019 0.09700
C 	C 	0.99336 0.01713 0.19816 -0.02300
H 	H 	0.96387 0.01377 0.20314 0.03400
H 	H 	0.09806 0.02721 0.17905 0.03300
N 	N 	0.93995 0.00089 0.10718 -0.14400
N 	N 	0.12112 0.03747 0.27426 -0.14000
C 	C 	0.93840 0.04934 0.11627 -0.09100
H 	H 	0.93738 0.06295 0.15113 0.04900
H 	H 	0.90371 0.04008 0.08079 0.05100
H 	H 	0.97168 0.08240 0.12251 0.05900
C 	C 	0.12214 0.98867 0.26235 -0.08000
H 	H 	0.08806 0.95445 0.25383 0.04800
H 	H 	0.15603 0.99608 0.29730 0.04500
H 	H 	0.12431 0.97763 0.22800 0.04200
H 	H 	0.90900 0.97033 0.10235 0.08300
H 	H 	0.15266 0.06914 0.28093 0.07300
C 	C 	0.24016 0.35414 0.47793 0.06800
N 	N 	0.22500 0.35119 0.51049 -0.11900
C 	C 	0.19436 0.30290 0.50441 0.07200
C 	C 	0.17695 0.25456 0.46348 -0.11800
C 	C 	0.19106 0.25677 0.42878 0.03900
C 	C 	0.22276 0.30667 0.43596 -0.08500
H 	H 	0.18353 0.30209 0.53140 0.02200
H 	H 	0.17836 0.22004 0.39702 0.03100
H 	H 	0.23379 0.30849 0.40920 0.05100
C 	C 	0.33789 0.50902 0.50533 0.00000
C 	C 	0.35134 0.47120 0.50148 -0.01900
C 	C 	0.31924 0.42009 0.49191 -0.05500
C 	C 	0.27387 0.40727 0.48643 0.05000
N 	N 	0.26180 0.44491 0.49106 -0.10700
C 	C 	0.29239 0.49486 0.49993 0.01900
H 	H 	0.38656 0.48142 0.50609 0.04200
H 	H 	0.32976 0.39089 0.48939 0.04600
H 	H 	0.28133 0.52357 0.50274 0.03600
C 	C 	0.78041 0.92629 0.47688 0.06600
N 	N 	0.76959 0.88960 0.43262 -0.11900
C 	C 	0.80411 0.89882 0.42117 0.07500
C 	C 	0.85204 0.94717 0.45493 -0.12600
C 	C 	0.86318 0.98630 0.49946 0.04700
C 	C 	0.82737 0.97586 0.51068 -0.07800
H 	H 	0.79478 0.86791 0.38663 0.02400
H 	H 	0.89970 0.02424 0.52572 0.01200
H 	H 	0.83604 0.00588 0.54538 0.04800
C 	C 	0.66763 0.87863 0.50578 0.00000
C 	C 	0.71768 0.89955 0.54662 -0.01900
C 	C 	0.75531 0.91714 0.53814 -0.05600
C 	C 	0.74248 0.91349 0.48863 0.05200
N 	N 	0.69355 0.89319 0.44946 -0.10600
C 	C 	0.65635 0.87626 0.45708 0.02000
H 	H 	0.72719 0.90126 0.58439 0.03900
H 	H 	0.79384 0.93204 0.56923 0.04400
H 	H 	0.61785 0.86027 0.42505 0.03800
C 	C 	0.26009 0.93267 0.49064 0.05100
N 	N 	0.29007 0.93898 0.53962 -0.10500
C 	C 	0.32119 0.92043 0.54911 0.02000
C 	C 	0.32265 0.89373 0.50805 0.00100
C 	C 	0.29308 0.88794 0.45786 -0.01900
C 	C 	0.26123 0.90677 0.44882 -0.05400
H 	H 	0.34384 0.92526 0.58823 0.03800
H 	H 	0.29360 0.86738 0.42555 0.04200
H 	H 	0.23641 0.89970 0.40922 0.04300
C 	C 	0.14470 0.96477 0.45254 -0.13500
C 	C 	0.17178 0.97647 0.43066 0.04600
C 	C 	0.21216 0.96995 0.44595 -0.08700
C 	C 	0.22328 0.94853 0.48077 0.07000
N 	N 	0.19768 0.93929 0.50323 -0.12000
C 	C 	0.15925 0.94739 0.49026 0.07600
H 	H 	0.16089 0.98954 0.40109 0.01800
H 	H 	0.23381 0.98016 0.42985 0.05300
H 	H 	0.13899 0.93860 0.50796 0.00600
C 	C 	0.24318 0.38264 0.95182 0.05600
N 	N 	0.23510 0.38570 0.90707 -0.10800
C 	C 	0.26284 0.43286 0.90940 0.01700
C 	C 	0.30094 0.47971 0.95853 0.00800
C 	C 	0.31069 0.47708 0.00500 -0.02600
C 	C 	0.28218 0.42833 0.00179 -0.06100
H 	H 	0.25485 0.43411 0.87302 0.03500
H 	H 	0.33978 0.51283 0.04339 0.04300
H 	H 	0.29019 0.42608 0.03778 0.04400
C 	C 	0.15280 0.23301 0.93867 -0.12000
C 	C 	0.16311 0.28041 0.97366 0.03600
C 	C 	0.19210 0.32952 0.97772 -0.07700
C 	C 	0.21146 0.33101 0.94733 0.06300
N 	N 	0.19988 0.28425 0.91244 -0.11900
C 	C 	0.17128 0.23579 0.90755 0.07200
H 	H 	0.14874 0.27922 0.99763 0.02300
H 	H 	0.19939 0.36610 0.00417 0.04400
H 	H 	0.16389 0.19964 0.88039 0.02300
C 	C 	0.71216 0.89683 0.96296 0.05400
N 	N 	0.72109 0.91044 0.01166 -0.11000
C 	C 	0.68253 0.89169 0.01710 0.01000
C 	C 	0.63227 0.85688 0.97210 0.01100
C 	C 	0.62228 0.84231 0.92172 -0.02200
C 	C 	0.66228 0.86240 0.91703 -0.05300
H 	H 	0.69096 0.90346 0.05639 0.03500
H 	H 	0.58375 0.81500 0.88639 0.04500
H 	H 	0.65473 0.85022 0.87807 0.04600
C 	C 	0.83433 0.94057 0.94845 -0.12300
C 	C 	0.79779 0.95105 0.92167 0.04200
C 	C 	0.75805 0.93783 0.92699 -0.08500
C 	C 	0.75508 0.91382 0.95888 0.06800
N 	N 	0.79175 0.90523 0.98568 -0.12100
C 	C 	0.83069 0.91761 0.98086 0.08100
H 	H 	0.79993 0.96894 0.89656 0.02700
H 	H 	0.72963 0.94580 0.90626 0.05400
H 	H 	0.85797 0.90811 0.00098 0.02100
C 	C 	0.19091 0.91360 0.99478 0.07900
N 	N 	0.14101 0.87302 0.96352 -0.12300
C 	C 	0.10383 0.88302 0.94565 0.07700
C 	C 	0.11626 0.93596 0.95880 -0.14300
C 	C 	0.16727 0.97849 0.99342 0.06300
C 	C 	0.20481 0.96737 0.01109 -0.09800
H 	H 	0.17788 0.01979 0.00458 0.00400
H 	H 	0.24427 0.00003 0.03515 0.04800
C 	C 	0.29985 0.87316 0.02043 -0.00400
C 	C 	0.31065 0.91478 0.06273 -0.02000
C 	C 	0.27505 0.92818 0.05495 -0.05200
C 	C 	0.22907 0.90009 0.00454 0.04100
N 	N 	0.21910 0.85920 0.96415 -0.10400
C 	C 	0.25322 0.84540 0.97098 0.02500
H 	H 	0.34636 0.93652 0.10139 0.04300
H 	H 	0.28293 0.95982 0.08779 0.04300
H 	H 	0.24404 0.81270 0.93797 0.03600
C 	C 	0.81401 0.12256 0.37571 0.05000
N 	N 	0.82049 0.16539 0.36662 -0.10600
C 	C 	0.79244 0.18646 0.36649 0.02400
C 	C 	0.75701 0.16524 0.37747 -0.00000
C 	C 	0.74766 0.11929 0.38371 -0.02100
C 	C 	0.77611 0.09769 0.38268 -0.05300
H 	H 	0.79943 0.22138 0.36048 0.04000
H 	H 	0.72026 0.10205 0.39197 0.04000
H 	H 	0.77088 0.06389 0.39039 0.04700
C 	C 	0.92416 0.08309 0.42269 -0.13100
C 	C 	0.87432 0.04314 0.37884 0.04100
C 	C 	0.83816 0.05617 0.36151 -0.08900
C 	C 	0.85239 0.10932 0.38794 0.07000
N 	N 	0.90173 0.14826 0.42834 -0.11800
C 	C 	0.93749 0.13630 0.44617 0.07600
H 	H 	0.86321 0.00183 0.35963 0.01700
H 	H 	0.79914 0.02502 0.32883 0.05100
H 	H 	0.97605 0.16792 0.47958 0.02200
C 	C 	0.81139 0.65103 0.43816 0.05000
N 	N 	0.78863 0.65275 0.46342 -0.10800
C 	C 	0.76328 0.60925 0.46735 0.02100
C 	C 	0.75985 0.56129 0.44489 0.00100
C 	C 	0.78155 0.55822 0.41735 -0.02200
C 	C 	0.80725 0.60309 0.41373 -0.05400
H 	H 	0.74640 0.61217 0.48852 0.03600
H 	H 	0.77891 0.52133 0.39929 0.04200
H 	H 	0.82410 0.60083 0.39240 0.04600
C 	C 	0.89357 0.79084 0.43289 -0.12000
C 	C 	0.91653 0.76385 0.45027 0.04100
C 	C 	0.88991 0.71813 0.45234 -0.08500
C 	C 	0.84029 0.69955 0.43679 0.06700
N 	N 	0.81893 0.72699 0.42105 -0.11900
C 	C 	0.84424 0.77169 0.41860 0.07000
H 	H 	0.95472 0.77806 0.46187 0.03200
H 	H 	0.90771 0.69734 0.46609 0.05400
H 	H 	0.82631 0.79282 0.40632 0.02300
C 	C 	0.37306 0.15437 0.47786 0.05100
N 	N 	0.41011 0.20796 0.50767 -0.10600
C 	C 	0.45081 0.22858 0.50579 0.01900
C 	C 	0.45544 0.19461 0.47286 0.00100
C 	C 	0.41921 0.13909 0.44411 -0.02100
C 	C 	0.37794 0.11875 0.44677 -0.05600
H 	H 	0.47895 0.27157 0.52893 0.03800
H 	H 	0.42232 0.11207 0.41874 0.03900
H 	H 	0.34923 0.07589 0.42374 0.04200
C 	C 	0.24005 0.11449 0.47081 -0.11200
C 	C 	0.23629 0.09693 0.42362 0.03100
C 	C 	0.27936 0.10709 0.42559 -0.08500
C 	C 	0.32626 0.13520 0.47490 0.06600
N 	N 	0.32910 0.15082 0.52042 -0.11700
C 	C 	0.28729 0.14051 0.51940 0.07100
H 	H 	0.20038 0.07666 0.38556 0.03200
H 	H 	0.27670 0.09521 0.38912 0.04600
H 	H 	0.29103 0.15349 0.55639 0.03000
C 	C 	0.78045 0.08972 0.83221 0.04800
N 	N 	0.78537 0.13103 0.82085 -0.10600
C 	C 	0.75369 0.14829 0.81516 0.02400
C 	C 	0.71587 0.12461 0.82250 -0.00000
C 	C 	0.70799 0.07977 0.83053 -0.02200
C 	C 	0.74028 0.06207 0.83527 -0.05300
H 	H 	0.75973 0.18244 0.80794 0.04000
H 	H 	0.67880 0.06065 0.83604 0.04000
H 	H 	0.73614 0.02935 0.84458 0.04300
C 	C 	0.89978 0.06465 0.89602 -0.13000
C 	C 	0.85228 0.02198 0.84996 0.03600
C 	C 	0.81316 0.03022 0.82754 -0.09700
C 	C 	0.82220 0.08139 0.85103 0.07200
N 	N 	0.86945 0.12311 0.89393 -0.11900
C 	C 	0.90797 0.11581 0.91678 0.07600
H 	H 	0.84511 0.98217 0.83283 0.01700
H 	H 	0.77586 0.99690 0.79301 0.05800
H 	H 	0.94468 0.14953 0.95182 0.02400
C 	C 	0.78838 0.63056 0.91359 0.05100
N 	N 	0.75593 0.62297 0.92789 -0.10600
C 	C 	0.72748 0.57462 0.92329 0.02200
C 	C 	0.73065 0.53106 0.90289 0.00100
C 	C 	0.76299 0.53776 0.88703 -0.02200
C 	C 	0.79188 0.58757 0.89222 -0.05400
H 	H 	0.70261 0.57013 0.93573 0.03900
H 	H 	0.76570 0.50448 0.87075 0.04200
H 	H 	0.81654 0.59269 0.87942 0.04700
C 	C 	0.87230 0.78142 0.92498 -0.11700
C 	C 	0.89748 0.75772 0.94649 0.04100
C 	C 	0.87036 0.70855 0.94349 -0.08500
C 	C 	0.81805 0.68327 0.91870 0.06900
N 	N 	0.79446 0.70769 0.89932 -0.11800
C 	C 	0.82022 0.75565 0.90177 0.07300
H 	H 	0.93771 0.77689 0.96481 0.03100
H 	H 	0.88975 0.69014 0.96015 0.05400
H 	H 	0.80025 0.77389 0.88592 0.02700
C 	C 	0.29967 0.12938 0.94080 0.06900
N 	N 	0.26212 0.07691 0.91815 -0.12000
C 	C 	0.22418 0.06328 0.92473 0.07100
C 	C 	0.22265 0.10354 0.95483 -0.12200
C 	C 	0.26126 0.15762 0.97902 0.04600
C 	C 	0.29974 0.17069 0.97181 -0.09000
H 	H 	0.19465 0.02120 0.90571 0.02400
H 	H 	0.26037 0.18950 0.00157 0.02000
H 	H 	0.32854 0.21262 0.98881 0.05500
C 	C 	0.40786 0.16816 0.90527 0.00200
C 	C 	0.42426 0.19398 0.95782 -0.02300
C 	C 	0.38921 0.18082 0.97002 -0.04500
C 	C 	0.33769 0.14244 0.92924 0.04700
N 	N 	0.32259 0.11706 0.87842 -0.10700
C 	C 	0.35629 0.12915 0.86573 0.01800
H 	H 	0.46397 0.22425 0.98900 0.04600
H 	H 	0.40190 0.20029 0.01078 0.03800
H 	H 	0.34299 0.10856 0.82490 0.03500
