data_crystal

_cell_length_a 30.01145
_cell_length_b 30.84583
_cell_length_c 39.32038
_cell_angle_alpha 60.95438
_cell_angle_beta  118.73743
_cell_angle_gamma 133.28411

_symmetry_space_group_name_	'P 1'
_symmetry_space_group_name_H-M	'P 1'

loop_
_symmetry_equiv_pos_as_xyz
  x,y,z

loop_
_atom_site_label
_atom_site_type_symbol
_atom_site_fract_x
_atom_site_fract_y
_atom_site_fract_z
_atom_site_charge
C 	C 	0.74323 0.29874 0.05036 0.05300
C 	C 	0.78125 0.35950 0.05374 -0.08400
C 	C 	0.75678 0.37846 0.06198 0.05500
C 	C 	0.69516 0.33713 0.06676 -0.08600
C 	C 	0.65735 0.27709 0.06341 0.05400
C 	C 	0.68115 0.25767 0.05519 -0.08600
H 	H 	0.82913 0.39142 0.05011 0.05900
H 	H 	0.67644 0.35187 0.07309 0.06000
H 	H 	0.65175 0.21091 0.05273 0.05600
C 	C 	0.69237 0.28033 0.55609 0.05300
C 	C 	0.73696 0.33968 0.56278 -0.08600
C 	C 	0.71932 0.36335 0.57270 0.05600
C 	C 	0.65790 0.32805 0.57605 -0.08800
C 	C 	0.61318 0.26963 0.56885 0.05500
C 	C 	0.63016 0.24536 0.55890 -0.08600
H 	H 	0.78484 0.36702 0.56037 0.06000
H 	H 	0.64449 0.34665 0.58366 0.06000
H 	H 	0.59546 0.19979 0.55347 0.05700
C 	C 	0.30629 0.66165 0.22664 0.05400
C 	C 	0.26842 0.60106 0.22317 -0.08500
C 	C 	0.29297 0.58220 0.21504 0.05500
C 	C 	0.35470 0.62339 0.21054 -0.08600
C 	C 	0.39241 0.68348 0.21376 0.05600
C 	C 	0.36845 0.70289 0.22187 -0.08400
H 	H 	0.22040 0.56916 0.22658 0.05800
H 	H 	0.37346 0.60863 0.20425 0.06100
H 	H 	0.39769 0.74968 0.22422 0.06200
C 	C 	0.25842 0.65925 0.70051 0.05400
C 	C 	0.32279 0.69647 0.70126 -0.08400
C 	C 	0.34650 0.67435 0.69578 0.05600
C 	C 	0.30643 0.61561 0.68970 -0.08600
C 	C 	0.24260 0.57837 0.68870 0.05500
C 	C 	0.21814 0.59992 0.69412 -0.08400
H 	H 	0.35398 0.74221 0.70596 0.06200
H 	H 	0.32506 0.59879 0.68549 0.06100
H 	H 	0.16850 0.57107 0.69331 0.05900
Co	Co	0.07264 0.01365 0.09290 1.16800
Co	Co	0.96720 0.94238 0.17871 1.19400
Co	Co	0.03356 0.06423 0.12401 1.17800
Co	Co	0.00781 0.89237 0.14843 1.18400
C 	C 	0.19778 0.03227 0.11114 0.27300
Co	Co	0.07952 0.91323 0.09450 1.18100
Co	Co	0.96740 0.04838 0.17865 1.16100
C 	C 	0.94434 0.81502 0.09047 0.31100
O 	O 	0.98143 0.11924 0.12777 -0.41100
O 	O 	0.99489 0.01672 0.16139 -0.77400
C 	C 	0.95580 0.10853 0.09249 0.32100
O 	O 	0.07451 0.08551 0.08407 -0.47200
O 	O 	0.95873 0.86814 0.18407 -0.45400
C 	C 	0.84852 0.93046 0.16078 0.31000
O 	O 	0.03825 0.98443 0.14572 -0.56000
C 	C 	0.10113 0.14887 0.17922 0.31500
C 	C 	0.05263 0.99065 0.01962 0.30700
C 	C 	0.08302 0.84356 0.17955 0.32000
O 	O 	0.96396 0.07763 0.08454 -0.39600
O 	O 	0.09702 0.98375 0.04308 -0.37200
O 	O 	0.02772 0.99796 0.03486 -0.36600
O 	O 	0.87595 0.98984 0.15091 -0.37300
O 	O 	0.87230 0.90888 0.15780 -0.38200
O 	O 	0.06221 0.10307 0.20292 -0.38200
O 	O 	0.10365 0.14006 0.15021 -0.37200
O 	O 	0.06301 0.83878 0.14304 -0.40400
O 	O 	0.06646 0.86505 0.18979 -0.37600
O 	O 	0.05454 0.94290 0.11536 -0.75300
C 	C 	0.98486 0.96186 0.25428 0.31700
O 	O 	0.94885 0.98019 0.23135 -0.38900
O 	O 	0.99920 0.94341 0.23932 -0.35900
O 	O 	0.16915 0.97232 0.12344 -0.35600
O 	O 	0.16881 0.05759 0.10040 -0.37300
O 	O 	0.98531 0.85899 0.06807 -0.36400
O 	O 	0.93546 0.82757 0.11373 -0.38000
Co	Co	0.01957 0.00586 0.57741 1.16900
Co	Co	0.93889 0.93913 0.67655 1.19600
Co	Co	0.96546 0.04446 0.60544 1.18200
Co	Co	0.99421 0.90118 0.64884 1.18700
C 	C 	0.14569 0.06184 0.57379 0.32900
Co	Co	0.06276 0.92653 0.59017 1.17600
Co	Co	0.90779 0.02825 0.66644 1.16400
C 	C 	0.95628 0.80126 0.62272 0.32900
O 	O 	0.83692 0.00685 0.61565 -0.40500
O 	O 	0.93722 0.00018 0.64745 -0.77400
C 	C 	0.84975 0.04282 0.58056 0.31400
O 	O 	0.00376 0.06755 0.56331 -0.47100
O 	O 	0.95565 0.87798 0.69089 -0.44900
C 	C 	0.81940 0.89258 0.68811 0.33100
O 	O 	0.95893 0.95997 0.61957 -0.56000
C 	C 	0.01884 0.14702 0.63536 0.31600
C 	C 	0.98630 0.95106 0.51242 0.31000
C 	C 	0.11658 0.91428 0.67578 0.31500
O 	O 	0.89112 0.05274 0.56830 -0.37600
O 	O 	0.98815 0.90615 0.54111 -0.38000
O 	O 	0.98832 0.99030 0.52020 -0.33400
O 	O 	0.85489 0.94159 0.70118 -0.38100
O 	O 	0.84414 0.87984 0.67741 -0.36900
O 	O 	0.96006 0.11819 0.63406 -0.40200
O 	O 	0.03488 0.12181 0.62854 -0.39800
O 	O 	0.13167 0.94991 0.64135 -0.38200
O 	O 	0.07807 0.91026 0.68680 -0.37600
O 	O 	0.01869 0.94332 0.60539 -0.74600
C 	C 	0.98933 0.00247 0.74089 0.23800
O 	O 	0.98344 0.04657 0.71507 -0.37800
O 	O 	0.99423 0.97203 0.72921 -0.33100
O 	O 	0.11453 0.01646 0.55801 -0.43100
O 	O 	0.11681 0.06363 0.58930 -0.41000
O 	O 	0.01564 0.83556 0.62243 -0.40700
O 	O 	0.93582 0.81855 0.63335 -0.38100
C 	C 	0.02618 0.98189 0.97815 -0.05600
C 	C 	0.03115 0.94554 0.96963 0.14800
C 	C 	0.02496 0.95168 0.93031 -0.08500
C 	C 	0.00974 0.99028 0.89837 0.04400
C 	C 	0.99845 0.02201 0.90603 0.07600
C 	C 	0.00804 0.01874 0.94587 -0.05700
H 	H 	0.03160 0.92566 0.92454 0.08600
C 	C 	0.00387 0.99514 0.85692 0.04200
H 	H 	0.00305 0.04611 0.95156 0.06700
C 	C 	0.95645 0.94271 0.84145 -0.07500
C 	C 	0.95681 0.94169 0.80625 0.12900
C 	C 	0.00195 0.99512 0.78412 -0.02400
C 	C 	0.05035 0.04707 0.80007 -0.06200
C 	C 	0.05232 0.04684 0.83663 0.06800
H 	H 	0.92079 0.90165 0.85779 0.08100
H 	H 	0.08580 0.08825 0.78362 0.07200
Br	Br	0.96915 0.06900 0.86283 -0.22600
Br	Br	0.04547 0.88599 0.01068 -0.27900
Br	Br	0.89713 0.86597 0.79009 -0.22700
Br	Br	0.12278 0.11668 0.85894 -0.22700
C 	C 	0.99936 0.95187 0.29806 -0.05800
C 	C 	0.05181 0.00144 0.31588 0.10900
C 	C 	0.05076 0.00515 0.34969 -0.11300
C 	C 	0.00011 0.95689 0.36836 0.05000
C 	C 	0.95136 0.90362 0.35354 0.08400
C 	C 	0.95093 0.90161 0.31838 -0.01700
H 	H 	0.08979 0.04522 0.36175 0.08200
C 	C 	0.00000 0.96139 0.40453 0.01100
H 	H 	0.91096 0.86247 0.30556 0.06300
C 	C 	0.95592 0.96698 0.40256 -0.06800
C 	C 	0.95309 0.96764 0.43708 0.14200
C 	C 	0.99644 0.96537 0.47363 -0.08200
C 	C 	0.04323 0.96436 0.47459 -0.01800
C 	C 	0.04395 0.96037 0.44087 0.08900
H 	H 	0.92266 0.96895 0.37456 0.08400
H 	H 	0.07676 0.96256 0.50246 0.05200
Br	Br	0.88516 0.83318 0.38080 -0.21800
Br	Br	0.12556 0.06410 0.29472 -0.24100
Br	Br	0.88822 0.96901 0.43389 -0.20900
Br	Br	0.10233 0.94866 0.44611 -0.20800
C 	C 	0.15314 0.41468 0.66837 0.02200
C 	C 	0.13283 0.41038 0.62899 -0.04500
C 	C 	0.11742 0.36083 0.62165 -0.02600
C 	C 	0.12238 0.31527 0.65363 -0.00800
C 	C 	0.14355 0.32007 0.69299 -0.02500
C 	C 	0.15892 0.36960 0.70033 -0.04300
C 	C 	0.17762 0.47002 0.67569 -0.00800
C 	C 	0.20325 0.51825 0.68175 -0.02600
C 	C 	0.09369 0.25814 0.64656 0.05200
C 	C 	0.06378 0.20830 0.64105 -0.10500
H 	H 	0.12949 0.44565 0.60404 0.04600
H 	H 	0.10015 0.35710 0.59115 0.04200
H 	H 	0.14660 0.28466 0.71796 0.04800
H 	H 	0.17586 0.37316 0.73083 0.05100
C 	C 	0.52590 0.76163 0.69358 0.02400
C 	C 	0.54237 0.79169 0.65666 -0.04200
C 	C 	0.59783 0.80881 0.65416 -0.02400
C 	C 	0.63712 0.79584 0.68854 -0.00400
C 	C 	0.62028 0.76519 0.72539 -0.02400
C 	C 	0.56484 0.74808 0.72789 -0.04200
C 	C 	0.46479 0.73650 0.69514 -0.00500
C 	C 	0.41188 0.71131 0.69589 -0.02400
C 	C 	0.69954 0.82385 0.68742 0.05900
C 	C 	0.75350 0.85192 0.68718 -0.09200
H 	H 	0.51197 0.80130 0.62983 0.05000
H 	H 	0.61089 0.83333 0.62566 0.04900
H 	H 	0.65080 0.75580 0.75225 0.05000
H 	H 	0.55189 0.72380 0.75642 0.05000
C 	C 	0.19324 0.73008 0.71462 0.02300
C 	C 	0.23613 0.77892 0.73328 -0.04300
C 	C 	0.21718 0.80949 0.73369 -0.02500
C 	C 	0.15516 0.79147 0.71544 -0.00600
C 	C 	0.11149 0.74060 0.69856 -0.02600
C 	C 	0.13047 0.71007 0.69812 -0.04400
C 	C 	0.21476 0.70341 0.70996 -0.00700
C 	C 	0.23384 0.68249 0.70574 -0.02400
C 	C 	0.14005 0.83218 0.70668 0.05400
C 	C 	0.12848 0.86840 0.69553 -0.10300
H 	H 	0.28462 0.79450 0.74637 0.04900
H 	H 	0.25144 0.84884 0.74662 0.04700
H 	H 	0.06358 0.72643 0.68415 0.04400
H 	H 	0.09681 0.67216 0.68387 0.04600
C 	C 	0.17753 0.31477 0.18924 -0.00600
C 	C 	0.20649 0.32548 0.22758 -0.02700
C 	C 	0.22090 0.37527 0.23383 -0.04400
C 	C 	0.20640 0.41471 0.20180 0.02100
C 	C 	0.17712 0.40383 0.16348 -0.04500
C 	C 	0.16254 0.35389 0.15724 -0.02800
C 	C 	0.15548 0.25908 0.18398 0.05100
C 	C 	0.13350 0.21023 0.18088 -0.09800
C 	C 	0.23069 0.47140 0.20697 -0.00900
C 	C 	0.25568 0.52074 0.21102 -0.02700
H 	H 	0.21728 0.29490 0.25263 0.04700
H 	H 	0.24436 0.38379 0.26342 0.04700
H 	H 	0.16658 0.43456 0.13841 0.04500
H 	H 	0.13916 0.34539 0.12765 0.04200
C 	C 	0.56633 0.78504 0.19521 0.02400
C 	C 	0.57390 0.81169 0.15587 -0.04300
C 	C 	0.62821 0.83391 0.14817 -0.02500
C 	C 	0.67522 0.82946 0.17974 -0.00400
C 	C 	0.66768 0.80286 0.21907 -0.02500
C 	C 	0.61336 0.78061 0.22678 -0.04200
C 	C 	0.50674 0.75427 0.20245 -0.00500
C 	C 	0.45543 0.72476 0.20801 -0.02400
C 	C 	0.73473 0.86007 0.17245 0.05300
C 	C 	0.78592 0.88945 0.16675 -0.09600
H 	H 	0.53738 0.81445 0.13122 0.05000
H 	H 	0.63405 0.85527 0.11774 0.04700
H 	H 	0.70421 0.80010 0.24373 0.04900
H 	H 	0.60750 0.75923 0.25721 0.05200
C 	C 	0.18056 0.77063 0.24263 -0.00500
C 	C 	0.14596 0.70724 0.24793 -0.02600
C 	C 	0.17321 0.68341 0.24902 -0.04400
C 	C 	0.23542 0.72274 0.24520 0.02300
C 	C 	0.27161 0.78524 0.24326 -0.04200
C 	C 	0.24435 0.80906 0.24212 -0.02500
C 	C 	0.14727 0.79739 0.22684 0.05400
C 	C 	0.11825 0.81930 0.20866 -0.09800
C 	C 	0.26019 0.70018 0.23952 -0.00700
C 	C 	0.28093 0.68213 0.23395 -0.02400
H 	H 	0.09674 0.67698 0.24848 0.04200
H 	H 	0.14506 0.63489 0.25112 0.04500
H 	H 	0.32002 0.81591 0.24088 0.05000
H 	H 	0.27169 0.85804 0.23816 0.04900
C 	C 	0.78722 0.14751 0.53416 -0.01000
C 	C 	0.83066 0.20846 0.53763 -0.02600
C 	C 	0.81033 0.23790 0.53775 -0.04500
C 	C 	0.74643 0.20664 0.53428 0.02200
C 	C 	0.70250 0.14727 0.52805 -0.04700
C 	C 	0.72282 0.11783 0.52791 -0.02800
C 	C 	0.80940 0.11178 0.54585 0.05000
C 	C 	0.82797 0.08079 0.55924 -0.10900
C 	C 	0.72687 0.23303 0.54101 -0.01000
C 	C 	0.71092 0.25468 0.54753 -0.02700
H 	H 	0.88051 0.23186 0.54246 0.04400
H 	H 	0.84458 0.28404 0.54216 0.04700
H 	H 	0.65293 0.12297 0.52492 0.04300
H 	H 	0.68883 0.07079 0.52516 0.03700
C 	C 	0.86168 0.63408 0.60633 -0.00700
C 	C 	0.87489 0.59286 0.63684 -0.02500
C 	C 	0.85568 0.54203 0.62878 -0.04500
C 	C 	0.82343 0.53233 0.59014 0.02300
C 	C 	0.81094 0.57400 0.55956 -0.04200
C 	C 	0.82995 0.62468 0.56763 -0.02300
C 	C 	0.88934 0.69078 0.61316 0.05800
C 	C 	0.91675 0.74019 0.61808 -0.10300
C 	C 	0.79318 0.47450 0.58365 -0.00700
C 	C 	0.76287 0.42454 0.57840 -0.02600
H 	H 	0.90063 0.60052 0.66665 0.04300
H 	H 	0.86474 0.50959 0.65275 0.04700
H 	H 	0.78522 0.56638 0.52973 0.05100
H 	H 	0.82068 0.65699 0.54369 0.05000
C 	C 	0.43997 0.19364 0.57505 0.02200
C 	C 	0.41837 0.15375 0.61023 -0.04700
C 	C 	0.36430 0.13766 0.61401 -0.02600
C 	C 	0.33154 0.16142 0.58264 -0.01200
C 	C 	0.35469 0.20323 0.54814 -0.02400
C 	C 	0.40863 0.21918 0.54432 -0.04600
C 	C 	0.49856 0.21452 0.57247 -0.01000
C 	C 	0.54956 0.23637 0.57049 -0.02800
C 	C 	0.26789 0.13224 0.58178 0.05600
C 	C 	0.21268 0.10315 0.57926 -0.11600
H 	H 	0.44326 0.13504 0.63457 0.04300
H 	H 	0.34650 0.10489 0.64066 0.03800
H 	H 	0.32947 0.22145 0.52359 0.04300
H 	H 	0.42598 0.25132 0.51745 0.04800
C 	C 	0.80769 0.23173 0.03129 0.02100
C 	C 	0.77020 0.16816 0.03586 -0.04700
C 	C 	0.79410 0.14171 0.03605 -0.02800
C 	C 	0.85580 0.17857 0.03188 -0.00900
C 	C 	0.89133 0.24268 0.02412 -0.02600
C 	C 	0.86750 0.26913 0.02404 -0.04500
C 	C 	0.78665 0.25774 0.03720 -0.01100
C 	C 	0.76797 0.27772 0.04290 -0.02600
C 	C 	0.88781 0.15079 0.04649 0.04900
C 	C 	0.91735 0.12943 0.06388 -0.10800
H 	H 	0.72355 0.13889 0.04089 0.04200
H 	H 	0.76607 0.09222 0.04202 0.03700
H 	H 	0.93899 0.27175 0.02079 0.04300
H 	H 	0.89656 0.31837 0.01990 0.04700
C 	C 	0.86732 0.64652 0.08430 -0.00300
C 	C 	0.88400 0.60883 0.11663 -0.02500
C 	C 	0.87042 0.55883 0.11115 -0.04300
C 	C 	0.84052 0.54647 0.07322 0.02300
C 	C 	0.82414 0.58436 0.04089 -0.04200
C 	C 	0.83752 0.63419 0.04639 -0.02400
C 	C 	0.88909 0.70287 0.08855 0.05500
C 	C 	0.91114 0.75248 0.09055 -0.09100
C 	C 	0.81769 0.48976 0.06883 -0.00700
C 	C 	0.79365 0.44031 0.06535 -0.02600
H 	H 	0.90805 0.61857 0.14589 0.04500
H 	H 	0.88238 0.52929 0.13648 0.04700
H 	H 	0.80014 0.57469 0.01161 0.05000
H 	H 	0.82542 0.66362 0.02106 0.05000
C 	C 	0.48191 0.17453 0.08005 0.02000
C 	C 	0.47269 0.14621 0.11904 -0.04500
C 	C 	0.41743 0.12307 0.12601 -0.03000
C 	C 	0.37117 0.12831 0.09405 -0.00400
C 	C 	0.38022 0.15632 0.05503 -0.02800
C 	C 	0.43548 0.17944 0.04806 -0.04400
C 	C 	0.54231 0.20608 0.07364 -0.01000
C 	C 	0.59408 0.23595 0.06865 -0.02800
C 	C 	0.31151 0.09860 0.10064 0.04100
C 	C 	0.26034 0.07065 0.10577 -0.09100
H 	H 	0.50868 0.14293 0.14401 0.04300
H 	H 	0.41042 0.10069 0.15619 0.03900
H 	H 	0.34431 0.15976 0.03008 0.04700
H 	H 	0.44256 0.20198 0.01789 0.04700
