data_crystal

_cell_length_a 18.57774
_cell_length_b 18.92971
_cell_length_c 26.45448
_cell_angle_alpha 95.42490
_cell_angle_beta  95.42577
_cell_angle_gamma 126.41589

_symmetry_space_group_name_	'P 1'
_symmetry_space_group_name_H-M	'P 1'

loop_
_symmetry_equiv_pos_as_xyz
  x,y,z

loop_
_atom_site_label
_atom_site_type_symbol
_atom_site_fract_x
_atom_site_fract_y
_atom_site_fract_z
_atom_site_charge
C 	C 	0.94841 0.03686 0.00185 0.23800
C 	C 	0.04143 0.08139 0.00144 -0.13100
C 	C 	0.07700 0.03347 0.00050 0.23900
C 	C 	0.01965 0.94146 0.99982 -0.12900
C 	C 	0.92721 0.89724 0.00059 0.22100
C 	C 	0.89154 0.94480 0.00165 -0.14000
H 	H 	0.08560 0.15259 0.00152 0.14200
H 	H 	0.04700 0.90430 0.99873 0.13700
H 	H 	0.81957 0.91015 0.00165 0.13800
C 	C 	0.90819 0.99848 0.44765 0.19900
C 	C 	0.86169 0.90669 0.44837 -0.11400
C 	C 	0.90965 0.87044 0.44879 0.22800
C 	C 	0.00340 0.92608 0.44915 -0.14400
C 	C 	0.04941 0.01701 0.44858 0.24300
C 	C 	0.00187 0.05299 0.44745 -0.11300
H 	H 	0.78936 0.86424 0.44889 0.13800
H 	H 	0.04068 0.89863 0.45021 0.13700
H 	H 	0.03808 0.12377 0.44752 0.13600
Cu	Cu	0.62000 0.20563 0.00975 0.93600
Cu	Cu	0.68638 0.21774 0.89834 0.90500
Cu	Cu	0.65599 0.34419 0.94422 0.91400
Cu	Cu	0.62032 0.36713 0.04960 0.91700
C 	C 	0.65359 0.26993 0.11870 0.30400
O 	O 	0.48794 0.15040 0.01315 -0.32500
C 	C 	0.63439 0.29552 0.83143 0.30100
O 	O 	0.69061 0.34434 0.01504 -0.64000
O 	O 	0.60064 0.21456 0.93643 -0.63000
O 	O 	0.67862 0.14583 0.00221 -0.33200
O 	O 	0.77450 0.24410 0.95471 -0.39100
O 	O 	0.60959 0.30298 0.10758 -0.32800
O 	O 	0.71899 0.47167 0.95486 -0.33500
C 	C 	0.71967 0.52029 0.99446 0.40700
C 	C 	0.45061 0.18728 0.99667 0.39600
O 	O 	0.50269 0.27034 0.99021 -0.36100
O 	O 	0.66764 0.48369 0.02910 -0.34600
O 	O 	0.65760 0.21989 0.08251 -0.30300
C 	C 	0.75404 0.18427 0.98354 0.40000
O 	O 	0.63138 0.34328 0.86989 -0.31400
O 	O 	0.62759 0.22365 0.83755 -0.37000
H 	H 	0.75697 0.38509 0.02883 0.19500
H 	H 	0.53676 0.17443 0.91756 0.21200
Cu	Cu	0.76138 0.34520 0.44496 0.93600
Cu	Cu	0.74959 0.27978 0.55645 0.90300
Cu	Cu	0.61814 0.30520 0.51008 0.91100
Cu	Cu	0.59183 0.33793 0.40429 0.91900
C 	C 	0.69552 0.31134 0.33588 0.30500
O 	O 	0.81347 0.47521 0.44182 -0.31600
C 	C 	0.66886 0.32919 0.62305 0.30100
O 	O 	0.61942 0.27236 0.43931 -0.63600
O 	O 	0.75099 0.36280 0.51812 -0.63400
O 	O 	0.82181 0.28585 0.45226 -0.32100
O 	O 	0.72158 0.19260 0.50015 -0.39100
O 	O 	0.65923 0.35201 0.34684 -0.32600
O 	O 	0.48760 0.23995 0.49951 -0.33400
C 	C 	0.43602 0.23389 0.45872 0.39700
C 	C 	0.77190 0.50859 0.45703 0.38600
O 	O 	0.68756 0.45453 0.46364 -0.36400
O 	O 	0.47127 0.28545 0.42404 -0.33800
O 	O 	0.74815 0.30961 0.37217 -0.30400
C 	C 	0.78201 0.21163 0.47111 0.38700
O 	O 	0.61888 0.33003 0.58431 -0.31500
O 	O 	0.74284 0.33720 0.61704 -0.37100
H 	H 	0.57972 0.20719 0.42572 0.19700
H 	H 	0.79038 0.42550 0.53697 0.21000
C 	C 	0.56081 0.24860 0.73892 -0.01700
C 	C 	0.63210 0.31522 0.77903 -0.05500
C 	C 	0.70783 0.39411 0.76718 0.13100
C 	C 	0.71581 0.40157 0.71549 -0.01800
C 	C 	0.64852 0.33113 0.67540 -0.05600
C 	C 	0.56852 0.25630 0.68724 0.13100
Br	Br	0.47180 0.16094 0.63349 -0.13000
H 	H 	0.50123 0.18880 0.74785 0.10100
H 	H 	0.77641 0.46041 0.70657 0.09900
Br	Br	0.80407 0.48984 0.82095 -0.13400
C 	C 	0.62211 0.21019 0.25045 -0.02000
C 	C 	0.69785 0.29029 0.28144 -0.04800
C 	C 	0.76741 0.35609 0.25818 0.14100
C 	C 	0.75613 0.34522 0.20422 -0.02100
C 	C 	0.67625 0.26879 0.17320 -0.04800
C 	C 	0.61122 0.19897 0.19648 0.14100
Br	Br	0.50498 0.08970 0.15522 -0.07900
H 	H 	0.56941 0.15839 0.26821 0.09300
H 	H 	0.80744 0.39826 0.18646 0.09100
Br	Br	0.87619 0.46312 0.29946 -0.08600
C 	C 	0.81895 0.65727 0.49903 0.29300
C 	C 	0.81171 0.60280 0.45571 -0.19900
C 	C 	0.82820 0.63380 0.40880 0.29200
C 	C 	0.85313 0.71886 0.40547 0.25400
C 	C 	0.86274 0.77432 0.44914 -0.14200
C 	C 	0.84460 0.74270 0.49580 0.25600
F 	F 	0.85465 0.79585 0.53846 -0.35200
F 	F 	0.80133 0.62746 0.54432 -0.37500
F 	F 	0.87018 0.74842 0.36009 -0.35100
F 	F 	0.81739 0.58043 0.36601 -0.37000
C 	C 	0.84565 0.06059 0.49928 0.25200
C 	C 	0.86110 0.03972 0.45113 -0.12000
C 	C 	0.84841 0.07383 0.40900 0.24900
C 	C 	0.82369 0.13081 0.41550 0.30000
C 	C 	0.81127 0.15408 0.46419 -0.20200
C 	C 	0.82151 0.11783 0.50593 0.29600
F 	F 	0.81088 0.14035 0.55341 -0.39500
F 	F 	0.85854 0.02893 0.54040 -0.34300
F 	F 	0.81115 0.16270 0.37441 -0.36500
F 	F 	0.86265 0.05381 0.36213 -0.34700
C 	C 	0.18352 0.07214 0.40665 0.26200
C 	C 	0.14824 0.07517 0.45070 -0.14800
C 	C 	0.20758 0.13074 0.49741 0.25900
C 	C 	0.30171 0.18261 0.50017 0.29800
C 	C 	0.33716 0.17900 0.45617 -0.19700
C 	C 	0.27762 0.12378 0.40935 0.29500
F 	F 	0.31107 0.11906 0.36674 -0.37200
F 	F 	0.12643 0.01851 0.36133 -0.34200
F 	F 	0.35852 0.23750 0.54530 -0.35800
F 	F 	0.17383 0.13375 0.54022 -0.35300
C 	C 	0.87121 0.76849 0.04495 0.24900
C 	C 	0.86783 0.80080 0.99992 -0.12900
C 	C 	0.81381 0.74076 0.95329 0.25300
C 	C 	0.76497 0.64893 0.95142 0.30000
C 	C 	0.77009 0.61659 0.99626 -0.19300
C 	C 	0.82270 0.67676 0.04314 0.29000
F 	F 	0.82854 0.64631 0.08664 -0.37400
F 	F 	0.92317 0.82633 0.09024 -0.34500
F 	F 	0.71194 0.59128 0.90624 -0.35900
F 	F 	0.81014 0.77168 0.90959 -0.35400
C 	C 	0.89245 0.10544 0.95184 0.25600
C 	C 	0.90904 0.08506 0.99911 -0.12900
C 	C 	0.87831 0.10124 0.04203 0.24800
C 	C 	0.82875 0.13487 0.03723 0.29400
C 	C 	0.80951 0.15251 0.98942 -0.19900
C 	C 	0.84268 0.13870 0.94690 0.29500
F 	F 	0.82360 0.15421 0.90025 -0.39500
F 	F 	0.92149 0.08955 0.91009 -0.34500
F 	F 	0.79965 0.15056 0.07902 -0.36400
F 	F 	0.89507 0.08273 0.08810 -0.34700
C 	C 	0.29811 0.13504 0.95305 0.29000
C 	C 	0.35384 0.14348 0.99667 -0.19200
C 	C 	0.31978 0.12056 0.04242 0.28300
C 	C 	0.23056 0.08883 0.04440 0.26200
C 	C 	0.17440 0.07920 0.00059 -0.15800
C 	C 	0.20860 0.10277 0.95496 0.27000
F 	F 	0.15441 0.09256 0.91218 -0.34800
F 	F 	0.33072 0.15791 0.90878 -0.37300
F 	F 	0.19818 0.06661 0.08879 -0.34900
F 	F 	0.37420 0.13191 0.08546 -0.36700
