data_crystal

_cell_length_a 20.61932
_cell_length_b 21.30284
_cell_length_c 31.63452
_cell_angle_alpha 60.94007
_cell_angle_beta  118.80772
_cell_angle_gamma 133.20943

_symmetry_space_group_name_	'P 1'
_symmetry_space_group_name_H-M	'P 1'

loop_
_symmetry_equiv_pos_as_xyz
  x,y,z

loop_
_atom_site_label
_atom_site_type_symbol
_atom_site_fract_x
_atom_site_fract_y
_atom_site_fract_z
_atom_site_charge
Co	Co	0.03180 0.99210 0.05188 1.17800
Co	Co	0.08597 0.87203 0.06158 1.18700
O 	O 	0.00608 0.07838 0.03791 -0.41400
O 	O 	0.04033 0.90662 0.08756 -0.75700
Co	Co	0.06499 0.02605 0.55169 1.19300
Co	Co	0.02770 0.10858 0.59798 1.18500
Co	Co	0.10383 0.89041 0.56599 1.18500
O 	O 	0.04487 0.11719 0.53631 -0.43300
O 	O 	0.09955 0.83103 0.68474 -0.34800
O 	O 	0.06119 0.93409 0.58711 -0.76200
C 	C 	0.02104 0.90047 0.91558 0.34500
C 	C 	0.02231 0.91000 0.86856 -0.10400
H 	H 	0.06164 0.89550 0.86643 0.11900
F 	F 	0.06834 0.87205 0.95706 -0.44800
C 	C 	0.06205 0.95855 0.36413 -0.10600
C 	C 	0.06890 0.95738 0.41111 0.35200
H 	H 	0.10891 0.95507 0.36030 0.11500
F 	F 	0.07529 0.66660 0.20998 -0.43500
C 	C 	0.02799 0.19514 0.13259 0.35600
H 	H 	0.06310 0.67128 0.68144 0.13400
Co	Co	0.00893 0.84466 0.14285 1.18500
O 	O 	0.01294 0.96398 0.12607 -0.58300
O 	O 	0.04785 0.00113 0.62590 -0.54700
O 	O 	0.04981 0.06397 0.75799 -0.32500
C 	C 	0.00239 0.97861 0.77631 0.27100
O 	O 	0.05327 0.17114 0.11493 -0.33600
H 	H 	0.09937 0.37424 0.56919 0.09800
O 	O 	0.01307 0.05837 0.65720 -0.74400
O 	O 	0.01977 0.74232 0.10406 -0.38300
Co	Co	0.00862 0.86717 0.63517 1.18200
O 	O 	0.01483 0.75969 0.59986 -0.40000
F 	F 	0.13165 0.94798 0.45092 -0.44600
H 	H 	0.07754 0.23630 0.21608 0.10900
O 	O 	0.12295 0.83952 0.18463 -0.33800
O 	O 	0.13356 0.21778 0.68422 -0.34900
O 	O 	0.13381 0.23997 0.60568 -0.35800
F 	F 	0.13410 0.51727 0.57009 -0.39700
C 	C 	0.08897 0.28490 0.14031 -0.12200
F 	F 	0.11015 0.59981 0.66472 -0.40500
F 	F 	0.10268 0.35171 0.05582 -0.40000
C 	C 	0.09975 0.29375 0.18492 -0.07100
C 	C 	0.01005 0.96398 0.41721 -0.13000
C 	C 	0.11482 0.35924 0.09971 0.37000
H 	H 	0.13152 0.58888 0.20824 0.13100
O 	O 	0.15425 0.99810 0.01615 -0.37000
O 	O 	0.16846 0.08108 0.05020 -0.37000
C 	C 	0.15418 0.27086 0.64139 0.34600
C 	C 	0.16777 0.85045 0.67385 0.34400
C 	C 	0.15564 0.40488 0.59901 -0.06700
C 	C 	0.13624 0.70686 0.68893 -0.08000
C 	C 	0.13592 0.37554 0.18904 0.32900
F 	F 	0.14826 0.38305 0.23299 -0.40600
C 	C 	0.15746 0.70954 0.20195 0.36000
C 	C 	0.16997 0.67437 0.68173 0.32400
C 	C 	0.15170 0.44135 0.10398 -0.11000
C 	C 	0.16520 0.45071 0.14918 -0.06000
O 	O 	0.00308 0.87424 0.50150 -0.36200
C 	C 	0.00539 0.94349 0.46893 0.31300
C 	C 	0.17880 0.48036 0.60426 0.32200
O 	O 	0.99329 0.04663 0.23605 -0.35100
Co	Co	0.99983 0.11612 0.68785 1.18600
Co	Co	0.96407 0.04996 0.09574 1.19700
O 	O 	0.96973 0.83859 0.00538 -0.31300
O 	O 	0.94357 0.14472 0.13649 -0.37000
C 	C 	0.99905 0.98281 0.27085 0.31600
C 	C 	0.18057 0.85568 0.16614 0.33600
O 	O 	0.19437 0.90819 0.12187 -0.38600
O 	O 	0.19598 0.90981 0.63329 -0.34500
O 	O 	0.19134 0.01673 0.52793 -0.34500
O 	O 	0.20353 0.10794 0.55406 -0.36100
C 	C 	0.20131 0.36594 0.63398 -0.12900
C 	C 	0.27536 0.40769 0.67190 0.36600
C 	C 	0.19628 0.79055 0.69945 -0.11700
F 	F 	0.34960 0.90527 0.73112 -0.40100
C 	C 	0.21758 0.80297 0.19100 -0.12500
C 	C 	0.18023 0.66042 0.20209 -0.11300
C 	C 	0.68955 0.24270 0.04709 0.18400
N 	N 	0.60030 0.20785 0.03844 -0.10800
C 	C 	0.57816 0.24679 0.04722 0.19800
N 	N 	0.64464 0.32314 0.06212 -0.12100
C 	C 	0.73358 0.36213 0.06800 0.19600
N 	N 	0.75707 0.32167 0.06108 -0.12600
C 	C 	0.72254 0.30048 0.52456 0.18800
N 	N 	0.77836 0.38342 0.53241 -0.10400
C 	C 	0.74081 0.42023 0.52830 0.20000
N 	N 	0.64895 0.37423 0.51698 -0.11800
C 	C 	0.59387 0.28915 0.51426 0.20000
N 	N 	0.63034 0.25256 0.51716 -0.13500
C 	C 	0.28515 0.65396 0.18708 0.18900
N 	N 	0.37354 0.68838 0.19375 -0.09500
C 	C 	0.39256 0.65076 0.18124 0.20100
N 	N 	0.32387 0.57736 0.16356 -0.13600
C 	C 	0.23594 0.53891 0.15971 0.19200
N 	N 	0.21585 0.57724 0.17122 -0.12400
C 	C 	0.30299 0.70395 0.67004 0.18400
N 	N 	0.25479 0.62221 0.66281 -0.10200
C 	C 	0.28940 0.60863 0.64314 0.19500
N 	N 	0.37187 0.67576 0.63171 -0.13800
C 	C 	0.42312 0.75460 0.64234 0.18700
N 	N 	0.38748 0.76967 0.66001 -0.11600
Co	Co	0.94267 0.90270 0.18704 1.19100
C 	C 	0.20396 0.06941 0.03178 0.37200
Co	Co	0.88009 0.01417 0.17778 1.19100
C 	C 	0.93531 0.69560 0.10655 0.37600
O 	O 	0.77380 0.97857 0.11659 -0.37300
O 	O 	0.93848 0.99085 0.15299 -0.74400
C 	C 	0.78948 0.03156 0.07282 0.35000
O 	O 	0.96415 0.81392 0.20000 -0.41900
C 	C 	0.76403 0.81814 0.20039 0.35000
C 	C 	0.96462 0.90249 0.97045 0.32900
O 	O 	0.84217 0.04113 0.05405 -0.32900
O 	O 	0.96433 0.95567 0.98179 -0.34000
O 	O 	0.81087 0.88471 0.21965 -0.36600
O 	O 	0.80263 0.81644 0.17816 -0.36100
O 	O 	0.99686 0.92800 0.25932 -0.34200
O 	O 	0.91053 0.72815 0.11782 -0.35600
Co	Co	0.96192 0.94798 0.67678 1.18500
C 	C 	0.24164 0.08675 0.54477 0.35700
C 	C 	0.92898 0.72500 0.59221 0.37000
O 	O 	0.95832 0.18291 0.61974 -0.39500
C 	C 	0.90209 0.14982 0.58059 0.34300
O 	O 	0.93868 0.83622 0.67932 -0.42300
C 	C 	0.80781 0.94877 0.66359 0.33300
O 	O 	0.90873 0.10265 0.56881 -0.35800
O 	O 	0.99973 0.99167 0.48130 -0.34200
O 	O 	0.86653 0.00415 0.69313 -0.35000
O 	O 	0.83425 0.92245 0.64847 -0.35600
O 	O 	0.98558 0.92623 0.75511 -0.32800
O 	O 	0.90726 0.76531 0.59850 -0.36700
C 	C 	0.92736 0.95384 0.87601 -0.07000
C 	C 	0.97327 0.92230 0.91979 -0.08400
C 	C 	0.97820 0.94336 0.82477 -0.05800
C 	C 	0.93026 0.96501 0.82891 0.32400
F 	F 	0.88947 0.00022 0.78739 -0.43300
H 	H 	0.88943 0.96990 0.87815 0.11600
C 	C 	0.99663 0.96617 0.32237 -0.07900
C 	C 	0.93779 0.97288 0.32836 0.33100
C 	C 	0.94470 0.97183 0.37537 -0.05100
H 	H 	0.89739 0.97462 0.37927 0.11200
F 	F 	0.87370 0.98031 0.28868 -0.44300
C 	C 	0.29702 0.48150 0.67785 -0.11300
C 	C 	0.24895 0.51834 0.64424 -0.05200
F 	F 	0.32282 0.37319 0.70497 -0.41200
H 	H 	0.35370 0.51227 0.70768 0.12100
C 	C 	0.55102 0.81736 0.61020 -0.10000
C 	C 	0.52145 0.81700 0.64225 -0.05900
C 	C 	0.58683 0.86361 0.67969 0.33200
C 	C 	0.67957 0.90604 0.68636 -0.07800
C 	C 	0.70880 0.90242 0.65602 -0.09800
C 	C 	0.64373 0.85795 0.61766 0.37700
F 	F 	0.67037 0.85693 0.58637 -0.41000
H 	H 	0.50162 0.78355 0.58040 0.12500
H 	H 	0.72866 0.94038 0.71591 0.13800
F 	F 	0.56044 0.86441 0.71120 -0.41800
C 	C 	0.32470 0.79475 0.71111 -0.11200
C 	C 	0.26515 0.72189 0.68968 -0.04700
C 	C 	0.29039 0.82880 0.71604 0.36900
H 	H 	0.39797 0.82839 0.72113 0.14700
H 	H 	0.17470 0.49901 0.07302 0.11700
C 	C 	0.63419 0.72015 0.23927 -0.06300
C 	C 	0.66560 0.75430 0.19712 -0.12700
C 	C 	0.60444 0.74788 0.15018 0.36300
C 	C 	0.51570 0.71581 0.14499 -0.10800
C 	C 	0.48717 0.68909 0.18665 -0.05500
C 	C 	0.54579 0.68887 0.23403 0.33400
F 	F 	0.51715 0.65853 0.27495 -0.39600
H 	H 	0.68049 0.72347 0.27579 0.12400
H 	H 	0.46949 0.71304 0.10846 0.11800
F 	F 	0.63306 0.77878 0.10913 -0.42700
C 	C 	0.30618 0.84495 0.18878 -0.06800
C 	C 	0.26479 0.70408 0.19316 -0.04800
C 	C 	0.32934 0.79668 0.18873 0.32300
F 	F 	0.41255 0.84099 0.18137 -0.40200
H 	H 	0.35452 0.91660 0.18227 0.11700
C 	C 	0.71325 0.16606 0.54217 -0.11200
C 	C 	0.76192 0.25916 0.52804 -0.04900
C 	C 	0.84669 0.31165 0.51639 0.32600
C 	C 	0.88600 0.27189 0.52421 -0.06200
C 	C 	0.84331 0.18024 0.54567 -0.12100
C 	C 	0.75284 0.12701 0.54950 0.36300
F 	F 	0.70486 0.03758 0.56285 -0.42600
H 	H 	0.64573 0.12385 0.54875 0.12100
H 	H 	0.95279 0.31328 0.51701 0.10800
F 	F 	0.89121 0.40077 0.49776 -0.38800
C 	C 	0.82850 0.64443 0.52601 -0.06300
C 	C 	0.85892 0.64092 0.57696 -0.13000
C 	C 	0.85144 0.56411 0.61156 0.37000
C 	C 	0.82332 0.49635 0.59544 -0.10400
C 	C 	0.79742 0.50198 0.54448 -0.04400
C 	C 	0.79964 0.57637 0.50982 0.33000
F 	F 	0.77152 0.58161 0.46033 -0.39700
H 	H 	0.83332 0.70292 0.49881 0.11200
H 	H 	0.81799 0.43760 0.62261 0.12800
F 	F 	0.87725 0.55779 0.66104 -0.42000
C 	C 	0.47957 0.16992 0.56524 -0.10500
C 	C 	0.50052 0.23259 0.52006 -0.06000
C 	C 	0.44040 0.25583 0.48634 0.33000
C 	C 	0.35959 0.21564 0.49748 -0.06100
C 	C 	0.33738 0.15101 0.54203 -0.12200
C 	C 	0.39934 0.13056 0.57659 0.36100
F 	F 	0.37954 0.06921 0.62026 -0.40600
H 	H 	0.52710 0.15394 0.59234 0.12000
H 	H 	0.31173 0.23112 0.47026 0.11400
F 	F 	0.46079 0.31797 0.44293 -0.39800
C 	C 	0.66746 0.04800 0.04897 -0.05400
C 	C 	0.75590 0.08767 0.04778 -0.12300
C 	C 	0.81854 0.18108 0.03829 0.35600
C 	C 	0.79736 0.23199 0.03788 -0.10600
C 	C 	0.71204 0.19029 0.04513 -0.04900
C 	C 	0.64622 0.09770 0.04929 0.31900
F 	F 	0.56321 0.05467 0.05639 -0.40000
H 	H 	0.61745 0.97658 0.05465 0.11000
H 	H 	0.84740 0.30333 0.03223 0.12200
F 	F 	0.90079 0.22233 0.03104 -0.40700
C 	C 	0.80065 0.52193 0.03858 -0.10800
C 	C 	0.80203 0.45182 0.07712 -0.05700
C 	C 	0.84069 0.46041 0.12640 0.33000
C 	C 	0.87382 0.53625 0.13688 -0.06300
C 	C 	0.87033 0.60537 0.09829 -0.12100
C 	C 	0.83083 0.59615 0.04917 0.35900
F 	F 	0.82383 0.66042 0.01135 -0.42300
H 	H 	0.76933 0.51567 0.00049 0.11600
H 	H 	0.90477 0.54240 0.17494 0.14000
F 	F 	0.84178 0.39320 0.16442 -0.39800
C 	C 	0.41956 0.19043 0.99662 -0.10500
C 	C 	0.48256 0.20487 0.04251 -0.05300
C 	C 	0.45599 0.18718 0.08261 0.32500
C 	C 	0.36593 0.15165 0.07733 -0.06100
C 	C 	0.30145 0.13227 0.03228 -0.13900
C 	C 	0.32957 0.15515 0.99130 0.37700
F 	F 	0.26846 0.13954 0.94692 -0.41200
H 	H 	0.44038 0.20674 0.96504 0.12700
H 	H 	0.34489 0.13397 0.10919 0.10700
F 	F 	0.51685 0.20196 0.12713 -0.40200
