data_crystal

_cell_length_a 25.69378
_cell_length_b 26.51637
_cell_length_c 33.76754
_cell_angle_alpha 95.50933
_cell_angle_beta  95.50905
_cell_angle_gamma 125.84088

_symmetry_space_group_name_	'P 1'
_symmetry_space_group_name_H-M	'P 1'

loop_
_symmetry_equiv_pos_as_xyz
  x,y,z

loop_
_atom_site_label
_atom_site_type_symbol
_atom_site_fract_x
_atom_site_fract_y
_atom_site_fract_z
_atom_site_charge
C 	C 	0.92962 0.00223 0.00102 0.12200
N 	N 	0.89458 0.94299 0.00953 -0.14700
C 	C 	0.91529 0.90653 0.00378 0.11600
N 	N 	0.97140 0.92967 0.98946 -0.14000
C 	C 	0.00700 0.98909 0.98120 0.10500
N 	N 	0.98579 0.02523 0.98675 -0.13700
C 	C 	0.97576 0.02359 0.46338 0.12700
N 	N 	0.04212 0.06146 0.47071 -0.14900
C 	C 	0.07463 0.03621 0.47718 0.12400
N 	N 	0.04080 0.97323 0.47670 -0.15100
C 	C 	0.97451 0.93523 0.46935 0.12500
N 	N 	0.94187 0.96042 0.46282 -0.14800
Cu	Cu	0.60410 0.22865 0.99542 0.92500
Cu	Cu	0.66739 0.22927 0.91557 0.87100
Cu	Cu	0.62803 0.32345 0.94143 0.90900
Cu	Cu	0.56420 0.32046 0.01169 0.88900
C 	C 	0.59427 0.26699 0.07559 0.28200
O 	O 	0.50471 0.17000 0.98501 -0.36200
C 	C 	0.67462 0.31859 0.87029 0.28600
O 	O 	0.63448 0.32193 0.99811 -0.63700
O 	O 	0.60339 0.23597 0.93725 -0.63300
O 	O 	0.66923 0.21002 0.00462 -0.38400
O 	O 	0.64935 0.16095 0.93994 -0.43100
O 	O 	0.55346 0.27714 0.05862 -0.38700
O 	O 	0.65817 0.41008 0.94827 -0.38100
C 	C 	0.64332 0.43559 0.97621 0.29100
C 	C 	0.46991 0.18521 0.96593 0.28800
O 	O 	0.49843 0.24386 0.96083 -0.39700
O 	O 	0.59064 0.39975 0.99197 -0.39600
O 	O 	0.61347 0.23881 0.05355 -0.36000
C 	C 	0.67133 0.17111 0.97869 0.30000
O 	O 	0.63219 0.32389 0.88480 -0.38300
O 	O 	0.70873 0.30639 0.89340 -0.43300
H 	H 	0.67783 0.35653 0.01469 0.15200
H 	H 	0.55976 0.20437 0.92000 0.15600
Cu	Cu	0.77397 0.36261 0.44894 0.92600
Cu	Cu	0.80037 0.32111 0.53311 0.86800
Cu	Cu	0.69198 0.33165 0.51529 0.89600
Cu	Cu	0.65057 0.36186 0.44100 0.89200
C 	C 	0.70042 0.33879 0.37072 0.28500
O 	O 	0.81034 0.45474 0.44984 -0.36400
C 	C 	0.76480 0.36449 0.59827 0.28500
O 	O 	0.67648 0.31266 0.45740 -0.64000
O 	O 	0.78502 0.37546 0.50880 -0.64000
O 	O 	0.81879 0.32202 0.44179 -0.37600
O 	O 	0.76796 0.25766 0.48656 -0.44700
O 	O 	0.68019 0.36972 0.38796 -0.38800
O 	O 	0.59995 0.28398 0.51757 -0.38700
C 	C 	0.55749 0.28707 0.49478 0.29800
C 	C 	0.78770 0.48057 0.47020 0.29200
O 	O 	0.73272 0.44411 0.48307 -0.39900
O 	O 	0.57593 0.32835 0.47029 -0.40300
O 	O 	0.74603 0.33729 0.39105 -0.35900
C 	C 	0.79955 0.27060 0.45632 0.29600
O 	O 	0.70752 0.33690 0.57433 -0.39100
O 	O 	0.81202 0.36533 0.58524 -0.41900
H 	H 	0.64588 0.26691 0.44546 0.16000
H 	H 	0.81447 0.42022 0.52299 0.16800
C 	C 	0.68160 0.34062 0.75735 -0.00300
C 	C 	0.68012 0.36436 0.72235 -0.05700
C 	C 	0.73110 0.38430 0.70087 0.01300
C 	C 	0.78445 0.38506 0.71618 0.00000
C 	C 	0.78581 0.36115 0.75118 -0.05900
C 	C 	0.73472 0.34105 0.77256 0.01200
S 	S 	0.64457 0.33960 0.79537 0.01200
C 	C 	0.69284 0.33837 0.83166 -0.08000
C 	C 	0.74025 0.33826 0.81433 -0.02700
S 	S 	0.82025 0.38447 0.67790 0.00400
C 	C 	0.77291 0.38681 0.64156 -0.07600
C 	C 	0.72454 0.38535 0.65882 -0.02400
H 	H 	0.63960 0.36514 0.71141 0.04200
H 	H 	0.82615 0.36007 0.76204 0.04000
H 	H 	0.77863 0.33891 0.83137 0.03400
H 	H 	0.68148 0.37614 0.64099 0.04200
C 	C 	0.62419 0.32352 0.19161 -0.00100
C 	C 	0.61156 0.32822 0.23061 -0.05800
C 	C 	0.65512 0.33538 0.26295 0.01500
C 	C 	0.70748 0.33449 0.25592 -0.00300
C 	C 	0.71334 0.31896 0.21651 -0.05600
C 	C 	0.67210 0.31564 0.18411 0.01300
S 	S 	0.56931 0.29370 0.14932 0.00500
C 	C 	0.60409 0.27170 0.11975 -0.06900
C 	C 	0.66148 0.28739 0.14337 -0.02800
S 	S 	0.73522 0.32249 0.29786 0.02500
C 	C 	0.68365 0.31960 0.32632 -0.07700
C 	C 	0.64180 0.32732 0.30244 -0.02200
H 	H 	0.56795 0.32358 0.23542 0.04100
H 	H 	0.74657 0.30754 0.21129 0.04300
H 	H 	0.69446 0.27952 0.13167 0.04300
H 	H 	0.60421 0.32852 0.31341 0.03300
C 	C 	0.91048 0.76578 0.43399 -0.07800
C 	C 	0.88721 0.73963 0.46809 -0.00900
C 	C 	0.88778 0.77661 0.50143 0.03700
C 	C 	0.91355 0.83998 0.50055 -0.04800
C 	C 	0.93834 0.86655 0.46686 -0.04700
C 	C 	0.93496 0.82871 0.43279 0.06500
C 	C 	0.86155 0.67305 0.46844 0.00800
C 	C 	0.86267 0.74923 0.53832 -0.17700
H 	H 	0.91605 0.86918 0.52657 0.04100
C 	C 	0.95949 0.85588 0.39572 -0.18200
H 	H 	0.90940 0.73704 0.40833 0.04700
C 	C 	0.79587 0.62281 0.45112 0.01900
C 	C 	0.77281 0.56016 0.45171 -0.01100
C 	C 	0.81421 0.54700 0.46959 -0.11200
C 	C 	0.87984 0.59728 0.48716 0.09800
C 	C 	0.90323 0.66000 0.48596 -0.09500
C 	C 	0.75054 0.63579 0.43157 -0.16900
H 	H 	0.72256 0.52142 0.43807 0.02300
C 	C 	0.92499 0.58439 0.50711 -0.20200
H 	H 	0.95374 0.69877 0.49900 0.05100
H 	H 	0.94356 0.81810 0.36952 0.06000
H 	H 	0.01375 0.88878 0.40226 0.06200
H 	H 	0.94011 0.88199 0.38675 0.06500
H 	H 	0.89394 0.73773 0.55329 0.06300
H 	H 	0.81158 0.70549 0.52946 0.06200
H 	H 	0.86295 0.78298 0.56072 0.05900
H 	H 	0.69991 0.59168 0.42130 0.05600
H 	H 	0.76821 0.65768 0.40478 0.06200
H 	H 	0.74859 0.66838 0.45351 0.06000
H 	H 	0.93556 0.56071 0.48382 0.07400
H 	H 	0.90210 0.55352 0.52960 0.06200
H 	H 	0.97217 0.62882 0.52338 0.06400
C 	C 	0.79966 0.12934 0.42966 -0.09900
C 	C 	0.86680 0.15823 0.43899 0.00900
C 	C 	0.91204 0.22497 0.44616 0.01700
C 	C 	0.88913 0.26180 0.44853 -0.01600
C 	C 	0.82186 0.23273 0.44309 -0.11900
C 	C 	0.77680 0.16621 0.43092 0.10000
C 	C 	0.88913 0.11855 0.44464 -0.00900
C 	C 	0.98458 0.25699 0.45356 -0.16300
H 	H 	0.92369 0.31297 0.45672 0.02800
C 	C 	0.70433 0.13413 0.42116 -0.20300
H 	H 	0.76510 0.07808 0.42288 0.05100
C 	C 	0.89692 0.10442 0.48309 0.03800
C 	C 	0.92314 0.07109 0.48841 -0.04700
C 	C 	0.94077 0.05108 0.45583 -0.04600
C 	C 	0.92953 0.06204 0.41689 0.06300
C 	C 	0.90415 0.09616 0.41165 -0.07700
C 	C 	0.87868 0.12597 0.51863 -0.17600
H 	H 	0.93118 0.06190 0.51815 0.04200
C 	C 	0.94664 0.03942 0.38123 -0.17700
H 	H 	0.89725 0.10636 0.38208 0.04600
H 	H 	0.68488 0.12909 0.44965 0.06900
H 	H 	0.67794 0.08628 0.40213 0.06500
H 	H 	0.69413 0.16207 0.40399 0.07100
H 	H 	0.99693 0.23697 0.42901 0.06200
H 	H 	0.99986 0.24982 0.48308 0.05800
H 	H 	0.01306 0.30874 0.45418 0.05100
H 	H 	0.88517 0.10891 0.54613 0.05800
H 	H 	0.82660 0.10723 0.51133 0.06100
H 	H 	0.90993 0.17852 0.52585 0.05800
H 	H 	0.92723 0.04432 0.35218 0.06000
H 	H 	0.92541 0.98860 0.37938 0.06200
H 	H 	0.00058 0.06767 0.38465 0.05900
C 	C 	0.24757 0.13682 0.45761 -0.07800
C 	C 	0.28306 0.14562 0.49514 -0.00900
C 	C 	0.25029 0.12104 0.52744 0.03700
C 	C 	0.18207 0.08669 0.52134 -0.04800
C 	C 	0.14639 0.07660 0.48352 -0.04800
C 	C 	0.17927 0.10164 0.45130 0.06500
C 	C 	0.35462 0.18017 0.50015 0.00800
C 	C 	0.28784 0.13119 0.56830 -0.17700
H 	H 	0.15656 0.06725 0.54594 0.04100
C 	C 	0.14189 0.09139 0.41034 -0.18800
H 	H 	0.27315 0.15652 0.43308 0.04500
C 	C 	0.38126 0.14886 0.48742 0.02000
C 	C 	0.44863 0.18427 0.48768 -0.01500
C 	C 	0.48952 0.25008 0.50102 -0.11300
C 	C 	0.46364 0.28051 0.51699 0.10100
C 	C 	0.39603 0.24547 0.51551 -0.09800
C 	C 	0.33768 0.07833 0.47174 -0.17000
H 	H 	0.46891 0.16092 0.47619 0.02700
C 	C 	0.50746 0.35052 0.53438 -0.20400
H 	H 	0.37547 0.26913 0.52584 0.05000
H 	H 	0.17366 0.10727 0.38725 0.06000
H 	H 	0.12175 0.11868 0.41245 0.06700
H 	H 	0.10122 0.04029 0.39959 0.06500
H 	H 	0.32244 0.18262 0.58126 0.06300
H 	H 	0.31563 0.11151 0.56520 0.06300
H 	H 	0.25488 0.10752 0.59002 0.05900
H 	H 	0.36659 0.06000 0.46786 0.05600
H 	H 	0.30732 0.06730 0.44193 0.06100
H 	H 	0.30522 0.05306 0.49334 0.06100
H 	H 	0.48299 0.36383 0.55359 0.06400
H 	H 	0.52033 0.37775 0.50941 0.07300
H 	H 	0.55288 0.36414 0.55373 0.07300
C 	C 	0.85966 0.74357 0.01982 -0.07600
C 	C 	0.79238 0.70780 0.00490 -0.01800
C 	C 	0.76419 0.73867 0.99577 0.04200
C 	C 	0.80492 0.80398 0.99610 -0.04800
C 	C 	0.87299 0.83952 0.00853 -0.04900
C 	C 	0.89988 0.80967 0.02347 0.06200
C 	C 	0.75238 0.63790 0.99713 0.01500
C 	C 	0.69100 0.70199 0.98470 -0.17500
H 	H 	0.78376 0.82693 0.98592 0.04400
C 	C 	0.97094 0.84753 0.04320 -0.18100
H 	H 	0.88078 0.71988 0.02837 0.04500
C 	C 	0.73785 0.60361 0.95795 0.02100
C 	C 	0.69886 0.53727 0.95127 -0.01600
C 	C 	0.67827 0.50493 0.98367 -0.10300
C 	C 	0.69574 0.53973 0.02334 0.08700
C 	C 	0.73080 0.60580 0.02940 -0.09900
C 	C 	0.76507 0.63760 0.92345 -0.17000
H 	H 	0.68570 0.51076 0.92091 0.04500
C 	C 	0.67800 0.50707 0.05932 -0.19500
H 	H 	0.74256 0.63249 0.05948 0.05000
H 	H 	0.00121 0.85687 0.01961 0.06200
H 	H 	0.97877 0.82132 0.06376 0.06000
H 	H 	0.98771 0.89310 0.06184 0.06700
H 	H 	0.66685 0.67043 0.00664 0.06100
H 	H 	0.67283 0.67293 0.95381 0.06100
H 	H 	0.67650 0.73411 0.98530 0.05900
H 	H 	0.75340 0.60420 0.89558 0.06100
H 	H 	0.81913 0.67223 0.93184 0.06400
H 	H 	0.74417 0.66298 0.91620 0.06100
H 	H 	0.70493 0.54163 0.08836 0.06100
H 	H 	0.69076 0.47361 0.05880 0.05100
H 	H 	0.62486 0.48104 0.05895 0.06400
C 	C 	0.85115 0.07655 0.03933 -0.07900
C 	C 	0.83180 0.08817 0.00324 -0.01000
C 	C 	0.85193 0.07902 0.96747 0.04000
C 	C 	0.88711 0.05385 0.96773 -0.04400
C 	C 	0.90317 0.03869 0.00329 -0.05000
C 	C 	0.88785 0.05297 0.03984 0.06600
C 	C 	0.78955 0.10905 0.00292 0.00100
C 	C 	0.83450 0.09443 0.92881 -0.17800
H 	H 	0.90006 0.04399 0.93991 0.04300
C 	C 	0.90863 0.04133 0.07911 -0.18500
H 	H 	0.83680 0.08499 0.06691 0.04700
C 	C 	0.72080 0.06450 0.99289 0.02900
C 	C 	0.68233 0.08574 0.98690 -0.01600
C 	C 	0.71152 0.15068 0.99166 -0.11000
C 	C 	0.78012 0.19531 0.00416 0.08700
C 	C 	0.81847 0.17395 0.01014 -0.09200
C 	C 	0.68857 0.99441 0.98712 -0.17100
H 	H 	0.62972 0.05168 0.97756 0.03500
C 	C 	0.81275 0.26553 0.01017 -0.19900
H 	H 	0.87118 0.20788 0.01886 0.04800
H 	H 	0.90777 0.06894 0.10562 0.06200
H 	H 	0.95934 0.05603 0.08177 0.06900
H 	H 	0.87491 0.99024 0.08044 0.06600
H 	H 	0.85275 0.14466 0.93391 0.06300
H 	H 	0.78063 0.06326 0.91855 0.06200
H 	H 	0.85659 0.08753 0.90411 0.05900
H 	H 	0.63449 0.96614 0.98285 0.05700
H 	H 	0.70552 0.98341 0.01418 0.05900
H 	H 	0.70102 0.97946 0.96001 0.06000
H 	H 	0.86688 0.29378 0.01729 0.06100
H 	H 	0.79702 0.27966 0.03575 0.07300
H 	H 	0.79969 0.27766 0.98217 0.04700
C 	C 	0.14267 0.00269 0.93516 -0.06500
C 	C 	0.19733 0.06119 0.95730 -0.01500
C 	C 	0.18864 0.09991 0.98307 0.04600
C 	C 	0.12572 0.07638 0.98975 -0.05300
C 	C 	0.07117 0.01615 0.96942 -0.03400
C 	C 	0.07935 0.98071 0.93998 0.05200
C 	C 	0.26370 0.08065 0.95458 0.01000
C 	C 	0.24642 0.16544 0.00442 -0.18900
H 	H 	0.11940 0.10429 0.01157 0.04100
C 	C 	0.02123 0.91923 0.91411 -0.18900
H 	H 	0.14945 0.97394 0.91448 0.04000
C 	C 	0.29874 0.07222 0.98462 0.02200
C 	C 	0.36601 0.10344 0.98656 -0.01300
C 	C 	0.39774 0.14020 0.95765 -0.11200
C 	C 	0.36014 0.13979 0.92392 0.09500
C 	C 	0.29375 0.11185 0.92341 -0.09700
C 	C 	0.26542 0.03276 0.01584 -0.16800
H 	H 	0.39418 0.10153 0.01161 0.04100
C 	C 	0.39059 0.17023 0.88901 -0.19900
H 	H 	0.26591 0.11575 0.89931 0.05000
H 	H 	0.00450 0.88002 0.93108 0.06800
H 	H 	0.03401 0.90788 0.88577 0.06000
H 	H 	0.98052 0.92223 0.90510 0.07200
H 	H 	0.27711 0.19237 0.98251 0.06800
H 	H 	0.27638 0.16211 0.02845 0.06300
H 	H 	0.23067 0.19274 0.01872 0.06000
H 	H 	0.29599 0.02170 0.03244 0.05900
H 	H 	0.21835 0.98703 0.00101 0.05700
H 	H 	0.25593 0.05874 0.03810 0.06000
H 	H 	0.35326 0.14813 0.86071 0.06300
H 	H 	0.42865 0.16418 0.88325 0.06400
H 	H 	0.41276 0.22148 0.89579 0.07300
