data_crystal

_cell_length_a 26.15511
_cell_length_b 26.53319
_cell_length_c 34.80953
_cell_angle_alpha 95.50299
_cell_angle_beta  95.49998
_cell_angle_gamma 125.84091

_symmetry_space_group_name_	'P 1'
_symmetry_space_group_name_H-M	'P 1'

loop_
_symmetry_equiv_pos_as_xyz
  x,y,z

loop_
_atom_site_label
_atom_site_type_symbol
_atom_site_fract_x
_atom_site_fract_y
_atom_site_fract_z
_atom_site_charge
C 	C 	0.96098 0.00885 0.99961 0.05900
C 	C 	0.02403 0.04014 0.99285 -0.08100
C 	C 	0.05204 0.00840 0.99136 0.07100
C 	C 	0.01676 0.94526 0.99640 -0.08100
C 	C 	0.95339 0.91353 0.00222 0.07000
C 	C 	0.92597 0.94565 0.00458 -0.08600
H 	H 	0.05084 0.08864 0.98831 0.06900
H 	H 	0.03818 0.92052 0.99504 0.07200
H 	H 	0.87698 0.92109 0.00929 0.05900
C 	C 	0.94076 0.02072 0.45970 0.06500
C 	C 	0.90559 0.95599 0.46111 -0.09300
C 	C 	0.93711 0.92782 0.46439 0.06600
C 	C 	0.00373 0.96449 0.46651 -0.07500
C 	C 	0.03885 0.02903 0.46507 0.06900
C 	C 	0.00742 0.05715 0.46185 -0.08200
H 	H 	0.85402 0.92766 0.45935 0.06000
H 	H 	0.02809 0.94272 0.46894 0.07400
H 	H 	0.03466 0.10716 0.46081 0.06800
Cu	Cu	0.63446 0.22185 0.99902 0.92700
Cu	Cu	0.69486 0.23922 0.91903 0.87400
Cu	Cu	0.66636 0.32486 0.95154 0.89800
Cu	Cu	0.62613 0.33217 0.02820 0.90100
C 	C 	0.64574 0.26096 0.08122 0.31100
O 	O 	0.53929 0.17928 0.99604 -0.36500
C 	C 	0.66054 0.29452 0.86599 0.30700
O 	O 	0.68181 0.32011 0.00567 -0.63600
O 	O 	0.62863 0.23296 0.94368 -0.64000
O 	O 	0.67837 0.18083 0.99607 -0.37500
O 	O 	0.75142 0.25475 0.96452 -0.42600
O 	O 	0.61367 0.28326 0.07106 -0.37000
O 	O 	0.70901 0.41518 0.96230 -0.37500
C 	C 	0.70523 0.44644 0.99243 0.31400
C 	C 	0.51228 0.20456 0.98217 0.30700
O 	O 	0.54831 0.26474 0.97976 -0.38000
O 	O 	0.66147 0.41671 0.01449 -0.38200
O 	O 	0.65317 0.22783 0.05466 -0.35900
C 	C 	0.73381 0.20937 0.98447 0.31100
O 	O 	0.66124 0.33081 0.89533 -0.36700
O 	O 	0.65770 0.24448 0.87126 -0.41800
H 	H 	0.72745 0.34898 0.01894 0.17200
H 	H 	0.58518 0.20508 0.92708 0.17800
Cu	Cu	0.74487 0.36160 0.45317 0.93000
Cu	Cu	0.74557 0.31626 0.53737 0.87300
Cu	Cu	0.64011 0.31951 0.50197 0.89900
Cu	Cu	0.61881 0.34688 0.42297 0.89800
C 	C 	0.69813 0.33833 0.37055 0.30900
O 	O 	0.77428 0.45145 0.45234 -0.35700
C 	C 	0.68292 0.34395 0.58847 0.31400
O 	O 	0.64438 0.30322 0.44796 -0.63900
O 	O 	0.73544 0.36946 0.50857 -0.64100
O 	O 	0.79621 0.32840 0.45821 -0.36700
O 	O 	0.73136 0.25699 0.49447 -0.43800
O 	O 	0.66813 0.36295 0.37945 -0.38400
O 	O 	0.54741 0.26663 0.49205 -0.38400
C 	C 	0.51088 0.27259 0.46691 0.31500
C 	C 	0.74186 0.47116 0.46513 0.30700
O 	O 	0.68216 0.42958 0.46902 -0.39300
O 	O 	0.53136 0.30112 0.43664 -0.37800
O 	O 	0.73796 0.33981 0.39784 -0.34700
C 	C 	0.77248 0.27484 0.47062 0.31600
O 	O 	0.63552 0.32198 0.55845 -0.38300
O 	O 	0.73738 0.35428 0.58331 -0.41600
H 	H 	0.62013 0.25783 0.43626 0.17300
H 	H 	0.75881 0.41337 0.52310 0.18400
C 	C 	0.71301 0.39744 0.69796 -0.11300
C 	C 	0.66057 0.34297 0.70818 0.00600
C 	C 	0.61070 0.29320 0.67844 0.12100
C 	C 	0.61574 0.29626 0.63891 -0.03400
C 	C 	0.67119 0.34804 0.62883 -0.12300
C 	C 	0.71888 0.39987 0.65848 0.19400
C 	C 	0.66289 0.33401 0.74935 0.00300
O 	O 	0.55765 0.24092 0.68799 -0.27300
H 	H 	0.57819 0.25671 0.61623 0.05900
O 	O 	0.77084 0.45312 0.64889 -0.28900
H 	H 	0.75085 0.43658 0.72074 0.07300
C 	C 	0.70134 0.31713 0.76499 0.11500
C 	C 	0.70057 0.30483 0.80317 -0.03500
C 	C 	0.66188 0.30956 0.82622 -0.12300
C 	C 	0.62363 0.32690 0.81067 0.19300
C 	C 	0.62468 0.33952 0.77242 -0.10900
O 	O 	0.73775 0.31015 0.74238 -0.27900
H 	H 	0.73012 0.29153 0.81488 0.04700
O 	O 	0.58512 0.33130 0.83266 -0.28000
H 	H 	0.59497 0.35251 0.76048 0.08100
H 	H 	0.80502 0.44719 0.65087 0.15200
H 	H 	0.78025 0.35222 0.74770 0.14200
H 	H 	0.54334 0.28852 0.82665 0.15100
H 	H 	0.56834 0.21096 0.69027 0.14900
C 	C 	0.68821 0.25377 0.27298 -0.11200
C 	C 	0.69370 0.29461 0.24809 0.00500
C 	C 	0.70509 0.35185 0.26395 0.12500
C 	C 	0.70819 0.36663 0.30416 -0.03400
C 	C 	0.70037 0.32478 0.32894 -0.11600
C 	C 	0.69134 0.26856 0.31331 0.18900
C 	C 	0.68183 0.27502 0.20511 0.00600
O 	O 	0.70999 0.39191 0.23984 -0.27200
H 	H 	0.71595 0.41037 0.31603 0.06400
O 	O 	0.68521 0.22791 0.33731 -0.27800
H 	H 	0.67995 0.20985 0.26093 0.07500
C 	C 	0.73331 0.30225 0.18472 0.12000
C 	C 	0.72116 0.29404 0.14365 -0.03500
C 	C 	0.65786 0.25847 0.12283 -0.11800
C 	C 	0.60641 0.22674 0.14300 0.19600
C 	C 	0.61854 0.23530 0.18403 -0.11100
O 	O 	0.79545 0.34002 0.20500 -0.27500
H 	H 	0.76099 0.31766 0.12819 0.05400
O 	O 	0.54421 0.19003 0.12282 -0.28100
H 	H 	0.57871 0.21330 0.19956 0.07700
H 	H 	0.63852 0.19812 0.33718 0.14500
H 	H 	0.80720 0.31098 0.20783 0.15000
H 	H 	0.53242 0.14685 0.11613 0.15400
H 	H 	0.75645 0.42162 0.23928 0.15700
C 	C 	0.85933 0.75395 0.43230 -0.09400
C 	C 	0.84508 0.73220 0.46774 -0.01000
C 	C 	0.85669 0.77385 0.50143 0.14000
C 	C 	0.88459 0.83740 0.49983 -0.07900
C 	C 	0.90037 0.85951 0.46463 -0.04700
C 	C 	0.88649 0.81725 0.43058 0.15200
C 	C 	0.81793 0.66572 0.46940 0.01300
O 	O 	0.84275 0.75304 0.53622 -0.27600
H 	H 	0.89521 0.86977 0.52615 0.06400
O 	O 	0.90184 0.83838 0.39601 -0.27800
H 	H 	0.84986 0.72187 0.40617 0.06900
C 	C 	0.75229 0.61738 0.45512 0.11400
C 	C 	0.72751 0.55412 0.45480 -0.03000
C 	C 	0.76806 0.53840 0.46814 -0.12400
C 	C 	0.83368 0.58700 0.48304 0.19600
C 	C 	0.85823 0.65039 0.48378 -0.11300
O 	O 	0.71204 0.63198 0.44214 -0.27300
H 	H 	0.67695 0.51716 0.44336 0.05200
O 	O 	0.87329 0.57287 0.49827 -0.29300
H 	H 	0.90876 0.68758 0.49517 0.08100
H 	H 	0.86327 0.83281 0.38241 0.14800
H 	H 	0.71211 0.63110 0.41359 0.14500
H 	H 	0.89326 0.56967 0.47625 0.15700
H 	H 	0.79791 0.73796 0.53603 0.15400
C 	C 	0.77213 0.13336 0.44368 -0.11800
C 	C 	0.83793 0.16151 0.45251 0.01200
C 	C 	0.88252 0.22778 0.46314 0.11800
C 	C 	0.86093 0.26518 0.46638 -0.03200
C 	C 	0.79490 0.23671 0.45996 -0.12700
C 	C 	0.75044 0.17059 0.44760 0.19800
C 	C 	0.85974 0.12133 0.45336 -0.01200
O 	O 	0.94717 0.25602 0.47045 -0.27100
H 	H 	0.89547 0.31607 0.47553 0.05500
O 	O 	0.68591 0.14247 0.43854 -0.28900
H 	H 	0.73767 0.08242 0.43480 0.07300
C 	C 	0.86278 0.09826 0.48760 0.13400
C 	C 	0.88717 0.06336 0.48904 -0.07900
C 	C 	0.90805 0.05076 0.45634 -0.04800
C 	C 	0.90250 0.07160 0.42153 0.15100
C 	C 	0.87879 0.10713 0.42025 -0.09100
O 	O 	0.84450 0.11209 0.52022 -0.28400
H 	H 	0.89126 0.04739 0.51590 0.06200
O 	O 	0.92239 0.05923 0.38925 -0.28300
H 	H 	0.87595 0.12428 0.39369 0.07500
H 	H 	0.66946 0.12930 0.46301 0.14800
H 	H 	0.79822 0.07684 0.51747 0.14400
H 	H 	0.88404 0.01813 0.37397 0.14900
H 	H 	0.95828 0.25857 0.49898 0.14900
C 	C 	0.34669 0.23489 0.46345 -0.11700
C 	C 	0.31105 0.17285 0.47050 0.01200
C 	C 	0.34166 0.14455 0.47814 0.11900
C 	C 	0.40720 0.17767 0.47748 -0.03000
C 	C 	0.44274 0.23936 0.46961 -0.12100
C 	C 	0.41244 0.26843 0.46334 0.19500
C 	C 	0.24140 0.13708 0.46900 -0.00900
O 	O 	0.30712 0.08377 0.48498 -0.27000
H 	H 	0.43011 0.15496 0.48240 0.06000
O 	O 	0.44682 0.32927 0.45660 -0.28800
H 	H 	0.32335 0.25705 0.45793 0.07500
C 	C 	0.21779 0.14379 0.50223 0.13600
C 	C 	0.15147 0.10848 0.50077 -0.07700
C 	C 	0.10852 0.06693 0.46613 -0.04500
C 	C 	0.13219 0.06117 0.43266 0.15400
C 	C 	0.19846 0.09591 0.43428 -0.08900
O 	O 	0.25940 0.18325 0.53652 -0.27800
H 	H 	0.13343 0.11310 0.52661 0.06500
O 	O 	0.09057 0.02046 0.39867 -0.27500
H 	H 	0.21650 0.09077 0.40857 0.07600
H 	H 	0.46293 0.35658 0.48294 0.15000
H 	H 	0.26851 0.22485 0.53495 0.14700
H 	H 	0.08273 0.04596 0.38363 0.15400
H 	H 	0.30961 0.08802 0.51384 0.15400
C 	C 	0.83532 0.73623 0.96945 -0.09800
C 	C 	0.84458 0.71527 0.00306 -0.00700
C 	C 	0.88805 0.75957 0.03696 0.14100
C 	C 	0.92306 0.82444 0.03671 -0.07900
C 	C 	0.91423 0.84537 0.00295 -0.04100
C 	C 	0.86963 0.80102 0.96937 0.14800
C 	C 	0.80967 0.64694 0.00234 0.02000
O 	O 	0.89766 0.73954 0.06995 -0.27600
H 	H 	0.95735 0.85846 0.06265 0.06600
O 	O 	0.86152 0.82099 0.93594 -0.27900
H 	H 	0.80185 0.70222 0.94328 0.06900
C 	C 	0.74463 0.60931 0.00572 0.11000
C 	C 	0.71101 0.54395 0.00311 -0.02000
C 	C 	0.74169 0.51558 0.99660 -0.12900
C 	C 	0.80704 0.55346 0.99361 0.20000
C 	C 	0.84078 0.61893 0.99669 -0.12100
O 	O 	0.71428 0.63655 0.01244 -0.26700
H 	H 	0.66078 0.51520 0.00552 0.06200
O 	O 	0.83861 0.52696 0.98927 -0.29800
H 	H 	0.89104 0.64789 0.99434 0.08100
H 	H 	0.82636 0.82480 0.93827 0.14500
H 	H 	0.69518 0.63529 0.98600 0.14100
H 	H 	0.83564 0.51752 0.96053 0.15500
H 	H 	0.86594 0.73512 0.08561 0.15400
C 	C 	0.84279 0.16300 0.96546 -0.11300
C 	C 	0.83856 0.13203 0.99674 0.00800
C 	C 	0.80208 0.12871 0.02494 0.11600
C 	C 	0.76970 0.15588 0.02147 -0.02400
C 	C 	0.77204 0.18504 0.98937 -0.13600
C 	C 	0.80879 0.18828 0.96115 0.19300
C 	C 	0.86880 0.09943 0.99832 -0.01800
O 	O 	0.79833 0.09929 0.05602 -0.27300
H 	H 	0.74217 0.15360 0.04351 0.06400
O 	O 	0.81097 0.21544 0.92913 -0.30200
H 	H 	0.87096 0.16575 0.94371 0.08000
C 	C 	0.84420 0.04473 0.97042 0.13600
C 	C 	0.87533 0.01623 0.97052 -0.08200
C 	C 	0.93003 0.04083 0.99905 -0.04700
C 	C 	0.95366 0.09458 0.02764 0.14700
C 	C 	0.92348 0.12412 0.02687 -0.08200
O 	O 	0.79054 0.01993 0.94249 -0.28300
H 	H 	0.85675 0.97474 0.94852 0.06500
O 	O 	0.00669 0.11877 0.05597 -0.27200
H 	H 	0.94258 0.16622 0.04845 0.07500
H 	H 	0.77510 0.18036 0.90845 0.12700
H 	H 	0.75379 0.98930 0.95444 0.14500
H 	H 	0.98969 0.09676 0.07816 0.14500
H 	H 	0.76064 0.05441 0.04679 0.14600
C 	C 	0.19457 0.04477 0.94774 -0.09300
C 	C 	0.24564 0.09325 0.97723 -0.01800
C 	C 	0.23316 0.11778 0.00964 0.15000
C 	C 	0.16973 0.09179 0.01321 -0.07400
C 	C 	0.11850 0.04123 0.98465 -0.04900
C 	C 	0.13116 0.01914 0.95114 0.15100
C 	C 	0.31187 0.11608 0.97516 0.01700
O 	O 	0.28291 0.16768 0.03753 -0.27500
H 	H 	0.16033 0.10978 0.03872 0.07000
O 	O 	0.08151 0.97102 0.92238 -0.27900
H 	H 	0.20399 0.02623 0.92251 0.06800
C 	C 	0.34227 0.09786 0.99940 0.10200
C 	C 	0.40714 0.12473 0.00027 -0.01700
C 	C 	0.44183 0.16895 0.97642 -0.13300
C 	C 	0.40978 0.18314 0.94980 0.19500
C 	C 	0.34527 0.15737 0.94968 -0.11900
O 	O 	0.30936 0.05583 0.02350 -0.26800
H 	H 	0.43096 0.11277 0.02048 0.06500
O 	O 	0.44181 0.22329 0.92458 -0.28500
H 	H 	0.32150 0.17020 0.93018 0.07900
H 	H 	0.07301 0.99224 0.90359 0.15200
H 	H 	0.28995 0.01346 0.00768 0.14800
H 	H 	0.43575 0.19569 0.90052 0.14500
H 	H 	0.29078 0.14825 0.05802 0.16100
