data_crystal

_cell_length_a 20.53424
_cell_length_b 21.43515
_cell_length_c 31.52238
_cell_angle_alpha 60.88065
_cell_angle_beta  118.83064
_cell_angle_gamma 133.22254

_symmetry_space_group_name_	'P 1'
_symmetry_space_group_name_H-M	'P 1'

loop_
_symmetry_equiv_pos_as_xyz
  x,y,z

loop_
_atom_site_label
_atom_site_type_symbol
_atom_site_fract_x
_atom_site_fract_y
_atom_site_fract_z
_atom_site_charge
C 	C 	0.00811 0.99042 0.26625 0.30800
Co	Co	0.01511 0.11134 0.58890 1.18000
C 	C 	0.00978 0.99188 0.81352 0.00800
C 	C 	0.01616 0.97621 0.32011 -0.00600
O 	O 	0.01185 0.98866 0.98336 -0.34600
O 	O 	0.00769 0.93952 0.25237 -0.35600
Co	Co	0.00983 0.87634 0.63222 1.18600
O 	O 	0.00374 0.00918 0.47160 -0.38400
O 	O 	0.01486 0.97872 0.74056 -0.35000
O 	O 	0.01114 0.76414 0.59506 -0.40100
C 	C 	0.01442 0.96800 0.91262 -0.00800
C 	C 	0.02306 0.05605 0.82620 -0.03900
C 	C 	0.03183 0.13397 0.78901 0.06900
O 	O 	0.00993 0.05941 0.23383 -0.41900
C 	C 	0.02584 0.04385 0.87529 -0.05400
H 	H 	0.03923 0.09488 0.88451 0.04400
O 	O 	0.03551 0.89947 0.08521 -0.74200
O 	O 	0.04585 0.93465 0.57763 -0.72900
H 	H 	0.02604 0.60889 0.72718 0.08700
C 	C 	0.04094 0.96617 0.96698 0.28000
N 	N 	0.03851 0.19668 0.75976 -0.12600
Co	Co	0.06306 0.00225 0.05811 1.16000
O 	O 	0.06116 0.10360 0.04682 -0.47700
O 	O 	0.06534 0.75719 0.12896 -0.40800
Co	Co	0.06280 0.03321 0.54504 1.16800
O 	O 	0.06752 0.13774 0.53593 -0.46700
O 	O 	0.05886 0.17546 0.68593 -0.39000
C 	C 	0.06900 0.05101 0.33855 -0.06100
C 	C 	0.05655 0.04450 0.38140 -0.01400
N 	N 	0.06913 0.67790 0.71798 -0.20200
H 	H 	0.04891 0.71101 0.71819 0.09900
H 	H 	0.03986 0.64490 0.25383 0.09400
H 	H 	0.03806 0.54984 0.27339 0.08600
Co	Co	0.07991 0.85662 0.06471 1.17400
C 	C 	0.08042 0.21098 0.14142 0.32600
Co	Co	0.08853 0.89254 0.55502 1.17800
N 	N 	0.06629 0.61629 0.25483 -0.20400
O 	O 	0.10129 0.95026 0.99741 -0.38200
C 	C 	0.10565 0.77498 0.17229 0.30900
O 	O 	0.10205 0.17487 0.13112 -0.39900
O 	O 	0.09748 0.82351 0.18098 -0.38700
C 	C 	0.11112 0.23795 0.65380 0.29900
C 	C 	0.11180 0.12338 0.39804 0.08000
N 	N 	0.11500 0.38760 0.57491 -0.20100
H 	H 	0.09915 0.43199 0.54877 0.08800
H 	H 	0.10140 0.34185 0.56243 0.09500
Co	Co	0.99786 0.07120 0.09580 1.17000
O 	O 	0.99438 0.17476 0.13535 -0.42000
H 	H 	0.98666 0.86577 0.84193 0.04700
C 	C 	0.99971 0.91667 0.85109 -0.03800
C 	C 	0.99999 0.90335 0.89979 -0.01100
C 	C 	0.98421 0.82226 0.93603 0.06900
N 	N 	0.97166 0.75696 0.96459 -0.12400
C 	C 	0.97923 0.99095 0.75934 0.25400
H 	H 	0.15131 0.51560 0.19172 0.05400
H 	H 	0.16799 0.55812 0.68306 0.05300
O 	O 	0.21202 0.94906 0.09557 -0.36000
O 	O 	0.20452 0.06139 0.08066 -0.39800
C 	C 	0.16941 0.86665 0.66241 0.30300
O 	O 	0.98205 0.87695 0.49319 -0.39600
O 	O 	0.12122 0.21805 0.62396 -0.38900
O 	O 	0.19059 0.91657 0.61909 -0.39000
O 	O 	0.12226 0.86948 0.67843 -0.38100
O 	O 	0.17140 0.01688 0.51409 -0.43600
O 	O 	0.20328 0.09967 0.55565 -0.40500
H 	H 	0.11790 0.11526 0.31847 0.04700
C 	C 	0.18161 0.46085 0.63785 -0.08500
C 	C 	0.17291 0.32918 0.65954 -0.10300
C 	C 	0.15571 0.39220 0.62340 0.12200
H 	H 	0.17274 0.51150 0.60976 0.05300
C 	C 	0.18092 0.67467 0.71439 -0.08500
C 	C 	0.20956 0.81638 0.69510 -0.10300
C 	C 	0.15158 0.72245 0.70895 0.12200
H 	H 	0.13873 0.60332 0.72724 0.05300
C 	C 	0.18053 0.29152 0.20734 -0.02500
C 	C 	0.15057 0.29547 0.15618 -0.11600
C 	C 	0.20305 0.35552 0.22423 0.06600
N 	N 	0.22058 0.34407 0.27397 -0.19400
H 	H 	0.17708 0.23366 0.23424 0.04300
H 	H 	0.22118 0.29016 0.29980 0.08600
H 	H 	0.23042 0.38674 0.28725 0.08900
C 	C 	0.17204 0.75348 0.20626 -0.10500
C 	C 	0.13738 0.66487 0.23363 0.12300
H 	H 	0.14739 0.55758 0.25783 0.05300
C 	C 	0.70924 0.28842 0.00811 0.04400
C 	C 	0.61530 0.22753 0.00808 -0.09200
C 	C 	0.56982 0.25318 0.01002 0.04900
C 	C 	0.61621 0.34096 0.00828 -0.09300
C 	C 	0.71025 0.40153 0.01016 0.04800
C 	C 	0.75631 0.37650 0.00787 -0.09200
H 	H 	0.57985 0.15877 0.01086 0.04800
H 	H 	0.58120 0.35990 0.01090 0.05700
H 	H 	0.82971 0.42275 0.01042 0.05300
C 	C 	0.72414 0.32222 0.50400 0.03900
C 	C 	0.78425 0.39387 0.52669 -0.08500
C 	C 	0.74784 0.42157 0.53622 0.04200
C 	C 	0.65321 0.37402 0.52727 -0.08500
C 	C 	0.59337 0.30497 0.50403 0.04100
C 	C 	0.62888 0.28242 0.48968 -0.08400
H 	H 	0.85774 0.42641 0.53756 0.05100
H 	H 	0.62589 0.39108 0.53862 0.05700
H 	H 	0.58202 0.22984 0.47058 0.04900
C 	C 	0.28316 0.63074 0.21693 0.04300
C 	C 	0.37905 0.67442 0.23114 -0.08600
C 	C 	0.41637 0.64212 0.22757 0.04400
C 	C 	0.35904 0.55867 0.21900 -0.08400
C 	C 	0.26384 0.51289 0.20571 0.04300
C 	C 	0.22508 0.54927 0.20386 -0.08500
H 	H 	0.42455 0.73689 0.24104 0.05800
H 	H 	0.38877 0.53283 0.21802 0.05700
C 	C 	0.29927 0.66919 0.71278 0.04200
C 	C 	0.39393 0.70707 0.73199 -0.08500
C 	C 	0.43252 0.68165 0.72322 0.04400
C 	C 	0.37612 0.60081 0.71172 -0.08400
C 	C 	0.28061 0.55404 0.69882 0.04300
C 	C 	0.24136 0.59007 0.69704 -0.08400
H 	H 	0.43884 0.76416 0.74715 0.05800
H 	H 	0.40666 0.57803 0.70833 0.05700
Co	Co	0.94214 0.91013 0.18015 1.18900
Co	Co	0.98848 0.83427 0.13531 1.17800
C 	C 	0.24456 0.03325 0.07922 0.25100
Co	Co	0.90686 0.04404 0.17010 1.15900
C 	C 	0.88671 0.70740 0.06853 0.29400
O 	O 	0.81124 0.02356 0.10341 -0.41600
O 	O 	0.95039 0.00425 0.14664 -0.77900
C 	C 	0.83799 0.08491 0.06291 0.29900
O 	O 	0.94524 0.80985 0.19156 -0.46800
C 	C 	0.76821 0.84878 0.19195 0.32100
O 	O 	0.97306 0.94369 0.10834 -0.57000
O 	O 	0.90156 0.10192 0.04858 -0.39000
O 	O 	0.82018 0.91834 0.20917 -0.39800
O 	O 	0.80254 0.83446 0.17434 -0.38900
O 	O 	0.94164 0.77184 0.03766 -0.39200
O 	O 	0.88606 0.72181 0.10540 -0.38300
Co	Co	0.94706 0.94675 0.66978 1.18900
C 	C 	0.23095 0.08328 0.53455 0.32000
Co	Co	0.92115 0.08536 0.66160 1.15600
C 	C 	0.92702 0.72464 0.59504 0.30000
O 	O 	0.92894 0.18258 0.59682 -0.42100
O 	O 	0.96116 0.04332 0.63710 -0.78900
C 	C 	0.89348 0.16875 0.55262 0.31100
O 	O 	0.95950 0.85069 0.68546 -0.47300
C 	C 	0.76057 0.90273 0.65657 0.30000
O 	O 	0.98653 0.98171 0.60107 -0.57200
C 	C 	0.98997 0.94797 0.45920 0.29900
O 	O 	0.91418 0.13355 0.54075 -0.40300
O 	O 	0.78983 0.98603 0.63510 -0.37400
O 	O 	0.80624 0.87362 0.66338 -0.38000
O 	O 	0.91153 0.99702 0.73088 -0.38300
O 	O 	0.90787 0.75886 0.60894 -0.39400
C 	C 	0.99063 0.96182 0.40723 -0.04400
C 	C 	0.93930 0.88675 0.38932 -0.01100
C 	C 	0.95396 0.89313 0.34737 -0.02400
H 	H 	0.89060 0.82240 0.40940 0.04000
C 	C 	0.90941 0.81337 0.33487 0.08000
N 	N 	0.87434 0.74939 0.32509 -0.12400
N 	N 	0.15613 0.18679 0.41122 -0.12200
C 	C 	0.22365 0.46713 0.68778 -0.01900
C 	C 	0.23724 0.40198 0.72372 0.07100
C 	C 	0.22202 0.34085 0.70820 -0.02300
H 	H 	0.23692 0.29390 0.73586 0.04600
N 	N 	0.26566 0.39846 0.77323 -0.19200
H 	H 	0.27049 0.43855 0.78600 0.08900
H 	H 	0.27908 0.35248 0.79966 0.08400
C 	C 	0.51918 0.78900 0.65772 -0.09000
C 	C 	0.52095 0.74923 0.70877 -0.01700
C 	C 	0.60198 0.75814 0.74272 0.06800
C 	C 	0.67856 0.80400 0.72455 -0.02500
C 	C 	0.67493 0.84041 0.67319 -0.10900
C 	C 	0.59295 0.82877 0.63935 0.13000
N 	N 	0.58278 0.85058 0.58931 -0.20300
H 	H 	0.45636 0.78078 0.63169 0.05300
H 	H 	0.74195 0.81355 0.75055 0.04700
N 	N 	0.60696 0.72379 0.79265 -0.19300
H 	H 	0.52292 0.84432 0.56431 0.08800
H 	H 	0.63179 0.86911 0.57500 0.10000
H 	H 	0.55294 0.69383 0.80741 0.08700
H 	H 	0.66635 0.72879 0.81743 0.08500
C 	C 	0.26446 0.71922 0.70328 -0.01900
C 	C 	0.32061 0.81299 0.68914 0.06700
C 	C 	0.29940 0.85862 0.69408 -0.02700
H 	H 	0.34634 0.93010 0.68665 0.05500
N 	N 	0.38918 0.85881 0.66657 -0.19500
H 	H 	0.38955 0.82856 0.64895 0.08600
H 	H 	0.43901 0.92669 0.66330 0.08600
C 	C 	0.15683 0.37191 0.12134 0.13100
C 	C 	0.18208 0.43750 0.13812 -0.08900
C 	C 	0.20662 0.43085 0.18935 -0.01700
H 	H 	0.18768 0.49633 0.11127 0.05500
N 	N 	0.13695 0.38181 0.07160 -0.20300
H 	H 	0.12296 0.33658 0.05840 0.09500
H 	H 	0.13799 0.43650 0.04568 0.08800
C 	C 	0.65798 0.72814 0.24514 -0.02100
C 	C 	0.67322 0.78236 0.19742 -0.11400
C 	C 	0.60390 0.79167 0.16030 0.12900
C 	C 	0.52537 0.75514 0.17305 -0.08800
C 	C 	0.51070 0.70212 0.22103 -0.01700
C 	C 	0.57840 0.68969 0.25771 0.06700
N 	N 	0.56800 0.64214 0.30520 -0.19300
H 	H 	0.71083 0.72045 0.27352 0.04800
H 	H 	0.47229 0.76269 0.14454 0.05400
N 	N 	0.61201 0.83477 0.11222 -0.20400
H 	H 	0.61714 0.63124 0.33184 0.08300
H 	H 	0.51268 0.61800 0.31650 0.08600
H 	H 	0.66444 0.85381 0.10066 0.10800
H 	H 	0.56295 0.84561 0.08533 0.09300
C 	C 	0.25469 0.80509 0.19248 -0.03200
C 	C 	0.17430 0.62555 0.23703 -0.08500
C 	C 	0.24443 0.67342 0.21280 -0.01800
C 	C 	0.28305 0.76428 0.18872 0.07100
N 	N 	0.34024 0.81008 0.15835 -0.19500
H 	H 	0.28674 0.87498 0.17568 0.05800
H 	H 	0.37305 0.87809 0.14350 0.09200
H 	H 	0.34614 0.77769 0.14564 0.08800
C 	C 	0.87957 0.29089 0.49462 -0.02200
C 	C 	0.83553 0.19951 0.51574 -0.11600
C 	C 	0.74431 0.14740 0.51940 0.11600
C 	C 	0.70918 0.18777 0.51630 -0.09000
C 	C 	0.75834 0.28041 0.50153 -0.01700
C 	C 	0.84001 0.33149 0.48570 0.06200
N 	N 	0.87818 0.41751 0.46018 -0.19400
H 	H 	0.94699 0.33123 0.48787 0.03300
H 	H 	0.64444 0.14694 0.52630 0.04500
N 	N 	0.69186 0.05825 0.52843 -0.20400
H 	H 	0.94084 0.45589 0.45104 0.07900
H 	H 	0.84313 0.44521 0.44627 0.08600
H 	H 	0.71545 0.02764 0.52869 0.08300
H 	H 	0.62528 0.01921 0.53285 0.07200
C 	C 	0.80318 0.57474 0.51691 -0.09000
C 	C 	0.80687 0.50403 0.55214 -0.01800
C 	C 	0.83621 0.50098 0.60363 0.06200
C 	C 	0.85764 0.56654 0.61856 -0.02200
C 	C 	0.85624 0.63819 0.58300 -0.11300
C 	C 	0.81884 0.63632 0.53228 0.12200
N 	N 	0.79854 0.69414 0.49813 -0.20300
H 	H 	0.77816 0.57615 0.47751 0.05300
H 	H 	0.88336 0.56590 0.65782 0.03600
N 	N 	0.84428 0.43563 0.63883 -0.19300
H 	H 	0.77231 0.69393 0.46034 0.08700
H 	H 	0.80467 0.73690 0.50927 0.09900
H 	H 	0.83413 0.38921 0.62885 0.08200
H 	H 	0.86369 0.43232 0.67680 0.07700
C 	C 	0.36356 0.22896 0.50219 -0.02000
C 	C 	0.32712 0.14162 0.53072 -0.11700
C 	C 	0.37473 0.10544 0.54509 0.12400
C 	C 	0.46016 0.15918 0.53423 -0.09500
C 	C 	0.49521 0.24528 0.50467 -0.01600
C 	C 	0.44401 0.27908 0.48625 0.06400
N 	N 	0.47073 0.35847 0.45256 -0.19300
H 	H 	0.32600 0.25592 0.48941 0.04800
H 	H 	0.49944 0.13333 0.54868 0.04400
N 	N 	0.33811 0.01889 0.56840 -0.24200
H 	H 	0.43463 0.38453 0.44037 0.08400
H 	H 	0.52500 0.39307 0.43659 0.08500
H 	H 	0.26815 0.97041 0.55852 0.10100
H 	H 	0.38078 0.99820 0.58862 0.11200
C 	C 	0.83122 0.17914 0.08264 -0.01200
C 	C 	0.82330 0.15369 0.04580 -0.12400
C 	C 	0.78680 0.18218 0.99505 0.12900
C 	C 	0.75712 0.23343 0.98276 -0.08200
C 	C 	0.76159 0.25493 0.02023 -0.02700
C 	C 	0.80204 0.22996 0.07046 0.05900
N 	N 	0.80944 0.25110 0.10769 -0.19300
H 	H 	0.85365 0.15343 0.12168 0.00400
H 	H 	0.72642 0.25288 0.94421 0.05000
N 	N 	0.77693 0.15848 0.95826 -0.20600
H 	H 	0.83952 0.23223 0.14466 0.07300
H 	H 	0.78571 0.28615 0.10067 0.08300
H 	H 	0.79542 0.11855 0.96608 0.09300
H 	H 	0.74976 0.17972 0.92103 0.08000
C 	C 	0.76581 0.60791 0.01236 -0.05100
C 	C 	0.82299 0.61811 0.06031 -0.09400
C 	C 	0.84259 0.55553 0.09187 0.11300
C 	C 	0.81408 0.49096 0.07283 -0.07800
C 	C 	0.76208 0.48469 0.02366 -0.03600
C 	C 	0.74028 0.54571 0.99266 0.09600
N 	N 	0.69651 0.54600 0.94370 -0.19700
H 	H 	0.74962 0.65502 0.98832 0.05800
H 	H 	0.82828 0.44250 0.09722 0.04700
N 	N 	0.88878 0.55714 0.14041 -0.20100
H 	H 	0.67792 0.58929 0.92131 0.08500
H 	H 	0.68395 0.50589 0.92696 0.08900
H 	H 	0.90193 0.59759 0.15710 0.09600
H 	H 	0.90824 0.51451 0.16267 0.08200
C 	C 	0.32975 0.14199 0.01291 -0.06300
C 	C 	0.33145 0.09753 0.06349 -0.09100
C 	C 	0.40980 0.09909 0.09536 0.10600
C 	C 	0.48244 0.14026 0.07535 -0.08100
C 	C 	0.48154 0.18606 0.02495 -0.04000
C 	C 	0.40304 0.18425 0.99302 0.09300
N 	N 	0.39732 0.22198 0.94321 -0.19800
H 	H 	0.26896 0.13947 0.98834 0.05100
H 	H 	0.54311 0.14253 0.09991 0.04600
N 	N 	0.41688 0.06383 0.14540 -0.20200
H 	H 	0.34037 0.22275 0.91999 0.08300
H 	H 	0.44775 0.24812 0.92685 0.08600
H 	H 	0.36905 0.04205 0.16209 0.08600
H 	H 	0.47288 0.06139 0.16848 0.07300
