data_crystal

_cell_length_a 19.88294
_cell_length_b 20.41351
_cell_length_c 17.76117
_cell_angle_alpha 95.44743
_cell_angle_beta  95.45301
_cell_angle_gamma 126.11249

_symmetry_space_group_name_	'P 1'
_symmetry_space_group_name_H-M	'P 1'

loop_
_symmetry_equiv_pos_as_xyz
  x,y,z

loop_
_atom_site_label
_atom_site_type_symbol
_atom_site_fract_x
_atom_site_fract_y
_atom_site_fract_z
_atom_site_charge
C 	C 	0.06974 0.03092 0.95897 0.11900
N 	N 	0.04160 0.07603 0.97740 -0.13000
C 	C 	0.04294 0.01507 0.45119 0.13500
N 	N 	0.01548 0.94744 0.94658 -0.11800
N 	N 	0.00280 0.93356 0.44943 -0.12000
C 	C 	0.13347 0.07008 0.46491 -0.02200
C 	C 	0.15790 0.07088 0.95782 -0.02400
C 	C 	0.20956 0.11430 0.47450 -0.00400
C 	C 	0.23105 0.10011 0.95693 -0.00900
N 	N 	0.99758 0.04342 0.43445 -0.15100
C 	C 	0.95883 0.03685 0.98315 0.12000
N 	N 	0.90501 0.95314 0.97123 -0.13000
C 	C 	0.93335 0.90852 0.95275 0.12000
C 	C 	0.91169 0.99038 0.41686 0.15300
N 	N 	0.87091 0.90803 0.41556 -0.13400
C 	C 	0.91719 0.87982 0.43154 0.12400
Cu	Cu	0.64424 0.23897 0.02603 0.93200
Cu	Cu	0.77035 0.29131 0.90353 0.85400
Cu	Cu	0.67176 0.34664 0.90722 0.88400
Cu	Cu	0.61277 0.37450 0.04692 0.90500
C 	C 	0.63490 0.30101 0.17372 0.19800
O 	O 	0.51517 0.17500 0.00053 -0.33000
C 	C 	0.70380 0.30434 0.75847 0.19300
O 	O 	0.69491 0.36274 0.01939 -0.62600
O 	O 	0.65432 0.24191 0.91681 -0.65400
O 	O 	0.70914 0.19413 0.04686 -0.35000
O 	O 	0.81911 0.30062 0.00441 -0.42700
O 	O 	0.58717 0.31711 0.13649 -0.34600
O 	O 	0.69462 0.45249 0.89973 -0.37800
C 	C 	0.70612 0.50607 0.95729 0.28200
C 	C 	0.47908 0.20261 0.96246 0.27700
O 	O 	0.52594 0.27818 0.94956 -0.40700
O 	O 	0.66510 0.48218 0.01492 -0.36100
O 	O 	0.65545 0.25790 0.13652 -0.31500
C 	C 	0.78692 0.23411 0.03417 0.31400
O 	O 	0.66472 0.32891 0.79468 -0.33700
O 	O 	0.74024 0.27594 0.79449 -0.39200
H 	H 	0.75444 0.40771 0.04410 0.16400
H 	H 	0.60830 0.19351 0.87762 0.18000
Cu	Cu	0.73284 0.32737 0.39937 0.92500
Cu	Cu	0.73156 0.24332 0.54724 0.86800
Cu	Cu	0.62990 0.30054 0.52762 0.89400
Cu	Cu	0.58779 0.34851 0.38606 0.89900
C 	C 	0.65008 0.31646 0.25083 0.19900
O 	O 	0.79405 0.45235 0.40772 -0.35500
C 	C 	0.70198 0.30245 0.68271 0.19300
O 	O 	0.60784 0.27440 0.41617 -0.63500
O 	O 	0.74509 0.33736 0.51312 -0.63800
O 	O 	0.77578 0.26006 0.38024 -0.36000
O 	O 	0.68728 0.17112 0.45152 -0.44300
O 	O 	0.62947 0.36039 0.28652 -0.35000
O 	O 	0.51395 0.25610 0.53523 -0.37700
C 	C 	0.46216 0.25673 0.48353 0.31200
C 	C 	0.76806 0.48975 0.44586 0.30300
O 	O 	0.69661 0.44528 0.47034 -0.39500
O 	O 	0.49106 0.31212 0.43876 -0.38700
O 	O 	0.69812 0.30075 0.28893 -0.31800
C 	C 	0.73809 0.18844 0.40263 0.31200
O 	O 	0.65396 0.31674 0.64174 -0.33500
O 	O 	0.75367 0.29250 0.65150 -0.38900
H 	H 	0.56289 0.21545 0.39354 0.16800
H 	H 	0.79214 0.39200 0.54433 0.17800
C 	C 	0.80189 0.57345 0.43978 -0.10700
C 	C 	0.82497 0.64238 0.43540 0.05800
C 	C 	0.85082 0.72309 0.43165 -0.00600
C 	C 	0.87669 0.79338 0.43025 -0.01900
C 	C 	0.77142 0.14216 0.39387 -0.11700
C 	C 	0.79859 0.10238 0.39272 0.05300
C 	C 	0.83207 0.05734 0.39703 -0.00200
C 	C 	0.86473 0.02302 0.40441 -0.04200
C 	C 	0.29827 0.16439 0.48240 0.06200
C 	C 	0.37362 0.20659 0.48537 -0.10500
C 	C 	0.75120 0.59071 0.94995 -0.10200
C 	C 	0.78991 0.66273 0.94688 0.05300
C 	C 	0.83694 0.74780 0.94647 -0.00800
C 	C 	0.87941 0.82103 0.94836 -0.02400
C 	C 	0.92725 0.08344 0.99979 -0.07300
C 	C 	0.89719 0.11947 0.01218 0.03900
C 	C 	0.85931 0.15955 0.02403 0.04400
C 	C 	0.82610 0.19326 0.03095 -0.10800
C 	C 	0.31645 0.13260 0.95675 0.05000
C 	C 	0.39001 0.16209 0.95812 -0.10400
