data_crystal

_cell_length_a 18.86470
_cell_length_b 15.89665
_cell_length_c 43.25467
_cell_angle_alpha 90.84622
_cell_angle_beta  91.18322
_cell_angle_gamma 110.89889

_symmetry_space_group_name_	'P 1'
_symmetry_space_group_name_H-M	'P 1'

loop_
_symmetry_equiv_pos_as_xyz
  x,y,z

loop_
_atom_site_label
_atom_site_type_symbol
_atom_site_fract_x
_atom_site_fract_y
_atom_site_fract_z
_atom_site_charge
Ni	Ni	0.58413 0.23611 0.90307 1.10100
O 	O 	0.63028 0.35682 0.88213 -0.70400
Ni	Ni	0.72710 0.34902 0.86719 1.10200
O 	O 	0.49265 0.26812 0.91587 -0.36700
O 	O 	0.57058 0.39628 0.94101 -0.40400
O 	O 	0.53579 0.19497 0.86064 -0.40300
Ni	Ni	0.65342 0.46085 0.90957 1.07000
O 	O 	0.62875 0.05016 0.91329 -0.40800
O 	O 	0.72082 0.41961 0.93819 -0.41100
O 	O 	0.76001 0.46555 0.84339 -0.36600
O 	O 	0.68706 0.23570 0.89337 -0.70300
O 	O 	0.53357 0.10889 0.92009 -0.38000
O 	O 	0.81298 0.31597 0.84834 -0.35700
O 	O 	0.73281 0.17360 0.83518 -0.40600
Ni	Ni	0.67198 0.11763 0.87416 1.07100
H 	H 	0.59873 0.36289 0.86433 0.16300
H 	H 	0.71718 0.24274 0.91288 0.15800
C 	C 	0.78857 0.42444 0.93055 0.31100
O 	O 	0.56743 0.07154 0.85093 -0.38700
C 	C 	0.50201 0.33825 0.93423 0.29100
C 	C 	0.75416 0.53915 0.85588 0.27200
C 	C 	0.51783 0.11281 0.84989 0.31100
C 	C 	0.80230 0.23410 0.83798 0.26700
C 	C 	0.56966 0.05467 0.92844 0.31300
O 	O 	0.80489 0.41715 0.90150 -0.36500
O 	O 	0.74432 0.54428 0.88610 -0.40100
Ni	Ni	0.62123 0.40253 0.58887 1.10000
O 	O 	0.69461 0.41011 0.55375 -0.69600
Ni	Ni	0.76443 0.35326 0.57276 1.10100
O 	O 	0.58274 0.49951 0.57199 -0.36200
O 	O 	0.70336 0.59340 0.56443 -0.41600
O 	O 	0.53565 0.30743 0.56302 -0.36800
Ni	Ni	0.75399 0.52575 0.53653 1.07400
O 	O 	0.51576 0.22888 0.61777 -0.40000
O 	O 	0.85182 0.56435 0.56342 -0.39100
O 	O 	0.85060 0.38428 0.54096 -0.36300
O 	O 	0.68241 0.33211 0.60546 -0.69900
O 	O 	0.54847 0.38184 0.62457 -0.37000
O 	O 	0.81116 0.27131 0.59544 -0.35300
O 	O 	0.69703 0.15520 0.59679 -0.40200
Ni	Ni	0.61386 0.20734 0.60774 1.06900
H 	H 	0.66723 0.37099 0.53610 0.15700
H 	H 	0.70422 0.35581 0.62621 0.15900
C 	C 	0.85367 0.54342 0.59255 0.29500
O 	O 	0.58850 0.19870 0.56184 -0.41400
C 	C 	0.63012 0.57490 0.56105 0.30200
C 	C 	0.85324 0.43230 0.51581 0.31400
C 	C 	0.54310 0.23604 0.54984 0.30900
C 	C 	0.76833 0.19265 0.60631 0.27000
C 	C 	0.51153 0.29885 0.63365 0.27500
O 	O 	0.82857 0.45894 0.60090 -0.37600
O 	O 	0.79624 0.45676 0.50737 -0.41900
Ni	Ni	0.13192 0.07194 0.74453 1.10000
O 	O 	0.05082 0.04265 0.71030 -0.70000
Ni	Ni	0.96909 0.93768 0.72792 1.10500
O 	O 	0.20523 0.17201 0.71905 -0.36200
O 	O 	0.19465 0.07004 0.67961 -0.40100
O 	O 	0.07846 0.15415 0.76273 -0.37000
Ni	Ni	0.07820 0.01836 0.66872 1.07100
O 	O 	0.16248 0.97671 0.81053 -0.40000
O 	O 	0.07521 0.88961 0.67397 -0.39700
O 	O 	0.88867 0.92819 0.69400 -0.34800
O 	O 	0.05856 0.95352 0.75840 -0.69700
O 	O 	0.20797 0.10372 0.78128 -0.36600
O 	O 	0.88858 0.84973 0.75532 -0.35300
O 	O 	0.93594 0.93693 0.79840 -0.40000
Ni	Ni	0.05093 0.96105 0.80339 1.08100
H 	H 	0.03264 0.09362 0.70877 0.15800
H 	H 	0.08106 0.90743 0.75368 0.15500
C 	C 	0.01191 0.82607 0.68171 0.28200
O 	O 	0.07316 0.09494 0.81038 -0.37900
C 	C 	0.22961 0.15049 0.69277 0.26100
C 	C 	0.91033 0.97208 0.66786 0.25700
C 	C 	0.04924 0.14052 0.79044 0.27900
C 	C 	0.89134 0.86049 0.78566 0.27200
C 	C 	0.22026 0.04209 0.79852 0.27900
O 	O 	0.98647 0.82734 0.70951 -0.36600
O 	O 	0.96828 0.96572 0.65248 -0.39800
Ni	Ni	0.37592 0.79960 0.40973 1.09800
O 	O 	0.32730 0.67175 0.39198 -0.70400
Ni	Ni	0.23539 0.67948 0.37003 1.10000
O 	O 	0.46093 0.76872 0.43210 -0.36000
O 	O 	0.37269 0.65392 0.45667 -0.40400
O 	O 	0.43669 0.82619 0.37032 -0.39000
Ni	Ni	0.29397 0.57993 0.42310 1.07200
O 	O 	0.34808 0.00079 0.40333 -0.39200
O 	O 	0.22558 0.63789 0.44292 -0.41600
O 	O 	0.20075 0.55428 0.35066 -0.37300
O 	O 	0.27745 0.80301 0.39228 -0.70300
O 	O 	0.42614 0.93113 0.42358 -0.37700
O 	O 	0.15560 0.70702 0.34304 -0.35900
O 	O 	0.23828 0.84359 0.32882 -0.40100
Ni	Ni	0.29968 0.91245 0.36762 1.06800
H 	H 	0.36031 0.65652 0.37709 0.16200
H 	H 	0.24479 0.80576 0.40959 0.15100
C 	C 	0.15842 0.62428 0.43109 0.31200
O 	O 	0.40215 0.93405 0.34691 -0.38700
C 	C 	0.44390 0.70066 0.45110 0.28800
C 	C 	0.20065 0.48457 0.36695 0.27500
C 	C 	0.45523 0.90333 0.35634 0.29800
C 	C 	0.16823 0.78650 0.33122 0.27200
C 	C 	0.38861 0.98638 0.42663 0.27400
O 	O 	0.14887 0.63078 0.40116 -0.36900
O 	O 	0.20540 0.49032 0.39763 -0.39700
Ni	Ni	0.35572 0.60974 0.08157 1.10300
O 	O 	0.26179 0.58542 0.05339 -0.70100
Ni	Ni	0.19738 0.63159 0.07998 1.10100
O 	O 	0.39188 0.51614 0.06070 -0.36900
O 	O 	0.27371 0.41173 0.06316 -0.42100
O 	O 	0.42028 0.70632 0.05147 -0.36500
Ni	Ni	0.20105 0.46227 0.04032 1.07500
O 	O 	0.46167 0.79395 0.10779 -0.39600
O 	O 	0.11866 0.41877 0.07294 -0.39100
O 	O 	0.09442 0.58106 0.05582 -0.36900
O 	O 	0.29806 0.67249 0.10490 -0.70000
O 	O 	0.44693 0.64476 0.11097 -0.37000
O 	O 	0.15524 0.70471 0.10887 -0.36100
O 	O 	0.25769 0.83302 0.10220 -0.39500
Ni	Ni	0.35540 0.80114 0.10417 1.07500
H 	H 	0.27482 0.62272 0.03478 0.16100
H 	H 	0.29149 0.65185 0.12649 0.16500
C 	C 	0.12953 0.44348 0.10224 0.29700
O 	O 	0.35629 0.80321 0.05726 -0.41300
C 	C 	0.34344 0.43513 0.05371 0.30700
C 	C 	0.08477 0.54203 0.02788 0.31400
C 	C 	0.40240 0.77472 0.04168 0.30100
C 	C 	0.19695 0.78783 0.11766 0.27200
C 	C 	0.47733 0.72842 0.12161 0.27800
O 	O 	0.16392 0.52827 0.11052 -0.38400
O 	O 	0.13658 0.51523 0.01549 -0.41800
Ni	Ni	0.83733 0.95104 0.25029 1.09800
O 	O 	0.92386 0.96094 0.22146 -0.70400
Ni	Ni	0.01069 0.05796 0.24255 1.10300
O 	O 	0.76228 0.85305 0.22229 -0.36000
O 	O 	0.79403 0.94867 0.18177 -0.40000
O 	O 	0.87166 0.85814 0.27237 -0.37100
Ni	Ni	0.91116 0.98763 0.17837 1.07700
O 	O 	0.81013 0.06272 0.31232 -0.39600
O 	O 	0.92012 0.11752 0.18604 -0.39700
O 	O 	0.09297 0.04346 0.21546 -0.35900
O 	O 	0.91930 0.06448 0.26654 -0.68900
O 	O 	0.75326 0.93361 0.28190 -0.36500
O 	O 	0.09362 0.14005 0.27247 -0.35200
O 	O 	0.03073 0.07447 0.31497 -0.41100
Ni	Ni	0.91818 0.06286 0.31188 1.07700
H 	H 	0.93489 0.90466 0.22199 0.16600
H 	H 	0.90480 0.11482 0.25922 0.16800
C 	C 	0.98638 0.17831 0.19345 0.30400
O 	O 	0.88494 0.92828 0.31911 -0.39300
C 	C 	0.75225 0.87067 0.19318 0.27500
C 	C 	0.07311 0.00779 0.18733 0.28400
C 	C 	0.90395 0.87587 0.29999 0.28800
C 	C 	0.08234 0.14270 0.30224 0.28300
C 	C 	0.74888 0.99584 0.30175 0.27500
O 	O 	0.01947 0.17492 0.22016 -0.35900
O 	O 	0.02451 0.03033 0.16990 -0.39400
C 	C 	0.09244 0.37787 0.12599 -0.06100
C 	C 	0.13746 0.35201 0.14715 -0.01200
C 	C 	0.10411 0.28903 0.16979 0.01100
C 	C 	0.02382 0.25193 0.17174 -0.07200
C 	C 	0.97891 0.28023 0.15098 -0.00000
C 	C 	0.01273 0.34256 0.12812 -0.00200
H 	H 	0.19882 0.38006 0.14570 0.04100
H 	H 	0.91758 0.25327 0.15248 0.05000
C 	C 	0.96523 0.37071 0.10718 0.09600
C 	C 	0.15296 0.26186 0.19034 0.09400
N 	N 	0.92725 0.39332 0.09040 -0.10400
N 	N 	0.19253 0.24063 0.20675 -0.09700
C 	C 	0.54658 0.75250 0.14087 -0.06100
C 	C 	0.61580 0.76662 0.12674 -0.00300
C 	C 	0.68367 0.79830 0.14416 0.00400
C 	C 	0.68236 0.81579 0.17621 -0.05900
C 	C 	0.61241 0.79396 0.19074 -0.00600
C 	C 	0.54456 0.76374 0.17315 0.00200
H 	H 	0.61691 0.75529 0.10198 0.05300
H 	H 	0.61104 0.80519 0.21549 0.05700
C 	C 	0.47336 0.74693 0.18824 0.06700
C 	C 	0.75454 0.81465 0.12884 0.06800
N 	N 	0.41631 0.73354 0.20032 -0.11800
N 	N 	0.81109 0.82785 0.11640 -0.12700
C 	C 	0.16621 0.83658 0.13989 -0.06400
C 	C 	0.08742 0.80986 0.14284 -0.00900
C 	C 	0.05671 0.86097 0.16097 0.00400
C 	C 	0.10484 0.94250 0.17508 -0.08000
C 	C 	0.18367 0.96515 0.17450 -0.01300
C 	C 	0.21468 0.91134 0.15761 0.00600
H 	H 	0.04983 0.74987 0.13066 0.05900
H 	H 	0.22084 0.02548 0.18664 0.06600
C 	C 	0.29553 0.93068 0.15979 0.06000
C 	C 	0.97599 0.82753 0.16589 0.03900
N 	N 	0.36027 0.94613 0.16157 -0.13700
N 	N 	0.91132 0.80001 0.16980 -0.14100
C 	C 	0.67465 0.98366 0.31554 -0.05800
C 	C 	0.66882 0.98238 0.34782 -0.01000
C 	C 	0.59786 0.96077 0.36145 0.00500
C 	C 	0.53137 0.93994 0.34265 -0.06100
C 	C 	0.53762 0.94594 0.31037 -0.00800
C 	C 	0.60879 0.96793 0.29675 0.00400
H 	H 	0.71941 0.99597 0.36237 0.04200
H 	H 	0.48694 0.93127 0.29581 0.05100
C 	C 	0.61388 0.97628 0.26358 0.07800
C 	C 	0.59409 0.96088 0.39476 0.08300
N 	N 	0.61796 0.98311 0.23702 -0.11600
N 	N 	0.59169 0.96122 0.42147 -0.10100
C 	C 	0.16856 0.39480 0.35198 -0.05900
C 	C 	0.10913 0.37834 0.33013 -0.01300
C 	C 	0.08233 0.29772 0.31306 0.00300
C 	C 	0.11204 0.22953 0.31909 -0.08800
C 	C 	0.16955 0.24423 0.34182 -0.00200
C 	C 	0.19889 0.32710 0.35799 -0.00500
H 	H 	0.08468 0.42958 0.32591 0.05800
H 	H 	0.19231 0.19180 0.34654 0.03700
C 	C 	0.26134 0.34291 0.37992 0.06200
C 	C 	0.02587 0.28724 0.28885 0.04400
N 	N 	0.31138 0.35557 0.39748 -0.13400
N 	N 	0.98090 0.28125 0.26954 -0.11300
C 	C 	0.97021 0.84964 0.30759 -0.07800
C 	C 	0.02930 0.86709 0.28652 -0.00500
C 	C 	0.09521 0.84909 0.29412 -0.00200
C 	C 	0.10269 0.81377 0.32329 -0.07100
C 	C 	0.04372 0.79680 0.34435 -0.02300
C 	C 	0.97758 0.81378 0.33661 0.01400
H 	H 	0.02450 0.89596 0.26437 -0.00100
H 	H 	0.04897 0.76915 0.36671 0.04100
C 	C 	0.91662 0.79146 0.35825 0.08200
C 	C 	0.15374 0.86507 0.27158 0.08300
N 	N 	0.86780 0.77357 0.37559 -0.11000
N 	N 	0.20053 0.87792 0.25346 -0.10800
C 	C 	0.49977 0.19620 0.52250 -0.10000
C 	C 	0.46726 0.15576 0.49965 0.04700
C 	C 	0.43447 0.10160 0.47344 0.02900
C 	C 	0.41106 0.05073 0.45166 -0.07100
C 	C 	0.92178 0.46592 0.49884 -0.09200
C 	C 	0.97713 0.50009 0.48364 0.04700
C 	C 	0.04009 0.54382 0.46528 0.03500
C 	C 	0.09360 0.58159 0.44953 -0.09400
C 	C 	0.60298 0.61873 0.53725 -0.11700
C 	C 	0.57658 0.64952 0.51658 0.04000
C 	C 	0.53941 0.67754 0.49235 0.02800
C 	C 	0.50040 0.69331 0.47250 -0.08500
C 	C 	0.80450 0.13636 0.62273 -0.07000
C 	C 	0.77544 0.04221 0.61785 -0.00000
C 	C 	0.80649 0.98712 0.63403 -0.01700
C 	C 	0.86819 0.02610 0.65491 -0.04300
C 	C 	0.89771 0.11993 0.65960 -0.02500
C 	C 	0.86494 0.17490 0.64442 0.00700
H 	H 	0.72895 0.01186 0.60130 0.04900
H 	H 	0.94708 0.15039 0.67477 0.02800
C 	C 	0.89236 0.27020 0.65196 0.07900
C 	C 	0.77577 0.89078 0.62852 0.09100
N 	N 	0.91433 0.34652 0.65802 -0.10600
N 	N 	0.75126 0.81361 0.62412 -0.11000
C 	C 	0.44883 0.28197 0.65550 -0.06100
C 	C 	0.43842 0.21405 0.67718 -0.01200
C 	C 	0.36755 0.17222 0.69032 0.00600
C 	C 	0.30751 0.20284 0.68352 -0.05400
C 	C 	0.32036 0.27765 0.66473 -0.01600
C 	C 	0.39023 0.31671 0.65032 0.00900
H 	H 	0.48379 0.18865 0.68183 0.02700
H 	H 	0.27469 0.30245 0.65999 0.03800
C 	C 	0.39978 0.38924 0.62919 0.09200
C 	C 	0.35553 0.09420 0.70913 0.07800
N 	N 	0.40733 0.44733 0.61226 -0.10200
N 	N 	0.34586 0.03158 0.72413 -0.11800
C 	C 	0.89541 0.61385 0.61546 -0.07300
C 	C 	0.85586 0.63243 0.63992 -0.00000
C 	C 	0.89273 0.69993 0.66191 0.00000
C 	C 	0.97185 0.74966 0.65981 -0.04700
C 	C 	0.01183 0.72925 0.63546 -0.03100
C 	C 	0.97403 0.66185 0.61329 0.02400
H 	H 	0.79546 0.59489 0.64159 0.03200
H 	H 	0.07230 0.76579 0.63373 0.05100
C 	C 	0.01657 0.64138 0.58876 0.07800
C 	C 	0.84797 0.71788 0.68604 0.09600
N 	N 	0.05059 0.62492 0.56910 -0.10700
N 	N 	0.81082 0.73079 0.70515 -0.10100
C 	C 	0.01543 0.52472 0.01080 -0.09600
C 	C 	0.96016 0.50468 0.99403 0.05000
C 	C 	0.89895 0.47730 0.97258 0.04100
C 	C 	0.84832 0.45275 0.95346 -0.09100
C 	C 	0.44157 0.82690 0.01609 -0.08900
C 	C 	0.47294 0.87527 0.99533 0.03400
C 	C 	0.50813 0.93574 0.97164 0.04100
C 	C 	0.53688 0.98931 0.95183 -0.09700
C 	C 	0.44489 0.33360 0.95586 -0.08500
C 	C 	0.40749 0.34050 0.97718 0.02800
C 	C 	0.37609 0.36152 0.00400 0.04500
C 	C 	0.35785 0.39002 0.02716 -0.12700
C 	C 	0.86736 0.21452 0.82526 -0.06500
C 	C 	0.85996 0.17334 0.79601 -0.01100
C 	C 	0.92076 0.15501 0.78327 0.00300
C 	C 	0.99092 0.17847 0.79979 -0.06100
C 	C 	0.99923 0.22299 0.82869 -0.00300
C 	C 	0.93787 0.24030 0.84164 -0.00000
H 	H 	0.80647 0.15505 0.78308 0.04800
H 	H 	0.05255 0.24090 0.84170 0.04700
C 	C 	0.94685 0.28064 0.87231 0.07900
C 	C 	0.90901 0.10917 0.75381 0.06400
N 	N 	0.95401 0.31294 0.89688 -0.11100
N 	N 	0.89768 0.07219 0.73010 -0.14500
C 	C 	0.30012 0.05266 0.80812 -0.04000
C 	C 	0.31240 0.99052 0.82857 -0.04000
C 	C 	0.38587 0.00288 0.83998 0.03200
C 	C 	0.44852 0.07585 0.83006 -0.07700
C 	C 	0.43763 0.12972 0.80645 0.00400
C 	C 	0.36437 0.12333 0.79701 -0.00600
H 	H 	0.26463 0.93419 0.83643 0.05600
H 	H 	0.48626 0.18400 0.79799 0.04000
C 	C 	0.35655 0.19430 0.77834 0.09400
C 	C 	0.39601 0.94244 0.86281 0.06900
N 	N 	0.35093 0.25171 0.76350 -0.10300
N 	N 	0.40418 0.89407 0.88111 -0.10700
C 	C 	0.78513 0.62386 0.83898 -0.06100
C 	C 	0.84969 0.69272 0.85103 -0.01200
C 	C 	0.88409 0.77116 0.83447 0.00100
C 	C 	0.85258 0.78216 0.80534 -0.07400
C 	C 	0.78600 0.71425 0.79392 -0.00600
C 	C 	0.75256 0.63513 0.81043 -0.00200
H 	H 	0.87459 0.68409 0.87305 0.05300
H 	H 	0.76060 0.72262 0.77199 0.05700
C 	C 	0.68432 0.56639 0.79809 0.07100
C 	C 	0.95265 0.83824 0.84732 0.03300
N 	N 	0.62966 0.51130 0.78821 -0.11800
N 	N 	0.00745 0.89158 0.85787 -0.16300
