data_crystal

_cell_length_a 19.99019
_cell_length_b 21.69173
_cell_length_c 31.47050
_cell_angle_alpha 60.70629
_cell_angle_beta  118.99275
_cell_angle_gamma 133.23963

_symmetry_space_group_name_	'P 1'
_symmetry_space_group_name_H-M	'P 1'

loop_
_symmetry_equiv_pos_as_xyz
  x,y,z

loop_
_atom_site_label
_atom_site_type_symbol
_atom_site_fract_x
_atom_site_fract_y
_atom_site_fract_z
_atom_site_charge
Co	Co	0.03347 0.99996 0.04713 1.17300
Co	Co	0.02068 0.09118 0.10084 1.18300
Co	Co	0.97285 0.83260 0.02721 1.16800
O 	O 	0.08056 0.11492 0.05238 -0.45600
C 	C 	0.13547 0.20872 0.17318 0.31300
C 	C 	0.06825 0.78387 0.13570 0.31800
O 	O 	0.92038 0.89054 0.96126 -0.37700
O 	O 	0.08071 0.14856 0.20494 -0.37800
O 	O 	0.13948 0.18614 0.14212 -0.36700
O 	O 	0.01496 0.76180 0.09271 -0.40100
O 	O 	0.06735 0.83188 0.15002 -0.39200
O 	O 	0.96976 0.88999 0.06303 -0.75200
C 	C 	0.97867 0.96219 0.26920 0.31000
Co	Co	0.08084 0.03653 0.54846 1.19100
Co	Co	0.01202 0.09844 0.58819 1.18000
Co	Co	0.13948 0.92201 0.56028 1.17000
O 	O 	0.07129 0.13172 0.53616 -0.45800
C 	C 	0.07998 0.23463 0.63116 0.31700
C 	C 	0.22377 0.89866 0.66641 0.31100
O 	O 	0.02724 0.89377 0.49914 -0.37200
O 	O 	0.98969 0.19418 0.62421 -0.39700
O 	O 	0.10934 0.20456 0.62116 -0.39000
O 	O 	0.24357 0.95513 0.62378 -0.40700
O 	O 	0.16507 0.88520 0.68414 -0.36900
O 	O 	0.07736 0.94605 0.58237 -0.75700
C 	C 	0.01014 0.01908 0.75636 0.31100
C 	C 	0.08333 0.06626 0.83585 -0.01700
C 	C 	0.07022 0.06758 0.87602 0.07400
N 	N 	0.14180 0.14097 0.89795 -0.01700
H 	H 	0.14905 0.11889 0.82396 0.07300
O 	O 	0.23044 0.17578 0.90612 -0.11100
O 	O 	0.11929 0.18191 0.90141 -0.09000
C 	C 	0.08626 0.02580 0.38978 -0.02500
C 	C 	0.08483 0.01802 0.34706 0.10400
N 	N 	0.16687 0.08148 0.32671 -0.02200
H 	H 	0.15052 0.07788 0.40762 0.07400
O 	O 	0.21867 0.16300 0.32678 -0.10200
O 	O 	0.19442 0.05664 0.31221 -0.08800
C 	C 	0.14658 0.31647 0.64764 -0.11800
C 	C 	0.18631 0.37155 0.71390 -0.10000
C 	C 	0.17020 0.31040 0.69884 0.18800
H 	H 	0.20150 0.36409 0.75351 0.08000
O 	O 	0.17424 0.24281 0.73433 -0.28200
H 	H 	0.24064 0.26436 0.74245 0.15500
C 	C 	0.19204 0.74856 0.71226 0.18600
C 	C 	0.24962 0.83692 0.68681 -0.11800
H 	H 	0.16096 0.62001 0.73860 0.07200
O 	O 	0.12480 0.72197 0.73130 -0.28800
H 	H 	0.15719 0.72913 0.76609 0.15700
C 	C 	0.17829 0.30130 0.16644 -0.11500
C 	C 	0.21090 0.32925 0.20887 -0.04200
H 	H 	0.22551 0.29192 0.24594 0.07900
O 	O 	0.25483 0.42984 0.24588 -0.26600
H 	H 	0.19844 0.39907 0.25761 0.14700
C 	C 	0.11262 0.73779 0.17158 -0.11400
C 	C 	0.05849 0.64794 0.17539 0.18600
H 	H 	0.05119 0.55121 0.16623 0.06500
O 	O 	0.96474 0.59467 0.17504 -0.29000
H 	H 	0.96252 0.56991 0.21084 0.14900
C 	C 	0.71290 0.26975 0.04933 0.06200
C 	C 	0.61403 0.22076 0.03511 -0.08200
C 	C 	0.56702 0.23314 0.04812 0.06800
C 	C 	0.61754 0.30628 0.06541 -0.09200
C 	C 	0.71645 0.36163 0.07574 0.06400
C 	C 	0.76474 0.34050 0.07028 -0.08100
H 	H 	0.57347 0.16943 0.01664 0.08500
H 	H 	0.57966 0.31981 0.07104 0.06400
H 	H 	0.84110 0.37851 0.08201 0.06000
C 	C 	0.76990 0.30698 0.54927 0.06600
C 	C 	0.82481 0.39543 0.55000 -0.08300
C 	C 	0.80054 0.41784 0.57297 0.06700
C 	C 	0.71741 0.35518 0.58971 -0.08300
C 	C 	0.65645 0.27202 0.58196 0.07100
C 	C 	0.68816 0.24496 0.56830 -0.09200
H 	H 	0.88279 0.44621 0.53161 0.06600
H 	H 	0.69523 0.37413 0.60375 0.07500
H 	H 	0.64486 0.17692 0.56847 0.06700
C 	C 	0.23364 0.64613 0.15918 0.06000
C 	C 	0.30761 0.71385 0.13427 -0.08100
C 	C 	0.35535 0.69631 0.12613 0.06400
C 	C 	0.31382 0.61081 0.12893 -0.08400
C 	C 	0.23521 0.54115 0.14957 0.06600
C 	C 	0.19687 0.55831 0.16689 -0.07900
H 	H 	0.33189 0.78066 0.12393 0.05700
H 	H 	0.34857 0.59790 0.11989 0.06400
H 	H 	0.14085 0.50462 0.18652 0.05700
C 	C 	0.29380 0.65225 0.70916 0.06000
C 	C 	0.22796 0.57367 0.69292 -0.07800
C 	C 	0.25948 0.52760 0.69809 0.06400
C 	C 	0.35508 0.56200 0.71698 -0.08300
C 	C 	0.42045 0.64509 0.72516 0.06900
C 	C 	0.38921 0.68297 0.72918 -0.08400
H 	H 	0.15511 0.55068 0.67519 0.05700
H 	H 	0.37978 0.52966 0.71788 0.07400
H 	H 	0.44080 0.74333 0.74113 0.06000
Co	Co	0.93413 0.92504 0.17503 1.18200
Co	Co	0.95159 0.83628 0.12222 1.17800
C 	C 	0.17686 0.98821 0.05263 0.29700
Co	Co	0.93712 0.07454 0.17647 1.18000
C 	C 	0.81873 0.68127 0.07508 0.32100
O 	O 	0.96030 0.17985 0.11513 -0.40100
O 	O 	0.96147 0.02540 0.14684 -0.75200
C 	C 	0.92113 0.17088 0.06943 0.33800
O 	O 	0.93033 0.82259 0.18461 -0.46300
C 	C 	0.75335 0.90832 0.14991 0.31500
O 	O 	0.95132 0.95383 0.09968 -0.57900
C 	C 	0.97482 0.97375 0.94248 0.26200
O 	O 	0.93431 0.13387 0.05390 -0.37300
O 	O 	0.01101 0.02961 0.96739 -0.32800
O 	O 	0.79719 0.99240 0.14395 -0.39800
O 	O 	0.79876 0.87090 0.17537 -0.38200
O 	O 	0.91570 0.97792 0.24207 -0.40400
O 	O 	0.00969 0.94890 0.24755 -0.37100
O 	O 	0.11167 0.93758 0.02086 -0.40600
O 	O 	0.15452 0.00760 0.07531 -0.39300
O 	O 	0.83478 0.73745 0.03219 -0.38800
O 	O 	0.84030 0.70759 0.11302 -0.36600
Co	Co	0.96475 0.94381 0.67534 1.18000
Co	Co	0.04552 0.88734 0.63856 1.18300
C 	C 	0.26588 0.11325 0.54081 0.33700
Co	Co	0.90201 0.06304 0.65673 1.17700
C 	C 	0.98085 0.74459 0.60257 0.33100
O 	O 	0.80978 0.04760 0.58744 -0.36900
O 	O 	0.95984 0.03011 0.63772 -0.73800
C 	C 	0.84267 0.10614 0.54736 0.31700
O 	O 	0.99562 0.85990 0.69363 -0.45000
C 	C 	0.77179 0.86820 0.67642 0.33800
O 	O 	0.00030 0.97708 0.60521 -0.58800
C 	C 	0.02105 0.95677 0.46417 0.28800
O 	O 	0.90549 0.11521 0.53612 -0.37100
O 	O 	0.02834 0.01393 0.47564 -0.34500
O 	O 	0.81412 0.93498 0.69302 -0.39700
O 	O 	0.82098 0.85528 0.66952 -0.38700
O 	O 	0.00465 0.08288 0.72265 -0.37600
O 	O 	0.02518 0.97764 0.74511 -0.37200
O 	O 	0.21644 0.04963 0.51983 -0.39800
O 	O 	0.22555 0.11437 0.56287 -0.40400
O 	O 	0.06900 0.79275 0.60070 -0.39800
O 	O 	0.95301 0.77006 0.61759 -0.37300
C 	C 	0.00957 0.00091 0.80887 -0.06300
C 	C 	0.92313 0.93593 0.82355 0.08500
C 	C 	0.90715 0.94338 0.85919 -0.05900
C 	C 	0.98220 0.00225 0.88965 -0.02100
H 	H 	0.83808 0.89552 0.86758 0.07800
N 	N 	0.85104 0.86142 0.80273 -0.02100
O 	O 	0.87310 0.82062 0.79870 -0.10900
O 	O 	0.76261 0.82695 0.79490 -0.11400
C 	C 	0.00741 0.96395 0.41116 -0.07600
C 	C 	0.92649 0.89314 0.38926 0.09500
C 	C 	0.92757 0.88279 0.34866 -0.02300
C 	C 	0.00286 0.94814 0.32459 -0.08700
H 	H 	0.86440 0.82884 0.33192 0.06700
N 	N 	0.84180 0.83268 0.40717 -0.01700
O 	O 	0.81534 0.86078 0.41983 -0.10000
O 	O 	0.78604 0.75137 0.40563 -0.09700
C 	C 	0.15480 0.39228 0.61255 -0.03000
C 	C 	0.17977 0.45796 0.62807 0.13300
C 	C 	0.19652 0.44829 0.67923 -0.02600
H 	H 	0.13840 0.39898 0.57295 0.05700
O 	O 	0.19521 0.53443 0.59375 -0.27600
H 	H 	0.13512 0.52716 0.58317 0.15100
C 	C 	0.51122 0.70117 0.71192 -0.02500
C 	C 	0.52433 0.76528 0.66642 -0.10300
C 	C 	0.60512 0.81296 0.65002 0.19100
C 	C 	0.67372 0.79687 0.67912 -0.12100
C 	C 	0.65398 0.72436 0.72040 -0.02300
C 	C 	0.57525 0.67900 0.73830 0.13500
H 	H 	0.47059 0.77648 0.64314 0.08200
O 	O 	0.62024 0.87959 0.60729 -0.28800
H 	H 	0.70445 0.70868 0.74152 0.07700
O 	O 	0.56047 0.61265 0.78117 -0.27600
H 	H 	0.59313 0.64084 0.80888 0.16300
H 	H 	0.59279 0.85265 0.57984 0.16000
C 	C 	0.26886 0.71192 0.69635 -0.02500
C 	C 	0.20307 0.68679 0.71768 -0.10200
C 	C 	0.31954 0.86185 0.66918 -0.05000
C 	C 	0.32351 0.79948 0.66984 0.12700
H 	H 	0.36607 0.92952 0.65073 0.05400
O 	O 	0.37854 0.82375 0.64287 -0.28000
H 	H 	0.44422 0.85394 0.66341 0.14300
C 	C 	0.22024 0.40266 0.20399 0.13100
C 	C 	0.19905 0.45073 0.15621 -0.03100
C 	C 	0.16842 0.42392 0.11367 -0.09900
C 	C 	0.16235 0.35233 0.11852 0.19000
H 	H 	0.15461 0.46182 0.07656 0.07600
O 	O 	0.13767 0.33080 0.07633 -0.28200
H 	H 	0.19823 0.36371 0.06802 0.15500
C 	C 	0.45753 0.76005 0.13074 -0.02700
C 	C 	0.49431 0.80100 0.08885 -0.10300
C 	C 	0.59113 0.84693 0.09499 0.18700
C 	C 	0.65127 0.85175 0.14326 -0.12000
C 	C 	0.61456 0.81179 0.18489 -0.03400
C 	C 	0.51849 0.76719 0.17878 0.13000
H 	H 	0.44754 0.79507 0.05182 0.06900
O 	O 	0.62695 0.88777 0.05384 -0.29800
H 	H 	0.66108 0.81667 0.22205 0.06600
O 	O 	0.48299 0.72576 0.22015 -0.26500
H 	H 	0.48671 0.76967 0.22535 0.15700
H 	H 	0.62394 0.84377 0.04923 0.14700
C 	C 	0.21118 0.78522 0.18400 -0.04300
C 	C 	0.25269 0.74871 0.18901 0.12700
C 	C 	0.19474 0.66802 0.17633 -0.02100
C 	C 	0.09735 0.61543 0.17283 -0.10300
H 	H 	0.25546 0.85162 0.18700 0.06800
O 	O 	0.34762 0.78772 0.20993 -0.27400
H 	H 	0.38016 0.84105 0.18411 0.14200
C 	C 	0.79342 0.27847 0.52653 -0.02800
C 	C 	0.71953 0.20710 0.50418 -0.10200
C 	C 	0.73533 0.15232 0.50533 0.18900
C 	C 	0.82747 0.17534 0.52257 -0.11900
C 	C 	0.90299 0.25983 0.52959 -0.03900
C 	C 	0.88709 0.30812 0.53622 0.13200
H 	H 	0.64836 0.18926 0.49051 0.07300
O 	O 	0.66019 0.07381 0.49311 -0.27600
H 	H 	0.97458 0.28429 0.53500 0.06200
O 	O 	0.96216 0.37947 0.55562 -0.28100
H 	H 	0.98613 0.42873 0.52633 0.14300
H 	H 	0.65148 0.08612 0.45673 0.15600
C 	C 	0.85873 0.50740 0.57796 -0.03000
C 	C 	0.83689 0.56539 0.54019 -0.09800
C 	C 	0.86525 0.63751 0.55037 0.18400
C 	C 	0.91965 0.65470 0.59796 -0.11500
C 	C 	0.94008 0.59593 0.63589 -0.03600
C 	C 	0.91210 0.52406 0.62579 0.13100
H 	H 	0.79364 0.55202 0.50361 0.07500
O 	O 	0.84393 0.69376 0.51292 -0.27000
H 	H 	0.98171 0.60829 0.67274 0.07300
O 	O 	0.93097 0.46642 0.66379 -0.27000
H 	H 	0.99171 0.48703 0.66175 0.14700
H 	H 	0.78280 0.67135 0.51564 0.16200
C 	C 	0.36849 0.16757 0.55066 -0.13000
C 	C 	0.42164 0.16408 0.60043 -0.03000
C 	C 	0.51410 0.19207 0.61142 0.12800
C 	C 	0.55490 0.22659 0.57233 -0.02900
C 	C 	0.50278 0.23297 0.52251 -0.10300
C 	C 	0.41072 0.20522 0.51157 0.19400
H 	H 	0.38952 0.13522 0.63077 0.06700
O 	O 	0.56517 0.18734 0.66024 -0.27200
H 	H 	0.53494 0.26194 0.49215 0.07500
O 	O 	0.36002 0.21058 0.46266 -0.28100
H 	H 	0.37172 0.26818 0.45088 0.15600
H 	H 	0.55232 0.12913 0.67252 0.15200
C 	C 	0.85307 0.19244 0.03866 -0.11800
C 	C 	0.76222 0.12986 0.04730 -0.04500
C 	C 	0.72182 0.15396 0.05645 0.13200
C 	C 	0.76093 0.24335 0.04459 -0.02800
C 	C 	0.84172 0.30637 0.02484 -0.10100
C 	C 	0.88793 0.28113 0.02192 0.19000
H 	H 	0.73039 0.06127 0.05554 0.08200
O 	O 	0.64769 0.09068 0.07943 -0.27600
H 	H 	0.87011 0.37481 0.01296 0.07200
O 	O 	0.97229 0.34383 0.00793 -0.29000
H 	H 	0.95542 0.35197 0.97123 0.16800
H 	H 	0.67708 0.08445 0.11590 0.14900
C 	C 	0.76762 0.44566 0.08733 -0.02400
C 	C 	0.74096 0.44633 0.12126 -0.10000
C 	C 	0.75945 0.52326 0.11899 0.19900
C 	C 	0.80902 0.60125 0.08431 -0.11800
C 	C 	0.84406 0.60193 0.05434 -0.02000
C 	C 	0.82431 0.52534 0.05599 0.12700
H 	H 	0.70017 0.38594 0.14696 0.07000
O 	O 	0.72516 0.52061 0.14893 -0.28400
H 	H 	0.88417 0.66175 0.02818 0.02500
O 	O 	0.85343 0.52743 0.02351 -0.27700
H 	H 	0.91751 0.54153 0.04142 0.14400
H 	H 	0.77547 0.53312 0.18026 0.16000
C 	C 	0.27656 0.03940 0.05354 -0.09900
C 	C 	0.30262 0.07320 0.00879 -0.05100
C 	C 	0.39726 0.13750 0.00645 0.13200
C 	C 	0.46728 0.16384 0.05001 -0.03000
C 	C 	0.44194 0.12380 0.09582 -0.09800
C 	C 	0.34692 0.06287 0.09759 0.18300
H 	H 	0.24907 0.05219 0.97528 0.08900
O 	O 	0.42121 0.17452 0.96163 -0.26600
H 	H 	0.49600 0.14138 0.12989 0.07100
O 	O 	0.32303 0.02456 0.14257 -0.28500
H 	H 	0.32026 0.06521 0.14672 0.15700
H 	H 	0.42063 0.22651 0.94614 0.16400
