data_crystal

_cell_length_a 22.96708
_cell_length_b 20.78746
_cell_length_c 48.95093
_cell_angle_alpha 89.89147
_cell_angle_beta  89.89268
_cell_angle_gamma 119.72350

_symmetry_space_group_name_	'P 1'
_symmetry_space_group_name_H-M	'P 1'

loop_
_symmetry_equiv_pos_as_xyz
  x,y,z

loop_
_atom_site_label
_atom_site_type_symbol
_atom_site_fract_x
_atom_site_fract_y
_atom_site_fract_z
_atom_site_charge
C 	C 	0.82475 0.46053 0.92133 0.32300
C 	C 	0.54108 0.32057 0.88274 0.34800
C 	C 	0.69866 0.50381 0.93161 0.33500
C 	C 	0.66965 0.26341 0.86409 0.32500
C 	C 	0.56204 0.28653 0.96935 0.33200
C 	C 	0.67311 0.20837 0.95221 0.32000
Ni	Ni	0.69098 0.40424 0.88838 1.12300
Ni	Ni	0.59229 0.24415 0.91590 1.13400
Ni	Ni	0.70313 0.37048 0.95300 1.12700
O 	O 	0.79290 0.47177 0.90046 -0.34200
O 	O 	0.79427 0.40166 0.93732 -0.36200
O 	O 	0.55712 0.23143 0.95454 -0.36800
O 	O 	0.59749 0.35580 0.86895 -0.33100
O 	O 	0.54200 0.29837 0.90755 -0.36600
O 	O 	0.68987 0.26997 0.96679 -0.36300
O 	O 	0.65773 0.45772 0.91371 -0.36000
O 	O 	0.72872 0.48072 0.94880 -0.34000
O 	O 	0.64588 0.19760 0.92767 -0.36300
O 	O 	0.70887 0.33630 0.86314 -0.33400
O 	O 	0.60899 0.23295 0.87547 -0.33800
O 	O 	0.61496 0.35274 0.96764 -0.37600
O 	O 	0.67380 0.33560 0.91686 -0.71500
H 	H 	0.70578 0.31912 0.91188 0.18100
C 	C 	0.85869 0.49807 0.57271 0.31300
C 	C 	0.61417 0.22202 0.55134 0.33200
C 	C 	0.67920 0.45855 0.55737 0.33600
C 	C 	0.78440 0.24979 0.57095 0.32500
C 	C 	0.60353 0.31711 0.63035 0.34600
C 	C 	0.77687 0.36479 0.64956 0.32500
Ni	Ni	0.74148 0.36164 0.55055 1.11900
Ni	Ni	0.68346 0.26099 0.60538 1.13300
Ni	Ni	0.73415 0.43382 0.60797 1.13200
O 	O 	0.84047 0.44260 0.55532 -0.35600
O 	O 	0.81327 0.51055 0.58488 -0.34400
O 	O 	0.60345 0.27306 0.61133 -0.36800
O 	O 	0.63969 0.29287 0.54787 -0.36100
O 	O 	0.63504 0.19764 0.57187 -0.35200
O 	O 	0.79520 0.42457 0.63439 -0.36500
O 	O 	0.72344 0.44963 0.54318 -0.35600
O 	O 	0.66565 0.43545 0.58270 -0.36900
O 	O 	0.72309 0.29925 0.64359 -0.33100
O 	O 	0.76227 0.27280 0.54982 -0.34400
O 	O 	0.75764 0.24004 0.59575 -0.34800
O 	O 	0.65856 0.38018 0.63551 -0.34800
O 	O 	0.73604 0.35554 0.58872 -0.71800
H 	H 	0.78138 0.36466 0.59303 0.17200
C 	C 	0.93872 0.01660 0.68625 0.32300
C 	C 	0.92446 0.86894 0.79067 0.34200
C 	C 	0.90316 0.04891 0.75943 0.34500
C 	C 	0.96648 0.81584 0.72357 0.34600
C 	C 	0.10144 0.08415 0.78717 0.35500
C 	C 	0.14909 0.06929 0.71817 0.33100
Ni	Ni	0.90449 0.91717 0.73555 1.12500
Ni	Ni	0.04860 0.94796 0.75704 1.13400
Ni	Ni	0.03272 0.08283 0.73531 1.12600
O 	O 	0.91067 0.94636 0.69450 -0.32400
O 	O 	0.96946 0.07283 0.70378 -0.33500
O 	O 	0.05960 0.01318 0.78873 -0.36700
O 	O 	0.89600 0.90096 0.77761 -0.34100
O 	O 	0.97308 0.86337 0.77874 -0.33500
O 	O 	0.10496 0.08946 0.71043 -0.35400
O 	O 	0.87453 0.99563 0.74145 -0.33500
O 	O 	0.96792 0.08194 0.76350 -0.34600
O 	O 	0.13808 0.02320 0.73923 -0.34100
O 	O 	0.91168 0.82070 0.72915 -0.33800
O 	O 	0.02795 0.87171 0.72770 -0.35200
O 	O 	0.10224 0.12189 0.76540 -0.35100
O 	O 	0.99766 0.97861 0.73611 -0.71000
H 	H 	0.00947 0.97055 0.71754 0.16800
C 	C 	0.30987 0.82598 0.40812 0.32600
C 	C 	0.46144 0.72564 0.47958 0.33500
C 	C 	0.48418 0.88017 0.41021 0.34200
C 	C 	0.28223 0.67381 0.48585 0.31300
C 	C 	0.44525 0.65584 0.39660 0.35400
C 	C 	0.25597 0.57559 0.39909 0.33700
Ni	Ni	0.39117 0.80025 0.45449 1.11900
Ni	Ni	0.35501 0.63139 0.44320 1.12600
Ni	Ni	0.37012 0.73474 0.39291 1.13400
O 	O 	0.35210 0.85381 0.42941 -0.35000
O 	O 	0.29941 0.76499 0.39526 -0.34800
O 	O 	0.39529 0.60558 0.41122 -0.35300
O 	O 	0.43599 0.76834 0.48523 -0.34200
O 	O 	0.44992 0.69450 0.45582 -0.37500
O 	O 	0.30323 0.62734 0.38304 -0.34400
O 	O 	0.48010 0.84613 0.43304 -0.36400
O 	O 	0.43764 0.84599 0.39169 -0.34600
O 	O 	0.26516 0.57194 0.42568 -0.36700
O 	O 	0.30464 0.74278 0.47731 -0.34300
O 	O 	0.31513 0.63718 0.48041 -0.36700
O 	O 	0.44952 0.71975 0.39122 -0.36100
O 	O 	0.35417 0.71753 0.43116 -0.71700
H 	H 	0.30589 0.70082 0.43248 0.17800
C 	C 	0.33600 0.49970 0.05541 0.30700
C 	C 	0.24541 0.69537 0.10670 0.34800
C 	C 	0.16737 0.47370 0.06480 0.34600
C 	C 	0.41650 0.71556 0.10472 0.32900
C 	C 	0.23039 0.68261 0.01525 0.33500
C 	C 	0.40613 0.72248 0.01136 0.30800
Ni	Ni	0.28547 0.58134 0.09281 1.13500
Ni	Ni	0.33370 0.73251 0.05913 1.12900
Ni	Ni	0.27682 0.57916 0.02676 1.12800
O 	O 	0.29779 0.49472 0.07668 -0.33100
O 	O 	0.33561 0.53345 0.03239 -0.36500
O 	O 	0.28599 0.73846 0.02502 -0.37000
O 	O 	0.26951 0.65461 0.11664 -0.32600
O 	O 	0.25112 0.71176 0.08066 -0.36500
O 	O 	0.34855 0.66374 0.00297 -0.35700
O 	O 	0.18769 0.53174 0.08003 -0.34400
O 	O 	0.19989 0.47983 0.04176 -0.34600
O 	O 	0.41204 0.75305 0.03568 -0.37300
O 	O 	0.38457 0.64245 0.10371 -0.34900
O 	O 	0.38980 0.75478 0.09438 -0.33800
O 	O 	0.21093 0.61460 0.02299 -0.36600
O 	O 	0.31350 0.63225 0.05968 -0.71800
H 	H 	0.35896 0.63906 0.05818 0.16700
C 	C 	0.04490 0.94146 0.21848 0.32600
C 	C 	0.99161 0.15438 0.28082 0.36500
C 	C 	0.05277 0.98807 0.29322 0.34500
C 	C 	0.97633 0.11568 0.20296 0.32700
C 	C 	0.84010 0.91358 0.29434 0.35300
C 	C 	0.81523 0.88497 0.22184 0.33400
Ni	Ni	0.04672 0.07698 0.24633 1.12400
Ni	Ni	0.88858 0.02736 0.25002 1.13100
Ni	Ni	0.93379 0.90604 0.25718 1.14000
O 	O 	0.08109 0.00688 0.23081 -0.33100
O 	O 	0.97969 0.89861 0.22309 -0.33100
O 	O 	0.82383 0.95003 0.27672 -0.34400
O 	O 	0.03478 0.16333 0.26147 -0.34700
O 	O 	0.93352 0.09329 0.28247 -0.35300
O 	O 	0.84116 0.85523 0.23886 -0.33500
O 	O 	0.05923 0.05239 0.28641 -0.34300
O 	O 	0.02049 0.93059 0.27706 -0.34400
O 	O 	0.83911 0.95729 0.21981 -0.36200
O 	O 	0.03099 0.11085 0.20816 -0.33300
O 	O 	0.93681 0.11384 0.22321 -0.33600
O 	O 	0.89851 0.91769 0.29293 -0.35400
O 	O 	0.95676 0.00188 0.24494 -0.72500
H 	H 	0.95250 0.99217 0.22517 0.17900
C 	C 	0.96556 0.13472 0.17481 -0.09600
C 	C 	0.95406 0.19454 0.16998 0.12400
C 	C 	0.97232 0.23145 0.14461 0.08100
C 	C 	0.00009 0.20722 0.12408 -0.00400
C 	C 	0.99619 0.13772 0.12697 0.09200
C 	C 	0.97711 0.10046 0.15230 0.12100
C 	C 	0.04845 0.26228 0.10442 0.02700
C 	C 	0.02602 0.27762 0.07973 0.05900
C 	C 	0.06693 0.34514 0.06578 0.13000
C 	C 	0.12724 0.39955 0.07785 -0.11700
C 	C 	0.14789 0.38316 0.10306 0.13700
C 	C 	0.11358 0.31098 0.11340 0.06000
Br	Br	0.02293 0.09755 0.09723 -0.12900
Br	Br	0.90509 0.21912 0.19597 -0.11500
Br	Br	0.03797 0.36515 0.03145 -0.16100
Br	Br	0.15283 0.28136 0.14211 -0.11900
Br	Br	0.95949 0.00010 0.15552 -0.13800
Br	Br	0.96514 0.31899 0.13873 -0.11100
Br	Br	0.93900 0.20768 0.06569 -0.11800
Br	Br	0.20986 0.46029 0.12706 -0.22800
C 	C 	0.47201 0.75086 0.12426 -0.10200
C 	C 	0.53511 0.80893 0.11582 0.12600
C 	C 	0.59220 0.82744 0.13185 0.06800
C 	C 	0.58702 0.78298 0.15459 0.02000
C 	C 	0.52403 0.72435 0.16244 0.06600
C 	C 	0.46640 0.71501 0.14937 0.13000
C 	C 	0.64522 0.80400 0.17255 0.01900
C 	C 	0.69499 0.78592 0.16543 0.07200
C 	C 	0.74942 0.80511 0.18318 0.12600
C 	C 	0.75078 0.83653 0.20876 -0.10100
C 	C 	0.69444 0.84058 0.21749 0.12600
C 	C 	0.64653 0.83372 0.19846 0.06800
Br	Br	0.51710 0.65576 0.19058 -0.11100
Br	Br	0.54376 0.86147 0.08220 -0.18400
Br	Br	0.82236 0.78982 0.17242 -0.11800
Br	Br	0.58463 0.86795 0.20743 -0.11200
Br	Br	0.37983 0.65534 0.16629 -0.11900
Br	Br	0.67663 0.91416 0.12318 -0.12600
Br	Br	0.68788 0.73413 0.13188 -0.12700
Br	Br	0.68024 0.84925 0.25565 -0.13500
C 	C 	0.08025 0.90937 0.20360 -0.09700
C 	C 	0.11451 0.94200 0.17907 0.12800
C 	C 	0.13855 0.90460 0.16267 0.07200
C 	C 	0.13177 0.83670 0.17157 0.02000
C 	C 	0.10105 0.80628 0.19683 0.07000
C 	C 	0.07604 0.84292 0.21300 0.12800
C 	C 	0.16067 0.79955 0.15521 0.02100
C 	C 	0.12013 0.74316 0.13673 0.06700
C 	C 	0.14693 0.70551 0.12218 0.12800
C 	C 	0.21509 0.72656 0.12512 -0.11000
C 	C 	0.25555 0.78290 0.14372 0.12700
C 	C 	0.22799 0.81841 0.15905 0.06700
Br	Br	0.09353 0.71424 0.20927 -0.10600
Br	Br	0.13116 0.03914 0.16852 -0.13300
Br	Br	0.09006 0.62379 0.09871 -0.13600
Br	Br	0.28235 0.89310 0.18543 -0.11100
Br	Br	0.03974 0.80435 0.24874 -0.13700
Br	Br	0.18015 0.94571 0.12789 -0.12700
Br	Br	0.02812 0.71816 0.13127 -0.12000
Br	Br	0.34935 0.81389 0.14740 -0.13000
C 	C 	0.49253 0.63785 0.38329 -0.11100
C 	C 	0.54983 0.64958 0.39769 0.13400
C 	C 	0.61192 0.68067 0.38405 0.06600
C 	C 	0.61489 0.69593 0.35588 0.02300
C 	C 	0.55505 0.66635 0.34075 0.06600
C 	C 	0.49337 0.63587 0.35461 0.13000
C 	C 	0.67840 0.75294 0.34342 0.02000
C 	C 	0.69592 0.82816 0.34457 0.07000
C 	C 	0.75232 0.88161 0.33016 0.13300
C 	C 	0.78856 0.85937 0.31309 -0.10500
C 	C 	0.77221 0.78405 0.31274 0.13500
C 	C 	0.71868 0.73168 0.32873 0.07200
Br	Br	0.55820 0.67318 0.30146 -0.10400
Br	Br	0.54339 0.62580 0.43597 -0.18900
Br	Br	0.78128 0.98542 0.33451 -0.12700
Br	Br	0.69925 0.63012 0.33006 -0.10500
Br	Br	0.41081 0.59913 0.33466 -0.12700
Br	Br	0.69298 0.70760 0.40402 -0.12900
Br	Br	0.64099 0.85740 0.36507 -0.13800
Br	Br	0.81977 0.75109 0.28922 -0.16300
C 	C 	0.00742 0.21476 0.30027 -0.11900
C 	C 	0.00246 0.20076 0.32866 0.12500
C 	C 	0.02205 0.25973 0.34702 0.06800
C 	C 	0.05541 0.33301 0.33724 0.01900
C 	C 	0.05495 0.34664 0.30911 0.06600
C 	C 	0.02941 0.28729 0.29064 0.13000
C 	C 	0.10453 0.39232 0.35498 0.02100
C 	C 	0.08895 0.44307 0.36741 0.06300
C 	C 	0.13857 0.50337 0.38217 0.12600
C 	C 	0.20196 0.50977 0.38596 -0.10900
C 	C 	0.21463 0.45437 0.37602 0.13100
C 	C 	0.16780 0.39863 0.35910 0.06500
Br	Br	0.09433 0.44709 0.29581 -0.10800
Br	Br	0.97812 0.10342 0.34237 -0.11800
Br	Br	0.12013 0.57724 0.39709 -0.15500
Br	Br	0.19130 0.33262 0.34058 -0.12000
Br	Br	0.02413 0.30534 0.25233 -0.12000
Br	Br	0.00864 0.24110 0.38573 -0.13400
Br	Br	0.99991 0.42956 0.36428 -0.10400
Br	Br	0.29369 0.45152 0.38720 -0.14000
C 	C 	0.28352 0.87119 0.39531 -0.10800
C 	C 	0.24745 0.89702 0.41090 0.12400
C 	C 	0.21480 0.93074 0.39767 0.06900
C 	C 	0.21161 0.93079 0.36888 0.01900
C 	C 	0.24795 0.90545 0.35345 0.06700
C 	C 	0.28830 0.88192 0.36669 0.12600
C 	C 	0.16799 0.95442 0.35476 0.02400
C 	C 	0.09874 0.90475 0.35236 0.07100
C 	C 	0.05959 0.92181 0.33495 0.12100
C 	C 	0.09086 0.98269 0.31684 -0.09600
C 	C 	0.16015 0.03371 0.31985 0.12600
C 	C 	0.19708 0.02197 0.34030 0.06700
Br	Br	0.23951 0.89894 0.31418 -0.11000
Br	Br	0.23893 0.88216 0.44993 -0.16300
Br	Br	0.96344 0.86550 0.33758 -0.11500
Br	Br	0.28816 0.09697 0.34788 -0.12000
Br	Br	0.35362 0.87012 0.34580 -0.15700
Br	Br	0.17469 0.97686 0.41881 -0.12100
Br	Br	0.05825 0.81116 0.37149 -0.11900
Br	Br	0.20636 0.11482 0.29446 -0.14200
C 	C 	0.59984 0.05166 0.44226 -0.11200
C 	C 	0.55073 0.06959 0.45012 0.01300
C 	C 	0.49373 0.04651 0.43352 0.11900
C 	C 	0.48192 0.99662 0.41228 -0.02000
C 	C 	0.52034 0.96133 0.41076 -0.11400
C 	C 	0.58480 0.99753 0.42229 0.21200
C 	C 	0.55412 0.10173 0.47740 0.00900
O 	O 	0.44787 0.06888 0.43902 -0.25400
H 	H 	0.43670 0.97639 0.40024 0.08800
O 	O 	0.62847 0.97180 0.41748 -0.25900
H 	H 	0.64674 0.07435 0.45330 0.09400
C 	C 	0.55868 0.06604 0.50121 0.12200
C 	C 	0.57104 0.10190 0.52651 -0.02000
C 	C 	0.57748 0.17252 0.52824 -0.11300
C 	C 	0.56066 0.20127 0.50527 0.19800
C 	C 	0.55307 0.16823 0.47974 -0.10600
O 	O 	0.54900 0.99544 0.49989 -0.25700
H 	H 	0.57805 0.07597 0.54446 0.09000
O 	O 	0.55460 0.26348 0.50755 -0.27000
H 	H 	0.54683 0.19464 0.46174 0.10200
H 	H 	0.65665 0.00185 0.40194 0.18100
H 	H 	0.59449 0.00145 0.49828 0.17000
H 	H 	0.50678 0.24496 0.51211 0.17600
H 	H 	0.41471 0.03080 0.45160 0.16500
C 	C 	0.18503 0.67404 0.54747 -0.09900
C 	C 	0.12085 0.61688 0.54073 0.00800
C 	C 	0.11280 0.56934 0.51881 0.12900
C 	C 	0.16766 0.58413 0.50209 -0.02900
C 	C 	0.23072 0.64546 0.50738 -0.10400
C 	C 	0.24012 0.68781 0.53111 0.20200
C 	C 	0.06148 0.61084 0.55485 0.02400
O 	O 	0.05058 0.51117 0.51273 -0.26000
H 	H 	0.16029 0.55042 0.48416 0.07600
O 	O 	0.30242 0.74560 0.53735 -0.26700
H 	H 	0.19186 0.70948 0.56480 0.10200
C 	C 	0.04051 0.57373 0.58007 0.12000
C 	C 	0.97457 0.54786 0.58910 -0.00300
C 	C 	0.92916 0.55642 0.57247 -0.10300
C 	C 	0.95369 0.60453 0.54985 0.22300
C 	C 	0.01987 0.63164 0.54108 -0.11400
O 	O 	0.08364 0.56112 0.59554 -0.24500
H 	H 	0.95699 0.51458 0.60754 0.08800
O 	O 	0.91176 0.62098 0.53525 -0.26300
H 	H 	0.03711 0.66397 0.52243 0.10200
H 	H 	0.32341 0.72376 0.54905 0.17200
H 	H 	0.07785 0.51308 0.58911 0.17400
H 	H 	0.89244 0.58284 0.52073 0.17100
H 	H 	0.04683 0.46865 0.52340 0.16800
C 	C 	0.54744 0.51322 0.54766 -0.10400
C 	C 	0.58046 0.57603 0.53081 0.01600
C 	C 	0.64450 0.59573 0.52021 0.12700
C 	C 	0.67629 0.55570 0.52809 -0.02100
C 	C 	0.64251 0.49259 0.54475 -0.11100
C 	C 	0.57586 0.46851 0.55266 0.21000
C 	C 	0.54495 0.61643 0.52226 0.01500
O 	O 	0.67620 0.65413 0.50238 -0.25400
H 	H 	0.72721 0.57414 0.52144 0.08200
O 	O 	0.53698 0.39899 0.56350 -0.26900
H 	H 	0.49837 0.49730 0.55600 0.10400
C 	C 	0.47885 0.57708 0.51223 0.12700
C 	C 	0.44593 0.61524 0.50428 -0.01900
C 	C 	0.48155 0.69264 0.50163 -0.11500
C 	C 	0.54622 0.73245 0.51290 0.21000
C 	C 	0.57680 0.69419 0.52408 -0.09900
O 	O 	0.44747 0.50165 0.50899 -0.26100
H 	H 	0.39532 0.58415 0.49644 0.05300
O 	O 	0.58021 0.80843 0.51241 -0.26500
H 	H 	0.62617 0.72505 0.53310 0.10700
H 	H 	0.53829 0.40608 0.58352 0.18700
H 	H 	0.45975 0.49390 0.49034 0.17000
H 	H 	0.60627 0.82238 0.49512 0.17800
H 	H 	0.66152 0.63243 0.48394 0.17700
C 	C 	0.91748 0.03224 0.65973 -0.09600
C 	C 	0.85786 0.03562 0.65824 0.12500
C 	C 	0.84812 0.07372 0.63657 0.07000
C 	C 	0.89263 0.09802 0.61410 0.01900
C 	C 	0.94658 0.08368 0.61361 0.07200
C 	C 	0.96096 0.05423 0.63700 0.12700
C 	C 	0.88387 0.14095 0.59165 0.02000
C 	C 	0.83037 0.10484 0.57311 0.06800
C 	C 	0.80350 0.14523 0.56032 0.13100
C 	C 	0.83060 0.22099 0.56614 -0.10700
C 	C 	0.89442 0.25899 0.57805 0.12700
C 	C 	0.91983 0.21906 0.59213 0.07400
Br	Br	0.99991 0.10355 0.58095 -0.11400
Br	Br	0.78778 0.98394 0.68484 -0.12400
Br	Br	0.72707 0.09651 0.53670 -0.17900
Br	Br	0.00018 0.27060 0.61364 -0.13700
Br	Br	0.04010 0.04467 0.63804 -0.14600
Br	Br	0.77673 0.09710 0.63859 -0.12800
Br	Br	0.79156 0.00010 0.56691 -0.13400
Br	Br	0.94371 0.36521 0.57677 -0.19200
C 	C 	0.54524 0.28971 0.64891 -0.10900
C 	C 	0.51999 0.21976 0.66166 0.13300
C 	C 	0.45636 0.18582 0.67409 0.06800
C 	C 	0.41552 0.21839 0.67174 0.02100
C 	C 	0.44154 0.28914 0.65975 0.06700
C 	C 	0.50830 0.32706 0.65045 0.12800
C 	C 	0.34684 0.18035 0.68339 0.01900
C 	C 	0.29416 0.12032 0.66952 0.07200
C 	C 	0.23023 0.08126 0.68172 0.12300
C 	C 	0.21673 0.10807 0.70592 -0.09900
C 	C 	0.26845 0.17178 0.71855 0.12700
C 	C 	0.33432 0.20333 0.70865 0.07000
Br	Br	0.38500 0.33258 0.65505 -0.12900
Br	Br	0.57230 0.17031 0.66212 -0.16000
Br	Br	0.16248 0.98933 0.66615 -0.12600
Br	Br	0.40773 0.27624 0.73014 -0.10300
Br	Br	0.55078 0.43140 0.64238 -0.16400
Br	Br	0.42542 0.09536 0.69472 -0.10900
Br	Br	0.30932 0.09279 0.63373 -0.13200
Br	Br	0.24844 0.22135 0.74706 -0.14500
C 	C 	0.80782 0.37688 0.67658 -0.09200
C 	C 	0.77796 0.39612 0.69771 0.12300
C 	C 	0.81518 0.46578 0.71028 0.06900
C 	C 	0.88322 0.51123 0.70315 0.01800
C 	C 	0.91627 0.47983 0.68873 0.07900
C 	C 	0.87785 0.40913 0.67702 0.12000
C 	C 	0.91532 0.59278 0.70622 0.01900
C 	C 	0.90573 0.63541 0.68609 0.07300
C 	C 	0.92606 0.71022 0.69112 0.12500
C 	C 	0.95797 0.74315 0.71579 -0.10400
C 	C 	0.97550 0.70320 0.73422 0.13500
C 	C 	0.95187 0.62730 0.72995 0.07000
Br	Br	0.01164 0.53604 0.68278 -0.13700
Br	Br	0.68445 0.33358 0.70582 -0.11300
Br	Br	0.91172 0.76833 0.66397 -0.13700
Br	Br	0.96744 0.56995 0.75701 -0.10400
Br	Br	0.91976 0.36455 0.65643 -0.12700
Br	Br	0.77269 0.50121 0.73531 -0.12400
Br	Br	0.86516 0.59161 0.65170 -0.17500
Br	Br	0.03425 0.75274 0.76445 -0.14800
C 	C 	0.97022 0.58877 0.96613 -0.08600
C 	C 	0.02123 0.62649 0.94683 0.00700
C 	C 	0.00598 0.61460 0.91875 0.12400
C 	C 	0.94144 0.56082 0.91038 -0.00700
C 	C 	0.89133 0.52078 0.92985 -0.10400
C 	C 	0.90602 0.53575 0.95789 0.21000
C 	C 	0.09170 0.66798 0.95629 0.02000
O 	O 	0.05464 0.65315 0.89954 -0.25300
H 	H 	0.93115 0.54866 0.88885 0.09300
O 	O 	0.85713 0.49953 0.97729 -0.27600
H 	H 	0.98129 0.59779 0.98776 0.10500
C 	C 	0.10954 0.72066 0.97735 0.12000
C 	C 	0.16105 0.73238 0.99552 -0.01800
C 	C 	0.19667 0.69443 0.99186 -0.12000
C 	C 	0.18788 0.65433 0.96762 0.20700
C 	C 	0.13497 0.64051 0.95005 -0.10800
O 	O 	0.07205 0.75436 0.98196 -0.25000
H 	H 	0.16975 0.76644 0.01345 0.07800
O 	O 	0.22685 0.62268 0.96245 -0.29100
H 	H 	0.12381 0.60272 0.93311 0.10400
H 	H 	0.86284 0.45758 0.98355 0.16700
H 	H 	0.09388 0.80054 0.97095 0.17200
H 	H 	0.26569 0.66040 0.95184 0.17100
H 	H 	0.05159 0.69825 0.89568 0.18100
C 	C 	0.57589 0.86249 0.99076 -0.10000
C 	C 	0.55948 0.90960 0.97634 0.01300
C 	C 	0.49463 0.88075 0.96539 0.13400
C 	C 	0.44456 0.80868 0.97227 -0.02500
C 	C 	0.45816 0.76701 0.99116 -0.10200
C 	C 	0.52551 0.79063 0.99774 0.20600
C 	C 	0.60652 0.99046 0.97595 0.02300
O 	O 	0.47955 0.92370 0.94879 -0.25200
H 	H 	0.39346 0.78915 0.96569 0.07200
O 	O 	0.54141 0.74545 0.01260 -0.27200
H 	H 	0.62662 0.88290 0.99797 0.09700
C 	C 	0.59704 0.03721 0.99399 0.11900
C 	C 	0.62923 0.11371 0.98893 -0.02400
C 	C 	0.67031 0.14354 0.96578 -0.10700
C 	C 	0.68868 0.09841 0.95079 0.20700
C 	C 	0.65564 0.02177 0.95553 -0.11200
O 	O 	0.55207 0.00761 0.01515 -0.26600
H 	H 	0.61672 0.14835 0.00131 0.07500
O 	O 	0.73311 0.12780 0.92945 -0.26100
H 	H 	0.66546 0.98642 0.94232 0.10800
H 	H 	0.54018 0.75837 0.03200 0.17700
H 	H 	0.57853 0.00597 0.03086 0.17300
H 	H 	0.77772 0.14326 0.93749 0.17900
H 	H 	0.46308 0.94888 0.96122 0.16700
C 	C 	0.35226 0.32868 0.05134 -0.10100
C 	C 	0.41635 0.35850 0.03974 0.01100
C 	C 	0.45784 0.43590 0.03802 0.12800
C 	C 	0.43294 0.48244 0.04561 -0.02600
C 	C 	0.36673 0.45247 0.05481 -0.10100
C 	C 	0.32712 0.37533 0.05876 0.20200
C 	C 	0.43540 0.30993 0.02506 0.01800
O 	O 	0.52048 0.46578 0.02651 -0.25700
H 	H 	0.46393 0.54181 0.04287 0.07700
O 	O 	0.26328 0.34536 0.06911 -0.25600
H 	H 	0.32058 0.26917 0.05318 0.09900
C 	C 	0.48755 0.29966 0.03507 0.12700
C 	C 	0.52440 0.28142 0.01701 -0.02000
C 	C 	0.50933 0.27366 0.98904 -0.11400
C 	C 	0.45053 0.27193 0.98000 0.20800
C 	C 	0.41323 0.28928 0.99814 -0.10500
O 	O 	0.50377 0.30960 0.06229 -0.24900
H 	H 	0.56780 0.27908 0.02436 0.06800
O 	O 	0.43139 0.25708 0.95316 -0.26600
H 	H 	0.37090 0.29353 0.99064 0.09300
H 	H 	0.23385 0.33510 0.05299 0.16900
H 	H 	0.53972 0.36197 0.06402 0.16100
H 	H 	0.45182 0.30608 0.94396 0.17700
H 	H 	0.55154 0.47661 0.04207 0.16200
C 	C 	0.86267 0.07351 0.77452 -0.10900
C 	C 	0.84611 0.05279 0.80200 0.13200
C 	C 	0.79733 0.06402 0.81476 0.07000
C 	C 	0.77738 0.11140 0.80263 0.02100
C 	C 	0.79823 0.13761 0.77577 0.06900
C 	C 	0.83990 0.11737 0.76151 0.13100
C 	C 	0.74733 0.14552 0.81987 0.02000
C 	C 	0.67876 0.12317 0.81756 0.07000
C 	C 	0.65257 0.16206 0.83173 0.12600
C 	C 	0.69282 0.21627 0.85110 -0.10700
C 	C 	0.75876 0.23087 0.85594 0.12900
C 	C 	0.78764 0.20081 0.83869 0.06600
Br	Br	0.77280 0.20439 0.75922 -0.11200
Br	Br	0.90032 0.02520 0.82363 -0.12700
Br	Br	0.56448 0.14571 0.82269 -0.11300
Br	Br	0.88316 0.23819 0.83979 -0.11800
Br	Br	0.87212 0.15674 0.72545 -0.12700
Br	Br	0.75993 0.01741 0.84939 -0.12000
Br	Br	0.62100 0.03915 0.79525 -0.10900
Br	Br	0.80818 0.28835 0.88716 -0.17300
C 	C 	0.47582 0.29276 0.86879 -0.11300
C 	C 	0.42180 0.22213 0.87568 0.13500
C 	C 	0.35693 0.20240 0.86730 0.06500
C 	C 	0.34772 0.24208 0.84613 0.02000
C 	C 	0.40223 0.30992 0.83730 0.06900
C 	C 	0.46507 0.33794 0.85014 0.13000
C 	C 	0.28531 0.20539 0.82996 0.02300
C 	C 	0.27303 0.14468 0.81347 0.06900
C 	C 	0.20781 0.09584 0.80475 0.13100
C 	C 	0.15877 0.11765 0.80599 -0.11000
C 	C 	0.17143 0.18060 0.82131 0.13200
C 	C 	0.23378 0.22250 0.83441 0.07100
Br	Br	0.39178 0.36222 0.80683 -0.09900
Br	Br	0.43773 0.14738 0.89177 -0.19400
Br	Br	0.18386 0.99584 0.79530 -0.16700
Br	Br	0.24792 0.30134 0.85896 -0.12400
Br	Br	0.53395 0.43884 0.84335 -0.12100
Br	Br	0.28066 0.11899 0.88393 -0.13200
Br	Br	0.34584 0.12926 0.80249 -0.10800
Br	Br	0.10273 0.20760 0.82504 -0.12700
C 	C 	0.89657 0.83138 0.81770 -0.09800
C 	C 	0.83898 0.82931 0.82960 0.13100
C 	C 	0.82077 0.80256 0.85642 0.07300
C 	C 	0.83930 0.75204 0.86672 0.01700
C 	C 	0.89071 0.74611 0.85319 0.07200
C 	C 	0.92673 0.79612 0.83206 0.13300
C 	C 	0.79877 0.69878 0.88888 0.01800
C 	C 	0.82899 0.69558 0.91373 0.06500
C 	C 	0.79213 0.63675 0.93240 0.12300
C 	C 	0.72501 0.58425 0.92645 -0.11300
C 	C 	0.69195 0.60352 0.90677 0.12300
C 	C 	0.72910 0.65143 0.88549 0.05900
Br	Br	0.90671 0.66550 0.86078 -0.15700
Br	Br	0.77315 0.83752 0.80770 -0.12800
Br	Br	0.82649 0.63950 0.96840 -0.14000
Br	Br	0.68717 0.64145 0.85048 -0.12000
Br	Br	0.02155 0.83210 0.82953 -0.14100
Br	Br	0.76993 0.83385 0.87846 -0.11400
Br	Br	0.91838 0.77260 0.92267 -0.13400
Br	Br	0.59630 0.56194 0.90853 -0.13600
