data_crystal

_cell_length_a 26.23580
_cell_length_b 26.26829
_cell_length_c 34.90504
_cell_angle_alpha 95.46983
_cell_angle_beta  95.46452
_cell_angle_gamma 125.72612

_symmetry_space_group_name_	'P 1'
_symmetry_space_group_name_H-M	'P 1'

loop_
_symmetry_equiv_pos_as_xyz
  x,y,z

loop_
_atom_site_label
_atom_site_type_symbol
_atom_site_fract_x
_atom_site_fract_y
_atom_site_fract_z
_atom_site_charge
C 	C 	0.97207 0.03764 0.00405 0.11000
N 	N 	0.93504 0.97300 0.99990 -0.13900
C 	C 	0.96177 0.94177 0.99728 0.11100
N 	N 	0.02570 0.97533 0.99886 -0.13800
C 	C 	0.06293 0.03981 0.00273 0.11300
N 	N 	0.03611 0.07105 0.00524 -0.13700
C 	C 	0.93714 0.99661 0.44795 0.11100
N 	N 	0.00105 0.03190 0.44828 -0.13900
C 	C 	0.03171 0.00451 0.45044 0.11500
N 	N 	0.99819 0.94158 0.45212 -0.14100
C 	C 	0.93439 0.90591 0.45151 0.11300
N 	N 	0.90379 0.93344 0.44962 -0.13900
Cu	Cu	0.63952 0.24582 0.00568 0.92700
Cu	Cu	0.68191 0.24176 0.92047 0.87000
Cu	Cu	0.67180 0.34412 0.95329 0.89700
Cu	Cu	0.63981 0.36409 0.03101 0.89400
C 	C 	0.66463 0.29898 0.08715 0.27700
O 	O 	0.54662 0.20731 0.00716 -0.36300
C 	C 	0.64726 0.29716 0.86772 0.27800
O 	O 	0.68970 0.34463 0.00777 -0.64100
O 	O 	0.62740 0.25020 0.94952 -0.64100
O 	O 	0.67931 0.20027 0.00280 -0.37300
O 	O 	0.74526 0.26190 0.96298 -0.44100
O 	O 	0.63398 0.32309 0.07738 -0.38200
O 	O 	0.71942 0.43589 0.96095 -0.38300
C 	C 	0.71307 0.47091 0.98700 0.28500
C 	C 	0.51983 0.23316 0.99368 0.27800
O 	O 	0.55600 0.29185 0.98737 -0.39100
O 	O 	0.67256 0.44517 0.01138 -0.39500
O 	O 	0.66414 0.25837 0.06130 -0.35900
C 	C 	0.73113 0.22289 0.98776 0.28300
O 	O 	0.66949 0.34566 0.89662 -0.38500
O 	O 	0.63894 0.24447 0.87438 -0.41800
H 	H 	0.73574 0.37269 0.01964 0.16300
H 	H 	0.58233 0.22400 0.93580 0.17200
Cu	Cu	0.73252 0.33228 0.45450 0.92700
Cu	Cu	0.72488 0.27833 0.53660 0.87000
Cu	Cu	0.62732 0.29362 0.50230 0.89700
Cu	Cu	0.61847 0.33769 0.42733 0.89400
C 	C 	0.69416 0.32512 0.37274 0.27900
O 	O 	0.77442 0.42696 0.45755 -0.36200
C 	C 	0.66601 0.31020 0.58793 0.27800
O 	O 	0.63324 0.28314 0.44826 -0.64000
O 	O 	0.72169 0.33757 0.50979 -0.64000
O 	O 	0.77474 0.28882 0.45650 -0.37200
O 	O 	0.70607 0.21893 0.49209 -0.44100
O 	O 	0.66662 0.35196 0.38341 -0.38400
O 	O 	0.53552 0.24696 0.49086 -0.38000
C 	C 	0.50429 0.25605 0.46377 0.28500
C 	C 	0.74716 0.45268 0.47031 0.27800
O 	O 	0.68756 0.41543 0.47490 -0.39200
O 	O 	0.53464 0.30277 0.44385 -0.39400
O 	O 	0.72548 0.31465 0.39886 -0.36100
C 	C 	0.74814 0.23464 0.46929 0.28200
O 	O 	0.61923 0.28824 0.55783 -0.38500
O 	O 	0.71885 0.31724 0.58314 -0.41800
H 	H 	0.60544 0.23831 0.43409 0.16300
H 	H 	0.74718 0.38138 0.52539 0.17200
C 	C 	0.74491 0.42263 0.72498 -0.04300
C 	C 	0.74187 0.42089 0.76470 -0.04400
C 	C 	0.69058 0.36653 0.77609 0.01500
C 	C 	0.64064 0.31458 0.74727 -0.00900
C 	C 	0.64331 0.31665 0.70727 -0.00900
C 	C 	0.69646 0.37021 0.69613 0.01400
C 	C 	0.59426 0.26398 0.67846 0.01500
C 	C 	0.54198 0.21042 0.68983 -0.04300
C 	C 	0.53968 0.20807 0.72958 -0.04300
C 	C 	0.58943 0.25943 0.75846 0.01400
C 	C 	0.58994 0.25532 0.79830 -0.02700
C 	C 	0.64109 0.30592 0.82693 -0.06200
C 	C 	0.69007 0.36231 0.81586 -0.02800
C 	C 	0.70181 0.36952 0.65648 -0.02700
C 	C 	0.65439 0.31590 0.62796 -0.06200
C 	C 	0.59958 0.26429 0.63882 -0.02700
H 	H 	0.78550 0.46435 0.71671 0.03700
H 	H 	0.78014 0.46133 0.78662 0.03700
H 	H 	0.50372 0.16999 0.66791 0.03800
H 	H 	0.49970 0.16584 0.73787 0.03700
H 	H 	0.55166 0.21224 0.80698 0.03900
H 	H 	0.72932 0.40148 0.83803 0.04200
H 	H 	0.74367 0.40964 0.64791 0.03800
H 	H 	0.56287 0.22309 0.61669 0.04200
C 	C 	0.64338 0.19729 0.20196 -0.04200
C 	C 	0.64722 0.20097 0.24256 -0.04300
C 	C 	0.67749 0.26017 0.26749 0.01700
C 	C 	0.70623 0.31637 0.25158 -0.00800
C 	C 	0.70236 0.31267 0.21074 -0.00800
C 	C 	0.66975 0.25278 0.18578 0.01600
C 	C 	0.72863 0.36858 0.19476 0.01600
C 	C 	0.76091 0.42802 0.21977 -0.04300
C 	C 	0.76479 0.43170 0.26032 -0.04200
C 	C 	0.73642 0.37598 0.27635 0.01600
C 	C 	0.73556 0.37884 0.31658 -0.02500
C 	C 	0.70423 0.32264 0.33215 -0.05600
C 	C 	0.67711 0.26366 0.30790 -0.02900
C 	C 	0.66143 0.24886 0.14496 -0.02400
C 	C 	0.68449 0.30421 0.12907 -0.05700
C 	C 	0.71984 0.36407 0.15397 -0.02800
H 	H 	0.61885 0.15113 0.18307 0.03900
H 	H 	0.62563 0.15760 0.25450 0.03900
H 	H 	0.78196 0.47133 0.20780 0.03700
H 	H 	0.78881 0.47781 0.27917 0.03800
H 	H 	0.75734 0.42442 0.33560 0.04400
H 	H 	0.65352 0.22045 0.32016 0.03700
H 	H 	0.63443 0.20268 0.12566 0.04800
H 	H 	0.73833 0.40676 0.14157 0.03100
C 	C 	0.89867 0.83733 0.45207 -0.00700
C 	C 	0.86555 0.81213 0.48251 -0.03100
C 	C 	0.84188 0.75021 0.48758 -0.03600
C 	C 	0.84842 0.71115 0.46084 -0.00800
C 	C 	0.88338 0.73761 0.43067 0.02500
C 	C 	0.90640 0.79959 0.42580 -0.05100
C 	C 	0.89797 0.70329 0.40697 -0.04900
C 	C 	0.87943 0.64360 0.41321 -0.03700
C 	C 	0.84248 0.61513 0.44166 0.00400
C 	C 	0.82419 0.64740 0.46470 0.01000
C 	C 	0.77964 0.61401 0.48918 -0.05600
C 	C 	0.75825 0.55227 0.49296 0.00100
C 	C 	0.77804 0.52127 0.47105 -0.07600
C 	C 	0.82093 0.55326 0.44591 -0.01800
H 	H 	0.86131 0.84183 0.50369 0.04000
H 	H 	0.82286 0.73501 0.51372 0.03700
H 	H 	0.93291 0.81959 0.40259 0.04600
H 	H 	0.92527 0.72371 0.38417 0.04000
H 	H 	0.89268 0.61866 0.39517 0.03700
H 	H 	0.75817 0.63353 0.50329 0.04100
H 	H 	0.72414 0.52752 0.51187 0.03300
H 	H 	0.83506 0.52887 0.42816 0.04500
C 	C 	0.90449 0.02732 0.44667 -0.00700
C 	C 	0.92800 0.08050 0.42852 -0.03200
C 	C 	0.90113 0.11334 0.43010 -0.03500
C 	C 	0.84790 0.09170 0.44849 -0.00900
C 	C 	0.82553 0.03917 0.46789 0.02600
C 	C 	0.85284 0.00642 0.46597 -0.05300
C 	C 	0.77846 0.02193 0.49068 -0.05100
C 	C 	0.75513 0.05757 0.49577 -0.03700
C 	C 	0.77559 0.10891 0.47634 0.00100
C 	C 	0.81922 0.12405 0.45062 0.01100
C 	C 	0.83132 0.16942 0.42691 -0.05700
C 	C 	0.80793 0.20513 0.43287 0.00500
C 	C 	0.76971 0.19426 0.46117 -0.08200
C 	C 	0.75219 0.14482 0.48202 -0.01900
H 	H 	0.96839 0.09756 0.41395 0.04300
H 	H 	0.92434 0.15740 0.41905 0.03700
H 	H 	0.83558 0.96631 0.48087 0.04900
H 	H 	0.76131 0.98189 0.50557 0.04000
H 	H 	0.72051 0.04483 0.51471 0.03300
H 	H 	0.85575 0.17500 0.40265 0.04300
H 	H 	0.81872 0.24054 0.41495 0.04100
H 	H 	0.72072 0.13453 0.50289 0.03000
C 	C 	0.10145 0.04301 0.45127 -0.00700
C 	C 	0.14018 0.10965 0.46304 -0.03100
C 	C 	0.20630 0.14581 0.46525 -0.03500
C 	C 	0.23477 0.11591 0.45453 -0.00900
C 	C 	0.19621 0.04839 0.44535 0.02600
C 	C 	0.12974 0.01266 0.44223 -0.05300
C 	C 	0.22465 0.01713 0.44102 -0.05000
C 	C 	0.29093 0.05205 0.44644 -0.03600
C 	C 	0.32975 0.11892 0.45347 0.00300
C 	C 	0.30168 0.15145 0.45526 0.01300
C 	C 	0.34042 0.21777 0.45544 -0.05700
C 	C 	0.40647 0.25172 0.45852 0.00700
C 	C 	0.43470 0.22004 0.46016 -0.07500
C 	C 	0.39629 0.15368 0.45731 -0.01500
H 	H 	0.11937 0.13343 0.47170 0.04400
H 	H 	0.23517 0.19617 0.47756 0.03700
H 	H 	0.10021 0.96114 0.43348 0.05000
H 	H 	0.19537 0.96544 0.43451 0.04100
H 	H 	0.31209 0.02694 0.44429 0.03500
H 	H 	0.31958 0.24262 0.45112 0.04300
H 	H 	0.43571 0.30276 0.45935 0.03500
H 	H 	0.41802 0.12897 0.45714 0.03400
C 	C 	0.92186 0.87175 0.99381 -0.00700
C 	C 	0.87015 0.84087 0.01344 -0.03100
C 	C 	0.83455 0.77511 0.01218 -0.03500
C 	C 	0.84867 0.73850 0.98982 -0.00900
C 	C 	0.90317 0.77040 0.97190 0.02600
C 	C 	0.93805 0.83633 0.97292 -0.05300
C 	C 	0.92393 0.73668 0.95467 -0.05000
C 	C 	0.89226 0.67212 0.95588 -0.03600
C 	C 	0.83675 0.63904 0.97202 0.00300
C 	C 	0.81231 0.67115 0.98705 0.01100
C 	C 	0.75109 0.63483 0.99711 -0.05700
C 	C 	0.71916 0.56981 0.99722 0.00400
C 	C 	0.74622 0.53924 0.98570 -0.07400
C 	C 	0.80444 0.57371 0.97241 -0.01600
H 	H 	0.85894 0.86821 0.03097 0.04200
H 	H 	0.79895 0.75392 0.03053 0.03700
H 	H 	0.97853 0.86027 0.95811 0.04900
H 	H 	0.96595 0.76104 0.94126 0.04000
H 	H 	0.91038 0.64746 0.94360 0.03500
H 	H 	0.72652 0.65561 0.00278 0.04200
H 	H 	0.67252 0.54285 0.00541 0.03500
H 	H 	0.82461 0.54980 0.96244 0.04000
C 	C 	0.77021 0.19992 0.99576 -0.08300
C 	C 	0.74420 0.14249 0.00949 0.00500
C 	C 	0.77848 0.11732 0.01343 -0.05800
C 	C 	0.84091 0.15060 0.00503 0.01200
C 	C 	0.86612 0.20736 0.98979 0.00100
C 	C 	0.83166 0.23276 0.98660 -0.01800
C 	C 	0.92382 0.23631 0.97594 -0.03700
C 	C 	0.95541 0.20824 0.97552 -0.05100
C 	C 	0.93216 0.15296 0.99127 0.02600
C 	C 	0.87702 0.12609 0.00854 -0.01000
C 	C 	0.86077 0.07708 0.02986 -0.03500
C 	C 	0.89252 0.04910 0.02879 -0.03200
C 	C 	0.94283 0.07133 0.00806 -0.00500
C 	C 	0.96389 0.12456 0.99038 -0.05700
H 	H 	0.69617 0.11579 0.01562 0.03700
H 	H 	0.75460 0.07023 0.02053 0.04200
H 	H 	0.85190 0.27705 0.97584 0.03600
H 	H 	0.94317 0.27962 0.96418 0.03300
H 	H 	0.99853 0.22997 0.96321 0.03900
H 	H 	0.82603 0.06259 0.04875 0.03700
H 	H 	0.87847 0.01051 0.04454 0.04200
H 	H 	0.00417 0.14320 0.97545 0.05000
C 	C 	0.13242 0.07557 0.00561 -0.00700
C 	C 	0.16596 0.06168 0.03071 -0.03000
C 	C 	0.22966 0.08775 0.02941 -0.03600
C 	C 	0.26007 0.12615 0.00157 -0.00700
C 	C 	0.22842 0.14575 0.97934 0.02400
C 	C 	0.16429 0.11936 0.98094 -0.05200
C 	C 	0.26139 0.19198 0.95621 -0.04900
C 	C 	0.32535 0.21900 0.95502 -0.03700
C 	C 	0.35630 0.19747 0.97499 0.00400
C 	C 	0.32269 0.14822 0.99667 0.01000
C 	C 	0.35102 0.12000 0.01097 -0.05500
C 	C 	0.41460 0.14649 0.00884 0.00300
C 	C 	0.45030 0.19995 0.99113 -0.07600
C 	C 	0.42026 0.22385 0.97296 -0.02000
H 	H 	0.14249 0.03039 0.05126 0.04200
H 	H 	0.25560 0.08003 0.05107 0.03800
H 	H 	0.13888 0.13169 0.96242 0.04700
H 	H 	0.23776 0.20792 0.93964 0.04000
H 	H 	0.35054 0.25598 0.93787 0.03700
H 	H 	0.32352 0.07622 0.02222 0.04200
H 	H 	0.43616 0.12552 0.02122 0.04000
H 	H 	0.44662 0.26301 0.95743 0.04000
