data_crystal

_cell_length_a 45.33427
_cell_length_b 40.84940
_cell_length_c 26.08385
_cell_angle_alpha 89.96604
_cell_angle_beta  89.94933
_cell_angle_gamma 87.42041

_symmetry_space_group_name_	'P 1'
_symmetry_space_group_name_H-M	'P 1'

loop_
_symmetry_equiv_pos_as_xyz
  x,y,z

loop_
_atom_site_label
_atom_site_type_symbol
_atom_site_fract_x
_atom_site_fract_y
_atom_site_fract_z
_atom_site_charge
C 	C 	0.45490 0.53752 0.98857 -0.03900
C 	C 	0.48196 0.55226 0.99213 -0.03500
C 	C 	0.45351 0.50312 0.98880 0.01500
C 	C 	0.47999 0.48345 0.99141 -0.00700
C 	C 	0.50749 0.49842 0.99514 -0.00100
C 	C 	0.50848 0.53305 0.99550 0.00800
C 	C 	0.47899 0.44882 0.99054 0.01700
C 	C 	0.50552 0.42960 0.99374 -0.04500
C 	C 	0.53393 0.47875 0.99880 0.01500
C 	C 	0.53609 0.54781 0.99935 0.00400
C 	C 	0.56205 0.52817 0.00310 -0.05800
C 	C 	0.56127 0.49396 0.00319 -0.01400
C 	C 	0.42608 0.48795 0.98627 -0.01300
C 	C 	0.42533 0.45379 0.98441 -0.03800
C 	C 	0.45135 0.43411 0.98663 -0.01300
C 	C 	0.53826 0.58383 0.99983 0.03600
C 	C 	0.53995 0.60112 0.95353 -0.05500
C 	C 	0.54483 0.63469 0.95389 -0.00800
C 	C 	0.54815 0.65120 0.00061 -0.01800
C 	C 	0.54605 0.63394 0.04692 -0.01600
C 	C 	0.54106 0.60041 0.04652 -0.06800
C 	C 	0.58935 0.47456 0.00876 0.00400
C 	C 	0.60221 0.47055 0.05735 -0.04400
C 	C 	0.63141 0.45845 0.06192 -0.02300
C 	C 	0.60518 0.46425 0.96502 -0.03200
C 	C 	0.63433 0.45193 0.96959 -0.01500
C 	C 	0.64789 0.45009 0.01793 -0.01800
C 	C 	0.39786 0.50740 0.98759 0.03300
C 	C 	0.38593 0.51802 0.03465 -0.06000
C 	C 	0.35785 0.53356 0.03652 -0.04200
C 	C 	0.34147 0.53849 0.99130 0.01100
C 	C 	0.35378 0.52864 0.94408 -0.02500
C 	C 	0.38189 0.51319 0.94224 -0.04800
C 	C 	0.44906 0.39812 0.98614 0.03300
C 	C 	0.44693 0.38151 0.93931 -0.04800
C 	C 	0.43907 0.34878 0.93849 -0.02700
C 	C 	0.43308 0.33252 0.98449 0.01300
C 	C 	0.43687 0.34859 0.03145 -0.04300
C 	C 	0.44475 0.38129 0.03224 -0.05900
C 	C 	0.53257 0.44434 0.99809 -0.02000
H 	H 	0.53798 0.58844 0.91731 0.05000
H 	H 	0.54668 0.64769 0.91790 0.04000
H 	H 	0.54853 0.64645 0.08318 0.04400
H 	H 	0.53988 0.58718 0.08243 0.04900
H 	H 	0.34133 0.53239 0.90897 0.04900
H 	H 	0.39101 0.50508 0.90575 0.04800
H 	H 	0.34846 0.54081 0.07322 0.04300
H 	H 	0.39815 0.51359 0.06984 0.04500
H 	H 	0.45029 0.39431 0.90354 0.04800
H 	H 	0.43652 0.33649 0.90207 0.04900
H 	H 	0.44647 0.39390 0.06857 0.04500
H 	H 	0.43292 0.33604 0.06724 0.04300
H 	H 	0.59004 0.47827 0.09135 0.04400
H 	H 	0.64162 0.45691 0.09943 0.04500
H 	H 	0.59533 0.46710 0.92736 0.04600
H 	H 	0.64685 0.44546 0.93539 0.04400
H 	H 	0.43503 0.55308 0.98536 0.04700
H 	H 	0.48211 0.57874 0.99226 0.04600
H 	H 	0.58312 0.53962 0.00621 0.04900
H 	H 	0.55246 0.42877 0.00081 0.03000
H 	H 	0.50536 0.40312 0.99301 0.05000
H 	H 	0.40422 0.44237 0.98212 0.04900
Zn	Zn	0.36749 0.09506 0.98347 1.22400
C 	C 	0.31376 0.05933 0.98869 0.32200
O 	O 	0.38685 0.09064 0.05095 -0.46500
O 	O 	0.32982 0.03242 0.97915 -0.43900
O 	O 	0.36325 0.04532 0.07504 -0.47800
C 	C 	0.38471 0.04615 0.90923 0.31400
O 	O 	0.36815 0.07288 0.91711 -0.44300
O 	O 	0.39459 0.02860 0.94823 -0.48700
C 	C 	0.37741 0.07145 0.08727 0.30700
O 	O 	0.40825 0.12389 0.95372 -0.31500
Zn	Zn	0.37118 0.02371 0.01000 1.17000
O 	O 	0.32649 0.08622 0.00286 -0.43300
C 	C 	0.39073 0.14981 0.95761 0.26800
O 	O 	0.36429 0.14461 0.97354 -0.35700
C 	C 	0.50674 0.95665 0.53409 0.01300
C 	C 	0.47698 0.96887 0.53827 0.01500
C 	C 	0.52528 0.96921 0.49633 -0.05400
C 	C 	0.51454 0.99401 0.46298 0.01600
C 	C 	0.46608 0.99327 0.50430 -0.05300
C 	C 	0.48467 0.00596 0.46672 0.01200
H 	H 	0.44334 0.00244 0.50725 0.05400
H 	H 	0.54795 0.95987 0.49312 0.05400
C 	C 	0.47455 0.03142 0.43354 -0.01100
C 	C 	0.49288 0.04387 0.39540 0.00800
C 	C 	0.47683 0.05854 0.35371 -0.04400
C 	C 	0.44621 0.05701 0.35909 -0.00200
S 	S 	0.43970 0.03723 0.41378 0.00300
H 	H 	0.48699 0.06605 0.31834 0.05100
C 	C 	0.53323 0.00839 0.42687 -0.01700
C 	C 	0.52254 0.03245 0.39240 0.01200
C 	C 	0.54064 0.03514 0.34803 -0.04700
C 	C 	0.56507 0.01290 0.34800 -0.00700
S 	S 	0.56321 0.98993 0.40077 0.01700
H 	H 	0.53457 0.04996 0.31501 0.04600
C 	C 	0.49919 0.92022 0.60750 0.00900
C 	C 	0.51708 0.93166 0.56793 -0.01200
S 	S 	0.55207 0.92640 0.58702 0.00400
C 	C 	0.54634 0.90845 0.64346 -0.00100
C 	C 	0.51577 0.90676 0.64963 -0.04500
C 	C 	0.45866 0.95552 0.57597 -0.01700
C 	C 	0.46964 0.93200 0.61117 0.01200
C 	C 	0.45236 0.93073 0.65674 -0.04800
C 	C 	0.42844 0.95368 0.65734 -0.00600
S 	S 	0.42960 0.97530 0.60306 0.01900
H 	H 	0.45878 0.91634 0.69003 0.04700
H 	H 	0.50599 0.90044 0.68592 0.05100
Zn	Zn	0.63275 0.88363 0.01340 1.21800
C 	C 	0.68652 0.91864 0.00106 0.29600
O 	O 	0.61136 0.90480 0.07133 -0.46000
O 	O 	0.67125 0.93908 0.97138 -0.41800
O 	O 	0.63449 0.95283 0.06446 -0.48200
C 	C 	0.61709 0.90821 0.91387 0.31500
O 	O 	0.63453 0.88721 0.93881 -0.43800
O 	O 	0.60725 0.93527 0.93628 -0.48700
C 	C 	0.61973 0.93223 0.09194 0.30400
O 	O 	0.59281 0.84912 0.00071 -0.31600
Zn	Zn	0.62910 0.95557 0.99080 1.17800
O 	O 	0.67300 0.89708 0.02905 -0.42800
C 	C 	0.61014 0.82641 0.02069 0.27100
O 	O 	0.63608 0.83545 0.03391 -0.38000
Zn	Zn	0.11822 0.59971 0.01208 1.21800
C 	C 	0.08162 0.65916 0.01401 0.29400
O 	O 	0.10936 0.57496 0.07474 -0.45100
O 	O 	0.06056 0.64216 0.99391 -0.41600
O 	O 	0.06452 0.60060 0.08754 -0.49300
C 	C 	0.08491 0.58417 0.92367 0.31500
O 	O 	0.10494 0.60337 0.94129 -0.43000
O 	O 	0.06599 0.57152 0.95524 -0.49500
C 	C 	0.08770 0.58416 0.10566 0.30600
O 	O 	0.14935 0.55538 0.98420 -0.31500
Zn	Zn	0.05288 0.59497 0.01674 1.16700
O 	O 	0.10518 0.64406 0.03396 -0.43000
C 	C 	0.17078 0.57400 0.99600 0.28400
O 	O 	0.16296 0.60254 0.01429 -0.37600
C 	C 	0.99855 0.48157 0.48321 0.01200
C 	C 	0.02604 0.49662 0.47791 0.01500
C 	C 	0.97812 0.49320 0.52027 -0.05300
C 	C 	0.98401 0.52092 0.54976 0.01500
C 	C 	0.03222 0.52385 0.50837 -0.05300
C 	C 	0.01102 0.53668 0.54314 0.01400
H 	H 	0.05310 0.53546 0.50425 0.05400
H 	H 	0.95747 0.48122 0.52531 0.05400
C 	C 	0.01572 0.56570 0.57062 -0.01400
C 	C 	0.99481 0.57857 0.60584 0.00900
C 	C 	0.00762 0.59841 0.64416 -0.04300
C 	C 	0.03840 0.59941 0.64078 -0.00800
S 	S 	0.04876 0.57690 0.59012 0.01400
H 	H 	0.99565 0.60766 0.67737 0.04700
C 	C 	0.96292 0.53428 0.58455 -0.01600
C 	C 	0.96817 0.56266 0.61298 0.01100
C 	C 	0.95142 0.56472 0.65929 -0.04900
C 	C 	0.93480 0.53721 0.66857 -0.00300
S 	S 	0.94029 0.51189 0.61908 0.01700
H 	H 	0.95372 0.58376 0.68760 0.04600
C 	C 	0.01088 0.44647 0.40911 0.00800
C 	C 	0.99192 0.45566 0.44986 -0.01100
S 	S 	0.95777 0.44722 0.43208 0.00200
C 	C 	0.96537 0.43113 0.37449 -0.00200
C 	C 	0.99588 0.43243 0.36695 -0.04400
C 	C 	0.04636 0.48433 0.44080 -0.01600
C 	C 	0.03854 0.46056 0.40513 0.01200
C 	C 	0.05569 0.46104 0.35924 -0.04700
C 	C 	0.07641 0.48550 0.35896 -0.00700
S 	S 	0.07269 0.50591 0.41412 0.01700
H 	H 	0.05087 0.44696 0.32542 0.04600
H 	H 	0.00603 0.42772 0.33001 0.05100
Zn	Zn	0.87233 0.41772 0.00491 1.21700
C 	C 	0.81934 0.45647 0.02784 0.30800
O 	O 	0.86697 0.44269 0.94100 -0.43400
O 	O 	0.83390 0.48221 0.01426 -0.44900
O 	O 	0.89520 0.48365 0.96898 -0.48700
C 	C 	0.89020 0.43614 0.10687 0.30900
O 	O 	0.89676 0.41785 0.06672 -0.46800
O 	O 	0.87537 0.46415 0.10097 -0.48100
C 	C 	0.88303 0.46789 0.93124 0.31400
O 	O 	0.91178 0.38718 0.96627 -0.31100
Zn	Zn	0.87694 0.48759 0.03651 1.16900
O 	O 	0.83352 0.42814 0.03593 -0.42400
C 	C 	0.89377 0.36338 0.96507 0.26800
O 	O 	0.86771 0.37027 0.98355 -0.35500
C 	C 	0.94236 0.02692 0.00780 -0.04000
C 	C 	0.95497 0.05741 0.00857 -0.04100
C 	C 	0.96016 0.99797 0.00212 0.00300
C 	C 	0.99130 0.99989 0.00165 -0.03100
C 	C 	0.00413 0.03084 0.00369 0.00400
C 	C 	0.98583 0.05981 0.00531 0.00900
C 	C 	0.00960 0.97092 0.99934 0.05600
C 	C 	0.04052 0.97321 0.00063 -0.08800
C 	C 	0.03525 0.03278 0.00397 -0.00500
C 	C 	0.99880 0.09069 0.00429 -0.02700
C 	C 	0.02955 0.09242 0.00512 -0.04300
C 	C 	0.04785 0.06391 0.00528 -0.00300
C 	C 	0.94749 0.96699 0.99754 -0.00100
C 	C 	0.96581 0.93856 0.99452 -0.03500
C 	C 	0.99655 0.94015 0.99592 -0.02500
C 	C 	0.98052 0.12136 0.99956 0.05100
C 	C 	0.97181 0.13291 0.95100 -0.05300
C 	C 	0.95514 0.16238 0.94635 -0.02200
C 	C 	0.94694 0.18042 0.99025 0.01000
C 	C 	0.95554 0.16872 0.03888 -0.03800
C 	C 	0.97231 0.13932 0.04348 -0.06500
C 	C 	0.08019 0.06709 0.00598 0.00100
C 	C 	0.09522 0.06865 0.05282 -0.04100
C 	C 	0.12577 0.07209 0.05350 -0.03200
C 	C 	0.09584 0.06928 0.95980 -0.02900
C 	C 	0.12639 0.07270 0.96042 -0.01500
C 	C 	0.14149 0.07423 0.00727 -0.01000
C 	C 	0.91509 0.96380 0.99477 0.03100
C 	C 	0.90054 0.94670 0.03322 -0.05800
C 	C 	0.87070 0.94017 0.02787 -0.03900
C 	C 	0.85490 0.95120 0.98438 0.01500
C 	C 	0.86922 0.96957 0.94691 -0.03300
C 	C 	0.89934 0.97503 0.95144 -0.04500
C 	C 	0.01468 0.90927 0.99324 0.03800
C 	C 	0.02508 0.89758 0.94572 -0.04900
C 	C 	0.03755 0.86578 0.94156 -0.03100
C 	C 	0.03929 0.84528 0.98481 0.01300
C 	C 	0.03061 0.85775 0.03290 -0.03800
C 	C 	0.01830 0.88962 0.03707 -0.06300
C 	C 	0.05315 0.00367 0.00288 -0.01800
H 	H 	0.97810 0.11914 0.91692 0.05200
H 	H 	0.94869 0.17126 0.90866 0.04800
H 	H 	0.94966 0.18269 0.07298 0.04300
H 	H 	0.97903 0.13055 0.08109 0.05000
H 	H 	0.85709 0.97958 0.91432 0.04300
H 	H 	0.91041 0.98810 0.92141 0.04800
H 	H 	0.85999 0.92615 0.05721 0.05000
H 	H 	0.91256 0.93781 0.06670 0.04500
H 	H 	0.02259 0.91274 0.91177 0.04800
H 	H 	0.04491 0.85669 0.90447 0.04400
H 	H 	0.01050 0.89858 0.07397 0.04700
H 	H 	0.03215 0.84227 0.06663 0.04800
H 	H 	0.08325 0.06703 0.08863 0.04400
H 	H 	0.13725 0.07273 0.08987 0.04200
H 	H 	0.08435 0.06822 0.92349 0.04600
H 	H 	0.13831 0.07425 0.92454 0.04900
H 	H 	0.91867 0.02598 0.01215 0.04100
H 	H 	0.94058 0.07914 0.01252 0.04200
H 	H 	0.03933 0.11618 0.00496 0.04400
H 	H 	0.07698 0.00445 0.00367 0.03700
H 	H 	0.05498 0.95140 0.99995 0.06700
H 	H 	0.95603 0.91491 0.99087 0.04700
C 	C 	0.92963 0.26683 0.95402 0.09600
C 	C 	0.90328 0.27361 0.98119 0.10200
N 	N 	0.89122 0.30463 0.98211 -0.08800
C 	C 	0.90460 0.32932 0.95737 -0.01200
C 	C 	0.93045 0.32227 0.92891 0.04100
N 	N 	0.94245 0.29117 0.92785 -0.10900
N 	N 	0.94293 0.23642 0.95635 -0.11400
N 	N 	0.89100 0.24953 0.00880 -0.11000
H 	H 	0.94120 0.34155 0.90858 0.04700
C 	C 	0.93106 0.21248 0.98507 0.06300
C 	C 	0.90433 0.21906 0.01119 -0.01500
H 	H 	0.89442 0.20014 0.03365 0.04200
C 	C 	0.92002 0.50274 0.81859 0.08700
C 	C 	0.89942 0.49777 0.77948 0.09700
N 	N 	0.90457 0.50896 0.73135 -0.11300
C 	C 	0.92962 0.52492 0.72076 0.05500
C 	C 	0.95064 0.52889 0.75973 0.00100
N 	N 	0.94528 0.51796 0.80788 -0.10600
N 	N 	0.91444 0.49255 0.86699 -0.09300
N 	N 	0.87430 0.48216 0.79022 -0.11100
H 	H 	0.97123 0.54032 0.75160 0.04400
C 	C 	0.88923 0.47713 0.87802 -0.03600
C 	C 	0.86883 0.47161 0.83869 0.04700
H 	H 	0.84854 0.45960 0.84685 0.04600
C 	C 	0.93113 0.41485 0.24892 0.09500
C 	C 	0.91179 0.44244 0.24324 0.08500
N 	N 	0.89798 0.44816 0.19776 -0.09400
C 	C 	0.90270 0.42742 0.15744 -0.04100
C 	C 	0.92123 0.39912 0.16381 0.04500
N 	N 	0.93516 0.39352 0.20936 -0.11300
N 	N 	0.94704 0.41076 0.29273 -0.11500
N 	N 	0.90848 0.46433 0.28216 -0.10700
H 	H 	0.92498 0.38207 0.13248 0.04300
C 	C 	0.94438 0.43312 0.33136 0.05300
C 	C 	0.92433 0.46026 0.32609 0.00100
H 	H 	0.92226 0.47869 0.35581 0.04200
C 	C 	0.07236 0.76231 0.01084 0.08000
C 	C 	0.05688 0.74323 0.97611 0.10400
N 	N 	0.06060 0.71011 0.97727 -0.08400
C 	C 	0.07937 0.69512 0.01154 -0.03900
C 	C 	0.09532 0.71427 0.04563 0.04400
N 	N 	0.09141 0.74749 0.04469 -0.11200
N 	N 	0.06726 0.79533 0.01178 -0.12000
N 	N 	0.03740 0.75793 0.94296 -0.10600
H 	H 	0.11023 0.70278 0.07336 0.04400
C 	C 	0.04738 0.81011 0.97907 0.05700
C 	C 	0.03235 0.79097 0.94369 0.00300
H 	H 	0.01606 0.80223 0.91809 0.04100
C 	C 	0.06795 0.57346 0.76628 0.09600
C 	C 	0.07774 0.60318 0.78561 0.08900
N 	N 	0.08462 0.60564 0.83608 -0.08600
C 	C 	0.08162 0.57973 0.86826 -0.03600
C 	C 	0.07271 0.54977 0.84852 0.04600
N 	N 	0.06611 0.54722 0.79791 -0.11200
N 	N 	0.05770 0.57208 0.71755 -0.11400
N 	N 	0.07768 0.63001 0.75479 -0.10200
H 	H 	0.07056 0.52883 0.87350 0.03800
C 	C 	0.05633 0.59931 0.68739 0.05500
C 	C 	0.06712 0.62867 0.70605 0.00100
H 	H 	0.06596 0.65059 0.68266 0.04500
C 	C 	0.08128 0.54702 0.25561 0.09500
C 	C 	0.09640 0.52879 0.21735 0.08600
N 	N 	0.09943 0.54180 0.16982 -0.09200
C 	C 	0.08756 0.57219 0.15871 -0.04200
C 	C 	0.07308 0.59069 0.19737 0.04400
N 	N 	0.07026 0.57774 0.24507 -0.11500
N 	N 	0.07619 0.53309 0.30183 -0.11500
N 	N 	0.10622 0.49751 0.22719 -0.10500
H 	H 	0.06379 0.61503 0.18931 0.03600
C 	C 	0.08535 0.50147 0.31134 0.05400
C 	C 	0.10096 0.48347 0.27343 -0.00000
H 	H 	0.10836 0.45829 0.28042 0.04300
C 	C 	0.77691 0.93555 0.01697 0.08000
C 	C 	0.76484 0.92970 0.96846 0.10400
N 	N 	0.73575 0.92354 0.96412 -0.08500
C 	C 	0.71839 0.92204 0.00661 -0.04000
C 	C 	0.73073 0.92687 0.05525 0.04300
N 	N 	0.75970 0.93378 0.05943 -0.11200
N 	N 	0.80573 0.94288 0.02114 -0.12100
N 	N 	0.78231 0.93019 0.92621 -0.10500
H 	H 	0.71712 0.92608 0.08934 0.04000
C 	C 	0.82330 0.94391 0.97877 0.05700
C 	C 	0.81138 0.93668 0.93041 0.00300
H 	H 	0.82525 0.93570 0.89660 0.04100
C 	C 	0.59323 0.92255 0.77999 0.08900
C 	C 	0.58615 0.89090 0.76464 0.09700
N 	N 	0.57246 0.88655 0.71898 -0.11300
C 	C 	0.56594 0.91254 0.68761 0.05400
C 	C 	0.57398 0.94403 0.70237 0.00200
N 	N 	0.58739 0.94838 0.74829 -0.10600
N 	N 	0.60418 0.92740 0.82765 -0.09300
N 	N 	0.59138 0.86518 0.79692 -0.11000
H 	H 	0.56841 0.96507 0.67845 0.04400
C 	C 	0.60880 0.90181 0.86055 -0.03300
C 	C 	0.60277 0.86996 0.84447 0.04900
H 	H 	0.60613 0.84936 0.87028 0.04800
C 	C 	0.58991 0.95971 0.23986 0.09600
C 	C 	0.60316 0.98236 0.20760 0.08500
N 	N 	0.61316 0.97278 0.16066 -0.09600
C 	C 	0.61029 0.94144 0.14423 -0.04000
C 	C 	0.59744 0.91864 0.17692 0.04500
N 	N 	0.58749 0.92827 0.22405 -0.11300
N 	N 	0.57860 0.96971 0.28580 -0.11400
N 	N 	0.60490 0.01399 0.22278 -0.10800
H 	H 	0.59527 0.89351 0.16485 0.04300
C 	C 	0.57986 0.00159 0.30067 0.05400
C 	C 	0.59349 0.02406 0.26865 -0.00100
H 	H 	0.59465 0.04947 0.27996 0.04100
C 	C 	0.22094 0.05630 0.98053 0.11200
C 	C 	0.23425 0.08063 0.00940 0.07400
N 	N 	0.26416 0.08164 0.01078 -0.09200
C 	C 	0.28138 0.05911 0.98462 -0.02300
C 	C 	0.26795 0.03507 0.95520 0.04500
N 	N 	0.23802 0.03416 0.95379 -0.11300
N 	N 	0.19109 0.05477 0.98016 -0.10900
N 	N 	0.21712 0.10260 0.03651 -0.10200
H 	H 	0.28126 0.01723 0.93361 0.04200
C 	C 	0.17387 0.07652 0.00775 0.04000
C 	C 	0.18719 0.10108 0.03620 0.00200
H 	H 	0.17380 0.11887 0.05772 0.04100
C 	C 	0.40441 0.01150 0.76035 0.09700
C 	C 	0.39759 0.98972 0.79987 0.08800
N 	N 	0.39089 0.00146 0.84731 -0.09600
C 	C 	0.39020 0.03424 0.85685 -0.03500
C 	C 	0.39617 0.05611 0.81694 0.04900
N 	N 	0.40335 0.04428 0.76952 -0.11100
N 	N 	0.41319 0.99956 0.71387 -0.11300
N 	N 	0.39871 0.95697 0.79085 -0.10600
H 	H 	0.39580 0.08225 0.82393 0.04200
C 	C 	0.41525 0.96662 0.70526 0.05500
C 	C 	0.40716 0.94500 0.74424 0.00100
H 	H 	0.40820 0.91880 0.73776 0.04200
C 	C 	0.41099 0.08224 0.23670 0.09600
C 	C 	0.39693 0.05366 0.22263 0.08500
N 	N 	0.38508 0.05123 0.17504 -0.09500
C 	C 	0.38680 0.07622 0.14070 -0.04000
C 	C 	0.39985 0.10533 0.15565 0.04600
N 	N 	0.41178 0.10767 0.20326 -0.11300
N 	N 	0.42537 0.08345 0.28225 -0.11500
N 	N 	0.39702 0.02782 0.25539 -0.10700
H 	H 	0.40096 0.12570 0.12926 0.04300
C 	C 	0.42622 0.05725 0.31462 0.05300
C 	C 	0.41133 0.02902 0.30112 0.00100
H 	H 	0.41219 0.00770 0.32582 0.04200
C 	C 	0.42465 0.24436 0.95622 0.09500
C 	C 	0.39751 0.23874 0.97995 0.10200
N 	N 	0.38662 0.20831 0.97887 -0.08800
C 	C 	0.40191 0.18306 0.95537 -0.01300
C 	C 	0.42894 0.18882 0.93119 0.03900
N 	N 	0.43974 0.21937 0.93208 -0.10900
N 	N 	0.43582 0.27467 0.95817 -0.11400
N 	N 	0.38258 0.26361 0.00463 -0.11000
H 	H 	0.44129 0.16911 0.91198 0.04600
C 	C 	0.42100 0.29958 0.98335 0.06200
C 	C 	0.39375 0.29392 0.00677 -0.01400
H 	H 	0.38147 0.31361 0.02616 0.04300
C 	C 	0.25245 0.57245 0.00250 0.07300
C 	C 	0.26009 0.54259 0.97814 0.11400
N 	N 	0.28889 0.53240 0.97419 -0.11600
C 	C 	0.31049 0.55076 0.99386 0.06500
C 	C 	0.30287 0.58081 0.01771 -0.01600
N 	N 	0.27397 0.59104 0.02158 -0.10000
N 	N 	0.22358 0.58226 0.00755 -0.09400
N 	N 	0.23859 0.52381 0.95961 -0.11100
H 	H 	0.31982 0.59582 0.03316 0.04200
C 	C 	0.20194 0.56332 0.98937 -0.00700
C 	C 	0.20967 0.53355 0.96470 0.04200
H 	H 	0.19279 0.51827 0.94969 0.05000
C 	C 	0.72663 0.46608 0.03843 0.09600
C 	C 	0.74057 0.43652 0.02192 0.08700
N 	N 	0.77051 0.43358 0.01993 -0.08900
C 	C 	0.78711 0.45925 0.03310 -0.03300
C 	C 	0.77311 0.48867 0.05007 0.04600
N 	N 	0.74316 0.49146 0.05250 -0.11500
N 	N 	0.69675 0.46954 0.03826 -0.11700
N 	N 	0.72398 0.41154 0.00615 -0.10200
H 	H 	0.78600 0.50917 0.06126 0.02800
C 	C 	0.68008 0.44477 0.02169 0.05700
C 	C 	0.69398 0.41510 0.00561 -0.01900
H 	H 	0.68100 0.39517 0.99236 0.05800
C 	C 	0.58732 0.72735 0.02590 0.09900
C 	C 	0.56928 0.75088 0.00015 0.06800
N 	N 	0.57686 0.78268 0.99935 -0.07300
C 	C 	0.60190 0.79197 0.02310 -0.03000
C 	C 	0.61982 0.76838 0.04912 0.04300
N 	N 	0.61216 0.73656 0.04998 -0.11400
N 	N 	0.58001 0.69547 0.02599 -0.11500
N 	N 	0.54458 0.74161 0.97569 -0.09500
H 	H 	0.63970 0.77531 0.06854 0.04500
C 	C 	0.55541 0.68604 0.00105 0.03900
C 	C 	0.53726 0.70967 0.97565 0.01700
H 	H 	0.51745 0.70264 0.95612 0.04100
