data_crystal

_cell_length_a 26.39385
_cell_length_b 26.35256
_cell_length_c 43.49225
_cell_angle_alpha 95.49532
_cell_angle_beta  95.49405
_cell_angle_gamma 125.83388

_symmetry_space_group_name_	'P 1'
_symmetry_space_group_name_H-M	'P 1'

loop_
_symmetry_equiv_pos_as_xyz
  x,y,z

loop_
_atom_site_label
_atom_site_type_symbol
_atom_site_fract_x
_atom_site_fract_y
_atom_site_fract_z
_atom_site_charge
C 	C 	0.99212 0.05629 0.99372 0.03600
C 	C 	0.08877 0.06420 0.99392 0.03400
C 	C 	0.05817 0.09336 0.99487 -0.08100
H 	H 	0.08542 0.14441 0.99613 0.05000
C 	C 	0.98418 0.01959 0.46892 -0.06400
H 	H 	0.01050 0.06907 0.46638 0.04500
C 	C 	0.81121 0.02696 0.44099 -0.03700
C 	C 	0.83220 0.07928 0.46436 -0.00300
C 	C 	0.88007 0.09876 0.49004 -0.03800
C 	C 	0.90737 0.06677 0.49216 -0.04000
C 	C 	0.88715 0.01507 0.46857 0.00200
H 	H 	0.94455 0.08240 0.51200 0.03700
H 	H 	0.77411 0.01145 0.42114 0.03700
C 	C 	0.84110 0.17751 0.45911 -0.06900
H 	H 	0.88996 0.20110 0.45618 0.04500
C 	C 	0.17081 0.04341 0.44768 -0.03900
C 	C 	0.21480 0.09682 0.47132 -0.00200
C 	C 	0.19319 0.11641 0.49454 -0.03900
C 	C 	0.12801 0.08240 0.49433 -0.04000
C 	C 	0.08397 0.02867 0.47081 0.00100
C 	C 	0.10563 0.00954 0.44738 -0.03900
H 	H 	0.11175 0.09735 0.51259 0.03700
H 	H 	0.18715 0.02822 0.42956 0.03700
C 	C 	0.31409 0.10473 0.47910 -0.06800
H 	H 	0.28744 0.05738 0.48469 0.04400
H 	H 	0.40237 0.11641 0.48485 0.02800
C 	C 	0.85600 0.16479 0.99869 0.02500
C 	C 	0.88511 0.22805 0.99512 -0.06900
C 	C 	0.84959 0.25171 0.99301 0.01300
C 	C 	0.89155 0.13776 0.99731 -0.00000
H 	H 	0.93481 0.25834 0.99315 0.04400
H 	H 	0.87230 0.30027 0.98960 0.02700
C 	C 	0.97499 0.13189 0.02060 -0.03300
C 	C 	0.95946 0.08655 0.99437 -0.00600
C 	C 	0.91042 0.06765 0.96945 -0.03700
C 	C 	0.87652 0.09301 0.97096 -0.04100
H 	H 	0.83865 0.07798 0.95164 0.03600
C 	C 	0.28781 0.15965 0.99762 -0.00000
H 	H 	0.38775 0.28486 0.00939 0.04400
C 	C 	0.17990 0.09380 0.96765 -0.03700
C 	C 	0.15772 0.10236 0.99428 -0.00500
C 	C 	0.20112 0.14147 0.02229 -0.03700
C 	C 	0.26594 0.16997 0.02397 -0.04000
H 	H 	0.29895 0.19902 0.04588 0.03700
Cu	Cu	0.66332 0.26654 0.00599 0.92600
Cu	Cu	0.69161 0.25231 0.93526 0.86800
Cu	Cu	0.69470 0.36174 0.96237 0.89600
Cu	Cu	0.68475 0.39603 0.02909 0.89400
C 	C 	0.68327 0.31159 0.07166 0.29100
O 	O 	0.57467 0.23629 0.01141 -0.37100
C 	C 	0.65442 0.30702 0.89376 0.28700
O 	O 	0.72071 0.36502 0.00570 -0.63800
O 	O 	0.64484 0.26794 0.96110 -0.64300
O 	O 	0.69641 0.21530 0.00171 -0.37500
O 	O 	0.75789 0.27141 0.96712 -0.44300
O 	O 	0.69342 0.36628 0.06864 -0.38700
C 	C 	0.55319 0.26891 0.00484 0.28400
O 	O 	0.59211 0.32659 0.99921 -0.39400
O 	O 	0.69304 0.28107 0.05000 -0.36800
C 	C 	0.74537 0.23448 0.98789 0.28800
O 	O 	0.68081 0.35758 0.91639 -0.38700
O 	O 	0.64559 0.25438 0.89949 -0.42200
H 	H 	0.76720 0.38866 0.01241 0.16500
H 	H 	0.59916 0.24412 0.95193 0.17200
Cu	Cu	0.70905 0.31320 0.45931 0.92700
Cu	Cu	0.70873 0.26599 0.52647 0.86900
Cu	Cu	0.60942 0.27854 0.50039 0.89600
Cu	Cu	0.59094 0.31138 0.43825 0.89300
C 	C 	0.66039 0.29259 0.39360 0.28700
C 	C 	0.65567 0.30336 0.56912 0.28700
O 	O 	0.61027 0.26155 0.45671 -0.64100
O 	O 	0.70302 0.32297 0.50420 -0.64200
O 	O 	0.75473 0.27410 0.46161 -0.37500
O 	O 	0.69007 0.20502 0.49152 -0.44300
O 	O 	0.63478 0.32135 0.40174 -0.38600
O 	O 	0.51784 0.23038 0.49373 -0.38500
C 	C 	0.48273 0.23476 0.47193 0.29100
O 	O 	0.66033 0.39339 0.47468 -0.39500
O 	O 	0.50842 0.27563 0.45260 -0.39700
O 	O 	0.69825 0.29030 0.41471 -0.36400
C 	C 	0.73049 0.22088 0.47238 0.28900
O 	O 	0.60746 0.28144 0.54585 -0.38800
O 	O 	0.70633 0.30739 0.56413 -0.42200
H 	H 	0.58281 0.21578 0.44690 0.16300
H 	H 	0.72915 0.36741 0.51594 0.17200
C 	C 	0.64029 0.31169 0.86089 -0.09000
C 	C 	0.59404 0.25632 0.83861 0.01200
C 	C 	0.58795 0.25900 0.80663 -0.06800
C 	C 	0.62781 0.31704 0.79661 0.02500
C 	C 	0.67116 0.37306 0.81896 -0.06700
C 	C 	0.67734 0.37047 0.85097 0.01100
C 	C 	0.62903 0.31797 0.76282 -0.00100
C 	C 	0.65103 0.28818 0.74640 -0.04000
C 	C 	0.65395 0.29035 0.71461 -0.04000
C 	C 	0.63487 0.32227 0.69893 -0.00100
C 	C 	0.61238 0.35168 0.71522 -0.03900
C 	C 	0.60963 0.34969 0.74712 -0.03900
C 	C 	0.63915 0.32528 0.66553 0.02500
C 	C 	0.58417 0.28567 0.64219 -0.06700
C 	C 	0.58916 0.28099 0.61046 0.01100
C 	C 	0.64931 0.31588 0.60184 -0.09000
C 	C 	0.70396 0.35839 0.62517 0.01200
C 	C 	0.69888 0.36290 0.65685 -0.06800
H 	H 	0.56404 0.21092 0.84597 0.02900
H 	H 	0.55368 0.21563 0.78956 0.04300
H 	H 	0.70183 0.41819 0.81145 0.04400
H 	H 	0.71283 0.41369 0.86787 0.03400
H 	H 	0.66635 0.26382 0.75836 0.03600
H 	H 	0.67122 0.26739 0.70217 0.03600
H 	H 	0.59749 0.37638 0.70327 0.03700
H 	H 	0.59256 0.37281 0.75960 0.03700
H 	H 	0.53780 0.25673 0.64870 0.04500
H 	H 	0.54653 0.24833 0.59275 0.03500
H 	H 	0.75052 0.38668 0.61883 0.02800
H 	H 	0.74152 0.39418 0.67473 0.04400
C 	C 	0.65918 0.27705 0.35979 -0.08500
C 	C 	0.70891 0.27788 0.35002 0.01400
C 	C 	0.71083 0.26973 0.31799 -0.06600
C 	C 	0.66323 0.26082 0.29543 0.02600
C 	C 	0.61225 0.25738 0.30510 -0.06600
C 	C 	0.61002 0.26508 0.33707 0.01200
C 	C 	0.66897 0.25955 0.26193 -0.00000
C 	C 	0.72205 0.31200 0.25284 -0.03800
C 	C 	0.72422 0.31415 0.22097 -0.03900
C 	C 	0.67324 0.26408 0.19790 -0.00100
C 	C 	0.62124 0.21058 0.20692 -0.03900
C 	C 	0.61922 0.20818 0.23880 -0.03900
C 	C 	0.67175 0.27034 0.16458 0.02600
C 	C 	0.71248 0.26650 0.14770 -0.06600
C 	C 	0.71479 0.27781 0.11689 0.01600
C 	C 	0.67673 0.29357 0.10285 -0.08500
C 	C 	0.63491 0.29583 0.11952 0.01400
C 	C 	0.63230 0.28409 0.15020 -0.06600
H 	H 	0.74695 0.28653 0.36718 0.04000
H 	H 	0.75000 0.27167 0.31075 0.04600
H 	H 	0.57514 0.25033 0.28789 0.04400
H 	H 	0.57068 0.26293 0.34419 0.02400
H 	H 	0.76067 0.35194 0.27046 0.03900
H 	H 	0.76457 0.35562 0.21421 0.03900
H 	H 	0.58181 0.17156 0.18924 0.03800
H 	H 	0.57836 0.16716 0.24554 0.03700
H 	H 	0.74305 0.25583 0.15862 0.04600
H 	H 	0.74738 0.27606 0.10429 0.03700
H 	H 	0.60497 0.30743 0.10882 0.02700
H 	H 	0.60066 0.28707 0.16306 0.04500
C 	C 	0.80363 0.11329 0.46221 0.02600
H 	H 	0.89609 0.13868 0.50835 0.03500
C 	C 	0.81625 0.21199 0.46085 0.01300
C 	C 	0.75372 0.18257 0.46583 -0.09800
C 	C 	0.71529 0.11742 0.46732 0.01300
C 	C 	0.74018 0.08300 0.46555 -0.07000
H 	H 	0.84635 0.26208 0.45947 0.03100
H 	H 	0.66659 0.09380 0.47055 0.02700
H 	H 	0.71074 0.03329 0.46770 0.04400
C 	C 	0.28344 0.13227 0.47171 0.02600
H 	H 	0.22690 0.15765 0.51286 0.03700
C 	C 	0.37923 0.13828 0.47930 0.01400
C 	C 	0.41419 0.19958 0.47198 -0.09000
C 	C 	0.38337 0.22709 0.46463 0.01400
C 	C 	0.31831 0.19358 0.46454 -0.06800
H 	H 	0.40989 0.27459 0.45924 0.03100
H 	H 	0.29495 0.21516 0.45882 0.04500
C 	C 	0.79173 0.12616 0.00149 -0.06800
C 	C 	0.78458 0.21232 0.99450 -0.09600
C 	C 	0.75620 0.14989 0.99953 0.01200
H 	H 	0.70616 0.11902 0.00078 0.03000
H 	H 	0.76898 0.07736 0.00448 0.04500
C 	C 	0.94124 0.15751 0.02202 -0.04100
H 	H 	0.95336 0.19226 0.04240 0.03900
H 	H 	0.01256 0.14660 0.04002 0.03400
C 	C 	0.37458 0.14765 0.99537 -0.06800
C 	C 	0.35577 0.18744 0.99975 0.02600
C 	C 	0.40182 0.25378 0.00601 -0.06800
C 	C 	0.46612 0.28021 0.00779 0.01300
C 	C 	0.48513 0.24054 0.00325 -0.09200
C 	C 	0.43897 0.17404 0.99712 0.01300
H 	H 	0.50120 0.33156 0.01287 0.02600
H 	H 	0.45280 0.14283 0.99343 0.03000
H 	H 	0.33933 0.09632 0.99063 0.04400
C 	C 	0.24467 0.12232 0.96931 -0.04000
H 	H 	0.26121 0.11478 0.94872 0.03700
H 	H 	0.14672 0.06374 0.94591 0.03600
H 	H 	0.18440 0.14817 0.04300 0.03700
H 	H 	0.89829 0.03297 0.94903 0.03600
O 	O 	0.74625 0.40590 0.45921 -0.36400
O 	O 	0.74872 0.45346 0.96619 -0.38400
O 	O 	0.71701 0.47372 0.01041 -0.39400
C 	C 	0.71951 0.43088 0.47077 0.28300
C 	C 	0.75420 0.49377 0.98928 0.29100
C 	C 	0.75288 0.50039 0.47558 -0.09100
H 	H 	0.70237 0.50198 0.51160 0.02900
H 	H 	0.81104 0.51536 0.44055 0.03700
C 	C 	0.73597 0.52939 0.49676 0.01100
H 	H 	0.75118 0.54643 0.93926 0.03300
C 	C 	0.79747 0.53700 0.45697 0.01300
C 	C 	0.79270 0.56177 0.98768 -0.09000
C 	C 	0.83864 0.99499 0.44308 -0.04200
C 	C 	0.01536 0.99122 0.47132 0.01900
C 	C 	0.91904 0.98417 0.46981 0.02300
C 	C 	0.95693 0.99005 0.99159 -0.08000
C 	C 	0.98753 0.96093 0.99082 0.03500
C 	C 	0.05350 0.99823 0.99227 -0.08200
H 	H 	0.90589 0.96130 0.99048 0.05000
H 	H 	0.07742 0.97595 0.99213 0.05000
C 	C 	0.88487 0.91985 0.47265 -0.07200
C 	C 	0.91602 0.89138 0.47500 0.02500
C 	C 	0.98123 0.92720 0.47442 -0.06600
H 	H 	0.83452 0.89233 0.47334 0.04800
H 	H 	0.00533 0.90524 0.47631 0.04500
C 	C 	0.76129 0.59353 0.49833 -0.06700
C 	C 	0.80382 0.62928 0.47880 0.02500
C 	C 	0.82272 0.60111 0.45855 -0.06700
C 	C 	0.82744 0.69572 0.47899 -0.00100
H 	H 	0.85620 0.62864 0.44368 0.04600
H 	H 	0.74694 0.61510 0.51427 0.04400
C 	C 	0.81115 0.71236 0.45208 -0.03900
C 	C 	0.83751 0.77613 0.45136 -0.03900
C 	C 	0.88040 0.82372 0.47753 -0.00100
C 	C 	0.89462 0.80676 0.50490 -0.03900
C 	C 	0.86823 0.74299 0.50563 -0.03900
H 	H 	0.77908 0.67604 0.43153 0.03800
H 	H 	0.82624 0.78878 0.43014 0.03700
H 	H 	0.92752 0.84320 0.52526 0.03800
H 	H 	0.88071 0.73052 0.52659 0.03700
H 	H 	0.82285 0.95525 0.42470 0.03800
H 	H 	0.07197 0.96832 0.42904 0.03700
C 	C 	0.92416 0.78974 0.96421 -0.04000
C 	C 	0.88740 0.76028 0.98694 -0.00000
C 	C 	0.88124 0.79635 0.01009 -0.03900
C 	C 	0.91309 0.86161 0.01108 -0.03700
C 	C 	0.95059 0.89126 0.98862 -0.00500
C 	C 	0.95514 0.85479 0.96488 -0.03700
C 	C 	0.85625 0.69195 0.98686 0.02600
H 	H 	0.85226 0.77391 0.02749 0.03800
H 	H 	0.90938 0.88930 0.02955 0.03700
H 	H 	0.98339 0.87705 0.94722 0.03600
H 	H 	0.92930 0.76241 0.94626 0.03700
C 	C 	0.81509 0.64621 0.95975 -0.06800
C 	C 	0.78380 0.58141 0.96010 0.01700
C 	C 	0.83471 0.60747 0.01458 0.01400
C 	C 	0.86679 0.67229 0.01410 -0.06700
H 	H 	0.80649 0.66080 0.93862 0.04500
H 	H 	0.84205 0.59273 0.03593 0.02100
H 	H 	0.89928 0.70721 0.03498 0.04400
