data_crystal

_cell_length_a 18.03262
_cell_length_b 16.71514
_cell_length_c 49.50869
_cell_angle_alpha 90.74609
_cell_angle_beta  91.02919
_cell_angle_gamma 110.88821

_symmetry_space_group_name_	'P 1'
_symmetry_space_group_name_H-M	'P 1'

loop_
_symmetry_equiv_pos_as_xyz
  x,y,z

loop_
_atom_site_label
_atom_site_type_symbol
_atom_site_fract_x
_atom_site_fract_y
_atom_site_fract_z
_atom_site_charge
O 	O 	0.07942 0.88476 0.76228 -0.69600
Ni	Ni	0.11024 0.99278 0.78497 1.09800
O 	O 	0.11095 0.77837 0.71993 -0.31300
Ni	Ni	0.17569 0.87564 0.74756 1.10400
O 	O 	0.18243 0.97890 0.72475 -0.37800
O 	O 	0.19338 0.97038 0.80899 -0.35200
O 	O 	0.02955 0.01225 0.75922 -0.69300
O 	O 	0.11263 0.09586 0.80882 -0.29100
H 	H 	0.04932 0.83440 0.77292 0.21600
H 	H 	0.05109 0.06825 0.75031 0.25400
C 	C 	0.21196 0.05718 0.73551 0.31300
C 	C 	0.05104 0.77730 0.70395 0.33200
C 	C 	0.25930 0.96815 0.79870 0.29100
C 	C 	0.04492 0.10258 0.81600 0.27700
O 	O 	0.19892 0.07215 0.76114 -0.31800
O 	O 	0.26338 0.95538 0.77249 -0.35800
Ni	Ni	0.35781 0.78440 0.40589 1.10200
O 	O 	0.34528 0.68913 0.37744 -0.69500
Ni	Ni	0.23401 0.67041 0.36394 1.11600
O 	O 	0.45213 0.77205 0.42676 -0.34500
O 	O 	0.44430 0.63655 0.41645 -0.36800
O 	O 	0.43625 0.87351 0.38184 -0.35000
Ni	Ni	0.34215 0.57999 0.39272 1.08900
O 	O 	0.34319 0.96168 0.39715 -0.38100
O 	O 	0.27173 0.59396 0.42287 -0.42000
O 	O 	0.22209 0.57205 0.33771 -0.29800
O 	O 	0.25227 0.77188 0.38962 -0.70500
O 	O 	0.36294 0.88131 0.43181 -0.36900
O 	O 	0.12744 0.67424 0.35021 -0.29400
O 	O 	0.18189 0.81562 0.34012 -0.34600
Ni	Ni	0.26443 0.87747 0.37059 1.09000
H 	H 	0.38414 0.70686 0.36286 0.23200
H 	H 	0.21123 0.76097 0.40337 0.19100
C 	C 	0.19690 0.58400 0.41822 0.27800
O 	O 	0.35244 0.87069 0.34643 -0.33300
C 	C 	0.45048 0.69683 0.43457 0.29000
C 	C 	0.23066 0.50181 0.34605 0.31400
C 	C 	0.42416 0.88248 0.35593 0.28600
C 	C 	0.11896 0.74691 0.34435 0.29200
C 	C 	0.34741 0.94821 0.42331 0.28000
O 	O 	0.17048 0.58745 0.39327 -0.33100
O 	O 	0.24739 0.49482 0.37178 -0.37900
Ni	Ni	0.36752 0.65349 0.13167 1.10900
O 	O 	0.26626 0.62179 0.10788 -0.69500
Ni	Ni	0.20977 0.69284 0.12597 1.10600
O 	O 	0.40815 0.56535 0.11407 -0.33100
O 	O 	0.28986 0.45476 0.11479 -0.36400
O 	O 	0.43196 0.73402 0.10229 -0.33300
Ni	Ni	0.19775 0.50051 0.10936 1.07600
O 	O 	0.48759 0.83328 0.14525 -0.33800
O 	O 	0.19084 0.50512 0.15032 -0.36100
O 	O 	0.11359 0.65971 0.10036 -0.32900
O 	O 	0.31094 0.72420 0.14957 -0.70100
O 	O 	0.46639 0.69430 0.15603 -0.31800
O 	O 	0.17153 0.78025 0.14524 -0.28100
O 	O 	0.28702 0.89195 0.13940 -0.36500
Ni	Ni	0.37832 0.84467 0.14384 1.08300
H 	H 	0.27747 0.63880 0.08888 0.15900
H 	H 	0.30097 0.71078 0.16889 0.21700
C 	C 	0.14248 0.53705 0.16174 0.31100
O 	O 	0.36888 0.82961 0.10304 -0.40200
C 	C 	0.35933 0.49217 0.10400 0.29000
C 	C 	0.08582 0.58202 0.08968 0.29100
C 	C 	0.40919 0.79087 0.09001 0.30000
C 	C 	0.21844 0.85917 0.15104 0.29100
O 	O 	0.13929 0.61091 0.15409 -0.31200
O 	O 	0.09192 0.51701 0.10319 -0.38500
O 	O 	0.05416 0.20444 0.25392 -0.34300
O 	O 	0.11773 0.07776 0.24238 -0.30600
O 	O 	0.03852 0.09364 0.20776 -0.32500
Ni	Ni	0.04587 0.02166 0.27342 1.11700
O 	O 	0.06126 0.13468 0.29269 -0.33300
C 	C 	0.06598 0.20506 0.28029 0.29000
C 	C 	0.09366 0.06546 0.21676 0.29500
C 	C 	0.03825 0.39429 0.21867 0.06100
C 	C 	0.00250 0.44225 0.16747 0.05900
C 	C 	0.07901 0.48156 0.17881 0.01500
C 	C 	0.09524 0.46241 0.20550 -0.07900
C 	C 	0.17471 0.51056 0.21935 0.78400
H 	H 	0.05299 0.37340 0.23801 0.08700
H 	H 	0.98950 0.46040 0.14752 0.09500
F 	F 	0.17114 0.49892 0.24699 -0.39800
F 	F 	0.19722 0.59750 0.21493 -0.41500
F 	F 	0.23158 0.48128 0.20924 -0.40400
C 	C 	0.23722 0.97439 0.18525 0.04900
C 	C 	0.18746 0.91709 0.16593 0.01300
C 	C 	0.11035 0.91841 0.16059 -0.07500
C 	C 	0.08022 0.96551 0.17808 0.04800
C 	C 	0.12949 0.02155 0.19780 0.02700
C 	C 	0.21095 0.03185 0.19962 -0.07500
C 	C 	0.27029 0.10370 0.21645 0.78200
H 	H 	0.29694 0.97500 0.18879 0.07400
H 	H 	0.01816 0.95848 0.17642 0.09600
C 	C 	0.05985 0.87027 0.13652 0.77900
F 	F 	0.34650 0.12250 0.20715 -0.41000
F 	F 	0.26898 0.07916 0.24305 -0.41400
F 	F 	0.25293 0.17783 0.21507 -0.40200
F 	F 	0.02323 0.78489 0.14265 -0.40600
F 	F 	0.10577 0.87714 0.11395 -0.43500
F 	F 	0.36676 0.85567 0.29268 -0.41600
F 	F 	0.39928 0.75534 0.31495 -0.43700
C 	C 	0.11894 0.36621 0.33797 0.06500
C 	C 	0.19237 0.42324 0.32981 0.00500
C 	C 	0.22164 0.41199 0.30428 -0.06600
C 	C 	0.17470 0.34506 0.28691 0.06500
C 	C 	0.10139 0.28726 0.29520 0.01200
C 	C 	0.07100 0.30069 0.32047 -0.09400
H 	H 	0.09683 0.37685 0.35738 0.09400
H 	H 	0.19648 0.33566 0.26731 0.12700
C 	C 	0.30253 0.47152 0.29548 0.78200
F 	F 	0.35839 0.48215 0.31606 -0.42700
F 	F 	0.29878 0.55041 0.28926 -0.36100
F 	F 	0.32778 0.43935 0.27296 -0.37300
C 	C 	0.02517 0.74244 0.30695 0.06700
C 	C 	0.04094 0.74534 0.33478 0.01600
C 	C 	0.98868 0.76349 0.35273 -0.09600
C 	C 	0.93359 0.79805 0.34235 0.06400
C 	C 	0.96832 0.77423 0.29670 -0.10000
H 	H 	0.06192 0.72274 0.29322 0.10800
C 	C 	0.99693 0.75436 0.38293 0.78300
F 	F 	0.96615 0.70867 0.25360 -0.39400
F 	F 	0.01524 0.85262 0.25719 -0.50900
F 	F 	0.06203 0.82155 0.39302 -0.49100
F 	F 	0.00705 0.67784 0.38833 -0.43900
F 	F 	0.93001 0.75472 0.39613 -0.42900
C 	C 	0.31711 0.07578 0.48186 -0.06400
C 	C 	0.36140 0.02013 0.44226 -0.06600
C 	C 	0.29935 0.02553 0.45813 0.05900
S 	S 	0.19965 0.96587 0.44931 -0.03200
H 	H 	0.26957 0.07630 0.49488 0.07200
H 	H 	0.17050 0.01300 0.43261 0.07700
C 	C 	0.05137 0.55285 0.47501 -0.05300
C 	C 	0.04022 0.46880 0.48242 0.01400
C 	C 	0.07782 0.42150 0.46793 0.00100
C 	C 	0.12660 0.45901 0.44637 0.00700
C 	C 	0.13914 0.54385 0.43927 -0.06400
C 	C 	0.10118 0.59098 0.45381 0.05100
S 	S 	0.06618 0.31635 0.47706 0.02400
H 	H 	0.15596 0.42268 0.43538 0.05400
S 	S 	0.11714 0.69826 0.44643 0.03500
S 	S 	0.11813 0.51163 0.53945 0.01100
H 	H 	0.18195 0.75104 0.46092 0.02600
H 	H 	0.13372 0.59769 0.53717 0.04800
H 	H 	0.12228 0.31915 0.49645 0.04700
C 	C 	0.55671 0.64006 0.49345 0.00000
C 	C 	0.53742 0.65713 0.46717 0.00400
C 	C 	0.47504 0.68722 0.46251 -0.08100
C 	C 	0.43340 0.70311 0.48461 0.05900
S 	S 	0.63239 0.59786 0.49849 -0.02300
H 	H 	0.56995 0.64544 0.45029 0.06800
H 	H 	0.42591 0.50826 0.53820 0.05700
H 	H 	0.28304 0.66407 0.47795 0.04100
C 	C 	0.33622 0.21198 0.68434 0.06400
C 	C 	0.41301 0.22153 0.69369 0.02400
C 	C 	0.42342 0.18872 0.71905 -0.08400
C 	C 	0.35638 0.13762 0.73297 0.07400
C 	C 	0.27961 0.12108 0.72231 0.01800
C 	C 	0.26894 0.16264 0.69867 -0.07200
C 	C 	0.18623 0.15124 0.68804 0.77600
H 	H 	0.32889 0.23821 0.66499 0.09800
H 	H 	0.36383 0.10736 0.75151 0.09600
C 	C 	0.50605 0.20153 0.73005 0.78600
F 	F 	0.18842 0.20842 0.66781 -0.39300
F 	F 	0.14117 0.16500 0.70868 -0.41600
F 	F 	0.14988 0.06891 0.67768 -0.40200
F 	F 	0.53760 0.15064 0.71545 -0.45400
F 	F 	0.50493 0.18002 0.75697 -0.39200
H 	H 	0.01650 0.60758 0.71159 0.13300
F 	F 	0.98941 0.45825 0.70111 -0.37400
C 	C 	0.02062 0.51179 0.01750 -0.07000
C 	C 	0.04090 0.56636 0.06383 -0.08200
C 	C 	0.06282 0.52485 0.04207 0.07100
S 	S 	0.14542 0.49297 0.04484 -0.10900
H 	H 	0.03660 0.47824 0.00100 0.07700
H 	H 	0.12069 0.41011 0.05338 0.04200
C 	C 	0.48275 0.80860 0.01815 -0.06700
C 	C 	0.51070 0.89764 0.01505 0.02400
C 	C 	0.50518 0.95113 0.03658 -0.01000
C 	C 	0.47451 0.91545 0.06114 0.02200
C 	C 	0.44515 0.82629 0.06420 -0.07100
C 	C 	0.44860 0.77247 0.04238 0.07000
S 	S 	0.53378 0.06266 0.03268 0.02100
H 	H 	0.47238 0.95715 0.07784 0.06500
S 	S 	0.40656 0.66027 0.04448 -0.05300
H 	H 	0.48584 0.76734 0.00146 0.06600
C 	C 	0.48677 0.93176 0.96775 -0.05900
S 	S 	0.44360 0.97572 0.91848 0.02400
H 	H 	0.42449 0.89306 0.96963 0.06400
H 	H 	0.46333 0.63036 0.05403 0.06700
C 	C 	0.34578 0.42218 0.03136 -0.00900
C 	C 	0.32292 0.43214 0.05764 0.00200
C 	C 	0.37920 0.45651 0.07890 -0.08600
S 	S 	0.27702 0.40836 0.00438 0.00700
H 	H 	0.26219 0.42547 0.06132 0.01400
H 	H 	0.51726 0.39646 0.11258 0.07400
H 	H 	0.28318 0.48703 0.99487 0.04900
H 	H 	0.04160 0.14050 0.86910 0.08900
C 	C 	0.36378 0.10395 0.81254 0.03700
C 	C 	0.33416 0.01448 0.81335 0.06600
C 	C 	0.38178 0.97093 0.82426 -0.14800
C 	C 	0.45875 0.01880 0.83432 0.12700
C 	C 	0.48795 0.10864 0.83367 -0.00700
C 	C 	0.44218 0.15108 0.82078 -0.05800
H 	H 	0.32653 0.13667 0.80426 0.10500
H 	H 	0.49479 0.98664 0.84375 0.06200
C 	C 	0.35063 0.87388 0.82517 0.79600
F 	F 	0.34284 0.84022 0.79916 -0.42200
F 	F 	0.27728 0.84492 0.83715 -0.43600
F 	F 	0.40104 0.84389 0.83985 -0.41700
F 	F 	0.98099 0.68671 0.75476 -0.47800
Ni	Ni	0.61978 0.26825 0.90079 1.10400
O 	O 	0.64156 0.35424 0.86988 -0.69500
Ni	Ni	0.75336 0.36357 0.86133 1.11100
O 	O 	0.52402 0.29095 0.91566 -0.34500
O 	O 	0.53746 0.42380 0.90116 -0.32400
O 	O 	0.54151 0.17431 0.87638 -0.34600
Ni	Ni	0.64340 0.46909 0.88036 1.11500
O 	O 	0.62424 0.08453 0.89832 -0.36700
O 	O 	0.70812 0.47059 0.91462 -0.39800
O 	O 	0.77473 0.45301 0.83210 -0.33200
O 	O 	0.72615 0.27058 0.88959 -0.70300
O 	O 	0.60449 0.17783 0.92933 -0.37000
O 	O 	0.85996 0.34944 0.85406 -0.31400
O 	O 	0.79867 0.20648 0.84508 -0.34800
Ni	Ni	0.71002 0.15805 0.87324 1.09800
H 	H 	0.60681 0.33223 0.85388 0.25300
H 	H 	0.76470 0.28410 0.90499 0.19900
C 	C 	0.77766 0.46169 0.91396 0.27600
O 	O 	0.62787 0.16259 0.84488 -0.35700
C 	C 	0.52492 0.36843 0.92079 0.28300
C 	C 	0.75728 0.52216 0.83570 0.30300
C 	C 	0.55586 0.15643 0.85157 0.31000
C 	C 	0.86385 0.27295 0.85039 0.29500
C 	C 	0.61545 0.10556 0.92363 0.29000
O 	O 	0.81000 0.45534 0.89063 -0.34400
O 	O 	0.74122 0.54257 0.86014 -0.32800
Ni	Ni	0.58760 0.35704 0.63636 1.11100
O 	O 	0.66505 0.37306 0.60507 -0.69600
Ni	Ni	0.74373 0.32749 0.62141 1.10900
O 	O 	0.54324 0.44875 0.62429 -0.34000
O 	O 	0.66695 0.54118 0.61565 -0.38800
O 	O 	0.49995 0.26782 0.61331 -0.36200
Ni	Ni	0.72343 0.48399 0.59001 1.07700
O 	O 	0.48555 0.18338 0.65888 -0.35100
O 	O 	0.83030 0.52599 0.61099 -0.37400
O 	O 	0.83346 0.36782 0.59371 -0.32100
O 	O 	0.65602 0.29403 0.64938 -0.69900
O 	O 	0.51069 0.32674 0.66744 -0.31400
O 	O 	0.79899 0.25598 0.64114 -0.25600
O 	O 	0.68585 0.13763 0.63615 -0.36300
Ni	Ni	0.59095 0.17272 0.64774 1.09600
H 	H 	0.63912 0.33504 0.58956 0.15500
H 	H 	0.67653 0.31277 0.66799 0.22900
C 	C 	0.84149 0.50844 0.63620 0.30600
O 	O 	0.56183 0.17151 0.60779 -0.39800
C 	C 	0.58942 0.51935 0.61309 0.28800
C 	C 	0.82389 0.39118 0.56871 0.29100
C 	C 	0.51162 0.20666 0.59913 0.29700
C 	C 	0.75816 0.17517 0.64643 0.28600
C 	C 	0.47796 0.24544 0.67436 0.29700
O 	O 	0.80095 0.43283 0.64590 -0.30500
O 	O 	0.76979 0.42522 0.56256 -0.40600
O 	O 	0.91242 0.82058 0.74426 -0.28600
O 	O 	0.86152 0.96005 0.73979 -0.30700
O 	O 	0.94668 0.95544 0.70639 -0.28500
Ni	Ni	0.92726 0.99581 0.77499 1.09800
O 	O 	0.90835 0.87398 0.78664 -0.38700
C 	C 	0.88898 0.80907 0.76946 0.28900
C 	C 	0.89093 0.98197 0.71547 0.27100
C 	C 	0.50618 0.77686 0.15963 0.29100
O 	O 	0.88474 0.12620 0.26266 -0.69700
Ni	Ni	0.85837 0.01206 0.28055 1.12700
O 	O 	0.84802 0.23918 0.22337 -0.29100
Ni	Ni	0.78722 0.13201 0.24648 1.10300
O 	O 	0.78946 0.03879 0.21966 -0.37200
O 	O 	0.76979 0.01864 0.30456 -0.28300
O 	O 	0.85830 0.90219 0.29909 -0.27100
H 	H 	0.90953 0.17475 0.27531 0.24100
H 	H 	0.92694 0.95662 0.24325 0.21900
C 	C 	0.76693 0.95770 0.22703 0.25400
C 	C 	0.92154 0.26000 0.21500 0.29200
C 	C 	0.70693 0.02999 0.29397 0.33100
O 	O 	0.77463 0.93825 0.25257 -0.28500
O 	O 	0.70277 0.04164 0.26778 -0.35900
C 	C 	0.86169 0.33490 0.16856 0.78200
F 	F 	0.80548 0.33665 0.18697 -0.40300
F 	F 	0.84908 0.25086 0.16121 -0.41900
F 	F 	0.85126 0.37720 0.14576 -0.41800
C 	C 	0.58441 0.78059 0.20141 0.05700
C 	C 	0.58281 0.80474 0.17455 0.01400
C 	C 	0.65344 0.86080 0.16306 -0.08000
C 	C 	0.71790 0.90664 0.18030 0.05400
C 	C 	0.71574 0.88974 0.20805 0.02700
C 	C 	0.65346 0.81662 0.21752 -0.08300
C 	C 	0.66231 0.77227 0.24326 0.78700
H 	H 	0.53184 0.73382 0.20979 0.11300
H 	H 	0.76820 0.95767 0.17234 0.09900
C 	C 	0.66014 0.87375 0.13279 0.78200
F 	F 	0.61195 0.68736 0.24260 -0.37900
F 	F 	0.64371 0.81236 0.26533 -0.41400
F 	F 	0.73887 0.77310 0.24624 -0.37800
F 	F 	0.63132 0.93702 0.12557 -0.43400
F 	F 	0.61794 0.79870 0.11871 -0.42600
F 	F 	0.73859 0.89847 0.12526 -0.41300
C 	C 	0.55886 0.99120 0.35023 0.02500
C 	C 	0.49370 0.92389 0.33887 0.02400
C 	C 	0.49693 0.89590 0.31183 -0.09300
C 	C 	0.56548 0.93645 0.29695 0.08100
C 	C 	0.63215 0.99978 0.30894 -0.01000
C 	C 	0.62735 0.03119 0.33526 -0.05300
C 	C 	0.69557 0.10577 0.34776 0.77400
H 	H 	0.55599 0.01244 0.37083 0.10700
H 	H 	0.56781 0.91748 0.27608 0.11400
C 	C 	0.42710 0.82514 0.29837 0.79100
F 	F 	0.67088 0.14207 0.36950 -0.41700
F 	F 	0.72639 0.16921 0.32904 -0.41000
F 	F 	0.75467 0.07723 0.35673 -0.39700
F 	F 	0.44837 0.79671 0.27435 -0.39300
F 	F 	0.96783 0.27359 0.35303 -0.40500
F 	F 	0.95996 0.16874 0.32370 -0.46100
F 	F 	0.93857 0.28680 0.30961 -0.43900
C 	C 	0.39640 0.11825 0.49025 0.01800
C 	C 	0.45786 0.12066 0.47268 0.00200
C 	C 	0.43975 0.07289 0.44852 0.00600
C 	C 	0.41448 0.14143 0.51909 0.02000
S 	S 	0.55802 0.17694 0.48181 0.00400
H 	H 	0.48734 0.07110 0.43572 0.07400
C 	C 	0.44497 0.22774 0.52791 -0.00400
C 	C 	0.47620 0.24833 0.55421 0.00200
C 	C 	0.47367 0.18330 0.57223 -0.08500
C 	C 	0.43616 0.09678 0.56412 0.06200
C 	C 	0.40795 0.07640 0.53752 -0.06200
S 	S 	0.44413 0.31027 0.50631 -0.02900
H 	H 	0.50393 0.31495 0.56048 0.02800
S 	S 	0.42087 0.01369 0.58732 0.01900
H 	H 	0.38219 0.00983 0.53095 0.06900
H 	H 	0.37559 0.32658 0.50974 0.04500
H 	H 	0.35029 0.99891 0.59990 0.06400
H 	H 	0.58036 0.25900 0.47267 0.05000
C 	C 	0.96295 0.43491 0.55343 0.01600
C 	C 	0.88174 0.39072 0.54809 -0.06500
C 	C 	0.85580 0.35873 0.52172 0.06200
C 	C 	0.90928 0.38012 0.50052 -0.06200
S 	S 	0.75690 0.29102 0.51512 -0.00300
H 	H 	0.88836 0.35919 0.48004 0.08200
H 	H 	0.71206 0.33953 0.50867 0.04200
C 	C 	0.45437 0.68844 0.51091 -0.06800
C 	C 	0.51446 0.65505 0.51545 0.01500
C 	C 	0.52601 0.62631 0.54276 0.01300
S 	S 	0.35113 0.73508 0.47953 -0.05200
H 	H 	0.42158 0.69949 0.52782 0.06300
C 	C 	0.58713 0.67794 0.56030 -0.00600
C 	C 	0.60187 0.64545 0.58493 -0.00900
C 	C 	0.55635 0.56142 0.59223 -0.08800
C 	C 	0.48838 0.51434 0.57607 0.04400
C 	C 	0.47556 0.54606 0.55113 -0.06800
S 	S 	0.64649 0.78257 0.55144 0.00700
H 	H 	0.65119 0.68407 0.59784 0.06800
S 	S 	0.41504 0.42046 0.58758 0.00600
H 	H 	0.61124 0.83858 0.55985 0.05500
H 	H 	0.36029 0.44195 0.60189 0.07900
H 	H 	0.70317 0.66369 0.50329 0.05400
C 	C 	0.74447 0.06831 0.68196 0.06400
C 	C 	0.79317 0.12499 0.66339 0.01500
C 	C 	0.87221 0.12828 0.66022 -0.05800
C 	C 	0.90390 0.08518 0.67871 0.05500
C 	C 	0.85466 0.02702 0.69685 0.05000
C 	C 	0.77226 0.01298 0.69668 -0.07500
C 	C 	0.71328 0.93846 0.71125 0.77200
H 	H 	0.68386 0.06532 0.68425 0.08000
H 	H 	0.96682 0.09574 0.67872 0.14300
C 	C 	0.92277 0.17619 0.63722 0.77800
F 	F 	0.63727 0.91873 0.70049 -0.41700
F 	F 	0.71264 0.95986 0.73829 -0.41900
F 	F 	0.73259 0.86569 0.70870 -0.40600
F 	F 	0.95333 0.26278 0.64349 -0.36800
F 	F 	0.87843 0.16262 0.61337 -0.42600
F 	F 	0.55474 0.28644 0.72792 -0.40600
C 	C 	0.93397 0.65871 0.64366 0.06400
C 	C 	0.90577 0.57381 0.65267 0.01700
C 	C 	0.94284 0.55339 0.67599 -0.06700
C 	C 	0.99593 0.72234 0.65753 -0.07500
C 	C 	0.03853 0.80656 0.64386 0.77500
H 	H 	0.90912 0.67495 0.62534 0.08300
F 	F 	0.04155 0.79319 0.61631 -0.43200
F 	F 	0.99812 0.86191 0.64810 -0.39700
F 	F 	0.85830 0.42303 0.69447 -0.39400
C 	C 	0.93803 0.58660 0.03531 -0.00200
C 	C 	0.91204 0.52328 0.98828 0.02000
S 	S 	0.86272 0.62965 0.03096 0.01900
C 	C 	0.94239 0.56917 0.96479 0.00100
C 	C 	0.89989 0.54562 0.94023 0.01300
C 	C 	0.82634 0.47791 0.93900 -0.07500
C 	C 	0.79611 0.43225 0.96260 0.06400
C 	C 	0.83946 0.45464 0.98694 -0.06400
H 	H 	0.92279 0.58175 0.92226 0.07100
S 	S 	0.70437 0.34661 0.96196 -0.07400
H 	H 	0.81664 0.41868 0.00495 0.07100
H 	H 	0.01636 0.73001 0.97291 0.04900
H 	H 	0.64577 0.37624 0.96928 0.04700
H 	H 	0.89477 0.71007 0.02062 0.05500
C 	C 	0.54095 0.93417 0.98869 0.01700
C 	C 	0.62244 0.98102 0.98553 -0.01900
C 	C 	0.64726 0.03406 0.96330 0.01500
C 	C 	0.59183 0.03770 0.94361 -0.05700
C 	C 	0.51206 0.98235 0.94503 0.04000
S 	S 	0.69339 0.97482 0.00949 0.02500
H 	H 	0.70924 0.07421 0.96170 0.05700
H 	H 	0.71717 0.90820 0.00257 0.05700
H 	H 	0.41005 0.03658 0.92225 0.06400
H 	H 	0.61248 0.10139 0.03975 0.06300
C 	C 	0.47870 0.44278 0.04847 -0.06500
C 	C 	0.42437 0.42790 0.02664 0.01900
C 	C 	0.45685 0.45806 0.07452 0.05500
C 	C 	0.44899 0.41401 0.99911 0.01500
S 	S 	0.52553 0.47392 0.10160 0.06200
H 	H 	0.53818 0.44350 0.04511 0.06400
C 	C 	0.50181 0.48222 0.98465 0.00000
C 	C 	0.52383 0.46726 0.95862 -0.00500
C 	C 	0.49116 0.38564 0.94631 -0.06800
C 	C 	0.43305 0.31932 0.96005 0.05200
C 	C 	0.41622 0.33262 0.98682 -0.06200
S 	S 	0.53977 0.58672 0.99868 -0.01400
H 	H 	0.56757 0.51879 0.94813 0.05300
S 	S 	0.37470 0.22330 0.94326 0.03900
H 	H 	0.37439 0.28051 0.99770 0.06700
H 	H 	0.60796 0.59725 0.01330 0.04900
H 	H 	0.40734 0.16227 0.94816 0.04900
C 	C 	0.97328 0.28071 0.81982 0.07000
C 	C 	0.94127 0.26492 0.84563 0.01200
C 	C 	0.97440 0.22412 0.86467 -0.09600
C 	C 	0.02716 0.24256 0.81129 -0.10600
H 	H 	0.95144 0.31666 0.80568 0.10300
C 	C 	0.94959 0.21737 0.89387 0.78100
F 	F 	0.06568 0.33744 0.77439 -0.38500
F 	F 	0.00511 0.19639 0.76553 -0.46900
F 	F 	0.87719 0.15153 0.89614 -0.49000
F 	F 	0.94276 0.29324 0.90278 -0.45500
C 	C 	0.47546 0.24674 0.81642 0.77800
F 	F 	0.43487 0.26941 0.79565 -0.38700
F 	F 	0.55442 0.27264 0.80949 -0.42100
F 	F 	0.46796 0.28904 0.83980 -0.44800
C 	C 	0.83320 0.58696 0.79499 0.06700
C 	C 	0.77680 0.58716 0.81418 0.01600
C 	C 	0.73984 0.64911 0.81227 -0.08300
C 	C 	0.77343 0.72012 0.79563 0.06400
C 	C 	0.83560 0.72384 0.77837 0.02600
C 	C 	0.85668 0.65046 0.77537 -0.09500
H 	H 	0.85885 0.53738 0.79530 0.10700
H 	H 	0.75327 0.77388 0.79681 0.09900
C 	C 	0.66544 0.64061 0.82765 0.77900
F 	F 	0.87189 0.66119 0.72783 -0.42500
F 	F 	0.68611 0.67309 0.85366 -0.45300
F 	F 	0.61542 0.55580 0.82857 -0.44700
F 	F 	0.62361 0.68572 0.81522 -0.39700
C 	C 	0.92635 0.89671 0.30711 0.28500
F 	F 	0.88375 0.78012 0.25989 -0.39800
F 	F 	0.13158 0.24845 0.78159 -0.40600
C 	C 	0.90159 0.63794 0.75119 0.78300
F 	F 	0.00503 0.20104 0.91043 -0.43600
F 	F 	0.93668 0.41617 0.65994 -0.39400
O 	O 	0.03153 0.84522 0.70144 -0.28200
C 	C 	0.93142 0.46161 0.68291 0.78500
F 	F 	0.89423 0.55297 0.74799 -0.40300
C 	C 	0.05786 0.25628 0.78285 0.78700
O 	O 	0.94834 0.20037 0.20756 -0.32300
O 	O 	0.94484 0.00831 0.25517 -0.68500
C 	C 	0.98359 0.25662 0.32673 0.78300
C 	C 	0.01672 0.45505 0.53227 -0.00600
C 	C 	0.95812 0.77906 0.26646 0.78400
F 	F 	0.11585 0.84412 0.65366 -0.41600
C 	C 	0.99482 0.62104 0.69228 0.09000
O 	O 	0.99087 0.96530 0.30825 -0.34900
C 	C 	0.93191 0.81459 0.31470 0.02500
H 	H 	0.90047 0.82298 0.35605 0.09900
C 	C 	0.97905 0.59792 0.06020 0.01700
H 	H 	0.96308 0.63150 0.07668 0.09300
H 	H 	0.98367 0.45747 0.57381 0.08500
S 	S 	0.03194 0.65797 0.96610 0.00800
C 	C 	0.04269 0.18238 0.82815 0.01900
C 	C 	0.96478 0.34802 0.20600 0.02300
Ni	Ni	0.01461 0.91756 0.73266 1.11600
O 	O 	0.97822 0.03672 0.81298 -0.35400
Ni	Ni	0.96037 0.11264 0.23378 1.10900
C 	C 	0.94431 0.37652 0.18109 -0.07900
F 	F 	0.00158 0.90325 0.12998 -0.41500
C 	C 	0.98903 0.43129 0.50547 0.02900
H 	H 	0.02227 0.58918 0.48612 0.06800
F 	F 	0.98558 0.14867 0.63289 -0.38400
C 	C 	0.01760 0.70615 0.68389 0.02000
C 	C 	0.95843 0.54242 0.01393 0.02400
C 	C 	0.02473 0.18201 0.85561 0.05800
