data_crystal

_cell_length_a 18.48062
_cell_length_b 18.88620
_cell_length_c 35.00816
_cell_angle_alpha 95.45992
_cell_angle_beta  95.46026
_cell_angle_gamma 126.42237

_symmetry_space_group_name_	'P 1'
_symmetry_space_group_name_H-M	'P 1'

loop_
_symmetry_equiv_pos_as_xyz
  x,y,z

loop_
_atom_site_label
_atom_site_type_symbol
_atom_site_fract_x
_atom_site_fract_y
_atom_site_fract_z
_atom_site_charge
C 	C 	0.88139 0.95654 0.96058 0.11500
N 	N 	0.97364 0.00681 0.96371 -0.13100
C 	C 	0.01571 0.96768 0.96497 0.11600
N 	N 	0.96598 0.87837 0.96361 -0.13700
C 	C 	0.87374 0.82696 0.95962 0.12100
N 	N 	0.83082 0.86595 0.95825 -0.13300
C 	C 	0.97145 0.06217 0.49242 0.12400
N 	N 	0.06282 0.10420 0.49525 -0.13800
C 	C 	0.09479 0.05518 0.49446 0.12400
N 	N 	0.03561 0.96490 0.49116 -0.13600
C 	C 	0.94429 0.92289 0.48696 0.12400
N 	N 	0.91250 0.97164 0.48731 -0.14000
Cu	Cu	0.72651 0.30164 0.95520 0.92600
Cu	Cu	0.74267 0.25206 0.04142 0.87700
Cu	Cu	0.59108 0.25551 0.01089 0.90000
Cu	Cu	0.54018 0.27437 0.92797 0.90600
C 	C 	0.65640 0.27862 0.87433 0.30300
O 	O 	0.77707 0.43062 0.95216 -0.35700
C 	C 	0.67106 0.30451 0.09569 0.31000
O 	O 	0.58470 0.22373 0.95629 -0.63100
O 	O 	0.72530 0.32340 0.01166 -0.64100
O 	O 	0.78974 0.24376 0.95717 -0.35800
O 	O 	0.70528 0.15876 0.99977 -0.42700
O 	O 	0.57311 0.24847 0.87895 -0.36000
O 	O 	0.45953 0.18145 0.00634 -0.37300
C 	C 	0.40450 0.17833 0.97813 0.29700
C 	C 	0.72748 0.45900 0.95583 0.29000
O 	O 	0.64534 0.40532 0.96363 -0.37400
O 	O 	0.43675 0.23785 0.95517 -0.38100
O 	O 	0.70703 0.26890 0.89933 -0.35800
C 	C 	0.75826 0.17404 0.97432 0.29100
O 	O 	0.59764 0.26843 0.06825 -0.36700
O 	O 	0.74527 0.31676 0.08728 -0.40800
H 	H 	0.54989 0.15841 0.94723 0.17000
H 	H 	0.76141 0.38733 0.02410 0.18100
Cu	Cu	0.65695 0.25621 0.51159 0.92400
Cu	Cu	0.71862 0.25849 0.42651 0.88300
Cu	Cu	0.65713 0.37554 0.45954 0.91000
Cu	Cu	0.63826 0.40873 0.54193 0.90500
C 	C 	0.67841 0.31649 0.59393 0.32000
O 	O 	0.52067 0.19190 0.51286 -0.35100
C 	C 	0.66802 0.34601 0.38068 0.31200
O 	O 	0.70906 0.39053 0.51347 -0.63200
O 	O 	0.63340 0.25765 0.45537 -0.63700
O 	O 	0.74043 0.21964 0.51215 -0.35400
O 	O 	0.70853 0.16544 0.44675 -0.40900
O 	O 	0.62723 0.34136 0.58417 -0.37800
O 	O 	0.66953 0.48565 0.46331 -0.37300
C 	C 	0.70956 0.54909 0.49471 0.29400
C 	C 	0.47662 0.22305 0.49993 0.27800
O 	O 	0.52254 0.30777 0.49673 -0.39600
O 	O 	0.69802 0.52971 0.52987 -0.37900
O 	O 	0.69490 0.27640 0.56721 -0.35300
C 	C 	0.75266 0.18268 0.48202 0.28800
O 	O 	0.62184 0.35688 0.40360 -0.36100
O 	O 	0.73608 0.34640 0.39602 -0.42000
H 	H 	0.77617 0.43761 0.52064 0.16800
H 	H 	0.56939 0.20820 0.44254 0.17600
C 	C 	0.67980 0.29545 0.83523 -0.09100
C 	C 	0.65385 0.33907 0.81361 0.14500
C 	C 	0.66543 0.34379 0.77480 -0.08300
C 	C 	0.70370 0.30663 0.75722 0.02100
C 	C 	0.73538 0.26861 0.77943 0.08800
C 	C 	0.72287 0.26265 0.81817 -0.01300
H 	H 	0.64314 0.37514 0.75802 0.08200
C 	C 	0.70549 0.30351 0.71500 0.02500
H 	H 	0.74441 0.23034 0.83461 0.07300
C 	C 	0.77402 0.38043 0.70207 -0.08400
C 	C 	0.76832 0.38374 0.66217 0.14500
C 	C 	0.69387 0.30932 0.63486 -0.09800
C 	C 	0.62810 0.23075 0.64759 -0.00800
C 	C 	0.63312 0.22770 0.68747 0.08400
H 	H 	0.83014 0.43868 0.72312 0.08300
H 	H 	0.57095 0.17314 0.62660 0.06500
Br	Br	0.79448 0.22320 0.75714 -0.20500
Br	Br	0.60441 0.39463 0.83658 -0.25700
Br	Br	0.86152 0.49113 0.64558 -0.24700
Br	Br	0.53815 0.12096 0.70392 -0.20600
C 	C 	0.65667 0.35215 0.33924 -0.10200
C 	C 	0.57637 0.28264 0.31262 0.14500
C 	C 	0.57298 0.28159 0.27242 -0.08300
C 	C 	0.64966 0.34861 0.25847 0.02200
C 	C 	0.72744 0.42137 0.28518 0.08400
C 	C 	0.73062 0.42280 0.32536 -0.00800
H 	H 	0.51249 0.22613 0.25195 0.08300
C 	C 	0.65293 0.33566 0.21655 0.02300
H 	H 	0.79187 0.47739 0.34578 0.06100
C 	C 	0.62716 0.37313 0.19096 -0.08300
C 	C 	0.63316 0.36395 0.15140 0.14900
C 	C 	0.66402 0.31567 0.13713 -0.09900
C 	C 	0.68884 0.27759 0.16277 -0.01200
C 	C 	0.68354 0.28740 0.20225 0.08400
H 	H 	0.60398 0.41068 0.20194 0.08400
H 	H 	0.71205 0.23995 0.15195 0.05400
Br	Br	0.83162 0.51711 0.26721 -0.21400
Br	Br	0.47324 0.18518 0.33038 -0.24800
Br	Br	0.60381 0.42197 0.11802 -0.24000
Br	Br	0.71933 0.23508 0.23635 -0.22200
C 	C 	0.88080 0.82621 0.48684 -0.01200
C 	C 	0.81544 0.79536 0.51103 -0.05200
C 	C 	0.75465 0.70415 0.51185 0.05400
C 	C 	0.76280 0.64318 0.49007 -0.08400
C 	C 	0.82577 0.67342 0.46477 -0.00700
C 	C 	0.88345 0.76415 0.46242 0.01000
S 	S 	0.66426 0.66669 0.53757 -0.02900
S 	S 	0.95429 0.79799 0.42721 -0.01600
H 	H 	0.90825 0.79472 0.39319 0.04500
H 	H 	0.58995 0.64755 0.51312 0.04300
H 	H 	0.81135 0.84244 0.52899 0.05500
H 	H 	0.83023 0.62628 0.44704 0.04000
C 	C 	0.93580 0.11402 0.49586 -0.01000
C 	C 	0.93866 0.15953 0.46599 -0.05300
C 	C 	0.88280 0.18676 0.46231 0.05800
C 	C 	0.82055 0.16502 0.48798 -0.08800
C 	C 	0.82424 0.12716 0.51996 -0.00200
C 	C 	0.88284 0.10335 0.52445 0.01000
S 	S 	0.89580 0.25256 0.42722 -0.08900
S 	S 	0.89043 0.06145 0.56625 -0.01100
H 	H 	0.82078 0.97139 0.56029 0.03800
H 	H 	0.83791 0.19775 0.39270 0.04000
H 	H 	0.98199 0.17105 0.44481 0.05800
H 	H 	0.78042 0.11482 0.54102 0.05400
C 	C 	0.19303 0.09915 0.49629 -0.01300
C 	C 	0.23131 0.12825 0.46316 -0.04800
C 	C 	0.32214 0.16176 0.46276 0.04500
C 	C 	0.37638 0.16833 0.49620 -0.07800
C 	C 	0.33714 0.13663 0.52891 -0.01000
C 	C 	0.24612 0.10260 0.52922 0.01200
S 	S 	0.36625 0.19240 0.41978 -0.01900
S 	S 	0.20056 0.06781 0.57154 -0.01300
H 	H 	0.21456 0.13849 0.59527 0.04300
H 	H 	0.40747 0.28158 0.42086 0.05100
H 	H 	0.18981 0.12306 0.43736 0.05600
H 	H 	0.37866 0.14211 0.55479 0.05200
C 	C 	0.76849 0.55490 0.95732 -0.08000
C 	C 	0.75250 0.59834 0.98635 -0.00300
C 	C 	0.77861 0.68465 0.98544 0.01500
C 	C 	0.82116 0.72875 0.95512 -0.01200
C 	C 	0.83417 0.68405 0.92537 -0.04700
C 	C 	0.81069 0.59894 0.92686 0.04900
S 	S 	0.76001 0.73760 0.02310 -0.02300
S 	S 	0.83754 0.55013 0.89113 -0.01200
H 	H 	0.92292 0.57390 0.90387 0.04500
H 	H 	0.83601 0.78704 0.05230 0.04300
H 	H 	0.71943 0.56479 0.00968 0.04600
H 	H 	0.86772 0.71795 0.90219 0.05600
C 	C 	0.79368 0.12156 0.97005 -0.08500
C 	C 	0.76714 0.06320 0.93466 -0.00200
C 	C 	0.78976 0.00391 0.93179 0.00900
C 	C 	0.83883 0.00225 0.96473 0.00100
C 	C 	0.86375 0.05952 0.00019 -0.06200
C 	C 	0.84328 0.12013 0.00283 0.05600
S 	S 	0.75697 0.93289 0.88681 -0.01400
S 	S 	0.88434 0.19708 0.04684 -0.10400
H 	H 	0.96901 0.27377 0.04579 0.04400
H 	H 	0.67324 0.85281 0.88545 0.04500
H 	H 	0.72786 0.06296 0.90952 0.04800
H 	H 	0.90295 0.05978 0.02539 0.05800
C 	C 	0.11517 0.02190 0.96812 -0.00400
C 	C 	0.17258 0.08765 0.00161 -0.05700
C 	C 	0.26761 0.13656 0.00626 0.04700
C 	C 	0.30573 0.11949 0.97706 -0.07800
C 	C 	0.24821 0.05314 0.94380 -0.00900
C 	C 	0.15338 0.00488 0.93897 0.01300
S 	S 	0.33808 0.22031 0.04823 -0.00800
S 	S 	0.08351 0.92628 0.89551 -0.02300
H 	H 	0.05638 0.84332 0.90072 0.04000
H 	H 	0.36178 0.30079 0.04076 0.04800
H 	H 	0.14318 0.10034 0.02416 0.05600
H 	H 	0.27761 0.04091 0.92110 0.03700
