data_crystal

_cell_length_a 18.56855
_cell_length_b 18.96974
_cell_length_c 31.62806
_cell_angle_alpha 95.44365
_cell_angle_beta  95.44417
_cell_angle_gamma 126.43966

_symmetry_space_group_name_	'P 1'
_symmetry_space_group_name_H-M	'P 1'

loop_
_symmetry_equiv_pos_as_xyz
  x,y,z

loop_
_atom_site_label
_atom_site_type_symbol
_atom_site_fract_x
_atom_site_fract_y
_atom_site_fract_z
_atom_site_charge
C 	C 	0.92465 0.01051 0.95803 0.04900
C 	C 	0.01850 0.06275 0.95825 -0.05700
C 	C 	0.06435 0.02528 0.96144 0.04900
C 	C 	0.01617 0.93462 0.96267 -0.05300
C 	C 	0.92221 0.88112 0.96178 0.05500
C 	C 	0.87593 0.91899 0.95948 -0.04900
H 	H 	0.05642 0.13336 0.95767 0.07400
H 	H 	0.05210 0.90591 0.96506 0.07300
H 	H 	0.80351 0.87833 0.95977 0.07400
C 	C 	0.93549 0.02570 0.49939 0.04700
C 	C 	0.02816 0.06681 0.49902 -0.06200
C 	C 	0.05949 0.01502 0.49696 0.04600
C 	C 	0.99817 0.92283 0.49496 -0.05000
C 	C 	0.90624 0.88232 0.49538 0.05400
C 	C 	0.87480 0.93335 0.49702 -0.05200
H 	H 	0.07539 0.13824 0.50055 0.06900
H 	H 	0.02212 0.88275 0.49331 0.07200
H 	H 	0.80313 0.90130 0.49681 0.07300
Cu	Cu	0.77194 0.35576 0.95499 0.92900
Cu	Cu	0.77637 0.29163 0.04752 0.89100
Cu	Cu	0.63541 0.31011 0.01535 0.89900
Cu	Cu	0.60169 0.35325 0.92969 0.90800
C 	C 	0.69152 0.32120 0.86562 0.29000
O 	O 	0.82694 0.48680 0.95447 -0.33500
C 	C 	0.70675 0.34237 0.10919 0.30600
O 	O 	0.63135 0.28503 0.95446 -0.63400
O 	O 	0.76871 0.37177 0.01762 -0.63700
O 	O 	0.83098 0.29429 0.95565 -0.34800
O 	O 	0.73963 0.20363 0.99905 -0.41500
O 	O 	0.65742 0.36268 0.87764 -0.35300
O 	O 	0.50450 0.24280 0.00874 -0.37400
C 	C 	0.45315 0.24248 0.97670 0.31100
C 	C 	0.78795 0.52156 0.96896 0.29600
O 	O 	0.70618 0.46922 0.97778 -0.37900
O 	O 	0.48898 0.30587 0.95345 -0.36700
O 	O 	0.75089 0.32263 0.89316 -0.34800
C 	C 	0.79548 0.22152 0.97225 0.30400
O 	O 	0.63784 0.31707 0.07853 -0.37200
O 	O 	0.77924 0.35185 0.09992 -0.39700
H 	H 	0.59086 0.22069 0.94142 0.17800
H 	H 	0.80777 0.43439 0.03335 0.18300
Cu	Cu	0.61528 0.21127 0.51014 0.92700
Cu	Cu	0.67196 0.19594 0.41531 0.89500
Cu	Cu	0.63411 0.33675 0.45081 0.91700
Cu	Cu	0.58287 0.35464 0.53536 0.90200
C 	C 	0.62815 0.27482 0.59948 0.30800
O 	O 	0.47776 0.13870 0.50825 -0.34900
C 	C 	0.66681 0.31413 0.36756 0.28600
O 	O 	0.66630 0.34484 0.51158 -0.63700
O 	O 	0.59686 0.21327 0.44730 -0.62800
O 	O 	0.70362 0.18188 0.51422 -0.35500
O 	O 	0.65986 0.10888 0.44449 -0.39800
O 	O 	0.57612 0.29730 0.58611 -0.37500
O 	O 	0.67963 0.45897 0.45542 -0.35700
C 	C 	0.67700 0.50522 0.48828 0.30900
C 	C 	0.43192 0.16583 0.49184 0.29900
O 	O 	0.47624 0.24741 0.48455 -0.38000
O 	O 	0.61994 0.46582 0.51499 -0.37500
O 	O 	0.64567 0.23211 0.57215 -0.35100
C 	C 	0.70861 0.13421 0.48324 0.30400
O 	O 	0.61654 0.32630 0.38871 -0.35500
O 	O 	0.72011 0.29921 0.38815 -0.40200
H 	H 	0.73133 0.39269 0.52432 0.17100
H 	H 	0.53229 0.16867 0.43290 0.17600
C 	C 	0.66486 0.27440 0.72873 0.02200
C 	C 	0.58711 0.22962 0.74756 -0.04500
C 	C 	0.59599 0.24019 0.79254 0.01500
C 	C 	0.64450 0.27481 0.64478 -0.08400
C 	C 	0.76066 0.33603 0.80010 0.02200
C 	C 	0.75168 0.32582 0.75503 -0.04600
C 	C 	0.65531 0.27455 0.68297 0.05100
C 	C 	0.68276 0.29530 0.81905 -0.06600
H 	H 	0.51976 0.18923 0.72742 0.06300
H 	H 	0.53544 0.20819 0.80683 0.04400
H 	H 	0.82802 0.37899 0.82024 0.05600
H 	H 	0.81216 0.36032 0.74070 0.06200
C 	C 	0.68803 0.35221 0.23678 0.02000
C 	C 	0.60525 0.31711 0.25064 -0.04800
C 	C 	0.59896 0.30746 0.29379 0.01600
C 	C 	0.69739 0.34821 0.15369 -0.08800
C 	C 	0.75893 0.37027 0.30953 0.01600
C 	C 	0.76516 0.38030 0.26651 -0.04900
C 	C 	0.69188 0.35098 0.19143 0.04900
C 	C 	0.67535 0.33218 0.32322 -0.07400
H 	H 	0.54528 0.29523 0.22784 0.06200
H 	H 	0.53417 0.27831 0.30396 0.05200
H 	H 	0.81881 0.39112 0.33205 0.05100
H 	H 	0.82946 0.40779 0.25606 0.06000
C 	C 	0.78597 0.65919 0.52991 -0.00800
C 	C 	0.72776 0.60149 0.49107 -0.09000
C 	C 	0.72391 0.63667 0.45433 0.12300
C 	C 	0.78219 0.72887 0.45621 -0.07300
C 	C 	0.84278 0.78625 0.49461 0.00400
C 	C 	0.84334 0.75144 0.53192 0.06300
N 	N 	0.90305 0.80968 0.57173 -0.01800
H 	H 	0.78803 0.63225 0.55835 0.05600
H 	H 	0.78033 0.75596 0.42779 0.07700
N 	N 	0.65987 0.57901 0.41534 -0.02200
O 	O 	0.89657 0.86971 0.58988 -0.06900
O 	O 	0.96040 0.79939 0.59105 -0.08200
O 	O 	0.57303 0.52665 0.41585 -0.08300
O 	O 	0.68794 0.58285 0.37888 -0.08800
C 	C 	0.89203 0.10999 0.46408 -0.06900
C 	C 	0.90042 0.07811 0.50098 0.00400
C 	C 	0.85633 0.07802 0.53500 0.05900
C 	C 	0.79485 0.09800 0.52923 -0.00600
C 	C 	0.77972 0.12149 0.49048 -0.09200
C 	C 	0.83312 0.13308 0.45893 0.11000
N 	N 	0.82974 0.17073 0.42236 -0.03000
H 	H 	0.92849 0.11348 0.43854 0.07400
H 	H 	0.75777 0.09373 0.55459 0.06900
N 	N 	0.87123 0.05414 0.57478 -0.02200
O 	O 	0.85651 0.25233 0.42798 -0.14800
O 	O 	0.80780 0.12640 0.38342 -0.11600
O 	O 	0.95381 0.09081 0.59449 -0.07900
O 	O 	0.80232 0.99717 0.59178 -0.07600
C 	C 	0.29890 0.08696 0.52828 -0.01200
C 	C 	0.33303 0.11299 0.49037 -0.08800
C 	C 	0.27655 0.10641 0.45454 0.11300
C 	C 	0.18915 0.07950 0.45796 -0.07100
C 	C 	0.15630 0.05658 0.49638 0.00300
C 	C 	0.21142 0.05993 0.53170 0.06000
N 	N 	0.17894 0.03650 0.57121 -0.02300
H 	H 	0.34223 0.09266 0.55606 0.06700
H 	H 	0.14571 0.07379 0.43024 0.07400
N 	N 	0.30790 0.12703 0.41455 -0.02300
O 	O 	0.18191 0.97841 0.58837 -0.07500
O 	O 	0.15079 0.07655 0.59117 -0.08000
O 	O 	0.34026 0.08935 0.39660 -0.11300
O 	O 	0.29981 0.17997 0.39501 -0.09300
C 	C 	0.84114 0.72375 0.92572 -0.06900
C 	C 	0.87355 0.78574 0.96410 0.00800
C 	C 	0.87967 0.76091 0.00421 0.05800
C 	C 	0.85632 0.67588 0.00536 -0.01200
C 	C 	0.82693 0.61507 0.96691 -0.08200
C 	C 	0.81908 0.63927 0.92686 0.11200
N 	N 	0.78827 0.57806 0.88721 -0.02600
H 	H 	0.83746 0.74277 0.89479 0.08000
H 	H 	0.85971 0.65669 0.03627 0.05900
N 	N 	0.91199 0.82287 0.04382 -0.01700
O 	O 	0.71338 0.54977 0.86170 -0.09800
O 	O 	0.83986 0.55829 0.87449 -0.08600
O 	O 	0.87219 0.85895 0.05243 -0.08900
O 	O 	0.97863 0.84019 0.07214 -0.08400
C 	C 	0.89242 0.10094 0.00209 -0.07200
C 	C 	0.88072 0.05479 0.96156 0.00900
C 	C 	0.84287 0.06539 0.92409 0.05800
C 	C 	0.81818 0.12266 0.92761 -0.00500
C 	C 	0.83199 0.17038 0.96814 -0.08600
C 	C 	0.87028 0.15996 0.00553 0.10800
N 	N 	0.88943 0.21139 0.04694 -0.03200
H 	H 	0.92331 0.09455 0.03086 0.08600
H 	H 	0.78763 0.12931 0.89884 0.06400
N 	N 	0.82918 0.01804 0.88246 -0.02200
O 	O 	0.85817 0.17169 0.07931 -0.11700
O 	O 	0.94368 0.29812 0.05309 -0.14000
O 	O 	0.74724 0.96066 0.85979 -0.08200
O 	O 	0.89894 0.03758 0.86574 -0.09400
C 	C 	0.31511 0.16843 0.01010 -0.00900
C 	C 	0.35352 0.18228 0.97276 -0.08400
C 	C 	0.29625 0.14315 0.93159 0.11400
C 	C 	0.20192 0.09445 0.92829 -0.07000
C 	C 	0.16387 0.08198 0.96558 0.00800
C 	C 	0.22063 0.11852 0.00670 0.05600
N 	N 	0.18237 0.10437 0.04508 -0.01700
H 	H 	0.35873 0.19826 0.04180 0.07000
H 	H 	0.15797 0.06439 0.89666 0.08000
N 	N 	0.33357 0.15074 0.89316 -0.02500
O 	O 	0.19598 0.06448 0.07238 -0.08900
O 	O 	0.13887 0.13630 0.05408 -0.09200
O 	O 	0.38193 0.12269 0.88818 -0.12200
O 	O 	0.31379 0.17978 0.86188 -0.09700
