data_crystal

_cell_length_a 18.74041
_cell_length_b 18.80478
_cell_length_c 34.70385
_cell_angle_alpha 95.40630
_cell_angle_beta  95.40712
_cell_angle_gamma 126.42211

_symmetry_space_group_name_	'P 1'
_symmetry_space_group_name_H-M	'P 1'

loop_
_symmetry_equiv_pos_as_xyz
  x,y,z

loop_
_atom_site_label
_atom_site_type_symbol
_atom_site_fract_x
_atom_site_fract_y
_atom_site_fract_z
_atom_site_charge
C 	C 	0.94163 0.02282 0.98102 0.05600
C 	C 	0.89841 0.92964 0.97436 -0.07300
C 	C 	0.95007 0.89804 0.97198 0.05500
C 	C 	0.04334 0.95933 0.97363 -0.07800
C 	C 	0.08653 0.05212 0.98150 0.05500
C 	C 	0.03590 0.08338 0.98715 -0.07400
H 	H 	0.82565 0.88238 0.97110 0.07200
H 	H 	0.08245 0.93486 0.96961 0.07100
H 	H 	0.06943 0.15514 0.99396 0.07300
C 	C 	0.92560 0.01910 0.49542 0.05300
C 	C 	0.86892 0.92730 0.49690 -0.07000
C 	C 	0.90215 0.87753 0.49494 0.04800
C 	C 	0.99264 0.91986 0.49252 -0.06200
C 	C 	0.05061 0.01227 0.49270 0.04600
C 	C 	0.01706 0.06211 0.49388 -0.07000
H 	H 	0.79841 0.89411 0.49830 0.07200
H 	H 	0.01829 0.88114 0.49105 0.06900
H 	H 	0.06137 0.13337 0.49312 0.07100
Cu	Cu	0.76400 0.34728 0.95629 0.93000
Cu	Cu	0.78481 0.30784 0.04628 0.90500
Cu	Cu	0.64571 0.34690 0.01033 0.91900
Cu	Cu	0.60505 0.35924 0.92651 0.91700
C 	C 	0.69286 0.31432 0.87361 0.40300
O 	O 	0.82581 0.48010 0.95236 -0.32600
C 	C 	0.67634 0.33361 0.08911 0.39400
O 	O 	0.62869 0.29446 0.95614 -0.63100
O 	O 	0.76736 0.37629 0.01309 -0.62800
O 	O 	0.79686 0.26218 0.95696 -0.33400
O 	O 	0.87099 0.31192 0.02075 -0.38100
O 	O 	0.66875 0.36572 0.88283 -0.35400
O 	O 	0.53182 0.32902 0.00749 -0.33300
C 	C 	0.46666 0.28678 0.97623 0.28500
C 	C 	0.79308 0.52288 0.96440 0.27500
O 	O 	0.70895 0.47719 0.96966 -0.38000
O 	O 	0.48458 0.29992 0.94060 -0.35400
O 	O 	0.73986 0.30500 0.90050 -0.32900
C 	C 	0.84398 0.25911 0.98660 0.28500
O 	O 	0.66441 0.37953 0.06675 -0.33900
O 	O 	0.68572 0.27396 0.07314 -0.38500
H 	H 	0.58256 0.22825 0.94976 0.18000
H 	H 	0.81466 0.44121 0.02363 0.17800
Cu	Cu	0.58984 0.17854 0.50143 0.93500
Cu	Cu	0.65579 0.19223 0.41652 0.89100
Cu	Cu	0.62834 0.31946 0.45191 0.90600
Cu	Cu	0.59060 0.34176 0.53195 0.91200
C 	C 	0.62747 0.24646 0.58441 0.39700
O 	O 	0.45859 0.12176 0.50402 -0.33100
C 	C 	0.60069 0.26815 0.36550 0.39200
O 	O 	0.66013 0.31830 0.50580 -0.63800
O 	O 	0.57076 0.18840 0.44565 -0.63600
O 	O 	0.64958 0.11991 0.49551 -0.33700
O 	O 	0.74390 0.22009 0.45946 -0.41200
O 	O 	0.58351 0.27972 0.57660 -0.35200
O 	O 	0.69357 0.44803 0.46068 -0.34800
C 	C 	0.69047 0.49565 0.49002 0.29600
C 	C 	0.42170 0.15959 0.49240 0.28700
O 	O 	0.47318 0.24306 0.48730 -0.37700
O 	O 	0.63456 0.45717 0.51475 -0.36200
O 	O 	0.62667 0.19237 0.55681 -0.32700
C 	C 	0.72460 0.16002 0.48140 0.29400
O 	O 	0.60473 0.32025 0.39549 -0.34300
O 	O 	0.59622 0.19696 0.37028 -0.37000
H 	H 	0.72575 0.35880 0.51666 0.19000
H 	H 	0.50748 0.14905 0.43124 0.20000
C 	C 	0.63671 0.17417 0.68131 0.23100
C 	C 	0.68290 0.25650 0.70760 -0.00200
C 	C 	0.72118 0.33649 0.69287 0.22800
C 	C 	0.70850 0.33362 0.65224 0.30900
C 	C 	0.65671 0.25069 0.62599 -0.20900
C 	C 	0.62332 0.17114 0.64063 0.31600
C 	C 	0.68251 0.25811 0.75020 -0.00200
F 	F 	0.76718 0.41663 0.71803 -0.34600
F 	F 	0.57374 0.09049 0.61561 -0.37300
C 	C 	0.76305 0.29656 0.77687 0.23100
C 	C 	0.76578 0.31129 0.81746 0.31700
C 	C 	0.68755 0.28657 0.83168 -0.21200
C 	C 	0.60593 0.24349 0.80502 0.31000
C 	C 	0.60348 0.22961 0.76448 0.22700
F 	F 	0.83941 0.32272 0.76336 -0.34200
F 	F 	0.52944 0.21724 0.81844 -0.39400
F 	F 	0.84540 0.35382 0.84282 -0.37400
F 	F 	0.52508 0.19170 0.73894 -0.34700
F 	F 	0.60161 0.09672 0.69526 -0.34200
F 	F 	0.74376 0.41121 0.63838 -0.39300
C 	C 	0.66547 0.38941 0.27977 0.23000
C 	C 	0.61195 0.31692 0.24790 -0.00200
C 	C 	0.54548 0.23066 0.25480 0.22800
C 	C 	0.53705 0.21575 0.29341 0.31300
C 	C 	0.59569 0.28693 0.32544 -0.20900
C 	C 	0.65743 0.37455 0.31842 0.30900
C 	C 	0.63269 0.32909 0.20800 -0.00200
F 	F 	0.49169 0.16057 0.22410 -0.34600
F 	F 	0.71329 0.44435 0.34904 -0.38500
C 	C 	0.70564 0.33285 0.19809 0.22800
C 	C 	0.72150 0.33726 0.15953 0.31100
C 	C 	0.66434 0.33762 0.13042 -0.21300
C 	C 	0.59273 0.33643 0.14061 0.31500
C 	C 	0.57705 0.33216 0.17928 0.23000
F 	F 	0.76008 0.33040 0.22575 -0.35100
F 	F 	0.53664 0.33637 0.11280 -0.37900
F 	F 	0.79227 0.34078 0.15034 -0.40100
F 	F 	0.50682 0.32933 0.18871 -0.34400
F 	F 	0.72812 0.47357 0.27330 -0.34600
F 	F 	0.47341 0.13173 0.29973 -0.37400
C 	C 	0.74096 0.59325 0.49183 -0.06500
C 	C 	0.72899 0.62618 0.45883 0.03000
C 	C 	0.78088 0.71953 0.46002 -0.02800
C 	C 	0.84158 0.77998 0.49478 0.01400
C 	C 	0.84888 0.74702 0.52859 -0.02900
C 	C 	0.80062 0.65385 0.52681 0.02600
C 	C 	0.66197 0.56408 0.42403 0.11900
C 	C 	0.90609 0.80919 0.56520 0.11300
C 	C 	0.81428 0.62036 0.56054 0.09500
C 	C 	0.77304 0.75353 0.42530 0.11600
N 	N 	0.82515 0.59362 0.58744 -0.07000
N 	N 	0.76683 0.78071 0.39762 -0.08400
N 	N 	0.95172 0.85884 0.59439 -0.08300
N 	N 	0.60854 0.51456 0.39627 -0.06500
C 	C 	0.88653 0.06778 0.49173 0.01300
C 	C 	0.87768 0.10705 0.52582 -0.02900
C 	C 	0.82464 0.13742 0.52252 0.02900
C 	C 	0.78009 0.12810 0.48509 -0.07300
C 	C 	0.79128 0.09117 0.45092 0.02700
C 	C 	0.84647 0.06347 0.45424 -0.03000
C 	C 	0.92258 0.11542 0.56425 0.11500
C 	C 	0.74326 0.07851 0.41248 0.07200
C 	C 	0.86102 0.02907 0.41908 0.11200
C 	C 	0.81648 0.17882 0.55754 0.11000
N 	N 	0.87269 0.00163 0.39105 -0.08300
N 	N 	0.81001 0.21185 0.58550 -0.07100
N 	N 	0.70496 0.06836 0.38181 -0.10700
N 	N 	0.95845 0.12203 0.59489 -0.08200
C 	C 	0.14754 0.05696 0.49294 0.01300
C 	C 	0.20489 0.07695 0.52832 -0.03000
C 	C 	0.29244 0.10316 0.52766 0.02400
C 	C 	0.32485 0.11463 0.49188 -0.06900
C 	C 	0.26785 0.09572 0.45654 0.02500
C 	C 	0.17936 0.06716 0.45709 -0.02900
C 	C 	0.17363 0.07068 0.56544 0.11300
C 	C 	0.30006 0.10471 0.41956 0.09400
C 	C 	0.12071 0.04757 0.42076 0.11200
C 	C 	0.34920 0.11846 0.56381 0.10400
N 	N 	0.07385 0.03191 0.39179 -0.08400
N 	N 	0.39420 0.13042 0.59269 -0.06300
N 	N 	0.32583 0.11193 0.39008 -0.07900
N 	N 	0.14860 0.06570 0.59502 -0.08200
C 	C 	0.90775 0.80090 0.96986 0.00700
C 	C 	0.89919 0.76617 0.00491 -0.02400
C 	C 	0.86916 0.67689 0.00349 0.02400
C 	C 	0.84648 0.62154 0.96699 -0.06500
C 	C 	0.85880 0.65754 0.93214 0.02200
C 	C 	0.88770 0.74648 0.93348 -0.02700
C 	C 	0.92189 0.82261 0.04246 0.11300
C 	C 	0.84056 0.60269 0.89483 0.10600
C 	C 	0.89621 0.78187 0.89741 0.11100
C 	C 	0.86142 0.64178 0.03960 0.09200
N 	N 	0.90305 0.81024 0.86867 -0.08400
N 	N 	0.85520 0.61372 0.06841 -0.08900
N 	N 	0.82611 0.55901 0.86504 -0.06400
N 	N 	0.94007 0.86777 0.07238 -0.08300
C 	C 	0.88887 0.05822 0.97836 0.01000
C 	C 	0.88396 0.09272 0.94475 -0.03000
C 	C 	0.87405 0.16168 0.94779 0.02800
C 	C 	0.85454 0.18604 0.98291 -0.07300
C 	C 	0.84186 0.13788 0.01397 0.02800
C 	C 	0.86298 0.07705 0.01233 -0.02600
C 	C 	0.88864 0.05675 0.90709 0.11600
C 	C 	0.80308 0.14729 0.04650 0.07000
C 	C 	0.85921 0.03477 0.04571 0.11400
C 	C 	0.88845 0.21017 0.91567 0.11200
N 	N 	0.85624 0.00096 0.07233 -0.08400
N 	N 	0.90000 0.24881 0.89001 -0.05200
N 	N 	0.77209 0.15456 0.07250 -0.10000
N 	N 	0.89205 0.02771 0.87700 -0.08200
C 	C 	0.37162 0.23542 0.98168 -0.05900
C 	C 	0.33936 0.17359 0.00776 0.02800
C 	C 	0.24701 0.11923 0.01001 -0.02200
C 	C 	0.18503 0.11710 0.98242 0.01000
C 	C 	0.21740 0.17758 0.95583 -0.02700
C 	C 	0.31077 0.24230 0.95838 0.02600
C 	C 	0.39994 0.16282 0.03087 0.11400
C 	C 	0.15502 0.17064 0.92473 0.10900
C 	C 	0.34420 0.31829 0.93866 0.10900
C 	C 	0.21607 0.06695 0.04107 0.11800
N 	N 	0.37081 0.37892 0.92294 -0.08700
N 	N 	0.19130 0.02520 0.06582 -0.08100
N 	N 	0.10562 0.16544 0.89985 -0.08900
N 	N 	0.44812 0.15403 0.04929 -0.08300
