data_crystal

_cell_length_a 30.29748
_cell_length_b 31.00420
_cell_length_c 21.76674
_cell_angle_alpha 95.50056
_cell_angle_beta  95.49367
_cell_angle_gamma 125.58619

_symmetry_space_group_name_	'P 1'
_symmetry_space_group_name_H-M	'P 1'

loop_
_symmetry_equiv_pos_as_xyz
  x,y,z

loop_
_atom_site_label
_atom_site_type_symbol
_atom_site_fract_x
_atom_site_fract_y
_atom_site_fract_z
_atom_site_charge
H 	H 	0.12082 0.98229 0.03296 0.04300
C 	C 	0.98028 0.00880 0.98795 0.11100
N 	N 	0.03528 0.03527 0.98886 -0.13700
C 	C 	0.05596 0.00693 0.97840 0.11500
N 	N 	0.98722 0.04190 0.42171 -0.14000
C 	C 	0.01633 0.02195 0.43295 0.11600
Cu	Cu	0.66829 0.25402 0.01295 0.92500
Cu	Cu	0.72512 0.25308 0.89281 0.87000
Cu	Cu	0.68928 0.32218 0.91143 0.89700
Cu	Cu	0.64826 0.34266 0.02173 0.88800
C 	C 	0.67157 0.30471 0.13268 0.32000
O 	O 	0.58513 0.21241 0.00319 -0.37700
C 	C 	0.68206 0.27185 0.78390 0.31900
O 	O 	0.70187 0.33365 0.00149 -0.64800
O 	O 	0.66379 0.24787 0.92086 -0.63700
O 	O 	0.71148 0.22529 0.02995 -0.37100
O 	O 	0.77325 0.27858 0.97118 -0.42800
O 	O 	0.64025 0.31590 0.10284 -0.39500
O 	O 	0.71922 0.39661 0.90829 -0.38000
C 	C 	0.70923 0.42622 0.94333 0.29200
C 	C 	0.55817 0.22532 0.96806 0.30100
O 	O 	0.58559 0.27266 0.95128 -0.39500
O 	O 	0.67134 0.40493 0.97915 -0.39000
O 	O 	0.68320 0.27444 0.10259 -0.37000
C 	C 	0.75945 0.24683 0.01259 0.27600
O 	O 	0.68694 0.31199 0.81991 -0.38800
O 	O 	0.69120 0.23969 0.80800 -0.43100
H 	H 	0.74039 0.36294 0.02252 0.16100
H 	H 	0.62722 0.21881 0.89484 0.17400
Cu	Cu	0.71915 0.35124 0.41638 0.92800
Cu	Cu	0.70586 0.28264 0.52733 0.86500
Cu	Cu	0.64049 0.32341 0.50893 0.89500
Cu	Cu	0.62603 0.36833 0.39996 0.89400
C 	C 	0.67535 0.35457 0.29512 0.31700
O 	O 	0.76094 0.43288 0.43419 -0.36200
C 	C 	0.66966 0.30783 0.63279 0.31300
O 	O 	0.63528 0.31570 0.41924 -0.64000
O 	O 	0.71741 0.34779 0.50654 -0.64000
O 	O 	0.75018 0.31029 0.39955 -0.37000
O 	O 	0.68689 0.24312 0.44537 -0.44500
O 	O 	0.66118 0.38293 0.32417 -0.39700
O 	O 	0.56354 0.29379 0.50699 -0.38600
C 	C 	0.53337 0.29977 0.46573 0.29000
C 	C 	0.74267 0.45618 0.46558 0.28400
O 	O 	0.69237 0.42631 0.47725 -0.39500
O 	O 	0.55655 0.33906 0.43310 -0.39400
O 	O 	0.70602 0.34343 0.32661 -0.36700
C 	C 	0.72431 0.26067 0.40972 0.29200
O 	O 	0.64827 0.32751 0.60023 -0.38600
O 	O 	0.70731 0.30381 0.61336 -0.42300
H 	H 	0.60685 0.27857 0.39551 0.16100
H 	H 	0.74612 0.38143 0.53678 0.17700
C 	C 	0.67051 0.26513 0.72132 -0.12400
C 	C 	0.65856 0.29870 0.69020 -0.12000
H 	H 	0.66979 0.23405 0.69231 0.06500
H 	H 	0.63489 0.31043 0.71084 0.08300
C 	C 	0.68366 0.31617 0.19568 -0.12300
C 	C 	0.66674 0.34571 0.23221 -0.12100
H 	H 	0.70603 0.30346 0.22026 0.09100
H 	H 	0.64576 0.35965 0.20732 0.07300
C 	C 	0.86311 0.77246 0.44332 0.02600
C 	C 	0.84639 0.80022 0.47615 -0.05300
C 	C 	0.84525 0.71993 0.45443 -0.01600
C 	C 	0.83115 0.67593 0.46251 -0.02500
C 	C 	0.81470 0.62313 0.47047 0.04000
C 	C 	0.77629 0.59451 0.50875 -0.07000
C 	C 	0.75569 0.54101 0.51088 0.01300
C 	C 	0.77286 0.51546 0.47397 -0.09000
C 	C 	0.81407 0.54554 0.43879 0.01500
C 	C 	0.83468 0.59906 0.43692 -0.07000
H 	H 	0.91133 0.77513 0.37481 0.04400
H 	H 	0.81845 0.78163 0.50866 0.04400
H 	H 	0.76133 0.61318 0.53564 0.04800
H 	H 	0.72507 0.51892 0.53958 0.03300
H 	H 	0.82850 0.52691 0.41084 0.03800
H 	H 	0.86501 0.62126 0.40793 0.04800
C 	C 	0.74380 0.22826 0.39093 -0.10100
C 	C 	0.79985 0.25376 0.38830 0.01600
C 	C 	0.82020 0.22329 0.38202 -0.07400
C 	C 	0.78469 0.16718 0.37800 0.04100
C 	C 	0.72824 0.14134 0.37692 -0.07500
C 	C 	0.70780 0.17168 0.38315 0.01600
C 	C 	0.80677 0.13669 0.37977 -0.02700
C 	C 	0.82521 0.11114 0.38124 -0.01700
C 	C 	0.84805 0.08136 0.38409 0.02400
C 	C 	0.82868 0.04098 0.42058 -0.05100
C 	C 	0.85442 0.01569 0.42821 -0.02200
C 	C 	0.89988 0.03085 0.39956 -0.02100
C 	C 	0.91786 0.06999 0.36125 -0.01800
C 	C 	0.89207 0.09513 0.35365 -0.05200
H 	H 	0.82810 0.29729 0.39382 0.03100
H 	H 	0.86383 0.24350 0.38222 0.04800
H 	H 	0.70042 0.09791 0.37302 0.04600
H 	H 	0.66429 0.15135 0.38383 0.02700
H 	H 	0.79452 0.02999 0.44412 0.04200
H 	H 	0.95235 0.08149 0.33811 0.03900
H 	H 	0.90705 0.12607 0.32508 0.04400
C 	C 	0.47333 0.26842 0.46422 -0.09100
C 	C 	0.45118 0.24846 0.51743 0.01800
C 	C 	0.39425 0.21897 0.51563 -0.07200
C 	C 	0.35911 0.20920 0.46077 0.04100
C 	C 	0.38101 0.22894 0.40768 -0.07200
C 	C 	0.43785 0.25839 0.40931 0.01600
C 	C 	0.30047 0.17844 0.45865 -0.02600
C 	C 	0.25130 0.15274 0.45625 -0.01600
C 	C 	0.19248 0.12169 0.45275 0.02500
C 	C 	0.16119 0.13091 0.41219 -0.05300
C 	C 	0.10372 0.09904 0.40652 -0.01700
C 	C 	0.07715 0.05760 0.44139 -0.02300
C 	C 	0.10882 0.04914 0.48284 -0.01700
C 	C 	0.16624 0.08106 0.48840 -0.05300
H 	H 	0.47800 0.25616 0.56028 0.03700
H 	H 	0.37754 0.20378 0.55687 0.04900
H 	H 	0.35400 0.22135 0.36504 0.04700
H 	H 	0.45425 0.27305 0.36775 0.02400
H 	H 	0.18126 0.16230 0.38449 0.04300
H 	H 	0.07984 0.10585 0.37414 0.03800
H 	H 	0.19024 0.07387 0.52002 0.04400
C 	C 	0.83857 0.69629 0.93500 -0.01100
C 	C 	0.81479 0.64848 0.93215 -0.02500
C 	C 	0.78681 0.59156 0.92974 0.04300
C 	C 	0.73194 0.55912 0.93832 -0.07100
C 	C 	0.70604 0.50471 0.94102 0.01900
C 	C 	0.73496 0.48235 0.93526 -0.08900
C 	C 	0.78946 0.51461 0.92480 0.01900
C 	C 	0.81530 0.56907 0.92215 -0.07100
H 	H 	0.70960 0.57621 0.94386 0.05100
H 	H 	0.66367 0.48008 0.94805 0.03400
H 	H 	0.81225 0.49790 0.92031 0.03000
H 	H 	0.85775 0.59396 0.91535 0.05000
C 	C 	0.95762 0.03949 0.99875 0.00300
C 	C 	0.90437 0.01876 0.96766 -0.03700
C 	C 	0.88286 0.04775 0.97784 -0.02400
C 	C 	0.91430 0.09766 0.01905 -0.00200
C 	C 	0.96735 0.11846 0.05035 -0.03800
C 	C 	0.98899 0.08951 0.04030 -0.04400
C 	C 	0.89244 0.12796 0.02798 -0.01100
C 	C 	0.87289 0.15228 0.03438 -0.03400
C 	C 	0.84827 0.18025 0.03992 0.04100
C 	C 	0.87477 0.23169 0.02461 -0.07600
C 	C 	0.84704 0.25516 0.01969 0.01100
C 	C 	0.79229 0.22702 0.02949 -0.09800
C 	C 	0.76728 0.17703 0.04902 0.01500
C 	C 	0.79516 0.15372 0.05397 -0.07500
H 	H 	0.84186 0.03152 0.95337 0.03900
H 	H 	0.99186 0.15705 0.08232 0.03800
H 	H 	0.02988 0.10576 0.06511 0.04200
H 	H 	0.91614 0.25274 0.01445 0.04500
H 	H 	0.86747 0.29438 0.00629 0.02400
H 	H 	0.72544 0.15513 0.05774 0.03400
H 	H 	0.77464 0.11415 0.06648 0.04700
C 	C 	0.49721 0.19179 0.95829 -0.09800
C 	C 	0.46801 0.20296 0.91688 0.01600
C 	C 	0.41189 0.17826 0.91613 -0.07000
C 	C 	0.38441 0.14183 0.95613 0.03600
C 	C 	0.41241 0.12790 0.99442 -0.05900
C 	C 	0.46854 0.15260 0.99542 0.03100
C 	C 	0.32853 0.12114 0.96069 -0.01800
C 	C 	0.28173 0.10333 0.96526 -0.01900
C 	C 	0.22591 0.08140 0.97175 0.04000
C 	C 	0.19755 0.03872 0.00417 -0.06500
C 	C 	0.14260 0.01573 0.00839 -0.03500
C 	C 	0.11552 0.03526 0.98008 -0.00800
C 	C 	0.14455 0.07919 0.94926 -0.01900
C 	C 	0.19960 0.10211 0.94502 -0.05400
H 	H 	0.48910 0.23194 0.88667 0.03100
H 	H 	0.39019 0.18852 0.88562 0.04800
H 	H 	0.39111 0.09908 0.02476 0.03500
H 	H 	0.49009 0.14277 0.02683 0.02500
H 	H 	0.21787 0.02291 0.02550 0.04200
H 	H 	0.12409 0.09455 0.92713 0.04100
H 	H 	0.22148 0.13541 0.92024 0.04600
C 	C 	0.90448 0.87779 0.42772 -0.02300
C 	C 	0.91935 0.84901 0.39310 -0.01600
C 	C 	0.89873 0.79658 0.40088 -0.05300
C 	C 	0.86690 0.85274 0.46825 -0.01700
H 	H 	0.94792 0.86775 0.36125 0.03900
H 	H 	0.85514 0.87456 0.49524 0.03800
C 	C 	0.93953 0.83706 0.90982 -0.01500
C 	C 	0.90834 0.78094 0.90268 -0.05100
C 	C 	0.86708 0.75337 0.93821 0.02200
C 	C 	0.85580 0.78193 0.97943 -0.03900
C 	C 	0.88697 0.83813 0.98667 -0.00400
H 	H 	0.97181 0.85806 0.88264 0.04100
H 	H 	0.91697 0.75903 0.87039 0.04500
H 	H 	0.82374 0.76078 0.00685 0.03100
H 	H 	0.87899 0.86000 0.01996 0.02800
C 	C 	0.92974 0.86608 0.95278 -0.02600
C 	C 	0.93327 0.93567 0.42706 0.11900
N 	N 	0.90414 0.95577 0.41623 -0.13900
N 	N 	0.98924 0.96883 0.43534 -0.13900
C 	C 	0.96664 0.92556 0.96531 0.12300
H 	H 	0.84011 0.98560 0.45788 0.04200
N 	N 	0.94605 0.95390 0.97625 -0.13700
H 	H 	0.87988 0.98050 0.93511 0.04900
N 	N 	0.02156 0.95218 0.96658 -0.13700
H 	H 	0.08896 0.01779 0.51061 0.04000
C 	C 	0.93115 0.00894 0.41314 0.11500
