data_crystal

_cell_length_a 23.73291
_cell_length_b 24.92564
_cell_length_c 69.17687
_cell_angle_alpha 89.49762
_cell_angle_beta  89.51666
_cell_angle_gamma 119.78089

_symmetry_space_group_name_	'P 1'
_symmetry_space_group_name_H-M	'P 1'

loop_
_symmetry_equiv_pos_as_xyz
  x,y,z

loop_
_atom_site_label
_atom_site_type_symbol
_atom_site_fract_x
_atom_site_fract_y
_atom_site_fract_z
_atom_site_charge
C 	C 	0.16255 0.11240 0.68746 0.32300
Ni	Ni	0.14375 0.02413 0.71987 1.11200
Ni	Ni	0.09820 0.12832 0.72223 1.12200
O 	O 	0.20949 0.08551 0.73957 -0.36700
O 	O 	0.19353 0.16495 0.72939 -0.37300
O 	O 	0.08499 0.97048 0.69780 -0.37900
O 	O 	0.07316 0.13613 0.74940 -0.38100
O 	O 	0.19304 0.09452 0.69938 -0.37000
O 	O 	0.11828 0.12516 0.69383 -0.38100
O 	O 	0.10631 0.94658 0.73884 -0.36400
O 	O 	0.00851 0.10865 0.71425 -0.37600
O 	O 	0.08371 0.04758 0.72822 -0.71400
H 	H 	0.09585 0.05388 0.74190 0.14900
C 	C 	0.05219 0.11349 0.19188 0.32300
C 	C 	0.08112 0.13526 0.24800 0.30600
C 	C 	0.96371 0.92027 0.19759 0.31200
C 	C 	0.98292 0.93123 0.25313 0.29300
Ni	Ni	0.04574 0.02602 0.22243 1.12200
O 	O 	0.01201 0.94336 0.20979 -0.37000
O 	O 	0.05439 0.06273 0.19553 -0.38100
O 	O 	0.03741 0.98209 0.24777 -0.36700
O 	O 	0.10038 0.11212 0.23383 -0.37400
C 	C 	0.12470 0.24548 0.07765 0.01000
C 	C 	0.10702 0.21953 0.09748 0.01000
C 	C 	0.08783 0.24855 0.11129 -0.04200
C 	C 	0.07654 0.22761 0.13051 -0.02900
C 	C 	0.08444 0.17765 0.13609 -0.00700
C 	C 	0.10276 0.14803 0.12230 -0.02900
C 	C 	0.11407 0.16892 0.10305 -0.04300
C 	C 	0.07323 0.15637 0.15593 0.05200
C 	C 	0.06406 0.13791 0.17247 -0.10100
H 	H 	0.22441 0.26616 0.07934 0.04200
H 	H 	0.08291 0.28807 0.10719 0.04400
H 	H 	0.06214 0.25056 0.14106 0.04200
H 	H 	0.10861 0.10911 0.12651 0.04200
H 	H 	0.12895 0.14626 0.09254 0.04200
C 	C 	0.96976 0.80052 0.15909 -0.00600
C 	C 	0.96922 0.74799 0.16675 -0.02800
C 	C 	0.98860 0.71398 0.15526 -0.05700
C 	C 	0.00842 0.73222 0.13602 0.02300
C 	C 	0.01213 0.67274 0.10771 -0.02400
C 	C 	0.96594 0.84369 0.17197 0.04600
C 	C 	0.96256 0.87855 0.18326 -0.10000
H 	H 	0.95692 0.73531 0.18186 0.04000
H 	H 	0.99061 0.67498 0.16152 0.04200
H 	H 	0.96519 0.66548 0.10328 0.02900
H 	H 	0.02593 0.63205 0.08211 0.04500
C 	C 	0.21112 0.24712 0.28782 -0.00500
C 	C 	0.27462 0.29107 0.28220 -0.03000
C 	C 	0.22846 0.29418 0.31931 -0.04100
C 	C 	0.18902 0.24749 0.30662 -0.03000
C 	C 	0.16611 0.20721 0.27365 0.04700
C 	C 	0.12780 0.17349 0.26196 -0.09700
H 	H 	0.20962 0.29590 0.33347 0.04300
H 	H 	0.14017 0.21330 0.31111 0.04200
H 	H 	0.32967 0.45935 0.30266 0.04300
C 	C 	0.98609 0.83212 0.29978 -0.02700
C 	C 	0.94916 0.76745 0.29949 -0.01800
C 	C 	0.95909 0.73206 0.31339 -0.06500
C 	C 	0.00633 0.76125 0.32758 0.03000
C 	C 	0.03956 0.82604 0.32870 -0.05400
C 	C 	0.02943 0.86131 0.31483 -0.00700
C 	C 	0.02856 0.72536 0.33906 0.00400
C 	C 	0.05691 0.69472 0.32965 -0.03800
C 	C 	0.98525 0.86795 0.28352 0.04900
C 	C 	0.98413 0.89746 0.26981 -0.09900
H 	H 	0.91484 0.74460 0.28803 0.03700
H 	H 	0.93244 0.68209 0.31257 0.04400
H 	H 	0.05753 0.91131 0.31528 0.04000
H 	H 	0.05359 0.68936 0.31411 0.04400
H 	H 	0.11988 0.65622 0.33243 0.04300
C 	C 	0.03927 0.61763 0.46748 0.03500
C 	C 	0.08196 0.61059 0.47981 -0.06400
C 	C 	0.14685 0.63358 0.47421 0.01700
C 	C 	0.16931 0.66336 0.45618 -0.08000
C 	C 	0.12853 0.67666 0.44497 0.01700
C 	C 	0.06361 0.65347 0.45052 -0.06400
H 	H 	0.06391 0.58393 0.49313 0.05300
H 	H 	0.17803 0.62377 0.48314 0.03800
H 	H 	0.14573 0.70075 0.43120 0.03300
H 	H 	0.03146 0.66044 0.44112 0.05100
C 	C 	0.04610 0.57999 0.99267 0.03700
H 	H 	0.06767 0.61873 0.98257 0.03300
O 	O 	0.04058 0.14257 0.20574 -0.36800
O 	O 	0.93303 0.90342 0.24121 -0.37700
C 	C 	0.18951 0.27287 0.07121 -0.04300
C 	C 	0.09457 0.67603 0.34003 -0.03000
H 	H 	0.29229 0.29068 0.26774 0.04200
C 	C 	0.25814 0.68885 0.38559 0.30500
C 	C 	0.22607 0.66493 0.44688 0.28700
Ni	Ni	0.28450 0.62209 0.41736 1.12100
O 	O 	0.31356 0.74207 0.38510 -0.36900
O 	O 	0.25624 0.63659 0.39085 -0.37600
O 	O 	0.21582 0.63282 0.43080 -0.38200
O 	O 	0.28085 0.68507 0.45688 -0.37700
C 	C 	0.23793 0.50334 0.02496 0.32400
C 	C 	0.15650 0.59961 0.00122 0.31300
O 	O 	0.18962 0.66018 0.00215 -0.38700
O 	O 	0.19879 0.64564 0.04132 -0.39400
C 	C 	0.16758 0.32880 0.04627 -0.00900
C 	C 	0.10109 0.29407 0.05077 -0.02900
C 	C 	0.07966 0.25268 0.06651 -0.04300
C 	C 	0.21075 0.31405 0.05542 -0.02900
C 	C 	0.19258 0.38926 0.03762 0.05100
C 	C 	0.21335 0.43985 0.03036 -0.10800
H 	H 	0.06691 0.30361 0.04335 0.04100
H 	H 	0.02899 0.22990 0.07090 0.04300
H 	H 	0.26197 0.33915 0.05162 0.03900
C 	C 	0.00442 0.78213 0.12798 -0.03200
C 	C 	0.98511 0.81616 0.13950 -0.04300
C 	C 	0.03964 0.70352 0.12494 0.00200
C 	C 	0.04644 0.65362 0.09576 -0.03600
C 	C 	0.10849 0.66530 0.10093 -0.00500
C 	C 	0.10010 0.71187 0.13065 -0.03700
C 	C 	0.14875 0.65731 0.08690 0.05200
H 	H 	0.01908 0.79625 0.11308 0.04300
H 	H 	0.98528 0.85648 0.13344 0.04100
C 	C 	0.31432 0.33772 0.29492 -0.04200
C 	C 	0.29047 0.34081 0.31328 0.00900
C 	C 	0.32622 0.39665 0.32507 0.01000
C 	C 	0.33920 0.39114 0.34453 -0.04300
C 	C 	0.35904 0.44135 0.35686 -0.02900
C 	C 	0.36642 0.49738 0.34979 -0.00900
C 	C 	0.35912 0.50456 0.33002 -0.02800
C 	C 	0.33895 0.45436 0.31769 -0.04200
C 	C 	0.37078 0.54326 0.36311 0.05300
H 	H 	0.36247 0.37289 0.29023 0.04200
H 	H 	0.33076 0.34716 0.35030 0.04200
H 	H 	0.36551 0.54799 0.32440 0.04200
C 	C 	0.10419 0.68795 0.35982 -0.00500
C 	C 	0.07000 0.71215 0.36961 -0.03100
C 	C 	0.03210 0.73071 0.35926 -0.03900
C 	C 	0.15770 0.68699 0.36904 0.04800
C 	C 	0.20257 0.68612 0.37671 -0.10000
H 	H 	0.07587 0.84908 0.33966 0.04700
H 	H 	0.07612 0.72030 0.38501 0.04000
H 	H 	0.00899 0.75285 0.36674 0.04300
C 	C 	0.16493 0.09924 0.61644 -0.02900
C 	C 	0.20889 0.14020 0.62986 -0.00600
C 	C 	0.26684 0.19153 0.62337 -0.03000
C 	C 	0.19365 0.13055 0.65026 0.05100
C 	C 	0.18052 0.12214 0.66731 -0.10100
H 	H 	0.11978 0.05967 0.62134 0.04300
H 	H 	0.30088 0.22357 0.63365 0.04200
H 	H 	0.12160 0.73531 0.14399 0.04400
C 	C 	0.37478 0.62560 0.38756 0.32900
O 	O 	0.38324 0.67861 0.38085 -0.37100
O 	O 	0.35339 0.60734 0.40525 -0.39000
O 	O 	0.29731 0.58791 0.44244 -0.38800
O 	O 	0.34335 0.70822 0.41978 -0.70900
H 	H 	0.31241 0.72363 0.41909 0.15500
C 	C 	0.21675 0.64379 0.05897 0.33000
Ni	Ni	0.26220 0.70315 0.02103 1.12100
Ni	Ni	0.28271 0.60624 0.99597 1.12100
O 	O 	0.27296 0.64743 0.06219 -0.37300
O 	O 	0.24162 0.54125 0.03842 -0.38400
O 	O 	0.26787 0.52484 0.00818 -0.37600
O 	O 	0.30394 0.65552 0.01855 -0.71800
C 	C 	0.13440 0.69280 0.11867 -0.03200
C 	C 	0.18057 0.64990 0.07465 -0.10900
H 	H 	0.18223 0.70177 0.12280 0.04300
C 	C 	0.37443 0.58165 0.37427 -0.10900
H 	H 	0.36539 0.43568 0.37210 0.04000
H 	H 	0.30489 0.53238 0.48138 0.03400
C 	C 	0.23775 0.16017 0.59009 0.00900
C 	C 	0.17931 0.10914 0.59661 -0.04200
C 	C 	0.28129 0.20148 0.60358 -0.04200
H 	H 	0.14547 0.07686 0.58635 0.04200
H 	H 	0.32691 0.24058 0.59874 0.04200
H 	H 	0.94875 0.55028 0.98346 0.05000
C 	C 	0.75935 0.42472 0.55439 0.30300
C 	C 	0.51810 0.26729 0.51499 0.32800
C 	C 	0.66184 0.25088 0.55264 0.33100
C 	C 	0.59577 0.42668 0.51253 0.29700
C 	C 	0.67387 0.25184 0.49035 0.31100
C 	C 	0.78972 0.43549 0.49191 0.28500
Ni	Ni	0.62254 0.34469 0.54124 1.11400
Ni	Ni	0.64373 0.35211 0.49429 1.12000
Ni	Ni	0.74288 0.33707 0.52191 1.12100
O 	O 	0.70101 0.41958 0.55360 -0.37100
O 	O 	0.76983 0.37975 0.54825 -0.37400
O 	O 	0.63128 0.26958 0.48703 -0.38700
O 	O 	0.55418 0.26455 0.52854 -0.38800
O 	O 	0.54536 0.30593 0.50026 -0.38000
O 	O 	0.80496 0.41503 0.50772 -0.38300
O 	O 	0.64748 0.29202 0.55906 -0.37500
O 	O 	0.68304 0.25461 0.53489 -0.39200
O 	O 	0.73516 0.39996 0.48226 -0.37700
O 	O 	0.58264 0.39742 0.52966 -0.36900
O 	O 	0.64136 0.42938 0.50082 -0.38900
O 	O 	0.73144 0.29046 0.49718 -0.38700
O 	O 	0.67701 0.35867 0.51970 -0.71400
H 	H 	0.70400 0.40396 0.52029 0.15700
C 	C 	0.02706 0.92288 0.70092 0.33500
C 	C 	0.97083 0.06071 0.70366 0.31700
Ni	Ni	0.99553 0.98657 0.73197 1.11900
O 	O 	0.96159 0.00541 0.70790 -0.39100
O 	O 	0.99611 0.91588 0.71744 -0.39200
O 	O 	0.97657 0.04264 0.74891 -0.38500
O 	O 	0.02573 0.95745 0.75492 -0.37900
C 	C 	0.50318 0.78836 0.42498 0.32800
C 	C 	0.41140 0.85191 0.42775 0.29500
C 	C 	0.35487 0.60761 0.44989 0.31200
Ni	Ni	0.39630 0.75188 0.39828 1.11300
Ni	Ni	0.37334 0.73263 0.44551 1.11900
O 	O 	0.39492 0.66673 0.45220 -0.38600
O 	O 	0.47208 0.74905 0.41148 -0.38700
O 	O 	0.47180 0.78855 0.44076 -0.37800
O 	O 	0.42261 0.83991 0.40977 -0.36900
O 	O 	0.36664 0.80807 0.43896 -0.38800
C 	C 	0.40738 0.61685 0.00814 0.28900
C 	C 	0.38467 0.76429 0.04557 0.30500
Ni	Ni	0.32329 0.62682 0.04124 1.11300
O 	O 	0.38175 0.59900 0.02593 -0.37000
O 	O 	0.31796 0.75900 0.99947 -0.38000
O 	O 	0.39622 0.71744 0.04460 -0.37600
O 	O 	0.32614 0.75729 0.04193 -0.37400
H 	H 	0.34773 0.68842 0.01466 0.15700
C 	C 	0.86599 0.01799 0.25664 0.29500
C 	C 	0.84974 0.01203 0.19962 0.32400
Ni	Ni	0.96119 0.09677 0.22452 1.11000
Ni	Ni	0.89130 0.94637 0.22699 1.12200
O 	O 	0.87958 0.06144 0.24317 -0.36700
O 	O 	0.85972 0.96350 0.25224 -0.37100
O 	O 	0.90340 0.06550 0.20027 -0.38400
O 	O 	0.83175 0.97273 0.21423 -0.37600
O 	O 	0.02676 0.13778 0.24672 -0.36800
O 	O 	0.91123 0.92431 0.20087 -0.38700
O 	O 	0.96706 0.02530 0.22847 -0.72300
H 	H 	0.97158 0.02780 0.24260 0.14300
C 	C 	0.51387 0.90569 0.07855 -0.00600
C 	C 	0.49236 0.92070 0.09552 -0.03000
C 	C 	0.53536 0.94898 0.11069 -0.04100
C 	C 	0.60007 0.96246 0.10889 0.00800
C 	C 	0.62317 0.95443 0.09103 -0.04100
C 	C 	0.58015 0.92631 0.07587 -0.03100
C 	C 	0.63995 0.97467 0.12628 0.01500
C 	C 	0.62004 0.92941 0.14099 -0.04400
C 	C 	0.66123 0.93726 0.15634 -0.02800
C 	C 	0.72257 0.99028 0.15709 -0.00700
C 	C 	0.74185 0.03639 0.14273 -0.03200
C 	C 	0.70066 0.02864 0.12737 -0.04900
C 	C 	0.76650 0.99663 0.17225 0.05900
C 	C 	0.80394 0.00276 0.18484 -0.11300
C 	C 	0.46757 0.85736 0.06654 0.04600
C 	C 	0.42930 0.81691 0.05637 -0.09700
H 	H 	0.44140 0.90615 0.09755 0.04200
H 	H 	0.51745 0.95666 0.12424 0.04300
H 	H 	0.67339 0.96592 0.08934 0.04200
H 	H 	0.59746 0.91607 0.06263 0.04000
H 	H 	0.57344 0.88740 0.14023 0.04400
H 	H 	0.64591 0.90160 0.16744 0.04200
H 	H 	0.78910 0.07773 0.14330 0.03900
H 	H 	0.71642 0.06389 0.11612 0.04100
C 	C 	0.66046 0.94012 0.40230 -0.01200
C 	C 	0.72316 0.94791 0.40171 -0.02900
C 	C 	0.76486 0.97931 0.38606 -0.04000
C 	C 	0.74358 0.00242 0.37086 0.00700
C 	C 	0.68506 0.00304 0.37312 -0.04900
C 	C 	0.64395 0.97250 0.38893 -0.02400
C 	C 	0.77431 0.01274 0.35143 0.00400
C 	C 	0.78037 0.96511 0.34272 -0.03800
C 	C 	0.80117 0.97095 0.32349 -0.02600
C 	C 	0.81578 0.02416 0.31268 -0.01100
C 	C 	0.81149 0.07263 0.32139 -0.03100
C 	C 	0.79097 0.06704 0.34075 -0.04300
C 	C 	0.83397 0.02787 0.29255 0.04400
C 	C 	0.84863 0.02609 0.27591 -0.09900
C 	C 	0.60906 0.88689 0.41216 0.05400
C 	C 	0.56247 0.84303 0.41948 -0.11800
H 	H 	0.73735 0.92485 0.41234 0.04000
H 	H 	0.81127 0.98098 0.38492 0.04000
H 	H 	0.66886 0.02246 0.36185 0.04100
H 	H 	0.59647 0.96874 0.38969 0.03900
H 	H 	0.76696 0.92271 0.35068 0.04200
H 	H 	0.80474 0.93346 0.31688 0.04200
H 	H 	0.82321 0.11416 0.31317 0.03900
H 	H 	0.78675 0.10423 0.34731 0.04000
C 	C 	0.57334 0.08270 0.48410 -0.06100
C 	C 	0.59305 0.07617 0.46548 0.02200
C 	C 	0.64926 0.12546 0.45704 -0.06300
C 	C 	0.68171 0.18236 0.46641 0.01800
C 	C 	0.65857 0.19000 0.48433 -0.08700
C 	C 	0.60686 0.13885 0.49361 0.01800
C 	C 	0.55323 0.01847 0.45468 0.01800
H 	H 	0.66642 0.12043 0.44298 0.04600
H 	H 	0.72208 0.22146 0.45918 0.03200
H 	H 	0.58907 0.14416 0.50754 0.04000
H 	H 	0.53029 0.04512 0.49086 0.04700
C 	C 	0.52855 0.96113 0.46421 -0.05800
C 	C 	0.48037 0.90767 0.45572 0.02300
C 	C 	0.45985 0.90972 0.43687 -0.08600
C 	C 	0.48761 0.96633 0.42672 0.02200
C 	C 	0.53328 0.02076 0.43571 -0.06700
H 	H 	0.54487 0.95836 0.47857 0.04800
H 	H 	0.45919 0.86444 0.46380 0.02300
H 	H 	0.47271 0.96848 0.41211 0.03400
H 	H 	0.55173 0.06469 0.42817 0.04700
C 	C 	0.93024 0.53087 0.45878 -0.05600
C 	C 	0.96845 0.58045 0.47093 0.00500
C 	C 	0.94061 0.58889 0.48776 -0.05500
C 	C 	0.87742 0.54470 0.49340 0.00900
C 	C 	0.84194 0.49130 0.48241 -0.07600
C 	C 	0.86708 0.48654 0.46448 0.01000
H 	H 	0.96913 0.62779 0.49701 0.04200
H 	H 	0.85797 0.54951 0.50710 0.03200
H 	H 	0.83988 0.44602 0.45571 0.03800
H 	H 	0.95087 0.52452 0.44555 0.04400
C 	C 	0.49143 0.50038 0.50568 -0.06200
C 	C 	0.46464 0.47743 0.48750 0.02100
C 	C 	0.47721 0.43434 0.47844 -0.06300
C 	C 	0.51987 0.41783 0.48669 0.01900
C 	C 	0.54863 0.44239 0.50449 -0.08500
C 	C 	0.53289 0.48240 0.51424 0.01600
C 	C 	0.43110 0.50456 0.47680 0.02200
H 	H 	0.45605 0.41568 0.46456 0.04800
H 	H 	0.53152 0.38675 0.47906 0.02800
H 	H 	0.55431 0.50109 0.52808 0.03300
H 	H 	0.48196 0.53365 0.51283 0.04800
C 	C 	0.37518 0.50238 0.48458 -0.06300
C 	C 	0.34622 0.53173 0.47486 0.01800
C 	C 	0.37308 0.56337 0.45733 -0.08800
C 	C 	0.42665 0.56242 0.44906 0.01900
C 	C 	0.45579 0.53354 0.45879 -0.06100
H 	H 	0.35507 0.47919 0.49832 0.04700
H 	H 	0.44767 0.58678 0.43553 0.04000
H 	H 	0.49873 0.53519 0.45259 0.04800
C 	C 	0.69015 0.14600 0.59255 -0.01000
C 	C 	0.68640 0.15764 0.61216 -0.02800
C 	C 	0.71216 0.13528 0.62608 -0.04300
C 	C 	0.74167 0.10099 0.62045 0.01000
C 	C 	0.74036 0.08495 0.60099 -0.04400
C 	C 	0.71474 0.10752 0.58707 -0.02900
C 	C 	0.78112 0.08921 0.63434 0.00900
C 	C 	0.75245 0.05433 0.65126 -0.04300
C 	C 	0.79104 0.04801 0.66524 -0.03000
C 	C 	0.85840 0.07647 0.66237 -0.00800
C 	C 	0.88695 0.11035 0.64534 -0.03000
C 	C 	0.84849 0.11678 0.63138 -0.04300
C 	C 	0.89826 0.07125 0.67695 0.04900
C 	C 	0.93159 0.06684 0.68918 -0.10300
C 	C 	0.67913 0.18143 0.57811 0.05300
C 	C 	0.66963 0.21164 0.56628 -0.11200
H 	H 	0.66677 0.18681 0.61652 0.04100
H 	H 	0.71229 0.14736 0.64110 0.04300
H 	H 	0.76194 0.05750 0.59655 0.04100
H 	H 	0.71708 0.09771 0.57195 0.03900
H 	H 	0.70050 0.03285 0.65368 0.04200
H 	H 	0.76866 0.02147 0.67835 0.04100
H 	H 	0.93899 0.13227 0.64302 0.04000
H 	H 	0.87113 0.14421 0.61843 0.04100
C 	C 	0.33478 0.19921 0.53602 -0.01000
C 	C 	0.30679 0.13904 0.54377 -0.02900
C 	C 	0.26830 0.12329 0.56057 -0.04300
C 	C 	0.25651 0.16732 0.56939 0.01000
C 	C 	0.27469 0.22332 0.55960 -0.04300
C 	C 	0.31334 0.23897 0.54281 -0.02900
C 	C 	0.39805 0.22561 0.52701 0.05200
C 	C 	0.45107 0.24461 0.51975 -0.11500
H 	H 	0.32083 0.10689 0.53812 0.04100
H 	H 	0.25251 0.07896 0.56760 0.04200
H 	H 	0.26347 0.25670 0.56584 0.04200
H 	H 	0.33252 0.28473 0.53644 0.04000
C 	C 	0.97093 0.78104 0.66335 -0.02500
C 	C 	0.01105 0.75496 0.66116 0.00600
C 	C 	0.99801 0.71107 0.64690 -0.07900
C 	C 	0.94481 0.69311 0.63474 0.02400
C 	C 	0.90388 0.71830 0.63723 -0.05300
C 	C 	0.91698 0.76217 0.65149 -0.02000
C 	C 	0.93145 0.64764 0.61949 0.00200
C 	C 	0.91070 0.58585 0.62447 -0.04000
C 	C 	0.88651 0.54055 0.61027 -0.03200
C 	C 	0.88271 0.55681 0.59107 -0.00600
C 	C 	0.90882 0.61921 0.58584 -0.03300
C 	C 	0.93306 0.66454 0.60001 -0.04000
C 	C 	0.84081 0.50984 0.57792 0.04500
C 	C 	0.80576 0.47066 0.56685 -0.09800
C 	C 	0.98826 0.83061 0.67667 0.04000
C 	C 	0.00415 0.87203 0.68795 -0.09100
H 	H 	0.05295 0.76946 0.67028 0.03500
H 	H 	0.02962 0.69160 0.64516 0.05800
H 	H 	0.86221 0.70410 0.62804 0.04500
H 	H 	0.88581 0.78218 0.65310 0.03800
H 	H 	0.91025 0.57251 0.63944 0.04000
H 	H 	0.86708 0.49245 0.61440 0.04100
H 	H 	0.90676 0.63223 0.57098 0.03900
H 	H 	0.95032 0.71237 0.59598 0.04000
H 	H 	0.84304 0.50227 0.00873 0.04400
H 	H 	0.43809 0.53297 0.02284 0.03900
O 	O 	0.18570 0.56831 0.99677 -0.38500
C 	C 	0.06313 0.93210 0.75330 0.31000
C 	C 	0.02155 0.09108 0.75843 0.30800
C 	C 	0.21260 0.13923 0.74278 0.30600
C 	C 	0.04811 0.87977 0.76552 -0.09400
H 	H 	0.96222 0.71674 0.76462 0.04200
C 	C 	0.00697 0.10230 0.77762 -0.08300
C 	C 	0.21964 0.16046 0.76228 -0.10900
C 	C 	0.03004 0.83485 0.77587 0.04700
C 	C 	0.22303 0.17532 0.77895 0.05400
C 	C 	0.99713 0.11489 0.79361 0.03000
C 	C 	0.96816 0.72199 0.78012 -0.04200
C 	C 	0.00794 0.78052 0.78794 0.00400
H 	H 	0.89928 0.62640 0.78620 0.04100
H 	H 	0.88607 0.06196 0.81448 0.04100
C 	C 	0.93231 0.67084 0.79235 -0.04100
C 	C 	0.98753 0.13153 0.81273 -0.00900
H 	H 	0.08650 0.20591 0.81518 0.04300
H 	H 	0.32092 0.27160 0.79663 0.04200
C 	C 	0.92561 0.10150 0.82135 -0.03300
C 	C 	0.22514 0.19145 0.79896 -0.00800
C 	C 	0.03852 0.18230 0.82180 -0.02700
C 	C 	0.01574 0.78667 0.80801 -0.02000
H 	H 	0.92766 0.56624 0.81824 0.04100
H 	H 	0.04680 0.83164 0.81417 0.04100
C 	C 	0.28124 0.24152 0.80628 -0.02900
C 	C 	0.93622 0.67794 0.81248 0.01000
H 	H 	0.12968 0.11503 0.80593 0.04400
C 	C 	0.91367 0.12452 0.83830 -0.03900
C 	C 	0.02686 0.20493 0.83890 -0.03100
C 	C 	0.97995 0.73555 0.82025 -0.05500
H 	H 	0.86481 0.10293 0.84430 0.04100
C 	C 	0.17370 0.15328 0.81154 -0.03000
C 	C 	0.89209 0.57178 0.82658 -0.04300
C 	C 	0.96380 0.17764 0.84681 -0.00200
H 	H 	0.98613 0.29549 0.84599 0.04100
H 	H 	0.06612 0.24536 0.84549 0.04100
C 	C 	0.89016 0.62706 0.82529 0.00800
C 	C 	0.28783 0.25088 0.82621 -0.04200
H 	H 	0.85103 0.48165 0.84000 0.04100
H 	H 	0.98421 0.74123 0.83578 0.04200
C 	C 	0.84853 0.52380 0.83884 -0.03000
H 	H 	0.33292 0.28770 0.83179 0.04300
C 	C 	0.18002 0.16280 0.83149 -0.04400
C 	C 	0.95883 0.26938 0.85867 -0.04500
C 	C 	0.94821 0.20941 0.86211 0.01200
C 	C 	0.84352 0.63349 0.83607 -0.04300
C 	C 	0.23820 0.21014 0.83898 0.01000
H 	H 	0.84116 0.67573 0.83500 0.04200
H 	H 	0.14090 0.13181 0.84115 0.04300
C 	C 	0.80275 0.53078 0.84985 -0.00900
H 	H 	0.93450 0.33825 0.86715 0.04000
C 	C 	0.80001 0.58552 0.84831 -0.03000
C 	C 	0.92956 0.29363 0.87066 -0.03000
C 	C 	0.91387 0.17676 0.87881 -0.04500
H 	H 	0.90686 0.13114 0.88192 0.04000
C 	C 	0.25170 0.21081 0.85982 0.01000
H 	H 	0.23130 0.11607 0.86099 0.04200
C 	C 	0.76196 0.48374 0.86376 0.05100
C 	C 	0.88915 0.25797 0.88605 -0.00800
C 	C 	0.88430 0.20097 0.89073 -0.03000
C 	C 	0.25287 0.15998 0.86831 -0.04200
H 	H 	0.27403 0.30515 0.86408 0.04200
H 	H 	0.76482 0.59127 0.85679 0.04000
C 	C 	0.27720 0.26638 0.87001 -0.04300
C 	C 	0.72801 0.44412 0.87537 -0.11000
H 	H 	0.85407 0.17356 0.90283 0.03900
C 	C 	0.28866 0.16782 0.88504 -0.02900
C 	C 	0.84255 0.27293 0.89402 0.04600
H 	H 	0.29454 0.12995 0.89042 0.04100
C 	C 	0.31337 0.27420 0.88667 -0.02900
C 	C 	0.69033 0.39787 0.88975 0.32900
O 	O 	0.66972 0.33951 0.88604 -0.37100
C 	C 	0.80344 0.28530 0.90072 -0.09800
C 	C 	0.32413 0.22658 0.89312 -0.00900
H 	H 	0.33848 0.31920 0.89332 0.04100
C 	C 	0.75289 0.29646 0.90736 0.30600
O 	O 	0.68936 0.41504 0.90749 -0.39000
C 	C 	0.38361 0.24234 0.90283 0.05200
Ni	Ni	0.61418 0.26738 0.90561 1.11400
O 	O 	0.69211 0.25179 0.90486 -0.37500
O 	O 	0.76748 0.35479 0.91044 -0.37500
O 	O 	0.54497 0.29456 0.90565 -0.37900
C 	C 	0.43326 0.25475 0.91094 -0.10700
H 	H 	0.52065 0.07343 0.91066 0.03600
O 	O 	0.55049 0.18287 0.91960 -0.36900
C 	C 	0.49627 0.27083 0.91795 0.32600
H 	H 	0.47206 0.96162 0.91715 0.04700
Ni	Ni	0.72116 0.38374 0.92949 1.12000
O 	O 	0.64623 0.30445 0.92952 -0.71800
H 	H 	0.66457 0.27909 0.93429 0.16100
C 	C 	0.51584 0.05692 0.92545 0.00800
C 	C 	0.48848 0.99339 0.92910 -0.05800
C 	C 	0.55849 0.16530 0.93716 0.28500
O 	O 	0.50209 0.24972 0.93488 -0.37500
O 	O 	0.69557 0.43150 0.94783 -0.38900
C 	C 	0.53566 0.09870 0.94087 -0.07700
H 	H 	0.68800 0.49392 0.98111 0.03100
H 	H 	0.79576 0.29889 0.98320 0.03200
C 	C 	0.63641 0.42348 0.94932 0.30900
Ni	Ni	0.58656 0.28968 0.95011 1.12000
O 	O 	0.74940 0.35405 0.95232 -0.39100
O 	O 	0.57433 0.20320 0.95215 -0.37700
C 	C 	0.48117 0.97091 0.94815 0.02500
H 	H 	0.35614 0.88796 0.93958 0.04800
C 	C 	0.65260 0.50218 0.97394 0.01500
C 	C 	0.62666 0.47408 0.95621 -0.08800
C 	C 	0.44595 0.90353 0.95223 0.01800
C 	C 	0.37967 0.86805 0.94801 -0.05800
O 	O 	0.58525 0.36897 0.94678 -0.39000
H 	H 	0.90201 0.36733 0.99760 0.04500
C 	C 	0.53072 0.07616 0.95989 0.01300
C 	C 	0.71957 0.34276 0.96936 0.29200
C 	C 	0.80507 0.34240 0.98929 0.01300
C 	C 	0.47599 0.87643 0.96273 -0.05800
H 	H 	0.52749 0.90272 0.96562 0.04600
C 	C 	0.50345 0.01268 0.96349 -0.07000
C 	C 	0.62933 0.53742 0.98311 -0.06400
C 	C 	0.58145 0.48595 0.94698 0.01800
H 	H 	0.64741 0.55649 0.99721 0.04500
H 	H 	0.56162 0.46508 0.93320 0.03800
H 	H 	0.57327 0.64818 0.96556 0.04600
H 	H 	0.29044 0.78358 0.95395 0.03700
C 	C 	0.34246 0.80862 0.95605 0.01500
O 	O 	0.65607 0.32408 0.97120 -0.37900
C 	C 	0.86560 0.38147 0.99734 -0.05800
C 	C 	0.43868 0.81708 0.97079 0.01000
H 	H 	0.54667 0.10754 0.97194 0.03900
C 	C 	0.55849 0.52140 0.95608 -0.06200
C 	C 	0.58047 0.54532 0.97452 0.02100
C 	C 	0.76067 0.36337 0.98650 -0.08100
C 	C 	0.37109 0.78460 0.96853 -0.07700
H 	H 	0.52124 0.52767 0.94922 0.04900
C 	C 	0.54451 0.62351 0.97821 -0.06000
H 	H 	0.46153 0.79853 0.98013 0.03000
H 	H 	0.49812 0.99582 0.97826 0.05300
H 	H 	0.49916 0.67958 0.98025 0.03600
C 	C 	0.54703 0.57214 0.98562 0.01900
H 	H 	0.96826 0.43850 0.02793 0.04900
C 	C 	0.50232 0.64120 0.98652 0.01100
C 	C 	0.98963 0.47809 0.01816 -0.08300
H 	H 	0.08728 0.50606 0.02664 0.03800
O 	O 	0.29671 0.67879 0.97847 -0.37300
C 	C 	0.88129 0.44111 0.00314 0.01400
C 	C 	0.95018 0.48893 0.00555 0.03200
C 	C 	0.05709 0.51636 0.01741 0.03900
C 	C 	0.33051 0.73840 0.98326 0.28300
C 	C 	0.77197 0.41818 0.99541 0.01100
C 	C 	0.51057 0.54150 0.00228 -0.06000
C 	C 	0.46199 0.60748 0.00228 -0.07800
O 	O 	0.37766 0.63085 0.99444 -0.38300
C 	C 	0.83254 0.45744 0.00349 -0.06000
H 	H 	0.73680 0.43361 0.99415 0.03400
H 	H 	0.51247 0.50206 0.00821 0.04600
C 	C 	0.46833 0.55911 0.01059 0.01200
C 	C 	0.97861 0.54129 0.99324 -0.08200
C 	C 	0.08568 0.56635 0.00425 -0.09600
