data_crystal

_cell_length_a 18.60179
_cell_length_b 18.99393
_cell_length_c 26.58760
_cell_angle_alpha 95.44224
_cell_angle_beta  95.44243
_cell_angle_gamma 126.41233

_symmetry_space_group_name_	'P 1'
_symmetry_space_group_name_H-M	'P 1'

loop_
_symmetry_equiv_pos_as_xyz
  x,y,z

loop_
_atom_site_label
_atom_site_type_symbol
_atom_site_fract_x
_atom_site_fract_y
_atom_site_fract_z
_atom_site_charge
C 	C 	0.94904 0.03720 0.99904 0.04900
C 	C 	0.04284 0.08342 0.00034 -0.07700
C 	C 	0.07908 0.03619 0.99762 0.04600
C 	C 	0.02195 0.94379 0.99387 -0.10000
C 	C 	0.92892 0.89810 0.99243 0.05900
C 	C 	0.89239 0.94448 0.99469 -0.08800
H 	H 	0.08693 0.15509 0.00313 0.06300
H 	H 	0.04993 0.90739 0.99189 0.06500
H 	H 	0.81989 0.90849 0.99309 0.06400
C 	C 	0.90610 0.99726 0.44724 0.01600
C 	C 	0.85808 0.90637 0.45032 -0.06100
C 	C 	0.90360 0.86773 0.45085 0.02800
C 	C 	0.99670 0.92044 0.44968 -0.04600
C 	C 	0.04432 0.01061 0.44716 0.01300
C 	C 	0.99863 0.04826 0.44449 -0.04000
H 	H 	0.78658 0.86651 0.45262 0.05700
H 	H 	0.03235 0.89147 0.45143 0.05400
H 	H 	0.03600 0.11833 0.44271 0.04600
Cu	Cu	0.63126 0.22408 0.01395 0.93200
Cu	Cu	0.66908 0.19120 0.89699 0.90500
Cu	Cu	0.65483 0.34801 0.94089 0.91400
Cu	Cu	0.61355 0.37779 0.04363 0.91200
C 	C 	0.65890 0.29856 0.12095 0.30900
O 	O 	0.49635 0.15789 0.01600 -0.34000
C 	C 	0.65629 0.30261 0.83709 0.30800
O 	O 	0.68898 0.35834 0.01323 -0.63100
O 	O 	0.60686 0.22156 0.93881 -0.62700
O 	O 	0.71470 0.18936 0.01705 -0.33600
O 	O 	0.66113 0.10939 0.93530 -0.39200
O 	O 	0.61277 0.32817 0.10673 -0.34600
O 	O 	0.70952 0.47211 0.94483 -0.36500
C 	C 	0.71027 0.52116 0.98375 0.28900
C 	C 	0.45292 0.18858 0.99883 0.28200
O 	O 	0.49866 0.26843 0.98772 -0.38500
O 	O 	0.64998 0.48448 0.01403 -0.36600
O 	O 	0.66717 0.24869 0.08754 -0.32800
C 	C 	0.71595 0.13953 0.97975 0.28200
O 	O 	0.62267 0.33056 0.86711 -0.33700
O 	O 	0.71023 0.28531 0.85742 -0.38600
H 	H 	0.75489 0.40341 0.02716 0.19900
H 	H 	0.54104 0.18085 0.92397 0.19200
Cu	Cu	0.75707 0.34566 0.44557 0.93100
Cu	Cu	0.75081 0.27270 0.55370 0.88500
Cu	Cu	0.61210 0.29200 0.51195 0.90400
Cu	Cu	0.58807 0.34264 0.41124 0.90800
C 	C 	0.69043 0.32334 0.33818 0.30700
O 	O 	0.81103 0.47705 0.44771 -0.34100
C 	C 	0.67271 0.31698 0.62446 0.30200
O 	O 	0.61554 0.27274 0.44022 -0.63300
O 	O 	0.74608 0.35522 0.51906 -0.63500
O 	O 	0.81712 0.28522 0.44734 -0.34400
O 	O 	0.72041 0.18904 0.49504 -0.41800
O 	O 	0.65312 0.36156 0.35236 -0.35700
O 	O 	0.48117 0.22365 0.50009 -0.36400
C 	C 	0.43199 0.22588 0.46194 0.29700
C 	C 	0.76973 0.50951 0.46449 0.28500
O 	O 	0.68633 0.45474 0.47213 -0.38000
O 	O 	0.46987 0.28928 0.43431 -0.37300
O 	O 	0.74349 0.31854 0.37216 -0.32100
C 	C 	0.77974 0.21044 0.46508 0.30100
O 	O 	0.60633 0.29140 0.58607 -0.35400
O 	O 	0.74680 0.32749 0.61596 -0.36100
H 	H 	0.57661 0.20928 0.42315 0.20300
H 	H 	0.78310 0.41666 0.53922 0.20300
C 	C 	0.71388 0.39075 0.76800 0.05700
C 	C 	0.64999 0.30930 0.78233 -0.00400
C 	C 	0.58388 0.23358 0.74409 -0.10000
C 	C 	0.58913 0.23873 0.69194 0.05000
C 	C 	0.65680 0.31881 0.67772 0.00000
C 	C 	0.71558 0.39710 0.71574 -0.09700
C 	C 	0.78270 0.48656 0.70096 0.78100
H 	H 	0.76348 0.44872 0.79761 0.07500
H 	H 	0.54330 0.17951 0.66245 0.07300
C 	C 	0.51101 0.14615 0.75894 0.77800
F 	F 	0.81262 0.55612 0.74059 -0.44600
F 	F 	0.74235 0.49608 0.65840 -0.46000
F 	F 	0.85708 0.49269 0.68970 -0.44600
F 	F 	0.46755 0.16005 0.79348 -0.45800
F 	F 	0.55061 0.11127 0.78152 -0.48500
F 	F 	0.44582 0.08419 0.71663 -0.44300
C 	C 	0.61903 0.22441 0.19647 0.05500
C 	C 	0.67924 0.30028 0.17617 0.00200
C 	C 	0.75307 0.37957 0.20950 -0.09900
C 	C 	0.75876 0.38444 0.26304 0.05500
C 	C 	0.69469 0.31041 0.28336 0.00300
C 	C 	0.62727 0.22817 0.25002 -0.10200
C 	C 	0.56036 0.14615 0.27147 0.77800
H 	H 	0.56351 0.16358 0.17052 0.07400
H 	H 	0.81054 0.44700 0.28898 0.07700
C 	C 	0.82177 0.46096 0.18821 0.77900
F 	F 	0.51074 0.06978 0.23384 -0.44600
F 	F 	0.50055 0.15624 0.29176 -0.47300
F 	F 	0.60644 0.13482 0.30982 -0.45500
F 	F 	0.78247 0.49935 0.17092 -0.47300
F 	F 	0.84948 0.43712 0.14779 -0.45500
F 	F 	0.89836 0.52372 0.22529 -0.44300
C 	C 	0.85489 0.77209 0.45312 0.00700
C 	C 	0.84916 0.74652 0.50132 -0.05700
C 	C 	0.82539 0.66233 0.50584 0.04300
C 	C 	0.80660 0.60243 0.46168 -0.07500
C 	C 	0.80997 0.62710 0.41334 -0.00500
C 	C 	0.83293 0.71089 0.40879 0.00000
S 	S 	0.82275 0.63412 0.56719 0.03500
S 	S 	0.83382 0.73848 0.34736 -0.00000
H 	H 	0.75045 0.71625 0.32807 0.04400
H 	H 	0.73659 0.59167 0.57720 0.07100
H 	H 	0.86693 0.79353 0.53560 0.06200
H 	H 	0.79277 0.58031 0.37907 0.05500
C 	C 	0.81637 0.15950 0.45975 -0.08600
C 	C 	0.79471 0.10529 0.41243 0.00400
C 	C 	0.81792 0.04694 0.40850 0.00300
C 	C 	0.86300 0.04226 0.45239 0.01600
C 	C 	0.88330 0.09556 0.49977 -0.06900
C 	C 	0.86185 0.15501 0.50351 0.06300
S 	S 	0.79071 0.98063 0.34849 -0.01100
S 	S 	0.89628 0.22652 0.56269 -0.08900
H 	H 	0.98112 0.30427 0.56464 0.05400
H 	H 	0.86290 0.02455 0.32367 0.05000
H 	H 	0.75859 0.10738 0.37883 0.07500
H 	H 	0.91974 0.09376 0.53334 0.06200
C 	C 	0.33283 0.16975 0.45795 -0.07900
C 	C 	0.29649 0.17148 0.50149 0.00300
C 	C 	0.20236 0.12033 0.49830 -0.00300
C 	C 	0.14362 0.06716 0.45095 0.01400
C 	C 	0.17982 0.06508 0.40744 -0.06300
C 	C 	0.27399 0.11567 0.41071 0.04900
S 	S 	0.15878 0.12259 0.55393 -0.00500
S 	S 	0.31719 0.10790 0.35602 0.00500
H 	H 	0.32759 0.04228 0.35609 0.06900
H 	H 	0.14425 0.18549 0.55578 0.03900
H 	H 	0.34158 0.21309 0.53783 0.05900
H 	H 	0.13457 0.02327 0.37118 0.06100
C 	C 	0.76507 0.61752 0.98639 -0.08100
C 	C 	0.76298 0.65072 0.94180 0.00000
C 	C 	0.81580 0.74244 0.94337 0.00700
C 	C 	0.87012 0.80167 0.99018 -0.01200
C 	C 	0.87175 0.76860 0.03479 -0.04400
C 	C 	0.82078 0.67701 0.03302 0.04700
S 	S 	0.81540 0.78241 0.88628 -0.00600
S 	S 	0.83144 0.63789 0.08861 0.02700
H 	H 	0.76680 0.62340 0.11630 0.06200
H 	H 	0.88531 0.79708 0.86373 0.05700
H 	H 	0.72043 0.60508 0.90586 0.06400
H 	H 	0.91445 0.81442 0.07067 0.05900
C 	C 	0.90857 0.08454 0.99988 -0.00400
C 	C 	0.89873 0.11505 0.95569 -0.06100
C 	C 	0.83861 0.13646 0.94935 0.06200
C 	C 	0.78496 0.12403 0.98692 -0.09200
C 	C 	0.80064 0.10075 0.03297 0.01100
C 	C 	0.86343 0.08282 0.04002 0.00900
S 	S 	0.83547 0.18354 0.89599 -0.07800
S 	S 	0.88518 0.05834 0.09923 -0.00900
H 	H 	0.95664 0.13557 0.13125 0.05100
H 	H 	0.77098 0.11706 0.85580 0.05000
H 	H 	0.93557 0.11925 0.92542 0.06100
H 	H 	0.76330 0.09571 0.06312 0.06100
C 	C 	0.35510 0.13919 0.99834 -0.08600
C 	C 	0.29731 0.11673 0.95188 -0.00200
C 	C 	0.20871 0.08895 0.95155 0.00400
C 	C 	0.17672 0.08259 0.99813 -0.00800
C 	C 	0.23413 0.10424 0.04456 -0.05100
C 	C 	0.32269 0.13186 0.04493 0.05500
S 	S 	0.13817 0.06182 0.89255 -0.00500
S 	S 	0.39263 0.15829 0.10406 -0.01100
H 	H 	0.38436 0.08431 0.11342 0.06800
H 	H 	0.08695 0.97208 0.87414 0.04500
H 	H 	0.32231 0.12349 0.91606 0.06100
H 	H 	0.20894 0.09732 0.08033 0.05800
