data_crystal

_cell_length_a 30.47284
_cell_length_b 31.16934
_cell_length_c 23.24716
_cell_angle_alpha 95.52732
_cell_angle_beta  95.51982
_cell_angle_gamma 125.54928

_symmetry_space_group_name_	'P 1'
_symmetry_space_group_name_H-M	'P 1'

loop_
_symmetry_equiv_pos_as_xyz
  x,y,z

loop_
_atom_site_label
_atom_site_type_symbol
_atom_site_fract_x
_atom_site_fract_y
_atom_site_fract_z
_atom_site_charge
C 	C 	0.97520 0.02759 0.99380 0.12700
N 	N 	0.02709 0.05532 0.98247 -0.13900
C 	C 	0.05075 0.03001 0.97321 0.11900
C 	C 	0.02550 0.00350 0.42100 0.11800
N 	N 	0.00115 0.02863 0.41943 -0.13900
Cu	Cu	0.65121 0.26257 0.00358 0.92300
Cu	Cu	0.70787 0.26481 0.88970 0.87100
Cu	Cu	0.68861 0.34606 0.92380 0.89900
Cu	Cu	0.64410 0.35909 0.02806 0.88900
C 	C 	0.65576 0.30537 0.12071 0.28000
O 	O 	0.56941 0.22782 0.99100 -0.35600
C 	C 	0.68467 0.30833 0.79969 0.28200
O 	O 	0.69365 0.34572 0.00641 -0.64600
O 	O 	0.65227 0.26742 0.91929 -0.63600
O 	O 	0.68731 0.22617 0.01185 -0.38600
O 	O 	0.75341 0.28159 0.96234 -0.44300
O 	O 	0.62922 0.32311 0.09764 -0.38400
O 	O 	0.72742 0.42312 0.93471 -0.37900
C 	C 	0.71645 0.45100 0.96875 0.29200
C 	C 	0.54859 0.24874 0.96308 0.28300
O 	O 	0.58140 0.29831 0.95491 -0.39000
O 	O 	0.67578 0.42755 0.99833 -0.39100
O 	O 	0.66127 0.27233 0.08790 -0.35500
C 	C 	0.73571 0.24684 0.99773 0.31700
O 	O 	0.69657 0.34813 0.84043 -0.38000
O 	O 	0.67950 0.26586 0.81363 -0.41700
H 	H 	0.73143 0.37026 0.02974 0.16200
H 	H 	0.61592 0.24428 0.89282 0.17400
Cu	Cu	0.72800 0.33928 0.41672 0.92700
Cu	Cu	0.73348 0.29447 0.53738 0.87100
Cu	Cu	0.64950 0.31185 0.50398 0.89600
Cu	Cu	0.62901 0.34637 0.39438 0.89400
C 	C 	0.67796 0.32762 0.29920 0.28000
O 	O 	0.76404 0.41904 0.42167 -0.36100
C 	C 	0.69427 0.32207 0.62839 0.28200
O 	O 	0.64437 0.30015 0.42020 -0.63800
O 	O 	0.72905 0.34600 0.50292 -0.63800
O 	O 	0.76293 0.30121 0.40940 -0.36900
O 	O 	0.70989 0.24471 0.46762 -0.44300
O 	O 	0.66083 0.35479 0.32161 -0.38200
O 	O 	0.57109 0.27453 0.49849 -0.38000
C 	C 	0.54008 0.27864 0.45905 0.28900
C 	C 	0.74450 0.44226 0.44788 0.28300
O 	O 	0.69545 0.41240 0.46112 -0.39200
O 	O 	0.56202 0.31831 0.42933 -0.39400
O 	O 	0.71204 0.32261 0.33213 -0.35500
C 	C 	0.74344 0.25702 0.43058 0.29300
O 	O 	0.65302 0.31185 0.58966 -0.37800
O 	O 	0.73743 0.32837 0.61196 -0.41800
H 	H 	0.61821 0.26209 0.40030 0.16300
H 	H 	0.75406 0.38303 0.52603 0.17500
C 	C 	0.68606 0.31519 0.73958 -0.04800
C 	C 	0.68889 0.31932 0.68881 -0.05000
C 	C 	0.67197 0.31716 0.23642 -0.04300
C 	C 	0.66539 0.31062 0.18348 -0.04400
C 	C 	0.77251 0.50058 0.45183 -0.09000
C 	C 	0.75814 0.52727 0.48875 0.01300
C 	C 	0.77756 0.57998 0.48540 -0.07000
C 	C 	0.81179 0.60657 0.44555 0.04000
C 	C 	0.82846 0.58111 0.41083 -0.07000
C 	C 	0.80904 0.52839 0.41398 0.01500
C 	C 	0.82824 0.65920 0.43860 -0.02500
C 	C 	0.84257 0.70324 0.43195 -0.01600
C 	C 	0.86081 0.75596 0.42298 0.02600
H 	H 	0.73088 0.50679 0.51897 0.03200
H 	H 	0.76511 0.59970 0.51297 0.04900
H 	H 	0.85545 0.60169 0.38039 0.04800
H 	H 	0.82084 0.50862 0.38547 0.03800
H 	H 	0.89798 0.75434 0.34905 0.04300
H 	H 	0.82755 0.76966 0.49461 0.04500
C 	C 	0.76905 0.22907 0.42477 -0.10500
C 	C 	0.78083 0.21191 0.47376 0.02100
C 	C 	0.80199 0.18259 0.46812 -0.07700
C 	C 	0.81172 0.17011 0.41359 0.04400
C 	C 	0.80087 0.18781 0.36462 -0.07500
C 	C 	0.77967 0.21738 0.37021 0.02400
C 	C 	0.83380 0.13997 0.40859 -0.02700
C 	C 	0.85232 0.11468 0.40733 -0.01500
C 	C 	0.87570 0.08563 0.40890 0.02400
C 	C 	0.84693 0.03352 0.37605 -0.05100
C 	C 	0.86911 0.00488 0.37934 -0.02200
C 	C 	0.92022 0.02829 0.41560 -0.02100
C 	C 	0.94844 0.08022 0.44903 -0.01800
C 	C 	0.92629 0.10872 0.44558 -0.05200
H 	H 	0.77355 0.22131 0.51628 -0.00200
H 	H 	0.81079 0.16950 0.50625 0.04700
H 	H 	0.80862 0.17859 0.32233 0.05100
H 	H 	0.77072 0.23034 0.33209 0.03500
H 	H 	0.80754 0.01522 0.34795 0.04300
H 	H 	0.98760 0.09856 0.47764 0.03900
H 	H 	0.94843 0.14874 0.47161 0.04300
C 	C 	0.08556 0.03468 0.42627 -0.02200
C 	C 	0.12036 0.08680 0.46021 -0.01700
C 	C 	0.17730 0.11606 0.46564 -0.05200
C 	C 	0.19988 0.09353 0.43725 0.02500
C 	C 	0.16535 0.04155 0.40348 -0.05100
C 	C 	0.10839 0.01219 0.39796 -0.02000
C 	C 	0.25841 0.12430 0.44150 -0.01600
C 	C 	0.30744 0.15017 0.44514 -0.02500
C 	C 	0.36591 0.18140 0.44856 0.04100
C 	C 	0.38841 0.20004 0.39888 -0.07200
C 	C 	0.44522 0.23133 0.40225 0.01600
C 	C 	0.48007 0.24431 0.45546 -0.09000
C 	C 	0.45735 0.22505 0.50511 0.01900
C 	C 	0.40042 0.19375 0.50162 -0.07100
H 	H 	0.10336 0.10443 0.48279 0.04000
H 	H 	0.20382 0.15626 0.49181 0.04500
H 	H 	0.18257 0.02399 0.38122 0.04300
H 	H 	0.36190 0.19044 0.35768 0.04800
H 	H 	0.46215 0.24540 0.36346 0.02300
H 	H 	0.48372 0.23495 0.54653 0.03900
H 	H 	0.38324 0.17942 0.54022 0.05000
C 	C 	0.74511 0.50847 0.96734 -0.08800
C 	C 	0.80099 0.54090 0.96362 0.01800
C 	C 	0.82875 0.59601 0.96550 -0.07000
C 	C 	0.80082 0.61897 0.97090 0.04200
C 	C 	0.74488 0.58658 0.97349 -0.07000
C 	C 	0.71707 0.53155 0.97170 0.01900
C 	C 	0.82978 0.67591 0.97489 -0.02100
C 	C 	0.85406 0.72360 0.97823 -0.01700
H 	H 	0.82313 0.52364 0.96039 0.03100
H 	H 	0.87203 0.62087 0.96332 0.05000
H 	H 	0.72298 0.60406 0.97730 0.05000
H 	H 	0.67378 0.50689 0.97375 0.03400
H 	H 	0.81168 0.77402 0.94309 0.04600
C 	C 	0.76609 0.22492 0.01367 -0.11800
C 	C 	0.82329 0.25648 0.01726 0.02300
C 	C 	0.85103 0.23335 0.02254 -0.07900
C 	C 	0.82191 0.17861 0.02446 0.04400
C 	C 	0.76537 0.14771 0.02422 -0.07900
C 	C 	0.73752 0.17076 0.01901 0.02400
C 	C 	0.84902 0.15321 0.02159 -0.03200
C 	C 	0.87139 0.13160 0.01919 -0.01500
C 	C 	0.89732 0.10511 0.01486 0.01300
C 	C 	0.86612 0.05069 0.98896 -0.04100
C 	C 	0.89149 0.02538 0.98216 -0.00700
C 	C 	0.94843 0.05436 0.00134 -0.04500
C 	C 	0.97957 0.10889 0.02770 -0.01600
C 	C 	0.95405 0.13413 0.03436 -0.05200
H 	H 	0.84601 0.29855 0.01434 0.02300
H 	H 	0.89488 0.25764 0.02338 0.04700
H 	H 	0.74267 0.10543 0.02618 0.04700
H 	H 	0.69347 0.14595 0.01664 0.02700
H 	H 	0.82227 0.02808 0.97355 0.04400
H 	H 	0.02339 0.13162 0.04326 0.03800
H 	H 	0.97843 0.17626 0.05439 0.04200
C 	C 	0.48836 0.22012 0.94990 -0.08900
C 	C 	0.45283 0.16889 0.96365 0.01700
C 	C 	0.39688 0.14545 0.95945 -0.07000
C 	C 	0.37591 0.17274 0.94116 0.04200
C 	C 	0.41052 0.22241 0.92437 -0.07000
C 	C 	0.46644 0.24595 0.92839 0.01400
C 	C 	0.31960 0.15113 0.94271 -0.02500
C 	C 	0.27237 0.13257 0.94422 -0.01200
C 	C 	0.21594 0.10972 0.94677 0.02200
C 	C 	0.20316 0.13562 0.98695 -0.04000
C 	C 	0.14869 0.11073 0.99373 -0.00600
C 	C 	0.10675 0.05964 0.96051 -0.02400
C 	C 	0.11950 0.03487 0.91857 -0.01900
C 	C 	0.17389 0.05982 0.91183 -0.04900
H 	H 	0.46867 0.14781 0.97900 0.03800
H 	H 	0.37011 0.10662 0.97171 0.05100
H 	H 	0.39439 0.24340 0.90945 0.04900
H 	H 	0.49291 0.28491 0.91638 0.03300
H 	H 	0.23550 0.17437 0.01392 0.03300
H 	H 	0.13941 0.13029 0.02618 0.02800
H 	H 	0.18345 0.03977 0.88037 0.04500
C 	C 	0.94597 0.00019 0.41590 0.11300
C 	C 	0.89090 0.77791 0.37862 -0.05300
C 	C 	0.88303 0.78055 0.98228 0.03800
C 	C 	0.85121 0.78653 0.46051 -0.05200
H 	H 	0.96088 0.80009 0.02281 0.04300
H 	H 	0.86700 0.98345 0.96132 0.04000
C 	C 	0.85517 0.80096 0.96169 -0.05400
C 	C 	0.93919 0.81561 0.00647 -0.06300
H 	H 	0.08205 0.97221 0.37130 0.04200
N 	N 	0.02256 0.97706 0.97545 -0.13700
C 	C 	0.97090 0.94927 0.98694 0.11700
N 	N 	0.94730 0.97459 0.99618 -0.13900
N 	N 	0.91500 0.94621 0.41392 -0.13900
C 	C 	0.93933 0.92092 0.41499 0.11900
N 	N 	0.99448 0.94966 0.41852 -0.14000
C 	C 	0.91363 0.83101 0.37355 -0.01600
C 	C 	0.90641 0.86261 0.41286 -0.02300
C 	C 	0.87379 0.83970 0.45533 -0.01600
H 	H 	0.93835 0.84815 0.34030 0.03800
H 	H 	0.86794 0.86369 0.48592 0.04000
H 	H 	0.84706 0.96502 0.35301 0.04300
C 	C 	0.88354 0.85621 0.96443 -0.01800
C 	C 	0.94008 0.89144 0.98774 -0.01100
C 	C 	0.96765 0.87086 0.00928 -0.03000
H 	H 	0.86183 0.87148 0.94736 0.04100
H 	H 	0.01111 0.89763 0.02800 0.04100
H 	H 	0.08738 0.99581 0.89205 0.04400
