data_crystal

_cell_length_a 18.10743
_cell_length_b 19.06917
_cell_length_c 43.97826
_cell_angle_alpha 88.43323
_cell_angle_beta  88.50866
_cell_angle_gamma 107.97575

_symmetry_space_group_name_	'P 1'
_symmetry_space_group_name_H-M	'P 1'

loop_
_symmetry_equiv_pos_as_xyz
  x,y,z

loop_
_atom_site_label
_atom_site_type_symbol
_atom_site_fract_x
_atom_site_fract_y
_atom_site_fract_z
_atom_site_charge
Zn	Zn	0.06668 0.17613 0.21683 1.19700
H 	H 	0.06660 0.40744 0.22216 0.00700
C 	C 	0.02973 0.96322 0.20729 -0.18300
H 	H 	0.00321 0.54817 0.53342 0.01000
C 	C 	0.06675 0.93680 0.23067 0.05000
C 	C 	0.00196 0.62978 0.45275 -0.16200
C 	C 	0.04200 0.51467 0.30719 0.06900
C 	C 	0.04080 0.50387 0.03061 -0.08800
Cl	Cl	0.06127 0.67568 0.85643 -0.37000
C 	C 	0.03406 0.53015 0.98276 -0.11300
C 	C 	0.08277 0.49164 0.00135 0.02600
O 	O 	0.36163 0.26583 0.63255 -0.44000
O 	O 	0.40726 0.17403 0.67291 -0.39500
Zn	Zn	0.01875 0.98867 0.75480 1.21300
Zn	Zn	0.08853 0.91909 0.80638 1.19000
O 	O 	0.16657 0.01937 0.80281 -0.46100
O 	O 	0.09851 0.08178 0.77453 -0.37900
O 	O 	0.10569 0.97990 0.72923 -0.42200
O 	O 	0.13232 0.89768 0.76203 -0.41800
O 	O 	0.06066 0.80711 0.81135 -0.44800
C 	C 	0.15891 0.08130 0.79078 0.33900
C 	C 	0.15377 0.94632 0.73930 0.35500
Zn	Zn	0.20296 0.65997 0.39139 1.22500
Zn	Zn	0.37052 0.66506 0.35909 1.20000
C 	C 	0.19045 0.86821 0.32636 0.26800
Zn	Zn	0.29750 0.78869 0.34689 1.22200
Zn	Zn	0.10575 0.75391 0.37148 1.19500
H 	H 	0.24513 0.65615 0.33109 0.18700
C 	C 	0.40069 0.80797 0.39757 0.32400
O 	O 	0.03428 0.68812 0.40335 -0.45500
O 	O 	0.12779 0.65644 0.42970 -0.40200
O 	O 	0.26968 0.68041 0.34951 -0.78600
O 	O 	0.33681 0.57856 0.38892 -0.45200
O 	O 	0.11996 0.57959 0.37427 -0.43600
O 	O 	0.26727 0.62931 0.42076 -0.43600
O 	O 	0.08636 0.65938 0.34214 -0.41800
O 	O 	0.45799 0.74148 0.33755 -0.43700
H 	H 	0.22823 0.79211 0.40123 0.17300
O 	O 	0.38470 0.79977 0.31153 -0.40100
O 	O 	0.21308 0.76293 0.38285 -0.79500
O 	O 	0.12619 0.81337 0.33247 -0.43700
O 	O 	0.37897 0.84117 0.37440 -0.44300
O 	O 	0.25679 0.85462 0.32082 -0.41200
O 	O 	0.39041 0.73651 0.39800 -0.40800
C 	C 	0.05686 0.66063 0.42804 0.35400
C 	C 	0.30454 0.58138 0.41582 0.34600
C 	C 	0.07715 0.59171 0.35238 0.35900
C 	C 	0.45220 0.78953 0.31642 0.34700
Zn	Zn	0.33903 0.85359 0.15798 1.22200
Zn	Zn	0.16745 0.71180 0.15094 1.19300
C 	C 	0.46274 0.70794 0.09273 0.34000
Zn	Zn	0.32003 0.70616 0.12456 1.22500
Zn	Zn	0.49005 0.81927 0.14015 1.20600
H 	H 	0.25362 0.79758 0.11013 0.17400
C 	C 	0.25374 0.60497 0.17454 0.29100
O 	O 	0.42553 0.92003 0.18670 -0.38800
O 	O 	0.26354 0.77717 0.13000 -0.79100
O 	O 	0.15799 0.77042 0.18648 -0.44200
O 	O 	0.37674 0.92671 0.12317 -0.43100
O 	O 	0.26219 0.87520 0.18623 -0.41000
O 	O 	0.44591 0.85945 0.10000 -0.41100
O 	O 	0.13290 0.61992 0.12728 -0.46800
H 	H 	0.38430 0.74873 0.17938 0.19800
O 	O 	0.23777 0.64705 0.09375 -0.40100
O 	O 	0.38493 0.77159 0.15885 -0.78200
O 	O 	0.29876 0.61520 0.14995 -0.43000
O 	O 	0.39424 0.71678 0.09043 -0.43700
O 	O 	0.22340 0.65622 0.18262 -0.41100
C 	C 	0.18639 0.84271 0.18593 0.27100
C 	C 	0.41547 0.91372 0.09928 0.32100
C 	C 	0.16469 0.61126 0.10090 0.33400
C 	C 	0.11833 0.12000 0.28013 0.33800
O 	O 	0.15889 0.26163 0.22407 -0.44200
O 	O 	0.11296 0.31552 0.26300 -0.40200
O 	O 	0.10187 0.17337 0.29453 -0.41600
O 	O 	0.10449 0.11013 0.25101 -0.42000
C 	C 	0.15296 0.32100 0.23716 0.34200
C 	C 	0.18032 0.39295 0.22065 -0.15300
C 	C 	0.25867 0.42420 0.21078 0.20800
C 	C 	0.28289 0.49388 0.19578 -0.08600
C 	C 	0.22958 0.53289 0.19102 -0.02900
C 	C 	0.15186 0.50151 0.20094 -0.04100
C 	C 	0.12730 0.43179 0.21535 0.02800
H 	H 	0.34309 0.51789 0.18816 0.08600
Cl	Cl	0.32742 0.37810 0.21791 -0.32000
H 	H 	0.10998 0.53055 0.19690 0.03900
C 	C 	0.04107 0.94571 0.17694 0.19200
C 	C 	0.09362 0.90740 0.17008 -0.09500
C 	C 	0.13399 0.88526 0.19331 -0.03200
C 	C 	0.11909 0.89847 0.22366 -0.03900
H 	H 	0.10270 0.89445 0.14670 0.04900
H 	H 	0.14811 0.87917 0.24181 0.05800
C 	C 	0.02468 0.52867 0.33723 -0.19200
H 	H 	0.08709 0.55533 0.29379 0.01900
C 	C 	0.15191 0.06911 0.29664 -0.13700
C 	C 	0.11727 0.03316 0.32434 0.20700
C 	C 	0.13277 0.96913 0.33456 -0.09600
C 	C 	0.18375 0.94124 0.31781 -0.03200
C 	C 	0.22422 0.98115 0.29205 -0.04300
C 	C 	0.20861 0.04489 0.28160 0.03700
H 	H 	0.10391 0.94020 0.35525 0.05100
H 	H 	0.23709 0.07288 0.26070 0.04100
H 	H 	0.26489 0.96095 0.27923 0.06200
C 	C 	0.46014 0.91620 0.47677 -0.00100
C 	C 	0.44247 0.87921 0.44793 0.04800
C 	C 	0.48013 0.02078 0.49845 -0.01900
H 	H 	0.48603 0.08021 0.49510 0.03300
H 	H 	0.36432 0.89192 0.53904 0.04100
C 	C 	0.40731 0.95587 0.49168 -0.03500
H 	H 	0.35298 0.96118 0.48217 0.03500
C 	C 	0.42486 0.84762 0.42461 -0.11000
C 	C 	0.37283 0.43366 0.54790 -0.01000
C 	C 	0.39631 0.53300 0.51936 -0.02500
H 	H 	0.42409 0.59372 0.51773 0.04400
C 	C 	0.33043 0.49097 0.54243 -0.02400
H 	H 	0.30423 0.51651 0.56043 0.04400
C 	C 	0.35211 0.48559 0.49394 -0.00300
C 	C 	0.33803 0.51597 0.46459 0.05600
C 	C 	0.28611 0.44409 0.51660 -0.02800
H 	H 	0.22307 0.43144 0.51271 0.04000
C 	C 	0.32866 0.38628 0.52248 -0.02900
C 	C 	0.32392 0.54385 0.44151 -0.10900
C 	C 	0.23381 0.96747 0.72645 -0.13800
C 	C 	0.24719 0.96795 0.69480 0.21500
C 	C 	0.31779 0.01246 0.68158 -0.07900
C 	C 	0.37489 0.05715 0.69975 -0.01500
C 	C 	0.36565 0.04874 0.73150 -0.02900
C 	C 	0.29563 0.00308 0.74484 0.04800
H 	H 	0.32594 0.01636 0.65703 0.08400
H 	H 	0.28707 0.00086 0.76935 0.03400
Cl	Cl	0.17471 0.91555 0.67136 -0.34400
H 	H 	0.40994 0.08197 0.74579 0.04700
C 	C 	0.08129 0.53639 0.05759 0.07200
H 	H 	0.14637 0.50199 0.99832 0.02800
H 	H 	0.05687 0.57166 0.96385 0.05900
C 	C 	0.11751 0.56827 0.07832 -0.13600
C 	C 	0.39615 0.06297 0.00007 -0.03400
H 	H 	0.33690 0.06151 0.00792 0.04000
C 	C 	0.45089 0.03082 0.01785 0.00800
C 	C 	0.43409 0.99198 0.04768 0.04200
C 	C 	0.41650 0.02800 0.97085 -0.01700
H 	H 	0.37435 0.99824 0.95409 0.03300
C 	C 	0.42348 0.95778 0.07171 -0.10200
H 	H 	0.58551 0.73139 0.98649 0.04200
C 	C 	0.45656 0.57634 0.99664 -0.02700
H 	H 	0.39392 0.56006 0.00348 0.04300
C 	C 	0.49466 0.62414 0.96802 -0.02400
H 	H 	0.46354 0.64663 0.95074 0.04200
C 	C 	0.49264 0.67750 0.06759 -0.10500
C 	C 	0.22127 0.15066 0.79456 -0.13400
C 	C 	0.27187 0.18438 0.76980 0.20300
C 	C 	0.34599 0.23210 0.77521 -0.08400
C 	C 	0.36862 0.24817 0.80513 -0.02700
C 	C 	0.31368 0.22373 0.82925 -0.03300
C 	C 	0.24049 0.17451 0.82403 0.03400
H 	H 	0.38751 0.25276 0.75635 0.06600
H 	H 	0.20092 0.15074 0.84317 0.02400
Cl	Cl	0.24450 0.16491 0.73205 -0.31800
H 	H 	0.33016 0.23729 0.85239 0.05300
C 	C 	0.43205 0.12318 0.68580 0.28600
C 	C 	0.43899 0.47514 0.52529 -0.02700
C 	C 	0.38208 0.40318 0.57788 0.05800
C 	C 	0.39456 0.42828 0.49935 -0.03000
H 	H 	0.30081 0.32557 0.52411 0.03300
C 	C 	0.38769 0.37522 0.60220 -0.14300
O 	O 	0.50894 0.73971 0.11440 -0.43800
C 	C 	0.41337 0.91758 0.52255 -0.02500
C 	C 	0.56145 0.67028 0.98734 -0.02700
C 	C 	0.51003 0.65203 0.04474 0.05500
O 	O 	0.48644 0.22046 0.81340 -0.45700
O 	O 	0.48441 0.33741 0.82169 -0.39300
C 	C 	0.45119 0.27109 0.81173 0.28700
Zn	Zn	0.42665 0.20150 0.62469 1.19600
O 	O 	0.43882 0.37234 0.65124 -0.40800
O 	O 	0.43710 0.10268 0.61805 -0.46300
O 	O 	0.50469 0.12519 0.68129 -0.41500
C 	C 	0.39250 0.33755 0.63027 0.32700
C 	C 	0.50228 0.09374 0.60781 0.32400
O 	O 	0.52509 0.92237 0.15340 -0.44100
C 	C 	0.49999 0.94291 0.17893 0.34400
H 	H 	0.52133 0.08101 0.19943 0.03600
C 	C 	0.52412 0.84238 0.30283 -0.13000
H 	H 	0.48321 0.93684 0.30747 0.03700
C 	C 	0.53288 0.98058 0.48312 -0.03500
H 	H 	0.58180 0.00617 0.46657 0.04500
C 	C 	0.46604 0.87730 0.50727 -0.02800
C 	C 	0.48602 0.98197 0.52897 -0.01400
C 	C 	0.49669 0.01971 0.55780 0.05700
C 	C 	0.50142 0.05246 0.58105 -0.11900
H 	H 	0.50199 0.48772 0.52926 0.04000
H 	H 	0.42069 0.40277 0.48132 0.03900
C 	C 	0.46521 0.13373 0.99262 -0.02500
H 	H 	0.46312 0.19119 0.99377 0.03700
C 	C 	0.48525 0.09809 0.96389 -0.00900
C 	C 	0.50514 0.13644 0.93402 0.05000
C 	C 	0.51962 0.10091 0.01086 -0.03200
C 	C 	0.47093 0.99523 0.98910 -0.03900
H 	H 	0.47309 0.93780 0.98792 0.04400
C 	C 	0.54116 0.57065 0.96189 -0.01200
C 	C 	0.52361 0.62211 0.01557 -0.00200
Cl	Cl	0.05378 0.06666 0.34641 -0.38200
O 	O 	0.51572 0.27014 0.87808 -0.44100
O 	O 	0.54261 0.44566 0.86481 -0.41900
C 	C 	0.54031 0.21264 0.88178 0.32200
H 	H 	0.53575 0.27443 0.70403 0.18000
C 	C 	0.55698 0.98262 0.20067 -0.14500
C 	C 	0.56458 0.05643 0.20693 0.04200
C 	C 	0.53291 0.91807 0.30277 0.03900
Cl	Cl	0.57831 0.72566 0.28956 -0.31800
C 	C 	0.53905 0.94236 0.51415 -0.02200
H 	H 	0.46001 0.81783 0.51058 0.04400
H 	H 	0.56183 0.13069 0.02760 0.04300
C 	C 	0.53989 0.06590 0.98170 -0.02100
C 	C 	0.52152 0.16981 0.90985 -0.11200
C 	C 	0.60826 0.61638 0.98079 -0.02800
C 	C 	0.55255 0.54382 0.93180 0.05200
C 	C 	0.57014 0.56859 0.00950 -0.03100
C 	C 	0.50330 0.52236 0.99009 -0.02800
H 	H 	0.47922 0.46125 0.99088 0.03600
C 	C 	0.56597 0.52379 0.90712 -0.14800
H 	H 	0.05712 0.94831 0.25417 0.03300
O 	O 	0.53479 0.26849 0.62888 -0.78200
Zn	Zn	0.57499 0.35886 0.85367 1.22100
O 	O 	0.58622 0.19725 0.86102 -0.41400
C 	C 	0.58895 0.50259 0.87826 0.32500
Zn	Zn	0.54057 0.35784 0.65736 1.22300
Zn	Zn	0.57705 0.20556 0.65522 1.22200
H 	H 	0.56397 0.28110 0.60910 0.17300
O 	O 	0.55482 0.44033 0.69066 -0.38100
O 	O 	0.56885 0.12931 0.61966 -0.38800
O 	O 	0.56997 0.28886 0.68549 -0.78500
C 	C 	0.61283 0.95123 0.21101 0.21300
Cl	Cl	0.59926 0.85616 0.20790 -0.37500
C 	C 	0.58921 0.81924 0.29544 0.21600
C 	C 	0.60665 0.96978 0.29912 -0.03800
H 	H 	0.59332 0.93715 0.52373 0.04300
H 	H 	0.59915 0.06731 0.97389 0.04200
H 	H 	0.67087 0.63266 0.97391 0.03300
Zn	Zn	0.59990 0.24037 0.81366 1.19700
C 	C 	0.63055 0.09984 0.22142 -0.04000
H 	H 	0.61276 0.02802 0.30002 0.05100
H 	H 	0.60122 0.54618 0.02683 0.03900
H 	H 	0.66425 0.34814 0.90091 0.17500
O 	O 	0.66158 0.52965 0.86901 -0.45600
O 	O 	0.65263 0.34321 0.82401 -0.78400
O 	O 	0.62626 0.42451 0.63149 -0.42000
C 	C 	0.62351 0.47633 0.70049 0.34000
C 	C 	0.68056 0.99564 0.22342 -0.09100
H 	H 	0.63707 0.15720 0.22542 0.05500
C 	C 	0.66336 0.87139 0.29199 -0.07800
C 	C 	0.67261 0.94655 0.29520 -0.02200
Cl	Cl	0.59861 0.60700 0.66394 -0.32000
H 	H 	0.63948 0.04906 0.83378 0.03000
O 	O 	0.67345 0.37336 0.88054 -0.78400
H 	H 	0.66512 0.37855 0.80630 0.17900
C 	C 	0.68993 0.07008 0.22885 -0.02800
C 	C 	0.63494 0.54484 0.71666 -0.14100
C 	C 	0.63601 0.61009 0.70063 0.21200
O 	O 	0.69058 0.20439 0.80785 -0.44500
Zn	Zn	0.67810 0.35026 0.69285 1.19600
O 	O 	0.68850 0.21068 0.65568 -0.43300
H 	H 	0.71355 0.85326 0.28741 0.09800
C 	C 	0.66171 0.54869 0.74639 0.03600
H 	H 	0.65966 0.49865 0.75916 0.00600
Zn	Zn	0.02454 0.21981 0.28070 1.21700
O 	O 	0.68386 0.45485 0.69376 -0.46400
H 	H 	0.72660 0.97243 0.22841 0.09200
H 	H 	0.67465 0.94334 0.81404 0.05600
C 	C 	0.67152 0.67860 0.71310 -0.09000
C 	C 	0.69161 0.40985 0.62592 0.31500
H 	H 	0.67587 0.72870 0.69995 0.07800
C 	C 	0.69983 0.05517 0.82818 0.04800
Zn	Zn	0.73647 0.47927 0.88141 1.19600
C 	C 	0.73096 0.19075 0.83029 0.36300
O 	O 	0.71452 0.36619 0.64466 -0.40800
O 	O 	0.73375 0.27640 0.69781 -0.44900
Cl	Cl	0.70326 0.14494 0.74436 -0.36400
C 	C 	0.69731 0.61706 0.75874 -0.04100
Zn	Zn	0.74270 0.33750 0.85403 1.22200
O 	O 	0.74402 0.23256 0.85422 -0.40900
C 	C 	0.72938 0.22037 0.68043 0.36100
C 	C 	0.75065 0.00148 0.29506 0.28500
C 	C 	0.70655 0.68235 0.74141 -0.02800
C 	C 	0.71969 0.99520 0.81694 -0.04200
O 	O 	0.76229 0.05748 0.31345 -0.44400
H 	H 	0.72137 0.61912 0.78112 0.06300
C 	C 	0.76545 0.11721 0.23914 0.29100
H 	H 	0.72980 0.52452 0.51699 0.04400
C 	C 	0.73843 0.44219 0.59922 -0.09600
O 	O 	0.76892 0.15782 0.26320 -0.39000
C 	C 	0.75634 0.12461 0.82945 -0.13400
O 	O 	0.76664 0.49331 0.83317 -0.41100
O 	O 	0.76009 0.81523 0.73808 -0.44800
C 	C 	0.76177 0.75245 0.75068 0.28800
C 	C 	0.77675 0.17229 0.68762 -0.14800
O 	O 	0.80697 0.99491 0.27626 -0.37100
C 	C 	0.77706 0.47018 0.57675 0.04700
C 	C 	0.77828 0.14674 0.71782 0.22000
O 	O 	0.82431 0.35191 0.88940 -0.37100
O 	O 	0.82842 0.10693 0.22796 -0.43500
C 	C 	0.79180 0.53007 0.52055 -0.03600
C 	C 	0.79637 0.00391 0.80729 -0.02000
O 	O 	0.82635 0.40643 0.82771 -0.40300
Zn	Zn	0.83546 0.15683 0.30523 1.19800
C 	C 	0.82431 0.47350 0.82190 0.28200
C 	C 	0.81362 0.94869 0.78810 0.28000
H 	H 	0.82827 0.17988 0.64223 0.04100
O 	O 	0.84260 0.47622 0.88937 -0.45500
O 	O 	0.81592 0.75121 0.76985 -0.39600
C 	C 	0.82874 0.16046 0.66559 0.04400
H 	H 	0.02448 0.43340 0.27299 0.05200
O 	O 	0.82198 0.88853 0.80075 -0.42700
C 	C 	0.82396 0.50495 0.54948 0.00800
C 	C 	0.83470 0.13135 0.82264 0.21200
H 	H 	0.82300 0.46084 0.48090 0.04900
C 	C 	0.85601 0.41706 0.90089 0.31200
O 	O 	0.82946 0.96438 0.75884 -0.40500
C 	C 	0.83623 0.11694 0.72638 -0.08800
H 	H 	0.83929 0.10106 0.74996 0.10200
C 	C 	0.84247 0.49475 0.50102 -0.00900
O 	O 	0.01065 0.08107 0.19821 -0.48300
C 	C 	0.85447 0.07085 0.81176 -0.09000
H 	H 	0.84639 0.54883 0.76736 0.04600
H 	H 	0.03003 0.36387 0.99221 0.05300
C 	C 	0.01939 0.41612 0.99832 -0.11100
H 	H 	0.86580 0.45725 0.01241 0.04900
H 	H 	0.85377 0.65939 0.51544 0.04200
O 	O 	0.87065 0.26887 0.30074 -0.43100
Zn	Zn	0.85520 0.89460 0.72383 1.19800
C 	C 	0.85935 0.60372 0.51996 -0.01000
C 	C 	0.87382 0.46912 0.53037 -0.04300
C 	C 	0.88205 0.12400 0.67380 -0.03800
H 	H 	0.87947 0.41347 0.53489 0.05200
H 	H 	0.88560 0.36506 0.35574 0.08500
C 	C 	0.88599 0.10210 0.70431 -0.02100
C 	C 	0.00621 0.44561 0.29532 -0.09800
C 	C 	0.89844 0.42311 0.92817 -0.09000
C 	C 	0.89070 0.57803 0.54930 -0.04300
C 	C 	0.88978 0.57225 0.78386 -0.04000
C 	C 	0.89432 0.53121 0.81027 -0.01200
Zn	Zn	0.90124 0.08479 0.25484 1.22900
Zn	Zn	0.90136 0.84667 0.78515 1.22500
Cl	Cl	0.90769 0.21675 0.82519 -0.30800
O 	O 	0.90917 0.98631 0.69935 -0.44700
C 	C 	0.90920 0.56785 0.50087 -0.03500
H 	H 	0.91026 0.61199 0.56941 0.05500
H 	H 	0.91419 0.07741 0.80483 0.07300
H 	H 	0.91973 0.11226 0.65646 0.06100
H 	H 	0.92517 0.67956 0.76148 0.01900
O 	O 	0.92853 0.12958 0.29298 -0.79900
C 	C 	0.92831 0.40712 0.34196 -0.11200
C 	C 	0.92937 0.46744 0.00940 -0.08100
C 	C 	0.92903 0.05055 0.71210 0.30800
O 	O 	0.92859 0.78023 0.81388 -0.45400
C 	C 	0.93215 0.43418 0.95162 0.03100
C 	C 	0.93379 0.64673 0.78076 0.04800
Cl	Cl	0.93515 0.49499 0.39062 -0.31700
O 	O 	0.99200 0.94001 0.79481 -0.78000
Cl	Cl	0.98752 0.96874 0.14752 -0.29800
C 	C 	0.99044 0.75962 0.80918 0.37800
H 	H 	0.98187 0.59495 0.01828 0.02700
C 	C 	0.99265 0.54266 0.01231 0.05700
H 	H 	0.97745 0.97259 0.80938 0.17900
O 	O 	0.96846 0.05967 0.73735 -0.39100
C 	C 	0.96430 0.47610 0.35404 0.26000
H 	H 	0.97048 0.84727 0.73429 0.19700
C 	C 	0.95871 0.60238 0.47417 0.13200
O 	O 	0.94603 0.88115 0.74407 -0.78300
C 	C 	0.94098 0.31265 0.30644 0.26500
H 	H 	0.95797 0.22598 0.23232 0.18100
O 	O 	0.98083 0.18956 0.24130 -0.77600
O 	O 	0.94745 0.01028 0.23953 -0.43100
H 	H 	0.93873 0.09383 0.30770 0.21400
O 	O 	0.99946 0.28619 0.30947 -0.40900
C 	C 	0.99021 0.01815 0.21411 0.42700
C 	C 	0.95283 0.39007 0.31339 0.03100
C 	C 	0.94123 0.54268 0.52981 0.02700
C 	C 	0.97811 0.42885 0.02815 0.05600
H 	H 	0.95549 0.38761 0.04716 0.03000
C 	C 	0.97133 0.45525 0.98013 0.07900
C 	C 	0.98015 0.68103 0.80457 -0.15400
C 	C 	0.99567 0.63659 0.82811 0.24800
C 	C 	0.95404 0.56112 0.83036 -0.10000
H 	H 	0.96244 0.52788 0.84953 0.10700
