data_crystal

_cell_length_a 26.07576
_cell_length_b 26.65754
_cell_length_c 34.58519
_cell_angle_alpha 95.48704
_cell_angle_beta  95.48419
_cell_angle_gamma 125.83245

_symmetry_space_group_name_	'P 1'
_symmetry_space_group_name_H-M	'P 1'

loop_
_symmetry_equiv_pos_as_xyz
  x,y,z

loop_
_atom_site_label
_atom_site_type_symbol
_atom_site_fract_x
_atom_site_fract_y
_atom_site_fract_z
_atom_site_charge
C 	C 	0.94727 0.02547 0.98947 0.07400
C 	C 	0.01222 0.05882 0.98592 -0.08300
C 	C 	0.04218 0.02904 0.98685 0.07500
C 	C 	0.00644 0.96524 0.98971 -0.07600
C 	C 	0.94204 0.93230 0.99404 0.07900
C 	C 	0.91303 0.96287 0.99499 -0.07400
H 	H 	0.03932 0.10768 0.98258 0.07900
H 	H 	0.02894 0.94156 0.98909 0.08200
H 	H 	0.86342 0.93753 0.99892 0.08100
C 	C 	0.94495 0.99412 0.46074 0.08800
C 	C 	0.91169 0.93057 0.46422 -0.08200
C 	C 	0.94409 0.90311 0.46548 0.08000
C 	C 	0.00914 0.93882 0.46201 -0.07600
C 	C 	0.04276 0.00259 0.45965 0.07900
C 	C 	0.01051 0.03001 0.45855 -0.08600
H 	H 	0.86121 0.90295 0.46642 0.08200
H 	H 	0.03402 0.91748 0.46230 0.08200
H 	H 	0.03654 0.07937 0.45660 0.08100
Cu	Cu	0.62240 0.24067 0.99796 0.93200
Cu	Cu	0.67602 0.25675 0.91517 0.87700
Cu	Cu	0.66388 0.35013 0.95530 0.90000
Cu	Cu	0.63486 0.36042 0.03608 0.90200
C 	C 	0.64672 0.27848 0.08187 0.29700
O 	O 	0.53091 0.21060 0.99924 -0.33900
C 	C 	0.64284 0.31916 0.86765 0.30000
O 	O 	0.68068 0.33986 0.00811 -0.63400
O 	O 	0.61613 0.25696 0.94386 -0.64000
O 	O 	0.65751 0.19225 0.98859 -0.34900
O 	O 	0.73347 0.26642 0.95844 -0.43100
O 	O 	0.61855 0.30586 0.07605 -0.37100
O 	O 	0.71531 0.44064 0.96926 -0.37500
C 	C 	0.70785 0.47252 0.99683 0.31200
C 	C 	0.51071 0.24292 0.98763 0.29900
O 	O 	0.55267 0.30341 0.98787 -0.38500
O 	O 	0.68333 0.44939 0.02806 -0.36500
O 	O 	0.64298 0.24032 0.05255 -0.33800
C 	C 	0.71389 0.22026 0.97797 0.31000
O 	O 	0.66021 0.36112 0.89967 -0.37400
O 	O 	0.63849 0.26771 0.86981 -0.41000
H 	H 	0.72690 0.36353 0.01971 0.17500
H 	H 	0.57204 0.23378 0.92827 0.19000
Cu	Cu	0.74963 0.33553 0.45301 0.93100
Cu	Cu	0.75378 0.29674 0.54020 0.88300
Cu	Cu	0.64682 0.29983 0.50367 0.90300
Cu	Cu	0.62793 0.33002 0.42387 0.90100
C 	C 	0.69791 0.30799 0.37021 0.29700
O 	O 	0.78542 0.42642 0.45120 -0.35100
C 	C 	0.69316 0.32878 0.59035 0.30100
O 	O 	0.64930 0.28328 0.44900 -0.63800
O 	O 	0.74230 0.34685 0.50908 -0.63700
O 	O 	0.79817 0.29908 0.45773 -0.34400
O 	O 	0.73703 0.23453 0.49855 -0.42600
O 	O 	0.67271 0.33770 0.37861 -0.37300
O 	O 	0.55376 0.25049 0.49438 -0.35700
C 	C 	0.51811 0.25170 0.46513 0.31100
C 	C 	0.75741 0.45078 0.46467 0.30100
O 	O 	0.69691 0.41346 0.46847 -0.36700
O 	O 	0.54429 0.29385 0.44193 -0.37800
O 	O 	0.73983 0.31133 0.39719 -0.35100
C 	C 	0.77735 0.24944 0.47416 0.30800
O 	O 	0.64344 0.30049 0.56067 -0.37500
O 	O 	0.74770 0.33890 0.58518 -0.40400
H 	H 	0.62269 0.23795 0.43705 0.17600
H 	H 	0.76682 0.39127 0.52258 0.18700
C 	C 	0.68308 0.33639 0.63119 -0.10600
C 	C 	0.65276 0.36434 0.64194 0.14000
C 	C 	0.63899 0.36524 0.68022 -0.09600
C 	C 	0.65835 0.34224 0.70846 0.00600
C 	C 	0.69030 0.31598 0.69804 0.06500
C 	C 	0.70206 0.31313 0.65948 -0.01800
N 	N 	0.63895 0.39233 0.61633 -0.20200
H 	H 	0.61493 0.38569 0.68843 0.07000
C 	C 	0.64549 0.34628 0.74900 0.00400
N 	N 	0.70943 0.29307 0.72480 -0.19100
H 	H 	0.72524 0.29175 0.65125 0.04300
C 	C 	0.58916 0.29452 0.75827 -0.09400
C 	C 	0.58387 0.28837 0.79785 0.13600
C 	C 	0.63650 0.33412 0.82834 -0.10600
C 	C 	0.68879 0.38990 0.81923 -0.02200
C 	C 	0.69366 0.39659 0.77968 0.06900
H 	H 	0.55078 0.25748 0.73465 0.06800
N 	N 	0.52831 0.23879 0.80642 -0.20200
H 	H 	0.72771 0.42648 0.84279 0.05500
N 	N 	0.74535 0.45048 0.77135 -0.19200
H 	H 	0.49049 0.20384 0.78373 0.10300
H 	H 	0.52112 0.23598 0.83557 0.10600
H 	H 	0.78185 0.48654 0.79416 0.10100
H 	H 	0.74889 0.45787 0.74231 0.10100
H 	H 	0.73314 0.27398 0.71678 0.09300
H 	H 	0.70099 0.29376 0.75367 0.09400
H 	H 	0.65506 0.39897 0.58949 0.11400
H 	H 	0.61439 0.41064 0.62401 0.10700
C 	C 	0.66753 0.27763 0.12287 -0.09300
C 	C 	0.70641 0.33388 0.15156 0.12900
C 	C 	0.71399 0.33041 0.19170 -0.08900
C 	C 	0.68740 0.27218 0.20338 0.00400
C 	C 	0.65485 0.21663 0.17431 0.07300
C 	C 	0.64379 0.21968 0.13433 -0.01600
N 	N 	0.73763 0.39122 0.14070 -0.20000
H 	H 	0.74057 0.37314 0.21395 0.06800
C 	C 	0.68860 0.26939 0.24605 0.00400
N 	N 	0.63459 0.16057 0.18453 -0.19200
H 	H 	0.61553 0.17669 0.11225 0.07200
C 	C 	0.63169 0.24502 0.26084 -0.09100
C 	C 	0.63293 0.25100 0.30174 0.13100
C 	C 	0.69280 0.28597 0.32821 -0.09800
C 	C 	0.74906 0.30628 0.31346 -0.01800
C 	C 	0.74722 0.29696 0.27253 0.07100
H 	H 	0.58640 0.22185 0.24048 0.06800
N 	N 	0.57663 0.22219 0.31540 -0.20100
H 	H 	0.79467 0.33101 0.33376 0.06400
N 	N 	0.80162 0.31435 0.25887 -0.19200
H 	H 	0.53281 0.19883 0.29576 0.10000
H 	H 	0.57551 0.21980 0.34531 0.08400
H 	H 	0.84523 0.33668 0.27855 0.10400
H 	H 	0.80066 0.30374 0.22884 0.10400
H 	H 	0.60882 0.11943 0.16303 0.10600
H 	H 	0.64627 0.15763 0.21354 0.10200
H 	H 	0.73904 0.39558 0.11107 0.08100
H 	H 	0.76386 0.43244 0.16214 0.09900
C 	C 	0.79118 0.51966 0.47066 -0.09700
C 	C 	0.77886 0.55017 0.49986 0.15000
C 	C 	0.80079 0.61226 0.49978 -0.08700
C 	C 	0.83836 0.64574 0.47244 0.02900
C 	C 	0.85649 0.61753 0.44610 0.08600
C 	C 	0.83172 0.55436 0.44471 -0.01100
H 	H 	0.78942 0.63484 0.52141 0.08800
C 	C 	0.86030 0.71104 0.47248 0.01000
H 	H 	0.84310 0.53199 0.42296 0.07400
C 	C 	0.90724 0.75930 0.50385 -0.06400
C 	C 	0.93105 0.82180 0.50340 0.11000
C 	C 	0.91008 0.83683 0.47037 -0.02100
C 	C 	0.86049 0.78818 0.44008 -0.05200
C 	C 	0.83451 0.72532 0.44146 0.10600
H 	H 	0.92527 0.74823 0.52860 0.08200
H 	H 	0.84286 0.79926 0.41514 0.07700
Br	Br	0.91607 0.66482 0.41247 -0.19400
Br	Br	0.73805 0.51044 0.54235 -0.24500
Br	Br	0.98998 0.88555 0.54882 -0.18300
Br	Br	0.76325 0.65968 0.40119 -0.19600
C 	C 	0.91151 0.02359 0.45982 -0.02900
C 	C 	0.90154 0.04502 0.49511 0.11200
C 	C 	0.87622 0.07902 0.49422 -0.06400
C 	C 	0.86153 0.09270 0.45846 0.01100
C 	C 	0.87074 0.07061 0.42311 0.10300
C 	C 	0.89512 0.03577 0.42390 -0.05100
H 	H 	0.86919 0.09596 0.52148 0.08100
C 	C 	0.83974 0.13294 0.45868 0.02900
H 	H 	0.90294 0.01955 0.39671 0.07500
C 	C 	0.88542 0.19862 0.46835 -0.08500
C 	C 	0.86577 0.23746 0.47221 0.14600
C 	C 	0.79951 0.21048 0.46556 -0.10100
C 	C 	0.75391 0.14481 0.45465 -0.00900
C 	C 	0.77367 0.10601 0.45151 0.08300
H 	H 	0.93632 0.21944 0.47395 0.08900
H 	H 	0.70296 0.12377 0.44950 0.06600
Br	Br	0.85187 0.08896 0.37368 -0.19300
Br	Br	0.92491 0.03077 0.54500 -0.19100
Br	Br	0.93015 0.32664 0.48954 -0.22600
Br	Br	0.70970 0.01628 0.43842 -0.19300
C 	C 	0.11255 0.04136 0.46020 -0.02300
C 	C 	0.15674 0.07152 0.49632 0.11100
C 	C 	0.22274 0.10542 0.49644 -0.06200
C 	C 	0.24524 0.11023 0.46074 0.01100
C 	C 	0.20111 0.08073 0.42458 0.10300
C 	C 	0.13503 0.04637 0.42448 -0.05200
H 	H 	0.25663 0.12836 0.52429 0.08400
C 	C 	0.31507 0.14658 0.46149 0.03000
H 	H 	0.10112 0.02329 0.39664 0.07600
C 	C 	0.34351 0.11535 0.46013 -0.08300
C 	C 	0.40974 0.14913 0.46096 0.14900
C 	C 	0.44829 0.21505 0.46392 -0.09500
C 	C 	0.41971 0.24619 0.46530 -0.00800
C 	C 	0.35343 0.21230 0.46400 0.08300
H 	H 	0.31398 0.06469 0.45797 0.08900
H 	H 	0.44911 0.29687 0.46754 0.07100
Br	Br	0.23028 0.08733 0.37512 -0.19500
Br	Br	0.12777 0.06726 0.54573 -0.18100
Br	Br	0.44591 0.10397 0.45589 -0.23000
Br	Br	0.31597 0.25647 0.46529 -0.19100
C 	C 	0.90401 0.86487 0.99556 -0.02600
C 	C 	0.90334 0.84474 0.03179 0.11600
C 	C 	0.86891 0.78042 0.03242 -0.05800
C 	C 	0.83550 0.73599 0.99710 0.00800
C 	C 	0.83504 0.75610 0.96097 0.10400
C 	C 	0.86920 0.82036 0.96038 -0.05100
H 	H 	0.86899 0.76498 0.06029 0.08500
C 	C 	0.80333 0.66883 0.99798 0.02200
H 	H 	0.86930 0.83581 0.93249 0.08200
C 	C 	0.73788 0.62997 0.00031 -0.06900
C 	C 	0.70599 0.56557 0.99963 0.14100
C 	C 	0.74012 0.53987 0.99723 -0.09200
C 	C 	0.80575 0.57895 0.99523 -0.01000
C 	C 	0.83742 0.64317 0.99558 0.08500
H 	H 	0.71151 0.64963 0.00195 0.08900
H 	H 	0.83223 0.55941 0.99354 0.06500
Br	Br	0.78908 0.69648 0.91211 -0.19600
Br	Br	0.94959 0.90445 0.08059 -0.18600
Br	Br	0.61520 0.51303 0.99984 -0.21600
Br	Br	0.92711 0.69505 0.99233 -0.20000
C 	C 	0.74992 0.19339 0.98147 -0.11000
C 	C 	0.74934 0.16371 0.01340 0.15700
C 	C 	0.78130 0.13601 0.01439 -0.08100
C 	C 	0.81805 0.14176 0.98568 0.02700
C 	C 	0.82168 0.17444 0.95519 0.07800
C 	C 	0.78651 0.19858 0.95265 -0.00900
H 	H 	0.77915 0.11159 0.03822 0.09100
C 	C 	0.85119 0.11201 0.98710 0.00500
H 	H 	0.78799 0.22184 0.92828 0.04900
C 	C 	0.82847 0.05896 0.95854 -0.06000
C 	C 	0.86144 0.03243 0.95781 0.10800
C 	C 	0.91515 0.05622 0.98768 -0.02600
C 	C 	0.93739 0.10879 0.01658 -0.04700
C 	C 	0.90647 0.13747 0.01597 0.10500
H 	H 	0.78637 0.03968 0.93603 0.08300
H 	H 	0.97899 0.12760 0.03940 0.08100
Br	Br	0.87623 0.18851 0.91745 -0.20400
Br	Br	0.71172 0.16614 0.05800 -0.21000
Br	Br	0.83525 0.96692 0.91421 -0.20500
Br	Br	0.94183 0.21266 0.05387 -0.19300
C 	C 	0.11120 0.06474 0.98519 -0.02700
C 	C 	0.15619 0.07937 0.01863 0.11400
C 	C 	0.22063 0.10884 0.01572 -0.05600
C 	C 	0.24128 0.12598 0.98006 0.00400
C 	C 	0.19673 0.11311 0.94694 0.10300
C 	C 	0.13188 0.08217 0.94957 -0.05200
H 	H 	0.25498 0.11933 0.04137 0.08500
C 	C 	0.30979 0.15807 0.97791 0.03200
H 	H 	0.09749 0.07142 0.92386 0.07800
C 	C 	0.32930 0.12362 0.96042 -0.08400
C 	C 	0.39472 0.15188 0.96134 0.15000
C 	C 	0.44144 0.21452 0.98150 -0.09500
C 	C 	0.42159 0.24959 0.99755 -0.01400
C 	C 	0.35617 0.22187 0.99551 0.07900
H 	H 	0.29355 0.07488 0.94602 0.09000
H 	H 	0.45711 0.29814 0.01239 0.07100
Br	Br	0.22378 0.13848 0.89818 -0.19500
Br	Br	0.13099 0.06160 0.06890 -0.18800
Br	Br	0.41871 0.10574 0.93240 -0.23300
Br	Br	0.33098 0.27196 0.01680 -0.18200
