data_crystal

_cell_length_a 18.66432
_cell_length_b 18.84501
_cell_length_c 33.58635
_cell_angle_alpha 95.41874
_cell_angle_beta  95.42006
_cell_angle_gamma 126.41911

_symmetry_space_group_name_	'P 1'
_symmetry_space_group_name_H-M	'P 1'

loop_
_symmetry_equiv_pos_as_xyz
  x,y,z

loop_
_atom_site_label
_atom_site_type_symbol
_atom_site_fract_x
_atom_site_fract_y
_atom_site_fract_z
_atom_site_charge
C 	C 	0.91848 0.00655 0.97297 0.06600
C 	C 	0.01247 0.06080 0.97502 -0.06400
C 	C 	0.05699 0.02196 0.97162 0.06400
C 	C 	0.00844 0.92919 0.96913 -0.06900
C 	C 	0.91493 0.87459 0.96862 0.06500
C 	C 	0.86949 0.91316 0.97011 -0.06800
H 	H 	0.05056 0.13297 0.97819 0.07800
H 	H 	0.04318 0.89931 0.96717 0.07300
H 	H 	0.79693 0.87104 0.96909 0.07400
C 	C 	0.93757 0.03274 0.50003 0.06800
C 	C 	0.03120 0.08522 0.50024 -0.06900
C 	C 	0.07484 0.04493 0.50015 0.06800
C 	C 	0.02498 0.95279 0.49961 -0.07500
C 	C 	0.93200 0.90066 0.49944 0.06900
C 	C 	0.88852 0.94075 0.50034 -0.07100
H 	H 	0.06941 0.15636 0.49988 0.07700
H 	H 	0.05855 0.92155 0.49908 0.07300
H 	H 	0.81620 0.90003 0.50002 0.07700
Cu	Cu	0.75907 0.34329 0.95712 0.93100
Cu	Cu	0.73795 0.27101 0.04336 0.87400
Cu	Cu	0.62093 0.31656 0.00772 0.90200
Cu	Cu	0.58729 0.32981 0.92045 0.90400
C 	C 	0.70046 0.31198 0.87079 0.26400
O 	O 	0.80543 0.47218 0.95445 -0.34700
C 	C 	0.66401 0.32930 0.09597 0.25700
O 	O 	0.61831 0.27178 0.95239 -0.63000
O 	O 	0.74887 0.36027 0.01454 -0.64300
O 	O 	0.82051 0.28557 0.96415 -0.34600
O 	O 	0.71507 0.18705 0.99851 -0.42300
O 	O 	0.66460 0.35294 0.87909 -0.37200
O 	O 	0.49898 0.28369 0.99944 -0.34800
C 	C 	0.43811 0.23799 0.96551 0.31000
C 	C 	0.76169 0.50385 0.96574 0.29600
O 	O 	0.67515 0.44817 0.96762 -0.37900
O 	O 	0.46153 0.25479 0.92978 -0.38200
O 	O 	0.74842 0.30667 0.90003 -0.33200
C 	C 	0.77886 0.20916 0.97746 0.30800
O 	O 	0.62401 0.34297 0.06632 -0.33900
O 	O 	0.73330 0.32911 0.09164 -0.39600
H 	H 	0.57909 0.20549 0.94472 0.17400
H 	H 	0.79268 0.42274 0.02979 0.18800
Cu	Cu	0.60601 0.19971 0.50676 0.93000
Cu	Cu	0.65175 0.19056 0.41513 0.88800
Cu	Cu	0.65547 0.34114 0.45382 0.90000
Cu	Cu	0.62711 0.37450 0.53812 0.90600
C 	C 	0.65391 0.27252 0.59276 0.26300
O 	O 	0.47845 0.15468 0.51243 -0.34400
C 	C 	0.60930 0.27650 0.36400 0.26100
O 	O 	0.68654 0.33944 0.50964 -0.63800
O 	O 	0.58369 0.20799 0.44904 -0.63700
O 	O 	0.65473 0.13018 0.49950 -0.35900
O 	O 	0.74404 0.21595 0.45659 -0.41900
O 	O 	0.61895 0.31482 0.58532 -0.35100
O 	O 	0.73187 0.47069 0.46244 -0.37400
C 	C 	0.73551 0.52252 0.49322 0.31400
C 	C 	0.44692 0.19783 0.50130 0.30500
O 	O 	0.50262 0.27960 0.49469 -0.38300
O 	O 	0.67731 0.48860 0.51820 -0.37000
O 	O 	0.64645 0.21459 0.56382 -0.34200
C 	C 	0.72461 0.15985 0.48146 0.31200
O 	O 	0.64319 0.34390 0.39478 -0.36700
O 	O 	0.58936 0.19912 0.37002 -0.39500
H 	H 	0.75244 0.37494 0.52011 0.17700
H 	H 	0.51915 0.17468 0.43641 0.18100
C 	C 	0.70215 0.33163 0.69795 0.08900
C 	C 	0.75429 0.38251 0.73660 -0.07700
C 	C 	0.71753 0.34506 0.77023 0.02000
C 	C 	0.64185 0.25688 0.76575 0.08500
C 	C 	0.59816 0.20150 0.72710 -0.07500
C 	C 	0.62565 0.24366 0.69339 0.02300
N 	N 	0.73434 0.34696 0.66314 -0.15300
C 	C 	0.67617 0.26978 0.63537 0.02100
C 	C 	0.61054 0.20242 0.65409 -0.03600
N 	N 	0.63841 0.22687 0.80077 -0.15200
C 	C 	0.70997 0.29740 0.82857 0.02300
C 	C 	0.76376 0.37057 0.80961 -0.03800
H 	H 	0.82082 0.44630 0.74024 0.06900
H 	H 	0.54752 0.12953 0.72352 0.06900
H 	H 	0.54599 0.14161 0.63819 0.07200
H 	H 	0.81260 0.43964 0.82530 0.06300
H 	H 	0.77757 0.41072 0.65598 0.09600
H 	H 	0.57937 0.17158 0.80796 0.09300
C 	C 	0.68911 0.34735 0.20073 0.08300
C 	C 	0.72125 0.39019 0.24178 -0.07700
C 	C 	0.67942 0.33625 0.27065 0.01500
C 	C 	0.60077 0.24904 0.25904 0.08300
C 	C 	0.56066 0.21115 0.21780 -0.07800
C 	C 	0.61121 0.25985 0.18916 0.01700
N 	N 	0.70626 0.39050 0.16920 -0.15000
C 	C 	0.64146 0.32957 0.13661 0.02200
C 	C 	0.57804 0.24884 0.14879 -0.04700
N 	N 	0.55515 0.22317 0.28986 -0.15100
C 	C 	0.60624 0.29243 0.32204 0.01100
C 	C 	0.68185 0.36589 0.31027 -0.04200
H 	H 	0.77367 0.46198 0.25063 0.06600
H 	H 	0.49271 0.14874 0.20859 0.06600
H 	H 	0.53135 0.18439 0.12851 0.05800
H 	H 	0.74254 0.42208 0.33089 0.05700
H 	H 	0.76972 0.44872 0.16743 0.10200
H 	H 	0.50472 0.15644 0.29176 0.09900
C 	C 	0.88869 0.77203 0.53262 -0.07800
C 	C 	0.88013 0.80364 0.49774 -0.00800
C 	C 	0.82840 0.74305 0.46068 0.08700
C 	C 	0.78375 0.65130 0.45912 -0.01400
C 	C 	0.79101 0.61944 0.49421 -0.09700
C 	C 	0.84542 0.68051 0.53092 0.14400
Br	Br	0.86551 0.64077 0.57841 -0.24800
H 	H 	0.93048 0.81893 0.56091 0.08100
H 	H 	0.74213 0.60456 0.43078 0.07000
Br	Br	0.81948 0.78462 0.41174 -0.21000
C 	C 	0.82495 0.14039 0.52498 -0.01100
C 	C 	0.77676 0.12483 0.48641 -0.10300
C 	C 	0.78400 0.08142 0.45225 0.14800
C 	C 	0.84080 0.05622 0.45680 -0.08000
C 	C 	0.88885 0.07156 0.49531 -0.00400
C 	C 	0.88079 0.11384 0.52958 0.08600
Br	Br	0.94468 0.13491 0.58288 -0.21500
H 	H 	0.81981 0.17396 0.55133 0.06700
H 	H 	0.84539 0.02200 0.43051 0.09000
Br	Br	0.71233 0.05055 0.39959 -0.28400
C 	C 	0.23069 0.12171 0.53782 -0.07800
C 	C 	0.17297 0.09858 0.50105 -0.00800
C 	C 	0.20629 0.10985 0.46441 0.08700
C 	C 	0.29550 0.14063 0.46470 -0.01600
C 	C 	0.35174 0.15948 0.50124 -0.09900
C 	C 	0.31940 0.15119 0.53808 0.14100
Br	Br	0.39522 0.17996 0.58910 -0.23000
H 	H 	0.20522 0.11293 0.56607 0.08100
H 	H 	0.32095 0.14937 0.43645 0.05800
Br	Br	0.12987 0.08070 0.41356 -0.21200
C 	C 	0.82085 0.63404 0.93105 -0.02000
C 	C 	0.80324 0.59951 0.96710 -0.08600
C 	C 	0.81516 0.65361 0.00293 0.13400
C 	C 	0.84621 0.74196 0.00256 -0.08400
C 	C 	0.86529 0.77697 0.96663 -0.00100
C 	C 	0.85068 0.72185 0.93054 0.08600
Br	Br	0.87008 0.76513 0.88015 -0.21100
H 	H 	0.80943 0.59191 0.90314 0.06500
H 	H 	0.85814 0.78426 0.03051 0.08200
Br	Br	0.79278 0.60920 0.05301 -0.24000
C 	C 	0.83674 0.13670 0.01185 -0.02200
C 	C 	0.81450 0.15701 0.97571 -0.09600
C 	C 	0.81895 0.12073 0.93818 0.14500
C 	C 	0.84798 0.06698 0.93735 -0.07900
C 	C 	0.87195 0.04830 0.97362 0.00200
C 	C 	0.86502 0.08250 0.01094 0.07900
Br	Br	0.89541 0.05707 0.06112 -0.22900
H 	H 	0.83213 0.16320 0.04076 0.03900
H 	H 	0.85370 0.04124 0.90855 0.08900
Br	Br	0.78300 0.14113 0.88770 -0.20900
C 	C 	0.28022 0.17931 0.93775 -0.01000
C 	C 	0.34075 0.18296 0.96775 -0.09900
C 	C 	0.30698 0.13179 0.99870 0.16100
C 	C 	0.21488 0.08257 0.00055 -0.09900
C 	C 	0.15463 0.07838 0.97029 0.00700
C 	C 	0.18741 0.12506 0.93808 0.08200
Br	Br	0.10606 0.11042 0.89264 -0.20700
H 	H 	0.30510 0.21739 0.91359 0.06900
H 	H 	0.18956 0.04511 0.02488 0.08200
Br	Br	0.38256 0.12023 0.03613 -0.26600
