data_crystal

_cell_length_a 18.66410
_cell_length_b 18.24481
_cell_length_c 49.61615
_cell_angle_alpha 89.60164
_cell_angle_beta  89.60440
_cell_angle_gamma 119.42240

_symmetry_space_group_name_	'P 1'
_symmetry_space_group_name_H-M	'P 1'

loop_
_symmetry_equiv_pos_as_xyz
  x,y,z

loop_
_atom_site_label
_atom_site_type_symbol
_atom_site_fract_x
_atom_site_fract_y
_atom_site_fract_z
_atom_site_charge
O 	O 	0.05621 0.18297 0.24405 -0.37800
C 	C 	0.04372 0.09842 0.08771 -0.03100
C 	C 	0.06498 0.78760 0.61470 0.00500
H 	H 	0.03666 0.80275 0.54765 0.06500
C 	C 	0.04628 0.77763 0.56628 -0.03300
C 	C 	0.06179 0.82597 0.64046 0.03300
C 	C 	0.17285 0.16070 0.74198 0.32300
C 	C 	0.16736 0.12813 0.66140 0.34500
Ni	Ni	0.11395 0.00354 0.70768 1.11200
Ni	Ni	0.05278 0.14239 0.69979 1.12200
O 	O 	0.19615 0.11639 0.72655 -0.37500
O 	O 	0.12519 0.18980 0.73245 -0.38500
O 	O 	0.04602 0.88919 0.68850 -0.37800
O 	O 	0.15829 0.05550 0.66968 -0.38600
O 	O 	0.15861 0.17821 0.67846 -0.38600
O 	O 	0.06784 0.93628 0.74367 -0.37900
O 	O 	0.03071 0.03240 0.70969 -0.71500
H 	H 	0.03091 0.03786 0.72939 0.14300
C 	C 	0.15648 0.65234 0.40437 0.32000
C 	C 	0.19046 0.57214 0.46982 0.30600
O 	O 	0.19561 0.73609 0.40628 -0.35500
O 	O 	0.19671 0.61066 0.39897 -0.38600
O 	O 	0.22143 0.54411 0.45091 -0.35700
O 	O 	0.23967 0.63641 0.48546 -0.33900
C 	C 	0.18365 0.55887 0.08404 0.34800
C 	C 	0.21019 0.40554 0.01858 0.34800
C 	C 	0.09615 0.53443 0.00233 0.32100
Ni	Ni	0.22579 0.66409 0.03538 1.12600
O 	O 	0.12964 0.61327 0.01001 -0.34900
O 	O 	0.25686 0.56537 0.08437 -0.37800
O 	O 	0.15434 0.56994 0.06141 -0.38200
O 	O 	0.21644 0.44347 0.04144 -0.38700
O 	O 	0.24707 0.44947 0.99655 -0.35600
O 	O 	0.13924 0.51235 0.98679 -0.35200
C 	C 	0.07531 0.11851 0.18599 0.34400
C 	C 	0.10230 0.17456 0.26288 0.32800
Ni	Ni	0.08325 0.02387 0.23317 1.12100
O 	O 	0.06171 0.95043 0.20088 -0.40200
O 	O 	0.12101 0.12141 0.20646 -0.38600
O 	O 	0.06587 0.93038 0.25994 -0.38900
O 	O 	0.11775 0.11062 0.26285 -0.38700
C 	C 	0.09004 0.14478 0.10979 0.00800
C 	C 	0.05781 0.13617 0.06214 -0.03600
C 	C 	0.11867 0.22038 0.05839 0.01700
C 	C 	0.17229 0.26278 0.07962 -0.03300
C 	C 	0.15746 0.22565 0.10532 -0.03300
C 	C 	0.10958 0.26965 0.03635 0.02500
C 	C 	0.17511 0.31830 0.01876 -0.15600
C 	C 	0.05672 0.11599 0.13741 0.02000
C 	C 	0.10809 0.13346 0.15980 -0.16700
H 	H 	0.22077 0.32731 0.07687 0.04900
H 	H 	0.19450 0.26220 0.12203 0.04600
H 	H 	0.06062 0.28525 0.03842 0.05700
H 	H 	0.19847 0.28806 0.00529 0.10600
H 	H 	0.17329 0.15549 0.15680 0.08900
C 	C 	0.03159 0.62412 0.17575 -0.04000
C 	C 	0.05031 0.57916 0.15685 -0.03500
C 	C 	0.04182 0.58951 0.12919 0.01500
C 	C 	0.01153 0.64252 0.12071 -0.02900
C 	C 	0.06469 0.54557 0.10887 0.01500
C 	C 	0.14377 0.55471 0.10842 -0.16600
H 	H 	0.03926 0.61666 0.19704 0.04400
H 	H 	0.07140 0.53655 0.16370 0.04300
H 	H 	0.00367 0.65008 0.09949 0.06900
H 	H 	0.02515 0.51889 0.09157 0.06200
H 	H 	0.17744 0.56592 0.12710 0.08900
H 	H 	0.07221 0.84915 0.16740 0.09000
C 	C 	0.19666 0.39047 0.29472 0.01000
C 	C 	0.22809 0.47051 0.28271 -0.03600
C 	C 	0.28024 0.54270 0.29715 -0.03700
C 	C 	0.30079 0.53537 0.32379 0.01100
C 	C 	0.26890 0.45549 0.33586 -0.03500
C 	C 	0.21621 0.38345 0.32155 -0.03300
C 	C 	0.14004 0.31479 0.27945 0.01400
C 	C 	0.14727 0.24160 0.28022 -0.16000
H 	H 	0.21260 0.47672 0.26212 0.04300
H 	H 	0.18986 0.32242 0.33143 0.05000
H 	H 	0.09684 0.31900 0.26581 0.04000
H 	H 	0.19119 0.23819 0.29371 0.08900
C 	C 	0.09652 0.83391 0.33348 0.00300
C 	C 	0.07033 0.84698 0.35874 -0.02700
C 	C 	0.04975 0.78740 0.37946 -0.03400
C 	C 	0.05746 0.71570 0.37534 0.02800
C 	C 	0.09020 0.70632 0.35083 -0.03500
C 	C 	0.11074 0.76590 0.33015 -0.03000
C 	C 	0.02541 0.64745 0.39590 0.02800
C 	C 	0.07071 0.60844 0.40368 -0.15000
C 	C 	0.09195 0.87951 0.30945 0.03400
C 	C 	0.01908 0.87253 0.30271 -0.18700
H 	H 	0.06097 0.90047 0.36172 0.05300
H 	H 	0.02578 0.79585 0.39843 0.06800
H 	H 	0.09675 0.65129 0.34745 0.05200
H 	H 	0.13207 0.75593 0.31088 0.04300
H 	H 	0.03807 0.54243 0.40959 0.09400
H 	H 	0.14435 0.90820 0.29564 0.03800
C 	C 	0.05479 0.43954 0.47431 0.10100
C 	C 	0.09970 0.52827 0.47423 -0.10400
C 	C 	0.05669 0.57411 0.47355 0.09300
Br	Br	0.10970 0.37556 0.48166 -0.16900
Br	Br	0.11557 0.69540 0.47500 -0.19800
C 	C 	0.26735 0.27144 0.60017 0.01000
C 	C 	0.25865 0.33323 0.58586 -0.03100
C 	C 	0.22335 0.23894 0.62643 0.02000
C 	C 	0.19901 0.15666 0.63540 -0.16600
H 	H 	0.21547 0.35265 0.59284 0.04800
H 	H 	0.30402 0.42357 0.55317 0.05900
H 	H 	0.20914 0.27962 0.63857 0.03900
H 	H 	0.20585 0.11369 0.62195 0.09100
C 	C 	0.05875 0.82243 0.59010 -0.02700
H 	H 	0.06013 0.88250 0.58960 0.05200
H 	H 	0.10585 0.83390 0.65598 0.03700
C 	C 	0.00418 0.47569 0.00557 -0.08500
Br	Br	0.02714 0.33990 0.98223 -0.18100
Br	Br	0.23584 0.82214 0.94499 -0.16600
H 	H 	0.00060 0.15212 0.81692 0.04700
C 	C 	0.26058 0.12195 0.82935 -0.03400
C 	C 	0.24510 0.14902 0.78105 0.01400
C 	C 	0.20978 0.18962 0.76690 -0.16300
H 	H 	0.21181 0.05749 0.82723 0.04800
H 	H 	0.24097 0.09146 0.77332 0.03700
H 	H 	0.20454 0.24018 0.77652 0.08900
H 	H 	0.28415 0.44935 0.35649 0.05200
Ni	Ni	0.26242 0.56693 0.98804 1.13000
H 	H 	0.30517 0.60405 0.28756 0.04300
C 	C 	0.28157 0.17914 0.80778 0.00900
C 	C 	0.35119 0.71032 0.36978 0.35400
Ni	Ni	0.29364 0.61722 0.42015 1.12100
O 	O 	0.33383 0.77028 0.37444 -0.38400
O 	O 	0.31129 0.71896 0.43642 -0.70500
H 	H 	0.25555 0.70337 0.44243 0.14900
C 	C 	0.31724 0.75214 0.98572 0.31600
Ni	Ni	0.31783 0.55777 0.04985 1.11700
O 	O 	0.28059 0.67925 0.97250 -0.34400
O 	O 	0.28823 0.76047 0.00934 -0.36000
O 	O 	0.31102 0.72454 0.06500 -0.37900
O 	O 	0.28418 0.60940 0.02373 -0.72000
H 	H 	0.33766 0.65925 0.01986 0.16400
C 	C 	0.35746 0.61056 0.33905 0.01300
C 	C 	0.33758 0.67388 0.34434 -0.17600
H 	H 	0.40477 0.60755 0.35091 0.04700
H 	H 	0.30308 0.68807 0.32964 0.09000
Br	Br	0.39073 0.44357 0.44215 -0.17400
C 	C 	0.30825 0.37284 0.56315 -0.03100
C 	C 	0.36654 0.35055 0.55434 0.01400
C 	C 	0.32379 0.24707 0.59075 -0.03100
H 	H 	0.33376 0.20187 0.60199 0.04700
Br	Br	0.35448 0.48143 0.94112 -0.20400
C 	C 	0.30556 0.14658 0.85319 -0.03300
C 	C 	0.34339 0.26301 0.81107 -0.03400
H 	H 	0.29238 0.10033 0.86904 0.06300
H 	H 	0.35945 0.30810 0.79467 0.04800
O 	O 	0.31784 0.81582 0.48238 -0.34600
C 	C 	0.06924 0.71306 0.61480 -0.03100
O 	O 	0.37208 0.67821 0.38957 -0.39900
C 	C 	0.34134 0.88369 0.46780 0.33100
C 	C 	0.42718 0.62974 0.45574 0.34000
Ni	Ni	0.32144 0.80866 0.41311 1.11500
Ni	Ni	0.35181 0.73027 0.47269 1.12900
O 	O 	0.39055 0.64574 0.47540 -0.37000
O 	O 	0.30822 0.87779 0.44406 -0.34200
O 	O 	0.39230 0.60832 0.43209 -0.36300
C 	C 	0.41841 0.56958 0.99778 0.33700
C 	C 	0.38884 0.73981 0.06479 0.34200
O 	O 	0.39307 0.53636 0.02243 -0.35300
O 	O 	0.38356 0.60678 0.98469 -0.35200
O 	O 	0.40676 0.67867 0.05995 -0.36400
Br	Br	0.28507 0.02434 0.46171 -0.16700
C 	C 	0.37172 0.28518 0.56770 -0.03100
C 	C 	0.43497 0.40884 0.53645 0.04200
H 	H 	0.41738 0.26826 0.56142 0.06000
H 	H 	0.41314 0.33358 0.50213 0.12700
C 	C 	0.40216 0.96189 0.95016 0.10200
C 	C 	0.34897 0.87607 0.95627 0.10300
C 	C 	0.37743 0.83004 0.97129 -0.09400
Br	Br	0.35742 0.02778 0.93492 -0.19300
C 	C 	0.37348 0.22776 0.85529 0.01300
C 	C 	0.38890 0.28725 0.83480 -0.03300
H 	H 	0.44057 0.35042 0.83633 0.05600
H 	H 	0.38969 0.25864 0.90896 0.12100
H 	H 	0.01544 0.82693 0.78252 0.09200
H 	H 	0.42955 0.85692 0.08307 0.09700
C 	C 	0.39770 0.96757 0.47937 -0.10300
C 	C 	0.39059 0.03833 0.47195 0.10300
C 	C 	0.45917 0.37961 0.51538 -0.18200
H 	H 	0.47695 0.47099 0.54419 0.03700
C 	C 	0.45866 0.51317 0.95782 0.10600
C 	C 	0.44103 0.24076 0.87319 0.04200
C 	C 	0.43469 0.24403 0.90019 -0.18000
C 	C 	0.00486 0.68001 0.16709 0.02100
C 	C 	0.02779 0.81869 0.18370 -0.16400
C 	C 	0.49334 0.53907 0.45260 0.10400
C 	C 	0.01323 0.86855 0.20170 0.35400
C 	C 	0.00495 0.89508 0.27837 0.34900
C 	C 	0.44721 0.81279 0.07494 -0.17500
O 	O 	0.44641 0.87540 0.41963 -0.37300
O 	O 	0.46584 0.82245 0.45940 -0.34900
Br	Br	0.45256 0.21402 0.45945 -0.17600
C 	C 	0.49549 0.61293 0.46205 -0.10500
C 	C 	0.46187 0.86739 0.97741 0.09600
C 	C 	0.47851 0.55346 0.98316 -0.10000
Br	Br	0.49813 0.45587 0.90842 -0.19600
H 	H 	0.01698 0.10218 0.04580 0.05900
C 	C 	0.45819 0.11992 0.47486 0.09800
Br	Br	0.46046 0.89257 0.51810 -0.20100
C 	C 	0.48548 0.84415 0.43360 0.34000
C 	C 	0.46666 0.97961 0.49436 0.10600
C 	C 	0.48470 0.23050 0.91625 0.35900
O 	O 	0.49004 0.25052 0.94208 -0.36700
C 	C 	0.53821 0.39864 0.51259 0.34400
H 	H 	0.48885 0.86662 0.12662 0.04700
C 	C 	0.48650 0.00008 0.95675 -0.10400
C 	C 	0.51331 0.49133 0.94537 0.10500
H 	H 	0.49425 0.24057 0.86418 0.04100
C 	C 	0.56408 0.53078 0.45394 0.10000
O 	O 	0.51072 0.17928 0.90786 -0.37700
O 	O 	0.56053 0.37529 0.48989 -0.35000
H 	H 	0.52669 0.85688 0.38310 0.04100
C 	C 	0.56600 0.67329 0.47578 0.09300
Br	Br	0.57398 0.45227 0.43055 -0.20600
Br	Br	0.56477 0.76440 0.49471 -0.18300
Br	Br	0.50240 0.80419 0.99711 -0.19200
O 	O 	0.58286 0.41759 0.53478 -0.38200
C 	C 	0.52608 0.82996 0.07673 0.03500
C 	C 	0.55827 0.85663 0.42398 -0.18000
C 	C 	0.53102 0.13115 0.48734 -0.10000
C 	C 	0.53645 0.05964 0.49528 0.10300
C 	C 	0.51645 0.95182 0.96984 0.10900
C 	C 	0.55565 0.57683 0.99458 0.10600
C 	C 	0.54210 0.09175 0.95167 0.33400
O 	O 	0.54500 0.14498 0.97020 -0.35100
C 	C 	0.55419 0.89674 0.12227 -0.03300
H 	H 	0.54785 0.79496 0.06471 0.06400
C 	C 	0.57535 0.86907 0.39732 0.03700
C 	C 	0.58164 0.49969 0.95949 -0.10600
C 	C 	0.04032 0.69790 0.56685 0.02300
C 	C 	0.58298 0.89082 0.09649 0.01300
H 	H 	0.58672 0.93633 0.16318 0.04500
C 	C 	0.63073 0.58653 0.46987 -0.11100
C 	C 	0.63523 0.66228 0.47803 0.10500
H 	H 	0.07789 0.68769 0.63354 0.04400
Ni	Ni	0.58801 0.27180 0.96569 1.12300
C 	C 	0.59928 0.21692 0.49349 0.34000
H 	H 	0.60336 0.85646 0.43770 0.12100
C 	C 	0.60726 0.54972 0.98269 0.10700
Br	Br	0.59144 0.64782 0.02585 -0.17800
C 	C 	0.61388 0.44210 0.95377 0.34400
O 	O 	0.60844 0.38907 0.97265 -0.37100
O 	O 	0.60288 0.11501 0.93409 -0.35100
C 	C 	0.60969 0.93555 0.14313 -0.03400
H 	H 	0.59374 0.20608 0.60411 0.04400
O 	O 	0.63211 0.27139 0.47376 -0.36300
O 	O 	0.63868 0.22859 0.51633 -0.35600
Br	Br	0.64149 0.06890 0.50343 -0.16800
C 	C 	0.68311 0.55704 0.48315 0.33100
Ni	Ni	0.63338 0.21310 0.90695 1.11400
O 	O 	0.66145 0.31331 0.56016 -0.38700
C 	C 	0.66024 0.90946 0.38679 0.01100
Br	Br	0.63128 0.00276 0.97898 -0.15800
C 	C 	0.05757 0.66851 0.59093 -0.03300
O 	O 	0.65371 0.28843 0.87288 -0.39200
O 	O 	0.66085 0.45539 0.93246 -0.36000
O 	O 	0.65968 0.29157 0.93485 -0.71000
C 	C 	0.68029 0.36584 0.57993 0.36100
Ni	Ni	0.67476 0.39525 0.47749 1.13100
O 	O 	0.70626 0.57804 0.50816 -0.35600
H 	H 	0.65998 0.79287 0.37936 0.05400
H 	H 	0.68066 0.03608 0.39093 0.05900
C 	C 	0.65275 0.25385 0.61172 0.01900
Ni	Ni	0.70838 0.49573 0.53725 1.11600
C 	C 	0.66804 0.92977 0.09152 -0.03200
C 	C 	0.67703 0.33809 0.60634 -0.17700
O 	O 	0.71213 0.44603 0.57485 -0.38500
O 	O 	0.71215 0.51673 0.46935 -0.35200
C 	C 	0.68855 0.85937 0.37446 -0.03100
C 	C 	0.70028 0.99616 0.38096 -0.02600
O 	O 	0.68551 0.30105 0.99013 -0.34300
O 	O 	0.71816 0.42043 0.51302 -0.70900
C 	C 	0.69394 0.96681 0.13867 0.00900
H 	H 	0.69111 0.92662 0.07171 0.06200
H 	H 	0.66491 0.12597 0.58919 0.05800
C 	C 	0.71479 0.36576 0.87060 0.33700
O 	O 	0.72481 0.42080 0.88904 -0.38100
H 	H 	0.69640 0.27485 0.94384 0.15500
Br	Br	0.73871 0.75416 0.48960 -0.17000
H 	H 	0.70628 0.38420 0.62209 0.09100
Br	Br	0.71470 0.58477 0.99704 -0.15100
H 	H 	0.71537 0.51688 0.82244 0.05500
C 	C 	0.71571 0.22918 0.61720 0.01100
H 	H 	0.71876 0.36229 0.82725 0.08700
H 	H 	0.05912 0.61000 0.59140 0.04900
Ni	Ni	0.73765 0.33636 0.52832 1.12300
C 	C 	0.72333 0.96725 0.11255 -0.03100
H 	H 	0.73234 0.89236 0.29781 0.08700
C 	C 	0.71371 0.16149 0.60330 -0.03800
Ni	Ni	0.73787 0.40819 0.92892 1.12300
C 	C 	0.74707 0.89277 0.35358 -0.03500
H 	H 	0.74781 0.63744 0.79234 0.04600
C 	C 	0.74946 0.98917 0.16177 0.01700
H 	H 	0.75504 0.03853 0.17517 0.04100
C 	C 	0.75794 0.02939 0.35982 -0.03500
C 	C 	0.75014 0.39613 0.84525 -0.17100
C 	C 	0.75899 0.36867 0.98542 0.32200
O 	O 	0.75583 0.24085 0.90565 -0.36400
H 	H 	0.77308 0.46105 0.50636 0.15000
H 	H 	0.76531 0.85239 0.34319 0.04800
O 	O 	0.76775 0.42846 0.96830 -0.35800
C 	C 	0.77668 0.97624 0.34474 0.01400
H 	H 	0.78324 0.09487 0.35396 0.05100
O 	O 	0.78441 0.41179 0.46288 -0.33700
H 	H 	0.77695 0.88897 0.15508 0.09300
C 	C 	0.78641 0.95415 0.29544 -0.16000
C 	C 	0.78012 0.27555 0.63509 -0.03500
C 	C 	0.77523 0.14014 0.60728 -0.03200
H 	H 	0.78191 0.32728 0.64620 0.04300
C 	C 	0.77674 0.55283 0.81388 -0.03400
H 	H 	0.77266 0.08724 0.59665 0.05600
C 	C 	0.78478 0.93923 0.16848 -0.17100
H 	H 	0.78867 0.99309 0.10882 0.04800
C 	C 	0.79549 0.62210 0.79715 -0.03500
O 	O 	0.80740 0.33767 0.49673 -0.35700
O 	O 	0.80810 0.91543 0.25257 -0.38200
H 	H 	0.80017 0.03173 0.64382 0.09400
Br	Br	0.79601 0.47538 0.04050 -0.16300
C 	C 	0.81860 0.00494 0.31818 0.01100
O 	O 	0.00191 0.10983 0.19024 -0.38200
C 	C 	0.81985 0.31814 0.90366 0.31700
C 	C 	0.00550 0.64203 0.54335 0.03000
O 	O 	0.82819 0.37904 0.92024 -0.37100
C 	C 	0.82770 0.97541 0.27063 0.32400
C 	C 	0.82826 0.95109 0.19229 0.34500
Br	Br	0.82589 0.23999 0.97434 -0.17600
C 	C 	0.82386 0.47272 0.84289 0.01500
C 	C 	0.83571 0.39682 0.47760 0.30500
O 	O 	0.83604 0.55401 0.54013 -0.35600
O 	O 	0.83601 0.42801 0.54895 -0.37900
O 	O 	0.83610 0.00943 0.20931 -0.38000
C 	C 	0.83122 0.38234 0.00100 -0.10100
C 	C 	0.83886 0.18574 0.62543 0.00900
C 	C 	0.84190 0.25446 0.63892 -0.03500
C 	C 	0.83806 0.53270 0.82062 0.01200
H 	H 	0.84414 0.73622 0.75491 0.04100
C 	C 	0.00175 0.84536 0.64524 -0.18200
Br	Br	0.99822 0.60030 0.04175 -0.21000
C 	C 	0.99332 0.68767 0.13953 -0.04400
O 	O 	0.99157 0.10978 0.66496 -0.40400
C 	C 	0.99715 0.88080 0.66833 0.35000
C 	C 	0.98960 0.73097 0.18687 0.00600
H 	H 	0.97075 0.72906 0.13269 0.05400
H 	H 	0.98280 0.18904 0.86326 0.05400
H 	H 	0.97072 0.23314 0.75458 0.03400
C 	C 	0.97230 0.19092 0.82019 -0.03300
H 	H 	0.96108 0.61870 0.40186 0.05000
H 	H 	0.96155 0.20086 0.63367 0.03800
C 	C 	0.96546 0.39389 0.99368 0.09400
O 	O 	0.95322 0.12892 0.72102 -0.39200
C 	C 	0.87611 0.51063 0.54336 0.31900
C 	C 	0.98983 0.87653 0.74665 0.32400
C 	C 	0.91126 0.06102 0.66419 0.35300
C 	C 	0.91968 0.07542 0.74178 0.34100
Ni	Ni	0.91868 0.94718 0.70582 1.12300
O 	O 	0.87163 0.00610 0.68364 -0.39300
O 	O 	0.94128 0.90461 0.67084 -0.38900
O 	O 	0.89031 0.99302 0.73868 -0.39000
O 	O 	0.93560 0.86068 0.72719 -0.38300
Ni	Ni	0.94694 0.08646 0.22816 1.11400
Ni	Ni	0.89233 0.88818 0.23572 1.12300
O 	O 	0.87870 0.05555 0.26410 -0.37600
O 	O 	0.92714 0.86965 0.27205 -0.40100
O 	O 	0.85879 0.90142 0.19794 -0.39200
O 	O 	0.95414 0.83313 0.22000 -0.39800
O 	O 	0.97452 0.00351 0.23770 -0.71700
H 	H 	0.97626 0.01085 0.25734 0.14900
H 	H 	0.99272 0.03528 0.09074 0.04600
H 	H 	0.99029 0.08031 0.14022 0.04100
H 	H 	0.95260 0.70033 0.20475 0.04400
H 	H 	0.87177 0.06750 0.31619 0.04300
H 	H 	0.96750 0.84156 0.31681 0.09300
C 	C 	0.97004 0.53136 0.47183 0.08400
C 	C 	0.92555 0.44245 0.47147 -0.09900
C 	C 	0.96897 0.39739 0.47079 0.09400
Br	Br	0.91172 0.27884 0.46293 -0.16600
Br	Br	0.91325 0.59537 0.46909 -0.19900
C 	C 	0.89622 0.15561 0.63290 0.02000
C 	C 	0.86555 0.07642 0.64519 -0.17000
H 	H 	0.89054 0.28964 0.65310 0.04100
C 	C 	0.96102 0.55472 0.54693 -0.15600
H 	H 	0.95706 0.83448 0.62961 0.09500
H 	H 	0.99538 0.66869 0.52508 0.06500
H 	H 	0.99158 0.52194 0.55502 0.09100
C 	C 	0.86667 0.45076 0.01847 0.10800
C 	C 	0.87909 0.34831 0.99144 0.09900
C 	C 	0.95306 0.50068 0.01985 0.09900
C 	C 	0.92476 0.26115 0.85105 0.01600
C 	C 	0.90098 0.29268 0.82894 -0.03900
C 	C 	0.91012 0.27074 0.80268 -0.03300
C 	C 	0.94225 0.21659 0.79833 0.00200
C 	C 	0.96332 0.21289 0.84642 -0.03700
C 	C 	0.94429 0.18689 0.77085 0.03300
C 	C 	0.91170 0.10381 0.76594 -0.19300
C 	C 	0.89339 0.26193 0.87840 0.01400
C 	C 	0.88698 0.33082 0.88773 -0.14800
H 	H 	0.87128 0.33016 0.83213 0.04400
H 	H 	0.88905 0.29297 0.78584 0.04100
H 	H 	0.88171 0.05866 0.78232 0.09700
H 	H 	0.86689 0.20418 0.89038 0.05900
H 	H 	0.93175 0.39415 0.88121 0.08600
C 	C 	0.87568 0.67219 0.78699 0.00900
C 	C 	0.91760 0.58104 0.80973 -0.03900
C 	C 	0.93616 0.64981 0.79273 -0.03400
C 	C 	0.89305 0.74247 0.76811 0.01600
C 	C 	0.96961 0.81708 0.76747 -0.16500
H 	H 	0.96545 0.56622 0.81483 0.04400
H 	H 	0.99725 0.68514 0.78394 0.04400
H 	H 	0.86703 0.49342 0.85946 0.03500
