data_crystal

_cell_length_a 15.55484
_cell_length_b 15.90183
_cell_length_c 22.20658
_cell_angle_alpha 95.40192
_cell_angle_beta  95.40260
_cell_angle_gamma 126.69561

_symmetry_space_group_name_	'P 1'
_symmetry_space_group_name_H-M	'P 1'

loop_
_symmetry_equiv_pos_as_xyz
  x,y,z

loop_
_atom_site_label
_atom_site_type_symbol
_atom_site_fract_x
_atom_site_fract_y
_atom_site_fract_z
_atom_site_charge
C 	C 	0.08731 0.03395 0.50085 0.00300
C 	C 	0.07295 0.02918 0.96222 0.00700
C 	C 	0.01254 0.06729 0.95640 -0.05000
H 	H 	0.05355 0.15083 0.95419 0.05300
C 	C 	0.04783 0.09251 0.51445 -0.04600
H 	H 	0.10433 0.17875 0.52793 0.04500
C 	C 	0.18715 0.09930 0.96214 0.05300
C 	C 	0.93424 0.03829 0.50950 -0.00300
Cu	Cu	0.76991 0.34096 0.93900 0.92700
Cu	Cu	0.71741 0.22060 0.05814 0.85600
Cu	Cu	0.60866 0.30869 0.01840 0.88900
Cu	Cu	0.57125 0.34135 0.88949 0.90400
C 	C 	0.71024 0.33242 0.80998 0.32100
O 	O 	0.83282 0.50106 0.94516 -0.34800
C 	C 	0.64544 0.29710 0.14812 0.30900
O 	O 	0.60212 0.26251 0.93215 -0.62600
O 	O 	0.75655 0.34733 0.02669 -0.65500
O 	O 	0.82924 0.25683 0.94092 -0.35800
O 	O 	0.68951 0.13227 0.98382 -0.43000
O 	O 	0.66870 0.38026 0.82810 -0.39000
O 	O 	0.46790 0.28063 0.00822 -0.40800
C 	C 	0.39462 0.22905 0.95699 0.33600
C 	C 	0.77932 0.53770 0.96281 0.28800
O 	O 	0.67609 0.47033 0.96632 -0.39100
O 	O 	0.42075 0.25566 0.90365 -0.39500
O 	O 	0.75633 0.30853 0.85063 -0.36800
C 	C 	0.76981 0.16039 0.95487 0.30000
O 	O 	0.61729 0.33683 0.10788 -0.38500
O 	O 	0.71283 0.27495 0.13775 -0.42600
H 	H 	0.55168 0.18413 0.91773 0.16300
H 	H 	0.81323 0.41644 0.05463 0.17000
Cu	Cu	0.62368 0.21484 0.53094 0.92300
Cu	Cu	0.70591 0.18686 0.40424 0.87100
Cu	Cu	0.65766 0.33950 0.42455 0.89400
Cu	Cu	0.59632 0.39678 0.53778 0.89700
C 	C 	0.65616 0.33626 0.64768 0.31300
O 	O 	0.45951 0.13892 0.52953 -0.35600
C 	C 	0.62510 0.22520 0.29929 0.31500
O 	O 	0.69255 0.37033 0.51349 -0.63300
O 	O 	0.60006 0.19268 0.43905 -0.63600
O 	O 	0.71118 0.15873 0.54466 -0.36300
O 	O 	0.81412 0.24979 0.47576 -0.44500
O 	O 	0.59255 0.35573 0.61986 -0.39400
O 	O 	0.72076 0.48681 0.41831 -0.37900
C 	C 	0.40781 0.16841 0.49870 0.30000
O 	O 	0.46372 0.25471 0.47560 -0.39700
O 	O 	0.63013 0.50552 0.48774 -0.39900
O 	O 	0.66594 0.26576 0.61951 -0.36000
C 	C 	0.79664 0.19288 0.51838 0.30300
O 	O 	0.64555 0.31099 0.33310 -0.38300
O 	O 	0.62422 0.15371 0.32516 -0.43400
H 	H 	0.77070 0.42769 0.53107 0.16100
H 	H 	0.52366 0.13630 0.41776 0.17400
C 	C 	0.72143 0.32396 0.75073 -0.11700
C 	C 	0.69600 0.37632 0.70807 -0.11900
H 	H 	0.75420 0.28349 0.73486 0.08900
H 	H 	0.69568 0.44135 0.72787 0.07800
C 	C 	0.61438 0.28932 0.20305 -0.12000
C 	C 	0.60675 0.21025 0.23756 -0.12500
H 	H 	0.57722 0.32635 0.21691 0.08300
H 	H 	0.59070 0.13923 0.21153 0.06000
C 	C 	0.84807 0.14108 0.52107 -0.12200
C 	C 	0.89011 0.09676 0.51792 0.03700
C 	C 	0.29629 0.12251 0.50276 -0.10800
C 	C 	0.20240 0.08602 0.50359 0.04000
C 	C 	0.80729 0.09585 0.95146 -0.10800
C 	C 	0.84256 0.04521 0.95150 0.03500
C 	C 	0.28242 0.15885 0.96067 -0.11600
C 	C 	0.70824 0.54729 0.45545 0.30900
C 	C 	0.89998 0.99917 0.95376 0.01100
C 	C 	0.02179 0.92212 0.96495 -0.04900
H 	H 	0.06975 0.89328 0.96888 0.04900
H 	H 	0.04449 0.87868 0.47098 0.04600
C 	C 	0.84673 0.88985 0.95631 -0.05400
C 	C 	0.90898 0.85150 0.96160 0.01100
H 	H 	0.75928 0.83609 0.95429 0.04900
C 	C 	0.86204 0.92674 0.49092 -0.04700
C 	C 	0.90222 0.86988 0.47661 -0.00100
C 	C 	0.01406 0.92350 0.48149 -0.04400
H 	H 	0.77486 0.88440 0.48743 0.04400
C 	C 	0.83055 0.75539 0.46410 0.04300
C 	C 	0.77437 0.65972 0.45725 -0.11300
C 	C 	0.85886 0.73974 0.96237 0.03500
C 	C 	0.82440 0.64821 0.96294 -0.09300
