data_crystal

_cell_length_a 18.54640
_cell_length_b 18.79328
_cell_length_c 37.97720
_cell_angle_alpha 95.41387
_cell_angle_beta  95.41395
_cell_angle_gamma 126.43135

_symmetry_space_group_name_	'P 1'
_symmetry_space_group_name_H-M	'P 1'

loop_
_symmetry_equiv_pos_as_xyz
  x,y,z

loop_
_atom_site_label
_atom_site_type_symbol
_atom_site_fract_x
_atom_site_fract_y
_atom_site_fract_z
_atom_site_charge
C 	C 	0.93694 0.01769 0.97916 0.03200
C 	C 	0.03013 0.06832 0.97797 -0.07600
C 	C 	0.07077 0.02550 0.97347 0.03600
C 	C 	0.01924 0.93247 0.97192 -0.07400
C 	C 	0.92708 0.88180 0.97471 0.03300
C 	C 	0.88532 0.92422 0.97793 -0.07700
H 	H 	0.07038 0.14057 0.97958 0.05500
H 	H 	0.05088 0.89946 0.96857 0.05400
H 	H 	0.81352 0.88496 0.97938 0.05200
C 	C 	0.92708 0.02403 0.49624 0.03300
C 	C 	0.02063 0.07138 0.49629 -0.08000
C 	C 	0.06042 0.02730 0.49892 0.03500
C 	C 	0.00606 0.93545 0.50054 -0.07500
C 	C 	0.91314 0.88882 0.50139 0.03500
C 	C 	0.87376 0.93311 0.49921 -0.07800
H 	H 	0.06214 0.14200 0.49431 0.05200
H 	H 	0.03640 0.90088 0.50191 0.05500
H 	H 	0.80149 0.89662 0.49931 0.05400
Cu	Cu	0.78313 0.35656 0.96477 0.92700
Cu	Cu	0.75911 0.30061 0.04417 0.86500
Cu	Cu	0.63743 0.33067 0.00472 0.89300
Cu	Cu	0.60277 0.32179 0.92473 0.89700
C 	C 	0.72019 0.29563 0.88856 0.29300
O 	O 	0.82091 0.47973 0.95624 -0.36000
C 	C 	0.68056 0.36775 0.08416 0.28300
O 	O 	0.63992 0.27736 0.95872 -0.63300
O 	O 	0.76827 0.38175 0.01386 -0.64700
O 	O 	0.85381 0.31067 0.97780 -0.37100
O 	O 	0.74914 0.21416 0.00946 -0.44200
O 	O 	0.68177 0.33592 0.88998 -0.39200
O 	O 	0.51193 0.28990 0.99411 -0.37800
C 	C 	0.45208 0.23559 0.96452 0.29800
C 	C 	0.77129 0.50746 0.96238 0.28500
O 	O 	0.68344 0.44891 0.96223 -0.39700
O 	O 	0.47602 0.24499 0.93269 -0.39700
O 	O 	0.77869 0.31110 0.91642 -0.36500
C 	C 	0.81650 0.23828 0.99239 0.29900
O 	O 	0.63785 0.36954 0.05466 -0.37800
O 	O 	0.74935 0.36413 0.08353 -0.42200
H 	H 	0.60449 0.21106 0.95483 0.15700
H 	H 	0.80918 0.44607 0.02560 0.17100
Cu	Cu	0.59268 0.18062 0.49967 0.92800
Cu	Cu	0.64648 0.20078 0.41938 0.86900
Cu	Cu	0.64923 0.34053 0.46402 0.89600
Cu	Cu	0.62041 0.35129 0.54026 0.89400
C 	C 	0.63594 0.22659 0.57679 0.28900
O 	O 	0.46623 0.13868 0.50593 -0.36500
C 	C 	0.59940 0.29937 0.38424 0.28800
O 	O 	0.67823 0.32199 0.51041 -0.63900
O 	O 	0.57554 0.20688 0.45183 -0.64400
O 	O 	0.63582 0.10915 0.48574 -0.37700
O 	O 	0.73443 0.21002 0.45355 -0.44100
O 	O 	0.59988 0.26941 0.57461 -0.38800
O 	O 	0.72632 0.46941 0.47876 -0.38800
C 	C 	0.71621 0.51262 0.50485 0.30000
C 	C 	0.43780 0.18655 0.49912 0.29100
O 	O 	0.49737 0.27304 0.49943 -0.39900
O 	O 	0.68781 0.47917 0.53409 -0.39600
O 	O 	0.63033 0.17737 0.54791 -0.36300
C 	C 	0.70971 0.14527 0.47169 0.29900
O 	O 	0.63938 0.36067 0.41427 -0.39200
O 	O 	0.58722 0.22244 0.38291 -0.42200
H 	H 	0.74419 0.35409 0.51923 0.16500
H 	H 	0.51138 0.17634 0.44036 0.16900
C 	C 	0.65987 0.21405 0.61243 -0.09100
C 	C 	0.74853 0.24272 0.62473 0.01600
C 	C 	0.77538 0.24374 0.66061 -0.07700
C 	C 	0.71312 0.21419 0.68417 0.04600
C 	C 	0.62303 0.18127 0.67125 -0.07700
C 	C 	0.59663 0.18124 0.63557 0.02200
C 	C 	0.74548 0.23000 0.72322 -0.05300
C 	C 	0.69821 0.16521 0.74247 -0.05400
C 	C 	0.70428 0.18880 0.78145 0.04600
C 	C 	0.62439 0.15798 0.79477 -0.07800
C 	C 	0.62959 0.18971 0.83040 0.01800
C 	C 	0.71472 0.25153 0.85323 -0.09500
C 	C 	0.79449 0.27746 0.84070 0.02300
C 	C 	0.78930 0.24606 0.80491 -0.07800
H 	H 	0.79763 0.26756 0.60694 0.02200
H 	H 	0.84510 0.26960 0.67032 0.04500
H 	H 	0.57460 0.15934 0.68926 0.04700
H 	H 	0.52774 0.15816 0.62620 0.03100
H 	H 	0.80300 0.29761 0.73682 0.04200
H 	H 	0.64316 0.09697 0.72849 0.04100
H 	H 	0.55840 0.11240 0.77708 0.04500
H 	H 	0.56756 0.16820 0.83999 0.01500
H 	H 	0.86056 0.32441 0.85821 0.03400
H 	H 	0.85130 0.26794 0.79522 0.04700
C 	C 	0.58006 0.32258 0.35038 -0.09500
C 	C 	0.50983 0.25433 0.32231 0.01700
C 	C 	0.50214 0.27329 0.28803 -0.07900
C 	C 	0.56500 0.36031 0.28144 0.04500
C 	C 	0.63032 0.43018 0.31017 -0.07700
C 	C 	0.63784 0.41141 0.34451 0.01600
C 	C 	0.56755 0.37592 0.24403 -0.05500
C 	C 	0.64336 0.40705 0.23033 -0.05400
C 	C 	0.64293 0.40567 0.19124 0.04400
C 	C 	0.72115 0.47477 0.17978 -0.07800
C 	C 	0.73092 0.46511 0.14397 0.02100
C 	C 	0.66224 0.38652 0.11921 -0.09100
C 	C 	0.58125 0.32016 0.12995 0.01600
C 	C 	0.57193 0.32901 0.16589 -0.07600
H 	H 	0.46311 0.18604 0.32675 0.02500
H 	H 	0.45010 0.21940 0.26620 0.04400
H 	H 	0.67740 0.49826 0.30558 0.04600
H 	H 	0.69120 0.46512 0.36608 0.03200
H 	H 	0.50475 0.35277 0.22663 0.04000
H 	H 	0.70641 0.43193 0.24809 0.04000
H 	H 	0.77622 0.53421 0.19900 0.04500
H 	H 	0.79343 0.51711 0.13582 0.02500
H 	H 	0.52771 0.25934 0.11094 0.02000
H 	H 	0.51184 0.27420 0.17436 0.04400
C 	C 	0.79356 0.72867 0.47334 -0.09100
C 	C 	0.85643 0.79274 0.50382 -0.01500
C 	C 	0.86602 0.76441 0.53600 0.06300
C 	C 	0.81761 0.67216 0.53615 -0.02400
C 	C 	0.75703 0.60799 0.50523 -0.11000
C 	C 	0.74140 0.63642 0.47411 0.12400
N 	N 	0.67488 0.57579 0.44539 -0.20100
H 	H 	0.78457 0.75075 0.44904 0.05300
H 	H 	0.82815 0.65032 0.56024 0.04200
N 	N 	0.92079 0.82521 0.56683 -0.19300
H 	H 	0.66725 0.59698 0.42178 0.08400
H 	H 	0.62705 0.50814 0.44688 0.08900
H 	H 	0.95247 0.89379 0.56840 0.08300
H 	H 	0.92971 0.80371 0.59013 0.08000
C 	C 	0.85079 0.06481 0.45532 -0.08900
C 	C 	0.88322 0.06758 0.49065 -0.01700
C 	C 	0.86104 0.09893 0.51992 0.06400
C 	C 	0.80266 0.12240 0.51311 -0.02500
C 	C 	0.76719 0.11609 0.47770 -0.11200
C 	C 	0.79054 0.08593 0.44843 0.11600
N 	N 	0.75233 0.07328 0.41381 -0.20000
H 	H 	0.86805 0.04073 0.43299 0.05000
H 	H 	0.78566 0.14670 0.53547 0.04500
N 	N 	0.89602 0.10722 0.55451 -0.19300
H 	H 	0.77287 0.05459 0.39241 0.07400
H 	H 	0.69899 0.07741 0.40777 0.05400
H 	H 	0.94357 0.09512 0.56045 0.08200
H 	H 	0.87751 0.12830 0.57597 0.08100
C 	C 	0.19448 0.10229 0.46880 -0.08900
C 	C 	0.15937 0.07732 0.50031 -0.01700
C 	C 	0.21714 0.09195 0.53184 0.06400
C 	C 	0.30707 0.12481 0.53042 -0.02700
C 	C 	0.34171 0.14794 0.49872 -0.11000
C 	C 	0.28542 0.13792 0.46768 0.11900
N 	N 	0.31748 0.16060 0.43662 -0.20300
H 	H 	0.15020 0.09173 0.44478 0.05100
H 	H 	0.35104 0.13457 0.55437 0.04200
N 	N 	0.18718 0.07612 0.56362 -0.19300
H 	H 	0.27532 0.15303 0.41392 0.08000
H 	H 	0.38403 0.18548 0.43456 0.07800
H 	H 	0.12366 0.05961 0.56639 0.08200
H 	H 	0.22912 0.08381 0.58644 0.08000
C 	C 	0.85898 0.66135 0.99863 -0.01800
C 	C 	0.81162 0.60351 0.96516 -0.10800
C 	C 	0.79358 0.63538 0.93577 0.12400
C 	C 	0.82413 0.72493 0.94049 -0.09200
C 	C 	0.87450 0.78375 0.97360 -0.01000
C 	C 	0.88940 0.75088 0.00332 0.05600
N 	N 	0.93216 0.80467 0.03641 -0.19200
H 	H 	0.87049 0.63614 0.02134 0.02800
H 	H 	0.81275 0.75018 0.91777 0.05200
N 	N 	0.74890 0.58114 0.90282 -0.20400
H 	H 	0.94555 0.78099 0.05798 0.07800
H 	H 	0.94982 0.86930 0.04132 0.08300
H 	H 	0.73013 0.51612 0.89776 0.08600
H 	H 	0.73430 0.60466 0.88149 0.08200
C 	C 	0.84714 0.14637 0.95494 -0.02600
C 	C 	0.84918 0.18317 0.98926 -0.10700
C 	C 	0.87460 0.16043 0.02016 0.11200
C 	C 	0.89361 0.09833 0.01594 -0.09100
C 	C 	0.89400 0.06343 0.98173 -0.01400
C 	C 	0.86890 0.08632 0.95083 0.06400
N 	N 	0.86502 0.05053 0.91720 -0.19300
H 	H 	0.82685 0.16307 0.93129 0.04600
H 	H 	0.91373 0.08144 0.03957 0.04900
N 	N 	0.88489 0.20088 0.05387 -0.20000
H 	H 	0.84875 0.06948 0.89458 0.08100
H 	H 	0.87588 0.00210 0.91312 0.08200
H 	H 	0.88331 0.25561 0.05806 0.05000
H 	H 	0.89961 0.18083 0.07647 0.07400
C 	C 	0.29250 0.17298 0.93949 -0.02500
C 	C 	0.35398 0.17790 0.96614 -0.10800
C 	C 	0.32119 0.12922 0.99443 0.12200
C 	C 	0.22941 0.08403 0.99735 -0.08600
C 	C 	0.16787 0.07816 0.97045 -0.01700
C 	C 	0.19910 0.12029 0.94050 0.06400
N 	N 	0.13977 0.10870 0.91232 -0.19300
H 	H 	0.31719 0.20929 0.91757 0.04400
H 	H 	0.20493 0.05009 0.01987 0.04800
N 	N 	0.37602 0.12197 0.01771 -0.20000
H 	H 	0.16401 0.14327 0.89111 0.08100
H 	H 	0.06928 0.06233 0.91023 0.08500
H 	H 	0.43866 0.14013 0.01254 0.06700
H 	H 	0.35314 0.09143 0.03995 0.07700
