data_crystal

_cell_length_a 40.87009
_cell_length_b 41.04619
_cell_length_c 22.06467
_cell_angle_alpha 89.82332
_cell_angle_beta  90.00007
_cell_angle_gamma 90.00005

_symmetry_space_group_name_	'P 1'
_symmetry_space_group_name_H-M	'P 1'

loop_
_symmetry_equiv_pos_as_xyz
  x,y,z

loop_
_atom_site_label
_atom_site_type_symbol
_atom_site_fract_x
_atom_site_fract_y
_atom_site_fract_z
_atom_site_charge
C 	C 	0.49193 0.57653 0.89062 0.09900
N 	N 	0.47464 0.54958 0.90444 -0.17400
C 	C 	0.44410 0.55455 0.88348 0.09800
C 	C 	0.41566 0.53556 0.90540 -0.07300
C 	C 	0.41764 0.49969 0.90968 0.08600
C 	C 	0.38454 0.55209 0.91973 0.02700
C 	C 	0.38218 0.57200 0.97110 -0.03400
C 	C 	0.35189 0.58485 0.98826 -0.09800
C 	C 	0.32384 0.57803 0.95390 0.02400
C 	C 	0.35666 0.54602 0.88450 -0.04600
N 	N 	0.44109 0.48210 0.88195 -0.12800
C 	C 	0.40111 0.48123 0.95235 -0.06300
C 	C 	0.43889 0.45202 0.90633 0.08500
C 	C 	0.46434 0.42686 0.89817 -0.07200
C 	C 	0.45576 0.39219 0.90681 0.02300
C 	C 	0.42293 0.34530 0.87903 -0.05700
C 	C 	0.46885 0.37462 0.95573 -0.02800
C 	C 	0.45870 0.34261 0.96672 -0.10500
C 	C 	0.43568 0.32786 0.92839 0.04800
N 	N 	0.51389 0.46182 0.89940 -0.17200
C 	C 	0.54544 0.45775 0.88347 0.10100
C 	C 	0.54919 0.42938 0.85025 -0.06300
C 	C 	0.51845 0.41554 0.84610 -0.06100
C 	C 	0.57262 0.47576 0.91276 -0.08100
C 	C 	0.60530 0.46063 0.91943 0.03600
C 	C 	0.66392 0.46245 0.90232 -0.04800
C 	C 	0.66780 0.43372 0.93619 0.02900
C 	C 	0.64029 0.41852 0.96181 -0.05000
C 	C 	0.60917 0.43207 0.95383 -0.05400
N 	N 	0.54849 0.53071 0.89750 -0.13100
C 	C 	0.56666 0.55556 0.98207 -0.09800
C 	C 	0.54790 0.55841 0.93015 0.09800
C 	C 	0.52357 0.58443 0.91993 -0.07900
C 	C 	0.53245 0.61867 0.93288 0.03000
C 	C 	0.56023 0.63254 0.90577 -0.05000
C 	C 	0.56822 0.66510 0.91667 -0.04200
C 	C 	0.54837 0.68416 0.95448 0.01300
C 	C 	0.52088 0.67013 0.98242 -0.09100
C 	C 	0.51305 0.63746 0.97190 -0.03800
C 	C 	0.47242 0.59889 0.86036 -0.06300
C 	C 	0.44179 0.58485 0.85591 -0.06200
C 	C 	0.32643 0.55898 0.90146 -0.04700
C 	C 	0.41477 0.45061 0.95021 -0.06200
C 	C 	0.49740 0.43618 0.87681 0.09800
C 	C 	0.57989 0.52470 0.98081 -0.09900
C 	C 	0.56836 0.51044 0.92839 0.09900
C 	C 	0.63279 0.47562 0.89340 -0.05100
H 	H 	0.48051 0.53358 0.93976 0.08900
H 	H 	0.50610 0.47568 0.93637 0.09000
H 	H 	0.58963 0.67562 0.89526 0.03900
H 	H 	0.50536 0.68464 0.01158 0.08100
H 	H 	0.57542 0.61819 0.87573 0.04500
H 	H 	0.49172 0.62686 0.99345 0.03100
H 	H 	0.35012 0.59968 0.02866 0.08300
H 	H 	0.35833 0.53077 0.84462 0.04600
H 	H 	0.30490 0.55366 0.87462 0.04400
H 	H 	0.40364 0.57684 0.99847 0.03000
H 	H 	0.46866 0.32928 0.00494 0.09200
H 	H 	0.48644 0.38595 0.98576 0.03100
C 	C 	0.43291 0.37737 0.86831 -0.04000
H 	H 	0.40519 0.33406 0.84919 0.04800
H 	H 	0.68505 0.47456 0.88298 0.04200
H 	H 	0.63005 0.49766 0.86672 0.04600
H 	H 	0.58813 0.42049 0.97459 0.03900
H 	H 	0.64308 0.39644 0.98833 0.03700
H 	H 	0.47710 0.62481 0.85753 0.04800
H 	H 	0.41929 0.59838 0.84969 0.04800
H 	H 	0.38821 0.49105 0.99107 0.04300
H 	H 	0.41407 0.43314 0.98705 0.04400
H 	H 	0.57192 0.41619 0.84462 0.04900
H 	H 	0.51393 0.38998 0.83747 0.04800
H 	H 	0.56327 0.56984 0.02276 0.08600
H 	H 	0.58862 0.51153 0.02019 0.08600
H 	H 	0.42268 0.39080 0.83045 0.04500
Co	Co	0.36211 0.13998 0.97401 1.17400
Co	Co	0.36824 0.06228 0.98138 1.07800
O 	O 	0.36041 0.18948 0.97981 -0.37900
O 	O 	0.40937 0.17205 0.97264 -0.31000
O 	O 	0.31642 0.12427 0.97317 -0.44500
O 	O 	0.35429 0.07751 0.90021 -0.47300
C 	C 	0.30706 0.09853 0.00462 0.33900
C 	C 	0.39092 0.19728 0.97837 0.27200
O 	O 	0.32886 0.07898 0.02927 -0.42700
O 	O 	0.37332 0.12933 0.89111 -0.41500
C 	C 	0.37142 0.09938 0.87067 0.30800
O 	O 	0.37318 0.12841 0.05640 -0.40200
O 	O 	0.40364 0.08601 0.02338 -0.45000
C 	C 	0.39626 0.10685 0.06611 0.32300
C 	C 	0.49649 0.03090 0.53353 0.01500
C 	C 	0.52294 0.00821 0.53471 0.01300
C 	C 	0.48779 0.04632 0.47899 -0.05400
C 	C 	0.50519 0.03953 0.42559 0.01600
C 	C 	0.54104 0.00225 0.48178 -0.05200
C 	C 	0.53243 0.01786 0.42722 0.01200
H 	H 	0.56234 0.98658 0.48353 0.05300
H 	H 	0.46840 0.06430 0.47845 0.05500
C 	C 	0.55125 0.01380 0.37406 -0.01100
C 	C 	0.54170 0.02773 0.31877 0.01100
C 	C 	0.55598 0.01228 0.26762 -0.04800
C 	C 	0.57678 0.98662 0.28361 0.00900
S 	S 	0.57563 0.98215 0.35893 0.00300
H 	H 	0.54904 0.01739 0.22125 0.05100
C 	C 	0.49714 0.05508 0.37032 -0.01500
C 	C 	0.51401 0.04779 0.31653 0.01300
C 	C 	0.49510 0.05339 0.26341 -0.05300
C 	C 	0.46336 0.06383 0.27626 0.00900
S 	S 	0.45953 0.06747 0.35116 0.01300
H 	H 	0.50427 0.05043 0.21776 0.05000
C 	C 	0.48688 0.02075 0.64144 0.01100
C 	C 	0.48057 0.03833 0.58866 -0.01600
S 	S 	0.44443 0.05664 0.59682 0.01100
C 	C 	0.43591 0.04351 0.66716 0.00800
C 	C 	0.46189 0.02342 0.68570 -0.05300
C 	C 	0.53155 0.99370 0.59080 -0.01400
C 	C 	0.51242 0.99820 0.64257 0.00900
C 	C 	0.51646 0.97342 0.68683 -0.05100
C 	C 	0.53885 0.94935 0.66936 0.00900
S 	S 	0.55271 0.95928 0.60020 0.00600
H 	H 	0.50569 0.97438 0.73161 0.04300
H 	H 	0.46418 0.01405 0.73141 0.04200
Co	Co	0.62549 0.87131 0.98263 1.16700
Co	Co	0.55089 0.88824 0.99384 1.08300
O 	O 	0.67365 0.86113 0.96802 -0.38400
O 	O 	0.66308 0.91126 0.95364 -0.32100
O 	O 	0.60418 0.83022 0.00729 -0.37300
O 	O 	0.57037 0.88003 0.07481 -0.44100
C 	C 	0.57610 0.82087 0.98371 0.28800
C 	C 	0.68540 0.88911 0.95269 0.29600
O 	O 	0.55598 0.84231 0.95950 -0.44100
O 	O 	0.62355 0.89425 0.05901 -0.40900
C 	C 	0.59704 0.89500 0.09261 0.31200
O 	O 	0.60861 0.87404 0.90128 -0.43300
O 	O 	0.57364 0.91378 0.93028 -0.48400
C 	C 	0.58966 0.89862 0.88728 0.32600
Co	Co	0.13080 0.62949 0.99697 1.16500
Co	Co	0.05416 0.61549 0.99587 1.07900
O 	O 	0.17889 0.64069 0.00753 -0.35400
O 	O 	0.17081 0.58951 0.01232 -0.28600
O 	O 	0.10852 0.67131 0.98187 -0.45400
O 	O 	0.07165 0.62640 0.91455 -0.47000
C 	C 	0.08321 0.68073 0.01428 0.34100
C 	C 	0.19209 0.61258 0.01580 0.29200
O 	O 	0.06303 0.65907 0.03760 -0.42700
O 	O 	0.12495 0.61058 0.91747 -0.42300
C 	C 	0.09609 0.60989 0.89137 0.30900
O 	O 	0.11725 0.62240 0.07972 -0.41500
O 	O 	0.07921 0.58579 0.04924 -0.45100
C 	C 	0.09793 0.59777 0.09195 0.32000
C 	C 	0.02710 0.48503 0.55190 0.01500
C 	C 	0.00062 0.46243 0.55204 0.01400
C 	C 	0.04103 0.49508 0.49671 -0.05300
C 	C 	0.02790 0.48406 0.44159 0.01500
C 	C 	0.98850 0.45021 0.49705 -0.05400
C 	C 	0.00166 0.46117 0.44176 0.01400
H 	H 	0.96863 0.43277 0.49726 0.05400
H 	H 	0.06227 0.51087 0.49668 0.05500
C 	C 	0.98938 0.45001 0.38562 -0.01100
C 	C 	0.99939 0.46418 0.33084 0.01200
C 	C 	0.97636 0.46031 0.28318 -0.04700
C 	C 	0.94832 0.44332 0.30137 0.00500
S 	S 	0.95251 0.43344 0.37443 0.00700
H 	H 	0.98069 0.46790 0.23686 0.04800
C 	C 	0.04037 0.49502 0.38527 -0.01500
C 	C 	0.02493 0.48686 0.33065 0.01300
C 	C 	0.03085 0.50959 0.28324 -0.05300
C 	C 	0.05032 0.53582 0.30141 0.00900
S 	S 	0.06042 0.53004 0.37402 0.01100
H 	H 	0.02260 0.50629 0.23706 0.04900
C 	C 	0.02413 0.48788 0.66290 0.01200
C 	C 	0.03947 0.49611 0.60808 -0.01500
S 	S 	0.05969 0.53102 0.61883 0.01200
C 	C 	0.04956 0.53679 0.69141 0.00700
C 	C 	0.03020 0.51050 0.71001 -0.05400
C 	C 	0.98550 0.45473 0.60784 -0.01400
C 	C 	0.99755 0.46662 0.66272 0.00900
C 	C 	0.98749 0.44810 0.71373 -0.05200
C 	C 	0.96810 0.42126 0.69825 0.01000
S 	S 	0.96333 0.42149 0.62284 0.00300
H 	H 	0.99400 0.45406 0.75997 0.04600
H 	H 	0.02005 0.50832 0.75518 0.04200
Co	Co	0.85825 0.36175 0.99554 1.16600
Co	Co	0.86596 0.43798 0.99558 1.08500
O 	O 	0.85223 0.31283 0.98695 -0.39400
O 	O 	0.90250 0.32636 0.98125 -0.33900
O 	O 	0.81417 0.37983 0.00941 -0.36300
O 	O 	0.85533 0.42112 0.07766 -0.43700
C 	C 	0.80289 0.40431 0.97697 0.26300
C 	C 	0.88172 0.30280 0.97905 0.32500
O 	O 	0.82295 0.42606 0.95378 -0.42400
O 	O 	0.87691 0.36999 0.07457 -0.41500
C 	C 	0.87242 0.39768 0.10306 0.31200
O 	O 	0.86393 0.37485 0.91233 -0.42900
O 	O 	0.89750 0.41572 0.94171 -0.48700
C 	C 	0.88686 0.39602 0.89941 0.32500
C 	C 	0.99320 0.92589 0.05902 0.10500
N 	N 	0.97574 0.94885 0.02970 -0.14900
C 	C 	0.94426 0.94387 0.04496 0.09500
C 	C 	0.91664 0.96228 0.01784 -0.03900
C 	C 	0.92145 0.99663 0.99857 0.02200
C 	C 	0.88448 0.94643 0.00982 0.09600
C 	C 	0.87428 0.93667 0.95198 -0.12000
C 	C 	0.84260 0.92472 0.94324 0.00100
C 	C 	0.82100 0.92204 0.99253 -0.05600
C 	C 	0.86319 0.94313 0.05927 -0.08700
N 	N 	0.94821 0.01396 0.01361 -0.07600
C 	C 	0.89714 0.01670 0.97566 -0.05000
C 	C 	0.94135 0.04506 0.99876 0.01800
C 	C 	0.96198 0.07282 0.01860 -0.02700
C 	C 	0.94962 0.10650 0.01355 0.06200
C 	C 	0.91506 0.15010 0.05083 -0.05500
C 	C 	0.96097 0.12695 0.96711 -0.07600
C 	C 	0.94934 0.15888 0.96240 -0.08900
C 	C 	0.92629 0.17057 0.00418 0.09100
N 	N 	0.01442 0.04213 0.02664 -0.14800
C 	C 	0.04379 0.04753 0.05232 0.10500
C 	C 	0.04324 0.07571 0.08669 -0.06400
C 	C 	0.01183 0.08803 0.08174 -0.05400
C 	C 	0.07350 0.02835 0.03770 -0.07600
C 	C 	0.10577 0.04448 0.03558 0.07600
C 	C 	0.15637 0.05957 0.08563 -0.04600
C 	C 	0.16986 0.06866 0.02962 0.05900
C 	C 	0.15085 0.06649 0.97684 -0.08100
C 	C 	0.11886 0.05453 0.97986 -0.09100
N 	N 	0.04253 0.97643 0.03072 -0.12500
C 	C 	0.08413 0.94092 0.02053 -0.05800
C 	C 	0.05068 0.94470 0.02738 0.09700
C 	C 	0.02764 0.91816 0.04369 -0.07700
C 	C 	0.03821 0.88387 0.04019 0.07700
C 	C 	0.05148 0.86839 0.09131 -0.05900
C 	C 	0.05995 0.83544 0.08884 -0.04700
C 	C 	0.05541 0.81787 0.03508 0.05900
C 	C 	0.04241 0.83345 0.98381 -0.08100
C 	C 	0.03381 0.86636 0.98639 -0.09100
C 	C 	0.97276 0.90594 0.09292 -0.06300
C 	C 	0.94134 0.91757 0.08403 -0.05700
C 	C 	0.83175 0.93058 0.05084 0.03400
C 	C 	0.90994 0.04780 0.97570 -0.04800
C 	C 	0.99490 0.06669 0.04462 0.09100
C 	C 	0.09703 0.97197 0.01857 -0.05800
C 	C 	0.07073 0.99304 0.02427 0.09700
C 	C 	0.12445 0.04745 0.08858 -0.05800
H 	H 	0.98326 0.96024 0.98964 0.06600
H 	H 	0.01092 0.02869 0.98702 0.06700
H 	H 	0.06995 0.82354 0.12863 0.04600
H 	H 	0.03881 0.82000 0.94216 0.04000
H 	H 	0.05487 0.88180 0.13306 0.04700
H 	H 	0.02349 0.87817 0.94679 0.04300
H 	H 	0.83455 0.91840 0.89800 0.02900
H 	H 	0.87087 0.95071 0.10406 0.05800
H 	H 	0.81544 0.92826 0.08932 0.03200
H 	H 	0.89060 0.93921 0.91354 0.05400
H 	H 	0.95830 0.17456 0.92647 0.05000
H 	H 	0.97877 0.11810 0.93472 0.04200
C 	C 	0.92678 0.11822 0.05560 -0.04100
H 	H 	0.89722 0.15889 0.08321 0.05500
H 	H 	0.17092 0.06110 0.12658 0.04600
H 	H 	0.11449 0.03968 0.13177 0.04800
H 	H 	0.10456 0.05228 0.93874 0.04300
H 	H 	0.16112 0.07337 0.93338 0.04100
H 	H 	0.97862 0.88146 0.10768 0.05300
H 	H 	0.91928 0.90352 0.09122 0.05100
H 	H 	0.87125 0.01112 0.97569 0.03700
H 	H 	0.89545 0.06986 0.97520 0.03500
H 	H 	0.06452 0.08978 0.09953 0.05300
H 	H 	0.00510 0.11312 0.09013 0.05200
H 	H 	0.09782 0.91934 0.03300 0.05200
H 	H 	0.12216 0.97793 0.02935 0.05300
H 	H 	0.91804 0.10257 0.09177 0.05000
C 	C 	0.91398 0.20424 0.99920 -0.04500
C 	C 	0.89640 0.21401 0.94775 -0.05900
C 	C 	0.88514 0.24600 0.94246 0.03900
C 	C 	0.89123 0.26863 0.98855 -0.17400
C 	C 	0.90784 0.25857 0.04190 0.18100
C 	C 	0.91969 0.22651 0.04611 -0.06200
H 	H 	0.87211 0.25339 0.90190 0.02600
H 	H 	0.93301 0.21879 0.08616 0.05500
H 	H 	0.89162 0.19682 0.91164 0.04200
N 	N 	0.91167 0.27917 0.08959 -0.20900
H 	H 	0.90028 0.30191 0.09058 0.11700
H 	H 	0.92504 0.27191 0.12768 0.09700
C 	C 	0.94407 0.40714 0.74041 0.01500
C 	C 	0.95446 0.38578 0.78657 0.02000
C 	C 	0.93421 0.37987 0.83653 -0.00100
C 	C 	0.90355 0.39496 0.84064 -0.10600
C 	C 	0.89175 0.41347 0.79147 0.08400
C 	C 	0.91208 0.41955 0.74164 -0.07900
H 	H 	0.94297 0.36479 0.87353 0.04700
H 	H 	0.90366 0.43544 0.70556 0.06200
I 	I 	0.00114 0.36317 0.78295 -0.11500
I 	I 	0.84397 0.43378 0.79263 -0.14300
C 	C 	0.88893 0.40338 0.16161 -0.10500
C 	C 	0.87466 0.42330 0.20647 0.08500
C 	C 	0.89397 0.43503 0.25410 -0.08100
C 	C 	0.92684 0.42571 0.25916 0.01600
C 	C 	0.93955 0.40201 0.21949 0.02000
C 	C 	0.92080 0.39146 0.17032 -0.00700
H 	H 	0.88352 0.45178 0.28667 0.06200
H 	H 	0.93136 0.37471 0.13789 0.05400
I 	I 	0.82355 0.43292 0.20780 -0.10900
I 	I 	0.98615 0.38040 0.23438 -0.10200
C 	C 	0.07679 0.71587 0.02264 -0.07000
C 	C 	0.04544 0.72669 0.03895 -0.00100
C 	C 	0.03895 0.75994 0.04404 -0.03000
C 	C 	0.06360 0.78292 0.03278 -0.03600
C 	C 	0.09553 0.77226 0.01744 0.08600
C 	C 	0.10186 0.73871 0.01275 -0.03500
H 	H 	0.01452 0.76794 0.05596 0.04400
H 	H 	0.12627 0.73045 0.00124 0.06600
H 	H 	0.02589 0.70935 0.04672 0.03500
N 	N 	0.12006 0.79399 0.00697 -0.17400
H 	H 	0.11624 0.81907 0.01018 0.09400
H 	H 	0.14348 0.78585 0.99549 0.05300
C 	C 	0.09162 0.59268 0.83349 -0.11000
C 	C 	0.09876 0.55914 0.82864 0.07900
C 	C 	0.08790 0.54171 0.77810 -0.08100
C 	C 	0.06864 0.55696 0.73367 0.01400
C 	C 	0.06358 0.59085 0.73629 0.01800
C 	C 	0.07546 0.60858 0.78570 -0.00400
H 	H 	0.09260 0.51577 0.77537 0.06200
H 	H 	0.07059 0.63449 0.78849 0.04600
I 	I 	0.12249 0.53309 0.89967 -0.14000
I 	I 	0.03582 0.61556 0.66895 -0.11900
C 	C 	0.09450 0.58578 0.15430 -0.10200
C 	C 	0.10516 0.55421 0.16966 0.08600
C 	C 	0.09315 0.53904 0.22198 -0.07800
C 	C 	0.07019 0.55498 0.25870 0.01600
C 	C 	0.06240 0.58780 0.24691 0.02100
C 	C 	0.07478 0.60312 0.19497 -0.00700
H 	H 	0.10016 0.51415 0.23216 0.06500
H 	H 	0.06724 0.62777 0.18412 0.04400
I 	I 	0.13829 0.52843 0.11330 -0.08600
I 	I 	0.03009 0.61398 0.30425 -0.11300
C 	C 	0.78639 0.91306 0.98236 -0.00900
C 	C 	0.76142 0.93401 0.00151 0.04500
C 	C 	0.72873 0.92605 0.99136 -0.08800
C 	C 	0.72037 0.89729 0.96064 -0.08800
C 	C 	0.74556 0.87655 0.93896 0.11800
C 	C 	0.77841 0.88416 0.95185 -0.09300
H 	H 	0.70979 0.94222 0.00784 0.09800
H 	H 	0.79776 0.86804 0.93673 0.05100
H 	H 	0.76737 0.95659 0.02432 0.03500
N 	N 	0.73857 0.85027 0.90384 -0.20200
H 	H 	0.71512 0.84641 0.88656 0.10000
H 	H 	0.75716 0.83434 0.89052 0.08400
C 	C 	0.55904 0.93207 0.71421 0.01600
C 	C 	0.54997 0.90077 0.73424 0.01900
C 	C 	0.56266 0.88851 0.78868 -0.00600
C 	C 	0.58402 0.90746 0.82364 -0.10900
C 	C 	0.59554 0.93735 0.80056 0.08900
C 	C 	0.58328 0.94932 0.74566 -0.08100
H 	H 	0.55442 0.86507 0.80553 0.04000
H 	H 	0.59099 0.97307 0.72949 0.06300
I 	I 	0.51581 0.87237 0.68487 -0.12000
I 	I 	0.63040 0.96555 0.84872 -0.11800
C 	C 	0.59635 0.91576 0.14716 -0.10400
C 	C 	0.57810 0.90687 0.19901 0.08600
C 	C 	0.57273 0.92981 0.24486 -0.07900
C 	C 	0.58684 0.96093 0.24105 0.01600
C 	C 	0.60799 0.96839 0.19263 0.02100
C 	C 	0.61229 0.94605 0.14566 -0.00600
H 	H 	0.55727 0.92355 0.28305 0.06300
H 	H 	0.62735 0.95262 0.10709 0.05700
I 	I 	0.56164 0.85829 0.21300 -0.11700
I 	I 	0.63423 0.01306 0.18973 -0.09600
C 	C 	0.27188 0.09146 0.01231 -0.06800
C 	C 	0.26138 0.05922 0.02055 -0.00000
C 	C 	0.22818 0.05219 0.02696 -0.03000
C 	C 	0.20488 0.07723 0.02539 -0.03700
C 	C 	0.21522 0.11000 0.01809 0.09000
C 	C 	0.24878 0.11678 0.01108 -0.03700
H 	H 	0.22045 0.02710 0.03253 0.04200
H 	H 	0.25685 0.14178 0.00550 0.06500
H 	H 	0.27896 0.03946 0.02112 0.02800
N 	N 	0.19329 0.13493 0.01853 -0.19600
H 	H 	0.16841 0.13087 0.02616 0.09800
H 	H 	0.20113 0.15894 0.01221 0.09700
C 	C 	0.38650 0.09086 0.81217 -0.11000
C 	C 	0.41997 0.09716 0.80121 0.08000
C 	C 	0.43500 0.08434 0.74964 -0.08000
C 	C 	0.41770 0.06360 0.71073 0.01400
C 	C 	0.38398 0.05878 0.71965 0.01800
C 	C 	0.36846 0.07270 0.76990 -0.00500
H 	H 	0.46085 0.08866 0.74204 0.06200
H 	H 	0.34262 0.06831 0.77737 0.04600
I 	I 	0.44976 0.12218 0.86502 -0.13700
I 	I 	0.35623 0.02939 0.65959 -0.11800
C 	C 	0.44168 0.07953 0.23175 0.01700
C 	C 	0.41274 0.06393 0.21301 0.02100
C 	C 	0.39624 0.07503 0.16138 -0.00400
C 	C 	0.40859 0.10132 0.12773 -0.10100
C 	C 	0.43598 0.11855 0.14930 0.08800
C 	C 	0.45228 0.10769 0.20136 -0.07700
H 	H 	0.37476 0.06211 0.14554 0.03200
H 	H 	0.47410 0.12024 0.21657 0.06500
I 	I 	0.39479 0.02200 0.25885 -0.11700
I 	I 	0.45420 0.16010 0.10283 -0.07100
C 	C 	0.40244 0.23059 0.96484 -0.02800
C 	C 	0.38310 0.25755 0.98010 -0.07400
C 	C 	0.39417 0.28911 0.96807 -0.00400
C 	C 	0.42464 0.29418 0.94029 -0.05700
C 	C 	0.44420 0.26705 0.92404 0.09500
C 	C 	0.43304 0.23543 0.93726 -0.06400
H 	H 	0.37906 0.30972 0.98049 0.02700
H 	H 	0.44801 0.21463 0.92522 0.06700
H 	H 	0.35958 0.25408 0.00182 0.09400
N 	N 	0.47335 0.27112 0.89516 -0.19900
H 	H 	0.48173 0.29414 0.88230 0.08800
H 	H 	0.48778 0.25095 0.88424 0.08800
C 	C 	0.29153 0.58944 0.97429 -0.02200
C 	C 	0.27489 0.61341 0.94119 -0.04300
C 	C 	0.24298 0.62206 0.95692 -0.03000
C 	C 	0.22725 0.60674 0.00589 -0.06400
C 	C 	0.24465 0.58381 0.04166 0.11900
C 	C 	0.27660 0.57498 0.02484 -0.04700
H 	H 	0.23002 0.63985 0.92962 0.04100
H 	H 	0.28975 0.55676 0.05090 0.05800
H 	H 	0.28643 0.62482 0.90235 0.04000
N 	N 	0.23115 0.57078 0.09263 -0.19900
H 	H 	0.20886 0.57917 0.10962 0.10700
H 	H 	0.24365 0.55294 0.11735 0.09700
C 	C 	0.76760 0.40769 0.96728 -0.08800
C 	C 	0.74700 0.41493 0.01610 0.02400
C 	C 	0.71392 0.42155 0.00612 0.00900
C 	C 	0.70094 0.42050 0.94724 -0.07300
C 	C 	0.72114 0.41050 0.89845 0.08900
C 	C 	0.75465 0.40515 0.90871 -0.04700
H 	H 	0.69860 0.42873 0.04387 0.04400
H 	H 	0.77054 0.39875 0.87122 0.05700
H 	H 	0.75688 0.41661 0.06157 0.04400
N 	N 	0.70842 0.40544 0.84229 -0.19800
H 	H 	0.68322 0.40611 0.83466 0.09000
H 	H 	0.72369 0.39933 0.80606 0.08900
C 	C 	0.55561 0.71912 0.96272 0.00400
C 	C 	0.55622 0.74003 0.91243 -0.07900
C 	C 	0.56294 0.77310 0.91985 0.04300
C 	C 	0.56888 0.78587 0.97773 -0.17300
C 	C 	0.56758 0.76500 0.02911 0.17800
C 	C 	0.56158 0.73155 0.02084 -0.08000
H 	H 	0.56366 0.78889 0.88041 0.02800
H 	H 	0.56102 0.71534 0.05972 0.06300
H 	H 	0.55141 0.73064 0.86747 0.05000
N 	N 	0.57098 0.77696 0.08621 -0.21100
H 	H 	0.57244 0.80194 0.09441 0.11500
H 	H 	0.57092 0.76122 0.12355 0.09700
