data_crystal

_cell_length_a 23.27556
_cell_length_b 19.84958
_cell_length_c 47.25352
_cell_angle_alpha 89.89314
_cell_angle_beta  89.89536
_cell_angle_gamma 119.41088

_symmetry_space_group_name_	'P 1'
_symmetry_space_group_name_H-M	'P 1'

loop_
_symmetry_equiv_pos_as_xyz
  x,y,z

loop_
_atom_site_label
_atom_site_type_symbol
_atom_site_fract_x
_atom_site_fract_y
_atom_site_fract_z
_atom_site_charge
C 	C 	0.61899 0.27379 0.82801 0.28400
C 	C 	0.75206 0.53742 0.90426 0.31500
C 	C 	0.78986 0.43699 0.82402 0.31500
C 	C 	0.58078 0.37111 0.91125 0.33500
C 	C 	0.83972 0.40120 0.90720 0.36700
C 	C 	0.66560 0.20676 0.91143 0.32600
Ni	Ni	0.67682 0.42419 0.85945 1.11600
Ni	Ni	0.70722 0.37436 0.92075 1.12900
Ni	Ni	0.73991 0.31091 0.86437 1.12200
O 	O 	0.60695 0.32741 0.83867 -0.36700
O 	O 	0.67894 0.27988 0.82930 -0.37000
O 	O 	0.80554 0.42758 0.92058 -0.37500
O 	O 	0.75437 0.52003 0.87774 -0.35900
O 	O 	0.71746 0.48264 0.92278 -0.35100
O 	O 	0.68146 0.21055 0.88423 -0.37600
O 	O 	0.73484 0.44020 0.82318 -0.36400
O 	O 	0.80490 0.41292 0.84695 -0.36900
O 	O 	0.69685 0.26773 0.92842 -0.33600
O 	O 	0.60928 0.42196 0.89006 -0.33400
O 	O 	0.60959 0.33483 0.92316 -0.37500
O 	O 	0.81001 0.33440 0.89388 -0.37500
O 	O 	0.69283 0.35572 0.88120 -0.71600
H 	H 	0.64853 0.30989 0.88157 0.15800
C 	C 	0.87701 0.52929 0.58447 0.33600
C 	C 	0.63159 0.27559 0.54356 0.35600
C 	C 	0.72449 0.53304 0.55575 0.36300
C 	C 	0.78349 0.27719 0.57484 0.28600
C 	C 	0.60409 0.36884 0.62317 0.31000
C 	C 	0.75572 0.38526 0.65609 0.29100
Ni	Ni	0.76443 0.40973 0.55142 1.12000
Ni	Ni	0.67920 0.29689 0.60350 1.12600
Ni	Ni	0.74506 0.47934 0.61075 1.12300
O 	O 	0.86160 0.48115 0.56286 -0.35500
O 	O 	0.83573 0.55291 0.59358 -0.36000
O 	O 	0.60632 0.32244 0.60411 -0.37300
O 	O 	0.66641 0.35030 0.53992 -0.36000
O 	O 	0.64260 0.24274 0.56561 -0.34100
O 	O 	0.78678 0.45137 0.64201 -0.38800
O 	O 	0.76419 0.51314 0.54302 -0.33900
O 	O 	0.69687 0.50194 0.58000 -0.38500
O 	O 	0.70248 0.32337 0.64559 -0.37100
O 	O 	0.77238 0.30817 0.55181 -0.34900
O 	O 	0.74781 0.26376 0.59832 -0.36700
O 	O 	0.65887 0.42782 0.63279 -0.38000
O 	O 	0.74330 0.39615 0.59022 -0.71400
H 	H 	0.78304 0.39708 0.59776 0.15500
C 	C 	0.18545 0.11596 0.76405 0.29100
C 	C 	0.94107 0.84396 0.73034 0.29100
C 	C 	0.15296 0.05199 0.70179 0.31300
C 	C 	0.97083 0.94532 0.80029 0.26000
C 	C 	0.96991 0.05417 0.68659 0.31300
C 	C 	0.99137 0.16461 0.75372 0.26800
Ni	Ni	0.06820 0.96596 0.75222 1.09900
Ni	Ni	0.94182 0.99195 0.74453 1.10700
Ni	Ni	0.08435 0.12694 0.72528 1.12100
O 	O 	0.13883 0.05344 0.77655 -0.36200
O 	O 	0.17087 0.16056 0.74763 -0.36800
O 	O 	0.93797 0.99075 0.70195 -0.40700
O 	O 	0.00362 0.88485 0.72404 -0.36200
O 	O 	0.91134 0.87602 0.74390 -0.37300
O 	O 	0.05410 0.18204 0.75195 -0.35700
O 	O 	0.14306 0.00072 0.72156 -0.35900
O 	O 	0.10685 0.06920 0.69644 -0.38200
O 	O 	0.94197 0.09492 0.74682 -0.36300
O 	O 	0.00063 0.91369 0.78563 -0.35300
O 	O 	0.94131 0.97987 0.78725 -0.37800
O 	O 	0.01460 0.11916 0.69818 -0.36900
O 	O 	0.03543 0.03512 0.74681 -0.69100
H 	H 	0.04365 0.05961 0.76559 0.17100
C 	C 	0.20850 0.74897 0.45074 0.29400
C 	C 	0.42942 0.70634 0.49368 0.36100
C 	C 	0.38882 0.84486 0.43135 0.34100
C 	C 	0.25198 0.61302 0.51948 0.34100
C 	C 	0.37555 0.62974 0.40992 0.31200
C 	C 	0.19013 0.51399 0.43041 0.28900
Ni	Ni	0.32681 0.75335 0.48273 1.11900
Ni	Ni	0.31006 0.58704 0.46549 1.12400
Ni	Ni	0.28151 0.68496 0.41963 1.12300
O 	O 	0.26368 0.79155 0.46558 -0.34700
O 	O 	0.20397 0.69664 0.43202 -0.37400
O 	O 	0.33749 0.57144 0.42658 -0.37800
O 	O 	0.39465 0.73458 0.50546 -0.33200
O 	O 	0.40697 0.66096 0.47168 -0.39300
O 	O 	0.22406 0.56983 0.41147 -0.37600
O 	O 	0.40123 0.81777 0.45428 -0.38200
O 	O 	0.33277 0.80328 0.41798 -0.35100
O 	O 	0.21633 0.51154 0.45517 -0.37900
O 	O 	0.25942 0.68172 0.51257 -0.35400
O 	O 	0.28912 0.58607 0.50793 -0.35100
O 	O 	0.36363 0.68709 0.40575 -0.38500
O 	O 	0.29082 0.66786 0.45859 -0.72000
H 	H 	0.24433 0.64204 0.46472 0.16100
C 	C 	0.33207 0.47875 0.04801 0.34200
C 	C 	0.23874 0.64730 0.12298 0.30900
C 	C 	0.16405 0.43579 0.07053 0.30900
C 	C 	0.41535 0.69551 0.10501 0.28600
C 	C 	0.19627 0.65245 0.03163 0.36400
C 	C 	0.36774 0.71998 0.01331 0.34400
Ni	Ni	0.28881 0.54739 0.09732 1.11400
Ni	Ni	0.31195 0.70871 0.06992 1.12500
Ni	Ni	0.25840 0.55851 0.03133 1.13000
O 	O 	0.30410 0.46720 0.07361 -0.36300
O 	O 	0.32529 0.52256 0.02852 -0.36800
O 	O 	0.25047 0.71369 0.04037 -0.34500
O 	O 	0.27265 0.61181 0.12809 -0.36800
O 	O 	0.23556 0.67028 0.09737 -0.36700
O 	O 	0.31348 0.65393 0.00629 -0.36300
O 	O 	0.18831 0.48660 0.09077 -0.37300
O 	O 	0.19555 0.44955 0.04624 -0.33400
O 	O 	0.38127 0.74443 0.03983 -0.38100
O 	O 	0.38761 0.61903 0.10588 -0.36800
O 	O 	0.37908 0.73042 0.10188 -0.36800
O 	O 	0.18637 0.58345 0.03756 -0.37500
O 	O 	0.30258 0.60866 0.06505 -0.71700
H 	H 	0.34816 0.62238 0.06006 0.16400
C 	C 	0.78261 0.83086 0.29674 0.28900
C 	C 	0.98420 0.07369 0.22334 0.28900
C 	C 	0.81563 0.84621 0.21844 0.30900
C 	C 	0.95718 0.07848 0.30493 0.27600
C 	C 	0.01512 0.87473 0.23513 0.32500
C 	C 	0.98855 0.88080 0.31442 0.25700
Ni	Ni	0.86825 0.97439 0.25971 1.10300
Ni	Ni	0.01479 0.99821 0.27058 1.11400
Ni	Ni	0.89240 0.82732 0.26571 1.12000
O 	O 	0.78365 0.87914 0.27677 -0.37600
O 	O 	0.82521 0.80441 0.29668 -0.38100
O 	O 	0.04691 0.92838 0.25433 -0.38700
O 	O 	0.93988 0.07467 0.24025 -0.36400
O 	O 	0.01546 0.03625 0.23053 -0.34300
O 	O 	0.95918 0.82831 0.29402 -0.38000
O 	O 	0.85295 0.92094 0.22087 -0.39300
O 	O 	0.81594 0.79954 0.23826 -0.37500
O 	O 	0.01910 0.95629 0.30877 -0.37200
O 	O 	0.89468 0.03901 0.29671 -0.35500
O 	O 	0.00585 0.08733 0.28774 -0.34600
O 	O 	0.95100 0.84367 0.23229 -0.40800
O 	O 	0.92144 0.93361 0.27177 -0.72700
H 	H 	0.91375 0.93240 0.29230 0.15000
C 	C 	0.01210 0.11430 0.14498 -0.03700
C 	C 	0.02559 0.19142 0.14367 0.03000
C 	C 	0.02410 0.22900 0.16862 -0.06200
C 	C 	0.01003 0.19027 0.19458 0.03800
C 	C 	0.99842 0.11406 0.19598 -0.09300
C 	C 	0.99903 0.07597 0.17107 0.00100
C 	C 	0.04731 0.23529 0.11678 0.01500
H 	H 	0.03534 0.28882 0.16797 0.05500
H 	H 	0.00943 0.22004 0.21368 0.04100
H 	H 	0.98899 0.01659 0.17189 0.05000
H 	H 	0.01263 0.08450 0.12588 0.06200
C 	C 	0.10332 0.24273 0.10268 -0.04200
C 	C 	0.13658 0.30248 0.08309 0.01200
C 	C 	0.11515 0.35634 0.07814 -0.05600
C 	C 	0.05383 0.34162 0.08888 0.00900
C 	C 	0.01971 0.28088 0.10803 -0.02200
H 	H 	0.12409 0.20638 0.10856 0.06000
H 	H 	0.18288 0.31186 0.07418 0.07900
H 	H 	0.03564 0.38140 0.08446 0.06300
H 	H 	0.97474 0.27332 0.11777 0.03700
C 	C 	0.55445 0.79982 0.15567 -0.05900
C 	C 	0.60064 0.78086 0.14449 0.02100
C 	C 	0.59072 0.74805 0.11746 -0.05500
C 	C 	0.53247 0.72823 0.10280 0.01700
C 	C 	0.48344 0.74045 0.11515 -0.07500
C 	C 	0.49612 0.77989 0.14099 0.01600
C 	C 	0.65668 0.79013 0.16188 0.02400
H 	H 	0.62665 0.73455 0.10840 0.05800
H 	H 	0.52351 0.69865 0.08268 0.04200
H 	H 	0.45889 0.79022 0.15064 0.03900
H 	H 	0.56249 0.82701 0.17624 0.04800
C 	C 	0.72161 0.84041 0.15314 -0.06300
C 	C 	0.77445 0.85337 0.17062 0.01800
C 	C 	0.76278 0.81662 0.19713 -0.09000
C 	C 	0.69800 0.76236 0.20499 0.01900
C 	C 	0.64519 0.74929 0.18746 -0.06200
H 	H 	0.73106 0.87112 0.13319 0.05100
H 	H 	0.82428 0.89464 0.16415 0.03300
H 	H 	0.68824 0.73345 0.22533 0.04200
H 	H 	0.59525 0.70890 0.19407 0.05200
C 	C 	0.10732 0.65625 0.16585 -0.05600
C 	C 	0.14445 0.72722 0.17972 0.02300
C 	C 	0.21361 0.76477 0.17839 -0.05800
C 	C 	0.24511 0.73417 0.16183 0.01800
C 	C 	0.20773 0.66634 0.14627 -0.08200
C 	C 	0.13886 0.62617 0.14906 0.02400
C 	C 	0.11099 0.76470 0.19398 0.02600
H 	H 	0.24283 0.81922 0.18922 0.05000
H 	H 	0.29836 0.76554 0.15981 0.03500
H 	H 	0.10961 0.57356 0.13718 0.04800
H 	H 	0.05398 0.62586 0.16726 0.05900
C 	C 	0.06697 0.78047 0.17887 -0.06100
C 	C 	0.03608 0.81708 0.19222 0.02400
C 	C 	0.04953 0.83908 0.22069 -0.09200
C 	C 	0.09390 0.82380 0.23574 0.02100
C 	C 	0.12425 0.78650 0.22248 -0.06300
H 	H 	0.05697 0.76472 0.15676 0.06200
H 	H 	0.00202 0.82869 0.18041 0.04200
H 	H 	0.10393 0.83953 0.25785 0.04000
H 	H 	0.15785 0.77428 0.23438 0.05000
C 	C 	0.63326 0.79505 0.33968 -0.05800
C 	C 	0.60961 0.71837 0.34852 0.02500
C 	C 	0.64462 0.68001 0.34160 -0.05800
C 	C 	0.70198 0.71728 0.32524 0.01900
C 	C 	0.72483 0.79345 0.31567 -0.08000
C 	C 	0.69066 0.83249 0.32336 0.01600
C 	C 	0.54658 0.67739 0.36380 0.02700
H 	H 	0.62670 0.62085 0.34843 0.05800
H 	H 	0.72771 0.68630 0.31945 0.04200
H 	H 	0.70826 0.89157 0.31652 0.03300
H 	H 	0.60665 0.82523 0.34516 0.05400
C 	C 	0.54589 0.66850 0.39327 -0.05700
C 	C 	0.48724 0.64378 0.40844 0.02500
C 	C 	0.42931 0.62877 0.39420 -0.08400
C 	C 	0.42889 0.63066 0.36454 0.02400
C 	C 	0.48736 0.65492 0.34939 -0.06000
H 	H 	0.59130 0.68453 0.40453 0.07200
H 	H 	0.48786 0.64148 0.43133 0.04900
H 	H 	0.38414 0.61807 0.35335 0.03500
H 	H 	0.48729 0.66013 0.32656 0.05200
C 	C 	0.06997 0.30305 0.41885 -0.04900
C 	C 	0.04457 0.30640 0.39229 0.01700
C 	C 	0.05605 0.37805 0.38166 -0.05000
C 	C 	0.09850 0.44623 0.39587 0.01500
C 	C 	0.13093 0.44346 0.42053 -0.07100
C 	C 	0.11310 0.37129 0.43292 0.01700
C 	C 	0.01593 0.23785 0.37372 0.05700
H 	H 	0.03539 0.38128 0.36151 0.05400
H 	H 	0.10919 0.50137 0.38680 0.04100
H 	H 	0.13552 0.36791 0.45255 0.05100
H 	H 	0.05949 0.24781 0.42775 0.06000
C 	C 	0.05329 0.20225 0.36658 -0.07300
C 	C 	0.03213 0.14702 0.34512 0.04800
C 	C 	0.97376 0.12731 0.33035 -0.10100
C 	C 	0.93418 0.15915 0.33872 0.03500
C 	C 	0.95513 0.21405 0.36037 -0.09000
H 	H 	0.10011 0.21981 0.37684 0.06100
H 	H 	0.06215 0.12123 0.33939 0.03800
H 	H 	0.88855 0.14372 0.32776 0.04200
H 	H 	0.92539 0.24022 0.36603 0.06200
C 	C 	0.02841 0.88126 0.39188 -0.06200
C 	C 	0.04207 0.81986 0.39306 0.02900
C 	C 	0.03173 0.77393 0.36895 -0.05600
C 	C 	0.01103 0.79144 0.34362 0.01400
C 	C 	0.00087 0.85544 0.34200 -0.06200
C 	C 	0.00802 0.89908 0.36646 0.03200
C 	C 	0.07429 0.80887 0.41824 0.02200
H 	H 	0.04237 0.72659 0.36954 0.05400
H 	H 	0.00565 0.75722 0.32496 0.04600
H 	H 	0.99923 0.94784 0.36561 0.01700
H 	H 	0.03542 0.91651 0.41042 0.05700
C 	C 	0.13640 0.86837 0.42678 -0.04500
C 	C 	0.17776 0.85080 0.44288 0.01800
C 	C 	0.15829 0.77347 0.44933 -0.06400
C 	C 	0.09202 0.71703 0.44547 0.01700
C 	C 	0.05005 0.73468 0.42991 -0.04900
H 	H 	0.15468 0.92683 0.41906 0.05700
H 	H 	0.22699 0.89615 0.44796 0.07900
H 	H 	0.07511 0.65774 0.45185 0.04800
H 	H 	0.00083 0.68912 0.42477 0.06100
C 	C 	0.43315 0.04660 0.44187 -0.10200
C 	C 	0.49841 0.07380 0.45064 -0.00700
C 	C 	0.53206 0.03522 0.44159 0.34200
C 	C 	0.49715 0.96291 0.42865 -0.11000
C 	C 	0.42844 0.92816 0.42577 -0.12500
C 	C 	0.39871 0.97457 0.42862 0.32100
C 	C 	0.52573 0.13018 0.47387 0.01900
F 	F 	0.59663 0.06358 0.44815 -0.41300
H 	H 	0.52177 0.92965 0.42450 0.09900
F 	F 	0.33461 0.94652 0.42147 -0.45000
H 	H 	0.40777 0.07830 0.44723 0.11000
C 	C 	0.57928 0.20414 0.46892 0.30200
C 	C 	0.61238 0.25250 0.49169 -0.05200
C 	C 	0.59227 0.22732 0.51966 -0.13900
C 	C 	0.53646 0.15480 0.52450 0.37700
C 	C 	0.50341 0.10651 0.50168 -0.14800
F 	F 	0.60064 0.22811 0.44210 -0.40900
H 	H 	0.65499 0.30858 0.48763 0.10200
F 	F 	0.51452 0.13092 0.55127 -0.43500
H 	H 	0.46173 0.04959 0.50563 0.12000
C 	C 	0.18301 0.60561 0.59040 -0.15400
C 	C 	0.11664 0.55337 0.58469 0.02400
C 	C 	0.10093 0.50204 0.56180 0.29000
C 	C 	0.14949 0.51332 0.54194 -0.06400
C 	C 	0.21350 0.57559 0.54495 -0.13400
C 	C 	0.23161 0.61619 0.57067 0.37500
C 	C 	0.06489 0.56681 0.59693 -0.01100
F 	F 	0.03731 0.44755 0.55698 -0.42100
H 	H 	0.13569 0.47920 0.52275 0.08900
F 	F 	0.29487 0.67253 0.57489 -0.41900
H 	H 	0.19611 0.64306 0.60870 0.11900
C 	C 	0.01363 0.50847 0.61285 0.32900
C 	C 	0.95194 0.50441 0.61368 -0.09700
C 	C 	0.94120 0.55726 0.59793 -0.12900
C 	C 	0.99566 0.62384 0.58712 0.34300
C 	C 	0.05763 0.62865 0.58664 -0.11700
F 	F 	0.02142 0.45125 0.62481 -0.43100
H 	H 	0.91065 0.45484 0.62349 0.08100
F 	F 	0.98692 0.67869 0.57373 -0.43900
H 	H 	0.09805 0.67616 0.57554 0.10900
C 	C 	0.54855 0.68497 0.54036 -0.14000
C 	C 	0.59961 0.70188 0.52091 0.01400
C 	C 	0.60088 0.73765 0.49509 0.28300
C 	C 	0.54788 0.74839 0.48755 -0.05700
C 	C 	0.49313 0.72297 0.50564 -0.14600
C 	C 	0.49556 0.69578 0.53280 0.37000
C 	C 	0.64512 0.67120 0.52573 0.01400
F 	F 	0.65144 0.75754 0.47660 -0.42900
H 	H 	0.54713 0.77124 0.46679 0.08800
F 	F 	0.44382 0.67311 0.55086 -0.41700
H 	H 	0.54783 0.65878 0.56060 0.12500
C 	C 	0.68740 0.69569 0.54919 0.28500
C 	C 	0.71894 0.65441 0.55748 -0.05400
C 	C 	0.70861 0.58858 0.54237 -0.14700
C 	C 	0.67148 0.56863 0.51737 0.37300
C 	C 	0.63969 0.60971 0.50913 -0.14100
F 	F 	0.69522 0.75702 0.56477 -0.42800
H 	H 	0.74853 0.67102 0.57654 0.08500
F 	F 	0.66203 0.50588 0.50228 -0.43700
H 	H 	0.60786 0.59105 0.49075 0.12200
C 	C 	0.91775 0.23860 0.59554 -0.04300
C 	C 	0.88441 0.15759 0.59322 0.02100
C 	C 	0.82686 0.12096 0.57683 -0.04800
C 	C 	0.79781 0.16340 0.56661 0.02200
C 	C 	0.82618 0.24251 0.57273 -0.06400
C 	C 	0.88885 0.28092 0.58512 0.02300
C 	C 	0.90212 0.11135 0.61226 0.03800
H 	H 	0.80197 0.05885 0.57392 0.07300
H 	H 	0.75021 0.13347 0.55630 0.06100
H 	H 	0.91216 0.34245 0.58916 0.07000
H 	H 	0.96323 0.26804 0.60743 0.07400
C 	C 	0.96760 0.12636 0.61361 -0.07200
C 	C 	0.98866 0.10007 0.63674 0.00800
C 	C 	0.94428 0.05810 0.65857 -0.07500
C 	C 	0.87723 0.03520 0.65545 0.02700
C 	C 	0.85625 0.06200 0.63247 -0.05600
H 	H 	0.00307 0.16246 0.59772 0.08200
H 	H 	0.04031 0.11655 0.63859 0.06000
H 	H 	0.84228 0.00181 0.67194 0.04700
H 	H 	0.80530 0.04890 0.63146 0.06500
C 	C 	0.30183 0.23112 0.67373 -0.06200
C 	C 	0.35037 0.20897 0.67450 0.02800
C 	C 	0.33439 0.13512 0.68455 -0.05900
C 	C 	0.26970 0.08301 0.69295 0.02700
C 	C 	0.22066 0.10467 0.69156 -0.09200
C 	C 	0.23740 0.17935 0.68206 0.02600
C 	C 	0.41580 0.25996 0.66204 0.02500
H 	H 	0.37170 0.11757 0.68527 0.06000
H 	H 	0.25780 0.02600 0.70046 0.04700
H 	H 	0.20059 0.19767 0.68141 0.02200
H 	H 	0.31385 0.28816 0.66620 0.05800
C 	C 	0.42161 0.27670 0.63299 -0.05300
C 	C 	0.48381 0.32001 0.62065 0.02500
C 	C 	0.54084 0.34641 0.63717 -0.08000
C 	C 	0.53483 0.33484 0.66660 0.01800
C 	C 	0.47247 0.29125 0.67898 -0.05800
H 	H 	0.37800 0.25399 0.61983 0.06300
H 	H 	0.48783 0.32943 0.59796 0.05600
H 	H 	0.57844 0.35587 0.67963 0.03600
H 	H 	0.46829 0.28036 0.70157 0.04700
C 	C 	0.82010 0.63534 0.71387 -0.05800
C 	C 	0.84803 0.59645 0.72844 0.02600
C 	C 	0.90571 0.63951 0.74430 -0.05900
C 	C 	0.93647 0.72041 0.74463 0.02000
C 	C 	0.90934 0.75900 0.72947 -0.08100
C 	C 	0.85031 0.71609 0.71463 0.01900
C 	C 	0.82224 0.51254 0.72361 0.02300
H 	H 	0.92762 0.61050 0.75575 0.05000
H 	H 	0.98129 0.75305 0.75672 0.02400
H 	H 	0.82850 0.74529 0.70321 0.03800
H 	H 	0.77620 0.60317 0.70119 0.05100
C 	C 	0.75373 0.46176 0.72326 -0.05800
C 	C 	0.72773 0.39789 0.70506 0.01200
C 	C 	0.77024 0.38854 0.68640 -0.07600
C 	C 	0.83697 0.42246 0.69404 0.01200
C 	C 	0.86381 0.48718 0.71179 -0.05300
H 	H 	0.72074 0.47636 0.73450 0.05100
H 	H 	0.67491 0.36448 0.70211 0.03600
H 	H 	0.86979 0.40876 0.68220 0.04000
H 	H 	0.91685 0.52195 0.71374 0.05200
C 	C 	0.00335 0.56987 0.91961 -0.13000
C 	C 	0.02388 0.54098 0.94215 0.04600
C 	C 	0.99387 0.46066 0.94643 0.25000
C 	C 	0.93785 0.41084 0.93089 -0.04400
C 	C 	0.91121 0.44122 0.91138 -0.14900
C 	C 	0.94777 0.51987 0.90389 0.35200
C 	C 	0.06984 0.59433 0.96343 -0.00900
F 	F 	0.01598 0.43153 0.96708 -0.39700
H 	H 	0.91138 0.34978 0.93611 0.10000
F 	F 	0.92476 0.54929 0.88372 -0.44800
H 	H 	0.02777 0.63150 0.91545 0.12300
C 	C 	0.13795 0.63332 0.95827 0.30600
C 	C 	0.18185 0.66731 0.98074 -0.06300
C 	C 	0.15782 0.65991 0.00854 -0.12400
C 	C 	0.09014 0.63204 0.01279 0.36200
C 	C 	0.04618 0.59881 0.99029 -0.10300
F 	F 	0.16155 0.63299 0.93201 -0.41700
H 	H 	0.23416 0.69124 0.97699 0.12700
F 	F 	0.06636 0.62887 0.03930 -0.42900
H 	H 	0.99357 0.57180 0.99416 0.09800
C 	C 	0.59280 0.03511 0.96140 -0.07500
C 	C 	0.53730 0.98206 0.94610 -0.07000
C 	C 	0.52443 0.00286 0.91943 0.36800
C 	C 	0.56600 0.07658 0.90841 -0.09000
C 	C 	0.62111 0.13014 0.92382 -0.11300
C 	C 	0.63477 0.10874 0.95031 0.34800
C 	C 	0.48928 0.90798 0.95927 0.04200
F 	F 	0.47119 0.95187 0.90433 -0.44900
H 	H 	0.55519 0.09230 0.88793 0.09900
F 	F 	0.68919 0.15854 0.96504 -0.42100
H 	H 	0.60292 0.01957 0.98206 0.12000
C 	C 	0.50676 0.85100 0.96523 0.27500
C 	C 	0.46408 0.78540 0.98102 -0.04900
C 	C 	0.40383 0.77640 0.99091 -0.14500
C 	C 	0.38506 0.83153 0.98365 0.37600
C 	C 	0.42749 0.89673 0.96781 -0.15200
F 	F 	0.56583 0.86034 0.95649 -0.42100
H 	H 	0.47910 0.74338 0.98663 0.09000
F 	F 	0.32795 0.82491 0.99383 -0.44200
H 	H 	0.41357 0.94030 0.96324 0.12800
C 	C 	0.34844 0.34381 0.99987 -0.13900
C 	C 	0.41736 0.38109 0.99776 0.02100
C 	C 	0.45590 0.43326 0.01896 0.28400
C 	C 	0.42601 0.45695 0.03936 -0.05700
C 	C 	0.35776 0.42857 0.03861 -0.14400
C 	C 	0.31863 0.36646 0.02065 0.37300
C 	C 	0.44872 0.37465 0.97151 0.01000
F 	F 	0.52256 0.46529 0.01848 -0.42100
H 	H 	0.45647 0.50282 0.05391 0.08400
F 	F 	0.25201 0.33491 0.02099 -0.43500
H 	H 	0.31812 0.30131 0.98425 0.13700
C 	C 	0.44363 0.30380 0.96370 0.29300
C 	C 	0.48032 0.30058 0.94081 -0.05700
C 	C 	0.52432 0.36859 0.92631 -0.13600
C 	C 	0.52378 0.43772 0.93224 0.37200
C 	C 	0.48581 0.44045 0.95468 -0.13400
F 	F 	0.40598 0.23902 0.97917 -0.41400
H 	H 	0.47853 0.24634 0.93577 0.10000
F 	F 	0.56377 0.50354 0.91774 -0.43700
H 	H 	0.48755 0.49461 0.95981 0.12500
C 	C 	0.95949 0.31602 0.78676 -0.04200
C 	C 	0.92953 0.33340 0.76417 0.01600
C 	C 	0.92603 0.30062 0.73750 -0.05000
C 	C 	0.94903 0.24794 0.73383 0.00800
C 	C 	0.97629 0.22809 0.75672 -0.05700
C 	C 	0.98299 0.26380 0.78298 -0.01600
C 	C 	0.89547 0.37873 0.76937 0.02400
H 	H 	0.90373 0.31413 0.71986 0.05100
H 	H 	0.94415 0.22106 0.71338 0.04600
H 	H 	0.00407 0.24899 0.80074 0.06900
H 	H 	0.96230 0.34068 0.80748 0.05300
C 	C 	0.82699 0.34429 0.76541 -0.06000
C 	C 	0.79132 0.37468 0.77907 0.01300
C 	C 	0.82361 0.43724 0.79769 -0.08600
C 	C 	0.89280 0.48019 0.79693 0.01800
C 	C 	0.92875 0.45061 0.78301 -0.06000
H 	H 	0.80085 0.29087 0.75365 0.05400
H 	H 	0.73801 0.34409 0.77782 0.04200
H 	H 	0.91859 0.53138 0.80991 0.05300
H 	H 	0.98198 0.48018 0.78485 0.05500
C 	C 	0.50599 0.21897 0.76784 -0.05600
C 	C 	0.44772 0.16618 0.78179 0.02400
C 	C 	0.45192 0.13088 0.80692 -0.05100
C 	C 	0.51309 0.15604 0.81986 0.01900
C 	C 	0.56991 0.21858 0.80840 -0.07300
C 	C 	0.56710 0.24419 0.78095 0.01700
C 	C 	0.38289 0.15442 0.77207 0.02500
H 	H 	0.40750 0.08804 0.81747 0.06600
H 	H 	0.51501 0.13348 0.84052 0.04600
H 	H 	0.61119 0.29032 0.77127 0.03400
H 	H 	0.50373 0.24395 0.74776 0.04600
C 	C 	0.37186 0.21786 0.76948 -0.05700
C 	C 	0.30764 0.20573 0.76586 0.01800
C 	C 	0.25403 0.13020 0.76525 -0.07800
C 	C 	0.26569 0.06711 0.76628 0.02100
C 	C 	0.32975 0.07924 0.76919 -0.05900
H 	H 	0.41255 0.27633 0.77142 0.05400
H 	H 	0.29953 0.25491 0.76453 0.04500
H 	H 	0.22497 0.00849 0.76506 0.03700
H 	H 	0.33777 0.02997 0.77039 0.06100
C 	C 	0.95312 0.84012 0.86860 -0.04400
C 	C 	0.89836 0.84151 0.88061 0.02100
C 	C 	0.88047 0.89510 0.87019 -0.05300
C 	C 	0.90807 0.93494 0.84488 0.00800
C 	C 	0.95572 0.92375 0.83053 -0.06200
C 	C 	0.98222 0.88197 0.84396 -0.01200
C 	C 	0.85174 0.77595 0.89879 0.02800
H 	H 	0.84169 0.90134 0.88044 0.05600
H 	H 	0.89002 0.97114 0.83582 0.04400
H 	H 	0.02236 0.87738 0.83425 0.06000
H 	H 	0.96976 0.80182 0.87696 0.05500
C 	C 	0.78436 0.73572 0.89179 -0.04900
C 	C 	0.74639 0.65734 0.89853 0.02300
C 	C 	0.77596 0.61851 0.91151 -0.06400
C 	C 	0.83873 0.66183 0.92349 0.02500
C 	C 	0.87604 0.74115 0.91775 -0.05100
H 	H 	0.76324 0.76256 0.87859 0.05800
H 	H 	0.69646 0.62489 0.89056 0.06400
H 	H 	0.86105 0.63299 0.93479 0.05200
H 	H 	0.92621 0.77331 0.92544 0.05600
