data_crystal

_cell_length_a 26.18343
_cell_length_b 26.53898
_cell_length_c 34.58104
_cell_angle_alpha 95.52979
_cell_angle_beta  95.52673
_cell_angle_gamma 125.83479

_symmetry_space_group_name_	'P 1'
_symmetry_space_group_name_H-M	'P 1'

loop_
_symmetry_equiv_pos_as_xyz
  x,y,z

loop_
_atom_site_label
_atom_site_type_symbol
_atom_site_fract_x
_atom_site_fract_y
_atom_site_fract_z
_atom_site_charge
C 	C 	0.92729 0.00560 0.97839 0.02800
C 	C 	0.89213 0.94039 0.97776 -0.07300
C 	C 	0.92255 0.91108 0.97642 0.02800
C 	C 	0.98820 0.94711 0.97523 -0.06800
C 	C 	0.02330 0.01211 0.97510 0.02400
C 	C 	0.99289 0.04143 0.97695 -0.06800
H 	H 	0.84133 0.91262 0.97855 0.04900
H 	H 	0.01207 0.92476 0.97475 0.04700
H 	H 	0.02002 0.09176 0.97705 0.04700
C 	C 	0.96939 0.02333 0.47171 0.03400
C 	C 	0.93381 0.95849 0.47291 -0.07700
C 	C 	0.96441 0.92925 0.47436 0.03400
C 	C 	0.03019 0.96464 0.47374 -0.07900
C 	C 	0.06594 0.02946 0.47288 0.03300
C 	C 	0.03545 0.05871 0.47197 -0.07900
H 	H 	0.88288 0.93119 0.47321 0.05000
H 	H 	0.05352 0.94175 0.47399 0.05100
H 	H 	0.06305 0.10892 0.47153 0.05000
Cu	Cu	0.60294 0.22056 0.00002 0.92800
Cu	Cu	0.64690 0.22295 0.91446 0.86700
Cu	Cu	0.63812 0.32252 0.95120 0.89700
Cu	Cu	0.61999 0.34506 0.03296 0.89400
C 	C 	0.63087 0.26619 0.08352 0.31000
O 	O 	0.51319 0.19312 0.00334 -0.36300
C 	C 	0.61892 0.28648 0.86453 0.30300
O 	O 	0.66180 0.31956 0.00485 -0.64000
O 	O 	0.59137 0.22909 0.94441 -0.64200
O 	O 	0.63462 0.16863 0.99274 -0.37000
O 	O 	0.70650 0.23422 0.95676 -0.44200
O 	O 	0.60488 0.29512 0.07578 -0.38900
O 	O 	0.68939 0.41385 0.95970 -0.38000
C 	C 	0.68960 0.45100 0.98817 0.29500
C 	C 	0.49258 0.22460 0.99049 0.28200
O 	O 	0.53413 0.28420 0.98769 -0.39700
O 	O 	0.66824 0.43206 0.02096 -0.39500
O 	O 	0.62871 0.22750 0.05526 -0.35300
C 	C 	0.68786 0.19143 0.97913 0.29200
O 	O 	0.62203 0.32370 0.89458 -0.37000
O 	O 	0.60887 0.23264 0.86865 -0.42500
H 	H 	0.70853 0.34395 0.01459 0.16700
H 	H 	0.54638 0.20428 0.93022 0.17400
Cu	Cu	0.77054 0.36108 0.45723 0.92700
Cu	Cu	0.76789 0.31564 0.54215 0.87100
Cu	Cu	0.66692 0.32534 0.50620 0.89700
Cu	Cu	0.64475 0.34576 0.42521 0.89600
C 	C 	0.72391 0.33526 0.37390 0.31300
O 	O 	0.79958 0.45065 0.45514 -0.35800
C 	C 	0.70248 0.34043 0.59246 0.30300
O 	O 	0.67001 0.30331 0.45231 -0.63900
O 	O 	0.76167 0.37116 0.51294 -0.64100
O 	O 	0.82177 0.32786 0.46342 -0.37200
O 	O 	0.75483 0.25681 0.49919 -0.44100
O 	O 	0.69500 0.36114 0.38217 -0.37700
O 	O 	0.57429 0.27480 0.49776 -0.38600
C 	C 	0.53608 0.27263 0.46859 0.29500
C 	C 	0.76711 0.47065 0.46754 0.28200
O 	O 	0.70720 0.42929 0.47106 -0.39800
O 	O 	0.55687 0.29936 0.43762 -0.39400
O 	O 	0.76347 0.33713 0.40172 -0.36400
C 	C 	0.79769 0.27472 0.47649 0.28900
O 	O 	0.66566 0.33972 0.56298 -0.38200
O 	O 	0.75774 0.35212 0.58825 -0.40700
H 	H 	0.64500 0.25732 0.44207 0.16500
H 	H 	0.78690 0.41538 0.52745 0.17500
C 	C 	0.68076 0.29899 0.69420 -0.11600
C 	C 	0.65202 0.32667 0.70737 0.00200
C 	C 	0.63978 0.35914 0.68281 0.11900
C 	C 	0.65686 0.36413 0.64539 -0.03400
C 	C 	0.68548 0.33614 0.63212 -0.12400
C 	C 	0.69664 0.30276 0.65660 0.18800
C 	C 	0.63467 0.32114 0.74691 0.00400
O 	O 	0.61240 0.38711 0.69561 -0.27500
H 	H 	0.64812 0.38995 0.62683 0.05900
O 	O 	0.72316 0.27386 0.64382 -0.30500
H 	H 	0.69016 0.27384 0.71303 0.06500
C 	C 	0.58199 0.26291 0.75360 0.11300
C 	C 	0.57398 0.25340 0.79234 -0.03500
C 	C 	0.61875 0.30149 0.82461 -0.12400
C 	C 	0.66856 0.36135 0.81783 0.18400
C 	C 	0.67610 0.37103 0.77903 -0.11100
O 	O 	0.53862 0.21509 0.72230 -0.27700
H 	H 	0.53436 0.20778 0.79730 0.05400
O 	O 	0.71089 0.40991 0.84904 -0.28500
H 	H 	0.71610 0.41637 0.77400 0.07600
H 	H 	0.68624 0.23037 0.63051 0.13300
H 	H 	0.55469 0.18969 0.71737 0.13900
H 	H 	0.74647 0.40651 0.85505 0.13500
H 	H 	0.56549 0.35423 0.68694 0.14900
C 	C 	0.72376 0.28212 0.18052 -0.11500
C 	C 	0.68269 0.27475 0.20639 0.00400
C 	C 	0.62216 0.25883 0.19121 0.12200
C 	C 	0.60449 0.25366 0.15074 -0.03500
C 	C 	0.64675 0.26400 0.12505 -0.12000
C 	C 	0.70609 0.27698 0.13994 0.18700
C 	C 	0.70555 0.29032 0.24956 0.00400
O 	O 	0.58175 0.25193 0.21624 -0.27600
H 	H 	0.55836 0.24281 0.13942 0.06000
O 	O 	0.74710 0.28531 0.11500 -0.28700
H 	H 	0.77018 0.29374 0.19202 0.07000
C 	C 	0.68125 0.24199 0.27197 0.11800
C 	C 	0.69128 0.25723 0.31326 -0.03600
C 	C 	0.72592 0.32052 0.33231 -0.12200
C 	C 	0.75524 0.36905 0.31017 0.19500
C 	C 	0.74480 0.35381 0.26891 -0.11400
O 	O 	0.64434 0.17974 0.25342 -0.28000
H 	H 	0.66958 0.21970 0.33026 0.04700
O 	O 	0.79098 0.43127 0.32862 -0.28600
H 	H 	0.76464 0.39128 0.25184 0.07200
H 	H 	0.77472 0.33130 0.11463 0.13800
H 	H 	0.67502 0.16967 0.25098 0.14400
H 	H 	0.83558 0.44494 0.33512 0.15000
H 	H 	0.55426 0.20625 0.21746 0.15300
C 	C 	0.88665 0.64836 0.47714 -0.06500
C 	C 	0.84621 0.66687 0.47690 0.02600
C 	C 	0.78039 0.62138 0.47534 -0.06500
C 	C 	0.75488 0.55769 0.47326 0.01200
C 	C 	0.79500 0.53869 0.47259 -0.08500
C 	C 	0.86123 0.58460 0.47503 0.01400
C 	C 	0.87263 0.73372 0.47753 0.00100
H 	H 	0.74889 0.63531 0.47544 0.04600
H 	H 	0.70375 0.52304 0.47146 0.03200
H 	H 	0.89295 0.57095 0.47503 0.03500
H 	H 	0.93764 0.68324 0.47849 0.04700
C 	C 	0.91669 0.78028 0.51056 -0.03900
C 	C 	0.94419 0.84399 0.51032 -0.03600
C 	C 	0.92804 0.86171 0.47699 -0.00400
C 	C 	0.88231 0.81494 0.44450 -0.03600
C 	C 	0.85470 0.75117 0.44476 -0.03900
H 	H 	0.93024 0.76720 0.53617 0.03900
H 	H 	0.97928 0.87975 0.53562 0.03800
H 	H 	0.86964 0.82813 0.41861 0.03800
H 	H 	0.82045 0.71550 0.41920 0.04000
C 	C 	0.90771 0.22856 0.46446 -0.06800
C 	C 	0.86531 0.16280 0.46222 0.02600
C 	C 	0.79962 0.13341 0.46013 -0.06800
C 	C 	0.77696 0.16977 0.46239 0.01500
C 	C 	0.81981 0.23595 0.46685 -0.09400
C 	C 	0.88503 0.26499 0.46667 0.01400
C 	C 	0.89025 0.12548 0.46504 -0.00000
H 	H 	0.76643 0.08264 0.45804 0.04500
H 	H 	0.72635 0.14668 0.46182 0.02800
H 	H 	0.91855 0.31594 0.46991 0.03100
H 	H 	0.95843 0.25160 0.46558 0.04600
C 	C 	0.87192 0.07708 0.43359 -0.03900
C 	C 	0.89569 0.04183 0.43639 -0.03700
C 	C 	0.93792 0.05470 0.47065 -0.00300
C 	C 	0.95499 0.10208 0.50243 -0.03700
C 	C 	0.93129 0.13731 0.49964 -0.03900
H 	H 	0.83991 0.06729 0.40686 0.03900
H 	H 	0.88247 0.00555 0.41163 0.03800
H 	H 	0.98749 0.11231 0.52902 0.03800
H 	H 	0.94496 0.17394 0.52429 0.03700
C 	C 	0.35612 0.16002 0.43738 -0.06700
C 	C 	0.33632 0.17046 0.47164 0.02700
C 	C 	0.38249 0.21418 0.50504 -0.06600
C 	C 	0.44779 0.24694 0.50422 0.01700
C 	C 	0.46749 0.23706 0.46980 -0.08900
C 	C 	0.42141 0.19355 0.43638 0.01600
C 	C 	0.26729 0.13556 0.47251 0.00000
H 	H 	0.36778 0.22296 0.53153 0.04700
H 	H 	0.48306 0.28064 0.53013 0.03400
H 	H 	0.43617 0.18526 0.40976 0.02800
H 	H 	0.32093 0.12585 0.41161 0.04600
C 	C 	0.22707 0.13666 0.44323 -0.03900
C 	C 	0.16140 0.10201 0.44332 -0.03700
C 	C 	0.13549 0.06679 0.47308 -0.00300
C 	C 	0.17591 0.06662 0.50278 -0.03700
C 	C 	0.24138 0.10038 0.50230 -0.03900
H 	H 	0.24666 0.16414 0.42032 0.03900
H 	H 	0.13061 0.10223 0.42015 0.03800
H 	H 	0.15651 0.04008 0.52610 0.03700
H 	H 	0.27191 0.09891 0.52491 0.03900
C 	C 	0.81777 0.75344 0.00833 -0.03900
C 	C 	0.81913 0.71356 0.97937 0.00100
C 	C 	0.85333 0.73844 0.94890 -0.03800
C 	C 	0.88610 0.80263 0.94753 -0.03700
C 	C 	0.88588 0.84277 0.97698 0.00000
C 	C 	0.85145 0.81782 0.00735 -0.03800
C 	C 	0.78605 0.64614 0.98151 0.02800
H 	H 	0.85496 0.70816 0.92651 0.04000
H 	H 	0.91200 0.82126 0.92375 0.03800
H 	H 	0.85121 0.84842 0.03034 0.03900
H 	H 	0.79101 0.73462 0.03175 0.03900
C 	C 	0.79931 0.62909 0.01618 -0.06700
C 	C 	0.76749 0.56534 0.01843 0.01500
C 	C 	0.72281 0.51803 0.98584 -0.08600
C 	C 	0.71014 0.53499 0.95098 0.01600
C 	C 	0.74122 0.59876 0.94893 -0.06400
H 	H 	0.83441 0.66526 0.04132 0.04600
H 	H 	0.77812 0.55272 0.04533 0.02900
H 	H 	0.67568 0.49877 0.92568 0.04100
H 	H 	0.73030 0.61137 0.92212 0.04900
C 	C 	0.87884 0.10657 0.01786 -0.03900
C 	C 	0.82826 0.08819 0.98752 0.00000
C 	C 	0.81180 0.04430 0.95361 -0.03900
C 	C 	0.84516 0.01848 0.95024 -0.03900
C 	C 	0.89524 0.03627 0.98075 0.00000
C 	C 	0.91220 0.08068 0.01449 -0.03900
C 	C 	0.79376 0.11625 0.99064 0.02700
H 	H 	0.77330 0.03039 0.92985 0.03600
H 	H 	0.83185 0.98434 0.92405 0.03800
H 	H 	0.95059 0.09444 0.03829 0.03900
H 	H 	0.89202 0.14060 0.04408 0.04000
C 	C 	0.72778 0.07765 0.99111 -0.06700
C 	C 	0.69357 0.10291 0.98945 0.01500
C 	C 	0.72506 0.16695 0.98715 -0.09300
C 	C 	0.79168 0.20617 0.98875 0.01600
C 	C 	0.82582 0.18090 0.99043 -0.06800
H 	H 	0.70277 0.02779 0.99173 0.04700
H 	H 	0.64226 0.07219 0.98845 0.03300
H 	H 	0.81675 0.25592 0.98774 0.03000
H 	H 	0.87685 0.21116 0.99040 0.04600
C 	C 	0.20335 0.12560 0.00642 -0.03900
C 	C 	0.22318 0.11074 0.97371 0.00100
C 	C 	0.17731 0.06652 0.94041 -0.03900
C 	C 	0.11204 0.03598 0.94029 -0.03900
C 	C 	0.09212 0.04943 0.97347 0.00100
C 	C 	0.13807 0.09509 0.00628 -0.03900
C 	C 	0.29168 0.13948 0.97505 0.02600
H 	H 	0.19220 0.05519 0.91489 0.03800
H 	H 	0.07689 0.00102 0.91475 0.03800
H 	H 	0.12313 0.10572 0.03204 0.03800
H 	H 	0.23843 0.15972 0.03225 0.03900
C 	C 	0.33651 0.20525 0.97914 -0.06600
C 	C 	0.40191 0.23291 0.98307 0.01300
C 	C 	0.42316 0.19498 0.98298 -0.08800
C 	C 	0.37794 0.12890 0.97764 0.01400
C 	C 	0.31256 0.10135 0.97380 -0.06600
H 	H 	0.32075 0.23500 0.97981 0.04600
H 	H 	0.43606 0.28389 0.98703 0.03100
H 	H 	0.39342 0.09893 0.97688 0.03300
H 	H 	0.27823 0.05046 0.97052 0.04600
