data_crystal

_cell_length_a 40.69103
_cell_length_b 38.07130
_cell_length_c 25.95850
_cell_angle_alpha 89.96813
_cell_angle_beta  89.94773
_cell_angle_gamma 87.52815

_symmetry_space_group_name_	'P 1'
_symmetry_space_group_name_H-M	'P 1'

loop_
_symmetry_equiv_pos_as_xyz
  x,y,z

loop_
_atom_site_label
_atom_site_type_symbol
_atom_site_fract_x
_atom_site_fract_y
_atom_site_fract_z
_atom_site_charge
C 	C 	0.45449 0.55915 0.99266 -0.04200
C 	C 	0.48546 0.57337 0.98938 -0.03900
C 	C 	0.45121 0.52245 0.99172 0.01100
C 	C 	0.47951 0.50004 0.98523 -0.00800
C 	C 	0.51104 0.51433 0.98504 -0.00400
C 	C 	0.51410 0.55125 0.98744 0.00600
C 	C 	0.47636 0.46331 0.97932 0.00800
C 	C 	0.50486 0.44154 0.97178 -0.04200
C 	C 	0.53945 0.49169 0.98251 0.00500
C 	C 	0.54588 0.56519 0.98818 -0.00700
C 	C 	0.57372 0.54234 0.98990 -0.04900
C 	C 	0.57084 0.50588 0.98764 -0.00600
C 	C 	0.42008 0.50770 0.99674 -0.01800
C 	C 	0.41701 0.47151 0.99029 -0.04400
C 	C 	0.44464 0.44921 0.98099 -0.00900
C 	C 	0.55071 0.60351 0.98542 0.00600
C 	C 	0.56547 0.61768 0.94161 -0.04300
C 	C 	0.57552 0.65232 0.94200 -0.04100
C 	C 	0.57052 0.67331 0.98595 0.00200
C 	C 	0.55388 0.65989 0.02859 -0.03700
C 	C 	0.54498 0.62479 0.02897 -0.03900
C 	C 	0.60079 0.48304 0.99403 0.00200
C 	C 	0.60655 0.46526 0.04077 -0.03400
C 	C 	0.63781 0.45050 0.05170 -0.04700
C 	C 	0.62579 0.48358 0.95683 -0.04000
C 	C 	0.65712 0.46934 0.96815 -0.05200
C 	C 	0.66369 0.45476 0.01685 0.01600
C 	C 	0.39094 0.52925 0.01295 0.02500
C 	C 	0.38262 0.53156 0.06531 -0.04700
C 	C 	0.35280 0.54799 0.08032 -0.04000
C 	C 	0.33102 0.56189 0.04300 0.01000
C 	C 	0.34039 0.56179 0.99097 -0.04500
C 	C 	0.37005 0.54502 0.97589 -0.05300
C 	C 	0.43978 0.41115 0.97389 0.00700
C 	C 	0.42282 0.39955 0.93045 -0.04400
C 	C 	0.41307 0.36484 0.92762 -0.04200
C 	C 	0.42119 0.34102 0.96737 0.00200
C 	C 	0.43889 0.35236 0.01022 -0.03700
C 	C 	0.44784 0.38735 0.01373 -0.03900
C 	C 	0.53600 0.45547 0.97407 -0.04000
H 	H 	0.57013 0.60145 0.90790 0.03900
H 	H 	0.58770 0.66268 0.90848 0.03500
H 	H 	0.54896 0.67625 0.06208 0.03900
H 	H 	0.53391 0.61403 0.06318 0.04000
H 	H 	0.32393 0.57312 0.96204 0.03800
H 	H 	0.37648 0.54359 0.93542 0.04200
H 	H 	0.34602 0.54869 0.12069 0.03800
H 	H 	0.39881 0.51970 0.09416 0.04300
H 	H 	0.41615 0.41781 0.89979 0.04000
H 	H 	0.39893 0.35651 0.89481 0.03800
H 	H 	0.46046 0.39615 0.04779 0.04000
H 	H 	0.44498 0.33426 0.04135 0.03900
H 	H 	0.58725 0.46426 0.06943 0.03900
H 	H 	0.64242 0.43783 0.08852 0.04000
H 	H 	0.62136 0.49665 0.92026 0.03700
H 	H 	0.67667 0.47114 0.94003 0.03800
H 	H 	0.43305 0.57691 0.99507 0.04100
H 	H 	0.48696 0.60166 0.98871 0.04000
H 	H 	0.59792 0.55307 0.99305 0.03900
H 	H 	0.55740 0.43801 0.96828 0.03900
H 	H 	0.50310 0.41375 0.96412 0.03900
H 	H 	0.39294 0.46049 0.99348 0.03900
Zn	Zn	0.33927 0.14305 0.96521 1.21900
C 	C 	0.27910 0.10892 0.98978 0.31400
O 	O 	0.34649 0.13350 0.03897 -0.44800
O 	O 	0.29831 0.08548 0.01339 -0.44600
O 	O 	0.37217 0.08024 0.02443 -0.49100
C 	C 	0.33843 0.09647 0.87750 0.30600
O 	O 	0.35308 0.12305 0.89846 -0.45300
O 	O 	0.32440 0.07338 0.90677 -0.49700
C 	C 	0.36683 0.10782 0.05400 0.31400
O 	O 	0.38827 0.17438 0.96497 -0.32800
Zn	Zn	0.33929 0.06440 0.97647 1.17000
O 	O 	0.29206 0.13340 0.96137 -0.43900
C 	C 	0.36877 0.20226 0.96360 0.28500
O 	O 	0.33769 0.19657 0.96106 -0.39800
C 	C 	0.49085 0.98927 0.51331 0.01200
C 	C 	0.46362 0.01345 0.50653 0.01100
C 	C 	0.51750 0.98943 0.47881 -0.05400
C 	C 	0.51718 0.01335 0.43747 0.01100
C 	C 	0.46363 0.03785 0.46590 -0.05500
C 	C 	0.49015 0.03789 0.43119 0.01200
H 	H 	0.44301 0.05652 0.46108 0.05200
H 	H 	0.53821 0.97091 0.48388 0.05100
C 	C 	0.49062 0.06218 0.39006 -0.01500
C 	C 	0.51602 0.06094 0.35336 0.00800
C 	C 	0.50616 0.07557 0.30485 -0.05000
C 	C 	0.47306 0.08743 0.30347 -0.00300
S 	S 	0.45706 0.07939 0.36118 0.00400
H 	H 	0.52097 0.07317 0.27034 0.04500
C 	C 	0.54367 0.01408 0.40238 -0.01400
C 	C 	0.54292 0.03690 0.35987 0.00700
C 	C 	0.56430 0.02520 0.31924 -0.04800
C 	C 	0.58099 0.99310 0.32978 -0.00300
S 	S 	0.56853 0.97954 0.38746 -0.00100
H 	H 	0.56476 0.03738 0.28163 0.04600
C 	C 	0.46337 0.96398 0.58819 0.00900
C 	C 	0.49001 0.96450 0.55376 -0.01600
S 	S 	0.52320 0.94835 0.58493 0.00500
C 	C 	0.50540 0.93817 0.64056 -0.00400
C 	C 	0.47198 0.94834 0.63653 -0.05100
C 	C 	0.43639 0.01165 0.53996 -0.01400
C 	C 	0.43632 0.98779 0.58119 0.00700
C 	C 	0.41420 0.99860 0.62139 -0.04700
C 	C 	0.39789 0.03108 0.61200 -0.00400
S 	S 	0.41130 0.04582 0.55558 -0.00100
H 	H 	0.41322 0.98568 0.65842 0.04600
H 	H 	0.45555 0.94820 0.66927 0.04400
Zn	Zn	0.63968 0.87713 0.97858 1.21800
C 	C 	0.69659 0.91412 0.94540 0.32300
O 	O 	0.62818 0.89506 0.04817 -0.44300
O 	O 	0.67600 0.93900 0.92833 -0.45200
O 	O 	0.65448 0.94596 0.03713 -0.49000
C 	C 	0.60763 0.91225 0.89358 0.31500
O 	O 	0.62911 0.88709 0.90645 -0.45900
O 	O 	0.60126 0.93839 0.92539 -0.49800
C 	C 	0.64199 0.92262 0.06775 0.30300
O 	O 	0.59264 0.84291 0.98055 -0.33200
Zn	Zn	0.63521 0.95555 0.97015 1.17000
O 	O 	0.68616 0.88961 0.97644 -0.44300
C 	C 	0.61338 0.81620 0.98446 0.28500
O 	O 	0.64409 0.82376 0.98686 -0.39300
Zn	Zn	0.13848 0.63176 0.06692 1.22100
C 	C 	0.09378 0.68940 0.03975 0.32200
O 	O 	0.12372 0.64679 0.13545 -0.45400
O 	O 	0.07209 0.67472 0.06933 -0.45200
O 	O 	0.08074 0.61049 0.13693 -0.49200
C 	C 	0.10674 0.59647 0.98442 0.30300
O 	O 	0.13007 0.59394 0.01916 -0.46900
O 	O 	0.07877 0.61317 0.99544 -0.48300
C 	C 	0.10318 0.62786 0.16138 0.31400
O 	O 	0.17700 0.59223 0.10603 -0.33000
Zn	Zn	0.06606 0.62147 0.06693 1.17200
O 	O 	0.12087 0.67177 0.02619 -0.44300
C 	C 	0.19904 0.61304 0.08910 0.28400
O 	O 	0.18738 0.64047 0.06467 -0.39800
C 	C 	0.06017 0.45431 0.60472 0.01200
C 	C 	0.03294 0.43241 0.59935 0.01100
C 	C 	0.07333 0.47050 0.56115 -0.05400
C 	C 	0.06121 0.46312 0.51190 0.01100
C 	C 	0.01991 0.42618 0.55025 -0.05500
C 	C 	0.03459 0.44039 0.50633 0.01200
H 	H 	0.00021 0.40814 0.54596 0.05200
H 	H 	0.09462 0.48644 0.56512 0.05100
C 	C 	0.02587 0.42946 0.45644 -0.01500
C 	C 	0.04184 0.44165 0.41240 0.00800
C 	C 	0.02278 0.43872 0.36678 -0.05000
C 	C 	0.99206 0.42471 0.37577 -0.00400
S 	S 	0.98848 0.41753 0.43888 0.00500
H 	H 	0.02970 0.44923 0.32981 0.04400
C 	C 	0.07755 0.47448 0.46734 -0.01400
C 	C 	0.06792 0.46433 0.41789 0.00700
C 	C 	0.07817 0.48759 0.37867 -0.04900
C 	C 	0.09475 0.51629 0.39780 -0.00300
S 	S 	0.09583 0.51271 0.46186 0.00100
H 	H 	0.07012 0.48624 0.33906 0.04600
C 	C 	0.06392 0.43879 0.69642 0.00800
C 	C 	0.07561 0.45647 0.65315 -0.01400
S 	S 	0.09547 0.49111 0.67407 0.00100
C 	C 	0.09228 0.48381 0.73717 -0.00300
C 	C 	0.07370 0.45405 0.74379 -0.04900
C 	C 	0.02189 0.41412 0.64289 -0.01400
C 	C 	0.03682 0.41739 0.69125 0.00800
C 	C 	0.01581 0.40863 0.73279 -0.04900
C 	C 	0.98432 0.39992 0.71692 -0.00300
S 	S 	0.98304 0.40354 0.65286 0.00000
H 	H 	0.02170 0.41292 0.77284 0.04600
H 	H 	0.06438 0.44647 0.78101 0.04600
Zn	Zn	0.85688 0.37597 0.05178 1.22100
C 	C 	0.80124 0.42448 0.05091 0.32400
O 	O 	0.85419 0.38924 0.97920 -0.46200
O 	O 	0.81991 0.44764 0.02926 -0.44900
O 	O 	0.88860 0.43446 0.98645 -0.49500
C 	C 	0.87744 0.41253 0.14229 0.31000
O 	O 	0.88342 0.38554 0.11187 -0.47400
O 	O 	0.86478 0.44204 0.12336 -0.48200
C 	C 	0.87584 0.40960 0.95876 0.31600
O 	O 	0.89834 0.33349 0.02994 -0.33300
Zn	Zn	0.86837 0.45247 0.05008 1.17100
O 	O 	0.81457 0.39696 0.07471 -0.44800
C 	C 	0.87609 0.31088 0.03884 0.28900
O 	O 	0.84740 0.32389 0.05189 -0.39700
C 	C 	0.92741 0.00700 0.93081 -0.04300
C 	C 	0.93819 0.04057 0.94086 -0.04100
C 	C 	0.95005 0.97803 0.92709 0.00800
C 	C 	0.98406 0.98338 0.93326 -0.00800
C 	C 	0.99501 0.01752 0.94328 -0.00600
C 	C 	0.97186 0.04608 0.94868 0.00500
C 	C 	0.00704 0.95449 0.93117 0.00900
C 	C 	0.04089 0.96039 0.93470 -0.04200
C 	C 	0.02910 0.02295 0.94835 0.00400
C 	C 	0.98289 0.07971 0.96169 -0.00800
C 	C 	0.01659 0.08491 0.96636 -0.04800
C 	C 	0.03977 0.05711 0.95942 -0.00700
C 	C 	0.93935 0.94360 0.91785 -0.01100
C 	C 	0.96242 0.91531 0.91556 -0.04500
C 	C 	0.99570 0.92011 0.92573 -0.01400
C 	C 	0.95947 0.10953 0.97237 0.00900
C 	C 	0.95725 0.13819 0.93844 -0.04600
C 	C 	0.93830 0.16830 0.95153 -0.03500
C 	C 	0.92086 0.16973 0.99819 -0.01100
C 	C 	0.92213 0.14056 0.03128 -0.03200
C 	C 	0.94157 0.11067 0.01862 -0.04200
C 	C 	0.07511 0.06431 0.96388 0.00600
C 	C 	0.09257 0.05475 0.00870 -0.03900
C 	C 	0.12574 0.06242 0.01341 -0.03700
C 	C 	0.09069 0.08279 0.92471 -0.04300
C 	C 	0.12369 0.09099 0.92980 -0.04100
C 	C 	0.14162 0.07983 0.97343 0.00100
C 	C 	0.90397 0.93611 0.91707 0.01200
C 	C 	0.88944 0.92109 0.96038 -0.04700
C 	C 	0.85585 0.91493 0.96048 -0.04200
C 	C 	0.83634 0.92480 0.91797 0.00400
C 	C 	0.85116 0.93797 0.87351 -0.04100
C 	C 	0.88495 0.94343 0.87297 -0.04600
C 	C 	0.01655 0.88923 0.94102 0.02000
C 	C 	0.03681 0.87163 0.90473 -0.05100
C 	C 	0.05368 0.84016 0.91812 -0.03700
C 	C 	0.04880 0.82520 0.96683 -0.00400
C 	C 	0.03009 0.84387 0.00392 -0.02400
C 	C 	0.01397 0.87571 0.99103 -0.06300
C 	C 	0.05180 0.99421 0.94237 -0.03900
H 	H 	0.97102 0.13751 0.90269 0.04100
H 	H 	0.93774 0.19086 0.92602 0.03900
H 	H 	0.90889 0.14152 0.06753 0.03400
H 	H 	0.94326 0.08867 0.04512 0.04000
H 	H 	0.83634 0.94498 0.84010 0.03800
H 	H 	0.89614 0.95426 0.83893 0.04000
H 	H 	0.84480 0.90347 0.99417 0.03500
H 	H 	0.90413 0.91454 0.99411 0.03700
H 	H 	0.03917 0.88210 0.86616 0.04100
H 	H 	0.06914 0.82652 0.88990 0.03600
H 	H 	0.99864 0.88939 0.01939 0.04700
H 	H 	0.02724 0.83313 0.04225 0.03300
H 	H 	0.08050 0.04119 0.03965 0.04000
H 	H 	0.13915 0.05457 0.04785 0.03600
H 	H 	0.07719 0.09092 0.89046 0.04000
H 	H 	0.13556 0.10523 0.89934 0.04000
H 	H 	0.90131 0.00374 0.92605 0.03800
H 	H 	0.92017 0.06230 0.94223 0.03800
H 	H 	0.02486 0.11082 0.97598 0.04300
H 	H 	0.07801 0.99784 0.94372 0.03800
H 	H 	0.05897 0.93888 0.93066 0.04000
H 	H 	0.95403 0.88888 0.91023 0.04000
C 	C 	0.88345 0.27284 0.03623 -0.10700
C 	C 	0.90942 0.25699 0.06541 0.08500
C 	C 	0.92040 0.22246 0.05401 -0.09300
C 	C 	0.90511 0.20329 0.01545 0.02600
C 	C 	0.87658 0.21769 0.99085 -0.01700
C 	C 	0.86611 0.25258 0.00132 0.01100
H 	H 	0.94121 0.21061 0.07468 0.05300
H 	H 	0.84497 0.26422 0.98129 0.02500
C 	C 	0.92408 0.27571 0.11107 -0.12600
C 	C 	0.85582 0.19535 0.95649 -0.08300
C 	C 	0.90050 0.27805 0.15735 -0.01200
H 	H 	0.87696 0.29189 0.14632 0.03700
H 	H 	0.91190 0.29387 0.18798 0.03200
C 	C 	0.83351 0.17249 0.98888 -0.04200
H 	H 	0.81673 0.18962 0.01276 0.03700
H 	H 	0.84865 0.15533 0.01511 0.03800
H 	H 	0.94755 0.26214 0.12334 0.05500
H 	H 	0.87160 0.17852 0.93078 0.04700
C 	C 	0.89343 0.24195 0.17958 -0.16100
C 	C 	0.81290 0.14927 0.95488 -0.15100
H 	H 	0.91675 0.22723 0.18946 0.06000
H 	H 	0.87846 0.24533 0.21515 0.06000
H 	H 	0.87938 0.22645 0.15158 0.06400
H 	H 	0.93083 0.30260 0.10000 0.07100
H 	H 	0.79694 0.16569 0.92885 0.05300
H 	H 	0.79700 0.13320 0.97948 0.05000
H 	H 	0.82909 0.13126 0.93147 0.05400
H 	H 	0.84030 0.21249 0.93068 0.04300
C 	C 	0.91456 0.42217 0.83163 0.08400
C 	C 	0.92190 0.38720 0.81682 0.09400
N 	N 	0.94232 0.38042 0.77629 -0.11600
C 	C 	0.95542 0.40719 0.74951 0.05100
C 	C 	0.94604 0.44212 0.76202 -0.00200
N 	N 	0.92607 0.44892 0.80317 -0.11000
N 	N 	0.89839 0.42893 0.87657 -0.09600
N 	N 	0.91103 0.36044 0.84597 -0.11600
H 	H 	0.95627 0.46372 0.74108 0.03900
C 	C 	0.88857 0.40212 0.90684 -0.04300
C 	C 	0.89420 0.36719 0.89041 0.04500
H 	H 	0.88652 0.34554 0.91399 0.03500
C 	C 	0.92538 0.40559 0.28524 0.09400
C 	C 	0.92013 0.43837 0.26092 0.08200
N 	N 	0.90244 0.44062 0.21660 -0.09900
C 	C 	0.88990 0.41137 0.19538 -0.04400
C 	C 	0.89345 0.37908 0.22152 0.04600
N 	N 	0.91126 0.37681 0.26576 -0.11800
N 	N 	0.94701 0.40228 0.32494 -0.11600
N 	N 	0.93541 0.46685 0.27908 -0.11100
H 	H 	0.88299 0.35571 0.20579 0.02900
C 	C 	0.96379 0.43035 0.34120 0.05100
C 	C 	0.95696 0.46356 0.31898 -0.00300
H 	H 	0.96963 0.48631 0.33215 0.03700
C 	C 	0.06332 0.79004 0.97939 0.00200
C 	C 	0.04947 0.75902 0.96036 0.00800
C 	C 	0.06173 0.72619 0.97802 -0.01200
C 	C 	0.08569 0.72382 0.01664 -0.10300
C 	C 	0.09943 0.75467 0.03578 0.07600
C 	C 	0.08899 0.78742 0.01542 -0.07800
H 	H 	0.05151 0.70237 0.96315 0.03000
H 	H 	0.09982 0.81113 0.02944 0.04900
C 	C 	0.02088 0.76026 0.92262 -0.10000
C 	C 	0.12531 0.75315 0.07781 -0.12100
C 	C 	0.98838 0.75045 0.94804 -0.01500
H 	H 	0.99138 0.72455 0.96764 0.02200
H 	H 	0.96959 0.74785 0.91739 0.02300
C 	C 	0.16001 0.75131 0.05462 -0.01600
H 	H 	0.16357 0.77498 0.03048 0.02900
H 	H 	0.16322 0.72766 0.02972 0.03900
H 	H 	0.01726 0.78589 0.90283 0.05200
H 	H 	0.12209 0.73046 0.10402 0.06200
C 	C 	0.97555 0.77804 0.98663 -0.17300
C 	C 	0.18627 0.74959 0.09663 -0.16200
H 	H 	0.97292 0.80429 0.96800 0.06300
H 	H 	0.95103 0.77079 0.00097 0.06100
H 	H 	0.99242 0.77928 0.02010 0.06800
H 	H 	0.02659 0.74096 0.89140 0.04700
H 	H 	0.18278 0.77210 0.12360 0.05900
H 	H 	0.21097 0.75093 0.07877 0.05600
H 	H 	0.18517 0.72455 0.11844 0.06200
H 	H 	0.12235 0.77706 0.10232 0.05200
C 	C 	0.11708 0.53787 0.84705 0.09300
C 	C 	0.08755 0.55690 0.85815 0.08200
N 	N 	0.08496 0.57635 0.90192 -0.09600
C 	C 	0.11077 0.57765 0.93514 -0.04300
C 	C 	0.14069 0.55960 0.92293 0.04200
N 	N 	0.14315 0.53995 0.87929 -0.11700
N 	N 	0.11871 0.51588 0.80591 -0.11600
N 	N 	0.06123 0.55413 0.82653 -0.11000
H 	H 	0.16169 0.56079 0.94835 0.03500
C 	C 	0.09206 0.51222 0.77514 0.05100
C 	C 	0.06293 0.53227 0.78510 -0.00200
H 	H 	0.04146 0.52947 0.76108 0.03900
C 	C 	0.11814 0.58474 0.30726 0.09400
C 	C 	0.08692 0.59892 0.29342 0.08500
N 	N 	0.08302 0.61626 0.24798 -0.09600
C 	C 	0.10913 0.62049 0.21609 -0.04100
C 	C 	0.14083 0.60971 0.23275 0.04400
N 	N 	0.14465 0.59158 0.27766 -0.11500
N 	N 	0.12084 0.56057 0.34573 -0.11500
N 	N 	0.06024 0.59110 0.32195 -0.10900
H 	H 	0.16198 0.61348 0.20836 0.03700
C 	C 	0.09364 0.55030 0.37124 0.05100
C 	C 	0.06307 0.56749 0.36116 -0.00200
H 	H 	0.04128 0.56001 0.38171 0.03900
C 	C 	0.80019 0.92329 0.92123 0.00700
C 	C 	0.78062 0.95225 0.93990 0.00300
C 	C 	0.74673 0.94866 0.94683 -0.00300
C 	C 	0.73211 0.91685 0.93583 -0.11100
C 	C 	0.75132 0.88854 0.91449 0.08000
C 	C 	0.78531 0.89204 0.90768 -0.08600
H 	H 	0.73162 0.97080 0.96086 0.02400
H 	H 	0.80027 0.87033 0.89198 0.04900
C 	C 	0.79507 0.98780 0.95009 -0.10000
C 	C 	0.73566 0.85521 0.89649 -0.12500
C 	C 	0.79371 0.99823 0.00730 -0.01600
H 	H 	0.76813 0.99751 0.02217 0.02800
H 	H 	0.80139 0.02579 0.01087 0.02400
C 	C 	0.71710 0.86108 0.84546 -0.01500
H 	H 	0.73498 0.86640 0.81430 0.03000
H 	H 	0.69949 0.88412 0.84833 0.04000
H 	H 	0.82069 0.98951 0.93599 0.05000
H 	H 	0.71897 0.84544 0.92659 0.06600
C 	C 	0.81637 0.97486 0.04085 -0.16000
C 	C 	0.69785 0.82900 0.83082 -0.16100
H 	H 	0.84214 0.97548 0.02686 0.06300
H 	H 	0.81553 0.98467 0.08112 0.05800
H 	H 	0.80822 0.94741 0.04076 0.06500
H 	H 	0.78048 0.00799 0.92789 0.04200
H 	H 	0.71473 0.80545 0.82668 0.05700
H 	H 	0.68510 0.83393 0.79354 0.06000
H 	H 	0.67905 0.82386 0.86065 0.06200
H 	H 	0.75485 0.83383 0.89088 0.05200
C 	C 	0.56173 0.91259 0.74768 0.09200
C 	C 	0.55392 0.93895 0.78406 0.08300
N 	N 	0.56882 0.93811 0.83078 -0.09600
C 	C 	0.59156 0.91213 0.84277 -0.04500
C 	C 	0.59990 0.88613 0.80591 0.04200
N 	N 	0.58463 0.88676 0.75923 -0.11900
N 	N 	0.54623 0.91303 0.70128 -0.11600
N 	N 	0.53152 0.96515 0.77230 -0.11000
H 	H 	0.61853 0.86575 0.81416 0.03100
C 	C 	0.52320 0.93889 0.68984 0.05100
C 	C 	0.51618 0.96581 0.72583 -0.00200
H 	H 	0.49860 0.98709 0.71684 0.03800
C 	C 	0.62915 0.95628 0.22072 0.09200
C 	C 	0.60633 0.93441 0.19785 0.08400
N 	N 	0.61204 0.92156 0.14966 -0.09300
C 	C 	0.63961 0.92984 0.12328 -0.04200
C 	C 	0.66327 0.95000 0.14750 0.04100
N 	N 	0.65748 0.96295 0.19560 -0.11700
N 	N 	0.62141 0.97311 0.26549 -0.11700
N 	N 	0.57736 0.92899 0.22199 -0.10700
H 	H 	0.68558 0.95634 0.12741 0.03300
C 	C 	0.59186 0.96884 0.28870 0.05100
C 	C 	0.56972 0.94565 0.26708 -0.00100
H 	H 	0.54595 0.94225 0.28477 0.04000
C 	C 	0.17700 0.08683 0.97759 0.00200
C 	C 	0.20090 0.06795 0.94752 0.00500
C 	C 	0.23397 0.07677 0.95065 -0.00600
C 	C 	0.24385 0.10260 0.98506 -0.11500
C 	C 	0.22025 0.12047 0.01659 0.08400
C 	C 	0.18688 0.11299 0.01162 -0.08100
H 	H 	0.25226 0.06278 0.92708 0.02700
H 	H 	0.16856 0.12748 0.03449 0.05000
C 	C 	0.19198 0.03717 0.91375 -0.09800
C 	C 	0.23013 0.14823 0.05471 -0.12600
C 	C 	0.20250 0.00159 0.93793 -0.01900
H 	H 	0.22903 0.00105 0.94822 0.02200
H 	H 	0.19917 0.98062 0.90885 0.02500
C 	C 	0.22914 0.18472 0.02955 -0.00800
H 	H 	0.20381 0.19147 0.01562 0.03000
H 	H 	0.24610 0.18474 0.99597 0.03400
H 	H 	0.16549 0.03725 0.90391 0.05100
H 	H 	0.25503 0.14189 0.07068 0.06300
C 	C 	0.18229 0.99311 0.98563 -0.16400
C 	C 	0.23917 0.21289 0.06758 -0.16400
H 	H 	0.15563 0.99400 0.97629 0.06000
H 	H 	0.18948 0.96626 0.99942 0.05400
H 	H 	0.18699 0.01199 0.01708 0.06600
H 	H 	0.20495 0.03945 0.87625 0.04700
H 	H 	0.22303 0.21307 0.10213 0.06000
H 	H 	0.23673 0.23913 0.04896 0.05800
H 	H 	0.26517 0.20802 0.07962 0.06100
H 	H 	0.21299 0.14857 0.08816 0.05300
C 	C 	0.37383 0.08698 0.74688 0.08300
C 	C 	0.35049 0.06630 0.72283 0.09300
N 	N 	0.35783 0.05049 0.67714 -0.11700
C 	C 	0.38746 0.05466 0.65414 0.05100
C 	C 	0.41010 0.07676 0.67696 -0.00100
N 	N 	0.40287 0.09237 0.72296 -0.10800
N 	N 	0.36847 0.09864 0.79577 -0.09300
N 	N 	0.32204 0.05966 0.74761 -0.11800
H 	H 	0.43394 0.08004 0.65945 0.04000
C 	C 	0.34075 0.09034 0.82171 -0.04300
C 	C 	0.31660 0.07146 0.79641 0.04200
H 	H 	0.29412 0.06522 0.81613 0.03200
C 	C 	0.41832 0.11331 0.19468 0.09400
C 	C 	0.41726 0.08156 0.16732 0.08400
N 	N 	0.40010 0.08036 0.12265 -0.09500
C 	C 	0.38379 0.10961 0.10392 -0.04100
C 	C 	0.38461 0.14136 0.13156 0.04500
N 	N 	0.40189 0.14255 0.17640 -0.11600
N 	N 	0.43627 0.11471 0.23874 -0.11600
N 	N 	0.43388 0.05240 0.18522 -0.10900
H 	H 	0.37202 0.16499 0.11714 0.03500
C 	C 	0.45333 0.08556 0.25634 0.05100
C 	C 	0.45182 0.05373 0.22924 -0.00100
H 	H 	0.46488 0.03022 0.24317 0.03900
C 	C 	0.38144 0.23809 0.96469 -0.09900
C 	C 	0.36918 0.26397 0.00006 0.08000
C 	C 	0.38258 0.29739 0.00004 -0.07800
C 	C 	0.40830 0.30522 0.96659 0.00100
C 	C 	0.42138 0.27904 0.93274 0.00700
C 	C 	0.40759 0.24583 0.93185 -0.01000
H 	H 	0.37327 0.31725 0.02689 0.04900
H 	H 	0.41762 0.22572 0.90600 0.04300
C 	C 	0.34325 0.25605 0.04019 -0.12400
C 	C 	0.45180 0.28506 0.90070 -0.09500
C 	C 	0.31041 0.27651 0.03043 -0.00100
H 	H 	0.31434 0.30518 0.02826 0.02500
H 	H 	0.29382 0.27229 0.06369 0.02100
C 	C 	0.48313 0.27805 0.93259 -0.02400
H 	H 	0.48433 0.25026 0.94593 0.03400
H 	H 	0.48281 0.29537 0.96704 0.03300
H 	H 	0.33897 0.22765 0.04452 0.06600
H 	H 	0.45126 0.31216 0.88487 0.05000
C 	C 	0.29318 0.26497 0.98139 -0.17100
C 	C 	0.51395 0.28479 0.90114 -0.15800
H 	H 	0.28694 0.23696 0.98426 0.07400
H 	H 	0.26997 0.28101 0.97630 0.05800
H 	H 	0.30894 0.26880 0.94707 0.07600
H 	H 	0.35257 0.26422 0.07842 0.05300
H 	H 	0.51534 0.26734 0.86684 0.05800
H 	H 	0.53612 0.27929 0.92521 0.05600
H 	H 	0.51378 0.31267 0.88843 0.05800
H 	H 	0.45237 0.26724 0.86671 0.04800
C 	C 	0.23327 0.59986 0.08094 -0.09400
C 	C 	0.26035 0.62160 0.08837 0.07300
C 	C 	0.29229 0.60809 0.07757 -0.08100
C 	C 	0.29748 0.57408 0.05785 0.00400
C 	C 	0.27060 0.55214 0.05162 0.00900
C 	C 	0.23882 0.56518 0.06369 -0.01100
H 	H 	0.31319 0.62424 0.08417 0.05000
H 	H 	0.21818 0.54838 0.05880 0.04500
C 	C 	0.25594 0.65879 0.10939 -0.12000
C 	C 	0.27563 0.51407 0.03503 -0.09700
C 	C 	0.26633 0.68676 0.07048 -0.01000
H 	H 	0.29268 0.68238 0.06011 0.02700
H 	H 	0.26375 0.71299 0.08915 0.02300
C 	C 	0.28212 0.49008 0.08177 -0.02300
H 	H 	0.26020 0.49110 0.10742 0.03400
H 	H 	0.30342 0.49915 0.10412 0.03400
H 	H 	0.23059 0.66541 0.12301 0.06300
H 	H 	0.29605 0.51079 0.00685 0.05300
C 	C 	0.24568 0.68747 0.02131 -0.15800
C 	C 	0.28943 0.45205 0.06532 -0.15800
H 	H 	0.21937 0.69313 0.03045 0.07300
H 	H 	0.25407 0.70854 0.99546 0.05200
H 	H 	0.24845 0.66203 0.00053 0.07200
H 	H 	0.27174 0.66075 0.14410 0.05200
H 	H 	0.26836 0.44199 0.04344 0.05900
H 	H 	0.29361 0.43537 0.09999 0.05800
H 	H 	0.31190 0.45014 0.04095 0.06000
H 	H 	0.25329 0.50555 0.01463 0.05000
C 	C 	0.69782 0.44475 0.03156 0.00400
C 	C 	0.71633 0.46658 0.06382 0.00500
C 	C 	0.74972 0.45782 0.07250 -0.00200
C 	C 	0.76531 0.42916 0.04736 -0.11200
C 	C 	0.74687 0.40749 0.01497 0.08500
C 	C 	0.71300 0.41477 0.00913 -0.08000
H 	H 	0.76391 0.47419 0.09755 0.02900
H 	H 	0.69868 0.39792 0.98501 0.04500
C 	C 	0.70118 0.49961 0.08881 -0.09500
C 	C 	0.76300 0.37699 0.98547 -0.13700
C 	C 	0.71330 0.53348 0.06429 -0.02600
H 	H 	0.74063 0.53304 0.06374 0.02800
H 	H 	0.70474 0.55618 0.08846 0.02500
C 	C 	0.76201 0.34271 0.01641 -0.00000
H 	H 	0.73610 0.33717 0.02605 0.02800
H 	H 	0.77581 0.34523 0.05302 0.04100
H 	H 	0.67394 0.50058 0.08892 0.05000
H 	H 	0.78874 0.38237 0.97494 0.06500
C 	C 	0.70028 0.53943 0.00969 -0.14300
C 	C 	0.77704 0.31168 0.98593 -0.17700
H 	H 	0.67297 0.53967 0.00934 0.05800
H 	H 	0.70814 0.56521 0.99525 0.04500
H 	H 	0.71038 0.51864 0.98344 0.05500
H 	H 	0.70834 0.49948 0.13014 0.04500
H 	H 	0.76202 0.30678 0.95116 0.06000
H 	H 	0.77774 0.28769 0.01033 0.06900
H 	H 	0.80254 0.31700 0.97384 0.07100
H 	H 	0.74986 0.37367 0.94832 0.05600
C 	C 	0.60290 0.77942 0.98315 -0.09900
C 	C 	0.57811 0.76869 0.94880 0.07600
C 	C 	0.56652 0.73457 0.95298 -0.08300
C 	C 	0.58163 0.70987 0.98635 0.00000
C 	C 	0.60859 0.71957 0.01699 0.01200
C 	C 	0.61832 0.75456 0.01611 -0.00700
H 	H 	0.54674 0.72664 0.92819 0.04900
H 	H 	0.63833 0.76231 0.04060 0.04300
C 	C 	0.56659 0.79154 0.90368 -0.12200
C 	C 	0.62901 0.69237 0.04716 -0.10000
C 	C 	0.59337 0.79542 0.86246 -0.01200
H 	H 	0.61482 0.80867 0.87870 0.03400
H 	H 	0.58304 0.81243 0.83113 0.03200
C 	C 	0.65464 0.67344 0.01235 -0.01000
H 	H 	0.67215 0.69271 0.99762 0.02400
H 	H 	0.64240 0.66152 0.97877 0.02600
H 	H 	0.54479 0.78034 0.88498 0.05300
H 	H 	0.61318 0.67303 0.06572 0.05200
C 	C 	0.60499 0.76021 0.83897 -0.16100
C 	C 	0.67388 0.64438 0.04141 -0.16200
H 	H 	0.58374 0.74595 0.82401 0.06000
H 	H 	0.62207 0.76493 0.80655 0.05700
H 	H 	0.61833 0.74363 0.86805 0.06200
H 	H 	0.55768 0.81786 0.91712 0.07200
H 	H 	0.68662 0.65542 0.07519 0.05700
H 	H 	0.69263 0.63181 0.01547 0.05500
H 	H 	0.65708 0.62396 0.05467 0.05800
H 	H 	0.64195 0.70535 0.07923 0.04900
