data_crystal

_cell_length_a 30.86077
_cell_length_b 31.00596
_cell_length_c 26.61092
_cell_angle_alpha 95.55207
_cell_angle_beta  95.54384
_cell_angle_gamma 125.55592

_symmetry_space_group_name_	'P 1'
_symmetry_space_group_name_H-M	'P 1'

loop_
_symmetry_equiv_pos_as_xyz
  x,y,z

loop_
_atom_site_label
_atom_site_type_symbol
_atom_site_fract_x
_atom_site_fract_y
_atom_site_fract_z
_atom_site_charge
C 	C 	0.05343 0.03140 0.97068 0.04300
C 	C 	0.03072 0.05924 0.97796 -0.08500
H 	H 	0.05508 0.10238 0.97879 0.05700
C 	C 	0.00169 0.03008 0.43977 -0.07800
C 	C 	0.02844 0.00612 0.44534 0.03500
H 	H 	0.02407 0.07173 0.43473 0.05300
C 	C 	0.08698 0.03753 0.44482 -0.00400
C 	C 	0.12447 0.08249 0.48378 -0.03300
C 	C 	0.18008 0.11111 0.48430 -0.04100
C 	C 	0.19862 0.09500 0.44586 0.01000
C 	C 	0.16111 0.05037 0.40662 -0.04100
C 	C 	0.10551 0.02175 0.40610 -0.03200
C 	C 	0.25729 0.12459 0.44692 0.01100
C 	C 	0.28188 0.09854 0.45324 -0.03900
C 	C 	0.33754 0.12665 0.45436 -0.02700
C 	C 	0.28881 0.17894 0.44174 -0.04000
H 	H 	0.11054 0.09485 0.51392 0.04000
H 	H 	0.20875 0.14546 0.51479 0.04500
H 	H 	0.17504 0.03786 0.37661 0.04400
H 	H 	0.25791 0.05664 0.45746 0.04700
H 	H 	0.27016 0.19933 0.43667 0.04400
C 	C 	0.11066 0.06068 0.96534 -0.00400
C 	C 	0.15215 0.09668 0.00763 -0.03300
C 	C 	0.20617 0.11938 0.00458 -0.04300
C 	C 	0.21911 0.10627 0.95920 0.01200
C 	C 	0.17782 0.07180 0.91631 -0.04200
C 	C 	0.12379 0.04909 0.91936 -0.03200
C 	C 	0.27549 0.12657 0.95745 0.01000
C 	C 	0.30441 0.16288 0.92515 -0.03900
C 	C 	0.30074 0.11027 0.98873 -0.03800
H 	H 	0.14239 0.10589 0.04326 0.04100
H 	H 	0.23787 0.14636 0.03774 0.04500
H 	H 	0.18747 0.06166 0.88105 0.04500
H 	H 	0.09202 0.02151 0.88644 0.04100
H 	H 	0.28519 0.17555 0.90074 0.04500
H 	H 	0.27857 0.08187 0.01344 0.04500
C 	C 	0.34447 0.20700 0.44290 -0.02800
H 	H 	0.96412 0.08294 0.50781 0.04000
C 	C 	0.97651 0.03123 0.98393 0.05500
C 	C 	0.91847 0.02622 0.43605 -0.00400
C 	C 	0.93368 0.06969 0.47407 -0.03300
C 	C 	0.90999 0.09644 0.46842 -0.04100
C 	C 	0.87090 0.08001 0.42466 0.00900
C 	C 	0.85510 0.03604 0.38694 -0.04100
C 	C 	0.87880 0.00923 0.39263 -0.03200
C 	C 	0.84636 0.10872 0.41858 0.01100
C 	C 	0.79073 0.08180 0.41801 -0.04100
C 	C 	0.76848 0.11027 0.41722 -0.02700
C 	C 	0.80166 0.16579 0.41697 -0.00500
C 	C 	0.85682 0.19234 0.41565 -0.02800
C 	C 	0.87911 0.16390 0.41635 -0.04100
C 	C 	0.78035 0.19638 0.42345 0.05500
H 	H 	0.92202 0.12995 0.49800 0.04300
H 	H 	0.82489 0.02300 0.35307 0.04400
H 	H 	0.76508 0.03921 0.41960 0.04500
H 	H 	0.72579 0.08946 0.41825 0.04700
H 	H 	0.92199 0.18494 0.41626 0.04400
C 	C 	0.36893 0.18092 0.44921 -0.00100
C 	C 	0.42626 0.20992 0.45049 0.05400
H 	H 	0.35622 0.10626 0.45929 0.05100
C 	C 	0.82449 0.18212 0.01076 0.03000
C 	C 	0.76865 0.14896 0.01101 -0.06300
C 	C 	0.73892 0.16983 0.00691 0.01900
C 	C 	0.85438 0.15852 0.00796 -0.00100
C 	C 	0.85850 0.13366 0.04765 -0.03200
C 	C 	0.88492 0.10936 0.04380 -0.04100
C 	C 	0.90739 0.10984 0.00033 0.01600
C 	C 	0.90391 0.13522 0.96101 -0.04100
C 	C 	0.87747 0.15944 0.96475 -0.03200
C 	C 	0.93234 0.08265 0.99519 -0.00600
C 	C 	0.95276 0.05949 0.99028 -0.02900
H 	H 	0.74797 0.10662 0.01257 0.05300
H 	H 	0.69550 0.14333 0.00521 0.04500
H 	H 	0.84099 0.13289 0.08123 0.04500
H 	H 	0.88748 0.08980 0.07437 0.04500
H 	H 	0.92114 0.13568 0.92728 0.04400
H 	H 	0.87428 0.17829 0.93380 0.04100
C 	C 	0.35859 0.18375 0.92513 -0.02800
C 	C 	0.38409 0.16833 0.95726 -0.00200
C 	C 	0.35487 0.13112 0.98864 -0.02700
H 	H 	0.38099 0.21261 0.90086 0.04700
H 	H 	0.37434 0.11907 0.01362 0.05000
F 	F 	0.62365 0.21280 0.15536 -0.39100
C 	C 	0.44127 0.19400 0.96127 0.05400
C 	C 	0.76476 0.22399 0.00221 -0.08800
O 	O 	0.56920 0.22412 0.99561 -0.34400
O 	O 	0.68568 0.22251 0.00399 -0.35400
C 	C 	0.54706 0.24468 0.97334 0.30300
C 	C 	0.73240 0.24369 0.98909 0.29300
H 	H 	0.60870 0.23975 0.90600 0.18900
O 	O 	0.70625 0.23552 0.47314 -0.42700
H 	H 	0.61592 0.25200 0.40666 0.18300
F 	F 	0.58331 0.22531 0.64165 -0.39800
F 	F 	0.58009 0.22322 0.74399 -0.40100
F 	F 	0.63517 0.22400 0.26037 -0.40300
C 	C 	0.76240 0.22167 0.43070 -0.10300
H 	H 	0.88271 0.23524 0.41539 0.04600
C 	C 	0.47430 0.23457 0.45152 -0.08900
H 	H 	0.36852 0.24896 0.43886 0.04500
C 	C 	0.82115 0.25781 0.00481 0.01700
C 	C 	0.85086 0.23697 0.00910 -0.06400
H 	H 	0.89412 0.26310 0.00974 0.05100
C 	C 	0.48943 0.21647 0.96597 -0.09400
C 	C 	0.74075 0.25110 0.44178 0.31400
Cu	Cu	0.64953 0.25886 0.00126 0.93200
Cu	Cu	0.69820 0.25995 0.89661 0.88000
O 	O 	0.64563 0.26305 0.92729 -0.63800
O 	O 	0.74717 0.27775 0.95743 -0.43000
O 	O 	0.66425 0.26921 0.07490 -0.33400
O 	O 	0.66619 0.26063 0.83203 -0.39600
O 	O 	0.56051 0.25822 0.48686 -0.35700
C 	C 	0.53149 0.26447 0.45269 0.30800
C 	C 	0.62307 0.26684 0.72970 0.27000
C 	C 	0.62445 0.26817 0.67743 0.26900
C 	C 	0.65851 0.26857 0.23856 0.26900
C 	C 	0.65289 0.26290 0.18497 0.27400
Cu	Cu	0.72278 0.28355 0.53399 0.88100
O 	O 	0.63976 0.28981 0.42562 -0.63900
O 	O 	0.57779 0.29465 0.96629 -0.38300
Cu	Cu	0.63854 0.29792 0.49766 0.90300
O 	O 	0.76155 0.29762 0.42716 -0.35500
O 	O 	0.55447 0.30379 0.42612 -0.38100
O 	O 	0.63589 0.29320 0.57107 -0.35700
H 	H 	0.84176 0.29992 0.00224 0.03800
C 	C 	0.66084 0.30265 0.10600 0.38600
C 	C 	0.67049 0.30341 0.82124 0.38800
C 	C 	0.67658 0.30868 0.60832 0.38800
C 	C 	0.66672 0.30959 0.76715 -0.20500
C 	C 	0.67493 0.30869 0.16195 -0.20000
O 	O 	0.71452 0.31874 0.35605 -0.34100
O 	O 	0.72040 0.31428 0.59828 -0.39500
C 	C 	0.66965 0.31221 0.66219 -0.20400
C 	C 	0.68588 0.31992 0.26938 -0.20200
C 	C 	0.68387 0.32532 0.32441 0.39400
O 	O 	0.63398 0.32107 0.08896 -0.36400
Cu	Cu	0.72379 0.33243 0.42959 0.93300
C 	C 	0.94603 0.00030 0.44056 0.03600
Cu	Cu	0.62470 0.33580 0.40177 0.90200
O 	O 	0.71833 0.33509 0.50324 -0.63800
C 	C 	0.02180 0.97561 0.96955 -0.08600
H 	H 	0.03941 0.95410 0.96430 0.05800
H 	H 	0.02012 0.93371 0.45606 0.05300
H 	H 	0.07684 0.98724 0.37574 0.04000
C 	C 	0.99944 0.95225 0.45167 -0.07500
C 	C 	0.94506 0.97547 0.98282 -0.08800
C 	C 	0.96774 0.94769 0.97565 0.05500
H 	H 	0.90311 0.95378 0.98743 0.05900
C 	C 	0.94378 0.92222 0.45233 0.03400
C 	C 	0.91703 0.94623 0.44660 -0.07800
H 	H 	0.87404 0.92315 0.44733 0.05300
Cu	Cu	0.68109 0.34204 0.93167 0.90200
Cu	Cu	0.64374 0.35625 0.02775 0.90500
O 	O 	0.69066 0.34228 0.00384 -0.63900
O 	O 	0.71943 0.41944 0.94133 -0.36100
C 	C 	0.71123 0.44807 0.97369 0.29400
O 	O 	0.67313 0.42498 0.00189 -0.37900
O 	O 	0.68447 0.34368 0.85796 -0.35900
H 	H 	0.72882 0.36691 0.02229 0.18100
O 	O 	0.75726 0.41221 0.43601 -0.34200
O 	O 	0.66237 0.34898 0.34172 -0.36400
C 	C 	0.73520 0.43304 0.45767 0.30500
O 	O 	0.68489 0.40126 0.46418 -0.38100
H 	H 	0.74077 0.37171 0.52478 0.18800
C 	C 	0.70996 0.35541 0.75187 0.26800
C 	C 	0.71146 0.35664 0.69961 0.27000
F 	F 	0.75442 0.40027 0.68531 -0.40200
F 	F 	0.75202 0.39745 0.78766 -0.40100
C 	C 	0.71075 0.36583 0.24655 0.27500
C 	C 	0.70531 0.36024 0.19310 0.26600
F 	F 	0.72831 0.40487 0.17139 -0.41400
F 	F 	0.73909 0.41584 0.27620 -0.39600
C 	C 	0.91359 0.86543 0.45856 -0.00300
C 	C 	0.92590 0.85277 0.50452 -0.03300
C 	C 	0.90277 0.79904 0.50810 -0.04100
C 	C 	0.86718 0.75755 0.46575 0.01000
C 	C 	0.85321 0.77004 0.42048 -0.04100
C 	C 	0.87630 0.82378 0.41692 -0.03300
C 	C 	0.84703 0.70151 0.46774 0.01100
C 	C 	0.86278 0.67610 0.43591 -0.03800
C 	C 	0.84284 0.62262 0.43692 -0.02700
C 	C 	0.80708 0.59418 0.46978 0.00000
C 	C 	0.79200 0.61975 0.50225 -0.02800
C 	C 	0.81199 0.67331 0.50131 -0.03900
C 	C 	0.78281 0.53769 0.46735 0.05600
C 	C 	0.76168 0.49009 0.46384 -0.08900
H 	H 	0.95446 0.88467 0.53695 0.04100
H 	H 	0.91361 0.78977 0.54328 0.04500
H 	H 	0.82535 0.73821 0.38775 0.04600
H 	H 	0.86650 0.83316 0.38132 0.04100
H 	H 	0.89020 0.69771 0.41020 0.04800
H 	H 	0.85458 0.60308 0.41164 0.05600
H 	H 	0.76423 0.59796 0.52764 0.04800
H 	H 	0.79974 0.69264 0.52615 0.04500
H 	H 	0.86692 0.97581 0.36300 0.04000
C 	C 	0.73991 0.50610 0.97299 -0.07400
C 	C 	0.79221 0.53656 0.96135 0.02100
C 	C 	0.81951 0.59163 0.96111 -0.05800
C 	C 	0.79479 0.61673 0.97246 0.03100
C 	C 	0.74250 0.58634 0.98387 -0.06000
C 	C 	0.71516 0.53132 0.98415 0.01900
C 	C 	0.82379 0.67490 0.97274 0.00300
C 	C 	0.83749 0.71040 0.01845 -0.03400
C 	C 	0.86515 0.76559 0.01875 -0.04300
C 	C 	0.87927 0.78561 0.97341 0.02100
C 	C 	0.86536 0.75020 0.92766 -0.04100
C 	C 	0.83768 0.69500 0.92730 -0.03200
C 	C 	0.90965 0.84268 0.97419 -0.00700
C 	C 	0.93571 0.89053 0.97487 -0.02800
H 	H 	0.81194 0.51776 0.95304 0.04900
H 	H 	0.86001 0.61486 0.95247 0.05600
H 	H 	0.72298 0.60534 0.99236 0.05200
H 	H 	0.67461 0.50825 0.99261 0.04300
H 	H 	0.82702 0.69527 0.05374 0.04400
H 	H 	0.87591 0.79279 0.05428 0.04500
H 	H 	0.87624 0.76545 0.89248 0.04700
H 	H 	0.82701 0.66786 0.89177 0.04800
