data_crystal

_cell_length_a 26.73406
_cell_length_b 26.68792
_cell_length_c 26.58592
_cell_angle_alpha 95.53364
_cell_angle_beta  95.53635
_cell_angle_gamma 125.72388

_symmetry_space_group_name_	'P 1'
_symmetry_space_group_name_H-M	'P 1'

loop_
_symmetry_equiv_pos_as_xyz
  x,y,z

loop_
_atom_site_label
_atom_site_type_symbol
_atom_site_fract_x
_atom_site_fract_y
_atom_site_fract_z
_atom_site_charge
N 	N 	0.02570 0.05921 0.97104 -0.14100
C 	C 	0.05402 0.03054 0.97354 0.12700
C 	C 	0.03734 0.01930 0.44334 0.12900
N 	N 	0.00218 0.04078 0.44077 -0.13900
N 	N 	0.53599 0.17013 0.60683 -0.12000
N 	N 	0.60037 0.16742 0.28844 -0.12100
C 	C 	0.24421 0.15982 0.45921 -0.04500
C 	C 	0.21163 0.09425 0.44808 0.02200
C 	C 	0.24337 0.06938 0.43419 -0.04600
C 	C 	0.30677 0.10949 0.43078 -0.03500
C 	C 	0.14539 0.05141 0.45409 -0.02900
C 	C 	0.10275 0.05987 0.43536 -0.07400
H 	H 	0.22084 0.17972 0.47150 0.04300
H 	H 	0.21888 0.01896 0.42593 0.04100
H 	H 	0.33061 0.08972 0.41948 0.03900
H 	H 	0.11689 0.09882 0.41568 0.05600
H 	H 	0.43256 0.17636 0.48899 0.08100
C 	C 	0.21678 0.07573 0.96586 0.02200
C 	C 	0.24552 0.07717 0.92404 -0.04900
C 	C 	0.31019 0.10716 0.93190 -0.03500
C 	C 	0.25310 0.10394 0.01571 -0.04300
C 	C 	0.14803 0.04051 0.95791 -0.04100
C 	C 	0.12223 0.06747 0.97605 -0.07100
H 	H 	0.21772 0.05478 0.88554 0.04200
H 	H 	0.33190 0.10746 0.89945 0.03800
H 	H 	0.23115 0.10194 0.04842 0.04500
H 	H 	0.15183 0.11728 0.99292 0.05400
C 	C 	0.96354 0.02642 0.97201 0.11700
C 	C 	0.82206 0.15927 0.44084 0.00100
C 	C 	0.78870 0.09450 0.42312 -0.03600
C 	C 	0.82078 0.06817 0.41791 -0.04700
C 	C 	0.88656 0.10629 0.43152 0.02200
C 	C 	0.91996 0.17121 0.44831 -0.04800
C 	C 	0.92101 0.07890 0.42712 -0.03200
C 	C 	0.90422 0.02804 0.44743 -0.07300
H 	H 	0.73792 0.06454 0.41348 0.03800
H 	H 	0.79456 0.01824 0.40341 0.04100
H 	H 	0.96304 0.10322 0.41041 0.04300
H 	H 	0.74767 0.16065 0.46967 0.03000
C 	C 	0.80884 0.14497 0.98314 -0.00200
C 	C 	0.81693 0.12135 0.93770 -0.03700
C 	C 	0.83931 0.08545 0.93921 -0.04800
C 	C 	0.85501 0.07383 0.98640 0.01900
C 	C 	0.84552 0.09611 0.03173 -0.04400
C 	C 	0.82315 0.13212 0.03024 -0.03100
C 	C 	0.88257 0.03942 0.98865 -0.03700
C 	C 	0.93304 0.05765 0.96748 -0.07200
H 	H 	0.80601 0.13100 0.90120 0.03000
H 	H 	0.84508 0.06721 0.90380 0.04000
H 	H 	0.85705 0.08696 0.06826 0.04100
H 	H 	0.86437 0.00204 0.01084 0.04700
H 	H 	0.95423 0.09850 0.94912 0.05200
C 	C 	0.33930 0.17498 0.44204 0.00500
C 	C 	0.34643 0.13531 0.98178 0.00100
C 	C 	0.31758 0.13337 0.02361 -0.03200
H 	H 	0.72000 0.13929 0.02653 0.07900
H 	H 	0.81811 0.15099 0.06571 0.04000
H 	H 	0.86250 0.00425 0.46458 0.05200
H 	H 	0.13115 0.01161 0.47266 0.04300
H 	H 	0.43127 0.14816 0.02030 0.04500
C 	C 	0.78758 0.18577 0.45054 0.00800
C 	C 	0.78919 0.18637 0.98133 0.00000
C 	C 	0.30749 0.19988 0.45547 -0.03500
C 	C 	0.41369 0.16279 0.99101 0.00200
H 	H 	0.34508 0.15430 0.06229 0.04000
O 	O 	0.66320 0.19287 0.01098 -0.37100
C 	C 	0.88792 0.19754 0.45349 -0.03600
H 	H 	0.97072 0.20109 0.45838 0.04000
C 	C 	0.74160 0.17586 0.00361 -0.14800
C 	C 	0.94162 0.00367 0.44731 0.11900
H 	H 	0.80980 0.22184 0.95735 0.02700
H 	H 	0.61820 0.21267 0.16896 0.04900
C 	C 	0.62401 0.21151 0.26966 0.07100
C 	C 	0.40659 0.21774 0.43938 0.00800
C 	C 	0.44846 0.21270 0.46589 -0.14700
C 	C 	0.71425 0.20944 0.99386 0.30200
Cu	Cu	0.63278 0.24535 0.00874 0.92900
O 	O 	0.54377 0.21682 0.00696 -0.36400
H 	H 	0.58099 0.21698 0.91384 0.17200
H 	H 	0.61863 0.25195 0.41917 0.16800
H 	H 	0.57493 0.21200 0.74039 0.04100
C 	C 	0.57442 0.21053 0.63987 0.06800
H 	H 	0.33213 0.25031 0.46406 0.04000
C 	C 	0.45387 0.21009 0.96820 -0.14800
H 	H 	0.43657 0.22723 0.94127 0.07400
Cu	Cu	0.68286 0.23673 0.90271 0.86700
O 	O 	0.73624 0.25038 0.96315 -0.44400
O 	O 	0.65032 0.24056 0.83700 -0.41800
O 	O 	0.73519 0.24776 0.48181 -0.44400
C 	C 	0.80425 0.23935 0.43531 -0.15800
H 	H 	0.91418 0.24741 0.46831 0.03500
O 	O 	0.62440 0.24455 0.93389 -0.64200
C 	C 	0.52203 0.24308 0.98267 0.29700
C 	C 	0.51634 0.25690 0.46606 0.31100
H 	H 	0.42235 0.25614 0.41866 0.03700
O 	O 	0.55567 0.25852 0.50152 -0.38400
C 	C 	0.64667 0.25943 0.19253 -0.00800
O 	O 	0.65503 0.26125 0.08228 -0.35800
C 	C 	0.61575 0.25468 0.73221 -0.01100
C 	C 	0.65356 0.26658 0.24626 -0.00100
H 	H 	0.84123 0.26185 0.41291 0.08100
C 	C 	0.62241 0.26101 0.68111 -0.00200
C 	C 	0.77519 0.27010 0.45034 0.31300
C 	C 	0.65844 0.29173 0.82614 0.28000
O 	O 	0.64396 0.29673 0.43603 -0.64300
O 	O 	0.53635 0.29872 0.43542 -0.39600
O 	O 	0.56095 0.30081 0.97507 -0.40200
Cu	Cu	0.74806 0.30091 0.54243 0.86700
C 	C 	0.65616 0.30398 0.11291 0.28600
C 	C 	0.66222 0.30258 0.77290 -0.06800
Cu	Cu	0.64589 0.31076 0.50836 0.89700
C 	C 	0.67373 0.31234 0.16902 -0.06500
C 	C 	0.67651 0.31556 0.67045 -0.06800
H 	H 	0.11832 0.99240 0.93661 0.05500
N 	N 	0.02015 0.96901 0.97755 -0.13600
N 	N 	0.01151 0.96006 0.45174 -0.13500
Cu	Cu	0.64270 0.36893 0.03446 0.89800
O 	O 	0.62796 0.32795 0.09577 -0.37800
O 	O 	0.65207 0.32708 0.85919 -0.37300
Cu	Cu	0.61796 0.34313 0.41042 0.89400
C 	C 	0.68760 0.33560 0.33223 0.28600
C 	C 	0.68812 0.31977 0.61743 0.28000
O 	O 	0.65967 0.35976 0.34917 -0.38100
O 	O 	0.68536 0.42467 0.47065 -0.39400
O 	O 	0.65018 0.32147 0.58305 -0.37200
C 	C 	0.68770 0.32717 0.27678 -0.06300
C 	C 	0.95784 0.93575 0.97779 0.13000
N 	N 	0.92951 0.96452 0.97515 -0.13900
N 	N 	0.91625 0.94484 0.45633 -0.13900
C 	C 	0.95094 0.92278 0.45840 0.12700
Cu	Cu	0.66676 0.33583 0.93423 0.89600
O 	O 	0.68776 0.34221 0.00689 -0.63600
O 	O 	0.71342 0.42545 0.93723 -0.38500
C 	C 	0.70711 0.46341 0.96676 0.30800
O 	O 	0.68826 0.45127 0.01123 -0.38800
H 	H 	0.73330 0.36879 0.02122 0.17100
Cu	Cu	0.74103 0.35341 0.43737 0.92900
O 	O 	0.77063 0.44305 0.44090 -0.36800
O 	O 	0.73825 0.35844 0.51165 -0.64100
O 	O 	0.79330 0.32283 0.43547 -0.37800
C 	C 	0.74346 0.46423 0.46426 0.30200
O 	O 	0.72795 0.33435 0.36389 -0.35500
O 	O 	0.74095 0.33126 0.60756 -0.41800
H 	H 	0.76322 0.40131 0.53270 0.17400
C 	C 	0.72167 0.36459 0.71107 -0.01100
C 	C 	0.71460 0.35859 0.76217 -0.00200
H 	H 	0.76277 0.40702 0.70290 0.04100
C 	C 	0.76216 0.40942 0.80339 0.06700
N 	N 	0.80023 0.45013 0.83641 -0.12000
C 	C 	0.71828 0.38010 0.25350 -0.00900
C 	C 	0.71186 0.37304 0.19989 0.00200
H 	H 	0.74604 0.42681 0.27711 0.04600
C 	C 	0.74469 0.42829 0.17682 0.06400
N 	N 	0.77097 0.47252 0.15831 -0.12400
C 	C 	0.92451 0.76850 0.47514 0.02600
C 	C 	0.93903 0.73459 0.44446 -0.04900
C 	C 	0.91012 0.67117 0.44580 -0.03400
C 	C 	0.86652 0.64100 0.47797 0.00400
C 	C 	0.85356 0.67550 0.51014 -0.03500
C 	C 	0.88231 0.73895 0.50861 -0.04800
C 	C 	0.83698 0.57397 0.47924 0.00800
C 	C 	0.77470 0.53247 0.47642 -0.14800
C 	C 	0.95549 0.83559 0.47332 -0.04200
C 	C 	0.92153 0.85741 0.46550 -0.06900
H 	H 	0.97232 0.75724 0.41920 0.04300
H 	H 	0.92131 0.64531 0.42154 0.04000
H 	H 	0.82193 0.65347 0.53668 0.03900
H 	H 	0.87231 0.76525 0.53375 0.04300
H 	H 	0.86537 0.55721 0.47645 0.03500
H 	H 	0.74612 0.54889 0.47995 0.07500
H 	H 	0.00577 0.86601 0.47435 0.05500
H 	H 	0.87106 0.82628 0.46353 0.05500
C 	C 	0.82772 0.76030 0.96579 0.02000
C 	C 	0.76773 0.72701 0.97823 -0.04500
C 	C 	0.73643 0.66420 0.98337 -0.03700
C 	C 	0.76443 0.63382 0.97534 0.00800
C 	C 	0.82412 0.66691 0.96196 -0.03600
C 	C 	0.85500 0.72938 0.95623 -0.04500
C 	C 	0.73339 0.56924 0.98541 0.00300
C 	C 	0.73355 0.52623 0.95462 -0.14200
C 	C 	0.86151 0.82739 0.96229 -0.02700
C 	C 	0.92239 0.86977 0.98416 -0.08000
H 	H 	0.74586 0.75013 0.98490 0.04200
H 	H 	0.69062 0.63929 0.99401 0.03800
H 	H 	0.84707 0.64466 0.95694 0.04200
H 	H 	0.90041 0.75395 0.94490 0.04200
H 	H 	0.70899 0.55649 0.01767 0.04300
H 	H 	0.75396 0.53771 0.92025 0.08200
H 	H 	0.83599 0.84238 0.94289 0.04400
H 	H 	0.94733 0.85478 0.00455 0.06000
