data_crystal

_cell_length_a 18.39460
_cell_length_b 18.84524
_cell_length_c 36.15402
_cell_angle_alpha 95.42512
_cell_angle_beta  95.42698
_cell_angle_gamma 126.57152

_symmetry_space_group_name_	'P 1'
_symmetry_space_group_name_H-M	'P 1'

loop_
_symmetry_equiv_pos_as_xyz
  x,y,z

loop_
_atom_site_label
_atom_site_type_symbol
_atom_site_fract_x
_atom_site_fract_y
_atom_site_fract_z
_atom_site_charge
C 	C 	0.91398 0.99885 0.96917 0.16000
N 	N 	0.87033 0.90987 0.96971 -0.12600
C 	C 	0.91794 0.87572 0.96757 0.13700
N 	N 	0.00878 0.93085 0.96575 -0.10300
C 	C 	0.05205 0.01934 0.96561 0.14200
N 	N 	0.00471 0.05315 0.96730 -0.12400
C 	C 	0.93526 0.02493 0.49260 0.12400
N 	N 	0.02870 0.07565 0.49834 -0.10700
C 	C 	0.06985 0.03521 0.50089 0.14100
N 	N 	0.01765 0.94473 0.49821 -0.10200
C 	C 	0.92440 0.89405 0.49159 0.13800
N 	N 	0.88341 0.93430 0.48883 -0.11800
Cu	Cu	0.77695 0.35180 0.96670 0.93000
Cu	Cu	0.75361 0.28595 0.04836 0.88600
Cu	Cu	0.62194 0.30573 0.00844 0.90300
Cu	Cu	0.60468 0.33636 0.93012 0.90200
C 	C 	0.72213 0.31696 0.88611 0.30900
O 	O 	0.82576 0.48108 0.96361 -0.34500
C 	C 	0.66336 0.33433 0.09198 0.30600
O 	O 	0.63224 0.27361 0.95829 -0.63800
O 	O 	0.75717 0.36766 0.01859 -0.64100
O 	O 	0.84004 0.29563 0.97600 -0.35400
O 	O 	0.73299 0.19922 0.00874 -0.41700
O 	O 	0.68280 0.35596 0.89165 -0.37500
O 	O 	0.48963 0.23632 0.99690 -0.36400
C 	C 	0.44062 0.23668 0.96784 0.31600
C 	C 	0.77955 0.51139 0.97262 0.29500
O 	O 	0.69212 0.45413 0.97446 -0.37300
O 	O 	0.47627 0.27406 0.93876 -0.37700
O 	O 	0.77332 0.31759 0.91446 -0.35400
C 	C 	0.79782 0.22036 0.98937 0.30400
O 	O 	0.61287 0.32863 0.06153 -0.35200
O 	O 	0.73943 0.34298 0.09038 -0.39700
H 	H 	0.59463 0.20807 0.94862 0.17400
H 	H 	0.79412 0.43060 0.03235 0.19600
Cu	Cu	0.60884 0.19649 0.50940 0.93200
Cu	Cu	0.63992 0.18576 0.42188 0.88600
Cu	Cu	0.64241 0.33294 0.46080 0.90100
Cu	Cu	0.64891 0.37909 0.54274 0.90600
C 	C 	0.67183 0.26877 0.58914 0.31100
O 	O 	0.48672 0.16274 0.52072 -0.33800
C 	C 	0.58778 0.27127 0.37809 0.30300
O 	O 	0.69391 0.33558 0.51035 -0.63800
O 	O 	0.57440 0.20084 0.45675 -0.63800
O 	O 	0.65084 0.12215 0.49820 -0.35500
O 	O 	0.73701 0.20815 0.45732 -0.41800
O 	O 	0.63820 0.31320 0.58449 -0.36200
O 	O 	0.71690 0.46200 0.46582 -0.37600
C 	C 	0.72631 0.51831 0.49411 0.31300
C 	C 	0.45659 0.20838 0.51157 0.29500
O 	O 	0.51470 0.29122 0.50611 -0.38100
O 	O 	0.71666 0.49952 0.52846 -0.36600
O 	O 	0.66224 0.21291 0.56067 -0.35100
C 	C 	0.71947 0.15168 0.48000 0.30900
O 	O 	0.60005 0.32674 0.40767 -0.36400
O 	O 	0.57289 0.19495 0.38159 -0.39900
H 	H 	0.76162 0.36928 0.51528 0.17600
H 	H 	0.50742 0.16526 0.44699 0.18400
C 	C 	0.72851 0.25192 0.69831 0.00600
C 	C 	0.80878 0.32547 0.72277 -0.02700
C 	C 	0.81476 0.33164 0.76196 -0.02500
C 	C 	0.74051 0.26427 0.77679 0.00400
C 	C 	0.66431 0.18661 0.75234 -0.02600
C 	C 	0.65834 0.18043 0.71316 -0.02600
C 	C 	0.73500 0.28200 0.81564 0.05700
C 	C 	0.73028 0.29673 0.84816 -0.09000
C 	C 	0.71064 0.25781 0.65952 0.05800
C 	C 	0.69476 0.26187 0.62699 -0.08200
H 	H 	0.86399 0.38045 0.71152 0.05300
H 	H 	0.87461 0.39131 0.78069 0.05500
H 	H 	0.60718 0.13358 0.76358 0.05300
H 	H 	0.59659 0.12270 0.69445 0.05900
C 	C 	0.59648 0.33856 0.19611 0.00600
C 	C 	0.51903 0.25941 0.20410 -0.02700
C 	C 	0.50875 0.25079 0.24162 -0.02700
C 	C 	0.57585 0.32130 0.27127 0.00400
C 	C 	0.64874 0.40334 0.26311 -0.02700
C 	C 	0.65905 0.41194 0.22557 -0.02700
C 	C 	0.57888 0.30433 0.30917 0.05500
C 	C 	0.58130 0.29000 0.34089 -0.09100
C 	C 	0.61990 0.33873 0.15921 0.05700
C 	C 	0.63882 0.33813 0.12821 -0.08300
H 	H 	0.46967 0.20274 0.18144 0.05500
H 	H 	0.45154 0.18752 0.24766 0.05400
H 	H 	0.70029 0.45863 0.28586 0.05400
H 	H 	0.71849 0.47382 0.21961 0.05600
C 	C 	0.79401 0.75289 0.50814 -0.05500
C 	C 	0.86779 0.79597 0.48875 -0.00800
C 	C 	0.88833 0.74519 0.46761 0.07300
C 	C 	0.83993 0.65370 0.46867 -0.01000
C 	C 	0.76886 0.61147 0.48952 -0.08300
C 	C 	0.74330 0.66066 0.50801 0.11600
N 	N 	0.66483 0.61678 0.52609 -0.02300
H 	H 	0.77622 0.79116 0.52351 0.08700
H 	H 	0.85833 0.61571 0.45357 0.06600
N 	N 	0.95684 0.78588 0.44439 -0.02600
O 	O 	0.67271 0.64849 0.56102 -0.08600
O 	O 	0.58427 0.54900 0.50686 -0.09100
O 	O 	0.02456 0.78085 0.44865 -0.06900
O 	O 	0.94822 0.82279 0.41738 -0.08300
C 	C 	0.82344 0.13249 0.51875 -0.00800
C 	C 	0.77379 0.11812 0.48334 -0.08800
C 	C 	0.78284 0.07881 0.45069 0.11000
C 	C 	0.84158 0.05471 0.45381 -0.05500
C 	C 	0.88961 0.06715 0.48927 -0.00700
C 	C 	0.88113 0.10698 0.52191 0.07100
N 	N 	0.93026 0.12078 0.55833 -0.01800
H 	H 	0.81755 0.16375 0.54385 0.06600
H 	H 	0.84688 0.02275 0.42876 0.08000
N 	N 	0.73014 0.06060 0.41446 -0.02800
O 	O 	0.98920 0.20168 0.57819 -0.09300
O 	O 	0.91069 0.05209 0.57290 -0.09400
O 	O 	0.77136 0.09019 0.38606 -0.10900
O 	O 	0.64057 0.00876 0.40917 -0.12900
C 	C 	0.21980 0.08680 0.53695 -0.05300
C 	C 	0.17053 0.08849 0.50545 -0.00600
C 	C 	0.21634 0.13285 0.47661 0.07900
C 	C 	0.31044 0.17360 0.47930 -0.01200
C 	C 	0.35893 0.16913 0.51019 -0.08200
C 	C 	0.31380 0.12753 0.53967 0.11600
N 	N 	0.36370 0.12845 0.57283 -0.02100
H 	H 	0.18493 0.05347 0.55934 0.08200
H 	H 	0.34510 0.20635 0.45677 0.06400
N 	N 	0.16688 0.13394 0.44392 -0.01900
O 	O 	0.43024 0.20450 0.59477 -0.08700
O 	O 	0.33770 0.05311 0.58273 -0.08600
O 	O 	0.19167 0.21025 0.43563 -0.08000
O 	O 	0.10226 0.05916 0.42076 -0.07700
C 	C 	0.85281 0.64345 0.94069 -0.01800
C 	C 	0.81935 0.60654 0.97257 -0.07500
C 	C 	0.81088 0.65582 0.00144 0.10200
C 	C 	0.83652 0.74138 0.99816 -0.04600
C 	C 	0.87147 0.77886 0.96656 -0.01200
C 	C 	0.87717 0.72833 0.93716 0.07800
N 	N 	0.90653 0.76259 0.90341 -0.01800
H 	H 	0.85630 0.60460 0.91782 0.07100
H 	H 	0.83299 0.78021 0.02103 0.07500
N 	N 	0.77822 0.62009 0.03453 -0.02200
O 	O 	0.96637 0.75777 0.88940 -0.08100
O 	O 	0.86863 0.79265 0.88524 -0.07000
O 	O 	0.82006 0.59716 0.05531 -0.10600
O 	O 	0.71054 0.61614 0.04525 -0.08500
C 	C 	0.83028 0.13295 0.94756 -0.01500
C 	C 	0.82511 0.16093 0.98391 -0.07900
C 	C 	0.83774 0.12541 0.01446 0.10100
C 	C 	0.85529 0.06270 0.00825 -0.05000
C 	C 	0.86489 0.03805 0.97230 -0.02900
C 	C 	0.84953 0.07135 0.94154 0.07900
N 	N 	0.85511 0.04394 0.90423 -0.02700
H 	H 	0.81797 0.15787 0.92381 0.06900
H 	H 	0.86822 0.03829 0.03206 0.06900
N 	N 	0.83771 0.15647 0.05216 -0.02500
O 	O 	0.80999 0.95894 0.89027 -0.06400
O 	O 	0.90242 0.10373 0.88366 -0.08900
O 	O 	0.78385 0.09895 0.07229 -0.11100
O 	O 	0.89691 0.24133 0.06744 -0.13600
C 	C 	0.21228 0.14521 0.99675 -0.05200
C 	C 	0.15072 0.07907 0.96489 -0.01100
C 	C 	0.18425 0.06891 0.93295 0.07800
C 	C 	0.27935 0.12262 0.93384 -0.01100
C 	C 	0.34118 0.18687 0.96619 -0.08400
C 	C 	0.30731 0.19956 0.99752 0.11800
N 	N 	0.36921 0.26833 0.02994 -0.02300
H 	H 	0.18632 0.15415 0.02106 0.07700
H 	H 	0.30521 0.11361 0.90952 0.06300
N 	N 	0.12190 0.00444 0.89948 -0.02500
O 	O 	0.42449 0.35200 0.02626 -0.08300
O 	O 	0.36619 0.24798 0.06344 -0.08800
O 	O 	0.05735 0.00663 0.88308 -0.06500
O 	O 	0.13466 0.94872 0.88362 -0.05800
