data_crystal

_cell_length_a 18.51963
_cell_length_b 18.77213
_cell_length_c 36.68036
_cell_angle_alpha 95.43622
_cell_angle_beta  95.43635
_cell_angle_gamma 126.43352

_symmetry_space_group_name_	'P 1'
_symmetry_space_group_name_H-M	'P 1'

loop_
_symmetry_equiv_pos_as_xyz
  x,y,z

loop_
_atom_site_label
_atom_site_type_symbol
_atom_site_fract_x
_atom_site_fract_y
_atom_site_fract_z
_atom_site_charge
C 	C 	0.89593 0.97911 0.96444 0.15800
N 	N 	0.84432 0.88781 0.96179 -0.13000
C 	C 	0.88612 0.84820 0.96614 0.15100
N 	N 	0.97844 0.89923 0.97228 -0.13400
C 	C 	0.02969 0.98972 0.97508 0.16300
N 	N 	0.98854 0.02973 0.97203 -0.12400
C 	C 	0.96230 0.05571 0.49621 0.14800
N 	N 	0.05479 0.10664 0.50034 -0.12000
C 	C 	0.09632 0.06659 0.50255 0.15200
N 	N 	0.04551 0.97631 0.50113 -0.12100
C 	C 	0.95300 0.92512 0.49534 0.15200
N 	N 	0.91168 0.96506 0.49310 -0.13000
Cu	Cu	0.73945 0.32121 0.95994 0.93000
Cu	Cu	0.75658 0.27957 0.04418 0.88100
Cu	Cu	0.60093 0.27572 0.01029 0.90400
Cu	Cu	0.56041 0.29945 0.93269 0.90700
C 	C 	0.66632 0.27800 0.88111 0.31400
O 	O 	0.78511 0.44887 0.95475 -0.33800
C 	C 	0.67601 0.33066 0.09181 0.30800
O 	O 	0.59816 0.24217 0.95878 -0.63800
O 	O 	0.73542 0.34508 0.01298 -0.63900
O 	O 	0.80576 0.26765 0.96562 -0.36100
O 	O 	0.72462 0.18243 0.00717 -0.40600
O 	O 	0.61926 0.30808 0.88847 -0.35800
O 	O 	0.46941 0.20142 0.00442 -0.36600
C 	C 	0.41387 0.19432 0.97636 0.31200
C 	C 	0.74046 0.47987 0.96463 0.29900
O 	O 	0.65818 0.42441 0.97165 -0.38300
O 	O 	0.44495 0.24844 0.95187 -0.36700
O 	O 	0.72061 0.27916 0.90771 -0.35000
C 	C 	0.77160 0.19506 0.98058 0.29800
O 	O 	0.60372 0.28983 0.06468 -0.37300
O 	O 	0.75243 0.34509 0.08594 -0.40400
H 	H 	0.56182 0.17639 0.94974 0.18400
H 	H 	0.77012 0.40969 0.02405 0.17900
Cu	Cu	0.63004 0.22195 0.50989 0.93100
Cu	Cu	0.67519 0.21877 0.42581 0.88800
Cu	Cu	0.66769 0.36117 0.46242 0.90000
Cu	Cu	0.66496 0.40287 0.54255 0.90700
C 	C 	0.67807 0.28709 0.58919 0.31300
O 	O 	0.50579 0.18570 0.51785 -0.33900
C 	C 	0.62720 0.30428 0.38061 0.30200
O 	O 	0.71386 0.36167 0.51206 -0.63800
O 	O 	0.60261 0.22887 0.45753 -0.63700
O 	O 	0.67550 0.14970 0.50074 -0.35500
O 	O 	0.76725 0.24101 0.46321 -0.41900
O 	O 	0.64794 0.33423 0.58348 -0.36000
O 	O 	0.73895 0.49080 0.46827 -0.37600
C 	C 	0.74848 0.54638 0.49670 0.31400
C 	C 	0.47667 0.23210 0.50857 0.29800
O 	O 	0.53519 0.31579 0.50408 -0.38200
O 	O 	0.73701 0.52518 0.53012 -0.36600
O 	O 	0.67653 0.23618 0.56127 -0.35200
C 	C 	0.74665 0.18171 0.48452 0.31200
O 	O 	0.63340 0.35737 0.40922 -0.36400
O 	O 	0.61320 0.22821 0.38433 -0.39800
H 	H 	0.78101 0.39588 0.51816 0.17600
H 	H 	0.53689 0.19227 0.44633 0.18300
C 	C 	0.69310 0.24920 0.77257 0.00700
C 	C 	0.61901 0.17796 0.74556 -0.02600
C 	C 	0.62231 0.17904 0.70764 -0.02500
C 	C 	0.69969 0.25142 0.69656 0.00600
C 	C 	0.77575 0.32005 0.72361 -0.02600
C 	C 	0.77246 0.31894 0.76153 -0.02500
C 	C 	0.68373 0.25633 0.81107 0.05900
C 	C 	0.67566 0.26471 0.84313 -0.07700
C 	C 	0.69555 0.26220 0.65819 0.05900
C 	C 	0.68939 0.27277 0.62642 -0.08000
H 	H 	0.55757 0.12356 0.75386 0.05600
H 	H 	0.56326 0.12561 0.68692 0.05900
H 	H 	0.83590 0.37616 0.71531 0.05400
H 	H 	0.83023 0.37406 0.78224 0.05900
C 	C 	0.62967 0.35464 0.27476 0.00300
C 	C 	0.71344 0.42084 0.26526 -0.02800
C 	C 	0.72110 0.42403 0.22775 -0.02800
C 	C 	0.64499 0.36112 0.19957 0.00200
C 	C 	0.56004 0.29828 0.20909 -0.02800
C 	C 	0.55240 0.29503 0.24660 -0.02700
C 	C 	0.62630 0.33942 0.31257 0.05400
C 	C 	0.62539 0.32454 0.34389 -0.09100
C 	C 	0.65636 0.35379 0.16138 0.05400
C 	C 	0.66566 0.34490 0.12954 -0.09400
H 	H 	0.77346 0.46736 0.28685 0.05200
H 	H 	0.78692 0.47310 0.22065 0.05200
H 	H 	0.50075 0.24969 0.18749 0.05400
H 	H 	0.48734 0.24381 0.25368 0.05400
C 	C 	0.82575 0.78561 0.51351 -0.06200
C 	C 	0.89759 0.82711 0.49363 -0.01900
C 	C 	0.91407 0.77410 0.47165 0.10000
C 	C 	0.86422 0.68221 0.47247 -0.01900
C 	C 	0.79445 0.64128 0.49344 -0.08900
C 	C 	0.77248 0.69281 0.51260 0.14000
Br	Br	0.66569 0.63697 0.53501 -0.21800
H 	H 	0.81066 0.82545 0.52943 0.08600
H 	H 	0.87988 0.64261 0.45679 0.07000
Br	Br	0.99858 0.82368 0.43796 -0.19900
C 	C 	0.85160 0.16396 0.52235 -0.01500
C 	C 	0.79924 0.14653 0.48779 -0.09800
C 	C 	0.80526 0.10401 0.45573 0.14300
C 	C 	0.86435 0.08077 0.45841 -0.06400
C 	C 	0.91610 0.09735 0.49296 -0.01600
C 	C 	0.90988 0.13950 0.52508 0.09800
Br	Br	0.97877 0.16220 0.57299 -0.20600
H 	H 	0.84786 0.19745 0.54702 0.06800
H 	H 	0.86752 0.04665 0.43378 0.08600
Br	Br	0.72929 0.07222 0.40842 -0.27900
C 	C 	0.25055 0.13686 0.53867 -0.06100
C 	C 	0.19560 0.11981 0.50499 -0.01600
C 	C 	0.23404 0.14251 0.47272 0.10300
C 	C 	0.32628 0.18009 0.47425 -0.02000
C 	C 	0.38039 0.19417 0.50765 -0.08800
C 	C 	0.34260 0.17400 0.54020 0.13900
Br	Br	0.41585 0.19843 0.58719 -0.21100
H 	H 	0.22120 0.11950 0.56356 0.08400
H 	H 	0.35543 0.19680 0.44930 0.06300
Br	Br	0.16072 0.11931 0.42599 -0.19600
C 	C 	0.78429 0.62645 0.99678 -0.02400
C 	C 	0.77879 0.57490 0.96476 -0.09000
C 	C 	0.79666 0.61012 0.93164 0.13500
C 	C 	0.82318 0.69724 0.93138 -0.06100
C 	C 	0.83232 0.75012 0.96383 -0.02100
C 	C 	0.81064 0.71345 0.99641 0.10000
Br	Br	0.81922 0.78239 0.04104 -0.20200
H 	H 	0.76778 0.59877 0.02199 0.06300
H 	H 	0.84015 0.72519 0.90624 0.08000
Br	Br	0.78325 0.53994 0.88623 -0.21400
C 	C 	0.86549 0.15825 0.95148 -0.02700
C 	C 	0.79090 0.13033 0.96909 -0.08500
C 	C 	0.73944 0.04280 0.97792 0.12700
C 	C 	0.77279 0.99249 0.97546 -0.05100
C 	C 	0.85187 0.02405 0.96070 -0.02700
C 	C 	0.89346 0.10381 0.94575 0.10500
Br	Br	0.98134 0.13477 0.91412 -0.20300
H 	H 	0.90181 0.22215 0.94210 0.07800
H 	H 	0.73678 0.92866 0.98491 0.08500
Br	Br	0.61814 0.98506 0.98794 -0.21600
C 	C 	0.28517 0.15576 0.00758 -0.01600
C 	C 	0.31586 0.13852 0.97686 -0.09000
C 	C 	0.25219 0.07147 0.94586 0.14000
C 	C 	0.15877 0.02389 0.94547 -0.06100
C 	C 	0.12804 0.04207 0.97589 -0.02200
C 	C 	0.19159 0.10786 0.00723 0.10500
Br	Br	0.15193 0.13156 0.05012 -0.20000
H 	H 	0.33408 0.20725 0.03153 0.07200
H 	H 	0.10985 0.97246 0.92150 0.08600
Br	Br	0.29154 0.04169 0.90439 -0.23500
