data_crystal

_cell_length_a 20.71078
_cell_length_b 21.17798
_cell_length_c 39.06707
_cell_angle_alpha 60.72364
_cell_angle_beta  118.96553
_cell_angle_gamma 133.33670

_symmetry_space_group_name_	'P 1'
_symmetry_space_group_name_H-M	'P 1'

loop_
_symmetry_equiv_pos_as_xyz
  x,y,z

loop_
_atom_site_label
_atom_site_type_symbol
_atom_site_fract_x
_atom_site_fract_y
_atom_site_fract_z
_atom_site_charge
C 	C 	0.29366 0.67234 0.14281 0.11500
C 	C 	0.25052 0.55537 0.12378 0.11600
N 	N 	0.22705 0.59462 0.13019 -0.14300
C 	C 	0.28874 0.66444 0.65477 0.11300
C 	C 	0.28508 0.56810 0.63816 0.11700
N 	N 	0.24385 0.58202 0.64972 -0.14200
Co	Co	0.03931 0.01470 0.03372 1.15600
Co	Co	0.09663 0.90467 0.03419 1.17900
C 	C 	0.21609 0.10179 0.02100 0.31300
C 	C 	0.02696 0.99444 0.21173 0.33300
O 	O 	0.01501 0.09965 0.02593 -0.48400
C 	C 	0.04391 0.20566 0.10508 0.31900
C 	C 	0.19161 0.88407 0.11926 0.29400
O 	O 	0.03221 0.95186 0.19788 -0.37900
O 	O 	0.20593 0.93600 0.08330 -0.37600
O 	O 	0.14307 0.87810 0.13523 -0.37900
O 	O 	0.06675 0.17232 0.09543 -0.41100
O 	O 	0.04180 0.92437 0.05814 -0.73600
O 	O 	0.16649 0.03818 0.00263 -0.44400
O 	O 	0.17888 0.10150 0.04056 -0.42300
Co	Co	0.01815 0.09667 0.57421 1.18100
Co	Co	0.08134 0.02788 0.54395 1.16200
Co	Co	0.08384 0.87701 0.54197 1.17300
C 	C 	0.25437 0.04424 0.56462 0.23800
O 	O 	0.03587 0.07258 0.68583 -0.43600
O 	O 	0.08627 0.13326 0.53665 -0.48100
C 	C 	0.11290 0.23670 0.61526 0.31200
C 	C 	0.08721 0.77252 0.62676 0.30500
O 	O 	0.05543 0.76531 0.58989 -0.41200
O 	O 	0.07780 0.81800 0.63589 -0.38800
O 	O 	0.03011 0.20627 0.61099 -0.41900
O 	O 	0.12645 0.19392 0.60671 -0.40600
O 	O 	0.04234 0.91928 0.56074 -0.73700
O 	O 	0.21347 0.95735 0.57407 -0.34900
O 	O 	0.21892 0.07678 0.56593 -0.39900
C 	C 	0.08529 0.04446 0.80472 -0.03400
C 	C 	0.14539 0.11971 0.82075 -0.03800
C 	C 	0.12893 0.11814 0.85212 -0.05200
C 	C 	0.05262 0.04100 0.86822 -0.01300
C 	C 	0.03829 0.03747 0.90114 -0.08600
C 	C 	0.09873 0.04756 0.77173 -0.07400
H 	H 	0.20442 0.17991 0.80863 0.03100
H 	H 	0.17583 0.17689 0.86395 0.03400
H 	H 	0.08694 0.09439 0.91442 0.04800
H 	H 	0.15616 0.10849 0.75866 0.04500
C 	C 	0.18911 0.15231 0.35167 -0.09500
C 	C 	0.19298 0.14195 0.32002 0.00400
C 	C 	0.12196 0.06366 0.30591 -0.08800
C 	C 	0.04676 0.99516 0.32393 0.16300
C 	C 	0.11452 0.08423 0.36991 0.07500
C 	C 	0.04704 0.98143 0.25561 -0.03200
C 	C 	0.12309 0.05507 0.27266 -0.04400
C 	C 	0.11297 0.09200 0.40332 -0.05600
H 	H 	0.24449 0.21315 0.36210 0.04500
H 	H 	0.25088 0.19529 0.30625 0.02000
H 	H 	0.17934 0.10923 0.25787 0.03200
H 	H 	0.17031 0.15052 0.41536 0.04100
C 	C 	0.24082 0.47710 0.59814 -0.07400
C 	C 	0.24012 0.47960 0.63333 -0.02600
C 	C 	0.22114 0.40462 0.66695 0.04200
C 	C 	0.19674 0.32691 0.66356 -0.02300
C 	C 	0.18866 0.32224 0.62686 -0.11200
C 	C 	0.22318 0.40168 0.59635 0.09300
C 	C 	0.23792 0.40545 0.56105 -0.20500
H 	H 	0.17523 0.26711 0.68817 0.03600
C 	C 	0.22563 0.40644 0.70619 -0.17900
H 	H 	0.25877 0.36188 0.57049 0.08000
H 	H 	0.17302 0.41298 0.70161 0.06800
H 	H 	0.29431 0.46362 0.71744 0.06800
H 	H 	0.21302 0.34414 0.72996 0.05900
C 	C 	0.14706 0.61938 0.66276 -0.07500
C 	C 	0.24119 0.68276 0.66442 -0.02500
C 	C 	0.28664 0.76621 0.67166 0.04700
C 	C 	0.23447 0.79268 0.66583 -0.02600
C 	C 	0.13878 0.73437 0.65645 -0.10300
C 	C 	0.09701 0.64351 0.66139 0.10000
H 	H 	0.11203 0.55207 0.66153 0.05400
H 	H 	0.26830 0.86004 0.66653 0.04800
C 	C 	0.09343 0.36240 0.07587 -0.01700
C 	C 	0.10783 0.29957 0.10783 -0.11000
C 	C 	0.16305 0.31999 0.14575 0.09400
C 	C 	0.19454 0.39762 0.15221 -0.07300
C 	C 	0.18359 0.46211 0.12007 -0.02700
C 	C 	0.13078 0.44346 0.08173 0.04300
C 	C 	0.11594 0.51056 0.04684 -0.18000
H 	H 	0.05018 0.34666 0.04684 0.03600
H 	H 	0.23492 0.41170 0.18173 0.04800
C 	C 	0.18599 0.25798 0.18014 -0.20600
H 	H 	0.09029 0.53112 0.05569 0.07000
H 	H 	0.18176 0.21525 0.16936 0.07900
H 	H 	0.13882 0.21540 0.20031 0.07800
H 	H 	0.25695 0.29721 0.19798 0.06700
C 	C 	0.16175 0.73403 0.14765 -0.02600
C 	C 	0.22527 0.82773 0.14039 -0.09300
C 	C 	0.31573 0.86681 0.14247 0.07800
C 	C 	0.33653 0.81524 0.14337 -0.06400
C 	C 	0.27023 0.72266 0.14588 -0.02800
C 	C 	0.18396 0.68055 0.15141 0.05000
C 	C 	0.11586 0.58001 0.16167 -0.18000
H 	H 	0.09356 0.70290 0.14845 0.04400
H 	H 	0.06507 0.55896 0.17498 0.06400
H 	H 	0.15056 0.54778 0.18440 0.07100
H 	H 	0.07815 0.55534 0.13391 0.07500
H 	H 	0.02101 0.33853 0.56076 0.09400
C 	C 	0.34410 0.15727 0.51292 -0.03000
C 	C 	0.34135 0.10578 0.55284 -0.10200
H 	H 	0.28787 0.16226 0.49360 0.03800
C 	C 	0.31584 0.16098 0.02640 -0.12300
C 	C 	0.29968 0.20242 0.95107 -0.20400
H 	H 	0.34610 0.25725 0.93027 0.06600
H 	H 	0.25435 0.21801 0.94668 0.07400
H 	H 	0.25787 0.13861 0.94275 0.07100
O 	O 	0.01450 0.05670 0.18707 -0.44700
O 	O 	0.03520 0.77141 0.06553 -0.40400
C 	C 	0.06509 0.00829 0.46802 0.23300
O 	O 	0.11868 0.98354 0.49189 -0.35000
O 	O 	0.03639 0.02758 0.48282 -0.38700
C 	C 	0.04304 0.01988 0.42418 -0.07600
H 	H 	0.17438 0.38327 0.53687 0.06900
H 	H 	0.06506 0.48231 0.02018 0.06200
H 	H 	0.18129 0.57049 0.03784 0.07000
H 	H 	0.34445 0.22655 0.43533 0.06000
N 	N 	0.33932 0.59567 0.12812 -0.14200
Co	Co	0.01738 0.86119 0.10388 1.18700
C 	C 	0.04293 0.00555 0.35592 -0.17400
H 	H 	0.26045 0.53599 0.57304 0.05100
H 	H 	0.01634 0.30250 0.52544 0.09200
H 	H 	0.01766 0.39837 0.50846 0.08300
H 	H 	0.29308 0.47477 0.54861 0.07100
N 	N 	0.36909 0.63606 0.63101 -0.14200
H 	H 	0.34404 0.14302 0.09007 0.03200
C 	C 	0.02366 0.99620 0.70903 0.32500
C 	C 	0.00845 0.96694 0.82054 0.04900
C 	C 	0.03277 0.97618 0.75261 -0.01100
C 	C 	0.35341 0.19467 0.99426 0.10300
O 	O 	0.01106 0.94178 0.69451 -0.37500
C 	C 	0.37165 0.16577 0.06558 -0.01400
N 	N 	0.37464 0.73140 0.64835 -0.14200
H 	H 	0.37497 0.97405 0.62233 0.12500
H 	H 	0.37605 0.99031 0.15369 0.07700
O 	O 	0.98261 0.99636 0.97429 -0.34100
C 	C 	0.99203 0.96517 0.85234 0.01300
C 	C 	0.96623 0.95755 0.91937 -0.00100
C 	C 	0.97411 0.94105 0.96229 0.27200
O 	O 	0.98153 0.87627 0.98850 -0.39300
H 	H 	0.39054 0.00276 0.10806 0.02600
H 	H 	0.95117 0.72602 0.99286 0.07000
C 	C 	0.99704 0.57391 0.66068 -0.20900
H 	H 	0.98386 0.50873 0.68115 0.06400
H 	H 	0.44778 0.85683 0.56543 0.07800
C 	C 	0.87829 0.67390 0.99414 -0.19800
H 	H 	0.84101 0.64370 0.96815 0.06800
H 	H 	0.84822 0.70506 0.99058 0.08200
C 	C 	0.38886 0.96535 0.14012 -0.12800
H 	H 	0.97307 0.59364 0.67110 0.06900
Co	Co	0.96702 0.05875 0.07281 1.15700
O 	O 	0.96139 0.15763 0.10954 -0.42700
H 	H 	0.95787 0.56508 0.62955 0.07400
H 	H 	0.85943 0.60702 0.61337 0.07100
H 	H 	0.40419 0.84801 0.14121 0.05800
H 	H 	0.45692 0.97878 0.15689 0.06700
H 	H 	0.76583 0.49106 0.61648 0.06400
C 	C 	0.41447 0.09898 0.57800 0.09800
C 	C 	0.41432 0.04534 0.62128 -0.27300
H 	H 	0.38355 0.05146 0.63516 0.07800
C 	C 	0.69040 0.24255 0.04233 0.11500
N 	N 	0.60315 0.20837 0.03837 -0.14700
C 	C 	0.58725 0.24729 0.04963 0.11200
N 	N 	0.65809 0.32191 0.06342 -0.14200
C 	C 	0.74485 0.35828 0.06619 0.11500
N 	N 	0.76131 0.31753 0.05653 -0.14500
C 	C 	0.70498 0.29064 0.50349 0.11000
N 	N 	0.61904 0.22989 0.50974 -0.14600
C 	C 	0.57767 0.25746 0.51118 0.11600
N 	N 	0.62363 0.34460 0.50857 -0.14200
C 	C 	0.71170 0.40426 0.50606 0.11600
N 	N 	0.75253 0.37787 0.50294 -0.14300
N 	N 	0.38308 0.70931 0.14902 -0.14200
C 	C 	0.40561 0.67094 0.14157 0.11800
C 	C 	0.41489 0.71667 0.63688 0.12000
Co	Co	0.94812 0.90723 0.14399 1.18200
C 	C 	0.95299 0.71809 0.07163 0.29800
Co	Co	0.89714 0.02556 0.14260 1.13700
O 	O 	0.93617 0.99212 0.11703 -0.72300
O 	O 	0.97580 0.82447 0.15223 -0.46800
O 	O 	0.96314 0.94163 0.08221 -0.56700
C 	C 	0.77835 0.82733 0.16320 0.30800
O 	O 	0.82999 0.89634 0.17822 -0.40000
O 	O 	0.81440 0.81292 0.15021 -0.39300
C 	C 	0.79642 0.04403 0.05803 0.21900
O 	O 	0.78580 0.99171 0.09444 -0.33700
O 	O 	0.85174 0.06123 0.04140 -0.38800
O 	O 	0.92924 0.74150 0.08699 -0.39200
Co	Co	0.98210 0.84655 0.59627 1.18300
Co	Co	0.94073 0.92275 0.63499 1.19400
C 	C 	0.88682 0.73569 0.53512 0.29400
Co	Co	0.93692 0.07459 0.63544 1.15400
O 	O 	0.96395 0.02641 0.61208 -0.79600
O 	O 	0.92705 0.81440 0.63863 -0.46900
O 	O 	0.98064 0.96459 0.57885 -0.55700
C 	C 	0.77994 0.88287 0.64443 0.31300
O 	O 	0.84145 0.94701 0.66319 -0.39500
O 	O 	0.80433 0.86187 0.62828 -0.38200
C 	C 	0.87238 0.12882 0.54734 0.29600
O 	O 	0.84396 0.07282 0.58095 -0.41300
O 	O 	0.92743 0.13325 0.53608 -0.39400
O 	O 	0.94882 0.80302 0.51365 -0.39100
O 	O 	0.87866 0.74706 0.56343 -0.38200
C 	C 	0.87130 0.81418 0.82059 -0.03800
C 	C 	0.85572 0.81202 0.85247 -0.04800
C 	C 	0.91577 0.88730 0.86849 0.02200
C 	C 	0.94720 0.89160 0.80424 0.00200
C 	C 	0.90248 0.88423 0.90158 -0.04100
C 	C 	0.96036 0.89613 0.77061 -0.03500
H 	H 	0.82402 0.75568 0.80853 0.03300
H 	H 	0.79707 0.75159 0.86478 0.03800
H 	H 	0.84634 0.82277 0.91528 0.04400
H 	H 	0.91088 0.84001 0.75677 0.03900
C 	C 	0.96832 0.93658 0.37432 0.11300
C 	C 	0.89721 0.85832 0.36015 -0.09200
C 	C 	0.90025 0.84867 0.32797 0.00600
C 	C 	0.97472 0.91692 0.30962 -0.04800
C 	C 	0.97585 0.90978 0.27584 -0.00700
C 	C 	0.96793 0.94477 0.40796 -0.01700
H 	H 	0.83966 0.80468 0.37413 0.04900
H 	H 	0.84441 0.78824 0.31724 0.02600
H 	H 	0.91775 0.85218 0.26325 0.03700
H 	H 	0.91339 0.88937 0.42367 0.04900
C 	C 	0.57185 0.77217 0.67616 -0.06900
C 	C 	0.51297 0.77988 0.63885 -0.02900
C 	C 	0.54350 0.82337 0.60312 0.05400
C 	C 	0.62732 0.84766 0.60496 -0.02000
C 	C 	0.68343 0.83396 0.64223 -0.10300
C 	C 	0.65428 0.79390 0.67809 0.09600
C 	C 	0.71212 0.77667 0.71863 -0.20200
H 	H 	0.54936 0.74095 0.70368 0.04900
H 	H 	0.65065 0.88077 0.57751 0.05500
C 	C 	0.48446 0.83914 0.56276 -0.18700
H 	H 	0.67010 0.72283 0.74123 0.06700
H 	H 	0.76501 0.83875 0.72959 0.08200
H 	H 	0.74550 0.75475 0.71651 0.07300
H 	H 	0.43386 0.77759 0.55144 0.07400
H 	H 	0.52628 0.89534 0.54032 0.07900
C 	C 	0.38847 0.82394 0.68814 -0.18400
H 	H 	0.42389 0.86909 0.66303 0.07800
H 	H 	0.41318 0.78202 0.70967 0.07500
H 	H 	0.40711 0.86619 0.70494 0.07200
C 	C 	0.64891 0.74408 0.19238 -0.02000
C 	C 	0.67922 0.76824 0.15979 -0.11000
C 	C 	0.61724 0.75523 0.12177 0.09800
C 	C 	0.52997 0.72890 0.11585 -0.07500
C 	C 	0.50180 0.71056 0.14779 -0.02600
C 	C 	0.56057 0.71500 0.18676 0.04400
C 	C 	0.53016 0.69017 0.22228 -0.18000
H 	H 	0.69583 0.75208 0.22180 0.04000
H 	H 	0.48323 0.72150 0.08636 0.05200
C 	C 	0.64318 0.76831 0.08759 -0.20700
H 	H 	0.58054 0.68858 0.25117 0.06300
H 	H 	0.46416 0.62256 0.22466 0.06900
H 	H 	0.52220 0.74010 0.21858 0.07400
H 	H 	0.66243 0.72346 0.09699 0.08200
H 	H 	0.70128 0.83887 0.07879 0.08500
H 	H 	0.58565 0.75214 0.06042 0.07100
C 	C 	0.84620 0.30969 0.51343 -0.08400
C 	C 	0.75050 0.26007 0.50189 -0.02300
C 	C 	0.69922 0.17768 0.49232 0.03300
C 	C 	0.74175 0.13729 0.50388 -0.01900
C 	C 	0.83612 0.18241 0.52040 -0.11300
C 	C 	0.88941 0.27312 0.52058 0.10100
C 	C 	0.99191 0.33081 0.52949 -0.24300
H 	H 	0.88727 0.37595 0.51774 0.05400
H 	H 	0.70077 0.06945 0.50141 0.02400
C 	C 	0.60078 0.13354 0.46916 -0.17100
H 	H 	0.58787 0.18431 0.44717 0.06400
H 	H 	0.55543 0.08819 0.49043 0.05600
H 	H 	0.58299 0.09311 0.45162 0.04900
C 	C 	0.77806 0.49352 0.55218 -0.07100
C 	C 	0.76573 0.49189 0.51389 -0.02900
C 	C 	0.78158 0.56785 0.48141 0.04500
C 	C 	0.80838 0.64367 0.48764 -0.02600
C 	C 	0.82437 0.64667 0.52636 -0.09900
C 	C 	0.80123 0.56796 0.55800 0.08800
C 	C 	0.79223 0.55958 0.59635 -0.19800
H 	H 	0.76257 0.43387 0.57676 0.04700
H 	H 	0.82130 0.70230 0.46268 0.04400
C 	C 	0.76678 0.56724 0.43976 -0.18000
H 	H 	0.74372 0.57380 0.58898 0.08000
H 	H 	0.69261 0.52180 0.42697 0.06600
H 	H 	0.80257 0.54388 0.44119 0.06900
H 	H 	0.79375 0.63517 0.41897 0.06200
C 	C 	0.48665 0.13997 0.56211 -0.08300
C 	C 	0.48969 0.19204 0.52231 -0.03100
C 	C 	0.41587 0.19744 0.49698 0.04400
H 	H 	0.54321 0.13551 0.58146 0.04300
C 	C 	0.41490 0.24854 0.45330 -0.18000
H 	H 	0.48490 0.06907 0.63973 0.06700
H 	H 	0.44150 0.23706 0.43976 0.06300
H 	H 	0.45775 0.32123 0.45099 0.06900
C 	C 	0.81250 0.18718 0.02601 -0.04500
C 	C 	0.75543 0.09324 0.03798 -0.07100
C 	C 	0.66710 0.04983 0.04095 0.01100
C 	C 	0.64536 0.09966 0.04099 -0.05100
C 	C 	0.70777 0.19335 0.03458 -0.04500
C 	C 	0.78800 0.23783 0.02294 0.05600
C 	C 	0.84760 0.33820 0.00733 -0.19100
H 	H 	0.87833 0.22106 0.02137 0.04400
H 	H 	0.58113 0.06499 0.04744 0.03000
C 	C 	0.59843 0.94961 0.04754 -0.12800
H 	H 	0.88698 0.35801 0.98792 0.06300
H 	H 	0.89686 0.37012 0.03306 0.07100
H 	H 	0.80573 0.36410 0.98861 0.07200
H 	H 	0.60453 0.91793 0.08040 0.07400
H 	H 	0.60914 0.92289 0.03391 0.07200
H 	H 	0.52788 0.93087 0.03332 0.06900
C 	C 	0.88297 0.55738 0.10616 -0.02200
C 	C 	0.89566 0.62448 0.07001 -0.10200
C 	C 	0.87023 0.60477 0.03386 0.08600
C 	C 	0.83542 0.51941 0.03476 -0.07100
C 	C 	0.81648 0.45077 0.07016 -0.02900
C 	C 	0.84485 0.47092 0.10661 0.04100
C 	C 	0.83061 0.39939 0.14565 -0.17700
H 	H 	0.90504 0.57307 0.13413 0.03600
H 	H 	0.81519 0.50410 0.00696 0.04600
H 	H 	0.87670 0.42925 0.17211 0.05600
H 	H 	0.84547 0.35629 0.14747 0.06100
H 	H 	0.75881 0.35737 0.14748 0.06200
C 	C 	0.44023 0.21757 0.00270 -0.08800
C 	C 	0.49345 0.21544 0.04232 -0.02300
C 	C 	0.46044 0.19286 0.07387 0.03200
H 	H 	0.46729 0.23909 0.97824 0.05300
C 	C 	0.51963 0.19842 0.11619 -0.17200
H 	H 	0.57225 0.26964 0.11759 0.06600
H 	H 	0.55358 0.16686 0.12548 0.05400
H 	H 	0.47889 0.16321 0.13841 0.04800
