data_crystal

_cell_length_a 25.07167
_cell_length_b 21.45837
_cell_length_c 53.22546
_cell_angle_alpha 90.55834
_cell_angle_beta  91.19368
_cell_angle_gamma 110.87215

_symmetry_space_group_name_	'P 1'
_symmetry_space_group_name_H-M	'P 1'

loop_
_symmetry_equiv_pos_as_xyz
  x,y,z

loop_
_atom_site_label
_atom_site_type_symbol
_atom_site_fract_x
_atom_site_fract_y
_atom_site_fract_z
_atom_site_charge
Ni	Ni	0.71131 0.30478 0.89374 1.10500
O 	O 	0.65172 0.26407 0.86554 -0.70000
Ni	Ni	0.58185 0.27284 0.88105 1.10700
O 	O 	0.77463 0.27964 0.87758 -0.31700
O 	O 	0.71983 0.17319 0.86603 -0.35200
O 	O 	0.74690 0.39202 0.87418 -0.33700
Ni	Ni	0.63562 0.16790 0.86135 1.09500
O 	O 	0.74556 0.44320 0.92020 -0.36700
O 	O 	0.62792 0.15336 0.89912 -0.39500
O 	O 	0.52578 0.22752 0.85246 -0.33500
O 	O 	0.64216 0.31545 0.90881 -0.70100
O 	O 	0.76560 0.34732 0.92313 -0.34000
O 	O 	0.51948 0.29796 0.89840 -0.33600
O 	O 	0.57586 0.40583 0.90650 -0.36400
Ni	Ni	0.65947 0.41189 0.91273 1.08300
H 	H 	0.66094 0.28794 0.84946 0.20300
H 	H 	0.63312 0.29261 0.92509 0.17600
C 	C 	0.58259 0.15412 0.91075 0.32000
O 	O 	0.67179 0.42788 0.87542 -0.38400
C 	C 	0.76507 0.22704 0.86286 0.39100
C 	C 	0.51889 0.16640 0.84498 0.39700
C 	C 	0.71963 0.42988 0.86546 0.40000
C 	C 	0.53214 0.35279 0.91212 0.30700
C 	C 	0.77232 0.40771 0.93150 0.31300
O 	O 	0.55098 0.18597 0.90116 -0.35300
O 	O 	0.54869 0.13379 0.85594 -0.35800
Ni	Ni	0.63337 0.34641 0.56703 1.11100
O 	O 	0.69384 0.35149 0.54104 -0.69700
Ni	Ni	0.74779 0.32056 0.56098 1.10800
O 	O 	0.60236 0.41052 0.54854 -0.32900
O 	O 	0.69267 0.48614 0.54614 -0.38200
O 	O 	0.57486 0.26790 0.54700 -0.34200
Ni	Ni	0.73654 0.43697 0.52621 1.08300
O 	O 	0.55859 0.21975 0.59372 -0.36500
O 	O 	0.80940 0.48217 0.54797 -0.36100
O 	O 	0.81597 0.34157 0.53728 -0.33800
O 	O 	0.68220 0.30494 0.58533 -0.69900
O 	O 	0.57387 0.33208 0.59397 -0.32400
O 	O 	0.78624 0.27382 0.58476 -0.32600
O 	O 	0.70597 0.17968 0.58481 -0.36700
Ni	Ni	0.63676 0.21092 0.58899 1.09900
H 	H 	0.67730 0.31901 0.52712 0.16500
H 	H 	0.69519 0.32709 0.60191 0.21100
C 	C 	0.82207 0.46244 0.56990 0.41500
O 	O 	0.62186 0.19485 0.55139 -0.39600
C 	C 	0.63737 0.46998 0.54228 0.30200
C 	C 	0.82163 0.37428 0.51585 0.32700
C 	C 	0.58464 0.21448 0.53939 0.30900
C 	C 	0.75816 0.21386 0.59329 0.39900
C 	C 	0.54975 0.27217 0.60364 0.38900
O 	O 	0.78741 0.40844 0.58038 -0.35700
O 	O 	0.77941 0.39037 0.50604 -0.39800
Ni	Ni	0.01789 0.94728 0.74432 1.10400
O 	O 	0.03655 0.88633 0.71927 -0.71000
Ni	Ni	0.07684 0.95109 0.69310 1.11200
O 	O 	0.97713 0.86803 0.76690 -0.30200
O 	O 	0.91701 0.81300 0.73460 -0.34300
O 	O 	0.09291 0.96265 0.76493 -0.32200
Ni	Ni	0.96695 0.82388 0.70305 1.10700
O 	O 	0.08586 0.08672 0.76693 -0.34100
O 	O 	0.93610 0.89582 0.69165 -0.36200
O 	O 	0.09559 0.88321 0.67119 -0.30900
O 	O 	0.04997 0.01184 0.71619 -0.68300
O 	O 	0.99625 0.00871 0.76794 -0.31800
O 	O 	0.13386 0.02491 0.67237 -0.27800
O 	O 	0.14684 0.11852 0.69587 -0.31000
Ni	Ni	0.11125 0.08949 0.73060 1.11200
H 	H 	0.06101 0.86335 0.72658 0.20800
H 	H 	0.01974 0.02590 0.70873 0.20900
C 	C 	0.96089 0.93838 0.67417 0.39900
O 	O 	0.15621 0.02914 0.73704 -0.37200
C 	C 	0.93729 0.81380 0.75763 0.38800
C 	C 	0.05410 0.82629 0.66517 0.39000
C 	C 	0.14534 0.98881 0.75623 0.38100
C 	C 	0.16813 0.08194 0.68233 0.39100
C 	C 	0.03186 0.06935 0.77293 0.40000
O 	O 	0.01297 0.94639 0.66749 -0.32300
O 	O 	0.00030 0.81961 0.66872 -0.35800
Ni	Ni	0.25477 0.69565 0.39108 1.10800
O 	O 	0.32106 0.73949 0.36788 -0.70200
Ni	Ni	0.38780 0.74269 0.38961 1.11000
O 	O 	0.19832 0.70101 0.36367 -0.30900
O 	O 	0.24194 0.81442 0.36099 -0.35600
O 	O 	0.25155 0.60786 0.37490 -0.36600
Ni	Ni	0.32949 0.83073 0.35986 1.09800
O 	O 	0.23930 0.62460 0.44669 -0.39000
O 	O 	0.33396 0.86107 0.39664 -0.38800
O 	O 	0.44831 0.78138 0.36359 -0.33300
O 	O 	0.32215 0.70766 0.41407 -0.69800
O 	O 	0.18749 0.64562 0.41355 -0.32300
O 	O 	0.44664 0.72331 0.41269 -0.32600
O 	O 	0.38611 0.61621 0.41701 -0.37900
Ni	Ni	0.31186 0.62340 0.43092 1.08300
H 	H 	0.31901 0.71279 0.35237 0.20300
H 	H 	0.32413 0.74180 0.42704 0.16200
C 	C 	0.37880 0.86846 0.41114 0.31300
O 	O 	0.26537 0.54636 0.40727 -0.36400
C 	C 	0.20025 0.75825 0.35427 0.38500
C 	C 	0.45033 0.83493 0.35096 0.39300
C 	C 	0.23638 0.55194 0.38712 0.41300
C 	C 	0.43568 0.66347 0.42180 0.29600
C 	C 	0.19071 0.61155 0.43384 0.31500
O 	O 	0.41328 0.83631 0.40608 -0.34600
O 	O 	0.41711 0.86900 0.35703 -0.35500
Ni	Ni	0.34572 0.67369 0.05916 1.11100
O 	O 	0.27434 0.66887 0.03878 -0.70000
Ni	Ni	0.22827 0.69152 0.06521 1.11000
O 	O 	0.37013 0.61534 0.03445 -0.33000
O 	O 	0.28085 0.53552 0.03400 -0.37700
O 	O 	0.39423 0.75610 0.03945 -0.34400
Ni	Ni	0.22745 0.58534 0.02238 1.08300
O 	O 	0.42867 0.79818 0.08704 -0.37400
O 	O 	0.16590 0.53692 0.04770 -0.38400
O 	O 	0.14945 0.66657 0.04720 -0.32800
O 	O 	0.30468 0.70968 0.08381 -0.70000
O 	O 	0.41613 0.68729 0.08121 -0.33700
O 	O 	0.20010 0.73350 0.09452 -0.31200
O 	O 	0.27680 0.83079 0.09156 -0.36200
Ni	Ni	0.34872 0.80396 0.08887 1.09300
H 	H 	0.28378 0.70416 0.02604 0.17400
H 	H 	0.30043 0.68572 0.09988 0.20600
C 	C 	0.17013 0.54488 0.07228 0.42200
O 	O 	0.34790 0.82494 0.05175 -0.39200
C 	C 	0.33433 0.55629 0.02702 0.29800
C 	C 	0.13753 0.64392 0.02366 0.32100
C 	C 	0.38103 0.80959 0.03607 0.31500
C 	C 	0.22962 0.79457 0.10276 0.38900
C 	C 	0.44229 0.74546 0.09276 0.39900
O 	O 	0.20241 0.60165 0.08296 -0.35800
O 	O 	0.17617 0.63314 0.00949 -0.40000
Ni	Ni	0.93877 0.03519 0.25638 1.11100
O 	O 	0.93853 0.10215 0.22957 -0.70200
Ni	Ni	0.91222 0.04303 0.19919 1.11700
O 	O 	0.96817 0.11010 0.28314 -0.29400
O 	O 	0.04558 0.16465 0.25978 -0.34500
O 	O 	0.85597 0.02187 0.26690 -0.31400
Ni	Ni	0.01636 0.16238 0.22284 1.10600
O 	O 	0.86081 0.88987 0.26855 -0.34400
O 	O 	0.04858 0.08862 0.21567 -0.35600
O 	O 	0.90957 0.11664 0.17562 -0.30000
O 	O 	0.92230 0.97594 0.22503 -0.68500
O 	O 	0.94396 0.96907 0.28243 -0.32800
O 	O 	0.86668 0.97517 0.17187 -0.28700
O 	O 	0.83857 0.87701 0.19244 -0.29800
Ni	Ni	0.85458 0.89671 0.23052 1.12000
H 	H 	0.91266 0.12658 0.23329 0.21500
H 	H 	0.95512 0.96191 0.22196 0.21100
C 	C 	0.03215 0.04953 0.19568 0.38200
O 	O 	0.80990 0.95865 0.23251 -0.37800
C 	C 	0.01323 0.16348 0.27902 0.38600
C 	C 	0.95446 0.17280 0.17537 0.39400
C 	C 	0.80831 0.98929 0.25378 0.39000
C 	C 	0.82664 0.91829 0.17729 0.39200
C 	C 	0.91039 0.90645 0.28058 0.39800
O 	O 	0.98660 0.04726 0.18261 -0.31400
O 	O 	0.00381 0.17527 0.18551 -0.35500
C 	C 	0.03913 0.44824 0.10815 0.22800
C 	C 	0.04868 0.38861 0.11273 0.00400
C 	C 	0.09963 0.38185 0.10489 0.22800
C 	C 	0.13995 0.43359 0.09212 0.32100
C 	C 	0.13056 0.49326 0.08776 -0.21700
C 	C 	0.08046 0.50084 0.09618 0.32100
C 	C 	0.00747 0.33513 0.12737 -0.00700
F 	F 	0.11032 0.32543 0.10993 -0.32900
F 	F 	0.07168 0.55904 0.09262 -0.37000
C 	C 	0.98135 0.27077 0.11679 0.24600
C 	C 	0.95526 0.21651 0.13233 0.32400
C 	C 	0.95479 0.22656 0.15843 -0.18900
C 	C 	0.97263 0.29201 0.16824 0.31800
C 	C 	0.00005 0.34603 0.15291 0.23600
F 	F 	0.98459 0.26024 0.09177 -0.32900
F 	F 	0.96914 0.30263 0.19324 -0.36300
F 	F 	0.93539 0.15371 0.12234 -0.33900
F 	F 	0.02327 0.40825 0.16327 -0.31300
F 	F 	0.98990 0.45522 0.11536 -0.31400
F 	F 	0.18827 0.42583 0.08406 -0.37600
C 	C 	0.56166 0.79172 0.14125 0.23700
C 	C 	0.60929 0.80621 0.12587 0.00400
C 	C 	0.60130 0.79364 0.09988 0.23200
C 	C 	0.54615 0.76931 0.08921 0.32100
C 	C 	0.49862 0.75786 0.10444 -0.20600
C 	C 	0.50650 0.76801 0.13053 0.31600
C 	C 	0.66742 0.83687 0.13687 0.00100
F 	F 	0.64707 0.80702 0.08489 -0.33100
F 	F 	0.46077 0.75669 0.14541 -0.37100
C 	C 	0.70257 0.79894 0.13959 0.24200
C 	C 	0.75638 0.82687 0.15137 0.32300
C 	C 	0.77503 0.89271 0.16098 -0.18700
C 	C 	0.74089 0.93156 0.15720 0.31700
C 	C 	0.68735 0.90379 0.14513 0.24100
F 	F 	0.68409 0.73460 0.13119 -0.32200
F 	F 	0.75860 0.99536 0.16616 -0.36600
F 	F 	0.79028 0.78990 0.15361 -0.33200
F 	F 	0.65428 0.94143 0.14190 -0.33100
F 	F 	0.56896 0.80208 0.16650 -0.32000
F 	F 	0.53889 0.75981 0.06393 -0.37300
C 	C 	0.16914 0.92104 0.12648 0.23400
C 	C 	0.15333 0.89822 0.15080 0.00300
C 	C 	0.16173 0.84046 0.15920 0.24300
C 	C 	0.18567 0.80568 0.14331 0.32100
C 	C 	0.20168 0.82875 0.11902 -0.20000
C 	C 	0.19314 0.88647 0.11065 0.32000
C 	C 	0.12352 0.93163 0.16654 0.00700
F 	F 	0.14635 0.81790 0.18268 -0.31100
F 	F 	0.20722 0.90835 0.08697 -0.36700
C 	C 	0.06387 0.90457 0.16790 0.24300
C 	C 	0.03420 0.94187 0.17856 0.30500
C 	C 	0.06399 0.00676 0.18804 -0.19500
C 	C 	0.12401 0.03218 0.18813 0.33200
C 	C 	0.15365 0.99464 0.17743 0.23100
F 	F 	0.03446 0.84326 0.15776 -0.31800
F 	F 	0.15346 0.09448 0.19738 -0.35000
F 	F 	0.97631 0.91570 0.17902 -0.37200
F 	F 	0.21151 0.02060 0.17667 -0.31700
F 	F 	0.16008 0.97603 0.11802 -0.33000
F 	F 	0.19403 0.75016 0.15163 -0.35100
C 	C 	0.69145 0.00956 0.29340 0.24800
C 	C 	0.65003 0.94499 0.29169 -0.00200
C 	C 	0.65913 0.89656 0.27626 0.24000
C 	C 	0.71004 0.91156 0.26337 0.32200
C 	C 	0.75247 0.97565 0.26560 -0.19800
C 	C 	0.74248 0.02491 0.28037 0.32800
C 	C 	0.59960 0.92605 0.30778 0.00500
F 	F 	0.61941 0.83398 0.27456 -0.32500
F 	F 	0.78218 0.08748 0.28216 -0.35100
C 	C 	0.54520 0.91563 0.29719 0.23900
C 	C 	0.49637 0.88721 0.31147 0.31600
C 	C 	0.50164 0.86882 0.33639 -0.19900
C 	C 	0.55623 0.88221 0.34731 0.32100
C 	C 	0.60493 0.91054 0.33305 0.23200
F 	F 	0.53962 0.93126 0.27286 -0.31900
F 	F 	0.56202 0.86753 0.37174 -0.36300
F 	F 	0.44392 0.87574 0.30088 -0.37000
F 	F 	0.65732 0.92096 0.34353 -0.33100
F 	F 	0.68267 0.05703 0.30802 -0.32400
F 	F 	0.71925 0.86286 0.24963 -0.37700
C 	C 	0.07717 0.33662 0.30692 0.24000
C 	C 	0.08763 0.32309 0.33190 0.00100
C 	C 	0.06769 0.25695 0.34017 0.24000
C 	C 	0.04039 0.20445 0.32318 0.32500
C 	C 	0.03269 0.21793 0.29785 -0.19400
C 	C 	0.04959 0.28431 0.29001 0.31700
C 	C 	0.12374 0.37756 0.34866 0.00200
F 	F 	0.07645 0.24352 0.36447 -0.32900
F 	F 	0.04063 0.29796 0.26575 -0.37700
C 	C 	0.10312 0.42644 0.35742 0.23500
C 	C 	0.13991 0.48325 0.37019 0.31000
C 	C 	0.19735 0.49108 0.37462 -0.22000
C 	C 	0.21742 0.44095 0.36676 0.32200
C 	C 	0.18081 0.38452 0.35374 0.22900
F 	F 	0.04775 0.41955 0.35300 -0.32500
F 	F 	0.27289 0.44803 0.37100 -0.36700
F 	F 	0.11984 0.53083 0.37819 -0.36800
F 	F 	0.20121 0.33765 0.34527 -0.32900
F 	F 	0.09571 0.40045 0.29881 -0.32100
F 	F 	0.02389 0.14051 0.33105 -0.33900
C 	C 	0.10339 0.81374 0.31201 0.23900
C 	C 	0.04968 0.77884 0.32198 -0.00300
C 	C 	0.04502 0.73344 0.34133 0.24000
C 	C 	0.09396 0.72530 0.35149 0.32100
C 	C 	0.14810 0.76204 0.34211 -0.19300
C 	C 	0.15234 0.80520 0.32197 0.31700
C 	C 	0.99964 0.79528 0.31400 0.00900
F 	F 	0.99319 0.69887 0.35085 -0.31900
F 	F 	0.20402 0.83943 0.31223 -0.36800
C 	C 	0.97523 0.77682 0.28983 0.24100
C 	C 	0.93847 0.80686 0.27980 0.31500
C 	C 	0.92656 0.85594 0.29381 -0.20300
C 	C 	0.94466 0.86725 0.31914 0.32700
C 	C 	0.98149 0.83743 0.32916 0.23800
F 	F 	0.99011 0.73322 0.27550 -0.31000
F 	F 	0.93037 0.91147 0.33340 -0.33700
F 	F 	0.91897 0.79312 0.25563 -0.38300
F 	F 	0.00285 0.85326 0.35298 -0.33300
F 	F 	0.10827 0.85758 0.29320 -0.33200
F 	F 	0.08904 0.68393 0.37116 -0.35200
C 	C 	0.42684 0.03727 0.44349 -0.09300
C 	C 	0.44731 0.02278 0.46657 0.02100
C 	C 	0.43910 0.95630 0.47244 0.12800
C 	C 	0.41297 0.90522 0.45478 -0.02000
C 	C 	0.39538 0.92007 0.43112 -0.10500
C 	C 	0.40075 0.98621 0.42578 0.19600
C 	C 	0.48216 0.07758 0.48346 0.01400
O 	O 	0.45688 0.94127 0.49539 -0.25400
H 	H 	0.40817 0.85429 0.45916 0.06100
O 	O 	0.38430 0.00171 0.40264 -0.25000
H 	H 	0.43296 0.08844 0.43893 0.09900
C 	C 	0.54201 0.10227 0.48195 0.12800
C 	C 	0.57530 0.14909 0.49977 -0.02500
C 	C 	0.54923 0.17226 0.51895 -0.10900
C 	C 	0.48919 0.14951 0.51984 0.20500
C 	C 	0.45592 0.10258 0.50200 -0.09800
O 	O 	0.56807 0.07836 0.46377 -0.24800
H 	H 	0.62145 0.16653 0.49894 0.07100
O 	O 	0.46302 0.17236 0.53830 -0.24400
H 	H 	0.40978 0.08425 0.50302 0.10800
H 	H 	0.34428 0.99908 0.40451 0.17600
H 	H 	0.57172 0.10826 0.44930 0.17500
H 	H 	0.45855 0.14113 0.55240 0.18600
H 	H 	0.49655 0.94310 0.49302 0.17500
C 	C 	0.97924 0.43017 0.50261 -0.08700
C 	C 	0.97933 0.44996 0.47760 0.02600
C 	C 	0.92735 0.43425 0.46402 0.14000
C 	C 	0.87562 0.40429 0.47613 -0.02100
C 	C 	0.87531 0.39019 0.50188 -0.09300
C 	C 	0.92760 0.39919 0.51467 0.22600
C 	C 	0.03349 0.49139 0.46632 0.01700
O 	O 	0.92705 0.44747 0.43886 -0.22900
H 	H 	0.83576 0.39396 0.46567 0.08500
O 	O 	0.92851 0.38147 0.53932 -0.23000
H 	H 	0.01926 0.44058 0.51296 0.11000
C 	C 	0.04532 0.55977 0.46245 0.14300
C 	C 	0.09664 0.59870 0.45165 -0.01000
C 	C 	0.13732 0.57045 0.44550 -0.08800
C 	C 	0.12612 0.50245 0.44994 0.21000
C 	C 	0.07430 0.46320 0.46033 -0.09200
O 	O 	0.00647 0.58841 0.46895 -0.24900
H 	H 	0.10510 0.65109 0.44835 0.09800
O 	O 	0.16603 0.47451 0.44447 -0.27300
H 	H 	0.06581 0.41083 0.46366 0.10700
H 	H 	0.92814 0.33510 0.53875 0.20100
H 	H 	0.01634 0.60379 0.48665 0.19200
H 	H 	0.15579 0.45543 0.42723 0.18800
H 	H 	0.92384 0.49214 0.43790 0.19200
C 	C 	0.53582 0.66907 0.47632 -0.10000
C 	C 	0.54281 0.60758 0.47303 0.01100
C 	C 	0.52049 0.56869 0.45124 0.14000
C 	C 	0.48840 0.58946 0.43366 -0.02800
C 	C 	0.47854 0.64914 0.43760 -0.09900
C 	C 	0.50357 0.68988 0.45875 0.19300
C 	C 	0.57021 0.58186 0.49309 0.01500
O 	O 	0.52736 0.50857 0.44779 -0.25200
H 	H 	0.46963 0.55810 0.41734 0.09700
O 	O 	0.49565 0.74931 0.46252 -0.25500
H 	H 	0.55388 0.69975 0.49287 0.09500
C 	C 	0.62690 0.58524 0.49087 0.12800
C 	C 	0.64950 0.55081 0.50767 -0.02700
C 	C 	0.61595 0.51342 0.52695 -0.11000
C 	C 	0.56065 0.51442 0.53030 0.20600
C 	C 	0.53785 0.54808 0.51323 -0.10000
O 	O 	0.65923 0.61914 0.47147 -0.25500
H 	H 	0.69239 0.55121 0.50512 0.04900
O 	O 	0.52830 0.48105 0.54979 -0.23800
H 	H 	0.49442 0.54638 0.51525 0.09900
H 	H 	0.46076 0.73831 0.47260 0.14400
H 	H 	0.67895 0.66526 0.47805 0.17900
H 	H 	0.53735 0.51396 0.56391 0.18900
H 	H 	0.56295 0.51886 0.43825 0.18000
C 	C 	0.85840 0.12102 0.60421 0.23500
C 	C 	0.84530 0.09902 0.62886 0.00100
C 	C 	0.80500 0.11706 0.64211 0.24000
C 	C 	0.77729 0.15589 0.63063 0.31900
C 	C 	0.79037 0.17777 0.60599 -0.20600
C 	C 	0.83133 0.16064 0.59288 0.32400
C 	C 	0.87449 0.05804 0.64089 0.01400
F 	F 	0.79276 0.09693 0.66610 -0.31800
F 	F 	0.84374 0.18100 0.56893 -0.37300
C 	C 	0.93267 0.08650 0.64758 0.23300
C 	C 	0.96105 0.04726 0.65811 0.33000
C 	C 	0.93110 0.97933 0.66261 -0.21700
C 	C 	0.87270 0.95094 0.65604 0.33000
C 	C 	0.84459 0.99011 0.64511 0.22600
F 	F 	0.96173 0.15231 0.64380 -0.32100
F 	F 	0.84359 0.88506 0.65965 -0.35600
F 	F 	0.01758 0.07537 0.66415 -0.38400
F 	F 	0.78848 0.96196 0.63832 -0.32900
F 	F 	0.89697 0.10335 0.59118 -0.32600
F 	F 	0.73767 0.17221 0.64341 -0.37000
C 	C 	0.40383 0.26055 0.62486 0.23600
C 	C 	0.39315 0.21022 0.64280 0.00300
C 	C 	0.43710 0.18768 0.65028 0.23800
C 	C 	0.49031 0.21272 0.63900 0.31400
C 	C 	0.49976 0.25947 0.61971 -0.19700
C 	C 	0.45675 0.28480 0.61322 0.31900
C 	C 	0.33512 0.17850 0.65273 0.00200
F 	F 	0.42755 0.13972 0.66786 -0.31600
F 	F 	0.46508 0.33019 0.59473 -0.36000
C 	C 	0.29042 0.13751 0.63700 0.24000
C 	C 	0.23584 0.10603 0.64651 0.32300
C 	C 	0.22572 0.11423 0.67204 -0.18500
C 	C 	0.27071 0.15485 0.68780 0.31900
C 	C 	0.32492 0.18734 0.67812 0.24600
F 	F 	0.29998 0.12797 0.61249 -0.33100
F 	F 	0.26201 0.16213 0.71258 -0.36400
F 	F 	0.19266 0.06872 0.63080 -0.33300
F 	F 	0.36768 0.22721 0.69345 -0.31200
F 	F 	0.36229 0.28442 0.61814 -0.32700
F 	F 	0.53206 0.18953 0.64607 -0.37000
C 	C 	0.03919 0.65985 0.64230 0.24300
C 	C 	0.01383 0.66266 0.61876 -0.00800
C 	C 	0.02426 0.72513 0.60779 0.23400
C 	C 	0.05139 0.78360 0.62196 0.31800
C 	C 	0.06472 0.77957 0.64749 -0.18700
C 	C 	0.06493 0.71848 0.65664 0.30800
C 	C 	0.96834 0.60272 0.60802 0.00700
F 	F 	0.00311 0.72903 0.58440 -0.33400
F 	F 	0.08293 0.71473 0.68062 -0.36100
C 	C 	0.91692 0.57396 0.62079 0.23000
C 	C 	0.87006 0.52504 0.60888 0.32300
C 	C 	0.87366 0.50569 0.58387 -0.20900
C 	C 	0.92562 0.53299 0.57141 0.32000
C 	C 	0.97312 0.57982 0.58368 0.23700
F 	F 	0.91144 0.59598 0.64426 -0.32900
F 	F 	0.92932 0.51640 0.54702 -0.38900
F 	F 	0.82014 0.49951 0.62112 -0.36300
F 	F 	0.02311 0.60532 0.57148 -0.34200
F 	F 	0.03429 0.60004 0.65219 -0.32100
F 	F 	0.05641 0.84347 0.61209 -0.34300
C 	C 	0.92363 0.47623 0.95781 -0.09900
C 	C 	0.91905 0.52056 0.97641 0.01500
C 	C 	0.86567 0.52539 0.98110 0.14100
C 	C 	0.81744 0.48672 0.96685 -0.02400
C 	C 	0.82209 0.44298 0.94795 -0.09300
C 	C 	0.87571 0.43822 0.94334 0.21600
C 	C 	0.97041 0.56165 0.99090 0.02400
O 	O 	0.86098 0.56970 0.99889 -0.23700
H 	H 	0.77653 0.49132 0.97028 0.07100
O 	O 	0.88148 0.39704 0.92454 -0.23400
H 	H 	0.96467 0.47210 0.95428 0.10200
C 	C 	0.98187 0.54177 0.01488 0.14300
C 	C 	0.03546 0.57315 0.02652 -0.02800
C 	C 	0.07838 0.62303 0.01407 -0.09600
C 	C 	0.06589 0.64549 0.99071 0.20600
C 	C 	0.01175 0.61530 0.97936 -0.10500
O 	O 	0.94116 0.49069 0.02671 -0.23700
H 	H 	0.04477 0.55576 0.04453 0.11600
O 	O 	0.10639 0.69715 0.97905 -0.25500
H 	H 	0.00276 0.63154 0.96106 0.11000
H 	H 	0.89025 0.42483 0.90931 0.21500
H 	H 	0.94764 0.44957 0.02139 0.17700
H 	H 	0.12594 0.67578 0.96767 0.17300
H 	H 	0.85158 0.54408 0.01462 0.18800
C 	C 	0.41197 0.93439 0.98377 -0.10100
C 	C 	0.47181 0.95747 0.98375 0.00100
C 	C 	0.50168 0.93063 0.00052 0.14400
C 	C 	0.47163 0.88127 0.01723 -0.02600
C 	C 	0.41178 0.85855 0.01741 -0.10400
C 	C 	0.38190 0.88545 0.00065 0.20200
C 	C 	0.50300 0.00856 0.96573 0.03800
O 	O 	0.56026 0.95429 0.00121 -0.24200
H 	H 	0.49493 0.86151 0.03037 0.11000
O 	O 	0.32332 0.86217 0.00008 -0.28000
H 	H 	0.38877 0.95436 0.97067 0.09700
C 	C 	0.52554 0.99028 0.94408 0.11500
C 	C 	0.55405 0.03878 0.92680 0.00300
C 	C 	0.55885 0.10543 0.93057 -0.11000
C 	C 	0.53634 0.12375 0.95226 0.21500
C 	C 	0.50901 0.07540 0.96986 -0.11000
O 	O 	0.52004 0.92506 0.93988 -0.24900
H 	H 	0.57077 0.02417 0.91003 0.08700
O 	O 	0.54259 0.18912 0.95667 -0.29800
H 	H 	0.49201 0.08976 0.98661 0.10100
H 	H 	0.31280 0.89215 0.01167 0.18500
H 	H 	0.48358 0.90483 0.93017 0.17700
H 	H 	0.50755 0.19395 0.94940 0.17100
H 	H 	0.57111 0.92475 0.98954 0.18700
C 	C 	0.47262 0.39501 0.97140 -0.10500
C 	C 	0.42264 0.40259 0.96206 0.01500
C 	C 	0.40426 0.38345 0.93705 0.13200
C 	C 	0.43839 0.36229 0.92104 -0.01600
C 	C 	0.49066 0.35985 0.92992 -0.11100
C 	C 	0.50654 0.37357 0.95545 0.19900
C 	C 	0.39473 0.43954 0.97723 0.01400
O 	O 	0.35478 0.38927 0.92784 -0.24800
H 	H 	0.42555 0.35092 0.90146 0.09600
O 	O 	0.55704 0.37005 0.96447 -0.31000
H 	H 	0.48660 0.40883 0.99074 0.09500
C 	C 	0.36175 0.40956 0.99790 0.13200
C 	C 	0.34065 0.44747 0.01376 -0.02500
C 	C 	0.35322 0.51556 0.00937 -0.10600
C 	C 	0.38447 0.54481 0.98815 0.19600
C 	C 	0.40535 0.50690 0.97231 -0.09600
O 	O 	0.34942 0.34311 0.00241 -0.24400
H 	H 	0.31571 0.42431 0.02979 0.09900
O 	O 	0.39548 0.61076 0.98312 -0.25900
H 	H 	0.43070 0.53019 0.95640 0.10200
H 	H 	0.54723 0.32382 0.97050 0.16700
H 	H 	0.38046 0.34139 0.01392 0.17200
H 	H 	0.36301 0.61115 0.97223 0.15200
H 	H 	0.32442 0.34571 0.93104 0.18200
C 	C 	0.97575 0.20088 0.79379 0.24700
C 	C 	0.94793 0.17207 0.81573 0.00200
C 	C 	0.95787 0.11707 0.82601 0.23700
C 	C 	0.99111 0.08744 0.81324 0.33400
C 	C 	0.01410 0.11211 0.78997 -0.19900
C 	C 	0.00889 0.17104 0.78097 0.31000
C 	C 	0.90352 0.19424 0.82625 0.00400
F 	F 	0.93258 0.09006 0.84763 -0.32200
F 	F 	0.03248 0.19656 0.75887 -0.37700
C 	C 	0.84953 0.17541 0.81424 0.23800
C 	C 	0.80489 0.18835 0.82582 0.31700
C 	C 	0.81371 0.21985 0.84960 -0.19800
C 	C 	0.86842 0.24081 0.86122 0.32100
C 	C 	0.91313 0.22836 0.84949 0.23900
F 	F 	0.83990 0.14262 0.79169 -0.32400
F 	F 	0.87764 0.27063 0.88434 -0.35900
F 	F 	0.75279 0.16945 0.81410 -0.37900
F 	F 	0.96539 0.24754 0.86107 -0.32800
F 	F 	0.96829 0.25574 0.78425 -0.31900
F 	F 	0.99818 0.03228 0.82272 -0.32600
C 	C 	0.25415 0.03023 0.80888 0.23200
C 	C 	0.30145 0.02647 0.79616 0.01500
C 	C 	0.29368 0.99677 0.77210 0.23100
C 	C 	0.24008 0.97678 0.75992 0.32400
C 	C 	0.19396 0.98669 0.77168 -0.20500
C 	C 	0.20049 0.00999 0.79675 0.32900
C 	C 	0.35954 0.05904 0.80708 -0.00200
F 	F 	0.33866 0.99011 0.76009 -0.32000
F 	F 	0.15600 0.01829 0.80862 -0.34300
C 	C 	0.37791 0.03062 0.82758 0.24400
C 	C 	0.43055 0.06481 0.83961 0.31400
C 	C 	0.46580 0.12755 0.83096 -0.19900
C 	C 	0.44816 0.15487 0.80989 0.31900
C 	C 	0.39518 0.12086 0.79806 0.24000
F 	F 	0.34400 0.97057 0.83626 -0.34100
F 	F 	0.48213 0.21468 0.80105 -0.35000
F 	F 	0.44621 0.03831 0.86031 -0.37200
F 	F 	0.37780 0.14866 0.77817 -0.31400
F 	F 	0.26090 0.05706 0.83246 -0.33100
F 	F 	0.23372 0.95160 0.73608 -0.36700
C 	C 	0.75289 0.55802 0.81416 0.23700
C 	C 	0.81012 0.59657 0.82017 0.00400
C 	C 	0.83734 0.58043 0.84106 0.23300
C 	C 	0.80780 0.52607 0.85582 0.31900
C 	C 	0.75069 0.48680 0.84967 -0.20800
C 	C 	0.72325 0.50332 0.82888 0.31900
C 	C 	0.84226 0.65243 0.80410 0.00200
F 	F 	0.89263 0.61741 0.84700 -0.33300
F 	F 	0.66819 0.46589 0.82273 -0.36200
C 	C 	0.85322 0.71860 0.81201 0.24000
C 	C 	0.88576 0.77162 0.79723 0.32400
C 	C 	0.90746 0.75878 0.77440 -0.19400
C 	C 	0.89676 0.69254 0.76663 0.31700
C 	C 	0.86437 0.63966 0.78143 0.24100
F 	F 	0.83209 0.73142 0.83395 -0.32800
F 	F 	0.91799 0.67952 0.74474 -0.37500
F 	F 	0.89484 0.83532 0.80474 -0.33800
F 	F 	0.85477 0.57589 0.77384 -0.32100
F 	F 	0.72617 0.57342 0.79401 -0.32400
F 	F 	0.83427 0.51228 0.87640 -0.37700
