data_crystal

_cell_length_a 22.57366
_cell_length_b 22.77935
_cell_length_c 26.37200
_cell_angle_alpha 95.48922
_cell_angle_beta  95.48860
_cell_angle_gamma 126.00840

_symmetry_space_group_name_	'P 1'
_symmetry_space_group_name_H-M	'P 1'

loop_
_symmetry_equiv_pos_as_xyz
  x,y,z

loop_
_atom_site_label
_atom_site_type_symbol
_atom_site_fract_x
_atom_site_fract_y
_atom_site_fract_z
_atom_site_charge
C 	C 	0.99155 0.06140 0.99772 0.04200
C 	C 	0.06641 0.10493 0.99180 -0.07700
C 	C 	0.10349 0.07304 0.98589 0.02900
H 	H 	0.09600 0.16360 0.99247 0.05200
C 	C 	0.96950 0.01253 0.45451 -0.05900
H 	H 	0.99906 0.07090 0.45390 0.04900
O 	O 	0.52838 0.11459 0.26181 -0.10400
C 	C 	0.85544 0.00318 0.46362 0.01700
C 	C 	0.82904 0.00491 0.50939 -0.04400
C 	C 	0.79718 0.04159 0.51637 -0.03200
C 	C 	0.79159 0.07723 0.47768 -0.00700
C 	C 	0.81667 0.07437 0.43106 0.04000
C 	C 	0.84832 0.03709 0.42418 -0.07100
C 	C 	0.81098 0.10996 0.39238 -0.06700
H 	H 	0.77773 0.04308 0.55215 0.03500
H 	H 	0.86829 0.03528 0.38867 0.05000
C 	C 	0.08680 0.02699 0.44862 0.01900
C 	C 	0.10821 0.05296 0.40263 -0.04700
C 	C 	0.23777 0.11206 0.43977 -0.00600
C 	C 	0.21649 0.08646 0.48631 0.04000
C 	C 	0.14096 0.04388 0.49047 -0.07100
C 	C 	0.27097 0.10365 0.52800 -0.06700
H 	H 	0.06654 0.03998 0.37020 0.04300
H 	H 	0.25527 0.08445 0.56391 0.05100
C 	C 	0.95394 0.09603 0.00691 -0.00900
C 	C 	0.98811 0.15924 0.04571 -0.03700
C 	C 	0.88775 0.16799 0.02016 -0.01100
C 	C 	0.85130 0.10236 0.98278 0.04300
C 	C 	0.88504 0.06722 0.97588 -0.05600
C 	C 	0.78230 0.07365 0.95210 -0.06900
C 	C 	0.75106 0.11119 0.95713 0.01100
C 	C 	0.78878 0.17817 0.99241 -0.08100
H 	H 	0.69861 0.08945 0.93238 0.02000
C 	C 	0.33958 0.20212 0.99289 0.00100
C 	C 	0.41676 0.23979 0.99802 0.00500
C 	C 	0.31063 0.22254 0.02948 -0.03700
C 	C 	0.23366 0.18135 0.02650 -0.05300
C 	C 	0.18457 0.12029 0.98615 0.02200
C 	C 	0.21319 0.10167 0.94797 -0.07000
H 	H 	0.34776 0.26917 0.06107 0.03900
O 	O 	0.52061 0.17143 0.74924 -0.11800
C 	C 	0.76270 0.11693 0.48548 -0.01100
H 	H 	0.74472 0.12018 0.52166 0.02900
C 	C 	0.18326 0.09518 0.39815 -0.03100
C 	C 	0.29056 0.14133 0.95178 0.04100
H 	H 	0.17535 0.05530 0.91630 0.05000
O 	O 	0.62252 0.11286 0.24290 -0.10400
H 	H 	0.12428 0.02392 0.52606 0.05100
H 	H 	0.21212 0.19588 0.05625 0.04100
H 	H 	0.19894 0.11463 0.36231 0.03700
C 	C 	0.31963 0.11937 0.91624 -0.06600
H 	H 	0.28263 0.07300 0.88448 0.05200
C 	C 	0.34605 0.14583 0.52359 0.01300
H 	H 	0.82935 0.10752 0.35627 0.05200
H 	H 	0.38742 0.15905 0.55632 0.04500
H 	H 	0.04039 0.18083 0.07063 0.03700
C 	C 	0.95559 0.19542 0.05195 -0.03500
C 	C 	0.85654 0.20601 0.02445 -0.01300
O 	O 	0.54755 0.21371 0.99363 -0.35200
O 	O 	0.69599 0.19611 0.00422 -0.37200
C 	C 	0.76116 0.22245 0.99184 0.29900
H 	H 	0.61386 0.17656 0.15318 0.07000
N 	N 	0.59297 0.14732 0.24794 -0.02000
C 	C 	0.78233 0.14963 0.40040 0.01600
C 	C 	0.75907 0.15427 0.44723 -0.08200
C 	C 	0.36768 0.17126 0.47731 -0.07500
C 	C 	0.31320 0.15404 0.43540 -0.01100
H 	H 	0.32939 0.17279 0.39942 0.03800
C 	C 	0.44516 0.21571 0.96362 -0.07700
C 	C 	0.39660 0.15592 0.92255 0.01900
H 	H 	0.75334 0.02284 0.92383 0.04700
H 	H 	0.98343 0.24499 0.08131 0.03900
Cu	Cu	0.65638 0.25461 0.00507 0.92700
C 	C 	0.52484 0.24936 0.97335 0.28600
H 	H 	0.61468 0.24590 0.90906 0.18500
O 	O 	0.69589 0.19144 0.49429 -0.43500
O 	O 	0.49533 0.21895 0.50784 -0.37700
C 	C 	0.44716 0.21541 0.47252 0.28600
C 	C 	0.73371 0.20047 0.45715 0.28800
H 	H 	0.55524 0.18667 0.42584 0.17300
N 	N 	0.55904 0.24114 0.76972 -0.02200
H 	H 	0.56388 0.24715 0.66960 0.06400
O 	O 	0.53864 0.26161 0.80787 -0.11900
C 	C 	0.62821 0.21827 0.23371 0.10000
C 	C 	0.63629 0.22533 0.18211 -0.02800
H 	H 	0.77856 0.17704 0.37026 0.05000
H 	H 	0.88543 0.25765 0.05187 0.03800
H 	H 	0.41842 0.13731 0.89582 0.03600
H 	H 	0.85855 0.01848 0.94589 0.04600
O 	O 	0.58696 0.24119 0.43589 -0.63800
O 	O 	0.75348 0.25406 0.43140 -0.36700
O 	O 	0.47010 0.25957 0.43823 -0.38800
Cu	Cu	0.73804 0.27165 0.90513 0.87400
O 	O 	0.66611 0.25558 0.07824 -0.35700
O 	O 	0.67166 0.25892 0.35604 -0.35200
O 	O 	0.66301 0.27340 0.93341 -0.63700
O 	O 	0.57410 0.26374 0.33147 -0.37200
O 	O 	0.79236 0.27836 0.96756 -0.43500
O 	O 	0.70509 0.28406 0.84049 -0.40600
Cu	Cu	0.72784 0.27338 0.54599 0.87300
H 	H 	0.45456 0.28596 0.02985 0.02400
Cu	Cu	0.60112 0.27590 0.50817 0.89900
C 	C 	0.63585 0.27315 0.32309 0.30200
C 	C 	0.65309 0.28070 0.27082 -0.07700
C 	C 	0.61550 0.29212 0.69514 -0.03000
Cu	Cu	0.55231 0.28596 0.39959 0.89600
C 	C 	0.62176 0.29545 0.74889 0.09200
O 	O 	0.61483 0.29548 0.58455 -0.38200
C 	C 	0.66849 0.29414 0.16722 -0.07200
C 	C 	0.66001 0.29792 0.11177 0.30200
Cu	Cu	0.69933 0.29840 0.42852 0.92900
O 	O 	0.57322 0.31989 0.97276 -0.38200
C 	C 	0.67718 0.32698 0.61875 0.30100
O 	O 	0.70849 0.32709 0.50367 -0.64100
O 	O 	0.62924 0.32911 0.09592 -0.37000
O 	O 	0.73532 0.33327 0.60562 -0.40100
C 	C 	0.00742 0.98118 0.45270 0.01400
H 	H 	0.83439 0.97884 0.53995 0.04000
C 	C 	0.06419 0.99659 0.98283 -0.07400
C 	C 	0.98860 0.95241 0.98634 0.02900
C 	C 	0.95276 0.98498 0.99499 -0.07700
H 	H 	0.09254 0.97163 0.97836 0.05300
H 	H 	0.89490 0.95098 0.99940 0.05400
C 	C 	0.89382 0.96892 0.45814 0.01700
C 	C 	0.96972 0.90615 0.45482 -0.06400
C 	C 	0.89369 0.86191 0.45762 0.02100
C 	C 	0.85575 0.89342 0.45900 -0.06500
H 	H 	0.99942 0.88224 0.45418 0.05000
H 	H 	0.79695 0.85941 0.46094 0.04900
Cu	Cu	0.71757 0.38299 0.94659 0.90100
Cu	Cu	0.65789 0.39107 0.04132 0.89900
C 	C 	0.70559 0.34120 0.83477 0.30500
O 	O 	0.72126 0.37083 0.01743 -0.64200
O 	O 	0.77567 0.48960 0.96412 -0.36900
C 	C 	0.76651 0.52661 0.00027 0.28200
O 	O 	0.71078 0.49269 0.02578 -0.38400
O 	O 	0.73007 0.39505 0.87442 -0.38100
H 	H 	0.77214 0.40006 0.03857 0.17400
O 	O 	0.74105 0.40141 0.41691 -0.36700
C 	C 	0.71016 0.43345 0.42929 0.28300
O 	O 	0.64468 0.39533 0.44297 -0.38500
H 	H 	0.73991 0.38100 0.51703 0.18200
C 	C 	0.67717 0.34363 0.67421 -0.07900
C 	C 	0.74244 0.40457 0.70778 0.09200
C 	C 	0.74889 0.40747 0.76156 -0.02800
C 	C 	0.69042 0.35071 0.78197 -0.07900
H 	H 	0.80064 0.45199 0.78721 0.06100
N 	N 	0.80235 0.46316 0.68737 -0.01900
O 	O 	0.78912 0.49479 0.65430 -0.11200
O 	O 	0.87057 0.48731 0.70378 -0.11400
C 	C 	0.69021 0.35024 0.25677 -0.02700
C 	C 	0.69915 0.35756 0.20538 0.08900
N 	N 	0.73904 0.42942 0.19192 -0.02200
H 	H 	0.71133 0.39862 0.28568 0.05300
O 	O 	0.72392 0.47441 0.20746 -0.12300
O 	O 	0.79330 0.45140 0.16668 -0.13100
C 	C 	0.74937 0.51250 0.42807 -0.07900
C 	C 	0.78996 0.54284 0.38867 0.01400
C 	C 	0.82501 0.61709 0.38601 -0.06700
C 	C 	0.82077 0.66222 0.42318 0.04000
C 	C 	0.78110 0.63238 0.46349 -0.00400
C 	C 	0.74506 0.55740 0.46552 -0.01000
C 	C 	0.77836 0.67802 0.50135 -0.03100
C 	C 	0.81495 0.75275 0.49935 -0.04400
C 	C 	0.85383 0.78251 0.45908 0.01500
C 	C 	0.85612 0.73692 0.42080 -0.06900
H 	H 	0.79358 0.50859 0.35966 0.04000
H 	H 	0.85554 0.63948 0.35507 0.05300
H 	H 	0.71436 0.53423 0.49630 0.04300
H 	H 	0.74839 0.65583 0.53256 0.04100
H 	H 	0.81354 0.78771 0.52931 0.04200
H 	H 	0.88563 0.75970 0.38945 0.05000
C 	C 	0.94683 0.87182 0.98035 0.02000
C 	C 	0.92816 0.82908 0.93135 -0.04500
C 	C 	0.89048 0.75281 0.92560 -0.03200
C 	C 	0.87119 0.71851 0.96889 0.00300
C 	C 	0.89005 0.76145 0.01837 0.03200
C 	C 	0.92775 0.83801 0.02382 -0.07700
C 	C 	0.87072 0.72717 0.06164 -0.06600
C 	C 	0.83195 0.65073 0.05579 0.01200
C 	C 	0.81218 0.60766 0.00664 -0.08000
C 	C 	0.83261 0.64180 0.96331 -0.00200
H 	H 	0.94303 0.85508 0.89771 0.04400
H 	H 	0.87633 0.72047 0.88749 0.04300
H 	H 	0.94260 0.87129 0.06170 0.05000
H 	H 	0.88528 0.75959 0.09979 0.04800
H 	H 	0.81694 0.62487 0.08947 0.03700
H 	H 	0.81700 0.60859 0.92526 0.04800
