data_crystal

_cell_length_a 23.14996
_cell_length_b 23.46047
_cell_length_c 33.28300
_cell_angle_alpha 95.51519
_cell_angle_beta  95.51514
_cell_angle_gamma 125.93820

_symmetry_space_group_name_	'P 1'
_symmetry_space_group_name_H-M	'P 1'

loop_
_symmetry_equiv_pos_as_xyz
  x,y,z

loop_
_atom_site_label
_atom_site_type_symbol
_atom_site_fract_x
_atom_site_fract_y
_atom_site_fract_z
_atom_site_charge
N 	N 	0.06279 0.08690 0.00845 -0.14000
C 	C 	0.09218 0.05107 0.00679 0.12700
N 	N 	0.05098 0.98042 0.00838 -0.13800
C 	C 	0.02038 0.00829 0.46007 0.12500
C 	C 	0.09788 0.05255 0.46451 -0.03500
H 	H 	0.02061 0.15762 0.97040 0.04100
H 	H 	0.01894 0.87656 0.05458 0.04300
C 	C 	0.16693 0.08753 0.00373 -0.03700
C 	C 	0.16292 0.08854 0.46790 -0.00300
N 	N 	0.98441 0.03730 0.45583 -0.14200
C 	C 	0.99174 0.05161 0.01158 0.11500
C 	C 	0.98021 0.94498 0.01146 0.12200
N 	N 	0.95050 0.98052 0.01295 -0.13700
C 	C 	0.91085 0.99504 0.45085 0.14000
N 	N 	0.98295 0.93704 0.45920 -0.13600
C 	C 	0.90951 0.89443 0.45421 0.13200
N 	N 	0.87311 0.92332 0.45007 -0.13900
Cu	Cu	0.66106 0.24942 0.00795 0.92800
Cu	Cu	0.71514 0.25171 0.92014 0.87300
Cu	Cu	0.70302 0.36511 0.95643 0.89700
Cu	Cu	0.66284 0.38203 0.03930 0.89700
C 	C 	0.65714 0.28200 0.09176 0.25800
O 	O 	0.55433 0.20273 0.00681 -0.36500
C 	C 	0.67813 0.31711 0.86640 0.25500
O 	O 	0.71884 0.36102 0.01344 -0.63500
O 	O 	0.65168 0.25924 0.94986 -0.64200
O 	O 	0.70799 0.20047 0.00531 -0.37200
O 	O 	0.78537 0.27299 0.96550 -0.44000
O 	O 	0.66431 0.34195 0.08977 -0.36300
O 	O 	0.75707 0.46827 0.96724 -0.37700
C 	C 	0.74964 0.50428 0.99661 0.30600
C 	C 	0.52562 0.23522 0.99728 0.28500
O 	O 	0.56758 0.30221 0.99295 -0.39100
O 	O 	0.69709 0.47129 0.01778 -0.38900
O 	O 	0.68225 0.25878 0.06608 -0.35500
C 	C 	0.76816 0.22814 0.99080 0.30800
O 	O 	0.70574 0.37108 0.89751 -0.36500
O 	O 	0.66849 0.25742 0.87198 -0.40700
H 	H 	0.77075 0.39088 0.02673 0.16700
H 	H 	0.60097 0.23088 0.93468 0.17200
Cu	Cu	0.72022 0.33207 0.44210 0.92600
Cu	Cu	0.73498 0.29203 0.53264 0.87200
Cu	Cu	0.61409 0.29808 0.50091 0.89800
Cu	Cu	0.58150 0.32640 0.41841 0.89500
C 	C 	0.64882 0.29331 0.35796 0.25200
O 	O 	0.76098 0.43554 0.43882 -0.35800
C 	C 	0.67661 0.33237 0.59000 0.25500
O 	O 	0.60834 0.27444 0.44325 -0.63800
O 	O 	0.72047 0.34935 0.50160 -0.64000
O 	O 	0.77159 0.28679 0.44417 -0.36800
O 	O 	0.70636 0.21723 0.48892 -0.43900
O 	O 	0.62232 0.32847 0.36791 -0.37500
O 	O 	0.50974 0.24322 0.49585 -0.37800
C 	C 	0.46685 0.24684 0.46872 0.29100
C 	C 	0.73068 0.46426 0.45337 0.28200
O 	O 	0.66560 0.42284 0.46204 -0.39200
O 	O 	0.49284 0.29105 0.44236 -0.39500
O 	O 	0.70097 0.30073 0.38368 -0.33700
C 	C 	0.74656 0.22970 0.46092 0.28600
O 	O 	0.61850 0.30432 0.56115 -0.36400
O 	O 	0.73625 0.34369 0.58089 -0.40900
H 	H 	0.57667 0.22231 0.43196 0.16400
H 	H 	0.75043 0.40052 0.51495 0.17300
C 	C 	0.64490 0.29309 0.68726 0.11400
C 	C 	0.60687 0.25940 0.71816 -0.08900
C 	C 	0.64565 0.28765 0.75880 0.00700
C 	C 	0.71352 0.35211 0.76909 0.11500
C 	C 	0.74877 0.38953 0.73841 -0.08900
C 	C 	0.71488 0.35488 0.69739 0.00600
O 	O 	0.61163 0.27898 0.64686 -0.19300
C 	C 	0.66973 0.33779 0.63338 0.04000
C 	C 	0.73002 0.38541 0.66419 -0.05800
O 	O 	0.73410 0.38300 0.81049 -0.19200
C 	C 	0.67215 0.32920 0.82424 0.04100
C 	C 	0.61752 0.27417 0.79297 -0.05900
H 	H 	0.54969 0.21451 0.71095 0.06400
H 	H 	0.79922 0.44334 0.74613 0.06500
H 	H 	0.78421 0.42632 0.65944 0.05100
H 	H 	0.57207 0.22192 0.79708 0.05000
C 	C 	0.58238 0.21547 0.17889 0.11900
C 	C 	0.55174 0.21951 0.21237 -0.09100
C 	C 	0.57868 0.21582 0.25086 0.01300
C 	C 	0.64102 0.22006 0.25747 0.11200
C 	C 	0.67531 0.22202 0.22448 -0.08400
C 	C 	0.64090 0.21330 0.18479 0.00700
O 	O 	0.57499 0.23825 0.14301 -0.19600
C 	C 	0.63449 0.24935 0.12804 0.04600
C 	C 	0.67441 0.23524 0.15267 -0.05400
O 	O 	0.67798 0.24692 0.29810 -0.18400
C 	C 	0.63225 0.25923 0.31481 0.04500
C 	C 	0.57324 0.24104 0.28706 -0.06600
H 	H 	0.51153 0.22946 0.20902 0.06500
H 	H 	0.72848 0.23375 0.22982 0.06700
H 	H 	0.73093 0.25809 0.15279 0.05700
H 	H 	0.54270 0.26209 0.29089 0.05100
C 	C 	0.81510 0.68264 0.45307 0.03400
C 	C 	0.77558 0.64748 0.48305 -0.06500
C 	C 	0.75103 0.57727 0.48440 0.01400
C 	C 	0.87101 0.81886 0.45334 -0.03200
C 	C 	0.80685 0.57752 0.42623 0.01500
C 	C 	0.83135 0.64779 0.42494 -0.06500
C 	C 	0.84375 0.75635 0.45305 -0.00100
C 	C 	0.76573 0.54150 0.45566 -0.08800
H 	H 	0.76389 0.67447 0.50535 0.05000
H 	H 	0.71984 0.55037 0.50747 0.03200
H 	H 	0.81819 0.55056 0.40368 0.04000
H 	H 	0.86283 0.67502 0.40203 0.05200
C 	C 	0.81691 0.09760 0.44351 0.03200
C 	C 	0.74796 0.06860 0.45262 -0.06700
C 	C 	0.72326 0.11056 0.45602 0.01400
C 	C 	0.87362 0.02702 0.44748 -0.04100
C 	C 	0.83532 0.21000 0.43949 0.01500
C 	C 	0.85985 0.16784 0.43604 -0.06500
C 	C 	0.84630 0.05775 0.44526 -0.00000
C 	C 	0.76766 0.18222 0.45062 -0.09100
H 	H 	0.71417 0.01420 0.45811 0.04900
H 	H 	0.67037 0.08791 0.46385 0.03100
H 	H 	0.87010 0.26496 0.43507 0.03700
H 	H 	0.91311 0.19055 0.42874 0.05100
C 	C 	0.24043 0.13060 0.47135 0.03500
C 	C 	0.27921 0.19942 0.46198 -0.06700
C 	C 	0.35358 0.23820 0.46217 0.01700
C 	C 	0.35109 0.14003 0.48217 0.01700
C 	C 	0.27663 0.10132 0.48195 -0.06600
C 	C 	0.38974 0.20824 0.47164 -0.08700
H 	H 	0.25157 0.22249 0.45398 0.05100
H 	H 	0.38298 0.29128 0.45468 0.03500
H 	H 	0.37829 0.11632 0.48954 0.03300
H 	H 	0.24689 0.04811 0.48931 0.05000
C 	C 	0.85891 0.71965 0.00649 0.00200
C 	C 	0.82790 0.74679 0.98488 -0.03900
C 	C 	0.86617 0.82082 0.98790 -0.02400
C 	C 	0.78868 0.57995 0.99940 -0.10800
C 	C 	0.96561 0.84060 0.03512 -0.02000
C 	C 	0.92729 0.76667 0.03207 -0.03800
C 	C 	0.82071 0.64360 0.00239 0.05100
C 	C 	0.93581 0.86801 0.01247 -0.01500
H 	H 	0.77466 0.71061 0.96533 0.04500
H 	H 	0.84269 0.84133 0.97021 0.04300
H 	H 	0.95112 0.74597 0.04925 0.04300
C 	C 	0.88743 0.15340 0.00892 -0.00200
C 	C 	0.86895 0.10249 0.03391 -0.03700
C 	C 	0.90461 0.07086 0.03581 -0.02400
C 	C 	0.81048 0.20255 0.99843 -0.12200
C 	C 	0.97893 0.14256 0.98855 -0.02500
C 	C 	0.94320 0.17416 0.98673 -0.04100
C 	C 	0.84582 0.18054 0.00373 0.05100
C 	C 	0.95893 0.08978 0.01255 -0.01400
H 	H 	0.82610 0.08645 0.05129 0.04400
H 	H 	0.88946 0.03109 0.05498 0.04300
H 	H 	0.95782 0.21359 0.96738 0.04000
C 	C 	0.30316 0.14315 0.99920 0.02700
C 	C 	0.33979 0.19193 0.97335 -0.06500
C 	C 	0.41162 0.21966 0.97126 0.01400
C 	C 	0.40964 0.14834 0.02014 0.01800
C 	C 	0.33788 0.12072 0.02217 -0.06100
C 	C 	0.22927 0.11437 0.00143 0.00200
C 	C 	0.44731 0.19881 0.99514 -0.09300
H 	H 	0.31287 0.20871 0.95508 0.04900
H 	H 	0.43980 0.25800 0.95151 0.03200
H 	H 	0.43659 0.13215 0.03894 0.04100
H 	H 	0.30949 0.08238 0.04190 0.05000
