data_crystal

_cell_length_a 26.38097
_cell_length_b 26.32596
_cell_length_c 35.09509
_cell_angle_alpha 95.50935
_cell_angle_beta  95.50532
_cell_angle_gamma 125.73949

_symmetry_space_group_name_	'P 1'
_symmetry_space_group_name_H-M	'P 1'

loop_
_symmetry_equiv_pos_as_xyz
  x,y,z

loop_
_atom_site_label
_atom_site_type_symbol
_atom_site_fract_x
_atom_site_fract_y
_atom_site_fract_z
_atom_site_charge
C 	C 	0.02546 0.04609 0.97947 -0.09600
C 	C 	0.05070 0.01181 0.97684 0.05900
C 	C 	0.01111 0.94574 0.97558 -0.09600
H 	H 	0.05600 0.09707 0.98026 0.05500
H 	H 	0.03080 0.91931 0.97439 0.05400
C 	C 	0.02093 0.97215 0.48051 -0.09700
C 	C 	0.04922 0.03634 0.47929 0.05900
C 	C 	0.01203 0.05850 0.47818 -0.09700
H 	H 	0.05021 0.95573 0.48315 0.05300
H 	H 	0.03421 0.10865 0.47873 0.05400
C 	C 	0.21102 0.15739 0.45382 0.02400
C 	C 	0.14247 0.11920 0.45504 -0.04300
C 	C 	0.11853 0.08076 0.48116 -0.06300
H 	H 	0.19588 0.12781 0.39165 0.03900
H 	H 	0.11063 0.11808 0.43228 0.03900
H 	H 	0.14985 0.07784 0.50179 0.04400
C 	C 	0.14038 0.02796 0.94965 -0.04100
C 	C 	0.11942 0.04592 0.97751 -0.06300
H 	H 	0.10665 0.98944 0.92534 0.03900
H 	H 	0.15313 0.08808 0.99982 0.04600
C 	C 	0.96048 0.01437 0.97999 0.05500
C 	C 	0.94643 0.91402 0.97673 0.05600
C 	C 	0.92094 0.94826 0.97809 -0.09500
H 	H 	0.87049 0.92351 0.97757 0.05400
C 	C 	0.94639 0.01615 0.47691 0.05800
C 	C 	0.91793 0.95149 0.47725 -0.09800
C 	C 	0.95501 0.92923 0.47867 0.05800
H 	H 	0.86733 0.91886 0.47699 0.05300
Cu	Cu	0.64260 0.23491 0.00582 0.92500
Cu	Cu	0.71612 0.25165 0.93246 0.86400
Cu	Cu	0.66206 0.32055 0.94771 0.89600
Cu	Cu	0.61458 0.33559 0.01823 0.89000
C 	C 	0.63939 0.28171 0.08227 0.30000
O 	O 	0.54658 0.18315 0.99831 -0.36900
C 	C 	0.67384 0.28799 0.86899 0.29000
O 	O 	0.67803 0.32952 0.00340 -0.64600
O 	O 	0.64017 0.23451 0.94932 -0.63900
O 	O 	0.69395 0.20249 0.01355 -0.37900
O 	O 	0.76768 0.27464 0.98177 -0.44100
O 	O 	0.60309 0.29563 0.06543 -0.39200
O 	O 	0.69036 0.40697 0.94784 -0.39400
C 	C 	0.68573 0.44187 0.97484 0.30800
C 	C 	0.51494 0.19860 0.97752 0.30300
O 	O 	0.54441 0.25719 0.97122 -0.39700
O 	O 	0.64425 0.41546 0.99831 -0.39400
O 	O 	0.65773 0.25252 0.06161 -0.36900
C 	C 	0.75048 0.23230 0.00431 0.30300
O 	O 	0.64843 0.30782 0.89095 -0.38100
O 	O 	0.68511 0.24820 0.87970 -0.42300
H 	H 	0.72221 0.36446 0.01654 0.15900
H 	H 	0.59977 0.19944 0.93186 0.17400
Cu	Cu	0.72902 0.33728 0.45176 0.92800
Cu	Cu	0.71764 0.26916 0.52725 0.86800
Cu	Cu	0.63392 0.30562 0.50543 0.89600
Cu	Cu	0.62259 0.35616 0.43510 0.89300
C 	C 	0.68464 0.33781 0.37385 0.29900
O 	O 	0.77637 0.43318 0.45900 -0.37200
C 	C 	0.67999 0.31427 0.58782 0.29800
O 	O 	0.63216 0.29517 0.45045 -0.64100
O 	O 	0.72458 0.33896 0.50778 -0.64200
O 	O 	0.76527 0.28896 0.44668 -0.38000
O 	O 	0.69482 0.21491 0.47911 -0.44800
O 	O 	0.66567 0.37056 0.38910 -0.39000
O 	O 	0.54422 0.26749 0.49964 -0.39100
C 	C 	0.51251 0.27903 0.47506 0.31000
C 	C 	0.75566 0.46145 0.47771 0.30300
O 	O 	0.69683 0.42760 0.48329 -0.40300
O 	O 	0.54169 0.32420 0.45411 -0.40100
O 	O 	0.71587 0.32296 0.39601 -0.36700
C 	C 	0.73614 0.23225 0.45588 0.31100
O 	O 	0.63329 0.30208 0.56119 -0.39200
O 	O 	0.72155 0.30486 0.57844 -0.42300
H 	H 	0.60034 0.25106 0.43584 0.16300
H 	H 	0.75532 0.38093 0.52520 0.16900
C 	C 	0.67875 0.32736 0.62953 -0.11300
C 	C 	0.73583 0.36606 0.65755 0.12400
C 	C 	0.73366 0.36209 0.69702 -0.09900
C 	C 	0.67517 0.32472 0.70920 -0.00000
C 	C 	0.61792 0.29447 0.68190 0.05800
C 	C 	0.62014 0.29454 0.64208 -0.02600
N 	N 	0.79227 0.40850 0.64690 -0.20300
H 	H 	0.77754 0.38809 0.71828 0.05300
C 	C 	0.67454 0.31460 0.75005 -0.00000
N 	N 	0.56091 0.26480 0.69364 -0.19200
H 	H 	0.57619 0.26731 0.62081 0.04600
C 	C 	0.69509 0.36545 0.78002 -0.09800
C 	C 	0.69901 0.35890 0.81921 0.12200
C 	C 	0.67572 0.29834 0.82831 -0.11100
C 	C 	0.65414 0.24715 0.79820 -0.02500
C 	C 	0.65576 0.25535 0.75930 0.05600
H 	H 	0.71063 0.41110 0.77290 0.05400
N 	N 	0.72786 0.41134 0.84780 -0.20200
H 	H 	0.63688 0.20095 0.80510 0.04200
N 	N 	0.64018 0.20661 0.73117 -0.19200
H 	H 	0.74110 0.45482 0.84091 0.08300
H 	H 	0.74162 0.41078 0.87655 0.08600
H 	H 	0.62426 0.16243 0.73813 0.07800
H 	H 	0.64588 0.21258 0.70254 0.08400
H 	H 	0.51869 0.24056 0.67316 0.08100
H 	H 	0.55807 0.26740 0.72315 0.08700
H 	H 	0.79414 0.41907 0.61891 0.08400
H 	H 	0.83464 0.43453 0.66740 0.07900
C 	C 	0.64944 0.28828 0.12506 -0.11300
C 	C 	0.63044 0.23544 0.14328 0.13100
C 	C 	0.64278 0.24467 0.18413 -0.10000
C 	C 	0.66700 0.30366 0.20696 0.00100
C 	C 	0.68428 0.35604 0.18877 0.05600
C 	C 	0.67656 0.34803 0.14800 -0.02400
N 	N 	0.59740 0.17547 0.12197 -0.20300
H 	H 	0.62955 0.20470 0.19820 0.05600
C 	C 	0.67034 0.30894 0.24967 0.00100
N 	N 	0.70749 0.41376 0.21015 -0.19200
H 	H 	0.69071 0.38829 0.13401 0.02900
C 	C 	0.72914 0.33726 0.27405 -0.10000
C 	C 	0.73574 0.35029 0.31470 0.13100
C 	C 	0.68087 0.32796 0.33129 -0.11200
C 	C 	0.62160 0.29720 0.30688 -0.02400
C 	C 	0.61592 0.28871 0.26620 0.05600
H 	H 	0.77071 0.35288 0.26126 0.05600
N 	N 	0.79490 0.38706 0.33730 -0.20300
H 	H 	0.57978 0.28064 0.31961 0.02900
N 	N 	0.55839 0.26187 0.24329 -0.19200
H 	H 	0.83451 0.39983 0.32507 0.08400
H 	H 	0.80282 0.40722 0.36632 0.10000
H 	H 	0.51846 0.24661 0.25581 0.07800
H 	H 	0.55270 0.25660 0.21299 0.08600
H 	H 	0.72045 0.45215 0.19640 0.07800
H 	H 	0.71232 0.42111 0.24043 0.08600
H 	H 	0.57750 0.16489 0.09257 0.10000
H 	H 	0.58723 0.13763 0.13550 0.08400
C 	C 	0.91345 0.76204 0.46379 0.02500
C 	C 	0.84797 0.71641 0.46210 -0.05000
C 	C 	0.82336 0.65330 0.46384 -0.03500
C 	C 	0.86397 0.63509 0.46721 0.00100
C 	C 	0.92921 0.68053 0.46847 -0.03500
C 	C 	0.95385 0.74372 0.46680 -0.05300
C 	C 	0.83746 0.56731 0.46520 0.00800
C 	C 	0.79438 0.53148 0.48680 -0.15400
C 	C 	0.93945 0.82798 0.45950 -0.04400
C 	C 	0.92522 0.86171 0.48093 -0.06300
H 	H 	0.81597 0.72947 0.45846 0.03900
H 	H 	0.77257 0.61820 0.46146 0.03600
H 	H 	0.96075 0.66677 0.47037 0.03500
H 	H 	0.00429 0.77836 0.46757 0.04000
H 	H 	0.85182 0.54615 0.44494 0.03700
H 	H 	0.78222 0.55351 0.50816 0.07200
H 	H 	0.97342 0.85037 0.44026 0.03800
H 	H 	0.89072 0.83920 0.49985 0.04300
C 	C 	0.82213 0.04486 0.45128 0.02400
C 	C 	0.81031 0.06453 0.41796 -0.05100
C 	C 	0.77965 0.09351 0.41893 -0.03500
C 	C 	0.76043 0.10282 0.45327 -0.00200
C 	C 	0.76951 0.08030 0.48593 -0.03700
C 	C 	0.80029 0.05154 0.48499 -0.05100
C 	C 	0.72988 0.13523 0.45520 0.00700
C 	C 	0.75753 0.19287 0.44532 -0.16200
C 	C 	0.85748 0.01735 0.45076 -0.04500
C 	C 	0.90861 0.04082 0.47845 -0.06300
H 	H 	0.82581 0.05836 0.39155 0.03900
H 	H 	0.77098 0.10880 0.39310 0.03700
H 	H 	0.75360 0.08601 0.51226 0.02900
H 	H 	0.80749 0.03478 0.51051 0.03800
H 	H 	0.68853 0.11522 0.46902 0.02700
H 	H 	0.79905 0.21296 0.43166 0.07800
H 	H 	0.84414 0.98052 0.42634 0.03900
H 	H 	0.92519 0.08140 0.50096 0.04300
C 	C 	0.34084 0.22321 0.45176 0.00100
C 	C 	0.29541 0.18849 0.41728 -0.03600
C 	C 	0.23073 0.15569 0.41831 -0.05000
C 	C 	0.25671 0.19510 0.48801 -0.05000
C 	C 	0.32134 0.22785 0.48699 -0.03600
C 	C 	0.40886 0.25534 0.45071 0.00800
C 	C 	0.44472 0.24788 0.47598 -0.15100
H 	H 	0.31011 0.18586 0.38983 0.03300
H 	H 	0.24213 0.19875 0.51534 0.04000
H 	H 	0.35620 0.25665 0.51353 0.03800
H 	H 	0.42862 0.28201 0.42766 0.03100
H 	H 	0.42346 0.21759 0.49729 0.07700
C 	C 	0.82841 0.74968 0.00092 0.01900
C 	C 	0.78857 0.70557 0.96651 -0.04400
C 	C 	0.75238 0.64021 0.96656 -0.03000
C 	C 	0.75609 0.61835 0.00099 -0.00500
C 	C 	0.79401 0.66248 0.03564 -0.03700
C 	C 	0.82994 0.72786 0.03562 -0.05100
C 	C 	0.71912 0.54928 0.00124 -0.00200
C 	C 	0.71868 0.50999 0.97346 -0.14100
C 	C 	0.86691 0.81885 0.00114 -0.05300
C 	C 	0.90510 0.84441 0.97509 -0.05300
H 	H 	0.78531 0.72192 0.93984 0.04000
H 	H 	0.72124 0.60663 0.93997 0.03700
H 	H 	0.79621 0.64614 0.06250 0.03200
H 	H 	0.85956 0.76156 0.06247 0.03800
H 	H 	0.69604 0.53142 0.02583 0.03100
H 	H 	0.74521 0.52890 0.95024 0.07300
H 	H 	0.86730 0.84964 0.02436 0.03900
H 	H 	0.90905 0.81428 0.95408 0.04200
C 	C 	0.93057 0.13829 0.00467 0.01900
C 	C 	0.91726 0.15652 0.03895 -0.05100
C 	C 	0.88983 0.18868 0.03806 -0.03500
C 	C 	0.87569 0.20298 0.00283 -0.00700
C 	C 	0.89168 0.18729 0.96897 -0.03100
C 	C 	0.91892 0.15504 0.96984 -0.04500
C 	C 	0.84464 0.23488 0.00109 -0.00200
C 	C 	0.79013 0.21112 0.01438 -0.15900
C 	C 	0.95820 0.10308 0.00559 -0.05300
C 	C 	0.93263 0.04939 0.97957 -0.05300
H 	H 	0.92742 0.14509 0.06615 0.03800
H 	H 	0.87953 0.20237 0.06466 0.03700
H 	H 	0.88216 0.19929 0.94184 0.02800
H 	H 	0.93093 0.14303 0.94347 0.03800
H 	H 	0.86233 0.27328 0.98473 0.03000
H 	H 	0.77207 0.17206 0.03022 0.07700
H 	H 	0.99794 0.11956 0.02868 0.03800
H 	H 	0.88923 0.02966 0.95884 0.04200
C 	C 	0.20920 0.06276 0.95018 0.02200
C 	C 	0.25002 0.07330 0.98377 -0.04300
C 	C 	0.31522 0.10733 0.98438 -0.03000
C 	C 	0.34018 0.13030 0.95116 0.00100
C 	C 	0.29924 0.11899 0.91743 -0.03600
C 	C 	0.23389 0.08468 0.91679 -0.04900
C 	C 	0.40966 0.17083 0.95273 0.00700
C 	C 	0.44505 0.15302 0.96695 -0.15000
H 	H 	0.23127 0.05548 0.00947 0.03300
H 	H 	0.34649 0.11680 0.01085 0.03100
H 	H 	0.31807 0.13695 0.89178 0.03600
H 	H 	0.20265 0.07616 0.89060 0.03900
H 	H 	0.43203 0.21608 0.94295 0.03500
H 	H 	0.42183 0.10576 0.97401 0.07700
