data_crystal

_cell_length_a 18.62737
_cell_length_b 18.92730
_cell_length_c 26.73062
_cell_angle_alpha 95.42464
_cell_angle_beta  95.42439
_cell_angle_gamma 126.37140

_symmetry_space_group_name_	'P 1'
_symmetry_space_group_name_H-M	'P 1'

loop_
_symmetry_equiv_pos_as_xyz
  x,y,z

loop_
_atom_site_label
_atom_site_type_symbol
_atom_site_fract_x
_atom_site_fract_y
_atom_site_fract_z
_atom_site_charge
C 	C 	0.97640 0.06524 0.00753 0.02500
C 	C 	0.06949 0.10908 0.00808 -0.07200
C 	C 	0.10307 0.05941 0.00381 0.02800
C 	C 	0.04363 0.96642 0.99883 -0.07900
C 	C 	0.95130 0.92282 0.99866 0.02300
C 	C 	0.91765 0.97203 0.00303 -0.06700
H 	H 	0.11527 0.18109 0.01164 0.04900
H 	H 	0.06932 0.92795 0.99524 0.04900
H 	H 	0.84572 0.93778 0.00210 0.04900
C 	C 	0.87976 0.97058 0.44327 0.01000
C 	C 	0.97472 0.02780 0.44935 -0.05100
C 	C 	0.02384 0.99380 0.45380 0.00300
C 	C 	0.97863 0.90252 0.45241 -0.05400
C 	C 	0.88381 0.84396 0.44548 0.01400
C 	C 	0.83391 0.87805 0.44136 -0.06100
H 	H 	0.01045 0.09893 0.45117 0.04200
H 	H 	0.01729 0.87679 0.45611 0.04300
H 	H 	0.76055 0.83328 0.43661 0.04500
Cu	Cu	0.64671 0.23458 0.01378 0.92800
Cu	Cu	0.71187 0.23697 0.90363 0.86900
Cu	Cu	0.68645 0.36978 0.94493 0.89600
Cu	Cu	0.64139 0.39459 0.04664 0.89600
C 	C 	0.67379 0.30263 0.12057 0.30500
O 	O 	0.51345 0.17657 0.01505 -0.35400
C 	C 	0.65631 0.30628 0.83305 0.30000
O 	O 	0.71479 0.37220 0.01632 -0.63700
O 	O 	0.62889 0.23981 0.94025 -0.64200
O 	O 	0.70967 0.17816 0.01062 -0.36700
O 	O 	0.80190 0.27089 0.96030 -0.44200
O 	O 	0.63091 0.33576 0.10677 -0.38400
O 	O 	0.74969 0.49738 0.95442 -0.38000
C 	C 	0.74314 0.54502 0.99055 0.28600
C 	C 	0.47505 0.21148 0.99704 0.27900
O 	O 	0.52611 0.29302 0.98821 -0.39600
O 	O 	0.68466 0.50692 0.02159 -0.39100
O 	O 	0.68181 0.25328 0.08657 -0.35800
C 	C 	0.78429 0.21528 0.99147 0.28400
O 	O 	0.67753 0.37049 0.87045 -0.37400
O 	O 	0.64919 0.23558 0.84257 -0.42300
H 	H 	0.78028 0.41368 0.03159 0.16500
H 	H 	0.56514 0.20007 0.92171 0.17300
Cu	Cu	0.72709 0.31375 0.43887 0.92400
Cu	Cu	0.73133 0.25736 0.55095 0.87000
Cu	Cu	0.59012 0.27255 0.50860 0.89800
Cu	Cu	0.55525 0.30463 0.40330 0.89700
C 	C 	0.66965 0.29862 0.33208 0.31200
O 	O 	0.78203 0.44439 0.43515 -0.36300
C 	C 	0.65883 0.31028 0.62064 0.30500
O 	O 	0.58671 0.24160 0.43740 -0.63700
O 	O 	0.72302 0.33426 0.51236 -0.64000
O 	O 	0.78474 0.25097 0.44259 -0.36900
O 	O 	0.69421 0.16509 0.49593 -0.44000
O 	O 	0.59934 0.29751 0.33876 -0.38000
O 	O 	0.45975 0.20462 0.50014 -0.38000
C 	C 	0.40885 0.20630 0.46308 0.29100
C 	C 	0.74053 0.47848 0.44846 0.28300
O 	O 	0.65809 0.42597 0.45736 -0.39300
O 	O 	0.44548 0.26506 0.43262 -0.39400
O 	O 	0.70710 0.27800 0.36635 -0.37000
C 	C 	0.74815 0.17918 0.46359 0.28300
O 	O 	0.59214 0.28656 0.58333 -0.37900
O 	O 	0.73234 0.32089 0.61092 -0.42300
H 	H 	0.54779 0.17652 0.42388 0.16700
H 	H 	0.76126 0.39770 0.52960 0.17300
C 	C 	0.64802 0.31876 0.67433 -0.11100
C 	C 	0.71975 0.39274 0.71070 -0.05900
C 	C 	0.71979 0.39210 0.76309 0.16000
C 	C 	0.64732 0.31712 0.77945 -0.10600
C 	C 	0.57233 0.24630 0.74309 -0.06200
C 	C 	0.57207 0.24716 0.69070 0.16500
H 	H 	0.77745 0.44911 0.69839 0.05600
O 	O 	0.79190 0.46368 0.79819 -0.28200
H 	H 	0.51575 0.18885 0.75538 0.05700
O 	O 	0.50074 0.17481 0.65566 -0.29600
H 	H 	0.45716 0.18815 0.64828 0.15200
H 	H 	0.83617 0.45080 0.80383 0.13300
C 	C 	0.69129 0.30157 0.28046 -0.10400
C 	C 	0.65143 0.22160 0.24592 -0.05700
C 	C 	0.65220 0.22194 0.19351 0.16800
C 	C 	0.69289 0.30293 0.17545 -0.10300
C 	C 	0.73954 0.38348 0.21065 -0.06200
C 	C 	0.73901 0.38303 0.26298 0.16700
H 	H 	0.61549 0.15864 0.25926 0.06000
O 	O 	0.60688 0.14250 0.15975 -0.28100
H 	H 	0.77255 0.44624 0.19720 0.05000
O 	O 	0.78023 0.46189 0.29653 -0.29400
H 	H 	0.84310 0.48285 0.30830 0.14500
H 	H 	0.65253 0.13191 0.15645 0.15100
C 	C 	0.85438 0.70157 0.40670 -0.06100
C 	C 	0.83783 0.74707 0.44280 0.01900
C 	C 	0.79260 0.70505 0.48197 -0.06200
C 	C 	0.76524 0.61916 0.48540 0.01000
C 	C 	0.78298 0.57420 0.44974 -0.08600
C 	C 	0.82835 0.61630 0.41063 0.01000
H 	H 	0.88993 0.73348 0.37650 0.04600
H 	H 	0.78083 0.73981 0.51059 0.04400
H 	H 	0.72981 0.58735 0.51565 0.03000
H 	H 	0.84212 0.58253 0.38275 0.04300
C 	C 	0.78431 0.00499 0.48193 -0.06300
C 	C 	0.82970 0.00917 0.44202 0.02200
C 	C 	0.84185 0.06423 0.40653 -0.06400
C 	C 	0.81424 0.11877 0.41292 0.01200
C 	C 	0.77321 0.11811 0.45454 -0.09100
C 	C 	0.75625 0.05896 0.48819 0.00800
H 	H 	0.77461 0.96312 0.50960 0.04100
H 	H 	0.87607 0.06752 0.37523 0.04600
H 	H 	0.82586 0.16212 0.38589 0.03900
H 	H 	0.72371 0.05659 0.52017 0.02100
C 	C 	0.25241 0.13334 0.41575 0.01400
C 	C 	0.31028 0.15295 0.46129 -0.08900
C 	C 	0.27363 0.12280 0.50506 0.01500
C 	C 	0.18011 0.07296 0.50302 -0.06700
C 	C 	0.12262 0.05310 0.45737 0.02500
C 	C 	0.15913 0.08398 0.41391 -0.06700
H 	H 	0.27963 0.15555 0.38161 0.02700
H 	H 	0.31744 0.13821 0.54062 0.03800
H 	H 	0.15218 0.04900 0.53673 0.04600
H 	H 	0.11493 0.06814 0.37840 0.04500
C 	C 	0.85968 0.78970 0.03864 -0.05700
C 	C 	0.89035 0.82561 0.99504 0.01100
C 	C 	0.87013 0.76906 0.94938 -0.06000
C 	C 	0.82141 0.67731 0.94765 0.01100
C 	C 	0.79266 0.64141 0.99170 -0.08900
C 	C 	0.81128 0.69808 0.03707 0.01500
H 	H 	0.87550 0.83313 0.07411 0.04400
H 	H 	0.89359 0.79647 0.91552 0.04600
H 	H 	0.80625 0.63430 0.91215 0.04500
H 	H 	0.78973 0.67138 0.07137 0.02800
C 	C 	0.88697 0.10889 0.04495 -0.06800
C 	C 	0.93906 0.11577 0.00824 0.02500
C 	C 	0.94590 0.16167 0.96854 -0.07300
C 	C 	0.89769 0.19652 0.96405 0.01400
C 	C 	0.84162 0.18555 0.99917 -0.10200
C 	C 	0.83826 0.14338 0.04037 0.02200
H 	H 	0.88210 0.07451 0.07615 0.04700
H 	H 	0.98580 0.16735 0.94000 0.04300
H 	H 	0.90171 0.22951 0.93229 0.01500
H 	H 	0.79708 0.13620 0.06843 0.03600
C 	C 	0.25087 0.09456 0.04132 -0.06400
C 	C 	0.20030 0.10410 0.00402 0.02200
C 	C 	0.23927 0.14599 0.96335 -0.06900
C 	C 	0.32783 0.17767 0.95987 0.01300
C 	C 	0.37819 0.16754 0.99697 -0.09400
C 	C 	0.33911 0.12556 0.03764 0.01800
H 	H 	0.22122 0.06193 0.07276 0.04700
H 	H 	0.20038 0.15252 0.93396 0.04300
H 	H 	0.35748 0.21045 0.92847 0.02800
H 	H 	0.37782 0.11890 0.06706 0.04100
