data_crystal

_cell_length_a 33.74427
_cell_length_b 33.97281
_cell_length_c 35.10136
_cell_angle_alpha 95.55894
_cell_angle_beta  95.55789
_cell_angle_gamma 125.46569

_symmetry_space_group_name_	'P 1'
_symmetry_space_group_name_H-M	'P 1'

loop_
_symmetry_equiv_pos_as_xyz
  x,y,z

loop_
_atom_site_label
_atom_site_type_symbol
_atom_site_fract_x
_atom_site_fract_y
_atom_site_fract_z
_atom_site_charge
C 	C 	0.99847 0.03453 0.99742 0.13200
N 	N 	0.04859 0.06155 0.00156 -0.14900
C 	C 	0.07077 0.03866 0.99898 0.13100
N 	N 	0.04275 0.98877 0.99226 -0.14200
C 	C 	0.99269 0.96162 0.98793 0.12200
N 	N 	0.97059 0.98457 0.99052 -0.14100
C 	C 	0.93671 0.99525 0.44646 0.12000
N 	N 	0.91048 0.94622 0.44667 -0.14000
C 	C 	0.93366 0.92423 0.44700 0.11800
N 	N 	0.98306 0.95134 0.44713 -0.14000
C 	C 	0.00939 0.00028 0.44700 0.11700
N 	N 	0.98618 0.02219 0.44670 -0.14100
Cu	Cu	0.67509 0.27452 0.00053 0.92400
Cu	Cu	0.70361 0.26625 0.91508 0.87100
Cu	Cu	0.69403 0.34477 0.94442 0.89700
Cu	Cu	0.68058 0.36979 0.02487 0.89300
C 	C 	0.68432 0.30965 0.08031 0.31600
O 	O 	0.60395 0.24540 0.00471 -0.37600
C 	C 	0.67503 0.30583 0.86026 0.30500
O 	O 	0.71428 0.35012 0.99870 -0.63100
O 	O 	0.66144 0.27322 0.94414 -0.64000
O 	O 	0.70570 0.23893 0.99896 -0.36700
O 	O 	0.75402 0.28338 0.95696 -0.43800
O 	O 	0.69007 0.35068 0.07523 -0.38000
O 	O 	0.73077 0.41516 0.94770 -0.38200
C 	C 	0.72962 0.44478 0.97413 0.29100
C 	C 	0.58326 0.26672 0.99474 0.29400
O 	O 	0.61050 0.31128 0.98716 -0.39000
O 	O 	0.70015 0.42750 0.99986 -0.39100
O 	O 	0.69635 0.28812 0.05561 -0.37200
C 	C 	0.74419 0.25428 0.98222 0.28800
O 	O 	0.67958 0.33875 0.88752 -0.38400
O 	O 	0.66918 0.26595 0.86857 -0.40700
H 	H 	0.75064 0.37124 0.00782 0.15900
H 	H 	0.62597 0.25188 0.93161 0.17600
Cu	Cu	0.70730 0.32810 0.44245 0.92900
Cu	Cu	0.70681 0.28861 0.52408 0.87200
Cu	Cu	0.62999 0.30066 0.49378 0.89700
Cu	Cu	0.61608 0.32925 0.41831 0.89300
C 	C 	0.67075 0.31695 0.36162 0.31000
O 	O 	0.73720 0.40027 0.44409 -0.36300
C 	C 	0.66550 0.31577 0.57849 0.31300
O 	O 	0.63052 0.28916 0.43940 -0.64100
O 	O 	0.70277 0.33410 0.49818 -0.64100
O 	O 	0.74219 0.29670 0.44342 -0.36900
O 	O 	0.69171 0.24238 0.47971 -0.43900
O 	O 	0.65038 0.33856 0.37295 -0.39100
O 	O 	0.55872 0.26431 0.48582 -0.38000
C 	C 	0.53146 0.26810 0.45889 0.28900
C 	C 	0.71680 0.42002 0.45894 0.28200
O 	O 	0.67083 0.39138 0.46412 -0.39300
O 	O 	0.55175 0.30123 0.43623 -0.39400
O 	O 	0.69857 0.31212 0.38702 -0.35300
C 	C 	0.72302 0.25496 0.45579 0.29000
O 	O 	0.62845 0.30129 0.54996 -0.38300
O 	O 	0.70512 0.31948 0.57154 -0.42200
H 	H 	0.60884 0.25407 0.42650 0.16600
H 	H 	0.72339 0.36814 0.51335 0.17300
C 	C 	0.69071 0.30463 0.75506 -0.11600
C 	C 	0.66371 0.32125 0.74076 0.00200
C 	C 	0.64055 0.33317 0.76578 0.11900
C 	C 	0.64407 0.32784 0.80481 -0.03300
C 	C 	0.67109 0.31111 0.81914 -0.12400
C 	C 	0.69501 0.30012 0.79413 0.18900
C 	C 	0.65961 0.32569 0.69943 0.00600
O 	O 	0.61355 0.34891 0.75196 -0.27700
H 	H 	0.62553 0.33637 0.82382 0.05900
O 	O 	0.72243 0.28475 0.80782 -0.30400
H 	H 	0.70869 0.29552 0.73586 0.06800
C 	C 	0.70037 0.36459 0.68637 0.11200
C 	C 	0.70042 0.36313 0.64639 -0.03300
C 	C 	0.66018 0.32275 0.61924 -0.12900
C 	C 	0.61770 0.28587 0.63226 0.19200
C 	C 	0.61769 0.28739 0.67227 -0.11400
O 	O 	0.74036 0.40380 0.71268 -0.27700
H 	H 	0.73265 0.39239 0.63655 0.05000
O 	O 	0.57775 0.24639 0.60611 -0.29600
H 	H 	0.58598 0.25759 0.68219 0.07700
H 	H 	0.75658 0.31527 0.81708 0.13500
H 	H 	0.76348 0.39499 0.71775 0.14000
H 	H 	0.55540 0.25586 0.59979 0.15500
H 	H 	0.63750 0.38526 0.75606 0.15000
C 	C 	0.63284 0.27986 0.17225 -0.11600
C 	C 	0.67379 0.29048 0.19786 0.00400
C 	C 	0.71566 0.30074 0.18336 0.12000
C 	C 	0.71743 0.30314 0.14388 -0.03100
C 	C 	0.67801 0.29638 0.11897 -0.12300
C 	C 	0.63485 0.28287 0.13293 0.19100
C 	C 	0.67553 0.29796 0.24024 0.00300
O 	O 	0.75516 0.30923 0.20783 -0.27500
H 	H 	0.75045 0.31272 0.13311 0.05800
O 	O 	0.59565 0.27517 0.10865 -0.30000
H 	H 	0.60032 0.27151 0.18323 0.06700
C 	C 	0.68806 0.34281 0.26014 0.11500
C 	C 	0.68727 0.34903 0.29994 -0.03400
C 	C 	0.67358 0.31055 0.32016 -0.12100
C 	C 	0.66172 0.26587 0.30039 0.18700
C 	C 	0.66291 0.25979 0.26053 -0.11000
O 	O 	0.70215 0.38098 0.24086 -0.27700
H 	H 	0.69726 0.38382 0.31511 0.05800
O 	O 	0.64922 0.22827 0.31995 -0.28500
H 	H 	0.65343 0.22525 0.24533 0.07500
H 	H 	0.57408 0.23950 0.09732 0.14600
H 	H 	0.67114 0.37693 0.23121 0.14300
H 	H 	0.61271 0.20834 0.31749 0.13800
H 	H 	0.77728 0.34525 0.21786 0.15100
C 	C 	0.90544 0.87109 0.44718 -0.02200
C 	C 	0.91640 0.84275 0.42543 -0.01900
C 	C 	0.89290 0.79340 0.42814 -0.04900
C 	C 	0.85813 0.77182 0.45256 0.01400
C 	C 	0.84624 0.79972 0.47364 -0.04900
C 	C 	0.86972 0.84916 0.47090 -0.01900
C 	C 	0.83515 0.72036 0.45671 0.00500
C 	C 	0.80555 0.68212 0.42428 -0.04100
C 	C 	0.78746 0.63389 0.42725 -0.03700
C 	C 	0.79881 0.62346 0.46270 -0.00100
C 	C 	0.82732 0.66147 0.49542 -0.03700
C 	C 	0.84545 0.70975 0.49244 -0.04000
C 	C 	0.78185 0.57298 0.46518 0.02600
C 	C 	0.79894 0.55105 0.44300 -0.06600
C 	C 	0.77947 0.50172 0.44242 0.01300
C 	C 	0.74255 0.47374 0.46398 -0.08900
C 	C 	0.72723 0.49648 0.48766 0.01100
C 	C 	0.74673 0.54585 0.48818 -0.06600
H 	H 	0.94349 0.85909 0.40670 0.03900
H 	H 	0.90222 0.77210 0.41169 0.04200
H 	H 	0.81921 0.78327 0.49240 0.04200
H 	H 	0.86104 0.87065 0.48792 0.04000
H 	H 	0.79718 0.68991 0.39665 0.04000
H 	H 	0.76505 0.60469 0.40194 0.03900
H 	H 	0.83614 0.65374 0.52292 0.03900
H 	H 	0.86835 0.73905 0.51762 0.04000
H 	H 	0.82654 0.57194 0.42555 0.04700
H 	H 	0.79190 0.48487 0.42418 0.03900
H 	H 	0.69949 0.47568 0.50503 0.03200
H 	H 	0.73368 0.56264 0.50570 0.04600
C 	C 	0.74020 0.22458 0.44605 -0.09300
C 	C 	0.71000 0.17417 0.44744 0.01400
C 	C 	0.72861 0.14672 0.44363 -0.06800
C 	C 	0.77751 0.16930 0.43823 0.02700
C 	C 	0.80693 0.21903 0.43485 -0.06700
C 	C 	0.78836 0.24657 0.43869 0.01500
C 	C 	0.79897 0.14189 0.43896 -0.00100
C 	C 	0.80574 0.12686 0.47334 -0.03700
C 	C 	0.82694 0.10171 0.47438 -0.04100
C 	C 	0.84152 0.09132 0.44105 0.00500
C 	C 	0.83435 0.10594 0.40655 -0.04000
C 	C 	0.81323 0.13121 0.40553 -0.03700
C 	C 	0.86562 0.06646 0.44264 0.01400
C 	C 	0.84132 0.01859 0.42151 -0.05100
C 	C 	0.86418 0.99500 0.42317 -0.01800
C 	C 	0.91165 0.01921 0.44588 -0.02300
C 	C 	0.93576 0.06705 0.46718 -0.01900
C 	C 	0.91283 0.09051 0.46557 -0.05000
H 	H 	0.67244 0.15647 0.45229 0.03100
H 	H 	0.70541 0.10817 0.44574 0.04600
H 	H 	0.84466 0.23670 0.43046 0.04700
H 	H 	0.81203 0.28533 0.43734 0.03600
H 	H 	0.79494 0.13503 0.49931 0.03600
H 	H 	0.83227 0.09050 0.50111 0.03900
H 	H 	0.84560 0.09816 0.38070 0.04100
H 	H 	0.80803 0.14257 0.37884 0.04100
H 	H 	0.80478 0.99969 0.40382 0.04300
H 	H 	0.84530 0.95825 0.40639 0.04000
H 	H 	0.97221 0.08599 0.48505 0.03900
H 	H 	0.93181 0.12745 0.48204 0.04200
C 	C 	0.47771 0.23992 0.45798 -0.08700
C 	C 	0.45887 0.22877 0.49250 0.01600
C 	C 	0.40806 0.20339 0.49170 -0.06600
C 	C 	0.37558 0.18873 0.45638 0.02700
C 	C 	0.39430 0.19942 0.42184 -0.06700
C 	C 	0.44512 0.22497 0.42263 0.01400
C 	C 	0.32197 0.16218 0.45556 -0.00100
C 	C 	0.29484 0.11661 0.46757 -0.03700
C 	C 	0.24392 0.09110 0.46621 -0.04100
C 	C 	0.21963 0.11081 0.45260 0.00500
C 	C 	0.24681 0.15651 0.44079 -0.04100
C 	C 	0.29779 0.18215 0.44235 -0.03700
C 	C 	0.16564 0.08322 0.45018 0.01400
C 	C 	0.14657 0.10367 0.47154 -0.04900
C 	C 	0.09548 0.07697 0.46998 -0.01900
C 	C 	0.06303 0.02947 0.44719 -0.02200
C 	C 	0.08213 0.00932 0.42545 -0.02000
C 	C 	0.13317 0.03611 0.42688 -0.04900
H 	H 	0.48363 0.24040 0.52002 0.03800
H 	H 	0.39397 0.19546 0.51854 0.04800
H 	H 	0.36947 0.18784 0.39437 0.04500
H 	H 	0.45912 0.23294 0.39576 0.02500
H 	H 	0.31314 0.10084 0.47772 0.03900
H 	H 	0.22331 0.05598 0.47560 0.04000
H 	H 	0.22838 0.17197 0.43016 0.04000
H 	H 	0.31847 0.21744 0.43322 0.03900
H 	H 	0.17136 0.13997 0.48968 0.04200
H 	H 	0.08123 0.09282 0.48705 0.03900
H 	H 	0.05744 0.97294 0.40740 0.03900
H 	H 	0.14750 0.02023 0.40997 0.04200
C 	C 	0.75527 0.49692 0.97071 -0.08600
C 	C 	0.79824 0.52110 0.95440 0.01500
C 	C 	0.82324 0.57085 0.95225 -0.06600
C 	C 	0.80561 0.59692 0.96645 0.02900
C 	C 	0.76243 0.57269 0.98236 -0.06600
C 	C 	0.73732 0.52297 0.98441 0.01500
C 	C 	0.83314 0.64994 0.96584 -0.00300
C 	C 	0.88179 0.68338 0.98689 -0.03100
C 	C 	0.90681 0.73388 0.98832 -0.03500
C 	C 	0.88336 0.75138 0.96880 0.00500
C 	C 	0.83498 0.71796 0.94732 -0.04000
C 	C 	0.80999 0.66741 0.94577 -0.03600
C 	C 	0.90926 0.80472 0.97136 0.01400
C 	C 	0.95152 0.83197 0.95472 -0.04900
C 	C 	0.97799 0.88302 0.95925 -0.01700
C 	C 	0.96254 0.90737 0.98064 -0.02400
C 	C 	0.91946 0.87985 0.99644 -0.01300
C 	C 	0.89295 0.82874 0.99180 -0.04300
H 	H 	0.81264 0.50158 0.94387 0.03200
H 	H 	0.85647 0.58923 0.93979 0.04700
H 	H 	0.74861 0.59254 0.99349 0.04700
H 	H 	0.70392 0.50474 0.99663 0.03600
H 	H 	0.89988 0.67028 0.00264 0.03200
H 	H 	0.94416 0.75945 0.00500 0.03400
H 	H 	0.81671 0.73115 0.93198 0.04100
H 	H 	0.77253 0.64187 0.92928 0.04000
H 	H 	0.96410 0.81363 0.93859 0.04300
H 	H 	0.01066 0.90366 0.94634 0.04000
H 	H 	0.90717 0.89812 0.01309 0.03400
H 	H 	0.86032 0.80794 0.00473 0.03600
C 	C 	0.97430 0.05929 0.00004 -0.03800
C 	C 	0.99532 0.10186 0.02830 -0.01500
C 	C 	0.97192 0.12483 0.03111 -0.05000
C 	C 	0.92747 0.10565 0.00555 0.00700
C 	C 	0.90657 0.06322 0.97722 -0.04400
C 	C 	0.92977 0.04007 0.97456 -0.01000
C 	C 	0.90327 0.13050 0.00787 0.00700
C 	C 	0.85400 0.10451 0.01334 -0.04100
C 	C 	0.82974 0.12672 0.01222 -0.03900
C 	C 	0.85464 0.17521 0.00588 0.00300
C 	C 	0.90450 0.20182 0.00192 -0.04400
C 	C 	0.92864 0.17950 0.00274 -0.04600
C 	C 	0.82753 0.19681 0.00045 0.01500
C 	C 	0.80463 0.20160 0.03005 -0.06000
C 	C 	0.77767 0.22065 0.02428 0.00500
C 	C 	0.77353 0.23523 0.98888 -0.08400
C 	C 	0.79688 0.23081 0.95946 0.00700
C 	C 	0.82358 0.21160 0.96519 -0.05600
H 	H 	0.02943 0.11681 0.04835 0.03700
H 	H 	0.98825 0.15744 0.05319 0.04200
H 	H 	0.87255 0.04840 0.95709 0.04200
H 	H 	0.91339 0.00750 0.95243 0.03800
H 	H 	0.83426 0.06686 0.01777 0.03900
H 	H 	0.79128 0.10585 0.01533 0.03800
H 	H 	0.92419 0.23942 0.99736 0.04400
H 	H 	0.96668 0.19992 0.99856 0.04600
H 	H 	0.80766 0.19052 0.05747 0.04600
H 	H 	0.76023 0.22425 0.04735 0.04100
H 	H 	0.79368 0.24150 0.93189 0.01800
H 	H 	0.84075 0.20766 0.94203 0.04300
C 	C 	0.12499 0.06768 0.00268 -0.03600
C 	C 	0.15089 0.05278 0.02261 -0.01800
C 	C 	0.20130 0.07676 0.02248 -0.04600
C 	C 	0.22635 0.11589 0.00247 -0.00200
C 	C 	0.20095 0.13192 0.98364 -0.04100
C 	C 	0.15048 0.10798 0.98380 -0.01200
C 	C 	0.27855 0.13855 0.99982 0.02200
C 	C 	0.31539 0.16334 0.03363 -0.05100
C 	C 	0.36446 0.18257 0.03138 -0.04000
C 	C 	0.37707 0.17710 0.99529 0.00200
C 	C 	0.34028 0.15263 0.96143 -0.03400
C 	C 	0.29123 0.13345 0.96369 -0.04600
C 	C 	0.42891 0.19761 0.99291 0.03300
C 	C 	0.45273 0.18071 0.01282 -0.07300
C 	C 	0.50265 0.20200 0.01228 0.01100
C 	C 	0.52930 0.24059 0.99192 -0.08500
C 	C 	0.50487 0.25632 0.97095 0.01300
C 	C 	0.45499 0.23501 0.97154 -0.06700
H 	H 	0.13177 0.02213 0.03768 0.03700
H 	H 	0.22067 0.06428 0.03724 0.04000
H 	H 	0.22011 0.16237 0.96836 0.04100
H 	H 	0.13092 0.11981 0.96829 0.03900
H 	H 	0.30595 0.16751 0.06164 0.04100
H 	H 	0.39268 0.20178 0.05762 0.03900
H 	H 	0.34966 0.14820 0.93346 0.03900
H 	H 	0.26297 0.11410 0.93746 0.04200
H 	H 	0.43272 0.15145 0.02905 0.04600
H 	H 	0.52082 0.18923 0.02839 0.03400
H 	H 	0.52465 0.28546 0.95458 0.03400
H 	H 	0.43682 0.24811 0.95590 0.04700
