data_crystal

_cell_length_a 20.15370
_cell_length_b 21.32375
_cell_length_c 37.65818
_cell_angle_alpha 60.59287
_cell_angle_beta  119.12379
_cell_angle_gamma 133.19028

_symmetry_space_group_name_	'P 1'
_symmetry_space_group_name_H-M	'P 1'

loop_
_symmetry_equiv_pos_as_xyz
  x,y,z

loop_
_atom_site_label
_atom_site_type_symbol
_atom_site_fract_x
_atom_site_fract_y
_atom_site_fract_z
_atom_site_charge
Co	Co	0.07707 0.02755 0.04230 1.17000
Co	Co	0.07882 0.87812 0.03933 1.18100
O 	O 	0.03177 0.06654 0.19456 -0.40600
C 	C 	0.02186 0.99139 0.21795 0.33000
O 	O 	0.08417 0.13233 0.03637 -0.39200
C 	C 	0.11411 0.22935 0.12176 0.31500
C 	C 	0.08465 0.77491 0.12812 0.31600
O 	O 	0.01188 0.94065 0.20180 -0.31000
O 	O 	0.05210 0.76821 0.08964 -0.34900
O 	O 	0.07642 0.82113 0.13744 -0.32500
O 	O 	0.12821 0.18888 0.11150 -0.33300
O 	O 	0.03704 0.91995 0.05928 -0.74000
O 	O 	0.21283 0.95790 0.07200 -0.28000
O 	O 	0.21778 0.07485 0.06523 -0.33500
Co	Co	0.06685 0.02969 0.53833 1.17400
Co	Co	0.12543 0.92126 0.53686 1.20600
O 	O 	0.02122 0.04988 0.69706 -0.41100
C 	C 	0.03628 0.98898 0.72231 0.32700
O 	O 	0.03861 0.11126 0.53089 -0.40300
C 	C 	0.05066 0.20108 0.61406 0.31100
C 	C 	0.17396 0.84250 0.62801 0.33600
O 	O 	0.04077 0.94670 0.70722 -0.31600
O 	O 	0.13984 0.83058 0.59058 -0.34300
O 	O 	0.14626 0.87101 0.63850 -0.31300
O 	O 	0.07926 0.17243 0.60423 -0.33200
O 	O 	0.06347 0.93680 0.56045 -0.72300
O 	O 	0.25194 0.02929 0.55819 -0.32800
O 	O 	0.21215 0.11530 0.55010 -0.32300
C 	C 	0.02705 0.94260 0.82372 0.20400
C 	C 	0.06225 0.97805 0.76824 0.11100
C 	C 	0.04154 0.97402 0.26415 0.11700
C 	C 	0.13265 0.36499 0.59753 -0.05500
H 	H 	0.17605 0.49628 0.58813 0.13600
C 	C 	0.11492 0.37581 0.55154 0.77900
F 	F 	0.01955 0.32644 0.53442 -0.41500
F 	F 	0.15386 0.34664 0.54733 -0.39300
F 	F 	0.15401 0.46367 0.52912 -0.36300
C 	C 	0.23329 0.81157 0.65919 0.02000
C 	C 	0.31436 0.84728 0.64939 -0.06400
C 	C 	0.37784 0.94528 0.63037 0.77800
H 	H 	0.38193 0.81458 0.63837 0.12900
F 	F 	0.47008 0.97365 0.64511 -0.37600
F 	F 	0.37089 0.99394 0.64092 -0.36500
C 	C 	0.22566 0.31879 0.17328 0.07700
C 	C 	0.27583 0.38160 0.23126 0.79200
H 	H 	0.22961 0.26489 0.19705 0.08600
F 	F 	0.26907 0.30459 0.25718 -0.41500
F 	F 	0.22168 0.38659 0.24084 -0.40800
F 	F 	0.36840 0.45325 0.23960 -0.38700
C 	C 	0.11795 0.72004 0.16105 0.02000
C 	C 	0.06523 0.63109 0.16009 -0.07700
C 	C 	0.26205 0.63203 0.16958 0.07800
C 	C 	0.27556 0.53223 0.16323 0.08200
C 	C 	0.22499 0.54515 0.17157 -0.02800
H 	H 	0.15807 0.48857 0.17938 0.12500
C 	C 	0.30024 0.64115 0.67839 0.08400
C 	C 	0.22894 0.56074 0.66531 -0.00600
C 	C 	0.25230 0.50871 0.66828 0.08000
H 	H 	0.15735 0.54026 0.65210 0.12200
C 	C 	0.25380 0.04377 0.06247 0.23900
C 	C 	0.26480 0.10626 0.54424 0.29800
C 	C 	0.13753 0.27813 0.66994 0.07700
C 	C 	0.11696 0.28478 0.62740 -0.00200
C 	C 	0.16211 0.43410 0.61065 0.02100
C 	C 	0.18149 0.42637 0.65328 0.09400
C 	C 	0.16050 0.34434 0.68247 -0.12900
H 	H 	0.12856 0.21807 0.69302 0.07200
C 	C 	0.32982 0.78948 0.65265 0.02700
C 	C 	0.27901 0.69980 0.67451 0.08500
C 	C 	0.21550 0.67028 0.69527 -0.10400
C 	C 	0.19046 0.72581 0.68591 0.09000
H 	H 	0.13340 0.70003 0.69696 0.13100
F 	F 	0.14614 0.58068 0.75400 -0.37000
C 	C 	0.19038 0.31650 0.13102 0.00300
C 	C 	0.19376 0.39069 0.10006 -0.06100
C 	C 	0.20332 0.45059 0.11138 0.02400
C 	C 	0.23063 0.44933 0.15374 0.08700
C 	C 	0.24283 0.38295 0.18522 -0.12000
C 	C 	0.21337 0.76230 0.18136 0.08200
C 	C 	0.11155 0.59991 0.16357 0.03400
C 	C 	0.20954 0.64821 0.17801 0.08700
C 	C 	0.25739 0.72186 0.19378 -0.10600
H 	H 	0.25383 0.82709 0.18642 0.13000
H 	H 	0.07166 0.54052 0.15358 0.11100
C 	C 	0.34488 0.19767 0.48691 0.07200
C 	C 	0.34713 0.18481 0.52767 0.01000
H 	H 	0.27797 0.16734 0.46478 0.09000
F 	F 	0.34135 0.24194 0.40430 -0.40300
C 	C 	0.33462 0.14566 0.00494 0.03300
C 	C 	0.34015 0.10571 0.04798 0.01600
H 	H 	0.27272 0.14379 0.98475 0.09700
F 	F 	0.29855 0.16101 0.92078 -0.42700
C 	C 	0.05760 0.00827 0.96231 0.23100
O 	O 	0.11224 0.98271 0.98657 -0.30600
O 	O 	0.03048 0.02871 0.97837 -0.32500
C 	C 	0.04357 0.00638 0.45875 0.28800
O 	O 	0.11865 0.00853 0.47959 -0.39400
C 	C 	0.06782 0.05447 0.86120 0.06300
C 	C 	0.12646 0.08780 0.83706 -0.00100
C 	C 	0.10564 0.02885 0.81978 -0.02100
C 	C 	0.12813 0.05212 0.78477 -0.06100
O 	O 	0.09865 0.09209 0.89248 -0.08900
H 	H 	0.18760 0.15619 0.83304 0.15200
H 	H 	0.16699 0.11988 0.76645 0.11200
C 	C 	0.10946 0.08103 0.33491 -0.02600
C 	C 	0.08547 0.02101 0.31724 -0.01400
O 	O 	0.08178 0.08908 0.38877 -0.10600
C 	C 	0.11120 0.04416 0.28338 -0.07100
H 	H 	0.17373 0.14764 0.33239 0.14900
H 	H 	0.15717 0.11225 0.26725 0.11900
C 	C 	0.16942 0.32946 0.72783 0.78900
F 	F 	0.11096 0.24000 0.74582 -0.43600
F 	F 	0.14479 0.37334 0.73062 -0.38300
C 	C 	0.17419 0.39952 0.05423 0.77800
F 	F 	0.20362 0.36160 0.04985 -0.39800
F 	F 	0.37942 0.25651 0.58651 -0.39700
C 	C 	0.03206 0.01929 0.91645 0.01800
C 	C 	0.04989 0.05112 0.35751 0.06100
C 	C 	0.17315 0.58064 0.72652 0.79200
F 	F 	0.35364 0.96078 0.58720 -0.41200
F 	F 	0.41276 0.15653 0.62479 -0.38600
F 	F 	0.09497 0.51562 0.70541 -0.38400
H 	H 	0.19658 0.50275 0.08718 0.12500
F 	F 	0.22139 0.48812 0.03276 -0.37300
F 	F 	0.38122 0.97777 0.12879 -0.36700
C 	C 	0.34945 0.75203 0.22653 0.78700
F 	F 	0.34564 0.76429 0.25815 -0.36700
F 	F 	0.39463 0.08400 0.13720 -0.40600
C 	C 	0.34710 0.70431 0.15718 -0.02200
F 	F 	0.26084 0.36050 0.75026 -0.40900
F 	F 	0.36847 0.68998 0.24461 -0.39500
C 	C 	0.36488 0.60346 0.15671 -0.02800
H 	H 	0.37190 0.77176 0.15088 0.14100
C 	C 	0.34585 0.53953 0.68177 -0.00800
C 	C 	0.39442 0.67258 0.68948 -0.01900
F 	F 	0.38531 0.59812 0.60334 -0.41700
F 	F 	0.23708 0.56017 0.75023 -0.38200
C 	C 	0.43384 0.23008 0.55535 -0.05400
C 	C 	0.42782 0.24230 0.47605 -0.11000
C 	C 	0.43889 0.23646 0.59504 0.77700
C 	C 	0.40565 0.18301 0.98745 -0.09500
C 	C 	0.39200 0.21378 0.94019 0.78300
C 	C 	0.42216 0.11057 0.07471 -0.06700
C 	C 	0.40004 0.68923 0.15282 0.07900
H 	H 	0.40590 0.59255 0.15272 0.12100
H 	H 	0.36403 0.50059 0.68326 0.12100
F 	F 	0.40485 0.71776 0.60080 -0.40400
F 	F 	0.39864 0.81174 0.07026 -0.41100
F 	F 	0.39202 0.70868 0.06292 -0.40100
C 	C 	0.42490 0.25596 0.43191 0.78800
C 	C 	0.43038 0.06833 0.12154 0.73900
F 	F 	0.44258 0.20854 0.92810 -0.40600
Co	Co	0.02182 0.86154 0.60344 1.19800
C 	C 	0.41639 0.62544 0.68691 0.06900
H 	H 	0.45039 0.73639 0.69716 0.11000
F 	F 	0.42156 0.83185 0.20846 -0.38300
F 	F 	0.43387 0.19718 0.43198 -0.40900
F 	F 	0.42095 0.30058 0.92664 -0.39100
C 	C 	0.44966 0.68686 0.60362 0.79300
C 	C 	0.45119 0.79203 0.07012 0.79200
C 	C 	0.01507 0.01740 0.41277 -0.00200
C 	C 	0.00215 0.93790 0.31846 0.20000
O 	O 	0.00628 0.01236 0.47686 -0.35300
F 	F 	0.48445 0.73314 0.56820 -0.35900
F 	F 	0.49701 0.34193 0.41736 -0.37400
C 	C 	0.49069 0.19517 0.01435 0.06700
C 	C 	0.49753 0.76070 0.14982 0.09700
C 	C 	0.51037 0.67032 0.68319 0.08700
F 	F 	0.49583 0.85411 0.03753 -0.38200
C 	C 	0.51551 0.26677 0.54634 0.02400
C 	C 	0.51236 0.26988 0.50746 0.07600
C 	C 	0.49587 0.15338 0.05728 0.01800
F 	F 	0.07915 0.35769 0.03656 -0.41300
O 	O 	0.02907 0.19976 0.11679 -0.37500
Co	Co	0.01663 0.09540 0.07660 1.19300
C 	C 	0.52153 0.79354 0.11181 -0.12000
Co	Co	0.97738 0.84798 0.09680 1.21200
C 	C 	0.95989 0.57246 0.15150 0.79700
Co	Co	0.98150 0.06335 0.57804 1.18000
O 	O 	0.96397 0.15062 0.61649 -0.37200
F 	F 	0.89230 0.22754 0.95729 -0.37000
O 	O 	0.99615 0.90502 0.79240 -0.10300
O 	O 	0.96965 0.90299 0.28563 -0.09700
C 	C 	0.96836 0.90927 0.84787 -0.07700
C 	C 	0.98929 0.96828 0.86516 0.12400
C 	C 	0.96644 0.94513 0.90006 0.01800
H 	H 	0.90708 0.84097 0.85179 0.16900
H 	H 	0.92820 0.87752 0.91854 0.08800
C 	C 	0.94358 0.90678 0.34210 -0.06200
C 	C 	0.96889 0.96629 0.36072 0.11600
C 	C 	0.94695 0.94361 0.39592 0.03000
H 	H 	0.87936 0.84016 0.34462 0.16100
H 	H 	0.90754 0.87592 0.41420 0.09100
F 	F 	0.92235 0.57977 0.10888 -0.41700
F 	F 	0.92699 0.48471 0.17182 -0.37300
C 	C 	0.73216 0.32513 0.00138 0.05400
C 	C 	0.76541 0.41163 0.99677 0.00500
C 	C 	0.70506 0.42608 0.99482 0.09100
C 	C 	0.61080 0.35600 0.99396 -0.01100
C 	C 	0.57875 0.26960 0.00077 0.06800
C 	C 	0.63838 0.25445 0.00302 -0.02200
H 	H 	0.83827 0.46619 0.99663 0.14800
H 	H 	0.56474 0.36720 0.99288 0.12500
H 	H 	0.61365 0.18714 0.00876 0.09500
C 	C 	0.70972 0.27819 0.51520 0.08100
C 	C 	0.61696 0.25006 0.50414 -0.03100
C 	C 	0.59940 0.30703 0.49975 0.08500
C 	C 	0.67327 0.39535 0.50025 -0.02300
C 	C 	0.76547 0.42200 0.51497 0.07100
C 	C 	0.78422 0.36287 0.52327 -0.02000
H 	H 	0.55905 0.18214 0.50200 0.12100
H 	H 	0.65893 0.44037 0.49490 0.11600
H 	H 	0.85526 0.38175 0.53653 0.12300
Co	Co	0.93936 0.92254 0.13956 1.21500
C 	C 	0.87312 0.74067 0.03056 0.30600
Co	Co	0.93179 0.06912 0.14122 1.17200
O 	O 	0.96177 0.02455 0.11629 -0.78100
O 	O 	0.92444 0.81547 0.14226 -0.36500
O 	O 	0.97528 0.96440 0.07955 -0.51400
C 	C 	0.77312 0.87804 0.15087 0.32200
O 	O 	0.83445 0.94244 0.16973 -0.31200
O 	O 	0.79952 0.86064 0.13302 -0.31600
C 	C 	0.86911 0.12851 0.05071 0.31500
O 	O 	0.83725 0.06651 0.08409 -0.37400
O 	O 	0.92811 0.13794 0.03830 -0.27500
O 	O 	0.93987 0.80633 0.00981 -0.35900
O 	O 	0.87238 0.74658 0.06436 -0.27100
Co	Co	0.95846 0.90819 0.64939 1.20200
C 	C 	0.94582 0.74566 0.54778 0.29200
Co	Co	0.90121 0.01923 0.65009 1.15600
O 	O 	0.94730 0.99303 0.62308 -0.70600
O 	O 	0.97663 0.82082 0.65385 -0.37000
O 	O 	0.97950 0.95008 0.58547 -0.52400
C 	C 	0.78557 0.82105 0.67320 0.32200
O 	O 	0.83479 0.89058 0.68727 -0.31400
O 	O 	0.81997 0.81649 0.65314 -0.32800
C 	C 	0.80127 0.04146 0.56146 0.22500
O 	O 	0.78895 0.98712 0.59893 -0.24900
O 	O 	0.86010 0.06075 0.54463 -0.32300
O 	O 	0.99103 0.81705 0.51933 -0.34600
O 	O 	0.93235 0.75133 0.57743 -0.27600
C 	C 	0.61625 0.73584 0.64192 0.08800
C 	C 	0.68923 0.75004 0.67810 0.00600
C 	C 	0.66957 0.71295 0.71780 -0.05500
C 	C 	0.58128 0.67707 0.71978 0.02600
C 	C 	0.52709 0.69849 0.64369 -0.10400
H 	H 	0.63105 0.76010 0.61194 0.11500
H 	H 	0.56735 0.65367 0.74989 0.12600
C 	C 	0.74411 0.71683 0.75808 0.77700
F 	F 	0.79257 0.79435 0.76879 -0.41100
F 	F 	0.80626 0.71407 0.75362 -0.39800
F 	F 	0.70366 0.64540 0.79049 -0.37100
C 	C 	0.56647 0.77094 0.18736 0.02400
C 	C 	0.60899 0.82127 0.11318 0.08400
C 	C 	0.67478 0.82304 0.15150 0.00200
C 	C 	0.65086 0.79220 0.18932 -0.05300
C 	C 	0.71571 0.78366 0.23184 0.77600
H 	H 	0.54936 0.75091 0.21605 0.14300
H 	H 	0.62749 0.84493 0.08429 0.11000
F 	F 	0.66478 0.71643 0.26196 -0.37600
F 	F 	0.77642 0.86252 0.24366 -0.41000
F 	F 	0.76684 0.76344 0.23075 -0.39900
F 	F 	0.93098 0.59704 0.16592 -0.37400
C 	C 	0.68314 0.13098 0.55082 0.04700
C 	C 	0.72734 0.21461 0.52296 0.06300
C 	C 	0.77981 0.23267 0.49996 -0.08700
C 	C 	0.80063 0.17313 0.51127 0.06200
C 	C 	0.75882 0.09086 0.54047 0.04500
C 	C 	0.68910 0.06557 0.55532 -0.14800
C 	C 	0.61775 0.96918 0.57376 0.83700
H 	H 	0.63987 0.11520 0.56726 0.08600
H 	H 	0.85066 0.19164 0.49802 0.13000
C 	C 	0.81479 0.31489 0.46403 0.78800
F 	F 	0.64844 0.94908 0.61697 -0.42400
F 	F 	0.60324 0.91337 0.55787 -0.37900
F 	F 	0.53250 0.95367 0.56377 -0.37400
F 	F 	0.89560 0.38743 0.47979 -0.36400
F 	F 	0.74778 0.33138 0.43988 -0.37000
F 	F 	0.83487 0.30423 0.43790 -0.36700
C 	C 	0.86146 0.50996 0.56716 0.01300
C 	C 	0.83968 0.50816 0.52600 0.08800
C 	C 	0.86021 0.58618 0.49374 -0.12000
C 	C 	0.87662 0.65512 0.50050 0.07600
C 	C 	0.89669 0.65788 0.54133 0.00900
C 	C 	0.88958 0.58404 0.57545 -0.06800
C 	C 	0.90387 0.58024 0.61976 0.78200
H 	H 	0.84797 0.45036 0.59208 0.11100
H 	H 	0.87884 0.70952 0.47408 0.09100
C 	C 	0.85317 0.59187 0.45047 0.79000
F 	F 	0.89542 0.50369 0.64809 -0.38100
F 	F 	0.83741 0.58177 0.62087 -0.39500
F 	F 	0.99234 0.65149 0.63281 -0.44300
F 	F 	0.76224 0.55930 0.42678 -0.38000
F 	F 	0.87833 0.54312 0.45316 -0.36300
F 	F 	0.91250 0.67909 0.43033 -0.40000
H 	H 	0.58160 0.29244 0.56954 0.10400
F 	F 	0.52867 0.30247 0.61148 -0.38700
C 	C 	0.78839 0.27824 0.97987 0.02900
C 	C 	0.79730 0.30549 0.01016 0.08900
C 	C 	0.84919 0.29134 0.05159 -0.12900
C 	C 	0.87632 0.23681 0.06355 0.09600
C 	C 	0.85869 0.20127 0.03436 -0.00200
C 	C 	0.81851 0.22576 0.99157 -0.03500
C 	C 	0.80584 0.19478 0.95864 0.77400
H 	H 	0.75185 0.29254 0.94781 0.13200
H 	H 	0.90526 0.21673 0.09629 0.06000
C 	C 	0.87193 0.33080 0.08373 0.79200
F 	F 	0.76366 0.22412 0.91902 -0.38100
F 	F 	0.75019 0.10299 0.96838 -0.40500
F 	F 	0.79021 0.29637 0.09101 -0.42400
F 	F 	0.92124 0.42204 0.06919 -0.42400
F 	F 	0.92666 0.31250 0.12168 -0.42200
C 	C 	0.79151 0.66129 0.97568 0.09000
C 	C 	0.79751 0.65868 0.01517 0.00700
C 	C 	0.75284 0.57531 0.04324 -0.04600
C 	C 	0.73706 0.50392 0.03901 0.04300
C 	C 	0.74241 0.50880 0.00171 0.07000
C 	C 	0.76311 0.58631 0.96840 -0.10400
C 	C 	0.75742 0.59013 0.92570 0.78800
H 	H 	0.81519 0.72334 0.95182 0.09000
H 	H 	0.71355 0.44222 0.06323 0.12700
C 	C 	0.70941 0.55881 0.07301 0.78100
F 	F 	0.76925 0.66729 0.89640 -0.40200
F 	F 	0.67080 0.51909 0.91092 -0.38000
F 	F 	0.82670 0.58724 0.92900 -0.40400
F 	F 	0.68239 0.61435 0.05659 -0.39400
F 	F 	0.77291 0.57355 0.11114 -0.36000
F 	F 	0.63052 0.47209 0.07955 -0.38700
H 	H 	0.55994 0.15943 0.07746 0.11900
F 	F 	0.52287 0.10264 0.14331 -0.38600
