data_crystal

_cell_length_a 27.73093
_cell_length_b 28.20190
_cell_length_c 35.05257
_cell_angle_alpha 95.50968
_cell_angle_beta  95.50663
_cell_angle_gamma 125.65187

_symmetry_space_group_name_	'P 1'
_symmetry_space_group_name_H-M	'P 1'

loop_
_symmetry_equiv_pos_as_xyz
  x,y,z

loop_
_atom_site_label
_atom_site_type_symbol
_atom_site_fract_x
_atom_site_fract_y
_atom_site_fract_z
_atom_site_charge
C 	C 	0.98311 0.04244 0.99010 0.05500
C 	C 	0.94932 0.98107 0.98888 -0.09100
C 	C 	0.97608 0.95205 0.98359 0.05500
C 	C 	0.03667 0.98436 0.97950 -0.09100
C 	C 	0.07064 0.04575 0.98077 0.05500
C 	C 	0.04386 0.07487 0.98605 -0.09100
H 	H 	0.90234 0.95599 0.99201 0.05600
H 	H 	0.05742 0.96185 0.97552 0.05600
H 	H 	0.07010 0.12241 0.98704 0.05600
C 	C 	0.91807 0.97756 0.45367 0.04700
C 	C 	0.98107 0.01191 0.45735 -0.08100
C 	C 	0.01034 0.98500 0.46004 0.04700
C 	C 	0.97675 0.92378 0.45901 -0.08500
C 	C 	0.91384 0.88922 0.45529 0.05000
C 	C 	0.88434 0.91606 0.45262 -0.08500
H 	H 	0.00718 0.05941 0.45817 0.05300
H 	H 	0.99952 0.90300 0.46104 0.05500
H 	H 	0.83561 0.88938 0.44981 0.05500
Cu	Cu	0.65723 0.26351 0.00240 0.92700
Cu	Cu	0.70960 0.27103 0.92165 0.86700
Cu	Cu	0.69320 0.35997 0.95441 0.89600
Cu	Cu	0.66701 0.37792 0.03271 0.89400
C 	C 	0.67395 0.30331 0.08439 0.29900
O 	O 	0.57078 0.23497 0.00149 -0.36600
C 	C 	0.68453 0.32962 0.86990 0.29400
O 	O 	0.71089 0.35652 0.00803 -0.64100
O 	O 	0.65162 0.27266 0.94739 -0.64200
O 	O 	0.68966 0.21649 0.99822 -0.37300
O 	O 	0.76160 0.28050 0.96587 -0.44500
O 	O 	0.64987 0.33045 0.07502 -0.38700
O 	O 	0.73913 0.44552 0.96327 -0.38800
C 	C 	0.73357 0.47822 0.98937 0.31500
C 	C 	0.55119 0.26383 0.98763 0.30200
O 	O 	0.58973 0.32011 0.98567 -0.39800
O 	O 	0.71196 0.45994 0.02122 -0.39700
O 	O 	0.67621 0.26900 0.05741 -0.36400
C 	C 	0.74158 0.23902 0.98702 0.31100
O 	O 	0.68111 0.36131 0.89843 -0.38100
O 	O 	0.67813 0.28047 0.87441 -0.41900
H 	H 	0.75446 0.38021 0.01941 0.16400
H 	H 	0.61031 0.24865 0.93155 0.17500
Cu	Cu	0.71159 0.31435 0.44794 0.92700
Cu	Cu	0.71995 0.28385 0.53504 0.86700
Cu	Cu	0.62118 0.28825 0.50132 0.89600
Cu	Cu	0.59020 0.29749 0.41840 0.89400
C 	C 	0.67042 0.29773 0.36658 0.30000
O 	O 	0.74260 0.39795 0.44172 -0.37300
C 	C 	0.66663 0.31741 0.58643 0.29400
O 	O 	0.61793 0.26261 0.44784 -0.63900
O 	O 	0.70987 0.33138 0.50359 -0.64200
O 	O 	0.75863 0.28158 0.45320 -0.37400
O 	O 	0.70297 0.22307 0.49489 -0.44500
O 	O 	0.61776 0.28689 0.36967 -0.38700
O 	O 	0.53429 0.24024 0.49671 -0.38500
C 	C 	0.49685 0.23576 0.46781 0.31000
C 	C 	0.71224 0.41902 0.44899 0.30200
O 	O 	0.65708 0.38391 0.45538 -0.39400
O 	O 	0.51670 0.26985 0.44132 -0.39400
O 	O 	0.69852 0.28744 0.39327 -0.36700
C 	C 	0.73924 0.23536 0.46994 0.30800
O 	O 	0.62650 0.30922 0.55757 -0.38100
O 	O 	0.71654 0.32487 0.58010 -0.42200
H 	H 	0.59462 0.21902 0.43980 0.16500
H 	H 	0.73396 0.37401 0.51553 0.17500
C 	C 	0.68467 0.34342 0.83041 -0.10800
C 	C 	0.72944 0.35208 0.80935 0.11900
C 	C 	0.72237 0.35412 0.76951 -0.09500
C 	C 	0.67281 0.35015 0.75081 -0.00000
C 	C 	0.63085 0.34673 0.77267 0.05800
C 	C 	0.63684 0.34270 0.81227 -0.02100
N 	N 	0.77962 0.35926 0.82729 -0.20200
H 	H 	0.75526 0.35824 0.75289 0.05400
C 	C 	0.66271 0.34442 0.70781 0.00000
N 	N 	0.58507 0.34756 0.75592 -0.19200
H 	H 	0.60339 0.33758 0.82873 0.04400
C 	C 	0.62107 0.28777 0.68466 -0.09600
C 	C 	0.61892 0.27855 0.64426 0.12100
C 	C 	0.65976 0.32702 0.62695 -0.11000
C 	C 	0.69851 0.38432 0.64969 -0.02100
C 	C 	0.69969 0.39367 0.68996 0.05700
H 	H 	0.59175 0.25035 0.69833 0.05500
N 	N 	0.57848 0.22299 0.62250 -0.20400
H 	H 	0.72859 0.42162 0.63615 0.04000
N 	N 	0.73621 0.44985 0.71125 -0.19200
H 	H 	0.54934 0.18734 0.63571 0.08200
H 	H 	0.57483 0.21470 0.59231 0.08100
H 	H 	0.76481 0.48581 0.69811 0.08100
H 	H 	0.73511 0.45858 0.74066 0.08700
H 	H 	0.55337 0.34344 0.77200 0.08300
H 	H 	0.58150 0.35401 0.72725 0.08800
H 	H 	0.78884 0.36313 0.85748 0.06600
H 	H 	0.81139 0.36351 0.81123 0.07800
C 	C 	0.68112 0.29689 0.12527 -0.10600
C 	C 	0.73895 0.32926 0.14935 0.12100
C 	C 	0.74354 0.32850 0.18953 -0.09600
C 	C 	0.69151 0.29561 0.20581 0.00000
C 	C 	0.63376 0.26071 0.18132 0.06000
C 	C 	0.62925 0.26174 0.14124 -0.02000
N 	N 	0.79009 0.36153 0.13423 -0.20400
H 	H 	0.78770 0.35448 0.20830 0.05600
C 	C 	0.69776 0.30213 0.24879 0.00100
N 	N 	0.58258 0.22672 0.19611 -0.19200
H 	H 	0.58505 0.23613 0.12253 0.04700
C 	C 	0.69908 0.34786 0.26979 -0.09600
C 	C 	0.69542 0.35009 0.30950 0.12400
C 	C 	0.68838 0.30457 0.32809 -0.10600
C 	C 	0.69187 0.26152 0.30789 -0.02200
C 	C 	0.69713 0.26020 0.26839 0.05900
H 	H 	0.70169 0.38112 0.25498 0.05600
N 	N 	0.69935 0.39627 0.32968 -0.20400
H 	H 	0.68824 0.22765 0.32249 0.04800
N 	N 	0.70049 0.21812 0.24936 -0.19200
H 	H 	0.70246 0.42861 0.31544 0.08300
H 	H 	0.70182 0.40184 0.35985 0.08800
H 	H 	0.69840 0.18638 0.26379 0.08400
H 	H 	0.70654 0.21726 0.22043 0.08900
H 	H 	0.54017 0.20172 0.17783 0.08400
H 	H 	0.58420 0.22418 0.22566 0.08900
H 	H 	0.78830 0.36186 0.10438 0.08300
H 	H 	0.83258 0.38610 0.15237 0.08300
C 	C 	0.82663 0.71165 0.45261 0.02100
C 	C 	0.80896 0.67345 0.41703 -0.04800
C 	C 	0.78750 0.61449 0.41652 -0.02800
C 	C 	0.78373 0.59350 0.45159 -0.01200
C 	C 	0.80072 0.63149 0.48715 -0.02800
C 	C 	0.82219 0.69046 0.48766 -0.04800
C 	C 	0.85451 0.77380 0.45340 -0.01300
C 	C 	0.88001 0.82620 0.45417 -0.02900
C 	C 	0.76033 0.53241 0.45099 0.04600
C 	C 	0.73946 0.48091 0.45025 -0.11600
H 	H 	0.81263 0.68960 0.38983 0.04200
H 	H 	0.77400 0.58526 0.38890 0.03600
H 	H 	0.79749 0.61546 0.51436 0.03700
H 	H 	0.83613 0.71981 0.51530 0.04200
C 	C 	0.79598 0.13138 0.45194 -0.01300
C 	C 	0.76441 0.07637 0.46405 -0.02800
C 	C 	0.78641 0.04256 0.46235 -0.04800
C 	C 	0.84003 0.06357 0.44850 0.02100
C 	C 	0.87079 0.11788 0.43550 -0.04800
C 	C 	0.84883 0.15172 0.43723 -0.02800
C 	C 	0.77625 0.16854 0.45702 0.04700
C 	C 	0.75960 0.19938 0.46227 -0.11900
C 	C 	0.86557 0.03136 0.44988 -0.01400
C 	C 	0.88845 0.00584 0.45143 -0.02700
H 	H 	0.72351 0.06033 0.47545 0.03500
H 	H 	0.76236 0.00062 0.47243 0.04200
H 	H 	0.91227 0.13441 0.42473 0.04300
H 	H 	0.87348 0.19416 0.42781 0.03800
C 	C 	0.31776 0.14403 0.47203 -0.01100
C 	C 	0.28206 0.08298 0.47236 -0.02800
C 	C 	0.21990 0.05160 0.47103 -0.04800
C 	C 	0.19322 0.08115 0.46935 0.02100
C 	C 	0.22905 0.14235 0.46957 -0.04800
C 	C 	0.29122 0.17374 0.47091 -0.02800
C 	C 	0.38110 0.17571 0.47118 0.04700
C 	C 	0.43403 0.20273 0.46994 -0.10900
C 	C 	0.12890 0.04831 0.46631 -0.01400
C 	C 	0.07492 0.02002 0.46353 -0.02800
H 	H 	0.30228 0.05973 0.47321 0.03600
H 	H 	0.19245 0.00428 0.47092 0.04200
H 	H 	0.20873 0.16548 0.46832 0.04200
H 	H 	0.31857 0.22095 0.47064 0.03900
C 	C 	0.87905 0.77377 0.98172 0.02200
C 	C 	0.88917 0.73924 0.95730 -0.04700
C 	C 	0.85801 0.67868 0.95793 -0.02800
C 	C 	0.81662 0.65244 0.98298 -0.00900
C 	C 	0.80594 0.68681 0.00705 -0.03000
C 	C 	0.83710 0.74737 0.00641 -0.04900
C 	C 	0.91288 0.83653 0.98221 -0.01200
C 	C 	0.94154 0.88916 0.98277 -0.03100
C 	C 	0.78670 0.59078 0.98496 0.04800
C 	C 	0.76215 0.53929 0.98685 -0.10900
H 	H 	0.92151 0.75938 0.93811 0.04200
H 	H 	0.86647 0.65236 0.93924 0.03900
H 	H 	0.77399 0.66678 0.02648 0.03800
H 	H 	0.82902 0.77381 0.02534 0.04200
C 	C 	0.83526 0.17034 0.00352 -0.01600
C 	C 	0.80531 0.10991 0.00458 -0.02800
C 	C 	0.83696 0.08540 0.00410 -0.04700
C 	C 	0.89867 0.12121 0.00251 0.01800
C 	C 	0.92900 0.18199 0.00261 -0.04800
C 	C 	0.89736 0.20652 0.00312 -0.02800
C 	C 	0.80140 0.19401 0.99918 0.05100
C 	C 	0.77358 0.21420 0.99435 -0.12200
C 	C 	0.92992 0.09490 0.99862 -0.00900
C 	C 	0.95495 0.07176 0.99490 -0.03200
H 	H 	0.75731 0.08166 0.00486 0.03700
H 	H 	0.81326 0.03840 0.00417 0.04200
H 	H 	0.97674 0.20999 0.00151 0.04100
H 	H 	0.92082 0.25328 0.00228 0.03500
C 	C 	0.37132 0.18921 0.97318 -0.01100
C 	C 	0.32784 0.13085 0.95297 -0.02800
C 	C 	0.26644 0.10375 0.95239 -0.04700
C 	C 	0.24829 0.13490 0.97205 0.01900
C 	C 	0.29167 0.19383 0.99134 -0.04500
C 	C 	0.35306 0.22095 0.99189 -0.02600
C 	C 	0.43462 0.21510 0.97707 0.04700
C 	C 	0.48776 0.23703 0.98129 -0.11100
C 	C 	0.18570 0.10500 0.97477 -0.01100
C 	C 	0.13328 0.07880 0.97739 -0.03100
H 	H 	0.34159 0.10606 0.93841 0.03700
H 	H 	0.23314 0.05819 0.93738 0.04200
H 	H 	0.27798 0.21821 0.00657 0.04000
H 	H 	0.38643 0.26613 0.00754 0.03500
