data_crystal

_cell_length_a 24.55308
_cell_length_b 21.70322
_cell_length_c 19.67035
_cell_angle_alpha 92.70941
_cell_angle_beta  85.31129
_cell_angle_gamma 124.78931

_symmetry_space_group_name_	'P 1'
_symmetry_space_group_name_H-M	'P 1'

loop_
_symmetry_equiv_pos_as_xyz
  x,y,z

loop_
_atom_site_label
_atom_site_type_symbol
_atom_site_fract_x
_atom_site_fract_y
_atom_site_fract_z
_atom_site_charge
C 	C 	0.89467 0.09510 0.00139 0.07600
C 	C 	0.92964 0.07333 0.95894 -0.06600
C 	C 	0.95469 0.03668 0.98645 -0.09000
C 	C 	0.94496 0.02165 0.05697 0.10700
C 	C 	0.90931 0.04272 0.09902 -0.06000
C 	C 	0.88408 0.07906 0.07140 -0.03600
N 	N 	0.97174 0.98542 0.08676 -0.13600
C 	C 	0.18305 0.10684 0.08797 0.01200
C 	C 	0.14214 0.03316 0.11252 -0.01700
C 	C 	0.07309 0.99454 0.11401 -0.06500
C 	C 	0.04398 0.02817 0.08828 0.08200
C 	C 	0.08555 0.10508 0.07032 -0.06200
C 	C 	0.15462 0.14346 0.06903 -0.01700
C 	C 	0.87835 0.75799 0.02372 0.06400
C 	C 	0.93451 0.81521 0.98577 -0.12700
C 	C 	0.96498 0.89015 0.00552 0.04600
C 	C 	0.93951 0.90850 0.06384 0.04500
C 	C 	0.88292 0.85113 0.10115 -0.03400
C 	C 	0.85232 0.77626 0.08110 -0.04600
H 	H 	0.93778 0.08523 0.90479 0.05200
H 	H 	0.98318 0.02205 0.95358 0.05300
H 	H 	0.90140 0.03108 0.15318 0.06200
H 	H 	0.85650 0.09500 0.10441 0.06100
H 	H 	0.16388 0.00533 0.12928 0.05000
H 	H 	0.04211 0.93798 0.13407 0.05900
H 	H 	0.06489 0.13540 0.05779 0.06200
H 	H 	0.18608 0.20136 0.05233 0.05300
H 	H 	0.95450 0.80160 0.94101 0.06600
H 	H 	0.00875 0.93375 0.97626 0.00700
H 	H 	0.86291 0.86469 0.14589 0.05200
H 	H 	0.80846 0.73240 0.11018 0.06000
C 	C 	0.93760 0.13980 0.44920 0.00200
C 	C 	0.98724 0.13518 0.41415 -0.00400
C 	C 	0.00853 0.09491 0.44224 -0.08400
C 	C 	0.98151 0.06077 0.50672 0.09100
C 	C 	0.93298 0.06695 0.54204 -0.06900
C 	C 	0.91073 0.10572 0.51328 -0.01600
N 	N 	0.99995 0.01552 0.53515 -0.13900
C 	C 	0.20583 0.11404 0.54895 0.00900
C 	C 	0.17084 0.12985 0.59826 -0.02200
C 	C 	0.10352 0.09885 0.59246 -0.06300
C 	C 	0.07075 0.05234 0.53711 0.07600
C 	C 	0.10655 0.03862 0.48639 -0.06600
C 	C 	0.17371 0.06914 0.49255 -0.02200
C 	C 	0.87940 0.78073 0.49492 0.00800
C 	C 	0.87633 0.82967 0.45405 -0.02100
C 	C 	0.91789 0.90710 0.46441 -0.06500
C 	C 	0.96236 0.93642 0.51713 0.08100
C 	C 	0.96633 0.88687 0.55645 -0.06300
C 	C 	0.92631 0.80978 0.54429 -0.01900
H 	H 	0.00868 0.16196 0.36491 0.03900
H 	H 	0.04478 0.08899 0.41353 0.05600
H 	H 	0.91171 0.04046 0.59138 0.06000
H 	H 	0.87276 0.10961 0.54090 0.04800
H 	H 	0.19566 0.16553 0.64137 0.04700
H 	H 	0.07640 0.10991 0.63153 0.05400
H 	H 	0.08220 0.00400 0.44266 0.05200
H 	H 	0.20078 0.05783 0.45361 0.04700
H 	H 	0.84116 0.80765 0.41479 0.04700
H 	H 	0.91493 0.94367 0.43185 0.05800
H 	H 	0.99983 0.90825 0.59724 0.06000
H 	H 	0.93010 0.77232 0.57491 0.05000
Co	Co	0.71707 0.30832 0.95728 1.17700
O 	O 	0.78702 0.29384 0.90498 -0.37300
Co	Co	0.58171 0.30967 0.99179 1.17300
O 	O 	0.62395 0.25420 0.92251 -0.46200
O 	O 	0.65624 0.41716 0.97732 -0.41000
O 	O 	0.71332 0.20892 0.97280 -0.34700
C 	C 	0.71962 0.44448 0.96009 0.34500
O 	O 	0.56781 0.29135 0.88460 -0.35200
C 	C 	0.46461 0.24389 0.05292 0.30100
C 	C 	0.68443 0.33327 0.08472 0.30300
O 	O 	0.50805 0.31530 0.04714 -0.33900
O 	O 	0.48720 0.20832 0.02199 -0.31900
O 	O 	0.74179 0.34979 0.05930 -0.34000
O 	O 	0.63837 0.28902 0.04411 -0.43700
O 	O 	0.73721 0.40472 0.92353 -0.53800
C 	C 	0.76312 0.22843 0.92997 0.30300
C 	C 	0.60480 0.26716 0.86883 0.32300
H 	H 	0.77489 0.43100 0.88690 0.17800
Co	Co	0.74605 0.33293 0.45743 1.18700
O 	O 	0.82222 0.34100 0.39334 -0.35800
Co	Co	0.60583 0.31739 0.51038 1.18800
O 	O 	0.65661 0.29301 0.41773 -0.45100
O 	O 	0.68307 0.41977 0.52847 -0.41600
O 	O 	0.74803 0.23630 0.43772 -0.33400
C 	C 	0.73336 0.46080 0.48327 0.33700
O 	O 	0.60221 0.34140 0.40748 -0.34800
C 	C 	0.48345 0.23693 0.55816 0.29500
C 	C 	0.70132 0.30876 0.58852 0.31400
O 	O 	0.52812 0.30526 0.57471 -0.35500
O 	O 	0.50884 0.21278 0.51377 -0.33100
O 	O 	0.76113 0.33508 0.56350 -0.34000
O 	O 	0.65861 0.27946 0.54221 -0.45600
O 	O 	0.77301 0.43934 0.46110 -0.51400
C 	C 	0.80233 0.27207 0.39926 0.30000
C 	C 	0.64228 0.32649 0.37718 0.30400
H 	H 	0.82159 0.47881 0.44814 0.18600
C 	C 	0.68237 0.29791 0.66194 -0.09100
C 	C 	0.70603 0.36014 0.70580 0.06800
C 	C 	0.68135 0.34935 0.77383 -0.02400
C 	C 	0.63738 0.27686 0.80040 -0.10300
C 	C 	0.61692 0.21437 0.75761 0.07000
C 	C 	0.63857 0.22517 0.68834 -0.02000
H 	H 	0.69464 0.39746 0.80541 0.05900
H 	H 	0.62107 0.17704 0.65502 0.06200
I 	I 	0.77843 0.47138 0.67102 -0.09000
I 	I 	0.55076 0.10330 0.79545 -0.08200
C 	C 	0.64971 0.32390 0.30194 -0.08300
C 	C 	0.65301 0.26752 0.26678 0.06500
C 	C 	0.66518 0.27191 0.19570 -0.01400
C 	C 	0.66972 0.32866 0.15890 -0.08000
C 	C 	0.66135 0.38116 0.19354 0.06200
C 	C 	0.65072 0.37796 0.26441 -0.01400
H 	H 	0.66925 0.22980 0.16879 0.06700
H 	H 	0.64418 0.41859 0.29068 0.06700
I 	I 	0.62701 0.16778 0.31545 -0.07200
I 	I 	0.66531 0.46689 0.14109 -0.08800
C 	C 	0.75977 0.54170 0.47891 -0.10600
C 	C 	0.80064 0.58600 0.42196 0.08200
C 	C 	0.83873 0.66429 0.42720 -0.07400
C 	C 	0.83298 0.69892 0.48667 0.01500
C 	C 	0.78504 0.65478 0.53924 0.02300
C 	C 	0.74933 0.57670 0.53555 0.00400
H 	H 	0.87287 0.69827 0.38499 0.06500
H 	H 	0.71480 0.54334 0.57774 0.06400
I 	I 	0.80052 0.53784 0.32532 -0.11400
I 	I 	0.76387 0.70427 0.62384 -0.09100
C 	C 	0.84957 0.25078 0.39739 -0.08600
C 	C 	0.90265 0.28594 0.44096 0.08800
C 	C 	0.93650 0.25315 0.45116 -0.07500
C 	C 	0.91625 0.18401 0.42116 0.01700
C 	C 	0.86709 0.15208 0.37352 0.02700
C 	C 	0.83442 0.18597 0.36149 -0.00300
H 	H 	0.97547 0.27869 0.48657 0.06700
H 	H 	0.79459 0.15951 0.32709 0.05600
I 	I 	0.92885 0.38397 0.49809 -0.09400
I 	I 	0.83852 0.05059 0.32195 -0.10400
C 	C 	0.41299 0.20885 0.55902 -0.08400
C 	C 	0.39191 0.24192 0.51762 0.08700
C 	C 	0.32420 0.21139 0.51612 -0.07300
C 	C 	0.27698 0.14747 0.55454 0.01400
C 	C 	0.29789 0.11453 0.59609 0.02700
C 	C 	0.36575 0.14549 0.59822 -0.00500
H 	H 	0.30812 0.23664 0.48404 0.06500
H 	H 	0.38171 0.11966 0.62970 0.05400
I 	I 	0.46037 0.33572 0.45416 -0.08800
I 	I 	0.22810 0.01690 0.65456 -0.09600
C 	C 	0.76865 0.52611 0.96672 -0.16100
C 	C 	0.76252 0.57694 0.93180 0.11500
C 	C 	0.80040 0.65306 0.94922 -0.12200
C 	C 	0.84446 0.67922 0.00120 0.04800
C 	C 	0.85344 0.62925 0.03338 0.00900
C 	C 	0.81601 0.55315 0.01545 0.05200
H 	H 	0.79452 0.69171 0.92332 0.07100
H 	H 	0.82146 0.51443 0.04183 0.04400
I 	I 	0.69706 0.54083 0.85210 -0.10000
I 	I 	0.92175 0.66666 0.11037 -0.07600
C 	C 	0.86697 0.13232 0.97228 -0.02800
C 	C 	0.89801 0.21023 0.97976 0.01200
C 	C 	0.86597 0.24272 0.96066 -0.00400
C 	C 	0.80316 0.19807 0.93405 -0.09000
C 	C 	0.77471 0.12131 0.92172 0.07800
C 	C 	0.80655 0.08879 0.94109 -0.06100
H 	H 	0.88861 0.30206 0.96927 0.04600
H 	H 	0.78343 0.02920 0.93355 0.05600
I 	I 	0.99275 0.27984 0.02039 -0.05800
I 	I 	0.68378 0.05329 0.87364 -0.08900
C 	C 	0.25542 0.14397 0.07815 0.01400
C 	C 	0.28421 0.13797 0.01549 0.03800
C 	C 	0.35270 0.17144 0.00765 0.03500
C 	C 	0.39301 0.21086 0.06185 -0.09100
C 	C 	0.36433 0.21725 0.12443 0.08700
C 	C 	0.29572 0.18394 0.13221 -0.07300
H 	H 	0.37467 0.16679 0.95930 0.03100
H 	H 	0.27361 0.18836 0.18055 0.06400
I 	I 	0.22531 0.07800 0.93200 -0.13000
I 	I 	0.42280 0.27349 0.20905 -0.07700
