data_crystal

_cell_length_a 26.16478
_cell_length_b 24.69375
_cell_length_c 71.46733
_cell_angle_alpha 90.02384
_cell_angle_beta  90.02490
_cell_angle_gamma 119.41663

_symmetry_space_group_name_	'P 1'
_symmetry_space_group_name_H-M	'P 1'

loop_
_symmetry_equiv_pos_as_xyz
  x,y,z

loop_
_atom_site_label
_atom_site_type_symbol
_atom_site_fract_x
_atom_site_fract_y
_atom_site_fract_z
_atom_site_charge
O 	O 	0.01919 0.01259 0.75767 -0.72000
H 	H 	0.02190 0.01164 0.74395 0.15500
O 	O 	0.02241 0.10147 0.78530 -0.39300
O 	O 	0.98512 0.06071 0.29170 -0.37800
H 	H 	0.98096 0.77491 0.18482 0.04700
C 	C 	0.98283 0.39227 0.46438 -0.02000
O 	O 	0.99610 0.09916 0.25182 -0.36600
O 	O 	0.99783 0.87997 0.27972 -0.38100
C 	C 	0.55559 0.24489 0.89381 0.30400
C 	C 	0.76037 0.49052 0.90717 0.30900
C 	C 	0.71531 0.31106 0.87932 0.30900
C 	C 	0.60326 0.42140 0.92590 0.28700
C 	C 	0.77793 0.34557 0.93540 0.31000
C 	C 	0.62025 0.27196 0.95464 0.28800
Ni	Ni	0.65348 0.37738 0.89439 1.11300
Ni	Ni	0.69917 0.39745 0.93726 1.12200
Ni	Ni	0.66351 0.26888 0.91679 1.12000
O 	O 	0.56889 0.30389 0.89247 -0.37800
O 	O 	0.59637 0.22856 0.89744 -0.37600
O 	O 	0.77406 0.39607 0.93294 -0.39000
O 	O 	0.74087 0.44545 0.89490 -0.38300
O 	O 	0.73594 0.48100 0.92378 -0.37900
O 	O 	0.60918 0.23880 0.93896 -0.38500
O 	O 	0.67529 0.32701 0.87560 -0.37300
O 	O 	0.72548 0.30110 0.89657 -0.38800
O 	O 	0.66862 0.32722 0.95642 -0.38100
O 	O 	0.62725 0.43408 0.90888 -0.36800
O 	O 	0.62878 0.40967 0.94023 -0.37800
O 	O 	0.73065 0.29028 0.93478 -0.38300
O 	O 	0.65808 0.34266 0.91716 -0.71800
H 	H 	0.61738 0.32505 0.92161 0.15700
C 	C 	0.55199 0.24784 0.62342 0.30600
C 	C 	0.73157 0.34809 0.56336 0.30800
C 	C 	0.63104 0.18226 0.59362 0.31100
C 	C 	0.66188 0.43301 0.58950 0.28700
C 	C 	0.79763 0.31595 0.61643 0.31000
C 	C 	0.73263 0.40144 0.64235 0.28700
Ni	Ni	0.62311 0.29706 0.58671 1.11400
Ni	Ni	0.75247 0.39735 0.60194 1.12100
Ni	Ni	0.67523 0.27282 0.62495 1.12000
O 	O 	0.55331 0.24145 0.60490 -0.37100
O 	O 	0.59940 0.26655 0.63404 -0.38300
O 	O 	0.80734 0.37346 0.61505 -0.38300
O 	O 	0.67950 0.34343 0.56455 -0.37300
O 	O 	0.76457 0.35972 0.57830 -0.38300
O 	O 	0.72444 0.34355 0.64324 -0.38000
O 	O 	0.63916 0.22466 0.58123 -0.38000
O 	O 	0.62401 0.19067 0.61141 -0.37900
O 	O 	0.74593 0.43312 0.62638 -0.38400
O 	O 	0.61544 0.37630 0.58948 -0.37300
O 	O 	0.71604 0.44159 0.58724 -0.37500
O 	O 	0.74446 0.26902 0.61470 -0.39700
O 	O 	0.67664 0.32847 0.60655 -0.71900
H 	H 	0.65898 0.34903 0.61379 0.15700
C 	C 	0.95403 0.88431 0.73734 0.31200
C 	C 	0.12363 0.06363 0.79096 0.30800
C 	C 	0.95067 0.90439 0.79010 0.32600
C 	C 	0.13706 0.06710 0.73746 0.28800
C 	C 	0.96673 0.08634 0.78526 0.33100
C 	C 	0.97416 0.07829 0.73191 0.30600
Ni	Ni	0.05213 0.96296 0.76379 1.10900
Ni	Ni	0.06363 0.09961 0.76178 1.12100
Ni	Ni	0.93683 0.97907 0.76016 1.12000
O 	O 	0.01170 0.91225 0.73985 -0.38400
O 	O 	0.91942 0.89576 0.74843 -0.37600
O 	O 	0.08273 0.00544 0.78946 -0.38100
O 	O 	0.13040 0.10404 0.77782 -0.37800
O 	O 	0.93747 0.01844 0.73541 -0.37700
O 	O 	0.98159 0.89253 0.77802 -0.37600
O 	O 	0.93369 0.94520 0.78630 -0.38300
O 	O 	0.00964 0.11652 0.74510 -0.38100
O 	O 	0.13111 0.02546 0.75040 -0.36900
O 	O 	0.11370 0.10396 0.73964 -0.37900
O 	O 	0.93106 0.04981 0.77219 -0.38300
C 	C 	0.26167 0.73193 0.40659 0.30500
C 	C 	0.35738 0.61909 0.45971 0.30900
C 	C 	0.40975 0.79433 0.43309 0.31100
C 	C 	0.20659 0.54462 0.43589 0.28700
C 	C 	0.44541 0.66480 0.40441 0.31100
C 	C 	0.29556 0.58536 0.38105 0.28700
Ni	Ni	0.29600 0.67926 0.44048 1.11400
Ni	Ni	0.32721 0.58117 0.42036 1.12000
Ni	Ni	0.36248 0.71013 0.40039 1.12100
O 	O 	0.27506 0.73796 0.42476 -0.37000
O 	O 	0.29170 0.71908 0.39407 -0.38200
O 	O 	0.40165 0.60723 0.40539 -0.38400
O 	O 	0.31204 0.62829 0.46061 -0.37200
O 	O 	0.37802 0.61388 0.44348 -0.38500
O 	O 	0.34161 0.64288 0.38041 -0.38000
O 	O 	0.38044 0.75030 0.44527 -0.38000
O 	O 	0.39081 0.78944 0.41579 -0.37800
O 	O 	0.28285 0.55035 0.39632 -0.38500
O 	O 	0.21376 0.60136 0.43809 -0.37300
O 	O 	0.25235 0.53467 0.43619 -0.37600
O 	O 	0.43674 0.71166 0.40789 -0.39700
O 	O 	0.31567 0.65129 0.41870 -0.71800
H 	H 	0.27758 0.63241 0.41220 0.15500
C 	C 	0.45747 0.72286 0.12418 0.30800
C 	C 	0.27793 0.66862 0.06421 0.30900
C 	C 	0.39674 0.82190 0.10319 0.30900
C 	C 	0.33105 0.56927 0.07885 0.29200
C 	C 	0.22458 0.69655 0.12102 0.31200
C 	C 	0.26814 0.57889 0.13959 0.30500
Ni	Ni	0.38674 0.70521 0.08752 1.11400
Ni	Ni	0.25350 0.60968 0.10086 1.12100
Ni	Ni	0.34118 0.71433 0.12886 1.12100
O 	O 	0.45783 0.74057 0.10650 -0.37000
O 	O 	0.41034 0.70238 0.13500 -0.38200
O 	O 	0.20744 0.63799 0.11706 -0.38600
O 	O 	0.33243 0.67954 0.06394 -0.37500
O 	O 	0.25192 0.66454 0.08021 -0.39100
O 	O 	0.28419 0.63776 0.14390 -0.38100
O 	O 	0.38294 0.78694 0.08823 -0.37600
O 	O 	0.40161 0.80028 0.11949 -0.38000
O 	O 	0.25188 0.55680 0.12237 -0.38300
O 	O 	0.38018 0.61865 0.08454 -0.37800
O 	O 	0.27788 0.56273 0.08221 -0.37600
O 	O 	0.28045 0.73760 0.12189 -0.39500
O 	O 	0.33249 0.66736 0.10695 -0.72000
H 	H 	0.34506 0.63844 0.11183 0.16300
C 	C 	0.03903 0.10403 0.24057 0.28600
C 	C 	0.86963 0.91838 0.29551 0.32700
C 	C 	0.04159 0.09992 0.29084 0.31900
C 	C 	0.85708 0.91752 0.24213 0.28600
C 	C 	0.03323 0.91982 0.29224 0.30100
C 	C 	0.01893 0.90756 0.23735 0.29700
Ni	Ni	0.93584 0.02218 0.26769 1.11100
Ni	Ni	0.93401 0.88966 0.26702 1.12100
Ni	Ni	0.05642 0.01538 0.26393 1.11700
O 	O 	0.05769 0.06270 0.24064 -0.38400
O 	O 	0.86606 0.95800 0.28405 -0.37000
O 	O 	0.90853 0.90039 0.29285 -0.38800
O 	O 	0.06023 0.94685 0.24906 -0.37800
O 	O 	0.07399 0.09522 0.27757 -0.38400
O 	O 	0.96300 0.87552 0.24247 -0.37900
O 	O 	0.88065 0.97826 0.24510 -0.36500
O 	O 	0.85856 0.88010 0.25527 -0.37600
O 	O 	0.05982 0.97993 0.28892 -0.38400
O 	O 	0.97351 0.97638 0.26207 -0.71400
H 	H 	0.96972 0.97505 0.24835 0.15600
C 	C 	0.07373 0.16279 0.23045 -0.08100
C 	C 	0.09249 0.21952 0.23978 0.01500
C 	C 	0.12411 0.27563 0.23019 -0.06500
C 	C 	0.13693 0.27564 0.21114 0.02600
C 	C 	0.11940 0.21894 0.20189 -0.06400
C 	C 	0.08816 0.16269 0.21156 0.01200
C 	C 	0.16559 0.33473 0.20065 0.00200
C 	C 	0.21896 0.35338 0.19137 -0.03900
C 	C 	0.24462 0.40807 0.18078 -0.03200
C 	C 	0.21724 0.44453 0.17948 -0.00500
C 	C 	0.16501 0.42703 0.18925 -0.03200
C 	C 	0.13918 0.37229 0.19976 -0.03900
C 	C 	0.23811 0.49473 0.16620 0.04500
C 	C 	0.25325 0.53470 0.15445 -0.09700
H 	H 	0.08261 0.22010 0.25448 0.03800
H 	H 	0.13807 0.31911 0.23751 0.04700
H 	H 	0.12902 0.21843 0.18717 0.04700
H 	H 	0.07422 0.11916 0.20428 0.03200
H 	H 	0.24009 0.32514 0.19216 0.04100
H 	H 	0.28492 0.42119 0.17321 0.04100
H 	H 	0.14345 0.45481 0.18823 0.04100
H 	H 	0.09806 0.35840 0.20690 0.04000
C 	C 	0.81896 0.89007 0.22572 -0.08000
C 	C 	0.83748 0.91760 0.20805 0.01400
C 	C 	0.80008 0.89379 0.19261 -0.06300
C 	C 	0.74352 0.84270 0.19474 0.02700
C 	C 	0.72559 0.81416 0.21233 -0.06300
C 	C 	0.76326 0.83755 0.22773 0.01500
C 	C 	0.70141 0.82241 0.17900 0.00300
C 	C 	0.67204 0.75983 0.17335 -0.03900
C 	C 	0.62681 0.73921 0.16012 -0.03200
C 	C 	0.61108 0.78109 0.15236 -0.00500
C 	C 	0.64250 0.84414 0.15724 -0.03100
C 	C 	0.68734 0.86473 0.17054 -0.03900
C 	C 	0.55806 0.75840 0.14152 0.04600
C 	C 	0.51264 0.74111 0.13315 -0.09800
H 	H 	0.88070 0.95765 0.20631 0.03500
H 	H 	0.81462 0.91575 0.17906 0.04800
H 	H 	0.68193 0.77494 0.21417 0.04800
H 	H 	0.74850 0.81594 0.24130 0.03800
H 	H 	0.68313 0.72693 0.17957 0.04100
H 	H 	0.60283 0.69040 0.15639 0.04100
H 	H 	0.63063 0.87680 0.15127 0.04200
H 	H 	0.70971 0.91311 0.17477 0.04200
C 	C 	0.18187 0.71383 0.12818 -0.09200
C 	C 	0.18832 0.77221 0.12369 0.01900
C 	C 	0.15940 0.79665 0.13423 -0.06700
C 	C 	0.12396 0.76301 0.14939 0.02800
C 	C 	0.11331 0.70234 0.15279 -0.06700
C 	C 	0.14197 0.67772 0.14216 0.01800
C 	C 	0.10463 0.79402 0.16308 -0.00000
C 	C 	0.04480 0.76915 0.16719 -0.03500
C 	C 	0.02714 0.79519 0.18146 -0.04300
C 	C 	0.06915 0.84626 0.19165 -0.00000
C 	C 	0.12872 0.87226 0.18719 -0.03500
C 	C 	0.14645 0.84624 0.17298 -0.03700
C 	C 	0.05154 0.86914 0.20752 0.04100
C 	C 	0.03686 0.88738 0.22104 -0.09600
H 	H 	0.21816 0.80001 0.11268 0.03300
H 	H 	0.16681 0.84296 0.13121 0.04800
H 	H 	0.08543 0.67562 0.16431 0.04800
H 	H 	0.13618 0.63235 0.14564 0.03800
H 	H 	0.01215 0.72907 0.15958 0.03800
H 	H 	0.16142 0.91173 0.19501 0.04300
H 	H 	0.19276 0.86564 0.16997 0.04100
C 	C 	0.50130 0.67747 0.39586 -0.09200
C 	C 	0.55414 0.72548 0.40307 0.01900
C 	C 	0.60511 0.75102 0.39221 -0.06700
C 	C 	0.60366 0.72882 0.37403 0.02800
C 	C 	0.55222 0.67712 0.36748 -0.06700
C 	C 	0.50127 0.65135 0.37840 0.01800
C 	C 	0.65330 0.76402 0.36117 0.00300
C 	C 	0.68335 0.73571 0.35321 -0.04000
C 	C 	0.72853 0.76834 0.34034 -0.03100
C 	C 	0.74392 0.82940 0.33535 -0.00700
C 	C 	0.71445 0.85798 0.34344 -0.03100
C 	C 	0.66928 0.82544 0.35630 -0.03900
C 	C 	0.78865 0.86197 0.32147 0.05100
C 	C 	0.82577 0.88845 0.30971 -0.10600
H 	H 	0.55489 0.74538 0.41665 0.03400
H 	H 	0.64497 0.79001 0.39756 0.04900
H 	H 	0.55085 0.65905 0.35356 0.04800
H 	H 	0.46085 0.61402 0.37272 0.03500
H 	H 	0.67145 0.68841 0.35689 0.04100
H 	H 	0.75118 0.74596 0.33413 0.04100
H 	H 	0.72606 0.90513 0.33964 0.04200
H 	H 	0.64612 0.84759 0.36227 0.04200
C 	C 	0.26749 0.55404 0.36353 -0.08100
C 	C 	0.20612 0.52455 0.36216 0.01500
C 	C 	0.17622 0.47383 0.35015 -0.06300
C 	C 	0.20759 0.45267 0.33932 0.02600
C 	C 	0.26910 0.48741 0.33884 -0.06500
C 	C 	0.29898 0.53823 0.35085 0.01600
C 	C 	0.17698 0.38967 0.33116 0.00300
C 	C 	0.18728 0.34296 0.33835 -0.04000
C 	C 	0.15629 0.28241 0.33133 -0.03100
C 	C 	0.11471 0.26802 0.31712 -0.00800
C 	C 	0.10408 0.31448 0.30998 -0.03200
C 	C 	0.13501 0.37512 0.31701 -0.04100
C 	C 	0.08686 0.20715 0.30871 0.04700
C 	C 	0.06509 0.15720 0.30106 -0.10900
H 	H 	0.18140 0.53735 0.37160 0.02900
H 	H 	0.12869 0.44828 0.35028 0.04700
H 	H 	0.29376 0.47255 0.33010 0.04700
H 	H 	0.34647 0.56154 0.35151 0.03400
H 	H 	0.21902 0.35354 0.34946 0.04200
H 	H 	0.16504 0.24686 0.33682 0.04000
H 	H 	0.07236 0.30381 0.29885 0.03800
H 	H 	0.12646 0.41072 0.31146 0.04000
C 	C 	0.04868 0.89680 0.30914 -0.08400
C 	C 	0.05972 0.92956 0.32607 0.01700
C 	C 	0.07660 0.90910 0.34195 -0.06400
C 	C 	0.08304 0.85599 0.34099 0.02700
C 	C 	0.07079 0.82251 0.32416 -0.06400
C 	C 	0.05347 0.84266 0.30833 0.01500
C 	C 	0.10695 0.83815 0.35711 0.00300
C 	C 	0.07666 0.77739 0.36426 -0.04000
C 	C 	0.10383 0.75735 0.37725 -0.03200
C 	C 	0.16118 0.79803 0.38328 -0.00500
C 	C 	0.18970 0.85998 0.37722 -0.03200
C 	C 	0.16281 0.87997 0.36414 -0.03900
C 	C 	0.19423 0.77390 0.39281 0.04500
C 	C 	0.22393 0.75431 0.39975 -0.10000
H 	H 	0.05534 0.97090 0.32693 0.04000
H 	H 	0.08549 0.93501 0.35490 0.04800
H 	H 	0.07606 0.78173 0.32322 0.04700
H 	H 	0.04518 0.81703 0.29535 0.03700
H 	H 	0.03307 0.74506 0.35920 0.04000
H 	H 	0.08131 0.70947 0.38196 0.03900
H 	H 	0.23394 0.89180 0.38189 0.04200
H 	H 	0.18645 0.92709 0.35884 0.04200
C 	C 	0.61943 0.12134 0.58687 -0.09200
C 	C 	0.56114 0.07589 0.58330 0.02200
C 	C 	0.54824 0.03551 0.56808 -0.07100
C 	C 	0.59376 0.03966 0.55675 0.04600
C 	C 	0.65206 0.07695 0.56248 -0.07100
C 	C 	0.66486 0.11722 0.57771 0.02300
C 	C 	0.58135 0.01703 0.53779 -0.02800
C 	C 	0.57024 0.99781 0.52196 -0.00200
C 	C 	0.55607 0.97653 0.50333 0.00100
C 	C 	0.54231 0.95789 0.48753 -0.03000
C 	C 	0.52317 0.93349 0.46897 0.04700
C 	C 	0.47810 0.93967 0.46040 -0.07200
C 	C 	0.44593 0.89991 0.44573 0.02200
C 	C 	0.45808 0.85316 0.43989 -0.09100
C 	C 	0.50908 0.85403 0.44642 0.02300
C 	C 	0.54123 0.89369 0.46110 -0.07100
H 	H 	0.52563 0.07687 0.59080 0.03300
H 	H 	0.50291 0.00500 0.56418 0.05100
H 	H 	0.68758 0.07876 0.55422 0.05100
H 	H 	0.71019 0.15044 0.58087 0.03100
H 	H 	0.46499 0.97177 0.46603 0.05100
H 	H 	0.40770 0.90100 0.44037 0.03300
H 	H 	0.52007 0.81943 0.44155 0.03300
H 	H 	0.57724 0.88998 0.46725 0.05200
C 	C 	0.75288 0.33883 0.54531 -0.09100
C 	C 	0.77749 0.29964 0.54420 0.02500
C 	C 	0.80847 0.30008 0.52823 -0.07300
C 	C 	0.81524 0.33985 0.51332 0.04800
C 	C 	0.78664 0.37524 0.51379 -0.07300
C 	C 	0.75536 0.37462 0.52974 0.02200
C 	C 	0.85899 0.35215 0.49926 -0.03100
C 	C 	0.89574 0.36207 0.48757 0.00300
C 	C 	0.94152 0.37674 0.47469 -0.00400
C 	C 	0.03457 0.41483 0.45294 0.03600
C 	C 	0.08175 0.40763 0.45912 -0.06800
C 	C 	0.13803 0.44583 0.45197 0.01700
C 	C 	0.14734 0.49159 0.43866 -0.08200
C 	C 	0.09886 0.49328 0.43087 0.01600
C 	C 	0.04264 0.45508 0.43804 -0.06700
H 	H 	0.77461 0.27072 0.55600 0.03600
H 	H 	0.82980 0.27197 0.52787 0.05200
H 	H 	0.79115 0.40564 0.50222 0.05200
H 	H 	0.73586 0.40445 0.53038 0.03400
H 	H 	0.07566 0.37568 0.47039 0.04900
H 	H 	0.17489 0.44307 0.45782 0.03800
H 	H 	0.10528 0.52713 0.42017 0.03100
H 	H 	0.00614 0.45999 0.43290 0.04800
C 	C 	0.38361 0.61139 0.47697 -0.09200
C 	C 	0.39832 0.65412 0.49173 0.02400
C 	C 	0.42960 0.65082 0.50719 -0.07300
C 	C 	0.44589 0.60460 0.50798 0.04800
C 	C 	0.42939 0.56071 0.49357 -0.07400
C 	C 	0.39848 0.56412 0.47812 0.02500
C 	C 	0.48155 0.60327 0.52311 -0.03100
C 	C 	0.51132 0.59883 0.53522 0.00100
C 	C 	0.54596 0.58972 0.54862 -0.00100
C 	C 	0.57488 0.57826 0.55935 -0.02900
C 	C 	0.60802 0.55984 0.57125 0.04500
C 	C 	0.58084 0.52238 0.58688 -0.07000
C 	C 	0.60273 0.48561 0.59443 0.01800
C 	C 	0.65169 0.48587 0.58630 -0.08300
C 	C 	0.68332 0.52969 0.57234 0.01900
C 	C 	0.66144 0.56654 0.56483 -0.07000
H 	H 	0.38720 0.69093 0.49096 0.03200
H 	H 	0.44199 0.68475 0.51834 0.05200
H 	H 	0.44148 0.52459 0.49417 0.05200
H 	H 	0.38684 0.53057 0.46689 0.02700
H 	H 	0.54030 0.51811 0.59225 0.05000
H 	H 	0.57917 0.45366 0.60570 0.03300
H 	H 	0.72214 0.53171 0.56626 0.03800
H 	H 	0.68354 0.59657 0.55303 0.05100
C 	C 	0.84355 0.30427 0.62400 -0.09200
C 	C 	0.87201 0.33315 0.64074 0.01800
C 	C 	0.90065 0.30833 0.65129 -0.06700
C 	C 	0.90159 0.25488 0.64507 0.02900
C 	C 	0.87873 0.23026 0.62736 -0.06700
C 	C 	0.84967 0.25474 0.61690 0.02000
C 	C 	0.91835 0.21979 0.65809 0.00100
C 	C 	0.97422 0.24844 0.66638 -0.03600
C 	C 	0.98753 0.21748 0.68032 -0.02900
C 	C 	0.94516 0.15769 0.68600 -0.00500
C 	C 	0.89014 0.12818 0.67726 -0.03200
C 	C 	0.87671 0.15908 0.66338 -0.03800
C 	C 	0.95622 0.12887 0.70185 0.04600
C 	C 	0.96465 0.10526 0.71540 -0.09500
H 	H 	0.86813 0.37182 0.64628 0.03600
H 	H 	0.91892 0.32832 0.66482 0.04800
H 	H 	0.88057 0.18999 0.62220 0.04800
H 	H 	0.82880 0.23281 0.60381 0.03200
H 	H 	0.00681 0.29509 0.66233 0.03700
H 	H 	0.03023 0.24055 0.68699 0.03800
H 	H 	0.85719 0.08197 0.68158 0.04300
H 	H 	0.83337 0.13660 0.65714 0.04100
C 	C 	0.18041 0.08188 0.72243 -0.08300
C 	C 	0.18181 0.03402 0.71224 0.02100
C 	C 	0.22167 0.04835 0.69751 -0.06700
C 	C 	0.26076 0.11066 0.69296 0.02800
C 	C 	0.25952 0.15842 0.70325 -0.06600
C 	C 	0.21948 0.14413 0.71786 0.01800
C 	C 	0.30494 0.12608 0.67806 0.00200
C 	C 	0.30896 0.16555 0.66329 -0.03900
C 	C 	0.35575 0.18707 0.65065 -0.03300
C 	C 	0.39842 0.16883 0.65260 -0.00500
C 	C 	0.39289 0.12707 0.66678 -0.03200
C 	C 	0.34642 0.10586 0.67949 -0.03900
C 	C 	0.45073 0.19727 0.64130 0.04500
C 	C 	0.49611 0.22079 0.63263 -0.09900
H 	H 	0.15160 0.98583 0.71557 0.02500
H 	H 	0.22223 0.01111 0.68965 0.04900
H 	H 	0.29006 0.20663 0.70005 0.04800
H 	H 	0.21920 0.18147 0.72574 0.03500
H 	H 	0.27678 0.18086 0.66192 0.04000
H 	H 	0.35957 0.21911 0.63968 0.04000
H 	H 	0.42563 0.11259 0.66832 0.04200
H 	H 	0.34378 0.07542 0.69081 0.04100
C 	C 	0.74197 0.43667 0.65973 -0.08100
C 	C 	0.79012 0.44904 0.67117 0.01600
C 	C 	0.81283 0.49976 0.68344 -0.06500
C 	C 	0.78717 0.53801 0.68444 0.02700
C 	C 	0.73524 0.52143 0.67454 -0.06300
C 	C 	0.71264 0.47082 0.66227 0.01500
C 	C 	0.81828 0.59896 0.69389 0.00300
C 	C 	0.79117 0.61325 0.70853 -0.04000
C 	C 	0.81887 0.67265 0.71651 -0.03200
C 	C 	0.87382 0.71813 0.70990 -0.00500
C 	C 	0.90117 0.70387 0.69538 -0.03200
C 	C 	0.87349 0.64452 0.68737 -0.03900
C 	C 	0.90324 0.77841 0.71868 0.04600
C 	C 	0.92708 0.82775 0.72669 -0.09900
H 	H 	0.81269 0.42247 0.66950 0.03400
H 	H 	0.85212 0.51124 0.69141 0.04700
H 	H 	0.71441 0.54994 0.67548 0.04800
H 	H 	0.67485 0.46102 0.65371 0.03100
H 	H 	0.74854 0.57851 0.71364 0.04100
H 	H 	0.79767 0.68323 0.72784 0.04200
H 	H 	0.94380 0.73867 0.69028 0.04100
H 	H 	0.89452 0.63418 0.67593 0.04200
C 	C 	0.83346 0.35197 0.94227 -0.09100
C 	C 	0.88605 0.39385 0.93338 0.02300
C 	C 	0.93925 0.41785 0.94303 -0.07000
C 	C 	0.94012 0.39998 0.96157 0.04300
C 	C 	0.88876 0.35236 0.96958 -0.07000
C 	C 	0.83549 0.32819 0.95992 0.02100
C 	C 	0.98971 0.43814 0.97328 -0.02000
C 	C 	0.03126 0.47014 0.98308 -0.01000
C 	C 	0.07837 0.50915 0.99486 0.00300
C 	C 	0.11723 0.54299 0.00529 -0.03400
C 	C 	0.16194 0.58323 0.01826 0.04700
C 	C 	0.21635 0.58524 0.01859 -0.07500
C 	C 	0.25672 0.61779 0.03279 0.02200
C 	C 	0.24230 0.64746 0.04699 -0.09500
C 	C 	0.18937 0.64886 0.04583 0.02000
C 	C 	0.14932 0.61673 0.03154 -0.07400
H 	H 	0.88515 0.41129 0.91954 0.03400
H 	H 	0.97905 0.45359 0.93656 0.05100
H 	H 	0.88931 0.33720 0.98377 0.05100
H 	H 	0.79528 0.29491 0.96678 0.03700
H 	H 	0.22668 0.56001 0.00823 0.05000
H 	H 	0.29787 0.61731 0.03325 0.03700
H 	H 	0.17831 0.67290 0.05639 0.03500
H 	H 	0.10766 0.61617 0.03117 0.05100
C 	C 	0.58684 0.24070 0.97176 -0.08200
C 	C 	0.54899 0.17599 0.97193 0.01700
C 	C 	0.52499 0.14527 0.98879 -0.07000
C 	C 	0.53822 0.17879 0.00557 0.04500
C 	C 	0.57264 0.24366 0.00532 -0.07000
C 	C 	0.59656 0.27462 0.98847 0.01800
C 	C 	0.52108 0.14603 0.02313 -0.03000
C 	C 	0.50586 0.11671 0.03748 0.00100
C 	C 	0.48828 0.07972 0.05378 -0.00200
C 	C 	0.47312 0.04547 0.06712 -0.02700
C 	C 	0.45449 0.00099 0.08215 0.03800
C 	C 	0.39442 0.96188 0.08530 -0.06600
C 	C 	0.37504 0.90552 0.09471 0.02100
C 	C 	0.41570 0.88805 0.10097 -0.08800
C 	C 	0.47584 0.93112 0.10012 0.01800
C 	C 	0.49523 0.98745 0.09064 -0.06300
H 	H 	0.53974 0.14916 0.95916 0.03800
H 	H 	0.49767 0.09513 0.98886 0.05100
H 	H 	0.58232 0.26997 0.01822 0.05100
H 	H 	0.62396 0.32472 0.98852 0.03500
H 	H 	0.36259 0.97269 0.07917 0.05000
H 	H 	0.32841 0.87316 0.09571 0.03400
H 	H 	0.50764 0.91865 0.10527 0.03500
H 	H 	0.54185 0.01815 0.08866 0.04800
C 	C 	0.55377 0.43150 0.92989 -0.08500
C 	C 	0.49909 0.38002 0.93410 0.01800
C 	C 	0.45963 0.38719 0.94562 -0.07000
C 	C 	0.47468 0.44589 0.95285 0.04500
C 	C 	0.52530 0.49842 0.94636 -0.07100
C 	C 	0.56476 0.49124 0.93483 0.02100
C 	C 	0.44623 0.45046 0.96953 -0.02900
C 	C 	0.42296 0.45517 0.98350 -0.00100
C 	C 	0.39873 0.46170 0.00041 -0.00000
C 	C 	0.38045 0.46882 0.01514 -0.03000
C 	C 	0.36132 0.47985 0.03290 0.04500
C 	C 	0.30777 0.47950 0.03426 -0.07200
C 	C 	0.29468 0.50263 0.05032 0.01700
C 	C 	0.33585 0.52777 0.06495 -0.08400
C 	C 	0.38681 0.52234 0.06427 0.01700
C 	C 	0.39955 0.49866 0.04826 -0.07100
H 	H 	0.48952 0.33377 0.92993 0.02900
H 	H 	0.41972 0.34648 0.95014 0.05100
H 	H 	0.53647 0.54426 0.95146 0.05100
H 	H 	0.60630 0.53153 0.93126 0.03200
H 	H 	0.27751 0.46404 0.02255 0.05000
H 	H 	0.25431 0.50472 0.05086 0.03600
H 	H 	0.41800 0.53949 0.07571 0.03600
H 	H 	0.44051 0.49780 0.04745 0.05100
C 	C 	0.74976 0.30464 0.86415 -0.09000
C 	C 	0.72155 0.25965 0.85019 0.01700
C 	C 	0.75389 0.24078 0.83900 -0.06600
C 	C 	0.81469 0.26712 0.84165 0.02800
C 	C 	0.84343 0.31568 0.85455 -0.06600
C 	C 	0.81112 0.33440 0.86574 0.02000
C 	C 	0.84718 0.24006 0.83227 0.00300
C 	C 	0.87088 0.20971 0.84284 -0.03900
C 	C 	0.89961 0.18178 0.83392 -0.03100
C 	C 	0.90493 0.18411 0.81439 -0.00600
C 	C 	0.88225 0.21540 0.80385 -0.03100
C 	C 	0.85342 0.24324 0.81275 -0.03900
C 	C 	0.92939 0.15037 0.80502 0.05200
C 	C 	0.94787 0.12145 0.79649 -0.10400
H 	H 	0.67424 0.23660 0.84878 0.03500
H 	H 	0.73138 0.20377 0.82890 0.04800
H 	H 	0.89050 0.33716 0.85643 0.04800
H 	H 	0.83342 0.36977 0.87633 0.03500
H 	H 	0.86621 0.20694 0.85793 0.04200
H 	H 	0.91680 0.15747 0.84216 0.04200
H 	H 	0.88607 0.21724 0.78873 0.04300
H 	H 	0.83553 0.26679 0.80448 0.04100
C 	C 	0.16842 0.08093 0.80578 -0.08700
C 	C 	0.15384 0.04736 0.82266 0.01600
C 	C 	0.19772 0.05616 0.83545 -0.06500
C 	C 	0.25659 0.09907 0.83163 0.02700
C 	C 	0.27095 0.13472 0.81518 -0.06500
C 	C 	0.22712 0.12568 0.80231 0.01600
C 	C 	0.30326 0.10665 0.84481 0.00300
C 	C 	0.30297 0.12554 0.86331 -0.03900
C 	C 	0.35052 0.13959 0.87514 -0.03200
C 	C 	0.39890 0.13536 0.86851 -0.00500
C 	C 	0.39735 0.11232 0.85046 -0.03200
C 	C 	0.34967 0.09791 0.83865 -0.03900
C 	C 	0.45401 0.16755 0.87835 0.04500
C 	C 	0.50055 0.19966 0.88592 -0.09900
H 	H 	0.10866 0.01332 0.82565 0.03900
H 	H 	0.18607 0.02886 0.84818 0.04700
H 	H 	0.31617 0.16882 0.81226 0.04800
H 	H 	0.23910 0.15196 0.78939 0.03800
H 	H 	0.26705 0.13169 0.86830 0.04100
H 	H 	0.35124 0.15721 0.88908 0.04000
H 	H 	0.43441 0.10866 0.84523 0.04100
H 	H 	0.34970 0.08194 0.82453 0.04100
C 	C 	0.79976 0.55447 0.90081 -0.09100
C 	C 	0.84255 0.56556 0.88723 0.01800
C 	C 	0.86933 0.62180 0.87748 -0.06600
C 	C 	0.85377 0.66757 0.88129 0.02700
C 	C 	0.81527 0.65888 0.89610 -0.06700
C 	C 	0.78837 0.60253 0.90585 0.01700
C 	C 	0.87089 0.71973 0.86816 0.00300
C 	C 	0.82767 0.72408 0.85765 -0.03900
C 	C 	0.84382 0.76652 0.84292 -0.03100
C 	C 	0.90319 0.80489 0.83859 -0.00700
C 	C 	0.94648 0.80302 0.84970 -0.03100
C 	C 	0.93040 0.76064 0.86447 -0.04000
C 	C 	0.91945 0.84125 0.82171 0.05000
C 	C 	0.93331 0.87052 0.80735 -0.10600
H 	H 	0.85275 0.52934 0.88354 0.03500
H 	H 	0.89967 0.62841 0.86626 0.04800
H 	H 	0.80390 0.69447 0.89941 0.04800
H 	H 	0.75601 0.59491 0.91648 0.03800
H 	H 	0.78160 0.69274 0.86038 0.04100
H 	H 	0.81014 0.76796 0.83445 0.04100
H 	H 	0.99251 0.83291 0.84651 0.04000
H 	H 	0.96409 0.75807 0.87260 0.04100
