data_crystal

_cell_length_a 18.71244
_cell_length_b 16.23203
_cell_length_c 47.85177
_cell_angle_alpha 90.77041
_cell_angle_beta  91.52254
_cell_angle_gamma 111.16880

_symmetry_space_group_name_	'P 1'
_symmetry_space_group_name_H-M	'P 1'

loop_
_symmetry_equiv_pos_as_xyz
  x,y,z

loop_
_atom_site_label
_atom_site_type_symbol
_atom_site_fract_x
_atom_site_fract_y
_atom_site_fract_z
_atom_site_charge
Ni	Ni	0.01640 0.95086 0.73461 1.09500
O 	O 	0.01679 0.85019 0.70888 -0.71600
Ni	Ni	0.05215 0.91585 0.67402 1.09800
O 	O 	0.12825 0.96716 0.74325 -0.39500
O 	O 	0.03935 0.16473 0.72730 -0.41200
O 	O 	0.06384 0.81363 0.65247 -0.38400
O 	O 	0.03147 0.00959 0.69771 -0.71700
O 	O 	0.02639 0.05683 0.76015 -0.37500
O 	O 	0.10831 0.00380 0.64427 -0.38300
H 	H 	0.05369 0.82309 0.71544 0.15400
H 	H 	0.98302 0.01708 0.69230 0.15900
C 	C 	0.00654 0.73618 0.65101 0.25800
C 	C 	0.01382 0.12766 0.75152 0.26200
C 	C 	0.11875 0.54398 0.45811 0.29600
O 	O 	0.10867 0.63782 0.99616 -0.37500
C 	C 	0.07926 0.58475 0.97410 0.27300
O 	O 	0.12160 0.58014 0.95290 -0.41200
O 	O 	0.98209 0.07410 0.26908 -0.37000
O 	O 	0.09510 0.16072 0.25021 -0.41100
Ni	Ni	0.07044 0.19227 0.20965 1.05900
O 	O 	0.11213 0.09964 0.19503 -0.41900
C 	C 	0.09648 0.06682 0.16940 0.29000
C 	C 	0.04619 0.14378 0.27078 0.25600
O 	O 	0.06991 0.24072 0.16994 -0.40400
C 	C 	0.11069 0.35704 0.03517 0.00600
C 	C 	0.07258 0.29858 0.05578 -0.05800
C 	C 	0.06439 0.33069 0.08241 0.01500
C 	C 	0.09364 0.42266 0.08821 0.01100
C 	C 	0.08672 0.45450 0.11507 -0.05700
C 	C 	0.05440 0.39530 0.13634 -0.00400
C 	C 	0.02707 0.30379 0.13086 -0.06300
H 	H 	0.11729 0.33084 0.01487 0.03900
H 	H 	0.05278 0.42055 0.15730 0.01700
C 	C 	0.15780 0.91133 0.12719 -0.00400
C 	C 	0.21837 0.97194 0.11257 0.03500
C 	C 	0.24503 0.94359 0.08845 -0.03400
C 	C 	0.24832 0.06111 0.12136 -0.08100
C 	C 	0.21355 0.09120 0.14272 0.02200
C 	C 	0.14901 0.03239 0.15554 -0.09900
C 	C 	0.12447 0.94178 0.14901 0.00200
H 	H 	0.29073 0.99035 0.07698 0.03600
H 	H 	0.29608 0.10788 0.11080 0.04200
H 	H 	0.23348 0.16120 0.14795 0.02400
C 	C 	0.11426 0.28135 0.34970 0.00800
C 	C 	0.13206 0.33144 0.37469 -0.01100
C 	C 	0.04962 0.20336 0.34753 -0.05000
C 	C 	0.02828 0.15774 0.32194 -0.01300
C 	C 	0.07167 0.18932 0.29816 -0.06600
H 	H 	0.09583 0.30982 0.39252 0.04600
H 	H 	0.01496 0.17886 0.36555 0.04100
H 	H 	0.97749 0.09822 0.32056 0.05300
C 	C 	0.07501 0.74794 0.29933 0.02700
C 	C 	0.00060 0.74140 0.30682 -0.02900
C 	C 	0.94818 0.74676 0.28617 0.00900
C 	C 	0.13026 0.75238 0.32029 -0.03500
H 	H 	0.89210 0.74539 0.29200 0.03900
H 	H 	0.18746 0.75728 0.31471 0.01700
C 	C 	0.03949 0.48936 0.46291 -0.06300
C 	C 	0.98101 0.58321 0.63418 0.01400
H 	H 	0.92818 0.45167 0.61675 0.04000
H 	H 	0.97770 0.56088 0.65551 0.01400
C 	C 	0.99792 0.54121 0.97126 -0.02200
C 	C 	0.97917 0.17197 0.77095 -0.04000
C 	C 	0.00638 0.18674 0.79889 -0.05300
H 	H 	0.04058 0.20743 0.85385 0.03800
H 	H 	0.06089 0.18108 0.80464 0.05400
Ni	Ni	0.75194 0.32745 0.92048 1.09700
O 	O 	0.67314 0.28657 0.88817 -0.70700
Ni	Ni	0.58498 0.30980 0.90474 1.10000
O 	O 	0.83225 0.29649 0.89877 -0.36700
O 	O 	0.74918 0.15660 0.88833 -0.40900
O 	O 	0.79140 0.45011 0.90249 -0.36900
Ni	Ni	0.64120 0.16059 0.87925 1.06600
O 	O 	0.80881 0.50533 0.95393 -0.40300
O 	O 	0.60795 0.12536 0.91902 -0.41300
O 	O 	0.51713 0.27658 0.86940 -0.37400
O 	O 	0.66010 0.33746 0.93893 -0.70000
O 	O 	0.82773 0.37425 0.95328 -0.39300
O 	O 	0.50861 0.36379 0.91975 -0.35900
O 	O 	0.57784 0.44424 0.95719 -0.40400
Ni	Ni	0.69147 0.46141 0.95156 1.06800
H 	H 	0.69011 0.32135 0.87115 0.15200
H 	H 	0.64265 0.29557 0.95436 0.16300
C 	C 	0.54200 0.12556 0.92759 0.28700
O 	O 	0.69338 0.49932 0.91102 -0.42000
C 	C 	0.81215 0.22384 0.88326 0.27700
C 	C 	0.51351 0.20628 0.85444 0.27400
C 	C 	0.74642 0.49283 0.89438 0.26200
C 	C 	0.52746 0.43368 0.93661 0.28700
C 	C 	0.85021 0.45770 0.96104 0.29200
O 	O 	0.51809 0.19008 0.92101 -0.36100
O 	O 	0.53226 0.14316 0.86605 -0.41100
Ni	Ni	0.59448 0.26897 0.49436 1.09900
O 	O 	0.69641 0.30039 0.47454 -0.69900
Ni	Ni	0.76344 0.27553 0.50429 1.09800
O 	O 	0.55024 0.33566 0.46699 -0.37300
O 	O 	0.65393 0.46351 0.47338 -0.40300
O 	O 	0.54254 0.15776 0.46879 -0.36500
Ni	Ni	0.74439 0.42356 0.46270 1.06800
O 	O 	0.49957 0.09324 0.52318 -0.41100
O 	O 	0.80632 0.49772 0.49653 -0.39200
O 	O 	0.87118 0.32884 0.48741 -0.36900
O 	O 	0.65801 0.23186 0.52221 -0.69700
O 	O 	0.49678 0.23193 0.51671 -0.37500
O 	O 	0.81009 0.22818 0.53684 -0.37000
O 	O 	0.71779 0.09105 0.53128 -0.41000
Ni	Ni	0.61209 0.10428 0.52627 1.06500
H 	H 	0.69090 0.25985 0.45831 0.15500
H 	H 	0.65939 0.26191 0.54047 0.15200
C 	C 	0.82614 0.46494 0.51913 0.30000
O 	O 	0.61543 0.08128 0.48477 -0.41800
C 	C 	0.58262 0.42147 0.46437 0.26600
C 	C 	0.89141 0.39381 0.46923 0.27200
C 	C 	0.56165 0.08720 0.46791 0.29400
C 	C 	0.77366 0.14872 0.54640 0.27300
C 	C 	0.47459 0.15699 0.53036 0.27000
O 	O 	0.78259 0.38740 0.52754 -0.40400
O 	O 	0.84069 0.40335 0.45095 -0.40500
O 	O 	0.98169 0.86605 0.76709 -0.35800
O 	O 	0.87866 0.77211 0.74115 -0.40900
Ni	Ni	0.91677 0.76002 0.70101 1.06600
O 	O 	0.86580 0.84476 0.68636 -0.40800
O 	O 	0.18838 0.10019 0.67690 -0.41600
Ni	Ni	0.10973 0.12729 0.70226 1.06700
C 	C 	0.88812 0.88842 0.66328 0.28200
O 	O 	0.16919 0.11531 0.73725 -0.39900
C 	C 	0.92389 0.78973 0.76395 0.27000
C 	C 	0.18427 0.04422 0.74266 0.29600
C 	C 	0.17191 0.07125 0.65066 0.26200
O 	O 	0.95131 0.89054 0.65166 -0.36200
O 	O 	0.93836 0.72698 0.66121 -0.38900
Ni	Ni	0.21771 0.65670 0.41559 1.09700
O 	O 	0.30256 0.68582 0.38676 -0.70200
Ni	Ni	0.38832 0.66891 0.40924 1.09500
O 	O 	0.14357 0.68952 0.38992 -0.36500
O 	O 	0.23089 0.81696 0.37425 -0.40200
O 	O 	0.17217 0.53445 0.39678 -0.37800
Ni	Ni	0.33880 0.80748 0.37386 1.06500
O 	O 	0.17449 0.53138 0.47301 -0.40800
O 	O 	0.36056 0.85777 0.41376 -0.40900
O 	O 	0.46535 0.69409 0.37798 -0.37800
O 	O 	0.30541 0.64552 0.43858 -0.70100
O 	O 	0.13280 0.61721 0.44406 -0.37800
O 	O 	0.45924 0.62709 0.43420 -0.36900
O 	O 	0.36340 0.49556 0.44134 -0.40800
Ni	Ni	0.27289 0.52817 0.45602 1.06500
H 	H 	0.28769 0.64417 0.37050 0.14700
H 	H 	0.32145 0.69238 0.45338 0.15000
C 	C 	0.42211 0.85984 0.42791 0.27600
O 	O 	0.20966 0.44581 0.42484 -0.39000
C 	C 	0.16714 0.74796 0.37030 0.27100
C 	C 	0.47662 0.76200 0.36147 0.27200
C 	C 	0.20151 0.47309 0.39980 0.27000
C 	C 	0.43570 0.54739 0.44443 0.26800
O 	O 	0.44824 0.79473 0.42558 -0.36200
O 	O 	0.45173 0.82575 0.36858 -0.40800
Ni	Ni	0.38331 0.71849 0.98161 1.10100
O 	O 	0.27021 0.67895 0.97023 -0.70300
Ni	Ni	0.22430 0.69985 0.00568 1.09800
O 	O 	0.40859 0.64887 0.94983 -0.37600
O 	O 	0.31614 0.52056 0.96245 -0.40600
O 	O 	0.40871 0.82531 0.95547 -0.36200
Ni	Ni	0.21951 0.55540 0.95804 1.07000
O 	O 	0.48839 0.89933 0.00874 -0.40700
O 	O 	0.17295 0.48141 0.99243 -0.39300
O 	O 	0.33932 0.75347 0.01559 -0.69900
O 	O 	0.49460 0.76579 0.99551 -0.37700
O 	O 	0.19846 0.74448 0.04289 -0.37400
O 	O 	0.27696 0.88645 0.03491 -0.40900
Ni	Ni	0.37980 0.88172 0.02058 1.06600
H 	H 	0.26210 0.71784 0.95571 0.16000
H 	H 	0.35264 0.72602 0.03232 0.15300
C 	C 	0.17979 0.51052 0.01858 0.29900
O 	O 	0.35052 0.90141 0.98087 -0.41100
C 	C 	0.38028 0.56220 0.94965 0.26500
C 	C 	0.39516 0.89819 0.96061 0.28600
C 	C 	0.23319 0.82686 0.05183 0.26700
C 	C 	0.51914 0.83813 0.01144 0.28000
O 	O 	0.22682 0.59033 0.02555 -0.40100
Ni	Ni	0.94886 0.00119 0.23285 1.09300
O 	O 	0.96441 0.11275 0.21064 -0.70900
Ni	Ni	0.93489 0.05996 0.17251 1.09800
O 	O 	0.83728 0.99034 0.23776 -0.38800
O 	O 	0.90561 0.78486 0.21652 -0.40700
O 	O 	0.94426 0.17395 0.15314 -0.37700
O 	O 	0.93559 0.95275 0.19406 -0.69900
O 	O 	0.92606 0.88544 0.25338 -0.37500
O 	O 	0.87574 0.98469 0.13892 -0.36900
O 	O 	0.78368 0.89765 0.16726 -0.41300
Ni	Ni	0.84667 0.84285 0.19223 1.07100
H 	H 	0.93044 0.14410 0.21648 0.15500
H 	H 	0.98103 0.93798 0.18986 0.15900
O 	O 	0.78124 0.84330 0.22600 -0.39300
C 	C 	0.01025 0.24221 0.15425 0.26300
C 	C 	0.78208 0.91316 0.24056 0.30200
C 	C 	0.80583 0.92783 0.14223 0.26300
C 	C 	0.93509 0.81559 0.24182 0.28100
O 	O 	0.03683 0.07019 0.15508 -0.38400
C 	C 	0.14068 0.44872 0.04077 -0.07300
C 	C 	0.13117 0.48143 0.06729 -0.02000
C 	C 	0.02996 0.27178 0.10365 -0.02100
H 	H 	0.05027 0.22815 0.05111 0.04400
H 	H 	0.15289 0.55210 0.07164 0.04600
H 	H 	0.10831 0.52494 0.11973 0.03800
H 	H 	0.00947 0.20104 0.09944 0.04800
C 	C 	0.58098 0.85152 0.03226 -0.08900
C 	C 	0.64367 0.82692 0.02634 0.01400
C 	C 	0.70191 0.83904 0.04663 -0.06300
C 	C 	0.69724 0.87484 0.07308 0.01900
C 	C 	0.63374 0.89907 0.07904 0.00600
C 	C 	0.57642 0.88789 0.05853 -0.01500
C 	C 	0.62799 0.93308 0.10559 -0.05600
C 	C 	0.68443 0.94233 0.12619 0.00300
C 	C 	0.74753 0.91851 0.12040 -0.07000
C 	C 	0.75445 0.88570 0.09379 -0.02500
H 	H 	0.64752 0.79901 0.00599 0.03700
H 	H 	0.75026 0.82015 0.04183 0.04500
H 	H 	0.52738 0.90590 0.06312 0.00300
H 	H 	0.57955 0.95190 0.11032 0.03600
H 	H 	0.67942 0.96853 0.14670 0.03300
H 	H 	0.80348 0.86748 0.08942 0.03900
C 	C 	0.21073 0.85546 0.07867 -0.06900
C 	C 	0.15401 0.79444 0.09446 -0.00300
C 	C 	0.12782 0.82225 0.11854 -0.05100
H 	H 	0.12905 0.72562 0.08780 0.04000
H 	H 	0.08259 0.77484 0.13001 0.03200
H 	H 	0.07548 0.89612 0.15935 0.01200
C 	C 	0.53251 0.77691 0.33879 -0.07100
C 	C 	0.54865 0.70539 0.32750 0.00100
C 	C 	0.60087 0.71834 0.30613 -0.05700
C 	C 	0.63753 0.80296 0.29554 0.01200
C 	C 	0.62159 0.87535 0.30655 0.01100
C 	C 	0.56908 0.86214 0.32817 -0.02200
C 	C 	0.65840 0.96000 0.29584 -0.04800
C 	C 	0.71056 0.97255 0.27431 0.01800
C 	C 	0.72656 0.90065 0.26325 -0.07400
C 	C 	0.68999 0.81591 0.27405 -0.01700
H 	H 	0.52031 0.63941 0.33517 0.03400
H 	H 	0.61258 0.66232 0.29774 0.04000
H 	H 	0.55718 0.91782 0.33676 0.04400
H 	H 	0.64662 0.01611 0.30411 0.03000
H 	H 	0.73808 0.03805 0.26618 0.02300
H 	H 	0.70285 0.76028 0.26593 0.04500
C 	C 	0.19354 0.41250 0.37612 -0.07300
C 	C 	0.24101 0.44035 0.35326 0.00200
C 	C 	0.22432 0.39018 0.32838 -0.06200
C 	C 	0.15969 0.31191 0.32616 0.01600
C 	C 	0.13823 0.26567 0.30050 -0.03000
H 	H 	0.28984 0.50189 0.35457 0.00200
H 	H 	0.26046 0.41337 0.31064 0.03500
H 	H 	0.17211 0.29021 0.28229 0.03000
C 	C 	0.97160 0.76656 0.25871 -0.06800
C 	C 	0.04237 0.76380 0.25079 -0.01100
C 	C 	0.09397 0.75428 0.27104 -0.06400
C 	C 	0.98176 0.73677 0.33505 -0.00900
C 	C 	0.03706 0.74181 0.35578 -0.02000
C 	C 	0.11154 0.75035 0.34852 -0.06000
H 	H 	0.06002 0.77657 0.22940 0.02300
H 	H 	0.15001 0.75664 0.26492 0.03700
H 	H 	0.92474 0.73124 0.34098 0.03700
H 	H 	0.02206 0.73909 0.37755 0.04600
C 	C 	0.47003 0.94110 0.44171 -0.02600
C 	C 	0.51173 0.00869 0.45325 -0.06300
C 	C 	0.97232 0.44482 0.46597 -0.01500
C 	C 	0.49125 0.50825 0.45162 -0.04400
C 	C 	0.53481 0.47096 0.45743 -0.04400
C 	C 	0.84492 0.93890 0.65080 -0.07200
C 	C 	0.76839 0.89543 0.64170 0.00400
C 	C 	0.73558 0.93312 0.62131 -0.05000
C 	C 	0.77960 0.01401 0.60968 0.00200
C 	C 	0.85417 0.06146 0.62070 0.01600
C 	C 	0.88545 0.02475 0.64183 -0.02600
C 	C 	0.89887 0.14147 0.60885 -0.06000
C 	C 	0.87202 0.17102 0.58496 0.00700
C 	C 	0.79968 0.12146 0.57288 -0.08200
C 	C 	0.75221 0.04496 0.58603 -0.01900
H 	H 	0.73616 0.82987 0.64895 0.03000
H 	H 	0.67750 0.89722 0.61353 0.03600
H 	H 	0.94414 0.05916 0.64928 0.01900
H 	H 	0.95562 0.17918 0.61752 0.03800
H 	H 	0.90827 0.23135 0.57548 0.04100
H 	H 	0.69512 0.00833 0.57740 0.01600
C 	C 	0.23103 0.10417 0.62927 -0.07000
C 	C 	0.29134 0.18615 0.63329 -0.00300
C 	C 	0.34915 0.21541 0.61378 -0.05900
C 	C 	0.34753 0.16301 0.59000 0.00900
C 	C 	0.28626 0.08142 0.58552 0.01600
C 	C 	0.22816 0.05255 0.60508 -0.02800
C 	C 	0.28477 0.02871 0.56186 -0.06500
C 	C 	0.34491 0.05521 0.54329 0.00600
C 	C 	0.40704 0.13506 0.54800 -0.07400
C 	C 	0.40742 0.18994 0.57101 -0.02600
H 	H 	0.29363 0.22720 0.65158 0.02300
H 	H 	0.39553 0.27841 0.61733 0.03700
H 	H 	0.18183 0.98928 0.60179 0.05000
H 	H 	0.23768 0.96642 0.55807 0.04600
H 	H 	0.34374 0.01301 0.52541 0.03600
H 	H 	0.45533 0.25171 0.57465 0.03000
C 	C 	0.88628 0.52341 0.53854 -0.07100
C 	C 	0.92628 0.61208 0.53201 0.00500
C 	C 	0.97424 0.67044 0.55219 -0.03900
C 	C 	0.98147 0.64105 0.57918 0.02400
C 	C 	0.94711 0.55029 0.58498 0.01500
C 	C 	0.90170 0.49143 0.56429 -0.01900
C 	C 	0.95196 0.52145 0.61224 -0.06000
C 	C 	0.00750 0.67385 0.62883 -0.07800
C 	C 	0.01476 0.70201 0.60111 -0.02900
H 	H 	0.91850 0.63648 0.51164 0.04600
H 	H 	0.00246 0.73943 0.54727 0.03300
H 	H 	0.87477 0.42187 0.56880 0.04800
H 	H 	0.03784 0.77216 0.59696 0.04900
C 	C 	0.92999 0.50318 0.96757 -0.04600
C 	C 	0.48895 0.04673 0.93945 -0.05400
C 	C 	0.44481 0.97951 0.94897 -0.03200
C 	C 	0.43001 0.51534 0.94336 -0.04200
C 	C 	0.47363 0.47731 0.93944 -0.04400
C 	C 	0.86284 0.21554 0.86146 -0.08200
C 	C 	0.93605 0.21597 0.86871 0.01300
C 	C 	0.98468 0.20870 0.84793 -0.05400
C 	C 	0.96060 0.20147 0.81967 0.03600
C 	C 	0.88803 0.20449 0.81222 -0.00100
C 	C 	0.83923 0.21105 0.83322 -0.01600
C 	C 	0.86433 0.19796 0.78391 -0.04800
C 	C 	0.90980 0.18176 0.76337 -0.01500
H 	H 	0.95496 0.22098 0.89048 0.03700
H 	H 	0.78309 0.21245 0.82767 0.00600
H 	H 	0.80954 0.20221 0.77790 0.03200
H 	H 	0.88888 0.17150 0.74179 0.02900
C 	C 	0.25906 0.05454 0.75588 -0.07900
C 	C 	0.26990 0.98258 0.76888 0.00900
C 	C 	0.33012 0.99714 0.78842 -0.05700
C 	C 	0.37936 0.08367 0.79525 0.01100
C 	C 	0.37402 0.15491 0.77978 0.01100
C 	C 	0.31571 0.13920 0.75928 -0.01600
C 	C 	0.42221 0.24164 0.78693 -0.05800
C 	C 	0.47002 0.25822 0.81084 0.00300
C 	C 	0.47107 0.18809 0.82747 -0.07800
C 	C 	0.42898 0.10061 0.81875 -0.02100
H 	H 	0.22938 0.91597 0.76502 0.03300
H 	H 	0.33577 0.94166 0.79936 0.04100
H 	H 	0.31072 0.19394 0.74767 0.03800
H 	H 	0.42004 0.29653 0.77474 0.03900
H 	H 	0.50495 0.32575 0.81680 0.02900
H 	H 	0.43132 0.04616 0.83117 0.04200
C 	C 	0.76656 0.54838 0.86944 -0.06600
C 	C 	0.70936 0.56406 0.85317 -0.00600
C 	C 	0.72832 0.61314 0.82878 -0.05400
C 	C 	0.80475 0.64711 0.82042 0.00600
C 	C 	0.86246 0.63190 0.83684 0.02100
C 	C 	0.84313 0.58288 0.86126 -0.02500
C 	C 	0.93887 0.66607 0.82868 -0.06600
C 	C 	0.95821 0.71588 0.80458 0.02500
C 	C 	0.90147 0.73189 0.78821 -0.08100
C 	C 	0.82447 0.69677 0.79601 -0.01700
H 	H 	0.65009 0.53717 0.85917 0.03000
H 	H 	0.68354 0.62440 0.81639 0.03900
H 	H 	0.88762 0.57180 0.87393 0.05600
H 	H 	0.98350 0.65451 0.84109 0.05000
H 	H 	0.01758 0.74245 0.79866 0.01500
H 	H 	0.78057 0.70960 0.78352 0.03900
