data_crystal

_cell_length_a 18.39663
_cell_length_b 18.87759
_cell_length_c 34.75623
_cell_angle_alpha 95.44141
_cell_angle_beta  95.44159
_cell_angle_gamma 126.42888

_symmetry_space_group_name_	'P 1'
_symmetry_space_group_name_H-M	'P 1'

loop_
_symmetry_equiv_pos_as_xyz
  x,y,z

loop_
_atom_site_label
_atom_site_type_symbol
_atom_site_fract_x
_atom_site_fract_y
_atom_site_fract_z
_atom_site_charge
C 	C 	0.89474 0.00048 0.96161 0.14200
N 	N 	0.85139 0.91170 0.96179 -0.05400
C 	C 	0.90004 0.87856 0.96117 0.19100
N 	N 	0.99141 0.93419 0.96091 -0.07500
C 	C 	0.03431 0.02228 0.96060 0.17300
N 	N 	0.98573 0.05505 0.96030 -0.09600
C 	C 	0.93684 0.01066 0.49648 0.11600
N 	N 	0.89851 0.92373 0.49806 -0.05400
C 	C 	0.95108 0.89528 0.49855 0.17700
N 	N 	0.04238 0.95424 0.49911 -0.04800
C 	C 	0.08098 0.04106 0.49771 0.14800
N 	N 	0.02816 0.06935 0.49605 -0.07100
Cu	Cu	0.75477 0.35372 0.96039 0.93900
Cu	Cu	0.73948 0.28588 0.04462 0.89100
Cu	Cu	0.60481 0.30742 0.00760 0.91500
Cu	Cu	0.58617 0.35041 0.92795 0.92100
C 	C 	0.68927 0.31905 0.87744 0.29600
O 	O 	0.81053 0.48514 0.95926 -0.31500
C 	C 	0.66147 0.34159 0.09441 0.30200
O 	O 	0.61114 0.28184 0.95384 -0.63300
O 	O 	0.73978 0.36816 0.01546 -0.63600
O 	O 	0.81267 0.29148 0.96632 -0.29700
O 	O 	0.70876 0.19714 0.00167 -0.39500
O 	O 	0.65557 0.36308 0.88496 -0.34300
O 	O 	0.47288 0.24020 0.99688 -0.34200
C 	C 	0.42446 0.23993 0.96620 0.31000
C 	C 	0.76884 0.51921 0.97032 0.29800
O 	O 	0.68270 0.46537 0.97416 -0.33400
O 	O 	0.46422 0.29897 0.94293 -0.30800
O 	O 	0.74530 0.32133 0.90520 -0.29300
C 	C 	0.76836 0.21484 0.97893 0.30100
O 	O 	0.59597 0.31390 0.06389 -0.34400
O 	O 	0.73461 0.34634 0.09019 -0.38600
H 	H 	0.57167 0.21717 0.94209 0.22000
H 	H 	0.77772 0.43069 0.03010 0.23200
Cu	Cu	0.61039 0.19252 0.50729 0.94000
Cu	Cu	0.67625 0.18807 0.42317 0.89300
Cu	Cu	0.68344 0.34091 0.45896 0.91300
Cu	Cu	0.63696 0.37073 0.53644 0.92100
C 	C 	0.64759 0.26183 0.58973 0.29400
O 	O 	0.48107 0.15338 0.50726 -0.32000
C 	C 	0.64704 0.28162 0.37255 0.30200
O 	O 	0.69943 0.33276 0.51306 -0.63400
O 	O 	0.60253 0.20720 0.45170 -0.63600
O 	O 	0.65383 0.11788 0.50293 -0.31600
O 	O 	0.75927 0.20665 0.46682 -0.39100
O 	O 	0.61298 0.30401 0.58076 -0.34200
O 	O 	0.76799 0.46984 0.47001 -0.34300
C 	C 	0.76638 0.52178 0.49762 0.30800
C 	C 	0.45552 0.20005 0.49427 0.30300
O 	O 	0.51796 0.28237 0.49000 -0.33700
O 	O 	0.70061 0.48813 0.51869 -0.30700
O 	O 	0.63899 0.20152 0.56286 -0.30300
C 	C 	0.73036 0.14793 0.49006 0.31500
O 	O 	0.68734 0.34912 0.40279 -0.35200
O 	O 	0.62567 0.20326 0.37719 -0.37600
H 	H 	0.76424 0.36479 0.52605 0.22000
H 	H 	0.53982 0.17798 0.43683 0.23400
C 	C 	0.73248 0.34422 0.69947 -0.04700
C 	C 	0.69068 0.26286 0.71284 0.02500
C 	C 	0.64562 0.18224 0.68546 0.00600
C 	C 	0.63602 0.18294 0.64506 0.02000
C 	C 	0.67242 0.26378 0.63168 -0.04400
C 	C 	0.72537 0.34530 0.65913 0.05300
C 	C 	0.68718 0.26214 0.75519 0.02700
S 	S 	0.60171 0.08036 0.70137 0.05100
H 	H 	0.59778 0.12029 0.62411 0.08700
S 	S 	0.78585 0.44908 0.64341 0.07800
H 	H 	0.76953 0.40663 0.72051 0.08300
C 	C 	0.76744 0.29932 0.78319 0.00500
C 	C 	0.76655 0.31371 0.82336 0.02300
C 	C 	0.68554 0.28945 0.83595 -0.04100
C 	C 	0.60310 0.24368 0.80807 0.05300
C 	C 	0.60479 0.23207 0.76789 -0.04500
S 	S 	0.86916 0.32781 0.76831 0.07200
H 	H 	0.82954 0.34629 0.84470 0.10000
S 	S 	0.49700 0.19767 0.82311 0.07600
H 	H 	0.54227 0.20089 0.74643 0.08500
H 	H 	0.87096 0.47492 0.63852 0.09200
H 	H 	0.91967 0.41414 0.76194 0.06700
H 	H 	0.45998 0.11293 0.82960 0.09400
H 	H 	0.66927 0.06976 0.70653 0.07700
C 	C 	0.60063 0.35602 0.28182 -0.05100
C 	C 	0.63965 0.33322 0.25531 0.02400
C 	C 	0.68154 0.29423 0.26752 -0.00200
C 	C 	0.68319 0.27764 0.30580 0.01000
C 	C 	0.64340 0.29945 0.33230 -0.06800
C 	C 	0.60153 0.33866 0.32014 0.06200
C 	C 	0.63243 0.34597 0.21418 0.02600
S 	S 	0.73109 0.26478 0.23490 0.02200
H 	H 	0.71592 0.24805 0.31509 0.05600
S 	S 	0.54575 0.36174 0.35171 0.06500
H 	H 	0.56775 0.38535 0.27236 0.08900
C 	C 	0.55897 0.27537 0.18481 -0.00200
C 	C 	0.56521 0.27837 0.14510 0.01000
C 	C 	0.64438 0.35110 0.13443 -0.06300
C 	C 	0.71266 0.42630 0.16360 0.05200
C 	C 	0.70644 0.42328 0.20334 -0.05000
S 	S 	0.46140 0.18070 0.19748 0.05000
H 	H 	0.51098 0.22166 0.12265 0.06700
S 	S 	0.80542 0.52463 0.15068 0.10100
H 	H 	0.76141 0.47916 0.22589 0.08600
H 	H 	0.45532 0.28836 0.34641 0.09900
H 	H 	0.47744 0.11979 0.20286 0.05100
H 	H 	0.87676 0.51999 0.14958 0.06600
H 	H 	0.66469 0.18015 0.21365 0.05200
C 	C 	0.90042 0.77038 0.53381 0.03800
C 	C 	0.90925 0.80066 0.49806 0.07600
C 	C 	0.88255 0.74132 0.46237 -0.10000
C 	C 	0.83810 0.65014 0.46292 0.07300
C 	C 	0.82591 0.61908 0.49862 0.00500
C 	C 	0.86480 0.68116 0.53463 -0.06700
C 	C 	0.86784 0.65299 0.57390 0.77600
H 	H 	0.92304 0.81692 0.56107 0.12300
H 	H 	0.81072 0.60267 0.43554 0.09500
C 	C 	0.90303 0.77540 0.42394 0.78600
F 	F 	0.93815 0.72562 0.60220 -0.39900
F 	F 	0.88342 0.58956 0.57084 -0.44500
F 	F 	0.78540 0.61780 0.58635 -0.42500
F 	F 	0.99702 0.83765 0.42679 -0.40100
F 	F 	0.86148 0.81519 0.41596 -0.36600
F 	F 	0.87089 0.70689 0.39250 -0.40800
C 	C 	0.89281 0.09957 0.52831 0.01100
C 	C 	0.87966 0.04137 0.49540 0.09600
C 	C 	0.81190 0.01287 0.46191 -0.17000
C 	C 	0.75694 0.04162 0.46265 0.08900
C 	C 	0.77306 0.10307 0.49471 -0.02300
C 	C 	0.83959 0.13055 0.52842 -0.05700
C 	C 	0.85438 0.19350 0.56423 0.77100
H 	H 	0.94484 0.12080 0.55373 0.12500
H 	H 	0.70355 0.01893 0.43758 0.05100
C 	C 	0.79592 0.94970 0.42587 0.83600
F 	F 	0.91798 0.20794 0.59502 -0.41200
F 	F 	0.77222 0.15719 0.57715 -0.43300
F 	F 	0.88598 0.27540 0.55445 -0.43100
F 	F 	0.75107 0.86433 0.43404 -0.38600
F 	F 	0.87872 0.97793 0.41539 -0.38000
F 	F 	0.74238 0.94616 0.39379 -0.40200
C 	C 	0.20639 0.10221 0.46006 0.02900
C 	C 	0.17904 0.10286 0.49631 0.08300
C 	C 	0.24537 0.14600 0.53149 -0.11500
C 	C 	0.33542 0.17612 0.53018 0.07500
C 	C 	0.36115 0.16919 0.49417 -0.00500
C 	C 	0.29748 0.13542 0.45855 -0.06600
C 	C 	0.32525 0.13026 0.41921 0.77500
H 	H 	0.15510 0.07050 0.43323 0.13000
H 	H 	0.38551 0.20393 0.55722 0.08200
C 	C 	0.21855 0.15396 0.57073 0.78900
F 	F 	0.25431 0.09775 0.38790 -0.41100
F 	F 	0.34997 0.07384 0.41723 -0.44300
F 	F 	0.39913 0.21469 0.41520 -0.45200
F 	F 	0.16914 0.07126 0.58195 -0.41900
F 	F 	0.16505 0.18303 0.56766 -0.40900
F 	F 	0.29518 0.21481 0.59986 -0.41100
C 	C 	0.84481 0.75575 0.99876 0.02800
C 	C 	0.85508 0.78308 0.96224 0.08000
C 	C 	0.83929 0.72402 0.92849 -0.10900
C 	C 	0.82019 0.64126 0.93261 0.07200
C 	C 	0.81037 0.61404 0.96915 -0.00300
C 	C 	0.82547 0.67281 0.00288 -0.05800
C 	C 	0.82043 0.64706 0.04317 0.77400
H 	H 	0.85562 0.80087 0.02430 0.14500
H 	H 	0.80977 0.59638 0.90707 0.08700
C 	C 	0.84622 0.75047 0.88832 0.78800
F 	F 	0.85877 0.72033 0.07301 -0.39800
F 	F 	0.86803 0.61228 0.04909 -0.44500
F 	F 	0.72953 0.58340 0.04578 -0.42900
F 	F 	0.93779 0.81123 0.88586 -0.40400
F 	F 	0.80247 0.78910 0.88248 -0.40300
F 	F 	0.80526 0.67681 0.85837 -0.41000
C 	C 	0.81366 0.12647 0.00608 0.07200
C 	C 	0.79563 0.15524 0.97316 -0.00600
C 	C 	0.79603 0.12068 0.93516 -0.06800
C 	C 	0.82451 0.06586 0.93166 0.02900
C 	C 	0.84487 0.03917 0.96479 0.07200
C 	C 	0.83436 0.06563 0.00203 -0.10000
C 	C 	0.84664 0.03022 0.03758 0.75300
H 	H 	0.81142 0.15169 0.03492 0.06700
H 	H 	0.83351 0.04596 0.90330 0.10800
C 	C 	0.76928 0.14411 0.89850 0.77500
F 	F 	0.82469 0.05673 0.07018 -0.42000
F 	F 	0.93702 0.06179 0.04701 -0.38200
F 	F 	0.78980 0.93753 0.02928 -0.37100
F 	F 	0.83869 0.23194 0.89639 -0.42900
F 	F 	0.68834 0.13355 0.89938 -0.44300
F 	F 	0.75536 0.08929 0.86466 -0.42400
C 	C 	0.29071 0.19870 0.99604 0.07000
C 	C 	0.32443 0.18703 0.96346 0.00300
C 	C 	0.26245 0.12251 0.92940 -0.07000
C 	C 	0.16733 0.07286 0.92841 0.03100
C 	C 	0.13381 0.08235 0.96152 0.07000
C 	C 	0.19589 0.14463 0.99605 -0.11000
C 	C 	0.16123 0.15454 0.03265 0.79200
H 	H 	0.33891 0.24948 0.02161 0.09800
H 	H 	0.11892 0.02555 0.90206 0.12400
C 	C 	0.29733 0.10804 0.89380 0.77400
F 	F 	0.23246 0.20906 0.06464 -0.41000
F 	F 	0.10071 0.07165 0.04260 -0.39500
F 	F 	0.11696 0.19220 0.02561 -0.39000
F 	F 	0.36404 0.09751 0.90520 -0.45400
F 	F 	0.33433 0.18112 0.87538 -0.43300
F 	F 	0.22733 0.03211 0.86680 -0.40900
