data_crystal

_cell_length_a 20.33452
_cell_length_b 21.71774
_cell_length_c 39.30734
_cell_angle_alpha 60.70581
_cell_angle_beta  119.02402
_cell_angle_gamma 133.23708

_symmetry_space_group_name_	'P 1'
_symmetry_space_group_name_H-M	'P 1'

loop_
_symmetry_equiv_pos_as_xyz
  x,y,z

loop_
_atom_site_label
_atom_site_type_symbol
_atom_site_fract_x
_atom_site_fract_y
_atom_site_fract_z
_atom_site_charge
Co	Co	0.08997 0.06880 0.03833 1.19000
O 	O 	0.02028 0.08587 0.17738 -0.38300
C 	C 	0.00814 0.01297 0.20258 0.34800
O 	O 	0.05308 0.14765 0.02237 -0.43600
O 	O 	0.09198 0.98003 0.06553 -0.75600
Co	Co	0.06451 0.99812 0.54918 1.17600
Co	Co	0.04818 0.85265 0.53296 1.17800
O 	O 	0.08048 0.09565 0.55678 -0.43700
C 	C 	0.09537 0.76384 0.61534 0.30400
O 	O 	0.03979 0.74893 0.58062 -0.39700
O 	O 	0.02562 0.89297 0.56215 -0.75500
C 	C 	0.03837 0.96955 0.31455 -0.05300
C 	C 	0.04135 0.96897 0.27931 0.04800
C 	C 	0.06856 0.07491 0.40190 0.02400
C 	C 	0.06653 0.06878 0.36713 -0.00300
H 	H 	0.08070 0.95655 0.34333 0.06300
N 	N 	0.10580 0.29718 0.55248 -0.09800
C 	C 	0.05660 0.13496 0.64928 0.30600
O 	O 	0.08393 0.11037 0.63679 -0.38700
C 	C 	0.03919 0.54106 0.16113 0.11700
Co	Co	0.01642 0.89385 0.09513 1.18500
C 	C 	0.10353 0.04961 0.97186 0.29600
O 	O 	0.04860 0.04667 0.98240 -0.35800
C 	C 	0.01462 0.98212 0.46527 0.28200
O 	O 	0.06480 0.95315 0.48239 -0.39700
O 	O 	0.00414 0.00607 0.48671 -0.34300
C 	C 	0.06380 0.99402 0.86894 -0.01400
C 	C 	0.07719 0.03401 0.93235 -0.04100
C 	C 	0.04405 0.97792 0.83058 0.05500
C 	C 	0.08140 0.24690 0.10341 0.32400
C 	C 	0.09129 0.73353 0.06368 0.09200
C 	C 	0.05825 0.92737 0.79191 0.03400
O 	O 	0.09983 0.80995 0.63028 -0.37200
O 	O 	0.05843 0.87186 0.02749 -0.38200
C 	C 	0.08331 0.68339 0.15484 0.03100
O 	O 	0.10073 0.21261 0.09264 -0.37800
C 	C 	0.10193 0.95250 0.28231 0.08100
C 	C 	0.08085 0.94339 0.82850 -0.04700
N 	N 	0.10861 0.68040 0.72307 -0.09300
O 	O 	0.11116 0.86727 0.14031 -0.37400
C 	C 	0.11531 0.29556 0.58435 0.07800
H 	H 	0.08530 0.89946 0.79085 0.04900
H 	H 	0.13246 0.12555 0.41685 0.04900
C 	C 	0.13464 0.68409 0.70123 0.09700
C 	C 	0.11001 0.63272 0.16009 -0.04000
H 	H 	0.12932 0.46879 0.66597 0.07300
C 	C 	0.14109 0.92382 0.86351 0.10600
N 	N 	0.01579 0.51521 0.07968 -0.09800
C 	C 	0.12147 0.22285 0.65657 -0.07400
N 	N 	0.12976 0.48120 0.56990 -0.09900
C 	C 	0.12747 0.29379 0.62423 0.01800
C 	C 	0.12653 0.08003 0.87312 -0.01800
C 	C 	0.13726 0.42902 0.59698 0.10600
O 	O 	0.00868 0.91886 0.70470 -0.36500
C 	C 	0.01308 0.94802 0.92775 -0.01400
C 	C 	0.13249 0.10047 0.90400 0.01000
N 	N 	0.14044 0.58214 0.02357 -0.10300
H 	H 	0.13820 0.50894 0.16349 0.07200
C 	C 	0.14682 0.13480 0.35010 0.10100
C 	C 	0.14593 0.36329 0.63080 -0.03300
C 	C 	0.14462 0.83984 0.13364 0.29700
C 	C 	0.00630 0.92775 0.89647 -0.00600
C 	C 	0.15153 0.22990 0.69596 0.02900
O 	O 	0.99587 0.20853 0.10225 -0.41800
Co	Co	0.99440 0.10884 0.06495 1.18100
N 	N 	0.18940 0.90812 0.89162 -0.10600
C 	C 	0.98804 0.99836 0.79598 -0.09100
C 	C 	0.99798 0.94426 0.75740 -0.08500
H 	H 	0.96074 0.02583 0.79729 0.07600
Co	Co	0.99735 0.04336 0.59254 1.18000
C 	C 	0.96098 0.97830 0.76043 0.04300
O 	O 	0.98173 0.07742 0.66413 -0.38300
N 	N 	0.15697 0.42067 0.00917 -0.09200
C 	C 	0.15627 0.41357 0.04017 0.08800
C 	C 	0.15074 0.53182 0.05093 0.10500
C 	C 	0.98634 0.64983 0.14143 0.06000
N 	N 	0.98160 0.46763 0.16216 -0.11700
H 	H 	0.16851 0.13192 0.85137 0.06100
C 	C 	0.88791 0.98468 0.72894 0.06200
N 	N 	0.17139 0.77455 0.07479 -0.11300
C 	C 	0.19253 0.19055 0.90505 0.09500
N 	N 	0.82849 0.98887 0.70414 -0.13300
O 	O 	0.99268 0.95526 0.18995 -0.38400
C 	C 	0.98732 0.98691 0.24148 -0.12200
C 	C 	0.98684 0.99806 0.34958 -0.00700
C 	C 	0.99307 0.00948 0.42042 -0.06600
N 	N 	0.96021 0.31525 0.96194 -0.09600
Co	Co	0.17760 0.97358 0.05307 1.16500
O 	O 	0.19366 0.88897 0.10683 -0.38000
C 	C 	0.98323 0.98967 0.31243 0.01700
N 	N 	0.24065 0.26316 0.90533 -0.09400
O 	O 	0.87450 0.88714 0.70056 -0.39500
C 	C 	0.95804 0.91078 0.72096 0.29100
N 	N 	0.18959 0.83541 0.53347 -0.12500
N 	N 	0.92594 0.16954 0.65321 -0.10300
C 	C 	0.29885 0.15170 0.06268 0.29700
O 	O 	0.28446 0.07535 0.07981 -0.37100
O 	O 	0.23392 0.16110 0.05426 -0.37300
C 	C 	0.23091 0.01960 0.54916 0.30900
O 	O 	0.18840 0.93579 0.55560 -0.38800
O 	O 	0.20301 0.04745 0.55963 -0.37400
N 	N 	0.21117 0.18768 0.33643 -0.09600
N 	N 	0.15054 0.93930 0.28471 -0.09500
C 	C 	0.23257 0.69777 0.62131 -0.03500
C 	C 	0.19806 0.74606 0.60814 0.02300
C 	C 	0.16120 0.73919 0.63381 -0.07200
C 	C 	0.16719 0.68866 0.67389 0.02100
C 	C 	0.20228 0.64013 0.68700 -0.03300
C 	C 	0.26567 0.70285 0.59394 0.10000
C 	C 	0.19329 0.79663 0.56676 0.07500
N 	N 	0.29200 0.70754 0.57189 -0.10100
C 	C 	0.15204 0.33481 0.11103 -0.08000
C 	C 	0.15648 0.40526 0.07905 0.02600
C 	C 	0.19424 0.40769 0.15741 -0.03300
C 	C 	0.18147 0.34152 0.15050 0.02200
C 	C 	0.21655 0.40942 0.19814 0.10500
C 	C 	0.19888 0.28049 0.18397 0.09100
N 	N 	0.21320 0.23206 0.21080 -0.09100
N 	N 	0.23434 0.41080 0.23066 -0.10000
C 	C 	0.23909 0.78563 0.18758 0.02700
C 	C 	0.15111 0.76628 0.16310 -0.07200
N 	N 	0.20025 0.00996 0.45223 -0.09800
C 	C 	0.34074 0.30725 0.99181 0.10100
N 	N 	0.29249 0.32941 0.97199 -0.09300
C 	C 	0.73033 0.33720 0.00704 0.04400
C 	C 	0.80423 0.42419 0.01097 -0.06900
C 	C 	0.78849 0.47084 0.01802 0.04800
C 	C 	0.70433 0.42735 0.02606 -0.07200
C 	C 	0.62982 0.34498 0.01938 0.04600
C 	C 	0.64049 0.30319 0.00626 -0.07400
H 	H 	0.87267 0.45443 0.00928 0.06600
H 	H 	0.69570 0.45934 0.03621 0.06500
H 	H 	0.58046 0.24201 0.99808 0.07000
C 	C 	0.74344 0.29821 0.51748 0.04200
C 	C 	0.77792 0.38331 0.51392 -0.06600
C 	C 	0.72511 0.39626 0.51944 0.04200
C 	C 	0.63472 0.32686 0.52371 -0.06800
C 	C 	0.60020 0.24242 0.52791 0.04200
C 	C 	0.65406 0.22763 0.52464 -0.06500
H 	H 	0.84757 0.43791 0.50966 0.06300
H 	H 	0.59311 0.33785 0.52652 0.06400
H 	H 	0.62804 0.16157 0.52899 0.06600
C 	C 	0.24874 0.64754 0.16022 0.04000
C 	C 	0.19796 0.56642 0.15157 -0.06200
C 	C 	0.23276 0.55796 0.13150 0.04300
C 	C 	0.31829 0.62803 0.12189 -0.06600
C 	C 	0.37824 0.69775 0.13933 0.04000
C 	C 	0.34205 0.71187 0.15563 -0.06100
H 	H 	0.34385 0.62223 0.10572 0.06400
H 	H 	0.38570 0.77215 0.16426 0.06500
C 	C 	0.26697 0.59005 0.67312 0.04100
C 	C 	0.20324 0.50091 0.67267 -0.06400
C 	C 	0.23570 0.45535 0.67852 0.04300
C 	C 	0.33070 0.49739 0.68654 -0.06800
C 	C 	0.39194 0.58728 0.68143 0.04200
C 	C 	0.36185 0.63306 0.67741 -0.06500
H 	H 	0.35539 0.46202 0.69116 0.06400
H 	H 	0.41025 0.70290 0.67441 0.06200
Co	Co	0.93293 0.94078 0.12909 1.17600
C 	C 	0.99135 0.80090 0.04580 0.26500
Co	Co	0.91285 0.07854 0.12919 1.17400
O 	O 	0.94905 0.03967 0.10585 -0.74500
O 	O 	0.93564 0.84468 0.13162 -0.44400
O 	O 	0.98511 0.99088 0.07508 -0.59300
C 	C 	0.76282 0.89044 0.13902 0.30400
O 	O 	0.82470 0.95135 0.15833 -0.40800
O 	O 	0.79023 0.87330 0.12222 -0.37100
O 	O 	0.18035 0.06141 0.99744 -0.39100
C 	C 	0.83402 0.12167 0.04246 0.29000
O 	O 	0.81146 0.06656 0.07679 -0.37500
O 	O 	0.88961 0.13022 0.02892 -0.36200
O 	O 	0.94886 0.80583 0.06112 -0.37200
Co	Co	0.99177 0.82501 0.60514 1.18200
Co	Co	0.93977 0.87706 0.65056 1.17800
C 	C 	0.86074 0.70691 0.54528 0.29200
Co	Co	0.85658 0.96606 0.64501 1.17200
O 	O 	0.92451 0.95713 0.62293 -0.75800
O 	O 	0.96943 0.79838 0.65751 -0.45900
O 	O 	0.96994 0.92519 0.59031 -0.57900
C 	C 	0.73368 0.78097 0.64522 0.30400
O 	O 	0.74340 0.85502 0.62551 -0.37600
O 	O 	0.80265 0.77497 0.65662 -0.36500
C 	C 	0.88036 0.10516 0.56918 0.28400
O 	O 	0.82068 0.03570 0.59053 -0.37000
O 	O 	0.92372 0.09905 0.55552 -0.36500
O 	O 	0.90603 0.77325 0.51720 -0.38400
O 	O 	0.87454 0.71855 0.57939 -0.36300
C 	C 	0.94053 0.83870 0.89306 0.08100
N 	N 	0.88787 0.76733 0.89030 -0.10000
H 	H 	0.97025 0.89630 0.94915 0.05000
C 	C 	0.92762 0.00516 0.27484 -0.03700
C 	C 	0.92921 0.00289 0.24009 0.04000
C 	C 	0.90702 0.93980 0.36495 -0.04200
C 	C 	0.90885 0.94868 0.39881 0.00600
C 	C 	0.82344 0.89878 0.40990 0.08700
C 	C 	0.87231 0.02845 0.27109 0.09900
N 	N 	0.75496 0.85967 0.41866 -0.09500
N 	N 	0.82802 0.04710 0.26809 -0.10200
H 	H 	0.89080 0.02098 0.21134 0.02000
H 	H 	0.84311 0.88897 0.35013 0.05800
C 	C 	0.17153 0.36811 0.67035 0.01600
C 	C 	0.16657 0.29725 0.70259 -0.03400
C 	C 	0.18098 0.29576 0.74282 0.10500
C 	C 	0.17620 0.17362 0.72914 0.09400
N 	N 	0.19714 0.12953 0.75572 -0.09800
N 	N 	0.19244 0.29453 0.77494 -0.10400
C 	C 	0.48134 0.63413 0.67264 0.01000
C 	C 	0.48182 0.64138 0.63490 -0.03500
C 	C 	0.56395 0.67421 0.62826 0.02400
C 	C 	0.64679 0.70550 0.65796 -0.07700
C 	C 	0.64328 0.68571 0.69719 0.01800
C 	C 	0.56197 0.65440 0.70414 -0.03500
C 	C 	0.39794 0.61418 0.60310 0.10200
C 	C 	0.72214 0.69513 0.73040 0.09500
C 	C 	0.56106 0.64275 0.74356 0.09900
C 	C 	0.56427 0.67894 0.59023 0.09000
N 	N 	0.56028 0.63344 0.77501 -0.10100
N 	N 	0.56459 0.68273 0.55989 -0.09800
N 	N 	0.78487 0.70226 0.75704 -0.09800
N 	N 	0.33182 0.59273 0.57725 -0.09800
C 	C 	0.23245 0.64280 0.66023 0.01300
C 	C 	0.20685 0.58738 0.72784 0.10400
N 	N 	0.21053 0.54521 0.76045 -0.09800
C 	C 	0.16369 0.46877 0.08516 -0.03500
C 	C 	0.18648 0.47271 0.12466 0.01700
C 	C 	0.66252 0.84085 0.13715 -0.07700
C 	C 	0.60877 0.74966 0.15290 0.02300
C 	C 	0.52251 0.70621 0.16020 -0.03600
C 	C 	0.48060 0.74982 0.14409 0.01500
C 	C 	0.53269 0.84007 0.12664 -0.03700
C 	C 	0.62702 0.88655 0.12859 0.02900
C 	C 	0.64406 0.70122 0.16375 0.09000
C 	C 	0.48983 0.88543 0.10660 0.10300
C 	C 	0.68938 0.97756 0.12923 0.06200
C 	C 	0.47879 0.61821 0.18550 0.10000
N 	N 	0.73879 0.04990 0.13028 -0.11600
N 	N 	0.44411 0.54800 0.20572 -0.10300
N 	N 	0.45538 0.92144 0.09059 -0.10900
N 	N 	0.67220 0.66252 0.17242 -0.09900
C 	C 	0.20597 0.66664 0.17404 0.02200
C 	C 	0.26455 0.73267 0.19487 -0.03700
C 	C 	0.34251 0.73759 0.22743 0.10100
C 	C 	0.30464 0.86191 0.20352 0.09500
N 	N 	0.35705 0.92296 0.21624 -0.09500
N 	N 	0.90878 0.62286 0.13079 -0.10000
N 	N 	0.40482 0.74150 0.25345 -0.10300
C 	C 	0.80745 0.28053 0.52261 0.01200
C 	C 	0.87472 0.28509 0.55865 -0.03300
C 	C 	0.89414 0.22402 0.57541 0.01200
C 	C 	0.87444 0.18057 0.55037 -0.06800
C 	C 	0.82535 0.19325 0.50985 0.02200
C 	C 	0.78700 0.23894 0.49671 -0.03300
C 	C 	0.91786 0.34705 0.58046 0.09700
C 	C 	0.80944 0.15523 0.48259 0.10000
C 	C 	0.72643 0.24233 0.45712 0.10300
C 	C 	0.91247 0.19253 0.61859 0.06800
N 	N 	0.67796 0.24505 0.42549 -0.09800
N 	N 	0.79672 0.12486 0.46080 -0.09500
N 	N 	0.95322 0.39681 0.59792 -0.11200
C 	C 	0.76735 0.47938 0.52614 0.00900
C 	C 	0.74628 0.53714 0.49487 -0.03700
C 	C 	0.75760 0.59981 0.50367 0.01800
C 	C 	0.80781 0.61749 0.54186 -0.07400
C 	C 	0.82669 0.55829 0.57368 0.02000
C 	C 	0.80478 0.48843 0.56591 -0.03500
C 	C 	0.70996 0.53002 0.45384 0.09700
C 	C 	0.86564 0.56718 0.61455 0.09200
C 	C 	0.81392 0.42216 0.59915 0.10100
C 	C 	0.71085 0.64043 0.47478 0.09100
N 	N 	0.82087 0.36932 0.62587 -0.10000
N 	N 	0.67252 0.67198 0.45167 -0.09500
N 	N 	0.89663 0.57397 0.64720 -0.10500
N 	N 	0.68096 0.52427 0.42110 -0.10400
C 	C 	0.50708 0.16954 0.53627 0.01200
C 	C 	0.43022 0.13602 0.50444 -0.03200
C 	C 	0.33980 0.08846 0.50823 0.02100
C 	C 	0.32627 0.07903 0.54317 -0.07200
C 	C 	0.40336 0.10906 0.57582 0.02400
C 	C 	0.49267 0.14980 0.57303 -0.03500
C 	C 	0.44433 0.15170 0.46737 0.10200
C 	C 	0.39039 0.09521 0.61277 0.09500
C 	C 	0.56982 0.17091 0.60801 0.10100
C 	C 	0.26124 0.04467 0.47732 0.08800
N 	N 	0.63123 0.18744 0.63602 -0.10000
N 	N 	0.38006 0.08415 0.64225 -0.10000
N 	N 	0.45567 0.16425 0.43784 -0.09800
C 	C 	0.74813 0.27807 0.00850 0.00600
C 	C 	0.69794 0.18814 0.02873 -0.03200
C 	C 	0.70724 0.13308 0.02543 0.01500
C 	C 	0.78873 0.16816 0.01749 -0.07000
C 	C 	0.83842 0.25655 0.99603 0.01900
C 	C 	0.81246 0.30958 0.98855 -0.02800
C 	C 	0.64962 0.15519 0.05765 0.10000
C 	C 	0.90643 0.28932 0.97726 0.09400
C 	C 	0.84238 0.38982 0.95721 0.09800
C 	C 	0.63130 0.04177 0.02776 0.11100
N 	N 	0.86629 0.45389 0.93215 -0.10200
N 	N 	0.57049 0.96878 0.02930 -0.11400
N 	N 	0.61084 0.12834 0.08083 -0.10100
C 	C 	0.85637 0.56678 0.01462 -0.00100
C 	C 	0.94343 0.60099 0.04224 -0.01800
C 	C 	0.99112 0.68198 0.04933 -0.00700
C 	C 	0.94319 0.71855 0.03602 -0.05400
C 	C 	0.86019 0.68872 0.00574 0.00200
C 	C 	0.82305 0.61870 0.99222 -0.01800
C 	C 	0.98398 0.55363 0.06312 0.07700
C 	C 	0.81524 0.73176 0.98749 0.09800
C 	C 	0.74854 0.59772 0.95637 0.10000
N 	N 	0.68906 0.58095 0.92773 -0.09600
N 	N 	0.77939 0.76615 0.97290 -0.10600
C 	C 	0.54450 0.29877 0.03137 0.01000
C 	C 	0.54436 0.26320 0.07263 -0.03400
C 	C 	0.46941 0.23100 0.08506 0.02400
C 	C 	0.39206 0.22859 0.05622 -0.07500
C 	C 	0.40131 0.27991 0.01700 0.01400
C 	C 	0.47395 0.30972 0.00362 -0.03900
C 	C 	0.62287 0.26295 0.10224 0.10600
C 	C 	0.47654 0.35181 0.96168 0.10800
C 	C 	0.47027 0.19808 0.12736 0.09900
N 	N 	0.47864 0.38539 0.92819 -0.09800
N 	N 	0.47090 0.17174 0.16113 -0.09000
N 	N 	0.68563 0.26302 0.12586 -0.10000
