data_crystal

_cell_length_a 15.11613
_cell_length_b 15.28319
_cell_length_c 34.15191
_cell_angle_alpha 89.76188
_cell_angle_beta  89.76587
_cell_angle_gamma 119.40861

_symmetry_space_group_name_	'P 1'
_symmetry_space_group_name_H-M	'P 1'

loop_
_symmetry_equiv_pos_as_xyz
  x,y,z

loop_
_atom_site_label
_atom_site_type_symbol
_atom_site_fract_x
_atom_site_fract_y
_atom_site_fract_z
_atom_site_charge
Ni	Ni	0.05941 0.90540 0.75692 1.10700
Ni	Ni	0.06897 0.11935 0.75022 1.10900
O 	O 	0.00920 0.99012 0.77375 -0.69500
H 	H 	0.03764 0.00934 0.80030 0.14100
C 	C 	0.04640 0.19489 0.17472 0.27900
C 	C 	0.02259 0.24180 0.27342 0.29300
C 	C 	0.15686 0.97245 0.20830 0.35100
C 	C 	0.05308 0.95945 0.30763 0.28000
O 	O 	0.92515 0.17669 0.27114 -0.37300
O 	O 	0.07346 0.89590 0.22157 -0.40200
C 	C 	0.08386 0.35896 0.08602 0.11900
C 	C 	0.03882 0.29895 0.11935 -0.06100
C 	C 	0.07618 0.23788 0.13437 -0.08300
N 	N 	0.04541 0.41575 0.07116 -0.20300
H 	H 	0.08007 0.46360 0.04733 0.10900
C 	C 	0.25646 0.88108 0.21081 0.12200
N 	N 	0.23834 0.85994 0.24968 -0.20200
H 	H 	0.24786 0.80286 0.26246 0.09100
H 	H 	0.21938 0.90319 0.26784 0.10700
C 	C 	0.99537 0.39098 0.28580 0.13800
H 	H 	0.99752 0.51658 0.31560 0.06100
N 	N 	0.89291 0.33934 0.28178 -0.20000
H 	H 	0.85934 0.28606 0.25976 0.09300
H 	H 	0.84753 0.36282 0.29649 0.08800
C 	C 	0.01556 0.84381 0.36518 -0.07600
C 	C 	0.07145 0.94084 0.34904 -0.04400
C 	C 	0.14092 0.55901 0.97386 -0.03700
H 	H 	0.10302 0.33557 0.77635 0.08100
H 	H 	0.10252 0.67336 0.84733 0.08400
H 	H 	0.11796 0.79348 0.83375 0.09100
C 	C 	0.24547 0.08607 0.78182 0.27000
C 	C 	0.12359 0.03158 0.68356 0.29200
O 	O 	0.18069 0.99256 0.79152 -0.36800
O 	O 	0.21561 0.14619 0.76371 -0.37400
O 	O 	0.15224 0.98585 0.70907 -0.36300
O 	O 	0.07014 0.07244 0.69511 -0.39600
C 	C 	0.22370 0.83933 0.41553 0.29800
C 	C 	0.06797 0.52944 0.46199 0.26000
O 	O 	0.11594 0.62097 0.47698 -0.36900
O 	O 	0.11926 0.48161 0.45207 -0.36400
C 	C 	0.23713 0.63525 0.98621 0.29500
O 	O 	0.24443 0.69740 0.01449 -0.36000
O 	O 	0.31705 0.63632 0.97130 -0.38500
Ni	Ni	0.11157 0.11994 0.24406 1.11300
O 	O 	0.16360 0.06066 0.20383 -0.42400
O 	O 	0.11974 0.21407 0.19990 -0.37500
O 	O 	0.12808 0.03712 0.28799 -0.39600
O 	O 	0.08811 0.21017 0.28146 -0.38700
C 	C 	0.17527 0.36793 0.07084 -0.08900
C 	C 	0.14820 0.22562 0.11190 0.10500
C 	C 	0.29460 0.83034 0.18810 -0.04700
C 	C 	0.27746 0.99015 0.15565 -0.00300
C 	C 	0.23749 0.95393 0.19288 -0.11900
H 	H 	0.30155 0.76902 0.20094 0.05500
H 	H 	0.27213 0.05269 0.14335 0.03000
C 	C 	0.05753 0.35140 0.27217 -0.10700
C 	C 	0.04234 0.48953 0.30034 -0.07000
C 	C 	0.19815 0.98271 0.40003 0.02700
C 	C 	0.15473 0.88038 0.40964 -0.11300
C 	C 	0.05530 0.81457 0.39662 0.12500
C 	C 	0.15512 0.01416 0.37040 0.04600
N 	N 	0.19007 0.11370 0.36429 -0.18800
N 	N 	0.00073 0.72133 0.41250 -0.21200
H 	H 	0.14816 0.13846 0.34800 0.09300
H 	H 	0.02705 0.70062 0.43710 0.09800
N 	N 	0.12670 0.87185 0.63651 -0.20000
H 	H 	0.07733 0.84807 0.66053 0.09700
O 	O 	0.04230 0.17290 0.80001 -0.39400
O 	O 	0.15894 0.53165 0.36906 -0.39200
C 	C 	0.25854 0.46968 0.06139 0.29500
O 	O 	0.29123 0.76636 0.08815 -0.38700
O 	O 	0.27790 0.53940 0.08780 -0.36800
C 	C 	0.20053 0.29387 0.08109 -0.04300
C 	C 	0.31885 0.85537 0.14842 -0.08800
H 	H 	0.14009 0.81885 0.62241 0.08700
N 	N 	0.07676 0.36980 0.79600 -0.19900
H 	H 	0.12685 0.44415 0.80367 0.08300
H 	H 	0.34425 0.97712 0.77916 0.06300
N 	N 	0.07685 0.72552 0.84886 -0.19400
C 	C 	0.15373 0.04129 0.64140 -0.11200
H 	H 	0.94405 0.78976 0.35228 0.06500
H 	H 	0.25521 0.16728 0.37854 0.08200
O 	O 	0.94370 0.83879 0.71772 -0.38800
H 	H 	0.92937 0.67043 0.40146 0.09600
C 	C 	0.95860 0.47220 0.46892 -0.02000
O 	O 	0.95600 0.17484 0.18780 -0.37900
O 	O 	0.97167 0.88704 0.28924 -0.37000
H 	H 	0.97757 0.30296 0.13435 0.06100
O 	O 	0.25756 0.83581 0.45150 -0.36000
O 	O 	0.31676 0.48662 0.02913 -0.36500
C 	C 	0.15894 0.41929 0.26218 -0.03700
H 	H 	0.26967 0.03636 0.41306 0.02200
H 	H 	0.37537 0.29651 0.76500 0.09700
C 	C 	0.57841 0.16732 0.87531 0.29000
C 	C 	0.82610 0.53046 0.94684 0.29500
C 	C 	0.79786 0.38892 0.84945 0.32400
C 	C 	0.59577 0.36494 0.99930 0.28700
C 	C 	0.96783 0.40047 0.95924 0.32500
C 	C 	0.73517 0.12684 0.97618 0.28900
Ni	Ni	0.64558 0.35329 0.91447 1.11000
Ni	Ni	0.77480 0.33877 0.99336 1.11600
Ni	Ni	0.80313 0.26648 0.90817 1.11900
O 	O 	0.55384 0.20406 0.90472 -0.38400
O 	O 	0.67248 0.17627 0.87338 -0.36600
O 	O 	0.91278 0.35770 0.98963 -0.40200
O 	O 	0.73783 0.49945 0.93020 -0.37700
O 	O 	0.83211 0.49138 0.98139 -0.37000
O 	O 	0.79219 0.15805 0.94427 -0.37800
O 	O 	0.70451 0.37083 0.85541 -0.37600
O 	O 	0.84737 0.39429 0.87982 -0.41300
O 	O 	0.73135 0.18994 0.00281 -0.36400
O 	O 	0.55826 0.34305 0.96367 -0.36200
O 	O 	0.64134 0.31901 0.01438 -0.38300
O 	O 	0.94722 0.35196 0.92627 -0.36800
O 	O 	0.72558 0.30476 0.94112 -0.70300
H 	H 	0.67055 0.23827 0.94880 0.15300
C 	C 	0.70769 0.44247 0.63288 0.28700
C 	C 	0.35496 0.13753 0.55687 0.31900
C 	C 	0.59492 0.16313 0.64174 0.31500
C 	C 	0.46476 0.41382 0.54712 0.27700
C 	C 	0.60944 0.13730 0.51095 0.31900
C 	C 	0.77827 0.39840 0.50372 0.28800
Ni	Ni	0.50325 0.28325 0.60854 1.11300
Ni	Ni	0.54391 0.28643 0.51488 1.11800
Ni	Ni	0.70508 0.28698 0.57560 1.11900
O 	O 	0.60974 0.41420 0.63318 -0.37600
O 	O 	0.74110 0.37729 0.62497 -0.37000
O 	O 	0.53237 0.15224 0.51365 -0.39700
O 	O 	0.41643 0.14488 0.58439 -0.38500
O 	O 	0.39011 0.20453 0.52806 -0.37300
O 	O 	0.78881 0.40488 0.54182 -0.39100
O 	O 	0.55119 0.21605 0.65097 -0.37500
O 	O 	0.61821 0.15943 0.60549 -0.39100
O 	O 	0.68606 0.36054 0.48687 -0.36900
O 	O 	0.42969 0.35119 0.57800 -0.36100
O 	O 	0.52920 0.41011 0.52141 -0.37600
O 	O 	0.69429 0.19386 0.53042 -0.37700
O 	O 	0.59654 0.31353 0.56679 -0.71100
H 	H 	0.63251 0.38749 0.56587 0.16500
C 	C 	0.85301 0.77541 0.72968 0.31600
C 	C 	0.95118 0.82463 0.83602 0.28400
C 	C 	0.85627 0.05463 0.72224 0.28800
C 	C 	0.94684 0.14786 0.80883 0.29900
Ni	Ni	0.86792 0.92955 0.78685 1.12300
O 	O 	0.82269 0.96323 0.73643 -0.37400
O 	O 	0.81886 0.78932 0.76338 -0.37600
O 	O 	0.87865 0.05180 0.81620 -0.38400
O 	O 	0.97848 0.80141 0.80214 -0.36700
O 	O 	0.89963 0.87483 0.83634 -0.36000
O 	O 	0.94855 0.12879 0.72984 -0.38300
C 	C 	0.32578 0.55065 0.49336 0.30000
C 	C 	0.48036 0.87675 0.45470 0.28800
C 	C 	0.44825 0.64073 0.37621 0.31300
C 	C 	0.19701 0.59020 0.33784 0.29600
Ni	Ni	0.27199 0.71348 0.47426 1.11100
Ni	Ni	0.24386 0.53733 0.41431 1.11900
Ni	Ni	0.35746 0.76495 0.38532 1.12200
O 	O 	0.26250 0.82135 0.38366 -0.37900
O 	O 	0.35741 0.55942 0.37564 -0.37800
O 	O 	0.28097 0.60012 0.50678 -0.36100
O 	O 	0.34287 0.54962 0.45602 -0.38500
O 	O 	0.28886 0.67267 0.33825 -0.38300
O 	O 	0.42961 0.79559 0.47590 -0.36300
O 	O 	0.44395 0.88412 0.42070 -0.36200
O 	O 	0.45956 0.72114 0.39344 -0.39200
O 	O 	0.26746 0.66986 0.42268 -0.71600
H 	H 	0.20191 0.66199 0.41404 0.15900
C 	C 	0.52836 0.55859 0.05321 0.30600
C 	C 	0.33198 0.78493 0.12237 0.31700
C 	C 	0.58117 0.86611 0.08452 0.27300
C 	C 	0.52316 0.83733 0.97897 0.28500
Ni	Ni	0.42098 0.65089 0.10121 1.11200
Ni	Ni	0.37712 0.79405 0.04025 1.12000
Ni	Ni	0.41958 0.62523 0.00409 1.12100
O 	O 	0.47994 0.55412 0.08609 -0.37400
O 	O 	0.53992 0.62291 0.02646 -0.40000
O 	O 	0.36666 0.72770 0.13617 -0.37100
O 	O 	0.52872 0.75370 0.97773 -0.36300
O 	O 	0.43768 0.83365 0.98701 -0.38700
O 	O 	0.55548 0.78524 0.10709 -0.36100
O 	O 	0.51150 0.88946 0.07030 -0.36700
O 	O 	0.41380 0.69353 0.04923 -0.69500
H 	H 	0.48586 0.73396 0.04470 0.12800
C 	C 	0.75366 0.86663 0.27008 0.29800
C 	C 	0.86038 0.94347 0.16098 0.29400
Ni	Ni	0.87111 0.06485 0.22934 1.10500
Ni	Ni	0.94031 0.89135 0.23177 1.12400
O 	O 	0.76955 0.95966 0.26959 -0.36000
O 	O 	0.78978 0.83538 0.24168 -0.38400
O 	O 	0.80395 0.95846 0.18627 -0.36700
O 	O 	0.92240 0.91075 0.17315 -0.36800
O 	O 	0.97020 0.02751 0.24126 -0.71100
H 	H 	0.95586 0.02454 0.26950 0.13800
N 	N 	0.16121 0.14483 0.11756 -0.19800
H 	H 	0.26503 0.29369 0.06716 0.05400
H 	H 	0.21485 0.13652 0.10099 0.08500
H 	H 	0.11127 0.08511 0.13540 0.09500
H 	H 	0.97942 0.41126 0.08300 0.09400
C 	C 	0.74048 0.87173 0.06658 -0.04800
C 	C 	0.68860 0.92580 0.07319 -0.06700
C 	C 	0.74528 0.02221 0.08887 0.10000
C 	C 	0.83122 0.04349 0.11115 -0.06500
C 	C 	0.85406 0.96606 0.11914 -0.07200
C 	C 	0.82126 0.88824 0.09148 0.11700
N 	N 	0.86445 0.82877 0.08940 -0.20100
H 	H 	0.70704 0.80633 0.04788 0.05800
H 	H 	0.86642 0.11144 0.12779 0.05600
N 	N 	0.71259 0.09030 0.08595 -0.19700
H 	H 	0.83653 0.76835 0.07004 0.09200
H 	H 	0.92928 0.84536 0.10555 0.10700
H 	H 	0.75306 0.16070 0.09907 0.08600
H 	H 	0.64863 0.07493 0.06944 0.10500
C 	C 	0.31785 0.94169 0.13299 0.09600
N 	N 	0.35536 0.97829 0.09669 -0.18200
H 	H 	0.39467 0.95100 0.08044 0.07100
H 	H 	0.34944 0.03856 0.08505 0.07100
C 	C 	0.70266 0.78368 0.33519 -0.04800
C 	C 	0.67596 0.79134 0.29659 -0.09000
C 	C 	0.58028 0.71729 0.28228 0.10800
C 	C 	0.50857 0.64608 0.30853 -0.04700
C 	C 	0.52906 0.65276 0.34873 -0.10100
C 	C 	0.63092 0.71106 0.36082 0.11600
N 	N 	0.65836 0.70153 0.39773 -0.20000
H 	H 	0.77918 0.83364 0.34524 0.05200
H 	H 	0.43353 0.59281 0.29831 0.05500
N 	N 	0.55668 0.71456 0.24376 -0.20100
H 	H 	0.73286 0.74708 0.40721 0.09400
H 	H 	0.60639 0.64650 0.41683 0.10300
H 	H 	0.60007 0.77465 0.22488 0.10700
H 	H 	0.49374 0.65185 0.23231 0.08100
C 	C 	0.14861 0.54711 0.30023 -0.08600
C 	C 	0.20166 0.52031 0.27335 0.10500
N 	N 	0.28766 0.59159 0.25582 -0.19900
H 	H 	0.20415 0.39388 0.24621 0.04700
H 	H 	0.32107 0.57231 0.23307 0.08100
H 	H 	0.31764 0.66736 0.26283 0.09500
C 	C 	0.59123 0.04691 0.49166 -0.08000
C 	C 	0.54932 0.96810 0.47444 0.00400
C 	C 	0.87099 0.43472 0.48055 -0.04600
C 	C 	0.41105 0.46604 0.53510 -0.03400
C 	C 	0.36893 0.50706 0.51953 -0.04700
C 	C 	0.80034 0.17766 0.70483 -0.05000
C 	C 	0.78453 0.07957 0.70199 -0.09000
C 	C 	0.69668 0.00576 0.68271 0.09500
C 	C 	0.62237 0.02984 0.67031 -0.06300
C 	C 	0.64042 0.12913 0.67217 -0.10200
C 	C 	0.72592 0.20089 0.69283 0.10800
N 	N 	0.73528 0.29094 0.70260 -0.20000
H 	H 	0.86868 0.23541 0.71845 0.05700
H 	H 	0.55628 0.97415 0.65479 0.06900
N 	N 	0.68849 0.91641 0.67221 -0.18900
H 	H 	0.79880 0.34262 0.71814 0.08700
H 	H 	0.67427 0.30440 0.70033 0.10800
H 	H 	0.75222 0.90684 0.67111 0.10800
H 	H 	0.62034 0.85930 0.66100 0.09000
C 	C 	0.16608 0.12575 0.61998 -0.05100
C 	C 	0.16404 0.96573 0.62120 0.12500
C 	C 	0.20842 0.98746 0.58339 -0.01500
C 	C 	0.24639 0.08437 0.56726 -0.12700
C 	C 	0.20477 0.14252 0.58154 0.11200
N 	N 	0.20698 0.21755 0.55943 -0.19900
H 	H 	0.14676 0.17858 0.63322 0.04900
H 	H 	0.22630 0.93456 0.56928 0.04700
H 	H 	0.18111 0.26435 0.57085 0.09100
H 	H 	0.23077 0.22722 0.53020 0.10400
C 	C 	0.82131 0.54158 0.68612 -0.04700
C 	C 	0.77535 0.54010 0.65057 -0.08800
C 	C 	0.75800 0.62058 0.64162 0.11000
C 	C 	0.76155 0.68479 0.67152 -0.03600
C 	C 	0.79877 0.68061 0.70861 -0.10200
C 	C 	0.82295 0.60380 0.71659 0.10800
N 	N 	0.84799 0.58993 0.75336 -0.20500
H 	H 	0.85004 0.49038 0.69093 0.04900
H 	H 	0.74521 0.74473 0.66477 0.04700
N 	N 	0.73346 0.63350 0.60462 -0.19800
H 	H 	0.87166 0.53723 0.75873 0.08700
H 	H 	0.83724 0.62616 0.77725 0.10900
H 	H 	0.73455 0.58897 0.58168 0.09500
H 	H 	0.71617 0.69035 0.59826 0.09300
C 	C 	0.06238 0.48794 0.96485 -0.06700
C 	C 	0.67204 0.02126 0.98071 -0.07400
C 	C 	0.61142 0.93337 0.98011 -0.01600
C 	C 	0.56703 0.42213 0.02448 -0.03800
C 	C 	0.54687 0.47885 0.04179 -0.05700
C 	C 	0.93440 0.39451 0.80796 -0.04300
C 	C 	0.82904 0.35478 0.81358 -0.12500
C 	C 	0.76683 0.25686 0.80003 0.11700
C 	C 	0.80438 0.18837 0.79997 -0.05800
C 	C 	0.90959 0.22346 0.80386 -0.09400
C 	C 	0.97595 0.32962 0.80344 0.10600
H 	H 	0.98478 0.47434 0.81186 0.04600
H 	H 	0.75285 0.10953 0.79453 0.05200
N 	N 	0.67810 0.23270 0.78229 -0.19800
H 	H 	0.65542 0.28669 0.77848 0.10000
H 	H 	0.63488 0.16214 0.76960 0.09300
C 	C 	0.38706 0.04920 0.79340 -0.07000
C 	C 	0.35516 0.12178 0.78949 -0.07900
C 	C 	0.41842 0.21847 0.80411 0.10100
C 	C 	0.49330 0.23287 0.83130 -0.03700
C 	C 	0.51934 0.15711 0.83905 -0.08800
C 	C 	0.46743 0.06529 0.81875 0.09500
N 	N 	0.49358 0.99255 0.82332 -0.18000
H 	H 	0.52675 0.30102 0.84830 0.02400
N 	N 	0.40943 0.29828 0.79170 -0.19700
H 	H 	0.45352 0.92407 0.80881 0.08700
H 	H 	0.55563 0.00436 0.84034 0.08400
H 	H 	0.44808 0.36717 0.80606 0.08500
C 	C 	0.97287 0.63778 0.90428 -0.02900
C 	C 	0.90682 0.63182 0.93457 -0.09000
C 	C 	0.88792 0.71324 0.93904 0.12300
C 	C 	0.90856 0.78112 0.90761 -0.05200
C 	C 	0.95709 0.77430 0.87338 -0.06400
C 	C 	0.00156 0.71113 0.87432 0.08700
H 	H 	0.99687 0.58176 0.90256 0.05900
H 	H 	0.88403 0.83674 0.90945 0.06800
N 	N 	0.84280 0.72182 0.97217 -0.20000
H 	H 	0.82840 0.67317 0.99591 0.10300
H 	H 	0.82447 0.77917 0.97490 0.09800
