data_crystal

_cell_length_a 25.58387
_cell_length_b 26.14217
_cell_length_c 17.51565
_cell_angle_alpha 95.48474
_cell_angle_beta  95.49008
_cell_angle_gamma 125.82516

_symmetry_space_group_name_	'P 1'
_symmetry_space_group_name_H-M	'P 1'

loop_
_symmetry_equiv_pos_as_xyz
  x,y,z

loop_
_atom_site_label
_atom_site_type_symbol
_atom_site_fract_x
_atom_site_fract_y
_atom_site_fract_z
_atom_site_charge
C 	C 	0.06454 0.03306 0.07526 0.15800
C 	C 	0.03939 0.06812 0.08656 -0.13100
H 	H 	0.07009 0.11921 0.08606 0.11800
C 	C 	0.03315 0.00315 0.32513 0.12700
H 	H 	0.02187 0.07753 0.31206 0.09400
C 	C 	0.34446 0.13398 0.43664 -0.13400
C 	C 	0.31278 0.16295 0.42828 0.02300
C 	C 	0.34965 0.23012 0.44496 0.29500
C 	C 	0.41790 0.26800 0.46621 -0.05100
C 	C 	0.45010 0.23921 0.46973 -0.13500
C 	C 	0.41289 0.17190 0.45715 0.37300
C 	C 	0.24118 0.12300 0.40089 0.00700
F 	F 	0.31948 0.25870 0.43801 -0.39900
H 	H 	0.44602 0.31985 0.47719 0.11400
F 	F 	0.44317 0.14326 0.46065 -0.43300
H 	H 	0.31615 0.08210 0.42536 0.13600
C 	C 	0.21319 0.08749 0.32424 0.32000
C 	C 	0.14522 0.04981 0.29862 -0.08000
C 	C 	0.10496 0.04801 0.34896 -0.07000
C 	C 	0.13309 0.08429 0.42514 0.34800
C 	C 	0.20086 0.12139 0.45100 -0.11000
F 	F 	0.25187 0.08971 0.27467 -0.41700
H 	H 	0.12378 0.02158 0.23996 0.10200
F 	F 	0.09444 0.08211 0.47472 -0.39000
H 	H 	0.22209 0.14864 0.51015 0.14200
C 	C 	0.35585 0.12020 0.04425 -0.19200
C 	C 	0.31774 0.13248 0.99840 0.09800
C 	C 	0.34145 0.16526 0.93651 0.28800
C 	C 	0.40356 0.18706 0.92205 -0.05400
C 	C 	0.44328 0.17758 0.97026 -0.11000
C 	C 	0.41829 0.14260 0.03061 0.35600
C 	C 	0.25292 0.11079 0.01530 -0.06800
F 	F 	0.30494 0.17730 0.89153 -0.38200
H 	H 	0.42165 0.21309 0.87482 0.10700
F 	F 	0.45533 0.13245 0.07798 -0.42500
H 	H 	0.33746 0.09409 0.09137 0.14500
C 	C 	0.19535 0.06161 0.96262 0.36800
C 	C 	0.13403 0.03850 0.98090 -0.06800
C 	C 	0.12949 0.06336 0.05264 -0.10200
C 	C 	0.18706 0.11402 0.10430 0.34300
C 	C 	0.24853 0.13746 0.08574 -0.09700
F 	F 	0.19886 0.03509 0.89461 -0.39300
F 	F 	0.18351 0.13986 0.17279 -0.42400
H 	H 	0.29273 0.17577 0.12646 0.12100
H 	H 	0.08989 0.00013 0.94011 0.13900
H 	H 	0.04351 0.93962 0.06589 0.09700
C 	C 	0.00090 0.93806 0.32782 -0.12500
H 	H 	0.02929 0.91996 0.33799 0.09500
O 	O 	0.54748 0.19455 0.99792 -0.28600
C 	C 	0.51339 0.21200 0.96460 0.32400
O 	O 	0.54445 0.26782 0.94278 -0.37200
O 	O 	0.55753 0.26952 0.52099 -0.33800
C 	C 	0.52156 0.27879 0.47371 0.33900
O 	O 	0.54926 0.32896 0.43904 -0.35900
C 	C 	0.02409 0.96674 0.07409 -0.14600
H 	H 	0.60086 0.25130 0.37657 0.19400
O 	O 	0.60651 0.32117 0.13200 -0.33200
H 	H 	0.61428 0.21502 0.87038 0.19700
Cu	Cu	0.62310 0.35762 0.38289 0.92400
Cu	Cu	0.61364 0.35213 0.03127 0.89500
O 	O 	0.63576 0.29576 0.40453 -0.63600
Cu	Cu	0.64839 0.30591 0.51637 0.90200
O 	O 	0.65378 0.36712 0.28132 -0.31600
Cu	Cu	0.64731 0.25266 0.02029 0.92400
C 	C 	0.64661 0.31088 0.16750 0.20700
H 	H 	0.63910 0.52225 0.93613 0.11200
O 	O 	0.65263 0.25189 0.90841 -0.62700
O 	O 	0.63854 0.42512 0.97804 -0.35900
C 	C 	0.66697 0.33051 0.24457 0.19900
O 	O 	0.65599 0.27094 0.13126 -0.28900
O 	O 	0.66633 0.31805 0.63064 -0.31900
H 	H 	0.66866 0.10018 0.34478 0.11200
O 	O 	0.67048 0.32400 0.78387 -0.32000
F 	F 	0.67897 0.49655 0.40082 -0.46300
Cu	Cu	0.67337 0.33693 0.89732 0.90500
O 	O 	0.68170 0.34709 0.00927 -0.65100
C 	C 	0.68939 0.45553 0.94291 0.34600
C 	C 	0.69579 0.29898 0.74687 0.20500
C 	C 	0.69227 0.55272 0.94794 -0.04100
O 	O 	0.70227 0.22375 0.04733 -0.31800
O 	O 	0.70099 0.42345 0.89332 -0.33900
C 	C 	0.69756 0.30004 0.67103 0.20200
O 	O 	0.70010 0.21014 0.43040 -0.41900
O 	O 	0.70895 0.42867 0.46967 -0.35100
F 	F 	0.69405 0.64529 0.96554 -0.38100
O 	O 	0.70986 0.32338 0.27982 -0.29200
F 	F 	0.70084 0.02248 0.32080 -0.39000
O 	O 	0.71383 0.26738 0.78121 -0.36200
C 	C 	0.72005 0.12409 0.34243 -0.04700
H 	H 	0.72616 0.38295 0.03828 0.18500
Cu	Cu	0.73345 0.33674 0.39100 0.93500
Cu	Cu	0.72655 0.26024 0.53150 0.88200
H 	H 	0.73352 0.61270 0.37518 0.13100
C 	C 	0.72713 0.61944 0.96503 0.29500
C 	C 	0.72590 0.52533 0.94786 -0.14000
Cu	Cu	0.73858 0.27806 0.89105 0.88200
O 	O 	0.73891 0.33666 0.50461 -0.63400
C 	C 	0.74134 0.23003 0.38193 0.34500
O 	O 	0.73622 0.28928 0.64012 -0.35900
F 	F 	0.74028 0.18442 0.15988 -0.41700
H 	H 	0.00192 0.13178 0.20707 0.09400
C 	C 	0.74470 0.54251 0.41005 0.37600
C 	C 	0.74302 0.08738 0.32938 0.30100
C 	C 	0.76373 0.25777 0.03884 0.30400
C 	C 	0.76401 0.46334 0.44417 0.33300
C 	C 	0.76365 0.19151 0.35518 -0.13100
C 	C 	0.99673 0.02694 0.31336 -0.06100
C 	C 	0.97321 0.03639 0.09300 0.15600
O 	O 	0.78422 0.30157 0.99505 -0.38600
O 	O 	0.78501 0.43422 0.40768 -0.33800
O 	O 	0.76877 0.28758 0.36543 -0.30900
H 	H 	0.77425 0.37761 0.54000 0.19700
C 	C 	0.85415 0.75555 0.42693 -0.12300
C 	C 	0.85917 0.71302 0.37895 0.00700
C 	C 	0.88392 0.72928 0.30996 0.32800
C 	C 	0.90536 0.78848 0.29049 -0.08100
C 	C 	0.90124 0.83154 0.33900 -0.07500
C 	C 	0.87512 0.81458 0.40720 0.34900
C 	C 	0.83542 0.65013 0.39911 0.02500
F 	F 	0.88737 0.68779 0.26195 -0.40100
H 	H 	0.92680 0.80166 0.23879 0.10400
F 	F 	0.87247 0.85635 0.45587 -0.40500
H 	H 	0.83455 0.74308 0.47991 0.13000
C 	C 	0.87983 0.63696 0.42282 0.30300
C 	C 	0.85659 0.57637 0.43933 -0.04900
C 	C 	0.78894 0.52875 0.43288 -0.14000
C 	C 	0.76802 0.60291 0.39360 -0.14700
F 	F 	0.94535 0.68272 0.42957 -0.39500
H 	H 	0.89109 0.56637 0.45674 0.10800
C 	C 	0.85289 0.18498 0.33760 -0.15500
C 	C 	0.80986 0.11780 0.32841 0.02200
C 	C 	0.83001 0.22172 0.35049 0.38300
C 	C 	0.83616 0.08022 0.32518 0.00800
F 	F 	0.87303 0.28673 0.36227 -0.41900
H 	H 	0.90449 0.20884 0.33686 0.15500
C 	C 	0.82018 0.03707 0.25683 0.31800
C 	C 	0.84901 0.00515 0.25292 -0.09100
C 	C 	0.89362 0.01585 0.31718 -0.05900
C 	C 	0.90767 0.05715 0.38632 0.34600
C 	C 	0.87923 0.08926 0.39012 -0.12000
F 	F 	0.77733 0.02652 0.19416 -0.41300
F 	F 	0.94956 0.06671 0.44953 -0.38400
H 	H 	0.89112 0.12171 0.44337 0.12900
C 	C 	0.82968 0.63218 0.97930 -0.15600
C 	C 	0.79599 0.65935 0.98239 0.06800
C 	C 	0.79486 0.56546 0.96196 0.38700
C 	C 	0.83301 0.72960 0.00389 -0.05600
F 	F 	0.82810 0.53976 0.96237 -0.43200
H 	H 	0.88285 0.66277 0.99183 0.14200
C 	C 	0.83398 0.75758 0.07717 0.32800
C 	C 	0.86939 0.76890 0.95214 -0.08700
F 	F 	0.79813 0.71994 0.12730 -0.41400
H 	H 	0.86805 0.74763 0.89506 0.12100
C 	C 	0.81899 0.16792 0.13115 -0.13700
C 	C 	0.86909 0.18106 0.09081 0.01600
C 	C 	0.89019 0.22595 0.04113 0.30700
C 	C 	0.85840 0.25414 0.02790 -0.10300
C 	C 	0.80518 0.23777 0.06432 -0.12000
C 	C 	0.78792 0.19695 0.11923 0.37300
C 	C 	0.89397 0.14249 0.09345 0.02700
F 	F 	0.93978 0.24028 0.00323 -0.41400
H 	H 	0.87351 0.28672 0.98697 0.12300
H 	H 	0.80250 0.13347 0.16953 0.14900
C 	C 	0.94067 0.15620 0.15732 0.30500
C 	C 	0.96583 0.12088 0.15771 -0.07700
C 	C 	0.94465 0.07184 0.09424 -0.08600
C 	C 	0.89751 0.05790 0.03074 0.33900
C 	C 	0.87207 0.09282 0.03070 -0.14500
F 	F 	0.96248 0.20437 0.21819 -0.41300
F 	F 	0.87749 0.01147 0.96829 -0.38500
H 	H 	0.83597 0.08192 0.98133 0.16100
C 	C 	0.87289 0.82450 0.09931 -0.09500
C 	C 	0.91151 0.86381 0.04882 -0.10800
C 	C 	0.90814 0.83567 0.97415 0.36900
H 	H 	0.87377 0.84576 0.15602 0.08900
F 	F 	0.94267 0.87315 0.92314 -0.41100
C 	C 	0.95703 0.93426 0.07462 0.15400
H 	H 	0.88062 0.94446 0.08930 0.10300
C 	C 	0.93290 0.89752 0.32440 0.13900
C 	C 	0.89659 0.92187 0.31473 -0.09300
H 	H 	0.84418 0.89103 0.31376 0.11000
C 	C 	0.92875 0.98704 0.31093 0.10600
C 	C 	0.93235 0.96944 0.08792 -0.13300
H 	H 	0.83761 0.97310 0.19955 0.09200
