data_crystal

_cell_length_a 25.61635
_cell_length_b 25.91869
_cell_length_c 35.17142
_cell_angle_alpha 95.52870
_cell_angle_beta  95.53161
_cell_angle_gamma 125.71072

_symmetry_space_group_name_	'P 1'
_symmetry_space_group_name_H-M	'P 1'

loop_
_symmetry_equiv_pos_as_xyz
  x,y,z

loop_
_atom_site_label
_atom_site_type_symbol
_atom_site_fract_x
_atom_site_fract_y
_atom_site_fract_z
_atom_site_charge
C 	C 	0.97485 0.05098 0.99769 0.12700
N 	N 	0.93648 0.98607 0.99640 -0.13800
C 	C 	0.96150 0.95249 0.99151 0.12600
N 	N 	0.02542 0.98414 0.98879 -0.14100
C 	C 	0.06440 0.04923 0.99096 0.12800
N 	N 	0.03886 0.08253 0.99501 -0.13600
C 	C 	0.92254 0.96890 0.44631 0.12500
N 	N 	0.89226 0.90644 0.45055 -0.13500
C 	C 	0.92812 0.88467 0.45958 0.12600
N 	N 	0.99445 0.92593 0.46526 -0.13900
C 	C 	0.02498 0.98841 0.46118 0.12300
N 	N 	0.98893 0.00966 0.45126 -0.13600
Cu	Cu	0.65071 0.27031 0.00974 0.93200
Cu	Cu	0.70113 0.26648 0.92810 0.87300
Cu	Cu	0.67979 0.36302 0.95387 0.89900
Cu	Cu	0.64893 0.38965 0.02963 0.89700
C 	C 	0.66981 0.32531 0.08956 0.31300
O 	O 	0.55551 0.23128 0.00981 -0.35400
C 	C 	0.66404 0.31566 0.87065 0.30900
O 	O 	0.70107 0.36926 0.00863 -0.64000
O 	O 	0.63864 0.26951 0.95318 -0.64000
O 	O 	0.69184 0.22470 0.01051 -0.35500
O 	O 	0.76251 0.28808 0.97285 -0.43100
O 	O 	0.64067 0.35084 0.07727 -0.38000
O 	O 	0.72638 0.45511 0.95741 -0.36700
C 	C 	0.72363 0.49344 0.98337 0.29200
C 	C 	0.52745 0.25502 0.99354 0.28200
O 	O 	0.56364 0.31403 0.98648 -0.38700
O 	O 	0.68329 0.47048 0.00835 -0.38400
O 	O 	0.67581 0.28775 0.06514 -0.34400
C 	C 	0.74578 0.24742 0.99681 0.28900
O 	O 	0.66389 0.35556 0.89706 -0.36200
O 	O 	0.66029 0.26539 0.87935 -0.41200
H 	H 	0.74842 0.39907 0.01998 0.17800
H 	H 	0.59303 0.24008 0.93852 0.17900
Cu	Cu	0.72172 0.30964 0.44961 0.92900
Cu	Cu	0.73217 0.26327 0.53164 0.88000
Cu	Cu	0.62445 0.27263 0.50460 0.89900
Cu	Cu	0.59548 0.30389 0.42758 0.90000
C 	C 	0.67725 0.30617 0.37086 0.31300
O 	O 	0.76177 0.40399 0.45034 -0.35700
C 	C 	0.67739 0.29340 0.58833 0.31000
O 	O 	0.62082 0.25670 0.44987 -0.63900
O 	O 	0.72053 0.31943 0.50591 -0.64000
O 	O 	0.76931 0.27032 0.44811 -0.36300
O 	O 	0.71026 0.20089 0.48764 -0.42800
O 	O 	0.62257 0.29766 0.37679 -0.36500
O 	O 	0.53030 0.22207 0.49913 -0.37000
C 	C 	0.49274 0.22836 0.47464 0.29100
C 	C 	0.73266 0.42968 0.46083 0.29300
O 	O 	0.67299 0.39288 0.46770 -0.38200
O 	O 	0.51807 0.27365 0.45312 -0.38500
O 	O 	0.70599 0.28897 0.39413 -0.35900
C 	C 	0.74803 0.21708 0.46159 0.28900
O 	O 	0.62703 0.27466 0.56114 -0.37500
O 	O 	0.73122 0.30391 0.57941 -0.39700
H 	H 	0.59345 0.21019 0.43791 0.17100
H 	H 	0.74717 0.36475 0.52013 0.17700
C 	C 	0.67202 0.30014 0.62953 -0.10000
C 	C 	0.68132 0.26526 0.65420 0.15000
C 	C 	0.67702 0.27303 0.69338 -0.08400
C 	C 	0.66148 0.31374 0.70812 0.02300
C 	C 	0.65086 0.34761 0.68337 0.08300
C 	C 	0.65630 0.34078 0.64426 -0.01000
H 	H 	0.68466 0.24650 0.71231 0.08200
C 	C 	0.65665 0.32054 0.74954 0.02400
H 	H 	0.64842 0.36717 0.62534 0.06100
C 	C 	0.71084 0.37271 0.77659 -0.08400
C 	C 	0.71188 0.37378 0.81653 0.14400
C 	C 	0.65854 0.32185 0.82963 -0.09900
C 	C 	0.60269 0.27179 0.80261 -0.01000
C 	C 	0.60136 0.27115 0.76269 0.08200
H 	H 	0.75311 0.41131 0.76657 0.08300
H 	H 	0.56097 0.23243 0.81259 0.06100
Br	Br	0.62780 0.40243 0.70231 -0.21200
Br	Br	0.69549 0.20347 0.63445 -0.26400
Br	Br	0.78803 0.44480 0.85267 -0.24800
Br	Br	0.52412 0.20186 0.72651 -0.21200
C 	C 	0.67851 0.32358 0.13125 -0.09500
C 	C 	0.74032 0.34814 0.15278 0.14600
C 	C 	0.74754 0.34716 0.19265 -0.08200
C 	C 	0.69347 0.32155 0.21118 0.02300
C 	C 	0.63162 0.29646 0.18953 0.08500
C 	C 	0.62445 0.29762 0.14980 -0.01100
H 	H 	0.79524 0.36666 0.20926 0.08400
C 	C 	0.70212 0.32295 0.25345 0.02200
H 	H 	0.57670 0.27817 0.13327 0.06700
C 	C 	0.71335 0.37482 0.27904 -0.08200
C 	C 	0.70918 0.37144 0.31821 0.14700
C 	C 	0.69402 0.31584 0.33207 -0.09300
C 	C 	0.68791 0.26621 0.30714 -0.00900
C 	C 	0.69183 0.26951 0.26792 0.08600
H 	H 	0.72277 0.41669 0.26816 0.08100
H 	H 	0.67735 0.22380 0.31782 0.06800
Br	Br	0.55632 0.26038 0.21380 -0.21400
Br	Br	0.81577 0.38525 0.12862 -0.23700
Br	Br	0.72409 0.44309 0.35230 -0.24800
Br	Br	0.68013 0.19936 0.23417 -0.20900
C 	C 	0.81119 0.69548 0.44088 0.00300
C 	C 	0.76067 0.63257 0.44468 -0.05100
C 	C 	0.77429 0.58738 0.44443 0.02400
C 	C 	0.83751 0.60624 0.44257 0.00700
C 	C 	0.89010 0.67133 0.44544 -0.05400
C 	C 	0.87587 0.71581 0.44344 0.02800
S 	S 	0.81370 0.76054 0.45347 0.01800
C 	C 	0.89527 0.81604 0.46172 -0.01900
C 	C 	0.92324 0.78372 0.45472 -0.04500
S 	S 	0.84341 0.55027 0.45680 0.04600
C 	C 	0.76690 0.49981 0.46475 -0.07300
C 	C 	0.73421 0.52718 0.45649 -0.01400
H 	H 	0.71375 0.62012 0.44945 0.05200
H 	H 	0.94019 0.68717 0.45080 0.05200
H 	H 	0.97544 0.80804 0.45755 0.05300
H 	H 	0.68321 0.50387 0.45804 0.04600
C 	C 	0.80641 0.02144 0.43796 0.00300
C 	C 	0.76808 0.03643 0.45442 -0.05000
C 	C 	0.78736 0.09979 0.45684 0.01700
C 	C 	0.84601 0.14742 0.44588 -0.00000
C 	C 	0.88462 0.13264 0.42964 -0.05400
C 	C 	0.86539 0.06925 0.42721 0.02600
S 	S 	0.80991 0.96142 0.44644 0.01500
C 	C 	0.88326 0.99139 0.43481 -0.02000
C 	C 	0.90902 0.05254 0.42555 -0.04200
S 	S 	0.84259 0.20763 0.43778 0.03400
C 	C 	0.76854 0.17692 0.44862 -0.07600
C 	C 	0.74419 0.11689 0.45923 -0.02100
H 	H 	0.72376 0.99967 0.46375 0.04900
H 	H 	0.92906 0.16951 0.42047 0.05200
H 	H 	0.95951 0.08649 0.42256 0.05400
H 	H 	0.69699 0.08639 0.46766 0.04700
C 	C 	0.21291 0.13289 0.48008 0.00300
C 	C 	0.27277 0.18000 0.47020 -0.05200
C 	C 	0.32729 0.18179 0.48364 0.01900
C 	C 	0.32069 0.13569 0.50493 0.00300
C 	C 	0.25900 0.08280 0.50933 -0.05400
C 	C 	0.20498 0.08257 0.49745 0.02700
S 	S 	0.13996 0.10645 0.45576 0.01400
C 	C 	0.09680 0.03237 0.46662 -0.01800
C 	C 	0.13927 0.02615 0.49031 -0.04300
S 	S 	0.38463 0.13449 0.50297 0.04300
C 	C 	0.42272 0.19178 0.47617 -0.07400
C 	C 	0.38532 0.21416 0.46792 -0.01700
H 	H 	0.27593 0.21143 0.45085 0.05100
H 	H 	0.25269 0.04162 0.51941 0.05300
H 	H 	0.12410 0.98215 0.50064 0.05100
H 	H 	0.39859 0.25119 0.45073 0.04800
C 	C 	0.81691 0.76762 0.97497 0.00400
C 	C 	0.76951 0.70872 0.98516 -0.05600
C 	C 	0.76765 0.65477 0.97199 0.02100
C 	C 	0.81370 0.66083 0.95025 0.00100
C 	C 	0.86677 0.72156 0.94527 -0.05300
C 	C 	0.86742 0.77511 0.95731 0.02600
S 	S 	0.84454 0.83971 0.99959 0.01200
C 	C 	0.91949 0.88206 0.98875 -0.02000
C 	C 	0.92486 0.83981 0.96459 -0.04500
S 	S 	0.81606 0.59854 0.95309 0.05200
C 	C 	0.75969 0.56208 0.98095 -0.07400
C 	C 	0.73642 0.59851 0.98875 -0.02000
H 	H 	0.73827 0.70599 0.00484 0.05300
H 	H 	0.90820 0.72759 0.93494 0.05300
H 	H 	0.96873 0.85468 0.95345 0.05200
H 	H 	0.69964 0.58588 0.00642 0.04900
C 	C 	0.79229 0.12936 0.99020 -0.00500
C 	C 	0.80161 0.08333 0.99872 -0.05500
C 	C 	0.85716 0.09042 0.98927 0.02400
C 	C 	0.90343 0.14434 0.97414 0.00200
C 	C 	0.89911 0.19537 0.97177 -0.05400
C 	C 	0.84154 0.18624 0.97879 0.01800
S 	S 	0.74393 0.14307 0.00959 0.04000
C 	C 	0.78132 0.21962 0.00317 -0.07000
C 	C 	0.83516 0.23686 0.98569 -0.02800
S 	S 	0.97264 0.15147 0.98006 0.01400
C 	C 	0.94664 0.08660 0.00057 -0.01500
C 	C 	0.88105 0.05731 0.00364 -0.04200
H 	H 	0.76862 0.04524 0.01361 0.05500
H 	H 	0.93994 0.24126 0.96637 0.05100
H 	H 	0.86748 0.28347 0.97750 0.04600
H 	H 	0.85183 0.01404 0.01576 0.05500
C 	C 	0.25544 0.17018 0.01025 0.00200
C 	C 	0.31836 0.22080 0.00586 -0.04900
C 	C 	0.36580 0.20958 0.00730 0.01900
C 	C 	0.34910 0.14846 0.01090 0.00600
C 	C 	0.28402 0.09541 0.00874 -0.05600
C 	C 	0.23729 0.10732 0.00952 0.03100
S 	S 	0.18799 0.16426 0.99616 0.01600
C 	C 	0.13420 0.08352 0.98949 -0.01900
C 	C 	0.16900 0.05857 0.99832 -0.04800
S 	S 	0.40711 0.14419 0.99769 0.03400
C 	C 	0.45614 0.21906 0.98824 -0.07400
C 	C 	0.42628 0.24963 0.99491 -0.02300
H 	H 	0.32910 0.26589 0.99968 0.04900
H 	H 	0.26980 0.04654 0.00473 0.05400
H 	H 	0.14616 0.00746 0.99656 0.05400
H 	H 	0.44827 0.29936 0.99225 0.04400
