data_crystal

_cell_length_a 49.55043
_cell_length_b 43.29479
_cell_length_c 22.95474
_cell_angle_alpha 89.95757
_cell_angle_beta  89.92347
_cell_angle_gamma 87.24821

_symmetry_space_group_name_	'P 1'
_symmetry_space_group_name_H-M	'P 1'

loop_
_symmetry_equiv_pos_as_xyz
  x,y,z

loop_
_atom_site_label
_atom_site_type_symbol
_atom_site_fract_x
_atom_site_fract_y
_atom_site_fract_z
_atom_site_charge
C 	C 	0.45631 0.55015 0.97627 -0.03300
C 	C 	0.47959 0.56626 0.96650 -0.03000
C 	C 	0.45651 0.51784 0.96858 0.02100
C 	C 	0.48075 0.50165 0.95166 0.00000
C 	C 	0.50442 0.51799 0.94199 0.00100
C 	C 	0.50385 0.55051 0.94942 0.01700
C 	C 	0.48136 0.46912 0.94436 0.01500
C 	C 	0.50526 0.45358 0.92455 -0.03100
C 	C 	0.52868 0.50177 0.92534 0.01500
C 	C 	0.52770 0.56659 0.93996 -0.00900
C 	C 	0.55166 0.55027 0.92445 -0.03500
C 	C 	0.55259 0.51806 0.91873 -0.00400
C 	C 	0.43292 0.50131 0.97789 -0.01500
C 	C 	0.43394 0.46910 0.97258 -0.03300
C 	C 	0.45782 0.45284 0.95625 -0.00000
C 	C 	0.52833 0.60038 0.94861 0.05000
C 	C 	0.52367 0.62051 0.90141 -0.04500
C 	C 	0.52831 0.65198 0.90714 -0.01500
C 	C 	0.53785 0.66352 0.96008 0.02400
C 	C 	0.54141 0.64353 0.00797 -0.03800
C 	C 	0.53669 0.61211 0.00222 -0.06800
C 	C 	0.57920 0.50160 0.91148 0.02600
C 	C 	0.59118 0.48569 0.95879 -0.04100
C 	C 	0.61824 0.47514 0.95593 -0.01000
C 	C 	0.59406 0.50539 0.86013 -0.04100
C 	C 	0.62121 0.49518 0.85750 -0.01100
C 	C 	0.63364 0.48088 0.90607 -0.00200
C 	C 	0.40674 0.51740 0.99138 0.07000
C 	C 	0.39667 0.51732 0.04846 -0.09200
C 	C 	0.37027 0.52847 0.05989 0.01200
C 	C 	0.35372 0.53974 0.01422 -0.04600
C 	C 	0.36434 0.54129 0.95758 0.03500
C 	C 	0.39071 0.53003 0.94620 -0.06900
C 	C 	0.45784 0.41871 0.95274 0.01800
C 	C 	0.44374 0.40465 0.90778 -0.03800
C 	C 	0.43979 0.37291 0.90949 -0.00800
C 	C 	0.45012 0.35490 0.95598 -0.00700
C 	C 	0.46532 0.36871 0.99954 0.01300
C 	C 	0.46900 0.40054 0.99815 -0.01700
C 	C 	0.52856 0.46970 0.91495 -0.03300
H 	H 	0.51721 0.61162 0.85985 0.06100
H 	H 	0.52543 0.66715 0.86987 0.06600
H 	H 	0.54831 0.65223 0.04933 0.06100
H 	H 	0.54026 0.59671 0.03892 0.05600
H 	H 	0.35181 0.54997 0.92196 0.05600
H 	H 	0.39842 0.53025 0.90202 0.06700
H 	H 	0.36244 0.52762 0.10393 0.05300
H 	H 	0.40902 0.50778 0.08363 0.06300
H 	H 	0.43509 0.41851 0.87252 0.06000
H 	H 	0.42832 0.36241 0.87526 0.06600
H 	H 	0.47986 0.41122 0.03313 0.03300
H 	H 	0.47343 0.35502 0.03556 0.03800
H 	H 	0.57983 0.48260 0.99858 0.06200
H 	H 	0.62760 0.46401 0.99360 0.06700
H 	H 	0.58489 0.51744 0.82322 0.06000
H 	H 	0.63284 0.49933 0.81850 0.06300
H 	H 	0.43817 0.56298 0.99024 0.05900
H 	H 	0.47864 0.59108 0.97258 0.05800
H 	H 	0.57002 0.56265 0.91880 0.05900
H 	H 	0.54642 0.45715 0.89867 0.05600
H 	H 	0.50587 0.42900 0.91580 0.05700
H 	H 	0.41588 0.45656 0.98086 0.06200
Zn	Zn	0.38444 0.08357 0.00433 1.21900
C 	C 	0.33651 0.04812 0.99929 0.35900
O 	O 	0.40432 0.06908 0.07434 -0.43200
O 	O 	0.35129 0.02691 0.97120 -0.36900
O 	O 	0.38565 0.02220 0.07806 -0.42800
C 	C 	0.40001 0.05412 0.89767 0.33700
O 	O 	0.38285 0.07440 0.92136 -0.41200
O 	O 	0.41011 0.03099 0.92889 -0.41500
C 	C 	0.39757 0.04473 0.10420 0.33600
O 	O 	0.42043 0.11548 0.98163 -0.26800
Zn	Zn	0.39059 0.01495 0.99525 1.20300
O 	O 	0.34804 0.07109 0.02545 -0.39600
C 	C 	0.40405 0.13807 0.99816 0.29000
O 	O 	0.38040 0.13031 0.01529 -0.35100
C 	C 	0.51962 0.01845 0.55233 0.03300
C 	C 	0.49280 0.03173 0.55160 0.02900
C 	C 	0.52837 0.99806 0.50779 -0.04500
C 	C 	0.51067 0.99073 0.46257 0.03800
C 	C 	0.47520 0.02465 0.50603 -0.04100
C 	C 	0.48395 0.00419 0.46155 0.03600
H 	H 	0.45481 0.03486 0.50531 0.07500
H 	H 	0.54875 0.98784 0.50845 0.07800
C 	C 	0.46632 0.99592 0.41650 -0.01000
C 	C 	0.47498 0.97570 0.37155 0.03100
C 	C 	0.45944 0.97976 0.31964 -0.00800
C 	C 	0.43958 0.00369 0.32371 -0.00100
S 	S 	0.44130 0.01909 0.39006 0.10800
H 	H 	0.46393 0.96765 0.27935 0.08400
C 	C 	0.51868 0.96931 0.41877 -0.01700
C 	C 	0.50136 0.96221 0.37286 0.03900
C 	C 	0.51546 0.95072 0.32256 -0.02100
C 	C 	0.54361 0.94980 0.32874 0.02700
S 	S 	0.55031 0.96339 0.39486 0.11500
H 	H 	0.50586 0.94723 0.28097 0.09100
C 	C 	0.52816 0.04557 0.64393 0.03400
C 	C 	0.53721 0.02680 0.59745 -0.01300
S 	S 	0.56409 0.00551 0.62049 0.09600
C 	C 	0.56642 0.02061 0.68712 0.02900
C 	C 	0.54467 0.04211 0.69449 -0.02300
C 	C 	0.48459 0.05250 0.59646 -0.00800
C 	C 	0.50153 0.05821 0.64383 0.03000
C 	C 	0.48715 0.06843 0.69464 -0.01900
C 	C 	0.45913 0.07077 0.68652 0.02900
S 	S 	0.45277 0.05901 0.61884 0.08400
H 	H 	0.49632 0.07014 0.73716 0.09400
H 	H 	0.53941 0.05215 0.73636 0.09000
Zn	Zn	0.61393 0.93096 0.00144 1.21900
C 	C 	0.66267 0.96532 0.00758 0.27200
O 	O 	0.59348 0.93896 0.07406 -0.42200
O 	O 	0.64847 0.98967 0.98853 -0.36700
O 	O 	0.61438 0.98311 0.09497 -0.40800
C 	C 	0.59971 0.97177 0.90682 0.33300
O 	O 	0.61541 0.94793 0.92252 -0.38400
O 	O 	0.58991 0.99120 0.94618 -0.41700
C 	C 	0.59978 0.96028 0.11161 0.33000
O 	O 	0.57832 0.90084 0.96871 -0.20000
Zn	Zn	0.60963 0.99990 0.01710 1.19700
O 	O 	0.65042 0.94111 0.02728 -0.39900
C 	C 	0.59488 0.87735 0.97897 0.25900
O 	O 	0.61833 0.88394 0.99892 -0.31200
Zn	Zn	0.10523 0.56690 0.00103 1.21800
C 	C 	0.06219 0.61370 0.00407 0.27700
O 	O 	0.09696 0.56918 0.08483 -0.38400
O 	O 	0.04759 0.59425 0.03294 -0.36400
O 	O 	0.06630 0.53184 0.08068 -0.45300
C 	C 	0.07669 0.53876 0.90627 0.32300
O 	O 	0.09981 0.54019 0.93378 -0.36800
O 	O 	0.05456 0.55128 0.92932 -0.43700
C 	C 	0.08283 0.54835 0.11081 0.33500
O 	O 	0.14334 0.53416 0.02309 -0.24300
Zn	Zn	0.04785 0.54795 0.01184 1.18900
O 	O 	0.08373 0.60356 0.97512 -0.36700
C 	C 	0.15709 0.55822 0.01194 0.23400
O 	O 	0.14311 0.58295 0.99697 -0.29400
C 	C 	0.01574 0.46493 0.55536 0.04500
C 	C 	0.98866 0.45547 0.55439 0.03900
C 	C 	0.02617 0.48050 0.50718 -0.04000
C 	C 	0.01021 0.48577 0.45728 0.03900
C 	C 	0.97248 0.46133 0.50501 -0.04300
C 	C 	0.98321 0.47585 0.45599 0.03900
H 	H 	0.95186 0.45412 0.50434 0.08100
H 	H 	0.04672 0.48794 0.50816 0.08200
C 	C 	0.96788 0.48044 0.40449 -0.02000
C 	C 	0.97985 0.49083 0.35314 0.03200
C 	C 	0.96657 0.48144 0.30173 -0.02600
C 	C 	0.94470 0.46315 0.31311 0.02200
S 	S 	0.94159 0.45991 0.38523 0.11900
H 	H 	0.97201 0.48866 0.25829 0.07800
C 	C 	0.02053 0.50023 0.40728 -0.01700
C 	C 	0.00629 0.50073 0.35460 0.03100
C 	C 	0.02311 0.50318 0.30487 -0.02600
C 	C 	0.05051 0.50414 0.31883 0.02100
S 	S 	0.05328 0.50273 0.39127 0.11600
H 	H 	0.01551 0.50608 0.26092 0.07600
C 	C 	0.02115 0.44362 0.65409 0.03600
C 	C 	0.03192 0.45788 0.60467 -0.01300
S 	S 	0.05692 0.47944 0.62735 0.13500
C 	C 	0.05545 0.47126 0.69819 -0.00300
C 	C 	0.03468 0.45103 0.70667 -0.00900
C 	C 	0.97891 0.43898 0.60241 -0.01400
C 	C 	0.99470 0.43333 0.65223 0.03900
C 	C 	0.97902 0.42715 0.70260 -0.02300
C 	C 	0.95115 0.42916 0.69238 0.02600
S 	S 	0.94657 0.43876 0.62257 0.12100
H 	H 	0.98737 0.42488 0.74597 0.08300
H 	H 	0.02733 0.44548 0.74960 0.07700
Zn	Zn	0.87703 0.42614 0.00775 1.21800
C 	C 	0.82712 0.46151 0.98645 0.32500
O 	O 	0.90137 0.43547 0.94316 -0.41400
O 	O 	0.83805 0.48487 0.01248 -0.40100
O 	O 	0.87941 0.48077 0.91827 -0.39600
C 	C 	0.88256 0.46324 0.10857 0.34100
O 	O 	0.86857 0.44142 0.08551 -0.42600
O 	O 	0.89284 0.48422 0.07495 -0.42700
C 	C 	0.89506 0.45670 0.90408 0.32800
O 	O 	0.91247 0.39552 0.05070 -0.27600
Zn	Zn	0.87774 0.49493 0.99862 1.21400
O 	O 	0.84212 0.43699 0.97104 -0.39100
C 	C 	0.89882 0.37226 0.03409 0.26200
O 	O 	0.87657 0.37921 0.00664 -0.34100
C 	C 	0.95199 0.02184 0.04027 -0.03400
C 	C 	0.96837 0.04710 0.04231 -0.03400
C 	C 	0.96345 0.99156 0.03511 0.00700
C 	C 	0.99194 0.98685 0.03375 0.00000
C 	C 	0.00859 0.01254 0.03552 -0.00000
C 	C 	0.99672 0.04288 0.03900 0.00700
C 	C 	0.00381 0.95649 0.03092 0.00700
C 	C 	0.03220 0.95217 0.03034 -0.03400
C 	C 	0.03709 0.00785 0.03402 0.00700
C 	C 	0.01349 0.06847 0.03955 0.00400
C 	C 	0.04159 0.06365 0.03781 -0.05000
C 	C 	0.05355 0.03374 0.03501 0.00400
C 	C 	0.94696 0.96575 0.03195 0.00400
C 	C 	0.95889 0.93586 0.02905 -0.05000
C 	C 	0.98699 0.93096 0.02892 0.00400
C 	C 	0.00189 0.10051 0.04072 -0.00300
C 	C 	0.99269 0.11472 0.98907 -0.01300
C 	C 	0.98095 0.14470 0.99039 0.01500
C 	C 	0.97857 0.16083 0.04335 -0.02800
C 	C 	0.98824 0.14675 0.09488 -0.00900
C 	C 	0.99984 0.11670 0.09353 -0.03600
C 	C 	0.08336 0.03005 0.03255 -0.00500
C 	C 	0.09858 0.03213 0.08373 -0.03500
C 	C 	0.12678 0.03214 0.08089 -0.01200
C 	C 	0.09655 0.02723 0.97857 -0.01300
C 	C 	0.12476 0.02712 0.97567 0.01000
C 	C 	0.14001 0.03007 0.02676 -0.02400
C 	C 	0.91712 0.96958 0.03109 -0.00500
C 	C 	0.90222 0.96382 0.08159 -0.03600
C 	C 	0.87399 0.96456 0.07960 -0.01200
C 	C 	0.86041 0.97110 0.02701 -0.02400
C 	C 	0.87536 0.97752 0.97675 0.01000
C 	C 	0.90360 0.97662 0.97875 -0.01200
C 	C 	0.99846 0.89887 0.02730 -0.00500
C 	C 	0.00446 0.88462 0.97371 -0.01300
C 	C 	0.01329 0.85349 0.97187 0.01000
C 	C 	0.01601 0.83632 0.02366 -0.02500
C 	C 	0.01051 0.85085 0.07736 -0.01200
C 	C 	0.00175 0.88199 0.07912 -0.03600
C 	C 	0.04858 0.97746 0.03193 -0.03400
H 	H 	0.99438 0.10239 0.94807 0.06200
H 	H 	0.97384 0.15545 0.95026 0.06700
H 	H 	0.98641 0.15891 0.13603 0.06400
H 	H 	0.00700 0.10587 0.13356 0.05900
H 	H 	0.86515 0.98250 0.93587 0.06500
H 	H 	0.91498 0.98095 0.93949 0.06000
H 	H 	0.86270 0.95994 0.11884 0.06200
H 	H 	0.91253 0.95834 0.12216 0.05700
H 	H 	0.00190 0.89754 0.93350 0.06000
H 	H 	0.01738 0.84254 0.93015 0.06400
H 	H 	0.99719 0.89290 0.12067 0.05700
H 	H 	0.01286 0.83796 0.11766 0.06300
H 	H 	0.08854 0.03432 0.12557 0.05800
H 	H 	0.13831 0.03401 0.12069 0.06400
H 	H 	0.08492 0.02573 0.93883 0.06000
H 	H 	0.13469 0.02557 0.93363 0.06400
H 	H 	0.93032 0.02600 0.04322 0.05100
H 	H 	0.95882 0.06998 0.04688 0.05100
H 	H 	0.05429 0.08338 0.03821 0.05800
H 	H 	0.07028 0.97322 0.03173 0.05000
H 	H 	0.04177 0.92919 0.02870 0.05000
H 	H 	0.94616 0.91618 0.02694 0.05700
C 	C 	0.93054 0.28164 0.04553 0.11900
N 	N 	0.94320 0.30491 0.07212 -0.04500
N 	N 	0.93285 0.33385 0.06917 -0.03000
C 	C 	0.90951 0.34029 0.03976 0.08100
N 	N 	0.89666 0.31698 0.01385 -0.04100
N 	N 	0.90706 0.28806 0.01660 -0.05400
C 	C 	0.96573 0.19220 0.04490 0.12600
N 	N 	0.94329 0.19914 0.01268 -0.07300
N 	N 	0.93187 0.22762 0.01345 -0.05700
C 	C 	0.94260 0.25000 0.04632 0.11300
N 	N 	0.96498 0.24304 0.07872 -0.05200
N 	N 	0.97635 0.21452 0.07814 -0.06700
C 	C 	0.93414 0.46805 0.76421 -0.00200
C 	C 	0.93180 0.43899 0.73825 0.10300
C 	C 	0.91377 0.41797 0.76178 -0.13300
C 	C 	0.90067 0.42511 0.81480 0.08400
C 	C 	0.90513 0.45287 0.84396 -0.01500
C 	C 	0.92163 0.47498 0.81797 -0.05900
C 	C 	0.92613 0.50572 0.84753 0.77000
H 	H 	0.94701 0.48452 0.74396 0.11400
H 	H 	0.88777 0.40856 0.83475 0.08500
C 	C 	0.90975 0.38719 0.73224 0.79400
F 	F 	0.94519 0.52233 0.81845 -0.40900
F 	F 	0.93521 0.50088 0.90393 -0.45700
F 	F 	0.90215 0.52342 0.84862 -0.42900
F 	F 	0.93319 0.36866 0.73669 -0.42200
F 	F 	0.90365 0.39187 0.67402 -0.42300
F 	F 	0.88882 0.37175 0.75728 -0.41700
C 	C 	0.90613 0.48647 0.25722 0.00400
C 	C 	0.92221 0.46009 0.27205 0.10000
C 	C 	0.91968 0.43239 0.24035 -0.13300
C 	C 	0.90436 0.43306 0.18883 0.08100
C 	C 	0.89116 0.46063 0.16990 -0.01900
C 	C 	0.88973 0.48662 0.20729 -0.06300
C 	C 	0.87198 0.51508 0.19278 0.77200
H 	H 	0.90749 0.50736 0.28287 0.09600
H 	H 	0.90402 0.41267 0.16162 0.08300
C 	C 	0.93508 0.40285 0.25871 0.79300
F 	F 	0.86528 0.53169 0.24269 -0.42000
F 	F 	0.84817 0.50687 0.16682 -0.43200
F 	F 	0.88563 0.53389 0.15530 -0.43900
F 	F 	0.93103 0.39744 0.31739 -0.42400
F 	F 	0.96237 0.40563 0.24849 -0.42300
F 	F 	0.92663 0.37748 0.22824 -0.42100
C 	C 	0.04268 0.70829 0.01203 0.10300
N 	N 	0.06292 0.69728 0.97669 -0.03700
N 	N 	0.06904 0.66701 0.97382 -0.02300
C 	C 	0.05499 0.64690 0.00597 0.06000
N 	N 	0.03468 0.65789 0.04110 -0.02600
N 	N 	0.02862 0.68816 0.04414 -0.04700
C 	C 	0.02349 0.80300 0.02156 0.10600
N 	N 	0.01119 0.78305 0.05744 -0.06800
N 	N 	0.01737 0.75281 0.05447 -0.05300
C 	C 	0.03607 0.74165 0.01561 0.09600
N 	N 	0.04848 0.76160 0.97992 -0.04000
N 	N 	0.04224 0.79185 0.98277 -0.05300
C 	C 	0.05846 0.53751 0.80606 0.08200
C 	C 	0.07547 0.52377 0.84849 -0.01600
C 	C 	0.08844 0.49436 0.83745 -0.06400
C 	C 	0.08418 0.47986 0.78363 0.00000
C 	C 	0.06466 0.49186 0.74458 0.10400
C 	C 	0.05133 0.52105 0.75605 -0.13500
C 	C 	0.03022 0.53532 0.71462 0.79300
H 	H 	0.04979 0.56062 0.81352 0.09400
H 	H 	0.09484 0.45809 0.77346 0.10500
C 	C 	0.10659 0.47819 0.88264 0.77400
F 	F 	0.01698 0.56115 0.73873 -0.41200
F 	F 	0.01078 0.51451 0.70171 -0.44200
F 	F 	0.04261 0.54438 0.66384 -0.43500
F 	F 	0.09358 0.47734 0.93595 -0.43700
F 	F 	0.13021 0.49370 0.88822 -0.41200
F 	F 	0.11345 0.44795 0.86691 -0.41400
C 	C 	0.06583 0.55066 0.26857 0.00300
C 	C 	0.06994 0.51905 0.28082 0.10100
C 	C 	0.08760 0.50076 0.24522 -0.13400
C 	C 	0.09518 0.51234 0.19071 0.08500
C 	C 	0.08634 0.54219 0.17339 -0.01700
C 	C 	0.07446 0.56269 0.21513 -0.06800
C 	C 	0.06876 0.59657 0.20088 0.77400
H 	H 	0.05362 0.56508 0.29799 0.09700
H 	H 	0.10573 0.49724 0.15968 0.08800
C 	C 	0.09563 0.46775 0.26196 0.79400
F 	F 	0.06231 0.61357 0.25047 -0.42100
F 	F 	0.04733 0.59961 0.16246 -0.43900
F 	F 	0.09132 0.60884 0.17598 -0.41900
F 	F 	0.07466 0.44889 0.24947 -0.42100
F 	F 	0.10141 0.46590 0.32084 -0.42500
F 	F 	0.11841 0.45710 0.23168 -0.41500
C 	C 	0.77630 0.96830 0.01764 0.09400
N 	N 	0.79080 0.94712 0.04993 -0.05700
N 	N 	0.81760 0.94815 0.05324 -0.06900
C 	C 	0.83069 0.97034 0.02422 0.10500
N 	N 	0.81618 0.99151 0.99188 -0.05200
N 	N 	0.78937 0.99055 0.98876 -0.03900
C 	C 	0.69228 0.96568 0.00898 0.04600
N 	N 	0.70512 0.98961 0.98495 -0.02400
N 	N 	0.73196 0.99034 0.98738 -0.03700
C 	C 	0.74672 0.96724 0.01418 0.09900
N 	N 	0.73388 0.94327 0.03811 -0.05600
N 	N 	0.70704 0.94248 0.03546 -0.04200
C 	C 	0.56663 0.97780 0.75902 0.00500
C 	C 	0.57912 0.00360 0.73634 0.09700
C 	C 	0.60180 0.01509 0.76491 -0.13000
C 	C 	0.60930 0.00314 0.81984 0.08100
C 	C 	0.59549 0.97886 0.84466 -0.01200
C 	C 	0.57506 0.96476 0.81254 -0.06200
C 	C 	0.56200 0.93626 0.83574 0.77300
H 	H 	0.54965 0.96873 0.73601 0.09600
H 	H 	0.62514 0.01353 0.84450 0.07800
C 	C 	0.61685 0.04149 0.73877 0.79200
F 	F 	0.54392 0.92472 0.79630 -0.41800
F 	F 	0.54817 0.94349 0.88669 -0.42100
F 	F 	0.58171 0.91332 0.84676 -0.42400
F 	F 	0.60131 0.06873 0.74421 -0.42300
F 	F 	0.62208 0.03588 0.68040 -0.42100
F 	F 	0.64134 0.04503 0.76639 -0.41800
C 	C 	0.59251 0.93299 0.20475 0.08500
C 	C 	0.58837 0.95983 0.17100 -0.01900
C 	C 	0.57128 0.98463 0.19207 -0.05400
C 	C 	0.55905 0.98196 0.24704 0.00200
C 	C 	0.56162 0.95424 0.27857 0.10500
C 	C 	0.57920 0.92987 0.25849 -0.13500
C 	C 	0.58293 0.90012 0.29322 0.79400
H 	H 	0.60557 0.91420 0.18819 0.08200
H 	H 	0.54646 0.00095 0.26438 0.12600
C 	C 	0.56596 0.01386 0.15624 0.76700
F 	F 	0.60246 0.88009 0.26899 -0.42400
F 	F 	0.55881 0.88532 0.29495 -0.42900
F 	F 	0.59079 0.90671 0.34946 -0.42700
F 	F 	0.55831 0.00647 0.10019 -0.47200
F 	F 	0.58910 0.03045 0.15421 -0.44500
F 	F 	0.54544 0.03270 0.18005 -0.38800
C 	C 	0.25304 0.04050 0.01048 0.10400
N 	N 	0.26815 0.02102 0.97579 -0.03600
N 	N 	0.29479 0.02359 0.97191 -0.01500
C 	C 	0.30707 0.04583 0.00236 0.02800
N 	N 	0.29196 0.06540 0.03684 -0.02400
N 	N 	0.26533 0.06275 0.04090 -0.04900
C 	C 	0.16962 0.03224 0.02341 0.10600
N 	N 	0.18234 0.05236 0.05811 -0.06800
N 	N 	0.20897 0.05496 0.05402 -0.05400
C 	C 	0.22367 0.03748 0.01520 0.09600
N 	N 	0.21098 0.01725 0.98070 -0.03900
N 	N 	0.18433 0.01472 0.98465 -0.05200
C 	C 	0.41972 0.08878 0.82454 0.08300
C 	C 	0.41053 0.05953 0.83849 -0.01400
C 	C 	0.41334 0.03524 0.79726 -0.06100
C 	C 	0.42940 0.03926 0.74756 0.00700
C 	C 	0.43980 0.06811 0.73506 0.09600
C 	C 	0.43337 0.09365 0.77180 -0.13100
C 	C 	0.44230 0.12571 0.75654 0.79200
H 	H 	0.41700 0.10749 0.85565 0.08500
H 	H 	0.43426 0.01979 0.71913 0.09400
C 	C 	0.40009 0.00473 0.80667 0.77100
F 	F 	0.42854 0.14825 0.78927 -0.42000
F 	F 	0.43728 0.13211 0.69836 -0.42100
F 	F 	0.46964 0.12730 0.76723 -0.42600
F 	F 	0.37479 0.00947 0.83164 -0.43400
F 	F 	0.41614 0.98598 0.84262 -0.43100
F 	F 	0.39678 0.98954 0.75428 -0.41800
C 	C 	0.43469 0.04307 0.17656 0.08300
C 	C 	0.40714 0.04056 0.16466 -0.02400
C 	C 	0.38949 0.03172 0.20963 -0.06100
C 	C 	0.40051 0.02047 0.26241 0.00100
C 	C 	0.42838 0.02074 0.27274 0.10300
C 	C 	0.44533 0.03479 0.23144 -0.14100
C 	C 	0.47492 0.03975 0.24404 0.79600
H 	H 	0.44803 0.05058 0.14241 0.08200
H 	H 	0.38752 0.01060 0.29482 0.09900
C 	C 	0.35910 0.03296 0.20089 0.77300
F 	F 	0.48423 0.06335 0.20982 -0.40400
F 	F 	0.49023 0.01301 0.23180 -0.44200
F 	F 	0.47873 0.04792 0.30154 -0.44000
F 	F 	0.35183 0.00691 0.17107 -0.42900
F 	F 	0.35078 0.05907 0.16969 -0.42600
F 	F 	0.34568 0.03401 0.25385 -0.42000
C 	C 	0.43086 0.26253 0.97371 0.11800
N 	N 	0.45688 0.27067 0.97884 -0.04900
N 	N 	0.46307 0.30015 0.97295 -0.06300
C 	C 	0.44346 0.32223 0.96107 0.13000
N 	N 	0.41748 0.31404 0.95553 -0.06500
N 	N 	0.41125 0.28463 0.96200 -0.05100
C 	C 	0.41110 0.17047 0.99307 0.08300
N 	N 	0.39167 0.19354 0.99744 -0.03200
N 	N 	0.39798 0.22294 0.99120 -0.04800
C 	C 	0.42395 0.23012 0.98097 0.12600
N 	N 	0.44341 0.20704 0.97706 -0.04300
N 	N 	0.43705 0.17762 0.98271 -0.02900
C 	C 	0.27039 0.55451 0.03118 0.09000
N 	N 	0.28482 0.57420 0.99888 -0.03800
N 	N 	0.31162 0.57033 0.99544 -0.05400
C 	C 	0.32474 0.54676 0.02446 0.11100
N 	N 	0.31037 0.52770 0.05824 -0.07100
N 	N 	0.28358 0.53149 0.06147 -0.05500
C 	C 	0.18644 0.55783 0.01884 0.07100
N 	N 	0.19977 0.53325 0.04421 -0.03500
N 	N 	0.22656 0.53258 0.04956 -0.05300
C 	C 	0.24077 0.55640 0.02936 0.11900
N 	N 	0.22741 0.58109 0.00430 -0.06900
N 	N 	0.20059 0.58186 0.99938 -0.01500
C 	C 	0.74569 0.46739 0.94124 0.12000
N 	N 	0.75910 0.43938 0.94529 -0.05100
N 	N 	0.78515 0.43748 0.95988 -0.03500
C 	C 	0.79836 0.46349 0.97183 0.06600
N 	N 	0.78489 0.49146 0.96824 -0.03400
N 	N 	0.75895 0.49339 0.95284 -0.05100
C 	C 	0.66314 0.47573 0.90761 0.12300
N 	N 	0.67926 0.49924 0.89444 -0.06700
N 	N 	0.70578 0.49624 0.90370 -0.05500
C 	C 	0.71698 0.46955 0.92589 0.11300
N 	N 	0.70099 0.44568 0.93739 -0.05300
N 	N 	0.67440 0.44880 0.92877 -0.06600
C 	C 	0.57047 0.78665 0.97008 0.12200
N 	N 	0.59501 0.79276 0.99244 -0.04800
N 	N 	0.60294 0.82172 0.99459 -0.03700
C 	C 	0.58652 0.84540 0.97468 0.09800
N 	N 	0.56202 0.83930 0.95215 -0.02600
N 	N 	0.55413 0.81032 0.94973 -0.04500
C 	C 	0.54581 0.69585 0.96425 0.12000
N 	N 	0.53093 0.71890 0.93755 -0.06500
N 	N 	0.53869 0.74794 0.93973 -0.05200
C 	C 	0.56164 0.75472 0.96836 0.11600
N 	N 	0.57647 0.73168 0.99514 -0.05200
N 	N 	0.56865 0.70268 0.99318 -0.06200
