data_crystal

_cell_length_a 20.78194
_cell_length_b 16.99228
_cell_length_c 41.02190
_cell_angle_alpha 88.44281
_cell_angle_beta  88.56771
_cell_angle_gamma 107.63925

_symmetry_space_group_name_	'P 1'
_symmetry_space_group_name_H-M	'P 1'

loop_
_symmetry_equiv_pos_as_xyz
  x,y,z

loop_
_atom_site_label
_atom_site_type_symbol
_atom_site_fract_x
_atom_site_fract_y
_atom_site_fract_z
_atom_site_charge
Zn	Zn	0.04173 0.92109 0.79253 1.20300
H 	H 	0.05951 0.91653 0.72996 0.18200
O 	O 	0.04065 0.94931 0.74494 -0.77500
O 	O 	0.07832 0.12430 0.78432 -0.46500
C 	C 	0.04384 0.59233 0.40993 0.36400
O 	O 	0.02566 0.06821 0.16830 -0.45000
O 	O 	0.01688 0.13787 0.28032 -0.43800
C 	C 	0.07194 0.07065 0.19013 0.31200
C 	C 	0.00963 0.20046 0.29657 0.37400
C 	C 	0.02417 0.35554 0.17083 0.06300
H 	H 	0.09360 0.99307 0.13723 0.03700
C 	C 	0.06719 0.34821 0.29605 0.02400
H 	H 	0.02453 0.35778 0.28346 0.03200
H 	H 	0.06761 0.50753 0.29381 0.08400
C 	C 	0.03713 0.87935 0.32525 0.08200
H 	H 	0.01862 0.99414 0.32452 0.09200
H 	H 	0.01592 0.81260 0.32418 0.02600
C 	C 	0.08807 0.59910 0.02162 -0.12400
C 	C 	0.05194 0.58803 0.99863 0.06400
H 	H 	0.04917 0.47877 0.95403 0.04500
O 	O 	0.06796 0.66905 0.39859 -0.39800
O 	O 	0.06451 0.09362 0.22017 -0.38300
H 	H 	0.03256 0.36408 0.19674 0.03300
Zn	Zn	0.09208 0.06799 0.74426 1.22100
C 	C 	0.06890 0.27107 0.30249 -0.17100
H 	H 	0.06553 0.40474 0.12128 0.04200
C 	C 	0.15322 0.13446 0.67863 0.36900
O 	O 	0.12847 0.98673 0.81095 -0.45100
O 	O 	0.18032 0.04636 0.76289 -0.41300
O 	O 	0.09581 0.11374 0.66295 -0.46300
O 	O 	0.15418 0.14036 0.71071 -0.45200
C 	C 	0.18385 0.02112 0.79317 0.32100
Zn	Zn	0.17432 0.56521 0.40469 1.19700
C 	C 	0.15097 0.87595 0.33953 0.37000
Zn	Zn	0.15329 0.71033 0.36495 1.22200
H 	H 	0.21677 0.71907 0.41717 0.18100
C 	C 	0.13377 0.55451 0.33271 0.34200
O 	O 	0.21483 0.68732 0.39715 -0.78400
O 	O 	0.07509 0.53811 0.40316 -0.46800
O 	O 	0.24485 0.74360 0.33726 -0.79600
O 	O 	0.21656 0.91412 0.33959 -0.46900
O 	O 	0.11171 0.61909 0.33585 -0.44800
O 	O 	0.12340 0.81027 0.35896 -0.43700
O 	O 	0.17768 0.54098 0.35308 -0.42400
Zn	Zn	0.22879 0.69800 0.09976 1.22200
Zn	Zn	0.23640 0.53927 0.07018 1.19600
O 	O 	0.14456 0.54077 0.06028 -0.46800
O 	O 	0.16044 0.67999 0.06041 -0.39300
O 	O 	0.27290 0.86193 0.14651 -0.47400
O 	O 	0.15680 0.62043 0.12772 -0.44000
O 	O 	0.22810 0.81400 0.09776 -0.44000
O 	O 	0.20482 0.51747 0.12140 -0.41800
C 	C 	0.13190 0.60693 0.04846 0.32400
C 	C 	0.22920 0.85900 0.12348 0.34500
C 	C 	0.15765 0.54479 0.13448 0.32400
C 	C 	0.06507 0.41900 0.14698 -0.00200
C 	C 	0.10630 0.49067 0.15706 -0.14100
H 	H 	0.10347 0.50793 0.18225 0.06900
C 	C 	0.13286 0.04798 0.18092 -0.14700
C 	C 	0.13444 0.00426 0.15426 -0.01100
C 	C 	0.18759 0.96384 0.14945 0.02300
C 	C 	0.18337 0.91030 0.12547 -0.16600
H 	H 	0.22826 0.97446 0.16655 0.02900
H 	H 	0.17386 0.05936 0.19784 0.07200
H 	H 	0.14380 0.90177 0.10786 0.08400
C 	C 	0.10573 0.49668 0.30948 -0.17300
C 	C 	0.11768 0.41986 0.30941 0.00900
H 	H 	0.11311 0.26045 0.31306 0.08500
H 	H 	0.15991 0.41055 0.32242 0.04300
C 	C 	0.11128 0.91714 0.32680 -0.21800
H 	H 	0.13435 0.97875 0.31593 0.09800
C 	C 	0.21131 0.16169 0.66093 -0.19500
H 	H 	0.20949 0.16769 0.63452 0.09000
C 	C 	0.25016 0.03433 0.80789 -0.15200
H 	H 	0.25309 0.00028 0.83034 0.07500
C 	C 	0.02199 0.09499 0.80214 0.43900
O 	O 	0.25398 0.52464 0.41073 -0.45800
H 	H 	0.24397 0.71840 0.31573 0.17000
C 	C 	0.01155 0.51082 0.95106 -0.03400
Zn	Zn	0.30369 0.70818 0.36709 1.22300
Zn	Zn	0.29172 0.86395 0.33596 1.19200
O 	O 	0.39113 0.88038 0.33224 -0.46800
O 	O 	0.38631 0.74409 0.33258 -0.40600
O 	O 	0.35709 0.78611 0.39828 -0.44100
O 	O 	0.31769 0.59978 0.36809 -0.44200
O 	O 	0.29832 0.87721 0.38869 -0.41900
C 	C 	0.31299 0.55778 0.39577 0.34500
C 	C 	0.33936 0.85062 0.40674 0.32900
Zn	Zn	0.34978 0.81433 0.14423 1.19300
C 	C 	0.36644 0.51587 0.07892 0.32200
Zn	Zn	0.37213 0.67366 0.10608 1.22200
H 	H 	0.28982 0.65925 0.15400 0.17900
C 	C 	0.41126 0.83539 0.07314 0.32200
O 	O 	0.30301 0.69708 0.13454 -0.78900
H 	H 	0.30311 0.68624 0.05250 0.17200
O 	O 	0.29159 0.65647 0.07396 -0.78900
O 	O 	0.30124 0.47819 0.08039 -0.45100
O 	O 	0.36821 0.85526 0.09296 -0.41500
C 	C 	0.35699 0.88500 0.43802 -0.12800
C 	C 	0.37048 0.91492 0.46425 0.06900
C 	C 	0.38486 0.95290 0.49532 -0.06100
H 	H 	0.34802 0.97834 0.50662 0.04900
C 	C 	0.37281 0.55974 0.41264 -0.14500
C 	C 	0.27811 0.17781 0.67598 0.01500
C 	C 	0.33419 0.22404 0.65958 0.01200
H 	H 	0.32925 0.25879 0.63761 0.03700
H 	H 	0.28215 0.14596 0.69885 0.03900
H 	H 	0.01099 0.21247 0.80833 0.12900
C 	C 	0.37083 0.10828 0.81145 0.01300
C 	C 	0.30564 0.09107 0.79513 0.00900
H 	H 	0.30227 0.12784 0.77348 0.04100
H 	H 	0.40512 0.23174 0.79363 0.07800
H 	H 	0.38037 0.06097 0.82732 0.03700
O 	O 	0.39446 0.56930 0.10091 -0.42500
C 	C 	0.40201 0.21921 0.66824 -0.19100
H 	H 	0.40594 0.17779 0.68826 0.08800
H 	H 	0.41152 0.48583 0.96926 0.04300
C 	C 	0.41677 0.18306 0.80779 -0.15900
O 	O 	0.42955 0.76881 0.07917 -0.44000
C 	C 	0.42013 0.56085 0.42911 0.07800
C 	C 	0.40739 0.49705 0.05356 -0.14900
C 	C 	0.43405 0.88318 0.04330 -0.12300
C 	C 	0.41798 0.82188 0.32462 0.32300
H 	H 	0.43136 0.99047 0.97520 0.05300
O 	O 	0.44826 0.83089 0.14794 -0.46800
C 	C 	0.45151 0.92378 0.01821 0.06900
C 	C 	0.44037 0.48251 0.03131 0.07100
O 	O 	0.45486 0.31046 0.62623 -0.42900
O 	O 	0.44398 0.69597 0.14359 -0.40800
C 	C 	0.45622 0.25361 0.64841 0.36200
C 	C 	0.44533 0.96496 0.50837 -0.05100
C 	C 	0.00895 0.57069 0.97113 -0.03200
O 	O 	0.46179 0.40849 0.56838 -0.45300
O 	O 	0.45215 0.18099 0.58130 -0.46800
H 	H 	0.45302 0.64879 0.48141 0.05000
C 	C 	0.45854 0.47233 0.97359 -0.05900
C 	C 	0.47014 0.97294 0.98821 -0.06000
C 	C 	0.48098 0.20306 0.82469 0.32600
Zn	Zn	0.48209 0.30260 0.57525 1.19500
C 	C 	0.47336 0.77001 0.15413 0.32500
C 	C 	0.48491 0.84353 0.30786 -0.15800
C 	C 	0.46507 0.02155 0.53446 0.05900
C 	C 	0.47956 0.07237 0.55517 -0.13200
H 	H 	0.48228 0.93937 0.49728 0.04800
C 	C 	0.47232 0.55985 0.45130 -0.06200
C 	C 	0.47577 0.59927 0.47929 -0.05800
C 	C 	0.49143 0.56197 0.50870 0.06900
C 	C 	0.47887 0.46664 0.00403 -0.06200
C 	C 	0.49412 0.13725 0.57804 0.32400
C 	C 	0.50092 0.52607 0.53292 -0.13400
C 	C 	0.50073 0.46497 0.94624 0.07100
O 	O 	0.50673 0.27756 0.83558 -0.40500
H 	H 	0.49802 0.51328 0.44859 0.04300
C 	C 	0.50921 0.47802 0.56077 0.31700
H 	H 	0.49631 0.79894 0.29199 0.07500
O 	O 	0.51424 0.14849 0.82700 -0.46600
O 	O 	0.50990 0.22814 0.65033 -0.45200
H 	H 	0.52306 0.95651 0.33119 0.03700
H 	H 	0.52592 0.45315 0.00832 0.04500
C 	C 	0.53320 0.91396 0.31388 0.01300
C 	C 	0.53445 0.99877 0.97697 -0.04700
O 	O 	0.00330 0.95295 0.66848 -0.38900
C 	C 	0.53638 0.78556 0.17164 -0.15100
C 	C 	0.53831 0.45940 0.92423 -0.13600
H 	H 	0.54017 0.74160 0.19068 0.07200
O 	O 	0.55291 0.15943 0.59209 -0.39400
C 	C 	0.55301 0.05249 0.94812 0.05700
O 	O 	0.55446 0.51218 0.58214 -0.42700
O 	O 	0.55620 0.21455 0.89406 -0.44000
O 	O 	0.00016 0.07260 0.72698 -0.77100
C 	C 	0.99724 0.92787 0.32180 -0.08100
O 	O 	0.99084 0.20942 0.21039 -0.46800
C 	C 	0.98274 0.28386 0.16066 -0.20800
H 	H 	0.97033 0.27759 0.13508 0.07900
C 	C 	0.98696 0.56947 0.43257 -0.17800
Zn	Zn	0.99840 0.07695 0.67903 1.18100
Zn	Zn	0.59412 0.31217 0.86419 1.22300
Zn	Zn	0.72800 0.46418 0.89034 1.19500
C 	C 	0.75749 0.17098 0.82028 0.37700
Zn	Zn	0.74632 0.32492 0.84984 1.22100
Zn	Zn	0.61439 0.17929 0.82130 1.19500
H 	H 	0.69257 0.30956 0.90630 0.17400
C 	C 	0.76219 0.48303 0.81685 0.33900
O 	O 	0.68909 0.34192 0.88634 -0.78500
O 	O 	0.64851 0.50217 0.90022 -0.45600
O 	O 	0.56539 0.40906 0.87394 -0.43200
O 	O 	0.62240 0.14215 0.87216 -0.41700
O 	O 	0.82645 0.49348 0.88213 -0.47000
H 	H 	0.64907 0.33327 0.80807 0.17500
O 	O 	0.83540 0.36395 0.87794 -0.40100
O 	O 	0.65219 0.29915 0.82756 -0.79500
O 	O 	0.69583 0.14532 0.80908 -0.47700
O 	O 	0.78527 0.41879 0.81834 -0.45200
O 	O 	0.77200 0.22230 0.84454 -0.44800
O 	O 	0.71765 0.49064 0.83903 -0.42800
C 	C 	0.58623 0.45316 0.89956 0.32700
C 	C 	0.58267 0.15343 0.89596 0.32100
C 	C 	0.85946 0.44017 0.88751 0.32100
Zn	Zn	0.61919 0.45847 0.59882 1.22300
C 	C 	0.70446 0.24476 0.65347 0.36200
Zn	Zn	0.58820 0.27010 0.61914 1.22100
Zn	Zn	0.71097 0.42131 0.64901 1.19400
H 	H 	0.60649 0.32668 0.56165 0.17100
O 	O 	0.75718 0.53971 0.63726 -0.47000
O 	O 	0.66229 0.57110 0.62288 -0.40900
O 	O 	0.58144 0.33849 0.58080 -0.78900
O 	O 	0.70265 0.47990 0.57158 -0.44400
O 	O 	0.74368 0.39033 0.60110 -0.42000
H 	H 	0.58423 0.40083 0.65623 0.18000
O 	O 	0.61403 0.39016 0.63880 -0.79000
O 	O 	0.71687 0.31495 0.66847 -0.48700
O 	O 	0.66830 0.23194 0.62705 -0.44400
C 	C 	0.72555 0.59468 0.63143 0.33200
C 	C 	0.74457 0.43582 0.57440 0.32200
Zn	Zn	0.94245 0.96031 0.73689 1.21800
O 	O 	0.90025 0.03745 0.67008 -0.47400
O 	O 	0.85599 0.99298 0.72175 -0.39400
O 	O 	0.95169 0.83610 0.79962 -0.47300
O 	O 	0.92313 0.87518 0.70461 -0.45000
O 	O 	0.89166 0.91626 0.77779 -0.44200
H 	H 	0.98146 0.11405 0.73672 0.14400
O 	O 	0.99598 0.01466 0.80789 -0.46600
C 	C 	0.85068 0.02406 0.69242 0.31000
C 	C 	0.89388 0.84557 0.79081 0.34100
C 	C 	0.95355 0.88544 0.67589 0.30100
Zn	Zn	0.97265 0.11020 0.23869 1.21700
Zn	Zn	0.86258 0.11583 0.29728 1.19200
C 	C 	0.77421 0.94507 0.17904 0.37100
Zn	Zn	0.82641 0.98696 0.24501 1.22300
Zn	Zn	0.92707 0.01835 0.17739 1.18600
H 	H 	0.85010 0.14213 0.23578 0.17600
C 	C 	0.89221 0.94511 0.30103 0.34400
O 	O 	0.87043 0.10693 0.24906 -0.79100
O 	O 	0.94909 0.20308 0.30576 -0.49400
O 	O 	0.91634 0.14260 0.17338 -0.43400
O 	O 	0.77582 0.03705 0.31444 -0.46600
H 	H 	0.94317 0.95809 0.23244 0.17100
O 	O 	0.73182 0.98991 0.26570 -0.40600
O 	O 	0.92211 0.00037 0.22525 -0.81500
O 	O 	0.83090 0.98677 0.16311 -0.47300
O 	O 	0.84018 0.91797 0.28225 -0.44900
O 	O 	0.77359 0.92197 0.21008 -0.46100
O 	O 	0.91296 0.02343 0.30871 -0.43200
C 	C 	0.96129 0.20987 0.18270 0.34800
C 	C 	0.72334 0.00564 0.29645 0.31100
C 	C 	0.59311 0.85095 0.16165 0.00300
C 	C 	0.65407 0.86404 0.17741 0.01800
C 	C 	0.71719 0.92109 0.16250 -0.20200
H 	H 	0.65575 0.82874 0.19973 0.03900
H 	H 	0.71770 0.94212 0.13718 0.09000
H 	H 	0.59055 0.89000 0.14057 0.04100
C 	C 	0.60142 0.93259 0.29825 0.00300
C 	C 	0.65469 0.98719 0.31124 -0.14000
H 	H 	0.60841 0.90007 0.27661 0.04100
H 	H 	0.64792 0.01656 0.33375 0.06400
C 	C 	0.92726 0.89423 0.31029 -0.16600
H 	H 	0.90770 0.82884 0.30539 0.07400
C 	C 	0.94061 0.54914 0.45241 0.08300
C 	C 	0.88637 0.52482 0.47675 -0.07400
C 	C 	0.88701 0.47028 0.50086 -0.05300
C 	C 	0.83724 0.45385 0.52732 0.05900
C 	C 	0.79528 0.44328 0.54916 -0.12400
H 	H 	0.92679 0.44100 0.50148 0.03500
H 	H 	0.84653 0.55403 0.47617 0.05100
C 	C 	0.73585 0.18719 0.66410 -0.18600
C 	C 	0.73042 0.11450 0.64746 0.01400
C 	C 	0.77725 0.06609 0.65416 0.00300
C 	C 	0.78944 0.04672 0.68493 -0.15400
H 	H 	0.80417 0.04941 0.63375 0.03400
H 	H 	0.76833 0.20159 0.68488 0.07700
H 	H 	0.75706 0.05464 0.70500 0.07400
H 	H 	0.69900 0.09988 0.62635 0.04300
C 	C 	0.76006 0.68302 0.63589 -0.15800
C 	C 	0.82788 0.71337 0.63500 0.01400
C 	C 	0.86100 0.79743 0.64634 0.00600
C 	C 	0.92766 0.82367 0.65127 -0.14700
H 	H 	0.82952 0.83389 0.65507 0.04100
H 	H 	0.72966 0.72362 0.64084 0.08200
H 	H 	0.96086 0.79201 0.64058 0.06500
H 	H 	0.85851 0.67414 0.62830 0.03500
C 	C 	0.96060 0.48330 0.92729 0.03100
C 	C 	0.91572 0.46192 0.90842 -0.12700
H 	H 	0.97134 0.60272 0.96813 0.01900
C 	C 	0.56735 0.09812 0.92418 -0.11900
H 	H 	0.57338 0.98137 0.98989 0.04600
C 	C 	0.80229 0.13331 0.81045 -0.19900
C 	C 	0.87477 0.16510 0.81807 0.00400
C 	C 	0.91290 0.11393 0.81786 0.03200
C 	C 	0.98713 0.14608 0.81117 -0.28800
H 	H 	0.88808 0.04758 0.81837 0.04300
H 	H 	0.78609 0.08132 0.79449 0.09200
H 	H 	0.89838 0.23128 0.81990 0.03300
C 	C 	0.79117 0.54745 0.79412 -0.17700
C 	C 	0.78016 0.62451 0.79665 0.00600
C 	C 	0.83311 0.70013 0.78484 0.01700
C 	C 	0.83211 0.77492 0.79410 -0.16500
H 	H 	0.87709 0.69423 0.77136 0.02300
H 	H 	0.83006 0.54127 0.77704 0.07600
H 	H 	0.78687 0.78283 0.80557 0.08300
H 	H 	0.73691 0.62992 0.81087 0.04100
