data_crystal

_cell_length_a 17.99014
_cell_length_b 16.40909
_cell_length_c 47.17855
_cell_angle_alpha 90.74210
_cell_angle_beta  91.01912
_cell_angle_gamma 110.92235

_symmetry_space_group_name_	'P 1'
_symmetry_space_group_name_H-M	'P 1'

loop_
_symmetry_equiv_pos_as_xyz
  x,y,z

loop_
_atom_site_label
_atom_site_type_symbol
_atom_site_fract_x
_atom_site_fract_y
_atom_site_fract_z
_atom_site_charge
O 	O 	0.09849 0.91384 0.76373 -0.68600
Ni	Ni	0.12866 0.02857 0.78512 1.08700
O 	O 	0.13120 0.79739 0.72169 -0.37700
Ni	Ni	0.19464 0.90035 0.74964 1.08100
O 	O 	0.19979 0.99990 0.72353 -0.37400
O 	O 	0.21270 0.01393 0.81217 -0.38000
O 	O 	0.04379 0.03911 0.75790 -0.73200
O 	O 	0.12705 0.13579 0.80794 -0.36000
H 	H 	0.06909 0.86565 0.77616 0.16800
H 	H 	0.06213 0.09492 0.74769 0.15800
C 	C 	0.23340 0.08121 0.73295 0.22800
C 	C 	0.06547 0.79100 0.70746 0.29800
C 	C 	0.27575 0.00132 0.80239 0.22700
C 	C 	0.05812 0.13620 0.81693 0.26800
O 	O 	0.21626 0.10548 0.75839 -0.36100
O 	O 	0.28057 0.98720 0.77509 -0.34900
Ni	Ni	0.34554 0.75159 0.41271 1.09900
O 	O 	0.33861 0.67749 0.37640 -0.69600
Ni	Ni	0.22896 0.66679 0.36203 1.09700
O 	O 	0.43796 0.72680 0.43219 -0.33700
O 	O 	0.43437 0.60016 0.41112 -0.37400
O 	O 	0.42638 0.85931 0.39422 -0.35700
Ni	Ni	0.33512 0.55830 0.38393 1.07100
O 	O 	0.32826 0.93192 0.41755 -0.37900
O 	O 	0.25999 0.54750 0.41674 -0.40900
O 	O 	0.22197 0.58592 0.32827 -0.38400
O 	O 	0.24189 0.74924 0.39596 -0.70800
O 	O 	0.34487 0.82888 0.44664 -0.34400
O 	O 	0.12260 0.67775 0.34992 -0.35900
O 	O 	0.17795 0.82613 0.34966 -0.40700
Ni	Ni	0.25621 0.86801 0.38425 1.07300
H 	H 	0.37905 0.70596 0.36223 0.16400
H 	H 	0.19830 0.72768 0.40960 0.16900
C 	C 	0.18913 0.55217 0.41254 0.23700
O 	O 	0.34847 0.87892 0.35820 -0.40900
C 	C 	0.43843 0.64731 0.43423 0.25400
C 	C 	0.23053 0.51052 0.33168 0.28600
C 	C 	0.41833 0.88246 0.36808 0.29400
C 	C 	0.11472 0.75433 0.35035 0.27900
C 	C 	0.32414 0.89736 0.44289 0.23900
O 	O 	0.16491 0.56379 0.38684 -0.34700
O 	O 	0.24349 0.48650 0.35733 -0.39900
Ni	Ni	0.36406 0.62606 0.12774 1.10200
O 	O 	0.27655 0.61287 0.09767 -0.70200
Ni	Ni	0.20453 0.65827 0.11903 1.10000
O 	O 	0.40222 0.53424 0.10949 -0.34500
O 	O 	0.27419 0.43891 0.10536 -0.40300
O 	O 	0.44292 0.72177 0.10371 -0.34700
Ni	Ni	0.21268 0.49962 0.08108 1.07300
O 	O 	0.47404 0.79892 0.15483 -0.39100
O 	O 	0.11130 0.45718 0.10465 -0.39200
O 	O 	0.10942 0.62115 0.09068 -0.36400
O 	O 	0.30025 0.68787 0.14662 -0.70400
O 	O 	0.45112 0.65240 0.15838 -0.36500
O 	O 	0.15469 0.72913 0.14319 -0.35500
O 	O 	0.26829 0.85002 0.14184 -0.39900
Ni	Ni	0.36571 0.81154 0.14813 1.07100
H 	H 	0.29734 0.65203 0.08164 0.15700
H 	H 	0.28501 0.66518 0.16584 0.16900
C 	C 	0.10790 0.47354 0.13182 0.29800
O 	O 	0.38083 0.82113 0.10554 -0.39900
C 	C 	0.35072 0.45763 0.10121 0.24600
C 	C 	0.11733 0.60699 0.06333 0.25300
C 	C 	0.42513 0.78531 0.09216 0.25800
C 	C 	0.19817 0.80811 0.15263 0.27100
O 	O 	0.15164 0.54985 0.14303 -0.38100
O 	O 	0.15835 0.55869 0.05459 -0.38700
O 	O 	0.03562 0.17868 0.24410 -0.36800
O 	O 	0.09102 0.04140 0.24514 -0.40800
O 	O 	0.00007 0.02638 0.20875 -0.36500
O 	O 	0.98100 0.98784 0.32208 -0.38100
Ni	Ni	0.02916 0.01513 0.28204 1.04800
O 	O 	0.04538 0.14225 0.29022 -0.42700
C 	C 	0.06242 0.20057 0.27032 0.29000
C 	C 	0.05955 0.00775 0.22007 0.23500
C 	C 	0.93564 0.27555 0.18036 -0.06300
C 	C 	0.01058 0.42976 0.17243 0.00200
C 	C 	0.04845 0.40681 0.14912 -0.06100
C 	C 	0.02408 0.31882 0.14039 -0.01200
C 	C 	0.96459 0.25445 0.15469 0.01200
H 	H 	0.04991 0.30065 0.12183 0.04600
C 	C 	0.93003 0.16820 0.14190 0.09300
N 	N 	0.90241 0.09916 0.13164 -0.11100
C 	C 	0.16090 0.85736 0.16975 -0.05700
C 	C 	0.14612 0.92795 0.15776 -0.01900
C 	C 	0.11643 0.98026 0.17429 0.05200
C 	C 	0.09876 0.96003 0.20298 -0.03300
C 	C 	0.11479 0.89022 0.21505 -0.01700
C 	C 	0.14651 0.83941 0.19868 0.00300
H 	H 	0.15925 0.94311 0.13567 0.06200
H 	H 	0.10198 0.87512 0.23717 0.03100
C 	C 	0.16709 0.77121 0.21197 0.07000
C 	C 	0.10822 0.05702 0.16206 0.04400
N 	N 	0.18370 0.71670 0.22263 -0.11500
N 	N 	0.10173 0.11851 0.15227 -0.09900
C 	C 	0.19810 0.44259 0.30938 -0.06200
C 	C 	0.12533 0.43336 0.29592 -0.00800
C 	C 	0.08309 0.35746 0.28026 0.00500
C 	C 	0.11473 0.29056 0.27746 -0.06900
C 	C 	0.19226 0.30518 0.28772 -0.00700
C 	C 	0.23394 0.38061 0.30381 0.00100
H 	H 	0.09893 0.48264 0.29925 0.05600
H 	H 	0.21807 0.25528 0.28467 0.03400
C 	C 	0.31309 0.39369 0.31461 0.06000
C 	C 	0.00491 0.34647 0.26909 0.06400
N 	N 	0.37651 0.40418 0.32326 -0.12900
C 	C 	0.92434 0.83956 0.33663 -0.06400
C 	C 	0.95320 0.84105 0.36450 -0.00400
C 	C 	0.00975 0.80266 0.37050 -0.00300
C 	C 	0.03515 0.76028 0.34858 -0.07800
C 	C 	0.99245 0.74185 0.32269 0.00500
C 	C 	0.93532 0.77975 0.31692 -0.01500
H 	H 	0.93956 0.88123 0.38054 0.05200
H 	H 	0.00784 0.70389 0.30636 0.03900
C 	C 	0.04520 0.81184 0.39863 0.04900
N 	N 	0.07368 0.81919 0.42116 -0.13000
C 	C 	0.35484 0.13637 0.50593 -0.09400
C 	C 	0.31370 0.05218 0.49480 -0.01400
C 	C 	0.30740 0.94227 0.46759 0.09500
C 	C 	0.31566 0.02901 0.46752 -0.11500
H 	H 	0.37428 0.19212 0.49219 0.06500
H 	H 	0.34407 0.07395 0.45096 0.05700
C 	C 	0.08841 0.50907 0.47842 0.01900
C 	C 	0.02760 0.50121 0.45920 0.10800
C 	C 	0.94871 0.45300 0.46588 -0.07700
O 	O 	0.05217 0.51780 0.43141 -0.18500
C 	C 	0.13326 0.53418 0.43593 0.04000
C 	C 	0.15555 0.52940 0.46381 -0.06700
H 	H 	0.90036 0.44747 0.45108 0.06700
H 	H 	0.20880 0.51827 0.47076 0.05500
C 	C 	0.54745 0.63174 0.49550 0.11500
O 	O 	0.55166 0.65940 0.46764 -0.17600
C 	C 	0.47058 0.62385 0.46028 0.05000
C 	C 	0.42233 0.58019 0.48176 -0.06600
H 	H 	0.35967 0.57027 0.48328 0.05000
C 	C 	0.44078 0.24275 0.68982 -0.06300
C 	C 	0.44329 0.17240 0.70572 -0.01900
C 	C 	0.37407 0.11494 0.71742 0.01700
C 	C 	0.30575 0.13830 0.71892 -0.05600
C 	C 	0.30722 0.21680 0.70698 -0.01500
C 	C 	0.37340 0.26773 0.69156 0.00800
H 	H 	0.49612 0.15502 0.70528 0.01900
H 	H 	0.25566 0.23607 0.70852 0.04100
C 	C 	0.37071 0.34364 0.67709 0.09400
C 	C 	0.37067 0.02793 0.72391 0.00700
N 	N 	0.36850 0.40448 0.66549 -0.09800
N 	N 	0.36866 0.95821 0.72876 -0.09600
N 	N 	0.19376 0.76420 0.65182 -0.10400
C 	C 	0.03799 0.66531 0.00144 0.11700
O 	O 	0.10502 0.65862 0.01468 -0.19000
C 	C 	0.07662 0.64159 0.04214 0.03900
C 	C 	0.99965 0.63867 0.04522 -0.04800
H 	H 	0.96018 0.60321 0.06159 0.06300
C 	C 	0.43973 0.93115 0.00383 -0.09000
C 	C 	0.44459 0.86531 0.02162 0.01800
O 	O 	0.52131 0.81610 0.05232 -0.17900
C 	C 	0.44727 0.80957 0.06284 0.04200
C 	C 	0.40153 0.83885 0.04485 -0.06400
H 	H 	0.38901 0.95202 0.00423 0.08500
H 	H 	0.35373 0.86004 0.05137 0.06200
C 	C 	0.37603 0.35914 0.03751 0.00500
C 	C 	0.45306 0.39967 0.04792 0.11800
O 	O 	0.45738 0.42622 0.07611 -0.18100
C 	C 	0.37637 0.40461 0.08111 0.03200
C 	C 	0.32747 0.36161 0.05853 -0.05900
H 	H 	0.26739 0.36056 0.05501 0.01500
C 	C 	0.07184 0.16435 0.87904 0.07800
N 	N 	0.09973 0.12725 0.89404 -0.11500
C 	C 	0.35082 0.03519 0.81927 -0.03000
C 	C 	0.41799 0.09760 0.80742 -0.03000
C 	C 	0.48896 0.13411 0.82332 0.01200
C 	C 	0.49331 0.10816 0.85149 -0.08100
C 	C 	0.42711 0.04341 0.86300 0.01600
C 	C 	0.35601 0.00691 0.84707 -0.06300
H 	H 	0.41430 0.11941 0.78599 0.05500
H 	H 	0.43062 0.02251 0.88455 0.03900
C 	C 	0.28917 0.93980 0.85930 0.15000
N 	N 	0.23563 0.88604 0.86910 -0.11700
Ni	Ni	0.62737 0.29331 0.91514 1.10000
O 	O 	0.63665 0.36203 0.87818 -0.69600
Ni	Ni	0.74912 0.37592 0.86821 1.09800
O 	O 	0.53039 0.31580 0.93037 -0.34600
O 	O 	0.53174 0.43675 0.90725 -0.37800
O 	O 	0.55062 0.18223 0.89528 -0.36600
Ni	Ni	0.63517 0.48036 0.88407 1.07200
O 	O 	0.64440 0.11254 0.92234 -0.39600
O 	O 	0.70571 0.49603 0.91960 -0.39900
O 	O 	0.75917 0.45280 0.83379 -0.37600
O 	O 	0.73399 0.29851 0.90269 -0.71100
O 	O 	0.62539 0.22028 0.94978 -0.36200
O 	O 	0.85761 0.36624 0.86035 -0.36100
O 	O 	0.80445 0.21732 0.85952 -0.41000
Ni	Ni	0.72367 0.17911 0.89234 1.06300
H 	H 	0.59829 0.33014 0.86299 0.16500
H 	H 	0.77522 0.32338 0.91777 0.15700
C 	C 	0.78032 0.50169 0.91797 0.24100
O 	O 	0.63437 0.16057 0.86281 -0.41100
C 	C 	0.52699 0.39422 0.93091 0.25700
C 	C 	0.74807 0.52754 0.83601 0.28400
C 	C 	0.56261 0.15507 0.87011 0.28700
C 	C 	0.86708 0.29031 0.86013 0.27300
C 	C 	0.63263 0.14318 0.94742 0.24400
O 	O 	0.80822 0.48379 0.89384 -0.35900
O 	O 	0.72966 0.55293 0.86069 -0.39500
Ni	Ni	0.60827 0.38354 0.62733 1.10300
O 	O 	0.68847 0.40145 0.59544 -0.70000
Ni	Ni	0.76181 0.34641 0.61198 1.09900
O 	O 	0.56843 0.48087 0.61489 -0.33700
O 	O 	0.69548 0.57492 0.61003 -0.39600
O 	O 	0.52131 0.29814 0.60109 -0.34700
Ni	Ni	0.75330 0.51780 0.58314 1.07400
O 	O 	0.49975 0.20714 0.64846 -0.40300
O 	O 	0.85493 0.55054 0.60819 -0.38400
O 	O 	0.85363 0.38988 0.58397 -0.35400
O 	O 	0.67213 0.31276 0.64069 -0.70100
O 	O 	0.52855 0.35220 0.65927 -0.36000
O 	O 	0.81341 0.26663 0.63066 -0.35500
O 	O 	0.69695 0.14885 0.62837 -0.41100
Ni	Ni	0.60363 0.19038 0.63831 1.06600
H 	H 	0.66237 0.36705 0.57831 0.15800
H 	H 	0.69203 0.32979 0.66039 0.16800
C 	C 	0.85678 0.52492 0.63435 0.29900
O 	O 	0.58053 0.19684 0.59636 -0.41400
C 	C 	0.61844 0.55609 0.60630 0.25000
C 	C 	0.84458 0.41527 0.55799 0.25400
C 	C 	0.52794 0.23011 0.58778 0.26100
C 	C 	0.76946 0.18806 0.63902 0.27300
C 	C 	0.49528 0.26909 0.66588 0.27400
O 	O 	0.82100 0.44290 0.64086 -0.37800
O 	O 	0.80285 0.46604 0.55284 -0.39800
Ni	Ni	0.03101 0.93955 0.73166 1.11100
O 	O 	0.05038 0.86080 0.70117 -0.36400
O 	O 	0.93182 0.83898 0.74508 -0.36300
O 	O 	0.87419 0.97429 0.73862 -0.38500
O 	O 	0.95941 0.97039 0.70333 -0.35200
O 	O 	0.99399 0.06534 0.81442 -0.41500
Ni	Ni	0.94114 0.01802 0.77511 1.05200
O 	O 	0.92638 0.89621 0.78899 -0.38600
C 	C 	0.91077 0.82857 0.77175 0.28400
C 	C 	0.90254 0.99589 0.71291 0.31800
C 	C 	0.48534 0.73346 0.16818 0.27300
Ni	Ni	0.93380 0.07302 0.23393 1.09900
O 	O 	0.87228 0.11690 0.26305 -0.70800
Ni	Ni	0.84555 0.01604 0.28933 1.07900
O 	O 	0.90971 0.13322 0.19935 -0.36900
O 	O 	0.83621 0.21116 0.21602 -0.38700
Ni	Ni	0.77360 0.12111 0.24655 1.07200
O 	O 	0.76560 0.00999 0.22469 -0.45800
O 	O 	0.76670 0.04853 0.31292 -0.41100
O 	O 	0.92445 0.98821 0.26435 -0.67300
O 	O 	0.84671 0.91985 0.31670 -0.34300
H 	H 	0.90371 0.17164 0.27322 0.17200
H 	H 	0.90326 0.92780 0.25654 0.17100
C 	C 	0.74220 0.93350 0.23726 0.31700
C 	C 	0.89560 0.20594 0.20080 0.29900
C 	C 	0.69802 0.04423 0.30180 0.29600
C 	C 	0.91609 0.91975 0.32612 0.27200
O 	O 	0.75392 0.92807 0.26502 -0.35600
O 	O 	0.68900 0.04777 0.27397 -0.41600
C 	C 	0.95612 0.36380 0.18833 -0.00700
H 	H 	0.92933 0.38137 0.20669 0.05300
C 	C 	0.02193 0.51973 0.17886 0.09200
N 	N 	0.03054 0.59171 0.18401 -0.10200
C 	C 	0.55443 0.75441 0.18776 -0.05400
C 	C 	0.63114 0.78673 0.17665 -0.00700
C 	C 	0.69599 0.83842 0.19365 0.01400
C 	C 	0.68398 0.85768 0.22204 -0.06800
C 	C 	0.60973 0.81441 0.23413 -0.00100
C 	C 	0.54488 0.76301 0.21708 -0.00500
H 	H 	0.63929 0.77687 0.15430 0.06100
H 	H 	0.60096 0.82592 0.25631 0.05600
C 	C 	0.46777 0.72336 0.22951 0.06700
C 	C 	0.77422 0.87289 0.18168 0.08800
N 	N 	0.40596 0.69159 0.23946 -0.11800
N 	N 	0.83691 0.90056 0.17212 -0.09100
C 	C 	0.49001 0.92355 0.35100 -0.09200
C 	C 	0.49670 0.99767 0.33510 0.10900
C 	C 	0.56457 0.03835 0.31907 -0.06500
C 	C 	0.62643 0.00451 0.31881 -0.09900
C 	C 	0.61945 0.93025 0.33450 0.03800
C 	C 	0.55212 0.88975 0.35054 0.00800
H 	H 	0.44959 0.02440 0.33551 -0.01900
H 	H 	0.66631 0.90312 0.33389 0.05400
C 	C 	0.54681 0.81230 0.36582 0.07700
C 	C 	0.57100 0.11587 0.30361 0.08000
N 	N 	0.54341 0.75032 0.37796 -0.10900
N 	N 	0.57615 0.17798 0.29121 -0.13100
N 	N 	0.94215 0.33872 0.26043 -0.12800
C 	C 	0.89304 0.76267 0.28993 0.06400
N 	N 	0.85906 0.74874 0.26830 -0.11600
C 	C 	0.37840 0.14541 0.53461 0.13200
C 	C 	0.30450 0.97887 0.51059 0.14900
C 	C 	0.33115 0.98787 0.53890 -0.03200
C 	C 	0.36415 0.07201 0.55089 -0.04600
O 	O 	0.44095 0.21820 0.54492 -0.19400
C 	C 	0.46490 0.18000 0.56784 0.03600
C 	C 	0.41907 0.09417 0.57192 -0.03400
O 	O 	0.29860 0.90558 0.49436 -0.19500
H 	H 	0.33314 0.93178 0.55031 0.07000
H 	H 	0.43732 0.04886 0.58420 0.03300
C 	C 	0.99527 0.41916 0.51135 0.12400
C 	C 	0.07442 0.46552 0.50426 -0.09500
C 	C 	0.93420 0.41068 0.49201 0.00700
O 	O 	0.97138 0.40942 0.53936 -0.18200
C 	C 	0.89113 0.39764 0.53507 0.04500
C 	C 	0.86835 0.39715 0.50695 -0.06000
H 	H 	0.12289 0.47166 0.51908 0.07100
H 	H 	0.81745 0.41237 0.49960 0.05500
C 	C 	0.60823 0.67011 0.51580 -0.08700
C 	C 	0.58848 0.66212 0.54461 0.01100
C 	C 	0.51182 0.61601 0.55294 0.11800
C 	C 	0.45084 0.57982 0.53246 -0.08500
C 	C 	0.47156 0.58468 0.50387 0.01500
O 	O 	0.50798 0.58118 0.57977 -0.17500
C 	C 	0.58937 0.60660 0.58626 0.03400
C 	C 	0.63768 0.65631 0.56561 -0.05500
H 	H 	0.66862 0.70540 0.50942 0.07100
H 	H 	0.39048 0.54387 0.53873 0.07200
H 	H 	0.69880 0.66157 0.56254 0.02100
C 	C 	0.86604 0.04295 0.69413 -0.10500
C 	C 	0.86799 0.12595 0.70256 -0.00800
C 	C 	0.83798 0.17456 0.68452 -0.00300
C 	C 	0.80495 0.13966 0.65771 -0.07400
C 	C 	0.80193 0.05604 0.64941 -0.00200
C 	C 	0.83228 0.00754 0.66745 -0.03800
H 	H 	0.89376 0.15313 0.72310 0.00900
H 	H 	0.77579 0.02867 0.62894 0.03400
C 	C 	0.82646 0.92066 0.65877 0.14700
C 	C 	0.83964 0.25937 0.69396 0.06800
N 	N 	0.82181 0.85107 0.65182 -0.11000
N 	N 	0.84097 0.32728 0.70151 -0.11000
C 	C 	0.91346 0.58413 0.65508 -0.06300
C 	C 	0.99348 0.62508 0.64792 0.01200
C 	C 	0.04675 0.68702 0.66643 0.00100
C 	C 	0.01967 0.70905 0.69227 -0.06100
C 	C 	0.94103 0.66377 0.70019 -0.00100
C 	C 	0.88793 0.60142 0.68182 0.01000
H 	H 	0.01392 0.60975 0.62774 0.04900
H 	H 	0.91984 0.68085 0.71993 0.05300
C 	C 	0.80635 0.55862 0.69004 0.08400
C 	C 	0.12837 0.72986 0.65832 0.09600
N 	N 	0.74101 0.52432 0.69661 -0.11800
C 	C 	0.02349 0.65064 0.97218 -0.09300
C 	C 	0.94542 0.63089 0.96178 0.02100
C 	C 	0.88230 0.61348 0.97984 0.11700
C 	C 	0.89619 0.62160 0.00927 -0.08600
C 	C 	0.97547 0.65434 0.01942 0.01600
O 	O 	0.80978 0.56015 0.96783 -0.19400
C 	C 	0.83612 0.54544 0.94122 0.04300
C 	C 	0.91640 0.58759 0.93737 -0.05700
H 	H 	0.07028 0.64870 0.95835 0.07200
H 	H 	0.84722 0.59804 0.02370 0.07000
H 	H 	0.95109 0.57056 0.92135 0.06500
C 	C 	0.51569 0.85250 0.02624 0.12100
C 	C 	0.58310 0.90027 0.01090 -0.09900
C 	C 	0.57345 0.95465 0.98948 0.06700
C 	C 	0.50492 0.97338 0.98691 0.14900
O 	O 	0.51554 0.05258 0.97428 -0.21500
C 	C 	0.59716 0.07968 0.96937 0.06700
C 	C 	0.63199 0.02180 0.97845 -0.13200
H 	H 	0.64120 0.89850 0.01641 0.08400
H 	H 	0.69529 0.03595 0.98129 0.05100
C 	C 	0.41811 0.40634 0.99038 0.11500
C 	C 	0.35690 0.36193 0.00861 -0.08800
C 	C 	0.51443 0.44141 0.02934 -0.08700
C 	C 	0.49418 0.44841 0.00092 0.01800
O 	O 	0.41395 0.38780 0.96147 -0.18100
C 	C 	0.49522 0.42248 0.95583 0.04800
C 	C 	0.54335 0.45837 0.97922 -0.06400
H 	H 	0.29640 0.33053 0.00059 0.06300
H 	H 	0.57500 0.47318 0.03725 0.07300
H 	H 	0.60528 0.46461 0.98137 0.05800
C 	C 	0.05197 0.21359 0.83109 -0.06200
C 	C 	0.02868 0.27096 0.81445 -0.03100
C 	C 	0.97349 0.30589 0.82479 0.01100
C 	C 	0.94479 0.28629 0.85248 -0.06900
C 	C 	0.98210 0.24546 0.87086 -0.01100
C 	C 	0.03706 0.21059 0.86033 -0.00200
H 	H 	0.04510 0.27903 0.79236 0.03100
H 	H 	0.96407 0.23520 0.89274 0.02100
C 	C 	0.94250 0.35618 0.80626 0.07900
N 	N 	0.91767 0.39644 0.79139 -0.10700
C 	C 	0.55596 0.20062 0.81092 0.06000
N 	N 	0.60960 0.25391 0.80098 -0.12200
C 	C 	0.78166 0.59397 0.81424 -0.05900
C 	C 	0.85636 0.60458 0.80322 -0.00400
C 	C 	0.89707 0.67775 0.78724 0.00100
C 	C 	0.86245 0.74118 0.78190 -0.06100
C 	C 	0.78462 0.72626 0.79068 -0.00500
C 	C 	0.74401 0.65301 0.80674 0.00400
H 	H 	0.88475 0.55817 0.80833 0.06100
H 	H 	0.75684 0.77349 0.78594 0.04700
C 	C 	0.66372 0.63878 0.81530 0.06800
C 	C 	0.97526 0.68809 0.77735 0.07600
N 	N 	0.59939 0.62738 0.82216 -0.12400
N 	N 	0.03784 0.69494 0.76963 -0.13400
