data_crystal

_cell_length_a 26.19714
_cell_length_b 26.25096
_cell_length_c 34.05640
_cell_angle_alpha 95.53579
_cell_angle_beta  95.53750
_cell_angle_gamma 125.70002

_symmetry_space_group_name_	'P 1'
_symmetry_space_group_name_H-M	'P 1'

loop_
_symmetry_equiv_pos_as_xyz
  x,y,z

loop_
_atom_site_label
_atom_site_type_symbol
_atom_site_fract_x
_atom_site_fract_y
_atom_site_fract_z
_atom_site_charge
C 	C 	0.91973 0.98199 0.98636 0.16200
N 	N 	0.98292 0.01758 0.98431 -0.12400
C 	C 	0.01181 0.98880 0.97902 0.16900
N 	N 	0.97786 0.92472 0.97637 -0.13400
C 	C 	0.91501 0.88923 0.97887 0.16100
N 	N 	0.88598 0.91787 0.98391 -0.12800
C 	C 	0.98904 0.04895 0.46574 0.15600
N 	N 	0.96126 0.98877 0.47293 -0.13100
C 	C 	0.99445 0.96375 0.47299 0.15600
N 	N 	0.05495 0.99881 0.46553 -0.12200
C 	C 	0.08320 0.05937 0.45952 0.16300
N 	N 	0.05022 0.08432 0.45955 -0.11700
Cu	Cu	0.58449 0.18825 0.99602 0.93500
Cu	Cu	0.64616 0.20258 0.91523 0.88400
Cu	Cu	0.62248 0.29098 0.94641 0.90200
Cu	Cu	0.59969 0.31424 0.02717 0.90800
C 	C 	0.60846 0.23555 0.08005 0.33100
O 	O 	0.49370 0.16028 0.99487 -0.32800
C 	C 	0.61001 0.25893 0.85997 0.32900
O 	O 	0.64376 0.28865 0.00152 -0.63600
O 	O 	0.57970 0.19782 0.93947 -0.63900
O 	O 	0.61696 0.13625 0.99178 -0.33100
O 	O 	0.69671 0.20760 0.96147 -0.41600
O 	O 	0.58274 0.26470 0.07114 -0.35600
O 	O 	0.67055 0.38284 0.95314 -0.35000
C 	C 	0.67435 0.42168 0.98304 0.31100
C 	C 	0.47505 0.19322 0.98096 0.30300
O 	O 	0.51792 0.25322 0.97861 -0.38700
O 	O 	0.64928 0.40199 0.01520 -0.36200
O 	O 	0.60358 0.19325 0.05255 -0.32600
C 	C 	0.67251 0.16016 0.98110 0.31400
O 	O 	0.59939 0.28634 0.88942 -0.34900
O 	O 	0.61714 0.21389 0.86491 -0.37900
H 	H 	0.69017 0.31363 0.01235 0.19300
H 	H 	0.53665 0.17126 0.92216 0.20800
Cu	Cu	0.77588 0.37917 0.45953 0.93100
Cu	Cu	0.77234 0.33158 0.54537 0.90600
Cu	Cu	0.67228 0.35690 0.50552 0.92200
Cu	Cu	0.66974 0.39625 0.42620 0.90800
C 	C 	0.73641 0.36546 0.37490 0.33000
O 	O 	0.82506 0.47540 0.46335 -0.34100
C 	C 	0.67577 0.32597 0.58154 0.33300
O 	O 	0.67747 0.33914 0.45066 -0.63500
O 	O 	0.76294 0.38667 0.51567 -0.62500
O 	O 	0.80327 0.32163 0.46006 -0.33400
O 	O 	0.84576 0.34999 0.52681 -0.38700
O 	O 	0.71756 0.40156 0.38298 -0.35600
O 	O 	0.58274 0.32136 0.49474 -0.33700
C 	C 	0.55270 0.32109 0.46123 0.30900
C 	C 	0.80075 0.50512 0.47513 0.29900
O 	O 	0.73935 0.47219 0.47600 -0.36700
O 	O 	0.58395 0.36411 0.43866 -0.36400
O 	O 	0.77289 0.36275 0.40286 -0.32900
C 	C 	0.83961 0.32321 0.49047 0.30800
O 	O 	0.66934 0.36306 0.56198 -0.34300
O 	O 	0.69151 0.29163 0.56372 -0.38100
H 	H 	0.64646 0.29363 0.43757 0.19500
H 	H 	0.79198 0.43123 0.53069 0.18400
C 	C 	0.66042 0.31874 0.62216 -0.11500
C 	C 	0.60116 0.30321 0.62953 0.13100
C 	C 	0.58812 0.29873 0.66868 0.06800
C 	C 	0.63032 0.30144 0.69927 0.02000
C 	C 	0.68795 0.31366 0.69138 0.06700
C 	C 	0.70473 0.32625 0.65367 0.12900
C 	C 	0.61426 0.29141 0.73971 0.01900
C 	C 	0.64511 0.34403 0.77167 0.06900
C 	C 	0.64232 0.33405 0.81150 0.12200
C 	C 	0.60347 0.27122 0.81904 -0.10800
C 	C 	0.56409 0.21949 0.78655 0.12600
C 	C 	0.57250 0.22900 0.74709 0.06700
Br	Br	0.74311 0.31158 0.73199 -0.13900
Br	Br	0.53571 0.28249 0.58570 -0.14000
Br	Br	0.69491 0.40601 0.85541 -0.15700
Br	Br	0.52996 0.15653 0.70358 -0.12700
Br	Br	0.78996 0.35813 0.64606 -0.22000
Br	Br	0.51321 0.29006 0.68066 -0.12300
Br	Br	0.69232 0.42957 0.76074 -0.13000
Br	Br	0.49606 0.13681 0.79597 -0.14900
C 	C 	0.62752 0.23773 0.12269 -0.11000
C 	C 	0.58545 0.22554 0.14944 0.12800
C 	C 	0.60887 0.24412 0.19105 0.06600
C 	C 	0.67264 0.26847 0.20603 0.01900
C 	C 	0.71178 0.27147 0.17932 0.06900
C 	C 	0.69003 0.25817 0.13759 0.12400
C 	C 	0.69960 0.29479 0.24946 0.01900
C 	C 	0.73473 0.36095 0.26383 0.06600
C 	C 	0.75348 0.38490 0.30540 0.12700
C 	C 	0.73141 0.34229 0.33251 -0.11000
C 	C 	0.69967 0.27659 0.31828 0.12200
C 	C 	0.68596 0.25330 0.27677 0.06900
Br	Br	0.79535 0.29482 0.20002 -0.12100
Br	Br	0.49521 0.17990 0.12909 -0.14000
Br	Br	0.81248 0.47582 0.32524 -0.14500
Br	Br	0.64746 0.16456 0.25712 -0.12000
Br	Br	0.74671 0.27080 0.10105 -0.17200
Br	Br	0.55475 0.23934 0.22744 -0.13700
Br	Br	0.75423 0.41820 0.22662 -0.13700
Br	Br	0.67190 0.21816 0.35533 -0.15900
C 	C 	0.97777 0.82216 0.50623 -0.07300
C 	C 	0.91709 0.77160 0.48438 0.02700
C 	C 	0.87863 0.78464 0.46259 0.07500
C 	C 	0.90294 0.84803 0.46083 -0.02400
C 	C 	0.96506 0.89862 0.48103 -0.03300
C 	C 	0.00143 0.88557 0.50541 0.11800
C 	C 	0.89343 0.70504 0.48514 0.02700
N 	N 	0.81484 0.73368 0.44231 -0.01800
H 	H 	0.87430 0.85769 0.44261 0.08200
N 	N 	0.06172 0.93663 0.53006 -0.02300
H 	H 	0.00637 0.81225 0.52425 0.09600
C 	C 	0.91055 0.67452 0.45909 0.06800
C 	C 	0.88395 0.60996 0.45824 -0.00300
C 	C 	0.84073 0.57566 0.48338 -0.08100
C 	C 	0.82866 0.60810 0.51213 0.12300
C 	C 	0.85401 0.67218 0.51226 -0.06800
N 	N 	0.95462 0.70881 0.43331 -0.01900
H 	H 	0.89454 0.58579 0.43664 0.08400
N 	N 	0.79131 0.57627 0.54151 -0.02300
H 	H 	0.84316 0.69646 0.53356 0.09100
O 	O 	0.11219 0.93852 0.52844 -0.06500
O 	O 	0.06538 0.97919 0.55574 -0.06300
O 	O 	0.76678 0.73210 0.45114 -0.07300
O 	O 	0.80521 0.69161 0.41303 -0.06800
O 	O 	0.80673 0.54827 0.56414 -0.09300
O 	O 	0.74421 0.57848 0.54725 -0.07300
O 	O 	0.00716 0.71357 0.43585 -0.06300
O 	O 	0.93995 0.73087 0.40526 -0.06500
C 	C 	0.93296 0.14688 0.43871 -0.05600
C 	C 	0.91236 0.15423 0.47385 0.02000
C 	C 	0.90876 0.11961 0.50403 0.07800
C 	C 	0.92934 0.08095 0.49971 -0.02700
C 	C 	0.95377 0.07677 0.46564 -0.02300
C 	C 	0.95292 0.10776 0.43420 0.10400
C 	C 	0.89407 0.19786 0.47869 0.03400
N 	N 	0.88513 0.12433 0.53935 -0.01900
H 	H 	0.92920 0.05667 0.52376 0.08400
N 	N 	0.97223 0.09945 0.39762 -0.02400
H 	H 	0.93355 0.17164 0.41486 0.09100
C 	C 	0.94132 0.26462 0.48880 0.06200
C 	C 	0.92304 0.30532 0.49224 0.00400
C 	C 	0.85811 0.28005 0.48554 -0.08600
C 	C 	0.81091 0.21327 0.47546 0.12600
C 	C 	0.82918 0.17266 0.47183 -0.06800
N 	N 	0.00786 0.29124 0.49532 -0.01500
H 	H 	0.95940 0.35657 0.50028 0.07300
N 	N 	0.74434 0.18648 0.46958 -0.02300
H 	H 	0.79282 0.12139 0.46403 0.09400
O 	O 	0.01359 0.14901 0.38313 -0.05900
O 	O 	0.94612 0.04230 0.37779 -0.07200
O 	O 	0.83677 0.07310 0.54881 -0.07100
O 	O 	0.91489 0.17902 0.56360 -0.06700
O 	O 	0.70666 0.14925 0.43579 -0.06100
O 	O 	0.72045 0.19485 0.49913 -0.11700
O 	O 	0.04541 0.33288 0.47455 -0.06600
O 	O 	0.03172 0.27714 0.52382 -0.06000
C 	C 	0.26088 0.19204 0.48049 -0.05500
C 	C 	0.28002 0.17402 0.44822 0.02300
C 	C 	0.23396 0.11901 0.41900 0.07800
C 	C 	0.16967 0.08162 0.42310 -0.02400
C 	C 	0.15074 0.09924 0.45565 -0.02300
C 	C 	0.19660 0.15487 0.48446 0.10900
C 	C 	0.34888 0.20979 0.44712 0.03500
N 	N 	0.25239 0.10099 0.38519 -0.01900
H 	H 	0.13432 0.03921 0.40070 0.08600
N 	N 	0.17834 0.17268 0.51844 -0.02200
H 	H 	0.29630 0.23402 0.50316 0.09400
C 	C 	0.38450 0.27312 0.44051 0.06500
C 	C 	0.45105 0.30875 0.44417 0.00300
C 	C 	0.48230 0.28142 0.45373 -0.07900
C 	C 	0.44613 0.21697 0.45822 0.13100
C 	C 	0.37985 0.18191 0.45552 -0.06700
N 	N 	0.35327 0.30157 0.43048 -0.01700
H 	H 	0.47851 0.35800 0.44017 0.07900
N 	N 	0.47649 0.18672 0.46491 -0.02400
H 	H 	0.35238 0.13292 0.46006 0.09700
O 	O 	0.19080 0.22883 0.52543 -0.05900
O 	O 	0.15360 0.13470 0.54397 -0.06000
O 	O 	0.23648 0.04350 0.37696 -0.06700
O 	O 	0.28165 0.14076 0.36126 -0.06200
O 	O 	0.50884 0.18420 0.43912 -0.08800
O 	O 	0.46775 0.15754 0.49514 -0.06100
O 	O 	0.37276 0.35595 0.45148 -0.06800
O 	O 	0.30785 0.27499 0.39901 -0.06200
C 	C 	0.79135 0.71032 0.94851 -0.05500
C 	C 	0.81043 0.68929 0.97903 0.01500
C 	C 	0.86426 0.73417 0.00934 0.08200
C 	C 	0.89884 0.79940 0.00850 -0.02100
C 	C 	0.87941 0.82047 0.97825 -0.03300
C 	C 	0.82549 0.77567 0.94797 0.10600
C 	C 	0.77453 0.62019 0.97877 0.03500
N 	N 	0.88347 0.71363 0.04127 -0.01900
H 	H 	0.94009 0.83385 0.03193 0.08400
N 	N 	0.80591 0.79632 0.91630 -0.02200
H 	H 	0.75029 0.67584 0.92499 0.09200
C 	C 	0.71261 0.58492 0.98790 0.06400
C 	C 	0.67994 0.51980 0.98853 0.00300
C 	C 	0.70896 0.48971 0.98099 -0.08000
C 	C 	0.77124 0.52518 0.97223 0.13400
C 	C 	0.80303 0.58984 0.97030 -0.06900
N 	N 	0.68311 0.61531 0.99707 -0.02000
H 	H 	0.63217 0.49272 0.99536 0.07100
N 	N 	0.80348 0.49655 0.96717 -0.02300
H 	H 	0.85081 0.61704 0.96350 0.09400
O 	O 	0.74745 0.77843 0.90913 -0.06600
O 	O 	0.84512 0.82921 0.89289 -0.06900
O 	O 	0.94145 0.73021 0.04816 -0.06900
O 	O 	0.84447 0.68214 0.06514 -0.06400
O 	O 	0.81347 0.47268 0.99610 -0.08600
O 	O 	0.82870 0.50041 0.93549 -0.06600
O 	O 	0.62805 0.59415 0.97600 -0.07200
O 	O 	0.70898 0.66109 0.02819 -0.06100
C 	C 	0.85837 0.07936 0.96986 -0.06500
C 	C 	0.82171 0.06622 0.00001 0.02700
C 	C 	0.81925 0.02726 0.02665 0.07600
C 	C 	0.85221 0.00067 0.02222 -0.01700
C 	C 	0.88782 0.01273 0.99154 -0.03200
C 	C 	0.89086 0.05235 0.96520 0.10900
C 	C 	0.78209 0.08930 0.00145 0.04100
N 	N 	0.78283 0.01411 0.05798 -0.01900
H 	H 	0.85022 0.97070 0.04275 0.08400
N 	N 	0.92464 0.06308 0.93266 -0.02300
H 	H 	0.85987 0.10888 0.94914 0.08800
C 	C 	0.81102 0.15497 0.01289 0.06200
C 	C 	0.77403 0.17729 0.00782 0.01400
C 	C 	0.70835 0.13471 0.99154 -0.09500
C 	C 	0.67886 0.06863 0.98204 0.13100
C 	C 	0.71581 0.04630 0.98734 -0.07900
N 	N 	0.87823 0.19926 0.02888 -0.01600
H 	H 	0.79660 0.22796 0.01602 0.07900
N 	N 	0.61209 0.02439 0.96506 -0.02400
H 	H 	0.69339 0.99572 0.97874 0.09500
O 	O 	0.97042 0.12104 0.92949 -0.06700
O 	O 	0.90623 0.01544 0.90448 -0.06900
O 	O 	0.74004 0.95535 0.06143 -0.06500
O 	O 	0.79511 0.06082 0.08449 -0.05700
O 	O 	0.59074 0.02509 0.92916 -0.09200
O 	O 	0.57382 0.97958 0.98385 -0.06000
O 	O 	0.91394 0.24953 0.01323 -0.07000
O 	O 	0.90308 0.19122 0.06043 -0.05800
C 	C 	0.29394 0.07623 0.95861 -0.07000
C 	C 	0.27720 0.11621 0.97137 0.03600
C 	C 	0.32528 0.18221 0.98457 0.06200
C 	C 	0.38966 0.20704 0.98669 0.00200
C 	C 	0.40671 0.16686 0.97496 -0.08300
C 	C 	0.35828 0.10134 0.95961 0.13100
C 	C 	0.20965 0.08816 0.97308 0.01500
N 	N 	0.30888 0.22409 0.99624 -0.02000
H 	H 	0.42652 0.25756 0.99803 0.06500
N 	N 	0.37408 0.06060 0.94396 -0.02300
H 	H 	0.25690 0.02560 0.94776 0.09500
C 	C 	0.16343 0.06173 0.93752 0.07800
C 	C 	0.09884 0.03088 0.93982 -0.02400
C 	C 	0.08010 0.02694 0.97726 -0.03200
C 	C 	0.12652 0.05523 0.01279 0.11200
C 	C 	0.19101 0.08567 0.01053 -0.04900
N 	N 	0.18190 0.06584 0.89905 -0.01900
H 	H 	0.06317 0.00957 0.91247 0.08600
N 	N 	0.10822 0.05241 0.05124 -0.02200
H 	H 	0.22649 0.10624 0.03792 0.09200
O 	O 	0.40288 0.07211 0.91337 -0.08300
O 	O 	0.35487 0.00906 0.95806 -0.06600
O 	O 	0.33450 0.26120 0.03143 -0.06700
O 	O 	0.27132 0.22787 0.97084 -0.06400
O 	O 	0.07248 0.99766 0.06244 -0.07000
O 	O 	0.13171 0.10493 0.07635 -0.06000
O 	O 	0.15445 0.01433 0.87198 -0.06900
O 	O 	0.22321 0.12135 0.89021 -0.06200
