data_crystal

_cell_length_a 18.61476
_cell_length_b 18.91036
_cell_length_c 34.62343
_cell_angle_alpha 95.41478
_cell_angle_beta  95.41563
_cell_angle_gamma 126.42436

_symmetry_space_group_name_	'P 1'
_symmetry_space_group_name_H-M	'P 1'

loop_
_symmetry_equiv_pos_as_xyz
  x,y,z

loop_
_atom_site_label
_atom_site_type_symbol
_atom_site_fract_x
_atom_site_fract_y
_atom_site_fract_z
_atom_site_charge
C 	C 	0.90088 0.01398 0.96610 0.03000
C 	C 	0.85523 0.92224 0.96650 -0.08000
C 	C 	0.90370 0.88667 0.96656 0.02700
C 	C 	0.99691 0.94268 0.96592 -0.06500
C 	C 	0.04142 0.03309 0.96414 0.01900
C 	C 	0.99347 0.06854 0.96426 -0.06000
H 	H 	0.78333 0.87947 0.96747 0.04900
H 	H 	0.03458 0.91570 0.96640 0.04300
H 	H 	0.02858 0.13900 0.96366 0.04300
C 	C 	0.95266 0.02174 0.50002 0.05800
C 	C 	0.89957 0.93008 0.50081 -0.10000
C 	C 	0.93845 0.88557 0.49936 0.05600
C 	C 	0.03094 0.93307 0.49849 -0.10600
C 	C 	0.08491 0.02511 0.49898 0.05300
C 	C 	0.04565 0.06950 0.49922 -0.10200
H 	H 	0.82768 0.89305 0.50140 0.05500
H 	H 	0.06104 0.89849 0.49759 0.05500
H 	H 	0.08698 0.14050 0.49866 0.05400
Cu	Cu	0.75597 0.35985 0.96105 0.92700
Cu	Cu	0.73794 0.29811 0.04696 0.86900
Cu	Cu	0.60385 0.31369 0.00537 0.89500
Cu	Cu	0.58489 0.34342 0.92326 0.89300
C 	C 	0.69909 0.32105 0.87684 0.29000
O 	O 	0.80459 0.48817 0.95687 -0.35900
C 	C 	0.64692 0.34330 0.09264 0.28800
O 	O 	0.61339 0.28202 0.95294 -0.63900
O 	O 	0.73774 0.37717 0.01534 -0.64400
O 	O 	0.81959 0.30533 0.97103 -0.37300
O 	O 	0.71639 0.20986 0.00610 -0.44400
O 	O 	0.65905 0.35907 0.88210 -0.39000
O 	O 	0.47327 0.24300 0.99345 -0.38500
C 	C 	0.42506 0.24699 0.96444 0.30200
C 	C 	0.75921 0.51906 0.96558 0.28600
O 	O 	0.67333 0.46308 0.96820 -0.39700
O 	O 	0.45939 0.28453 0.93396 -0.39700
O 	O 	0.75050 0.32327 0.90669 -0.36600
C 	C 	0.77792 0.22983 0.98445 0.29800
O 	O 	0.59466 0.33477 0.06096 -0.38200
O 	O 	0.72375 0.35548 0.09051 -0.41700
H 	H 	0.57682 0.21686 0.94294 0.16600
H 	H 	0.77344 0.44009 0.02919 0.17400
Cu	Cu	0.62315 0.19027 0.50652 0.92800
Cu	Cu	0.68032 0.19153 0.41964 0.87200
Cu	Cu	0.66708 0.33045 0.45585 0.89900
Cu	Cu	0.62928 0.35613 0.53619 0.89700
C 	C 	0.66282 0.26012 0.58935 0.28900
O 	O 	0.49269 0.13883 0.50985 -0.36300
C 	C 	0.62590 0.26774 0.36896 0.29000
O 	O 	0.69703 0.32930 0.51021 -0.63800
O 	O 	0.60322 0.19887 0.45049 -0.64000
O 	O 	0.67839 0.12721 0.50065 -0.37300
O 	O 	0.77096 0.21942 0.46162 -0.44000
O 	O 	0.61887 0.29329 0.58098 -0.38000
O 	O 	0.73627 0.45892 0.46459 -0.38200
C 	C 	0.73627 0.50793 0.49441 0.29900
C 	C 	0.45719 0.17685 0.49669 0.29100
O 	O 	0.51063 0.25958 0.49139 -0.39700
O 	O 	0.67774 0.47118 0.51845 -0.39500
O 	O 	0.66137 0.20528 0.56204 -0.36100
C 	C 	0.75130 0.16174 0.48481 0.29900
O 	O 	0.65731 0.33414 0.39880 -0.38100
O 	O 	0.61675 0.19498 0.37442 -0.42000
H 	H 	0.76299 0.36810 0.52126 0.16500
H 	H 	0.53891 0.16200 0.43695 0.17200
C 	C 	0.62239 0.22818 0.76768 -0.04300
C 	C 	0.70585 0.26373 0.75524 0.02100
C 	C 	0.78599 0.30887 0.78351 -0.06300
C 	C 	0.78477 0.32494 0.82372 0.02500
C 	C 	0.70160 0.29287 0.83601 -0.08700
C 	C 	0.62063 0.24163 0.80792 0.00800
C 	C 	0.71170 0.26556 0.71288 0.01900
C 	C 	0.74645 0.34563 0.69922 -0.06000
C 	C 	0.73806 0.34601 0.65867 0.02200
C 	C 	0.69207 0.26499 0.63132 -0.08100
C 	C 	0.66487 0.18641 0.64502 0.01100
C 	C 	0.67557 0.18663 0.68568 -0.04100
C 	C 	0.77765 0.42990 0.64534 0.05500
C 	C 	0.64791 0.10546 0.69925 0.08800
C 	C 	0.53877 0.18133 0.73920 0.08600
C 	C 	0.86966 0.37839 0.85172 0.07200
N 	N 	0.80945 0.49715 0.63472 -0.13000
N 	N 	0.62573 0.04043 0.71015 -0.12000
N 	N 	0.93771 0.42121 0.87411 -0.11200
N 	N 	0.47183 0.14382 0.71637 -0.12100
H 	H 	0.55649 0.21547 0.81730 0.02500
H 	H 	0.85006 0.33544 0.77399 0.05000
H 	H 	0.77763 0.40717 0.72019 0.05000
H 	H 	0.63222 0.12446 0.62412 0.04500
C 	C 	0.67698 0.41382 0.20154 -0.04300
C 	C 	0.60254 0.33406 0.21071 0.01900
C 	C 	0.53296 0.26569 0.18011 -0.06200
C 	C 	0.54279 0.27139 0.14065 0.02100
C 	C 	0.62279 0.34674 0.13173 -0.08700
C 	C 	0.68695 0.41966 0.16212 0.01100
C 	C 	0.60601 0.31468 0.25100 0.02100
C 	C 	0.56388 0.33169 0.27790 -0.06200
C 	C 	0.56820 0.31506 0.31638 0.02500
C 	C 	0.61588 0.28169 0.32815 -0.08600
C 	C 	0.65654 0.26333 0.30091 0.01000
C 	C 	0.65175 0.27945 0.26252 -0.04400
C 	C 	0.52132 0.32976 0.34310 0.06600
C 	C 	0.69448 0.26019 0.23510 0.08400
C 	C 	0.74559 0.48818 0.23256 0.08500
C 	C 	0.47329 0.19722 0.10973 0.05700
N 	N 	0.48376 0.34152 0.36452 -0.12000
N 	N 	0.72866 0.24482 0.21310 -0.12600
N 	N 	0.41763 0.13775 0.08498 -0.12000
N 	N 	0.80055 0.54771 0.25745 -0.12200
H 	H 	0.74689 0.47910 0.15522 0.03400
H 	H 	0.47416 0.20542 0.18713 0.04800
H 	H 	0.52778 0.35782 0.26887 0.04900
H 	H 	0.69318 0.23768 0.30983 0.02600
C 	C 	0.88917 0.75752 0.53250 -0.08100
C 	C 	0.88225 0.78872 0.49831 -0.01800
C 	C 	0.82838 0.72767 0.46254 0.03700
C 	C 	0.78129 0.63586 0.46172 -0.01700
C 	C 	0.78897 0.60464 0.49585 -0.10300
C 	C 	0.84483 0.66604 0.53137 0.09300
C 	C 	0.85681 0.63448 0.56816 -0.20000
H 	H 	0.93109 0.80490 0.55982 0.04900
H 	H 	0.73808 0.58849 0.43455 0.04800
C 	C 	0.82086 0.76018 0.42529 -0.17900
H 	H 	0.91596 0.69067 0.59051 0.07100
H 	H 	0.86905 0.58434 0.56110 0.06800
H 	H 	0.79498 0.60427 0.58146 0.07700
H 	H 	0.88951 0.80929 0.41869 0.06800
H 	H 	0.78719 0.79235 0.42898 0.06500
H 	H 	0.78028 0.70441 0.39939 0.06700
C 	C 	0.86501 0.05613 0.45884 -0.07900
C 	C 	0.90870 0.06532 0.49625 -0.01700
C 	C 	0.90126 0.10688 0.53007 0.03400
C 	C 	0.84837 0.13707 0.52592 -0.01500
C 	C 	0.80352 0.12662 0.48851 -0.10800
C 	C 	0.81050 0.08431 0.45472 0.08800
C 	C 	0.75982 0.06870 0.41429 -0.19200
H 	H 	0.87097 0.02407 0.43300 0.04900
H 	H 	0.84244 0.16912 0.55177 0.04200
C 	C 	0.94803 0.11744 0.57057 -0.16900
H 	H 	0.75824 0.02025 0.39268 0.06200
H 	H 	0.79367 0.13274 0.40336 0.04400
H 	H 	0.68822 0.04069 0.41539 0.03700
H 	H 	0.02189 0.15366 0.57120 0.05800
H 	H 	0.91854 0.05055 0.57807 0.06700
H 	H 	0.94011 0.15605 0.59368 0.06400
C 	C 	0.33023 0.12304 0.53254 -0.02100
C 	C 	0.36098 0.13509 0.49658 -0.10700
C 	C 	0.30255 0.11753 0.46176 0.09400
C 	C 	0.21394 0.08802 0.46355 -0.08100
C 	C 	0.18278 0.07452 0.49942 -0.01800
C 	C 	0.24226 0.09504 0.53442 0.03600
C 	C 	0.21104 0.08398 0.57356 -0.17800
H 	H 	0.37577 0.13778 0.55929 0.04400
H 	H 	0.16807 0.07252 0.43678 0.04900
C 	C 	0.33432 0.13005 0.42272 -0.20200
H 	H 	0.26940 0.11882 0.59869 0.06600
H 	H 	0.16529 0.01182 0.57512 0.06700
H 	H 	0.17413 0.11285 0.57715 0.06500
H 	H 	0.36523 0.09549 0.41759 0.06500
H 	H 	0.38539 0.20245 0.42273 0.08000
H 	H 	0.27718 0.10187 0.39765 0.07000
C 	C 	0.83569 0.73398 0.93051 -0.08700
C 	C 	0.85702 0.79009 0.96617 -0.00300
C 	C 	0.84769 0.75737 0.00187 0.02600
C 	C 	0.81896 0.66953 0.00138 -0.02300
C 	C 	0.79957 0.61411 0.96581 -0.10100
C 	C 	0.80751 0.64642 0.93001 0.09400
C 	C 	0.78344 0.58708 0.89114 -0.20400
H 	H 	0.84332 0.75937 0.90318 0.05000
H 	H 	0.81106 0.64406 0.02870 0.03200
C 	C 	0.86965 0.81625 0.04054 -0.17300
H 	H 	0.79755 0.62365 0.86618 0.07000
H 	H 	0.70993 0.52984 0.88519 0.06900
H 	H 	0.82401 0.56164 0.89193 0.09000
H 	H 	0.82823 0.84075 0.03895 0.06000
H 	H 	0.94288 0.87438 0.04699 0.06400
H 	H 	0.85486 0.77961 0.06551 0.06100
C 	C 	0.82904 0.07814 0.93677 -0.09000
C 	C 	0.85393 0.05509 0.97015 0.00000
C 	C 	0.85079 0.08718 0.00800 0.02100
C 	C 	0.82789 0.14584 0.01210 -0.01800
C 	C 	0.80636 0.17169 0.97892 -0.11000
C 	C 	0.80439 0.13556 0.94078 0.10300
C 	C 	0.77800 0.15917 0.90441 -0.21000
H 	H 	0.83188 0.05378 0.90776 0.05400
H 	H 	0.82739 0.17194 0.04125 0.02000
C 	C 	0.87523 0.06181 0.04423 -0.16500
H 	H 	0.76821 0.11652 0.87697 0.07500
H 	H 	0.83229 0.23001 0.90302 0.09600
H 	H 	0.71301 0.14917 0.90499 0.08100
H 	H 	0.94809 0.09006 0.04862 0.06200
H 	H 	0.83278 0.98787 0.04078 0.05600
H 	H 	0.86363 0.08744 0.07126 0.05700
C 	C 	0.20090 0.15488 0.99679 -0.08500
C 	C 	0.13930 0.09153 0.96309 -0.00300
C 	C 	0.17136 0.08477 0.92860 0.02700
C 	C 	0.26522 0.13693 0.92938 -0.01300
C 	C 	0.32707 0.19849 0.96349 -0.11000
C 	C 	0.29454 0.21055 0.99687 0.10700
C 	C 	0.35905 0.28188 0.03266 -0.21300
H 	H 	0.17581 0.16103 0.02295 0.04600
H 	H 	0.29026 0.12866 0.90362 0.03600
C 	C 	0.10601 0.02036 0.89131 -0.16800
H 	H 	0.32285 0.29674 0.05157 0.07000
H 	H 	0.41226 0.34528 0.02368 0.07500
H 	H 	0.39168 0.25903 0.05056 0.09400
H 	H 	0.05058 0.02650 0.88464 0.06400
H 	H 	0.07631 0.95078 0.89489 0.05900
H 	H 	0.14052 0.03404 0.86547 0.06000
