data_crystal

_cell_length_a 13.65990
_cell_length_b 18.06779
_cell_length_c 46.53399
_cell_angle_alpha 90.35074
_cell_angle_beta  90.35881
_cell_angle_gamma 119.35314

_symmetry_space_group_name_	'P 1'
_symmetry_space_group_name_H-M	'P 1'

loop_
_symmetry_equiv_pos_as_xyz
  x,y,z

loop_
_atom_site_label
_atom_site_type_symbol
_atom_site_fract_x
_atom_site_fract_y
_atom_site_fract_z
_atom_site_charge
C 	C 	0.57610 0.45704 0.91636 0.31300
C 	C 	0.44818 0.20648 0.88875 0.29900
Ni	Ni	0.48260 0.29410 0.94401 1.11900
O 	O 	0.40000 0.20614 0.91313 -0.37600
O 	O 	0.51176 0.27878 0.87606 -0.38700
O 	O 	0.48104 0.38722 0.92110 -0.38000
C 	C 	0.47892 0.13075 0.63677 0.32700
C 	C 	0.57460 0.24745 0.71850 0.29600
Ni	Ni	0.54903 0.30538 0.66022 1.11300
O 	O 	0.44033 0.17880 0.64749 -0.37700
O 	O 	0.56999 0.13670 0.64742 -0.38900
O 	O 	0.53133 0.28734 0.70414 -0.37300
C 	C 	0.17413 0.00899 0.76931 0.30500
C 	C 	0.20015 0.95562 0.83204 0.29000
Ni	Ni	0.03882 0.01889 0.81460 1.11400
Ni	Ni	0.01506 0.84086 0.79328 1.11000
O 	O 	0.10407 0.03640 0.77540 -0.40200
O 	O 	0.12707 0.87504 0.82581 -0.39600
O 	O 	0.17106 0.01613 0.83327 -0.38200
O 	O 	0.13933 0.92712 0.76870 -0.39200
C 	C 	0.40916 0.62995 0.45552 0.30800
C 	C 	0.40370 0.76149 0.34361 0.30200
C 	C 	0.49638 0.85470 0.43449 0.33200
C 	C 	0.29440 0.53357 0.36556 0.28400
C 	C 	0.16114 0.77868 0.40018 0.31300
C 	C 	0.05781 0.56902 0.43166 0.30900
Ni	Ni	0.45429 0.70528 0.39770 1.11300
Ni	Ni	0.19667 0.64499 0.37697 1.11900
Ni	Ni	0.27492 0.71664 0.44014 1.12000
O 	O 	0.46064 0.63463 0.43119 -0.37500
O 	O 	0.38341 0.68975 0.46320 -0.37300
O 	O 	0.20561 0.75823 0.37896 -0.38900
O 	O 	0.45468 0.78930 0.36816 -0.37400
O 	O 	0.30498 0.69112 0.34249 -0.36800
O 	O 	0.15103 0.60043 0.44679 -0.39900
O 	O 	0.54174 0.80859 0.42650 -0.36000
O 	O 	0.39441 0.82977 0.42649 -0.39400
O 	O 	0.05740 0.58697 0.40362 -0.37400
O 	O 	0.39698 0.60278 0.36755 -0.36400
O 	O 	0.20133 0.53648 0.37132 -0.37800
O 	O 	0.16151 0.75136 0.42638 -0.38500
O 	O 	0.30296 0.66819 0.40712 -0.71000
H 	H 	0.27986 0.61018 0.41354 0.16700
C 	C 	0.41074 0.78645 0.20297 0.28700
C 	C 	0.23752 0.53568 0.11175 0.33500
C 	C 	0.39508 0.56213 0.19610 0.31200
C 	C 	0.28891 0.75704 0.11368 0.30500
C 	C 	0.61567 0.65145 0.12237 0.32600
C 	C 	0.66688 0.85910 0.12961 0.29400
Ni	Ni	0.28652 0.64202 0.16189 1.11300
Ni	Ni	0.45472 0.69838 0.10717 1.12100
Ni	Ni	0.55635 0.72784 0.17148 1.12100
O 	O 	0.31677 0.74295 0.18804 -0.37600
O 	O 	0.48576 0.75929 0.20542 -0.36300
O 	O 	0.50959 0.61833 0.11678 -0.39600
O 	O 	0.26733 0.53973 0.13831 -0.39500
O 	O 	0.30434 0.59629 0.09443 -0.37100
O 	O 	0.62521 0.84416 0.15567 -0.39100
O 	O 	0.32435 0.59147 0.19755 -0.37600
O 	O 	0.49337 0.60645 0.18424 -0.37800
O 	O 	0.61323 0.80576 0.10744 -0.37100
O 	O 	0.22438 0.68717 0.12860 -0.37100
O 	O 	0.37692 0.76588 0.09905 -0.37700
O 	O 	0.65693 0.70362 0.14469 -0.37700
O 	O 	0.43128 0.70764 0.14730 -0.70600
H 	H 	0.43684 0.76401 0.14789 0.16100
C 	C 	0.23113 0.97076 0.25375 0.29000
C 	C 	0.11433 0.21113 0.30821 0.30200
C 	C 	0.05974 0.94507 0.32206 0.30200
C 	C 	0.21892 0.23209 0.24069 0.28800
Ni	Ni	0.19956 0.10089 0.28669 1.11400
O 	O 	0.27594 0.05282 0.25971 -0.37200
O 	O 	0.12785 0.91551 0.26222 -0.37800
O 	O 	0.13956 0.15329 0.31639 -0.38200
O 	O 	0.03059 0.19087 0.29001 -0.36800
O 	O 	0.16200 0.99859 0.31343 -0.37200
O 	O 	0.26204 0.21481 0.26393 -0.37600
O 	O 	0.10952 0.19102 0.23406 -0.38000
O 	O 	0.07061 0.04970 0.26378 -0.71700
H 	H 	0.11014 0.06184 0.24532 0.14900
C 	C 	0.36156 0.47640 0.20606 -0.07800
C 	C 	0.28854 0.40655 0.18901 -0.02200
C 	C 	0.25775 0.32431 0.19776 0.04000
C 	C 	0.29031 0.31138 0.22526 -0.07100
C 	C 	0.37465 0.38123 0.24047 -0.02500
C 	C 	0.41203 0.46365 0.23062 0.04200
S 	S 	0.18536 0.23880 0.17352 -0.03500
S 	S 	0.52395 0.54972 0.24862 -0.04200
H 	H 	0.62342 0.56536 0.23655 0.03900
H 	H 	0.26116 0.22567 0.15831 0.03900
H 	H 	0.25823 0.41622 0.16860 0.05600
H 	H 	0.40647 0.37188 0.26072 0.05100
C 	C 	0.41249 0.84865 0.22370 -0.06700
C 	C 	0.44121 0.92964 0.21337 -0.02800
C 	C 	0.38394 0.97166 0.22306 0.03400
C 	C 	0.30719 0.93713 0.24587 -0.07000
C 	C 	0.29608 0.86478 0.25984 -0.02300
C 	C 	0.34394 0.81841 0.24817 0.03700
S 	S 	0.40088 0.06191 0.20456 -0.03600
S 	S 	0.29916 0.71495 0.26068 -0.01600
H 	H 	0.20521 0.65822 0.24566 0.03900
H 	H 	0.32389 0.03698 0.18251 0.03700
H 	H 	0.49656 0.95448 0.19510 0.04400
H 	H 	0.24254 0.84058 0.27846 0.05400
C 	C 	0.47007 0.79754 0.31734 -0.07400
C 	C 	0.52565 0.75767 0.30450 0.03200
S 	S 	0.46929 0.64738 0.30581 -0.02400
H 	H 	0.53373 0.62859 0.32379 0.03900
H 	H 	0.46191 0.91373 0.31967 0.05100
C 	C 	0.28024 0.45935 0.34885 -0.06700
C 	C 	0.23964 0.44994 0.32059 -0.02400
C 	C 	0.18540 0.37028 0.30706 0.03900
C 	C 	0.17272 0.29753 0.32183 -0.07500
C 	C 	0.22080 0.30822 0.34948 -0.02200
C 	C 	0.27439 0.38856 0.36295 0.03300
S 	S 	0.13151 0.36348 0.27204 -0.02900
S 	S 	0.33096 0.39923 0.39782 -0.04100
H 	H 	0.25246 0.39056 0.41768 0.04200
H 	H 	0.24135 0.50374 0.30993 0.05000
H 	H 	0.21448 0.25382 0.36080 0.05000
C 	C 	0.09696 0.82202 0.39348 -0.08000
C 	C 	0.99830 0.77755 0.37699 -0.02100
C 	C 	0.97265 0.81929 0.35538 0.03800
C 	C 	0.04540 0.90706 0.35101 -0.07100
C 	C 	0.12556 0.95366 0.37249 -0.02100
C 	C 	0.15236 0.91124 0.39358 0.04000
S 	S 	0.84916 0.76138 0.33469 -0.04500
S 	S 	0.26271 0.96997 0.41809 -0.02900
H 	H 	0.22023 0.98554 0.44257 0.03700
H 	H 	0.94879 0.70909 0.37873 0.04200
H 	H 	0.17457 0.02223 0.37109 0.04800
C 	C 	0.51354 0.97201 0.50897 -0.00700
C 	C 	0.40637 0.92880 0.52123 -0.03100
C 	C 	0.37971 0.96376 0.54478 -0.03300
C 	C 	0.46013 0.04196 0.55638 -0.00800
C 	C 	0.56612 0.08662 0.54351 -0.03400
C 	C 	0.59284 0.05160 0.51992 -0.03200
C 	C 	0.44471 0.06707 0.58468 0.05500
C 	C 	0.44743 0.09501 0.60843 -0.13000
C 	C 	0.53400 0.93976 0.48262 0.05300
C 	C 	0.53182 0.90371 0.46054 -0.11700
H 	H 	0.34345 0.86816 0.51239 0.03300
H 	H 	0.29807 0.92844 0.55466 0.04000
C 	C 	0.95666 0.53210 0.44812 -0.09600
H 	H 	0.91674 0.62913 0.50678 0.04400
C 	C 	0.39242 0.43204 0.49886 -0.00200
C 	C 	0.33237 0.39248 0.52356 -0.03400
C 	C 	0.35421 0.33427 0.53787 -0.03100
C 	C 	0.43945 0.31840 0.52815 -0.00500
C 	C 	0.48730 0.34856 0.50127 -0.03100
C 	C 	0.46440 0.40587 0.48670 -0.03300
C 	C 	0.50076 0.29913 0.54912 0.05000
C 	C 	0.38819 0.50375 0.48711 0.04900
C 	C 	0.39344 0.56391 0.47480 -0.10100
H 	H 	0.27337 0.40995 0.53250 0.04300
H 	H 	0.31357 0.30858 0.55817 0.04300
H 	H 	0.50776 0.43379 0.46689 0.04600
C 	C 	0.50280 0.18400 0.73930 -0.07300
C 	C 	0.45534 0.20955 0.76108 -0.02300
C 	C 	0.34906 0.15321 0.77164 0.04300
C 	C 	0.29015 0.06919 0.76048 -0.08600
C 	C 	0.34603 0.04082 0.74193 -0.01700
C 	C 	0.45349 0.09742 0.73210 0.02900
S 	S 	0.29362 0.18840 0.79930 -0.06300
S 	S 	0.52537 0.05932 0.71078 -0.01600
H 	H 	0.58035 0.03032 0.72816 0.04200
H 	H 	0.23204 0.22204 0.78751 0.03800
H 	H 	0.49775 0.27508 0.76836 0.04500
H 	H 	0.30540 0.97506 0.73484 0.05000
H 	H 	0.53386 0.40911 0.75126 0.04600
H 	H 	0.83423 0.83835 0.68173 0.03800
C 	C 	0.89963 0.42403 0.10069 -0.00300
C 	C 	0.01913 0.45930 0.10321 0.04800
C 	C 	0.11956 0.49216 0.10575 -0.12200
H 	H 	0.86858 0.30055 0.08630 0.04200
C 	C 	0.40671 0.10470 0.06266 -0.00200
C 	C 	0.28976 0.05335 0.06010 -0.03300
C 	C 	0.23155 0.99005 0.08036 -0.03300
C 	C 	0.29147 0.97647 0.10229 -0.00900
C 	C 	0.40138 0.04083 0.10855 -0.03100
C 	C 	0.46076 0.10305 0.08812 -0.03400
C 	C 	0.26521 0.89081 0.10798 0.04900
C 	C 	0.26375 0.82480 0.11231 -0.10500
H 	H 	0.24586 0.05729 0.04119 0.04300
H 	H 	0.14386 0.94431 0.07653 0.04100
H 	H 	0.44615 0.03476 0.12690 0.04200
C 	C 	0.73936 0.67277 0.04306 -0.00700
C 	C 	0.67148 0.69126 0.02499 -0.02900
C 	C 	0.71903 0.66731 0.07365 0.05000
C 	C 	0.68509 0.66316 0.09784 -0.12200
H 	H 	0.62422 0.71960 0.03389 0.03600
H 	H 	0.59316 0.67163 0.98327 0.04400
C 	C 	0.43195 0.12516 0.87627 -0.07900
C 	C 	0.36604 0.04915 0.89123 -0.01700
C 	C 	0.30711 0.97282 0.87576 0.04100
C 	C 	0.30658 0.97593 0.84569 -0.07300
C 	C 	0.40214 0.04103 0.83289 -0.02600
C 	C 	0.46184 0.11886 0.84752 0.05000
S 	S 	0.21501 0.87887 0.89359 -0.03800
S 	S 	0.57773 0.20306 0.83076 -0.04200
H 	H 	0.54757 0.25883 0.81945 0.04200
H 	H 	0.11085 0.87224 0.89513 0.03800
H 	H 	0.35426 0.05041 0.91420 0.05300
H 	H 	0.41677 0.03687 0.81022 0.04600
S 	S 	0.06665 0.55855 0.86543 -0.05600
H 	H 	0.17369 0.61207 0.87514 0.04000
H 	H 	0.00642 0.66691 0.83467 0.02800
C 	C 	0.54386 0.28734 0.56986 -0.10500
H 	H 	0.55002 0.33410 0.49298 0.04100
C 	C 	0.65387 0.66417 0.99623 -0.03400
C 	C 	0.80290 0.63884 0.03104 -0.02900
H 	H 	0.85741 0.62576 0.04455 0.04500
S 	S 	0.75228 0.05891 0.12400 -0.04200
C 	C 	0.70642 0.62049 0.98517 -0.00200
C 	C 	0.78856 0.61482 0.00190 -0.02900
C 	C 	0.65919 0.56631 0.96001 0.06200
C 	C 	0.62258 0.51973 0.93919 -0.11200
C 	C 	0.55791 0.21495 0.98777 0.30000
C 	C 	0.61487 0.39387 0.99499 0.32700
Ni	Ni	0.66741 0.35517 0.89092 1.12000
O 	O 	0.48250 0.20052 0.96753 -0.38300
O 	O 	0.64357 0.45662 0.89622 -0.37500
O 	O 	0.51972 0.36551 0.98085 -0.38400
O 	O 	0.70887 0.26182 0.88750 -0.36800
O 	O 	0.63130 0.32066 0.93060 -0.69800
H 	H 	0.61270 0.26085 0.92887 0.14400
C 	C 	0.69357 0.47844 0.68840 0.30500
C 	C 	0.58784 0.28756 0.59774 0.30900
C 	C 	0.82940 0.21578 0.68992 0.31200
Ni	Ni	0.72128 0.23466 0.63786 1.11900
Ni	Ni	0.79663 0.36399 0.69182 1.11900
O 	O 	0.62318 0.43622 0.66725 -0.36900
O 	O 	0.73819 0.44288 0.70449 -0.38300
O 	O 	0.76613 0.17658 0.66761 -0.37700
O 	O 	0.68479 0.27735 0.71971 -0.37200
O 	O 	0.57310 0.33407 0.61721 -0.37800
O 	O 	0.66829 0.26628 0.60053 -0.38700
O 	O 	0.68892 0.30773 0.66123 -0.69500
H 	H 	0.71774 0.35583 0.64820 0.13500
C 	C 	0.78675 0.92161 0.12751 -0.07300
C 	C 	0.86236 0.89141 0.13261 -0.02700
H 	H 	0.85308 0.83631 0.12089 0.05500
C 	C 	0.50747 0.88338 0.31128 -0.02000
C 	C 	0.60720 0.93161 0.29596 0.04300
C 	C 	0.67235 0.89398 0.28739 -0.07300
C 	C 	0.62682 0.80594 0.29019 -0.01800
H 	H 	0.67182 0.77501 0.28192 0.04500
H 	H 	0.62911 0.14715 0.55239 0.04400
H 	H 	0.67466 0.08661 0.51011 0.04200
C 	C 	0.81581 0.17360 0.74109 -0.02400
S 	S 	0.74874 0.11693 0.79561 -0.02700
H 	H 	0.83165 0.17427 0.81347 0.04700
H 	H 	0.79691 0.22340 0.74666 0.05100
C 	C 	0.62598 0.54782 0.72358 0.04200
S 	S 	0.50566 0.45078 0.73126 -0.03600
C 	C 	0.47133 0.14637 0.03761 0.04500
C 	C 	0.51755 0.17875 0.01547 -0.10200
H 	H 	0.55006 0.14479 0.09104 0.04100
H 	H 	0.83604 0.58691 0.99291 0.05800
S 	S 	0.60979 0.06295 0.92190 -0.04000
H 	H 	0.63379 0.05723 0.95016 0.04400
H 	H 	0.59922 0.03440 0.25936 0.04000
C 	C 	0.81985 0.00446 0.13722 0.03800
S 	S 	0.64356 0.03573 0.28594 -0.02900
H 	H 	0.81319 0.11029 0.10189 0.03800
S 	S 	0.81380 0.75271 0.90506 -0.02200
H 	H 	0.85535 0.62971 0.93288 0.05100
C 	C 	0.77347 0.24913 0.90623 0.27900
Ni	Ni	0.75578 0.35732 0.95575 1.10800
O 	O 	0.66683 0.24922 0.98170 -0.37500
O 	O 	0.83439 0.43040 0.89430 -0.38800
O 	O 	0.70945 0.42753 0.98147 -0.38900
O 	O 	0.88331 0.32824 0.63398 -0.37400
O 	O 	0.88110 0.29877 0.69161 -0.38400
C 	C 	0.84479 0.16582 0.71280 -0.07600
C 	C 	0.80556 0.11478 0.76193 0.03900
C 	C 	0.69437 0.55478 0.70004 -0.07400
C 	C 	0.65569 0.61798 0.74170 -0.02400
H 	H 	0.60741 0.61045 0.76092 0.05400
C 	C 	0.64382 0.38765 0.05004 0.05800
C 	C 	0.61782 0.38938 0.02549 -0.12100
C 	C 	0.80759 0.18591 0.89847 -0.06000
C 	C 	0.75578 0.03858 0.88840 -0.01700
C 	C 	0.73243 0.09840 0.90146 0.03200
H 	H 	0.69719 0.97140 0.89067 0.05000
H 	H 	0.77259 0.34025 0.54624 0.05000
H 	H 	0.90307 0.82804 0.91413 0.04200
C 	C 	0.93568 0.92271 0.15649 0.03700
C 	C 	0.87679 0.49394 0.91215 0.31800
O 	O 	0.86134 0.47929 0.93964 -0.36800
O 	O 	0.82627 0.30289 0.92814 -0.35800
C 	C 	0.91021 0.40918 0.63559 0.29800
O 	O 	0.90263 0.44194 0.66086 -0.36700
O 	O 	0.74801 0.75090 0.78360 -0.36500
O 	O 	0.78478 0.93144 0.84556 -0.36400
C 	C 	0.78760 0.94434 0.27553 0.30600
O 	O 	0.82699 0.90622 0.25889 -0.38700
C 	C 	0.93760 0.98889 0.17338 -0.06800
C 	C 	0.89311 0.03725 0.16099 -0.02200
H 	H 	0.90665 0.09550 0.17132 0.04900
C 	C 	0.80139 0.40330 0.53783 -0.03100
C 	C 	0.89944 0.44662 0.60926 -0.10500
H 	H 	0.76261 0.35866 0.49406 0.04100
C 	C 	0.83455 0.05175 0.75530 -0.07200
C 	C 	0.87206 0.10175 0.70600 0.04300
C 	C 	0.77973 0.63529 0.69202 -0.02200
C 	C 	0.75166 0.69606 0.73606 -0.07100
C 	C 	0.69094 0.37981 0.07662 -0.00800
H 	H 	0.71263 0.49614 0.09566 0.04600
C 	C 	0.87856 0.63232 0.91063 -0.01400
C 	C 	0.86324 0.68602 0.89150 0.03900
Ni	Ni	0.78986 0.84800 0.81408 1.11100
O 	O 	0.77897 0.92216 0.78122 -0.36600
C 	C 	0.85131 0.00369 0.77842 0.30200
C 	C 	0.80427 0.75995 0.75972 0.29800
C 	C 	0.87219 0.00063 0.85669 0.29600
O 	O 	0.79823 0.76414 0.84396 -0.35700
C 	C 	0.95534 0.99311 0.20525 0.27900
O 	O 	0.85034 0.02535 0.28193 -0.37800
O 	O 	0.91143 0.03154 0.22104 -0.37300
S 	S 	0.03334 0.88741 0.16243 -0.03000
C 	C 	0.79472 0.41370 0.50818 -0.03300
C 	C 	0.85322 0.47454 0.55619 0.00100
C 	C 	0.88129 0.46452 0.58550 0.05400
C 	C 	0.86644 0.04508 0.72725 -0.02400
H 	H 	0.83126 0.04142 0.65459 0.04100
C 	C 	0.80567 0.70670 0.70930 0.03500
H 	H 	0.82793 0.64211 0.67283 0.04600
C 	C 	0.74458 0.45191 0.09442 -0.03100
C 	C 	0.90811 0.21257 0.88373 -0.03000
C 	C 	0.85383 0.06511 0.87225 -0.07600
C 	C 	0.92218 0.58092 0.90080 -0.08400
H 	H 	0.68498 0.26210 0.06478 0.04300
S 	S 	0.92058 0.09536 0.67160 -0.02400
C 	C 	0.72813 0.31989 0.07745 -0.03300
C 	C 	0.93134 0.15349 0.87023 0.06200
H 	H 	0.96594 0.27992 0.88143 0.06000
S 	S 	0.89614 0.80867 0.69587 -0.01300
C 	C 	0.89838 0.69107 0.86258 -0.07200
C 	C 	0.84400 0.49543 0.49656 -0.00200
C 	C 	0.88765 0.55537 0.54509 -0.03200
C 	C 	0.86607 0.73198 0.83922 0.28500
O 	O 	0.98868 0.94247 0.21760 -0.37700
H 	H 	0.76283 0.76808 0.34695 0.03600
C 	C 	0.85113 0.47559 0.10578 -0.03400
C 	C 	0.88145 0.56563 0.51538 -0.03100
H 	H 	0.89932 0.53689 0.11631 0.04500
O 	O 	0.90239 0.73231 0.81293 -0.37100
O 	O 	0.92121 0.04630 0.79941 -0.38000
Ni	Ni	0.98191 0.10256 0.25741 1.12000
Ni	Ni	0.98723 0.92905 0.26078 1.11800
H 	H 	0.89066 0.99763 0.72218 0.05400
H 	H 	0.03446 0.21069 0.82241 0.03500
C 	C 	0.97948 0.60121 0.87459 0.05200
C 	C 	0.89506 0.50898 0.46857 0.04600
H 	H 	0.92491 0.61068 0.55913 0.04500
H 	H 	0.13326 0.94297 0.15008 0.03600
C 	C 	0.83394 0.34279 0.08894 -0.03400
O 	O 	0.91203 0.81475 0.75880 -0.36900
O 	O 	0.97489 0.01338 0.85388 -0.36900
O 	O 	0.94914 0.89997 0.81220 -0.69900
C 	C 	0.96625 0.65499 0.85543 -0.00200
O 	O 	0.97301 0.91909 0.30434 -0.37800
H 	H 	0.96373 0.89059 0.83222 0.15300
H 	H 	0.02375 0.34978 0.27356 0.04000
S 	S 	0.05438 0.19210 0.84959 -0.08100
