data_crystal

_cell_length_a 32.56457
_cell_length_b 28.23966
_cell_length_c 31.79770
_cell_angle_alpha 103.63617
_cell_angle_beta  115.74237
_cell_angle_gamma 112.40909

_symmetry_space_group_name_	'P 1'
_symmetry_space_group_name_H-M	'P 1'

loop_
_symmetry_equiv_pos_as_xyz
  x,y,z

loop_
_atom_site_label
_atom_site_type_symbol
_atom_site_fract_x
_atom_site_fract_y
_atom_site_fract_z
_atom_site_charge
C 	C 	0.71037 0.46863 0.95209 0.01800
C 	C 	0.74868 0.47503 0.00015 -0.04400
C 	C 	0.73630 0.42838 0.01104 -0.08200
C 	C 	0.68568 0.37492 0.97402 0.09100
C 	C 	0.64588 0.36980 0.92739 -0.07200
C 	C 	0.65844 0.41639 0.91637 -0.03100
N 	N 	0.67692 0.32489 0.98234 -0.14300
C 	C 	0.52642 0.22790 0.96172 0.02400
C 	C 	0.53119 0.20833 0.92026 -0.03200
C 	C 	0.58040 0.23994 0.92654 -0.07000
C 	C 	0.62559 0.29142 0.97474 0.09100
C 	C 	0.62072 0.31055 0.01616 -0.08000
C 	C 	0.57142 0.27907 0.00972 -0.04500
C 	C 	0.74104 0.23925 0.92927 0.00100
C 	C 	0.74958 0.25039 0.97872 -0.01500
C 	C 	0.72657 0.27651 0.99496 -0.05400
C 	C 	0.69482 0.29175 0.96206 0.07600
C 	C 	0.68406 0.27791 0.91126 -0.06900
C 	C 	0.70735 0.25208 0.89519 -0.02700
H 	H 	0.78877 0.51541 0.02811 0.03600
H 	H 	0.76684 0.43293 0.04732 0.04900
H 	H 	0.60630 0.32907 0.89870 0.04800
H 	H 	0.62844 0.41130 0.87937 0.03800
H 	H 	0.49661 0.16894 0.88299 0.03900
H 	H 	0.58300 0.22510 0.89374 0.04900
H 	H 	0.65522 0.35007 0.05331 0.04900
H 	H 	0.56797 0.29481 0.04179 0.03800
H 	H 	0.77484 0.23972 0.00493 0.02400
H 	H 	0.73458 0.28640 0.03379 0.03800
H 	H 	0.65764 0.28683 0.88426 0.04800
H 	H 	0.69990 0.24286 0.85662 0.03700
C 	C 	0.70201 0.46450 0.44270 0.00500
C 	C 	0.73925 0.47097 0.49137 -0.02900
C 	C 	0.72639 0.42406 0.50188 -0.06700
C 	C 	0.67632 0.37024 0.46389 0.07800
C 	C 	0.63758 0.36482 0.41638 -0.07000
C 	C 	0.65064 0.41169 0.40573 -0.02900
N 	N 	0.66696 0.32034 0.47253 -0.14300
C 	C 	0.51682 0.21793 0.45060 0.00500
C 	C 	0.52256 0.19962 0.40959 -0.02900
C 	C 	0.57115 0.23391 0.41574 -0.06900
C 	C 	0.61487 0.28657 0.46346 0.07700
C 	C 	0.60853 0.30524 0.50382 -0.06700
C 	C 	0.55978 0.27125 0.49744 -0.02900
C 	C 	0.73272 0.23208 0.42596 0.00500
C 	C 	0.73534 0.23991 0.47253 -0.02900
C 	C 	0.71239 0.26762 0.48680 -0.06700
C 	C 	0.68610 0.28726 0.45452 0.07800
C 	C 	0.68066 0.27628 0.40614 -0.06900
C 	C 	0.70443 0.24944 0.39236 -0.02900
H 	H 	0.77891 0.51173 0.52025 0.03700
H 	H 	0.75610 0.42878 0.53879 0.05000
H 	H 	0.59853 0.32369 0.38683 0.04700
H 	H 	0.62148 0.40648 0.36821 0.03700
H 	H 	0.48946 0.15878 0.37308 0.03600
H 	H 	0.57475 0.21971 0.38353 0.04800
H 	H 	0.64180 0.34585 0.54047 0.05000
H 	H 	0.55539 0.28629 0.52894 0.03900
H 	H 	0.75612 0.22556 0.49820 0.03800
H 	H 	0.71594 0.27495 0.52356 0.05100
H 	H 	0.65803 0.28822 0.37924 0.04800
H 	H 	0.70161 0.24297 0.35600 0.03600
C 	C 	0.36920 0.59409 0.99851 0.02700
C 	C 	0.39494 0.64000 0.04879 -0.05300
C 	C 	0.42559 0.69800 0.06075 -0.05500
C 	C 	0.43077 0.71079 0.02266 0.05600
C 	C 	0.40690 0.66463 0.97300 -0.04700
C 	C 	0.37612 0.60662 0.96102 -0.04200
N 	N 	0.45747 0.77094 0.03378 -0.13800
C 	C 	0.57594 0.82653 0.00081 -0.02000
C 	C 	0.52179 0.80688 0.96243 -0.01400
C 	C 	0.48248 0.78820 0.97278 -0.06100
C 	C 	0.49697 0.78863 0.02162 0.06600
C 	C 	0.55095 0.80786 0.05964 -0.07000
C 	C 	0.59030 0.82695 0.04946 -0.02400
C 	C 	0.35475 0.83554 0.00227 -0.02400
C 	C 	0.40962 0.87135 0.04687 -0.02200
C 	C 	0.44347 0.85028 0.05616 -0.07000
C 	C 	0.42314 0.79354 0.02079 0.06700
C 	C 	0.36878 0.75865 0.97468 -0.06100
C 	C 	0.33467 0.77927 0.96601 -0.01200
H 	H 	0.39045 0.63074 0.07826 0.04000
H 	H 	0.44419 0.73318 0.09918 0.04500
H 	H 	0.41038 0.67365 0.94307 0.04400
H 	H 	0.35654 0.57148 0.92214 0.04100
H 	H 	0.51012 0.80581 0.92454 0.03400
H 	H 	0.44081 0.77271 0.94268 0.04800
H 	H 	0.56246 0.80849 0.09734 0.04700
H 	H 	0.63203 0.84237 0.07949 0.03000
H 	H 	0.42591 0.91528 0.07457 0.03200
H 	H 	0.48535 0.87770 0.09136 0.04800
H 	H 	0.35298 0.71586 0.94557 0.04900
H 	H 	0.29250 0.75134 0.93128 0.03400
C 	C 	0.36675 0.59164 0.49171 0.00500
C 	C 	0.39102 0.63707 0.54168 -0.02900
C 	C 	0.42120 0.69533 0.55405 -0.06700
C 	C 	0.42713 0.70893 0.51658 0.07700
C 	C 	0.40365 0.66334 0.46676 -0.07000
C 	C 	0.37365 0.60503 0.45449 -0.02900
N 	N 	0.45513 0.76941 0.52889 -0.14200
C 	C 	0.57566 0.82699 0.49868 0.00400
C 	C 	0.52212 0.80906 0.46044 -0.02900
C 	C 	0.48198 0.78917 0.46961 -0.06900
C 	C 	0.49513 0.78709 0.51733 0.07700
C 	C 	0.54846 0.80429 0.55507 -0.06800
C 	C 	0.58857 0.82427 0.54593 -0.02900
C 	C 	0.35527 0.83744 0.49929 0.00500
C 	C 	0.40887 0.87071 0.54583 -0.02900
C 	C 	0.44191 0.84866 0.55455 -0.06700
C 	C 	0.42188 0.79328 0.51690 0.07700
C 	C 	0.36878 0.76086 0.46925 -0.06900
C 	C 	0.33561 0.78270 0.46080 -0.02900
H 	H 	0.38581 0.62723 0.57063 0.03800
H 	H 	0.43917 0.73008 0.59244 0.05000
H 	H 	0.40753 0.67301 0.43724 0.04700
H 	H 	0.35536 0.57030 0.41593 0.03600
H 	H 	0.51158 0.81037 0.42357 0.03600
H 	H 	0.44075 0.77489 0.43953 0.04700
H 	H 	0.55893 0.80281 0.59184 0.04900
H 	H 	0.62979 0.83808 0.57574 0.03500
H 	H 	0.42471 0.91336 0.57548 0.03600
H 	H 	0.48284 0.87413 0.59105 0.05000
H 	H 	0.35330 0.71909 0.43880 0.04700
H 	H 	0.29440 0.75678 0.42459 0.03700
Zn	Zn	0.13145 0.11471 0.97999 1.18800
Zn	Zn	0.04285 0.06657 0.86389 1.19700
O 	O 	0.03268 0.96679 0.77909 -0.47000
O 	O 	0.01626 0.03931 0.78661 -0.42800
O 	O 	0.03522 0.90090 0.85657 -0.50100
C 	C 	0.18711 0.08487 0.94259 0.31700
O 	O 	0.98987 0.98748 0.84516 -0.87600
C 	C 	0.13814 0.19333 0.93296 0.32600
O 	O 	0.19311 0.11241 0.98647 -0.46000
O 	O 	0.13879 0.05501 0.89679 -0.35900
O 	O 	0.05783 0.07792 0.93614 -0.77900
O 	O 	0.07965 0.97988 0.93627 -0.46200
O 	O 	0.10160 0.14621 0.88534 -0.45000
O 	O 	0.15200 0.18939 0.97700 -0.45900
Zn	Zn	0.88939 0.89683 0.86961 1.17500
Zn	Zn	0.98460 0.93040 0.96970 1.18900
Zn	Zn	0.00876 0.99850 0.91487 1.21300
C 	C 	0.88558 0.81142 0.91135 0.33000
C 	C 	0.86357 0.94274 0.93553 0.32700
O 	O 	0.93939 0.02145 0.89451 -0.46300
Zn	Zn	0.99389 0.04050 0.00446 1.19400
O 	O 	0.93871 0.84760 0.94889 -0.45700
O 	O 	0.85968 0.82188 0.87312 -0.46500
O 	O 	0.84750 0.92168 0.88588 -0.48300
O 	O 	0.91243 0.95769 0.97306 -0.47400
C 	C 	0.01949 0.00188 0.08298 0.29500
O 	O 	0.95926 0.91924 0.89447 -0.79400
C 	C 	0.93966 0.06281 0.92468 0.32700
O 	O 	0.00999 0.95523 0.04811 -0.42800
O 	O 	0.02385 0.04657 0.07467 -0.45800
O 	O 	0.96283 0.07869 0.97538 -0.48700
O 	O 	0.02753 0.00986 0.98425 -0.87600
Zn	Zn	0.00684 0.93627 0.81889 1.18300
C 	C 	0.02345 0.00219 0.76180 0.29400
C 	C 	0.07501 0.93350 0.90755 0.32500
H 	H 	0.06712 0.03002 0.01205 0.14700
H 	H 	0.95145 0.97442 0.82010 0.15200
Zn	Zn	0.13379 0.11155 0.47951 1.18600
Zn	Zn	0.04420 0.06684 0.36448 1.19500
O 	O 	0.03050 0.96556 0.27780 -0.46900
O 	O 	0.01637 0.03975 0.28692 -0.43000
O 	O 	0.03053 0.89754 0.35343 -0.50300
C 	C 	0.18719 0.07506 0.44274 0.31300
O 	O 	0.98996 0.98832 0.34566 -0.87700
C 	C 	0.14319 0.19198 0.43376 0.32300
O 	O 	0.19359 0.10460 0.48624 -0.46400
O 	O 	0.13950 0.04692 0.39658 -0.35000
O 	O 	0.06054 0.07798 0.43706 -0.78300
O 	O 	0.07817 0.97671 0.43408 -0.46200
O 	O 	0.10384 0.14579 0.38581 -0.45200
O 	O 	0.15833 0.18693 0.47742 -0.46200
Zn	Zn	0.88999 0.90087 0.37215 1.17400
Zn	Zn	0.98478 0.93104 0.47021 1.18800
Zn	Zn	0.00984 0.99902 0.41552 1.21300
C 	C 	0.88375 0.81354 0.41188 0.32900
C 	C 	0.86805 0.95038 0.44055 0.32600
O 	O 	0.94288 0.02530 0.39802 -0.46600
Zn	Zn	0.99925 0.04400 0.50766 1.20100
O 	O 	0.93706 0.84850 0.44906 -0.45900
O 	O 	0.85828 0.82578 0.37504 -0.46600
O 	O 	0.85086 0.92890 0.39056 -0.48300
O 	O 	0.91654 0.96371 0.47718 -0.47700
C 	C 	0.02283 0.00332 0.58473 0.29700
O 	O 	0.95875 0.92027 0.39496 -0.79400
C 	C 	0.94544 0.06809 0.42933 0.32800
O 	O 	0.01140 0.95584 0.54894 -0.42400
O 	O 	0.02945 0.04902 0.57749 -0.45300
O 	O 	0.97068 0.08478 0.48033 -0.49100
O 	O 	0.02973 0.01015 0.48513 -0.89100
Zn	Zn	0.00420 0.93516 0.31738 1.18300
C 	C 	0.02213 0.00169 0.26116 0.29000
C 	C 	0.07132 0.92917 0.40417 0.32400
H 	H 	0.06925 0.02881 0.51209 0.16100
H 	H 	0.95181 0.97653 0.32146 0.15100
C 	C 	0.02545 0.00342 0.71686 0.03900
N 	N 	0.02252 0.95916 0.68454 -0.07300
N 	N 	0.02326 0.95981 0.64307 -0.06900
C 	C 	0.02782 0.00519 0.63331 0.04100
N 	N 	0.03166 0.04986 0.66618 -0.06400
N 	N 	0.03038 0.04893 0.70729 -0.06200
C 	C 	0.02361 0.00269 0.21592 0.03700
N 	N 	0.02786 0.04786 0.20599 -0.06400
N 	N 	0.02859 0.04855 0.16458 -0.06500
C 	C 	0.02494 0.00400 0.13179 0.03800
N 	N 	0.02108 0.95896 0.14192 -0.06900
N 	N 	0.02080 0.95851 0.18364 -0.07200
C 	C 	0.26883 0.41700 0.45742 0.05000
N 	N 	0.32282 0.45215 0.49907 -0.10800
C 	C 	0.35510 0.50750 0.50962 0.02000
C 	C 	0.33294 0.53012 0.47793 -0.01400
C 	C 	0.27764 0.49457 0.43473 -0.02100
C 	C 	0.24540 0.43784 0.42438 -0.05800
H 	H 	0.39784 0.53420 0.54305 0.03200
H 	H 	0.25947 0.51126 0.40999 0.03400
H 	H 	0.20229 0.41078 0.39178 0.04300
C 	C 	0.17375 0.24981 0.43845 -0.11500
C 	C 	0.17013 0.25440 0.39415 0.03600
C 	C 	0.20071 0.30909 0.39987 -0.08300
C 	C 	0.23468 0.35903 0.44992 0.06600
N 	N 	0.23775 0.35376 0.49251 -0.12000
C 	C 	0.20807 0.30092 0.48783 0.07000
H 	H 	0.14443 0.21577 0.35566 0.03700
H 	H 	0.19869 0.31255 0.36590 0.05100
H 	H 	0.21126 0.29869 0.52255 0.02500
C 	C 	0.70087 0.88986 0.47490 0.04900
N 	N 	0.68575 0.84141 0.48124 -0.10900
C 	C 	0.64522 0.82022 0.48805 0.01900
C 	C 	0.61826 0.84860 0.48932 -0.01500
C 	C 	0.63332 0.89859 0.48312 -0.02100
C 	C 	0.67485 0.91947 0.47601 -0.05900
H 	H 	0.63410 0.78145 0.49271 0.03100
H 	H 	0.61346 0.92159 0.48451 0.03400
H 	H 	0.68727 0.95877 0.47221 0.04300
C 	C 	0.82767 0.94198 0.45275 -0.12100
C 	C 	0.78092 0.94049 0.41976 0.04000
C 	C 	0.73987 0.92529 0.42778 -0.08600
C 	C 	0.74601 0.91198 0.46911 0.06700
N 	N 	0.79235 0.91506 0.50160 -0.11900
C 	C 	0.83307 0.93014 0.49471 0.07200
H 	H 	0.77581 0.94977 0.38731 0.02300
H 	H 	0.70289 0.92219 0.40115 0.04900
H 	H 	0.86880 0.93100 0.52077 0.03300
C 	C 	0.19907 0.89920 0.45690 0.06700
N 	N 	0.14908 0.85858 0.40993 -0.12200
C 	C 	0.10702 0.86617 0.39377 0.07200
C 	C 	0.11462 0.91731 0.42510 -0.13200
C 	C 	0.16552 0.95904 0.47420 0.04000
C 	C 	0.20796 0.95013 0.49006 -0.08800
H 	H 	0.06792 0.83285 0.35609 0.02200
H 	H 	0.17263 0.99879 0.49942 0.01300
H 	H 	0.24771 0.98298 0.52730 0.05000
C 	C 	0.31910 0.85903 0.49156 -0.01400
C 	C 	0.30767 0.87232 0.52880 -0.02100
C 	C 	0.27004 0.88808 0.51883 -0.05800
C 	C 	0.24383 0.89011 0.47140 0.04900
N 	N 	0.25620 0.87803 0.43608 -0.10900
C 	C 	0.29334 0.86333 0.44537 0.02000
H 	H 	0.32680 0.86899 0.56464 0.03400
H 	H 	0.26000 0.89682 0.54687 0.04200
H 	H 	0.30213 0.85394 0.41639 0.03100
C 	C 	0.26505 0.41941 0.95997 0.05100
N 	N 	0.25421 0.46057 0.97281 -0.10800
C 	C 	0.28669 0.51640 0.98452 0.02500
C 	C 	0.33305 0.53314 0.98435 -0.02000
C 	C 	0.34492 0.49155 0.97123 -0.01700
C 	C 	0.31096 0.43450 0.95912 -0.05900
H 	H 	0.27665 0.54788 0.99422 0.03300
H 	H 	0.38070 0.50358 0.97116 0.03500
H 	H 	0.32083 0.40261 0.95026 0.04500
C 	C 	0.16777 0.25083 0.93718 -0.12200
C 	C 	0.17942 0.25541 0.90022 0.04200
C 	C 	0.21097 0.31047 0.90713 -0.08500
C 	C 	0.23092 0.36071 0.95124 0.06800
N 	N 	0.21781 0.35532 0.98588 -0.12100
C 	C 	0.18719 0.30204 0.97994 0.08800
H 	H 	0.16499 0.21658 0.86686 0.03500
H 	H 	0.21993 0.31411 0.87855 0.05200
H 	H 	0.17801 0.29949 0.00855 0.00700
C 	C 	0.69811 0.88457 0.97254 0.04700
N 	N 	0.68680 0.84026 0.98482 -0.10800
C 	C 	0.64730 0.82059 0.99315 0.02900
C 	C 	0.61761 0.84647 0.99003 -0.00200
C 	C 	0.62888 0.89232 0.97780 -0.02600
C 	C 	0.66922 0.91148 0.96900 -0.05500
H 	H 	0.63905 0.78493 0.00234 0.02000
H 	H 	0.60691 0.91342 0.97573 0.03700
H 	H 	0.67847 0.94740 0.96015 0.04400
C 	C 	0.82229 0.93337 0.94674 -0.12900
C 	C 	0.77150 0.92187 0.90892 0.04600
C 	C 	0.73113 0.90763 0.91786 -0.09100
C 	C 	0.74176 0.90490 0.96465 0.07800
N 	N 	0.79163 0.91711 0.00138 -0.13500
C 	C 	0.83186 0.93177 0.99380 0.09600
H 	H 	0.76284 0.92270 0.87225 0.02500
H 	H 	0.69140 0.89725 0.88801 0.05300
H 	H 	0.87077 0.94063 0.02375 0.01900
C 	C 	0.20397 0.90619 0.96199 0.06100
N 	N 	0.19409 0.92758 0.92705 -0.11800
C 	C 	0.15359 0.93761 0.91009 0.07500
C 	C 	0.12118 0.92680 0.92900 -0.13100
C 	C 	0.13111 0.90593 0.96565 0.03600
C 	C 	0.17211 0.89472 0.98174 -0.07300
H 	H 	0.14580 0.95283 0.88101 0.01600
H 	H 	0.10606 0.89662 0.98027 0.00900
H 	H 	0.17776 0.87546 0.00779 0.03700
C 	C 	0.31809 0.85667 0.99372 0.01400
C 	C 	0.31289 0.87881 0.03414 -0.03800
C 	C 	0.27638 0.89616 0.02460 -0.06600
C 	C 	0.24392 0.88947 0.97392 0.06000
N 	N 	0.25057 0.86912 0.93557 -0.10700
C 	C 	0.28675 0.85307 0.94440 0.01300
H 	H 	0.33677 0.88223 0.07266 0.03600
H 	H 	0.27364 0.91496 0.05638 0.04000
H 	H 	0.29096 0.83724 0.91298 0.03500
C 	C 	0.81797 0.16210 0.39622 0.05000
N 	N 	0.84454 0.21133 0.44244 -0.10700
C 	C 	0.81816 0.23506 0.45196 0.02100
C 	C 	0.76218 0.20872 0.41407 -0.01400
C 	C 	0.73457 0.15956 0.36533 -0.02100
C 	C 	0.76266 0.13656 0.35597 -0.05900
H 	H 	0.84058 0.27408 0.48927 0.03300
H 	H 	0.69146 0.13892 0.33513 0.03400
H 	H 	0.74159 0.09904 0.31803 0.04100
C 	C 	0.91072 0.08865 0.40586 -0.13200
C 	C 	0.85386 0.05112 0.37575 0.03900
C 	C 	0.82201 0.07435 0.36861 -0.08600
C 	C 	0.84741 0.13523 0.39028 0.06600
N 	N 	0.90227 0.17035 0.41480 -0.12000
C 	C 	0.93408 0.14850 0.42292 0.07500
H 	H 	0.83476 0.00452 0.36102 0.02100
H 	H 	0.77863 0.04568 0.34961 0.04900
H 	H 	0.97797 0.17811 0.44535 0.01300
C 	C 	0.76518 0.60479 0.41351 0.05000
N 	N 	0.75161 0.61057 0.44851 -0.10900
C 	C 	0.72901 0.56521 0.45668 0.02000
C 	C 	0.71884 0.51098 0.42860 -0.01500
C 	C 	0.73015 0.50346 0.39071 -0.02100
C 	C 	0.75332 0.55044 0.38300 -0.05900
H 	H 	0.72013 0.57168 0.48588 0.03000
H 	H 	0.72256 0.46188 0.36852 0.03400
H 	H 	0.76307 0.54509 0.35439 0.04300
C 	C 	0.85257 0.75810 0.40965 -0.12000
C 	C 	0.87463 0.72475 0.41923 0.04100
C 	C 	0.84557 0.67363 0.41929 -0.08600
C 	C 	0.79458 0.65631 0.40991 0.06700
N 	N 	0.77381 0.68943 0.40081 -0.12000
C 	C 	0.80126 0.73918 0.39998 0.07300
H 	H 	0.91417 0.73845 0.42675 0.02500
H 	H 	0.86292 0.64818 0.42750 0.05100
H 	H 	0.78379 0.76476 0.39304 0.02600
C 	C 	0.32491 0.10399 0.44298 0.06800
N 	N 	0.33167 0.13451 0.48819 -0.11900
C 	C 	0.28817 0.12321 0.49009 0.07000
C 	C 	0.23477 0.07953 0.44477 -0.11000
C 	C 	0.22751 0.04430 0.39954 0.03900
C 	C 	0.27270 0.05660 0.39855 -0.08100
H 	H 	0.29501 0.14976 0.52615 0.02800
H 	H 	0.18694 0.00878 0.36468 0.03600
H 	H 	0.26705 0.03081 0.36295 0.05400
C 	C 	0.46552 0.18190 0.44419 -0.01400
C 	C 	0.41579 0.16807 0.40204 -0.02000
C 	C 	0.36862 0.13921 0.39958 -0.05700
C 	C 	0.37159 0.12457 0.43958 0.05100
N 	N 	0.42011 0.13702 0.47953 -0.10800
C 	C 	0.46650 0.16443 0.48224 0.02100
H 	H 	0.41406 0.18133 0.37231 0.03400
H 	H 	0.33053 0.13055 0.36815 0.04500
H 	H 	0.50445 0.17395 0.51470 0.03200
C 	C 	0.82083 0.16674 0.89107 0.04900
N 	N 	0.76525 0.13793 0.85937 -0.10800
C 	C 	0.73906 0.16151 0.86977 0.02000
C 	C 	0.76914 0.21634 0.91422 -0.01000
C 	C 	0.82625 0.24770 0.94593 -0.02000
C 	C 	0.85227 0.22287 0.93465 -0.05600
H 	H 	0.69481 0.13685 0.84446 0.03300
H 	H 	0.85031 0.29041 0.98019 0.03800
H 	H 	0.89634 0.24579 0.96113 0.04500
C 	C 	0.90450 0.08229 0.89981 -0.13000
C 	C 	0.92773 0.13755 0.90361 0.04100
C 	C 	0.89832 0.16371 0.89551 -0.08800
C 	C 	0.84644 0.13481 0.88529 0.06900
N 	N 	0.82249 0.07865 0.87635 -0.11900
C 	C 	0.85008 0.05191 0.88288 0.07400
H 	H 	0.96946 0.16145 0.91570 0.01000
H 	H 	0.91678 0.20723 0.89994 0.05100
H 	H 	0.83088 0.00840 0.87811 0.02400
C 	C 	0.77097 0.60596 0.91887 0.05100
N 	N 	0.75876 0.61315 0.95487 -0.10900
C 	C 	0.73718 0.56881 0.96451 0.02300
C 	C 	0.72664 0.51419 0.93692 -0.01800
C 	C 	0.73665 0.50524 0.89814 -0.01800
C 	C 	0.75885 0.55122 0.88897 -0.05900
H 	H 	0.72932 0.57636 0.99441 0.03200
H 	H 	0.72875 0.46332 0.87633 0.03500
H 	H 	0.76761 0.54478 0.85966 0.04400
C 	C 	0.85523 0.75652 0.91021 -0.11900
C 	C 	0.87823 0.72424 0.92112 0.04300
C 	C 	0.85016 0.67393 0.92270 -0.08500
C 	C 	0.79924 0.65640 0.91355 0.06800
N 	N 	0.77749 0.68842 0.90302 -0.11900
C 	C 	0.80395 0.73731 0.90065 0.07400
H 	H 	0.91779 0.73820 0.92858 0.02600
H 	H 	0.86823 0.64931 0.93194 0.05300
H 	H 	0.78576 0.76208 0.89268 0.02700
C 	C 	0.37667 0.14385 0.94530 0.05300
N 	N 	0.42196 0.14947 0.98369 -0.10900
C 	C 	0.46978 0.17462 0.98845 0.04300
C 	C 	0.47363 0.19638 0.95406 -0.02400
C 	C 	0.42744 0.19050 0.91406 -0.01400
C 	C 	0.37882 0.16427 0.90962 -0.06000
H 	H 	0.50504 0.17850 0.01947 0.01700
H 	H 	0.42962 0.20748 0.88736 0.03300
H 	H 	0.34353 0.16141 0.87978 0.04600
C 	C 	0.23531 0.09300 0.94382 -0.11500
C 	C 	0.22936 0.06636 0.89653 0.04000
C 	C 	0.27560 0.08062 0.89713 -0.08200
C 	C 	0.32765 0.12197 0.94499 0.07000
N 	N 	0.33275 0.14461 0.99115 -0.11900
C 	C 	0.28814 0.13096 0.99160 0.09000
H 	H 	0.18914 0.03577 0.85924 0.03700
H 	H 	0.27107 0.06082 0.86047 0.05500
H 	H 	0.29386 0.15081 0.02891 0.01400
