data_crystal

_cell_length_a 15.68247
_cell_length_b 15.89980
_cell_length_c 23.25056
_cell_angle_alpha 95.39591
_cell_angle_beta  95.39705
_cell_angle_gamma 126.69528

_symmetry_space_group_name_	'P 1'
_symmetry_space_group_name_H-M	'P 1'

loop_
_symmetry_equiv_pos_as_xyz
  x,y,z

loop_
_atom_site_label
_atom_site_type_symbol
_atom_site_fract_x
_atom_site_fract_y
_atom_site_fract_z
_atom_site_charge
C 	C 	0.08444 0.03434 0.49772 0.09300
N 	N 	0.01253 0.06971 0.94910 -0.10500
C 	C 	0.06820 0.03010 0.95487 0.09500
N 	N 	0.04383 0.09017 0.50316 -0.10700
C 	C 	0.18253 0.09860 0.95975 0.04300
C 	C 	0.93620 0.03658 0.50514 0.06000
Cu	Cu	0.76869 0.34836 0.93538 0.92600
Cu	Cu	0.76112 0.25688 0.05727 0.86200
Cu	Cu	0.60914 0.30092 0.01757 0.89200
Cu	Cu	0.56921 0.35016 0.90119 0.90300
C 	C 	0.67960 0.31961 0.81519 0.28300
C 	C 	0.68268 0.31762 0.14331 0.28000
O 	O 	0.60154 0.26640 0.93456 -0.62700
O 	O 	0.76430 0.36265 0.02017 -0.65200
O 	O 	0.82980 0.26445 0.93405 -0.35400
O 	O 	0.71362 0.15283 0.98966 -0.42700
O 	O 	0.64659 0.37420 0.83447 -0.37600
O 	O 	0.45570 0.23102 0.01078 -0.40000
C 	C 	0.39227 0.22190 0.96503 0.33300
O 	O 	0.43087 0.28799 0.92779 -0.38800
O 	O 	0.74455 0.31230 0.85091 -0.35200
C 	C 	0.77977 0.17290 0.95341 0.29300
O 	O 	0.61593 0.31718 0.10372 -0.37000
O 	O 	0.76709 0.32661 0.13009 -0.42100
H 	H 	0.55134 0.18905 0.91765 0.16700
H 	H 	0.81543 0.43649 0.04300 0.17200
Cu	Cu	0.60400 0.18495 0.51748 0.92400
Cu	Cu	0.69846 0.19381 0.39630 0.86900
Cu	Cu	0.65238 0.34319 0.43586 0.89900
Cu	Cu	0.59838 0.37877 0.55107 0.90100
C 	C 	0.63106 0.27141 0.63754 0.28300
O 	O 	0.44206 0.11925 0.51392 -0.34900
C 	C 	0.64018 0.27439 0.31051 0.27900
O 	O 	0.68624 0.34988 0.51876 -0.63500
O 	O 	0.59034 0.19006 0.43271 -0.64000
O 	O 	0.68422 0.12109 0.51877 -0.36200
O 	O 	0.80068 0.23610 0.46461 -0.44000
O 	O 	0.57498 0.30314 0.61808 -0.37600
C 	C 	0.40103 0.16480 0.49212 0.29100
O 	O 	0.46622 0.26107 0.48129 -0.39200
O 	O 	0.63961 0.20814 0.60193 -0.35100
C 	C 	0.77686 0.16847 0.49980 0.29800
O 	O 	0.63641 0.33731 0.34988 -0.36700
O 	O 	0.63075 0.19067 0.32315 -0.41800
H 	H 	0.76438 0.40023 0.53625 0.16600
H 	H 	0.51581 0.13942 0.40949 0.17600
C 	C 	0.66982 0.29555 0.75285 -0.03800
C 	C 	0.65536 0.28121 0.69990 -0.03800
C 	C 	0.66298 0.30758 0.20217 -0.05000
C 	C 	0.65023 0.29461 0.25178 -0.04700
C 	C 	0.83842 0.12765 0.50528 -0.10200
C 	C 	0.88782 0.09099 0.50644 0.02900
C 	C 	0.29023 0.12194 0.49442 -0.08200
C 	C 	0.19760 0.08701 0.49624 0.03100
C 	C 	0.84907 0.05425 0.94466 0.02900
C 	C 	0.81589 0.10697 0.94653 -0.09300
C 	C 	0.27868 0.15502 0.96303 -0.08900
C 	C 	0.90376 0.00539 0.94531 0.06400
N 	N 	0.01567 0.92539 0.95556 -0.09200
C 	C 	0.90712 0.85893 0.95139 0.09500
N 	N 	0.84965 0.89867 0.94689 -0.10500
N 	N 	0.01792 0.92720 0.49336 -0.09200
C 	C 	0.91186 0.87470 0.49480 0.09200
N 	N 	0.87113 0.92911 0.50111 -0.10600
O 	O 	0.83247 0.50889 0.93830 -0.34100
C 	C 	0.78375 0.54776 0.95904 0.28800
O 	O 	0.68690 0.48206 0.97046 -0.38300
O 	O 	0.72279 0.49454 0.44320 -0.37800
C 	C 	0.72567 0.55545 0.48729 0.30900
O 	O 	0.65860 0.51509 0.52444 -0.38700
C 	C 	0.84370 0.76198 0.49100 0.03700
C 	C 	0.78914 0.66732 0.48855 -0.08600
C 	C 	0.82355 0.65634 0.95535 -0.07500
C 	C 	0.85527 0.74692 0.95301 0.03100
