data_crystal

_cell_length_a 24.88525
_cell_length_b 20.87736
_cell_length_c 19.28587
_cell_angle_alpha 92.70720
_cell_angle_beta  85.32106
_cell_angle_gamma 124.79411

_symmetry_space_group_name_	'P 1'
_symmetry_space_group_name_H-M	'P 1'

loop_
_symmetry_equiv_pos_as_xyz
  x,y,z

loop_
_atom_site_label
_atom_site_type_symbol
_atom_site_fract_x
_atom_site_fract_y
_atom_site_fract_z
_atom_site_charge
C 	C 	0.90753 0.08004 0.89048 -0.01900
C 	C 	0.92157 0.04682 0.83305 -0.01400
C 	C 	0.95879 0.01688 0.84030 -0.06100
C 	C 	0.98005 0.01690 0.90536 0.08800
C 	C 	0.96904 0.05395 0.96205 -0.08300
C 	C 	0.93360 0.08607 0.95433 -0.00700
N 	N 	0.00871 0.97425 0.91400 -0.14300
C 	C 	0.18549 0.07521 0.01515 0.04000
C 	C 	0.12543 0.03739 0.05486 -0.04500
C 	C 	0.06700 0.00616 0.02243 -0.03700
C 	C 	0.06843 0.01443 0.95003 0.06700
C 	C 	0.12896 0.05664 0.91142 -0.05000
C 	C 	0.18719 0.08651 0.94368 -0.04800
C 	C 	0.87444 0.73126 0.95573 -0.01300
C 	C 	0.92556 0.75805 0.90372 -0.00900
C 	C 	0.96965 0.83797 0.89075 -0.07600
C 	C 	0.96306 0.89203 0.92925 0.08200
C 	C 	0.91155 0.86515 0.98128 -0.07800
C 	C 	0.86762 0.78517 0.99445 -0.01800
H 	H 	0.90169 0.04159 0.78356 0.04100
H 	H 	0.96910 0.99091 0.79602 0.04700
H 	H 	0.98596 0.05572 0.01242 0.06300
H 	H 	0.92423 0.11301 0.99868 0.04000
H 	H 	0.12378 0.02940 0.11027 0.05300
H 	H 	0.02085 0.97493 0.05328 0.04300
H 	H 	0.13059 0.06366 0.85585 0.05100
H 	H 	0.23347 0.11645 0.91277 0.05400
H 	H 	0.93099 0.71692 0.87319 0.04700
H 	H 	0.00886 0.85805 0.85042 0.06300
H 	H 	0.90616 0.90594 0.01219 0.06100
H 	H 	0.82860 0.76515 0.03502 0.05800
C 	C 	0.91942 0.14505 0.55746 -0.02100
C 	C 	0.92869 0.09347 0.51813 -0.01100
C 	C 	0.96162 0.06498 0.54499 -0.07100
C 	C 	0.98367 0.08569 0.61286 0.08000
C 	C 	0.97477 0.13766 0.65174 -0.07200
C 	C 	0.94362 0.16801 0.62398 -0.01200
N 	N 	0.01807 0.05700 0.64173 -0.13300
C 	C 	0.22529 0.18725 0.60819 -0.01900
C 	C 	0.19382 0.14169 0.66834 -0.01200
C 	C 	0.12616 0.10359 0.68167 -0.06900
C 	C 	0.08903 0.10880 0.63410 0.08400
C 	C 	0.12154 0.15857 0.57591 -0.07200
C 	C 	0.18926 0.19813 0.56378 -0.01100
C 	C 	0.92972 0.81963 0.58416 -0.01100
C 	C 	0.99090 0.87724 0.55284 -0.03500
C 	C 	0.02147 0.95504 0.57295 -0.05000
C 	C 	0.99109 0.97593 0.62547 0.05700
C 	C 	0.93086 0.91742 0.65826 -0.06000
C 	C 	0.90053 0.83963 0.63803 -0.02000
H 	H 	0.91028 0.07534 0.46680 0.04300
H 	H 	0.97062 0.02769 0.51292 0.05700
H 	H 	0.99303 0.15550 0.70312 0.05300
H 	H 	0.93812 0.20924 0.65418 0.03300
H 	H 	0.22137 0.13373 0.70349 0.04300
H 	H 	0.10191 0.06659 0.72706 0.05600
H 	H 	0.09440 0.16438 0.53870 0.05800
H 	H 	0.21348 0.23501 0.51828 0.04200
H 	H 	0.01348 0.86214 0.51087 0.05100
H 	H 	0.06697 0.99918 0.54548 0.04800
H 	H 	0.90605 0.93283 0.69698 0.05100
H 	H 	0.85299 0.79530 0.66215 0.05800
Co	Co	0.68786 0.25270 0.95039 1.19000
O 	O 	0.75498 0.24782 0.88117 -0.36500
Co	Co	0.56085 0.25515 0.01711 1.19500
O 	O 	0.59643 0.21244 0.92167 -0.41000
O 	O 	0.64111 0.36359 0.02592 -0.39800
O 	O 	0.68055 0.14575 0.93545 -0.29500
C 	C 	0.69690 0.39781 0.98593 0.34000
O 	O 	0.54773 0.26919 0.91207 -0.34400
C 	C 	0.44324 0.17908 0.07601 0.28700
C 	C 	0.65924 0.24488 0.08833 0.33200
O 	O 	0.48934 0.25169 0.08588 -0.33800
O 	O 	0.46492 0.14847 0.03283 -0.28300
O 	O 	0.71531 0.26934 0.05565 -0.34500
O 	O 	0.61229 0.21350 0.04647 -0.40800
O 	O 	0.70905 0.35926 0.93749 -0.53700
C 	C 	0.73054 0.17495 0.89091 0.32700
C 	C 	0.57963 0.24375 0.87948 0.33200
H 	H 	0.74007 0.38905 0.89576 0.18600
Co	Co	0.74040 0.35401 0.47535 1.18900
O 	O 	0.81391 0.33919 0.43801 -0.36500
Co	Co	0.61773 0.37564 0.49424 1.19500
O 	O 	0.66111 0.32116 0.42071 -0.44400
O 	O 	0.69873 0.48124 0.50910 -0.36900
O 	O 	0.72424 0.24211 0.48026 -0.33400
C 	C 	0.76034 0.50544 0.49211 0.37800
O 	O 	0.62704 0.38613 0.38350 -0.30800
C 	C 	0.49689 0.31532 0.53216 0.30800
C 	C 	0.68756 0.35638 0.60247 0.32800
O 	O 	0.54482 0.38631 0.54257 -0.33500
O 	O 	0.51653 0.27638 0.49906 -0.32900
O 	O 	0.74592 0.37405 0.58525 -0.34400
O 	O 	0.65137 0.32656 0.54991 -0.45100
O 	O 	0.77528 0.46338 0.45256 -0.53000
C 	C 	0.78274 0.26675 0.45572 0.31500
C 	C 	0.65946 0.35556 0.36732 0.31100
H 	H 	0.81634 0.49121 0.42004 0.21900
C 	C 	0.64409 0.35209 0.79530 0.05600
C 	C 	0.61226 0.27255 0.80992 -0.04000
C 	C 	0.60346 0.22005 0.75558 -0.09500
C 	C 	0.62762 0.24883 0.68761 0.04900
C 	C 	0.65861 0.32812 0.67303 -0.01600
C 	C 	0.66713 0.38050 0.72713 -0.10600
C 	C 	0.70148 0.46672 0.71231 0.77700
H 	H 	0.64971 0.39152 0.83719 0.06500
H 	H 	0.62310 0.20983 0.64579 0.08100
C 	C 	0.56772 0.13340 0.76979 0.77600
F 	F 	0.69985 0.50710 0.77058 -0.45800
F 	F 	0.67124 0.47627 0.66060 -0.46200
F 	F 	0.76635 0.49888 0.69070 -0.46600
F 	F 	0.50566 0.10407 0.80037 -0.43200
F 	F 	0.60247 0.12180 0.81391 -0.45300
F 	F 	0.56084 0.09153 0.70935 -0.43800
C 	C 	0.69172 0.35262 0.17202 0.06000
C 	C 	0.65407 0.27229 0.15866 -0.03800
C 	C 	0.61860 0.21890 0.21413 -0.08700
C 	C 	0.62316 0.24744 0.28252 0.04700
C 	C 	0.66095 0.32793 0.29587 -0.00900
C 	C 	0.69503 0.38132 0.24000 -0.10300
C 	C 	0.73392 0.46881 0.25245 0.78000
H 	H 	0.71938 0.39276 0.12932 0.06600
H 	H 	0.59625 0.20721 0.32548 0.08700
C 	C 	0.57615 0.13165 0.20042 0.77500
F 	F 	0.76972 0.51062 0.19283 -0.45500
F 	F 	0.77751 0.48968 0.30291 -0.47900
F 	F 	0.69161 0.48981 0.27392 -0.45100
F 	F 	0.61427 0.10825 0.16895 -0.43100
F 	F 	0.52782 0.11426 0.15713 -0.44000
F 	F 	0.54589 0.08922 0.26117 -0.43400
C 	C 	0.89238 0.74089 0.55438 0.07000
C 	C 	0.89488 0.68185 0.58184 -0.07800
C 	C 	0.85533 0.60562 0.55699 0.07600
C 	C 	0.81214 0.58759 0.50538 -0.15000
C 	C 	0.81310 0.64817 0.47386 0.18500
C 	C 	0.85277 0.72447 0.49946 -0.12600
H 	H 	0.85621 0.55986 0.57990 0.05600
H 	H 	0.85244 0.77092 0.47706 0.07500
H 	H 	0.92635 0.69468 0.62351 0.07200
N 	N 	0.77676 0.63355 0.41878 -0.21100
H 	H 	0.75049 0.57858 0.39545 0.16000
H 	H 	0.77631 0.67819 0.39713 0.12000
C 	C 	0.88238 0.17298 0.53026 0.06800
C 	C 	0.90003 0.20778 0.46429 -0.08500
C 	C 	0.86707 0.23780 0.44030 0.05100
C 	C 	0.81796 0.23635 0.48300 -0.13100
C 	C 	0.80278 0.20516 0.55143 0.16500
C 	C 	0.83144 0.16824 0.57193 -0.12500
H 	H 	0.88005 0.26275 0.38860 0.04000
H 	H 	0.81737 0.14072 0.62263 0.07500
H 	H 	0.93953 0.21200 0.43177 0.06100
N 	N 	0.76527 0.21597 0.59906 -0.20500
H 	H 	0.76192 0.26320 0.59540 0.11300
H 	H 	0.74633 0.18339 0.64498 0.11500
C 	C 	0.29472 0.21885 0.58885 0.06700
C 	C 	0.34317 0.26858 0.63441 -0.08200
C 	C 	0.40910 0.30096 0.61486 0.05200
C 	C 	0.42758 0.28517 0.54903 -0.12600
C 	C 	0.37901 0.23796 0.50143 0.16300
C 	C 	0.31266 0.20205 0.52321 -0.12200
H 	H 	0.44594 0.33779 0.65128 0.05100
H 	H 	0.27510 0.16366 0.48792 0.07200
H 	H 	0.32975 0.28230 0.68497 0.06400
N 	N 	0.39578 0.23069 0.43405 -0.20500
H 	H 	0.44368 0.26798 0.41260 0.12000
H 	H 	0.35969 0.19162 0.40077 0.10700
C 	C 	0.82828 0.64670 0.96980 0.07300
C 	C 	0.76129 0.60875 0.96078 -0.07400
C 	C 	0.71824 0.52804 0.96971 0.07300
C 	C 	0.74161 0.48400 0.98735 -0.14300
C 	C 	0.80893 0.52248 0.99929 0.16500
C 	C 	0.85175 0.60372 0.99008 -0.11300
H 	H 	0.66695 0.49923 0.96039 0.04400
H 	H 	0.90337 0.63339 0.99843 0.07300
H 	H 	0.74276 0.64155 0.94522 0.07600
N 	N 	0.83254 0.48217 0.02015 -0.20100
H 	H 	0.80168 0.42254 0.03055 0.10500
H 	H 	0.88240 0.51089 0.02770 0.11100
C 	C 	0.85983 0.10049 0.88614 0.06400
C 	C 	0.80443 0.06716 0.93297 -0.08100
C 	C 	0.76089 0.08884 0.93190 0.05000
C 	C 	0.77138 0.14363 0.88324 -0.12300
C 	C 	0.82376 0.17175 0.83125 0.15600
C 	C 	0.86920 0.15229 0.83494 -0.12200
H 	H 	0.71974 0.06439 0.97030 0.06300
H 	H 	0.91091 0.17620 0.79721 0.06400
H 	H 	0.79559 0.02511 0.97110 0.06700
N 	N 	0.82870 0.21354 0.77617 -0.20700
H 	H 	0.79033 0.21776 0.76573 0.11600
H 	H 	0.86929 0.23760 0.74026 0.09200
C 	C 	0.37333 0.15026 0.07979 -0.02900
C 	C 	0.35529 0.20284 0.07930 -0.01300
C 	C 	0.29205 0.17680 0.06313 -0.01900
C 	C 	0.24612 0.09801 0.04718 -0.03800
C 	C 	0.26219 0.04351 0.05395 0.10900
C 	C 	0.32556 0.07026 0.07138 -0.05100
H 	H 	0.27977 0.21862 0.05947 0.04800
H 	H 	0.33876 0.02918 0.07442 0.08900
H 	H 	0.39120 0.26454 0.08756 0.06100
N 	N 	0.21785 0.96612 0.04205 -0.20100
H 	H 	0.17042 0.94413 0.02886 0.09900
H 	H 	0.23056 0.92669 0.04636 0.10700
