data_crystal

_cell_length_a 18.52123
_cell_length_b 18.93761
_cell_length_c 38.85958
_cell_angle_alpha 95.41870
_cell_angle_beta  95.41875
_cell_angle_gamma 126.41815

_symmetry_space_group_name_	'P 1'
_symmetry_space_group_name_H-M	'P 1'

loop_
_symmetry_equiv_pos_as_xyz
  x,y,z

loop_
_atom_site_label
_atom_site_type_symbol
_atom_site_fract_x
_atom_site_fract_y
_atom_site_fract_z
_atom_site_charge
C 	C 	0.92620 0.00690 0.96675 0.01800
C 	C 	0.88000 0.91528 0.96722 -0.05400
C 	C 	0.92799 0.87904 0.96647 0.02300
C 	C 	0.02163 0.93465 0.96601 -0.05200
C 	C 	0.06723 0.02536 0.96546 0.02100
C 	C 	0.01932 0.06107 0.96518 -0.05500
H 	H 	0.80797 0.87302 0.96849 0.05300
H 	H 	0.05915 0.90734 0.96629 0.05500
H 	H 	0.05518 0.13168 0.96504 0.05500
C 	C 	0.91575 0.02036 0.49831 0.01700
C 	C 	0.86687 0.93104 0.50222 -0.05400
C 	C 	0.90989 0.89039 0.50335 0.02100
C 	C 	0.00234 0.93941 0.50099 -0.04900
C 	C 	0.05171 0.02890 0.49716 0.01900
C 	C 	0.00838 0.06950 0.49586 -0.05700
H 	H 	0.79497 0.89271 0.50363 0.05400
H 	H 	0.03562 0.90783 0.50185 0.05500
H 	H 	0.04621 0.13853 0.49263 0.05200
Cu	Cu	0.78334 0.35598 0.96476 0.92700
Cu	Cu	0.77675 0.29810 0.04211 0.87100
Cu	Cu	0.63674 0.31108 0.00819 0.89800
Cu	Cu	0.61220 0.34601 0.93593 0.89800
C 	C 	0.71626 0.31711 0.89032 0.29100
O 	O 	0.83483 0.48513 0.96190 -0.35500
C 	C 	0.69778 0.35348 0.08594 0.29200
O 	O 	0.64077 0.28165 0.96012 -0.63700
O 	O 	0.77119 0.37435 0.01418 -0.64200
O 	O 	0.84399 0.29718 0.97085 -0.36500
O 	O 	0.74662 0.20691 0.00512 -0.43900
O 	O 	0.67880 0.35730 0.89674 -0.38200
O 	O 	0.50535 0.24180 0.99959 -0.37800
C 	C 	0.45516 0.23876 0.97210 0.29200
C 	C 	0.79239 0.51788 0.97184 0.28200
O 	O 	0.70758 0.46346 0.97601 -0.38800
O 	O 	0.49231 0.29497 0.95017 -0.38500
O 	O 	0.77192 0.32022 0.91548 -0.35600
C 	C 	0.80395 0.22340 0.98398 0.29100
O 	O 	0.63107 0.32242 0.05880 -0.38300
O 	O 	0.77189 0.36102 0.08197 -0.41600
H 	H 	0.60242 0.21677 0.95051 0.16900
H 	H 	0.80797 0.43749 0.02625 0.17900
Cu	Cu	0.58416 0.18526 0.50238 0.92800
Cu	Cu	0.64748 0.20478 0.42573 0.87600
Cu	Cu	0.64551 0.34330 0.46633 0.89800
Cu	Cu	0.61375 0.35702 0.54001 0.89900
C 	C 	0.61512 0.22739 0.57789 0.29100
O 	O 	0.45698 0.14610 0.50614 -0.35800
C 	C 	0.61518 0.30780 0.38802 0.28700
O 	O 	0.67202 0.32539 0.51231 -0.63900
O 	O 	0.57172 0.21064 0.45491 -0.64100
O 	O 	0.62771 0.11311 0.49131 -0.37000
O 	O 	0.73100 0.21361 0.46129 -0.43400
O 	O 	0.58538 0.27516 0.57418 -0.37600
O 	O 	0.72361 0.47146 0.47999 -0.38100
C 	C 	0.71554 0.51634 0.50541 0.29500
C 	C 	0.43139 0.19565 0.49890 0.28400
O 	O 	0.49314 0.28101 0.49897 -0.38900
O 	O 	0.68580 0.48404 0.53397 -0.38600
O 	O 	0.61697 0.18253 0.55029 -0.36100
C 	C 	0.70313 0.14826 0.47862 0.29300
O 	O 	0.63426 0.36197 0.41748 -0.37400
O 	O 	0.59523 0.22855 0.38841 -0.41500
H 	H 	0.73769 0.35658 0.52146 0.16900
H 	H 	0.50835 0.18061 0.44258 0.17500
C 	C 	0.62241 0.20492 0.61257 -0.08500
C 	C 	0.54910 0.17010 0.63053 0.02400
C 	C 	0.55892 0.15780 0.66505 -0.07300
C 	C 	0.64255 0.18162 0.68216 0.04900
C 	C 	0.71471 0.21262 0.66368 -0.07300
C 	C 	0.70450 0.22396 0.62891 0.01900
C 	C 	0.65479 0.17698 0.71978 -0.05100
C 	C 	0.72008 0.25064 0.74359 -0.05000
C 	C 	0.71569 0.25503 0.78150 0.04900
C 	C 	0.79576 0.29618 0.80658 -0.07200
C 	C 	0.79519 0.31276 0.84239 0.02700
C 	C 	0.71461 0.28915 0.85338 -0.08200
C 	C 	0.63387 0.24541 0.82839 0.02000
C 	C 	0.63441 0.22880 0.79265 -0.07100
H 	H 	0.48501 0.15402 0.61793 0.04100
H 	H 	0.50244 0.13251 0.67892 0.05200
H 	H 	0.77893 0.22919 0.67639 0.05300
H 	H 	0.76112 0.24990 0.61509 0.02900
H 	H 	0.60213 0.11691 0.72859 0.04700
H 	H 	0.77447 0.30995 0.73491 0.04600
H 	H 	0.85894 0.31727 0.79827 0.05300
H 	H 	0.85804 0.34670 0.86140 0.04300
H 	H 	0.57118 0.22640 0.83659 0.02900
H 	H 	0.57250 0.19862 0.77354 0.05200
C 	C 	0.68413 0.36994 0.12190 -0.08900
C 	C 	0.61854 0.38321 0.12702 0.02200
C 	C 	0.59819 0.38829 0.16054 -0.07400
C 	C 	0.64386 0.38131 0.18934 0.04800
C 	C 	0.71145 0.37082 0.18441 -0.07500
C 	C 	0.73193 0.36589 0.15099 0.01900
C 	C 	0.61288 0.37384 0.22351 -0.05200
C 	C 	0.67310 0.41312 0.25412 -0.05100
C 	C 	0.64345 0.38794 0.28792 0.04700
C 	C 	0.57868 0.29767 0.29005 -0.07400
C 	C 	0.56429 0.27230 0.32284 0.01900
C 	C 	0.61575 0.33645 0.35391 -0.08700
C 	C 	0.67636 0.42719 0.35177 0.01900
C 	C 	0.69028 0.45269 0.31893 -0.07300
H 	H 	0.58212 0.38793 0.10499 0.03900
H 	H 	0.54571 0.39603 0.16398 0.05200
H 	H 	0.74575 0.36314 0.20621 0.04900
H 	H 	0.78256 0.35553 0.14754 0.02800
H 	H 	0.54003 0.33371 0.22362 0.04500
H 	H 	0.74556 0.46202 0.25414 0.04500
H 	H 	0.54275 0.24664 0.26643 0.05000
H 	H 	0.51579 0.20226 0.32407 0.03400
H 	H 	0.71613 0.47756 0.37549 0.04200
H 	H 	0.74019 0.52246 0.31765 0.05200
C 	C 	0.85656 0.79471 0.50487 0.02000
C 	C 	0.79244 0.73126 0.47527 -0.06000
C 	C 	0.74333 0.63998 0.47560 0.02600
C 	C 	0.75980 0.61159 0.50566 -0.08200
C 	C 	0.82206 0.67516 0.53566 0.01200
C 	C 	0.87003 0.76643 0.53548 -0.04200
H 	H 	0.78100 0.75312 0.45193 0.05400
H 	H 	0.83425 0.65353 0.55893 0.04000
C 	C 	0.93251 0.83066 0.56686 0.08900
C 	C 	0.67424 0.57593 0.44543 0.07100
N 	N 	0.98258 0.88217 0.59198 -0.11400
N 	N 	0.61886 0.52474 0.42126 -0.10900
C 	C 	0.86759 0.05987 0.49389 0.01900
C 	C 	0.83761 0.06236 0.45988 -0.06300
C 	C 	0.78152 0.08846 0.45447 0.02600
C 	C 	0.75628 0.11414 0.48351 -0.09000
C 	C 	0.78677 0.11223 0.51760 0.01300
C 	C 	0.84252 0.08556 0.52295 -0.04400
H 	H 	0.85588 0.04141 0.43750 0.05200
H 	H 	0.76814 0.13270 0.53998 0.04100
C 	C 	0.87411 0.08509 0.55831 0.08800
C 	C 	0.74722 0.08536 0.41893 0.04700
N 	N 	0.89944 0.08466 0.58662 -0.11600
N 	N 	0.71976 0.08287 0.39047 -0.13400
C 	C 	0.33542 0.15963 0.49723 -0.08300
C 	C 	0.27056 0.09969 0.46715 0.01000
C 	C 	0.17795 0.06062 0.46595 -0.04100
C 	C 	0.14962 0.08052 0.49539 0.01900
C 	C 	0.21501 0.14323 0.52489 -0.06000
C 	C 	0.30762 0.18275 0.52601 0.02700
H 	H 	0.29213 0.08301 0.44480 0.02900
H 	H 	0.19336 0.15899 0.54745 0.05600
C 	C 	0.37334 0.24488 0.55722 0.06300
C 	C 	0.11236 0.00017 0.43446 0.07900
N 	N 	0.42590 0.29463 0.58223 -0.11900
N 	N 	0.05975 0.95172 0.40925 -0.11200
C 	C 	0.88127 0.78289 0.96657 0.01400
C 	C 	0.86571 0.75238 0.99857 -0.05100
C 	C 	0.84149 0.66760 0.00110 0.01500
C 	C 	0.83239 0.61222 0.97128 -0.07700
C 	C 	0.84668 0.64224 0.93918 0.00400
C 	C 	0.86965 0.72642 0.93655 -0.03900
H 	H 	0.87566 0.79593 0.02182 0.05200
H 	H 	0.83716 0.59888 0.91596 0.04100
C 	C 	0.88123 0.75455 0.90291 0.08600
C 	C 	0.82803 0.63868 0.03457 0.06700
N 	N 	0.89056 0.77717 0.87598 -0.11600
N 	N 	0.81720 0.61541 0.06136 -0.11700
C 	C 	0.87981 0.04860 0.97090 0.02200
C 	C 	0.85033 0.06820 0.94118 -0.06300
C 	C 	0.82612 0.12579 0.94499 0.02700
C 	C 	0.83202 0.16492 0.97896 -0.08700
C 	C 	0.85808 0.14243 0.00860 0.00800
C 	C 	0.88154 0.08442 0.00475 -0.04700
H 	H 	0.84880 0.04067 0.91510 0.05300
H 	H 	0.86076 0.17071 0.03474 0.01600
C 	C 	0.90952 0.06365 0.03574 0.08500
C 	C 	0.79324 0.14236 0.91394 0.07300
N 	N 	0.93196 0.04696 0.06053 -0.11800
N 	N 	0.76678 0.15528 0.88897 -0.10800
C 	C 	0.35586 0.18465 0.97007 -0.07800
C 	C 	0.32143 0.19011 0.00002 0.00300
C 	C 	0.22722 0.13995 0.99859 -0.03400
C 	C 	0.16651 0.08389 0.96683 0.01600
C 	C 	0.20082 0.07895 0.93681 -0.05900
C 	C 	0.29505 0.12854 0.93828 0.02200
H 	H 	0.36813 0.23372 0.02441 0.04400
H 	H 	0.15395 0.03516 0.91247 0.05400
C 	C 	0.32867 0.11912 0.90744 0.06400
C 	C 	0.19322 0.14535 0.02993 0.08300
N 	N 	0.35562 0.11160 0.88274 -0.12100
N 	N 	0.16590 0.14961 0.05501 -0.11400
