data_crystal

_cell_length_a 26.16222
_cell_length_b 26.59784
_cell_length_c 45.14519
_cell_angle_alpha 95.48753
_cell_angle_beta  95.48623
_cell_angle_gamma 125.83069

_symmetry_space_group_name_	'P 1'
_symmetry_space_group_name_H-M	'P 1'

loop_
_symmetry_equiv_pos_as_xyz
  x,y,z

loop_
_atom_site_label
_atom_site_type_symbol
_atom_site_fract_x
_atom_site_fract_y
_atom_site_fract_z
_atom_site_charge
C 	C 	0.96823 0.03361 0.99687 0.03500
C 	C 	0.03426 0.06853 0.99686 -0.08200
C 	C 	0.06327 0.03794 0.99509 0.03400
H 	H 	0.06298 0.11929 0.99840 0.04900
C 	C 	0.99613 0.03049 0.46776 -0.06900
H 	H 	0.02365 0.08049 0.46720 0.04600
C 	C 	0.84996 0.09677 0.46582 -0.00100
C 	C 	0.83000 0.04824 0.44153 -0.03900
C 	C 	0.89878 0.02678 0.46794 -0.00000
C 	C 	0.91755 0.07435 0.49249 -0.03900
H 	H 	0.79624 0.03803 0.42174 0.03900
H 	H 	0.95168 0.08492 0.51220 0.03700
C 	C 	0.86644 0.19923 0.46558 -0.06800
H 	H 	0.91670 0.22201 0.46498 0.04500
C 	C 	0.22925 0.10750 0.47188 -0.00100
C 	C 	0.18623 0.05716 0.44777 -0.03900
C 	C 	0.12010 0.02309 0.44648 -0.03700
C 	C 	0.09650 0.03893 0.46938 -0.00100
C 	C 	0.13961 0.08945 0.49345 -0.03900
H 	H 	0.20404 0.04461 0.43001 0.03800
H 	H 	0.12187 0.10179 0.51133 0.03700
C 	C 	0.33014 0.11664 0.47971 -0.06700
H 	H 	0.41971 0.12917 0.48523 0.02900
H 	H 	0.30334 0.06914 0.48436 0.04500
C 	C 	0.83873 0.14875 0.00212 0.02700
C 	C 	0.77256 0.10977 0.00209 -0.06900
C 	C 	0.73750 0.13398 0.99950 0.01500
C 	C 	0.87434 0.12167 0.00146 -0.00100
H 	H 	0.74801 0.06033 0.00318 0.04500
H 	H 	0.68610 0.10295 0.99854 0.03100
C 	C 	0.93446 0.09483 0.97525 -0.03700
C 	C 	0.93772 0.06569 0.99891 -0.00400
C 	C 	0.90996 0.06542 0.02406 -0.03700
C 	C 	0.87842 0.09335 0.02534 -0.03900
H 	H 	0.85688 0.09269 0.04478 0.03900
C 	C 	0.23780 0.10610 0.01677 -0.04000
C 	C 	0.26158 0.13209 0.99134 0.00000
C 	C 	0.15660 0.10176 0.96971 -0.03700
C 	C 	0.13244 0.07427 0.99478 -0.00400
C 	C 	0.17351 0.07733 0.01849 -0.03700
H 	H 	0.12518 0.09951 0.95127 0.03600
H 	H 	0.15531 0.05649 0.03799 0.03800
H 	H 	0.26904 0.10774 0.03506 0.03900
C 	C 	0.89332 0.10920 0.49142 -0.03900
C 	C 	0.20574 0.12369 0.49465 -0.03900
C 	C 	0.82465 0.13388 0.46476 0.02600
C 	C 	0.29886 0.14377 0.47304 0.02700
C 	C 	0.39610 0.15074 0.48029 0.01500
C 	C 	0.90283 0.12262 0.97649 -0.03900
C 	C 	0.22098 0.13059 0.96799 -0.04000
H 	H 	0.95561 0.09510 0.95571 0.03700
H 	H 	0.31636 0.07204 0.98609 0.04500
H 	H 	0.87706 0.28629 0.46989 0.03100
C 	C 	0.32878 0.16028 0.98908 0.02600
C 	C 	0.84387 0.23562 0.46820 0.01300
C 	C 	0.35001 0.12256 0.98739 -0.06700
H 	H 	0.23870 0.16256 0.51333 0.03800
H 	H 	0.90835 0.14598 0.51045 0.03600
C 	C 	0.75952 0.10481 0.46510 -0.06900
H 	H 	0.72678 0.05435 0.46423 0.04400
H 	H 	0.23904 0.15084 0.94834 0.03800
C 	C 	0.76829 0.19730 0.99672 -0.09700
H 	H 	0.89969 0.14414 0.95788 0.03600
C 	C 	0.37247 0.22542 0.99018 -0.06700
C 	C 	0.41495 0.15011 0.98805 0.01400
H 	H 	0.35637 0.25482 0.99130 0.04500
H 	H 	0.43084 0.12053 0.98713 0.03200
C 	C 	0.87003 0.21275 0.00085 -0.07000
C 	C 	0.77936 0.20698 0.47017 -0.09500
C 	C 	0.33393 0.20529 0.46709 -0.06800
O 	O 	0.67644 0.19719 0.99977 -0.37500
C 	C 	0.73696 0.14114 0.46777 0.01400
C 	C 	0.43743 0.25309 0.99087 0.01200
C 	C 	0.45936 0.21579 0.99055 -0.08900
O 	O 	0.55092 0.21596 0.00531 -0.36300
O 	O 	0.71613 0.22883 0.49613 -0.44200
H 	H 	0.64121 0.17565 0.20316 0.04000
H 	H 	0.63607 0.18138 0.14878 0.04000
C 	C 	0.43119 0.21214 0.47404 -0.08900
H 	H 	0.53035 0.24384 0.74421 0.03900
H 	H 	0.53575 0.24111 0.79888 0.03700
H 	H 	0.92127 0.24343 0.00133 0.04500
H 	H 	0.68684 0.11830 0.46875 0.02800
H 	H 	0.58718 0.22993 0.95008 0.17300
H 	H 	0.31010 0.22657 0.46196 0.04500
C 	C 	0.83499 0.23692 0.99813 0.01500
C 	C 	0.75776 0.24605 0.47805 0.28700
H 	H 	0.91251 0.04326 0.04250 0.03800
C 	C 	0.73034 0.22068 0.98981 0.29000
H 	H 	0.60810 0.23549 0.45145 0.16300
C 	C 	0.85436 0.01340 0.44257 -0.03700
C 	C 	0.52887 0.24587 0.99508 0.28200
C 	C 	0.66783 0.22130 0.19641 -0.04400
C 	C 	0.66507 0.22455 0.16562 -0.03100
C 	C 	0.39978 0.23932 0.46753 0.01500
O 	O 	0.64807 0.25409 0.90334 -0.42300
O 	O 	0.53605 0.24309 0.49484 -0.38300
Cu	Cu	0.68828 0.24854 0.93907 0.86900
Cu	Cu	0.64216 0.24685 0.00400 0.92800
H 	H 	0.59602 0.22332 0.24308 0.04000
C 	C 	0.02677 0.00144 0.46863 0.02500
H 	H 	0.59057 0.22944 0.29747 0.03600
O 	O 	0.63200 0.25480 0.96120 -0.64300
C 	C 	0.50046 0.24774 0.47411 0.29100
H 	H 	0.61676 0.23925 0.71218 0.03900
C 	C 	0.57596 0.28047 0.79117 -0.03200
H 	H 	0.62717 0.23590 0.65843 0.03500
C 	C 	0.57296 0.28193 0.76020 -0.04500
C 	C 	0.63952 0.24592 0.25979 -0.04300
C 	C 	0.63645 0.24951 0.29060 -0.03200
O 	O 	0.66610 0.25466 0.04657 -0.36300
O 	O 	0.74839 0.26230 0.97205 -0.44200
C 	C 	0.69898 0.27373 0.25063 0.00900
O 	O 	0.63352 0.28055 0.46113 -0.64000
C 	C 	0.70312 0.27693 0.21840 0.00900
C 	C 	0.69275 0.28103 0.31245 -0.00800
C 	C 	0.62940 0.27454 0.67054 -0.03100
C 	C 	0.62331 0.27634 0.70095 -0.04500
C 	C 	0.69772 0.28335 0.15662 -0.00800
Cu	Cu	0.73196 0.28782 0.52970 0.87000
H 	H 	0.85950 0.28615 0.99658 0.02800
C 	C 	0.68741 0.28663 0.12518 0.04500
C 	C 	0.69072 0.29222 0.34402 0.04400
O 	O 	0.52597 0.28788 0.45529 -0.39600
H 	H 	0.42642 0.28691 0.46301 0.03100
C 	C 	0.67874 0.28934 0.09884 -0.10500
C 	C 	0.66640 0.29272 0.06772 0.30700
Cu	Cu	0.62879 0.29469 0.50282 0.89700
O 	O 	0.62347 0.29504 0.54625 -0.38800
O 	O 	0.78252 0.29962 0.46842 -0.37300
C 	C 	0.68908 0.30161 0.37045 -0.10500
C 	C 	0.75496 0.30287 0.27254 -0.04400
H 	H 	0.47091 0.30372 0.99258 0.02900
C 	C 	0.65368 0.30535 0.89920 0.30700
O 	O 	0.56932 0.30502 0.99226 -0.39700
C 	C 	0.02626 0.97247 0.99349 -0.08100
C 	C 	0.96010 0.93725 0.99313 0.03500
C 	C 	0.93113 0.96792 0.99471 -0.08000
H 	H 	0.04891 0.94897 0.99249 0.05000
H 	H 	0.87988 0.94078 0.99415 0.05000
C 	C 	0.93003 0.99515 0.46770 0.02500
C 	C 	0.89432 0.93018 0.46806 -0.07300
C 	C 	0.92491 0.90093 0.46867 0.02700
C 	C 	0.99109 0.93674 0.46910 -0.07000
H 	H 	0.84324 0.90270 0.46801 0.04800
H 	H 	0.01487 0.91436 0.47005 0.04700
Cu	Cu	0.67878 0.34796 0.96585 0.89600
Cu	Cu	0.65376 0.36858 0.02733 0.89400
O 	O 	0.69901 0.34546 0.00743 -0.64100
O 	O 	0.64013 0.32105 0.06109 -0.38700
O 	O 	0.72954 0.43906 0.97259 -0.38500
C 	C 	0.72783 0.47551 0.99389 0.29400
O 	O 	0.69754 0.45406 0.01671 -0.39600
O 	O 	0.67110 0.35054 0.92213 -0.38700
H 	H 	0.74547 0.37066 0.01587 0.16500
Cu	Cu	0.73408 0.33612 0.46537 0.92700
Cu	Cu	0.61116 0.32739 0.44286 0.89400
C 	C 	0.68717 0.31470 0.40173 0.30500
O 	O 	0.76809 0.42751 0.46573 -0.36200
C 	C 	0.67078 0.31676 0.56934 0.30700
O 	O 	0.72408 0.34293 0.50811 -0.64200
O 	O 	0.65835 0.34047 0.40865 -0.38700
C 	C 	0.73681 0.44881 0.47519 0.28200
O 	O 	0.67725 0.40855 0.47856 -0.39500
O 	O 	0.72721 0.31600 0.42256 -0.36200
O 	O 	0.72456 0.32562 0.56544 -0.42300
H 	H 	0.74807 0.38656 0.51963 0.17300
C 	C 	0.63977 0.32316 0.65599 -0.01000
C 	C 	0.62739 0.32677 0.71706 0.00800
C 	C 	0.63637 0.37478 0.70228 -0.04500
C 	C 	0.64258 0.37296 0.67181 -0.03100
C 	C 	0.62603 0.33098 0.74979 0.00800
C 	C 	0.63186 0.32810 0.81192 -0.01000
C 	C 	0.68341 0.37909 0.80175 -0.03200
C 	C 	0.68055 0.38054 0.77078 -0.04400
C 	C 	0.63925 0.32072 0.84288 0.04400
C 	C 	0.64527 0.31439 0.86878 -0.11300
C 	C 	0.65064 0.32323 0.62531 0.04500
C 	C 	0.65947 0.32120 0.59963 -0.11300
H 	H 	0.63936 0.41379 0.71448 0.03900
H 	H 	0.65047 0.41066 0.66068 0.03700
H 	H 	0.72664 0.41631 0.81769 0.03700
H 	H 	0.72168 0.41876 0.76301 0.03900
C 	C 	0.73537 0.33893 0.17854 -0.03100
C 	C 	0.73804 0.33578 0.20933 -0.04300
C 	C 	0.75183 0.30660 0.30335 -0.03100
H 	H 	0.76091 0.38456 0.17175 0.03600
H 	H 	0.76544 0.37900 0.22610 0.04000
H 	H 	0.80101 0.32394 0.26572 0.04000
H 	H 	0.79552 0.33080 0.32013 0.04000
C 	C 	0.84256 0.74825 0.49803 -0.03900
C 	C 	0.83779 0.70779 0.47368 -0.00000
C 	C 	0.85612 0.72947 0.44669 -0.03900
C 	C 	0.88115 0.79171 0.44444 -0.03800
C 	C 	0.88810 0.83286 0.46916 -0.00200
C 	C 	0.86757 0.81053 0.49576 -0.03800
C 	C 	0.81372 0.64276 0.47643 0.02500
H 	H 	0.85168 0.69834 0.42760 0.03900
H 	H 	0.89684 0.80851 0.42381 0.03800
H 	H 	0.87296 0.84199 0.51500 0.03700
H 	H 	0.82810 0.73183 0.51889 0.03700
C 	C 	0.85289 0.62325 0.47349 -0.06600
C 	C 	0.82872 0.56057 0.47419 0.01200
C 	C 	0.76500 0.51668 0.47778 -0.08800
C 	C 	0.72673 0.53708 0.48188 0.01000
C 	C 	0.75093 0.59964 0.48109 -0.06600
H 	H 	0.90180 0.65648 0.47032 0.04500
H 	H 	0.85927 0.54606 0.47151 0.03600
H 	H 	0.67775 0.50418 0.48500 0.03000
H 	H 	0.72042 0.61430 0.48351 0.04400
H 	H 	0.83977 0.97697 0.42345 0.03700
H 	H 	0.08720 0.98435 0.42774 0.03600
C 	C 	0.83534 0.65260 0.01752 -0.06800
C 	C 	0.82319 0.67093 0.99120 0.02700
C 	C 	0.78083 0.62478 0.96547 -0.06700
C 	C 	0.75080 0.56094 0.96612 0.01600
C 	C 	0.76202 0.54267 0.99264 -0.09000
C 	C 	0.80446 0.58872 0.01832 0.01600
C 	C 	0.85498 0.73843 0.99058 0.00000
H 	H 	0.77084 0.63836 0.94508 0.04600
H 	H 	0.71790 0.52564 0.94622 0.03300
H 	H 	0.81373 0.57504 0.03883 0.02500
H 	H 	0.86867 0.68785 0.03735 0.04500
C 	C 	0.85110 0.77579 0.01305 -0.04000
C 	C 	0.88459 0.84049 0.01362 -0.03700
C 	C 	0.92136 0.86826 0.99141 -0.00400
C 	C 	0.92338 0.83047 0.96832 -0.03700
C 	C 	0.89086 0.76600 0.96807 -0.03900
H 	H 	0.82281 0.75483 0.03028 0.03800
H 	H 	0.88278 0.86921 0.03157 0.03700
H 	H 	0.95095 0.85128 0.95084 0.03700
H 	H 	0.89428 0.73765 0.95065 0.03800
