data_crystal

_cell_length_a 16.61978
_cell_length_b 14.70446
_cell_length_c 23.50510
_cell_angle_alpha 90.00493
_cell_angle_beta  89.99449
_cell_angle_gamma 100.65660

_symmetry_space_group_name_	'P 1'
_symmetry_space_group_name_H-M	'P 1'

loop_
_symmetry_equiv_pos_as_xyz
  x,y,z

loop_
_atom_site_label
_atom_site_type_symbol
_atom_site_fract_x
_atom_site_fract_y
_atom_site_fract_z
_atom_site_charge
Ni	Ni	0.39252 0.62237 0.81245 1.09800
O 	O 	0.36092 0.72725 0.76522 -0.70000
Ni	Ni	0.32820 0.66451 0.69081 1.09700
O 	O 	0.44560 0.70835 0.87617 -0.36500
O 	O 	0.52545 0.80188 0.81256 -0.38500
O 	O 	0.28366 0.61325 0.85560 -0.36300
Ni	Ni	0.44333 0.83964 0.75414 1.07100
O 	O 	0.33255 0.39110 0.81046 -0.39500
O 	O 	0.51599 0.80933 0.68853 -0.37300
O 	O 	0.30527 0.77502 0.64379 -0.36100
O 	O 	0.35869 0.55946 0.73825 -0.70000
O 	O 	0.41468 0.51092 0.85741 -0.37100
O 	O 	0.28238 0.57606 0.62635 -0.36800
O 	O 	0.19409 0.48584 0.68653 -0.38700
Ni	Ni	0.27205 0.45110 0.74911 1.06900
H 	H 	0.31160 0.74561 0.78189 0.15700
H 	H 	0.40686 0.53861 0.72154 0.15800
C 	C 	0.48733 0.75735 0.64514 0.26500
O 	O 	0.19886 0.50358 0.80490 -0.39400
C 	C 	0.50381 0.77984 0.86538 0.24200
C 	C 	0.34509 0.86141 0.64989 0.25000
C 	C 	0.22369 0.54125 0.85384 0.25700
C 	C 	0.21733 0.51149 0.63451 0.24500
C 	C 	0.36130 0.43227 0.85834 0.25400
O 	O 	0.44054 0.67678 0.65360 -0.37900
O 	O 	0.36869 0.89522 0.70080 -0.40200
Ni	Ni	0.65867 0.37068 0.30756 1.10100
O 	O 	0.70049 0.26468 0.26820 -0.70300
Ni	Ni	0.73027 0.32072 0.19131 1.10000
O 	O 	0.59352 0.28841 0.36885 -0.35200
O 	O 	0.52945 0.18747 0.30208 -0.40400
O 	O 	0.75727 0.39010 0.36245 -0.36100
Ni	Ni	0.62600 0.14660 0.25863 1.06900
O 	O 	0.75619 0.56841 0.32819 -0.39400
O 	O 	0.57055 0.16155 0.18207 -0.38700
O 	O 	0.74874 0.20747 0.14468 -0.36400
O 	O 	0.70407 0.43121 0.23532 -0.70400
O 	O 	0.62615 0.48510 0.34221 -0.35200
O 	O 	0.77459 0.40514 0.12466 -0.34600
O 	O 	0.86717 0.49817 0.18169 -0.39700
Ni	Ni	0.80035 0.52321 0.25361 1.06800
H 	H 	0.75099 0.25296 0.28679 0.15800
H 	H 	0.66257 0.46061 0.21594 0.16400
C 	C 	0.55560 0.24068 0.16339 0.26200
O 	O 	0.85555 0.43011 0.29480 -0.39800
C 	C 	0.53727 0.21644 0.35520 0.24100
C 	C 	0.73264 0.12004 0.16207 0.26400
C 	C 	0.83465 0.40409 0.34675 0.25900
C 	C 	0.83509 0.47624 0.13093 0.24300
C 	C 	0.67746 0.56530 0.33991 0.24400
O 	O 	0.61495 0.31266 0.15832 -0.36500
O 	O 	0.71500 0.09813 0.21577 -0.40100
C 	C 	0.93940 0.50567 0.00044 0.12200
C 	C 	0.97134 0.45790 0.95682 -0.09300
C 	C 	0.05647 0.47325 0.94957 0.01600
C 	C 	0.10773 0.53981 0.98031 0.11000
C 	C 	0.07608 0.58794 0.02392 -0.08000
C 	C 	0.99088 0.57065 0.03244 0.00800
O 	O 	0.86656 0.46867 0.02761 -0.18400
C 	C 	0.88071 0.51388 0.07993 0.04500
C 	C 	0.95425 0.57560 0.08299 -0.06200
O 	O 	0.18145 0.57444 0.95317 -0.18700
C 	C 	0.16849 0.52255 0.90302 0.04300
C 	C 	0.09448 0.46204 0.90060 -0.06200
H 	H 	0.93151 0.40690 0.93143 0.06900
H 	H 	0.11609 0.63861 0.04941 0.06600
H 	H 	0.98647 0.59763 0.12216 0.05500
H 	H 	0.06400 0.43482 0.86177 0.05900
C 	C 	0.99877 0.48664 0.43616 0.11500
C 	C 	0.07974 0.52026 0.45297 -0.08600
C 	C 	0.09657 0.52306 0.51151 0.01000
C 	C 	0.04035 0.47936 0.55038 0.12000
C 	C 	0.96171 0.43758 0.53258 -0.09000
C 	C 	0.94100 0.44945 0.47564 0.01300
O 	O 	0.97660 0.46366 0.38035 -0.19300
C 	C 	0.89874 0.41050 0.39027 0.04000
C 	C 	0.87947 0.39752 0.44731 -0.05900
O 	O 	0.07483 0.45563 0.60074 -0.19000
C 	C 	0.15731 0.48988 0.58849 0.04200
C 	C 	0.17059 0.52894 0.53511 -0.05400
H 	H 	0.12776 0.54055 0.42184 0.06800
H 	H 	0.91993 0.39452 0.56120 0.06900
H 	H 	0.81887 0.37280 0.46448 0.06400
H 	H 	0.22894 0.54549 0.51334 0.06000
C 	C 	0.41283 0.15039 0.47607 0.11700
C 	C 	0.40525 0.13867 0.53518 -0.08800
C 	C 	0.35927 0.05534 0.55566 0.00200
C 	C 	0.33371 0.98105 0.52000 0.12400
C 	C 	0.34846 0.98998 0.46129 -0.07800
C 	C 	0.38192 0.07819 0.44002 -0.00200
O 	O 	0.47294 0.21723 0.45158 -0.18500
C 	C 	0.47535 0.17779 0.39765 0.04100
C 	C 	0.42203 0.09478 0.39041 -0.05500
O 	O 	0.32085 0.89579 0.54743 -0.19200
C 	C 	0.34216 0.92637 0.60268 0.05600
C 	C 	0.36568 0.02100 0.60799 -0.06900
H 	H 	0.43743 0.19042 0.56401 0.06400
H 	H 	0.33814 0.92983 0.43378 0.06500
H 	H 	0.42943 0.04248 0.35935 0.04100
H 	H 	0.40368 0.05584 0.64184 0.05000
C 	C 	0.62337 0.93533 0.96067 0.11800
C 	C 	0.69424 0.99604 0.97786 -0.08300
C 	C 	0.72052 0.99099 0.03444 0.02600
C 	C 	0.67718 0.92907 0.07273 0.11100
C 	C 	0.60798 0.86607 0.05455 -0.08100
C 	C 	0.58001 0.87458 0.99895 0.00500
O 	O 	0.60653 0.91193 0.90404 -0.19500
C 	C 	0.54987 0.83007 0.91256 0.04200
C 	C 	0.53354 0.80743 0.96888 -0.05600
O 	O 	0.68603 0.95835 0.12893 -0.19000
C 	C 	0.73458 0.04561 0.12067 0.03900
C 	C 	0.75699 0.06454 0.06467 -0.06900
H 	H 	0.72771 0.04565 0.94834 0.06000
H 	H 	0.57373 0.81696 0.08401 0.06300
H 	H 	0.50710 0.73920 0.98468 0.06100
H 	H 	0.77463 0.13363 0.04724 0.06900
C 	C 	0.34716 0.27754 0.97464 0.10200
C 	C 	0.37906 0.20872 0.00366 -0.07300
C 	C 	0.39497 0.22068 0.06217 0.00200
C 	C 	0.39131 0.30346 0.08891 0.12500
C 	C 	0.36455 0.37466 0.05891 -0.09400
C 	C 	0.33726 0.35728 0.00280 0.02800
O 	O 	0.35300 0.28734 0.91580 -0.19000
C 	C 	0.34757 0.38074 0.91185 0.04700
C 	C 	0.33814 0.42285 0.96306 -0.06800
O 	O 	0.44252 0.32148 0.13585 -0.19500
C 	C 	0.47795 0.24251 0.13440 0.04400
C 	C 	0.45008 0.18208 0.09077 -0.05100
H 	H 	0.39639 0.15144 0.98067 0.05900
H 	H 	0.37067 0.44324 0.07718 0.07100
H 	H 	0.35313 0.49675 0.97073 0.06700
H 	H 	0.48467 0.13360 0.07243 0.05700
C 	C 	0.60103 0.80207 0.51808 0.11500
C 	C 	0.66838 0.78659 0.48599 -0.08600
C 	C 	0.65438 0.75302 0.43021 0.00800
C 	C 	0.57590 0.72294 0.41005 0.11600
C 	C 	0.50837 0.73337 0.44345 -0.08800
C 	C 	0.52289 0.77921 0.49584 0.01400
O 	O 	0.60328 0.80610 0.57724 -0.18400
C 	C 	0.51949 0.78162 0.58804 0.04300
C 	C 	0.47132 0.76560 0.54016 -0.05600
O 	O 	0.57038 0.65501 0.36841 -0.19100
C 	C 	0.65259 0.64646 0.36594 0.04400
C 	C 	0.70306 0.70447 0.40246 -0.06000
H 	H 	0.72844 0.79373 0.50526 0.06900
H 	H 	0.44705 0.70055 0.43110 0.06900
H 	H 	0.41026 0.72394 0.53908 0.06600
H 	H 	0.76076 0.69107 0.41877 0.06000
