data_crystal

_cell_length_a 27.58127
_cell_length_b 28.94210
_cell_length_c 35.46770
_cell_angle_alpha 60.91222
_cell_angle_beta  118.78691
_cell_angle_gamma 133.23411

_symmetry_space_group_name_	'P 1'
_symmetry_space_group_name_H-M	'P 1'

loop_
_symmetry_equiv_pos_as_xyz
  x,y,z

loop_
_atom_site_label
_atom_site_type_symbol
_atom_site_fract_x
_atom_site_fract_y
_atom_site_fract_z
_atom_site_charge
C 	C 	0.01986 0.95836 0.00225 0.27800
C 	C 	0.00614 0.94803 0.89362 0.11400
C 	C 	0.01039 0.97121 0.95368 0.05800
O 	O 	0.04414 0.07590 0.06451 -0.40600
O 	O 	0.03655 0.98399 0.14104 -0.53100
O 	O 	0.01166 0.98737 0.01640 -0.31400
O 	O 	0.06387 0.94615 0.10847 -0.72800
Co	Co	0.00612 0.07480 0.60829 1.19300
C 	C 	0.00690 0.96671 0.49700 0.31800
O 	O 	0.01456 0.00950 0.50875 -0.35900
O 	O 	0.02516 0.94243 0.60061 -0.73400
C 	C 	0.00263 0.00041 0.86308 -0.01600
C 	C 	0.00331 0.03803 0.87795 0.01700
C 	C 	0.00726 0.02359 0.92291 -0.04700
H 	H 	0.00075 0.07850 0.85473 0.08800
H 	H 	0.00855 0.05363 0.93372 0.10000
C 	C 	0.00512 0.97893 0.45024 0.02900
C 	C 	0.02338 0.03996 0.42011 -0.03800
C 	C 	0.02852 0.05348 0.37787 0.00700
C 	C 	0.01577 0.00630 0.36511 -0.01700
C 	C 	0.00607 0.97154 0.30944 -0.01000
C 	C 	0.02090 0.01974 0.32267 -0.02400
F 	F 	0.01104 0.74868 0.72636 -0.33700
F 	F 	0.06293 0.75113 0.21330 -0.34000
H 	H 	0.03468 0.07742 0.42952 0.10300
Co	Co	0.04453 0.01764 0.57422 1.18400
Co	Co	0.06375 0.01258 0.07832 1.17600
Co	Co	0.09908 0.91982 0.08678 1.19100
C 	C 	0.03401 0.14684 0.14256 0.41200
O 	O 	0.10413 0.88116 0.19540 -0.31100
Co	Co	0.06583 0.91382 0.58667 1.19500
O 	O 	0.04970 0.09605 0.56410 -0.39600
O 	O 	0.04122 0.11960 0.69670 -0.36900
O 	O 	0.06406 0.88712 0.69188 -0.33000
H 	H 	0.04285 0.10086 0.35522 0.09400
H 	H 	0.03515 0.06701 0.29980 0.09100
F 	F 	0.03793 0.66358 0.74360 -0.29100
F 	F 	0.10923 0.67939 0.23767 -0.30100
C 	C 	0.14929 0.88944 0.18376 0.40900
O 	O 	0.05817 0.13100 0.13009 -0.33100
C 	C 	0.08482 0.16313 0.67092 0.39900
C 	C 	0.10396 0.88320 0.68448 0.39500
O 	O 	0.08952 0.14527 0.64516 -0.33600
F 	F 	0.08049 0.37115 0.65333 -0.30700
C 	C 	0.08860 0.72879 0.73754 0.25000
C 	C 	0.07460 0.77224 0.72814 0.32100
C 	C 	0.04954 0.24924 0.12627 0.33200
F 	F 	0.04440 0.32982 0.12313 -0.29200
C 	C 	0.15450 0.74507 0.23320 0.24300
C 	C 	0.13084 0.78177 0.22058 0.31800
O 	O 	0.16937 0.93089 0.14675 -0.31900
O 	O 	0.12938 0.92082 0.64910 -0.31100
O 	O 	0.14020 0.00881 0.56012 -0.40200
F 	F 	0.11662 0.27514 0.59755 -0.33400
C 	C 	0.12493 0.84004 0.71757 -0.18800
F 	F 	0.09192 0.70365 0.66324 -0.32200
C 	C 	0.07646 0.21301 0.14840 -0.20000
C 	C 	0.07570 0.29994 0.14203 0.24200
C 	C 	0.17630 0.85037 0.21202 -0.19100
F 	F 	0.13595 0.29840 0.26582 -0.33000
O 	O 	0.16434 0.01609 0.05531 -0.40100
O 	O 	0.16794 0.07610 0.08228 -0.35100
O 	O 	0.14868 0.06153 0.59642 -0.36700
C 	C 	0.13527 0.23070 0.67615 -0.19700
C 	C 	0.13902 0.28225 0.63913 0.32200
F 	F 	0.11296 0.48065 0.66019 -0.31700
O 	O 	0.02326 0.90921 0.02938 -0.32500
C 	C 	0.14390 0.41261 0.67574 0.25300
C 	C 	0.13715 0.69203 0.69686 0.25300
C 	C 	0.15409 0.75319 0.73847 0.00800
F 	F 	0.13442 0.64987 0.65186 -0.32300
C 	C 	0.16161 0.35974 0.23898 0.25400
C 	C 	0.13274 0.31854 0.17801 0.00700
C 	C 	0.13566 0.23357 0.18294 0.32000
Co	Co	0.02688 0.89413 0.15231 1.20000
C 	C 	0.19936 0.06439 0.07332 0.42000
C 	C 	0.17777 0.05462 0.58096 0.42100
C 	C 	0.15975 0.46748 0.68036 0.30900
C 	C 	0.16250 0.24057 0.71894 0.32100
C 	C 	0.16074 0.33917 0.64484 0.24500
F 	F 	0.16450 0.19340 0.75510 -0.36000
F 	F 	0.16268 0.38808 0.60881 -0.29600
C 	C 	0.16504 0.71099 0.73628 0.00200
C 	C 	0.15897 0.66464 0.69100 0.30900
C 	C 	0.15979 0.37182 0.19497 -0.00100
F 	F 	0.19816 0.40043 0.29909 -0.32900
C 	C 	0.17828 0.34455 0.68763 0.00600
C 	C 	0.18109 0.29580 0.72472 0.23600
C 	C 	0.19287 0.86314 0.72645 0.33100
C 	C 	0.19144 0.41137 0.25561 0.30900
C 	C 	0.16436 0.28683 0.19730 0.23800
F 	F 	0.16318 0.19989 0.20411 -0.36100
C 	C 	0.22413 0.77658 0.23853 0.00900
C 	C 	0.00981 0.93345 0.93871 -0.03600
O 	O 	0.03401 0.82107 0.11543 -0.36600
C 	C 	0.19380 0.40114 0.69373 -0.00200
C 	C 	0.20721 0.82014 0.73579 0.24300
F 	F 	0.19870 0.30045 0.76632 -0.31500
C 	C 	0.18248 0.43462 0.16679 0.26100
C 	C 	0.21092 0.69758 0.77103 0.26100
C 	C 	0.20928 0.65654 0.72428 -0.13600
F 	F 	0.18149 0.44723 0.12430 -0.29500
H 	H 	0.01260 0.89313 0.96206 0.11400
C 	C 	0.20874 0.48514 0.18284 0.31500
N 	N 	0.21610 0.58472 0.71149 -0.10200
C 	C 	0.21760 0.47482 0.22798 -0.14000
F 	F 	0.22188 0.30674 0.23049 -0.31300
C 	C 	0.00534 0.91034 0.87871 -0.04300
H 	H 	0.00872 0.87035 0.90199 0.10900
O 	O 	0.00182 0.94475 0.25117 -0.33100
C 	C 	0.22482 0.51004 0.70417 -0.13700
F 	F 	0.99693 0.26248 0.52476 -0.31500
C 	C 	0.99680 0.01365 0.81777 -0.01500
F 	F 	0.23172 0.68181 0.31641 -0.29800
H 	H 	0.99322 0.05347 0.79416 0.08500
F 	F 	0.23179 0.54596 0.15548 -0.31100
F 	F 	0.99538 0.23277 0.09091 -0.32200
Co	Co	0.99737 0.04540 0.11027 1.18700
C 	C 	0.99993 0.98185 0.26209 0.34000
O 	O 	0.99453 0.02906 0.23187 -0.38600
C 	C 	0.24684 0.88104 0.22180 0.32800
O 	O 	0.96874 0.10900 0.14187 -0.36600
C 	C 	0.99213 0.97351 0.80249 0.00700
O 	O 	0.98900 0.96554 0.73521 -0.33800
C 	C 	0.99698 0.94481 0.39487 0.11000
C 	C 	0.75030 0.29677 0.04939 0.28300
N 	N 	0.69126 0.25383 0.06349 -0.10700
C 	C 	0.66928 0.27592 0.07326 0.28500
N 	N 	0.70611 0.34072 0.06878 -0.11100
C 	C 	0.76470 0.38392 0.05461 0.28500
N 	N 	0.78731 0.36208 0.04502 -0.10300
C 	C 	0.70667 0.32698 0.49903 0.28900
N 	N 	0.63890 0.28147 0.49881 -0.11000
C 	C 	0.60351 0.29823 0.49896 0.29600
N 	N 	0.63512 0.36117 0.49646 -0.11600
C 	C 	0.70410 0.40409 0.50315 0.28900
N 	N 	0.74009 0.38754 0.50340 -0.10000
C 	C 	0.30316 0.62989 0.24945 0.29300
N 	N 	0.36805 0.65930 0.24909 -0.10300
C 	C 	0.38433 0.62362 0.25020 0.29100
N 	N 	0.33638 0.55856 0.25347 -0.11500
C 	C 	0.27000 0.53121 0.24763 0.29600
N 	N 	0.25352 0.56646 0.24691 -0.10800
C 	C 	0.24566 0.64540 0.71362 0.29100
N 	N 	0.30886 0.69638 0.70532 -0.10900
C 	C 	0.34074 0.68776 0.69245 0.29700
N 	N 	0.30960 0.62838 0.68802 -0.11500
C 	C 	0.24891 0.57620 0.69920 0.29000
Co	Co	0.96810 0.93106 0.18697 1.20200
Co	Co	0.91681 0.01075 0.17506 1.16500
C 	C 	0.96945 0.79283 0.11092 0.42600
O 	O 	0.84460 0.98982 0.11653 -0.28100
O 	O 	0.96903 0.99763 0.15786 -0.72000
C 	C 	0.86252 0.02781 0.07858 0.34900
O 	O 	0.98296 0.86509 0.19920 -0.38700
C 	C 	0.82898 0.86639 0.19069 0.42400
O 	O 	0.90525 0.03189 0.06754 -0.33200
O 	O 	0.85877 0.91346 0.20822 -0.36900
O 	O 	0.86275 0.86952 0.17211 -0.35900
O 	O 	0.95248 0.81779 0.12109 -0.34800
Co	Co	0.93583 0.94766 0.67160 1.20800
Co	Co	0.98534 0.89483 0.64318 1.20200
Co	Co	0.93792 0.06157 0.67025 1.17900
C 	C 	0.93175 0.78934 0.60662 0.41900
O 	O 	0.95193 0.13790 0.61405 -0.36500
O 	O 	0.95886 0.02427 0.64689 -0.77600
C 	C 	0.92755 0.12980 0.57403 0.42400
O 	O 	0.93344 0.87032 0.68314 -0.39200
C 	C 	0.80675 0.93365 0.65793 0.40200
O 	O 	0.97137 0.97535 0.61327 -0.52700
O 	O 	0.94131 0.10234 0.56372 -0.33800
O 	O 	0.99818 0.91205 0.52562 -0.33600
O 	O 	0.83813 0.99731 0.64152 -0.30000
O 	O 	0.83289 0.90409 0.66455 -0.31700
C 	C 	0.96816 0.97740 0.75404 0.29700
O 	O 	0.92377 0.99099 0.72997 -0.32700
O 	O 	0.99633 0.81584 0.61333 -0.36100
O 	O 	0.91407 0.81374 0.61666 -0.32600
C 	C 	0.99815 0.92291 0.83341 0.03900
H 	H 	0.99449 0.89158 0.82227 0.08700
C 	C 	0.99114 0.93108 0.43712 -0.03000
C 	C 	0.98434 0.89765 0.38217 -0.04000
C 	C 	0.98873 0.91088 0.33978 0.04200
H 	H 	0.97659 0.88367 0.45985 0.10400
H 	H 	0.97023 0.85035 0.40488 0.11500
H 	H 	0.97670 0.87316 0.33021 0.09700
C 	C 	0.25791 0.44253 0.71878 0.25600
C 	C 	0.27227 0.49501 0.72539 0.30500
F 	F 	0.33396 0.53359 0.75062 -0.32000
F 	F 	0.30693 0.43273 0.73591 -0.30100
C 	C 	0.49620 0.80965 0.64613 0.25800
C 	C 	0.54464 0.80340 0.68364 0.00200
C 	C 	0.52849 0.76836 0.72532 0.25800
C 	C 	0.46316 0.73670 0.72904 0.31500
C 	C 	0.41293 0.73845 0.69099 -0.14000
C 	C 	0.43047 0.77708 0.64979 0.31200
C 	C 	0.61243 0.83394 0.67937 0.01300
F 	F 	0.57539 0.76308 0.76196 -0.30600
F 	F 	0.38262 0.78003 0.61291 -0.32100
C 	C 	0.67092 0.88791 0.69713 0.24500
C 	C 	0.73499 0.91774 0.69248 0.32600
C 	C 	0.74115 0.89488 0.66908 -0.19200
C 	C 	0.68293 0.83965 0.65238 0.33500
C 	C 	0.61876 0.80906 0.65770 0.24500
F 	F 	0.66542 0.91208 0.71832 -0.30400
F 	F 	0.68807 0.81705 0.62971 -0.33500
F 	F 	0.79121 0.96987 0.70997 -0.37000
F 	F 	0.56263 0.75580 0.64137 -0.30400
F 	F 	0.51232 0.84590 0.60599 -0.29800
F 	F 	0.44700 0.70027 0.76917 -0.31200
C 	C 	0.23332 0.67090 0.76493 0.31100
F 	F 	0.23626 0.71326 0.80993 -0.29500
F 	F 	0.24398 0.92812 0.72198 -0.30300
F 	F 	0.27167 0.84415 0.73911 -0.29700
F 	F 	0.28074 0.66181 0.79778 -0.31500
C 	C 	0.50303 0.66412 0.19685 0.25900
C 	C 	0.56698 0.71097 0.21831 -0.00100
C 	C 	0.57083 0.73160 0.24893 0.25500
C 	C 	0.51111 0.70412 0.25885 0.31000
C 	C 	0.44711 0.65675 0.23761 -0.13800
C 	C 	0.44336 0.63821 0.20566 0.30900
C 	C 	0.62979 0.73985 0.20776 0.01000
F 	F 	0.63245 0.77822 0.26903 -0.31800
F 	F 	0.38168 0.59525 0.18297 -0.32000
C 	C 	0.64234 0.78039 0.16554 0.24300
C 	C 	0.70563 0.81447 0.15742 0.32800
C 	C 	0.75777 0.81073 0.19196 -0.20800
C 	C 	0.74262 0.76475 0.23253 0.32900
C 	C 	0.67869 0.72924 0.24038 0.23900
F 	F 	0.59457 0.78939 0.13320 -0.29400
F 	F 	0.79181 0.75857 0.26557 -0.35700
F 	F 	0.71836 0.85557 0.11708 -0.33200
F 	F 	0.66535 0.68682 0.28035 -0.31100
F 	F 	0.49877 0.64374 0.16734 -0.30100
F 	F 	0.51554 0.72257 0.28966 -0.32600
C 	C 	0.26483 0.75207 0.20591 0.25400
C 	C 	0.24678 0.74043 0.24212 0.00200
C 	C 	0.24839 0.69302 0.28106 0.26000
C 	C 	0.26704 0.65697 0.28353 0.31200
C 	C 	0.28500 0.66865 0.24729 -0.13900
C 	C 	0.28424 0.71660 0.20860 0.31300
F 	F 	0.30102 0.72789 0.17327 -0.32000
C 	C 	0.27066 0.84424 0.23513 0.24700
F 	F 	0.29189 0.94691 0.21623 -0.29900
F 	F 	0.33858 0.87475 0.24253 -0.29700
F 	F 	0.26249 0.79707 0.16787 -0.31800
F 	F 	0.26796 0.61091 0.32118 -0.32000
C 	C 	0.89966 0.25917 0.50708 0.24700
C 	C 	0.83143 0.22325 0.50813 0.01000
C 	C 	0.79111 0.15457 0.51963 0.23800
C 	C 	0.82091 0.12245 0.53480 0.31900
C 	C 	0.89147 0.15876 0.53963 -0.20000
C 	C 	0.92949 0.22696 0.52259 0.33200
C 	C 	0.80512 0.25709 0.50311 0.00100
F 	F 	0.72428 0.11909 0.51904 -0.31700
C 	C 	0.75354 0.25804 0.46599 0.25900
C 	C 	0.72332 0.28348 0.46377 0.30800
C 	C 	0.74477 0.30862 0.49852 -0.13700
C 	C 	0.79839 0.31021 0.53474 0.31200
C 	C 	0.82826 0.28435 0.53710 0.25300
F 	F 	0.73179 0.23314 0.43251 -0.30400
F 	F 	0.81948 0.33415 0.56859 -0.32000
F 	F 	0.67252 0.28291 0.42814 -0.32400
F 	F 	0.87807 0.28369 0.57317 -0.31000
F 	F 	0.93818 0.32546 0.49363 -0.29500
F 	F 	0.78264 0.05622 0.54889 -0.36400
C 	C 	0.81527 0.57589 0.51603 0.25600
C 	C 	0.79038 0.56491 0.54826 -0.00000
C 	C 	0.74072 0.50085 0.56734 0.25800
C 	C 	0.71708 0.44820 0.55514 0.30900
C 	C 	0.73937 0.45904 0.52147 -0.13600
C 	C 	0.78921 0.52311 0.50229 0.31000
C 	C 	0.81998 0.61973 0.56465 0.00800
F 	F 	0.71572 0.48965 0.59810 -0.30200
F 	F 	0.81134 0.53437 0.46984 -0.32600
C 	C 	0.81010 0.66881 0.53663 0.23900
C 	C 	0.84044 0.72176 0.55206 0.31900
C 	C 	0.88007 0.72548 0.59571 -0.19700
C 	C 	0.88411 0.67313 0.62473 0.33100
C 	C 	0.85604 0.62157 0.60901 0.24500
F 	F 	0.77246 0.66593 0.49427 -0.31400
F 	F 	0.91943 0.67453 0.66754 -0.31100
F 	F 	0.83506 0.77146 0.52381 -0.35900
F 	F 	0.86554 0.57423 0.63658 -0.29400
F 	F 	0.86472 0.63753 0.49819 -0.32100
F 	F 	0.67170 0.38632 0.57572 -0.32100
C 	C 	0.34629 0.19461 0.55198 0.24000
C 	C 	0.37489 0.16142 0.56638 0.00800
C 	C 	0.34625 0.09895 0.59532 0.23600
C 	C 	0.28635 0.06777 0.60659 0.32300
C 	C 	0.25232 0.09711 0.58708 -0.20900
C 	C 	0.28489 0.16235 0.56216 0.32700
C 	C 	0.43197 0.19014 0.54910 -0.00300
F 	F 	0.37403 0.06674 0.61025 -0.31300
F 	F 	0.25415 0.19247 0.54465 -0.35000
C 	C 	0.49472 0.20319 0.57835 0.25900
C 	C 	0.54845 0.22987 0.56205 0.31300
C 	C 	0.54155 0.24772 0.51613 -0.14300
C 	C 	0.47779 0.23145 0.48709 0.30800
C 	C 	0.42286 0.20194 0.50356 0.25000
F 	F 	0.50427 0.19193 0.62241 -0.29600
F 	F 	0.47006 0.24722 0.44271 -0.32900
F 	F 	0.60942 0.24371 0.59056 -0.31700
F 	F 	0.36119 0.18592 0.47524 -0.32700
F 	F 	0.37622 0.25687 0.52646 -0.30700
F 	F 	0.25740 0.00605 0.63276 -0.36100
C 	C 	0.86685 0.17840 0.01971 0.25900
C 	C 	0.80744 0.15533 0.02770 0.00500
C 	C 	0.75801 0.08764 0.04005 0.24700
C 	C 	0.77171 0.04402 0.04969 0.27500
C 	C 	0.83631 0.06788 0.04920 -0.17100
C 	C 	0.88159 0.13485 0.03074 0.31600
C 	C 	0.80114 0.20152 0.02902 -0.01300
F 	F 	0.69842 0.06429 0.04529 -0.32300
F 	F 	0.94220 0.15852 0.02688 -0.35200
C 	C 	0.75182 0.21176 0.99659 0.28600
C 	C 	0.73806 0.24658 0.00184 0.28500
C 	C 	0.77408 0.27215 0.03930 -0.12800
C 	C 	0.82613 0.26521 0.07036 0.30200
C 	C 	0.83923 0.22960 0.06548 0.26000
F 	F 	0.71554 0.18596 0.96081 -0.30300
F 	F 	0.86153 0.28995 0.10657 -0.32400
F 	F 	0.68815 0.25362 0.97129 -0.30700
F 	F 	0.88631 0.21933 0.09742 -0.31500
F 	F 	0.91210 0.24332 0.00371 -0.29500
F 	F 	0.72429 0.97877 0.06293 -0.28200
C 	C 	0.88902 0.54637 0.08237 0.25600
C 	C 	0.84729 0.56797 0.06192 -0.00500
C 	C 	0.78554 0.53602 0.03130 0.25700
C 	C 	0.76390 0.48087 0.02329 0.29500
C 	C 	0.80126 0.45434 0.04799 -0.13300
C 	C 	0.86574 0.48934 0.07577 0.30700
C 	C 	0.86720 0.62274 0.07355 0.01200
F 	F 	0.74484 0.55643 0.01095 -0.30800
F 	F 	0.90364 0.46568 0.09874 -0.32000
C 	C 	0.87783 0.68002 0.04078 0.22800
C 	C 	0.89999 0.73280 0.05226 0.32000
C 	C 	0.91699 0.73096 0.09699 -0.20100
C 	C 	0.90078 0.67186 0.12916 0.33600
C 	C 	0.87542 0.61773 0.11744 0.24200
F 	F 	0.86910 0.68545 0.99810 -0.31500
F 	F 	0.91360 0.66813 0.17223 -0.31900
F 	F 	0.90874 0.78727 0.02016 -0.37900
F 	F 	0.86066 0.56109 0.14892 -0.29800
F 	F 	0.95095 0.57928 0.10981 -0.30900
F 	F 	0.70327 0.44956 0.99439 -0.31700
C 	C 	0.37097 0.17572 0.04842 0.23500
C 	C 	0.40727 0.15626 0.08879 0.00800
C 	C 	0.37888 0.11724 0.12612 0.24000
C 	C 	0.31343 0.09514 0.12237 0.32300
C 	C 	0.27404 0.10789 0.08077 -0.21400
C 	C 	0.30418 0.15076 0.04426 0.33100
C 	C 	0.47432 0.17590 0.09166 -0.00300
F 	F 	0.41364 0.09877 0.16553 -0.29900
F 	F 	0.26743 0.16548 0.00421 -0.35500
C 	C 	0.53367 0.21648 0.11947 0.25600
C 	C 	0.59788 0.24200 0.11782 0.30500
C 	C 	0.60369 0.23067 0.08634 -0.13800
C 	C 	0.54412 0.18561 0.06124 0.30600
C 	C 	0.47966 0.15758 0.06441 0.25400
F 	F 	0.52932 0.23375 0.14652 -0.30200
F 	F 	0.54859 0.17215 0.03179 -0.32500
F 	F 	0.65493 0.28124 0.14489 -0.32600
F 	F 	0.42237 0.11482 0.03959 -0.32200
F 	F 	0.39969 0.21715 0.01289 -0.31000
F 	F 	0.28679 0.05837 0.15871 -0.35600
