data_crystal

_cell_length_a 18.20753
_cell_length_b 15.61308
_cell_length_c 47.86880
_cell_angle_alpha 90.79022
_cell_angle_beta  91.10561
_cell_angle_gamma 110.93039

_symmetry_space_group_name_	'P 1'
_symmetry_space_group_name_H-M	'P 1'

loop_
_symmetry_equiv_pos_as_xyz
  x,y,z

loop_
_atom_site_label
_atom_site_type_symbol
_atom_site_fract_x
_atom_site_fract_y
_atom_site_fract_z
_atom_site_charge
Ni	Ni	0.14753 0.04313 0.75373 1.09800
O 	O 	0.06050 0.03723 0.72540 -0.70500
O 	O 	0.22386 0.15708 0.73517 -0.36800
O 	O 	0.20464 0.07767 0.69349 -0.41200
O 	O 	0.10349 0.12325 0.77749 -0.38300
Ni	Ni	0.08301 0.02582 0.68619 1.06300
O 	O 	0.17287 0.90967 0.80283 -0.41000
O 	O 	0.08354 0.89565 0.68769 -0.40100
O 	O 	0.06536 0.92001 0.76132 -0.69600
O 	O 	0.23111 0.05429 0.78455 -0.37800
Ni	Ni	0.05943 0.90369 0.80166 1.07500
H 	H 	0.04502 0.09152 0.72778 0.15100
H 	H 	0.08388 0.87295 0.75317 0.15700
C 	C 	0.01762 0.82624 0.69083 0.28000
O 	O 	0.09102 0.03587 0.81594 -0.40000
C 	C 	0.24076 0.15294 0.70865 0.27000
C 	C 	0.07335 0.09805 0.80210 0.29100
C 	C 	0.23429 0.98657 0.80037 0.29600
Ni	Ni	0.38950 0.80997 0.40360 1.09800
O 	O 	0.34218 0.68167 0.38621 -0.70500
Ni	Ni	0.24264 0.68607 0.36922 1.10200
O 	O 	0.40199 0.65990 0.44206 -0.41100
Ni	Ni	0.31693 0.58385 0.41280 1.06600
O 	O 	0.24293 0.63139 0.43387 -0.41900
O 	O 	0.21008 0.56248 0.34919 -0.37400
O 	O 	0.28234 0.80667 0.39207 -0.70200
O 	O 	0.15665 0.71503 0.34720 -0.36600
O 	O 	0.23940 0.85937 0.33705 -0.40900
Ni	Ni	0.29661 0.92316 0.37388 1.07000
H 	H 	0.37558 0.67101 0.37148 0.15600
H 	H 	0.25095 0.80211 0.40900 0.15500
C 	C 	0.17111 0.61392 0.42456 0.29000
C 	C 	0.21824 0.49187 0.36201 0.27400
C 	C 	0.16782 0.79713 0.33762 0.27200
O 	O 	0.15746 0.62530 0.39803 -0.37100
O 	O 	0.22587 0.49249 0.38968 -0.40900
Ni	Ni	0.32807 0.61868 0.10390 1.09800
O 	O 	0.23809 0.59762 0.07470 -0.69800
Ni	Ni	0.17607 0.66550 0.09393 1.09700
O 	O 	0.25871 0.41667 0.06914 -0.40300
O 	O 	0.40506 0.71168 0.07818 -0.37500
Ni	Ni	0.16853 0.46858 0.07011 1.06600
O 	O 	0.16245 0.45682 0.11240 -0.41400
O 	O 	0.08710 0.63926 0.06482 -0.38300
O 	O 	0.26951 0.69203 0.12126 -0.70600
O 	O 	0.13408 0.75307 0.11519 -0.36700
O 	O 	0.25046 0.87213 0.11276 -0.40100
Ni	Ni	0.33987 0.82123 0.11980 1.06700
H 	H 	0.25615 0.62416 0.05631 0.14800
H 	H 	0.25392 0.67288 0.14056 0.15600
C 	C 	0.11669 0.48876 0.12674 0.28400
O 	O 	0.34985 0.82129 0.07752 -0.41100
C 	C 	0.33251 0.46975 0.06650 0.27900
C 	C 	0.05428 0.55608 0.05412 0.27700
C 	C 	0.38713 0.77471 0.06486 0.28400
C 	C 	0.18106 0.83520 0.12372 0.27900
O 	O 	0.10383 0.56316 0.11884 -0.36500
O 	O 	0.06327 0.48638 0.06692 -0.41200
Ni	Ni	0.00953 0.09874 0.24273 1.10400
O 	O 	0.08635 0.09286 0.21324 -0.36700
O 	O 	0.10217 0.17596 0.26845 -0.36400
O 	O 	0.04684 0.08823 0.30491 -0.41700
C 	C 	0.05803 0.06755 0.18757 0.27800
C 	C 	0.10047 0.16183 0.29544 0.29000
O 	O 	0.00222 0.09477 0.17709 -0.40000
C 	C 	0.06556 0.42973 0.14775 -0.07000
C 	C 	0.07802 0.45532 0.17613 -0.02500
C 	C 	0.03695 0.39438 0.19660 0.04100
C 	C 	0.98376 0.30621 0.18860 -0.07900
C 	C 	0.96554 0.28487 0.16014 -0.01100
C 	C 	0.00652 0.34546 0.13973 0.03500
S 	S 	0.98375 0.31440 0.10425 -0.06200
H 	H 	0.92698 0.34668 0.09504 0.04900
H 	H 	0.12083 0.52171 0.18233 0.03600
H 	H 	0.92279 0.21859 0.15381 0.02200
C 	C 	0.08900 0.00908 0.17056 -0.09000
C 	C 	0.16881 0.02066 0.17337 -0.02500
C 	C 	0.19851 0.96108 0.15952 0.04700
C 	C 	0.14944 0.89344 0.14062 -0.07800
C 	C 	0.06958 0.88176 0.13779 -0.02600
C 	C 	0.03842 0.93635 0.15346 0.04900
S 	S 	0.29472 0.96653 0.16807 -0.09900
H 	H 	0.29225 0.90885 0.18964 0.02700
H 	H 	0.20738 0.07429 0.18715 0.05500
H 	H 	0.03114 0.82878 0.12381 0.05600
C 	C 	0.19091 0.40332 0.34714 -0.07100
C 	C 	0.24045 0.38296 0.32821 -0.03800
C 	C 	0.21304 0.30176 0.31208 0.05000
C 	C 	0.13484 0.24094 0.31467 -0.10800
C 	C 	0.08661 0.25986 0.33452 -0.01000
C 	C 	0.11388 0.34083 0.35052 0.02800
S 	S 	0.27778 0.27567 0.28952 -0.04700
S 	S 	0.04965 0.36533 0.37375 -0.04000
H 	H 	0.05956 0.33570 0.39988 0.03600
H 	H 	0.27291 0.31019 0.26367 0.05000
H 	H 	0.30013 0.43063 0.32589 0.03200
H 	H 	0.02659 0.21312 0.33673 -0.04100
C 	C 	0.97095 0.85621 0.30352 -0.08100
C 	C 	0.96568 0.81453 0.32957 -0.01500
C 	C 	0.03003 0.79704 0.34121 0.03000
C 	C 	0.09994 0.81739 0.32608 -0.07900
C 	C 	0.10393 0.85436 0.29943 -0.02800
C 	C 	0.04026 0.87387 0.28805 0.04900
S 	S 	0.02417 0.75640 0.37558 -0.07100
S 	S 	0.04944 0.92235 0.25483 -0.10900
H 	H 	0.99734 0.66244 0.37483 0.05400
H 	H 	0.91290 0.80058 0.34157 0.04600
H 	H 	0.15685 0.86837 0.28751 0.05000
H 	H 	0.32496 0.04170 0.46696 0.03200
C 	C 	0.10460 0.56711 0.44278 -0.07600
C 	C 	0.02826 0.52543 0.43119 -0.00000
C 	C 	0.96645 0.47458 0.44787 -0.05600
C 	C 	0.97966 0.46626 0.47649 0.01800
C 	C 	0.05609 0.50776 0.48834 0.00500
C 	C 	0.11828 0.55794 0.47144 -0.02300
H 	H 	0.01686 0.53140 0.40915 0.04300
H 	H 	0.90798 0.44287 0.43859 0.04200
H 	H 	0.17691 0.59024 0.48057 0.04200
H 	H 	0.52892 0.46638 0.48487 0.03900
H 	H 	0.51027 0.56545 0.44857 0.02100
C 	C 	0.38633 0.24166 0.70891 0.04000
C 	C 	0.31030 0.22427 0.69727 -0.07600
C 	C 	0.30250 0.26210 0.67148 -0.02600
C 	C 	0.36880 0.30556 0.65561 0.03800
S 	S 	0.39954 0.20513 0.74262 -0.04600
S 	S 	0.35664 0.34628 0.62236 -0.02800
H 	H 	0.40393 0.27263 0.76187 0.04400
H 	H 	0.24441 0.25239 0.66294 0.02200
S 	S 	0.12488 0.74858 0.65657 -0.03600
H 	H 	0.13783 0.69456 0.67698 0.03600
C 	C 	0.94328 0.58565 0.02997 0.01100
C 	C 	0.99596 0.53841 0.03105 -0.07800
C 	C 	0.99270 0.47338 0.01010 -0.01400
H 	H 	0.94511 0.63553 0.04618 0.04200
H 	H 	0.03373 0.43728 0.01088 0.00800
C 	C 	0.41519 0.79924 0.03647 -0.07800
C 	C 	0.36173 0.80024 0.01510 0.00500
C 	C 	0.38880 0.83639 0.98913 -0.05900
H 	H 	0.29916 0.77492 0.01886 0.01800
H 	H 	0.34682 0.83829 0.97300 0.04400
C 	C 	0.44411 0.52612 0.03404 0.00000
H 	H 	0.53540 0.57030 0.00396 0.04200
H 	H 	0.46369 0.59217 0.04486 0.04300
C 	C 	0.38332 0.00048 0.85830 -0.03700
C 	C 	0.31098 0.97894 0.84402 0.04900
C 	C 	0.30909 0.99734 0.81527 -0.07400
C 	C 	0.38014 0.03618 0.80132 -0.02600
S 	S 	0.22379 0.93595 0.86299 -0.06000
H 	H 	0.20370 0.00766 0.87245 0.03500
H 	H 	0.38425 0.98467 0.88026 0.06000
H 	H 	0.37908 0.04719 0.77906 0.04400
Ni	Ni	0.60755 0.20970 0.91046 1.09900
O 	O 	0.62009 0.29754 0.87765 -0.69900
Ni	Ni	0.72676 0.30325 0.86476 1.09600
O 	O 	0.51756 0.23553 0.92942 -0.37000
O 	O 	0.52924 0.37622 0.91342 -0.40400
O 	O 	0.52275 0.10579 0.88861 -0.37400
Ni	Ni	0.63201 0.42177 0.89086 1.06700
O 	O 	0.60710 0.00980 0.90892 -0.40400
O 	O 	0.70100 0.41122 0.92380 -0.42300
O 	O 	0.74522 0.40438 0.83610 -0.38500
O 	O 	0.70645 0.20615 0.89456 -0.71100
O 	O 	0.60256 0.11892 0.94098 -0.37900
O 	O 	0.82654 0.28153 0.85283 -0.36500
O 	O 	0.76009 0.12759 0.84612 -0.40900
Ni	Ni	0.68359 0.08233 0.87921 1.06400
H 	H 	0.57914 0.27467 0.86267 0.15800
H 	H 	0.74889 0.22102 0.90906 0.15300
C 	C 	0.77058 0.40552 0.91980 0.26500
O 	O 	0.59384 0.08158 0.85281 -0.40700
C 	C 	0.51672 0.31824 0.93403 0.28700
C 	C 	0.74063 0.48379 0.84344 0.28600
C 	C 	0.52771 0.08535 0.86220 0.28200
C 	C 	0.82692 0.19830 0.84818 0.27200
C 	C 	0.60540 0.03727 0.93521 0.27100
O 	O 	0.79430 0.39798 0.89424 -0.36600
O 	O 	0.72820 0.49971 0.86967 -0.40600
Ni	Ni	0.62152 0.41444 0.60432 1.10100
O 	O 	0.69755 0.41209 0.57323 -0.69400
Ni	Ni	0.76507 0.35230 0.59284 1.09800
O 	O 	0.58724 0.51533 0.58733 -0.36200
O 	O 	0.71170 0.59994 0.57669 -0.41900
O 	O 	0.52977 0.31888 0.58209 -0.37200
Ni	Ni	0.76512 0.52346 0.55556 1.07300
O 	O 	0.50574 0.24577 0.63236 -0.40500
O 	O 	0.86268 0.56297 0.58164 -0.40000
O 	O 	0.85693 0.37519 0.56555 -0.37100
O 	O 	0.67845 0.33853 0.62110 -0.70200
O 	O 	0.54622 0.40290 0.63608 -0.37200
O 	O 	0.80711 0.26867 0.61594 -0.36300
O 	O 	0.68610 0.15382 0.61560 -0.40900
Ni	Ni	0.60285 0.21376 0.62347 1.06500
H 	H 	0.66866 0.37012 0.55784 0.15000
H 	H 	0.70010 0.36307 0.63989 0.15800
C 	C 	0.85888 0.54684 0.60845 0.29800
O 	O 	0.57576 0.20070 0.58182 -0.41300
C 	C 	0.63620 0.57883 0.57210 0.28200
C 	C 	0.86067 0.41357 0.54076 0.28800
C 	C 	0.53504 0.24533 0.56999 0.28500
C 	C 	0.75948 0.18914 0.62504 0.27200
C 	C 	0.50682 0.32092 0.64594 0.27400
O 	O 	0.83211 0.46228 0.61732 -0.38100
O 	O 	0.80556 0.44341 0.53176 -0.42600
Ni	Ni	0.97227 0.92637 0.73760 1.10300
O 	O 	0.88800 0.93979 0.71095 -0.37100
O 	O 	0.88612 0.82766 0.75892 -0.36200
O 	O 	0.94124 0.88647 0.80133 -0.40900
C 	C 	0.90922 0.98282 0.68704 0.28000
C 	C 	0.89057 0.82002 0.78617 0.28400
O 	O 	0.97843 0.81864 0.71391 -0.36600
O 	O 	0.96788 0.97401 0.67280 -0.40600
O 	O 	0.48473 0.78229 0.41891 -0.37300
O 	O 	0.43883 0.84394 0.36571 -0.40600
O 	O 	0.33764 0.99566 0.41018 -0.41500
O 	O 	0.44049 0.94343 0.41743 -0.39000
O 	O 	0.40707 0.97028 0.35678 -0.39100
C 	C 	0.47384 0.71284 0.43574 0.26900
C 	C 	0.45676 0.92611 0.35573 0.30900
C 	C 	0.40113 0.99672 0.42449 0.29200
O 	O 	0.36990 0.52422 0.08727 -0.36500
O 	O 	0.44474 0.80340 0.12655 -0.40200
O 	O 	0.41543 0.65023 0.13368 -0.37600
C 	C 	0.45333 0.73647 0.14131 0.28000
Ni	Ni	0.83539 0.98374 0.25577 1.10000
O 	O 	0.91516 0.00128 0.22513 -0.70600
O 	O 	0.75181 0.88468 0.23207 -0.36700
O 	O 	0.76726 0.98629 0.19665 -0.40500
O 	O 	0.88071 0.88923 0.27083 -0.37500
Ni	Ni	0.88781 0.04106 0.18948 1.07100
O 	O 	0.82485 0.09120 0.31560 -0.40600
O 	O 	0.89153 0.16442 0.20521 -0.41600
O 	O 	0.92240 0.09885 0.26948 -0.69300
O 	O 	0.75956 0.96095 0.28851 -0.36800
Ni	Ni	0.93463 0.08885 0.30999 1.07600
H 	H 	0.92583 0.94421 0.22182 0.17000
H 	H 	0.90602 0.15171 0.26575 0.15800
C 	C 	0.95936 0.23125 0.20891 0.30300
O 	O 	0.89532 0.95081 0.31448 -0.39300
C 	C 	0.73226 0.90384 0.20689 0.27300
C 	C 	0.91253 0.89900 0.29604 0.29600
C 	C 	0.75907 0.02491 0.30693 0.27800
O 	O 	0.01286 0.22122 0.22603 -0.36800
S 	S 	0.05036 0.43039 0.23195 -0.03700
H 	H 	0.99663 0.46998 0.23854 0.04000
C 	C 	0.65973 0.84184 0.19298 -0.07300
C 	C 	0.66412 0.80609 0.16630 -0.02800
C 	C 	0.59586 0.76480 0.14982 0.04200
C 	C 	0.52222 0.75841 0.16020 -0.07400
C 	C 	0.51718 0.78715 0.18771 -0.03000
C 	C 	0.58544 0.82928 0.20412 0.04100
S 	S 	0.60366 0.72505 0.11579 -0.03000
S 	S 	0.57725 0.87075 0.23787 -0.04600
H 	H 	0.57269 0.80478 0.25703 0.04600
H 	H 	0.59478 0.63419 0.11650 0.04500
H 	H 	0.72103 0.81422 0.15787 0.03100
H 	H 	0.46039 0.78099 0.19586 0.02800
S 	S 	0.93548 0.90710 0.15339 -0.13600
H 	H 	0.91337 0.95408 0.13291 0.02700
C 	C 	0.53542 0.97078 0.34416 -0.08200
C 	C 	0.60172 0.98024 0.36111 -0.01300
C 	C 	0.67577 0.00087 0.34941 0.03300
C 	C 	0.68457 0.01580 0.32046 -0.06900
C 	C 	0.61945 0.01360 0.30388 -0.03500
C 	C 	0.54479 0.98992 0.31546 0.04700
S 	S 	0.75555 0.00140 0.37093 -0.05900
S 	S 	0.46327 0.98012 0.29355 -0.04000
H 	H 	0.43119 0.89213 0.28304 0.03600
H 	H 	0.76000 0.91562 0.37052 0.04600
H 	H 	0.59485 0.96657 0.38325 0.04900
H 	H 	0.62648 0.02782 0.28180 0.04000
H 	H 	0.02387 0.85406 0.23475 0.04400
C 	C 	0.43506 0.06736 0.44639 -0.08200
C 	C 	0.51660 0.11562 0.44765 0.00900
C 	C 	0.55201 0.16806 0.47139 -0.06100
C 	C 	0.50627 0.17245 0.49420 0.01200
C 	C 	0.42348 0.12963 0.49223 0.01100
C 	C 	0.38812 0.07793 0.46812 -0.02100
C 	C 	0.37779 0.13463 0.51506 -0.06100
C 	C 	0.41434 0.17678 0.54019 0.00900
C 	C 	0.49664 0.21396 0.54268 -0.08000
C 	C 	0.54238 0.21454 0.51944 -0.02000
H 	H 	0.55291 0.10969 0.43059 0.03600
H 	H 	0.61532 0.20260 0.47241 0.04100
H 	H 	0.31422 0.10360 0.51365 0.04000
H 	H 	0.37877 0.17761 0.55801 0.03100
H 	H 	0.60601 0.24471 0.52133 0.02400
C 	C 	0.06866 0.50119 0.51716 -0.05400
C 	C 	0.00480 0.46050 0.53437 -0.00400
C 	C 	0.92807 0.42511 0.52287 -0.06600
C 	C 	0.91661 0.42189 0.49372 -0.02500
H 	H 	0.12733 0.53106 0.52641 0.04200
H 	H 	0.01446 0.46199 0.55681 0.04200
H 	H 	0.85758 0.39147 0.48472 0.04000
C 	C 	0.60991 0.59172 0.54384 -0.10300
C 	C 	0.57532 0.51504 0.52601 -0.00800
C 	C 	0.55603 0.52634 0.49832 -0.06200
C 	C 	0.56921 0.61440 0.48830 0.01200
C 	C 	0.60547 0.69209 0.50594 0.00900
C 	C 	0.62703 0.68038 0.53358 -0.01900
C 	C 	0.61529 0.77982 0.49616 -0.05600
C 	C 	0.58140 0.78917 0.47040 0.00500
C 	C 	0.53863 0.71097 0.45413 -0.07100
C 	C 	0.54032 0.62532 0.46178 -0.02200
H 	H 	0.56448 0.44656 0.53354 0.02100
H 	H 	0.65546 0.73967 0.54719 0.03600
H 	H 	0.64496 0.84022 0.50915 0.04400
H 	H 	0.58271 0.85623 0.46426 0.04000
C 	C 	0.85824 0.02568 0.67337 -0.09600
C 	C 	0.82860 0.99677 0.64620 -0.00600
C 	C 	0.79657 0.04973 0.63009 0.02700
C 	C 	0.79236 0.13167 0.64148 -0.07400
C 	C 	0.81843 0.15813 0.66909 -0.03500
C 	C 	0.85146 0.10584 0.68502 0.03900
S 	S 	0.76605 0.01523 0.59527 -0.04700
S 	S 	0.88693 0.14339 0.71912 -0.08300
H 	H 	0.83308 0.09246 0.73764 0.03900
H 	H 	0.68825 0.95985 0.59453 0.04300
H 	H 	0.83353 0.93503 0.63716 0.04400
H 	H 	0.81397 0.22018 0.67806 0.03600
C 	C 	0.44380 0.31160 0.66565 -0.07000
C 	C 	0.45259 0.28558 0.69303 -0.03300
H 	H 	0.34840 0.27898 0.60258 0.04200
H 	H 	0.51061 0.29333 0.70122 0.02900
C 	C 	0.98055 0.76263 0.66722 -0.05600
C 	C 	0.89877 0.73551 0.66302 -0.03300
C 	C 	0.85846 0.66342 0.64455 0.05000
C 	C 	0.90052 0.62181 0.62831 -0.09100
C 	C 	0.98273 0.65133 0.63139 0.00600
C 	C 	0.02291 0.72018 0.65118 0.01100
S 	S 	0.75492 0.62304 0.64302 -0.08400
H 	H 	0.73059 0.68248 0.62797 0.05200
H 	H 	0.86596 0.76829 0.67508 0.06100
H 	H 	0.01516 0.61902 0.61896 0.03600
C 	C 	0.82702 0.42217 0.94349 -0.07200
C 	C 	0.88096 0.37659 0.94435 -0.00100
C 	C 	0.93543 0.39283 0.96655 -0.05600
C 	C 	0.93743 0.45595 0.98796 0.00800
C 	C 	0.88393 0.50292 0.98706 0.01600
C 	C 	0.82840 0.48512 0.96494 -0.02000
C 	C 	0.88725 0.56767 0.00816 -0.06000
H 	H 	0.88056 0.32831 0.92782 0.02200
H 	H 	0.97640 0.35672 0.96700 0.03700
H 	H 	0.78740 0.52123 0.96413 0.04100
H 	H 	0.84662 0.60422 0.00766 0.04400
C 	C 	0.46983 0.87385 0.98446 0.01600
C 	C 	0.52387 0.86937 0.00550 0.01100
C 	C 	0.49606 0.83030 0.03129 -0.01600
C 	C 	0.60500 0.90939 0.00110 -0.05400
C 	C 	0.63216 0.95913 0.97692 -0.00200
C 	C 	0.57858 0.96745 0.95666 -0.06300
C 	C 	0.49765 0.92126 0.95986 -0.01800
H 	H 	0.53729 0.82859 0.04775 0.04500
H 	H 	0.64702 0.90531 0.01689 0.04200
H 	H 	0.69476 0.99425 0.97447 0.02100
H 	H 	0.45634 0.92747 0.94408 0.04800
C 	C 	0.47305 0.33235 0.95806 -0.07200
C 	C 	0.40657 0.26036 0.96705 0.00900
C 	C 	0.36648 0.27248 0.99044 -0.05900
C 	C 	0.39225 0.35674 0.00511 0.01400
C 	C 	0.45884 0.42962 0.99606 0.01200
C 	C 	0.49880 0.41707 0.97248 -0.02100
C 	C 	0.48451 0.51393 0.01072 -0.05600
C 	C 	0.37760 0.45413 0.04302 -0.07600
C 	C 	0.35210 0.36928 0.02860 -0.02300
H 	H 	0.38575 0.19503 0.95582 0.04200
H 	H 	0.31532 0.21630 0.99713 0.04200
H 	H 	0.55028 0.47253 0.96558 0.03100
H 	H 	0.30117 0.31332 0.03560 0.04100
C 	C 	0.89799 0.18844 0.83679 -0.07400
C 	C 	0.95102 0.16818 0.85471 -0.02500
C 	C 	0.01425 0.14830 0.84385 0.03300
C 	C 	0.02120 0.14213 0.81453 -0.08600
C 	C 	0.97150 0.16953 0.79683 -0.02000
C 	C 	0.91111 0.19442 0.80790 0.03800
S 	S 	0.08797 0.14093 0.86704 -0.04000
S 	S 	0.85329 0.23477 0.78553 -0.03700
H 	H 	0.78485 0.16413 0.77839 0.03700
H 	H 	0.06872 0.05220 0.87545 0.02900
H 	H 	0.94341 0.16841 0.87711 0.02600
H 	H 	0.97867 0.16945 0.77442 0.03600
C 	C 	0.45420 0.04744 0.84498 -0.07200
C 	C 	0.45231 0.06517 0.81613 0.03200
S 	S 	0.53830 0.12949 0.79871 -0.05100
H 	H 	0.54962 0.22090 0.80120 0.02400
C 	C 	0.84982 0.73061 0.79881 -0.09200
C 	C 	0.77340 0.70982 0.80848 -0.01600
C 	C 	0.73469 0.62614 0.82137 0.03400
C 	C 	0.77324 0.56285 0.82501 -0.07300
C 	C 	0.84820 0.58187 0.81402 -0.02400
C 	C 	0.88665 0.66530 0.80101 0.04400
S 	S 	0.63733 0.60033 0.83213 -0.08300
S 	S 	0.98122 0.68760 0.78786 -0.13100
H 	H 	0.97482 0.66204 0.76015 0.05600
H 	H 	0.63811 0.63032 0.85921 0.02100
H 	H 	0.74412 0.75888 0.80610 0.04100
H 	H 	0.87785 0.53322 0.81652 0.05700
