data_crystal

_cell_length_a 19.09788
_cell_length_b 26.43483
_cell_length_c 38.95995
_cell_angle_alpha 90.00023
_cell_angle_beta  76.94624
_cell_angle_gamma 90.00026

_symmetry_space_group_name_	'P 1'
_symmetry_space_group_name_H-M	'P 1'

loop_
_symmetry_equiv_pos_as_xyz
  x,y,z

loop_
_atom_site_label
_atom_site_type_symbol
_atom_site_fract_x
_atom_site_fract_y
_atom_site_fract_z
_atom_site_charge
Cu	Cu	0.51008 0.44298 0.18694 0.92900
Cu	Cu	0.64564 0.50281 0.20734 0.86900
Cu	Cu	0.52136 0.55765 0.18966 0.89600
Cu	Cu	0.37997 0.51299 0.18216 0.89400
C 	C 	0.36628 0.40276 0.20162 0.29200
O 	O 	0.49986 0.43773 0.13639 -0.36200
C 	C 	0.66497 0.60295 0.17888 0.27900
O 	O 	0.45079 0.50672 0.20893 -0.63700
O 	O 	0.58268 0.49692 0.17470 -0.64200
O 	O 	0.56598 0.39709 0.21110 -0.37100
O 	O 	0.59657 0.46036 0.24440 -0.43600
O 	O 	0.34720 0.44085 0.18371 -0.38400
O 	O 	0.45864 0.61479 0.20521 -0.38200
C 	C 	0.39632 0.62143 0.19664 0.28900
C 	C 	0.49102 0.47810 0.11806 0.28200
O 	O 	0.46368 0.51955 0.13435 -0.39600
O 	O 	0.35139 0.58329 0.19730 -0.39200
O 	O 	0.43238 0.39849 0.20625 -0.36700
C 	C 	0.58859 0.41200 0.23885 0.28900
O 	O 	0.59874 0.60684 0.17414 -0.37900
O 	O 	0.69481 0.55835 0.18077 -0.41300
H 	H 	0.43277 0.50816 0.23482 0.16400
H 	H 	0.60848 0.49801 0.14962 0.17400
Cu	Cu	0.45230 0.43293 0.80279 0.92800
Cu	Cu	0.32741 0.50173 0.78033 0.86600
Cu	Cu	0.46391 0.54661 0.79058 0.89600
Cu	Cu	0.59752 0.49170 0.79801 0.89400
C 	C 	0.58823 0.38243 0.78293 0.28800
O 	O 	0.46821 0.43340 0.85251 -0.36200
C 	C 	0.32875 0.60514 0.80260 0.28200
O 	O 	0.52169 0.48789 0.77426 -0.63800
O 	O 	0.39229 0.49412 0.81186 -0.64300
O 	O 	0.38460 0.39118 0.78321 -0.37500
O 	O 	0.36530 0.45238 0.74539 -0.43700
O 	O 	0.61549 0.41751 0.80016 -0.38500
O 	O 	0.53515 0.59500 0.76736 -0.38200
C 	C 	0.60191 0.59746 0.77136 0.29200
C 	C 	0.48729 0.47494 0.86668 0.28000
O 	O 	0.52099 0.51123 0.84644 -0.39400
O 	O 	0.63802 0.55622 0.77583 -0.39300
O 	O 	0.51822 0.37917 0.78594 -0.36000
C 	C 	0.36767 0.40438 0.75367 0.29000
O 	O 	0.39794 0.60415 0.80296 -0.37700
O 	O 	0.29099 0.56307 0.80392 -0.41800
H 	H 	0.53650 0.48458 0.74831 0.16500
H 	H 	0.36945 0.50065 0.83691 0.17400
Cu	Cu	0.94014 0.94220 0.29196 0.93500
Cu	Cu	0.80545 0.00545 0.27380 0.86800
Cu	Cu	0.94066 0.05677 0.28096 0.90000
Cu	Cu	0.07745 0.00779 0.29232 0.88900
C 	C 	0.08168 0.89938 0.27132 0.28600
O 	O 	0.95198 0.93793 0.34220 -0.35800
C 	C 	0.79711 0.10600 0.30090 0.28500
O 	O 	0.00545 0.00122 0.26652 -0.65700
O 	O 	0.87506 0.00088 0.30290 -0.64400
O 	O 	0.87865 0.89948 0.26897 -0.37300
O 	O 	0.85010 0.96328 0.23543 -0.42800
O 	O 	0.10550 0.93470 0.28985 -0.38200
O 	O 	0.00820 0.10691 0.25672 -0.38500
C 	C 	0.07840 0.10477 0.25393 0.28500
C 	C 	0.96838 0.97789 0.35885 0.29100
O 	O 	0.99659 0.01785 0.34093 -0.39200
O 	O 	0.10612 0.07797 0.27625 -0.39400
O 	O 	0.01211 0.89272 0.27400 -0.36400
C 	C 	0.86041 0.91495 0.24020 0.28700
O 	O 	0.86712 0.11072 0.28760 -0.38500
O 	O 	0.76426 0.06203 0.30148 -0.41700
H 	H 	0.02351 0.99825 0.24070 0.17100
H 	H 	0.85412 0.00628 0.32829 0.17100
Cu	Cu	0.05499 0.93612 0.66678 0.92600
Cu	Cu	0.17911 0.00345 0.69109 0.86300
Cu	Cu	0.03888 0.04826 0.68500 0.88800
Cu	Cu	0.90829 0.99320 0.67191 0.89900
C 	C 	0.92102 0.88292 0.68306 0.28800
O 	O 	0.04161 0.93939 0.61670 -0.36300
C 	C 	0.17519 0.10714 0.67008 0.28700
O 	O 	0.98222 0.98790 0.69672 -0.63000
O 	O 	0.11213 0.99861 0.66063 -0.63200
O 	O 	0.12331 0.89355 0.68545 -0.37500
O 	O 	0.14258 0.95231 0.72498 -0.43300
O 	O 	0.89315 0.91905 0.66692 -0.38200
O 	O 	0.96390 0.09307 0.70973 -0.37600
C 	C 	0.89890 0.09653 0.70348 0.28900
C 	C 	0.02039 0.98105 0.60357 0.27700
O 	O 	0.98612 0.01615 0.62478 -0.39100
O 	O 	0.86469 0.05610 0.69572 -0.39500
O 	O 	0.99086 0.88071 0.68085 -0.35500
C 	C 	0.13963 0.90482 0.71549 0.28800
O 	O 	0.10424 0.10675 0.68114 -0.38900
O 	O 	0.21370 0.06533 0.66808 -0.42200
H 	H 	0.96579 0.98151 0.72232 0.16700
H 	H 	0.13343 0.00780 0.63583 0.16200
C 	C 	0.00300 0.94991 0.45159 -0.02500
C 	C 	0.99953 0.92683 0.48422 -0.03200
C 	C 	0.99459 0.95824 0.51360 0.02500
C 	C 	0.98657 0.01071 0.51069 0.00500
C 	C 	0.99077 0.03392 0.47798 -0.06300
C 	C 	0.99641 0.00251 0.44844 0.02500
S 	S 	0.97970 0.92272 0.41743 0.04000
C 	C 	0.96264 0.97554 0.39700 -0.07100
C 	C 	0.97524 0.01711 0.41726 -0.03600
S 	S 	0.00754 0.03795 0.54551 -0.01400
C 	C 	0.02638 0.98504 0.56547 -0.06100
C 	C 	0.01611 0.94364 0.54461 -0.03500
H 	H 	0.00314 0.88611 0.48644 0.03400
H 	H 	0.98696 0.07463 0.47580 0.04800
H 	H 	0.96842 0.05610 0.41010 0.04300
H 	H 	0.02296 0.90463 0.55170 0.04800
C 	C 	0.82251 0.76575 0.73385 -0.00300
C 	C 	0.81103 0.71496 0.74359 -0.05400
C 	C 	0.74537 0.69311 0.74146 0.01500
C 	C 	0.69527 0.72044 0.72751 -0.00100
C 	C 	0.70623 0.77134 0.71803 -0.05500
C 	C 	0.77221 0.79322 0.71986 0.01600
S 	S 	0.90298 0.79171 0.71920 0.02900
C 	C 	0.87741 0.83811 0.69553 -0.07300
C 	C 	0.80297 0.83484 0.69888 -0.02400
S 	S 	0.61554 0.69260 0.74028 0.02500
C 	C 	0.64170 0.64505 0.76298 -0.07600
C 	C 	0.71562 0.65005 0.76094 -0.02000
H 	H 	0.85098 0.69363 0.75330 0.04500
H 	H 	0.66643 0.79244 0.70805 0.04400
H 	H 	0.77297 0.85956 0.68528 0.04100
H 	H 	0.74620 0.62454 0.77369 0.04000
C 	C 	0.68983 0.27379 0.72342 -0.00300
C 	C 	0.70440 0.22441 0.71088 -0.05500
C 	C 	0.77452 0.20598 0.70726 0.01400
C 	C 	0.82743 0.23589 0.71735 -0.00200
C 	C 	0.80974 0.28206 0.73479 -0.05500
C 	C 	0.74045 0.30144 0.73702 0.01500
S 	S 	0.60834 0.29497 0.74258 0.02400
C 	C 	0.63359 0.33942 0.76786 -0.07200
C 	C 	0.70881 0.33914 0.76156 -0.02500
S 	S 	0.89270 0.19762 0.72361 0.02800
C 	C 	0.85741 0.14313 0.71357 -0.07400
C 	C 	0.79202 0.15383 0.70452 -0.02300
H 	H 	0.66171 0.20010 0.70633 0.04300
H 	H 	0.84683 0.30056 0.74807 0.04500
H 	H 	0.73933 0.36381 0.77492 0.04000
H 	H 	0.75744 0.12515 0.69732 0.03900
C 	C 	0.23601 0.24757 0.67337 -0.00200
C 	C 	0.22605 0.29346 0.69187 -0.05700
C 	C 	0.27863 0.30823 0.70971 0.01400
C 	C 	0.33625 0.27626 0.71105 -0.00300
C 	C 	0.34771 0.23121 0.69186 -0.05600
C 	C 	0.29495 0.21583 0.67414 0.01300
S 	S 	0.16940 0.21142 0.66650 0.01900
C 	C 	0.21254 0.15583 0.66226 -0.07800
C 	C 	0.28193 0.16432 0.66753 -0.02300
S 	S 	0.39896 0.30989 0.72402 0.02700
C 	C 	0.35547 0.36549 0.72896 -0.08200
C 	C 	0.28871 0.35846 0.72026 -0.02300
H 	H 	0.17948 0.31693 0.69206 0.04100
H 	H 	0.39365 0.20744 0.69243 0.04200
H 	H 	0.31659 0.13399 0.67244 0.03500
H 	H 	0.24841 0.38785 0.72243 0.02600
C 	C 	0.17264 0.77409 0.75460 -0.00200
C 	C 	0.16075 0.72803 0.77263 -0.05700
C 	C 	0.21072 0.71279 0.79202 0.01400
C 	C 	0.26739 0.74514 0.79529 -0.00200
C 	C 	0.27829 0.79171 0.77768 -0.05600
C 	C 	0.22818 0.80670 0.75838 0.01400
S 	S 	0.11051 0.80787 0.74122 0.02400
C 	C 	0.15149 0.86427 0.73918 -0.08000
C 	C 	0.21701 0.85747 0.74920 -0.02300
S 	S 	0.33240 0.70984 0.80488 0.02400
C 	C 	0.29046 0.65381 0.80752 -0.07500
C 	C 	0.22350 0.66139 0.79910 -0.02500
H 	H 	0.11631 0.70380 0.77028 0.04100
H 	H 	0.32317 0.81578 0.77956 0.04400
H 	H 	0.25553 0.88755 0.74919 0.03000
H 	H 	0.19097 0.63066 0.79284 0.03400
C 	C 	0.19828 0.80141 0.20750 -0.00100
C 	C 	0.21738 0.75463 0.19127 -0.05600
C 	C 	0.28711 0.73662 0.18958 0.01500
C 	C 	0.33453 0.76378 0.20564 -0.00200
C 	C 	0.31143 0.80650 0.22635 -0.05500
C 	C 	0.24314 0.82605 0.22634 0.01400
S 	S 	0.11415 0.81966 0.22422 0.01600
C 	C 	0.13115 0.85927 0.25480 -0.07100
C 	C 	0.20544 0.85956 0.25251 -0.02500
S 	S 	0.39805 0.72410 0.21213 0.02300
C 	C 	0.37059 0.67316 0.19334 -0.07600
C 	C 	0.30740 0.68540 0.18269 -0.02200
H 	H 	0.17815 0.73174 0.18213 0.04300
H 	H 	0.34350 0.82208 0.24347 0.04400
H 	H 	0.23092 0.88129 0.26988 0.04100
H 	H 	0.27327 0.65751 0.17423 0.03800
C 	C 	0.78678 0.71273 0.19709 0.00100
C 	C 	0.84665 0.74175 0.19944 -0.05500
C 	C 	0.84256 0.79425 0.19494 0.01500
C 	C 	0.78269 0.81573 0.18491 0.00400
C 	C 	0.72314 0.78623 0.18223 -0.05800
C 	C 	0.72700 0.73397 0.18744 0.01600
S 	S 	0.78671 0.65092 0.18974 0.00600
C 	C 	0.71048 0.64832 0.17518 -0.07000
C 	C 	0.68306 0.69776 0.17564 -0.02500
S 	S 	0.77794 0.87614 0.19691 0.00300
C 	C 	0.85169 0.87826 0.21326 -0.07400
C 	C 	0.88144 0.82948 0.21087 -0.02000
H 	H 	0.89298 0.72460 0.20649 0.04700
H 	H 	0.67599 0.80327 0.17594 0.04600
H 	H 	0.63316 0.70709 0.16832 0.04800
H 	H 	0.92212 0.81822 0.22475 0.05100
C 	C 	0.66163 0.21777 0.30625 -0.00000
C 	C 	0.61298 0.24239 0.28981 -0.05600
C 	C 	0.63251 0.28979 0.27460 0.01200
C 	C 	0.70003 0.31034 0.27433 0.00700
C 	C 	0.74873 0.28620 0.29080 -0.06000
C 	C 	0.73026 0.23807 0.30528 0.01700
S 	S 	0.66707 0.15542 0.30981 0.00700
C 	C 	0.75355 0.15158 0.31181 -0.07300
C 	C 	0.78201 0.20082 0.30843 -0.02400
S 	S 	0.69756 0.37186 0.26614 -0.00900
C 	C 	0.61239 0.37456 0.26149 -0.07800
C 	C 	0.58331 0.32558 0.26665 -0.01700
H 	H 	0.56160 0.22547 0.28922 0.04300
H 	H 	0.80066 0.30283 0.29060 0.04600
H 	H 	0.83917 0.20857 0.30296 0.04800
H 	H 	0.52950 0.31605 0.26418 0.04300
C 	C 	0.22543 0.29836 0.19678 0.00100
C 	C 	0.16075 0.27131 0.20330 -0.05600
C 	C 	0.16445 0.21840 0.20540 0.01300
C 	C 	0.23104 0.19432 0.20334 0.00200
C 	C 	0.29356 0.22230 0.20268 -0.05700
C 	C 	0.29042 0.27482 0.19842 0.01600
S 	S 	0.23295 0.35960 0.20483 0.01200
C 	C 	0.31798 0.35899 0.20975 -0.07300
C 	C 	0.34277 0.30888 0.20538 -0.02000
S 	S 	0.21510 0.13708 0.22098 0.00500
C 	C 	0.12530 0.13935 0.22957 -0.07700
C 	C 	0.10463 0.18740 0.22028 -0.02100
H 	H 	0.10949 0.29072 0.20815 0.04200
H 	H 	0.34161 0.20425 0.20721 0.04400
H 	H 	0.39682 0.29760 0.20637 0.04700
H 	H 	0.05020 0.20166 0.22829 0.04200
C 	C 	0.50287 0.50701 0.96233 0.00000
C 	C 	0.49109 0.53070 0.99528 -0.05700
C 	C 	0.48137 0.49974 0.02522 0.01500
C 	C 	0.47820 0.44696 0.02204 -0.00300
C 	C 	0.48952 0.42331 0.98913 -0.05500
C 	C 	0.49866 0.45424 0.95925 0.01400
S 	S 	0.48703 0.53290 0.92596 0.01500
C 	C 	0.47537 0.47914 0.90509 -0.07700
C 	C 	0.48422 0.43843 0.92682 -0.02200
S 	S 	0.49472 0.42116 0.05824 0.02400
C 	C 	0.50434 0.47491 0.07952 -0.07800
C 	C 	0.49453 0.51564 0.05793 -0.02300
H 	H 	0.49205 0.57153 0.99746 0.04500
H 	H 	0.48849 0.38247 0.98696 0.04500
H 	H 	0.48072 0.39913 0.91951 0.04500
H 	H 	0.49774 0.55495 0.06526 0.04100
