data_crystal

_cell_length_a 26.16782
_cell_length_b 26.52682
_cell_length_c 34.27876
_cell_angle_alpha 95.49311
_cell_angle_beta  95.49094
_cell_angle_gamma 125.81772

_symmetry_space_group_name_	'P 1'
_symmetry_space_group_name_H-M	'P 1'

loop_
_symmetry_equiv_pos_as_xyz
  x,y,z

loop_
_atom_site_label
_atom_site_type_symbol
_atom_site_fract_x
_atom_site_fract_y
_atom_site_fract_z
_atom_site_charge
C 	C 	0.92932 0.97589 0.98205 0.14100
C 	C 	0.99422 0.00836 0.97923 -0.12900
C 	C 	0.02192 0.97632 0.97837 0.15100
C 	C 	0.98490 0.91206 0.98096 -0.12100
C 	C 	0.91983 0.87922 0.98315 0.14400
C 	C 	0.89216 0.91125 0.98381 -0.09800
H 	H 	0.02283 0.05812 0.97733 0.10200
H 	H 	0.00657 0.88753 0.98092 0.11100
H 	H 	0.84177 0.88589 0.98539 0.11500
C 	C 	0.97096 0.05298 0.47229 0.12700
C 	C 	0.03474 0.08691 0.46671 -0.08400
C 	C 	0.06395 0.05665 0.46283 0.13900
C 	C 	0.02872 0.99184 0.46347 -0.11200
C 	C 	0.96540 0.95779 0.46984 0.13300
C 	C 	0.93618 0.98823 0.47386 -0.09900
H 	H 	0.06208 0.13717 0.46642 0.11300
H 	H 	0.05123 0.96833 0.46030 0.09700
H 	H 	0.88732 0.96213 0.47901 0.10600
Cu	Cu	0.60830 0.19359 0.99672 0.93100
Cu	Cu	0.66867 0.21463 0.91548 0.87500
Cu	Cu	0.62663 0.28931 0.94653 0.90300
Cu	Cu	0.60294 0.30577 0.02779 0.90700
C 	C 	0.62422 0.23453 0.08042 0.29800
O 	O 	0.51400 0.15341 0.99623 -0.36000
C 	C 	0.62502 0.26424 0.86159 0.29000
O 	O 	0.65443 0.29152 0.00133 -0.63500
O 	O 	0.59860 0.20078 0.94024 -0.64000
O 	O 	0.65142 0.15209 0.99236 -0.33300
O 	O 	0.72469 0.22766 0.96126 -0.43300
O 	O 	0.59145 0.25624 0.07071 -0.37400
O 	O 	0.65998 0.37752 0.95268 -0.35600
C 	C 	0.66986 0.41481 0.98555 0.34300
C 	C 	0.48679 0.17864 0.98214 0.33400
O 	O 	0.52238 0.23901 0.97995 -0.36400
O 	O 	0.64311 0.39226 0.01650 -0.36700
O 	O 	0.63175 0.20216 0.05301 -0.33100
C 	C 	0.70691 0.18127 0.98066 0.34000
O 	O 	0.60536 0.28374 0.88931 -0.34300
O 	O 	0.63281 0.22008 0.86593 -0.40100
H 	H 	0.70129 0.32181 0.01134 0.17400
H 	H 	0.55534 0.16924 0.92370 0.19500
Cu	Cu	0.76403 0.38348 0.45747 0.92900
Cu	Cu	0.77783 0.35370 0.54735 0.88400
Cu	Cu	0.66327 0.36004 0.50699 0.91600
Cu	Cu	0.64821 0.38722 0.42602 0.90400
C 	C 	0.71444 0.35816 0.37350 0.29700
O 	O 	0.80644 0.47683 0.45619 -0.31500
C 	C 	0.68388 0.34808 0.58649 0.30000
O 	O 	0.66431 0.33750 0.45240 -0.63900
O 	O 	0.75656 0.39716 0.51412 -0.62900
O 	O 	0.79865 0.33259 0.45978 -0.34000
O 	O 	0.84837 0.37226 0.52488 -0.41100
O 	O 	0.69273 0.39139 0.38120 -0.36500
O 	O 	0.57196 0.31793 0.49911 -0.35000
C 	C 	0.53719 0.31593 0.46757 0.34500
C 	C 	0.77965 0.50388 0.46753 0.32600
O 	O 	0.71937 0.46879 0.47166 -0.38500
O 	O 	0.56386 0.35399 0.44184 -0.37400
O 	O 	0.75509 0.36041 0.40097 -0.32900
C 	C 	0.83806 0.33913 0.49029 0.35000
O 	O 	0.66615 0.37431 0.56378 -0.35500
O 	O 	0.70135 0.31462 0.57048 -0.41200
H 	H 	0.63472 0.29148 0.44148 0.16800
H 	H 	0.78346 0.44262 0.52639 0.17200
C 	C 	0.62345 0.28056 0.82171 -0.09300
C 	C 	0.65953 0.34450 0.81656 0.14000
C 	C 	0.66102 0.35780 0.77782 -0.09000
C 	C 	0.63119 0.30896 0.74434 0.00700
C 	C 	0.59370 0.24511 0.74943 0.07200
C 	C 	0.58920 0.23164 0.78810 -0.01700
N 	N 	0.69491 0.39321 0.84839 -0.19900
H 	H 	0.68895 0.40660 0.77375 0.07600
C 	C 	0.64664 0.32546 0.70488 0.00300
N 	N 	0.56265 0.19663 0.71744 -0.19100
H 	H 	0.56042 0.18277 0.79205 0.06200
C 	C 	0.70555 0.34251 0.69628 -0.08700
C 	C 	0.72113 0.35620 0.65879 0.12900
C 	C 	0.67475 0.34769 0.62834 -0.09800
C 	C 	0.61702 0.33359 0.63747 -0.01900
C 	C 	0.60307 0.32372 0.67582 0.07800
H 	H 	0.73980 0.34605 0.71908 0.06700
N 	N 	0.78126 0.37961 0.65265 -0.19800
H 	H 	0.58221 0.32884 0.61447 0.07900
N 	N 	0.54764 0.31181 0.68433 -0.19200
H 	H 	0.81409 0.38257 0.67453 0.09800
H 	H 	0.79729 0.39873 0.62736 0.06100
H 	H 	0.51514 0.30926 0.66242 0.11900
H 	H 	0.53679 0.30616 0.71284 0.11300
H 	H 	0.53550 0.14969 0.72157 0.10700
H 	H 	0.56481 0.20479 0.68826 0.10600
H 	H 	0.70154 0.38562 0.87713 0.11100
H 	H 	0.71889 0.43999 0.84429 0.12200
C 	C 	0.63853 0.23293 0.12271 -0.09500
C 	C 	0.59019 0.20917 0.14616 0.14500
C 	C 	0.60783 0.22579 0.18787 -0.09300
C 	C 	0.67253 0.26246 0.20637 0.00700
C 	C 	0.71984 0.27766 0.18298 0.07500
C 	C 	0.70247 0.26368 0.14115 -0.01900
N 	N 	0.52702 0.16971 0.12880 -0.20200
H 	H 	0.57126 0.21131 0.20595 0.07300
C 	C 	0.69048 0.28965 0.24953 0.00500
N 	N 	0.78189 0.30670 0.20043 -0.19100
H 	H 	0.73915 0.27919 0.12305 0.06100
C 	C 	0.67920 0.25025 0.27726 -0.08900
C 	C 	0.68648 0.27143 0.31799 0.13800
C 	C 	0.70891 0.33458 0.33137 -0.09100
C 	C 	0.72360 0.37500 0.30384 -0.01700
C 	C 	0.71308 0.35281 0.26293 0.07500
H 	H 	0.66201 0.20198 0.26688 0.07600
N 	N 	0.66979 0.23037 0.34368 -0.20000
H 	H 	0.74176 0.42360 0.31420 0.07300
N 	N 	0.72370 0.39200 0.23671 -0.19100
H 	H 	0.65500 0.18448 0.33364 0.11300
H 	H 	0.66916 0.24256 0.37339 0.10200
H 	H 	0.74110 0.43871 0.24702 0.10900
H 	H 	0.71399 0.37654 0.20596 0.10100
H 	H 	0.81693 0.31970 0.18296 0.11200
H 	H 	0.79556 0.31492 0.23134 0.11300
H 	H 	0.51253 0.15113 0.09823 0.12400
H 	H 	0.49157 0.15458 0.14619 0.11600
C 	C 	0.86077 0.77944 0.44506 -0.12700
C 	C 	0.88566 0.76597 0.47715 0.00300
C 	C 	0.93188 0.81516 0.50879 0.32200
C 	C 	0.95428 0.87742 0.50772 -0.09500
C 	C 	0.93160 0.89134 0.47477 -0.07500
C 	C 	0.88371 0.84189 0.44381 0.34000
C 	C 	0.86403 0.70051 0.47723 0.01900
F 	F 	0.95649 0.80287 0.53995 -0.40300
H 	H 	0.99126 0.91530 0.53173 0.11000
F 	F 	0.86133 0.85464 0.41178 -0.42300
H 	H 	0.82452 0.74166 0.42076 0.11900
C 	C 	0.82777 0.66675 0.50527 0.30300
C 	C 	0.80439 0.60371 0.50386 -0.05900
C 	C 	0.81598 0.57332 0.47403 -0.13900
C 	C 	0.85446 0.60792 0.44694 0.37200
C 	C 	0.87843 0.67127 0.44864 -0.14700
F 	F 	0.81352 0.69444 0.53310 -0.39900
H 	H 	0.77533 0.57773 0.52514 0.09900
F 	F 	0.86593 0.57937 0.41775 -0.42700
H 	H 	0.90704 0.69725 0.42719 0.12400
C 	C 	0.89765 0.24609 0.45444 -0.14100
C 	C 	0.88447 0.20842 0.48367 0.02500
C 	C 	0.85677 0.21448 0.51521 0.28200
C 	C 	0.84318 0.25828 0.51775 -0.05100
C 	C 	0.85614 0.29583 0.48850 -0.15600
C 	C 	0.88307 0.28927 0.45665 0.38200
C 	C 	0.90249 0.16486 0.48227 0.00100
F 	F 	0.84259 0.17755 0.54323 -0.41600
H 	H 	0.82141 0.26221 0.54207 0.06400
F 	F 	0.89590 0.32524 0.42816 -0.42400
H 	H 	0.91955 0.24218 0.43020 0.13600
C 	C 	0.87419 0.11386 0.45013 0.31100
C 	C 	0.89402 0.07491 0.44802 -0.09200
C 	C 	0.94187 0.08630 0.47807 -0.06900
C 	C 	0.96783 0.13538 0.51113 0.33100
C 	C 	0.94868 0.17479 0.51298 -0.11300
F 	F 	0.82805 0.10250 0.42081 -0.41400
H 	H 	0.87358 0.03706 0.42248 0.11800
F 	F 	0.01304 0.14599 0.54087 -0.41900
H 	H 	0.97041 0.21366 0.53802 0.12800
C 	C 	0.22362 0.16571 0.43140 -0.11500
C 	C 	0.26520 0.16737 0.46148 0.00300
C 	C 	0.24035 0.13158 0.49146 0.30900
C 	C 	0.17470 0.09553 0.49178 -0.09100
C 	C 	0.13306 0.09394 0.46178 -0.07400
C 	C 	0.15772 0.12871 0.43130 0.34100
C 	C 	0.33482 0.20736 0.46198 0.02200
F 	F 	0.27991 0.13173 0.52024 -0.41600
H 	H 	0.15612 0.06896 0.51543 0.10900
F 	F 	0.11779 0.12638 0.40156 -0.41900
H 	H 	0.24243 0.19316 0.40815 0.13200
C 	C 	0.35936 0.19412 0.43117 0.28800
C 	C 	0.42561 0.23056 0.43272 -0.05200
C 	C 	0.46775 0.27968 0.46529 -0.14400
C 	C 	0.44325 0.29343 0.49585 0.38000
C 	C 	0.37702 0.25771 0.49401 -0.13800
F 	F 	0.31908 0.14519 0.40021 -0.41200
H 	H 	0.44425 0.21987 0.40898 0.08500
F 	F 	0.48363 0.34163 0.52719 -0.42900
H 	H 	0.35843 0.26867 0.51766 0.13400
C 	C 	0.71812 0.56796 0.95534 -0.13900
C 	C 	0.77185 0.61248 0.98522 0.01600
C 	C 	0.79126 0.59181 0.01555 0.29200
C 	C 	0.75719 0.52714 0.01589 -0.04600
C 	C 	0.70430 0.48265 0.98559 -0.15300
C 	C 	0.68477 0.50328 0.95530 0.37800
C 	C 	0.80844 0.68060 0.98422 -0.00400
F 	F 	0.84373 0.63433 0.04428 -0.41200
H 	H 	0.77255 0.51154 0.03932 0.08700
F 	F 	0.63301 0.46067 0.92615 -0.42500
H 	H 	0.70249 0.58355 0.93205 0.13400
C 	C 	0.83966 0.70454 0.95220 0.31000
C 	C 	0.87482 0.76916 0.95156 -0.09000
C 	C 	0.88014 0.81064 0.98320 -0.08200
C 	C 	0.84895 0.78672 0.01526 0.34700
C 	C 	0.81273 0.72187 0.01552 -0.10800
F 	F 	0.83667 0.66528 0.92204 -0.41900
H 	H 	0.89852 0.78718 0.92665 0.11800
F 	F 	0.85474 0.82644 0.04645 -0.42300
H 	H 	0.78852 0.70371 0.04022 0.13100
C 	C 	0.77134 0.09329 0.01431 -0.13400
C 	C 	0.81060 0.10243 0.98643 0.01700
C 	C 	0.81849 0.14025 0.95819 0.28500
C 	C 	0.78562 0.16687 0.95692 -0.05500
C 	C 	0.74473 0.15634 0.98405 -0.15900
C 	C 	0.73885 0.12045 0.01339 0.38400
C 	C 	0.84095 0.06994 0.98556 -0.00400
F 	F 	0.85750 0.15058 0.93164 -0.41500
H 	H 	0.79100 0.19470 0.93433 0.07900
F 	F 	0.70221 0.11231 0.04115 -0.42400
H 	H 	0.76552 0.06462 0.03645 0.13500
C 	C 	0.89098 0.08790 0.01650 0.31700
C 	C 	0.92026 0.05758 0.01509 -0.08300
C 	C 	0.89996 0.00933 0.98274 -0.08200
C 	C 	0.85030 0.99180 0.95165 0.33800
C 	C 	0.82072 0.02174 0.95321 -0.11400
F 	F 	0.91148 0.13498 0.04771 -0.41200
H 	H 	0.95846 0.07130 0.03922 0.10900
F 	F 	0.83096 0.94594 0.91986 -0.42200
H 	H 	0.78223 0.00772 0.92921 0.12500
C 	C 	0.31978 0.12845 0.94589 -0.15400
C 	C 	0.28581 0.08800 0.97204 0.03100
C 	C 	0.31644 0.07229 0.99865 0.27900
C 	C 	0.38147 0.09954 0.00051 -0.03100
C 	C 	0.41643 0.14252 0.97571 -0.15600
C 	C 	0.38474 0.15542 0.94752 0.37900
C 	C 	0.21863 0.06326 0.97219 -0.00900
F 	F 	0.28343 0.03153 0.02319 -0.39600
H 	H 	0.40519 0.08891 0.02220 0.09700
F 	F 	0.41701 0.19443 0.92197 -0.43200
H 	H 	0.29608 0.13978 0.92474 0.12800
C 	C 	0.20267 0.08395 0.00492 0.33000
C 	C 	0.13844 0.05716 0.00621 -0.08500
C 	C 	0.08976 0.00988 0.97474 -0.08300
C 	C 	0.10598 0.99123 0.94121 0.33800
C 	C 	0.17018 0.01773 0.94005 -0.12100
F 	F 	0.24936 0.12932 0.03569 -0.40600
H 	H 	0.12635 0.07206 0.03206 0.11100
F 	F 	0.05940 0.94667 0.91012 -0.42200
H 	H 	0.18221 0.00214 0.91448 0.12000
