data_crystal

_cell_length_a 20.57986
_cell_length_b 21.37002
_cell_length_c 31.52617
_cell_angle_alpha 60.82852
_cell_angle_beta  118.88011
_cell_angle_gamma 133.34744

_symmetry_space_group_name_	'P 1'
_symmetry_space_group_name_H-M	'P 1'

loop_
_symmetry_equiv_pos_as_xyz
  x,y,z

loop_
_atom_site_label
_atom_site_type_symbol
_atom_site_fract_x
_atom_site_fract_y
_atom_site_fract_z
_atom_site_charge
N 	N 	0.00421 0.61553 0.23202 -0.09900
Co	Co	0.01513 0.86441 0.13078 1.18200
Co	Co	0.01862 0.87554 0.63181 1.17900
O 	O 	0.00663 0.95647 0.74303 -0.36700
O 	O 	0.05204 0.79460 0.58924 -0.40000
C 	C 	0.04760 0.93441 0.90543 -0.03000
C 	C 	0.02235 0.97828 0.90945 -0.05800
C 	C 	0.03792 0.93262 0.85840 0.13200
C 	C 	0.00989 0.98365 0.31481 -0.08800
N 	N 	0.00913 0.19031 0.24005 -0.11100
N 	N 	0.02230 0.33447 0.00155 -0.11300
O 	O 	0.03660 0.99060 0.11934 -0.57200
O 	O 	0.02380 0.01641 0.97402 -0.34900
C 	C 	0.00884 0.98012 0.81414 -0.08000
O 	O 	0.01259 0.75877 0.08640 -0.41000
H 	H 	0.07031 0.89751 0.93896 0.06200
O 	O 	0.06471 0.12569 0.03843 -0.44600
O 	O 	0.06070 0.93190 0.07971 -0.74900
Co	Co	0.05282 0.03293 0.54543 1.17800
O 	O 	0.03447 0.12125 0.53713 -0.45200
O 	O 	0.01603 0.13114 0.69466 -0.39600
O 	O 	0.05380 0.94327 0.57691 -0.74600
C 	C 	0.06518 0.06104 0.33161 -0.03400
C 	C 	0.05572 0.05858 0.37410 0.08400
Br	Br	0.12265 0.16801 0.38974 -0.20400
C 	C 	0.00920 0.95696 0.95953 0.30500
Br	Br	0.06044 0.86109 0.85596 -0.19500
Co	Co	0.07651 0.03083 0.04946 1.17700
C 	C 	0.06241 0.22293 0.13294 0.28600
C 	C 	0.05764 0.24913 0.21344 0.08300
C 	C 	0.06945 0.65566 0.21848 0.09400
N 	N 	0.06388 0.49098 0.20947 -0.10000
O 	O 	0.00686 0.01645 0.47101 -0.35300
O 	O 	0.01807 0.90387 0.49059 -0.38400
N 	N 	0.00380 0.59663 0.70650 -0.11100
Co	Co	0.10012 0.89141 0.05364 1.17300
O 	O 	0.09124 0.19762 0.11893 -0.37200
C 	C 	0.06725 0.19806 0.66247 0.29100
O 	O 	0.08058 0.18470 0.63072 -0.37600
H 	H 	0.11304 0.12428 0.31033 0.07500
N 	N 	0.07897 0.35735 0.53865 -0.10000
C 	C 	0.00921 0.96692 0.45732 0.29300
O 	O 	0.11743 0.84350 0.17703 -0.36400
C 	C 	0.09495 0.35564 0.57961 0.09000
C 	C 	0.11544 0.56680 0.20571 0.10900
N 	N 	0.09831 0.53276 0.57054 -0.09900
Co	Co	0.00142 0.08698 0.08953 1.17600
Co	Co	0.12232 0.92972 0.55375 1.17700
C 	C 	0.12529 0.28816 0.66997 -0.06700
C 	C 	0.11613 0.35411 0.63087 0.01300
C 	C 	0.12469 0.31236 0.14224 -0.06800
C 	C 	0.11779 0.32433 0.18011 0.01500
C 	C 	0.11452 0.48388 0.60220 0.10600
C 	C 	0.99834 0.99369 0.26111 0.32900
C 	C 	0.99920 0.03082 0.86522 0.11800
C 	C 	0.99650 0.03426 0.81843 -0.02700
O 	O 	0.99794 0.06105 0.22744 -0.39200
O 	O 	0.99741 0.94102 0.24856 -0.34000
H 	H 	0.97708 0.07367 0.78485 0.05800
Br	Br	0.96730 0.09567 0.86651 -0.19300
C 	C 	0.17245 0.84952 0.16212 0.29700
O 	O 	0.99664 0.88338 0.99166 -0.36300
O 	O 	0.97479 0.17718 0.12957 -0.38500
O 	O 	0.19727 0.90353 0.11982 -0.38000
O 	O 	0.19058 0.02162 0.01959 -0.40800
O 	O 	0.21716 0.10009 0.06168 -0.37500
Co	Co	0.98084 0.08041 0.59356 1.18700
C 	C 	0.19752 0.89659 0.65946 0.29900
O 	O 	0.21752 0.95998 0.61916 -0.38100
O 	O 	0.13410 0.87215 0.67728 -0.35900
C 	C 	0.96390 0.95406 0.76540 0.34100
O 	O 	0.19809 0.06238 0.51683 -0.39600
O 	O 	0.19500 0.11858 0.56063 -0.39100
C 	C 	0.16478 0.29823 0.71936 0.01700
C 	C 	0.19138 0.24134 0.75870 0.09600
N 	N 	0.21264 0.19597 0.79008 -0.09800
C 	C 	0.22084 0.83422 0.67308 -0.06800
C 	C 	0.19955 0.77346 0.75917 0.10600
N 	N 	0.18854 0.77592 0.79087 -0.08600
N 	N 	0.32261 0.97880 0.56816 -0.10400
C 	C 	0.16398 0.41049 0.18297 -0.01900
C 	C 	0.18411 0.42469 0.22966 0.11100
N 	N 	0.20045 0.43582 0.26705 -0.09200
C 	C 	0.21108 0.79851 0.19447 -0.06700
C 	C 	0.15193 0.70577 0.20249 0.01300
N 	N 	0.92655 0.29923 0.44511 -0.08600
N 	N 	0.80290 0.55371 0.18903 -0.08900
C 	C 	0.73220 0.26635 0.05727 0.12300
N 	N 	0.78164 0.35438 0.05454 -0.12700
C 	C 	0.75199 0.38039 0.06900 0.12800
N 	N 	0.67188 0.32003 0.08332 -0.13300
C 	C 	0.62365 0.23284 0.08754 0.13300
N 	N 	0.65459 0.20578 0.07518 -0.13200
C 	C 	0.70315 0.28741 0.52651 0.12900
N 	N 	0.61504 0.25167 0.52274 -0.12900
C 	C 	0.59792 0.29450 0.53202 0.13200
N 	N 	0.66748 0.37486 0.54214 -0.13200
C 	C 	0.75453 0.41333 0.54354 0.13200
N 	N 	0.77327 0.36900 0.53685 -0.12700
C 	C 	0.29646 0.67933 0.17888 0.13000
N 	N 	0.38349 0.73165 0.17325 -0.12900
C 	C 	0.40663 0.70601 0.15430 0.13500
N 	N 	0.34286 0.62952 0.13981 -0.13400
C 	C 	0.25742 0.57488 0.14693 0.13300
N 	N 	0.23294 0.60055 0.16530 -0.12900
C 	C 	0.27224 0.65090 0.70118 0.13000
N 	N 	0.20974 0.56464 0.69771 -0.12800
C 	C 	0.23885 0.52180 0.69961 0.13300
N 	N 	0.32887 0.56470 0.70486 -0.13300
C 	C 	0.38975 0.65160 0.70438 0.13300
N 	N 	0.36204 0.69462 0.70343 -0.12800
Co	Co	0.95320 0.92603 0.17448 1.19500
C 	C 	0.24910 0.08039 0.04606 0.30000
Co	Co	0.89578 0.04310 0.16291 1.17000
C 	C 	0.92765 0.72195 0.08364 0.31400
O 	O 	0.80247 0.02572 0.09520 -0.39200
O 	O 	0.95820 0.01906 0.14184 -0.75300
C 	C 	0.83113 0.08418 0.05436 0.29400
O 	O 	0.96476 0.83148 0.18609 -0.43400
C 	C 	0.76769 0.84839 0.17489 0.31600
O 	O 	0.88874 0.09214 0.04037 -0.36400
O 	O 	0.81154 0.91040 0.19714 -0.38600
O 	O 	0.81198 0.84796 0.15604 -0.38500
O 	O 	0.90967 0.75762 0.09736 -0.37600
Co	Co	0.93331 0.91671 0.67448 1.19500
C 	C 	0.23984 0.12432 0.53855 0.31400
Co	Co	0.88183 0.03116 0.67179 1.17000
C 	C 	0.96474 0.74258 0.58964 0.31400
O 	O 	0.87617 0.12606 0.60848 -0.39800
O 	O 	0.93046 0.00473 0.64236 -0.76800
C 	C 	0.84290 0.11581 0.56339 0.30000
O 	O 	0.96198 0.83386 0.68693 -0.43400
C 	C 	0.73563 0.84427 0.66706 0.29300
O 	O 	0.96941 0.96105 0.60228 -0.55600
O 	O 	0.87103 0.09047 0.54900 -0.36800
O 	O 	0.75639 0.92514 0.64636 -0.37000
O 	O 	0.79352 0.82650 0.67699 -0.35500
O 	O 	0.88660 0.94404 0.74019 -0.39400
O 	O 	0.93326 0.76306 0.60529 -0.36700
C 	C 	0.94903 0.90217 0.34370 0.14400
C 	C 	0.94058 0.89955 0.38661 -0.05200
C 	C 	0.99511 0.97711 0.40314 -0.01700
H 	H 	0.89532 0.83594 0.40883 0.08700
Br	Br	0.88209 0.79264 0.32810 -0.19900
C 	C 	0.17331 0.43170 0.69135 -0.00200
C 	C 	0.17960 0.36424 0.73033 -0.02200
C 	C 	0.13449 0.42247 0.64185 -0.02100
C 	C 	0.20564 0.36540 0.78179 0.10800
N 	N 	0.22641 0.36634 0.82287 -0.09300
C 	C 	0.47992 0.70175 0.69490 -0.00200
C 	C 	0.48381 0.71146 0.64828 -0.01800
C 	C 	0.56593 0.74293 0.64192 0.02000
C 	C 	0.64605 0.77216 0.68033 -0.06500
C 	C 	0.63947 0.75221 0.72839 0.01400
C 	C 	0.55783 0.72124 0.73517 -0.01900
C 	C 	0.40307 0.68831 0.60710 0.10900
C 	C 	0.71452 0.75867 0.77113 0.09900
C 	C 	0.55361 0.70847 0.78361 0.10700
C 	C 	0.56803 0.74447 0.59611 0.09900
N 	N 	0.55019 0.69826 0.82225 -0.09400
N 	N 	0.56976 0.74572 0.55954 -0.09600
N 	N 	0.77400 0.76317 0.80548 -0.08800
N 	N 	0.33867 0.66966 0.57426 -0.09600
C 	C 	0.24631 0.83573 0.63755 0.01200
C 	C 	0.24131 0.76325 0.64328 -0.01900
C 	C 	0.24018 0.70339 0.69006 0.00000
C 	C 	0.22581 0.70650 0.72847 -0.01900
C 	C 	0.21334 0.77026 0.71955 0.02200
C 	C 	0.28866 0.91542 0.59897 0.06100
C 	C 	0.22321 0.64420 0.77676 0.11200
C 	C 	0.24159 0.75267 0.60131 0.10200
N 	N 	0.24182 0.74444 0.56774 -0.09600
N 	N 	0.22111 0.59438 0.81533 -0.09200
C 	C 	0.19759 0.48308 0.14195 -0.00100
C 	C 	0.19569 0.46914 0.10176 -0.02000
C 	C 	0.17308 0.38774 0.10624 0.01600
C 	C 	0.21660 0.53826 0.05595 0.10800
C 	C 	0.20521 0.38338 0.07645 0.10200
N 	N 	0.23107 0.38004 0.05267 -0.09400
N 	N 	0.23330 0.59346 0.01938 -0.09700
C 	C 	0.50312 0.74876 0.16002 -0.00200
C 	C 	0.53710 0.79477 0.11668 -0.02100
C 	C 	0.61662 0.80977 0.11877 0.02000
C 	C 	0.66748 0.78812 0.16505 -0.07700
C 	C 	0.62672 0.73133 0.20593 0.02400
C 	C 	0.54984 0.71895 0.20516 -0.02100
C 	C 	0.48849 0.82411 0.06993 0.11000
C 	C 	0.65735 0.67826 0.24587 0.10100
C 	C 	0.51649 0.67259 0.25019 0.11000
C 	C 	0.64299 0.84187 0.07337 0.10100
N 	N 	0.48977 0.63560 0.28607 -0.09500
N 	N 	0.66415 0.86712 0.03719 -0.09600
N 	N 	0.68077 0.63480 0.27761 -0.08100
N 	N 	0.44904 0.84705 0.03280 -0.09300
C 	C 	0.27093 0.71041 0.19835 0.00000
C 	C 	0.33627 0.79573 0.20838 -0.01900
C 	C 	0.30563 0.84191 0.20298 0.01200
C 	C 	0.17914 0.66174 0.20088 -0.02200
C 	C 	0.43240 0.83070 0.22984 0.11200
C 	C 	0.37072 0.93400 0.20530 0.11800
N 	N 	0.42269 0.00755 0.20716 -0.11800
N 	N 	0.50919 0.85870 0.24701 -0.09700
C 	C 	0.78026 0.14183 0.52800 -0.06200
C 	C 	0.81837 0.23007 0.49945 0.01500
C 	C 	0.79145 0.27794 0.49712 -0.01800
C 	C 	0.72312 0.23513 0.52190 -0.00200
C 	C 	0.67336 0.14165 0.54185 -0.01500
C 	C 	0.69721 0.09505 0.53989 -0.01100
C 	C 	0.87875 0.26862 0.46942 0.10200
C 	C 	0.60211 0.09409 0.56697 0.09700
C 	C 	0.63779 0.99921 0.55146 0.11700
C 	C 	0.83124 0.36905 0.46799 0.11100
N 	N 	0.58954 0.92253 0.56045 -0.10100
N 	N 	0.86306 0.44184 0.44474 -0.09100
N 	N 	0.54509 0.05564 0.58706 -0.10300
C 	C 	0.90538 0.65441 0.57953 -0.06900
C 	C 	0.84807 0.64240 0.53161 0.01700
C 	C 	0.81543 0.57190 0.51576 -0.01900
C 	C 	0.82705 0.50487 0.55030 0.00100
C 	C 	0.88648 0.51801 0.59779 -0.02000
C 	C 	0.92192 0.59027 0.61329 0.01700
C 	C 	0.81692 0.69822 0.50025 0.09300
C 	C 	0.91029 0.45669 0.63086 0.10900
C 	C 	0.96790 0.59417 0.66504 0.11000
C 	C 	0.76725 0.56656 0.46428 0.11000
N 	N 	0.72883 0.56230 0.42317 -0.08800
N 	N 	0.92943 0.40781 0.65722 -0.09900
N 	N 	0.79156 0.74244 0.47545 -0.09800
C 	C 	0.50495 0.25190 0.53448 -0.00100
C 	C 	0.47984 0.20113 0.58092 -0.02000
C 	C 	0.39952 0.17557 0.58609 0.01800
C 	C 	0.33979 0.19248 0.54386 -0.07500
C 	C 	0.37271 0.25568 0.50085 0.02300
C 	C 	0.45171 0.28054 0.49456 -0.02100
C 	C 	0.53756 0.17703 0.62346 0.10700
C 	C 	0.33218 0.30258 0.46644 0.10100
C 	C 	0.47865 0.33604 0.44736 0.10800
C 	C 	0.38246 0.13918 0.63511 0.09600
N 	N 	0.50018 0.38035 0.40969 -0.09500
N 	N 	0.36914 0.11044 0.67437 -0.10100
N 	N 	0.30054 0.34091 0.43914 -0.08400
N 	N 	0.58369 0.15789 0.65743 -0.10000
C 	C 	0.75940 0.23592 0.03831 0.00200
C 	C 	0.69077 0.16196 0.01649 -0.03600
C 	C 	0.71492 0.11661 0.01298 0.01400
C 	C 	0.80753 0.14870 0.02792 -0.07100
C 	C 	0.87489 0.23622 0.03329 0.01100
C 	C 	0.85305 0.27552 0.04473 -0.02300
C 	C 	0.59804 0.13743 0.99414 0.12400
C 	C 	0.95723 0.29074 0.01617 0.11000
C 	C 	0.92634 0.35416 0.06390 0.10900
C 	C 	0.64667 0.04353 0.98912 0.09100
N 	N 	0.98490 0.41707 0.07921 -0.10000
N 	N 	0.59228 0.98567 0.96955 -0.07100
N 	N 	0.52402 0.11788 0.97621 -0.10100
C 	C 	0.85630 0.63143 0.07519 -0.07000
C 	C 	0.83621 0.55910 0.11701 0.02100
C 	C 	0.82556 0.48614 0.11765 -0.02100
C 	C 	0.80827 0.47296 0.07243 0.00300
C 	C 	0.81610 0.54082 0.02827 -0.03100
C 	C 	0.83781 0.61901 0.02944 0.00800
C 	C 	0.81801 0.55620 0.15711 0.10200
C 	C 	0.80058 0.52983 0.98161 0.12400
C 	C 	0.83571 0.68396 0.98333 0.10600
C 	C 	0.83172 0.42426 0.16464 0.11500
N 	N 	0.83322 0.73514 0.94622 -0.08900
N 	N 	0.83668 0.37482 0.20217 -0.09200
N 	N 	0.78819 0.52103 0.94436 -0.09600
C 	C 	0.34615 0.10717 0.06813 -0.06500
C 	C 	0.41413 0.17719 0.09297 0.01500
C 	C 	0.50407 0.20085 0.11319 -0.01600
C 	C 	0.53162 0.17003 0.09927 -0.00800
C 	C 	0.46385 0.09063 0.08379 -0.00700
C 	C 	0.37135 0.06057 0.06611 -0.00500
C 	C 	0.39435 0.22919 0.09463 0.09900
C 	C 	0.48676 0.03377 0.09275 0.08000
C 	C 	0.30343 0.98192 0.04666 0.10400
C 	C 	0.56676 0.25317 0.14999 0.10800
N 	N 	0.24972 0.91909 0.03125 -0.13300
N 	N 	0.61661 0.29489 0.17942 -0.09800
N 	N 	0.50486 0.98815 0.10001 -0.08600
N 	N 	0.37898 0.27099 0.09604 -0.09700
