data_crystal

_cell_length_a 15.10870
_cell_length_b 15.46305
_cell_length_c 36.97527
_cell_angle_alpha 95.37624
_cell_angle_beta  95.38550
_cell_angle_gamma 127.27747

_symmetry_space_group_name_	'P 1'
_symmetry_space_group_name_H-M	'P 1'

loop_
_symmetry_equiv_pos_as_xyz
  x,y,z

loop_
_atom_site_label
_atom_site_type_symbol
_atom_site_fract_x
_atom_site_fract_y
_atom_site_fract_z
_atom_site_charge
C 	C 	0.99867 0.96167 0.96641 0.02900
C 	C 	0.08431 0.99131 0.51886 -0.07000
C 	C 	0.10753 0.15726 0.51044 -0.07100
C 	C 	0.15435 0.10314 0.51616 0.03100
H 	H 	0.16198 0.24405 0.50842 0.04700
H 	H 	0.12105 0.95028 0.52406 0.05200
C 	C 	0.11739 0.03090 0.96130 -0.00200
H 	H 	0.13590 0.05544 0.93472 0.03400
H 	H 	0.18256 0.04436 0.01622 0.07300
H 	H 	0.98662 0.81604 0.96850 0.04800
H 	H 	0.98792 0.09439 0.96752 0.04900
C 	C 	0.82820 0.94155 0.97206 0.02900
C 	C 	0.94224 0.00722 0.96817 -0.07400
C 	C 	0.94155 0.85007 0.96876 -0.07500
C 	C 	0.82643 0.78282 0.97174 0.03100
C 	C 	0.77089 0.82963 0.97417 -0.07600
H 	H 	0.68319 0.77900 0.97751 0.04700
C 	C 	0.99032 0.09919 0.50727 0.02400
C 	C 	0.96678 0.93186 0.51431 0.02700
C 	C 	0.91997 0.98588 0.50880 -0.07300
H 	H 	0.82882 0.93909 0.50454 0.04700
Cu	Cu	0.69823 0.27985 0.95033 0.92900
Cu	Cu	0.74152 0.23387 0.03235 0.86400
Cu	Cu	0.55808 0.24766 0.00948 0.89400
Cu	Cu	0.47527 0.25778 0.93277 0.89400
C 	C 	0.59629 0.24164 0.87587 0.30800
O 	O 	0.76052 0.43371 0.94286 -0.37600
C 	C 	0.66847 0.30665 0.08748 0.30100
O 	O 	0.52969 0.19268 0.95762 -0.63800
O 	O 	0.71852 0.32113 0.00439 -0.64500
O 	O 	0.77949 0.21585 0.94998 -0.37800
O 	O 	0.69223 0.11518 0.99370 -0.44400
O 	O 	0.50503 0.22839 0.88312 -0.38500
O 	O 	0.39950 0.16407 0.01219 -0.39200
C 	C 	0.32163 0.14537 0.98581 0.30900
C 	C 	0.71709 0.48173 0.95355 0.30100
O 	O 	0.61746 0.42363 0.96339 -0.38900
O 	O 	0.34999 0.20945 0.96081 -0.39500
O 	O 	0.65102 0.22074 0.89857 -0.36600
C 	C 	0.74869 0.13305 0.96675 0.30900
O 	O 	0.59090 0.29643 0.06334 -0.38300
O 	O 	0.75490 0.31633 0.07731 -0.42300
H 	H 	0.48058 0.11094 0.95085 0.16500
H 	H 	0.77022 0.40160 0.01464 0.17200
Cu	Cu	0.64019 0.22689 0.51169 0.92900
Cu	Cu	0.72629 0.21100 0.43478 0.87000
Cu	Cu	0.72481 0.39736 0.46147 0.89800
Cu	Cu	0.66281 0.44149 0.53195 0.89400
C 	C 	0.66939 0.31541 0.58784 0.30600
O 	O 	0.47872 0.17149 0.50944 -0.36700
C 	C 	0.68377 0.30962 0.38177 0.30600
O 	O 	0.74485 0.39815 0.51344 -0.64200
O 	O 	0.63135 0.23374 0.45843 -0.64100
O 	O 	0.69749 0.14009 0.51256 -0.38000
O 	O 	0.82830 0.24225 0.47748 -0.44600
O 	O 	0.63266 0.36883 0.57625 -0.38700
O 	O 	0.82303 0.55681 0.46823 -0.38800
C 	C 	0.82064 0.62249 0.49292 0.30900
C 	C 	0.44331 0.22140 0.49413 0.30200
O 	O 	0.51704 0.32222 0.48852 -0.39700
O 	O 	0.73985 0.58256 0.51281 -0.40000
O 	O 	0.67400 0.24870 0.56447 -0.36400
C 	C 	0.79261 0.17606 0.50155 0.30900
O 	O 	0.72992 0.39687 0.40826 -0.38900
O 	O 	0.66374 0.21802 0.38893 -0.42200
H 	H 	0.82481 0.44250 0.52617 0.16400
H 	H 	0.55381 0.19199 0.44384 0.17200
C 	C 	0.65418 0.26853 0.77039 -0.00400
C 	C 	0.59892 0.17367 0.74282 -0.03400
C 	C 	0.61018 0.18391 0.70602 -0.03400
C 	C 	0.67673 0.28906 0.69664 -0.00400
C 	C 	0.73461 0.38395 0.72438 -0.03500
C 	C 	0.72339 0.37371 0.76118 -0.03500
C 	C 	0.63458 0.25800 0.80767 0.04500
C 	C 	0.61731 0.24994 0.83882 -0.10200
C 	C 	0.67777 0.29934 0.65834 0.04400
C 	C 	0.67575 0.30723 0.62619 -0.10300
H 	H 	0.54550 0.09208 0.74975 0.04200
H 	H 	0.56516 0.11016 0.68473 0.04200
H 	H 	0.78620 0.46552 0.71734 0.03900
H 	H 	0.76661 0.44743 0.78236 0.04000
C 	C 	0.66137 0.34086 0.19769 -0.00700
C 	C 	0.56179 0.26185 0.20992 -0.03600
C 	C 	0.56260 0.26150 0.24777 -0.03500
C 	C 	0.66297 0.34021 0.27353 -0.00700
C 	C 	0.76139 0.42192 0.26137 -0.03600
C 	C 	0.76060 0.42222 0.22352 -0.03600
C 	C 	0.66434 0.33204 0.15876 0.04200
C 	C 	0.66660 0.32204 0.12620 -0.11200
C 	C 	0.66794 0.33063 0.31191 0.04300
C 	C 	0.67393 0.32148 0.34390 -0.11200
H 	H 	0.48466 0.19884 0.19011 0.03800
H 	H 	0.48613 0.19820 0.25695 0.03800
H 	H 	0.83927 0.48319 0.28113 0.03800
H 	H 	0.83785 0.48373 0.21429 0.03700
C 	C 	0.89205 0.81272 0.51529 -0.00300
C 	C 	0.89814 0.74244 0.49355 -0.14600
H 	H 	0.82699 0.78159 0.53208 0.03800
H 	H 	0.96024 0.77385 0.47559 0.07600
C 	C 	0.94056 0.15476 0.49879 -0.00300
C 	C 	0.85470 0.13576 0.51441 -0.15400
H 	H 	0.97417 0.21118 0.47940 0.02900
H 	H 	0.82616 0.08503 0.53556 0.07900
C 	C 	0.27712 0.16370 0.51997 -0.00300
C 	C 	0.32359 0.17329 0.48998 -0.14400
H 	H 	0.32839 0.19254 0.54748 0.03800
H 	H 	0.27327 0.14661 0.46244 0.06900
C 	C 	0.76441 0.66403 0.97375 -0.00500
C 	C 	0.77758 0.59965 0.95174 -0.14500
H 	H 	0.70402 0.62815 0.99223 0.03700
H 	H 	0.83595 0.63495 0.93264 0.07400
C 	C 	0.78495 0.06557 0.95689 -0.15200
C 	C 	0.77157 0.99217 0.97737 -0.00500
H 	H 	0.82955 0.08099 0.93394 0.07900
H 	H 	0.72020 0.97050 0.99863 0.03000
C 	C 	0.20199 0.07014 0.98983 -0.14000
