data_crystal

_cell_length_a 18.60884
_cell_length_b 18.91596
_cell_length_c 33.37322
_cell_angle_alpha 95.42114
_cell_angle_beta  95.42261
_cell_angle_gamma 126.42435

_symmetry_space_group_name_	'P 1'
_symmetry_space_group_name_H-M	'P 1'

loop_
_symmetry_equiv_pos_as_xyz
  x,y,z

loop_
_atom_site_label
_atom_site_type_symbol
_atom_site_fract_x
_atom_site_fract_y
_atom_site_fract_z
_atom_site_charge
C 	C 	0.88965 0.96944 0.95844 0.01100
C 	C 	0.98227 0.02067 0.95650 -0.03900
C 	C 	0.02708 0.98192 0.95753 0.00400
C 	C 	0.97863 0.89087 0.95850 -0.05200
C 	C 	0.88538 0.83807 0.95891 0.02600
C 	C 	0.84063 0.87748 0.95932 -0.06200
H 	H 	0.02031 0.09154 0.95610 0.04400
H 	H 	0.01364 0.86110 0.95920 0.04500
H 	H 	0.76902 0.83749 0.96092 0.04900
C 	C 	0.96195 0.06092 0.50119 0.05000
C 	C 	0.05589 0.11441 0.50143 -0.08700
C 	C 	0.10151 0.07620 0.50260 0.04900
C 	C 	0.05331 0.98502 0.50333 -0.09300
C 	C 	0.95994 0.93180 0.50312 0.04900
C 	C 	0.91447 0.96993 0.50270 -0.08900
H 	H 	0.09284 0.18478 0.50016 0.05600
H 	H 	0.08839 0.95532 0.50371 0.05700
H 	H 	0.84190 0.92843 0.50234 0.05500
Cu	Cu	0.74206 0.31648 0.95733 0.92700
Cu	Cu	0.74114 0.25977 0.04771 0.87100
Cu	Cu	0.59403 0.26319 0.00792 0.89600
Cu	Cu	0.56961 0.30332 0.92488 0.89700
C 	C 	0.67908 0.28467 0.87044 0.25800
O 	O 	0.79138 0.44553 0.95495 -0.35700
C 	C 	0.65615 0.30719 0.09807 0.25500
O 	O 	0.60012 0.23915 0.95172 -0.63700
O 	O 	0.72887 0.33208 0.01499 -0.64300
O 	O 	0.80590 0.26075 0.96374 -0.36700
O 	O 	0.71279 0.16942 0.00454 -0.44400
O 	O 	0.63632 0.31892 0.87882 -0.37100
O 	O 	0.46289 0.19000 0.99721 -0.37900
C 	C 	0.41311 0.18999 0.96623 0.29600
C 	C 	0.74789 0.47675 0.96667 0.28400
O 	O 	0.66382 0.42093 0.97178 -0.38900
O 	O 	0.45037 0.24985 0.94226 -0.38900
O 	O 	0.73126 0.28329 0.89966 -0.35000
C 	C 	0.76916 0.18745 0.97935 0.29500
O 	O 	0.58702 0.26681 0.06683 -0.37900
O 	O 	0.73267 0.32024 0.09393 -0.39800
H 	H 	0.56351 0.17479 0.93956 0.16700
H 	H 	0.76282 0.39498 0.02902 0.17600
Cu	Cu	0.63160 0.22860 0.50757 0.92700
Cu	Cu	0.67643 0.22372 0.41447 0.87500
Cu	Cu	0.68953 0.37675 0.45821 0.89900
Cu	Cu	0.65867 0.40399 0.54314 0.89700
C 	C 	0.67549 0.29153 0.59508 0.25800
O 	O 	0.50466 0.18656 0.51334 -0.36200
C 	C 	0.63491 0.31724 0.36798 0.25500
O 	O 	0.71658 0.36849 0.51355 -0.64000
O 	O 	0.61224 0.24330 0.45047 -0.64000
O 	O 	0.67640 0.15622 0.49785 -0.37000
O 	O 	0.76736 0.24239 0.45505 -0.43400
O 	O 	0.64543 0.33859 0.58896 -0.36800
O 	O 	0.77017 0.50581 0.46963 -0.38200
C 	C 	0.77108 0.55641 0.50012 0.29700
C 	C 	0.47576 0.23250 0.50340 0.28900
O 	O 	0.53398 0.31508 0.49851 -0.39100
O 	O 	0.71398 0.52151 0.52584 -0.39200
O 	O 	0.66940 0.23710 0.56456 -0.35100
C 	C 	0.74592 0.18470 0.47936 0.29400
O 	O 	0.68276 0.38495 0.39949 -0.37800
O 	O 	0.61617 0.23905 0.37056 -0.39500
H 	H 	0.78215 0.40138 0.52450 0.16900
H 	H 	0.54810 0.21365 0.43796 0.17400
C 	C 	0.63772 0.24408 0.76435 0.11900
C 	C 	0.59690 0.19798 0.72370 -0.08900
C 	C 	0.63688 0.24594 0.69266 0.00700
C 	C 	0.71897 0.32930 0.70096 0.12000
C 	C 	0.76502 0.37115 0.74156 -0.08900
C 	C 	0.71851 0.32871 0.77265 0.00800
O 	O 	0.61461 0.20305 0.79823 -0.19900
C 	C 	0.68959 0.27264 0.82794 0.04700
C 	C 	0.75438 0.34578 0.81216 -0.05500
O 	O 	0.75938 0.35647 0.66703 -0.19900
C 	C 	0.69173 0.28108 0.63716 0.04600
C 	C 	0.62091 0.21259 0.65295 -0.05400
H 	H 	0.53808 0.12820 0.71671 0.06500
H 	H 	0.83382 0.43281 0.74852 0.06600
H 	H 	0.80652 0.41216 0.82997 0.05500
H 	H 	0.55448 0.15799 0.63526 0.05300
C 	C 	0.56936 0.30144 0.26333 0.11400
C 	C 	0.53701 0.24846 0.22405 -0.08800
C 	C 	0.59483 0.28017 0.19549 0.00600
C 	C 	0.67847 0.36228 0.20412 0.11600
C 	C 	0.70975 0.41705 0.24276 -0.09100
C 	C 	0.65219 0.38577 0.27170 0.00900
O 	O 	0.54117 0.26426 0.29790 -0.19300
C 	C 	0.61520 0.33351 0.32771 0.04100
C 	C 	0.68132 0.40619 0.31242 -0.05900
O 	O 	0.71408 0.39443 0.16963 -0.19300
C 	C 	0.64201 0.32362 0.13939 0.03900
C 	C 	0.56927 0.25681 0.15470 -0.05800
H 	H 	0.47149 0.18302 0.21684 0.06300
H 	H 	0.77613 0.48166 0.24999 0.06400
H 	H 	0.75215 0.45279 0.32734 0.05200
H 	H 	0.51517 0.18993 0.13795 0.05100
C 	C 	0.82373 0.65280 0.50057 -0.09100
C 	C 	0.81416 0.68227 0.46484 -0.00400
C 	C 	0.85718 0.77315 0.46545 -0.00100
C 	C 	0.90951 0.83540 0.50231 -0.00300
C 	C 	0.91992 0.80614 0.53791 -0.06700
C 	C 	0.87849 0.71551 0.53712 0.05500
S 	S 	0.84622 0.80838 0.41978 -0.04000
S 	S 	0.89949 0.68204 0.58146 -0.06100
H 	H 	0.83487 0.66155 0.60470 0.03700
H 	H 	0.77478 0.81230 0.41741 0.03400
H 	H 	0.77220 0.63424 0.43668 0.04500
H 	H 	0.96187 0.85431 0.56604 0.05100
C 	C 	0.79873 0.15037 0.48501 -0.09800
C 	C 	0.84398 0.16405 0.52436 -0.00100
C 	C 	0.90031 0.13811 0.52990 -0.00200
C 	C 	0.91149 0.09790 0.49577 -0.00100
C 	C 	0.86606 0.08402 0.45650 -0.07000
C 	C 	0.80905 0.10898 0.45097 0.06100
S 	S 	0.95590 0.15574 0.57965 -0.03600
S 	S 	0.74710 0.08346 0.40163 -0.10100
H 	H 	0.66486 0.00059 0.39618 0.03500
H 	H 	0.90279 0.08093 0.59626 0.03800
H 	H 	0.83630 0.19591 0.55058 0.04400
H 	H 	0.87317 0.05145 0.43034 0.05300
C 	C 	0.20006 0.13110 0.50324 -0.00400
C 	C 	0.25888 0.15702 0.54037 -0.06700
C 	C 	0.34872 0.18891 0.54075 0.05300
C 	C 	0.38085 0.19637 0.50358 -0.09300
C 	C 	0.32366 0.17535 0.46669 -0.00600
C 	C 	0.23339 0.14237 0.46629 -0.00100
S 	S 	0.42014 0.21916 0.58791 -0.05000
S 	S 	0.16219 0.11361 0.41931 -0.04000
H 	H 	0.16516 0.18558 0.41259 0.03500
H 	H 	0.41508 0.14683 0.59607 0.04400
H 	H 	0.23347 0.14869 0.56885 0.05100
H 	H 	0.34908 0.18363 0.43822 0.03400
C 	C 	0.78527 0.57029 0.96527 -0.08000
C 	C 	0.79486 0.59813 0.92735 -0.01300
C 	C 	0.81866 0.68267 0.92418 0.00100
C 	C 	0.83570 0.74159 0.95947 -0.00200
C 	C 	0.82362 0.71280 0.99719 -0.05100
C 	C 	0.79884 0.62778 0.00031 0.03600
S 	S 	0.82714 0.71422 0.87585 -0.04200
S 	S 	0.78865 0.59558 0.04852 -0.05600
H 	H 	0.70029 0.55104 0.05363 0.03900
H 	H 	0.91501 0.75817 0.87007 0.03600
H 	H 	0.78173 0.55313 0.90010 0.04200
H 	H 	0.83739 0.75805 0.02448 0.04300
C 	C 	0.84715 0.01475 0.96377 0.02000
C 	C 	0.81518 0.03235 0.92921 -0.07400
C 	C 	0.79146 0.09030 0.93371 0.05500
C 	C 	0.80012 0.13161 0.97327 -0.09200
C 	C 	0.83012 0.11223 0.00776 -0.00800
C 	C 	0.85340 0.05418 0.00323 -0.01400
S 	S 	0.74934 0.10879 0.88968 -0.02700
S 	S 	0.89173 0.03247 0.04728 -0.04000
H 	H 	0.81940 0.95718 0.05795 0.02900
H 	H 	0.65636 0.04867 0.88103 0.03700
H 	H 	0.81083 0.00266 0.89879 0.05500
H 	H 	0.83542 0.14250 0.03823 0.01800
C 	C 	0.12599 0.03765 0.95965 0.01400
C 	C 	0.16016 0.03239 0.92476 -0.06800
C 	C 	0.25382 0.08027 0.92673 0.05600
C 	C 	0.31430 0.13538 0.96390 -0.09300
C 	C 	0.27999 0.14042 0.99882 0.00600
C 	C 	0.18630 0.09152 0.99696 -0.00400
S 	S 	0.29413 0.06712 0.88311 -0.05900
S 	S 	0.14521 0.09694 0.04169 -0.04300
H 	H 	0.13301 0.16174 0.04306 0.03400
H 	H 	0.30017 0.99850 0.88390 0.03000
H 	H 	0.11364 0.98972 0.89624 0.04700
H 	H 	0.32634 0.18283 0.02741 0.03800
