data_crystal

_cell_length_a 18.67396
_cell_length_b 18.86086
_cell_length_c 31.69582
_cell_angle_alpha 95.43822
_cell_angle_beta  95.43794
_cell_angle_gamma 126.40636

_symmetry_space_group_name_	'P 1'
_symmetry_space_group_name_H-M	'P 1'

loop_
_symmetry_equiv_pos_as_xyz
  x,y,z

loop_
_atom_site_label
_atom_site_type_symbol
_atom_site_fract_x
_atom_site_fract_y
_atom_site_fract_z
_atom_site_charge
C 	C 	0.90142 0.99472 0.95904 0.09300
C 	C 	0.99443 0.04795 0.95863 -0.08500
C 	C 	0.04045 0.01059 0.96022 0.05000
C 	C 	0.99367 0.91973 0.96197 -0.05300
C 	C 	0.90031 0.86524 0.96122 0.06600
C 	C 	0.85381 0.90274 0.95993 -0.07400
H 	H 	0.03127 0.11883 0.95799 0.07500
H 	H 	0.02975 0.89114 0.96344 0.07100
H 	H 	0.78174 0.86112 0.96007 0.08200
C 	C 	0.95381 0.04112 0.50306 0.05000
C 	C 	0.89924 0.94896 0.50346 -0.04900
C 	C 	0.93622 0.90260 0.50158 0.06200
C 	C 	0.02832 0.94870 0.50069 -0.05200
C 	C 	0.08395 0.04124 0.50177 0.04900
C 	C 	0.04668 0.08767 0.50270 -0.06400
H 	H 	0.82761 0.91294 0.50382 0.07400
H 	H 	0.05679 0.91259 0.49922 0.07300
H 	H 	0.08920 0.15901 0.50250 0.07100
Cu	Cu	0.74732 0.33598 0.95158 0.93000
Cu	Cu	0.74564 0.27798 0.04622 0.88900
Cu	Cu	0.60431 0.28878 0.00688 0.89900
Cu	Cu	0.57635 0.32503 0.91931 0.90300
C 	C 	0.68124 0.30303 0.86022 0.30800
O 	O 	0.79870 0.46564 0.94867 -0.33700
C 	C 	0.66657 0.32796 0.10208 0.28600
O 	O 	0.60646 0.26045 0.94755 -0.63900
O 	O 	0.73795 0.35445 0.01290 -0.63800
O 	O 	0.81005 0.27920 0.95735 -0.35300
O 	O 	0.71612 0.18852 0.00000 -0.42300
O 	O 	0.63865 0.33711 0.86954 -0.36200
O 	O 	0.47405 0.21728 0.99705 -0.36300
C 	C 	0.42379 0.22138 0.96665 0.31300
C 	C 	0.75665 0.49851 0.96079 0.30200
O 	O 	0.67362 0.44431 0.96738 -0.38100
O 	O 	0.45936 0.27569 0.93876 -0.37900
O 	O 	0.73269 0.30015 0.89061 -0.34900
C 	C 	0.77456 0.20720 0.97482 0.31200
O 	O 	0.60025 0.29933 0.06933 -0.36400
O 	O 	0.74123 0.33930 0.09588 -0.40000
H 	H 	0.56847 0.19545 0.93544 0.17200
H 	H 	0.77402 0.41774 0.02782 0.18200
Cu	Cu	0.62092 0.20603 0.50775 0.93000
Cu	Cu	0.68733 0.21402 0.41511 0.87600
Cu	Cu	0.66220 0.34551 0.45200 0.90200
Cu	Cu	0.62379 0.37075 0.53954 0.90400
C 	C 	0.65706 0.27511 0.59845 0.29000
O 	O 	0.48942 0.15187 0.50990 -0.35400
C 	C 	0.63617 0.29001 0.35748 0.30600
O 	O 	0.69296 0.34539 0.51160 -0.63700
O 	O 	0.60340 0.21462 0.44631 -0.63800
O 	O 	0.67939 0.14567 0.50260 -0.35400
O 	O 	0.77544 0.24255 0.46261 -0.43000
O 	O 	0.61434 0.30934 0.58902 -0.37100
O 	O 	0.72787 0.47406 0.46084 -0.37200
C 	C 	0.72937 0.52310 0.49408 0.31500
C 	C 	0.45344 0.18982 0.49598 0.30700
O 	O 	0.50628 0.27284 0.49023 -0.37800
O 	O 	0.67125 0.48608 0.52038 -0.36800
O 	O 	0.65642 0.22051 0.56872 -0.34000
C 	C 	0.75535 0.18436 0.48780 0.31400
O 	O 	0.64407 0.34598 0.38958 -0.36400
O 	O 	0.62842 0.21798 0.36388 -0.40500
H 	H 	0.75872 0.38522 0.52371 0.18000
H 	H 	0.53993 0.17554 0.43047 0.19200
C 	C 	0.70386 0.28399 0.73365 0.02500
C 	C 	0.74766 0.36387 0.71748 -0.04600
C 	C 	0.73741 0.36114 0.67295 0.01700
C 	C 	0.69095 0.29187 0.81617 -0.07500
C 	C 	0.64547 0.19875 0.66038 0.02300
C 	C 	0.65511 0.20153 0.70501 -0.04800
C 	C 	0.69767 0.28641 0.77871 0.05000
C 	C 	0.68376 0.27848 0.64422 -0.06500
H 	H 	0.78605 0.42794 0.73939 0.06900
H 	H 	0.76812 0.42312 0.66082 0.04400
H 	H 	0.60434 0.13452 0.63850 0.05300
H 	H 	0.62145 0.13945 0.71723 0.05900
C 	C 	0.63644 0.33367 0.23374 0.02000
C 	C 	0.71926 0.40013 0.22287 -0.04900
C 	C 	0.72754 0.40260 0.17954 0.01600
C 	C 	0.63295 0.30644 0.31423 -0.08800
C 	C 	0.56828 0.27629 0.15765 0.01500
C 	C 	0.56023 0.27368 0.20106 -0.04700
C 	C 	0.63307 0.31937 0.27765 0.04800
C 	C 	0.65297 0.33840 0.14670 -0.07100
H 	H 	0.77825 0.44745 0.24795 0.05800
H 	H 	0.79279 0.45214 0.17154 0.04600
H 	H 	0.50990 0.22696 0.13267 0.05400
H 	H 	0.49572 0.22258 0.20920 0.06000
C 	C 	0.88557 0.77256 0.53693 -0.07900
C 	C 	0.87852 0.80537 0.50014 -0.00200
C 	C 	0.82298 0.74521 0.46121 0.08500
C 	C 	0.77490 0.65304 0.45946 -0.01100
C 	C 	0.78248 0.62020 0.49618 -0.09700
C 	C 	0.83871 0.68050 0.53503 0.14500
Br	Br	0.85707 0.63897 0.58502 -0.24000
H 	H 	0.92949 0.81893 0.56673 0.08800
H 	H 	0.73142 0.60684 0.42955 0.07200
Br	Br	0.81408 0.78788 0.40977 -0.19500
C 	C 	0.89520 0.11713 0.53671 -0.08300
C 	C 	0.91187 0.08683 0.49948 -0.00100
C 	C 	0.87864 0.09048 0.45865 0.08200
C 	C 	0.82746 0.12220 0.45529 -0.01300
C 	C 	0.80880 0.15053 0.49240 -0.10700
C 	C 	0.84420 0.14930 0.53340 0.14700
Br	Br	0.82670 0.19418 0.58524 -0.21800
H 	H 	0.92076 0.11449 0.56821 0.08200
H 	H 	0.80124 0.12390 0.42370 0.04000
Br	Br	0.90069 0.05032 0.40697 -0.21200
C 	C 	0.21160 0.10416 0.46216 -0.08100
C 	C 	0.18107 0.08873 0.50145 -0.00300
C 	C 	0.23999 0.10489 0.53867 0.08400
C 	C 	0.32745 0.13345 0.53603 -0.01700
C 	C 	0.35769 0.14793 0.49666 -0.10000
C 	C 	0.29945 0.13351 0.45958 0.14300
Br	Br	0.33738 0.14986 0.40479 -0.23600
H 	H 	0.16607 0.09060 0.43330 0.08500
H 	H 	0.37279 0.14660 0.56487 0.06600
Br	Br	0.20218 0.08893 0.59349 -0.22300
C 	C 	0.80893 0.64718 0.99897 -0.01200
C 	C 	0.79704 0.59353 0.96105 -0.09600
C 	C 	0.81090 0.62720 0.92232 0.14100
C 	C 	0.83707 0.71373 0.92205 -0.07700
C 	C 	0.85159 0.76833 0.96021 -0.00500
C 	C 	0.83656 0.73434 0.99878 0.08900
Br	Br	0.85542 0.80672 0.05171 -0.21500
H 	H 	0.79636 0.62101 0.02864 0.05900
H 	H 	0.84951 0.73991 0.89238 0.08800
Br	Br	0.79390 0.55618 0.86929 -0.21500
C 	C 	0.79664 0.10829 0.92983 -0.01200
C 	C 	0.80816 0.15360 0.97064 -0.09900
C 	C 	0.84412 0.14067 0.00772 0.14200
C 	C 	0.86621 0.08159 0.00372 -0.07900
C 	C 	0.85675 0.03788 0.96293 -0.01800
C 	C 	0.82098 0.05078 0.92582 0.08000
Br	Br	0.80613 0.99138 0.86945 -0.18900
H 	H 	0.76811 0.11710 0.90125 0.06500
H 	H 	0.89542 0.07333 0.03228 0.08000
Br	Br	0.87064 0.20854 0.06379 -0.29400
C 	C 	0.19814 0.12418 0.99984 -0.07200
C 	C 	0.13844 0.06723 0.96125 -0.00500
C 	C 	0.17273 0.06239 0.92434 0.07600
C 	C 	0.26617 0.11256 0.92663 -0.01500
C 	C 	0.32602 0.16846 0.96539 -0.09400
C 	C 	0.29170 0.17545 0.00202 0.13600
Br	Br	0.37111 0.25815 0.05451 -0.22000
H 	H 	0.17171 0.12868 0.02814 0.07400
H 	H 	0.29239 0.10811 0.89823 0.05700
Br	Br	0.09289 0.98891 0.87031 -0.19100
