data_crystal

_cell_length_a 23.11533
_cell_length_b 23.65603
_cell_length_c 45.06264
_cell_angle_alpha 95.48427
_cell_angle_beta  95.48455
_cell_angle_gamma 125.93779

_symmetry_space_group_name_	'P 1'
_symmetry_space_group_name_H-M	'P 1'

loop_
_symmetry_equiv_pos_as_xyz
  x,y,z

loop_
_atom_site_label
_atom_site_type_symbol
_atom_site_fract_x
_atom_site_fract_y
_atom_site_fract_z
_atom_site_charge
C 	C 	0.01914 0.06814 0.99106 -0.07400
C 	C 	0.05604 0.03777 0.98958 0.02900
C 	C 	0.01966 0.96588 0.99124 -0.07400
H 	H 	0.04706 0.12364 0.98955 0.04900
H 	H 	0.04831 0.94250 0.99035 0.05000
C 	C 	0.00998 0.03778 0.47083 -0.08000
C 	C 	0.04464 0.00533 0.47245 0.04500
C 	C 	0.00478 0.93326 0.47411 -0.07800
H 	H 	0.04115 0.09380 0.46967 0.05300
H 	H 	0.03180 0.90823 0.47531 0.05300
H 	H 	0.83722 0.89501 0.47277 0.05100
Cu	Cu	0.62234 0.23258 0.00293 0.92800
Cu	Cu	0.67808 0.23747 0.93827 0.87100
Cu	Cu	0.67156 0.35111 0.96675 0.89800
Cu	Cu	0.63439 0.36836 0.02701 0.89500
C 	C 	0.64119 0.27744 0.06697 0.29000
O 	O 	0.51828 0.19717 0.00274 -0.36400
C 	C 	0.64451 0.30728 0.89985 0.28900
O 	O 	0.68788 0.34382 0.00822 -0.64100
O 	O 	0.61498 0.24552 0.96037 -0.64100
O 	O 	0.66125 0.17679 0.99874 -0.37500
O 	O 	0.74414 0.25131 0.97170 -0.44400
O 	O 	0.61441 0.31195 0.06008 -0.38600
O 	O 	0.73184 0.45361 0.97560 -0.38600
C 	C 	0.72770 0.49274 0.99695 0.31300
C 	C 	0.49482 0.23192 0.99256 0.30200
O 	O 	0.54151 0.29876 0.99053 -0.39600
O 	O 	0.68363 0.46486 0.01657 -0.39600
O 	O 	0.64543 0.23829 0.04562 -0.36100
C 	C 	0.72226 0.20306 0.98877 0.31000
O 	O 	0.67099 0.35910 0.92349 -0.38600
O 	O 	0.63531 0.24774 0.90289 -0.42000
H 	H 	0.73971 0.37127 0.01791 0.16600
H 	H 	0.56490 0.21966 0.94874 0.17300
Cu	Cu	0.75674 0.34258 0.46773 0.92600
Cu	Cu	0.75545 0.29634 0.53424 0.87000
Cu	Cu	0.63812 0.30090 0.50508 0.89700
Cu	Cu	0.61677 0.33046 0.44338 0.89400
C 	C 	0.70145 0.31041 0.40371 0.28800
O 	O 	0.79467 0.44469 0.46579 -0.36100
C 	C 	0.68773 0.33555 0.57193 0.28900
O 	O 	0.64281 0.28045 0.46364 -0.64000
O 	O 	0.74602 0.35502 0.51036 -0.64200
O 	O 	0.81048 0.30057 0.47271 -0.37300
O 	O 	0.73594 0.22584 0.50222 -0.44100
O 	O 	0.66978 0.34098 0.40938 -0.38400
O 	O 	0.53300 0.24246 0.49738 -0.38400
C 	C 	0.49190 0.24319 0.47513 0.29200
C 	C 	0.75927 0.46927 0.47444 0.29900
O 	O 	0.69167 0.42498 0.47779 -0.39500
O 	O 	0.52037 0.28699 0.45573 -0.39600
O 	O 	0.74846 0.31554 0.42512 -0.36100
C 	C 	0.78199 0.24183 0.48379 0.28600
O 	O 	0.63303 0.30626 0.54868 -0.38800
O 	O 	0.74813 0.34350 0.56879 -0.42000
H 	H 	0.61396 0.22912 0.45497 0.16300
H 	H 	0.77327 0.40497 0.52089 0.17200
C 	C 	0.63411 0.31992 0.86901 -0.09200
C 	C 	0.68056 0.38826 0.86230 0.01700
C 	C 	0.67844 0.39804 0.83219 -0.07300
C 	C 	0.62976 0.33978 0.80864 0.04400
C 	C 	0.58040 0.27238 0.81544 -0.07400
C 	C 	0.58246 0.26244 0.84551 0.01700
C 	C 	0.63554 0.34757 0.77753 -0.03200
C 	C 	0.63974 0.35326 0.75137 -0.00300
C 	C 	0.64563 0.35837 0.72070 -0.00300
C 	C 	0.65139 0.36133 0.69448 -0.03200
C 	C 	0.65901 0.36307 0.66316 0.04400
C 	C 	0.72829 0.40654 0.65586 -0.07400
C 	C 	0.73729 0.40023 0.62577 0.01700
C 	C 	0.67697 0.35001 0.60275 -0.09200
C 	C 	0.60705 0.30933 0.60994 0.01600
C 	C 	0.59823 0.31577 0.64005 -0.07300
H 	H 	0.72036 0.43320 0.88019 0.03500
H 	H 	0.71640 0.45043 0.82711 0.04900
H 	H 	0.54207 0.22722 0.79737 0.04800
H 	H 	0.54527 0.20973 0.85042 0.02900
H 	H 	0.77549 0.44367 0.67359 0.04800
H 	H 	0.79133 0.43307 0.62048 0.02900
H 	H 	0.55990 0.27072 0.59244 0.03600
H 	H 	0.54442 0.28224 0.64552 0.04900
C 	C 	0.69902 0.28738 0.37181 -0.08800
C 	C 	0.63251 0.24683 0.35125 0.01700
C 	C 	0.63106 0.23490 0.32013 -0.07200
C 	C 	0.69606 0.26361 0.30929 0.04600
C 	C 	0.76219 0.30066 0.32986 -0.07200
C 	C 	0.76370 0.31237 0.36107 0.02200
C 	C 	0.69549 0.26212 0.27724 -0.03100
C 	C 	0.69255 0.25969 0.25025 -0.00100
C 	C 	0.68656 0.25801 0.21866 -0.00100
C 	C 	0.67916 0.25748 0.19176 -0.03100
C 	C 	0.66744 0.25790 0.15984 0.04500
C 	C 	0.60877 0.25628 0.14700 -0.07200
C 	C 	0.59956 0.26148 0.11657 0.01900
C 	C 	0.64905 0.26831 0.09863 -0.08600
C 	C 	0.70686 0.26813 0.11130 0.01700
C 	C 	0.71618 0.26321 0.14189 -0.07100
H 	H 	0.58219 0.22651 0.35931 0.01900
H 	H 	0.57966 0.20565 0.30437 0.04900
H 	H 	0.81265 0.32265 0.32167 0.05100
H 	H 	0.81538 0.34353 0.37672 0.03800
H 	H 	0.57073 0.25187 0.16072 0.05000
H 	H 	0.55402 0.26033 0.10694 0.03500
H 	H 	0.74528 0.27318 0.09767 0.03200
H 	H 	0.76167 0.26442 0.15166 0.05000
C 	C 	0.83719 0.67600 0.47614 -0.00700
C 	C 	0.82207 0.69498 0.44954 -0.03300
C 	C 	0.84780 0.76531 0.44946 -0.03900
C 	C 	0.78999 0.54299 0.47549 -0.10900
C 	C 	0.81247 0.60391 0.47595 0.04300
H 	H 	0.79154 0.65563 0.42880 0.03900
H 	H 	0.83825 0.78005 0.42852 0.04000
C 	C 	0.84967 0.10848 0.47019 0.03800
C 	C 	0.77921 0.07950 0.47515 -0.07200
C 	C 	0.75592 0.12229 0.47816 0.01500
C 	C 	0.87282 0.22291 0.47022 0.01500
C 	C 	0.89595 0.17994 0.46718 -0.07100
C 	C 	0.80319 0.19472 0.47641 -0.09500
H 	H 	0.74290 0.02422 0.47727 0.04700
H 	H 	0.70161 0.09943 0.48240 0.02800
H 	H 	0.90987 0.27852 0.46875 0.03200
H 	H 	0.95044 0.20267 0.46319 0.04700
C 	C 	0.26271 0.12100 0.47333 0.03900
C 	C 	0.29879 0.18491 0.46247 -0.07100
C 	C 	0.37355 0.22477 0.46297 0.01700
C 	C 	0.12148 0.04624 0.47270 -0.02400
C 	C 	0.37639 0.13661 0.48515 0.01700
C 	C 	0.30158 0.09687 0.48463 -0.07100
C 	C 	0.18585 0.08031 0.47298 -0.02100
C 	C 	0.41286 0.20088 0.47435 -0.09000
H 	H 	0.26900 0.20388 0.45374 0.04800
H 	H 	0.40099 0.27452 0.45481 0.03300
H 	H 	0.40584 0.11723 0.49375 0.03000
H 	H 	0.27389 0.04736 0.49301 0.04800
C 	C 	0.83664 0.70376 0.99622 -0.00800
C 	C 	0.76678 0.56710 0.99694 -0.11000
C 	C 	0.88222 0.82178 0.02091 -0.04000
C 	C 	0.84666 0.74975 0.02162 -0.03300
C 	C 	0.79891 0.62949 0.99673 0.04700
H 	H 	0.91716 0.82180 0.94903 0.03800
H 	H 	0.89015 0.85717 0.04068 0.04000
H 	H 	0.82688 0.72972 0.04187 0.03900
C 	C 	0.82747 0.11312 0.99494 -0.01100
C 	C 	0.80677 0.05779 0.97150 -0.03300
C 	C 	0.75881 0.17122 0.99234 -0.12300
C 	C 	0.79006 0.14475 0.99411 0.04800
H 	H 	0.76087 0.03684 0.95344 0.03400
C 	C 	0.28092 0.14830 0.98616 -0.00800
C 	C 	0.26003 0.16880 0.01068 -0.03200
C 	C 	0.18637 0.13544 0.01103 -0.04000
C 	C 	0.41916 0.20142 0.98929 -0.11200
C 	C 	0.15443 0.06337 0.96163 -0.04000
C 	C 	0.22811 0.09667 0.96134 -0.03200
C 	C 	0.35599 0.17698 0.98743 0.04600
C 	C 	0.13321 0.08131 0.98685 0.00100
H 	H 	0.30071 0.20914 0.02985 0.03800
H 	H 	0.17053 0.14974 0.03057 0.03900
H 	H 	0.11374 0.02201 0.94274 0.03900
H 	H 	0.24397 0.08103 0.94219 0.03800
C 	C 	0.94581 0.02643 0.99406 0.02800
C 	C 	0.94648 0.92413 0.99415 0.02800
C 	C 	0.90974 0.95452 0.99576 -0.07400
H 	H 	0.85300 0.92213 0.99794 0.05000
C 	C 	0.93529 0.99831 0.47097 0.04100
C 	C 	0.93001 0.89320 0.47424 0.03200
C 	C 	0.89501 0.92574 0.47259 -0.07900
C 	C 	0.90127 0.79732 0.50291 -0.03900
C 	C 	0.87556 0.72701 0.50296 -0.03400
C 	C 	0.88891 0.81715 0.47598 -0.00100
H 	H 	0.93312 0.83694 0.52349 0.03900
H 	H 	0.88656 0.71257 0.52373 0.03700
C 	C 	0.90106 0.03342 0.47033 -0.02400
C 	C 	0.87625 0.06636 0.47005 -0.02200
C 	C 	0.86215 0.72994 0.97009 -0.03200
C 	C 	0.89765 0.80191 0.96934 -0.04000
C 	C 	0.90788 0.84811 0.99476 0.00100
H 	H 	0.85432 0.69454 0.95035 0.03900
C 	C 	0.84585 0.02994 0.97108 -0.04000
C 	C 	0.92635 0.11237 0.01773 -0.04100
C 	C 	0.88727 0.14034 0.01808 -0.03200
C 	C 	0.90584 0.05713 0.99418 0.00100
H 	H 	0.82970 0.98739 0.95278 0.03800
H 	H 	0.97233 0.13342 0.03576 0.03900
H 	H 	0.90379 0.18341 0.03619 0.03800
