data_crystal

_cell_length_a 20.28226
_cell_length_b 17.72288
_cell_length_c 39.63643
_cell_angle_alpha 90.81426
_cell_angle_beta  91.37717
_cell_angle_gamma 111.11374

_symmetry_space_group_name_	'P 1'
_symmetry_space_group_name_H-M	'P 1'

loop_
_symmetry_equiv_pos_as_xyz
  x,y,z

loop_
_atom_site_label
_atom_site_type_symbol
_atom_site_fract_x
_atom_site_fract_y
_atom_site_fract_z
_atom_site_charge
Ni	Ni	0.02934 0.95505 0.75309 1.09500
O 	O 	0.01721 0.87194 0.71546 -0.71500
Ni	Ni	0.05700 0.94260 0.67681 1.09600
O 	O 	0.13045 0.95908 0.76517 -0.37700
O 	O 	0.11528 0.14972 0.77066 -0.41500
O 	O 	0.05097 0.84944 0.64418 -0.37100
O 	O 	0.05182 0.02781 0.71228 -0.68700
O 	O 	0.03751 0.03437 0.79139 -0.38000
O 	O 	0.12377 0.02066 0.64353 -0.35900
O 	O 	0.15942 0.14233 0.67114 -0.40200
Ni	Ni	0.13290 0.12828 0.72142 1.07000
H 	H 	0.04334 0.83544 0.72020 0.15800
H 	H 	0.01085 0.04423 0.70791 0.14300
O 	O 	0.19387 0.06161 0.73095 -0.42200
C 	C 	0.99031 0.78667 0.64289 0.29100
C 	C 	0.18899 0.02068 0.75869 0.30800
C 	C 	0.17482 0.08803 0.65363 0.30100
C 	C 	0.05508 0.11081 0.78512 0.29900
O 	O 	0.16273 0.67813 0.34509 -0.37700
O 	O 	0.21708 0.55831 0.36592 -0.40000
O 	O 	0.18912 0.58471 0.45951 -0.41800
O 	O 	0.13719 0.61920 0.41311 -0.38400
C 	C 	0.17038 0.74801 0.33164 0.28700
C 	C 	0.19704 0.49226 0.38353 0.31400
C 	C 	0.13367 0.57097 0.43876 0.29200
Ni	Ni	0.23313 0.69158 0.04742 1.09900
O 	O 	0.17870 0.49195 0.02627 -0.39700
O 	O 	0.13042 0.64878 0.02840 -0.38200
O 	O 	0.20119 0.73678 0.08946 -0.37000
C 	C 	0.17297 0.51341 0.05768 0.31500
C 	C 	0.10831 0.60194 0.00094 0.30100
C 	C 	0.23377 0.81282 0.09935 0.28600
O 	O 	0.21507 0.58347 0.07064 -0.39700
O 	O 	0.15257 0.59773 0.97774 -0.42100
O 	O 	0.97274 0.09759 0.29732 -0.36400
O 	O 	0.08171 0.14065 0.27445 -0.41700
Ni	Ni	0.06769 0.15962 0.22358 1.06400
O 	O 	0.09311 0.05993 0.21273 -0.41400
C 	C 	0.07624 0.02197 0.18332 0.30500
C 	C 	0.03830 0.14915 0.29699 0.29400
O 	O 	0.07109 0.19026 0.17387 -0.40300
C 	C 	0.13194 0.45126 0.07985 -0.09600
C 	C 	0.09833 0.39546 0.09707 0.03600
C 	C 	0.06244 0.32748 0.11679 0.02600
C 	C 	0.03766 0.26904 0.13420 -0.08800
C 	C 	0.11351 0.97242 0.17149 -0.10500
C 	C 	0.14189 0.93077 0.15858 0.03400
C 	C 	0.17322 0.88432 0.14041 0.02700
C 	C 	0.20007 0.84857 0.12265 -0.09700
C 	C 	0.15517 0.41780 0.36684 -0.09900
C 	C 	0.12194 0.35450 0.35276 0.03200
C 	C 	0.08686 0.28067 0.33536 0.03200
C 	C 	0.06150 0.21896 0.31892 -0.10900
C 	C 	0.99781 0.78954 0.29728 0.05100
C 	C 	0.05684 0.77006 0.30721 0.01500
C 	C 	0.10865 0.75825 0.31736 -0.08800
C 	C 	0.04928 0.51693 0.48481 -0.05000
C 	C 	0.06285 0.51809 0.45020 -0.08600
C 	C 	0.01094 0.46391 0.42762 0.10200
N 	N 	0.02140 0.46207 0.39387 -0.20200
H 	H 	0.08882 0.55725 0.50221 0.05300
H 	H 	0.06433 0.50445 0.38261 0.10300
H 	H 	0.01650 0.49692 0.54785 0.08600
C 	C 	0.00576 0.47362 0.99780 -0.04900
C 	C 	0.03231 0.55797 0.99500 -0.09800
C 	C 	0.98654 0.59829 0.98481 0.12100
H 	H 	0.04032 0.44312 0.00670 0.05000
N 	N 	0.01028 0.68034 0.98288 -0.20500
H 	H 	0.06273 0.71619 0.98889 0.09800
Ni	Ni	0.74923 0.32466 0.89426 1.10000
O 	O 	0.66704 0.26239 0.86189 -0.70800
Ni	Ni	0.58666 0.27538 0.88568 1.10200
O 	O 	0.81901 0.30098 0.86326 -0.36700
O 	O 	0.75632 0.16441 0.86401 -0.40700
O 	O 	0.75538 0.42259 0.86588 -0.39700
Ni	Ni	0.64892 0.14774 0.85708 1.06400
O 	O 	0.76472 0.41613 0.96863 -0.41900
O 	O 	0.63585 0.12670 0.90754 -0.41400
O 	O 	0.51277 0.22308 0.84889 -0.38400
O 	O 	0.66628 0.32119 0.92118 -0.70500
O 	O 	0.83189 0.39552 0.92529 -0.37500
O 	O 	0.51897 0.32004 0.90917 -0.37500
O 	O 	0.60426 0.44607 0.91208 -0.41800
Ni	Ni	0.68545 0.42942 0.94024 1.07100
H 	H 	0.67152 0.28720 0.83943 0.15600
H 	H 	0.66134 0.28309 0.93976 0.15500
C 	C 	0.57738 0.12343 0.92205 0.29600
O 	O 	0.76074 0.50692 0.91082 -0.40000
C 	C 	0.80916 0.22682 0.85268 0.28300
C 	C 	0.50273 0.14974 0.83681 0.29400
C 	C 	0.76778 0.49530 0.87858 0.32200
C 	C 	0.53826 0.39796 0.91578 0.28000
C 	C 	0.82641 0.42249 0.95615 0.30100
O 	O 	0.54377 0.17105 0.91253 -0.36900
O 	O 	0.54061 0.10735 0.84854 -0.40800
Ni	Ni	0.59843 0.30625 0.53249 1.09900
O 	O 	0.68422 0.32030 0.50339 -0.70000
Ni	Ni	0.74855 0.29131 0.53570 1.09800
O 	O 	0.55885 0.37526 0.50293 -0.37300
O 	O 	0.66598 0.47796 0.50405 -0.40800
O 	O 	0.53737 0.20752 0.50310 -0.36900
Ni	Ni	0.73420 0.42619 0.48457 1.07200
O 	O 	0.50497 0.14873 0.56607 -0.41000
O 	O 	0.80861 0.49280 0.52002 -0.39200
O 	O 	0.84124 0.32315 0.50937 -0.38000
O 	O 	0.65770 0.26484 0.56248 -0.70200
O 	O 	0.51448 0.28184 0.56342 -0.37800
O 	O 	0.79200 0.24031 0.57212 -0.37000
O 	O 	0.69772 0.12148 0.56695 -0.41100
Ni	Ni	0.60634 0.14894 0.56633 1.06400
H 	H 	0.67107 0.27992 0.48457 0.15100
H 	H 	0.66621 0.29265 0.58489 0.15400
C 	C 	0.82620 0.46831 0.54885 0.31500
O 	O 	0.60048 0.12773 0.51567 -0.41700
C 	C 	0.59847 0.44952 0.49548 0.28100
C 	C 	0.85797 0.37666 0.48498 0.29800
C 	C 	0.55361 0.14346 0.49666 0.29900
C 	C 	0.75672 0.16700 0.58272 0.28800
C 	C 	0.48590 0.20915 0.57640 0.29000
O 	O 	0.78600 0.39987 0.56196 -0.39800
O 	O 	0.80808 0.38681 0.46555 -0.41800
O 	O 	0.98670 0.86301 0.78614 -0.36100
O 	O 	0.88546 0.81531 0.75331 -0.41600
Ni	Ni	0.91763 0.81216 0.70400 1.06600
O 	O 	0.89212 0.91170 0.69372 -0.41500
C 	C 	0.91508 0.95427 0.66672 0.30400
C 	C 	0.92372 0.80788 0.77944 0.28900
O 	O 	0.97073 0.95137 0.65143 -0.36400
O 	O 	0.93244 0.79458 0.65432 -0.40500
Ni	Ni	0.22575 0.66962 0.38478 1.09700
O 	O 	0.31255 0.71351 0.35567 -0.70600
Ni	Ni	0.39002 0.71518 0.38800 1.10000
O 	O 	0.22501 0.81375 0.34052 -0.40800
Ni	Ni	0.33136 0.82411 0.34191 1.06300
O 	O 	0.33579 0.86894 0.39008 -0.41300
O 	O 	0.46983 0.75242 0.35478 -0.37700
O 	O 	0.30449 0.68252 0.41863 -0.70100
O 	O 	0.45641 0.69062 0.42256 -0.37000
O 	O 	0.37485 0.56541 0.43065 -0.40800
Ni	Ni	0.28315 0.58264 0.44401 1.07000
H 	H 	0.31028 0.67793 0.33585 0.15700
H 	H 	0.30776 0.72705 0.43463 0.15000
C 	C 	0.38955 0.87802 0.41080 0.29700
O 	O 	0.23097 0.48824 0.41161 -0.39500
C 	C 	0.47757 0.81513 0.33547 0.28900
C 	C 	0.43731 0.62055 0.43740 0.28200
O 	O 	0.42704 0.83149 0.40785 -0.36900
O 	O 	0.44004 0.86199 0.34061 -0.40700
Ni	Ni	0.38402 0.69393 0.03037 1.10000
O 	O 	0.28643 0.67147 0.00843 -0.70300
O 	O 	0.41622 0.63246 0.99406 -0.37800
O 	O 	0.31647 0.52026 0.99843 -0.41500
O 	O 	0.42807 0.79526 0.00168 -0.36900
Ni	Ni	0.23571 0.56398 0.98877 1.07000
O 	O 	0.48097 0.85450 0.06455 -0.41000
O 	O 	0.33434 0.72801 0.06714 -0.70400
O 	O 	0.47944 0.72557 0.05497 -0.38000
O 	O 	0.28410 0.86168 0.08112 -0.41300
Ni	Ni	0.37877 0.84510 0.07248 1.06400
H 	H 	0.28907 0.71192 0.99106 0.15300
H 	H 	0.33756 0.70082 0.08843 0.15500
O 	O 	0.36432 0.86620 0.02312 -0.41900
C 	C 	0.38017 0.55592 0.98681 0.28000
C 	C 	0.40698 0.85719 0.00048 0.30000
C 	C 	0.50718 0.79721 0.07034 0.29300
Ni	Ni	0.93810 0.01250 0.25890 1.09600
O 	O 	0.96556 0.10315 0.22494 -0.71200
Ni	Ni	0.93664 0.04151 0.18161 1.09700
O 	O 	0.83576 0.01081 0.26116 -0.37600
O 	O 	0.84495 0.81496 0.26305 -0.41700
O 	O 	0.95669 0.14122 0.15225 -0.36500
O 	O 	0.92676 0.94815 0.21488 -0.68500
O 	O 	0.91428 0.92478 0.29367 -0.37800
O 	O 	0.87893 0.97254 0.14129 -0.36100
O 	O 	0.83434 0.84650 0.16209 -0.40400
Ni	Ni	0.84309 0.84755 0.21406 1.07100
H 	H 	0.94028 0.14110 0.22814 0.15800
H 	H 	0.96777 0.93077 0.21392 0.14500
O 	O 	0.77821 0.91039 0.22206 -0.41400
C 	C 	0.01881 0.20144 0.15648 0.28100
C 	C 	0.77957 0.94756 0.25119 0.30400
C 	C 	0.82490 0.90565 0.14601 0.30600
C 	C 	0.89955 0.85008 0.28359 0.31200
O 	O 	0.02720 0.03154 0.16368 -0.37100
C 	C 	0.76092 0.88854 0.12642 -0.10300
C 	C 	0.70440 0.86922 0.11187 0.03700
C 	C 	0.63637 0.84345 0.09661 0.03000
C 	C 	0.57743 0.82125 0.08444 -0.09600
C 	C 	0.54169 0.84758 0.31696 -0.09100
C 	C 	0.59621 0.87453 0.30197 0.02900
C 	C 	0.66054 0.90435 0.28461 0.03500
C 	C 	0.71525 0.92668 0.26961 -0.09300
C 	C 	0.95036 0.81281 0.29029 -0.13600
C 	C 	0.45757 0.01046 0.48818 -0.03700
C 	C 	0.50649 0.07936 0.47400 -0.09100
C 	C 	0.50818 0.08693 0.43849 0.10800
C 	C 	0.46394 0.02263 0.41787 -0.03700
C 	C 	0.41819 0.95168 0.43214 -0.09100
C 	C 	0.41181 0.94761 0.46752 0.10500
N 	N 	0.36090 0.88449 0.48169 -0.20000
H 	H 	0.45435 0.00631 0.51542 0.04300
H 	H 	0.46766 0.02624 0.39064 0.04600
N 	N 	0.55296 0.15463 0.42405 -0.19800
H 	H 	0.35888 0.87940 0.50792 0.08100
H 	H 	0.32036 0.84298 0.46693 0.07300
H 	H 	0.58672 0.20338 0.43859 0.07700
H 	H 	0.55411 0.15924 0.39779 0.08300
C 	C 	0.94700 0.41136 0.44033 -0.03600
C 	C 	0.93259 0.41284 0.47470 -0.09400
C 	C 	0.98643 0.46212 0.49747 0.11400
H 	H 	0.90678 0.37168 0.42303 0.05100
N 	N 	0.97932 0.45562 0.53144 -0.20100
H 	H 	0.98434 0.41885 0.37807 0.09100
H 	H 	0.94087 0.40620 0.54197 0.10600
C 	C 	0.54555 0.58764 0.43766 -0.03700
C 	C 	0.49035 0.59715 0.45566 -0.09000
C 	C 	0.47786 0.56799 0.48878 0.09900
C 	C 	0.51470 0.52076 0.50162 -0.03700
C 	C 	0.56520 0.50453 0.48231 -0.08900
C 	C 	0.58245 0.54019 0.45037 0.10000
N 	N 	0.63217 0.52663 0.43127 -0.19300
H 	H 	0.55627 0.61210 0.41260 0.05200
H 	H 	0.50366 0.49605 0.52663 0.04900
N 	N 	0.43064 0.58527 0.50830 -0.19900
H 	H 	0.64488 0.55401 0.40792 0.08100
H 	H 	0.65779 0.48796 0.43898 0.04100
H 	H 	0.40635 0.62512 0.50031 0.05200
H 	H 	0.41975 0.56116 0.53233 0.07800
C 	C 	0.79199 0.12832 0.60422 -0.09800
C 	C 	0.81930 0.09118 0.62116 0.02900
C 	C 	0.85047 0.04418 0.63926 0.03400
C 	C 	0.87839 0.00282 0.65294 -0.10300
C 	C 	0.24033 0.11437 0.63595 -0.09300
C 	C 	0.29636 0.13853 0.62204 0.03300
C 	C 	0.36269 0.16688 0.60630 0.02900
C 	C 	0.41925 0.18871 0.59286 -0.09200
C 	C 	0.87750 0.52820 0.57013 -0.09600
C 	C 	0.91787 0.58471 0.58635 0.03400
C 	C 	0.95771 0.65577 0.60487 0.03000
C 	C 	0.98092 0.71758 0.62152 -0.09600
C 	C 	0.91598 0.55253 0.97558 -0.04400
C 	C 	0.89138 0.46778 0.97553 -0.09400
C 	C 	0.93536 0.42810 0.98845 0.11500
N 	N 	0.91027 0.34646 0.99194 -0.20000
H 	H 	0.88139 0.58278 0.96639 0.05000
H 	H 	0.94369 0.31720 0.00058 0.09100
H 	H 	0.85695 0.31170 0.98723 0.08800
H 	H 	0.97598 0.70932 0.97517 0.09400
C 	C 	0.51196 0.97703 0.92871 -0.03900
C 	C 	0.54071 0.05477 0.94359 -0.09000
C 	C 	0.52264 0.06808 0.97684 0.10500
C 	C 	0.47453 0.00384 0.99416 -0.03600
C 	C 	0.44533 0.92614 0.97918 -0.09400
C 	C 	0.46236 0.91328 0.94566 0.11100
N 	N 	0.42908 0.84117 0.92915 -0.19600
H 	H 	0.52475 0.96730 0.90298 0.04200
H 	H 	0.46218 0.01364 0.01994 0.03700
N 	N 	0.55256 0.14178 0.99257 -0.19700
H 	H 	0.44418 0.83085 0.90500 0.08300
H 	H 	0.38553 0.79651 0.93927 0.08200
H 	H 	0.59295 0.18869 0.98158 0.07400
H 	H 	0.53725 0.15194 0.01669 0.07900
C 	C 	0.43381 0.53111 0.93457 -0.04700
C 	C 	0.41358 0.50869 0.96761 -0.09700
C 	C 	0.42891 0.44427 0.98238 0.10700
C 	C 	0.46459 0.40399 0.96366 -0.04900
C 	C 	0.48848 0.42974 0.93142 -0.10000
C 	C 	0.47070 0.49177 0.91616 0.10900
N 	N 	0.48779 0.51283 0.88375 -0.19900
H 	H 	0.42108 0.57969 0.92318 0.03900
H 	H 	0.47749 0.35551 0.97502 0.03800
N 	N 	0.41224 0.42300 0.01483 -0.20000
H 	H 	0.47635 0.56042 0.87303 0.08200
H 	H 	0.51025 0.48052 0.86854 0.09200
H 	H 	0.39191 0.45636 0.03060 0.09400
H 	H 	0.42202 0.37386 0.02506 0.08300
C 	C 	0.86706 0.21233 0.83723 -0.09100
C 	C 	0.91559 0.19899 0.82475 0.02400
C 	C 	0.97037 0.17846 0.81054 0.04000
C 	C 	0.01293 0.15329 0.79869 -0.11800
C 	C 	0.43609 0.10681 0.81997 -0.09200
C 	C 	0.37830 0.07604 0.80668 0.03100
C 	C 	0.31020 0.04745 0.79121 0.03600
C 	C 	0.25322 0.03054 0.77717 -0.09600
C 	C 	0.89306 0.74407 0.80261 -0.09800
C 	C 	0.86523 0.68843 0.82086 0.03000
C 	C 	0.83124 0.62172 0.84126 0.03600
C 	C 	0.80197 0.56409 0.85830 -0.09900
