data_crystal

_cell_length_a 22.49639
_cell_length_b 22.69886
_cell_length_c 35.16388
_cell_angle_alpha 95.47384
_cell_angle_beta  95.47340
_cell_angle_gamma 126.00734

_symmetry_space_group_name_	'P 1'
_symmetry_space_group_name_H-M	'P 1'

loop_
_symmetry_equiv_pos_as_xyz
  x,y,z

loop_
_atom_site_label
_atom_site_type_symbol
_atom_site_fract_x
_atom_site_fract_y
_atom_site_fract_z
_atom_site_charge
C 	C 	0.97028 0.03438 0.01338 0.04200
C 	C 	0.93241 0.95958 0.01647 -0.08300
C 	C 	0.97053 0.92816 0.01765 0.03800
C 	C 	0.04749 0.97238 0.01776 -0.08400
C 	C 	0.08598 0.04718 0.01454 0.03800
C 	C 	0.04699 0.07791 0.01192 -0.08200
H 	H 	0.87317 0.92561 0.01737 0.05400
H 	H 	0.07731 0.94850 0.02012 0.05400
H 	H 	0.07600 0.13511 0.00845 0.05300
C 	C 	0.91779 0.00513 0.45950 0.02400
C 	C 	0.99358 0.04727 0.45678 -0.05400
C 	C 	0.02758 0.01269 0.45050 0.01400
C 	C 	0.98570 0.93561 0.44632 -0.05700
C 	C 	0.91028 0.89291 0.45016 0.02200
C 	C 	0.87628 0.92795 0.45685 -0.06800
H 	H 	0.02622 0.10704 0.45987 0.04800
H 	H 	0.01199 0.90899 0.44053 0.04600
H 	H 	0.81814 0.89550 0.45996 0.05100
Cu	Cu	0.64839 0.23585 0.00740 0.92700
Cu	Cu	0.64372 0.17900 0.91504 0.87900
Cu	Cu	0.69201 0.34151 0.95015 0.90600
Cu	Cu	0.65747 0.38075 0.02823 0.90000
C 	C 	0.66615 0.29659 0.08691 0.30600
O 	O 	0.54110 0.19018 0.01231 -0.35100
C 	C 	0.65225 0.27732 0.86663 0.30600
O 	O 	0.70692 0.34810 0.00503 -0.64400
O 	O 	0.62451 0.23239 0.95087 -0.63700
O 	O 	0.70584 0.19360 0.00710 -0.36500
O 	O 	0.63955 0.11650 0.94843 -0.41800
O 	O 	0.67537 0.35765 0.07975 -0.36800
O 	O 	0.75440 0.44803 0.95460 -0.36200
C 	C 	0.74678 0.49030 0.97899 0.28000
C 	C 	0.50981 0.22247 0.00393 0.28200
O 	O 	0.54922 0.28797 0.99413 -0.36700
O 	O 	0.68873 0.46040 0.99677 -0.37900
O 	O 	0.68085 0.25999 0.06282 -0.35600
C 	C 	0.69234 0.14231 0.97890 0.28000
O 	O 	0.70017 0.33490 0.89482 -0.37500
O 	O 	0.61181 0.20944 0.87370 -0.40800
H 	H 	0.76066 0.37823 0.01692 0.16300
H 	H 	0.57195 0.21346 0.94283 0.17200
Cu	Cu	0.71211 0.32698 0.44937 0.92500
Cu	Cu	0.75688 0.30945 0.53662 0.88700
Cu	Cu	0.62072 0.32060 0.50985 0.91100
Cu	Cu	0.57585 0.33399 0.42855 0.89700
C 	C 	0.64898 0.30613 0.36974 0.30700
O 	O 	0.76619 0.43383 0.44194 -0.36000
C 	C 	0.67026 0.32196 0.58669 0.31100
O 	O 	0.60161 0.28207 0.45559 -0.63800
O 	O 	0.72543 0.35772 0.50620 -0.63000
O 	O 	0.74419 0.26099 0.44857 -0.36000
O 	O 	0.82578 0.31779 0.50653 -0.40800
O 	O 	0.59276 0.30689 0.37708 -0.37700
O 	O 	0.51740 0.27671 0.51193 -0.37200
C 	C 	0.47113 0.27171 0.48345 0.28600
C 	C 	0.74000 0.47124 0.45055 0.28100
O 	O 	0.67504 0.43837 0.46140 -0.38700
O 	O 	0.49669 0.31602 0.45787 -0.38600
O 	O 	0.68128 0.28846 0.39465 -0.34600
C 	C 	0.80136 0.27456 0.47240 0.28500
O 	O 	0.64413 0.34957 0.56576 -0.37400
O 	O 	0.68223 0.27691 0.56927 -0.40800
H 	H 	0.56470 0.22741 0.44859 0.17000
H 	H 	0.76087 0.41222 0.51472 0.16800
C 	C 	0.66287 0.36017 0.77639 -0.07300
C 	C 	0.65830 0.30883 0.74825 0.02700
C 	C 	0.64949 0.24615 0.75880 0.05400
C 	C 	0.64719 0.23635 0.79745 -0.00400
C 	C 	0.65214 0.28778 0.82578 -0.09500
C 	C 	0.65871 0.34948 0.81498 0.12100
C 	C 	0.66477 0.32175 0.70792 0.02400
N 	N 	0.64320 0.19241 0.73027 -0.01600
H 	H 	0.64195 0.18877 0.80548 0.04800
N 	N 	0.65908 0.40014 0.84277 -0.02100
H 	H 	0.66875 0.40797 0.76821 0.08100
C 	C 	0.60437 0.30887 0.68238 0.05700
C 	C 	0.60831 0.31311 0.64309 -0.00000
C 	C 	0.67154 0.32896 0.62890 -0.09300
C 	C 	0.73353 0.34579 0.65489 0.11400
C 	C 	0.72974 0.34204 0.69422 -0.06900
N 	N 	0.53820 0.28962 0.69603 -0.01600
H 	H 	0.56082 0.30089 0.62330 0.06300
N 	N 	0.80054 0.36707 0.64147 -0.02900
H 	H 	0.77694 0.35370 0.71401 0.07900
O 	O 	0.71395 0.47064 0.84890 -0.10300
O 	O 	0.60191 0.37659 0.85969 -0.10500
O 	O 	0.68991 0.17642 0.73523 -0.10600
O 	O 	0.58798 0.15607 0.70067 -0.09200
O 	O 	0.83510 0.42350 0.62400 -0.13900
O 	O 	0.82964 0.33309 0.64897 -0.11400
O 	O 	0.51615 0.33090 0.69294 -0.10100
O 	O 	0.49684 0.22784 0.70864 -0.09100
C 	C 	0.60394 0.27258 0.18357 -0.07000
C 	C 	0.66692 0.28830 0.20752 0.02400
C 	C 	0.72564 0.29720 0.19080 0.05800
C 	C 	0.72239 0.29414 0.15056 -0.00200
C 	C 	0.66138 0.28297 0.12697 -0.08500
C 	C 	0.60072 0.26948 0.14342 0.11600
C 	C 	0.67164 0.29713 0.25016 0.02800
N 	N 	0.78934 0.31095 0.21465 -0.01600
H 	H 	0.76897 0.30400 0.13798 0.06300
N 	N 	0.53540 0.25188 0.11929 -0.02700
H 	H 	0.55769 0.26346 0.19621 0.07800
C 	C 	0.68251 0.35968 0.27141 0.05500
C 	C 	0.67657 0.36262 0.31074 -0.00500
C 	C 	0.66066 0.30413 0.32925 -0.08900
C 	C 	0.65215 0.24257 0.30828 0.12200
C 	C 	0.65828 0.23976 0.26896 -0.07400
N 	N 	0.69834 0.41978 0.25294 -0.01600
H 	H 	0.68406 0.41039 0.32688 0.05300
N 	N 	0.63416 0.18146 0.32632 -0.02100
H 	H 	0.64989 0.19161 0.25268 0.08100
O 	O 	0.51419 0.29380 0.12520 -0.11200
O 	O 	0.49361 0.19054 0.09374 -0.10600
O 	O 	0.80768 0.26683 0.20770 -0.10100
O 	O 	0.83224 0.37058 0.24132 -0.09000
O 	O 	0.56951 0.13969 0.33667 -0.10000
O 	O 	0.67988 0.16404 0.32951 -0.09500
O 	O 	0.65723 0.44251 0.25470 -0.10500
O 	O 	0.75635 0.45447 0.23627 -0.09200
C 	C 	0.86722 0.81153 0.44713 0.01700
C 	C 	0.79807 0.76314 0.42150 -0.04400
C 	C 	0.76020 0.68644 0.41624 -0.02800
C 	C 	0.79169 0.65721 0.43599 -0.00400
C 	C 	0.86155 0.70552 0.46151 0.04200
C 	C 	0.89817 0.78236 0.46766 -0.06900
C 	C 	0.89395 0.67631 0.48045 -0.06700
C 	C 	0.85619 0.59955 0.47496 0.01700
C 	C 	0.78547 0.55129 0.45083 -0.07700
C 	C 	0.75389 0.58025 0.43086 -0.00600
H 	H 	0.77425 0.78502 0.40512 0.04600
H 	H 	0.70676 0.64984 0.39647 0.04200
H 	H 	0.95108 0.81949 0.48787 0.05200
H 	H 	0.94794 0.71291 0.49975 0.05200
H 	H 	0.88073 0.57754 0.49056 0.03300
H 	H 	0.69934 0.54285 0.41204 0.03300
C 	C 	0.82641 0.22834 0.46436 -0.07600
C 	C 	0.84218 0.21870 0.42761 0.02100
C 	C 	0.85952 0.16972 0.41855 -0.06400
C 	C 	0.86039 0.12912 0.44603 0.04300
C 	C 	0.84368 0.13793 0.48293 -0.00400
C 	C 	0.82741 0.18806 0.49206 -0.00700
C 	C 	0.84372 0.09665 0.51024 -0.02900
C 	C 	0.86314 0.04924 0.50155 -0.04300
C 	C 	0.88261 0.04251 0.46551 0.01700
C 	C 	0.87917 0.08093 0.43739 -0.06800
H 	H 	0.84061 0.24892 0.40595 0.04900
H 	H 	0.87203 0.16323 0.39011 0.05700
H 	H 	0.81391 0.19450 0.52023 0.02900
H 	H 	0.83011 0.10229 0.53846 0.04300
H 	H 	0.86574 0.01983 0.52339 0.04700
H 	H 	0.89382 0.07537 0.40944 0.05400
C 	C 	0.10800 0.05766 0.45008 0.01900
C 	C 	0.13310 0.06773 0.41461 -0.04600
C 	C 	0.20966 0.11209 0.41413 -0.02900
C 	C 	0.26180 0.14670 0.44921 -0.00600
C 	C 	0.23660 0.13617 0.48502 0.04200
C 	C 	0.15966 0.09166 0.48525 -0.07100
C 	C 	0.28873 0.17041 0.52008 -0.06700
C 	C 	0.36533 0.21483 0.51962 0.01700
C 	C 	0.39060 0.22568 0.48410 -0.07600
C 	C 	0.33870 0.19157 0.44896 -0.00900
H 	H 	0.09321 0.04149 0.38740 0.04600
H 	H 	0.22837 0.11965 0.38651 0.04000
H 	H 	0.13990 0.08359 0.51263 0.05300
H 	H 	0.27000 0.16272 0.54769 0.05500
H 	H 	0.40503 0.24128 0.54689 0.04700
H 	H 	0.35821 0.19934 0.42151 0.03400
C 	C 	0.92916 0.84810 0.01710 0.00600
C 	C 	0.89596 0.81788 0.04873 -0.04000
C 	C 	0.85532 0.74174 0.04796 -0.03300
C 	C 	0.84721 0.69496 0.01542 -0.00300
C 	C 	0.88106 0.72522 0.98361 0.04000
C 	C 	0.92210 0.80180 0.98466 -0.06100
C 	C 	0.87267 0.67835 0.95102 -0.06200
C 	C 	0.82993 0.60183 0.94971 0.01300
C 	C 	0.79522 0.57133 0.98103 -0.06400
C 	C 	0.80492 0.61826 0.01408 -0.01700
H 	H 	0.90158 0.85346 0.07391 0.04500
H 	H 	0.82976 0.71912 0.07256 0.04200
H 	H 	0.94778 0.82531 0.96021 0.05100
H 	H 	0.89861 0.70101 0.92652 0.05300
H 	H 	0.82284 0.56622 0.92408 0.05700
H 	H 	0.77922 0.59501 0.03857 0.03700
C 	C 	0.92893 0.06647 0.01083 0.00100
C 	C 	0.95416 0.13105 0.03685 -0.03100
C 	C 	0.91262 0.15878 0.03603 -0.03600
C 	C 	0.84478 0.12160 0.00956 -0.00200
C 	C 	0.81908 0.05649 0.98344 0.03500
C 	C 	0.86193 0.03003 0.98373 -0.05400
C 	C 	0.75057 0.01829 0.95760 -0.06000
C 	C 	0.70822 0.04492 0.95718 0.00500
C 	C 	0.73418 0.11080 0.98229 -0.07400
C 	C 	0.80232 0.14870 0.00879 -0.01800
H 	H 	0.00544 0.15920 0.05807 0.03800
H 	H 	0.93287 0.20869 0.05626 0.04500
H 	H 	0.84282 0.98069 0.96329 0.04600
H 	H 	0.72999 0.96785 0.93775 0.04600
H 	H 	0.65538 0.01456 0.93702 0.03700
H 	H 	0.82277 0.19952 0.02825 0.04800
C 	C 	0.42865 0.18149 0.00070 -0.07300
C 	C 	0.37931 0.11280 0.97540 0.02300
C 	C 	0.30199 0.07491 0.97128 -0.06700
C 	C 	0.27326 0.10473 0.99307 0.04500
C 	C 	0.32281 0.17341 0.01903 -0.00400
C 	C 	0.40040 0.21207 0.02223 -0.00000
C 	C 	0.29410 0.20182 0.04192 -0.02800
C 	C 	0.21684 0.16153 0.03977 -0.04000
C 	C 	0.16726 0.09317 0.01404 0.00700
C 	C 	0.19570 0.06595 0.98994 -0.06200
H 	H 	0.40088 0.08920 0.95853 0.03200
H 	H 	0.26450 0.02214 0.95141 0.05200
H 	H 	0.43870 0.26520 0.04180 0.04600
H 	H 	0.33161 0.25436 0.06198 0.04600
H 	H 	0.19557 0.18271 0.05870 0.04400
H 	H 	0.15754 0.01385 0.96954 0.05000
