data_crystal

_cell_length_a 31.70399
_cell_length_b 28.29624
_cell_length_c 19.00913
_cell_angle_alpha 92.67385
_cell_angle_beta  85.31925
_cell_angle_gamma 124.33654

_symmetry_space_group_name_	'P 1'
_symmetry_space_group_name_H-M	'P 1'

loop_
_symmetry_equiv_pos_as_xyz
  x,y,z

loop_
_atom_site_label
_atom_site_type_symbol
_atom_site_fract_x
_atom_site_fract_y
_atom_site_fract_z
_atom_site_charge
C 	C 	0.92850 0.08022 0.89138 0.00400
C 	C 	0.93943 0.05081 0.83995 -0.02700
C 	C 	0.96038 0.02141 0.85878 -0.06900
C 	C 	0.95678 0.04790 0.98125 -0.05700
C 	C 	0.93829 0.07969 0.96185 -0.01700
C 	C 	0.13332 0.05192 0.99474 0.03200
C 	C 	0.09327 0.00788 0.03741 -0.04000
C 	C 	0.04252 0.98306 0.02218 -0.07700
C 	C 	0.03118 0.00214 0.96445 0.08600
C 	C 	0.07146 0.04557 0.92064 -0.06800
C 	C 	0.12230 0.07014 0.93569 -0.03600
C 	C 	0.89593 0.81141 0.86292 0.00600
C 	C 	0.94617 0.85225 0.83651 -0.03000
C 	C 	0.95039 0.92231 0.92013 0.07700
C 	C 	0.89957 0.88217 0.94417 -0.06600
C 	C 	0.87244 0.82710 0.91576 -0.02900
H 	H 	0.93016 0.04922 0.78602 0.03800
H 	H 	0.92995 0.10234 0.00192 0.03100
H 	H 	0.10150 0.99317 0.08268 0.03800
H 	H 	0.01180 0.94951 0.05590 0.04900
H 	H 	0.06347 0.06046 0.87549 0.04800
H 	H 	0.15307 0.10377 0.90204 0.04100
H 	H 	0.96445 0.84085 0.79508 0.03800
H 	H 	0.01178 0.93885 0.84348 0.04400
H 	H 	0.88147 0.89346 0.98601 0.05300
H 	H 	0.83376 0.79589 0.93672 0.04100
C 	C 	0.93567 0.09059 0.55016 0.00600
C 	C 	0.93849 0.04681 0.51772 -0.03000
C 	C 	0.96039 0.02358 0.55165 -0.06600
C 	C 	0.95673 0.11255 0.61545 -0.02900
N 	N 	0.99860 0.01757 0.65754 -0.13900
C 	C 	0.15966 0.09513 0.64189 0.00600
C 	C 	0.13029 0.06788 0.70442 -0.03100
C 	C 	0.07771 0.04402 0.70976 -0.06500
C 	C 	0.05378 0.04687 0.65274 0.07200
C 	C 	0.08352 0.07509 0.59033 -0.06700
C 	C 	0.13616 0.09950 0.58539 -0.03000
C 	C 	0.91562 0.83574 0.64736 0.00600
C 	C 	0.96131 0.86935 0.60552 -0.03200
C 	C 	0.92385 0.92190 0.69332 -0.06500
C 	C 	0.89666 0.86217 0.69069 -0.03000
H 	H 	0.92308 0.03025 0.46675 0.03900
H 	H 	0.96278 0.99023 0.52573 0.04800
H 	H 	0.95556 0.14709 0.64026 0.04000
H 	H 	0.14797 0.06408 0.74830 0.03700
H 	H 	0.05510 0.02156 0.75732 0.04500
H 	H 	0.06581 0.07668 0.54506 0.04800
H 	H 	0.15857 0.12088 0.53710 0.03900
H 	H 	0.02244 0.95413 0.57292 0.04400
H 	H 	0.90899 0.94195 0.72699 0.04900
H 	H 	0.86110 0.83648 0.72265 0.03900
Co	Co	0.69388 0.31130 0.95166 1.18500
O 	O 	0.75184 0.30958 0.89310 -0.38800
Co	Co	0.58394 0.29571 0.00482 1.18100
O 	O 	0.61816 0.25291 0.93557 -0.45400
O 	O 	0.63201 0.37725 0.97378 -0.41100
O 	O 	0.71190 0.25215 0.97920 -0.34800
C 	C 	0.67433 0.39842 0.93161 0.34500
O 	O 	0.56093 0.26308 0.90129 -0.35400
C 	C 	0.49852 0.24351 0.08175 0.29500
C 	C 	0.68023 0.34536 0.08158 0.30600
O 	O 	0.52602 0.29688 0.06421 -0.37400
O 	O 	0.52081 0.21916 0.05647 -0.34700
O 	O 	0.72261 0.36341 0.04377 -0.37500
O 	O 	0.64185 0.30068 0.05278 -0.45900
O 	O 	0.68682 0.36519 0.89924 -0.53800
C 	C 	0.74816 0.27022 0.92999 0.29900
C 	C 	0.59276 0.24915 0.88275 0.31700
H 	H 	0.70355 0.37515 0.84955 0.17100
Co	Co	0.72747 0.31869 0.46883 1.18400
O 	O 	0.78800 0.32062 0.41265 -0.37900
Co	Co	0.62993 0.32916 0.51760 1.18400
O 	O 	0.67113 0.31590 0.41863 -0.45300
O 	O 	0.69135 0.38813 0.56604 -0.42800
O 	O 	0.71678 0.24135 0.42636 -0.34700
C 	C 	0.73695 0.42218 0.53367 0.34100
O 	O 	0.64947 0.37513 0.42106 -0.36700
C 	C 	0.53344 0.28275 0.54327 0.29400
C 	C 	0.67443 0.27789 0.59336 0.31800
O 	O 	0.56947 0.32517 0.57706 -0.38000
O 	O 	0.55172 0.26434 0.49482 -0.34800
O 	O 	0.72097 0.29391 0.57569 -0.35800
O 	O 	0.65059 0.27560 0.53968 -0.46100
O 	O 	0.75863 0.40196 0.49055 -0.52500
C 	C 	0.76356 0.26627 0.40076 0.29500
C 	C 	0.67457 0.35718 0.38541 0.30300
H 	H 	0.79424 0.42977 0.46802 0.16800
C 	C 	0.61044 0.24975 0.80793 -0.10400
C 	C 	0.58237 0.24774 0.75243 0.09100
C 	C 	0.60296 0.25498 0.68232 -0.04000
C 	C 	0.65216 0.26694 0.66725 -0.10300
C 	C 	0.67938 0.26725 0.72289 0.09200
C 	C 	0.65634 0.25420 0.79174 -0.04700
H 	H 	0.58041 0.25084 0.63979 0.03600
H 	H 	0.67427 0.24770 0.83246 0.02900
N 	N 	0.53148 0.23452 0.76691 -0.13100
N 	N 	0.73082 0.28189 0.70974 -0.13200
C 	C 	0.53115 0.28577 0.76195 -0.09600
H 	H 	0.55961 0.32072 0.79586 0.06800
H 	H 	0.49264 0.27534 0.78020 0.06400
H 	H 	0.53956 0.30096 0.70667 0.06500
C 	C 	0.76812 0.34325 0.72063 -0.08800
H 	H 	0.76407 0.36868 0.68224 0.06000
H 	H 	0.80742 0.35325 0.71223 0.05500
H 	H 	0.76329 0.35639 0.77498 0.04900
H 	H 	0.50629 0.20290 0.73228 0.08300
H 	H 	0.73747 0.25800 0.74193 0.08600
C 	C 	0.67864 0.35884 0.30746 -0.09100
C 	C 	0.71857 0.35919 0.26880 0.07800
C 	C 	0.71885 0.35489 0.19484 -0.03000
C 	C 	0.68060 0.35239 0.15900 -0.09400
C 	C 	0.64293 0.35649 0.19733 0.07900
C 	C 	0.64164 0.35883 0.27142 -0.03100
H 	H 	0.74886 0.35342 0.16544 0.05200
H 	H 	0.61160 0.36024 0.30078 0.05400
N 	N 	0.75987 0.36586 0.30456 -0.15400
N 	N 	0.60671 0.35983 0.16084 -0.15200
C 	C 	0.80311 0.42594 0.30455 -0.09500
H 	H 	0.81865 0.44161 0.24974 0.05000
H 	H 	0.83400 0.43028 0.33389 0.04900
H 	H 	0.79135 0.45291 0.33146 0.04700
C 	C 	0.62471 0.41955 0.15104 -0.09500
H 	H 	0.62804 0.44102 0.20281 0.05200
H 	H 	0.59690 0.42106 0.12098 0.05800
H 	H 	0.66233 0.44309 0.12017 0.05300
H 	H 	0.77149 0.34056 0.28056 0.08400
H 	H 	0.57082 0.33768 0.18870 0.08500
C 	C 	0.83836 0.65636 0.61791 0.05200
N 	N 	0.81861 0.68475 0.59574 -0.10600
C 	C 	0.84133 0.74167 0.60837 0.02300
C 	C 	0.88670 0.77284 0.64346 -0.01500
C 	C 	0.90696 0.74423 0.66809 -0.01800
C 	C 	0.88255 0.68569 0.65583 -0.05500
H 	H 	0.82512 0.76311 0.58894 0.03300
H 	H 	0.94204 0.76748 0.69526 0.03400
H 	H 	0.89872 0.66366 0.67358 0.04500
C 	C 	0.76767 0.48272 0.55526 -0.13800
C 	C 	0.77652 0.49729 0.62646 0.05100
C 	C 	0.80092 0.55438 0.64725 -0.08900
C 	C 	0.81569 0.59643 0.59661 0.07000
N 	N 	0.80700 0.58139 0.52747 -0.12000
C 	C 	0.78399 0.52601 0.50592 0.07400
H 	H 	0.76391 0.46444 0.66560 0.02200
H 	H 	0.80755 0.56578 0.70234 0.06000
H 	H 	0.77707 0.51545 0.45071 0.01500
C 	C 	0.85977 0.15459 0.45721 0.05100
N 	N 	0.90613 0.16762 0.42916 -0.10800
C 	C 	0.93053 0.14661 0.45745 0.02100
C 	C 	0.90858 0.11159 0.51747 -0.01400
C 	C 	0.86111 0.09783 0.54711 -0.01900
C 	C 	0.83658 0.11936 0.51707 -0.05700
H 	H 	0.84356 0.07101 0.59365 0.03800
H 	H 	0.80039 0.10985 0.54099 0.04800
C 	C 	0.78976 0.23641 0.39824 -0.10600
C 	C 	0.76108 0.17649 0.40000 0.03500
C 	C 	0.78445 0.14898 0.41520 -0.08100
C 	C 	0.83651 0.18171 0.42850 0.06700
N 	N 	0.86481 0.23959 0.42012 -0.11700
C 	C 	0.84283 0.26731 0.40482 0.06700
H 	H 	0.72039 0.15142 0.39278 0.03700
H 	H 	0.76192 0.10275 0.41917 0.05300
H 	H 	0.86622 0.31354 0.40094 0.03200
C 	C 	0.31878 0.16260 0.61707 0.05100
N 	N 	0.29966 0.17924 0.67220 -0.10700
C 	C 	0.24873 0.15724 0.68181 0.02200
C 	C 	0.21452 0.11679 0.63423 -0.01400
C 	C 	0.23329 0.09856 0.57787 -0.01900
C 	C 	0.28554 0.12189 0.56868 -0.05800
H 	H 	0.23498 0.17198 0.72568 0.03300
H 	H 	0.20757 0.06712 0.54066 0.03500
H 	H 	0.30025 0.10962 0.52324 0.04600
C 	C 	0.47921 0.25010 0.56921 -0.11000
C 	C 	0.44798 0.19060 0.56120 0.03500
C 	C 	0.39568 0.16110 0.57994 -0.08200
C 	C 	0.37472 0.19168 0.60484 0.06700
N 	N 	0.40621 0.24921 0.61567 -0.11600
C 	C 	0.45754 0.27866 0.59896 0.06600
H 	H 	0.46408 0.16734 0.54025 0.03500
H 	H 	0.37153 0.11499 0.57436 0.05200
H 	H 	0.48127 0.32454 0.60689 0.03000
C 	C 	0.80837 0.63224 0.84841 0.04800
N 	N 	0.79016 0.66181 0.82492 -0.10700
C 	C 	0.82003 0.71999 0.82076 0.02300
C 	C 	0.87025 0.75074 0.84230 -0.01500
C 	C 	0.89133 0.72065 0.85798 -0.02000
C 	C 	0.86039 0.66110 0.86058 -0.05900
H 	H 	0.80374 0.74249 0.80527 0.03300
H 	H 	0.93043 0.74336 0.87307 0.03600
H 	H 	0.87576 0.63776 0.87671 0.04400
C 	C 	0.70438 0.45943 0.91329 -0.14100
C 	C 	0.73575 0.50038 0.96226 0.06000
C 	C 	0.76983 0.55717 0.94136 -0.09200
C 	C 	0.77226 0.57254 0.87127 0.07000
N 	N 	0.73975 0.53249 0.82507 -0.12300
C 	C 	0.70641 0.47665 0.84436 0.07700
H 	H 	0.73482 0.48795 0.01573 0.00900
H 	H 	0.79446 0.58900 0.97912 0.05700
H 	H 	0.68215 0.44545 0.80581 0.01800
C 	C 	0.82186 0.18544 0.87371 0.06800
N 	N 	0.78215 0.16313 0.92383 -0.11500
C 	C 	0.75702 0.18870 0.94098 0.07100
C 	C 	0.77153 0.23907 0.90663 -0.11000
C 	C 	0.81064 0.26110 0.85254 0.03400
C 	C 	0.83583 0.23415 0.83582 -0.08300
H 	H 	0.72635 0.17036 0.98216 0.03900
H 	H 	0.82223 0.29959 0.82462 0.03000
H 	H 	0.86660 0.25155 0.79473 0.05200
C 	C 	0.90383 0.10855 0.87257 -0.01200
C 	C 	0.93083 0.16822 0.87392 -0.02000
C 	C 	0.90473 0.19423 0.86904 -0.05600
C 	C 	0.85157 0.16011 0.86300 0.05100
N 	N 	0.82645 0.10214 0.85827 -0.10700
C 	C 	0.85139 0.07600 0.86208 0.02200
H 	H 	0.92510 0.24031 0.87377 0.04600
H 	H 	0.83000 0.02974 0.86025 0.03500
C 	C 	0.33823 0.15469 0.07259 0.06800
N 	N 	0.36706 0.21191 0.08635 -0.11800
C 	C 	0.41799 0.24053 0.09579 0.06800
C 	C 	0.44214 0.21133 0.09062 -0.10600
C 	C 	0.41202 0.15163 0.08332 0.03500
C 	C 	0.35992 0.12318 0.07408 -0.08300
H 	H 	0.44010 0.28636 0.10426 0.03200
H 	H 	0.42928 0.12767 0.08166 0.03700
H 	H 	0.33689 0.07729 0.06591 0.05100
C 	C 	0.18670 0.07950 0.01271 -0.04000
C 	C 	0.22013 0.07135 0.96998 -0.00300
C 	C 	0.26970 0.09524 0.98973 -0.05000
C 	C 	0.28540 0.12708 0.05245 0.04300
N 	N 	0.25256 0.13545 0.09265 -0.10900
C 	C 	0.20390 0.11221 0.07447 0.02800
H 	H 	0.20764 0.04631 0.92197 0.03300
H 	H 	0.29590 0.08959 0.95631 0.04900
H 	H 	0.17853 0.11909 0.10803 0.03000
H 	H 	0.96732 0.15779 0.43391 0.03300
C 	C 	0.96658 0.01732 0.93027 0.07900
N 	N 	0.97833 0.97819 0.95261 -0.14200
C 	C 	0.97324 0.90763 0.86458 -0.06300
H 	H 	0.97003 0.00019 0.81845 0.05100
H 	H 	0.96212 0.04562 0.03623 0.04400
C 	C 	0.97904 0.04355 0.61907 0.07600
C 	C 	0.97900 0.08970 0.64912 -0.06700
C 	C 	0.97004 0.95575 0.65236 0.07200
H 	H 	0.97567 0.84922 0.57086 0.03900
H 	H 	0.97145 0.19420 0.88173 0.03800
C 	C 	0.98813 0.92894 0.60725 -0.06200
H 	H 	0.99628 0.10783 0.69864 0.05100
