data_crystal

_cell_length_a 27.02886
_cell_length_b 23.13814
_cell_length_c 48.86434
_cell_angle_alpha 90.58071
_cell_angle_beta  91.41427
_cell_angle_gamma 110.89719

_symmetry_space_group_name_	'P 1'
_symmetry_space_group_name_H-M	'P 1'

loop_
_symmetry_equiv_pos_as_xyz
  x,y,z

loop_
_atom_site_label
_atom_site_type_symbol
_atom_site_fract_x
_atom_site_fract_y
_atom_site_fract_z
_atom_site_charge
Ni	Ni	0.71046 0.30115 0.88404 1.10100
O 	O 	0.64719 0.25522 0.85859 -0.70600
Ni	Ni	0.58778 0.26105 0.88026 1.10300
O 	O 	0.76090 0.28696 0.85644 -0.36900
O 	O 	0.71661 0.18199 0.85640 -0.40900
O 	O 	0.71152 0.37820 0.86346 -0.39700
Ni	Ni	0.63571 0.16840 0.85295 1.06500
O 	O 	0.72643 0.36383 0.94592 -0.39800
O 	O 	0.63125 0.15001 0.89380 -0.41400
O 	O 	0.52984 0.22172 0.85141 -0.37900
O 	O 	0.64990 0.29497 0.90787 -0.70100
O 	O 	0.77419 0.35368 0.90853 -0.37300
O 	O 	0.53744 0.29144 0.90214 -0.36500
O 	O 	0.60058 0.38807 0.90567 -0.40400
Ni	Ni	0.66479 0.37573 0.92541 1.08400
H 	H 	0.64864 0.27583 0.84081 0.15900
H 	H 	0.64803 0.26454 0.92225 0.16500
C 	C 	0.58851 0.14481 0.90724 0.29400
O 	O 	0.71798 0.43925 0.90146 -0.38800
C 	C 	0.75513 0.23099 0.84746 0.29000
C 	C 	0.52383 0.16710 0.84032 0.29500
C 	C 	0.72360 0.43297 0.87511 0.32500
C 	C 	0.55226 0.34980 0.91010 0.28000
C 	C 	0.77196 0.37089 0.93435 0.29300
O 	O 	0.56019 0.17896 0.90090 -0.36400
O 	O 	0.55418 0.13572 0.84856 -0.40600
Ni	Ni	0.63993 0.33400 0.55161 1.09900
O 	O 	0.69883 0.35525 0.52372 -0.69900
Ni	Ni	0.74937 0.31892 0.54107 1.09900
O 	O 	0.60474 0.39253 0.53596 -0.36800
O 	O 	0.68333 0.47346 0.53673 -0.40300
O 	O 	0.58958 0.26805 0.52495 -0.37100
Ni	Ni	0.73535 0.44288 0.51568 1.07300
O 	O 	0.57259 0.20387 0.57154 -0.40900
O 	O 	0.78803 0.47663 0.54806 -0.38700
O 	O 	0.81181 0.35018 0.51503 -0.37500
O 	O 	0.68762 0.29270 0.56749 -0.70200
O 	O 	0.58295 0.30544 0.58010 -0.38100
O 	O 	0.78650 0.26706 0.56089 -0.36600
O 	O 	0.71294 0.17941 0.55748 -0.40800
Ni	Ni	0.64750 0.20368 0.56540 1.06500
H 	H 	0.68510 0.33286 0.50618 0.15600
H 	H 	0.69880 0.30703 0.58658 0.15700
C 	C 	0.81432 0.44557 0.55995 0.31300
O 	O 	0.63677 0.20401 0.52418 -0.41400
C 	C 	0.63221 0.45080 0.53120 0.28000
C 	C 	0.82588 0.40417 0.50265 0.28800
C 	C 	0.60043 0.22259 0.51333 0.29400
C 	C 	0.76072 0.20954 0.56777 0.29500
C 	C 	0.56009 0.24608 0.58537 0.29700
O 	O 	0.78928 0.38920 0.56810 -0.38800
O 	O 	0.78963 0.42471 0.49243 -0.40800
Ni	Ni	0.01994 0.94071 0.72911 1.09800
O 	O 	0.03682 0.87916 0.70451 -0.71300
Ni	Ni	0.07133 0.93260 0.67339 1.09900
O 	O 	0.98523 0.87295 0.75687 -0.35900
O 	O 	0.92756 0.81327 0.72409 -0.40900
O 	O 	0.09097 0.96216 0.75136 -0.36800
Ni	Ni	0.97158 0.81664 0.68942 1.06800
O 	O 	0.08044 0.07653 0.74764 -0.41500
O 	O 	0.94082 0.87932 0.67433 -0.41200
O 	O 	0.08811 0.86519 0.65230 -0.36900
O 	O 	0.04711 0.99359 0.69598 -0.67900
O 	O 	0.99943 0.00164 0.75210 -0.38300
O 	O 	0.12220 0.99647 0.64826 -0.35000
O 	O 	0.13546 0.08810 0.67014 -0.40300
Ni	Ni	0.10348 0.07000 0.70860 1.06700
H 	H 	0.06058 0.86046 0.71348 0.15700
H 	H 	0.01826 0.00408 0.68708 0.14200
C 	C 	0.96164 0.91450 0.65365 0.32000
O 	O 	0.14740 0.01813 0.71886 -0.44400
C 	C 	0.94821 0.82034 0.74907 0.29400
C 	C 	0.04958 0.81096 0.64845 0.29300
C 	C 	0.13888 0.98516 0.74111 0.31600
C 	C 	0.15453 0.05058 0.65763 0.29400
C 	C 	0.03024 0.05986 0.75389 0.30300
O 	O 	0.00954 0.92148 0.64590 -0.37100
O 	O 	0.00000 0.80559 0.65228 -0.40800
Ni	Ni	0.26030 0.68950 0.38939 1.10000
O 	O 	0.32480 0.72180 0.36540 -0.70600
Ni	Ni	0.38372 0.73016 0.39243 1.10100
O 	O 	0.21168 0.68796 0.35646 -0.36900
O 	O 	0.25429 0.79122 0.34914 -0.40400
O 	O 	0.25669 0.60330 0.37726 -0.39400
Ni	Ni	0.33500 0.80362 0.35153 1.06800
O 	O 	0.23651 0.63725 0.45247 -0.41000
O 	O 	0.33577 0.84087 0.38966 -0.41000
O 	O 	0.44331 0.75783 0.36540 -0.37700
O 	O 	0.31972 0.70583 0.41723 -0.70000
O 	O 	0.19480 0.65231 0.41296 -0.37500
O 	O 	0.43491 0.71756 0.42165 -0.36700
O 	O 	0.37637 0.62135 0.43034 -0.40200
Ni	Ni	0.30627 0.63292 0.44013 1.07600
H 	H 	0.32417 0.69264 0.35031 0.16100
H 	H 	0.32080 0.74123 0.42907 0.15600
C 	C 	0.37757 0.85481 0.40609 0.29500
O 	O 	0.26642 0.55588 0.41653 -0.39300
C 	C 	0.21519 0.73846 0.34334 0.29500
C 	C 	0.44729 0.80359 0.34859 0.29300
C 	C 	0.24131 0.55536 0.39315 0.32200
C 	C 	0.42230 0.66571 0.43516 0.27800
C 	C 	0.19378 0.62280 0.43617 0.28900
O 	O 	0.40756 0.82085 0.40614 -0.36700
O 	O 	0.41653 0.83697 0.35123 -0.40000
Ni	Ni	0.33746 0.66119 0.04521 1.10000
O 	O 	0.27323 0.64832 0.01957 -0.70000
Ni	Ni	0.22535 0.67388 0.04392 1.09800
O 	O 	0.36943 0.60993 0.02172 -0.36600
O 	O 	0.29101 0.52854 0.01892 -0.40400
O 	O 	0.38260 0.73573 0.02276 -0.36500
Ni	Ni	0.23589 0.56511 0.00423 1.07100
O 	O 	0.40655 0.78295 0.07506 -0.40800
O 	O 	0.18552 0.51650 0.03371 -0.39200
O 	O 	0.15693 0.64919 0.01994 -0.37700
O 	O 	0.29259 0.69394 0.06815 -0.70300
O 	O 	0.39977 0.68114 0.07243 -0.37700
O 	O 	0.19187 0.71491 0.07178 -0.36900
O 	O 	0.26267 0.80546 0.07098 -0.41000
Ni	Ni	0.33059 0.78278 0.07298 1.06500
H 	H 	0.28323 0.67748 0.00424 0.15600
H 	H 	0.28574 0.67314 0.08600 0.15700
C 	C 	0.16601 0.54069 0.05320 0.31300
O 	O 	0.33578 0.79783 0.03214 -0.41700
C 	C 	0.34132 0.55345 0.01316 0.27700
C 	C 	0.14287 0.60430 0.00107 0.29000
C 	C 	0.37171 0.78590 0.01809 0.29300
C 	C 	0.21742 0.77136 0.08138 0.29400
C 	C 	0.42156 0.73725 0.08344 0.29800
O 	O 	0.19486 0.59348 0.06504 -0.39200
O 	O 	0.17869 0.59153 0.98674 -0.41000
Ni	Ni	0.94717 0.03170 0.24597 1.09500
O 	O 	0.93978 0.09686 0.22010 -0.71000
Ni	Ni	0.91108 0.04650 0.18602 1.09500
O 	O 	0.97756 0.09719 0.27667 -0.36000
O 	O 	0.04371 0.15501 0.24954 -0.41400
O 	O 	0.87230 0.01345 0.26155 -0.37900
Ni	Ni	0.00939 0.15659 0.21113 1.06200
O 	O 	0.87982 0.89468 0.25750 -0.41300
O 	O 	0.03961 0.09134 0.19871 -0.41800
O 	O 	0.90299 0.11736 0.16379 -0.37300
O 	O 	0.92665 0.98160 0.21043 -0.68500
O 	O 	0.95891 0.96741 0.27067 -0.37400
O 	O 	0.86371 0.98652 0.15639 -0.35500
O 	O 	0.84586 0.89290 0.17587 -0.40400
Ni	Ni	0.86662 0.90561 0.21704 1.07200
H 	H 	0.91567 0.11724 0.22679 0.15700
H 	H 	0.95664 0.97027 0.20434 0.15800
C 	C 	0.02238 0.05816 0.17619 0.30900
O 	O 	0.82339 0.95961 0.22420 -0.43300
C 	C 	0.01733 0.14874 0.27220 0.28800
C 	C 	0.94402 0.16994 0.16300 0.29300
C 	C 	0.82629 0.98737 0.24806 0.31700
C 	C 	0.82968 0.93191 0.16258 0.31000
C 	C 	0.92796 0.90939 0.26810 0.31000
O 	O 	0.97738 0.05482 0.16428 -0.36800
O 	O 	0.99131 0.17224 0.17177 -0.40400
C 	C 	0.96453 0.31866 0.11558 -0.00900
C 	C 	0.97173 0.31451 0.08739 -0.01700
C 	C 	0.00685 0.36511 0.07389 -0.04200
C 	C 	0.03478 0.42005 0.08851 0.00600
C 	C 	0.02274 0.42657 0.11582 -0.04500
C 	C 	0.98727 0.37613 0.12925 -0.02000
C 	C 	0.94860 0.26308 0.13142 0.04700
C 	C 	0.94198 0.21849 0.14546 -0.10200
C 	C 	0.08079 0.46521 0.07685 0.04500
C 	C 	0.11984 0.50088 0.06661 -0.10100
H 	H 	0.95359 0.27072 0.07646 0.04600
H 	H 	0.01479 0.36024 0.05252 0.05000
H 	H 	0.04317 0.46937 0.12712 0.04400
H 	H 	0.98116 0.38026 0.15091 0.03600
C 	C 	0.57238 0.79750 0.11516 -0.00100
C 	C 	0.61308 0.79463 0.09857 -0.03100
C 	C 	0.66609 0.82566 0.10667 -0.03100
C 	C 	0.67860 0.85993 0.13133 -0.00400
C 	C 	0.63791 0.86244 0.14799 -0.03300
C 	C 	0.58494 0.83135 0.13992 -0.03500
C 	C 	0.51820 0.77230 0.10520 0.04700
C 	C 	0.47342 0.75411 0.09596 -0.09500
C 	C 	0.73296 0.88797 0.14075 0.05000
C 	C 	0.77779 0.90961 0.14985 -0.10600
H 	H 	0.60368 0.76915 0.07924 0.05100
H 	H 	0.69733 0.82289 0.09384 0.04700
H 	H 	0.64729 0.88823 0.16725 0.04000
H 	H 	0.55372 0.83436 0.15271 0.03800
C 	C 	0.14172 0.86539 0.12413 -0.00200
C 	C 	0.08713 0.85176 0.12047 -0.03500
C 	C 	0.06356 0.89076 0.13198 -0.02900
C 	C 	0.09451 0.94359 0.14715 -0.01500
C 	C 	0.14886 0.95637 0.15140 -0.02800
C 	C 	0.17243 0.91734 0.13991 -0.03600
C 	C 	0.16703 0.82970 0.10962 0.04400
C 	C 	0.18927 0.80171 0.09697 -0.10500
C 	C 	0.07065 0.98538 0.15769 0.07000
C 	C 	0.04951 0.01947 0.16625 -0.13800
H 	H 	0.06316 0.81176 0.10826 0.04500
H 	H 	0.02143 0.88043 0.12875 0.04100
H 	H 	0.17297 0.99696 0.16322 0.04200
H 	H 	0.21470 0.92821 0.14277 0.03900
C 	C 	0.68614 0.94245 0.28690 -0.00400
C 	C 	0.63905 0.92593 0.27100 -0.03300
C 	C 	0.59011 0.89770 0.28314 -0.03400
C 	C 	0.58805 0.88580 0.31124 -0.00100
C 	C 	0.63501 0.90377 0.32727 -0.03200
C 	C 	0.68394 0.93197 0.31512 -0.03100
C 	C 	0.73647 0.96256 0.27375 0.05000
C 	C 	0.77805 0.97619 0.26232 -0.10500
C 	C 	0.53777 0.85546 0.32370 0.04400
C 	C 	0.49613 0.83089 0.33466 -0.09600
H 	H 	0.64041 0.93353 0.24913 0.04000
H 	H 	0.55396 0.88444 0.27066 0.03800
H 	H 	0.63370 0.89521 0.34905 0.04900
H 	H 	0.72013 0.94427 0.32754 0.04900
C 	C 	0.14596 0.38932 0.36005 -0.00200
C 	C 	0.16565 0.34140 0.35655 -0.03300
C 	C 	0.13536 0.28738 0.34209 -0.03200
C 	C 	0.08530 0.28111 0.33105 -0.00400
C 	C 	0.06454 0.32774 0.33577 -0.03300
C 	C 	0.09481 0.38174 0.35026 -0.03300
C 	C 	0.17955 0.44773 0.37193 0.05300
C 	C 	0.20782 0.49686 0.38161 -0.09900
C 	C 	0.05922 0.23201 0.31154 0.04300
C 	C 	0.03903 0.19276 0.29417 -0.10700
H 	H 	0.20499 0.34672 0.36428 0.04500
H 	H 	0.15168 0.25152 0.33855 0.04400
H 	H 	0.02585 0.32323 0.32733 0.03900
H 	H 	0.07912 0.41836 0.35313 0.04800
C 	C 	0.99848 0.78783 0.29011 0.01200
C 	C 	0.03438 0.77927 0.27169 -0.04700
C 	C 	0.07517 0.76009 0.28117 -0.02800
C 	C 	0.07986 0.74885 0.30905 -0.00800
C 	C 	0.04095 0.75156 0.32693 -0.02300
C 	C 	0.00033 0.77104 0.31748 -0.05100
C 	C 	0.96882 0.82619 0.28254 0.04600
C 	C 	0.94778 0.86217 0.27612 -0.12000
C 	C 	0.12792 0.74351 0.31995 0.04800
C 	C 	0.16815 0.74078 0.33000 -0.10000
H 	H 	0.03287 0.79147 0.25042 0.03800
H 	H 	0.10464 0.75718 0.26713 0.03700
H 	H 	0.04384 0.74196 0.34846 0.04400
H 	H 	0.97241 0.77687 0.33181 0.05500
C 	C 	0.43898 0.97112 0.46275 -0.02900
C 	C 	0.45341 0.02711 0.44845 0.01400
C 	C 	0.43650 0.02677 0.42110 -0.07100
C 	C 	0.40830 0.97078 0.40738 0.04100
C 	C 	0.39631 0.91434 0.42129 -0.08400
C 	C 	0.41023 0.91520 0.44916 0.01400
C 	C 	0.48997 0.08539 0.46128 0.02200
C 	C 	0.54419 0.10489 0.45602 -0.06100
C 	C 	0.58066 0.15376 0.47132 0.02500
C 	C 	0.56284 0.18265 0.49252 -0.08400
C 	C 	0.50816 0.16683 0.49599 0.01200
C 	C 	0.47170 0.11857 0.48040 -0.04200
C 	C 	0.63611 0.17449 0.46494 0.06800
C 	C 	0.41569 0.10223 0.48464 0.09000
C 	C 	0.45505 0.97052 0.49114 0.09300
C 	C 	0.39424 0.97149 0.37869 0.06900
N 	N 	0.68053 0.19111 0.45982 -0.11500
N 	N 	0.37081 0.08908 0.48803 -0.11600
N 	N 	0.38301 0.97208 0.35571 -0.12400
N 	N 	0.46794 0.97011 0.51387 -0.11500
H 	H 	0.40056 0.87200 0.45997 0.03300
H 	H 	0.44695 0.06995 0.41023 0.05400
H 	H 	0.55806 0.08082 0.44054 0.05300
H 	H 	0.49411 0.19005 0.51175 0.05100
C 	C 	0.96389 0.42406 0.47996 -0.04600
C 	C 	0.98768 0.48899 0.47899 0.03100
C 	C 	0.95877 0.52607 0.48635 -0.06200
C 	C 	0.90606 0.49915 0.49408 0.02500
C 	C 	0.88154 0.43391 0.49437 -0.08000
C 	C 	0.91103 0.39687 0.48752 0.01500
C 	C 	0.04161 0.51862 0.46839 0.01200
C 	C 	0.04867 0.51938 0.44009 -0.05500
C 	C 	0.09824 0.55165 0.42932 0.02200
C 	C 	0.14152 0.58504 0.44710 -0.07600
C 	C 	0.13458 0.58256 0.47557 0.00700
C 	C 	0.08508 0.54921 0.48625 -0.03800
C 	C 	0.10412 0.54992 0.40004 0.07800
C 	C 	0.07935 0.54599 0.51556 0.08500
C 	C 	0.99355 0.38503 0.47332 0.10100
C 	C 	0.87781 0.53895 0.50192 0.06200
N 	N 	0.10855 0.54860 0.37656 -0.10800
N 	N 	0.07478 0.54332 0.53905 -0.11800
N 	N 	0.85541 0.57112 0.50813 -0.11900
N 	N 	0.01734 0.35381 0.46800 -0.12100
H 	H 	0.89269 0.34686 0.48785 0.04800
H 	H 	0.97727 0.57606 0.48578 0.05600
H 	H 	0.01528 0.49519 0.42640 0.05100
H 	H 	0.16752 0.60721 0.48942 0.04400
C 	C 	0.54632 0.50475 0.48362 -0.04000
C 	C 	0.55669 0.56550 0.49357 0.02100
C 	C 	0.59112 0.58819 0.51629 -0.06000
C 	C 	0.61530 0.55087 0.52918 0.02500
C 	C 	0.60561 0.49035 0.51892 -0.08700
C 	C 	0.57092 0.46770 0.49625 0.00700
C 	C 	0.52880 0.60403 0.48137 0.02200
C 	C 	0.48260 0.60518 0.49335 -0.05900
C 	C 	0.44936 0.63002 0.47927 0.02600
C 	C 	0.46225 0.65359 0.45281 -0.08200
C 	C 	0.51105 0.65798 0.44203 0.01500
C 	C 	0.54448 0.63346 0.45623 -0.04000
C 	C 	0.40193 0.63085 0.49200 0.04300
C 	C 	0.59397 0.63691 0.44452 0.09100
C 	C 	0.51009 0.47997 0.46057 0.09000
C 	C 	0.64808 0.57404 0.55356 0.07700
N 	N 	0.36392 0.63151 0.50218 -0.13800
N 	N 	0.63363 0.63963 0.43516 -0.11700
N 	N 	0.67432 0.59264 0.57309 -0.10700
N 	N 	0.48106 0.46020 0.44211 -0.11500
H 	H 	0.56340 0.42127 0.48832 0.03700
H 	H 	0.59840 0.63458 0.52420 0.05500
H 	H 	0.47145 0.58441 0.51314 0.05400
H 	H 	0.52180 0.67777 0.42203 0.04500
C 	C 	0.88747 0.02447 0.62115 -0.02300
C 	C 	0.89747 0.04612 0.59443 -0.02600
C 	C 	0.87380 0.08638 0.58403 -0.03600
C 	C 	0.84013 0.10518 0.60034 -0.00100
C 	C 	0.83035 0.08377 0.62711 -0.03900
C 	C 	0.85401 0.04352 0.63750 -0.02900
C 	C 	0.91292 0.98443 0.63213 0.06800
C 	C 	0.93474 0.95176 0.64170 -0.11800
C 	C 	0.81332 0.14359 0.58911 0.04400
C 	C 	0.78992 0.17458 0.57952 -0.10500
H 	H 	0.92354 0.03183 0.58173 0.04300
H 	H 	0.88132 0.10255 0.56326 0.04800
H 	H 	0.80416 0.09791 0.63978 0.03700
H 	H 	0.84635 0.02720 0.65824 0.03500
C 	C 	0.30651 0.12579 0.63183 -0.00300
C 	C 	0.32171 0.17873 0.61571 -0.03200
C 	C 	0.37461 0.20681 0.60844 -0.03200
C 	C 	0.41260 0.18219 0.61730 -0.00200
C 	C 	0.39749 0.12965 0.63368 -0.03400
C 	C 	0.34459 0.10157 0.64096 -0.03400
C 	C 	0.25232 0.09796 0.64003 0.04400
C 	C 	0.20733 0.07555 0.64753 -0.10200
C 	C 	0.46576 0.20702 0.60736 0.04400
C 	C 	0.50949 0.22614 0.59805 -0.09900
H 	H 	0.29261 0.19805 0.60877 0.04500
H 	H 	0.38586 0.24712 0.59561 0.04700
H 	H 	0.42651 0.11005 0.64045 0.03800
H 	H 	0.33326 0.06099 0.65362 0.03900
C 	C 	0.04332 0.65733 0.60686 0.00500
C 	C 	0.03055 0.65387 0.57875 -0.04000
C 	C 	0.99104 0.60105 0.56756 -0.01400
C 	C 	0.96513 0.55124 0.58439 -0.00700
C 	C 	0.98491 0.55046 0.61110 -0.01900
C 	C 	0.02473 0.60318 0.62217 -0.04500
C 	C 	0.05610 0.71597 0.62101 0.04200
C 	C 	0.05839 0.76221 0.63340 -0.10200
C 	C 	0.91256 0.50978 0.57659 0.05500
C 	C 	0.86773 0.47859 0.56962 -0.10100
H 	H 	0.04653 0.69451 0.56632 0.05000
H 	H 	0.97754 0.60105 0.54649 0.04600
H 	H 	0.96650 0.51123 0.62401 0.04100
H 	H 	0.03619 0.60434 0.64364 0.03900
C 	C 	0.91055 0.40490 0.96246 -0.04000
C 	C 	0.92454 0.46703 0.97127 0.02100
C 	C 	0.88627 0.49493 0.97090 -0.05700
C 	C 	0.83504 0.46261 0.96038 0.02700
C 	C 	0.82189 0.40157 0.95002 -0.07800
C 	C 	0.85941 0.37260 0.95179 0.01300
C 	C 	0.98004 0.50454 0.97910 0.02700
C 	C 	0.01592 0.53180 0.95859 -0.06600
C 	C 	0.06885 0.56689 0.96546 0.02600
C 	C 	0.08626 0.57450 0.99321 -0.07900
C 	C 	0.04953 0.55024 0.01373 0.00200
C 	C 	0.99694 0.51406 0.00682 -0.03500
C 	C 	0.10423 0.59732 0.94406 0.07600
C 	C 	0.96090 0.48557 0.02826 0.09000
C 	C 	0.94863 0.37426 0.96405 0.09100
C 	C 	0.79690 0.49327 0.95931 0.07400
N 	N 	0.13252 0.62170 0.92691 -0.11200
N 	N 	0.93207 0.46269 0.04544 -0.11500
N 	N 	0.76639 0.51786 0.95847 -0.11300
N 	N 	0.97918 0.34976 0.96534 -0.11600
H 	H 	0.84915 0.32538 0.94424 0.03800
H 	H 	0.89686 0.54244 0.97812 0.05700
H 	H 	0.00253 0.52566 0.93728 0.05400
H 	H 	0.06216 0.55858 0.03508 0.04200
C 	C 	0.52618 0.98002 0.92940 -0.03200
C 	C 	0.50382 0.98791 0.95427 0.03400
C 	C 	0.51464 0.04763 0.96515 -0.07200
C 	C 	0.54549 0.09955 0.95079 0.03000
C 	C 	0.56577 0.09176 0.92524 -0.08200
C 	C 	0.55730 0.03189 0.91513 0.00400
C 	C 	0.46957 0.93378 0.96931 0.01900
C 	C 	0.49298 0.90162 0.98619 -0.05600
C 	C 	0.46161 0.85165 0.00141 0.02300
C 	C 	0.40567 0.83362 0.99989 -0.08000
C 	C 	0.38230 0.86508 0.98243 0.00800
C 	C 	0.41390 0.91485 0.96710 -0.03800
C 	C 	0.48735 0.82006 0.01880 0.08800
C 	C 	0.38895 0.94632 0.94917 0.09300
C 	C 	0.51624 0.91888 0.91805 0.09100
C 	C 	0.55648 0.16064 0.96249 0.06700
N 	N 	0.50830 0.79489 0.03260 -0.10200
N 	N 	0.36901 0.97156 0.93480 -0.11000
N 	N 	0.56529 0.20959 0.97182 -0.11800
N 	N 	0.50824 0.86988 0.90897 -0.11300
H 	H 	0.57298 0.02574 0.89553 0.03100
H 	H 	0.49852 0.05362 0.98464 0.05400
H 	H 	0.53583 0.91589 0.98764 0.05500
H 	H 	0.33948 0.85114 0.98097 0.03900
C 	C 	0.43337 0.38950 0.92871 -0.04100
C 	C 	0.45057 0.42080 0.95408 0.02300
C 	C 	0.49941 0.42446 0.96586 -0.05900
C 	C 	0.53219 0.39954 0.95209 0.02900
C 	C 	0.51630 0.37117 0.92602 -0.08500
C 	C 	0.46634 0.36491 0.91480 0.01700
C 	C 	0.41916 0.45291 0.96777 0.02000
C 	C 	0.38788 0.42495 0.98984 -0.05900
C 	C 	0.36197 0.45705 0.00482 0.02300
C 	C 	0.36684 0.51767 0.99741 -0.08300
C 	C 	0.39741 0.54510 0.97501 0.00700
C 	C 	0.42363 0.51318 0.96023 -0.03900
C 	C 	0.33248 0.42850 0.02843 0.07700
C 	C 	0.45562 0.54285 0.93755 0.09200
C 	C 	0.38225 0.38308 0.91673 0.09100
C 	C 	0.58151 0.40200 0.96513 0.03700
N 	N 	0.30887 0.40559 0.04733 -0.10900
N 	N 	0.48126 0.56656 0.91937 -0.11300
N 	N 	0.62099 0.40397 0.97558 -0.14400
N 	N 	0.34129 0.37799 0.90714 -0.11700
H 	H 	0.45363 0.34206 0.89501 0.04200
H 	H 	0.51216 0.44752 0.98562 0.05700
H 	H 	0.38472 0.37870 0.99573 0.05400
H 	H 	0.40096 0.59151 0.96918 0.03800
C 	C 	0.88248 0.20477 0.81391 -0.00100
C 	C 	0.91534 0.18408 0.83067 -0.03400
C 	C 	0.95465 0.16625 0.81910 -0.02800
C 	C 	0.96120 0.16893 0.79071 -0.01100
C 	C 	0.93072 0.19366 0.77423 -0.03100
C 	C 	0.89135 0.21141 0.78579 -0.03700
C 	C 	0.83733 0.21461 0.82521 0.04200
C 	C 	0.79952 0.22208 0.83505 -0.10200
C 	C 	0.99039 0.13502 0.77812 0.06000
C 	C 	0.01110 0.10288 0.76725 -0.12700
H 	H 	0.90916 0.17960 0.85249 0.04600
H 	H 	0.97809 0.14736 0.83202 0.04600
H 	H 	0.93560 0.19607 0.75227 0.03600
H 	H 	0.86655 0.22813 0.77275 0.03900
C 	C 	0.37777 0.06770 0.80715 -0.00300
C 	C 	0.33352 0.06271 0.82264 -0.03300
C 	C 	0.28242 0.03380 0.81132 -0.02900
C 	C 	0.27534 0.00976 0.78447 -0.01500
C 	C 	0.31959 0.01151 0.76961 -0.04400
C 	C 	0.37071 0.04054 0.78090 -0.03200
C 	C 	0.43021 0.10293 0.81779 0.04400
C 	C 	0.47347 0.13260 0.82745 -0.09800
C 	C 	0.22477 0.99525 0.77045 0.06400
C 	C 	0.18410 0.98765 0.75770 -0.11000
H 	H 	0.33868 0.08285 0.84311 0.04900
H 	H 	0.24849 0.03269 0.82297 0.04300
H 	H 	0.31451 0.99306 0.74883 0.05000
H 	H 	0.40473 0.04348 0.76894 0.03600
C 	C 	0.80865 0.58637 0.83313 -0.00300
C 	C 	0.86320 0.60021 0.83055 -0.03100
C 	C 	0.89320 0.65152 0.81566 -0.03300
C 	C 	0.86879 0.68927 0.80330 -0.00200
C 	C 	0.81446 0.67623 0.80641 -0.03200
C 	C 	0.78445 0.62490 0.82130 -0.03200
C 	C 	0.77749 0.53221 0.84762 0.05200
C 	C 	0.75223 0.48680 0.85994 -0.10100
C 	C 	0.89819 0.73742 0.78524 0.04600
C 	C 	0.92181 0.77629 0.76928 -0.10200
H 	H 	0.88223 0.57082 0.83978 0.04600
H 	H 	0.93512 0.66114 0.81326 0.04300
H 	H 	0.79527 0.70508 0.79684 0.04600
H 	H 	0.74236 0.61470 0.82334 0.04500
