data_crystal

_cell_length_a 16.65581
_cell_length_b 15.88670
_cell_length_c 43.48128
_cell_angle_alpha 89.51999
_cell_angle_beta  82.26698
_cell_angle_gamma 105.71557

_symmetry_space_group_name_	'P 1'
_symmetry_space_group_name_H-M	'P 1'

loop_
_symmetry_equiv_pos_as_xyz
  x,y,z

loop_
_atom_site_label
_atom_site_type_symbol
_atom_site_fract_x
_atom_site_fract_y
_atom_site_fract_z
_atom_site_charge
Zn	Zn	0.71738 0.32105 0.95490 1.20600
Zn	Zn	0.77578 0.48793 0.91199 1.21600
Zn	Zn	0.57290 0.25646 0.91554 1.21700
P 	P 	0.75409 0.30982 0.88966 0.30200
P 	P 	0.60373 0.42455 0.94566 0.29500
C 	C 	0.48732 0.19194 0.86534 0.27200
C 	C 	0.59931 0.15636 0.96935 0.25900
O 	O 	0.79941 0.31685 0.91951 -0.44400
O 	O 	0.61546 0.35395 0.96919 -0.44000
O 	O 	0.73495 0.40046 0.88236 -0.43200
O 	O 	0.58458 0.38146 0.91347 -0.42800
O 	O 	0.67109 0.22908 0.89416 -0.42100
O 	O 	0.68549 0.50647 0.94150 -0.40700
O 	O 	0.48110 0.18560 0.89579 -0.40800
O 	O 	0.70077 0.62747 0.89401 -0.23200
O 	O 	0.55435 0.24556 0.84931 -0.24700
O 	O 	0.54634 0.19305 0.95792 -0.41600
O 	O 	0.68013 0.19682 0.96619 -0.42700
Zn	Zn	0.68431 0.17038 0.53415 1.20900
Zn	Zn	0.51595 0.14090 0.57781 1.21700
Zn	Zn	0.74130 0.34766 0.56449 1.21900
P 	P 	0.68187 0.17416 0.59911 0.30300
P 	P 	0.58659 0.29744 0.53562 0.29900
C 	C 	0.79567 0.45890 0.61153 0.27100
C 	C 	0.54859 0.02574 0.52736 0.33900
O 	O 	0.67664 0.10620 0.57276 -0.44900
O 	O 	0.65683 0.26633 0.51427 -0.43000
O 	O 	0.59529 0.20042 0.60533 -0.43100
O 	O 	0.62259 0.34035 0.56580 -0.43100
O 	O 	0.76121 0.25673 0.58938 -0.42400
O 	O 	0.50484 0.21697 0.54470 -0.39800
O 	O 	0.38439 0.23230 0.59442 -0.24000
O 	O 	0.73792 0.39737 0.62869 -0.24700
O 	O 	0.52996 0.02985 0.55782 -0.44500
O 	O 	0.61705 0.07935 0.51219 -0.42100
C 	C 	0.35626 0.15084 0.60536 0.26900
O 	O 	0.40197 0.09610 0.59855 -0.41700
Zn	Zn	0.06134 0.03906 0.77962 1.21200
P 	P 	0.08135 0.05869 0.71160 0.27400
C 	C 	0.81992 0.01971 0.69701 0.25500
O 	O 	0.05129 0.95413 0.71383 -0.39400
O 	O 	0.12163 0.10101 0.74130 -0.41100
O 	O 	0.23107 0.00167 0.77470 -0.25400
O 	O 	0.81718 0.04653 0.72545 -0.44100
C 	C 	0.21659 0.03979 0.80073 0.26800
O 	O 	0.14428 0.05800 0.80808 -0.41400
Zn	Zn	0.47838 0.48977 0.35976 1.20000
Zn	Zn	0.31344 0.39532 0.40454 1.22400
Zn	Zn	0.46437 0.65030 0.40000 1.22300
P 	P 	0.47281 0.48619 0.42734 0.34900
P 	P 	0.32899 0.55184 0.36699 0.30800
C 	C 	0.43167 0.74891 0.44925 0.24400
C 	C 	0.60047 0.66023 0.34838 0.29500
C 	C 	0.38247 0.30996 0.35355 0.28800
O 	O 	0.49875 0.43630 0.39782 -0.41400
O 	O 	0.41349 0.56233 0.34405 -0.44000
O 	O 	0.37366 0.47423 0.43266 -0.43400
O 	O 	0.34731 0.59111 0.39966 -0.42600
O 	O 	0.52328 0.58699 0.42242 -0.38900
O 	O 	0.27922 0.45108 0.37101 -0.41000
O 	O 	0.47823 0.75602 0.42192 -0.39600
O 	O 	0.18378 0.45992 0.43111 -0.23400
O 	O 	0.37638 0.67405 0.45859 -0.22400
O 	O 	0.53607 0.69088 0.35889 -0.42600
O 	O 	0.36863 0.30932 0.38420 -0.42600
O 	O 	0.59113 0.57455 0.34785 -0.41400
O 	O 	0.43309 0.38040 0.33764 -0.41800
C 	C 	0.15565 0.37422 0.43400 0.35100
O 	O 	0.20600 0.32630 0.42404 -0.42700
Zn	Zn	0.36819 0.52311 0.11760 1.20200
Zn	Zn	0.21283 0.53810 0.08692 1.22100
Zn	Zn	0.45960 0.69853 0.07948 1.22300
P 	P 	0.30719 0.67680 0.12352 0.30600
P 	P 	0.37265 0.53857 0.05059 0.35000
C 	C 	0.48833 0.86967 0.05917 0.33900
C 	C 	0.54229 0.61320 0.12079 0.29000
C 	C 	0.20979 0.39024 0.12935 0.29400
O 	O 	0.29729 0.58668 0.14139 -0.44100
O 	O 	0.42037 0.50807 0.07584 -0.43000
O 	O 	0.26766 0.66062 0.09197 -0.42100
O 	O 	0.38313 0.64117 0.05155 -0.42400
O 	O 	0.40426 0.72938 0.11771 -0.41200
O 	O 	0.27588 0.48460 0.05651 -0.37300
O 	O 	0.52905 0.81061 0.06250 -0.38600
O 	O 	0.17931 0.63591 0.03654 -0.20900
O 	O 	0.40919 0.85367 0.07179 -0.24200
O 	O 	0.54344 0.63840 0.09159 -0.42100
O 	O 	0.17707 0.45607 0.12512 -0.42600
O 	O 	0.47179 0.56509 0.13720 -0.42700
O 	O 	0.29245 0.40362 0.12616 -0.42200
C 	C 	0.11203 0.57053 0.04518 0.33800
O 	O 	0.10908 0.52071 0.06985 -0.41400
Zn	Zn	0.05031 0.01732 0.24480 1.18400
Zn	Zn	0.07653 0.87203 0.28341 1.21800
P 	P 	0.11806 0.87890 0.21625 0.30200
C 	C 	0.00721 0.07595 0.19081 0.26000
C 	C 	0.15577 0.06365 0.29072 0.24700
O 	O 	0.12180 0.97840 0.21008 -0.41500
O 	O 	0.02406 0.81865 0.21683 -0.42000
O 	O 	0.15704 0.87127 0.24752 -0.40900
O 	O 	0.07257 0.68565 0.28580 -0.24000
O 	O 	0.00503 0.99897 0.17903 -0.37600
O 	O 	0.10575 0.98974 0.30452 -0.38400
O 	O 	0.99265 0.08069 0.22098 -0.45800
O 	O 	0.14259 0.08988 0.26368 -0.44200
C 	C 	0.10920 0.72417 0.30884 0.27900
O 	O 	0.11101 0.80583 0.31392 -0.40600
C 	C 	0.04164 0.24772 0.17719 0.00200
C 	C 	0.05999 0.26681 0.14154 -0.01300
H 	H 	0.02259 0.29662 0.12766 0.04800
C 	C 	0.13608 0.28741 0.17966 -0.01100
H 	H 	0.16144 0.33392 0.19720 0.04300
C 	C 	0.15393 0.30559 0.14429 -0.05500
C 	C 	0.05773 0.15748 0.17236 -0.06200
C 	C 	0.15172 0.19651 0.17499 -0.01500
H 	H 	0.18934 0.16701 0.18889 0.03500
C 	C 	0.17011 0.21541 0.13940 -0.00800
H 	H 	0.22362 0.20268 0.12380 0.04900
C 	C 	0.07539 0.17529 0.13694 -0.01000
C 	C 	0.66214 0.70265 0.17860 -0.01200
H 	H 	0.64278 0.72259 0.20225 0.04200
C 	C 	0.63487 0.60886 0.16682 -0.00600
H 	H 	0.59215 0.55091 0.18057 0.04400
C 	C 	0.64554 0.74041 0.14787 -0.01000
H 	H 	0.61130 0.79085 0.14598 0.04300
C 	C 	0.61913 0.64703 0.13627 -0.06100
C 	C 	0.75337 0.71076 0.16386 -0.05200
C 	C 	0.73770 0.74897 0.13330 -0.01000
H 	H 	0.78046 0.80694 0.11957 0.05300
C 	C 	0.71034 0.65510 0.12147 -0.00800
H 	H 	0.72969 0.63512 0.09783 0.04700
C 	C 	0.72703 0.61735 0.15225 -0.01600
C 	C 	0.17961 0.73723 0.19302 -0.01500
H 	H 	0.14942 0.69630 0.21450 0.06000
C 	C 	0.27485 0.76399 0.18105 -0.01300
H 	H 	0.32340 0.74379 0.19215 0.05000
C 	C 	0.15925 0.71496 0.15997 -0.01800
H 	H 	0.11330 0.65493 0.15376 0.04300
C 	C 	0.25395 0.74214 0.14822 -0.01900
C 	C 	0.17775 0.83214 0.18658 -0.02100
C 	C 	0.15669 0.81034 0.15374 -0.01800
H 	H 	0.10786 0.83045 0.14279 0.04400
C 	C 	0.25265 0.83697 0.14150 -0.01300
H 	H 	0.28313 0.87715 0.11992 0.06800
C 	C 	0.27259 0.85948 0.17489 -0.01300
H 	H 	0.31846 0.91940 0.18120 0.05500
C 	C 	0.72968 0.84857 0.30599 -0.02100
H 	H 	0.71661 0.91005 0.29863 0.05800
C 	C 	0.72291 0.81477 0.34019 -0.00000
H 	H 	0.70275 0.84733 0.36118 0.05100
C 	C 	0.68401 0.75495 0.29743 0.00100
H 	H 	0.63234 0.73793 0.28295 0.04200
C 	C 	0.67839 0.72179 0.33117 -0.06100
C 	C 	0.25505 0.26246 0.32043 -0.01100
H 	H 	0.24300 0.32760 0.31856 0.04700
C 	C 	0.19099 0.17822 0.33586 -0.01300
H 	H 	0.12549 0.17312 0.34672 0.04800
C 	C 	0.27991 0.20993 0.29269 -0.01200
H 	H 	0.28782 0.23140 0.26783 0.04400
C 	C 	0.21631 0.12619 0.30830 -0.05100
C 	C 	0.32402 0.24194 0.33703 -0.06400
C 	C 	0.34944 0.18998 0.30948 -0.00900
H 	H 	0.41498 0.19526 0.29863 0.03800
C 	C 	0.28522 0.10543 0.32489 -0.01900
H 	H 	0.29711 0.04022 0.32672 0.03100
C 	C 	0.26054 0.15827 0.35271 -0.00900
H 	H 	0.25284 0.13717 0.37760 0.04600
C 	C 	0.17421 0.60774 0.36495 -0.02000
H 	H 	0.14253 0.57690 0.38800 0.09100
C 	C 	0.14195 0.58427 0.33348 0.00400
H 	H 	0.08246 0.53484 0.33037 0.06000
C 	C 	0.19571 0.70656 0.35562 0.00200
H 	H 	0.18035 0.75771 0.37071 0.05500
C 	C 	0.16409 0.68239 0.32433 -0.05700
C 	C 	0.26288 0.60721 0.34988 -0.01400
C 	C 	0.28542 0.70518 0.34082 -0.02700
H 	H 	0.34511 0.75413 0.34403 0.04600
C 	C 	0.25300 0.68165 0.30935 -0.00400
H 	H 	0.28477 0.71240 0.28629 0.04300
C 	C 	0.23142 0.58299 0.31867 -0.02000
H 	H 	0.24687 0.53173 0.30366 0.05000
C 	C 	0.44934 0.81917 0.47094 0.03700
C 	C 	0.45868 0.80011 0.50163 -0.07100
C 	C 	0.48360 0.86795 0.52148 0.07500
C 	C 	0.49904 0.95506 0.51076 -0.17600
C 	C 	0.48192 0.97335 0.48101 0.42900
C 	C 	0.45840 0.90565 0.46103 -0.17400
H 	H 	0.49574 0.85309 0.54449 0.04000
H 	H 	0.44850 0.92051 0.43769 0.12800
H 	H 	0.45019 0.73309 0.50965 0.07200
F 	F 	0.49223 0.05730 0.47100 -0.47200
C 	C 	0.06039 0.27971 0.47672 0.09100
C 	C 	0.07103 0.33428 0.45016 -0.20800
C 	C 	0.00453 0.36727 0.44372 0.41500
H 	H 	0.11105 0.25343 0.48179 0.02400
F 	F 	0.01258 0.41676 0.41728 -0.44900
C 	C 	0.55710 0.37445 0.51191 0.04900
C 	C 	0.47138 0.36727 0.51135 -0.06500
C 	C 	0.44563 0.40176 0.48583 0.04900
C 	C 	0.50556 0.44524 0.46096 -0.13400
C 	C 	0.59172 0.45926 0.46282 0.38200
C 	C 	0.61726 0.42508 0.48843 -0.16600
H 	H 	0.37911 0.39284 0.48516 0.03600
H 	H 	0.68373 0.43308 0.48899 0.11600
H 	H 	0.42430 0.33079 0.52983 0.07900
F 	F 	0.65068 0.50370 0.43941 -0.43600
C 	C 	0.74865 0.01008 0.64523 -0.04000
C 	C 	0.66494 0.03659 0.65053 -0.06300
H 	H 	0.60163 0.99403 0.64779 0.07900
C 	C 	0.70946 0.12358 0.63227 -0.01100
C 	C 	0.77397 0.05481 0.67505 -0.05300
C 	C 	0.69072 0.08085 0.68092 0.00000
H 	H 	0.64926 0.07361 0.70357 0.03500
C 	C 	0.73457 0.16855 0.66201 -0.02500
H 	H 	0.72835 0.23403 0.66868 0.05500
C 	C 	0.81776 0.14176 0.65659 -0.00600
H 	H 	0.88114 0.18478 0.65903 0.04100
C 	C 	0.23297 0.03362 0.64208 -0.05500
H 	H 	0.24136 0.97278 0.63140 0.08900
C 	C 	0.15144 0.06395 0.64483 -0.01600
H 	H 	0.09121 0.02777 0.63706 0.03000
C 	C 	0.24299 0.05770 0.67603 -0.01100
H 	H 	0.25818 0.01634 0.69389 0.04500
C 	C 	0.16272 0.08850 0.67834 -0.02400
C 	C 	0.28467 0.12723 0.63116 -0.04600
C 	C 	0.29539 0.15153 0.66482 -0.01100
H 	H 	0.35534 0.18758 0.67282 0.04300
C 	C 	0.21404 0.18200 0.66756 -0.01400
H 	H 	0.20532 0.24255 0.67838 0.05200
C 	C 	0.20415 0.15803 0.63351 -0.01100
H 	H 	0.18889 0.19943 0.61569 0.04600
H 	H 	0.87433 0.74202 0.61345 0.04900
C 	C 	0.79644 0.60708 0.63955 -0.00700
H 	H 	0.73019 0.60582 0.63790 0.04500
C 	C 	0.04684 0.54594 0.02481 -0.16700
C 	C 	0.06949 0.53783 0.99284 0.38200
H 	H 	0.02506 0.50505 0.94909 0.11900
F 	F 	0.15155 0.54988 0.98077 -0.43100
C 	C 	0.56674 0.08095 0.99127 0.04100
C 	C 	0.51938 0.08915 0.01964 -0.07000
C 	C 	0.49959 0.02257 0.04278 0.03200
C 	C 	0.52507 0.94595 0.03750 -0.16400
C 	C 	0.57334 0.93810 0.00908 0.44600
C 	C 	0.59446 0.00573 0.98618 -0.25900
H 	H 	0.46264 0.02956 0.06463 0.02900
H 	H 	0.63261 0.99985 0.96449 0.16200
H 	H 	0.49968 0.14811 0.02406 0.06900
F 	F 	0.59718 0.86391 0.00322 -0.45300
C 	C 	0.51668 0.46102 0.96373 0.04700
C 	C 	0.52877 0.55006 0.96956 -0.06000
C 	C 	0.47980 0.57514 0.99459 0.05100
C 	C 	0.41694 0.51152 0.01329 -0.12600
C 	C 	0.39716 0.42403 0.00464 0.38200
C 	C 	0.44625 0.39931 0.97958 -0.16400
H 	H 	0.49397 0.64323 0.00043 0.05300
H 	H 	0.43437 0.33078 0.97442 0.10800
H 	H 	0.58026 0.59914 0.95632 0.08800
F 	F 	0.33444 0.36194 0.02182 -0.43600
C 	C 	0.82560 0.17025 0.82976 -0.00000
H 	H 	0.78913 0.10506 0.82321 0.03600
H 	H 	0.74509 0.26419 0.81667 0.05500
C 	C 	0.84649 0.19357 0.86263 -0.02100
H 	H 	0.82612 0.14821 0.88352 0.04900
C 	C 	0.82341 0.27996 0.85859 -0.01600
C 	C 	0.42363 0.12133 0.81536 0.00300
H 	H 	0.48430 0.12857 0.80004 0.03800
C 	C 	0.35422 0.16443 0.80902 -0.01700
H 	H 	0.35670 0.20668 0.78825 0.04600
C 	C 	0.35596 0.03366 0.82496 -0.06400
H 	H 	0.35988 0.96820 0.81732 0.08900
C 	C 	0.28739 0.07731 0.81878 -0.04100
C 	C 	0.41397 0.14844 0.84928 -0.05900
C 	C 	0.34724 0.06123 0.85912 0.00200
H 	H 	0.34490 0.01909 0.87990 0.04000
C 	C 	0.27755 0.10427 0.85271 -0.01700
H 	H 	0.21680 0.09698 0.86798 0.04900
C 	C 	0.34533 0.19193 0.84310 -0.00500
H 	H 	0.34139 0.25741 0.85070 0.04600
C 	C 	0.79277 0.80268 0.85393 -0.00000
H 	H 	0.75288 0.82891 0.87176 0.05400
C 	C 	0.77444 0.78140 0.82041 -0.01800
H 	H 	0.72012 0.79129 0.81004 0.05600
C 	C 	0.85564 0.45845 0.96710 0.28000
O 	O 	0.86796 0.47437 0.93654 -0.42000
O 	O 	0.78921 0.39780 0.98037 -0.43100
C 	C 	0.78183 0.65041 0.88384 0.27500
O 	O 	0.82939 0.60308 0.89243 -0.40900
C 	C 	0.84548 0.28473 0.51452 0.27000
O 	O 	0.80783 0.45255 0.58121 -0.40600
O 	O 	0.81011 0.34824 0.52247 -0.41700
O 	O 	0.80545 0.20271 0.52260 -0.43100
Zn	Zn	0.92089 0.06793 0.74391 1.19200
P 	P 	0.90712 0.89921 0.77451 0.29000
O 	O 	0.87799 0.98550 0.78009 -0.41700
O 	O 	0.86834 0.85271 0.74516 -0.41000
O 	O 	0.88345 0.98965 0.68507 -0.39800
C 	C 	0.82788 0.74594 0.18046 0.27000
O 	O 	0.87567 0.89768 0.24000 -0.41600
O 	O 	0.87348 0.82761 0.17503 -0.40900
O 	O 	0.84024 0.69932 0.20353 -0.25000
H 	H 	0.76121 0.56686 0.15412 0.04200
C 	C 	0.81447 0.82698 0.29880 -0.01500
C 	C 	0.76946 0.73398 0.28997 -0.02600
H 	H 	0.78876 0.70045 0.26910 0.06100
C 	C 	0.76343 0.70059 0.32383 0.00200
H 	H 	0.77701 0.63921 0.33100 0.05600
C 	C 	0.80930 0.79401 0.33250 -0.02600
H 	H 	0.86140 0.81102 0.34678 0.04900
H 	H 	0.75512 0.94481 0.63837 0.07300
C 	C 	0.79246 0.09724 0.62669 -0.01200
H 	H 	0.83468 0.10415 0.60420 0.04500
C 	C 	0.91905 0.61210 0.61257 -0.00500
H 	H 	0.95371 0.61495 0.58874 0.04700
C 	C 	0.87516 0.68114 0.62599 -0.01400
C 	C 	0.91208 0.67691 0.65639 -0.04400
C 	C 	0.84070 0.53915 0.62638 -0.05500
C 	C 	0.83384 0.60378 0.67007 -0.01500
H 	H 	0.79900 0.60072 0.69388 0.04500
C 	C 	0.87777 0.53508 0.65676 -0.00500
H 	H 	0.83438 0.49918 0.02735 0.06200
C 	C 	0.80192 0.25694 0.82594 -0.02600
C 	C 	0.91746 0.21697 0.81651 -0.07400
C 	C 	0.91507 0.32740 0.84557 -0.03000
C 	C 	0.89462 0.30362 0.81230 -0.00100
C 	C 	0.88649 0.84753 0.84135 -0.02700
H 	H 	0.92399 0.91199 0.84811 0.04900
C 	C 	0.90782 0.75913 0.84484 -0.00400
C 	C 	0.81465 0.71516 0.85703 -0.05600
C 	C 	0.86746 0.82503 0.80835 -0.01700
C 	C 	0.79588 0.69314 0.82388 -0.00500
H 	H 	0.75850 0.62888 0.81692 0.04400
C 	C 	0.00723 0.51422 0.97346 -0.13400
C 	C 	0.88942 0.73778 0.81138 -0.02400
H 	H 	0.04999 0.12856 0.11948 0.04300
H 	H 	0.88124 0.38017 0.46038 0.12800
H 	H 	0.91518 0.34848 0.79129 0.04000
H 	H 	0.02290 0.61054 0.64494 0.06300
C 	C 	0.93872 0.24017 0.84924 0.00200
O 	O 	0.96612 0.81935 0.27153 -0.43700
Zn	Zn	0.93546 0.90781 0.70665 1.21500
O 	O 	0.91175 0.81845 0.67652 -0.40700
O 	O 	0.95487 0.17768 0.76446 -0.44900
C 	C 	0.92353 0.30362 0.49280 0.02600
C 	C 	0.95666 0.60916 0.64323 -0.03300
C 	C 	0.89993 0.50997 0.01759 -0.05200
H 	H 	0.99527 0.23268 0.85867 0.04000
O 	O 	0.96131 0.97666 0.28156 -0.41400
C 	C 	0.94800 0.75460 0.67434 0.25500
C 	C 	0.96464 0.17213 0.79372 0.30200
O 	O 	0.00476 0.75171 0.69224 -0.22100
O 	O 	0.98753 0.10498 0.80414 -0.44700
Zn	Zn	0.95016 0.88262 0.20372 1.21500
P 	P 	0.90805 0.88421 0.27238 0.29900
C 	C 	0.98690 0.26456 0.49802 -0.08900
C 	C 	0.93160 0.35307 0.46521 -0.18300
H 	H 	0.97992 0.22401 0.51891 0.06200
H 	H 	0.87855 0.47426 0.66935 0.04100
C 	C 	0.92203 0.49841 0.98587 -0.00800
C 	C 	0.96199 0.53277 0.03700 0.04500
H 	H 	0.94409 0.54030 0.06151 0.02900
H 	H 	0.95084 0.39254 0.85240 0.04300
H 	H 	0.96245 0.74953 0.85508 0.04800
H 	H 	0.92932 0.71172 0.79349 0.05100
H 	H 	0.98823 0.26056 0.19282 0.03400
O 	O 	0.00563 0.09730 0.70667 -0.43400
O 	O 	0.00737 0.91972 0.77085 -0.40500
