data_crystal

_cell_length_a 26.03074
_cell_length_b 26.41906
_cell_length_c 34.83610
_cell_angle_alpha 95.49649
_cell_angle_beta  95.49344
_cell_angle_gamma 125.83551

_symmetry_space_group_name_	'P 1'
_symmetry_space_group_name_H-M	'P 1'

loop_
_symmetry_equiv_pos_as_xyz
  x,y,z

loop_
_atom_site_label
_atom_site_type_symbol
_atom_site_fract_x
_atom_site_fract_y
_atom_site_fract_z
_atom_site_charge
C 	C 	0.96975 0.04673 0.99189 0.11600
N 	N 	0.92961 0.98512 0.99582 -0.14500
C 	C 	0.95256 0.95087 0.99971 0.11800
N 	N 	0.01594 0.97851 0.00034 -0.14200
C 	C 	0.05633 0.04004 0.99621 0.12200
N 	N 	0.03292 0.07393 0.99127 -0.14200
C 	C 	0.94410 0.98893 0.45708 0.11300
N 	N 	0.00436 0.01926 0.44879 -0.14200
C 	C 	0.03390 0.99069 0.44906 0.12100
N 	N 	0.00234 0.93089 0.45654 -0.14100
C 	C 	0.94219 0.90029 0.46495 0.11400
N 	N 	0.91284 0.92919 0.46502 -0.14300
Cu	Cu	0.65093 0.26945 0.00403 0.92200
Cu	Cu	0.66895 0.24687 0.91367 0.87300
Cu	Cu	0.65936 0.35965 0.95160 0.90900
Cu	Cu	0.64253 0.38095 0.03560 0.89400
C 	C 	0.66431 0.30844 0.08681 0.29200
O 	O 	0.55704 0.21890 0.00939 -0.37500
C 	C 	0.66364 0.33230 0.87235 0.29400
O 	O 	0.68982 0.36574 0.00536 -0.63900
O 	O 	0.62701 0.26901 0.94796 -0.63100
O 	O 	0.70871 0.24294 0.00017 -0.37900
O 	O 	0.65946 0.18261 0.93891 -0.43000
O 	O 	0.66796 0.35996 0.08386 -0.38800
O 	O 	0.69714 0.44876 0.95684 -0.38100
C 	C 	0.69745 0.48188 0.98781 0.29600
C 	C 	0.52376 0.24133 0.00389 0.28800
O 	O 	0.55293 0.30017 0.99874 -0.39300
O 	O 	0.65720 0.45331 0.01198 -0.39900
O 	O 	0.68007 0.28424 0.05947 -0.36600
C 	C 	0.69772 0.19865 0.97231 0.30000
O 	O 	0.63855 0.35096 0.89545 -0.37900
O 	O 	0.70146 0.31879 0.88764 -0.43400
H 	H 	0.73722 0.39691 0.01367 0.15700
H 	H 	0.57974 0.23992 0.93853 0.15700
Cu	Cu	0.74303 0.32887 0.45452 0.92700
Cu	Cu	0.72456 0.26703 0.53360 0.86800
Cu	Cu	0.63542 0.29260 0.50071 0.89500
Cu	Cu	0.62922 0.33527 0.42473 0.89300
C 	C 	0.70428 0.31883 0.37239 0.29300
O 	O 	0.78520 0.42334 0.45869 -0.36600
C 	C 	0.66986 0.30326 0.58661 0.29300
O 	O 	0.64252 0.28055 0.44676 -0.63900
O 	O 	0.72965 0.33228 0.50941 -0.64100
O 	O 	0.78438 0.28468 0.45734 -0.37900
O 	O 	0.70761 0.21125 0.48762 -0.44500
O 	O 	0.68053 0.34964 0.38247 -0.39000
O 	O 	0.54307 0.24859 0.48883 -0.38600
C 	C 	0.51168 0.25337 0.45902 0.29800
C 	C 	0.75782 0.44854 0.47236 0.28800
O 	O 	0.69614 0.41163 0.47384 -0.39900
O 	O 	0.54212 0.29796 0.43779 -0.40100
O 	O 	0.73902 0.31266 0.39901 -0.36500
C 	C 	0.75341 0.22843 0.46731 0.29700
O 	O 	0.62659 0.29106 0.55649 -0.38500
O 	O 	0.71971 0.30389 0.58148 -0.42400
H 	H 	0.61421 0.23572 0.43283 0.16200
H 	H 	0.75686 0.37503 0.52634 0.17000
C 	C 	0.59603 0.30240 0.76467 -0.07600
C 	C 	0.65287 0.33425 0.74927 0.01200
C 	C 	0.71318 0.37144 0.77494 -0.00900
C 	C 	0.71604 0.37296 0.81538 -0.00200
C 	C 	0.65923 0.33760 0.83061 -0.10300
C 	C 	0.59879 0.30329 0.80511 0.05600
C 	C 	0.64895 0.32163 0.70639 0.01200
S 	S 	0.78542 0.41429 0.75663 -0.05000
H 	H 	0.76255 0.40038 0.83495 0.03500
S 	S 	0.52637 0.25830 0.82306 -0.07900
H 	H 	0.54960 0.27435 0.74498 0.05100
C 	C 	0.64786 0.27059 0.68887 -0.00700
C 	C 	0.65199 0.26367 0.64925 -0.00400
C 	C 	0.65741 0.30727 0.62673 -0.09700
C 	C 	0.65587 0.35691 0.64380 0.05800
C 	C 	0.65123 0.36355 0.68348 -0.07500
S 	S 	0.64344 0.21624 0.71661 -0.05600
H 	H 	0.65237 0.22502 0.63607 0.02500
S 	S 	0.66296 0.41277 0.61652 -0.06400
H 	H 	0.65161 0.40257 0.69686 0.05100
H 	H 	0.50735 0.29559 0.83317 0.04100
H 	H 	0.70446 0.23948 0.73428 0.02900
H 	H 	0.72682 0.46288 0.62074 0.03000
H 	H 	0.80298 0.37553 0.74721 0.03000
C 	C 	0.63056 0.28498 0.18942 -0.07500
C 	C 	0.68074 0.28325 0.20570 0.01200
C 	C 	0.71969 0.28069 0.18138 -0.00500
C 	C 	0.71146 0.28512 0.14181 -0.00500
C 	C 	0.66444 0.29194 0.12619 -0.09000
C 	C 	0.62213 0.28934 0.14992 0.05500
C 	C 	0.69653 0.29153 0.24883 0.01200
S 	S 	0.78016 0.27397 0.20041 -0.04600
H 	H 	0.74338 0.28587 0.12364 0.04600
S 	S 	0.55851 0.29152 0.13064 -0.07600
H 	H 	0.59953 0.28536 0.20793 0.04900
C 	C 	0.73927 0.35292 0.27210 -0.00700
C 	C 	0.74490 0.36092 0.31293 -0.00200
C 	C 	0.70812 0.30828 0.33090 -0.09300
C 	C 	0.66893 0.24656 0.30792 0.05200
C 	C 	0.66316 0.23849 0.26699 -0.07400
S 	S 	0.78409 0.42028 0.25031 -0.04800
H 	H 	0.77607 0.40838 0.33065 0.03800
S 	S 	0.62511 0.17929 0.32989 -0.07100
H 	H 	0.63109 0.19115 0.24919 0.05000
H 	H 	0.57955 0.35334 0.13559 0.03200
H 	H 	0.74771 0.44078 0.24066 0.03300
H 	H 	0.56663 0.16618 0.33335 0.02700
H 	H 	0.83613 0.33346 0.21514 0.03500
C 	C 	0.80554 0.61244 0.51051 -0.09600
C 	C 	0.84022 0.64581 0.48227 0.00700
C 	C 	0.85617 0.61710 0.45438 0.02200
C 	C 	0.83118 0.55305 0.45253 -0.01800
C 	C 	0.79313 0.51833 0.47933 -0.11100
C 	C 	0.78385 0.54958 0.51014 0.09400
C 	C 	0.86033 0.71119 0.48233 -0.01000
C 	C 	0.89863 0.65411 0.42609 -0.17100
H 	H 	0.83975 0.52969 0.42947 0.04200
C 	C 	0.75033 0.51620 0.54236 -0.20000
H 	H 	0.79534 0.63538 0.53275 0.05000
C 	C 	0.82430 0.72258 0.45655 0.03900
C 	C 	0.85015 0.78530 0.45245 -0.05100
C 	C 	0.90983 0.83655 0.47512 -0.04200
C 	C 	0.94146 0.82523 0.50457 0.05600
C 	C 	0.91742 0.76251 0.50710 -0.07600
C 	C 	0.75950 0.66811 0.43250 -0.17800
H 	H 	0.82487 0.79405 0.43072 0.04300
C 	C 	0.00196 0.87959 0.53241 -0.17300
H 	H 	0.94383 0.75362 0.52784 0.04400
H 	H 	0.69725 0.48689 0.53246 0.07300
H 	H 	0.76416 0.55098 0.56925 0.06400
H 	H 	0.76393 0.48536 0.55059 0.06500
H 	H 	0.94382 0.69950 0.44234 0.06300
H 	H 	0.87287 0.66455 0.40490 0.06100
H 	H 	0.91235 0.62722 0.40924 0.05900
H 	H 	0.73347 0.68509 0.41845 0.06000
H 	H 	0.72877 0.63513 0.45151 0.06400
H 	H 	0.76592 0.64177 0.40908 0.06200
H 	H 	0.00860 0.86455 0.56002 0.06100
H 	H 	0.99949 0.91971 0.54059 0.06100
H 	H 	0.04452 0.89621 0.51843 0.06700
C 	C 	0.82587 0.14885 0.42721 -0.10000
C 	C 	0.82756 0.11969 0.45843 0.01000
C 	C 	0.80292 0.12446 0.49186 0.01500
C 	C 	0.78055 0.16151 0.49458 -0.01200
C 	C 	0.77871 0.19082 0.46342 -0.12400
C 	C 	0.79937 0.18243 0.42878 0.10500
C 	C 	0.85773 0.08637 0.45672 -0.01100
C 	C 	0.80204 0.09160 0.52519 -0.16700
H 	H 	0.76455 0.16763 0.52109 0.01200
C 	C 	0.79331 0.20883 0.39351 -0.21000
H 	H 	0.84457 0.14483 0.40151 0.05100
C 	C 	0.82302 0.02331 0.43590 0.03900
C 	C 	0.85170 0.99182 0.43660 -0.05100
C 	C 	0.91361 0.02173 0.45872 -0.04300
C 	C 	0.94692 0.08375 0.48109 0.05700
C 	C 	0.91985 0.11649 0.47841 -0.07600
C 	C 	0.75568 0.98961 0.41289 -0.17800
H 	H 	0.82602 0.94417 0.41967 0.04300
C 	C 	0.01106 0.11529 0.50791 -0.18100
H 	H 	0.94622 0.16479 0.49445 0.04300
H 	H 	0.74504 0.19843 0.38735 0.08500
H 	H 	0.79881 0.18722 0.36675 0.07000
H 	H 	0.83133 0.26100 0.39889 0.08800
H 	H 	0.85190 0.11651 0.54167 0.05800
H 	H 	0.78132 0.04131 0.51373 0.06100
H 	H 	0.77210 0.09138 0.54596 0.05300
H 	H 	0.73362 0.93931 0.40032 0.06000
H 	H 	0.75700 0.01393 0.38831 0.06300
H 	H 	0.72426 0.98971 0.43228 0.06300
H 	H 	0.05011 0.13511 0.49048 0.07100
H 	H 	0.01085 0.08081 0.52395 0.07000
H 	H 	0.02190 0.15476 0.53034 0.06200
C 	C 	0.19390 0.09391 0.41558 -0.07900
C 	C 	0.23640 0.10177 0.44765 -0.00900
C 	C 	0.21223 0.07230 0.47990 0.03800
C 	C 	0.14578 0.03590 0.47974 -0.04800
C 	C 	0.10315 0.02790 0.44767 -0.04700
C 	C 	0.12717 0.05612 0.41495 0.06700
C 	C 	0.30646 0.14171 0.44753 0.00900
C 	C 	0.25725 0.08064 0.51485 -0.17800
H 	H 	0.12720 0.01434 0.50483 0.04000
C 	C 	0.08218 0.04692 0.37966 -0.19000
H 	H 	0.21279 0.11684 0.39096 0.04600
C 	C 	0.33513 0.11513 0.43113 0.02000
C 	C 	0.40247 0.15263 0.43479 -0.01400
C 	C 	0.44120 0.21621 0.45416 -0.11200
C 	C 	0.41241 0.24325 0.46970 0.10300
C 	C 	0.34505 0.20584 0.46587 -0.09800
C 	C 	0.29421 0.04668 0.41035 -0.17000
H 	H 	0.42485 0.13223 0.42278 0.02600
C 	C 	0.45329 0.31157 0.49076 -0.20600
H 	H 	0.32268 0.22612 0.47806 0.05100
H 	H 	0.04040 0.99597 0.37050 0.07100
H 	H 	0.10676 0.06217 0.35419 0.06300
H 	H 	0.06458 0.07546 0.38689 0.07200
H 	H 	0.28979 0.13129 0.52973 0.06600
H 	H 	0.28665 0.06565 0.50524 0.06500
H 	H 	0.23046 0.05162 0.53659 0.06000
H 	H 	0.32380 0.03363 0.39827 0.05700
H 	H 	0.25853 0.03851 0.38552 0.06200
H 	H 	0.26828 0.01484 0.43113 0.06100
H 	H 	0.47932 0.34361 0.47009 0.07500
H 	H 	0.48884 0.31956 0.51562 0.07700
H 	H 	0.42363 0.32452 0.50285 0.06600
C 	C 	0.83158 0.65673 0.99545 -0.09300
C 	C 	0.79699 0.68203 0.99560 0.00700
C 	C 	0.72951 0.64155 0.99324 0.02100
C 	C 	0.69751 0.57598 0.99041 -0.01200
C 	C 	0.73213 0.55064 0.99035 -0.11000
C 	C 	0.79983 0.59138 0.99349 0.09400
C 	C 	0.83182 0.75094 0.99728 -0.00700
C 	C 	0.69146 0.66794 0.99301 -0.16900
H 	H 	0.64555 0.54453 0.98803 0.03800
C 	C 	0.83831 0.56541 0.99452 -0.19600
H 	H 	0.88339 0.68812 0.99709 0.05000
C 	C 	0.86365 0.79392 0.03354 0.03600
C 	C 	0.90194 0.85951 0.03393 -0.04900
C 	C 	0.90781 0.88239 0.99874 -0.04600
C 	C 	0.87396 0.83939 0.96260 0.06700
C 	C 	0.83629 0.77386 0.96218 -0.07900
C 	C 	0.85885 0.77007 0.07165 -0.17700
H 	H 	0.92801 0.89282 0.06158 0.04000
C 	C 	0.87922 0.86327 0.92445 -0.19000
H 	H 	0.81128 0.74055 0.93447 0.04700
H 	H 	0.89102 0.60410 0.00239 0.06000
H 	H 	0.82818 0.53750 0.96520 0.07100
H 	H 	0.82554 0.53447 0.01680 0.05500
H 	H 	0.69363 0.68760 0.96592 0.06200
H 	H 	0.71160 0.70619 0.01907 0.06000
H 	H 	0.63995 0.63080 0.99386 0.05800
H 	H 	0.88030 0.80909 0.09745 0.05900
H 	H 	0.88483 0.74858 0.07365 0.06200
H 	H 	0.80751 0.73383 0.07331 0.06200
H 	H 	0.84947 0.82357 0.89882 0.06200
H 	H 	0.93017 0.89180 0.92037 0.06800
H 	H 	0.86226 0.89329 0.92473 0.07000
C 	C 	0.84538 0.20368 0.96831 -0.09200
C 	C 	0.82509 0.14581 0.97910 0.00500
C 	C 	0.76281 0.10521 0.98800 0.02400
C 	C 	0.72144 0.12304 0.98548 -0.01300
C 	C 	0.74160 0.18071 0.97439 -0.11400
C 	C 	0.80390 0.22128 0.96550 0.08900
C 	C 	0.86928 0.12776 0.98073 -0.00600
C 	C 	0.74060 0.04326 0.00041 -0.17400
H 	H 	0.67362 0.09214 0.99229 0.03300
C 	C 	0.82627 0.28330 0.95309 -0.19100
H 	H 	0.89331 0.23473 0.96169 0.04800
C 	C 	0.86952 0.09334 0.94723 0.03600
C 	C 	0.90664 0.07079 0.95069 -0.04800
C 	C 	0.94400 0.08295 0.98693 -0.04700
C 	C 	0.94772 0.12167 0.01964 0.06600
C 	C 	0.90997 0.14357 0.01632 -0.08100
C 	C 	0.82861 0.07873 0.90816 -0.17600
H 	H 	0.90454 0.04163 0.92554 0.03900
C 	C 	0.98950 0.13720 0.05852 -0.19800
H 	H 	0.91082 0.17139 0.04170 0.04700
H 	H 	0.79230 0.27450 0.92689 0.03000
H 	H 	0.87491 0.30795 0.94532 0.05900
H 	H 	0.82873 0.31546 0.97742 0.06000
H 	H 	0.77256 0.05261 0.02792 0.06400
H 	H 	0.74193 0.01257 0.97705 0.06300
H 	H 	0.69045 0.01667 0.00590 0.05900
H 	H 	0.83664 0.05416 0.88449 0.05800
H 	H 	0.84077 0.12349 0.89967 0.06200
H 	H 	0.77674 0.04751 0.91012 0.06100
H 	H 	0.03965 0.15821 0.05456 0.07200
H 	H 	0.97017 0.09326 0.07073 0.06800
H 	H 	0.99122 0.17207 0.08023 0.06200
C 	C 	0.35135 0.12393 0.01722 -0.09800
C 	C 	0.31963 0.13836 0.99079 0.00800
C 	C 	0.35320 0.17912 0.96467 0.02100
C 	C 	0.41903 0.20748 0.96681 -0.01700
C 	C 	0.45239 0.19769 0.99563 -0.11100
C 	C 	0.41759 0.15311 0.01985 0.09600
C 	C 	0.25199 0.11298 0.99195 -0.00700
C 	C 	0.32000 0.19543 0.93609 -0.17100
H 	H 	0.44514 0.23966 0.94718 0.03400
C 	C 	0.45004 0.13522 0.04768 -0.20500
H 	H 	0.32467 0.09085 0.03628 0.05100
C 	C 	0.20032 0.05476 0.96794 0.03800
C 	C 	0.13675 0.03334 0.96832 -0.04700
C 	C 	0.12396 0.06778 0.99360 -0.04500
C 	C 	0.17579 0.12518 0.01857 0.06500
C 	C 	0.23947 0.14794 0.01686 -0.07900
C 	C 	0.21273 0.01488 0.94245 -0.17700
H 	H 	0.09697 0.98912 0.94941 0.04300
C 	C 	0.16368 0.16235 0.04695 -0.18900
H 	H 	0.27944 0.19273 0.03516 0.04700
H 	H 	0.46585 0.11049 0.03073 0.08000
H 	H 	0.41693 0.10279 0.06609 0.06700
H 	H 	0.49237 0.17815 0.06780 0.08000
H 	H 	0.30701 0.22340 0.95242 0.06400
H 	H 	0.27557 0.15144 0.91800 0.06100
H 	H 	0.35147 0.22403 0.91573 0.05900
H 	H 	0.16712 0.97023 0.92583 0.06100
H 	H 	0.23886 0.00181 0.96100 0.06500
H 	H 	0.24220 0.04183 0.92090 0.06200
H 	H 	0.20829 0.20015 0.06833 0.06200
H 	H 	0.12717 0.13058 0.06406 0.06800
H 	H 	0.14648 0.18537 0.03057 0.06900
