data_crystal

_cell_length_a 18.64359
_cell_length_b 18.74290
_cell_length_c 34.92899
_cell_angle_alpha 95.43142
_cell_angle_beta  95.43191
_cell_angle_gamma 126.41472

_symmetry_space_group_name_	'P 1'
_symmetry_space_group_name_H-M	'P 1'

loop_
_symmetry_equiv_pos_as_xyz
  x,y,z

loop_
_atom_site_label
_atom_site_type_symbol
_atom_site_fract_x
_atom_site_fract_y
_atom_site_fract_z
_atom_site_charge
C 	C 	0.94503 0.02852 0.97450 0.10300
N 	N 	0.90083 0.93772 0.96977 -0.12800
C 	C 	0.94969 0.90529 0.97278 0.11300
N 	N 	0.04172 0.96336 0.97934 -0.12400
C 	C 	0.08548 0.05383 0.98587 0.11300
N 	N 	0.03679 0.08592 0.98401 -0.13100
C 	C 	0.91803 0.00572 0.49573 0.10300
N 	N 	0.00820 0.05167 0.49509 -0.13100
C 	C 	0.04349 0.00570 0.49150 0.11800
N 	N 	0.98874 0.91475 0.48800 -0.13700
C 	C 	0.89906 0.86925 0.48795 0.12200
N 	N 	0.86384 0.91461 0.49191 -0.13200
Cu	Cu	0.77095 0.35862 0.95486 0.92200
Cu	Cu	0.80530 0.31373 0.04245 0.87800
Cu	Cu	0.65250 0.34099 0.01340 0.91000
Cu	Cu	0.60841 0.36935 0.93558 0.89700
C 	C 	0.69520 0.34002 0.87508 0.29200
O 	O 	0.82981 0.49273 0.95461 -0.35500
C 	C 	0.69684 0.32776 0.09037 0.28800
O 	O 	0.63459 0.29854 0.95826 -0.63800
O 	O 	0.77833 0.38094 0.01251 -0.63000
O 	O 	0.81241 0.27996 0.94926 -0.35700
O 	O 	0.88591 0.31997 0.01234 -0.42100
O 	O 	0.66678 0.38522 0.88894 -0.38700
O 	O 	0.52872 0.29550 0.01485 -0.38100
C 	C 	0.46844 0.28240 0.98604 0.29600
C 	C 	0.79788 0.53295 0.97088 0.28000
O 	O 	0.71599 0.48398 0.97918 -0.40100
O 	O 	0.49057 0.31221 0.95302 -0.39200
O 	O 	0.74057 0.32278 0.89866 -0.36100
C 	C 	0.85303 0.26753 0.97791 0.28800
O 	O 	0.67596 0.37035 0.07000 -0.37800
O 	O 	0.70937 0.27237 0.07223 -0.42600
H 	H 	0.58861 0.23244 0.94959 0.16300
H 	H 	0.82300 0.44596 0.02404 0.15700
Cu	Cu	0.58978 0.18505 0.50354 0.92300
Cu	Cu	0.64016 0.15402 0.41731 0.87800
Cu	Cu	0.61782 0.30989 0.44657 0.91000
Cu	Cu	0.56914 0.33999 0.52236 0.89600
C 	C 	0.60379 0.25729 0.58342 0.28900
O 	O 	0.45352 0.11935 0.50192 -0.35700
C 	C 	0.63779 0.26999 0.37030 0.28900
O 	O 	0.64787 0.32103 0.50214 -0.63800
O 	O 	0.57226 0.18250 0.44599 -0.63000
O 	O 	0.67254 0.14872 0.50950 -0.36300
O 	O 	0.62788 0.07057 0.44715 -0.42100
O 	O 	0.55700 0.28446 0.56967 -0.38700
O 	O 	0.67036 0.43528 0.44857 -0.37800
C 	C 	0.67326 0.48637 0.47831 0.29500
C 	C 	0.41187 0.14992 0.48597 0.28300
O 	O 	0.46003 0.23094 0.47753 -0.39700
O 	O 	0.61273 0.45123 0.50127 -0.39100
O 	O 	0.62040 0.21125 0.55986 -0.36000
C 	C 	0.67902 0.10086 0.48189 0.29100
O 	O 	0.59605 0.29324 0.39007 -0.37900
O 	O 	0.68904 0.25281 0.38894 -0.42500
H 	H 	0.71308 0.36725 0.51361 0.16200
H 	H 	0.50743 0.14005 0.43338 0.15900
C 	C 	0.66057 0.23036 0.77158 -0.06200
C 	C 	0.67528 0.29715 0.75081 0.01900
C 	C 	0.70347 0.38040 0.77125 -0.06200
C 	C 	0.71315 0.39552 0.81198 0.01400
C 	C 	0.69471 0.32743 0.83273 -0.08400
C 	C 	0.67055 0.24556 0.81246 0.01200
C 	C 	0.65302 0.27725 0.70768 0.01900
H 	H 	0.71563 0.43256 0.75546 0.04700
H 	H 	0.73367 0.45968 0.82737 0.03600
H 	H 	0.65671 0.19275 0.82816 0.03300
H 	H 	0.63903 0.16593 0.75602 0.04700
C 	C 	0.71600 0.28569 0.68566 -0.06100
C 	C 	0.69897 0.27685 0.64489 0.01100
C 	C 	0.61901 0.25996 0.62594 -0.08300
C 	C 	0.55475 0.24851 0.64798 0.01300
C 	C 	0.57175 0.25716 0.68862 -0.06200
H 	H 	0.77895 0.30116 0.70016 0.04700
H 	H 	0.74886 0.28537 0.62821 0.03500
H 	H 	0.49191 0.23356 0.63366 0.03600
H 	H 	0.52255 0.25004 0.70540 0.04700
C 	C 	0.60937 0.31648 0.18465 -0.06400
C 	C 	0.67122 0.31563 0.21051 0.02000
C 	C 	0.74473 0.32492 0.19735 -0.06500
C 	C 	0.75433 0.33138 0.15836 0.01400
C 	C 	0.69124 0.32981 0.13221 -0.09300
C 	C 	0.61956 0.32393 0.14568 0.01700
C 	C 	0.65696 0.30096 0.25086 0.02000
H 	H 	0.79364 0.32575 0.21720 0.04400
H 	H 	0.81034 0.33670 0.14836 0.01200
H 	H 	0.57023 0.32232 0.12573 0.03800
H 	H 	0.55240 0.30937 0.19448 0.04700
C 	C 	0.65354 0.36066 0.27665 -0.06300
C 	C 	0.64496 0.34936 0.31544 0.01700
C 	C 	0.64047 0.27865 0.32883 -0.09200
C 	C 	0.64221 0.21808 0.30281 0.01300
C 	C 	0.64986 0.22884 0.26399 -0.06500
H 	H 	0.65912 0.41664 0.26687 0.04700
H 	H 	0.64405 0.39679 0.33526 0.03900
H 	H 	0.63788 0.16277 0.31270 0.01300
H 	H 	0.65117 0.18165 0.24420 0.04400
C 	C 	0.84095 0.77146 0.48519 -0.01500
C 	C 	0.85227 0.73542 0.51647 -0.05500
C 	C 	0.79819 0.64214 0.51440 0.05200
C 	C 	0.73167 0.58414 0.48071 -0.09000
C 	C 	0.72079 0.62016 0.44928 -0.00400
C 	C 	0.77514 0.71350 0.45131 0.00900
S 	S 	0.81616 0.59863 0.55363 -0.07500
S 	S 	0.76156 0.75692 0.41100 -0.03300
H 	H 	0.70123 0.77477 0.41584 0.04100
H 	H 	0.76079 0.58759 0.57942 0.03500
H 	H 	0.90343 0.78013 0.54241 0.05100
H 	H 	0.66979 0.57548 0.42330 0.04400
C 	C 	0.87740 0.05324 0.49853 -0.01000
C 	C 	0.87516 0.09507 0.46772 -0.06200
C 	C 	0.81351 0.11481 0.46292 0.05900
C 	C 	0.75177 0.09060 0.48881 -0.09900
C 	C 	0.76027 0.05702 0.52173 -0.00400
C 	C 	0.82363 0.03959 0.52703 0.00700
S 	S 	0.81737 0.17336 0.42563 -0.12800
S 	S 	0.83540 0.00102 0.56949 -0.04800
H 	H 	0.77770 0.90853 0.56250 0.04800
H 	H 	0.87457 0.26431 0.44022 0.03600
H 	H 	0.91851 0.10857 0.44645 0.05200
H 	H 	0.71645 0.04281 0.54285 0.04300
C 	C 	0.14075 0.05352 0.49142 -0.01400
C 	C 	0.17054 0.06614 0.45556 -0.05500
C 	C 	0.25644 0.08995 0.45271 0.05100
C 	C 	0.31481 0.10401 0.48633 -0.08800
C 	C 	0.28501 0.09143 0.52222 -0.01400
C 	C 	0.19881 0.06695 0.52498 0.01100
S 	S 	0.28875 0.09846 0.40658 -0.06000
S 	S 	0.16426 0.05343 0.57064 -0.04400
H 	H 	0.11816 0.96478 0.57417 0.04900
H 	H 	0.33300 0.18557 0.40094 0.04200
H 	H 	0.12524 0.05350 0.42947 0.05200
H 	H 	0.33019 0.10394 0.54833 0.04500
C 	C 	0.84531 0.63063 0.97237 -0.08600
C 	C 	0.86158 0.66468 0.93748 -0.01200
C 	C 	0.89044 0.75276 0.93673 0.00900
C 	C 	0.90384 0.80804 0.97126 -0.01200
C 	C 	0.88850 0.77436 0.00621 -0.05500
C 	C 	0.86027 0.68659 0.00704 0.05000
S 	S 	0.90865 0.79269 0.89232 -0.03500
S 	S 	0.84750 0.64889 0.05199 -0.06100
H 	H 	0.75966 0.60641 0.05696 0.04300
H 	H 	0.99784 0.83599 0.88949 0.03900
H 	H 	0.84902 0.62169 0.91061 0.04400
H 	H 	0.90131 0.81751 0.03307 0.05200
C 	C 	0.89488 0.06555 0.96728 -0.01000
C 	C 	0.84651 0.06706 0.99529 -0.06000
C 	C 	0.82697 0.12885 0.99746 0.05400
C 	C 	0.85765 0.19113 0.97172 -0.09700
C 	C 	0.89663 0.18244 0.94096 -0.00400
C 	C 	0.91426 0.11923 0.93833 0.00600
S 	S 	0.76150 0.12525 0.03149 -0.11400
S 	S 	0.96253 0.10916 0.89919 -0.04100
H 	H 	0.89472 0.04403 0.86891 0.03600
H 	H 	0.81761 0.18034 0.06630 0.01500
H 	H 	0.82838 0.02362 0.01675 0.05100
H 	H 	0.91604 0.22679 0.91984 0.04400
C 	C 	0.18517 0.11706 0.98978 -0.01200
C 	C 	0.22349 0.19356 0.97225 -0.05800
C 	C 	0.31715 0.25307 0.97421 0.05300
C 	C 	0.37298 0.23200 0.99080 -0.08900
C 	C 	0.33556 0.15824 0.01008 -0.01000
C 	C 	0.24267 0.10259 0.01085 0.00800
S 	S 	0.36403 0.35736 0.95932 -0.04400
S 	S 	0.20117 0.02061 0.04086 -0.03500
H 	H 	0.20453 0.05770 0.07735 0.03600
H 	H 	0.38367 0.42009 0.99056 0.03900
H 	H 	0.18037 0.20735 0.95739 0.05800
H 	H 	0.37873 0.14395 0.02443 0.04200
