data_crystal

_cell_length_a 33.61097
_cell_length_b 34.13279
_cell_length_c 40.04306
_cell_angle_alpha 95.50028
_cell_angle_beta  95.50512
_cell_angle_gamma 125.54069

_symmetry_space_group_name_	'P 1'
_symmetry_space_group_name_H-M	'P 1'

loop_
_symmetry_equiv_pos_as_xyz
  x,y,z

loop_
_atom_site_label
_atom_site_type_symbol
_atom_site_fract_x
_atom_site_fract_y
_atom_site_fract_z
_atom_site_charge
C 	C 	0.98051 0.02625 0.99875 0.11800
N 	N 	0.03018 0.05322 0.99878 -0.14200
C 	C 	0.05317 0.03117 0.99750 0.11800
C 	C 	0.94380 0.99186 0.44871 0.11600
N 	N 	0.99370 0.01882 0.44969 -0.14100
C 	C 	0.01791 0.99826 0.45406 0.11700
Cu	Cu	0.65611 0.26542 0.99788 0.92800
Cu	Cu	0.69801 0.26826 0.92664 0.86900
Cu	Cu	0.68488 0.34350 0.95422 0.89600
Cu	Cu	0.65232 0.35359 0.01947 0.89400
C 	C 	0.66300 0.29773 0.06872 0.28900
O 	O 	0.58279 0.23435 0.99549 -0.36600
C 	C 	0.66982 0.30994 0.88003 0.28800
O 	O 	0.69464 0.34137 0.00168 -0.64200
O 	O 	0.65147 0.27143 0.94928 -0.64200
O 	O 	0.68785 0.23112 0.99695 -0.37600
O 	O 	0.74370 0.28164 0.96573 -0.44200
O 	O 	0.64175 0.31841 0.05870 -0.38700
C 	C 	0.56247 0.25409 0.98241 0.28300
O 	O 	0.59107 0.29984 0.97839 -0.39400
O 	O 	0.67076 0.27272 0.04645 -0.36300
C 	C 	0.73011 0.24983 0.98618 0.28900
O 	O 	0.68715 0.34693 0.90546 -0.39000
O 	O 	0.66768 0.27117 0.88506 -0.42000
H 	H 	0.72979 0.36305 0.01365 0.16400
H 	H 	0.61728 0.25120 0.93566 0.17100
Cu	Cu	0.72376 0.33223 0.45456 0.92700
Cu	Cu	0.72217 0.29741 0.52827 0.87000
Cu	Cu	0.64203 0.30230 0.49658 0.89700
Cu	Cu	0.62850 0.32567 0.42815 0.89300
C 	C 	0.68669 0.31287 0.38274 0.28900
C 	C 	0.67501 0.32251 0.57176 0.28900
O 	O 	0.64570 0.28965 0.44980 -0.64000
O 	O 	0.71596 0.33924 0.50264 -0.64100
O 	O 	0.76182 0.30416 0.45919 -0.37400
O 	O 	0.71055 0.25087 0.49126 -0.44200
O 	O 	0.66509 0.33411 0.38984 -0.38600
O 	O 	0.57005 0.26280 0.48757 -0.38500
C 	C 	0.54251 0.26633 0.46393 0.29100
O 	O 	0.67977 0.38951 0.46777 -0.39500
O 	O 	0.56221 0.29579 0.44167 -0.39700
O 	O 	0.71850 0.31514 0.40648 -0.36300
C 	C 	0.74358 0.26369 0.47149 0.28700
O 	O 	0.63795 0.30405 0.54559 -0.38800
O 	O 	0.71655 0.32839 0.56780 -0.42200
H 	H 	0.62588 0.25445 0.43941 0.16300
H 	H 	0.73462 0.37341 0.51507 0.17200
C 	C 	0.66009 0.31540 0.84468 -0.09200
C 	C 	0.68768 0.36190 0.83558 0.01500
C 	C 	0.68341 0.36626 0.80128 -0.07100
C 	C 	0.65144 0.32432 0.77586 0.03800
C 	C 	0.62187 0.27818 0.78500 -0.07200
C 	C 	0.62610 0.27370 0.81928 0.01500
C 	C 	0.65287 0.32808 0.74042 -0.02300
C 	C 	0.65409 0.33127 0.71076 -0.02300
C 	C 	0.65694 0.33458 0.67538 0.03800
C 	C 	0.61563 0.29970 0.64984 -0.07100
C 	C 	0.62066 0.29768 0.61556 0.01500
C 	C 	0.66723 0.33038 0.60666 -0.09200
C 	C 	0.70777 0.36718 0.63214 0.01600
C 	C 	0.70261 0.36922 0.66636 -0.07200
H 	H 	0.59672 0.24562 0.76550 0.04600
H 	H 	0.60383 0.23772 0.82600 0.02800
H 	H 	0.58010 0.27299 0.65661 0.04700
H 	H 	0.58898 0.26927 0.59617 0.03300
C 	C 	0.66675 0.29244 0.10472 -0.08700
C 	C 	0.70799 0.29650 0.12153 0.01500
C 	C 	0.71226 0.29341 0.15616 -0.07000
C 	C 	0.67517 0.28591 0.17402 0.03900
C 	C 	0.63353 0.28076 0.15707 -0.07100
C 	C 	0.62929 0.28401 0.12260 0.01700
C 	C 	0.68053 0.28547 0.21006 -0.02200
C 	C 	0.68284 0.28480 0.24020 -0.02200
C 	C 	0.68354 0.28459 0.27618 0.04000
C 	C 	0.63894 0.26295 0.28853 -0.07100
C 	C 	0.63987 0.26990 0.32363 0.01600
C 	C 	0.68543 0.29837 0.34666 -0.08800
C 	C 	0.72995 0.31756 0.33437 0.02000
C 	C 	0.72899 0.31085 0.29918 -0.07100
H 	H 	0.73707 0.30289 0.10798 0.03100
H 	H 	0.74458 0.29739 0.16913 0.04800
H 	H 	0.60462 0.27471 0.17070 0.04700
H 	H 	0.59687 0.27996 0.10978 0.03300
H 	H 	0.60365 0.24235 0.27090 0.04700
H 	H 	0.60528 0.25451 0.33287 0.01900
H 	H 	0.76537 0.33951 0.35192 0.03600
H 	H 	0.76363 0.32753 0.28982 0.04900
C 	C 	0.76300 0.23473 0.46551 -0.09600
C 	C 	0.75493 0.20088 0.48648 0.01100
C 	C 	0.77418 0.17433 0.48159 -0.06900
C 	C 	0.80188 0.18130 0.45578 0.02700
C 	C 	0.80946 0.21451 0.43445 -0.06800
C 	C 	0.79009 0.24111 0.43926 0.01500
C 	C 	0.82396 0.15466 0.45178 -0.00200
C 	C 	0.85876 0.16158 0.47866 -0.03700
C 	C 	0.87643 0.13329 0.47621 -0.04200
C 	C 	0.85964 0.09797 0.44680 0.00500
C 	C 	0.82577 0.09181 0.41956 -0.04100
C 	C 	0.80793 0.12001 0.42205 -0.03700
C 	C 	0.87733 0.06726 0.44472 0.01300
C 	C 	0.86267 0.03198 0.46555 -0.04900
C 	C 	0.88290 0.00592 0.46589 -0.02000
C 	C 	0.91820 0.01512 0.44552 -0.02200
C 	C 	0.93159 0.04930 0.42385 -0.02000
C 	C 	0.91118 0.07518 0.42343 -0.04900
H 	H 	0.73423 0.19551 0.50686 0.01900
H 	H 	0.76786 0.14854 0.49803 0.04300
H 	H 	0.83072 0.22006 0.41439 0.04600
H 	H 	0.79616 0.26659 0.42261 0.03800
H 	H 	0.87159 0.18842 0.50162 0.03600
H 	H 	0.90293 0.13860 0.49722 0.03900
H 	H 	0.81278 0.06476 0.39669 0.03900
H 	H 	0.78098 0.11430 0.40120 0.03800
H 	H 	0.83635 0.02546 0.48195 0.04100
H 	H 	0.87230 0.97972 0.48275 0.03900
H 	H 	0.95832 0.05630 0.40770 0.03800
H 	H 	0.92252 0.10218 0.40715 0.04200
C 	C 	0.48879 0.23977 0.46409 -0.08800
C 	C 	0.46343 0.25809 0.45131 0.01400
C 	C 	0.41242 0.23253 0.45079 -0.06700
C 	C 	0.38621 0.18851 0.46317 0.02700
C 	C 	0.41150 0.17034 0.47623 -0.06700
C 	C 	0.46254 0.19580 0.47666 0.01400
C 	C 	0.33219 0.16119 0.46207 -0.00200
C 	C 	0.31367 0.18308 0.47977 -0.03700
C 	C 	0.26242 0.15749 0.47825 -0.04100
C 	C 	0.22933 0.10976 0.45916 0.00500
C 	C 	0.24778 0.08787 0.44145 -0.04100
C 	C 	0.29901 0.11351 0.44284 -0.03700
C 	C 	0.17550 0.08217 0.45851 0.01300
C 	C 	0.14771 0.09378 0.43939 -0.04900
C 	C 	0.09634 0.06673 0.43812 -0.02000
C 	C 	0.07238 0.02791 0.45612 -0.02200
C 	C 	0.10053 0.01687 0.47564 -0.01900
C 	C 	0.15178 0.04378 0.47671 -0.05000
H 	H 	0.48324 0.29223 0.44190 0.03200
H 	H 	0.39321 0.24679 0.44061 0.04500
H 	H 	0.39159 0.13645 0.48596 0.04500
H 	H 	0.48150 0.18108 0.48643 0.03100
H 	H 	0.33899 0.21982 0.49475 0.03800
H 	H 	0.24845 0.17456 0.49211 0.03900
H 	H 	0.22244 0.05102 0.42663 0.03900
H 	H 	0.31290 0.09645 0.42888 0.03700
H 	H 	0.16581 0.12340 0.42525 0.04200
H 	H 	0.07514 0.07550 0.42279 0.03900
H 	H 	0.17307 0.03481 0.49170 0.04200
C 	C 	0.95560 0.05031 0.00030 -0.02100
C 	C 	0.91465 0.03199 0.01681 -0.02000
C 	C 	0.89104 0.05475 0.01821 -0.04900
C 	C 	0.90817 0.09608 0.00320 0.01400
C 	C 	0.94913 0.11455 0.98682 -0.05000
C 	C 	0.97272 0.09178 0.98533 -0.02000
C 	C 	0.88263 0.11944 0.00405 0.00500
C 	C 	0.83373 0.09420 0.98612 -0.04200
C 	C 	0.81001 0.11688 0.98601 -0.03800
C 	C 	0.83496 0.16497 0.00391 -0.00200
C 	C 	0.88367 0.19002 0.02219 -0.03700
C 	C 	0.90743 0.16735 0.02223 -0.04200
C 	C 	0.81067 0.18960 0.00250 0.02700
C 	C 	0.76595 0.16993 0.01449 -0.06900
C 	C 	0.74054 0.19063 0.01033 0.01500
C 	C 	0.75959 0.23125 0.99403 -0.09800
C 	C 	0.80557 0.25220 0.98345 0.01100
C 	C 	0.83083 0.23134 0.98754 -0.07100
H 	H 	0.85950 0.04035 0.03100 0.04200
H 	H 	0.96240 0.14628 0.97499 0.04100
H 	H 	0.00394 0.10604 0.97223 0.03800
H 	H 	0.81437 0.05725 0.97194 0.03900
H 	H 	0.77251 0.09735 0.97166 0.03600
H 	H 	0.90316 0.22707 0.03620 0.03800
H 	H 	0.94513 0.18702 0.03627 0.03900
H 	H 	0.75046 0.13808 0.02649 0.04600
H 	H 	0.70555 0.17441 0.01912 0.03700
H 	H 	0.82133 0.28407 0.97146 0.02500
H 	H 	0.86551 0.24696 0.97840 0.04300
C 	C 	0.10668 0.06008 0.99662 -0.02400
C 	C 	0.13674 0.05054 0.01531 -0.01900
C 	C 	0.18663 0.07513 0.01240 -0.04900
C 	C 	0.20692 0.10942 0.99075 0.01300
C 	C 	0.17727 0.11982 0.97263 -0.05000
C 	C 	0.12735 0.09535 0.97562 -0.01900
C 	C 	0.25875 0.13324 0.98632 0.00400
C 	C 	0.29802 0.16510 0.01391 -0.04100
C 	C 	0.34686 0.18410 0.01071 -0.03700
C 	C 	0.35680 0.17135 0.97990 -0.00300
C 	C 	0.31772 0.14066 0.95197 -0.03700
C 	C 	0.26884 0.12165 0.95517 -0.04100
C 	C 	0.40777 0.18841 0.97744 0.02600
C 	C 	0.43049 0.17224 0.99708 -0.06800
C 	C 	0.48039 0.19188 0.99739 0.01200
C 	C 	0.50815 0.22809 0.97809 -0.09100
C 	C 	0.48460 0.24246 0.95711 0.01100
C 	C 	0.43462 0.22274 0.95684 -0.06700
H 	H 	0.12133 0.02378 0.03186 0.03900
H 	H 	0.20934 0.06702 0.02656 0.04200
H 	H 	0.19274 0.14644 0.95598 0.04100
H 	H 	0.10449 0.10292 0.96100 0.03800
H 	H 	0.29057 0.17445 0.03798 0.03900
H 	H 	0.37691 0.20815 0.03230 0.03800
H 	H 	0.32511 0.13073 0.92807 0.03700
H 	H 	0.23870 0.09704 0.93374 0.03900
H 	H 	0.40979 0.14526 0.01273 0.04600
H 	H 	0.49790 0.18021 0.01357 0.03800
H 	H 	0.50526 0.26965 0.94159 0.03000
H 	H 	0.41715 0.23501 0.94130 0.04500
N 	N 	0.02648 0.98211 0.99631 -0.14200
C 	C 	0.97679 0.95489 0.99600 0.11800
N 	N 	0.95384 0.97703 0.99719 -0.14200
N 	N 	0.99203 0.95057 0.45738 -0.14100
C 	C 	0.94223 0.92345 0.45655 0.11700
N 	N 	0.91805 0.94408 0.45215 -0.14100
O 	O 	0.72073 0.41391 0.96240 -0.38400
C 	C 	0.71391 0.43923 0.98515 0.28900
O 	O 	0.67977 0.41753 0.00445 -0.39600
O 	O 	0.75008 0.40295 0.45367 -0.36200
C 	C 	0.72608 0.42014 0.46403 0.28200
H 	H 	0.71383 0.39444 0.85488 0.03500
H 	H 	0.70619 0.40210 0.79439 0.04700
H 	H 	0.74365 0.39323 0.62555 0.02800
H 	H 	0.73460 0.39660 0.68595 0.04600
C 	C 	0.91498 0.87221 0.46133 -0.02300
C 	C 	0.87064 0.83493 0.43880 -0.02000
C 	C 	0.84831 0.78573 0.44073 -0.04900
C 	C 	0.86997 0.77351 0.46537 0.01300
C 	C 	0.91322 0.81081 0.48867 -0.04900
C 	C 	0.93566 0.85991 0.48666 -0.01900
C 	C 	0.84861 0.72172 0.46591 0.00500
C 	C 	0.82675 0.70052 0.49343 -0.04100
C 	C 	0.80842 0.65204 0.49466 -0.03800
C 	C 	0.81188 0.62440 0.46839 -0.00200
C 	C 	0.83383 0.64566 0.44089 -0.03700
C 	C 	0.85210 0.69412 0.43964 -0.04100
C 	C 	0.79042 0.57253 0.46887 0.02600
C 	C 	0.73902 0.53825 0.46681 -0.06700
C 	C 	0.71827 0.48882 0.46603 0.01200
C 	C 	0.74872 0.47300 0.46718 -0.08900
C 	C 	0.80038 0.50756 0.46987 0.01300
C 	C 	0.82110 0.55709 0.47067 -0.06700
H 	H 	0.85437 0.84396 0.41914 0.03900
H 	H 	0.81469 0.75714 0.42278 0.04200
H 	H 	0.93004 0.80171 0.50788 0.04100
H 	H 	0.96961 0.88839 0.50439 0.03800
H 	H 	0.82406 0.72162 0.51387 0.03900
H 	H 	0.79146 0.63593 0.51596 0.03800
H 	H 	0.83638 0.62453 0.42038 0.03900
H 	H 	0.86925 0.71031 0.41842 0.04000
H 	H 	0.71504 0.54981 0.46533 0.04500
H 	H 	0.67837 0.46271 0.46383 0.02800
H 	H 	0.82445 0.49611 0.47120 0.03300
H 	H 	0.86092 0.58340 0.47254 0.04500
H 	H 	0.08275 0.98755 0.49005 0.03900
C 	C 	0.74032 0.49224 0.98586 -0.08800
C 	C 	0.71899 0.51547 0.99644 0.01300
C 	C 	0.74415 0.56568 0.99736 -0.06800
C 	C 	0.79076 0.59319 0.98760 0.02700
C 	C 	0.81206 0.57008 0.97690 -0.06800
C 	C 	0.78701 0.51986 0.97607 0.01400
C 	C 	0.81735 0.64624 0.98874 -0.00300
C 	C 	0.79592 0.66332 0.96869 -0.03700
C 	C 	0.82095 0.71362 0.97001 -0.04100
C 	C 	0.86764 0.74718 0.99126 0.00400
C 	C 	0.88903 0.73014 0.01136 -0.04100
C 	C 	0.86395 0.67986 0.01016 -0.03700
C 	C 	0.89475 0.80005 0.99179 0.01300
C 	C 	0.87867 0.82567 0.00759 -0.04900
C 	C 	0.90511 0.87613 0.00873 -0.01900
C 	C 	0.94781 0.90134 0.99393 -0.02400
C 	C 	0.96338 0.87535 0.97771 -0.02000
C 	C 	0.93705 0.82501 0.97676 -0.04900
H 	H 	0.68281 0.49461 0.00376 0.03300
H 	H 	0.72749 0.58325 0.00574 0.04600
H 	H 	0.84800 0.59103 0.96922 0.04500
H 	H 	0.80408 0.50254 0.96809 0.03100
H 	H 	0.76002 0.63763 0.95201 0.03800
H 	H 	0.80428 0.72651 0.95431 0.03900
H 	H 	0.92507 0.75586 0.02787 0.03900
H 	H 	0.88062 0.66703 0.02591 0.03700
H 	H 	0.84600 0.80660 0.01927 0.04100
H 	H 	0.89282 0.89567 0.02153 0.03900
H 	H 	0.99579 0.89411 0.96576 0.04000
H 	H 	0.94950 0.80538 0.96433 0.04100
H 	H 	0.90136 0.00037 0.02879 0.03900
