data_crystal

_cell_length_a 20.34053
_cell_length_b 20.59535
_cell_length_c 26.67040
_cell_angle_alpha 95.46380
_cell_angle_beta  95.46484
_cell_angle_gamma 126.13073

_symmetry_space_group_name_	'P 1'
_symmetry_space_group_name_H-M	'P 1'

loop_
_symmetry_equiv_pos_as_xyz
  x,y,z

loop_
_atom_site_label
_atom_site_type_symbol
_atom_site_fract_x
_atom_site_fract_y
_atom_site_fract_z
_atom_site_charge
C 	C 	0.96425 0.04442 0.00087 0.06500
C 	C 	0.04864 0.08792 0.99793 -0.09900
C 	C 	0.08405 0.04646 0.99476 0.05300
C 	C 	0.03929 0.01046 0.44919 0.03100
C 	C 	0.99750 0.04517 0.44601 -0.06500
H 	H 	0.03173 0.10995 0.44524 0.05100
C 	C 	0.84330 0.07372 0.44477 -0.02600
C 	C 	0.87108 0.03546 0.44414 -0.01100
C 	C 	0.20102 0.10055 0.45419 -0.02800
C 	C 	0.12733 0.06035 0.45191 -0.00900
C 	C 	0.92551 0.08472 0.00153 -0.02300
C 	C 	0.17039 0.08929 0.99217 -0.02000
C 	C 	0.88912 0.11444 0.00111 -0.00900
C 	C 	0.81522 0.12259 0.44722 0.06100
C 	C 	0.24183 0.11964 0.99026 -0.02300
C 	C 	0.28708 0.14646 0.45660 0.06500
C 	C 	0.84360 0.14621 0.99905 0.04600
H 	H 	0.08613 0.15307 0.99784 0.05800
C 	C 	0.32484 0.15160 0.98866 0.05700
C 	C 	0.03536 0.96237 0.99445 -0.08900
C 	C 	0.95163 0.91928 0.99729 0.04800
C 	C 	0.91606 0.96015 0.00069 -0.08000
H 	H 	0.06270 0.93039 0.99189 0.05800
H 	H 	0.85084 0.92637 0.00262 0.06000
C 	C 	0.91184 0.99685 0.44462 0.03900
C 	C 	0.86769 0.91276 0.44608 -0.07400
C 	C 	0.91025 0.87810 0.44887 0.04000
C 	C 	0.99576 0.92727 0.45039 -0.06500
H 	H 	0.80148 0.87508 0.44534 0.05600
H 	H 	0.02859 0.90070 0.45275 0.05200
Cu	Cu	0.63361 0.22602 0.00837 0.93000
Cu	Cu	0.70014 0.23203 0.90025 0.87200
Cu	Cu	0.67977 0.35592 0.94257 0.89700
Cu	Cu	0.63570 0.37685 0.04381 0.90000
C 	C 	0.65259 0.28222 0.11575 0.31000
O 	O 	0.51223 0.17789 0.00688 -0.35200
C 	C 	0.65793 0.30326 0.83018 0.30600
O 	O 	0.70122 0.35335 0.01384 -0.63500
O 	O 	0.62329 0.23574 0.93532 -0.64300
O 	O 	0.68700 0.16981 0.00502 -0.36000
O 	O 	0.77797 0.25685 0.95819 -0.43800
O 	O 	0.61761 0.31681 0.10192 -0.38000
O 	O 	0.74112 0.47352 0.95429 -0.37900
C 	C 	0.73685 0.51775 0.99118 0.30600
C 	C 	0.48158 0.21417 0.98901 0.29600
O 	O 	0.53187 0.28994 0.98268 -0.39700
O 	O 	0.68368 0.48409 0.02245 -0.38300
O 	O 	0.66076 0.23796 0.08136 -0.35700
C 	C 	0.75720 0.20365 0.98836 0.29900
O 	O 	0.67529 0.36031 0.86842 -0.37500
O 	O 	0.64859 0.23651 0.83858 -0.41800
H 	H 	0.76060 0.38873 0.03014 0.17300
H 	H 	0.56596 0.20165 0.91541 0.17500
Cu	Cu	0.74249 0.33746 0.43866 0.92600
Cu	Cu	0.74134 0.27659 0.54825 0.87300
Cu	Cu	0.61373 0.29408 0.50674 0.89900
Cu	Cu	0.58657 0.33208 0.40427 0.89800
C 	C 	0.67590 0.30786 0.33162 0.30700
O 	O 	0.78967 0.45724 0.43837 -0.35600
C 	C 	0.67134 0.31961 0.61900 0.30500
O 	O 	0.61357 0.27023 0.43523 -0.63700
O 	O 	0.73534 0.35045 0.51211 -0.63900
O 	O 	0.79840 0.28308 0.44189 -0.36700
O 	O 	0.71262 0.19671 0.49117 -0.43900
O 	O 	0.64345 0.34522 0.34486 -0.38300
O 	O 	0.49449 0.23238 0.49695 -0.37900
C 	C 	0.44770 0.23264 0.45920 0.31500
C 	C 	0.75205 0.48719 0.45541 0.30200
O 	O 	0.67634 0.43733 0.46336 -0.39400
O 	O 	0.47984 0.28539 0.42795 -0.39300
O 	O 	0.72800 0.30817 0.36554 -0.35700
C 	C 	0.76424 0.21455 0.45973 0.30900
O 	O 	0.61275 0.30241 0.58137 -0.37400
O 	O 	0.73903 0.32987 0.60967 -0.41700
H 	H 	0.57792 0.21116 0.41998 0.17000
H 	H 	0.77001 0.40764 0.53114 0.17600
C 	C 	0.65924 0.32403 0.67254 -0.10700
C 	C 	0.72384 0.38957 0.71054 -0.06000
C 	C 	0.72061 0.38630 0.76259 0.16600
C 	C 	0.65296 0.31632 0.77694 -0.10800
C 	C 	0.58572 0.25349 0.73899 -0.05900
C 	C 	0.58827 0.25743 0.68696 0.16500
H 	H 	0.77807 0.44171 0.69977 0.06000
O 	O 	0.78653 0.44866 0.79920 -0.29200
H 	H 	0.53280 0.20002 0.74975 0.05900
O 	O 	0.52419 0.19316 0.65033 -0.29200
H 	H 	0.48511 0.20650 0.64299 0.15600
H 	H 	0.77397 0.48782 0.80741 0.15600
C 	C 	0.67186 0.28615 0.27658 -0.10000
C 	C 	0.74418 0.32949 0.25570 -0.05400
C 	C 	0.73880 0.32351 0.20239 0.16700
C 	C 	0.66071 0.27401 0.16974 -0.10100
C 	C 	0.58911 0.22537 0.19040 -0.05400
C 	C 	0.59434 0.23171 0.24360 0.16600
H 	H 	0.80421 0.37111 0.28080 0.07000
O 	O 	0.80946 0.37033 0.18259 -0.29200
H 	H 	0.52890 0.18549 0.16532 0.06700
O 	O 	0.52356 0.18497 0.26335 -0.29300
H 	H 	0.50225 0.21751 0.26687 0.14200
H 	H 	0.82774 0.33559 0.17591 0.15500
C 	C 	0.78590 0.57129 0.45472 -0.11000
C 	C 	0.81058 0.64073 0.45361 0.06000
C 	C 	0.83927 0.72199 0.45196 -0.02400
C 	C 	0.86760 0.79232 0.45048 -0.01200
C 	C 	0.79249 0.16519 0.45140 -0.11700
C 	C 	0.36053 0.18555 0.45817 -0.11100
C 	C 	0.90220 0.83271 0.99596 -0.01700
C 	C 	0.86294 0.76028 0.99468 -0.02300
C 	C 	0.81872 0.67571 0.99318 0.06100
C 	C 	0.78146 0.60352 0.99208 -0.10900
C 	C 	0.80388 0.17229 0.99545 -0.11400
C 	C 	0.39591 0.17880 0.98817 -0.11200
